data_crystal

_cell_length_a 10.90680
_cell_length_b 15.85800
_cell_length_c 16.10470
_cell_angle_alpha 89.57500
_cell_angle_beta  89.48500
_cell_angle_gamma 85.88900

_symmetry_space_group_name_	'P 1'
_symmetry_space_group_name_H-M	'P 1'

loop_
_symmetry_equiv_pos_as_xyz
  x,y,z

loop_
_atom_site_label
_atom_site_type_symbol
_atom_site_fract_x
_atom_site_fract_y
_atom_site_fract_z
_atom_site_charge
Fe	Fe	0.97426 0.27905 0.74711 1.12900
N 	N 	0.01300 0.20030 0.63840 -0.24000
N 	N 	0.98890 0.02760 0.52540 -0.09500
N 	N 	0.93830 0.35730 0.85510 -0.24300
N 	N 	0.96600 0.48730 0.02770 -0.09300
N 	N 	0.95210 0.16800 0.82060 -0.24400
N 	N 	0.99990 0.03340 0.98020 -0.09600
N 	N 	0.00190 0.38820 0.67390 -0.24800
N 	N 	0.04220 0.52310 0.50770 -0.09400
N 	N 	0.16690 0.27000 0.77810 -0.24000
N 	N 	0.49040 0.26420 0.78860 -0.09300
N 	N 	0.78080 0.28270 0.71880 -0.24000
N 	N 	0.45990 0.26260 0.71460 -0.09400
C 	C 	0.03970 0.15650 0.58510 0.06700
C 	C 	0.06860 0.10040 0.51280 0.07700
C 	C 	0.20540 0.07000 0.51190 -0.16900
H 	H 	0.22740 0.04340 0.56610 0.07300
H 	H 	0.22080 0.02680 0.46830 0.08000
C 	C 	0.28540 0.14260 0.49550 -0.02200
H 	H 	0.37260 0.12070 0.49250 0.02100
H 	H 	0.27640 0.18300 0.54220 0.03100
C 	C 	0.25030 0.18860 0.41440 -0.13300
H 	H 	0.30150 0.23720 0.40680 0.05400
H 	H 	0.26700 0.14970 0.36720 0.05800
C 	C 	0.11570 0.21990 0.41460 -0.02500
H 	H 	0.09450 0.24540 0.35990 0.02200
H 	H 	0.10150 0.26440 0.45720 0.03200
C 	C 	0.03190 0.14860 0.43290 -0.16600
H 	H 	0.03610 0.10880 0.38570 0.07800
H 	H 	0.94590 0.17260 0.43830 0.07000
C 	C 	0.92150 0.38580 0.91870 0.07300
C 	C 	0.89840 0.41320 0.00590 0.07500
C 	C 	0.94160 0.33950 0.06250 -0.16300
H 	H 	0.93960 0.35900 0.12080 0.07400
H 	H 	0.02780 0.32090 0.04830 0.07000
C 	C 	0.86140 0.26360 0.05500 -0.02700
H 	H 	0.87140 0.23910 0.99880 0.03200
H 	H 	0.88840 0.21940 0.09590 0.02500
C 	C 	0.72780 0.29170 0.07030 -0.12800
H 	H 	0.67740 0.24280 0.06350 0.05200
H 	H 	0.71740 0.31150 0.12830 0.05700
C 	C 	0.68210 0.36160 0.01210 -0.02600
H 	H 	0.59520 0.37900 0.02550 0.02200
H 	H 	0.68600 0.34060 0.95430 0.03100
C 	C 	0.76010 0.43810 0.01930 -0.16300
H 	H 	0.74740 0.46340 0.07500 0.07300
H 	H 	0.73250 0.48130 0.97750 0.07000
C 	C 	0.94230 0.10710 0.85770 0.06500
C 	C 	0.91790 0.03010 0.90610 0.07400
C 	C 	0.94370 0.95030 0.85300 -0.16500
H 	H 	0.02980 0.94780 0.83270 0.07200
H 	H 	0.93360 0.89960 0.88790 0.07800
C 	C 	0.85790 0.94960 0.77930 -0.02600
H 	H 	0.87410 0.89620 0.74840 0.02300
H 	H 	0.87350 0.99710 0.74140 0.03200
C 	C 	0.72450 0.95760 0.80830 -0.13000
H 	H 	0.67040 0.96000 0.75920 0.05200
H 	H 	0.70710 0.90680 0.84120 0.05700
C 	C 	0.69570 0.03520 0.86020 -0.02500
H 	H 	0.60980 0.03550 0.88080 0.02200
H 	H 	0.70250 0.08620 0.82510 0.03300
C 	C 	0.78190 0.03890 0.93410 -0.16500
H 	H 	0.76610 0.99290 0.97380 0.07700
H 	H 	0.76520 0.09350 0.96310 0.07100
C 	C 	0.03580 0.44330 0.63750 0.07900
C 	C 	0.09330 0.51210 0.59160 0.07200
C 	C 	0.23390 0.48960 0.58320 -0.16300
H 	H 	0.24790 0.43240 0.55920 0.07100
H 	H 	0.26970 0.53010 0.54450 0.07400
C 	C 	0.29840 0.49170 0.66570 -0.02800
H 	H 	0.38810 0.48120 0.65680 0.02500
H 	H 	0.27060 0.44610 0.70210 0.03500
C 	C 	0.27180 0.57710 0.70850 -0.12900
H 	H 	0.31090 0.57540 0.76380 0.05300
H 	H 	0.30790 0.62200 0.67510 0.05700
C 	C 	0.13340 0.59810 0.71860 -0.02700
H 	H 	0.09910 0.55650 0.75690 0.03300
H 	H 	0.11880 0.65480 0.74350 0.02200
C 	C 	0.06780 0.59660 0.63590 -0.16400
H 	H 	0.09510 0.64270 0.59990 0.07400
H 	H 	0.97820 0.60700 0.64530 0.07100
C 	C 	0.26420 0.26440 0.80480 0.07200
C 	C 	0.38490 0.25920 0.84730 0.07500
C 	C 	0.40770 0.17460 0.89350 -0.16600
H 	H 	0.39790 0.12780 0.85430 0.07200
H 	H 	0.49330 0.16940 0.91370 0.07500
C 	C 	0.32010 0.16600 0.96690 -0.02600
H 	H 	0.34280 0.11270 0.99710 0.02300
H 	H 	0.23530 0.16330 0.94620 0.03400
C 	C 	0.32370 0.24080 0.02710 -0.13500
H 	H 	0.26190 0.23540 0.07190 0.05400
H 	H 	0.40580 0.24020 0.05290 0.05800
C 	C 	0.29640 0.32390 0.98010 -0.02200
H 	H 	0.21170 0.32590 0.95830 0.03400
H 	H 	0.30120 0.37160 0.01890 0.02300
C 	C 	0.38630 0.33400 0.90830 -0.16600
H 	H 	0.47030 0.33710 0.93030 0.07500
H 	H 	0.36380 0.38760 0.87830 0.07200
C 	C 	0.68250 0.27440 0.69470 0.06700
C 	C 	0.56390 0.25980 0.65440 0.07900
C 	C 	0.53550 0.32780 0.58860 -0.16900
H 	H 	0.54100 0.38420 0.61360 0.07200
H 	H 	0.45030 0.32410 0.56900 0.07500
C 	C 	0.62460 0.31850 0.51410 -0.02800
H 	H 	0.59890 0.36060 0.47080 0.02300
H 	H 	0.70840 0.32980 0.53200 0.03200
C 	C 	0.62630 0.22900 0.47760 -0.13000
H 	H 	0.54400 0.21950 0.45550 0.05800
H 	H 	0.68620 0.22390 0.43100 0.05300
C 	C 	0.66100 0.16260 0.54300 -0.02400
H 	H 	0.74610 0.16920 0.56150 0.03200
H 	H 	0.65860 0.10570 0.51840 0.02200
C 	C 	0.57400 0.17000 0.61750 -0.16800
H 	H 	0.60370 0.12910 0.66090 0.07300
H 	H 	0.49140 0.15510 0.60040 0.07600
Fe	Fe	0.02574 0.72095 0.25289 1.13000
N 	N 	0.98700 0.79970 0.36160 -0.23900
N 	N 	0.01110 0.97240 0.47460 -0.09500
N 	N 	0.06170 0.64270 0.14490 -0.24300
N 	N 	0.03400 0.51270 0.97230 -0.09300
N 	N 	0.04790 0.83200 0.17940 -0.24400
N 	N 	0.00010 0.96660 0.01980 -0.09600
N 	N 	0.99810 0.61180 0.32610 -0.24800
N 	N 	0.95780 0.47690 0.49230 -0.09400
N 	N 	0.83310 0.73000 0.22190 -0.24000
N 	N 	0.50960 0.73580 0.21140 -0.09300
N 	N 	0.21920 0.71730 0.28120 -0.24000
N 	N 	0.54010 0.73740 0.28540 -0.09400
C 	C 	0.96030 0.84350 0.41490 0.06700
C 	C 	0.93140 0.89960 0.48720 0.07700
C 	C 	0.79460 0.93000 0.48810 -0.16900
H 	H 	0.77260 0.95660 0.43390 0.07300
H 	H 	0.77920 0.97320 0.53170 0.08000
C 	C 	0.71460 0.85740 0.50450 -0.02200
H 	H 	0.62740 0.87930 0.50750 0.02100
H 	H 	0.72360 0.81700 0.45780 0.03100
C 	C 	0.74970 0.81140 0.58560 -0.13300
H 	H 	0.69850 0.76280 0.59320 0.05400
H 	H 	0.73300 0.85030 0.63280 0.05800
C 	C 	0.88430 0.78010 0.58540 -0.02500
H 	H 	0.90550 0.75460 0.64010 0.02200
H 	H 	0.89850 0.73560 0.54280 0.03200
C 	C 	0.96810 0.85140 0.56710 -0.16600
H 	H 	0.96390 0.89120 0.61430 0.07800
H 	H 	0.05410 0.82740 0.56170 0.07000
C 	C 	0.07850 0.61420 0.08130 0.07300
C 	C 	0.10160 0.58680 0.99410 0.07500
C 	C 	0.05840 0.66050 0.93750 -0.16300
H 	H 	0.06040 0.64100 0.87920 0.07400
H 	H 	0.97220 0.67910 0.95170 0.07000
C 	C 	0.13860 0.73640 0.94500 -0.02700
H 	H 	0.12860 0.76090 0.00120 0.03200
H 	H 	0.11160 0.78060 0.90410 0.02500
C 	C 	0.27220 0.70830 0.92970 -0.12800
H 	H 	0.32260 0.75720 0.93650 0.05200
H 	H 	0.28260 0.68850 0.87170 0.05700
C 	C 	0.31790 0.63840 0.98790 -0.02600
H 	H 	0.40480 0.62100 0.97450 0.02200
H 	H 	0.31400 0.65940 0.04570 0.03100
C 	C 	0.23990 0.56190 0.98070 -0.16300
H 	H 	0.25260 0.53660 0.92500 0.07300
H 	H 	0.26750 0.51870 0.02250 0.07000
C 	C 	0.05770 0.89290 0.14230 0.06500
C 	C 	0.08210 0.96990 0.09390 0.07400
C 	C 	0.05630 0.04970 0.14700 -0.16500
H 	H 	0.97020 0.05220 0.16730 0.07200
H 	H 	0.06640 0.10040 0.11210 0.07800
C 	C 	0.14210 0.05040 0.22070 -0.02600
H 	H 	0.12590 0.10380 0.25160 0.02300
H 	H 	0.12650 0.00290 0.25860 0.03200
C 	C 	0.27550 0.04240 0.19170 -0.13000
H 	H 	0.32960 0.04000 0.24080 0.05200
H 	H 	0.29290 0.09320 0.15880 0.05700
C 	C 	0.30430 0.96480 0.13980 -0.02500
H 	H 	0.39020 0.96450 0.11920 0.02200
H 	H 	0.29750 0.91380 0.17490 0.03300
C 	C 	0.21810 0.96110 0.06590 -0.16500
H 	H 	0.23390 0.00710 0.02620 0.07700
H 	H 	0.23480 0.90650 0.03690 0.07100
C 	C 	0.96420 0.55670 0.36250 0.07900
C 	C 	0.90670 0.48790 0.40840 0.07200
C 	C 	0.76610 0.51040 0.41680 -0.16300
H 	H 	0.75210 0.56760 0.44080 0.07100
H 	H 	0.73030 0.46990 0.45550 0.07400
C 	C 	0.70160 0.50830 0.33430 -0.02800
H 	H 	0.61190 0.51880 0.34320 0.02500
H 	H 	0.72940 0.55390 0.29790 0.03500
C 	C 	0.72820 0.42290 0.29150 -0.12900
H 	H 	0.68910 0.42460 0.23620 0.05300
H 	H 	0.69210 0.37800 0.32490 0.05700
C 	C 	0.86660 0.40190 0.28140 -0.02700
H 	H 	0.90090 0.44350 0.24310 0.03300
H 	H 	0.88120 0.34520 0.25650 0.02200
C 	C 	0.93220 0.40340 0.36410 -0.16400
H 	H 	0.90490 0.35730 0.40010 0.07400
H 	H 	0.02180 0.39300 0.35470 0.07100
C 	C 	0.73580 0.73560 0.19520 0.07200
C 	C 	0.61510 0.74080 0.15270 0.07500
C 	C 	0.59230 0.82540 0.10650 -0.16600
H 	H 	0.60210 0.87220 0.14570 0.07200
H 	H 	0.50670 0.83060 0.08630 0.07500
C 	C 	0.67990 0.83400 0.03310 -0.02600
H 	H 	0.65720 0.88730 0.00290 0.02300
H 	H 	0.76470 0.83670 0.05380 0.03400
C 	C 	0.67630 0.75920 0.97290 -0.13500
H 	H 	0.73810 0.76460 0.92810 0.05400
H 	H 	0.59420 0.75980 0.94710 0.05800
C 	C 	0.70360 0.67610 0.01990 -0.02200
H 	H 	0.78830 0.67410 0.04170 0.03400
H 	H 	0.69880 0.62840 0.98110 0.02300
C 	C 	0.61370 0.66600 0.09170 -0.16600
H 	H 	0.52970 0.66290 0.06970 0.07500
H 	H 	0.63620 0.61240 0.12170 0.07200
C 	C 	0.31750 0.72560 0.30530 0.06700
C 	C 	0.43610 0.74020 0.34560 0.07900
C 	C 	0.46450 0.67220 0.41140 -0.16900
H 	H 	0.45900 0.61580 0.38640 0.07200
H 	H 	0.54970 0.67590 0.43100 0.07500
C 	C 	0.37540 0.68150 0.48590 -0.02800
H 	H 	0.40110 0.63940 0.52920 0.02300
H 	H 	0.29160 0.67020 0.46800 0.03200
C 	C 	0.37370 0.77100 0.52240 -0.13000
H 	H 	0.45600 0.78050 0.54450 0.05800
H 	H 	0.31380 0.77610 0.56900 0.05300
C 	C 	0.33900 0.83740 0.45700 -0.02400
H 	H 	0.25390 0.83080 0.43850 0.03200
H 	H 	0.34140 0.89430 0.48160 0.02200
C 	C 	0.42600 0.83000 0.38250 -0.16800
H 	H 	0.39630 0.87090 0.33910 0.07300
H 	H 	0.50860 0.84490 0.39960 0.07600
