data_crystal

_cell_length_a 9.10290
_cell_length_b 8.09290
_cell_length_c 11.39600
_cell_angle_alpha 90.00000
_cell_angle_beta  90.00000
_cell_angle_gamma 90.00000

_symmetry_space_group_name_	'P 1'
_symmetry_space_group_name_H-M	'P 1'

loop_
_symmetry_equiv_pos_as_xyz
  x,y,z

loop_
_atom_site_label
_atom_site_type_symbol
_atom_site_fract_x
_atom_site_fract_y
_atom_site_fract_z
_atom_site_charge
Cu	Cu	0.53332 0.50644 0.50042 0.79600
O 	O 	0.53629 0.62140 0.65748 -0.49000
O 	O 	0.49445 0.61526 0.84853 -0.42600
C 	C 	0.49926 0.54620 0.75031 0.43400
H 	H 	0.47410 0.43250 0.74520 -0.18400
Cu	Cu	0.46668 0.49356 0.00042 0.72200
O 	O 	0.46371 0.37860 0.15748 -0.54900
O 	O 	0.50555 0.38474 0.34853 -0.52400
C 	C 	0.50074 0.45380 0.25031 0.46300
H 	H 	0.52590 0.56750 0.24520 -0.24100
Cu	Cu	0.03332 0.99356 0.50042 0.79100
O 	O 	0.03629 0.87860 0.65748 -0.49000
O 	O 	0.99445 0.88474 0.84853 -0.42500
C 	C 	0.99926 0.95380 0.75031 0.41400
H 	H 	0.97410 0.06750 0.74520 -0.17100
Cu	Cu	0.96668 0.00644 0.00042 0.72800
O 	O 	0.96371 0.12140 0.15748 -0.55400
O 	O 	0.00555 0.11526 0.34853 -0.52700
C 	C 	0.00074 0.04620 0.25031 0.48900
H 	H 	0.02590 0.93250 0.24520 -0.25600
