data_crystal

_cell_length_a 9.14220
_cell_length_b 8.10160
_cell_length_c 11.41500
_cell_angle_alpha 90.00000
_cell_angle_beta  90.00000
_cell_angle_gamma 90.00000

_symmetry_space_group_name_	'P 1'
_symmetry_space_group_name_H-M	'P 1'

loop_
_symmetry_equiv_pos_as_xyz
  x,y,z

loop_
_atom_site_label
_atom_site_type_symbol
_atom_site_fract_x
_atom_site_fract_y
_atom_site_fract_z
_atom_site_charge
Cu	Cu	0.53217 0.50640 0.50037 0.79600
O 	O 	0.53559 0.62014 0.65756 -0.49300
O 	O 	0.49564 0.61415 0.84817 -0.42800
C 	C 	0.49963 0.54531 0.75017 0.44000
H 	H 	0.47450 0.43170 0.74520 -0.18500
Cu	Cu	0.46783 0.49360 0.00037 0.72200
O 	O 	0.46441 0.37986 0.15756 -0.55200
O 	O 	0.50436 0.38585 0.34817 -0.52600
C 	C 	0.50037 0.45469 0.25017 0.46900
H 	H 	0.52550 0.56830 0.24520 -0.24200
Cu	Cu	0.03217 0.99360 0.50037 0.79100
O 	O 	0.03559 0.87986 0.65756 -0.49300
O 	O 	0.99564 0.88585 0.84817 -0.42700
C 	C 	0.99963 0.95469 0.75017 0.42000
H 	H 	0.97450 0.06830 0.74520 -0.17200
Cu	Cu	0.96783 0.00640 0.00037 0.72800
O 	O 	0.96441 0.12014 0.15756 -0.55700
O 	O 	0.00436 0.11415 0.34817 -0.52900
C 	C 	0.00037 0.04531 0.25017 0.49500
H 	H 	0.02550 0.93170 0.24520 -0.25700
