data_crystal

_cell_length_a 10.16500
_cell_length_b 8.29550
_cell_length_c 11.18110
_cell_angle_alpha 90.00000
_cell_angle_beta  90.00000
_cell_angle_gamma 90.00000

_symmetry_space_group_name_	'P 1'
_symmetry_space_group_name_H-M	'P 1'

loop_
_symmetry_equiv_pos_as_xyz
  x,y,z

loop_
_atom_site_label
_atom_site_type_symbol
_atom_site_fract_x
_atom_site_fract_y
_atom_site_fract_z
_atom_site_charge
Cu	Cu	0.20486 0.00078 0.26590 0.80100
O 	O 	0.18380 0.10440 0.42670 -0.52900
O 	O 	0.24350 0.11200 0.61590 -0.53200
C 	C 	0.23090 0.04050 0.51860 0.50500
H 	H 	0.25810 0.93360 0.51390 -0.24200
Cu	Cu	0.29514 0.99922 0.76590 0.80000
O 	O 	0.31620 0.89560 0.92670 -0.53000
O 	O 	0.25650 0.88800 0.11590 -0.53300
C 	C 	0.26910 0.95950 0.01860 0.50600
H 	H 	0.24190 0.06640 0.01390 -0.24300
Cu	Cu	0.79514 0.50078 0.23410 0.80000
O 	O 	0.81620 0.60440 0.07330 -0.52900
O 	O 	0.75650 0.61200 0.88410 -0.53300
C 	C 	0.76910 0.54050 0.98140 0.50200
H 	H 	0.74190 0.43360 0.98610 -0.24200
Cu	Cu	0.70486 0.49922 0.73410 0.80000
O 	O 	0.68380 0.39560 0.57330 -0.53000
O 	O 	0.74350 0.38800 0.38410 -0.53300
C 	C 	0.73090 0.45950 0.48140 0.50400
H 	H 	0.75810 0.56640 0.48610 -0.24200
