data_crystal

_cell_length_a 10.03380
_cell_length_b 8.28270
_cell_length_c 11.15830
_cell_angle_alpha 90.00000
_cell_angle_beta  90.00000
_cell_angle_gamma 90.00000

_symmetry_space_group_name_	'P 1'
_symmetry_space_group_name_H-M	'P 1'

loop_
_symmetry_equiv_pos_as_xyz
  x,y,z

loop_
_atom_site_label
_atom_site_type_symbol
_atom_site_fract_x
_atom_site_fract_y
_atom_site_fract_z
_atom_site_charge
Cu	Cu	0.20437 0.00118 0.26844 0.91000
O 	O 	0.01490 0.09830 0.18570 -0.34800
O 	O 	0.87190 0.30150 0.16840 -0.38300
O 	O 	0.18280 0.10790 0.42870 -0.38600
O 	O 	0.24280 0.11510 0.61960 -0.39100
C 	C 	0.96950 0.23210 0.21720 0.40200
H 	H 	0.01150 0.28520 0.28260 -0.09000
C 	C 	0.23050 0.04160 0.52140 0.40600
H 	H 	0.25810 0.93200 0.51670 -0.11700
Cu	Cu	0.29563 0.99882 0.76844 0.90800
O 	O 	0.48510 0.90170 0.68570 -0.35000
O 	O 	0.62810 0.69850 0.66840 -0.38400
O 	O 	0.31720 0.89210 0.92870 -0.38800
O 	O 	0.25720 0.88490 0.11960 -0.39200
C 	C 	0.53050 0.76790 0.71720 0.40600
H 	H 	0.48850 0.71480 0.78260 -0.09100
C 	C 	0.26950 0.95840 0.02140 0.40700
H 	H 	0.24190 0.06800 0.01670 -0.11800
Cu	Cu	0.79563 0.50118 0.23156 0.90800
O 	O 	0.98510 0.59830 0.31430 -0.34900
O 	O 	0.12810 0.80150 0.33160 -0.38300
O 	O 	0.81720 0.60790 0.07130 -0.38600
O 	O 	0.75720 0.61510 0.88040 -0.39100
C 	C 	0.03050 0.73210 0.28280 0.40300
H 	H 	0.98850 0.78520 0.21740 -0.08900
C 	C 	0.76950 0.54160 0.97860 0.40200
H 	H 	0.74190 0.43200 0.98330 -0.11600
Cu	Cu	0.70437 0.49882 0.73156 0.90800
O 	O 	0.51490 0.40170 0.81430 -0.35000
O 	O 	0.37190 0.19850 0.83160 -0.38300
O 	O 	0.68280 0.39210 0.57130 -0.38700
O 	O 	0.74280 0.38490 0.38040 -0.39100
C 	C 	0.46950 0.26790 0.78280 0.40600
H 	H 	0.51150 0.21480 0.71740 -0.09100
C 	C 	0.73050 0.45840 0.47860 0.40400
H 	H 	0.75810 0.56800 0.48330 -0.11600
