data_crystal

_cell_length_a 10.14430
_cell_length_b 8.28890
_cell_length_c 11.15960
_cell_angle_alpha 90.00000
_cell_angle_beta  90.00000
_cell_angle_gamma 90.00000

_symmetry_space_group_name_	'P 1'
_symmetry_space_group_name_H-M	'P 1'

loop_
_symmetry_equiv_pos_as_xyz
  x,y,z

loop_
_atom_site_label
_atom_site_type_symbol
_atom_site_fract_x
_atom_site_fract_y
_atom_site_fract_z
_atom_site_charge
Cu	Cu	0.20469 0.00061 0.26613 0.80000
O 	O 	0.18340 0.10460 0.42690 -0.53000
O 	O 	0.24380 0.11240 0.61630 -0.53200
C 	C 	0.23130 0.04070 0.51850 0.50400
H 	H 	0.25910 0.93400 0.51370 -0.24200
Cu	Cu	0.29531 0.99939 0.76613 0.80100
O 	O 	0.31660 0.89540 0.92690 -0.53000
O 	O 	0.25620 0.88760 0.11630 -0.53200
C 	C 	0.26870 0.95930 0.01850 0.50500
H 	H 	0.24090 0.06600 0.01370 -0.24300
Cu	Cu	0.79531 0.50061 0.23387 0.80100
O 	O 	0.81660 0.60460 0.07310 -0.52900
O 	O 	0.75620 0.61240 0.88370 -0.53200
C 	C 	0.76870 0.54070 0.98150 0.50100
H 	H 	0.74090 0.43400 0.98630 -0.24200
Cu	Cu	0.70469 0.49939 0.73387 0.80100
O 	O 	0.68340 0.39540 0.57310 -0.53000
O 	O 	0.74380 0.38760 0.38370 -0.53200
C 	C 	0.73130 0.45930 0.48150 0.50300
H 	H 	0.75910 0.56600 0.48630 -0.24200
