data_crystal

_cell_length_a 7.98700
_cell_length_b 8.53400
_cell_length_c 11.25900
_cell_angle_alpha 71.96100
_cell_angle_beta  84.27000
_cell_angle_gamma 68.04500

_symmetry_space_group_name_	'P 1'
_symmetry_space_group_name_H-M	'P 1'

loop_
_symmetry_equiv_pos_as_xyz
  x,y,z

loop_
_atom_site_label
_atom_site_type_symbol
_atom_site_fract_x
_atom_site_fract_y
_atom_site_fract_z
_atom_site_charge
Nd	Nd	0.78591 0.25810 0.97797 2.07900
O 	O 	0.93770 0.96340 0.12050 -0.64700
O 	O 	0.08000 0.27270 0.02510 -0.45000
O 	O 	0.76120 0.34400 0.17290 -0.52800
O 	O 	0.51590 0.45780 0.86700 -0.63100
O 	O 	0.90240 0.29640 0.75580 -0.47800
O 	O 	0.20080 0.43910 0.07930 -0.44300
C 	C 	0.08430 0.41410 0.03070 0.29000
N 	N 	0.96690 0.18340 0.54830 -0.08900
N 	N 	0.76890 0.36510 0.40690 -0.07200
C 	C 	0.04810 0.05680 0.66650 -0.28100
H 	H 	0.17820 0.01090 0.65840 0.10400
H 	H 	0.00680 0.95850 0.68570 0.11200
C 	C 	0.79810 0.23240 0.51130 0.06400
H 	H 	0.71460 0.18240 0.55160 -0.00200
C 	C 	0.59600 0.45200 0.33710 -0.34500
H 	H 	0.54380 0.57450 0.33820 0.12000
H 	H 	0.51290 0.39440 0.37840 0.12900
C 	C 	0.61730 0.44770 0.20180 0.54600
C 	C 	0.04700 0.28500 0.46520 0.02300
H 	H 	0.16690 0.27560 0.46900 0.02200
C 	C 	0.92800 0.40000 0.37880 -0.02300
H 	H 	0.94590 0.48740 0.31130 0.05400
C 	C 	0.00130 0.13860 0.77330 0.44500
Nd	Nd	0.21409 0.74190 0.02203 2.08000
O 	O 	0.06230 0.03660 0.87950 -0.64600
O 	O 	0.92000 0.72730 0.97490 -0.45000
O 	O 	0.23880 0.65600 0.82710 -0.52800
O 	O 	0.48410 0.54220 0.13300 -0.63100
O 	O 	0.09760 0.70360 0.24420 -0.47800
O 	O 	0.79920 0.56090 0.92070 -0.44300
C 	C 	0.91570 0.58590 0.96930 0.29000
N 	N 	0.03310 0.81660 0.45170 -0.08900
N 	N 	0.23110 0.63490 0.59310 -0.07200
C 	C 	0.95190 0.94320 0.33350 -0.28100
H 	H 	0.82180 0.98910 0.34160 0.10400
H 	H 	0.99320 0.04150 0.31430 0.11200
C 	C 	0.20190 0.76760 0.48870 0.06400
H 	H 	0.28540 0.81760 0.44840 -0.00200
C 	C 	0.40400 0.54800 0.66290 -0.34500
H 	H 	0.45620 0.42550 0.66180 0.12000
H 	H 	0.48710 0.60560 0.62160 0.12900
C 	C 	0.38270 0.55230 0.79820 0.54600
C 	C 	0.95300 0.71500 0.53480 0.02300
H 	H 	0.83310 0.72440 0.53100 0.02200
C 	C 	0.07200 0.60000 0.62120 -0.02300
H 	H 	0.05410 0.51260 0.68870 0.05400
C 	C 	0.99870 0.86140 0.22670 0.44500
