data_crystal

_cell_length_a 10.07290
_cell_length_b 8.27890
_cell_length_c 11.15350
_cell_angle_alpha 90.00000
_cell_angle_beta  90.00000
_cell_angle_gamma 90.00000

_symmetry_space_group_name_	'P 1'
_symmetry_space_group_name_H-M	'P 1'

loop_
_symmetry_equiv_pos_as_xyz
  x,y,z

loop_
_atom_site_label
_atom_site_type_symbol
_atom_site_fract_x
_atom_site_fract_y
_atom_site_fract_z
_atom_site_charge
Cu	Cu	0.20435 0.00050 0.26715 0.90900
O 	O 	0.01440 0.09860 0.18580 -0.35400
O 	O 	0.87140 0.30030 0.17030 -0.38800
O 	O 	0.18320 0.10610 0.42762 -0.39200
O 	O 	0.24380 0.11400 0.61780 -0.39500
C 	C 	0.96920 0.23140 0.21740 0.41500
H 	H 	0.01200 0.28490 0.28210 -0.09300
C 	C 	0.23130 0.04090 0.51980 0.41800
H 	H 	0.25930 0.93150 0.51510 -0.12000
Cu	Cu	0.29565 0.99950 0.76715 0.91000
O 	O 	0.48560 0.90140 0.68580 -0.35400
O 	O 	0.62860 0.69970 0.67030 -0.38900
O 	O 	0.31680 0.89390 0.92762 -0.39300
O 	O 	0.25620 0.88600 0.11780 -0.39600
C 	C 	0.53080 0.76860 0.71740 0.41900
H 	H 	0.48800 0.71510 0.78210 -0.09500
C 	C 	0.26870 0.95910 0.01980 0.41800
H 	H 	0.24070 0.06850 0.01510 -0.12100
Cu	Cu	0.79565 0.50050 0.23285 0.91000
O 	O 	0.98560 0.59860 0.31420 -0.35300
O 	O 	0.12860 0.80030 0.32970 -0.38800
O 	O 	0.81680 0.60610 0.07238 -0.39100
O 	O 	0.75620 0.61400 0.88220 -0.39500
C 	C 	0.03080 0.73140 0.28260 0.41500
H 	H 	0.98800 0.78490 0.21790 -0.09300
C 	C 	0.76870 0.54090 0.98020 0.41400
H 	H 	0.74070 0.43150 0.98490 -0.11900
Cu	Cu	0.70435 0.49950 0.73285 0.91000
O 	O 	0.51440 0.40140 0.81420 -0.35400
O 	O 	0.37140 0.19970 0.82970 -0.38800
O 	O 	0.68320 0.39390 0.57238 -0.39200
O 	O 	0.74380 0.38600 0.38220 -0.39600
C 	C 	0.46920 0.26860 0.78260 0.41900
H 	H 	0.51200 0.21510 0.71790 -0.09500
C 	C 	0.73130 0.45910 0.48020 0.41600
H 	H 	0.75930 0.56850 0.48490 -0.11900
