data_crystal

_cell_length_a 8.07600
_cell_length_b 12.54500
_cell_length_c 15.71300
_cell_angle_alpha 71.89600
_cell_angle_beta  82.14000
_cell_angle_gamma 75.62000

_symmetry_space_group_name_	'P 1'
_symmetry_space_group_name_H-M	'P 1'

loop_
_symmetry_equiv_pos_as_xyz
  x,y,z

loop_
_atom_site_label
_atom_site_type_symbol
_atom_site_fract_x
_atom_site_fract_y
_atom_site_fract_z
_atom_site_charge
Nd	Nd	0.02523 0.17911 0.86469 2.33000
Nd	Nd	0.64533 0.37214 0.61446 2.11000
O 	O 	0.55010 0.44990 0.74610 -0.51800
O 	O 	0.52590 0.57720 0.54130 -0.62400
O 	O 	0.33440 0.39130 0.64210 -0.46200
O 	O 	0.55490 0.21080 0.73520 -0.42600
O 	O 	0.09910 0.10720 0.72970 -0.54900
O 	O 	0.11840 0.33290 0.73580 -0.45900
O 	O 	0.78310 0.32900 0.80210 -0.61100
C 	C 	0.29500 0.84970 0.85400 -0.34800
H 	H 	0.22570 0.88980 0.80300 0.15000
H 	H 	0.40000 0.87790 0.84230 0.15100
N 	N 	0.16900 0.26390 0.99120 0.05400
O 	O 	0.59650 0.24280 0.52410 -0.45900
O 	O 	0.14260 0.98230 0.92960 -0.60400
O 	O 	0.81820 0.20430 0.99360 -0.52000
O 	O 	0.89270 0.22240 0.64170 -0.61400
N 	N 	0.33850 0.72420 0.86290 -0.06700
N 	N 	0.40600 0.82910 0.62440 -0.08000
O 	O 	0.34370 0.15530 0.83180 -0.41500
C 	C 	0.53520 0.32060 0.45770 0.44100
N 	N 	0.48190 0.55200 0.87980 -0.06100
O 	O 	0.17390 0.15900 0.00690 -0.28600
C 	C 	0.02640 0.14470 0.65850 0.56300
C 	C 	0.19810 0.87720 0.93790 0.55100
N 	N 	0.25400 0.00280 0.60080 -0.07300
O 	O 	0.09400 0.33680 0.92020 -0.29000
C 	C 	0.40040 0.21960 0.76330 0.27100
C 	C 	0.65340 0.40790 0.80460 0.53500
C 	C 	0.50800 0.90000 0.62410 0.00400
H 	H 	0.62530 0.87840 0.63100 0.03000
C 	C 	0.49350 0.65920 0.86780 0.05200
H 	H 	0.59440 0.68410 0.86350 0.03800
C 	C 	0.10300 0.10060 0.58110 -0.37000
H 	H 	0.13680 0.16320 0.53320 0.12700
H 	H 	0.01570 0.07650 0.55940 0.13600
C 	C 	0.27180 0.32410 0.70910 0.28700
O 	O 	0.22600 0.30430 0.03850 -0.12800
C 	C 	0.53900 0.29460 0.36870 -0.29600
H 	H 	0.42540 0.32330 0.34620 0.10900
H 	H 	0.61620 0.33550 0.32550 0.12600
C 	C 	0.22400 0.65700 0.86900 0.00100
H 	H 	0.10640 0.68200 0.86570 0.05200
C 	C 	0.62800 0.45420 0.88470 -0.36000
H 	H 	0.61220 0.39300 0.93870 0.16600
H 	H 	0.73150 0.47790 0.88940 0.15000
C 	C 	0.31400 0.54870 0.88070 -0.00700
H 	H 	0.27070 0.48410 0.88800 0.06800
C 	C 	0.25000 0.89490 0.60750 0.07000
H 	H 	0.15410 0.86980 0.60150 0.00800
C 	C 	0.41200 0.00640 0.61230 -0.00500
H 	H 	0.44960 0.07090 0.61220 0.05100
Nd	Nd	0.97477 0.82089 0.13531 2.33100
Nd	Nd	0.35467 0.62786 0.38554 2.11100
O 	O 	0.44990 0.55010 0.25390 -0.51800
O 	O 	0.47410 0.42280 0.45870 -0.62400
O 	O 	0.66560 0.60870 0.35790 -0.46200
O 	O 	0.44510 0.78920 0.26480 -0.42600
O 	O 	0.90090 0.89280 0.27030 -0.54900
O 	O 	0.88160 0.66710 0.26420 -0.45900
O 	O 	0.21690 0.67100 0.19790 -0.61100
C 	C 	0.70500 0.15030 0.14600 -0.34800
H 	H 	0.77430 0.11020 0.19700 0.15000
H 	H 	0.60000 0.12210 0.15770 0.15100
N 	N 	0.83100 0.73610 0.00880 0.05400
O 	O 	0.40350 0.75720 0.47590 -0.45900
O 	O 	0.85740 0.01770 0.07040 -0.60400
O 	O 	0.18180 0.79570 0.00640 -0.52000
O 	O 	0.10730 0.77760 0.35830 -0.61400
N 	N 	0.66150 0.27580 0.13710 -0.06700
N 	N 	0.59400 0.17090 0.37560 -0.08000
O 	O 	0.65630 0.84470 0.16820 -0.41500
C 	C 	0.46480 0.67940 0.54230 0.44100
N 	N 	0.51810 0.44800 0.12020 -0.06100
O 	O 	0.82610 0.84100 0.99310 -0.28600
C 	C 	0.97360 0.85530 0.34150 0.56300
C 	C 	0.80190 0.12280 0.06210 0.55100
N 	N 	0.74600 0.99720 0.39920 -0.07300
O 	O 	0.90600 0.66320 0.07980 -0.29000
C 	C 	0.59960 0.78040 0.23670 0.27100
C 	C 	0.34660 0.59210 0.19540 0.53500
C 	C 	0.49200 0.10000 0.37590 0.00400
H 	H 	0.37470 0.12160 0.36900 0.03000
C 	C 	0.50650 0.34080 0.13220 0.05200
H 	H 	0.40560 0.31590 0.13650 0.03800
C 	C 	0.89700 0.89940 0.41890 -0.37000
H 	H 	0.86320 0.83680 0.46680 0.12700
H 	H 	0.98430 0.92350 0.44060 0.13600
C 	C 	0.72820 0.67590 0.29090 0.28700
O 	O 	0.77400 0.69570 0.96150 -0.12800
C 	C 	0.46100 0.70540 0.63130 -0.29600
H 	H 	0.57460 0.67670 0.65380 0.10900
H 	H 	0.38380 0.66450 0.67450 0.12600
C 	C 	0.77600 0.34300 0.13100 0.00100
H 	H 	0.89360 0.31800 0.13430 0.05200
C 	C 	0.37200 0.54580 0.11530 -0.36000
H 	H 	0.38780 0.60700 0.06130 0.16600
H 	H 	0.26850 0.52210 0.11060 0.15000
C 	C 	0.68600 0.45130 0.11930 -0.00700
H 	H 	0.72930 0.51590 0.11200 0.06800
C 	C 	0.75000 0.10510 0.39250 0.07000
H 	H 	0.84590 0.13020 0.39850 0.00800
C 	C 	0.58800 0.99360 0.38770 -0.00500
H 	H 	0.55040 0.92910 0.38780 0.05100
