data_crystal

_cell_length_a 10.14100
_cell_length_b 8.23290
_cell_length_c 11.09900
_cell_angle_alpha 90.00000
_cell_angle_beta  90.00000
_cell_angle_gamma 90.00000

_symmetry_space_group_name_	'P 1'
_symmetry_space_group_name_H-M	'P 1'

loop_
_symmetry_equiv_pos_as_xyz
  x,y,z

loop_
_atom_site_label
_atom_site_type_symbol
_atom_site_fract_x
_atom_site_fract_y
_atom_site_fract_z
_atom_site_charge
Cu	Cu	0.20497 0.00106 0.26598 0.80400
O 	O 	0.18330 0.10350 0.42760 -0.54600
O 	O 	0.24360 0.11130 0.61610 -0.54600
C 	C 	0.22990 0.04000 0.51850 0.54300
H 	H 	0.25650 0.93200 0.51370 -0.25400
Cu	Cu	0.29503 0.99894 0.76598 0.80500
O 	O 	0.31670 0.89650 0.92760 -0.54700
O 	O 	0.25640 0.88870 0.11610 -0.54700
C 	C 	0.27010 0.96000 0.01850 0.54400
H 	H 	0.24350 0.06800 0.01370 -0.25500
Cu	Cu	0.79503 0.50106 0.23402 0.80500
O 	O 	0.81670 0.60350 0.07240 -0.54600
O 	O 	0.75640 0.61130 0.88390 -0.54700
C 	C 	0.77010 0.54000 0.98150 0.54000
H 	H 	0.74350 0.43200 0.98630 -0.25400
Cu	Cu	0.70497 0.49894 0.73402 0.80500
O 	O 	0.68330 0.39650 0.57240 -0.54600
O 	O 	0.74360 0.38870 0.38390 -0.54700
C 	C 	0.72990 0.46000 0.48150 0.54300
H 	H 	0.75650 0.56800 0.48630 -0.25400
