data_crystal

_cell_length_a 10.18950
_cell_length_b 10.68380
_cell_length_c 6.20960
_cell_angle_alpha 90.00000
_cell_angle_beta  114.38900
_cell_angle_gamma 90.00000

_symmetry_space_group_name_	'P 1'
_symmetry_space_group_name_H-M	'P 1'

loop_
_symmetry_equiv_pos_as_xyz
  x,y,z

loop_
_atom_site_label
_atom_site_type_symbol
_atom_site_fract_x
_atom_site_fract_y
_atom_site_fract_z
_atom_site_charge
N 	N 	0.31040 0.10920 0.37960 -0.27200
C 	C 	0.31810 0.21100 0.54500 -0.07100
H 	H 	0.29490 0.14320 0.23500 0.03300
H 	H 	0.23330 0.05840 0.35920 0.02600
H 	H 	0.40140 0.26550 0.56800 0.01000
H 	H 	0.33360 0.17460 0.70030 -0.01900
N 	N 	0.81040 0.60920 0.37960 -0.26300
C 	C 	0.81810 0.71100 0.54500 -0.07400
H 	H 	0.79490 0.64320 0.23500 0.06500
H 	H 	0.73330 0.55840 0.35920 0.06700
H 	H 	0.90140 0.76550 0.56800 0.04900
H 	H 	0.83360 0.67460 0.70030 0.01600
N 	N 	0.68960 0.10920 0.12040 -0.31200
C 	C 	0.68190 0.21100 0.95500 0.05600
H 	H 	0.70510 0.14320 0.26500 0.05600
H 	H 	0.76670 0.05840 0.14080 0.05100
H 	H 	0.59860 0.26550 0.93200 -0.01800
H 	H 	0.66640 0.17460 0.79970 -0.05100
N 	N 	0.18960 0.60920 0.12040 -0.31400
C 	C 	0.18190 0.71100 0.95500 0.06100
H 	H 	0.20510 0.64320 0.26500 0.05800
H 	H 	0.26670 0.55840 0.14080 0.06500
H 	H 	0.09860 0.76550 0.93200 -0.03400
H 	H 	0.16640 0.67460 0.79970 -0.05500
N 	N 	0.68960 0.89080 0.62040 -0.28300
C 	C 	0.68190 0.78900 0.45500 -0.02200
H 	H 	0.70510 0.85680 0.76500 0.09200
H 	H 	0.76670 0.94160 0.64080 0.11500
H 	H 	0.59860 0.73450 0.43200 0.00000
H 	H 	0.66640 0.82540 0.29970 -0.01000
N 	N 	0.18960 0.39080 0.62040 -0.29400
C 	C 	0.18190 0.28900 0.45500 -0.01900
H 	H 	0.20510 0.35680 0.76500 0.06000
H 	H 	0.26670 0.44160 0.64080 0.07300
H 	H 	0.09860 0.23450 0.43200 -0.03800
H 	H 	0.16640 0.32540 0.29970 -0.04600
N 	N 	0.31040 0.89080 0.87960 -0.24200
C 	C 	0.31810 0.78900 0.04500 -0.14900
H 	H 	0.29490 0.85680 0.73500 0.06800
H 	H 	0.23330 0.94160 0.85920 0.08900
H 	H 	0.40140 0.73450 0.06800 0.02900
H 	H 	0.33360 0.82540 0.20030 0.02000
N 	N 	0.81040 0.39080 0.87960 -0.24000
C 	C 	0.81810 0.28900 0.04500 -0.15400
H 	H 	0.79490 0.35680 0.73500 0.06600
H 	H 	0.73330 0.44160 0.85920 0.07500
H 	H 	0.90140 0.23450 0.06800 0.04600
H 	H 	0.83360 0.32540 0.20030 0.02400
Ag	Ag	0.50000 -0.00000 0.50000 0.41100
Ag	Ag	0.00000 0.50000 0.50000 0.41300
Ag	Ag	0.50000 0.00000 -0.00000 0.39200
Ag	Ag	-0.00000 0.50000 -0.00000 0.39400
