data_crystal

_cell_length_a 10.31590
_cell_length_b 10.59350
_cell_length_c 6.24950
_cell_angle_alpha 90.00000
_cell_angle_beta  114.77200
_cell_angle_gamma 90.00000

_symmetry_space_group_name_	'P 1'
_symmetry_space_group_name_H-M	'P 1'

loop_
_symmetry_equiv_pos_as_xyz
  x,y,z

loop_
_atom_site_label
_atom_site_type_symbol
_atom_site_fract_x
_atom_site_fract_y
_atom_site_fract_z
_atom_site_charge
C 	C 	0.31740 0.21090 0.54590 -0.07500
H 	H 	0.39920 0.26570 0.57220 0.01000
H 	H 	0.33160 0.17360 0.69760 -0.01900
N 	N 	0.31150 0.10960 0.38100 -0.27700
H 	H 	0.29610 0.14450 0.23930 0.03500
H 	H 	0.23630 0.05820 0.35880 0.02800
C 	C 	0.81740 0.71090 0.54590 -0.07700
H 	H 	0.89920 0.76570 0.57220 0.05000
H 	H 	0.83160 0.67360 0.69760 0.01600
N 	N 	0.81150 0.60960 0.38100 -0.26700
H 	H 	0.79610 0.64450 0.23930 0.06900
H 	H 	0.73630 0.55820 0.35880 0.07000
C 	C 	0.68260 0.21090 0.95410 0.06200
H 	H 	0.60080 0.26570 0.92780 -0.02100
H 	H 	0.66840 0.17360 0.80240 -0.05400
N 	N 	0.68850 0.10960 0.11900 -0.31700
H 	H 	0.70390 0.14450 0.26070 0.06000
H 	H 	0.76370 0.05820 0.14120 0.05400
C 	C 	0.18260 0.71090 0.95410 0.06700
H 	H 	0.10080 0.76570 0.92780 -0.03700
H 	H 	0.16840 0.67360 0.80240 -0.05700
N 	N 	0.18850 0.60960 0.11900 -0.32000
H 	H 	0.20390 0.64450 0.26070 0.06200
H 	H 	0.26370 0.55820 0.14120 0.06800
C 	C 	0.68260 0.78910 0.45410 -0.02000
H 	H 	0.60080 0.73430 0.42780 -0.00100
H 	H 	0.66840 0.82640 0.30240 -0.01000
N 	N 	0.68850 0.89040 0.61900 -0.28900
H 	H 	0.70390 0.85550 0.76070 0.09500
H 	H 	0.76370 0.94180 0.64120 0.11800
C 	C 	0.18260 0.28910 0.45410 -0.01600
H 	H 	0.10080 0.23430 0.42780 -0.04000
H 	H 	0.16840 0.32640 0.30240 -0.04600
N 	N 	0.18850 0.39040 0.61900 -0.30000
H 	H 	0.20390 0.35550 0.76070 0.06200
H 	H 	0.26370 0.44180 0.64120 0.07600
C 	C 	0.31740 0.78910 0.04590 -0.15500
H 	H 	0.39920 0.73430 0.07220 0.03100
H 	H 	0.33160 0.82640 0.19760 0.02300
N 	N 	0.31150 0.89040 0.88100 -0.24600
H 	H 	0.29610 0.85550 0.73930 0.07100
H 	H 	0.23630 0.94180 0.85880 0.09200
C 	C 	0.81740 0.28910 0.04590 -0.16000
H 	H 	0.89920 0.23430 0.07220 0.04700
H 	H 	0.83160 0.32640 0.19760 0.02600
N 	N 	0.81150 0.39040 0.88100 -0.24400
H 	H 	0.79610 0.35550 0.73930 0.06900
H 	H 	0.73630 0.44180 0.85880 0.07700
Ag	Ag	0.50000 -0.00000 0.50000 0.41100
Ag	Ag	-0.00000 0.50000 0.50000 0.41200
Ag	Ag	0.50000 0.00000 -0.00000 0.39300
Ag	Ag	0.00000 0.50000 -0.00000 0.39400
