data_crystal

_cell_length_a 10.43050
_cell_length_b 10.52720
_cell_length_c 6.29560
_cell_angle_alpha 90.00000
_cell_angle_beta  115.16000
_cell_angle_gamma 90.00000

_symmetry_space_group_name_	'P 1'
_symmetry_space_group_name_H-M	'P 1'

loop_
_symmetry_equiv_pos_as_xyz
  x,y,z

loop_
_atom_site_label
_atom_site_type_symbol
_atom_site_fract_x
_atom_site_fract_y
_atom_site_fract_z
_atom_site_charge
C 	C 	0.31640 0.21040 0.54610 -0.07700
H 	H 	0.39720 0.26520 0.57730 0.01100
H 	H 	0.32860 0.17170 0.69330 -0.02000
N 	N 	0.31300 0.11040 0.38140 -0.28200
H 	H 	0.29870 0.14660 0.24360 0.03800
H 	H 	0.23900 0.05880 0.35560 0.03100
C 	C 	0.81640 0.71040 0.54610 -0.08000
H 	H 	0.89720 0.76520 0.57730 0.05000
H 	H 	0.82860 0.67170 0.69330 0.01600
N 	N 	0.81300 0.61040 0.38140 -0.27200
H 	H 	0.79870 0.64660 0.24360 0.07300
H 	H 	0.73900 0.55880 0.35560 0.07200
C 	C 	0.68360 0.21040 0.95390 0.06800
H 	H 	0.60280 0.26520 0.92270 -0.02400
H 	H 	0.67140 0.17170 0.80670 -0.05600
N 	N 	0.68700 0.11040 0.11860 -0.32300
H 	H 	0.70130 0.14660 0.25640 0.06300
H 	H 	0.76100 0.05880 0.14440 0.05700
C 	C 	0.18360 0.71040 0.95390 0.07300
H 	H 	0.10280 0.76520 0.92270 -0.04000
H 	H 	0.17140 0.67170 0.80670 -0.05900
N 	N 	0.18700 0.61040 0.11860 -0.32600
H 	H 	0.20130 0.64660 0.25640 0.06500
H 	H 	0.26100 0.55880 0.14440 0.07100
C 	C 	0.68360 0.78960 0.45390 -0.01800
H 	H 	0.60280 0.73480 0.42270 -0.00200
H 	H 	0.67140 0.82830 0.30670 -0.01000
N 	N 	0.68700 0.88960 0.61860 -0.29500
H 	H 	0.70130 0.85340 0.75640 0.09700
H 	H 	0.76100 0.94120 0.64440 0.12100
C 	C 	0.18360 0.28960 0.45390 -0.01300
H 	H 	0.10280 0.23480 0.42270 -0.04100
H 	H 	0.17140 0.32830 0.30670 -0.04700
N 	N 	0.18700 0.38960 0.61860 -0.30500
H 	H 	0.20130 0.35340 0.75640 0.06500
H 	H 	0.26100 0.44120 0.64440 0.07800
C 	C 	0.31640 0.78960 0.04610 -0.16100
H 	H 	0.39720 0.73480 0.07730 0.03400
H 	H 	0.32860 0.82830 0.19330 0.02600
N 	N 	0.31300 0.88960 0.88140 -0.25100
H 	H 	0.29870 0.85340 0.74360 0.07400
H 	H 	0.23900 0.94120 0.85560 0.09400
C 	C 	0.81640 0.28960 0.04610 -0.16600
H 	H 	0.89720 0.23480 0.07730 0.05000
H 	H 	0.82860 0.32830 0.19330 0.02800
N 	N 	0.81300 0.38960 0.88140 -0.24800
H 	H 	0.79870 0.35340 0.74360 0.07100
H 	H 	0.73900 0.44120 0.85560 0.08000
Ag	Ag	0.50000 0.00000 0.50000 0.41000
Ag	Ag	0.00000 0.50000 0.50000 0.41200
Ag	Ag	0.50000 0.00000 -0.00000 0.39300
Ag	Ag	-0.00000 0.50000 -0.00000 0.39500
