data_crystal

_cell_length_a 10.34280
_cell_length_b 10.57490
_cell_length_c 6.25970
_cell_angle_alpha 90.00000
_cell_angle_beta  114.85200
_cell_angle_gamma 90.00000

_symmetry_space_group_name_	'P 1'
_symmetry_space_group_name_H-M	'P 1'

loop_
_symmetry_equiv_pos_as_xyz
  x,y,z

loop_
_atom_site_label
_atom_site_type_symbol
_atom_site_fract_x
_atom_site_fract_y
_atom_site_fract_z
_atom_site_charge
C 	C 	0.31710 0.21070 0.54590 -0.07400
H 	H 	0.39890 0.26560 0.57340 0.01000
H 	H 	0.33080 0.17290 0.69690 -0.02100
N 	N 	0.31150 0.10980 0.38070 -0.27700
H 	H 	0.29630 0.14510 0.23960 0.03600
H 	H 	0.23640 0.05820 0.35780 0.02800
C 	C 	0.81710 0.71070 0.54590 -0.07600
H 	H 	0.89890 0.76560 0.57340 0.04900
H 	H 	0.83080 0.67290 0.69690 0.01500
N 	N 	0.81150 0.60980 0.38070 -0.26700
H 	H 	0.79630 0.64510 0.23960 0.06900
H 	H 	0.73640 0.55820 0.35780 0.07000
C 	C 	0.68290 0.21070 0.95410 0.06200
H 	H 	0.60110 0.26560 0.92660 -0.02100
H 	H 	0.66920 0.17290 0.80310 -0.05400
N 	N 	0.68850 0.10980 0.11930 -0.31700
H 	H 	0.70370 0.14510 0.26040 0.06000
H 	H 	0.76360 0.05820 0.14220 0.05400
C 	C 	0.18290 0.71070 0.95410 0.06800
H 	H 	0.10110 0.76560 0.92660 -0.03700
H 	H 	0.16920 0.67290 0.80310 -0.05700
N 	N 	0.18850 0.60980 0.11930 -0.32000
H 	H 	0.20370 0.64510 0.26040 0.06200
H 	H 	0.26360 0.55820 0.14220 0.06800
C 	C 	0.68290 0.78930 0.45410 -0.02000
H 	H 	0.60110 0.73440 0.42660 -0.00100
H 	H 	0.66920 0.82710 0.30310 -0.01000
N 	N 	0.68850 0.89020 0.61930 -0.28900
H 	H 	0.70370 0.85490 0.76040 0.09500
H 	H 	0.76360 0.94180 0.64220 0.11800
C 	C 	0.18290 0.28930 0.45410 -0.01600
H 	H 	0.10110 0.23440 0.42660 -0.04000
H 	H 	0.16920 0.32710 0.30310 -0.04600
N 	N 	0.18850 0.39020 0.61930 -0.29900
H 	H 	0.20370 0.35490 0.76040 0.06200
H 	H 	0.26360 0.44180 0.64220 0.07600
C 	C 	0.31710 0.78930 0.04590 -0.15500
H 	H 	0.39890 0.73440 0.07340 0.03100
H 	H 	0.33080 0.82710 0.19690 0.02300
N 	N 	0.31150 0.89020 0.88070 -0.24600
H 	H 	0.29630 0.85490 0.73960 0.07100
H 	H 	0.23640 0.94180 0.85780 0.09200
C 	C 	0.81710 0.28930 0.04590 -0.15900
H 	H 	0.89890 0.23440 0.07340 0.04700
H 	H 	0.83080 0.32710 0.19690 0.02500
N 	N 	0.81150 0.39020 0.88070 -0.24400
H 	H 	0.79630 0.35490 0.73960 0.06900
H 	H 	0.73640 0.44180 0.85780 0.07700
Ag	Ag	0.50000 0.00000 0.50000 0.41100
Ag	Ag	0.00000 0.50000 0.50000 0.41200
Ag	Ag	0.50000 0.00000 -0.00000 0.39200
Ag	Ag	-0.00000 0.50000 -0.00000 0.39400
