data_crystal

_cell_length_a 10.16450
_cell_length_b 10.70480
_cell_length_c 6.20490
_cell_angle_alpha 90.00000
_cell_angle_beta  114.27700
_cell_angle_gamma 90.00000

_symmetry_space_group_name_	'P 1'
_symmetry_space_group_name_H-M	'P 1'

loop_
_symmetry_equiv_pos_as_xyz
  x,y,z

loop_
_atom_site_label
_atom_site_type_symbol
_atom_site_fract_x
_atom_site_fract_y
_atom_site_fract_z
_atom_site_charge
C 	C 	0.31800 0.21130 0.54400 -0.07300
H 	H 	0.40100 0.26580 0.56520 0.01100
H 	H 	0.33440 0.17550 0.70010 -0.01800
N 	N 	0.31050 0.10880 0.37970 -0.27300
H 	H 	0.29480 0.14220 0.23450 0.03200
H 	H 	0.23330 0.05820 0.36030 0.02500
C 	C 	0.81800 0.71130 0.54400 -0.07500
H 	H 	0.90100 0.76580 0.56520 0.04900
H 	H 	0.83440 0.67550 0.70010 0.01600
N 	N 	0.81050 0.60880 0.37970 -0.26300
H 	H 	0.79480 0.64220 0.23450 0.06500
H 	H 	0.73330 0.55820 0.36030 0.06700
C 	C 	0.68200 0.21130 0.95600 0.05700
H 	H 	0.59900 0.26580 0.93480 -0.01700
H 	H 	0.66560 0.17550 0.79990 -0.05000
N 	N 	0.68950 0.10880 0.12030 -0.31200
H 	H 	0.70520 0.14220 0.26550 0.05600
H 	H 	0.76670 0.05820 0.13970 0.05100
C 	C 	0.18200 0.71130 0.95600 0.06200
H 	H 	0.09900 0.76580 0.93480 -0.03400
H 	H 	0.16560 0.67550 0.79990 -0.05500
N 	N 	0.18950 0.60880 0.12030 -0.31400
H 	H 	0.20520 0.64220 0.26550 0.05800
H 	H 	0.26670 0.55820 0.13970 0.06400
C 	C 	0.68200 0.78870 0.45600 -0.02200
H 	H 	0.59900 0.73420 0.43480 0.00100
H 	H 	0.66560 0.82450 0.29990 -0.00900
N 	N 	0.68950 0.89120 0.62030 -0.28300
H 	H 	0.70520 0.85780 0.76550 0.09200
H 	H 	0.76670 0.94180 0.63970 0.11500
C 	C 	0.18200 0.28870 0.45600 -0.01900
H 	H 	0.09900 0.23420 0.43480 -0.03800
H 	H 	0.16560 0.32450 0.29990 -0.04600
N 	N 	0.18950 0.39120 0.62030 -0.29400
H 	H 	0.20520 0.35780 0.76550 0.05900
H 	H 	0.26670 0.44180 0.63970 0.07300
C 	C 	0.31800 0.78870 0.04400 -0.15100
H 	H 	0.40100 0.73420 0.06520 0.02900
H 	H 	0.33440 0.82450 0.20010 0.02100
N 	N 	0.31050 0.89120 0.87970 -0.24200
H 	H 	0.29480 0.85780 0.73450 0.06800
H 	H 	0.23330 0.94180 0.86030 0.08900
C 	C 	0.81800 0.28870 0.04400 -0.15500
H 	H 	0.90100 0.23420 0.06520 0.04600
H 	H 	0.83440 0.32450 0.20010 0.02500
N 	N 	0.81050 0.39120 0.87970 -0.24000
H 	H 	0.79480 0.35780 0.73450 0.06600
H 	H 	0.73330 0.44180 0.86030 0.07500
Ag	Ag	0.50000 0.00000 0.50000 0.41100
Ag	Ag	0.00000 0.50000 0.50000 0.41300
Ag	Ag	0.50000 0.00000 -0.00000 0.39300
Ag	Ag	-0.00000 0.50000 -0.00000 0.39400
