data_crystal

_cell_length_a 20.87800
_cell_length_b 19.78900
_cell_length_c 6.16530
_cell_angle_alpha 90.00000
_cell_angle_beta  114.42900
_cell_angle_gamma 90.00000

_symmetry_space_group_name_	'P 1'
_symmetry_space_group_name_H-M	'P 1'

loop_
_symmetry_equiv_pos_as_xyz
  x,y,z

loop_
_atom_site_label
_atom_site_type_symbol
_atom_site_fract_x
_atom_site_fract_y
_atom_site_fract_z
_atom_site_charge
N 	N 	0.60040 0.04730 0.11600 -0.32900
H 	H 	0.61520 0.05960 0.26930 0.06200
H 	H 	0.63170 0.01770 0.10490 0.05000
N 	N 	0.66690 0.19880 0.89800 -0.26800
H 	H 	0.63150 0.22640 0.88730 0.07700
H 	H 	0.65710 0.18330 0.75030 0.05900
N 	N 	0.84940 0.19630 0.61920 -0.30000
H 	H 	0.88390 0.22470 0.62710 0.09000
H 	H 	0.86050 0.17860 0.76480 0.08500
N 	N 	0.90960 0.05460 0.38800 -0.27900
H 	H 	0.90110 0.07290 0.24460 0.05300
H 	H 	0.87360 0.02680 0.36920 0.05300
C 	C 	0.59680 0.10650 0.97100 0.10600
H 	H 	0.56320 0.13840 0.98360 -0.03200
H 	H 	0.58050 0.09320 0.80570 -0.06600
C 	C 	0.66760 0.14030 0.05000 -0.19600
H 	H 	0.68260 0.15560 0.21330 0.01100
H 	H 	0.70170 0.10740 0.04720 0.02800
C 	C 	0.84070 0.14150 0.44300 -0.02800
H 	H 	0.83110 0.15940 0.28620 -0.03300
H 	H 	0.80390 0.11000 0.43200 -0.01100
C 	C 	0.91270 0.10950 0.55700 -0.07400
H 	H 	0.94920 0.14200 0.57270 0.03100
H 	H 	0.92150 0.09130 0.71260 0.00200
N 	N 	0.10040 0.54730 0.11600 -0.33700
H 	H 	0.11520 0.55960 0.26930 0.07000
H 	H 	0.13170 0.51770 0.10490 0.06800
N 	N 	0.16690 0.69880 0.89800 -0.26500
H 	H 	0.13150 0.72640 0.88730 0.07200
H 	H 	0.15710 0.68330 0.75030 0.05700
N 	N 	0.34940 0.69630 0.61920 -0.29600
H 	H 	0.38390 0.72470 0.62710 0.08300
H 	H 	0.36050 0.67860 0.76480 0.08200
N 	N 	0.40960 0.55460 0.38800 -0.29400
H 	H 	0.40110 0.57290 0.24460 0.05300
H 	H 	0.37360 0.52680 0.36920 0.06800
C 	C 	0.09680 0.60650 0.97100 0.12200
H 	H 	0.06320 0.63840 0.98360 -0.04800
H 	H 	0.08050 0.59320 0.80570 -0.07200
C 	C 	0.16760 0.64030 0.05000 -0.20700
H 	H 	0.18260 0.65560 0.21330 0.01500
H 	H 	0.20170 0.60740 0.04720 0.03700
C 	C 	0.34070 0.64150 0.44300 -0.04100
H 	H 	0.33110 0.65940 0.28620 -0.02900
H 	H 	0.30390 0.61000 0.43200 -0.00200
C 	C 	0.41270 0.60950 0.55700 -0.05700
H 	H 	0.44920 0.64200 0.57270 0.00900
H 	H 	0.42150 0.59130 0.71260 -0.01100
N 	N 	0.39960 0.04730 0.38400 -0.28700
H 	H 	0.38480 0.05960 0.23070 0.04500
H 	H 	0.36830 0.01770 0.39510 0.04900
N 	N 	0.33310 0.19880 0.60200 -0.31600
H 	H 	0.36850 0.22640 0.61270 0.07800
H 	H 	0.34290 0.18330 0.74970 0.07300
N 	N 	0.15060 0.19630 0.88080 -0.24800
H 	H 	0.11610 0.22470 0.87290 0.07300
H 	H 	0.13950 0.17860 0.73520 0.05900
N 	N 	0.09040 0.05460 0.11200 -0.33600
H 	H 	0.09890 0.07290 0.25540 0.05600
H 	H 	0.12640 0.02680 0.13080 0.05300
C 	C 	0.40320 0.10650 0.52900 -0.05800
H 	H 	0.43680 0.13840 0.51640 0.00100
H 	H 	0.41950 0.09320 0.69430 -0.01600
C 	C 	0.33240 0.14030 0.45000 -0.03400
H 	H 	0.31740 0.15560 0.28670 -0.03700
H 	H 	0.29830 0.10740 0.45280 -0.00800
C 	C 	0.15930 0.14150 0.05700 -0.20400
H 	H 	0.16890 0.15940 0.21380 0.01700
H 	H 	0.19610 0.11000 0.06800 0.03000
C 	C 	0.08730 0.10950 0.94300 0.11000
H 	H 	0.05080 0.14200 0.92730 -0.04600
H 	H 	0.07850 0.09130 0.78740 -0.07600
N 	N 	0.89960 0.54730 0.38400 -0.27800
H 	H 	0.88480 0.55960 0.23070 0.06200
H 	H 	0.86830 0.51770 0.39510 0.07200
N 	N 	0.83310 0.69880 0.60200 -0.32000
H 	H 	0.86850 0.72640 0.61270 0.08500
H 	H 	0.84290 0.68330 0.74970 0.08000
N 	N 	0.65060 0.69630 0.88080 -0.25100
H 	H 	0.61610 0.72470 0.87290 0.08100
H 	H 	0.63950 0.67860 0.73520 0.06600
N 	N 	0.59040 0.55460 0.11200 -0.33600
H 	H 	0.59890 0.57290 0.25540 0.06800
H 	H 	0.62640 0.52680 0.13080 0.07100
C 	C 	0.90320 0.60650 0.52900 -0.06700
H 	H 	0.93680 0.63840 0.51640 0.02000
H 	H 	0.91950 0.59320 0.69430 0.00700
C 	C 	0.83240 0.64030 0.45000 -0.02800
H 	H 	0.81740 0.65560 0.28670 -0.03600
H 	H 	0.79830 0.60740 0.45280 -0.00200
C 	C 	0.65930 0.64150 0.05700 -0.20300
H 	H 	0.66890 0.65940 0.21380 0.01900
H 	H 	0.69610 0.61000 0.06800 0.03600
C 	C 	0.58730 0.60950 0.94300 0.10600
H 	H 	0.55080 0.64200 0.92730 -0.02900
H 	H 	0.57850 0.59130 0.78740 -0.06200
N 	N 	0.39960 0.95270 0.88400 -0.24900
H 	H 	0.38480 0.94040 0.73070 0.08100
H 	H 	0.36830 0.98230 0.89510 0.10300
N 	N 	0.33310 0.80120 0.10200 -0.34600
H 	H 	0.36850 0.77360 0.11270 0.06800
H 	H 	0.34290 0.81670 0.24970 0.06700
N 	N 	0.15060 0.80370 0.38080 -0.28200
H 	H 	0.11610 0.77530 0.37290 0.06300
H 	H 	0.13950 0.82140 0.23520 0.05500
N 	N 	0.09040 0.94540 0.61200 -0.30200
H 	H 	0.09890 0.92710 0.75540 0.08600
H 	H 	0.12640 0.97320 0.63080 0.10200
C 	C 	0.40320 0.89350 0.02900 -0.18700
H 	H 	0.43680 0.86160 0.01640 0.02800
H 	H 	0.41950 0.90680 0.19430 0.02500
C 	C 	0.33240 0.85970 0.95000 0.09500
H 	H 	0.31740 0.84440 0.78670 -0.05700
H 	H 	0.29830 0.89260 0.95280 -0.01500
C 	C 	0.15930 0.85850 0.55700 -0.07800
H 	H 	0.16890 0.84060 0.71380 -0.00300
H 	H 	0.19610 0.89000 0.56800 0.02000
C 	C 	0.08730 0.89050 0.44300 -0.01700
H 	H 	0.05080 0.85800 0.42730 -0.01900
H 	H 	0.07850 0.90870 0.28740 -0.03200
N 	N 	0.89960 0.45270 0.88400 -0.24200
H 	H 	0.88480 0.44040 0.73070 0.07100
H 	H 	0.86830 0.48230 0.89510 0.08300
N 	N 	0.83310 0.30120 0.10200 -0.34900
H 	H 	0.86850 0.27360 0.11270 0.07400
H 	H 	0.84290 0.31670 0.24970 0.06900
N 	N 	0.65060 0.30370 0.38080 -0.28500
H 	H 	0.61610 0.27530 0.37290 0.06900
H 	H 	0.63950 0.32140 0.23520 0.05600
N 	N 	0.59040 0.44540 0.61200 -0.30500
H 	H 	0.59890 0.42710 0.75540 0.07800
H 	H 	0.62640 0.47320 0.63080 0.08200
C 	C 	0.90320 0.39350 0.02900 -0.20100
H 	H 	0.93680 0.36160 0.01640 0.04400
H 	H 	0.91950 0.40680 0.19430 0.03100
C 	C 	0.83240 0.35970 0.95000 0.10400
H 	H 	0.81740 0.34440 0.78670 -0.06100
H 	H 	0.79830 0.39260 0.95280 -0.02500
C 	C 	0.65930 0.35850 0.55700 -0.06800
H 	H 	0.66890 0.34060 0.71380 -0.00600
H 	H 	0.69610 0.39000 0.56800 0.01100
C 	C 	0.58730 0.39050 0.44300 -0.03000
H 	H 	0.55080 0.35800 0.42730 -0.00400
H 	H 	0.57850 0.40870 0.28740 -0.03400
N 	N 	0.60040 0.95270 0.61600 -0.29700
H 	H 	0.61520 0.94040 0.76930 0.09700
H 	H 	0.63170 0.98230 0.60490 0.10200
N 	N 	0.66690 0.80120 0.39800 -0.30400
H 	H 	0.63150 0.77360 0.38730 0.06700
H 	H 	0.65710 0.81670 0.25030 0.05400
N 	N 	0.84940 0.80370 0.11920 -0.32900
H 	H 	0.88390 0.77530 0.12710 0.08000
H 	H 	0.86050 0.82140 0.26480 0.08000
N 	N 	0.90960 0.94540 0.88800 -0.24200
H 	H 	0.90110 0.92710 0.74460 0.08100
H 	H 	0.87360 0.97320 0.86920 0.10100
C 	C 	0.59680 0.89350 0.47100 -0.02300
H 	H 	0.56320 0.86160 0.48360 -0.00500
H 	H 	0.58050 0.90680 0.30570 -0.02200
C 	C 	0.66760 0.85970 0.55000 -0.06800
H 	H 	0.68260 0.84440 0.71330 -0.00800
H 	H 	0.70170 0.89260 0.54720 0.01900
C 	C 	0.84070 0.85850 0.94300 0.09600
H 	H 	0.83110 0.84060 0.78620 -0.05500
H 	H 	0.80390 0.89000 0.93200 -0.02100
C 	C 	0.91270 0.89050 0.05700 -0.19700
H 	H 	0.94920 0.85800 0.07270 0.05800
H 	H 	0.92150 0.90870 0.21260 0.04300
N 	N 	0.10040 0.45270 0.61600 -0.30500
H 	H 	0.11520 0.44040 0.76930 0.08100
H 	H 	0.13170 0.48230 0.60490 0.07900
N 	N 	0.16690 0.30120 0.39800 -0.30100
H 	H 	0.13150 0.27360 0.38730 0.06000
H 	H 	0.15710 0.31670 0.25030 0.04700
N 	N 	0.34940 0.30370 0.11920 -0.32600
H 	H 	0.38390 0.27530 0.12710 0.07100
H 	H 	0.36050 0.32140 0.26480 0.07200
N 	N 	0.40960 0.44540 0.88800 -0.25800
H 	H 	0.40110 0.42710 0.74460 0.06300
H 	H 	0.37360 0.47320 0.86920 0.07900
C 	C 	0.09680 0.39350 0.47100 -0.01400
H 	H 	0.06320 0.36160 0.48360 -0.02500
H 	H 	0.08050 0.40680 0.30570 -0.04600
C 	C 	0.16760 0.35970 0.55000 -0.07400
H 	H 	0.18260 0.34440 0.71330 -0.00900
H 	H 	0.20170 0.39260 0.54720 0.01300
C 	C 	0.34070 0.35850 0.94300 0.09500
H 	H 	0.33110 0.34060 0.78620 -0.05800
H 	H 	0.30390 0.39000 0.93200 -0.02700
C 	C 	0.41270 0.39050 0.05700 -0.19300
H 	H 	0.44920 0.35800 0.07270 0.03400
H 	H 	0.42150 0.40870 0.21260 0.01400
Ag	Ag	0.50000 0.00000 -0.00000 0.39700
Ag	Ag	-0.00000 0.50000 -0.00000 0.39800
Ag	Ag	0.50000 0.00000 0.50000 0.42400
Ag	Ag	0.00000 0.50000 0.50000 0.42500
Ag	Ag	0.75000 0.25000 -0.00000 0.45000
Ag	Ag	0.25000 0.25000 0.50000 0.47600
Ag	Ag	0.25000 0.75000 -0.00000 0.45000
Ag	Ag	0.75000 0.75000 0.50000 0.47800
Ag	Ag	0.75000 0.25000 0.50000 0.45300
Ag	Ag	0.25000 0.25000 -0.00000 0.42500
Ag	Ag	0.25000 0.75000 0.50000 0.45400
Ag	Ag	0.75000 0.75000 -0.00000 0.42800
Ag	Ag	0.00000 0.00000 0.50000 0.40800
Ag	Ag	0.50000 0.50000 0.50000 0.46200
Ag	Ag	-0.00000 0.00000 -0.00000 0.38300
Ag	Ag	0.50000 0.50000 -0.00000 0.43500
