data_crystal

_cell_length_a 10.23190
_cell_length_b 10.65310
_cell_length_c 6.22100
_cell_angle_alpha 90.00000
_cell_angle_beta  114.48500
_cell_angle_gamma 90.00000

_symmetry_space_group_name_	'P 1'
_symmetry_space_group_name_H-M	'P 1'

loop_
_symmetry_equiv_pos_as_xyz
  x,y,z

loop_
_atom_site_label
_atom_site_type_symbol
_atom_site_fract_x
_atom_site_fract_y
_atom_site_fract_z
_atom_site_charge
C 	C 	0.31800 0.21130 0.54530 -0.07000
H 	H 	0.40070 0.26640 0.56820 0.01100
H 	H 	0.33370 0.17490 0.70060 -0.01800
N 	N 	0.31080 0.10920 0.38040 -0.27200
H 	H 	0.29500 0.14330 0.23580 0.03200
H 	H 	0.23420 0.05800 0.36020 0.02500
C 	C 	0.81800 0.71130 0.54530 -0.07400
H 	H 	0.90070 0.76640 0.56820 0.04900
H 	H 	0.83370 0.67490 0.70060 0.01600
N 	N 	0.81080 0.60920 0.38040 -0.26300
H 	H 	0.79500 0.64330 0.23580 0.06500
H 	H 	0.73420 0.55800 0.36020 0.06700
C 	C 	0.68200 0.21130 0.95470 0.05600
H 	H 	0.59930 0.26640 0.93180 -0.01800
H 	H 	0.66630 0.17490 0.79940 -0.05100
N 	N 	0.68920 0.10920 0.11960 -0.31100
H 	H 	0.70500 0.14330 0.26420 0.05600
H 	H 	0.76580 0.05800 0.13980 0.05100
C 	C 	0.18200 0.71130 0.95470 0.06100
H 	H 	0.09930 0.76640 0.93180 -0.03400
H 	H 	0.16630 0.67490 0.79940 -0.05500
N 	N 	0.18920 0.60920 0.11960 -0.31400
H 	H 	0.20500 0.64330 0.26420 0.05800
H 	H 	0.26580 0.55800 0.13980 0.06400
C 	C 	0.68200 0.78870 0.45470 -0.02200
H 	H 	0.59930 0.73360 0.43180 0.00000
H 	H 	0.66630 0.82510 0.29940 -0.01000
N 	N 	0.68920 0.89080 0.61960 -0.28300
H 	H 	0.70500 0.85670 0.76420 0.09200
H 	H 	0.76580 0.94200 0.63980 0.11500
C 	C 	0.18200 0.28870 0.45470 -0.01900
H 	H 	0.09930 0.23360 0.43180 -0.03800
H 	H 	0.16630 0.32510 0.29940 -0.04600
N 	N 	0.18920 0.39080 0.61960 -0.29400
H 	H 	0.20500 0.35670 0.76420 0.05900
H 	H 	0.26580 0.44200 0.63980 0.07300
C 	C 	0.31800 0.78870 0.04530 -0.14900
H 	H 	0.40070 0.73360 0.06820 0.02900
H 	H 	0.33370 0.82510 0.20060 0.02000
N 	N 	0.31080 0.89080 0.88040 -0.24200
H 	H 	0.29500 0.85670 0.73580 0.06800
H 	H 	0.23420 0.94200 0.86020 0.08900
C 	C 	0.81800 0.28870 0.04530 -0.15400
H 	H 	0.90070 0.23360 0.06820 0.04500
H 	H 	0.83370 0.32510 0.20060 0.02400
N 	N 	0.81080 0.39080 0.88040 -0.24000
H 	H 	0.79500 0.35670 0.73580 0.06600
H 	H 	0.73420 0.44200 0.86020 0.07500
Ag	Ag	0.50000 0.00000 0.50000 0.41100
Ag	Ag	0.00000 0.50000 0.50000 0.41300
Ag	Ag	0.50000 0.00000 -0.00000 0.39300
Ag	Ag	-0.00000 0.50000 -0.00000 0.39400
