data_crystal

_cell_length_a 20.86200
_cell_length_b 19.93100
_cell_length_c 6.18950
_cell_angle_alpha 90.00000
_cell_angle_beta  114.55000
_cell_angle_gamma 90.00000

_symmetry_space_group_name_	'P 1'
_symmetry_space_group_name_H-M	'P 1'

loop_
_symmetry_equiv_pos_as_xyz
  x,y,z

loop_
_atom_site_label
_atom_site_type_symbol
_atom_site_fract_x
_atom_site_fract_y
_atom_site_fract_z
_atom_site_charge
N 	N 	0.59230 0.04920 0.10400 -0.33600
H 	H 	0.60590 0.06390 0.25360 0.06000
H 	H 	0.62570 0.02110 0.10000 0.04800
N 	N 	0.64730 0.20260 0.86500 -0.25300
H 	H 	0.61460 0.23190 0.86620 0.08000
H 	H 	0.63490 0.18850 0.71520 0.06400
N 	N 	0.84780 0.19600 0.61700 -0.30500
H 	H 	0.88310 0.22360 0.62670 0.09000
H 	H 	0.85870 0.17760 0.76070 0.08400
N 	N 	0.90010 0.05750 0.35800 -0.26900
H 	H 	0.89320 0.07660 0.21800 0.05200
H 	H 	0.86340 0.03040 0.33530 0.05400
C 	C 	0.58450 0.10590 0.94600 0.10500
H 	H 	0.54750 0.13520 0.94670 -0.03000
H 	H 	0.57090 0.08970 0.78520 -0.06800
C 	C 	0.65240 0.14490 0.02300 -0.19500
H 	H 	0.66560 0.16120 0.18340 0.01300
H 	H 	0.68940 0.11500 0.02520 0.02300
C 	C 	0.83690 0.14420 0.44000 -0.00500
H 	H 	0.82620 0.16350 0.28470 -0.04700
H 	H 	0.79940 0.11380 0.42890 -0.02200
C 	C 	0.90750 0.10950 0.53800 -0.08500
H 	H 	0.94500 0.14070 0.55540 0.03000
H 	H 	0.91730 0.08930 0.69110 0.00200
N 	N 	0.09230 0.54920 0.10400 -0.34200
H 	H 	0.10590 0.56390 0.25360 0.06900
H 	H 	0.12570 0.52110 0.10000 0.06700
N 	N 	0.14730 0.70260 0.86500 -0.24800
H 	H 	0.11460 0.73190 0.86620 0.07400
H 	H 	0.13490 0.68850 0.71520 0.06100
N 	N 	0.34780 0.69600 0.61700 -0.30100
H 	H 	0.38310 0.72360 0.62670 0.08300
H 	H 	0.35870 0.67760 0.76070 0.08100
N 	N 	0.40010 0.55750 0.35800 -0.28200
H 	H 	0.39320 0.57660 0.21800 0.05200
H 	H 	0.36340 0.53040 0.33530 0.06900
C 	C 	0.08450 0.60590 0.94600 0.12200
H 	H 	0.04750 0.63520 0.94670 -0.04900
H 	H 	0.07090 0.58970 0.78520 -0.07600
C 	C 	0.15240 0.64490 0.02300 -0.20800
H 	H 	0.16560 0.66120 0.18340 0.01700
H 	H 	0.18940 0.61500 0.02520 0.03200
C 	C 	0.33690 0.64420 0.44000 -0.01800
H 	H 	0.32620 0.66350 0.28470 -0.04300
H 	H 	0.29940 0.61380 0.42890 -0.01300
C 	C 	0.40750 0.60950 0.53800 -0.06700
H 	H 	0.44500 0.64070 0.55540 0.00900
H 	H 	0.41730 0.58930 0.69110 -0.01000
N 	N 	0.40770 0.04920 0.39600 -0.29300
H 	H 	0.39410 0.06390 0.24640 0.04600
H 	H 	0.37430 0.02110 0.40000 0.04800
N 	N 	0.35270 0.20260 0.63500 -0.29800
H 	H 	0.38540 0.23190 0.63380 0.08200
H 	H 	0.36510 0.18850 0.78480 0.08100
N 	N 	0.15220 0.19600 0.88300 -0.25000
H 	H 	0.11690 0.22360 0.87330 0.07300
H 	H 	0.14130 0.17760 0.73930 0.05900
N 	N 	0.09990 0.05750 0.14200 -0.32500
H 	H 	0.10680 0.07660 0.28200 0.05700
H 	H 	0.13660 0.03040 0.16470 0.05600
C 	C 	0.41550 0.10590 0.55400 -0.05700
H 	H 	0.45250 0.13520 0.55330 0.00500
H 	H 	0.42910 0.08970 0.71480 -0.01900
C 	C 	0.34760 0.14490 0.47700 -0.03600
H 	H 	0.33440 0.16120 0.31660 -0.03300
H 	H 	0.31060 0.11500 0.47480 -0.01100
C 	C 	0.16310 0.14420 0.06000 -0.18400
H 	H 	0.17380 0.16350 0.21530 0.00400
H 	H 	0.20060 0.11380 0.07110 0.01900
C 	C 	0.09250 0.10950 0.96200 0.10000
H 	H 	0.05500 0.14070 0.94460 -0.04400
H 	H 	0.08270 0.08930 0.80890 -0.07400
N 	N 	0.90770 0.54920 0.39600 -0.28300
H 	H 	0.89410 0.56390 0.24640 0.06200
H 	H 	0.87430 0.52110 0.40000 0.07000
N 	N 	0.85270 0.70260 0.63500 -0.30200
H 	H 	0.88540 0.73190 0.63380 0.09100
H 	H 	0.86510 0.68850 0.78480 0.08800
N 	N 	0.65220 0.69600 0.88300 -0.25300
H 	H 	0.61690 0.72360 0.87330 0.08100
H 	H 	0.64130 0.67760 0.73930 0.06500
N 	N 	0.59990 0.55750 0.14200 -0.32400
H 	H 	0.60680 0.57660 0.28200 0.06800
H 	H 	0.63660 0.53040 0.16470 0.07400
C 	C 	0.91550 0.60590 0.55400 -0.06800
H 	H 	0.95250 0.63520 0.55330 0.02800
H 	H 	0.92910 0.58970 0.71480 0.00600
C 	C 	0.84760 0.64490 0.47700 -0.02700
H 	H 	0.83440 0.66120 0.31660 -0.03200
H 	H 	0.81060 0.61500 0.47480 -0.00700
C 	C 	0.66310 0.64420 0.06000 -0.18200
H 	H 	0.67380 0.66350 0.21530 0.00600
H 	H 	0.70060 0.61380 0.07110 0.02500
C 	C 	0.59250 0.60950 0.96200 0.09600
H 	H 	0.55500 0.64070 0.94460 -0.02800
H 	H 	0.58270 0.58930 0.80890 -0.06000
N 	N 	0.40770 0.95080 0.89600 -0.25400
H 	H 	0.39410 0.93610 0.74640 0.07900
H 	H 	0.37430 0.97890 0.90000 0.10000
N 	N 	0.35270 0.79740 0.13500 -0.32700
H 	H 	0.38540 0.76810 0.13380 0.07200
H 	H 	0.36510 0.81150 0.28480 0.07500
N 	N 	0.15220 0.80400 0.38300 -0.28600
H 	H 	0.11690 0.77640 0.37330 0.06400
H 	H 	0.14130 0.82240 0.23930 0.05500
N 	N 	0.09990 0.94250 0.64200 -0.29100
H 	H 	0.10680 0.92340 0.78200 0.08500
H 	H 	0.13660 0.96960 0.66470 0.10300
C 	C 	0.41550 0.89410 0.05400 -0.18400
H 	H 	0.45250 0.86480 0.05330 0.03200
H 	H 	0.42910 0.91030 0.21480 0.02200
C 	C 	0.34760 0.85510 0.97700 0.09100
H 	H 	0.33440 0.83880 0.81660 -0.05300
H 	H 	0.31060 0.88500 0.97480 -0.02000
C 	C 	0.16310 0.85580 0.56000 -0.05600
H 	H 	0.17380 0.83650 0.71530 -0.01700
H 	H 	0.20060 0.88620 0.57110 0.00800
C 	C 	0.09250 0.89050 0.46200 -0.02800
H 	H 	0.05500 0.85930 0.44460 -0.01600
H 	H 	0.08270 0.91070 0.30890 -0.02900
N 	N 	0.90770 0.45080 0.89600 -0.24800
H 	H 	0.89410 0.43610 0.74640 0.07100
H 	H 	0.87430 0.47890 0.90000 0.08000
N 	N 	0.85270 0.29740 0.13500 -0.33100
H 	H 	0.88540 0.26810 0.13380 0.08000
H 	H 	0.86510 0.31150 0.28480 0.07800
N 	N 	0.65220 0.30400 0.38300 -0.28900
H 	H 	0.61690 0.27640 0.37330 0.07000
H 	H 	0.64130 0.32240 0.23930 0.05600
N 	N 	0.59990 0.44250 0.64200 -0.29300
H 	H 	0.60680 0.42340 0.78200 0.07800
H 	H 	0.63660 0.46960 0.66470 0.08300
C 	C 	0.91550 0.39410 0.05400 -0.19900
H 	H 	0.95250 0.36480 0.05330 0.05200
H 	H 	0.92910 0.41030 0.21480 0.03000
C 	C 	0.84760 0.35510 0.97700 0.10200
H 	H 	0.83440 0.33880 0.81660 -0.05700
H 	H 	0.81060 0.38500 0.97480 -0.03000
C 	C 	0.66310 0.35580 0.56000 -0.04600
H 	H 	0.67380 0.33650 0.71530 -0.02000
H 	H 	0.70060 0.38620 0.57110 -0.00100
C 	C 	0.59250 0.39050 0.46200 -0.03900
H 	H 	0.55500 0.35930 0.44460 -0.00300
H 	H 	0.58270 0.41070 0.30890 -0.03300
N 	N 	0.59230 0.95080 0.60400 -0.30200
H 	H 	0.60590 0.93610 0.75360 0.09500
H 	H 	0.62570 0.97890 0.60000 0.10000
N 	N 	0.64730 0.79740 0.36500 -0.28600
H 	H 	0.61460 0.76810 0.36620 0.07100
H 	H 	0.63490 0.81150 0.21520 0.05900
N 	N 	0.84780 0.80400 0.11700 -0.33600
H 	H 	0.88310 0.77640 0.12670 0.08100
H 	H 	0.85870 0.82240 0.26070 0.08000
N 	N 	0.90010 0.94250 0.85800 -0.23300
H 	H 	0.89320 0.92340 0.71800 0.07900
H 	H 	0.86340 0.96960 0.83530 0.10000
C 	C 	0.58450 0.89410 0.44600 -0.02300
H 	H 	0.54750 0.86480 0.44670 -0.00300
H 	H 	0.57090 0.91030 0.28520 -0.02500
C 	C 	0.65240 0.85510 0.52300 -0.06900
H 	H 	0.66560 0.83880 0.68340 -0.00600
H 	H 	0.68940 0.88500 0.52520 0.01300
C 	C 	0.83690 0.85580 0.94000 0.12100
H 	H 	0.82620 0.83650 0.78470 -0.06900
H 	H 	0.79940 0.88620 0.92890 -0.03300
C 	C 	0.90750 0.89050 0.03800 -0.20800
H 	H 	0.94500 0.85930 0.05540 0.05700
H 	H 	0.91730 0.91070 0.19110 0.04300
N 	N 	0.09230 0.45080 0.60400 -0.31100
H 	H 	0.10590 0.43610 0.75360 0.07900
H 	H 	0.12570 0.47890 0.60000 0.07800
N 	N 	0.14730 0.29740 0.36500 -0.28300
H 	H 	0.11460 0.26810 0.36620 0.06200
H 	H 	0.13490 0.31150 0.21520 0.05100
N 	N 	0.34780 0.30400 0.11700 -0.33300
H 	H 	0.38310 0.27640 0.12670 0.07200
H 	H 	0.35870 0.32240 0.26070 0.07200
N 	N 	0.40010 0.44250 0.85800 -0.24700
H 	H 	0.39320 0.42340 0.71800 0.06100
H 	H 	0.36340 0.46960 0.83530 0.07900
C 	C 	0.08450 0.39410 0.44600 -0.01100
H 	H 	0.04750 0.36480 0.44670 -0.02600
H 	H 	0.07090 0.41030 0.28520 -0.05000
C 	C 	0.15240 0.35510 0.52300 -0.07800
H 	H 	0.16560 0.33880 0.68340 -0.00600
H 	H 	0.18940 0.38500 0.52520 0.00900
C 	C 	0.33690 0.35580 0.94000 0.12000
H 	H 	0.32620 0.33650 0.78470 -0.07200
H 	H 	0.29940 0.38620 0.92890 -0.03900
C 	C 	0.40750 0.39050 0.03800 -0.20300
H 	H 	0.44500 0.35930 0.05540 0.03400
H 	H 	0.41730 0.41070 0.19110 0.01500
Ag	Ag	0.50000 0.00000 -0.00000 0.41300
Ag	Ag	-0.00000 0.50000 -0.00000 0.41500
Ag	Ag	0.50000 0.00000 0.50000 0.43900
Ag	Ag	0.00000 0.50000 0.50000 0.44100
Ag	Ag	0.75000 0.25000 -0.00000 0.42600
Ag	Ag	0.25000 0.25000 0.50000 0.45100
Ag	Ag	0.25000 0.75000 -0.00000 0.42600
Ag	Ag	0.75000 0.75000 0.50000 0.45300
Ag	Ag	0.75000 0.25000 0.50000 0.45000
Ag	Ag	0.25000 0.25000 -0.00000 0.42300
Ag	Ag	0.25000 0.75000 0.50000 0.45100
Ag	Ag	0.75000 0.75000 -0.00000 0.42600
Ag	Ag	0.00000 0.00000 0.50000 0.39200
Ag	Ag	0.50000 0.50000 0.50000 0.44400
Ag	Ag	-0.00000 0.00000 -0.00000 0.36800
Ag	Ag	0.50000 0.50000 -0.00000 0.41800
