data_crystal

_cell_length_a 20.18300
_cell_length_b 19.60700
_cell_length_c 5.97780
_cell_angle_alpha 90.00000
_cell_angle_beta  113.92000
_cell_angle_gamma 90.00000

_symmetry_space_group_name_	'P 1'
_symmetry_space_group_name_H-M	'P 1'

loop_
_symmetry_equiv_pos_as_xyz
  x,y,z

loop_
_atom_site_label
_atom_site_type_symbol
_atom_site_fract_x
_atom_site_fract_y
_atom_site_fract_z
_atom_site_charge
N 	N 	0.59300 0.05410 0.14100 -0.33600
H 	H 	0.59890 0.07320 0.28500 0.06100
H 	H 	0.63160 0.02720 0.16540 0.05600
N 	N 	0.64390 0.20870 0.87000 -0.25400
H 	H 	0.61230 0.23910 0.88280 0.08300
H 	H 	0.62870 0.19530 0.71310 0.06600
N 	N 	0.84250 0.19350 0.60800 -0.31300
H 	H 	0.87970 0.22040 0.61730 0.09000
H 	H 	0.85270 0.17580 0.75680 0.08500
N 	N 	0.89940 0.04720 0.37200 -0.27500
H 	H 	0.88690 0.06240 0.21800 0.05100
H 	H 	0.86520 0.01790 0.37280 0.05200
C 	C 	0.58540 0.10620 0.95900 0.11400
H 	H 	0.54410 0.13490 0.93770 -0.03300
H 	H 	0.57620 0.08450 0.80320 -0.07500
C 	C 	0.65270 0.14950 0.03400 -0.20000
H 	H 	0.66530 0.16600 0.19950 0.01200
H 	H 	0.69240 0.12150 0.03580 0.02200
C 	C 	0.83350 0.13890 0.43400 -0.00300
H 	H 	0.82270 0.15660 0.27100 -0.04700
H 	H 	0.79540 0.10760 0.42630 -0.02000
C 	C 	0.90690 0.10520 0.54100 -0.09000
H 	H 	0.94460 0.13640 0.54430 0.03000
H 	H 	0.91810 0.08910 0.70580 0.00500
N 	N 	0.09300 0.55410 0.14100 -0.34300
H 	H 	0.09890 0.57320 0.28500 0.06500
H 	H 	0.13160 0.52720 0.16540 0.07400
N 	N 	0.14390 0.70870 0.87000 -0.25000
H 	H 	0.11230 0.73910 0.88280 0.07600
H 	H 	0.12870 0.69530 0.71310 0.06100
N 	N 	0.34250 0.69350 0.60800 -0.30800
H 	H 	0.37970 0.72040 0.61730 0.08300
H 	H 	0.35270 0.67580 0.75680 0.08200
N 	N 	0.39940 0.54720 0.37200 -0.29100
H 	H 	0.38690 0.56240 0.21800 0.05500
H 	H 	0.36520 0.51790 0.37280 0.07100
C 	C 	0.08540 0.60620 0.95900 0.13100
H 	H 	0.04410 0.63490 0.93770 -0.05500
H 	H 	0.07620 0.58450 0.80320 -0.08200
C 	C 	0.15270 0.64950 0.03400 -0.21300
H 	H 	0.16530 0.66600 0.19950 0.01600
H 	H 	0.19240 0.62150 0.03580 0.03100
C 	C 	0.33350 0.63890 0.43400 -0.01700
H 	H 	0.32270 0.65660 0.27100 -0.04200
H 	H 	0.29540 0.60760 0.42630 -0.00900
C 	C 	0.40690 0.60520 0.54100 -0.07000
H 	H 	0.44460 0.63640 0.54430 0.00600
H 	H 	0.41810 0.58910 0.70580 -0.00900
N 	N 	0.40700 0.05410 0.35900 -0.29200
H 	H 	0.40110 0.07320 0.21500 0.04400
H 	H 	0.36840 0.02720 0.33460 0.05000
N 	N 	0.35610 0.20870 0.63000 -0.30100
H 	H 	0.38770 0.23910 0.61720 0.08400
H 	H 	0.37130 0.19530 0.78690 0.08400
N 	N 	0.15750 0.19350 0.89200 -0.25600
H 	H 	0.12030 0.22040 0.88270 0.07300
H 	H 	0.14730 0.17580 0.74320 0.05900
N 	N 	0.10060 0.04720 0.12800 -0.33100
H 	H 	0.11310 0.06240 0.28200 0.05800
H 	H 	0.13480 0.01790 0.12720 0.05100
C 	C 	0.41460 0.10620 0.54100 -0.05400
H 	H 	0.45590 0.13490 0.56230 0.00500
H 	H 	0.42380 0.08450 0.69680 -0.02500
C 	C 	0.34730 0.14950 0.46600 -0.03500
H 	H 	0.33470 0.16600 0.30050 -0.03500
H 	H 	0.30760 0.12150 0.46420 -0.01400
C 	C 	0.16650 0.13890 0.06600 -0.18500
H 	H 	0.17730 0.15660 0.22900 0.00600
H 	H 	0.20460 0.10760 0.07370 0.02300
C 	C 	0.09310 0.10520 0.95900 0.09800
H 	H 	0.05540 0.13640 0.95570 -0.04700
H 	H 	0.08190 0.08910 0.79420 -0.07600
N 	N 	0.90700 0.55410 0.35900 -0.28100
H 	H 	0.90110 0.57320 0.21500 0.06000
H 	H 	0.86840 0.52720 0.33460 0.07100
N 	N 	0.85610 0.70870 0.63000 -0.30600
H 	H 	0.88770 0.73910 0.61720 0.09300
H 	H 	0.87130 0.69530 0.78690 0.09200
N 	N 	0.65750 0.69350 0.89200 -0.25900
H 	H 	0.62030 0.72040 0.88270 0.08100
H 	H 	0.64730 0.67580 0.74320 0.06500
N 	N 	0.60060 0.54720 0.12800 -0.33200
H 	H 	0.61310 0.56240 0.28200 0.07200
H 	H 	0.63480 0.51790 0.12720 0.07300
C 	C 	0.91460 0.60620 0.54100 -0.06800
H 	H 	0.95590 0.63490 0.56230 0.03100
H 	H 	0.92380 0.58450 0.69680 0.00200
C 	C 	0.84730 0.64950 0.46600 -0.02400
H 	H 	0.83470 0.66600 0.30050 -0.03600
H 	H 	0.80760 0.62150 0.46420 -0.01100
C 	C 	0.66650 0.63890 0.06600 -0.18300
H 	H 	0.67730 0.65660 0.22900 0.00800
H 	H 	0.70460 0.60760 0.07370 0.03000
C 	C 	0.59310 0.60520 0.95900 0.09500
H 	H 	0.55540 0.63640 0.95570 -0.03000
H 	H 	0.58190 0.58910 0.79420 -0.06000
N 	N 	0.40700 0.94590 0.85900 -0.24900
H 	H 	0.40110 0.92680 0.71500 0.07300
H 	H 	0.36840 0.97280 0.83460 0.10100
N 	N 	0.35610 0.79130 0.13000 -0.33100
H 	H 	0.38770 0.76090 0.11720 0.07200
H 	H 	0.37130 0.80470 0.28690 0.07700
N 	N 	0.15750 0.80650 0.39200 -0.29300
H 	H 	0.12030 0.77960 0.38270 0.06400
H 	H 	0.14730 0.82420 0.24320 0.05500
N 	N 	0.10060 0.95280 0.62800 -0.30000
H 	H 	0.11310 0.93760 0.78200 0.09400
H 	H 	0.13480 0.98210 0.62720 0.10700
C 	C 	0.41460 0.89380 0.04100 -0.18700
H 	H 	0.45590 0.86510 0.06230 0.03400
H 	H 	0.42380 0.91550 0.19680 0.02100
C 	C 	0.34730 0.85050 0.96600 0.09700
H 	H 	0.33470 0.83400 0.80050 -0.05800
H 	H 	0.30760 0.87850 0.96420 -0.02600
C 	C 	0.16650 0.86110 0.56600 -0.05700
H 	H 	0.17730 0.84340 0.72900 -0.01400
H 	H 	0.20460 0.89240 0.57370 0.01400
C 	C 	0.09310 0.89480 0.45900 -0.02700
H 	H 	0.05540 0.86360 0.45570 -0.01900
H 	H 	0.08190 0.91090 0.29420 -0.02900
N 	N 	0.90700 0.44590 0.85900 -0.24400
H 	H 	0.90110 0.42680 0.71500 0.06800
H 	H 	0.86840 0.47280 0.83460 0.08100
N 	N 	0.85610 0.29130 0.13000 -0.33600
H 	H 	0.88770 0.26090 0.11720 0.08100
H 	H 	0.87130 0.30470 0.28690 0.08200
N 	N 	0.65750 0.30650 0.39200 -0.29600
H 	H 	0.62030 0.27960 0.38270 0.07000
H 	H 	0.64730 0.32420 0.24320 0.05600
N 	N 	0.60060 0.45280 0.62800 -0.30200
H 	H 	0.61310 0.43760 0.78200 0.08200
H 	H 	0.63480 0.48210 0.62720 0.08400
C 	C 	0.91460 0.39380 0.04100 -0.20200
H 	H 	0.95590 0.36510 0.06230 0.05600
H 	H 	0.92380 0.41550 0.19680 0.02600
C 	C 	0.84730 0.35050 0.96600 0.10900
H 	H 	0.83470 0.33400 0.80050 -0.06200
H 	H 	0.80760 0.37850 0.96420 -0.03500
C 	C 	0.66650 0.36110 0.56600 -0.04500
H 	H 	0.67730 0.34340 0.72900 -0.01800
H 	H 	0.70460 0.39240 0.57370 0.00400
C 	C 	0.59310 0.39480 0.45900 -0.04200
H 	H 	0.55540 0.36360 0.45570 -0.00500
H 	H 	0.58190 0.41090 0.29420 -0.03300
N 	N 	0.59300 0.94590 0.64100 -0.29900
H 	H 	0.59890 0.92680 0.78500 0.09100
H 	H 	0.63160 0.97280 0.66540 0.10600
N 	N 	0.64390 0.79130 0.37000 -0.29000
H 	H 	0.61230 0.76090 0.38280 0.07200
H 	H 	0.62870 0.80470 0.21310 0.05900
N 	N 	0.84250 0.80650 0.10800 -0.34400
H 	H 	0.87970 0.77960 0.11730 0.08100
H 	H 	0.85270 0.82420 0.25680 0.08000
N 	N 	0.89940 0.95280 0.87200 -0.24000
H 	H 	0.88690 0.93760 0.71800 0.08500
H 	H 	0.86520 0.98210 0.87280 0.10700
C 	C 	0.58540 0.89380 0.45900 -0.02000
H 	H 	0.54410 0.86510 0.43770 -0.00400
H 	H 	0.57620 0.91550 0.30320 -0.02800
C 	C 	0.65270 0.85050 0.53400 -0.06800
H 	H 	0.66530 0.83400 0.69950 -0.00900
H 	H 	0.69240 0.87850 0.53580 0.00900
C 	C 	0.83350 0.86110 0.93400 0.12300
H 	H 	0.82270 0.84340 0.77100 -0.06800
H 	H 	0.79540 0.89240 0.92630 -0.02800
C 	C 	0.90690 0.89480 0.04100 -0.21100
H 	H 	0.94460 0.86360 0.04430 0.05600
H 	H 	0.91810 0.91090 0.20580 0.04700
N 	N 	0.09300 0.44590 0.64100 -0.31100
H 	H 	0.09890 0.42680 0.78500 0.07500
H 	H 	0.13160 0.47280 0.66540 0.08500
N 	N 	0.14390 0.29130 0.37000 -0.28500
H 	H 	0.11230 0.26090 0.38280 0.06300
H 	H 	0.12870 0.30470 0.21310 0.05100
N 	N 	0.34250 0.30650 0.10800 -0.34100
H 	H 	0.37970 0.27960 0.11730 0.07200
H 	H 	0.35270 0.32420 0.25680 0.07200
N 	N 	0.39940 0.45280 0.87200 -0.25500
H 	H 	0.38690 0.43760 0.71800 0.06500
H 	H 	0.36520 0.48210 0.87280 0.08200
C 	C 	0.08540 0.39380 0.45900 -0.00500
H 	H 	0.04410 0.36510 0.43770 -0.03100
H 	H 	0.07620 0.41550 0.30320 -0.05500
C 	C 	0.15270 0.35050 0.53400 -0.08000
H 	H 	0.16530 0.33400 0.69950 -0.00800
H 	H 	0.19240 0.37850 0.53580 0.00600
C 	C 	0.33350 0.36110 0.93400 0.12300
H 	H 	0.32270 0.34340 0.77100 -0.07100
H 	H 	0.29540 0.39240 0.92630 -0.03600
C 	C 	0.40690 0.39480 0.04100 -0.20700
H 	H 	0.44460 0.36360 0.04430 0.03200
H 	H 	0.41810 0.41090 0.20580 0.01700
Ag	Ag	0.50000 0.00000 -0.00000 0.41100
Ag	Ag	0.00000 0.50000 -0.00000 0.41200
Ag	Ag	0.50000 0.00000 0.50000 0.43800
Ag	Ag	0.00000 0.50000 0.50000 0.43900
Ag	Ag	0.75000 0.25000 -0.00000 0.43000
Ag	Ag	0.25000 0.25000 0.50000 0.45600
Ag	Ag	0.25000 0.75000 -0.00000 0.43000
Ag	Ag	0.75000 0.75000 0.50000 0.45800
Ag	Ag	0.75000 0.25000 0.50000 0.46000
Ag	Ag	0.25000 0.25000 -0.00000 0.43200
Ag	Ag	0.25000 0.75000 0.50000 0.46100
Ag	Ag	0.75000 0.75000 -0.00000 0.43500
Ag	Ag	0.00000 0.00000 0.50000 0.40100
Ag	Ag	0.50000 0.50000 0.50000 0.45800
Ag	Ag	-0.00000 0.00000 -0.00000 0.37600
Ag	Ag	0.50000 0.50000 -0.00000 0.43000
