data_crystal

_cell_length_a 10.52100
_cell_length_b 10.42600
_cell_length_c 6.20200
_cell_angle_alpha 90.00000
_cell_angle_beta  115.00000
_cell_angle_gamma 90.00000

_symmetry_space_group_name_	'P 1'
_symmetry_space_group_name_H-M	'P 1'

loop_
_symmetry_equiv_pos_as_xyz
  x,y,z

loop_
_atom_site_label
_atom_site_type_symbol
_atom_site_fract_x
_atom_site_fract_y
_atom_site_fract_z
_atom_site_charge
C 	C 	0.31440 0.20980 0.54600 -0.07700
H 	H 	0.39540 0.26340 0.57450 0.00900
H 	H 	0.32690 0.17130 0.69610 -0.02000
N 	N 	0.30500 0.10830 0.37600 -0.27800
H 	H 	0.28710 0.14360 0.23330 0.03900
H 	H 	0.23380 0.05510 0.35730 0.03100
C 	C 	0.81440 0.70980 0.54600 -0.07900
H 	H 	0.89540 0.76340 0.57450 0.04800
H 	H 	0.82690 0.67130 0.69610 0.01500
N 	N 	0.80500 0.60830 0.37600 -0.27000
H 	H 	0.78710 0.64360 0.23330 0.07200
H 	H 	0.73380 0.55510 0.35730 0.07400
C 	C 	0.68560 0.20980 0.95400 0.07100
H 	H 	0.60460 0.26340 0.92550 -0.02700
H 	H 	0.67310 0.17130 0.80390 -0.05900
N 	N 	0.69500 0.10830 0.12400 -0.32000
H 	H 	0.71290 0.14360 0.26670 0.06400
H 	H 	0.76620 0.05510 0.14270 0.05800
C 	C 	0.18560 0.70980 0.95400 0.07700
H 	H 	0.10460 0.76340 0.92550 -0.04300
H 	H 	0.17310 0.67130 0.80390 -0.06100
N 	N 	0.19500 0.60830 0.12400 -0.32300
H 	H 	0.21290 0.64360 0.26670 0.06700
H 	H 	0.26620 0.55510 0.14270 0.07300
C 	C 	0.68560 0.79020 0.45400 -0.01500
H 	H 	0.60460 0.73660 0.42550 -0.00400
H 	H 	0.67310 0.82870 0.30390 -0.01200
N 	N 	0.69500 0.89170 0.62400 -0.29300
H 	H 	0.71290 0.85640 0.76670 0.09900
H 	H 	0.76620 0.94490 0.64270 0.12200
C 	C 	0.18560 0.29020 0.45400 -0.01000
H 	H 	0.10460 0.23660 0.42550 -0.04300
H 	H 	0.17310 0.32870 0.30390 -0.04800
N 	N 	0.19500 0.39170 0.62400 -0.30300
H 	H 	0.21290 0.35640 0.76670 0.06700
H 	H 	0.26620 0.44490 0.64270 0.08000
C 	C 	0.31440 0.79020 0.04600 -0.16100
H 	H 	0.39540 0.73660 0.07450 0.03300
H 	H 	0.32690 0.82870 0.19610 0.02500
N 	N 	0.30500 0.89170 0.87600 -0.24900
H 	H 	0.28710 0.85640 0.73330 0.07400
H 	H 	0.23380 0.94490 0.85730 0.09500
C 	C 	0.81440 0.29020 0.04600 -0.16600
H 	H 	0.89540 0.23660 0.07450 0.04800
H 	H 	0.82690 0.32870 0.19610 0.02700
N 	N 	0.80500 0.39170 0.87600 -0.24600
H 	H 	0.78710 0.35640 0.73330 0.07100
H 	H 	0.73380 0.44490 0.85730 0.08000
Ag	Ag	0.50000 0.00000 0.50000 0.40500
Ag	Ag	0.00000 0.50000 0.50000 0.40600
Ag	Ag	0.50000 0.00000 -0.00000 0.38800
Ag	Ag	-0.00000 0.50000 -0.00000 0.38900
