data_crystal

_cell_length_a 10.37250
_cell_length_b 10.55750
_cell_length_c 6.27060
_cell_angle_alpha 90.00000
_cell_angle_beta  114.94800
_cell_angle_gamma 90.00000

_symmetry_space_group_name_	'P 1'
_symmetry_space_group_name_H-M	'P 1'

loop_
_symmetry_equiv_pos_as_xyz
  x,y,z

loop_
_atom_site_label
_atom_site_type_symbol
_atom_site_fract_x
_atom_site_fract_y
_atom_site_fract_z
_atom_site_charge
C 	C 	0.31670 0.21060 0.54570 -0.07800
H 	H 	0.39770 0.26500 0.57420 0.01100
H 	H 	0.32990 0.17270 0.69450 -0.01900
N 	N 	0.31190 0.10990 0.38080 -0.28100
H 	H 	0.29700 0.14520 0.24170 0.03900
H 	H 	0.23780 0.05870 0.35730 0.03100
C 	C 	0.81670 0.71060 0.54570 -0.08000
H 	H 	0.89770 0.76500 0.57420 0.05000
H 	H 	0.82990 0.67270 0.69450 0.01700
N 	N 	0.81190 0.60990 0.38080 -0.27200
H 	H 	0.79700 0.64520 0.24170 0.07200
H 	H 	0.73780 0.55870 0.35730 0.07300
C 	C 	0.68330 0.21060 0.95430 0.06800
H 	H 	0.60230 0.26500 0.92580 -0.02400
H 	H 	0.67010 0.17270 0.80550 -0.05600
N 	N 	0.68810 0.10990 0.11920 -0.32300
H 	H 	0.70300 0.14520 0.25830 0.06300
H 	H 	0.76220 0.05870 0.14270 0.05800
C 	C 	0.18330 0.71060 0.95430 0.07300
H 	H 	0.10230 0.76500 0.92580 -0.04000
H 	H 	0.17010 0.67270 0.80550 -0.05900
N 	N 	0.18810 0.60990 0.11920 -0.32700
H 	H 	0.20300 0.64520 0.25830 0.06500
H 	H 	0.26220 0.55870 0.14270 0.07100
C 	C 	0.68330 0.78940 0.45430 -0.01700
H 	H 	0.60230 0.73500 0.42580 -0.00200
H 	H 	0.67010 0.82730 0.30550 -0.01000
N 	N 	0.68810 0.89010 0.61920 -0.29600
H 	H 	0.70300 0.85480 0.75830 0.09800
H 	H 	0.76220 0.94130 0.64270 0.12100
C 	C 	0.18330 0.28940 0.45430 -0.01300
H 	H 	0.10230 0.23500 0.42580 -0.04100
H 	H 	0.17010 0.32730 0.30550 -0.04700
N 	N 	0.18810 0.39010 0.61920 -0.30600
H 	H 	0.20300 0.35480 0.75830 0.06500
H 	H 	0.26220 0.44130 0.64270 0.07900
C 	C 	0.31670 0.78940 0.04570 -0.16100
H 	H 	0.39770 0.73500 0.07420 0.03400
H 	H 	0.32990 0.82730 0.19450 0.02500
N 	N 	0.31190 0.89010 0.88080 -0.25100
H 	H 	0.29700 0.85480 0.74170 0.07400
H 	H 	0.23780 0.94130 0.85730 0.09400
C 	C 	0.81670 0.28940 0.04570 -0.16600
H 	H 	0.89770 0.23500 0.07420 0.05000
H 	H 	0.82990 0.32730 0.19450 0.02800
N 	N 	0.81190 0.39010 0.88080 -0.24900
H 	H 	0.79700 0.35480 0.74170 0.07100
H 	H 	0.73780 0.44130 0.85730 0.08000
Ag	Ag	0.50000 0.00000 0.50000 0.41000
Ag	Ag	0.00000 0.50000 0.50000 0.41200
Ag	Ag	0.50000 0.00000 -0.00000 0.39200
Ag	Ag	-0.00000 0.50000 -0.00000 0.39400
