data_crystal

_cell_length_a 10.46180
_cell_length_b 10.49470
_cell_length_c 6.31300
_cell_angle_alpha 90.00000
_cell_angle_beta  115.31800
_cell_angle_gamma 90.00000

_symmetry_space_group_name_	'P 1'
_symmetry_space_group_name_H-M	'P 1'

loop_
_symmetry_equiv_pos_as_xyz
  x,y,z

loop_
_atom_site_label
_atom_site_type_symbol
_atom_site_fract_x
_atom_site_fract_y
_atom_site_fract_z
_atom_site_charge
C 	C 	0.31540 0.21000 0.54620 -0.07500
H 	H 	0.39680 0.26460 0.58170 0.01300
H 	H 	0.32580 0.17000 0.69120 -0.01900
N 	N 	0.31400 0.11090 0.38170 -0.28000
H 	H 	0.30070 0.14820 0.24540 0.03900
H 	H 	0.24000 0.05890 0.35300 0.03000
C 	C 	0.81540 0.71000 0.54620 -0.08000
H 	H 	0.89680 0.76460 0.58170 0.05000
H 	H 	0.82580 0.67000 0.69120 0.01600
N 	N 	0.81400 0.61090 0.38170 -0.27200
H 	H 	0.80070 0.64820 0.24540 0.07300
H 	H 	0.74000 0.55890 0.35300 0.07200
C 	C 	0.68460 0.21000 0.95380 0.07100
H 	H 	0.60320 0.26460 0.91830 -0.02600
H 	H 	0.67420 0.17000 0.80880 -0.05700
N 	N 	0.68600 0.11090 0.11830 -0.32400
H 	H 	0.69930 0.14820 0.25460 0.06300
H 	H 	0.76000 0.05890 0.14700 0.05700
C 	C 	0.18460 0.71000 0.95380 0.07600
H 	H 	0.10320 0.76460 0.91830 -0.04100
H 	H 	0.17420 0.67000 0.80880 -0.06000
N 	N 	0.18600 0.61090 0.11830 -0.32700
H 	H 	0.19930 0.64820 0.25460 0.06500
H 	H 	0.26000 0.55890 0.14700 0.07100
C 	C 	0.68460 0.79000 0.45380 -0.01600
H 	H 	0.60320 0.73540 0.41830 -0.00300
H 	H 	0.67420 0.83000 0.30880 -0.01000
N 	N 	0.68600 0.88910 0.61830 -0.29600
H 	H 	0.69930 0.85180 0.75460 0.09600
H 	H 	0.76000 0.94110 0.64700 0.12100
C 	C 	0.18460 0.29000 0.45380 -0.01100
H 	H 	0.10320 0.23540 0.41830 -0.04200
H 	H 	0.17420 0.33000 0.30880 -0.04700
N 	N 	0.18600 0.38910 0.61830 -0.30600
H 	H 	0.19930 0.35180 0.75460 0.06400
H 	H 	0.26000 0.44110 0.64700 0.07800
C 	C 	0.31540 0.79000 0.04620 -0.16300
H 	H 	0.39680 0.73540 0.08170 0.03400
H 	H 	0.32580 0.83000 0.19120 0.02600
N 	N 	0.31400 0.88910 0.88170 -0.25100
H 	H 	0.30070 0.85180 0.74540 0.07300
H 	H 	0.24000 0.94110 0.85300 0.09400
C 	C 	0.81540 0.29000 0.04620 -0.16700
H 	H 	0.89680 0.23540 0.08170 0.05000
H 	H 	0.82580 0.33000 0.19120 0.02800
N 	N 	0.81400 0.38910 0.88170 -0.24800
H 	H 	0.80070 0.35180 0.74540 0.07100
H 	H 	0.74000 0.44110 0.85300 0.07900
Ag	Ag	0.50000 0.00000 0.50000 0.41100
Ag	Ag	0.00000 0.50000 0.50000 0.41200
Ag	Ag	0.50000 0.00000 -0.00000 0.39300
Ag	Ag	-0.00000 0.50000 -0.00000 0.39500
