data_crystal

_cell_length_a 10.25510
_cell_length_b 10.63420
_cell_length_c 6.22960
_cell_angle_alpha 90.00000
_cell_angle_beta  114.56800
_cell_angle_gamma 90.00000

_symmetry_space_group_name_	'P 1'
_symmetry_space_group_name_H-M	'P 1'

loop_
_symmetry_equiv_pos_as_xyz
  x,y,z

loop_
_atom_site_label
_atom_site_type_symbol
_atom_site_fract_x
_atom_site_fract_y
_atom_site_fract_z
_atom_site_charge
C 	C 	0.31770 0.21100 0.54540 -0.07100
H 	H 	0.40060 0.26600 0.56960 0.01000
H 	H 	0.33290 0.17410 0.69990 -0.02000
N 	N 	0.31080 0.10910 0.38020 -0.27300
H 	H 	0.29500 0.14360 0.23600 0.03200
H 	H 	0.23440 0.05760 0.35950 0.02500
C 	C 	0.81770 0.71100 0.54540 -0.07400
H 	H 	0.90060 0.76600 0.56960 0.04900
H 	H 	0.83290 0.67410 0.69990 0.01500
N 	N 	0.81080 0.60910 0.38020 -0.26300
H 	H 	0.79500 0.64360 0.23600 0.06600
H 	H 	0.73440 0.55760 0.35950 0.06700
C 	C 	0.68230 0.21100 0.95460 0.05700
H 	H 	0.59940 0.26600 0.93040 -0.01800
H 	H 	0.66710 0.17410 0.80010 -0.05100
N 	N 	0.68920 0.10910 0.11980 -0.31100
H 	H 	0.70500 0.14360 0.26400 0.05600
H 	H 	0.76560 0.05760 0.14050 0.05100
C 	C 	0.18230 0.71100 0.95460 0.06200
H 	H 	0.09940 0.76600 0.93040 -0.03400
H 	H 	0.16710 0.67410 0.80010 -0.05500
N 	N 	0.18920 0.60910 0.11980 -0.31400
H 	H 	0.20500 0.64360 0.26400 0.05800
H 	H 	0.26560 0.55760 0.14050 0.06400
C 	C 	0.68230 0.78900 0.45460 -0.02200
H 	H 	0.59940 0.73400 0.43040 0.00000
H 	H 	0.66710 0.82590 0.30010 -0.00900
N 	N 	0.68920 0.89090 0.61980 -0.28300
H 	H 	0.70500 0.85640 0.76400 0.09200
H 	H 	0.76560 0.94240 0.64050 0.11500
C 	C 	0.18230 0.28900 0.45460 -0.01900
H 	H 	0.09940 0.23400 0.43040 -0.03800
H 	H 	0.16710 0.32590 0.30010 -0.04600
N 	N 	0.18920 0.39090 0.61980 -0.29400
H 	H 	0.20500 0.35640 0.76400 0.06000
H 	H 	0.26560 0.44240 0.64050 0.07300
C 	C 	0.31770 0.78900 0.04540 -0.14900
H 	H 	0.40060 0.73400 0.06960 0.02900
H 	H 	0.33290 0.82590 0.19990 0.02000
N 	N 	0.31080 0.89090 0.88020 -0.24200
H 	H 	0.29500 0.85640 0.73600 0.06800
H 	H 	0.23440 0.94240 0.85950 0.08900
C 	C 	0.81770 0.28900 0.04540 -0.15400
H 	H 	0.90060 0.23400 0.06960 0.04500
H 	H 	0.83290 0.32590 0.19990 0.02400
N 	N 	0.81080 0.39090 0.88020 -0.24000
H 	H 	0.79500 0.35640 0.73600 0.06600
H 	H 	0.73440 0.44240 0.85950 0.07500
Ag	Ag	0.50000 0.00000 0.50000 0.41200
Ag	Ag	0.00000 0.50000 0.50000 0.41300
Ag	Ag	0.50000 0.00000 -0.00000 0.39300
Ag	Ag	-0.00000 0.50000 -0.00000 0.39400
