data_crystal

_cell_length_a 10.41800
_cell_length_b 10.52100
_cell_length_c 6.28700
_cell_angle_alpha 90.00000
_cell_angle_beta  115.16000
_cell_angle_gamma 90.00000

_symmetry_space_group_name_	'P 1'
_symmetry_space_group_name_H-M	'P 1'

loop_
_symmetry_equiv_pos_as_xyz
  x,y,z

loop_
_atom_site_label
_atom_site_type_symbol
_atom_site_fract_x
_atom_site_fract_y
_atom_site_fract_z
_atom_site_charge
N 	N 	0.31270 0.10980 0.38160 -0.26200
H 	H 	0.30760 0.16920 0.26430 0.03700
H 	H 	0.22650 0.05430 0.33470 0.00600
C 	C 	0.31650 0.21060 0.54640 -0.07900
H 	H 	0.39710 0.26540 0.57590 0.01500
H 	H 	0.32940 0.17250 0.69470 -0.01500
N 	N 	0.81270 0.60980 0.38160 -0.24400
H 	H 	0.80760 0.66920 0.26430 0.06700
H 	H 	0.72650 0.55430 0.33470 0.04900
C 	C 	0.81650 0.71060 0.54640 -0.08600
H 	H 	0.89710 0.76540 0.57590 0.05400
H 	H 	0.82940 0.67250 0.69470 0.02100
N 	N 	0.68730 0.10980 0.11840 -0.29300
H 	H 	0.69240 0.16920 0.23570 0.05100
H 	H 	0.77350 0.05430 0.16530 0.03300
C 	C 	0.68350 0.21060 0.95360 0.06200
H 	H 	0.60290 0.26540 0.92410 -0.02000
H 	H 	0.67060 0.17250 0.80530 -0.05200
N 	N 	0.18730 0.60980 0.11840 -0.29400
H 	H 	0.19240 0.66920 0.23570 0.05100
H 	H 	0.27350 0.55430 0.16530 0.04600
C 	C 	0.18350 0.71060 0.95360 0.06700
H 	H 	0.10290 0.76540 0.92410 -0.03600
H 	H 	0.17060 0.67250 0.80530 -0.05500
N 	N 	0.68730 0.89020 0.61840 -0.25500
H 	H 	0.69240 0.83080 0.73570 0.08000
H 	H 	0.77350 0.94570 0.66530 0.09800
C 	C 	0.68350 0.78940 0.45360 -0.03100
H 	H 	0.60290 0.73460 0.42410 0.00300
H 	H 	0.67060 0.82750 0.30530 -0.00300
N 	N 	0.18730 0.39020 0.61840 -0.27300
H 	H 	0.19240 0.33080 0.73570 0.05200
H 	H 	0.27350 0.44570 0.66530 0.05400
C 	C 	0.18350 0.28940 0.45360 -0.02300
H 	H 	0.10290 0.23460 0.42410 -0.03600
H 	H 	0.17060 0.32750 0.30530 -0.04100
N 	N 	0.31270 0.89020 0.88160 -0.22000
H 	H 	0.30760 0.83080 0.76430 0.06600
H 	H 	0.22650 0.94570 0.83470 0.07100
C 	C 	0.31650 0.78940 0.04640 -0.17100
H 	H 	0.39710 0.73460 0.07590 0.03800
H 	H 	0.32940 0.82750 0.19470 0.03200
N 	N 	0.81270 0.39020 0.88160 -0.22100
H 	H 	0.80760 0.33080 0.76430 0.06700
H 	H 	0.72650 0.44570 0.83470 0.05700
C 	C 	0.81650 0.28940 0.04640 -0.17600
H 	H 	0.89710 0.23460 0.07590 0.05400
H 	H 	0.82940 0.32750 0.19470 0.03400
Ag	Ag	0.50000 -0.00000 0.50000 0.41300
Ag	Ag	0.00000 0.50000 0.50000 0.41500
Ag	Ag	0.50000 0.00000 -0.00000 0.39600
Ag	Ag	-0.00000 0.50000 -0.00000 0.39700
