data_crystal

_cell_length_a 20.79600
_cell_length_b 19.48500
_cell_length_c 5.97200
_cell_angle_alpha 90.00000
_cell_angle_beta  114.09600
_cell_angle_gamma 90.00000

_symmetry_space_group_name_	'P 1'
_symmetry_space_group_name_H-M	'P 1'

loop_
_symmetry_equiv_pos_as_xyz
  x,y,z

loop_
_atom_site_label
_atom_site_type_symbol
_atom_site_fract_x
_atom_site_fract_y
_atom_site_fract_z
_atom_site_charge
N 	N 	0.61200 0.04020 0.15100 -0.32600
H 	H 	0.62810 0.05130 0.31070 0.06800
H 	H 	0.64190 0.01080 0.12620 0.05500
N 	N 	0.65200 0.20110 0.88000 -0.25900
H 	H 	0.61870 0.22990 0.88750 0.07900
H 	H 	0.63780 0.18620 0.72450 0.06400
N 	N 	0.84100 0.19610 0.61000 -0.31000
H 	H 	0.87670 0.22480 0.62800 0.08600
H 	H 	0.85010 0.17660 0.75650 0.07800
N 	N 	0.90680 0.05500 0.38100 -0.27700
H 	H 	0.89720 0.07190 0.23080 0.05600
H 	H 	0.87150 0.02640 0.36920 0.05400
C 	C 	0.59740 0.10030 0.99300 0.16000
H 	H 	0.56190 0.12830 0.01570 -0.09500
H 	H 	0.57890 0.08590 0.82300 -0.08900
C 	C 	0.66320 0.14250 0.05100 -0.19700
H 	H 	0.67930 0.15990 0.21750 0.01100
H 	H 	0.69990 0.11320 0.04340 0.02800
C 	C 	0.83640 0.14300 0.43300 -0.01000
H 	H 	0.82690 0.16240 0.27270 -0.04400
H 	H 	0.80050 0.10940 0.41770 -0.01700
C 	C 	0.90940 0.11240 0.54800 -0.08300
H 	H 	0.94480 0.14580 0.55590 0.03100
H 	H 	0.91960 0.09580 0.71210 0.00300
N 	N 	0.11200 0.54020 0.15100 -0.33300
H 	H 	0.12810 0.55130 0.31070 0.07900
H 	H 	0.14190 0.51080 0.12620 0.07700
N 	N 	0.15200 0.70110 0.88000 -0.25500
H 	H 	0.11870 0.72990 0.88750 0.07200
H 	H 	0.13780 0.68620 0.72450 0.06100
N 	N 	0.34100 0.69610 0.61000 -0.30600
H 	H 	0.37670 0.72480 0.62800 0.08000
H 	H 	0.35010 0.67660 0.75650 0.07600
N 	N 	0.40680 0.55500 0.38100 -0.29300
H 	H 	0.39720 0.57190 0.23080 0.05700
H 	H 	0.37150 0.52640 0.36920 0.07000
C 	C 	0.09740 0.60030 0.99300 0.17400
H 	H 	0.06190 0.62830 0.01570 -0.10900
H 	H 	0.07890 0.58590 0.82300 -0.09400
C 	C 	0.16320 0.64250 0.05100 -0.20800
H 	H 	0.17930 0.65990 0.21750 0.01500
H 	H 	0.19990 0.61320 0.04340 0.03700
C 	C 	0.33640 0.64300 0.43300 -0.02300
H 	H 	0.32690 0.66240 0.27270 -0.04000
H 	H 	0.30050 0.60940 0.41770 -0.00700
C 	C 	0.40940 0.61240 0.54800 -0.06500
H 	H 	0.44480 0.64580 0.55590 0.00900
H 	H 	0.41960 0.59580 0.71210 -0.01000
N 	N 	0.38800 0.04020 0.34900 -0.28200
H 	H 	0.37190 0.05130 0.18930 0.05000
H 	H 	0.35810 0.01080 0.37380 0.05300
N 	N 	0.34800 0.20110 0.62000 -0.29800
H 	H 	0.38130 0.22990 0.61250 0.07900
H 	H 	0.36220 0.18620 0.77550 0.07800
N 	N 	0.15900 0.19610 0.89000 -0.26800
H 	H 	0.12330 0.22480 0.87200 0.07100
H 	H 	0.14990 0.17660 0.74350 0.05900
N 	N 	0.09320 0.05500 0.11900 -0.32400
H 	H 	0.10280 0.07190 0.26920 0.05700
H 	H 	0.12850 0.02640 0.13080 0.05300
C 	C 	0.40260 0.10030 0.50700 -0.05000
H 	H 	0.43810 0.12830 0.48430 -0.00800
H 	H 	0.42110 0.08590 0.67700 -0.02600
C 	C 	0.33680 0.14250 0.44900 -0.04000
H 	H 	0.32070 0.15990 0.28250 -0.03600
H 	H 	0.30010 0.11320 0.45660 -0.00800
C 	C 	0.16360 0.14300 0.06700 -0.14500
H 	H 	0.17310 0.16240 0.22730 -0.00500
H 	H 	0.19950 0.10940 0.08230 0.01700
C 	C 	0.09060 0.11240 0.95200 0.05800
H 	H 	0.05520 0.14580 0.94410 -0.03500
H 	H 	0.08040 0.09580 0.78790 -0.06200
N 	N 	0.88800 0.54020 0.34900 -0.27500
H 	H 	0.87190 0.55130 0.18930 0.06800
H 	H 	0.85810 0.51080 0.37380 0.07800
N 	N 	0.84800 0.70110 0.62000 -0.30200
H 	H 	0.88130 0.72990 0.61250 0.08700
H 	H 	0.86220 0.68620 0.77550 0.08500
N 	N 	0.65900 0.69610 0.89000 -0.27100
H 	H 	0.62330 0.72480 0.87200 0.07800
H 	H 	0.64990 0.67660 0.74350 0.06500
N 	N 	0.59320 0.55500 0.11900 -0.32400
H 	H 	0.60280 0.57190 0.26920 0.06900
H 	H 	0.62850 0.52640 0.13080 0.07200
C 	C 	0.90260 0.60030 0.50700 -0.06000
H 	H 	0.93810 0.62830 0.48430 0.01300
H 	H 	0.92110 0.58590 0.67700 -0.00200
C 	C 	0.83680 0.64250 0.44900 -0.03200
H 	H 	0.82070 0.65990 0.28250 -0.03600
H 	H 	0.80010 0.61320 0.45660 -0.00400
C 	C 	0.66360 0.64300 0.06700 -0.14400
H 	H 	0.67310 0.66240 0.22730 -0.00300
H 	H 	0.69950 0.60940 0.08230 0.02300
C 	C 	0.59060 0.61240 0.95200 0.05500
H 	H 	0.55520 0.64580 0.94410 -0.01800
H 	H 	0.58040 0.59580 0.78790 -0.04800
N 	N 	0.38800 0.95980 0.84900 -0.24300
H 	H 	0.37190 0.94870 0.68930 0.08400
H 	H 	0.35810 0.98920 0.87380 0.10700
N 	N 	0.34800 0.79890 0.12000 -0.32500
H 	H 	0.38130 0.77010 0.11250 0.06900
H 	H 	0.36220 0.81380 0.27550 0.07400
N 	N 	0.15900 0.80390 0.39000 -0.29500
H 	H 	0.12330 0.77520 0.37200 0.06600
H 	H 	0.14990 0.82340 0.24350 0.05900
N 	N 	0.09320 0.94500 0.61900 -0.29900
H 	H 	0.10280 0.92810 0.76920 0.08500
H 	H 	0.12850 0.97360 0.63080 0.10100
C 	C 	0.40260 0.89970 0.00700 -0.22600
H 	H 	0.43810 0.87170 0.98430 0.07300
H 	H 	0.42110 0.91410 0.17700 0.03200
C 	C 	0.33680 0.85750 0.94900 0.09000
H 	H 	0.32070 0.84010 0.78250 -0.06300
H 	H 	0.30010 0.88680 0.95660 -0.02100
C 	C 	0.16360 0.85700 0.56700 -0.05300
H 	H 	0.17310 0.83760 0.72730 -0.01900
H 	H 	0.19950 0.89060 0.58230 0.01400
C 	C 	0.09060 0.88760 0.45200 -0.03200
H 	H 	0.05520 0.85420 0.44410 -0.01400
H 	H 	0.08040 0.90420 0.28790 -0.02500
N 	N 	0.88800 0.45980 0.84900 -0.23800
H 	H 	0.87190 0.44870 0.68930 0.07100
H 	H 	0.85810 0.48920 0.87380 0.08400
N 	N 	0.84800 0.29890 0.12000 -0.32900
H 	H 	0.88130 0.27010 0.11250 0.07700
H 	H 	0.86220 0.31380 0.27550 0.07700
N 	N 	0.65900 0.30390 0.39000 -0.29800
H 	H 	0.62330 0.27520 0.37200 0.07200
H 	H 	0.64990 0.32340 0.24350 0.05900
N 	N 	0.59320 0.44500 0.61900 -0.30200
H 	H 	0.60280 0.42810 0.76920 0.07600
H 	H 	0.62850 0.47360 0.63080 0.08000
C 	C 	0.90260 0.39970 0.00700 -0.23600
H 	H 	0.93810 0.37170 0.98430 0.08600
H 	H 	0.92110 0.41410 0.17700 0.03600
C 	C 	0.83680 0.35750 0.94900 0.09700
H 	H 	0.82070 0.34010 0.78250 -0.06600
H 	H 	0.80010 0.38680 0.95660 -0.03000
C 	C 	0.66360 0.35700 0.56700 -0.04300
H 	H 	0.67310 0.33760 0.72730 -0.02200
H 	H 	0.69950 0.39060 0.58230 0.00400
C 	C 	0.59060 0.38760 0.45200 -0.04400
H 	H 	0.55520 0.35420 0.44410 0.00100
H 	H 	0.58040 0.40420 0.28790 -0.02700
N 	N 	0.61200 0.95980 0.65100 -0.29100
H 	H 	0.62810 0.94870 0.81070 0.10100
H 	H 	0.64190 0.98920 0.62620 0.10800
N 	N 	0.65200 0.79890 0.38000 -0.28900
H 	H 	0.61870 0.77010 0.38750 0.06900
H 	H 	0.63780 0.81380 0.22450 0.06100
N 	N 	0.84100 0.80390 0.11000 -0.33300
H 	H 	0.87670 0.77520 0.12800 0.08100
H 	H 	0.85010 0.82340 0.25650 0.07700
N 	N 	0.90680 0.94500 0.88100 -0.25100
H 	H 	0.89720 0.92810 0.73080 0.08300
H 	H 	0.87150 0.97360 0.86920 0.10000
C 	C 	0.59740 0.89970 0.49300 -0.01700
H 	H 	0.56190 0.87170 0.51570 -0.01500
H 	H 	0.57890 0.91410 0.32300 -0.02900
C 	C 	0.66320 0.85750 0.55100 -0.06900
H 	H 	0.67930 0.84010 0.71750 -0.01400
H 	H 	0.69990 0.88680 0.54340 0.01500
C 	C 	0.83640 0.85700 0.93300 0.08000
H 	H 	0.82690 0.83760 0.77270 -0.05800
H 	H 	0.80050 0.89060 0.91770 -0.02000
C 	C 	0.90940 0.88760 0.04800 -0.16900
H 	H 	0.94480 0.85420 0.05590 0.05100
H 	H 	0.91960 0.90420 0.21210 0.03700
N 	N 	0.11200 0.45980 0.65100 -0.29800
H 	H 	0.12810 0.44870 0.81070 0.08300
H 	H 	0.14190 0.48920 0.62620 0.08400
N 	N 	0.15200 0.29890 0.38000 -0.28500
H 	H 	0.11870 0.27010 0.38750 0.06100
H 	H 	0.13780 0.31380 0.22450 0.05300
N 	N 	0.34100 0.30390 0.11000 -0.33000
H 	H 	0.37670 0.27520 0.12800 0.07400
H 	H 	0.35010 0.32340 0.25650 0.07000
N 	N 	0.40680 0.44500 0.88100 -0.26700
H 	H 	0.39720 0.42810 0.73080 0.06400
H 	H 	0.37150 0.47360 0.86920 0.07800
C 	C 	0.09740 0.39970 0.49300 -0.00700
H 	H 	0.06190 0.37170 0.51570 -0.03500
H 	H 	0.07890 0.41410 0.32300 -0.05400
C 	C 	0.16320 0.35750 0.55100 -0.07700
H 	H 	0.17930 0.34010 0.71750 -0.01400
H 	H 	0.19990 0.38680 0.54340 0.01000
C 	C 	0.33640 0.35700 0.93300 0.08000
H 	H 	0.32690 0.33760 0.77270 -0.06100
H 	H 	0.30050 0.39060 0.91770 -0.02600
C 	C 	0.40940 0.38760 0.04800 -0.16500
H 	H 	0.44480 0.35420 0.05590 0.02800
H 	H 	0.41960 0.40420 0.21210 0.00900
Ag	Ag	0.50000 0.00000 -0.00000 0.39600
Ag	Ag	-0.00000 0.50000 -0.00000 0.39700
Ag	Ag	0.50000 0.00000 0.50000 0.41600
Ag	Ag	0.00000 0.50000 0.50000 0.41600
Ag	Ag	0.75000 0.25000 -0.00000 0.43900
Ag	Ag	0.25000 0.25000 0.50000 0.45800
Ag	Ag	0.25000 0.75000 -0.00000 0.44000
Ag	Ag	0.75000 0.75000 0.50000 0.46000
Ag	Ag	0.75000 0.25000 0.50000 0.46200
Ag	Ag	0.25000 0.25000 -0.00000 0.44100
Ag	Ag	0.25000 0.75000 0.50000 0.46200
Ag	Ag	0.75000 0.75000 -0.00000 0.44400
Ag	Ag	0.00000 0.00000 0.50000 0.40000
Ag	Ag	0.50000 0.50000 0.50000 0.45400
Ag	Ag	-0.00000 0.00000 -0.00000 0.38200
Ag	Ag	0.50000 0.50000 -0.00000 0.43400
