data_crystal

_cell_length_a 10.42550
_cell_length_b 10.53010
_cell_length_c 6.29430
_cell_angle_alpha 90.00000
_cell_angle_beta  115.13500
_cell_angle_gamma 90.00000

_symmetry_space_group_name_	'P 1'
_symmetry_space_group_name_H-M	'P 1'

loop_
_symmetry_equiv_pos_as_xyz
  x,y,z

loop_
_atom_site_label
_atom_site_type_symbol
_atom_site_fract_x
_atom_site_fract_y
_atom_site_fract_z
_atom_site_charge
C 	C 	0.31660 0.21040 0.54610 -0.07500
H 	H 	0.39740 0.26510 0.57670 0.01100
H 	H 	0.32910 0.17170 0.69350 -0.01900
N 	N 	0.31250 0.11040 0.38110 -0.28100
H 	H 	0.29810 0.14640 0.24310 0.03900
H 	H 	0.23860 0.05880 0.35580 0.03100
C 	C 	0.81660 0.71040 0.54610 -0.08000
H 	H 	0.89740 0.76510 0.57670 0.05000
H 	H 	0.82910 0.67170 0.69350 0.01600
N 	N 	0.81250 0.61040 0.38110 -0.27200
H 	H 	0.79810 0.64640 0.24310 0.07200
H 	H 	0.73860 0.55880 0.35580 0.07200
C 	C 	0.68340 0.21040 0.95390 0.06800
H 	H 	0.60260 0.26510 0.92330 -0.02400
H 	H 	0.67090 0.17170 0.80650 -0.05700
N 	N 	0.68750 0.11040 0.11890 -0.32300
H 	H 	0.70190 0.14640 0.25690 0.06300
H 	H 	0.76140 0.05880 0.14420 0.05800
C 	C 	0.18340 0.71040 0.95390 0.07300
H 	H 	0.10260 0.76510 0.92330 -0.04000
H 	H 	0.17090 0.67170 0.80650 -0.05900
N 	N 	0.18750 0.61040 0.11890 -0.32600
H 	H 	0.20190 0.64640 0.25690 0.06500
H 	H 	0.26140 0.55880 0.14420 0.07100
C 	C 	0.68340 0.78960 0.45390 -0.01700
H 	H 	0.60260 0.73490 0.42330 -0.00200
H 	H 	0.67090 0.82830 0.30650 -0.01000
N 	N 	0.68750 0.88960 0.61890 -0.29500
H 	H 	0.70190 0.85360 0.75690 0.09700
H 	H 	0.76140 0.94120 0.64420 0.12100
C 	C 	0.18340 0.28960 0.45390 -0.01300
H 	H 	0.10260 0.23490 0.42330 -0.04100
H 	H 	0.17090 0.32830 0.30650 -0.04700
N 	N 	0.18750 0.38960 0.61890 -0.30500
H 	H 	0.20190 0.35360 0.75690 0.06500
H 	H 	0.26140 0.44120 0.64420 0.07900
C 	C 	0.31660 0.78960 0.04610 -0.16100
H 	H 	0.39740 0.73490 0.07670 0.03300
H 	H 	0.32910 0.82830 0.19350 0.02500
N 	N 	0.31250 0.88960 0.88110 -0.25100
H 	H 	0.29810 0.85360 0.74310 0.07400
H 	H 	0.23860 0.94120 0.85580 0.09400
C 	C 	0.81660 0.28960 0.04610 -0.16600
H 	H 	0.89740 0.23490 0.07670 0.04900
H 	H 	0.82910 0.32830 0.19350 0.02700
N 	N 	0.81250 0.38960 0.88110 -0.24800
H 	H 	0.79810 0.35360 0.74310 0.07100
H 	H 	0.73860 0.44120 0.85580 0.08000
Ag	Ag	0.50000 -0.00000 0.50000 0.41000
Ag	Ag	0.00000 0.50000 0.50000 0.41200
Ag	Ag	0.50000 0.00000 -0.00000 0.39200
Ag	Ag	-0.00000 0.50000 -0.00000 0.39400
