data_crystal

_cell_length_a 10.63200
_cell_length_b 10.21900
_cell_length_c 6.11500
_cell_angle_alpha 90.00000
_cell_angle_beta  114.46000
_cell_angle_gamma 90.00000

_symmetry_space_group_name_	'P 1'
_symmetry_space_group_name_H-M	'P 1'

loop_
_symmetry_equiv_pos_as_xyz
  x,y,z

loop_
_atom_site_label
_atom_site_type_symbol
_atom_site_fract_x
_atom_site_fract_y
_atom_site_fract_z
_atom_site_charge
C 	C 	0.31500 0.21390 0.53600 -0.08000
H 	H 	0.34370 0.18200 0.69860 -0.01800
H 	H 	0.38610 0.27200 0.53210 0.00900
N 	N 	0.29800 0.10300 0.37300 -0.27600
H 	H 	0.27300 0.13180 0.22140 0.03700
H 	H 	0.23210 0.04830 0.37490 0.03200
C 	C 	0.81500 0.71390 0.53600 -0.08300
H 	H 	0.84370 0.68200 0.69860 0.01700
H 	H 	0.88610 0.77200 0.53210 0.04700
N 	N 	0.79800 0.60300 0.37300 -0.26800
H 	H 	0.77300 0.63180 0.22140 0.07100
H 	H 	0.73210 0.54830 0.37490 0.07500
C 	C 	0.68500 0.21390 0.96400 0.07200
H 	H 	0.65630 0.18200 0.80140 -0.06100
H 	H 	0.61390 0.27200 0.96790 -0.02700
N 	N 	0.70200 0.10300 0.12700 -0.31800
H 	H 	0.72700 0.13180 0.27860 0.06400
H 	H 	0.76790 0.04830 0.12510 0.05700
C 	C 	0.18500 0.71390 0.96400 0.07800
H 	H 	0.15630 0.68200 0.80140 -0.06500
H 	H 	0.11390 0.77200 0.96790 -0.03900
N 	N 	0.20200 0.60300 0.12700 -0.32100
H 	H 	0.22700 0.63180 0.27860 0.07000
H 	H 	0.26790 0.54830 0.12510 0.07200
C 	C 	0.68500 0.78610 0.46400 -0.01000
H 	H 	0.65630 0.81800 0.30140 -0.01700
H 	H 	0.61390 0.72800 0.46790 -0.00500
N 	N 	0.70200 0.89700 0.62700 -0.29300
H 	H 	0.72700 0.86820 0.77860 0.10300
H 	H 	0.76790 0.95170 0.62510 0.12200
C 	C 	0.18500 0.28610 0.46400 -0.00600
H 	H 	0.15630 0.31800 0.30140 -0.05300
H 	H 	0.11390 0.22800 0.46790 -0.04300
N 	N 	0.20200 0.39700 0.62700 -0.30100
H 	H 	0.22700 0.36820 0.77860 0.07000
H 	H 	0.26790 0.45170 0.62510 0.08000
C 	C 	0.31500 0.78610 0.03600 -0.16100
H 	H 	0.34370 0.81800 0.19860 0.02400
H 	H 	0.38610 0.72800 0.03210 0.03100
N 	N 	0.29800 0.89700 0.87300 -0.24900
H 	H 	0.27300 0.86820 0.72140 0.07600
H 	H 	0.23210 0.95170 0.87490 0.09800
C 	C 	0.81500 0.28610 0.03600 -0.16700
H 	H 	0.84370 0.31800 0.19860 0.02900
H 	H 	0.88610 0.22800 0.03210 0.04400
N 	N 	0.79800 0.39700 0.87300 -0.24600
H 	H 	0.77300 0.36820 0.72140 0.07100
H 	H 	0.73210 0.45170 0.87490 0.08200
Ag	Ag	0.50000 0.00000 0.50000 0.40200
Ag	Ag	0.00000 0.50000 0.50000 0.40200
Ag	Ag	0.50000 0.00000 -0.00000 0.38600
Ag	Ag	0.00000 0.50000 -0.00000 0.38600
