data_crystal

_cell_length_a 10.36120
_cell_length_b 10.56860
_cell_length_c 6.26690
_cell_angle_alpha 90.00000
_cell_angle_beta  114.90700
_cell_angle_gamma 90.00000

_symmetry_space_group_name_	'P 1'
_symmetry_space_group_name_H-M	'P 1'

loop_
_symmetry_equiv_pos_as_xyz
  x,y,z

loop_
_atom_site_label
_atom_site_type_symbol
_atom_site_fract_x
_atom_site_fract_y
_atom_site_fract_z
_atom_site_charge
C 	C 	0.31670 0.21060 0.54520 -0.07400
H 	H 	0.39850 0.26560 0.57320 0.01000
H 	H 	0.33050 0.17260 0.69590 -0.02000
N 	N 	0.31190 0.10990 0.38080 -0.27700
H 	H 	0.29680 0.14530 0.23990 0.03600
H 	H 	0.23690 0.05810 0.35730 0.02700
C 	C 	0.81670 0.71060 0.54520 -0.07600
H 	H 	0.89850 0.76560 0.57320 0.04900
H 	H 	0.83050 0.67260 0.69590 0.01500
N 	N 	0.81190 0.60990 0.38080 -0.26700
H 	H 	0.79680 0.64530 0.23990 0.06900
H 	H 	0.73690 0.55810 0.35730 0.06900
C 	C 	0.68330 0.21060 0.95480 0.06400
H 	H 	0.60150 0.26560 0.92680 -0.02100
H 	H 	0.66950 0.17260 0.80410 -0.05400
N 	N 	0.68810 0.10990 0.11920 -0.31700
H 	H 	0.70320 0.14530 0.26010 0.06000
H 	H 	0.76310 0.05810 0.14270 0.05400
C 	C 	0.18330 0.71060 0.95480 0.06900
H 	H 	0.10150 0.76560 0.92680 -0.03700
H 	H 	0.16950 0.67260 0.80410 -0.05800
N 	N 	0.18810 0.60990 0.11920 -0.32000
H 	H 	0.20320 0.64530 0.26010 0.06200
H 	H 	0.26310 0.55810 0.14270 0.06800
C 	C 	0.68330 0.78940 0.45480 -0.01900
H 	H 	0.60150 0.73440 0.42680 -0.00100
H 	H 	0.66950 0.82740 0.30410 -0.01000
N 	N 	0.68810 0.89010 0.61920 -0.28900
H 	H 	0.70320 0.85470 0.76010 0.09500
H 	H 	0.76310 0.94190 0.64270 0.11800
C 	C 	0.18330 0.28940 0.45480 -0.01500
H 	H 	0.10150 0.23440 0.42680 -0.04000
H 	H 	0.16950 0.32740 0.30410 -0.04700
N 	N 	0.18810 0.39010 0.61920 -0.29900
H 	H 	0.20320 0.35470 0.76010 0.06200
H 	H 	0.26310 0.44190 0.64270 0.07500
C 	C 	0.31670 0.78940 0.04520 -0.15500
H 	H 	0.39850 0.73440 0.07320 0.03100
H 	H 	0.33050 0.82740 0.19590 0.02300
N 	N 	0.31190 0.89010 0.88080 -0.24600
H 	H 	0.29680 0.85470 0.73990 0.07100
H 	H 	0.23690 0.94190 0.85730 0.09100
C 	C 	0.81670 0.28940 0.04520 -0.15900
H 	H 	0.89850 0.23440 0.07320 0.04700
H 	H 	0.83050 0.32740 0.19590 0.02500
N 	N 	0.81190 0.39010 0.88080 -0.24400
H 	H 	0.79680 0.35470 0.73990 0.06800
H 	H 	0.73690 0.44190 0.85730 0.07700
Ag	Ag	0.50000 0.00000 0.50000 0.41100
Ag	Ag	0.00000 0.50000 0.50000 0.41200
Ag	Ag	0.50000 0.00000 -0.00000 0.39300
Ag	Ag	-0.00000 0.50000 -0.00000 0.39400
