data_crystal

_cell_length_a 10.57400
_cell_length_b 10.34500
_cell_length_c 6.16600
_cell_angle_alpha 90.00000
_cell_angle_beta  114.85000
_cell_angle_gamma 90.00000

_symmetry_space_group_name_	'P 1'
_symmetry_space_group_name_H-M	'P 1'

loop_
_symmetry_equiv_pos_as_xyz
  x,y,z

loop_
_atom_site_label
_atom_site_type_symbol
_atom_site_fract_x
_atom_site_fract_y
_atom_site_fract_z
_atom_site_charge
C 	C 	0.31610 0.21170 0.54800 -0.07500
H 	H 	0.33230 0.17570 0.70260 -0.01900
H 	H 	0.39420 0.26720 0.56760 0.00900
N 	N 	0.30390 0.10730 0.37930 -0.27800
H 	H 	0.28290 0.14080 0.23350 0.03900
H 	H 	0.23470 0.05340 0.36830 0.03200
C 	C 	0.81610 0.71170 0.54800 -0.07900
H 	H 	0.83230 0.67570 0.70260 0.01500
H 	H 	0.89420 0.76720 0.56760 0.04800
N 	N 	0.80390 0.60730 0.37930 -0.27000
H 	H 	0.78290 0.64080 0.23350 0.07200
H 	H 	0.73470 0.55340 0.36830 0.07400
C 	C 	0.68390 0.21170 0.95200 0.06900
H 	H 	0.66770 0.17570 0.79740 -0.05900
H 	H 	0.60580 0.26720 0.93240 -0.02600
N 	N 	0.69610 0.10730 0.12070 -0.32000
H 	H 	0.71710 0.14080 0.26650 0.06500
H 	H 	0.76530 0.05340 0.13170 0.05800
C 	C 	0.18390 0.71170 0.95200 0.07400
H 	H 	0.16770 0.67570 0.79740 -0.06200
H 	H 	0.10580 0.76720 0.93240 -0.04100
N 	N 	0.19610 0.60730 0.12070 -0.32300
H 	H 	0.21710 0.64080 0.26650 0.06900
H 	H 	0.26530 0.55340 0.13170 0.07200
C 	C 	0.68390 0.78830 0.45200 -0.01500
H 	H 	0.66770 0.82430 0.29740 -0.01400
H 	H 	0.60580 0.73280 0.43240 -0.00400
N 	N 	0.69610 0.89270 0.62070 -0.29400
H 	H 	0.71710 0.85920 0.76650 0.10100
H 	H 	0.76530 0.94660 0.63170 0.12200
C 	C 	0.18390 0.28830 0.45200 -0.01000
H 	H 	0.16770 0.32430 0.29740 -0.05000
H 	H 	0.10580 0.23280 0.43240 -0.04300
N 	N 	0.19610 0.39270 0.62070 -0.30300
H 	H 	0.21710 0.35920 0.76650 0.06900
H 	H 	0.26530 0.44660 0.63170 0.08000
C 	C 	0.31610 0.78830 0.04800 -0.15900
H 	H 	0.33230 0.82430 0.20260 0.02400
H 	H 	0.39420 0.73280 0.06760 0.03100
N 	N 	0.30390 0.89270 0.87930 -0.25000
H 	H 	0.28290 0.85920 0.73350 0.07600
H 	H 	0.23470 0.94660 0.86830 0.09600
C 	C 	0.81610 0.28830 0.04800 -0.16400
H 	H 	0.83230 0.32430 0.20260 0.02600
H 	H 	0.89420 0.23280 0.06760 0.04600
N 	N 	0.80390 0.39270 0.87930 -0.24700
H 	H 	0.78290 0.35920 0.73350 0.07200
H 	H 	0.73470 0.44660 0.86830 0.08100
Ag	Ag	0.50000 0.00000 0.50000 0.40500
Ag	Ag	0.00000 0.50000 0.50000 0.40500
Ag	Ag	0.50000 0.00000 -0.00000 0.38700
Ag	Ag	-0.00000 0.50000 -0.00000 0.38800
