data_crystal

_cell_length_a 19.20200
_cell_length_b 21.01200
_cell_length_c 6.27700
_cell_angle_alpha 90.00000
_cell_angle_beta  101.01100
_cell_angle_gamma 90.00000

_symmetry_space_group_name_	'P 1'
_symmetry_space_group_name_H-M	'P 1'

loop_
_symmetry_equiv_pos_as_xyz
  x,y,z

loop_
_atom_site_label
_atom_site_type_symbol
_atom_site_fract_x
_atom_site_fract_y
_atom_site_fract_z
_atom_site_charge
N 	N 	0.59420 0.94530 0.07120 -0.33800
H 	H 	0.60220 0.92740 0.94780 0.13300
H 	H 	0.63090 0.97120 0.12200 0.09000
N 	N 	0.65760 0.80550 0.43410 -0.29700
H 	H 	0.62030 0.77960 0.39010 0.06900
H 	H 	0.65140 0.82430 0.55800 0.07400
C 	C 	0.59110 0.89540 0.22980 -0.03500
H 	H 	0.55030 0.86840 0.17900 -0.00900
H 	H 	0.58520 0.91450 0.36590 -0.00900
C 	C 	0.65760 0.85550 0.26700 -0.05300
H 	H 	0.66250 0.83540 0.13140 -0.03300
H 	H 	0.69840 0.88290 0.31170 0.00800
N 	N 	0.84410 0.80510 0.06940 -0.34800
H 	H 	0.88100 0.77910 0.11850 0.07800
H 	H 	0.85170 0.82300 0.94550 0.13000
N 	N 	0.90730 0.94440 0.43600 -0.27500
H 	H 	0.90110 0.92590 0.56030 0.09000
H 	H 	0.86990 0.97010 0.39090 0.09300
C 	C 	0.84240 0.85490 0.22810 -0.01700
H 	H 	0.83580 0.83570 0.36340 -0.02500
H 	H 	0.80210 0.88240 0.17740 -0.01200
C 	C 	0.90820 0.89400 0.26930 -0.07300
H 	H 	0.91430 0.91390 0.13450 -0.00100
H 	H 	0.94870 0.86640 0.31700 0.03100
N 	N 	0.09420 0.44530 0.07120 -0.34900
H 	H 	0.10220 0.42740 0.94780 0.11900
H 	H 	0.13090 0.47120 0.12200 0.06900
N 	N 	0.15760 0.30550 0.43410 -0.29200
H 	H 	0.12030 0.27960 0.39010 0.06100
H 	H 	0.15140 0.32430 0.55800 0.06700
C 	C 	0.09110 0.39540 0.22980 -0.02200
H 	H 	0.05030 0.36840 0.17900 -0.03400
H 	H 	0.08520 0.41450 0.36590 -0.03400
C 	C 	0.15760 0.35550 0.26700 -0.06300
H 	H 	0.16250 0.33540 0.13140 -0.03400
H 	H 	0.19840 0.38290 0.31170 0.00400
N 	N 	0.34410 0.30510 0.06940 -0.34500
H 	H 	0.38100 0.27910 0.11850 0.06800
H 	H 	0.35170 0.32300 0.94550 0.12300
N 	N 	0.40730 0.44440 0.43600 -0.29500
H 	H 	0.40110 0.42590 0.56030 0.07100
H 	H 	0.36990 0.47010 0.39090 0.06900
C 	C 	0.34240 0.35490 0.22810 -0.02900
H 	H 	0.33580 0.33570 0.36340 -0.02500
H 	H 	0.30210 0.38240 0.17740 -0.01600
C 	C 	0.40820 0.39400 0.26930 -0.05700
H 	H 	0.41430 0.41390 0.13450 -0.03400
H 	H 	0.44870 0.36640 0.31700 0.00300
N 	N 	0.40580 0.94530 0.42880 -0.29000
H 	H 	0.39780 0.92740 0.55220 0.08400
H 	H 	0.36910 0.97120 0.37800 0.09200
N 	N 	0.34240 0.80550 0.06590 -0.34300
H 	H 	0.37970 0.77960 0.10990 0.06800
H 	H 	0.34860 0.82430 0.94200 0.12400
C 	C 	0.40890 0.89540 0.27020 -0.03400
H 	H 	0.44970 0.86840 0.32100 -0.00000
H 	H 	0.41480 0.91450 0.13410 -0.02600
C 	C 	0.34240 0.85550 0.23300 -0.05500
H 	H 	0.33750 0.83540 0.36860 -0.01500
H 	H 	0.30160 0.88290 0.18830 0.00000
N 	N 	0.15590 0.80510 0.43060 -0.29300
H 	H 	0.11900 0.77910 0.38150 0.06200
H 	H 	0.14830 0.82300 0.55450 0.07100
N 	N 	0.09270 0.94440 0.06400 -0.33800
H 	H 	0.09890 0.92590 0.93970 0.12700
H 	H 	0.13010 0.97010 0.10910 0.08900
C 	C 	0.15760 0.85490 0.27190 -0.03900
H 	H 	0.16420 0.83570 0.13660 -0.03900
H 	H 	0.19790 0.88240 0.32260 0.00300
C 	C 	0.09180 0.89400 0.23070 -0.04600
H 	H 	0.08570 0.91390 0.36550 -0.01200
H 	H 	0.05130 0.86640 0.18300 -0.02100
N 	N 	0.90580 0.44530 0.42880 -0.28400
H 	H 	0.89780 0.42740 0.55220 0.08000
H 	H 	0.86910 0.47120 0.37800 0.07300
N 	N 	0.84240 0.30550 0.06590 -0.34700
H 	H 	0.87970 0.27960 0.10990 0.07600
H 	H 	0.84860 0.32430 0.94200 0.12600
C 	C 	0.90890 0.39540 0.27020 -0.05100
H 	H 	0.94970 0.36840 0.32100 0.02100
H 	H 	0.91480 0.41450 0.13410 -0.02200
C 	C 	0.84240 0.35550 0.23300 -0.04200
H 	H 	0.83750 0.33540 0.36860 -0.01800
H 	H 	0.80160 0.38290 0.18830 -0.00900
N 	N 	0.65590 0.30510 0.43060 -0.29700
H 	H 	0.61900 0.27910 0.38150 0.06900
H 	H 	0.64830 0.32300 0.55450 0.07200
N 	N 	0.59270 0.44440 0.06400 -0.34200
H 	H 	0.59890 0.42590 0.93970 0.12100
H 	H 	0.63010 0.47010 0.10910 0.06800
C 	C 	0.65760 0.35490 0.27190 -0.02900
H 	H 	0.66420 0.33570 0.13660 -0.04200
H 	H 	0.69790 0.38240 0.32260 -0.00500
C 	C 	0.59180 0.39400 0.23070 -0.05900
H 	H 	0.58570 0.41390 0.36550 -0.01600
H 	H 	0.55130 0.36640 0.18300 -0.00600
N 	N 	0.40580 0.05470 0.92880 -0.23700
H 	H 	0.39780 0.07260 0.05220 0.00000
H 	H 	0.36910 0.02880 0.87800 0.06100
N 	N 	0.34240 0.19450 0.56590 -0.29300
H 	H 	0.37970 0.22040 0.60990 0.07600
H 	H 	0.34860 0.17570 0.44200 0.05500
C 	C 	0.40890 0.10460 0.77020 -0.04000
H 	H 	0.44970 0.13160 0.82100 0.01100
H 	H 	0.41480 0.08550 0.63410 -0.03100
C 	C 	0.34240 0.14450 0.73300 -0.05700
H 	H 	0.33750 0.16460 0.86860 0.00100
H 	H 	0.30160 0.11710 0.68830 0.00300
N 	N 	0.15590 0.19490 0.93060 -0.23600
H 	H 	0.11900 0.22090 0.88150 0.07100
H 	H 	0.14830 0.17700 0.05450 0.00200
N 	N 	0.09270 0.05560 0.56400 -0.29400
H 	H 	0.09890 0.07410 0.43970 0.04600
H 	H 	0.13010 0.02990 0.60910 0.05800
C 	C 	0.15760 0.14510 0.77190 -0.04000
H 	H 	0.16420 0.16430 0.63660 -0.02700
H 	H 	0.19790 0.11760 0.82260 0.00700
C 	C 	0.09180 0.10600 0.73070 -0.05400
H 	H 	0.08570 0.08610 0.86550 -0.01300
H 	H 	0.05130 0.13360 0.68300 -0.01000
N 	N 	0.90580 0.55470 0.92880 -0.22900
H 	H 	0.89780 0.57260 0.05220 0.01800
H 	H 	0.86910 0.52880 0.87800 0.08200
N 	N 	0.84240 0.69450 0.56590 -0.29700
H 	H 	0.87970 0.72040 0.60990 0.08600
H 	H 	0.84860 0.67570 0.44200 0.06400
C 	C 	0.90890 0.60460 0.77020 -0.05400
H 	H 	0.94970 0.63160 0.82100 0.03600
H 	H 	0.91480 0.58550 0.63410 -0.00600
C 	C 	0.84240 0.64450 0.73300 -0.04700
H 	H 	0.83750 0.66460 0.86860 0.00100
H 	H 	0.80160 0.61710 0.68830 0.00600
N 	N 	0.65590 0.69490 0.93060 -0.24100
H 	H 	0.61900 0.72090 0.88150 0.08000
H 	H 	0.64830 0.67700 0.05450 0.01000
N 	N 	0.59270 0.55560 0.56400 -0.29200
H 	H 	0.59890 0.57410 0.43970 0.05800
H 	H 	0.63010 0.52990 0.60910 0.07700
C 	C 	0.65760 0.64510 0.77190 -0.03200
H 	H 	0.66420 0.66430 0.63660 -0.02500
H 	H 	0.69790 0.61760 0.82260 0.01100
C 	C 	0.59180 0.60600 0.73070 -0.06300
H 	H 	0.58570 0.58610 0.86550 0.00300
H 	H 	0.55130 0.63360 0.68300 0.01000
N 	N 	0.59420 0.05470 0.57120 -0.29200
H 	H 	0.60220 0.07260 0.44780 0.05200
H 	H 	0.63090 0.02880 0.62200 0.06000
N 	N 	0.65760 0.19450 0.93410 -0.23900
H 	H 	0.62030 0.22040 0.89010 0.07900
H 	H 	0.65140 0.17570 0.05800 0.00600
C 	C 	0.59110 0.10460 0.72980 -0.04500
H 	H 	0.55030 0.13160 0.67900 0.00200
H 	H 	0.58520 0.08550 0.86590 -0.00900
C 	C 	0.65760 0.14450 0.76700 -0.05000
H 	H 	0.66250 0.16460 0.63140 -0.02100
H 	H 	0.69840 0.11710 0.81170 0.01100
N 	N 	0.84410 0.19490 0.56940 -0.29900
H 	H 	0.88100 0.22090 0.61850 0.08600
H 	H 	0.85170 0.17700 0.44550 0.06300
N 	N 	0.90730 0.05560 0.93600 -0.22400
H 	H 	0.90110 0.07410 0.06030 0.00900
H 	H 	0.86990 0.02990 0.89090 0.06400
C 	C 	0.84240 0.14510 0.72810 -0.02100
H 	H 	0.83580 0.16430 0.86340 -0.00800
H 	H 	0.80210 0.11760 0.67740 -0.00900
C 	C 	0.90820 0.10600 0.76930 -0.07700
H 	H 	0.91430 0.08610 0.63450 -0.00500
H 	H 	0.94870 0.13360 0.81700 0.04300
N 	N 	0.09420 0.55470 0.57120 -0.29800
H 	H 	0.10220 0.57260 0.44780 0.05600
H 	H 	0.13090 0.52880 0.62200 0.07800
N 	N 	0.15760 0.69450 0.93410 -0.23600
H 	H 	0.12030 0.72040 0.89010 0.07200
H 	H 	0.15140 0.67570 0.05800 0.00500
C 	C 	0.09110 0.60460 0.72980 -0.02900
H 	H 	0.05030 0.63160 0.67900 -0.01800
H 	H 	0.08520 0.58550 0.86590 -0.01400
C 	C 	0.15760 0.64450 0.76700 -0.06300
H 	H 	0.16250 0.66460 0.63140 -0.01800
H 	H 	0.19840 0.61710 0.81170 0.01900
N 	N 	0.34410 0.69490 0.56940 -0.29400
H 	H 	0.38100 0.72090 0.61850 0.07800
H 	H 	0.35170 0.67700 0.44550 0.05900
N 	N 	0.40730 0.55560 0.93600 -0.23900
H 	H 	0.40110 0.57410 0.06030 0.00800
H 	H 	0.36990 0.52990 0.89090 0.07900
C 	C 	0.34240 0.64510 0.72810 -0.03700
H 	H 	0.33580 0.66430 0.86340 -0.00500
H 	H 	0.30210 0.61760 0.67740 0.00100
C 	C 	0.40820 0.60600 0.76930 -0.05700
H 	H 	0.41430 0.58610 0.63450 -0.01800
H 	H 	0.44870 0.63360 0.81700 0.01800
Ag	Ag	0.50000 0.00000 -0.00000 0.38900
Ag	Ag	-0.00000 0.50000 -0.00000 0.39100
Ag	Ag	0.50000 0.00000 0.50000 0.42500
Ag	Ag	0.00000 0.50000 0.50000 0.42600
Ag	Ag	0.75000 0.75000 0.50000 0.45700
Ag	Ag	0.25000 0.75000 -0.00000 0.42000
Ag	Ag	0.25000 0.25000 0.50000 0.45400
Ag	Ag	0.75000 0.25000 -0.00000 0.42000
Ag	Ag	0.75000 0.75000 -0.00000 0.42000
Ag	Ag	0.25000 0.75000 0.50000 0.45300
Ag	Ag	0.25000 0.25000 -0.00000 0.41600
Ag	Ag	0.75000 0.25000 0.50000 0.45400
Ag	Ag	0.00000 0.00000 0.50000 0.39800
Ag	Ag	0.50000 0.50000 0.50000 0.45500
Ag	Ag	-0.00000 0.00000 -0.00000 0.36300
Ag	Ag	0.50000 0.50000 -0.00000 0.41900
