data_crystal

_cell_length_a 10.29970
_cell_length_b 10.61070
_cell_length_c 6.24300
_cell_angle_alpha 90.00000
_cell_angle_beta  114.71300
_cell_angle_gamma 90.00000

_symmetry_space_group_name_	'P 1'
_symmetry_space_group_name_H-M	'P 1'

loop_
_symmetry_equiv_pos_as_xyz
  x,y,z

loop_
_atom_site_label
_atom_site_type_symbol
_atom_site_fract_x
_atom_site_fract_y
_atom_site_fract_z
_atom_site_charge
C 	C 	0.31740 0.21090 0.54550 -0.07500
H 	H 	0.39930 0.26550 0.57120 0.01000
H 	H 	0.33190 0.17370 0.69750 -0.02000
N 	N 	0.31120 0.10950 0.38030 -0.27800
H 	H 	0.29590 0.14420 0.23840 0.03500
H 	H 	0.23580 0.05830 0.35830 0.02800
C 	C 	0.81740 0.71090 0.54550 -0.07700
H 	H 	0.89930 0.76550 0.57120 0.05000
H 	H 	0.83190 0.67370 0.69750 0.01600
N 	N 	0.81120 0.60950 0.38030 -0.26700
H 	H 	0.79590 0.64420 0.23840 0.06900
H 	H 	0.73580 0.55830 0.35830 0.07000
C 	C 	0.68260 0.21090 0.95450 0.06200
H 	H 	0.60070 0.26550 0.92880 -0.02100
H 	H 	0.66810 0.17370 0.80250 -0.05300
N 	N 	0.68880 0.10950 0.11970 -0.31700
H 	H 	0.70410 0.14420 0.26160 0.05900
H 	H 	0.76420 0.05830 0.14170 0.05400
C 	C 	0.18260 0.71090 0.95450 0.06700
H 	H 	0.10070 0.76550 0.92880 -0.03700
H 	H 	0.16810 0.67370 0.80250 -0.05700
N 	N 	0.18880 0.60950 0.11970 -0.32000
H 	H 	0.20410 0.64420 0.26160 0.06200
H 	H 	0.26420 0.55830 0.14170 0.06800
C 	C 	0.68260 0.78910 0.45450 -0.02000
H 	H 	0.60070 0.73450 0.42880 -0.00100
H 	H 	0.66810 0.82630 0.30250 -0.01000
N 	N 	0.68880 0.89050 0.61970 -0.28900
H 	H 	0.70410 0.85580 0.76160 0.09500
H 	H 	0.76420 0.94170 0.64170 0.11800
C 	C 	0.18260 0.28910 0.45450 -0.01600
H 	H 	0.10070 0.23450 0.42880 -0.03900
H 	H 	0.16810 0.32630 0.30250 -0.04600
N 	N 	0.18880 0.39050 0.61970 -0.29900
H 	H 	0.20410 0.35580 0.76160 0.06200
H 	H 	0.26420 0.44170 0.64170 0.07600
C 	C 	0.31740 0.78910 0.04550 -0.15500
H 	H 	0.39930 0.73450 0.07120 0.03100
H 	H 	0.33190 0.82630 0.19750 0.02300
N 	N 	0.31120 0.89050 0.88030 -0.24600
H 	H 	0.29590 0.85580 0.73840 0.07100
H 	H 	0.23580 0.94170 0.85830 0.09200
C 	C 	0.81740 0.28910 0.04550 -0.16000
H 	H 	0.89930 0.23450 0.07120 0.04800
H 	H 	0.83190 0.32630 0.19750 0.02600
N 	N 	0.81120 0.39050 0.88030 -0.24400
H 	H 	0.79590 0.35580 0.73840 0.06900
H 	H 	0.73580 0.44170 0.85830 0.07700
Ag	Ag	0.50000 0.00000 0.50000 0.41100
Ag	Ag	0.00000 0.50000 0.50000 0.41200
Ag	Ag	0.50000 0.00000 -0.00000 0.39200
Ag	Ag	-0.00000 0.50000 -0.00000 0.39400
