data_crystal

_cell_length_a 10.47670
_cell_length_b 10.48740
_cell_length_c 6.32250
_cell_angle_alpha 90.00000
_cell_angle_beta  115.38500
_cell_angle_gamma 90.00000

_symmetry_space_group_name_	'P 1'
_symmetry_space_group_name_H-M	'P 1'

loop_
_symmetry_equiv_pos_as_xyz
  x,y,z

loop_
_atom_site_label
_atom_site_type_symbol
_atom_site_fract_x
_atom_site_fract_y
_atom_site_fract_z
_atom_site_charge
C 	C 	0.31570 0.20980 0.54670 -0.07400
H 	H 	0.39710 0.26450 0.58270 0.01200
H 	H 	0.32590 0.16970 0.69130 -0.02000
N 	N 	0.31430 0.11090 0.38210 -0.28200
H 	H 	0.30090 0.14830 0.24610 0.04000
H 	H 	0.24040 0.05880 0.35320 0.03000
C 	C 	0.81570 0.70980 0.54670 -0.07900
H 	H 	0.89710 0.76450 0.58270 0.05000
H 	H 	0.82590 0.66970 0.69130 0.01500
N 	N 	0.81430 0.61090 0.38210 -0.27200
H 	H 	0.80090 0.64830 0.24610 0.07300
H 	H 	0.74040 0.55880 0.35320 0.07200
C 	C 	0.68430 0.20980 0.95330 0.07000
H 	H 	0.60290 0.26450 0.91730 -0.02500
H 	H 	0.67410 0.16970 0.80870 -0.05700
N 	N 	0.68570 0.11090 0.11790 -0.32400
H 	H 	0.69910 0.14830 0.25390 0.06300
H 	H 	0.75960 0.05880 0.14680 0.05700
C 	C 	0.18430 0.70980 0.95330 0.07500
H 	H 	0.10290 0.76450 0.91730 -0.04100
H 	H 	0.17410 0.66970 0.80870 -0.05900
N 	N 	0.18570 0.61090 0.11790 -0.32700
H 	H 	0.19910 0.64830 0.25390 0.06500
H 	H 	0.25960 0.55880 0.14680 0.07100
C 	C 	0.68430 0.79020 0.45330 -0.01700
H 	H 	0.60290 0.73550 0.41730 -0.00300
H 	H 	0.67410 0.83030 0.30870 -0.01000
N 	N 	0.68570 0.88910 0.61790 -0.29600
H 	H 	0.69910 0.85170 0.75390 0.09700
H 	H 	0.75960 0.94120 0.64680 0.12100
C 	C 	0.18430 0.29020 0.45330 -0.01200
H 	H 	0.10290 0.23550 0.41730 -0.04200
H 	H 	0.17410 0.33030 0.30870 -0.04700
N 	N 	0.18570 0.38910 0.61790 -0.30600
H 	H 	0.19910 0.35170 0.75390 0.06400
H 	H 	0.25960 0.44120 0.64680 0.07800
C 	C 	0.31570 0.79020 0.04670 -0.16200
H 	H 	0.39710 0.73550 0.08270 0.03400
H 	H 	0.32590 0.83030 0.19130 0.02600
N 	N 	0.31430 0.88910 0.88210 -0.25100
H 	H 	0.30090 0.85170 0.74610 0.07400
H 	H 	0.24040 0.94120 0.85320 0.09400
C 	C 	0.81570 0.29020 0.04670 -0.16600
H 	H 	0.89710 0.23550 0.08270 0.05000
H 	H 	0.82590 0.33030 0.19130 0.02700
N 	N 	0.81430 0.38910 0.88210 -0.24800
H 	H 	0.80090 0.35170 0.74610 0.07100
H 	H 	0.74040 0.44120 0.85320 0.07900
Ag	Ag	0.50000 0.00000 0.50000 0.41100
Ag	Ag	0.00000 0.50000 0.50000 0.41200
Ag	Ag	0.50000 0.00000 -0.00000 0.39400
Ag	Ag	-0.00000 0.50000 -0.00000 0.39500
