data_crystal

_cell_length_a 9.53400
_cell_length_b 13.38840
_cell_length_c 14.48170
_cell_angle_alpha 79.94010
_cell_angle_beta  70.78140
_cell_angle_gamma 69.14190

_symmetry_space_group_name_	'P 1'
_symmetry_space_group_name_H-M	'P 1'

loop_
_symmetry_equiv_pos_as_xyz
  x,y,z

loop_
_atom_site_label
_atom_site_type_symbol
_atom_site_fract_x
_atom_site_fract_y
_atom_site_fract_z
_atom_site_charge
Mn	Mn	0.37230 0.53244 0.11550 1.27200
Mn	Mn	0.02024 0.96756 0.38450 1.27100
Mn	Mn	0.62770 0.46756 0.88450 1.27200
Mn	Mn	0.97976 0.03244 0.61550 1.27100
Mn	Mn	0.28874 0.75000 0.25000 1.30700
Mn	Mn	0.71126 0.25000 0.75000 1.30700
H 	H 	0.61480 0.54420 0.41780 0.05700
H 	H 	0.72310 0.40830 0.52070 0.03600
H 	H 	0.82220 0.19610 0.32650 0.03000
H 	H 	0.70150 0.33100 0.22880 0.05000
H 	H 	0.96550 0.67300 0.43040 0.03500
H 	H 	0.17470 0.35700 0.40940 0.04600
H 	H 	0.57680 0.95580 0.08220 0.05400
H 	H 	0.65210 0.09170 0.97930 0.03100
H 	H 	0.34480 0.30390 0.17350 0.03000
H 	H 	0.26130 0.16900 0.27120 0.05100
H 	H 	0.06890 0.82700 0.06960 0.03700
H 	H 	0.94110 0.14300 0.09060 0.04200
H 	H 	0.38520 0.45580 0.58220 0.05700
H 	H 	0.27690 0.59170 0.47930 0.03600
H 	H 	0.17780 0.80390 0.67350 0.03000
H 	H 	0.29850 0.66900 0.77120 0.05000
H 	H 	0.03450 0.32700 0.56960 0.03500
H 	H 	0.82530 0.64300 0.59060 0.04600
H 	H 	0.42320 0.04420 0.91780 0.05400
H 	H 	0.34790 0.90830 0.02070 0.03100
H 	H 	0.65520 0.69610 0.82650 0.03000
H 	H 	0.73870 0.83100 0.72880 0.05100
H 	H 	0.93110 0.17300 0.93040 0.03700
H 	H 	0.05890 0.85700 0.90940 0.04200
C 	C 	0.55506 0.53708 0.25220 0.37200
C 	C 	0.64276 0.45108 0.31400 -0.07300
C 	C 	0.65317 0.47366 0.40040 -0.03600
C 	C 	0.72010 0.39250 0.46150 0.01200
C 	C 	0.78242 0.28791 0.43485 -0.12600
C 	C 	0.77741 0.26588 0.34630 0.00600
C 	C 	0.70657 0.34686 0.28740 -0.03200
C 	C 	0.84909 0.19897 0.50245 0.40900
C 	C 	0.17819 0.53734 0.30088 0.36300
C 	C 	0.08372 0.51798 0.40398 -0.08800
C 	C 	0.97950 0.60332 0.45828 -0.01400
C 	C 	0.10423 0.41474 0.44580 -0.01800
C 	C 	0.34434 0.96292 0.24780 0.36900
C 	C 	0.40784 0.04892 0.18600 -0.07000
C 	C 	0.52723 0.02634 0.09960 -0.03300
C 	C 	0.57410 0.10750 0.03850 0.01900
C 	C 	0.50518 0.21209 0.06515 -0.12600
C 	C 	0.38959 0.23412 0.15370 0.00600
C 	C 	0.34083 0.15314 0.21260 -0.03400
C 	C 	0.55051 0.30103 0.99755 0.40600
C 	C 	0.01641 0.96266 0.19912 0.36000
C 	C 	0.00568 0.98202 0.09602 -0.09400
C 	C 	0.04110 0.89668 0.04172 -0.02500
C 	C 	0.96477 0.08526 0.05420 -0.00200
C 	C 	0.44494 0.46292 0.74780 0.37200
C 	C 	0.35724 0.54892 0.68600 -0.07300
C 	C 	0.34683 0.52634 0.59960 -0.03600
C 	C 	0.27990 0.60750 0.53850 0.01200
C 	C 	0.21758 0.71209 0.56515 -0.12600
C 	C 	0.22259 0.73412 0.65370 0.00600
C 	C 	0.29343 0.65314 0.71260 -0.03200
C 	C 	0.15091 0.80103 0.49755 0.40900
C 	C 	0.82181 0.46266 0.69912 0.36300
C 	C 	0.91628 0.48202 0.59602 -0.08800
C 	C 	0.02050 0.39668 0.54172 -0.01400
C 	C 	0.89577 0.58526 0.55420 -0.01800
C 	C 	0.65566 0.03708 0.75220 0.36900
C 	C 	0.59216 0.95108 0.81400 -0.07000
C 	C 	0.47277 0.97366 0.90040 -0.03300
C 	C 	0.42590 0.89250 0.96150 0.01900
C 	C 	0.49482 0.78791 0.93485 -0.12600
C 	C 	0.61041 0.76588 0.84630 0.00600
C 	C 	0.65917 0.84686 0.78740 -0.03400
C 	C 	0.44949 0.69897 0.00245 0.40600
C 	C 	0.98359 0.03734 0.80088 0.36000
C 	C 	0.99432 0.01798 0.90398 -0.09400
C 	C 	0.95890 0.10332 0.95828 -0.02500
C 	C 	0.03523 0.91474 0.94580 -0.00200
O 	O 	0.48276 0.62793 0.28515 -0.44200
O 	O 	0.55882 0.51046 0.17250 -0.46500
O 	O 	0.83324 0.21612 0.58820 -0.52300
O 	O 	0.92220 0.10615 0.47205 -0.57400
O 	O 	0.17692 0.63021 0.26835 -0.51000
O 	O 	0.25707 0.45844 0.25042 -0.43900
O 	O 	0.39584 0.87207 0.21485 -0.44200
O 	O 	0.24178 0.98954 0.32750 -0.46500
O 	O 	0.63756 0.28388 0.91180 -0.52300
O 	O 	0.50040 0.39385 0.02795 -0.57200
O 	O 	0.07548 0.86979 0.23165 -0.50900
O 	O 	0.96593 0.04156 0.24958 -0.43600
O 	O 	0.51724 0.37207 0.71485 -0.44200
O 	O 	0.44118 0.48954 0.82750 -0.46500
O 	O 	0.16676 0.78388 0.41180 -0.52300
O 	O 	0.07780 0.89385 0.52795 -0.57400
O 	O 	0.82308 0.36979 0.73165 -0.51000
O 	O 	0.74293 0.54156 0.74958 -0.43900
O 	O 	0.60416 0.12793 0.78515 -0.44200
O 	O 	0.75822 0.01046 0.67250 -0.46500
O 	O 	0.36244 0.71612 0.08820 -0.52300
O 	O 	0.49960 0.60615 0.97205 -0.57200
O 	O 	0.92452 0.13021 0.76835 -0.50900
O 	O 	0.03407 0.95844 0.75042 -0.43600
