data_crystal

_cell_length_a 31.16220
_cell_length_b 31.16220
_cell_length_c 11.16150
_cell_angle_alpha 90.00000
_cell_angle_beta  90.00000
_cell_angle_gamma 90.00000

_symmetry_space_group_name_	'P 1'
_symmetry_space_group_name_H-M	'P 1'

loop_
_symmetry_equiv_pos_as_xyz
  x,y,z

loop_
_atom_site_label
_atom_site_type_symbol
_atom_site_fract_x
_atom_site_fract_y
_atom_site_fract_z
_atom_site_charge
O 	O 	0.45540 0.21500 0.44200 -0.52700
O 	O 	0.27360 0.04430 0.41820 -0.46100
O 	O 	0.45500 0.19120 0.26000 -0.50500
O 	O 	0.29780 0.04420 0.61020 -0.47200
C 	C 	0.44300 0.19210 0.36550 0.63300
C 	C 	0.40760 0.15960 0.39740 -0.71700
C 	C 	0.29800 0.05650 0.50410 0.51800
C 	C 	0.33190 0.08890 0.47170 -0.63400
B 	B 	0.35880 0.16520 0.37100 0.45100
B 	B 	0.38200 0.15740 0.51300 0.21500
B 	B 	0.32910 0.13870 0.49000 0.33700
B 	B 	0.41570 0.11550 0.46000 0.42400
B 	B 	0.33610 0.11240 0.34100 0.21300
B 	B 	0.39150 0.12200 0.31200 0.28500
B 	B 	0.37540 0.07830 0.40800 0.29000
B 	B 	0.36900 0.10400 0.55100 0.32000
H 	H 	0.34710 0.19151 0.33148 -0.21300
H 	H 	0.38739 0.17876 0.57846 -0.12000
H 	H 	0.30348 0.15249 0.52715 -0.17300
H 	H 	0.44500 0.10571 0.48392 -0.20600
H 	H 	0.31579 0.10732 0.27320 -0.12600
H 	H 	0.40348 0.11700 0.23019 -0.15000
H 	H 	0.38329 0.04804 0.38722 -0.16300
H 	H 	0.37253 0.09276 0.63405 -0.16000
O 	O 	0.95540 0.71500 0.94200 -0.51000
O 	O 	0.77360 0.54430 0.91820 -0.44600
O 	O 	0.95500 0.69120 0.76000 -0.49000
O 	O 	0.79780 0.54420 0.11020 -0.46500
C 	C 	0.94300 0.69210 0.86550 0.62300
C 	C 	0.90760 0.65960 0.89740 -0.69900
C 	C 	0.79800 0.55650 0.00410 0.50400
C 	C 	0.83190 0.58890 0.97170 -0.63000
B 	B 	0.85880 0.66520 0.87100 0.49800
B 	B 	0.88200 0.65740 0.01300 0.09600
B 	B 	0.82910 0.63870 0.99000 0.47700
B 	B 	0.91570 0.61550 0.96000 0.52200
B 	B 	0.83610 0.61240 0.84100 0.13900
B 	B 	0.89150 0.62200 0.81200 0.22500
B 	B 	0.87540 0.57830 0.90800 0.35900
B 	B 	0.86900 0.60400 0.05100 0.22100
H 	H 	0.84710 0.69151 0.83148 -0.22700
H 	H 	0.88739 0.67876 0.07846 -0.08000
H 	H 	0.80348 0.65249 0.02715 -0.22600
H 	H 	0.94500 0.60571 0.98392 -0.22900
H 	H 	0.81579 0.60732 0.77320 -0.09500
H 	H 	0.90348 0.61700 0.73019 -0.12300
H 	H 	0.88329 0.54804 0.88722 -0.17600
H 	H 	0.87253 0.59276 0.13405 -0.12300
O 	O 	0.04460 0.28500 0.94200 -0.53200
O 	O 	0.22640 0.45570 0.91820 -0.44600
O 	O 	0.04500 0.30880 0.76000 -0.51100
O 	O 	0.20220 0.45580 0.11020 -0.46600
C 	C 	0.05700 0.30790 0.86550 0.62900
C 	C 	0.09240 0.34040 0.89740 -0.70900
C 	C 	0.20200 0.44350 0.00410 0.50300
C 	C 	0.16810 0.41110 0.97170 -0.62600
B 	B 	0.14120 0.33480 0.87100 0.49800
B 	B 	0.11800 0.34260 0.01300 0.11100
B 	B 	0.17090 0.36130 0.99000 0.46300
B 	B 	0.08430 0.38450 0.96000 0.51400
B 	B 	0.16390 0.38760 0.84100 0.14200
B 	B 	0.10850 0.37800 0.81200 0.23100
B 	B 	0.12460 0.42170 0.90800 0.35000
B 	B 	0.13100 0.39600 0.05100 0.22200
H 	H 	0.15290 0.30849 0.83148 -0.22800
H 	H 	0.11261 0.32124 0.07846 -0.08900
H 	H 	0.19652 0.34751 0.02715 -0.22200
H 	H 	0.05500 0.39429 0.98392 -0.23900
H 	H 	0.18421 0.39268 0.77320 -0.09800
H 	H 	0.09652 0.38300 0.73019 -0.13200
H 	H 	0.11671 0.45196 0.88722 -0.17800
H 	H 	0.12747 0.40724 0.13405 -0.12800
O 	O 	0.54460 0.78500 0.44200 -0.52700
O 	O 	0.72640 0.95570 0.41820 -0.44200
O 	O 	0.54500 0.80880 0.26000 -0.50500
O 	O 	0.70220 0.95580 0.61020 -0.45300
C 	C 	0.55700 0.80790 0.36550 0.63400
C 	C 	0.59240 0.84040 0.39740 -0.72100
C 	C 	0.70200 0.94350 0.50410 0.51600
C 	C 	0.66810 0.91110 0.47170 -0.62700
B 	B 	0.64120 0.83480 0.37100 0.45300
B 	B 	0.61800 0.84260 0.51300 0.21700
B 	B 	0.67090 0.86130 0.49000 0.33100
B 	B 	0.58430 0.88450 0.46000 0.43000
B 	B 	0.66390 0.88760 0.34100 0.21400
B 	B 	0.60850 0.87800 0.31200 0.28800
B 	B 	0.62460 0.92170 0.40800 0.28800
B 	B 	0.63100 0.89600 0.55100 0.32000
H 	H 	0.65290 0.80849 0.33148 -0.21300
H 	H 	0.61261 0.82124 0.57846 -0.12000
H 	H 	0.69652 0.84751 0.52715 -0.17000
H 	H 	0.55500 0.89429 0.48392 -0.20200
H 	H 	0.68421 0.89268 0.27320 -0.12100
H 	H 	0.59652 0.88300 0.23019 -0.14600
H 	H 	0.61671 0.95196 0.38722 -0.14800
H 	H 	0.62747 0.90724 0.63405 -0.15400
O 	O 	0.78500 0.95540 0.69200 -0.51300
O 	O 	0.95570 0.77360 0.66820 -0.44200
O 	O 	0.80880 0.95500 0.51000 -0.49100
O 	O 	0.95580 0.79780 0.86020 -0.45200
C 	C 	0.80790 0.94300 0.61550 0.62900
C 	C 	0.84040 0.90760 0.64740 -0.71600
C 	C 	0.94350 0.79800 0.75410 0.51700
C 	C 	0.91110 0.83190 0.72170 -0.62900
B 	B 	0.83480 0.85880 0.62100 0.45100
B 	B 	0.84260 0.88200 0.76300 0.21400
B 	B 	0.86130 0.82910 0.74000 0.33400
B 	B 	0.88450 0.91570 0.71000 0.43000
B 	B 	0.88760 0.83610 0.59100 0.21600
B 	B 	0.87800 0.89150 0.56200 0.28700
B 	B 	0.92170 0.87540 0.65800 0.29100
B 	B 	0.89600 0.86900 0.80100 0.32300
H 	H 	0.80849 0.84710 0.58148 -0.21100
H 	H 	0.82124 0.88739 0.82846 -0.11600
H 	H 	0.84751 0.80348 0.77715 -0.17000
H 	H 	0.89429 0.94500 0.73392 -0.19500
H 	H 	0.89268 0.81579 0.52320 -0.12100
H 	H 	0.88300 0.90348 0.48019 -0.14200
H 	H 	0.95196 0.88329 0.63722 -0.14700
H 	H 	0.90724 0.87253 0.88405 -0.15200
O 	O 	0.28500 0.45540 0.19200 -0.52800
O 	O 	0.45570 0.27360 0.16820 -0.45700
O 	O 	0.30880 0.45500 0.01000 -0.50800
O 	O 	0.45580 0.29780 0.36020 -0.46800
C 	C 	0.30790 0.44300 0.11550 0.62900
C 	C 	0.34040 0.40760 0.14740 -0.70800
C 	C 	0.44350 0.29800 0.25410 0.52100
C 	C 	0.41110 0.33190 0.22170 -0.64100
B 	B 	0.33480 0.35880 0.12100 0.48000
B 	B 	0.34260 0.38200 0.26300 0.18000
B 	B 	0.36130 0.32910 0.24000 0.33700
B 	B 	0.38450 0.41570 0.21000 0.45300
B 	B 	0.38760 0.33610 0.09100 0.22700
B 	B 	0.37800 0.39150 0.06200 0.22600
B 	B 	0.42170 0.37540 0.15800 0.30100
B 	B 	0.39600 0.36900 0.30100 0.32500
H 	H 	0.30849 0.34710 0.08148 -0.22400
H 	H 	0.32124 0.38739 0.32846 -0.10900
H 	H 	0.34751 0.30348 0.27715 -0.17300
H 	H 	0.39429 0.44500 0.23392 -0.21400
H 	H 	0.39268 0.31579 0.02320 -0.12900
H 	H 	0.38300 0.40348 0.98019 -0.12000
H 	H 	0.45196 0.38329 0.13722 -0.16100
H 	H 	0.40724 0.37253 0.38405 -0.15900
O 	O 	0.71500 0.54460 0.19200 -0.52700
O 	O 	0.54430 0.72640 0.16820 -0.45600
O 	O 	0.69120 0.54500 0.01000 -0.50800
O 	O 	0.54420 0.70220 0.36020 -0.46700
C 	C 	0.69210 0.55700 0.11550 0.62900
C 	C 	0.65960 0.59240 0.14740 -0.70800
C 	C 	0.55650 0.70200 0.25410 0.52100
C 	C 	0.58890 0.66810 0.22170 -0.64100
B 	B 	0.66520 0.64120 0.12100 0.48100
B 	B 	0.65740 0.61800 0.26300 0.17900
B 	B 	0.63870 0.67090 0.24000 0.33700
B 	B 	0.61550 0.58430 0.21000 0.45400
B 	B 	0.61240 0.66390 0.09100 0.22800
B 	B 	0.62200 0.60850 0.06200 0.22400
B 	B 	0.57830 0.62460 0.15800 0.30200
B 	B 	0.60400 0.63100 0.30100 0.32500
H 	H 	0.69151 0.65290 0.08148 -0.22300
H 	H 	0.67876 0.61261 0.32846 -0.10800
H 	H 	0.65249 0.69652 0.27715 -0.17200
H 	H 	0.60571 0.55500 0.23392 -0.21400
H 	H 	0.60732 0.68421 0.02320 -0.12900
H 	H 	0.61700 0.59652 0.98019 -0.12000
H 	H 	0.54804 0.61671 0.13722 -0.16100
H 	H 	0.59276 0.62747 0.38405 -0.15900
O 	O 	0.21500 0.04460 0.69200 -0.53500
O 	O 	0.04430 0.22640 0.66820 -0.46200
O 	O 	0.19120 0.04500 0.51000 -0.51300
O 	O 	0.04420 0.20220 0.86020 -0.47400
C 	C 	0.19210 0.05700 0.61550 0.63300
C 	C 	0.15960 0.09240 0.64740 -0.72100
C 	C 	0.05650 0.20200 0.75410 0.51700
C 	C 	0.08890 0.16810 0.72170 -0.63300
B 	B 	0.16520 0.14120 0.62100 0.45300
B 	B 	0.15740 0.11800 0.76300 0.21700
B 	B 	0.13870 0.17090 0.74000 0.33600
B 	B 	0.11550 0.08430 0.71000 0.42300
B 	B 	0.11240 0.16390 0.59100 0.21200
B 	B 	0.12200 0.10850 0.56200 0.28500
B 	B 	0.07830 0.12460 0.65800 0.28700
B 	B 	0.10400 0.13100 0.80100 0.31800
H 	H 	0.19151 0.15290 0.58148 -0.21300
H 	H 	0.17876 0.11261 0.82846 -0.12300
H 	H 	0.15249 0.19652 0.77715 -0.17200
H 	H 	0.10571 0.05500 0.73392 -0.21200
H 	H 	0.10732 0.18421 0.52320 -0.12600
H 	H 	0.11700 0.09652 0.48019 -0.15300
H 	H 	0.04804 0.11671 0.63722 -0.16500
H 	H 	0.09276 0.12747 0.88405 -0.16200
O 	O 	0.45540 0.78500 0.44200 -0.52700
O 	O 	0.27360 0.95570 0.41820 -0.44200
O 	O 	0.45500 0.80880 0.26000 -0.50500
O 	O 	0.29780 0.95580 0.61020 -0.45300
C 	C 	0.44300 0.80790 0.36550 0.63300
C 	C 	0.40760 0.84040 0.39740 -0.72100
C 	C 	0.29800 0.94350 0.50410 0.51600
C 	C 	0.33190 0.91110 0.47170 -0.62700
B 	B 	0.35880 0.83480 0.37100 0.45300
B 	B 	0.38200 0.84260 0.51300 0.21700
B 	B 	0.32910 0.86130 0.49000 0.33100
B 	B 	0.41570 0.88450 0.46000 0.43000
B 	B 	0.33610 0.88760 0.34100 0.21400
B 	B 	0.39150 0.87800 0.31200 0.28800
B 	B 	0.37540 0.92170 0.40800 0.28800
B 	B 	0.36900 0.89600 0.55100 0.32100
H 	H 	0.34710 0.80849 0.33148 -0.21300
H 	H 	0.38739 0.82124 0.57846 -0.12000
H 	H 	0.30348 0.84751 0.52715 -0.17000
H 	H 	0.44500 0.89429 0.48392 -0.20200
H 	H 	0.31579 0.89268 0.27320 -0.12200
H 	H 	0.40348 0.88300 0.23019 -0.14600
H 	H 	0.38329 0.95196 0.38722 -0.14800
H 	H 	0.37253 0.90724 0.63405 -0.15400
O 	O 	0.95540 0.28500 0.94200 -0.51100
O 	O 	0.77360 0.45570 0.91820 -0.44600
O 	O 	0.95500 0.30880 0.76000 -0.49100
O 	O 	0.79780 0.45580 0.11020 -0.46400
C 	C 	0.94300 0.30790 0.86550 0.62400
C 	C 	0.90760 0.34040 0.89740 -0.69900
C 	C 	0.79800 0.44350 0.00410 0.50400
C 	C 	0.83190 0.41110 0.97170 -0.63000
B 	B 	0.85880 0.33480 0.87100 0.49800
B 	B 	0.88200 0.34260 0.01300 0.09700
B 	B 	0.82910 0.36130 0.99000 0.47700
B 	B 	0.91570 0.38450 0.96000 0.52200
B 	B 	0.83610 0.38760 0.84100 0.13900
B 	B 	0.89150 0.37800 0.81200 0.22500
B 	B 	0.87540 0.42170 0.90800 0.35800
B 	B 	0.86900 0.39600 0.05100 0.22100
H 	H 	0.84710 0.30849 0.83148 -0.22700
H 	H 	0.88739 0.32124 0.07846 -0.08100
H 	H 	0.80348 0.34751 0.02715 -0.22600
H 	H 	0.94500 0.39429 0.98392 -0.22900
H 	H 	0.81579 0.39268 0.77320 -0.09600
H 	H 	0.90348 0.38300 0.73019 -0.12300
H 	H 	0.88329 0.45196 0.88722 -0.17600
H 	H 	0.87253 0.40724 0.13405 -0.12300
O 	O 	0.04460 0.71500 0.94200 -0.53200
O 	O 	0.22640 0.54430 0.91820 -0.44600
O 	O 	0.04500 0.69120 0.76000 -0.51100
O 	O 	0.20220 0.54420 0.11020 -0.46600
C 	C 	0.05700 0.69210 0.86550 0.62900
C 	C 	0.09240 0.65960 0.89740 -0.70900
C 	C 	0.20200 0.55650 0.00410 0.50300
C 	C 	0.16810 0.58890 0.97170 -0.62600
B 	B 	0.14120 0.66520 0.87100 0.49800
B 	B 	0.11800 0.65740 0.01300 0.11000
B 	B 	0.17090 0.63870 0.99000 0.46400
B 	B 	0.08430 0.61550 0.96000 0.51400
B 	B 	0.16390 0.61240 0.84100 0.14200
B 	B 	0.10850 0.62200 0.81200 0.23000
B 	B 	0.12460 0.57830 0.90800 0.35000
B 	B 	0.13100 0.60400 0.05100 0.22200
H 	H 	0.15290 0.69151 0.83148 -0.22800
H 	H 	0.11261 0.67876 0.07846 -0.08900
H 	H 	0.19652 0.65249 0.02715 -0.22200
H 	H 	0.05500 0.60571 0.98392 -0.23900
H 	H 	0.18421 0.60732 0.77320 -0.09800
H 	H 	0.09652 0.61700 0.73019 -0.13100
H 	H 	0.11671 0.54804 0.88722 -0.17800
H 	H 	0.12747 0.59276 0.13405 -0.12800
O 	O 	0.54460 0.21500 0.44200 -0.52800
O 	O 	0.72640 0.04430 0.41820 -0.46200
O 	O 	0.54500 0.19120 0.26000 -0.50600
O 	O 	0.70220 0.04420 0.61020 -0.47300
C 	C 	0.55700 0.19210 0.36550 0.63200
C 	C 	0.59240 0.15960 0.39740 -0.71800
C 	C 	0.70200 0.05650 0.50410 0.51800
C 	C 	0.66810 0.08890 0.47170 -0.63400
B 	B 	0.64120 0.16520 0.37100 0.45100
B 	B 	0.61800 0.15740 0.51300 0.21500
B 	B 	0.67090 0.13870 0.49000 0.33700
B 	B 	0.58430 0.11550 0.46000 0.42400
B 	B 	0.66390 0.11240 0.34100 0.21300
B 	B 	0.60850 0.12200 0.31200 0.28500
B 	B 	0.62460 0.07830 0.40800 0.29000
B 	B 	0.63100 0.10400 0.55100 0.31900
H 	H 	0.65290 0.19151 0.33148 -0.21200
H 	H 	0.61261 0.17876 0.57846 -0.12000
H 	H 	0.69652 0.15249 0.52715 -0.17200
H 	H 	0.55500 0.10571 0.48392 -0.20600
H 	H 	0.68421 0.10732 0.27320 -0.12500
H 	H 	0.59652 0.11700 0.23019 -0.15000
H 	H 	0.61671 0.04804 0.38722 -0.16300
H 	H 	0.62747 0.09276 0.63405 -0.16000
O 	O 	0.78500 0.04460 0.69200 -0.53400
O 	O 	0.95570 0.22640 0.66820 -0.44200
O 	O 	0.80880 0.04500 0.51000 -0.51200
O 	O 	0.95580 0.20220 0.86020 -0.45300
C 	C 	0.80790 0.05700 0.61550 0.63400
C 	C 	0.84040 0.09240 0.64740 -0.72400
C 	C 	0.94350 0.20200 0.75410 0.51500
C 	C 	0.91110 0.16810 0.72170 -0.62600
B 	B 	0.83480 0.14120 0.62100 0.45500
B 	B 	0.84260 0.11800 0.76300 0.21900
B 	B 	0.86130 0.17090 0.74000 0.33000
B 	B 	0.88450 0.08430 0.71000 0.42900
B 	B 	0.88760 0.16390 0.59100 0.21400
B 	B 	0.87800 0.10850 0.56200 0.28800
B 	B 	0.92170 0.12460 0.65800 0.28600
B 	B 	0.89600 0.13100 0.80100 0.31900
H 	H 	0.80849 0.15290 0.58148 -0.21300
H 	H 	0.82124 0.11261 0.82846 -0.12200
H 	H 	0.84751 0.19652 0.77715 -0.16900
H 	H 	0.89429 0.05500 0.73392 -0.20800
H 	H 	0.89268 0.18421 0.52320 -0.12100
H 	H 	0.88300 0.09652 0.48019 -0.14900
H 	H 	0.95196 0.11671 0.63722 -0.15000
H 	H 	0.90724 0.12747 0.88405 -0.15600
O 	O 	0.28500 0.54460 0.19200 -0.52800
O 	O 	0.45570 0.72640 0.16820 -0.45600
O 	O 	0.30880 0.54500 0.01000 -0.50800
O 	O 	0.45580 0.70220 0.36020 -0.46700
C 	C 	0.30790 0.55700 0.11550 0.62900
C 	C 	0.34040 0.59240 0.14740 -0.70800
C 	C 	0.44350 0.70200 0.25410 0.52100
C 	C 	0.41110 0.66810 0.22170 -0.64100
B 	B 	0.33480 0.64120 0.12100 0.48000
B 	B 	0.34260 0.61800 0.26300 0.18000
B 	B 	0.36130 0.67090 0.24000 0.33700
B 	B 	0.38450 0.58430 0.21000 0.45400
B 	B 	0.38760 0.66390 0.09100 0.22700
B 	B 	0.37800 0.60850 0.06200 0.22600
B 	B 	0.42170 0.62460 0.15800 0.30100
B 	B 	0.39600 0.63100 0.30100 0.32400
H 	H 	0.30849 0.65290 0.08148 -0.22300
H 	H 	0.32124 0.61261 0.32846 -0.10900
H 	H 	0.34751 0.69652 0.27715 -0.17200
H 	H 	0.39429 0.55500 0.23392 -0.21400
H 	H 	0.39268 0.68421 0.02320 -0.12900
H 	H 	0.38300 0.59652 0.98019 -0.12000
H 	H 	0.45196 0.61671 0.13722 -0.16100
H 	H 	0.40724 0.62747 0.38405 -0.15900
O 	O 	0.71500 0.45540 0.19200 -0.52700
O 	O 	0.54430 0.27360 0.16820 -0.45700
O 	O 	0.69120 0.45500 0.01000 -0.50800
O 	O 	0.54420 0.29780 0.36020 -0.46800
C 	C 	0.69210 0.44300 0.11550 0.62900
C 	C 	0.65960 0.40760 0.14740 -0.70800
C 	C 	0.55650 0.29800 0.25410 0.52100
C 	C 	0.58890 0.33190 0.22170 -0.64100
B 	B 	0.66520 0.35880 0.12100 0.48100
B 	B 	0.65740 0.38200 0.26300 0.17900
B 	B 	0.63870 0.32910 0.24000 0.33700
B 	B 	0.61550 0.41570 0.21000 0.45400
B 	B 	0.61240 0.33610 0.09100 0.22800
B 	B 	0.62200 0.39150 0.06200 0.22400
B 	B 	0.57830 0.37540 0.15800 0.30200
B 	B 	0.60400 0.36900 0.30100 0.32500
H 	H 	0.69151 0.34710 0.08148 -0.22400
H 	H 	0.67876 0.38739 0.32846 -0.10800
H 	H 	0.65249 0.30348 0.27715 -0.17300
H 	H 	0.60571 0.44500 0.23392 -0.21400
H 	H 	0.60732 0.31579 0.02320 -0.12900
H 	H 	0.61700 0.40348 0.98019 -0.12000
H 	H 	0.54804 0.38329 0.13722 -0.16100
H 	H 	0.59276 0.37253 0.38405 -0.15900
O 	O 	0.21500 0.95540 0.69200 -0.51400
O 	O 	0.04430 0.77360 0.66820 -0.46200
O 	O 	0.19120 0.95500 0.51000 -0.49300
O 	O 	0.04420 0.79780 0.86020 -0.47200
C 	C 	0.19210 0.94300 0.61550 0.62800
C 	C 	0.15960 0.90760 0.64740 -0.71300
C 	C 	0.05650 0.79800 0.75410 0.51900
C 	C 	0.08890 0.83190 0.72170 -0.63600
B 	B 	0.16520 0.85880 0.62100 0.44900
B 	B 	0.15740 0.88200 0.76300 0.21200
B 	B 	0.13870 0.82910 0.74000 0.34000
B 	B 	0.11550 0.91570 0.71000 0.42500
B 	B 	0.11240 0.83610 0.59100 0.21400
B 	B 	0.12200 0.89150 0.56200 0.28400
B 	B 	0.07830 0.87540 0.65800 0.29200
B 	B 	0.10400 0.86900 0.80100 0.32200
H 	H 	0.19151 0.84710 0.58148 -0.21100
H 	H 	0.17876 0.88739 0.82846 -0.11700
H 	H 	0.15249 0.80348 0.77715 -0.17300
H 	H 	0.10571 0.94500 0.73392 -0.19900
H 	H 	0.10732 0.81579 0.52320 -0.12500
H 	H 	0.11700 0.90348 0.48019 -0.14700
H 	H 	0.04804 0.88329 0.63722 -0.16100
H 	H 	0.09276 0.87253 0.88405 -0.15900
Cu	Cu	0.50000 0.22939 0.19550 0.90400
Cu	Cu	0.50000 0.25836 0.42190 0.91200
Cu	Cu	0.00000 0.27061 0.69550 0.89200
Cu	Cu	-0.00000 0.24164 0.92190 0.89900
Cu	Cu	0.77061 0.00000 0.44550 0.89200
Cu	Cu	0.74164 -0.00000 0.67190 0.90000
Cu	Cu	0.27061 0.50000 0.94550 0.90800
Cu	Cu	0.24164 0.50000 0.17190 0.91100
Cu	Cu	0.72939 0.50000 0.94550 0.90800
Cu	Cu	0.75836 0.50000 0.17190 0.91100
Cu	Cu	0.22939 0.00000 0.44550 0.89200
Cu	Cu	0.25836 -0.00000 0.67190 0.90000
Cu	Cu	0.50000 0.77061 0.19550 0.90500
Cu	Cu	0.50000 0.74164 0.42190 0.91200
Cu	Cu	0.00000 0.72939 0.69550 0.89200
Cu	Cu	0.00000 0.75836 0.92190 0.90000
