data_crystal

_cell_length_a 20.81890
_cell_length_b 23.37450
_cell_length_c 12.70360
_cell_angle_alpha 90.00000
_cell_angle_beta  90.00000
_cell_angle_gamma 90.00000

_symmetry_space_group_name_	'P 1'
_symmetry_space_group_name_H-M	'P 1'

loop_
_symmetry_equiv_pos_as_xyz
  x,y,z

loop_
_atom_site_label
_atom_site_type_symbol
_atom_site_fract_x
_atom_site_fract_y
_atom_site_fract_z
_atom_site_charge
Zn	Zn	0.26814 0.09942 0.05448 1.16900
Zn	Zn	0.17379 0.13582 0.23588 1.20200
Zn	Zn	0.25137 0.02363 0.27078 1.22100
Zn	Zn	0.32565 0.13507 0.28856 1.18100
O 	O 	0.25550 0.09898 0.21320 -0.95700
O 	O 	0.64520 0.90830 0.91900 -0.53400
O 	O 	0.32580 0.71320 0.79130 -0.53500
O 	O 	0.10860 0.11930 0.12930 -0.56400
O 	O 	0.68370 0.99410 0.87700 -0.54200
O 	O 	0.29460 0.01051 0.03110 -0.50700
O 	O 	0.23590 0.69050 0.87810 -0.54200
O 	O 	0.83250 0.99510 0.83420 -0.54200
O 	O 	0.39560 0.08450 0.21180 -0.55300
O 	O 	0.26000 0.96190 0.17300 -0.51900
O 	O 	0.87610 0.90780 0.84900 -0.52800
O 	O 	0.17400 0.06780 0.02670 -0.57500
C 	C 	0.64230 0.96160 0.91700 0.56000
O 	O 	0.36620 0.11713 0.05520 -0.58600
C 	C 	0.12130 0.08280 0.05910 0.55500
C 	C 	0.87610 0.96090 0.85920 0.54000
C 	C 	0.27910 0.72340 0.85410 0.46700
C 	C 	0.27790 0.96720 0.07690 0.49400
C 	C 	0.40200 0.09040 0.11630 0.56200
C 	C 	0.06310 0.05430 0.01070 -0.64600
C 	C 	0.93540 0.98840 0.90560 -0.59300
B 	B 	0.96420 0.97580 0.01900 0.29600
B 	B 	0.05830 0.03090 0.89250 0.32500
B 	B 	0.99660 0.04250 0.06900 0.30500
B 	B 	0.00510 0.08590 0.95180 0.31500
B 	B 	0.00830 0.96790 0.89420 0.27400
B 	B 	0.05000 0.98720 0.01380 0.26000
B 	B 	0.97620 0.03810 0.84980 0.25000
B 	B 	0.93280 0.04550 0.97620 0.26100
H 	H 	0.93400 0.95600 0.07500 -0.15600
H 	H 	0.09730 0.03500 0.84100 -0.16100
H 	H 	0.98600 0.06100 0.14200 -0.15500
H 	H 	0.00200 0.13070 0.94500 -0.15900
H 	H 	0.01200 0.92990 0.85100 -0.13300
H 	H 	0.08400 0.96290 0.05600 -0.13500
H 	H 	0.95600 0.05100 0.77800 -0.13800
H 	H 	0.88670 0.06200 0.99200 -0.12600
C 	C 	0.45910 0.05960 0.06890 -0.63900
C 	C 	0.58550 0.99040 0.96670 -0.61000
B 	B 	0.51290 0.96980 0.95850 0.33700
B 	B 	0.52610 0.04870 0.12740 0.33000
B 	B 	0.46310 0.03340 0.95320 0.31200
B 	B 	0.51560 0.08900 0.00260 0.26800
B 	B 	0.55720 0.98110 0.08230 0.23400
B 	B 	0.47140 0.99240 0.07640 0.26700
B 	B 	0.58880 0.04970 0.02980 0.28600
B 	B 	0.54340 0.03800 0.90650 0.26100
H 	H 	0.50100 0.94100 0.89800 -0.15800
H 	H 	0.53300 0.06300 0.20500 -0.16300
H 	H 	0.42790 0.04300 0.89600 -0.15200
H 	H 	0.51600 0.13280 0.98400 -0.14400
H 	H 	0.58200 0.94920 0.12400 -0.12800
H 	H 	0.43500 0.96900 0.11400 -0.13300
H 	H 	0.63530 0.06700 0.03100 -0.13800
H 	H 	0.55700 0.04600 0.82800 -0.13100
C 	C 	0.27920 0.91100 0.01850 -0.23000
C 	C 	0.28240 0.78170 0.90450 -0.22700
B 	B 	0.34360 0.82030 0.92750 0.18400
B 	B 	0.23120 0.88940 0.92830 0.18800
B 	B 	0.32750 0.86030 0.04690 0.13800
B 	B 	0.24100 0.85590 0.05990 0.12100
B 	B 	0.27520 0.84120 0.84400 0.05900
B 	B 	0.32000 0.89450 0.91660 0.10200
B 	B 	0.21910 0.81360 0.94560 0.09900
B 	B 	0.28830 0.79350 0.02900 0.14800
H 	H 	0.38900 0.80040 0.93100 -0.09800
H 	H 	0.19500 0.91650 0.89800 -0.10700
H 	H 	0.35690 0.86300 0.11400 -0.09300
H 	H 	0.21300 0.85600 0.12900 -0.07500
H 	H 	0.27300 0.83600 0.76200 -0.06900
H 	H 	0.34900 0.92720 0.88600 -0.07800
H 	H 	0.17770 0.78800 0.93900 -0.07400
H 	H 	0.29500 0.75720 0.07600 -0.08700
C 	C 	0.27870 0.90940 0.02600 -0.23900
C 	C 	0.27720 0.78200 0.90500 -0.22200
B 	B 	0.33470 0.80610 0.97420 0.07600
B 	B 	0.25480 0.89790 0.90800 0.10000
B 	B 	0.29990 0.85000 0.07710 0.11300
B 	B 	0.22000 0.86510 0.02830 0.11900
B 	B 	0.30260 0.84040 0.85480 0.15200
B 	B 	0.33660 0.88300 0.95970 0.15300
B 	B 	0.21970 0.82750 0.90330 0.14800
B 	B 	0.25280 0.79380 0.02330 0.12800
H 	H 	0.36800 0.77680 0.00600 -0.07100
H 	H 	0.23900 0.93170 0.86000 -0.07900
H 	H 	0.30900 0.84600 0.15800 -0.07200
H 	H 	0.17770 0.87300 0.07100 -0.08000
H 	H 	0.32040 0.83400 0.77800 -0.08600
H 	H 	0.37900 0.90780 0.95800 -0.10400
H 	H 	0.17800 0.81200 0.86500 -0.10000
H 	H 	0.23700 0.75770 0.06500 -0.07700
Zn	Zn	0.73186 0.90058 0.55448 1.16800
Zn	Zn	0.82621 0.86418 0.73588 1.20100
Zn	Zn	0.74863 0.97637 0.77078 1.22000
Zn	Zn	0.67435 0.86493 0.78856 1.18000
O 	O 	0.74450 0.90102 0.71320 -0.95800
O 	O 	0.35480 0.09170 0.41900 -0.53700
O 	O 	0.67420 0.28680 0.29130 -0.53700
O 	O 	0.89140 0.88070 0.62930 -0.56400
O 	O 	0.31630 0.00590 0.37700 -0.54500
O 	O 	0.70540 0.98949 0.53110 -0.50700
O 	O 	0.76410 0.30950 0.37810 -0.54400
O 	O 	0.16750 0.00490 0.33420 -0.54300
O 	O 	0.60440 0.91550 0.71180 -0.55300
O 	O 	0.74000 0.03810 0.67300 -0.51900
O 	O 	0.12390 0.09220 0.34900 -0.53000
O 	O 	0.82600 0.93220 0.52670 -0.57400
C 	C 	0.35770 0.03840 0.41700 0.56200
O 	O 	0.63380 0.88287 0.55520 -0.58500
C 	C 	0.87870 0.91720 0.55910 0.55300
C 	C 	0.12390 0.03910 0.35920 0.54300
C 	C 	0.72090 0.27660 0.35410 0.46700
C 	C 	0.72210 0.03280 0.57690 0.49400
C 	C 	0.59800 0.90960 0.61630 0.56200
C 	C 	0.93690 0.94570 0.51070 -0.63900
C 	C 	0.06460 0.01160 0.40560 -0.60200
B 	B 	0.03580 0.02420 0.51900 0.32200
B 	B 	0.94170 0.96910 0.39250 0.31600
B 	B 	0.00340 0.95750 0.56900 0.29600
B 	B 	0.99490 0.91410 0.45180 0.30900
B 	B 	0.99170 0.03210 0.39420 0.25100
B 	B 	0.95000 0.01280 0.51380 0.27200
B 	B 	0.02380 0.96190 0.34980 0.27200
B 	B 	0.06720 0.95450 0.47620 0.25100
H 	H 	0.06600 0.04400 0.57500 -0.16200
H 	H 	0.90270 0.96500 0.34100 -0.15900
H 	H 	0.01400 0.93900 0.64200 -0.15100
H 	H 	0.99800 0.86930 0.44500 -0.15800
H 	H 	0.98800 0.07010 0.35100 -0.12700
H 	H 	0.91600 0.03710 0.55600 -0.13800
H 	H 	0.04400 0.94900 0.27800 -0.14500
H 	H 	0.11330 0.93800 0.49200 -0.12400
C 	C 	0.54090 0.94040 0.56890 -0.63800
C 	C 	0.41450 0.00960 0.46670 -0.61900
B 	B 	0.48710 0.03020 0.45850 0.31900
B 	B 	0.47390 0.95130 0.62740 0.30200
B 	B 	0.53690 0.96660 0.45320 0.29300
B 	B 	0.48440 0.91100 0.50260 0.29500
B 	B 	0.44280 0.01890 0.58230 0.25500
B 	B 	0.52860 0.00760 0.57640 0.29000
B 	B 	0.41120 0.95030 0.52980 0.28800
B 	B 	0.45660 0.96200 0.40650 0.26600
H 	H 	0.49900 0.05900 0.39800 -0.15200
H 	H 	0.46700 0.93700 0.70500 -0.15400
H 	H 	0.57210 0.95700 0.39600 -0.14700
H 	H 	0.48400 0.86720 0.48400 -0.15600
H 	H 	0.41800 0.05080 0.62400 -0.13300
H 	H 	0.56500 0.03100 0.61400 -0.13900
H 	H 	0.36470 0.93300 0.53100 -0.13700
H 	H 	0.44300 0.95400 0.32800 -0.13200
C 	C 	0.72080 0.08900 0.51850 -0.22800
C 	C 	0.71760 0.21830 0.40450 -0.22800
B 	B 	0.65640 0.17970 0.42750 0.16500
B 	B 	0.76880 0.11060 0.42830 0.17900
B 	B 	0.67250 0.13970 0.54690 0.12200
B 	B 	0.75900 0.14410 0.55990 0.13700
B 	B 	0.72480 0.15880 0.34400 0.06800
B 	B 	0.68000 0.10550 0.41660 0.10700
B 	B 	0.78090 0.18640 0.44560 0.10200
B 	B 	0.71170 0.20650 0.52900 0.15000
H 	H 	0.61100 0.19960 0.43100 -0.09600
H 	H 	0.80500 0.08350 0.39800 -0.10500
H 	H 	0.64310 0.13700 0.61400 -0.08800
H 	H 	0.78700 0.14400 0.62900 -0.07900
H 	H 	0.72700 0.16400 0.26200 -0.07200
H 	H 	0.65100 0.07280 0.38600 -0.08100
H 	H 	0.82230 0.21200 0.43900 -0.07600
H 	H 	0.70500 0.24280 0.57600 -0.08700
C 	C 	0.72130 0.09060 0.52600 -0.23400
C 	C 	0.72280 0.21800 0.40500 -0.22300
B 	B 	0.66530 0.19390 0.47420 0.08300
B 	B 	0.74520 0.10210 0.40800 0.09800
B 	B 	0.70010 0.15000 0.57710 0.13000
B 	B 	0.78000 0.13490 0.52830 0.10700
B 	B 	0.69740 0.15960 0.35480 0.15500
B 	B 	0.66340 0.11700 0.45970 0.15000
B 	B 	0.78030 0.17250 0.40330 0.14200
B 	B 	0.74720 0.20620 0.52330 0.12700
H 	H 	0.63200 0.22320 0.50600 -0.06800
H 	H 	0.76100 0.06830 0.36000 -0.07900
H 	H 	0.69100 0.15400 0.65800 -0.07700
H 	H 	0.82230 0.12700 0.57100 -0.07600
H 	H 	0.67960 0.16600 0.27800 -0.08800
H 	H 	0.62100 0.09220 0.45800 -0.10400
H 	H 	0.82200 0.18800 0.36500 -0.09900
H 	H 	0.76300 0.24230 0.56500 -0.07500
Zn	Zn	0.76814 0.40058 0.05448 1.16800
Zn	Zn	0.67379 0.36418 0.23588 1.20100
Zn	Zn	0.75137 0.47637 0.27078 1.21900
Zn	Zn	0.82565 0.36493 0.28856 1.18000
O 	O 	0.75550 0.40102 0.21320 -0.95800
O 	O 	0.14520 0.59170 0.91900 -0.53500
O 	O 	0.82580 0.78680 0.79130 -0.53600
O 	O 	0.60860 0.38070 0.12930 -0.56600
O 	O 	0.18370 0.50590 0.87700 -0.54400
O 	O 	0.79460 0.48949 0.03110 -0.51100
O 	O 	0.73590 0.80950 0.87810 -0.54200
O 	O 	0.33250 0.50490 0.83420 -0.54400
O 	O 	0.89560 0.41550 0.21180 -0.55300
O 	O 	0.76000 0.53810 0.17300 -0.51900
O 	O 	0.37610 0.59220 0.84900 -0.52900
O 	O 	0.67400 0.43220 0.02670 -0.57600
C 	C 	0.14230 0.53840 0.91700 0.56000
O 	O 	0.86620 0.38287 0.05520 -0.58700
C 	C 	0.62130 0.41720 0.05910 0.55500
C 	C 	0.37610 0.53910 0.85920 0.54300
C 	C 	0.77910 0.77660 0.85410 0.46700
C 	C 	0.77790 0.53280 0.07690 0.49700
C 	C 	0.90200 0.40960 0.11630 0.56200
C 	C 	0.56310 0.44570 0.01070 -0.64800
C 	C 	0.43540 0.51160 0.90560 -0.60300
B 	B 	0.46420 0.52420 0.01900 0.28600
B 	B 	0.55830 0.46910 0.89250 0.31500
B 	B 	0.49660 0.45750 0.06900 0.29900
B 	B 	0.50510 0.41410 0.95180 0.30900
B 	B 	0.50830 0.53210 0.89420 0.27600
B 	B 	0.55000 0.51280 0.01380 0.27600
B 	B 	0.47620 0.46190 0.84980 0.26100
B 	B 	0.43280 0.45450 0.97620 0.27700
H 	H 	0.43400 0.54400 0.07500 -0.15300
H 	H 	0.59730 0.46500 0.84100 -0.15800
H 	H 	0.48600 0.43900 0.14200 -0.15300
H 	H 	0.50200 0.36930 0.94500 -0.15700
H 	H 	0.51200 0.57010 0.85100 -0.13300
H 	H 	0.58400 0.53710 0.05600 -0.14000
H 	H 	0.45600 0.44900 0.77800 -0.14000
H 	H 	0.38670 0.43800 0.99200 -0.13000
C 	C 	0.95910 0.44040 0.06890 -0.64000
C 	C 	0.08550 0.50960 0.96670 -0.61300
B 	B 	0.01290 0.53020 0.95850 0.32200
B 	B 	0.02610 0.45130 0.12740 0.32800
B 	B 	0.96310 0.46660 0.95320 0.31800
B 	B 	0.01560 0.41100 0.00260 0.25800
B 	B 	0.05720 0.51890 0.08230 0.24200
B 	B 	0.97140 0.50760 0.07640 0.27300
B 	B 	0.08880 0.45030 0.02980 0.28300
B 	B 	0.04340 0.46200 0.90650 0.27500
H 	H 	0.00100 0.55900 0.89800 -0.15400
H 	H 	0.03300 0.43700 0.20500 -0.16200
H 	H 	0.92790 0.45700 0.89600 -0.15400
H 	H 	0.01600 0.36720 0.98400 -0.14000
H 	H 	0.08200 0.55080 0.12400 -0.13000
H 	H 	0.93500 0.53100 0.11400 -0.13400
H 	H 	0.13530 0.43300 0.03100 -0.13700
H 	H 	0.05700 0.45400 0.82800 -0.13400
C 	C 	0.77920 0.58900 0.01850 -0.23000
C 	C 	0.78240 0.71830 0.90450 -0.22700
B 	B 	0.84360 0.67970 0.92750 0.18300
B 	B 	0.73120 0.61060 0.92830 0.18700
B 	B 	0.82750 0.63970 0.04690 0.13600
B 	B 	0.74100 0.64410 0.05990 0.12300
B 	B 	0.77520 0.65880 0.84400 0.06000
B 	B 	0.82000 0.60550 0.91660 0.10200
B 	B 	0.71910 0.68640 0.94560 0.10000
B 	B 	0.78830 0.70650 0.02900 0.14800
H 	H 	0.88900 0.69960 0.93100 -0.09800
H 	H 	0.69500 0.58350 0.89800 -0.10700
H 	H 	0.85690 0.63700 0.11400 -0.09200
H 	H 	0.71300 0.64400 0.12900 -0.07600
H 	H 	0.77300 0.66400 0.76200 -0.06900
H 	H 	0.84900 0.57280 0.88600 -0.07900
H 	H 	0.67770 0.71200 0.93900 -0.07400
H 	H 	0.79500 0.74280 0.07600 -0.08700
C 	C 	0.77870 0.59060 0.02600 -0.23800
C 	C 	0.77720 0.71800 0.90500 -0.22200
B 	B 	0.83470 0.69390 0.97420 0.07600
B 	B 	0.75480 0.60210 0.90800 0.09900
B 	B 	0.79990 0.65000 0.07710 0.11500
B 	B 	0.72000 0.63490 0.02830 0.11800
B 	B 	0.80260 0.65960 0.85480 0.15200
B 	B 	0.83660 0.61700 0.95970 0.15300
B 	B 	0.71970 0.67250 0.90330 0.14800
B 	B 	0.75280 0.70620 0.02330 0.12800
H 	H 	0.86800 0.72320 0.00600 -0.07100
H 	H 	0.73900 0.56830 0.86000 -0.07900
H 	H 	0.80900 0.65400 0.15800 -0.07300
H 	H 	0.67770 0.62700 0.07100 -0.07900
H 	H 	0.82040 0.66600 0.77800 -0.08600
H 	H 	0.87900 0.59220 0.95800 -0.10400
H 	H 	0.67800 0.68800 0.86500 -0.10000
H 	H 	0.73700 0.74230 0.06500 -0.07700
Zn	Zn	0.23186 0.59942 0.55448 1.16800
Zn	Zn	0.32621 0.63582 0.73588 1.20100
Zn	Zn	0.24863 0.52363 0.77078 1.21900
Zn	Zn	0.17435 0.63507 0.78856 1.18000
O 	O 	0.24450 0.59898 0.71320 -0.95800
O 	O 	0.85480 0.40830 0.41900 -0.53700
O 	O 	0.17420 0.21320 0.29130 -0.53700
O 	O 	0.39140 0.61930 0.62930 -0.56400
O 	O 	0.81630 0.49410 0.37700 -0.54600
O 	O 	0.20540 0.51051 0.53110 -0.50900
O 	O 	0.26410 0.19050 0.37810 -0.54400
O 	O 	0.66750 0.49510 0.33420 -0.54500
O 	O 	0.10440 0.58450 0.71180 -0.55300
O 	O 	0.24000 0.46190 0.67300 -0.51800
O 	O 	0.62390 0.40780 0.34900 -0.53000
O 	O 	0.32600 0.56780 0.52670 -0.57400
C 	C 	0.85770 0.46160 0.41700 0.56200
O 	O 	0.13380 0.61713 0.55520 -0.58500
C 	C 	0.37870 0.58280 0.55910 0.55300
C 	C 	0.62390 0.46090 0.35920 0.54500
C 	C 	0.22090 0.22340 0.35410 0.46600
C 	C 	0.22210 0.46720 0.57690 0.49600
C 	C 	0.09800 0.59040 0.61630 0.56300
C 	C 	0.43690 0.55430 0.51070 -0.63900
C 	C 	0.56460 0.48840 0.40560 -0.60900
B 	B 	0.53580 0.47580 0.51900 0.30800
B 	B 	0.44170 0.53090 0.39250 0.30400
B 	B 	0.50340 0.54250 0.56900 0.30200
B 	B 	0.49490 0.58590 0.45180 0.29700
B 	B 	0.49170 0.46790 0.39420 0.25900
B 	B 	0.45000 0.48720 0.51380 0.27900
B 	B 	0.52380 0.53810 0.34980 0.28400
B 	B 	0.56720 0.54550 0.47620 0.26000
H 	H 	0.56600 0.45600 0.57500 -0.15900
H 	H 	0.40270 0.53500 0.34100 -0.15600
H 	H 	0.51400 0.56100 0.64200 -0.15300
H 	H 	0.49800 0.63070 0.44500 -0.15500
H 	H 	0.48800 0.42990 0.35100 -0.12900
H 	H 	0.41600 0.46290 0.55600 -0.14000
H 	H 	0.54400 0.55100 0.27800 -0.14800
H 	H 	0.61330 0.56200 0.49200 -0.12600
C 	C 	0.04090 0.55960 0.56890 -0.63900
C 	C 	0.91450 0.49040 0.46670 -0.62000
B 	B 	0.98710 0.46980 0.45850 0.31900
B 	B 	0.97390 0.54870 0.62740 0.30100
B 	B 	0.03690 0.53340 0.45320 0.28900
B 	B 	0.98440 0.58900 0.50260 0.29900
B 	B 	0.94280 0.48110 0.58230 0.25600
B 	B 	0.02860 0.49240 0.57640 0.29300
B 	B 	0.91120 0.54970 0.52980 0.28600
B 	B 	0.95660 0.53800 0.40650 0.26800
H 	H 	0.99900 0.44100 0.39800 -0.15200
H 	H 	0.96700 0.56300 0.70500 -0.15400
H 	H 	0.07210 0.54300 0.39600 -0.14600
H 	H 	0.98400 0.63280 0.48400 -0.15700
H 	H 	0.91800 0.44920 0.62400 -0.13300
H 	H 	0.06500 0.46900 0.61400 -0.13900
H 	H 	0.86470 0.56700 0.53100 -0.13600
H 	H 	0.94300 0.54600 0.32800 -0.13200
C 	C 	0.22080 0.41100 0.51850 -0.22900
C 	C 	0.21760 0.28170 0.40450 -0.22800
B 	B 	0.15640 0.32030 0.42750 0.16500
B 	B 	0.26880 0.38940 0.42830 0.17900
B 	B 	0.17250 0.36030 0.54690 0.12200
B 	B 	0.25900 0.35590 0.55990 0.13700
B 	B 	0.22480 0.34120 0.34400 0.06800
B 	B 	0.18000 0.39450 0.41660 0.10800
B 	B 	0.28090 0.31360 0.44560 0.10200
B 	B 	0.21170 0.29350 0.52900 0.15000
H 	H 	0.11100 0.30040 0.43100 -0.09600
H 	H 	0.30500 0.41650 0.39800 -0.10500
H 	H 	0.14310 0.36300 0.61400 -0.08800
H 	H 	0.28700 0.35600 0.62900 -0.07900
H 	H 	0.22700 0.33600 0.26200 -0.07200
H 	H 	0.15100 0.42720 0.38600 -0.08100
H 	H 	0.32230 0.28800 0.43900 -0.07600
H 	H 	0.20500 0.25720 0.57600 -0.08700
C 	C 	0.22130 0.40940 0.52600 -0.23400
C 	C 	0.22280 0.28200 0.40500 -0.22200
B 	B 	0.16530 0.30610 0.47420 0.08300
B 	B 	0.24520 0.39790 0.40800 0.09800
B 	B 	0.20010 0.35000 0.57710 0.13000
B 	B 	0.28000 0.36510 0.52830 0.10700
B 	B 	0.19740 0.34040 0.35480 0.15500
B 	B 	0.16340 0.38300 0.45970 0.15000
B 	B 	0.28030 0.32750 0.40330 0.14200
B 	B 	0.24720 0.29380 0.52330 0.12700
H 	H 	0.13200 0.27680 0.50600 -0.06800
H 	H 	0.26100 0.43170 0.36000 -0.07900
H 	H 	0.19100 0.34600 0.65800 -0.07700
H 	H 	0.32230 0.37300 0.57100 -0.07600
H 	H 	0.17960 0.33400 0.27800 -0.08800
H 	H 	0.12100 0.40780 0.45800 -0.10400
H 	H 	0.32200 0.31200 0.36500 -0.09900
H 	H 	0.26300 0.25770 0.56500 -0.07500
