data_crystal

_cell_length_a 9.67730
_cell_length_b 13.86760
_cell_length_c 15.44820
_cell_angle_alpha 90.00000
_cell_angle_beta  90.03900
_cell_angle_gamma 90.00000

_symmetry_space_group_name_	'P 1'
_symmetry_space_group_name_H-M	'P 1'

loop_
_symmetry_equiv_pos_as_xyz
  x,y,z

loop_
_atom_site_label
_atom_site_type_symbol
_atom_site_fract_x
_atom_site_fract_y
_atom_site_fract_z
_atom_site_charge
Zn	Zn	0.55746 0.39763 0.58003 1.22900
Zn	Zn	0.46736 0.10724 0.58594 1.22900
Zn	Zn	0.49578 0.24586 0.22530 1.23700
P 	P 	0.75136 0.21772 0.59656 0.44700
H 	H 	0.76310 0.22930 0.51210 -0.05100
P 	P 	0.27474 0.28910 0.62287 0.45400
H 	H 	0.21360 0.27420 0.54760 -0.05300
P 	P 	0.51388 0.11281 0.38056 0.43600
H 	H 	0.61390 0.17650 0.39100 -0.05900
P 	P 	0.46666 0.38585 0.38358 0.43600
H 	H 	0.37890 0.31650 0.40370 -0.05800
O 	O 	0.66250 0.12842 0.61099 -0.43300
O 	O 	0.68680 0.30909 0.63207 -0.46900
O 	O 	0.89500 0.20028 0.63148 -0.43300
O 	O 	0.36640 0.37758 0.61271 -0.43500
O 	O 	0.34970 0.19689 0.64662 -0.45700
O 	O 	0.16240 0.31528 0.68755 -0.41800
O 	O 	0.43060 0.11182 0.46332 -0.47200
O 	O 	0.58220 0.01593 0.36111 -0.42200
O 	O 	0.42420 0.14803 0.30529 -0.40900
O 	O 	0.57190 0.39228 0.45553 -0.47100
O 	O 	0.38370 0.47892 0.37212 -0.42300
O 	O 	0.53720 0.35762 0.29895 -0.40400
Zn	Zn	0.94254 0.89763 0.91997 1.22700
Zn	Zn	0.03264 0.60724 0.91406 1.22900
Zn	Zn	0.00422 0.74586 0.27470 1.23700
P 	P 	0.74864 0.71772 0.90344 0.44600
H 	H 	0.73690 0.72930 0.98790 -0.05300
P 	P 	0.22526 0.78910 0.87713 0.45400
H 	H 	0.28640 0.77420 0.95240 -0.05400
P 	P 	0.98612 0.61281 0.11944 0.44000
H 	H 	0.88610 0.67650 0.10900 -0.05900
P 	P 	0.03334 0.88585 0.11642 0.43400
H 	H 	0.12110 0.81650 0.09630 -0.05800
O 	O 	0.83750 0.62842 0.88901 -0.43400
O 	O 	0.81320 0.80909 0.86793 -0.47000
O 	O 	0.60500 0.70028 0.86852 -0.43400
O 	O 	0.13360 0.87758 0.88729 -0.43600
O 	O 	0.15030 0.69689 0.85338 -0.45700
O 	O 	0.33760 0.81528 0.81245 -0.41900
O 	O 	0.06940 0.61182 0.03668 -0.47400
O 	O 	0.91780 0.51593 0.13889 -0.42000
O 	O 	0.07580 0.64803 0.19471 -0.40900
O 	O 	0.92810 0.89228 0.04447 -0.46700
O 	O 	0.11630 0.97892 0.12788 -0.42200
O 	O 	0.96280 0.85762 0.20105 -0.40200
Zn	Zn	0.44254 0.60237 0.41997 1.22900
Zn	Zn	0.53264 0.89276 0.41406 1.22900
Zn	Zn	0.50422 0.75414 0.77470 1.23700
P 	P 	0.24864 0.78228 0.40344 0.44700
H 	H 	0.23690 0.77070 0.48790 -0.05100
P 	P 	0.72526 0.71090 0.37713 0.45400
H 	H 	0.78640 0.72580 0.45240 -0.05300
P 	P 	0.48612 0.88719 0.61944 0.43600
H 	H 	0.38610 0.82350 0.60900 -0.05900
P 	P 	0.53334 0.61415 0.61642 0.43600
H 	H 	0.62110 0.68350 0.59630 -0.05800
O 	O 	0.33750 0.87158 0.38901 -0.43300
O 	O 	0.31320 0.69091 0.36793 -0.46900
O 	O 	0.10500 0.79972 0.36852 -0.43300
O 	O 	0.63360 0.62242 0.38729 -0.43500
O 	O 	0.65030 0.80311 0.35338 -0.45700
O 	O 	0.83760 0.68472 0.31245 -0.41800
O 	O 	0.56940 0.88818 0.53668 -0.47200
O 	O 	0.41780 0.98407 0.63889 -0.42200
O 	O 	0.57580 0.85197 0.69471 -0.40900
O 	O 	0.42810 0.60772 0.54447 -0.47100
O 	O 	0.61630 0.52108 0.62788 -0.42300
O 	O 	0.46280 0.64238 0.70105 -0.40400
Zn	Zn	0.05746 0.10237 0.08003 1.22700
Zn	Zn	0.96736 0.39276 0.08594 1.22900
Zn	Zn	0.99578 0.25414 0.72530 1.23700
P 	P 	0.25136 0.28228 0.09656 0.44600
H 	H 	0.26310 0.27070 0.01210 -0.05300
P 	P 	0.77474 0.21090 0.12287 0.45400
H 	H 	0.71360 0.22580 0.04760 -0.05400
P 	P 	0.01388 0.38719 0.88056 0.44000
H 	H 	0.11390 0.32350 0.89100 -0.05900
P 	P 	0.96666 0.11415 0.88358 0.43400
H 	H 	0.87890 0.18350 0.90370 -0.05800
O 	O 	0.16250 0.37158 0.11099 -0.43400
O 	O 	0.18680 0.19091 0.13207 -0.47000
O 	O 	0.39500 0.29972 0.13148 -0.43400
O 	O 	0.86640 0.12242 0.11271 -0.43600
O 	O 	0.84970 0.30311 0.14662 -0.45700
O 	O 	0.66240 0.18472 0.18755 -0.41900
O 	O 	0.93060 0.38818 0.96332 -0.47400
O 	O 	0.08220 0.48407 0.86111 -0.42000
O 	O 	0.92420 0.35197 0.80529 -0.40900
O 	O 	0.07190 0.10772 0.95553 -0.46700
O 	O 	0.88370 0.02108 0.87212 -0.42200
O 	O 	0.03720 0.14238 0.79895 -0.40200
