data_crystal

_cell_length_a 29.47690
_cell_length_b 7.37350
_cell_length_c 17.46310
_cell_angle_alpha 90.00000
_cell_angle_beta  93.65200
_cell_angle_gamma 90.00000

_symmetry_space_group_name_	'P 1'
_symmetry_space_group_name_H-M	'P 1'

loop_
_symmetry_equiv_pos_as_xyz
  x,y,z

loop_
_atom_site_label
_atom_site_type_symbol
_atom_site_fract_x
_atom_site_fract_y
_atom_site_fract_z
_atom_site_charge
Co	Co	0.98335 0.12129 0.15231 1.04800
N 	N 	0.05184 0.14300 0.13784 -0.33400
N 	N 	0.12981 0.25010 0.14970 -0.19800
N 	N 	0.19341 0.24580 0.06820 -0.31700
N 	N 	0.96548 0.33110 0.08020 -0.31200
N 	N 	0.94006 0.62320 0.02630 -0.20200
N 	N 	0.97178 0.91140 0.07560 -0.30900
N 	N 	0.41706 0.59410 0.18513 -0.32500
N 	N 	0.33521 0.53960 0.18700 -0.19200
N 	N 	0.28901 0.36570 0.09140 -0.31700
C 	C 	0.08890 0.18990 0.13820 0.13500
C 	C 	0.16185 0.24090 0.10270 0.14100
C 	C 	0.95537 0.47170 0.05750 0.11100
C 	C 	0.95786 0.77480 0.05400 0.10500
C 	C 	0.37864 0.56340 0.18360 0.14000
C 	C 	0.31227 0.44510 0.13350 0.13000
Co	Co	0.48335 0.62129 0.15231 1.04600
N 	N 	0.55184 0.64300 0.13784 -0.33500
N 	N 	0.62981 0.75010 0.14970 -0.19800
N 	N 	0.69341 0.74580 0.06820 -0.31700
N 	N 	0.46548 0.83110 0.08020 -0.31200
N 	N 	0.44006 0.12320 0.02630 -0.20300
N 	N 	0.47178 0.41140 0.07560 -0.31000
N 	N 	0.91706 0.09410 0.18513 -0.32500
N 	N 	0.83521 0.03960 0.18700 -0.19300
N 	N 	0.78901 0.86570 0.09140 -0.31700
C 	C 	0.58890 0.68990 0.13820 0.13500
C 	C 	0.66185 0.74090 0.10270 0.14100
C 	C 	0.45537 0.97170 0.05750 0.11200
C 	C 	0.45786 0.27480 0.05400 0.10400
C 	C 	0.87864 0.06340 0.18360 0.14000
C 	C 	0.81227 0.94510 0.13350 0.13200
Co	Co	0.01665 0.87871 0.84769 1.05600
N 	N 	0.94816 0.85700 0.86216 -0.32300
N 	N 	0.87019 0.74990 0.85030 -0.19900
N 	N 	0.80659 0.75420 0.93180 -0.28600
N 	N 	0.03452 0.66890 0.91980 -0.29600
N 	N 	0.05994 0.37680 0.97370 -0.17600
N 	N 	0.02822 0.08860 0.92440 -0.29400
N 	N 	0.58294 0.40590 0.81487 -0.32200
N 	N 	0.66479 0.46040 0.81300 -0.19100
N 	N 	0.71099 0.63430 0.90860 -0.28800
C 	C 	0.91110 0.81010 0.86180 0.17200
C 	C 	0.83815 0.75910 0.89730 0.18100
C 	C 	0.04463 0.52830 0.94250 0.15500
C 	C 	0.04214 0.22520 0.94600 0.15100
C 	C 	0.62136 0.43660 0.81640 0.15600
C 	C 	0.68773 0.55490 0.86650 0.15400
Co	Co	0.51665 0.37871 0.84769 1.05600
N 	N 	0.44816 0.35700 0.86216 -0.32300
N 	N 	0.37019 0.24990 0.85030 -0.19900
N 	N 	0.30659 0.25420 0.93180 -0.28600
N 	N 	0.53452 0.16890 0.91980 -0.29600
N 	N 	0.55994 0.87680 0.97370 -0.17600
N 	N 	0.52822 0.58860 0.92440 -0.29300
N 	N 	0.08294 0.90590 0.81487 -0.32200
N 	N 	0.16479 0.96040 0.81300 -0.19000
N 	N 	0.21099 0.13430 0.90860 -0.28800
C 	C 	0.41110 0.31010 0.86180 0.17200
C 	C 	0.33815 0.25910 0.89730 0.18000
C 	C 	0.54463 0.02830 0.94250 0.15400
C 	C 	0.54214 0.72520 0.94600 0.15100
C 	C 	0.12136 0.93660 0.81640 0.15600
C 	C 	0.18773 0.05490 0.86650 0.15300
Co	Co	0.25000 0.25000 -0.00000 1.04600
Co	Co	0.75000 0.75000 -0.00000 1.04600
Co	Co	0.01665 0.12129 0.34769 1.05000
N 	N 	0.94816 0.14300 0.36216 -0.32900
N 	N 	0.87019 0.25010 0.35030 -0.19900
N 	N 	0.80659 0.24580 0.43180 -0.30700
N 	N 	0.03452 0.33110 0.41980 -0.30500
N 	N 	0.05994 0.62320 0.47370 -0.18900
N 	N 	0.02822 0.91140 0.42440 -0.30200
N 	N 	0.58294 0.59410 0.31487 -0.32400
N 	N 	0.66479 0.53960 0.31300 -0.19300
N 	N 	0.71099 0.36570 0.40860 -0.30700
C 	C 	0.91110 0.18990 0.36180 0.15300
C 	C 	0.83815 0.24090 0.39730 0.16000
C 	C 	0.04463 0.47170 0.44250 0.13200
C 	C 	0.04214 0.77480 0.44600 0.12700
C 	C 	0.62136 0.56340 0.31640 0.14600
C 	C 	0.68773 0.44510 0.36650 0.14000
Co	Co	0.51665 0.62129 0.34769 1.05100
N 	N 	0.44816 0.64300 0.36216 -0.32900
N 	N 	0.37019 0.75010 0.35030 -0.19900
N 	N 	0.30659 0.74580 0.43180 -0.30600
N 	N 	0.53452 0.83110 0.41980 -0.30400
N 	N 	0.55994 0.12320 0.47370 -0.19000
N 	N 	0.52822 0.41140 0.42440 -0.30200
N 	N 	0.08294 0.09410 0.31487 -0.32400
N 	N 	0.16479 0.03960 0.31300 -0.19400
N 	N 	0.21099 0.86570 0.40860 -0.30700
C 	C 	0.41110 0.68990 0.36180 0.15300
C 	C 	0.33815 0.74090 0.39730 0.16000
C 	C 	0.54463 0.97170 0.44250 0.13300
C 	C 	0.54214 0.27480 0.44600 0.12600
C 	C 	0.12136 0.06340 0.31640 0.14500
C 	C 	0.18773 0.94510 0.36650 0.14200
Co	Co	0.98335 0.87871 0.65231 1.05200
N 	N 	0.05184 0.85700 0.63784 -0.32900
N 	N 	0.12981 0.74990 0.64970 -0.19800
N 	N 	0.19341 0.75420 0.56820 -0.30600
N 	N 	0.96548 0.66890 0.58020 -0.30400
N 	N 	0.94006 0.37680 0.52630 -0.18900
N 	N 	0.97178 0.08860 0.57560 -0.30100
N 	N 	0.41706 0.40590 0.68513 -0.32300
N 	N 	0.33521 0.46040 0.68700 -0.19100
N 	N 	0.28901 0.63430 0.59140 -0.30700
C 	C 	0.08890 0.81010 0.63820 0.15400
C 	C 	0.16185 0.75910 0.60270 0.16200
C 	C 	0.95537 0.52830 0.55750 0.13400
C 	C 	0.95786 0.22520 0.55400 0.12800
C 	C 	0.37864 0.43660 0.68360 0.14900
C 	C 	0.31227 0.55490 0.63350 0.14400
Co	Co	0.48335 0.37871 0.65231 1.05200
N 	N 	0.55184 0.35700 0.63784 -0.32900
N 	N 	0.62981 0.24990 0.64970 -0.19800
N 	N 	0.69341 0.25420 0.56820 -0.30600
N 	N 	0.46548 0.16890 0.58020 -0.30400
N 	N 	0.44006 0.87680 0.52630 -0.18900
N 	N 	0.47178 0.58860 0.57560 -0.30200
N 	N 	0.91706 0.90590 0.68513 -0.32300
N 	N 	0.83521 0.96040 0.68700 -0.19000
N 	N 	0.78901 0.13430 0.59140 -0.30700
C 	C 	0.58890 0.31010 0.63820 0.15400
C 	C 	0.66185 0.25910 0.60270 0.16200
C 	C 	0.45537 0.02830 0.55750 0.13100
C 	C 	0.45786 0.72520 0.55400 0.12800
C 	C 	0.87864 0.93660 0.68360 0.15000
C 	C 	0.81227 0.05490 0.63350 0.14400
Co	Co	0.75000 0.25000 0.50000 1.07400
Co	Co	0.25000 0.75000 0.50000 1.07500
