data_crystal

_cell_length_a 8.44700
_cell_length_b 11.12510
_cell_length_c 17.58100
_cell_angle_alpha 77.88200
_cell_angle_beta  88.74100
_cell_angle_gamma 79.06000

_symmetry_space_group_name_	'P 1'
_symmetry_space_group_name_H-M	'P 1'

loop_
_symmetry_equiv_pos_as_xyz
  x,y,z

loop_
_atom_site_label
_atom_site_type_symbol
_atom_site_fract_x
_atom_site_fract_y
_atom_site_fract_z
_atom_site_charge
C 	C 	0.79350 0.48630 0.36520 0.09800
C 	C 	0.79600 0.42790 0.30120 -0.11400
H 	H 	0.71180 0.43740 0.26600 0.08100
C 	C 	0.94420 0.35530 0.30060 -0.00400
H 	H 	0.98110 0.30590 0.26490 0.04400
C 	C 	0.03430 0.36970 0.36670 0.01600
C 	C 	0.18850 0.30750 0.38480 -0.08500
C 	C 	0.26860 0.31710 0.44800 0.07400
C 	C 	0.42840 0.25080 0.47170 -0.07500
H 	H 	0.49390 0.19670 0.44520 0.05800
C 	C 	0.46670 0.27820 0.53580 -0.07200
H 	H 	0.56100 0.24330 0.56500 0.05200
C 	C 	0.33680 0.37320 0.55470 0.07700
C 	C 	0.33950 0.42370 0.61780 -0.09700
C 	C 	0.27070 0.22550 0.33120 0.00200
C 	C 	0.35690 0.27810 0.26850 -0.00900
H 	H 	0.36810 0.36130 0.26140 0.03900
C 	C 	0.42810 0.20280 0.21520 -0.17400
H 	H 	0.48510 0.23800 0.17320 0.10000
C 	C 	0.41410 0.08430 0.22470 0.18700
C 	C 	0.32880 0.02920 0.28690 -0.16600
H 	H 	0.31780 0.94610 0.29310 0.07900
C 	C 	0.25970 0.10140 0.34020 -0.01400
H 	H 	0.20530 0.06440 0.38260 0.02400
C 	C 	0.58220 0.03920 0.11790 -0.17400
H 	H 	0.64820 0.96370 0.10680 0.10200
H 	H 	0.65300 0.08370 0.13920 0.08400
C 	C 	0.50820 0.12120 0.04160 0.34800
C 	C 	0.47870 0.38680 0.67410 0.00500
C 	C 	0.45390 0.32420 0.75000 0.00700
H 	H 	0.35240 0.30690 0.76390 0.04200
C 	C 	0.57830 0.28800 0.80430 -0.17200
H 	H 	0.56050 0.24640 0.85450 0.12100
C 	C 	0.73020 0.31370 0.78420 0.19000
C 	C 	0.75560 0.37460 0.70940 -0.17100
H 	H 	0.85720 0.39130 0.69530 0.08300
C 	C 	0.62930 0.41120 0.65480 -0.00700
H 	H 	0.64740 0.45270 0.60460 0.02200
C 	C 	0.99860 0.29800 0.83320 -0.14400
H 	H 	0.99380 0.38750 0.82620 0.10700
H 	H 	0.04740 0.27080 0.78770 0.05100
C 	C 	0.09500 0.23050 0.90430 0.42900
K 	K 	0.84368 0.00772 0.90829 0.66000
N 	N 	0.93970 0.44940 0.40680 -0.24800
N 	N 	0.21230 0.39290 0.50060 -0.27300
O 	O 	0.46960 0.00420 0.17560 -0.21500
O 	O 	0.35660 0.16530 0.03970 -0.32600
O 	O 	0.60080 0.13700 0.98670 -0.31000
O 	O 	0.84330 0.27050 0.84310 -0.22000
O 	O 	0.22540 0.27300 0.91230 -0.53500
H 	H 	0.25550 0.25270 0.95800 0.33400
O 	O 	0.05830 0.14440 0.94840 -0.41600
C 	C 	0.20650 0.51370 0.63480 0.06500
C 	C 	0.20400 0.57210 0.69880 -0.05100
H 	H 	0.28820 0.56260 0.73400 0.05200
C 	C 	0.05580 0.64470 0.69940 -0.14800
H 	H 	0.01890 0.69410 0.73510 0.06800
C 	C 	0.96570 0.63030 0.63330 0.15900
C 	C 	0.81150 0.69250 0.61520 -0.14100
C 	C 	0.73140 0.68290 0.55200 0.10600
C 	C 	0.57160 0.74920 0.52830 -0.09200
H 	H 	0.50610 0.80330 0.55480 0.06100
C 	C 	0.53330 0.72180 0.46420 -0.06500
H 	H 	0.43900 0.75670 0.43500 0.04600
C 	C 	0.66320 0.62680 0.44530 0.08300
C 	C 	0.66050 0.57630 0.38220 -0.11000
C 	C 	0.72930 0.77450 0.66880 0.04200
C 	C 	0.64310 0.72190 0.73150 -0.03000
H 	H 	0.63190 0.63870 0.73860 0.04900
C 	C 	0.57190 0.79720 0.78480 -0.15500
H 	H 	0.51490 0.76200 0.82680 0.09200
C 	C 	0.58590 0.91570 0.77530 0.17500
C 	C 	0.67120 0.97080 0.71310 -0.14600
H 	H 	0.68220 0.05390 0.70690 0.07800
C 	C 	0.74030 0.89860 0.65980 -0.03500
H 	H 	0.79470 0.93560 0.61740 0.04300
C 	C 	0.41780 0.96080 0.88210 -0.17400
H 	H 	0.35180 0.03630 0.89320 0.10000
H 	H 	0.34700 0.91630 0.86080 0.07700
C 	C 	0.49180 0.87880 0.95840 0.34900
C 	C 	0.52130 0.61320 0.32590 0.02700
C 	C 	0.54610 0.67580 0.25000 -0.01800
H 	H 	0.64760 0.69310 0.23610 0.05400
C 	C 	0.42170 0.71200 0.19570 -0.14200
H 	H 	0.43950 0.75360 0.14550 0.10800
C 	C 	0.26980 0.68630 0.21580 0.14600
C 	C 	0.24440 0.62540 0.29060 -0.14000
H 	H 	0.14280 0.60870 0.30470 0.05500
C 	C 	0.37070 0.58880 0.34520 -0.03500
H 	H 	0.35260 0.54730 0.39540 0.03000
C 	C 	0.00140 0.70200 0.16680 -0.40700
H 	H 	0.00620 0.61250 0.17380 0.16100
H 	H 	0.95260 0.72920 0.21230 0.17200
C 	C 	0.90500 0.76950 0.09570 0.56000
K 	K 	0.15632 0.99228 0.09171 0.65100
N 	N 	0.06030 0.55060 0.59320 -0.30000
N 	N 	0.78770 0.60710 0.49940 -0.26900
O 	O 	0.53040 0.99580 0.82440 -0.21100
O 	O 	0.64340 0.83470 0.96030 -0.32200
O 	O 	0.39920 0.86300 0.01330 -0.31700
O 	O 	0.15670 0.72950 0.15690 -0.17800
O 	O 	0.77460 0.72700 0.08770 -0.57000
H 	H 	0.74450 0.74730 0.04200 0.35000
O 	O 	0.94170 0.85560 0.05160 -0.42900
Ni	Ni	-0.00000 0.50000 0.50000 1.03100
