data_crystal

_cell_length_a 12.63680
_cell_length_b 14.48270
_cell_length_c 18.08200
_cell_angle_alpha 83.37300
_cell_angle_beta  69.73200
_cell_angle_gamma 85.88800

_symmetry_space_group_name_	'P 1'
_symmetry_space_group_name_H-M	'P 1'

loop_
_symmetry_equiv_pos_as_xyz
  x,y,z

loop_
_atom_site_label
_atom_site_type_symbol
_atom_site_fract_x
_atom_site_fract_y
_atom_site_fract_z
_atom_site_charge
Ni	Ni	0.20734 0.02331 0.48400 1.05300
C 	C 	0.22751 0.22828 0.48168 0.09400
C 	C 	0.21777 0.31363 0.43553 -0.07600
H 	H 	0.24070 0.37160 0.44030 0.07900
C 	C 	0.16914 0.29414 0.38398 -0.07900
H 	H 	0.15220 0.33600 0.34630 0.08000
C 	C 	0.14830 0.19664 0.39810 0.08700
N 	N 	0.18841 0.15573 0.45665 -0.27300
C 	C 	0.08994 0.15206 0.36168 -0.11100
C 	C 	0.07212 0.05812 0.37670 0.08500
C 	C 	0.00225 0.01117 0.34756 -0.12600
H 	H 	0.95610 0.03870 0.32020 0.07000
C 	C 	0.01473 0.92017 0.36657 -0.08400
H 	H 	0.97830 0.87260 0.35570 0.05200
C 	C 	0.09533 0.91001 0.40713 0.07400
N 	N 	0.12577 0.99565 0.41707 -0.27700
C 	C 	0.14341 0.82528 0.42529 -0.10300
C 	C 	0.21498 0.81915 0.46924 0.08800
C 	C 	0.27054 0.73469 0.48783 -0.07700
H 	H 	0.27140 0.67770 0.46860 0.06200
C 	C 	0.32114 0.75329 0.53832 -0.08400
H 	H 	0.36220 0.71120 0.56170 0.07300
C 	C 	0.30019 0.84987 0.54952 0.08800
N 	N 	0.23749 0.89091 0.50422 -0.27200
C 	C 	0.33459 0.89391 0.60072 -0.10300
C 	C 	0.31768 0.98795 0.60662 0.08600
C 	C 	0.33983 0.03413 0.66472 -0.08100
H 	H 	0.36410 0.00610 0.70520 0.06000
C 	C 	0.31930 0.12552 0.65053 -0.08200
H 	H 	0.32570 0.17260 0.67950 0.06300
C 	C 	0.28530 0.13617 0.58137 0.09300
N 	N 	0.27865 0.05143 0.55749 -0.27500
C 	C 	0.26734 0.22179 0.54402 -0.11200
C 	C 	0.04534 0.20786 0.30327 0.01700
C 	C 	0.96164 0.27521 0.32627 -0.01000
H 	H 	0.93160 0.28640 0.37930 0.03900
C 	C 	0.92138 0.32654 0.27193 -0.15200
H 	H 	0.86470 0.37200 0.28850 0.10100
C 	C 	0.96436 0.31089 0.19421 0.17600
C 	C 	0.04984 0.24516 0.16900 -0.14600
H 	H 	0.08100 0.23580 0.11560 0.09300
C 	C 	0.08902 0.19313 0.22404 -0.01000
H 	H 	0.14560 0.14760 0.20740 0.04300
C 	C 	0.95480 0.35620 0.06529 -0.26300
H 	H 	0.96980 0.29130 0.05530 0.12100
H 	H 	0.02400 0.38950 0.03970 0.13700
C 	C 	0.86280 0.39790 0.03383 0.52000
O 	O 	0.91487 0.36451 0.14675 -0.15700
O 	O 	0.76949 0.40924 0.07563 -0.37900
O 	O 	0.89885 0.41701 0.95912 -0.56800
H 	H 	0.84660 0.43830 0.94460 0.34100
C 	C 	0.12658 0.74104 0.39058 0.01900
C 	C 	0.15463 0.74313 0.30980 -0.01100
H 	H 	0.17600 0.79910 0.27880 0.04000
C 	C 	0.15225 0.66505 0.27282 -0.15200
H 	H 	0.17130 0.66890 0.21810 0.09400
C 	C 	0.12142 0.58185 0.31803 0.18700
C 	C 	0.08727 0.57952 0.40015 -0.14400
H 	H 	0.06280 0.52430 0.43140 0.08900
C 	C 	0.08934 0.65745 0.43516 -0.01400
H 	H 	0.06530 0.65460 0.49010 0.03700
C 	C 	0.13917 0.50259 0.20684 -0.21200
H 	H 	0.09130 0.55230 0.19340 0.11200
H 	H 	0.11480 0.44460 0.19700 0.11700
C 	C 	0.25951 0.51733 0.15170 0.38000
O 	O 	0.12146 0.49969 0.28842 -0.17800
O 	O 	0.33859 0.51024 0.17752 -0.33000
O 	O 	0.27041 0.53415 0.08002 -0.34100
C 	C 	0.38699 0.83796 0.65464 0.00100
C 	C 	0.32346 0.77705 0.71417 0.01300
H 	H 	0.24990 0.76710 0.71770 0.03900
C 	C 	0.36596 0.72989 0.76929 -0.17700
H 	H 	0.32130 0.68860 0.80930 0.12900
C 	C 	0.47390 0.74402 0.76488 0.20300
C 	C 	0.54182 0.80144 0.70330 -0.18000
H 	H 	0.61660 0.80860 0.69840 0.08900
C 	C 	0.49764 0.84852 0.64866 0.01000
H 	H 	0.54320 0.88780 0.60730 0.00400
C 	C 	0.60467 0.72436 0.83375 -0.24500
H 	H 	0.60420 0.79170 0.82980 0.11800
H 	H 	0.67170 0.70290 0.79300 0.12700
C 	C 	0.60523 0.68450 0.91428 0.47200
O 	O 	0.50777 0.69511 0.82346 -0.18500
O 	O 	0.69297 0.71179 0.92646 -0.52200
H 	H 	0.69230 0.69060 0.97070 0.27500
O 	O 	0.53831 0.63361 0.96014 -0.39200
C 	C 	0.29927 0.30841 0.56833 0.02800
C 	C 	0.22514 0.38305 0.58785 -0.02500
H 	H 	0.15200 0.37970 0.58770 0.04500
C 	C 	0.25754 0.46251 0.60751 -0.13400
H 	H 	0.20640 0.51260 0.62030 0.08700
C 	C 	0.36719 0.46873 0.60837 0.17500
C 	C 	0.44113 0.39449 0.59038 -0.14300
H 	H 	0.51370 0.39710 0.59190 0.08800
C 	C 	0.40739 0.31536 0.56987 -0.02300
H 	H 	0.45860 0.26540 0.55670 0.04100
C 	C 	0.50220 0.56436 0.62549 -0.23900
H 	H 	0.51480 0.63040 0.62020 0.12500
H 	H 	0.55520 0.53840 0.57910 0.11900
C 	C 	0.52495 0.51921 0.69833 0.45700
O 	O 	0.39045 0.55153 0.62822 -0.17000
O 	O 	0.63276 0.52530 0.68773 -0.52800
H 	H 	0.64500 0.50320 0.72800 0.33400
O 	O 	0.45627 0.48677 0.75671 -0.34500
K 	K 	0.42860 0.50226 0.91774 0.66800
Ni	Ni	0.79266 0.97669 0.51600 1.05200
C 	C 	0.77249 0.77172 0.51832 0.09300
C 	C 	0.78223 0.68637 0.56447 -0.07700
H 	H 	0.75930 0.62840 0.55970 0.07800
C 	C 	0.83086 0.70586 0.61602 -0.08000
H 	H 	0.84780 0.66400 0.65370 0.07900
C 	C 	0.85170 0.80336 0.60190 0.08600
N 	N 	0.81159 0.84427 0.54335 -0.27400
C 	C 	0.91006 0.84794 0.63832 -0.11200
C 	C 	0.92788 0.94188 0.62330 0.08400
C 	C 	0.99775 0.98883 0.65244 -0.12700
H 	H 	0.04390 0.96130 0.67980 0.06900
C 	C 	0.98527 0.07983 0.63343 -0.08500
H 	H 	0.02170 0.12740 0.64430 0.05100
C 	C 	0.90467 0.08999 0.59287 0.07400
N 	N 	0.87423 0.00435 0.58293 -0.27700
C 	C 	0.85659 0.17472 0.57471 -0.10300
C 	C 	0.78502 0.18085 0.53076 0.08800
C 	C 	0.72946 0.26531 0.51217 -0.07700
H 	H 	0.72860 0.32230 0.53140 0.06200
C 	C 	0.67886 0.24671 0.46168 -0.08400
H 	H 	0.63780 0.28880 0.43830 0.07300
C 	C 	0.69981 0.15013 0.45048 0.08800
N 	N 	0.76251 0.10909 0.49578 -0.27200
C 	C 	0.66541 0.10609 0.39928 -0.10300
C 	C 	0.68232 0.01205 0.39338 0.08600
C 	C 	0.66017 0.96587 0.33528 -0.08100
H 	H 	0.63590 0.99390 0.29480 0.06000
C 	C 	0.68070 0.87448 0.34947 -0.08200
H 	H 	0.67430 0.82740 0.32050 0.06300
C 	C 	0.71470 0.86383 0.41863 0.09300
N 	N 	0.72135 0.94857 0.44251 -0.27500
C 	C 	0.73266 0.77821 0.45598 -0.11200
C 	C 	0.95466 0.79214 0.69673 0.01700
C 	C 	0.03836 0.72479 0.67373 -0.01000
H 	H 	0.06840 0.71360 0.62070 0.03900
C 	C 	0.07862 0.67346 0.72807 -0.15200
H 	H 	0.13530 0.62800 0.71150 0.10100
C 	C 	0.03564 0.68911 0.80579 0.17600
C 	C 	0.95016 0.75484 0.83100 -0.14600
H 	H 	0.91900 0.76420 0.88440 0.09300
C 	C 	0.91098 0.80687 0.77596 -0.01000
H 	H 	0.85440 0.85240 0.79260 0.04300
C 	C 	0.04520 0.64380 0.93471 -0.26300
H 	H 	0.03020 0.70870 0.94470 0.12100
H 	H 	0.97600 0.61050 0.96030 0.13700
C 	C 	0.13720 0.60210 0.96617 0.52000
O 	O 	0.08513 0.63549 0.85325 -0.15700
O 	O 	0.23051 0.59076 0.92437 -0.37900
O 	O 	0.10115 0.58299 0.04088 -0.56800
H 	H 	0.15340 0.56170 0.05540 0.34100
C 	C 	0.87342 0.25896 0.60942 0.01900
C 	C 	0.84537 0.25687 0.69020 -0.01100
H 	H 	0.82400 0.20090 0.72120 0.04000
C 	C 	0.84775 0.33495 0.72718 -0.15200
H 	H 	0.82870 0.33110 0.78190 0.09400
C 	C 	0.87858 0.41815 0.68197 0.18700
C 	C 	0.91273 0.42048 0.59985 -0.14400
H 	H 	0.93720 0.47570 0.56860 0.08900
C 	C 	0.91066 0.34255 0.56484 -0.01400
H 	H 	0.93470 0.34540 0.50990 0.03700
C 	C 	0.86083 0.49741 0.79316 -0.21200
H 	H 	0.90870 0.44770 0.80660 0.11200
H 	H 	0.88520 0.55540 0.80300 0.11700
C 	C 	0.74049 0.48267 0.84830 0.38000
O 	O 	0.87854 0.50031 0.71158 -0.17800
O 	O 	0.66141 0.48976 0.82248 -0.33000
O 	O 	0.72959 0.46585 0.91998 -0.34100
C 	C 	0.61301 0.16204 0.34536 0.00100
C 	C 	0.67654 0.22295 0.28583 0.01300
H 	H 	0.75010 0.23290 0.28230 0.03900
C 	C 	0.63404 0.27011 0.23071 -0.17700
H 	H 	0.67870 0.31140 0.19070 0.12900
C 	C 	0.52610 0.25598 0.23512 0.20300
C 	C 	0.45818 0.19856 0.29670 -0.18000
H 	H 	0.38340 0.19140 0.30160 0.08900
C 	C 	0.50236 0.15148 0.35134 0.01000
H 	H 	0.45680 0.11220 0.39270 0.00400
C 	C 	0.39533 0.27564 0.16625 -0.24500
H 	H 	0.39580 0.20830 0.17020 0.11800
H 	H 	0.32830 0.29710 0.20700 0.12700
C 	C 	0.39477 0.31550 0.08572 0.47200
O 	O 	0.49223 0.30489 0.17654 -0.18500
O 	O 	0.30703 0.28821 0.07354 -0.52200
H 	H 	0.30770 0.30940 0.02930 0.27500
O 	O 	0.46169 0.36639 0.03986 -0.39200
C 	C 	0.70073 0.69159 0.43167 0.02800
C 	C 	0.77486 0.61695 0.41215 -0.02500
H 	H 	0.84800 0.62030 0.41230 0.04500
C 	C 	0.74246 0.53749 0.39249 -0.13400
H 	H 	0.79360 0.48740 0.37970 0.08700
C 	C 	0.63281 0.53127 0.39163 0.17500
C 	C 	0.55887 0.60551 0.40962 -0.14300
H 	H 	0.48630 0.60290 0.40810 0.08800
C 	C 	0.59261 0.68464 0.43013 -0.02300
H 	H 	0.54140 0.73460 0.44330 0.04100
C 	C 	0.49780 0.43564 0.37451 -0.23900
H 	H 	0.48520 0.36960 0.37980 0.12500
H 	H 	0.44480 0.46160 0.42090 0.11900
C 	C 	0.47505 0.48079 0.30167 0.45700
O 	O 	0.60955 0.44847 0.37178 -0.17000
O 	O 	0.36724 0.47470 0.31227 -0.52800
H 	H 	0.35500 0.49680 0.27200 0.33400
O 	O 	0.54373 0.51323 0.24329 -0.34500
K 	K 	0.57140 0.49774 0.08226 0.66800
