data_crystal

_cell_length_a 10.05800
_cell_length_b 16.67900
_cell_length_c 18.52710
_cell_angle_alpha 106.22700
_cell_angle_beta  105.75000
_cell_angle_gamma 90.00000

_symmetry_space_group_name_	'P 1'
_symmetry_space_group_name_H-M	'P 1'

loop_
_symmetry_equiv_pos_as_xyz
  x,y,z

loop_
_atom_site_label
_atom_site_type_symbol
_atom_site_fract_x
_atom_site_fract_y
_atom_site_fract_z
_atom_site_charge
Cd	Cd	0.41094 0.87757 0.41838 1.23900
Cd	Cd	0.81234 0.78206 0.69376 1.20600
Cd	Cd	0.99256 0.62243 0.58162 1.23900
Cd	Cd	0.11858 0.71794 0.30624 1.20600
Cd	Cd	0.58906 0.12243 0.58162 1.23900
Cd	Cd	0.18766 0.21794 0.30624 1.20600
Cd	Cd	0.00744 0.37757 0.41838 1.23900
Cd	Cd	0.88142 0.28206 0.69376 1.20600
H 	H 	0.51650 0.85410 0.22580 0.07100
H 	H 	0.19750 0.86240 0.99300 0.08400
H 	H 	0.12650 0.82070 0.08680 0.03200
H 	H 	0.78720 0.83000 0.17140 0.08400
H 	H 	0.71660 0.88270 0.23360 0.08000
H 	H 	0.02150 0.89240 0.19720 0.11500
H 	H 	0.17550 0.00630 0.23460 -0.03000
H 	H 	0.88260 0.15560 0.25920 -0.02100
H 	H 	0.72440 0.04510 0.22560 0.11500
H 	H 	0.32660 0.91490 0.90860 0.07800
H 	H 	0.32820 0.82020 0.90700 0.07600
H 	H 	0.34120 0.80180 0.76860 0.11200
H 	H 	0.48880 0.78020 0.68960 -0.01800
H 	H 	0.80360 0.87360 0.87380 -0.01900
H 	H 	0.66150 0.90700 0.95200 0.12900
H 	H 	0.83430 0.90650 0.39300 0.02700
H 	H 	0.13250 0.07990 0.41560 0.00200
H 	H 	0.76190 0.14850 0.44160 0.01700
H 	H 	0.29070 0.64590 0.77420 0.07100
H 	H 	0.20450 0.63760 0.00700 0.08200
H 	H 	0.03970 0.67930 0.91320 0.03300
H 	H 	0.61580 0.67000 0.82860 0.08400
H 	H 	0.48300 0.61730 0.76640 0.08100
H 	H 	0.82430 0.60760 0.80280 0.11700
H 	H 	0.94090 0.49370 0.76540 -0.03100
H 	H 	0.62340 0.34440 0.74080 -0.02200
H 	H 	0.49880 0.45490 0.77440 0.11500
H 	H 	0.41800 0.58510 0.09140 0.07900
H 	H 	0.42120 0.67980 0.09300 0.07600
H 	H 	0.57260 0.69820 0.23140 0.11200
H 	H 	0.79920 0.71980 0.31040 -0.01800
H 	H 	0.92980 0.62640 0.12620 -0.01800
H 	H 	0.70950 0.59300 0.04800 0.12900
H 	H 	0.44130 0.59350 0.60700 0.02700
H 	H 	0.71690 0.42010 0.58440 0.00200
H 	H 	0.32030 0.35150 0.55840 0.01700
H 	H 	0.48350 0.14590 0.77420 0.07100
H 	H 	0.80250 0.13760 0.00700 0.08400
H 	H 	0.87350 0.17930 0.91320 0.03200
H 	H 	0.21280 0.17000 0.82860 0.08400
H 	H 	0.28340 0.11730 0.76640 0.08000
H 	H 	0.97850 0.10760 0.80280 0.11500
H 	H 	0.82450 0.99370 0.76540 -0.03000
H 	H 	0.11740 0.84440 0.74080 -0.02100
H 	H 	0.27560 0.95490 0.77440 0.11500
H 	H 	0.67340 0.08510 0.09140 0.07800
H 	H 	0.67180 0.17980 0.09300 0.07600
H 	H 	0.65880 0.19820 0.23140 0.11200
H 	H 	0.51120 0.21980 0.31040 -0.01800
H 	H 	0.19640 0.12640 0.12620 -0.01900
H 	H 	0.33850 0.09300 0.04800 0.12900
H 	H 	0.16570 0.09350 0.60700 0.02700
H 	H 	0.86750 0.92010 0.58440 0.00200
H 	H 	0.23810 0.85150 0.55840 0.01700
H 	H 	0.70930 0.35410 0.22580 0.07100
H 	H 	0.79550 0.36240 0.99300 0.08200
H 	H 	0.96030 0.32070 0.08680 0.03300
H 	H 	0.38420 0.33000 0.17140 0.08400
H 	H 	0.51700 0.38270 0.23360 0.08100
H 	H 	0.17570 0.39240 0.19720 0.11700
H 	H 	0.05910 0.50630 0.23460 -0.03100
H 	H 	0.37660 0.65560 0.25920 -0.02200
H 	H 	0.50120 0.54510 0.22560 0.11500
H 	H 	0.58200 0.41490 0.90860 0.07900
H 	H 	0.57880 0.32020 0.90700 0.07600
H 	H 	0.42740 0.30180 0.76860 0.11200
H 	H 	0.20080 0.28020 0.68960 -0.01800
H 	H 	0.07020 0.37360 0.87380 -0.01800
H 	H 	0.29050 0.40700 0.95200 0.12900
H 	H 	0.55870 0.40650 0.39300 0.02700
H 	H 	0.28310 0.57990 0.41560 0.00200
H 	H 	0.67970 0.64850 0.44160 0.01700
C 	C 	0.26320 0.79780 0.22220 0.32500
C 	C 	0.31040 0.83150 0.16540 -0.08300
C 	C 	0.45290 0.85350 0.17860 -0.06700
C 	C 	0.49700 0.87410 0.12120 0.07300
C 	C 	0.40390 0.87560 0.05200 0.11000
C 	C 	0.26150 0.85840 0.03840 -0.13400
C 	C 	0.22020 0.83490 0.09580 0.02900
C 	C 	0.74760 0.88260 0.18840 -0.12900
C 	C 	0.85200 0.95470 0.20820 0.17300
C 	C 	0.99100 0.94570 0.21020 -0.21300
C 	C 	0.08270 0.01420 0.23120 0.13000
C 	C 	0.91070 0.10160 0.24600 0.11100
C 	C 	0.81570 0.03530 0.22640 -0.20700
C 	C 	0.38620 0.87130 0.91920 -0.11000
C 	C 	0.48510 0.85760 0.86860 0.17400
C 	C 	0.43510 0.81880 0.79060 -0.21700
C 	C 	0.52500 0.80460 0.74340 0.11400
C 	C 	0.70870 0.86100 0.85160 0.12000
C 	C 	0.62460 0.87950 0.89880 -0.20900
C 	C 	0.63520 0.00110 0.42260 0.36600
C 	C 	0.77610 0.02470 0.41960 -0.15700
C 	C 	0.86430 0.96230 0.40280 0.08500
C 	C 	0.99970 0.98290 0.40080 -0.15400
C 	C 	0.04280 0.06580 0.41520 0.09600
C 	C 	0.95500 0.12820 0.42860 -0.15500
C 	C 	0.82100 0.10650 0.43160 0.07900
C 	C 	0.09350 0.91380 0.38400 0.40700
C 	C 	0.99130 0.21650 0.43240 0.35600
C 	C 	0.04100 0.70220 0.77780 0.32500
C 	C 	0.14500 0.66850 0.83460 -0.08200
C 	C 	0.27430 0.64650 0.82140 -0.06800
C 	C 	0.37580 0.62590 0.87880 0.07400
C 	C 	0.35190 0.62440 0.94800 0.10800
C 	C 	0.22310 0.64160 0.96160 -0.13100
C 	C 	0.12440 0.66510 0.90420 0.02700
C 	C 	0.55920 0.61740 0.81160 -0.13000
C 	C 	0.64380 0.54530 0.79180 0.17400
C 	C 	0.78080 0.55430 0.78980 -0.21900
C 	C 	0.85150 0.48580 0.76880 0.13300
C 	C 	0.66470 0.39840 0.75400 0.11200
C 	C 	0.58930 0.46470 0.77360 -0.20700
C 	C 	0.46700 0.62870 0.08080 -0.11100
C 	C 	0.61650 0.64240 0.13140 0.17400
C 	C 	0.64450 0.68120 0.20940 -0.21700
C 	C 	0.78160 0.69540 0.25660 0.11400
C 	C 	0.85710 0.63900 0.14840 0.12100
C 	C 	0.72580 0.62050 0.10120 -0.20900
C 	C 	0.21260 0.49890 0.57740 0.36600
C 	C 	0.35650 0.47530 0.58040 -0.15600
C 	C 	0.46150 0.53770 0.59720 0.08400
C 	C 	0.59890 0.51710 0.59920 -0.15500
C 	C 	0.62760 0.43420 0.58480 0.09600
C 	C 	0.52640 0.37180 0.57140 -0.15400
C 	C 	0.38940 0.39350 0.56840 0.07900
C 	C 	0.70950 0.58620 0.61600 0.40900
C 	C 	0.55890 0.28350 0.56760 0.35600
C 	C 	0.73680 0.20220 0.77780 0.32500
C 	C 	0.68960 0.16850 0.83460 -0.08300
C 	C 	0.54710 0.14650 0.82140 -0.06700
C 	C 	0.50300 0.12590 0.87880 0.07300
C 	C 	0.59610 0.12440 0.94800 0.11000
C 	C 	0.73850 0.14160 0.96160 -0.13400
C 	C 	0.77980 0.16510 0.90420 0.02900
C 	C 	0.25240 0.11740 0.81160 -0.12900
C 	C 	0.14800 0.04530 0.79180 0.17300
C 	C 	0.00900 0.05430 0.78980 -0.21300
C 	C 	0.91730 0.98580 0.76880 0.13000
C 	C 	0.08930 0.89840 0.75400 0.11100
C 	C 	0.18430 0.96470 0.77360 -0.20700
C 	C 	0.61380 0.12870 0.08080 -0.11000
C 	C 	0.51490 0.14240 0.13140 0.17400
C 	C 	0.56490 0.18120 0.20940 -0.21700
C 	C 	0.47500 0.19540 0.25660 0.11400
C 	C 	0.29130 0.13900 0.14840 0.12000
C 	C 	0.37540 0.12050 0.10120 -0.20900
C 	C 	0.36480 0.99890 0.57740 0.36600
C 	C 	0.22390 0.97530 0.58040 -0.15700
C 	C 	0.13570 0.03770 0.59720 0.08500
C 	C 	0.00030 0.01710 0.59920 -0.15400
C 	C 	0.95720 0.93420 0.58480 0.09600
C 	C 	0.04500 0.87180 0.57140 -0.15500
C 	C 	0.17900 0.89350 0.56840 0.07900
C 	C 	0.90650 0.08620 0.61600 0.40700
C 	C 	0.00870 0.78350 0.56760 0.35600
C 	C 	0.95900 0.29780 0.22220 0.32500
C 	C 	0.85500 0.33150 0.16540 -0.08200
C 	C 	0.72570 0.35350 0.17860 -0.06800
C 	C 	0.62420 0.37410 0.12120 0.07400
C 	C 	0.64810 0.37560 0.05200 0.10800
C 	C 	0.77690 0.35840 0.03840 -0.13100
C 	C 	0.87560 0.33490 0.09580 0.02700
C 	C 	0.44080 0.38260 0.18840 -0.13000
C 	C 	0.35620 0.45470 0.20820 0.17400
C 	C 	0.21920 0.44570 0.21020 -0.21900
C 	C 	0.14850 0.51420 0.23120 0.13300
C 	C 	0.33530 0.60160 0.24600 0.11200
C 	C 	0.41070 0.53530 0.22640 -0.20700
C 	C 	0.53300 0.37130 0.91920 -0.11100
C 	C 	0.38350 0.35760 0.86860 0.17400
C 	C 	0.35550 0.31880 0.79060 -0.21700
C 	C 	0.21840 0.30460 0.74340 0.11400
C 	C 	0.14290 0.36100 0.85160 0.12100
C 	C 	0.27420 0.37950 0.89880 -0.20900
C 	C 	0.78740 0.50110 0.42260 0.36600
C 	C 	0.64350 0.52470 0.41960 -0.15600
C 	C 	0.53850 0.46230 0.40280 0.08400
C 	C 	0.40110 0.48290 0.40080 -0.15500
C 	C 	0.37240 0.56580 0.41520 0.09600
C 	C 	0.47360 0.62820 0.42860 -0.15400
C 	C 	0.61060 0.60650 0.43160 0.07900
C 	C 	0.29050 0.41380 0.38400 0.40900
C 	C 	0.44110 0.71650 0.43240 0.35600
N 	N 	0.66080 0.82490 0.77300 -0.24600
N 	N 	0.04330 0.09170 0.24680 -0.25100
N 	N 	0.88780 0.67510 0.22700 -0.24600
N 	N 	0.79650 0.40830 0.75320 -0.25200
N 	N 	0.33920 0.17510 0.22700 -0.24600
N 	N 	0.95670 0.90830 0.75320 -0.25100
N 	N 	0.11220 0.32490 0.77300 -0.24600
N 	N 	0.20350 0.59170 0.24680 -0.25200
O 	O 	0.35300 0.79760 0.28520 -0.43300
O 	O 	0.13970 0.76800 0.20280 -0.40100
O 	O 	0.63440 0.89330 0.12640 -0.15600
O 	O 	0.46270 0.89490 0.99840 -0.16400
O 	O 	0.59330 0.92490 0.39500 -0.41800
O 	O 	0.56180 0.05700 0.44960 -0.43400
O 	O 	0.04720 0.84010 0.36420 -0.46200
O 	O 	0.21820 0.93850 0.39240 -0.45800
O 	O 	0.10160 0.23600 0.41820 -0.47900
O 	O 	0.91110 0.27180 0.44940 -0.39100
O 	O 	0.06780 0.70240 0.71480 -0.43300
O 	O 	0.93690 0.73200 0.79720 -0.40100
O 	O 	0.50800 0.60670 0.87360 -0.15600
O 	O 	0.46430 0.60510 0.00160 -0.16400
O 	O 	0.19830 0.57510 0.60500 -0.41800
O 	O 	0.11220 0.44300 0.55040 -0.43300
O 	O 	0.68300 0.65990 0.63580 -0.46200
O 	O 	0.82580 0.56150 0.60760 -0.45800
O 	O 	0.68340 0.26400 0.58180 -0.47900
O 	O 	0.46170 0.22820 0.55060 -0.39100
O 	O 	0.64700 0.20240 0.71480 -0.43300
O 	O 	0.86030 0.23200 0.79720 -0.40100
O 	O 	0.36560 0.10670 0.87360 -0.15600
O 	O 	0.53730 0.10510 0.00160 -0.16400
O 	O 	0.40670 0.07510 0.60500 -0.41800
O 	O 	0.43820 0.94300 0.55040 -0.43400
O 	O 	0.95280 0.15990 0.63580 -0.46200
O 	O 	0.78180 0.06150 0.60760 -0.45800
O 	O 	0.89840 0.76400 0.58180 -0.47900
O 	O 	0.08890 0.72820 0.55060 -0.39100
O 	O 	0.93220 0.29760 0.28520 -0.43300
O 	O 	0.06310 0.26800 0.20280 -0.40100
O 	O 	0.49200 0.39330 0.12640 -0.15600
O 	O 	0.53570 0.39490 0.99840 -0.16400
O 	O 	0.80170 0.42490 0.39500 -0.41800
O 	O 	0.88780 0.55700 0.44960 -0.43300
O 	O 	0.31700 0.34010 0.36420 -0.46200
O 	O 	0.17420 0.43850 0.39240 -0.45800
O 	O 	0.31660 0.73600 0.41820 -0.47900
O 	O 	0.53830 0.77180 0.44940 -0.39100
