data_crystal

_cell_length_a 17.25440
_cell_length_b 17.25440
_cell_length_c 15.35170
_cell_angle_alpha 90.00000
_cell_angle_beta  90.00000
_cell_angle_gamma 90.00000

_symmetry_space_group_name_	'P 1'
_symmetry_space_group_name_H-M	'P 1'

loop_
_symmetry_equiv_pos_as_xyz
  x,y,z

loop_
_atom_site_label
_atom_site_type_symbol
_atom_site_fract_x
_atom_site_fract_y
_atom_site_fract_z
_atom_site_charge
C 	C 	0.30520 0.56870 0.30130 0.38800
C 	C 	0.25560 0.61940 0.24660 -0.19800
C 	C 	0.19450 0.59110 0.19830 0.13900
H 	H 	0.18390 0.53770 0.20010 -0.00700
C 	C 	0.14830 0.63790 0.14730 -0.24800
H 	H 	0.10920 0.61670 0.11200 0.11600
C 	C 	0.16130 0.71680 0.14980 0.22000
C 	C 	0.21930 0.74700 0.19630 -0.26000
H 	H 	0.22760 0.80090 0.19590 0.11000
C 	C 	0.26770 0.69910 0.24560 0.13400
H 	H 	0.30840 0.72070 0.27810 -0.02600
C 	C 	0.99090 0.75180 0.19430 -0.96200
H 	H 	0.02560 0.74100 0.24250 0.32400
H 	H 	0.96650 0.70410 0.17540 0.28900
H 	H 	0.95150 0.78830 0.21290 0.30200
C 	C 	0.03610 0.78600 0.12030 0.37700
C 	C 	0.13090 0.81350 0.03360 0.33400
C 	C 	0.20750 0.81580 0.99200 -0.82600
H 	H 	0.20880 0.85750 0.94960 0.25100
H 	H 	0.21720 0.76680 0.96290 0.26300
H 	H 	0.24700 0.82460 0.03590 0.26600
N 	N 	0.01080 0.83820 0.06790 -0.22400
N 	N 	0.07130 0.85460 0.01130 -0.25600
N 	N 	0.11080 0.76790 0.10290 -0.26800
O 	O 	0.36610 0.59860 0.32840 -0.42500
O 	O 	0.28390 0.50140 0.31780 -0.30700
Cu	Cu	0.43218 0.54997 0.41692 0.89900
C 	C 	0.69480 0.43130 0.30130 0.38700
C 	C 	0.74440 0.38060 0.24660 -0.19900
C 	C 	0.80550 0.40890 0.19830 0.13300
H 	H 	0.81610 0.46230 0.20010 -0.01400
C 	C 	0.85170 0.36210 0.14730 -0.24400
H 	H 	0.89080 0.38330 0.11200 0.10300
C 	C 	0.83870 0.28320 0.14980 0.21100
C 	C 	0.78070 0.25300 0.19630 -0.25500
H 	H 	0.77240 0.19910 0.19590 0.11800
C 	C 	0.73230 0.30090 0.24560 0.13300
H 	H 	0.69160 0.27930 0.27810 -0.02200
C 	C 	0.00910 0.24820 0.19430 -0.51700
H 	H 	0.97440 0.25900 0.24250 0.15800
H 	H 	0.03350 0.29590 0.17540 0.18300
H 	H 	0.04850 0.21170 0.21290 0.19400
C 	C 	0.96390 0.21400 0.12030 0.22100
C 	C 	0.86910 0.18650 0.03360 0.35100
C 	C 	0.79250 0.18420 0.99200 -0.86500
H 	H 	0.79120 0.14250 0.94960 0.27300
H 	H 	0.78280 0.23320 0.96290 0.27400
H 	H 	0.75300 0.17540 0.03590 0.28800
N 	N 	0.98920 0.16180 0.06790 -0.21100
N 	N 	0.92870 0.14540 0.01130 -0.25700
N 	N 	0.88920 0.23210 0.10290 -0.24300
O 	O 	0.63390 0.40140 0.32840 -0.42500
O 	O 	0.71610 0.49860 0.31780 -0.31100
Cu	Cu	0.56782 0.45003 0.41692 0.89900
C 	C 	0.56870 0.69480 0.69870 0.38400
C 	C 	0.61940 0.74440 0.75340 -0.19500
C 	C 	0.59110 0.80550 0.80170 0.12600
H 	H 	0.53770 0.81610 0.79990 -0.01400
C 	C 	0.63790 0.85170 0.85270 -0.23800
H 	H 	0.61670 0.89080 0.88800 0.09700
C 	C 	0.71680 0.83870 0.85020 0.20000
C 	C 	0.74700 0.78070 0.80370 -0.24600
H 	H 	0.80090 0.77240 0.80410 0.10500
C 	C 	0.69910 0.73230 0.75440 0.12400
H 	H 	0.72070 0.69160 0.72190 -0.02300
C 	C 	0.75180 0.00910 0.80570 -0.52800
H 	H 	0.74100 0.97440 0.75750 0.16000
H 	H 	0.70410 0.03350 0.82460 0.18300
H 	H 	0.78830 0.04850 0.78710 0.19200
C 	C 	0.78600 0.96390 0.87970 0.22000
C 	C 	0.81350 0.86910 0.96640 0.27900
C 	C 	0.81580 0.79250 0.00800 -0.68100
H 	H 	0.85750 0.79120 0.05040 0.21400
H 	H 	0.76680 0.78280 0.03710 0.22700
H 	H 	0.82460 0.75300 0.96410 0.21200
N 	N 	0.83820 0.98920 0.93210 -0.21700
N 	N 	0.85460 0.92870 0.98870 -0.25700
N 	N 	0.76790 0.88920 0.89710 -0.23200
O 	O 	0.59860 0.63390 0.67160 -0.42500
O 	O 	0.50140 0.71610 0.68220 -0.31200
Cu	Cu	0.54997 0.56782 0.58308 0.89900
C 	C 	0.43130 0.30520 0.69870 0.38700
C 	C 	0.38060 0.25560 0.75340 -0.20100
C 	C 	0.40890 0.19450 0.80170 0.13900
H 	H 	0.46230 0.18390 0.79990 -0.01100
C 	C 	0.36210 0.14830 0.85270 -0.25100
H 	H 	0.38330 0.10920 0.88800 0.11200
C 	C 	0.28320 0.16130 0.85020 0.22000
C 	C 	0.25300 0.21930 0.80370 -0.26100
H 	H 	0.19910 0.22760 0.80410 0.12200
C 	C 	0.30090 0.26770 0.75440 0.13800
H 	H 	0.27930 0.30840 0.72190 -0.02400
C 	C 	0.24820 0.99090 0.80570 -0.98000
H 	H 	0.25900 0.02560 0.75750 0.33400
H 	H 	0.29590 0.96650 0.82460 0.29100
H 	H 	0.21170 0.95150 0.78710 0.30900
C 	C 	0.21400 0.03610 0.87970 0.38500
C 	C 	0.18650 0.13090 0.96640 0.28900
C 	C 	0.18420 0.20750 0.00800 -0.69200
H 	H 	0.14250 0.20880 0.05040 0.23000
H 	H 	0.23320 0.21720 0.03710 0.23300
H 	H 	0.17540 0.24700 0.96410 0.22400
N 	N 	0.16180 0.01080 0.93210 -0.22500
N 	N 	0.14540 0.07130 0.98870 -0.24800
N 	N 	0.23210 0.11080 0.89710 -0.26100
O 	O 	0.40140 0.36610 0.67160 -0.42600
O 	O 	0.49860 0.28390 0.68220 -0.30800
Cu	Cu	0.45003 0.43218 0.58308 0.89900
C 	C 	0.19480 0.06870 0.19870 0.38300
C 	C 	0.24440 0.11940 0.25340 -0.18900
C 	C 	0.30550 0.09110 0.30170 0.13200
H 	H 	0.31610 0.03770 0.29990 -0.00200
C 	C 	0.35170 0.13790 0.35270 -0.24000
H 	H 	0.39080 0.11670 0.38800 0.11000
C 	C 	0.33870 0.21680 0.35020 0.21300
C 	C 	0.28070 0.24700 0.30370 -0.25000
H 	H 	0.27240 0.30090 0.30410 0.11500
C 	C 	0.23230 0.19910 0.25440 0.13000
H 	H 	0.19160 0.22070 0.22190 -0.01700
C 	C 	0.50910 0.25180 0.30570 -0.75900
H 	H 	0.47440 0.24100 0.25750 0.25200
H 	H 	0.53350 0.20410 0.32460 0.24400
H 	H 	0.54850 0.28830 0.28710 0.25600
C 	C 	0.46390 0.28600 0.37970 0.30700
C 	C 	0.36910 0.31350 0.46640 0.31800
C 	C 	0.29250 0.31580 0.50800 -0.77700
H 	H 	0.29120 0.35750 0.55040 0.24700
H 	H 	0.28280 0.26680 0.53710 0.25600
H 	H 	0.25300 0.32460 0.46410 0.25500
N 	N 	0.48920 0.33820 0.43210 -0.21700
N 	N 	0.42870 0.35460 0.48870 -0.25200
N 	N 	0.38920 0.26790 0.39710 -0.25100
O 	O 	0.13390 0.09860 0.17160 -0.41300
O 	O 	0.21610 0.00140 0.18220 -0.29200
Cu	Cu	0.06782 0.04997 0.08308 0.90800
C 	C 	0.80520 0.93130 0.19870 0.39000
C 	C 	0.75560 0.88060 0.25340 -0.20800
C 	C 	0.69450 0.90890 0.30170 0.13700
H 	H 	0.68390 0.96230 0.29990 -0.02100
C 	C 	0.64830 0.86210 0.35270 -0.25200
H 	H 	0.60920 0.88330 0.38800 0.10300
C 	C 	0.66130 0.78320 0.35020 0.21400
C 	C 	0.71930 0.75300 0.30370 -0.26000
H 	H 	0.72760 0.69910 0.30410 0.11400
C 	C 	0.76770 0.80090 0.25440 0.13600
H 	H 	0.80840 0.77930 0.22190 -0.02900
C 	C 	0.49090 0.74820 0.30570 -0.74200
H 	H 	0.52560 0.75900 0.25750 0.24300
H 	H 	0.46650 0.79590 0.32460 0.23100
H 	H 	0.45150 0.71170 0.28710 0.24900
C 	C 	0.53610 0.71400 0.37970 0.30000
C 	C 	0.63090 0.68650 0.46640 0.30900
C 	C 	0.70750 0.68420 0.50800 -0.75400
H 	H 	0.70880 0.64250 0.55040 0.23700
H 	H 	0.71720 0.73320 0.53710 0.24200
H 	H 	0.74700 0.67540 0.46410 0.24100
N 	N 	0.51080 0.66180 0.43210 -0.21600
N 	N 	0.57130 0.64540 0.48870 -0.25100
N 	N 	0.61080 0.73210 0.39710 -0.25000
O 	O 	0.86610 0.90140 0.17160 -0.44000
O 	O 	0.78390 0.99860 0.18220 -0.32700
Cu	Cu	0.93218 0.95003 0.08308 0.87300
C 	C 	0.93130 0.19480 0.80130 0.38700
C 	C 	0.88060 0.24440 0.74660 -0.20200
C 	C 	0.90890 0.30550 0.69830 0.13500
H 	H 	0.96230 0.31610 0.70010 -0.01900
C 	C 	0.86210 0.35170 0.64730 -0.24800
H 	H 	0.88330 0.39080 0.61200 0.10300
C 	C 	0.78320 0.33870 0.64980 0.21300
C 	C 	0.75300 0.28070 0.69630 -0.25600
H 	H 	0.69910 0.27240 0.69590 0.11500
C 	C 	0.80090 0.23230 0.74560 0.13300
H 	H 	0.77930 0.19160 0.77810 -0.02200
C 	C 	0.74820 0.50910 0.69430 -0.73600
H 	H 	0.75900 0.47440 0.74250 0.23900
H 	H 	0.79590 0.53350 0.67540 0.22900
H 	H 	0.71170 0.54850 0.71290 0.24600
C 	C 	0.71400 0.46390 0.62030 0.29800
C 	C 	0.68650 0.36910 0.53360 0.31500
C 	C 	0.68420 0.29250 0.49200 -0.77100
H 	H 	0.64250 0.29120 0.44960 0.24500
H 	H 	0.73320 0.28280 0.46290 0.25100
H 	H 	0.67540 0.25300 0.53590 0.25200
N 	N 	0.66180 0.48920 0.56790 -0.21600
N 	N 	0.64540 0.42870 0.51130 -0.25200
N 	N 	0.73210 0.38920 0.60290 -0.25100
O 	O 	0.90140 0.13390 0.82840 -0.42700
O 	O 	0.99860 0.21610 0.81780 -0.32500
Cu	Cu	0.95003 0.06782 0.91692 0.88500
C 	C 	0.06870 0.80520 0.80130 0.38600
C 	C 	0.11940 0.75560 0.74660 -0.20000
C 	C 	0.09110 0.69450 0.69830 0.13500
H 	H 	0.03770 0.68390 0.70010 -0.00600
C 	C 	0.13790 0.64830 0.64730 -0.24600
H 	H 	0.11670 0.60920 0.61200 0.11100
C 	C 	0.21680 0.66130 0.64980 0.21400
C 	C 	0.24700 0.71930 0.69630 -0.25700
H 	H 	0.30090 0.72760 0.69590 0.11300
C 	C 	0.19910 0.76770 0.74560 0.13200
H 	H 	0.22070 0.80840 0.77810 -0.02900
C 	C 	0.25180 0.49090 0.69430 -0.75500
H 	H 	0.24100 0.52560 0.74250 0.24800
H 	H 	0.20410 0.46650 0.67540 0.24200
H 	H 	0.28830 0.45150 0.71290 0.25300
C 	C 	0.28600 0.53610 0.62030 0.30500
C 	C 	0.31350 0.63090 0.53360 0.31200
C 	C 	0.31580 0.70750 0.49200 -0.75900
H 	H 	0.35750 0.70880 0.44960 0.23900
H 	H 	0.26680 0.71720 0.46290 0.24600
H 	H 	0.32460 0.74700 0.53590 0.24300
N 	N 	0.33820 0.51080 0.56790 -0.21700
N 	N 	0.35460 0.57130 0.51130 -0.25100
N 	N 	0.26790 0.61080 0.60290 -0.25100
O 	O 	0.09860 0.86610 0.82840 -0.43400
O 	O 	0.00140 0.78390 0.81780 -0.30200
Cu	Cu	0.04997 0.93218 0.91692 0.88300
O 	O 	0.50000 0.50000 0.50000 -0.68500
O 	O 	-0.00000 0.00000 -0.00000 -0.63900
O 	O 	0.50000 0.50000 0.33070 -0.40100
O 	O 	0.50000 0.50000 0.66930 -0.40300
O 	O 	0.00000 0.00000 0.16930 -0.36400
O 	O 	-0.00000 0.00000 0.83070 -0.36600
