data_crystal

_cell_length_a 15.94530
_cell_length_b 17.42020
_cell_length_c 11.07920
_cell_angle_alpha 90.00000
_cell_angle_beta  123.92600
_cell_angle_gamma 90.00000

_symmetry_space_group_name_	'P 1'
_symmetry_space_group_name_H-M	'P 1'

loop_
_symmetry_equiv_pos_as_xyz
  x,y,z

loop_
_atom_site_label
_atom_site_type_symbol
_atom_site_fract_x
_atom_site_fract_y
_atom_site_fract_z
_atom_site_charge
O 	O 	0.25860 0.00850 0.14650 -0.25900
O 	O 	0.28760 0.04561 0.90700 -0.24500
O 	O 	0.26610 0.17990 0.07250 -0.25700
C 	C 	0.18890 0.02790 0.18590 0.01000
C 	C 	0.30330 0.93430 0.20520 0.01600
C 	C 	0.24290 0.97150 0.84840 0.00100
C 	C 	0.35700 0.06490 0.86740 -0.00900
C 	C 	0.32070 0.24770 0.15110 0.00700
C 	C 	0.16850 0.19950 0.94730 0.01900
Li	Li	0.32890 0.07990 0.09950 0.55900
H 	H 	0.15910 0.07900 0.14640 0.03200
H 	H 	0.13330 0.98980 0.14360 0.04400
H 	H 	0.24990 0.89450 0.16300 0.03600
H 	H 	0.35170 0.92170 0.17890 0.02300
H 	H 	0.19460 0.95890 0.87490 0.03900
H 	H 	0.29630 0.93170 0.89040 0.03900
H 	H 	0.41260 0.02690 0.90970 0.05200
H 	H 	0.38680 0.11610 0.90700 0.04000
H 	H 	0.38840 0.23330 0.23600 0.03700
H 	H 	0.28410 0.27450 0.18740 0.03800
H 	H 	0.12810 0.22510 0.97850 0.04400
H 	H 	0.13240 0.15220 0.89370 0.03300
O 	O 	0.75860 0.50850 0.14650 -0.26500
O 	O 	0.78760 0.54561 0.90700 -0.25200
O 	O 	0.76610 0.67990 0.07250 -0.26600
C 	C 	0.68890 0.52790 0.18590 0.01400
C 	C 	0.80330 0.43430 0.20520 0.01400
C 	C 	0.74290 0.47150 0.84840 0.00400
C 	C 	0.85700 0.56490 0.86740 -0.00000
C 	C 	0.82070 0.74770 0.15110 0.01100
C 	C 	0.66850 0.69950 0.94730 0.02600
Li	Li	0.82890 0.57990 0.09950 0.55700
H 	H 	0.65910 0.57900 0.14640 0.02400
H 	H 	0.63330 0.48980 0.14360 0.03400
H 	H 	0.74990 0.39450 0.16300 0.03100
H 	H 	0.85170 0.42170 0.17890 0.01400
H 	H 	0.69460 0.45890 0.87490 0.03200
H 	H 	0.79630 0.43170 0.89040 0.03200
H 	H 	0.91260 0.52690 0.90970 0.03400
H 	H 	0.88680 0.61610 0.90700 0.02600
H 	H 	0.88840 0.73330 0.23600 0.02100
H 	H 	0.78410 0.77450 0.18740 0.03200
H 	H 	0.62810 0.72510 0.97850 0.03500
H 	H 	0.63240 0.65220 0.89370 0.02300
O 	O 	0.74140 0.00850 0.35350 -0.26300
O 	O 	0.71240 0.04561 0.59300 -0.24800
O 	O 	0.73390 0.17990 0.42750 -0.25500
C 	C 	0.81110 0.02790 0.31410 0.02100
C 	C 	0.69670 0.93430 0.29480 0.02000
C 	C 	0.75710 0.97150 0.65160 -0.00100
C 	C 	0.64300 0.06490 0.63260 -0.01000
C 	C 	0.67930 0.24770 0.34890 0.00400
C 	C 	0.83150 0.19950 0.55270 0.01800
Li	Li	0.67110 0.07990 0.40050 0.55900
H 	H 	0.84090 0.07900 0.35360 0.01700
H 	H 	0.86670 0.98980 0.35640 0.02400
H 	H 	0.75010 0.89450 0.33700 0.02900
H 	H 	0.64830 0.92170 0.32110 0.02200
H 	H 	0.80540 0.95890 0.62510 0.02700
H 	H 	0.70370 0.93170 0.60960 0.03700
H 	H 	0.58740 0.02690 0.59030 0.05100
H 	H 	0.61320 0.11610 0.59300 0.03800
H 	H 	0.61160 0.23330 0.26400 0.03600
H 	H 	0.71590 0.27450 0.31260 0.03600
H 	H 	0.87190 0.22510 0.52150 0.02600
H 	H 	0.86760 0.15220 0.60630 0.01600
O 	O 	0.24140 0.50850 0.35350 -0.25800
O 	O 	0.21240 0.54561 0.59300 -0.24400
O 	O 	0.23390 0.67990 0.42750 -0.25200
C 	C 	0.31110 0.52790 0.31410 0.01600
C 	C 	0.19670 0.43430 0.29480 0.01900
C 	C 	0.25710 0.47150 0.65160 -0.00200
C 	C 	0.14300 0.56490 0.63260 -0.01500
C 	C 	0.17930 0.74770 0.34890 0.00300
C 	C 	0.33150 0.69950 0.55270 0.01500
Li	Li	0.17110 0.57990 0.40050 0.55900
H 	H 	0.34090 0.57900 0.35360 0.02500
H 	H 	0.36670 0.48980 0.35640 0.03500
H 	H 	0.25010 0.39450 0.33700 0.03400
H 	H 	0.14830 0.42170 0.32110 0.02900
H 	H 	0.30540 0.45890 0.62510 0.03400
H 	H 	0.20370 0.43170 0.60960 0.04200
H 	H 	0.08740 0.52690 0.59030 0.06200
H 	H 	0.11320 0.61610 0.59300 0.04600
H 	H 	0.11160 0.73330 0.26400 0.04600
H 	H 	0.21590 0.77450 0.31260 0.04100
H 	H 	0.37190 0.72510 0.52150 0.03600
H 	H 	0.36760 0.65220 0.60630 0.02500
O 	O 	0.74140 0.99150 0.85350 -0.26100
O 	O 	0.71240 0.95439 0.09300 -0.25100
O 	O 	0.73390 0.82010 0.92750 -0.24800
C 	C 	0.81110 0.97210 0.81410 0.02000
C 	C 	0.69670 0.06570 0.79480 0.01900
C 	C 	0.75710 0.02850 0.15160 0.00000
C 	C 	0.64300 0.93510 0.13260 -0.00800
C 	C 	0.67930 0.75230 0.84890 -0.00200
C 	C 	0.83150 0.80050 0.05270 0.00700
Li	Li	0.67110 0.92010 0.90050 0.55900
H 	H 	0.84090 0.92100 0.85360 0.01900
H 	H 	0.86670 0.01020 0.85640 0.02500
H 	H 	0.75010 0.10550 0.83700 0.03000
H 	H 	0.64830 0.07830 0.82110 0.02400
H 	H 	0.80540 0.04110 0.12510 0.02500
H 	H 	0.70370 0.06830 0.10960 0.03500
H 	H 	0.58740 0.97310 0.09030 0.04900
H 	H 	0.61320 0.88390 0.09300 0.03500
H 	H 	0.61160 0.76670 0.76400 0.03900
H 	H 	0.71590 0.72550 0.81260 0.04000
H 	H 	0.87190 0.77490 0.02150 0.02600
H 	H 	0.86760 0.84780 0.10630 0.01700
O 	O 	0.24140 0.49150 0.85350 -0.25700
O 	O 	0.21240 0.45439 0.09300 -0.24700
O 	O 	0.23390 0.32010 0.92750 -0.24500
C 	C 	0.31110 0.47210 0.81410 0.01500
C 	C 	0.19670 0.56570 0.79480 0.01900
C 	C 	0.25710 0.52850 0.15160 -0.00000
C 	C 	0.14300 0.43510 0.13260 -0.01400
C 	C 	0.17930 0.25230 0.84890 -0.00200
C 	C 	0.33150 0.30050 0.05270 0.00500
Li	Li	0.17110 0.42010 0.90050 0.55900
H 	H 	0.34090 0.42100 0.85360 0.02700
H 	H 	0.36670 0.51020 0.85640 0.03600
H 	H 	0.25010 0.60550 0.83700 0.03500
H 	H 	0.14830 0.57830 0.82110 0.03000
H 	H 	0.30540 0.54110 0.12510 0.03100
H 	H 	0.20370 0.56830 0.10960 0.04000
H 	H 	0.08740 0.47310 0.09030 0.06000
H 	H 	0.11320 0.38390 0.09300 0.04400
H 	H 	0.11160 0.26670 0.76400 0.04800
H 	H 	0.21590 0.22550 0.81260 0.04400
H 	H 	0.37190 0.27490 0.02150 0.03700
H 	H 	0.36760 0.34780 0.10630 0.02700
O 	O 	0.25860 0.99150 0.64650 -0.25600
O 	O 	0.28760 0.95439 0.40700 -0.24600
O 	O 	0.26610 0.82010 0.57250 -0.25000
C 	C 	0.18890 0.97210 0.68590 0.01000
C 	C 	0.30330 0.06570 0.70520 0.01600
C 	C 	0.24290 0.02850 0.34840 0.00300
C 	C 	0.35700 0.93510 0.36740 -0.00800
C 	C 	0.32070 0.75230 0.65110 0.00100
C 	C 	0.16850 0.80050 0.44730 0.00900
Li	Li	0.32890 0.92010 0.59950 0.55900
H 	H 	0.15910 0.92100 0.64640 0.03400
H 	H 	0.13330 0.01020 0.64360 0.04600
H 	H 	0.24990 0.10550 0.66300 0.03700
H 	H 	0.35170 0.07830 0.67890 0.02500
H 	H 	0.19460 0.04110 0.37490 0.03700
H 	H 	0.29630 0.06830 0.39040 0.03800
H 	H 	0.41260 0.97310 0.40970 0.05000
H 	H 	0.38680 0.88390 0.40700 0.03700
H 	H 	0.38840 0.76670 0.73600 0.03900
H 	H 	0.28410 0.72550 0.68740 0.04100
H 	H 	0.12810 0.77490 0.47850 0.04500
H 	H 	0.13240 0.84780 0.39370 0.03400
O 	O 	0.75860 0.49150 0.64650 -0.26300
O 	O 	0.78760 0.45439 0.40700 -0.25500
O 	O 	0.76610 0.32010 0.57250 -0.25900
C 	C 	0.68890 0.47210 0.68590 0.01300
C 	C 	0.80330 0.56570 0.70520 0.01500
C 	C 	0.74290 0.52850 0.34840 0.00600
C 	C 	0.85700 0.43510 0.36740 0.00200
C 	C 	0.82070 0.25230 0.65110 0.00500
C 	C 	0.66850 0.30050 0.44730 0.01500
Li	Li	0.82890 0.42010 0.59950 0.55700
H 	H 	0.65910 0.42100 0.64640 0.02500
H 	H 	0.63330 0.51020 0.64360 0.03500
H 	H 	0.74990 0.60550 0.66300 0.03300
H 	H 	0.85170 0.57830 0.67890 0.01500
H 	H 	0.69460 0.54110 0.37490 0.03000
H 	H 	0.79630 0.56830 0.39040 0.02900
H 	H 	0.91260 0.47310 0.40970 0.03100
H 	H 	0.88680 0.38390 0.40700 0.02300
H 	H 	0.88840 0.26670 0.73600 0.02400
H 	H 	0.78410 0.22550 0.68740 0.03600
H 	H 	0.62810 0.27490 0.47850 0.03600
H 	H 	0.63240 0.34780 0.39370 0.02400
Cl	Cl	0.50000 0.08867 0.25000 -0.50900
Cl	Cl	0.00000 0.58867 0.25000 -0.46900
Cl	Cl	0.50000 0.91133 0.75000 -0.50500
Cl	Cl	-0.00000 0.41133 0.75000 -0.46600
