data_crystal

_cell_length_a 21.84800
_cell_length_b 21.84800
_cell_length_c 6.81360
_cell_angle_alpha 90.00000
_cell_angle_beta  90.00000
_cell_angle_gamma 120.00000

_symmetry_space_group_name_	'P 1'
_symmetry_space_group_name_H-M	'P 1'

loop_
_symmetry_equiv_pos_as_xyz
  x,y,z

loop_
_atom_site_label
_atom_site_type_symbol
_atom_site_fract_x
_atom_site_fract_y
_atom_site_fract_z
_atom_site_charge
Fe	Fe	0.61760 0.27840 0.13800 1.13800
O 	O 	0.66940 0.23870 0.93500 -0.48300
O 	O 	0.64470 0.28270 0.57400 -0.62400
O 	O 	0.58200 0.20510 0.36200 -0.45200
C 	C 	0.61380 0.17440 0.87870 0.22300
C 	C 	0.59400 0.16490 0.68100 -0.25800
C 	C 	0.56020 0.09580 0.60290 0.06000
C 	C 	0.54490 0.03550 0.71050 -0.04100
C 	C 	0.56380 0.04650 0.90890 0.03900
C 	C 	0.59620 0.11320 0.99110 -0.20300
C 	C 	0.60500 0.22290 0.54810 0.47100
H 	H 	0.54700 0.08980 0.46940 0.01900
H 	H 	0.55380 0.00670 0.98810 0.01600
H 	H 	0.60700 0.11820 0.12620 0.09700
Fe	Fe	0.72160 0.33920 0.80467 1.13800
O 	O 	0.76130 0.43070 0.60167 -0.48500
O 	O 	0.71730 0.36200 0.24067 -0.62400
O 	O 	0.79490 0.37690 0.02867 -0.45200
C 	C 	0.82560 0.43940 0.54537 0.22500
C 	C 	0.83510 0.42910 0.34767 -0.25900
C 	C 	0.90420 0.46440 0.26957 0.06100
C 	C 	0.96450 0.50940 0.37717 -0.04300
C 	C 	0.95350 0.51730 0.57557 0.04200
C 	C 	0.88680 0.48300 0.65777 -0.20800
C 	C 	0.77710 0.38210 0.21477 0.47100
H 	H 	0.91020 0.45720 0.13607 0.01900
H 	H 	0.99330 0.54710 0.65477 0.01400
H 	H 	0.88180 0.48880 0.79287 0.10000
Fe	Fe	0.66080 0.38240 0.47133 1.13800
O 	O 	0.56930 0.33060 0.26833 -0.48500
O 	O 	0.63800 0.35530 0.90733 -0.62400
O 	O 	0.62310 0.41800 0.69533 -0.45200
C 	C 	0.56060 0.38620 0.21203 0.22500
C 	C 	0.57090 0.40600 0.01433 -0.26000
C 	C 	0.53560 0.43980 0.93623 0.06200
C 	C 	0.49060 0.45510 0.04383 -0.04300
C 	C 	0.48270 0.43620 0.24223 0.04200
C 	C 	0.51700 0.40380 0.32443 -0.20800
C 	C 	0.61790 0.39500 0.88143 0.47200
H 	H 	0.54280 0.45300 0.80273 0.01900
H 	H 	0.45290 0.44620 0.32143 0.01400
H 	H 	0.51120 0.39300 0.45953 0.10000
Fe	Fe	0.27840 0.61760 0.86200 1.13700
O 	O 	0.23870 0.66940 0.06500 -0.48400
O 	O 	0.28270 0.64470 0.42600 -0.62400
O 	O 	0.20510 0.58200 0.63800 -0.45200
C 	C 	0.17440 0.61380 0.12130 0.22300
C 	C 	0.16490 0.59400 0.31900 -0.25800
C 	C 	0.09580 0.56020 0.39710 0.06000
C 	C 	0.03550 0.54490 0.28950 -0.04100
C 	C 	0.04650 0.56380 0.09110 0.03900
C 	C 	0.11320 0.59620 0.00890 -0.20300
C 	C 	0.22290 0.60500 0.45190 0.47100
H 	H 	0.08980 0.54700 0.53060 0.01900
H 	H 	0.00670 0.55380 0.01190 0.01600
H 	H 	0.11820 0.60700 0.87380 0.09700
Fe	Fe	0.33920 0.72160 0.19533 1.13800
O 	O 	0.43070 0.76130 0.39833 -0.48500
O 	O 	0.36200 0.71730 0.75933 -0.62400
O 	O 	0.37690 0.79490 0.97133 -0.45200
C 	C 	0.43940 0.82560 0.45463 0.22500
C 	C 	0.42910 0.83510 0.65233 -0.25900
C 	C 	0.46440 0.90420 0.73043 0.06100
C 	C 	0.50940 0.96450 0.62283 -0.04300
C 	C 	0.51730 0.95350 0.42443 0.04200
C 	C 	0.48300 0.88680 0.34223 -0.20800
C 	C 	0.38210 0.77710 0.78523 0.47100
H 	H 	0.45720 0.91020 0.86393 0.01900
H 	H 	0.54710 0.99330 0.34523 0.01400
H 	H 	0.48880 0.88180 0.20713 0.10000
Fe	Fe	0.38240 0.66080 0.52867 1.13800
O 	O 	0.33060 0.56930 0.73167 -0.48500
O 	O 	0.35530 0.63800 0.09267 -0.62400
O 	O 	0.41800 0.62310 0.30467 -0.45200
C 	C 	0.38620 0.56060 0.78797 0.22500
C 	C 	0.40600 0.57090 0.98567 -0.26000
C 	C 	0.43980 0.53560 0.06377 0.06200
C 	C 	0.45510 0.49060 0.95617 -0.04300
C 	C 	0.43620 0.48270 0.75777 0.04200
C 	C 	0.40380 0.51700 0.67557 -0.20800
C 	C 	0.39500 0.61790 0.11857 0.47200
H 	H 	0.45300 0.54280 0.19727 0.01900
H 	H 	0.44620 0.45290 0.67857 0.01400
H 	H 	0.39300 0.51120 0.54047 0.10000
