data_crystal

_cell_length_a 21.70360
_cell_length_b 21.70360
_cell_length_c 6.84400
_cell_angle_alpha 90.00000
_cell_angle_beta  90.00000
_cell_angle_gamma 120.00000

_symmetry_space_group_name_	'P 1'
_symmetry_space_group_name_H-M	'P 1'

loop_
_symmetry_equiv_pos_as_xyz
  x,y,z

loop_
_atom_site_label
_atom_site_type_symbol
_atom_site_fract_x
_atom_site_fract_y
_atom_site_fract_z
_atom_site_charge
Co	Co	0.28176 0.60829 0.33908 1.15700
O 	O 	0.41990 0.62880 0.78650 -0.46000
O 	O 	0.36240 0.65010 0.54950 -0.56300
O 	O 	0.35250 0.58910 0.19320 -0.54200
C 	C 	0.39550 0.61970 0.61540 0.42400
C 	C 	0.40570 0.51810 0.17440 -0.24300
H 	H 	0.39510 0.51230 0.03870 0.11300
C 	C 	0.43810 0.48340 0.25520 0.05600
H 	H 	0.44800 0.45340 0.17610 0.00700
C 	C 	0.40800 0.57230 0.48290 -0.26200
C 	C 	0.38780 0.56120 0.28150 0.27800
C 	C 	0.44120 0.53760 0.56120 0.06700
H 	H 	0.45410 0.54530 0.69530 0.01800
C 	C 	0.45680 0.49220 0.45570 -0.05000
Co	Co	0.39171 0.67347 0.00575 1.15600
O 	O 	0.37120 0.79110 0.45317 -0.46200
O 	O 	0.34990 0.71230 0.21617 -0.56400
O 	O 	0.41090 0.76340 0.85987 -0.54200
C 	C 	0.38030 0.77580 0.28207 0.42500
C 	C 	0.48190 0.88760 0.84107 -0.24600
H 	H 	0.48770 0.88280 0.70537 0.11500
C 	C 	0.51660 0.95470 0.92187 0.06000
H 	H 	0.54660 0.99460 0.84277 0.00600
C 	C 	0.42770 0.83570 0.14957 -0.26600
C 	C 	0.43880 0.82660 0.94817 0.28300
C 	C 	0.46240 0.90360 0.22787 0.07000
H 	H 	0.45470 0.90880 0.36197 0.01600
C 	C 	0.50780 0.96460 0.12237 -0.05300
Co	Co	0.32653 0.71824 0.67241 1.15700
O 	O 	0.20890 0.58010 0.11983 -0.46300
O 	O 	0.28770 0.63760 0.88283 -0.56300
O 	O 	0.23660 0.64750 0.52653 -0.54200
C 	C 	0.22420 0.60450 0.94873 0.42700
C 	C 	0.11240 0.59430 0.50773 -0.24300
H 	H 	0.11720 0.60490 0.37203 0.11400
C 	C 	0.04530 0.56190 0.58853 0.05600
H 	H 	0.00540 0.55200 0.50943 0.00700
C 	C 	0.16430 0.59200 0.81623 -0.26300
C 	C 	0.17340 0.61220 0.61483 0.27900
C 	C 	0.09640 0.55880 0.89453 0.06900
H 	H 	0.09120 0.54590 0.02863 0.01600
C 	C 	0.03540 0.54320 0.78903 -0.04900
Co	Co	0.60829 0.28176 0.66092 1.15700
O 	O 	0.62880 0.41990 0.21350 -0.46000
O 	O 	0.65010 0.36240 0.45050 -0.56300
O 	O 	0.58910 0.35250 0.80680 -0.54200
C 	C 	0.61970 0.39550 0.38460 0.42400
C 	C 	0.51810 0.40570 0.82560 -0.24300
H 	H 	0.51230 0.39510 0.96130 0.11300
C 	C 	0.48340 0.43810 0.74480 0.05600
H 	H 	0.45340 0.44800 0.82390 0.00700
C 	C 	0.57230 0.40800 0.51710 -0.26200
C 	C 	0.56120 0.38780 0.71850 0.27800
C 	C 	0.53760 0.44120 0.43880 0.06700
H 	H 	0.54530 0.45410 0.30470 0.01800
C 	C 	0.49220 0.45680 0.54430 -0.05000
Co	Co	0.67347 0.39171 0.99425 1.15600
O 	O 	0.79110 0.37120 0.54683 -0.46200
O 	O 	0.71230 0.34990 0.78383 -0.56400
O 	O 	0.76340 0.41090 0.14013 -0.54200
C 	C 	0.77580 0.38030 0.71793 0.42500
C 	C 	0.88760 0.48190 0.15893 -0.24600
H 	H 	0.88280 0.48770 0.29463 0.11500
C 	C 	0.95470 0.51660 0.07813 0.06000
H 	H 	0.99460 0.54660 0.15723 0.00600
C 	C 	0.83570 0.42770 0.85043 -0.26600
C 	C 	0.82660 0.43880 0.05183 0.28300
C 	C 	0.90360 0.46240 0.77213 0.07000
H 	H 	0.90880 0.45470 0.63803 0.01600
C 	C 	0.96460 0.50780 0.87763 -0.05300
Co	Co	0.71824 0.32653 0.32759 1.15700
O 	O 	0.58010 0.20890 0.88017 -0.46300
O 	O 	0.63760 0.28770 0.11717 -0.56300
O 	O 	0.64750 0.23660 0.47347 -0.54200
C 	C 	0.60450 0.22420 0.05127 0.42700
C 	C 	0.59430 0.11240 0.49227 -0.24300
H 	H 	0.60490 0.11720 0.62797 0.11400
C 	C 	0.56190 0.04530 0.41147 0.05600
H 	H 	0.55200 0.00540 0.49057 0.00700
C 	C 	0.59200 0.16430 0.18377 -0.26300
C 	C 	0.61220 0.17340 0.38517 0.27900
C 	C 	0.55880 0.09640 0.10547 0.06900
H 	H 	0.54590 0.09120 0.97137 0.01600
C 	C 	0.54320 0.03540 0.21097 -0.04900
