data_crystal

_cell_length_a 21.82300
_cell_length_b 21.82300
_cell_length_c 6.86950
_cell_angle_alpha 90.00000
_cell_angle_beta  90.00000
_cell_angle_gamma 120.00000

_symmetry_space_group_name_	'P 1'
_symmetry_space_group_name_H-M	'P 1'

loop_
_symmetry_equiv_pos_as_xyz
  x,y,z

loop_
_atom_site_label
_atom_site_type_symbol
_atom_site_fract_x
_atom_site_fract_y
_atom_site_fract_z
_atom_site_charge
Fe	Fe	0.61380 0.28170 0.14290 1.15400
O 	O 	0.65260 0.23800 0.94700 -0.56000
O 	O 	0.63530 0.28190 0.59200 -0.62900
O 	O 	0.58120 0.20690 0.37300 -0.47100
C 	C 	0.61380 0.17440 0.87870 0.32300
C 	C 	0.59400 0.16490 0.68100 -0.32000
C 	C 	0.56020 0.09580 0.60290 0.08900
C 	C 	0.54490 0.03550 0.71050 -0.05800
C 	C 	0.56380 0.04650 0.90890 0.06900
C 	C 	0.59620 0.11320 0.99110 -0.26100
C 	C 	0.60500 0.22290 0.54810 0.53400
H 	H 	0.54700 0.08980 0.46940 0.00800
H 	H 	0.55380 0.00670 0.98810 0.00400
H 	H 	0.60700 0.11820 0.12620 0.11600
Fe	Fe	0.71830 0.33210 0.80957 1.15600
O 	O 	0.76200 0.41460 0.61367 -0.56000
O 	O 	0.71810 0.35340 0.25867 -0.62900
O 	O 	0.79310 0.37430 0.03967 -0.47100
C 	C 	0.82560 0.43940 0.54537 0.32500
C 	C 	0.83510 0.42910 0.34767 -0.32100
C 	C 	0.90420 0.46440 0.26957 0.09100
C 	C 	0.96450 0.50940 0.37717 -0.06000
C 	C 	0.95350 0.51730 0.57557 0.07100
C 	C 	0.88680 0.48300 0.65777 -0.26700
C 	C 	0.77710 0.38210 0.21477 0.53500
H 	H 	0.91020 0.45720 0.13607 0.00800
H 	H 	0.99330 0.54710 0.65477 0.00300
H 	H 	0.88180 0.48880 0.79287 0.11900
Fe	Fe	0.66790 0.38620 0.47623 1.15600
O 	O 	0.58540 0.34740 0.28033 -0.56000
O 	O 	0.64660 0.36470 0.92533 -0.62900
O 	O 	0.62570 0.41880 0.70633 -0.47100
C 	C 	0.56060 0.38620 0.21203 0.32600
C 	C 	0.57090 0.40600 0.01433 -0.32300
C 	C 	0.53560 0.43980 0.93623 0.09200
C 	C 	0.49060 0.45510 0.04383 -0.06000
C 	C 	0.48270 0.43620 0.24223 0.07200
C 	C 	0.51700 0.40380 0.32443 -0.26700
C 	C 	0.61790 0.39500 0.88143 0.53500
H 	H 	0.54280 0.45300 0.80273 0.00800
H 	H 	0.45290 0.44620 0.32143 0.00300
H 	H 	0.51120 0.39300 0.45953 0.11900
Fe	Fe	0.28170 0.61380 0.85710 1.15500
O 	O 	0.23800 0.65260 0.05300 -0.55900
O 	O 	0.28190 0.63530 0.40800 -0.62900
O 	O 	0.20690 0.58120 0.62700 -0.47100
C 	C 	0.17440 0.61380 0.12130 0.32300
C 	C 	0.16490 0.59400 0.31900 -0.32000
C 	C 	0.09580 0.56020 0.39710 0.08900
C 	C 	0.03550 0.54490 0.28950 -0.05800
C 	C 	0.04650 0.56380 0.09110 0.06900
C 	C 	0.11320 0.59620 0.00890 -0.26100
C 	C 	0.22290 0.60500 0.45190 0.53400
H 	H 	0.08980 0.54700 0.53060 0.00800
H 	H 	0.00670 0.55380 0.01190 0.00400
H 	H 	0.11820 0.60700 0.87380 0.11600
Fe	Fe	0.33210 0.71830 0.19043 1.15600
O 	O 	0.41460 0.76200 0.38633 -0.56000
O 	O 	0.35340 0.71810 0.74133 -0.62900
O 	O 	0.37430 0.79310 0.96033 -0.47100
C 	C 	0.43940 0.82560 0.45463 0.32500
C 	C 	0.42910 0.83510 0.65233 -0.32100
C 	C 	0.46440 0.90420 0.73043 0.09100
C 	C 	0.50940 0.96450 0.62283 -0.06000
C 	C 	0.51730 0.95350 0.42443 0.07100
C 	C 	0.48300 0.88680 0.34223 -0.26700
C 	C 	0.38210 0.77710 0.78523 0.53500
H 	H 	0.45720 0.91020 0.86393 0.00800
H 	H 	0.54710 0.99330 0.34523 0.00300
H 	H 	0.48880 0.88180 0.20713 0.11900
Fe	Fe	0.38620 0.66790 0.52377 1.15600
O 	O 	0.34740 0.58540 0.71967 -0.56000
O 	O 	0.36470 0.64660 0.07467 -0.62900
O 	O 	0.41880 0.62570 0.29367 -0.47100
C 	C 	0.38620 0.56060 0.78797 0.32600
C 	C 	0.40600 0.57090 0.98567 -0.32300
C 	C 	0.43980 0.53560 0.06377 0.09200
C 	C 	0.45510 0.49060 0.95617 -0.06000
C 	C 	0.43620 0.48270 0.75777 0.07200
C 	C 	0.40380 0.51700 0.67557 -0.26700
C 	C 	0.39500 0.61790 0.11857 0.53500
H 	H 	0.45300 0.54280 0.19727 0.00800
H 	H 	0.44620 0.45290 0.67857 0.00300
H 	H 	0.39300 0.51120 0.54047 0.11900
