data_crystal

_cell_length_a 21.84700
_cell_length_b 21.84700
_cell_length_c 6.87290
_cell_angle_alpha 90.00000
_cell_angle_beta  90.00000
_cell_angle_gamma 120.00000

_symmetry_space_group_name_	'P 1'
_symmetry_space_group_name_H-M	'P 1'

loop_
_symmetry_equiv_pos_as_xyz
  x,y,z

loop_
_atom_site_label
_atom_site_type_symbol
_atom_site_fract_x
_atom_site_fract_y
_atom_site_fract_z
_atom_site_charge
Fe	Fe	0.61290 0.28540 0.15600 1.17200
O 	O 	0.64600 0.24160 0.96600 -0.55700
O 	O 	0.63710 0.27990 0.58300 -0.63700
O 	O 	0.58640 0.20520 0.35900 -0.45000
C 	C 	0.61380 0.17440 0.87870 0.26100
C 	C 	0.59400 0.16490 0.68100 -0.29400
C 	C 	0.56020 0.09580 0.60290 0.07300
C 	C 	0.54490 0.03550 0.71050 -0.04900
C 	C 	0.56380 0.04650 0.90890 0.04600
C 	C 	0.59620 0.11320 0.99110 -0.22100
C 	C 	0.60500 0.22290 0.54810 0.52400
H 	H 	0.54700 0.08980 0.46940 0.01500
H 	H 	0.55380 0.00670 0.98810 0.01200
H 	H 	0.60700 0.11820 0.12620 0.10800
Fe	Fe	0.71460 0.32750 0.82267 1.17100
O 	O 	0.75840 0.40440 0.63267 -0.55900
O 	O 	0.72010 0.35720 0.24967 -0.63700
O 	O 	0.79480 0.38120 0.02567 -0.45000
C 	C 	0.82560 0.43940 0.54537 0.26300
C 	C 	0.83510 0.42910 0.34767 -0.29500
C 	C 	0.90420 0.46440 0.26957 0.07400
C 	C 	0.96450 0.50940 0.37717 -0.05000
C 	C 	0.95350 0.51730 0.57557 0.04800
C 	C 	0.88680 0.48300 0.65777 -0.22500
C 	C 	0.77710 0.38210 0.21477 0.52400
H 	H 	0.91020 0.45720 0.13607 0.01400
H 	H 	0.99330 0.54710 0.65477 0.01000
H 	H 	0.88180 0.48880 0.79287 0.11000
Fe	Fe	0.67250 0.38710 0.48933 1.17100
O 	O 	0.59560 0.35400 0.29933 -0.55900
O 	O 	0.64280 0.36290 0.91633 -0.63700
O 	O 	0.61880 0.41360 0.69233 -0.45000
C 	C 	0.56060 0.38620 0.21203 0.26300
C 	C 	0.57090 0.40600 0.01433 -0.29600
C 	C 	0.53560 0.43980 0.93623 0.07500
C 	C 	0.49060 0.45510 0.04383 -0.05000
C 	C 	0.48270 0.43620 0.24223 0.04900
C 	C 	0.51700 0.40380 0.32443 -0.22600
C 	C 	0.61790 0.39500 0.88143 0.52500
H 	H 	0.54280 0.45300 0.80273 0.01400
H 	H 	0.45290 0.44620 0.32143 0.01000
H 	H 	0.51120 0.39300 0.45953 0.11100
Fe	Fe	0.28540 0.61290 0.84400 1.17100
O 	O 	0.24160 0.64600 0.03400 -0.55800
O 	O 	0.27990 0.63710 0.41700 -0.63700
O 	O 	0.20520 0.58640 0.64100 -0.45000
C 	C 	0.17440 0.61380 0.12130 0.26100
C 	C 	0.16490 0.59400 0.31900 -0.29400
C 	C 	0.09580 0.56020 0.39710 0.07300
C 	C 	0.03550 0.54490 0.28950 -0.04900
C 	C 	0.04650 0.56380 0.09110 0.04600
C 	C 	0.11320 0.59620 0.00890 -0.22100
C 	C 	0.22290 0.60500 0.45190 0.52400
H 	H 	0.08980 0.54700 0.53060 0.01500
H 	H 	0.00670 0.55380 0.01190 0.01200
H 	H 	0.11820 0.60700 0.87380 0.10800
Fe	Fe	0.32750 0.71460 0.17733 1.17100
O 	O 	0.40440 0.75840 0.36733 -0.55900
O 	O 	0.35720 0.72010 0.75033 -0.63700
O 	O 	0.38120 0.79480 0.97433 -0.45000
C 	C 	0.43940 0.82560 0.45463 0.26300
C 	C 	0.42910 0.83510 0.65233 -0.29500
C 	C 	0.46440 0.90420 0.73043 0.07400
C 	C 	0.50940 0.96450 0.62283 -0.05000
C 	C 	0.51730 0.95350 0.42443 0.04800
C 	C 	0.48300 0.88680 0.34223 -0.22500
C 	C 	0.38210 0.77710 0.78523 0.52400
H 	H 	0.45720 0.91020 0.86393 0.01400
H 	H 	0.54710 0.99330 0.34523 0.01000
H 	H 	0.48880 0.88180 0.20713 0.11000
Fe	Fe	0.38710 0.67250 0.51067 1.17100
O 	O 	0.35400 0.59560 0.70067 -0.55900
O 	O 	0.36290 0.64280 0.08367 -0.63700
O 	O 	0.41360 0.61880 0.30767 -0.45000
C 	C 	0.38620 0.56060 0.78797 0.26300
C 	C 	0.40600 0.57090 0.98567 -0.29600
C 	C 	0.43980 0.53560 0.06377 0.07500
C 	C 	0.45510 0.49060 0.95617 -0.05000
C 	C 	0.43620 0.48270 0.75777 0.04900
C 	C 	0.40380 0.51700 0.67557 -0.22600
C 	C 	0.39500 0.61790 0.11857 0.52500
H 	H 	0.45300 0.54280 0.19727 0.01400
H 	H 	0.44620 0.45290 0.67857 0.01000
H 	H 	0.39300 0.51120 0.54047 0.11100
