data_crystal

_cell_length_a 21.81300
_cell_length_b 21.81300
_cell_length_c 6.86880
_cell_angle_alpha 90.00000
_cell_angle_beta  90.00000
_cell_angle_gamma 120.00000

_symmetry_space_group_name_	'P 1'
_symmetry_space_group_name_H-M	'P 1'

loop_
_symmetry_equiv_pos_as_xyz
  x,y,z

loop_
_atom_site_label
_atom_site_type_symbol
_atom_site_fract_x
_atom_site_fract_y
_atom_site_fract_z
_atom_site_charge
Fe	Fe	0.61210 0.28130 0.14500 1.17300
O 	O 	0.65210 0.24320 0.95800 -0.54800
O 	O 	0.64200 0.28350 0.58900 -0.59400
O 	O 	0.58200 0.20500 0.37000 -0.44800
C 	C 	0.61380 0.17440 0.87870 0.24200
C 	C 	0.59400 0.16490 0.68100 -0.26300
C 	C 	0.56020 0.09580 0.60290 0.06000
C 	C 	0.54490 0.03550 0.71050 -0.04300
C 	C 	0.56380 0.04650 0.90890 0.04000
C 	C 	0.59620 0.11320 0.99110 -0.21200
C 	C 	0.60500 0.22290 0.54810 0.46700
H 	H 	0.54700 0.08980 0.46940 0.01900
H 	H 	0.55380 0.00670 0.98810 0.01300
H 	H 	0.60700 0.11820 0.12620 0.10000
Fe	Fe	0.71870 0.33080 0.81167 1.17300
O 	O 	0.75680 0.40890 0.62467 -0.55000
O 	O 	0.71650 0.35850 0.25567 -0.59500
O 	O 	0.79500 0.37700 0.03667 -0.44900
C 	C 	0.82560 0.43940 0.54537 0.24300
C 	C 	0.83510 0.42910 0.34767 -0.26500
C 	C 	0.90420 0.46440 0.26957 0.06100
C 	C 	0.96450 0.50940 0.37717 -0.04600
C 	C 	0.95350 0.51730 0.57557 0.04300
C 	C 	0.88680 0.48300 0.65777 -0.21800
C 	C 	0.77710 0.38210 0.21477 0.46800
H 	H 	0.91020 0.45720 0.13607 0.01900
H 	H 	0.99330 0.54710 0.65477 0.01200
H 	H 	0.88180 0.48880 0.79287 0.10300
Fe	Fe	0.66920 0.38790 0.47833 1.17300
O 	O 	0.59110 0.34790 0.29133 -0.55000
O 	O 	0.64150 0.35800 0.92233 -0.59500
O 	O 	0.62300 0.41800 0.70333 -0.44900
C 	C 	0.56060 0.38620 0.21203 0.24300
C 	C 	0.57090 0.40600 0.01433 -0.26700
C 	C 	0.53560 0.43980 0.93623 0.06200
C 	C 	0.49060 0.45510 0.04383 -0.04600
C 	C 	0.48270 0.43620 0.24223 0.04300
C 	C 	0.51700 0.40380 0.32443 -0.21800
C 	C 	0.61790 0.39500 0.88143 0.46900
H 	H 	0.54280 0.45300 0.80273 0.01900
H 	H 	0.45290 0.44620 0.32143 0.01200
H 	H 	0.51120 0.39300 0.45953 0.10300
Fe	Fe	0.28130 0.61210 0.85500 1.17200
O 	O 	0.24320 0.65210 0.04200 -0.54900
O 	O 	0.28350 0.64200 0.41100 -0.59500
O 	O 	0.20500 0.58200 0.63000 -0.44900
C 	C 	0.17440 0.61380 0.12130 0.24100
C 	C 	0.16490 0.59400 0.31900 -0.26400
C 	C 	0.09580 0.56020 0.39710 0.05900
C 	C 	0.03550 0.54490 0.28950 -0.04400
C 	C 	0.04650 0.56380 0.09110 0.04000
C 	C 	0.11320 0.59620 0.00890 -0.21200
C 	C 	0.22290 0.60500 0.45190 0.46700
H 	H 	0.08980 0.54700 0.53060 0.01900
H 	H 	0.00670 0.55380 0.01190 0.01300
H 	H 	0.11820 0.60700 0.87380 0.10000
Fe	Fe	0.33080 0.71870 0.18833 1.17300
O 	O 	0.40890 0.75680 0.37533 -0.55000
O 	O 	0.35850 0.71650 0.74433 -0.59500
O 	O 	0.37700 0.79500 0.96333 -0.44900
C 	C 	0.43940 0.82560 0.45463 0.24300
C 	C 	0.42910 0.83510 0.65233 -0.26500
C 	C 	0.46440 0.90420 0.73043 0.06100
C 	C 	0.50940 0.96450 0.62283 -0.04600
C 	C 	0.51730 0.95350 0.42443 0.04300
C 	C 	0.48300 0.88680 0.34223 -0.21800
C 	C 	0.38210 0.77710 0.78523 0.46800
H 	H 	0.45720 0.91020 0.86393 0.01900
H 	H 	0.54710 0.99330 0.34523 0.01200
H 	H 	0.48880 0.88180 0.20713 0.10300
Fe	Fe	0.38790 0.66920 0.52167 1.17300
O 	O 	0.34790 0.59110 0.70867 -0.55000
O 	O 	0.35800 0.64150 0.07767 -0.59500
O 	O 	0.41800 0.62300 0.29667 -0.44900
C 	C 	0.38620 0.56060 0.78797 0.24300
C 	C 	0.40600 0.57090 0.98567 -0.26700
C 	C 	0.43980 0.53560 0.06377 0.06200
C 	C 	0.45510 0.49060 0.95617 -0.04600
C 	C 	0.43620 0.48270 0.75777 0.04300
C 	C 	0.40380 0.51700 0.67557 -0.21800
C 	C 	0.39500 0.61790 0.11857 0.46900
H 	H 	0.45300 0.54280 0.19727 0.01900
H 	H 	0.44620 0.45290 0.67857 0.01200
H 	H 	0.39300 0.51120 0.54047 0.10300
