data_crystal

_cell_length_a 20.78030
_cell_length_b 7.91540
_cell_length_c 17.29900
_cell_angle_alpha 90.00000
_cell_angle_beta  90.00000
_cell_angle_gamma 90.00000

_symmetry_space_group_name_	'P 1'
_symmetry_space_group_name_H-M	'P 1'

loop_
_symmetry_equiv_pos_as_xyz
  x,y,z

loop_
_atom_site_label
_atom_site_type_symbol
_atom_site_fract_x
_atom_site_fract_y
_atom_site_fract_z
_atom_site_charge
O 	O 	0.24540 0.43100 0.36000 -0.40200
O 	O 	0.31520 0.27970 0.29240 -0.41900
O 	O 	0.39310 0.97560 0.33040 -0.20000
O 	O 	0.46240 0.18610 0.33890 -0.32300
C 	C 	0.32330 0.27570 0.42990 -0.12600
C 	C 	0.37840 0.17420 0.43010 0.03100
C 	C 	0.29350 0.33300 0.35540 0.34500
C 	C 	0.41250 0.10950 0.35970 0.07800
O 	O 	0.74540 0.93100 0.86000 -0.30500
O 	O 	0.81520 0.77970 0.79240 -0.35400
O 	O 	0.89310 0.47560 0.83040 -0.40800
O 	O 	0.96240 0.68610 0.83890 -0.27600
C 	C 	0.82330 0.77570 0.92990 -0.01300
C 	C 	0.87840 0.67420 0.93010 -0.00500
C 	C 	0.79350 0.83300 0.85540 0.32900
C 	C 	0.91250 0.60950 0.85970 0.30800
O 	O 	0.75460 0.56900 0.36000 -0.37200
O 	O 	0.68480 0.72030 0.29240 -0.36500
O 	O 	0.60690 0.02440 0.33040 -0.60900
O 	O 	0.53760 0.81390 0.33890 -0.37700
C 	C 	0.67670 0.72430 0.42990 0.01700
C 	C 	0.62160 0.82580 0.43010 -0.10500
C 	C 	0.70650 0.66700 0.35540 0.32500
C 	C 	0.58750 0.89050 0.35970 0.55200
O 	O 	0.25460 0.06900 0.86000 -0.44500
O 	O 	0.18480 0.22030 0.79240 -0.43800
O 	O 	0.10690 0.52440 0.83040 -0.41500
O 	O 	0.03760 0.31390 0.83890 -0.42500
C 	C 	0.17670 0.22430 0.92990 -0.06500
C 	C 	0.12160 0.32580 0.93010 -0.03800
C 	C 	0.20650 0.16700 0.85540 0.33400
C 	C 	0.08750 0.39050 0.85970 0.31700
O 	O 	0.25460 0.93100 0.64000 -0.31000
O 	O 	0.18480 0.77970 0.70760 -0.36200
O 	O 	0.10690 0.47560 0.66960 -0.44900
O 	O 	0.03760 0.68610 0.66110 -0.37000
C 	C 	0.17670 0.77570 0.57010 -0.01800
C 	C 	0.12160 0.67420 0.56990 -0.06100
C 	C 	0.20650 0.83300 0.64460 0.32400
C 	C 	0.08750 0.60950 0.64030 0.32700
O 	O 	0.75460 0.43100 0.14000 -0.40100
O 	O 	0.68480 0.27970 0.20760 -0.41900
O 	O 	0.60690 0.97560 0.16960 -0.20200
O 	O 	0.53760 0.18610 0.16110 -0.32400
C 	C 	0.67670 0.27570 0.07010 -0.12100
C 	C 	0.62160 0.17420 0.06990 0.03500
C 	C 	0.70650 0.33300 0.14460 0.34400
C 	C 	0.58750 0.10950 0.14030 0.07700
O 	O 	0.74540 0.06900 0.64000 -0.44800
O 	O 	0.81520 0.22030 0.70760 -0.43100
O 	O 	0.89310 0.52440 0.66960 -0.38000
O 	O 	0.96240 0.31390 0.66110 -0.33800
C 	C 	0.82330 0.22430 0.57010 -0.09200
C 	C 	0.87840 0.32580 0.56990 -0.01600
C 	C 	0.79350 0.16700 0.64460 0.34400
C 	C 	0.91250 0.39050 0.64030 0.30400
O 	O 	0.24540 0.56900 0.14000 -0.37500
O 	O 	0.31520 0.72030 0.20760 -0.36400
O 	O 	0.39310 0.02440 0.16960 -0.60900
O 	O 	0.46240 0.81390 0.16110 -0.37700
C 	C 	0.32330 0.72430 0.07010 0.01800
C 	C 	0.37840 0.82580 0.06990 -0.10000
C 	C 	0.29350 0.66700 0.14460 0.32300
C 	C 	0.41250 0.89050 0.14030 0.54800
O 	O 	0.75460 0.56900 0.64000 -0.37200
O 	O 	0.68480 0.72030 0.70760 -0.36400
O 	O 	0.60690 0.02440 0.66960 -0.61000
O 	O 	0.53760 0.81390 0.66110 -0.37600
C 	C 	0.67670 0.72430 0.57010 0.01700
C 	C 	0.62160 0.82580 0.56990 -0.10500
C 	C 	0.70650 0.66700 0.64460 0.32500
C 	C 	0.58750 0.89050 0.64030 0.55200
O 	O 	0.25460 0.06900 0.14000 -0.45000
O 	O 	0.18480 0.22030 0.20760 -0.43900
O 	O 	0.10690 0.52440 0.16960 -0.41800
O 	O 	0.03760 0.31390 0.16110 -0.42900
C 	C 	0.17670 0.22430 0.07010 -0.07800
C 	C 	0.12160 0.32580 0.06990 -0.05100
C 	C 	0.20650 0.16700 0.14460 0.33500
C 	C 	0.08750 0.39050 0.14030 0.31800
O 	O 	0.24540 0.43100 0.64000 -0.40300
O 	O 	0.31520 0.27970 0.70760 -0.41900
O 	O 	0.39310 0.97560 0.66960 -0.20100
O 	O 	0.46240 0.18610 0.66110 -0.32300
C 	C 	0.32330 0.27570 0.57010 -0.12600
C 	C 	0.37840 0.17420 0.56990 0.03100
C 	C 	0.29350 0.33300 0.64460 0.34500
C 	C 	0.41250 0.10950 0.64030 0.07700
O 	O 	0.74540 0.93100 0.14000 -0.31000
O 	O 	0.81520 0.77970 0.20760 -0.35400
O 	O 	0.89310 0.47560 0.16960 -0.41200
O 	O 	0.96240 0.68610 0.16110 -0.28000
C 	C 	0.82330 0.77570 0.07010 -0.02600
C 	C 	0.87840 0.67420 0.06990 -0.01800
C 	C 	0.79350 0.83300 0.14460 0.33000
C 	C 	0.91250 0.60950 0.14030 0.30900
O 	O 	0.74540 0.06900 0.36000 -0.44800
O 	O 	0.81520 0.22030 0.29240 -0.43100
O 	O 	0.89310 0.52440 0.33040 -0.38000
O 	O 	0.96240 0.31390 0.33890 -0.33900
C 	C 	0.82330 0.22430 0.42990 -0.09200
C 	C 	0.87840 0.32580 0.43010 -0.01600
C 	C 	0.79350 0.16700 0.35540 0.34400
C 	C 	0.91250 0.39050 0.35970 0.30400
O 	O 	0.24540 0.56900 0.86000 -0.37000
O 	O 	0.31520 0.72030 0.79240 -0.36400
O 	O 	0.39310 0.02440 0.83040 -0.60600
O 	O 	0.46240 0.81390 0.83890 -0.37200
C 	C 	0.32330 0.72430 0.92990 0.03100
C 	C 	0.37840 0.82580 0.93010 -0.08700
C 	C 	0.29350 0.66700 0.85540 0.32100
C 	C 	0.41250 0.89050 0.85970 0.54700
O 	O 	0.25460 0.93100 0.36000 -0.31000
O 	O 	0.18480 0.77970 0.29240 -0.36200
O 	O 	0.10690 0.47560 0.33040 -0.44900
O 	O 	0.03760 0.68610 0.33890 -0.37000
C 	C 	0.17670 0.77570 0.42990 -0.01800
C 	C 	0.12160 0.67420 0.43010 -0.06100
C 	C 	0.20650 0.83300 0.35540 0.32400
C 	C 	0.08750 0.60950 0.35970 0.32700
O 	O 	0.75460 0.43100 0.86000 -0.39600
O 	O 	0.68480 0.27970 0.79240 -0.41900
O 	O 	0.60690 0.97560 0.83040 -0.19800
O 	O 	0.53760 0.18610 0.83890 -0.32000
C 	C 	0.67670 0.27570 0.92990 -0.10800
C 	C 	0.62160 0.17420 0.93010 0.04800
C 	C 	0.70650 0.33300 0.85540 0.34200
C 	C 	0.58750 0.10950 0.85970 0.07500
Cd	Cd	0.50000 0.00000 0.25000 1.19100
Cd	Cd	0.00000 0.50000 0.75000 1.21600
Cd	Cd	0.50000 0.00000 0.75000 1.19100
Cd	Cd	-0.00000 0.50000 0.25000 1.21600
Cd	Cd	0.30182 0.00000 0.25000 1.19500
Cd	Cd	0.69818 0.00000 0.25000 1.19500
Cd	Cd	0.19818 0.50000 0.75000 1.25200
Cd	Cd	0.80182 0.50000 0.75000 1.25200
Cd	Cd	0.69818 0.00000 0.75000 1.19500
Cd	Cd	0.19818 0.50000 0.25000 1.25200
Cd	Cd	0.30182 0.00000 0.75000 1.19500
Cd	Cd	0.80182 0.50000 0.25000 1.25200
C 	C 	0.29740 0.32960 0.50000 0.05000
H 	H 	0.26230 0.40260 0.50000 0.04600
C 	C 	0.40510 0.12990 0.50000 -0.09600
H 	H 	0.44290 0.06720 0.50000 0.03900
C 	C 	0.79740 0.82960 -0.00000 -0.01500
H 	H 	0.76230 0.90260 -0.00000 0.10700
C 	C 	0.90510 0.62990 -0.00000 -0.01900
H 	H 	0.94290 0.56720 -0.00000 0.08000
C 	C 	0.70260 0.67040 0.50000 -0.02700
H 	H 	0.73770 0.59740 0.50000 0.09200
C 	C 	0.59490 0.87010 0.50000 0.10600
H 	H 	0.55710 0.93280 0.50000 0.06800
C 	C 	0.20260 0.17040 -0.00000 -0.00700
H 	H 	0.23770 0.09740 -0.00000 0.03500
C 	C 	0.09490 0.37010 -0.00000 -0.01700
H 	H 	0.05710 0.43280 -0.00000 0.03300
C 	C 	0.20260 0.82960 0.50000 -0.01100
H 	H 	0.23770 0.90260 0.50000 0.10900
C 	C 	0.09490 0.62990 0.50000 0.03300
H 	H 	0.05710 0.56720 0.50000 0.01900
C 	C 	0.70260 0.32960 -0.00000 0.02800
H 	H 	0.73770 0.40260 -0.00000 0.05000
C 	C 	0.59490 0.12990 -0.00000 -0.11900
H 	H 	0.55710 0.06720 -0.00000 0.04300
C 	C 	0.79740 0.17040 0.50000 0.03400
H 	H 	0.76230 0.09740 0.50000 0.02800
C 	C 	0.90510 0.37010 0.50000 -0.02000
H 	H 	0.94290 0.43280 0.50000 0.08600
C 	C 	0.29740 0.67040 -0.00000 -0.05000
H 	H 	0.26230 0.59740 -0.00000 0.09200
C 	C 	0.40510 0.87010 -0.00000 0.08000
H 	H 	0.44290 0.93280 -0.00000 0.07100
