data_crystal

_cell_length_a 10.05170
_cell_length_b 10.42930
_cell_length_c 14.90500
_cell_angle_alpha 90.00000
_cell_angle_beta  90.00000
_cell_angle_gamma 90.00000

_symmetry_space_group_name_	'P 1'
_symmetry_space_group_name_H-M	'P 1'

loop_
_symmetry_equiv_pos_as_xyz
  x,y,z

loop_
_atom_site_label
_atom_site_type_symbol
_atom_site_fract_x
_atom_site_fract_y
_atom_site_fract_z
_atom_site_charge
Zn	Zn	0.86651 0.80572 0.67659 1.24500
Zn	Zn	0.62939 0.14276 0.76325 1.24500
P 	P 	0.59850 0.84080 0.77818 0.55400
P 	P 	0.93664 0.10943 0.70409 0.59900
P 	P 	0.92528 0.85143 0.46899 0.53900
O 	O 	0.88440 0.77090 0.54962 -0.40700
O 	O 	0.67860 0.77960 0.70245 -0.45600
O 	O 	0.94110 0.96470 0.72007 -0.44400
O 	O 	0.03410 0.17140 0.76572 -0.42200
O 	O 	0.55350 0.97440 0.75495 -0.45200
O 	O 	0.80010 0.16330 0.70840 -0.45900
O 	O 	0.85930 0.79850 0.38640 -0.42400
O 	O 	0.48250 0.75760 0.80479 -0.40900
O 	O 	0.69630 0.84900 0.86162 -0.35000
O 	O 	0.98850 0.13880 0.60599 -0.32000
O 	O 	0.90100 0.99310 0.48404 -0.31600
O 	O 	0.08140 0.83300 0.45690 -0.32000
H 	H 	0.65800 0.90800 0.90800 0.20700
H 	H 	0.94300 0.08300 0.56100 0.21200
H 	H 	0.10600 0.78700 0.40100 0.17800
Zn	Zn	0.63349 0.19428 0.17659 1.24600
Zn	Zn	0.87061 0.85724 0.26325 1.24500
P 	P 	0.90150 0.15920 0.27818 0.55400
P 	P 	0.56336 0.89057 0.20409 0.60000
P 	P 	0.57472 0.14857 0.96899 0.53800
O 	O 	0.61560 0.22910 0.04962 -0.40600
O 	O 	0.82140 0.22040 0.20245 -0.45600
O 	O 	0.55890 0.03530 0.22007 -0.44400
O 	O 	0.46590 0.82860 0.26572 -0.42300
O 	O 	0.94650 0.02560 0.25495 -0.45200
O 	O 	0.69990 0.83670 0.20840 -0.45900
O 	O 	0.64070 0.20150 0.88640 -0.42400
O 	O 	0.01750 0.24240 0.30479 -0.41000
O 	O 	0.80370 0.15100 0.36162 -0.35000
O 	O 	0.51150 0.86120 0.10599 -0.32000
O 	O 	0.59900 0.00690 0.98404 -0.31700
O 	O 	0.41860 0.16700 0.95690 -0.32000
H 	H 	0.84200 0.09200 0.40800 0.20600
H 	H 	0.55700 0.91700 0.06100 0.21200
H 	H 	0.39400 0.21300 0.90100 0.17800
Zn	Zn	0.13349 0.30572 0.82341 1.24600
Zn	Zn	0.37061 0.64276 0.73675 1.24500
P 	P 	0.40150 0.34080 0.72182 0.55400
P 	P 	0.06336 0.60943 0.79591 0.60100
P 	P 	0.07472 0.35143 0.03101 0.53800
O 	O 	0.11560 0.27090 0.95038 -0.40700
O 	O 	0.32140 0.27960 0.79755 -0.45600
O 	O 	0.05890 0.46470 0.77993 -0.44500
O 	O 	0.96590 0.67140 0.73428 -0.42300
O 	O 	0.44650 0.47440 0.74505 -0.45200
O 	O 	0.19990 0.66330 0.79160 -0.45800
O 	O 	0.14070 0.29850 0.11360 -0.42400
O 	O 	0.51750 0.25760 0.69521 -0.41000
O 	O 	0.30370 0.34900 0.63838 -0.35000
O 	O 	0.01150 0.63880 0.89401 -0.31900
O 	O 	0.09900 0.49310 0.01596 -0.31600
O 	O 	0.91860 0.33300 0.04310 -0.31900
H 	H 	0.34200 0.40800 0.59200 0.20600
H 	H 	0.05700 0.58300 0.93900 0.21200
H 	H 	0.89400 0.28700 0.09900 0.17800
Zn	Zn	0.36651 0.69428 0.32341 1.24600
Zn	Zn	0.12939 0.35724 0.23675 1.24500
P 	P 	0.09850 0.65920 0.22182 0.55300
P 	P 	0.43664 0.39057 0.29591 0.60100
P 	P 	0.42528 0.64857 0.53101 0.53900
O 	O 	0.38440 0.72910 0.45038 -0.40700
O 	O 	0.17860 0.72040 0.29755 -0.45600
O 	O 	0.44110 0.53530 0.27993 -0.44500
O 	O 	0.53410 0.32860 0.23428 -0.42200
O 	O 	0.05350 0.52560 0.24505 -0.45200
O 	O 	0.30010 0.33670 0.29160 -0.45900
O 	O 	0.35930 0.70150 0.61360 -0.42400
O 	O 	0.98250 0.74240 0.19521 -0.40900
O 	O 	0.19630 0.65100 0.13838 -0.35000
O 	O 	0.48850 0.36120 0.39401 -0.32000
O 	O 	0.40100 0.50690 0.51596 -0.31600
O 	O 	0.58140 0.66700 0.54310 -0.31900
H 	H 	0.15800 0.59200 0.09200 0.20600
H 	H 	0.44300 0.41700 0.43900 0.21200
H 	H 	0.60600 0.71300 0.59900 0.17800
