data_crystal

_cell_length_a 13.58350
_cell_length_b 13.58350
_cell_length_c 16.50100
_cell_angle_alpha 119.80210
_cell_angle_beta  119.80210
_cell_angle_gamma 77.62200

_symmetry_space_group_name_	'P 1'
_symmetry_space_group_name_H-M	'P 1'

loop_
_symmetry_equiv_pos_as_xyz
  x,y,z

loop_
_atom_site_label
_atom_site_type_symbol
_atom_site_fract_x
_atom_site_fract_y
_atom_site_fract_z
_atom_site_charge
N 	N 	0.11370 0.12270 0.86670 -0.20400
N 	N 	0.10950 0.82170 0.83490 -0.20700
C 	C 	0.04030 0.19690 0.88850 0.09800
H 	H 	0.96780 0.16920 0.86550 -0.02200
C 	C 	0.06200 0.31600 0.94430 -0.22000
H 	H 	0.00550 0.36630 0.95780 0.09500
C 	C 	0.21780 0.16420 0.90480 0.09400
H 	H 	0.27420 0.11240 0.89300 -0.02200
C 	C 	0.24580 0.27980 0.96060 -0.21500
H 	H 	0.32050 0.30510 0.98670 0.09000
C 	C 	0.16680 0.35720 0.97830 0.17400
C 	C 	0.19320 0.48260 0.03200 -0.24100
C 	C 	0.16270 0.53730 0.97090 0.25000
C 	C 	0.19030 0.65270 0.02010 -0.24100
C 	C 	0.24820 0.71400 0.13000 0.22000
C 	C 	0.27840 0.65860 0.19120 -0.14300
C 	C 	0.25110 0.54210 0.14130 0.21600
C 	C 	0.10030 0.47250 0.85080 -0.58900
H 	H 	0.11420 0.39140 0.82790 0.19000
H 	H 	0.12800 0.50080 0.82120 0.19000
H 	H 	0.01860 0.48380 0.82640 0.18300
C 	C 	0.28590 0.47930 0.20550 -0.55800
H 	H 	0.22370 0.42670 0.17570 0.17800
H 	H 	0.30300 0.53400 0.27840 0.18100
H 	H 	0.35350 0.43650 0.20400 0.17800
C 	C 	0.27850 0.83830 0.18010 -0.57700
H 	H 	0.30580 0.87240 0.25610 0.19100
H 	H 	0.21110 0.87690 0.15000 0.18800
H 	H 	0.33810 0.84650 0.16660 0.17900
C 	C 	0.16050 0.71290 0.95500 0.18100
C 	C 	0.05350 0.74630 0.90960 -0.22400
H 	H 	0.99450 0.73070 0.91720 0.09600
C 	C 	0.03070 0.80350 0.85160 0.10000
H 	H 	0.95680 0.83020 0.82340 -0.02300
C 	C 	0.24080 0.73140 0.93630 -0.22400
H 	H 	0.31590 0.70710 0.96460 0.09000
C 	C 	0.21180 0.78580 0.87580 0.10800
H 	H 	0.26820 0.79780 0.86320 -0.02800
N 	N 	0.87730 0.88630 0.63330 -0.20500
N 	N 	0.17830 0.89050 0.66510 -0.20700
C 	C 	0.80310 0.95970 0.61150 0.10100
H 	H 	0.83080 0.03220 0.63450 -0.02400
C 	C 	0.68400 0.93800 0.55570 -0.22300
H 	H 	0.63370 0.99450 0.54220 0.09700
C 	C 	0.83580 0.78220 0.59520 0.09500
H 	H 	0.88760 0.72580 0.60700 -0.02200
C 	C 	0.72020 0.75420 0.53940 -0.21700
H 	H 	0.69490 0.67950 0.51330 0.09100
C 	C 	0.64280 0.83320 0.52170 0.17800
C 	C 	0.51740 0.80680 0.46800 -0.24700
C 	C 	0.46270 0.83730 0.52910 0.25700
C 	C 	0.34730 0.80970 0.47990 -0.24700
C 	C 	0.28600 0.75180 0.37000 0.22300
C 	C 	0.34140 0.72160 0.30880 -0.14600
C 	C 	0.45790 0.74890 0.35870 0.21900
C 	C 	0.52750 0.89970 0.64920 -0.59400
H 	H 	0.60860 0.88580 0.67210 0.19100
H 	H 	0.49920 0.87200 0.67880 0.19200
H 	H 	0.51620 0.98140 0.67360 0.18400
C 	C 	0.52070 0.71410 0.29450 -0.56000
H 	H 	0.57330 0.77630 0.32430 0.17800
H 	H 	0.46600 0.69700 0.22160 0.18200
H 	H 	0.56350 0.64650 0.29600 0.17900
C 	C 	0.16170 0.72150 0.31990 -0.58000
H 	H 	0.12760 0.69420 0.24390 0.19200
H 	H 	0.12310 0.78890 0.35000 0.18900
H 	H 	0.15350 0.66190 0.33340 0.18000
C 	C 	0.28710 0.83950 0.54500 0.18400
C 	C 	0.25370 0.94650 0.59040 -0.22400
H 	H 	0.26930 0.00550 0.58280 0.09600
C 	C 	0.19650 0.96930 0.64840 0.10100
H 	H 	0.16980 0.04320 0.67660 -0.02400
C 	C 	0.26860 0.75920 0.56370 -0.22600
H 	H 	0.29290 0.68410 0.53540 0.09100
C 	C 	0.21420 0.78820 0.62420 0.11000
H 	H 	0.20220 0.73180 0.63680 -0.02800
N 	N 	0.88630 0.87730 0.13330 -0.20400
N 	N 	0.89050 0.17830 0.16510 -0.20700
C 	C 	0.95970 0.80310 0.11150 0.09800
H 	H 	0.03220 0.83080 0.13450 -0.02200
C 	C 	0.93800 0.68400 0.05570 -0.22000
H 	H 	0.99450 0.63370 0.04220 0.09500
C 	C 	0.78220 0.83580 0.09520 0.09400
H 	H 	0.72580 0.88760 0.10700 -0.02200
C 	C 	0.75420 0.72020 0.03940 -0.21500
H 	H 	0.67950 0.69490 0.01330 0.09000
C 	C 	0.83320 0.64280 0.02170 0.17400
C 	C 	0.80680 0.51740 0.96800 -0.24100
C 	C 	0.83730 0.46270 0.02910 0.25000
C 	C 	0.80970 0.34730 0.97990 -0.24100
C 	C 	0.75180 0.28600 0.87000 0.22000
C 	C 	0.72160 0.34140 0.80880 -0.14300
C 	C 	0.74890 0.45790 0.85870 0.21600
C 	C 	0.89970 0.52750 0.14920 -0.58900
H 	H 	0.88580 0.60860 0.17210 0.19000
H 	H 	0.87200 0.49920 0.17880 0.19000
H 	H 	0.98140 0.51620 0.17360 0.18300
C 	C 	0.71410 0.52070 0.79450 -0.55800
H 	H 	0.77630 0.57330 0.82430 0.17800
H 	H 	0.69700 0.46600 0.72160 0.18100
H 	H 	0.64650 0.56350 0.79600 0.17800
C 	C 	0.72150 0.16170 0.81990 -0.57700
H 	H 	0.69420 0.12760 0.74390 0.19100
H 	H 	0.78890 0.12310 0.85000 0.18800
H 	H 	0.66190 0.15350 0.83340 0.17900
C 	C 	0.83950 0.28710 0.04500 0.18100
C 	C 	0.94650 0.25370 0.09040 -0.22400
H 	H 	0.00550 0.26930 0.08280 0.09600
C 	C 	0.96930 0.19650 0.14840 0.10000
H 	H 	0.04320 0.16980 0.17660 -0.02300
C 	C 	0.75920 0.26860 0.06370 -0.22400
H 	H 	0.68410 0.29290 0.03540 0.09000
C 	C 	0.78820 0.21420 0.12420 0.10800
H 	H 	0.73180 0.20220 0.13680 -0.02800
N 	N 	0.12270 0.11370 0.36670 -0.20500
N 	N 	0.82170 0.10950 0.33490 -0.20700
C 	C 	0.19690 0.04030 0.38850 0.10100
H 	H 	0.16920 0.96780 0.36550 -0.02400
C 	C 	0.31600 0.06200 0.44430 -0.22300
H 	H 	0.36630 0.00550 0.45780 0.09700
C 	C 	0.16420 0.21780 0.40480 0.09500
H 	H 	0.11240 0.27420 0.39300 -0.02200
C 	C 	0.27980 0.24580 0.46060 -0.21700
H 	H 	0.30510 0.32050 0.48670 0.09100
C 	C 	0.35720 0.16680 0.47830 0.17800
C 	C 	0.48260 0.19320 0.53200 -0.24700
C 	C 	0.53730 0.16270 0.47090 0.25700
C 	C 	0.65270 0.19030 0.52010 -0.24700
C 	C 	0.71400 0.24820 0.63000 0.22300
C 	C 	0.65860 0.27840 0.69120 -0.14600
C 	C 	0.54210 0.25110 0.64130 0.21900
C 	C 	0.47250 0.10030 0.35080 -0.59400
H 	H 	0.39140 0.11420 0.32790 0.19100
H 	H 	0.50080 0.12800 0.32120 0.19200
H 	H 	0.48380 0.01860 0.32640 0.18400
C 	C 	0.47930 0.28590 0.70550 -0.56000
H 	H 	0.42670 0.22370 0.67570 0.17800
H 	H 	0.53400 0.30300 0.77840 0.18200
H 	H 	0.43650 0.35350 0.70400 0.17900
C 	C 	0.83830 0.27850 0.68010 -0.58000
H 	H 	0.87240 0.30580 0.75610 0.19200
H 	H 	0.87690 0.21110 0.65000 0.18900
H 	H 	0.84650 0.33810 0.66660 0.18000
C 	C 	0.71290 0.16050 0.45500 0.18400
C 	C 	0.74630 0.05350 0.40960 -0.22400
H 	H 	0.73070 0.99450 0.41720 0.09600
C 	C 	0.80350 0.03070 0.35160 0.10100
H 	H 	0.83020 0.95680 0.32340 -0.02400
C 	C 	0.73140 0.24080 0.43630 -0.22600
H 	H 	0.70710 0.31590 0.46460 0.09100
C 	C 	0.78580 0.21180 0.37580 0.11000
H 	H 	0.79780 0.26820 0.36320 -0.02800
Ag	Ag	0.06900 0.93100 0.75000 0.53200
Ag	Ag	0.93100 0.06900 0.25000 0.53200
