data_crystal

_cell_length_a 15.26100
_cell_length_b 15.26100
_cell_length_c 28.89800
_cell_angle_alpha 90.00000
_cell_angle_beta  90.00000
_cell_angle_gamma 90.00000

_symmetry_space_group_name_	'P 1'
_symmetry_space_group_name_H-M	'P 1'

loop_
_symmetry_equiv_pos_as_xyz
  x,y,z

loop_
_atom_site_label
_atom_site_type_symbol
_atom_site_fract_x
_atom_site_fract_y
_atom_site_fract_z
_atom_site_charge
Ga	Ga	0.19942 0.25867 0.29642 2.07300
Ga	Ga	0.06992 0.15520 0.19930 2.08400
P 	P 	0.22778 0.07486 0.25108 0.55500
P 	P 	0.20545 0.17983 0.11171 0.61700
O 	O 	0.21260 0.13270 0.29438 -0.52800
O 	O 	0.12830 0.14320 0.13902 -0.53800
O 	O 	0.29450 0.11950 0.21846 -0.54700
O 	O 	0.17850 0.22800 0.06803 -0.47700
O 	O 	0.23590 0.26230 0.35885 -0.54500
O 	O 	0.23590 0.40010 0.40368 -0.14000
O 	O 	0.49290 0.33230 0.24256 -0.55600
O 	O 	0.16580 0.24320 0.22517 -0.82900
O 	O 	0.58070 0.25940 0.18149 -0.48900
O 	O 	0.23340 0.51190 0.23328 -0.11700
O 	O 	0.35920 0.43960 0.27491 -0.49100
Ga	Ga	0.69942 0.75867 0.79642 2.07200
Ga	Ga	0.56992 0.65520 0.69930 2.08200
P 	P 	0.72778 0.57486 0.75108 0.55700
P 	P 	0.70545 0.67983 0.61171 0.61700
O 	O 	0.71260 0.63270 0.79438 -0.52800
O 	O 	0.62830 0.64320 0.63902 -0.53900
O 	O 	0.79450 0.61950 0.71846 -0.54800
O 	O 	0.67850 0.72800 0.56803 -0.47800
O 	O 	0.73590 0.76230 0.85885 -0.54600
O 	O 	0.73590 0.90010 0.90368 -0.14200
O 	O 	0.99290 0.83230 0.74256 -0.56800
O 	O 	0.66580 0.74320 0.72517 -0.83000
O 	O 	0.08070 0.75940 0.68149 -0.48900
O 	O 	0.73340 0.01190 0.73328 -0.11800
O 	O 	0.85920 0.93960 0.77491 -0.49500
Ga	Ga	0.30058 0.74133 0.79642 2.07200
Ga	Ga	0.43008 0.84480 0.69930 2.08200
P 	P 	0.27222 0.92514 0.75108 0.55800
P 	P 	0.29455 0.82017 0.61171 0.61700
O 	O 	0.28740 0.86730 0.79438 -0.52800
O 	O 	0.37170 0.85680 0.63902 -0.53900
O 	O 	0.20550 0.88050 0.71846 -0.54600
O 	O 	0.32150 0.77200 0.56803 -0.47700
O 	O 	0.26410 0.73770 0.85885 -0.54500
O 	O 	0.26410 0.59990 0.90368 -0.14100
O 	O 	0.00710 0.66770 0.74256 -0.55300
O 	O 	0.33420 0.75680 0.72517 -0.83000
O 	O 	0.91930 0.74060 0.68149 -0.49800
O 	O 	0.26660 0.48810 0.73328 -0.11800
O 	O 	0.14080 0.56040 0.77491 -0.48900
Ga	Ga	0.80058 0.24133 0.29642 2.07200
Ga	Ga	0.93008 0.34480 0.19930 2.08100
P 	P 	0.77222 0.42514 0.25108 0.55700
P 	P 	0.79455 0.32017 0.11171 0.61700
O 	O 	0.78740 0.36730 0.29438 -0.52900
O 	O 	0.87170 0.35680 0.13902 -0.54200
O 	O 	0.70550 0.38050 0.21846 -0.54700
O 	O 	0.82150 0.27200 0.06803 -0.47800
O 	O 	0.76410 0.23770 0.35885 -0.54600
O 	O 	0.76410 0.09990 0.40368 -0.14200
O 	O 	0.50710 0.16770 0.24256 -0.55600
O 	O 	0.83420 0.25680 0.22517 -0.83100
O 	O 	0.41930 0.24060 0.18149 -0.49000
O 	O 	0.76660 0.98810 0.23328 -0.12100
O 	O 	0.64080 0.06040 0.27491 -0.49200
Ga	Ga	0.49133 0.44942 0.54642 2.07200
Ga	Ga	0.59480 0.31992 0.44930 2.08200
P 	P 	0.67514 0.47778 0.50108 0.55700
P 	P 	0.57017 0.45545 0.36171 0.61700
O 	O 	0.61730 0.46260 0.54438 -0.52800
O 	O 	0.60680 0.37830 0.38902 -0.53900
O 	O 	0.63050 0.54450 0.46846 -0.54800
O 	O 	0.52200 0.42850 0.31803 -0.47700
O 	O 	0.48770 0.48590 0.60885 -0.54500
O 	O 	0.34990 0.48590 0.65368 -0.14100
O 	O 	0.41770 0.74290 0.49256 -0.55500
O 	O 	0.50680 0.41580 0.47517 -0.83000
O 	O 	0.49060 0.83070 0.43149 -0.48900
O 	O 	0.23810 0.48340 0.48328 -0.11700
O 	O 	0.31040 0.60920 0.52491 -0.49100
Ga	Ga	0.99133 0.94942 0.04642 2.07100
Ga	Ga	0.09480 0.81992 0.94930 2.08300
P 	P 	0.17514 0.97778 0.00108 0.55900
P 	P 	0.07017 0.95545 0.86171 0.62000
O 	O 	0.11730 0.96260 0.04438 -0.52300
O 	O 	0.10680 0.87830 0.88902 -0.53800
O 	O 	0.13050 0.04450 0.96846 -0.54800
O 	O 	0.02200 0.92850 0.81803 -0.47100
O 	O 	0.98770 0.98590 0.10885 -0.55200
O 	O 	0.84990 0.98590 0.15368 -0.14400
O 	O 	0.91770 0.24290 0.99256 -0.56200
O 	O 	0.00680 0.91580 0.97517 -0.82300
O 	O 	0.99060 0.33070 0.93149 -0.49700
O 	O 	0.73810 0.98340 0.98328 -0.12100
O 	O 	0.81040 0.10920 0.02491 -0.49100
Ga	Ga	0.00867 0.55058 0.04642 2.07300
Ga	Ga	0.90520 0.68008 0.94930 2.08200
P 	P 	0.82486 0.52222 0.00108 0.55700
P 	P 	0.92983 0.54455 0.86171 0.61700
O 	O 	0.88270 0.53740 0.04438 -0.53200
O 	O 	0.89320 0.62170 0.88902 -0.54100
O 	O 	0.86950 0.45550 0.96846 -0.54800
O 	O 	0.97800 0.57150 0.81803 -0.48300
O 	O 	0.01230 0.51410 0.10885 -0.54200
O 	O 	0.15010 0.51410 0.15368 -0.14000
O 	O 	0.08230 0.25710 0.99256 -0.55600
O 	O 	0.99320 0.58420 0.97517 -0.83600
O 	O 	0.00940 0.16930 0.93149 -0.48800
O 	O 	0.26190 0.51660 0.98328 -0.11800
O 	O 	0.18960 0.39080 0.02491 -0.49100
Ga	Ga	0.50867 0.05058 0.54642 2.07200
Ga	Ga	0.40520 0.18008 0.44930 2.08200
P 	P 	0.32486 0.02222 0.50108 0.55400
P 	P 	0.42983 0.04455 0.36171 0.61600
O 	O 	0.38270 0.03740 0.54438 -0.52800
O 	O 	0.39320 0.12170 0.38902 -0.53900
O 	O 	0.36950 0.95550 0.46846 -0.54600
O 	O 	0.47800 0.07150 0.31803 -0.47700
O 	O 	0.51230 0.01410 0.60885 -0.54500
O 	O 	0.65010 0.01410 0.65368 -0.14100
O 	O 	0.58230 0.75710 0.49256 -0.55600
O 	O 	0.49320 0.08420 0.47517 -0.83000
O 	O 	0.50940 0.66930 0.43149 -0.49000
O 	O 	0.76190 0.01660 0.48328 -0.11900
O 	O 	0.68960 0.89080 0.52491 -0.49200
Ga	Ga	0.80058 0.74133 0.70358 2.07200
Ga	Ga	0.93008 0.84480 0.80070 2.08100
P 	P 	0.77222 0.92514 0.74892 0.55500
P 	P 	0.79455 0.82017 0.88829 0.61700
O 	O 	0.78740 0.86730 0.70562 -0.52900
O 	O 	0.87170 0.85680 0.86098 -0.54400
O 	O 	0.70550 0.88050 0.78154 -0.54700
O 	O 	0.82150 0.77200 0.93197 -0.47900
O 	O 	0.76410 0.73770 0.64115 -0.54600
O 	O 	0.76410 0.59990 0.59632 -0.14300
O 	O 	0.50710 0.66770 0.75744 -0.55600
O 	O 	0.83420 0.75680 0.77483 -0.83200
O 	O 	0.41930 0.74060 0.81851 -0.48900
O 	O 	0.76660 0.48810 0.76672 -0.12000
O 	O 	0.64080 0.56040 0.72509 -0.49200
Ga	Ga	0.30058 0.24133 0.20358 2.07200
Ga	Ga	0.43008 0.34480 0.30070 2.08200
P 	P 	0.27222 0.42514 0.24892 0.55600
P 	P 	0.29455 0.32017 0.38829 0.61700
O 	O 	0.28740 0.36730 0.20562 -0.52800
O 	O 	0.37170 0.35680 0.36098 -0.53900
O 	O 	0.20550 0.38050 0.28154 -0.54600
O 	O 	0.32150 0.27200 0.43197 -0.47700
O 	O 	0.26410 0.23770 0.14115 -0.54500
O 	O 	0.26410 0.09990 0.09632 -0.14100
O 	O 	0.00710 0.16770 0.25744 -0.55400
O 	O 	0.33420 0.25680 0.27483 -0.83000
O 	O 	0.91930 0.24060 0.31851 -0.49500
O 	O 	0.26660 0.98810 0.26672 -0.11600
O 	O 	0.14080 0.06040 0.22509 -0.49000
Ga	Ga	0.69942 0.25867 0.20358 2.07200
Ga	Ga	0.56992 0.15520 0.30070 2.08200
P 	P 	0.72778 0.07486 0.24892 0.55800
P 	P 	0.70545 0.17983 0.38829 0.61700
O 	O 	0.71260 0.13270 0.20562 -0.52800
O 	O 	0.62830 0.14320 0.36098 -0.53900
O 	O 	0.79450 0.11950 0.28154 -0.54800
O 	O 	0.67850 0.22800 0.43197 -0.47800
O 	O 	0.73590 0.26230 0.14115 -0.54600
O 	O 	0.73590 0.40010 0.09632 -0.14200
O 	O 	0.99290 0.33230 0.25744 -0.56400
O 	O 	0.66580 0.24320 0.27483 -0.83000
O 	O 	0.08070 0.25940 0.31851 -0.48900
O 	O 	0.73340 0.51190 0.26672 -0.12000
O 	O 	0.85920 0.43960 0.22509 -0.49400
Ga	Ga	0.19942 0.75867 0.70358 2.07200
Ga	Ga	0.06992 0.65520 0.80070 2.08300
P 	P 	0.22778 0.57486 0.74892 0.55600
P 	P 	0.20545 0.67983 0.88829 0.61700
O 	O 	0.21260 0.63270 0.70562 -0.52800
O 	O 	0.12830 0.64320 0.86098 -0.53700
O 	O 	0.29450 0.61950 0.78154 -0.54700
O 	O 	0.17850 0.72800 0.93197 -0.47700
O 	O 	0.23590 0.76230 0.64115 -0.54500
O 	O 	0.23590 0.90010 0.59632 -0.13900
O 	O 	0.49290 0.83230 0.75744 -0.55600
O 	O 	0.16580 0.74320 0.77483 -0.82900
O 	O 	0.58070 0.75940 0.81851 -0.49000
O 	O 	0.23340 0.01190 0.76672 -0.11900
O 	O 	0.35920 0.93960 0.72509 -0.49100
Ga	Ga	0.50867 0.55058 0.45358 2.07200
Ga	Ga	0.40520 0.68008 0.55070 2.08200
P 	P 	0.32486 0.52222 0.49892 0.55700
P 	P 	0.42983 0.54455 0.63829 0.61700
O 	O 	0.38270 0.53740 0.45562 -0.52800
O 	O 	0.39320 0.62170 0.61098 -0.53900
O 	O 	0.36950 0.45550 0.53154 -0.54700
O 	O 	0.47800 0.57150 0.68197 -0.47700
O 	O 	0.51230 0.51410 0.39115 -0.54500
O 	O 	0.65010 0.51410 0.34632 -0.14200
O 	O 	0.58230 0.25710 0.50744 -0.55600
O 	O 	0.49320 0.58420 0.52483 -0.83000
O 	O 	0.50940 0.16930 0.56851 -0.49000
O 	O 	0.76190 0.51660 0.51672 -0.12000
O 	O 	0.68960 0.39080 0.47509 -0.49200
Ga	Ga	0.00867 0.05058 0.95358 2.07300
Ga	Ga	0.90520 0.18008 0.05070 2.08200
P 	P 	0.82486 0.02222 0.99892 0.55900
P 	P 	0.92983 0.04455 0.13829 0.62000
O 	O 	0.88270 0.03740 0.95562 -0.53100
O 	O 	0.89320 0.12170 0.11098 -0.54100
O 	O 	0.86950 0.95550 0.03154 -0.55100
O 	O 	0.97800 0.07150 0.18197 -0.48100
O 	O 	0.01230 0.01410 0.89115 -0.54500
O 	O 	0.15010 0.01410 0.84632 -0.14300
O 	O 	0.08230 0.75710 0.00744 -0.55600
O 	O 	0.99320 0.08420 0.02483 -0.83400
O 	O 	0.00940 0.66930 0.06851 -0.48700
O 	O 	0.26190 0.01660 0.01672 -0.12000
O 	O 	0.18960 0.89080 0.97509 -0.49100
Ga	Ga	0.99133 0.44942 0.95358 2.07100
Ga	Ga	0.09480 0.31992 0.05070 2.08200
P 	P 	0.17514 0.47778 0.99892 0.55600
P 	P 	0.07017 0.45545 0.13829 0.61600
O 	O 	0.11730 0.46260 0.95562 -0.52400
O 	O 	0.10680 0.37830 0.11098 -0.53900
O 	O 	0.13050 0.54450 0.03154 -0.54600
O 	O 	0.02200 0.42850 0.18197 -0.47300
O 	O 	0.98770 0.48590 0.89115 -0.54900
O 	O 	0.84990 0.48590 0.84632 -0.14200
O 	O 	0.91770 0.74290 0.00744 -0.56500
O 	O 	0.00680 0.41580 0.02483 -0.82500
O 	O 	0.99060 0.83070 0.06851 -0.50000
O 	O 	0.73810 0.48340 0.01672 -0.11900
O 	O 	0.81040 0.60920 0.97509 -0.49200
Ga	Ga	0.49133 0.94942 0.45358 2.07200
Ga	Ga	0.59480 0.81992 0.55070 2.08200
P 	P 	0.67514 0.97778 0.49892 0.55400
P 	P 	0.57017 0.95545 0.63829 0.61600
O 	O 	0.61730 0.96260 0.45562 -0.52900
O 	O 	0.60680 0.87830 0.61098 -0.53900
O 	O 	0.63050 0.04450 0.53154 -0.54700
O 	O 	0.52200 0.92850 0.68197 -0.47700
O 	O 	0.48770 0.98590 0.39115 -0.54500
O 	O 	0.34990 0.98590 0.34632 -0.14000
O 	O 	0.41770 0.24290 0.50744 -0.55600
O 	O 	0.50680 0.91580 0.52483 -0.83000
O 	O 	0.49060 0.33070 0.56851 -0.48900
O 	O 	0.23810 0.98340 0.51672 -0.11600
O 	O 	0.31040 0.10920 0.47509 -0.49100
P 	P 	0.50000 0.25000 0.21256 0.59300
P 	P 	0.00000 0.75000 0.71256 0.60900
P 	P 	0.50000 0.75000 0.46256 0.59300
P 	P 	0.00000 0.25000 0.96256 0.60400
P 	P 	0.50000 0.75000 0.78744 0.59300
P 	P 	0.00000 0.25000 0.28744 0.60400
P 	P 	0.50000 0.25000 0.53744 0.59300
P 	P 	0.00000 0.75000 0.03744 0.60900
O 	O 	0.00000 0.25000 0.17430 -0.71700
O 	O 	0.50000 0.75000 0.67430 -0.72100
O 	O 	0.50000 0.25000 0.42430 -0.72100
O 	O 	-0.00000 0.75000 0.92430 -0.71500
O 	O 	-0.00000 0.75000 0.82570 -0.71500
O 	O 	0.50000 0.25000 0.32570 -0.72100
O 	O 	0.50000 0.75000 0.57570 -0.72100
O 	O 	-0.00000 0.25000 0.07570 -0.71700
