data_crystal

_cell_length_a 8.45150
_cell_length_b 12.39720
_cell_length_c 12.56800
_cell_angle_alpha 110.45300
_cell_angle_beta  102.13200
_cell_angle_gamma 109.61900

_symmetry_space_group_name_	'P 1'
_symmetry_space_group_name_H-M	'P 1'

loop_
_symmetry_equiv_pos_as_xyz
  x,y,z

loop_
_atom_site_label
_atom_site_type_symbol
_atom_site_fract_x
_atom_site_fract_y
_atom_site_fract_z
_atom_site_charge
Yb	Yb	0.70597 0.54147 0.40361 1.50100
O 	O 	0.86100 0.73390 0.39270 -0.37100
O 	O 	0.02820 0.67170 0.49320 -0.41400
C 	C 	0.01430 0.74890 0.45000 0.29200
C 	C 	0.18230 0.85290 0.46380 -0.06600
C 	C 	0.16940 0.95210 0.43560 0.00400
H 	H 	0.05510 0.95110 0.40810 0.04900
C 	C 	0.32300 0.04920 0.44840 -0.07600
H 	H 	0.31490 0.11670 0.43180 0.07000
C 	C 	0.49340 0.04940 0.48630 0.02800
C 	C 	0.65340 0.14660 0.49690 -0.04000
H 	H 	0.64640 0.21220 0.47640 0.05500
O 	O 	0.55030 0.49150 0.20100 -0.38400
O 	O 	0.44080 0.56660 0.33890 -0.37800
C 	C 	0.43010 0.52130 0.22750 0.29700
C 	C 	0.27590 0.50350 0.12820 -0.06100
C 	C 	0.26170 0.44490 0.00570 0.00100
H 	H 	0.34890 0.41670 0.98780 0.05300
C 	C 	0.12340 0.42830 0.91240 -0.07500
H 	H 	0.11490 0.38860 0.83030 0.05900
C 	C 	0.99260 0.47050 0.93830 0.02200
C 	C 	0.84930 0.45450 0.84420 -0.04500
H 	H 	0.83860 0.41480 0.76160 0.05100
O 	O 	0.71650 0.67300 0.57840 -0.48100
O 	O 	0.51600 0.65850 0.66780 -0.47500
C 	C 	0.67150 0.70860 0.66850 0.42200
C 	C 	0.81790 0.82100 0.78510 -0.11700
C 	C 	0.99970 0.86580 0.79610 0.03100
H 	H 	0.03000 0.82830 0.72830 0.02700
C 	C 	0.13190 0.96220 0.90320 -0.09300
H 	H 	0.25460 0.98920 0.91030 0.06300
C 	C 	0.09130 0.02350 0.00440 0.02300
C 	C 	0.22650 0.12700 0.11670 -0.01600
H 	H 	0.34920 0.16080 0.12390 0.04600
Yb	Yb	0.29403 0.45853 0.59639 1.50000
O 	O 	0.13900 0.26610 0.60730 -0.37200
O 	O 	0.97180 0.32830 0.50680 -0.41500
C 	C 	0.98570 0.25110 0.55000 0.29100
C 	C 	0.81770 0.14710 0.53620 -0.06600
C 	C 	0.83060 0.04790 0.56440 0.00400
H 	H 	0.94490 0.04890 0.59190 0.04900
C 	C 	0.67700 0.95080 0.55160 -0.07600
H 	H 	0.68510 0.88330 0.56820 0.07000
C 	C 	0.50660 0.95060 0.51370 0.02800
C 	C 	0.34660 0.85340 0.50310 -0.04000
H 	H 	0.35360 0.78780 0.52360 0.05500
O 	O 	0.44970 0.50850 0.79900 -0.38400
O 	O 	0.55920 0.43340 0.66110 -0.37800
C 	C 	0.56990 0.47870 0.77250 0.29700
C 	C 	0.72410 0.49650 0.87180 -0.06100
C 	C 	0.73830 0.55510 0.99430 0.00100
H 	H 	0.65110 0.58330 0.01220 0.05300
C 	C 	0.87660 0.57170 0.08760 -0.07500
H 	H 	0.88510 0.61140 0.16970 0.05900
C 	C 	0.00740 0.52950 0.06170 0.02200
C 	C 	0.15070 0.54550 0.15580 -0.04500
H 	H 	0.16140 0.58520 0.23840 0.05100
O 	O 	0.28350 0.32700 0.42160 -0.48100
O 	O 	0.48400 0.34150 0.33220 -0.47500
C 	C 	0.32850 0.29140 0.33150 0.42200
C 	C 	0.18210 0.17900 0.21490 -0.11700
C 	C 	0.00030 0.13420 0.20390 0.03100
H 	H 	0.97000 0.17170 0.27170 0.02700
C 	C 	0.86810 0.03780 0.09680 -0.09300
H 	H 	0.74540 0.01080 0.08970 0.06300
C 	C 	0.90870 0.97650 0.99560 0.02300
C 	C 	0.77350 0.87300 0.88330 -0.01600
H 	H 	0.65080 0.83920 0.87610 0.04600
