data_crystal

_cell_length_a 19.66750
_cell_length_b 11.94570
_cell_length_c 21.97730
_cell_angle_alpha 90.00000
_cell_angle_beta  97.16600
_cell_angle_gamma 90.00000

_symmetry_space_group_name_	'P 1'
_symmetry_space_group_name_H-M	'P 1'

loop_
_symmetry_equiv_pos_as_xyz
  x,y,z

loop_
_atom_site_label
_atom_site_type_symbol
_atom_site_fract_x
_atom_site_fract_y
_atom_site_fract_z
_atom_site_charge
Eu	Eu	0.33155 0.32989 0.97432 2.04500
O 	O 	0.30013 0.15610 0.01561 -0.58000
O 	O 	0.17794 0.13580 0.91845 -0.48200
O 	O 	0.24169 0.00070 0.02346 -0.44500
O 	O 	0.26671 0.23310 0.89176 -0.48600
O 	O 	0.55136 0.72130 0.97731 -0.40000
C 	C 	0.16430 0.17320 0.71110 -0.03900
H 	H 	0.15140 0.22860 0.68080 0.06000
O 	O 	0.15150 0.92880 0.61433 -0.46600
O 	O 	0.58393 0.78490 0.06972 -0.39600
C 	C 	0.18830 0.81840 0.84550 -0.12500
H 	H 	0.14910 0.80560 0.81650 0.08000
O 	O 	0.09562 0.09070 0.59829 -0.28500
C 	C 	0.21840 0.16650 0.88140 0.47400
C 	C 	0.47610 0.84730 0.02100 -0.01700
C 	C 	0.42010 0.82500 0.97700 -0.07800
H 	H 	0.42230 0.76510 0.94890 0.08800
N 	N 	0.27680 0.94510 0.88923 -0.13100
C 	C 	0.29980 0.86370 0.92840 0.08400
C 	C 	0.13440 0.02440 0.63080 0.36700
C 	C 	0.35910 0.98140 0.01390 -0.13300
C 	C 	0.20350 0.12390 0.81630 -0.12000
C 	C 	0.41630 0.00440 0.05700 0.03000
H 	H 	0.41580 0.06750 0.08330 0.02600
C 	C 	0.54030 0.77960 0.02270 0.29300
C 	C 	0.20110 0.01050 0.80120 0.03700
C 	C 	0.22250 0.92140 0.84740 0.08300
C 	C 	0.18010 0.97970 0.74020 -0.04600
H 	H 	0.17940 0.90280 0.72910 0.06200
C 	C 	0.47360 0.93540 0.06160 -0.06400
H 	H 	0.51110 0.94880 0.09240 0.07200
C 	C 	0.18720 0.20490 0.77070 0.01900
H 	H 	0.19200 0.28210 0.78070 0.03300
C 	C 	0.29670 0.04950 0.01700 0.41900
C 	C 	0.36050 0.89090 0.97420 0.05000
C 	C 	0.21280 0.73560 0.88650 0.05300
H 	H 	0.19070 0.66490 0.88620 0.02300
C 	C 	0.16020 0.06030 0.69550 -0.05600
C 	C 	0.27000 0.75760 0.92810 -0.12500
H 	H 	0.28880 0.70140 0.95590 0.09300
Eu	Eu	0.83155 0.82989 0.97432 2.03800
O 	O 	0.80013 0.65610 0.01561 -0.57900
O 	O 	0.67794 0.63580 0.91845 -0.48400
O 	O 	0.74169 0.50070 0.02346 -0.44500
O 	O 	0.76671 0.73310 0.89176 -0.48700
O 	O 	0.05136 0.22130 0.97731 -0.39600
C 	C 	0.66430 0.67320 0.71110 -0.04000
H 	H 	0.65140 0.72860 0.68080 0.05900
O 	O 	0.65150 0.42880 0.61433 -0.46700
O 	O 	0.08393 0.28490 0.06972 -0.39500
C 	C 	0.68830 0.31840 0.84550 -0.12600
H 	H 	0.64910 0.30560 0.81650 0.07900
O 	O 	0.59562 0.59070 0.59829 -0.28600
C 	C 	0.71840 0.66650 0.88140 0.47300
C 	C 	0.97610 0.34730 0.02100 -0.01200
C 	C 	0.92010 0.32500 0.97700 -0.08300
H 	H 	0.92230 0.26510 0.94890 0.08900
N 	N 	0.77680 0.44510 0.88923 -0.13100
C 	C 	0.79980 0.36370 0.92840 0.08400
C 	C 	0.63440 0.52440 0.63080 0.36700
C 	C 	0.85910 0.48140 0.01390 -0.13200
C 	C 	0.70350 0.62390 0.81630 -0.12000
C 	C 	0.91630 0.50440 0.05700 0.03100
H 	H 	0.91580 0.56750 0.08330 0.02600
C 	C 	0.04030 0.27960 0.02270 0.28500
C 	C 	0.70110 0.51050 0.80120 0.03600
C 	C 	0.72250 0.42140 0.84740 0.08300
C 	C 	0.68010 0.47970 0.74020 -0.04500
H 	H 	0.67940 0.40280 0.72910 0.06200
C 	C 	0.97360 0.43540 0.06160 -0.06300
H 	H 	0.01110 0.44880 0.09240 0.07000
C 	C 	0.68720 0.70490 0.77070 0.01900
H 	H 	0.69200 0.78210 0.78070 0.03300
C 	C 	0.79670 0.54950 0.01700 0.41900
C 	C 	0.86050 0.39090 0.97420 0.04900
C 	C 	0.71280 0.23560 0.88650 0.05300
H 	H 	0.69070 0.16490 0.88620 0.02300
C 	C 	0.66020 0.56030 0.69550 -0.05700
C 	C 	0.77000 0.25760 0.92810 -0.12500
H 	H 	0.78880 0.20140 0.95590 0.09200
Eu	Eu	0.66845 0.32989 0.52568 2.04100
O 	O 	0.69987 0.15610 0.48439 -0.58000
O 	O 	0.82206 0.13580 0.58155 -0.48400
O 	O 	0.75831 0.00070 0.47654 -0.44600
O 	O 	0.73329 0.23310 0.60824 -0.48700
O 	O 	0.44864 0.72130 0.52269 -0.40100
C 	C 	0.83570 0.17320 0.78890 -0.04000
H 	H 	0.84860 0.22860 0.81920 0.05900
O 	O 	0.84850 0.92880 0.88567 -0.46700
O 	O 	0.41607 0.78490 0.43028 -0.39600
C 	C 	0.81170 0.81840 0.65450 -0.12600
H 	H 	0.85090 0.80560 0.68350 0.07900
O 	O 	0.90438 0.09070 0.90171 -0.28600
C 	C 	0.78160 0.16650 0.61860 0.47300
C 	C 	0.52390 0.84730 0.47900 -0.01700
C 	C 	0.57990 0.82500 0.52300 -0.07900
H 	H 	0.57770 0.76510 0.55110 0.08800
N 	N 	0.72320 0.94510 0.61077 -0.13100
C 	C 	0.70020 0.86370 0.57160 0.08400
C 	C 	0.86560 0.02440 0.86920 0.36700
C 	C 	0.64090 0.98140 0.48610 -0.13500
C 	C 	0.79650 0.12390 0.68370 -0.12000
C 	C 	0.58370 0.00440 0.44300 0.03200
H 	H 	0.58420 0.06750 0.41670 0.02500
C 	C 	0.45970 0.77960 0.47730 0.29200
C 	C 	0.79890 0.01050 0.69880 0.03600
C 	C 	0.77750 0.92140 0.65260 0.08300
C 	C 	0.81990 0.97970 0.75980 -0.04500
H 	H 	0.82060 0.90280 0.77090 0.06200
C 	C 	0.52640 0.93540 0.43840 -0.06500
H 	H 	0.48890 0.94880 0.40760 0.07300
C 	C 	0.81280 0.20490 0.72930 0.01900
H 	H 	0.80800 0.28210 0.71930 0.03300
C 	C 	0.70330 0.04950 0.48300 0.42000
C 	C 	0.63950 0.89090 0.52580 0.05000
C 	C 	0.78720 0.73560 0.61350 0.05300
H 	H 	0.80930 0.66490 0.61380 0.02300
C 	C 	0.83980 0.06030 0.80450 -0.05600
C 	C 	0.73000 0.75760 0.57190 -0.12500
H 	H 	0.71120 0.70140 0.54410 0.09200
Eu	Eu	0.16845 0.82989 0.52568 2.04100
O 	O 	0.19987 0.65610 0.48439 -0.58000
O 	O 	0.32206 0.63580 0.58155 -0.48400
O 	O 	0.25831 0.50070 0.47654 -0.44600
O 	O 	0.23329 0.73310 0.60824 -0.48700
O 	O 	0.94864 0.22130 0.52269 -0.40100
C 	C 	0.33570 0.67320 0.78890 -0.04000
H 	H 	0.34860 0.72860 0.81920 0.05900
O 	O 	0.34850 0.42880 0.88567 -0.46800
O 	O 	0.91607 0.28490 0.43028 -0.39600
C 	C 	0.31170 0.31840 0.65450 -0.12600
H 	H 	0.35090 0.30560 0.68350 0.07900
O 	O 	0.40438 0.59070 0.90171 -0.28500
C 	C 	0.28160 0.66650 0.61860 0.47300
C 	C 	0.02390 0.34730 0.47900 -0.01700
C 	C 	0.07990 0.32500 0.52300 -0.08000
H 	H 	0.07770 0.26510 0.55110 0.08900
N 	N 	0.22320 0.44510 0.61077 -0.13100
C 	C 	0.20020 0.36370 0.57160 0.08400
C 	C 	0.36560 0.52440 0.86920 0.36800
C 	C 	0.14090 0.48140 0.48610 -0.13500
C 	C 	0.29650 0.62390 0.68370 -0.12000
C 	C 	0.08370 0.50440 0.44300 0.03300
H 	H 	0.08420 0.56750 0.41670 0.02500
C 	C 	0.95970 0.27960 0.47730 0.29100
C 	C 	0.29890 0.51050 0.69880 0.03600
C 	C 	0.27750 0.42140 0.65260 0.08300
C 	C 	0.31990 0.47970 0.75980 -0.04500
H 	H 	0.32060 0.40280 0.77090 0.06200
C 	C 	0.02640 0.43540 0.43840 -0.06700
H 	H 	0.98890 0.44880 0.40760 0.07300
C 	C 	0.31280 0.70490 0.72930 0.01900
H 	H 	0.30800 0.78210 0.71930 0.03300
C 	C 	0.20330 0.54950 0.48300 0.42000
C 	C 	0.13950 0.39090 0.52580 0.05000
C 	C 	0.28720 0.23560 0.61350 0.05300
H 	H 	0.30930 0.16490 0.61380 0.02300
C 	C 	0.33980 0.56030 0.80450 -0.05700
C 	C 	0.23000 0.25760 0.57190 -0.12500
H 	H 	0.21120 0.20140 0.54410 0.09200
Eu	Eu	0.66845 0.67011 0.02568 2.04400
O 	O 	0.69987 0.84390 0.98439 -0.58100
O 	O 	0.82206 0.86420 0.08155 -0.48300
O 	O 	0.75831 0.99930 0.97654 -0.44600
O 	O 	0.73329 0.76690 0.10824 -0.48700
O 	O 	0.44864 0.27870 0.02269 -0.40100
C 	C 	0.83570 0.82680 0.28890 -0.04000
H 	H 	0.84860 0.77140 0.31920 0.05900
O 	O 	0.84850 0.07120 0.38567 -0.46700
O 	O 	0.41607 0.21510 0.93028 -0.39700
C 	C 	0.81170 0.18160 0.15450 -0.12600
H 	H 	0.85090 0.19440 0.18350 0.07900
O 	O 	0.90438 0.90930 0.40171 -0.28600
C 	C 	0.78160 0.83350 0.11860 0.47300
C 	C 	0.52390 0.15270 0.97900 -0.01800
C 	C 	0.57990 0.17500 0.02300 -0.07900
H 	H 	0.57770 0.23490 0.05110 0.08800
N 	N 	0.72320 0.05490 0.11077 -0.13100
C 	C 	0.70020 0.13630 0.07160 0.08400
C 	C 	0.86560 0.97560 0.36920 0.36700
C 	C 	0.64090 0.01860 0.98610 -0.13300
C 	C 	0.79650 0.87610 0.18370 -0.12000
C 	C 	0.58370 0.99560 0.94300 0.03000
H 	H 	0.58420 0.93250 0.91670 0.02600
C 	C 	0.45970 0.22040 0.97730 0.29300
C 	C 	0.79890 0.98950 0.19880 0.03700
C 	C 	0.77750 0.07860 0.15260 0.08300
C 	C 	0.81990 0.02030 0.25980 -0.04600
H 	H 	0.82060 0.09720 0.27090 0.06200
C 	C 	0.52640 0.06460 0.93840 -0.06400
H 	H 	0.48890 0.05120 0.90760 0.07200
C 	C 	0.81280 0.79510 0.22930 0.01900
H 	H 	0.80800 0.71790 0.21930 0.03300
C 	C 	0.70330 0.95050 0.98300 0.41900
C 	C 	0.63950 0.10910 0.02580 0.05000
C 	C 	0.78720 0.26440 0.11350 0.05300
H 	H 	0.80930 0.33510 0.11380 0.02300
C 	C 	0.83980 0.93970 0.30450 -0.05600
C 	C 	0.73000 0.24240 0.07190 -0.12500
H 	H 	0.71120 0.29860 0.04410 0.09300
Eu	Eu	0.16845 0.17011 0.02568 2.03800
O 	O 	0.19987 0.34390 0.98439 -0.57900
O 	O 	0.32206 0.36420 0.08155 -0.48400
O 	O 	0.25831 0.49930 0.97654 -0.44500
O 	O 	0.23329 0.26690 0.10824 -0.48700
O 	O 	0.94864 0.77870 0.02269 -0.39600
C 	C 	0.33570 0.32680 0.28890 -0.04000
H 	H 	0.34860 0.27140 0.31920 0.05900
O 	O 	0.34850 0.57120 0.38567 -0.46700
O 	O 	0.91607 0.71510 0.93028 -0.39500
C 	C 	0.31170 0.68160 0.15450 -0.12600
H 	H 	0.35090 0.69440 0.18350 0.07900
O 	O 	0.40438 0.40930 0.40171 -0.28600
C 	C 	0.28160 0.33350 0.11860 0.47300
C 	C 	0.02390 0.65270 0.97900 -0.01200
C 	C 	0.07990 0.67500 0.02300 -0.08300
H 	H 	0.07770 0.73490 0.05110 0.08900
N 	N 	0.22320 0.55490 0.11077 -0.13100
C 	C 	0.20020 0.63630 0.07160 0.08400
C 	C 	0.36560 0.47560 0.36920 0.36700
C 	C 	0.14090 0.51860 0.98610 -0.13200
C 	C 	0.29650 0.37610 0.18370 -0.12000
C 	C 	0.08370 0.49560 0.94300 0.03100
H 	H 	0.08420 0.43250 0.91670 0.02600
C 	C 	0.95970 0.72040 0.97730 0.28500
C 	C 	0.29890 0.48950 0.19880 0.03600
C 	C 	0.27750 0.57860 0.15260 0.08300
C 	C 	0.31990 0.52030 0.25980 -0.04500
H 	H 	0.32060 0.59720 0.27090 0.06200
C 	C 	0.02640 0.56460 0.93840 -0.06300
H 	H 	0.98890 0.55120 0.90760 0.07000
C 	C 	0.31280 0.29510 0.22930 0.01900
H 	H 	0.30800 0.21790 0.21930 0.03300
C 	C 	0.20330 0.45050 0.98300 0.41900
C 	C 	0.13950 0.60910 0.02580 0.04900
C 	C 	0.28720 0.76440 0.11350 0.05300
H 	H 	0.30930 0.83510 0.11380 0.02300
C 	C 	0.33980 0.43970 0.30450 -0.05700
C 	C 	0.23000 0.74240 0.07190 -0.12500
H 	H 	0.21120 0.79860 0.04410 0.09200
Eu	Eu	0.33155 0.67011 0.47432 2.04100
O 	O 	0.30013 0.84390 0.51561 -0.58000
O 	O 	0.17794 0.86420 0.41845 -0.48400
O 	O 	0.24169 0.99930 0.52346 -0.44600
O 	O 	0.26671 0.76690 0.39176 -0.48700
O 	O 	0.55136 0.27870 0.47731 -0.40100
C 	C 	0.16430 0.82680 0.21110 -0.04000
H 	H 	0.15140 0.77140 0.18080 0.05900
O 	O 	0.15150 0.07120 0.11433 -0.46700
O 	O 	0.58393 0.21510 0.56972 -0.39600
C 	C 	0.18830 0.18160 0.34550 -0.12600
H 	H 	0.14910 0.19440 0.31650 0.07900
O 	O 	0.09562 0.90930 0.09829 -0.28600
C 	C 	0.21840 0.83350 0.38140 0.47300
C 	C 	0.47610 0.15270 0.52100 -0.01700
C 	C 	0.42010 0.17500 0.47700 -0.07900
H 	H 	0.42230 0.23490 0.44890 0.08800
N 	N 	0.27680 0.05490 0.38923 -0.13100
C 	C 	0.29980 0.13630 0.42840 0.08400
C 	C 	0.13440 0.97560 0.13080 0.36700
C 	C 	0.35910 0.01860 0.51390 -0.13500
C 	C 	0.20350 0.87610 0.31630 -0.12000
C 	C 	0.41630 0.99560 0.55700 0.03200
H 	H 	0.41580 0.93250 0.58330 0.02500
C 	C 	0.54030 0.22040 0.52270 0.29200
C 	C 	0.20110 0.98950 0.30120 0.03600
C 	C 	0.22250 0.07860 0.34740 0.08300
C 	C 	0.18010 0.02030 0.24020 -0.04500
H 	H 	0.17940 0.09720 0.22910 0.06200
C 	C 	0.47360 0.06460 0.56160 -0.06500
H 	H 	0.51110 0.05120 0.59240 0.07300
C 	C 	0.18720 0.79510 0.27070 0.01900
H 	H 	0.19200 0.71790 0.28070 0.03300
C 	C 	0.29670 0.95050 0.51700 0.42000
C 	C 	0.36050 0.10910 0.47420 0.05000
C 	C 	0.21280 0.26440 0.38650 0.05300
H 	H 	0.19070 0.33510 0.38620 0.02300
C 	C 	0.16020 0.93970 0.19550 -0.05600
C 	C 	0.27000 0.24240 0.42810 -0.12500
H 	H 	0.28880 0.29860 0.45590 0.09200
Eu	Eu	0.83155 0.17011 0.47432 2.04100
O 	O 	0.80013 0.34390 0.51561 -0.58000
O 	O 	0.67794 0.36420 0.41845 -0.48400
O 	O 	0.74169 0.49930 0.52346 -0.44600
O 	O 	0.76671 0.26690 0.39176 -0.48700
O 	O 	0.05136 0.77870 0.47731 -0.40100
C 	C 	0.66430 0.32680 0.21110 -0.04000
H 	H 	0.65140 0.27140 0.18080 0.05900
O 	O 	0.65150 0.57120 0.11433 -0.46800
O 	O 	0.08393 0.71510 0.56972 -0.39600
C 	C 	0.68830 0.68160 0.34550 -0.12600
H 	H 	0.64910 0.69440 0.31650 0.07900
O 	O 	0.59562 0.40930 0.09829 -0.28500
C 	C 	0.71840 0.33350 0.38140 0.47300
C 	C 	0.97610 0.65270 0.52100 -0.01700
C 	C 	0.92010 0.67500 0.47700 -0.08000
H 	H 	0.92230 0.73490 0.44890 0.08900
N 	N 	0.77680 0.55490 0.38923 -0.13100
C 	C 	0.79980 0.63630 0.42840 0.08400
C 	C 	0.63440 0.47560 0.13080 0.36800
C 	C 	0.85910 0.51860 0.51390 -0.13500
C 	C 	0.70350 0.37610 0.31630 -0.12000
C 	C 	0.91630 0.49560 0.55700 0.03300
H 	H 	0.91580 0.43250 0.58330 0.02500
C 	C 	0.04030 0.72040 0.52270 0.29100
C 	C 	0.70110 0.48950 0.30120 0.03600
C 	C 	0.72250 0.57860 0.34740 0.08300
C 	C 	0.68010 0.52030 0.24020 -0.04500
H 	H 	0.67940 0.59720 0.22910 0.06200
C 	C 	0.97360 0.56460 0.56160 -0.06700
H 	H 	0.01110 0.55120 0.59240 0.07300
C 	C 	0.68720 0.29510 0.27070 0.01900
H 	H 	0.69200 0.21790 0.28070 0.03300
C 	C 	0.79670 0.45050 0.51700 0.42000
C 	C 	0.86050 0.60910 0.47420 0.05000
C 	C 	0.71280 0.76440 0.38650 0.05300
H 	H 	0.69070 0.83510 0.38620 0.02300
C 	C 	0.66020 0.43970 0.19550 -0.05700
C 	C 	0.77000 0.74240 0.42810 -0.12500
H 	H 	0.78880 0.79860 0.45590 0.09200
