data_crystal

_cell_length_a 15.30350
_cell_length_b 39.69460
_cell_length_c 21.59340
_cell_angle_alpha 90.00000
_cell_angle_beta  107.40200
_cell_angle_gamma 90.00000

_symmetry_space_group_name_	'P 1'
_symmetry_space_group_name_H-M	'P 1'

loop_
_symmetry_equiv_pos_as_xyz
  x,y,z

loop_
_atom_site_label
_atom_site_type_symbol
_atom_site_fract_x
_atom_site_fract_y
_atom_site_fract_z
_atom_site_charge
Cu	Cu	0.29913 0.23648 0.20285 0.90100
Cu	Cu	0.19147 0.28339 0.13371 0.89900
Cu	Cu	0.51863 0.99217 0.94591 0.90000
O 	O 	0.13726 0.28602 0.20530 -0.39800
O 	O 	0.29022 0.31408 0.17927 -0.39600
O 	O 	0.19826 0.20632 0.16305 -0.39800
O 	O 	0.60094 0.03083 0.96592 -0.40300
O 	O 	0.75696 0.22653 0.57063 -0.40600
O 	O 	0.84422 0.26793 0.62768 -0.40700
O 	O 	0.23476 0.24849 0.26648 -0.40200
O 	O 	0.38522 0.27312 0.23310 -0.40100
O 	O 	0.10655 0.24585 0.10113 -0.39600
C 	C 	0.61353 0.04743 0.01735 0.31800
C 	C 	0.16528 0.26723 0.25428 0.32000
C 	C 	0.36592 0.30346 0.21697 0.30700
C 	C 	0.81733 0.24922 0.57918 0.32600
C 	C 	0.03415 0.28635 0.29232 -0.13400
H 	H 	0.01680 0.30120 0.25750 0.09100
C 	C 	0.00783 0.26164 0.38708 -0.04200
C 	C 	0.95931 0.20139 0.07185 -0.14400
H 	H 	0.94790 0.22380 0.05960 0.09400
C 	C 	0.95494 0.25952 0.43461 -0.04900
C 	C 	0.82917 0.11970 0.05936 -0.04600
C 	C 	0.08472 0.24103 0.39514 0.14900
C 	C 	0.74265 0.07585 0.99130 -0.13700
H 	H 	0.73190 0.06210 0.95490 0.09300
C 	C 	0.77230 0.11708 0.09951 0.15500
C 	C 	0.98390 0.28417 0.33521 0.15100
C 	C 	0.90584 0.14471 0.07491 -0.04800
C 	C 	0.88880 0.17853 0.05817 0.15900
C 	C 	0.81330 0.09895 0.00517 0.15400
C 	C 	0.11153 0.26605 0.30132 0.01100
C 	C 	0.12264 0.21628 0.12320 0.30600
C 	C 	0.70234 0.09364 0.08617 -0.14200
H 	H 	0.66550 0.09160 0.11330 0.09200
C 	C 	0.13718 0.24386 0.35296 -0.13700
H 	H 	0.18960 0.23080 0.35940 0.09000
C 	C 	0.04782 0.19086 0.10401 0.02200
C 	C 	0.98294 0.27847 0.49186 0.15000
C 	C 	0.52617 0.31801 0.27725 -0.14500
H 	H 	0.53900 0.29510 0.28070 0.09600
C 	C 	0.68765 0.07322 0.03205 0.01400
C 	C 	0.59460 0.34140 0.30519 0.15800
C 	C 	0.43952 0.32918 0.24452 0.02700
C 	C 	0.41900 0.36287 0.23950 -0.15000
H 	H 	0.35990 0.36990 0.21760 0.09600
C 	C 	0.57560 0.37559 0.29963 -0.04700
C 	C 	0.64803 0.40037 0.33198 -0.04600
C 	C 	0.06608 0.15736 0.12121 -0.14400
H 	H 	0.12560 0.15050 0.14270 0.09400
C 	C 	0.88070 0.23766 0.42452 0.15200
C 	C 	0.99565 0.13417 0.10637 0.15900
C 	C 	0.48570 0.38629 0.26670 0.16000
O 	O 	0.91722 0.47778 0.40224 -0.40200
O 	O 	0.88378 0.46589 0.49406 -0.40300
O 	O 	0.56970 0.04407 0.05823 -0.40200
O 	O 	0.79931 0.18578 0.02663 -0.15700
O 	O 	0.68187 0.33354 0.33942 -0.15700
O 	O 	0.87015 0.10417 0.96796 -0.16200
O 	O 	0.79269 0.13840 0.15105 -0.17200
O 	O 	0.10323 0.21978 0.44739 -0.16900
O 	O 	0.90791 0.30325 0.33177 -0.16100
O 	O 	0.00570 0.10090 0.12074 -0.17500
C 	C 	0.83461 0.23473 0.47079 -0.14000
H 	H 	0.78480 0.22030 0.46370 0.09100
C 	C 	0.93653 0.27570 0.53873 -0.13300
H 	H 	0.95440 0.28850 0.57650 0.09100
C 	C 	0.72704 0.43283 0.42671 -0.13400
H 	H 	0.73160 0.44030 0.46840 0.09100
O 	O 	0.47338 0.42041 0.26558 -0.17100
O 	O 	0.05613 0.29881 0.49807 -0.15800
O 	O 	0.58937 0.40074 0.41966 -0.15700
O 	O 	0.85875 0.21994 0.36759 -0.17200
C 	C 	0.79118 0.44254 0.39684 0.01300
C 	C 	0.86312 0.25337 0.52732 0.01000
C 	C 	0.78341 0.43256 0.33375 -0.13700
H 	H 	0.82510 0.44010 0.31310 0.09200
C 	C 	0.87059 0.46392 0.43340 0.32400
C 	C 	0.65564 0.41181 0.39380 0.15300
C 	C 	0.71224 0.41117 0.30202 0.15600
C 	C 	0.77900 0.21996 0.00766 -0.25200
H 	H 	0.71470 0.22220 0.98590 0.13400
H 	H 	0.81300 0.22660 0.97880 0.11200
H 	H 	0.79570 0.23410 0.04540 0.11200
C 	C 	0.09140 0.31685 0.55708 -0.24200
H 	H 	0.14270 0.33020 0.55500 0.13000
H 	H 	0.11060 0.30120 0.59250 0.11000
H 	H 	0.04460 0.33130 0.56360 0.10800
C 	C 	0.88020 0.32638 0.28050 -0.22800
H 	H 	0.82670 0.33820 0.28320 0.12200
H 	H 	0.86620 0.31460 0.23990 0.10200
H 	H 	0.92860 0.34220 0.28330 0.10300
C 	C 	0.17920 0.19744 0.45649 -0.20300
H 	H 	0.18530 0.18390 0.49430 0.09700
H 	H 	0.23420 0.21030 0.46210 0.08600
H 	H 	0.16930 0.18320 0.41920 0.09500
C 	C 	0.85580 0.08384 0.91097 -0.23800
H 	H 	0.89980 0.08980 0.88910 0.12400
H 	H 	0.79510 0.08750 0.88250 0.10600
H 	H 	0.86310 0.06050 0.92310 0.10500
C 	C 	0.73730 0.13581 0.19390 -0.19300
H 	H 	0.75780 0.15190 0.22840 0.09300
H 	H 	0.74240 0.11350 0.21180 0.09100
H 	H 	0.67450 0.14030 0.17020 0.08300
C 	C 	0.09510 0.08969 0.15660 -0.19300
H 	H 	0.09390 0.06590 0.16380 0.09400
H 	H 	0.11440 0.10120 0.19760 0.09100
H 	H 	0.13720 0.09450 0.13250 0.08400
O 	O 	0.70143 0.39844 0.24151 -0.17100
C 	C 	0.59490 0.41122 0.48370 -0.24500
H 	H 	0.54480 0.40170 0.49600 0.13200
H 	H 	0.59180 0.43540 0.48510 0.10900
H 	H 	0.65170 0.40370 0.51320 0.10900
C 	C 	0.70320 0.29849 0.35160 -0.25700
H 	H 	0.76650 0.29610 0.37610 0.13500
H 	H 	0.69170 0.28680 0.31110 0.11700
H 	H 	0.66560 0.28920 0.37580 0.11600
C 	C 	0.76810 0.40706 0.21000 -0.19800
H 	H 	0.75240 0.39660 0.16810 0.09400
H 	H 	0.82720 0.39930 0.23570 0.08800
H 	H 	0.76940 0.43110 0.20510 0.09200
C 	C 	0.38210 0.43290 0.23450 -0.20300
H 	H 	0.38210 0.45710 0.23680 0.09600
H 	H 	0.34080 0.42400 0.25620 0.08900
H 	H 	0.36270 0.42600 0.18990 0.09300
C 	C 	0.78300 0.19828 0.35500 -0.17600
H 	H 	0.77460 0.18720 0.31410 0.08600
H 	H 	0.72910 0.21110 0.35350 0.07900
H 	H 	0.79330 0.18170 0.38880 0.08500
Cu	Cu	0.20087 0.73648 0.29715 0.90200
Cu	Cu	0.30853 0.78339 0.36629 0.90000
Cu	Cu	0.98137 0.49217 0.55409 0.90100
O 	O 	0.36274 0.78602 0.29470 -0.39700
O 	O 	0.20978 0.81408 0.32073 -0.39500
O 	O 	0.30174 0.70632 0.33695 -0.39700
O 	O 	0.89906 0.53083 0.53408 -0.40200
O 	O 	0.74304 0.72653 0.92937 -0.40500
O 	O 	0.65578 0.76793 0.87232 -0.40600
O 	O 	0.26524 0.74849 0.23352 -0.40100
O 	O 	0.11478 0.77312 0.26690 -0.40000
O 	O 	0.39345 0.74585 0.39887 -0.39500
C 	C 	0.88647 0.54743 0.48265 0.32000
C 	C 	0.33472 0.76723 0.24572 0.32100
C 	C 	0.13408 0.80346 0.28303 0.30800
C 	C 	0.68267 0.74922 0.92082 0.32600
C 	C 	0.46585 0.78635 0.20768 -0.13700
H 	H 	0.48320 0.80120 0.24250 0.09200
C 	C 	0.49217 0.76164 0.11292 -0.04500
C 	C 	0.54069 0.70139 0.42815 -0.14300
H 	H 	0.55210 0.72380 0.44040 0.09400
C 	C 	0.54506 0.75952 0.06539 -0.04700
C 	C 	0.67083 0.61970 0.44064 -0.04600
C 	C 	0.41528 0.74103 0.10486 0.15000
C 	C 	0.75735 0.57585 0.50870 -0.13900
H 	H 	0.76810 0.56210 0.54510 0.09300
C 	C 	0.72770 0.61708 0.40049 0.15600
C 	C 	0.51610 0.78417 0.16479 0.15400
C 	C 	0.59416 0.64471 0.42509 -0.04800
C 	C 	0.61120 0.67853 0.44183 0.15900
C 	C 	0.68670 0.59895 0.49483 0.15600
C 	C 	0.38847 0.76605 0.19868 0.01200
C 	C 	0.37736 0.71628 0.37680 0.30600
C 	C 	0.79766 0.59364 0.41383 -0.14200
H 	H 	0.83450 0.59160 0.38670 0.09200
C 	C 	0.36282 0.74386 0.14704 -0.13800
H 	H 	0.31040 0.73080 0.14060 0.09100
C 	C 	0.45218 0.69086 0.39599 0.02100
C 	C 	0.51706 0.77847 0.00814 0.15100
C 	C 	0.97383 0.81801 0.22275 -0.14300
H 	H 	0.96100 0.79510 0.21930 0.09500
C 	C 	0.81235 0.57322 0.46795 0.01500
C 	C 	0.90540 0.84140 0.19481 0.15700
C 	C 	0.06048 0.82918 0.25548 0.02600
C 	C 	0.08100 0.86287 0.26050 -0.14900
H 	H 	0.14010 0.86990 0.28240 0.09600
C 	C 	0.92440 0.87559 0.20037 -0.04600
C 	C 	0.85197 0.90037 0.16802 -0.04600
C 	C 	0.43392 0.65736 0.37879 -0.14500
H 	H 	0.37440 0.65050 0.35730 0.09400
C 	C 	0.61930 0.73766 0.07548 0.15100
C 	C 	0.50435 0.63417 0.39363 0.16000
C 	C 	0.01430 0.88629 0.23330 0.15900
O 	O 	0.58278 0.97778 0.09776 -0.40200
O 	O 	0.61622 0.96589 0.00594 -0.40300
O 	O 	0.93030 0.54407 0.44177 -0.40200
O 	O 	0.70069 0.68578 0.47337 -0.15700
O 	O 	0.81813 0.83354 0.16058 -0.15700
O 	O 	0.62985 0.60417 0.53204 -0.16200
O 	O 	0.70731 0.63840 0.34895 -0.17200
O 	O 	0.39677 0.71978 0.05261 -0.17000
O 	O 	0.59209 0.80325 0.16823 -0.16200
O 	O 	0.49430 0.60090 0.37926 -0.17500
C 	C 	0.66539 0.73473 0.02921 -0.14000
H 	H 	0.71520 0.72030 0.03630 0.09100
C 	C 	0.56347 0.77570 0.96127 -0.13300
H 	H 	0.54560 0.78850 0.92350 0.09100
C 	C 	0.77296 0.93283 0.07329 -0.13400
H 	H 	0.76840 0.94030 0.03160 0.09100
O 	O 	0.02662 0.92041 0.23442 -0.17100
O 	O 	0.44387 0.79881 0.00193 -0.15900
O 	O 	0.91063 0.90074 0.08034 -0.15700
O 	O 	0.64125 0.71994 0.13241 -0.17200
C 	C 	0.70882 0.94254 0.10316 0.01300
C 	C 	0.63688 0.75337 0.97268 0.00900
C 	C 	0.71659 0.93256 0.16625 -0.13700
H 	H 	0.67490 0.94010 0.18690 0.09200
C 	C 	0.62941 0.96392 0.06660 0.32400
C 	C 	0.84436 0.91181 0.10620 0.15300
C 	C 	0.78776 0.91117 0.19798 0.15600
C 	C 	0.72100 0.71996 0.49234 -0.25000
H 	H 	0.78530 0.72220 0.51410 0.13400
H 	H 	0.68700 0.72660 0.52120 0.11100
H 	H 	0.70430 0.73410 0.45460 0.11200
C 	C 	0.40860 0.81685 0.94292 -0.24200
H 	H 	0.35730 0.83020 0.94500 0.13000
H 	H 	0.38940 0.80120 0.90750 0.11000
H 	H 	0.45540 0.83130 0.93640 0.10800
C 	C 	0.61980 0.82638 0.21950 -0.22700
H 	H 	0.67330 0.83820 0.21680 0.12200
H 	H 	0.63380 0.81460 0.26010 0.10200
H 	H 	0.57140 0.84220 0.21670 0.10300
C 	C 	0.32080 0.69744 0.04351 -0.20200
H 	H 	0.31470 0.68390 0.00570 0.09700
H 	H 	0.26580 0.71030 0.03790 0.08600
H 	H 	0.33070 0.68320 0.08080 0.09400
C 	C 	0.64420 0.58384 0.58903 -0.23700
H 	H 	0.60020 0.58980 0.61090 0.12400
H 	H 	0.70490 0.58750 0.61750 0.10600
H 	H 	0.63690 0.56050 0.57690 0.10500
C 	C 	0.76270 0.63581 0.30610 -0.19400
H 	H 	0.74220 0.65190 0.27160 0.09300
H 	H 	0.75760 0.61350 0.28820 0.09100
H 	H 	0.82550 0.64030 0.32980 0.08300
C 	C 	0.40490 0.58969 0.34340 -0.19300
H 	H 	0.40610 0.56590 0.33620 0.09300
H 	H 	0.38560 0.60120 0.30240 0.09000
H 	H 	0.36280 0.59450 0.36750 0.08300
O 	O 	0.79857 0.89844 0.25849 -0.17100
C 	C 	0.90510 0.91122 0.01630 -0.24400
H 	H 	0.95520 0.90170 0.00400 0.13100
H 	H 	0.90820 0.93540 0.01490 0.10800
H 	H 	0.84830 0.90370 0.98680 0.10900
C 	C 	0.79680 0.79849 0.14840 -0.25700
H 	H 	0.73350 0.79610 0.12390 0.13500
H 	H 	0.80830 0.78680 0.18890 0.11700
H 	H 	0.83440 0.78920 0.12420 0.11600
C 	C 	0.73190 0.90706 0.29000 -0.19800
H 	H 	0.74760 0.89660 0.33190 0.09500
H 	H 	0.67280 0.89930 0.26430 0.08800
H 	H 	0.73060 0.93110 0.29490 0.09200
C 	C 	0.11790 0.93290 0.26550 -0.20300
H 	H 	0.11790 0.95710 0.26320 0.09600
H 	H 	0.15920 0.92400 0.24380 0.08900
H 	H 	0.13730 0.92600 0.31010 0.09300
C 	C 	0.71700 0.69828 0.14500 -0.17600
H 	H 	0.72540 0.68720 0.18590 0.08700
H 	H 	0.77090 0.71110 0.14650 0.08000
H 	H 	0.70670 0.68170 0.11120 0.08500
Cu	Cu	0.70087 0.76352 0.79715 0.90200
Cu	Cu	0.80853 0.71661 0.86629 0.90000
Cu	Cu	0.48137 0.00783 0.05409 0.90100
O 	O 	0.86274 0.71398 0.79470 -0.39700
O 	O 	0.70978 0.68592 0.82073 -0.39500
O 	O 	0.80174 0.79368 0.83695 -0.39700
O 	O 	0.39906 0.96917 0.03408 -0.40200
O 	O 	0.24304 0.77347 0.42937 -0.40500
O 	O 	0.15578 0.73207 0.37232 -0.40600
O 	O 	0.76524 0.75151 0.73352 -0.40100
O 	O 	0.61478 0.72688 0.76690 -0.40000
O 	O 	0.89345 0.75415 0.89887 -0.39500
C 	C 	0.38647 0.95257 0.98265 0.31900
C 	C 	0.83472 0.73277 0.74572 0.32100
C 	C 	0.63408 0.69654 0.78303 0.30700
C 	C 	0.18267 0.75078 0.42082 0.32600
C 	C 	0.96585 0.71365 0.70768 -0.13400
H 	H 	0.98320 0.69880 0.74250 0.09100
C 	C 	0.99217 0.73836 0.61292 -0.04200
C 	C 	0.04069 0.79861 0.92815 -0.14400
H 	H 	0.05210 0.77620 0.94040 0.09400
C 	C 	0.04506 0.74048 0.56539 -0.04900
C 	C 	0.17083 0.88030 0.94064 -0.04600
C 	C 	0.91528 0.75897 0.60486 0.14900
C 	C 	0.25735 0.92415 0.00870 -0.13700
H 	H 	0.26810 0.93790 0.04510 0.09300
C 	C 	0.22770 0.88292 0.90049 0.15500
C 	C 	0.01610 0.71583 0.66479 0.15100
C 	C 	0.09416 0.85529 0.92509 -0.04800
C 	C 	0.11120 0.82147 0.94183 0.15900
C 	C 	0.18670 0.90105 0.99483 0.15400
C 	C 	0.88847 0.73395 0.69868 0.01100
C 	C 	0.87736 0.78372 0.87680 0.30600
C 	C 	0.29766 0.90636 0.91383 -0.14200
H 	H 	0.33450 0.90840 0.88670 0.09200
C 	C 	0.86282 0.75614 0.64704 -0.13700
H 	H 	0.81040 0.76920 0.64060 0.09000
C 	C 	0.95218 0.80914 0.89599 0.02200
C 	C 	0.01706 0.72153 0.50814 0.15000
C 	C 	0.47383 0.68199 0.72275 -0.14500
H 	H 	0.46100 0.70490 0.71930 0.09600
C 	C 	0.31235 0.92678 0.96795 0.01400
C 	C 	0.40540 0.65860 0.69481 0.15800
C 	C 	0.56048 0.67082 0.75548 0.02700
C 	C 	0.58100 0.63713 0.76050 -0.15000
H 	H 	0.64010 0.63010 0.78240 0.09600
C 	C 	0.42440 0.62441 0.70037 -0.04700
C 	C 	0.35197 0.59963 0.66802 -0.04600
C 	C 	0.93392 0.84264 0.87879 -0.14400
H 	H 	0.87440 0.84950 0.85730 0.09400
C 	C 	0.11930 0.76234 0.57548 0.15200
C 	C 	0.00435 0.86583 0.89363 0.15900
C 	C 	0.51430 0.61371 0.73330 0.16000
O 	O 	0.08278 0.52222 0.59776 -0.40200
O 	O 	0.11622 0.53411 0.50594 -0.40300
O 	O 	0.43030 0.95593 0.94177 -0.40200
O 	O 	0.20069 0.81422 0.97337 -0.15700
O 	O 	0.31813 0.66646 0.66058 -0.15700
O 	O 	0.12985 0.89583 0.03204 -0.16200
O 	O 	0.20731 0.86160 0.84895 -0.17200
O 	O 	0.89677 0.78022 0.55261 -0.16900
O 	O 	0.09209 0.69675 0.66823 -0.16100
O 	O 	0.99430 0.89910 0.87926 -0.17500
C 	C 	0.16539 0.76527 0.52921 -0.14000
H 	H 	0.21520 0.77970 0.53630 0.09100
C 	C 	0.06347 0.72430 0.46127 -0.13300
H 	H 	0.04560 0.71150 0.42350 0.09100
C 	C 	0.27296 0.56717 0.57329 -0.13400
H 	H 	0.26840 0.55970 0.53160 0.09100
O 	O 	0.52662 0.57959 0.73442 -0.17100
O 	O 	0.94387 0.70119 0.50193 -0.15800
O 	O 	0.41063 0.59926 0.58034 -0.15700
O 	O 	0.14125 0.78006 0.63241 -0.17200
C 	C 	0.20882 0.55746 0.60316 0.01300
C 	C 	0.13688 0.74663 0.47268 0.01000
C 	C 	0.21659 0.56744 0.66625 -0.13700
H 	H 	0.17490 0.55990 0.68690 0.09200
C 	C 	0.12941 0.53608 0.56660 0.32400
C 	C 	0.34436 0.58819 0.60620 0.15300
C 	C 	0.28776 0.58883 0.69798 0.15600
C 	C 	0.22100 0.78004 0.99234 -0.25200
H 	H 	0.28530 0.77780 0.01410 0.13400
H 	H 	0.18700 0.77340 0.02120 0.11200
H 	H 	0.20430 0.76590 0.95460 0.11200
C 	C 	0.90860 0.68315 0.44292 -0.24200
H 	H 	0.85730 0.66980 0.44500 0.13000
H 	H 	0.88940 0.69880 0.40750 0.11000
H 	H 	0.95540 0.66870 0.43640 0.10800
C 	C 	0.11980 0.67362 0.71950 -0.22800
H 	H 	0.17330 0.66180 0.71680 0.12200
H 	H 	0.13380 0.68540 0.76010 0.10200
H 	H 	0.07140 0.65780 0.71670 0.10300
C 	C 	0.82080 0.80256 0.54351 -0.20300
H 	H 	0.81470 0.81610 0.50570 0.09700
H 	H 	0.76580 0.78970 0.53790 0.08600
H 	H 	0.83070 0.81680 0.58080 0.09500
C 	C 	0.14420 0.91616 0.08903 -0.23800
H 	H 	0.10020 0.91020 0.11090 0.12400
H 	H 	0.20490 0.91250 0.11750 0.10600
H 	H 	0.13690 0.93950 0.07690 0.10500
C 	C 	0.26270 0.86419 0.80610 -0.19300
H 	H 	0.24220 0.84810 0.77160 0.09300
H 	H 	0.25760 0.88650 0.78820 0.09100
H 	H 	0.32550 0.85970 0.82980 0.08300
C 	C 	0.90490 0.91031 0.84340 -0.19300
H 	H 	0.90610 0.93410 0.83620 0.09400
H 	H 	0.88560 0.89880 0.80240 0.09100
H 	H 	0.86280 0.90550 0.86750 0.08400
O 	O 	0.29857 0.60156 0.75849 -0.17100
C 	C 	0.40510 0.58878 0.51630 -0.24500
H 	H 	0.45520 0.59830 0.50400 0.13200
H 	H 	0.40820 0.56460 0.51490 0.10900
H 	H 	0.34830 0.59630 0.48680 0.10900
C 	C 	0.29680 0.70151 0.64840 -0.25700
H 	H 	0.23350 0.70390 0.62390 0.13500
H 	H 	0.30830 0.71320 0.68890 0.11700
H 	H 	0.33440 0.71080 0.62420 0.11600
C 	C 	0.23190 0.59294 0.79000 -0.19800
H 	H 	0.24760 0.60340 0.83190 0.09400
H 	H 	0.17280 0.60070 0.76430 0.08800
H 	H 	0.23060 0.56890 0.79490 0.09200
C 	C 	0.61790 0.56710 0.76550 -0.20300
H 	H 	0.61790 0.54290 0.76320 0.09600
H 	H 	0.65920 0.57600 0.74380 0.08900
H 	H 	0.63730 0.57400 0.81010 0.09300
C 	C 	0.21700 0.80172 0.64500 -0.17600
H 	H 	0.22540 0.81280 0.68590 0.08600
H 	H 	0.27090 0.78890 0.64650 0.07900
H 	H 	0.20670 0.81830 0.61120 0.08500
Cu	Cu	0.79913 0.26352 0.70285 0.90200
Cu	Cu	0.69147 0.21661 0.63371 0.90000
Cu	Cu	0.01863 0.50783 0.44591 0.90100
O 	O 	0.63726 0.21398 0.70530 -0.39700
O 	O 	0.79022 0.18592 0.67927 -0.39500
O 	O 	0.69826 0.29368 0.66305 -0.39700
O 	O 	0.10094 0.46917 0.46592 -0.40200
O 	O 	0.25696 0.27347 0.07063 -0.40500
O 	O 	0.34422 0.23207 0.12768 -0.40600
O 	O 	0.73476 0.25151 0.76648 -0.40100
O 	O 	0.88522 0.22688 0.73310 -0.40000
O 	O 	0.60655 0.25415 0.60113 -0.39500
C 	C 	0.11353 0.45257 0.51735 0.32000
C 	C 	0.66528 0.23277 0.75428 0.32100
C 	C 	0.86592 0.19654 0.71697 0.30800
C 	C 	0.31733 0.25078 0.07918 0.32600
C 	C 	0.53415 0.21365 0.79232 -0.13700
H 	H 	0.51680 0.19880 0.75750 0.09200
C 	C 	0.50783 0.23836 0.88708 -0.04500
C 	C 	0.45931 0.29861 0.57185 -0.14300
H 	H 	0.44790 0.27620 0.55960 0.09400
C 	C 	0.45494 0.24048 0.93461 -0.04700
C 	C 	0.32917 0.38030 0.55936 -0.04600
C 	C 	0.58472 0.25897 0.89514 0.15000
C 	C 	0.24265 0.42415 0.49130 -0.13900
H 	H 	0.23190 0.43790 0.45490 0.09300
C 	C 	0.27230 0.38292 0.59951 0.15600
C 	C 	0.48390 0.21583 0.83521 0.15400
C 	C 	0.40584 0.35529 0.57491 -0.04800
C 	C 	0.38880 0.32147 0.55817 0.15900
C 	C 	0.31330 0.40105 0.50517 0.15600
C 	C 	0.61153 0.23395 0.80132 0.01200
C 	C 	0.62264 0.28372 0.62320 0.30600
C 	C 	0.20234 0.40636 0.58617 -0.14200
H 	H 	0.16550 0.40840 0.61330 0.09200
C 	C 	0.63718 0.25614 0.85296 -0.13800
H 	H 	0.68960 0.26920 0.85940 0.09100
C 	C 	0.54782 0.30914 0.60401 0.02100
C 	C 	0.48294 0.22153 0.99186 0.15100
C 	C 	0.02617 0.18199 0.77725 -0.14300
H 	H 	0.03900 0.20490 0.78070 0.09500
C 	C 	0.18765 0.42678 0.53205 0.01500
C 	C 	0.09460 0.15860 0.80519 0.15700
C 	C 	0.93952 0.17082 0.74452 0.02600
C 	C 	0.91900 0.13713 0.73950 -0.14900
H 	H 	0.85990 0.13010 0.71760 0.09600
C 	C 	0.07560 0.12441 0.79963 -0.04600
C 	C 	0.14803 0.09963 0.83198 -0.04600
C 	C 	0.56608 0.34264 0.62121 -0.14500
H 	H 	0.62560 0.34950 0.64270 0.09400
C 	C 	0.38070 0.26234 0.92452 0.15100
C 	C 	0.49565 0.36583 0.60637 0.16000
C 	C 	0.98570 0.11371 0.76670 0.15900
O 	O 	0.41722 0.02222 0.90224 -0.40200
O 	O 	0.38378 0.03411 0.99406 -0.40300
O 	O 	0.06970 0.45593 0.55823 -0.40200
O 	O 	0.29931 0.31422 0.52663 -0.15700
O 	O 	0.18187 0.16646 0.83942 -0.15700
O 	O 	0.37015 0.39583 0.46796 -0.16200
O 	O 	0.29269 0.36160 0.65105 -0.17200
O 	O 	0.60323 0.28022 0.94739 -0.17000
O 	O 	0.40791 0.19675 0.83177 -0.16200
O 	O 	0.50570 0.39910 0.62074 -0.17500
C 	C 	0.33461 0.26527 0.97079 -0.14000
H 	H 	0.28480 0.27970 0.96370 0.09100
C 	C 	0.43653 0.22430 0.03873 -0.13300
H 	H 	0.45440 0.21150 0.07650 0.09100
C 	C 	0.22704 0.06717 0.92671 -0.13400
H 	H 	0.23160 0.05970 0.96840 0.09100
O 	O 	0.97338 0.07959 0.76558 -0.17100
O 	O 	0.55613 0.20119 0.99807 -0.15900
O 	O 	0.08937 0.09926 0.91966 -0.15700
O 	O 	0.35875 0.28006 0.86759 -0.17200
C 	C 	0.29118 0.05746 0.89684 0.01300
C 	C 	0.36312 0.24663 0.02732 0.00900
C 	C 	0.28341 0.06744 0.83375 -0.13700
H 	H 	0.32510 0.05990 0.81310 0.09200
C 	C 	0.37059 0.03608 0.93340 0.32400
C 	C 	0.15564 0.08819 0.89380 0.15300
C 	C 	0.21224 0.08883 0.80202 0.15600
C 	C 	0.27900 0.28004 0.50766 -0.25000
H 	H 	0.21470 0.27780 0.48590 0.13400
H 	H 	0.31300 0.27340 0.47880 0.11100
H 	H 	0.29570 0.26590 0.54540 0.11200
C 	C 	0.59140 0.18315 0.05708 -0.24200
H 	H 	0.64270 0.16980 0.05500 0.13000
H 	H 	0.61060 0.19880 0.09250 0.11000
H 	H 	0.54460 0.16870 0.06360 0.10800
C 	C 	0.38020 0.17362 0.78050 -0.22700
H 	H 	0.32670 0.16180 0.78320 0.12200
H 	H 	0.36620 0.18540 0.73990 0.10200
H 	H 	0.42860 0.15780 0.78330 0.10300
C 	C 	0.67920 0.30256 0.95649 -0.20200
H 	H 	0.68530 0.31610 0.99430 0.09700
H 	H 	0.73420 0.28970 0.96210 0.08600
H 	H 	0.66930 0.31680 0.91920 0.09400
C 	C 	0.35580 0.41616 0.41097 -0.23700
H 	H 	0.39980 0.41020 0.38910 0.12400
H 	H 	0.29510 0.41250 0.38250 0.10600
H 	H 	0.36310 0.43950 0.42310 0.10500
C 	C 	0.23730 0.36419 0.69390 -0.19400
H 	H 	0.25780 0.34810 0.72840 0.09300
H 	H 	0.24240 0.38650 0.71180 0.09100
H 	H 	0.17450 0.35970 0.67020 0.08300
C 	C 	0.59510 0.41031 0.65660 -0.19300
H 	H 	0.59390 0.43410 0.66380 0.09300
H 	H 	0.61440 0.39880 0.69760 0.09000
H 	H 	0.63720 0.40550 0.63250 0.08300
O 	O 	0.20143 0.10156 0.74151 -0.17100
C 	C 	0.09490 0.08878 0.98370 -0.24400
H 	H 	0.04480 0.09830 0.99600 0.13100
H 	H 	0.09180 0.06460 0.98510 0.10800
H 	H 	0.15170 0.09630 0.01320 0.10900
C 	C 	0.20320 0.20151 0.85160 -0.25700
H 	H 	0.26650 0.20390 0.87610 0.13500
H 	H 	0.19170 0.21320 0.81110 0.11700
H 	H 	0.16560 0.21080 0.87580 0.11600
C 	C 	0.26810 0.09294 0.71000 -0.19800
H 	H 	0.25240 0.10340 0.66810 0.09500
H 	H 	0.32720 0.10070 0.73570 0.08800
H 	H 	0.26940 0.06890 0.70510 0.09200
C 	C 	0.88210 0.06710 0.73450 -0.20300
H 	H 	0.88210 0.04290 0.73680 0.09600
H 	H 	0.84080 0.07600 0.75620 0.08900
H 	H 	0.86270 0.07400 0.68990 0.09300
C 	C 	0.28300 0.30172 0.85500 -0.17600
H 	H 	0.27460 0.31280 0.81410 0.08700
H 	H 	0.22910 0.28890 0.85350 0.08000
H 	H 	0.29330 0.31830 0.88880 0.08500
