data_crystal

_cell_length_a 14.76100
_cell_length_b 14.76100
_cell_length_c 10.87900
_cell_angle_alpha 90.00000
_cell_angle_beta  90.00000
_cell_angle_gamma 90.00000

_symmetry_space_group_name_	'P 1'
_symmetry_space_group_name_H-M	'P 1'

loop_
_symmetry_equiv_pos_as_xyz
  x,y,z

loop_
_atom_site_label
_atom_site_type_symbol
_atom_site_fract_x
_atom_site_fract_y
_atom_site_fract_z
_atom_site_charge
O 	O 	0.73448 0.65408 0.15842 -0.34800
O 	O 	0.86232 0.67533 0.05239 -0.36700
N 	N 	0.59723 0.79226 0.16591 -0.39400
C 	C 	0.77784 0.66569 0.06075 0.21100
H 	H 	0.64700 0.81020 0.15900 0.20300
H 	H 	0.57370 0.79990 0.23900 0.14900
O 	O 	0.23448 0.15408 0.65842 -0.34800
O 	O 	0.36232 0.17533 0.55239 -0.36700
N 	N 	0.09723 0.29226 0.66591 -0.39400
C 	C 	0.27784 0.16569 0.56075 0.21100
H 	H 	0.14700 0.31020 0.65900 0.20300
H 	H 	0.07370 0.29990 0.73900 0.14900
O 	O 	0.76552 0.34592 0.65842 -0.34800
O 	O 	0.63768 0.32467 0.55239 -0.36700
N 	N 	0.90277 0.20774 0.66591 -0.39400
C 	C 	0.72216 0.33431 0.56075 0.21100
H 	H 	0.85300 0.18980 0.65900 0.20300
H 	H 	0.92630 0.20010 0.73900 0.14900
O 	O 	0.26552 0.84592 0.15842 -0.34800
O 	O 	0.13768 0.82467 0.05239 -0.36700
N 	N 	0.40277 0.70774 0.16591 -0.39400
C 	C 	0.22216 0.83431 0.06075 0.21100
H 	H 	0.35300 0.68980 0.15900 0.20200
H 	H 	0.42630 0.70010 0.23900 0.14800
O 	O 	0.59592 0.48448 0.40842 -0.34900
O 	O 	0.57467 0.61232 0.30239 -0.36800
N 	N 	0.45774 0.34723 0.41591 -0.39500
C 	C 	0.58431 0.52784 0.31075 0.21000
H 	H 	0.43980 0.39700 0.40900 0.20200
H 	H 	0.45010 0.32370 0.48900 0.14800
O 	O 	0.09592 0.98448 0.90842 -0.34900
O 	O 	0.07467 0.11232 0.80239 -0.36800
N 	N 	0.95774 0.84723 0.91591 -0.39500
C 	C 	0.08431 0.02784 0.81075 0.20900
H 	H 	0.93980 0.89700 0.90900 0.20200
H 	H 	0.95010 0.82370 0.98900 0.14800
O 	O 	0.90408 0.51552 0.90842 -0.34900
O 	O 	0.92533 0.38768 0.80239 -0.36800
N 	N 	0.04226 0.65277 0.91591 -0.39500
C 	C 	0.91569 0.47216 0.81075 0.21000
H 	H 	0.06020 0.60300 0.90900 0.20200
H 	H 	0.04990 0.67630 0.98900 0.14900
O 	O 	0.40408 0.01552 0.40842 -0.34900
O 	O 	0.42533 0.88768 0.30239 -0.36800
N 	N 	0.54226 0.15277 0.41591 -0.39500
C 	C 	0.41569 0.97216 0.31075 0.20900
H 	H 	0.56020 0.10300 0.40900 0.20200
H 	H 	0.54990 0.17630 0.48900 0.14800
O 	O 	0.76552 0.65408 0.84158 -0.34900
O 	O 	0.63768 0.67533 0.94761 -0.36800
N 	N 	0.90277 0.79226 0.83409 -0.39500
C 	C 	0.72216 0.66569 0.93925 0.21000
H 	H 	0.85300 0.81020 0.84100 0.20200
H 	H 	0.92630 0.79990 0.76100 0.14800
O 	O 	0.26552 0.15408 0.34158 -0.34900
O 	O 	0.13768 0.17533 0.44761 -0.36800
N 	N 	0.40277 0.29226 0.33409 -0.39500
C 	C 	0.22216 0.16569 0.43925 0.21000
H 	H 	0.35300 0.31020 0.34100 0.20200
H 	H 	0.42630 0.29990 0.26100 0.14800
O 	O 	0.73448 0.34592 0.34158 -0.34900
O 	O 	0.86232 0.32467 0.44761 -0.36800
N 	N 	0.59723 0.20774 0.33409 -0.39500
C 	C 	0.77784 0.33431 0.43925 0.21000
H 	H 	0.64700 0.18980 0.34100 0.20200
H 	H 	0.57370 0.20010 0.26100 0.14800
O 	O 	0.23448 0.84592 0.84158 -0.34900
O 	O 	0.36232 0.82467 0.94761 -0.36800
N 	N 	0.09723 0.70774 0.83409 -0.39500
C 	C 	0.27784 0.83431 0.93925 0.21000
H 	H 	0.14700 0.68980 0.84100 0.20200
H 	H 	0.07370 0.70010 0.76100 0.14800
O 	O 	0.90408 0.48448 0.59158 -0.34900
O 	O 	0.92533 0.61232 0.69761 -0.36800
N 	N 	0.04226 0.34723 0.58409 -0.39500
C 	C 	0.91569 0.52784 0.68925 0.21000
H 	H 	0.06020 0.39700 0.59100 0.20200
H 	H 	0.04990 0.32370 0.51100 0.14800
O 	O 	0.40408 0.98448 0.09158 -0.34900
O 	O 	0.42533 0.11232 0.19761 -0.36800
N 	N 	0.54226 0.84723 0.08409 -0.39500
C 	C 	0.41569 0.02784 0.18925 0.20900
H 	H 	0.56020 0.89700 0.09100 0.20200
H 	H 	0.54990 0.82370 0.01100 0.14800
O 	O 	0.59592 0.51552 0.09158 -0.34900
O 	O 	0.57467 0.38768 0.19761 -0.36800
N 	N 	0.45774 0.65277 0.08409 -0.39500
C 	C 	0.58431 0.47216 0.18925 0.21000
H 	H 	0.43980 0.60300 0.09100 0.20200
H 	H 	0.45010 0.67630 0.01100 0.14800
O 	O 	0.09592 0.01552 0.59158 -0.34900
O 	O 	0.07467 0.88768 0.69761 -0.36800
N 	N 	0.95774 0.15277 0.58409 -0.39500
C 	C 	0.08431 0.97216 0.68925 0.20900
H 	H 	0.93980 0.10300 0.59100 0.20200
H 	H 	0.95010 0.17630 0.51100 0.14800
Ni	Ni	0.59501 0.65499 0.12500 1.10300
Ni	Ni	0.09501 0.15499 0.62500 1.10300
Ni	Ni	0.90499 0.34501 0.62500 1.10300
Ni	Ni	0.40499 0.84501 0.12500 1.10300
Ni	Ni	0.59501 0.34501 0.37500 1.10300
Ni	Ni	0.09501 0.84501 0.87500 1.10300
Ni	Ni	0.90499 0.65499 0.87500 1.10300
Ni	Ni	0.40499 0.15499 0.37500 1.10300
O 	O 	0.26552 0.34592 0.84158 -0.34900
O 	O 	0.13768 0.32467 0.94761 -0.36800
N 	N 	0.40277 0.20774 0.83409 -0.39500
C 	C 	0.22216 0.33431 0.93925 0.21000
H 	H 	0.35300 0.18980 0.84100 0.20200
H 	H 	0.42630 0.20010 0.76100 0.14800
O 	O 	0.76552 0.84592 0.34158 -0.34900
O 	O 	0.63768 0.82467 0.44761 -0.36800
N 	N 	0.90277 0.70774 0.33409 -0.39500
C 	C 	0.72216 0.83431 0.43925 0.21000
H 	H 	0.85300 0.68980 0.34100 0.20200
H 	H 	0.92630 0.70010 0.26100 0.14800
O 	O 	0.23448 0.65408 0.34158 -0.34900
O 	O 	0.36232 0.67533 0.44761 -0.36800
N 	N 	0.09723 0.79226 0.33409 -0.39500
C 	C 	0.27784 0.66569 0.43925 0.21000
H 	H 	0.14700 0.81020 0.34100 0.20200
H 	H 	0.07370 0.79990 0.26100 0.14800
O 	O 	0.73448 0.15408 0.84158 -0.34900
O 	O 	0.86232 0.17533 0.94761 -0.36800
N 	N 	0.59723 0.29226 0.83409 -0.39500
C 	C 	0.77784 0.16569 0.93925 0.21000
H 	H 	0.64700 0.31020 0.84100 0.20200
H 	H 	0.57370 0.29990 0.76100 0.14800
O 	O 	0.40408 0.51552 0.59158 -0.34900
O 	O 	0.42533 0.38768 0.69761 -0.36800
N 	N 	0.54226 0.65277 0.58409 -0.39500
C 	C 	0.41569 0.47216 0.68925 0.21000
H 	H 	0.56020 0.60300 0.59100 0.20200
H 	H 	0.54990 0.67630 0.51100 0.14800
O 	O 	0.90408 0.01552 0.09158 -0.34900
O 	O 	0.92533 0.88768 0.19761 -0.36800
N 	N 	0.04226 0.15277 0.08409 -0.39500
C 	C 	0.91569 0.97216 0.18925 0.20900
H 	H 	0.06020 0.10300 0.09100 0.20200
H 	H 	0.04990 0.17630 0.01100 0.14800
O 	O 	0.09592 0.48448 0.09158 -0.34900
O 	O 	0.07467 0.61232 0.19761 -0.36800
N 	N 	0.95774 0.34723 0.08409 -0.39500
C 	C 	0.08431 0.52784 0.18925 0.21000
H 	H 	0.93980 0.39700 0.09100 0.20200
H 	H 	0.95010 0.32370 0.01100 0.14900
O 	O 	0.59592 0.98448 0.59158 -0.34900
O 	O 	0.57467 0.11232 0.69761 -0.36800
N 	N 	0.45774 0.84723 0.58409 -0.39500
C 	C 	0.58431 0.02784 0.68925 0.20900
H 	H 	0.43980 0.89700 0.59100 0.20200
H 	H 	0.45010 0.82370 0.51100 0.14800
O 	O 	0.23448 0.34592 0.15842 -0.34900
O 	O 	0.36232 0.32467 0.05239 -0.36800
N 	N 	0.09723 0.20774 0.16591 -0.39500
C 	C 	0.27784 0.33431 0.06075 0.21000
H 	H 	0.14700 0.18980 0.15900 0.20200
H 	H 	0.07370 0.20010 0.23900 0.14800
O 	O 	0.73448 0.84592 0.65842 -0.34900
O 	O 	0.86232 0.82467 0.55239 -0.36800
N 	N 	0.59723 0.70774 0.66591 -0.39500
C 	C 	0.77784 0.83431 0.56075 0.21000
H 	H 	0.64700 0.68980 0.65900 0.20200
H 	H 	0.57370 0.70010 0.73900 0.14800
O 	O 	0.26552 0.65408 0.65842 -0.34900
O 	O 	0.13768 0.67533 0.55239 -0.36800
N 	N 	0.40277 0.79226 0.66591 -0.39500
C 	C 	0.22216 0.66569 0.56075 0.21000
H 	H 	0.35300 0.81020 0.65900 0.20200
H 	H 	0.42630 0.79990 0.73900 0.14800
O 	O 	0.76552 0.15408 0.15842 -0.34900
O 	O 	0.63768 0.17533 0.05239 -0.36800
N 	N 	0.90277 0.29226 0.16591 -0.39500
C 	C 	0.72216 0.16569 0.06075 0.21000
H 	H 	0.85300 0.31020 0.15900 0.20200
H 	H 	0.92630 0.29990 0.23900 0.14800
O 	O 	0.09592 0.51552 0.40842 -0.34900
O 	O 	0.07467 0.38768 0.30239 -0.36800
N 	N 	0.95774 0.65277 0.41591 -0.39500
C 	C 	0.08431 0.47216 0.31075 0.21000
H 	H 	0.93980 0.60300 0.40900 0.20200
H 	H 	0.95010 0.67630 0.48900 0.14800
O 	O 	0.59592 0.01552 0.90842 -0.34900
O 	O 	0.57467 0.88768 0.80239 -0.36800
N 	N 	0.45774 0.15277 0.91591 -0.39500
C 	C 	0.58431 0.97216 0.81075 0.20900
H 	H 	0.43980 0.10300 0.90900 0.20200
H 	H 	0.45010 0.17630 0.98900 0.14800
O 	O 	0.40408 0.48448 0.90842 -0.34900
O 	O 	0.42533 0.61232 0.80239 -0.36800
N 	N 	0.54226 0.34723 0.91591 -0.39500
C 	C 	0.41569 0.52784 0.81075 0.21000
H 	H 	0.56020 0.39700 0.90900 0.20200
H 	H 	0.54990 0.32370 0.98900 0.14800
O 	O 	0.90408 0.98448 0.40842 -0.34900
O 	O 	0.92533 0.11232 0.30239 -0.36800
N 	N 	0.04226 0.84723 0.41591 -0.39500
C 	C 	0.91569 0.02784 0.31075 0.20900
H 	H 	0.06020 0.89700 0.40900 0.20200
H 	H 	0.04990 0.82370 0.48900 0.14800
Ni	Ni	0.40499 0.34501 0.87500 1.10300
Ni	Ni	0.90499 0.84501 0.37500 1.10300
Ni	Ni	0.09501 0.65499 0.37500 1.10300
Ni	Ni	0.59501 0.15499 0.87500 1.10300
Ni	Ni	0.40499 0.65499 0.62500 1.10300
Ni	Ni	0.90499 0.15499 0.12500 1.10300
Ni	Ni	0.09501 0.34501 0.12500 1.10300
Ni	Ni	0.59501 0.84501 0.62500 1.10300
