data_crystal

_cell_length_a 12.99700
_cell_length_b 13.10600
_cell_length_c 17.21300
_cell_angle_alpha 93.89500
_cell_angle_beta  107.63900
_cell_angle_gamma 95.01800

_symmetry_space_group_name_	'P 1'
_symmetry_space_group_name_H-M	'P 1'

loop_
_symmetry_equiv_pos_as_xyz
  x,y,z

loop_
_atom_site_label
_atom_site_type_symbol
_atom_site_fract_x
_atom_site_fract_y
_atom_site_fract_z
_atom_site_charge
C 	C 	0.17240 0.59640 0.57920 0.09700
H 	H 	0.11940 0.54020 0.56030 -0.00100
C 	C 	0.25070 0.59570 0.65470 -0.17100
H 	H 	0.24810 0.54140 0.68630 0.09900
C 	C 	0.33230 0.67660 0.68250 0.11600
C 	C 	0.32920 0.75830 0.63430 -0.16900
H 	H 	0.38200 0.81480 0.65170 0.09400
C 	C 	0.24700 0.75490 0.56040 0.09500
H 	H 	0.24520 0.81020 0.52920 -0.00500
C 	C 	0.42460 0.67400 0.75990 -0.06400
C 	C 	0.52650 0.65430 0.75360 0.02600
C 	C 	0.54530 0.62950 0.67680 -0.07200
H 	H 	0.48800 0.62660 0.62840 0.06000
C 	C 	0.64370 0.61020 0.67310 -0.02300
H 	H 	0.65330 0.59360 0.62250 0.03900
C 	C 	0.73270 0.61480 0.74520 -0.02600
H 	H 	0.80090 0.60340 0.74170 0.04700
C 	C 	0.71950 0.63570 0.81990 -0.07300
H 	H 	0.77890 0.63810 0.86680 0.06100
C 	C 	0.61690 0.65400 0.82740 0.02900
C 	C 	0.59860 0.67050 0.90430 -0.07300
C 	C 	0.49650 0.68680 0.91020 0.02800
C 	C 	0.47680 0.70360 0.98730 -0.07500
H 	H 	0.53350 0.70260 0.03560 0.05800
C 	C 	0.37620 0.72120 0.99140 -0.03300
H 	H 	0.36540 0.73240 0.04210 0.03800
C 	C 	0.28870 0.72250 0.91900 -0.02500
H 	H 	0.22020 0.73290 0.92220 0.03800
C 	C 	0.30440 0.70840 0.84430 -0.07600
H 	H 	0.24630 0.71110 0.79730 0.06600
C 	C 	0.40700 0.68980 0.83630 0.02600
C 	C 	0.69180 0.66630 0.98060 0.13500
C 	C 	0.76460 0.75140 0.01420 -0.19300
H 	H 	0.75690 0.81270 0.98990 0.10000
C 	C 	0.85090 0.74560 0.08520 0.11400
H 	H 	0.89960 0.80430 0.10730 -0.01500
C 	C 	0.79410 0.57850 0.08990 0.10300
H 	H 	0.80280 0.51820 0.11560 -0.00900
C 	C 	0.70690 0.57960 0.01960 -0.19000
H 	H 	0.65840 0.52050 0.99910 0.10000
C 	C 	0.00630 0.46680 0.31160 0.37400
C 	C 	0.00670 0.35190 0.30290 -0.08100
C 	C 	0.97970 0.29820 0.22420 0.00700
H 	H 	0.96090 0.33400 0.17800 0.03800
C 	C 	0.98110 0.19340 0.21530 -0.08700
H 	H 	0.96300 0.15890 0.16310 0.06000
C 	C 	0.00950 0.13740 0.28450 0.02300
C 	C 	0.03710 0.19140 0.36400 0.03200
C 	C 	0.03520 0.29900 0.37150 -0.04700
H 	H 	0.05340 0.33460 0.42330 0.06700
C 	C 	0.06570 0.13450 0.43390 -0.09600
H 	H 	0.08280 0.16870 0.48610 0.07600
C 	C 	0.06820 0.03110 0.42500 0.01400
H 	H 	0.08870 0.99550 0.47130 0.04300
C 	C 	0.03970 0.97650 0.34570 -0.07900
C 	C 	0.01100 0.02940 0.27700 -0.03800
H 	H 	0.99250 0.99360 0.22530 0.05800
C 	C 	0.83880 0.66190 0.35840 0.36400
C 	C 	0.03600 0.86170 0.33720 0.37500
C 	C 	0.20290 0.66580 0.29480 0.38600
C 	C 	0.31790 0.66300 0.29270 -0.07500
C 	C 	0.40030 0.66380 0.36430 -0.04500
H 	H 	0.38470 0.66590 0.41360 0.06000
C 	C 	0.50880 0.66150 0.36470 0.03500
C 	C 	0.53110 0.65850 0.28850 0.01300
C 	C 	0.44260 0.64410 0.21420 -0.03800
H 	H 	0.45570 0.63220 0.16440 0.03400
C 	C 	0.33850 0.64770 0.21620 -0.00900
H 	H 	0.28110 0.64020 0.16750 0.03200
C 	C 	0.64070 0.65960 0.28950 -0.03100
H 	H 	0.65630 0.65900 0.24020 0.05500
C 	C 	0.72400 0.66150 0.36070 -0.08600
C 	C 	0.70060 0.66050 0.43580 0.01700
H 	H 	0.75660 0.65970 0.48440 0.03800
C 	C 	0.59570 0.66080 0.43710 -0.09600
H 	H 	0.58160 0.66050 0.48690 0.06400
N 	N 	0.16980 0.67440 0.53253 -0.25900
N 	N 	0.86640 0.66160 0.12213 -0.26500
O 	O 	0.04028 0.51202 0.38323 -0.46000
O 	O 	0.97280 0.50940 0.24681 -0.46200
O 	O 	0.12920 0.66210 0.22784 -0.45000
O 	O 	0.18916 0.67190 0.36329 -0.47500
O 	O 	0.00720 0.81660 0.26552 -0.45400
O 	O 	0.06080 0.81840 0.40261 -0.45800
O 	O 	0.85234 0.66580 0.28917 -0.46200
O 	O 	0.91283 0.65948 0.42541 -0.44600
Zn	Zn	0.97565 0.66275 0.23558 1.21600
Zn	Zn	0.06664 0.66628 0.41677 1.21600
C 	C 	0.44950 0.68700 0.21960 -0.03200
H 	H 	0.46790 0.70570 0.17390 0.03100
C 	C 	0.34450 0.68700 0.22020 -0.00100
H 	H 	0.29090 0.70260 0.17430 0.02600
C 	C 	0.82760 0.40360 0.42080 0.09800
H 	H 	0.88060 0.45980 0.43970 -0.00000
C 	C 	0.74930 0.40430 0.34530 -0.17000
H 	H 	0.75190 0.45860 0.31370 0.10000
C 	C 	0.66770 0.32340 0.31750 0.11600
C 	C 	0.67080 0.24170 0.36570 -0.16900
H 	H 	0.61800 0.18520 0.34830 0.09400
C 	C 	0.75300 0.24510 0.43960 0.09500
H 	H 	0.75480 0.18980 0.47080 -0.00500
C 	C 	0.57540 0.32600 0.24010 -0.06400
C 	C 	0.47350 0.34570 0.24640 0.02600
C 	C 	0.45470 0.37050 0.32320 -0.07200
H 	H 	0.51200 0.37340 0.37160 0.06000
C 	C 	0.35630 0.38980 0.32690 -0.02300
H 	H 	0.34670 0.40640 0.37750 0.03900
C 	C 	0.26730 0.38520 0.25480 -0.02600
H 	H 	0.19910 0.39660 0.25830 0.04700
C 	C 	0.28050 0.36430 0.18010 -0.07300
H 	H 	0.22110 0.36190 0.13320 0.06100
C 	C 	0.38310 0.34600 0.17260 0.02900
C 	C 	0.40140 0.32950 0.09570 -0.07300
C 	C 	0.50350 0.31320 0.08980 0.02800
C 	C 	0.52320 0.29640 0.01270 -0.07500
H 	H 	0.46650 0.29740 0.96440 0.05800
C 	C 	0.62380 0.27880 0.00860 -0.03300
H 	H 	0.63460 0.26760 0.95790 0.03800
C 	C 	0.71130 0.27750 0.08100 -0.02500
H 	H 	0.77980 0.26710 0.07780 0.03800
C 	C 	0.69560 0.29160 0.15570 -0.07600
H 	H 	0.75370 0.28890 0.20270 0.06600
C 	C 	0.59300 0.31020 0.16370 0.02600
C 	C 	0.30820 0.33370 0.01940 0.13500
C 	C 	0.23540 0.24860 0.98580 -0.19300
H 	H 	0.24310 0.18730 0.01010 0.10000
C 	C 	0.14910 0.25440 0.91480 0.11400
H 	H 	0.10040 0.19570 0.89270 -0.01500
C 	C 	0.20590 0.42150 0.91010 0.10300
H 	H 	0.19720 0.48180 0.88440 -0.00900
C 	C 	0.29310 0.42040 0.98040 -0.19000
H 	H 	0.34160 0.47950 0.00090 0.10000
C 	C 	0.99370 0.53320 0.68840 0.37400
C 	C 	0.99330 0.64810 0.69710 -0.08100
C 	C 	0.02030 0.70180 0.77580 0.00700
H 	H 	0.03910 0.66600 0.82200 0.03800
C 	C 	0.01890 0.80660 0.78470 -0.08700
H 	H 	0.03700 0.84110 0.83690 0.06000
C 	C 	0.99050 0.86260 0.71550 0.02300
C 	C 	0.96290 0.80860 0.63600 0.03200
C 	C 	0.96480 0.70100 0.62850 -0.04700
H 	H 	0.94660 0.66540 0.57670 0.06700
C 	C 	0.93430 0.86550 0.56610 -0.09600
H 	H 	0.91720 0.83130 0.51390 0.07600
C 	C 	0.93180 0.96890 0.57500 0.01400
H 	H 	0.91130 0.00450 0.52870 0.04300
C 	C 	0.96030 0.02350 0.65430 -0.07900
C 	C 	0.98900 0.97060 0.72300 -0.03800
H 	H 	0.00750 0.00640 0.77470 0.05800
C 	C 	0.16120 0.33810 0.64160 0.36400
C 	C 	0.96400 0.13830 0.66280 0.37500
C 	C 	0.79710 0.33420 0.70520 0.38600
C 	C 	0.68210 0.33700 0.70730 -0.07500
C 	C 	0.59970 0.33620 0.63570 -0.04500
H 	H 	0.61530 0.33410 0.58640 0.06000
C 	C 	0.49120 0.33850 0.63530 0.03500
C 	C 	0.46890 0.34150 0.71150 0.01300
C 	C 	0.55740 0.35590 0.78580 -0.03800
H 	H 	0.54430 0.36780 0.83560 0.03400
C 	C 	0.66150 0.35230 0.78380 -0.00900
H 	H 	0.71890 0.35980 0.83250 0.03200
C 	C 	0.35930 0.34040 0.71050 -0.03100
H 	H 	0.34370 0.34100 0.75980 0.05500
C 	C 	0.27600 0.33850 0.63930 -0.08600
C 	C 	0.29940 0.33950 0.56420 0.01700
H 	H 	0.24340 0.34030 0.51560 0.03800
C 	C 	0.40430 0.33920 0.56290 -0.09600
H 	H 	0.41840 0.33950 0.51310 0.06400
N 	N 	0.83020 0.32560 0.46747 -0.25900
N 	N 	0.13360 0.33840 0.87787 -0.26500
O 	O 	0.95972 0.48798 0.61677 -0.46000
O 	O 	0.02720 0.49060 0.75319 -0.46200
O 	O 	0.87080 0.33790 0.77216 -0.45000
O 	O 	0.81084 0.32810 0.63671 -0.47500
O 	O 	0.99280 0.18340 0.73448 -0.45400
O 	O 	0.93920 0.18160 0.59739 -0.45800
O 	O 	0.14766 0.33420 0.71083 -0.46200
O 	O 	0.08717 0.34052 0.57459 -0.44600
Zn	Zn	0.02435 0.33725 0.76442 1.21600
Zn	Zn	0.93336 0.33372 0.58323 1.21600
C 	C 	0.55050 0.31300 0.78040 -0.03200
H 	H 	0.53210 0.29430 0.82610 0.03100
C 	C 	0.65550 0.31300 0.77980 -0.00100
H 	H 	0.70910 0.29740 0.82570 0.02600
