data_crystal

_cell_length_a 6.58860
_cell_length_b 16.76070
_cell_length_c 11.71570
_cell_angle_alpha 90.00000
_cell_angle_beta  95.64400
_cell_angle_gamma 90.00000

_symmetry_space_group_name_	'P 1'
_symmetry_space_group_name_H-M	'P 1'

loop_
_symmetry_equiv_pos_as_xyz
  x,y,z

loop_
_atom_site_label
_atom_site_type_symbol
_atom_site_fract_x
_atom_site_fract_y
_atom_site_fract_z
_atom_site_charge
C 	C 	0.06680 0.63179 0.85570 0.25000
C 	C 	0.18970 0.69393 0.80460 -0.04800
C 	C 	0.39460 0.70894 0.81790 -0.02100
H 	H 	0.48810 0.67870 0.86410 0.08600
C 	C 	0.44830 0.77540 0.75370 0.01400
H 	H 	0.58130 0.79370 0.75240 0.07900
C 	C 	0.28220 0.81016 0.69310 -0.07900
C 	C 	0.27430 0.88098 0.61660 0.37600
S 	S 	0.06051 0.76143 0.71450 0.04400
O 	O 	0.16010 0.57509 0.91220 -0.35500
O 	O 	0.87820 0.63937 0.83941 -0.18000
O 	O 	0.44290 0.91237 0.60146 -0.35100
O 	O 	0.09990 0.90240 0.57475 -0.40900
C 	C 	0.43320 0.13179 0.64430 0.36100
C 	C 	0.31030 0.19393 0.69540 -0.14400
C 	C 	0.10540 0.20894 0.68210 0.09400
H 	H 	0.01190 0.17870 0.63590 -0.01700
C 	C 	0.05170 0.27540 0.74630 -0.19800
H 	H 	0.91870 0.29370 0.74760 0.17500
C 	C 	0.21780 0.31016 0.80690 -0.03000
C 	C 	0.22570 0.38098 0.88340 0.34800
S 	S 	0.43949 0.26143 0.78550 0.10800
O 	O 	0.33990 0.07509 0.58780 -0.47100
O 	O 	0.62180 0.13937 0.66059 -0.28500
O 	O 	0.05710 0.41237 0.89854 -0.37900
O 	O 	0.40010 0.40240 0.92525 -0.36300
C 	C 	0.93320 0.36821 0.14430 0.43600
C 	C 	0.81030 0.30607 0.19540 -0.13700
C 	C 	0.60540 0.29106 0.18210 -0.00000
H 	H 	0.51190 0.32130 0.13590 0.01600
C 	C 	0.55170 0.22460 0.24630 -0.01200
H 	H 	0.41870 0.20630 0.24760 0.02500
C 	C 	0.71780 0.18984 0.30690 -0.11900
C 	C 	0.72570 0.11902 0.38340 0.37800
S 	S 	0.93949 0.23857 0.28550 0.12100
O 	O 	0.83990 0.42491 0.08780 -0.46300
O 	O 	0.12180 0.36063 0.16059 -0.39600
O 	O 	0.55710 0.08763 0.39854 -0.45200
O 	O 	0.90010 0.09760 0.42525 -0.42800
C 	C 	0.56680 0.86821 0.35570 0.32000
C 	C 	0.68970 0.80607 0.30460 -0.03900
C 	C 	0.89460 0.79106 0.31790 -0.11900
H 	H 	0.98810 0.82130 0.36410 0.12200
C 	C 	0.94830 0.72460 0.25370 0.20700
H 	H 	0.08130 0.70630 0.25240 -0.07500
C 	C 	0.78220 0.68984 0.19310 -0.17000
C 	C 	0.77430 0.61902 0.11660 0.40600
S 	S 	0.56051 0.73857 0.21450 0.05500
O 	O 	0.66010 0.92491 0.41220 -0.35400
O 	O 	0.37820 0.86063 0.33941 -0.28900
O 	O 	0.94290 0.58763 0.10146 -0.41300
O 	O 	0.59990 0.59760 0.07475 -0.48400
Cu	Cu	-0.00000 0.50000 -0.00000 0.81800
Cu	Cu	0.50000 0.00000 0.50000 0.85300
Cu	Cu	0.00000 0.00000 0.50000 0.78000
Cu	Cu	0.50000 0.50000 -0.00000 0.80800
