data_crystal

_cell_length_a 17.49410
_cell_length_b 32.39300
_cell_length_c 10.07490
_cell_angle_alpha 90.00000
_cell_angle_beta  90.00000
_cell_angle_gamma 90.00000

_symmetry_space_group_name_	'P 1'
_symmetry_space_group_name_H-M	'P 1'

loop_
_symmetry_equiv_pos_as_xyz
  x,y,z

loop_
_atom_site_label
_atom_site_type_symbol
_atom_site_fract_x
_atom_site_fract_y
_atom_site_fract_z
_atom_site_charge
Ga	Ga	0.42596 0.92055 0.06059 2.08200
Ga	Ga	0.48608 0.02560 0.03538 2.09200
Ga	Ga	0.15986 0.99250 0.87555 2.09100
Ga	Ga	0.34307 0.50610 0.59414 2.08700
Ga	Ga	0.08020 0.58125 0.41799 2.08600
Ga	Ga	0.01609 0.47561 0.44141 2.09900
Ga	Ga	0.34114 0.66766 0.59885 2.07600
Ga	Ga	0.15626 0.82191 0.87423 2.06500
Ga	Ga	0.30031 0.75887 0.92093 2.07500
P 	P 	0.31310 0.99637 0.06050 0.61900
P 	P 	0.52140 0.95334 0.83440 0.61900
P 	P 	0.06790 0.90707 0.85440 0.63800
P 	P 	0.98140 0.54812 0.64130 0.59700
P 	P 	0.18860 0.50369 0.40890 0.65900
P 	P 	0.43700 0.59057 0.62580 0.60800
P 	P 	0.35025 0.75867 0.61460 0.58700
P 	P 	0.31850 0.84055 0.04730 0.56900
P 	P 	0.30980 0.66274 0.91150 0.66400
O 	O 	0.36710 0.56140 0.63820 -0.65100
O 	O 	0.13430 0.93770 0.83430 -0.63900
O 	O 	0.12770 0.47240 0.44060 -0.52800
O 	O 	0.36020 0.77120 0.75980 -0.51900
O 	O 	0.02300 0.50820 0.60250 -0.57500
O 	O 	0.20860 0.77020 0.82650 -0.78300
O 	O 	0.37570 0.02950 0.03720 -0.54200
O 	O 	0.48050 0.99300 0.87530 -0.56600
O 	O 	0.26480 0.75110 0.58500 -0.61700
O 	O 	0.24410 0.84350 0.96890 -0.56600
O 	O 	0.25870 0.49240 0.49530 -0.53800
O 	O 	0.34160 0.70560 0.94110 -0.61200
O 	O 	0.24670 0.00700 0.97060 -0.49700
O 	O 	0.00070 0.92540 0.92910 -0.48900
O 	O 	0.35480 0.79720 0.02620 -0.60800
O 	O 	0.50670 0.57270 0.55620 -0.49100
O 	O 	0.49560 0.91690 0.92270 -0.52100
O 	O 	0.01200 0.58570 0.55950 -0.53300
O 	O 	0.60820 0.95820 0.84800 -0.56700
O 	O 	0.33930 0.95200 0.02490 -0.62800
O 	O 	0.16630 0.54880 0.44880 -0.61200
O 	O 	0.89500 0.54390 0.61620 -0.56400
O 	O 	0.29780 0.65540 0.75890 -0.66100
O 	O 	0.50010 0.94140 0.69240 -0.48100
O 	O 	0.28390 0.99710 0.20560 -0.51200
O 	O 	0.21230 0.50240 0.26170 -0.54100
O 	O 	0.30530 0.84680 0.19610 -0.53000
O 	O 	0.45760 0.60580 0.76630 -0.58600
O 	O 	0.99620 0.55860 0.78850 -0.48000
O 	O 	0.41180 0.62930 0.54290 -0.57400
O 	O 	0.04110 0.89290 0.71210 -0.57400
O 	O 	0.09620 0.86820 0.92550 -0.53600
O 	O 	0.37520 0.87220 0.99210 -0.48300
O 	O 	0.36360 0.63090 0.97290 -0.52700
O 	O 	0.38720 0.79190 0.52630 -0.52700
O 	O 	0.22840 0.65840 0.96760 -0.62400
O 	O 	0.39230 0.71660 0.59100 -0.61800
F 	F 	0.60030 0.01590 0.04160 -0.81400
F 	F 	0.02580 0.52950 0.34940 -0.82900
F 	F 	0.47760 0.97170 0.13130 -0.84400
F 	F 	0.40400 0.51520 0.42900 -0.80200
Ga	Ga	0.57404 0.07945 0.56059 2.08800
Ga	Ga	0.51392 0.97440 0.53538 2.09800
Ga	Ga	0.84014 0.00750 0.37555 2.08700
Ga	Ga	0.65693 0.49390 0.09414 2.08100
Ga	Ga	0.91980 0.41875 0.91799 2.08800
Ga	Ga	0.98391 0.52439 0.94141 2.10300
Ga	Ga	0.65886 0.33234 0.09885 2.07100
Ga	Ga	0.84374 0.17809 0.37423 2.06100
Ga	Ga	0.69969 0.24113 0.42093 2.06900
P 	P 	0.68690 0.00363 0.56050 0.64900
P 	P 	0.47860 0.04666 0.33440 0.61900
P 	P 	0.93210 0.09293 0.35440 0.63900
P 	P 	0.01860 0.45188 0.14130 0.59400
P 	P 	0.81140 0.49631 0.90890 0.65800
P 	P 	0.56300 0.40943 0.12580 0.60800
P 	P 	0.64975 0.24133 0.11460 0.58700
P 	P 	0.68150 0.15945 0.54730 0.62800
P 	P 	0.69020 0.33726 0.41150 0.66500
O 	O 	0.63290 0.43860 0.13820 -0.66200
O 	O 	0.86570 0.06230 0.33430 -0.64900
O 	O 	0.87230 0.52760 0.94060 -0.51500
O 	O 	0.63980 0.22880 0.25980 -0.52900
O 	O 	0.97700 0.49180 0.10250 -0.59000
O 	O 	0.79140 0.22980 0.32650 -0.79900
O 	O 	0.62430 0.97050 0.53720 -0.52500
O 	O 	0.51950 0.00700 0.37530 -0.58600
O 	O 	0.73520 0.24890 0.08500 -0.63400
O 	O 	0.75590 0.15650 0.46890 -0.60500
O 	O 	0.74130 0.50760 0.99530 -0.51900
O 	O 	0.65840 0.29440 0.44110 -0.62700
O 	O 	0.75330 0.99300 0.47060 -0.53600
O 	O 	0.99930 0.07460 0.42910 -0.51100
O 	O 	0.64520 0.20280 0.52620 -0.59200
O 	O 	0.49330 0.42730 0.05620 -0.50800
O 	O 	0.50440 0.08310 0.42270 -0.54200
O 	O 	0.98800 0.41430 0.05950 -0.55400
O 	O 	0.39180 0.04180 0.34800 -0.57800
O 	O 	0.66070 0.04800 0.52490 -0.60800
O 	O 	0.83370 0.45120 0.94880 -0.60100
O 	O 	0.10500 0.45610 0.11620 -0.57800
O 	O 	0.70220 0.34460 0.25890 -0.67000
O 	O 	0.49990 0.05860 0.19240 -0.49400
O 	O 	0.71610 0.00290 0.70560 -0.50700
O 	O 	0.78770 0.49760 0.76170 -0.53100
O 	O 	0.69470 0.15320 0.69610 -0.52900
O 	O 	0.54240 0.39420 0.26630 -0.59300
O 	O 	0.00380 0.44140 0.28850 -0.49200
O 	O 	0.58820 0.37070 0.04290 -0.58800
O 	O 	0.95890 0.10710 0.21210 -0.58700
O 	O 	0.90380 0.13180 0.42550 -0.55300
O 	O 	0.62480 0.12780 0.49210 -0.52900
O 	O 	0.63640 0.36910 0.47290 -0.53900
O 	O 	0.61280 0.20810 0.02630 -0.55100
O 	O 	0.77160 0.34160 0.46760 -0.64700
O 	O 	0.60770 0.28340 0.09100 -0.62900
F 	F 	0.39970 0.98410 0.54160 -0.78700
F 	F 	0.97420 0.47050 0.84940 -0.82000
F 	F 	0.52240 0.02830 0.63130 -0.83300
F 	F 	0.59600 0.48480 0.92900 -0.78400
Ga	Ga	0.92596 0.07945 0.06059 2.08100
Ga	Ga	0.98608 0.97440 0.03538 2.09100
Ga	Ga	0.65986 0.00750 0.87555 2.09000
Ga	Ga	0.84307 0.49390 0.59414 2.08600
Ga	Ga	0.58020 0.41875 0.41799 2.08500
Ga	Ga	0.51609 0.52439 0.44141 2.09800
Ga	Ga	0.84114 0.33234 0.59885 2.07500
Ga	Ga	0.65626 0.17809 0.87423 2.06500
Ga	Ga	0.80031 0.24113 0.92093 2.07500
P 	P 	0.81310 0.00363 0.06050 0.61900
P 	P 	0.02140 0.04666 0.83440 0.61700
P 	P 	0.56790 0.09293 0.85440 0.63800
P 	P 	0.48140 0.45188 0.64130 0.59600
P 	P 	0.68860 0.49631 0.40890 0.65900
P 	P 	0.93700 0.40943 0.62580 0.60800
P 	P 	0.85025 0.24133 0.61460 0.58700
P 	P 	0.81850 0.15945 0.04730 0.56900
P 	P 	0.80980 0.33726 0.91150 0.66400
O 	O 	0.86710 0.43860 0.63820 -0.65100
O 	O 	0.63430 0.06230 0.83430 -0.63900
O 	O 	0.62770 0.52760 0.44060 -0.52800
O 	O 	0.86020 0.22880 0.75980 -0.52000
O 	O 	0.52300 0.49180 0.60250 -0.57400
O 	O 	0.70860 0.22980 0.82650 -0.78300
O 	O 	0.87570 0.97050 0.03720 -0.54200
O 	O 	0.98050 0.00700 0.87530 -0.56500
O 	O 	0.76480 0.24890 0.58500 -0.61700
O 	O 	0.74410 0.15650 0.96890 -0.56600
O 	O 	0.75870 0.50760 0.49530 -0.53800
O 	O 	0.84160 0.29440 0.94110 -0.61300
O 	O 	0.74670 0.99300 0.97060 -0.49700
O 	O 	0.50070 0.07460 0.92910 -0.48900
O 	O 	0.85480 0.20280 0.02620 -0.60800
O 	O 	0.00670 0.42730 0.55620 -0.49200
O 	O 	0.99560 0.08310 0.92270 -0.52000
O 	O 	0.51200 0.41430 0.55950 -0.53200
O 	O 	0.10820 0.04180 0.84800 -0.56700
O 	O 	0.83930 0.04800 0.02490 -0.62700
O 	O 	0.66630 0.45120 0.44880 -0.61200
O 	O 	0.39500 0.45610 0.61620 -0.56400
O 	O 	0.79780 0.34460 0.75890 -0.66100
O 	O 	0.00010 0.05860 0.69240 -0.48200
O 	O 	0.78390 0.00290 0.20560 -0.51200
O 	O 	0.71230 0.49760 0.26170 -0.54100
O 	O 	0.80530 0.15320 0.19610 -0.53000
O 	O 	0.95760 0.39420 0.76630 -0.58600
O 	O 	0.49620 0.44140 0.78850 -0.48000
O 	O 	0.91180 0.37070 0.54290 -0.57400
O 	O 	0.54110 0.10710 0.71210 -0.57400
O 	O 	0.59620 0.13180 0.92550 -0.53600
O 	O 	0.87520 0.12780 0.99210 -0.48300
O 	O 	0.86360 0.36910 0.97290 -0.52700
O 	O 	0.88720 0.20810 0.52630 -0.52700
O 	O 	0.72840 0.34160 0.96760 -0.62500
O 	O 	0.89230 0.28340 0.59100 -0.61800
F 	F 	0.10030 0.98410 0.04160 -0.81400
F 	F 	0.52580 0.47050 0.34940 -0.82800
F 	F 	0.97760 0.02830 0.13130 -0.84300
F 	F 	0.90400 0.48480 0.42900 -0.80100
Ga	Ga	0.07404 0.92055 0.56059 2.08800
Ga	Ga	0.01392 0.02560 0.53538 2.09700
Ga	Ga	0.34014 0.99250 0.37555 2.08700
Ga	Ga	0.15693 0.50610 0.09414 2.08100
Ga	Ga	0.41980 0.58125 0.91799 2.08800
Ga	Ga	0.48391 0.47561 0.94141 2.10300
Ga	Ga	0.15886 0.66766 0.09885 2.07100
Ga	Ga	0.34374 0.82191 0.37423 2.06100
Ga	Ga	0.19969 0.75887 0.42093 2.06900
P 	P 	0.18690 0.99637 0.56050 0.65000
P 	P 	0.97860 0.95334 0.33440 0.62000
P 	P 	0.43210 0.90707 0.35440 0.63900
P 	P 	0.51860 0.54812 0.14130 0.59600
P 	P 	0.31140 0.50369 0.90890 0.65800
P 	P 	0.06300 0.59057 0.12580 0.60700
P 	P 	0.14975 0.75867 0.11460 0.58700
P 	P 	0.18150 0.84055 0.54730 0.62800
P 	P 	0.19020 0.66274 0.41150 0.66500
O 	O 	0.13290 0.56140 0.13820 -0.66200
O 	O 	0.36570 0.93770 0.33430 -0.64900
O 	O 	0.37230 0.47240 0.94060 -0.51400
O 	O 	0.13980 0.77120 0.25980 -0.52900
O 	O 	0.47700 0.50820 0.10250 -0.59100
O 	O 	0.29140 0.77020 0.32650 -0.79900
O 	O 	0.12430 0.02950 0.53720 -0.52600
O 	O 	0.01950 0.99300 0.37530 -0.58700
O 	O 	0.23520 0.75110 0.08500 -0.63400
O 	O 	0.25590 0.84350 0.46890 -0.60500
O 	O 	0.24130 0.49240 0.99530 -0.51900
O 	O 	0.15840 0.70560 0.44110 -0.62700
O 	O 	0.25330 0.00700 0.47060 -0.53600
O 	O 	0.49930 0.92540 0.42910 -0.51200
O 	O 	0.14520 0.79720 0.52620 -0.59200
O 	O 	0.99330 0.57270 0.05620 -0.50700
O 	O 	0.00440 0.91690 0.42270 -0.54200
O 	O 	0.48800 0.58570 0.05950 -0.55500
O 	O 	0.89180 0.95820 0.34800 -0.57800
O 	O 	0.16070 0.95200 0.52490 -0.60900
O 	O 	0.33370 0.54880 0.94880 -0.60100
O 	O 	0.60500 0.54390 0.11620 -0.57800
O 	O 	0.20220 0.65540 0.25890 -0.67000
O 	O 	0.99990 0.94140 0.19240 -0.49300
O 	O 	0.21610 0.99710 0.70560 -0.50700
O 	O 	0.28770 0.50240 0.76170 -0.53100
O 	O 	0.19470 0.84680 0.69610 -0.52900
O 	O 	0.04240 0.60580 0.26630 -0.59300
O 	O 	0.50380 0.55860 0.28850 -0.49200
O 	O 	0.08820 0.62930 0.04290 -0.58800
O 	O 	0.45890 0.89290 0.21210 -0.58800
O 	O 	0.40380 0.86820 0.42550 -0.55300
O 	O 	0.12480 0.87220 0.49210 -0.52900
O 	O 	0.13640 0.63090 0.47290 -0.54000
O 	O 	0.11280 0.79190 0.02630 -0.55200
O 	O 	0.27160 0.65840 0.46760 -0.64700
O 	O 	0.10770 0.71660 0.09100 -0.62900
F 	F 	0.89970 0.01590 0.54160 -0.78700
F 	F 	0.47420 0.52950 0.84940 -0.82000
F 	F 	0.02240 0.97170 0.63130 -0.83300
F 	F 	0.09600 0.51520 0.92900 -0.78500
