data_crystal

_cell_length_a 19.83500
_cell_length_b 23.93600
_cell_length_c 13.84100
_cell_angle_alpha 90.00000
_cell_angle_beta  122.48000
_cell_angle_gamma 90.00000

_symmetry_space_group_name_	'P 1'
_symmetry_space_group_name_H-M	'P 1'

loop_
_symmetry_equiv_pos_as_xyz
  x,y,z

loop_
_atom_site_label
_atom_site_type_symbol
_atom_site_fract_x
_atom_site_fract_y
_atom_site_fract_z
_atom_site_charge
Cd	Cd	0.66669 0.89254 0.94603 1.18600
O 	O 	0.57120 0.94730 0.79830 -0.03500
C 	C 	0.73680 0.77280 0.57160 0.10100
N 	N 	0.69570 0.79210 0.46410 -0.08500
N 	N 	0.79090 0.73160 0.60920 -0.08200
N 	N 	0.68960 0.84710 0.80940 -0.21000
C 	C 	0.65930 0.86810 0.70670 0.06800
H 	H 	0.62620 0.90010 0.68670 0.06800
C 	C 	0.67260 0.84630 0.62510 -0.10400
H 	H 	0.64920 0.86300 0.55170 0.07900
C 	C 	0.72110 0.79920 0.65410 0.05500
C 	C 	0.75330 0.77690 0.76190 -0.11200
H 	H 	0.78640 0.74470 0.78440 0.07100
C 	C 	0.73670 0.80200 0.83770 0.06000
H 	H 	0.75970 0.78660 0.91220 -0.02900
N 	N 	0.59950 0.81980 0.96250 -0.25600
C 	C 	0.56460 0.82370 0.02240 0.09100
H 	H 	0.56910 0.85750 0.06120 -0.01100
C 	C 	0.52230 0.77990 0.02950 -0.11900
H 	H 	0.49610 0.78440 0.06980 0.09100
C 	C 	0.51820 0.72970 0.97790 0.05700
C 	C 	0.55470 0.72530 0.91720 -0.12400
H 	H 	0.55330 0.69120 0.88110 0.06700
C 	C 	0.59390 0.77180 0.91000 0.05300
H 	H 	0.61750 0.76920 0.86600 -0.02000
N 	N 	0.45480 0.58810 0.97010 -0.09100
N 	N 	0.49870 0.63090 0.97660 -0.09200
C 	C 	0.47340 0.68170 0.98170 0.08500
N 	N 	0.41250 0.69260 0.99470 -0.08200
N 	N 	0.36800 0.65000 0.98730 -0.08200
C 	C 	0.38880 0.59940 0.97050 0.07800
N 	N 	0.24290 0.46410 0.94540 -0.25500
C 	C 	0.21810 0.51650 0.93670 0.07100
H 	H 	0.16710 0.52300 0.92530 -0.00800
C 	C 	0.26300 0.56180 0.94340 -0.13700
H 	H 	0.24410 0.59880 0.93850 0.08800
C 	C 	0.33680 0.55210 0.95760 0.06200
C 	C 	0.36220 0.49770 0.96400 -0.13400
H 	H 	0.41190 0.48990 0.97190 0.08900
C 	C 	0.31280 0.45480 0.95840 0.07400
H 	H 	0.33030 0.41730 0.96430 -0.02200
O 	O 	0.55220 0.95280 0.84500 -0.20600
O 	O 	0.52400 0.88980 0.72570 -1.70900
Cd	Cd	0.16669 0.39254 0.94603 1.18000
O 	O 	0.07120 0.44730 0.79830 -0.12400
C 	C 	0.23680 0.27280 0.57160 0.09700
N 	N 	0.19570 0.29210 0.46410 -0.08700
N 	N 	0.29090 0.23160 0.60920 -0.08400
N 	N 	0.18960 0.34710 0.80940 -0.22400
C 	C 	0.15930 0.36810 0.70670 0.07100
H 	H 	0.12620 0.40010 0.68670 0.02100
C 	C 	0.17260 0.34630 0.62510 -0.11900
H 	H 	0.14920 0.36300 0.55170 0.07500
C 	C 	0.22110 0.29920 0.65410 0.05800
C 	C 	0.25330 0.27690 0.76190 -0.11800
H 	H 	0.28640 0.24470 0.78440 0.07200
C 	C 	0.23670 0.30200 0.83770 0.06200
H 	H 	0.25970 0.28660 0.91220 -0.03100
N 	N 	0.09950 0.31980 0.96250 -0.26200
C 	C 	0.06460 0.32370 0.02240 0.10500
H 	H 	0.06910 0.35750 0.06120 -0.03500
C 	C 	0.02230 0.27990 0.02950 -0.18100
H 	H 	0.99610 0.28440 0.06980 0.13200
C 	C 	0.01820 0.22970 0.97790 0.03700
C 	C 	0.05470 0.22530 0.91720 -0.12400
H 	H 	0.05330 0.19120 0.88110 0.05700
C 	C 	0.09390 0.27180 0.91000 0.05700
H 	H 	0.11750 0.26920 0.86600 -0.02100
N 	N 	0.95480 0.08810 0.97010 -0.08400
N 	N 	0.99870 0.13090 0.97660 -0.08500
C 	C 	0.97340 0.18170 0.98170 0.11500
N 	N 	0.91250 0.19260 0.99470 -0.08200
N 	N 	0.86800 0.15000 0.98730 -0.08000
C 	C 	0.88880 0.09940 0.97050 0.08100
N 	N 	0.74290 0.96410 0.94540 -0.25300
C 	C 	0.71810 0.01650 0.93670 0.07400
H 	H 	0.66710 0.02300 0.92530 -0.00200
C 	C 	0.76300 0.06180 0.94340 -0.13600
H 	H 	0.74410 0.09880 0.93850 0.09100
C 	C 	0.83680 0.05210 0.95760 0.06600
C 	C 	0.86220 0.99770 0.96400 -0.13400
H 	H 	0.91190 0.98990 0.97190 0.09700
C 	C 	0.81280 0.95480 0.95840 0.07800
H 	H 	0.83030 0.91730 0.96430 -0.01800
O 	O 	0.05220 0.45280 0.84500 -0.19000
O 	O 	0.02400 0.38980 0.72570 -0.65500
Cd	Cd	0.33331 0.89254 0.55397 1.18700
O 	O 	0.42880 0.94730 0.70170 -0.03600
C 	C 	0.26320 0.77280 0.92840 0.09400
N 	N 	0.30430 0.79210 0.03590 -0.08100
N 	N 	0.20910 0.73160 0.89080 -0.08600
N 	N 	0.31040 0.84710 0.69060 -0.21000
C 	C 	0.34070 0.86810 0.79330 0.06600
H 	H 	0.37380 0.90010 0.81330 0.06700
C 	C 	0.32740 0.84630 0.87490 -0.10600
H 	H 	0.35080 0.86300 0.94830 0.07700
C 	C 	0.27890 0.79920 0.84590 0.05400
C 	C 	0.24670 0.77690 0.73810 -0.11300
H 	H 	0.21360 0.74470 0.71560 0.07000
C 	C 	0.26330 0.80200 0.66230 0.05800
H 	H 	0.24030 0.78660 0.58780 -0.02900
N 	N 	0.40050 0.81980 0.53750 -0.25400
C 	C 	0.43540 0.82370 0.47760 0.08900
H 	H 	0.43090 0.85750 0.43880 -0.01200
C 	C 	0.47770 0.77990 0.47050 -0.12600
H 	H 	0.50390 0.78440 0.43020 0.09200
C 	C 	0.48180 0.72970 0.52210 0.06400
C 	C 	0.44530 0.72530 0.58280 -0.12700
H 	H 	0.44670 0.69120 0.61890 0.06900
C 	C 	0.40610 0.77180 0.59000 0.05500
H 	H 	0.38250 0.76920 0.63400 -0.02000
N 	N 	0.54520 0.58810 0.52990 -0.09000
N 	N 	0.50130 0.63090 0.52340 -0.09100
C 	C 	0.52660 0.68170 0.51830 0.08400
N 	N 	0.58750 0.69260 0.50530 -0.08000
N 	N 	0.63200 0.65000 0.51270 -0.08100
C 	C 	0.61120 0.59940 0.52950 0.08000
N 	N 	0.75710 0.46410 0.55460 -0.25400
C 	C 	0.78190 0.51650 0.56330 0.07200
H 	H 	0.83290 0.52300 0.57470 -0.00100
C 	C 	0.73700 0.56180 0.55660 -0.13400
H 	H 	0.75590 0.59880 0.56150 0.09100
C 	C 	0.66320 0.55210 0.54240 0.06200
C 	C 	0.63780 0.49770 0.53600 -0.13300
H 	H 	0.58810 0.48990 0.52810 0.09000
C 	C 	0.68720 0.45480 0.54160 0.07500
H 	H 	0.66970 0.41730 0.53570 -0.02100
O 	O 	0.44780 0.95280 0.65500 -0.20500
O 	O 	0.47600 0.88980 0.77430 -1.70900
Cd	Cd	0.83331 0.39254 0.55397 1.18200
O 	O 	0.92880 0.44730 0.70170 -0.12400
C 	C 	0.76320 0.27280 0.92840 0.09500
N 	N 	0.80430 0.29210 0.03590 -0.08000
N 	N 	0.70910 0.23160 0.89080 -0.08300
N 	N 	0.81040 0.34710 0.69060 -0.22300
C 	C 	0.84070 0.36810 0.79330 0.07700
H 	H 	0.87380 0.40010 0.81330 0.02700
C 	C 	0.82740 0.34630 0.87490 -0.11700
H 	H 	0.85080 0.36300 0.94830 0.08100
C 	C 	0.77890 0.29920 0.84590 0.06100
C 	C 	0.74670 0.27690 0.73810 -0.11800
H 	H 	0.71360 0.24470 0.71560 0.07300
C 	C 	0.76330 0.30200 0.66230 0.06500
H 	H 	0.74030 0.28660 0.58780 -0.03000
N 	N 	0.90050 0.31980 0.53750 -0.24600
C 	C 	0.93540 0.32370 0.47760 0.05500
H 	H 	0.93090 0.35750 0.43880 -0.00300
C 	C 	0.97770 0.27990 0.47050 -0.05900
H 	H 	0.00390 0.28440 0.43020 0.04300
C 	C 	0.98180 0.22970 0.52210 0.07900
C 	C 	0.94530 0.22530 0.58280 -0.12700
H 	H 	0.94670 0.19120 0.61890 0.08000
C 	C 	0.90610 0.27180 0.59000 0.06800
H 	H 	0.88250 0.26920 0.63400 -0.01700
N 	N 	0.04520 0.08810 0.52990 -0.09600
N 	N 	0.00130 0.13090 0.52340 -0.09800
C 	C 	0.02660 0.18170 0.51830 0.05500
N 	N 	0.08750 0.19260 0.50530 -0.08100
N 	N 	0.13200 0.15000 0.51270 -0.08300
C 	C 	0.11120 0.09940 0.52950 0.07800
N 	N 	0.25710 0.96410 0.55460 -0.25200
C 	C 	0.28190 0.01650 0.56330 0.07100
H 	H 	0.33290 0.02300 0.57470 -0.00100
C 	C 	0.23700 0.06180 0.55660 -0.13400
H 	H 	0.25590 0.09880 0.56150 0.09000
C 	C 	0.16320 0.05210 0.54240 0.05900
C 	C 	0.13780 0.99770 0.53600 -0.13300
H 	H 	0.08810 0.98990 0.52810 0.08100
C 	C 	0.18720 0.95480 0.54160 0.07200
H 	H 	0.16970 0.91730 0.53570 -0.02300
O 	O 	0.94780 0.45280 0.65500 -0.15200
O 	O 	0.97600 0.38980 0.77430 -0.59500
Cd	Cd	0.33331 0.10746 0.05397 1.18700
O 	O 	0.42880 0.05270 0.20170 -0.03600
C 	C 	0.26320 0.22720 0.42840 0.09900
N 	N 	0.30430 0.20790 0.53590 -0.08500
N 	N 	0.20910 0.26840 0.39080 -0.08600
N 	N 	0.31040 0.15290 0.19060 -0.21000
C 	C 	0.34070 0.13190 0.29330 0.06600
H 	H 	0.37380 0.09990 0.31330 0.06700
C 	C 	0.32740 0.15370 0.37490 -0.10500
H 	H 	0.35080 0.13700 0.44830 0.07800
C 	C 	0.27890 0.20080 0.34590 0.05300
C 	C 	0.24670 0.22310 0.23810 -0.11200
H 	H 	0.21360 0.25530 0.21560 0.07000
C 	C 	0.26330 0.19800 0.16230 0.05800
H 	H 	0.24030 0.21340 0.08780 -0.02700
N 	N 	0.40050 0.18020 0.03750 -0.25200
C 	C 	0.43540 0.17630 0.97760 0.08600
H 	H 	0.43090 0.14250 0.93880 -0.01300
C 	C 	0.47770 0.22010 0.97050 -0.13300
H 	H 	0.50390 0.21560 0.93020 0.09200
C 	C 	0.48180 0.27030 0.02210 0.07100
C 	C 	0.44530 0.27470 0.08280 -0.12900
H 	H 	0.44670 0.30880 0.11890 0.07000
C 	C 	0.40610 0.22820 0.09000 0.05800
H 	H 	0.38250 0.23080 0.13400 -0.02000
N 	N 	0.54520 0.41190 0.02990 -0.08900
N 	N 	0.50130 0.36910 0.02340 -0.09000
C 	C 	0.52660 0.31830 0.01830 0.08300
N 	N 	0.58750 0.30740 0.00530 -0.07900
N 	N 	0.63200 0.35000 0.01270 -0.08100
C 	C 	0.61120 0.40060 0.02950 0.08000
N 	N 	0.75710 0.53590 0.05460 -0.25400
C 	C 	0.78190 0.48350 0.06330 0.07300
H 	H 	0.83290 0.47700 0.07470 -0.00100
C 	C 	0.73700 0.43820 0.05660 -0.13400
H 	H 	0.75590 0.40120 0.06150 0.09100
C 	C 	0.66320 0.44790 0.04240 0.06300
C 	C 	0.63780 0.50230 0.03600 -0.13300
H 	H 	0.58810 0.51010 0.02810 0.09100
C 	C 	0.68720 0.54520 0.04160 0.07500
H 	H 	0.66970 0.58270 0.03570 -0.02000
O 	O 	0.44780 0.04720 0.15500 -0.20400
O 	O 	0.47600 0.11020 0.27430 -1.70000
Cd	Cd	0.83331 0.60746 0.05397 1.18300
O 	O 	0.92880 0.55270 0.20170 -0.12200
C 	C 	0.76320 0.72720 0.42840 0.09900
N 	N 	0.80430 0.70790 0.53590 -0.08300
N 	N 	0.70910 0.76840 0.39080 -0.08300
N 	N 	0.81040 0.65290 0.19060 -0.22200
C 	C 	0.84070 0.63190 0.29330 0.07700
H 	H 	0.87380 0.59990 0.31330 0.02900
C 	C 	0.82740 0.65370 0.37490 -0.11500
H 	H 	0.85080 0.63700 0.44830 0.08200
C 	C 	0.77890 0.70080 0.34590 0.06000
C 	C 	0.74670 0.72310 0.23810 -0.11700
H 	H 	0.71360 0.75530 0.21560 0.07300
C 	C 	0.76330 0.69800 0.16230 0.06500
H 	H 	0.74030 0.71340 0.08780 -0.02900
N 	N 	0.90050 0.68020 0.03750 -0.24400
C 	C 	0.93540 0.67630 0.97760 0.05100
H 	H 	0.93090 0.64250 0.93880 -0.00200
C 	C 	0.97770 0.72010 0.97050 -0.06000
H 	H 	0.00390 0.71560 0.93020 0.04100
C 	C 	0.98180 0.77030 0.02210 0.08000
C 	C 	0.94530 0.77470 0.08280 -0.12700
H 	H 	0.94670 0.80880 0.11890 0.08000
C 	C 	0.90610 0.72820 0.09000 0.06800
H 	H 	0.88250 0.73080 0.13400 -0.01700
N 	N 	0.04520 0.91190 0.02990 -0.09500
N 	N 	0.00130 0.86910 0.02340 -0.09700
C 	C 	0.02660 0.81830 0.01830 0.05800
N 	N 	0.08750 0.80740 0.00530 -0.08000
N 	N 	0.13200 0.85000 0.01270 -0.08200
C 	C 	0.11120 0.90060 0.02950 0.07800
N 	N 	0.25710 0.03590 0.05460 -0.25200
C 	C 	0.28190 0.98350 0.06330 0.07200
H 	H 	0.33290 0.97700 0.07470 0.00000
C 	C 	0.23700 0.93820 0.05660 -0.13300
H 	H 	0.25590 0.90120 0.06150 0.09000
C 	C 	0.16320 0.94790 0.04240 0.05900
C 	C 	0.13780 0.00230 0.03600 -0.13200
H 	H 	0.08810 0.01010 0.02810 0.08200
C 	C 	0.18720 0.04520 0.04160 0.07300
H 	H 	0.16970 0.08270 0.03570 -0.02200
O 	O 	0.94780 0.54720 0.15500 -0.15400
O 	O 	0.97600 0.61020 0.27430 -0.63000
Cd	Cd	0.66669 0.10746 0.44603 1.18700
O 	O 	0.57120 0.05270 0.29830 -0.03600
C 	C 	0.73680 0.22720 0.07160 0.10500
N 	N 	0.69570 0.20790 0.96410 -0.08700
N 	N 	0.79090 0.26840 0.10920 -0.08300
N 	N 	0.68960 0.15290 0.30940 -0.21000
C 	C 	0.65930 0.13190 0.20670 0.06800
H 	H 	0.62620 0.09990 0.18670 0.06800
C 	C 	0.67260 0.15370 0.12510 -0.10300
H 	H 	0.64920 0.13700 0.05170 0.08000
C 	C 	0.72110 0.20080 0.15410 0.05500
C 	C 	0.75330 0.22310 0.26190 -0.11100
H 	H 	0.78640 0.25530 0.28440 0.07100
C 	C 	0.73670 0.19800 0.33770 0.06000
H 	H 	0.75970 0.21340 0.41220 -0.02800
N 	N 	0.59950 0.18020 0.46250 -0.25400
C 	C 	0.56460 0.17630 0.52240 0.08900
H 	H 	0.56910 0.14250 0.56120 -0.01200
C 	C 	0.52230 0.22010 0.52950 -0.12600
H 	H 	0.49610 0.21560 0.56980 0.09100
C 	C 	0.51820 0.27030 0.47790 0.06400
C 	C 	0.55470 0.27470 0.41720 -0.12700
H 	H 	0.55330 0.30880 0.38110 0.06900
C 	C 	0.59390 0.22820 0.41000 0.05600
H 	H 	0.61750 0.23080 0.36600 -0.02000
N 	N 	0.45480 0.41190 0.47010 -0.09000
N 	N 	0.49870 0.36910 0.47660 -0.09100
C 	C 	0.47340 0.31830 0.48170 0.08400
N 	N 	0.41250 0.30740 0.49470 -0.08100
N 	N 	0.36800 0.35000 0.48730 -0.08100
C 	C 	0.38880 0.40060 0.47050 0.07900
N 	N 	0.24290 0.53590 0.44540 -0.25500
C 	C 	0.21810 0.48350 0.43670 0.07200
H 	H 	0.16710 0.47700 0.42530 -0.00700
C 	C 	0.26300 0.43820 0.44340 -0.13700
H 	H 	0.24410 0.40120 0.43850 0.08900
C 	C 	0.33680 0.44790 0.45760 0.06200
C 	C 	0.36220 0.50230 0.46400 -0.13400
H 	H 	0.41190 0.51010 0.47190 0.09000
C 	C 	0.31280 0.54520 0.45840 0.07400
H 	H 	0.33030 0.58270 0.46430 -0.02100
O 	O 	0.55220 0.04720 0.34500 -0.20500
O 	O 	0.52400 0.11020 0.22570 -1.70000
Cd	Cd	0.16669 0.60746 0.44603 1.18000
O 	O 	0.07120 0.55270 0.29830 -0.12100
C 	C 	0.23680 0.72720 0.07160 0.10300
N 	N 	0.19570 0.70790 0.96410 -0.09100
N 	N 	0.29090 0.76840 0.10920 -0.08400
N 	N 	0.18960 0.65290 0.30940 -0.22300
C 	C 	0.15930 0.63190 0.20670 0.07100
H 	H 	0.12620 0.59990 0.18670 0.02300
C 	C 	0.17260 0.65370 0.12510 -0.11700
H 	H 	0.14920 0.63700 0.05170 0.07700
C 	C 	0.22110 0.70080 0.15410 0.05600
C 	C 	0.25330 0.72310 0.26190 -0.11700
H 	H 	0.28640 0.75530 0.28440 0.07200
C 	C 	0.23670 0.69800 0.33770 0.06100
H 	H 	0.25970 0.71340 0.41220 -0.02900
N 	N 	0.09950 0.68020 0.46250 -0.26100
C 	C 	0.06460 0.67630 0.52240 0.10600
H 	H 	0.06910 0.64250 0.56120 -0.03700
C 	C 	0.02230 0.72010 0.52950 -0.19700
H 	H 	0.99610 0.71560 0.56980 0.13700
C 	C 	0.01820 0.77030 0.47790 0.05000
C 	C 	0.05470 0.77470 0.41720 -0.13000
H 	H 	0.05330 0.80880 0.38110 0.06000
C 	C 	0.09390 0.72820 0.41000 0.06100
H 	H 	0.11750 0.73080 0.36600 -0.02200
N 	N 	0.95480 0.91190 0.47010 -0.08300
N 	N 	0.99870 0.86910 0.47660 -0.08300
C 	C 	0.97340 0.81830 0.48170 0.11200
N 	N 	0.91250 0.80740 0.49470 -0.08100
N 	N 	0.86800 0.85000 0.48730 -0.07900
C 	C 	0.88880 0.90060 0.47050 0.08100
N 	N 	0.74290 0.03590 0.44540 -0.25200
C 	C 	0.71810 0.98350 0.43670 0.07500
H 	H 	0.66710 0.97700 0.42530 -0.00100
C 	C 	0.76300 0.93820 0.44340 -0.13500
H 	H 	0.74410 0.90120 0.43850 0.09200
C 	C 	0.83680 0.94790 0.45760 0.06700
C 	C 	0.86220 0.00230 0.46400 -0.13400
H 	H 	0.91190 0.01010 0.47190 0.09900
C 	C 	0.81280 0.04520 0.45840 0.07900
H 	H 	0.83030 0.08270 0.46430 -0.01700
O 	O 	0.05220 0.54720 0.34500 -0.18900
O 	O 	0.02400 0.61020 0.22570 -0.68700
N 	N 	0.50000 0.92790 0.75000 0.43700
O 	O 	0.50000 0.87790 0.75000 2.33700
N 	N 	0.00000 0.42790 0.75000 0.20800
O 	O 	0.00000 0.37790 0.75000 0.68400
N 	N 	0.50000 0.07210 0.25000 0.43500
O 	O 	0.50000 0.12210 0.25000 2.32300
N 	N 	0.00000 0.57210 0.25000 0.21500
O 	O 	0.00000 0.62210 0.25000 0.73500
