data_crystal

_cell_length_a 9.74900
_cell_length_b 10.65800
_cell_length_c 16.41400
_cell_angle_alpha 74.83000
_cell_angle_beta  82.72000
_cell_angle_gamma 63.98000

_symmetry_space_group_name_	'P 1'
_symmetry_space_group_name_H-M	'P 1'

loop_
_symmetry_equiv_pos_as_xyz
  x,y,z

loop_
_atom_site_label
_atom_site_type_symbol
_atom_site_fract_x
_atom_site_fract_y
_atom_site_fract_z
_atom_site_charge
La	La	0.87616 0.03108 0.12561 1.60600
La	La	0.62951 0.98236 0.37590 1.68100
O 	O 	0.41480 0.10690 0.26550 -0.41600
O 	O 	0.62730 0.10110 0.20280 -0.51700
O 	O 	0.09410 0.87160 0.04680 -0.53500
O 	O 	0.27290 0.72710 0.97690 -0.44400
O 	O 	0.71140 0.80000 0.29180 -0.47600
O 	O 	0.86440 0.79240 0.17910 -0.47200
O 	O 	0.70800 0.12640 0.46070 -0.38700
O 	O 	0.62260 0.23710 0.33280 -0.39300
O 	O 	0.88540 0.95140 0.31410 -0.48300
O 	O 	0.09010 0.89010 0.23450 -0.40700
O 	O 	0.20120 0.25410 0.52450 -0.42200
O 	O 	0.39290 0.12520 0.45380 -0.50600
O 	O 	0.08170 0.13240 0.09220 -0.76600
C 	C 	0.48530 0.14270 0.20110 0.45400
C 	C 	0.39800 0.24070 0.12220 -0.43100
H 	H 	0.46860 0.24390 0.07530 0.14400
H 	H 	0.33050 0.20450 0.10820 0.16000
C 	C 	0.30720 0.38730 0.13720 0.05200
H 	H 	0.21390 0.40530 0.16530 0.00600
C 	C 	0.34850 0.49150 0.11400 0.02200
H 	H 	0.44310 0.47270 0.08730 0.03400
C 	C 	0.25570 0.64030 0.12700 -0.41500
H 	H 	0.16640 0.64240 0.16120 0.15500
H 	H 	0.31590 0.66450 0.15780 0.15500
C 	C 	0.20540 0.75110 0.04570 0.43400
C 	C 	0.80380 0.73610 0.24230 0.50900
C 	C 	0.84300 0.58020 0.25160 -0.47300
H 	H 	0.80360 0.57070 0.20320 0.16300
H 	H 	0.95320 0.52820 0.25000 0.16500
C 	C 	0.78390 0.51040 0.32970 0.10400
H 	H 	0.82950 0.49960 0.37900 -0.00100
C 	C 	0.68770 0.46540 0.34040 -0.04200
H 	H 	0.63290 0.48740 0.29220 0.04900
C 	C 	0.64010 0.38080 0.41680 -0.33000
H 	H 	0.53400 0.43600 0.43030 0.12100
H 	H 	0.70120 0.36290 0.46430 0.12700
C 	C 	0.65910 0.23990 0.40270 0.37500
C 	C 	0.02420 0.87620 0.30580 0.45800
C 	C 	0.11610 0.76590 0.37910 -0.44100
H 	H 	0.04930 0.76370 0.42800 0.16700
H 	H 	0.19190 0.79330 0.39220 0.16500
C 	C 	0.19540 0.61790 0.36190 0.04800
H 	H 	0.27550 0.60080 0.32280 0.01100
C 	C 	0.15860 0.51230 0.39860 0.01000
H 	H 	0.07940 0.52940 0.43820 0.04200
C 	C 	0.23540 0.36460 0.38110 -0.40500
H 	H 	0.16820 0.35490 0.34680 0.15200
H 	H 	0.32770 0.35620 0.34820 0.15200
C 	C 	0.27650 0.24300 0.45800 0.43700
H 	H 	0.03700 0.20700 0.05700 0.30900
H 	H 	0.13300 0.06800 0.06700 0.29000
La	La	0.12384 0.96892 0.87439 1.60700
La	La	0.37049 0.01764 0.62410 1.68200
O 	O 	0.58520 0.89310 0.73450 -0.41500
O 	O 	0.37270 0.89890 0.79720 -0.51600
O 	O 	0.90590 0.12840 0.95320 -0.53400
O 	O 	0.72710 0.27290 0.02310 -0.44300
O 	O 	0.28860 0.20000 0.70820 -0.47500
O 	O 	0.13560 0.20760 0.82090 -0.47100
O 	O 	0.29200 0.87360 0.53930 -0.38600
O 	O 	0.37740 0.76290 0.66720 -0.39200
O 	O 	0.11460 0.04860 0.68590 -0.48300
O 	O 	0.90990 0.10990 0.76550 -0.40700
O 	O 	0.79880 0.74590 0.47550 -0.42200
O 	O 	0.60710 0.87480 0.54620 -0.50600
O 	O 	0.91830 0.86760 0.90780 -0.76600
C 	C 	0.51470 0.85730 0.79890 0.45400
C 	C 	0.60200 0.75930 0.87780 -0.43100
H 	H 	0.53140 0.75610 0.92470 0.14400
H 	H 	0.66950 0.79550 0.89180 0.16000
C 	C 	0.69280 0.61270 0.86280 0.05200
H 	H 	0.78610 0.59470 0.83470 0.00600
C 	C 	0.65150 0.50850 0.88600 0.02200
H 	H 	0.55690 0.52730 0.91270 0.03400
C 	C 	0.74430 0.35970 0.87300 -0.41500
H 	H 	0.83360 0.35760 0.83880 0.15500
H 	H 	0.68410 0.33550 0.84220 0.15500
C 	C 	0.79460 0.24890 0.95430 0.43400
C 	C 	0.19620 0.26390 0.75770 0.50900
C 	C 	0.15700 0.41980 0.74840 -0.47300
H 	H 	0.19640 0.42930 0.79680 0.16300
H 	H 	0.04680 0.47180 0.75000 0.16500
C 	C 	0.21610 0.48960 0.67030 0.10400
H 	H 	0.17050 0.50040 0.62100 -0.00100
C 	C 	0.31230 0.53460 0.65960 -0.04200
H 	H 	0.36710 0.51260 0.70780 0.04900
C 	C 	0.35990 0.61920 0.58320 -0.33000
H 	H 	0.46600 0.56400 0.56970 0.12100
H 	H 	0.29880 0.63710 0.53570 0.12700
C 	C 	0.34090 0.76010 0.59730 0.37500
C 	C 	0.97580 0.12380 0.69420 0.45800
C 	C 	0.88390 0.23410 0.62090 -0.44100
H 	H 	0.95070 0.23630 0.57200 0.16700
H 	H 	0.80810 0.20670 0.60780 0.16500
C 	C 	0.80460 0.38210 0.63810 0.04800
H 	H 	0.72450 0.39920 0.67720 0.01100
C 	C 	0.84140 0.48770 0.60140 0.01000
H 	H 	0.92060 0.47060 0.56180 0.04200
C 	C 	0.76460 0.63540 0.61890 -0.40500
H 	H 	0.83180 0.64510 0.65320 0.15200
H 	H 	0.67230 0.64380 0.65180 0.15200
C 	C 	0.72350 0.75700 0.54200 0.43700
H 	H 	0.96300 0.79300 0.94300 0.30900
H 	H 	0.86700 0.93200 0.93300 0.29000
