data_crystal

_cell_length_a 19.46000
_cell_length_b 24.20000
_cell_length_c 13.81000
_cell_angle_alpha 90.00000
_cell_angle_beta  121.17000
_cell_angle_gamma 90.00000

_symmetry_space_group_name_	'P 1'
_symmetry_space_group_name_H-M	'P 1'

loop_
_symmetry_equiv_pos_as_xyz
  x,y,z

loop_
_atom_site_label
_atom_site_type_symbol
_atom_site_fract_x
_atom_site_fract_y
_atom_site_fract_z
_atom_site_charge
Cd	Cd	0.83253 0.89061 0.54518 1.17400
C 	C 	0.76270 0.77330 0.92890 0.10400
N 	N 	0.80630 0.79140 0.03490 -0.08900
N 	N 	0.70750 0.73350 0.88890 -0.08600
N 	N 	0.80870 0.84750 0.68530 -0.23000
C 	C 	0.83990 0.87010 0.78620 0.06400
H 	H 	0.87150 0.90260 0.80340 0.00100
C 	C 	0.82660 0.84620 0.87110 -0.11100
H 	H 	0.85020 0.86220 0.94430 0.07400
C 	C 	0.77830 0.79900 0.84360 0.05700
C 	C 	0.74480 0.77840 0.73490 -0.12600
H 	H 	0.71000 0.74730 0.71150 0.07400
C 	C 	0.76260 0.80360 0.66130 0.07700
H 	H 	0.73990 0.78820 0.58770 -0.03600
N 	N 	0.04800 0.58770 0.53180 -0.09000
N 	N 	0.00350 0.63040 0.52600 -0.08900
C 	C 	0.03040 0.68120 0.51870 0.08600
N 	N 	0.09230 0.69050 0.50690 -0.08200
N 	N 	0.13600 0.64740 0.51180 -0.08300
C 	C 	0.11400 0.59810 0.52800 0.08300
N 	N 	0.90060 0.81840 0.53190 -0.26300
C 	C 	0.93750 0.81990 0.47370 0.09100
H 	H 	0.93450 0.85340 0.43590 -0.03400
C 	C 	0.97910 0.77750 0.46360 -0.14800
H 	H 	0.00410 0.78130 0.42040 0.09900
C 	C 	0.98370 0.72800 0.51960 0.06300
C 	C 	0.94720 0.72580 0.58240 -0.13300
H 	H 	0.95060 0.69330 0.62300 0.07000
C 	C 	0.90590 0.77090 0.58600 0.07000
H 	H 	0.88010 0.76850 0.62830 -0.02100
N 	N 	0.75630 0.96250 0.54250 -0.25800
C 	C 	0.78020 0.01390 0.54550 0.07400
H 	H 	0.82870 0.02000 0.54630 -0.01600
C 	C 	0.73810 0.05910 0.54760 -0.13300
H 	H 	0.75960 0.09530 0.55650 0.08700
C 	C 	0.16370 0.55100 0.53660 0.05600
C 	C 	0.13710 0.49690 0.53200 -0.12300
H 	H 	0.08780 0.48970 0.52830 0.08700
C 	C 	0.68490 0.95370 0.53320 0.06200
H 	H 	0.66640 0.91680 0.52720 -0.01700
O 	O 	0.93360 0.94640 0.69200 -0.15400
O 	O 	0.95160 0.94520 0.65420 -0.16600
Cd	Cd	0.33253 0.39061 0.54518 1.17400
C 	C 	0.26270 0.27330 0.92890 0.10200
N 	N 	0.30630 0.29140 0.03490 -0.08800
N 	N 	0.20750 0.23350 0.88890 -0.08700
N 	N 	0.30870 0.34750 0.68530 -0.23000
C 	C 	0.33990 0.37010 0.78620 0.06400
H 	H 	0.37150 0.40260 0.80340 0.00100
C 	C 	0.32660 0.34620 0.87110 -0.11100
H 	H 	0.35020 0.36220 0.94430 0.07400
C 	C 	0.27830 0.29900 0.84360 0.05800
C 	C 	0.24480 0.27840 0.73490 -0.12600
H 	H 	0.21000 0.24730 0.71150 0.07400
C 	C 	0.26260 0.30360 0.66130 0.07800
H 	H 	0.23990 0.28820 0.58770 -0.03600
N 	N 	0.54800 0.08770 0.53180 -0.09100
N 	N 	0.50350 0.13040 0.52600 -0.09000
C 	C 	0.53040 0.18120 0.51870 0.08200
N 	N 	0.59230 0.19050 0.50690 -0.08100
N 	N 	0.63600 0.14740 0.51180 -0.08300
C 	C 	0.61400 0.09810 0.52800 0.08300
N 	N 	0.40060 0.31840 0.53190 -0.26100
C 	C 	0.43750 0.31990 0.47370 0.08700
H 	H 	0.43450 0.35340 0.43590 -0.03100
C 	C 	0.47910 0.27750 0.46360 -0.13700
H 	H 	0.50410 0.28130 0.42040 0.09100
C 	C 	0.48370 0.22800 0.51960 0.06600
C 	C 	0.44720 0.22580 0.58240 -0.13300
H 	H 	0.45060 0.19330 0.62300 0.07200
C 	C 	0.40590 0.27090 0.58600 0.07100
H 	H 	0.38010 0.26850 0.62830 -0.02100
N 	N 	0.25630 0.46250 0.54250 -0.25800
C 	C 	0.28020 0.51390 0.54550 0.07500
H 	H 	0.32870 0.52000 0.54630 -0.01600
C 	C 	0.23810 0.55910 0.54760 -0.13300
H 	H 	0.25960 0.59530 0.55650 0.08700
C 	C 	0.66370 0.05100 0.53660 0.05500
C 	C 	0.63710 0.99690 0.53200 -0.12300
H 	H 	0.58780 0.98970 0.52830 0.08600
C 	C 	0.18490 0.45370 0.53320 0.06200
H 	H 	0.16640 0.41680 0.52720 -0.01700
O 	O 	0.43360 0.44640 0.69200 -0.15200
O 	O 	0.45160 0.44520 0.65420 -0.16300
Cd	Cd	0.16747 0.89061 0.95482 1.17400
C 	C 	0.23730 0.77330 0.57110 0.10200
N 	N 	0.19370 0.79140 0.46510 -0.08800
N 	N 	0.29250 0.73350 0.61110 -0.08700
N 	N 	0.19130 0.84750 0.81470 -0.23000
C 	C 	0.16010 0.87010 0.71380 0.06400
H 	H 	0.12850 0.90260 0.69660 0.00200
C 	C 	0.17340 0.84620 0.62890 -0.11100
H 	H 	0.14980 0.86220 0.55570 0.07500
C 	C 	0.22170 0.79900 0.65640 0.05800
C 	C 	0.25520 0.77840 0.76510 -0.12600
H 	H 	0.29000 0.74730 0.78850 0.07400
C 	C 	0.23740 0.80360 0.83870 0.07800
H 	H 	0.26010 0.78820 0.91230 -0.03600
N 	N 	0.95200 0.58770 0.96820 -0.09200
N 	N 	0.99650 0.63040 0.97400 -0.09100
C 	C 	0.96960 0.68120 0.98130 0.08000
N 	N 	0.90770 0.69050 0.99310 -0.08100
N 	N 	0.86400 0.64740 0.98820 -0.08300
C 	C 	0.88600 0.59810 0.97200 0.08300
N 	N 	0.09940 0.81840 0.96810 -0.26000
C 	C 	0.06250 0.81990 0.02630 0.08000
H 	H 	0.06550 0.85340 0.06410 -0.02700
C 	C 	0.02090 0.77750 0.03640 -0.12100
H 	H 	0.99590 0.78130 0.07960 0.08100
C 	C 	0.01630 0.72800 0.98040 0.06400
C 	C 	0.05280 0.72580 0.91760 -0.13000
H 	H 	0.04940 0.69330 0.87700 0.07200
C 	C 	0.09410 0.77090 0.91400 0.06900
H 	H 	0.11990 0.76850 0.87170 -0.02000
N 	N 	0.24370 0.96250 0.95750 -0.25800
C 	C 	0.21980 0.01390 0.95450 0.07500
H 	H 	0.17130 0.02000 0.95370 -0.01500
C 	C 	0.26190 0.05910 0.95240 -0.13300
H 	H 	0.24040 0.09530 0.94350 0.08700
C 	C 	0.83630 0.55100 0.96340 0.05500
C 	C 	0.86290 0.49690 0.96800 -0.12300
H 	H 	0.91220 0.48970 0.97170 0.08500
C 	C 	0.31510 0.95370 0.96680 0.06200
H 	H 	0.33360 0.91680 0.97280 -0.01700
O 	O 	0.06640 0.94640 0.80800 -0.15200
O 	O 	0.04840 0.94520 0.84580 -0.16200
Cd	Cd	0.66747 0.39061 0.95482 1.17400
C 	C 	0.73730 0.27330 0.57110 0.10200
N 	N 	0.69370 0.29140 0.46510 -0.08800
N 	N 	0.79250 0.23350 0.61110 -0.08700
N 	N 	0.69130 0.34750 0.81470 -0.23000
C 	C 	0.66010 0.37010 0.71380 0.06400
H 	H 	0.62850 0.40260 0.69660 0.00100
C 	C 	0.67340 0.34620 0.62890 -0.11100
H 	H 	0.64980 0.36220 0.55570 0.07400
C 	C 	0.72170 0.29900 0.65640 0.05800
C 	C 	0.75520 0.27840 0.76510 -0.12600
H 	H 	0.79000 0.24730 0.78850 0.07400
C 	C 	0.73740 0.30360 0.83870 0.07800
H 	H 	0.76010 0.28820 0.91230 -0.03500
N 	N 	0.45200 0.08770 0.96820 -0.09100
N 	N 	0.49650 0.13040 0.97400 -0.09000
C 	C 	0.46960 0.18120 0.98130 0.08200
N 	N 	0.40770 0.19050 0.99310 -0.08100
N 	N 	0.36400 0.14740 0.98820 -0.08300
C 	C 	0.38600 0.09810 0.97200 0.08300
N 	N 	0.59940 0.31840 0.96810 -0.26100
C 	C 	0.56250 0.31990 0.02630 0.08600
H 	H 	0.56550 0.35340 0.06410 -0.03100
C 	C 	0.52090 0.27750 0.03640 -0.13800
H 	H 	0.49590 0.28130 0.07960 0.09100
C 	C 	0.51630 0.22800 0.98040 0.06700
C 	C 	0.55280 0.22580 0.91760 -0.13300
H 	H 	0.54940 0.19330 0.87700 0.07200
C 	C 	0.59410 0.27090 0.91400 0.07100
H 	H 	0.61990 0.26850 0.87170 -0.02100
N 	N 	0.74370 0.46250 0.95750 -0.25800
C 	C 	0.71980 0.51390 0.95450 0.07400
H 	H 	0.67130 0.52000 0.95370 -0.01500
C 	C 	0.76190 0.55910 0.95240 -0.13300
H 	H 	0.74040 0.59530 0.94350 0.08700
C 	C 	0.33630 0.05100 0.96340 0.05600
C 	C 	0.36290 0.99690 0.96800 -0.12400
H 	H 	0.41220 0.98970 0.97170 0.08600
C 	C 	0.81510 0.45370 0.96680 0.06100
H 	H 	0.83360 0.41680 0.97280 -0.01700
O 	O 	0.56640 0.44640 0.80800 -0.15200
O 	O 	0.54840 0.44520 0.84580 -0.16300
Cd	Cd	0.16747 0.10939 0.45482 1.17400
C 	C 	0.23730 0.22670 0.07110 0.10200
N 	N 	0.19370 0.20860 0.96510 -0.08800
N 	N 	0.29250 0.26650 0.11110 -0.08700
N 	N 	0.19130 0.15250 0.31470 -0.23000
C 	C 	0.16010 0.12990 0.21380 0.06400
H 	H 	0.12850 0.09740 0.19660 0.00200
C 	C 	0.17340 0.15380 0.12890 -0.11100
H 	H 	0.14980 0.13780 0.05570 0.07500
C 	C 	0.22170 0.20100 0.15640 0.05800
C 	C 	0.25520 0.22160 0.26510 -0.12600
H 	H 	0.29000 0.25270 0.28850 0.07400
C 	C 	0.23740 0.19640 0.33870 0.07800
H 	H 	0.26010 0.21180 0.41230 -0.03600
N 	N 	0.95200 0.41230 0.46820 -0.09200
N 	N 	0.99650 0.36960 0.47400 -0.09100
C 	C 	0.96960 0.31880 0.48130 0.07700
N 	N 	0.90770 0.30950 0.49310 -0.08100
N 	N 	0.86400 0.35260 0.48820 -0.08300
C 	C 	0.88600 0.40190 0.47200 0.08300
N 	N 	0.09940 0.18160 0.46810 -0.26100
C 	C 	0.06250 0.18010 0.52630 0.08200
H 	H 	0.06550 0.14660 0.56410 -0.02800
C 	C 	0.02090 0.22250 0.53640 -0.12700
H 	H 	0.99590 0.21870 0.57960 0.08400
C 	C 	0.01630 0.27200 0.48040 0.06800
C 	C 	0.05280 0.27420 0.41760 -0.13300
H 	H 	0.04940 0.30670 0.37700 0.07300
C 	C 	0.09410 0.22910 0.41400 0.07100
H 	H 	0.11990 0.23150 0.37170 -0.02000
N 	N 	0.24370 0.03750 0.45750 -0.25800
C 	C 	0.21980 0.98610 0.45450 0.07400
H 	H 	0.17130 0.98000 0.45370 -0.01500
C 	C 	0.26190 0.94090 0.45240 -0.13300
H 	H 	0.24040 0.90470 0.44350 0.08700
C 	C 	0.83630 0.44900 0.46340 0.05500
C 	C 	0.86290 0.50310 0.46800 -0.12300
H 	H 	0.91220 0.51030 0.47170 0.08500
C 	C 	0.31510 0.04630 0.46680 0.06200
H 	H 	0.33360 0.08320 0.47280 -0.01700
O 	O 	0.06640 0.05360 0.30800 -0.15200
O 	O 	0.04840 0.05480 0.34580 -0.16200
Cd	Cd	0.66747 0.60939 0.45482 1.17400
C 	C 	0.73730 0.72670 0.07110 0.10100
N 	N 	0.69370 0.70860 0.96510 -0.08700
N 	N 	0.79250 0.76650 0.11110 -0.08700
N 	N 	0.69130 0.65250 0.31470 -0.23000
C 	C 	0.66010 0.62990 0.21380 0.06400
H 	H 	0.62850 0.59740 0.19660 0.00100
C 	C 	0.67340 0.65380 0.12890 -0.11100
H 	H 	0.64980 0.63780 0.05570 0.07400
C 	C 	0.72170 0.70100 0.15640 0.05800
C 	C 	0.75520 0.72160 0.26510 -0.12600
H 	H 	0.79000 0.75270 0.28850 0.07400
C 	C 	0.73740 0.69640 0.33870 0.07800
H 	H 	0.76010 0.71180 0.41230 -0.03600
N 	N 	0.45200 0.91230 0.46820 -0.09100
N 	N 	0.49650 0.86960 0.47400 -0.09000
C 	C 	0.46960 0.81880 0.48130 0.08200
N 	N 	0.40770 0.80950 0.49310 -0.08100
N 	N 	0.36400 0.85260 0.48820 -0.08300
C 	C 	0.38600 0.90190 0.47200 0.08300
N 	N 	0.59940 0.68160 0.46810 -0.26200
C 	C 	0.56250 0.68010 0.52630 0.08700
H 	H 	0.56550 0.64660 0.56410 -0.03100
C 	C 	0.52090 0.72250 0.53640 -0.13700
H 	H 	0.49590 0.71870 0.57960 0.09100
C 	C 	0.51630 0.77200 0.48040 0.06600
C 	C 	0.55280 0.77420 0.41760 -0.13300
H 	H 	0.54940 0.80670 0.37700 0.07200
C 	C 	0.59410 0.72910 0.41400 0.07100
H 	H 	0.61990 0.73150 0.37170 -0.02100
N 	N 	0.74370 0.53750 0.45750 -0.25800
C 	C 	0.71980 0.48610 0.45450 0.07400
H 	H 	0.67130 0.48000 0.45370 -0.01600
C 	C 	0.76190 0.44090 0.45240 -0.13300
H 	H 	0.74040 0.40470 0.44350 0.08600
C 	C 	0.33630 0.94900 0.46340 0.05500
C 	C 	0.36290 0.00310 0.46800 -0.12300
H 	H 	0.41220 0.01030 0.47170 0.08600
C 	C 	0.81510 0.54630 0.46680 0.06100
H 	H 	0.83360 0.58320 0.47280 -0.01800
O 	O 	0.56640 0.55360 0.30800 -0.15200
O 	O 	0.54840 0.55480 0.34580 -0.16300
Cd	Cd	0.83253 0.10939 0.04518 1.17300
C 	C 	0.76270 0.22670 0.42890 0.10200
N 	N 	0.80630 0.20860 0.53490 -0.08900
N 	N 	0.70750 0.26650 0.38890 -0.08700
N 	N 	0.80870 0.15250 0.18530 -0.23100
C 	C 	0.83990 0.12990 0.28620 0.06300
H 	H 	0.87150 0.09740 0.30340 0.00000
C 	C 	0.82660 0.15380 0.37110 -0.11200
H 	H 	0.85020 0.13780 0.44430 0.07300
C 	C 	0.77830 0.20100 0.34360 0.05700
C 	C 	0.74480 0.22160 0.23490 -0.12600
H 	H 	0.71000 0.25270 0.21150 0.07400
C 	C 	0.76260 0.19640 0.16130 0.07700
H 	H 	0.73990 0.21180 0.08770 -0.03600
N 	N 	0.04800 0.41230 0.03180 -0.09000
N 	N 	0.00350 0.36960 0.02600 -0.08900
C 	C 	0.03040 0.31880 0.01870 0.08900
N 	N 	0.09230 0.30950 0.00690 -0.08200
N 	N 	0.13600 0.35260 0.01180 -0.08200
C 	C 	0.11400 0.40190 0.02800 0.08300
N 	N 	0.90060 0.18160 0.03190 -0.26300
C 	C 	0.93750 0.18010 0.97370 0.09000
H 	H 	0.93450 0.14660 0.93590 -0.03300
C 	C 	0.97910 0.22250 0.96360 -0.14100
H 	H 	0.00410 0.21870 0.92040 0.09500
C 	C 	0.98370 0.27200 0.01960 0.05700
C 	C 	0.94720 0.27420 0.08240 -0.13000
H 	H 	0.95060 0.30670 0.12300 0.06800
C 	C 	0.90590 0.22910 0.08600 0.06800
H 	H 	0.88010 0.23150 0.12830 -0.02100
N 	N 	0.75630 0.03750 0.04250 -0.25900
C 	C 	0.78020 0.98610 0.04550 0.07400
H 	H 	0.82870 0.98000 0.04630 -0.01600
C 	C 	0.73810 0.94090 0.04760 -0.13300
H 	H 	0.75960 0.90470 0.05650 0.08600
C 	C 	0.16370 0.44900 0.03660 0.05600
C 	C 	0.13710 0.50310 0.03200 -0.12300
H 	H 	0.08780 0.51030 0.02830 0.08700
C 	C 	0.68490 0.04630 0.03320 0.06200
H 	H 	0.66640 0.08320 0.02720 -0.01700
O 	O 	0.93360 0.05360 0.19200 -0.15400
O 	O 	0.95160 0.05480 0.15420 -0.16700
Cd	Cd	0.33253 0.60939 0.04518 1.17400
C 	C 	0.26270 0.72670 0.42890 0.10200
N 	N 	0.30630 0.70860 0.53490 -0.08800
N 	N 	0.20750 0.76650 0.38890 -0.08700
N 	N 	0.30870 0.65250 0.18530 -0.23000
C 	C 	0.33990 0.62990 0.28620 0.06400
H 	H 	0.37150 0.59740 0.30340 0.00100
C 	C 	0.32660 0.65380 0.37110 -0.11100
H 	H 	0.35020 0.63780 0.44430 0.07400
C 	C 	0.27830 0.70100 0.34360 0.05800
C 	C 	0.24480 0.72160 0.23490 -0.12600
H 	H 	0.21000 0.75270 0.21150 0.07400
C 	C 	0.26260 0.69640 0.16130 0.07800
H 	H 	0.23990 0.71180 0.08770 -0.03600
N 	N 	0.54800 0.91230 0.03180 -0.09100
N 	N 	0.50350 0.86960 0.02600 -0.09000
C 	C 	0.53040 0.81880 0.01870 0.08200
N 	N 	0.59230 0.80950 0.00690 -0.08200
N 	N 	0.63600 0.85260 0.01180 -0.08300
C 	C 	0.61400 0.90190 0.02800 0.08300
N 	N 	0.40060 0.68160 0.03190 -0.26200
C 	C 	0.43750 0.68010 0.97370 0.08700
H 	H 	0.43450 0.64660 0.93590 -0.03100
C 	C 	0.47910 0.72250 0.96360 -0.13600
H 	H 	0.50410 0.71870 0.92040 0.09100
C 	C 	0.48370 0.77200 0.01960 0.06500
C 	C 	0.44720 0.77420 0.08240 -0.13200
H 	H 	0.45060 0.80670 0.12300 0.07100
C 	C 	0.40590 0.72910 0.08600 0.07000
H 	H 	0.38010 0.73150 0.12830 -0.02100
N 	N 	0.25630 0.53750 0.04250 -0.25800
C 	C 	0.28020 0.48610 0.04550 0.07500
H 	H 	0.32870 0.48000 0.04630 -0.01600
C 	C 	0.23810 0.44090 0.04760 -0.13300
H 	H 	0.25960 0.40470 0.05650 0.08700
C 	C 	0.66370 0.94900 0.03660 0.05500
C 	C 	0.63710 0.00310 0.03200 -0.12400
H 	H 	0.58780 0.01030 0.02830 0.08600
C 	C 	0.18490 0.54630 0.03320 0.06200
H 	H 	0.16640 0.58320 0.02720 -0.01700
O 	O 	0.43360 0.55360 0.19200 -0.15200
O 	O 	0.45160 0.55480 0.15420 -0.16300
N 	N 	0.00000 0.92370 0.75000 0.09600
O 	O 	-0.00000 0.87280 0.75000 -0.23300
N 	N 	0.50000 0.42370 0.75000 0.09300
O 	O 	0.50000 0.37280 0.75000 -0.23400
N 	N 	0.00000 0.07630 0.25000 0.09700
O 	O 	0.00000 0.12720 0.25000 -0.23200
N 	N 	0.50000 0.57630 0.25000 0.09300
O 	O 	0.50000 0.62720 0.25000 -0.23500
