data_crystal

_cell_length_a 18.25500
_cell_length_b 8.83400
_cell_length_c 20.69800
_cell_angle_alpha 90.00000
_cell_angle_beta  112.47000
_cell_angle_gamma 90.00000

_symmetry_space_group_name_	'P 1'
_symmetry_space_group_name_H-M	'P 1'

loop_
_symmetry_equiv_pos_as_xyz
  x,y,z

loop_
_atom_site_label
_atom_site_type_symbol
_atom_site_fract_x
_atom_site_fract_y
_atom_site_fract_z
_atom_site_charge
La	La	0.97813 0.47166 0.23353 1.57400
La	La	0.00138 0.97264 0.25762 1.64800
O 	O 	0.09160 0.03130 0.18820 -0.40600
O 	O 	0.04360 0.24270 0.21020 -0.51200
O 	O 	0.01550 0.24980 0.82140 -0.52600
O 	O 	0.02850 0.44890 0.88890 -0.42000
O 	O 	0.89770 0.05930 0.14501 -0.46800
O 	O 	0.87540 0.30700 0.14591 -0.44900
O 	O 	0.62510 0.40330 0.84680 -0.38900
O 	O 	0.64960 0.63920 0.82560 -0.38400
O 	O 	0.95500 0.20830 0.29586 -0.50600
O 	O 	0.89270 0.41230 0.30630 -0.43100
O 	O 	0.98730 0.10470 0.61845 -0.41000
O 	O 	0.00550 0.30220 0.68705 -0.53000
C 	C 	0.08130 0.17060 0.17990 0.44600
C 	C 	0.11480 0.25580 0.13400 -0.42500
H 	H 	0.10070 0.36190 0.13280 0.14100
H 	H 	0.17220 0.24840 0.15390 0.15200
C 	C 	0.08400 0.19410 0.06100 0.05300
H 	H 	0.09770 0.09540 0.05480 0.00700
C 	C 	0.03960 0.26890 0.00600 -0.00600
H 	H 	0.02730 0.36830 0.01270 0.04200
C 	C 	0.00600 0.20880 0.93180 -0.37100
H 	H 	0.02990 0.11120 0.93110 0.14000
H 	H 	0.94950 0.19290 0.91830 0.13500
C 	C 	0.01860 0.30940 0.87860 0.41900
C 	C 	0.87520 0.18460 0.11590 0.48000
C 	C 	0.84970 0.18270 0.03770 -0.40500
H 	H 	0.89300 0.14090 0.02700 0.14700
H 	H 	0.80540 0.11330 0.01890 0.14900
C 	C 	0.82570 0.33010 0.99900 0.01800
H 	H 	0.84520 0.41920 0.02340 0.03800
C 	C 	0.77990 0.34030 0.93430 0.03300
H 	H 	0.75680 0.25140 0.91140 0.01700
C 	C 	0.76060 0.48240 0.89280 -0.37000
H 	H 	0.78600 0.47940 0.85930 0.12900
H 	H 	0.78310 0.56680 0.92410 0.14000
C 	C 	0.67340 0.51170 0.85370 0.38800
C 	C 	0.91300 0.27860 0.32300 0.42500
C 	C 	0.89230 0.19980 0.37880 -0.37900
H 	H 	0.89280 0.09090 0.37310 0.13800
H 	H 	0.83970 0.22970 0.37520 0.13300
C 	C 	0.95390 0.24600 0.44990 -0.04500
C 	C 	0.93510 0.30700 0.50030 -0.02200
C 	C 	0.99540 0.34630 0.56910 -0.40700
H 	H 	0.98650 0.44950 0.58030 0.14100
H 	H 	0.04730 0.34240 0.56640 0.14800
C 	C 	0.99540 0.24380 0.62730 0.42500
C 	C 	0.91400 0.29140 0.44570 0.05800
C 	C 	0.97130 0.25800 0.49900 0.08900
La	La	0.52187 0.97166 0.26647 1.57200
La	La	0.49862 0.47264 0.24238 1.66200
O 	O 	0.40840 0.53130 0.31180 -0.41000
O 	O 	0.45640 0.74270 0.28980 -0.51200
O 	O 	0.48450 0.74980 0.67860 -0.52900
O 	O 	0.47150 0.94890 0.61110 -0.42000
O 	O 	0.60230 0.55930 0.35499 -0.47100
O 	O 	0.62460 0.80700 0.35409 -0.45100
O 	O 	0.87490 0.90330 0.65320 -0.37600
O 	O 	0.85040 0.13920 0.67440 -0.38000
O 	O 	0.54500 0.70830 0.20414 -0.50700
O 	O 	0.60730 0.91230 0.19370 -0.43200
O 	O 	0.51270 0.60470 0.88155 -0.40900
O 	O 	0.49450 0.80220 0.81295 -0.53300
C 	C 	0.41870 0.67060 0.32010 0.44400
C 	C 	0.38520 0.75580 0.36600 -0.41900
H 	H 	0.39930 0.86190 0.36720 0.14000
H 	H 	0.32780 0.74840 0.34610 0.15000
C 	C 	0.41600 0.69410 0.43900 0.04400
H 	H 	0.40230 0.59540 0.44520 0.00800
C 	C 	0.46040 0.76890 0.49400 0.00800
H 	H 	0.47270 0.86830 0.48730 0.03900
C 	C 	0.49400 0.70880 0.56820 -0.39600
H 	H 	0.47010 0.61120 0.56890 0.14600
H 	H 	0.55050 0.69290 0.58170 0.14800
C 	C 	0.48140 0.80940 0.62140 0.42600
C 	C 	0.62480 0.68460 0.38410 0.48800
C 	C 	0.65030 0.68270 0.46230 -0.43100
H 	H 	0.60700 0.64090 0.47300 0.15300
H 	H 	0.69460 0.61330 0.48110 0.15500
C 	C 	0.67430 0.83010 0.50100 0.05700
H 	H 	0.65480 0.91920 0.47660 0.02400
C 	C 	0.72010 0.84030 0.56570 -0.00100
H 	H 	0.74320 0.75140 0.58860 0.03000
C 	C 	0.73940 0.98240 0.60720 -0.32700
H 	H 	0.71400 0.97940 0.64070 0.11900
H 	H 	0.71690 0.06680 0.57590 0.12600
C 	C 	0.82660 0.01170 0.64630 0.36400
C 	C 	0.58700 0.77860 0.17700 0.42500
C 	C 	0.60770 0.69980 0.12120 -0.37800
H 	H 	0.60720 0.59090 0.12690 0.13800
H 	H 	0.66030 0.72970 0.12480 0.13200
C 	C 	0.54610 0.74600 0.05010 -0.05400
C 	C 	0.56490 0.80700 0.99970 -0.02600
C 	C 	0.50460 0.84630 0.93090 -0.40400
H 	H 	0.51350 0.94950 0.91970 0.14100
H 	H 	0.45270 0.84240 0.93360 0.14500
C 	C 	0.50460 0.74380 0.87270 0.42800
C 	C 	0.58600 0.79140 0.05430 0.06500
C 	C 	0.52870 0.75800 0.00100 0.09300
La	La	0.02187 0.52834 0.76647 1.57500
La	La	0.99862 0.02736 0.74238 1.64900
O 	O 	0.90840 0.96870 0.81180 -0.40500
O 	O 	0.95640 0.75730 0.78980 -0.51100
O 	O 	0.98450 0.75020 0.17860 -0.52500
O 	O 	0.97150 0.55110 0.11110 -0.41900
O 	O 	0.10230 0.94070 0.85499 -0.46700
O 	O 	0.12460 0.69300 0.85409 -0.44800
O 	O 	0.37490 0.59670 0.15320 -0.38900
O 	O 	0.35040 0.36080 0.17440 -0.38400
O 	O 	0.04500 0.79170 0.70414 -0.50600
O 	O 	0.10730 0.58770 0.69370 -0.43100
O 	O 	0.01270 0.89530 0.38155 -0.41000
O 	O 	0.99450 0.69780 0.31295 -0.53000
C 	C 	0.91870 0.82940 0.82010 0.44600
C 	C 	0.88520 0.74420 0.86600 -0.42500
H 	H 	0.89930 0.63810 0.86720 0.14100
H 	H 	0.82780 0.75160 0.84610 0.15200
C 	C 	0.91600 0.80590 0.93900 0.05300
H 	H 	0.90230 0.90460 0.94520 0.00700
C 	C 	0.96040 0.73110 0.99400 -0.00600
H 	H 	0.97270 0.63170 0.98730 0.04200
C 	C 	0.99400 0.79120 0.06820 -0.37100
H 	H 	0.97010 0.88880 0.06890 0.14000
H 	H 	0.05050 0.80710 0.08170 0.13500
C 	C 	0.98140 0.69060 0.12140 0.41900
C 	C 	0.12480 0.81540 0.88410 0.48000
C 	C 	0.15030 0.81730 0.96230 -0.40500
H 	H 	0.10700 0.85910 0.97300 0.14700
H 	H 	0.19460 0.88670 0.98110 0.14900
C 	C 	0.17430 0.66990 0.00100 0.01800
H 	H 	0.15480 0.58080 0.97660 0.03800
C 	C 	0.22010 0.65970 0.06570 0.03300
H 	H 	0.24320 0.74860 0.08860 0.01700
C 	C 	0.23940 0.51760 0.10720 -0.37000
H 	H 	0.21400 0.52060 0.14070 0.12900
H 	H 	0.21690 0.43320 0.07590 0.14000
C 	C 	0.32660 0.48830 0.14630 0.38800
C 	C 	0.08700 0.72140 0.67700 0.42500
C 	C 	0.10770 0.80020 0.62120 -0.37900
H 	H 	0.10720 0.90910 0.62690 0.13800
H 	H 	0.16030 0.77030 0.62480 0.13300
C 	C 	0.04610 0.75400 0.55010 -0.04500
C 	C 	0.06490 0.69300 0.49970 -0.02200
C 	C 	0.00460 0.65370 0.43090 -0.40700
H 	H 	0.01350 0.55050 0.41970 0.14100
H 	H 	0.95270 0.65760 0.43360 0.14800
C 	C 	0.00460 0.75620 0.37270 0.42500
C 	C 	0.08600 0.70860 0.55430 0.05800
C 	C 	0.02870 0.74200 0.50100 0.08900
La	La	0.47813 0.02834 0.73353 1.57200
La	La	0.50138 0.52736 0.75762 1.66200
O 	O 	0.59160 0.46870 0.68820 -0.41000
O 	O 	0.54360 0.25730 0.71020 -0.51200
O 	O 	0.51550 0.25020 0.32140 -0.52900
O 	O 	0.52850 0.05110 0.38890 -0.42000
O 	O 	0.39770 0.44070 0.64501 -0.47100
O 	O 	0.37540 0.19300 0.64591 -0.45100
O 	O 	0.12510 0.09670 0.34680 -0.37600
O 	O 	0.14960 0.86080 0.32560 -0.38000
O 	O 	0.45500 0.29170 0.79586 -0.50700
O 	O 	0.39270 0.08770 0.80630 -0.43200
O 	O 	0.48730 0.39530 0.11845 -0.40900
O 	O 	0.50550 0.19780 0.18705 -0.53300
C 	C 	0.58130 0.32940 0.67990 0.44400
C 	C 	0.61480 0.24420 0.63400 -0.41900
H 	H 	0.60070 0.13810 0.63280 0.14000
H 	H 	0.67220 0.25160 0.65390 0.15000
C 	C 	0.58400 0.30590 0.56100 0.04400
H 	H 	0.59770 0.40460 0.55480 0.00800
C 	C 	0.53960 0.23110 0.50600 0.00800
H 	H 	0.52730 0.13170 0.51270 0.03900
C 	C 	0.50600 0.29120 0.43180 -0.39600
H 	H 	0.52990 0.38880 0.43110 0.14600
H 	H 	0.44950 0.30710 0.41830 0.14800
C 	C 	0.51860 0.19060 0.37860 0.42600
C 	C 	0.37520 0.31540 0.61590 0.48800
C 	C 	0.34970 0.31730 0.53770 -0.43100
H 	H 	0.39300 0.35910 0.52700 0.15300
H 	H 	0.30540 0.38670 0.51890 0.15500
C 	C 	0.32570 0.16990 0.49900 0.05700
H 	H 	0.34520 0.08080 0.52340 0.02400
C 	C 	0.27990 0.15970 0.43430 -0.00100
H 	H 	0.25680 0.24860 0.41140 0.03000
C 	C 	0.26060 0.01760 0.39280 -0.32700
H 	H 	0.28600 0.02060 0.35930 0.11900
H 	H 	0.28310 0.93320 0.42410 0.12600
C 	C 	0.17340 0.98830 0.35370 0.36400
C 	C 	0.41300 0.22140 0.82300 0.42500
C 	C 	0.39230 0.30020 0.87880 -0.37800
H 	H 	0.39280 0.40910 0.87310 0.13800
H 	H 	0.33970 0.27030 0.87520 0.13200
C 	C 	0.45390 0.25400 0.94990 -0.05400
C 	C 	0.43510 0.19300 0.00030 -0.02600
C 	C 	0.49540 0.15370 0.06910 -0.40400
H 	H 	0.48650 0.05050 0.08030 0.14100
H 	H 	0.54730 0.15760 0.06640 0.14500
C 	C 	0.49540 0.25620 0.12730 0.42800
C 	C 	0.41400 0.20860 0.94570 0.06500
C 	C 	0.47130 0.24200 0.99900 0.09300
