data_crystal

_cell_length_a 18.91000
_cell_length_b 11.79500
_cell_length_c 21.01000
_cell_angle_alpha 90.00000
_cell_angle_beta  115.20000
_cell_angle_gamma 90.00000

_symmetry_space_group_name_	'P 1'
_symmetry_space_group_name_H-M	'P 1'

loop_
_symmetry_equiv_pos_as_xyz
  x,y,z

loop_
_atom_site_label
_atom_site_type_symbol
_atom_site_fract_x
_atom_site_fract_y
_atom_site_fract_z
_atom_site_charge
Zn	Zn	0.47090 0.64940 0.37790 1.21100
O 	O 	0.59860 0.54860 0.34750 -0.46400
O 	O 	0.58590 0.65100 0.43140 -0.47800
O 	O 	0.92510 0.59200 0.68010 -0.41400
O 	O 	0.81880 0.69120 0.66330 -0.29500
O 	O 	0.94710 0.93290 0.28520 -0.40800
O 	O 	0.94290 0.99320 0.38490 -0.47100
O 	O 	0.44930 0.69090 0.28150 -0.80000
H 	H 	0.39420 0.69900 0.25400 0.21100
N 	N 	0.87470 0.40690 0.45080 -0.19800
N 	N 	0.94490 0.37470 0.39180 -0.10600
N 	N 	0.92880 0.27300 0.41560 -0.28000
C 	C 	0.91180 0.45470 0.41300 0.11900
C 	C 	0.88660 0.29300 0.45060 0.37100
C 	C 	0.82640 0.46690 0.47830 0.12200
C 	C 	0.75110 0.49380 0.43280 -0.10900
H 	H 	0.72980 0.46790 0.38660 0.08300
C 	C 	0.70710 0.56070 0.45720 -0.04700
C 	C 	0.74010 0.60050 0.52610 -0.03400
H 	H 	0.71110 0.64680 0.54200 0.06600
C 	C 	0.81640 0.57120 0.57140 -0.02200
C 	C 	0.85980 0.50260 0.54730 -0.12300
H 	H 	0.91050 0.48110 0.57730 0.12100
C 	C 	0.62400 0.58900 0.40750 0.35900
C 	C 	0.85500 0.62250 0.64430 0.31300
C 	C 	0.91580 0.57520 0.39610 0.04400
C 	C 	0.92960 0.59790 0.33740 -0.07800
H 	H 	0.93310 0.53850 0.30980 0.08200
C 	C 	0.93800 0.70860 0.31980 0.04100
H 	H 	0.94880 0.72310 0.28130 0.06200
C 	C 	0.93070 0.79770 0.35940 -0.09900
C 	C 	0.91730 0.77440 0.41850 0.04600
H 	H 	0.91350 0.83380 0.44590 0.03900
C 	C 	0.90980 0.66420 0.43650 -0.08200
H 	H 	0.90070 0.64960 0.47590 0.09000
C 	C 	0.94080 0.91760 0.34110 0.39500
C 	C 	0.85640 0.20680 0.48450 -0.94800
H 	H 	0.80040 0.20900 0.46340 0.30500
H 	H 	0.87590 0.22280 0.53380 0.33400
H 	H 	0.87360 0.13280 0.47810 0.31200
Zn	Zn	0.97090 0.14940 0.37790 1.23900
O 	O 	0.09860 0.04860 0.34750 -0.49800
O 	O 	0.08590 0.15100 0.43140 -0.52900
O 	O 	0.42510 0.09200 0.68010 -0.47800
O 	O 	0.31880 0.19120 0.66330 -0.30600
O 	O 	0.44710 0.43290 0.28520 -0.46100
O 	O 	0.44290 0.49320 0.38490 -0.50800
O 	O 	0.94930 0.19090 0.28150 -0.72600
H 	H 	0.89420 0.19900 0.25400 0.20000
N 	N 	0.37470 0.90690 0.45080 -0.19300
N 	N 	0.44490 0.87470 0.39180 -0.13300
N 	N 	0.42880 0.77300 0.41560 -0.29500
C 	C 	0.41180 0.95470 0.41300 0.09600
C 	C 	0.38660 0.79300 0.45060 0.33200
C 	C 	0.32640 0.96690 0.47830 0.09600
C 	C 	0.25110 0.99380 0.43280 -0.09000
H 	H 	0.22980 0.96790 0.38660 0.07600
C 	C 	0.20710 0.06070 0.45720 -0.06500
C 	C 	0.24010 0.10050 0.52610 -0.01500
H 	H 	0.21110 0.14680 0.54200 0.05900
C 	C 	0.31640 0.07120 0.57140 -0.04900
C 	C 	0.35980 0.00260 0.54730 -0.09500
H 	H 	0.41050 0.98110 0.57730 0.07700
C 	C 	0.12400 0.08900 0.40750 0.36800
C 	C 	0.35500 0.12250 0.64430 0.33000
C 	C 	0.41580 0.07520 0.39610 0.03500
C 	C 	0.42960 0.09790 0.33740 -0.10400
H 	H 	0.43310 0.03850 0.30980 0.06500
C 	C 	0.43800 0.20860 0.31980 0.04100
H 	H 	0.44880 0.22310 0.28130 0.02900
C 	C 	0.43070 0.29770 0.35940 -0.13100
C 	C 	0.41730 0.27440 0.41850 0.04300
H 	H 	0.41350 0.33380 0.44590 0.02300
C 	C 	0.40980 0.16420 0.43650 -0.10600
H 	H 	0.40070 0.14960 0.47590 0.08000
C 	C 	0.44080 0.41760 0.34110 0.39700
C 	C 	0.35640 0.70680 0.48450 -0.88300
H 	H 	0.30040 0.70900 0.46340 0.28400
H 	H 	0.37590 0.72280 0.53380 0.29200
H 	H 	0.37360 0.63280 0.47810 0.27700
Zn	Zn	0.52910 0.64940 0.12210 1.21300
O 	O 	0.40140 0.54860 0.15250 -0.46200
O 	O 	0.41410 0.65100 0.06860 -0.47400
O 	O 	0.07490 0.59200 0.81990 -0.52300
O 	O 	0.18120 0.69120 0.83670 -0.31400
O 	O 	0.05290 0.93290 0.21480 -0.49700
O 	O 	0.05710 0.99320 0.11510 -0.54000
O 	O 	0.55070 0.69090 0.21850 -0.80000
H 	H 	0.60580 0.69900 0.24600 0.21100
N 	N 	0.12530 0.40690 0.04920 -0.19100
N 	N 	0.05510 0.37470 0.10820 -0.15800
N 	N 	0.07120 0.27300 0.08440 -0.30800
C 	C 	0.08820 0.45470 0.08700 0.07600
C 	C 	0.11340 0.29300 0.04940 0.29300
C 	C 	0.17360 0.46690 0.02170 0.09900
C 	C 	0.24890 0.49380 0.06720 -0.09400
H 	H 	0.27020 0.46790 0.11340 0.08100
C 	C 	0.29290 0.56070 0.04280 -0.04800
C 	C 	0.25990 0.60050 0.97390 -0.02800
H 	H 	0.28890 0.64680 0.95800 0.06200
C 	C 	0.18360 0.57120 0.92860 -0.05500
C 	C 	0.14020 0.50260 0.95270 -0.10400
H 	H 	0.08950 0.48110 0.92270 0.04800
C 	C 	0.37600 0.58900 0.09250 0.36000
C 	C 	0.14500 0.62250 0.85570 0.33600
C 	C 	0.08420 0.57520 0.10390 0.02700
C 	C 	0.07040 0.59790 0.16260 -0.13000
H 	H 	0.06690 0.53850 0.19020 0.05000
C 	C 	0.06200 0.70860 0.18020 0.04100
H 	H 	0.05120 0.72310 0.21870 -0.00200
C 	C 	0.06930 0.79770 0.14060 -0.16000
C 	C 	0.08270 0.77440 0.08150 0.04100
H 	H 	0.08650 0.83380 0.05410 0.00900
C 	C 	0.09020 0.66420 0.06350 -0.12800
H 	H 	0.09930 0.64960 0.02410 0.07300
C 	C 	0.05920 0.91760 0.15890 0.39500
C 	C 	0.14360 0.20680 0.01550 -0.80400
H 	H 	0.19960 0.20900 0.03660 0.26300
H 	H 	0.12410 0.22280 0.96620 0.24300
H 	H 	0.12640 0.13280 0.02190 0.23900
Zn	Zn	0.02910 0.14940 0.12210 1.18700
O 	O 	0.90140 0.04860 0.15250 -0.41400
O 	O 	0.91410 0.15100 0.06860 -0.42100
O 	O 	0.57490 0.09200 0.81990 -0.47700
O 	O 	0.68120 0.19120 0.83670 -0.30700
O 	O 	0.55290 0.43290 0.21480 -0.46100
O 	O 	0.55710 0.49320 0.11510 -0.50700
O 	O 	0.05070 0.19090 0.21850 -0.84400
H 	H 	0.10580 0.19900 0.24600 0.21900
N 	N 	0.62530 0.90690 0.04920 -0.19300
N 	N 	0.55510 0.87470 0.10820 -0.13300
N 	N 	0.57120 0.77300 0.08440 -0.29200
C 	C 	0.58820 0.95470 0.08700 0.10100
C 	C 	0.61340 0.79300 0.04940 0.32600
C 	C 	0.67360 0.96690 0.02170 0.11500
C 	C 	0.74890 0.99380 0.06720 -0.10200
H 	H 	0.77020 0.96790 0.11340 0.08500
C 	C 	0.79290 0.06070 0.04280 -0.04100
C 	C 	0.75990 0.10050 0.97390 -0.03600
H 	H 	0.78890 0.14680 0.95800 0.06600
C 	C 	0.68360 0.07120 0.92860 -0.03900
C 	C 	0.64020 0.00260 0.95270 -0.11300
H 	H 	0.58950 0.98110 0.92270 0.08000
C 	C 	0.87600 0.08900 0.09250 0.35100
C 	C 	0.64500 0.12250 0.85570 0.32600
C 	C 	0.58420 0.07520 0.10390 0.03000
C 	C 	0.57040 0.09790 0.16260 -0.10100
H 	H 	0.56690 0.03850 0.19020 0.06300
C 	C 	0.56200 0.20860 0.18020 0.03800
H 	H 	0.55120 0.22310 0.21870 0.03000
C 	C 	0.56930 0.29770 0.14060 -0.12900
C 	C 	0.58270 0.27440 0.08150 0.04100
H 	H 	0.58650 0.33380 0.05410 0.02500
C 	C 	0.59020 0.16420 0.06350 -0.10200
H 	H 	0.59930 0.14960 0.02410 0.08000
C 	C 	0.55920 0.41760 0.15890 0.39600
C 	C 	0.64360 0.70680 0.01550 -0.84500
H 	H 	0.69960 0.70900 0.03660 0.27700
H 	H 	0.62410 0.72280 0.96620 0.27300
H 	H 	0.62640 0.63280 0.02190 0.26800
Zn	Zn	0.52910 0.35060 0.62210 1.21200
O 	O 	0.40140 0.45140 0.65250 -0.46400
O 	O 	0.41410 0.34900 0.56860 -0.47900
O 	O 	0.07490 0.40800 0.31990 -0.52400
O 	O 	0.18120 0.30880 0.33670 -0.31400
O 	O 	0.05290 0.06710 0.71480 -0.49600
O 	O 	0.05710 0.00680 0.61510 -0.54200
O 	O 	0.55070 0.30910 0.71850 -0.80000
H 	H 	0.60580 0.30100 0.74600 0.21100
N 	N 	0.12530 0.59310 0.54920 -0.19000
N 	N 	0.05510 0.62530 0.60820 -0.15900
N 	N 	0.07120 0.72700 0.58440 -0.31000
C 	C 	0.08820 0.54530 0.58700 0.07400
C 	C 	0.11340 0.70700 0.54940 0.29600
C 	C 	0.17360 0.53310 0.52170 0.08100
C 	C 	0.24890 0.50620 0.56720 -0.07900
H 	H 	0.27020 0.53210 0.61340 0.07600
C 	C 	0.29290 0.43930 0.54280 -0.06800
C 	C 	0.25990 0.39950 0.47390 -0.00500
H 	H 	0.28890 0.35320 0.45800 0.05600
C 	C 	0.18360 0.42880 0.42860 -0.06800
C 	C 	0.14020 0.49740 0.45270 -0.08200
H 	H 	0.08950 0.51890 0.42270 0.04100
C 	C 	0.37600 0.41100 0.59250 0.36600
C 	C 	0.14500 0.37750 0.35570 0.34100
C 	C 	0.08420 0.42480 0.60390 0.02600
C 	C 	0.07040 0.40210 0.66260 -0.13000
H 	H 	0.06690 0.46150 0.69020 0.05000
C 	C 	0.06200 0.29140 0.68020 0.04100
H 	H 	0.05120 0.27690 0.71870 -0.00200
C 	C 	0.06930 0.20230 0.64060 -0.16000
C 	C 	0.08270 0.22560 0.58150 0.04000
H 	H 	0.08650 0.16620 0.55410 0.00600
C 	C 	0.09020 0.33580 0.56350 -0.12900
H 	H 	0.09930 0.35040 0.52410 0.07000
C 	C 	0.05920 0.08240 0.65890 0.39500
C 	C 	0.14360 0.79320 0.51550 -0.82600
H 	H 	0.19960 0.79100 0.53660 0.26800
H 	H 	0.12410 0.77720 0.46620 0.25200
H 	H 	0.12640 0.86720 0.52190 0.24400
Zn	Zn	0.02910 0.85060 0.62210 1.18700
O 	O 	0.90140 0.95140 0.65250 -0.41500
O 	O 	0.91410 0.84900 0.56860 -0.42300
O 	O 	0.57490 0.90800 0.31990 -0.47800
O 	O 	0.68120 0.80880 0.33670 -0.30800
O 	O 	0.55290 0.56710 0.71480 -0.46100
O 	O 	0.55710 0.50680 0.61510 -0.50800
O 	O 	0.05070 0.80910 0.71850 -0.84400
H 	H 	0.10580 0.80100 0.74600 0.21900
N 	N 	0.62530 0.09310 0.54920 -0.19500
N 	N 	0.55510 0.12530 0.60820 -0.13300
N 	N 	0.57120 0.22700 0.58440 -0.29500
C 	C 	0.58820 0.04530 0.58700 0.09800
C 	C 	0.61340 0.20700 0.54940 0.33500
C 	C 	0.67360 0.03310 0.52170 0.10400
C 	C 	0.74890 0.00620 0.56720 -0.09800
H 	H 	0.77020 0.03210 0.61340 0.08300
C 	C 	0.79290 0.93930 0.54280 -0.05000
C 	C 	0.75990 0.89950 0.47390 -0.02300
H 	H 	0.78890 0.85320 0.45800 0.06300
C 	C 	0.68360 0.92880 0.42860 -0.04400
C 	C 	0.64020 0.99740 0.45270 -0.10600
H 	H 	0.58950 0.01890 0.42270 0.08200
C 	C 	0.87600 0.91100 0.59250 0.35400
C 	C 	0.64500 0.87750 0.35570 0.32800
C 	C 	0.58420 0.92480 0.60390 0.03200
C 	C 	0.57040 0.90210 0.66260 -0.10300
H 	H 	0.56690 0.96150 0.69020 0.06300
C 	C 	0.56200 0.79140 0.68020 0.04000
H 	H 	0.55120 0.77690 0.71870 0.02900
C 	C 	0.56930 0.70230 0.64060 -0.13000
C 	C 	0.58270 0.72560 0.58150 0.04200
H 	H 	0.58650 0.66620 0.55410 0.02300
C 	C 	0.59020 0.83580 0.56350 -0.10400
H 	H 	0.59930 0.85040 0.52410 0.07900
C 	C 	0.55920 0.58240 0.65890 0.39700
C 	C 	0.64360 0.29320 0.51550 -0.89000
H 	H 	0.69960 0.29100 0.53660 0.28900
H 	H 	0.62410 0.27720 0.46620 0.29300
H 	H 	0.62640 0.36720 0.52190 0.28000
Zn	Zn	0.47090 0.35060 0.87790 1.21200
O 	O 	0.59860 0.45140 0.84750 -0.46400
O 	O 	0.58590 0.34900 0.93140 -0.48100
O 	O 	0.92510 0.40800 0.18010 -0.41400
O 	O 	0.81880 0.30880 0.16330 -0.29600
O 	O 	0.94710 0.06710 0.78520 -0.40800
O 	O 	0.94290 0.00680 0.88490 -0.47100
O 	O 	0.44930 0.30910 0.78150 -0.80000
H 	H 	0.39420 0.30100 0.75400 0.21100
N 	N 	0.87470 0.59310 0.95080 -0.19800
N 	N 	0.94490 0.62530 0.89180 -0.10700
N 	N 	0.92880 0.72700 0.91560 -0.28300
C 	C 	0.91180 0.54530 0.91300 0.11600
C 	C 	0.88660 0.70700 0.95060 0.37900
C 	C 	0.82640 0.53310 0.97830 0.10100
C 	C 	0.75110 0.50620 0.93280 -0.09300
H 	H 	0.72980 0.53210 0.88660 0.07800
C 	C 	0.70710 0.43930 0.95720 -0.06700
C 	C 	0.74010 0.39950 0.02610 -0.01100
H 	H 	0.71110 0.35320 0.04200 0.06000
C 	C 	0.81640 0.42880 0.07140 -0.03600
C 	C 	0.85980 0.49740 0.04730 -0.09900
H 	H 	0.91050 0.51890 0.07730 0.11400
C 	C 	0.62400 0.41100 0.90750 0.36500
C 	C 	0.85500 0.37750 0.14430 0.31900
C 	C 	0.91580 0.42480 0.89610 0.04400
C 	C 	0.92960 0.40210 0.83740 -0.07900
H 	H 	0.93310 0.46150 0.80980 0.08200
C 	C 	0.93800 0.29140 0.81980 0.04100
H 	H 	0.94880 0.27690 0.78130 0.06200
C 	C 	0.93070 0.20230 0.85940 -0.10000
C 	C 	0.91730 0.22560 0.91850 0.04500
H 	H 	0.91350 0.16620 0.94590 0.03800
C 	C 	0.90980 0.33580 0.93650 -0.08200
H 	H 	0.90070 0.35040 0.97590 0.08700
C 	C 	0.94080 0.08240 0.84110 0.39500
C 	C 	0.85640 0.79320 0.98450 -0.99500
H 	H 	0.80040 0.79100 0.96340 0.31700
H 	H 	0.87590 0.77720 0.03380 0.35400
H 	H 	0.87360 0.86720 0.97810 0.32300
Zn	Zn	0.97090 0.85060 0.87790 1.23800
O 	O 	0.09860 0.95140 0.84750 -0.50200
O 	O 	0.08590 0.84900 0.93140 -0.53400
O 	O 	0.42510 0.90800 0.18010 -0.47900
O 	O 	0.31880 0.80880 0.16330 -0.30800
O 	O 	0.44710 0.56710 0.78520 -0.46000
O 	O 	0.44290 0.50680 0.88490 -0.50900
O 	O 	0.94930 0.80910 0.78150 -0.72700
H 	H 	0.89420 0.80100 0.75400 0.20000
N 	N 	0.37470 0.09310 0.95080 -0.19200
N 	N 	0.44490 0.12530 0.89180 -0.13400
N 	N 	0.42880 0.22700 0.91560 -0.29600
C 	C 	0.41180 0.04530 0.91300 0.10000
C 	C 	0.38660 0.20700 0.95060 0.33700
C 	C 	0.32640 0.03310 0.97830 0.07500
C 	C 	0.25110 0.00620 0.93280 -0.06300
H 	H 	0.22980 0.03210 0.88660 0.06800
C 	C 	0.20710 0.93930 0.95720 -0.09700
C 	C 	0.24010 0.89950 0.02610 0.01800
H 	H 	0.21110 0.85320 0.04200 0.05100
C 	C 	0.31640 0.92880 0.07140 -0.06800
C 	C 	0.35980 0.99740 0.04730 -0.06800
H 	H 	0.41050 0.01890 0.07730 0.06800
C 	C 	0.12400 0.91100 0.90750 0.37700
C 	C 	0.35500 0.87750 0.14430 0.33700
C 	C 	0.41580 0.92480 0.89610 0.02800
C 	C 	0.42960 0.90210 0.83740 -0.10100
H 	H 	0.43310 0.96150 0.80980 0.06200
C 	C 	0.43800 0.79140 0.81980 0.03800
H 	H 	0.44880 0.77690 0.78130 0.03000
C 	C 	0.43070 0.70230 0.85940 -0.12900
C 	C 	0.41730 0.72560 0.91850 0.03900
H 	H 	0.41350 0.66620 0.94590 0.02200
C 	C 	0.40980 0.83580 0.93650 -0.10200
H 	H 	0.40070 0.85040 0.97590 0.07500
C 	C 	0.44080 0.58240 0.84110 0.39600
C 	C 	0.35640 0.29320 0.98450 -0.91000
H 	H 	0.30040 0.29100 0.96340 0.29100
H 	H 	0.37590 0.27720 0.03380 0.30300
H 	H 	0.37360 0.36720 0.97810 0.28300
Zn	Zn	0.50000 0.55270 0.25000 1.23000
Zn	Zn	0.50000 0.81350 0.25000 1.22500
Zn	Zn	0.00000 0.05270 0.25000 1.18700
Zn	Zn	0.00000 0.31350 0.25000 1.18300
Zn	Zn	0.50000 0.44730 0.75000 1.23000
Zn	Zn	0.50000 0.18650 0.75000 1.22500
Zn	Zn	0.00000 0.94730 0.75000 1.18700
Zn	Zn	0.00000 0.68650 0.75000 1.18200
