data_crystal

_cell_length_a 14.93200
_cell_length_b 17.07200
_cell_length_c 21.28200
_cell_angle_alpha 90.00000
_cell_angle_beta  90.00000
_cell_angle_gamma 90.00000

_symmetry_space_group_name_	'P 1'
_symmetry_space_group_name_H-M	'P 1'

loop_
_symmetry_equiv_pos_as_xyz
  x,y,z

loop_
_atom_site_label
_atom_site_type_symbol
_atom_site_fract_x
_atom_site_fract_y
_atom_site_fract_z
_atom_site_charge
Co	Co	0.59889 0.46863 0.48766 1.13400
Co	Co	0.44266 0.38951 0.39150 1.17200
O 	O 	0.88202 0.57294 0.08150 -0.41700
O 	O 	0.83671 0.46204 0.12860 -0.43100
O 	O 	0.59924 0.81688 0.18809 -0.36300
O 	O 	0.64868 0.79047 0.09308 -0.36200
O 	O 	0.85256 0.86044 0.45922 -0.44800
O 	O 	0.95936 0.80540 0.39986 -0.43200
O 	O 	0.46295 0.43070 0.48043 -0.74200
H 	H 	0.44910 0.39090 0.50660 0.21400
N 	N 	0.61822 0.54729 0.29534 -0.19600
N 	N 	0.59280 0.51029 0.39169 -0.21600
N 	N 	0.53525 0.46972 0.35228 -0.26000
C 	C 	0.64127 0.55732 0.35688 0.09700
C 	C 	0.55091 0.49285 0.29472 0.34000
C 	C 	0.65857 0.58450 0.24141 0.10800
C 	C 	0.72297 0.54362 0.20780 -0.10600
H 	H 	0.73970 0.49340 0.22000 0.07600
C 	C 	0.76236 0.57862 0.15545 -0.04200
C 	C 	0.73464 0.65279 0.13685 -0.03400
H 	H 	0.75930 0.67560 0.10110 0.06400
C 	C 	0.67023 0.69324 0.17133 -0.02500
C 	C 	0.63230 0.65949 0.22481 -0.10500
H 	H 	0.59040 0.68670 0.24870 0.08400
C 	C 	0.83306 0.53498 0.11889 0.31500
C 	C 	0.63829 0.77207 0.14980 0.28800
C 	C 	0.70660 0.61747 0.37795 -0.01200
C 	C 	0.67526 0.67988 0.41309 -0.08500
H 	H 	0.61540 0.68190 0.42510 0.04300
C 	C 	0.73348 0.73949 0.43043 0.01700
H 	H 	0.71270 0.78070 0.45500 0.03700
C 	C 	0.82260 0.73825 0.41149 -0.10400
C 	C 	0.85423 0.67463 0.37693 0.01300
H 	H 	0.91410 0.67260 0.36490 0.03700
C 	C 	0.79658 0.61434 0.36045 -0.07700
H 	H 	0.81790 0.57180 0.33770 0.04800
C 	C 	0.88338 0.80698 0.42529 0.38000
C 	C 	0.50215 0.46782 0.23707 -0.90800
H 	H 	0.52610 0.49490 0.20130 0.30000
H 	H 	0.43970 0.48010 0.24140 0.29600
H 	H 	0.50920 0.41240 0.23140 0.30000
Co	Co	0.90111 0.53137 0.98766 1.13400
Co	Co	0.05734 0.61049 0.89150 1.17400
O 	O 	0.61798 0.42706 0.58150 -0.41700
O 	O 	0.66329 0.53796 0.62860 -0.43000
O 	O 	0.90076 0.18312 0.68809 -0.36400
O 	O 	0.85132 0.20953 0.59308 -0.36200
O 	O 	0.64744 0.13956 0.95922 -0.44900
O 	O 	0.54064 0.19460 0.89986 -0.43200
O 	O 	0.03705 0.56930 0.98043 -0.73700
H 	H 	0.05090 0.60910 0.00660 0.20900
N 	N 	0.88178 0.45271 0.79534 -0.19600
N 	N 	0.90720 0.48971 0.89169 -0.21700
N 	N 	0.96475 0.53028 0.85228 -0.26100
C 	C 	0.85873 0.44268 0.85688 0.09600
C 	C 	0.94909 0.50715 0.79472 0.34200
C 	C 	0.84143 0.41550 0.74141 0.10800
C 	C 	0.77703 0.45638 0.70780 -0.10500
H 	H 	0.76030 0.50660 0.72000 0.07600
C 	C 	0.73764 0.42138 0.65545 -0.04300
C 	C 	0.76536 0.34721 0.63685 -0.03300
H 	H 	0.74070 0.32440 0.60110 0.06400
C 	C 	0.82977 0.30676 0.67133 -0.02600
C 	C 	0.86770 0.34051 0.72481 -0.10500
H 	H 	0.90960 0.31330 0.74870 0.08300
C 	C 	0.66694 0.46502 0.61889 0.31500
C 	C 	0.86171 0.22793 0.64980 0.28800
C 	C 	0.79340 0.38253 0.87795 -0.01200
C 	C 	0.82474 0.32012 0.91309 -0.08600
H 	H 	0.88460 0.31810 0.92510 0.04200
C 	C 	0.76652 0.26051 0.93043 0.01800
H 	H 	0.78730 0.21930 0.95500 0.03600
C 	C 	0.67740 0.26175 0.91149 -0.10400
C 	C 	0.64577 0.32537 0.87693 0.01400
H 	H 	0.58590 0.32740 0.86490 0.03700
C 	C 	0.70342 0.38566 0.86045 -0.07700
H 	H 	0.68210 0.42820 0.83770 0.04800
C 	C 	0.61662 0.19302 0.92529 0.38000
C 	C 	0.99785 0.53218 0.73707 -0.91500
H 	H 	0.97390 0.50510 0.70130 0.30200
H 	H 	0.06030 0.51990 0.74140 0.29900
H 	H 	0.99080 0.58760 0.73140 0.30100
Co	Co	0.40111 0.96863 0.01234 1.13400
Co	Co	0.55734 0.88951 0.10850 1.17300
O 	O 	0.11798 0.07294 0.41850 -0.41700
O 	O 	0.16329 0.96204 0.37140 -0.43100
O 	O 	0.40076 0.31688 0.31191 -0.36400
O 	O 	0.35132 0.29047 0.40692 -0.36200
O 	O 	0.14744 0.36044 0.04078 -0.44900
O 	O 	0.04064 0.30540 0.10014 -0.43400
O 	O 	0.53705 0.93070 0.01957 -0.74400
H 	H 	0.55090 0.89090 0.99340 0.21600
N 	N 	0.38178 0.04729 0.20466 -0.19500
N 	N 	0.40720 0.01029 0.10831 -0.21500
N 	N 	0.46475 0.96972 0.14772 -0.26000
C 	C 	0.35873 0.05732 0.14312 0.09700
C 	C 	0.44909 0.99285 0.20528 0.33900
C 	C 	0.34143 0.08450 0.25859 0.10700
C 	C 	0.27703 0.04362 0.29220 -0.10200
H 	H 	0.26030 0.99340 0.28000 0.07400
C 	C 	0.23764 0.07862 0.34455 -0.04500
C 	C 	0.26536 0.15279 0.36315 -0.03200
H 	H 	0.24070 0.17560 0.39890 0.06400
C 	C 	0.32977 0.19324 0.32867 -0.02700
C 	C 	0.36770 0.15949 0.27519 -0.10400
H 	H 	0.40960 0.18670 0.25130 0.08300
C 	C 	0.16694 0.03498 0.38111 0.31700
C 	C 	0.36171 0.27207 0.35020 0.28900
C 	C 	0.29340 0.11747 0.12205 -0.01100
C 	C 	0.32474 0.17988 0.08691 -0.08600
H 	H 	0.38460 0.18190 0.07490 0.04300
C 	C 	0.26652 0.23949 0.06957 0.01800
H 	H 	0.28730 0.28070 0.04500 0.03700
C 	C 	0.17740 0.23825 0.08851 -0.10400
C 	C 	0.14577 0.17463 0.12307 0.01400
H 	H 	0.08590 0.17260 0.13510 0.03600
C 	C 	0.20342 0.11434 0.13955 -0.07700
H 	H 	0.18210 0.07180 0.16230 0.04800
C 	C 	0.11662 0.30698 0.07471 0.38100
C 	C 	0.49785 0.96782 0.26293 -0.90600
H 	H 	0.47390 0.99490 0.29870 0.29900
H 	H 	0.56030 0.98010 0.25860 0.29600
H 	H 	0.49080 0.91240 0.26860 0.29900
Co	Co	0.09889 0.03137 0.51234 1.13500
Co	Co	0.94266 0.11049 0.60850 1.17300
O 	O 	0.38202 0.92706 0.91850 -0.41600
O 	O 	0.33671 0.03796 0.87140 -0.43100
O 	O 	0.09924 0.68312 0.81191 -0.36300
O 	O 	0.14868 0.70953 0.90692 -0.36000
O 	O 	0.35256 0.63956 0.54078 -0.44800
O 	O 	0.45936 0.69460 0.60014 -0.43200
O 	O 	0.96295 0.06930 0.51957 -0.74300
H 	H 	0.94910 0.10910 0.49340 0.21400
N 	N 	0.11822 0.95271 0.70466 -0.19500
N 	N 	0.09280 0.98971 0.60831 -0.21600
N 	N 	0.03525 0.03028 0.64772 -0.25900
C 	C 	0.14127 0.94268 0.64312 0.09700
C 	C 	0.05091 0.00715 0.70528 0.33800
C 	C 	0.15857 0.91550 0.75859 0.10700
C 	C 	0.22297 0.95638 0.79220 -0.10200
H 	H 	0.23970 0.00660 0.78000 0.07400
C 	C 	0.26236 0.92138 0.84455 -0.04400
C 	C 	0.23464 0.84721 0.86315 -0.03300
H 	H 	0.25930 0.82440 0.89890 0.06400
C 	C 	0.17023 0.80676 0.82867 -0.02600
C 	C 	0.13230 0.84051 0.77519 -0.10400
H 	H 	0.09040 0.81330 0.75130 0.08400
C 	C 	0.33306 0.96502 0.88111 0.31700
C 	C 	0.13829 0.72793 0.85020 0.28800
C 	C 	0.20660 0.88253 0.62205 -0.01200
C 	C 	0.17526 0.82012 0.58691 -0.08500
H 	H 	0.11540 0.81810 0.57490 0.04300
C 	C 	0.23348 0.76051 0.56957 0.01800
H 	H 	0.21270 0.71930 0.54500 0.03700
C 	C 	0.32260 0.76175 0.58851 -0.10400
C 	C 	0.35423 0.82537 0.62307 0.01400
H 	H 	0.41410 0.82740 0.63510 0.03700
C 	C 	0.29658 0.88566 0.63955 -0.07700
H 	H 	0.31790 0.92820 0.66230 0.04800
C 	C 	0.38338 0.69302 0.57471 0.38000
C 	C 	0.00215 0.03218 0.76293 -0.89700
H 	H 	0.02610 0.00510 0.79870 0.29700
H 	H 	0.93970 0.01990 0.75860 0.29100
H 	H 	0.00920 0.08760 0.76860 0.29700
Co	Co	0.40111 0.53137 0.51234 1.13500
Co	Co	0.55734 0.61049 0.60850 1.17300
O 	O 	0.11798 0.42706 0.91850 -0.41600
O 	O 	0.16329 0.53796 0.87140 -0.43000
O 	O 	0.40076 0.18312 0.81191 -0.36300
O 	O 	0.35132 0.20953 0.90692 -0.36200
O 	O 	0.14744 0.13956 0.54078 -0.44800
O 	O 	0.04064 0.19460 0.60014 -0.43200
O 	O 	0.53705 0.56930 0.51957 -0.74200
H 	H 	0.55090 0.60910 0.49340 0.21400
N 	N 	0.38178 0.45271 0.70466 -0.19600
N 	N 	0.40720 0.48971 0.60831 -0.21600
N 	N 	0.46475 0.53028 0.64772 -0.26000
C 	C 	0.35873 0.44268 0.64312 0.09700
C 	C 	0.44909 0.50715 0.70528 0.34000
C 	C 	0.34143 0.41550 0.75859 0.10800
C 	C 	0.27703 0.45638 0.79220 -0.10600
H 	H 	0.26030 0.50660 0.78000 0.07600
C 	C 	0.23764 0.42138 0.84455 -0.04200
C 	C 	0.26536 0.34721 0.86315 -0.03400
H 	H 	0.24070 0.32440 0.89890 0.06400
C 	C 	0.32977 0.30676 0.82867 -0.02500
C 	C 	0.36770 0.34051 0.77519 -0.10500
H 	H 	0.40960 0.31330 0.75130 0.08400
C 	C 	0.16694 0.46502 0.88111 0.31500
C 	C 	0.36171 0.22793 0.85020 0.28800
C 	C 	0.29340 0.38253 0.62205 -0.01200
C 	C 	0.32474 0.32012 0.58691 -0.08500
H 	H 	0.38460 0.31810 0.57490 0.04300
C 	C 	0.26652 0.26051 0.56957 0.01700
H 	H 	0.28730 0.21930 0.54500 0.03700
C 	C 	0.17740 0.26175 0.58851 -0.10400
C 	C 	0.14577 0.32537 0.62307 0.01300
H 	H 	0.08590 0.32740 0.63510 0.03700
C 	C 	0.20342 0.38566 0.63955 -0.07700
H 	H 	0.18210 0.42820 0.66230 0.04800
C 	C 	0.11662 0.19302 0.57471 0.38000
C 	C 	0.49785 0.53218 0.76293 -0.90800
H 	H 	0.47390 0.50510 0.79870 0.30000
H 	H 	0.56030 0.51990 0.75860 0.29600
H 	H 	0.49080 0.58760 0.76860 0.30000
Co	Co	0.09889 0.46863 0.01234 1.13400
Co	Co	0.94266 0.38951 0.10850 1.17400
O 	O 	0.38202 0.57294 0.41850 -0.41700
O 	O 	0.33671 0.46204 0.37140 -0.43000
O 	O 	0.09924 0.81688 0.31191 -0.36400
O 	O 	0.14868 0.79047 0.40692 -0.36200
O 	O 	0.35256 0.86044 0.04078 -0.44900
O 	O 	0.45936 0.80540 0.10014 -0.43200
O 	O 	0.96295 0.43070 0.01957 -0.73700
H 	H 	0.94910 0.39090 0.99340 0.20900
N 	N 	0.11822 0.54729 0.20466 -0.19600
N 	N 	0.09280 0.51029 0.10831 -0.21700
N 	N 	0.03525 0.46972 0.14772 -0.26100
C 	C 	0.14127 0.55732 0.14312 0.09600
C 	C 	0.05091 0.49285 0.20528 0.34200
C 	C 	0.15857 0.58450 0.25859 0.10800
C 	C 	0.22297 0.54362 0.29220 -0.10500
H 	H 	0.23970 0.49340 0.28000 0.07600
C 	C 	0.26236 0.57862 0.34455 -0.04300
C 	C 	0.23464 0.65279 0.36315 -0.03300
H 	H 	0.25930 0.67560 0.39890 0.06400
C 	C 	0.17023 0.69324 0.32867 -0.02600
C 	C 	0.13230 0.65949 0.27519 -0.10500
H 	H 	0.09040 0.68670 0.25130 0.08300
C 	C 	0.33306 0.53498 0.38111 0.31500
C 	C 	0.13829 0.77207 0.35020 0.28800
C 	C 	0.20660 0.61747 0.12205 -0.01200
C 	C 	0.17526 0.67988 0.08691 -0.08600
H 	H 	0.11540 0.68190 0.07490 0.04200
C 	C 	0.23348 0.73949 0.06957 0.01800
H 	H 	0.21270 0.78070 0.04500 0.03600
C 	C 	0.32260 0.73825 0.08851 -0.10400
C 	C 	0.35423 0.67463 0.12307 0.01400
H 	H 	0.41410 0.67260 0.13510 0.03700
C 	C 	0.29658 0.61434 0.13955 -0.07700
H 	H 	0.31790 0.57180 0.16230 0.04800
C 	C 	0.38338 0.80698 0.07471 0.38000
C 	C 	0.00215 0.46782 0.26293 -0.91500
H 	H 	0.02610 0.49490 0.29870 0.30200
H 	H 	0.93970 0.48010 0.25860 0.29900
H 	H 	0.00920 0.41240 0.26860 0.30100
Co	Co	0.59889 0.03137 0.98766 1.13400
Co	Co	0.44266 0.11049 0.89150 1.17300
O 	O 	0.88202 0.92706 0.58150 -0.41700
O 	O 	0.83671 0.03796 0.62860 -0.43100
O 	O 	0.59924 0.68312 0.68809 -0.36400
O 	O 	0.64868 0.70953 0.59308 -0.36200
O 	O 	0.85256 0.63956 0.95922 -0.44900
O 	O 	0.95936 0.69460 0.89986 -0.43400
O 	O 	0.46295 0.06930 0.98043 -0.74400
H 	H 	0.44910 0.10910 0.00660 0.21600
N 	N 	0.61822 0.95271 0.79534 -0.19500
N 	N 	0.59280 0.98971 0.89169 -0.21500
N 	N 	0.53525 0.03028 0.85228 -0.26000
C 	C 	0.64127 0.94268 0.85688 0.09700
C 	C 	0.55091 0.00715 0.79472 0.33900
C 	C 	0.65857 0.91550 0.74141 0.10700
C 	C 	0.72297 0.95638 0.70780 -0.10200
H 	H 	0.73970 0.00660 0.72000 0.07400
C 	C 	0.76236 0.92138 0.65545 -0.04500
C 	C 	0.73464 0.84721 0.63685 -0.03200
H 	H 	0.75930 0.82440 0.60110 0.06400
C 	C 	0.67023 0.80676 0.67133 -0.02700
C 	C 	0.63230 0.84051 0.72481 -0.10400
H 	H 	0.59040 0.81330 0.74870 0.08300
C 	C 	0.83306 0.96502 0.61889 0.31700
C 	C 	0.63829 0.72793 0.64980 0.28900
C 	C 	0.70660 0.88253 0.87795 -0.01100
C 	C 	0.67526 0.82012 0.91309 -0.08600
H 	H 	0.61540 0.81810 0.92510 0.04300
C 	C 	0.73348 0.76051 0.93043 0.01800
H 	H 	0.71270 0.71930 0.95500 0.03700
C 	C 	0.82260 0.76175 0.91149 -0.10400
C 	C 	0.85423 0.82537 0.87693 0.01400
H 	H 	0.91410 0.82740 0.86490 0.03600
C 	C 	0.79658 0.88566 0.86045 -0.07700
H 	H 	0.81790 0.92820 0.83770 0.04800
C 	C 	0.88338 0.69302 0.92529 0.38100
C 	C 	0.50215 0.03218 0.73707 -0.90600
H 	H 	0.52610 0.00510 0.70130 0.29900
H 	H 	0.43970 0.01990 0.74140 0.29600
H 	H 	0.50920 0.08760 0.73140 0.29900
Co	Co	0.90111 0.96863 0.48766 1.13500
Co	Co	0.05734 0.88951 0.39150 1.17300
O 	O 	0.61798 0.07294 0.08150 -0.41600
O 	O 	0.66329 0.96204 0.12860 -0.43100
O 	O 	0.90076 0.31688 0.18809 -0.36300
O 	O 	0.85132 0.29047 0.09308 -0.36000
O 	O 	0.64744 0.36044 0.45922 -0.44800
O 	O 	0.54064 0.30540 0.39986 -0.43200
O 	O 	0.03705 0.93070 0.48043 -0.74300
H 	H 	0.05090 0.89090 0.50660 0.21400
N 	N 	0.88178 0.04729 0.29534 -0.19500
N 	N 	0.90720 0.01029 0.39169 -0.21600
N 	N 	0.96475 0.96972 0.35228 -0.25900
C 	C 	0.85873 0.05732 0.35688 0.09700
C 	C 	0.94909 0.99285 0.29472 0.33800
C 	C 	0.84143 0.08450 0.24141 0.10700
C 	C 	0.77703 0.04362 0.20780 -0.10200
H 	H 	0.76030 0.99340 0.22000 0.07400
C 	C 	0.73764 0.07862 0.15545 -0.04400
C 	C 	0.76536 0.15279 0.13685 -0.03300
H 	H 	0.74070 0.17560 0.10110 0.06400
C 	C 	0.82977 0.19324 0.17133 -0.02600
C 	C 	0.86770 0.15949 0.22481 -0.10400
H 	H 	0.90960 0.18670 0.24870 0.08400
C 	C 	0.66694 0.03498 0.11889 0.31700
C 	C 	0.86171 0.27207 0.14980 0.28800
C 	C 	0.79340 0.11747 0.37795 -0.01200
C 	C 	0.82474 0.17988 0.41309 -0.08500
H 	H 	0.88460 0.18190 0.42510 0.04300
C 	C 	0.76652 0.23949 0.43043 0.01800
H 	H 	0.78730 0.28070 0.45500 0.03700
C 	C 	0.67740 0.23825 0.41149 -0.10400
C 	C 	0.64577 0.17463 0.37693 0.01400
H 	H 	0.58590 0.17260 0.36490 0.03700
C 	C 	0.70342 0.11434 0.36045 -0.07700
H 	H 	0.68210 0.07180 0.33770 0.04800
C 	C 	0.61662 0.30698 0.42529 0.38000
C 	C 	0.99785 0.96782 0.23707 -0.89700
H 	H 	0.97390 0.99490 0.20130 0.29700
H 	H 	0.06030 0.98010 0.24140 0.29100
H 	H 	0.99080 0.91240 0.23140 0.29700
