data_crystal

_cell_length_a 10.22450
_cell_length_b 10.22450
_cell_length_c 14.36900
_cell_angle_alpha 90.00000
_cell_angle_beta  90.00000
_cell_angle_gamma 90.00000

_symmetry_space_group_name_	'P 1'
_symmetry_space_group_name_H-M	'P 1'

loop_
_symmetry_equiv_pos_as_xyz
  x,y,z

loop_
_atom_site_label
_atom_site_type_symbol
_atom_site_fract_x
_atom_site_fract_y
_atom_site_fract_z
_atom_site_charge
Lu	Lu	0.85181 0.14819 0.87500 1.28000
Lu	Lu	0.14819 0.85181 0.37500 1.28200
Lu	Lu	0.85181 0.85181 0.62500 1.29300
Lu	Lu	0.14819 0.14819 0.12500 1.24900
H 	H 	0.92100 0.55850 0.87100 0.00500
H 	H 	0.07900 0.44150 0.37100 0.02000
H 	H 	0.44150 0.92100 0.62100 0.01800
H 	H 	0.55850 0.07900 0.12100 0.01800
H 	H 	0.07900 0.55850 0.12900 0.01000
H 	H 	0.92100 0.44150 0.62900 0.01900
H 	H 	0.55850 0.92100 0.37900 0.01900
H 	H 	0.44150 0.07900 0.87900 0.02500
H 	H 	-0.00000 0.90000 -0.00000 -0.02100
H 	H 	-0.00000 0.10000 0.50000 0.00000
H 	H 	0.10000 -0.00000 0.75000 0.01000
H 	H 	0.90000 0.00000 0.25000 0.02000
C 	C 	0.95340 0.60410 0.92210 0.16400
C 	C 	0.95590 0.74070 0.92190 -0.18200
C 	C 	0.91140 0.81910 0.83870 0.43400
C 	C 	0.04660 0.39590 0.42210 0.09800
C 	C 	0.04410 0.25930 0.42190 -0.16800
C 	C 	0.08860 0.18090 0.33870 0.42200
C 	C 	0.39590 0.95340 0.67210 0.12400
C 	C 	0.25930 0.95590 0.67190 -0.13200
C 	C 	0.18090 0.91140 0.58870 0.41800
C 	C 	0.60410 0.04660 0.17210 0.09300
C 	C 	0.74070 0.04410 0.17190 -0.15500
C 	C 	0.81910 0.08860 0.08870 0.41500
C 	C 	0.04660 0.60410 0.07790 0.13000
C 	C 	0.04410 0.74070 0.07810 -0.20900
C 	C 	0.08860 0.81910 0.16130 0.43400
C 	C 	0.95340 0.39590 0.57790 0.11300
C 	C 	0.95590 0.25930 0.57810 -0.15400
C 	C 	0.91140 0.18090 0.66130 0.42300
C 	C 	0.60410 0.95340 0.32790 0.12200
C 	C 	0.74070 0.95590 0.32810 -0.12700
C 	C 	0.81910 0.91140 0.41130 0.41600
C 	C 	0.39590 0.04660 0.82790 0.09300
C 	C 	0.25930 0.04410 0.82810 -0.15600
C 	C 	0.18090 0.08860 0.91130 0.41600
C 	C 	-0.00000 0.38720 -0.00000 0.39300
C 	C 	0.00000 0.53680 -0.00000 -0.20900
C 	C 	1.00000 0.80910 -0.00000 0.16300
C 	C 	0.00000 0.61280 0.50000 0.40800
C 	C 	0.00000 0.46320 0.50000 -0.17000
C 	C 	-0.00000 0.19090 0.50000 0.08400
C 	C 	0.61280 -0.00000 0.75000 0.39000
C 	C 	0.46320 -0.00000 0.75000 -0.17800
C 	C 	0.19090 -0.00000 0.75000 0.05700
C 	C 	0.38720 0.00000 0.25000 0.38900
C 	C 	0.53680 0.00000 0.25000 -0.17900
C 	C 	0.80910 0.00000 0.25000 0.05600
O 	O 	0.92680 0.33350 0.94190 -0.36500
O 	O 	0.88610 0.93580 0.85020 -0.38700
O 	O 	0.90410 0.76010 0.76210 -0.39300
O 	O 	0.07320 0.66650 0.44190 -0.39800
O 	O 	0.11390 0.06420 0.35020 -0.43000
O 	O 	0.09590 0.23990 0.26210 -0.40000
O 	O 	0.66650 0.92680 0.69190 -0.36900
O 	O 	0.06420 0.88610 0.60020 -0.40700
O 	O 	0.23990 0.90410 0.51210 -0.39000
O 	O 	0.33350 0.07320 0.19190 -0.39700
O 	O 	0.93580 0.11390 0.10020 -0.40400
O 	O 	0.76010 0.09590 0.01210 -0.40800
O 	O 	0.07320 0.33350 0.05810 -0.39700
O 	O 	0.11390 0.93580 0.14980 -0.39900
O 	O 	0.09590 0.76010 0.23790 -0.39900
O 	O 	0.92680 0.66650 0.55810 -0.38500
O 	O 	0.88610 0.06420 0.64980 -0.42300
O 	O 	0.90410 0.23990 0.73790 -0.39500
O 	O 	0.33350 0.92680 0.30810 -0.36800
O 	O 	0.93580 0.88610 0.39980 -0.38900
O 	O 	0.76010 0.90410 0.48790 -0.38700
O 	O 	0.66650 0.07320 0.80810 -0.39300
O 	O 	0.06420 0.11390 0.89980 -0.41400
O 	O 	0.23990 0.09590 0.98790 -0.38600
