data_crystal

_cell_length_a 9.48900
_cell_length_b 12.76000
_cell_length_c 13.11700
_cell_angle_alpha 75.88000
_cell_angle_beta  72.93000
_cell_angle_gamma 69.65000

_symmetry_space_group_name_	'P 1'
_symmetry_space_group_name_H-M	'P 1'

loop_
_symmetry_equiv_pos_as_xyz
  x,y,z

loop_
_atom_site_label
_atom_site_type_symbol
_atom_site_fract_x
_atom_site_fract_y
_atom_site_fract_z
_atom_site_charge
Cu	Cu	0.74626 0.46285 0.05426 0.84300
N 	N 	0.34160 0.52410 0.77730 -0.23400
C 	C 	0.25410 0.56280 0.70570 0.07800
H 	H 	0.14910 0.59760 0.72960 -0.02200
C 	C 	0.31190 0.55390 0.59690 -0.14600
H 	H 	0.24580 0.58210 0.54980 0.07000
C 	C 	0.46550 0.50390 0.55890 0.05900
C 	C 	0.55540 0.46430 0.63170 -0.14900
H 	H 	0.66100 0.42990 0.60970 0.07100
C 	C 	0.48900 0.47540 0.73870 0.07900
H 	H 	0.55300 0.44630 0.78710 -0.02600
C 	C 	0.96450 0.05730 0.01480 0.04500
C 	C 	0.03590 0.10580 0.05940 -0.12900
H 	H 	0.86940 0.93530 0.92360 0.06400
C 	C 	0.96580 0.21660 0.07880 0.06200
H 	H 	0.98300 0.75220 0.89160 -0.01500
N 	N 	0.83000 0.28100 0.05790 -0.22400
C 	C 	0.23870 0.76660 0.98480 0.06100
H 	H 	0.33460 0.72440 0.99930 -0.01900
C 	C 	0.17540 0.87570 0.00880 -0.13000
H 	H 	0.22710 0.90390 0.04080 0.06400
C 	C 	0.55650 0.49690 0.00910 -0.19500
N 	N 	0.06120 0.50370 0.98760 -0.20600
Cu	Cu	0.25374 0.53715 0.94574 0.84200
N 	N 	0.65840 0.47590 0.22270 -0.23500
C 	C 	0.74590 0.43720 0.29430 0.07800
H 	H 	0.85090 0.40240 0.27040 -0.02200
C 	C 	0.68810 0.44610 0.40310 -0.14600
H 	H 	0.75420 0.41790 0.45020 0.07000
C 	C 	0.53450 0.49610 0.44110 0.05900
C 	C 	0.44460 0.53570 0.36830 -0.14900
H 	H 	0.33900 0.57010 0.39030 0.07100
C 	C 	0.51100 0.52460 0.26130 0.07900
H 	H 	0.44700 0.55370 0.21290 -0.02600
C 	C 	0.03550 0.94270 0.98520 0.04500
C 	C 	0.96410 0.89420 0.94060 -0.12900
H 	H 	0.13060 0.06470 0.07640 0.06400
C 	C 	0.03420 0.78340 0.92120 0.06200
H 	H 	0.01700 0.24780 0.10840 -0.01500
N 	N 	0.17000 0.71900 0.94210 -0.22400
C 	C 	0.76130 0.23340 0.01520 0.06100
H 	H 	0.66540 0.27560 0.00070 -0.01900
C 	C 	0.82460 0.12430 0.99120 -0.13000
H 	H 	0.77290 0.09610 0.95920 0.06400
C 	C 	0.44350 0.50310 0.99090 -0.19500
N 	N 	0.93880 0.49630 0.01240 -0.20600
