data_crystal

_cell_length_a 21.26300
_cell_length_b 21.28700
_cell_length_c 18.02870
_cell_angle_alpha 90.00000
_cell_angle_beta  96.21300
_cell_angle_gamma 90.00000

_symmetry_space_group_name_	'P 1'
_symmetry_space_group_name_H-M	'P 1'

loop_
_symmetry_equiv_pos_as_xyz
  x,y,z

loop_
_atom_site_label
_atom_site_type_symbol
_atom_site_fract_x
_atom_site_fract_y
_atom_site_fract_z
_atom_site_charge
Mo	Mo	0.71400 0.51890 0.99529 0.92100
Br	Br	0.88151 0.36440 0.06987 -0.41900
Cu	Cu	0.73744 0.54561 0.14095 0.80600
Cu	Cu	0.81756 0.58808 0.97231 0.80700
Cu	Cu	0.78497 0.41305 0.01249 0.81800
S 	S 	0.71550 0.44841 0.08981 -0.64300
S 	S 	0.74022 0.61510 0.04508 -0.64300
S 	S 	0.78994 0.49048 0.92419 -0.62000
N 	N 	0.81180 0.55340 0.21970 -0.24900
N 	N 	0.09260 0.58480 0.47120 -0.24900
N 	N 	0.65270 0.55900 0.19000 -0.23200
N 	N 	0.68110 0.14720 0.61970 -0.23500
N 	N 	0.74280 0.33900 0.93990 -0.22400
C 	C 	0.85930 0.51200 0.22400 0.07300
H 	H 	0.85540 0.47770 0.19200 -0.02500
C 	C 	0.91350 0.51670 0.27250 -0.13500
H 	H 	0.94470 0.48610 0.27250 0.07900
C 	C 	0.92170 0.56670 0.32130 0.05400
C 	C 	0.87240 0.61020 0.31910 -0.13600
H 	H 	0.87480 0.64430 0.35150 0.07600
C 	C 	0.81990 0.60150 0.26780 0.07700
H 	H 	0.78770 0.63120 0.26660 -0.01300
C 	C 	0.06960 0.52930 0.44900 0.07500
H 	H 	0.09180 0.49350 0.46600 -0.03100
C 	C 	0.01420 0.52160 0.40180 -0.14100
H 	H 	0.00020 0.48140 0.38800 0.08700
C 	C 	0.97980 0.57330 0.37530 0.06500
C 	C 	0.00270 0.63040 0.40100 -0.14600
H 	H 	0.98040 0.66680 0.38690 0.07900
C 	C 	0.05810 0.63430 0.44720 0.09100
H 	H 	0.07250 0.67400 0.46270 -0.02000
C 	C 	0.64360 0.53620 0.25730 0.06300
H 	H 	0.67810 0.52120 0.28820 -0.02700
C 	C 	0.58430 0.53440 0.28200 -0.13400
H 	H 	0.57980 0.51870 0.32930 0.04300
C 	C 	0.53210 0.55550 0.23760 0.04800
C 	C 	0.54160 0.57740 0.16740 -0.13800
H 	H 	0.50750 0.59050 0.13440 0.06500
C 	C 	0.60210 0.57950 0.14700 0.06200
H 	H 	0.60790 0.59620 0.10050 -0.03800
C 	C 	0.67130 0.20890 0.61640 0.07600
H 	H 	0.65830 0.22710 0.57030 -0.01300
C 	C 	0.67970 0.24720 0.67920 -0.13400
H 	H 	0.67430 0.29040 0.67410 0.07200
C 	C 	0.69590 0.22200 0.74870 0.05300
C 	C 	0.70360 0.15650 0.75150 -0.12900
H 	H 	0.71370 0.13650 0.79710 0.07500
C 	C 	0.69620 0.12250 0.68740 0.06200
H 	H 	0.70200 0.07930 0.69080 -0.01200
C 	C 	0.69230 0.35080 0.89110 0.08400
H 	H 	0.66810 0.38610 0.89900 -0.04500
C 	C 	0.67370 0.31340 0.82880 -0.14500
H 	H 	0.63820 0.32360 0.79620 0.08500
C 	C 	0.70940 0.26100 0.81710 0.06700
C 	C 	0.76070 0.24750 0.86900 -0.14500
H 	H 	0.78480 0.21170 0.86380 0.07600
C 	C 	0.77570 0.28760 0.92850 0.07400
H 	H 	0.81070 0.27820 0.96230 0.00300
Mo	Mo	0.21400 0.01890 0.99529 0.91900
Br	Br	0.38151 0.86440 0.06987 -0.42100
Cu	Cu	0.23744 0.04561 0.14095 0.80800
Cu	Cu	0.31756 0.08808 0.97231 0.80500
Cu	Cu	0.28497 0.91305 0.01249 0.81700
S 	S 	0.21550 0.94841 0.08981 -0.64600
S 	S 	0.24022 0.11510 0.04508 -0.63900
S 	S 	0.28994 0.99048 0.92419 -0.61400
N 	N 	0.31180 0.05340 0.21970 -0.24900
N 	N 	0.59260 0.08480 0.47120 -0.24900
N 	N 	0.15270 0.05900 0.19000 -0.23100
N 	N 	0.18110 0.64720 0.61970 -0.23500
N 	N 	0.24280 0.83900 0.93990 -0.22300
C 	C 	0.35930 0.01200 0.22400 0.07800
H 	H 	0.35540 0.97770 0.19200 -0.02800
C 	C 	0.41350 0.01670 0.27250 -0.13400
H 	H 	0.44470 0.98610 0.27250 0.07700
C 	C 	0.42170 0.06670 0.32130 0.05400
C 	C 	0.37240 0.11020 0.31910 -0.13700
H 	H 	0.37480 0.14430 0.35150 0.07600
C 	C 	0.31990 0.10150 0.26780 0.07700
H 	H 	0.28770 0.13120 0.26660 -0.01300
C 	C 	0.56960 0.02930 0.44900 0.07400
H 	H 	0.59180 0.99350 0.46600 -0.03100
C 	C 	0.51420 0.02160 0.40180 -0.13800
H 	H 	0.50020 0.98140 0.38800 0.08500
C 	C 	0.47980 0.07330 0.37530 0.06400
C 	C 	0.50270 0.13040 0.40100 -0.14500
H 	H 	0.48040 0.16680 0.38690 0.07900
C 	C 	0.55810 0.13430 0.44720 0.09100
H 	H 	0.57250 0.17400 0.46270 -0.02000
C 	C 	0.14360 0.03620 0.25730 0.06300
H 	H 	0.17810 0.02120 0.28820 -0.02600
C 	C 	0.08430 0.03440 0.28200 -0.13400
H 	H 	0.07980 0.01870 0.32930 0.04200
C 	C 	0.03210 0.05550 0.23760 0.04700
C 	C 	0.04160 0.07740 0.16740 -0.13800
H 	H 	0.00750 0.09050 0.13440 0.06500
C 	C 	0.10210 0.07950 0.14700 0.06200
H 	H 	0.10790 0.09620 0.10050 -0.03700
C 	C 	0.17130 0.70890 0.61640 0.07600
H 	H 	0.15830 0.72710 0.57030 -0.01300
C 	C 	0.17970 0.74720 0.67920 -0.13400
H 	H 	0.17430 0.79040 0.67410 0.07200
C 	C 	0.19590 0.72200 0.74870 0.05300
C 	C 	0.20360 0.65650 0.75150 -0.12900
H 	H 	0.21370 0.63650 0.79710 0.07500
C 	C 	0.19620 0.62250 0.68740 0.06200
H 	H 	0.20200 0.57930 0.69080 -0.01200
C 	C 	0.19230 0.85080 0.89110 0.08400
H 	H 	0.16810 0.88610 0.89900 -0.04400
C 	C 	0.17370 0.81340 0.82880 -0.14500
H 	H 	0.13820 0.82360 0.79620 0.08500
C 	C 	0.20940 0.76100 0.81710 0.06700
C 	C 	0.26070 0.74750 0.86900 -0.14400
H 	H 	0.28480 0.71170 0.86380 0.07600
C 	C 	0.27570 0.78760 0.92850 0.07400
H 	H 	0.31070 0.77820 0.96230 0.00500
Mo	Mo	0.28600 0.51890 0.50471 0.92100
Br	Br	0.11849 0.36440 0.43013 -0.42000
Cu	Cu	0.26256 0.54561 0.35905 0.80700
Cu	Cu	0.18244 0.58808 0.52769 0.80700
Cu	Cu	0.21503 0.41305 0.48751 0.81900
S 	S 	0.28450 0.44841 0.41019 -0.64300
S 	S 	0.25978 0.61510 0.45492 -0.64300
S 	S 	0.21006 0.49048 0.57581 -0.62000
N 	N 	0.18820 0.55340 0.28030 -0.24900
N 	N 	0.90740 0.58480 0.02880 -0.24800
N 	N 	0.34730 0.55900 0.31000 -0.23200
N 	N 	0.31890 0.14720 0.88030 -0.23500
N 	N 	0.25720 0.33900 0.56010 -0.22400
C 	C 	0.14070 0.51200 0.27600 0.07300
H 	H 	0.14460 0.47770 0.30800 -0.02500
C 	C 	0.08650 0.51670 0.22750 -0.13600
H 	H 	0.05530 0.48610 0.22750 0.07900
C 	C 	0.07830 0.56670 0.17870 0.05500
C 	C 	0.12760 0.61020 0.18090 -0.13700
H 	H 	0.12520 0.64430 0.14850 0.07600
C 	C 	0.18010 0.60150 0.23220 0.07800
H 	H 	0.21230 0.63120 0.23340 -0.01300
C 	C 	0.93040 0.52930 0.05100 0.07400
H 	H 	0.90820 0.49350 0.03400 -0.03000
C 	C 	0.98580 0.52160 0.09820 -0.13900
H 	H 	0.99980 0.48140 0.11200 0.08600
C 	C 	0.02020 0.57330 0.12470 0.06200
C 	C 	0.99730 0.63040 0.09900 -0.14300
H 	H 	0.01960 0.66680 0.11310 0.07800
C 	C 	0.94190 0.63430 0.05280 0.09000
H 	H 	0.92750 0.67400 0.03730 -0.02000
C 	C 	0.35640 0.53620 0.24270 0.06300
H 	H 	0.32190 0.52120 0.21180 -0.02700
C 	C 	0.41570 0.53440 0.21800 -0.13500
H 	H 	0.42020 0.51870 0.17070 0.04300
C 	C 	0.46790 0.55550 0.26240 0.04800
C 	C 	0.45840 0.57740 0.33260 -0.13800
H 	H 	0.49250 0.59050 0.36560 0.06500
C 	C 	0.39790 0.57950 0.35300 0.06200
H 	H 	0.39210 0.59620 0.39950 -0.03800
C 	C 	0.32870 0.20890 0.88360 0.07600
H 	H 	0.34170 0.22710 0.92970 -0.01300
C 	C 	0.32030 0.24720 0.82080 -0.13400
H 	H 	0.32570 0.29040 0.82590 0.07200
C 	C 	0.30410 0.22200 0.75130 0.05300
C 	C 	0.29640 0.15650 0.74850 -0.12900
H 	H 	0.28630 0.13650 0.70290 0.07500
C 	C 	0.30380 0.12250 0.81260 0.06200
H 	H 	0.29800 0.07930 0.80920 -0.01300
C 	C 	0.30770 0.35080 0.60890 0.08400
H 	H 	0.33190 0.38610 0.60100 -0.04500
C 	C 	0.32630 0.31340 0.67120 -0.14500
H 	H 	0.36180 0.32360 0.70380 0.08500
C 	C 	0.29060 0.26100 0.68290 0.06700
C 	C 	0.23930 0.24750 0.63100 -0.14500
H 	H 	0.21520 0.21170 0.63620 0.07600
C 	C 	0.22430 0.28760 0.57150 0.07400
H 	H 	0.18930 0.27820 0.53770 0.00300
Mo	Mo	0.78600 0.01890 0.50471 0.92100
Br	Br	0.61849 0.86440 0.43013 -0.42000
Cu	Cu	0.76256 0.04561 0.35905 0.80700
Cu	Cu	0.68244 0.08808 0.52769 0.80700
Cu	Cu	0.71503 0.91305 0.48751 0.81900
S 	S 	0.78450 0.94841 0.41019 -0.64400
S 	S 	0.75978 0.11510 0.45492 -0.64300
S 	S 	0.71006 0.99048 0.57581 -0.61900
N 	N 	0.68820 0.05340 0.28030 -0.24900
N 	N 	0.40740 0.08480 0.02880 -0.24900
N 	N 	0.84730 0.05900 0.31000 -0.23200
N 	N 	0.81890 0.64720 0.88030 -0.23400
N 	N 	0.75720 0.83900 0.56010 -0.22400
C 	C 	0.64070 0.01200 0.27600 0.07500
H 	H 	0.64460 0.97770 0.30800 -0.02700
C 	C 	0.58650 0.01670 0.22750 -0.13100
H 	H 	0.55530 0.98610 0.22750 0.07600
C 	C 	0.57830 0.06670 0.17870 0.05400
C 	C 	0.62760 0.11020 0.18090 -0.13600
H 	H 	0.62520 0.14430 0.14850 0.07600
C 	C 	0.68010 0.10150 0.23220 0.07700
H 	H 	0.71230 0.13120 0.23340 -0.01300
C 	C 	0.43040 0.02930 0.05100 0.08100
H 	H 	0.40820 0.99350 0.03400 -0.03600
C 	C 	0.48580 0.02160 0.09820 -0.13600
H 	H 	0.49980 0.98140 0.11200 0.08300
C 	C 	0.52020 0.07330 0.12470 0.06400
C 	C 	0.49730 0.13040 0.09900 -0.14400
H 	H 	0.51960 0.16680 0.11310 0.07900
C 	C 	0.44190 0.13430 0.05280 0.09100
H 	H 	0.42750 0.17400 0.03730 -0.01900
C 	C 	0.85640 0.03620 0.24270 0.06400
H 	H 	0.82190 0.02120 0.21180 -0.02600
C 	C 	0.91570 0.03440 0.21800 -0.13500
H 	H 	0.92020 0.01870 0.17070 0.04400
C 	C 	0.96790 0.05550 0.26240 0.04800
C 	C 	0.95840 0.07740 0.33260 -0.13900
H 	H 	0.99250 0.09050 0.36560 0.06500
C 	C 	0.89790 0.07950 0.35300 0.06200
H 	H 	0.89210 0.09620 0.39950 -0.03800
C 	C 	0.82870 0.70890 0.88360 0.07600
H 	H 	0.84170 0.72710 0.92970 -0.01200
C 	C 	0.82030 0.74720 0.82080 -0.13300
H 	H 	0.82570 0.79040 0.82590 0.07200
C 	C 	0.80410 0.72200 0.75130 0.05300
C 	C 	0.79640 0.65650 0.74850 -0.12900
H 	H 	0.78630 0.63650 0.70290 0.07500
C 	C 	0.80380 0.62250 0.81260 0.06200
H 	H 	0.79800 0.57930 0.80920 -0.01200
C 	C 	0.80770 0.85080 0.60890 0.08400
H 	H 	0.83190 0.88610 0.60100 -0.04500
C 	C 	0.82630 0.81340 0.67120 -0.14500
H 	H 	0.86180 0.82360 0.70380 0.08500
C 	C 	0.79060 0.76100 0.68290 0.06700
C 	C 	0.73930 0.74750 0.63100 -0.14500
H 	H 	0.71520 0.71170 0.63620 0.07600
C 	C 	0.72430 0.78760 0.57150 0.07400
H 	H 	0.68930 0.77820 0.53770 0.00300
Mo	Mo	0.28600 0.48110 0.00471 0.92200
Br	Br	0.11849 0.63560 0.93013 -0.41800
Cu	Cu	0.26256 0.45439 0.85905 0.80700
Cu	Cu	0.18244 0.41192 0.02769 0.80800
Cu	Cu	0.21503 0.58695 0.98751 0.81900
S 	S 	0.28450 0.55159 0.91019 -0.64200
S 	S 	0.25978 0.38490 0.95492 -0.64300
S 	S 	0.21006 0.50952 0.07581 -0.62000
N 	N 	0.18820 0.44660 0.78030 -0.24900
N 	N 	0.90740 0.41520 0.52880 -0.24900
N 	N 	0.34730 0.44100 0.81000 -0.23200
N 	N 	0.31890 0.85280 0.38030 -0.23500
N 	N 	0.25720 0.66100 0.06010 -0.22400
C 	C 	0.14070 0.48800 0.77600 0.07300
H 	H 	0.14460 0.52230 0.80800 -0.02500
C 	C 	0.08650 0.48330 0.72750 -0.13500
H 	H 	0.05530 0.51390 0.72750 0.07900
C 	C 	0.07830 0.43330 0.67870 0.05400
C 	C 	0.12760 0.38980 0.68090 -0.13600
H 	H 	0.12520 0.35570 0.64850 0.07600
C 	C 	0.18010 0.39850 0.73220 0.07700
H 	H 	0.21230 0.36880 0.73340 -0.01300
C 	C 	0.93040 0.47070 0.55100 0.07500
H 	H 	0.90820 0.50650 0.53400 -0.03100
C 	C 	0.98580 0.47840 0.59820 -0.14100
H 	H 	0.99980 0.51860 0.61200 0.08700
C 	C 	0.02020 0.42670 0.62470 0.06500
C 	C 	0.99730 0.36960 0.59900 -0.14600
H 	H 	0.01960 0.33320 0.61310 0.07900
C 	C 	0.94190 0.36570 0.55280 0.09100
H 	H 	0.92750 0.32600 0.53730 -0.02000
C 	C 	0.35640 0.46380 0.74270 0.06300
H 	H 	0.32190 0.47880 0.71180 -0.02700
C 	C 	0.41570 0.46560 0.71800 -0.13400
H 	H 	0.42020 0.48130 0.67070 0.04300
C 	C 	0.46790 0.44450 0.76240 0.04800
C 	C 	0.45840 0.42260 0.83260 -0.13800
H 	H 	0.49250 0.40950 0.86560 0.06500
C 	C 	0.39790 0.42050 0.85300 0.06200
H 	H 	0.39210 0.40380 0.89950 -0.03800
C 	C 	0.32870 0.79110 0.38360 0.07600
H 	H 	0.34170 0.77290 0.42970 -0.01300
C 	C 	0.32030 0.75280 0.32080 -0.13400
H 	H 	0.32570 0.70960 0.32590 0.07200
C 	C 	0.30410 0.77800 0.25130 0.05300
C 	C 	0.29640 0.84350 0.24850 -0.12900
H 	H 	0.28630 0.86350 0.20290 0.07500
C 	C 	0.30380 0.87750 0.31260 0.06200
H 	H 	0.29800 0.92070 0.30920 -0.01200
C 	C 	0.30770 0.64920 0.10890 0.08400
H 	H 	0.33190 0.61390 0.10100 -0.04500
C 	C 	0.32630 0.68660 0.17120 -0.14500
H 	H 	0.36180 0.67640 0.20380 0.08500
C 	C 	0.29060 0.73900 0.18290 0.06700
C 	C 	0.23930 0.75250 0.13100 -0.14500
H 	H 	0.21520 0.78830 0.13620 0.07600
C 	C 	0.22430 0.71240 0.07150 0.07400
H 	H 	0.18930 0.72180 0.03770 0.00300
Mo	Mo	0.78600 0.98110 0.00471 0.91900
Br	Br	0.61849 0.13560 0.93013 -0.42100
Cu	Cu	0.76256 0.95439 0.85905 0.80800
Cu	Cu	0.68244 0.91192 0.02769 0.80500
Cu	Cu	0.71503 0.08695 0.98751 0.81700
S 	S 	0.78450 0.05159 0.91019 -0.64600
S 	S 	0.75978 0.88490 0.95492 -0.63900
S 	S 	0.71006 0.00952 0.07581 -0.61400
N 	N 	0.68820 0.94660 0.78030 -0.24900
N 	N 	0.40740 0.91520 0.52880 -0.24900
N 	N 	0.84730 0.94100 0.81000 -0.23100
N 	N 	0.81890 0.35280 0.38030 -0.23500
N 	N 	0.75720 0.16100 0.06010 -0.22300
C 	C 	0.64070 0.98800 0.77600 0.07800
H 	H 	0.64460 0.02230 0.80800 -0.02800
C 	C 	0.58650 0.98330 0.72750 -0.13400
H 	H 	0.55530 0.01390 0.72750 0.07700
C 	C 	0.57830 0.93330 0.67870 0.05400
C 	C 	0.62760 0.88980 0.68090 -0.13700
H 	H 	0.62520 0.85570 0.64850 0.07600
C 	C 	0.68010 0.89850 0.73220 0.07700
H 	H 	0.71230 0.86880 0.73340 -0.01300
C 	C 	0.43040 0.97070 0.55100 0.07400
H 	H 	0.40820 0.00650 0.53400 -0.03100
C 	C 	0.48580 0.97840 0.59820 -0.13800
H 	H 	0.49980 0.01860 0.61200 0.08500
C 	C 	0.52020 0.92670 0.62470 0.06400
C 	C 	0.49730 0.86960 0.59900 -0.14500
H 	H 	0.51960 0.83320 0.61310 0.07900
C 	C 	0.44190 0.86570 0.55280 0.09100
H 	H 	0.42750 0.82600 0.53730 -0.02000
C 	C 	0.85640 0.96380 0.74270 0.06300
H 	H 	0.82190 0.97880 0.71180 -0.02600
C 	C 	0.91570 0.96560 0.71800 -0.13400
H 	H 	0.92020 0.98130 0.67070 0.04200
C 	C 	0.96790 0.94450 0.76240 0.04700
C 	C 	0.95840 0.92260 0.83260 -0.13800
H 	H 	0.99250 0.90950 0.86560 0.06500
C 	C 	0.89790 0.92050 0.85300 0.06200
H 	H 	0.89210 0.90380 0.89950 -0.03700
C 	C 	0.82870 0.29110 0.38360 0.07600
H 	H 	0.84170 0.27290 0.42970 -0.01300
C 	C 	0.82030 0.25280 0.32080 -0.13400
H 	H 	0.82570 0.20960 0.32590 0.07200
C 	C 	0.80410 0.27800 0.25130 0.05300
C 	C 	0.79640 0.34350 0.24850 -0.12900
H 	H 	0.78630 0.36350 0.20290 0.07500
C 	C 	0.80380 0.37750 0.31260 0.06200
H 	H 	0.79800 0.42070 0.30920 -0.01200
C 	C 	0.80770 0.14920 0.10890 0.08400
H 	H 	0.83190 0.11390 0.10100 -0.04400
C 	C 	0.82630 0.18660 0.17120 -0.14500
H 	H 	0.86180 0.17640 0.20380 0.08500
C 	C 	0.79060 0.23900 0.18290 0.06700
C 	C 	0.73930 0.25250 0.13100 -0.14400
H 	H 	0.71520 0.28830 0.13620 0.07600
C 	C 	0.72430 0.21240 0.07150 0.07400
H 	H 	0.68930 0.22180 0.03770 0.00500
Mo	Mo	0.71400 0.48110 0.49529 0.92100
Br	Br	0.88151 0.63560 0.56987 -0.42000
Cu	Cu	0.73744 0.45439 0.64095 0.80700
Cu	Cu	0.81756 0.41192 0.47231 0.80700
Cu	Cu	0.78497 0.58695 0.51249 0.81900
S 	S 	0.71550 0.55159 0.58981 -0.64300
S 	S 	0.74022 0.38490 0.54508 -0.64300
S 	S 	0.78994 0.50952 0.42419 -0.62000
N 	N 	0.81180 0.44660 0.71970 -0.24900
N 	N 	0.09260 0.41520 0.97120 -0.24800
N 	N 	0.65270 0.44100 0.69000 -0.23200
N 	N 	0.68110 0.85280 0.11970 -0.23500
N 	N 	0.74280 0.66100 0.43990 -0.22400
C 	C 	0.85930 0.48800 0.72400 0.07300
H 	H 	0.85540 0.52230 0.69200 -0.02500
C 	C 	0.91350 0.48330 0.77250 -0.13600
H 	H 	0.94470 0.51390 0.77250 0.07900
C 	C 	0.92170 0.43330 0.82130 0.05500
C 	C 	0.87240 0.38980 0.81910 -0.13700
H 	H 	0.87480 0.35570 0.85150 0.07600
C 	C 	0.81990 0.39850 0.76780 0.07800
H 	H 	0.78770 0.36880 0.76660 -0.01300
C 	C 	0.06960 0.47070 0.94900 0.07400
H 	H 	0.09180 0.50650 0.96600 -0.03000
C 	C 	0.01420 0.47840 0.90180 -0.13900
H 	H 	0.00020 0.51860 0.88800 0.08600
C 	C 	0.97980 0.42670 0.87530 0.06200
C 	C 	0.00270 0.36960 0.90100 -0.14300
H 	H 	0.98040 0.33320 0.88690 0.07800
C 	C 	0.05810 0.36570 0.94720 0.09000
H 	H 	0.07250 0.32600 0.96270 -0.02000
C 	C 	0.64360 0.46380 0.75730 0.06300
H 	H 	0.67810 0.47880 0.78820 -0.02700
C 	C 	0.58430 0.46560 0.78200 -0.13500
H 	H 	0.57980 0.48130 0.82930 0.04300
C 	C 	0.53210 0.44450 0.73760 0.04800
C 	C 	0.54160 0.42260 0.66740 -0.13800
H 	H 	0.50750 0.40950 0.63440 0.06500
C 	C 	0.60210 0.42050 0.64700 0.06200
H 	H 	0.60790 0.40380 0.60050 -0.03800
C 	C 	0.67130 0.79110 0.11640 0.07600
H 	H 	0.65830 0.77290 0.07030 -0.01300
C 	C 	0.67970 0.75280 0.17920 -0.13400
H 	H 	0.67430 0.70960 0.17410 0.07200
C 	C 	0.69590 0.77800 0.24870 0.05300
C 	C 	0.70360 0.84350 0.25150 -0.12900
H 	H 	0.71370 0.86350 0.29710 0.07500
C 	C 	0.69620 0.87750 0.18740 0.06200
H 	H 	0.70200 0.92070 0.19080 -0.01300
C 	C 	0.69230 0.64920 0.39110 0.08400
H 	H 	0.66810 0.61390 0.39900 -0.04500
C 	C 	0.67370 0.68660 0.32880 -0.14500
H 	H 	0.63820 0.67640 0.29620 0.08500
C 	C 	0.70940 0.73900 0.31710 0.06700
C 	C 	0.76070 0.75250 0.36900 -0.14500
H 	H 	0.78480 0.78830 0.36380 0.07600
C 	C 	0.77570 0.71240 0.42850 0.07400
H 	H 	0.81070 0.72180 0.46230 0.00300
Mo	Mo	0.21400 0.98110 0.49529 0.92100
Br	Br	0.38151 0.13560 0.56987 -0.42000
Cu	Cu	0.23744 0.95439 0.64095 0.80700
Cu	Cu	0.31756 0.91192 0.47231 0.80700
Cu	Cu	0.28497 0.08695 0.51249 0.81900
S 	S 	0.21550 0.05159 0.58981 -0.64400
S 	S 	0.24022 0.88490 0.54508 -0.64300
S 	S 	0.28994 0.00952 0.42419 -0.61900
N 	N 	0.31180 0.94660 0.71970 -0.24900
N 	N 	0.59260 0.91520 0.97120 -0.24900
N 	N 	0.15270 0.94100 0.69000 -0.23200
N 	N 	0.18110 0.35280 0.11970 -0.23400
N 	N 	0.24280 0.16100 0.43990 -0.22400
C 	C 	0.35930 0.98800 0.72400 0.07500
H 	H 	0.35540 0.02230 0.69200 -0.02700
C 	C 	0.41350 0.98330 0.77250 -0.13100
H 	H 	0.44470 0.01390 0.77250 0.07600
C 	C 	0.42170 0.93330 0.82130 0.05400
C 	C 	0.37240 0.88980 0.81910 -0.13600
H 	H 	0.37480 0.85570 0.85150 0.07600
C 	C 	0.31990 0.89850 0.76780 0.07700
H 	H 	0.28770 0.86880 0.76660 -0.01300
C 	C 	0.56960 0.97070 0.94900 0.08100
H 	H 	0.59180 0.00650 0.96600 -0.03600
C 	C 	0.51420 0.97840 0.90180 -0.13600
H 	H 	0.50020 0.01860 0.88800 0.08300
C 	C 	0.47980 0.92670 0.87530 0.06400
C 	C 	0.50270 0.86960 0.90100 -0.14400
H 	H 	0.48040 0.83320 0.88690 0.07900
C 	C 	0.55810 0.86570 0.94720 0.09100
H 	H 	0.57250 0.82600 0.96270 -0.01900
C 	C 	0.14360 0.96380 0.75730 0.06400
H 	H 	0.17810 0.97880 0.78820 -0.02600
C 	C 	0.08430 0.96560 0.78200 -0.13500
H 	H 	0.07980 0.98130 0.82930 0.04400
C 	C 	0.03210 0.94450 0.73760 0.04800
C 	C 	0.04160 0.92260 0.66740 -0.13900
H 	H 	0.00750 0.90950 0.63440 0.06500
C 	C 	0.10210 0.92050 0.64700 0.06200
H 	H 	0.10790 0.90380 0.60050 -0.03800
C 	C 	0.17130 0.29110 0.11640 0.07600
H 	H 	0.15830 0.27290 0.07030 -0.01200
C 	C 	0.17970 0.25280 0.17920 -0.13300
H 	H 	0.17430 0.20960 0.17410 0.07200
C 	C 	0.19590 0.27800 0.24870 0.05300
C 	C 	0.20360 0.34350 0.25150 -0.12900
H 	H 	0.21370 0.36350 0.29710 0.07500
C 	C 	0.19620 0.37750 0.18740 0.06200
H 	H 	0.20200 0.42070 0.19080 -0.01200
C 	C 	0.19230 0.14920 0.39110 0.08400
H 	H 	0.16810 0.11390 0.39900 -0.04500
C 	C 	0.17370 0.18660 0.32880 -0.14500
H 	H 	0.13820 0.17640 0.29620 0.08500
C 	C 	0.20940 0.23900 0.31710 0.06700
C 	C 	0.26070 0.25250 0.36900 -0.14500
H 	H 	0.28480 0.28830 0.36380 0.07600
C 	C 	0.27570 0.21240 0.42850 0.07400
H 	H 	0.31070 0.22180 0.46230 0.00300
