data_crystal

_cell_length_a 12.06800
_cell_length_b 13.90900
_cell_length_c 22.74200
_cell_angle_alpha 95.90200
_cell_angle_beta  104.96400
_cell_angle_gamma 103.97000

_symmetry_space_group_name_	'P 1'
_symmetry_space_group_name_H-M	'P 1'

loop_
_symmetry_equiv_pos_as_xyz
  x,y,z

loop_
_atom_site_label
_atom_site_type_symbol
_atom_site_fract_x
_atom_site_fract_y
_atom_site_fract_z
_atom_site_charge
Ag	Ag	0.31130 0.83225 0.93353 0.45000
N 	N 	0.53120 0.68990 0.57640 -0.13600
Ag	Ag	0.51264 0.94278 0.07947 0.46600
C 	C 	0.24400 0.05900 0.52260 0.08200
H 	H 	0.29090 0.06890 0.49570 0.00100
Ag	Ag	0.81736 0.57572 0.44031 0.50200
C 	C 	0.77340 0.27210 0.34800 -0.12000
H 	H 	0.80160 0.21910 0.36120 0.05400
Ag	Ag	0.14328 0.01634 0.85413 0.48000
N 	N 	0.97590 0.78990 0.49800 -0.10800
C 	C 	0.21520 0.08030 0.01010 0.09600
Ag	Ag	0.97015 0.15706 0.30007 0.50600
N 	N 	0.90420 0.71640 0.56900 -0.08300
Ag	Ag	0.39742 0.12121 0.17298 0.50800
N 	N 	0.25300 0.13000 0.56530 -0.14000
C 	C 	0.68310 0.17360 0.24310 0.06400
C 	C 	0.10500 0.02730 0.60410 -0.11800
H 	H 	0.05890 0.01750 0.63140 0.03800
N 	N 	0.96600 0.24870 0.01180 -0.23200
C 	C 	0.65700 0.33800 0.27480 -0.11000
H 	H 	0.60400 0.33170 0.23580 0.03900
N 	N 	0.52550 0.80500 0.02720 -0.14100
C 	C 	0.13090 0.13950 0.01550 0.03200
N 	N 	0.45900 0.76740 0.96830 -0.14000
C 	C 	0.07000 0.27300 0.05260 0.08600
H 	H 	0.08760 0.33150 0.08120 -0.03800
N 	N 	0.72750 0.05940 0.18980 -0.14200
N 	N 	0.61950 0.05910 0.16400 -0.15400
N 	N 	0.77520 0.12820 0.24180 -0.16500
N 	N 	0.86310 0.92890 0.83610 -0.08100
N 	N 	0.30780 0.07890 0.05750 -0.14100
C 	C 	0.50400 0.75500 0.61470 0.04700
H 	H 	0.43050 0.76870 0.60310 0.01300
N 	N 	0.35650 0.01070 0.03760 -0.14400
C 	C 	0.63700 0.67280 0.59120 0.04900
H 	H 	0.65330 0.62630 0.56460 0.00200
N 	N 	0.94820 0.91850 0.81160 -0.12900
C 	C 	0.68600 0.42700 0.31560 0.03900
H 	H 	0.65470 0.47950 0.30350 -0.01300
C 	C 	0.58190 0.79970 0.66870 -0.09300
H 	H 	0.55740 0.83730 0.69660 0.03200
N 	N 	0.76140 0.43880 0.37420 -0.20000
N 	N 	0.58930 0.13120 0.19500 -0.17400
C 	C 	0.72550 0.72310 0.64620 -0.09300
H 	H 	0.79960 0.71020 0.65620 0.03500
N 	N 	0.75970 0.88340 0.79360 -0.16100
C 	C 	0.15600 0.22510 0.05920 -0.14000
H 	H 	0.22730 0.24790 0.09100 0.06400
N 	N 	0.90730 0.70990 0.50950 -0.12300
C 	C 	0.93890 0.16310 0.97210 0.06300
H 	H 	0.86260 0.14050 0.94430 -0.03500
N 	N 	0.30160 0.97770 0.97940 -0.16200
C 	C 	0.70090 0.25870 0.28840 0.00800
N 	N 	0.90090 0.86290 0.75400 -0.16700
C 	C 	0.80530 0.36040 0.38840 0.05000
H 	H 	0.85910 0.36710 0.42710 -0.01800
N 	N 	0.20720 0.01750 0.96160 -0.16400
C 	C 	0.09820 0.95300 0.55720 0.04500
N 	N 	0.97810 0.80740 0.59550 -0.15300
C 	C 	0.01580 0.84890 0.55210 0.08900
C 	C 	0.01630 0.10670 0.97010 -0.13600
H 	H 	0.99550 0.04920 0.94030 0.05900
C 	C 	0.16100 0.96640 0.51790 -0.13500
H 	H 	0.15030 0.91360 0.48650 0.07400
C 	C 	0.19000 0.12200 0.60670 0.05200
H 	H 	0.20150 0.17750 0.63660 -0.00800
C 	C 	0.70030 0.79320 0.68600 -0.00900
C 	C 	0.78350 0.84190 0.74380 0.08900
N 	N 	0.60220 0.74980 0.04550 -0.11900
N 	N 	0.48820 0.68800 0.94930 -0.11100
C 	C 	0.57100 0.67700 0.99640 0.09000
C 	C 	0.62800 0.59800 0.99430 0.05000
C 	C 	0.59700 0.51970 0.94710 -0.12700
H 	H 	0.53860 0.52030 0.91160 0.06700
C 	C 	0.71900 0.59700 0.04540 -0.14400
H 	H 	0.74420 0.64660 0.08060 0.06500
C 	C 	0.64500 0.44010 0.94700 0.05400
H 	H 	0.61550 0.38660 0.91390 -0.02200
C 	C 	0.77000 0.51800 0.04070 0.08500
H 	H 	0.83670 0.52230 0.07350 -0.04600
N 	N 	0.74000 0.44110 0.99770 -0.22000
Ag	Ag	0.84607 0.33904 0.00332 0.46800
Ag	Ag	0.68870 0.16775 0.06647 0.45100
N 	N 	0.46880 0.31010 0.42360 -0.13500
Ag	Ag	0.48736 0.05722 0.92053 0.46700
C 	C 	0.75600 0.94100 0.47740 0.08300
H 	H 	0.70910 0.93110 0.50430 0.00100
Ag	Ag	0.18264 0.42428 0.55969 0.50200
C 	C 	0.22660 0.72790 0.65200 -0.12000
H 	H 	0.19840 0.78090 0.63880 0.05400
Ag	Ag	0.85672 0.98366 0.14587 0.48000
N 	N 	0.02410 0.21010 0.50200 -0.10800
C 	C 	0.78480 0.91970 0.98990 0.09600
Ag	Ag	0.02985 0.84294 0.69993 0.50600
N 	N 	0.09580 0.28360 0.43100 -0.08300
Ag	Ag	0.60258 0.87879 0.82702 0.50800
N 	N 	0.74700 0.87000 0.43470 -0.14000
C 	C 	0.31690 0.82640 0.75690 0.06400
C 	C 	0.89500 0.97270 0.39590 -0.11800
H 	H 	0.94110 0.98250 0.36860 0.03800
N 	N 	0.03400 0.75130 0.98820 -0.23200
C 	C 	0.34300 0.66200 0.72520 -0.11000
H 	H 	0.39600 0.66830 0.76420 0.03900
N 	N 	0.47450 0.19500 0.97280 -0.14100
C 	C 	0.86910 0.86050 0.98450 0.03200
N 	N 	0.54100 0.23260 0.03170 -0.14000
C 	C 	0.93000 0.72700 0.94740 0.08600
H 	H 	0.91240 0.66850 0.91880 -0.03800
N 	N 	0.27250 0.94060 0.81020 -0.14200
N 	N 	0.38050 0.94090 0.83600 -0.15400
N 	N 	0.22480 0.87180 0.75820 -0.16500
N 	N 	0.13690 0.07110 0.16390 -0.08100
N 	N 	0.69220 0.92110 0.94250 -0.14100
C 	C 	0.49600 0.24500 0.38530 0.04700
H 	H 	0.56950 0.23130 0.39690 0.01300
N 	N 	0.64350 0.98930 0.96240 -0.14400
C 	C 	0.36300 0.32720 0.40880 0.04900
H 	H 	0.34670 0.37370 0.43540 0.00200
N 	N 	0.05180 0.08150 0.18840 -0.12900
C 	C 	0.31400 0.57300 0.68440 0.03900
H 	H 	0.34530 0.52050 0.69650 -0.01300
C 	C 	0.41810 0.20030 0.33130 -0.09300
H 	H 	0.44260 0.16270 0.30340 0.03200
N 	N 	0.23860 0.56120 0.62580 -0.20000
N 	N 	0.41070 0.86880 0.80500 -0.17400
C 	C 	0.27450 0.27690 0.35380 -0.09300
H 	H 	0.20040 0.28980 0.34380 0.03500
N 	N 	0.24030 0.11660 0.20640 -0.16100
C 	C 	0.84400 0.77490 0.94080 -0.14000
H 	H 	0.77270 0.75210 0.90900 0.06400
N 	N 	0.09270 0.29010 0.49050 -0.12300
C 	C 	0.06110 0.83690 0.02790 0.06300
H 	H 	0.13740 0.85950 0.05570 -0.03500
N 	N 	0.69840 0.02230 0.02060 -0.16200
C 	C 	0.29910 0.74130 0.71160 0.00800
N 	N 	0.09910 0.13710 0.24600 -0.16700
C 	C 	0.19470 0.63960 0.61160 0.05000
H 	H 	0.14090 0.63290 0.57290 -0.01800
N 	N 	0.79280 0.98250 0.03840 -0.16400
C 	C 	0.90180 0.04700 0.44280 0.04500
N 	N 	0.02190 0.19260 0.40450 -0.15300
C 	C 	0.98420 0.15110 0.44790 0.08900
C 	C 	0.98370 0.89330 0.02990 -0.13600
H 	H 	0.00450 0.95080 0.05970 0.05900
C 	C 	0.83900 0.03360 0.48210 -0.13500
H 	H 	0.84970 0.08640 0.51350 0.07400
C 	C 	0.81000 0.87800 0.39330 0.05200
H 	H 	0.79850 0.82250 0.36340 -0.00800
C 	C 	0.29970 0.20680 0.31400 -0.00900
C 	C 	0.21650 0.15810 0.25620 0.08900
N 	N 	0.39780 0.25020 0.95450 -0.11900
N 	N 	0.51180 0.31200 0.05070 -0.11100
C 	C 	0.42900 0.32300 0.00360 0.09000
C 	C 	0.37200 0.40200 0.00570 0.05000
C 	C 	0.40300 0.48030 0.05290 -0.12700
H 	H 	0.46140 0.47970 0.08840 0.06700
C 	C 	0.28100 0.40300 0.95460 -0.14400
H 	H 	0.25580 0.35340 0.91940 0.06500
C 	C 	0.35500 0.55990 0.05300 0.05400
H 	H 	0.38450 0.61340 0.08610 -0.02200
C 	C 	0.23000 0.48200 0.95930 0.08500
H 	H 	0.16330 0.47770 0.92650 -0.04600
N 	N 	0.26000 0.55890 0.00230 -0.22000
Ag	Ag	0.15393 0.66096 0.99668 0.46800
