data_crystal

_cell_length_a 7.61460
_cell_length_b 7.51440
_cell_length_c 17.75000
_cell_angle_alpha 90.00000
_cell_angle_beta  97.35100
_cell_angle_gamma 90.00000

_symmetry_space_group_name_	'P 1'
_symmetry_space_group_name_H-M	'P 1'

loop_
_symmetry_equiv_pos_as_xyz
  x,y,z

loop_
_atom_site_label
_atom_site_type_symbol
_atom_site_fract_x
_atom_site_fract_y
_atom_site_fract_z
_atom_site_charge
Co	Co	0.37927 0.44264 0.13809 1.18500
Co	Co	0.72532 0.68016 0.19338 1.18900
P 	P 	0.55099 0.06759 0.18833 0.57300
H 	H 	0.66280 0.13290 0.19910 -0.15000
O 	O 	0.42820 0.18030 0.13365 -0.38900
O 	O 	0.20880 0.65390 0.12222 -0.33900
O 	O 	0.59880 0.53420 0.09315 -0.46200
O 	O 	0.47600 0.04490 0.26435 -0.54300
O 	O 	0.70250 0.59010 0.98324 -0.31600
O 	O 	0.16280 0.35660 0.20223 -0.42300
O 	O 	0.59260 0.89290 0.15336 -0.39900
O 	O 	0.94300 0.74830 0.14110 -0.31700
O 	O 	0.89930 0.46510 0.22607 -0.34200
C 	C 	0.58860 0.53680 0.02128 0.25900
C 	C 	0.04010 0.47110 0.19715 0.23800
C 	C 	0.06670 0.63830 0.14928 0.23500
Co	Co	0.62073 0.94264 0.36191 1.18500
Co	Co	0.27468 0.18016 0.30662 1.18900
P 	P 	0.44901 0.56759 0.31167 0.57200
H 	H 	0.33720 0.63290 0.30090 -0.15000
O 	O 	0.57180 0.68030 0.36635 -0.38900
O 	O 	0.79120 0.15390 0.37778 -0.33900
O 	O 	0.40120 0.03420 0.40685 -0.46100
O 	O 	0.52400 0.54490 0.23565 -0.54300
O 	O 	0.29750 0.09010 0.51676 -0.31600
O 	O 	0.83720 0.85660 0.29777 -0.42200
O 	O 	0.40740 0.39290 0.34664 -0.39900
O 	O 	0.05700 0.24830 0.35890 -0.31800
O 	O 	0.10070 0.96510 0.27393 -0.33900
C 	C 	0.41140 0.03680 0.47872 0.25900
C 	C 	0.95990 0.97110 0.30285 0.23300
C 	C 	0.93330 0.13830 0.35072 0.23900
Co	Co	0.62073 0.55736 0.86191 1.18500
Co	Co	0.27468 0.31984 0.80662 1.18900
P 	P 	0.44901 0.93241 0.81167 0.57300
H 	H 	0.33720 0.86710 0.80090 -0.15000
O 	O 	0.57180 0.81970 0.86635 -0.38900
O 	O 	0.79120 0.34610 0.87778 -0.33900
O 	O 	0.40120 0.46580 0.90685 -0.46200
O 	O 	0.52400 0.95510 0.73565 -0.54300
O 	O 	0.29750 0.40990 0.01676 -0.31600
O 	O 	0.83720 0.64340 0.79777 -0.42300
O 	O 	0.40740 0.10710 0.84664 -0.39900
O 	O 	0.05700 0.25170 0.85890 -0.31700
O 	O 	0.10070 0.53490 0.77393 -0.34200
C 	C 	0.41140 0.46320 0.97872 0.25900
C 	C 	0.95990 0.52890 0.80285 0.23800
C 	C 	0.93330 0.36170 0.85072 0.23500
Co	Co	0.37927 0.05736 0.63809 1.18500
Co	Co	0.72532 0.81984 0.69338 1.18900
P 	P 	0.55099 0.43241 0.68833 0.57200
H 	H 	0.66280 0.36710 0.69910 -0.15000
O 	O 	0.42820 0.31970 0.63365 -0.38900
O 	O 	0.20880 0.84610 0.62222 -0.33900
O 	O 	0.59880 0.96580 0.59315 -0.46100
O 	O 	0.47600 0.45510 0.76435 -0.54300
O 	O 	0.70250 0.90990 0.48324 -0.31600
O 	O 	0.16280 0.14340 0.70223 -0.42200
O 	O 	0.59260 0.60710 0.65336 -0.39900
O 	O 	0.94300 0.75170 0.64110 -0.31800
O 	O 	0.89930 0.03490 0.72607 -0.33900
C 	C 	0.58860 0.96320 0.52128 0.25900
C 	C 	0.04010 0.02890 0.69715 0.23300
C 	C 	0.06670 0.86170 0.64928 0.23900
