data_crystal

_cell_length_a 28.09960
_cell_length_b 13.81220
_cell_length_c 22.46190
_cell_angle_alpha 90.00000
_cell_angle_beta  99.35660
_cell_angle_gamma 90.00000

_symmetry_space_group_name_	'P 1'
_symmetry_space_group_name_H-M	'P 1'

loop_
_symmetry_equiv_pos_as_xyz
  x,y,z

loop_
_atom_site_label
_atom_site_type_symbol
_atom_site_fract_x
_atom_site_fract_y
_atom_site_fract_z
_atom_site_charge
Tb	Tb	0.03320 0.37557 0.04244 1.86600
Co	Co	0.26261 0.61682 0.85187 1.12000
Cl	Cl	0.22567 0.77213 0.83415 -0.51200
O 	O 	0.99897 0.53684 0.05741 -1.02600
O 	O 	0.08685 0.47749 0.90799 -0.33400
N 	N 	0.22626 0.58570 0.92525 -0.23400
O 	O 	0.07814 0.55480 0.63037 -0.44300
O 	O 	0.07807 0.64898 0.71114 -0.28400
O 	O 	0.09723 0.44720 0.00713 -0.47000
O 	O 	0.45170 0.83926 0.01642 -0.50200
N 	N 	0.21221 0.54380 0.78704 -0.23700
C 	C 	0.18251 0.54560 0.92038 0.10400
H 	H 	0.16620 0.53120 0.88200 0.00300
C 	C 	0.16020 0.52430 0.96897 -0.15400
C 	C 	0.29731 0.65680 0.98170 0.07400
O 	O 	0.39844 0.36050 0.98555 -0.30600
C 	C 	0.24970 0.60890 0.98072 0.07100
C 	C 	0.18453 0.54770 0.02625 0.08800
H 	H 	0.17080 0.53410 0.06030 0.02200
O 	O 	0.40650 0.23601 0.92422 -0.48200
N 	N 	0.31074 0.66960 0.92712 -0.24600
C 	C 	0.36836 0.73730 0.03093 0.09100
H 	H 	0.38820 0.75830 0.06580 0.01300
C 	C 	0.42515 0.81390 0.96796 0.40300
C 	C 	0.32555 0.43710 0.89634 0.09200
H 	H 	0.34150 0.47950 0.92500 -0.00400
C 	C 	0.32556 0.68830 0.03460 -0.15000
H 	H 	0.31610 0.67700 0.07180 0.11000
N 	N 	0.28764 0.47020 0.85777 -0.24600
C 	C 	0.11056 0.47960 0.95990 0.41700
C 	C 	0.38101 0.75440 0.97474 -0.16400
C 	C 	0.17212 0.58460 0.75629 0.07000
H 	H 	0.16550 0.64890 0.76410 0.02600
C 	C 	0.35164 0.71870 0.92459 0.10300
H 	H 	0.36050 0.72920 0.88700 -0.01800
C 	C 	0.09515 0.58410 0.68230 0.38500
C 	C 	0.22945 0.59150 0.03204 -0.14600
H 	H 	0.24580 0.60900 0.06990 0.10600
C 	C 	0.38593 0.31160 0.93921 0.39900
C 	C 	0.31679 0.27970 0.85440 0.07800
H 	H 	0.32680 0.21580 0.85290 0.01900
C 	C 	0.26314 0.40740 0.81774 0.06300
C 	C 	0.27690 0.31090 0.81572 -0.12200
H 	H 	0.25930 0.26820 0.78860 0.07600
C 	C 	0.34218 0.34290 0.89558 -0.15000
O 	O 	0.43153 0.83366 0.91577 -0.35000
C 	C 	0.14023 0.53450 0.71329 -0.12200
C 	C 	0.22074 0.44930 0.77754 0.05100
C 	C 	0.15075 0.43920 0.70086 0.04200
H 	H 	0.13130 0.40530 0.67040 0.03800
C 	C 	0.19096 0.39490 0.73481 -0.09900
H 	H 	0.19770 0.33000 0.72880 0.06500
H 	H 	0.01990 0.57500 0.07280 0.41900
H 	H 	0.97950 0.54200 0.08200 0.40400
Tb	Tb	0.53320 0.87557 0.04244 1.86800
Co	Co	0.76261 0.11682 0.85187 1.11900
Cl	Cl	0.72567 0.27213 0.83415 -0.51300
O 	O 	0.49897 0.03684 0.05741 -1.03200
O 	O 	0.58685 0.97749 0.90799 -0.33500
N 	N 	0.72626 0.08570 0.92525 -0.23600
O 	O 	0.57814 0.05480 0.63037 -0.44500
O 	O 	0.57807 0.14898 0.71114 -0.28500
O 	O 	0.59723 0.94720 0.00713 -0.47100
O 	O 	0.95170 0.33926 0.01642 -0.49900
N 	N 	0.71221 0.04380 0.78704 -0.23800
C 	C 	0.68251 0.04560 0.92038 0.10500
H 	H 	0.66620 0.03120 0.88200 0.00100
C 	C 	0.66020 0.02430 0.96897 -0.16000
C 	C 	0.79731 0.15680 0.98170 0.06900
O 	O 	0.89844 0.86050 0.98555 -0.30700
C 	C 	0.74970 0.10890 0.98072 0.06800
C 	C 	0.68453 0.04770 0.02625 0.09200
H 	H 	0.67080 0.03410 0.06030 0.02000
O 	O 	0.90650 0.73601 0.92422 -0.48300
N 	N 	0.81074 0.16960 0.92712 -0.24600
C 	C 	0.86836 0.23730 0.03093 0.09500
H 	H 	0.88820 0.25830 0.06580 0.01200
C 	C 	0.92515 0.31390 0.96796 0.39900
C 	C 	0.82555 0.93710 0.89634 0.09200
H 	H 	0.84150 0.97950 0.92500 -0.00400
C 	C 	0.82556 0.18830 0.03460 -0.14600
H 	H 	0.81610 0.17700 0.07180 0.11000
N 	N 	0.78764 0.97020 0.85777 -0.24500
C 	C 	0.61056 0.97960 0.95990 0.41800
C 	C 	0.88101 0.25440 0.97474 -0.16700
C 	C 	0.67212 0.08460 0.75629 0.07000
H 	H 	0.66550 0.14890 0.76410 0.02500
C 	C 	0.85164 0.21870 0.92459 0.10300
H 	H 	0.86050 0.22920 0.88700 -0.01800
C 	C 	0.59515 0.08410 0.68230 0.38500
C 	C 	0.72945 0.09150 0.03204 -0.14300
H 	H 	0.74580 0.10900 0.06990 0.10600
C 	C 	0.88593 0.81160 0.93921 0.39900
C 	C 	0.81679 0.77970 0.85440 0.07800
H 	H 	0.82680 0.71580 0.85290 0.01900
C 	C 	0.76314 0.90740 0.81774 0.06200
C 	C 	0.77690 0.81090 0.81572 -0.12200
H 	H 	0.75930 0.76820 0.78860 0.07600
C 	C 	0.84218 0.84290 0.89558 -0.15000
O 	O 	0.93153 0.33366 0.91577 -0.34900
C 	C 	0.64023 0.03450 0.71329 -0.12300
C 	C 	0.72074 0.94930 0.77754 0.05200
C 	C 	0.65075 0.93920 0.70086 0.04300
H 	H 	0.63130 0.90530 0.67040 0.03800
C 	C 	0.69096 0.89490 0.73481 -0.10000
H 	H 	0.69770 0.83000 0.72880 0.06500
H 	H 	0.51990 0.07500 0.07280 0.42300
H 	H 	0.47950 0.04200 0.08200 0.40400
Tb	Tb	0.96680 0.37557 0.45756 1.87000
Co	Co	0.73739 0.61682 0.64813 1.11900
Cl	Cl	0.77433 0.77213 0.66585 -0.51300
O 	O 	0.00103 0.53684 0.44259 -1.03300
O 	O 	0.91315 0.47749 0.59201 -0.33500
N 	N 	0.77374 0.58570 0.57475 -0.23500
O 	O 	0.92186 0.55480 0.86963 -0.44400
O 	O 	0.92193 0.64898 0.78886 -0.28500
O 	O 	0.90277 0.44720 0.49287 -0.47000
O 	O 	0.54830 0.83926 0.48358 -0.50200
N 	N 	0.78779 0.54380 0.71296 -0.23800
C 	C 	0.81749 0.54560 0.57962 0.10300
H 	H 	0.83380 0.53120 0.61800 0.00200
C 	C 	0.83980 0.52430 0.53103 -0.15700
C 	C 	0.70269 0.65680 0.51830 0.07100
O 	O 	0.60156 0.36050 0.51445 -0.30700
C 	C 	0.75030 0.60890 0.51928 0.06900
C 	C 	0.81547 0.54770 0.47375 0.08900
H 	H 	0.82920 0.53410 0.43970 0.02100
O 	O 	0.59350 0.23601 0.57578 -0.48300
N 	N 	0.68926 0.66960 0.57288 -0.24600
C 	C 	0.63164 0.73730 0.46907 0.09200
H 	H 	0.61180 0.75830 0.43420 0.01200
C 	C 	0.57485 0.81390 0.53204 0.40200
C 	C 	0.67445 0.43710 0.60366 0.09200
H 	H 	0.65850 0.47950 0.57500 -0.00400
C 	C 	0.67444 0.68830 0.46540 -0.14900
H 	H 	0.68390 0.67700 0.42820 0.11000
N 	N 	0.71236 0.47020 0.64223 -0.24600
C 	C 	0.88944 0.47960 0.54010 0.41600
C 	C 	0.61899 0.75440 0.52526 -0.16500
C 	C 	0.82788 0.58460 0.74371 0.07000
H 	H 	0.83450 0.64890 0.73590 0.02500
C 	C 	0.64836 0.71870 0.57541 0.10300
H 	H 	0.63950 0.72920 0.61300 -0.01800
C 	C 	0.90485 0.58410 0.81770 0.38500
C 	C 	0.77055 0.59150 0.46796 -0.14500
H 	H 	0.75420 0.60900 0.43010 0.10600
C 	C 	0.61407 0.31160 0.56079 0.40000
C 	C 	0.68321 0.27970 0.64560 0.07800
H 	H 	0.67320 0.21580 0.64710 0.01900
C 	C 	0.73686 0.40740 0.68226 0.06200
C 	C 	0.72310 0.31090 0.68428 -0.12200
H 	H 	0.74070 0.26820 0.71140 0.07600
C 	C 	0.65782 0.34290 0.60442 -0.15000
O 	O 	0.56847 0.83366 0.58423 -0.35000
C 	C 	0.85977 0.53450 0.78671 -0.12200
C 	C 	0.77926 0.44930 0.72246 0.05100
C 	C 	0.84925 0.43920 0.79914 0.04200
H 	H 	0.86870 0.40530 0.82960 0.03800
C 	C 	0.80904 0.39490 0.76519 -0.09900
H 	H 	0.80230 0.33000 0.77120 0.06500
H 	H 	0.98010 0.57500 0.42720 0.42300
H 	H 	0.02050 0.54200 0.41800 0.40400
Tb	Tb	0.46680 0.87557 0.45756 1.86900
Co	Co	0.23739 0.11682 0.64813 1.11900
Cl	Cl	0.27433 0.27213 0.66585 -0.51300
O 	O 	0.50103 0.03684 0.44259 -1.03200
O 	O 	0.41315 0.97749 0.59201 -0.33500
N 	N 	0.27374 0.08570 0.57475 -0.23500
O 	O 	0.42186 0.05480 0.86963 -0.44500
O 	O 	0.42193 0.14898 0.78886 -0.28500
O 	O 	0.40277 0.94720 0.49287 -0.47000
O 	O 	0.04830 0.33926 0.48358 -0.50200
N 	N 	0.28779 0.04380 0.71296 -0.23800
C 	C 	0.31749 0.04560 0.57962 0.10300
H 	H 	0.33380 0.03120 0.61800 0.00200
C 	C 	0.33980 0.02430 0.53103 -0.15700
C 	C 	0.20269 0.15680 0.51830 0.07100
O 	O 	0.10156 0.86050 0.51445 -0.30700
C 	C 	0.25030 0.10890 0.51928 0.06900
C 	C 	0.31547 0.04770 0.47375 0.08900
H 	H 	0.32920 0.03410 0.43970 0.02100
O 	O 	0.09350 0.73601 0.57578 -0.48300
N 	N 	0.18926 0.16960 0.57288 -0.24600
C 	C 	0.13164 0.23730 0.46907 0.09200
H 	H 	0.11180 0.25830 0.43420 0.01200
C 	C 	0.07485 0.31390 0.53204 0.40200
C 	C 	0.17445 0.93710 0.60366 0.09200
H 	H 	0.15850 0.97950 0.57500 -0.00400
C 	C 	0.17444 0.18830 0.46540 -0.14900
H 	H 	0.18390 0.17700 0.42820 0.11000
N 	N 	0.21236 0.97020 0.64223 -0.24600
C 	C 	0.38944 0.97960 0.54010 0.41600
C 	C 	0.11899 0.25440 0.52526 -0.16500
C 	C 	0.32788 0.08460 0.74371 0.07000
H 	H 	0.33450 0.14890 0.73590 0.02500
C 	C 	0.14836 0.21870 0.57541 0.10300
H 	H 	0.13950 0.22920 0.61300 -0.01800
C 	C 	0.40485 0.08410 0.81770 0.38500
C 	C 	0.27055 0.09150 0.46796 -0.14500
H 	H 	0.25420 0.10900 0.43010 0.10600
C 	C 	0.11407 0.81160 0.56079 0.40000
C 	C 	0.18321 0.77970 0.64560 0.07800
H 	H 	0.17320 0.71580 0.64710 0.01900
C 	C 	0.23686 0.90740 0.68226 0.06200
C 	C 	0.22310 0.81090 0.68428 -0.12200
H 	H 	0.24070 0.76820 0.71140 0.07600
C 	C 	0.15782 0.84290 0.60442 -0.15000
O 	O 	0.06847 0.33366 0.58423 -0.35000
C 	C 	0.35977 0.03450 0.78671 -0.12300
C 	C 	0.27926 0.94930 0.72246 0.05200
C 	C 	0.34925 0.93920 0.79914 0.04400
H 	H 	0.36870 0.90530 0.82960 0.03800
C 	C 	0.30904 0.89490 0.76519 -0.10000
H 	H 	0.30230 0.83000 0.77120 0.06500
H 	H 	0.48010 0.07500 0.42720 0.42300
H 	H 	0.52050 0.04200 0.41800 0.40400
Tb	Tb	0.96680 0.62443 0.95756 1.86500
Co	Co	0.73739 0.38318 0.14813 1.11900
Cl	Cl	0.77433 0.22787 0.16585 -0.51300
O 	O 	0.00103 0.46316 0.94259 -1.02700
O 	O 	0.91315 0.52251 0.09201 -0.33500
N 	N 	0.77374 0.41430 0.07475 -0.23500
O 	O 	0.92186 0.44520 0.36963 -0.44400
O 	O 	0.92193 0.35102 0.28886 -0.28500
O 	O 	0.90277 0.55280 0.99287 -0.47100
O 	O 	0.54830 0.16074 0.98358 -0.50300
N 	N 	0.78779 0.45620 0.21296 -0.23800
C 	C 	0.81749 0.45440 0.07962 0.10300
H 	H 	0.83380 0.46880 0.11800 0.00200
C 	C 	0.83980 0.47570 0.03103 -0.15500
C 	C 	0.70269 0.34320 0.01830 0.07300
O 	O 	0.60156 0.63950 0.01445 -0.30700
C 	C 	0.75030 0.39110 0.01928 0.07000
C 	C 	0.81547 0.45230 0.97375 0.08700
H 	H 	0.82920 0.46590 0.93970 0.02100
O 	O 	0.59350 0.76399 0.07578 -0.48300
N 	N 	0.68926 0.33040 0.07288 -0.24600
C 	C 	0.63164 0.26270 0.96907 0.09100
H 	H 	0.61180 0.24170 0.93420 0.01300
C 	C 	0.57485 0.18610 0.03204 0.40300
C 	C 	0.67445 0.56290 0.10366 0.09200
H 	H 	0.65850 0.52050 0.07500 -0.00400
C 	C 	0.67444 0.31170 0.96540 -0.15000
H 	H 	0.68390 0.32300 0.92820 0.11000
N 	N 	0.71236 0.52980 0.14223 -0.24600
C 	C 	0.88944 0.52040 0.04010 0.41700
C 	C 	0.61899 0.24560 0.02526 -0.16400
C 	C 	0.82788 0.41540 0.24371 0.07000
H 	H 	0.83450 0.35110 0.23590 0.02600
C 	C 	0.64836 0.28130 0.07541 0.10300
H 	H 	0.63950 0.27080 0.11300 -0.01800
C 	C 	0.90485 0.41590 0.31770 0.38500
C 	C 	0.77055 0.40850 0.96796 -0.14600
H 	H 	0.75420 0.39100 0.93010 0.10600
C 	C 	0.61407 0.68840 0.06079 0.39900
C 	C 	0.68321 0.72030 0.14560 0.07800
H 	H 	0.67320 0.78420 0.14710 0.01900
C 	C 	0.73686 0.59260 0.18226 0.06300
C 	C 	0.72310 0.68910 0.18428 -0.12200
H 	H 	0.74070 0.73180 0.21140 0.07600
C 	C 	0.65782 0.65710 0.10442 -0.15000
O 	O 	0.56847 0.16634 0.08423 -0.35000
C 	C 	0.85977 0.46550 0.28671 -0.12200
C 	C 	0.77926 0.55070 0.22246 0.05100
C 	C 	0.84925 0.56080 0.29914 0.04200
H 	H 	0.86870 0.59470 0.32960 0.03800
C 	C 	0.80904 0.60510 0.26519 -0.09900
H 	H 	0.80230 0.67000 0.27120 0.06500
H 	H 	0.98010 0.42500 0.92720 0.41900
H 	H 	0.02050 0.45800 0.91800 0.40400
Tb	Tb	0.46680 0.12443 0.95756 1.86800
Co	Co	0.23739 0.88318 0.14813 1.11900
Cl	Cl	0.27433 0.72787 0.16585 -0.51300
O 	O 	0.50103 0.96316 0.94259 -1.03200
O 	O 	0.41315 0.02251 0.09201 -0.33500
N 	N 	0.27374 0.91430 0.07475 -0.23600
O 	O 	0.42186 0.94520 0.36963 -0.44500
O 	O 	0.42193 0.85102 0.28886 -0.28500
O 	O 	0.40277 0.05280 0.99287 -0.47100
O 	O 	0.04830 0.66074 0.98358 -0.49900
N 	N 	0.28779 0.95620 0.21296 -0.23800
C 	C 	0.31749 0.95440 0.07962 0.10500
H 	H 	0.33380 0.96880 0.11800 0.00100
C 	C 	0.33980 0.97570 0.03103 -0.16000
C 	C 	0.20269 0.84320 0.01830 0.06900
O 	O 	0.10156 0.13950 0.01445 -0.30700
C 	C 	0.25030 0.89110 0.01928 0.06800
C 	C 	0.31547 0.95230 0.97375 0.09200
H 	H 	0.32920 0.96590 0.93970 0.02000
O 	O 	0.09350 0.26399 0.07578 -0.48300
N 	N 	0.18926 0.83040 0.07288 -0.24600
C 	C 	0.13164 0.76270 0.96907 0.09500
H 	H 	0.11180 0.74170 0.93420 0.01200
C 	C 	0.07485 0.68610 0.03204 0.39900
C 	C 	0.17445 0.06290 0.10366 0.09200
H 	H 	0.15850 0.02050 0.07500 -0.00400
C 	C 	0.17444 0.81170 0.96540 -0.14600
H 	H 	0.18390 0.82300 0.92820 0.11000
N 	N 	0.21236 0.02980 0.14223 -0.24500
C 	C 	0.38944 0.02040 0.04010 0.41800
C 	C 	0.11899 0.74560 0.02526 -0.16700
C 	C 	0.32788 0.91540 0.24371 0.07000
H 	H 	0.33450 0.85110 0.23590 0.02500
C 	C 	0.14836 0.78130 0.07541 0.10300
H 	H 	0.13950 0.77080 0.11300 -0.01800
C 	C 	0.40485 0.91590 0.31770 0.38500
C 	C 	0.27055 0.90850 0.96796 -0.14300
H 	H 	0.25420 0.89100 0.93010 0.10600
C 	C 	0.11407 0.18840 0.06079 0.39900
C 	C 	0.18321 0.22030 0.14560 0.07800
H 	H 	0.17320 0.28420 0.14710 0.01900
C 	C 	0.23686 0.09260 0.18226 0.06200
C 	C 	0.22310 0.18910 0.18428 -0.12200
H 	H 	0.24070 0.23180 0.21140 0.07600
C 	C 	0.15782 0.15710 0.10442 -0.15000
O 	O 	0.06847 0.66634 0.08423 -0.34900
C 	C 	0.35977 0.96550 0.28671 -0.12300
C 	C 	0.27926 0.05070 0.22246 0.05200
C 	C 	0.34925 0.06080 0.29914 0.04300
H 	H 	0.36870 0.09470 0.32960 0.03800
C 	C 	0.30904 0.10510 0.26519 -0.10000
H 	H 	0.30230 0.17000 0.27120 0.06500
H 	H 	0.48010 0.92500 0.92720 0.42300
H 	H 	0.52050 0.95800 0.91800 0.40400
Tb	Tb	0.03320 0.62443 0.54244 1.87000
Co	Co	0.26261 0.38318 0.35187 1.11900
Cl	Cl	0.22567 0.22787 0.33415 -0.51300
O 	O 	0.99897 0.46316 0.55741 -1.03300
O 	O 	0.08685 0.52251 0.40799 -0.33500
N 	N 	0.22626 0.41430 0.42525 -0.23500
O 	O 	0.07814 0.44520 0.13037 -0.44400
O 	O 	0.07807 0.35102 0.21114 -0.28500
O 	O 	0.09723 0.55280 0.50713 -0.47000
O 	O 	0.45170 0.16074 0.51642 -0.50200
N 	N 	0.21221 0.45620 0.28704 -0.23800
C 	C 	0.18251 0.45440 0.42038 0.10300
H 	H 	0.16620 0.46880 0.38200 0.00200
C 	C 	0.16020 0.47570 0.46897 -0.15700
C 	C 	0.29731 0.34320 0.48170 0.07100
O 	O 	0.39844 0.63950 0.48555 -0.30700
C 	C 	0.24970 0.39110 0.48072 0.06900
C 	C 	0.18453 0.45230 0.52625 0.08900
H 	H 	0.17080 0.46590 0.56030 0.02100
O 	O 	0.40650 0.76399 0.42422 -0.48300
N 	N 	0.31074 0.33040 0.42712 -0.24600
C 	C 	0.36836 0.26270 0.53093 0.09200
H 	H 	0.38820 0.24170 0.56580 0.01200
C 	C 	0.42515 0.18610 0.46796 0.40200
C 	C 	0.32555 0.56290 0.39634 0.09200
H 	H 	0.34150 0.52050 0.42500 -0.00400
C 	C 	0.32556 0.31170 0.53460 -0.14900
H 	H 	0.31610 0.32300 0.57180 0.11000
N 	N 	0.28764 0.52980 0.35777 -0.24600
C 	C 	0.11056 0.52040 0.45990 0.41600
C 	C 	0.38101 0.24560 0.47474 -0.16500
C 	C 	0.17212 0.41540 0.25629 0.07000
H 	H 	0.16550 0.35110 0.26410 0.02500
C 	C 	0.35164 0.28130 0.42459 0.10300
H 	H 	0.36050 0.27080 0.38700 -0.01800
C 	C 	0.09515 0.41590 0.18230 0.38500
C 	C 	0.22945 0.40850 0.53204 -0.14500
H 	H 	0.24580 0.39100 0.56990 0.10600
C 	C 	0.38593 0.68840 0.43921 0.40000
C 	C 	0.31679 0.72030 0.35440 0.07800
H 	H 	0.32680 0.78420 0.35290 0.01900
C 	C 	0.26314 0.59260 0.31774 0.06200
C 	C 	0.27690 0.68910 0.31572 -0.12200
H 	H 	0.25930 0.73180 0.28860 0.07600
C 	C 	0.34218 0.65710 0.39558 -0.15000
O 	O 	0.43153 0.16634 0.41577 -0.35000
C 	C 	0.14023 0.46550 0.21329 -0.12200
C 	C 	0.22074 0.55070 0.27754 0.05100
C 	C 	0.15075 0.56080 0.20086 0.04200
H 	H 	0.13130 0.59470 0.17040 0.03800
C 	C 	0.19096 0.60510 0.23481 -0.09900
H 	H 	0.19770 0.67000 0.22880 0.06500
H 	H 	0.01990 0.42500 0.57280 0.42300
H 	H 	0.97950 0.45800 0.58200 0.40400
Tb	Tb	0.53320 0.12443 0.54244 1.86900
Co	Co	0.76261 0.88318 0.35187 1.11900
Cl	Cl	0.72567 0.72787 0.33415 -0.51300
O 	O 	0.49897 0.96316 0.55741 -1.03200
O 	O 	0.58685 0.02251 0.40799 -0.33500
N 	N 	0.72626 0.91430 0.42525 -0.23500
O 	O 	0.57814 0.94520 0.13037 -0.44500
O 	O 	0.57807 0.85102 0.21114 -0.28500
O 	O 	0.59723 0.05280 0.50713 -0.47000
O 	O 	0.95170 0.66074 0.51642 -0.50200
N 	N 	0.71221 0.95620 0.28704 -0.23800
C 	C 	0.68251 0.95440 0.42038 0.10300
H 	H 	0.66620 0.96880 0.38200 0.00200
C 	C 	0.66020 0.97570 0.46897 -0.15700
C 	C 	0.79731 0.84320 0.48170 0.07100
O 	O 	0.89844 0.13950 0.48555 -0.30700
C 	C 	0.74970 0.89110 0.48072 0.06900
C 	C 	0.68453 0.95230 0.52625 0.08900
H 	H 	0.67080 0.96590 0.56030 0.02100
O 	O 	0.90650 0.26399 0.42422 -0.48300
N 	N 	0.81074 0.83040 0.42712 -0.24600
C 	C 	0.86836 0.76270 0.53093 0.09200
H 	H 	0.88820 0.74170 0.56580 0.01200
C 	C 	0.92515 0.68610 0.46796 0.40200
C 	C 	0.82555 0.06290 0.39634 0.09200
H 	H 	0.84150 0.02050 0.42500 -0.00400
C 	C 	0.82556 0.81170 0.53460 -0.14900
H 	H 	0.81610 0.82300 0.57180 0.11000
N 	N 	0.78764 0.02980 0.35777 -0.24600
C 	C 	0.61056 0.02040 0.45990 0.41600
C 	C 	0.88101 0.74560 0.47474 -0.16500
C 	C 	0.67212 0.91540 0.25629 0.07000
H 	H 	0.66550 0.85110 0.26410 0.02500
C 	C 	0.85164 0.78130 0.42459 0.10300
H 	H 	0.86050 0.77080 0.38700 -0.01800
C 	C 	0.59515 0.91590 0.18230 0.38500
C 	C 	0.72945 0.90850 0.53204 -0.14500
H 	H 	0.74580 0.89100 0.56990 0.10600
C 	C 	0.88593 0.18840 0.43921 0.40000
C 	C 	0.81679 0.22030 0.35440 0.07800
H 	H 	0.82680 0.28420 0.35290 0.01900
C 	C 	0.76314 0.09260 0.31774 0.06200
C 	C 	0.77690 0.18910 0.31572 -0.12200
H 	H 	0.75930 0.23180 0.28860 0.07600
C 	C 	0.84218 0.15710 0.39558 -0.15000
O 	O 	0.93153 0.66634 0.41577 -0.35000
C 	C 	0.64023 0.96550 0.21329 -0.12300
C 	C 	0.72074 0.05070 0.27754 0.05200
C 	C 	0.65075 0.06080 0.20086 0.04400
H 	H 	0.63130 0.09470 0.17040 0.03800
C 	C 	0.69096 0.10510 0.23481 -0.10000
H 	H 	0.69770 0.17000 0.22880 0.06500
H 	H 	0.51990 0.92500 0.57280 0.42300
H 	H 	0.47950 0.95800 0.58200 0.40400
