data_crystal

_cell_length_a 27.99270
_cell_length_b 13.97550
_cell_length_c 22.61840
_cell_angle_alpha 90.00000
_cell_angle_beta  99.52720
_cell_angle_gamma 90.00000

_symmetry_space_group_name_	'P 1'
_symmetry_space_group_name_H-M	'P 1'

loop_
_symmetry_equiv_pos_as_xyz
  x,y,z

loop_
_atom_site_label
_atom_site_type_symbol
_atom_site_fract_x
_atom_site_fract_y
_atom_site_fract_z
_atom_site_charge
Tb	Tb	0.03293 0.87657 0.04300 1.85000
Zn	Zn	0.26291 0.87943 0.35197 1.17900
C 	C 	0.19423 0.10060 0.23299 -0.13400
H 	H 	0.19990 0.15900 0.22600 0.08500
O 	O 	0.07987 0.94562 0.13000 -0.43600
O 	O 	0.08677 0.02548 0.40892 -0.33500
O 	O 	0.99979 0.03716 0.05690 -0.95800
C 	C 	0.15376 0.05880 0.20012 0.06500
H 	H 	0.13390 0.09300 0.16810 0.03000
O 	O 	0.43006 0.66354 0.41753 -0.34700
N 	N 	0.22613 0.91557 0.42644 -0.23500
O 	O 	0.07725 0.85621 0.21170 -0.28000
C 	C 	0.16009 0.97715 0.46942 -0.15000
N 	N 	0.21248 0.95600 0.28805 -0.24800
C 	C 	0.24951 0.89119 0.48142 0.04600
O 	O 	0.40160 0.13885 0.48366 -0.31700
O 	O 	0.45085 0.65797 0.51765 -0.50000
N 	N 	0.31120 0.83090 0.42889 -0.26400
C 	C 	0.29698 0.84302 0.48274 0.10000
C 	C 	0.18432 0.95276 0.52659 0.06900
H 	H 	0.17000 0.97270 0.56190 0.03000
C 	C 	0.36718 0.76048 0.53193 0.15000
H 	H 	0.38350 0.73450 0.56260 -0.01300
C 	C 	0.11071 0.02278 0.46099 0.41400
C 	C 	0.42413 0.68404 0.46934 0.40900
N 	N 	0.29045 0.02769 0.35722 -0.28900
O 	O 	0.40844 0.26276 0.42327 -0.49600
O 	O 	0.09737 0.05455 0.50737 -0.47600
C 	C 	0.38894 0.18700 0.43760 0.44900
C 	C 	0.32861 0.06070 0.39460 0.24100
H 	H 	0.34090 0.02400 0.41670 -0.08400
C 	C 	0.38054 0.74374 0.47658 -0.19100
C 	C 	0.18250 0.95652 0.42143 0.10200
H 	H 	0.16800 0.97410 0.38310 0.00000
C 	C 	0.17229 0.91743 0.25743 0.08000
H 	H 	0.16560 0.85300 0.26820 0.02000
C 	C 	0.35176 0.78153 0.42659 0.12100
H 	H 	0.36210 0.76970 0.39220 -0.02700
C 	C 	0.22898 0.90842 0.53228 -0.11000
H 	H 	0.24610 0.88740 0.57160 0.08900
C 	C 	0.09568 0.91883 0.18257 0.38200
C 	C 	0.26622 0.08870 0.31704 0.14000
C 	C 	0.14124 0.96606 0.21360 -0.13200
C 	C 	0.32494 0.80975 0.53512 -0.21400
H 	H 	0.31400 0.81330 0.56960 0.14200
C 	C 	0.22288 0.04810 0.27753 0.03800
Cl	Cl	0.22453 0.72885 0.33420 -0.54200
C 	C 	0.34540 0.15320 0.39421 -0.26800
C 	C 	0.28054 0.18220 0.31349 -0.32400
H 	H 	0.26620 0.22400 0.29150 0.17400
C 	C 	0.32078 0.21420 0.35171 0.25200
H 	H 	0.33080 0.27100 0.35000 -0.05500
H 	H 	0.97860 0.04200 0.07760 0.41000
H 	H 	0.02280 0.07700 0.07470 0.34800
Tb	Tb	0.53293 0.37657 0.04300 1.85600
Zn	Zn	0.76291 0.37943 0.35197 1.18000
C 	C 	0.69423 0.60060 0.23299 -0.13200
H 	H 	0.69990 0.65900 0.22600 0.08500
O 	O 	0.57987 0.44562 0.13000 -0.43600
O 	O 	0.58677 0.52548 0.40892 -0.33500
O 	O 	0.49979 0.53716 0.05690 -0.96300
C 	C 	0.65376 0.55880 0.20012 0.06300
H 	H 	0.63390 0.59300 0.16810 0.03000
O 	O 	0.93006 0.16354 0.41753 -0.34700
N 	N 	0.72613 0.41557 0.42644 -0.23500
O 	O 	0.57725 0.35621 0.21170 -0.28000
C 	C 	0.66009 0.47715 0.46942 -0.15000
N 	N 	0.71248 0.45600 0.28805 -0.24700
C 	C 	0.74951 0.39119 0.48142 0.04600
O 	O 	0.90160 0.63885 0.48366 -0.31700
O 	O 	0.95085 0.15797 0.51765 -0.50000
N 	N 	0.81120 0.33090 0.42889 -0.26400
C 	C 	0.79698 0.34302 0.48274 0.10000
C 	C 	0.68432 0.45276 0.52659 0.06900
H 	H 	0.67000 0.47270 0.56190 0.03100
C 	C 	0.86718 0.26048 0.53193 0.15000
H 	H 	0.88350 0.23450 0.56260 -0.01300
C 	C 	0.61071 0.52278 0.46099 0.41400
C 	C 	0.92413 0.18404 0.46934 0.40900
N 	N 	0.79045 0.52769 0.35722 -0.28900
O 	O 	0.90844 0.76276 0.42327 -0.49600
O 	O 	0.59737 0.55455 0.50737 -0.47500
C 	C 	0.88894 0.68700 0.43760 0.44900
C 	C 	0.82861 0.56070 0.39460 0.24100
H 	H 	0.84090 0.52400 0.41670 -0.08400
C 	C 	0.88054 0.24374 0.47658 -0.19100
C 	C 	0.68250 0.45652 0.42143 0.10200
H 	H 	0.66800 0.47410 0.38310 0.00100
C 	C 	0.67229 0.41743 0.25743 0.08000
H 	H 	0.66560 0.35300 0.26820 0.02100
C 	C 	0.85176 0.28153 0.42659 0.12100
H 	H 	0.86210 0.26970 0.39220 -0.02700
C 	C 	0.72898 0.40842 0.53228 -0.11000
H 	H 	0.74610 0.38740 0.57160 0.08900
C 	C 	0.59568 0.41883 0.18257 0.38200
C 	C 	0.76622 0.58870 0.31704 0.14000
C 	C 	0.64124 0.46606 0.21360 -0.13100
C 	C 	0.82494 0.30975 0.53512 -0.21400
H 	H 	0.81400 0.31330 0.56960 0.14200
C 	C 	0.72288 0.54810 0.27753 0.03800
Cl	Cl	0.72453 0.22885 0.33420 -0.54200
C 	C 	0.84540 0.65320 0.39421 -0.26800
C 	C 	0.78054 0.68220 0.31349 -0.32400
H 	H 	0.76620 0.72400 0.29150 0.17400
C 	C 	0.82078 0.71420 0.35171 0.25200
H 	H 	0.83080 0.77100 0.35000 -0.05500
H 	H 	0.47860 0.54200 0.07760 0.41100
H 	H 	0.52280 0.57700 0.07470 0.35100
Tb	Tb	0.96707 0.87657 0.45700 1.85700
Zn	Zn	0.73709 0.87943 0.14803 1.18000
C 	C 	0.80577 0.10060 0.26701 -0.13300
H 	H 	0.80010 0.15900 0.27400 0.08600
O 	O 	0.92013 0.94562 0.37000 -0.43600
O 	O 	0.91323 0.02548 0.09108 -0.33500
O 	O 	0.00021 0.03716 0.44310 -0.96400
C 	C 	0.84624 0.05880 0.29988 0.06500
H 	H 	0.86610 0.09300 0.33190 0.03000
O 	O 	0.56994 0.66354 0.08247 -0.34700
N 	N 	0.77387 0.91557 0.07356 -0.23500
O 	O 	0.92275 0.85621 0.28830 -0.28000
C 	C 	0.83991 0.97715 0.03058 -0.15200
N 	N 	0.78752 0.95600 0.21195 -0.24800
C 	C 	0.75049 0.89119 0.01858 0.04700
O 	O 	0.59840 0.13885 0.01634 -0.31600
O 	O 	0.54915 0.65797 0.98235 -0.50000
N 	N 	0.68880 0.83090 0.07111 -0.26400
C 	C 	0.70302 0.84302 0.01726 0.10000
C 	C 	0.81568 0.95276 0.97341 0.07000
H 	H 	0.83000 0.97270 0.93810 0.03000
C 	C 	0.63282 0.76048 0.96807 0.15000
H 	H 	0.61650 0.73450 0.93740 -0.01300
C 	C 	0.88929 0.02278 0.03901 0.41800
C 	C 	0.57587 0.68404 0.03066 0.40900
N 	N 	0.70955 0.02769 0.14278 -0.28900
O 	O 	0.59156 0.26276 0.07673 -0.49600
O 	O 	0.90263 0.05455 0.99263 -0.47800
C 	C 	0.61106 0.18700 0.06240 0.44900
C 	C 	0.67139 0.06070 0.10540 0.24100
H 	H 	0.65910 0.02400 0.08330 -0.08400
C 	C 	0.61946 0.74374 0.02342 -0.19100
C 	C 	0.81750 0.95652 0.07857 0.10300
H 	H 	0.83200 0.97410 0.11690 0.00000
C 	C 	0.82771 0.91743 0.24257 0.08000
H 	H 	0.83440 0.85300 0.23180 0.02100
C 	C 	0.64824 0.78153 0.07341 0.12100
H 	H 	0.63790 0.76970 0.10780 -0.02700
C 	C 	0.77102 0.90842 0.96772 -0.11100
H 	H 	0.75390 0.88740 0.92840 0.08900
C 	C 	0.90432 0.91883 0.31743 0.38200
C 	C 	0.73378 0.08870 0.18296 0.14000
C 	C 	0.85876 0.96606 0.28640 -0.13200
C 	C 	0.67506 0.80975 0.96488 -0.21400
H 	H 	0.68600 0.81330 0.93040 0.14200
C 	C 	0.77712 0.04810 0.22247 0.03900
Cl	Cl	0.77547 0.72885 0.16580 -0.54200
C 	C 	0.65460 0.15320 0.10579 -0.26700
C 	C 	0.71946 0.18220 0.18651 -0.32300
H 	H 	0.73380 0.22400 0.20850 0.17400
C 	C 	0.67922 0.21420 0.14829 0.25200
H 	H 	0.66920 0.27100 0.15000 -0.05500
H 	H 	0.02140 0.04200 0.42240 0.41100
H 	H 	0.97720 0.07700 0.42530 0.35100
Tb	Tb	0.46707 0.37657 0.45700 1.85600
Zn	Zn	0.23709 0.37943 0.14803 1.18000
C 	C 	0.30577 0.60060 0.26701 -0.13200
H 	H 	0.30010 0.65900 0.27400 0.08500
O 	O 	0.42013 0.44562 0.37000 -0.43600
O 	O 	0.41323 0.52548 0.09108 -0.33500
O 	O 	0.50021 0.53716 0.44310 -0.96300
C 	C 	0.34624 0.55880 0.29988 0.06300
H 	H 	0.36610 0.59300 0.33190 0.03000
O 	O 	0.06994 0.16354 0.08247 -0.34700
N 	N 	0.27387 0.41557 0.07356 -0.23500
O 	O 	0.42275 0.35621 0.28830 -0.28000
C 	C 	0.33991 0.47715 0.03058 -0.15100
N 	N 	0.28752 0.45600 0.21195 -0.24700
C 	C 	0.25049 0.39119 0.01858 0.04600
O 	O 	0.09840 0.63885 0.01634 -0.31700
O 	O 	0.04915 0.15797 0.98235 -0.49800
N 	N 	0.18880 0.33090 0.07111 -0.26400
C 	C 	0.20302 0.34302 0.01726 0.10000
C 	C 	0.31568 0.45276 0.97341 0.07000
H 	H 	0.33000 0.47270 0.93810 0.03000
C 	C 	0.13282 0.26048 0.96807 0.15100
H 	H 	0.11650 0.23450 0.93740 -0.01300
C 	C 	0.38929 0.52278 0.03901 0.41300
C 	C 	0.07587 0.18404 0.03066 0.40800
N 	N 	0.20955 0.52769 0.14278 -0.28900
O 	O 	0.09156 0.76276 0.07673 -0.49600
O 	O 	0.40263 0.55455 0.99263 -0.47500
C 	C 	0.11106 0.68700 0.06240 0.44800
C 	C 	0.17139 0.56070 0.10540 0.24100
H 	H 	0.15910 0.52400 0.08330 -0.08400
C 	C 	0.11946 0.24374 0.02342 -0.19200
C 	C 	0.31750 0.45652 0.07857 0.10200
H 	H 	0.33200 0.47410 0.11690 0.00000
C 	C 	0.32771 0.41743 0.24257 0.08000
H 	H 	0.33440 0.35300 0.23180 0.02100
C 	C 	0.14824 0.28153 0.07341 0.12200
H 	H 	0.13790 0.26970 0.10780 -0.02700
C 	C 	0.27102 0.40842 0.96772 -0.10900
H 	H 	0.25390 0.38740 0.92840 0.08900
C 	C 	0.40432 0.41883 0.31743 0.38200
C 	C 	0.23378 0.58870 0.18296 0.14000
C 	C 	0.35876 0.46606 0.28640 -0.13100
C 	C 	0.17506 0.30975 0.96488 -0.21300
H 	H 	0.18600 0.31330 0.93040 0.14100
C 	C 	0.27712 0.54810 0.22247 0.03800
Cl	Cl	0.27547 0.22885 0.16580 -0.54200
C 	C 	0.15460 0.65320 0.10579 -0.26800
C 	C 	0.21946 0.68220 0.18651 -0.32400
H 	H 	0.23380 0.72400 0.20850 0.17400
C 	C 	0.17922 0.71420 0.14829 0.25200
H 	H 	0.16920 0.77100 0.15000 -0.05500
H 	H 	0.52140 0.54200 0.42240 0.41100
H 	H 	0.47720 0.57700 0.42530 0.35100
Tb	Tb	0.96707 0.12343 0.95700 1.85100
Zn	Zn	0.73709 0.12057 0.64803 1.18000
C 	C 	0.80577 0.89940 0.76701 -0.13300
H 	H 	0.80010 0.84100 0.77400 0.08600
O 	O 	0.92013 0.05438 0.87000 -0.43600
O 	O 	0.91323 0.97452 0.59108 -0.33500
O 	O 	0.00021 0.96284 0.94310 -0.95800
C 	C 	0.84624 0.94120 0.79988 0.06500
H 	H 	0.86610 0.90700 0.83190 0.03000
O 	O 	0.56994 0.33646 0.58247 -0.34700
N 	N 	0.77387 0.08443 0.57356 -0.23500
O 	O 	0.92275 0.14379 0.78830 -0.28000
C 	C 	0.83991 0.02285 0.53058 -0.15000
N 	N 	0.78752 0.04400 0.71195 -0.24800
C 	C 	0.75049 0.10881 0.51858 0.04600
O 	O 	0.59840 0.86115 0.51634 -0.31700
O 	O 	0.54915 0.34203 0.48235 -0.50000
N 	N 	0.68880 0.16910 0.57111 -0.26400
C 	C 	0.70302 0.15698 0.51726 0.10000
C 	C 	0.81568 0.04724 0.47341 0.06900
H 	H 	0.83000 0.02730 0.43810 0.03000
C 	C 	0.63282 0.23952 0.46807 0.15000
H 	H 	0.61650 0.26550 0.43740 -0.01300
C 	C 	0.88929 0.97722 0.53901 0.41400
C 	C 	0.57587 0.31596 0.53066 0.40900
N 	N 	0.70955 0.97231 0.64278 -0.28900
O 	O 	0.59156 0.73724 0.57673 -0.49600
O 	O 	0.90263 0.94545 0.49263 -0.47600
C 	C 	0.61106 0.81300 0.56240 0.44900
C 	C 	0.67139 0.93930 0.60540 0.24100
H 	H 	0.65910 0.97600 0.58330 -0.08400
C 	C 	0.61946 0.25626 0.52342 -0.19100
C 	C 	0.81750 0.04348 0.57857 0.10200
H 	H 	0.83200 0.02590 0.61690 0.00000
C 	C 	0.82771 0.08257 0.74257 0.08000
H 	H 	0.83440 0.14700 0.73180 0.02000
C 	C 	0.64824 0.21847 0.57341 0.12100
H 	H 	0.63790 0.23030 0.60780 -0.02700
C 	C 	0.77102 0.09158 0.46772 -0.11000
H 	H 	0.75390 0.11260 0.42840 0.08900
C 	C 	0.90432 0.08117 0.81743 0.38200
C 	C 	0.73378 0.91130 0.68296 0.14000
C 	C 	0.85876 0.03394 0.78640 -0.13200
C 	C 	0.67506 0.19025 0.46488 -0.21400
H 	H 	0.68600 0.18670 0.43040 0.14200
C 	C 	0.77712 0.95190 0.72247 0.03800
Cl	Cl	0.77547 0.27115 0.66580 -0.54200
C 	C 	0.65460 0.84680 0.60579 -0.26800
C 	C 	0.71946 0.81780 0.68651 -0.32400
H 	H 	0.73380 0.77600 0.70850 0.17400
C 	C 	0.67922 0.78580 0.64829 0.25200
H 	H 	0.66920 0.72900 0.65000 -0.05500
H 	H 	0.02140 0.95800 0.92240 0.41000
H 	H 	0.97720 0.92300 0.92530 0.34800
Tb	Tb	0.46707 0.62343 0.95700 1.85600
Zn	Zn	0.23709 0.62057 0.64803 1.18000
C 	C 	0.30577 0.39940 0.76701 -0.13200
H 	H 	0.30010 0.34100 0.77400 0.08500
O 	O 	0.42013 0.55438 0.87000 -0.43600
O 	O 	0.41323 0.47452 0.59108 -0.33500
O 	O 	0.50021 0.46284 0.94310 -0.96300
C 	C 	0.34624 0.44120 0.79988 0.06300
H 	H 	0.36610 0.40700 0.83190 0.03000
O 	O 	0.06994 0.83646 0.58247 -0.34700
N 	N 	0.27387 0.58443 0.57356 -0.23500
O 	O 	0.42275 0.64379 0.78830 -0.28000
C 	C 	0.33991 0.52285 0.53058 -0.15000
N 	N 	0.28752 0.54400 0.71195 -0.24700
C 	C 	0.25049 0.60881 0.51858 0.04600
O 	O 	0.09840 0.36115 0.51634 -0.31700
O 	O 	0.04915 0.84203 0.48235 -0.50000
N 	N 	0.18880 0.66910 0.57111 -0.26400
C 	C 	0.20302 0.65698 0.51726 0.10000
C 	C 	0.31568 0.54724 0.47341 0.06900
H 	H 	0.33000 0.52730 0.43810 0.03100
C 	C 	0.13282 0.73952 0.46807 0.15000
H 	H 	0.11650 0.76550 0.43740 -0.01300
C 	C 	0.38929 0.47722 0.53901 0.41400
C 	C 	0.07587 0.81596 0.53066 0.40900
N 	N 	0.20955 0.47231 0.64278 -0.28900
O 	O 	0.09156 0.23724 0.57673 -0.49600
O 	O 	0.40263 0.44545 0.49263 -0.47500
C 	C 	0.11106 0.31300 0.56240 0.44900
C 	C 	0.17139 0.43930 0.60540 0.24100
H 	H 	0.15910 0.47600 0.58330 -0.08400
C 	C 	0.11946 0.75626 0.52342 -0.19100
C 	C 	0.31750 0.54348 0.57857 0.10200
H 	H 	0.33200 0.52590 0.61690 0.00100
C 	C 	0.32771 0.58257 0.74257 0.08000
H 	H 	0.33440 0.64700 0.73180 0.02100
C 	C 	0.14824 0.71847 0.57341 0.12100
H 	H 	0.13790 0.73030 0.60780 -0.02700
C 	C 	0.27102 0.59158 0.46772 -0.11000
H 	H 	0.25390 0.61260 0.42840 0.08900
C 	C 	0.40432 0.58117 0.81743 0.38200
C 	C 	0.23378 0.41130 0.68296 0.14000
C 	C 	0.35876 0.53394 0.78640 -0.13100
C 	C 	0.17506 0.69025 0.46488 -0.21400
H 	H 	0.18600 0.68670 0.43040 0.14200
C 	C 	0.27712 0.45190 0.72247 0.03800
Cl	Cl	0.27547 0.77115 0.66580 -0.54200
C 	C 	0.15460 0.34680 0.60579 -0.26800
C 	C 	0.21946 0.31780 0.68651 -0.32400
H 	H 	0.23380 0.27600 0.70850 0.17400
C 	C 	0.17922 0.28580 0.64829 0.25200
H 	H 	0.16920 0.22900 0.65000 -0.05500
H 	H 	0.52140 0.45800 0.92240 0.41100
H 	H 	0.47720 0.42300 0.92530 0.35100
Tb	Tb	0.03293 0.12343 0.54300 1.85700
Zn	Zn	0.26291 0.12057 0.85197 1.18000
C 	C 	0.19423 0.89940 0.73299 -0.13300
H 	H 	0.19990 0.84100 0.72600 0.08600
O 	O 	0.07987 0.05438 0.63000 -0.43600
O 	O 	0.08677 0.97452 0.90892 -0.33500
O 	O 	0.99979 0.96284 0.55690 -0.96400
C 	C 	0.15376 0.94120 0.70012 0.06500
H 	H 	0.13390 0.90700 0.66810 0.03000
O 	O 	0.43006 0.33646 0.91753 -0.34700
N 	N 	0.22613 0.08443 0.92644 -0.23500
O 	O 	0.07725 0.14379 0.71170 -0.28000
C 	C 	0.16009 0.02285 0.96942 -0.15200
N 	N 	0.21248 0.04400 0.78805 -0.24800
C 	C 	0.24951 0.10881 0.98142 0.04700
O 	O 	0.40160 0.86115 0.98366 -0.31600
O 	O 	0.45085 0.34203 0.01765 -0.50000
N 	N 	0.31120 0.16910 0.92889 -0.26400
C 	C 	0.29698 0.15698 0.98274 0.10000
C 	C 	0.18432 0.04724 0.02659 0.07000
H 	H 	0.17000 0.02730 0.06190 0.03000
C 	C 	0.36718 0.23952 0.03193 0.15000
H 	H 	0.38350 0.26550 0.06260 -0.01300
C 	C 	0.11071 0.97722 0.96099 0.41800
C 	C 	0.42413 0.31596 0.96934 0.40900
N 	N 	0.29045 0.97231 0.85722 -0.28900
O 	O 	0.40844 0.73724 0.92327 -0.49600
O 	O 	0.09737 0.94545 0.00737 -0.47800
C 	C 	0.38894 0.81300 0.93760 0.44900
C 	C 	0.32861 0.93930 0.89460 0.24100
H 	H 	0.34090 0.97600 0.91670 -0.08400
C 	C 	0.38054 0.25626 0.97658 -0.19100
C 	C 	0.18250 0.04348 0.92143 0.10300
H 	H 	0.16800 0.02590 0.88310 0.00000
C 	C 	0.17229 0.08257 0.75743 0.08000
H 	H 	0.16560 0.14700 0.76820 0.02100
C 	C 	0.35176 0.21847 0.92659 0.12100
H 	H 	0.36210 0.23030 0.89220 -0.02700
C 	C 	0.22898 0.09158 0.03228 -0.11100
H 	H 	0.24610 0.11260 0.07160 0.08900
C 	C 	0.09568 0.08117 0.68257 0.38200
C 	C 	0.26622 0.91130 0.81704 0.14000
C 	C 	0.14124 0.03394 0.71360 -0.13200
C 	C 	0.32494 0.19025 0.03512 -0.21400
H 	H 	0.31400 0.18670 0.06960 0.14200
C 	C 	0.22288 0.95190 0.77753 0.03900
Cl	Cl	0.22453 0.27115 0.83420 -0.54200
C 	C 	0.34540 0.84680 0.89421 -0.26700
C 	C 	0.28054 0.81780 0.81349 -0.32300
H 	H 	0.26620 0.77600 0.79150 0.17400
C 	C 	0.32078 0.78580 0.85171 0.25200
H 	H 	0.33080 0.72900 0.85000 -0.05500
H 	H 	0.97860 0.95800 0.57760 0.41100
H 	H 	0.02280 0.92300 0.57470 0.35100
Tb	Tb	0.53293 0.62343 0.54300 1.85600
Zn	Zn	0.76291 0.62057 0.85197 1.18000
C 	C 	0.69423 0.39940 0.73299 -0.13200
H 	H 	0.69990 0.34100 0.72600 0.08500
O 	O 	0.57987 0.55438 0.63000 -0.43600
O 	O 	0.58677 0.47452 0.90892 -0.33500
O 	O 	0.49979 0.46284 0.55690 -0.96300
C 	C 	0.65376 0.44120 0.70012 0.06300
H 	H 	0.63390 0.40700 0.66810 0.03000
O 	O 	0.93006 0.83646 0.91753 -0.34700
N 	N 	0.72613 0.58443 0.92644 -0.23500
O 	O 	0.57725 0.64379 0.71170 -0.28000
C 	C 	0.66009 0.52285 0.96942 -0.15100
N 	N 	0.71248 0.54400 0.78805 -0.24700
C 	C 	0.74951 0.60881 0.98142 0.04600
O 	O 	0.90160 0.36115 0.98366 -0.31700
O 	O 	0.95085 0.84203 0.01765 -0.49800
N 	N 	0.81120 0.66910 0.92889 -0.26400
C 	C 	0.79698 0.65698 0.98274 0.10000
C 	C 	0.68432 0.54724 0.02659 0.07000
H 	H 	0.67000 0.52730 0.06190 0.03000
C 	C 	0.86718 0.73952 0.03193 0.15100
H 	H 	0.88350 0.76550 0.06260 -0.01300
C 	C 	0.61071 0.47722 0.96099 0.41300
C 	C 	0.92413 0.81596 0.96934 0.40800
N 	N 	0.79045 0.47231 0.85722 -0.28900
O 	O 	0.90844 0.23724 0.92327 -0.49600
O 	O 	0.59737 0.44545 0.00737 -0.47500
C 	C 	0.88894 0.31300 0.93760 0.44800
C 	C 	0.82861 0.43930 0.89460 0.24100
H 	H 	0.84090 0.47600 0.91670 -0.08400
C 	C 	0.88054 0.75626 0.97658 -0.19200
C 	C 	0.68250 0.54348 0.92143 0.10200
H 	H 	0.66800 0.52590 0.88310 0.00000
C 	C 	0.67229 0.58257 0.75743 0.08000
H 	H 	0.66560 0.64700 0.76820 0.02100
C 	C 	0.85176 0.71847 0.92659 0.12200
H 	H 	0.86210 0.73030 0.89220 -0.02700
C 	C 	0.72898 0.59158 0.03228 -0.10900
H 	H 	0.74610 0.61260 0.07160 0.08900
C 	C 	0.59568 0.58117 0.68257 0.38200
C 	C 	0.76622 0.41130 0.81704 0.14000
C 	C 	0.64124 0.53394 0.71360 -0.13100
C 	C 	0.82494 0.69025 0.03512 -0.21300
H 	H 	0.81400 0.68670 0.06960 0.14100
C 	C 	0.72288 0.45190 0.77753 0.03800
Cl	Cl	0.72453 0.77115 0.83420 -0.54200
C 	C 	0.84540 0.34680 0.89421 -0.26800
C 	C 	0.78054 0.31780 0.81349 -0.32400
H 	H 	0.76620 0.27600 0.79150 0.17400
C 	C 	0.82078 0.28580 0.85171 0.25200
H 	H 	0.83080 0.22900 0.85000 -0.05500
H 	H 	0.47860 0.45800 0.57760 0.41100
H 	H 	0.52280 0.42300 0.57470 0.35100
