data_crystal

_cell_length_a 18.89840
_cell_length_b 17.70310
_cell_length_c 14.47540
_cell_angle_alpha 90.00000
_cell_angle_beta  96.60200
_cell_angle_gamma 90.00000

_symmetry_space_group_name_	'P 1'
_symmetry_space_group_name_H-M	'P 1'

loop_
_symmetry_equiv_pos_as_xyz
  x,y,z

loop_
_atom_site_label
_atom_site_type_symbol
_atom_site_fract_x
_atom_site_fract_y
_atom_site_fract_z
_atom_site_charge
Zn	Zn	0.29021 0.24716 0.07397 1.22400
Zn	Zn	0.16559 0.31171 0.88314 1.23600
O 	O 	0.90150 0.33440 0.22970 -0.41200
O 	O 	0.96530 0.32300 0.11570 -0.31700
O 	O 	0.25392 0.31140 0.81970 -0.42600
O 	O 	0.32350 0.30640 0.95560 -0.42300
O 	O 	0.62690 0.27700 0.84360 -0.45100
O 	O 	0.57060 0.19290 0.92080 -0.28400
O 	O 	0.18220 0.40240 0.96300 -0.43000
O 	O 	0.21228 0.32210 0.07870 -0.49400
O 	O 	0.24350 0.66620 0.00860 -0.51700
O 	O 	0.34120 0.70020 0.09730 -0.47400
N 	N 	0.41260 0.41740 0.45030 -0.14500
N 	N 	0.32250 0.36230 0.53260 -0.15900
N 	N 	0.29270 0.41280 0.37840 -0.17100
N 	N 	0.44140 0.37200 0.59600 -0.13300
N 	N 	0.38090 0.46970 0.30990 -0.13500
N 	N 	0.20840 0.35340 0.46350 -0.15200
C 	C 	0.14990 0.35250 0.39430 0.21200
C 	C 	0.15410 0.35020 0.30060 -0.22400
H 	H 	0.19830 0.35060 0.27840 0.12200
C 	C 	0.09330 0.34740 0.23930 0.12900
H 	H 	0.09780 0.34900 0.17610 0.01600
C 	C 	0.02760 0.34250 0.26530 -0.15700
C 	C 	0.02130 0.35550 0.36340 0.11600
H 	H 	0.97730 0.36190 0.38520 0.00700
C 	C 	0.08340 0.35770 0.42150 -0.21700
H 	H 	0.08010 0.36310 0.48480 0.12100
C 	C 	0.96210 0.33360 0.20030 0.34800
C 	C 	0.43780 0.33820 0.68340 0.13200
C 	C 	0.37720 0.33690 0.72820 -0.09500
H 	H 	0.33480 0.35650 0.69880 0.09800
C 	C 	0.37920 0.30590 0.81900 -0.03700
C 	C 	0.44120 0.27380 0.86040 -0.02200
H 	H 	0.44200 0.25030 0.91800 0.07200
C 	C 	0.50170 0.27640 0.81680 -0.02400
C 	C 	0.50090 0.31020 0.72740 -0.09700
H 	H 	0.54250 0.31340 0.69900 0.09500
C 	C 	0.31400 0.30630 0.86840 0.35300
C 	C 	0.57100 0.24660 0.86370 0.31200
C 	C 	0.33690 0.48790 0.22430 0.10000
C 	C 	0.29510 0.43110 0.17880 -0.05400
H 	H 	0.29450 0.38270 0.20390 0.05600
C 	C 	0.25430 0.44820 0.09540 -0.08600
C 	C 	0.25420 0.52020 0.05850 0.03500
H 	H 	0.22600 0.53150 0.00330 0.05100
C 	C 	0.29730 0.57620 0.10580 -0.09300
C 	C 	0.33840 0.55850 0.18880 -0.05300
H 	H 	0.36700 0.59530 0.22010 0.07700
C 	C 	0.21300 0.38740 0.04410 0.35500
C 	C 	0.29430 0.65380 0.06650 0.43800
C 	C 	0.27800 0.37660 0.45510 0.18600
C 	C 	0.38810 0.38570 0.52490 0.19000
C 	C 	0.35970 0.43150 0.38070 0.19600
Zn	Zn	0.79021 0.74716 0.07397 1.22400
Zn	Zn	0.66559 0.81171 0.88314 1.23600
O 	O 	0.40150 0.83440 0.22970 -0.41200
O 	O 	0.46530 0.82300 0.11570 -0.31700
O 	O 	0.75392 0.81140 0.81970 -0.42700
O 	O 	0.82350 0.80640 0.95560 -0.42400
O 	O 	0.12690 0.77700 0.84360 -0.45100
O 	O 	0.07060 0.69290 0.92080 -0.28300
O 	O 	0.68220 0.90240 0.96300 -0.42700
O 	O 	0.71228 0.82210 0.07870 -0.49200
O 	O 	0.74350 0.16620 0.00860 -0.51700
O 	O 	0.84120 0.20020 0.09730 -0.47300
N 	N 	0.91260 0.91740 0.45030 -0.14500
N 	N 	0.82250 0.86230 0.53260 -0.15900
N 	N 	0.79270 0.91280 0.37840 -0.17100
N 	N 	0.94140 0.87200 0.59600 -0.13300
N 	N 	0.88090 0.96970 0.30990 -0.13700
N 	N 	0.70840 0.85340 0.46350 -0.15200
C 	C 	0.64990 0.85250 0.39430 0.21200
C 	C 	0.65410 0.85020 0.30060 -0.22300
H 	H 	0.69830 0.85060 0.27840 0.12200
C 	C 	0.59330 0.84740 0.23930 0.13000
H 	H 	0.59780 0.84900 0.17610 0.01600
C 	C 	0.52760 0.84250 0.26530 -0.15600
C 	C 	0.52130 0.85550 0.36340 0.11600
H 	H 	0.47730 0.86190 0.38520 0.00800
C 	C 	0.58340 0.85770 0.42150 -0.21700
H 	H 	0.58010 0.86310 0.48480 0.12200
C 	C 	0.46210 0.83360 0.20030 0.34800
C 	C 	0.93780 0.83820 0.68340 0.13300
C 	C 	0.87720 0.83690 0.72820 -0.09500
H 	H 	0.83480 0.85650 0.69880 0.09900
C 	C 	0.87920 0.80590 0.81900 -0.03600
C 	C 	0.94120 0.77380 0.86040 -0.02200
H 	H 	0.94200 0.75030 0.91800 0.07300
C 	C 	0.00170 0.77640 0.81680 -0.02300
C 	C 	0.00090 0.81020 0.72740 -0.09700
H 	H 	0.04250 0.81340 0.69900 0.09600
C 	C 	0.81400 0.80630 0.86840 0.35300
C 	C 	0.07100 0.74660 0.86370 0.31200
C 	C 	0.83690 0.98790 0.22430 0.11800
C 	C 	0.79510 0.93110 0.17880 -0.06800
H 	H 	0.79450 0.88270 0.20390 0.06100
C 	C 	0.75430 0.94820 0.09540 -0.06800
C 	C 	0.75420 0.02020 0.05850 0.01400
H 	H 	0.72600 0.03150 0.00330 0.05600
C 	C 	0.79730 0.07620 0.10580 -0.08000
C 	C 	0.83840 0.05850 0.18880 -0.07500
H 	H 	0.86700 0.09530 0.22010 0.08200
C 	C 	0.71300 0.88740 0.04410 0.34900
C 	C 	0.79430 0.15380 0.06650 0.43200
C 	C 	0.77800 0.87660 0.45510 0.18700
C 	C 	0.88810 0.88570 0.52490 0.19100
C 	C 	0.85970 0.93150 0.38070 0.19800
Zn	Zn	0.70979 0.24716 0.92603 1.22300
Zn	Zn	0.83441 0.31171 0.11686 1.23500
O 	O 	0.09850 0.33440 0.77030 -0.41300
O 	O 	0.03470 0.32300 0.88430 -0.31800
O 	O 	0.74608 0.31140 0.18030 -0.42700
O 	O 	0.67650 0.30640 0.04440 -0.42400
O 	O 	0.37310 0.27700 0.15640 -0.45100
O 	O 	0.42940 0.19290 0.07920 -0.28400
O 	O 	0.81780 0.40240 0.03700 -0.43000
O 	O 	0.78772 0.32210 0.92130 -0.49400
O 	O 	0.75650 0.66620 0.99140 -0.51700
O 	O 	0.65880 0.70020 0.90270 -0.47400
N 	N 	0.58740 0.41740 0.54970 -0.14500
N 	N 	0.67750 0.36230 0.46740 -0.15900
N 	N 	0.70730 0.41280 0.62160 -0.17100
N 	N 	0.55860 0.37200 0.40400 -0.13300
N 	N 	0.61910 0.46970 0.69010 -0.13500
N 	N 	0.79160 0.35340 0.53650 -0.15200
C 	C 	0.85010 0.35250 0.60570 0.21200
C 	C 	0.84590 0.35020 0.69940 -0.22400
H 	H 	0.80170 0.35060 0.72160 0.12200
C 	C 	0.90670 0.34740 0.76070 0.12900
H 	H 	0.90220 0.34900 0.82390 0.01600
C 	C 	0.97240 0.34250 0.73470 -0.15700
C 	C 	0.97870 0.35550 0.63660 0.11600
H 	H 	0.02270 0.36190 0.61480 0.00700
C 	C 	0.91660 0.35770 0.57850 -0.21700
H 	H 	0.91990 0.36310 0.51520 0.12100
C 	C 	0.03790 0.33360 0.79970 0.34800
C 	C 	0.56220 0.33820 0.31660 0.13200
C 	C 	0.62280 0.33690 0.27180 -0.09500
H 	H 	0.66520 0.35650 0.30120 0.09800
C 	C 	0.62080 0.30590 0.18100 -0.03700
C 	C 	0.55880 0.27380 0.13960 -0.02200
H 	H 	0.55800 0.25030 0.08200 0.07200
C 	C 	0.49830 0.27640 0.18320 -0.02400
C 	C 	0.49910 0.31020 0.27260 -0.09700
H 	H 	0.45750 0.31340 0.30100 0.09500
C 	C 	0.68600 0.30630 0.13160 0.35300
C 	C 	0.42900 0.24660 0.13630 0.31200
C 	C 	0.66310 0.48790 0.77570 0.10000
C 	C 	0.70490 0.43110 0.82120 -0.05400
H 	H 	0.70550 0.38270 0.79610 0.05600
C 	C 	0.74570 0.44820 0.90460 -0.08600
C 	C 	0.74580 0.52020 0.94150 0.03500
H 	H 	0.77400 0.53150 0.99670 0.05100
C 	C 	0.70270 0.57620 0.89420 -0.09300
C 	C 	0.66160 0.55850 0.81120 -0.05300
H 	H 	0.63300 0.59530 0.77990 0.07700
C 	C 	0.78700 0.38740 0.95590 0.35500
C 	C 	0.70570 0.65380 0.93350 0.43800
C 	C 	0.72200 0.37660 0.54490 0.18600
C 	C 	0.61190 0.38570 0.47510 0.19000
C 	C 	0.64030 0.43150 0.61930 0.19600
Zn	Zn	0.20979 0.74716 0.92603 1.22400
Zn	Zn	0.33441 0.81171 0.11686 1.23600
O 	O 	0.59850 0.83440 0.77030 -0.41200
O 	O 	0.53470 0.82300 0.88430 -0.31700
O 	O 	0.24608 0.81140 0.18030 -0.42700
O 	O 	0.17650 0.80640 0.04440 -0.42400
O 	O 	0.87310 0.77700 0.15640 -0.45100
O 	O 	0.92940 0.69290 0.07920 -0.28300
O 	O 	0.31780 0.90240 0.03700 -0.42700
O 	O 	0.28772 0.82210 0.92130 -0.49200
O 	O 	0.25650 0.16620 0.99140 -0.51700
O 	O 	0.15880 0.20020 0.90270 -0.47300
N 	N 	0.08740 0.91740 0.54970 -0.14500
N 	N 	0.17750 0.86230 0.46740 -0.15900
N 	N 	0.20730 0.91280 0.62160 -0.17100
N 	N 	0.05860 0.87200 0.40400 -0.13300
N 	N 	0.11910 0.96970 0.69010 -0.13700
N 	N 	0.29160 0.85340 0.53650 -0.15200
C 	C 	0.35010 0.85250 0.60570 0.21200
C 	C 	0.34590 0.85020 0.69940 -0.22300
H 	H 	0.30170 0.85060 0.72160 0.12200
C 	C 	0.40670 0.84740 0.76070 0.13000
H 	H 	0.40220 0.84900 0.82390 0.01600
C 	C 	0.47240 0.84250 0.73470 -0.15600
C 	C 	0.47870 0.85550 0.63660 0.11600
H 	H 	0.52270 0.86190 0.61480 0.00800
C 	C 	0.41660 0.85770 0.57850 -0.21700
H 	H 	0.41990 0.86310 0.51520 0.12200
C 	C 	0.53790 0.83360 0.79970 0.34800
C 	C 	0.06220 0.83820 0.31660 0.13300
C 	C 	0.12280 0.83690 0.27180 -0.09500
H 	H 	0.16520 0.85650 0.30120 0.09900
C 	C 	0.12080 0.80590 0.18100 -0.03600
C 	C 	0.05880 0.77380 0.13960 -0.02200
H 	H 	0.05800 0.75030 0.08200 0.07300
C 	C 	0.99830 0.77640 0.18320 -0.02300
C 	C 	0.99910 0.81020 0.27260 -0.09700
H 	H 	0.95750 0.81340 0.30100 0.09600
C 	C 	0.18600 0.80630 0.13160 0.35300
C 	C 	0.92900 0.74660 0.13630 0.31200
C 	C 	0.16310 0.98790 0.77570 0.11800
C 	C 	0.20490 0.93110 0.82120 -0.06800
H 	H 	0.20550 0.88270 0.79610 0.06100
C 	C 	0.24570 0.94820 0.90460 -0.06800
C 	C 	0.24580 0.02020 0.94150 0.01400
H 	H 	0.27400 0.03150 0.99670 0.05600
C 	C 	0.20270 0.07620 0.89420 -0.08000
C 	C 	0.16160 0.05850 0.81120 -0.07500
H 	H 	0.13300 0.09530 0.77990 0.08200
C 	C 	0.28700 0.88740 0.95590 0.34900
C 	C 	0.20570 0.15380 0.93350 0.43200
C 	C 	0.22200 0.87660 0.54490 0.18700
C 	C 	0.11190 0.88570 0.47510 0.19100
C 	C 	0.14030 0.93150 0.61930 0.19800
