data_crystal

_cell_length_a 9.67060
_cell_length_b 11.75510
_cell_length_c 12.31150
_cell_angle_alpha 90.00000
_cell_angle_beta  99.26900
_cell_angle_gamma 90.00000

_symmetry_space_group_name_	'P 1'
_symmetry_space_group_name_H-M	'P 1'

loop_
_symmetry_equiv_pos_as_xyz
  x,y,z

loop_
_atom_site_label
_atom_site_type_symbol
_atom_site_fract_x
_atom_site_fract_y
_atom_site_fract_z
_atom_site_charge
Eu	Eu	0.28617 0.01554 0.16909 1.96300
O 	O 	0.36050 0.21540 0.15630 -0.37600
O 	O 	0.19210 0.14080 0.29430 -0.40100
O 	O 	0.31600 0.39480 0.20010 -0.37800
O 	O 	0.13390 0.31971 0.32780 -0.38900
O 	O 	0.31860 0.01180 0.97730 -0.37100
O 	O 	0.46640 0.98630 0.85770 -0.38100
O 	O 	0.10230 0.89110 0.06710 -0.37400
O 	O 	0.91610 0.88190 0.93340 -0.38900
C 	C 	0.30120 0.28900 0.20610 0.25600
C 	C 	0.19980 0.24520 0.28220 0.27700
C 	C 	0.43790 0.99900 0.95310 0.26600
C 	C 	0.00590 0.93410 0.00080 0.28400
Eu	Eu	0.21383 0.51554 0.33091 1.97900
O 	O 	0.13950 0.71540 0.34370 -0.37400
O 	O 	0.30790 0.64080 0.20570 -0.40000
O 	O 	0.18400 0.89480 0.29990 -0.37200
O 	O 	0.36610 0.81971 0.17220 -0.38400
O 	O 	0.18140 0.51180 0.52270 -0.38500
O 	O 	0.03360 0.48630 0.64230 -0.38300
O 	O 	0.39770 0.39110 0.43290 -0.37600
O 	O 	0.58390 0.38190 0.56660 -0.37800
C 	C 	0.19880 0.78900 0.29390 0.25600
C 	C 	0.30020 0.74520 0.21780 0.27700
C 	C 	0.06210 0.49900 0.54690 0.27600
C 	C 	0.49410 0.43410 0.49920 0.27500
Eu	Eu	0.71383 0.98446 0.83091 1.96400
O 	O 	0.63950 0.78460 0.84370 -0.37500
O 	O 	0.80790 0.85920 0.70570 -0.40000
O 	O 	0.68400 0.60520 0.79990 -0.37700
O 	O 	0.86610 0.68029 0.67220 -0.38900
O 	O 	0.68140 0.98820 0.02270 -0.37100
O 	O 	0.53360 0.01370 0.14230 -0.38100
O 	O 	0.89770 0.10890 0.93290 -0.37400
O 	O 	0.08390 0.11810 0.06660 -0.38900
C 	C 	0.69880 0.71100 0.79390 0.25600
C 	C 	0.80020 0.75480 0.71780 0.27700
C 	C 	0.56210 0.00100 0.04690 0.26600
C 	C 	0.99410 0.06590 0.99920 0.28400
Eu	Eu	0.78617 0.48446 0.66909 1.97900
O 	O 	0.86050 0.28460 0.65630 -0.37400
O 	O 	0.69210 0.35920 0.79430 -0.40000
O 	O 	0.81600 0.10520 0.70010 -0.37200
O 	O 	0.63390 0.18029 0.82780 -0.38400
O 	O 	0.81860 0.48820 0.47730 -0.38500
O 	O 	0.96640 0.51370 0.35770 -0.38300
O 	O 	0.60230 0.60890 0.56710 -0.37600
O 	O 	0.41610 0.61810 0.43340 -0.37800
C 	C 	0.80120 0.21100 0.70610 0.25600
C 	C 	0.69980 0.25480 0.78220 0.27700
C 	C 	0.93790 0.50100 0.45310 0.27600
C 	C 	0.50590 0.56590 0.50080 0.27500
