data_crystal

_cell_length_a 9.67400
_cell_length_b 11.76100
_cell_length_c 12.31500
_cell_angle_alpha 90.00000
_cell_angle_beta  99.28500
_cell_angle_gamma 90.00000

_symmetry_space_group_name_	'P 1'
_symmetry_space_group_name_H-M	'P 1'

loop_
_symmetry_equiv_pos_as_xyz
  x,y,z

loop_
_atom_site_label
_atom_site_type_symbol
_atom_site_fract_x
_atom_site_fract_y
_atom_site_fract_z
_atom_site_charge
Eu	Eu	0.71368 0.51552 0.33081 1.97600
O 	O 	0.80700 0.64090 0.20550 -0.40200
O 	O 	0.86600 0.81940 0.17260 -0.38400
O 	O 	0.63960 0.71590 0.34350 -0.37500
O 	O 	0.68510 0.89500 0.30060 -0.37100
O 	O 	0.68130 0.51150 0.52240 -0.38700
O 	O 	0.53350 0.48540 0.64280 -0.38400
O 	O 	0.91600 0.61820 0.43410 -0.37900
O 	O 	0.10060 0.60880 0.56730 -0.37300
C 	C 	0.80020 0.74550 0.21750 0.28100
C 	C 	0.69900 0.78970 0.29460 0.26100
C 	C 	0.56250 0.49920 0.54740 0.27800
C 	C 	0.00460 0.56570 0.49970 0.27500
Eu	Eu	0.78632 0.01552 0.16919 1.94100
O 	O 	0.69300 0.14090 0.29450 -0.40000
O 	O 	0.63400 0.31940 0.32740 -0.39100
O 	O 	0.86040 0.21590 0.15650 -0.37700
O 	O 	0.81490 0.39500 0.19940 -0.38100
O 	O 	0.81870 0.01150 0.97760 -0.37100
O 	O 	0.96650 0.98540 0.85720 -0.37700
O 	O 	0.58400 0.11820 0.06590 -0.37800
O 	O 	0.39940 0.10880 0.93270 -0.35600
C 	C 	0.69980 0.24550 0.28250 0.28000
C 	C 	0.80100 0.28970 0.20540 0.26200
C 	C 	0.93750 0.99920 0.95260 0.26800
C 	C 	0.49540 0.06570 0.00030 0.26300
Eu	Eu	0.28632 0.48448 0.66919 1.97700
O 	O 	0.19300 0.35910 0.79450 -0.40100
O 	O 	0.13400 0.18060 0.82740 -0.38400
O 	O 	0.36040 0.28410 0.65650 -0.37500
O 	O 	0.31490 0.10500 0.69940 -0.37100
O 	O 	0.31870 0.48850 0.47760 -0.38700
O 	O 	0.46650 0.51460 0.35720 -0.38400
O 	O 	0.08400 0.38180 0.56590 -0.37900
O 	O 	0.89940 0.39120 0.43270 -0.37300
C 	C 	0.19980 0.25450 0.78250 0.28100
C 	C 	0.30100 0.21030 0.70540 0.26100
C 	C 	0.43750 0.50080 0.45260 0.27800
C 	C 	0.99540 0.43430 0.50030 0.27500
Eu	Eu	0.21368 0.98448 0.83081 1.94100
O 	O 	0.30700 0.85910 0.70550 -0.40000
O 	O 	0.36600 0.68060 0.67260 -0.39100
O 	O 	0.13960 0.78410 0.84350 -0.37700
O 	O 	0.18510 0.60500 0.80060 -0.38100
O 	O 	0.18130 0.98850 0.02240 -0.37100
O 	O 	0.03350 0.01460 0.14280 -0.37700
O 	O 	0.41600 0.88180 0.93410 -0.37800
O 	O 	0.60060 0.89120 0.06730 -0.35600
C 	C 	0.30020 0.75450 0.71750 0.28000
C 	C 	0.19900 0.71030 0.79460 0.26200
C 	C 	0.06250 0.00080 0.04740 0.26800
C 	C 	0.50460 0.93430 0.99970 0.26300
