data_crystal

_cell_length_a 7.23090
_cell_length_b 26.98420
_cell_length_c 31.26260
_cell_angle_alpha 90.00000
_cell_angle_beta  90.00000
_cell_angle_gamma 90.00000

_symmetry_space_group_name_	'P 1'
_symmetry_space_group_name_H-M	'P 1'

loop_
_symmetry_equiv_pos_as_xyz
  x,y,z

loop_
_atom_site_label
_atom_site_type_symbol
_atom_site_fract_x
_atom_site_fract_y
_atom_site_fract_z
_atom_site_charge
Zn	Zn	0.00020 0.03200 0.76214 1.23500
Zn	Zn	0.69270 0.45326 0.73094 1.16300
Zn	Zn	0.00020 0.96800 0.23786 1.23600
Zn	Zn	0.69270 0.54674 0.26906 1.16300
Zn	Zn	0.99980 0.46800 0.26214 1.23600
Zn	Zn	0.30730 0.04674 0.23094 1.16300
Zn	Zn	0.99980 0.53200 0.73786 1.23600
Zn	Zn	0.30730 0.95326 0.76906 1.16300
C 	C 	0.34700 0.04890 0.34440 0.02800
C 	C 	0.16500 0.06400 0.33850 -0.18400
C 	C 	0.09550 0.10350 0.36200 0.04000
C 	C 	0.20800 0.12800 0.39130 -0.08100
C 	C 	0.39000 0.11280 0.39720 0.03300
C 	C 	0.45940 0.07330 0.37380 -0.07800
C 	C 	0.05500 0.03940 0.30680 0.39800
C 	C 	0.02230 0.20160 0.53590 0.02100
C 	C 	0.15900 0.17250 0.51710 -0.04700
C 	C 	0.27940 0.14550 0.54270 -0.02900
C 	C 	0.26390 0.14760 0.58700 -0.01000
C 	C 	0.12800 0.17670 0.60570 -0.02900
C 	C 	0.00680 0.20370 0.58020 -0.05400
C 	C 	0.40200 0.12290 0.61730 0.03600
C 	C 	0.59000 0.12060 0.60850 -0.07200
C 	C 	0.71240 0.10250 0.63900 0.03600
C 	C 	0.64600 0.08660 0.67840 -0.13000
C 	C 	0.45800 0.08880 0.68730 0.04200
C 	C 	0.33600 0.10700 0.65680 -0.07900
C 	C 	0.78500 0.07140 0.70930 0.37700
C 	C 	0.02670 0.26100 0.47210 0.01800
C 	C 	0.99510 0.26460 0.42840 -0.05000
C 	C 	0.11000 0.29370 0.40310 -0.03100
C 	C 	0.25720 0.31910 0.42160 -0.01100
C 	C 	0.28880 0.31550 0.46540 -0.02900
C 	C 	0.17400 0.28640 0.49060 -0.04500
C 	C 	0.90100 0.22980 0.50480 -0.03700
C 	C 	0.76220 0.19710 0.47690 0.02000
C 	C 	0.78310 0.14600 0.47320 -0.04900
C 	C 	0.66100 0.11890 0.44800 -0.02900
C 	C 	0.51900 0.14290 0.42640 -0.01100
C 	C 	0.49810 0.19390 0.43010 -0.03000
C 	C 	0.62000 0.22100 0.45540 -0.04700
C 	C 	0.72300 0.43710 0.31100 0.52000
C 	C 	0.76670 0.26670 0.52980 0.01900
C 	C 	0.79150 0.31780 0.52930 -0.04900
C 	C 	0.67200 0.34820 0.55230 -0.03000
C 	C 	0.52820 0.32750 0.57570 -0.00900
C 	C 	0.50340 0.27640 0.57620 -0.03200
C 	C 	0.62300 0.24600 0.55320 -0.04500
C 	C 	0.08760 0.37520 0.63030 0.02100
C 	C 	0.20400 0.34540 0.60600 -0.06900
C 	C 	0.38700 0.35950 0.59930 0.02600
C 	C 	0.45290 0.40330 0.61700 -0.07400
C 	C 	0.33600 0.43310 0.64130 0.00200
C 	C 	0.15400 0.41900 0.64800 -0.09800
C 	C 	0.02100 0.45660 0.67680 0.45000
C 	C 	0.41200 0.41400 0.33830 0.07000
C 	C 	0.30490 0.38610 0.36630 -0.08600
C 	C 	0.38900 0.35300 0.39420 0.04200
C 	C 	0.58000 0.34770 0.39420 -0.08500
C 	C 	0.68740 0.37570 0.36630 0.06200
C 	C 	0.60300 0.40880 0.33830 -0.18900
C 	C 	0.34700 0.95110 0.65560 0.02800
C 	C 	0.16500 0.93600 0.66150 -0.18400
C 	C 	0.09550 0.89650 0.63800 0.04100
C 	C 	0.20800 0.87200 0.60870 -0.08100
C 	C 	0.39000 0.88720 0.60280 0.03300
C 	C 	0.45940 0.92670 0.62620 -0.07800
C 	C 	0.05500 0.96060 0.69320 0.39800
C 	C 	0.02230 0.79840 0.46410 0.02100
C 	C 	0.15900 0.82750 0.48290 -0.04700
C 	C 	0.27940 0.85450 0.45730 -0.02900
C 	C 	0.26390 0.85240 0.41300 -0.01000
C 	C 	0.12800 0.82330 0.39430 -0.02900
C 	C 	0.00680 0.79630 0.41980 -0.05400
C 	C 	0.40200 0.87710 0.38270 0.03600
C 	C 	0.59000 0.87940 0.39150 -0.07200
C 	C 	0.71240 0.89750 0.36100 0.03600
C 	C 	0.64600 0.91340 0.32160 -0.13000
C 	C 	0.45800 0.91120 0.31270 0.04200
C 	C 	0.33600 0.89300 0.34320 -0.07900
C 	C 	0.78500 0.92860 0.29070 0.37700
C 	C 	0.02670 0.73900 0.52790 0.01800
C 	C 	0.99510 0.73540 0.57160 -0.05000
C 	C 	0.11000 0.70630 0.59690 -0.03000
C 	C 	0.25720 0.68090 0.57840 -0.01100
C 	C 	0.28880 0.68450 0.53460 -0.02900
C 	C 	0.17400 0.71360 0.50940 -0.04500
C 	C 	0.90100 0.77020 0.49520 -0.03700
C 	C 	0.76220 0.80290 0.52310 0.02000
C 	C 	0.78310 0.85400 0.52680 -0.04900
C 	C 	0.66100 0.88110 0.55200 -0.02900
C 	C 	0.51900 0.85710 0.57360 -0.01100
C 	C 	0.49810 0.80610 0.56990 -0.03000
C 	C 	0.62000 0.77900 0.54460 -0.04600
C 	C 	0.72300 0.56290 0.68900 0.52000
C 	C 	0.76670 0.73330 0.47020 0.01900
C 	C 	0.79150 0.68220 0.47070 -0.04900
C 	C 	0.67200 0.65180 0.44770 -0.03000
C 	C 	0.52820 0.67250 0.42430 -0.00900
C 	C 	0.50340 0.72360 0.42380 -0.03200
C 	C 	0.62300 0.75400 0.44680 -0.04500
C 	C 	0.08760 0.62480 0.36970 0.02100
C 	C 	0.20400 0.65460 0.39400 -0.06900
C 	C 	0.38700 0.64050 0.40070 0.02600
C 	C 	0.45290 0.59670 0.38300 -0.07400
C 	C 	0.33600 0.56690 0.35870 0.00200
C 	C 	0.15400 0.58100 0.35200 -0.09800
C 	C 	0.02100 0.54340 0.32320 0.45000
C 	C 	0.41200 0.58600 0.66170 0.07000
C 	C 	0.30490 0.61390 0.63370 -0.08600
C 	C 	0.38900 0.64700 0.60580 0.04200
C 	C 	0.58000 0.65230 0.60580 -0.08500
C 	C 	0.68740 0.62430 0.63370 0.06200
C 	C 	0.60300 0.59120 0.66170 -0.18900
C 	C 	0.65300 0.45110 0.84440 0.02700
C 	C 	0.83500 0.43600 0.83850 -0.18300
C 	C 	0.90450 0.39650 0.86200 0.04000
C 	C 	0.79200 0.37200 0.89130 -0.08100
C 	C 	0.61000 0.38720 0.89720 0.03300
C 	C 	0.54060 0.42670 0.87380 -0.07800
C 	C 	0.94500 0.46060 0.80680 0.39700
C 	C 	0.97770 0.29840 0.03590 0.02000
C 	C 	0.84100 0.32750 0.01710 -0.04700
C 	C 	0.72060 0.35450 0.04270 -0.02900
C 	C 	0.73610 0.35240 0.08700 -0.01000
C 	C 	0.87200 0.32330 0.10570 -0.03000
C 	C 	0.99320 0.29630 0.08020 -0.05400
C 	C 	0.59800 0.37710 0.11730 0.03600
C 	C 	0.41000 0.37940 0.10850 -0.07200
C 	C 	0.28760 0.39750 0.13900 0.03600
C 	C 	0.35400 0.41340 0.17840 -0.13000
C 	C 	0.54200 0.41120 0.18730 0.04200
C 	C 	0.66400 0.39300 0.15680 -0.07900
C 	C 	0.21500 0.42860 0.20930 0.37700
C 	C 	0.97330 0.23900 0.97210 0.01600
C 	C 	0.00490 0.23540 0.92840 -0.04800
C 	C 	0.89000 0.20630 0.90310 -0.03200
C 	C 	0.74280 0.18090 0.92160 -0.01100
C 	C 	0.71120 0.18450 0.96540 -0.03000
C 	C 	0.82600 0.21360 0.99060 -0.04500
C 	C 	0.09900 0.27020 0.00480 -0.03600
C 	C 	0.23780 0.30290 0.97690 0.02000
C 	C 	0.21690 0.35400 0.97320 -0.04800
C 	C 	0.33900 0.38110 0.94800 -0.02900
C 	C 	0.48100 0.35710 0.92640 -0.01000
C 	C 	0.50190 0.30610 0.93010 -0.03100
C 	C 	0.38000 0.27900 0.95540 -0.04600
C 	C 	0.27700 0.06290 0.81100 0.51900
C 	C 	0.23330 0.23330 0.02980 0.01900
C 	C 	0.20850 0.18220 0.02930 -0.04900
C 	C 	0.32800 0.15180 0.05230 -0.03000
C 	C 	0.47180 0.17250 0.07570 -0.00900
C 	C 	0.49660 0.22360 0.07620 -0.03200
C 	C 	0.37700 0.25400 0.05320 -0.04500
C 	C 	0.91240 0.12480 0.13030 0.02000
C 	C 	0.79600 0.15460 0.10600 -0.06900
C 	C 	0.61300 0.14050 0.09930 0.02600
C 	C 	0.54710 0.09670 0.11700 -0.07300
C 	C 	0.66400 0.06690 0.14130 0.00200
C 	C 	0.84600 0.08100 0.14800 -0.09800
C 	C 	0.97900 0.04340 0.17680 0.45000
C 	C 	0.58800 0.08600 0.83830 0.07000
C 	C 	0.69510 0.11390 0.86630 -0.08600
C 	C 	0.61100 0.14700 0.89420 0.04200
C 	C 	0.42000 0.15230 0.89420 -0.08500
C 	C 	0.31260 0.12430 0.86630 0.06200
C 	C 	0.39700 0.09120 0.83830 -0.18900
C 	C 	0.65300 0.54890 0.15560 0.02800
C 	C 	0.83500 0.56400 0.16150 -0.18300
C 	C 	0.90450 0.60350 0.13800 0.04000
C 	C 	0.79200 0.62800 0.10870 -0.08000
C 	C 	0.61000 0.61280 0.10280 0.03500
C 	C 	0.54060 0.57330 0.12620 -0.07800
C 	C 	0.94500 0.53940 0.19320 0.39800
C 	C 	0.97770 0.70160 0.96410 0.00100
C 	C 	0.84100 0.67250 0.98290 -0.01800
C 	C 	0.72060 0.64550 0.95730 -0.00400
C 	C 	0.73610 0.64760 0.91300 -0.02400
C 	C 	0.87200 0.67670 0.89430 -0.00700
C 	C 	0.99320 0.70370 0.91980 -0.02100
C 	C 	0.59800 0.62290 0.88270 0.04600
C 	C 	0.41000 0.62060 0.89150 -0.07400
C 	C 	0.28760 0.60250 0.86100 0.03900
C 	C 	0.35400 0.58660 0.82160 -0.13000
C 	C 	0.54200 0.58880 0.81270 0.04500
C 	C 	0.66400 0.60700 0.84320 -0.08100
C 	C 	0.21500 0.57140 0.79070 0.37800
C 	C 	0.97330 0.76100 0.02790 0.01700
C 	C 	0.00490 0.76460 0.07160 -0.04700
C 	C 	0.89000 0.79370 0.09690 -0.03200
C 	C 	0.74280 0.81910 0.07840 -0.01000
C 	C 	0.71120 0.81550 0.03460 -0.03000
C 	C 	0.82600 0.78640 0.00940 -0.04200
C 	C 	0.09900 0.72980 0.99520 -0.02700
C 	C 	0.23780 0.69710 0.02310 0.02000
C 	C 	0.21690 0.64600 0.02680 -0.04500
C 	C 	0.33900 0.61890 0.05200 -0.02700
C 	C 	0.48100 0.64290 0.07360 -0.00800
C 	C 	0.50190 0.69390 0.06990 -0.02900
C 	C 	0.38000 0.72100 0.04460 -0.04500
C 	C 	0.27700 0.93710 0.18900 0.51900
C 	C 	0.23330 0.76670 0.97020 0.01900
C 	C 	0.20850 0.81780 0.97070 -0.04700
C 	C 	0.32800 0.84820 0.94770 -0.03000
C 	C 	0.47180 0.82750 0.92430 -0.00800
C 	C 	0.49660 0.77640 0.92380 -0.03200
C 	C 	0.37700 0.74600 0.94680 -0.04100
C 	C 	0.91240 0.87520 0.86970 0.02100
C 	C 	0.79600 0.84540 0.89400 -0.06800
C 	C 	0.61300 0.85950 0.90070 0.02600
C 	C 	0.54710 0.90330 0.88300 -0.07300
C 	C 	0.66400 0.93310 0.85870 0.00200
C 	C 	0.84600 0.91900 0.85200 -0.09800
C 	C 	0.97900 0.95660 0.82320 0.44900
C 	C 	0.58800 0.91400 0.16170 0.07000
C 	C 	0.69510 0.88610 0.13370 -0.08600
C 	C 	0.61100 0.85300 0.10580 0.04200
C 	C 	0.42000 0.84770 0.10580 -0.08500
C 	C 	0.31260 0.87570 0.13370 0.06200
C 	C 	0.39700 0.90880 0.16170 -0.18900
O 	O 	0.86000 0.43490 0.67960 -0.50100
O 	O 	0.88700 0.04680 0.30650 -0.32100
O 	O 	0.73300 0.04910 0.74120 -0.42700
O 	O 	0.94900 0.07890 0.70330 -0.39100
O 	O 	0.86200 0.42530 0.29820 -0.57400
O 	O 	0.64400 0.47900 0.30090 -0.50700
O 	O 	0.12750 0.01690 0.27510 -0.64000
O 	O 	0.09600 0.48650 0.69410 -0.54800
O 	O 	0.86000 0.56510 0.32040 -0.50100
O 	O 	0.88700 0.95320 0.69350 -0.32100
O 	O 	0.73300 0.95090 0.25880 -0.42700
O 	O 	0.94900 0.92110 0.29670 -0.39100
O 	O 	0.86200 0.57470 0.70180 -0.57300
O 	O 	0.64400 0.52100 0.69910 -0.50700
O 	O 	0.12750 0.98310 0.72490 -0.64000
O 	O 	0.09600 0.51350 0.30590 -0.54800
O 	O 	0.14000 0.06510 0.17960 -0.50100
O 	O 	0.11300 0.45320 0.80650 -0.32000
O 	O 	0.26700 0.45090 0.24120 -0.42700
O 	O 	0.05100 0.42110 0.20330 -0.39000
O 	O 	0.13800 0.07470 0.79820 -0.57300
O 	O 	0.35600 0.02100 0.80090 -0.50700
O 	O 	0.87250 0.48310 0.77510 -0.64000
O 	O 	0.90400 0.01350 0.19410 -0.54800
O 	O 	0.14000 0.93490 0.82040 -0.50000
O 	O 	0.11300 0.54680 0.19350 -0.32000
O 	O 	0.26700 0.54910 0.75880 -0.42700
O 	O 	0.05100 0.57890 0.79670 -0.38900
O 	O 	0.13800 0.92530 0.20180 -0.57300
O 	O 	0.35600 0.97900 0.19910 -0.50700
O 	O 	0.87250 0.51690 0.22490 -0.64000
O 	O 	0.90400 0.98650 0.80590 -0.54800
H 	H 	0.40447 0.01649 0.32515 0.00300
H 	H 	0.94616 0.11590 0.35731 0.02600
H 	H 	0.15095 0.16053 0.41046 0.04200
H 	H 	0.60853 0.06079 0.37863 0.05300
H 	H 	0.17189 0.17088 0.48078 0.04000
H 	H 	0.39120 0.12156 0.52740 0.03600
H 	H 	0.11554 0.17851 0.64202 0.03400
H 	H 	0.89486 0.22753 0.59557 0.04200
H 	H 	0.64443 0.13359 0.57616 0.04400
H 	H 	0.86669 0.10073 0.63166 0.03600
H 	H 	0.40393 0.07567 0.71962 0.01700
H 	H 	0.18171 0.10892 0.66411 0.06300
H 	H 	0.87484 0.24368 0.41324 0.03900
H 	H 	0.08360 0.29674 0.36725 0.03300
H 	H 	0.40896 0.33645 0.48058 0.03800
H 	H 	0.20033 0.28330 0.52645 0.04100
H 	H 	0.90019 0.12640 0.49081 0.04300
H 	H 	0.67750 0.07702 0.44508 0.03500
H 	H 	0.38121 0.21351 0.41243 0.03500
H 	H 	0.60296 0.26285 0.45845 0.04000
H 	H 	0.90960 0.33473 0.51007 0.04200
H 	H 	0.69216 0.39010 0.55193 0.03500
H 	H 	0.38527 0.25947 0.59542 0.03400
H 	H 	0.60294 0.20410 0.55358 0.04100
H 	H 	0.93768 0.36373 0.63572 0.02600
H 	H 	0.14965 0.30944 0.59157 0.04100
H 	H 	0.60276 0.41485 0.61163 0.04400
H 	H 	0.38998 0.46912 0.65570 0.02500
H 	H 	0.34297 0.44113 0.31536 0.02900
H 	H 	0.14806 0.39040 0.36635 0.05300
H 	H 	0.64871 0.32041 0.41706 0.04500
H 	H 	0.84428 0.37151 0.36640 0.01900
H 	H 	0.40447 0.98351 0.67485 0.00300
H 	H 	0.94616 0.88410 0.64269 0.02600
H 	H 	0.15095 0.83947 0.58954 0.04300
H 	H 	0.60854 0.93919 0.62136 0.05300
H 	H 	0.17189 0.82912 0.51922 0.04000
H 	H 	0.39120 0.87844 0.47260 0.03600
H 	H 	0.11554 0.82149 0.35798 0.03400
H 	H 	0.89493 0.77249 0.40438 0.04200
H 	H 	0.64443 0.86641 0.42384 0.04400
H 	H 	0.86669 0.89927 0.36834 0.03600
H 	H 	0.40393 0.92433 0.28038 0.01700
H 	H 	0.18171 0.89108 0.33589 0.06300
H 	H 	0.87484 0.75632 0.58676 0.03900
H 	H 	0.08360 0.70326 0.63275 0.03400
H 	H 	0.40896 0.66355 0.51942 0.03800
H 	H 	0.20033 0.71670 0.47355 0.04100
H 	H 	0.90019 0.87360 0.50919 0.04300
H 	H 	0.67750 0.92298 0.55492 0.03500
H 	H 	0.38121 0.78649 0.58757 0.03500
H 	H 	0.60302 0.73715 0.54154 0.04000
H 	H 	0.90960 0.66527 0.48993 0.04200
H 	H 	0.69216 0.60990 0.44807 0.03500
H 	H 	0.38527 0.74053 0.40458 0.03400
H 	H 	0.60292 0.79590 0.44642 0.04100
H 	H 	0.93768 0.63627 0.36428 0.02600
H 	H 	0.14965 0.69056 0.40843 0.04100
H 	H 	0.60276 0.58515 0.38837 0.04400
H 	H 	0.38998 0.53088 0.34430 0.02500
H 	H 	0.34297 0.55887 0.68464 0.02900
H 	H 	0.14806 0.60960 0.63365 0.05300
H 	H 	0.64871 0.67959 0.58294 0.04500
H 	H 	0.84428 0.62849 0.63360 0.01900
H 	H 	0.59553 0.48351 0.82515 0.00300
H 	H 	0.05384 0.38410 0.85731 0.02700
H 	H 	0.84905 0.33947 0.91046 0.04200
H 	H 	0.39146 0.43919 0.87864 0.05300
H 	H 	0.82811 0.32912 0.98078 0.03900
H 	H 	0.60880 0.37844 0.02740 0.03600
H 	H 	0.88446 0.32149 0.14202 0.03400
H 	H 	0.10514 0.27247 0.09557 0.04200
H 	H 	0.35557 0.36641 0.07616 0.04400
H 	H 	0.13331 0.39927 0.13166 0.03700
H 	H 	0.59607 0.42433 0.21962 0.01700
H 	H 	0.81827 0.39109 0.16413 0.06300
H 	H 	0.12516 0.25632 0.91324 0.03900
H 	H 	0.91640 0.20326 0.86725 0.03300
H 	H 	0.59104 0.16355 0.98058 0.03800
H 	H 	0.79967 0.21670 0.02645 0.04100
H 	H 	0.09981 0.37360 0.99081 0.04300
H 	H 	0.32250 0.42298 0.94508 0.03600
H 	H 	0.61879 0.28649 0.91243 0.03500
H 	H 	0.39704 0.23715 0.95845 0.04000
H 	H 	0.09040 0.16527 0.01007 0.04200
H 	H 	0.30784 0.10990 0.05193 0.03500
H 	H 	0.61473 0.24053 0.09542 0.03400
H 	H 	0.39708 0.29590 0.05358 0.04100
H 	H 	0.06232 0.13627 0.13572 0.02600
H 	H 	0.85035 0.19056 0.09157 0.04100
H 	H 	0.39724 0.08515 0.11163 0.04400
H 	H 	0.61002 0.03088 0.15570 0.02500
H 	H 	0.65703 0.05887 0.81536 0.02900
H 	H 	0.85194 0.10960 0.86635 0.05300
H 	H 	0.35129 0.17959 0.91706 0.04500
H 	H 	0.15572 0.12849 0.86640 0.01900
H 	H 	0.59553 0.51649 0.17485 0.00300
H 	H 	0.05384 0.61590 0.14269 0.02700
H 	H 	0.84905 0.66053 0.08954 0.04600
H 	H 	0.39146 0.56081 0.12136 0.05300
H 	H 	0.35557 0.63359 0.92384 0.04800
H 	H 	0.13331 0.60073 0.86834 0.03800
H 	H 	0.59607 0.57567 0.78038 0.01700
H 	H 	0.81829 0.60892 0.83589 0.06700
H 	H 	0.12516 0.74368 0.08676 0.03900
H 	H 	0.91640 0.79674 0.13275 0.03400
H 	H 	0.59104 0.83645 0.01942 0.03800
H 	H 	0.79967 0.78330 0.97355 0.04100
H 	H 	0.09981 0.62640 0.00919 0.04500
H 	H 	0.32250 0.57702 0.05492 0.03700
H 	H 	0.61879 0.71351 0.08757 0.03600
H 	H 	0.39704 0.76285 0.04155 0.03900
H 	H 	0.09040 0.83473 0.98993 0.04200
H 	H 	0.30784 0.89010 0.94807 0.03500
H 	H 	0.61473 0.75947 0.90458 0.03600
H 	H 	0.39708 0.70410 0.94642 0.04200
H 	H 	0.06232 0.86373 0.86428 0.02800
H 	H 	0.85035 0.80944 0.90843 0.04300
H 	H 	0.39724 0.91485 0.88837 0.04400
H 	H 	0.61002 0.96912 0.84430 0.02500
H 	H 	0.65703 0.94113 0.18464 0.02900
H 	H 	0.85194 0.89040 0.13365 0.05300
H 	H 	0.35129 0.82041 0.08294 0.04500
H 	H 	0.15572 0.87151 0.13360 0.01900
