data_crystal

_cell_length_a 18.70100
_cell_length_b 18.70100
_cell_length_c 49.75400
_cell_angle_alpha 90.00000
_cell_angle_beta  90.00000
_cell_angle_gamma 120.00000

_symmetry_space_group_name_	'P 1'
_symmetry_space_group_name_H-M	'P 1'

loop_
_symmetry_equiv_pos_as_xyz
  x,y,z

loop_
_atom_site_label
_atom_site_type_symbol
_atom_site_fract_x
_atom_site_fract_y
_atom_site_fract_z
_atom_site_charge
C 	C 	0.97096 0.15851 0.33125 0.06100
H 	H 	0.02080 0.19470 0.32300 0.02200
C 	C 	0.95392 0.17551 0.35705 -0.09300
H 	H 	0.99260 0.22240 0.36620 0.06800
C 	C 	0.85568 0.27419 0.43891 -0.03800
H 	H 	0.90390 0.31280 0.43040 0.06700
C 	C 	0.83622 0.28801 0.46484 -0.10900
C 	C 	0.88909 0.36064 0.47811 0.41000
O 	O 	0.99576 0.12340 0.28167 -0.42200
O 	O 	0.94754 0.41033 0.46476 -0.39900
O 	O 	0.87303 0.36962 0.50130 -0.39800
H 	H 	0.17330 0.57230 0.44230 0.16400
H 	H 	0.12200 0.61260 0.43240 0.53400
H 	H 	0.91570 0.44380 0.92990 0.00100
H 	H 	0.86440 0.38020 0.93980 -0.46800
C 	C 	0.84149 0.81245 0.33125 0.04400
H 	H 	0.80530 0.82610 0.32300 0.03200
C 	C 	0.82449 0.77841 0.35705 -0.08400
H 	H 	0.77760 0.77020 0.36620 0.06300
C 	C 	0.72581 0.58149 0.43891 -0.03800
H 	H 	0.68720 0.59110 0.43040 0.06600
C 	C 	0.71199 0.54821 0.46484 -0.10900
C 	C 	0.63936 0.52845 0.47811 0.41000
O 	O 	0.87660 0.87236 0.28167 -0.42600
O 	O 	0.58967 0.53721 0.46476 -0.40000
O 	O 	0.63038 0.50341 0.50130 -0.39800
H 	H 	0.42770 0.60100 0.44230 0.16400
H 	H 	0.38740 0.50940 0.43240 0.53300
H 	H 	0.55620 0.47190 0.92990 0.00100
H 	H 	0.61980 0.48420 0.93980 -0.46800
C 	C 	0.18755 0.02904 0.33125 0.05500
H 	H 	0.17390 0.97920 0.32300 0.02200
C 	C 	0.22159 0.04608 0.35705 -0.09000
H 	H 	0.22980 0.00740 0.36620 0.06500
C 	C 	0.41851 0.14432 0.43891 -0.03900
H 	H 	0.40890 0.09610 0.43040 0.06500
C 	C 	0.45179 0.16378 0.46484 -0.11000
C 	C 	0.47155 0.11091 0.47811 0.40900
O 	O 	0.12764 0.00424 0.28167 -0.42400
O 	O 	0.46279 0.05246 0.46476 -0.40000
O 	O 	0.49659 0.12697 0.50130 -0.39900
H 	H 	0.39900 0.82670 0.44230 0.16300
H 	H 	0.49060 0.87800 0.43240 0.53300
H 	H 	0.52810 0.08430 0.92990 0.00000
H 	H 	0.51580 0.13560 0.93980 -0.46900
C 	C 	0.02904 0.84149 0.83125 0.06000
H 	H 	0.97920 0.80530 0.82300 0.02100
C 	C 	0.04608 0.82449 0.85705 -0.09400
H 	H 	0.00740 0.77760 0.86620 0.06700
C 	C 	0.14432 0.72581 0.93891 -0.03900
H 	H 	0.09610 0.68720 0.93040 0.06600
C 	C 	0.16378 0.71199 0.96484 -0.11000
C 	C 	0.11091 0.63936 0.97811 0.40900
O 	O 	0.00424 0.87660 0.78167 -0.42300
O 	O 	0.05246 0.58967 0.96476 -0.40000
O 	O 	0.12697 0.63038 0.00130 -0.39900
H 	H 	0.82670 0.42770 0.94230 0.16300
H 	H 	0.87800 0.38740 0.93240 0.53300
H 	H 	0.08430 0.55620 0.42990 0.00000
H 	H 	0.13560 0.61980 0.43980 -0.46900
C 	C 	0.15851 0.18755 0.83125 0.04300
H 	H 	0.19470 0.17390 0.82300 0.03100
C 	C 	0.17551 0.22159 0.85705 -0.08500
H 	H 	0.22240 0.22980 0.86620 0.06200
C 	C 	0.27419 0.41851 0.93891 -0.03900
H 	H 	0.31280 0.40890 0.93040 0.06500
C 	C 	0.28801 0.45179 0.96484 -0.11000
C 	C 	0.36064 0.47155 0.97811 0.40900
O 	O 	0.12340 0.12764 0.78167 -0.42700
O 	O 	0.41033 0.46279 0.96476 -0.40100
O 	O 	0.36962 0.49659 0.00130 -0.39900
H 	H 	0.57230 0.39900 0.94230 0.16300
H 	H 	0.61260 0.49060 0.93240 0.53200
H 	H 	0.44380 0.52810 0.42990 0.00100
H 	H 	0.38020 0.51580 0.43980 -0.46800
C 	C 	0.81245 0.97096 0.83125 0.05500
H 	H 	0.82610 0.02080 0.82300 0.02200
C 	C 	0.77841 0.95392 0.85705 -0.09000
H 	H 	0.77020 0.99260 0.86620 0.06500
C 	C 	0.58149 0.85568 0.93891 -0.03900
H 	H 	0.59110 0.90390 0.93040 0.06500
C 	C 	0.54821 0.83622 0.96484 -0.11000
C 	C 	0.52845 0.88909 0.97811 0.40900
O 	O 	0.87236 0.99576 0.78167 -0.42400
O 	O 	0.53721 0.94754 0.96476 -0.40000
O 	O 	0.50341 0.87303 0.00130 -0.39900
H 	H 	0.60100 0.17330 0.94230 0.16300
H 	H 	0.50940 0.12200 0.93240 0.53300
H 	H 	0.47190 0.91570 0.42990 0.00000
H 	H 	0.48420 0.86440 0.43980 -0.46900
C 	C 	0.15851 0.97096 0.66875 0.06000
H 	H 	0.19470 0.02080 0.67700 0.02100
C 	C 	0.17551 0.95392 0.64295 -0.09400
H 	H 	0.22240 0.99260 0.63380 0.06700
C 	C 	0.27419 0.85568 0.56109 -0.03900
H 	H 	0.31280 0.90390 0.56960 0.06600
C 	C 	0.28801 0.83622 0.53516 -0.11000
C 	C 	0.36064 0.88909 0.52189 0.40900
O 	O 	0.12340 0.99576 0.71833 -0.42300
O 	O 	0.41033 0.94754 0.53524 -0.40000
O 	O 	0.36962 0.87303 0.49870 -0.39900
H 	H 	0.57230 0.17330 0.55770 0.16300
H 	H 	0.61260 0.12200 0.56760 0.53300
H 	H 	0.44380 0.91570 0.07010 0.00000
H 	H 	0.38020 0.86440 0.06020 -0.46900
C 	C 	0.81245 0.84149 0.66875 0.04300
H 	H 	0.82610 0.80530 0.67700 0.03100
C 	C 	0.77841 0.82449 0.64295 -0.08500
H 	H 	0.77020 0.77760 0.63380 0.06200
C 	C 	0.58149 0.72581 0.56109 -0.03900
H 	H 	0.59110 0.68720 0.56960 0.06500
C 	C 	0.54821 0.71199 0.53516 -0.11000
C 	C 	0.52845 0.63936 0.52189 0.40900
O 	O 	0.87236 0.87660 0.71833 -0.42700
O 	O 	0.53721 0.58967 0.53524 -0.40100
O 	O 	0.50341 0.63038 0.49870 -0.39900
H 	H 	0.60100 0.42770 0.55770 0.16300
H 	H 	0.50940 0.38740 0.56760 0.53200
H 	H 	0.47190 0.55620 0.07010 0.00100
H 	H 	0.48420 0.61980 0.06020 -0.46800
C 	C 	0.02904 0.18755 0.66875 0.05500
H 	H 	0.97920 0.17390 0.67700 0.02200
C 	C 	0.04608 0.22159 0.64295 -0.09000
H 	H 	0.00740 0.22980 0.63380 0.06500
C 	C 	0.14432 0.41851 0.56109 -0.03900
H 	H 	0.09610 0.40890 0.56960 0.06500
C 	C 	0.16378 0.45179 0.53516 -0.11000
C 	C 	0.11091 0.47155 0.52189 0.40900
O 	O 	0.00424 0.12764 0.71833 -0.42400
O 	O 	0.05246 0.46279 0.53524 -0.40000
O 	O 	0.12697 0.49659 0.49870 -0.39900
H 	H 	0.82670 0.39900 0.55770 0.16300
H 	H 	0.87800 0.49060 0.56760 0.53300
H 	H 	0.08430 0.52810 0.07010 0.00000
H 	H 	0.13560 0.51580 0.06020 -0.46900
C 	C 	0.84149 0.02904 0.16875 0.06000
H 	H 	0.80530 0.97920 0.17700 0.02100
C 	C 	0.82449 0.04608 0.14295 -0.09400
H 	H 	0.77760 0.00740 0.13380 0.06700
C 	C 	0.72581 0.14432 0.06109 -0.03900
H 	H 	0.68720 0.09610 0.06960 0.06600
C 	C 	0.71199 0.16378 0.03516 -0.11000
C 	C 	0.63936 0.11091 0.02189 0.40900
O 	O 	0.87660 0.00424 0.21833 -0.42300
O 	O 	0.58967 0.05246 0.03524 -0.40000
O 	O 	0.63038 0.12697 0.99870 -0.39900
H 	H 	0.42770 0.82670 0.05770 0.16300
H 	H 	0.38740 0.87800 0.06760 0.53300
H 	H 	0.55620 0.08430 0.57010 0.00000
H 	H 	0.61980 0.13560 0.56020 -0.46900
C 	C 	0.18755 0.15851 0.16875 0.04300
H 	H 	0.17390 0.19470 0.17700 0.03100
C 	C 	0.22159 0.17551 0.14295 -0.08500
H 	H 	0.22980 0.22240 0.13380 0.06200
C 	C 	0.41851 0.27419 0.06109 -0.03900
H 	H 	0.40890 0.31280 0.06960 0.06500
C 	C 	0.45179 0.28801 0.03516 -0.11000
C 	C 	0.47155 0.36064 0.02189 0.40900
O 	O 	0.12764 0.12340 0.21833 -0.42700
O 	O 	0.46279 0.41033 0.03524 -0.40100
O 	O 	0.49659 0.36962 0.99870 -0.39900
H 	H 	0.39900 0.57230 0.05770 0.16300
H 	H 	0.49060 0.61260 0.06760 0.53200
H 	H 	0.52810 0.44380 0.57010 0.00100
H 	H 	0.51580 0.38020 0.56020 -0.46800
C 	C 	0.97096 0.81245 0.16875 0.05500
H 	H 	0.02080 0.82610 0.17700 0.02200
C 	C 	0.95392 0.77841 0.14295 -0.09000
H 	H 	0.99260 0.77020 0.13380 0.06500
C 	C 	0.85568 0.58149 0.06109 -0.03900
H 	H 	0.90390 0.59110 0.06960 0.06500
C 	C 	0.83622 0.54821 0.03516 -0.11000
C 	C 	0.88909 0.52845 0.02189 0.40900
O 	O 	0.99576 0.87236 0.21833 -0.42400
O 	O 	0.94754 0.53721 0.03524 -0.40000
O 	O 	0.87303 0.50341 0.99870 -0.39900
H 	H 	0.17330 0.60100 0.05770 0.16300
H 	H 	0.12200 0.50940 0.06760 0.53300
H 	H 	0.91570 0.47190 0.57010 0.00000
H 	H 	0.86440 0.48420 0.56020 -0.46900
C 	C 	0.02904 0.84149 0.66875 0.06000
H 	H 	0.97920 0.80530 0.67700 0.02100
C 	C 	0.04608 0.82449 0.64295 -0.09400
H 	H 	0.00740 0.77760 0.63380 0.06700
C 	C 	0.14432 0.72581 0.56109 -0.03900
H 	H 	0.09610 0.68720 0.56960 0.06600
C 	C 	0.16378 0.71199 0.53516 -0.11000
C 	C 	0.11091 0.63936 0.52189 0.40900
O 	O 	0.00424 0.87660 0.71833 -0.42300
O 	O 	0.05246 0.58967 0.53524 -0.40000
O 	O 	0.12697 0.63038 0.49870 -0.39900
H 	H 	0.82670 0.42770 0.55770 0.16300
H 	H 	0.87800 0.38740 0.56760 0.53300
H 	H 	0.08430 0.55620 0.07010 0.00000
H 	H 	0.13560 0.61980 0.06020 -0.46900
C 	C 	0.15851 0.18755 0.66875 0.04300
H 	H 	0.19470 0.17390 0.67700 0.03100
C 	C 	0.17551 0.22159 0.64295 -0.08500
H 	H 	0.22240 0.22980 0.63380 0.06200
C 	C 	0.27419 0.41851 0.56109 -0.03900
H 	H 	0.31280 0.40890 0.56960 0.06500
C 	C 	0.28801 0.45179 0.53516 -0.11000
C 	C 	0.36064 0.47155 0.52189 0.40900
O 	O 	0.12340 0.12764 0.71833 -0.42700
O 	O 	0.41033 0.46279 0.53524 -0.40100
O 	O 	0.36962 0.49659 0.49870 -0.39900
H 	H 	0.57230 0.39900 0.55770 0.16300
H 	H 	0.61260 0.49060 0.56760 0.53200
H 	H 	0.44380 0.52810 0.07010 0.00100
H 	H 	0.38020 0.51580 0.06020 -0.46800
C 	C 	0.81245 0.97096 0.66875 0.05500
H 	H 	0.82610 0.02080 0.67700 0.02200
C 	C 	0.77841 0.95392 0.64295 -0.09000
H 	H 	0.77020 0.99260 0.63380 0.06500
C 	C 	0.58149 0.85568 0.56109 -0.03900
H 	H 	0.59110 0.90390 0.56960 0.06500
C 	C 	0.54821 0.83622 0.53516 -0.11000
C 	C 	0.52845 0.88909 0.52189 0.40900
O 	O 	0.87236 0.99576 0.71833 -0.42400
O 	O 	0.53721 0.94754 0.53524 -0.40000
O 	O 	0.50341 0.87303 0.49870 -0.39900
H 	H 	0.60100 0.17330 0.55770 0.16300
H 	H 	0.50940 0.12200 0.56760 0.53300
H 	H 	0.47190 0.91570 0.07010 0.00000
H 	H 	0.48420 0.86440 0.06020 -0.46900
C 	C 	0.97096 0.15851 0.16875 0.06000
H 	H 	0.02080 0.19470 0.17700 0.02100
C 	C 	0.95392 0.17551 0.14295 -0.09400
H 	H 	0.99260 0.22240 0.13380 0.06700
C 	C 	0.85568 0.27419 0.06109 -0.03900
H 	H 	0.90390 0.31280 0.06960 0.06600
C 	C 	0.83622 0.28801 0.03516 -0.11000
C 	C 	0.88909 0.36064 0.02189 0.40900
O 	O 	0.99576 0.12340 0.21833 -0.42300
O 	O 	0.94754 0.41033 0.03524 -0.40000
O 	O 	0.87303 0.36962 0.99870 -0.39900
H 	H 	0.17330 0.57230 0.05770 0.16300
H 	H 	0.12200 0.61260 0.06760 0.53300
H 	H 	0.91570 0.44380 0.57010 0.00000
H 	H 	0.86440 0.38020 0.56020 -0.46900
C 	C 	0.84149 0.81245 0.16875 0.04300
H 	H 	0.80530 0.82610 0.17700 0.03100
C 	C 	0.82449 0.77841 0.14295 -0.08500
H 	H 	0.77760 0.77020 0.13380 0.06200
C 	C 	0.72581 0.58149 0.06109 -0.03900
H 	H 	0.68720 0.59110 0.06960 0.06500
C 	C 	0.71199 0.54821 0.03516 -0.11000
C 	C 	0.63936 0.52845 0.02189 0.40900
O 	O 	0.87660 0.87236 0.21833 -0.42700
O 	O 	0.58967 0.53721 0.03524 -0.40100
O 	O 	0.63038 0.50341 0.99870 -0.39900
H 	H 	0.42770 0.60100 0.05770 0.16300
H 	H 	0.38740 0.50940 0.06760 0.53200
H 	H 	0.55620 0.47190 0.57010 0.00100
H 	H 	0.61980 0.48420 0.56020 -0.46800
C 	C 	0.18755 0.02904 0.16875 0.05500
H 	H 	0.17390 0.97920 0.17700 0.02200
C 	C 	0.22159 0.04608 0.14295 -0.09000
H 	H 	0.22980 0.00740 0.13380 0.06500
C 	C 	0.41851 0.14432 0.06109 -0.03900
H 	H 	0.40890 0.09610 0.06960 0.06500
C 	C 	0.45179 0.16378 0.03516 -0.11000
C 	C 	0.47155 0.11091 0.02189 0.40900
O 	O 	0.12764 0.00424 0.21833 -0.42400
O 	O 	0.46279 0.05246 0.03524 -0.40000
O 	O 	0.49659 0.12697 0.99870 -0.39900
H 	H 	0.39900 0.82670 0.05770 0.16300
H 	H 	0.49060 0.87800 0.06760 0.53300
H 	H 	0.52810 0.08430 0.57010 0.00000
H 	H 	0.51580 0.13560 0.56020 -0.46900
C 	C 	0.84149 0.02904 0.33125 0.06000
H 	H 	0.80530 0.97920 0.32300 0.02100
C 	C 	0.82449 0.04608 0.35705 -0.09400
H 	H 	0.77760 0.00740 0.36620 0.06700
C 	C 	0.72581 0.14432 0.43891 -0.03900
H 	H 	0.68720 0.09610 0.43040 0.06600
C 	C 	0.71199 0.16378 0.46484 -0.11000
C 	C 	0.63936 0.11091 0.47811 0.40900
O 	O 	0.87660 0.00424 0.28167 -0.42300
O 	O 	0.58967 0.05246 0.46476 -0.40000
O 	O 	0.63038 0.12697 0.50130 -0.39900
H 	H 	0.42770 0.82670 0.44230 0.16300
H 	H 	0.38740 0.87800 0.43240 0.53300
H 	H 	0.55620 0.08430 0.92990 0.00000
H 	H 	0.61980 0.13560 0.93980 -0.46900
C 	C 	0.18755 0.15851 0.33125 0.04300
H 	H 	0.17390 0.19470 0.32300 0.03100
C 	C 	0.22159 0.17551 0.35705 -0.08500
H 	H 	0.22980 0.22240 0.36620 0.06200
C 	C 	0.41851 0.27419 0.43891 -0.03900
H 	H 	0.40890 0.31280 0.43040 0.06500
C 	C 	0.45179 0.28801 0.46484 -0.11000
C 	C 	0.47155 0.36064 0.47811 0.40900
O 	O 	0.12764 0.12340 0.28167 -0.42700
O 	O 	0.46279 0.41033 0.46476 -0.40100
O 	O 	0.49659 0.36962 0.50130 -0.39900
H 	H 	0.39900 0.57230 0.44230 0.16300
H 	H 	0.49060 0.61260 0.43240 0.53200
H 	H 	0.52810 0.44380 0.92990 0.00100
H 	H 	0.51580 0.38020 0.93980 -0.46800
C 	C 	0.97096 0.81245 0.33125 0.05500
H 	H 	0.02080 0.82610 0.32300 0.02200
C 	C 	0.95392 0.77841 0.35705 -0.09000
H 	H 	0.99260 0.77020 0.36620 0.06500
C 	C 	0.85568 0.58149 0.43891 -0.03900
H 	H 	0.90390 0.59110 0.43040 0.06500
C 	C 	0.83622 0.54821 0.46484 -0.11000
C 	C 	0.88909 0.52845 0.47811 0.40900
O 	O 	0.99576 0.87236 0.28167 -0.42400
O 	O 	0.94754 0.53721 0.46476 -0.40000
O 	O 	0.87303 0.50341 0.50130 -0.39900
H 	H 	0.17330 0.60100 0.44230 0.16300
H 	H 	0.12200 0.50940 0.43240 0.53300
H 	H 	0.91570 0.47190 0.92990 0.00000
H 	H 	0.86440 0.48420 0.93980 -0.46900
C 	C 	0.15851 0.97096 0.83125 0.06000
H 	H 	0.19470 0.02080 0.82300 0.02100
C 	C 	0.17551 0.95392 0.85705 -0.09400
H 	H 	0.22240 0.99260 0.86620 0.06700
C 	C 	0.27419 0.85568 0.93891 -0.03900
H 	H 	0.31280 0.90390 0.93040 0.06600
C 	C 	0.28801 0.83622 0.96484 -0.11000
C 	C 	0.36064 0.88909 0.97811 0.40900
O 	O 	0.12340 0.99576 0.78167 -0.42300
O 	O 	0.41033 0.94754 0.96476 -0.40000
O 	O 	0.36962 0.87303 0.00130 -0.39900
H 	H 	0.57230 0.17330 0.94230 0.16300
H 	H 	0.61260 0.12200 0.93240 0.53300
H 	H 	0.44380 0.91570 0.42990 0.00000
H 	H 	0.38020 0.86440 0.43980 -0.46900
C 	C 	0.81245 0.84149 0.83125 0.04300
H 	H 	0.82610 0.80530 0.82300 0.03100
C 	C 	0.77841 0.82449 0.85705 -0.08500
H 	H 	0.77020 0.77760 0.86620 0.06200
C 	C 	0.58149 0.72581 0.93891 -0.03900
H 	H 	0.59110 0.68720 0.93040 0.06500
C 	C 	0.54821 0.71199 0.96484 -0.11000
C 	C 	0.52845 0.63936 0.97811 0.40900
O 	O 	0.87236 0.87660 0.78167 -0.42700
O 	O 	0.53721 0.58967 0.96476 -0.40100
O 	O 	0.50341 0.63038 0.00130 -0.39900
H 	H 	0.60100 0.42770 0.94230 0.16300
H 	H 	0.50940 0.38740 0.93240 0.53200
H 	H 	0.47190 0.55620 0.42990 0.00100
H 	H 	0.48420 0.61980 0.43980 -0.46800
C 	C 	0.02904 0.18755 0.83125 0.05500
H 	H 	0.97920 0.17390 0.82300 0.02200
C 	C 	0.04608 0.22159 0.85705 -0.09000
H 	H 	0.00740 0.22980 0.86620 0.06500
C 	C 	0.14432 0.41851 0.93891 -0.03900
H 	H 	0.09610 0.40890 0.93040 0.06500
C 	C 	0.16378 0.45179 0.96484 -0.11000
C 	C 	0.11091 0.47155 0.97811 0.40900
O 	O 	0.00424 0.12764 0.78167 -0.42400
O 	O 	0.05246 0.46279 0.96476 -0.40000
O 	O 	0.12697 0.49659 0.00130 -0.39900
H 	H 	0.82670 0.39900 0.94230 0.16300
H 	H 	0.87800 0.49060 0.93240 0.53300
H 	H 	0.08430 0.52810 0.42990 0.00000
H 	H 	0.13560 0.51580 0.43980 -0.46900
C 	C 	0.92970 0.07030 0.29158 0.41800
C 	C 	0.91300 0.08700 0.31778 -0.14900
C 	C 	0.87850 0.12150 0.36889 0.01000
C 	C 	0.86070 0.13930 0.39592 0.17900
C 	C 	0.79990 0.20010 0.42635 0.09600
C 	C 	0.76575 0.23425 0.47892 0.05000
H 	H 	0.75535 0.24465 0.49630 0.05400
N 	N 	0.81723 0.18277 0.40015 -0.20900
H 	H 	0.80035 0.19965 0.38580 0.11300
O 	O 	0.88254 0.11746 0.41580 -0.19900
C 	C 	0.92970 0.85940 0.29158 0.41500
C 	C 	0.91300 0.82600 0.31778 -0.14200
C 	C 	0.87850 0.75700 0.36889 0.00400
C 	C 	0.86070 0.72140 0.39592 0.18100
C 	C 	0.79990 0.59980 0.42635 0.09600
C 	C 	0.76575 0.53150 0.47892 0.05000
H 	H 	0.75535 0.51070 0.49630 0.05400
N 	N 	0.81723 0.63446 0.40015 -0.20900
H 	H 	0.80035 0.60070 0.38580 0.11300
O 	O 	0.88254 0.76508 0.41580 -0.20100
C 	C 	0.14060 0.07030 0.29158 0.41500
C 	C 	0.17400 0.08700 0.31778 -0.14200
C 	C 	0.24300 0.12150 0.36889 0.00400
C 	C 	0.27860 0.13930 0.39592 0.18100
C 	C 	0.40020 0.20010 0.42635 0.09600
C 	C 	0.46850 0.23425 0.47892 0.05000
H 	H 	0.48930 0.24465 0.49630 0.05400
N 	N 	0.36554 0.18277 0.40015 -0.20900
H 	H 	0.39930 0.19965 0.38580 0.11300
O 	O 	0.23492 0.11746 0.41580 -0.20100
C 	C 	0.07030 0.92970 0.79158 0.41800
C 	C 	0.08700 0.91300 0.81778 -0.14900
C 	C 	0.12150 0.87850 0.86889 0.01000
C 	C 	0.13930 0.86070 0.89592 0.17900
C 	C 	0.20010 0.79990 0.92635 0.09600
C 	C 	0.23425 0.76575 0.97892 0.05000
H 	H 	0.24465 0.75535 0.99630 0.05400
N 	N 	0.18277 0.81723 0.90015 -0.20900
H 	H 	0.19965 0.80035 0.88580 0.11300
O 	O 	0.11746 0.88254 0.91580 -0.19900
C 	C 	0.07030 0.14060 0.79158 0.41500
C 	C 	0.08700 0.17400 0.81778 -0.14300
C 	C 	0.12150 0.24300 0.86889 0.00400
C 	C 	0.13930 0.27860 0.89592 0.18100
C 	C 	0.20010 0.40020 0.92635 0.09600
C 	C 	0.23425 0.46850 0.97892 0.05000
H 	H 	0.24465 0.48930 0.99630 0.05400
N 	N 	0.18277 0.36554 0.90015 -0.20900
H 	H 	0.19965 0.39930 0.88580 0.11300
O 	O 	0.11746 0.23492 0.91580 -0.20100
C 	C 	0.85940 0.92970 0.79158 0.41500
C 	C 	0.82600 0.91300 0.81778 -0.14300
C 	C 	0.75700 0.87850 0.86889 0.00400
C 	C 	0.72140 0.86070 0.89592 0.18100
C 	C 	0.59980 0.79990 0.92635 0.09600
C 	C 	0.53150 0.76575 0.97892 0.05000
H 	H 	0.51070 0.75535 0.99630 0.05400
N 	N 	0.63446 0.81723 0.90015 -0.20900
H 	H 	0.60070 0.80035 0.88580 0.11300
O 	O 	0.76508 0.88254 0.91580 -0.20100
C 	C 	0.07030 0.92970 0.70842 0.41800
C 	C 	0.08700 0.91300 0.68222 -0.14900
C 	C 	0.12150 0.87850 0.63111 0.01000
C 	C 	0.13930 0.86070 0.60408 0.17900
C 	C 	0.20010 0.79990 0.57365 0.09600
C 	C 	0.23425 0.76575 0.52108 0.05000
H 	H 	0.24465 0.75535 0.50370 0.05400
N 	N 	0.18277 0.81723 0.59985 -0.20900
H 	H 	0.19965 0.80035 0.61420 0.11300
O 	O 	0.11746 0.88254 0.58420 -0.19900
C 	C 	0.85940 0.92970 0.70842 0.41500
C 	C 	0.82600 0.91300 0.68222 -0.14200
C 	C 	0.75700 0.87850 0.63111 0.00400
C 	C 	0.72140 0.86070 0.60408 0.18100
C 	C 	0.59980 0.79990 0.57365 0.09600
C 	C 	0.53150 0.76575 0.52108 0.05000
H 	H 	0.51070 0.75535 0.50370 0.05400
N 	N 	0.63446 0.81723 0.59985 -0.20900
H 	H 	0.60070 0.80035 0.61420 0.11300
O 	O 	0.76508 0.88254 0.58420 -0.20100
C 	C 	0.07030 0.14060 0.70842 0.41500
C 	C 	0.08700 0.17400 0.68222 -0.14200
C 	C 	0.12150 0.24300 0.63111 0.00400
C 	C 	0.13930 0.27860 0.60408 0.18100
C 	C 	0.20010 0.40020 0.57365 0.09600
C 	C 	0.23425 0.46850 0.52108 0.05000
H 	H 	0.24465 0.48930 0.50370 0.05400
N 	N 	0.18277 0.36554 0.59985 -0.20900
H 	H 	0.19965 0.39930 0.61420 0.11300
O 	O 	0.11746 0.23492 0.58420 -0.20100
C 	C 	0.92970 0.07030 0.20842 0.41800
C 	C 	0.91300 0.08700 0.18222 -0.14900
C 	C 	0.87850 0.12150 0.13111 0.01000
C 	C 	0.86070 0.13930 0.10408 0.17900
C 	C 	0.79990 0.20010 0.07365 0.09600
C 	C 	0.76575 0.23425 0.02108 0.05000
H 	H 	0.75535 0.24465 0.00370 0.05400
N 	N 	0.81723 0.18277 0.09985 -0.20900
H 	H 	0.80035 0.19965 0.11420 0.11300
O 	O 	0.88254 0.11746 0.08420 -0.19900
C 	C 	0.14060 0.07030 0.20842 0.41500
C 	C 	0.17400 0.08700 0.18222 -0.14300
C 	C 	0.24300 0.12150 0.13111 0.00400
C 	C 	0.27860 0.13930 0.10408 0.18100
C 	C 	0.40020 0.20010 0.07365 0.09600
C 	C 	0.46850 0.23425 0.02108 0.05000
H 	H 	0.48930 0.24465 0.00370 0.05400
N 	N 	0.36554 0.18277 0.09985 -0.20900
H 	H 	0.39930 0.19965 0.11420 0.11300
O 	O 	0.23492 0.11746 0.08420 -0.20100
C 	C 	0.92970 0.85940 0.20842 0.41500
C 	C 	0.91300 0.82600 0.18222 -0.14300
C 	C 	0.87850 0.75700 0.13111 0.00400
C 	C 	0.86070 0.72140 0.10408 0.18100
C 	C 	0.79990 0.59980 0.07365 0.09600
C 	C 	0.76575 0.53150 0.02108 0.05000
H 	H 	0.75535 0.51070 0.00370 0.05400
N 	N 	0.81723 0.63446 0.09985 -0.20900
H 	H 	0.80035 0.60070 0.11420 0.11300
O 	O 	0.88254 0.76508 0.08420 -0.20100
Cu	Cu	0.06079 0.12158 0.25000 0.89500
Cu	Cu	0.87842 0.93921 0.25000 0.89500
Cu	Cu	0.06079 0.93921 0.25000 0.89200
Cu	Cu	0.93921 0.87842 0.75000 0.89500
Cu	Cu	0.12158 0.06079 0.75000 0.89500
Cu	Cu	0.93921 0.06079 0.75000 0.89200
Cu	Cu	0.05041 0.52520 0.47845 0.90700
O 	O 	0.11130 0.55565 0.43920 -0.13200
Cu	Cu	0.47480 0.52520 0.47845 0.90800
O 	O 	0.44435 0.55565 0.43920 -0.13200
Cu	Cu	0.47480 0.94959 0.47845 0.90700
O 	O 	0.44435 0.88870 0.43920 -0.13200
Cu	Cu	0.94959 0.47480 0.97845 0.90700
O 	O 	0.88870 0.44435 0.93920 -0.13200
Cu	Cu	0.52520 0.47479 0.97845 0.90800
O 	O 	0.55565 0.44435 0.93920 -0.13200
Cu	Cu	0.52520 0.05041 0.97845 0.90700
O 	O 	0.55565 0.11130 0.93920 -0.13200
Cu	Cu	0.52520 0.05041 0.52155 0.90700
O 	O 	0.55565 0.11130 0.56080 -0.13200
Cu	Cu	0.52520 0.47480 0.52155 0.90800
O 	O 	0.55565 0.44435 0.56080 -0.13200
Cu	Cu	0.94959 0.47480 0.52155 0.90700
O 	O 	0.88870 0.44435 0.56080 -0.13200
Cu	Cu	0.47480 0.94959 0.02155 0.90700
O 	O 	0.44435 0.88870 0.06080 -0.13200
Cu	Cu	0.47480 0.52520 0.02155 0.90800
O 	O 	0.44435 0.55565 0.06080 -0.13200
Cu	Cu	0.05041 0.52520 0.02155 0.90700
O 	O 	0.11130 0.55565 0.06080 -0.13200
O 	O 	0.87320 0.43660 0.94400 -0.34800
O 	O 	0.56340 0.43660 0.94400 -0.34800
O 	O 	0.56340 0.12680 0.94400 -0.34800
O 	O 	0.12680 0.56340 0.44400 -0.34800
O 	O 	0.43660 0.56340 0.44400 -0.34800
O 	O 	0.43660 0.87320 0.44400 -0.34800
O 	O 	0.43660 0.87320 0.05600 -0.34800
O 	O 	0.43660 0.56340 0.05600 -0.34800
O 	O 	0.12680 0.56340 0.05600 -0.34800
O 	O 	0.56340 0.12680 0.55600 -0.34800
O 	O 	0.56340 0.43660 0.55600 -0.34800
O 	O 	0.87320 0.43660 0.55600 -0.34800
