data_crystal

_cell_length_a 25.68600
_cell_length_b 31.77000
_cell_length_c 25.12900
_cell_angle_alpha 90.00000
_cell_angle_beta  90.00000
_cell_angle_gamma 90.00000

_symmetry_space_group_name_	'P 1'
_symmetry_space_group_name_H-M	'P 1'

loop_
_symmetry_equiv_pos_as_xyz
  x,y,z

loop_
_atom_site_label
_atom_site_type_symbol
_atom_site_fract_x
_atom_site_fract_y
_atom_site_fract_z
_atom_site_charge
Mo	Mo	0.19570 0.02305 0.40609 1.04100
Mo	Mo	0.33500 0.17227 0.33934 1.04500
Mo	Mo	0.20759 0.19747 0.36732 1.09800
Mo	Mo	0.16164 0.07993 0.52642 1.04700
Mo	Mo	0.29985 0.22884 0.45956 1.04700
Mo	Mo	0.39511 0.04403 0.46300 1.09800
Mo	Mo	0.29508 0.01112 0.38190 1.05700
Mo	Mo	0.31215 0.19319 0.55378 1.05300
Mo	Mo	0.36471 0.09447 0.56939 1.09800
Mo	Mo	0.37327 0.09513 0.34472 1.05600
Mo	Mo	0.23416 0.10919 0.59101 1.05300
Mo	Mo	0.13532 0.12010 0.40217 1.09900
Zn	Zn	0.23562 0.09949 0.31447 1.20400
Zn	Zn	0.27970 0.01695 0.52239 1.21700
Zn	Zn	0.40608 0.15316 0.46173 1.21900
Zn	Zn	0.18201 0.18692 0.50137 1.20200
C 	C 	0.25170 0.10630 0.19880 0.01500
H 	H 	0.27460 0.12760 0.20880 -0.03200
C 	C 	0.25200 0.09400 0.14780 -0.07700
H 	H 	0.27400 0.10700 0.12350 0.03400
C 	C 	0.21890 0.06130 0.13130 -0.05600
C 	C 	0.18340 0.04490 0.17000 -0.08500
H 	H 	0.15950 0.02420 0.16090 0.02600
C 	C 	0.18560 0.06060 0.22110 0.02300
H 	H 	0.16170 0.05040 0.24570 -0.03700
C 	C 	0.22190 0.04160 0.07750 0.29800
C 	C 	0.08170 0.19980 0.55020 0.03400
H 	H 	0.08590 0.17180 0.56030 -0.03700
C 	C 	0.03530 0.22100 0.56020 -0.09900
H 	H 	0.00820 0.20660 0.57670 0.04700
C 	C 	0.02830 0.26140 0.54690 -0.03200
C 	C 	0.06870 0.28240 0.52340 -0.11600
H 	H 	0.06620 0.31050 0.51340 0.05100
C 	C 	0.11330 0.25930 0.51530 0.06500
H 	H 	0.14160 0.27350 0.50080 -0.05100
C 	C 	0.97700 0.28300 0.55760 0.29800
N 	N 	0.21990 0.08960 0.23740 -0.27300
N 	N 	0.11960 0.22030 0.52590 -0.28200
O 	O 	0.34840 0.04160 0.52680 -0.71300
O 	O 	0.30560 0.08560 0.60740 -0.59400
O 	O 	0.36690 0.15160 0.57780 -0.59400
O 	O 	0.24930 0.21150 0.51320 -0.75700
O 	O 	0.41840 0.06950 0.40160 -0.59600
O 	O 	0.34080 0.22490 0.38910 -0.49500
O 	O 	0.11630 0.10850 0.47040 -0.58900
O 	O 	0.26560 0.16370 0.60150 -0.58100
O 	O 	0.35560 0.00360 0.43340 -0.60600
O 	O 	0.14400 0.06530 0.37960 -0.60300
O 	O 	0.26310 0.19190 0.32200 -0.60500
O 	O 	0.23560 0.23550 0.41300 -0.60500
O 	O 	0.25620 0.00610 0.44930 -0.73100
O 	O 	0.22670 0.05600 0.55210 -0.72800
O 	O 	0.40130 0.10090 0.49890 -0.72200
O 	O 	0.38650 0.14630 0.38640 -0.73300
O 	O 	0.30850 0.11730 0.31570 -0.74500
O 	O 	0.35550 0.19440 0.49020 -0.73400
O 	O 	0.15790 0.02570 0.47940 -0.48900
O 	O 	0.18890 0.13820 0.34700 -0.72700
O 	O 	0.16400 0.17470 0.42740 -0.71900
O 	O 	0.34290 0.03930 0.33750 -0.58600
O 	O 	0.23970 0.04450 0.34800 -0.74900
O 	O 	0.18130 0.13720 0.54560 -0.75100
O 	O 	0.26920 0.03380 0.06340 -0.47500
O 	O 	0.18120 0.03340 0.05370 -0.31900
O 	O 	0.94350 0.26410 0.58250 -0.33000
O 	O 	0.97420 0.32010 0.53740 -0.47800
Mo	Mo	0.69570 0.47695 0.59391 1.04200
Mo	Mo	0.83500 0.32773 0.66066 1.04600
Mo	Mo	0.70759 0.30253 0.63268 1.09900
Mo	Mo	0.66164 0.42007 0.47358 1.04800
Mo	Mo	0.79985 0.27116 0.54044 1.04700
Mo	Mo	0.89511 0.45597 0.53700 1.09800
Mo	Mo	0.79508 0.48888 0.61810 1.05700
Mo	Mo	0.81215 0.30681 0.44622 1.05300
Mo	Mo	0.86471 0.40553 0.43061 1.09800
Mo	Mo	0.87327 0.40487 0.65528 1.05600
Mo	Mo	0.73416 0.39081 0.40899 1.05300
Mo	Mo	0.63532 0.37990 0.59783 1.09900
Zn	Zn	0.73562 0.40051 0.68553 1.20400
Zn	Zn	0.77970 0.48305 0.47761 1.21700
Zn	Zn	0.90608 0.34684 0.53827 1.21900
Zn	Zn	0.68201 0.31308 0.49863 1.20200
C 	C 	0.75170 0.39370 0.80120 0.01500
H 	H 	0.77460 0.37240 0.79120 -0.03200
C 	C 	0.75200 0.40600 0.85220 -0.07700
H 	H 	0.77400 0.39300 0.87650 0.03400
C 	C 	0.71890 0.43870 0.86870 -0.05600
C 	C 	0.68340 0.45510 0.83000 -0.08500
H 	H 	0.65950 0.47580 0.83910 0.02600
C 	C 	0.68560 0.43940 0.77890 0.02300
H 	H 	0.66170 0.44960 0.75430 -0.03700
C 	C 	0.72190 0.45840 0.92250 0.29800
C 	C 	0.58170 0.30020 0.44980 0.03400
H 	H 	0.58590 0.32820 0.43970 -0.03700
C 	C 	0.53530 0.27900 0.43980 -0.09900
H 	H 	0.50820 0.29340 0.42330 0.04700
C 	C 	0.52830 0.23860 0.45310 -0.03200
C 	C 	0.56870 0.21760 0.47660 -0.11500
H 	H 	0.56620 0.18950 0.48660 0.05100
C 	C 	0.61330 0.24070 0.48470 0.06500
H 	H 	0.64160 0.22650 0.49920 -0.05100
C 	C 	0.47700 0.21700 0.44240 0.29800
N 	N 	0.71990 0.41040 0.76260 -0.27300
N 	N 	0.61960 0.27970 0.47410 -0.28200
O 	O 	0.84840 0.45840 0.47320 -0.71300
O 	O 	0.80560 0.41440 0.39260 -0.59400
O 	O 	0.86690 0.34840 0.42220 -0.59400
O 	O 	0.74930 0.28850 0.48680 -0.75700
O 	O 	0.91840 0.43050 0.59840 -0.59600
O 	O 	0.84080 0.27510 0.61090 -0.49500
O 	O 	0.61630 0.39150 0.52960 -0.58900
O 	O 	0.76560 0.33630 0.39850 -0.58100
O 	O 	0.85560 0.49640 0.56660 -0.60600
O 	O 	0.64400 0.43470 0.62040 -0.60200
O 	O 	0.76310 0.30810 0.67800 -0.60500
O 	O 	0.73560 0.26450 0.58700 -0.60500
O 	O 	0.75620 0.49390 0.55070 -0.73100
O 	O 	0.72670 0.44400 0.44790 -0.72800
O 	O 	0.90130 0.39910 0.50110 -0.72200
O 	O 	0.88650 0.35370 0.61360 -0.73300
O 	O 	0.80850 0.38270 0.68430 -0.74600
O 	O 	0.85550 0.30560 0.50980 -0.73400
O 	O 	0.65790 0.47430 0.52060 -0.48900
O 	O 	0.68890 0.36180 0.65300 -0.72700
O 	O 	0.66400 0.32530 0.57260 -0.71900
O 	O 	0.84290 0.46070 0.66250 -0.58600
O 	O 	0.73970 0.45550 0.65200 -0.74900
O 	O 	0.68130 0.36280 0.45440 -0.75100
O 	O 	0.76920 0.46620 0.93660 -0.47500
O 	O 	0.68120 0.46660 0.94630 -0.31900
O 	O 	0.44350 0.23590 0.41750 -0.33000
O 	O 	0.47420 0.17990 0.46260 -0.47800
Mo	Mo	0.69570 0.52305 0.09391 1.04200
Mo	Mo	0.83500 0.67227 0.16066 1.04600
Mo	Mo	0.70759 0.69747 0.13268 1.09900
Mo	Mo	0.66164 0.57993 0.97358 1.04800
Mo	Mo	0.79985 0.72884 0.04044 1.04700
Mo	Mo	0.89511 0.54403 0.03700 1.09900
Mo	Mo	0.79508 0.51112 0.11810 1.05700
Mo	Mo	0.81215 0.69319 0.94622 1.05300
Mo	Mo	0.86471 0.59447 0.93061 1.09800
Mo	Mo	0.87327 0.59513 0.15528 1.05600
Mo	Mo	0.73416 0.60919 0.90899 1.05300
Mo	Mo	0.63532 0.62010 0.09783 1.09900
Zn	Zn	0.73562 0.59949 0.18553 1.20400
Zn	Zn	0.77970 0.51695 0.97761 1.21700
Zn	Zn	0.90608 0.65316 0.03827 1.21900
Zn	Zn	0.68201 0.68692 0.99863 1.20200
C 	C 	0.75170 0.60630 0.30120 0.01500
H 	H 	0.77460 0.62760 0.29120 -0.03200
C 	C 	0.75200 0.59400 0.35220 -0.07700
H 	H 	0.77400 0.60700 0.37650 0.03400
C 	C 	0.71890 0.56130 0.36870 -0.05600
C 	C 	0.68340 0.54490 0.33000 -0.08500
H 	H 	0.65950 0.52420 0.33910 0.02600
C 	C 	0.68560 0.56060 0.27890 0.02300
H 	H 	0.66170 0.55040 0.25430 -0.03700
C 	C 	0.72190 0.54160 0.42250 0.29800
C 	C 	0.58170 0.69980 0.94980 0.03400
H 	H 	0.58590 0.67180 0.93970 -0.03700
C 	C 	0.53530 0.72100 0.93980 -0.09900
H 	H 	0.50820 0.70660 0.92330 0.04700
C 	C 	0.52830 0.76140 0.95310 -0.03100
C 	C 	0.56870 0.78240 0.97660 -0.11600
H 	H 	0.56620 0.81050 0.98660 0.05200
C 	C 	0.61330 0.75930 0.98470 0.06500
H 	H 	0.64160 0.77350 0.99920 -0.05100
C 	C 	0.47700 0.78300 0.94240 0.29800
N 	N 	0.71990 0.58960 0.26260 -0.27300
N 	N 	0.61960 0.72030 0.97410 -0.28200
O 	O 	0.84840 0.54160 0.97320 -0.71400
O 	O 	0.80560 0.58560 0.89260 -0.59400
O 	O 	0.86690 0.65160 0.92220 -0.59400
O 	O 	0.74930 0.71150 0.98680 -0.75700
O 	O 	0.91840 0.56950 0.09840 -0.59500
O 	O 	0.84080 0.72490 0.11090 -0.49500
O 	O 	0.61630 0.60850 0.02960 -0.58900
O 	O 	0.76560 0.66370 0.89850 -0.58100
O 	O 	0.85560 0.50360 0.06660 -0.60600
O 	O 	0.64400 0.56530 0.12040 -0.60200
O 	O 	0.76310 0.69190 0.17800 -0.60500
O 	O 	0.73560 0.73550 0.08700 -0.60500
O 	O 	0.75620 0.50610 0.05070 -0.73100
O 	O 	0.72670 0.55600 0.94790 -0.72800
O 	O 	0.90130 0.60090 0.00110 -0.72200
O 	O 	0.88650 0.64630 0.11360 -0.73300
O 	O 	0.80850 0.61730 0.18430 -0.74500
O 	O 	0.85550 0.69440 0.00980 -0.73400
O 	O 	0.65790 0.52570 0.02060 -0.48800
O 	O 	0.68890 0.63820 0.15300 -0.72700
O 	O 	0.66400 0.67470 0.07260 -0.71900
O 	O 	0.84290 0.53930 0.16250 -0.58600
O 	O 	0.73970 0.54450 0.15200 -0.74900
O 	O 	0.68130 0.63720 0.95440 -0.75100
O 	O 	0.76920 0.53380 0.43660 -0.47500
O 	O 	0.68120 0.53340 0.44630 -0.31900
O 	O 	0.44350 0.76410 0.91750 -0.33000
O 	O 	0.47420 0.82010 0.96260 -0.47800
Mo	Mo	0.19570 0.97695 0.90609 1.04200
Mo	Mo	0.33500 0.82773 0.83934 1.04600
Mo	Mo	0.20759 0.80253 0.86732 1.09900
Mo	Mo	0.16164 0.92007 0.02642 1.04700
Mo	Mo	0.29985 0.77116 0.95956 1.04700
Mo	Mo	0.39511 0.95597 0.96300 1.09900
Mo	Mo	0.29508 0.98888 0.88190 1.05700
Mo	Mo	0.31215 0.80681 0.05378 1.05300
Mo	Mo	0.36471 0.90553 0.06939 1.09800
Mo	Mo	0.37327 0.90487 0.84472 1.05600
Mo	Mo	0.23416 0.89081 0.09101 1.05300
Mo	Mo	0.13532 0.87990 0.90217 1.09900
Zn	Zn	0.23562 0.90051 0.81447 1.20400
Zn	Zn	0.27970 0.98305 0.02239 1.21700
Zn	Zn	0.40608 0.84684 0.96173 1.21900
Zn	Zn	0.18201 0.81308 0.00137 1.20200
C 	C 	0.25170 0.89370 0.69880 0.01500
H 	H 	0.27460 0.87240 0.70880 -0.03200
C 	C 	0.25200 0.90600 0.64780 -0.07700
H 	H 	0.27400 0.89300 0.62350 0.03400
C 	C 	0.21890 0.93870 0.63130 -0.05600
C 	C 	0.18340 0.95510 0.67000 -0.08500
H 	H 	0.15950 0.97580 0.66090 0.02600
C 	C 	0.18560 0.93940 0.72110 0.02300
H 	H 	0.16170 0.94960 0.74570 -0.03700
C 	C 	0.22190 0.95840 0.57750 0.29800
C 	C 	0.08170 0.80020 0.05020 0.03300
H 	H 	0.08590 0.82820 0.06030 -0.03700
C 	C 	0.03530 0.77900 0.06020 -0.09800
H 	H 	0.00820 0.79340 0.07670 0.04600
C 	C 	0.02830 0.73860 0.04690 -0.03400
C 	C 	0.06870 0.71760 0.02340 -0.11400
H 	H 	0.06620 0.68950 0.01340 0.05100
C 	C 	0.11330 0.74070 0.01530 0.06400
H 	H 	0.14160 0.72650 0.00080 -0.05100
C 	C 	0.97700 0.71700 0.05760 0.29900
N 	N 	0.21990 0.91040 0.73740 -0.27300
N 	N 	0.11960 0.77970 0.02590 -0.28200
O 	O 	0.34840 0.95840 0.02680 -0.71400
O 	O 	0.30560 0.91440 0.10740 -0.59400
O 	O 	0.36690 0.84840 0.07780 -0.59400
O 	O 	0.24930 0.78850 0.01320 -0.75700
O 	O 	0.41840 0.93050 0.90160 -0.59500
O 	O 	0.34080 0.77510 0.88910 -0.49500
O 	O 	0.11630 0.89150 0.97040 -0.58800
O 	O 	0.26560 0.83630 0.10150 -0.58100
O 	O 	0.35560 0.99640 0.93340 -0.60500
O 	O 	0.14400 0.93470 0.87960 -0.60200
O 	O 	0.26310 0.80810 0.82200 -0.60500
O 	O 	0.23560 0.76450 0.91300 -0.60500
O 	O 	0.25620 0.99390 0.94930 -0.73000
O 	O 	0.22670 0.94400 0.05210 -0.72900
O 	O 	0.40130 0.89910 0.99890 -0.72200
O 	O 	0.38650 0.85370 0.88640 -0.73300
O 	O 	0.30850 0.88270 0.81570 -0.74500
O 	O 	0.35550 0.80560 0.99020 -0.73400
O 	O 	0.15790 0.97430 0.97940 -0.48800
O 	O 	0.18890 0.86180 0.84700 -0.72700
O 	O 	0.16400 0.82530 0.92740 -0.71800
O 	O 	0.34290 0.96070 0.83750 -0.58600
O 	O 	0.23970 0.95550 0.84800 -0.74900
O 	O 	0.18130 0.86280 0.04560 -0.75100
O 	O 	0.26920 0.96620 0.56340 -0.47500
O 	O 	0.18120 0.96660 0.55370 -0.31900
O 	O 	0.94350 0.73590 0.08250 -0.33000
O 	O 	0.97420 0.67990 0.03740 -0.47800
Mo	Mo	0.30430 0.47695 0.90609 1.04200
Mo	Mo	0.16500 0.32773 0.83934 1.04600
Mo	Mo	0.29241 0.30253 0.86732 1.09900
Mo	Mo	0.33836 0.42007 0.02642 1.04800
Mo	Mo	0.20015 0.27116 0.95956 1.04700
Mo	Mo	0.10489 0.45597 0.96300 1.09900
Mo	Mo	0.20492 0.48888 0.88190 1.05700
Mo	Mo	0.18785 0.30681 0.05378 1.05300
Mo	Mo	0.13529 0.40553 0.06939 1.09800
Mo	Mo	0.12673 0.40487 0.84472 1.05600
Mo	Mo	0.26584 0.39081 0.09101 1.05300
Mo	Mo	0.36468 0.37990 0.90217 1.09900
Zn	Zn	0.26438 0.40051 0.81447 1.20400
Zn	Zn	0.22030 0.48305 0.02239 1.21700
Zn	Zn	0.09392 0.34684 0.96173 1.21900
Zn	Zn	0.31799 0.31308 0.00137 1.20200
C 	C 	0.24830 0.39370 0.69880 0.01500
H 	H 	0.22540 0.37240 0.70880 -0.03200
C 	C 	0.24800 0.40600 0.64780 -0.07700
H 	H 	0.22600 0.39300 0.62350 0.03400
C 	C 	0.28110 0.43870 0.63130 -0.05600
C 	C 	0.31660 0.45510 0.67000 -0.08500
H 	H 	0.34050 0.47580 0.66090 0.02600
C 	C 	0.31440 0.43940 0.72110 0.02300
H 	H 	0.33830 0.44960 0.74570 -0.03700
C 	C 	0.27810 0.45840 0.57750 0.29800
C 	C 	0.41830 0.30020 0.05020 0.03400
H 	H 	0.41410 0.32820 0.06030 -0.03700
C 	C 	0.46470 0.27900 0.06020 -0.09900
H 	H 	0.49180 0.29340 0.07670 0.04700
C 	C 	0.47170 0.23860 0.04690 -0.03100
C 	C 	0.43130 0.21760 0.02340 -0.11600
H 	H 	0.43380 0.18950 0.01340 0.05200
C 	C 	0.38670 0.24070 0.01530 0.06500
H 	H 	0.35840 0.22650 0.00080 -0.05100
C 	C 	0.52300 0.21700 0.05760 0.29800
N 	N 	0.28010 0.41040 0.73740 -0.27300
N 	N 	0.38040 0.27970 0.02590 -0.28200
O 	O 	0.15160 0.45840 0.02680 -0.71400
O 	O 	0.19440 0.41440 0.10740 -0.59400
O 	O 	0.13310 0.34840 0.07780 -0.59400
O 	O 	0.25070 0.28850 0.01320 -0.75700
O 	O 	0.08160 0.43050 0.90160 -0.59500
O 	O 	0.15920 0.27510 0.88910 -0.49500
O 	O 	0.38370 0.39150 0.97040 -0.58900
O 	O 	0.23440 0.33630 0.10150 -0.58100
O 	O 	0.14440 0.49640 0.93340 -0.60600
O 	O 	0.35600 0.43470 0.87960 -0.60200
O 	O 	0.23690 0.30810 0.82200 -0.60500
O 	O 	0.26440 0.26450 0.91300 -0.60500
O 	O 	0.24380 0.49390 0.94930 -0.73100
O 	O 	0.27330 0.44400 0.05210 -0.72800
O 	O 	0.09870 0.39910 0.99890 -0.72200
O 	O 	0.11350 0.35370 0.88640 -0.73300
O 	O 	0.19150 0.38270 0.81570 -0.74500
O 	O 	0.14450 0.30560 0.99020 -0.73400
O 	O 	0.34210 0.47430 0.97940 -0.48800
O 	O 	0.31110 0.36180 0.84700 -0.72700
O 	O 	0.33600 0.32530 0.92740 -0.71900
O 	O 	0.15710 0.46070 0.83750 -0.58600
O 	O 	0.26030 0.45550 0.84800 -0.74900
O 	O 	0.31870 0.36280 0.04560 -0.75100
O 	O 	0.23080 0.46620 0.56340 -0.47500
O 	O 	0.31880 0.46660 0.55370 -0.31900
O 	O 	0.55650 0.23590 0.08250 -0.33000
O 	O 	0.52580 0.17990 0.03740 -0.47800
Mo	Mo	0.80430 0.02305 0.09391 1.04200
Mo	Mo	0.66500 0.17227 0.16066 1.04600
Mo	Mo	0.79241 0.19747 0.13268 1.09900
Mo	Mo	0.83836 0.07993 0.97358 1.04700
Mo	Mo	0.70015 0.22884 0.04044 1.04700
Mo	Mo	0.60489 0.04403 0.03700 1.09900
Mo	Mo	0.70492 0.01112 0.11810 1.05700
Mo	Mo	0.68785 0.19319 0.94622 1.05300
Mo	Mo	0.63529 0.09447 0.93061 1.09800
Mo	Mo	0.62673 0.09513 0.15528 1.05600
Mo	Mo	0.76584 0.10919 0.90899 1.05300
Mo	Mo	0.86468 0.12010 0.09783 1.09900
Zn	Zn	0.76438 0.09949 0.18553 1.20400
Zn	Zn	0.72030 0.01695 0.97761 1.21700
Zn	Zn	0.59392 0.15316 0.03827 1.21900
Zn	Zn	0.81799 0.18692 0.99863 1.20200
C 	C 	0.74830 0.10630 0.30120 0.01500
H 	H 	0.72540 0.12760 0.29120 -0.03200
C 	C 	0.74800 0.09400 0.35220 -0.07700
H 	H 	0.72600 0.10700 0.37650 0.03400
C 	C 	0.78110 0.06130 0.36870 -0.05600
C 	C 	0.81660 0.04490 0.33000 -0.08500
H 	H 	0.84050 0.02420 0.33910 0.02600
C 	C 	0.81440 0.06060 0.27890 0.02300
H 	H 	0.83830 0.05040 0.25430 -0.03700
C 	C 	0.77810 0.04160 0.42250 0.29800
C 	C 	0.91830 0.19980 0.94980 0.03300
H 	H 	0.91410 0.17180 0.93970 -0.03700
C 	C 	0.96470 0.22100 0.93980 -0.09800
H 	H 	0.99180 0.20660 0.92330 0.04600
C 	C 	0.97170 0.26140 0.95310 -0.03400
C 	C 	0.93130 0.28240 0.97660 -0.11400
H 	H 	0.93380 0.31050 0.98660 0.05100
C 	C 	0.88670 0.25930 0.98470 0.06400
H 	H 	0.85840 0.27350 0.99920 -0.05100
C 	C 	0.02300 0.28300 0.94240 0.29900
N 	N 	0.78010 0.08960 0.26260 -0.27300
N 	N 	0.88040 0.22030 0.97410 -0.28200
O 	O 	0.65160 0.04160 0.97320 -0.71400
O 	O 	0.69440 0.08560 0.89260 -0.59400
O 	O 	0.63310 0.15160 0.92220 -0.59400
O 	O 	0.75070 0.21150 0.98680 -0.75700
O 	O 	0.58160 0.06950 0.09840 -0.59500
O 	O 	0.65920 0.22490 0.11090 -0.49500
O 	O 	0.88370 0.10850 0.02960 -0.58800
O 	O 	0.73440 0.16370 0.89850 -0.58100
O 	O 	0.64440 0.00360 0.06660 -0.60500
O 	O 	0.85600 0.06530 0.12040 -0.60200
O 	O 	0.73690 0.19190 0.17800 -0.60500
O 	O 	0.76440 0.23550 0.08700 -0.60500
O 	O 	0.74380 0.00610 0.05070 -0.73000
O 	O 	0.77330 0.05600 0.94790 -0.72900
O 	O 	0.59870 0.10090 0.00110 -0.72200
O 	O 	0.61350 0.14630 0.11360 -0.73300
O 	O 	0.69150 0.11730 0.18430 -0.74500
O 	O 	0.64450 0.19440 0.00980 -0.73400
O 	O 	0.84210 0.02570 0.02060 -0.48800
O 	O 	0.81110 0.13820 0.15300 -0.72700
O 	O 	0.83600 0.17470 0.07260 -0.71800
O 	O 	0.65710 0.03930 0.16250 -0.58600
O 	O 	0.76030 0.04450 0.15200 -0.74900
O 	O 	0.81870 0.13720 0.95440 -0.75100
O 	O 	0.73080 0.03380 0.43660 -0.47500
O 	O 	0.81880 0.03340 0.44630 -0.31900
O 	O 	0.05650 0.26410 0.91750 -0.33000
O 	O 	0.02580 0.32010 0.96260 -0.47800
Mo	Mo	0.80430 0.97695 0.59391 1.04200
Mo	Mo	0.66500 0.82773 0.66066 1.04600
Mo	Mo	0.79241 0.80253 0.63268 1.09900
Mo	Mo	0.83836 0.92007 0.47358 1.04800
Mo	Mo	0.70015 0.77116 0.54044 1.04700
Mo	Mo	0.60489 0.95597 0.53700 1.09800
Mo	Mo	0.70492 0.98888 0.61810 1.05700
Mo	Mo	0.68785 0.80681 0.44622 1.05300
Mo	Mo	0.63529 0.90553 0.43061 1.09800
Mo	Mo	0.62673 0.90487 0.65528 1.05600
Mo	Mo	0.76584 0.89081 0.40899 1.05300
Mo	Mo	0.86468 0.87990 0.59783 1.09900
Zn	Zn	0.76438 0.90051 0.68553 1.20400
Zn	Zn	0.72030 0.98305 0.47761 1.21700
Zn	Zn	0.59392 0.84684 0.53827 1.21900
Zn	Zn	0.81799 0.81308 0.49863 1.20200
C 	C 	0.74830 0.89370 0.80120 0.01500
H 	H 	0.72540 0.87240 0.79120 -0.03200
C 	C 	0.74800 0.90600 0.85220 -0.07700
H 	H 	0.72600 0.89300 0.87650 0.03400
C 	C 	0.78110 0.93870 0.86870 -0.05600
C 	C 	0.81660 0.95510 0.83000 -0.08500
H 	H 	0.84050 0.97580 0.83910 0.02600
C 	C 	0.81440 0.93940 0.77890 0.02300
H 	H 	0.83830 0.94960 0.75430 -0.03700
C 	C 	0.77810 0.95840 0.92250 0.29800
C 	C 	0.91830 0.80020 0.44980 0.03400
H 	H 	0.91410 0.82820 0.43970 -0.03700
C 	C 	0.96470 0.77900 0.43980 -0.09900
H 	H 	0.99180 0.79340 0.42330 0.04700
C 	C 	0.97170 0.73860 0.45310 -0.03200
C 	C 	0.93130 0.71760 0.47660 -0.11600
H 	H 	0.93380 0.68950 0.48660 0.05100
C 	C 	0.88670 0.74070 0.48470 0.06500
H 	H 	0.85840 0.72650 0.49920 -0.05100
C 	C 	0.02300 0.71700 0.44240 0.29800
N 	N 	0.78010 0.91040 0.76260 -0.27300
N 	N 	0.88040 0.77970 0.47410 -0.28200
O 	O 	0.65160 0.95840 0.47320 -0.71300
O 	O 	0.69440 0.91440 0.39260 -0.59400
O 	O 	0.63310 0.84840 0.42220 -0.59400
O 	O 	0.75070 0.78850 0.48680 -0.75700
O 	O 	0.58160 0.93050 0.59840 -0.59600
O 	O 	0.65920 0.77510 0.61090 -0.49500
O 	O 	0.88370 0.89150 0.52960 -0.58900
O 	O 	0.73440 0.83630 0.39850 -0.58100
O 	O 	0.64440 0.99640 0.56660 -0.60600
O 	O 	0.85600 0.93470 0.62040 -0.60300
O 	O 	0.73690 0.80810 0.67800 -0.60500
O 	O 	0.76440 0.76450 0.58700 -0.60500
O 	O 	0.74380 0.99390 0.55070 -0.73100
O 	O 	0.77330 0.94400 0.44790 -0.72800
O 	O 	0.59870 0.89910 0.50110 -0.72200
O 	O 	0.61350 0.85370 0.61360 -0.73300
O 	O 	0.69150 0.88270 0.68430 -0.74500
O 	O 	0.64450 0.80560 0.50980 -0.73400
O 	O 	0.84210 0.97430 0.52060 -0.48900
O 	O 	0.81110 0.86180 0.65300 -0.72700
O 	O 	0.83600 0.82530 0.57260 -0.71900
O 	O 	0.65710 0.96070 0.66250 -0.58600
O 	O 	0.76030 0.95550 0.65200 -0.74900
O 	O 	0.81870 0.86280 0.45440 -0.75100
O 	O 	0.73080 0.96620 0.93660 -0.47500
O 	O 	0.81880 0.96660 0.94630 -0.31900
O 	O 	0.05650 0.73590 0.41750 -0.33000
O 	O 	0.02580 0.67990 0.46260 -0.47800
Mo	Mo	0.30430 0.52305 0.40609 1.04200
Mo	Mo	0.16500 0.67227 0.33934 1.04600
Mo	Mo	0.29241 0.69747 0.36732 1.09900
Mo	Mo	0.33836 0.57993 0.52642 1.04800
Mo	Mo	0.20015 0.72884 0.45956 1.04700
Mo	Mo	0.10489 0.54403 0.46300 1.09800
Mo	Mo	0.20492 0.51112 0.38190 1.05700
Mo	Mo	0.18785 0.69319 0.55378 1.05300
Mo	Mo	0.13529 0.59447 0.56939 1.09800
Mo	Mo	0.12673 0.59513 0.34472 1.05600
Mo	Mo	0.26584 0.60919 0.59101 1.05300
Mo	Mo	0.36468 0.62010 0.40217 1.09900
Zn	Zn	0.26438 0.59949 0.31447 1.20400
Zn	Zn	0.22030 0.51695 0.52239 1.21700
Zn	Zn	0.09392 0.65316 0.46173 1.21900
Zn	Zn	0.31799 0.68692 0.50137 1.20200
C 	C 	0.24830 0.60630 0.19880 0.01500
H 	H 	0.22540 0.62760 0.20880 -0.03200
C 	C 	0.24800 0.59400 0.14780 -0.07700
H 	H 	0.22600 0.60700 0.12350 0.03400
C 	C 	0.28110 0.56130 0.13130 -0.05600
C 	C 	0.31660 0.54490 0.17000 -0.08500
H 	H 	0.34050 0.52420 0.16090 0.02600
C 	C 	0.31440 0.56060 0.22110 0.02300
H 	H 	0.33830 0.55040 0.24570 -0.03700
C 	C 	0.27810 0.54160 0.07750 0.29800
C 	C 	0.41830 0.69980 0.55020 0.03400
H 	H 	0.41410 0.67180 0.56030 -0.03700
C 	C 	0.46470 0.72100 0.56020 -0.09900
H 	H 	0.49180 0.70660 0.57670 0.04700
C 	C 	0.47170 0.76140 0.54690 -0.03200
C 	C 	0.43130 0.78240 0.52340 -0.11500
H 	H 	0.43380 0.81050 0.51340 0.05100
C 	C 	0.38670 0.75930 0.51530 0.06500
H 	H 	0.35840 0.77350 0.50080 -0.05100
C 	C 	0.52300 0.78300 0.55760 0.29800
N 	N 	0.28010 0.58960 0.23740 -0.27300
N 	N 	0.38040 0.72030 0.52590 -0.28200
O 	O 	0.15160 0.54160 0.52680 -0.71300
O 	O 	0.19440 0.58560 0.60740 -0.59400
O 	O 	0.13310 0.65160 0.57780 -0.59400
O 	O 	0.25070 0.71150 0.51320 -0.75700
O 	O 	0.08160 0.56950 0.40160 -0.59600
O 	O 	0.15920 0.72490 0.38910 -0.49500
O 	O 	0.38370 0.60850 0.47040 -0.58900
O 	O 	0.23440 0.66370 0.60150 -0.58100
O 	O 	0.14440 0.50360 0.43340 -0.60600
O 	O 	0.35600 0.56530 0.37960 -0.60200
O 	O 	0.23690 0.69190 0.32200 -0.60500
O 	O 	0.26440 0.73550 0.41300 -0.60500
O 	O 	0.24380 0.50610 0.44930 -0.73100
O 	O 	0.27330 0.55600 0.55210 -0.72800
O 	O 	0.09870 0.60090 0.49890 -0.72200
O 	O 	0.11350 0.64630 0.38640 -0.73300
O 	O 	0.19150 0.61730 0.31570 -0.74600
O 	O 	0.14450 0.69440 0.49020 -0.73400
O 	O 	0.34210 0.52570 0.47940 -0.48900
O 	O 	0.31110 0.63820 0.34700 -0.72700
O 	O 	0.33600 0.67470 0.42740 -0.71900
O 	O 	0.15710 0.53930 0.33750 -0.58600
O 	O 	0.26030 0.54450 0.34800 -0.74900
O 	O 	0.31870 0.63720 0.54560 -0.75100
O 	O 	0.23080 0.53380 0.06340 -0.47500
O 	O 	0.31880 0.53340 0.05370 -0.31900
O 	O 	0.55650 0.76410 0.58250 -0.33000
O 	O 	0.52580 0.82010 0.53740 -0.47800
