data_crystal

_cell_length_a 29.60100
_cell_length_b 29.60100
_cell_length_c 3.44960
_cell_angle_alpha 90.00000
_cell_angle_beta  90.00000
_cell_angle_gamma 90.00000

_symmetry_space_group_name_	'P 1'
_symmetry_space_group_name_H-M	'P 1'

loop_
_symmetry_equiv_pos_as_xyz
  x,y,z

loop_
_atom_site_label
_atom_site_type_symbol
_atom_site_fract_x
_atom_site_fract_y
_atom_site_fract_z
_atom_site_charge
C 	C 	0.34266 0.28540 0.45270 0.93900
N 	N 	0.38334 0.27323 0.32670 -0.37700
N 	N 	0.33060 0.33390 0.49100 1.39200
H 	H 	0.35000 0.35440 0.43230 -0.36500
H 	H 	0.30420 0.34140 0.57320 -0.29600
H 	H 	0.33310 0.31620 0.48150 -1.39000
C 	C 	0.84266 0.78540 0.95270 0.98200
N 	N 	0.88334 0.77323 0.82670 -0.38500
N 	N 	0.83060 0.83390 0.99100 1.53300
H 	H 	0.85000 0.85440 0.93230 -0.40600
H 	H 	0.80420 0.84140 0.07320 -0.30900
H 	H 	0.83310 0.81620 0.98150 -1.52700
C 	C 	0.15734 0.71460 0.95270 0.98000
N 	N 	0.11666 0.72677 0.82670 -0.38400
N 	N 	0.16940 0.66610 0.99100 1.53200
H 	H 	0.15000 0.64560 0.93230 -0.40600
H 	H 	0.19580 0.65860 0.07320 -0.31000
H 	H 	0.16690 0.68380 0.98150 -1.52500
C 	C 	0.65734 0.21460 0.45270 0.93900
N 	N 	0.61666 0.22677 0.32670 -0.37600
N 	N 	0.66940 0.16610 0.49100 1.39200
H 	H 	0.65000 0.14560 0.43230 -0.36500
H 	H 	0.69580 0.15860 0.57320 -0.29600
H 	H 	0.66690 0.18380 0.48150 -1.38700
C 	C 	0.96460 0.09266 0.70270 0.95300
N 	N 	0.97677 0.13334 0.57670 -0.37900
N 	N 	0.91610 0.08060 0.74100 1.42400
H 	H 	0.89560 0.10000 0.68230 -0.35600
H 	H 	0.90860 0.05420 0.82320 -0.30100
H 	H 	0.93380 0.08310 0.73150 -1.41400
C 	C 	0.46460 0.59266 0.20270 0.94500
N 	N 	0.47677 0.63334 0.07670 -0.36300
N 	N 	0.41610 0.58060 0.24100 1.40200
H 	H 	0.39560 0.60000 0.18230 -0.35700
H 	H 	0.40860 0.55420 0.32320 -0.30300
H 	H 	0.43380 0.58310 0.23150 -1.39600
C 	C 	0.53540 0.90734 0.20270 0.94900
N 	N 	0.52323 0.86666 0.07670 -0.36300
N 	N 	0.58390 0.91940 0.24100 1.40700
H 	H 	0.60440 0.90000 0.18230 -0.35700
H 	H 	0.59140 0.94580 0.32320 -0.30100
H 	H 	0.56620 0.91690 0.23150 -1.40100
C 	C 	0.03540 0.40734 0.70270 0.96000
N 	N 	0.02323 0.36666 0.57670 -0.36900
N 	N 	0.08390 0.41940 0.74100 1.41000
H 	H 	0.10440 0.40000 0.68230 -0.35100
H 	H 	0.09140 0.44580 0.82320 -0.29400
H 	H 	0.06620 0.41690 0.73150 -1.40500
C 	C 	0.15734 0.28540 0.04730 1.01300
N 	N 	0.11666 0.27323 0.17330 -0.39300
N 	N 	0.16940 0.33390 0.00900 1.63000
H 	H 	0.15000 0.35440 0.06770 -0.44500
H 	H 	0.19580 0.34140 0.92680 -0.31400
H 	H 	0.16690 0.31620 0.01850 -1.62400
C 	C 	0.65734 0.78540 0.54730 0.94200
N 	N 	0.61666 0.77323 0.67330 -0.37500
N 	N 	0.66940 0.83390 0.50900 1.39500
H 	H 	0.65000 0.85440 0.56770 -0.36200
H 	H 	0.69580 0.84140 0.42680 -0.29600
H 	H 	0.66690 0.81620 0.51850 -1.39000
C 	C 	0.34266 0.71460 0.54730 0.94100
N 	N 	0.38334 0.72677 0.67330 -0.37500
N 	N 	0.33060 0.66610 0.50900 1.39400
H 	H 	0.35000 0.64560 0.56770 -0.36200
H 	H 	0.30420 0.65860 0.42680 -0.29700
H 	H 	0.33310 0.68380 0.51850 -1.38900
C 	C 	0.84266 0.21460 0.04730 1.01200
N 	N 	0.88334 0.22677 0.17330 -0.39400
N 	N 	0.83060 0.16610 0.00900 1.62900
H 	H 	0.85000 0.14560 0.06770 -0.44600
H 	H 	0.80420 0.15860 0.92680 -0.31400
H 	H 	0.83310 0.18380 0.01850 -1.62400
C 	C 	0.53540 0.09266 0.79730 0.94700
N 	N 	0.52323 0.13334 0.92330 -0.35800
N 	N 	0.58390 0.08060 0.75900 1.40500
H 	H 	0.60440 0.10000 0.81770 -0.35400
H 	H 	0.59140 0.05420 0.67680 -0.30600
H 	H 	0.56620 0.08310 0.76850 -1.39800
C 	C 	0.03540 0.59266 0.29730 0.94600
N 	N 	0.02323 0.63334 0.42330 -0.36700
N 	N 	0.08390 0.58060 0.25900 1.39300
H 	H 	0.10440 0.60000 0.31770 -0.35300
H 	H 	0.09140 0.55420 0.17680 -0.30000
H 	H 	0.06620 0.58310 0.26850 -1.38800
C 	C 	0.96460 0.90734 0.29730 0.94500
N 	N 	0.97677 0.86666 0.42330 -0.37800
N 	N 	0.91610 0.91940 0.25900 1.41500
H 	H 	0.89560 0.90000 0.31770 -0.35800
H 	H 	0.90860 0.94580 0.17680 -0.30400
H 	H 	0.93380 0.91690 0.26850 -1.40600
C 	C 	0.46460 0.40734 0.79730 0.95000
N 	N 	0.47677 0.36666 0.92330 -0.35800
N 	N 	0.41610 0.41940 0.75900 1.40800
H 	H 	0.39560 0.40000 0.81770 -0.35400
H 	H 	0.40860 0.44580 0.67680 -0.30400
H 	H 	0.43380 0.41690 0.76850 -1.40100
C 	C 	0.65734 0.71460 0.54730 0.94100
N 	N 	0.61666 0.72677 0.67330 -0.37500
N 	N 	0.66940 0.66610 0.50900 1.39400
H 	H 	0.65000 0.64560 0.56770 -0.36200
H 	H 	0.69580 0.65860 0.42680 -0.29700
H 	H 	0.66690 0.68380 0.51850 -1.38900
C 	C 	0.15734 0.21460 0.04730 1.01200
N 	N 	0.11666 0.22677 0.17330 -0.39300
N 	N 	0.16940 0.16610 0.00900 1.62900
H 	H 	0.15000 0.14560 0.06770 -0.44600
H 	H 	0.19580 0.15860 0.92680 -0.31400
H 	H 	0.16690 0.18380 0.01850 -1.62300
C 	C 	0.84266 0.28540 0.04730 1.01300
N 	N 	0.88334 0.27323 0.17330 -0.39400
N 	N 	0.83060 0.33390 0.00900 1.63000
H 	H 	0.85000 0.35440 0.06770 -0.44500
H 	H 	0.80420 0.34140 0.92680 -0.31400
H 	H 	0.83310 0.31620 0.01850 -1.62400
C 	C 	0.34266 0.78540 0.54730 0.94200
N 	N 	0.38334 0.77323 0.67330 -0.37500
N 	N 	0.33060 0.83390 0.50900 1.39500
H 	H 	0.35000 0.85440 0.56770 -0.36200
H 	H 	0.30420 0.84140 0.42680 -0.29600
H 	H 	0.33310 0.81620 0.51850 -1.39000
C 	C 	0.03540 0.90734 0.29730 0.95000
N 	N 	0.02323 0.86666 0.42330 -0.36700
N 	N 	0.08390 0.91940 0.25900 1.39800
H 	H 	0.10440 0.90000 0.31770 -0.35300
H 	H 	0.09140 0.94580 0.17680 -0.29800
H 	H 	0.06620 0.91690 0.26850 -1.39300
C 	C 	0.53540 0.40734 0.79730 0.95000
N 	N 	0.52323 0.36666 0.92330 -0.35800
N 	N 	0.58390 0.41940 0.75900 1.40800
H 	H 	0.60440 0.40000 0.81770 -0.35400
H 	H 	0.59140 0.44580 0.67680 -0.30400
H 	H 	0.56620 0.41690 0.76850 -1.40100
C 	C 	0.46460 0.09266 0.79730 0.94700
N 	N 	0.47677 0.13334 0.92330 -0.35800
N 	N 	0.41610 0.08060 0.75900 1.40500
H 	H 	0.39560 0.10000 0.81770 -0.35400
H 	H 	0.40860 0.05420 0.67680 -0.30600
H 	H 	0.43380 0.08310 0.76850 -1.39800
C 	C 	0.96460 0.59266 0.29730 0.94100
N 	N 	0.97677 0.63334 0.42330 -0.37700
N 	N 	0.91610 0.58060 0.25900 1.41000
H 	H 	0.89560 0.60000 0.31770 -0.35800
H 	H 	0.90860 0.55420 0.17680 -0.30600
H 	H 	0.93380 0.58310 0.26850 -1.40100
C 	C 	0.84266 0.71460 0.95270 0.98100
N 	N 	0.88334 0.72677 0.82670 -0.38500
N 	N 	0.83060 0.66610 0.99100 1.53200
H 	H 	0.85000 0.64560 0.93230 -0.40600
H 	H 	0.80420 0.65860 0.07320 -0.31000
H 	H 	0.83310 0.68380 0.98150 -1.52600
C 	C 	0.34266 0.21460 0.45270 0.93900
N 	N 	0.38334 0.22677 0.32670 -0.37600
N 	N 	0.33060 0.16610 0.49100 1.39200
H 	H 	0.35000 0.14560 0.43230 -0.36500
H 	H 	0.30420 0.15860 0.57320 -0.29600
H 	H 	0.33310 0.18380 0.48150 -1.38800
C 	C 	0.65734 0.28540 0.45270 0.94000
N 	N 	0.61666 0.27323 0.32670 -0.37600
N 	N 	0.66940 0.33390 0.49100 1.39300
H 	H 	0.65000 0.35440 0.43230 -0.36400
H 	H 	0.69580 0.34140 0.57320 -0.29500
H 	H 	0.66690 0.31620 0.48150 -1.38900
C 	C 	0.15734 0.78540 0.95270 0.98100
N 	N 	0.11666 0.77323 0.82670 -0.38400
N 	N 	0.16940 0.83390 0.99100 1.53300
H 	H 	0.15000 0.85440 0.93230 -0.40600
H 	H 	0.19580 0.84140 0.07320 -0.30900
H 	H 	0.16690 0.81620 0.98150 -1.52600
C 	C 	0.46460 0.90734 0.20270 0.95000
N 	N 	0.47677 0.86666 0.07670 -0.36300
N 	N 	0.41610 0.91940 0.24100 1.40700
H 	H 	0.39560 0.90000 0.18230 -0.35700
H 	H 	0.40860 0.94580 0.32320 -0.30100
H 	H 	0.43380 0.91690 0.23150 -1.40100
C 	C 	0.96460 0.40734 0.70270 0.95600
N 	N 	0.97677 0.36666 0.57670 -0.37900
N 	N 	0.91610 0.41940 0.74100 1.42700
H 	H 	0.89560 0.40000 0.68230 -0.35700
H 	H 	0.90860 0.44580 0.82320 -0.30000
H 	H 	0.93380 0.41690 0.73150 -1.41800
C 	C 	0.03540 0.09266 0.70270 0.95800
N 	N 	0.02323 0.13334 0.57670 -0.36900
N 	N 	0.08390 0.08060 0.74100 1.40700
H 	H 	0.10440 0.10000 0.68230 -0.35100
H 	H 	0.09140 0.05420 0.82320 -0.29600
H 	H 	0.06620 0.08310 0.73150 -1.40200
C 	C 	0.53540 0.59266 0.20270 0.94500
N 	N 	0.52323 0.63334 0.07670 -0.36200
N 	N 	0.58390 0.58060 0.24100 1.40200
H 	H 	0.60440 0.60000 0.18230 -0.35700
H 	H 	0.59140 0.55420 0.32320 -0.30300
H 	H 	0.56620 0.58310 0.23150 -1.39600
Ag	Ag	0.43961 0.31039 0.12500 0.41600
Ag	Ag	0.06039 0.68961 0.62500 0.44100
Ag	Ag	0.93961 0.18961 0.37500 0.43600
Ag	Ag	0.56039 0.81039 0.87500 0.42200
Ag	Ag	0.06039 0.31039 0.37500 0.44000
Ag	Ag	0.43961 0.68961 0.87500 0.42200
Ag	Ag	0.56039 0.18961 0.12500 0.41500
Ag	Ag	0.93961 0.81039 0.62500 0.43600
Ag	Ag	0.56039 0.68961 0.87500 0.42200
Ag	Ag	0.93961 0.31039 0.37500 0.43600
Ag	Ag	0.06039 0.81039 0.62500 0.44100
Ag	Ag	0.43961 0.18961 0.12500 0.41500
Ag	Ag	0.93961 0.68961 0.62500 0.43600
Ag	Ag	0.56039 0.31039 0.12500 0.41500
Ag	Ag	0.43961 0.81039 0.87500 0.42200
Ag	Ag	0.06039 0.18961 0.37500 0.44000
Ag	Ag	0.25000 0.25000 0.75000 0.55400
Ag	Ag	0.25000 0.75000 0.25000 0.54900
Ag	Ag	-0.00000 0.00000 -0.00000 0.52100
Ag	Ag	0.50000 0.50000 0.50000 0.53500
Ag	Ag	0.50000 0.00000 0.50000 0.52900
Ag	Ag	-0.00000 0.50000 -0.00000 0.52700
Ag	Ag	0.75000 0.25000 0.75000 0.55400
Ag	Ag	0.75000 0.75000 0.25000 0.54900
N 	N 	0.31650 0.25000 0.53400 -0.52900
N 	N 	0.18350 0.75000 0.03400 -0.51300
N 	N 	-0.00000 0.06650 0.78400 -0.52300
N 	N 	0.50000 0.56650 0.28400 -0.53500
N 	N 	0.50000 0.93350 0.28400 -0.53300
N 	N 	0.00000 0.43350 0.78400 -0.52300
N 	N 	0.18350 0.25000 0.96600 -0.50300
N 	N 	0.31650 0.75000 0.46600 -0.53000
N 	N 	0.81650 0.25000 0.96600 -0.50300
N 	N 	0.50000 0.06650 0.71600 -0.53600
N 	N 	-0.00000 0.56650 0.21600 -0.52600
N 	N 	0.00000 0.93350 0.21600 -0.52400
N 	N 	0.50000 0.43350 0.71600 -0.53600
N 	N 	0.68350 0.75000 0.46600 -0.53000
N 	N 	0.81650 0.75000 0.03400 -0.51300
N 	N 	0.68350 0.25000 0.53400 -0.52900
