data_crystal

_cell_length_a 29.58620
_cell_length_b 29.58620
_cell_length_c 3.45630
_cell_angle_alpha 90.00000
_cell_angle_beta  90.00000
_cell_angle_gamma 90.00000

_symmetry_space_group_name_	'P 1'
_symmetry_space_group_name_H-M	'P 1'

loop_
_symmetry_equiv_pos_as_xyz
  x,y,z

loop_
_atom_site_label
_atom_site_type_symbol
_atom_site_fract_x
_atom_site_fract_y
_atom_site_fract_z
_atom_site_charge
N 	N 	0.11699 0.72652 0.32620 -0.30400
C 	C 	0.15710 0.71490 0.45300 0.55000
N 	N 	0.16920 0.66920 0.48500 0.64400
H 	H 	0.15030 0.64850 0.42030 -0.16000
H 	H 	0.19560 0.66190 0.56820 -0.13100
H 	H 	0.16620 0.68510 0.48170 -0.74000
N 	N 	0.61699 0.22652 0.82620 -0.30500
C 	C 	0.65710 0.21490 0.95300 0.54800
N 	N 	0.66920 0.16920 0.98500 0.67400
H 	H 	0.65030 0.14850 0.92030 -0.16800
H 	H 	0.69560 0.16190 0.06820 -0.13000
H 	H 	0.66620 0.18510 0.98170 -0.77300
N 	N 	0.38301 0.27348 0.82620 -0.30500
C 	C 	0.34290 0.28510 0.95300 0.54900
N 	N 	0.33080 0.33080 0.98500 0.67400
H 	H 	0.34970 0.35150 0.92030 -0.16700
H 	H 	0.30440 0.33810 0.06820 -0.13000
H 	H 	0.33380 0.31490 0.98170 -0.77300
N 	N 	0.88301 0.77348 0.32620 -0.30500
C 	C 	0.84290 0.78510 0.45300 0.54900
N 	N 	0.83080 0.83080 0.48500 0.64400
H 	H 	0.84970 0.85150 0.42030 -0.16000
H 	H 	0.80440 0.83810 0.56820 -0.13100
H 	H 	0.83380 0.81490 0.48170 -0.74000
N 	N 	0.52348 0.86699 0.57620 -0.30400
C 	C 	0.53510 0.90710 0.70300 0.56000
N 	N 	0.58080 0.91920 0.73500 0.65100
H 	H 	0.60150 0.90030 0.67030 -0.15200
H 	H 	0.58810 0.94560 0.81820 -0.12500
H 	H 	0.56490 0.91620 0.73170 -0.74800
N 	N 	0.02348 0.36699 0.07620 -0.29100
C 	C 	0.03510 0.40710 0.20300 0.55100
N 	N 	0.08080 0.41920 0.23500 0.64700
H 	H 	0.10150 0.40030 0.17030 -0.15300
H 	H 	0.08810 0.44560 0.31820 -0.13500
H 	H 	0.06490 0.41620 0.23170 -0.74300
N 	N 	0.97652 0.13301 0.07620 -0.29600
C 	C 	0.96490 0.09290 0.20300 0.54500
N 	N 	0.91920 0.08080 0.23500 0.65100
H 	H 	0.89850 0.09970 0.17030 -0.15500
H 	H 	0.91190 0.05440 0.31820 -0.13900
H 	H 	0.93510 0.08380 0.23170 -0.74500
N 	N 	0.47652 0.63301 0.57620 -0.30400
C 	C 	0.46490 0.59290 0.70300 0.55800
N 	N 	0.41920 0.58080 0.73500 0.64900
H 	H 	0.39850 0.59970 0.67030 -0.15200
H 	H 	0.41190 0.55440 0.81820 -0.12700
H 	H 	0.43510 0.58380 0.73170 -0.74600
N 	N 	0.38301 0.72652 0.17380 -0.30800
C 	C 	0.34290 0.71490 0.04700 0.55300
N 	N 	0.33080 0.66920 0.01500 0.71000
H 	H 	0.34970 0.64850 0.07970 -0.18600
H 	H 	0.30440 0.66190 0.93180 -0.12300
H 	H 	0.33380 0.68510 0.01830 -0.81600
N 	N 	0.88301 0.22652 0.67380 -0.30500
C 	C 	0.84290 0.21490 0.54700 0.54900
N 	N 	0.83080 0.16920 0.51500 0.64300
H 	H 	0.84970 0.14850 0.57970 -0.15900
H 	H 	0.80440 0.16190 0.43180 -0.13200
H 	H 	0.83380 0.18510 0.51830 -0.73900
N 	N 	0.11699 0.27348 0.67380 -0.30400
C 	C 	0.15710 0.28510 0.54700 0.54900
N 	N 	0.16920 0.33080 0.51500 0.64400
H 	H 	0.15030 0.35150 0.57970 -0.15900
H 	H 	0.19560 0.33810 0.43180 -0.13200
H 	H 	0.16620 0.31490 0.51830 -0.74000
N 	N 	0.61699 0.77348 0.17380 -0.30800
C 	C 	0.65710 0.78510 0.04700 0.55300
N 	N 	0.66920 0.83080 0.01500 0.71100
H 	H 	0.65030 0.85150 0.07970 -0.18500
H 	H 	0.69560 0.83810 0.93180 -0.12200
H 	H 	0.66620 0.81490 0.01830 -0.81600
N 	N 	0.97652 0.86699 0.92380 -0.29300
C 	C 	0.96490 0.90710 0.79700 0.55100
N 	N 	0.91920 0.91920 0.76500 0.65600
H 	H 	0.89850 0.90030 0.82970 -0.15200
H 	H 	0.91190 0.94560 0.68180 -0.13500
H 	H 	0.93510 0.91620 0.76830 -0.75000
N 	N 	0.47652 0.36699 0.42380 -0.30200
C 	C 	0.46490 0.40710 0.29700 0.55000
N 	N 	0.41920 0.41920 0.26500 0.64300
H 	H 	0.39850 0.40030 0.32970 -0.15400
H 	H 	0.41190 0.44560 0.18180 -0.13400
H 	H 	0.43510 0.41620 0.26830 -0.73900
N 	N 	0.52348 0.13301 0.42380 -0.30200
C 	C 	0.53510 0.09290 0.29700 0.54800
N 	N 	0.58080 0.08080 0.26500 0.64200
H 	H 	0.60150 0.09970 0.32970 -0.15500
H 	H 	0.58810 0.05440 0.18180 -0.13600
H 	H 	0.56490 0.08380 0.26830 -0.73700
N 	N 	0.02348 0.63301 0.92380 -0.28800
C 	C 	0.03510 0.59290 0.79700 0.55300
N 	N 	0.08080 0.58080 0.76500 0.64800
H 	H 	0.10150 0.59970 0.82970 -0.15100
H 	H 	0.08810 0.55440 0.68180 -0.13500
H 	H 	0.06490 0.58380 0.76830 -0.74500
N 	N 	0.88301 0.27348 0.67380 -0.30500
C 	C 	0.84290 0.28510 0.54700 0.54900
N 	N 	0.83080 0.33080 0.51500 0.64400
H 	H 	0.84970 0.35150 0.57970 -0.15900
H 	H 	0.80440 0.33810 0.43180 -0.13200
H 	H 	0.83380 0.31490 0.51830 -0.74000
N 	N 	0.38301 0.77348 0.17380 -0.30800
C 	C 	0.34290 0.78510 0.04700 0.55300
N 	N 	0.33080 0.83080 0.01500 0.71100
H 	H 	0.34970 0.85150 0.07970 -0.18500
H 	H 	0.30440 0.83810 0.93180 -0.12200
H 	H 	0.33380 0.81490 0.01830 -0.81600
N 	N 	0.61699 0.72652 0.17380 -0.30800
C 	C 	0.65710 0.71490 0.04700 0.55200
N 	N 	0.66920 0.66920 0.01500 0.71000
H 	H 	0.65030 0.64850 0.07970 -0.18600
H 	H 	0.69560 0.66190 0.93180 -0.12300
H 	H 	0.66620 0.68510 0.01830 -0.81600
N 	N 	0.11699 0.22652 0.67380 -0.30400
C 	C 	0.15710 0.21490 0.54700 0.54900
N 	N 	0.16920 0.16920 0.51500 0.64400
H 	H 	0.15030 0.14850 0.57970 -0.15900
H 	H 	0.19560 0.16190 0.43180 -0.13200
H 	H 	0.16620 0.18510 0.51830 -0.73900
N 	N 	0.47652 0.13301 0.42380 -0.30200
C 	C 	0.46490 0.09290 0.29700 0.54800
N 	N 	0.41920 0.08080 0.26500 0.64200
H 	H 	0.39850 0.09970 0.32970 -0.15500
H 	H 	0.41190 0.05440 0.18180 -0.13600
H 	H 	0.43510 0.08380 0.26830 -0.73700
N 	N 	0.97652 0.63301 0.92380 -0.29300
C 	C 	0.96490 0.59290 0.79700 0.54800
N 	N 	0.91920 0.58080 0.76500 0.65400
H 	H 	0.89850 0.59970 0.82970 -0.15200
H 	H 	0.91190 0.55440 0.68180 -0.13700
H 	H 	0.93510 0.58380 0.76830 -0.74800
N 	N 	0.02348 0.86699 0.92380 -0.28800
C 	C 	0.03510 0.90710 0.79700 0.55600
N 	N 	0.08080 0.91920 0.76500 0.65000
H 	H 	0.10150 0.90030 0.82970 -0.15000
H 	H 	0.08810 0.94560 0.68180 -0.13200
H 	H 	0.06490 0.91620 0.76830 -0.74700
N 	N 	0.52348 0.36699 0.42380 -0.30200
C 	C 	0.53510 0.40710 0.29700 0.55000
N 	N 	0.58080 0.41920 0.26500 0.64300
H 	H 	0.60150 0.40030 0.32970 -0.15400
H 	H 	0.58810 0.44560 0.18180 -0.13400
H 	H 	0.56490 0.41620 0.26830 -0.73900
N 	N 	0.61699 0.27348 0.82620 -0.30500
C 	C 	0.65710 0.28510 0.95300 0.54900
N 	N 	0.66920 0.33080 0.98500 0.67400
H 	H 	0.65030 0.35150 0.92030 -0.16700
H 	H 	0.69560 0.33810 0.06820 -0.13000
H 	H 	0.66620 0.31490 0.98170 -0.77300
N 	N 	0.11699 0.77348 0.32620 -0.30500
C 	C 	0.15710 0.78510 0.45300 0.54900
N 	N 	0.16920 0.83080 0.48500 0.64400
H 	H 	0.15030 0.85150 0.42030 -0.16000
H 	H 	0.19560 0.83810 0.56820 -0.13100
H 	H 	0.16620 0.81490 0.48170 -0.74000
N 	N 	0.88301 0.72652 0.32620 -0.30500
C 	C 	0.84290 0.71490 0.45300 0.54900
N 	N 	0.83080 0.66920 0.48500 0.64400
H 	H 	0.84970 0.64850 0.42030 -0.16000
H 	H 	0.80440 0.66190 0.56820 -0.13100
H 	H 	0.83380 0.68510 0.48170 -0.74000
N 	N 	0.38301 0.22652 0.82620 -0.30500
C 	C 	0.34290 0.21490 0.95300 0.54800
N 	N 	0.33080 0.16920 0.98500 0.67400
H 	H 	0.34970 0.14850 0.92030 -0.16800
H 	H 	0.30440 0.16190 0.06820 -0.13000
H 	H 	0.33380 0.18510 0.98170 -0.77300
N 	N 	0.02348 0.13301 0.07620 -0.29100
C 	C 	0.03510 0.09290 0.20300 0.54900
N 	N 	0.08080 0.08080 0.23500 0.64600
H 	H 	0.10150 0.09970 0.17030 -0.15400
H 	H 	0.08810 0.05440 0.31820 -0.13700
H 	H 	0.06490 0.08380 0.23170 -0.74100
N 	N 	0.52348 0.63301 0.57620 -0.30400
C 	C 	0.53510 0.59290 0.70300 0.55800
N 	N 	0.58080 0.58080 0.73500 0.64900
H 	H 	0.60150 0.59970 0.67030 -0.15200
H 	H 	0.58810 0.55440 0.81820 -0.12700
H 	H 	0.56490 0.58380 0.73170 -0.74600
N 	N 	0.47652 0.86699 0.57620 -0.30400
C 	C 	0.46490 0.90710 0.70300 0.56000
N 	N 	0.41920 0.91920 0.73500 0.65100
H 	H 	0.39850 0.90030 0.67030 -0.15200
H 	H 	0.41190 0.94560 0.81820 -0.12500
H 	H 	0.43510 0.91620 0.73170 -0.74800
N 	N 	0.97652 0.36699 0.07620 -0.29600
C 	C 	0.96490 0.40710 0.20300 0.54600
N 	N 	0.91920 0.41920 0.23500 0.65200
H 	H 	0.89850 0.40030 0.17030 -0.15500
H 	H 	0.91190 0.44560 0.31820 -0.13800
H 	H 	0.93510 0.41620 0.23170 -0.74600
Ag	Ag	0.06044 0.68956 0.12500 0.40900
Ag	Ag	0.43956 0.31044 0.62500 0.42500
Ag	Ag	0.56044 0.81044 0.37500 0.42400
Ag	Ag	0.93956 0.18956 0.87500 0.41200
Ag	Ag	0.43956 0.68956 0.37500 0.42400
Ag	Ag	0.06044 0.31044 0.87500 0.41400
Ag	Ag	0.93956 0.81044 0.12500 0.40700
Ag	Ag	0.56044 0.18956 0.62500 0.42400
Ag	Ag	0.93956 0.31044 0.87500 0.41200
Ag	Ag	0.56044 0.68956 0.37500 0.42400
Ag	Ag	0.43956 0.18956 0.62500 0.42400
Ag	Ag	0.06044 0.81044 0.12500 0.40900
Ag	Ag	0.56044 0.31044 0.62500 0.42500
Ag	Ag	0.93956 0.68956 0.12500 0.40700
Ag	Ag	0.06044 0.18956 0.87500 0.41400
Ag	Ag	0.43956 0.81044 0.37500 0.42400
Ag	Ag	0.25000 0.75000 0.75000 0.51100
Ag	Ag	0.25000 0.25000 0.25000 0.50800
Ag	Ag	0.50000 0.00000 -0.00000 0.48600
Ag	Ag	-0.00000 0.50000 0.50000 0.50300
Ag	Ag	0.00000 -0.00000 0.50000 0.49700
Ag	Ag	0.50000 0.50000 -0.00000 0.49200
Ag	Ag	0.75000 0.25000 0.25000 0.50800
Ag	Ag	0.75000 0.75000 0.75000 0.51100
N 	N 	0.18360 0.75000 0.53700 -0.39500
N 	N 	0.31640 0.25000 0.03700 -0.38200
N 	N 	0.50000 0.93360 0.78700 -0.39000
N 	N 	0.00000 0.43360 0.28700 -0.39400
N 	N 	0.00000 0.06640 0.28700 -0.39500
N 	N 	0.50000 0.56640 0.78700 -0.39200
N 	N 	0.31640 0.75000 0.96300 -0.36600
N 	N 	0.18360 0.25000 0.46300 -0.39500
N 	N 	0.00000 0.93360 0.71300 -0.39300
N 	N 	0.50000 0.43360 0.21300 -0.39600
N 	N 	0.50000 0.06640 0.21300 -0.39700
N 	N 	-0.00000 0.56640 0.71300 -0.39500
N 	N 	0.81640 0.25000 0.46300 -0.39500
N 	N 	0.68360 0.75000 0.96300 -0.36600
N 	N 	0.68360 0.25000 0.03700 -0.38200
N 	N 	0.81640 0.75000 0.53700 -0.39500
