data_crystal

_cell_length_a 19.59800
_cell_length_b 19.59800
_cell_length_c 3.50150
_cell_angle_alpha 90.00000
_cell_angle_beta  90.00000
_cell_angle_gamma 90.00000

_symmetry_space_group_name_	'P 1'
_symmetry_space_group_name_H-M	'P 1'

loop_
_symmetry_equiv_pos_as_xyz
  x,y,z

loop_
_atom_site_label
_atom_site_type_symbol
_atom_site_fract_x
_atom_site_fract_y
_atom_site_fract_z
_atom_site_charge
Ag	Ag	0.46241 0.62253 0.00420 0.44600
C 	C 	0.26960 0.56100 0.61900 1.40000
C 	C 	0.31920 0.65600 0.62400 0.15700
N 	N 	0.36230 0.61170 0.77700 -0.22100
N 	N 	0.26000 0.62640 0.53800 -0.47800
N 	N 	0.33030 0.55080 0.78400 -0.44100
N 	N 	0.33730 0.72630 0.61100 0.30300
H 	H 	0.37580 0.73970 0.70190 -0.00100
H 	H 	0.30960 0.75550 0.51170 0.00700
N 	N 	0.21740 0.51000 0.61400 2.39600
H 	H 	0.17610 0.52240 0.57010 -0.60900
H 	H 	0.22650 0.46780 0.65880 -0.58700
H 	H 	0.23790 0.52530 0.55720 -2.26400
H 	H 	0.33250 0.71500 0.59020 -0.37400
Ag	Ag	0.53759 0.37747 0.00420 0.44700
C 	C 	0.73040 0.43900 0.61900 1.40100
C 	C 	0.68080 0.34400 0.62400 0.15800
N 	N 	0.63770 0.38830 0.77700 -0.22000
N 	N 	0.74000 0.37360 0.53800 -0.47700
N 	N 	0.66970 0.44920 0.78400 -0.44000
N 	N 	0.66270 0.27370 0.61100 0.30400
H 	H 	0.62420 0.26030 0.70190 -0.00000
H 	H 	0.69040 0.24450 0.51170 0.00700
N 	N 	0.78260 0.49000 0.61400 2.39600
H 	H 	0.82390 0.47760 0.57010 -0.60900
H 	H 	0.77350 0.53220 0.65880 -0.58700
H 	H 	0.76210 0.47470 0.55720 -2.26400
H 	H 	0.66750 0.28500 0.59020 -0.37400
Ag	Ag	0.62253 0.53759 0.99580 0.44700
C 	C 	0.56100 0.73040 0.38100 1.40100
C 	C 	0.65600 0.68080 0.37600 0.15800
N 	N 	0.61170 0.63770 0.22300 -0.22000
N 	N 	0.62640 0.74000 0.46200 -0.47700
N 	N 	0.55080 0.66970 0.21600 -0.44000
N 	N 	0.72630 0.66270 0.38900 0.30400
H 	H 	0.73970 0.62420 0.29810 -0.00000
H 	H 	0.75550 0.69040 0.48830 0.00700
N 	N 	0.51000 0.78260 0.38600 2.39600
H 	H 	0.52240 0.82390 0.42990 -0.60900
H 	H 	0.46780 0.77350 0.34120 -0.58700
H 	H 	0.52530 0.76210 0.44280 -2.26400
H 	H 	0.71500 0.66750 0.40980 -0.37400
Ag	Ag	0.37747 0.46241 0.99580 0.44700
C 	C 	0.43900 0.26960 0.38100 1.40100
C 	C 	0.34400 0.31920 0.37600 0.15800
N 	N 	0.38830 0.36230 0.22300 -0.22000
N 	N 	0.37360 0.26000 0.46200 -0.47700
N 	N 	0.44920 0.33030 0.21600 -0.44000
N 	N 	0.27370 0.33730 0.38900 0.30400
H 	H 	0.26030 0.37580 0.29810 -0.00000
H 	H 	0.24450 0.30960 0.48830 0.00700
N 	N 	0.49000 0.21740 0.38600 2.39600
H 	H 	0.47760 0.17610 0.42990 -0.60900
H 	H 	0.53220 0.22650 0.34120 -0.58700
H 	H 	0.47470 0.23790 0.44280 -2.26400
H 	H 	0.28500 0.33250 0.40980 -0.37400
Ag	Ag	0.96241 0.87747 0.50420 0.44400
C 	C 	0.76960 0.93900 0.11900 1.41100
C 	C 	0.81920 0.84400 0.12400 0.15700
N 	N 	0.86230 0.88830 0.27700 -0.22200
N 	N 	0.76000 0.87360 0.03800 -0.47600
N 	N 	0.83030 0.94920 0.28400 -0.44400
N 	N 	0.83730 0.77370 0.11100 0.30400
H 	H 	0.87580 0.76030 0.20190 -0.00200
H 	H 	0.80960 0.74450 0.01170 0.00800
N 	N 	0.71740 0.99000 0.11400 2.41600
H 	H 	0.67610 0.97760 0.07010 -0.61200
H 	H 	0.72650 0.03220 0.15880 -0.59300
H 	H 	0.73790 0.97470 0.05720 -2.28100
H 	H 	0.83250 0.78500 0.09020 -0.37400
Ag	Ag	0.03759 0.12253 0.50420 0.44400
C 	C 	0.23040 0.06100 0.11900 1.41100
C 	C 	0.18080 0.15600 0.12400 0.15700
N 	N 	0.13770 0.11170 0.27700 -0.22200
N 	N 	0.24000 0.12640 0.03800 -0.47600
N 	N 	0.16970 0.05080 0.28400 -0.44400
N 	N 	0.16270 0.22630 0.11100 0.30400
H 	H 	0.12420 0.23970 0.20190 -0.00200
H 	H 	0.19040 0.25550 0.01170 0.00800
N 	N 	0.28260 0.01000 0.11400 2.41600
H 	H 	0.32390 0.02240 0.07010 -0.61200
H 	H 	0.27350 0.96780 0.15880 -0.59300
H 	H 	0.26210 0.02530 0.05720 -2.28100
H 	H 	0.16750 0.21500 0.09020 -0.37400
Ag	Ag	0.12253 0.96241 0.49580 0.44400
C 	C 	0.06100 0.76960 0.88100 1.41100
C 	C 	0.15600 0.81920 0.87600 0.15700
N 	N 	0.11170 0.86230 0.72300 -0.22200
N 	N 	0.12640 0.76000 0.96200 -0.47600
N 	N 	0.05080 0.83030 0.71600 -0.44400
N 	N 	0.22630 0.83730 0.88900 0.30400
H 	H 	0.23970 0.87580 0.79810 -0.00200
H 	H 	0.25550 0.80960 0.98830 0.00800
N 	N 	0.01000 0.71740 0.88600 2.41600
H 	H 	0.02240 0.67610 0.92990 -0.61200
H 	H 	0.96780 0.72650 0.84120 -0.59300
H 	H 	0.02530 0.73790 0.94280 -2.28100
H 	H 	0.21500 0.83250 0.90980 -0.37400
Ag	Ag	0.87747 0.03759 0.49580 0.44400
C 	C 	0.93900 0.23040 0.88100 1.41100
C 	C 	0.84400 0.18080 0.87600 0.15700
N 	N 	0.88830 0.13770 0.72300 -0.22200
N 	N 	0.87360 0.24000 0.96200 -0.47600
N 	N 	0.94920 0.16970 0.71600 -0.44400
N 	N 	0.77370 0.16270 0.88900 0.30400
H 	H 	0.76030 0.12420 0.79810 -0.00200
H 	H 	0.74450 0.19040 0.98830 0.00800
N 	N 	0.99000 0.28260 0.88600 2.41600
H 	H 	0.97760 0.32390 0.92990 -0.61200
H 	H 	0.03220 0.27350 0.84120 -0.59300
H 	H 	0.97470 0.26210 0.94280 -2.28100
H 	H 	0.78500 0.16750 0.90980 -0.37400
Ag	Ag	0.17726 0.67726 0.25000 0.52400
Ag	Ag	0.82274 0.32274 0.25000 0.52400
Ag	Ag	0.67726 0.82274 0.75000 0.52400
Ag	Ag	0.32274 0.17726 0.75000 0.52400
