data_crystal

_cell_length_a 8.71150
_cell_length_b 10.43160
_cell_length_c 10.88380
_cell_angle_alpha 90.00000
_cell_angle_beta  90.00000
_cell_angle_gamma 90.00000

_symmetry_space_group_name_	'P 1'
_symmetry_space_group_name_H-M	'P 1'

loop_
_symmetry_equiv_pos_as_xyz
  x,y,z

loop_
_atom_site_label
_atom_site_type_symbol
_atom_site_fract_x
_atom_site_fract_y
_atom_site_fract_z
_atom_site_charge
La	La	0.99213 0.10152 0.11264 1.64500
P 	P 	0.84440 0.91670 0.39420 0.42900
P 	P 	0.19440 0.91870 0.36069 0.38700
O 	O 	0.84720 0.00440 0.28270 -0.40100
O 	O 	0.82420 0.77590 0.35960 -0.40300
O 	O 	0.72360 0.95910 0.48590 -0.40100
O 	O 	0.17210 0.78660 0.29970 -0.36900
O 	O 	0.17950 0.02880 0.26950 -0.38400
O 	O 	0.34280 0.93000 0.43450 -0.39100
O 	O 	0.04570 0.80870 0.54470 -0.45600
H 	H 	0.13480 0.79690 0.56610 0.24200
C 	C 	0.03600 0.92800 0.47060 0.06300
C 	C 	0.04520 0.04420 0.55210 -0.51700
H 	H 	0.14460 0.04800 0.58990 0.18000
H 	H 	0.96770 0.03870 0.61470 0.20000
H 	H 	0.02890 0.12000 0.50390 0.17400
La	La	0.50787 0.89848 0.61264 1.64800
P 	P 	0.65560 0.08330 0.89420 0.41800
P 	P 	0.30560 0.08130 0.86069 0.39000
O 	O 	0.65280 0.99560 0.78270 -0.39500
O 	O 	0.67580 0.22410 0.85960 -0.40400
O 	O 	0.77640 0.04090 0.98590 -0.40100
O 	O 	0.32790 0.21340 0.79970 -0.37000
O 	O 	0.32050 0.97120 0.76950 -0.39400
O 	O 	0.15720 0.07000 0.93450 -0.39200
O 	O 	0.45430 0.19130 0.04470 -0.45300
H 	H 	0.36520 0.20310 0.06610 0.24300
C 	C 	0.46400 0.07200 0.97060 0.07100
C 	C 	0.45480 0.95580 0.05210 -0.54300
H 	H 	0.35540 0.95200 0.08990 0.18700
H 	H 	0.53230 0.96130 0.11470 0.21000
H 	H 	0.47110 0.88000 0.00390 0.18200
La	La	0.00787 0.60152 0.38736 1.64900
P 	P 	0.15560 0.41670 0.10580 0.42300
P 	P 	0.80560 0.41870 0.13931 0.38900
O 	O 	0.15280 0.50440 0.21730 -0.39600
O 	O 	0.17580 0.27590 0.14040 -0.40100
O 	O 	0.27640 0.45910 0.01410 -0.39800
O 	O 	0.82790 0.28660 0.20030 -0.37000
O 	O 	0.82050 0.52880 0.23050 -0.38900
O 	O 	0.65720 0.43000 0.06550 -0.38900
O 	O 	0.95430 0.30870 0.95530 -0.45100
H 	H 	0.86520 0.29690 0.93390 0.24100
C 	C 	0.96400 0.42800 0.02940 0.06500
C 	C 	0.95480 0.54420 0.94790 -0.50800
H 	H 	0.85540 0.54800 0.91010 0.17700
H 	H 	0.03230 0.53870 0.88530 0.19300
H 	H 	0.97110 0.62000 0.99610 0.17200
La	La	0.49213 0.39848 0.88736 1.64500
P 	P 	0.34440 0.58330 0.60580 0.41800
P 	P 	0.69440 0.58130 0.63931 0.38700
O 	O 	0.34720 0.49560 0.71730 -0.39700
O 	O 	0.32420 0.72410 0.64040 -0.40500
O 	O 	0.22360 0.54090 0.51410 -0.40100
O 	O 	0.67210 0.71340 0.70030 -0.36900
O 	O 	0.67950 0.47120 0.73050 -0.38800
O 	O 	0.84280 0.57000 0.56550 -0.38800
O 	O 	0.54570 0.69130 0.45530 -0.45700
H 	H 	0.63480 0.70310 0.43390 0.24300
C 	C 	0.53600 0.57200 0.52940 0.07900
C 	C 	0.54520 0.45580 0.44790 -0.55400
H 	H 	0.64460 0.45200 0.41010 0.19000
H 	H 	0.46770 0.46130 0.38530 0.21200
H 	H 	0.52890 0.38000 0.49610 0.18300
