data_crystal

_cell_length_a 8.65440
_cell_length_b 10.38090
_cell_length_c 10.76460
_cell_angle_alpha 90.00000
_cell_angle_beta  90.00000
_cell_angle_gamma 90.00000

_symmetry_space_group_name_	'P 1'
_symmetry_space_group_name_H-M	'P 1'

loop_
_symmetry_equiv_pos_as_xyz
  x,y,z

loop_
_atom_site_label
_atom_site_type_symbol
_atom_site_fract_x
_atom_site_fract_y
_atom_site_fract_z
_atom_site_charge
Pr	Pr	0.49280 0.39847 0.61346 2.06200
P 	P 	0.69340 0.58160 0.86180 0.42400
P 	P 	0.34240 0.58570 0.89250 0.45200
O 	O 	0.67720 0.47210 0.76930 -0.46100
O 	O 	0.67090 0.71530 0.80260 -0.43300
O 	O 	0.84160 0.57080 0.93650 -0.46000
O 	O 	0.21950 0.54480 0.98440 -0.47000
O 	O 	0.32490 0.72560 0.85680 -0.47400
O 	O 	0.34540 0.49710 0.77920 -0.46400
O 	O 	0.54280 0.69510 0.04500 -0.47300
H 	H 	0.63100 0.69820 0.07870 0.24000
C 	C 	0.53220 0.57470 0.96960 0.02400
C 	C 	0.54060 0.45750 0.05490 -0.47700
H 	H 	0.64010 0.45450 0.09410 0.16300
H 	H 	0.52540 0.38060 0.00690 0.15600
H 	H 	0.46160 0.46370 0.11720 0.18900
Pr	Pr	0.00720 0.60153 0.11346 2.05900
P 	P 	0.80660 0.41840 0.36180 0.42400
P 	P 	0.15760 0.41430 0.39250 0.45000
O 	O 	0.82280 0.52790 0.26930 -0.45700
O 	O 	0.82910 0.28470 0.30260 -0.43100
O 	O 	0.65840 0.42920 0.43650 -0.45800
O 	O 	0.28050 0.45520 0.48440 -0.47100
O 	O 	0.17510 0.27440 0.35680 -0.47300
O 	O 	0.15460 0.50290 0.27920 -0.46500
O 	O 	0.95720 0.30490 0.54500 -0.47700
H 	H 	0.86900 0.30180 0.57870 0.24000
C 	C 	0.96780 0.42530 0.46960 0.03400
C 	C 	0.95940 0.54250 0.55490 -0.48300
H 	H 	0.85990 0.54550 0.59410 0.16400
H 	H 	0.97460 0.61940 0.50690 0.16000
H 	H 	0.03840 0.53630 0.61720 0.18900
Pr	Pr	0.50720 0.89847 0.88654 2.06000
P 	P 	0.30660 0.08160 0.63820 0.42600
P 	P 	0.65760 0.08570 0.60750 0.45000
O 	O 	0.32280 0.97210 0.73070 -0.46300
O 	O 	0.32910 0.21530 0.69740 -0.43200
O 	O 	0.15840 0.07080 0.56350 -0.45600
O 	O 	0.78050 0.04480 0.51560 -0.47200
O 	O 	0.67510 0.22560 0.64320 -0.47300
O 	O 	0.65460 0.99710 0.72080 -0.46200
O 	O 	0.45720 0.19510 0.45500 -0.47700
H 	H 	0.36900 0.19820 0.42130 0.24000
C 	C 	0.46780 0.07470 0.53040 0.03200
C 	C 	0.45940 0.95750 0.44510 -0.48900
H 	H 	0.35990 0.95450 0.40590 0.16400
H 	H 	0.47460 0.88060 0.49310 0.15900
H 	H 	0.53840 0.96370 0.38280 0.19300
Pr	Pr	0.99280 0.10153 0.38654 2.06200
P 	P 	0.19340 0.91840 0.13820 0.42600
P 	P 	0.84240 0.91430 0.10750 0.47100
O 	O 	0.17720 0.02790 0.23070 -0.46000
O 	O 	0.17090 0.78470 0.19740 -0.43500
O 	O 	0.34160 0.92920 0.06350 -0.45800
O 	O 	0.71950 0.95520 0.01560 -0.46700
O 	O 	0.82490 0.77440 0.14320 -0.47000
O 	O 	0.84540 0.00290 0.22080 -0.47100
O 	O 	0.04280 0.80490 0.95500 -0.47100
H 	H 	0.13100 0.80180 0.92130 0.23700
C 	C 	0.03220 0.92530 0.03040 -0.00100
C 	C 	0.04060 0.04250 0.94510 -0.40700
H 	H 	0.14010 0.04550 0.90590 0.14300
H 	H 	0.02540 0.11940 0.99310 0.13800
H 	H 	0.96160 0.03630 0.88280 0.16000
