data_crystal

_cell_length_a 10.38480
_cell_length_b 8.34200
_cell_length_c 10.57740
_cell_angle_alpha 90.00000
_cell_angle_beta  90.00000
_cell_angle_gamma 90.00000

_symmetry_space_group_name_	'P 1'
_symmetry_space_group_name_H-M	'P 1'

loop_
_symmetry_equiv_pos_as_xyz
  x,y,z

loop_
_atom_site_label
_atom_site_type_symbol
_atom_site_fract_x
_atom_site_fract_y
_atom_site_fract_z
_atom_site_charge
P 	P 	0.16780 0.06730 0.37310 0.48600
O 	O 	0.27080 0.07270 0.27100 -0.50000
O 	O 	0.18840 0.93060 0.46300 -0.52000
O 	O 	0.03170 0.06880 0.31720 -0.48300
H 	H 	0.55630 0.33280 0.91070 0.33200
H 	H 	0.30060 0.15240 0.59960 0.16700
P 	P 	0.33220 0.93270 0.87310 0.47500
O 	O 	0.22920 0.92730 0.77100 -0.50200
O 	O 	0.31160 0.06940 0.96300 -0.50800
O 	O 	0.46830 0.93120 0.81720 -0.48500
H 	H 	0.94370 0.66720 0.41070 0.33400
H 	H 	0.19940 0.84760 0.09960 0.16100
P 	P 	0.83220 0.56730 0.62690 0.48300
O 	O 	0.72920 0.57270 0.72900 -0.49900
O 	O 	0.81160 0.43060 0.53700 -0.51800
O 	O 	0.96830 0.56880 0.68280 -0.48400
H 	H 	0.44370 0.83280 0.08930 0.33300
H 	H 	0.69940 0.65240 0.40040 0.16600
P 	P 	0.66780 0.43270 0.12690 0.48400
O 	O 	0.77080 0.42730 0.22900 -0.50000
O 	O 	0.68840 0.56940 0.03700 -0.51600
O 	O 	0.53170 0.43120 0.18280 -0.48400
H 	H 	0.05630 0.16720 0.58930 0.33500
H 	H 	0.80060 0.34760 0.90040 0.16000
P 	P 	0.83220 0.93270 0.62690 0.48500
O 	O 	0.72920 0.92730 0.72900 -0.50100
O 	O 	0.81160 0.06940 0.53700 -0.52000
O 	O 	0.96830 0.93120 0.68280 -0.48300
H 	H 	0.44370 0.66720 0.08930 0.33200
H 	H 	0.69940 0.84760 0.40040 0.16700
P 	P 	0.66780 0.06730 0.12690 0.47500
O 	O 	0.77080 0.07270 0.22900 -0.50200
O 	O 	0.68840 0.93060 0.03700 -0.50800
O 	O 	0.53170 0.06880 0.18280 -0.48500
H 	H 	0.05630 0.33280 0.58930 0.33400
H 	H 	0.80060 0.15240 0.90040 0.16100
P 	P 	0.16780 0.43270 0.37310 0.48300
O 	O 	0.27080 0.42730 0.27100 -0.49900
O 	O 	0.18840 0.56940 0.46300 -0.51800
O 	O 	0.03170 0.43120 0.31720 -0.48400
H 	H 	0.55630 0.16720 0.91070 0.33300
H 	H 	0.30060 0.34760 0.59960 0.16600
P 	P 	0.33220 0.56730 0.87310 0.48400
O 	O 	0.22920 0.57270 0.77100 -0.50000
O 	O 	0.31160 0.43060 0.96300 -0.51600
O 	O 	0.46830 0.56880 0.81720 -0.48400
H 	H 	0.94370 0.83280 0.41070 0.33500
H 	H 	0.19940 0.65240 0.09960 0.16000
Sm	Sm	0.36075 0.25000 0.12059 2.13800
O 	O 	0.05770 0.25000 0.54240 -0.83100
C 	C 	0.17940 0.25000 0.46700 0.07400
C 	C 	0.29800 0.25000 0.55200 -0.48700
H 	H 	0.37410 0.25000 0.50020 0.14000
Sm	Sm	0.13925 0.75000 0.62059 2.14300
O 	O 	0.44230 0.75000 0.04240 -0.82300
C 	C 	0.32060 0.75000 0.96700 0.06300
C 	C 	0.20200 0.75000 0.05200 -0.46900
H 	H 	0.12590 0.75000 0.00020 0.13600
Sm	Sm	0.63925 0.75000 0.87941 2.13800
O 	O 	0.94230 0.75000 0.45760 -0.83100
C 	C 	0.82060 0.75000 0.53300 0.07400
C 	C 	0.70200 0.75000 0.44800 -0.48700
H 	H 	0.62590 0.75000 0.49980 0.14000
Sm	Sm	0.86075 0.25000 0.37941 2.14300
O 	O 	0.55770 0.25000 0.95760 -0.82300
C 	C 	0.67940 0.25000 0.03300 0.06300
C 	C 	0.79800 0.25000 0.94800 -0.46900
H 	H 	0.87410 0.25000 0.99980 0.13600
