data_crystal

_cell_length_a 3.40990
_cell_length_b 39.80500
_cell_length_c 43.60700
_cell_angle_alpha 90.00000
_cell_angle_beta  90.00000
_cell_angle_gamma 90.00000

_symmetry_space_group_name_	'P 1'
_symmetry_space_group_name_H-M	'P 1'

loop_
_symmetry_equiv_pos_as_xyz
  x,y,z

loop_
_atom_site_label
_atom_site_type_symbol
_atom_site_fract_x
_atom_site_fract_y
_atom_site_fract_z
_atom_site_charge
C 	C 	0.79700 0.56400 0.03330 0.84600
C 	C 	0.79400 0.52320 0.06410 0.55600
N 	N 	0.92800 0.54935 0.07961 -0.28900
N 	N 	0.93400 0.57599 0.05935 -0.34100
N 	N 	0.71200 0.53110 0.03480 -0.45000
N 	N 	0.76500 0.49040 0.07680 0.74000
H 	H 	0.69320 0.47300 0.06490 -0.15100
H 	H 	0.82250 0.48710 0.09680 -0.15100
N 	N 	0.77900 0.58490 0.00590 1.19000
H 	H 	0.70400 0.57580 0.98790 -0.24800
H 	H 	0.84150 0.60690 0.00690 -0.26500
H 	H 	0.76160 0.57730 0.01520 -1.25900
H 	H 	0.75530 0.50130 0.07270 -0.83000
C 	C 	0.79700 0.06400 0.53330 0.84300
C 	C 	0.79400 0.02320 0.56410 0.54400
N 	N 	0.92800 0.04935 0.57961 -0.28600
N 	N 	0.93400 0.07599 0.55935 -0.34000
N 	N 	0.71200 0.03110 0.53480 -0.44700
N 	N 	0.76500 0.99040 0.57680 0.72300
H 	H 	0.69320 0.97300 0.56490 -0.14500
H 	H 	0.82250 0.98710 0.59680 -0.14400
N 	N 	0.77900 0.08490 0.50590 1.18600
H 	H 	0.70400 0.07580 0.48790 -0.24700
H 	H 	0.84150 0.10690 0.50690 -0.26300
H 	H 	0.76160 0.07730 0.51520 -1.25200
H 	H 	0.75530 0.00130 0.57270 -0.81300
C 	C 	0.29700 0.56400 0.53330 0.84300
C 	C 	0.29400 0.52320 0.56410 0.55600
N 	N 	0.42800 0.54935 0.57961 -0.30100
N 	N 	0.43400 0.57599 0.55935 -0.35300
N 	N 	0.21200 0.53110 0.53480 -0.44600
N 	N 	0.26500 0.49040 0.57680 0.73600
H 	H 	0.19320 0.47300 0.56490 -0.15100
H 	H 	0.32250 0.48710 0.59680 -0.15400
N 	N 	0.27900 0.58490 0.50590 1.18100
H 	H 	0.20400 0.57580 0.48790 -0.24600
H 	H 	0.34150 0.60690 0.50690 -0.26700
H 	H 	0.26160 0.57730 0.51520 -1.24600
H 	H 	0.25530 0.50130 0.57270 -0.82400
C 	C 	0.29700 0.06400 0.03330 0.84500
C 	C 	0.29400 0.02320 0.06410 0.54300
N 	N 	0.42800 0.04935 0.07961 -0.29900
N 	N 	0.43400 0.07599 0.05935 -0.35400
N 	N 	0.21200 0.03110 0.03480 -0.44500
N 	N 	0.26500 0.99040 0.07680 0.71800
H 	H 	0.19320 0.97300 0.06490 -0.14600
H 	H 	0.32250 0.98710 0.09680 -0.14800
N 	N 	0.27900 0.08490 0.00590 1.18400
H 	H 	0.20400 0.07580 0.98790 -0.24600
H 	H 	0.34150 0.10690 0.00690 -0.26800
H 	H 	0.26160 0.07730 0.01520 -1.25100
H 	H 	0.25530 0.00130 0.07270 -0.80700
C 	C 	0.95300 0.18600 0.03330 0.86000
C 	C 	0.95600 0.22680 0.06410 0.55300
N 	N 	0.82200 0.20065 0.07961 -0.30400
N 	N 	0.81600 0.17401 0.05935 -0.36000
N 	N 	0.03800 0.21890 0.03480 -0.42900
N 	N 	0.98500 0.25960 0.07680 0.78200
H 	H 	0.05680 0.27700 0.06490 -0.14500
H 	H 	0.92750 0.26290 0.09680 -0.17000
N 	N 	0.97100 0.16510 0.00590 1.25700
H 	H 	0.04600 0.17420 0.98790 -0.24600
H 	H 	0.90850 0.14310 0.00690 -0.29600
H 	H 	0.98840 0.17270 0.01520 -1.32800
H 	H 	0.99470 0.24870 0.07270 -0.87400
C 	C 	0.95300 0.68600 0.53330 0.85700
C 	C 	0.95600 0.72680 0.56410 0.55400
N 	N 	0.82200 0.70065 0.57961 -0.30400
N 	N 	0.81600 0.67401 0.55935 -0.35900
N 	N 	0.03800 0.71890 0.53480 -0.42800
N 	N 	0.98500 0.75960 0.57680 0.78200
H 	H 	0.05680 0.77700 0.56490 -0.14500
H 	H 	0.92750 0.76290 0.59680 -0.17000
N 	N 	0.97100 0.66510 0.50590 1.25300
H 	H 	0.04600 0.67420 0.48790 -0.24700
H 	H 	0.90850 0.64310 0.50690 -0.29400
H 	H 	0.98840 0.67270 0.51520 -1.32300
H 	H 	0.99470 0.74870 0.57270 -0.87400
C 	C 	0.45300 0.18600 0.53330 0.84200
C 	C 	0.45600 0.22680 0.56410 0.55700
N 	N 	0.32200 0.20065 0.57961 -0.30500
N 	N 	0.31600 0.17401 0.55935 -0.35700
N 	N 	0.53800 0.21890 0.53480 -0.44500
N 	N 	0.48500 0.25960 0.57680 0.74300
H 	H 	0.55680 0.27700 0.56490 -0.14800
H 	H 	0.42750 0.26290 0.59680 -0.16100
N 	N 	0.47100 0.16510 0.50590 1.18500
H 	H 	0.54600 0.17420 0.48790 -0.24600
H 	H 	0.40850 0.14310 0.50690 -0.27800
H 	H 	0.48840 0.17270 0.51520 -1.25000
H 	H 	0.49470 0.24870 0.57270 -0.83000
C 	C 	0.45300 0.68600 0.03330 0.84500
C 	C 	0.45600 0.72680 0.06410 0.55700
N 	N 	0.32200 0.70065 0.07961 -0.30500
N 	N 	0.31600 0.67401 0.05935 -0.35800
N 	N 	0.53800 0.71890 0.03480 -0.44600
N 	N 	0.48500 0.75960 0.07680 0.74300
H 	H 	0.55680 0.77700 0.06490 -0.14800
H 	H 	0.42750 0.76290 0.09680 -0.16100
N 	N 	0.47100 0.66510 0.00590 1.19000
H 	H 	0.54600 0.67420 0.98790 -0.24500
H 	H 	0.40850 0.64310 0.00690 -0.27900
H 	H 	0.48840 0.67270 0.01520 -1.25500
H 	H 	0.49470 0.74870 0.07270 -0.83000
C 	C 	0.95300 0.56400 0.71670 0.85700
C 	C 	0.95600 0.52320 0.68590 0.55400
N 	N 	0.82200 0.54935 0.67039 -0.30400
N 	N 	0.81600 0.57599 0.69065 -0.35900
N 	N 	0.03800 0.53110 0.71520 -0.42800
N 	N 	0.98500 0.49040 0.67320 0.78200
H 	H 	0.05680 0.47300 0.68510 -0.14500
H 	H 	0.92750 0.48710 0.65320 -0.17000
N 	N 	0.97100 0.58490 0.74410 1.25300
H 	H 	0.04600 0.57580 0.76210 -0.24700
H 	H 	0.90850 0.60690 0.74310 -0.29400
H 	H 	0.98840 0.57730 0.73480 -1.32300
H 	H 	0.99470 0.50130 0.67730 -0.87400
C 	C 	0.95300 0.06400 0.21670 0.85700
C 	C 	0.95600 0.02320 0.18590 0.54200
N 	N 	0.82200 0.04935 0.17039 -0.30300
N 	N 	0.81600 0.07599 0.19065 -0.35900
N 	N 	0.03800 0.03110 0.21520 -0.42700
N 	N 	0.98500 0.99040 0.17320 0.76300
H 	H 	0.05680 0.97300 0.18510 -0.13900
H 	H 	0.92750 0.98710 0.15320 -0.16400
N 	N 	0.97100 0.08490 0.24410 1.25200
H 	H 	0.04600 0.07580 0.26210 -0.24700
H 	H 	0.90850 0.10690 0.24310 -0.29400
H 	H 	0.98840 0.07730 0.23480 -1.32200
H 	H 	0.99470 0.00130 0.17730 -0.85700
C 	C 	0.45300 0.56400 0.21670 0.84200
C 	C 	0.45600 0.52320 0.18590 0.55700
N 	N 	0.32200 0.54935 0.17039 -0.30500
N 	N 	0.31600 0.57599 0.19065 -0.35700
N 	N 	0.53800 0.53110 0.21520 -0.44500
N 	N 	0.48500 0.49040 0.17320 0.74300
H 	H 	0.55680 0.47300 0.18510 -0.14800
H 	H 	0.42750 0.48710 0.15320 -0.16100
N 	N 	0.47100 0.58490 0.24410 1.18500
H 	H 	0.54600 0.57580 0.26210 -0.24600
H 	H 	0.40850 0.60690 0.24310 -0.27800
H 	H 	0.48840 0.57730 0.23480 -1.25000
H 	H 	0.49470 0.50130 0.17730 -0.83000
C 	C 	0.45300 0.06400 0.71670 0.84200
C 	C 	0.45600 0.02320 0.68590 0.54500
N 	N 	0.32200 0.04935 0.67039 -0.30300
N 	N 	0.31600 0.07599 0.69065 -0.35700
N 	N 	0.53800 0.03110 0.71520 -0.44400
N 	N 	0.48500 0.99040 0.67320 0.72400
H 	H 	0.55680 0.97300 0.68510 -0.14300
H 	H 	0.42750 0.98710 0.65320 -0.15500
N 	N 	0.47100 0.08490 0.74410 1.18500
H 	H 	0.54600 0.07580 0.76210 -0.24600
H 	H 	0.40850 0.10690 0.74310 -0.27800
H 	H 	0.48840 0.07730 0.73480 -1.25000
H 	H 	0.49470 0.00130 0.67730 -0.81300
C 	C 	0.79700 0.18600 0.71670 0.84400
C 	C 	0.79400 0.22680 0.68590 0.55700
N 	N 	0.92800 0.20065 0.67039 -0.28800
N 	N 	0.93400 0.17401 0.69065 -0.34000
N 	N 	0.71200 0.21890 0.71520 -0.44900
N 	N 	0.76500 0.25960 0.67320 0.74100
H 	H 	0.69320 0.27700 0.68510 -0.15000
H 	H 	0.82250 0.26290 0.65320 -0.15000
N 	N 	0.77900 0.16510 0.74410 1.18700
H 	H 	0.70400 0.17420 0.76210 -0.24800
H 	H 	0.84150 0.14310 0.74310 -0.26300
H 	H 	0.76160 0.17270 0.73480 -1.25200
H 	H 	0.75530 0.24870 0.67730 -0.82900
C 	C 	0.79700 0.68600 0.21670 0.84400
C 	C 	0.79400 0.72680 0.18590 0.55700
N 	N 	0.92800 0.70065 0.17039 -0.28800
N 	N 	0.93400 0.67401 0.19065 -0.34000
N 	N 	0.71200 0.71890 0.21520 -0.44900
N 	N 	0.76500 0.75960 0.17320 0.74100
H 	H 	0.69320 0.77700 0.18510 -0.15000
H 	H 	0.82250 0.76290 0.15320 -0.15000
N 	N 	0.77900 0.66510 0.24410 1.18700
H 	H 	0.70400 0.67420 0.26210 -0.24800
H 	H 	0.84150 0.64310 0.24310 -0.26300
H 	H 	0.76160 0.67270 0.23480 -1.25200
H 	H 	0.75530 0.74870 0.17730 -0.82900
C 	C 	0.29700 0.18600 0.21670 0.84300
C 	C 	0.29400 0.22680 0.18590 0.55500
N 	N 	0.42800 0.20065 0.17039 -0.30100
N 	N 	0.43400 0.17401 0.19065 -0.35300
N 	N 	0.21200 0.21890 0.21520 -0.44600
N 	N 	0.26500 0.25960 0.17320 0.73600
H 	H 	0.19320 0.27700 0.18510 -0.15100
H 	H 	0.32250 0.26290 0.15320 -0.15400
N 	N 	0.27900 0.16510 0.24410 1.18100
H 	H 	0.20400 0.17420 0.26210 -0.24600
H 	H 	0.34150 0.14310 0.24310 -0.26700
H 	H 	0.26160 0.17270 0.23480 -1.24600
H 	H 	0.25530 0.24870 0.17730 -0.82400
C 	C 	0.29700 0.68600 0.71670 0.84300
C 	C 	0.29400 0.72680 0.68590 0.55600
N 	N 	0.42800 0.70065 0.67039 -0.30100
N 	N 	0.43400 0.67401 0.69065 -0.35300
N 	N 	0.21200 0.71890 0.71520 -0.44600
N 	N 	0.26500 0.75960 0.67320 0.73600
H 	H 	0.19320 0.77700 0.68510 -0.15100
H 	H 	0.32250 0.76290 0.65320 -0.15400
N 	N 	0.27900 0.66510 0.74410 1.18100
H 	H 	0.20400 0.67420 0.76210 -0.24600
H 	H 	0.34150 0.64310 0.74310 -0.26700
H 	H 	0.26160 0.67270 0.73480 -1.24600
H 	H 	0.25530 0.74870 0.67730 -0.82400
C 	C 	0.20300 0.43600 0.96670 0.83900
C 	C 	0.20600 0.47680 0.93590 0.55600
N 	N 	0.07200 0.45065 0.92039 -0.29200
N 	N 	0.06600 0.42401 0.94065 -0.34300
N 	N 	0.28800 0.46890 0.96520 -0.44700
N 	N 	0.23500 0.50960 0.92320 0.74100
H 	H 	0.30680 0.52700 0.93510 -0.15100
H 	H 	0.17750 0.51290 0.90320 -0.15300
N 	N 	0.22100 0.41510 0.99410 1.18100
H 	H 	0.29600 0.42420 0.01210 -0.24900
H 	H 	0.15850 0.39310 0.99310 -0.26500
H 	H 	0.23840 0.42270 0.98480 -1.24600
H 	H 	0.24470 0.49870 0.92730 -0.82800
C 	C 	0.20300 0.93600 0.46670 0.84300
C 	C 	0.20600 0.97680 0.43590 0.56800
N 	N 	0.07200 0.95065 0.42039 -0.29400
N 	N 	0.06600 0.92401 0.44065 -0.34400
N 	N 	0.28800 0.96890 0.46520 -0.44900
N 	N 	0.23500 0.00960 0.42320 0.75900
H 	H 	0.30680 0.02700 0.43510 -0.15600
H 	H 	0.17750 0.01290 0.40320 -0.15900
N 	N 	0.22100 0.91510 0.49410 1.18600
H 	H 	0.29600 0.92420 0.51210 -0.24800
H 	H 	0.15850 0.89310 0.49310 -0.26600
H 	H 	0.23840 0.92270 0.48480 -1.25100
H 	H 	0.24470 0.99870 0.42730 -0.84500
C 	C 	0.70300 0.43600 0.46670 0.85800
C 	C 	0.70600 0.47680 0.43590 0.56500
N 	N 	0.57200 0.45065 0.42039 -0.30300
N 	N 	0.56600 0.42401 0.44065 -0.35600
N 	N 	0.78800 0.46890 0.46520 -0.44300
N 	N 	0.73500 0.50960 0.42320 0.74600
H 	H 	0.80680 0.52700 0.43510 -0.14500
H 	H 	0.67750 0.51290 0.40320 -0.15200
N 	N 	0.72100 0.41510 0.49410 1.19900
H 	H 	0.79600 0.42420 0.51210 -0.24200
H 	H 	0.65850 0.39310 0.49310 -0.26600
H 	H 	0.73840 0.42270 0.48480 -1.26300
H 	H 	0.74470 0.49870 0.42730 -0.83300
C 	C 	0.70300 0.93600 0.96670 0.85500
C 	C 	0.70600 0.97680 0.93590 0.57700
N 	N 	0.57200 0.95065 0.92039 -0.30500
N 	N 	0.56600 0.92401 0.94065 -0.35600
N 	N 	0.78800 0.96890 0.96520 -0.44300
N 	N 	0.73500 0.00960 0.92320 0.76500
H 	H 	0.80680 0.02700 0.93510 -0.15000
H 	H 	0.67750 0.01290 0.90320 -0.15800
N 	N 	0.72100 0.91510 0.99410 1.19600
H 	H 	0.79600 0.92420 0.01210 -0.24200
H 	H 	0.65850 0.89310 0.99310 -0.26400
H 	H 	0.73840 0.92270 0.98480 -1.25900
H 	H 	0.74470 0.99870 0.92730 -0.85000
C 	C 	0.04700 0.81400 0.96670 0.87400
C 	C 	0.04400 0.77320 0.93590 0.55600
N 	N 	0.17800 0.79935 0.92039 -0.30700
N 	N 	0.18400 0.82599 0.94065 -0.36500
N 	N 	0.96200 0.78110 0.96520 -0.41300
N 	N 	0.01500 0.74040 0.92320 0.82200
H 	H 	0.94320 0.72300 0.93510 -0.13800
H 	H 	0.07250 0.73710 0.90320 -0.18700
N 	N 	0.02900 0.83490 0.99410 1.31700
H 	H 	0.95400 0.82580 0.01210 -0.24500
H 	H 	0.09150 0.85690 0.99310 -0.32000
H 	H 	0.01160 0.82730 0.98480 -1.39200
H 	H 	0.00530 0.75130 0.92730 -0.92000
C 	C 	0.04700 0.31400 0.46670 0.87700
C 	C 	0.04400 0.27320 0.43590 0.55600
N 	N 	0.17800 0.29935 0.42039 -0.30700
N 	N 	0.18400 0.32599 0.44065 -0.36500
N 	N 	0.96200 0.28110 0.46520 -0.41400
N 	N 	0.01500 0.24040 0.42320 0.82200
H 	H 	0.94320 0.22300 0.43510 -0.13800
H 	H 	0.07250 0.23710 0.40320 -0.18700
N 	N 	0.02900 0.33490 0.49410 1.32100
H 	H 	0.95400 0.32580 0.51210 -0.24500
H 	H 	0.09150 0.35690 0.49310 -0.32100
H 	H 	0.01160 0.32730 0.48480 -1.39700
H 	H 	0.00530 0.25130 0.42730 -0.92000
C 	C 	0.54700 0.81400 0.46670 0.84200
C 	C 	0.54400 0.77320 0.43590 0.55700
N 	N 	0.67800 0.79935 0.42039 -0.30400
N 	N 	0.68400 0.82599 0.44065 -0.35600
N 	N 	0.46200 0.78110 0.46520 -0.44500
N 	N 	0.51500 0.74040 0.42320 0.74100
H 	H 	0.44320 0.72300 0.43510 -0.14800
H 	H 	0.57250 0.73710 0.40320 -0.15900
N 	N 	0.52900 0.83490 0.49410 1.18400
H 	H 	0.45400 0.82580 0.51210 -0.24600
H 	H 	0.59150 0.85690 0.49310 -0.27500
H 	H 	0.51160 0.82730 0.48480 -1.24900
H 	H 	0.50530 0.75130 0.42730 -0.82800
C 	C 	0.54700 0.31400 0.96670 0.83900
C 	C 	0.54400 0.27320 0.93590 0.55700
N 	N 	0.67800 0.29935 0.92039 -0.30400
N 	N 	0.68400 0.32599 0.94065 -0.35600
N 	N 	0.46200 0.28110 0.96520 -0.44400
N 	N 	0.51500 0.24040 0.92320 0.74100
H 	H 	0.44320 0.22300 0.93510 -0.14800
H 	H 	0.57250 0.23710 0.90320 -0.15900
N 	N 	0.52900 0.33490 0.99410 1.18000
H 	H 	0.45400 0.32580 0.01210 -0.24700
H 	H 	0.59150 0.35690 0.99310 -0.27300
H 	H 	0.51160 0.32730 0.98480 -1.24400
H 	H 	0.50530 0.25130 0.92730 -0.82900
C 	C 	0.04700 0.43600 0.28330 0.87700
C 	C 	0.04400 0.47680 0.31410 0.55600
N 	N 	0.17800 0.45065 0.32961 -0.30700
N 	N 	0.18400 0.42401 0.30935 -0.36500
N 	N 	0.96200 0.46890 0.28480 -0.41400
N 	N 	0.01500 0.50960 0.32680 0.82200
H 	H 	0.94320 0.52700 0.31490 -0.13800
H 	H 	0.07250 0.51290 0.34680 -0.18700
N 	N 	0.02900 0.41510 0.25590 1.32100
H 	H 	0.95400 0.42420 0.23790 -0.24500
H 	H 	0.09150 0.39310 0.25690 -0.32100
H 	H 	0.01160 0.42270 0.26520 -1.39700
H 	H 	0.00530 0.49870 0.32270 -0.92000
C 	C 	0.04700 0.93600 0.78330 0.87700
C 	C 	0.04400 0.97680 0.81410 0.56800
N 	N 	0.17800 0.95065 0.82961 -0.30900
N 	N 	0.18400 0.92401 0.80935 -0.36600
N 	N 	0.96200 0.96890 0.78480 -0.41500
N 	N 	0.01500 0.00960 0.82680 0.84100
H 	H 	0.94320 0.02700 0.81490 -0.14300
H 	H 	0.07250 0.01290 0.84680 -0.19300
N 	N 	0.02900 0.91510 0.75590 1.32200
H 	H 	0.95400 0.92420 0.73790 -0.24500
H 	H 	0.09150 0.89310 0.75690 -0.32200
H 	H 	0.01160 0.92270 0.76520 -1.39800
H 	H 	0.00530 0.99870 0.82270 -0.93800
C 	C 	0.54700 0.43600 0.78330 0.84200
C 	C 	0.54400 0.47680 0.81410 0.55700
N 	N 	0.67800 0.45065 0.82961 -0.30400
N 	N 	0.68400 0.42401 0.80935 -0.35600
N 	N 	0.46200 0.46890 0.78480 -0.44500
N 	N 	0.51500 0.50960 0.82680 0.74100
H 	H 	0.44320 0.52700 0.81490 -0.14800
H 	H 	0.57250 0.51290 0.84680 -0.15900
N 	N 	0.52900 0.41510 0.75590 1.18400
H 	H 	0.45400 0.42420 0.73790 -0.24600
H 	H 	0.59150 0.39310 0.75690 -0.27500
H 	H 	0.51160 0.42270 0.76520 -1.24900
H 	H 	0.50530 0.49870 0.82270 -0.82800
C 	C 	0.54700 0.93600 0.28330 0.84200
C 	C 	0.54400 0.97680 0.31410 0.56900
N 	N 	0.67800 0.95065 0.32961 -0.30600
N 	N 	0.68400 0.92401 0.30935 -0.35600
N 	N 	0.46200 0.96890 0.28480 -0.44600
N 	N 	0.51500 0.00960 0.32680 0.76000
H 	H 	0.44320 0.02700 0.31490 -0.15300
H 	H 	0.57250 0.01290 0.34680 -0.16400
N 	N 	0.52900 0.91510 0.25590 1.18400
H 	H 	0.45400 0.92420 0.23790 -0.24600
H 	H 	0.59150 0.89310 0.25690 -0.27500
H 	H 	0.51160 0.92270 0.26520 -1.24900
H 	H 	0.50530 0.99870 0.32270 -0.84500
C 	C 	0.20300 0.81400 0.28330 0.84200
C 	C 	0.20600 0.77320 0.31410 0.55500
N 	N 	0.07200 0.79935 0.32961 -0.29200
N 	N 	0.06600 0.82599 0.30935 -0.34400
N 	N 	0.28800 0.78110 0.28480 -0.44800
N 	N 	0.23500 0.74040 0.32680 0.74100
H 	H 	0.30680 0.72300 0.31490 -0.15100
H 	H 	0.17750 0.73710 0.34680 -0.15300
N 	N 	0.22100 0.83490 0.25590 1.18500
H 	H 	0.29600 0.82580 0.23790 -0.24800
H 	H 	0.15850 0.85690 0.25690 -0.26600
H 	H 	0.23840 0.82730 0.26520 -1.25100
H 	H 	0.24470 0.75130 0.32270 -0.82800
C 	C 	0.20300 0.31400 0.78330 0.84200
C 	C 	0.20600 0.27320 0.81410 0.55500
N 	N 	0.07200 0.29935 0.82961 -0.29200
N 	N 	0.06600 0.32599 0.80935 -0.34400
N 	N 	0.28800 0.28110 0.78480 -0.44800
N 	N 	0.23500 0.24040 0.82680 0.74100
H 	H 	0.30680 0.22300 0.81490 -0.15100
H 	H 	0.17750 0.23710 0.84680 -0.15300
N 	N 	0.22100 0.33490 0.75590 1.18500
H 	H 	0.29600 0.32580 0.73790 -0.24800
H 	H 	0.15850 0.35690 0.75690 -0.26600
H 	H 	0.23840 0.32730 0.76520 -1.25100
H 	H 	0.24470 0.25130 0.82270 -0.82800
C 	C 	0.70300 0.81400 0.78330 0.85800
C 	C 	0.70600 0.77320 0.81410 0.56500
N 	N 	0.57200 0.79935 0.82961 -0.30300
N 	N 	0.56600 0.82599 0.80935 -0.35600
N 	N 	0.78800 0.78110 0.78480 -0.44300
N 	N 	0.73500 0.74040 0.82680 0.74600
H 	H 	0.80680 0.72300 0.81490 -0.14500
H 	H 	0.67750 0.73710 0.84680 -0.15200
N 	N 	0.72100 0.83490 0.75590 1.19900
H 	H 	0.79600 0.82580 0.73790 -0.24200
H 	H 	0.65850 0.85690 0.75690 -0.26600
H 	H 	0.73840 0.82730 0.76520 -1.26300
H 	H 	0.74470 0.75130 0.82270 -0.83300
C 	C 	0.70300 0.31400 0.28330 0.85800
C 	C 	0.70600 0.27320 0.31410 0.56500
N 	N 	0.57200 0.29935 0.32961 -0.30300
N 	N 	0.56600 0.32599 0.30935 -0.35600
N 	N 	0.78800 0.28110 0.28480 -0.44300
N 	N 	0.73500 0.24040 0.32680 0.74600
H 	H 	0.80680 0.22300 0.31490 -0.14500
H 	H 	0.67750 0.23710 0.34680 -0.15200
N 	N 	0.72100 0.33490 0.25590 1.19900
H 	H 	0.79600 0.32580 0.23790 -0.24200
H 	H 	0.65850 0.35690 0.25690 -0.26600
H 	H 	0.73840 0.32730 0.26520 -1.26300
H 	H 	0.74470 0.25130 0.32270 -0.83300
Ag	Ag	0.12500 0.55574 0.12500 0.41300
Ag	Ag	0.12500 0.05574 0.62500 0.41200
Ag	Ag	0.62500 0.19426 0.12500 0.43200
Ag	Ag	0.62500 0.69426 0.62500 0.43200
Ag	Ag	0.62500 0.55574 0.62500 0.43200
Ag	Ag	0.62500 0.05574 0.12500 0.43100
Ag	Ag	0.12500 0.19426 0.62500 0.41300
Ag	Ag	0.12500 0.69426 0.12500 0.41300
Ag	Ag	0.87500 0.44426 0.87500 0.41900
Ag	Ag	0.87500 0.94426 0.37500 0.42000
Ag	Ag	0.37500 0.80574 0.87500 0.43200
Ag	Ag	0.37500 0.30574 0.37500 0.43200
Ag	Ag	0.37500 0.44426 0.37500 0.43200
Ag	Ag	0.37500 0.94426 0.87500 0.43300
Ag	Ag	0.87500 0.80574 0.37500 0.41900
Ag	Ag	0.87500 0.30574 0.87500 0.41900
Ag	Ag	0.12500 0.62500 0.07225 0.40600
Ag	Ag	0.12500 0.12500 0.57225 0.40600
Ag	Ag	0.62500 0.12500 0.07225 0.42500
Ag	Ag	0.62500 0.62500 0.57225 0.42500
Ag	Ag	0.62500 0.62500 0.67775 0.42500
Ag	Ag	0.62500 0.12500 0.17775 0.42500
Ag	Ag	0.12500 0.12500 0.67775 0.40600
Ag	Ag	0.12500 0.62500 0.17775 0.40600
Ag	Ag	0.87500 0.37500 0.92775 0.41100
Ag	Ag	0.87500 0.87500 0.42775 0.41100
Ag	Ag	0.37500 0.87500 0.92775 0.42500
Ag	Ag	0.37500 0.37500 0.42775 0.42500
Ag	Ag	0.37500 0.37500 0.32225 0.42500
Ag	Ag	0.37500 0.87500 0.82225 0.42500
Ag	Ag	0.87500 0.87500 0.32225 0.41100
Ag	Ag	0.87500 0.37500 0.82225 0.41100
Ag	Ag	0.50000 0.50000 -0.00000 0.50700
Ag	Ag	0.50000 -0.00000 0.50000 0.50600
Ag	Ag	0.00000 0.50000 0.50000 0.49800
Ag	Ag	-0.00000 0.00000 -0.00000 0.49500
Ag	Ag	0.25000 0.25000 -0.00000 0.51600
Ag	Ag	0.25000 0.75000 0.50000 0.51700
Ag	Ag	0.25000 0.50000 0.75000 0.51700
Ag	Ag	0.25000 -0.00000 0.25000 0.51500
Ag	Ag	0.50000 0.25000 0.75000 0.50800
Ag	Ag	0.00000 0.25000 0.25000 0.49800
Ag	Ag	0.75000 0.75000 -0.00000 0.52000
Ag	Ag	0.75000 0.25000 0.50000 0.52100
Ag	Ag	0.75000 0.50000 0.25000 0.52100
Ag	Ag	0.75000 0.00000 0.75000 0.51900
Ag	Ag	0.50000 0.75000 0.25000 0.50800
Ag	Ag	-0.00000 0.75000 0.75000 0.49800
