data_crystal

_cell_length_a 10.35130
_cell_length_b 8.32640
_cell_length_c 10.55840
_cell_angle_alpha 90.00000
_cell_angle_beta  90.00000
_cell_angle_gamma 90.00000

_symmetry_space_group_name_	'P 1'
_symmetry_space_group_name_H-M	'P 1'

loop_
_symmetry_equiv_pos_as_xyz
  x,y,z

loop_
_atom_site_label
_atom_site_type_symbol
_atom_site_fract_x
_atom_site_fract_y
_atom_site_fract_z
_atom_site_charge
P 	P 	0.16750 0.43280 0.37320 0.49800
O 	O 	0.27090 0.42600 0.27090 -0.46900
O 	O 	0.03140 0.43010 0.31810 -0.45100
O 	O 	0.18890 0.56950 0.46270 -0.48200
H 	H 	0.00690 0.31910 0.51420 0.04900
H 	H 	0.29920 0.15610 0.60450 0.16600
P 	P 	0.33250 0.56720 0.87320 0.50100
O 	O 	0.22910 0.57400 0.77090 -0.46900
O 	O 	0.46860 0.56990 0.81810 -0.45100
O 	O 	0.31110 0.43050 0.96270 -0.47900
H 	H 	0.49310 0.68090 0.01420 0.04800
H 	H 	0.20080 0.84390 0.10450 0.15200
P 	P 	0.83250 0.93280 0.62680 0.50000
O 	O 	0.72910 0.92600 0.72910 -0.47000
O 	O 	0.96860 0.93010 0.68190 -0.45000
O 	O 	0.81110 0.06950 0.53730 -0.48300
H 	H 	0.99310 0.81910 0.48580 0.05000
H 	H 	0.70080 0.65610 0.39550 0.16500
P 	P 	0.66750 0.06720 0.12680 0.49200
O 	O 	0.77090 0.07400 0.22910 -0.47100
O 	O 	0.53140 0.06990 0.18190 -0.45300
O 	O 	0.68890 0.93050 0.03730 -0.47100
H 	H 	0.50690 0.18090 0.98580 0.05000
H 	H 	0.79920 0.34390 0.89550 0.15100
P 	P 	0.83250 0.56720 0.62680 0.49900
O 	O 	0.72910 0.57400 0.72910 -0.46800
O 	O 	0.96860 0.56990 0.68190 -0.45000
O 	O 	0.81110 0.43050 0.53730 -0.48100
H 	H 	0.99310 0.68090 0.48580 0.04900
H 	H 	0.70080 0.84390 0.39550 0.16600
P 	P 	0.66750 0.43280 0.12680 0.50100
O 	O 	0.77090 0.42600 0.22910 -0.46900
O 	O 	0.53140 0.43010 0.18190 -0.45100
O 	O 	0.68890 0.56950 0.03730 -0.47900
H 	H 	0.50690 0.31910 0.98580 0.04800
H 	H 	0.79920 0.15610 0.89550 0.15200
P 	P 	0.16750 0.06720 0.37320 0.50000
O 	O 	0.27090 0.07400 0.27090 -0.47000
O 	O 	0.03140 0.06990 0.31810 -0.45000
O 	O 	0.18890 0.93050 0.46270 -0.48300
H 	H 	0.00690 0.18090 0.51420 0.05000
H 	H 	0.29920 0.34390 0.60450 0.16500
P 	P 	0.33250 0.93280 0.87320 0.49200
O 	O 	0.22910 0.92600 0.77090 -0.47100
O 	O 	0.46860 0.93010 0.81810 -0.45300
O 	O 	0.31110 0.06950 0.96270 -0.47100
H 	H 	0.49310 0.81910 0.01420 0.05000
H 	H 	0.20080 0.65610 0.10450 0.15100
Eu	Eu	0.36041 0.25000 0.12058 2.01100
O 	O 	0.05930 0.25000 0.54370 -0.34600
C 	C 	0.17800 0.25000 0.46680 -0.01000
C 	C 	0.29900 0.25000 0.55210 -0.41200
H 	H 	0.37460 0.25000 0.49970 0.13300
Eu	Eu	0.13959 0.75000 0.62058 2.01500
O 	O 	0.44070 0.75000 0.04370 -0.34000
C 	C 	0.32200 0.75000 0.96680 -0.02700
C 	C 	0.20100 0.75000 0.05210 -0.36400
H 	H 	0.12540 0.75000 0.99970 0.11500
Eu	Eu	0.63959 0.75000 0.87942 2.01100
O 	O 	0.94070 0.75000 0.45630 -0.34600
C 	C 	0.82200 0.75000 0.53320 -0.01000
C 	C 	0.70100 0.75000 0.44790 -0.41200
H 	H 	0.62540 0.75000 0.50030 0.13300
Eu	Eu	0.86041 0.25000 0.37942 2.01500
O 	O 	0.55930 0.25000 0.95630 -0.34000
C 	C 	0.67800 0.25000 0.03320 -0.02700
C 	C 	0.79900 0.25000 0.94790 -0.36400
H 	H 	0.87460 0.25000 0.00030 0.11500
