data_crystal

_cell_length_a 10.25650
_cell_length_b 8.28920
_cell_length_c 10.45950
_cell_angle_alpha 90.00000
_cell_angle_beta  90.00000
_cell_angle_gamma 90.00000

_symmetry_space_group_name_	'P 1'
_symmetry_space_group_name_H-M	'P 1'

loop_
_symmetry_equiv_pos_as_xyz
  x,y,z

loop_
_atom_site_label
_atom_site_type_symbol
_atom_site_fract_x
_atom_site_fract_y
_atom_site_fract_z
_atom_site_charge
P 	P 	0.66730 0.06690 0.37390 0.48000
O 	O 	0.77090 0.07490 0.27010 -0.44300
O 	O 	0.52920 0.06950 0.31770 -0.42700
O 	O 	0.68850 0.92880 0.46350 -0.45800
H 	H 	0.00660 0.18320 0.98290 0.10000
H 	H 	0.80290 0.15220 0.60530 0.17800
P 	P 	0.83270 0.93310 0.87390 0.47500
O 	O 	0.72910 0.92510 0.77010 -0.44200
O 	O 	0.97080 0.93050 0.81770 -0.41800
O 	O 	0.81150 0.07120 0.96350 -0.44800
H 	H 	0.49340 0.81680 0.48290 0.09800
H 	H 	0.69710 0.84780 0.10530 0.18400
P 	P 	0.33270 0.56690 0.62610 0.48100
O 	O 	0.22910 0.57490 0.72990 -0.44100
O 	O 	0.47080 0.56950 0.68230 -0.42600
O 	O 	0.31150 0.42880 0.53650 -0.46000
H 	H 	0.99340 0.68320 0.01710 0.09800
H 	H 	0.19710 0.65220 0.39470 0.17800
P 	P 	0.16730 0.43310 0.12610 0.47900
O 	O 	0.27090 0.42510 0.22990 -0.44200
O 	O 	0.02920 0.43050 0.18230 -0.41800
O 	O 	0.18850 0.57120 0.03650 -0.45100
H 	H 	0.50660 0.31680 0.51710 0.09700
H 	H 	0.30290 0.34780 0.89470 0.18200
P 	P 	0.33270 0.93310 0.62610 0.47900
O 	O 	0.22910 0.92510 0.72990 -0.44400
O 	O 	0.47080 0.93050 0.68230 -0.42700
O 	O 	0.31150 0.07120 0.53650 -0.45800
H 	H 	0.99340 0.81680 0.01710 0.10000
H 	H 	0.19710 0.84780 0.39470 0.17800
P 	P 	0.16730 0.06690 0.12610 0.47500
O 	O 	0.27090 0.07490 0.22990 -0.44200
O 	O 	0.02920 0.06950 0.18230 -0.41800
O 	O 	0.18850 0.92880 0.03650 -0.44800
H 	H 	0.50660 0.18320 0.51710 0.09800
H 	H 	0.30290 0.15220 0.89470 0.18400
P 	P 	0.66730 0.43310 0.37390 0.48100
O 	O 	0.77090 0.42510 0.27010 -0.44100
O 	O 	0.52920 0.43050 0.31770 -0.42600
O 	O 	0.68850 0.57120 0.46350 -0.46000
H 	H 	0.00660 0.31680 0.98290 0.09800
H 	H 	0.80290 0.34780 0.60530 0.17800
P 	P 	0.83270 0.56690 0.87390 0.47900
O 	O 	0.72910 0.57490 0.77010 -0.44200
O 	O 	0.97080 0.56950 0.81770 -0.41800
O 	O 	0.81150 0.42880 0.96350 -0.45100
H 	H 	0.49340 0.68320 0.48290 0.09700
H 	H 	0.69710 0.65220 0.10530 0.18200
Dy	Dy	0.86000 0.25000 0.12022 1.79800
O 	O 	0.55760 0.25000 0.54610 -0.41300
C 	C 	0.67890 0.25000 0.46850 0.01500
C 	C 	0.80000 0.25000 0.55600 -0.43400
H 	H 	0.87670 0.25000 0.50360 0.14300
Dy	Dy	0.64000 0.75000 0.62022 1.83200
O 	O 	0.94240 0.75000 0.04610 -0.41900
C 	C 	0.82110 0.75000 0.96850 0.02400
C 	C 	0.70000 0.75000 0.05600 -0.45000
H 	H 	0.62330 0.75000 0.00360 0.14900
Dy	Dy	0.14000 0.75000 0.87978 1.79800
O 	O 	0.44240 0.75000 0.45390 -0.41300
C 	C 	0.32110 0.75000 0.53150 0.01500
C 	C 	0.20000 0.75000 0.44400 -0.43400
H 	H 	0.12330 0.75000 0.49640 0.14300
Dy	Dy	0.36000 0.25000 0.37978 1.83200
O 	O 	0.05760 0.25000 0.95390 -0.41900
C 	C 	0.17890 0.25000 0.03150 0.02400
C 	C 	0.30000 0.25000 0.94400 -0.45000
H 	H 	0.37670 0.25000 0.99640 0.14900
