data_crystal

_cell_length_a 9.21370
_cell_length_b 15.20140
_cell_length_c 12.04570
_cell_angle_alpha 90.00000
_cell_angle_beta  101.89300
_cell_angle_gamma 90.00000

_symmetry_space_group_name_	'P 1'
_symmetry_space_group_name_H-M	'P 1'

loop_
_symmetry_equiv_pos_as_xyz
  x,y,z

loop_
_atom_site_label
_atom_site_type_symbol
_atom_site_fract_x
_atom_site_fract_y
_atom_site_fract_z
_atom_site_charge
P 	P 	0.89450 0.10730 0.89080 0.60000
P 	P 	0.44880 0.00300 0.81670 0.60900
O 	O 	0.51950 0.08290 0.77470 -0.38700
O 	O 	0.82430 0.10050 0.76430 -0.38700
O 	O 	0.60010 0.24320 0.69060 -0.30700
O 	O 	0.66750 0.99260 0.59780 -0.30800
O 	O 	0.73830 0.16930 0.54360 -0.30600
O 	O 	0.44410 0.10460 0.53470 -0.29700
O 	O 	0.81530 0.05210 0.96340 -0.39500
O 	O 	0.31830 0.03180 0.86700 -0.36800
O 	O 	0.55780 0.94680 0.89810 -0.40900
O 	O 	0.05400 0.08490 0.89960 -0.36500
O 	O 	0.79360 0.30310 0.48340 -0.29800
O 	O 	0.65710 0.37860 0.63370 -0.29800
O 	O 	0.88280 0.20410 0.93190 -0.42600
H 	H 	0.91970 0.23750 0.89200 0.28300
O 	O 	0.38300 0.94600 0.71000 -0.44700
H 	H 	0.34060 0.90300 0.72950 0.30400
C 	C 	0.56480 0.96760 0.51830 0.23400
C 	C 	0.73860 0.25200 0.54480 0.22200
C 	C 	0.65780 0.29570 0.63110 0.22500
Fe	Fe	0.63476 0.11255 0.66452 1.25700
Fe	Fe	0.75220 0.93807 0.99795 1.26700
P 	P 	0.60550 0.60730 0.60920 0.60500
P 	P 	0.05120 0.50300 0.68330 0.60600
O 	O 	0.98050 0.58290 0.72530 -0.39000
O 	O 	0.67570 0.60050 0.73570 -0.38800
O 	O 	0.89990 0.74320 0.80940 -0.30900
O 	O 	0.83250 0.49260 0.90220 -0.30700
O 	O 	0.76170 0.66930 0.95640 -0.30500
O 	O 	0.05590 0.60460 0.96530 -0.28900
O 	O 	0.68470 0.55210 0.53660 -0.39700
O 	O 	0.18170 0.53180 0.63300 -0.37100
O 	O 	0.94220 0.44680 0.60190 -0.40700
O 	O 	0.44600 0.58490 0.60040 -0.37400
O 	O 	0.70640 0.80310 0.01660 -0.28800
O 	O 	0.84290 0.87860 0.86630 -0.30200
O 	O 	0.61720 0.70410 0.56810 -0.42600
H 	H 	0.58030 0.73750 0.60800 0.28400
O 	O 	0.11700 0.44600 0.79000 -0.44100
H 	H 	0.15940 0.40300 0.77050 0.30300
C 	C 	0.93520 0.46760 0.98170 0.22600
C 	C 	0.76140 0.75200 0.95520 0.21100
C 	C 	0.84220 0.79570 0.86890 0.22700
Fe	Fe	0.86524 0.61255 0.83548 1.25600
Fe	Fe	0.74780 0.43807 0.50205 1.27400
P 	P 	0.10550 0.89270 0.10920 0.59900
P 	P 	0.55120 0.99700 0.18330 0.60800
O 	O 	0.48050 0.91710 0.22530 -0.38700
O 	O 	0.17570 0.89950 0.23570 -0.38700
O 	O 	0.39990 0.75680 0.30940 -0.30700
O 	O 	0.33250 0.00740 0.40220 -0.30800
O 	O 	0.26170 0.83070 0.45640 -0.30600
O 	O 	0.55590 0.89540 0.46530 -0.29700
O 	O 	0.18470 0.94790 0.03660 -0.39500
O 	O 	0.68170 0.96820 0.13300 -0.36800
O 	O 	0.44220 0.05320 0.10190 -0.40900
O 	O 	0.94600 0.91510 0.10040 -0.36500
O 	O 	0.20640 0.69690 0.51660 -0.29800
O 	O 	0.34290 0.62140 0.36630 -0.29800
O 	O 	0.11720 0.79590 0.06810 -0.42600
H 	H 	0.08030 0.76250 0.10800 0.28300
O 	O 	0.61700 0.05400 0.29000 -0.44700
H 	H 	0.65940 0.09700 0.27050 0.30400
C 	C 	0.43520 0.03240 0.48170 0.23400
C 	C 	0.26140 0.74800 0.45520 0.22200
C 	C 	0.34220 0.70430 0.36890 0.22500
Fe	Fe	0.36524 0.88745 0.33548 1.25700
Fe	Fe	0.24780 0.06193 0.00205 1.26700
P 	P 	0.39450 0.39270 0.39080 0.60500
P 	P 	0.94880 0.49700 0.31670 0.60600
O 	O 	0.01950 0.41710 0.27470 -0.39000
O 	O 	0.32430 0.39950 0.26430 -0.38800
O 	O 	0.10010 0.25680 0.19060 -0.30900
O 	O 	0.16750 0.50740 0.09780 -0.30700
O 	O 	0.23830 0.33070 0.04360 -0.30500
O 	O 	0.94410 0.39540 0.03470 -0.28900
O 	O 	0.31530 0.44790 0.46340 -0.39700
O 	O 	0.81830 0.46820 0.36700 -0.37100
O 	O 	0.05780 0.55320 0.39810 -0.40700
O 	O 	0.55400 0.41510 0.39960 -0.37400
O 	O 	0.29360 0.19690 0.98340 -0.28800
O 	O 	0.15710 0.12140 0.13370 -0.30200
O 	O 	0.38280 0.29590 0.43190 -0.42600
H 	H 	0.41970 0.26250 0.39200 0.28400
O 	O 	0.88300 0.55400 0.21000 -0.44100
H 	H 	0.84060 0.59700 0.22950 0.30300
C 	C 	0.06480 0.53240 0.01830 0.22600
C 	C 	0.23860 0.24800 0.04480 0.21100
C 	C 	0.15780 0.20430 0.13110 0.22700
Fe	Fe	0.13476 0.38745 0.16452 1.25600
Fe	Fe	0.25220 0.56193 0.49795 1.27400
