data_crystal

_cell_length_a 9.26640
_cell_length_b 15.20430
_cell_length_c 11.98400
_cell_angle_alpha 90.00000
_cell_angle_beta  102.16700
_cell_angle_gamma 90.00000

_symmetry_space_group_name_	'P 1'
_symmetry_space_group_name_H-M	'P 1'

loop_
_symmetry_equiv_pos_as_xyz
  x,y,z

loop_
_atom_site_label
_atom_site_type_symbol
_atom_site_fract_x
_atom_site_fract_y
_atom_site_fract_z
_atom_site_charge
P 	P 	0.89450 0.10800 0.89040 0.60400
P 	P 	0.44920 0.00270 0.81630 0.60200
O 	O 	0.51840 0.08380 0.77350 -0.38800
O 	O 	0.82090 0.10240 0.76450 -0.39200
O 	O 	0.59960 0.24540 0.69030 -0.31000
O 	O 	0.66630 0.99350 0.59830 -0.30100
O 	O 	0.73810 0.17050 0.54420 -0.29800
O 	O 	0.44380 0.10480 0.53380 -0.29300
O 	O 	0.81940 0.05230 0.96480 -0.39200
O 	O 	0.31600 0.03080 0.86320 -0.36400
O 	O 	0.55650 0.94800 0.90110 -0.41000
O 	O 	0.05470 0.08670 0.89830 -0.36300
O 	O 	0.79500 0.30340 0.48250 -0.29400
O 	O 	0.65900 0.37820 0.63320 -0.30400
O 	O 	0.88610 0.20380 0.93410 -0.42800
H 	H 	0.92250 0.23750 0.89420 0.28300
O 	O 	0.38800 0.94520 0.70800 -0.44500
H 	H 	0.34570 0.90190 0.72650 0.30200
C 	C 	0.56330 0.96890 0.51880 0.22500
C 	C 	0.73820 0.25380 0.54440 0.21000
C 	C 	0.65910 0.29670 0.63090 0.23700
Fe	Fe	0.63200 0.11428 0.66520 1.25900
Fe	Fe	0.75200 0.93836 0.99980 1.26400
P 	P 	0.60550 0.60800 0.60960 0.60900
P 	P 	0.05080 0.50270 0.68370 0.59900
O 	O 	0.98160 0.58380 0.72650 -0.39300
O 	O 	0.67910 0.60240 0.73550 -0.39300
O 	O 	0.90040 0.74540 0.80970 -0.31200
O 	O 	0.83370 0.49350 0.90170 -0.30000
O 	O 	0.76190 0.67050 0.95580 -0.29800
O 	O 	0.05620 0.60480 0.96620 -0.28400
O 	O 	0.68060 0.55230 0.53520 -0.39500
O 	O 	0.18400 0.53080 0.63680 -0.36700
O 	O 	0.94350 0.44800 0.59890 -0.40700
O 	O 	0.44530 0.58670 0.60170 -0.37200
O 	O 	0.70500 0.80340 0.01750 -0.28400
O 	O 	0.84100 0.87820 0.86680 -0.30800
O 	O 	0.61390 0.70380 0.56590 -0.42900
H 	H 	0.57750 0.73750 0.60580 0.28500
O 	O 	0.11200 0.44520 0.79200 -0.44000
H 	H 	0.15430 0.40190 0.77350 0.30200
C 	C 	0.93670 0.46890 0.98120 0.21800
C 	C 	0.76180 0.75380 0.95560 0.20000
C 	C 	0.84090 0.79670 0.86910 0.23900
Fe	Fe	0.86800 0.61428 0.83480 1.25700
Fe	Fe	0.74800 0.43836 0.50020 1.27100
P 	P 	0.10550 0.89200 0.10960 0.60300
P 	P 	0.55080 0.99730 0.18370 0.60100
O 	O 	0.48160 0.91620 0.22650 -0.38900
O 	O 	0.17910 0.89760 0.23550 -0.39300
O 	O 	0.40040 0.75460 0.30970 -0.31000
O 	O 	0.33370 0.00650 0.40170 -0.30100
O 	O 	0.26190 0.82950 0.45580 -0.29800
O 	O 	0.55620 0.89520 0.46620 -0.29300
O 	O 	0.18060 0.94770 0.03520 -0.39200
O 	O 	0.68400 0.96920 0.13680 -0.36400
O 	O 	0.44350 0.05200 0.09890 -0.41000
O 	O 	0.94530 0.91330 0.10170 -0.36300
O 	O 	0.20500 0.69660 0.51750 -0.29400
O 	O 	0.34100 0.62180 0.36680 -0.30400
O 	O 	0.11390 0.79620 0.06590 -0.42800
H 	H 	0.07750 0.76250 0.10580 0.28300
O 	O 	0.61200 0.05480 0.29200 -0.44500
H 	H 	0.65430 0.09810 0.27350 0.30200
C 	C 	0.43670 0.03110 0.48120 0.22500
C 	C 	0.26180 0.74620 0.45560 0.21000
C 	C 	0.34090 0.70330 0.36910 0.23700
Fe	Fe	0.36800 0.88572 0.33480 1.25900
Fe	Fe	0.24800 0.06164 0.00020 1.26400
P 	P 	0.39450 0.39200 0.39040 0.60900
P 	P 	0.94920 0.49730 0.31630 0.59900
O 	O 	0.01840 0.41620 0.27350 -0.39300
O 	O 	0.32090 0.39760 0.26450 -0.39300
O 	O 	0.09960 0.25460 0.19030 -0.31200
O 	O 	0.16630 0.50650 0.09830 -0.30000
O 	O 	0.23810 0.32950 0.04420 -0.29800
O 	O 	0.94380 0.39520 0.03380 -0.28400
O 	O 	0.31940 0.44770 0.46480 -0.39500
O 	O 	0.81600 0.46920 0.36320 -0.36700
O 	O 	0.05650 0.55200 0.40110 -0.40700
O 	O 	0.55470 0.41330 0.39830 -0.37200
O 	O 	0.29500 0.19660 0.98250 -0.28400
O 	O 	0.15900 0.12180 0.13320 -0.30800
O 	O 	0.38610 0.29620 0.43410 -0.42900
H 	H 	0.42250 0.26250 0.39420 0.28500
O 	O 	0.88800 0.55480 0.20800 -0.44000
H 	H 	0.84570 0.59810 0.22650 0.30200
C 	C 	0.06330 0.53110 0.01880 0.21800
C 	C 	0.23820 0.24620 0.04440 0.20000
C 	C 	0.15910 0.20330 0.13090 0.23900
Fe	Fe	0.13200 0.38572 0.16520 1.25700
Fe	Fe	0.25200 0.56164 0.49980 1.27100
