data_crystal

_cell_length_a 11.68820
_cell_length_b 13.78710
_cell_length_c 32.49900
_cell_angle_alpha 90.00000
_cell_angle_beta  97.74800
_cell_angle_gamma 90.00000

_symmetry_space_group_name_	'P 1'
_symmetry_space_group_name_H-M	'P 1'

loop_
_symmetry_equiv_pos_as_xyz
  x,y,z

loop_
_atom_site_label
_atom_site_type_symbol
_atom_site_fract_x
_atom_site_fract_y
_atom_site_fract_z
_atom_site_charge
Ag	Ag	0.74397 0.19849 0.31795 0.43600
Ag	Ag	0.61792 0.35310 0.35408 0.47500
Ag	Ag	0.68236 0.26300 0.22673 0.44100
Ag	Ag	0.55981 0.20496 0.13559 0.43800
Ag	Ag	0.22645 0.34773 0.36305 0.45800
Ag	Ag	0.89448 0.36002 0.34103 0.48000
Ag	Ag	0.55540 0.36270 0.08645 0.29100
Ag	Ag	0.44170 0.38550 0.41450 0.17600
Ag	Ag	0.06726 0.18135 0.33938 0.47500
Ag	Ag	0.04000 0.23210 0.24420 -0.10200
Ag	Ag	0.54200 0.50300 0.50340 -0.03200
C 	C 	0.72910 0.34060 0.29550 -0.41100
C 	C 	0.70170 0.41030 0.27320 0.01500
C 	C 	0.67230 0.50080 0.25190 -0.03600
C 	C 	0.69120 0.58850 0.27280 -0.03300
H 	H 	0.72110 0.58860 0.30080 0.07200
C 	C 	0.66670 0.67460 0.25270 -0.03100
H 	H 	0.67680 0.73240 0.26750 0.12000
C 	C 	0.62790 0.67680 0.21170 -0.01100
H 	H 	0.61350 0.73620 0.19840 0.10500
C 	C 	0.60980 0.59330 0.18950 -0.04100
H 	H 	0.58440 0.59610 0.16110 0.07400
C 	C 	0.62940 0.50190 0.20940 -0.04300
C 	C 	0.60940 0.41410 0.18510 0.01300
C 	C 	0.58910 0.34640 0.16180 -0.44600
C 	C 	0.07560 0.31620 0.31020 -0.43000
C 	C 	0.05650 0.39250 0.29130 0.01100
C 	C 	0.03040 0.48230 0.26960 -0.09800
C 	C 	0.06240 0.57220 0.28970 0.01900
H 	H 	0.10430 0.57320 0.31620 0.04300
C 	C 	0.03040 0.65730 0.26940 -0.11200
H 	H 	0.05060 0.71610 0.28240 0.14100
O 	O 	0.68920 0.50110 0.38010 -0.22300
O 	O 	0.56860 0.50520 0.42750 -0.23300
C 	C 	0.64660 0.53690 0.40900 0.09900
C 	C 	0.69870 0.63420 0.42520 1.04000
F 	F 	0.64450 0.70190 0.40470 -0.50200
F 	F 	0.67500 0.65770 0.46170 -0.48600
F 	F 	0.79700 0.64950 0.42140 -0.52000
O 	O 	0.88700 0.10040 0.27100 -0.29900
O 	O 	0.74280 0.10480 0.21930 -0.31400
C 	C 	0.81430 0.06290 0.24440 0.09800
C 	C 	0.80820 0.95480 0.24270 0.85500
F 	F 	0.82830 0.92060 0.20720 -0.48400
F 	F 	0.87280 0.90920 0.27260 -0.47100
F 	F 	0.70310 0.92240 0.24720 -0.48100
O 	O 	0.16720 0.48880 0.39700 -0.22200
O 	O 	0.31680 0.47040 0.44690 -0.23000
C 	C 	0.21820 0.49930 0.43260 0.09500
C 	C 	0.14970 0.54520 0.46410 0.96600
F 	F 	0.09070 0.48180 0.47850 -0.44900
F 	F 	0.07080 0.60580 0.44660 -0.42900
F 	F 	0.20810 0.59110 0.49300 -0.47800
O 	O 	0.71070 0.25270 0.40900 -0.25900
O 	O 	0.57600 0.14350 0.41740 -0.22600
C 	C 	0.67420 0.17900 0.42410 0.10400
C 	C 	0.76330 0.12500 0.45510 0.92200
F 	F 	0.80100 0.18010 0.48630 -0.43500
F 	F 	0.85370 0.10340 0.43860 -0.51700
F 	F 	0.72200 0.04810 0.47030 -0.46600
O 	O 	0.45470 0.33940 0.01440 -0.13400
N 	N 	0.02290 0.04800 0.36580 -0.34100
C 	C 	0.99500 0.97940 0.37990 0.61900
C 	C 	0.95850 0.88970 0.39780 -1.40200
H 	H 	0.00440 0.87870 0.42420 0.53200
H 	H 	0.96840 0.83660 0.37950 0.52900
H 	H 	0.87870 0.89460 0.40160 0.53800
Ag	Ag	0.25603 0.19849 0.18205 0.43400
Ag	Ag	0.38208 0.35310 0.14592 0.47600
Ag	Ag	0.31764 0.26300 0.27327 0.44200
Ag	Ag	0.44019 0.20496 0.36441 0.43900
Ag	Ag	0.77355 0.34773 0.13695 0.45900
Ag	Ag	0.10552 0.36002 0.15897 0.46600
Ag	Ag	0.44460 0.36270 0.41355 0.29100
Ag	Ag	0.55830 0.38550 0.08550 0.17600
Ag	Ag	0.93274 0.18135 0.16062 0.48400
Ag	Ag	0.96000 0.23210 0.25580 -0.07400
Ag	Ag	0.45800 0.50300 0.99660 -0.03400
C 	C 	0.27090 0.34060 0.20450 -0.41300
C 	C 	0.29830 0.41030 0.22680 0.01400
C 	C 	0.32770 0.50080 0.24810 -0.03800
C 	C 	0.30880 0.58850 0.22720 -0.03200
H 	H 	0.27890 0.58860 0.19920 0.06900
C 	C 	0.33330 0.67460 0.24730 -0.03300
H 	H 	0.32320 0.73240 0.23250 0.11900
C 	C 	0.37210 0.67680 0.28830 -0.01000
H 	H 	0.38650 0.73620 0.30160 0.10400
C 	C 	0.39020 0.59330 0.31050 -0.04200
H 	H 	0.41560 0.59610 0.33890 0.07500
C 	C 	0.37060 0.50190 0.29060 -0.04200
C 	C 	0.39060 0.41410 0.31490 0.01300
C 	C 	0.41090 0.34640 0.33820 -0.44600
C 	C 	0.92440 0.31620 0.18980 -0.40100
C 	C 	0.94350 0.39250 0.20870 -0.02000
C 	C 	0.96960 0.48230 0.23040 0.01700
C 	C 	0.93760 0.57220 0.21030 -0.10200
H 	H 	0.89570 0.57320 0.18380 0.08900
C 	C 	0.96960 0.65730 0.23060 0.06900
H 	H 	0.94940 0.71610 0.21760 0.08700
O 	O 	0.31080 0.50110 0.11990 -0.22600
O 	O 	0.43140 0.50520 0.07250 -0.23400
C 	C 	0.35340 0.53690 0.09100 0.09700
C 	C 	0.30130 0.63420 0.07480 1.04200
F 	F 	0.35550 0.70190 0.09530 -0.50500
F 	F 	0.32500 0.65770 0.03830 -0.49200
F 	F 	0.20300 0.64950 0.07860 -0.53000
O 	O 	0.11300 0.10040 0.22900 -0.30900
O 	O 	0.25720 0.10480 0.28070 -0.31500
C 	C 	0.18570 0.06290 0.25560 0.09800
C 	C 	0.19180 0.95480 0.25730 0.85400
F 	F 	0.17170 0.92060 0.29280 -0.49100
F 	F 	0.12720 0.90920 0.22740 -0.47900
F 	F 	0.29690 0.92240 0.25280 -0.48200
O 	O 	0.83280 0.48880 0.10300 -0.21800
O 	O 	0.68320 0.47040 0.05310 -0.23000
C 	C 	0.78180 0.49930 0.06740 0.09600
C 	C 	0.85030 0.54520 0.03590 0.96500
F 	F 	0.90930 0.48180 0.02150 -0.44100
F 	F 	0.92920 0.60580 0.05340 -0.42100
F 	F 	0.79190 0.59110 0.00700 -0.47900
O 	O 	0.28930 0.25270 0.09100 -0.26200
O 	O 	0.42400 0.14350 0.08260 -0.22700
C 	C 	0.32580 0.17900 0.07590 0.10300
C 	C 	0.23670 0.12500 0.04490 0.92300
F 	F 	0.19900 0.18010 0.01370 -0.44300
F 	F 	0.14630 0.10340 0.06140 -0.52600
F 	F 	0.27800 0.04810 0.02970 -0.47200
O 	O 	0.54530 0.33940 0.48560 -0.13000
N 	N 	0.97710 0.04800 0.13420 -0.31400
C 	C 	0.00500 0.97940 0.12010 0.59800
C 	C 	0.04150 0.88970 0.10220 -1.50500
H 	H 	0.99560 0.87870 0.07580 0.58600
H 	H 	0.03160 0.83660 0.12050 0.54900
H 	H 	0.12130 0.89460 0.09840 0.56300
Ag	Ag	0.25603 0.80151 0.68205 0.43400
Ag	Ag	0.38208 0.64690 0.64592 0.47600
Ag	Ag	0.31764 0.73700 0.77327 0.44200
Ag	Ag	0.44019 0.79504 0.86441 0.43900
Ag	Ag	0.77355 0.65227 0.63695 0.45900
Ag	Ag	0.10552 0.63998 0.65897 0.46600
Ag	Ag	0.44460 0.63730 0.91355 0.29100
Ag	Ag	0.55830 0.61450 0.58550 0.17600
Ag	Ag	0.93274 0.81865 0.66062 0.48400
Ag	Ag	0.96000 0.76790 0.75580 -0.07400
Ag	Ag	0.45800 0.49700 0.49660 -0.03200
C 	C 	0.27090 0.65940 0.70450 -0.41300
C 	C 	0.29830 0.58970 0.72680 0.01400
C 	C 	0.32770 0.49920 0.74810 -0.03800
C 	C 	0.30880 0.41150 0.72720 -0.03200
H 	H 	0.27890 0.41140 0.69920 0.06900
C 	C 	0.33330 0.32540 0.74730 -0.03300
H 	H 	0.32320 0.26760 0.73250 0.11900
C 	C 	0.37210 0.32320 0.78830 -0.01000
H 	H 	0.38650 0.26380 0.80160 0.10400
C 	C 	0.39020 0.40670 0.81050 -0.04200
H 	H 	0.41560 0.40390 0.83890 0.07500
C 	C 	0.37060 0.49810 0.79060 -0.04200
C 	C 	0.39060 0.58590 0.81490 0.01300
C 	C 	0.41090 0.65360 0.83820 -0.44600
C 	C 	0.92440 0.68380 0.68980 -0.40100
C 	C 	0.94350 0.60750 0.70870 -0.02000
C 	C 	0.96960 0.51770 0.73040 0.01800
C 	C 	0.93760 0.42780 0.71030 -0.10300
H 	H 	0.89570 0.42680 0.68380 0.08900
C 	C 	0.96960 0.34270 0.73060 0.07100
H 	H 	0.94940 0.28390 0.71760 0.08600
O 	O 	0.31080 0.49890 0.61990 -0.22600
O 	O 	0.43140 0.49480 0.57250 -0.23300
C 	C 	0.35340 0.46310 0.59100 0.09700
C 	C 	0.30130 0.36580 0.57480 1.04100
F 	F 	0.35550 0.29810 0.59530 -0.50400
F 	F 	0.32500 0.34230 0.53830 -0.48900
F 	F 	0.20300 0.35050 0.57860 -0.52900
O 	O 	0.11300 0.89960 0.72900 -0.30900
O 	O 	0.25720 0.89520 0.78070 -0.31400
C 	C 	0.18570 0.93710 0.75560 0.09800
C 	C 	0.19180 0.04520 0.75730 0.85400
F 	F 	0.17170 0.07940 0.79280 -0.49100
F 	F 	0.12720 0.09080 0.72740 -0.47900
F 	F 	0.29690 0.07760 0.75280 -0.48100
O 	O 	0.83280 0.51120 0.60300 -0.21800
O 	O 	0.68320 0.52960 0.55310 -0.23000
C 	C 	0.78180 0.50070 0.56740 0.09700
C 	C 	0.85030 0.45480 0.53590 0.96400
F 	F 	0.90930 0.51820 0.52150 -0.43800
F 	F 	0.92920 0.39420 0.55340 -0.41900
F 	F 	0.79190 0.40890 0.50700 -0.47500
O 	O 	0.28930 0.74730 0.59100 -0.26200
O 	O 	0.42400 0.85650 0.58260 -0.22600
C 	C 	0.32580 0.82100 0.57590 0.10400
C 	C 	0.23670 0.87500 0.54490 0.92300
F 	F 	0.19900 0.81990 0.51370 -0.44000
F 	F 	0.14630 0.89660 0.56140 -0.52500
F 	F 	0.27800 0.95190 0.52970 -0.47000
O 	O 	0.54530 0.66060 0.98560 -0.12500
N 	N 	0.97710 0.95200 0.63420 -0.31500
C 	C 	0.00500 0.02060 0.62010 0.60000
C 	C 	0.04150 0.11030 0.60220 -1.51200
H 	H 	0.99560 0.12130 0.57580 0.59000
H 	H 	0.03160 0.16340 0.62050 0.55100
H 	H 	0.12130 0.10540 0.59840 0.56600
Ag	Ag	0.74397 0.80151 0.81795 0.43700
Ag	Ag	0.61792 0.64690 0.85408 0.47600
Ag	Ag	0.68236 0.73700 0.72673 0.44200
Ag	Ag	0.55981 0.79504 0.63559 0.44000
Ag	Ag	0.22645 0.65227 0.86305 0.45800
Ag	Ag	0.89448 0.63998 0.84103 0.48100
Ag	Ag	0.55540 0.63730 0.58645 0.29100
Ag	Ag	0.44170 0.61450 0.91450 0.17600
Ag	Ag	0.06726 0.81865 0.83938 0.47500
Ag	Ag	0.04000 0.76790 0.74420 -0.10300
Ag	Ag	0.54200 0.49700 0.00340 -0.05100
C 	C 	0.72910 0.65940 0.79550 -0.41100
C 	C 	0.70170 0.58970 0.77320 0.01500
C 	C 	0.67230 0.49920 0.75190 -0.03600
C 	C 	0.69120 0.41150 0.77280 -0.03300
H 	H 	0.72110 0.41140 0.80080 0.07200
C 	C 	0.66670 0.32540 0.75270 -0.03100
H 	H 	0.67680 0.26760 0.76750 0.12000
C 	C 	0.62790 0.32320 0.71170 -0.01100
H 	H 	0.61350 0.26380 0.69840 0.10500
C 	C 	0.60980 0.40670 0.68950 -0.04100
H 	H 	0.58440 0.40390 0.66110 0.07500
C 	C 	0.62940 0.49810 0.70940 -0.04300
C 	C 	0.60940 0.58590 0.68510 0.01300
C 	C 	0.58910 0.65360 0.66180 -0.44600
C 	C 	0.07560 0.68380 0.81020 -0.43100
C 	C 	0.05650 0.60750 0.79130 0.01100
C 	C 	0.03040 0.51770 0.76960 -0.09900
C 	C 	0.06240 0.42780 0.78970 0.02000
H 	H 	0.10430 0.42680 0.81620 0.04300
C 	C 	0.03040 0.34270 0.76940 -0.11400
H 	H 	0.05060 0.28390 0.78240 0.14100
O 	O 	0.68920 0.49890 0.88010 -0.22300
O 	O 	0.56860 0.49480 0.92750 -0.23100
C 	C 	0.64660 0.46310 0.90900 0.09900
C 	C 	0.69870 0.36580 0.92520 1.04000
F 	F 	0.64450 0.29810 0.90470 -0.50100
F 	F 	0.67500 0.34230 0.96170 -0.48300
F 	F 	0.79700 0.35050 0.92140 -0.51900
O 	O 	0.88700 0.89960 0.77100 -0.29900
O 	O 	0.74280 0.89520 0.71930 -0.31400
C 	C 	0.81430 0.93710 0.74440 0.09800
C 	C 	0.80820 0.04520 0.74270 0.85500
F 	F 	0.82830 0.07940 0.70720 -0.48400
F 	F 	0.87280 0.09080 0.77260 -0.47100
F 	F 	0.70310 0.07760 0.74720 -0.48100
O 	O 	0.16720 0.51120 0.89700 -0.22100
O 	O 	0.31680 0.52960 0.94690 -0.22900
C 	C 	0.21820 0.50070 0.93260 0.09600
C 	C 	0.14970 0.45480 0.96410 0.96600
F 	F 	0.09070 0.51820 0.97850 -0.44600
F 	F 	0.07080 0.39420 0.94660 -0.42800
F 	F 	0.20810 0.40890 0.99300 -0.47500
O 	O 	0.71070 0.74730 0.90900 -0.25800
O 	O 	0.57600 0.85650 0.91740 -0.22600
C 	C 	0.67420 0.82100 0.92410 0.10500
C 	C 	0.76330 0.87500 0.95510 0.92100
F 	F 	0.80100 0.81990 0.98630 -0.43200
F 	F 	0.85370 0.89660 0.93860 -0.51600
F 	F 	0.72200 0.95190 0.97030 -0.46400
O 	O 	0.45470 0.66060 0.51440 -0.13000
N 	N 	0.02290 0.95200 0.86580 -0.34100
C 	C 	0.99500 0.02060 0.87990 0.62100
C 	C 	0.95850 0.11030 0.89780 -1.40600
H 	H 	0.00440 0.12130 0.92420 0.53400
H 	H 	0.96840 0.16340 0.87950 0.53100
H 	H 	0.87870 0.10540 0.90160 0.54000
Ag	Ag	-0.00000 0.23450 0.25000 0.63000
Ag	Ag	-0.00000 0.76550 0.75000 0.63000
Ag	Ag	0.50000 0.50000 0.50000 0.70400
Ag	Ag	0.50000 0.50000 -0.00000 0.72100
