data_crystal

_cell_length_a 19.15600
_cell_length_b 19.15600
_cell_length_c 33.50600
_cell_angle_alpha 73.38980
_cell_angle_beta  73.38980
_cell_angle_gamma 89.99990

_symmetry_space_group_name_	'P 1'
_symmetry_space_group_name_H-M	'P 1'

loop_
_symmetry_equiv_pos_as_xyz
  x,y,z

loop_
_atom_site_label
_atom_site_type_symbol
_atom_site_fract_x
_atom_site_fract_y
_atom_site_fract_z
_atom_site_charge
Cu	Cu	0.00223 0.07093 0.49554 0.91600
Cu	Cu	0.00223 0.43353 0.49554 0.91600
Cu	Cu	0.57093 0.50223 0.99554 0.91700
Cu	Cu	0.93353 0.50223 0.99554 0.91700
Cu	Cu	0.99777 0.92907 0.50446 0.91700
Cu	Cu	0.99777 0.56647 0.50446 0.91700
Cu	Cu	0.06647 0.49777 0.00446 0.91700
Cu	Cu	0.42907 0.49777 0.00446 0.91700
Cu	Cu	0.39643 0.14643 0.70714 0.90700
Cu	Cu	0.64643 0.89643 0.20714 0.90700
Cu	Cu	0.60357 0.85357 0.29286 0.90700
Cu	Cu	0.35357 0.10357 0.79286 0.90700
H 	H 	0.80180 0.85480 0.61440 0.02200
H 	H 	0.70330 0.83720 0.67620 0.07900
H 	H 	0.70800 0.05300 0.65640 0.08000
H 	H 	0.80700 0.07100 0.59520 0.02100
H 	H 	0.58340 0.02170 0.68740 0.05700
H 	H 	0.96860 0.22130 0.44300 0.05300
H 	H 	0.90570 0.19910 0.48740 0.05200
H 	H 	0.01460 0.16620 0.55200 0.05400
H 	H 	0.08380 0.53080 0.61440 0.02200
H 	H 	0.12050 0.48660 0.67620 0.07900
H 	H 	0.13560 0.29060 0.65640 0.08000
H 	H 	0.09780 0.33380 0.59520 0.02100
H 	H 	0.22920 0.29090 0.68740 0.05700
H 	H 	0.08840 0.33570 0.44300 0.05300
H 	H 	0.10690 0.31350 0.48740 0.05300
H 	H 	0.93340 0.28180 0.55200 0.05600
H 	H 	0.35480 0.58380 0.11440 0.02200
H 	H 	0.33720 0.62050 0.17620 0.07900
H 	H 	0.55300 0.63560 0.15640 0.08000
H 	H 	0.57100 0.59780 0.09520 0.02100
H 	H 	0.52170 0.72920 0.18740 0.05700
H 	H 	0.72130 0.58840 0.94300 0.05300
H 	H 	0.69910 0.60690 0.98740 0.05300
H 	H 	0.66620 0.43340 0.05200 0.05600
H 	H 	0.03080 0.30180 0.11440 0.02000
H 	H 	0.98660 0.20330 0.17620 0.08000
H 	H 	0.79060 0.20800 0.15640 0.08100
H 	H 	0.83380 0.30700 0.09520 0.02100
H 	H 	0.79090 0.08340 0.18740 0.05700
H 	H 	0.83570 0.46860 0.94300 0.05300
H 	H 	0.81350 0.40570 0.98740 0.05300
H 	H 	0.78180 0.51460 0.05200 0.05600
H 	H 	0.91620 0.14520 0.38560 0.02200
H 	H 	0.87950 0.16280 0.32380 0.08000
H 	H 	0.86440 0.94700 0.34360 0.08100
H 	H 	0.90220 0.92900 0.40480 0.02100
H 	H 	0.77080 0.97830 0.31260 0.05500
H 	H 	0.91160 0.77870 0.55700 0.05300
H 	H 	0.89310 0.80090 0.51260 0.05200
H 	H 	0.06660 0.83380 0.44800 0.05500
H 	H 	0.19820 0.46920 0.38560 0.02200
H 	H 	0.29670 0.51340 0.32380 0.07900
H 	H 	0.29200 0.70940 0.34360 0.08000
H 	H 	0.19300 0.66620 0.40480 0.02100
H 	H 	0.41660 0.70910 0.31260 0.05700
H 	H 	0.03140 0.66430 0.55700 0.05300
H 	H 	0.09430 0.68650 0.51260 0.05300
H 	H 	0.98540 0.71820 0.44800 0.05500
H 	H 	0.96920 0.41620 0.88560 0.02200
H 	H 	0.01340 0.37950 0.82380 0.07900
H 	H 	0.20940 0.36440 0.84360 0.08000
H 	H 	0.16620 0.40220 0.90480 0.02100
H 	H 	0.20910 0.27080 0.81260 0.05700
H 	H 	0.16430 0.41160 0.05700 0.05300
H 	H 	0.18650 0.39310 0.01260 0.05300
H 	H 	0.21820 0.56660 0.94800 0.05600
H 	H 	0.64520 0.69820 0.88560 0.02200
H 	H 	0.66280 0.79670 0.82380 0.07900
H 	H 	0.44700 0.79200 0.84360 0.08000
H 	H 	0.42900 0.69300 0.90480 0.02100
H 	H 	0.47830 0.91660 0.81260 0.05700
H 	H 	0.27870 0.53140 0.05700 0.05300
H 	H 	0.30090 0.59430 0.01260 0.05300
H 	H 	0.33380 0.48540 0.94800 0.05600
H 	H 	0.19820 0.14520 0.38560 0.02200
H 	H 	0.29670 0.16280 0.32380 0.07900
H 	H 	0.29200 0.94700 0.34360 0.08000
H 	H 	0.19300 0.92900 0.40480 0.02100
H 	H 	0.41660 0.97830 0.31260 0.05700
H 	H 	0.03140 0.77870 0.55700 0.05300
H 	H 	0.09430 0.80090 0.51260 0.05200
H 	H 	0.98540 0.83380 0.44800 0.05400
H 	H 	0.91620 0.46920 0.38560 0.02200
H 	H 	0.87950 0.51340 0.32380 0.07900
H 	H 	0.86440 0.70940 0.34360 0.08000
H 	H 	0.90220 0.66620 0.40480 0.02100
H 	H 	0.77080 0.70910 0.31260 0.05700
H 	H 	0.91160 0.66430 0.55700 0.05300
H 	H 	0.89310 0.68650 0.51260 0.05300
H 	H 	0.06660 0.71820 0.44800 0.05600
H 	H 	0.64520 0.41620 0.88560 0.02200
H 	H 	0.66280 0.37950 0.82380 0.07900
H 	H 	0.44700 0.36440 0.84360 0.08000
H 	H 	0.42900 0.40220 0.90480 0.02100
H 	H 	0.47830 0.27080 0.81260 0.05700
H 	H 	0.27870 0.41160 0.05700 0.05300
H 	H 	0.30090 0.39310 0.01260 0.05300
H 	H 	0.33380 0.56660 0.94800 0.05600
H 	H 	0.96920 0.69820 0.88560 0.02000
H 	H 	0.01340 0.79670 0.82380 0.08000
H 	H 	0.20940 0.79200 0.84360 0.08100
H 	H 	0.16620 0.69300 0.90480 0.02100
H 	H 	0.20910 0.91660 0.81260 0.05700
H 	H 	0.16430 0.53140 0.05700 0.05300
H 	H 	0.18650 0.59430 0.01260 0.05300
H 	H 	0.21820 0.48540 0.94800 0.05600
H 	H 	0.08380 0.85480 0.61440 0.02200
H 	H 	0.12050 0.83720 0.67620 0.08000
H 	H 	0.13560 0.05300 0.65640 0.08100
H 	H 	0.09780 0.07100 0.59520 0.02100
H 	H 	0.22920 0.02170 0.68740 0.05500
H 	H 	0.08840 0.22130 0.44300 0.05300
H 	H 	0.10690 0.19910 0.48740 0.05200
H 	H 	0.93340 0.16620 0.55200 0.05500
H 	H 	0.80180 0.53080 0.61440 0.02200
H 	H 	0.70330 0.48660 0.67620 0.07900
H 	H 	0.70800 0.29060 0.65640 0.08000
H 	H 	0.80700 0.33380 0.59520 0.02100
H 	H 	0.58340 0.29090 0.68740 0.05700
H 	H 	0.96860 0.33570 0.44300 0.05300
H 	H 	0.90570 0.31350 0.48740 0.05300
H 	H 	0.01460 0.28180 0.55200 0.05500
H 	H 	0.03080 0.58380 0.11440 0.02200
H 	H 	0.98660 0.62050 0.17620 0.07900
H 	H 	0.79060 0.63560 0.15640 0.08000
H 	H 	0.83380 0.59780 0.09520 0.02100
H 	H 	0.79090 0.72920 0.18740 0.05700
H 	H 	0.83570 0.58840 0.94300 0.05300
H 	H 	0.81350 0.60690 0.98740 0.05300
H 	H 	0.78180 0.43340 0.05200 0.05600
H 	H 	0.35480 0.30180 0.11440 0.02200
H 	H 	0.33720 0.20330 0.17620 0.07900
H 	H 	0.55300 0.20800 0.15640 0.08000
H 	H 	0.57100 0.30700 0.09520 0.02100
H 	H 	0.52170 0.08340 0.18740 0.05700
H 	H 	0.72130 0.46860 0.94300 0.05300
H 	H 	0.69910 0.40570 0.98740 0.05300
H 	H 	0.66620 0.51460 0.05200 0.05600
H 	H 	0.65890 0.84110 0.75000 0.05400
H 	H 	0.09110 0.40890 0.75000 0.05400
H 	H 	0.34110 0.59110 0.25000 0.05400
H 	H 	0.90890 0.15890 0.25000 0.05400
H 	H 	0.34110 0.15890 0.25000 0.05400
H 	H 	0.90890 0.59110 0.25000 0.05400
H 	H 	0.65890 0.40890 0.75000 0.05400
H 	H 	0.09110 0.84110 0.75000 0.05400
C 	C 	0.88050 0.97637 0.55984 0.37700
C 	C 	0.81474 0.96467 0.59856 -0.13400
C 	C 	0.78316 0.89490 0.62290 0.06400
C 	C 	0.72388 0.88437 0.65988 -0.13600
C 	C 	0.69494 0.94335 0.67284 0.07600
C 	C 	0.72685 0.01280 0.64812 -0.13600
C 	C 	0.78622 0.02383 0.61136 0.06600
C 	C 	0.63217 0.93375 0.71240 -0.00300
C 	C 	0.58000 0.98362 0.71258 -0.03300
C 	C 	0.95471 0.22320 0.47278 -0.05600
C 	C 	0.05966 0.46379 0.55984 0.37900
C 	C 	0.08670 0.43677 0.59856 -0.13300
C 	C 	0.09394 0.48220 0.62290 0.06500
C 	C 	0.11624 0.45575 0.65988 -0.13600
C 	C 	0.13222 0.38381 0.67284 0.07700
C 	C 	0.12503 0.33908 0.64812 -0.13700
C 	C 	0.10242 0.36481 0.61136 0.06500
C 	C 	0.15543 0.35385 0.71240 -0.00300
C 	C 	0.20742 0.30380 0.71258 -0.03300
C 	C 	0.07251 0.30402 0.47278 -0.05700
C 	C 	0.47637 0.55966 0.05984 0.37900
C 	C 	0.46467 0.58670 0.09856 -0.13300
C 	C 	0.39490 0.59394 0.12290 0.06500
C 	C 	0.38437 0.61624 0.15988 -0.13600
C 	C 	0.44335 0.63222 0.17284 0.07700
C 	C 	0.51280 0.62503 0.14812 -0.13700
C 	C 	0.52383 0.60242 0.11136 0.06500
C 	C 	0.43375 0.65543 0.21240 -0.00300
C 	C 	0.48362 0.70742 0.21258 -0.03300
C 	C 	0.72320 0.57251 0.97278 -0.05700
C 	C 	0.96379 0.38050 0.05984 0.38000
C 	C 	0.93677 0.31474 0.09856 -0.13500
C 	C 	0.98220 0.28316 0.12290 0.06800
C 	C 	0.95575 0.22388 0.15988 -0.13800
C 	C 	0.88381 0.19494 0.17284 0.07800
C 	C 	0.83908 0.22685 0.14812 -0.13800
C 	C 	0.86481 0.28622 0.11136 0.06700
C 	C 	0.85385 0.13217 0.21240 -0.00400
C 	C 	0.80380 0.08000 0.21258 -0.03200
C 	C 	0.80402 0.45471 0.97278 -0.05700
C 	C 	0.94034 0.02363 0.44016 0.38000
C 	C 	0.91330 0.03533 0.40144 -0.13300
C 	C 	0.90606 0.10510 0.37710 0.06500
C 	C 	0.88376 0.11563 0.34012 -0.13700
C 	C 	0.86778 0.05665 0.32716 0.07900
C 	C 	0.87497 0.98720 0.35188 -0.13900
C 	C 	0.89758 0.97617 0.38864 0.06500
C 	C 	0.84457 0.06625 0.28760 -0.00500
C 	C 	0.79258 0.01638 0.28742 -0.03000
C 	C 	0.92749 0.77680 0.52722 -0.05700
C 	C 	0.11950 0.53621 0.44016 0.37900
C 	C 	0.18526 0.56323 0.40144 -0.13300
C 	C 	0.21684 0.51780 0.37710 0.06500
C 	C 	0.27612 0.54425 0.34012 -0.13600
C 	C 	0.30506 0.61619 0.32716 0.07700
C 	C 	0.27315 0.66092 0.35188 -0.13700
C 	C 	0.21378 0.63519 0.38864 0.06500
C 	C 	0.36783 0.64615 0.28760 -0.00300
C 	C 	0.42000 0.69620 0.28742 -0.03300
C 	C 	0.04529 0.69598 0.52722 -0.05700
C 	C 	0.03621 0.44034 0.94016 0.37900
C 	C 	0.06323 0.41330 0.90144 -0.13300
C 	C 	0.01780 0.40606 0.87710 0.06400
C 	C 	0.04425 0.38376 0.84012 -0.13600
C 	C 	0.11619 0.36778 0.82716 0.07700
C 	C 	0.16092 0.37497 0.85188 -0.13700
C 	C 	0.13519 0.39758 0.88864 0.06500
C 	C 	0.14615 0.34457 0.78760 -0.00300
C 	C 	0.19620 0.29258 0.78742 -0.03300
C 	C 	0.19598 0.42749 0.02722 -0.05700
C 	C 	0.52363 0.61950 0.94016 0.37900
C 	C 	0.53533 0.68526 0.90144 -0.13300
C 	C 	0.60510 0.71684 0.87710 0.06400
C 	C 	0.61563 0.77612 0.84012 -0.13600
C 	C 	0.55665 0.80506 0.82716 0.07700
C 	C 	0.48720 0.77315 0.85188 -0.13600
C 	C 	0.47617 0.71378 0.88864 0.06500
C 	C 	0.56625 0.86783 0.78760 -0.00300
C 	C 	0.51638 0.92000 0.78742 -0.03300
C 	C 	0.27680 0.54529 0.02722 -0.05700
C 	C 	0.11950 0.02363 0.44016 0.37700
C 	C 	0.18526 0.03533 0.40144 -0.13400
C 	C 	0.21684 0.10510 0.37710 0.06400
C 	C 	0.27612 0.11563 0.34012 -0.13600
C 	C 	0.30506 0.05665 0.32716 0.07600
C 	C 	0.27315 0.98720 0.35188 -0.13600
C 	C 	0.21378 0.97617 0.38864 0.06600
C 	C 	0.36783 0.06625 0.28760 -0.00300
C 	C 	0.42000 0.01638 0.28742 -0.03300
C 	C 	0.04529 0.77680 0.52722 -0.05600
C 	C 	0.94034 0.53621 0.44016 0.37900
C 	C 	0.91330 0.56323 0.40144 -0.13300
C 	C 	0.90606 0.51780 0.37710 0.06500
C 	C 	0.88376 0.54425 0.34012 -0.13600
C 	C 	0.86778 0.61619 0.32716 0.07700
C 	C 	0.87497 0.66092 0.35188 -0.13700
C 	C 	0.89758 0.63519 0.38864 0.06500
C 	C 	0.84457 0.64615 0.28760 -0.00300
C 	C 	0.79258 0.69620 0.28742 -0.03300
C 	C 	0.92749 0.69598 0.52722 -0.05700
C 	C 	0.52363 0.44034 0.94016 0.37900
C 	C 	0.53533 0.41330 0.90144 -0.13300
C 	C 	0.60510 0.40606 0.87710 0.06500
C 	C 	0.61563 0.38376 0.84012 -0.13600
C 	C 	0.55665 0.36778 0.82716 0.07700
C 	C 	0.48720 0.37497 0.85188 -0.13700
C 	C 	0.47617 0.39758 0.88864 0.06500
C 	C 	0.56625 0.34457 0.78760 -0.00300
C 	C 	0.51638 0.29258 0.78742 -0.03300
C 	C 	0.27680 0.42749 0.02722 -0.05700
C 	C 	0.03621 0.61950 0.94016 0.38000
C 	C 	0.06323 0.68526 0.90144 -0.13500
C 	C 	0.01780 0.71684 0.87710 0.06800
C 	C 	0.04425 0.77612 0.84012 -0.13800
C 	C 	0.11619 0.80506 0.82716 0.07800
C 	C 	0.16092 0.77315 0.85188 -0.13800
C 	C 	0.13519 0.71378 0.88864 0.06700
C 	C 	0.14615 0.86783 0.78760 -0.00400
C 	C 	0.19620 0.92000 0.78742 -0.03200
C 	C 	0.19598 0.54529 0.02722 -0.05700
C 	C 	0.05966 0.97637 0.55984 0.38000
C 	C 	0.08670 0.96467 0.59856 -0.13300
C 	C 	0.09394 0.89490 0.62290 0.06500
C 	C 	0.11624 0.88437 0.65988 -0.13700
C 	C 	0.13222 0.94335 0.67284 0.07900
C 	C 	0.12503 0.01280 0.64812 -0.13900
C 	C 	0.10242 0.02383 0.61136 0.06500
C 	C 	0.15543 0.93375 0.71240 -0.00500
C 	C 	0.20742 0.98362 0.71258 -0.03000
C 	C 	0.07251 0.22320 0.47278 -0.05700
C 	C 	0.88050 0.46379 0.55984 0.37900
C 	C 	0.81474 0.43677 0.59856 -0.13300
C 	C 	0.78316 0.48220 0.62290 0.06500
C 	C 	0.72388 0.45575 0.65988 -0.13600
C 	C 	0.69494 0.38381 0.67284 0.07700
C 	C 	0.72685 0.33908 0.64812 -0.13700
C 	C 	0.78622 0.36481 0.61136 0.06500
C 	C 	0.63217 0.35385 0.71240 -0.00300
C 	C 	0.58000 0.30380 0.71258 -0.03300
C 	C 	0.95471 0.30402 0.47278 -0.05700
C 	C 	0.96379 0.55966 0.05984 0.37900
C 	C 	0.93677 0.58670 0.09856 -0.13300
C 	C 	0.98220 0.59394 0.12290 0.06400
C 	C 	0.95575 0.61624 0.15988 -0.13600
C 	C 	0.88381 0.63222 0.17284 0.07700
C 	C 	0.83908 0.62503 0.14812 -0.13700
C 	C 	0.86481 0.60242 0.11136 0.06500
C 	C 	0.85385 0.65543 0.21240 -0.00300
C 	C 	0.80380 0.70742 0.21258 -0.03300
C 	C 	0.80402 0.57251 0.97278 -0.05700
C 	C 	0.47637 0.38050 0.05984 0.37900
C 	C 	0.46467 0.31474 0.09856 -0.13300
C 	C 	0.39490 0.28316 0.12290 0.06400
C 	C 	0.38437 0.22388 0.15988 -0.13600
C 	C 	0.44335 0.19494 0.17284 0.07700
C 	C 	0.51280 0.22685 0.14812 -0.13600
C 	C 	0.52383 0.28622 0.11136 0.06500
C 	C 	0.43375 0.13217 0.21240 -0.00300
C 	C 	0.48362 0.08000 0.21258 -0.03300
C 	C 	0.72320 0.45471 0.97278 -0.05700
C 	C 	0.98164 0.19064 0.53672 -0.06100
C 	C 	0.98164 0.27264 0.53672 -0.06300
C 	C 	0.69064 0.48164 0.03672 -0.06400
C 	C 	0.77264 0.48164 0.03672 -0.06400
C 	C 	0.01836 0.80936 0.46328 -0.06100
C 	C 	0.01836 0.72736 0.46328 -0.06300
C 	C 	0.22736 0.51836 0.96328 -0.06400
C 	C 	0.30936 0.51836 0.96328 -0.06400
C 	C 	0.62461 0.87539 0.75000 -0.06600
C 	C 	0.52271 0.97729 0.75000 -0.05900
C 	C 	0.46747 0.03253 0.75000 0.34900
C 	C 	0.12539 0.37461 0.75000 -0.06600
C 	C 	0.22729 0.27271 0.75000 -0.05900
C 	C 	0.28253 0.21747 0.75000 0.34900
C 	C 	0.37539 0.62539 0.25000 -0.06500
C 	C 	0.47729 0.72729 0.25000 -0.05900
C 	C 	0.53253 0.78253 0.25000 0.34900
C 	C 	0.87461 0.12461 0.25000 -0.06400
C 	C 	0.77271 0.02271 0.25000 -0.06000
C 	C 	0.71747 0.96747 0.25000 0.34900
C 	C 	0.37539 0.12461 0.25000 -0.06600
C 	C 	0.47729 0.02271 0.25000 -0.05900
C 	C 	0.53253 0.96747 0.25000 0.34900
C 	C 	0.87461 0.62539 0.25000 -0.06600
C 	C 	0.77271 0.72729 0.25000 -0.05900
C 	C 	0.71747 0.78253 0.25000 0.34900
C 	C 	0.62461 0.37461 0.75000 -0.06500
C 	C 	0.52271 0.27271 0.75000 -0.05900
C 	C 	0.46747 0.21747 0.75000 0.34900
C 	C 	0.12539 0.87539 0.75000 -0.06400
C 	C 	0.22729 0.97729 0.75000 -0.06000
C 	C 	0.28253 0.03253 0.75000 0.34900
N 	N 	0.00306 0.18586 0.49388 -0.13800
N 	N 	0.00306 0.32026 0.49388 -0.13800
N 	N 	0.68586 0.50306 0.99388 -0.13700
N 	N 	0.82026 0.50306 0.99388 -0.13700
N 	N 	0.99694 0.81414 0.50612 -0.13800
N 	N 	0.99694 0.67974 0.50612 -0.13800
N 	N 	0.17974 0.49694 0.00612 -0.13700
N 	N 	0.31414 0.49694 0.00612 -0.13700
O 	O 	0.90814 0.04087 0.54096 -0.41400
O 	O 	0.90446 0.92106 0.54958 -0.40900
O 	O 	0.46505 0.07210 0.71346 -0.40700
O 	O 	0.05090 0.41817 0.54096 -0.41500
O 	O 	0.04596 0.52936 0.54958 -0.40900
O 	O 	0.32149 0.21444 0.71346 -0.40700
O 	O 	0.54087 0.55090 0.04096 -0.41500
O 	O 	0.42106 0.54596 0.04958 -0.40900
O 	O 	0.57210 0.82149 0.21346 -0.40700
O 	O 	0.91817 0.40814 0.04096 -0.41600
O 	O 	0.02936 0.40446 0.04958 -0.41000
O 	O 	0.71444 0.96505 0.21346 -0.40700
O 	O 	0.94910 0.95913 0.45904 -0.41700
O 	O 	0.95404 0.07894 0.45042 -0.40900
O 	O 	0.67851 0.92790 0.28654 -0.40700
O 	O 	0.09186 0.58183 0.45904 -0.41500
O 	O 	0.09554 0.47064 0.45042 -0.40900
O 	O 	0.53495 0.78556 0.28654 -0.40700
O 	O 	0.08183 0.44910 0.95904 -0.41500
O 	O 	0.97064 0.45404 0.95042 -0.40900
O 	O 	0.28556 0.17851 0.78654 -0.40700
O 	O 	0.45913 0.59186 0.95904 -0.41500
O 	O 	0.57894 0.59554 0.95042 -0.40900
O 	O 	0.42790 0.03495 0.78654 -0.40700
O 	O 	0.09186 0.95913 0.45904 -0.41400
O 	O 	0.09554 0.07894 0.45042 -0.40900
O 	O 	0.53495 0.92790 0.28654 -0.40700
O 	O 	0.94910 0.58183 0.45904 -0.41500
O 	O 	0.95404 0.47064 0.45042 -0.40900
O 	O 	0.67851 0.78556 0.28654 -0.40700
O 	O 	0.45913 0.44910 0.95904 -0.41500
O 	O 	0.57894 0.45404 0.95042 -0.40900
O 	O 	0.42790 0.17851 0.78654 -0.40700
O 	O 	0.08183 0.59186 0.95904 -0.41600
O 	O 	0.97064 0.59554 0.95042 -0.41000
O 	O 	0.28556 0.03495 0.78654 -0.40700
O 	O 	0.05090 0.04087 0.54096 -0.41700
O 	O 	0.04596 0.92106 0.54958 -0.40900
O 	O 	0.32149 0.07210 0.71346 -0.40700
O 	O 	0.90814 0.41817 0.54096 -0.41500
O 	O 	0.90446 0.52936 0.54958 -0.40900
O 	O 	0.46505 0.21444 0.71346 -0.40700
O 	O 	0.91817 0.55090 0.04096 -0.41500
O 	O 	0.02936 0.54596 0.04958 -0.40900
O 	O 	0.71444 0.82149 0.21346 -0.40700
O 	O 	0.54087 0.40814 0.04096 -0.41500
O 	O 	0.42106 0.40446 0.04958 -0.40900
O 	O 	0.57210 0.96505 0.21346 -0.40700
