data_crystal

_cell_length_a 5.95650
_cell_length_b 7.37160
_cell_length_c 13.17690
_cell_angle_alpha 102.92500
_cell_angle_beta  101.63700
_cell_angle_gamma 90.78500

_symmetry_space_group_name_	'P 1'
_symmetry_space_group_name_H-M	'P 1'

loop_
_symmetry_equiv_pos_as_xyz
  x,y,z

loop_
_atom_site_label
_atom_site_type_symbol
_atom_site_fract_x
_atom_site_fract_y
_atom_site_fract_z
_atom_site_charge
Er	Er	0.97961 0.18080 0.32099 1.77600
Er	Er	0.02035 0.81943 0.67895 1.77500
H 	H 	0.64720 0.04230 0.94270 0.04500
H 	H 	0.34850 0.10240 0.04280 0.03800
H 	H 	0.50610 0.68040 0.43430 0.04400
H 	H 	0.52830 0.72120 0.27000 0.04800
H 	H 	0.48830 0.24530 0.56650 0.04500
H 	H 	0.44940 0.40290 0.73320 0.04600
H 	H 	0.79640 0.78040 0.93430 0.22100
H 	H 	0.23010 0.89140 0.10410 0.22200
H 	H 	0.75970 0.99060 0.51280 0.26200
H 	H 	0.83360 0.79590 0.24390 0.24600
H 	H 	0.23400 0.48900 0.49210 0.26400
H 	H 	0.14410 0.50170 0.75290 0.24200
C 	C 	0.78800 0.05670 0.10270 0.27700
C 	C 	0.62880 0.96950 0.99640 0.01400
C 	C 	0.37900 0.97120 0.01080 0.03200
C 	C 	0.22000 0.91100 0.89940 0.29200
C 	C 	0.84240 0.61090 0.43170 0.41100
C 	C 	0.65160 0.74840 0.43310 0.00700
C 	C 	0.61590 0.82100 0.32990 -0.01300
C 	C 	0.48480 0.99510 0.33580 0.38400
C 	C 	0.15070 0.16610 0.56570 0.40300
C 	C 	0.34180 0.30970 0.56770 0.01500
C 	C 	0.37090 0.45720 0.67330 -0.01500
C 	C 	0.50890 0.62900 0.67140 0.39400
O 	O 	0.74330 0.21920 0.15160 -0.36100
O 	O 	0.95660 0.98020 0.14140 -0.38900
O 	O 	0.67560 0.78350 0.95960 -0.30800
O 	O 	0.35210 0.86270 0.08170 -0.31800
O 	O 	0.25120 0.01190 0.83610 -0.37700
O 	O 	0.07940 0.78420 0.87650 -0.37700
O 	O 	0.82170 0.47330 0.35550 -0.44000
O 	O 	0.01660 0.65270 0.50750 -0.45700
O 	O 	0.71210 0.89370 0.52890 -0.45800
O 	O 	0.83620 0.85660 0.30710 -0.44700
O 	O 	0.59270 0.14320 0.32940 -0.41300
O 	O 	0.28240 0.98900 0.34440 -0.44800
O 	O 	0.97540 0.14630 0.49160 -0.45100
O 	O 	0.17630 0.08310 0.64040 -0.42600
O 	O 	0.28360 0.38130 0.47460 -0.46000
O 	O 	0.14950 0.51340 0.69070 -0.46500
O 	O 	0.40510 0.77710 0.67290 -0.42900
O 	O 	0.71740 0.61540 0.66850 -0.45100
