data_crystal

_cell_length_a 6.10080
_cell_length_b 7.58020
_cell_length_c 28.04400
_cell_angle_alpha 90.00000
_cell_angle_beta  90.00000
_cell_angle_gamma 90.00000

_symmetry_space_group_name_	'P 1'
_symmetry_space_group_name_H-M	'P 1'

loop_
_symmetry_equiv_pos_as_xyz
  x,y,z

loop_
_atom_site_label
_atom_site_type_symbol
_atom_site_fract_x
_atom_site_fract_y
_atom_site_fract_z
_atom_site_charge
Pr	Pr	0.56822 0.90185 0.66889 2.07200
Pr	Pr	0.56822 0.09815 0.33111 2.07200
Pr	Pr	0.43178 0.59815 0.16889 2.07700
Pr	Pr	0.43178 0.40185 0.83111 2.07700
H 	H 	0.47160 0.53820 0.63570 0.23400
H 	H 	0.14590 0.46700 0.64520 0.03900
H 	H 	0.28510 0.62720 0.75110 0.25900
H 	H 	0.04590 0.37100 0.71900 0.05300
H 	H 	0.70330 0.84410 0.49990 0.10200
H 	H 	0.44120 0.84300 0.49920 0.10500
H 	H 	0.47160 0.46180 0.36430 0.23400
H 	H 	0.14590 0.53300 0.35480 0.03900
H 	H 	0.28510 0.37280 0.24890 0.25900
H 	H 	0.04590 0.62900 0.28100 0.05300
H 	H 	0.70330 0.15590 0.50010 0.10200
H 	H 	0.44120 0.15700 0.50080 0.10500
H 	H 	0.52840 0.96180 0.13570 0.24300
H 	H 	0.85410 0.03300 0.14520 0.01200
H 	H 	0.71490 0.87280 0.25110 0.25200
H 	H 	0.95410 0.12900 0.21900 0.06400
H 	H 	0.29670 0.65590 0.99990 0.10100
H 	H 	0.55880 0.65700 0.99920 0.10600
H 	H 	0.52840 0.03820 0.86430 0.24300
H 	H 	0.85410 0.96700 0.85480 0.01200
H 	H 	0.71490 0.12720 0.74890 0.25200
H 	H 	0.95410 0.87100 0.78100 0.06400
H 	H 	0.29670 0.34410 0.00010 0.10100
H 	H 	0.55880 0.34300 0.00080 0.10600
C 	C 	0.07170 0.71060 0.67520 0.35300
C 	C 	0.20500 0.54000 0.67200 -0.00400
C 	C 	0.19090 0.43250 0.71810 0.00100
C 	C 	0.37280 0.29320 0.71680 0.36100
C 	C 	0.56820 0.91000 0.56460 0.31700
C 	C 	0.57100 0.90810 0.51080 -0.20600
C 	C 	0.07170 0.28940 0.32480 0.35300
C 	C 	0.20500 0.46000 0.32800 -0.00400
C 	C 	0.19090 0.56750 0.28190 0.00100
C 	C 	0.37280 0.70680 0.28320 0.36100
C 	C 	0.56820 0.09000 0.43540 0.31700
C 	C 	0.57100 0.09190 0.48920 -0.20600
C 	C 	0.92830 0.78940 0.17520 0.34100
C 	C 	0.79500 0.96000 0.17200 0.05200
C 	C 	0.80910 0.06750 0.21810 -0.05200
C 	C 	0.62720 0.20680 0.21680 0.37300
C 	C 	0.43180 0.59000 0.06460 0.32900
C 	C 	0.42900 0.59190 0.01080 -0.20900
C 	C 	0.92830 0.21060 0.82480 0.34100
C 	C 	0.79500 0.04000 0.82800 0.05200
C 	C 	0.80910 0.93250 0.78190 -0.05200
C 	C 	0.62720 0.79320 0.78320 0.37300
C 	C 	0.43180 0.41000 0.93540 0.32900
C 	C 	0.42900 0.40810 0.98920 -0.20900
O 	O 	0.17240 0.85400 0.67160 -0.47100
O 	O 	0.86740 0.69530 0.68090 -0.45200
O 	O 	0.42680 0.58760 0.66111 -0.49700
O 	O 	0.21250 0.53700 0.75972 -0.50100
O 	O 	0.37450 0.18600 0.68284 -0.44700
O 	O 	0.50900 0.29400 0.75060 -0.47300
O 	O 	0.67870 0.79580 0.58620 -0.43800
O 	O 	0.45300 0.02250 0.58660 -0.41000
O 	O 	0.17240 0.14600 0.32840 -0.47100
O 	O 	0.86740 0.30470 0.31910 -0.45200
O 	O 	0.42680 0.41240 0.33889 -0.49700
O 	O 	0.21250 0.46300 0.24028 -0.50100
O 	O 	0.37450 0.81400 0.31716 -0.44700
O 	O 	0.50900 0.70600 0.24940 -0.47300
O 	O 	0.67870 0.20420 0.41380 -0.43800
O 	O 	0.45300 0.97750 0.41340 -0.41000
O 	O 	0.82760 0.64600 0.17160 -0.46000
O 	O 	0.13260 0.80470 0.18090 -0.44400
O 	O 	0.57320 0.91240 0.16111 -0.50700
O 	O 	0.78750 0.96300 0.25972 -0.47000
O 	O 	0.62550 0.31400 0.18284 -0.45800
O 	O 	0.49100 0.20600 0.25060 -0.48400
O 	O 	0.32130 0.70420 0.08620 -0.44000
O 	O 	0.54700 0.47750 0.08660 -0.42300
O 	O 	0.82760 0.35400 0.82840 -0.46000
O 	O 	0.13260 0.19530 0.81910 -0.44400
O 	O 	0.57320 0.08760 0.83889 -0.50700
O 	O 	0.78750 0.03700 0.74028 -0.47000
O 	O 	0.62550 0.68600 0.81716 -0.45800
O 	O 	0.49100 0.79400 0.74940 -0.48400
O 	O 	0.32130 0.29580 0.91380 -0.44000
O 	O 	0.54700 0.52250 0.91340 -0.42300
