data_crystal

_cell_length_a 9.01640
_cell_length_b 9.01640
_cell_length_c 17.07800
_cell_angle_alpha 90.00000
_cell_angle_beta  90.00000
_cell_angle_gamma 117.03100

_symmetry_space_group_name_	'P 1'
_symmetry_space_group_name_H-M	'P 1'

loop_
_symmetry_equiv_pos_as_xyz
  x,y,z

loop_
_atom_site_label
_atom_site_type_symbol
_atom_site_fract_x
_atom_site_fract_y
_atom_site_fract_z
_atom_site_charge
Gd	Gd	-0.00000 0.00000 -0.00000 1.19600
Gd	Gd	0.00000 0.00000 0.50000 1.31000
Gd	Gd	0.34991 0.65509 0.25000 1.63800
Gd	Gd	0.65509 0.34991 0.75000 1.64000
H 	H 	0.56200 0.96520 0.08430 0.14500
H 	H 	0.50230 0.81930 0.02330 0.11000
H 	H 	0.58340 0.98120 0.91000 0.25900
H 	H 	0.62460 0.13940 0.96180 0.18100
H 	H 	0.39390 0.40170 0.08650 0.08100
H 	H 	0.31600 0.48880 0.03250 0.06900
H 	H 	0.96520 0.56200 0.91570 0.17200
H 	H 	0.81930 0.50230 0.97670 0.15600
H 	H 	0.98120 0.58340 0.09000 0.25700
H 	H 	0.13940 0.62460 0.03820 0.18400
H 	H 	0.40170 0.39390 0.91350 0.08800
H 	H 	0.48880 0.31600 0.96750 0.08300
H 	H 	0.96520 0.56200 0.58430 0.15300
H 	H 	0.81930 0.50230 0.52330 0.12700
H 	H 	0.98120 0.58340 0.41000 0.24400
H 	H 	0.13940 0.62460 0.46180 0.17400
H 	H 	0.40170 0.39390 0.58650 0.10100
H 	H 	0.48880 0.31600 0.53250 0.08900
H 	H 	0.56200 0.96520 0.41570 0.16100
H 	H 	0.50230 0.81930 0.47670 0.13400
H 	H 	0.58340 0.98120 0.59000 0.27700
H 	H 	0.62460 0.13940 0.53820 0.19000
H 	H 	0.39390 0.40170 0.41350 0.09800
H 	H 	0.31600 0.48880 0.46750 0.09200
C 	C 	0.65350 0.80250 0.10590 0.47200
C 	C 	0.59720 0.89680 0.05320 -0.31400
C 	C 	0.66940 0.06860 0.94020 -0.51200
C 	C 	0.81500 0.16900 0.88940 0.51300
C 	C 	0.15150 0.33650 0.11420 0.42700
C 	C 	0.29500 0.38500 0.05770 -0.21000
C 	C 	0.80250 0.65350 0.89410 0.49400
C 	C 	0.89680 0.59720 0.94680 -0.36600
C 	C 	0.06860 0.66940 0.05980 -0.61300
C 	C 	0.16900 0.81500 0.11060 0.53500
C 	C 	0.33650 0.15150 0.88580 0.42100
C 	C 	0.38500 0.29500 0.94230 -0.15900
C 	C 	0.80250 0.65350 0.60590 0.48100
C 	C 	0.89680 0.59720 0.55320 -0.32900
C 	C 	0.06860 0.66940 0.44020 -0.53300
C 	C 	0.16900 0.81500 0.38940 0.51800
C 	C 	0.33650 0.15150 0.61420 0.44300
C 	C 	0.38500 0.29500 0.55770 -0.24300
C 	C 	0.65350 0.80250 0.39410 0.48800
C 	C 	0.59720 0.89680 0.44680 -0.34700
C 	C 	0.66940 0.06860 0.55980 -0.60400
C 	C 	0.81500 0.16900 0.61060 0.53800
C 	C 	0.15150 0.33650 0.38580 0.44300
C 	C 	0.29500 0.38500 0.44230 -0.24300
O 	O 	0.80080 0.82700 0.09620 -0.34800
O 	O 	0.55580 0.70740 0.15640 -0.47500
O 	O 	0.72390 0.99910 0.00150 -0.05900
O 	O 	0.79370 0.24830 0.83510 -0.47000
O 	O 	0.95710 0.17690 0.90420 -0.33600
O 	O 	0.02440 0.20320 0.09790 -0.43600
O 	O 	0.17100 0.43700 0.16740 -0.47000
O 	O 	0.82700 0.80080 0.90380 -0.32500
O 	O 	0.70740 0.55580 0.84360 -0.47500
O 	O 	0.99910 0.72390 0.99850 0.03900
O 	O 	0.24830 0.79370 0.16490 -0.47600
O 	O 	0.17690 0.95710 0.09580 -0.36300
O 	O 	0.20320 0.02440 0.90210 -0.40800
O 	O 	0.43700 0.17100 0.83260 -0.46500
O 	O 	0.82700 0.80080 0.59620 -0.34700
O 	O 	0.70740 0.55580 0.65640 -0.47400
O 	O 	0.99910 0.72390 0.50150 -0.03300
O 	O 	0.24830 0.79370 0.33510 -0.47000
O 	O 	0.17690 0.95710 0.40420 -0.35800
O 	O 	0.20320 0.02440 0.59790 -0.44400
O 	O 	0.43700 0.17100 0.66740 -0.47400
O 	O 	0.80080 0.82700 0.40380 -0.35200
O 	O 	0.55580 0.70740 0.34360 -0.47800
O 	O 	0.72390 0.99910 0.49850 -0.00800
O 	O 	0.79370 0.24830 0.66490 -0.47900
O 	O 	0.95710 0.17690 0.59580 -0.37500
O 	O 	0.02440 0.20320 0.40210 -0.44400
O 	O 	0.17100 0.43700 0.33260 -0.47300
O 	O 	0.26200 0.26200 -0.00000 -0.24300
O 	O 	0.26200 0.26200 0.50000 -0.19000
