data_crystal

_cell_length_a 9.04620
_cell_length_b 9.04620
_cell_length_c 16.98600
_cell_angle_alpha 90.00000
_cell_angle_beta  90.00000
_cell_angle_gamma 116.36900

_symmetry_space_group_name_	'P 1'
_symmetry_space_group_name_H-M	'P 1'

loop_
_symmetry_equiv_pos_as_xyz
  x,y,z

loop_
_atom_site_label
_atom_site_type_symbol
_atom_site_fract_x
_atom_site_fract_y
_atom_site_fract_z
_atom_site_charge
Eu	Eu	0.99999 0.99999 -0.00000 1.44900
Eu	Eu	0.99999 0.99999 0.50000 1.62100
Eu	Eu	0.35564 0.65262 0.25000 1.97900
Eu	Eu	0.65262 0.35564 0.75000 1.98500
H 	H 	0.54610 0.94690 0.07980 0.02900
H 	H 	0.50570 0.80570 0.01730 0.04500
H 	H 	0.58760 0.97840 0.90740 -0.07000
H 	H 	0.61730 0.13070 0.96110 0.00600
H 	H 	0.39450 0.39750 0.08800 0.07700
H 	H 	0.32410 0.49050 0.03280 0.07100
H 	H 	0.94690 0.54610 0.92020 0.06600
H 	H 	0.80570 0.50570 0.98270 0.10600
H 	H 	0.97840 0.58760 0.09260 -0.08200
H 	H 	0.13070 0.61730 0.03890 0.00700
H 	H 	0.39750 0.39450 0.91200 0.08700
H 	H 	0.49050 0.32410 0.96720 0.09000
H 	H 	0.94690 0.54610 0.57980 0.04000
H 	H 	0.80570 0.50570 0.51730 0.06700
H 	H 	0.97840 0.58760 0.40740 -0.10000
H 	H 	0.13070 0.61730 0.46110 -0.00800
H 	H 	0.39750 0.39450 0.58800 0.09900
H 	H 	0.49050 0.32410 0.53280 0.09600
H 	H 	0.54610 0.94690 0.42020 0.04900
H 	H 	0.50570 0.80570 0.48270 0.07600
H 	H 	0.58760 0.97840 0.59260 -0.05900
H 	H 	0.61730 0.13070 0.53890 0.01200
H 	H 	0.39450 0.39750 0.41200 0.09600
H 	H 	0.32410 0.49050 0.46720 0.09800
C 	C 	0.65890 0.80070 0.10420 0.42300
C 	C 	0.59230 0.88610 0.04980 -0.13800
C 	C 	0.66860 0.06540 0.93950 0.22500
C 	C 	0.81450 0.17290 0.88970 0.37400
C 	C 	0.15370 0.34110 0.11280 0.43300
C 	C 	0.29860 0.38580 0.05810 -0.19100
C 	C 	0.80070 0.65890 0.89580 0.45300
C 	C 	0.88610 0.59230 0.95020 -0.20300
C 	C 	0.06540 0.66860 0.06050 0.10800
C 	C 	0.17290 0.81450 0.11030 0.39900
C 	C 	0.34110 0.15370 0.88720 0.43000
C 	C 	0.38580 0.29860 0.94190 -0.13100
C 	C 	0.80070 0.65890 0.60420 0.43600
C 	C 	0.88610 0.59230 0.54980 -0.15400
C 	C 	0.06540 0.66860 0.43950 0.21600
C 	C 	0.17290 0.81450 0.38970 0.37700
C 	C 	0.34110 0.15370 0.61280 0.45300
C 	C 	0.38580 0.29860 0.55810 -0.22500
C 	C 	0.65890 0.80070 0.39580 0.44400
C 	C 	0.59230 0.88610 0.45020 -0.17500
C 	C 	0.66860 0.06540 0.56050 0.12900
C 	C 	0.81450 0.17290 0.61030 0.40100
C 	C 	0.15370 0.34110 0.38720 0.45300
C 	C 	0.29860 0.38580 0.44190 -0.22500
O 	O 	0.80670 0.83090 0.09900 -0.45900
O 	O 	0.55840 0.70380 0.15440 -0.53200
O 	O 	0.72250 0.99550 0.00170 -0.41700
O 	O 	0.78690 0.24850 0.83590 -0.47900
O 	O 	0.95190 0.17510 0.90480 -0.36500
O 	O 	0.02710 0.20410 0.09920 -0.28500
O 	O 	0.16590 0.43670 0.16610 -0.45000
O 	O 	0.83090 0.80670 0.90100 -0.42700
O 	O 	0.70380 0.55840 0.84560 -0.53100
O 	O 	0.99550 0.72250 0.99830 -0.28600
O 	O 	0.24850 0.78690 0.16410 -0.48600
O 	O 	0.17510 0.95190 0.09520 -0.40200
O 	O 	0.20410 0.02710 0.90080 -0.25800
O 	O 	0.43670 0.16590 0.83390 -0.44700
O 	O 	0.83090 0.80670 0.59900 -0.46000
O 	O 	0.70380 0.55840 0.65440 -0.53100
O 	O 	0.99550 0.72250 0.50170 -0.38800
O 	O 	0.24850 0.78690 0.33590 -0.47800
O 	O 	0.17510 0.95190 0.40480 -0.39700
O 	O 	0.20410 0.02710 0.59920 -0.30000
O 	O 	0.43670 0.16590 0.66610 -0.45700
O 	O 	0.80670 0.83090 0.40100 -0.46700
O 	O 	0.55840 0.70380 0.34560 -0.53500
O 	O 	0.72250 0.99550 0.49830 -0.35700
O 	O 	0.78690 0.24850 0.66410 -0.49000
O 	O 	0.95190 0.17510 0.59520 -0.41700
O 	O 	0.02710 0.20410 0.40080 -0.29800
O 	O 	0.16590 0.43670 0.33390 -0.45400
O 	O 	0.26030 0.26030 -0.00000 -0.22400
O 	O 	0.26030 0.26030 0.50000 -0.16700
