data_crystal

_cell_length_a 14.66070
_cell_length_b 17.00940
_cell_length_c 9.20690
_cell_angle_alpha 90.00000
_cell_angle_beta  100.89200
_cell_angle_gamma 90.00000

_symmetry_space_group_name_	'P 1'
_symmetry_space_group_name_H-M	'P 1'

loop_
_symmetry_equiv_pos_as_xyz
  x,y,z

loop_
_atom_site_label
_atom_site_type_symbol
_atom_site_fract_x
_atom_site_fract_y
_atom_site_fract_z
_atom_site_charge
Zn	Zn	0.58810 0.50700 0.66211 0.57300
O 	O 	0.34060 0.58960 0.24480 -0.51200
O 	O 	0.41720 0.59010 0.06060 -0.51700
C 	C 	0.35700 0.61640 0.12560 0.47400
C 	C 	0.30220 0.68570 0.06200 -0.30800
C 	C 	0.31720 0.72060 0.93510 0.23200
H 	H 	0.36490 0.70230 0.89040 -0.02800
C 	C 	0.23620 0.71830 0.12740 0.19000
H 	H 	0.22700 0.69840 0.21760 -0.03000
Zn	Zn	0.08810 0.00700 0.66211 0.59800
O 	O 	0.84060 0.08960 0.24480 -0.50000
O 	O 	0.91720 0.09010 0.06060 -0.48600
C 	C 	0.85700 0.11640 0.12560 0.46700
C 	C 	0.80220 0.18570 0.06200 -0.28800
C 	C 	0.81720 0.22060 0.93510 0.22000
H 	H 	0.86490 0.20230 0.89040 -0.01300
C 	C 	0.73620 0.21830 0.12740 0.18300
H 	H 	0.72700 0.19840 0.21760 -0.02000
Zn	Zn	0.41190 0.50700 0.33789 0.57300
O 	O 	0.65940 0.58960 0.75520 -0.46800
O 	O 	0.58280 0.59010 0.93940 -0.43600
C 	C 	0.64300 0.61640 0.87440 0.34000
C 	C 	0.69780 0.68570 0.93800 0.09000
C 	C 	0.68280 0.72060 0.06490 -0.23200
H 	H 	0.63510 0.70230 0.10960 0.11100
C 	C 	0.76380 0.71830 0.87260 -0.18900
H 	H 	0.77300 0.69840 0.78240 0.11500
Zn	Zn	0.91190 0.00700 0.33789 0.59700
O 	O 	0.15940 0.08960 0.75520 -0.48000
O 	O 	0.08280 0.09010 0.93940 -0.45600
C 	C 	0.14300 0.11640 0.87440 0.33200
C 	C 	0.19780 0.18570 0.93800 0.10500
C 	C 	0.18280 0.22060 0.06490 -0.26300
H 	H 	0.13510 0.20230 0.10960 0.10800
C 	C 	0.26380 0.21830 0.87260 -0.21800
H 	H 	0.27300 0.19840 0.78240 0.11700
Zn	Zn	0.41190 0.49300 0.33789 0.57300
O 	O 	0.65940 0.41040 0.75520 -0.46700
O 	O 	0.58280 0.40990 0.93940 -0.43500
C 	C 	0.64300 0.38360 0.87440 0.33600
C 	C 	0.69780 0.31430 0.93800 0.09800
C 	C 	0.68280 0.27940 0.06490 -0.24300
H 	H 	0.63510 0.29770 0.10960 0.11400
C 	C 	0.76380 0.28170 0.87260 -0.19800
H 	H 	0.77300 0.30160 0.78240 0.11800
Zn	Zn	0.91190 0.99300 0.33789 0.56000
O 	O 	0.15940 0.91040 0.75520 -0.47200
O 	O 	0.08280 0.90990 0.93940 -0.45100
C 	C 	0.14300 0.88360 0.87440 0.33300
C 	C 	0.19780 0.81430 0.93800 0.10000
C 	C 	0.18280 0.77940 0.06490 -0.25500
H 	H 	0.13510 0.79770 0.10960 0.10800
C 	C 	0.26380 0.78170 0.87260 -0.21200
H 	H 	0.27300 0.80160 0.78240 0.11600
Zn	Zn	0.58810 0.49300 0.66211 0.57300
O 	O 	0.34060 0.41040 0.24480 -0.51300
O 	O 	0.41720 0.40990 0.06060 -0.51900
C 	C 	0.35700 0.38360 0.12560 0.47600
C 	C 	0.30220 0.31430 0.06200 -0.31400
C 	C 	0.31720 0.27940 0.93510 0.23900
H 	H 	0.36490 0.29770 0.89040 -0.03000
C 	C 	0.23620 0.28170 0.12740 0.19600
H 	H 	0.22700 0.30160 0.21760 -0.03300
Zn	Zn	0.08810 0.99300 0.66211 0.53800
O 	O 	0.84060 0.91040 0.24480 -0.49400
O 	O 	0.91720 0.90990 0.06060 -0.48100
C 	C 	0.85700 0.88360 0.12560 0.46300
C 	C 	0.80220 0.81430 0.06200 -0.27700
C 	C 	0.81720 0.77940 0.93510 0.20900
H 	H 	0.86490 0.79770 0.89040 -0.00900
C 	C 	0.73620 0.78170 0.12740 0.17400
H 	H 	0.72700 0.80160 0.21760 -0.01600
Zn	Zn	0.50000 0.50000 -0.00000 1.21000
Zn	Zn	-0.00000 0.00000 -0.00000 1.18500
N 	N 	0.45160 0.50000 0.66800 -0.21000
N 	N 	0.41530 0.50000 0.78680 -0.19000
N 	N 	0.38920 0.50000 0.54500 -0.24500
C 	C 	0.32250 0.50000 0.73950 0.07600
C 	C 	0.30470 0.50000 0.58560 0.06600
C 	C 	0.24660 0.50000 0.81650 -0.10200
H 	H 	0.25590 0.50000 0.91920 0.08000
C 	C 	0.16340 0.50000 0.73500 -0.01800
H 	H 	0.11300 0.50000 0.78250 0.03000
C 	C 	0.21780 0.50000 0.50200 -0.11800
H 	H 	0.20810 0.50000 0.39920 0.05900
C 	C 	0.14480 0.50000 0.57700 -0.01900
H 	H 	0.08390 0.50000 0.52470 0.01400
N 	N 	0.95160 0.00000 0.66800 -0.18800
N 	N 	0.91530 0.00000 0.78680 -0.17600
N 	N 	0.88920 0.00000 0.54500 -0.23700
C 	C 	0.82250 0.00000 0.73950 0.07700
C 	C 	0.80470 -0.00000 0.58560 0.06900
C 	C 	0.74660 0.00000 0.81650 -0.09800
H 	H 	0.75590 0.00000 0.91920 0.08000
C 	C 	0.66340 0.00000 0.73500 -0.01400
H 	H 	0.61300 0.00000 0.78250 0.04200
C 	C 	0.71780 0.00000 0.50200 -0.11300
H 	H 	0.70810 0.00000 0.39920 0.06400
C 	C 	0.64480 0.00000 0.57700 -0.01600
H 	H 	0.58390 -0.00000 0.52470 0.03300
N 	N 	0.54840 0.50000 0.33200 -0.21100
N 	N 	0.58470 0.50000 0.21320 -0.20400
N 	N 	0.61080 0.50000 0.45500 -0.24700
C 	C 	0.67750 0.50000 0.26050 0.05800
C 	C 	0.69530 0.50000 0.41440 0.07200
C 	C 	0.75340 0.50000 0.18350 -0.09300
H 	H 	0.74410 0.50000 0.08080 0.05000
C 	C 	0.83660 0.50000 0.26500 -0.02200
H 	H 	0.88700 0.50000 0.21750 0.04600
C 	C 	0.78220 0.50000 0.49800 -0.11800
H 	H 	0.79190 0.50000 0.60080 0.07400
C 	C 	0.85520 0.50000 0.42300 -0.00800
H 	H 	0.91610 0.50000 0.47530 0.05000
N 	N 	0.04840 0.00000 0.33200 -0.23600
N 	N 	0.08470 0.00000 0.21320 -0.21600
N 	N 	0.11080 0.00000 0.45500 -0.25700
C 	C 	0.17750 0.00000 0.26050 0.05300
C 	C 	0.19530 0.00000 0.41440 0.06800
C 	C 	0.25340 -0.00000 0.18350 -0.09700
H 	H 	0.24410 0.00000 0.08080 0.04500
C 	C 	0.33660 0.00000 0.26500 -0.02700
H 	H 	0.38700 -0.00000 0.21750 0.03100
C 	C 	0.28220 -0.00000 0.49800 -0.12500
H 	H 	0.29190 0.00000 0.60080 0.06800
C 	C 	0.35520 0.00000 0.42300 -0.01200
H 	H 	0.41610 -0.00000 0.47530 0.03100
