data_crystal

_cell_length_a 6.84340
_cell_length_b 19.01400
_cell_length_c 9.42030
_cell_angle_alpha 90.00000
_cell_angle_beta  90.00000
_cell_angle_gamma 90.00000

_symmetry_space_group_name_	'P 1'
_symmetry_space_group_name_H-M	'P 1'

loop_
_symmetry_equiv_pos_as_xyz
  x,y,z

loop_
_atom_site_label
_atom_site_type_symbol
_atom_site_fract_x
_atom_site_fract_y
_atom_site_fract_z
_atom_site_charge
Ba	Ba	0.75000 0.75000 0.47182 1.58000
Ba	Ba	0.25000 0.25000 0.02818 1.23400
Ba	Ba	0.25000 0.25000 0.52818 1.54900
Ba	Ba	0.75000 0.75000 0.97182 1.85800
Zn	Zn	-0.00000 0.50000 -0.00000 1.17800
Zn	Zn	0.50000 0.00000 -0.00000 1.17100
Zn	Zn	0.50000 0.50000 0.50000 1.24600
Zn	Zn	-0.00000 -0.00000 0.50000 1.18300
H 	H 	0.43600 0.57050 0.83570 0.24700
H 	H 	0.64400 0.58450 0.89700 0.24300
H 	H 	0.06400 0.92950 0.83570 0.10400
H 	H 	0.85600 0.91550 0.89700 0.15600
H 	H 	0.93600 0.42950 0.66430 0.34900
H 	H 	0.14400 0.41550 0.60300 0.25600
H 	H 	0.56400 0.07050 0.66430 0.26900
H 	H 	0.35600 0.08450 0.60300 0.24000
H 	H 	0.56400 0.42950 0.16430 0.21800
H 	H 	0.35600 0.41550 0.10300 0.18200
H 	H 	0.93600 0.07050 0.16430 0.37600
H 	H 	0.14400 0.08450 0.10300 0.27200
H 	H 	0.06400 0.57050 0.33570 0.10400
H 	H 	0.85600 0.58450 0.39700 0.15800
H 	H 	0.43600 0.92950 0.33570 0.18900
H 	H 	0.64400 0.91550 0.39700 0.17800
C 	C 	0.62240 0.48937 0.80070 0.54200
C 	C 	0.57440 0.56678 0.81470 -0.75600
C 	C 	0.61750 0.61561 0.69210 0.58600
C 	C 	0.87760 0.01063 0.80070 0.34700
C 	C 	0.92560 0.93322 0.81470 -0.38300
C 	C 	0.88250 0.88439 0.69210 0.48200
C 	C 	0.12240 0.51063 0.69930 0.57700
C 	C 	0.07440 0.43322 0.68530 -0.93500
C 	C 	0.11750 0.38439 0.80790 0.60400
C 	C 	0.37760 0.98937 0.69930 0.66100
C 	C 	0.42560 0.06678 0.68530 -0.89500
C 	C 	0.38250 0.11561 0.80790 0.59000
C 	C 	0.37760 0.51063 0.19930 0.52600
C 	C 	0.42560 0.43322 0.18530 -0.73200
C 	C 	0.38250 0.38439 0.30790 0.55100
C 	C 	0.12240 0.98937 0.19930 0.73100
C 	C 	0.07440 0.06678 0.18530 -1.13500
C 	C 	0.11750 0.11561 0.30790 0.65900
C 	C 	0.87760 0.48937 0.30070 0.48100
C 	C 	0.92560 0.56678 0.31470 -0.52600
C 	C 	0.88250 0.61561 0.19210 0.52200
C 	C 	0.62240 0.01063 0.30070 0.39200
C 	C 	0.57440 0.93322 0.31470 -0.56600
C 	C 	0.61750 0.88439 0.19210 0.53600
O 	O 	0.70920 0.45989 0.90150 -0.38600
O 	O 	0.56580 0.45563 0.69080 -0.49600
O 	O 	0.61380 0.59384 0.56440 -0.58400
O 	O 	0.65460 0.67803 0.72260 -0.66400
O 	O 	0.79080 0.04011 0.90150 -0.37300
O 	O 	0.93420 0.04437 0.69080 -0.44000
O 	O 	0.88620 0.90616 0.56440 -0.49600
O 	O 	0.84540 0.82197 0.72260 -0.61900
O 	O 	0.20920 0.54011 0.59850 -0.49900
O 	O 	0.06580 0.54437 0.80920 -0.52800
O 	O 	0.11380 0.40616 0.93560 -0.52200
O 	O 	0.15460 0.32197 0.77740 -0.61000
O 	O 	0.29080 0.95989 0.59850 -0.47700
O 	O 	0.43420 0.95563 0.80920 -0.47400
O 	O 	0.38620 0.09384 0.93560 -0.52300
O 	O 	0.34540 0.17803 0.77740 -0.59300
O 	O 	0.29080 0.54011 0.09850 -0.53600
O 	O 	0.43420 0.54437 0.30920 -0.52600
O 	O 	0.38620 0.40616 0.43560 -0.57900
O 	O 	0.34540 0.32197 0.27740 -0.62100
O 	O 	0.20920 0.95989 0.09850 -0.54500
O 	O 	0.06580 0.95563 0.30920 -0.56400
O 	O 	0.11380 0.09384 0.43560 -0.65000
O 	O 	0.15460 0.17803 0.27740 -0.67000
O 	O 	0.79080 0.45989 0.40150 -0.43400
O 	O 	0.93420 0.45563 0.19080 -0.46700
O 	O 	0.88620 0.59384 0.06440 -0.60700
O 	O 	0.84540 0.67803 0.22260 -0.66700
O 	O 	0.70920 0.04011 0.40150 -0.43900
O 	O 	0.56580 0.04437 0.19080 -0.52500
O 	O 	0.61380 0.90616 0.06440 -0.60100
O 	O 	0.65460 0.82197 0.22260 -0.68400
