data_crystal

_cell_length_a 13.01600
_cell_length_b 11.29100
_cell_length_c 15.75430
_cell_angle_alpha 90.00000
_cell_angle_beta  105.03900
_cell_angle_gamma 90.00000

_symmetry_space_group_name_	'P 1'
_symmetry_space_group_name_H-M	'P 1'

loop_
_symmetry_equiv_pos_as_xyz
  x,y,z

loop_
_atom_site_label
_atom_site_type_symbol
_atom_site_fract_x
_atom_site_fract_y
_atom_site_fract_z
_atom_site_charge
Cd	Cd	0.69790 0.17712 0.67436 1.23700
O 	O 	0.63720 0.15110 0.79960 -0.33700
O 	O 	0.64080 0.37560 0.67060 -0.32600
O 	O 	0.83670 0.47340 0.85390 -0.34900
O 	O 	0.63290 0.18850 0.51640 -0.38600
O 	O 	0.83580 0.23500 0.60470 -0.35900
O 	O 	0.81990 0.29890 0.78590 -0.33300
O 	O 	0.65450 0.54840 0.74160 -0.34200
O 	O 	0.49850 0.14970 0.63840 -0.35400
C 	C 	0.53980 0.15140 0.79670 0.22500
C 	C 	0.68560 0.44630 0.72970 0.23800
C 	C 	0.79090 0.40210 0.79560 0.24600
C 	C 	0.69130 0.23660 0.47420 0.25200
Cd	Cd	0.19790 0.67712 0.67436 1.23300
O 	O 	0.13720 0.65110 0.79960 -0.32300
O 	O 	0.14080 0.87560 0.67060 -0.36600
O 	O 	0.33670 0.97340 0.85390 -0.35100
O 	O 	0.13290 0.68850 0.51640 -0.40700
O 	O 	0.33580 0.73500 0.60470 -0.38200
O 	O 	0.31990 0.79890 0.78590 -0.35200
O 	O 	0.15450 0.04840 0.74160 -0.42500
O 	O 	0.99850 0.64970 0.63840 -0.28800
C 	C 	0.03980 0.65140 0.79670 0.12600
C 	C 	0.18560 0.94630 0.72970 0.30500
C 	C 	0.29090 0.90210 0.79560 0.23000
C 	C 	0.19130 0.73660 0.47420 0.25400
Cd	Cd	0.30210 0.17712 0.82564 1.23700
O 	O 	0.36280 0.15110 0.70040 -0.35000
O 	O 	0.35920 0.37560 0.82940 -0.32000
O 	O 	0.16330 0.47340 0.64610 -0.42100
O 	O 	0.36710 0.18850 0.98360 -0.32800
O 	O 	0.16420 0.23500 0.89530 -0.43200
O 	O 	0.18010 0.29890 0.71410 -0.38500
O 	O 	0.34550 0.54840 0.75840 -0.34200
O 	O 	0.50150 0.14970 0.86160 -0.34200
C 	C 	0.46020 0.15140 0.70330 0.22800
C 	C 	0.31440 0.44630 0.77030 0.22700
C 	C 	0.20910 0.40210 0.70440 0.25300
C 	C 	0.30870 0.23660 0.02580 0.13700
Cd	Cd	0.80210 0.67712 0.82564 1.25300
O 	O 	0.86280 0.65110 0.70040 -0.33400
O 	O 	0.85920 0.87560 0.82940 -0.29100
O 	O 	0.66330 0.97340 0.64610 -0.35500
O 	O 	0.86710 0.68850 0.98360 -0.27800
O 	O 	0.66420 0.73500 0.89530 -0.39900
O 	O 	0.68010 0.79890 0.71410 -0.35200
O 	O 	0.84550 0.04840 0.75840 -0.36500
O 	O 	0.00150 0.64970 0.86160 -0.37100
C 	C 	0.96020 0.65140 0.70330 0.33800
C 	C 	0.81440 0.94630 0.77030 0.29800
C 	C 	0.70910 0.90210 0.70440 0.24300
C 	C 	0.80870 0.73660 0.02580 0.14800
Cd	Cd	0.30210 0.82288 0.32564 1.24600
O 	O 	0.36280 0.84890 0.20040 -0.33000
O 	O 	0.35920 0.62440 0.32940 -0.32700
O 	O 	0.16330 0.52660 0.14610 -0.42500
O 	O 	0.36710 0.81150 0.48360 -0.36300
O 	O 	0.16420 0.76500 0.39530 -0.40400
O 	O 	0.18010 0.70110 0.21410 -0.38600
O 	O 	0.34550 0.45160 0.25840 -0.34800
O 	O 	0.50150 0.85030 0.36160 -0.32500
C 	C 	0.46020 0.84860 0.20330 0.23600
C 	C 	0.31440 0.55370 0.27030 0.22700
C 	C 	0.20910 0.59790 0.20440 0.25100
C 	C 	0.30870 0.76340 0.52580 0.24200
Cd	Cd	0.80210 0.32288 0.32564 1.25100
O 	O 	0.86280 0.34890 0.20040 -0.34300
O 	O 	0.85920 0.12440 0.32940 -0.28400
O 	O 	0.66330 0.02660 0.14610 -0.42900
O 	O 	0.86710 0.31150 0.48360 -0.33600
O 	O 	0.66420 0.26500 0.39530 -0.39000
O 	O 	0.68010 0.20110 0.21410 -0.37500
O 	O 	0.84550 0.95160 0.25840 -0.25600
O 	O 	0.00150 0.35030 0.36160 -0.38600
C 	C 	0.96020 0.34860 0.20330 0.33600
C 	C 	0.81440 0.05370 0.27030 0.15500
C 	C 	0.70910 0.09790 0.20440 0.27100
C 	C 	0.80870 0.26340 0.52580 0.23700
Cd	Cd	0.69790 0.82288 0.17436 1.24800
O 	O 	0.63720 0.84890 0.29960 -0.31700
O 	O 	0.64080 0.62440 0.17060 -0.33200
O 	O 	0.83670 0.52660 0.35390 -0.35400
O 	O 	0.63290 0.81150 0.01640 -0.41500
O 	O 	0.83580 0.76500 0.10470 -0.33100
O 	O 	0.81990 0.70110 0.28590 -0.33400
O 	O 	0.65450 0.45160 0.24160 -0.34800
O 	O 	0.49850 0.85030 0.13840 -0.33400
C 	C 	0.53980 0.84860 0.29670 0.23300
C 	C 	0.68560 0.55370 0.22970 0.23700
C 	C 	0.79090 0.59790 0.29560 0.24500
C 	C 	0.69130 0.76340 0.97420 0.35000
Cd	Cd	0.19790 0.32288 0.17436 1.23100
O 	O 	0.13720 0.34890 0.29960 -0.33200
O 	O 	0.14080 0.12440 0.17060 -0.36000
O 	O 	0.33670 0.02660 0.35390 -0.42700
O 	O 	0.13290 0.31150 0.01640 -0.46700
O 	O 	0.33580 0.26500 0.10470 -0.37100
O 	O 	0.31990 0.20110 0.28590 -0.37500
O 	O 	0.15450 0.95160 0.24160 -0.31600
O 	O 	0.99850 0.35030 0.13840 -0.30000
C 	C 	0.03980 0.34860 0.29670 0.12300
C 	C 	0.18560 0.05370 0.22970 0.16200
C 	C 	0.29090 0.09790 0.29560 0.25800
C 	C 	0.19130 0.26340 0.97420 0.35100
K 	K 	0.50000 0.00000 0.50000 0.65300
K 	K 	0.00000 0.50000 0.50000 0.63700
K 	K 	0.50000 0.00000 -0.00000 0.64400
K 	K 	-0.00000 0.50000 -0.00000 0.62900
K 	K 	0.00000 0.21197 0.75000 0.63700
K 	K 	0.50000 0.71197 0.75000 0.66800
K 	K 	-0.00000 0.78803 0.25000 0.63700
K 	K 	0.50000 0.28803 0.25000 0.66200
