data_crystal

_cell_length_a 19.34740
_cell_length_b 19.34740
_cell_length_c 3.50130
_cell_angle_alpha 90.00000
_cell_angle_beta  90.00000
_cell_angle_gamma 90.00000

_symmetry_space_group_name_	'P 1'
_symmetry_space_group_name_H-M	'P 1'

loop_
_symmetry_equiv_pos_as_xyz
  x,y,z

loop_
_atom_site_label
_atom_site_type_symbol
_atom_site_fract_x
_atom_site_fract_y
_atom_site_fract_z
_atom_site_charge
Ag	Ag	0.54448 0.37694 0.00510 0.43700
N 	N 	0.75130 0.38160 0.45200 -0.36600
N 	N 	0.64140 0.39440 0.22500 -0.28800
N 	N 	0.67470 0.45850 0.20700 -0.29000
C 	C 	0.68860 0.35270 0.37200 0.45400
C 	C 	0.73510 0.44570 0.36800 0.49500
H 	H 	0.76570 0.48150 0.42190 -0.69000
N 	N 	0.67800 0.28300 0.41000 0.56500
H 	H 	0.63980 0.26450 0.34030 -0.12000
H 	H 	0.71010 0.25720 0.50850 -0.11600
N 	N 	0.78000 0.50000 0.39900 0.59700
H 	H 	0.82140 0.49260 0.47750 -0.11300
H 	H 	0.76660 0.54060 0.34040 -0.14200
H 	H 	0.67960 0.30620 0.41770 -0.65600
Ag	Ag	0.45552 0.62306 0.00510 0.43800
N 	N 	0.24870 0.61840 0.45200 -0.36700
N 	N 	0.35860 0.60560 0.22500 -0.28900
N 	N 	0.32530 0.54150 0.20700 -0.28900
C 	C 	0.31140 0.64730 0.37200 0.45600
C 	C 	0.26490 0.55430 0.36800 0.48500
H 	H 	0.23430 0.51850 0.42190 -0.68100
N 	N 	0.32200 0.71700 0.41000 0.56600
H 	H 	0.36020 0.73550 0.34030 -0.11600
H 	H 	0.28990 0.74280 0.50850 -0.11400
N 	N 	0.22000 0.50000 0.39900 0.59100
H 	H 	0.17860 0.50740 0.47750 -0.12900
H 	H 	0.23340 0.45940 0.34040 -0.14700
H 	H 	0.32040 0.69380 0.41770 -0.65800
Ag	Ag	0.37694 0.45552 0.99490 0.43700
N 	N 	0.38160 0.24870 0.54800 -0.36700
N 	N 	0.39440 0.35860 0.77500 -0.28800
N 	N 	0.45850 0.32530 0.79300 -0.28900
C 	C 	0.35270 0.31140 0.62800 0.45300
C 	C 	0.44570 0.26490 0.63200 0.48500
H 	H 	0.48150 0.23430 0.57810 -0.68100
N 	N 	0.28300 0.32200 0.59000 0.56500
H 	H 	0.26450 0.36020 0.65970 -0.12000
H 	H 	0.25720 0.28990 0.49150 -0.11700
N 	N 	0.50000 0.22000 0.60100 0.59100
H 	H 	0.49260 0.17860 0.52250 -0.12900
H 	H 	0.54060 0.23340 0.65960 -0.14700
H 	H 	0.30620 0.32040 0.58230 -0.65500
Ag	Ag	0.62306 0.54448 0.99490 0.43800
N 	N 	0.61840 0.75130 0.54800 -0.36700
N 	N 	0.60560 0.64140 0.77500 -0.28900
N 	N 	0.54150 0.67470 0.79300 -0.29000
C 	C 	0.64730 0.68860 0.62800 0.45600
C 	C 	0.55430 0.73510 0.63200 0.49500
H 	H 	0.51850 0.76570 0.57810 -0.69000
N 	N 	0.71700 0.67800 0.59000 0.56700
H 	H 	0.73550 0.63980 0.65970 -0.11600
H 	H 	0.74280 0.71010 0.49150 -0.11400
N 	N 	0.50000 0.78000 0.60100 0.59700
H 	H 	0.50740 0.82140 0.52250 -0.11300
H 	H 	0.45940 0.76660 0.65960 -0.14200
H 	H 	0.69380 0.67960 0.58230 -0.65800
Ag	Ag	0.04448 0.12306 0.50510 0.39500
N 	N 	0.25130 0.11840 0.95200 -0.37700
N 	N 	0.14140 0.10560 0.72500 -0.29800
N 	N 	0.17470 0.04150 0.70700 -0.33200
C 	C 	0.18860 0.14730 0.87200 0.44900
C 	C 	0.23510 0.05430 0.86800 0.54600
H 	H 	0.26570 0.01850 0.92190 -0.80300
N 	N 	0.17800 0.21700 0.91000 0.56700
H 	H 	0.13980 0.23550 0.84030 -0.12200
H 	H 	0.21010 0.24280 0.00850 -0.11800
N 	N 	0.28000 0.00000 0.89900 0.67100
H 	H 	0.32140 0.00740 0.97750 -0.16000
H 	H 	0.26660 0.95940 0.84040 -0.11300
H 	H 	0.17960 0.19380 0.91770 -0.65600
Ag	Ag	0.95552 0.87694 0.50510 0.48200
N 	N 	0.74870 0.88160 0.95200 -0.40900
N 	N 	0.85860 0.89440 0.72500 -0.28200
N 	N 	0.82530 0.95850 0.70700 -0.30900
C 	C 	0.81140 0.85270 0.87200 0.45400
C 	C 	0.76490 0.94570 0.86800 0.74600
H 	H 	0.73430 0.98150 0.92190 -1.04800
N 	N 	0.82200 0.78300 0.91000 0.58000
H 	H 	0.86020 0.76450 0.84030 -0.11500
H 	H 	0.78990 0.75720 0.00850 -0.11600
N 	N 	0.72000 0.00000 0.89900 0.94700
H 	H 	0.67860 0.99260 0.97750 -0.14800
H 	H 	0.73340 0.04060 0.84040 -0.27200
H 	H 	0.82040 0.80620 0.91770 -0.66800
Ag	Ag	0.87694 0.04448 0.49490 0.41800
N 	N 	0.88160 0.25130 0.04800 -0.40800
N 	N 	0.89440 0.14140 0.27500 -0.28800
N 	N 	0.95850 0.17470 0.29300 -0.31300
C 	C 	0.85270 0.18860 0.12800 0.44700
C 	C 	0.94570 0.23510 0.13200 0.74500
H 	H 	0.98150 0.26570 0.07810 -1.04700
N 	N 	0.78300 0.17800 0.09000 0.57500
H 	H 	0.76450 0.13980 0.15970 -0.12300
H 	H 	0.75720 0.21010 0.99150 -0.11900
N 	N 	0.00000 0.28000 0.10100 0.94500
H 	H 	0.99260 0.32140 0.02250 -0.14800
H 	H 	0.04060 0.26660 0.15960 -0.27300
H 	H 	0.80620 0.17960 0.08230 -0.66100
Ag	Ag	0.12306 0.95552 0.49490 0.45900
N 	N 	0.11840 0.74870 0.04800 -0.37800
N 	N 	0.10560 0.85860 0.27500 -0.29200
N 	N 	0.04150 0.82530 0.29300 -0.32700
C 	C 	0.14730 0.81140 0.12800 0.45600
C 	C 	0.05430 0.76490 0.13200 0.54700
H 	H 	0.01850 0.73430 0.07810 -0.80400
N 	N 	0.21700 0.82200 0.09000 0.57200
H 	H 	0.23550 0.86020 0.15970 -0.11300
H 	H 	0.24280 0.78990 0.99150 -0.11600
N 	N 	0.00000 0.72000 0.10100 0.67200
H 	H 	0.00740 0.67860 0.02250 -0.16000
H 	H 	0.95940 0.73340 0.15960 -0.11300
H 	H 	0.19380 0.82040 0.08230 -0.66300
Ag	Ag	0.83553 0.33553 0.75000 0.50400
Ag	Ag	0.16447 0.66447 0.75000 0.49300
Ag	Ag	0.33553 0.16447 0.25000 0.49300
Ag	Ag	0.66447 0.83553 0.25000 0.50400
