data_crystal

_cell_length_a 14.26040
_cell_length_b 11.59990
_cell_length_c 18.32490
_cell_angle_alpha 90.00000
_cell_angle_beta  90.32400
_cell_angle_gamma 90.00000

_symmetry_space_group_name_	'P 1'
_symmetry_space_group_name_H-M	'P 1'

loop_
_symmetry_equiv_pos_as_xyz
  x,y,z

loop_
_atom_site_label
_atom_site_type_symbol
_atom_site_fract_x
_atom_site_fract_y
_atom_site_fract_z
_atom_site_charge
P 	P 	0.21613 0.59246 0.44011 0.79000
P 	P 	0.09130 0.26125 0.42415 0.74700
P 	P 	0.12106 0.49380 0.65668 0.75400
Al	Al	0.22985 0.36237 0.53100 2.40200
Al	Al	0.12645 0.72171 0.56662 2.39800
Al	Al	0.08417 0.53896 0.81835 2.40200
F 	F 	0.21867 0.20510 0.55387 -0.89800
O 	O 	0.25440 0.50710 0.49546 -0.67200
O 	O 	0.14820 0.61570 0.63120 -0.76100
O 	O 	0.18080 0.40440 0.61912 -0.59600
O 	O 	0.14840 0.67660 0.47796 -0.76600
O 	O 	0.14370 0.48520 0.73880 -0.62300
O 	O 	0.29950 0.66410 0.41080 -0.70200
O 	O 	0.11220 0.34570 0.48580 -0.63900
O 	O 	0.98650 0.22540 0.42680 -0.76600
O 	O 	0.35210 0.35060 0.57178 -0.53000
O 	O 	0.10890 0.31880 0.34954 -0.63900
O 	O 	0.16930 0.53810 0.37466 -0.63700
O 	O 	0.01640 0.47160 0.64320 -0.69200
P 	P 	0.71613 0.09246 0.44011 0.78800
P 	P 	0.59130 0.76125 0.42415 0.69800
P 	P 	0.62106 0.99380 0.65668 0.75700
Al	Al	0.72985 0.86237 0.53100 2.40200
Al	Al	0.62645 0.22171 0.56662 2.39700
Al	Al	0.58417 0.03896 0.81835 2.39900
F 	F 	0.71867 0.70510 0.55387 -0.90100
O 	O 	0.75440 0.00710 0.49546 -0.67900
O 	O 	0.64820 0.11570 0.63120 -0.77200
O 	O 	0.68080 0.90440 0.61912 -0.60400
O 	O 	0.64840 0.17660 0.47796 -0.77900
O 	O 	0.64370 0.98520 0.73880 -0.63400
O 	O 	0.79950 0.16410 0.41080 -0.71000
O 	O 	0.61220 0.84570 0.48580 -0.65000
O 	O 	0.48650 0.72540 0.42680 -0.70900
O 	O 	0.85210 0.85060 0.57178 -0.53700
O 	O 	0.60890 0.81880 0.34954 -0.65100
O 	O 	0.66930 0.03810 0.37466 -0.65100
O 	O 	0.51640 0.97160 0.64320 -0.72700
P 	P 	0.78387 0.59246 0.05989 0.78800
P 	P 	0.90870 0.26125 0.07585 0.65200
P 	P 	0.87894 0.49380 0.84332 0.75300
Al	Al	0.77015 0.36237 0.96900 2.40200
Al	Al	0.87355 0.72171 0.93338 2.39700
Al	Al	0.91583 0.53896 0.68165 2.39600
F 	F 	0.78133 0.20510 0.94613 -0.91100
O 	O 	0.74560 0.50710 0.00454 -0.67300
O 	O 	0.85180 0.61570 0.86880 -0.77600
O 	O 	0.81920 0.40440 0.88088 -0.60800
O 	O 	0.85160 0.67660 0.02204 -0.79500
O 	O 	0.85630 0.48520 0.76120 -0.65000
O 	O 	0.70050 0.66410 0.08920 -0.70600
O 	O 	0.88780 0.34570 0.01420 -0.65800
O 	O 	0.01350 0.22540 0.07320 -0.65600
O 	O 	0.64790 0.35060 0.92822 -0.53000
O 	O 	0.89110 0.31880 0.15046 -0.66700
O 	O 	0.83070 0.53810 0.12534 -0.66400
O 	O 	0.98360 0.47160 0.85680 -0.77300
P 	P 	0.28387 0.09246 0.05989 0.78900
P 	P 	0.40870 0.76125 0.07585 0.69900
P 	P 	0.37894 0.99380 0.84332 0.76000
Al	Al	0.27015 0.86237 0.96900 2.40300
Al	Al	0.37355 0.22171 0.93338 2.39700
Al	Al	0.41583 0.03896 0.68165 2.39900
F 	F 	0.28133 0.70510 0.94613 -0.90200
O 	O 	0.24560 0.00710 0.00454 -0.66300
O 	O 	0.35180 0.11570 0.86880 -0.77000
O 	O 	0.31920 0.90440 0.88088 -0.59900
O 	O 	0.35160 0.17660 0.02204 -0.77600
O 	O 	0.35630 0.98520 0.76120 -0.62900
O 	O 	0.20050 0.16410 0.08920 -0.69700
O 	O 	0.38780 0.84570 0.01420 -0.65400
O 	O 	0.51350 0.72540 0.07320 -0.71000
O 	O 	0.14790 0.85060 0.92822 -0.52100
O 	O 	0.39110 0.81880 0.15046 -0.64900
O 	O 	0.33070 0.03810 0.12534 -0.64600
O 	O 	0.48360 0.97160 0.85680 -0.72600
P 	P 	0.78387 0.40754 0.55989 0.78800
P 	P 	0.90870 0.73875 0.57585 0.65100
P 	P 	0.87894 0.50620 0.34332 0.75300
Al	Al	0.77015 0.63763 0.46900 2.40200
Al	Al	0.87355 0.27829 0.43338 2.39700
Al	Al	0.91583 0.46104 0.18165 2.39600
F 	F 	0.78133 0.79490 0.44613 -0.90800
O 	O 	0.74560 0.49290 0.50454 -0.67400
O 	O 	0.85180 0.38430 0.36880 -0.77700
O 	O 	0.81920 0.59560 0.38088 -0.60700
O 	O 	0.85160 0.32340 0.52204 -0.79300
O 	O 	0.85630 0.51480 0.26120 -0.64900
O 	O 	0.70050 0.33590 0.58920 -0.70500
O 	O 	0.88780 0.65430 0.51420 -0.66000
O 	O 	0.01350 0.77460 0.57320 -0.65600
O 	O 	0.64790 0.64940 0.42822 -0.53000
O 	O 	0.89110 0.68120 0.65046 -0.66700
O 	O 	0.83070 0.46190 0.62534 -0.66400
O 	O 	0.98360 0.52840 0.35680 -0.77200
P 	P 	0.28387 0.90754 0.55989 0.78800
P 	P 	0.40870 0.23875 0.57585 0.69800
P 	P 	0.37894 0.00620 0.34332 0.75700
Al	Al	0.27015 0.13763 0.46900 2.40200
Al	Al	0.37355 0.77829 0.43338 2.39700
Al	Al	0.41583 0.96104 0.18165 2.39900
F 	F 	0.28133 0.29490 0.44613 -0.90400
O 	O 	0.24560 0.99290 0.50454 -0.66700
O 	O 	0.35180 0.88430 0.36880 -0.76600
O 	O 	0.31920 0.09560 0.38088 -0.60000
O 	O 	0.35160 0.82340 0.52204 -0.77900
O 	O 	0.35630 0.01480 0.26120 -0.62800
O 	O 	0.20050 0.83590 0.58920 -0.69700
O 	O 	0.38780 0.15430 0.51420 -0.65000
O 	O 	0.51350 0.27460 0.57320 -0.70900
O 	O 	0.14790 0.14940 0.42822 -0.52300
O 	O 	0.39110 0.18120 0.65046 -0.64800
O 	O 	0.33070 0.96190 0.62534 -0.64700
O 	O 	0.48360 0.02840 0.35680 -0.72700
P 	P 	0.21613 0.40754 0.94011 0.78900
P 	P 	0.09130 0.73875 0.92415 0.74600
P 	P 	0.12106 0.50620 0.15668 0.75400
Al	Al	0.22985 0.63763 0.03100 2.40200
Al	Al	0.12645 0.27829 0.06662 2.39800
Al	Al	0.08417 0.46104 0.31835 2.40200
F 	F 	0.21867 0.79490 0.05387 -0.90100
O 	O 	0.25440 0.49290 0.99546 -0.67100
O 	O 	0.14820 0.38430 0.13120 -0.76100
O 	O 	0.18080 0.59560 0.11912 -0.59700
O 	O 	0.14840 0.32340 0.97796 -0.76800
O 	O 	0.14370 0.51480 0.23880 -0.62300
O 	O 	0.29950 0.33590 0.91080 -0.70200
O 	O 	0.11220 0.65430 0.98580 -0.63800
O 	O 	0.98650 0.77460 0.92680 -0.76500
O 	O 	0.35210 0.64940 0.07178 -0.53000
O 	O 	0.10890 0.68120 0.84954 -0.63900
O 	O 	0.16930 0.46190 0.87466 -0.63700
O 	O 	0.01640 0.52840 0.14320 -0.69300
P 	P 	0.71613 0.90754 0.94011 0.78800
P 	P 	0.59130 0.23875 0.92415 0.69800
P 	P 	0.62106 0.00620 0.15668 0.76000
Al	Al	0.72985 0.13763 0.03100 2.40300
Al	Al	0.62645 0.77829 0.06662 2.39700
Al	Al	0.58417 0.96104 0.31835 2.39900
F 	F 	0.71867 0.29490 0.05387 -0.90000
O 	O 	0.75440 0.99290 0.99546 -0.67400
O 	O 	0.64820 0.88430 0.13120 -0.77500
O 	O 	0.68080 0.09560 0.11912 -0.60300
O 	O 	0.64840 0.82340 0.97796 -0.77700
O 	O 	0.64370 0.01480 0.23880 -0.63400
O 	O 	0.79950 0.83590 0.91080 -0.70900
O 	O 	0.61220 0.15430 0.98580 -0.65400
O 	O 	0.48650 0.27460 0.92680 -0.71000
O 	O 	0.85210 0.14940 0.07178 -0.53600
O 	O 	0.60890 0.18120 0.84954 -0.65200
O 	O 	0.66930 0.96190 0.87466 -0.65000
O 	O 	0.51640 0.02840 0.14320 -0.72600
F 	F 	0.00000 0.60930 0.75000 -0.89700
F 	F 	0.50000 0.10930 0.75000 -0.93600
F 	F 	0.00000 0.39070 0.25000 -0.89800
F 	F 	0.50000 0.89070 0.25000 -0.93600
