data_crystal

_cell_length_a 16.88070
_cell_length_b 16.88070
_cell_length_c 16.88070
_cell_angle_alpha 90.00000
_cell_angle_beta  90.00000
_cell_angle_gamma 90.00000

_symmetry_space_group_name_	'P 1'
_symmetry_space_group_name_H-M	'P 1'

loop_
_symmetry_equiv_pos_as_xyz
  x,y,z

loop_
_atom_site_label
_atom_site_type_symbol
_atom_site_fract_x
_atom_site_fract_y
_atom_site_fract_z
_atom_site_charge
O 	O 	0.80571 0.51454 0.90636 -0.27400
O 	O 	0.30571 0.01454 0.40636 -0.57700
O 	O 	0.19429 0.48546 0.90636 -0.30400
O 	O 	0.69429 0.98546 0.40636 -0.23100
O 	O 	0.19429 0.51454 0.09364 -0.51900
O 	O 	0.69429 0.01454 0.59364 -0.53700
O 	O 	0.80571 0.48546 0.09364 -0.48200
O 	O 	0.30571 0.98546 0.59364 -0.23700
O 	O 	0.90636 0.80571 0.51454 -0.27400
O 	O 	0.40636 0.30571 0.01454 -0.57700
O 	O 	0.90636 0.19429 0.48546 -0.30400
O 	O 	0.40636 0.69429 0.98546 -0.23100
O 	O 	0.09364 0.19429 0.51454 -0.51800
O 	O 	0.59364 0.69429 0.01454 -0.53600
O 	O 	0.09364 0.80571 0.48546 -0.48100
O 	O 	0.59364 0.30571 0.98546 -0.23600
O 	O 	0.51454 0.90636 0.80571 -0.27300
O 	O 	0.01454 0.40636 0.30571 -0.57600
O 	O 	0.48546 0.90636 0.19429 -0.30300
O 	O 	0.98546 0.40636 0.69429 -0.23000
O 	O 	0.51454 0.09364 0.19429 -0.51800
O 	O 	0.01454 0.59364 0.69429 -0.53600
O 	O 	0.48546 0.09364 0.80571 -0.48100
O 	O 	0.98546 0.59364 0.30571 -0.23600
O 	O 	0.51454 0.80571 0.90636 -0.27300
O 	O 	0.01454 0.30571 0.40636 -0.57600
O 	O 	0.48546 0.19429 0.90636 -0.30300
O 	O 	0.98546 0.69429 0.40636 -0.23000
O 	O 	0.51454 0.19429 0.09364 -0.51800
O 	O 	0.01454 0.69429 0.59364 -0.53600
O 	O 	0.48546 0.80571 0.09364 -0.48100
O 	O 	0.98546 0.30571 0.59364 -0.23600
O 	O 	0.80571 0.90636 0.51454 -0.27300
O 	O 	0.30571 0.40636 0.01454 -0.57600
O 	O 	0.19429 0.90636 0.48546 -0.30300
O 	O 	0.69429 0.40636 0.98546 -0.23000
O 	O 	0.19429 0.09364 0.51454 -0.51800
O 	O 	0.69429 0.59364 0.01454 -0.53600
O 	O 	0.80571 0.09364 0.48546 -0.48100
O 	O 	0.30571 0.59364 0.98546 -0.23600
O 	O 	0.90636 0.51454 0.80571 -0.27300
O 	O 	0.40636 0.01454 0.30571 -0.57600
O 	O 	0.90636 0.48546 0.19429 -0.30300
O 	O 	0.40636 0.98546 0.69429 -0.23000
O 	O 	0.09364 0.51454 0.19429 -0.51800
O 	O 	0.59364 0.01454 0.69429 -0.53600
O 	O 	0.09364 0.48546 0.80571 -0.48100
O 	O 	0.59364 0.98546 0.30571 -0.23600
Ga	Ga	-0.00000 0.50000 -0.00000 1.94500
Ga	Ga	0.50000 0.00000 0.50000 2.00700
Ga	Ga	0.00000 0.00000 0.50000 1.94500
Ga	Ga	0.50000 0.50000 -0.00000 2.00700
Ga	Ga	0.50000 0.00000 -0.00000 1.94500
Ga	Ga	0.00000 0.50000 0.50000 2.00700
Co	Co	0.75000 0.50000 -0.00000 1.07300
Co	Co	0.25000 0.50000 -0.00000 1.06300
Co	Co	0.00000 0.75000 0.50000 1.07300
Co	Co	-0.00000 0.25000 0.50000 1.06300
Co	Co	0.50000 0.00000 0.75000 1.07300
Co	Co	0.50000 0.00000 0.25000 1.06300
Co	Co	0.50000 0.75000 -0.00000 1.07300
Co	Co	0.50000 0.25000 -0.00000 1.06300
Co	Co	0.75000 0.00000 0.50000 1.07300
Co	Co	0.25000 0.00000 0.50000 1.06300
Co	Co	0.00000 0.50000 0.75000 1.07300
Co	Co	-0.00000 0.50000 0.25000 1.06300
P 	P 	0.87617 0.56411 0.87617 0.56600
O 	O 	0.85275 0.64663 0.85275 -0.03200
O 	O 	0.94057 0.56861 0.94057 -0.31500
P 	P 	0.37617 0.06411 0.37617 0.56900
O 	O 	0.35275 0.14663 0.35275 -0.25300
O 	O 	0.44057 0.06861 0.44057 -0.73900
P 	P 	0.12383 0.43589 0.87617 0.56400
O 	O 	0.14725 0.35337 0.85275 -0.21200
O 	O 	0.05943 0.43139 0.94057 -0.61400
P 	P 	0.62383 0.93589 0.37617 0.55900
O 	O 	0.64725 0.85337 0.35275 -0.15600
O 	O 	0.55943 0.93139 0.44057 -0.50200
P 	P 	0.12383 0.56411 0.12383 0.56000
O 	O 	0.14725 0.64663 0.14725 -0.30400
O 	O 	0.05943 0.56861 0.05943 -0.87900
P 	P 	0.62383 0.06411 0.62383 0.57100
O 	O 	0.64725 0.14663 0.64725 -0.19800
O 	O 	0.55943 0.06861 0.55943 -0.73800
P 	P 	0.87617 0.43589 0.12383 0.56400
O 	O 	0.85275 0.35337 0.14725 -0.21200
O 	O 	0.94057 0.43139 0.05943 -0.61400
P 	P 	0.37617 0.93589 0.62383 0.55900
O 	O 	0.35275 0.85337 0.64725 -0.15600
O 	O 	0.44057 0.93139 0.55943 -0.50200
P 	P 	0.87617 0.87617 0.56411 0.56600
O 	O 	0.85275 0.85275 0.64663 -0.03200
O 	O 	0.94057 0.94057 0.56861 -0.31500
P 	P 	0.37617 0.37617 0.06411 0.56900
O 	O 	0.35275 0.35275 0.14663 -0.25300
O 	O 	0.44057 0.44057 0.06861 -0.73900
P 	P 	0.87617 0.12383 0.43589 0.56400
O 	O 	0.85275 0.14725 0.35337 -0.21200
O 	O 	0.94057 0.05943 0.43139 -0.61400
P 	P 	0.37617 0.62383 0.93589 0.55900
O 	O 	0.35275 0.64725 0.85337 -0.15600
O 	O 	0.44057 0.55943 0.93139 -0.50200
P 	P 	0.12383 0.12383 0.56411 0.56000
O 	O 	0.14725 0.14725 0.64663 -0.30400
O 	O 	0.05943 0.05943 0.56861 -0.87900
P 	P 	0.62383 0.62383 0.06411 0.57100
O 	O 	0.64725 0.64725 0.14663 -0.19800
O 	O 	0.55943 0.55943 0.06861 -0.73800
P 	P 	0.12383 0.87617 0.43589 0.56400
O 	O 	0.14725 0.85275 0.35337 -0.21200
O 	O 	0.05943 0.94057 0.43139 -0.61400
P 	P 	0.62383 0.37617 0.93589 0.55900
O 	O 	0.64725 0.35275 0.85337 -0.15600
O 	O 	0.55943 0.44057 0.93139 -0.50200
P 	P 	0.56411 0.87617 0.87617 0.56600
O 	O 	0.64663 0.85275 0.85275 -0.03200
O 	O 	0.56861 0.94057 0.94057 -0.31500
P 	P 	0.06411 0.37617 0.37617 0.56900
O 	O 	0.14663 0.35275 0.35275 -0.25300
O 	O 	0.06861 0.44057 0.44057 -0.73900
P 	P 	0.43589 0.87617 0.12383 0.56400
O 	O 	0.35337 0.85275 0.14725 -0.21200
O 	O 	0.43139 0.94057 0.05943 -0.61400
P 	P 	0.93589 0.37617 0.62383 0.55900
O 	O 	0.85337 0.35275 0.64725 -0.15600
O 	O 	0.93139 0.44057 0.55943 -0.50200
P 	P 	0.56411 0.12383 0.12383 0.56000
O 	O 	0.64663 0.14725 0.14725 -0.30400
O 	O 	0.56861 0.05943 0.05943 -0.87900
P 	P 	0.06411 0.62383 0.62383 0.57100
O 	O 	0.14663 0.64725 0.64725 -0.19800
O 	O 	0.06861 0.55943 0.55943 -0.73800
P 	P 	0.43589 0.12383 0.87617 0.56400
O 	O 	0.35337 0.14725 0.85275 -0.21200
O 	O 	0.43139 0.05943 0.94057 -0.61400
P 	P 	0.93589 0.62383 0.37617 0.55900
O 	O 	0.85337 0.64725 0.35275 -0.15600
O 	O 	0.93139 0.55943 0.44057 -0.50200
