data_crystal

_cell_length_a 16.87010
_cell_length_b 16.87010
_cell_length_c 16.87010
_cell_angle_alpha 90.00000
_cell_angle_beta  90.00000
_cell_angle_gamma 90.00000

_symmetry_space_group_name_	'P 1'
_symmetry_space_group_name_H-M	'P 1'

loop_
_symmetry_equiv_pos_as_xyz
  x,y,z

loop_
_atom_site_label
_atom_site_type_symbol
_atom_site_fract_x
_atom_site_fract_y
_atom_site_fract_z
_atom_site_charge
O 	O 	0.01704 0.59499 0.30414 -0.55700
O 	O 	0.51704 0.09499 0.80414 -0.48100
O 	O 	0.98296 0.40501 0.30414 -0.25200
O 	O 	0.48296 0.90501 0.80414 -0.27200
O 	O 	0.98296 0.59499 0.69586 -0.21700
O 	O 	0.48296 0.09499 0.19586 -0.51500
O 	O 	0.01704 0.40501 0.69586 -0.54900
O 	O 	0.51704 0.90501 0.19586 -0.30500
O 	O 	0.30414 0.01704 0.59499 -0.55700
O 	O 	0.80414 0.51704 0.09499 -0.48000
O 	O 	0.30414 0.98296 0.40501 -0.25100
O 	O 	0.80414 0.48296 0.90501 -0.27100
O 	O 	0.69586 0.98296 0.59499 -0.21600
O 	O 	0.19586 0.48296 0.09499 -0.51400
O 	O 	0.69586 0.01704 0.40501 -0.54800
O 	O 	0.19586 0.51704 0.90501 -0.30400
O 	O 	0.59499 0.30414 0.01704 -0.55600
O 	O 	0.09499 0.80414 0.51704 -0.48000
O 	O 	0.40501 0.30414 0.98296 -0.25100
O 	O 	0.90501 0.80414 0.48296 -0.27100
O 	O 	0.59499 0.69586 0.98296 -0.21600
O 	O 	0.09499 0.19586 0.48296 -0.51400
O 	O 	0.40501 0.69586 0.01704 -0.54800
O 	O 	0.90501 0.19586 0.51704 -0.30400
O 	O 	0.59499 0.01704 0.30414 -0.55600
O 	O 	0.09499 0.51704 0.80414 -0.48000
O 	O 	0.40501 0.98296 0.30414 -0.25100
O 	O 	0.90501 0.48296 0.80414 -0.27100
O 	O 	0.59499 0.98296 0.69586 -0.21600
O 	O 	0.09499 0.48296 0.19586 -0.51400
O 	O 	0.40501 0.01704 0.69586 -0.54800
O 	O 	0.90501 0.51704 0.19586 -0.30400
O 	O 	0.01704 0.30414 0.59499 -0.55600
O 	O 	0.51704 0.80414 0.09499 -0.48000
O 	O 	0.98296 0.30414 0.40501 -0.25100
O 	O 	0.48296 0.80414 0.90501 -0.27100
O 	O 	0.98296 0.69586 0.59499 -0.21600
O 	O 	0.48296 0.19586 0.09499 -0.51400
O 	O 	0.01704 0.69586 0.40501 -0.54800
O 	O 	0.51704 0.19586 0.90501 -0.30400
O 	O 	0.30414 0.59499 0.01704 -0.55600
O 	O 	0.80414 0.09499 0.51704 -0.48000
O 	O 	0.30414 0.40501 0.98296 -0.25100
O 	O 	0.80414 0.90501 0.48296 -0.27100
O 	O 	0.69586 0.59499 0.98296 -0.21600
O 	O 	0.19586 0.09499 0.48296 -0.51400
O 	O 	0.69586 0.40501 0.01704 -0.54800
O 	O 	0.19586 0.90501 0.51704 -0.30400
Ga	Ga	0.00000 0.50000 0.50000 2.00600
Ga	Ga	0.50000 0.00000 -0.00000 1.94300
Ga	Ga	0.50000 0.00000 0.50000 2.00600
Ga	Ga	-0.00000 0.50000 -0.00000 1.94300
Ga	Ga	0.50000 0.50000 -0.00000 2.00600
Ga	Ga	0.00000 0.00000 0.50000 1.94300
Fe	Fe	0.00000 0.50000 0.25000 1.05700
Fe	Fe	0.00000 0.50000 0.75000 1.06900
Fe	Fe	0.50000 0.00000 0.25000 1.05700
Fe	Fe	0.25000 0.00000 0.50000 1.05700
Fe	Fe	0.75000 0.00000 0.50000 1.06900
Fe	Fe	0.25000 0.50000 -0.00000 1.05700
Fe	Fe	0.50000 0.25000 -0.00000 1.05700
Fe	Fe	0.50000 0.75000 -0.00000 1.06900
Fe	Fe	0.00000 0.25000 0.50000 1.05700
Fe	Fe	0.50000 0.00000 0.75000 1.06900
Fe	Fe	0.00000 0.75000 0.50000 1.06900
Fe	Fe	0.75000 0.50000 -0.00000 1.06900
P 	P 	0.06541 0.62451 0.37549 0.57800
O 	O 	0.14853 0.64631 0.35369 -0.22700
O 	O 	0.06784 0.56019 0.43981 -0.74500
P 	P 	0.56541 0.12451 0.87549 0.57000
O 	O 	0.64853 0.14631 0.85369 -0.16900
O 	O 	0.56784 0.06019 0.93981 -0.59900
P 	P 	0.93459 0.37549 0.37549 0.56400
O 	O 	0.85147 0.35369 0.35369 -0.18600
O 	O 	0.93216 0.43981 0.43981 -0.50600
P 	P 	0.43459 0.87549 0.87549 0.57200
O 	O 	0.35147 0.85369 0.85369 -0.07800
O 	O 	0.43216 0.93981 0.93981 -0.34000
P 	P 	0.93459 0.62451 0.62451 0.56700
O 	O 	0.85147 0.64631 0.64631 -0.13400
O 	O 	0.93216 0.56019 0.56019 -0.50500
P 	P 	0.43459 0.12451 0.12451 0.57000
O 	O 	0.35147 0.14631 0.14631 -0.35500
O 	O 	0.43216 0.06019 0.06019 -0.90300
P 	P 	0.06541 0.37549 0.62451 0.57800
O 	O 	0.14853 0.35369 0.64631 -0.22700
O 	O 	0.06784 0.43981 0.56019 -0.74500
P 	P 	0.56541 0.87549 0.12451 0.57000
O 	O 	0.64853 0.85369 0.14631 -0.16900
O 	O 	0.56784 0.93981 0.06019 -0.59900
P 	P 	0.37549 0.06541 0.62451 0.57800
O 	O 	0.35369 0.14853 0.64631 -0.22700
O 	O 	0.43981 0.06784 0.56019 -0.74500
P 	P 	0.87549 0.56541 0.12451 0.57000
O 	O 	0.85369 0.64853 0.14631 -0.16900
O 	O 	0.93981 0.56784 0.06019 -0.59900
P 	P 	0.37549 0.93459 0.37549 0.56400
O 	O 	0.35369 0.85147 0.35369 -0.18600
O 	O 	0.43981 0.93216 0.43981 -0.50600
P 	P 	0.87549 0.43459 0.87549 0.57200
O 	O 	0.85369 0.35147 0.85369 -0.07800
O 	O 	0.93981 0.43216 0.93981 -0.34000
P 	P 	0.62451 0.93459 0.62451 0.56700
O 	O 	0.64631 0.85147 0.64631 -0.13400
O 	O 	0.56019 0.93216 0.56019 -0.50500
P 	P 	0.12451 0.43459 0.12451 0.57000
O 	O 	0.14631 0.35147 0.14631 -0.35500
O 	O 	0.06019 0.43216 0.06019 -0.90300
P 	P 	0.62451 0.06541 0.37549 0.57800
O 	O 	0.64631 0.14853 0.35369 -0.22700
O 	O 	0.56019 0.06784 0.43981 -0.74500
P 	P 	0.12451 0.56541 0.87549 0.57000
O 	O 	0.14631 0.64853 0.85369 -0.16900
O 	O 	0.06019 0.56784 0.93981 -0.59900
P 	P 	0.62451 0.37549 0.06541 0.57800
O 	O 	0.64631 0.35369 0.14853 -0.22700
O 	O 	0.56019 0.43981 0.06784 -0.74500
P 	P 	0.12451 0.87549 0.56541 0.57000
O 	O 	0.14631 0.85369 0.64853 -0.16900
O 	O 	0.06019 0.93981 0.56784 -0.59900
P 	P 	0.37549 0.37549 0.93459 0.56400
O 	O 	0.35369 0.35369 0.85147 -0.18600
O 	O 	0.43981 0.43981 0.93216 -0.50600
P 	P 	0.87549 0.87549 0.43459 0.57200
O 	O 	0.85369 0.85369 0.35147 -0.07800
O 	O 	0.93981 0.93981 0.43216 -0.34000
P 	P 	0.62451 0.62451 0.93459 0.56700
O 	O 	0.64631 0.64631 0.85147 -0.13400
O 	O 	0.56019 0.56019 0.93216 -0.50500
P 	P 	0.12451 0.12451 0.43459 0.57000
O 	O 	0.14631 0.14631 0.35147 -0.35500
O 	O 	0.06019 0.06019 0.43216 -0.90300
P 	P 	0.37549 0.62451 0.06541 0.57800
O 	O 	0.35369 0.64631 0.14853 -0.22700
O 	O 	0.43981 0.56019 0.06784 -0.74500
P 	P 	0.87549 0.12451 0.56541 0.57000
O 	O 	0.85369 0.14631 0.64853 -0.16900
O 	O 	0.93981 0.06019 0.56784 -0.59900
