data_crystal

_cell_length_a 16.94400
_cell_length_b 16.94400
_cell_length_c 16.94400
_cell_angle_alpha 90.00000
_cell_angle_beta  90.00000
_cell_angle_gamma 90.00000

_symmetry_space_group_name_	'P 1'
_symmetry_space_group_name_H-M	'P 1'

loop_
_symmetry_equiv_pos_as_xyz
  x,y,z

loop_
_atom_site_label
_atom_site_type_symbol
_atom_site_fract_x
_atom_site_fract_y
_atom_site_fract_z
_atom_site_charge
O 	O 	0.80543 0.51755 0.90550 -0.29800
O 	O 	0.30543 0.01755 0.40550 -0.61500
O 	O 	0.19457 0.48245 0.90550 -0.33300
O 	O 	0.69457 0.98245 0.40550 -0.25600
O 	O 	0.19457 0.51755 0.09450 -0.55600
O 	O 	0.69457 0.01755 0.59450 -0.57200
O 	O 	0.80543 0.48245 0.09450 -0.51700
O 	O 	0.30543 0.98245 0.59450 -0.26300
O 	O 	0.90550 0.80543 0.51755 -0.29800
O 	O 	0.40550 0.30543 0.01755 -0.61500
O 	O 	0.90550 0.19457 0.48245 -0.33300
O 	O 	0.40550 0.69457 0.98245 -0.25600
O 	O 	0.09450 0.19457 0.51755 -0.55600
O 	O 	0.59450 0.69457 0.01755 -0.57200
O 	O 	0.09450 0.80543 0.48245 -0.51700
O 	O 	0.59450 0.30543 0.98245 -0.26300
O 	O 	0.51755 0.90550 0.80543 -0.29800
O 	O 	0.01755 0.40550 0.30543 -0.61500
O 	O 	0.48245 0.90550 0.19457 -0.33300
O 	O 	0.98245 0.40550 0.69457 -0.25600
O 	O 	0.51755 0.09450 0.19457 -0.55600
O 	O 	0.01755 0.59450 0.69457 -0.57200
O 	O 	0.48245 0.09450 0.80543 -0.51700
O 	O 	0.98245 0.59450 0.30543 -0.26300
O 	O 	0.51755 0.80543 0.90550 -0.29800
O 	O 	0.01755 0.30543 0.40550 -0.61500
O 	O 	0.48245 0.19457 0.90550 -0.33300
O 	O 	0.98245 0.69457 0.40550 -0.25600
O 	O 	0.51755 0.19457 0.09450 -0.55600
O 	O 	0.01755 0.69457 0.59450 -0.57200
O 	O 	0.48245 0.80543 0.09450 -0.51700
O 	O 	0.98245 0.30543 0.59450 -0.26300
O 	O 	0.80543 0.90550 0.51755 -0.29800
O 	O 	0.30543 0.40550 0.01755 -0.61500
O 	O 	0.19457 0.90550 0.48245 -0.33300
O 	O 	0.69457 0.40550 0.98245 -0.25600
O 	O 	0.19457 0.09450 0.51755 -0.55600
O 	O 	0.69457 0.59450 0.01755 -0.57200
O 	O 	0.80543 0.09450 0.48245 -0.51700
O 	O 	0.30543 0.59450 0.98245 -0.26300
O 	O 	0.90550 0.51755 0.80543 -0.29800
O 	O 	0.40550 0.01755 0.30543 -0.61500
O 	O 	0.90550 0.48245 0.19457 -0.33300
O 	O 	0.40550 0.98245 0.69457 -0.25600
O 	O 	0.09450 0.51755 0.19457 -0.55600
O 	O 	0.59450 0.01755 0.69457 -0.57200
O 	O 	0.09450 0.48245 0.80543 -0.51700
O 	O 	0.59450 0.98245 0.30543 -0.26300
Ga	Ga	-0.00000 0.50000 -0.00000 1.93300
Ga	Ga	0.50000 0.00000 0.50000 1.99900
Ga	Ga	0.00000 0.00000 0.50000 1.93300
Ga	Ga	0.50000 0.50000 -0.00000 1.99900
Ga	Ga	0.50000 0.00000 -0.00000 1.93300
Ga	Ga	0.00000 0.50000 0.50000 1.99900
Mn	Mn	0.75000 0.50000 -0.00000 1.21100
Mn	Mn	0.25000 0.50000 -0.00000 1.20100
Mn	Mn	0.00000 0.75000 0.50000 1.21100
Mn	Mn	-0.00000 0.25000 0.50000 1.20100
Mn	Mn	0.50000 0.00000 0.75000 1.21100
Mn	Mn	0.50000 0.00000 0.25000 1.20100
Mn	Mn	0.50000 0.75000 -0.00000 1.21100
Mn	Mn	0.50000 0.25000 -0.00000 1.20100
Mn	Mn	0.75000 0.00000 0.50000 1.21100
Mn	Mn	0.25000 0.00000 0.50000 1.20100
Mn	Mn	0.00000 0.50000 0.75000 1.21100
Mn	Mn	0.00000 0.50000 0.25000 1.20100
P 	P 	0.87601 0.56587 0.87601 0.57700
O 	O 	0.85450 0.64854 0.85450 -0.03200
O 	O 	0.94015 0.56863 0.94015 -0.30900
P 	P 	0.37601 0.06587 0.37601 0.58500
O 	O 	0.35450 0.14854 0.35450 -0.26500
O 	O 	0.44015 0.06863 0.44015 -0.75300
P 	P 	0.12399 0.43413 0.87601 0.57800
O 	O 	0.14550 0.35146 0.85450 -0.22400
O 	O 	0.05985 0.43137 0.94015 -0.62100
P 	P 	0.62399 0.93413 0.37601 0.57200
O 	O 	0.64550 0.85146 0.35450 -0.16500
O 	O 	0.55985 0.93137 0.44015 -0.50300
P 	P 	0.12399 0.56587 0.12399 0.57700
O 	O 	0.14550 0.64854 0.14550 -0.32000
O 	O 	0.05985 0.56863 0.05985 -0.89800
P 	P 	0.62399 0.06587 0.62399 0.58700
O 	O 	0.64550 0.14854 0.64550 -0.20800
O 	O 	0.55985 0.06863 0.55985 -0.75100
P 	P 	0.87601 0.43413 0.12399 0.57800
O 	O 	0.85450 0.35146 0.14550 -0.22400
O 	O 	0.94015 0.43137 0.05985 -0.62100
P 	P 	0.37601 0.93413 0.62399 0.57200
O 	O 	0.35450 0.85146 0.64550 -0.16500
O 	O 	0.44015 0.93137 0.55985 -0.50300
P 	P 	0.87601 0.87601 0.56587 0.57700
O 	O 	0.85450 0.85450 0.64854 -0.03200
O 	O 	0.94015 0.94015 0.56863 -0.30900
P 	P 	0.37601 0.37601 0.06587 0.58500
O 	O 	0.35450 0.35450 0.14854 -0.26500
O 	O 	0.44015 0.44015 0.06863 -0.75300
P 	P 	0.87601 0.12399 0.43413 0.57800
O 	O 	0.85450 0.14550 0.35146 -0.22400
O 	O 	0.94015 0.05985 0.43137 -0.62100
P 	P 	0.37601 0.62399 0.93413 0.57200
O 	O 	0.35450 0.64550 0.85146 -0.16500
O 	O 	0.44015 0.55985 0.93137 -0.50300
P 	P 	0.12399 0.12399 0.56587 0.57700
O 	O 	0.14550 0.14550 0.64854 -0.32000
O 	O 	0.05985 0.05985 0.56863 -0.89800
P 	P 	0.62399 0.62399 0.06587 0.58700
O 	O 	0.64550 0.64550 0.14854 -0.20800
O 	O 	0.55985 0.55985 0.06863 -0.75100
P 	P 	0.12399 0.87601 0.43413 0.57800
O 	O 	0.14550 0.85450 0.35146 -0.22400
O 	O 	0.05985 0.94015 0.43137 -0.62100
P 	P 	0.62399 0.37601 0.93413 0.57200
O 	O 	0.64550 0.35450 0.85146 -0.16500
O 	O 	0.55985 0.44015 0.93137 -0.50300
P 	P 	0.56587 0.87601 0.87601 0.57700
O 	O 	0.64854 0.85450 0.85450 -0.03200
O 	O 	0.56863 0.94015 0.94015 -0.30900
P 	P 	0.06587 0.37601 0.37601 0.58500
O 	O 	0.14854 0.35450 0.35450 -0.26500
O 	O 	0.06863 0.44015 0.44015 -0.75300
P 	P 	0.43413 0.87601 0.12399 0.57800
O 	O 	0.35146 0.85450 0.14550 -0.22400
O 	O 	0.43137 0.94015 0.05985 -0.62100
P 	P 	0.93413 0.37601 0.62399 0.57200
O 	O 	0.85146 0.35450 0.64550 -0.16500
O 	O 	0.93137 0.44015 0.55985 -0.50300
P 	P 	0.56587 0.12399 0.12399 0.57700
O 	O 	0.64854 0.14550 0.14550 -0.32000
O 	O 	0.56863 0.05985 0.05985 -0.89800
P 	P 	0.06587 0.62399 0.62399 0.58700
O 	O 	0.14854 0.64550 0.64550 -0.20800
O 	O 	0.06863 0.55985 0.55985 -0.75100
P 	P 	0.43413 0.12399 0.87601 0.57800
O 	O 	0.35146 0.14550 0.85450 -0.22400
O 	O 	0.43137 0.05985 0.94015 -0.62100
P 	P 	0.93413 0.62399 0.37601 0.57200
O 	O 	0.85146 0.64550 0.35450 -0.16500
O 	O 	0.93137 0.55985 0.44015 -0.50300
