data_crystal

_cell_length_a 20.22020
_cell_length_b 20.22020
_cell_length_c 20.22020
_cell_angle_alpha 109.47100
_cell_angle_beta  109.47100
_cell_angle_gamma 109.47100

_symmetry_space_group_name_	'P 1'
_symmetry_space_group_name_H-M	'P 1'

loop_
_symmetry_equiv_pos_as_xyz
  x,y,z

loop_
_atom_site_label
_atom_site_type_symbol
_atom_site_fract_x
_atom_site_fract_y
_atom_site_fract_z
_atom_site_charge
Zn	Zn	0.05728 0.53365 0.11155 1.22700
Zn	Zn	0.42210 0.94573 0.88845 1.21200
Zn	Zn	0.57790 0.46635 0.52363 1.22700
Zn	Zn	0.94272 0.05427 0.47637 1.23400
Zn	Zn	0.52363 0.57790 0.46635 1.22700
Zn	Zn	0.47637 0.94272 0.05427 1.22200
Zn	Zn	0.11155 0.05728 0.53365 1.23100
Zn	Zn	0.88845 0.42210 0.94573 1.21900
Zn	Zn	0.94573 0.88845 0.42210 1.22300
Zn	Zn	0.53365 0.11155 0.05728 1.23500
Zn	Zn	0.05427 0.47637 0.94272 1.21600
Zn	Zn	0.46635 0.52363 0.57790 1.22800
Cu	Cu	0.06157 0.56157 0.50000 0.90400
Cu	Cu	0.93843 0.43843 0.50000 0.91100
Cu	Cu	0.50000 0.93843 0.43843 0.89400
Cu	Cu	0.50000 0.06157 0.56157 0.92100
Cu	Cu	0.56157 0.50000 0.06157 0.92100
Cu	Cu	0.43843 0.50000 0.93843 0.89300
H 	H 	0.96990 0.45510 0.24560 0.04000
H 	H 	0.77340 0.28270 0.03270 0.04600
H 	H 	0.77600 0.30210 0.23630 0.04300
H 	H 	0.20950 0.72430 0.75440 0.03000
H 	H 	0.25000 0.74070 0.96730 0.02200
H 	H 	0.06580 0.53970 0.76370 0.03300
H 	H 	0.79050 0.54490 0.51480 0.03500
H 	H 	0.75000 0.71730 0.49070 0.03200
H 	H 	0.93420 0.69790 0.47390 0.03800
H 	H 	0.03010 0.27570 0.48520 0.03600
H 	H 	0.22660 0.25930 0.50930 0.03800
H 	H 	0.22400 0.46030 0.52610 0.03800
H 	H 	0.51480 0.79050 0.54490 0.03200
H 	H 	0.49070 0.75000 0.71730 0.03000
H 	H 	0.47390 0.93420 0.69790 0.02900
H 	H 	0.48520 0.03010 0.27570 0.04600
H 	H 	0.50930 0.22660 0.25930 0.04100
H 	H 	0.52610 0.22400 0.46030 0.04200
H 	H 	0.24560 0.96990 0.45510 0.02700
H 	H 	0.03270 0.77340 0.28270 0.03300
H 	H 	0.23630 0.77600 0.30210 0.03700
H 	H 	0.75440 0.20950 0.72430 0.03700
H 	H 	0.96730 0.25000 0.74070 0.03600
H 	H 	0.76370 0.06580 0.53970 0.04500
H 	H 	0.72430 0.75440 0.20950 0.03700
H 	H 	0.74070 0.96730 0.25000 0.02900
H 	H 	0.53970 0.76370 0.06580 0.04300
H 	H 	0.45510 0.24560 0.96990 0.02900
H 	H 	0.28270 0.03270 0.77340 0.04000
H 	H 	0.30210 0.23630 0.77600 0.03700
H 	H 	0.27570 0.48520 0.03010 0.04400
H 	H 	0.25930 0.50930 0.22660 0.03700
H 	H 	0.46030 0.52610 0.22400 0.04100
H 	H 	0.54490 0.51480 0.79050 0.03200
H 	H 	0.71730 0.49070 0.75000 0.03200
H 	H 	0.69790 0.47390 0.93420 0.03100
C 	C 	0.88060 0.38350 0.25590 -0.13200
C 	C 	0.91760 0.41090 0.21570 0.08400
C 	C 	0.87750 0.37330 0.13220 -0.14100
C 	C 	0.80040 0.30870 0.08890 0.08300
C 	C 	0.76130 0.28090 0.12740 -0.12800
C 	C 	0.80190 0.31940 0.21010 0.08200
C 	C 	0.92480 0.42490 0.34650 0.39400
C 	C 	0.91760 0.40910 0.09230 0.43300
C 	C 	0.67750 0.21090 0.07820 0.37300
C 	C 	0.12760 0.62470 0.74410 -0.14900
C 	C 	0.19520 0.70190 0.78430 0.09500
C 	C 	0.24110 0.74530 0.86780 -0.16800
C 	C 	0.21980 0.71150 0.91110 0.09800
C 	C 	0.15350 0.63390 0.87260 -0.15500
C 	C 	0.10930 0.59180 0.78990 0.09400
C 	C 	0.07840 0.57830 0.65350 0.39800
C 	C 	0.31680 0.82530 0.90770 0.44100
C 	C 	0.13270 0.59930 0.92180 0.38100
C 	C 	0.87240 0.61650 0.49710 -0.14100
C 	C 	0.80480 0.58910 0.50670 0.09000
C 	C 	0.75890 0.62670 0.50420 -0.15600
C 	C 	0.78020 0.69130 0.49170 0.09100
C 	C 	0.84650 0.71910 0.48040 -0.14500
C 	C 	0.89070 0.68060 0.48250 0.08800
C 	C 	0.92160 0.57510 0.49990 0.39600
C 	C 	0.68320 0.59090 0.50850 0.43700
C 	C 	0.86730 0.78910 0.46660 0.37700
C 	C 	0.11940 0.37530 0.50290 -0.14000
C 	C 	0.08240 0.29810 0.49330 0.08800
C 	C 	0.12250 0.25470 0.49580 -0.15000
C 	C 	0.19960 0.28850 0.50830 0.08800
C 	C 	0.23870 0.36610 0.51960 -0.13900
C 	C 	0.19810 0.40820 0.51750 0.08600
C 	C 	0.07520 0.42170 0.50010 0.39600
C 	C 	0.08240 0.17470 0.49150 0.43500
C 	C 	0.32250 0.40070 0.53340 0.37600
C 	C 	0.49710 0.87240 0.61650 -0.15100
C 	C 	0.50670 0.80480 0.58910 0.09300
C 	C 	0.50420 0.75890 0.62670 -0.16100
C 	C 	0.49170 0.78020 0.69130 0.09500
C 	C 	0.48040 0.84650 0.71910 -0.15300
C 	C 	0.48250 0.89070 0.68060 0.09300
C 	C 	0.49990 0.92160 0.57510 0.39900
C 	C 	0.50850 0.68320 0.59090 0.43800
C 	C 	0.46660 0.86730 0.78910 0.38000
C 	C 	0.50290 0.11940 0.37530 -0.12900
C 	C 	0.49330 0.08240 0.29810 0.08200
C 	C 	0.49580 0.12250 0.25470 -0.14000
C 	C 	0.50830 0.19960 0.28850 0.08400
C 	C 	0.51960 0.23870 0.36610 -0.13300
C 	C 	0.51750 0.19810 0.40820 0.08200
C 	C 	0.50010 0.07520 0.42170 0.39300
C 	C 	0.49150 0.08240 0.17470 0.43200
C 	C 	0.53340 0.32250 0.40070 0.37500
C 	C 	0.25590 0.88060 0.38350 -0.14800
C 	C 	0.21570 0.91760 0.41090 0.09300
C 	C 	0.13220 0.87750 0.37330 -0.16100
C 	C 	0.08890 0.80040 0.30870 0.09300
C 	C 	0.12740 0.76130 0.28090 -0.14400
C 	C 	0.21010 0.80190 0.31940 0.09000
C 	C 	0.34650 0.92480 0.42490 0.39900
C 	C 	0.09230 0.91760 0.40910 0.43900
C 	C 	0.07820 0.67750 0.21090 0.37700
C 	C 	0.74410 0.12760 0.62470 -0.13400
C 	C 	0.78430 0.19520 0.70190 0.08700
C 	C 	0.86780 0.24110 0.74530 -0.15200
C 	C 	0.91110 0.21980 0.71150 0.08800
C 	C 	0.87260 0.15350 0.63390 -0.13500
C 	C 	0.78990 0.10930 0.59180 0.08400
C 	C 	0.65350 0.07840 0.57830 0.39400
C 	C 	0.90770 0.31680 0.82530 0.43700
C 	C 	0.92180 0.13270 0.59930 0.37400
C 	C 	0.62470 0.74410 0.12760 -0.13700
C 	C 	0.70190 0.78430 0.19520 0.08900
C 	C 	0.74530 0.86780 0.24110 -0.15600
C 	C 	0.71150 0.91110 0.21980 0.09100
C 	C 	0.63390 0.87260 0.15350 -0.14300
C 	C 	0.59180 0.78990 0.10930 0.08600
C 	C 	0.57830 0.65350 0.07840 0.39400
C 	C 	0.82530 0.90770 0.31680 0.43800
C 	C 	0.59930 0.92180 0.13270 0.37700
C 	C 	0.38350 0.25590 0.88060 -0.14600
C 	C 	0.41090 0.21570 0.91760 0.09100
C 	C 	0.37330 0.13220 0.87750 -0.15500
C 	C 	0.30870 0.08890 0.80040 0.09000
C 	C 	0.28090 0.12740 0.76130 -0.13900
C 	C 	0.31940 0.21010 0.80190 0.08800
C 	C 	0.42490 0.34650 0.92480 0.39800
C 	C 	0.40910 0.09230 0.91760 0.43700
C 	C 	0.21090 0.07820 0.67750 0.37500
C 	C 	0.37530 0.50290 0.11940 -0.13200
C 	C 	0.29810 0.49330 0.08240 0.08500
C 	C 	0.25470 0.49580 0.12250 -0.14500
C 	C 	0.28850 0.50830 0.19960 0.08700
C 	C 	0.36610 0.51960 0.23870 -0.13700
C 	C 	0.40820 0.51750 0.19810 0.08400
C 	C 	0.42170 0.50010 0.07520 0.39300
C 	C 	0.17470 0.49150 0.08240 0.43400
C 	C 	0.40070 0.53340 0.32250 0.37600
C 	C 	0.61650 0.49710 0.87240 -0.14800
C 	C 	0.58910 0.50670 0.80480 0.09200
C 	C 	0.62670 0.50420 0.75890 -0.15800
C 	C 	0.69130 0.49170 0.78020 0.09300
C 	C 	0.71910 0.48040 0.84650 -0.14800
C 	C 	0.68060 0.48250 0.89070 0.09200
C 	C 	0.57510 0.49990 0.92160 0.39800
C 	C 	0.59090 0.50850 0.68320 0.43800
C 	C 	0.78910 0.46660 0.86730 0.37900
O 	O 	0.99421 0.48535 0.38306 -0.40700
O 	O 	0.88883 0.39774 0.37849 -0.39600
O 	O 	0.98884 0.46260 0.13504 -0.49600
O 	O 	0.87457 0.37870 0.01707 -0.46900
O 	O 	0.64030 0.17720 0.00590 -0.30100
O 	O 	0.64560 0.19370 0.11970 -0.44300
O 	O 	0.10229 0.61115 0.61694 -0.41600
O 	O 	0.01925 0.51034 0.62151 -0.40500
O 	O 	0.32756 0.85380 0.86496 -0.52000
O 	O 	0.36163 0.85750 0.98293 -0.51800
O 	O 	0.17130 0.63440 0.99410 -0.34500
O 	O 	0.07400 0.52590 0.88030 -0.46400
O 	O 	0.89771 0.51465 0.50886 -0.41000
O 	O 	0.98075 0.60226 0.49109 -0.39800
O 	O 	0.67244 0.53740 0.52624 -0.50600
O 	O 	0.63837 0.62130 0.49587 -0.49100
O 	O 	0.82870 0.82280 0.46310 -0.33300
O 	O 	0.92600 0.80630 0.45190 -0.45600
O 	O 	0.00579 0.38885 0.49114 -0.41500
O 	O 	0.11117 0.48966 0.50891 -0.40200
O 	O 	0.01116 0.14620 0.47376 -0.50300
O 	O 	0.12543 0.14250 0.50413 -0.48300
O 	O 	0.35970 0.36560 0.53690 -0.32100
O 	O 	0.35440 0.47410 0.54810 -0.45300
O 	O 	0.50886 0.89771 0.51465 -0.42200
O 	O 	0.49109 0.98075 0.60226 -0.41700
O 	O 	0.52624 0.67244 0.53740 -0.50800
O 	O 	0.49587 0.63837 0.62130 -0.49200
O 	O 	0.46310 0.82870 0.82280 -0.33700
O 	O 	0.45190 0.92600 0.80630 -0.47000
O 	O 	0.49114 0.00579 0.38885 -0.39300
O 	O 	0.50891 0.11117 0.48966 -0.39200
O 	O 	0.47376 0.01116 0.14620 -0.48000
O 	O 	0.50413 0.12543 0.14250 -0.47600
O 	O 	0.53690 0.35970 0.36560 -0.32000
O 	O 	0.54810 0.35440 0.47410 -0.45100
O 	O 	0.38306 0.99421 0.48535 -0.43000
O 	O 	0.37849 0.88883 0.39774 -0.40700
O 	O 	0.13504 0.98884 0.46260 -0.52500
O 	O 	0.01707 0.87457 0.37870 -0.49800
O 	O 	0.00590 0.64030 0.17720 -0.32200
O 	O 	0.11970 0.64560 0.19370 -0.45100
O 	O 	0.61694 0.10229 0.61115 -0.40400
O 	O 	0.62151 0.01925 0.51034 -0.38400
O 	O 	0.86496 0.32756 0.85380 -0.51100
O 	O 	0.98293 0.36163 0.85750 -0.49300
O 	O 	0.99410 0.17130 0.63440 -0.31900
O 	O 	0.88030 0.07400 0.52590 -0.44100
O 	O 	0.61115 0.61694 0.10229 -0.40400
O 	O 	0.51034 0.62151 0.01925 -0.38500
O 	O 	0.85380 0.86496 0.32756 -0.50800
O 	O 	0.85750 0.98293 0.36163 -0.50600
O 	O 	0.63440 0.99410 0.17130 -0.33900
O 	O 	0.52590 0.88030 0.07400 -0.45000
O 	O 	0.48535 0.38306 0.99421 -0.43000
O 	O 	0.39774 0.37849 0.88883 -0.40800
O 	O 	0.46260 0.13504 0.98884 -0.52200
O 	O 	0.37870 0.01707 0.87457 -0.48000
O 	O 	0.17720 0.00590 0.64030 -0.31200
O 	O 	0.19370 0.11970 0.64560 -0.45000
O 	O 	0.38885 0.49114 0.00579 -0.39400
O 	O 	0.48966 0.50891 0.11117 -0.39200
O 	O 	0.14620 0.47376 0.01116 -0.48800
O 	O 	0.14250 0.50413 0.12543 -0.48500
O 	O 	0.36560 0.53690 0.35970 -0.32300
O 	O 	0.47410 0.54810 0.35440 -0.45200
O 	O 	0.51465 0.50886 0.89771 -0.42100
O 	O 	0.60226 0.49109 0.98075 -0.41600
O 	O 	0.53740 0.52624 0.67244 -0.50700
O 	O 	0.62130 0.49587 0.63837 -0.49000
O 	O 	0.82280 0.46310 0.82870 -0.32800
O 	O 	0.80630 0.45190 0.92600 -0.46300
O 	O 	0.00000 0.50826 -0.00000 -0.72200
O 	O 	0.50826 0.00000 -0.00000 -0.69900
O 	O 	0.49174 0.49174 0.49174 -0.73900
O 	O 	1.00000 -0.00000 0.50826 -0.71700
