data_crystal

_cell_length_a 23.30240
_cell_length_b 23.30240
_cell_length_c 23.30240
_cell_angle_alpha 90.00000
_cell_angle_beta  90.00000
_cell_angle_gamma 90.00000

_symmetry_space_group_name_	'P 1'
_symmetry_space_group_name_H-M	'P 1'

loop_
_symmetry_equiv_pos_as_xyz
  x,y,z

loop_
_atom_site_label
_atom_site_type_symbol
_atom_site_fract_x
_atom_site_fract_y
_atom_site_fract_z
_atom_site_charge
Zn	Zn	0.17884 0.70760 0.76299 1.23000
O 	O 	0.05440 0.56410 0.95340 -0.43300
O 	O 	0.06490 0.55790 0.04790 -0.47000
O 	O 	0.16900 0.69560 0.84450 -0.51400
O 	O 	0.24290 0.74200 0.88520 -0.48400
O 	O 	0.26250 0.73350 0.09860 -0.33500
O 	O 	0.21310 0.66790 0.14380 -0.46300
C 	C 	0.12220 0.62290 0.99850 -0.00200
C 	C 	0.13720 0.64770 0.94680 0.02200
H 	H 	0.11820 0.63710 0.91330 0.05500
C 	C 	0.18100 0.68870 0.94490 -0.11800
C 	C 	0.20800 0.70690 0.99240 0.11100
H 	H 	0.23520 0.73610 0.99060 0.04100
C 	C 	0.19390 0.68030 0.04610 -0.14000
C 	C 	0.15040 0.63990 0.04890 -0.03300
H 	H 	0.13990 0.62420 0.08410 0.06800
C 	C 	0.07630 0.57820 0.00190 0.29300
C 	C 	0.19810 0.71060 0.88470 0.42400
C 	C 	0.22490 0.69850 0.10010 0.36700
Zn	Zn	0.67884 0.20760 0.26299 1.22900
O 	O 	0.55440 0.06410 0.45340 -0.49500
O 	O 	0.56490 0.05790 0.54790 -0.50100
O 	O 	0.66900 0.19560 0.34450 -0.51800
O 	O 	0.74290 0.24200 0.38520 -0.49100
O 	O 	0.76250 0.23350 0.59860 -0.32100
O 	O 	0.71310 0.16790 0.64380 -0.46200
C 	C 	0.62220 0.12290 0.49850 -0.15500
C 	C 	0.63720 0.14770 0.44680 0.08500
H 	H 	0.61820 0.13710 0.41330 0.03000
C 	C 	0.68100 0.18870 0.44490 -0.14100
C 	C 	0.70800 0.20690 0.49240 0.07300
H 	H 	0.73520 0.23610 0.49060 0.03800
C 	C 	0.69390 0.18030 0.54610 -0.12600
C 	C 	0.65040 0.13990 0.54890 0.07700
H 	H 	0.63990 0.12420 0.58410 0.03500
C 	C 	0.57630 0.07820 0.50190 0.43700
C 	C 	0.69810 0.21060 0.38470 0.42700
C 	C 	0.72490 0.19850 0.60010 0.36900
Zn	Zn	0.82116 0.29240 0.76299 1.23000
O 	O 	0.94560 0.43590 0.95340 -0.39800
O 	O 	0.93510 0.44210 0.04790 -0.43900
O 	O 	0.83100 0.30440 0.84450 -0.50900
O 	O 	0.75710 0.25800 0.88520 -0.48500
O 	O 	0.73750 0.26650 0.09860 -0.33600
O 	O 	0.78690 0.33210 0.14380 -0.45900
C 	C 	0.87780 0.37710 0.99850 0.01400
C 	C 	0.86280 0.35230 0.94680 0.01600
H 	H 	0.88180 0.36290 0.91330 0.06500
C 	C 	0.81900 0.31130 0.94490 -0.11000
C 	C 	0.79200 0.29310 0.99240 0.10700
H 	H 	0.76480 0.26390 0.99060 0.04200
C 	C 	0.80610 0.31970 0.04610 -0.13400
C 	C 	0.84960 0.36010 0.04890 -0.03800
H 	H 	0.86010 0.37580 0.08410 0.07700
C 	C 	0.92370 0.42180 0.00190 0.28700
C 	C 	0.80190 0.28940 0.88470 0.42200
C 	C 	0.77510 0.30150 0.10010 0.36600
Zn	Zn	0.32116 0.79240 0.26299 1.22900
O 	O 	0.44560 0.93590 0.45340 -0.46300
O 	O 	0.43510 0.94210 0.54790 -0.46600
O 	O 	0.33100 0.80440 0.34450 -0.51400
O 	O 	0.25710 0.75800 0.38520 -0.49100
O 	O 	0.23750 0.76650 0.59860 -0.32200
O 	O 	0.28690 0.83210 0.64380 -0.45500
C 	C 	0.37780 0.87710 0.49850 -0.13900
C 	C 	0.36280 0.85230 0.44680 0.08000
H 	H 	0.38180 0.86290 0.41330 0.03900
C 	C 	0.31900 0.81130 0.44490 -0.13300
C 	C 	0.29200 0.79310 0.49240 0.07000
H 	H 	0.26480 0.76390 0.49060 0.03900
C 	C 	0.30610 0.81970 0.54610 -0.11800
C 	C 	0.34960 0.86010 0.54890 0.07200
H 	H 	0.36010 0.87580 0.58410 0.04500
C 	C 	0.42370 0.92180 0.50190 0.43000
C 	C 	0.30190 0.78940 0.38470 0.42700
C 	C 	0.27510 0.80150 0.60010 0.36800
Zn	Zn	0.82116 0.70760 0.23701 1.23000
O 	O 	0.94560 0.56410 0.04660 -0.52400
O 	O 	0.93510 0.55790 0.95210 -0.49600
O 	O 	0.83100 0.69560 0.15550 -0.51500
O 	O 	0.75710 0.74200 0.11480 -0.49500
O 	O 	0.73750 0.73350 0.90140 -0.30400
O 	O 	0.78690 0.66790 0.85620 -0.45300
C 	C 	0.87780 0.62290 0.00150 -0.28900
C 	C 	0.86280 0.64770 0.05320 0.14300
H 	H 	0.88180 0.63710 0.08670 0.01500
C 	C 	0.81900 0.68870 0.05510 -0.15300
C 	C 	0.79200 0.70690 0.00760 0.03300
H 	H 	0.76480 0.73610 0.00940 0.04000
C 	C 	0.80610 0.68030 0.95390 -0.10100
C 	C 	0.84960 0.63990 0.95110 0.18200
H 	H 	0.86010 0.62420 0.91590 0.01300
C 	C 	0.92370 0.57820 0.99810 0.57500
C 	C 	0.80190 0.71060 0.11530 0.43100
C 	C 	0.77510 0.69850 0.89990 0.37100
Zn	Zn	0.32116 0.20760 0.73701 1.22900
O 	O 	0.44560 0.06410 0.54660 -0.49500
O 	O 	0.43510 0.05790 0.45210 -0.50100
O 	O 	0.33100 0.19560 0.65550 -0.51900
O 	O 	0.25710 0.24200 0.61480 -0.49400
O 	O 	0.23750 0.23350 0.40140 -0.32500
O 	O 	0.28690 0.16790 0.35620 -0.46300
C 	C 	0.37780 0.12290 0.50150 -0.15600
C 	C 	0.36280 0.14770 0.55320 0.08600
H 	H 	0.38180 0.13710 0.58670 0.03000
C 	C 	0.31900 0.18870 0.55510 -0.14200
C 	C 	0.29200 0.20690 0.50760 0.07400
H 	H 	0.26480 0.23610 0.50940 0.03600
C 	C 	0.30610 0.18030 0.45390 -0.12800
C 	C 	0.34960 0.13990 0.45110 0.07800
H 	H 	0.36010 0.12420 0.41590 0.03500
C 	C 	0.42370 0.07820 0.49810 0.43700
C 	C 	0.30190 0.21060 0.61530 0.42800
C 	C 	0.27510 0.19850 0.39990 0.37000
Zn	Zn	0.17884 0.29240 0.23701 1.22800
O 	O 	0.05440 0.43590 0.04660 -0.56000
O 	O 	0.06490 0.44210 0.95210 -0.52900
O 	O 	0.16900 0.30440 0.15550 -0.52500
O 	O 	0.24290 0.25800 0.11480 -0.50100
O 	O 	0.26250 0.26650 0.90140 -0.31200
O 	O 	0.21310 0.33210 0.85620 -0.45900
C 	C 	0.12220 0.37710 0.00150 -0.30800
C 	C 	0.13720 0.35230 0.05320 0.15000
H 	H 	0.11820 0.36290 0.08670 0.00300
C 	C 	0.18100 0.31130 0.05510 -0.16700
C 	C 	0.20800 0.29310 0.00760 0.03800
H 	H 	0.23520 0.26390 0.00940 0.03200
C 	C 	0.19390 0.31970 0.95390 -0.11300
C 	C 	0.15040 0.36010 0.95110 0.18800
H 	H 	0.13990 0.37580 0.91590 0.00200
C 	C 	0.07630 0.42180 0.99810 0.58000
C 	C 	0.19810 0.28940 0.11530 0.43200
C 	C 	0.22490 0.30150 0.89990 0.37100
Zn	Zn	0.67884 0.79240 0.73701 1.23000
O 	O 	0.55440 0.93590 0.54660 -0.46300
O 	O 	0.56490 0.94210 0.45210 -0.46600
O 	O 	0.66900 0.80440 0.65550 -0.51300
O 	O 	0.74290 0.75800 0.61480 -0.48900
O 	O 	0.76250 0.76650 0.40140 -0.31900
O 	O 	0.71310 0.83210 0.35620 -0.45400
C 	C 	0.62220 0.87710 0.50150 -0.13800
C 	C 	0.63720 0.85230 0.55320 0.08000
H 	H 	0.61820 0.86290 0.58670 0.03900
C 	C 	0.68100 0.81130 0.55510 -0.13200
C 	C 	0.70800 0.79310 0.50760 0.06900
H 	H 	0.73520 0.76390 0.50940 0.04100
C 	C 	0.69390 0.81970 0.45390 -0.11600
C 	C 	0.65040 0.86010 0.45110 0.07200
H 	H 	0.63990 0.87580 0.41590 0.04500
C 	C 	0.57630 0.92180 0.49810 0.43000
C 	C 	0.69810 0.78940 0.61530 0.42700
C 	C 	0.72490 0.80150 0.39990 0.36700
Zn	Zn	0.76299 0.17884 0.70760 1.22900
O 	O 	0.95340 0.05440 0.56410 -0.43400
O 	O 	0.04790 0.06490 0.55790 -0.47100
O 	O 	0.84450 0.16900 0.69560 -0.51500
O 	O 	0.88520 0.24290 0.74200 -0.48500
O 	O 	0.09860 0.26250 0.73350 -0.33500
O 	O 	0.14380 0.21310 0.66790 -0.46300
C 	C 	0.99850 0.12220 0.62290 -0.00200
C 	C 	0.94680 0.13720 0.64770 0.02200
H 	H 	0.91330 0.11820 0.63710 0.05500
C 	C 	0.94490 0.18100 0.68870 -0.11800
C 	C 	0.99240 0.20800 0.70690 0.11100
H 	H 	0.99060 0.23520 0.73610 0.04100
C 	C 	0.04610 0.19390 0.68030 -0.14000
C 	C 	0.04890 0.15040 0.63990 -0.03300
H 	H 	0.08410 0.13990 0.62420 0.06800
C 	C 	0.00190 0.07630 0.57820 0.29300
C 	C 	0.88470 0.19810 0.71060 0.42400
C 	C 	0.10010 0.22490 0.69850 0.36700
Zn	Zn	0.26299 0.67884 0.20760 1.22900
O 	O 	0.45340 0.55440 0.06410 -0.49500
O 	O 	0.54790 0.56490 0.05790 -0.50100
O 	O 	0.34450 0.66900 0.19560 -0.51800
O 	O 	0.38520 0.74290 0.24200 -0.49100
O 	O 	0.59860 0.76250 0.23350 -0.32100
O 	O 	0.64380 0.71310 0.16790 -0.46200
C 	C 	0.49850 0.62220 0.12290 -0.15500
C 	C 	0.44680 0.63720 0.14770 0.08500
H 	H 	0.41330 0.61820 0.13710 0.03000
C 	C 	0.44490 0.68100 0.18870 -0.14100
C 	C 	0.49240 0.70800 0.20690 0.07300
H 	H 	0.49060 0.73520 0.23610 0.03800
C 	C 	0.54610 0.69390 0.18030 -0.12600
C 	C 	0.54890 0.65040 0.13990 0.07700
H 	H 	0.58410 0.63990 0.12420 0.03500
C 	C 	0.50190 0.57630 0.07820 0.43700
C 	C 	0.38470 0.69810 0.21060 0.42700
C 	C 	0.60010 0.72490 0.19850 0.36900
Zn	Zn	0.76299 0.82116 0.29240 1.23000
O 	O 	0.95340 0.94560 0.43590 -0.39800
O 	O 	0.04790 0.93510 0.44210 -0.43900
O 	O 	0.84450 0.83100 0.30440 -0.50900
O 	O 	0.88520 0.75710 0.25800 -0.48500
O 	O 	0.09860 0.73750 0.26650 -0.33600
O 	O 	0.14380 0.78690 0.33210 -0.45900
C 	C 	0.99850 0.87780 0.37710 0.01400
C 	C 	0.94680 0.86280 0.35230 0.01600
H 	H 	0.91330 0.88180 0.36290 0.06500
C 	C 	0.94490 0.81900 0.31130 -0.11000
C 	C 	0.99240 0.79200 0.29310 0.10700
H 	H 	0.99060 0.76480 0.26390 0.04200
C 	C 	0.04610 0.80610 0.31970 -0.13400
C 	C 	0.04890 0.84960 0.36010 -0.03800
H 	H 	0.08410 0.86010 0.37580 0.07700
C 	C 	0.00190 0.92370 0.42180 0.28700
C 	C 	0.88470 0.80190 0.28940 0.42200
C 	C 	0.10010 0.77510 0.30150 0.36600
Zn	Zn	0.26299 0.32116 0.79240 1.22900
O 	O 	0.45340 0.44560 0.93590 -0.46300
O 	O 	0.54790 0.43510 0.94210 -0.46600
O 	O 	0.34450 0.33100 0.80440 -0.51400
O 	O 	0.38520 0.25710 0.75800 -0.49100
O 	O 	0.59860 0.23750 0.76650 -0.32200
O 	O 	0.64380 0.28690 0.83210 -0.45500
C 	C 	0.49850 0.37780 0.87710 -0.13900
C 	C 	0.44680 0.36280 0.85230 0.08000
H 	H 	0.41330 0.38180 0.86290 0.03900
C 	C 	0.44490 0.31900 0.81130 -0.13300
C 	C 	0.49240 0.29200 0.79310 0.07000
H 	H 	0.49060 0.26480 0.76390 0.03900
C 	C 	0.54610 0.30610 0.81970 -0.11800
C 	C 	0.54890 0.34960 0.86010 0.07200
H 	H 	0.58410 0.36010 0.87580 0.04500
C 	C 	0.50190 0.42370 0.92180 0.43000
C 	C 	0.38470 0.30190 0.78940 0.42700
C 	C 	0.60010 0.27510 0.80150 0.36800
Zn	Zn	0.23701 0.82116 0.70760 1.23000
O 	O 	0.04660 0.94560 0.56410 -0.52400
O 	O 	0.95210 0.93510 0.55790 -0.49600
O 	O 	0.15550 0.83100 0.69560 -0.51500
O 	O 	0.11480 0.75710 0.74200 -0.49500
O 	O 	0.90140 0.73750 0.73350 -0.30400
O 	O 	0.85620 0.78690 0.66790 -0.45300
C 	C 	0.00150 0.87780 0.62290 -0.28900
C 	C 	0.05320 0.86280 0.64770 0.14300
H 	H 	0.08670 0.88180 0.63710 0.01500
C 	C 	0.05510 0.81900 0.68870 -0.15300
C 	C 	0.00760 0.79200 0.70690 0.03300
H 	H 	0.00940 0.76480 0.73610 0.04000
C 	C 	0.95390 0.80610 0.68030 -0.10100
C 	C 	0.95110 0.84960 0.63990 0.18200
H 	H 	0.91590 0.86010 0.62420 0.01300
C 	C 	0.99810 0.92370 0.57820 0.57500
C 	C 	0.11530 0.80190 0.71060 0.43100
C 	C 	0.89990 0.77510 0.69850 0.37100
Zn	Zn	0.73701 0.32116 0.20760 1.22900
O 	O 	0.54660 0.44560 0.06410 -0.49500
O 	O 	0.45210 0.43510 0.05790 -0.50100
O 	O 	0.65550 0.33100 0.19560 -0.51900
O 	O 	0.61480 0.25710 0.24200 -0.49400
O 	O 	0.40140 0.23750 0.23350 -0.32500
O 	O 	0.35620 0.28690 0.16790 -0.46300
C 	C 	0.50150 0.37780 0.12290 -0.15600
C 	C 	0.55320 0.36280 0.14770 0.08600
H 	H 	0.58670 0.38180 0.13710 0.03000
C 	C 	0.55510 0.31900 0.18870 -0.14200
C 	C 	0.50760 0.29200 0.20690 0.07400
H 	H 	0.50940 0.26480 0.23610 0.03600
C 	C 	0.45390 0.30610 0.18030 -0.12800
C 	C 	0.45110 0.34960 0.13990 0.07800
H 	H 	0.41590 0.36010 0.12420 0.03500
C 	C 	0.49810 0.42370 0.07820 0.43700
C 	C 	0.61530 0.30190 0.21060 0.42800
C 	C 	0.39990 0.27510 0.19850 0.37000
Zn	Zn	0.23701 0.17884 0.29240 1.22800
O 	O 	0.04660 0.05440 0.43590 -0.56000
O 	O 	0.95210 0.06490 0.44210 -0.52900
O 	O 	0.15550 0.16900 0.30440 -0.52500
O 	O 	0.11480 0.24290 0.25800 -0.50100
O 	O 	0.90140 0.26250 0.26650 -0.31200
O 	O 	0.85620 0.21310 0.33210 -0.45900
C 	C 	0.00150 0.12220 0.37710 -0.30800
C 	C 	0.05320 0.13720 0.35230 0.15000
H 	H 	0.08670 0.11820 0.36290 0.00300
C 	C 	0.05510 0.18100 0.31130 -0.16700
C 	C 	0.00760 0.20800 0.29310 0.03800
H 	H 	0.00940 0.23520 0.26390 0.03200
C 	C 	0.95390 0.19390 0.31970 -0.11300
C 	C 	0.95110 0.15040 0.36010 0.18800
H 	H 	0.91590 0.13990 0.37580 0.00200
C 	C 	0.99810 0.07630 0.42180 0.58000
C 	C 	0.11530 0.19810 0.28940 0.43200
C 	C 	0.89990 0.22490 0.30150 0.37100
Zn	Zn	0.73701 0.67884 0.79240 1.23000
O 	O 	0.54660 0.55440 0.93590 -0.46300
O 	O 	0.45210 0.56490 0.94210 -0.46600
O 	O 	0.65550 0.66900 0.80440 -0.51300
O 	O 	0.61480 0.74290 0.75800 -0.48900
O 	O 	0.40140 0.76250 0.76650 -0.31900
O 	O 	0.35620 0.71310 0.83210 -0.45400
C 	C 	0.50150 0.62220 0.87710 -0.13800
C 	C 	0.55320 0.63720 0.85230 0.08000
H 	H 	0.58670 0.61820 0.86290 0.03900
C 	C 	0.55510 0.68100 0.81130 -0.13200
C 	C 	0.50760 0.70800 0.79310 0.06900
H 	H 	0.50940 0.73520 0.76390 0.04100
C 	C 	0.45390 0.69390 0.81970 -0.11600
C 	C 	0.45110 0.65040 0.86010 0.07200
H 	H 	0.41590 0.63990 0.87580 0.04500
C 	C 	0.49810 0.57630 0.92180 0.43000
C 	C 	0.61530 0.69810 0.78940 0.42700
C 	C 	0.39990 0.72490 0.80150 0.36700
Zn	Zn	0.70760 0.76299 0.17884 1.22900
O 	O 	0.56410 0.95340 0.05440 -0.43400
O 	O 	0.55790 0.04790 0.06490 -0.47100
O 	O 	0.69560 0.84450 0.16900 -0.51500
O 	O 	0.74200 0.88520 0.24290 -0.48500
O 	O 	0.73350 0.09860 0.26250 -0.33500
O 	O 	0.66790 0.14380 0.21310 -0.46300
C 	C 	0.62290 0.99850 0.12220 -0.00200
C 	C 	0.64770 0.94680 0.13720 0.02200
H 	H 	0.63710 0.91330 0.11820 0.05500
C 	C 	0.68870 0.94490 0.18100 -0.11800
C 	C 	0.70690 0.99240 0.20800 0.11100
H 	H 	0.73610 0.99060 0.23520 0.04100
C 	C 	0.68030 0.04610 0.19390 -0.14000
C 	C 	0.63990 0.04890 0.15040 -0.03300
H 	H 	0.62420 0.08410 0.13990 0.06800
C 	C 	0.57820 0.00190 0.07630 0.29300
C 	C 	0.71060 0.88470 0.19810 0.42400
C 	C 	0.69850 0.10010 0.22490 0.36700
Zn	Zn	0.20760 0.26299 0.67884 1.22900
O 	O 	0.06410 0.45340 0.55440 -0.49500
O 	O 	0.05790 0.54790 0.56490 -0.50100
O 	O 	0.19560 0.34450 0.66900 -0.51800
O 	O 	0.24200 0.38520 0.74290 -0.49100
O 	O 	0.23350 0.59860 0.76250 -0.32100
O 	O 	0.16790 0.64380 0.71310 -0.46200
C 	C 	0.12290 0.49850 0.62220 -0.15500
C 	C 	0.14770 0.44680 0.63720 0.08500
H 	H 	0.13710 0.41330 0.61820 0.03000
C 	C 	0.18870 0.44490 0.68100 -0.14100
C 	C 	0.20690 0.49240 0.70800 0.07300
H 	H 	0.23610 0.49060 0.73520 0.03800
C 	C 	0.18030 0.54610 0.69390 -0.12600
C 	C 	0.13990 0.54890 0.65040 0.07700
H 	H 	0.12420 0.58410 0.63990 0.03500
C 	C 	0.07820 0.50190 0.57630 0.43700
C 	C 	0.21060 0.38470 0.69810 0.42700
C 	C 	0.19850 0.60010 0.72490 0.36900
Zn	Zn	0.29240 0.76299 0.82116 1.23000
O 	O 	0.43590 0.95340 0.94560 -0.39800
O 	O 	0.44210 0.04790 0.93510 -0.43900
O 	O 	0.30440 0.84450 0.83100 -0.50900
O 	O 	0.25800 0.88520 0.75710 -0.48500
O 	O 	0.26650 0.09860 0.73750 -0.33600
O 	O 	0.33210 0.14380 0.78690 -0.45900
C 	C 	0.37710 0.99850 0.87780 0.01400
C 	C 	0.35230 0.94680 0.86280 0.01600
H 	H 	0.36290 0.91330 0.88180 0.06500
C 	C 	0.31130 0.94490 0.81900 -0.11000
C 	C 	0.29310 0.99240 0.79200 0.10700
H 	H 	0.26390 0.99060 0.76480 0.04200
C 	C 	0.31970 0.04610 0.80610 -0.13400
C 	C 	0.36010 0.04890 0.84960 -0.03800
H 	H 	0.37580 0.08410 0.86010 0.07700
C 	C 	0.42180 0.00190 0.92370 0.28700
C 	C 	0.28940 0.88470 0.80190 0.42200
C 	C 	0.30150 0.10010 0.77510 0.36600
Zn	Zn	0.79240 0.26299 0.32116 1.22900
O 	O 	0.93590 0.45340 0.44560 -0.46300
O 	O 	0.94210 0.54790 0.43510 -0.46600
O 	O 	0.80440 0.34450 0.33100 -0.51400
O 	O 	0.75800 0.38520 0.25710 -0.49100
O 	O 	0.76650 0.59860 0.23750 -0.32200
O 	O 	0.83210 0.64380 0.28690 -0.45500
C 	C 	0.87710 0.49850 0.37780 -0.13900
C 	C 	0.85230 0.44680 0.36280 0.08000
H 	H 	0.86290 0.41330 0.38180 0.03900
C 	C 	0.81130 0.44490 0.31900 -0.13300
C 	C 	0.79310 0.49240 0.29200 0.07000
H 	H 	0.76390 0.49060 0.26480 0.03900
C 	C 	0.81970 0.54610 0.30610 -0.11800
C 	C 	0.86010 0.54890 0.34960 0.07200
H 	H 	0.87580 0.58410 0.36010 0.04500
C 	C 	0.92180 0.50190 0.42370 0.43000
C 	C 	0.78940 0.38470 0.30190 0.42700
C 	C 	0.80150 0.60010 0.27510 0.36800
Zn	Zn	0.70760 0.23701 0.82116 1.23000
O 	O 	0.56410 0.04660 0.94560 -0.52400
O 	O 	0.55790 0.95210 0.93510 -0.49600
O 	O 	0.69560 0.15550 0.83100 -0.51500
O 	O 	0.74200 0.11480 0.75710 -0.49500
O 	O 	0.73350 0.90140 0.73750 -0.30400
O 	O 	0.66790 0.85620 0.78690 -0.45300
C 	C 	0.62290 0.00150 0.87780 -0.28900
C 	C 	0.64770 0.05320 0.86280 0.14300
H 	H 	0.63710 0.08670 0.88180 0.01500
C 	C 	0.68870 0.05510 0.81900 -0.15300
C 	C 	0.70690 0.00760 0.79200 0.03300
H 	H 	0.73610 0.00940 0.76480 0.04000
C 	C 	0.68030 0.95390 0.80610 -0.10100
C 	C 	0.63990 0.95110 0.84960 0.18200
H 	H 	0.62420 0.91590 0.86010 0.01300
C 	C 	0.57820 0.99810 0.92370 0.57500
C 	C 	0.71060 0.11530 0.80190 0.43100
C 	C 	0.69850 0.89990 0.77510 0.37100
Zn	Zn	0.20760 0.73701 0.32116 1.22900
O 	O 	0.06410 0.54660 0.44560 -0.49500
O 	O 	0.05790 0.45210 0.43510 -0.50100
O 	O 	0.19560 0.65550 0.33100 -0.51900
O 	O 	0.24200 0.61480 0.25710 -0.49400
O 	O 	0.23350 0.40140 0.23750 -0.32500
O 	O 	0.16790 0.35620 0.28690 -0.46300
C 	C 	0.12290 0.50150 0.37780 -0.15600
C 	C 	0.14770 0.55320 0.36280 0.08600
H 	H 	0.13710 0.58670 0.38180 0.03000
C 	C 	0.18870 0.55510 0.31900 -0.14200
C 	C 	0.20690 0.50760 0.29200 0.07400
H 	H 	0.23610 0.50940 0.26480 0.03600
C 	C 	0.18030 0.45390 0.30610 -0.12800
C 	C 	0.13990 0.45110 0.34960 0.07800
H 	H 	0.12420 0.41590 0.36010 0.03500
C 	C 	0.07820 0.49810 0.42370 0.43700
C 	C 	0.21060 0.61530 0.30190 0.42800
C 	C 	0.19850 0.39990 0.27510 0.37000
Zn	Zn	0.29240 0.23701 0.17884 1.22800
O 	O 	0.43590 0.04660 0.05440 -0.56000
O 	O 	0.44210 0.95210 0.06490 -0.52900
O 	O 	0.30440 0.15550 0.16900 -0.52500
O 	O 	0.25800 0.11480 0.24290 -0.50100
O 	O 	0.26650 0.90140 0.26250 -0.31200
O 	O 	0.33210 0.85620 0.21310 -0.45900
C 	C 	0.37710 0.00150 0.12220 -0.30800
C 	C 	0.35230 0.05320 0.13720 0.15000
H 	H 	0.36290 0.08670 0.11820 0.00300
C 	C 	0.31130 0.05510 0.18100 -0.16700
C 	C 	0.29310 0.00760 0.20800 0.03800
H 	H 	0.26390 0.00940 0.23520 0.03200
C 	C 	0.31970 0.95390 0.19390 -0.11300
C 	C 	0.36010 0.95110 0.15040 0.18800
H 	H 	0.37580 0.91590 0.13990 0.00200
C 	C 	0.42180 0.99810 0.07630 0.58000
C 	C 	0.28940 0.11530 0.19810 0.43200
C 	C 	0.30150 0.89990 0.22490 0.37100
Zn	Zn	0.79240 0.73701 0.67884 1.23000
O 	O 	0.93590 0.54660 0.55440 -0.46300
O 	O 	0.94210 0.45210 0.56490 -0.46600
O 	O 	0.80440 0.65550 0.66900 -0.51300
O 	O 	0.75800 0.61480 0.74290 -0.48900
O 	O 	0.76650 0.40140 0.76250 -0.31900
O 	O 	0.83210 0.35620 0.71310 -0.45400
C 	C 	0.87710 0.50150 0.62220 -0.13800
C 	C 	0.85230 0.55320 0.63720 0.08000
H 	H 	0.86290 0.58670 0.61820 0.03900
C 	C 	0.81130 0.55510 0.68100 -0.13200
C 	C 	0.79310 0.50760 0.70800 0.06900
H 	H 	0.76390 0.50940 0.73520 0.04100
C 	C 	0.81970 0.45390 0.69390 -0.11600
C 	C 	0.86010 0.45110 0.65040 0.07200
H 	H 	0.87580 0.41590 0.63990 0.04500
C 	C 	0.92180 0.49810 0.57630 0.43000
C 	C 	0.78940 0.61530 0.69810 0.42700
C 	C 	0.80150 0.39990 0.72490 0.36700
Zn	Zn	-0.00000 0.50000 0.93678 1.19100
Zn	Zn	0.50000 -0.00000 0.43678 1.18700
Zn	Zn	0.00000 0.50000 0.06322 1.18400
Zn	Zn	0.50000 -0.00000 0.56322 1.18700
Zn	Zn	0.93678 0.00000 0.50000 1.19100
Zn	Zn	0.43678 0.50000 -0.00000 1.18700
Zn	Zn	0.06322 0.00000 0.50000 1.18400
Zn	Zn	0.56322 0.50000 -0.00000 1.18700
Zn	Zn	0.50000 0.93678 -0.00000 1.19100
Zn	Zn	-0.00000 0.43678 0.50000 1.18700
Zn	Zn	0.50000 0.06322 -0.00000 1.18400
Zn	Zn	-0.00000 0.56322 0.50000 1.18700
O 	O 	0.25110 0.74890 0.74890 -0.71700
O 	O 	0.75110 0.24890 0.24890 -0.71900
O 	O 	0.74890 0.25110 0.74890 -0.71700
O 	O 	0.24890 0.75110 0.24890 -0.71900
O 	O 	0.74890 0.74890 0.25110 -0.71700
O 	O 	0.24890 0.24890 0.75110 -0.71900
O 	O 	0.25110 0.25110 0.25110 -0.71900
O 	O 	0.75110 0.75110 0.75110 -0.71400
