data_crystal

_cell_length_a 34.57260
_cell_length_b 34.57260
_cell_length_c 34.57260
_cell_angle_alpha 60.00000
_cell_angle_beta  60.00000
_cell_angle_gamma 60.00000

_symmetry_space_group_name_	'P 1'
_symmetry_space_group_name_H-M	'P 1'

loop_
_symmetry_equiv_pos_as_xyz
  x,y,z

loop_
_atom_site_label
_atom_site_type_symbol
_atom_site_fract_x
_atom_site_fract_y
_atom_site_fract_z
_atom_site_charge
Cu	Cu	0.77050 1.00000 -0.00000 0.89700
Cu	Cu	0.69360 0.00000 -0.00000 0.86100
Cu	Cu	1.00000 0.77050 0.22950 0.92800
Cu	Cu	-0.00000 0.69360 0.30640 0.87900
Cu	Cu	-0.00000 0.22950 0.77050 0.88900
Cu	Cu	1.00000 0.30640 0.69360 0.92000
Cu	Cu	0.22950 0.00000 -0.00000 0.86900
Cu	Cu	0.30640 0.00000 -0.00000 0.86100
Cu	Cu	0.77050 1.00000 0.22950 0.92100
Cu	Cu	0.69360 -0.00000 0.30640 0.88700
Cu	Cu	-0.00000 0.22950 -0.00000 0.86100
Cu	Cu	-0.00000 0.30640 -0.00000 0.85300
Cu	Cu	-0.00000 0.77050 -0.00000 0.86400
Cu	Cu	-0.00000 0.69360 -0.00000 0.85400
Cu	Cu	0.22950 1.00000 0.77050 0.92100
Cu	Cu	0.30640 1.00000 0.69360 0.91100
Cu	Cu	0.77050 0.22950 -0.00000 0.88300
Cu	Cu	0.69360 0.30640 -0.00000 0.87300
Cu	Cu	-0.00000 -0.00000 0.77050 0.87900
Cu	Cu	-0.00000 -0.00000 0.69360 0.86900
Cu	Cu	-0.00000 -0.00000 0.22950 0.87500
Cu	Cu	-0.00000 -0.00000 0.30640 0.86800
Cu	Cu	0.22950 0.77050 -0.00000 0.88200
Cu	Cu	0.30640 0.69360 -0.00000 0.87300
H 	H 	0.73560 0.85560 0.02440 0.06700
H 	H 	0.85560 0.73560 0.38440 0.07600
H 	H 	0.02440 0.38440 0.73560 0.06700
H 	H 	0.38440 0.02440 0.85560 0.07400
H 	H 	0.73560 0.02440 0.38440 0.06800
H 	H 	0.85560 0.38440 0.02440 0.06800
H 	H 	0.02440 0.73560 0.85560 0.07300
H 	H 	0.38440 0.85560 0.73560 0.07500
H 	H 	0.73560 0.38440 0.85560 0.07900
H 	H 	0.85560 0.02440 0.73560 0.07400
H 	H 	0.02440 0.85560 0.38440 0.06800
H 	H 	0.38440 0.73560 0.02440 0.06400
H 	H 	0.14440 0.26440 0.97560 0.07500
H 	H 	0.26440 0.14440 0.61560 0.06700
H 	H 	0.61560 0.97560 0.26440 0.07300
H 	H 	0.97560 0.61560 0.14440 0.07100
H 	H 	0.97560 0.26440 0.61560 0.07600
H 	H 	0.61560 0.14440 0.97560 0.07700
H 	H 	0.26440 0.97560 0.14440 0.06800
H 	H 	0.14440 0.61560 0.26440 0.06500
H 	H 	0.61560 0.26440 0.14440 0.06400
H 	H 	0.97560 0.14440 0.26440 0.07300
H 	H 	0.14440 0.97560 0.61560 0.07100
H 	H 	0.26440 0.61560 0.97560 0.07900
H 	H 	0.26440 0.14440 0.97560 0.07600
H 	H 	0.14440 0.26440 0.61560 0.06500
H 	H 	0.97560 0.61560 0.26440 0.07500
H 	H 	0.61560 0.97560 0.14440 0.06900
H 	H 	0.26440 0.97560 0.61560 0.07300
H 	H 	0.14440 0.61560 0.97560 0.07500
H 	H 	0.97560 0.26440 0.14440 0.07100
H 	H 	0.61560 0.14440 0.26440 0.06700
H 	H 	0.26440 0.61560 0.14440 0.06400
H 	H 	0.14440 0.97560 0.26440 0.06900
H 	H 	0.97560 0.14440 0.61560 0.07500
H 	H 	0.61560 0.26440 0.97560 0.07900
H 	H 	0.85560 0.73560 0.02440 0.06900
H 	H 	0.73560 0.85560 0.38440 0.07400
H 	H 	0.38440 0.02440 0.73560 0.06900
H 	H 	0.02440 0.38440 0.85560 0.07200
H 	H 	0.02440 0.73560 0.38440 0.06600
H 	H 	0.38440 0.85560 0.02440 0.06600
H 	H 	0.73560 0.02440 0.85560 0.07500
H 	H 	0.85560 0.38440 0.73560 0.07700
H 	H 	0.38440 0.73560 0.85560 0.07800
H 	H 	0.02440 0.85560 0.73560 0.07000
H 	H 	0.85560 0.02440 0.38440 0.07200
H 	H 	0.73560 0.38440 0.02440 0.06400
H 	H 	0.85670 0.85670 0.01030 0.06700
H 	H 	0.85670 0.85670 0.27630 0.07400
H 	H 	0.01030 0.27630 0.85670 0.06800
H 	H 	0.27630 0.01030 0.85670 0.07000
H 	H 	0.85670 0.01030 0.27630 0.06800
H 	H 	0.85670 0.27630 0.01030 0.06400
H 	H 	0.01030 0.85670 0.85670 0.07200
H 	H 	0.27630 0.85670 0.85670 0.07700
H 	H 	0.85670 0.27630 0.85670 0.07900
H 	H 	0.85670 0.01030 0.85670 0.07600
H 	H 	0.01030 0.85670 0.27630 0.06300
H 	H 	0.27630 0.85670 0.01030 0.06100
H 	H 	0.14330 0.14330 0.98970 0.07400
H 	H 	0.14330 0.14330 0.72370 0.06400
H 	H 	0.72370 0.98970 0.14330 0.07000
H 	H 	0.98970 0.72370 0.14330 0.07200
H 	H 	0.98970 0.14330 0.72370 0.07700
H 	H 	0.72370 0.14330 0.98970 0.07900
H 	H 	0.14330 0.98970 0.14330 0.06500
H 	H 	0.14330 0.72370 0.14330 0.06000
H 	H 	0.72370 0.14330 0.14330 0.06200
H 	H 	0.98970 0.14330 0.14330 0.07000
H 	H 	0.14330 0.98970 0.72370 0.07200
H 	H 	0.14330 0.72370 0.98970 0.07700
H 	H 	0.61160 0.72780 0.04900 0.11600
H 	H 	0.72780 0.61160 0.61160 0.12500
H 	H 	0.04900 0.61160 0.61160 0.11700
H 	H 	0.61160 0.04900 0.72780 0.12200
H 	H 	0.61160 0.04900 0.61160 0.11900
H 	H 	0.72780 0.61160 0.04900 0.11700
H 	H 	0.04900 0.61160 0.72780 0.12000
H 	H 	0.61160 0.72780 0.61160 0.12400
H 	H 	0.61160 0.61160 0.72780 0.12600
H 	H 	0.72780 0.04900 0.61160 0.12200
H 	H 	0.04900 0.72780 0.61160 0.11900
H 	H 	0.61160 0.61160 0.04900 0.11500
H 	H 	0.27220 0.38840 0.95100 0.12400
H 	H 	0.38840 0.27220 0.38840 0.11700
H 	H 	0.38840 0.95100 0.38840 0.12100
H 	H 	0.95100 0.38840 0.27220 0.12100
H 	H 	0.95100 0.38840 0.38840 0.12400
H 	H 	0.38840 0.27220 0.95100 0.12500
H 	H 	0.38840 0.95100 0.27220 0.11900
H 	H 	0.27220 0.38840 0.38840 0.11600
H 	H 	0.38840 0.38840 0.27220 0.11500
H 	H 	0.95100 0.27220 0.38840 0.12300
H 	H 	0.27220 0.95100 0.38840 0.12000
H 	H 	0.38840 0.38840 0.95100 0.12600
C 	C 	0.76916 0.91562 0.01112 0.35600
C 	C 	0.79089 0.85993 0.02223 -0.03800
C 	C 	0.76622 0.83884 0.02660 -0.05100
C 	C 	0.91562 0.76916 0.30410 0.35900
C 	C 	0.85993 0.79089 0.32695 -0.03000
C 	C 	0.83884 0.76622 0.36834 -0.05100
C 	C 	0.01112 0.30410 0.76916 0.35800
C 	C 	0.02223 0.32695 0.79089 -0.03900
C 	C 	0.02660 0.36834 0.76622 -0.05000
C 	C 	0.30410 0.01112 0.91562 0.35600
C 	C 	0.32695 0.02223 0.85993 -0.03200
C 	C 	0.36834 0.02660 0.83884 -0.05100
C 	C 	0.76916 0.01112 0.30410 0.35900
C 	C 	0.79089 0.02223 0.32695 -0.03800
C 	C 	0.76622 0.02660 0.36834 -0.04900
C 	C 	0.91562 0.30410 0.01112 0.35500
C 	C 	0.85993 0.32695 0.02223 -0.03900
C 	C 	0.83884 0.36834 0.02660 -0.05000
C 	C 	0.01112 0.76916 0.91562 0.35400
C 	C 	0.02223 0.79089 0.85993 -0.03100
C 	C 	0.02660 0.76622 0.83884 -0.05200
C 	C 	0.30410 0.91562 0.76916 0.35900
C 	C 	0.32695 0.85993 0.79089 -0.02900
C 	C 	0.36834 0.83884 0.76622 -0.05100
C 	C 	0.76916 0.30410 0.91562 0.35600
C 	C 	0.79089 0.32695 0.85993 -0.02500
C 	C 	0.76622 0.36834 0.83884 -0.05300
C 	C 	0.91562 0.01112 0.76916 0.35500
C 	C 	0.85993 0.02223 0.79089 -0.02900
C 	C 	0.83884 0.02660 0.76622 -0.05200
C 	C 	0.01112 0.91562 0.30410 0.35700
C 	C 	0.02223 0.85993 0.32695 -0.04000
C 	C 	0.02660 0.83884 0.36834 -0.04900
C 	C 	0.30410 0.76916 0.01112 0.35700
C 	C 	0.32695 0.79089 0.02223 -0.04300
C 	C 	0.36834 0.76622 0.02660 -0.04900
C 	C 	0.08438 0.23084 0.98888 0.35500
C 	C 	0.14007 0.20911 0.97777 -0.03000
C 	C 	0.16116 0.23378 0.97340 -0.05100
C 	C 	0.23084 0.08438 0.69590 0.35900
C 	C 	0.20911 0.14007 0.67305 -0.04100
C 	C 	0.23378 0.16116 0.63166 -0.04900
C 	C 	0.69590 0.98888 0.23084 0.35900
C 	C 	0.67305 0.97777 0.20911 -0.03400
C 	C 	0.63166 0.97340 0.23378 -0.05000
C 	C 	0.98888 0.69590 0.08438 0.35500
C 	C 	0.97777 0.67305 0.14007 -0.03300
C 	C 	0.97340 0.63166 0.16116 -0.05100
C 	C 	0.98888 0.23084 0.69590 0.35800
C 	C 	0.97777 0.20911 0.67305 -0.02800
C 	C 	0.97340 0.23378 0.63166 -0.05200
C 	C 	0.69590 0.08438 0.98888 0.35600
C 	C 	0.67305 0.14007 0.97777 -0.02600
C 	C 	0.63166 0.16116 0.97340 -0.05200
C 	C 	0.23084 0.98888 0.08438 0.35600
C 	C 	0.20911 0.97777 0.14007 -0.03900
C 	C 	0.23378 0.97340 0.16116 -0.04900
C 	C 	0.08438 0.69590 0.23084 0.35900
C 	C 	0.14007 0.67305 0.20911 -0.04400
C 	C 	0.16116 0.63166 0.23378 -0.04800
C 	C 	0.69590 0.23084 0.08438 0.35700
C 	C 	0.67305 0.20911 0.14007 -0.04300
C 	C 	0.63166 0.23378 0.16116 -0.04800
C 	C 	0.98888 0.08438 0.23084 0.35700
C 	C 	0.97777 0.14007 0.20911 -0.03300
C 	C 	0.97340 0.16116 0.23378 -0.05000
C 	C 	0.08438 0.98888 0.69590 0.35600
C 	C 	0.14007 0.97777 0.67305 -0.03400
C 	C 	0.16116 0.97340 0.63166 -0.05100
C 	C 	0.23084 0.69590 0.98888 0.35600
C 	C 	0.20911 0.67305 0.97777 -0.02600
C 	C 	0.23378 0.63166 0.97340 -0.05200
C 	C 	0.23084 0.08438 0.98888 0.35600
C 	C 	0.20911 0.14007 0.97777 -0.02900
C 	C 	0.23378 0.16116 0.97340 -0.05200
C 	C 	0.08438 0.23084 0.69590 0.35800
C 	C 	0.14007 0.20911 0.67305 -0.04200
C 	C 	0.16116 0.23378 0.63166 -0.04900
C 	C 	0.98888 0.69590 0.23084 0.35900
C 	C 	0.97777 0.67305 0.20911 -0.03100
C 	C 	0.97340 0.63166 0.23378 -0.05100
C 	C 	0.69590 0.98888 0.08438 0.35700
C 	C 	0.67305 0.97777 0.14007 -0.03600
C 	C 	0.63166 0.97340 0.16116 -0.05000
C 	C 	0.23084 0.98888 0.69590 0.35900
C 	C 	0.20911 0.97777 0.67305 -0.03300
C 	C 	0.23378 0.97340 0.63166 -0.05100
C 	C 	0.08438 0.69590 0.98888 0.35500
C 	C 	0.14007 0.67305 0.97777 -0.02800
C 	C 	0.16116 0.63166 0.97340 -0.05200
C 	C 	0.98888 0.23084 0.08438 0.35600
C 	C 	0.97777 0.20911 0.14007 -0.03500
C 	C 	0.97340 0.23378 0.16116 -0.05000
C 	C 	0.69590 0.08438 0.23084 0.35900
C 	C 	0.67305 0.14007 0.20911 -0.04200
C 	C 	0.63166 0.16116 0.23378 -0.04900
C 	C 	0.23084 0.69590 0.08438 0.35700
C 	C 	0.20911 0.67305 0.14007 -0.04400
C 	C 	0.23378 0.63166 0.16116 -0.04800
C 	C 	0.08438 0.98888 0.23084 0.35700
C 	C 	0.14007 0.97777 0.20911 -0.03800
C 	C 	0.16116 0.97340 0.23378 -0.04900
C 	C 	0.98888 0.08438 0.69590 0.35600
C 	C 	0.97777 0.14007 0.67305 -0.02900
C 	C 	0.97340 0.16116 0.63166 -0.05200
C 	C 	0.69590 0.23084 0.98888 0.35600
C 	C 	0.67305 0.20911 0.97777 -0.02500
C 	C 	0.63166 0.23378 0.97340 -0.05300
C 	C 	0.91562 0.76916 0.01112 0.35400
C 	C 	0.85993 0.79089 0.02223 -0.03700
C 	C 	0.83884 0.76622 0.02660 -0.05100
C 	C 	0.76916 0.91562 0.30410 0.35900
C 	C 	0.79089 0.85993 0.32695 -0.03100
C 	C 	0.76622 0.83884 0.36834 -0.05000
C 	C 	0.30410 0.01112 0.76916 0.36000
C 	C 	0.32695 0.02223 0.79089 -0.03700
C 	C 	0.36834 0.02660 0.76622 -0.04900
C 	C 	0.01112 0.30410 0.91562 0.35500
C 	C 	0.02223 0.32695 0.85993 -0.03400
C 	C 	0.02660 0.36834 0.83884 -0.05100
C 	C 	0.01112 0.76916 0.30410 0.35900
C 	C 	0.02223 0.79089 0.32695 -0.04200
C 	C 	0.02660 0.76622 0.36834 -0.04800
C 	C 	0.30410 0.91562 0.01112 0.35600
C 	C 	0.32695 0.85993 0.02223 -0.04200
C 	C 	0.36834 0.83884 0.02660 -0.04900
C 	C 	0.76916 0.01112 0.91562 0.35600
C 	C 	0.79089 0.02223 0.85993 -0.02800
C 	C 	0.76622 0.02660 0.83884 -0.05300
C 	C 	0.91562 0.30410 0.76916 0.35800
C 	C 	0.85993 0.32695 0.79089 -0.02600
C 	C 	0.83884 0.36834 0.76622 -0.05200
C 	C 	0.30410 0.76916 0.91562 0.35600
C 	C 	0.32695 0.79089 0.85993 -0.02600
C 	C 	0.36834 0.76622 0.83884 -0.05200
C 	C 	0.01112 0.91562 0.76916 0.35500
C 	C 	0.02223 0.85993 0.79089 -0.03400
C 	C 	0.02660 0.83884 0.76622 -0.05200
C 	C 	0.91562 0.01112 0.30410 0.35600
C 	C 	0.85993 0.02223 0.32695 -0.03500
C 	C 	0.83884 0.02660 0.36834 -0.05000
C 	C 	0.76916 0.30410 0.01112 0.35600
C 	C 	0.79089 0.32695 0.02223 -0.04200
C 	C 	0.76622 0.36834 0.02660 -0.04900
C 	C 	0.83908 0.83908 0.01704 -0.02100
C 	C 	0.78790 0.78790 0.03510 0.02800
C 	C 	0.76250 0.76250 0.03718 -0.01300
C 	C 	0.74050 0.74050 0.04510 -0.02200
C 	C 	0.71760 0.71760 0.04560 0.03600
C 	C 	0.69550 0.69550 0.05330 -0.08700
C 	C 	0.67070 0.67070 0.05590 0.17300
C 	C 	0.83908 0.83908 0.30480 -0.02000
C 	C 	0.78790 0.78790 0.38910 0.03200
C 	C 	0.76250 0.76250 0.43782 -0.00500
C 	C 	0.74050 0.74050 0.47390 -0.01800
C 	C 	0.71760 0.71760 0.51920 0.04600
C 	C 	0.69550 0.69550 0.55570 -0.08500
C 	C 	0.67070 0.67070 0.60270 0.18100
C 	C 	0.01704 0.30480 0.83908 -0.02000
C 	C 	0.03510 0.38910 0.78790 0.02800
C 	C 	0.03718 0.43782 0.76250 -0.01100
C 	C 	0.04510 0.47390 0.74050 -0.02100
C 	C 	0.04560 0.51920 0.71760 0.03800
C 	C 	0.05330 0.55570 0.69550 -0.08700
C 	C 	0.05590 0.60270 0.67070 0.17500
C 	C 	0.30480 0.01704 0.83908 -0.02000
C 	C 	0.38910 0.03510 0.78790 0.03000
C 	C 	0.43782 0.03718 0.76250 -0.00800
C 	C 	0.47390 0.04510 0.74050 -0.02000
C 	C 	0.51920 0.04560 0.71760 0.04100
C 	C 	0.55570 0.05330 0.69550 -0.08600
C 	C 	0.60270 0.05590 0.67070 0.17800
C 	C 	0.83908 0.01704 0.30480 -0.01900
C 	C 	0.78790 0.03510 0.38910 0.02900
C 	C 	0.76250 0.03718 0.43782 -0.00900
C 	C 	0.74050 0.04510 0.47390 -0.02100
C 	C 	0.71760 0.04560 0.51920 0.04000
C 	C 	0.69550 0.05330 0.55570 -0.08600
C 	C 	0.67070 0.05590 0.60270 0.17800
C 	C 	0.83908 0.30480 0.01704 -0.02000
C 	C 	0.78790 0.38910 0.03510 0.02600
C 	C 	0.76250 0.43782 0.03718 -0.01400
C 	C 	0.74050 0.47390 0.04510 -0.02300
C 	C 	0.71760 0.51920 0.04560 0.03400
C 	C 	0.69550 0.55570 0.05330 -0.08800
C 	C 	0.67070 0.60270 0.05590 0.17300
C 	C 	0.01704 0.83908 0.83908 -0.02200
C 	C 	0.03510 0.78790 0.78790 0.03100
C 	C 	0.03718 0.76250 0.76250 -0.01000
C 	C 	0.04510 0.74050 0.74050 -0.02000
C 	C 	0.04560 0.71760 0.71760 0.03900
C 	C 	0.05330 0.69550 0.69550 -0.08600
C 	C 	0.05590 0.67070 0.67070 0.17600
C 	C 	0.30480 0.83908 0.83908 -0.02100
C 	C 	0.38910 0.78790 0.78790 0.03400
C 	C 	0.43782 0.76250 0.76250 -0.00400
C 	C 	0.47390 0.74050 0.74050 -0.01800
C 	C 	0.51920 0.71760 0.71760 0.04700
C 	C 	0.55570 0.69550 0.69550 -0.08500
C 	C 	0.60270 0.67070 0.67070 0.18200
C 	C 	0.83908 0.30480 0.83908 -0.02300
C 	C 	0.78790 0.38910 0.78790 0.03500
C 	C 	0.76250 0.43782 0.76250 -0.00300
C 	C 	0.74050 0.47390 0.74050 -0.01700
C 	C 	0.71760 0.51920 0.71760 0.04700
C 	C 	0.69550 0.55570 0.69550 -0.08400
C 	C 	0.67070 0.60270 0.67070 0.18200
C 	C 	0.83908 0.01704 0.83908 -0.02300
C 	C 	0.78790 0.03510 0.78790 0.03300
C 	C 	0.76250 0.03718 0.76250 -0.00700
C 	C 	0.74050 0.04510 0.74050 -0.01800
C 	C 	0.71760 0.04560 0.71760 0.04300
C 	C 	0.69550 0.05330 0.69550 -0.08500
C 	C 	0.67070 0.05590 0.67070 0.17900
C 	C 	0.01704 0.83908 0.30480 -0.01800
C 	C 	0.03510 0.78790 0.38910 0.02600
C 	C 	0.03718 0.76250 0.43782 -0.01200
C 	C 	0.04510 0.74050 0.47390 -0.02300
C 	C 	0.04560 0.71760 0.51920 0.03700
C 	C 	0.05330 0.69550 0.55570 -0.08800
C 	C 	0.05590 0.67070 0.60270 0.17500
C 	C 	0.30480 0.83908 0.01704 -0.01900
C 	C 	0.38910 0.78790 0.03510 0.02400
C 	C 	0.43782 0.76250 0.03718 -0.01500
C 	C 	0.47390 0.74050 0.04510 -0.02400
C 	C 	0.51920 0.71760 0.04560 0.03400
C 	C 	0.55570 0.69550 0.05330 -0.08800
C 	C 	0.60270 0.67070 0.05590 0.17300
C 	C 	0.16092 0.16092 0.98296 -0.02100
C 	C 	0.21210 0.21210 0.96490 0.03300
C 	C 	0.23750 0.23750 0.96282 -0.00500
C 	C 	0.25950 0.25950 0.95490 -0.01800
C 	C 	0.28240 0.28240 0.95440 0.04600
C 	C 	0.30450 0.30450 0.94670 -0.08500
C 	C 	0.32930 0.32930 0.94410 0.18200
C 	C 	0.16092 0.16092 0.69520 -0.01800
C 	C 	0.21210 0.21210 0.61090 0.02500
C 	C 	0.23750 0.23750 0.56218 -0.01300
C 	C 	0.25950 0.25950 0.52610 -0.02300
C 	C 	0.28240 0.28240 0.48080 0.03500
C 	C 	0.30450 0.30450 0.44430 -0.08800
C 	C 	0.32930 0.32930 0.39730 0.17300
C 	C 	0.69520 0.98296 0.16092 -0.02000
C 	C 	0.61090 0.96490 0.21210 0.02900
C 	C 	0.56218 0.96282 0.23750 -0.00900
C 	C 	0.52610 0.95490 0.25950 -0.02100
C 	C 	0.48080 0.95440 0.28240 0.04000
C 	C 	0.44430 0.94670 0.30450 -0.08600
C 	C 	0.39730 0.94410 0.32930 0.17700
C 	C 	0.98296 0.69520 0.16092 -0.02000
C 	C 	0.96490 0.61090 0.21210 0.03100
C 	C 	0.96282 0.56218 0.23750 -0.00700
C 	C 	0.95490 0.52610 0.25950 -0.01900
C 	C 	0.95440 0.48080 0.28240 0.04300
C 	C 	0.94670 0.44430 0.30450 -0.08500
C 	C 	0.94410 0.39730 0.32930 0.17900
C 	C 	0.98296 0.16092 0.69520 -0.02200
C 	C 	0.96490 0.21210 0.61090 0.03300
C 	C 	0.96282 0.23750 0.56218 -0.00500
C 	C 	0.95490 0.25950 0.52610 -0.01800
C 	C 	0.95440 0.28240 0.48080 0.04500
C 	C 	0.94670 0.30450 0.44430 -0.08500
C 	C 	0.94410 0.32930 0.39730 0.18000
C 	C 	0.69520 0.16092 0.98296 -0.02300
C 	C 	0.61090 0.21210 0.96490 0.03600
C 	C 	0.56218 0.23750 0.96282 -0.00300
C 	C 	0.52610 0.25950 0.95490 -0.01700
C 	C 	0.48080 0.28240 0.95440 0.04800
C 	C 	0.44430 0.30450 0.94670 -0.08400
C 	C 	0.39730 0.32930 0.94410 0.18200
C 	C 	0.16092 0.98296 0.16092 -0.01900
C 	C 	0.21210 0.96490 0.21210 0.02700
C 	C 	0.23750 0.96282 0.23750 -0.01100
C 	C 	0.25950 0.95490 0.25950 -0.02200
C 	C 	0.28240 0.95440 0.28240 0.03900
C 	C 	0.30450 0.94670 0.30450 -0.08700
C 	C 	0.32930 0.94410 0.32930 0.17600
C 	C 	0.16092 0.69520 0.16092 -0.01700
C 	C 	0.21210 0.61090 0.21210 0.02300
C 	C 	0.23750 0.56218 0.23750 -0.01500
C 	C 	0.25950 0.52610 0.25950 -0.02400
C 	C 	0.28240 0.48080 0.28240 0.03300
C 	C 	0.30450 0.44430 0.30450 -0.08800
C 	C 	0.32930 0.39730 0.32930 0.17200
C 	C 	0.69520 0.16092 0.16092 -0.01800
C 	C 	0.61090 0.21210 0.21210 0.02500
C 	C 	0.56218 0.23750 0.23750 -0.01400
C 	C 	0.52610 0.25950 0.25950 -0.02400
C 	C 	0.48080 0.28240 0.28240 0.03400
C 	C 	0.44430 0.30450 0.30450 -0.08800
C 	C 	0.39730 0.32930 0.32930 0.17200
C 	C 	0.98296 0.16092 0.16092 -0.02000
C 	C 	0.96490 0.21210 0.21210 0.03000
C 	C 	0.96282 0.23750 0.23750 -0.00800
C 	C 	0.95490 0.25950 0.25950 -0.02000
C 	C 	0.95440 0.28240 0.28240 0.04200
C 	C 	0.94670 0.30450 0.30450 -0.08600
C 	C 	0.94410 0.32930 0.32930 0.17900
C 	C 	0.16092 0.98296 0.69520 -0.02000
C 	C 	0.21210 0.96490 0.61090 0.03000
C 	C 	0.23750 0.96282 0.56218 -0.00800
C 	C 	0.25950 0.95490 0.52610 -0.02000
C 	C 	0.28240 0.95440 0.48080 0.04100
C 	C 	0.30450 0.94670 0.44430 -0.08600
C 	C 	0.32930 0.94410 0.39730 0.17700
C 	C 	0.16092 0.69520 0.98296 -0.02200
C 	C 	0.21210 0.61090 0.96490 0.03500
C 	C 	0.23750 0.56218 0.96282 -0.00400
C 	C 	0.25950 0.52610 0.95490 -0.01700
C 	C 	0.28240 0.48080 0.95440 0.04700
C 	C 	0.30450 0.44430 0.94670 -0.08400
C 	C 	0.32930 0.39730 0.94410 0.18200
C 	C 	0.62590 0.69530 0.05290 -0.23300
C 	C 	0.69530 0.62590 0.62590 -0.23500
C 	C 	0.05290 0.62590 0.62590 -0.23400
C 	C 	0.62590 0.05290 0.69530 -0.23400
C 	C 	0.62590 0.05290 0.62590 -0.23400
C 	C 	0.69530 0.62590 0.05290 -0.23300
C 	C 	0.05290 0.62590 0.69530 -0.23400
C 	C 	0.62590 0.69530 0.62590 -0.23500
C 	C 	0.62590 0.62590 0.69530 -0.23500
C 	C 	0.69530 0.05290 0.62590 -0.23400
C 	C 	0.05290 0.69530 0.62590 -0.23400
C 	C 	0.62590 0.62590 0.05290 -0.23300
C 	C 	0.30470 0.37410 0.94710 -0.23500
C 	C 	0.37410 0.30470 0.37410 -0.23300
C 	C 	0.37410 0.94710 0.37410 -0.23400
C 	C 	0.94710 0.37410 0.30470 -0.23500
C 	C 	0.94710 0.37410 0.37410 -0.23500
C 	C 	0.37410 0.30470 0.94710 -0.23500
C 	C 	0.37410 0.94710 0.30470 -0.23400
C 	C 	0.30470 0.37410 0.37410 -0.23300
C 	C 	0.37410 0.37410 0.30470 -0.23300
C 	C 	0.94710 0.30470 0.37410 -0.23500
C 	C 	0.30470 0.94710 0.37410 -0.23400
C 	C 	0.37410 0.37410 0.94710 -0.23500
O 	O 	0.79238 0.93262 0.01122 -0.42700
O 	O 	0.72792 0.93152 0.01086 -0.41200
O 	O 	0.93262 0.79238 0.26378 -0.41000
O 	O 	0.93152 0.72792 0.32970 -0.39100
O 	O 	0.01122 0.26378 0.79238 -0.43000
O 	O 	0.01086 0.32970 0.72792 -0.42600
O 	O 	0.26378 0.01122 0.93262 -0.40200
O 	O 	0.32970 0.01086 0.93152 -0.38800
O 	O 	0.79238 0.01122 0.26378 -0.43200
O 	O 	0.72792 0.01086 0.32970 -0.41600
O 	O 	0.93262 0.26378 0.01122 -0.41700
O 	O 	0.93152 0.32970 0.01086 -0.40400
O 	O 	0.01122 0.79238 0.93262 -0.40300
O 	O 	0.01086 0.72792 0.93152 -0.39200
O 	O 	0.26378 0.93262 0.79238 -0.41300
O 	O 	0.32970 0.93152 0.72792 -0.40200
O 	O 	0.79238 0.26378 0.93262 -0.39300
O 	O 	0.72792 0.32970 0.93152 -0.38100
O 	O 	0.93262 0.01122 0.79238 -0.40500
O 	O 	0.93152 0.01086 0.72792 -0.39500
O 	O 	0.01122 0.93262 0.26378 -0.42200
O 	O 	0.01086 0.93152 0.32970 -0.40700
O 	O 	0.26378 0.79238 0.01122 -0.43600
O 	O 	0.32970 0.72792 0.01086 -0.42400
O 	O 	0.06738 0.20762 0.98878 -0.40300
O 	O 	0.06848 0.27208 0.98914 -0.39100
O 	O 	0.20762 0.06738 0.73622 -0.43400
O 	O 	0.27208 0.06848 0.67030 -0.42100
O 	O 	0.73622 0.98878 0.20762 -0.41600
O 	O 	0.67030 0.98914 0.27208 -0.39900
O 	O 	0.98878 0.73622 0.06738 -0.41300
O 	O 	0.98914 0.67030 0.06848 -0.40200
O 	O 	0.98878 0.20762 0.73622 -0.40200
O 	O 	0.98914 0.27208 0.67030 -0.39700
O 	O 	0.73622 0.06738 0.98878 -0.40200
O 	O 	0.67030 0.06848 0.98914 -0.38800
O 	O 	0.20762 0.98878 0.06738 -0.42300
O 	O 	0.27208 0.98914 0.06848 -0.41000
O 	O 	0.06738 0.73622 0.20762 -0.44100
O 	O 	0.06848 0.67030 0.27208 -0.42200
O 	O 	0.73622 0.20762 0.06738 -0.43500
O 	O 	0.67030 0.27208 0.06848 -0.42300
O 	O 	0.98878 0.06738 0.20762 -0.40900
O 	O 	0.98914 0.06848 0.27208 -0.39500
O 	O 	0.06738 0.98878 0.73622 -0.41600
O 	O 	0.06848 0.98914 0.67030 -0.40600
O 	O 	0.20762 0.73622 0.98878 -0.39400
O 	O 	0.27208 0.67030 0.98914 -0.38100
O 	O 	0.20762 0.06738 0.98878 -0.40000
O 	O 	0.27208 0.06848 0.98914 -0.38700
O 	O 	0.06738 0.20762 0.73622 -0.43200
O 	O 	0.06848 0.27208 0.67030 -0.42700
O 	O 	0.98878 0.73622 0.20762 -0.41100
O 	O 	0.98914 0.67030 0.27208 -0.39100
O 	O 	0.73622 0.98878 0.06738 -0.42500
O 	O 	0.67030 0.98914 0.06848 -0.41100
O 	O 	0.20762 0.98878 0.73622 -0.41500
O 	O 	0.27208 0.98914 0.67030 -0.40300
O 	O 	0.06738 0.73622 0.98878 -0.40100
O 	O 	0.06848 0.67030 0.98914 -0.39000
O 	O 	0.98878 0.20762 0.06738 -0.41500
O 	O 	0.98914 0.27208 0.06848 -0.40200
O 	O 	0.73622 0.06738 0.20762 -0.43400
O 	O 	0.67030 0.06848 0.27208 -0.41700
O 	O 	0.20762 0.73622 0.06738 -0.43600
O 	O 	0.27208 0.67030 0.06848 -0.42400
O 	O 	0.06738 0.98878 0.20762 -0.42100
O 	O 	0.06848 0.98914 0.27208 -0.40700
O 	O 	0.98878 0.06738 0.73622 -0.40400
O 	O 	0.98914 0.06848 0.67030 -0.39400
O 	O 	0.73622 0.20762 0.98878 -0.39300
O 	O 	0.67030 0.27208 0.98914 -0.38100
O 	O 	0.93262 0.79238 0.01122 -0.41500
O 	O 	0.93152 0.72792 0.01086 -0.40400
O 	O 	0.79238 0.93262 0.26378 -0.41400
O 	O 	0.72792 0.93152 0.32970 -0.39800
O 	O 	0.26378 0.01122 0.79238 -0.43100
O 	O 	0.32970 0.01086 0.72792 -0.42000
O 	O 	0.01122 0.26378 0.93262 -0.40600
O 	O 	0.01086 0.32970 0.93152 -0.39300
O 	O 	0.01122 0.79238 0.26378 -0.44000
O 	O 	0.01086 0.72792 0.32970 -0.42100
O 	O 	0.26378 0.93262 0.01122 -0.42500
O 	O 	0.32970 0.93152 0.01086 -0.41200
O 	O 	0.79238 0.01122 0.93262 -0.40300
O 	O 	0.72792 0.01086 0.93152 -0.38900
O 	O 	0.93262 0.26378 0.79238 -0.40100
O 	O 	0.93152 0.32970 0.72792 -0.39600
O 	O 	0.26378 0.79238 0.93262 -0.39400
O 	O 	0.32970 0.72792 0.93152 -0.38200
O 	O 	0.01122 0.93262 0.79238 -0.41600
O 	O 	0.01086 0.93152 0.72792 -0.40600
O 	O 	0.93262 0.01122 0.26378 -0.41000
O 	O 	0.93152 0.01086 0.32970 -0.39600
O 	O 	0.79238 0.26378 0.01122 -0.43400
O 	O 	0.72792 0.32970 0.01086 -0.42300
