data_crystal

_cell_length_a 7.22140
_cell_length_b 10.29500
_cell_length_c 11.04100
_cell_angle_alpha 90.00000
_cell_angle_beta  90.00000
_cell_angle_gamma 90.00000

_symmetry_space_group_name_	'P 1'
_symmetry_space_group_name_H-M	'P 1'

loop_
_symmetry_equiv_pos_as_xyz
  x,y,z

loop_
_atom_site_label
_atom_site_type_symbol
_atom_site_fract_x
_atom_site_fract_y
_atom_site_fract_z
_atom_site_charge
Cu	Cu	0.39940 0.93303 0.02927 0.89800
Cu	Cu	0.10060 0.06697 0.52927 0.89700
H 	H 	0.33020 0.71520 0.77080 0.07300
H 	H 	0.32010 0.96450 0.81300 0.10000
H 	H 	0.18320 0.86410 0.86740 0.12400
H 	H 	0.50590 0.88370 0.64270 0.03600
H 	H 	0.61150 0.76540 0.67350 0.02200
H 	H 	0.66610 0.97770 0.81080 0.15000
H 	H 	0.77070 0.84700 0.81330 0.12100
H 	H 	0.16980 0.28480 0.27080 0.07400
H 	H 	0.17990 0.03550 0.31300 0.09700
H 	H 	0.31680 0.13590 0.36740 0.12200
H 	H 	0.99410 0.11630 0.14270 0.03500
H 	H 	0.88850 0.23460 0.17350 0.02000
H 	H 	0.83390 0.02230 0.31080 0.15400
H 	H 	0.72930 0.15300 0.31330 0.12400
C 	C 	0.52800 0.71630 0.91010 0.32700
C 	C 	0.42110 0.78340 0.81010 -0.13300
C 	C 	0.54950 0.83220 0.71200 0.02800
C 	C 	0.70800 0.91820 0.75620 -0.34900
C 	C 	0.82700 0.96760 0.65410 0.38600
C 	C 	0.97200 0.28370 0.41010 0.33300
C 	C 	0.07890 0.21660 0.31010 -0.14200
C 	C 	0.95050 0.16780 0.21200 0.03700
C 	C 	0.79200 0.08180 0.25620 -0.35500
C 	C 	0.67300 0.03240 0.15410 0.39100
N 	N 	0.30860 0.89090 0.86290 -0.29100
N 	N 	0.19140 0.10910 0.36290 -0.29000
O 	O 	0.51860 0.76270 0.01690 -0.39200
O 	O 	0.62460 0.62030 0.88140 -0.35800
O 	O 	0.97510 0.02910 0.68440 -0.39800
O 	O 	0.78510 0.94990 0.54700 -0.34700
O 	O 	0.98140 0.23730 0.51690 -0.39400
O 	O 	0.87540 0.37970 0.38140 -0.35800
O 	O 	0.52490 0.97090 0.18440 -0.39900
O 	O 	0.71490 0.05010 0.04700 -0.34500
Cu	Cu	0.60060 0.43303 0.47073 0.89800
Cu	Cu	0.89940 0.56697 0.97073 0.89400
H 	H 	0.66980 0.21520 0.72920 0.07200
H 	H 	0.67990 0.46450 0.68700 0.09800
H 	H 	0.81680 0.36410 0.63260 0.12100
H 	H 	0.49410 0.38370 0.85730 0.03500
H 	H 	0.38850 0.26540 0.82650 0.02100
H 	H 	0.33390 0.47770 0.68920 0.15200
H 	H 	0.22930 0.34700 0.68670 0.12400
H 	H 	0.83020 0.78480 0.22920 0.07100
H 	H 	0.82010 0.53550 0.18700 0.09900
H 	H 	0.68320 0.63590 0.13260 0.12200
H 	H 	0.00590 0.61630 0.35730 0.03700
H 	H 	0.11150 0.73460 0.32650 0.02400
H 	H 	0.16610 0.52230 0.18920 0.15000
H 	H 	0.27070 0.65300 0.18670 0.12300
C 	C 	0.47200 0.21630 0.58990 0.32900
C 	C 	0.57890 0.28340 0.68990 -0.13400
C 	C 	0.45050 0.33220 0.78800 0.03000
C 	C 	0.29200 0.41820 0.74380 -0.35100
C 	C 	0.17300 0.46760 0.84590 0.39000
C 	C 	0.02800 0.78370 0.08990 0.32100
C 	C 	0.92110 0.71660 0.18990 -0.12900
C 	C 	0.04950 0.66780 0.28800 0.02500
C 	C 	0.20800 0.58180 0.24380 -0.34900
C 	C 	0.32700 0.53240 0.34590 0.38900
N 	N 	0.69140 0.39090 0.63710 -0.29100
N 	N 	0.80860 0.60910 0.13710 -0.29100
O 	O 	0.48140 0.26270 0.48310 -0.39300
O 	O 	0.37540 0.12030 0.61860 -0.35700
O 	O 	0.02490 0.52910 0.81560 -0.39600
O 	O 	0.21490 0.44990 0.95300 -0.34600
O 	O 	0.01860 0.73730 0.98310 -0.38600
O 	O 	0.12460 0.87970 0.11860 -0.35500
O 	O 	0.47510 0.47090 0.31560 -0.39900
O 	O 	0.28510 0.55010 0.45300 -0.34600
