data_crystal

_cell_length_a 25.50700
_cell_length_b 25.50700
_cell_length_c 25.50700
_cell_angle_alpha 90.00000
_cell_angle_beta  90.00000
_cell_angle_gamma 90.00000

_symmetry_space_group_name_	'P 1'
_symmetry_space_group_name_H-M	'P 1'

loop_
_symmetry_equiv_pos_as_xyz
  x,y,z

loop_
_atom_site_label
_atom_site_type_symbol
_atom_site_fract_x
_atom_site_fract_y
_atom_site_fract_z
_atom_site_charge
Zn	Zn	0.18679 0.82844 0.23266 1.20900
O 	O 	0.20145 0.81828 0.15753 -0.49000
O 	O 	0.18056 0.76601 0.88888 -0.50500
O 	O 	0.24729 0.70916 0.89816 -0.51400
O 	O 	0.26084 0.75335 0.16104 -0.51000
C 	C 	0.22918 0.78255 0.13679 0.37400
C 	C 	0.22461 0.77326 0.07947 -0.08800
C 	C 	0.19482 0.80629 0.04748 -0.01600
H 	H 	0.17760 0.83590 0.06210 0.04700
C 	C 	0.19042 0.79559 0.99423 -0.01500
H 	H 	0.17030 0.81790 0.97230 0.04700
C 	C 	0.24840 0.72920 0.05840 -0.01600
H 	H 	0.26760 0.70620 0.08050 0.04800
C 	C 	0.24430 0.71860 0.00539 -0.01400
H 	H 	0.26090 0.68860 0.99100 0.04700
C 	C 	0.21420 0.74171 0.91543 0.38600
C 	C 	0.21574 0.75197 0.97318 -0.08700
Zn	Zn	0.31321 0.17156 0.73266 1.21000
O 	O 	0.29855 0.18172 0.65753 -0.48900
O 	O 	0.31944 0.23399 0.38888 -0.50400
O 	O 	0.25271 0.29084 0.39816 -0.51300
O 	O 	0.23916 0.24665 0.66104 -0.50900
C 	C 	0.27082 0.21745 0.63679 0.37500
C 	C 	0.27539 0.22674 0.57947 -0.08600
C 	C 	0.30518 0.19371 0.54748 -0.01500
H 	H 	0.32240 0.16410 0.56210 0.04800
C 	C 	0.30958 0.20441 0.49423 -0.01400
H 	H 	0.32970 0.18210 0.47230 0.04800
C 	C 	0.25160 0.27080 0.55840 -0.01500
H 	H 	0.23240 0.29380 0.58050 0.04800
C 	C 	0.25570 0.28140 0.50539 -0.01300
H 	H 	0.23910 0.31140 0.49100 0.04700
C 	C 	0.28580 0.25829 0.41543 0.38600
C 	C 	0.28426 0.24803 0.47318 -0.08700
Zn	Zn	0.81321 0.32844 0.26734 1.21000
O 	O 	0.79855 0.31828 0.34247 -0.48900
O 	O 	0.81944 0.26601 0.61112 -0.50400
O 	O 	0.75271 0.20916 0.60184 -0.51300
O 	O 	0.73916 0.25335 0.33896 -0.50900
C 	C 	0.77082 0.28255 0.36321 0.37500
C 	C 	0.77539 0.27326 0.42053 -0.08600
C 	C 	0.80518 0.30629 0.45252 -0.01500
H 	H 	0.82240 0.33590 0.43790 0.04800
C 	C 	0.80958 0.29559 0.50577 -0.01400
H 	H 	0.82970 0.31790 0.52770 0.04800
C 	C 	0.75160 0.22920 0.44160 -0.01500
H 	H 	0.73240 0.20620 0.41950 0.04800
C 	C 	0.75570 0.21860 0.49461 -0.01300
H 	H 	0.73910 0.18860 0.50900 0.04700
C 	C 	0.78580 0.24171 0.58457 0.38600
C 	C 	0.78426 0.25197 0.52682 -0.08700
Zn	Zn	0.68679 0.67156 0.76734 1.21000
O 	O 	0.70145 0.68172 0.84247 -0.48900
O 	O 	0.68056 0.73399 0.11112 -0.50400
O 	O 	0.74729 0.79084 0.10184 -0.51300
O 	O 	0.76084 0.74665 0.83896 -0.50900
C 	C 	0.72918 0.71745 0.86321 0.37500
C 	C 	0.72461 0.72674 0.92053 -0.08600
C 	C 	0.69482 0.69371 0.95252 -0.01500
H 	H 	0.67760 0.66410 0.93790 0.04800
C 	C 	0.69042 0.70441 0.00577 -0.01400
H 	H 	0.67030 0.68210 0.02770 0.04800
C 	C 	0.74840 0.77080 0.94160 -0.01500
H 	H 	0.76760 0.79380 0.91950 0.04800
C 	C 	0.74430 0.78140 0.99461 -0.01300
H 	H 	0.76090 0.81140 0.00900 0.04700
C 	C 	0.71420 0.75829 0.08457 0.38600
C 	C 	0.71574 0.74803 0.02682 -0.08700
Zn	Zn	0.23266 0.18679 0.82844 1.21000
O 	O 	0.15753 0.20145 0.81828 -0.48900
O 	O 	0.88888 0.18056 0.76601 -0.50400
O 	O 	0.89816 0.24729 0.70916 -0.51300
O 	O 	0.16104 0.26084 0.75335 -0.50900
C 	C 	0.13679 0.22918 0.78255 0.37500
C 	C 	0.07947 0.22461 0.77326 -0.08700
C 	C 	0.04748 0.19482 0.80629 -0.01500
H 	H 	0.06210 0.17760 0.83590 0.04800
C 	C 	0.99423 0.19042 0.79559 -0.01400
H 	H 	0.97230 0.17030 0.81790 0.04800
C 	C 	0.05840 0.24840 0.72920 -0.01500
H 	H 	0.08050 0.26760 0.70620 0.04800
C 	C 	0.00539 0.24430 0.71860 -0.01400
H 	H 	0.99100 0.26090 0.68860 0.04700
C 	C 	0.91543 0.21420 0.74171 0.38600
C 	C 	0.97318 0.21574 0.75197 -0.08700
Zn	Zn	0.73266 0.31321 0.17156 1.21000
O 	O 	0.65753 0.29855 0.18172 -0.48900
O 	O 	0.38888 0.31944 0.23399 -0.50400
O 	O 	0.39816 0.25271 0.29084 -0.51300
O 	O 	0.66104 0.23916 0.24665 -0.50900
C 	C 	0.63679 0.27082 0.21745 0.37500
C 	C 	0.57947 0.27539 0.22674 -0.08600
C 	C 	0.54748 0.30518 0.19371 -0.01500
H 	H 	0.56210 0.32240 0.16410 0.04800
C 	C 	0.49423 0.30958 0.20441 -0.01400
H 	H 	0.47230 0.32970 0.18210 0.04800
C 	C 	0.55840 0.25160 0.27080 -0.01500
H 	H 	0.58050 0.23240 0.29380 0.04800
C 	C 	0.50539 0.25570 0.28140 -0.01300
H 	H 	0.49100 0.23910 0.31140 0.04700
C 	C 	0.41543 0.28580 0.25829 0.38600
C 	C 	0.47318 0.28426 0.24803 -0.08700
Zn	Zn	0.26734 0.81321 0.32844 1.21000
O 	O 	0.34247 0.79855 0.31828 -0.48900
O 	O 	0.61112 0.81944 0.26601 -0.50400
O 	O 	0.60184 0.75271 0.20916 -0.51300
O 	O 	0.33896 0.73916 0.25335 -0.50900
C 	C 	0.36321 0.77082 0.28255 0.37500
C 	C 	0.42053 0.77539 0.27326 -0.08600
C 	C 	0.45252 0.80518 0.30629 -0.01500
H 	H 	0.43790 0.82240 0.33590 0.04800
C 	C 	0.50577 0.80958 0.29559 -0.01400
H 	H 	0.52770 0.82970 0.31790 0.04800
C 	C 	0.44160 0.75160 0.22920 -0.01500
H 	H 	0.41950 0.73240 0.20620 0.04800
C 	C 	0.49461 0.75570 0.21860 -0.01300
H 	H 	0.50900 0.73910 0.18860 0.04700
C 	C 	0.58457 0.78580 0.24171 0.38600
C 	C 	0.52682 0.78426 0.25197 -0.08700
Zn	Zn	0.76734 0.68679 0.67156 1.21000
O 	O 	0.84247 0.70145 0.68172 -0.48900
O 	O 	0.11112 0.68056 0.73399 -0.50400
O 	O 	0.10184 0.74729 0.79084 -0.51300
O 	O 	0.83896 0.76084 0.74665 -0.50900
C 	C 	0.86321 0.72918 0.71745 0.37500
C 	C 	0.92053 0.72461 0.72674 -0.08600
C 	C 	0.95252 0.69482 0.69371 -0.01500
H 	H 	0.93790 0.67760 0.66410 0.04800
C 	C 	0.00577 0.69042 0.70441 -0.01400
H 	H 	0.02770 0.67030 0.68210 0.04800
C 	C 	0.94160 0.74840 0.77080 -0.01500
H 	H 	0.91950 0.76760 0.79380 0.04800
C 	C 	0.99461 0.74430 0.78140 -0.01300
H 	H 	0.00900 0.76090 0.81140 0.04700
C 	C 	0.08457 0.71420 0.75829 0.38600
C 	C 	0.02682 0.71574 0.74803 -0.08700
Zn	Zn	0.82844 0.23266 0.18679 1.21000
O 	O 	0.81828 0.15753 0.20145 -0.48900
O 	O 	0.76601 0.88888 0.18056 -0.50400
O 	O 	0.70916 0.89816 0.24729 -0.51300
O 	O 	0.75335 0.16104 0.26084 -0.50900
C 	C 	0.78255 0.13679 0.22918 0.37500
C 	C 	0.77326 0.07947 0.22461 -0.08700
C 	C 	0.80629 0.04748 0.19482 -0.01500
H 	H 	0.83590 0.06210 0.17760 0.04800
C 	C 	0.79559 0.99423 0.19042 -0.01400
H 	H 	0.81790 0.97230 0.17030 0.04800
C 	C 	0.72920 0.05840 0.24840 -0.01500
H 	H 	0.70620 0.08050 0.26760 0.04800
C 	C 	0.71860 0.00539 0.24430 -0.01400
H 	H 	0.68860 0.99100 0.26090 0.04700
C 	C 	0.74171 0.91543 0.21420 0.38600
C 	C 	0.75197 0.97318 0.21574 -0.08700
Zn	Zn	0.17156 0.73266 0.31321 1.21000
O 	O 	0.18172 0.65753 0.29855 -0.48900
O 	O 	0.23399 0.38888 0.31944 -0.50400
O 	O 	0.29084 0.39816 0.25271 -0.51300
O 	O 	0.24665 0.66104 0.23916 -0.50900
C 	C 	0.21745 0.63679 0.27082 0.37500
C 	C 	0.22674 0.57947 0.27539 -0.08600
C 	C 	0.19371 0.54748 0.30518 -0.01500
H 	H 	0.16410 0.56210 0.32240 0.04800
C 	C 	0.20441 0.49423 0.30958 -0.01400
H 	H 	0.18210 0.47230 0.32970 0.04800
C 	C 	0.27080 0.55840 0.25160 -0.01500
H 	H 	0.29380 0.58050 0.23240 0.04800
C 	C 	0.28140 0.50539 0.25570 -0.01300
H 	H 	0.31140 0.49100 0.23910 0.04700
C 	C 	0.25829 0.41543 0.28580 0.38600
C 	C 	0.24803 0.47318 0.28426 -0.08700
Zn	Zn	0.32844 0.26734 0.81321 1.21000
O 	O 	0.31828 0.34247 0.79855 -0.48900
O 	O 	0.26601 0.61112 0.81944 -0.50400
O 	O 	0.20916 0.60184 0.75271 -0.51300
O 	O 	0.25335 0.33896 0.73916 -0.50900
C 	C 	0.28255 0.36321 0.77082 0.37500
C 	C 	0.27326 0.42053 0.77539 -0.08600
C 	C 	0.30629 0.45252 0.80518 -0.01500
H 	H 	0.33590 0.43790 0.82240 0.04800
C 	C 	0.29559 0.50577 0.80958 -0.01400
H 	H 	0.31790 0.52770 0.82970 0.04800
C 	C 	0.22920 0.44160 0.75160 -0.01500
H 	H 	0.20620 0.41950 0.73240 0.04800
C 	C 	0.21860 0.49461 0.75570 -0.01300
H 	H 	0.18860 0.50900 0.73910 0.04700
C 	C 	0.24171 0.58457 0.78580 0.38600
C 	C 	0.25197 0.52682 0.78426 -0.08700
Zn	Zn	0.67156 0.76734 0.68679 1.21000
O 	O 	0.68172 0.84247 0.70145 -0.48900
O 	O 	0.73399 0.11112 0.68056 -0.50400
O 	O 	0.79084 0.10184 0.74729 -0.51300
O 	O 	0.74665 0.83896 0.76084 -0.50900
C 	C 	0.71745 0.86321 0.72918 0.37500
C 	C 	0.72674 0.92053 0.72461 -0.08600
C 	C 	0.69371 0.95252 0.69482 -0.01500
H 	H 	0.66410 0.93790 0.67760 0.04800
C 	C 	0.70441 0.00577 0.69042 -0.01400
H 	H 	0.68210 0.02770 0.67030 0.04800
C 	C 	0.77080 0.94160 0.74840 -0.01500
H 	H 	0.79380 0.91950 0.76760 0.04800
C 	C 	0.78140 0.99461 0.74430 -0.01300
H 	H 	0.81140 0.00900 0.76090 0.04700
C 	C 	0.75829 0.08457 0.71420 0.38600
C 	C 	0.74803 0.02682 0.71574 -0.08700
Zn	Zn	0.81321 0.17156 0.76734 1.21000
O 	O 	0.79855 0.18172 0.84247 -0.48900
O 	O 	0.81944 0.23399 0.11112 -0.50400
O 	O 	0.75271 0.29084 0.10184 -0.51300
O 	O 	0.73916 0.24665 0.83896 -0.50900
C 	C 	0.77082 0.21745 0.86321 0.37500
C 	C 	0.77539 0.22674 0.92053 -0.08700
C 	C 	0.80518 0.19371 0.95252 -0.01500
H 	H 	0.82240 0.16410 0.93790 0.04800
C 	C 	0.80958 0.20441 0.00577 -0.01400
H 	H 	0.82970 0.18210 0.02770 0.04800
C 	C 	0.75160 0.27080 0.94160 -0.01500
H 	H 	0.73240 0.29380 0.91950 0.04800
C 	C 	0.75570 0.28140 0.99461 -0.01400
H 	H 	0.73910 0.31140 0.00900 0.04700
C 	C 	0.78580 0.25829 0.08457 0.38600
C 	C 	0.78426 0.24803 0.02682 -0.08700
Zn	Zn	0.68679 0.82844 0.26734 1.21000
O 	O 	0.70145 0.81828 0.34247 -0.48900
O 	O 	0.68056 0.76601 0.61112 -0.50400
O 	O 	0.74729 0.70916 0.60184 -0.51300
O 	O 	0.76084 0.75335 0.33896 -0.50900
C 	C 	0.72918 0.78255 0.36321 0.37500
C 	C 	0.72461 0.77326 0.42053 -0.08600
C 	C 	0.69482 0.80629 0.45252 -0.01500
H 	H 	0.67760 0.83590 0.43790 0.04800
C 	C 	0.69042 0.79559 0.50577 -0.01400
H 	H 	0.67030 0.81790 0.52770 0.04800
C 	C 	0.74840 0.72920 0.44160 -0.01500
H 	H 	0.76760 0.70620 0.41950 0.04800
C 	C 	0.74430 0.71860 0.49461 -0.01300
H 	H 	0.76090 0.68860 0.50900 0.04700
C 	C 	0.71420 0.74171 0.58457 0.38600
C 	C 	0.71574 0.75197 0.52682 -0.08700
Zn	Zn	0.18679 0.67156 0.73266 1.21000
O 	O 	0.20145 0.68172 0.65753 -0.48900
O 	O 	0.18056 0.73399 0.38888 -0.50400
O 	O 	0.24729 0.79084 0.39816 -0.51300
O 	O 	0.26084 0.74665 0.66104 -0.50900
C 	C 	0.22918 0.71745 0.63679 0.37500
C 	C 	0.22461 0.72674 0.57947 -0.08600
C 	C 	0.19482 0.69371 0.54748 -0.01500
H 	H 	0.17760 0.66410 0.56210 0.04800
C 	C 	0.19042 0.70441 0.49423 -0.01400
H 	H 	0.17030 0.68210 0.47230 0.04800
C 	C 	0.24840 0.77080 0.55840 -0.01500
H 	H 	0.26760 0.79380 0.58050 0.04800
C 	C 	0.24430 0.78140 0.50539 -0.01300
H 	H 	0.26090 0.81140 0.49100 0.04700
C 	C 	0.21420 0.75829 0.41543 0.38600
C 	C 	0.21574 0.74803 0.47318 -0.08700
Zn	Zn	0.31321 0.32844 0.23266 1.21000
O 	O 	0.29855 0.31828 0.15753 -0.48900
O 	O 	0.31944 0.26601 0.88888 -0.50400
O 	O 	0.25271 0.20916 0.89816 -0.51300
O 	O 	0.23916 0.25335 0.16104 -0.50900
C 	C 	0.27082 0.28255 0.13679 0.37500
C 	C 	0.27539 0.27326 0.07947 -0.08600
C 	C 	0.30518 0.30629 0.04748 -0.01500
H 	H 	0.32240 0.33590 0.06210 0.04800
C 	C 	0.30958 0.29559 0.99423 -0.01400
H 	H 	0.32970 0.31790 0.97230 0.04800
C 	C 	0.25160 0.22920 0.05840 -0.01500
H 	H 	0.23240 0.20620 0.08050 0.04800
C 	C 	0.25570 0.21860 0.00539 -0.01300
H 	H 	0.23910 0.18860 0.99100 0.04700
C 	C 	0.28580 0.24171 0.91543 0.38600
C 	C 	0.28426 0.25197 0.97318 -0.08700
Zn	Zn	0.76734 0.81321 0.17156 1.21000
O 	O 	0.84247 0.79855 0.18172 -0.48900
O 	O 	0.11112 0.81944 0.23399 -0.50400
O 	O 	0.10184 0.75271 0.29084 -0.51300
O 	O 	0.83896 0.73916 0.24665 -0.50900
C 	C 	0.86321 0.77082 0.21745 0.37500
C 	C 	0.92053 0.77539 0.22674 -0.08700
C 	C 	0.95252 0.80518 0.19371 -0.01500
H 	H 	0.93790 0.82240 0.16410 0.04800
C 	C 	0.00577 0.80958 0.20441 -0.01400
H 	H 	0.02770 0.82970 0.18210 0.04800
C 	C 	0.94160 0.75160 0.27080 -0.01500
H 	H 	0.91950 0.73240 0.29380 0.04800
C 	C 	0.99461 0.75570 0.28140 -0.01400
H 	H 	0.00900 0.73910 0.31140 0.04700
C 	C 	0.08457 0.78580 0.25829 0.38600
C 	C 	0.02682 0.78426 0.24803 -0.08700
Zn	Zn	0.26734 0.68679 0.82844 1.21000
O 	O 	0.34247 0.70145 0.81828 -0.48900
O 	O 	0.61112 0.68056 0.76601 -0.50400
O 	O 	0.60184 0.74729 0.70916 -0.51300
O 	O 	0.33896 0.76084 0.75335 -0.50900
C 	C 	0.36321 0.72918 0.78255 0.37500
C 	C 	0.42053 0.72461 0.77326 -0.08600
C 	C 	0.45252 0.69482 0.80629 -0.01500
H 	H 	0.43790 0.67760 0.83590 0.04800
C 	C 	0.50577 0.69042 0.79559 -0.01400
H 	H 	0.52770 0.67030 0.81790 0.04800
C 	C 	0.44160 0.74840 0.72920 -0.01500
H 	H 	0.41950 0.76760 0.70620 0.04800
C 	C 	0.49461 0.74430 0.71860 -0.01300
H 	H 	0.50900 0.76090 0.68860 0.04700
C 	C 	0.58457 0.71420 0.74171 0.38600
C 	C 	0.52682 0.71574 0.75197 -0.08700
Zn	Zn	0.73266 0.18679 0.67156 1.21000
O 	O 	0.65753 0.20145 0.68172 -0.48900
O 	O 	0.38888 0.18056 0.73399 -0.50400
O 	O 	0.39816 0.24729 0.79084 -0.51300
O 	O 	0.66104 0.26084 0.74665 -0.50900
C 	C 	0.63679 0.22918 0.71745 0.37500
C 	C 	0.57947 0.22461 0.72674 -0.08600
C 	C 	0.54748 0.19482 0.69371 -0.01500
H 	H 	0.56210 0.17760 0.66410 0.04800
C 	C 	0.49423 0.19042 0.70441 -0.01400
H 	H 	0.47230 0.17030 0.68210 0.04800
C 	C 	0.55840 0.24840 0.77080 -0.01500
H 	H 	0.58050 0.26760 0.79380 0.04800
C 	C 	0.50539 0.24430 0.78140 -0.01300
H 	H 	0.49100 0.26090 0.81140 0.04700
C 	C 	0.41543 0.21420 0.75829 0.38600
C 	C 	0.47318 0.21574 0.74803 -0.08700
Zn	Zn	0.23266 0.31321 0.32844 1.21000
O 	O 	0.15753 0.29855 0.31828 -0.48900
O 	O 	0.88888 0.31944 0.26601 -0.50400
O 	O 	0.89816 0.25271 0.20916 -0.51300
O 	O 	0.16104 0.23916 0.25335 -0.50900
C 	C 	0.13679 0.27082 0.28255 0.37500
C 	C 	0.07947 0.27539 0.27326 -0.08600
C 	C 	0.04748 0.30518 0.30629 -0.01500
H 	H 	0.06210 0.32240 0.33590 0.04800
C 	C 	0.99423 0.30958 0.29559 -0.01400
H 	H 	0.97230 0.32970 0.31790 0.04800
C 	C 	0.05840 0.25160 0.22920 -0.01500
H 	H 	0.08050 0.23240 0.20620 0.04800
C 	C 	0.00539 0.25570 0.21860 -0.01300
H 	H 	0.99100 0.23910 0.18860 0.04700
C 	C 	0.91543 0.28580 0.24171 0.38600
C 	C 	0.97318 0.28426 0.25197 -0.08700
Zn	Zn	0.17156 0.76734 0.81321 1.21000
O 	O 	0.18172 0.84247 0.79855 -0.48900
O 	O 	0.23399 0.11112 0.81944 -0.50400
O 	O 	0.29084 0.10184 0.75271 -0.51300
O 	O 	0.24665 0.83896 0.73916 -0.50900
C 	C 	0.21745 0.86321 0.77082 0.37500
C 	C 	0.22674 0.92053 0.77539 -0.08700
C 	C 	0.19371 0.95252 0.80518 -0.01500
H 	H 	0.16410 0.93790 0.82240 0.04800
C 	C 	0.20441 0.00577 0.80958 -0.01400
H 	H 	0.18210 0.02770 0.82970 0.04800
C 	C 	0.27080 0.94160 0.75160 -0.01500
H 	H 	0.29380 0.91950 0.73240 0.04800
C 	C 	0.28140 0.99461 0.75570 -0.01400
H 	H 	0.31140 0.00900 0.73910 0.04700
C 	C 	0.25829 0.08457 0.78580 0.38600
C 	C 	0.24803 0.02682 0.78426 -0.08700
Zn	Zn	0.82844 0.26734 0.68679 1.21000
O 	O 	0.81828 0.34247 0.70145 -0.48900
O 	O 	0.76601 0.61112 0.68056 -0.50400
O 	O 	0.70916 0.60184 0.74729 -0.51300
O 	O 	0.75335 0.33896 0.76084 -0.50900
C 	C 	0.78255 0.36321 0.72918 0.37500
C 	C 	0.77326 0.42053 0.72461 -0.08600
C 	C 	0.80629 0.45252 0.69482 -0.01500
H 	H 	0.83590 0.43790 0.67760 0.04800
C 	C 	0.79559 0.50577 0.69042 -0.01400
H 	H 	0.81790 0.52770 0.67030 0.04800
C 	C 	0.72920 0.44160 0.74840 -0.01500
H 	H 	0.70620 0.41950 0.76760 0.04800
C 	C 	0.71860 0.49461 0.74430 -0.01300
H 	H 	0.68860 0.50900 0.76090 0.04700
C 	C 	0.74171 0.58457 0.71420 0.38600
C 	C 	0.75197 0.52682 0.71574 -0.08700
Zn	Zn	0.67156 0.73266 0.18679 1.21000
O 	O 	0.68172 0.65753 0.20145 -0.48900
O 	O 	0.73399 0.38888 0.18056 -0.50400
O 	O 	0.79084 0.39816 0.24729 -0.51300
O 	O 	0.74665 0.66104 0.26084 -0.50900
C 	C 	0.71745 0.63679 0.22918 0.37500
C 	C 	0.72674 0.57947 0.22461 -0.08600
C 	C 	0.69371 0.54748 0.19482 -0.01500
H 	H 	0.66410 0.56210 0.17760 0.04800
C 	C 	0.70441 0.49423 0.19042 -0.01400
H 	H 	0.68210 0.47230 0.17030 0.04800
C 	C 	0.77080 0.55840 0.24840 -0.01500
H 	H 	0.79380 0.58050 0.26760 0.04800
C 	C 	0.78140 0.50539 0.24430 -0.01300
H 	H 	0.81140 0.49100 0.26090 0.04700
C 	C 	0.75829 0.41543 0.21420 0.38600
C 	C 	0.74803 0.47318 0.21574 -0.08700
Zn	Zn	0.32844 0.23266 0.31321 1.21000
O 	O 	0.31828 0.15753 0.29855 -0.48900
O 	O 	0.26601 0.88888 0.31944 -0.50400
O 	O 	0.20916 0.89816 0.25271 -0.51300
O 	O 	0.25335 0.16104 0.23916 -0.50900
C 	C 	0.28255 0.13679 0.27082 0.37500
C 	C 	0.27326 0.07947 0.27539 -0.08600
C 	C 	0.30629 0.04748 0.30518 -0.01500
H 	H 	0.33590 0.06210 0.32240 0.04800
C 	C 	0.29559 0.99423 0.30958 -0.01400
H 	H 	0.31790 0.97230 0.32970 0.04800
C 	C 	0.22920 0.05840 0.25160 -0.01500
H 	H 	0.20620 0.08050 0.23240 0.04800
C 	C 	0.21860 0.00539 0.25570 -0.01300
H 	H 	0.18860 0.99100 0.23910 0.04700
C 	C 	0.24171 0.91543 0.28580 0.38600
C 	C 	0.25197 0.97318 0.28426 -0.08700
Zn	Zn	0.26611 0.73389 0.23389 1.21100
O 	O 	0.22230 0.77770 0.27770 -0.95900
Zn	Zn	0.23389 0.26611 0.73389 1.21100
O 	O 	0.27770 0.22230 0.77770 -0.95900
Zn	Zn	0.73389 0.23389 0.26611 1.21100
O 	O 	0.77770 0.27770 0.22230 -0.95900
Zn	Zn	0.76611 0.76611 0.76611 1.21100
O 	O 	0.72230 0.72230 0.72230 -0.95900
Zn	Zn	0.73389 0.26611 0.76611 1.21100
O 	O 	0.77770 0.22230 0.72230 -0.95900
Zn	Zn	0.76611 0.73389 0.26611 1.21100
O 	O 	0.72230 0.77770 0.22230 -0.95900
Zn	Zn	0.26611 0.76611 0.73389 1.21100
O 	O 	0.22230 0.72230 0.77770 -0.95900
Zn	Zn	0.23389 0.23389 0.23389 1.21100
O 	O 	0.27770 0.27770 0.27770 -0.95900
