data_crystal

_cell_length_a 10.98250
_cell_length_b 11.60120
_cell_length_c 16.85780
_cell_angle_alpha 90.00000
_cell_angle_beta  90.00000
_cell_angle_gamma 94.75800

_symmetry_space_group_name_	'P 1'
_symmetry_space_group_name_H-M	'P 1'

loop_
_symmetry_equiv_pos_as_xyz
  x,y,z

loop_
_atom_site_label
_atom_site_type_symbol
_atom_site_fract_x
_atom_site_fract_y
_atom_site_fract_z
_atom_site_charge
Cd	Cd	0.83751 0.75514 0.74592 1.18400
Cd	Cd	0.66249 0.24486 0.24592 1.18400
Cd	Cd	0.16249 0.24486 0.25408 1.18400
Cd	Cd	0.33751 0.75514 0.75408 1.18400
H 	H 	0.24840 0.03780 0.15630 -0.00700
H 	H 	0.26050 0.94850 0.03570 0.08800
H 	H 	0.04910 0.18100 0.94550 0.09300
H 	H 	0.05240 0.26910 0.06730 -0.00700
H 	H 	0.01190 0.23370 0.42630 -0.00700
H 	H 	0.99720 0.32910 0.54500 0.09000
H 	H 	0.29730 0.52820 0.48530 0.08100
H 	H 	0.30200 0.42840 0.36870 -0.01100
H 	H 	0.25160 0.96220 0.65630 -0.00700
H 	H 	0.23950 0.05150 0.53570 0.08400
H 	H 	0.45090 0.81900 0.44550 0.09100
H 	H 	0.44760 0.73090 0.56730 -0.00900
H 	H 	0.48810 0.76630 0.92630 -0.00600
H 	H 	0.50280 0.67090 0.04500 0.09000
H 	H 	0.20270 0.47180 0.98530 0.08100
H 	H 	0.19800 0.57160 0.86870 -0.01100
H 	H 	0.75160 0.96220 0.84370 -0.00800
H 	H 	0.73950 0.05150 0.96430 0.08700
H 	H 	0.95090 0.81900 0.05450 0.09200
H 	H 	0.94760 0.73090 0.93270 -0.00800
H 	H 	0.98810 0.76630 0.57370 -0.00700
H 	H 	0.00280 0.67090 0.45500 0.09000
H 	H 	0.70270 0.47180 0.51470 0.08100
H 	H 	0.69800 0.57160 0.63130 -0.01100
H 	H 	0.74840 0.03780 0.34370 -0.00700
H 	H 	0.76050 0.94850 0.46430 0.08400
H 	H 	0.54910 0.18100 0.55450 0.09100
H 	H 	0.55240 0.26910 0.43270 -0.00900
H 	H 	0.51190 0.23370 0.07370 -0.00600
H 	H 	0.49720 0.32910 0.95500 0.09000
H 	H 	0.79730 0.52820 0.01470 0.08100
H 	H 	0.80200 0.42840 0.13130 -0.01100
C 	C 	0.21010 0.06840 0.11280 0.07900
C 	C 	0.21610 0.01290 0.04094 -0.12500
C 	C 	0.15530 0.05440 0.97677 0.04900
C 	C 	0.09210 0.15130 0.98728 -0.12100
C 	C 	0.09400 0.20310 0.06088 0.08500
C 	C 	0.15670 0.99150 0.90168 0.15500
C 	C 	0.09700 0.92980 0.78651 0.17000
C 	C 	0.06980 0.29440 0.43830 0.08000
C 	C 	0.06000 0.35140 0.50984 -0.11500
C 	C 	0.14460 0.44150 0.52818 0.04100
C 	C 	0.23720 0.46910 0.47440 -0.11800
C 	C 	0.23960 0.40810 0.40460 0.07800
C 	C 	0.14080 0.50880 0.60131 0.16200
C 	C 	0.07180 0.57250 0.71098 0.17400
C 	C 	0.28990 0.93160 0.61280 0.07600
C 	C 	0.28390 0.98710 0.54094 -0.11800
C 	C 	0.34470 0.94560 0.47677 0.04400
C 	C 	0.40790 0.84870 0.48728 -0.12100
C 	C 	0.40600 0.79690 0.56088 0.08600
C 	C 	0.34330 0.00850 0.40168 0.15700
C 	C 	0.40300 0.07020 0.28651 0.17000
C 	C 	0.43020 0.70560 0.93830 0.07900
C 	C 	0.44000 0.64860 0.00984 -0.11400
C 	C 	0.35540 0.55850 0.02818 0.04000
C 	C 	0.26280 0.53090 0.97440 -0.11700
C 	C 	0.26040 0.59190 0.90460 0.07800
C 	C 	0.35920 0.49120 0.10131 0.16200
C 	C 	0.42820 0.42750 0.21098 0.17400
C 	C 	0.78990 0.93160 0.88720 0.07900
C 	C 	0.78390 0.98710 0.95906 -0.12500
C 	C 	0.84470 0.94560 0.02323 0.04900
C 	C 	0.90790 0.84870 0.01272 -0.12100
C 	C 	0.90600 0.79690 0.93912 0.08500
C 	C 	0.84330 0.00850 0.09832 0.15500
C 	C 	0.90300 0.07020 0.21349 0.17000
C 	C 	0.93020 0.70560 0.56170 0.08000
C 	C 	0.94000 0.64860 0.49016 -0.11500
C 	C 	0.85540 0.55850 0.47182 0.04100
C 	C 	0.76280 0.53090 0.52560 -0.11800
C 	C 	0.76040 0.59190 0.59540 0.07800
C 	C 	0.85920 0.49120 0.39869 0.16200
C 	C 	0.92820 0.42750 0.28902 0.17400
C 	C 	0.71010 0.06840 0.38720 0.07600
C 	C 	0.71610 0.01290 0.45906 -0.11800
C 	C 	0.65530 0.05440 0.52323 0.04400
C 	C 	0.59210 0.15130 0.51272 -0.12100
C 	C 	0.59400 0.20310 0.43912 0.08600
C 	C 	0.65670 0.99150 0.59832 0.15700
C 	C 	0.59700 0.92980 0.71349 0.17000
C 	C 	0.56980 0.29440 0.06170 0.07900
C 	C 	0.56000 0.35140 0.99016 -0.11400
C 	C 	0.64460 0.44150 0.97182 0.04000
C 	C 	0.73720 0.46910 0.02560 -0.11700
C 	C 	0.73960 0.40810 0.09540 0.07800
C 	C 	0.64080 0.50880 0.89869 0.16200
C 	C 	0.57180 0.57250 0.78902 0.17400
S 	S 	0.00862 0.91892 0.70375 -0.23700
S 	S 	0.97381 0.58048 0.78834 -0.22500
S 	S 	0.49138 0.08108 0.20375 -0.23800
S 	S 	0.52619 0.41952 0.28834 -0.22400
S 	S 	0.99138 0.08108 0.29625 -0.23700
S 	S 	0.02619 0.41952 0.21166 -0.22500
S 	S 	0.50862 0.91892 0.79625 -0.23800
S 	S 	0.47381 0.58048 0.71166 -0.22400
N 	N 	0.15220 0.16370 0.12331 -0.23200
N 	N 	0.22970 0.91510 0.88245 -0.12500
N 	N 	0.19170 0.87530 0.80722 -0.22000
N 	N 	0.15800 0.32210 0.38564 -0.23200
N 	N 	0.22220 0.58610 0.62531 -0.12800
N 	N 	0.17870 0.62740 0.69701 -0.21800
N 	N 	0.34780 0.83630 0.62331 -0.23100
N 	N 	0.27030 0.08490 0.38245 -0.12600
N 	N 	0.30830 0.12470 0.30722 -0.22000
N 	N 	0.34200 0.67790 0.88564 -0.23200
N 	N 	0.27780 0.41390 0.12531 -0.12800
N 	N 	0.32130 0.37260 0.19701 -0.21800
N 	N 	0.84780 0.83630 0.87669 -0.23200
N 	N 	0.77030 0.08490 0.11755 -0.12500
N 	N 	0.80830 0.12470 0.19278 -0.22000
N 	N 	0.84200 0.67790 0.61436 -0.23200
N 	N 	0.77780 0.41390 0.37469 -0.12800
N 	N 	0.82130 0.37260 0.30299 -0.21800
N 	N 	0.65220 0.16370 0.37669 -0.23100
N 	N 	0.72970 0.91510 0.61755 -0.12600
N 	N 	0.69170 0.87530 0.69278 -0.22000
N 	N 	0.65800 0.32210 0.11436 -0.23200
N 	N 	0.72220 0.58610 0.87469 -0.12800
N 	N 	0.67870 0.62740 0.80299 -0.21800
O 	O 	0.07173 0.00787 0.84508 -0.23800
O 	O 	0.04341 0.49406 0.65078 -0.23900
O 	O 	0.42827 0.99213 0.34508 -0.23900
O 	O 	0.45659 0.50594 0.15078 -0.23900
O 	O 	0.92827 0.99213 0.15492 -0.23800
O 	O 	0.95659 0.50594 0.34922 -0.23900
O 	O 	0.57173 0.00787 0.65492 -0.23900
O 	O 	0.54341 0.49406 0.84922 -0.23900
