data_crystal

_cell_length_a 8.88710
_cell_length_b 11.49310
_cell_length_c 16.45700
_cell_angle_alpha 90.00000
_cell_angle_beta  90.00000
_cell_angle_gamma 90.00000

_symmetry_space_group_name_	'P 1'
_symmetry_space_group_name_H-M	'P 1'

loop_
_symmetry_equiv_pos_as_xyz
  x,y,z

loop_
_atom_site_label
_atom_site_type_symbol
_atom_site_fract_x
_atom_site_fract_y
_atom_site_fract_z
_atom_site_charge
O 	O 	0.01560 0.88510 0.08920 -0.34400
O 	O 	0.25410 0.88350 0.04920 -0.24000
O 	O 	0.47110 0.61550 0.08650 -0.35300
O 	O 	0.23060 0.61580 0.05070 -0.28900
C 	C 	0.19590 0.79620 0.17490 -0.02900
C 	C 	0.29470 0.70130 0.17770 -0.02600
C 	C 	0.15450 0.85700 0.09850 0.30000
C 	C 	0.33420 0.64020 0.09760 0.31700
O 	O 	0.51560 0.38510 0.08920 -0.35200
O 	O 	0.75410 0.38350 0.04920 -0.24900
O 	O 	0.97110 0.11550 0.08650 -0.32300
O 	O 	0.73060 0.11580 0.05070 -0.28300
C 	C 	0.69590 0.29620 0.17490 -0.03200
C 	C 	0.79470 0.20130 0.17770 -0.02100
C 	C 	0.65450 0.35700 0.09850 0.30200
C 	C 	0.83420 0.14020 0.09760 0.31100
O 	O 	0.98440 0.88510 0.91080 -0.17400
O 	O 	0.74590 0.88350 0.95080 -0.12000
O 	O 	0.52890 0.61550 0.91350 -0.28900
O 	O 	0.76940 0.61580 0.94930 -0.15500
C 	C 	0.80410 0.79620 0.82510 0.02200
C 	C 	0.70530 0.70130 0.82230 -0.01500
C 	C 	0.84550 0.85700 0.90150 0.27700
C 	C 	0.66580 0.64020 0.90240 0.30500
O 	O 	0.48440 0.38510 0.91080 -0.27300
O 	O 	0.24590 0.38350 0.95080 -0.19600
O 	O 	0.02890 0.11550 0.91350 -0.36300
O 	O 	0.26940 0.11580 0.94930 -0.22100
C 	C 	0.30410 0.29620 0.82510 -0.00800
C 	C 	0.20530 0.20130 0.82230 -0.05100
C 	C 	0.34550 0.35700 0.90150 0.28500
C 	C 	0.16580 0.14020 0.90240 0.31100
O 	O 	0.98440 0.88510 0.58920 -0.21200
O 	O 	0.74590 0.88350 0.54920 -0.16800
O 	O 	0.52890 0.61550 0.58650 -0.33200
O 	O 	0.76940 0.61580 0.55070 -0.20300
C 	C 	0.80410 0.79620 0.67490 0.01700
C 	C 	0.70530 0.70130 0.67770 -0.02100
C 	C 	0.84550 0.85700 0.59850 0.28400
C 	C 	0.66580 0.64020 0.59760 0.31400
O 	O 	0.48440 0.38510 0.58920 -0.31500
O 	O 	0.24590 0.38350 0.54920 -0.24700
O 	O 	0.02890 0.11550 0.58650 -0.40900
O 	O 	0.26940 0.11580 0.55070 -0.27200
C 	C 	0.30410 0.29620 0.67490 -0.01400
C 	C 	0.20530 0.20130 0.67770 -0.05700
C 	C 	0.34550 0.35700 0.59850 0.29200
C 	C 	0.16580 0.14020 0.59760 0.32000
O 	O 	0.01560 0.88510 0.41080 -0.31900
O 	O 	0.25410 0.88350 0.45080 -0.19800
O 	O 	0.47110 0.61550 0.41350 -0.32700
O 	O 	0.23060 0.61580 0.44930 -0.24700
C 	C 	0.19590 0.79620 0.32510 -0.02300
C 	C 	0.29470 0.70130 0.32230 -0.02000
C 	C 	0.15450 0.85700 0.40150 0.29400
C 	C 	0.33420 0.64020 0.40240 0.31200
O 	O 	0.51560 0.38510 0.41080 -0.32600
O 	O 	0.75410 0.38350 0.45080 -0.20700
O 	O 	0.97110 0.11550 0.41350 -0.29800
O 	O 	0.73060 0.11580 0.44930 -0.24100
C 	C 	0.69590 0.29620 0.32510 -0.02600
C 	C 	0.79470 0.20130 0.32230 -0.01500
C 	C 	0.65450 0.35700 0.40150 0.29600
C 	C 	0.83420 0.14020 0.40240 0.30600
Cu	Cu	-0.00000 0.00191 -0.00000 0.81600
Cu	Cu	0.50000 0.50191 -0.00000 0.90500
Cu	Cu	0.00000 0.00191 0.50000 0.86200
Cu	Cu	0.50000 0.50191 0.50000 0.95200
C 	C 	0.14820 0.84570 0.25000 -0.00600
H 	H 	0.08560 0.91060 0.25000 0.07300
C 	C 	0.34070 0.65900 0.25000 -0.00700
H 	H 	0.40810 0.59710 0.25000 0.06700
C 	C 	0.64820 0.34570 0.25000 -0.00500
H 	H 	0.58560 0.41060 0.25000 0.06600
C 	C 	0.84070 0.15900 0.25000 -0.01300
H 	H 	0.90810 0.09710 0.25000 0.06600
C 	C 	0.85180 0.84570 0.75000 -0.02300
H 	H 	0.91440 0.91060 0.75000 0.12700
C 	C 	0.65930 0.65900 0.75000 0.00700
H 	H 	0.59190 0.59710 0.75000 0.06900
C 	C 	0.35180 0.34570 0.75000 -0.02400
H 	H 	0.41440 0.41060 0.75000 0.07600
C 	C 	0.15930 0.15900 0.75000 0.01600
H 	H 	0.09190 0.09710 0.75000 0.01400
