data_crystal

_cell_length_a 8.66050
_cell_length_b 17.16200
_cell_length_c 12.17450
_cell_angle_alpha 90.00000
_cell_angle_beta  92.03400
_cell_angle_gamma 90.00000

_symmetry_space_group_name_	'P 1'
_symmetry_space_group_name_H-M	'P 1'

loop_
_symmetry_equiv_pos_as_xyz
  x,y,z

loop_
_atom_site_label
_atom_site_type_symbol
_atom_site_fract_x
_atom_site_fract_y
_atom_site_fract_z
_atom_site_charge
C 	C 	0.82590 0.26420 0.57610 0.10300
C 	C 	0.34190 0.18790 0.42320 0.08800
C 	C 	0.02920 0.07310 0.76150 0.06900
C 	C 	0.86870 0.13450 0.24600 0.09900
N 	N 	0.88440 0.21050 0.54100 -0.29200
N 	N 	0.22900 0.16320 0.45640 -0.30200
N 	N 	0.05400 0.09050 0.67360 -0.31400
N 	N 	0.92720 0.11400 0.32610 -0.30900
S 	S 	0.74530 0.34179 0.63208 -0.07800
S 	S 	0.50240 0.22395 0.37626 -0.08900
S 	S 	0.99150 0.03929 0.88531 -0.05400
S 	S 	0.77700 0.16636 0.13267 -0.07400
Mn	Mn	0.01482 0.10850 0.49682 1.17600
Hg	Hg	0.50509 0.33953 0.50594 -0.01700
C 	C 	0.32590 0.23580 0.07610 0.10200
C 	C 	0.84190 0.31210 0.92320 0.08900
C 	C 	0.52920 0.42690 0.26150 0.07200
C 	C 	0.36870 0.36550 0.74600 0.09800
N 	N 	0.38440 0.28950 0.04100 -0.29200
N 	N 	0.72900 0.33680 0.95640 -0.30200
N 	N 	0.55400 0.40950 0.17360 -0.31400
N 	N 	0.42720 0.38600 0.82610 -0.31100
S 	S 	0.24530 0.15821 0.13208 -0.07900
S 	S 	0.00240 0.27605 0.87626 -0.09100
S 	S 	0.49150 0.46071 0.38531 -0.05800
S 	S 	0.27700 0.33364 0.63267 -0.07700
Mn	Mn	0.51482 0.39150 0.99682 1.17800
Hg	Hg	0.00509 0.16047 0.00594 -0.01900
C 	C 	0.67410 0.76420 0.92390 0.10200
C 	C 	0.15810 0.68790 0.07680 0.08900
C 	C 	0.47080 0.57310 0.73850 0.07200
C 	C 	0.63130 0.63450 0.25400 0.09800
N 	N 	0.61560 0.71050 0.95900 -0.29200
N 	N 	0.27100 0.66320 0.04360 -0.30200
N 	N 	0.44600 0.59050 0.82640 -0.31400
N 	N 	0.57280 0.61400 0.17390 -0.31100
S 	S 	0.75470 0.84179 0.86792 -0.07900
S 	S 	0.99760 0.72395 0.12374 -0.09100
S 	S 	0.50850 0.53929 0.61469 -0.05800
S 	S 	0.72300 0.66636 0.36733 -0.07700
Mn	Mn	0.48518 0.60850 0.00318 1.17800
Hg	Hg	0.99491 0.83953 0.99406 -0.01900
C 	C 	0.17410 0.73580 0.42390 0.10200
C 	C 	0.65810 0.81210 0.57680 0.08700
C 	C 	0.97080 0.92690 0.23850 0.06800
C 	C 	0.13130 0.86550 0.75400 0.09800
N 	N 	0.11560 0.78950 0.45900 -0.29200
N 	N 	0.77100 0.83680 0.54360 -0.30200
N 	N 	0.94600 0.90950 0.32640 -0.31400
N 	N 	0.07280 0.88600 0.67390 -0.30900
S 	S 	0.25470 0.65821 0.36792 -0.07800
S 	S 	0.49760 0.77605 0.62374 -0.08900
S 	S 	0.00850 0.96071 0.11469 -0.05400
S 	S 	0.22300 0.83364 0.86733 -0.07400
Mn	Mn	0.98518 0.89150 0.50318 1.17600
Hg	Hg	0.49491 0.66047 0.49406 -0.01700
