data_crystal

_cell_length_a 15.12300
_cell_length_b 12.30500
_cell_length_c 19.26400
_cell_angle_alpha 90.00000
_cell_angle_beta  98.62000
_cell_angle_gamma 90.00000

_symmetry_space_group_name_	'P 1'
_symmetry_space_group_name_H-M	'P 1'

loop_
_symmetry_equiv_pos_as_xyz
  x,y,z

loop_
_atom_site_label
_atom_site_type_symbol
_atom_site_fract_x
_atom_site_fract_y
_atom_site_fract_z
_atom_site_charge
Mo	Mo	0.01640 0.14640 0.82390 1.04600
Mo	Mo	0.11930 0.24620 0.92460 1.09300
Mo	Mo	0.24660 0.09100 0.05900 1.02400
Mo	Mo	0.23650 0.88050 0.05760 1.07700
Mo	Mo	0.09670 0.74560 0.92010 1.08600
Mo	Mo	0.00440 0.85910 0.82060 1.07400
P 	P 	0.19770 0.98960 0.89240 0.57100
P 	P 	0.03420 0.00340 0.67740 0.39100
P 	P 	0.33870 0.26840 0.96010 0.60900
P 	P 	0.31360 0.69800 0.95570 0.58600
O 	O 	0.12900 0.22180 0.82670 -0.47200
O 	O 	0.02220 0.13900 0.92650 -0.64700
O 	O 	0.02400 0.10460 0.72030 -0.40300
O 	O 	0.93470 0.00880 0.81970 -0.43400
O 	O 	0.10840 0.99540 0.84200 -0.37000
O 	O 	0.15110 0.21720 0.03310 -0.54500
O 	O 	0.24650 0.31210 0.93320 -0.37400
O 	O 	0.20290 0.09100 0.94030 -0.44100
O 	O 	0.14280 0.99240 0.05740 -0.59200
O 	O 	0.32770 0.97980 0.03650 -0.43800
O 	O 	0.33570 0.20080 0.02660 -0.45900
O 	O 	0.19330 0.88920 0.94010 -0.38900
O 	O 	0.31680 0.75770 0.02570 -0.43600
O 	O 	0.13230 0.76820 0.03040 -0.52900
O 	O 	0.10870 0.76860 0.82130 -0.45700
O 	O 	0.21760 0.66630 0.92640 -0.37400
O 	O 	0.00900 0.86240 0.92350 -0.60900
O 	O 	0.02340 0.90080 0.72070 -0.32600
O 	O 	0.27960 0.98080 0.85650 -0.13500
O 	O 	0.97080 0.00690 0.61010 -0.30100
O 	O 	0.13480 0.00080 0.66220 -0.20900
O 	O 	0.36370 0.18800 0.90220 -0.18900
O 	O 	0.41210 0.34910 0.97040 -0.32700
O 	O 	0.37340 0.60100 0.96030 -0.31700
O 	O 	0.34880 0.77790 0.90000 -0.15100
Mo	Mo	0.48360 0.64640 0.67610 1.09100
Mo	Mo	0.38070 0.74620 0.57540 1.09200
Mo	Mo	0.25340 0.59100 0.44100 1.07800
Mo	Mo	0.26350 0.38050 0.44240 1.07600
Mo	Mo	0.40330 0.24560 0.57990 1.07400
Mo	Mo	0.49560 0.35910 0.67940 1.08400
P 	P 	0.30230 0.48960 0.60760 0.51600
P 	P 	0.46580 0.50340 0.82260 0.53100
P 	P 	0.16130 0.76840 0.53990 0.55300
P 	P 	0.18640 0.19800 0.54430 0.53500
O 	O 	0.37100 0.72180 0.67330 -0.44300
O 	O 	0.47780 0.63900 0.57350 -0.61200
O 	O 	0.47600 0.60460 0.77970 -0.36600
O 	O 	0.56530 0.50880 0.68030 -0.46300
O 	O 	0.39160 0.49540 0.65800 -0.40800
O 	O 	0.34890 0.71720 0.46690 -0.46300
O 	O 	0.25350 0.81210 0.56680 -0.35900
O 	O 	0.29710 0.59100 0.55970 -0.41600
O 	O 	0.35720 0.49240 0.44260 -0.61700
O 	O 	0.17230 0.47980 0.46350 -0.48000
O 	O 	0.16430 0.70080 0.47340 -0.39200
O 	O 	0.30670 0.38920 0.55990 -0.42100
O 	O 	0.18320 0.25770 0.47430 -0.41100
O 	O 	0.36770 0.26820 0.46960 -0.48700
O 	O 	0.39130 0.26860 0.67870 -0.46000
O 	O 	0.28240 0.16630 0.57360 -0.39500
O 	O 	0.49100 0.36240 0.57650 -0.62300
O 	O 	0.47660 0.40080 0.77930 -0.37300
O 	O 	0.22040 0.48080 0.64350 -0.17900
O 	O 	0.52920 0.50690 0.88990 -0.35200
O 	O 	0.36520 0.50080 0.83780 -0.17700
O 	O 	0.13630 0.68800 0.59780 -0.18400
O 	O 	0.08790 0.84910 0.52960 -0.34100
O 	O 	0.12660 0.10100 0.53970 -0.38300
O 	O 	0.15120 0.27790 0.60000 -0.18500
Mo	Mo	0.98360 0.85360 0.17610 1.11800
Mo	Mo	0.88070 0.75380 0.07540 1.07500
Mo	Mo	0.75340 0.90900 0.94100 1.12900
Mo	Mo	0.76350 0.11950 0.94240 1.09200
Mo	Mo	0.90330 0.25440 0.07990 1.07200
Mo	Mo	0.99560 0.14090 0.17940 1.09500
P 	P 	0.80230 0.01040 0.10760 0.46400
P 	P 	0.96580 0.99660 0.32260 0.64200
P 	P 	0.66130 0.73160 0.03990 0.50000
P 	P 	0.68640 0.30200 0.04430 0.47800
O 	O 	0.87100 0.77820 0.17330 -0.43600
O 	O 	0.97780 0.86100 0.07350 -0.57100
O 	O 	0.97600 0.89540 0.27970 -0.35000
O 	O 	0.06530 0.99120 0.18030 -0.48800
O 	O 	0.89160 0.00460 0.15800 -0.43600
O 	O 	0.84890 0.78280 0.96690 -0.39700
O 	O 	0.75350 0.68790 0.06680 -0.38300
O 	O 	0.79710 0.90900 0.05970 -0.38900
O 	O 	0.85720 0.00760 0.94260 -0.59700
O 	O 	0.67230 0.02020 0.96350 -0.47100
O 	O 	0.66430 0.79920 0.97340 -0.30700
O 	O 	0.80670 0.11080 0.05990 -0.45500
O 	O 	0.68320 0.24230 0.97430 -0.32600
O 	O 	0.86770 0.23180 0.96960 -0.40200
O 	O 	0.89130 0.23140 0.17870 -0.44600
O 	O 	0.78240 0.33370 0.07360 -0.38200
O 	O 	0.99100 0.13760 0.07650 -0.60800
O 	O 	0.97660 0.09920 0.27930 -0.40800
O 	O 	0.72040 0.01920 0.14350 -0.20800
O 	O 	0.02920 0.99310 0.38990 -0.41600
O 	O 	0.86520 0.99920 0.33780 -0.14600
O 	O 	0.63630 0.81200 0.09780 -0.15800
O 	O 	0.58790 0.65090 0.02960 -0.36500
O 	O 	0.62660 0.39900 0.03970 -0.35600
O 	O 	0.65120 0.22210 0.10000 -0.18500
Mo	Mo	0.51640 0.35360 0.32390 1.08000
Mo	Mo	0.61930 0.25380 0.42460 1.07700
Mo	Mo	0.74660 0.40900 0.55900 1.08700
Mo	Mo	0.73650 0.61950 0.55760 1.09000
Mo	Mo	0.59670 0.75440 0.42010 1.08600
Mo	Mo	0.50440 0.64090 0.32060 1.08600
P 	P 	0.69770 0.51040 0.39240 0.51500
P 	P 	0.53420 0.49660 0.17740 0.53400
P 	P 	0.83870 0.23160 0.46010 0.54900
P 	P 	0.81360 0.80200 0.45570 0.53300
O 	O 	0.62900 0.27820 0.32670 -0.46400
O 	O 	0.52220 0.36100 0.42650 -0.62000
O 	O 	0.52400 0.39540 0.22030 -0.38500
O 	O 	0.43470 0.49120 0.31970 -0.47800
O 	O 	0.60840 0.50460 0.34200 -0.40600
O 	O 	0.65110 0.28280 0.53310 -0.47400
O 	O 	0.74650 0.18790 0.43320 -0.39500
O 	O 	0.70290 0.40900 0.44030 -0.41400
O 	O 	0.64280 0.50760 0.55740 -0.61100
O 	O 	0.82770 0.52020 0.53650 -0.44000
O 	O 	0.83570 0.29920 0.52660 -0.36400
O 	O 	0.69330 0.61080 0.44010 -0.42100
O 	O 	0.81680 0.74230 0.52570 -0.35900
O 	O 	0.63230 0.73180 0.53040 -0.45900
O 	O 	0.60870 0.73140 0.32130 -0.44300
O 	O 	0.71760 0.83370 0.42640 -0.36200
O 	O 	0.50900 0.63760 0.42350 -0.61900
O 	O 	0.52340 0.59920 0.22070 -0.37500
O 	O 	0.77960 0.51920 0.35650 -0.16300
O 	O 	0.47080 0.49310 0.11010 -0.40100
O 	O 	0.63480 0.49920 0.16220 -0.17600
O 	O 	0.86370 0.31200 0.40220 -0.16100
O 	O 	0.91210 0.15090 0.47040 -0.33400
O 	O 	0.87340 0.89900 0.46030 -0.28800
O 	O 	0.84880 0.72210 0.40000 -0.15000
Cd	Cd	-0.00000 0.00000 -0.00000 1.17200
Cd	Cd	0.50000 0.50000 0.50000 1.26000
Cd	Cd	0.00000 0.00000 0.50000 1.20200
Cd	Cd	0.50000 0.50000 -0.00000 1.23900
