data_crystal

_cell_length_a 21.85290
_cell_length_b 15.50190
_cell_length_c 16.89850
_cell_angle_alpha 90.00000
_cell_angle_beta  90.00000
_cell_angle_gamma 90.00000

_symmetry_space_group_name_	'P 1'
_symmetry_space_group_name_H-M	'P 1'

loop_
_symmetry_equiv_pos_as_xyz
  x,y,z

loop_
_atom_site_label
_atom_site_type_symbol
_atom_site_fract_x
_atom_site_fract_y
_atom_site_fract_z
_atom_site_charge
Ag	Ag	0.14122 0.29449 0.45340 0.53300
Ag	Ag	0.14678 0.96680 0.24010 0.53400
N 	N 	0.11480 0.23680 0.33050 -0.19900
N 	N 	0.11060 0.10970 0.25160 -0.19500
N 	N 	0.23130 0.37320 0.44530 -0.19700
N 	N 	0.31050 0.43230 0.36670 -0.19200
N 	N 	0.05420 0.31950 0.52430 -0.19900
N 	N 	0.05480 0.89530 0.27280 -0.18800
C 	C 	0.09360 0.28100 0.27070 0.09300
H 	H 	0.08660 0.34110 0.27710 -0.01900
C 	C 	0.08080 0.24340 0.19810 -0.16500
H 	H 	0.06690 0.27650 0.15430 0.08100
C 	C 	0.08940 0.15690 0.19280 0.09400
H 	H 	0.07950 0.12890 0.14450 -0.01300
C 	C 	0.12250 0.15340 0.31840 0.09300
H 	H 	0.13820 0.12080 0.36150 -0.02200
C 	C 	0.26680 0.38130 0.50850 0.08400
H 	H 	0.25210 0.36170 0.55830 -0.01500
C 	C 	0.32430 0.41710 0.50430 -0.15400
H 	H 	0.34890 0.42530 0.55010 0.06800
C 	C 	0.34420 0.44050 0.43010 0.08800
H 	H 	0.38420 0.46370 0.42480 -0.01200
C 	C 	0.25370 0.40100 0.37740 0.09400
H 	H 	0.22760 0.39870 0.33250 -0.02500
C 	C 	0.05420 0.35010 0.59740 0.07700
H 	H 	0.09200 0.36140 0.62300 -0.01600
C 	C 	0.05360 0.81860 0.31000 0.07300
H 	H 	0.09140 0.79200 0.32330 -0.00700
Ag	Ag	0.64122 0.79449 0.45340 0.53200
Ag	Ag	0.64678 0.46680 0.24010 0.53400
N 	N 	0.61480 0.73680 0.33050 -0.19900
N 	N 	0.61060 0.60970 0.25160 -0.19600
N 	N 	0.73130 0.87320 0.44530 -0.19700
N 	N 	0.81050 0.93230 0.36670 -0.19300
N 	N 	0.55420 0.81950 0.52430 -0.19900
N 	N 	0.55480 0.39530 0.27280 -0.18800
C 	C 	0.59360 0.78100 0.27070 0.09300
H 	H 	0.58660 0.84110 0.27710 -0.01900
C 	C 	0.58080 0.74340 0.19810 -0.16500
H 	H 	0.56690 0.77650 0.15430 0.08000
C 	C 	0.58940 0.65690 0.19280 0.09400
H 	H 	0.57950 0.62890 0.14450 -0.01400
C 	C 	0.62250 0.65340 0.31840 0.09300
H 	H 	0.63820 0.62080 0.36150 -0.02200
C 	C 	0.76680 0.88130 0.50850 0.08400
H 	H 	0.75210 0.86170 0.55830 -0.01600
C 	C 	0.82430 0.91710 0.50430 -0.15400
H 	H 	0.84890 0.92530 0.55010 0.06800
C 	C 	0.84420 0.94050 0.43010 0.08800
H 	H 	0.88420 0.96370 0.42480 -0.01200
C 	C 	0.75370 0.90100 0.37740 0.09400
H 	H 	0.72760 0.89870 0.33250 -0.02500
C 	C 	0.55420 0.85010 0.59740 0.07800
H 	H 	0.59200 0.86140 0.62300 -0.01700
C 	C 	0.55360 0.31860 0.31000 0.07400
H 	H 	0.59140 0.29200 0.32330 -0.00800
N 	N 	0.80410 0.82470 0.02020 -0.18700
N 	N 	0.80080 0.91370 0.13610 -0.20500
C 	C 	0.74440 0.84220 0.00660 0.15900
H 	H 	0.72500 0.81830 0.96130 -0.06000
C 	C 	0.71110 0.89410 0.05710 -0.18900
H 	H 	0.66910 0.90610 0.04760 0.09100
C 	C 	0.74110 0.92810 0.12200 0.09600
H 	H 	0.71870 0.96300 0.15800 -0.02100
C 	C 	0.82820 0.86270 0.08410 0.09800
H 	H 	0.87040 0.85170 0.09340 -0.02100
N 	N 	0.30410 0.32470 0.02020 -0.18700
N 	N 	0.30080 0.41370 0.13610 -0.20500
C 	C 	0.24440 0.34220 0.00660 0.16200
H 	H 	0.22500 0.31830 0.96130 -0.06200
C 	C 	0.21110 0.39410 0.05710 -0.19000
H 	H 	0.16910 0.40610 0.04760 0.09200
C 	C 	0.24110 0.42810 0.12200 0.09700
H 	H 	0.21870 0.46300 0.15800 -0.02100
C 	C 	0.32820 0.36270 0.08410 0.09800
H 	H 	0.37040 0.35170 0.09340 -0.02000
N 	N 	0.19590 0.82470 0.02020 -0.18700
N 	N 	0.19920 0.91370 0.13610 -0.20500
C 	C 	0.25560 0.84220 0.00660 0.15900
H 	H 	0.27500 0.81830 0.96130 -0.06000
C 	C 	0.28890 0.89410 0.05710 -0.18900
H 	H 	0.33090 0.90610 0.04760 0.09100
C 	C 	0.25890 0.92810 0.12200 0.09600
H 	H 	0.28130 0.96300 0.15800 -0.02100
C 	C 	0.17180 0.86270 0.08410 0.09700
H 	H 	0.12960 0.85170 0.09340 -0.02000
N 	N 	0.69590 0.32470 0.02020 -0.18700
N 	N 	0.69920 0.41370 0.13610 -0.20500
C 	C 	0.75560 0.34220 0.00660 0.16200
H 	H 	0.77500 0.31830 0.96130 -0.06200
C 	C 	0.78890 0.39410 0.05710 -0.19000
H 	H 	0.83090 0.40610 0.04760 0.09200
C 	C 	0.75890 0.42810 0.12200 0.09700
H 	H 	0.78130 0.46300 0.15800 -0.02100
C 	C 	0.67180 0.36270 0.08410 0.09800
H 	H 	0.62960 0.35170 0.09340 -0.02000
Ag	Ag	0.85878 0.29449 0.45340 0.53200
Ag	Ag	0.85322 0.96680 0.24010 0.53300
N 	N 	0.88520 0.23680 0.33050 -0.19900
N 	N 	0.88940 0.10970 0.25160 -0.19600
N 	N 	0.76870 0.37320 0.44530 -0.19700
N 	N 	0.68950 0.43230 0.36670 -0.19200
N 	N 	0.94580 0.31950 0.52430 -0.20000
N 	N 	0.94520 0.89530 0.27280 -0.18900
C 	C 	0.90640 0.28100 0.27070 0.09200
H 	H 	0.91340 0.34110 0.27710 -0.02000
C 	C 	0.91920 0.24340 0.19810 -0.16500
H 	H 	0.93310 0.27650 0.15430 0.08000
C 	C 	0.91060 0.15690 0.19280 0.09300
H 	H 	0.92050 0.12890 0.14450 -0.01400
C 	C 	0.87750 0.15340 0.31840 0.09300
H 	H 	0.86180 0.12080 0.36150 -0.02200
C 	C 	0.73320 0.38130 0.50850 0.08400
H 	H 	0.74790 0.36170 0.55830 -0.01500
C 	C 	0.67570 0.41710 0.50430 -0.15400
H 	H 	0.65110 0.42530 0.55010 0.06800
C 	C 	0.65580 0.44050 0.43010 0.08800
H 	H 	0.61580 0.46370 0.42480 -0.01200
C 	C 	0.74630 0.40100 0.37740 0.09400
H 	H 	0.77240 0.39870 0.33250 -0.02500
C 	C 	0.94580 0.35010 0.59740 0.07400
H 	H 	0.90800 0.36140 0.62300 -0.01600
C 	C 	0.94640 0.81860 0.31000 0.07000
H 	H 	0.90860 0.79200 0.32330 -0.00700
Ag	Ag	0.35878 0.79449 0.45340 0.53200
Ag	Ag	0.35322 0.46680 0.24010 0.53400
N 	N 	0.38520 0.73680 0.33050 -0.19900
N 	N 	0.38940 0.60970 0.25160 -0.19600
N 	N 	0.26870 0.87320 0.44530 -0.19700
N 	N 	0.18950 0.93230 0.36670 -0.19300
N 	N 	0.44580 0.81950 0.52430 -0.19900
N 	N 	0.44520 0.39530 0.27280 -0.18800
C 	C 	0.40640 0.78100 0.27070 0.09300
H 	H 	0.41340 0.84110 0.27710 -0.01900
C 	C 	0.41920 0.74340 0.19810 -0.16500
H 	H 	0.43310 0.77650 0.15430 0.08000
C 	C 	0.41060 0.65690 0.19280 0.09400
H 	H 	0.42050 0.62890 0.14450 -0.01400
C 	C 	0.37750 0.65340 0.31840 0.09300
H 	H 	0.36180 0.62080 0.36150 -0.02200
C 	C 	0.23320 0.88130 0.50850 0.08400
H 	H 	0.24790 0.86170 0.55830 -0.01500
C 	C 	0.17570 0.91710 0.50430 -0.15400
H 	H 	0.15110 0.92530 0.55010 0.06800
C 	C 	0.15580 0.94050 0.43010 0.08800
H 	H 	0.11580 0.96370 0.42480 -0.01200
C 	C 	0.24630 0.90100 0.37740 0.09400
H 	H 	0.27240 0.89870 0.33250 -0.02500
C 	C 	0.44580 0.85010 0.59740 0.07800
H 	H 	0.40800 0.86140 0.62300 -0.01700
C 	C 	0.44640 0.31860 0.31000 0.07400
H 	H 	0.40860 0.29200 0.32330 -0.00800
C 	C 	0.00000 0.36590 0.63720 -0.14800
H 	H 	0.00000 0.38690 0.69000 0.06800
C 	C 	-0.00000 0.30540 0.49030 0.09000
H 	H 	0.00000 0.28370 0.43780 -0.02400
C 	C 	0.00000 0.77690 0.32960 -0.14200
H 	H 	-0.00000 0.72240 0.35530 0.06800
C 	C 	-0.00000 0.93040 0.25970 0.09500
H 	H 	0.00000 0.98710 0.23850 -0.01700
C 	C 	0.50000 0.86590 0.63720 -0.15300
H 	H 	0.50000 0.88690 0.69000 0.06900
C 	C 	0.50000 0.80540 0.49030 0.08700
H 	H 	0.50000 0.78370 0.43780 -0.02500
C 	C 	0.50000 0.27690 0.32960 -0.14700
H 	H 	0.50000 0.22240 0.35530 0.06900
C 	C 	0.50000 0.43040 0.25970 0.09300
H 	H 	0.50000 0.48710 0.23850 -0.01700
N 	N 	0.19590 0.17530 0.52020 -0.18300
N 	N 	0.19920 0.08630 0.63610 -0.20000
C 	C 	0.25560 0.15780 0.50660 0.07100
H 	H 	0.27500 0.18170 0.46130 -0.00400
C 	C 	0.28890 0.10590 0.55710 -0.14300
H 	H 	0.33090 0.09390 0.54760 0.06700
C 	C 	0.25890 0.07190 0.62200 0.07200
H 	H 	0.28130 0.03700 0.65800 -0.01500
C 	C 	0.17180 0.13730 0.58410 0.09200
H 	H 	0.12960 0.14830 0.59340 -0.02400
N 	N 	0.69590 0.67530 0.52020 -0.18300
N 	N 	0.69920 0.58630 0.63610 -0.20000
C 	C 	0.75560 0.65780 0.50660 0.07100
H 	H 	0.77500 0.68170 0.46130 -0.00400
C 	C 	0.78890 0.60590 0.55710 -0.14300
H 	H 	0.83090 0.59390 0.54760 0.06600
C 	C 	0.75890 0.57190 0.62200 0.07200
H 	H 	0.78130 0.53700 0.65800 -0.01500
C 	C 	0.67180 0.63730 0.58410 0.09200
H 	H 	0.62960 0.64830 0.59340 -0.02400
Ag	Ag	0.85878 0.70551 0.95340 0.51400
Ag	Ag	0.85322 0.03320 0.74010 0.53200
N 	N 	0.88520 0.76320 0.83050 -0.20200
N 	N 	0.88940 0.89030 0.75160 -0.19800
N 	N 	0.76870 0.62680 0.94530 -0.21700
N 	N 	0.68950 0.56770 0.86670 -0.18400
N 	N 	0.94580 0.68050 0.02430 -0.16300
N 	N 	0.94520 0.10470 0.77280 -0.19000
C 	C 	0.90640 0.71900 0.77070 0.09100
H 	H 	0.91340 0.65890 0.77710 -0.02300
C 	C 	0.91920 0.75660 0.69810 -0.16600
H 	H 	0.93310 0.72350 0.65430 0.07600
C 	C 	0.91060 0.84310 0.69280 0.09300
H 	H 	0.92050 0.87110 0.64450 -0.01900
C 	C 	0.87750 0.84660 0.81840 0.09200
H 	H 	0.86180 0.87920 0.86150 -0.02800
C 	C 	0.73320 0.61870 0.00850 0.10300
H 	H 	0.74790 0.63830 0.05830 -0.01600
C 	C 	0.67570 0.58290 0.00430 -0.09300
H 	H 	0.65110 0.57470 0.05010 0.05400
C 	C 	0.65580 0.55950 0.93010 0.02300
H 	H 	0.61580 0.53630 0.92480 -0.00000
C 	C 	0.74630 0.59900 0.87740 0.08400
H 	H 	0.77240 0.60130 0.83250 -0.02500
C 	C 	0.94580 0.64990 0.09740 0.06900
H 	H 	0.90800 0.63860 0.12300 -0.01000
C 	C 	0.94640 0.18140 0.81000 0.06600
H 	H 	0.90860 0.20800 0.82330 -0.00900
Ag	Ag	0.35878 0.20551 0.95340 0.51400
Ag	Ag	0.35322 0.53320 0.74010 0.53200
N 	N 	0.38520 0.26320 0.83050 -0.20200
N 	N 	0.38940 0.39030 0.75160 -0.19700
N 	N 	0.26870 0.12680 0.94530 -0.21700
N 	N 	0.18950 0.06770 0.86670 -0.18300
N 	N 	0.44580 0.18050 0.02430 -0.16100
N 	N 	0.44520 0.60470 0.77280 -0.18900
C 	C 	0.40640 0.21900 0.77070 0.09200
H 	H 	0.41340 0.15890 0.77710 -0.02200
C 	C 	0.41920 0.25660 0.69810 -0.16600
H 	H 	0.43310 0.22350 0.65430 0.07700
C 	C 	0.41060 0.34310 0.69280 0.09300
H 	H 	0.42050 0.37110 0.64450 -0.01800
C 	C 	0.37750 0.34660 0.81840 0.09200
H 	H 	0.36180 0.37920 0.86150 -0.02800
C 	C 	0.23320 0.11870 0.00850 0.10400
H 	H 	0.24790 0.13830 0.05830 -0.01600
C 	C 	0.17570 0.08290 0.00430 -0.09300
H 	H 	0.15110 0.07470 0.05010 0.05500
C 	C 	0.15580 0.05950 0.93010 0.02300
H 	H 	0.11580 0.03630 0.92480 0.00000
C 	C 	0.24630 0.09900 0.87740 0.08500
H 	H 	0.27240 0.10130 0.83250 -0.02500
C 	C 	0.44580 0.14990 0.09740 0.07300
H 	H 	0.40800 0.13860 0.12300 -0.01000
C 	C 	0.44640 0.68140 0.81000 0.07100
H 	H 	0.40860 0.70800 0.82330 -0.01000
Ag	Ag	0.14122 0.70551 0.95340 0.51400
Ag	Ag	0.14678 0.03320 0.74010 0.53200
N 	N 	0.11480 0.76320 0.83050 -0.20200
N 	N 	0.11060 0.89030 0.75160 -0.19700
N 	N 	0.23130 0.62680 0.94530 -0.21700
N 	N 	0.31050 0.56770 0.86670 -0.18400
N 	N 	0.05420 0.68050 0.02430 -0.16200
N 	N 	0.05480 0.10470 0.77280 -0.18900
C 	C 	0.09360 0.71900 0.77070 0.09200
H 	H 	0.08660 0.65890 0.77710 -0.02200
C 	C 	0.08080 0.75660 0.69810 -0.16600
H 	H 	0.06690 0.72350 0.65430 0.07700
C 	C 	0.08940 0.84310 0.69280 0.09300
H 	H 	0.07950 0.87110 0.64450 -0.01800
C 	C 	0.12250 0.84660 0.81840 0.09200
H 	H 	0.13820 0.87920 0.86150 -0.02800
C 	C 	0.26680 0.61870 0.00850 0.10300
H 	H 	0.25210 0.63830 0.05830 -0.01600
C 	C 	0.32430 0.58290 0.00430 -0.09300
H 	H 	0.34890 0.57470 0.05010 0.05400
C 	C 	0.34420 0.55950 0.93010 0.02300
H 	H 	0.38420 0.53630 0.92480 -0.00000
C 	C 	0.25370 0.59900 0.87740 0.08400
H 	H 	0.22760 0.60130 0.83250 -0.02500
C 	C 	0.05420 0.64990 0.09740 0.07200
H 	H 	0.09200 0.63860 0.12300 -0.01000
C 	C 	0.05360 0.18140 0.81000 0.06900
H 	H 	0.09140 0.20800 0.82330 -0.01000
Ag	Ag	0.64122 0.20551 0.95340 0.51400
Ag	Ag	0.64678 0.53320 0.74010 0.53200
N 	N 	0.61480 0.26320 0.83050 -0.20200
N 	N 	0.61060 0.39030 0.75160 -0.19700
N 	N 	0.73130 0.12680 0.94530 -0.21700
N 	N 	0.81050 0.06770 0.86670 -0.18300
N 	N 	0.55420 0.18050 0.02430 -0.16100
N 	N 	0.55480 0.60470 0.77280 -0.18900
C 	C 	0.59360 0.21900 0.77070 0.09200
H 	H 	0.58660 0.15890 0.77710 -0.02200
C 	C 	0.58080 0.25660 0.69810 -0.16600
H 	H 	0.56690 0.22350 0.65430 0.07700
C 	C 	0.58940 0.34310 0.69280 0.09300
H 	H 	0.57950 0.37110 0.64450 -0.01800
C 	C 	0.62250 0.34660 0.81840 0.09200
H 	H 	0.63820 0.37920 0.86150 -0.02800
C 	C 	0.76680 0.11870 0.00850 0.10400
H 	H 	0.75210 0.13830 0.05830 -0.01600
C 	C 	0.82430 0.08290 0.00430 -0.09300
H 	H 	0.84890 0.07470 0.05010 0.05500
C 	C 	0.84420 0.05950 0.93010 0.02300
H 	H 	0.88420 0.03630 0.92480 -0.00000
C 	C 	0.75370 0.09900 0.87740 0.08500
H 	H 	0.72760 0.10130 0.83250 -0.02500
C 	C 	0.55420 0.14990 0.09740 0.07300
H 	H 	0.59200 0.13860 0.12300 -0.01000
C 	C 	0.55360 0.68140 0.81000 0.07100
H 	H 	0.59140 0.70800 0.82330 -0.01000
N 	N 	0.80410 0.17530 0.52020 -0.18300
N 	N 	0.80080 0.08630 0.63610 -0.20000
C 	C 	0.74440 0.15780 0.50660 0.07100
H 	H 	0.72500 0.18170 0.46130 -0.00400
C 	C 	0.71110 0.10590 0.55710 -0.14300
H 	H 	0.66910 0.09390 0.54760 0.06700
C 	C 	0.74110 0.07190 0.62200 0.07200
H 	H 	0.71870 0.03700 0.65800 -0.01500
C 	C 	0.82820 0.13730 0.58410 0.09200
H 	H 	0.87040 0.14830 0.59340 -0.02500
N 	N 	0.30410 0.67530 0.52020 -0.18300
N 	N 	0.30080 0.58630 0.63610 -0.20000
C 	C 	0.24440 0.65780 0.50660 0.07100
H 	H 	0.22500 0.68170 0.46130 -0.00400
C 	C 	0.21110 0.60590 0.55710 -0.14300
H 	H 	0.16910 0.59390 0.54760 0.06700
C 	C 	0.24110 0.57190 0.62200 0.07200
H 	H 	0.21870 0.53700 0.65800 -0.01500
C 	C 	0.32820 0.63730 0.58410 0.09200
H 	H 	0.37040 0.64830 0.59340 -0.02400
C 	C 	0.00000 0.63410 0.13720 -0.13300
H 	H 	-0.00000 0.61310 0.19000 0.06700
C 	C 	0.00000 0.69460 0.99030 0.00600
H 	H 	-0.00000 0.71630 0.93780 -0.00500
C 	C 	0.00000 0.22310 0.82960 -0.14400
H 	H 	0.00000 0.27760 0.85530 0.06100
C 	C 	0.00000 0.06960 0.75970 0.09100
H 	H 	-0.00000 0.01290 0.73850 -0.01800
C 	C 	0.50000 0.13410 0.13720 -0.13700
H 	H 	0.50000 0.11310 0.19000 0.06800
C 	C 	0.50000 0.19460 0.99030 0.00100
H 	H 	0.50000 0.21630 0.93780 -0.00500
C 	C 	0.50000 0.72310 0.82960 -0.14800
H 	H 	0.50000 0.77760 0.85530 0.06200
C 	C 	0.50000 0.56960 0.75970 0.08900
H 	H 	0.50000 0.51290 0.73850 -0.01800
