data_crystal

_cell_length_a 10.37400
_cell_length_b 18.44300
_cell_length_c 18.44300
_cell_angle_alpha 90.00000
_cell_angle_beta  90.00000
_cell_angle_gamma 90.00000

_symmetry_space_group_name_	'P 1'
_symmetry_space_group_name_H-M	'P 1'

loop_
_symmetry_equiv_pos_as_xyz
  x,y,z

loop_
_atom_site_label
_atom_site_type_symbol
_atom_site_fract_x
_atom_site_fract_y
_atom_site_fract_z
_atom_site_charge
Tm	Tm	0.65225 0.97368 0.25457 1.53800
Tm	Tm	0.65225 0.52632 0.24543 1.53800
Tm	Tm	0.65225 0.24543 0.97368 1.53800
Tm	Tm	0.65225 0.25457 0.52632 1.53800
Tm	Tm	0.84775 0.02632 0.75457 1.53800
Tm	Tm	0.84775 0.47368 0.74543 1.53800
Tm	Tm	0.84775 0.75457 0.47368 1.53800
Tm	Tm	0.84775 0.74543 0.02632 1.53800
Tm	Tm	0.34775 0.02632 0.74543 1.53800
Tm	Tm	0.34775 0.47368 0.75457 1.53800
Tm	Tm	0.34775 0.75457 0.02632 1.53700
Tm	Tm	0.34775 0.74543 0.47368 1.53700
Tm	Tm	0.15225 0.97368 0.24543 1.53700
Tm	Tm	0.15225 0.52632 0.25457 1.53700
Tm	Tm	0.15225 0.24543 0.52632 1.53700
Tm	Tm	0.15225 0.25457 0.97368 1.53700
C 	C 	0.92820 0.02140 0.43910 -0.02500
C 	C 	0.97970 0.95160 0.44250 -0.08200
C 	C 	0.95070 0.07010 0.49590 -0.05500
C 	C 	0.84010 0.04500 0.37840 0.32300
C 	C 	0.97220 0.89850 0.37970 0.40800
C 	C 	0.89870 0.14700 0.49540 0.38500
C 	C 	0.92820 0.47860 0.06090 -0.02600
C 	C 	0.97970 0.54840 0.05750 -0.08000
C 	C 	0.95070 0.42990 0.00410 -0.05600
C 	C 	0.84010 0.45500 0.12160 0.32200
C 	C 	0.97220 0.60150 0.12030 0.40900
C 	C 	0.89870 0.35300 0.00460 0.38600
C 	C 	0.92820 0.06090 0.02140 -0.02300
C 	C 	0.97970 0.05750 0.95160 -0.08400
C 	C 	0.95070 0.00410 0.07010 -0.05400
C 	C 	0.84010 0.12160 0.04500 0.32400
C 	C 	0.97220 0.12030 0.89850 0.40900
C 	C 	0.89870 0.00460 0.14700 0.38700
C 	C 	0.92820 0.43910 0.47860 -0.02600
C 	C 	0.97970 0.44250 0.54840 -0.08000
C 	C 	0.95070 0.49590 0.42990 -0.05600
C 	C 	0.84010 0.37840 0.45500 0.32200
C 	C 	0.97220 0.37970 0.60150 0.40900
C 	C 	0.89870 0.49540 0.35300 0.38500
C 	C 	0.57180 0.97860 0.93910 -0.02500
C 	C 	0.52030 0.04840 0.94250 -0.08200
C 	C 	0.54930 0.92990 0.99590 -0.05500
C 	C 	0.65990 0.95500 0.87840 0.32300
C 	C 	0.52780 0.10150 0.87970 0.40900
C 	C 	0.60130 0.85300 0.99540 0.38500
C 	C 	0.57180 0.52140 0.56090 -0.02600
C 	C 	0.52030 0.45160 0.55750 -0.08000
C 	C 	0.54930 0.57010 0.50410 -0.05600
C 	C 	0.65990 0.54500 0.62160 0.32200
C 	C 	0.52780 0.39850 0.62030 0.40800
C 	C 	0.60130 0.64700 0.50460 0.38500
C 	C 	0.57180 0.93910 0.52140 -0.02600
C 	C 	0.52030 0.94250 0.45160 -0.08000
C 	C 	0.54930 0.99590 0.57010 -0.05600
C 	C 	0.65990 0.87840 0.54500 0.32200
C 	C 	0.52780 0.87970 0.39850 0.40800
C 	C 	0.60130 0.99540 0.64700 0.38500
C 	C 	0.57180 0.56090 0.97860 -0.02600
C 	C 	0.52030 0.55750 0.04840 -0.07900
C 	C 	0.54930 0.50410 0.92990 -0.05600
C 	C 	0.65990 0.62160 0.95500 0.32200
C 	C 	0.52780 0.62030 0.10150 0.40800
C 	C 	0.60130 0.50460 0.85300 0.38500
C 	C 	0.07180 0.97860 0.56090 -0.02500
C 	C 	0.02030 0.04840 0.55750 -0.08200
C 	C 	0.04930 0.92990 0.50410 -0.05500
C 	C 	0.15990 0.95500 0.62160 0.32300
C 	C 	0.02780 0.10150 0.62030 0.40800
C 	C 	0.10130 0.85300 0.50460 0.38500
C 	C 	0.07180 0.52140 0.93910 -0.02600
C 	C 	0.02030 0.45160 0.94250 -0.08000
C 	C 	0.04930 0.57010 0.99590 -0.05600
C 	C 	0.15990 0.54500 0.87840 0.32200
C 	C 	0.02780 0.39850 0.87970 0.40900
C 	C 	0.10130 0.64700 0.99540 0.38600
C 	C 	0.07180 0.93910 0.97860 -0.02300
C 	C 	0.02030 0.94250 0.04840 -0.08400
C 	C 	0.04930 0.99590 0.92990 -0.05400
C 	C 	0.15990 0.87840 0.95500 0.32400
C 	C 	0.02780 0.87970 0.10150 0.40900
C 	C 	0.10130 0.99540 0.85300 0.38700
C 	C 	0.07180 0.56090 0.52140 -0.02600
C 	C 	0.02030 0.55750 0.45160 -0.08000
C 	C 	0.04930 0.50410 0.57010 -0.05600
C 	C 	0.15990 0.62160 0.54500 0.32200
C 	C 	0.02780 0.62030 0.39850 0.40900
C 	C 	0.10130 0.50460 0.64700 0.38500
C 	C 	0.42820 0.02140 0.06090 -0.02500
C 	C 	0.47970 0.95160 0.05750 -0.08200
C 	C 	0.45070 0.07010 0.00410 -0.05500
C 	C 	0.34010 0.04500 0.12160 0.32300
C 	C 	0.47220 0.89850 0.12030 0.40900
C 	C 	0.39870 0.14700 0.00460 0.38500
C 	C 	0.42820 0.47860 0.43910 -0.02600
C 	C 	0.47970 0.54840 0.44250 -0.08000
C 	C 	0.45070 0.42990 0.49590 -0.05600
C 	C 	0.34010 0.45500 0.37840 0.32200
C 	C 	0.47220 0.60150 0.37970 0.40800
C 	C 	0.39870 0.35300 0.49540 0.38500
C 	C 	0.42820 0.06090 0.47860 -0.02600
C 	C 	0.47970 0.05750 0.54840 -0.08000
C 	C 	0.45070 0.00410 0.42990 -0.05600
C 	C 	0.34010 0.12160 0.45500 0.32200
C 	C 	0.47220 0.12030 0.60150 0.40800
C 	C 	0.39870 0.00460 0.35300 0.38500
C 	C 	0.42820 0.43910 0.02140 -0.02600
C 	C 	0.47970 0.44250 0.95160 -0.07900
C 	C 	0.45070 0.49590 0.07010 -0.05600
C 	C 	0.34010 0.37840 0.04500 0.32200
C 	C 	0.47220 0.37970 0.89850 0.40800
C 	C 	0.39870 0.49540 0.14700 0.38500
O 	O 	0.82360 0.11100 0.36650 -0.27700
O 	O 	0.78450 0.99440 0.34400 -0.44000
O 	O 	0.92680 0.83701 0.38995 -0.42900
O 	O 	0.01980 0.91720 0.32039 -0.45800
O 	O 	0.97420 0.19659 0.47560 -0.44600
O 	O 	0.78620 0.15700 0.51750 -0.44200
O 	O 	0.82360 0.38900 0.13350 -0.27700
O 	O 	0.78450 0.50560 0.15600 -0.43900
O 	O 	0.92680 0.66299 0.11005 -0.42900
O 	O 	0.01980 0.58280 0.17961 -0.45900
O 	O 	0.97420 0.30341 0.02440 -0.44600
O 	O 	0.78620 0.34300 0.98250 -0.44300
O 	O 	0.82360 0.13350 0.11100 -0.27700
O 	O 	0.78450 0.15600 0.99440 -0.44000
O 	O 	0.92680 0.11005 0.83701 -0.43000
O 	O 	0.01980 0.17961 0.91720 -0.45800
O 	O 	0.97420 0.02440 0.19659 -0.44600
O 	O 	0.78620 0.98250 0.15700 -0.44300
O 	O 	0.82360 0.36650 0.38900 -0.27700
O 	O 	0.78450 0.34400 0.50560 -0.43900
O 	O 	0.92680 0.38995 0.66299 -0.42900
O 	O 	0.01980 0.32039 0.58280 -0.45800
O 	O 	0.97420 0.47560 0.30341 -0.44600
O 	O 	0.78620 0.51750 0.34300 -0.44200
O 	O 	0.67640 0.88900 0.86650 -0.27800
O 	O 	0.71550 0.00560 0.84400 -0.43900
O 	O 	0.57320 0.16299 0.88995 -0.42900
O 	O 	0.48020 0.08280 0.82039 -0.45800
O 	O 	0.52580 0.80341 0.97560 -0.44600
O 	O 	0.71380 0.84300 0.01750 -0.44200
O 	O 	0.67640 0.61100 0.63350 -0.27800
O 	O 	0.71550 0.49440 0.65600 -0.43900
O 	O 	0.57320 0.33701 0.61005 -0.42900
O 	O 	0.48020 0.41720 0.67961 -0.45800
O 	O 	0.52580 0.69659 0.52440 -0.44600
O 	O 	0.71380 0.65700 0.48250 -0.44200
O 	O 	0.67640 0.86650 0.61100 -0.27800
O 	O 	0.71550 0.84400 0.49440 -0.43900
O 	O 	0.57320 0.88995 0.33701 -0.42900
O 	O 	0.48020 0.82039 0.41720 -0.45800
O 	O 	0.52580 0.97560 0.69659 -0.44600
O 	O 	0.71380 0.01750 0.65700 -0.44200
O 	O 	0.67640 0.63350 0.88900 -0.27800
O 	O 	0.71550 0.65600 0.00560 -0.43900
O 	O 	0.57320 0.61005 0.16299 -0.42900
O 	O 	0.48020 0.67961 0.08280 -0.45800
O 	O 	0.52580 0.52440 0.80341 -0.44600
O 	O 	0.71380 0.48250 0.84300 -0.44200
O 	O 	0.17640 0.88900 0.63350 -0.27700
O 	O 	0.21550 0.00560 0.65600 -0.44000
O 	O 	0.07320 0.16299 0.61005 -0.42900
O 	O 	0.98020 0.08280 0.67961 -0.45800
O 	O 	0.02580 0.80341 0.52440 -0.44600
O 	O 	0.21380 0.84300 0.48250 -0.44200
O 	O 	0.17640 0.61100 0.86650 -0.27700
O 	O 	0.21550 0.49440 0.84400 -0.43900
O 	O 	0.07320 0.33701 0.88995 -0.42900
O 	O 	0.98020 0.41720 0.82039 -0.45900
O 	O 	0.02580 0.69659 0.97560 -0.44600
O 	O 	0.21380 0.65700 0.01750 -0.44300
O 	O 	0.17640 0.86650 0.88900 -0.27700
O 	O 	0.21550 0.84400 0.00560 -0.44000
O 	O 	0.07320 0.88995 0.16299 -0.43000
O 	O 	0.98020 0.82039 0.08280 -0.45800
O 	O 	0.02580 0.97560 0.80341 -0.44600
O 	O 	0.21380 0.01750 0.84300 -0.44300
O 	O 	0.17640 0.63350 0.61100 -0.27700
O 	O 	0.21550 0.65600 0.49440 -0.43900
O 	O 	0.07320 0.61005 0.33701 -0.42900
O 	O 	0.98020 0.67961 0.41720 -0.45800
O 	O 	0.02580 0.52440 0.69659 -0.44600
O 	O 	0.21380 0.48250 0.65700 -0.44200
O 	O 	0.32360 0.11100 0.13350 -0.27800
O 	O 	0.28450 0.99440 0.15600 -0.43900
O 	O 	0.42680 0.83701 0.11005 -0.42900
O 	O 	0.51980 0.91720 0.17961 -0.45800
O 	O 	0.47420 0.19659 0.02440 -0.44600
O 	O 	0.28620 0.15700 0.98250 -0.44200
O 	O 	0.32360 0.38900 0.36650 -0.27800
O 	O 	0.28450 0.50560 0.34400 -0.43900
O 	O 	0.42680 0.66299 0.38995 -0.42900
O 	O 	0.51980 0.58280 0.32039 -0.45800
O 	O 	0.47420 0.30341 0.47560 -0.44600
O 	O 	0.28620 0.34300 0.51750 -0.44200
O 	O 	0.32360 0.13350 0.38900 -0.27800
O 	O 	0.28450 0.15600 0.50560 -0.43900
O 	O 	0.42680 0.11005 0.66299 -0.42900
O 	O 	0.51980 0.17961 0.58280 -0.45800
O 	O 	0.47420 0.02440 0.30341 -0.44600
O 	O 	0.28620 0.98250 0.34300 -0.44200
O 	O 	0.32360 0.36650 0.11100 -0.27800
O 	O 	0.28450 0.34400 0.99440 -0.43900
O 	O 	0.42680 0.38995 0.83701 -0.42900
O 	O 	0.51980 0.32039 0.91720 -0.45800
O 	O 	0.47420 0.47560 0.19659 -0.44600
O 	O 	0.28620 0.51750 0.15700 -0.44200
