data_crystal

_cell_length_a 8.44080
_cell_length_b 9.26300
_cell_length_c 13.84300
_cell_angle_alpha 81.11900
_cell_angle_beta  83.64300
_cell_angle_gamma 72.64700

_symmetry_space_group_name_	'P 1'
_symmetry_space_group_name_H-M	'P 1'

loop_
_symmetry_equiv_pos_as_xyz
  x,y,z

loop_
_atom_site_label
_atom_site_type_symbol
_atom_site_fract_x
_atom_site_fract_y
_atom_site_fract_z
_atom_site_charge
Zn	Zn	0.74556 0.49370 0.47314 1.23400
Zn	Zn	0.70629 0.08149 0.98055 1.24000
Zn	Zn	0.36247 0.11199 0.37406 1.24000
P 	P 	0.90455 0.56646 0.64875 0.57800
P 	P 	0.41496 0.13549 0.13603 0.57000
P 	P 	0.98318 0.79185 0.07714 0.56700
P 	P 	0.58102 0.21723 0.52006 0.55300
O 	O 	0.81340 0.47670 0.60320 -0.45900
O 	O 	0.09210 0.49790 0.63540 -0.43400
O 	O 	0.71030 0.29650 0.47005 -0.41900
O 	O 	0.43480 0.33000 0.56970 -0.46200
O 	O 	0.52780 0.20160 0.06043 -0.41700
O 	O 	0.83300 0.93020 0.07650 -0.43800
O 	O 	0.40270 0.98180 0.11617 -0.44500
O 	O 	0.13990 0.82110 0.10273 -0.40900
O 	O 	0.53060 0.14380 0.44218 -0.47800
O 	O 	0.84930 0.73620 0.61290 -0.47200
O 	O 	0.66510 0.09150 0.60147 -0.40700
O 	O 	0.46990 0.12420 0.23929 -0.40600
O 	O 	0.85700 0.54360 0.76211 -0.51900
H 	H 	0.92810 0.47170 0.78850 0.35900
O 	O 	0.23170 0.24690 0.13010 -0.51800
H 	H 	0.21710 0.31060 0.16770 0.34500
O 	O 	0.94130 0.66690 0.15120 -0.24800
O 	O 	0.02330 0.73960 0.97200 -0.46100
H 	H 	0.93610 0.74870 0.94750 0.30400
Zn	Zn	0.25444 0.50630 0.52686 1.23500
Zn	Zn	0.29371 0.91851 0.01945 1.24100
Zn	Zn	0.63753 0.88801 0.62594 1.24100
P 	P 	0.09545 0.43354 0.35125 0.57900
P 	P 	0.58504 0.86451 0.86397 0.57000
P 	P 	0.01682 0.20815 0.92286 0.56700
P 	P 	0.41898 0.78277 0.47994 0.55300
O 	O 	0.18660 0.52330 0.39680 -0.45900
O 	O 	0.90790 0.50210 0.36460 -0.43400
O 	O 	0.28970 0.70350 0.52995 -0.41900
O 	O 	0.56520 0.67000 0.43030 -0.46200
O 	O 	0.47220 0.79840 0.93957 -0.41700
O 	O 	0.16700 0.06980 0.92350 -0.43800
O 	O 	0.59730 0.01820 0.88383 -0.44500
O 	O 	0.86010 0.17890 0.89727 -0.40900
O 	O 	0.46940 0.85620 0.55782 -0.47800
O 	O 	0.15070 0.26380 0.38710 -0.47200
O 	O 	0.33490 0.90850 0.39853 -0.40700
O 	O 	0.53010 0.87580 0.76071 -0.40600
O 	O 	0.14300 0.45640 0.23789 -0.51900
H 	H 	0.07190 0.52830 0.21150 0.35900
O 	O 	0.76830 0.75310 0.86990 -0.51800
H 	H 	0.78290 0.68940 0.83230 0.34500
O 	O 	0.05870 0.33310 0.84880 -0.24800
O 	O 	0.97670 0.26040 0.02800 -0.46100
H 	H 	0.06390 0.25130 0.05250 0.30400
