data_crystal

_cell_length_a 8.45570
_cell_length_b 9.28440
_cell_length_c 13.85990
_cell_angle_alpha 81.11400
_cell_angle_beta  83.64200
_cell_angle_gamma 72.62600

_symmetry_space_group_name_	'P 1'
_symmetry_space_group_name_H-M	'P 1'

loop_
_symmetry_equiv_pos_as_xyz
  x,y,z

loop_
_atom_site_label
_atom_site_type_symbol
_atom_site_fract_x
_atom_site_fract_y
_atom_site_fract_z
_atom_site_charge
Zn	Zn	0.29367 0.91830 0.51946 1.24100
Zn	Zn	0.74556 0.49370 0.97301 1.23300
Zn	Zn	0.63779 0.88788 0.12587 1.24000
P 	P 	0.58114 0.21710 0.01996 0.55500
P 	P 	0.58470 0.86461 0.36397 0.57000
P 	P 	0.90460 0.56629 0.14874 0.57900
P 	P 	0.01690 0.20793 0.42267 0.55500
O 	O 	0.16680 0.07030 0.42380 -0.43300
O 	O 	0.47180 0.79920 0.43960 -0.43300
O 	O 	0.59670 0.01800 0.38370 -0.44000
O 	O 	0.85970 0.17900 0.39680 -0.41000
O 	O 	0.81410 0.47670 0.10350 -0.46800
O 	O 	0.09110 0.49800 0.13490 -0.42800
O 	O 	0.70980 0.29650 0.97000 -0.42000
O 	O 	0.43520 0.32860 0.06970 -0.46200
O 	O 	0.66420 0.09180 0.10180 -0.40600
O 	O 	0.85000 0.73620 0.11260 -0.46300
O 	O 	0.53110 0.14430 0.94190 -0.47900
O 	O 	0.53060 0.87570 0.26140 -0.40300
O 	O 	0.76780 0.75380 0.36950 -0.50200
H 	H 	0.76900 0.66940 0.35800 0.33000
O 	O 	0.85760 0.54430 0.26220 -0.48600
H 	H 	0.88470 0.45330 0.28290 0.32800
O 	O 	0.05790 0.33360 0.34930 -0.23500
O 	O 	0.97650 0.25970 0.52760 -0.47800
H 	H 	0.05620 0.28120 0.54380 0.31400
Zn	Zn	0.70633 0.08170 0.48054 1.24200
Zn	Zn	0.25444 0.50630 0.02699 1.23400
Zn	Zn	0.36221 0.11212 0.87413 1.24000
P 	P 	0.41886 0.78290 0.98004 0.55500
P 	P 	0.41530 0.13539 0.63603 0.57000
P 	P 	0.09540 0.43371 0.85126 0.57900
P 	P 	0.98310 0.79207 0.57733 0.55500
O 	O 	0.83320 0.92970 0.57620 -0.43300
O 	O 	0.52820 0.20080 0.56040 -0.43300
O 	O 	0.40330 0.98200 0.61630 -0.44000
O 	O 	0.14030 0.82100 0.60320 -0.41000
O 	O 	0.18590 0.52330 0.89650 -0.46800
O 	O 	0.90890 0.50200 0.86510 -0.42800
O 	O 	0.29020 0.70350 0.03000 -0.42000
O 	O 	0.56480 0.67140 0.93030 -0.46200
O 	O 	0.33580 0.90820 0.89820 -0.40600
O 	O 	0.15000 0.26380 0.88740 -0.46300
O 	O 	0.46890 0.85570 0.05810 -0.47900
O 	O 	0.46940 0.12430 0.73860 -0.40300
O 	O 	0.23220 0.24620 0.63050 -0.50200
H 	H 	0.23100 0.33060 0.64200 0.33000
O 	O 	0.14240 0.45570 0.73780 -0.48600
H 	H 	0.11530 0.54670 0.71710 0.32800
O 	O 	0.94210 0.66640 0.65070 -0.23500
O 	O 	0.02350 0.74030 0.47240 -0.47800
H 	H 	0.94380 0.71880 0.45620 0.31400
