data_crystal

_cell_length_a 14.13410
_cell_length_b 14.13410
_cell_length_c 14.13410
_cell_angle_alpha 90.00000
_cell_angle_beta  90.00000
_cell_angle_gamma 90.00000

_symmetry_space_group_name_	'P 1'
_symmetry_space_group_name_H-M	'P 1'

loop_
_symmetry_equiv_pos_as_xyz
  x,y,z

loop_
_atom_site_label
_atom_site_type_symbol
_atom_site_fract_x
_atom_site_fract_y
_atom_site_fract_z
_atom_site_charge
Sm	Sm	0.00049 0.99951 0.49951 1.61000
Sm	Sm	0.49951 0.00049 0.99951 1.61000
Sm	Sm	0.99951 0.49951 0.00049 1.61000
Sm	Sm	0.50049 0.50049 0.50049 1.62000
C 	C 	0.09010 0.16400 0.57320 0.35500
C 	C 	0.12900 0.25360 0.62040 -0.14100
C 	C 	0.08490 0.29140 0.70040 0.13200
C 	C 	0.40990 0.83600 0.07320 0.35600
C 	C 	0.37100 0.74640 0.12040 -0.14100
C 	C 	0.41510 0.70860 0.20040 0.13100
C 	C 	0.90990 0.66400 0.92680 0.35700
C 	C 	0.87100 0.75360 0.87960 -0.14200
C 	C 	0.91510 0.79140 0.79960 0.13400
C 	C 	0.59010 0.33600 0.42680 0.35600
C 	C 	0.62900 0.24640 0.37960 -0.14100
C 	C 	0.58490 0.20860 0.29960 0.13000
C 	C 	0.57320 0.09010 0.16400 0.35500
C 	C 	0.62040 0.12900 0.25360 -0.14100
C 	C 	0.70040 0.08490 0.29140 0.13200
C 	C 	0.07320 0.40990 0.83600 0.35600
C 	C 	0.12040 0.37100 0.74640 -0.14100
C 	C 	0.20040 0.41510 0.70860 0.13100
C 	C 	0.92680 0.90990 0.66400 0.35700
C 	C 	0.87960 0.87100 0.75360 -0.14200
C 	C 	0.79960 0.91510 0.79140 0.13400
C 	C 	0.42680 0.59010 0.33600 0.35600
C 	C 	0.37960 0.62900 0.24640 -0.14100
C 	C 	0.29960 0.58490 0.20860 0.13000
C 	C 	0.16400 0.57320 0.09010 0.35500
C 	C 	0.25360 0.62040 0.12900 -0.14100
C 	C 	0.29140 0.70040 0.08490 0.13200
C 	C 	0.83600 0.07320 0.40990 0.35600
C 	C 	0.74640 0.12040 0.37100 -0.14100
C 	C 	0.70860 0.20040 0.41510 0.13100
C 	C 	0.66400 0.92680 0.90990 0.35700
C 	C 	0.75360 0.87960 0.87100 -0.14200
C 	C 	0.79140 0.79960 0.91510 0.13400
C 	C 	0.33600 0.42680 0.59010 0.35600
C 	C 	0.24640 0.37960 0.62900 -0.14100
C 	C 	0.20860 0.29960 0.58490 0.13000
I 	I 	0.96194 0.22509 0.75131 -0.10400
I 	I 	0.53806 0.77491 0.25131 -0.10200
I 	I 	0.03806 0.72509 0.74869 -0.10600
I 	I 	0.46194 0.27491 0.24869 -0.09900
I 	I 	0.75131 0.96194 0.22509 -0.10400
I 	I 	0.25131 0.53806 0.77491 -0.10200
I 	I 	0.74869 0.03806 0.72509 -0.10600
I 	I 	0.24869 0.46194 0.27491 -0.09900
I 	I 	0.22509 0.75131 0.96194 -0.10400
I 	I 	0.77491 0.25131 0.53806 -0.10200
I 	I 	0.72509 0.74869 0.03806 -0.10600
I 	I 	0.27491 0.24869 0.46194 -0.09900
O 	O 	0.01630 0.17185 0.52560 -0.38300
O 	O 	0.13260 0.08834 0.58610 -0.39500
O 	O 	0.48370 0.82815 0.02560 -0.38700
O 	O 	0.36740 0.91166 0.08610 -0.39800
O 	O 	0.98370 0.67185 0.97440 -0.38200
O 	O 	0.86740 0.58834 0.91390 -0.39500
O 	O 	0.51630 0.32815 0.47440 -0.38700
O 	O 	0.63260 0.41166 0.41390 -0.39800
O 	O 	0.52560 0.01630 0.17185 -0.38300
O 	O 	0.58610 0.13260 0.08834 -0.39500
O 	O 	0.02560 0.48370 0.82815 -0.38700
O 	O 	0.08610 0.36740 0.91166 -0.39800
O 	O 	0.97440 0.98370 0.67185 -0.38200
O 	O 	0.91390 0.86740 0.58834 -0.39500
O 	O 	0.47440 0.51630 0.32815 -0.38700
O 	O 	0.41390 0.63260 0.41166 -0.39800
O 	O 	0.17185 0.52560 0.01630 -0.38300
O 	O 	0.08834 0.58610 0.13260 -0.39500
O 	O 	0.82815 0.02560 0.48370 -0.38700
O 	O 	0.91166 0.08610 0.36740 -0.39800
O 	O 	0.67185 0.97440 0.98370 -0.38200
O 	O 	0.58834 0.91390 0.86740 -0.39500
O 	O 	0.32815 0.47440 0.51630 -0.38700
O 	O 	0.41166 0.41390 0.63260 -0.39800
