data_crystal

_cell_length_a 7.64580
_cell_length_b 13.52190
_cell_length_c 16.38450
_cell_angle_alpha 90.00000
_cell_angle_beta  90.00000
_cell_angle_gamma 90.00000

_symmetry_space_group_name_	'P 1'
_symmetry_space_group_name_H-M	'P 1'

loop_
_symmetry_equiv_pos_as_xyz
  x,y,z

loop_
_atom_site_label
_atom_site_type_symbol
_atom_site_fract_x
_atom_site_fract_y
_atom_site_fract_z
_atom_site_charge
Cu	Cu	0.12656 0.78522 0.09884 0.78200
N 	N 	0.96030 0.78238 0.00533 -0.20000
C 	C 	0.86890 0.78622 0.94969 -0.34100
N 	N 	0.18110 0.92266 0.12754 -0.22800
C 	C 	0.20550 0.00484 0.14329 -0.23000
Cu	Cu	0.80189 0.64927 0.34101 0.78300
N 	N 	0.95380 0.68322 0.24806 -0.20500
C 	C 	0.04570 0.70325 0.19483 -0.35900
Cu	Cu	0.37344 0.21478 0.59884 0.78200
N 	N 	0.53970 0.21762 0.50533 -0.20300
C 	C 	0.63110 0.21378 0.44969 -0.34100
N 	N 	0.31890 0.07734 0.62754 -0.22700
C 	C 	0.29450 0.99516 0.64329 -0.23200
Cu	Cu	0.69811 0.35073 0.84101 0.78300
N 	N 	0.54620 0.31678 0.74806 -0.20600
C 	C 	0.45430 0.29675 0.69483 -0.35700
Cu	Cu	0.87344 0.28522 0.40116 0.78200
N 	N 	0.03970 0.28238 0.49467 -0.20200
C 	C 	0.13110 0.28622 0.55031 -0.34000
N 	N 	0.81890 0.42266 0.37246 -0.22800
C 	C 	0.79450 0.50484 0.35671 -0.23100
Cu	Cu	0.19811 0.14927 0.15899 0.78300
N 	N 	0.04620 0.18322 0.25194 -0.20500
C 	C 	0.95430 0.20325 0.30517 -0.35800
Cu	Cu	0.62656 0.71478 0.90116 0.78200
N 	N 	0.46030 0.71762 0.99467 -0.20200
C 	C 	0.36890 0.71378 0.05031 -0.34100
N 	N 	0.68110 0.57734 0.87246 -0.22800
C 	C 	0.70550 0.49516 0.85671 -0.23100
Cu	Cu	0.30189 0.85073 0.65899 0.78300
N 	N 	0.45380 0.81678 0.75194 -0.20600
C 	C 	0.54570 0.79675 0.80517 -0.35700
Cu	Cu	0.87344 0.21478 0.90116 0.78100
N 	N 	0.03970 0.21762 0.99467 -0.20100
C 	C 	0.13110 0.21378 0.05031 -0.34200
N 	N 	0.81890 0.07734 0.87246 -0.22900
C 	C 	0.79450 0.99516 0.85671 -0.23000
Cu	Cu	0.19811 0.35073 0.65899 0.78300
N 	N 	0.04620 0.31678 0.75194 -0.20500
C 	C 	0.95430 0.29675 0.80517 -0.35900
Cu	Cu	0.62656 0.78522 0.40116 0.78200
N 	N 	0.46030 0.78238 0.49467 -0.20300
C 	C 	0.36890 0.78622 0.55031 -0.34100
N 	N 	0.68110 0.92266 0.37246 -0.22700
C 	C 	0.70550 0.00484 0.35671 -0.23200
Cu	Cu	0.30189 0.64927 0.15899 0.78300
N 	N 	0.45380 0.68322 0.25194 -0.20600
C 	C 	0.54570 0.70325 0.30517 -0.35700
Cu	Cu	0.12656 0.71478 0.59884 0.78200
N 	N 	0.96030 0.71762 0.50533 -0.20200
C 	C 	0.86890 0.71378 0.44969 -0.34000
N 	N 	0.18110 0.57734 0.62754 -0.22800
C 	C 	0.20550 0.49516 0.64329 -0.23100
Cu	Cu	0.80189 0.85073 0.84101 0.78300
N 	N 	0.95380 0.81678 0.74806 -0.20500
C 	C 	0.04570 0.79675 0.69483 -0.35800
Cu	Cu	0.37344 0.28522 0.09884 0.78200
N 	N 	0.53970 0.28238 0.00533 -0.20200
C 	C 	0.63110 0.28622 0.94969 -0.34100
N 	N 	0.31890 0.42266 0.12754 -0.22800
C 	C 	0.29450 0.50484 0.14329 -0.23100
Cu	Cu	0.69811 0.14927 0.34101 0.78300
N 	N 	0.54620 0.18322 0.24806 -0.20600
C 	C 	0.45430 0.20325 0.19483 -0.35700
