data_crystal

_cell_length_a 9.37960
_cell_length_b 17.45710
_cell_length_c 17.45710
_cell_angle_alpha 103.55900
_cell_angle_beta  102.82500
_cell_angle_gamma 77.17490

_symmetry_space_group_name_	'P 1'
_symmetry_space_group_name_H-M	'P 1'

loop_
_symmetry_equiv_pos_as_xyz
  x,y,z

loop_
_atom_site_label
_atom_site_type_symbol
_atom_site_fract_x
_atom_site_fract_y
_atom_site_fract_z
_atom_site_charge
Mn	Mn	0.56100 0.68634 0.18047 1.30100
Mn	Mn	0.93900 0.18047 0.68634 1.30300
Mn	Mn	0.43900 0.31366 0.81953 1.29800
Mn	Mn	0.06100 0.81953 0.31366 1.29500
Mn	Mn	0.50000 0.50000 -0.00000 1.23300
Mn	Mn	-0.00000 0.00000 0.50000 1.22600
H 	H 	0.57380 0.62690 0.83830 0.13700
H 	H 	0.57330 0.84070 0.79150 0.18200
H 	H 	0.58250 0.81890 0.01650 0.09500
H 	H 	0.31610 0.93520 0.84940 0.16400
H 	H 	0.19900 0.03180 0.77560 -0.06600
H 	H 	0.56010 0.13430 0.84190 -0.08400
H 	H 	0.67940 0.03550 0.91410 0.21500
H 	H 	0.31560 0.79390 0.71810 0.15400
H 	H 	0.17580 0.84490 0.60850 -0.05100
H 	H 	0.48490 0.72830 0.47910 -0.03400
H 	H 	0.63040 0.68080 0.58960 0.17000
H 	H 	0.92620 0.83830 0.62690 0.13900
H 	H 	0.92670 0.79150 0.84070 0.18600
H 	H 	0.91750 0.01650 0.81890 0.10200
H 	H 	0.18390 0.84940 0.93520 0.18800
H 	H 	0.30100 0.77560 0.03180 -0.08200
H 	H 	0.93990 0.84190 0.13430 -0.10400
H 	H 	0.82060 0.91410 0.03550 0.23400
H 	H 	0.18440 0.71810 0.79390 0.12400
H 	H 	0.32420 0.60850 0.84490 -0.02200
H 	H 	0.01510 0.47910 0.72830 -0.00500
H 	H 	0.86960 0.58960 0.68080 0.12800
H 	H 	0.42620 0.37310 0.16170 0.16200
H 	H 	0.42670 0.15930 0.20850 0.20500
H 	H 	0.41750 0.18110 0.98350 0.20800
H 	H 	0.68390 0.06480 0.15060 0.19100
H 	H 	0.80100 0.96820 0.22440 -0.07700
H 	H 	0.43990 0.86570 0.15810 -0.07700
H 	H 	0.32060 0.96450 0.08590 0.19400
H 	H 	0.68440 0.20610 0.28190 0.15500
H 	H 	0.82420 0.15510 0.39150 -0.04400
H 	H 	0.51510 0.27170 0.52090 -0.03600
H 	H 	0.36960 0.31920 0.41040 0.16700
H 	H 	0.07380 0.16170 0.37310 0.16000
H 	H 	0.07330 0.20850 0.15930 0.20000
H 	H 	0.08250 0.98350 0.18110 0.20300
H 	H 	0.81610 0.15060 0.06480 0.16300
H 	H 	0.69900 0.22440 0.96820 -0.05800
H 	H 	0.06010 0.15810 0.86570 -0.05500
H 	H 	0.17940 0.08590 0.96450 0.17200
H 	H 	0.81560 0.28190 0.20610 0.18800
H 	H 	0.67580 0.39150 0.15510 -0.07600
H 	H 	0.98490 0.52090 0.27170 -0.06800
H 	H 	0.13040 0.41040 0.31920 0.21300
C 	C 	0.57970 0.66451 0.99585 0.40600
C 	C 	0.58010 0.71528 0.93640 0.04400
C 	C 	0.57470 0.68134 0.85614 -0.24300
C 	C 	0.57060 0.72939 0.80287 0.33300
C 	C 	0.57300 0.80930 0.82766 -0.39100
C 	C 	0.57490 0.84250 0.90786 0.31200
C 	C 	0.57970 0.79599 0.96259 -0.17600
C 	C 	0.50740 0.97693 0.88869 0.43400
C 	C 	0.36500 0.97544 0.84762 -0.36500
C 	C 	0.29520 0.03311 0.80399 0.24200
C 	C 	0.36760 0.09346 0.80206 -0.34900
C 	C 	0.51090 0.09401 0.84333 0.30600
C 	C 	0.58230 0.03535 0.88669 -0.45200
C 	C 	0.28760 0.15770 0.75666 0.53500
C 	C 	0.48390 0.73087 0.66327 0.35700
C 	C 	0.34980 0.78045 0.66981 -0.35300
C 	C 	0.26580 0.81030 0.60388 0.22000
C 	C 	0.31380 0.78949 0.53167 -0.26500
C 	C 	0.45010 0.74156 0.52732 0.22100
C 	C 	0.53720 0.71239 0.59317 -0.34300
C 	C 	0.21890 0.81453 0.45759 0.38600
C 	C 	0.92030 0.99585 0.66451 0.40300
C 	C 	0.91990 0.93640 0.71528 0.04900
C 	C 	0.92530 0.85614 0.68134 -0.24100
C 	C 	0.92940 0.80287 0.72939 0.32900
C 	C 	0.92700 0.82766 0.80930 -0.38800
C 	C 	0.92510 0.90786 0.84250 0.32100
C 	C 	0.92030 0.96259 0.79599 -0.18300
C 	C 	0.99260 0.88869 0.97693 0.49400
C 	C 	0.13500 0.84762 0.97544 -0.43800
C 	C 	0.20480 0.80399 0.03311 0.29900
C 	C 	0.13240 0.80206 0.09346 -0.41000
C 	C 	0.98910 0.84333 0.09401 0.38200
C 	C 	0.91770 0.88669 0.03535 -0.50700
C 	C 	0.21240 0.75666 0.15770 0.55400
C 	C 	0.01610 0.66327 0.73087 0.25400
C 	C 	0.15020 0.66981 0.78045 -0.27300
C 	C 	0.23420 0.60388 0.81030 0.14900
C 	C 	0.18620 0.53167 0.78949 -0.20200
C 	C 	0.04990 0.52732 0.74156 0.11600
C 	C 	0.96280 0.59317 0.71239 -0.21300
C 	C 	0.28110 0.45759 0.81453 0.36300
C 	C 	0.42030 0.33549 0.00415 0.28200
C 	C 	0.41990 0.28472 0.06360 0.15000
C 	C 	0.42530 0.31866 0.14386 -0.32500
C 	C 	0.42940 0.27061 0.19713 0.38700
C 	C 	0.42700 0.19070 0.17234 -0.46600
C 	C 	0.42510 0.15750 0.09214 0.40400
C 	C 	0.42030 0.20401 0.03741 -0.39200
C 	C 	0.49260 0.02307 0.11131 0.38900
C 	C 	0.63500 0.02456 0.15238 -0.47300
C 	C 	0.70480 0.96689 0.19601 0.35400
C 	C 	0.63240 0.90654 0.19794 -0.36500
C 	C 	0.48910 0.90599 0.15667 0.29600
C 	C 	0.41770 0.96465 0.11331 -0.37500
C 	C 	0.71240 0.84230 0.24334 0.54200
C 	C 	0.51610 0.26913 0.33673 0.36200
C 	C 	0.65020 0.21955 0.33019 -0.35500
C 	C 	0.73420 0.18970 0.39612 0.21800
C 	C 	0.68620 0.21051 0.46833 -0.26600
C 	C 	0.54990 0.25844 0.47268 0.22000
C 	C 	0.46280 0.28761 0.40683 -0.34500
C 	C 	0.78110 0.18547 0.54241 0.38400
C 	C 	0.07970 0.00415 0.33549 0.28200
C 	C 	0.08010 0.06360 0.28472 0.14700
C 	C 	0.07470 0.14386 0.31866 -0.33000
C 	C 	0.07060 0.19713 0.27061 0.39200
C 	C 	0.07300 0.17234 0.19070 -0.46900
C 	C 	0.07490 0.09214 0.15750 0.39600
C 	C 	0.07970 0.03741 0.20401 -0.39000
C 	C 	0.00740 0.11131 0.02307 0.31800
C 	C 	0.86500 0.15238 0.02456 -0.38700
C 	C 	0.79520 0.19601 0.96689 0.28700
C 	C 	0.86760 0.19794 0.90654 -0.29900
C 	C 	0.01090 0.15667 0.90599 0.21300
C 	C 	0.08230 0.11331 0.96465 -0.31000
C 	C 	0.78760 0.24334 0.84230 0.52100
C 	C 	0.98390 0.33673 0.26913 0.47300
C 	C 	0.84980 0.33019 0.21955 -0.44300
C 	C 	0.76580 0.39612 0.18970 0.29600
C 	C 	0.81380 0.46833 0.21051 -0.33400
C 	C 	0.95010 0.47268 0.25844 0.33400
C 	C 	0.03720 0.40683 0.28761 -0.48500
C 	C 	0.71890 0.54241 0.18547 0.41000
O 	O 	0.56890 0.59354 0.96830 -0.48200
O 	O 	0.59130 0.69869 0.06763 -0.48300
O 	O 	0.57940 0.92248 0.93764 -0.32300
O 	O 	0.16170 0.14998 0.71756 -0.54600
O 	O 	0.34990 0.21346 0.75752 -0.51500
O 	O 	0.57070 0.69258 0.72346 -0.33100
O 	O 	0.09440 0.86067 0.45981 -0.51600
O 	O 	0.26370 0.78483 0.39233 -0.44300
O 	O 	0.93110 0.96830 0.59354 -0.47300
O 	O 	0.90870 0.06763 0.69869 -0.47800
O 	O 	0.92060 0.93764 0.92248 -0.33300
O 	O 	0.33830 0.71756 0.14998 -0.54300
O 	O 	0.15010 0.75752 0.21346 -0.52400
O 	O 	0.92930 0.72346 0.69258 -0.29900
O 	O 	0.40560 0.45981 0.86067 -0.50400
O 	O 	0.23630 0.39233 0.78483 -0.43900
O 	O 	0.43110 0.40646 0.03170 -0.47500
O 	O 	0.40870 0.30131 0.93237 -0.41500
O 	O 	0.42060 0.07752 0.06236 -0.37400
O 	O 	0.83830 0.85002 0.28244 -0.52400
O 	O 	0.65010 0.78654 0.24248 -0.50900
O 	O 	0.42930 0.30742 0.27654 -0.34800
O 	O 	0.90560 0.13933 0.54019 -0.51400
O 	O 	0.73630 0.21517 0.60767 -0.44300
O 	O 	0.06890 0.03170 0.40646 -0.48000
O 	O 	0.09130 0.93237 0.30131 -0.41700
O 	O 	0.07940 0.06236 0.07752 -0.36200
O 	O 	0.66170 0.28244 0.85002 -0.52700
O 	O 	0.84990 0.24248 0.78654 -0.50000
O 	O 	0.07070 0.27654 0.30742 -0.38400
O 	O 	0.59440 0.54019 0.13933 -0.52900
O 	O 	0.76370 0.60767 0.21517 -0.44800
