data_crystal

_cell_length_a 12.82670
_cell_length_b 12.82670
_cell_length_c 16.69000
_cell_angle_alpha 108.68200
_cell_angle_beta  108.68200
_cell_angle_gamma 95.97250

_symmetry_space_group_name_	'P 1'
_symmetry_space_group_name_H-M	'P 1'

loop_
_symmetry_equiv_pos_as_xyz
  x,y,z

loop_
_atom_site_label
_atom_site_type_symbol
_atom_site_fract_x
_atom_site_fract_y
_atom_site_fract_z
_atom_site_charge
Cd	Cd	0.62074 0.37926 0.25000 1.16600
Cd	Cd	0.37926 0.62074 0.75000 1.16600
H 	H 	0.84900 0.31060 0.22660 -0.02800
H 	H 	0.54610 0.22930 0.03700 -0.02700
H 	H 	0.92180 0.21880 0.12090 0.14100
H 	H 	0.60960 0.13320 0.92620 0.12100
H 	H 	0.84010 0.16010 0.91190 0.19800
H 	H 	0.75040 0.04620 0.88520 0.15600
H 	H 	0.73040 0.63180 0.40670 0.01000
H 	H 	0.43320 0.44060 0.33840 -0.02500
H 	H 	0.69100 0.78000 0.50600 0.17800
H 	H 	0.38560 0.58400 0.43440 0.11600
H 	H 	0.56260 0.81680 0.60810 0.11500
H 	H 	0.43090 0.76990 0.54620 0.10300
H 	H 	0.68940 0.15100 0.27340 -0.02900
H 	H 	0.77070 0.45390 0.46300 -0.02900
H 	H 	0.78120 0.07820 0.37910 0.14400
H 	H 	0.86680 0.39040 0.57380 0.12500
H 	H 	0.83990 0.15990 0.58810 0.20000
H 	H 	0.95380 0.24960 0.61480 0.15700
H 	H 	0.36820 0.26960 0.09330 0.01000
H 	H 	0.55940 0.56680 0.16160 -0.02500
H 	H 	0.22000 0.30900 0.99400 0.17600
H 	H 	0.41600 0.61440 0.06560 0.11600
H 	H 	0.18320 0.43740 0.89190 0.11400
H 	H 	0.23010 0.56910 0.95380 0.10200
H 	H 	0.15100 0.68940 0.77340 -0.02800
H 	H 	0.45390 0.77070 0.96300 -0.02700
H 	H 	0.07820 0.78120 0.87910 0.14100
H 	H 	0.39040 0.86680 0.07380 0.12100
H 	H 	0.15990 0.83990 0.08810 0.19800
H 	H 	0.24960 0.95380 0.11480 0.15600
H 	H 	0.26960 0.36820 0.59330 0.01000
H 	H 	0.56680 0.55940 0.66160 -0.02500
H 	H 	0.30900 0.22000 0.49400 0.17800
H 	H 	0.61440 0.41600 0.56560 0.11600
H 	H 	0.43740 0.18320 0.39190 0.11500
H 	H 	0.56910 0.23010 0.45380 0.10300
H 	H 	0.31060 0.84900 0.72660 -0.02900
H 	H 	0.22930 0.54610 0.53700 -0.02900
H 	H 	0.21880 0.92180 0.62090 0.14400
H 	H 	0.13320 0.60960 0.42620 0.12500
H 	H 	0.16010 0.84010 0.41190 0.20000
H 	H 	0.04620 0.75040 0.38520 0.15700
H 	H 	0.63180 0.73040 0.90670 0.01000
H 	H 	0.44060 0.43320 0.83840 -0.02500
H 	H 	0.78000 0.69100 0.00600 0.17600
H 	H 	0.58400 0.38560 0.93440 0.11600
H 	H 	0.81680 0.56260 0.10810 0.11400
H 	H 	0.76990 0.43090 0.04620 0.10200
C 	C 	0.79961 0.27445 0.16440 0.12300
C 	C 	0.62375 0.22699 0.05441 0.11100
C 	C 	0.84388 0.21964 0.10166 -0.21200
C 	C 	0.66111 0.16983 0.98765 -0.20600
C 	C 	0.77380 0.16584 0.01041 0.22200
C 	C 	0.81458 0.10522 0.93595 -0.23700
C 	C 	0.90999 0.05083 0.96822 -0.02400
C 	C 	0.02209 0.10817 0.00477 0.21200
C 	C 	0.10929 0.05891 0.03529 0.21400
C 	C 	0.65867 0.62177 0.41179 0.12600
C 	C 	0.48638 0.51134 0.37223 0.12200
C 	C 	0.63550 0.71098 0.47123 -0.20400
C 	C 	0.45728 0.59652 0.42961 -0.19500
C 	C 	0.53264 0.70030 0.48023 0.20100
C 	C 	0.50588 0.79642 0.54581 -0.17800
C 	C 	0.50521 0.90109 0.52241 -0.04600
C 	C 	0.41824 0.90376 0.44824 0.23400
C 	C 	0.41289 0.99953 0.42718 0.23500
C 	C 	0.72555 0.20039 0.33560 0.12700
C 	C 	0.77301 0.37625 0.44559 0.12000
C 	C 	0.78036 0.15612 0.39834 -0.21900
C 	C 	0.83017 0.33889 0.51235 -0.22000
C 	C 	0.83416 0.22620 0.48959 0.23400
C 	C 	0.89478 0.18542 0.56405 -0.24500
C 	C 	0.94917 0.09001 0.53178 -0.02600
C 	C 	0.89183 0.97791 0.49523 0.21200
C 	C 	0.94109 0.89071 0.46471 0.21500
C 	C 	0.37823 0.34133 0.08821 0.12500
C 	C 	0.48866 0.51362 0.12777 0.12200
C 	C 	0.28902 0.36450 0.02877 -0.20100
C 	C 	0.40348 0.54272 0.07039 -0.19500
C 	C 	0.29970 0.46736 0.01977 0.20100
C 	C 	0.20358 0.49412 0.95419 -0.17600
C 	C 	0.09891 0.49479 0.97759 -0.05200
C 	C 	0.09624 0.58176 0.05176 0.23600
C 	C 	0.00047 0.58711 0.07282 0.23900
C 	C 	0.20039 0.72555 0.83560 0.12300
C 	C 	0.37625 0.77301 0.94559 0.11100
C 	C 	0.15612 0.78036 0.89834 -0.21200
C 	C 	0.33889 0.83017 0.01235 -0.20600
C 	C 	0.22620 0.83416 0.98959 0.22200
C 	C 	0.18542 0.89478 0.06405 -0.23700
C 	C 	0.09001 0.94917 0.03178 -0.02400
C 	C 	0.97791 0.89183 0.99523 0.21200
C 	C 	0.89071 0.94109 0.96471 0.21400
C 	C 	0.34133 0.37823 0.58821 0.12600
C 	C 	0.51362 0.48866 0.62777 0.12200
C 	C 	0.36450 0.28902 0.52877 -0.20400
C 	C 	0.54272 0.40348 0.57039 -0.19500
C 	C 	0.46736 0.29970 0.51977 0.20100
C 	C 	0.49412 0.20358 0.45419 -0.17800
C 	C 	0.49479 0.09891 0.47759 -0.04600
C 	C 	0.58176 0.09624 0.55176 0.23400
C 	C 	0.58711 0.00047 0.57282 0.23500
C 	C 	0.27445 0.79961 0.66440 0.12700
C 	C 	0.22699 0.62375 0.55441 0.12000
C 	C 	0.21964 0.84388 0.60166 -0.21900
C 	C 	0.16983 0.66111 0.48765 -0.22000
C 	C 	0.16584 0.77380 0.51041 0.23400
C 	C 	0.10522 0.81458 0.43595 -0.24500
C 	C 	0.05083 0.90999 0.46822 -0.02600
C 	C 	0.10817 0.02209 0.50477 0.21200
C 	C 	0.05891 0.10929 0.53529 0.21500
C 	C 	0.62177 0.65867 0.91179 0.12500
C 	C 	0.51134 0.48638 0.87223 0.12200
C 	C 	0.71098 0.63550 0.97123 -0.20100
C 	C 	0.59652 0.45728 0.92961 -0.19500
C 	C 	0.70030 0.53264 0.98023 0.20100
C 	C 	0.79642 0.50588 0.04581 -0.17600
C 	C 	0.90109 0.50521 0.02241 -0.05200
C 	C 	0.90376 0.41824 0.94824 0.23600
C 	C 	0.99953 0.41289 0.92718 0.23900
N 	N 	0.69102 0.27924 0.14229 -0.27100
N 	N 	0.58534 0.52248 0.36134 -0.26400
N 	N 	0.72076 0.30898 0.35771 -0.27300
N 	N 	0.47752 0.41466 0.13866 -0.26400
N 	N 	0.30898 0.72076 0.85771 -0.27100
N 	N 	0.41466 0.47752 0.63866 -0.26400
N 	N 	0.27924 0.69102 0.64229 -0.27300
N 	N 	0.52248 0.58534 0.86134 -0.26400
F 	F 	0.04719 0.21601 0.01111 -0.40100
F 	F 	0.21686 0.11996 0.06975 -0.42300
F 	F 	0.33596 0.80914 0.39440 -0.39600
F 	F 	0.32404 0.99300 0.35384 -0.38400
F 	F 	0.78399 0.95281 0.48889 -0.40100
F 	F 	0.88004 0.78314 0.43025 -0.42300
F 	F 	0.19086 0.66404 0.10560 -0.39600
F 	F 	0.00700 0.67596 0.14616 -0.38400
F 	F 	0.95281 0.78399 0.98889 -0.40100
F 	F 	0.78314 0.88004 0.93025 -0.42300
F 	F 	0.66404 0.19086 0.60560 -0.39600
F 	F 	0.67596 0.00700 0.64616 -0.38400
F 	F 	0.21601 0.04719 0.51111 -0.40100
F 	F 	0.11996 0.21686 0.56975 -0.42300
F 	F 	0.80914 0.33596 0.89440 -0.39600
F 	F 	0.99300 0.32404 0.85384 -0.38400
