data_crystal

_cell_length_a 13.03660
_cell_length_b 13.03660
_cell_length_c 16.24000
_cell_angle_alpha 109.53900
_cell_angle_beta  109.53900
_cell_angle_gamma 95.47480

_symmetry_space_group_name_	'P 1'
_symmetry_space_group_name_H-M	'P 1'

loop_
_symmetry_equiv_pos_as_xyz
  x,y,z

loop_
_atom_site_label
_atom_site_type_symbol
_atom_site_fract_x
_atom_site_fract_y
_atom_site_fract_z
_atom_site_charge
Cd	Cd	0.62115 0.37885 0.25000 1.16400
Cd	Cd	0.37885 0.62115 0.75000 1.16400
H 	H 	0.43140 0.44440 0.32790 -0.02500
H 	H 	0.73010 0.63210 0.41660 0.00700
H 	H 	0.37940 0.58760 0.42340 0.11400
H 	H 	0.68440 0.78200 0.51230 0.17800
H 	H 	0.54450 0.21730 0.02900 -0.04300
H 	H 	0.84300 0.31280 0.22280 -0.05900
H 	H 	0.61260 0.12400 0.92000 0.16800
H 	H 	0.91860 0.22260 0.12200 0.17000
H 	H 	0.75550 0.04250 0.87780 0.19700
H 	H 	0.84110 0.15430 0.90850 0.23500
H 	H 	0.41540 0.76840 0.53430 0.09500
H 	H 	0.54410 0.81590 0.60900 0.10400
H 	H 	0.55560 0.56860 0.17210 -0.02400
H 	H 	0.36790 0.26990 0.08340 0.00800
H 	H 	0.41240 0.62060 0.07660 0.11500
H 	H 	0.21800 0.31560 0.98770 0.17900
H 	H 	0.78270 0.45550 0.47100 -0.04500
H 	H 	0.68720 0.15700 0.27720 -0.06100
H 	H 	0.87600 0.38740 0.58000 0.17200
H 	H 	0.77740 0.08140 0.37800 0.17300
H 	H 	0.95750 0.24450 0.62220 0.19900
H 	H 	0.84570 0.15890 0.59150 0.23700
H 	H 	0.23160 0.58460 0.96570 0.09500
H 	H 	0.18410 0.45590 0.89100 0.10400
H 	H 	0.56860 0.55560 0.67210 -0.02400
H 	H 	0.26990 0.36790 0.58340 0.00800
H 	H 	0.62060 0.41240 0.57660 0.11400
H 	H 	0.31560 0.21800 0.48770 0.17800
H 	H 	0.45550 0.78270 0.97100 -0.04300
H 	H 	0.15700 0.68720 0.77720 -0.05900
H 	H 	0.38740 0.87600 0.08000 0.16800
H 	H 	0.08140 0.77740 0.87800 0.17000
H 	H 	0.24450 0.95750 0.12220 0.19700
H 	H 	0.15890 0.84570 0.09150 0.23500
H 	H 	0.58460 0.23160 0.46570 0.09500
H 	H 	0.45590 0.18410 0.39100 0.10400
H 	H 	0.44440 0.43140 0.82790 -0.02400
H 	H 	0.63210 0.73010 0.91660 0.00800
H 	H 	0.58760 0.37940 0.92340 0.11500
H 	H 	0.78200 0.68440 0.01230 0.17900
H 	H 	0.21730 0.54450 0.52900 -0.04500
H 	H 	0.31280 0.84300 0.72280 -0.06100
H 	H 	0.12400 0.61260 0.42000 0.17200
H 	H 	0.22260 0.91860 0.62200 0.17300
H 	H 	0.04250 0.75550 0.37780 0.19900
H 	H 	0.15430 0.84110 0.40850 0.23700
H 	H 	0.76840 0.41540 0.03430 0.09500
H 	H 	0.81590 0.54410 0.10900 0.10400
C 	C 	0.62284 0.22014 0.04733 0.16200
C 	C 	0.79791 0.27511 0.16365 0.18700
C 	C 	0.66100 0.16280 0.97976 -0.30700
C 	C 	0.84262 0.21970 0.10023 -0.29500
C 	C 	0.77336 0.16192 0.00538 0.30900
C 	C 	0.81521 0.10067 0.93027 -0.34900
C 	C 	0.91044 0.04954 0.96633 0.00300
C 	C 	0.89203 0.94637 0.97252 0.20900
C 	C 	0.97860 0.89836 0.00426 0.20500
C 	C 	0.48440 0.51400 0.36650 0.11500
C 	C 	0.65730 0.62250 0.41740 0.12500
C 	C 	0.45200 0.59960 0.42280 -0.19100
C 	C 	0.63040 0.71300 0.47500 -0.20200
C 	C 	0.52619 0.70227 0.47782 0.19100
C 	C 	0.49484 0.79722 0.54211 -0.15600
C 	C 	0.49953 0.90123 0.52006 -0.05600
C 	C 	0.41575 0.90749 0.44398 0.23100
C 	C 	0.41484 0.00292 0.42453 0.24100
C 	C 	0.77986 0.37716 0.45267 0.16900
C 	C 	0.72489 0.20209 0.33635 0.19100
C 	C 	0.83720 0.33900 0.52024 -0.31900
C 	C 	0.78030 0.15738 0.39977 -0.30100
C 	C 	0.83808 0.22664 0.49462 0.31900
C 	C 	0.89933 0.18479 0.56973 -0.35500
C 	C 	0.95046 0.08956 0.53367 0.00200
C 	C 	0.05363 0.10797 0.52748 0.21100
C 	C 	0.10164 0.02140 0.49574 0.20400
C 	C 	0.48600 0.51560 0.13350 0.11500
C 	C 	0.37750 0.34270 0.08260 0.12500
C 	C 	0.40040 0.54800 0.07720 -0.19100
C 	C 	0.28700 0.36960 0.02500 -0.20300
C 	C 	0.29773 0.47381 0.02218 0.19200
C 	C 	0.20278 0.50516 0.95789 -0.15700
C 	C 	0.09877 0.50047 0.97994 -0.05700
C 	C 	0.09251 0.58425 0.05602 0.23200
C 	C 	0.99708 0.58516 0.07547 0.24000
C 	C 	0.37716 0.77986 0.95267 0.16200
C 	C 	0.20209 0.72489 0.83635 0.18700
C 	C 	0.33900 0.83720 0.02024 -0.30700
C 	C 	0.15738 0.78030 0.89977 -0.29500
C 	C 	0.22664 0.83808 0.99462 0.30900
C 	C 	0.18479 0.89933 0.06973 -0.34900
C 	C 	0.08956 0.95046 0.03367 0.00300
C 	C 	0.10797 0.05363 0.02748 0.20900
C 	C 	0.02140 0.10164 0.99574 0.20500
C 	C 	0.51560 0.48600 0.63350 0.11500
C 	C 	0.34270 0.37750 0.58260 0.12500
C 	C 	0.54800 0.40040 0.57720 -0.19100
C 	C 	0.36960 0.28700 0.52500 -0.20200
C 	C 	0.47381 0.29773 0.52218 0.19100
C 	C 	0.50516 0.20278 0.45789 -0.15600
C 	C 	0.50047 0.09877 0.47994 -0.05600
C 	C 	0.58425 0.09251 0.55602 0.23100
C 	C 	0.58516 0.99708 0.57547 0.24100
C 	C 	0.22014 0.62284 0.54733 0.16900
C 	C 	0.27511 0.79791 0.66365 0.19100
C 	C 	0.16280 0.66100 0.47976 -0.31900
C 	C 	0.21970 0.84262 0.60023 -0.30100
C 	C 	0.16192 0.77336 0.50538 0.31900
C 	C 	0.10067 0.81521 0.43027 -0.35500
C 	C 	0.04954 0.91044 0.46633 0.00200
C 	C 	0.94637 0.89203 0.47252 0.21100
C 	C 	0.89836 0.97860 0.50426 0.20400
C 	C 	0.51400 0.48440 0.86650 0.11500
C 	C 	0.62250 0.65730 0.91740 0.12500
C 	C 	0.59960 0.45200 0.92280 -0.19100
C 	C 	0.71300 0.63040 0.97500 -0.20300
C 	C 	0.70227 0.52619 0.97782 0.19200
C 	C 	0.79722 0.49484 0.04211 -0.15700
C 	C 	0.90123 0.49953 0.02006 -0.05700
C 	C 	0.90749 0.41575 0.94398 0.23200
C 	C 	0.00292 0.41484 0.92453 0.24000
N 	N 	0.68972 0.27696 0.13901 -0.29000
N 	N 	0.58616 0.52406 0.36378 -0.26400
N 	N 	0.72304 0.31028 0.36099 -0.29200
N 	N 	0.47594 0.41384 0.13622 -0.26400
N 	N 	0.31028 0.72304 0.86099 -0.29000
N 	N 	0.41384 0.47594 0.63622 -0.26400
N 	N 	0.27696 0.68972 0.63901 -0.29200
N 	N 	0.52406 0.58616 0.86378 -0.26400
F 	F 	0.78621 0.89091 0.94602 -0.41900
F 	F 	0.95403 0.79687 0.00722 -0.39300
F 	F 	0.33061 0.81667 0.38616 -0.39300
F 	F 	0.32894 0.00142 0.34966 -0.38900
F 	F 	0.10909 0.21379 0.55398 -0.41900
F 	F 	0.20313 0.04597 0.49278 -0.39300
F 	F 	0.18333 0.66939 0.11384 -0.39300
F 	F 	0.99858 0.67106 0.15034 -0.38800
F 	F 	0.21379 0.10909 0.05398 -0.41900
F 	F 	0.04597 0.20313 0.99278 -0.39300
F 	F 	0.66939 0.18333 0.61384 -0.39300
F 	F 	0.67106 0.99858 0.65034 -0.38900
F 	F 	0.89091 0.78621 0.44602 -0.41900
F 	F 	0.79687 0.95403 0.50722 -0.39300
F 	F 	0.81667 0.33061 0.88616 -0.39300
F 	F 	0.00142 0.32894 0.84966 -0.38800
