data_crystal

_cell_length_a 13.15230
_cell_length_b 13.15230
_cell_length_c 16.57650
_cell_angle_alpha 111.19100
_cell_angle_beta  111.19100
_cell_angle_gamma 94.18040

_symmetry_space_group_name_	'P 1'
_symmetry_space_group_name_H-M	'P 1'

loop_
_symmetry_equiv_pos_as_xyz
  x,y,z

loop_
_atom_site_label
_atom_site_type_symbol
_atom_site_fract_x
_atom_site_fract_y
_atom_site_fract_z
_atom_site_charge
Cd	Cd	0.12363 0.87637 0.25000 1.16300
Cd	Cd	0.87637 0.12363 0.75000 1.16300
H 	H 	0.92870 0.95230 0.31440 -0.01400
H 	H 	0.23470 0.13890 0.42670 0.00600
H 	H 	0.87580 0.09580 0.40970 0.12900
H 	H 	0.18840 0.28480 0.52500 0.18700
H 	H 	0.35300 0.81780 0.23180 -0.02700
H 	H 	0.04590 0.71870 0.02750 -0.03300
H 	H 	0.42180 0.72520 0.12460 0.14400
H 	H 	0.11170 0.62150 0.91580 0.13100
H 	H 	0.34060 0.65460 0.91130 0.20600
H 	H 	0.25030 0.53810 0.87250 0.15700
H 	H 	0.04050 0.31950 0.60230 0.15400
H 	H 	0.92150 0.27070 0.52990 0.14100
H 	H 	0.04770 0.07130 0.18560 -0.01900
H 	H 	0.86110 0.76530 0.07330 0.00600
H 	H 	0.90420 0.12420 0.09030 0.13100
H 	H 	0.71520 0.81160 0.97500 0.18400
H 	H 	0.18220 0.64700 0.26820 -0.02900
H 	H 	0.28130 0.95410 0.47250 -0.03400
H 	H 	0.27480 0.57820 0.37540 0.14700
H 	H 	0.37850 0.88830 0.58420 0.13500
H 	H 	0.34540 0.65940 0.58870 0.20800
H 	H 	0.46190 0.74970 0.62750 0.15900
H 	H 	0.68050 0.95950 0.89770 0.15300
H 	H 	0.72930 0.07850 0.97010 0.14000
H 	H 	0.07130 0.04770 0.68560 -0.01500
H 	H 	0.76530 0.86110 0.57330 0.00500
H 	H 	0.12420 0.90420 0.59030 0.12900
H 	H 	0.81160 0.71520 0.47500 0.18700
H 	H 	0.64700 0.18220 0.76820 -0.02700
H 	H 	0.95410 0.28130 0.97250 -0.03300
H 	H 	0.57820 0.27480 0.87540 0.14400
H 	H 	0.88830 0.37850 0.08420 0.13100
H 	H 	0.65940 0.34540 0.08870 0.20600
H 	H 	0.74970 0.46190 0.12750 0.15700
H 	H 	0.95950 0.68050 0.39770 0.15400
H 	H 	0.07850 0.72930 0.47010 0.14100
H 	H 	0.95230 0.92870 0.81440 -0.01900
H 	H 	0.13890 0.23470 0.92670 0.00600
H 	H 	0.09580 0.87580 0.90970 0.13100
H 	H 	0.28480 0.18840 0.02500 0.18400
H 	H 	0.81780 0.35300 0.73180 -0.02900
H 	H 	0.71870 0.04590 0.52750 -0.03400
H 	H 	0.72520 0.42180 0.62460 0.14700
H 	H 	0.62150 0.11170 0.41580 0.13500
H 	H 	0.65460 0.34060 0.41130 0.20800
H 	H 	0.53810 0.25030 0.37250 0.15900
H 	H 	0.31950 0.04050 0.10230 0.15300
H 	H 	0.27070 0.92150 0.02990 0.14000
C 	C 	0.30149 0.77903 0.16415 0.11900
C 	C 	0.12436 0.72118 0.04636 0.11900
C 	C 	0.34538 0.72420 0.10063 -0.22300
C 	C 	0.16174 0.66404 0.97858 -0.22800
C 	C 	0.27411 0.66437 0.00499 0.23200
C 	C 	0.31500 0.60144 0.93042 -0.24900
C 	C 	0.41004 0.54966 0.96641 -0.02500
C 	C 	0.39181 0.44423 0.96524 0.22000
C 	C 	0.47862 0.39646 0.99743 0.20800
C 	C 	0.98343 0.02017 0.35850 0.10800
C 	C 	0.16091 0.12769 0.42350 0.14400
C 	C 	0.95012 0.10528 0.41400 -0.22000
C 	C 	0.13369 0.21671 0.48180 -0.24900
C 	C 	0.02947 0.20497 0.47598 0.25400
C 	C 	0.99492 0.29890 0.53834 -0.28300
C 	C 	0.99859 0.40221 0.51847 -0.02100
C 	C 	0.91397 0.40829 0.44233 0.22300
C 	C 	0.91437 0.50281 0.42436 0.23300
C 	C 	0.22097 0.69851 0.33585 0.12300
C 	C 	0.27882 0.87564 0.45364 0.12900
C 	C 	0.27580 0.65462 0.39937 -0.23000
C 	C 	0.33596 0.83826 0.52142 -0.24300
C 	C 	0.33563 0.72589 0.49501 0.24500
C 	C 	0.39856 0.68500 0.56958 -0.25700
C 	C 	0.45034 0.58996 0.53359 -0.02300
C 	C 	0.55577 0.60819 0.53476 0.21900
C 	C 	0.60354 0.52138 0.50257 0.20900
C 	C 	0.97983 0.01657 0.14150 0.11300
C 	C 	0.87231 0.83909 0.07650 0.14300
C 	C 	0.89472 0.04988 0.08600 -0.22200
C 	C 	0.78329 0.86631 0.01820 -0.24600
C 	C 	0.79503 0.97053 0.02402 0.25500
C 	C 	0.70110 0.00508 0.96166 -0.28400
C 	C 	0.59779 0.00141 0.98153 -0.02200
C 	C 	0.59171 0.08603 0.05767 0.22400
C 	C 	0.49719 0.08563 0.07564 0.23300
C 	C 	0.69851 0.22097 0.83585 0.11900
C 	C 	0.87564 0.27882 0.95364 0.11900
C 	C 	0.65462 0.27580 0.89937 -0.22300
C 	C 	0.83826 0.33596 0.02142 -0.22800
C 	C 	0.72589 0.33563 0.99501 0.23200
C 	C 	0.68500 0.39856 0.06958 -0.24900
C 	C 	0.58996 0.45034 0.03359 -0.02500
C 	C 	0.60819 0.55577 0.03476 0.22000
C 	C 	0.52138 0.60354 0.00257 0.20800
C 	C 	0.01657 0.97983 0.64150 0.10800
C 	C 	0.83909 0.87231 0.57650 0.14400
C 	C 	0.04988 0.89472 0.58600 -0.22000
C 	C 	0.86631 0.78329 0.51820 -0.24900
C 	C 	0.97053 0.79503 0.52402 0.25400
C 	C 	0.00508 0.70110 0.46166 -0.28300
C 	C 	0.00141 0.59779 0.48153 -0.02100
C 	C 	0.08603 0.59171 0.55767 0.22300
C 	C 	0.08563 0.49719 0.57564 0.23300
C 	C 	0.77903 0.30149 0.66415 0.12300
C 	C 	0.72118 0.12436 0.54636 0.12900
C 	C 	0.72420 0.34538 0.60063 -0.23000
C 	C 	0.66404 0.16174 0.47858 -0.24300
C 	C 	0.66437 0.27411 0.50499 0.24500
C 	C 	0.60144 0.31500 0.43042 -0.25700
C 	C 	0.54966 0.41004 0.46641 -0.02300
C 	C 	0.44423 0.39181 0.46524 0.21900
C 	C 	0.39646 0.47862 0.49743 0.20900
C 	C 	0.02017 0.98343 0.85850 0.11300
C 	C 	0.12769 0.16091 0.92350 0.14300
C 	C 	0.10528 0.95012 0.91400 -0.22200
C 	C 	0.21671 0.13369 0.98180 -0.24600
C 	C 	0.20497 0.02947 0.97598 0.25500
C 	C 	0.29890 0.99492 0.03834 -0.28400
C 	C 	0.40221 0.99859 0.01847 -0.02200
C 	C 	0.40829 0.91397 0.94233 0.22400
C 	C 	0.50281 0.91437 0.92436 0.23300
N 	N 	0.19245 0.77825 0.13847 -0.27200
N 	N 	0.09104 0.02666 0.36280 -0.26100
N 	N 	0.22175 0.80755 0.36153 -0.27400
N 	N 	0.97334 0.90896 0.13720 -0.26000
N 	N 	0.80755 0.22175 0.86153 -0.27200
N 	N 	0.90896 0.97334 0.63720 -0.26100
N 	N 	0.77825 0.19245 0.63847 -0.27400
N 	N 	0.02666 0.09104 0.86280 -0.26000
F 	F 	0.28577 0.38683 0.93187 -0.42000
F 	F 	0.45374 0.29318 0.99415 -0.39500
F 	F 	0.82749 0.31795 0.38275 -0.38700
F 	F 	0.82852 0.50152 0.34917 -0.39000
F 	F 	0.61317 0.71423 0.56813 -0.42100
F 	F 	0.70682 0.54626 0.50585 -0.39500
F 	F 	0.68205 0.17251 0.11725 -0.38700
F 	F 	0.49848 0.17148 0.15083 -0.39000
F 	F 	0.71423 0.61317 0.06813 -0.42000
F 	F 	0.54626 0.70682 0.00585 -0.39500
F 	F 	0.17251 0.68205 0.61725 -0.38700
F 	F 	0.17148 0.49848 0.65083 -0.39000
F 	F 	0.38683 0.28577 0.43187 -0.42100
F 	F 	0.29318 0.45374 0.49415 -0.39500
F 	F 	0.31795 0.82749 0.88275 -0.38700
F 	F 	0.50152 0.82852 0.84917 -0.39000
