data_crystal

_cell_length_a 13.45880
_cell_length_b 13.45880
_cell_length_c 17.11880
_cell_angle_alpha 111.33500
_cell_angle_beta  111.33500
_cell_angle_gamma 90.49670

_symmetry_space_group_name_	'P 1'
_symmetry_space_group_name_H-M	'P 1'

loop_
_symmetry_equiv_pos_as_xyz
  x,y,z

loop_
_atom_site_label
_atom_site_type_symbol
_atom_site_fract_x
_atom_site_fract_y
_atom_site_fract_z
_atom_site_charge
Cd	Cd	0.62538 0.37462 0.25000 1.16200
Cd	Cd	0.37462 0.62538 0.75000 1.16200
H 	H 	0.51640 0.15420 0.05640 -0.02100
H 	H 	0.82150 0.32230 0.18680 -0.01800
H 	H 	0.57640 0.01620 0.95390 0.08600
H 	H 	0.88060 0.19380 0.08740 0.15000
H 	H 	0.72960 0.93800 0.93200 0.14900
H 	H 	0.73240 0.00340 0.88700 0.15900
H 	H 	0.62690 0.48890 0.45230 -0.05400
H 	H 	0.58850 0.61110 0.27520 -0.07400
H 	H 	0.64020 0.66280 0.56290 0.17600
H 	H 	0.60640 0.78320 0.38100 0.21800
H 	H 	0.62740 0.84640 0.60680 0.20800
H 	H 	0.71300 0.88940 0.58020 0.25000
H 	H 	0.84580 0.48360 0.44360 -0.02000
H 	H 	0.67770 0.17850 0.31320 -0.01700
H 	H 	0.98380 0.42360 0.54610 0.08300
H 	H 	0.80620 0.11940 0.41260 0.15100
H 	H 	0.06200 0.27040 0.56800 0.15500
H 	H 	0.99660 0.26760 0.61300 0.16200
H 	H 	0.51110 0.37310 0.04770 -0.05400
H 	H 	0.38890 0.41150 0.22480 -0.07300
H 	H 	0.33720 0.35980 0.93710 0.17500
H 	H 	0.21680 0.39360 0.11900 0.21700
H 	H 	0.15360 0.37260 0.89320 0.20800
H 	H 	0.11060 0.28700 0.91980 0.24900
H 	H 	0.48360 0.84580 0.94360 -0.02000
H 	H 	0.17850 0.67770 0.81320 -0.01700
H 	H 	0.42360 0.98380 0.04610 0.08600
H 	H 	0.11940 0.80620 0.91260 0.15000
H 	H 	0.27040 0.06200 0.06800 0.14900
H 	H 	0.26760 0.99660 0.11300 0.15900
H 	H 	0.37310 0.51110 0.54770 -0.05400
H 	H 	0.41150 0.38890 0.72480 -0.07400
H 	H 	0.35980 0.33720 0.43710 0.17600
H 	H 	0.39360 0.21680 0.61900 0.21800
H 	H 	0.37260 0.15360 0.39320 0.20800
H 	H 	0.28700 0.11060 0.41980 0.25000
H 	H 	0.15420 0.51640 0.55640 -0.02000
H 	H 	0.32230 0.82150 0.68680 -0.01700
H 	H 	0.01620 0.57640 0.45390 0.08300
H 	H 	0.19380 0.88060 0.58740 0.15100
H 	H 	0.93800 0.72960 0.43200 0.15500
H 	H 	0.00340 0.73240 0.38700 0.16200
H 	H 	0.48890 0.62690 0.95230 -0.05400
H 	H 	0.61110 0.58850 0.77520 -0.07300
H 	H 	0.66280 0.64020 0.06290 0.17500
H 	H 	0.78320 0.60640 0.88100 0.21700
H 	H 	0.84640 0.62740 0.10680 0.20800
H 	H 	0.88940 0.71300 0.08020 0.24900
C 	C 	0.60125 0.16221 0.06583 0.10100
C 	C 	0.76999 0.25865 0.13673 0.12800
C 	C 	0.63008 0.08204 0.00407 -0.18400
C 	C 	0.80544 0.18178 0.07788 -0.17700
C 	C 	0.73482 0.08966 0.01063 0.21500
C 	C 	0.76631 0.00009 0.94363 -0.28100
C 	C 	0.88685 0.00081 0.97255 -0.02000
C 	C 	0.94274 0.95482 0.03262 0.22600
C 	C 	0.05232 0.95426 0.05887 0.22500
C 	C 	0.62130 0.55274 0.43983 0.20600
C 	C 	0.60047 0.62525 0.33516 0.22700
C 	C 	0.62860 0.65272 0.50549 -0.36300
C 	C 	0.60773 0.72709 0.39701 -0.37800
C 	C 	0.62520 0.74340 0.48573 0.37400
C 	C 	0.64107 0.85417 0.55932 -0.42700
C 	C 	0.56849 0.92849 0.52766 0.02000
C 	C 	0.46711 0.93107 0.53067 0.20800
C 	C 	0.40174 0.00116 0.50471 0.20000
C 	C 	0.83779 0.39875 0.43417 0.10100
C 	C 	0.74135 0.23001 0.36327 0.13000
C 	C 	0.91796 0.36992 0.49593 -0.18300
C 	C 	0.81822 0.19456 0.42212 -0.18000
C 	C 	0.91034 0.26518 0.48937 0.22100
C 	C 	0.99991 0.23369 0.55637 -0.29500
C 	C 	0.99919 0.11315 0.52745 -0.01700
C 	C 	0.04518 0.05726 0.46738 0.22500
C 	C 	0.04574 0.94768 0.44113 0.22300
C 	C 	0.44726 0.37870 0.06017 0.20400
C 	C 	0.37475 0.39953 0.16484 0.22600
C 	C 	0.34728 0.37140 0.99451 -0.35900
C 	C 	0.27291 0.39227 0.10299 -0.37600
C 	C 	0.25660 0.37480 0.01427 0.37100
C 	C 	0.14583 0.35893 0.94068 -0.42500
C 	C 	0.07151 0.43151 0.97234 0.02000
C 	C 	0.06893 0.53289 0.96933 0.20800
C 	C 	0.99884 0.59826 0.99529 0.20000
C 	C 	0.39875 0.83779 0.93417 0.10100
C 	C 	0.23001 0.74135 0.86327 0.12800
C 	C 	0.36992 0.91796 0.99593 -0.18400
C 	C 	0.19456 0.81822 0.92212 -0.17700
C 	C 	0.26518 0.91034 0.98937 0.21500
C 	C 	0.23369 0.99991 0.05637 -0.28100
C 	C 	0.11315 0.99919 0.02745 -0.02000
C 	C 	0.05726 0.04518 0.96738 0.22600
C 	C 	0.94768 0.04574 0.94113 0.22500
C 	C 	0.37870 0.44726 0.56017 0.20600
C 	C 	0.39953 0.37475 0.66484 0.22700
C 	C 	0.37140 0.34728 0.49451 -0.36300
C 	C 	0.39227 0.27291 0.60299 -0.37800
C 	C 	0.37480 0.25660 0.51427 0.37400
C 	C 	0.35893 0.14583 0.44068 -0.42700
C 	C 	0.43151 0.07151 0.47234 0.02000
C 	C 	0.53289 0.06893 0.46933 0.20800
C 	C 	0.59826 0.99884 0.49529 0.20000
C 	C 	0.16221 0.60125 0.56583 0.10100
C 	C 	0.25865 0.76999 0.63673 0.13000
C 	C 	0.08204 0.63008 0.50407 -0.18300
C 	C 	0.18178 0.80544 0.57788 -0.18000
C 	C 	0.08966 0.73482 0.51063 0.22100
C 	C 	0.00009 0.76631 0.44363 -0.29500
C 	C 	0.00081 0.88685 0.47255 -0.01700
C 	C 	0.95482 0.94274 0.53262 0.22500
C 	C 	0.95426 0.05232 0.55887 0.22300
C 	C 	0.55274 0.62130 0.93983 0.20400
C 	C 	0.62525 0.60047 0.83516 0.22600
C 	C 	0.65272 0.62860 0.00549 -0.35900
C 	C 	0.72709 0.60773 0.89701 -0.37600
C 	C 	0.74340 0.62520 0.98573 0.37100
C 	C 	0.85417 0.64107 0.05932 -0.42500
C 	C 	0.92849 0.56849 0.02766 0.02000
C 	C 	0.93107 0.46711 0.03067 0.20800
C 	C 	0.00116 0.40174 0.00471 0.20000
N 	N 	0.66946 0.24880 0.13252 -0.26100
N 	N 	0.60914 0.53766 0.35542 -0.30100
N 	N 	0.75120 0.33054 0.36748 -0.26100
N 	N 	0.46234 0.39086 0.14458 -0.30000
N 	N 	0.33054 0.75120 0.86748 -0.26100
N 	N 	0.39086 0.46234 0.64458 -0.30100
N 	N 	0.24880 0.66946 0.63252 -0.26100
N 	N 	0.53766 0.60914 0.85542 -0.30000
F 	F 	0.88852 0.90946 0.06675 -0.39600
F 	F 	0.10069 0.91049 0.12002 -0.36200
F 	F 	0.43151 0.86471 0.56110 -0.41300
F 	F 	0.30496 0.00034 0.51157 -0.37800
F 	F 	0.09054 0.11148 0.43325 -0.39700
F 	F 	0.08951 0.89931 0.37998 -0.36200
F 	F 	0.13529 0.56849 0.93890 -0.41300
F 	F 	0.99966 0.69504 0.98843 -0.37800
F 	F 	0.11148 0.09054 0.93325 -0.39600
F 	F 	0.89931 0.08951 0.87998 -0.36200
F 	F 	0.56849 0.13529 0.43890 -0.41300
F 	F 	0.69504 0.99966 0.48843 -0.37800
F 	F 	0.90946 0.88852 0.56675 -0.39700
F 	F 	0.91049 0.10069 0.62002 -0.36200
F 	F 	0.86471 0.43151 0.06110 -0.41300
F 	F 	0.00034 0.30496 0.01157 -0.37800
