data_crystal

_cell_length_a 12.92990
_cell_length_b 13.18000
_cell_length_c 16.52030
_cell_angle_alpha 111.36100
_cell_angle_beta  108.27800
_cell_angle_gamma 93.77800

_symmetry_space_group_name_	'P 1'
_symmetry_space_group_name_H-M	'P 1'

loop_
_symmetry_equiv_pos_as_xyz
  x,y,z

loop_
_atom_site_label
_atom_site_type_symbol
_atom_site_fract_x
_atom_site_fract_y
_atom_site_fract_z
_atom_site_charge
Cd	Cd	0.38266 0.62479 0.25413 1.16500
Cd	Cd	0.61734 0.37521 0.74587 1.16500
H 	H 	0.45680 0.79910 0.47380 -0.04900
H 	H 	0.16150 0.67440 0.29110 -0.06500
H 	H 	0.39160 0.89510 0.58400 0.16300
H 	H 	0.08230 0.76260 0.39510 0.18100
H 	H 	0.15190 0.84920 0.59620 0.27700
H 	H 	0.23710 0.95910 0.62780 0.24700
H 	H 	0.30760 0.84400 0.22960 -0.06700
H 	H 	0.21180 0.53870 0.04040 -0.04100
H 	H 	0.21540 0.90980 0.12590 0.20700
H 	H 	0.11530 0.60210 0.93270 0.16500
H 	H 	0.14270 0.81530 0.91150 0.27900
H 	H 	0.03740 0.74160 0.89230 0.22100
H 	H 	0.29730 0.36410 0.12010 -0.03300
H 	H 	0.54410 0.56170 0.13730 -0.05600
H 	H 	0.35280 0.21250 0.02750 0.24600
H 	H 	0.59780 0.42020 0.04220 0.14500
H 	H 	0.58670 0.22300 0.96630 0.17400
H 	H 	0.46930 0.18160 0.89790 0.18200
H 	H 	0.46300 0.44500 0.33100 -0.04200
H 	H 	0.62760 0.74510 0.41330 -0.01000
H 	H 	0.59800 0.41200 0.44100 0.13200
H 	H 	0.77600 0.70840 0.51730 0.21800
H 	H 	0.82560 0.58750 0.61500 0.14900
H 	H 	0.77780 0.46300 0.55900 0.13500
H 	H 	0.54320 0.20090 0.52620 -0.05000
H 	H 	0.83850 0.32560 0.70890 -0.06600
H 	H 	0.60840 0.10490 0.41600 0.16300
H 	H 	0.91770 0.23740 0.60490 0.18100
H 	H 	0.84810 0.15080 0.40380 0.27700
H 	H 	0.76290 0.04090 0.37220 0.24700
H 	H 	0.69240 0.15600 0.77040 -0.06700
H 	H 	0.78820 0.46130 0.95960 -0.04100
H 	H 	0.78460 0.09020 0.87410 0.20700
H 	H 	0.88470 0.39790 0.06730 0.16500
H 	H 	0.85730 0.18470 0.08850 0.27900
H 	H 	0.96260 0.25840 0.10770 0.22100
H 	H 	0.70270 0.63590 0.87990 -0.03300
H 	H 	0.45590 0.43830 0.86270 -0.05600
H 	H 	0.64720 0.78750 0.97250 0.24600
H 	H 	0.40220 0.57980 0.95780 0.14500
H 	H 	0.41330 0.77700 0.03370 0.17400
H 	H 	0.53070 0.81840 0.10210 0.18200
H 	H 	0.53700 0.55500 0.66900 -0.04200
H 	H 	0.37240 0.25490 0.58670 -0.01000
H 	H 	0.40200 0.58800 0.55900 0.13200
H 	H 	0.22400 0.29160 0.48270 0.21800
H 	H 	0.17440 0.41250 0.38500 0.14900
H 	H 	0.22220 0.53700 0.44100 0.13500
C 	C 	0.38078 0.78911 0.45778 0.17800
C 	C 	0.20489 0.71480 0.35010 0.19600
C 	C 	0.34177 0.84693 0.52623 -0.31100
C 	C 	0.15934 0.76950 0.41451 -0.31500
C 	C 	0.22802 0.83796 0.50519 0.35100
C 	C 	0.18239 0.90227 0.57872 -0.45500
C 	C 	0.08839 0.95271 0.53954 0.02900
C 	C 	0.10799 0.05390 0.53292 0.20300
C 	C 	0.02242 0.09972 0.49549 0.19400
C 	C 	0.26966 0.79641 0.16945 0.21300
C 	C 	0.21419 0.61813 0.05813 0.16400
C 	C 	0.21249 0.83737 0.10648 -0.37100
C 	C 	0.15518 0.65305 0.99119 -0.32700
C 	C 	0.15451 0.76542 0.01444 0.35900
C 	C 	0.09517 0.80239 0.93842 -0.46900
C 	C 	0.04745 0.90472 0.97130 0.03800
C 	C 	0.94484 0.89765 0.98065 0.19500
C 	C 	0.89932 0.99009 0.00846 0.19900
C 	C 	0.36050 0.37109 0.10279 0.21700
C 	C 	0.50453 0.48990 0.11316 0.18400
C 	C 	0.38946 0.28047 0.04657 -0.36200
C 	C 	0.53684 0.40353 0.05636 -0.30800
C 	C 	0.48006 0.29526 0.02218 0.32900
C 	C 	0.51395 0.19872 0.95897 -0.37100
C 	C 	0.50585 0.09610 0.97967 -0.00300
C 	C 	0.58467 0.08887 0.05507 0.21900
C 	C 	0.57980 0.99557 0.07498 0.22200
C 	C 	0.52985 0.49920 0.36970 0.14900
C 	C 	0.62716 0.67265 0.41875 0.17500
C 	C 	0.61499 0.47392 0.42920 -0.24200
C 	C 	0.71564 0.65387 0.48093 -0.29700
C 	C 	0.71008 0.55233 0.48726 0.26600
C 	C 	0.80503 0.52859 0.55521 -0.27600
C 	C 	0.90519 0.51512 0.52648 -0.02000
C 	C 	0.90658 0.41963 0.45556 0.22000
C 	C 	0.99777 0.40418 0.42945 0.22700
C 	C 	0.61922 0.21089 0.54222 0.17800
C 	C 	0.79511 0.28520 0.64990 0.19600
C 	C 	0.65823 0.15307 0.47377 -0.31100
C 	C 	0.84066 0.23050 0.58549 -0.31500
C 	C 	0.77198 0.16204 0.49481 0.35100
C 	C 	0.81761 0.09773 0.42128 -0.45500
C 	C 	0.91161 0.04729 0.46046 0.02900
C 	C 	0.89201 0.94610 0.46708 0.20300
C 	C 	0.97758 0.90028 0.50451 0.19400
C 	C 	0.73034 0.20359 0.83055 0.21300
C 	C 	0.78581 0.38187 0.94187 0.16400
C 	C 	0.78751 0.16263 0.89352 -0.37100
C 	C 	0.84482 0.34695 0.00881 -0.32700
C 	C 	0.84549 0.23458 0.98556 0.35900
C 	C 	0.90483 0.19761 0.06158 -0.46900
C 	C 	0.95255 0.09528 0.02870 0.03800
C 	C 	0.05516 0.10235 0.01935 0.19500
C 	C 	0.10068 0.00991 0.99154 0.19900
C 	C 	0.63950 0.62891 0.89721 0.21700
C 	C 	0.49547 0.51010 0.88684 0.18400
C 	C 	0.61054 0.71953 0.95343 -0.36200
C 	C 	0.46316 0.59647 0.94364 -0.30800
C 	C 	0.51994 0.70474 0.97782 0.32900
C 	C 	0.48605 0.80128 0.04103 -0.37100
C 	C 	0.49415 0.90390 0.02033 -0.00300
C 	C 	0.41533 0.91113 0.94493 0.21900
C 	C 	0.42020 0.00443 0.92502 0.22200
C 	C 	0.47015 0.50080 0.63030 0.14900
C 	C 	0.37284 0.32735 0.58125 0.17500
C 	C 	0.38501 0.52608 0.57080 -0.24200
C 	C 	0.28436 0.34613 0.51907 -0.29700
C 	C 	0.28992 0.44767 0.51274 0.26600
C 	C 	0.19497 0.47141 0.44479 -0.27600
C 	C 	0.09481 0.48488 0.47352 -0.02000
C 	C 	0.09342 0.58037 0.54444 0.22000
C 	C 	0.00223 0.59582 0.57055 0.22700
N 	N 	0.31449 0.72324 0.36994 -0.29500
N 	N 	0.27206 0.68812 0.14678 -0.29600
N 	N 	0.41655 0.47557 0.13769 -0.29000
N 	N 	0.53380 0.59734 0.36413 -0.28000
N 	N 	0.68551 0.27676 0.63006 -0.29500
N 	N 	0.72794 0.31188 0.85322 -0.29600
N 	N 	0.58345 0.52443 0.86231 -0.29000
N 	N 	0.46620 0.40266 0.63587 -0.28000
F 	F 	0.21378 0.10847 0.56376 -0.42000
F 	F 	0.04776 0.19914 0.49277 -0.39300
F 	F 	0.88681 0.79743 0.96125 -0.41300
F 	F 	0.79850 0.97595 0.01586 -0.38400
F 	F 	0.67008 0.17665 0.11236 -0.38800
F 	F 	0.66183 0.99576 0.14935 -0.38300
F 	F 	0.81441 0.33764 0.40898 -0.39800
F 	F 	0.99069 0.30839 0.35844 -0.38200
F 	F 	0.78622 0.89153 0.43624 -0.42000
F 	F 	0.95224 0.80086 0.50723 -0.39300
F 	F 	0.11319 0.20257 0.03875 -0.41300
F 	F 	0.20150 0.02405 0.98414 -0.38400
F 	F 	0.32992 0.82335 0.88764 -0.38800
F 	F 	0.33817 0.00424 0.85065 -0.38300
F 	F 	0.18559 0.66236 0.59102 -0.39800
F 	F 	0.00931 0.69161 0.64156 -0.38200
