data_crystal

_cell_length_a 13.04700
_cell_length_b 13.27900
_cell_length_c 16.61450
_cell_angle_alpha 111.12100
_cell_angle_beta  109.44200
_cell_angle_gamma 92.73400

_symmetry_space_group_name_	'P 1'
_symmetry_space_group_name_H-M	'P 1'

loop_
_symmetry_equiv_pos_as_xyz
  x,y,z

loop_
_atom_site_label
_atom_site_type_symbol
_atom_site_fract_x
_atom_site_fract_y
_atom_site_fract_z
_atom_site_charge
Cd	Cd	0.61748 0.37919 0.25077 1.16200
Cd	Cd	0.38252 0.62081 0.74923 1.16200
H 	H 	0.54190 0.22100 0.03090 -0.02300
H 	H 	0.84620 0.31730 0.22010 -0.02600
H 	H 	0.60520 0.12530 0.91830 0.11500
H 	H 	0.91590 0.22060 0.11280 0.13500
H 	H 	0.74870 0.03600 0.87420 0.15300
H 	H 	0.83190 0.14490 0.89880 0.20500
H 	H 	0.35910 0.27170 0.09710 0.01700
H 	H 	0.54280 0.55410 0.16220 -0.02500
H 	H 	0.21610 0.30790 0.98740 0.16800
H 	H 	0.39840 0.60190 0.06560 0.11400
H 	H 	0.21760 0.56080 0.94900 0.10300
H 	H 	0.17360 0.43260 0.88360 0.11000
H 	H 	0.44980 0.44990 0.35700 -0.03100
H 	H 	0.71950 0.63780 0.39800 0.00800
H 	H 	0.39690 0.59630 0.45270 0.10800
H 	H 	0.67320 0.79020 0.49220 0.17600
H 	H 	0.55830 0.82600 0.61570 0.11300
H 	H 	0.42970 0.78350 0.55030 0.10500
H 	H 	0.69300 0.15990 0.27190 -0.02800
H 	H 	0.76990 0.45600 0.47080 -0.02300
H 	H 	0.79190 0.08870 0.37630 0.13500
H 	H 	0.87360 0.39590 0.57980 0.11700
H 	H 	0.97110 0.25690 0.61480 0.14600
H 	H 	0.85960 0.18270 0.59740 0.18900
H 	H 	0.45810 0.77900 0.96910 -0.02200
H 	H 	0.15380 0.68270 0.77990 -0.02500
H 	H 	0.39480 0.87470 0.08170 0.11600
H 	H 	0.08410 0.77940 0.88720 0.13600
H 	H 	0.25130 0.96400 0.12580 0.15400
H 	H 	0.16810 0.85510 0.10120 0.20600
H 	H 	0.64090 0.72830 0.90290 0.01700
H 	H 	0.45720 0.44590 0.83780 -0.02500
H 	H 	0.78390 0.69210 0.01260 0.16800
H 	H 	0.60160 0.39810 0.93440 0.11400
H 	H 	0.78240 0.43920 0.05100 0.10300
H 	H 	0.82640 0.56740 0.11640 0.11000
H 	H 	0.55020 0.55010 0.64300 -0.03100
H 	H 	0.28050 0.36220 0.60200 0.00800
H 	H 	0.60310 0.40370 0.54730 0.10800
H 	H 	0.32680 0.20980 0.50780 0.17600
H 	H 	0.44170 0.17400 0.38430 0.11300
H 	H 	0.57030 0.21650 0.44970 0.10500
H 	H 	0.30700 0.84010 0.72810 -0.02800
H 	H 	0.23010 0.54400 0.52920 -0.02300
H 	H 	0.20810 0.91130 0.62370 0.13500
H 	H 	0.12640 0.60410 0.42020 0.11700
H 	H 	0.02890 0.74310 0.38520 0.14600
H 	H 	0.14040 0.81730 0.40260 0.18900
C 	C 	0.61920 0.22140 0.04800 0.10300
C 	C 	0.79600 0.27680 0.15780 0.11500
C 	C 	0.65660 0.16370 0.98040 -0.19500
C 	C 	0.83860 0.21980 0.09400 -0.19900
C 	C 	0.76850 0.15990 0.00040 0.21600
C 	C 	0.80970 0.09550 0.92510 -0.23900
C 	C 	0.90710 0.04580 0.96280 -0.01600
C 	C 	0.01590 0.10240 0.99590 0.20600
C 	C 	0.10450 0.05780 0.03180 0.21400
C 	C 	0.36960 0.33860 0.08970 0.10400
C 	C 	0.47440 0.50340 0.12830 0.10900
C 	C 	0.28180 0.36190 0.02510 -0.18200
C 	C 	0.38830 0.53240 0.06900 -0.18300
C 	C 	0.28900 0.45990 0.01560 0.18500
C 	C 	0.19320 0.48830 0.94770 -0.16500
C 	C 	0.09250 0.49130 0.97370 -0.05800
C 	C 	0.08730 0.58370 0.04530 0.23300
C 	C 	0.99790 0.59230 0.06980 0.23800
C 	C 	0.49570 0.52060 0.38480 0.12200
C 	C 	0.65270 0.62970 0.40820 0.11500
C 	C 	0.46320 0.60690 0.44240 -0.19500
C 	C 	0.62630 0.72020 0.46560 -0.19900
C 	C 	0.53260 0.70940 0.48440 0.19400
C 	C 	0.50400 0.80560 0.55160 -0.17500
C 	C 	0.50510 0.90670 0.52510 -0.05200
C 	C 	0.41690 0.91310 0.45210 0.23300
C 	C 	0.41110 0.00270 0.42690 0.23800
C 	C 	0.73040 0.20850 0.33530 0.11800
C 	C 	0.77600 0.38070 0.45140 0.10400
C 	C 	0.78910 0.16480 0.39720 -0.19600
C 	C 	0.83680 0.34530 0.51700 -0.20500
C 	C 	0.84420 0.23550 0.49150 0.21100
C 	C 	0.90900 0.19660 0.56690 -0.21800
C 	C 	0.95560 0.09390 0.53280 -0.04400
C 	C 	0.06000 0.10560 0.53170 0.23000
C 	C 	0.10340 0.01190 0.50030 0.22800
C 	C 	0.38080 0.77860 0.95200 0.10300
C 	C 	0.20400 0.72320 0.84220 0.11500
C 	C 	0.34340 0.83630 0.01960 -0.19500
C 	C 	0.16140 0.78020 0.90600 -0.19900
C 	C 	0.23150 0.84010 0.99960 0.21600
C 	C 	0.19030 0.90450 0.07490 -0.23900
C 	C 	0.09290 0.95420 0.03720 -0.01600
C 	C 	0.98410 0.89760 0.00410 0.20600
C 	C 	0.89550 0.94220 0.96820 0.21400
C 	C 	0.63040 0.66140 0.91030 0.10400
C 	C 	0.52560 0.49660 0.87170 0.10900
C 	C 	0.71820 0.63810 0.97490 -0.18200
C 	C 	0.61170 0.46760 0.93100 -0.18300
C 	C 	0.71100 0.54010 0.98440 0.18500
C 	C 	0.80680 0.51170 0.05230 -0.16500
C 	C 	0.90750 0.50870 0.02630 -0.05800
C 	C 	0.91270 0.41630 0.95470 0.23300
C 	C 	0.00210 0.40770 0.93020 0.23800
C 	C 	0.50430 0.47940 0.61520 0.12200
C 	C 	0.34730 0.37030 0.59180 0.11500
C 	C 	0.53680 0.39310 0.55760 -0.19500
C 	C 	0.37370 0.27980 0.53440 -0.19900
C 	C 	0.46740 0.29060 0.51560 0.19400
C 	C 	0.49600 0.19440 0.44840 -0.17500
C 	C 	0.49490 0.09330 0.47490 -0.05200
C 	C 	0.58310 0.08690 0.54790 0.23300
C 	C 	0.58890 0.99730 0.57310 0.23800
C 	C 	0.26960 0.79150 0.66470 0.11800
C 	C 	0.22400 0.61930 0.54860 0.10400
C 	C 	0.21090 0.83520 0.60280 -0.19600
C 	C 	0.16320 0.65470 0.48300 -0.20500
C 	C 	0.15580 0.76450 0.50850 0.21100
C 	C 	0.09100 0.80340 0.43310 -0.21800
C 	C 	0.04440 0.90610 0.46720 -0.04400
C 	C 	0.94000 0.89440 0.46830 0.23000
C 	C 	0.89660 0.98810 0.49970 0.22800
N 	N 	0.68690 0.27960 0.13850 -0.26600
N 	N 	0.46760 0.40930 0.14090 -0.25900
N 	N 	0.58530 0.52940 0.36590 -0.26100
N 	N 	0.72350 0.31330 0.35920 -0.26900
N 	N 	0.31310 0.72040 0.86150 -0.26600
N 	N 	0.53240 0.59070 0.85910 -0.25900
N 	N 	0.41470 0.47060 0.63410 -0.26100
N 	N 	0.27650 0.68670 0.64080 -0.26900
F 	F 	0.03310 0.20280 0.99360 -0.38600
F 	F 	0.20670 0.11630 0.06060 -0.41900
F 	F 	0.17500 0.66980 0.09130 -0.39300
F 	F 	0.00190 0.68500 0.13950 -0.37900
F 	F 	0.33120 0.82610 0.40100 -0.39000
F 	F 	0.32230 0.00100 0.35420 -0.38200
F 	F 	0.12130 0.20490 0.56160 -0.42300
F 	F 	0.20510 0.02660 0.50110 -0.39400
F 	F 	0.96690 0.79720 0.00640 -0.38600
F 	F 	0.79330 0.88370 0.93940 -0.41900
F 	F 	0.82500 0.33020 0.90870 -0.39300
F 	F 	0.99810 0.31500 0.86050 -0.37900
F 	F 	0.66880 0.17390 0.59900 -0.39000
F 	F 	0.67770 0.99900 0.64580 -0.38200
F 	F 	0.87870 0.79510 0.43840 -0.42300
F 	F 	0.79490 0.97340 0.49890 -0.39400
