data_crystal

_cell_length_a 9.21160
_cell_length_b 17.94020
_cell_length_c 19.15890
_cell_angle_alpha 90.10110
_cell_angle_beta  91.06560
_cell_angle_gamma 91.45830

_symmetry_space_group_name_	'P 1'
_symmetry_space_group_name_H-M	'P 1'

loop_
_symmetry_equiv_pos_as_xyz
  x,y,z

loop_
_atom_site_label
_atom_site_type_symbol
_atom_site_fract_x
_atom_site_fract_y
_atom_site_fract_z
_atom_site_charge
Ni	Ni	0.65548 0.30844 0.75477 1.06800
Ni	Ni	0.51151 0.80381 0.25428 1.07100
Ni	Ni	0.39732 0.30280 0.75387 1.07100
Ni	Ni	0.25316 0.80028 0.25190 1.06700
H 	H 	0.13293 0.37376 0.65712 0.04300
H 	H 	0.14041 0.18578 0.74861 0.04200
H 	H 	0.61963 0.99581 0.38551 0.04500
H 	H 	0.76050 0.17728 0.57320 0.04000
H 	H 	0.75197 0.71406 0.17548 0.04600
H 	H 	0.89585 0.38583 0.83767 0.04000
H 	H 	0.01708 0.88375 0.33360 0.03900
H 	H 	0.00313 0.68423 0.28304 0.03600
H 	H 	0.87533 0.18802 0.77406 0.04100
H 	H 	0.14283 0.64929 0.41638 0.04100
H 	H 	0.91052 0.42758 0.74836 0.04100
H 	H 	0.16950 0.23031 0.83650 0.04000
H 	H 	0.27956 0.47636 0.61104 0.04400
H 	H 	0.13695 0.55890 0.52276 0.03600
H 	H 	0.87119 0.33917 0.64174 0.04400
H 	H 	0.01142 0.70109 0.18677 0.03900
H 	H 	0.74512 0.59526 0.99201 0.03900
H 	H 	0.14162 0.04484 0.51783 0.03700
H 	H 	0.73335 0.68062 0.26776 0.04600
H 	H 	0.75982 0.91700 0.22002 0.04300
H 	H 	0.76737 0.56488 0.50182 0.03800
H 	H 	0.76173 0.07568 0.03509 0.03900
H 	H 	0.75855 0.09082 0.46481 0.03900
H 	H 	0.02904 0.78507 0.36611 0.03700
H 	H 	0.74319 0.84538 0.14796 0.04200
H 	H 	0.28259 0.13962 0.59903 0.04500
H 	H 	0.15127 0.58726 0.13709 0.04000
H 	H 	0.62665 0.64458 0.41224 0.04700
H 	H 	0.15476 0.92804 0.06584 0.04200
H 	H 	0.90480 0.23806 0.66023 0.04600
H 	H 	0.76067 0.77058 0.36283 0.04400
H 	H 	0.15335 0.01848 0.96052 0.03700
H 	H 	0.14442 0.95136 0.41603 0.03800
H 	H 	0.29731 0.41723 0.94419 0.04600
H 	H 	0.15681 0.48331 0.04288 0.03700
H 	H 	0.74322 0.49642 0.89020 0.04500
H 	H 	0.15466 0.36446 0.84776 0.04400
H 	H 	0.02630 0.91278 0.21056 0.03500
H 	H 	0.29825 0.11176 0.87991 0.04700
H 	H 	0.75871 0.17182 0.93140 0.04400
H 	H 	0.75375 0.87323 0.34635 0.04600
H 	H 	0.60616 0.65963 0.08831 0.04800
H 	H 	0.00759 0.83501 0.14488 0.03700
H 	H 	0.16485 0.27326 0.63763 0.04400
H 	H 	0.91188 0.25172 0.85128 0.04200
H 	H 	0.17958 0.42609 0.76930 0.04400
H 	H 	0.62486 0.97819 0.10873 0.04600
H 	H 	0.76267 0.47778 0.61043 0.04300
C 	C 	0.96885 0.85529 0.19890 -0.02000
C 	C 	0.24956 0.98381 0.43258 -0.00400
C 	C 	0.52631 0.03998 0.01662 0.01000
C 	C 	0.52427 0.39842 0.85372 0.25900
C 	C 	0.25415 0.57893 0.10422 -0.00300
C 	C 	0.25773 0.52249 0.05254 -0.04400
C 	C 	0.38082 0.62774 0.11672 -0.04900
C 	C 	0.25903 0.96065 0.04995 -0.00600
C 	C 	0.52439 0.21318 0.65396 0.25900
C 	C 	0.38280 0.55042 0.52836 0.00900
C 	C 	0.52203 0.98836 0.07468 -0.02000
C 	C 	0.94051 0.24080 0.79348 -0.02700
C 	C 	0.38548 0.89370 0.15150 0.26100
C 	C 	0.39013 0.94923 0.09129 -0.04800
C 	C 	0.38260 0.07498 0.51049 0.01000
C 	C 	0.79944 0.85894 0.20181 -0.03500
C 	C 	0.24842 0.62640 0.44082 -0.00400
C 	C 	0.26011 0.00977 0.99226 -0.04300
C 	C 	0.52893 0.14292 0.90097 -0.04700
C 	C 	0.51509 0.00830 0.41566 -0.01700
C 	C 	0.39892 0.10142 0.91533 -0.02000
C 	C 	0.39342 0.05029 0.97379 0.01000
C 	C 	0.38333 0.96934 0.39622 -0.04900
C 	C 	0.38540 0.65094 0.41099 -0.04800
C 	C 	0.96166 0.72190 0.23800 -0.01900
C 	C 	0.65409 0.14767 0.55394 -0.00200
C 	C 	0.79215 0.72424 0.23237 -0.03600
C 	C 	0.51510 0.56322 0.02328 0.00900
C 	C 	0.11748 0.37360 0.79040 -0.03900
C 	C 	0.38467 0.70793 0.35255 0.25800
C 	C 	0.10796 0.23550 0.78354 -0.04000
C 	C 	0.52119 0.16080 0.59148 -0.04800
C 	C 	0.52854 0.20138 0.84346 0.25800
C 	C 	0.65918 0.13379 0.94401 -0.00300
C 	C 	0.38412 0.90949 0.33998 0.25900
C 	C 	0.64412 0.55667 0.98047 -0.04300
C 	C 	0.51759 0.06167 0.47240 0.01000
C 	C 	0.65849 0.08314 0.00042 -0.04400
C 	C 	0.93654 0.29852 0.67668 -0.03000
C 	C 	0.50918 0.61890 0.07767 -0.01900
C 	C 	0.51983 0.62450 0.43802 -0.01900
C 	C 	0.24871 0.03509 0.48857 -0.04400
C 	C 	0.38692 0.12631 0.56893 -0.01800
C 	C 	0.24648 0.57731 0.49834 -0.04400
C 	C 	0.80340 0.81827 0.32702 -0.03700
C 	C 	0.52024 0.47447 0.61472 -0.04700
C 	C 	0.37777 0.69200 0.16885 0.26300
C 	C 	0.65697 0.50001 0.58555 -0.00300
C 	C 	0.10474 0.31338 0.67478 -0.03500
C 	C 	0.94835 0.37874 0.78365 -0.02900
C 	C 	0.39311 0.45882 0.95498 -0.01900
C 	C 	0.38548 0.49952 0.58688 -0.01900
C 	C 	0.65218 0.10056 0.49477 -0.04300
C 	C 	0.52270 0.41302 0.66890 0.25700
C 	C 	0.64499 0.50347 0.92619 -0.00400
C 	C 	0.38713 0.51392 0.01027 0.00900
C 	C 	0.97336 0.82340 0.32524 -0.02100
C 	C 	0.52184 0.57437 0.49713 0.01000
C 	C 	0.51921 0.45426 0.91346 -0.04800
C 	C 	0.65824 0.54762 0.52705 -0.04400
N 	N 	0.02589 0.79996 0.25320 -0.17900
N 	N 	0.74025 0.80141 0.25384 -0.16700
N 	N 	0.16884 0.30628 0.74905 -0.16800
N 	N 	0.88318 0.30686 0.75171 -0.17200
O 	O 	0.51082 0.87744 0.33006 -0.40400
O 	O 	0.25854 0.73936 0.33758 -0.40400
O 	O 	0.25196 0.70630 0.19764 -0.40200
O 	O 	0.51126 0.72190 0.32217 -0.40200
O 	O 	0.39812 0.24354 0.66905 -0.40800
O 	O 	0.50936 0.88551 0.18700 -0.40700
O 	O 	0.40405 0.35734 0.84201 -0.40800
O 	O 	0.65062 0.22448 0.68735 -0.40100
O 	O 	0.64840 0.37828 0.67626 -0.40300
O 	O 	0.40029 0.39762 0.70217 -0.40300
O 	O 	0.26004 0.85842 0.16347 -0.40200
O 	O 	0.50271 0.72941 0.17939 -0.41000
O 	O 	0.65092 0.24130 0.83567 -0.40700
O 	O 	0.64695 0.39582 0.81857 -0.39900
O 	O 	0.25884 0.89288 0.30734 -0.40600
O 	O 	0.40516 0.20875 0.80738 -0.39900
