data_crystal

_cell_length_a 8.98600
_cell_length_b 14.91500
_cell_length_c 26.75900
_cell_angle_alpha 96.27200
_cell_angle_beta  90.00000
_cell_angle_gamma 90.00000

_symmetry_space_group_name_	'P 1'
_symmetry_space_group_name_H-M	'P 1'

loop_
_symmetry_equiv_pos_as_xyz
  x,y,z

loop_
_atom_site_label
_atom_site_type_symbol
_atom_site_fract_x
_atom_site_fract_y
_atom_site_fract_z
_atom_site_charge
Cd	Cd	0.81224 0.55884 0.85852 1.22100
Cd	Cd	0.68776 0.05884 0.35852 1.22100
H 	H 	0.40210 0.68230 0.97500 0.04300
H 	H 	0.25750 0.79820 0.01250 0.06700
H 	H 	0.46520 0.97090 0.93080 0.06300
H 	H 	0.60840 0.85380 0.89320 0.04100
H 	H 	0.23160 0.92160 0.06820 0.07300
H 	H 	0.03190 0.16160 0.06580 0.07000
H 	H 	0.25560 0.05120 0.94470 0.07200
H 	H 	0.22970 0.97120 0.15640 0.06700
H 	H 	0.12520 0.96490 0.23450 0.03800
H 	H 	0.75870 0.08680 0.19070 0.03700
H 	H 	0.86320 0.09590 0.11330 0.06600
H 	H 	0.09150 0.29100 0.03550 0.05200
H 	H 	0.07680 0.13160 0.90490 0.07000
H 	H 	0.99700 0.40880 0.99590 0.05200
H 	H 	0.98220 0.24910 0.86550 0.04100
H 	H 	0.09790 0.18230 0.47500 0.04500
H 	H 	0.24250 0.29820 0.51250 0.06800
H 	H 	0.03480 0.47090 0.43080 0.06300
H 	H 	0.89160 0.35380 0.39320 0.04200
H 	H 	0.26840 0.42160 0.56820 0.07400
H 	H 	0.46810 0.66160 0.56580 0.07100
H 	H 	0.24440 0.55120 0.44470 0.07400
H 	H 	0.27030 0.47120 0.65640 0.06600
H 	H 	0.37480 0.46490 0.73450 0.03800
H 	H 	0.74130 0.58680 0.69070 0.03700
H 	H 	0.63680 0.59590 0.61330 0.06600
H 	H 	0.40850 0.79100 0.53550 0.04800
H 	H 	0.42320 0.63160 0.40490 0.06600
H 	H 	0.50300 0.90880 0.49590 0.05600
H 	H 	0.51780 0.74910 0.36550 0.04600
C 	C 	0.52170 0.75625 0.93096 -0.08300
C 	C 	0.41550 0.74050 0.96630 0.01700
C 	C 	0.32880 0.81007 0.98891 -0.09600
C 	C 	0.34750 0.89783 0.97659 0.02700
C 	C 	0.45270 0.91307 0.94008 -0.09100
C 	C 	0.53880 0.84281 0.91749 0.01600
C 	C 	0.25780 0.97399 0.00241 0.05200
C 	C 	0.20770 0.97096 0.05124 -0.11800
C 	C 	0.12150 0.04101 0.07548 0.05000
C 	C 	0.08850 0.11470 0.04992 -0.11100
C 	C 	0.13820 0.12004 0.00100 0.05300
C 	C 	0.22250 0.04881 0.97744 -0.11300
C 	C 	0.05860 0.03560 0.12614 0.03400
C 	C 	0.13550 0.99531 0.16320 -0.10000
C 	C 	0.07220 0.99106 0.21003 0.02400
C 	C 	0.93110 0.02519 0.22095 -0.09300
C 	C 	0.85390 0.06405 0.18402 0.02500
C 	C 	0.91660 0.06933 0.13760 -0.10400
C 	C 	0.09130 0.19759 0.97470 0.03200
C 	C 	0.06860 0.28204 0.00142 -0.08400
C 	C 	0.05970 0.18702 0.92351 -0.09700
C 	C 	0.01200 0.35287 0.97757 0.01300
C 	C 	0.97780 0.34116 0.92684 -0.08800
C 	C 	0.00320 0.25757 0.89968 0.02400
C 	C 	0.91820 0.41715 0.90130 0.31400
C 	C 	0.86100 0.02379 0.27209 0.32800
C 	C 	0.61990 0.68200 0.90704 0.30500
C 	C 	0.97830 0.25625 0.43096 -0.08300
C 	C 	0.08450 0.24050 0.46630 0.01700
C 	C 	0.17120 0.31007 0.48891 -0.09400
C 	C 	0.15250 0.39783 0.47659 0.02700
C 	C 	0.04730 0.41307 0.44008 -0.09100
C 	C 	0.96120 0.34281 0.41749 0.01600
C 	C 	0.24220 0.47399 0.50241 0.05500
C 	C 	0.29230 0.47096 0.55124 -0.12000
C 	C 	0.37850 0.54101 0.57548 0.05200
C 	C 	0.41150 0.61470 0.54992 -0.11500
C 	C 	0.36180 0.62004 0.50100 0.05900
C 	C 	0.27750 0.54881 0.47744 -0.11900
C 	C 	0.44140 0.53560 0.62614 0.03200
C 	C 	0.36450 0.49531 0.66320 -0.09800
C 	C 	0.42780 0.49106 0.71003 0.02400
C 	C 	0.56890 0.52519 0.72095 -0.09300
C 	C 	0.64610 0.56405 0.68402 0.02400
C 	C 	0.58340 0.56933 0.63760 -0.10200
C 	C 	0.40870 0.69759 0.47470 0.02200
C 	C 	0.43140 0.78204 0.50142 -0.07400
C 	C 	0.44030 0.68702 0.42351 -0.08700
C 	C 	0.48800 0.85287 0.47757 0.00200
C 	C 	0.52220 0.84116 0.42684 -0.07900
C 	C 	0.49680 0.75757 0.39968 0.01200
C 	C 	0.58180 0.91715 0.40130 0.31100
C 	C 	0.63900 0.52379 0.77209 0.33000
C 	C 	0.88010 0.18200 0.40704 0.30500
O 	O 	0.72140 0.70072 0.87832 -0.40000
O 	O 	0.59700 0.60182 0.91719 -0.32700
O 	O 	0.93190 0.99582 0.30637 -0.31800
O 	O 	0.73030 0.05406 0.27693 -0.41100
O 	O 	0.88360 0.40498 0.85615 -0.37000
O 	O 	0.90370 0.49342 0.92625 -0.38700
O 	O 	0.77860 0.20072 0.37832 -0.40000
O 	O 	0.90300 0.10182 0.41719 -0.32700
O 	O 	0.56810 0.49582 0.80637 -0.32000
O 	O 	0.76970 0.55406 0.77693 -0.41200
O 	O 	0.61640 0.90498 0.35615 -0.36800
O 	O 	0.59630 0.99342 0.42625 -0.38600
Cd	Cd	0.31224 0.94116 0.64148 1.22200
Cd	Cd	0.18776 0.44116 0.14149 1.22200
H 	H 	0.90210 0.81770 0.52500 0.04500
H 	H 	0.75750 0.70180 0.48750 0.06800
H 	H 	0.96520 0.52910 0.56920 0.06300
H 	H 	0.10840 0.64620 0.60680 0.04200
H 	H 	0.73160 0.57840 0.43180 0.07400
H 	H 	0.53190 0.33840 0.43420 0.07100
H 	H 	0.75560 0.44880 0.55530 0.07400
H 	H 	0.72970 0.52880 0.34360 0.06600
H 	H 	0.62520 0.53510 0.26550 0.03800
H 	H 	0.25870 0.41320 0.30930 0.03700
H 	H 	0.36320 0.40410 0.38670 0.06600
H 	H 	0.59150 0.20900 0.46450 0.04800
H 	H 	0.57680 0.36840 0.59510 0.06600
H 	H 	0.49700 0.09120 0.50410 0.05600
H 	H 	0.48220 0.25090 0.63450 0.04600
H 	H 	0.59790 0.31770 0.02500 0.04400
H 	H 	0.74250 0.20180 0.98750 0.06800
H 	H 	0.53480 0.02910 0.06920 0.06400
H 	H 	0.39160 0.14620 0.10680 0.04200
H 	H 	0.76840 0.07840 0.93180 0.07300
H 	H 	0.96810 0.83840 0.93420 0.07000
H 	H 	0.74440 0.94880 0.05530 0.07200
H 	H 	0.77030 0.02880 0.84360 0.06700
H 	H 	0.87480 0.03510 0.76550 0.03800
H 	H 	0.24130 0.91320 0.80930 0.03700
H 	H 	0.13680 0.90410 0.88670 0.06600
H 	H 	0.90850 0.70900 0.96450 0.05200
H 	H 	0.92320 0.86840 0.09510 0.07000
H 	H 	0.00300 0.59120 0.00410 0.05200
H 	H 	0.01780 0.75090 0.13450 0.04100
C 	C 	0.02170 0.74375 0.56904 -0.08300
C 	C 	0.91550 0.75950 0.53370 0.01700
C 	C 	0.82880 0.68993 0.51109 -0.09400
C 	C 	0.84750 0.60217 0.52341 0.02700
C 	C 	0.95270 0.58693 0.55992 -0.09100
C 	C 	0.03880 0.65719 0.58251 0.01600
C 	C 	0.75780 0.52601 0.49759 0.05500
C 	C 	0.70770 0.52904 0.44876 -0.12000
C 	C 	0.62150 0.45899 0.42452 0.05200
C 	C 	0.58850 0.38530 0.45008 -0.11500
C 	C 	0.63820 0.37996 0.49900 0.05900
C 	C 	0.72250 0.45119 0.52256 -0.11900
C 	C 	0.55860 0.46440 0.37386 0.03200
C 	C 	0.63550 0.50469 0.33680 -0.09800
C 	C 	0.57220 0.50894 0.28997 0.02400
C 	C 	0.43110 0.47481 0.27905 -0.09300
C 	C 	0.35390 0.43595 0.31598 0.02400
C 	C 	0.41660 0.43067 0.36240 -0.10200
C 	C 	0.59130 0.30241 0.52530 0.02200
C 	C 	0.56860 0.21796 0.49858 -0.07400
C 	C 	0.55970 0.31298 0.57649 -0.08700
C 	C 	0.51200 0.14713 0.52243 0.00200
C 	C 	0.47780 0.15884 0.57316 -0.07900
C 	C 	0.50320 0.24243 0.60032 0.01200
C 	C 	0.41820 0.08285 0.59870 0.31100
C 	C 	0.36100 0.47621 0.22791 0.33000
C 	C 	0.11990 0.81800 0.59296 0.30500
C 	C 	0.47830 0.24375 0.06904 -0.08300
C 	C 	0.58450 0.25950 0.03370 0.01700
C 	C 	0.67120 0.18993 0.01109 -0.09600
C 	C 	0.65250 0.10217 0.02341 0.02700
C 	C 	0.54730 0.08693 0.05992 -0.09100
C 	C 	0.46120 0.15719 0.08251 0.01600
C 	C 	0.74220 0.02601 0.99759 0.05200
C 	C 	0.79230 0.02904 0.94876 -0.11800
C 	C 	0.87850 0.95899 0.92452 0.05000
C 	C 	0.91150 0.88530 0.95008 -0.11100
C 	C 	0.86180 0.87996 0.99900 0.05300
C 	C 	0.77750 0.95119 0.02256 -0.11300
C 	C 	0.94140 0.96440 0.87386 0.03400
C 	C 	0.86450 0.00469 0.83680 -0.10000
C 	C 	0.92780 0.00894 0.78997 0.02400
C 	C 	0.06890 0.97481 0.77905 -0.09300
C 	C 	0.14610 0.93595 0.81598 0.02500
C 	C 	0.08340 0.93067 0.86240 -0.10400
C 	C 	0.90870 0.80241 0.02530 0.03200
C 	C 	0.93140 0.71796 0.99858 -0.08400
C 	C 	0.94030 0.81298 0.07649 -0.09700
C 	C 	0.98800 0.64713 0.02243 0.01300
C 	C 	0.02220 0.65884 0.07316 -0.08800
C 	C 	0.99680 0.74243 0.10032 0.02400
C 	C 	0.08180 0.58285 0.09870 0.31400
C 	C 	0.13900 0.97621 0.72791 0.32800
C 	C 	0.38010 0.31800 0.09296 0.30500
O 	O 	0.22140 0.79928 0.62168 -0.40000
O 	O 	0.09700 0.89818 0.58281 -0.32700
O 	O 	0.43190 0.50418 0.19363 -0.32000
O 	O 	0.23030 0.44594 0.22307 -0.41200
O 	O 	0.38360 0.09502 0.64385 -0.36800
O 	O 	0.40370 0.00658 0.57375 -0.38600
O 	O 	0.27860 0.29928 0.12168 -0.40000
O 	O 	0.40300 0.39818 0.08281 -0.32700
O 	O 	0.06810 0.00418 0.69363 -0.31800
O 	O 	0.26970 0.94594 0.72307 -0.41100
O 	O 	0.11640 0.59502 0.14385 -0.37000
O 	O 	0.09630 0.50658 0.07375 -0.38700
