data_crystal

_cell_length_a 16.16300
_cell_length_b 9.91200
_cell_length_c 27.81600
_cell_angle_alpha 90.00000
_cell_angle_beta  98.80900
_cell_angle_gamma 90.00000

_symmetry_space_group_name_	'P 1'
_symmetry_space_group_name_H-M	'P 1'

loop_
_symmetry_equiv_pos_as_xyz
  x,y,z

loop_
_atom_site_label
_atom_site_type_symbol
_atom_site_fract_x
_atom_site_fract_y
_atom_site_fract_z
_atom_site_charge
Ba	Ba	0.20620 0.62060 0.77030 2.06900
Ba	Ba	0.96130 0.84390 0.82010 1.90000
Na	Na	0.81400 0.81040 0.55820 0.58200
Co	Co	0.06500 0.00930 0.69150 1.23400
Co	Co	0.09880 0.45520 0.89690 1.22300
O 	O 	0.27980 0.83520 0.71880 -0.36700
O 	O 	0.14300 0.86860 0.71510 -0.50200
O 	O 	0.95820 0.78320 0.58430 -0.34700
O 	O 	0.98840 0.88780 0.65620 -0.45500
O 	O 	0.86400 0.05190 0.75040 -0.52100
O 	O 	0.99530 0.00670 0.74130 -0.55900
O 	O 	0.16820 0.35170 0.74010 -0.40900
O 	O 	0.14270 0.13320 0.72560 -0.42600
O 	O 	0.88430 0.63350 0.87080 -0.37600
O 	O 	0.01930 0.59100 0.87150 -0.49900
O 	O 	0.19830 0.70250 0.99940 -0.31500
O 	O 	0.17290 0.58280 0.93090 -0.43300
O 	O 	0.30280 0.41510 0.84050 -0.53200
O 	O 	0.17000 0.45500 0.84730 -0.55700
O 	O 	0.00300 0.10780 0.84850 -0.42200
O 	O 	0.02410 0.32700 0.86340 -0.42200
N 	N 	0.12300 0.01120 0.63580 -0.20300
N 	N 	0.99990 0.16540 0.66780 -0.21900
N 	N 	0.04030 0.45570 0.95260 -0.19400
N 	N 	0.16610 0.30310 0.92280 -0.19600
C 	C 	0.10360 0.14650 0.61240 0.01400
C 	C 	0.01120 0.17640 0.61480 0.03300
C 	C 	0.21290 0.98410 0.65630 -0.04200
C 	C 	0.21410 0.88930 0.69960 0.31100
C 	C 	0.08890 0.89900 0.60200 -0.04700
C 	C 	0.00500 0.85220 0.61320 0.36900
C 	C 	0.91240 0.13580 0.67750 -0.06500
C 	C 	0.92150 0.06150 0.72660 0.37500
C 	C 	0.03490 0.28650 0.69630 -0.04700
C 	C 	0.12220 0.25980 0.72260 0.36500
C 	C 	0.06020 0.32080 0.97680 0.02500
C 	C 	0.15380 0.29500 0.97540 0.01800
C 	C 	0.95080 0.47920 0.93180 -0.07200
C 	C 	0.94950 0.57470 0.88820 0.27300
C 	C 	0.07320 0.56890 0.98550 -0.03700
C 	C 	0.15410 0.62310 0.97220 0.31000
C 	C 	0.25260 0.33510 0.91360 -0.08100
C 	C 	0.24360 0.40500 0.86320 0.37300
C 	C 	0.13400 0.17840 0.89540 -0.08300
C 	C 	0.04700 0.20110 0.86700 0.35800
Cl	Cl	0.18270 0.52290 0.62390 -0.15400
O 	O 	0.18970 0.59250 0.66880 -0.18500
O 	O 	0.10370 0.46130 0.61090 -0.04200
O 	O 	0.19610 0.61780 0.58620 -0.05200
O 	O 	0.24630 0.41690 0.62770 -0.11600
O 	O 	0.14030 0.81950 0.83360 -0.42100
O 	O 	0.02630 0.63870 0.75660 -0.39300
Ba	Ba	0.70620 0.12060 0.77030 2.06000
Ba	Ba	0.46130 0.34390 0.82010 1.96000
Na	Na	0.31400 0.31040 0.55820 0.58300
Co	Co	0.56500 0.50930 0.69150 1.22400
Co	Co	0.59880 0.95520 0.89690 1.22300
O 	O 	0.77980 0.33520 0.71880 -0.37100
O 	O 	0.64300 0.36860 0.71510 -0.50800
O 	O 	0.45820 0.28320 0.58430 -0.31200
O 	O 	0.48840 0.38780 0.65620 -0.42300
O 	O 	0.36400 0.55190 0.75040 -0.52100
O 	O 	0.49530 0.50670 0.74130 -0.54900
O 	O 	0.66820 0.85170 0.74010 -0.40900
O 	O 	0.64270 0.63320 0.72560 -0.43000
O 	O 	0.38430 0.13350 0.87080 -0.38200
O 	O 	0.51930 0.09100 0.87150 -0.52500
O 	O 	0.69830 0.20250 0.99940 -0.31800
O 	O 	0.67290 0.08280 0.93090 -0.43400
O 	O 	0.80280 0.91510 0.84050 -0.52900
O 	O 	0.67000 0.95500 0.84730 -0.55700
O 	O 	0.50300 0.60780 0.84850 -0.44100
O 	O 	0.52410 0.82700 0.86340 -0.43100
N 	N 	0.62300 0.51120 0.63580 -0.20400
N 	N 	0.49990 0.66540 0.66780 -0.19800
N 	N 	0.54030 0.95570 0.95260 -0.20200
N 	N 	0.66610 0.80310 0.92280 -0.19500
C 	C 	0.60360 0.64650 0.61240 0.01600
C 	C 	0.51120 0.67640 0.61480 0.01300
C 	C 	0.71290 0.48410 0.65630 -0.04700
C 	C 	0.71410 0.38930 0.69960 0.31300
C 	C 	0.58890 0.39900 0.60200 -0.04100
C 	C 	0.50500 0.35220 0.61320 0.31300
C 	C 	0.41240 0.63580 0.67750 -0.05800
C 	C 	0.42150 0.56150 0.72660 0.37500
C 	C 	0.53490 0.78650 0.69630 -0.06700
C 	C 	0.62220 0.75980 0.72260 0.36800
C 	C 	0.56020 0.82080 0.97680 0.01600
C 	C 	0.65380 0.79500 0.97540 0.01600
C 	C 	0.45080 0.97920 0.93180 -0.05600
C 	C 	0.44950 0.07470 0.88820 0.30100
C 	C 	0.57320 0.06890 0.98550 -0.04400
C 	C 	0.65410 0.12310 0.97220 0.31100
C 	C 	0.75260 0.83510 0.91360 -0.08400
C 	C 	0.74360 0.90500 0.86320 0.37200
C 	C 	0.63400 0.67840 0.89540 -0.08800
C 	C 	0.54700 0.70110 0.86700 0.36200
Cl	Cl	0.68270 0.02290 0.62390 -0.15600
O 	O 	0.68970 0.09250 0.66880 -0.18600
O 	O 	0.60370 0.96130 0.61090 -0.04500
O 	O 	0.69610 0.11780 0.58620 -0.05500
O 	O 	0.74630 0.91690 0.62770 -0.11600
O 	O 	0.64030 0.31950 0.83360 -0.43000
O 	O 	0.52630 0.13870 0.75660 -0.40800
Ba	Ba	0.20620 0.37940 0.27030 2.06800
Ba	Ba	0.96130 0.15610 0.32010 1.90100
Na	Na	0.81400 0.18960 0.05820 0.58100
Co	Co	0.06500 0.99070 0.19150 1.23300
Co	Co	0.09880 0.54480 0.39690 1.22400
O 	O 	0.27980 0.16480 0.21880 -0.36800
O 	O 	0.14300 0.13140 0.21510 -0.50300
O 	O 	0.95820 0.21680 0.08430 -0.34900
O 	O 	0.98840 0.11220 0.15620 -0.45400
O 	O 	0.86400 0.94810 0.25040 -0.52100
O 	O 	0.99530 0.99330 0.24130 -0.55800
O 	O 	0.16820 0.64830 0.24010 -0.40900
O 	O 	0.14270 0.86680 0.22560 -0.42600
O 	O 	0.88430 0.36650 0.37080 -0.37700
O 	O 	0.01930 0.40900 0.37150 -0.50000
O 	O 	0.19830 0.29750 0.49940 -0.32000
O 	O 	0.17290 0.41720 0.43090 -0.43400
O 	O 	0.30280 0.58490 0.34050 -0.53200
O 	O 	0.17000 0.54500 0.34730 -0.55700
O 	O 	0.00300 0.89220 0.34850 -0.42300
O 	O 	0.02410 0.67300 0.36340 -0.42200
N 	N 	0.12300 0.98880 0.13580 -0.20200
N 	N 	0.99990 0.83460 0.16780 -0.21800
N 	N 	0.04030 0.54430 0.45260 -0.19400
N 	N 	0.16610 0.69690 0.42280 -0.19500
C 	C 	0.10360 0.85350 0.11240 0.01200
C 	C 	0.01120 0.82360 0.11480 0.03000
C 	C 	0.21290 0.01590 0.15630 -0.04400
C 	C 	0.21410 0.11070 0.19960 0.31100
C 	C 	0.08890 0.10100 0.10200 -0.05000
C 	C 	0.00500 0.14780 0.11320 0.36700
C 	C 	0.91240 0.86420 0.17750 -0.06500
C 	C 	0.92150 0.93850 0.22660 0.37500
C 	C 	0.03490 0.71350 0.19630 -0.04800
C 	C 	0.12220 0.74020 0.22260 0.36500
C 	C 	0.06020 0.67920 0.47680 0.02100
C 	C 	0.15380 0.70500 0.47540 0.01400
C 	C 	0.95080 0.52080 0.43180 -0.07300
C 	C 	0.94950 0.42530 0.38820 0.27500
C 	C 	0.07320 0.43110 0.48550 -0.04200
C 	C 	0.15410 0.37690 0.47220 0.31100
C 	C 	0.25260 0.66490 0.41360 -0.08300
C 	C 	0.24360 0.59500 0.36320 0.37300
C 	C 	0.13400 0.82160 0.39540 -0.08400
C 	C 	0.04700 0.79890 0.36700 0.35800
Cl	Cl	0.18270 0.47710 0.12390 -0.15300
O 	O 	0.18970 0.40750 0.16880 -0.18600
O 	O 	0.10370 0.53870 0.11090 -0.04500
O 	O 	0.19610 0.38220 0.08620 -0.05600
O 	O 	0.24630 0.58310 0.12770 -0.11800
O 	O 	0.14030 0.18050 0.33360 -0.42200
O 	O 	0.02630 0.36130 0.25660 -0.39400
Ba	Ba	0.70620 0.87940 0.27030 2.06000
Ba	Ba	0.46130 0.65610 0.32010 1.95900
Na	Na	0.31400 0.68960 0.05820 0.58200
Co	Co	0.56500 0.49070 0.19150 1.22400
Co	Co	0.59880 0.04480 0.39690 1.22300
O 	O 	0.77980 0.66480 0.21880 -0.37200
O 	O 	0.64300 0.63140 0.21510 -0.50800
O 	O 	0.45820 0.71680 0.08430 -0.31600
O 	O 	0.48840 0.61220 0.15620 -0.42300
O 	O 	0.36400 0.44810 0.25040 -0.52100
O 	O 	0.49530 0.49330 0.24130 -0.54900
O 	O 	0.66820 0.14830 0.24010 -0.40900
O 	O 	0.64270 0.36680 0.22560 -0.43000
O 	O 	0.38430 0.86650 0.37080 -0.38200
O 	O 	0.51930 0.90900 0.37150 -0.52500
O 	O 	0.69830 0.79750 0.49940 -0.32300
O 	O 	0.67290 0.91720 0.43090 -0.43500
O 	O 	0.80280 0.08490 0.34050 -0.53000
O 	O 	0.67000 0.04500 0.34730 -0.55700
O 	O 	0.50300 0.39220 0.34850 -0.44200
O 	O 	0.52410 0.17300 0.36340 -0.43100
N 	N 	0.62300 0.48880 0.13580 -0.20300
N 	N 	0.49990 0.33460 0.16780 -0.19800
N 	N 	0.54030 0.04430 0.45260 -0.20200
N 	N 	0.66610 0.19690 0.42280 -0.19500
C 	C 	0.60360 0.35350 0.11240 0.01300
C 	C 	0.51120 0.32360 0.11480 0.01100
C 	C 	0.71290 0.51590 0.15630 -0.04900
C 	C 	0.71410 0.61070 0.19960 0.31300
C 	C 	0.58890 0.60100 0.10200 -0.04400
C 	C 	0.50500 0.64780 0.11320 0.31400
C 	C 	0.41240 0.36420 0.17750 -0.05900
C 	C 	0.42150 0.43850 0.22660 0.37600
C 	C 	0.53490 0.21350 0.19630 -0.06700
C 	C 	0.62220 0.24020 0.22260 0.36900
C 	C 	0.56020 0.17920 0.47680 0.01200
C 	C 	0.65380 0.20500 0.47540 0.01300
C 	C 	0.45080 0.02080 0.43180 -0.05800
C 	C 	0.44950 0.92530 0.38820 0.30100
C 	C 	0.57320 0.93110 0.48550 -0.04900
C 	C 	0.65410 0.87690 0.47220 0.31100
C 	C 	0.75260 0.16490 0.41360 -0.08600
C 	C 	0.74360 0.09500 0.36320 0.37200
C 	C 	0.63400 0.32160 0.39540 -0.08900
C 	C 	0.54700 0.29890 0.36700 0.36200
Cl	Cl	0.68270 0.97710 0.12390 -0.15500
O 	O 	0.68970 0.90750 0.16880 -0.18600
O 	O 	0.60370 0.03870 0.11090 -0.04700
O 	O 	0.69610 0.88220 0.08620 -0.05900
O 	O 	0.74630 0.08310 0.12770 -0.11800
O 	O 	0.64030 0.68050 0.33360 -0.43100
O 	O 	0.52630 0.86130 0.25660 -0.40800
