data_crystal

_cell_length_a 5.36670
_cell_length_b 22.22800
_cell_length_c 8.89520
_cell_angle_alpha 90.00000
_cell_angle_beta  98.70720
_cell_angle_gamma 90.00000

_symmetry_space_group_name_	'P 1'
_symmetry_space_group_name_H-M	'P 1'

loop_
_symmetry_equiv_pos_as_xyz
  x,y,z

loop_
_atom_site_label
_atom_site_type_symbol
_atom_site_fract_x
_atom_site_fract_y
_atom_site_fract_z
_atom_site_charge
N 	N 	0.27520 0.81195 0.37110 -0.27300
N 	N 	0.17510 0.91104 0.12370 -0.26100
C 	C 	0.45820 0.79437 0.43820 0.11500
C 	C 	0.69220 0.77374 0.52330 -0.16000
H 	H 	0.76360 0.79430 0.61330 0.07900
C 	C 	0.27250 0.95450 0.08840 0.14600
C 	C 	0.41280 0.00440 0.04240 -0.01100
H 	H 	0.37830 0.04400 0.07380 0.02800
C 	C 	0.31730 0.93490 0.05650 -0.06100
C 	C 	0.48610 0.97070 0.98440 -0.10500
H 	H 	0.57930 0.95270 0.91360 0.01300
N 	N 	0.77520 0.31195 0.37110 -0.27400
N 	N 	0.67510 0.41104 0.12370 -0.23300
C 	C 	0.95820 0.29437 0.43820 0.17500
C 	C 	0.19220 0.27374 0.52330 -0.20400
H 	H 	0.26360 0.29430 0.61330 0.07600
C 	C 	0.77250 0.45450 0.08840 0.08600
C 	C 	0.91280 0.50440 0.04240 0.06800
H 	H 	0.87830 0.54400 0.07380 0.07000
C 	C 	0.81730 0.43490 0.05650 -0.04200
C 	C 	0.98610 0.47070 0.98440 0.02800
H 	H 	0.07930 0.45270 0.91360 0.02300
N 	N 	0.72480 0.81195 0.12890 -0.24600
N 	N 	0.82490 0.91104 0.37630 -0.22900
C 	C 	0.54180 0.79437 0.06180 0.11500
C 	C 	0.30780 0.77374 0.97670 -0.12900
H 	H 	0.23640 0.79430 0.88670 0.04600
C 	C 	0.72750 0.95450 0.41160 0.06300
C 	C 	0.58720 0.00440 0.45760 0.02000
H 	H 	0.62170 0.04400 0.42620 0.02700
C 	C 	0.68270 0.93490 0.44350 0.01800
C 	C 	0.51390 0.97070 0.51560 -0.08100
H 	H 	0.42070 0.95270 0.58640 0.00500
N 	N 	0.22480 0.31195 0.12890 -0.25400
N 	N 	0.32490 0.41104 0.37630 -0.26500
C 	C 	0.04180 0.29437 0.06180 0.05700
C 	C 	0.80780 0.27374 0.97670 -0.08700
H 	H 	0.73640 0.29430 0.88670 0.04900
C 	C 	0.22750 0.45450 0.41160 0.12100
C 	C 	0.08720 0.50440 0.45760 -0.06200
H 	H 	0.12170 0.54400 0.42620 -0.01800
C 	C 	0.18270 0.43490 0.44350 -0.00100
C 	C 	0.01390 0.47070 0.51560 -0.21500
H 	H 	0.92070 0.45270 0.58640 -0.00500
N 	N 	0.72480 0.18805 0.62890 -0.23900
N 	N 	0.82490 0.08896 0.87630 -0.22800
C 	C 	0.54180 0.20563 0.56180 0.08200
C 	C 	0.30780 0.22626 0.47670 -0.06400
H 	H 	0.23640 0.20570 0.38670 0.02700
C 	C 	0.72750 0.04550 0.91160 0.02900
C 	C 	0.58720 0.99560 0.95760 0.02000
H 	H 	0.62170 0.95600 0.92620 0.03400
C 	C 	0.68270 0.06510 0.94350 0.03600
C 	C 	0.51390 0.02930 0.01560 -0.05700
H 	H 	0.42070 0.04730 0.08640 0.00400
N 	N 	0.22480 0.68805 0.62890 -0.24700
N 	N 	0.32490 0.58896 0.87630 -0.26400
C 	C 	0.04180 0.70563 0.56180 0.02300
C 	C 	0.80780 0.72626 0.47670 -0.02100
H 	H 	0.73640 0.70570 0.38670 0.03100
C 	C 	0.22750 0.54550 0.91160 0.07200
C 	C 	0.08720 0.49560 0.95760 -0.07000
H 	H 	0.12170 0.45600 0.92620 -0.01200
C 	C 	0.18270 0.56510 0.94350 0.03200
C 	C 	0.01390 0.52930 0.01560 -0.18200
H 	H 	0.92070 0.54730 0.08640 -0.00500
N 	N 	0.27520 0.18805 0.87110 -0.26700
N 	N 	0.17510 0.08896 0.62370 -0.26000
C 	C 	0.45820 0.20563 0.93820 0.08200
C 	C 	0.69220 0.22626 0.02330 -0.09500
H 	H 	0.76360 0.20570 0.11330 0.06100
C 	C 	0.27250 0.04550 0.58840 0.10600
C 	C 	0.41280 0.99560 0.54240 -0.01700
H 	H 	0.37830 0.95600 0.57380 0.03300
C 	C 	0.31730 0.06510 0.55650 -0.03600
C 	C 	0.48610 0.02930 0.48440 -0.07500
H 	H 	0.57930 0.04730 0.41360 0.01300
N 	N 	0.77520 0.68805 0.87110 -0.26700
N 	N 	0.67510 0.58896 0.62370 -0.23200
C 	C 	0.95820 0.70563 0.93820 0.14100
C 	C 	0.19220 0.72626 0.02330 -0.13900
H 	H 	0.26360 0.70570 0.11330 0.05800
C 	C 	0.77250 0.54550 0.58840 0.05300
C 	C 	0.91280 0.49560 0.54240 0.06900
H 	H 	0.87830 0.45600 0.57380 0.07900
C 	C 	0.81730 0.56510 0.55650 -0.02400
C 	C 	0.98610 0.52930 0.48440 0.05300
H 	H 	0.07930 0.54730 0.41360 0.02100
Cu	Cu	0.00000 0.85688 0.25000 0.84800
Cu	Cu	0.50000 0.35688 0.25000 0.87000
Cu	Cu	0.00000 0.14312 0.75000 0.84500
Cu	Cu	0.50000 0.64312 0.75000 0.86700
