data_crystal

_cell_length_a 13.69900
_cell_length_b 21.59400
_cell_length_c 22.22000
_cell_angle_alpha 90.00000
_cell_angle_beta  90.00000
_cell_angle_gamma 90.00000

_symmetry_space_group_name_	'P 1'
_symmetry_space_group_name_H-M	'P 1'

loop_
_symmetry_equiv_pos_as_xyz
  x,y,z

loop_
_atom_site_label
_atom_site_type_symbol
_atom_site_fract_x
_atom_site_fract_y
_atom_site_fract_z
_atom_site_charge
Co	Co	0.22567 0.15281 0.86502 1.13100
Co	Co	0.26815 0.34595 0.63188 1.13300
Co	Co	0.27433 0.84719 0.36502 1.13100
Co	Co	0.23185 0.65405 0.13188 1.13300
Co	Co	0.77433 0.65281 0.63498 1.13100
Co	Co	0.73185 0.84595 0.86812 1.13300
Co	Co	0.72567 0.34719 0.13498 1.13100
Co	Co	0.76815 0.15405 0.36812 1.13300
H 	H 	0.42570 0.21100 0.83550 0.14000
H 	H 	0.71150 0.20760 0.10480 0.11900
H 	H 	0.03540 0.18180 0.79070 0.11300
H 	H 	0.77750 0.89900 0.74280 0.12500
H 	H 	0.07030 0.28820 0.66980 0.12000
H 	H 	0.80140 0.29540 0.39340 0.13600
H 	H 	0.54600 0.82110 0.79270 0.13300
H 	H 	0.29420 0.10490 0.73860 0.14200
H 	H 	0.59630 0.24090 0.83520 0.22100
H 	H 	0.61950 0.28440 0.88980 0.22000
H 	H 	0.65230 0.21480 0.89130 0.20900
H 	H 	0.25120 0.18520 0.00560 0.22900
H 	H 	0.34110 0.16350 0.04390 0.23200
H 	H 	0.31240 0.23370 0.04220 0.22900
H 	H 	0.50570 0.36890 0.08580 0.22900
H 	H 	0.48680 0.35940 0.01690 0.23500
H 	H 	0.41890 0.32720 0.06420 0.22500
H 	H 	0.70330 0.11610 0.04150 0.22600
H 	H 	0.59620 0.10200 0.02080 0.22200
H 	H 	0.66970 0.13340 0.97620 0.21500
H 	H 	0.21010 0.01160 0.83720 0.21800
H 	H 	0.12040 0.97350 0.86060 0.21100
H 	H 	0.15070 0.96970 0.79270 0.22300
H 	H 	0.86810 0.17940 0.76310 0.21100
H 	H 	0.83970 0.11830 0.72920 0.21100
H 	H 	0.81170 0.12680 0.79710 0.21000
H 	H 	0.91050 0.91770 0.92660 0.22100
H 	H 	0.00740 0.94710 0.90230 0.22000
H 	H 	0.92110 0.98990 0.92280 0.22700
H 	H 	0.80800 0.96740 0.66160 0.24500
H 	H 	0.82580 0.03520 0.68420 0.23600
H 	H 	0.91420 0.99450 0.66320 0.24300
H 	H 	0.90070 0.26610 0.67190 0.21900
H 	H 	0.84780 0.29410 0.61550 0.21300
H 	H 	0.86750 0.22260 0.61920 0.22100
H 	H 	0.24670 0.29470 0.50010 0.23900
H 	H 	0.18020 0.24620 0.46740 0.23900
H 	H 	0.15930 0.31720 0.46020 0.24300
H 	H 	0.97550 0.12110 0.42700 0.22300
H 	H 	0.06500 0.15790 0.45260 0.22300
H 	H 	0.98450 0.13270 0.49650 0.22800
H 	H 	0.82060 0.38790 0.45390 0.23600
H 	H 	0.84530 0.37180 0.52090 0.22500
H 	H 	0.92800 0.39440 0.47740 0.23600
H 	H 	0.70610 0.98920 0.86020 0.21900
H 	H 	0.65240 0.03460 0.81630 0.22800
H 	H 	0.61130 0.02360 0.88120 0.21500
H 	H 	0.38150 0.82520 0.75290 0.22600
H 	H 	0.31920 0.87680 0.78440 0.21900
H 	H 	0.36260 0.88830 0.72010 0.22000
H 	H 	0.37930 0.07470 0.93170 0.22400
H 	H 	0.39080 0.00290 0.92410 0.22500
H 	H 	0.48150 0.04640 0.91580 0.22300
H 	H 	0.35480 0.04430 0.65690 0.25800
H 	H 	0.46120 0.02120 0.66970 0.25600
H 	H 	0.37310 0.97530 0.67550 0.24700
H 	H 	0.07430 0.78900 0.33550 0.14000
H 	H 	0.78850 0.79240 0.60480 0.11900
H 	H 	0.46460 0.81820 0.29070 0.11300
H 	H 	0.72250 0.10100 0.24280 0.12500
H 	H 	0.42970 0.71180 0.16980 0.12000
H 	H 	0.69860 0.70460 0.89340 0.13600
H 	H 	0.95400 0.17890 0.29270 0.13300
H 	H 	0.20580 0.89510 0.23860 0.14200
H 	H 	0.90370 0.75910 0.33520 0.22000
H 	H 	0.88050 0.71560 0.38980 0.22000
H 	H 	0.84770 0.78520 0.39130 0.20800
H 	H 	0.24880 0.81480 0.50560 0.22900
H 	H 	0.15890 0.83650 0.54390 0.23200
H 	H 	0.18760 0.76630 0.54220 0.22800
H 	H 	0.99430 0.63110 0.58580 0.22800
H 	H 	0.01320 0.64060 0.51690 0.23400
H 	H 	0.08110 0.67280 0.56420 0.22400
H 	H 	0.79670 0.88390 0.54150 0.22500
H 	H 	0.90380 0.89800 0.52080 0.22100
H 	H 	0.83030 0.86660 0.47620 0.21400
H 	H 	0.28990 0.98840 0.33720 0.22000
H 	H 	0.37960 0.02650 0.36060 0.21300
H 	H 	0.34930 0.03030 0.29270 0.22500
H 	H 	0.63190 0.82060 0.26310 0.21100
H 	H 	0.66030 0.88170 0.22920 0.21100
H 	H 	0.68830 0.87320 0.29710 0.21000
H 	H 	0.58950 0.08230 0.42660 0.22000
H 	H 	0.49260 0.05290 0.40230 0.21800
H 	H 	0.57890 0.01010 0.42280 0.22600
H 	H 	0.69200 0.03260 0.16160 0.24400
H 	H 	0.67420 0.96480 0.18420 0.23400
H 	H 	0.58580 0.00550 0.16320 0.24100
H 	H 	0.59930 0.73390 0.17190 0.21900
H 	H 	0.65220 0.70590 0.11550 0.21300
H 	H 	0.63250 0.77740 0.11920 0.22100
H 	H 	0.25330 0.70530 0.00010 0.23900
H 	H 	0.31980 0.75380 0.96740 0.23900
H 	H 	0.34070 0.68280 0.96020 0.24400
H 	H 	0.52450 0.87890 0.92700 0.22300
H 	H 	0.43500 0.84210 0.95260 0.22300
H 	H 	0.51550 0.86730 0.99650 0.22800
H 	H 	0.67940 0.61210 0.95390 0.23600
H 	H 	0.65470 0.62820 0.02090 0.22400
H 	H 	0.57200 0.60560 0.97740 0.23600
H 	H 	0.79390 0.01080 0.36020 0.22200
H 	H 	0.84760 0.96540 0.31630 0.23000
H 	H 	0.88870 0.97640 0.38120 0.21700
H 	H 	0.11850 0.17480 0.25290 0.22600
H 	H 	0.18080 0.12320 0.28440 0.21900
H 	H 	0.13740 0.11170 0.22010 0.22100
H 	H 	0.12070 0.92530 0.43170 0.22400
H 	H 	0.10920 0.99710 0.42410 0.22500
H 	H 	0.01850 0.95360 0.41580 0.22300
H 	H 	0.14520 0.95570 0.15690 0.25700
H 	H 	0.03880 0.97880 0.16970 0.25600
H 	H 	0.12690 0.02470 0.17550 0.24600
H 	H 	0.57430 0.71100 0.66450 0.14000
H 	H 	0.28850 0.70760 0.39520 0.11900
H 	H 	0.96460 0.68180 0.70930 0.11300
H 	H 	0.22250 0.39900 0.75720 0.12500
H 	H 	0.92970 0.78820 0.83020 0.12000
H 	H 	0.19860 0.79540 0.10660 0.13600
H 	H 	0.45400 0.32110 0.70730 0.13300
H 	H 	0.70580 0.60490 0.76140 0.14200
H 	H 	0.40370 0.74090 0.66480 0.22100
H 	H 	0.38050 0.78440 0.61020 0.22000
H 	H 	0.34770 0.71480 0.60870 0.20900
H 	H 	0.74880 0.68520 0.49440 0.22900
H 	H 	0.65890 0.66350 0.45610 0.23200
H 	H 	0.68760 0.73370 0.45780 0.22800
H 	H 	0.49430 0.86890 0.41420 0.22900
H 	H 	0.51320 0.85940 0.48310 0.23500
H 	H 	0.58110 0.82720 0.43580 0.22500
H 	H 	0.29670 0.61610 0.45850 0.22500
H 	H 	0.40380 0.60200 0.47920 0.22200
H 	H 	0.33030 0.63340 0.52380 0.21400
H 	H 	0.78990 0.51160 0.66280 0.21900
H 	H 	0.87960 0.47350 0.63940 0.21200
H 	H 	0.84930 0.46970 0.70730 0.22400
H 	H 	0.13190 0.67940 0.73690 0.21200
H 	H 	0.16030 0.61830 0.77080 0.21200
H 	H 	0.18830 0.62680 0.70290 0.21100
H 	H 	0.08950 0.41770 0.57340 0.22000
H 	H 	0.99260 0.44710 0.59770 0.21800
H 	H 	0.07890 0.48990 0.57720 0.22600
H 	H 	0.19200 0.46740 0.83840 0.24400
H 	H 	0.17420 0.53520 0.81580 0.23400
H 	H 	0.08580 0.49450 0.83680 0.24200
H 	H 	0.09930 0.76610 0.82810 0.21900
H 	H 	0.15220 0.79410 0.88450 0.21400
H 	H 	0.13250 0.72260 0.88080 0.22100
H 	H 	0.75330 0.79470 0.99990 0.24000
H 	H 	0.81980 0.74620 0.03260 0.24000
H 	H 	0.84070 0.81720 0.03980 0.24400
H 	H 	0.02450 0.62110 0.07300 0.22200
H 	H 	0.93500 0.65790 0.04740 0.22100
H 	H 	0.01550 0.63270 0.00350 0.22700
H 	H 	0.17940 0.88790 0.04610 0.23600
H 	H 	0.15470 0.87180 0.97910 0.22400
H 	H 	0.07200 0.89440 0.02260 0.23600
H 	H 	0.29390 0.48920 0.63980 0.22000
H 	H 	0.34760 0.53460 0.68370 0.22900
H 	H 	0.38870 0.52360 0.61880 0.21600
H 	H 	0.61850 0.32520 0.74710 0.22600
H 	H 	0.68080 0.37680 0.71560 0.21900
H 	H 	0.63740 0.38830 0.77990 0.22000
H 	H 	0.62070 0.57470 0.56830 0.22400
H 	H 	0.60920 0.50290 0.57590 0.22500
H 	H 	0.51850 0.54640 0.58420 0.22300
H 	H 	0.64520 0.54430 0.84310 0.25800
H 	H 	0.53880 0.52120 0.83030 0.25600
H 	H 	0.62690 0.47530 0.82450 0.24700
H 	H 	0.92570 0.28900 0.16450 0.14000
H 	H 	0.21150 0.29240 0.89520 0.11900
H 	H 	0.53540 0.31820 0.20930 0.11300
H 	H 	0.27750 0.60100 0.25720 0.12500
H 	H 	0.57030 0.21180 0.33020 0.12000
H 	H 	0.30140 0.20460 0.60660 0.13600
H 	H 	0.04600 0.67890 0.20730 0.13400
H 	H 	0.79420 0.39510 0.26140 0.14200
H 	H 	0.09630 0.25910 0.16480 0.22200
H 	H 	0.11950 0.21560 0.11020 0.22100
H 	H 	0.15230 0.28520 0.10870 0.21000
H 	H 	0.75120 0.31480 0.99440 0.22900
H 	H 	0.84110 0.33650 0.95610 0.23200
H 	H 	0.81240 0.26630 0.95780 0.22800
H 	H 	0.00570 0.13110 0.91420 0.22700
H 	H 	0.98680 0.14060 0.98310 0.23400
H 	H 	0.91890 0.17280 0.93580 0.22300
H 	H 	0.20330 0.38390 0.95850 0.22500
H 	H 	0.09620 0.39800 0.97920 0.22100
H 	H 	0.16970 0.36660 0.02380 0.21400
H 	H 	0.71010 0.48840 0.16280 0.21900
H 	H 	0.62040 0.52650 0.13940 0.21200
H 	H 	0.65070 0.53030 0.20730 0.22400
H 	H 	0.36810 0.32060 0.23690 0.21100
H 	H 	0.33970 0.38170 0.27080 0.21100
H 	H 	0.31170 0.37320 0.20290 0.21000
H 	H 	0.41050 0.58230 0.07340 0.22000
H 	H 	0.50740 0.55290 0.09770 0.21900
H 	H 	0.42110 0.51010 0.07720 0.22600
H 	H 	0.30800 0.53260 0.33840 0.24400
H 	H 	0.32580 0.46480 0.31580 0.23400
H 	H 	0.41420 0.50550 0.33680 0.24200
H 	H 	0.40070 0.23390 0.32810 0.21900
H 	H 	0.34780 0.20590 0.38450 0.21300
H 	H 	0.36750 0.27740 0.38080 0.22100
H 	H 	0.74670 0.20530 0.49990 0.23900
H 	H 	0.68020 0.25380 0.53260 0.23900
H 	H 	0.65930 0.18280 0.53980 0.24300
H 	H 	0.47550 0.37890 0.57300 0.22300
H 	H 	0.56500 0.34210 0.54740 0.22400
H 	H 	0.48450 0.36730 0.50350 0.22800
H 	H 	0.32060 0.11210 0.54610 0.23600
H 	H 	0.34530 0.12820 0.47910 0.22500
H 	H 	0.42800 0.10560 0.52260 0.23600
H 	H 	0.20610 0.51080 0.13980 0.22100
H 	H 	0.15240 0.46540 0.18370 0.22900
H 	H 	0.11130 0.47640 0.11880 0.21700
H 	H 	0.88150 0.67480 0.24710 0.22500
H 	H 	0.81920 0.62320 0.21560 0.21900
H 	H 	0.86260 0.61170 0.27990 0.22000
H 	H 	0.87930 0.42530 0.06830 0.22300
H 	H 	0.89080 0.49710 0.07590 0.22500
H 	H 	0.98150 0.45360 0.08420 0.22300
H 	H 	0.85480 0.45570 0.34310 0.25700
H 	H 	0.96120 0.47880 0.33030 0.25600
H 	H 	0.87310 0.52470 0.32450 0.24700
C 	C 	0.38000 0.20540 0.96660 0.25200
C 	C 	0.48000 0.22180 0.96680 -0.15600
C 	C 	0.50680 0.22550 0.90680 0.25400
C 	C 	0.60240 0.24300 0.87820 -0.71200
C 	C 	0.31550 0.19610 0.01920 -0.75100
C 	C 	0.61810 0.19330 0.03940 0.24700
C 	C 	0.54460 0.23230 0.01920 -0.15700
C 	C 	0.55060 0.28450 0.05610 0.24600
C 	C 	0.48460 0.34000 0.05570 -0.73700
C 	C 	0.64970 0.13050 0.01750 -0.72000
C 	C 	0.95460 0.10710 0.78520 0.24900
C 	C 	0.98110 0.04730 0.79640 -0.15100
C 	C 	0.08030 0.04970 0.81310 0.23500
C 	C 	0.14630 0.99630 0.82720 -0.71100
C 	C 	0.86010 0.13540 0.76700 -0.70800
C 	C 	0.86440 0.97050 0.74570 0.27100
C 	C 	0.91920 0.99190 0.79440 -0.16200
C 	C 	0.89750 0.95030 0.84160 0.24600
C 	C 	0.93770 0.95140 0.90380 -0.73000
C 	C 	0.85200 0.99400 0.68310 -0.76700
C 	C 	0.11640 0.28360 0.54020 0.27000
C 	C 	0.01540 0.27150 0.53970 -0.17100
C 	C 	0.98830 0.27180 0.59910 0.26200
C 	C 	0.89260 0.26290 0.62910 -0.72600
C 	C 	0.18130 0.28560 0.48740 -0.78100
C 	C 	0.88860 0.30580 0.46280 0.26500
C 	C 	0.95210 0.26180 0.48700 -0.15500
C 	C 	0.94140 0.20880 0.45070 0.24300
C 	C 	0.99650 0.14990 0.45730 -0.73000
C 	C 	0.86890 0.37060 0.48030 -0.75600
C 	C 	0.46310 0.89490 0.78570 0.26000
C 	C 	0.48700 0.95560 0.80210 -0.14900
C 	C 	0.58310 0.95230 0.82470 0.23900
C 	C 	0.64360 0.00460 0.84760 -0.72300
C 	C 	0.37380 0.86900 0.75840 -0.73400
C 	C 	0.38290 0.03460 0.74580 0.28700
C 	C 	0.42360 0.01020 0.79760 -0.17100
C 	C 	0.38960 0.04840 0.84500 0.25000
C 	C 	0.41230 0.04260 0.90990 -0.74200
C 	C 	0.39400 0.01730 0.68120 -0.79700
C 	C 	0.27190 0.42940 0.51510 0.08100
C 	C 	0.17090 0.07390 0.98140 0.07100
C 	C 	0.12000 0.79460 0.46660 0.25100
C 	C 	0.02000 0.77820 0.46680 -0.15500
C 	C 	0.99320 0.77450 0.40680 0.25200
C 	C 	0.89760 0.75700 0.37820 -0.71000
C 	C 	0.18450 0.80390 0.51920 -0.75000
C 	C 	0.88190 0.80670 0.53940 0.24600
C 	C 	0.95540 0.76770 0.51920 -0.15700
C 	C 	0.94940 0.71550 0.55610 0.24500
C 	C 	0.01540 0.66000 0.55570 -0.73400
C 	C 	0.85030 0.86950 0.51750 -0.71600
C 	C 	0.54540 0.89290 0.28520 0.24900
C 	C 	0.51890 0.95270 0.29640 -0.15400
C 	C 	0.41970 0.95030 0.31310 0.23800
C 	C 	0.35370 0.00370 0.32720 -0.71700
C 	C 	0.63990 0.86460 0.26700 -0.70800
C 	C 	0.63560 0.02950 0.24570 0.26900
C 	C 	0.58080 0.00810 0.29440 -0.16000
C 	C 	0.60250 0.04970 0.34160 0.24400
C 	C 	0.56230 0.04860 0.40380 -0.72600
C 	C 	0.64800 0.00600 0.18310 -0.76200
C 	C 	0.38360 0.71640 0.04020 0.27000
C 	C 	0.48460 0.72850 0.03970 -0.17100
C 	C 	0.51170 0.72820 0.09910 0.26200
C 	C 	0.60740 0.73710 0.12910 -0.72600
C 	C 	0.31870 0.71440 0.98740 -0.78100
C 	C 	0.61140 0.69420 0.96280 0.26400
C 	C 	0.54790 0.73820 0.98700 -0.15500
C 	C 	0.55860 0.79120 0.95070 0.24300
C 	C 	0.50350 0.85010 0.95730 -0.73100
C 	C 	0.63110 0.62940 0.98030 -0.75400
C 	C 	0.03690 0.10510 0.28570 0.26000
C 	C 	0.01300 0.04440 0.30210 -0.15100
C 	C 	0.91690 0.04770 0.32470 0.24200
C 	C 	0.85640 0.99540 0.34760 -0.73100
C 	C 	0.12620 0.13100 0.25840 -0.73500
C 	C 	0.11710 0.96540 0.24580 0.28600
C 	C 	0.07640 0.98980 0.29760 -0.16900
C 	C 	0.11040 0.95160 0.34500 0.24900
C 	C 	0.08770 0.95740 0.40990 -0.74200
C 	C 	0.10600 0.98270 0.18120 -0.79400
C 	C 	0.22810 0.57060 0.01510 0.08100
C 	C 	0.32910 0.92610 0.48140 0.07100
C 	C 	0.62000 0.70540 0.53340 0.25200
C 	C 	0.52000 0.72180 0.53320 -0.15700
C 	C 	0.49320 0.72550 0.59320 0.25400
C 	C 	0.39760 0.74300 0.62180 -0.71200
C 	C 	0.68450 0.69610 0.48080 -0.75100
C 	C 	0.38190 0.69330 0.46060 0.24600
C 	C 	0.45540 0.73230 0.48080 -0.15600
C 	C 	0.44940 0.78450 0.44390 0.24500
C 	C 	0.51540 0.84000 0.44430 -0.73700
C 	C 	0.35030 0.63050 0.48250 -0.71700
C 	C 	0.04540 0.60710 0.71480 0.24900
C 	C 	0.01890 0.54730 0.70360 -0.15300
C 	C 	0.91970 0.54970 0.68690 0.23700
C 	C 	0.85370 0.49630 0.67280 -0.71500
C 	C 	0.13990 0.63540 0.73300 -0.70900
C 	C 	0.13560 0.47050 0.75430 0.26900
C 	C 	0.08080 0.49190 0.70560 -0.16000
C 	C 	0.10250 0.45030 0.65840 0.24500
C 	C 	0.06230 0.45140 0.59620 -0.72600
C 	C 	0.14800 0.49400 0.81690 -0.76300
C 	C 	0.88360 0.78360 0.95980 0.27200
C 	C 	0.98460 0.77150 0.96030 -0.17200
C 	C 	0.01170 0.77180 0.90090 0.26300
C 	C 	0.10740 0.76290 0.87090 -0.72700
C 	C 	0.81870 0.78560 0.01260 -0.78500
C 	C 	0.11140 0.80580 0.03720 0.26400
C 	C 	0.04790 0.76180 0.01300 -0.15400
C 	C 	0.05860 0.70880 0.04930 0.24200
C 	C 	0.00350 0.64990 0.04270 -0.72600
C 	C 	0.13110 0.87060 0.01970 -0.75400
C 	C 	0.53690 0.39490 0.71430 0.26000
C 	C 	0.51300 0.45560 0.69790 -0.14900
C 	C 	0.41690 0.45230 0.67530 0.24000
C 	C 	0.35640 0.50460 0.65240 -0.72600
C 	C 	0.62620 0.36900 0.74160 -0.73400
C 	C 	0.61710 0.53460 0.75420 0.28700
C 	C 	0.57640 0.51020 0.70240 -0.17100
C 	C 	0.61040 0.54840 0.65500 0.25000
C 	C 	0.58770 0.54260 0.59010 -0.74200
C 	C 	0.60600 0.51730 0.81880 -0.79700
C 	C 	0.72810 0.92940 0.98490 0.08100
C 	C 	0.82910 0.57390 0.51860 0.07100
C 	C 	0.88000 0.29460 0.03340 0.25200
C 	C 	0.98000 0.27820 0.03320 -0.15800
C 	C 	0.00680 0.27450 0.09320 0.25500
C 	C 	0.10240 0.25700 0.12180 -0.71300
C 	C 	0.81550 0.30390 0.98080 -0.75000
C 	C 	0.11810 0.30670 0.96060 0.24600
C 	C 	0.04460 0.26770 0.98080 -0.15500
C 	C 	0.05060 0.21550 0.94390 0.24300
C 	C 	0.98460 0.16000 0.94430 -0.73100
C 	C 	0.14970 0.36950 0.98250 -0.71700
C 	C 	0.45460 0.39290 0.21480 0.24900
C 	C 	0.48110 0.45270 0.20360 -0.15300
C 	C 	0.58030 0.45030 0.18690 0.23800
C 	C 	0.64630 0.50370 0.17280 -0.71500
C 	C 	0.36010 0.36460 0.23300 -0.70800
C 	C 	0.36440 0.52950 0.25430 0.26900
C 	C 	0.41920 0.50810 0.20560 -0.16000
C 	C 	0.39750 0.54970 0.15840 0.24500
C 	C 	0.43770 0.54860 0.09620 -0.72700
C 	C 	0.35200 0.50600 0.31690 -0.76300
C 	C 	0.61640 0.21640 0.45980 0.27000
C 	C 	0.51540 0.22850 0.46030 -0.17000
C 	C 	0.48830 0.22820 0.40090 0.26200
C 	C 	0.39260 0.23710 0.37090 -0.72600
C 	C 	0.68130 0.21440 0.51260 -0.78000
C 	C 	0.38860 0.19420 0.53720 0.26500
C 	C 	0.45210 0.23820 0.51300 -0.15600
C 	C 	0.44140 0.29120 0.54930 0.24300
C 	C 	0.49650 0.35010 0.54270 -0.73100
C 	C 	0.36890 0.12940 0.51970 -0.75600
C 	C 	0.96310 0.60510 0.21430 0.25900
C 	C 	0.98700 0.54440 0.19790 -0.15000
C 	C 	0.08310 0.54770 0.17530 0.24100
C 	C 	0.14360 0.49540 0.15240 -0.72700
C 	C 	0.87380 0.63100 0.24160 -0.73400
C 	C 	0.88290 0.46540 0.25420 0.28700
C 	C 	0.92360 0.48980 0.20240 -0.17000
C 	C 	0.88960 0.45160 0.15500 0.24900
C 	C 	0.91230 0.45740 0.09010 -0.74100
C 	C 	0.89400 0.48270 0.31880 -0.79600
C 	C 	0.77190 0.07060 0.48490 0.08100
C 	C 	0.67090 0.42610 0.01860 0.07100
S 	S 	0.28745 0.23539 0.73823 0.70700
S 	S 	0.13310 0.04386 0.04411 -0.16200
S 	S 	0.26160 0.47030 0.45331 -0.16300
S 	S 	0.21255 0.76461 0.23823 0.70600
S 	S 	0.36690 0.95614 0.54411 -0.16200
S 	S 	0.23840 0.52970 0.95331 -0.16300
S 	S 	0.71255 0.73539 0.76177 0.70700
S 	S 	0.86690 0.54386 0.45589 -0.16200
S 	S 	0.73840 0.97030 0.04669 -0.16400
S 	S 	0.78745 0.26461 0.26177 0.70700
S 	S 	0.63310 0.45614 0.95589 -0.16100
S 	S 	0.76160 0.02970 0.54669 -0.16300
N 	N 	0.34820 0.19880 0.90970 -0.22600
N 	N 	0.42700 0.21170 0.87410 -0.22100
N 	N 	0.62240 0.27910 0.09600 -0.21900
N 	N 	0.66300 0.22260 0.08500 -0.21600
N 	N 	0.11190 0.10830 0.81300 -0.22500
N 	N 	0.03420 0.14230 0.79520 -0.21400
N 	N 	0.83630 0.90710 0.82320 -0.22400
N 	N 	0.81640 0.92040 0.76490 -0.22000
N 	N 	0.14850 0.29190 0.59590 -0.23200
N 	N 	0.06930 0.28480 0.63130 -0.21500
N 	N 	0.84410 0.27760 0.41590 -0.22300
N 	N 	0.87400 0.21820 0.40820 -0.22500
N 	N 	0.54230 0.86040 0.79890 -0.21800
N 	N 	0.61430 0.89390 0.82260 -0.22500
N 	N 	0.33060 0.09230 0.82350 -0.23400
N 	N 	0.32780 0.08260 0.76310 -0.22800
N 	N 	0.19850 0.09510 0.93670 -0.28400
N 	N 	0.27570 0.40190 0.55820 -0.29200
N 	N 	0.15180 0.80120 0.40970 -0.22600
N 	N 	0.07300 0.78830 0.37410 -0.22000
N 	N 	0.87760 0.72090 0.59600 -0.21900
N 	N 	0.83700 0.77740 0.58500 -0.21500
N 	N 	0.38810 0.89170 0.31300 -0.22500
N 	N 	0.46580 0.85770 0.29520 -0.21400
N 	N 	0.66370 0.09290 0.32320 -0.22300
N 	N 	0.68360 0.07960 0.26490 -0.21900
N 	N 	0.35150 0.70810 0.09590 -0.23200
N 	N 	0.43070 0.71520 0.13130 -0.21500
N 	N 	0.65590 0.72240 0.91590 -0.22300
N 	N 	0.62600 0.78180 0.90820 -0.22500
N 	N 	0.95770 0.13960 0.29890 -0.21800
N 	N 	0.88570 0.10610 0.32260 -0.22600
N 	N 	0.16940 0.90770 0.32350 -0.23400
N 	N 	0.17220 0.91740 0.26310 -0.22700
N 	N 	0.30150 0.90490 0.43670 -0.28400
N 	N 	0.22430 0.59810 0.05820 -0.29200
N 	N 	0.65180 0.69880 0.59030 -0.22600
N 	N 	0.57300 0.71170 0.62590 -0.22100
N 	N 	0.37760 0.77910 0.40400 -0.21900
N 	N 	0.33700 0.72260 0.41500 -0.21500
N 	N 	0.88810 0.60830 0.68700 -0.22500
N 	N 	0.96580 0.64230 0.70480 -0.21400
N 	N 	0.16370 0.40710 0.67680 -0.22300
N 	N 	0.18360 0.42040 0.73510 -0.21900
N 	N 	0.85150 0.79190 0.90410 -0.23200
N 	N 	0.93070 0.78480 0.86870 -0.21500
N 	N 	0.15590 0.77760 0.08410 -0.22300
N 	N 	0.12600 0.71820 0.09180 -0.22500
N 	N 	0.45770 0.36040 0.70110 -0.21800
N 	N 	0.38570 0.39390 0.67740 -0.22600
N 	N 	0.66940 0.59230 0.67650 -0.23400
N 	N 	0.67220 0.58260 0.73690 -0.22800
N 	N 	0.80150 0.59510 0.56330 -0.28400
N 	N 	0.72430 0.90190 0.94180 -0.29200
N 	N 	0.84820 0.30120 0.09030 -0.22600
N 	N 	0.92700 0.28830 0.12590 -0.22100
N 	N 	0.12240 0.22090 0.90400 -0.21900
N 	N 	0.16300 0.27740 0.91500 -0.21500
N 	N 	0.61190 0.39170 0.18700 -0.22500
N 	N 	0.53420 0.35770 0.20480 -0.21400
N 	N 	0.33630 0.59290 0.17680 -0.22300
N 	N 	0.31640 0.57960 0.23510 -0.21900
N 	N 	0.64850 0.20810 0.40410 -0.23200
N 	N 	0.56930 0.21520 0.36870 -0.21500
N 	N 	0.34410 0.22240 0.58410 -0.22300
N 	N 	0.37400 0.28180 0.59180 -0.22500
N 	N 	0.04230 0.63960 0.20110 -0.21800
N 	N 	0.11430 0.60610 0.17740 -0.22600
N 	N 	0.83060 0.40770 0.17650 -0.23400
N 	N 	0.82780 0.41740 0.23690 -0.22800
N 	N 	0.69850 0.40490 0.06330 -0.28400
N 	N 	0.77570 0.09810 0.44180 -0.29200
O 	O 	0.25010 0.29428 0.71405 -0.43200
O 	O 	0.23560 0.22362 0.79592 -0.42600
O 	O 	0.26780 0.18481 0.69612 -0.34200
O 	O 	0.39250 0.24190 0.75007 -0.33800
O 	O 	0.24990 0.70572 0.21405 -0.43200
O 	O 	0.26440 0.77638 0.29592 -0.42600
O 	O 	0.23220 0.81519 0.19612 -0.34200
O 	O 	0.10750 0.75810 0.25007 -0.33800
O 	O 	0.74990 0.79428 0.78595 -0.43200
O 	O 	0.76440 0.72362 0.70408 -0.42600
O 	O 	0.73220 0.68481 0.80388 -0.34200
O 	O 	0.60750 0.74190 0.74993 -0.33800
O 	O 	0.75010 0.20572 0.28595 -0.43200
O 	O 	0.73560 0.27638 0.20408 -0.42600
O 	O 	0.76780 0.31519 0.30388 -0.34200
O 	O 	0.89250 0.25810 0.24993 -0.33800
