data_crystal

_cell_length_a 13.78180
_cell_length_b 15.06170
_cell_length_c 19.35550
_cell_angle_alpha 90.00000
_cell_angle_beta  90.00000
_cell_angle_gamma 90.00000

_symmetry_space_group_name_	'P 1'
_symmetry_space_group_name_H-M	'P 1'

loop_
_symmetry_equiv_pos_as_xyz
  x,y,z

loop_
_atom_site_label
_atom_site_type_symbol
_atom_site_fract_x
_atom_site_fract_y
_atom_site_fract_z
_atom_site_charge
Cd	Cd	0.69768 0.86097 0.03370 1.21400
Cd	Cd	0.80232 0.13903 0.53370 1.21500
Cd	Cd	0.30232 0.36097 0.46630 1.21500
Cd	Cd	0.19768 0.63903 0.96630 1.21400
H 	H 	0.75600 0.96510 0.89180 0.24700
H 	H 	0.66610 0.90840 0.29450 0.08800
H 	H 	0.59960 0.79330 0.43330 0.21300
H 	H 	0.76820 0.82700 0.89120 -0.00900
H 	H 	0.91540 0.78840 0.94240 0.03700
H 	H 	0.06390 0.87170 0.08850 0.09700
H 	H 	0.88890 0.93970 0.76600 0.08100
H 	H 	0.95940 0.88510 0.66790 0.03500
H 	H 	0.11170 0.94240 0.98580 -0.02600
H 	H 	0.83130 0.68150 0.89560 0.10900
H 	H 	0.96380 0.59130 0.68630 0.04600
H 	H 	0.00440 0.01750 0.06520 0.09800
H 	H 	0.99820 0.05540 0.98960 0.09900
H 	H 	0.84810 0.00910 0.97630 0.02400
H 	H 	0.84650 0.99890 0.05700 -0.00400
H 	H 	0.69580 0.70230 0.38010 0.00700
H 	H 	0.98910 0.94920 0.89380 0.11300
H 	H 	0.04220 0.85690 0.89920 0.10000
H 	H 	0.67090 0.93530 0.17860 0.00700
H 	H 	0.80080 0.54490 0.11180 0.09500
H 	H 	0.76630 0.61300 0.30950 0.11200
H 	H 	0.92670 0.48980 0.76940 0.09600
H 	H 	0.75500 0.68130 0.07710 0.00900
H 	H 	0.91040 0.85740 0.10480 0.00800
H 	H 	0.91300 0.77250 0.05790 0.02300
H 	H 	0.82610 0.48100 0.98120 0.08600
H 	H 	0.88850 0.56750 0.97370 0.09500
H 	H 	0.77820 0.56870 0.95400 0.09200
H 	H 	0.87960 0.40110 0.28840 0.05200
H 	H 	0.91760 0.49810 0.30010 0.04300
H 	H 	0.81400 0.47100 0.32620 0.05000
H 	H 	0.76570 0.87750 0.39810 0.04600
H 	H 	0.71800 0.75330 0.49840 0.08900
H 	H 	0.71410 0.85760 0.50350 0.09200
H 	H 	0.00260 0.83890 0.41480 0.02800
H 	H 	0.92760 0.91090 0.39120 0.04800
H 	H 	0.84490 0.66090 0.42120 0.01900
H 	H 	0.95610 0.68170 0.41440 0.01700
H 	H 	0.96800 0.72130 0.52340 0.09800
H 	H 	0.86810 0.67210 0.53310 0.09900
H 	H 	0.84370 0.81540 0.57440 -0.00800
H 	H 	0.97780 0.87960 0.51930 0.10100
H 	H 	0.74400 0.03490 0.39180 0.24600
H 	H 	0.83390 0.09160 0.79450 0.08700
H 	H 	0.90040 0.20670 0.93330 0.21400
H 	H 	0.73180 0.17300 0.39120 -0.00900
H 	H 	0.58460 0.21160 0.44240 0.03600
H 	H 	0.43610 0.12830 0.58850 0.09700
H 	H 	0.61110 0.06030 0.26600 0.08100
H 	H 	0.54060 0.11490 0.16790 0.03500
H 	H 	0.38830 0.05760 0.48580 -0.02600
H 	H 	0.66870 0.31850 0.39560 0.10900
H 	H 	0.53620 0.40870 0.18630 0.04600
H 	H 	0.49560 0.98250 0.56520 0.09400
H 	H 	0.50180 0.94460 0.48960 0.09500
H 	H 	0.65190 0.99090 0.47630 0.02400
H 	H 	0.65350 0.00110 0.55700 -0.00300
H 	H 	0.80420 0.29770 0.88010 0.00700
H 	H 	0.51090 0.05080 0.39380 0.11400
H 	H 	0.45780 0.14310 0.39920 0.10300
H 	H 	0.82910 0.06470 0.67860 0.00700
H 	H 	0.69920 0.45510 0.61180 0.09600
H 	H 	0.73370 0.38700 0.80950 0.11200
H 	H 	0.57330 0.51020 0.26940 0.09600
H 	H 	0.74500 0.31870 0.57710 0.01000
H 	H 	0.58960 0.14260 0.60480 0.00800
H 	H 	0.58700 0.22750 0.55790 0.02300
H 	H 	0.67390 0.51900 0.48120 0.08500
H 	H 	0.61150 0.43250 0.47370 0.09400
H 	H 	0.72180 0.43130 0.45400 0.09100
H 	H 	0.62040 0.59890 0.78840 0.05200
H 	H 	0.58240 0.50190 0.80010 0.04400
H 	H 	0.68600 0.52900 0.82620 0.05100
H 	H 	0.73430 0.12250 0.89810 0.04600
H 	H 	0.78200 0.24670 0.99840 0.08800
H 	H 	0.78590 0.14240 0.00350 0.08900
H 	H 	0.49740 0.16110 0.91480 0.02800
H 	H 	0.57240 0.08910 0.89120 0.04800
H 	H 	0.65510 0.33910 0.92120 0.02000
H 	H 	0.54390 0.31830 0.91440 0.01700
H 	H 	0.53200 0.27870 0.02340 0.09700
H 	H 	0.63190 0.32790 0.03310 0.09800
H 	H 	0.65630 0.18460 0.07440 -0.00700
H 	H 	0.52220 0.12040 0.01930 0.10000
H 	H 	0.24400 0.46510 0.60820 0.24600
H 	H 	0.33390 0.40840 0.20550 0.08700
H 	H 	0.40040 0.29330 0.06670 0.21300
H 	H 	0.23180 0.32700 0.60880 -0.00900
H 	H 	0.08460 0.28840 0.55760 0.03600
H 	H 	0.93610 0.37170 0.41150 0.09700
H 	H 	0.11110 0.43970 0.73400 0.08100
H 	H 	0.04060 0.38510 0.83210 0.03500
H 	H 	0.88830 0.44240 0.51420 -0.02500
H 	H 	0.16870 0.18150 0.60440 0.10900
H 	H 	0.03620 0.09130 0.81370 0.04600
H 	H 	0.99560 0.51750 0.43480 0.09300
H 	H 	0.00180 0.55540 0.51040 0.09500
H 	H 	0.15190 0.50910 0.52370 0.02400
H 	H 	0.15350 0.49890 0.44300 -0.00300
H 	H 	0.30420 0.20230 0.11990 0.00600
H 	H 	0.01090 0.44920 0.60620 0.11400
H 	H 	0.95780 0.35690 0.60080 0.10300
H 	H 	0.32910 0.43530 0.32140 0.00700
H 	H 	0.19920 0.04490 0.38820 0.09600
H 	H 	0.23370 0.11300 0.19050 0.11200
H 	H 	0.07330 0.98980 0.73060 0.09600
H 	H 	0.24500 0.18130 0.42290 0.01000
H 	H 	0.08960 0.35740 0.39520 0.00800
H 	H 	0.08700 0.27250 0.44210 0.02300
H 	H 	0.17390 0.98100 0.51880 0.08500
H 	H 	0.11150 0.06750 0.52630 0.09400
H 	H 	0.22180 0.06870 0.54600 0.09100
H 	H 	0.12040 0.90110 0.21160 0.05300
H 	H 	0.08240 0.99810 0.19990 0.04400
H 	H 	0.18600 0.97100 0.17380 0.05100
H 	H 	0.23430 0.37750 0.10190 0.04700
H 	H 	0.28200 0.25330 0.00160 0.08700
H 	H 	0.28590 0.35760 0.99650 0.08900
H 	H 	0.99740 0.33890 0.08520 0.02600
H 	H 	0.07240 0.41090 0.10880 0.04800
H 	H 	0.15510 0.16090 0.07880 0.02000
H 	H 	0.04390 0.18170 0.08560 0.01800
H 	H 	0.03200 0.22130 0.97660 0.09600
H 	H 	0.13190 0.17210 0.96690 0.09800
H 	H 	0.15630 0.31540 0.92560 -0.00600
H 	H 	0.02220 0.37960 0.98070 0.09800
H 	H 	0.25600 0.53490 0.10820 0.24600
H 	H 	0.16610 0.59160 0.70550 0.08700
H 	H 	0.09960 0.70670 0.56670 0.21300
H 	H 	0.26820 0.67300 0.10880 -0.00900
H 	H 	0.41540 0.71160 0.05760 0.03600
H 	H 	0.56390 0.62830 0.91150 0.09700
H 	H 	0.38890 0.56030 0.23400 0.08100
H 	H 	0.45940 0.61490 0.33210 0.03500
H 	H 	0.61170 0.55760 0.01420 -0.02600
H 	H 	0.33130 0.81850 0.10440 0.10900
H 	H 	0.46380 0.90870 0.31370 0.04600
H 	H 	0.50440 0.48250 0.93480 0.09300
H 	H 	0.49820 0.44460 0.01040 0.09500
H 	H 	0.34810 0.49090 0.02370 0.02500
H 	H 	0.34650 0.50110 0.94300 -0.00200
H 	H 	0.19580 0.79770 0.61990 0.00700
H 	H 	0.48910 0.55080 0.10620 0.11400
H 	H 	0.54220 0.64310 0.10080 0.10300
H 	H 	0.17090 0.56470 0.82140 0.00700
H 	H 	0.30080 0.95510 0.88820 0.09600
H 	H 	0.26630 0.88700 0.69050 0.11200
H 	H 	0.42670 0.01020 0.23060 0.09600
H 	H 	0.25500 0.81870 0.92290 0.01000
H 	H 	0.41040 0.64260 0.89520 0.00800
H 	H 	0.41300 0.72750 0.94210 0.02300
H 	H 	0.32610 0.01900 0.01880 0.08600
H 	H 	0.38850 0.93250 0.02630 0.09400
H 	H 	0.27820 0.93130 0.04600 0.09200
H 	H 	0.37960 0.09890 0.71160 0.05200
H 	H 	0.41760 0.00190 0.69990 0.04300
H 	H 	0.31400 0.02900 0.67380 0.05000
H 	H 	0.26570 0.62250 0.60190 0.04600
H 	H 	0.21800 0.74670 0.50160 0.08900
H 	H 	0.21410 0.64240 0.49650 0.09200
H 	H 	0.50260 0.66110 0.58520 0.02800
H 	H 	0.42760 0.58910 0.60880 0.04800
H 	H 	0.34490 0.83910 0.57880 0.01900
H 	H 	0.45610 0.81830 0.58560 0.01700
H 	H 	0.46800 0.77870 0.47660 0.09800
H 	H 	0.36810 0.82790 0.46690 0.09900
H 	H 	0.34370 0.68460 0.42560 -0.00800
H 	H 	0.47780 0.62040 0.48070 0.10100
C 	C 	0.68290 0.86260 0.26455 -0.08700
C 	C 	0.82680 0.86050 0.87919 0.08300
C 	C 	0.90120 0.85200 0.93811 0.02400
C 	C 	0.70450 0.78020 0.29086 -0.00100
C 	C 	0.92710 0.70140 0.74140 0.04100
C 	C 	0.03440 0.85090 0.04535 -0.21100
C 	C 	0.73250 0.73450 0.17183 0.01700
C 	C 	0.87000 0.82260 0.81395 -0.00500
C 	C 	0.88460 0.72950 0.80507 0.04700
C 	C 	0.89830 0.87880 0.76151 -0.08400
C 	C 	0.94070 0.84500 0.70190 0.04200
C 	C 	0.04350 0.92580 0.99200 0.15900
C 	C 	0.85980 0.66450 0.85410 -0.19400
C 	C 	0.93960 0.61020 0.72870 -0.00600
C 	C 	0.98590 0.00370 0.01810 -0.24500
C 	C 	0.87820 0.97891 0.01504 0.00800
C 	C 	0.69330 0.76587 0.36951 0.10200
C 	C 	0.87680 0.57750 0.84180 0.20300
C 	C 	0.73380 0.71350 0.24342 0.05900
C 	C 	0.99900 0.89770 0.92300 -0.22600
C 	C 	0.68570 0.87860 0.19416 0.04700
C 	C 	0.78530 0.58760 0.14470 -0.17200
C 	C 	0.76440 0.62790 0.26280 -0.20600
C 	C 	0.91650 0.54980 0.77780 -0.15100
C 	C 	0.75760 0.66860 0.12410 -0.01100
C 	C 	0.79130 0.56630 0.21470 0.22800
C 	C 	0.92640 0.83570 0.05900 0.01100
C 	C 	0.09120 0.77000 0.02102 0.35300
C 	C 	0.83630 0.53360 0.95410 -0.18200
C 	C 	0.86140 0.46260 0.29040 -0.04200
C 	C 	0.77150 0.81450 0.41013 0.02200
C 	C 	0.75280 0.80770 0.48798 -0.22500
C 	C 	0.93580 0.85820 0.41930 0.01200
C 	C 	0.89460 0.70480 0.43090 0.02500
C 	C 	0.90070 0.71980 0.50870 -0.24200
C 	C 	0.85190 0.80780 0.52440 0.15200
C 	C 	0.91560 0.88150 0.49470 -0.21100
C 	C 	0.87160 0.97400 0.50680 0.34800
C 	C 	0.81710 0.13740 0.76455 -0.08700
C 	C 	0.67320 0.13950 0.37919 0.08200
C 	C 	0.59880 0.14800 0.43811 0.02400
C 	C 	0.79550 0.21980 0.79086 -0.00100
C 	C 	0.57290 0.29860 0.24140 0.04100
C 	C 	0.46560 0.14910 0.54535 -0.21400
C 	C 	0.76750 0.26550 0.67183 0.01800
C 	C 	0.63000 0.17740 0.31395 -0.00500
C 	C 	0.61540 0.27050 0.30507 0.04700
C 	C 	0.60170 0.12120 0.26151 -0.08400
C 	C 	0.55930 0.15500 0.20190 0.04200
C 	C 	0.45650 0.07420 0.49200 0.16000
C 	C 	0.64020 0.33550 0.35410 -0.19500
C 	C 	0.56040 0.38980 0.22870 -0.00600
C 	C 	0.51410 0.99630 0.51810 -0.23600
C 	C 	0.62180 0.02109 0.51504 0.00800
C 	C 	0.80670 0.23413 0.86951 0.10300
C 	C 	0.62320 0.42250 0.34180 0.20300
C 	C 	0.76620 0.28650 0.74342 0.05900
C 	C 	0.50100 0.10230 0.42300 -0.23200
C 	C 	0.81430 0.12140 0.69416 0.04700
C 	C 	0.71470 0.41240 0.64470 -0.17200
C 	C 	0.73560 0.37210 0.76280 -0.20600
C 	C 	0.58350 0.45020 0.27780 -0.15100
C 	C 	0.74240 0.33140 0.62410 -0.01100
C 	C 	0.70870 0.43370 0.71470 0.22800
C 	C 	0.57360 0.16430 0.55900 0.01400
C 	C 	0.40880 0.23000 0.52102 0.35100
C 	C 	0.66370 0.46640 0.45410 -0.17900
C 	C 	0.63860 0.53740 0.79040 -0.04300
C 	C 	0.72850 0.18550 0.91013 0.02000
C 	C 	0.74720 0.19230 0.98798 -0.22000
C 	C 	0.56420 0.14180 0.91930 0.01100
C 	C 	0.60540 0.29520 0.93090 0.02500
C 	C 	0.59930 0.28020 0.00870 -0.24000
C 	C 	0.64810 0.19220 0.02440 0.14800
C 	C 	0.58440 0.11850 0.99470 -0.20700
C 	C 	0.62840 0.02600 0.00680 0.34600
C 	C 	0.31710 0.36260 0.23545 -0.08700
C 	C 	0.17320 0.36050 0.62081 0.08200
C 	C 	0.09880 0.35200 0.56189 0.02400
C 	C 	0.29550 0.28020 0.20914 -0.00100
C 	C 	0.07290 0.20140 0.75860 0.04100
C 	C 	0.96560 0.35090 0.45465 -0.21400
C 	C 	0.26750 0.23450 0.32817 0.01800
C 	C 	0.13000 0.32260 0.68605 -0.00500
C 	C 	0.11540 0.22950 0.69493 0.04700
C 	C 	0.10170 0.37880 0.73849 -0.08400
C 	C 	0.05930 0.34500 0.79810 0.04200
C 	C 	0.95650 0.42580 0.50800 0.16000
C 	C 	0.14020 0.16450 0.64590 -0.19500
C 	C 	0.06040 0.11020 0.77130 -0.00600
C 	C 	0.01410 0.50370 0.48190 -0.23300
C 	C 	0.12180 0.47891 0.48496 0.00700
C 	C 	0.30670 0.26587 0.13049 0.10300
C 	C 	0.12320 0.07750 0.65820 0.20300
C 	C 	0.26620 0.21350 0.25658 0.05900
C 	C 	0.00100 0.39770 0.57700 -0.23200
C 	C 	0.31430 0.37860 0.30584 0.04700
C 	C 	0.21470 0.08760 0.35530 -0.17200
C 	C 	0.23560 0.12790 0.23720 -0.20600
C 	C 	0.08350 0.04980 0.72220 -0.15200
C 	C 	0.24240 0.16860 0.37590 -0.01100
C 	C 	0.20870 0.06630 0.28530 0.22800
C 	C 	0.07360 0.33570 0.44100 0.01400
C 	C 	0.90880 0.27000 0.47898 0.35100
C 	C 	0.16370 0.03360 0.54590 -0.17900
C 	C 	0.13860 0.96260 0.20960 -0.04300
C 	C 	0.22850 0.31450 0.08987 0.02000
C 	C 	0.24720 0.30770 0.01202 -0.21900
C 	C 	0.06420 0.35820 0.08070 0.01400
C 	C 	0.10540 0.20480 0.06910 0.02500
C 	C 	0.09930 0.21980 0.99130 -0.24000
C 	C 	0.14810 0.30780 0.97560 0.14500
C 	C 	0.08440 0.38150 0.00530 -0.20300
C 	C 	0.12840 0.47400 0.99320 0.34300
C 	C 	0.18290 0.63740 0.73545 -0.08700
C 	C 	0.32680 0.63950 0.12081 0.08200
C 	C 	0.40120 0.64800 0.06189 0.02500
C 	C 	0.20450 0.71980 0.70914 -0.00100
C 	C 	0.42710 0.79860 0.25860 0.04100
C 	C 	0.53440 0.64910 0.95465 -0.21400
C 	C 	0.23250 0.76550 0.82817 0.01700
C 	C 	0.37000 0.67740 0.18605 -0.00400
C 	C 	0.38460 0.77050 0.19493 0.04700
C 	C 	0.39830 0.62120 0.23849 -0.08400
C 	C 	0.44070 0.65500 0.29810 0.04200
C 	C 	0.54350 0.57420 0.00800 0.16000
C 	C 	0.35980 0.83550 0.14590 -0.19500
C 	C 	0.43960 0.88980 0.27130 -0.00600
C 	C 	0.48590 0.49630 0.98190 -0.23400
C 	C 	0.37820 0.52109 0.98496 0.00600
C 	C 	0.19330 0.73413 0.63049 0.10200
C 	C 	0.37680 0.92250 0.15820 0.20300
C 	C 	0.23380 0.78650 0.75658 0.05900
C 	C 	0.49900 0.60230 0.07700 -0.23200
C 	C 	0.18570 0.62140 0.80584 0.04700
C 	C 	0.28530 0.91240 0.85530 -0.17200
C 	C 	0.26440 0.87210 0.73720 -0.20600
C 	C 	0.41650 0.95020 0.22220 -0.15200
C 	C 	0.25760 0.83140 0.87590 -0.01100
C 	C 	0.29130 0.93370 0.78530 0.22800
C 	C 	0.42640 0.66430 0.94100 0.01400
C 	C 	0.59120 0.73000 0.97898 0.35200
C 	C 	0.33630 0.96640 0.04590 -0.18100
C 	C 	0.36140 0.03740 0.70960 -0.04200
C 	C 	0.27150 0.68550 0.58987 0.02200
C 	C 	0.25280 0.69230 0.51202 -0.22500
C 	C 	0.43580 0.64180 0.58070 0.01300
C 	C 	0.39460 0.79520 0.56910 0.02500
C 	C 	0.40070 0.78020 0.49130 -0.24200
C 	C 	0.35190 0.69220 0.47560 0.15200
C 	C 	0.41560 0.61850 0.50530 -0.21100
C 	C 	0.37160 0.52600 0.49320 0.34800
N 	N 	0.70820 0.81770 0.14823 -0.22600
N 	N 	0.95630 0.75910 0.69023 -0.10700
N 	N 	0.86400 0.88119 0.00737 -0.20600
N 	N 	0.87140 0.78810 0.39349 -0.11400
N 	N 	0.79180 0.18230 0.64823 -0.22600
N 	N 	0.54370 0.24090 0.19023 -0.10700
N 	N 	0.63600 0.11881 0.50737 -0.20600
N 	N 	0.62860 0.21190 0.89349 -0.11400
N 	N 	0.29180 0.31770 0.35177 -0.22600
N 	N 	0.04370 0.25910 0.80977 -0.10700
N 	N 	0.13600 0.38119 0.49263 -0.20600
N 	N 	0.12860 0.28810 0.10651 -0.11400
N 	N 	0.20820 0.68230 0.85177 -0.22600
N 	N 	0.45630 0.74090 0.30977 -0.10700
N 	N 	0.36400 0.61881 0.99263 -0.20600
N 	N 	0.37140 0.71190 0.60651 -0.11400
O 	O 	0.80120 0.95094 0.86655 -0.38500
O 	O 	0.60540 0.80110 0.39160 -0.36800
O 	O 	0.85960 0.50980 0.88688 -0.19900
O 	O 	0.82500 0.48620 0.23200 -0.23400
O 	O 	0.18162 0.77141 0.02708 -0.41400
O 	O 	0.04830 0.70757 0.99214 -0.39500
O 	O 	0.84820 0.02162 0.45648 -0.40100
O 	O 	0.86070 0.99963 0.56765 -0.40000
O 	O 	0.69880 0.04906 0.36655 -0.38500
O 	O 	0.89460 0.19890 0.89160 -0.36800
O 	O 	0.64040 0.49020 0.38688 -0.20000
O 	O 	0.67500 0.51380 0.73200 -0.23300
O 	O 	0.31838 0.22859 0.52708 -0.41400
O 	O 	0.45170 0.29243 0.49214 -0.39300
O 	O 	0.65180 0.97838 0.95648 -0.40000
O 	O 	0.63930 0.00037 0.06765 -0.39900
O 	O 	0.19880 0.45094 0.63345 -0.38500
O 	O 	0.39460 0.30110 0.10840 -0.36800
O 	O 	0.14040 0.00980 0.61312 -0.20000
O 	O 	0.17500 0.98620 0.26800 -0.23300
O 	O 	0.81838 0.27141 0.47292 -0.41500
O 	O 	0.95170 0.20757 0.50786 -0.39300
O 	O 	0.15180 0.52162 0.04352 -0.39900
O 	O 	0.13930 0.49963 0.93235 -0.39900
O 	O 	0.30120 0.54906 0.13345 -0.38500
O 	O 	0.10540 0.69890 0.60840 -0.36800
O 	O 	0.35960 0.99020 0.11312 -0.20000
O 	O 	0.32500 0.01380 0.76800 -0.23400
O 	O 	0.68162 0.72859 0.97292 -0.41400
O 	O 	0.54830 0.79243 0.00786 -0.39300
O 	O 	0.34820 0.47838 0.54352 -0.40100
O 	O 	0.36070 0.50037 0.43235 -0.40000
