data_crystal

_cell_length_a 9.61870
_cell_length_b 13.89340
_cell_length_c 17.23450
_cell_angle_alpha 98.05800
_cell_angle_beta  90.45700
_cell_angle_gamma 90.59900

_symmetry_space_group_name_	'P 1'
_symmetry_space_group_name_H-M	'P 1'

loop_
_symmetry_equiv_pos_as_xyz
  x,y,z

loop_
_atom_site_label
_atom_site_type_symbol
_atom_site_fract_x
_atom_site_fract_y
_atom_site_fract_z
_atom_site_charge
Sm	Sm	0.77034 0.90045 0.01428 1.99900
Sm	Sm	0.22966 0.09955 0.98572 1.99900
H 	H 	0.72900 0.75130 0.41660 0.06100
H 	H 	0.60860 0.76410 0.54490 0.05700
H 	H 	0.47080 0.51770 0.73820 0.06800
H 	H 	0.47370 0.33660 0.72910 0.06500
H 	H 	0.75720 0.05620 0.55780 0.05500
H 	H 	0.92560 0.05150 0.44750 0.05600
H 	H 	0.08570 0.30690 0.26060 0.06200
H 	H 	0.03710 0.47840 0.25160 0.06600
H 	H 	0.38990 0.70690 0.60160 0.08600
H 	H 	0.30470 0.83780 0.68630 0.03000
H 	H 	0.41480 0.88710 0.80780 0.05800
H 	H 	0.68580 0.66570 0.76200 0.07300
H 	H 	0.46070 0.10720 0.55480 0.05500
H 	H 	0.30570 0.01750 0.62120 0.04100
H 	H 	0.32390 0.02400 0.75730 0.03500
H 	H 	0.65210 0.20990 0.76060 0.06200
H 	H 	0.18960 0.13890 0.41640 0.05100
H 	H 	0.33070 0.03550 0.33200 0.05300
H 	H 	0.26200 0.98730 0.20150 0.02800
H 	H 	0.90330 0.13470 0.24180 0.03900
H 	H 	0.01450 0.73330 0.38760 0.06900
H 	H 	0.04160 0.85170 0.30490 0.04800
H 	H 	0.93700 0.83180 0.18180 0.01500
H 	H 	0.77880 0.57220 0.22160 0.06000
H 	H 	0.27100 0.24870 0.58340 0.06100
H 	H 	0.39140 0.23590 0.45510 0.05700
H 	H 	0.52920 0.48230 0.26180 0.06800
H 	H 	0.52630 0.66340 0.27090 0.06500
H 	H 	0.24280 0.94380 0.44220 0.05500
H 	H 	0.07440 0.94850 0.55250 0.05600
H 	H 	0.91430 0.69310 0.73940 0.06200
H 	H 	0.96290 0.52160 0.74840 0.06600
H 	H 	0.61010 0.29310 0.39840 0.08600
H 	H 	0.69530 0.16220 0.31370 0.03000
H 	H 	0.58520 0.11290 0.19220 0.05800
H 	H 	0.31420 0.33430 0.23800 0.07300
H 	H 	0.53930 0.89280 0.44520 0.05500
H 	H 	0.69430 0.98250 0.37880 0.04100
H 	H 	0.67610 0.97600 0.24270 0.03500
H 	H 	0.34790 0.79010 0.23940 0.06200
H 	H 	0.81040 0.86110 0.58360 0.05100
H 	H 	0.66930 0.96450 0.66800 0.05300
H 	H 	0.73800 0.01270 0.79850 0.02800
H 	H 	0.09670 0.86530 0.75820 0.03900
H 	H 	0.98550 0.26670 0.61240 0.06900
H 	H 	0.95840 0.14830 0.69510 0.04800
H 	H 	0.06300 0.16820 0.81820 0.01500
H 	H 	0.22120 0.42780 0.77840 0.06000
C 	C 	0.77780 0.60490 0.43530 0.10500
C 	C 	0.72120 0.70220 0.44950 -0.07500
C 	C 	0.65490 0.70870 0.51900 -0.07000
C 	C 	0.66770 0.61520 0.54670 0.10600
C 	C 	0.61020 0.59360 0.61670 -0.08600
C 	C 	0.60300 0.50000 0.63880 0.10900
C 	C 	0.51970 0.47420 0.70080 -0.07500
C 	C 	0.52300 0.37460 0.69650 -0.07000
C 	C 	0.61420 0.33830 0.63400 0.10000
C 	C 	0.64700 0.24060 0.60980 -0.08100
C 	C 	0.73860 0.20860 0.54900 0.09300
C 	C 	0.78480 0.10920 0.53190 -0.07800
C 	C 	0.87600 0.10650 0.47140 -0.07800
C 	C 	0.88190 0.20360 0.45090 0.09100
C 	C 	0.95480 0.22880 0.38610 -0.07600
C 	C 	0.95590 0.32100 0.36160 0.09600
C 	C 	0.02870 0.34830 0.29520 -0.06800
C 	C 	0.00250 0.44220 0.29030 -0.07100
C 	C 	0.91280 0.47800 0.35390 0.10500
C 	C 	0.85840 0.57190 0.37020 -0.07800
C 	C 	0.54920 0.67470 0.67200 0.07300
C 	C 	0.43410 0.72580 0.65100 -0.10600
C 	C 	0.38340 0.80370 0.70130 0.00300
C 	C 	0.44780 0.83240 0.77400 -0.05000
C 	C 	0.55990 0.78060 0.79660 -0.03100
C 	C 	0.60980 0.70160 0.74600 -0.07900
C 	C 	0.63150 0.81440 0.87270 0.30100
C 	C 	0.57090 0.16698 0.65143 0.04500
C 	C 	0.46810 0.10980 0.61004 -0.07800
C 	C 	0.37600 0.05650 0.64950 -0.03800
C 	C 	0.38680 0.06040 0.73035 -0.00700
C 	C 	0.48970 0.11750 0.77174 -0.08800
C 	C 	0.58180 0.17082 0.73228 -0.05200
C 	C 	0.50380 0.11910 0.85880 0.39100
C 	C 	0.03440 0.15250 0.33610 0.02900
C 	C 	0.16100 0.11920 0.36360 -0.05800
C 	C 	0.24490 0.05710 0.31330 -0.05800
C 	C 	0.20320 0.02690 0.23630 0.02500
C 	C 	0.07420 0.05540 0.21080 -0.13300
C 	C 	0.99130 0.11660 0.26000 -0.02000
C 	C 	0.02700 0.01880 0.12870 0.46100
C 	C 	0.88800 0.64190 0.31430 0.04700
C 	C 	0.97010 0.72490 0.33760 -0.07200
C 	C 	0.98720 0.79510 0.28800 -0.04600
C 	C 	0.92580 0.78310 0.21490 0.01200
C 	C 	0.84720 0.69970 0.18930 -0.09900
C 	C 	0.83070 0.62980 0.23940 -0.04100
C 	C 	0.78160 0.68610 0.10880 0.39800
C 	C 	0.22220 0.39510 0.56470 0.10500
C 	C 	0.27880 0.29780 0.55050 -0.07500
C 	C 	0.34510 0.29130 0.48100 -0.07000
C 	C 	0.33230 0.38480 0.45330 0.10600
C 	C 	0.38980 0.40640 0.38330 -0.08600
C 	C 	0.39700 0.50000 0.36120 0.10900
C 	C 	0.48030 0.52580 0.29920 -0.07500
C 	C 	0.47700 0.62540 0.30350 -0.07000
C 	C 	0.38580 0.66170 0.36600 0.10000
C 	C 	0.35300 0.75940 0.39020 -0.08100
C 	C 	0.26140 0.79140 0.45100 0.09300
C 	C 	0.21520 0.89080 0.46810 -0.07800
C 	C 	0.12400 0.89350 0.52860 -0.07800
C 	C 	0.11810 0.79640 0.54910 0.09100
C 	C 	0.04520 0.77120 0.61390 -0.07600
C 	C 	0.04410 0.67900 0.63840 0.09600
C 	C 	0.97130 0.65170 0.70480 -0.06800
C 	C 	0.99750 0.55780 0.70970 -0.07100
C 	C 	0.08720 0.52200 0.64610 0.10500
C 	C 	0.14160 0.42810 0.62980 -0.07800
C 	C 	0.45080 0.32530 0.32800 0.07300
C 	C 	0.56590 0.27420 0.34900 -0.10600
C 	C 	0.61660 0.19630 0.29870 0.00300
C 	C 	0.55220 0.16760 0.22600 -0.05000
C 	C 	0.44010 0.21940 0.20340 -0.03100
C 	C 	0.39020 0.29840 0.25400 -0.07900
C 	C 	0.36850 0.18560 0.12730 0.30100
C 	C 	0.42910 0.83302 0.34857 0.04500
C 	C 	0.53190 0.89020 0.38996 -0.07800
C 	C 	0.62400 0.94350 0.35050 -0.03800
C 	C 	0.61320 0.93960 0.26965 -0.00700
C 	C 	0.51030 0.88250 0.22826 -0.08800
C 	C 	0.41820 0.82918 0.26772 -0.05200
C 	C 	0.49620 0.88090 0.14120 0.39100
C 	C 	0.96560 0.84750 0.66390 0.02900
C 	C 	0.83900 0.88080 0.63640 -0.05800
C 	C 	0.75510 0.94290 0.68670 -0.05800
C 	C 	0.79680 0.97310 0.76370 0.02500
C 	C 	0.92580 0.94460 0.78920 -0.13300
C 	C 	0.00870 0.88340 0.74000 -0.02000
C 	C 	0.97300 0.98120 0.87130 0.46100
C 	C 	0.11200 0.35810 0.68570 0.04700
C 	C 	0.02990 0.27510 0.66240 -0.07200
C 	C 	0.01280 0.20490 0.71200 -0.04600
C 	C 	0.07420 0.21690 0.78510 0.01200
C 	C 	0.15280 0.30030 0.81070 -0.09900
C 	C 	0.16930 0.37020 0.76060 -0.04100
C 	C 	0.21840 0.31390 0.89120 0.39800
N 	N 	0.74240 0.55200 0.49410 -0.11500
N 	N 	0.66070 0.41720 0.60030 -0.11800
N 	N 	0.79940 0.26520 0.49930 -0.12100
N 	N 	0.88770 0.40290 0.39660 -0.11500
N 	N 	0.25760 0.44800 0.50590 -0.11500
N 	N 	0.33930 0.58280 0.39970 -0.11800
N 	N 	0.20060 0.73480 0.50070 -0.12100
N 	N 	0.11230 0.59710 0.60340 -0.11500
O 	O 	0.57930 0.88330 0.91879 -0.42900
O 	O 	0.74360 0.77560 0.89082 -0.39600
O 	O 	0.40580 0.08330 0.89384 -0.49900
O 	O 	0.61250 0.15540 0.89270 -0.28700
O 	O 	0.90200 0.99600 0.11716 -0.53400
O 	O 	0.11820 0.01100 0.07508 -0.54700
O 	O 	0.73390 0.60410 0.08100 -0.26200
O 	O 	0.78150 0.75680 0.07070 -0.49700
O 	O 	0.42070 0.11670 0.08121 -0.42900
O 	O 	0.25640 0.22440 0.10918 -0.39600
O 	O 	0.59420 0.91670 0.10616 -0.49900
O 	O 	0.38750 0.84460 0.10730 -0.28700
O 	O 	0.09800 0.00400 0.88284 -0.53400
O 	O 	0.88180 0.98900 0.92492 -0.54700
O 	O 	0.26610 0.39590 0.91900 -0.26200
O 	O 	0.21850 0.24320 0.92930 -0.49700
