data_crystal

_cell_length_a 9.63570
_cell_length_b 13.92030
_cell_length_c 17.28750
_cell_angle_alpha 98.15740
_cell_angle_beta  90.24890
_cell_angle_gamma 90.89380

_symmetry_space_group_name_	'P 1'
_symmetry_space_group_name_H-M	'P 1'

loop_
_symmetry_equiv_pos_as_xyz
  x,y,z

loop_
_atom_site_label
_atom_site_type_symbol
_atom_site_fract_x
_atom_site_fract_y
_atom_site_fract_z
_atom_site_charge
Pr	Pr	0.27000 0.39840 0.51308 2.05000
Pr	Pr	0.73000 0.60160 0.48692 2.05000
H 	H 	0.10890 0.26210 0.04240 0.05700
H 	H 	0.23350 0.25010 0.91570 0.05900
H 	H 	0.53670 0.97500 0.75010 0.06200
H 	H 	0.58150 0.80300 0.75840 0.06500
H 	H 	0.42700 0.55200 0.94820 0.05600
H 	H 	0.25880 0.55630 0.05840 0.05500
H 	H 	0.97200 0.83770 0.22780 0.06600
H 	H 	0.96560 0.01660 0.23400 0.06600
H 	H 	0.34000 0.90450 0.93700 0.14100
H 	H 	0.21840 0.91460 0.06090 0.14200
H 	H 	0.51650 0.23170 0.88460 0.06400
H 	H 	0.54410 0.34910 0.80120 0.04900
H 	H 	0.43670 0.32810 0.67890 0.01300
H 	H 	0.27820 0.06910 0.72130 0.06000
H 	H 	0.21210 0.09680 0.53380 0.27300
H 	H 	0.69050 0.64030 0.91540 0.05800
H 	H 	0.83040 0.53640 0.83240 0.04400
H 	H 	0.76140 0.48680 0.70290 0.04600
H 	H 	0.40260 0.63350 0.74330 0.04800
H 	H 	0.96060 0.60400 0.05580 0.05900
H 	H 	0.80970 0.51470 0.12390 0.03600
H 	H 	0.81940 0.53030 0.26020 0.04400
H 	H 	0.15850 0.70680 0.25890 0.06600
H 	H 	0.89100 0.20730 0.09800 0.07500
H 	H 	0.80530 0.33680 0.18330 0.03000
H 	H 	0.91050 0.38390 0.30510 0.05800
H 	H 	0.18420 0.16550 0.25840 0.07200
H 	H 	0.89110 0.73790 0.95760 0.05800
H 	H 	0.76650 0.74990 0.08430 0.06000
H 	H 	0.46330 0.02500 0.24990 0.06300
H 	H 	0.41850 0.19700 0.24160 0.06600
H 	H 	0.57300 0.44800 0.05180 0.05700
H 	H 	0.74120 0.44370 0.94160 0.05600
H 	H 	0.02800 0.16230 0.77220 0.06700
H 	H 	0.03440 0.98340 0.76600 0.06700
H 	H 	0.66000 0.09550 0.06300 0.14100
H 	H 	0.78160 0.08540 0.93910 0.14200
H 	H 	0.48350 0.76830 0.11540 0.06400
H 	H 	0.45590 0.65090 0.19880 0.04900
H 	H 	0.56330 0.67190 0.32110 0.01300
H 	H 	0.72180 0.93090 0.27870 0.06000
H 	H 	0.78790 0.90320 0.46620 0.27300
H 	H 	0.30950 0.35970 0.08460 0.05800
H 	H 	0.16960 0.46360 0.16760 0.04400
H 	H 	0.23860 0.51320 0.29710 0.04600
H 	H 	0.59740 0.36650 0.25670 0.04800
H 	H 	0.03940 0.39600 0.94420 0.05900
H 	H 	0.19030 0.48530 0.87610 0.03600
H 	H 	0.18060 0.46970 0.73980 0.04400
H 	H 	0.84150 0.29320 0.74110 0.06600
H 	H 	0.10900 0.79270 0.90200 0.07500
H 	H 	0.19470 0.66320 0.81670 0.03000
H 	H 	0.08950 0.61610 0.69490 0.05800
H 	H 	0.81580 0.83450 0.74160 0.07200
C 	C 	0.17010 0.11390 0.04430 0.10800
C 	C 	0.15640 0.20720 0.01690 -0.07800
C 	C 	0.22430 0.20090 0.94830 -0.06900
C 	C 	0.28120 0.10260 0.93400 0.10100
C 	C 	0.36060 0.06990 0.86890 -0.09300
C 	C 	0.41390 0.97570 0.85230 0.11800
C 	C 	0.50190 0.93920 0.78890 -0.07600
C 	C 	0.52700 0.84510 0.79370 -0.08200
C 	C 	0.45780 0.81940 0.86100 0.12100
C 	C 	0.45540 0.72820 0.88600 -0.09900
C 	C 	0.38300 0.70350 0.95110 0.09500
C 	C 	0.37710 0.60670 0.97190 -0.07900
C 	C 	0.28600 0.60910 0.03230 -0.08000
C 	C 	0.23940 0.70770 0.04850 0.09400
C 	C 	0.14660 0.74040 0.10890 -0.10000
C 	C 	0.11300 0.83820 0.13250 0.11900
C 	C 	0.02090 0.87520 0.19470 -0.07700
C 	C 	0.01630 0.97330 0.19760 -0.08200
C 	C 	0.10100 0.99980 0.13620 0.12800
C 	C 	0.10990 0.09260 0.11420 -0.10700
C 	C 	0.39090 0.13980 0.81200 0.04500
C 	C 	0.47220 0.22270 0.83480 -0.07100
C 	C 	0.48900 0.29260 0.78500 -0.04400
C 	C 	0.42590 0.28000 0.71230 0.01400
C 	C 	0.34630 0.19650 0.68810 -0.11800
C 	C 	0.33080 0.12660 0.73820 -0.02900
C 	C 	0.27970 0.18300 0.60840 0.45700
C 	C 	0.53560 0.65160 0.83680 0.04900
C 	C 	0.66130 0.61950 0.86310 -0.07800
C 	C 	0.74470 0.55740 0.81370 -0.03100
C 	C 	0.70270 0.52640 0.73760 -0.01000
C 	C 	0.57360 0.55350 0.71190 -0.10200
C 	C 	0.49060 0.61550 0.76110 -0.04200
C 	C 	0.52660 0.51710 0.63000 0.40000
C 	C 	0.06970 0.66970 0.15090 0.05800
C 	C 	0.96810 0.60900 0.11110 -0.08900
C 	C 	0.87800 0.55610 0.15170 -0.02100
C 	C 	0.88620 0.56270 0.23240 -0.02600
C 	C 	0.99320 0.61720 0.27220 -0.06800
C 	C 	0.08500 0.67010 0.23150 -0.06500
C 	C 	0.00860 0.62090 0.35950 0.36100
C 	C 	0.04790 0.17350 0.16820 0.07600
C 	C 	0.93420 0.22530 0.14760 -0.10600
C 	C 	0.88320 0.30260 0.19830 0.00200
C 	C 	0.94510 0.33030 0.27090 -0.05100
C 	C 	0.05760 0.27970 0.29340 -0.03100
C 	C 	0.10820 0.20090 0.24250 -0.08000
C 	C 	0.12860 0.31210 0.36970 0.29000
C 	C 	0.82990 0.88610 0.95570 0.10800
C 	C 	0.84360 0.79280 0.98310 -0.07800
C 	C 	0.77570 0.79910 0.05170 -0.06900
C 	C 	0.71880 0.89740 0.06600 0.10100
C 	C 	0.63940 0.93010 0.13110 -0.09300
C 	C 	0.58610 0.02430 0.14770 0.11800
C 	C 	0.49810 0.06080 0.21110 -0.07600
C 	C 	0.47300 0.15490 0.20630 -0.08200
C 	C 	0.54220 0.18060 0.13900 0.12100
C 	C 	0.54460 0.27180 0.11400 -0.09900
C 	C 	0.61700 0.29650 0.04890 0.09500
C 	C 	0.62290 0.39330 0.02810 -0.07900
C 	C 	0.71400 0.39090 0.96770 -0.08000
C 	C 	0.76060 0.29230 0.95150 0.09400
C 	C 	0.85340 0.25960 0.89110 -0.10000
C 	C 	0.88700 0.16180 0.86750 0.11900
C 	C 	0.97910 0.12480 0.80530 -0.07700
C 	C 	0.98370 0.02670 0.80240 -0.08200
C 	C 	0.89900 0.00020 0.86380 0.12800
C 	C 	0.89010 0.90740 0.88580 -0.10700
C 	C 	0.60910 0.86020 0.18800 0.04500
C 	C 	0.52780 0.77730 0.16520 -0.07100
C 	C 	0.51100 0.70740 0.21500 -0.04400
C 	C 	0.57410 0.72000 0.28770 0.01400
C 	C 	0.65370 0.80350 0.31190 -0.11800
C 	C 	0.66920 0.87340 0.26180 -0.02900
C 	C 	0.72030 0.81700 0.39160 0.45700
C 	C 	0.46440 0.34840 0.16320 0.04900
C 	C 	0.33870 0.38050 0.13690 -0.07800
C 	C 	0.25530 0.44260 0.18630 -0.03100
C 	C 	0.29730 0.47360 0.26240 -0.01000
C 	C 	0.42640 0.44650 0.28810 -0.10200
C 	C 	0.50940 0.38450 0.23890 -0.04200
C 	C 	0.47340 0.48290 0.37000 0.40000
C 	C 	0.93030 0.33030 0.84910 0.05800
C 	C 	0.03190 0.39100 0.88890 -0.08900
C 	C 	0.12200 0.44390 0.84830 -0.02100
C 	C 	0.11380 0.43730 0.76760 -0.02600
C 	C 	0.00680 0.38280 0.72780 -0.06800
C 	C 	0.91500 0.32990 0.76850 -0.06500
C 	C 	0.99140 0.37910 0.64050 0.36100
C 	C 	0.95210 0.82650 0.83180 0.07600
C 	C 	0.06580 0.77470 0.85240 -0.10600
C 	C 	0.11680 0.69740 0.80170 0.00200
C 	C 	0.05490 0.66970 0.72910 -0.05100
C 	C 	0.94240 0.72030 0.70660 -0.03100
C 	C 	0.89180 0.79910 0.75750 -0.08000
C 	C 	0.87140 0.68790 0.63030 0.29000
N 	N 	0.24320 0.05120 0.99294 -0.13900
N 	N 	0.39060 0.90090 0.89453 -0.21700
N 	N 	0.30040 0.76510 0.99932 -0.14300
N 	N 	0.15940 0.91710 0.09980 -0.21900
N 	N 	0.75680 0.94880 0.00706 -0.13900
N 	N 	0.60940 0.09910 0.10547 -0.21700
N 	N 	0.69960 0.23490 0.00068 -0.14300
N 	N 	0.84060 0.08290 0.90020 -0.21900
O 	O 	0.23340 0.09830 0.58110 -0.50300
O 	O 	0.27950 0.25260 0.57053 -0.54300
O 	O 	0.40040 0.49430 0.61909 -0.51700
O 	O 	0.61650 0.51010 0.57668 -0.55200
O 	O 	0.91190 0.58460 0.39509 -0.49500
O 	O 	0.11780 0.65760 0.39152 -0.28500
O 	O 	0.07570 0.38060 0.41593 -0.43900
O 	O 	0.23960 0.27270 0.38773 -0.41800
O 	O 	0.76660 0.90170 0.41890 -0.50300
O 	O 	0.72050 0.74740 0.42947 -0.54300
O 	O 	0.59960 0.50570 0.38091 -0.51700
O 	O 	0.38350 0.48990 0.42332 -0.55200
O 	O 	0.08810 0.41540 0.60491 -0.49500
O 	O 	0.88220 0.34240 0.60848 -0.28500
O 	O 	0.92430 0.61940 0.58407 -0.43900
O 	O 	0.76040 0.72730 0.61227 -0.41800
