data_crystal

_cell_length_a 9.85480
_cell_length_b 13.81380
_cell_length_c 33.79250
_cell_angle_alpha 90.00000
_cell_angle_beta  90.00000
_cell_angle_gamma 92.86270

_symmetry_space_group_name_	'P 1'
_symmetry_space_group_name_H-M	'P 1'

loop_
_symmetry_equiv_pos_as_xyz
  x,y,z

loop_
_atom_site_label
_atom_site_type_symbol
_atom_site_fract_x
_atom_site_fract_y
_atom_site_fract_z
_atom_site_charge
La	La	0.26408 0.02019 0.75105 1.65100
La	La	0.23592 0.97981 0.25105 1.64900
La	La	0.73592 0.97981 0.24895 1.65100
La	La	0.76408 0.02019 0.74895 1.64900
H 	H 	0.28240 0.22800 0.45850 0.06300
H 	H 	0.39240 0.23830 0.52450 0.05800
H 	H 	0.51240 0.52340 0.62620 0.06700
H 	H 	0.51590 0.70130 0.62090 0.06800
H 	H 	0.25930 0.94750 0.52870 0.05500
H 	H 	0.09370 0.92980 0.47410 0.05600
H 	H 	0.92990 0.63660 0.37950 0.06500
H 	H 	0.98180 0.46450 0.37440 0.07200
H 	H 	0.60740 0.31450 0.55800 0.08400
H 	H 	0.68160 0.19550 0.60120 0.03100
H 	H 	0.56310 0.15940 0.65930 0.05800
H 	H 	0.29540 0.36150 0.63270 0.07400
H 	H 	0.54560 0.90190 0.52870 0.05700
H 	H 	0.69890 0.00600 0.56230 0.03800
H 	H 	0.68510 0.02260 0.63080 0.03800
H 	H 	0.34680 0.84430 0.63150 0.06100
H 	H 	0.83330 0.83490 0.45960 0.06300
H 	H 	0.70650 0.93230 0.41880 0.03700
H 	H 	0.77780 0.96920 0.35440 0.03600
H 	H 	0.10170 0.80390 0.37030 0.06600
H 	H 	0.97480 0.25750 0.44620 0.08100
H 	H 	0.90420 0.12320 0.40790 0.03200
H 	H 	0.00990 0.09650 0.34730 0.05600
H 	H 	0.24660 0.34160 0.36220 0.07300
H 	H 	0.21760 0.77200 0.95850 0.06200
H 	H 	0.10760 0.76170 0.02450 0.05700
H 	H 	0.98760 0.47660 0.12620 0.07000
H 	H 	0.98410 0.29870 0.12090 0.06900
H 	H 	0.24070 0.05250 0.02870 0.05500
H 	H 	0.40630 0.07020 0.97410 0.05600
H 	H 	0.57010 0.36340 0.87950 0.06700
H 	H 	0.51820 0.53550 0.87440 0.06700
H 	H 	0.89260 0.68550 0.05800 0.08200
H 	H 	0.81840 0.80450 0.10120 0.03300
H 	H 	0.93690 0.84060 0.15930 0.05600
H 	H 	0.20460 0.63850 0.13270 0.07200
H 	H 	0.95440 0.09810 0.02870 0.05700
H 	H 	0.80110 0.99400 0.06230 0.03900
H 	H 	0.81490 0.97740 0.13080 0.04100
H 	H 	0.15320 0.15570 0.13150 0.06200
H 	H 	0.66670 0.16510 0.95960 0.05900
H 	H 	0.79350 0.06770 0.91880 0.04000
H 	H 	0.72220 0.03080 0.85440 0.03100
H 	H 	0.39830 0.19610 0.87030 0.06100
H 	H 	0.52520 0.74250 0.94620 0.08000
H 	H 	0.59580 0.87680 0.90790 0.03300
H 	H 	0.49010 0.90350 0.84730 0.05500
H 	H 	0.25340 0.65840 0.86220 0.07300
H 	H 	0.71760 0.77200 0.54150 0.06200
H 	H 	0.60760 0.76170 0.47550 0.05700
H 	H 	0.48760 0.47660 0.37380 0.06700
H 	H 	0.48410 0.29870 0.37910 0.06800
H 	H 	0.74070 0.05250 0.47130 0.05500
H 	H 	0.90630 0.07020 0.52590 0.05600
H 	H 	0.07010 0.36340 0.62050 0.06500
H 	H 	0.01820 0.53550 0.62560 0.07200
H 	H 	0.39260 0.68550 0.44200 0.08400
H 	H 	0.31840 0.80450 0.39880 0.03100
H 	H 	0.43690 0.84060 0.34070 0.05800
H 	H 	0.70460 0.63850 0.36730 0.07400
H 	H 	0.45440 0.09810 0.47130 0.05700
H 	H 	0.30110 0.99400 0.43770 0.03800
H 	H 	0.31490 0.97740 0.36920 0.03800
H 	H 	0.65320 0.15570 0.36850 0.06100
H 	H 	0.16670 0.16510 0.54040 0.06300
H 	H 	0.29350 0.06770 0.58120 0.03700
H 	H 	0.22220 0.03080 0.64560 0.03600
H 	H 	0.89830 0.19610 0.62970 0.06600
H 	H 	0.02520 0.74250 0.55380 0.08100
H 	H 	0.09580 0.87680 0.59210 0.03200
H 	H 	0.99010 0.90350 0.65270 0.05600
H 	H 	0.75340 0.65840 0.63780 0.07300
H 	H 	0.78240 0.22800 0.04150 0.06200
H 	H 	0.89240 0.23830 0.97550 0.05700
H 	H 	0.01240 0.52340 0.87380 0.07000
H 	H 	0.01590 0.70130 0.87910 0.06900
H 	H 	0.75930 0.94750 0.97130 0.05500
H 	H 	0.59370 0.92980 0.02590 0.05600
H 	H 	0.42990 0.63660 0.12050 0.06700
H 	H 	0.48180 0.46450 0.12560 0.06700
H 	H 	0.10740 0.31450 0.94200 0.08200
H 	H 	0.18160 0.19550 0.89880 0.03300
H 	H 	0.06310 0.15940 0.84070 0.05600
H 	H 	0.79540 0.36150 0.86730 0.07200
H 	H 	0.04560 0.90190 0.97130 0.05700
H 	H 	0.19890 0.00600 0.93770 0.03900
H 	H 	0.18510 0.02260 0.86920 0.04100
H 	H 	0.84680 0.84430 0.86850 0.06200
H 	H 	0.33330 0.83490 0.04040 0.05900
H 	H 	0.20650 0.93230 0.08120 0.04000
H 	H 	0.27780 0.96920 0.14560 0.03100
H 	H 	0.60170 0.80390 0.12970 0.06100
H 	H 	0.47480 0.25750 0.05380 0.08000
H 	H 	0.40420 0.12320 0.09210 0.03300
H 	H 	0.50990 0.09650 0.15270 0.05500
H 	H 	0.74660 0.34160 0.13780 0.07300
C 	C 	0.23740 0.37750 0.46770 0.10900
C 	C 	0.28950 0.28310 0.47532 -0.07700
C 	C 	0.34990 0.28910 0.51101 -0.07100
C 	C 	0.33780 0.38720 0.52505 0.10800
C 	C 	0.38750 0.42110 0.56157 -0.08500
C 	C 	0.39590 0.51880 0.57342 0.10600
C 	C 	0.47000 0.55910 0.60603 -0.07300
C 	C 	0.47030 0.65650 0.60349 -0.07100
C 	C 	0.38880 0.68090 0.56969 0.10100
C 	C 	0.36220 0.77410 0.55657 -0.08400
C 	C 	0.27550 0.79430 0.52508 0.09500
C 	C 	0.23080 0.88870 0.51586 -0.07800
C 	C 	0.14170 0.87940 0.48601 -0.07900
C 	C 	0.13270 0.77850 0.47550 0.09500
C 	C 	0.05810 0.73990 0.44355 -0.08700
C 	C 	0.05830 0.64340 0.43059 0.09900
C 	C 	0.98700 0.60280 0.39680 -0.06100
C 	C 	0.01540 0.50880 0.39405 -0.08000
C 	C 	0.10600 0.48690 0.42615 0.11300
C 	C 	0.15750 0.39740 0.43458 -0.09100
C 	C 	0.44070 0.34980 0.59038 0.07100
C 	C 	0.55810 0.30000 0.58162 -0.10400
C 	C 	0.60270 0.22920 0.60743 0.00400
C 	C 	0.53230 0.20800 0.64200 -0.05100
C 	C 	0.41810 0.25640 0.65163 -0.03000
C 	C 	0.37350 0.32750 0.62590 -0.07800
C 	C 	0.33490 0.22920 0.68859 0.30600
C 	C 	0.43820 0.85530 0.57746 0.04800
C 	C 	0.53900 0.90870 0.55661 -0.08100
C 	C 	0.62910 0.97120 0.57650 -0.02800
C 	C 	0.61850 0.98350 0.61707 -0.01000
C 	C 	0.51140 0.93910 0.63747 -0.08300
C 	C 	0.42090 0.87490 0.61754 -0.05100
C 	C 	0.49370 0.95920 0.68086 0.38100
C 	C 	0.97970 0.80780 0.41903 0.06200
C 	C 	0.86250 0.84780 0.43324 -0.08900
C 	C 	0.78760 0.90670 0.40898 -0.02000
C 	C 	0.82920 0.92870 0.37076 -0.02300
C 	C 	0.94700 0.89050 0.35679 -0.06700
C 	C 	0.02150 0.83020 0.38049 -0.06600
C 	C 	0.00040 0.91490 0.31609 0.35900
C 	C 	0.11610 0.31330 0.40802 0.07300
C 	C 	0.01610 0.24760 0.42121 -0.10500
C 	C 	0.97450 0.16710 0.39870 0.00200
C 	C 	0.03710 0.15180 0.36254 -0.04800
C 	C 	0.13800 0.21530 0.34841 -0.03600
C 	C 	0.17740 0.29710 0.37155 -0.07900
C 	C 	0.20550 0.19630 0.30982 0.30100
C 	C 	0.26260 0.62250 0.96770 0.10900
C 	C 	0.21050 0.71690 0.97532 -0.07700
C 	C 	0.15010 0.71090 0.01101 -0.07200
C 	C 	0.16220 0.61280 0.02505 0.10700
C 	C 	0.11250 0.57890 0.06157 -0.08400
C 	C 	0.10410 0.48120 0.07342 0.10600
C 	C 	0.03000 0.44090 0.10603 -0.07600
C 	C 	0.02970 0.34350 0.10349 -0.07200
C 	C 	0.11120 0.31910 0.06969 0.10200
C 	C 	0.13780 0.22590 0.05657 -0.08500
C 	C 	0.22450 0.20570 0.02508 0.09500
C 	C 	0.26920 0.11130 0.01586 -0.07800
C 	C 	0.35830 0.12060 0.98601 -0.07800
C 	C 	0.36730 0.22150 0.97550 0.09300
C 	C 	0.44190 0.26010 0.94355 -0.08200
C 	C 	0.44170 0.35660 0.93059 0.10100
C 	C 	0.51300 0.39720 0.89680 -0.06900
C 	C 	0.48460 0.49120 0.89405 -0.07000
C 	C 	0.39400 0.51310 0.92615 0.11000
C 	C 	0.34250 0.60260 0.93458 -0.08900
C 	C 	0.05930 0.65020 0.09038 0.06400
C 	C 	0.94190 0.70000 0.08162 -0.09600
C 	C 	0.89730 0.77080 0.10743 -0.00300
C 	C 	0.96770 0.79200 0.14200 -0.04000
C 	C 	0.08190 0.74360 0.15163 -0.03800
C 	C 	0.12650 0.67250 0.12590 -0.07200
C 	C 	0.16510 0.77080 0.18859 0.30800
C 	C 	0.06180 0.14470 0.07746 0.05000
C 	C 	0.96100 0.09130 0.05661 -0.08200
C 	C 	0.87090 0.02880 0.07650 -0.02800
C 	C 	0.88150 0.01650 0.11707 -0.01500
C 	C 	0.98860 0.06090 0.13747 -0.07800
C 	C 	0.07910 0.12510 0.11754 -0.05500
C 	C 	0.00630 0.04080 0.18086 0.37500
C 	C 	0.52030 0.19220 0.91903 0.04800
C 	C 	0.63750 0.15220 0.93324 -0.07900
C 	C 	0.71240 0.09330 0.90898 -0.03100
C 	C 	0.67080 0.07130 0.87076 -0.01100
C 	C 	0.55300 0.10950 0.85679 -0.08500
C 	C 	0.47850 0.16980 0.88049 -0.04700
C 	C 	0.49960 0.08510 0.81609 0.37300
C 	C 	0.38390 0.68670 0.90802 0.07100
C 	C 	0.48390 0.75240 0.92121 -0.10100
C 	C 	0.52550 0.83290 0.89870 -0.00200
C 	C 	0.46290 0.84820 0.86254 -0.04500
C 	C 	0.36200 0.78470 0.84841 -0.03700
C 	C 	0.32260 0.70290 0.87155 -0.07700
C 	C 	0.29450 0.80370 0.80982 0.30200
C 	C 	0.76260 0.62250 0.53230 0.10900
C 	C 	0.71050 0.71690 0.52468 -0.07700
C 	C 	0.65010 0.71090 0.48899 -0.07100
C 	C 	0.66220 0.61280 0.47495 0.10800
C 	C 	0.61250 0.57890 0.43843 -0.08500
C 	C 	0.60410 0.48120 0.42658 0.10600
C 	C 	0.53000 0.44090 0.39397 -0.07300
C 	C 	0.52970 0.34350 0.39651 -0.07100
C 	C 	0.61120 0.31910 0.43031 0.10100
C 	C 	0.63780 0.22590 0.44343 -0.08400
C 	C 	0.72450 0.20570 0.47492 0.09500
C 	C 	0.76920 0.11130 0.48414 -0.07800
C 	C 	0.85830 0.12060 0.51399 -0.07900
C 	C 	0.86730 0.22150 0.52450 0.09500
C 	C 	0.94190 0.26010 0.55645 -0.08700
C 	C 	0.94170 0.35660 0.56941 0.09900
C 	C 	0.01300 0.39720 0.60320 -0.06100
C 	C 	0.98460 0.49120 0.60595 -0.08000
C 	C 	0.89400 0.51310 0.57385 0.11300
C 	C 	0.84250 0.60260 0.56542 -0.09100
C 	C 	0.55930 0.65020 0.40962 0.07100
C 	C 	0.44190 0.70000 0.41838 -0.10400
C 	C 	0.39730 0.77080 0.39257 0.00400
C 	C 	0.46770 0.79200 0.35800 -0.05100
C 	C 	0.58190 0.74360 0.34837 -0.03000
C 	C 	0.62650 0.67250 0.37410 -0.07800
C 	C 	0.66510 0.77080 0.31141 0.30600
C 	C 	0.56180 0.14470 0.42254 0.04800
C 	C 	0.46100 0.09130 0.44339 -0.08100
C 	C 	0.37090 0.02880 0.42350 -0.02800
C 	C 	0.38150 0.01650 0.38293 -0.01000
C 	C 	0.48860 0.06090 0.36253 -0.08300
C 	C 	0.57910 0.12510 0.38246 -0.05100
C 	C 	0.50630 0.04080 0.31914 0.38100
C 	C 	0.02030 0.19220 0.58097 0.06200
C 	C 	0.13750 0.15220 0.56676 -0.08900
C 	C 	0.21240 0.09330 0.59102 -0.02000
C 	C 	0.17080 0.07130 0.62924 -0.02300
C 	C 	0.05300 0.10950 0.64321 -0.06700
C 	C 	0.97850 0.16980 0.61951 -0.06600
C 	C 	0.99960 0.08510 0.68391 0.35900
C 	C 	0.88390 0.68670 0.59198 0.07300
C 	C 	0.98390 0.75240 0.57879 -0.10500
C 	C 	0.02550 0.83290 0.60130 0.00200
C 	C 	0.96290 0.84820 0.63746 -0.04800
C 	C 	0.86200 0.78470 0.65159 -0.03600
C 	C 	0.82260 0.70290 0.62845 -0.07900
C 	C 	0.79450 0.80370 0.69018 0.30100
C 	C 	0.73740 0.37750 0.03230 0.10900
C 	C 	0.78950 0.28310 0.02468 -0.07700
C 	C 	0.84990 0.28910 0.98899 -0.07200
C 	C 	0.83780 0.38720 0.97495 0.10700
C 	C 	0.88750 0.42110 0.93843 -0.08400
C 	C 	0.89590 0.51880 0.92658 0.10600
C 	C 	0.97000 0.55910 0.89397 -0.07600
C 	C 	0.97030 0.65650 0.89651 -0.07200
C 	C 	0.88880 0.68090 0.93031 0.10200
C 	C 	0.86220 0.77410 0.94343 -0.08500
C 	C 	0.77550 0.79430 0.97492 0.09500
C 	C 	0.73080 0.88870 0.98414 -0.07800
C 	C 	0.64170 0.87940 0.01399 -0.07800
C 	C 	0.63270 0.77850 0.02450 0.09300
C 	C 	0.55810 0.73990 0.05645 -0.08200
C 	C 	0.55830 0.64340 0.06941 0.10100
C 	C 	0.48700 0.60280 0.10320 -0.06900
C 	C 	0.51540 0.50880 0.10595 -0.07000
C 	C 	0.60600 0.48690 0.07385 0.11000
C 	C 	0.65750 0.39740 0.06542 -0.08900
C 	C 	0.94070 0.34980 0.90962 0.06400
C 	C 	0.05810 0.30000 0.91838 -0.09600
C 	C 	0.10270 0.22920 0.89257 -0.00300
C 	C 	0.03230 0.20800 0.85800 -0.04000
C 	C 	0.91810 0.25640 0.84837 -0.03800
C 	C 	0.87350 0.32750 0.87410 -0.07200
C 	C 	0.83490 0.22920 0.81141 0.30800
C 	C 	0.93820 0.85530 0.92254 0.05000
C 	C 	0.03900 0.90870 0.94339 -0.08200
C 	C 	0.12910 0.97120 0.92350 -0.02800
C 	C 	0.11850 0.98350 0.88293 -0.01500
C 	C 	0.01140 0.93910 0.86253 -0.07800
C 	C 	0.92090 0.87490 0.88246 -0.05500
C 	C 	0.99370 0.95920 0.81914 0.37500
C 	C 	0.47970 0.80780 0.08097 0.04800
C 	C 	0.36250 0.84780 0.06676 -0.07900
C 	C 	0.28760 0.90670 0.09102 -0.03100
C 	C 	0.32920 0.92870 0.12924 -0.01100
C 	C 	0.44700 0.89050 0.14321 -0.08500
C 	C 	0.52150 0.83020 0.11951 -0.04700
C 	C 	0.50040 0.91490 0.18391 0.37300
C 	C 	0.61610 0.31330 0.09198 0.07100
C 	C 	0.51610 0.24760 0.07879 -0.10100
C 	C 	0.47450 0.16710 0.10130 -0.00200
C 	C 	0.53710 0.15180 0.13746 -0.04500
C 	C 	0.63800 0.21530 0.15159 -0.03700
C 	C 	0.67740 0.29710 0.12845 -0.07700
C 	C 	0.70550 0.19630 0.19018 0.30200
N 	N 	0.27150 0.44040 0.49779 -0.11700
N 	N 	0.34360 0.59490 0.55230 -0.11600
N 	N 	0.21450 0.72710 0.50033 -0.12100
N 	N 	0.12880 0.57000 0.44775 -0.11800
N 	N 	0.22850 0.55960 0.99779 -0.11700
N 	N 	0.15640 0.40510 0.05230 -0.11600
N 	N 	0.28550 0.27290 0.00033 -0.12100
N 	N 	0.37120 0.43000 0.94775 -0.11700
N 	N 	0.72850 0.55960 0.50221 -0.11700
N 	N 	0.65640 0.40510 0.44770 -0.11600
N 	N 	0.78550 0.27290 0.49967 -0.12100
N 	N 	0.87120 0.43000 0.55225 -0.11800
N 	N 	0.77150 0.44040 0.00221 -0.11700
N 	N 	0.84360 0.59490 0.94770 -0.11600
N 	N 	0.71450 0.72710 0.99967 -0.12100
N 	N 	0.62880 0.57000 0.05225 -0.11700
O 	O 	0.23500 0.27740 0.69680 -0.25800
O 	O 	0.37440 0.15790 0.70888 -0.38000
O 	O 	0.38020 0.93460 0.69657 -0.41600
O 	O 	0.59200 0.00150 0.69864 -0.45700
O 	O 	0.92520 0.96130 0.29308 -0.46400
O 	O 	0.11660 0.89030 0.30662 -0.40900
O 	O 	0.15380 0.12350 0.28937 -0.37200
O 	O 	0.30720 0.24640 0.29928 -0.25400
O 	O 	0.26500 0.72260 0.19680 -0.26000
O 	O 	0.12560 0.84210 0.20888 -0.38300
O 	O 	0.11980 0.06540 0.19657 -0.41500
O 	O 	0.90800 0.99850 0.19864 -0.45300
O 	O 	0.57480 0.03870 0.79308 -0.47000
O 	O 	0.38340 0.10970 0.80662 -0.41200
O 	O 	0.34620 0.87650 0.78937 -0.37200
O 	O 	0.19280 0.75360 0.79928 -0.25400
O 	O 	0.76500 0.72260 0.30320 -0.25800
O 	O 	0.62560 0.84210 0.29112 -0.38000
O 	O 	0.61980 0.06540 0.30343 -0.41600
O 	O 	0.40800 0.99850 0.30136 -0.45700
O 	O 	0.07480 0.03870 0.70692 -0.46400
O 	O 	0.88340 0.10970 0.69338 -0.40900
O 	O 	0.84620 0.87650 0.71063 -0.37200
O 	O 	0.69280 0.75360 0.70072 -0.25400
O 	O 	0.73500 0.27740 0.80320 -0.26000
O 	O 	0.87440 0.15790 0.79112 -0.38300
O 	O 	0.88020 0.93460 0.80343 -0.41500
O 	O 	0.09200 0.00150 0.80136 -0.45300
O 	O 	0.42520 0.96130 0.20692 -0.47000
O 	O 	0.61660 0.89030 0.19338 -0.41200
O 	O 	0.65380 0.12350 0.21063 -0.37200
O 	O 	0.80720 0.24640 0.20072 -0.25400
