data_crystal

_cell_length_a 18.81840
_cell_length_b 9.48430
_cell_length_c 17.34900
_cell_angle_alpha 90.00000
_cell_angle_beta  90.00000
_cell_angle_gamma 90.00000

_symmetry_space_group_name_	'P 1'
_symmetry_space_group_name_H-M	'P 1'

loop_
_symmetry_equiv_pos_as_xyz
  x,y,z

loop_
_atom_site_label
_atom_site_type_symbol
_atom_site_fract_x
_atom_site_fract_y
_atom_site_fract_z
_atom_site_charge
Mg	Mg	0.25519 0.26214 0.30410 1.48000
C 	C 	0.15530 0.32700 0.12939 -0.12300
C 	C 	0.13021 0.27190 0.06019 0.04500
C 	C 	0.15687 0.31370 0.98906 -0.09200
C 	C 	0.20973 0.41740 0.98693 -0.05400
C 	C 	0.23442 0.47500 0.05621 0.00400
C 	C 	0.20901 0.42900 0.12728 -0.05500
C 	C 	0.24189 0.49480 0.19884 0.37000
C 	C 	0.12174 0.27440 0.20313 0.44700
C 	C 	0.12379 0.24840 0.91784 0.37200
C 	C 	0.24360 0.47140 0.91327 0.37400
O 	O 	0.15421 0.29130 0.26554 -0.50900
O 	O 	0.06211 0.21660 0.19680 -0.59400
O 	O 	0.07130 0.17110 0.92833 -0.33900
O 	O 	0.14909 0.27645 0.85279 -0.48400
O 	O 	0.28609 0.39157 0.87888 -0.44400
O 	O 	0.22916 0.59591 0.89463 -0.43300
O 	O 	0.22080 0.61501 0.21697 -0.45200
O 	O 	0.28992 0.42518 0.23241 -0.47300
H 	H 	0.09240 0.20100 0.06220 0.01300
H 	H 	0.27090 0.54400 0.05420 0.04000
Mg	Mg	0.24481 0.23786 0.80410 1.47900
C 	C 	0.34470 0.17300 0.62939 -0.10700
C 	C 	0.36979 0.22810 0.56019 0.04100
C 	C 	0.34313 0.18630 0.48906 -0.07900
C 	C 	0.29027 0.08260 0.48693 -0.05900
C 	C 	0.26558 0.02500 0.55621 0.01400
C 	C 	0.29099 0.07100 0.62728 -0.05900
C 	C 	0.25811 0.00520 0.69884 0.37500
C 	C 	0.37826 0.22560 0.70313 0.44100
C 	C 	0.37621 0.25160 0.41784 0.36700
C 	C 	0.25640 0.02860 0.41327 0.37800
O 	O 	0.34579 0.20870 0.76554 -0.49200
O 	O 	0.43789 0.28340 0.69680 -0.54400
O 	O 	0.42870 0.32890 0.42833 -0.29800
O 	O 	0.35091 0.22355 0.35279 -0.46700
O 	O 	0.21391 0.10843 0.37888 -0.45500
O 	O 	0.27084 0.90409 0.39463 -0.42600
O 	O 	0.27920 0.88499 0.71697 -0.44600
O 	O 	0.21008 0.07482 0.73241 -0.48400
H 	H 	0.40760 0.29900 0.56220 0.03300
H 	H 	0.22910 0.95600 0.55420 0.03600
Mg	Mg	0.74481 0.26214 0.19590 1.47900
C 	C 	0.84470 0.32700 0.37061 -0.09100
C 	C 	0.86979 0.27190 0.43981 0.03700
C 	C 	0.84313 0.31370 0.51094 -0.06300
C 	C 	0.79027 0.41740 0.51307 -0.05700
C 	C 	0.76558 0.47500 0.44379 0.02200
C 	C 	0.79099 0.42900 0.37272 -0.05600
C 	C 	0.75811 0.49480 0.30116 0.37400
C 	C 	0.87826 0.27440 0.29687 0.43400
C 	C 	0.87621 0.24840 0.58216 0.36200
C 	C 	0.75640 0.47140 0.58673 0.38000
O 	O 	0.84579 0.29130 0.23446 -0.47400
O 	O 	0.93789 0.21660 0.30320 -0.48800
O 	O 	0.92870 0.17110 0.57167 -0.25200
O 	O 	0.85091 0.27645 0.64721 -0.44800
O 	O 	0.71391 0.39157 0.62112 -0.44600
O 	O 	0.77084 0.59591 0.60537 -0.41900
O 	O 	0.77920 0.61501 0.28303 -0.43600
O 	O 	0.71008 0.42518 0.26759 -0.47500
H 	H 	0.90760 0.20100 0.43780 0.05400
H 	H 	0.72910 0.54400 0.44580 0.03900
Mg	Mg	0.75519 0.23786 0.69590 1.47900
C 	C 	0.65530 0.17300 0.87061 -0.10900
C 	C 	0.63021 0.22810 0.93981 0.04600
C 	C 	0.65687 0.18630 0.01094 -0.08200
C 	C 	0.70973 0.08260 0.01307 -0.05700
C 	C 	0.73442 0.02500 0.94379 0.02100
C 	C 	0.70901 0.07100 0.87272 -0.05400
C 	C 	0.74189 0.00520 0.80116 0.37200
C 	C 	0.62174 0.22560 0.79687 0.44200
C 	C 	0.62379 0.25160 0.08216 0.36800
C 	C 	0.74360 0.02860 0.08673 0.37500
O 	O 	0.65421 0.20870 0.73446 -0.49200
O 	O 	0.56211 0.28340 0.80320 -0.54400
O 	O 	0.57130 0.32890 0.07167 -0.29900
O 	O 	0.64909 0.22355 0.14721 -0.46800
O 	O 	0.78609 0.10843 0.12112 -0.43500
O 	O 	0.72916 0.90409 0.10537 -0.42400
O 	O 	0.72080 0.88499 0.78303 -0.44400
O 	O 	0.78992 0.07482 0.76759 -0.46300
H 	H 	0.59240 0.29900 0.93780 0.03200
H 	H 	0.77090 0.95600 0.94580 0.04000
Mg	Mg	0.74481 0.73786 0.69590 1.47900
C 	C 	0.84470 0.67300 0.87061 -0.09100
C 	C 	0.86979 0.72810 0.93981 0.03700
C 	C 	0.84313 0.68630 0.01094 -0.06300
C 	C 	0.79027 0.58260 0.01307 -0.05800
C 	C 	0.76558 0.52500 0.94379 0.02300
C 	C 	0.79099 0.57100 0.87272 -0.05700
C 	C 	0.75811 0.50520 0.80116 0.37400
C 	C 	0.87826 0.72560 0.79687 0.43400
C 	C 	0.87621 0.75160 0.08216 0.36200
C 	C 	0.75640 0.52860 0.08673 0.38000
O 	O 	0.84579 0.70870 0.73446 -0.47400
O 	O 	0.93789 0.78340 0.80320 -0.48900
O 	O 	0.92870 0.82890 0.07167 -0.25300
O 	O 	0.85091 0.72355 0.14721 -0.44800
O 	O 	0.71391 0.60843 0.12112 -0.44600
O 	O 	0.77084 0.40409 0.10537 -0.41900
O 	O 	0.77920 0.38499 0.78303 -0.43600
O 	O 	0.71008 0.57482 0.76759 -0.47500
H 	H 	0.90760 0.79900 0.93780 0.05300
H 	H 	0.72910 0.45600 0.94580 0.03800
Mg	Mg	0.75519 0.76214 0.19590 1.47900
C 	C 	0.65530 0.82700 0.37061 -0.10900
C 	C 	0.63021 0.77190 0.43981 0.04400
C 	C 	0.65687 0.81370 0.51094 -0.08000
C 	C 	0.70973 0.91740 0.51307 -0.05300
C 	C 	0.73442 0.97500 0.44379 0.01500
C 	C 	0.70901 0.92900 0.37272 -0.05200
C 	C 	0.74189 0.99480 0.30116 0.37100
C 	C 	0.62174 0.77440 0.29687 0.44200
C 	C 	0.62379 0.74840 0.58216 0.36800
C 	C 	0.74360 0.97140 0.58673 0.37500
O 	O 	0.65421 0.79130 0.23446 -0.49200
O 	O 	0.56211 0.71660 0.30320 -0.54400
O 	O 	0.57130 0.67110 0.57167 -0.29800
O 	O 	0.64909 0.77645 0.64721 -0.46700
O 	O 	0.78609 0.89157 0.62112 -0.43500
O 	O 	0.72916 0.09591 0.60537 -0.42500
O 	O 	0.72080 0.11501 0.28303 -0.44400
O 	O 	0.78992 0.92518 0.26759 -0.46300
H 	H 	0.59240 0.70100 0.43780 0.03300
H 	H 	0.77090 0.04400 0.44580 0.04200
Mg	Mg	0.25519 0.73786 0.80410 1.47900
C 	C 	0.15530 0.67300 0.62939 -0.12500
C 	C 	0.13021 0.72810 0.56019 0.04700
C 	C 	0.15687 0.68630 0.48906 -0.09500
C 	C 	0.20973 0.58260 0.48693 -0.05500
C 	C 	0.23442 0.52500 0.55621 0.00700
C 	C 	0.20901 0.57100 0.62728 -0.05500
C 	C 	0.24189 0.50520 0.69884 0.37000
C 	C 	0.12174 0.72560 0.70313 0.44700
C 	C 	0.12379 0.75160 0.41784 0.37300
C 	C 	0.24360 0.52860 0.41327 0.37500
O 	O 	0.15421 0.70870 0.76554 -0.50900
O 	O 	0.06211 0.78340 0.69680 -0.59300
O 	O 	0.07130 0.82890 0.42833 -0.34100
O 	O 	0.14909 0.72355 0.35279 -0.48500
O 	O 	0.28609 0.60843 0.37888 -0.44400
O 	O 	0.22916 0.40409 0.39463 -0.43300
O 	O 	0.22080 0.38499 0.71697 -0.45200
O 	O 	0.28992 0.57482 0.73241 -0.47300
H 	H 	0.09240 0.79900 0.56220 0.01300
H 	H 	0.27090 0.45600 0.55420 0.04000
Mg	Mg	0.24481 0.76214 0.30410 1.47900
C 	C 	0.34470 0.82700 0.12939 -0.10600
C 	C 	0.36979 0.77190 0.06019 0.04000
C 	C 	0.34313 0.81370 0.98906 -0.07800
C 	C 	0.29027 0.91740 0.98693 -0.06100
C 	C 	0.26558 0.97500 0.05621 0.01800
C 	C 	0.29099 0.92900 0.12728 -0.06100
C 	C 	0.25811 0.99480 0.19884 0.37600
C 	C 	0.37826 0.77440 0.20313 0.44000
C 	C 	0.37621 0.74840 0.91784 0.36700
C 	C 	0.25640 0.97140 0.91327 0.37700
O 	O 	0.34579 0.79130 0.26554 -0.49200
O 	O 	0.43789 0.71660 0.19680 -0.54400
O 	O 	0.42870 0.67110 0.92833 -0.29700
O 	O 	0.35091 0.77645 0.85279 -0.46700
O 	O 	0.21391 0.89157 0.87888 -0.45400
O 	O 	0.27084 0.09591 0.89463 -0.42500
O 	O 	0.27920 0.11501 0.21697 -0.44600
O 	O 	0.21008 0.92518 0.23241 -0.48400
H 	H 	0.40760 0.70100 0.06220 0.03300
H 	H 	0.22910 0.04400 0.05420 0.03300
Mg	Mg	0.00000 0.07076 0.25000 1.43500
Mg	Mg	0.50000 0.42924 0.75000 1.44600
Mg	Mg	0.00000 0.92924 0.75000 1.43500
Mg	Mg	0.50000 0.57076 0.25000 1.44600
