data_crystal

_cell_length_a 16.13120
_cell_length_b 16.13120
_cell_length_c 16.26740
_cell_angle_alpha 73.65820
_cell_angle_beta  68.19880
_cell_angle_gamma 109.98300

_symmetry_space_group_name_	'P 1'
_symmetry_space_group_name_H-M	'P 1'

loop_
_symmetry_equiv_pos_as_xyz
  x,y,z

loop_
_atom_site_label
_atom_site_type_symbol
_atom_site_fract_x
_atom_site_fract_y
_atom_site_fract_z
_atom_site_charge
Ni	Ni	0.50000 0.00000 -0.00000 1.01900
Ni	Ni	0.50000 0.50000 0.50000 1.06400
Ni	Ni	0.50000 -0.00000 0.50000 1.04500
Ni	Ni	-0.00000 0.00000 -0.00000 1.00700
H 	H 	0.44160 0.01540 0.21660 0.26900
H 	H 	0.37170 0.06230 0.24140 0.28200
H 	H 	0.30780 0.00090 0.14430 -0.26500
H 	H 	0.72960 0.14170 0.90090 0.03500
H 	H 	0.75580 0.22260 0.80000 0.03200
H 	H 	0.60590 0.23140 0.89170 0.00400
H 	H 	0.68270 0.26080 0.93010 0.00900
H 	H 	0.41270 0.22000 0.09070 0.43000
H 	H 	0.39260 0.14500 0.04720 0.45500
H 	H 	0.49650 0.24700 0.98410 0.49400
H 	H 	0.58010 0.17620 0.16130 0.38200
H 	H 	0.51340 0.22840 0.17000 0.37700
H 	H 	0.61370 0.27100 0.06770 0.37000
H 	H 	0.18520 0.83780 0.28860 0.32900
H 	H 	0.19130 0.92710 0.31160 0.33400
H 	H 	0.24640 0.87060 0.34000 0.33700
H 	H 	0.25310 0.87240 0.69030 0.24900
H 	H 	0.18080 0.78460 0.68360 0.23800
H 	H 	0.30370 0.88540 0.49970 -0.16600
H 	H 	0.58640 0.93840 0.63020 0.03200
H 	H 	0.64630 0.89390 0.57420 0.03400
H 	H 	0.50400 0.80210 0.56790 0.01900
H 	H 	0.47280 0.77520 0.67980 0.00500
H 	H 	0.19000 0.66350 0.79170 0.35300
H 	H 	0.25280 0.74790 0.80950 0.36800
H 	H 	0.29540 0.67950 0.78190 0.36300
H 	H 	0.33160 0.76940 0.53640 0.41700
H 	H 	0.24460 0.67110 0.63610 0.38700
H 	H 	0.36080 0.70400 0.59880 0.40800
H 	H 	0.15330 0.92580 0.61010 0.28400
H 	H 	0.14380 0.86700 0.54900 0.26800
H 	H 	0.21500 0.98330 0.49270 0.29900
H 	H 	0.59750 0.10660 0.05030 0.08000
H 	H 	0.38780 0.87860 0.18340 0.10800
H 	H 	0.41250 0.87830 0.67700 0.09300
H 	H 	0.34560 0.02170 0.56570 0.09500
H 	H 	0.73200 0.65820 0.28340 0.22800
H 	H 	0.80370 0.61310 0.25860 0.23200
H 	H 	0.64520 0.45210 0.35570 -0.14700
H 	H 	0.54260 0.63050 0.59910 0.02100
H 	H 	0.52260 0.55580 0.70000 0.02000
H 	H 	0.62310 0.49760 0.60830 0.02100
H 	H 	0.69090 0.61280 0.56990 0.01800
H 	H 	0.81070 0.50340 0.40930 0.34700
H 	H 	0.69220 0.43980 0.45280 0.36900
H 	H 	0.73110 0.48060 0.51590 0.36600
H 	H 	0.83750 0.74140 0.33870 0.36100
H 	H 	0.89840 0.68340 0.33000 0.35600
H 	H 	0.83870 0.68140 0.43230 0.35900
H 	H 	0.62640 0.47380 0.21140 0.24600
H 	H 	0.73870 0.50290 0.18840 0.23500
H 	H 	0.71060 0.58640 0.16000 0.25200
H 	H 	0.06270 0.94340 0.80970 0.22600
H 	H 	0.96820 0.86440 0.81640 0.23600
H 	H 	0.88510 0.80340 0.00030 -0.18200
H 	H 	0.06860 0.21660 0.86980 -0.04900
H 	H 	0.96810 0.22050 0.92580 -0.00800
H 	H 	0.87000 0.07190 0.93210 0.04000
H 	H 	0.95500 0.15260 0.82020 0.03400
H 	H 	0.95520 0.98170 0.70830 0.41300
H 	H 	0.05740 0.06230 0.69050 0.35500
H 	H 	0.96140 0.07730 0.71810 0.39300
H 	H 	0.80580 0.86800 0.96360 0.47000
H 	H 	0.80720 0.88070 0.86390 0.43300
H 	H 	0.80280 0.95960 0.90120 0.45900
H 	H 	0.03590 0.76340 0.88990 0.16400
H 	H 	0.91600 0.69280 0.95100 0.18900
H 	H 	0.97600 0.70770 0.00730 0.16000
H 	H 	0.65690 0.64780 0.44970 0.09500
H 	H 	0.56200 0.57120 0.31660 0.10100
H 	H 	0.05530 0.08950 0.82300 0.04900
H 	H 	0.08740 0.91130 0.93430 0.11400
H 	H 	0.55840 0.98460 0.78340 0.19900
H 	H 	0.62830 0.93770 0.75860 0.19300
H 	H 	0.69220 0.99910 0.85570 -0.06400
H 	H 	0.27040 0.85830 0.09910 0.01000
H 	H 	0.24420 0.77740 0.20000 -0.00000
H 	H 	0.39410 0.76860 0.10830 0.03100
H 	H 	0.31730 0.73920 0.06990 0.01500
H 	H 	0.58730 0.78000 0.90930 0.26900
H 	H 	0.60740 0.85500 0.95280 0.29300
H 	H 	0.50350 0.75300 0.01590 0.25100
H 	H 	0.41990 0.82380 0.83870 0.31700
H 	H 	0.48660 0.77160 0.83000 0.31100
H 	H 	0.38630 0.72900 0.93230 0.32000
H 	H 	0.81480 0.16220 0.71140 0.20900
H 	H 	0.80870 0.07290 0.68840 0.18500
H 	H 	0.75360 0.12940 0.66000 0.21300
H 	H 	0.74690 0.12760 0.30970 0.20800
H 	H 	0.81920 0.21540 0.31640 0.21600
H 	H 	0.69630 0.11460 0.50030 -0.13400
H 	H 	0.41360 0.06160 0.36980 -0.00800
H 	H 	0.35370 0.10610 0.42580 -0.00200
H 	H 	0.49600 0.19790 0.43210 0.02400
H 	H 	0.52720 0.22480 0.32020 0.00800
H 	H 	0.81000 0.33650 0.20830 0.32800
H 	H 	0.74720 0.25210 0.19050 0.33500
H 	H 	0.70460 0.32050 0.21810 0.33600
H 	H 	0.66840 0.23060 0.46360 0.39900
H 	H 	0.75540 0.32890 0.36390 0.37400
H 	H 	0.63920 0.29600 0.40120 0.39200
H 	H 	0.84670 0.07420 0.38990 0.23600
H 	H 	0.85620 0.13300 0.45100 0.23300
H 	H 	0.78500 0.01670 0.50730 0.22900
H 	H 	0.40250 0.89340 0.94970 0.10600
H 	H 	0.61220 0.12140 0.81660 0.09700
H 	H 	0.58750 0.12170 0.32300 0.07500
H 	H 	0.65440 0.97830 0.43430 0.11400
H 	H 	0.26800 0.34180 0.71660 0.22600
H 	H 	0.19630 0.38690 0.74140 0.22700
H 	H 	0.35480 0.54790 0.64430 -0.14900
H 	H 	0.45740 0.36950 0.40090 0.01700
H 	H 	0.47740 0.44420 0.30000 0.01200
H 	H 	0.37690 0.50240 0.39170 0.01800
H 	H 	0.30910 0.38720 0.43010 0.00900
H 	H 	0.18930 0.49660 0.59070 0.32600
H 	H 	0.30780 0.56020 0.54720 0.35300
H 	H 	0.26890 0.51940 0.48410 0.34700
H 	H 	0.16250 0.25860 0.66130 0.32600
H 	H 	0.10160 0.31660 0.67000 0.31600
H 	H 	0.16130 0.31860 0.56770 0.32000
H 	H 	0.37360 0.52620 0.78860 0.26300
H 	H 	0.26130 0.49710 0.81160 0.24800
H 	H 	0.28940 0.41360 0.84000 0.27300
H 	H 	0.93730 0.05660 0.19030 0.21200
H 	H 	0.03180 0.13560 0.18360 0.18700
H 	H 	0.11490 0.19660 0.99970 -0.08800
H 	H 	0.93140 0.78340 0.13020 0.04800
H 	H 	0.03190 0.77950 0.07420 0.02800
H 	H 	0.13000 0.92810 0.06790 0.02800
H 	H 	0.04500 0.84740 0.17980 0.00000
H 	H 	0.04480 0.01830 0.29170 0.13200
H 	H 	0.94260 0.93770 0.30950 0.21700
H 	H 	0.03860 0.92270 0.28190 0.19200
H 	H 	0.19420 0.13200 0.03640 0.27700
H 	H 	0.19280 0.11930 0.13610 0.26200
H 	H 	0.19720 0.04040 0.09880 0.26700
H 	H 	0.96410 0.23660 0.11010 0.33700
H 	H 	0.08400 0.30720 0.04900 0.29300
H 	H 	0.02400 0.29230 0.99270 0.34500
H 	H 	0.34310 0.35220 0.55030 0.09300
H 	H 	0.43800 0.42880 0.68340 0.10300
H 	H 	0.94470 0.91050 0.17700 0.10000
H 	H 	0.91260 0.08870 0.06570 0.09500
W 	W 	0.39543 0.14543 0.75000 0.49500
W 	W 	0.60457 0.85457 0.25000 0.54500
C 	C 	0.40720 0.08130 0.87710 -0.06200
C 	C 	0.46810 0.09580 0.64990 -0.07000
C 	C 	0.30010 0.98540 0.82310 -0.01900
C 	C 	0.55930 0.21940 0.69810 -0.06400
C 	C 	0.49310 0.14460 0.09730 0.82800
C 	C 	0.40790 0.04600 0.19150 -0.97600
C 	C 	0.32700 0.96690 0.18790 0.69700
C 	C 	0.70000 0.16850 0.86590 -0.08600
C 	C 	0.63840 0.20710 0.92450 -0.01000
C 	C 	0.44410 0.19370 0.05040 -1.49400
C 	C 	0.55580 0.21120 0.12680 -1.29700
C 	C 	0.22820 0.89380 0.29180 -1.09900
C 	C 	0.31430 0.78530 0.66060 0.77900
C 	C 	0.25190 0.83660 0.65130 -0.81100
C 	C 	0.28150 0.91040 0.54730 0.53900
C 	C 	0.59520 0.91460 0.58080 -0.08300
C 	C 	0.49620 0.82780 0.61580 -0.05800
C 	C 	0.25790 0.71240 0.77110 -1.23100
C 	C 	0.31270 0.72720 0.60270 -1.31500
C 	C 	0.18970 0.92280 0.55010 -0.94400
C 	C 	0.45840 0.28430 0.62290 -0.05100
C 	C 	0.24570 0.11800 0.85010 -0.05900
C 	C 	0.30850 0.12320 0.67690 -0.08400
C 	C 	0.41750 0.25740 0.80190 -0.05600
C 	C 	0.74190 0.59040 0.40270 0.69400
C 	C 	0.73750 0.59940 0.30850 -0.75700
C 	C 	0.65480 0.51490 0.31210 0.43700
C 	C 	0.53440 0.56590 0.63410 -0.05700
C 	C 	0.63160 0.56290 0.57550 -0.07500
C 	C 	0.74410 0.49450 0.44960 -1.17500
C 	C 	0.83800 0.68260 0.37320 -1.18400
C 	C 	0.68560 0.52000 0.20820 -0.84100
C 	C 	0.94590 0.97490 0.83940 0.86200
C 	C 	0.98790 0.90320 0.84870 -0.76700
C 	C 	0.95770 0.82880 0.95270 0.47500
C 	C 	0.99540 0.17600 0.91920 0.08400
C 	C 	0.94360 0.11200 0.88420 -0.13400
C 	C 	0.98350 0.02900 0.72890 -1.33400
C 	C 	0.82990 0.91540 0.89730 -1.43200
C 	C 	0.97290 0.73980 0.94990 -0.60900
C 	C 	0.59280 0.91870 0.12290 -0.04700
C 	C 	0.53190 0.90420 0.35010 -0.04600
C 	C 	0.69990 0.01460 0.17690 -0.12900
C 	C 	0.44070 0.78060 0.30190 -0.06800
C 	C 	0.50690 0.85540 0.90270 0.57100
C 	C 	0.59210 0.95400 0.80850 -0.59000
C 	C 	0.67300 0.03310 0.81210 0.26500
C 	C 	0.30000 0.83150 0.13410 -0.02500
C 	C 	0.36160 0.79290 0.07550 -0.12000
C 	C 	0.55590 0.80630 0.94960 -0.89100
C 	C 	0.44420 0.78880 0.87320 -1.04200
C 	C 	0.77180 0.10620 0.70820 -0.69700
C 	C 	0.68570 0.21470 0.33940 0.72400
C 	C 	0.74810 0.16340 0.34870 -0.73100
C 	C 	0.71850 0.08960 0.45270 0.39800
C 	C 	0.40480 0.08540 0.41920 -0.05500
C 	C 	0.50380 0.17220 0.38420 -0.08100
C 	C 	0.74210 0.28760 0.22890 -1.15700
C 	C 	0.68730 0.27280 0.39730 -1.26000
C 	C 	0.81030 0.07720 0.44990 -0.80900
C 	C 	0.54160 0.71570 0.37710 -0.06000
C 	C 	0.75430 0.88200 0.14990 -0.05500
C 	C 	0.69150 0.87680 0.32310 -0.05900
C 	C 	0.58250 0.74260 0.19810 -0.07400
C 	C 	0.25810 0.40960 0.59730 0.66100
C 	C 	0.26250 0.40060 0.69150 -0.74300
C 	C 	0.34520 0.48510 0.68790 0.44300
C 	C 	0.46560 0.43410 0.36590 -0.05500
C 	C 	0.36840 0.43710 0.42450 -0.07400
C 	C 	0.25590 0.50550 0.55040 -1.12800
C 	C 	0.16200 0.31740 0.62680 -1.10600
C 	C 	0.31440 0.48000 0.79180 -0.87100
C 	C 	0.05410 0.02510 0.16060 0.44000
C 	C 	0.01210 0.09680 0.15130 -0.67500
C 	C 	0.04230 0.17120 0.04730 0.39400
C 	C 	0.00460 0.82400 0.08080 -0.15300
C 	C 	0.05640 0.88800 0.11580 -0.04400
C 	C 	0.01650 0.97100 0.27110 -0.63900
C 	C 	0.17010 0.08460 0.10270 -0.92400
C 	C 	0.02710 0.26020 0.05010 -1.09400
N 	N 	0.41730 0.04850 0.94200 -0.21400
N 	N 	0.49690 0.06430 0.59800 -0.23200
N 	N 	0.25090 0.90000 0.86530 -0.13800
N 	N 	0.64410 0.25830 0.67220 -0.12900
N 	N 	0.55970 0.12020 0.02430 -0.38800
N 	N 	0.36880 0.90860 0.14320 -0.33800
N 	N 	0.42090 0.86290 0.62580 -0.35400
N 	N 	0.36650 0.00210 0.51800 -0.36400
N 	N 	0.49050 0.35930 0.55800 -0.22500
N 	N 	0.16230 0.09490 0.90200 -0.21700
N 	N 	0.26530 0.11620 0.63470 -0.14900
N 	N 	0.43050 0.31630 0.82780 -0.12600
N 	N 	0.64450 0.58400 0.47570 -0.34200
N 	N 	0.55180 0.51200 0.35680 -0.31400
N 	N 	0.98870 0.04670 0.87420 -0.33100
N 	N 	0.02010 0.88450 0.98200 -0.30700
N 	N 	0.58270 0.95150 0.05800 -0.21800
N 	N 	0.50310 0.93570 0.40200 -0.20800
N 	N 	0.74910 0.10000 0.13470 -0.14000
N 	N 	0.35590 0.74170 0.32780 -0.13300
N 	N 	0.44030 0.87980 0.97570 -0.29600
N 	N 	0.63120 0.09140 0.85680 -0.28700
N 	N 	0.57910 0.13710 0.37420 -0.35000
N 	N 	0.63350 0.99790 0.48200 -0.29600
N 	N 	0.50950 0.64070 0.44200 -0.22200
N 	N 	0.83770 0.90510 0.09800 -0.21500
N 	N 	0.73470 0.88380 0.36530 -0.12500
N 	N 	0.56950 0.68370 0.17220 -0.13400
N 	N 	0.35550 0.41600 0.52430 -0.33800
N 	N 	0.44820 0.48800 0.64320 -0.31500
N 	N 	0.01130 0.95330 0.12580 -0.30500
N 	N 	0.97990 0.11550 0.01800 -0.34200
