data_crystal

_cell_length_a 6.56000
_cell_length_b 18.92900
_cell_length_c 11.41100
_cell_angle_alpha 90.00000
_cell_angle_beta  90.00000
_cell_angle_gamma 90.00000

_symmetry_space_group_name_	'P 1'
_symmetry_space_group_name_H-M	'P 1'

loop_
_symmetry_equiv_pos_as_xyz
  x,y,z

loop_
_atom_site_label
_atom_site_type_symbol
_atom_site_fract_x
_atom_site_fract_y
_atom_site_fract_z
_atom_site_charge
La	La	0.13752 0.75286 -0.00000 1.45200
La	La	0.86248 0.24714 -0.00000 1.43300
La	La	0.63752 0.74714 0.50000 1.66100
La	La	0.36248 0.25286 0.50000 1.66700
La	La	0.24753 0.91935 0.50000 1.67700
La	La	0.75247 0.08065 0.50000 1.69600
La	La	0.74753 0.58065 -0.00000 1.51300
La	La	0.25247 0.41935 -0.00000 1.53500
C 	C 	0.25680 0.79409 0.72230 0.24800
C 	C 	0.14540 0.86030 0.77020 0.23700
C 	C 	0.74320 0.20591 0.72230 0.24700
C 	C 	0.85460 0.13970 0.77020 0.23300
C 	C 	0.75680 0.70591 0.77770 0.24000
C 	C 	0.64540 0.63970 0.72980 0.24500
C 	C 	0.24320 0.29409 0.77770 0.24000
C 	C 	0.35460 0.36030 0.72980 0.24900
C 	C 	0.74320 0.20591 0.27770 0.23400
C 	C 	0.85460 0.13970 0.22980 0.24200
C 	C 	0.25680 0.79409 0.27770 0.23500
C 	C 	0.14540 0.86030 0.22980 0.24600
C 	C 	0.24320 0.29409 0.22230 0.25600
C 	C 	0.35460 0.36030 0.27020 0.23500
C 	C 	0.75680 0.70591 0.22230 0.25600
C 	C 	0.64540 0.63970 0.27020 0.23000
N 	N 	0.29520 0.60770 -0.00000 0.07100
N 	N 	0.70480 0.39230 -0.00000 0.07200
N 	N 	0.79520 0.89230 0.50000 0.07600
N 	N 	0.20480 0.10770 0.50000 0.07300
O 	O 	0.26780 0.74215 0.78870 -0.27500
O 	O 	0.32590 0.79918 0.61990 -0.42100
O 	O 	0.07300 0.85572 0.87250 -0.22700
O 	O 	0.13200 0.91312 0.70640 -0.32200
O 	O 	0.73220 0.25785 0.78870 -0.28100
O 	O 	0.67410 0.20082 0.61990 -0.42700
O 	O 	0.92700 0.14428 0.87250 -0.22800
O 	O 	0.86800 0.08688 0.70640 -0.31600
O 	O 	0.76780 0.75785 0.71130 -0.34800
O 	O 	0.82590 0.70082 0.88010 -0.27800
O 	O 	0.57300 0.64428 0.62750 -0.34000
O 	O 	0.63200 0.58688 0.79360 -0.24100
O 	O 	0.23220 0.24215 0.71130 -0.33400
O 	O 	0.17410 0.29918 0.88010 -0.25900
O 	O 	0.42700 0.35572 0.62750 -0.34200
O 	O 	0.36800 0.41312 0.79360 -0.23900
O 	O 	0.73220 0.25785 0.21130 -0.36200
O 	O 	0.67410 0.20082 0.38010 -0.43200
O 	O 	0.92700 0.14428 0.12750 -0.40900
O 	O 	0.86800 0.08688 0.29360 -0.36200
O 	O 	0.26780 0.74215 0.21130 -0.35600
O 	O 	0.32590 0.79918 0.38010 -0.42600
O 	O 	0.07300 0.85572 0.12750 -0.40800
O 	O 	0.13200 0.91312 0.29360 -0.36800
O 	O 	0.23220 0.24215 0.28870 -0.36800
O 	O 	0.17410 0.29918 0.11990 -0.44500
O 	O 	0.42700 0.35572 0.37250 -0.34600
O 	O 	0.36800 0.41312 0.20640 -0.32600
O 	O 	0.76780 0.75785 0.28870 -0.38200
O 	O 	0.82590 0.70082 0.11990 -0.46400
O 	O 	0.57300 0.64428 0.37250 -0.34500
O 	O 	0.63200 0.58688 0.20640 -0.32800
O 	O 	0.10390 0.62190 -0.00000 -0.45000
O 	O 	0.42070 0.66014 -0.00000 -0.42100
O 	O 	0.36280 0.54541 -0.00000 -0.40700
O 	O 	0.89610 0.37810 -0.00000 -0.47300
O 	O 	0.57930 0.33986 -0.00000 -0.42200
O 	O 	0.63720 0.45459 -0.00000 -0.41200
O 	O 	0.60390 0.87810 0.50000 -0.40800
O 	O 	0.92070 0.83986 0.50000 -0.36500
O 	O 	0.86280 0.95459 0.50000 -0.38600
O 	O 	0.39610 0.12190 0.50000 -0.39600
O 	O 	0.07930 0.16014 0.50000 -0.34300
O 	O 	0.13720 0.04541 0.50000 -0.33200
O 	O 	0.50000 -0.00000 0.36310 -0.30200
O 	O 	-0.00000 0.50000 0.13690 -0.29000
O 	O 	0.50000 0.00000 0.63690 -0.26300
O 	O 	-0.00000 0.50000 0.86310 -0.12400
