data_crystal

_cell_length_a 9.60500
_cell_length_b 21.27800
_cell_length_c 16.74700
_cell_angle_alpha 90.00000
_cell_angle_beta  91.46400
_cell_angle_gamma 90.00000

_symmetry_space_group_name_	'P 1'
_symmetry_space_group_name_H-M	'P 1'

loop_
_symmetry_equiv_pos_as_xyz
  x,y,z

loop_
_atom_site_label
_atom_site_type_symbol
_atom_site_fract_x
_atom_site_fract_y
_atom_site_fract_z
_atom_site_charge
U 	U 	0.78101 0.24148 0.96260 0.01800
U 	U 	0.70895 0.24190 0.51626 0.01800
U 	U 	0.24392 0.13977 0.74296 0.02000
P 	P 	0.53180 0.34370 0.05641 0.42100
P 	P 	0.95750 0.34748 0.42830 0.44200
P 	P 	0.50000 0.14147 0.57761 0.39300
P 	P 	0.98970 0.13760 0.90717 0.41000
O 	O 	0.64760 0.32420 0.00270 -0.17000
O 	O 	0.41930 0.29270 0.06370 -0.15300
O 	O 	0.58800 0.36050 0.13920 -0.16500
O 	O 	0.84130 0.32640 0.48130 -0.16800
O 	O 	0.06670 0.29600 0.41700 -0.16100
O 	O 	0.89980 0.36760 0.34720 -0.16500
O 	O 	0.65650 0.14730 0.58850 -0.17300
O 	O 	0.45950 0.19530 0.51990 -0.14100
O 	O 	0.42590 0.14680 0.65620 -0.15400
O 	O 	0.03130 0.19640 0.95520 -0.14700
O 	O 	0.83410 0.14540 0.89220 -0.17300
O 	O 	0.06770 0.13080 0.83040 -0.16400
C 	C 	0.44690 0.41300 0.01730 -0.26200
H 	H 	0.40560 0.40300 0.96540 0.13900
H 	H 	0.37160 0.42400 0.05230 0.14000
C 	C 	0.54040 0.47060 0.00830 -0.05400
H 	H 	0.59600 0.47610 0.05700 0.07100
H 	H 	0.60360 0.46330 0.96500 0.06800
C 	C 	0.04440 0.41380 0.47220 -0.31000
H 	H 	0.08850 0.40040 0.52210 0.14900
H 	H 	0.11800 0.42650 0.43700 0.15100
C 	C 	0.95600 0.47150 0.48930 0.01600
H 	H 	0.89810 0.48110 0.44260 0.05100
H 	H 	0.89500 0.46220 0.53300 0.04900
C 	C 	0.02840 0.06950 0.96510 -0.07600
C 	C 	0.98500 0.01060 0.93220 0.04300
C 	C 	0.45560 0.06790 0.53310 -0.05500
C 	C 	0.50700 0.01190 0.57580 0.03000
C 	C 	0.52800 0.05570 0.46260 0.03300
C 	C 	0.96600 0.05600 0.03390 0.05400
U 	U 	0.71899 0.74148 0.53740 0.01800
U 	U 	0.79105 0.74190 0.98374 0.01900
U 	U 	0.25608 0.63977 0.75704 0.02000
P 	P 	0.96820 0.84370 0.44359 0.44000
P 	P 	0.54250 0.84748 0.07170 0.42500
P 	P 	0.00000 0.64147 0.92239 0.38900
P 	P 	0.51030 0.63760 0.59283 0.39600
O 	O 	0.85240 0.82420 0.49730 -0.17000
O 	O 	0.08070 0.79270 0.43630 -0.16000
O 	O 	0.91200 0.86050 0.36080 -0.16400
O 	O 	0.65870 0.82640 0.01870 -0.16800
O 	O 	0.43330 0.79600 0.08300 -0.15400
O 	O 	0.60020 0.86760 0.15280 -0.16600
O 	O 	0.84350 0.64730 0.91150 -0.17000
O 	O 	0.04050 0.69530 0.98010 -0.14300
O 	O 	0.07410 0.64680 0.84380 -0.15500
O 	O 	0.46870 0.69640 0.54480 -0.14100
O 	O 	0.66590 0.64540 0.60780 -0.17100
O 	O 	0.43230 0.63080 0.66960 -0.15800
C 	C 	0.05310 0.91300 0.48270 -0.30600
H 	H 	0.09440 0.90300 0.53460 0.14900
H 	H 	0.12840 0.92400 0.44770 0.15100
C 	C 	0.95960 0.97060 0.49170 0.01700
H 	H 	0.90400 0.97610 0.44300 0.05300
H 	H 	0.89640 0.96330 0.53500 0.04900
C 	C 	0.45560 0.91380 0.02780 -0.26600
H 	H 	0.41150 0.90040 0.97790 0.14000
H 	H 	0.38200 0.92650 0.06300 0.14000
C 	C 	0.54400 0.97150 0.01070 -0.05000
H 	H 	0.60190 0.98110 0.05740 0.06900
H 	H 	0.60500 0.96220 0.96700 0.06700
C 	C 	0.47160 0.56950 0.53490 -0.05700
C 	C 	0.51500 0.51060 0.56780 0.02700
C 	C 	0.04440 0.56790 0.96690 -0.06900
C 	C 	0.99300 0.51190 0.92420 0.04500
C 	C 	0.97200 0.55570 0.03740 0.05100
C 	C 	0.53400 0.55600 0.46610 0.03800
U 	U 	0.21899 0.75852 0.03740 0.01400
U 	U 	0.29105 0.75810 0.48374 0.01700
U 	U 	0.75608 0.86023 0.25704 0.02200
P 	P 	0.46820 0.65630 0.94359 0.42300
P 	P 	0.04250 0.65252 0.57170 0.40800
P 	P 	0.50000 0.85853 0.42239 0.39300
P 	P 	0.01030 0.86240 0.09283 0.37300
O 	O 	0.35240 0.67580 0.99730 -0.16900
O 	O 	0.58070 0.70730 0.93630 -0.15100
O 	O 	0.41200 0.63950 0.86080 -0.16500
O 	O 	0.15870 0.67360 0.51870 -0.16700
O 	O 	0.93330 0.70400 0.58300 -0.14500
O 	O 	0.10020 0.63240 0.65280 -0.16600
O 	O 	0.34350 0.85270 0.41150 -0.17500
O 	O 	0.54050 0.80470 0.48010 -0.14100
O 	O 	0.57410 0.85320 0.34380 -0.15300
O 	O 	0.96870 0.80360 0.04480 -0.13100
O 	O 	0.16590 0.85460 0.10780 -0.17100
O 	O 	0.93230 0.86920 0.16960 -0.14800
C 	C 	0.55310 0.58700 0.98270 -0.26500
H 	H 	0.59440 0.59700 0.03460 0.13800
H 	H 	0.62840 0.57600 0.94770 0.14100
C 	C 	0.45960 0.52940 0.99170 -0.03500
H 	H 	0.40400 0.52390 0.94300 0.06600
H 	H 	0.39640 0.53670 0.03500 0.06100
C 	C 	0.95560 0.58620 0.52780 -0.22400
H 	H 	0.91150 0.59960 0.47790 0.12900
H 	H 	0.88200 0.57350 0.56300 0.13000
C 	C 	0.04400 0.52850 0.51070 -0.10300
H 	H 	0.10190 0.51890 0.55740 0.08200
H 	H 	0.10500 0.53780 0.46700 0.08000
C 	C 	0.97160 0.93050 0.03490 -0.02700
C 	C 	0.01500 0.98940 0.06780 0.00400
C 	C 	0.54440 0.93210 0.46690 -0.05300
C 	C 	0.49300 0.98810 0.42420 0.02900
C 	C 	0.47200 0.94430 0.53740 0.03200
C 	C 	0.03400 0.94400 0.96610 0.01800
U 	U 	0.28101 0.25852 0.46260 0.01700
U 	U 	0.20895 0.25810 0.01626 0.01500
U 	U 	0.74392 0.36023 0.24296 0.02200
P 	P 	0.03180 0.15630 0.55641 0.40800
P 	P 	0.45750 0.15252 0.92830 0.42500
P 	P 	-0.00000 0.35853 0.07761 0.37200
P 	P 	0.48970 0.36240 0.40717 0.39600
O 	O 	0.14760 0.17580 0.50270 -0.16900
O 	O 	0.91930 0.20730 0.56370 -0.14400
O 	O 	0.08800 0.13950 0.63920 -0.16500
O 	O 	0.34130 0.17360 0.98130 -0.16700
O 	O 	0.56670 0.20400 0.91700 -0.15200
O 	O 	0.39980 0.13240 0.84720 -0.16600
O 	O 	0.15650 0.35270 0.08850 -0.17300
O 	O 	0.95950 0.30470 0.01990 -0.13200
O 	O 	0.92590 0.35320 0.15620 -0.14500
O 	O 	0.53130 0.30360 0.45520 -0.14100
O 	O 	0.33410 0.35460 0.39220 -0.17400
O 	O 	0.56770 0.36920 0.33040 -0.15800
C 	C 	0.94690 0.08700 0.51730 -0.22200
H 	H 	0.90560 0.09700 0.46540 0.12800
H 	H 	0.87160 0.07600 0.55230 0.13000
C 	C 	0.04040 0.02940 0.50830 -0.10500
H 	H 	0.09600 0.02390 0.55700 0.08400
H 	H 	0.10360 0.03670 0.46500 0.08100
C 	C 	0.54440 0.08620 0.97220 -0.26700
H 	H 	0.58850 0.09960 0.02210 0.13800
H 	H 	0.61800 0.07350 0.93700 0.14100
C 	C 	0.45600 0.02850 0.98930 -0.03400
H 	H 	0.39810 0.01890 0.94260 0.06500
H 	H 	0.39500 0.03780 0.03300 0.06000
C 	C 	0.52840 0.43050 0.46510 -0.05500
C 	C 	0.48500 0.48940 0.43220 0.02500
C 	C 	0.95560 0.43210 0.03310 -0.02900
C 	C 	0.00700 0.48810 0.07580 0.00800
C 	C 	0.02800 0.44430 0.96260 0.01700
C 	C 	0.46600 0.44400 0.53390 0.03500
