data_crystal

_cell_length_a 10.66100
_cell_length_b 11.99800
_cell_length_c 13.87800
_cell_angle_alpha 72.77400
_cell_angle_beta  79.85900
_cell_angle_gamma 81.10600

_symmetry_space_group_name_	'P 1'
_symmetry_space_group_name_H-M	'P 1'

loop_
_symmetry_equiv_pos_as_xyz
  x,y,z

loop_
_atom_site_label
_atom_site_type_symbol
_atom_site_fract_x
_atom_site_fract_y
_atom_site_fract_z
_atom_site_charge
Ni	Ni	-0.00000 0.00000 -0.00000 1.00800
Ni	Ni	0.00000 0.50000 0.50000 1.05700
Mo	Mo	0.87685 0.21404 0.54577 1.15400
Mo	Mo	0.14817 0.01247 0.53183 1.10300
Mo	Mo	0.90915 0.00061 0.74627 1.12700
Mo	Mo	0.09085 0.99939 0.25373 1.16500
Mo	Mo	0.12315 0.78596 0.45423 1.13600
Mo	Mo	0.87851 0.22137 0.26338 1.09400
Mo	Mo	0.12149 0.77863 0.73662 1.04600
Mo	Mo	0.85183 0.98753 0.46817 1.18000
H 	H 	0.61230 0.19260 0.18830 -0.02400
H 	H 	0.25730 0.60170 0.34840 -0.04200
H 	H 	0.48710 0.94580 0.28660 0.02700
H 	H 	0.74270 0.39830 0.65160 -0.03900
H 	H 	0.30370 0.99020 0.03900 -0.02300
H 	H 	0.51890 0.75570 0.39060 0.02600
H 	H 	0.71060 0.82520 0.68450 0.03300
H 	H 	0.05940 0.42220 0.73430 -0.02900
H 	H 	0.07810 0.51810 0.90350 -0.02600
H 	H 	0.37260 0.15390 0.21590 0.00100
H 	H 	0.64060 0.63910 0.85720 0.07000
H 	H 	0.38630 0.74940 0.55280 -0.04900
H 	H 	0.12630 0.44140 0.00590 -0.03100
H 	H 	0.91580 0.65330 0.65920 0.01200
H 	H 	0.22490 0.31370 0.16570 0.03800
H 	H 	0.38770 0.80740 0.81170 0.00200
H 	H 	0.69630 0.00980 0.96100 -0.03600
H 	H 	0.82600 0.24810 0.88280 -0.00800
H 	H 	0.82280 0.95240 0.21430 0.04300
H 	H 	0.17720 0.04760 0.78570 -0.01900
H 	H 	0.73160 0.68520 0.48340 0.00800
H 	H 	0.61200 0.93570 0.33540 0.04100
H 	H 	0.92190 0.48190 0.09650 0.06900
H 	H 	0.26840 0.31480 0.51660 0.00400
H 	H 	0.88050 0.77710 0.97950 0.03600
H 	H 	0.08420 0.34670 0.34080 -0.03800
H 	H 	0.46090 0.25060 0.72230 0.05500
H 	H 	0.11950 0.22290 0.02050 -0.05800
H 	H 	0.53910 0.74940 0.27770 0.04800
H 	H 	0.28940 0.17480 0.31550 0.01300
H 	H 	0.77510 0.68630 0.83430 0.05800
H 	H 	0.94060 0.57780 0.26570 0.02800
H 	H 	0.38800 0.06430 0.66460 0.01000
H 	H 	0.17400 0.75190 0.11720 -0.00600
H 	H 	0.35940 0.36090 0.14280 0.05100
H 	H 	0.87370 0.55860 0.99410 0.12200
H 	H 	0.62740 0.84610 0.78410 0.03600
H 	H 	0.48110 0.24430 0.60940 0.02700
H 	H 	0.51290 0.05420 0.71340 -0.00300
H 	H 	0.61370 0.25060 0.44720 -0.05200
C 	C 	0.35180 0.20760 0.25810 -0.02900
C 	C 	0.76990 0.96030 0.16550 0.08500
C 	C 	0.14350 0.40030 0.32840 0.09300
C 	C 	0.57470 0.90900 0.28830 -0.04500
C 	C 	0.70530 0.67470 0.80320 -0.06700
C 	C 	0.11090 0.73300 0.08810 0.06400
C 	C 	0.29860 0.00850 0.96980 0.11000
C 	C 	0.76230 0.67040 0.42090 0.09800
C 	C 	0.23800 0.53760 0.33140 0.10700
C 	C 	0.41270 0.79100 0.74920 0.07000
C 	C 	0.76200 0.46240 0.66860 0.11500
C 	C 	0.42530 0.09100 0.71170 -0.02300
C 	C 	0.05190 0.46650 0.97020 0.05700
C 	C 	0.58550 0.24100 0.39070 0.08900
C 	C 	0.23010 0.03970 0.83450 0.06800
C 	C 	0.58730 0.20900 0.25080 0.05700
C 	C 	0.64820 0.79240 0.74190 -0.03900
C 	C 	0.04870 0.25190 0.98630 0.07600
C 	C 	0.70140 0.99150 0.03020 0.11000
C 	C 	0.88910 0.26700 0.91190 0.10900
C 	C 	0.87320 0.61420 0.30170 0.09800
C 	C 	0.41450 0.75900 0.60930 0.10000
C 	C 	0.57460 0.77540 0.32610 -0.05500
C 	C 	0.94810 0.53350 0.02980 -0.17200
C 	C 	0.29470 0.32530 0.19680 -0.06400
C 	C 	0.42540 0.22460 0.67390 -0.07100
C 	C 	0.95130 0.74810 0.01370 0.07200
C 	C 	0.12680 0.38580 0.69830 0.08200
C 	C 	0.23770 0.32960 0.57910 0.08600
C 	C 	0.85650 0.59970 0.67160 0.11000
N 	N 	0.90130 0.37440 0.91180 -0.05700
N 	N 	0.87050 0.60650 0.40210 -0.20400
N 	N 	0.97940 0.18650 0.95950 -0.17000
N 	N 	0.33210 0.77460 0.69020 -0.24700
N 	N 	0.99600 0.63730 0.04180 -0.04800
N 	N 	0.09870 0.62560 0.08820 -0.14400
N 	N 	0.19190 0.01090 0.93530 -0.24800
N 	N 	0.29720 0.28920 0.66030 -0.09100
N 	N 	0.66790 0.22540 0.30980 -0.25400
N 	N 	0.59870 0.96550 0.10170 -0.10100
N 	N 	0.00400 0.36270 0.95820 -0.15500
N 	N 	0.31120 0.49340 0.25970 -0.10000
N 	N 	0.77600 0.67550 0.25970 -0.09200
N 	N 	0.64820 0.94490 0.18600 -0.08400
N 	N 	0.35180 0.05510 0.81400 -0.09500
N 	N 	0.86520 0.51810 0.62360 -0.21800
N 	N 	0.46890 0.22010 0.29550 -0.09900
N 	N 	0.75360 0.59500 0.73880 -0.08400
N 	N 	0.12950 0.39350 0.59790 -0.24200
N 	N 	0.24640 0.40500 0.26120 -0.09000
N 	N 	0.13480 0.48190 0.37640 -0.25500
N 	N 	0.40130 0.03450 0.89830 -0.10600
N 	N 	0.53110 0.77990 0.70450 -0.08900
N 	N 	0.53530 0.75770 0.61330 -0.10700
N 	N 	0.70280 0.71080 0.33970 -0.09100
N 	N 	0.80810 0.98910 0.06470 -0.21800
N 	N 	0.22400 0.32450 0.74030 -0.09800
N 	N 	0.02060 0.81350 0.04050 -0.27700
N 	N 	0.46470 0.24230 0.38670 -0.11200
N 	N 	0.68880 0.50660 0.74030 -0.09400
O 	O 	0.05400 0.16670 0.24580 -0.58500
O 	O 	0.09720 0.16110 0.49960 -0.50300
O 	O 	0.90280 0.83890 0.50040 -0.40800
O 	O 	0.08940 0.97730 0.41910 -0.59400
O 	O 	0.06730 0.83920 0.32250 -0.52700
O 	O 	0.87920 0.02880 0.32470 -0.52300
O 	O 	0.94600 0.83330 0.75420 -0.46300
O 	O 	0.95430 0.99890 0.86020 -0.43700
O 	O 	0.91060 0.02270 0.58090 -0.59300
O 	O 	0.91980 0.35580 0.50020 -0.48600
O 	O 	0.12080 0.97120 0.67530 -0.51800
O 	O 	0.08020 0.64420 0.49980 -0.56500
O 	O 	0.93270 0.16080 0.67750 -0.47600
O 	O 	0.04570 0.00110 0.13980 -0.61700
O 	O 	0.13390 0.82660 0.57580 -0.59900
O 	O 	0.86610 0.17340 0.42420 -0.57200
