data_crystal

_cell_length_a 9.21640
_cell_length_b 10.22480
_cell_length_c 12.60940
_cell_angle_alpha 98.09800
_cell_angle_beta  106.22700
_cell_angle_gamma 106.14700

_symmetry_space_group_name_	'P 1'
_symmetry_space_group_name_H-M	'P 1'

loop_
_symmetry_equiv_pos_as_xyz
  x,y,z

loop_
_atom_site_label
_atom_site_type_symbol
_atom_site_fract_x
_atom_site_fract_y
_atom_site_fract_z
_atom_site_charge
Al	Al	0.51309 0.19975 0.21989 2.39600
Al	Al	0.21272 0.90005 0.48137 2.39600
Al	Al	0.50107 0.70758 0.22639 2.39600
Al	Al	0.78207 0.59730 0.51514 2.39700
O 	O 	0.47990 0.19050 0.07516 -0.68300
O 	O 	0.33520 0.33350 0.98154 -0.45600
H 	H 	0.34100 0.40100 0.95100 0.28400
O 	O 	0.63090 0.44590 0.10015 -0.33900
O 	O 	0.27660 0.95330 0.36684 -0.66500
O 	O 	0.43340 0.82170 0.29889 -0.77800
O 	O 	0.57790 0.06230 0.42891 -0.74400
O 	O 	0.72440 0.57530 0.63765 -0.67300
O 	O 	0.40690 0.03450 0.23094 -0.72400
O 	O 	0.54630 0.27590 0.91358 -0.70500
O 	O 	0.16190 0.72430 0.49898 -0.74600
O 	O 	0.70770 0.74910 0.28435 -0.74700
O 	O 	0.82850 0.77290 0.49465 -0.73500
O 	O 	0.28310 0.75720 0.71128 -0.75600
O 	O 	0.99370 0.64700 0.62148 -0.56800
O 	O 	0.00010 0.84990 0.37374 -0.56600
O 	O 	0.56810 0.68300 0.72679 -0.76200
O 	O 	0.17460 0.51940 0.58165 -0.71600
O 	O 	0.82790 0.98490 0.41858 -0.71400
O 	O 	0.42620 0.45440 0.57799 -0.76200
O 	O 	0.60470 0.46060 0.76782 -0.73000
P 	P 	0.50413 0.31559 0.01993 0.63900
P 	P 	0.15230 0.66154 0.60088 0.74100
P 	P 	0.57582 0.54145 0.67439 0.80500
P 	P 	0.42842 0.96869 0.33447 0.77800
P 	P 	0.84208 0.83939 0.39487 0.73500
Al	Al	0.48691 0.80025 0.78011 2.39700
Al	Al	0.78728 0.09995 0.51863 2.39700
Al	Al	0.49893 0.29242 0.77361 2.39700
Al	Al	0.21793 0.40270 0.48486 2.39800
O 	O 	0.52010 0.80950 0.92484 -0.68300
O 	O 	0.66480 0.66650 0.01846 -0.45600
H 	H 	0.65900 0.59900 0.04900 0.28400
O 	O 	0.36910 0.55410 0.89985 -0.33900
O 	O 	0.72340 0.04670 0.63316 -0.66500
O 	O 	0.56660 0.17830 0.70111 -0.77800
O 	O 	0.42210 0.93770 0.57109 -0.74400
O 	O 	0.27560 0.42470 0.36235 -0.67300
O 	O 	0.59310 0.96550 0.76906 -0.72400
O 	O 	0.45370 0.72410 0.08642 -0.70500
O 	O 	0.83810 0.27570 0.50102 -0.74600
O 	O 	0.29230 0.25090 0.71565 -0.74700
O 	O 	0.17150 0.22710 0.50535 -0.73500
O 	O 	0.71690 0.24280 0.28872 -0.75600
O 	O 	0.00630 0.35300 0.37852 -0.56800
O 	O 	0.99990 0.15010 0.62626 -0.56600
O 	O 	0.43190 0.31700 0.27321 -0.76200
O 	O 	0.82540 0.48060 0.41835 -0.71600
O 	O 	0.17210 0.01510 0.58142 -0.71400
O 	O 	0.57380 0.54560 0.42201 -0.76200
O 	O 	0.39530 0.53940 0.23218 -0.73000
P 	P 	0.49587 0.68441 0.98007 0.63900
P 	P 	0.84770 0.33846 0.39912 0.74100
P 	P 	0.42418 0.45855 0.32561 0.80500
P 	P 	0.57158 0.03131 0.66553 0.77800
P 	P 	0.15792 0.16061 0.60513 0.73500
