data_crystal

_cell_length_a 9.53870
_cell_length_b 10.42500
_cell_length_c 11.59000
_cell_angle_alpha 75.02000
_cell_angle_beta  84.80000
_cell_angle_gamma 80.99000

_symmetry_space_group_name_	'P 1'
_symmetry_space_group_name_H-M	'P 1'

loop_
_symmetry_equiv_pos_as_xyz
  x,y,z

loop_
_atom_site_label
_atom_site_type_symbol
_atom_site_fract_x
_atom_site_fract_y
_atom_site_fract_z
_atom_site_charge
Ca	Ca	0.45791 0.41304 0.36061 1.50600
O 	O 	0.29200 0.60300 0.07500 -0.49300
O 	O 	0.24230 0.48420 0.26000 -0.46900
O 	O 	0.96100 0.51960 0.21455 -0.13100
O 	O 	0.71650 0.43870 0.34042 -0.39900
O 	O 	0.59950 0.50570 0.17438 -0.57100
O 	O 	0.47300 0.77880 0.48232 -0.60200
O 	O 	0.44100 0.62490 0.39060 -0.53300
O 	O 	0.44540 0.97230 0.29813 -0.22000
O 	O 	0.47120 0.21360 0.29618 -0.57800
O 	O 	0.43840 0.28970 0.09922 -0.51500
C 	C 	0.20850 0.55410 0.15940 0.36800
C 	C 	0.05570 0.58390 0.13280 -0.03200
C 	C 	0.98840 0.66000 0.03540 -0.13500
H 	H 	0.02930 0.71400 0.96810 0.14100
C 	C 	0.84390 0.64160 0.05590 0.00800
H 	H 	0.77100 0.68120 0.00460 -0.00700
C 	C 	0.83190 0.55570 0.16380 -0.03200
C 	C 	0.70940 0.49530 0.23140 0.33600
C 	C 	0.44760 0.74250 0.39170 0.42400
C 	C 	0.42390 0.85080 0.28230 -0.08700
C 	C 	0.38540 0.86690 0.17030 0.14100
H 	H 	0.36440 0.80040 0.13700 -0.01900
C 	C 	0.38280 0.00520 0.11250 -0.21000
H 	H 	0.35930 0.04630 0.03410 0.03800
C 	C 	0.42080 0.06560 0.19240 -0.06500
C 	C 	0.44540 0.20140 0.19480 0.37100
Ca	Ca	0.54209 0.58696 0.63939 1.50900
O 	O 	0.70800 0.39700 0.92500 -0.42000
O 	O 	0.75770 0.51580 0.74000 -0.43900
O 	O 	0.03900 0.48040 0.78545 -0.19300
O 	O 	0.28350 0.56130 0.65958 -0.38700
O 	O 	0.40050 0.49430 0.82562 -0.52400
O 	O 	0.52700 0.22120 0.51768 -0.62100
O 	O 	0.55900 0.37510 0.60940 -0.51800
O 	O 	0.55460 0.02770 0.70187 -0.41600
O 	O 	0.52880 0.78640 0.70382 -0.51300
O 	O 	0.56160 0.71030 0.90078 -0.40900
C 	C 	0.79150 0.44590 0.84060 0.36800
C 	C 	0.94430 0.41610 0.86720 0.03200
C 	C 	0.01160 0.34000 0.96460 0.08500
H 	H 	0.97070 0.28600 0.03190 -0.05300
C 	C 	0.15610 0.35840 0.94410 -0.12200
H 	H 	0.22900 0.31880 0.99540 0.11200
C 	C 	0.16810 0.44430 0.83620 0.04700
C 	C 	0.29060 0.50470 0.76860 0.31100
C 	C 	0.55240 0.25750 0.60830 0.36400
C 	C 	0.57610 0.14920 0.71770 0.04600
C 	C 	0.61460 0.13310 0.82970 -0.19700
H 	H 	0.63560 0.19960 0.86300 0.10900
C 	C 	0.61720 0.99480 0.88750 0.11200
H 	H 	0.64070 0.95370 0.96590 0.06400
C 	C 	0.57920 0.93440 0.80760 0.08600
C 	C 	0.55460 0.79860 0.80520 0.35900
Ca	Ca	0.50000 0.00000 0.50000 1.47000
Ca	Ca	0.50000 0.50000 -0.00000 1.50300
