data_crystal

_cell_length_a 12.07460
_cell_length_b 31.40930
_cell_length_c 24.48870
_cell_angle_alpha 90.00000
_cell_angle_beta  96.33000
_cell_angle_gamma 90.00000

_symmetry_space_group_name_	'P 1'
_symmetry_space_group_name_H-M	'P 1'

loop_
_symmetry_equiv_pos_as_xyz
  x,y,z

loop_
_atom_site_label
_atom_site_type_symbol
_atom_site_fract_x
_atom_site_fract_y
_atom_site_fract_z
_atom_site_charge
Zn	Zn	0.59078 0.26391 0.21057 1.20700
Zn	Zn	0.38733 0.27554 0.25825 1.20900
Zn	Zn	0.30342 0.35640 0.57208 1.22100
Zn	Zn	0.20144 0.38537 0.41712 1.23000
N 	N 	0.73430 0.25105 0.17423 -0.20000
N 	N 	0.82240 0.20165 0.11482 -0.20200
N 	N 	0.85860 0.27793 0.10985 -0.09500
N 	N 	0.93420 0.23738 0.19044 -0.09400
C 	C 	0.72130 0.21080 0.14205 -0.03600
H 	H 	0.70740 0.18700 0.16690 0.04100
H 	H 	0.65610 0.21320 0.11390 0.03400
C 	C 	0.83350 0.24635 0.21631 -0.01800
H 	H 	0.84410 0.27290 0.23800 0.03900
H 	H 	0.82010 0.22290 0.24180 0.03900
C 	C 	0.75810 0.28621 0.13597 -0.01800
H 	H 	0.69410 0.28940 0.10730 0.03800
H 	H 	0.76700 0.31330 0.15670 0.03900
C 	C 	0.91920 0.19819 0.15895 -0.01800
H 	H 	0.90600 0.17440 0.18390 0.03700
H 	H 	0.98800 0.19190 0.14190 0.02700
C 	C 	0.84350 0.23823 0.07870 -0.01100
H 	H 	0.91110 0.23240 0.06040 0.03600
H 	H 	0.77990 0.24140 0.04980 0.02900
C 	C 	0.95290 0.27271 0.15309 -0.00200
H 	H 	0.02180 0.26730 0.13580 0.03800
H 	H 	0.96340 0.29940 0.17450 0.04100
N 	N 	0.24960 0.28520 0.29979 -0.20000
N 	N 	0.17190 0.32968 0.36779 -0.19500
N 	N 	0.14590 0.25248 0.36872 -0.09400
N 	N 	0.04850 0.29519 0.29499 -0.09600
C 	C 	0.26520 0.32388 0.33431 -0.03300
H 	H 	0.33580 0.32150 0.35880 0.03700
H 	H 	0.27050 0.34910 0.31050 0.03100
C 	C 	0.23810 0.24750 0.33630 -0.02400
H 	H 	0.22650 0.22150 0.31350 0.04200
H 	H 	0.30790 0.24380 0.36110 0.04500
C 	C 	0.14220 0.28986 0.26284 -0.01400
H 	H 	0.14710 0.31490 0.23860 0.03400
H 	H 	0.13010 0.26430 0.23930 0.03600
C 	C 	0.16320 0.29070 0.40205 -0.01000
H 	H 	0.23250 0.28750 0.42740 0.03200
H 	H 	0.10050 0.29410 0.42450 0.03400
C 	C 	0.06670 0.33290 0.32936 -0.01200
H 	H 	0.00270 0.33670 0.35100 0.03300
H 	H 	0.07070 0.35830 0.30570 0.03300
C 	C 	0.04290 0.25777 0.33060 -0.00400
H 	H 	0.03090 0.23200 0.30740 0.04400
H 	H 	0.97850 0.26080 0.35200 0.04000
O 	O 	0.49060 0.26045 0.32896 -0.44600
O 	O 	0.65030 0.26837 0.29110 -0.46300
C 	C 	0.59510 0.26251 0.33129 0.37000
C 	C 	0.66160 0.25820 0.38656 -0.07900
C 	C 	0.61690 0.23979 0.42941 -0.03100
H 	H 	0.54180 0.23030 0.42470 0.05700
C 	C 	0.68140 0.23456 0.48132 0.02700
C 	C 	0.63830 0.21520 0.52670 -0.08800
H 	H 	0.56470 0.20410 0.52270 0.06300
C 	C 	0.70210 0.21229 0.57640 0.01800
H 	H 	0.67170 0.19960 0.60670 0.03700
C 	C 	0.81260 0.22786 0.58327 -0.08600
C 	C 	0.85660 0.24536 0.53967 -0.02800
H 	H 	0.93180 0.25490 0.54410 0.05500
C 	C 	0.79290 0.24968 0.48788 0.02400
C 	C 	0.83590 0.26944 0.44281 -0.08100
H 	H 	0.91010 0.27990 0.44690 0.06000
C 	C 	0.77230 0.27367 0.39341 0.01300
H 	H 	0.80250 0.28700 0.36360 0.03800
C 	C 	0.87910 0.22627 0.63860 0.37300
O 	O 	0.97970 0.23728 0.64199 -0.46500
O 	O 	0.82760 0.21436 0.67817 -0.45800
O 	O 	0.37100 0.21264 0.24284 -0.45700
O 	O 	0.54670 0.20184 0.22423 -0.45100
C 	C 	0.44960 0.18880 0.23046 0.36200
C 	C 	0.42320 0.14280 0.22091 -0.08200
C 	C 	0.31560 0.12756 0.22670 0.01500
H 	H 	0.26170 0.14620 0.23910 0.03900
C 	C 	0.28760 0.08629 0.21450 -0.08700
H 	H 	0.21440 0.07650 0.21830 0.06400
C 	C 	0.36690 0.05785 0.19620 0.02800
C 	C 	0.34030 0.01531 0.18060 -0.04500
H 	H 	0.26780 0.00470 0.18420 0.06100
C 	C 	0.41720 0.98920 0.16040 -0.06200
C 	C 	0.52520 0.00446 0.15600 0.00500
H 	H 	0.57880 0.98620 0.14260 0.04400
C 	C 	0.55420 0.04511 0.17050 -0.08400
H 	H 	0.62760 0.05490 0.16720 0.07300
C 	C 	0.47580 0.07291 0.19067 0.02900
C 	C 	0.50160 0.11576 0.20379 -0.03600
H 	H 	0.57460 0.12610 0.20070 0.06900
C 	C 	0.38220 0.94605 0.13770 0.30700
O 	O 	0.44860 0.92421 0.11480 -0.37100
O 	O 	0.28440 0.93429 0.13948 -0.41200
O 	O 	0.45420 0.33416 0.26226 -0.47300
O 	O 	0.59250 0.32933 0.20858 -0.45000
C 	C 	0.53350 0.34947 0.23921 0.37400
C 	C 	0.56030 0.39572 0.25023 -0.08300
C 	C 	0.49930 0.41826 0.28449 -0.03200
H 	H 	0.43760 0.40510 0.29860 0.06100
C 	C 	0.52720 0.46080 0.29917 0.02300
C 	C 	0.46840 0.48409 0.33629 -0.08300
H 	H 	0.40500 0.47180 0.34990 0.07200
C 	C 	0.50190 0.52397 0.35260 -0.00000
H 	H 	0.46290 0.53890 0.37830 0.04500
C 	C 	0.59420 0.54327 0.33166 -0.05800
C 	C 	0.64910 0.52254 0.29369 -0.05100
H 	H 	0.70790 0.53650 0.27810 0.06000
C 	C 	0.61940 0.48019 0.27705 0.03200
C 	C 	0.67900 0.45659 0.24100 -0.09000
H 	H 	0.73940 0.46940 0.22540 0.06500
C 	C 	0.65060 0.41539 0.22826 0.01800
H 	H 	0.69220 0.39980 0.20430 0.03900
C 	C 	0.63860 0.58537 0.35430 0.29700
O 	O 	0.71100 0.60510 0.33258 -0.32100
O 	O 	0.59830 0.59859 0.39755 -0.44800
O 	O 	0.36420 0.37704 0.43176 -0.48000
O 	O 	0.38090 0.33915 0.50918 -0.49700
C 	C 	0.42090 0.35972 0.47153 0.39900
C 	C 	0.54470 0.36357 0.47300 -0.10600
C 	C 	0.61220 0.35409 0.51925 -0.01700
H 	H 	0.58020 0.34450 0.55080 0.03900
C 	C 	0.73030 0.35822 0.52158 0.02700
C 	C 	0.80160 0.34886 0.56930 -0.09500
H 	H 	0.77100 0.34070 0.60190 0.06800
C 	C 	0.91410 0.35137 0.56924 0.04200
H 	H 	0.96180 0.34500 0.60170 0.03500
C 	C 	0.96010 0.36350 0.52080 -0.12900
C 	C 	0.89250 0.37360 0.47440 -0.01100
H 	H 	0.92430 0.38220 0.44240 0.05300
C 	C 	0.77500 0.37140 0.47340 0.02100
C 	C 	0.70330 0.38220 0.42580 -0.08700
H 	H 	0.73350 0.39270 0.39420 0.06700
C 	C 	0.59110 0.37760 0.42510 0.02800
H 	H 	0.54350 0.38370 0.39260 0.03900
C 	C 	0.08280 0.36332 0.52001 0.46700
O 	O 	0.14180 0.36070 0.56480 -0.50100
O 	O 	0.11630 0.35560 0.47510 -0.29800
O 	O 	0.13260 0.38550 0.47870 -0.35200
Zn	Zn	0.90922 0.76391 0.28943 1.20800
Zn	Zn	0.11267 0.77554 0.24175 1.21000
Zn	Zn	0.19658 0.85640 0.92792 1.22100
Zn	Zn	0.29856 0.88537 0.08288 1.23000
N 	N 	0.76570 0.75105 0.32577 -0.20000
N 	N 	0.67760 0.70165 0.38518 -0.20200
N 	N 	0.64140 0.77793 0.39015 -0.09500
N 	N 	0.56580 0.73738 0.30956 -0.09400
C 	C 	0.77870 0.71080 0.35795 -0.03600
H 	H 	0.79260 0.68700 0.33310 0.04100
H 	H 	0.84390 0.71320 0.38610 0.03400
C 	C 	0.66650 0.74635 0.28369 -0.01800
H 	H 	0.65590 0.77290 0.26200 0.03900
H 	H 	0.67990 0.72290 0.25820 0.03900
C 	C 	0.74190 0.78621 0.36403 -0.01800
H 	H 	0.80590 0.78940 0.39270 0.03800
H 	H 	0.73300 0.81330 0.34330 0.03900
C 	C 	0.58080 0.69819 0.34105 -0.01800
H 	H 	0.59400 0.67440 0.31610 0.03700
H 	H 	0.51200 0.69190 0.35810 0.02700
C 	C 	0.65650 0.73823 0.42130 -0.01100
H 	H 	0.58890 0.73240 0.43960 0.03600
H 	H 	0.72010 0.74140 0.45020 0.02900
C 	C 	0.54710 0.77271 0.34691 -0.00300
H 	H 	0.47820 0.76730 0.36420 0.03900
H 	H 	0.53660 0.79940 0.32550 0.04100
N 	N 	0.25040 0.78520 0.20021 -0.20000
N 	N 	0.32810 0.82968 0.13221 -0.19500
N 	N 	0.35410 0.75248 0.13128 -0.09400
N 	N 	0.45150 0.79519 0.20501 -0.09600
C 	C 	0.23480 0.82388 0.16569 -0.03300
H 	H 	0.16420 0.82150 0.14120 0.03700
H 	H 	0.22950 0.84910 0.18950 0.03100
C 	C 	0.26190 0.74750 0.16370 -0.02400
H 	H 	0.27350 0.72150 0.18650 0.04200
H 	H 	0.19210 0.74380 0.13890 0.04500
C 	C 	0.35780 0.78986 0.23716 -0.01400
H 	H 	0.35290 0.81490 0.26140 0.03500
H 	H 	0.36990 0.76430 0.26070 0.03700
C 	C 	0.33680 0.79070 0.09795 -0.01100
H 	H 	0.26750 0.78750 0.07260 0.03200
H 	H 	0.39950 0.79410 0.07550 0.03400
C 	C 	0.43330 0.83290 0.17064 -0.01200
H 	H 	0.49730 0.83670 0.14900 0.03300
H 	H 	0.42930 0.85830 0.19430 0.03300
C 	C 	0.45710 0.75777 0.16940 -0.00300
H 	H 	0.46910 0.73200 0.19260 0.04300
H 	H 	0.52150 0.76080 0.14800 0.03900
O 	O 	0.00940 0.76045 0.17104 -0.44500
O 	O 	0.84970 0.76837 0.20890 -0.46200
C 	C 	0.90490 0.76251 0.16871 0.36900
C 	C 	0.83840 0.75820 0.11344 -0.07800
C 	C 	0.88310 0.73979 0.07059 -0.03100
H 	H 	0.95820 0.73030 0.07530 0.05600
C 	C 	0.81860 0.73456 0.01868 0.02700
C 	C 	0.86170 0.71520 0.97330 -0.08800
H 	H 	0.93530 0.70410 0.97730 0.06300
C 	C 	0.79790 0.71229 0.92360 0.01800
H 	H 	0.82830 0.69960 0.89330 0.03700
C 	C 	0.68740 0.72786 0.91673 -0.08600
C 	C 	0.64340 0.74536 0.96033 -0.02800
H 	H 	0.56820 0.75490 0.95590 0.05500
C 	C 	0.70710 0.74968 0.01212 0.02400
C 	C 	0.66410 0.76944 0.05719 -0.08100
H 	H 	0.58990 0.77990 0.05310 0.06000
C 	C 	0.72770 0.77367 0.10659 0.01300
H 	H 	0.69750 0.78700 0.13640 0.03800
C 	C 	0.62090 0.72627 0.86140 0.37300
O 	O 	0.52030 0.73728 0.85801 -0.46600
O 	O 	0.67240 0.71436 0.82183 -0.45800
O 	O 	0.12900 0.71264 0.25716 -0.45700
O 	O 	0.95330 0.70184 0.27577 -0.45200
C 	C 	0.05040 0.68880 0.26954 0.36300
C 	C 	0.07680 0.64280 0.27909 -0.08000
C 	C 	0.18440 0.62756 0.27330 0.01300
H 	H 	0.23830 0.64620 0.26090 0.04000
C 	C 	0.21240 0.58629 0.28550 -0.08500
H 	H 	0.28560 0.57650 0.28170 0.06300
C 	C 	0.13310 0.55785 0.30380 0.02600
C 	C 	0.15970 0.51531 0.31940 -0.04300
H 	H 	0.23220 0.50470 0.31580 0.06000
C 	C 	0.08280 0.48920 0.33960 -0.06300
C 	C 	0.97480 0.50446 0.34400 0.00600
H 	H 	0.92120 0.48620 0.35740 0.04400
C 	C 	0.94580 0.54511 0.32950 -0.08600
H 	H 	0.87240 0.55490 0.33280 0.07400
C 	C 	0.02420 0.57291 0.30933 0.03300
C 	C 	0.99840 0.61576 0.29621 -0.04000
H 	H 	0.92540 0.62610 0.29930 0.07000
C 	C 	0.11780 0.44605 0.36230 0.30700
O 	O 	0.05140 0.42421 0.38520 -0.37100
O 	O 	0.21560 0.43429 0.36052 -0.41200
O 	O 	0.04580 0.83416 0.23774 -0.47200
O 	O 	0.90750 0.82933 0.29142 -0.45000
C 	C 	0.96650 0.84947 0.26079 0.37300
C 	C 	0.93970 0.89572 0.24977 -0.08500
C 	C 	0.00070 0.91826 0.21551 -0.02900
H 	H 	0.06240 0.90510 0.20140 0.06000
C 	C 	0.97280 0.96080 0.20083 0.02000
C 	C 	0.03160 0.98409 0.16371 -0.08000
H 	H 	0.09500 0.97180 0.15010 0.07100
C 	C 	0.99810 0.02397 0.14740 -0.00100
H 	H 	0.03710 0.03890 0.12170 0.04500
C 	C 	0.90580 0.04327 0.16834 -0.05700
C 	C 	0.85090 0.02254 0.20631 -0.05200
H 	H 	0.79210 0.03650 0.22190 0.06100
C 	C 	0.88060 0.98019 0.22295 0.03300
C 	C 	0.82100 0.95659 0.25900 -0.09200
H 	H 	0.76060 0.96940 0.27460 0.06500
C 	C 	0.84940 0.91539 0.27174 0.02000
H 	H 	0.80780 0.89980 0.29570 0.03800
C 	C 	0.86140 0.08537 0.14570 0.29700
O 	O 	0.78900 0.10510 0.16742 -0.32000
O 	O 	0.90170 0.09859 0.10245 -0.44800
O 	O 	0.13580 0.87704 0.06824 -0.48000
O 	O 	0.11910 0.83915 0.99082 -0.49700
C 	C 	0.07910 0.85972 0.02847 0.40000
C 	C 	0.95530 0.86357 0.02700 -0.10800
C 	C 	0.88780 0.85409 0.98075 -0.01600
H 	H 	0.91980 0.84450 0.94920 0.03900
C 	C 	0.76970 0.85822 0.97842 0.02700
C 	C 	0.69840 0.84886 0.93070 -0.09500
H 	H 	0.72900 0.84070 0.89810 0.06800
C 	C 	0.58590 0.85137 0.93076 0.04200
H 	H 	0.53820 0.84500 0.89830 0.03500
C 	C 	0.53990 0.86350 0.97920 -0.13000
C 	C 	0.60750 0.87360 0.02560 -0.01000
H 	H 	0.57570 0.88220 0.05760 0.05300
C 	C 	0.72500 0.87140 0.02660 0.02100
C 	C 	0.79670 0.88220 0.07420 -0.08800
H 	H 	0.76650 0.89270 0.10580 0.06700
C 	C 	0.90890 0.87760 0.07490 0.02900
H 	H 	0.95650 0.88370 0.10740 0.03800
C 	C 	0.41720 0.86332 0.97999 0.46800
O 	O 	0.35820 0.86070 0.93520 -0.50100
O 	O 	0.38370 0.85560 0.02490 -0.29800
O 	O 	0.36740 0.88550 0.02130 -0.35200
Zn	Zn	0.40922 0.73609 0.78943 1.20800
Zn	Zn	0.61267 0.72446 0.74175 1.21000
Zn	Zn	0.69658 0.64360 0.42792 1.22100
Zn	Zn	0.79856 0.61463 0.58288 1.23000
N 	N 	0.26570 0.74895 0.82577 -0.20000
N 	N 	0.17760 0.79835 0.88518 -0.20200
N 	N 	0.14140 0.72207 0.89015 -0.09500
N 	N 	0.06580 0.76262 0.80956 -0.09400
C 	C 	0.27870 0.78920 0.85795 -0.03600
H 	H 	0.29260 0.81300 0.83310 0.04100
H 	H 	0.34390 0.78680 0.88610 0.03400
C 	C 	0.16650 0.75365 0.78369 -0.01800
H 	H 	0.15590 0.72710 0.76200 0.03900
H 	H 	0.17990 0.77710 0.75820 0.03900
C 	C 	0.24190 0.71379 0.86403 -0.01800
H 	H 	0.30590 0.71060 0.89270 0.03800
H 	H 	0.23300 0.68670 0.84330 0.03900
C 	C 	0.08080 0.80181 0.84105 -0.01800
H 	H 	0.09400 0.82560 0.81610 0.03700
H 	H 	0.01200 0.80810 0.85810 0.02700
C 	C 	0.15650 0.76177 0.92130 -0.01100
H 	H 	0.08890 0.76760 0.93960 0.03600
H 	H 	0.22010 0.75860 0.95020 0.02900
C 	C 	0.04710 0.72729 0.84691 -0.00200
H 	H 	0.97820 0.73270 0.86420 0.03800
H 	H 	0.03660 0.70060 0.82550 0.04100
N 	N 	0.75040 0.71480 0.70021 -0.20000
N 	N 	0.82810 0.67032 0.63221 -0.19500
N 	N 	0.85410 0.74752 0.63128 -0.09400
N 	N 	0.95150 0.70481 0.70501 -0.09600
C 	C 	0.73480 0.67612 0.66569 -0.03300
H 	H 	0.66420 0.67850 0.64120 0.03700
H 	H 	0.72950 0.65090 0.68950 0.03100
C 	C 	0.76190 0.75250 0.66370 -0.02400
H 	H 	0.77350 0.77850 0.68650 0.04200
H 	H 	0.69210 0.75620 0.63890 0.04500
C 	C 	0.85780 0.71014 0.73716 -0.01400
H 	H 	0.85290 0.68510 0.76140 0.03400
H 	H 	0.86990 0.73570 0.76070 0.03600
C 	C 	0.83680 0.70930 0.59795 -0.01000
H 	H 	0.76750 0.71250 0.57260 0.03200
H 	H 	0.89950 0.70590 0.57550 0.03400
C 	C 	0.93330 0.66710 0.67064 -0.01200
H 	H 	0.99730 0.66330 0.64900 0.03300
H 	H 	0.92930 0.64170 0.69430 0.03300
C 	C 	0.95710 0.74223 0.66940 -0.00400
H 	H 	0.96910 0.76800 0.69260 0.04400
H 	H 	0.02150 0.73920 0.64800 0.04000
O 	O 	0.50940 0.73955 0.67104 -0.44600
O 	O 	0.34970 0.73163 0.70890 -0.46300
C 	C 	0.40490 0.73749 0.66871 0.37000
C 	C 	0.33840 0.74180 0.61344 -0.07900
C 	C 	0.38310 0.76021 0.57059 -0.03100
H 	H 	0.45820 0.76970 0.57530 0.05700
C 	C 	0.31860 0.76544 0.51868 0.02700
C 	C 	0.36170 0.78480 0.47330 -0.08800
H 	H 	0.43530 0.79590 0.47730 0.06300
C 	C 	0.29790 0.78771 0.42360 0.01800
H 	H 	0.32830 0.80040 0.39330 0.03700
C 	C 	0.18740 0.77214 0.41673 -0.08600
C 	C 	0.14340 0.75464 0.46033 -0.02800
H 	H 	0.06820 0.74510 0.45590 0.05500
C 	C 	0.20710 0.75032 0.51212 0.02400
C 	C 	0.16410 0.73056 0.55719 -0.08100
H 	H 	0.08990 0.72010 0.55310 0.06000
C 	C 	0.22770 0.72633 0.60659 0.01300
H 	H 	0.19750 0.71300 0.63640 0.03800
C 	C 	0.12090 0.77373 0.36140 0.37300
O 	O 	0.02030 0.76272 0.35801 -0.46500
O 	O 	0.17240 0.78564 0.32183 -0.45800
O 	O 	0.62900 0.78736 0.75716 -0.45700
O 	O 	0.45330 0.79816 0.77577 -0.45100
C 	C 	0.55040 0.81120 0.76954 0.36200
C 	C 	0.57680 0.85720 0.77909 -0.08200
C 	C 	0.68440 0.87244 0.77330 0.01500
H 	H 	0.73830 0.85380 0.76090 0.03900
C 	C 	0.71240 0.91371 0.78550 -0.08700
H 	H 	0.78560 0.92350 0.78170 0.06400
C 	C 	0.63310 0.94215 0.80380 0.02800
C 	C 	0.65970 0.98469 0.81940 -0.04500
H 	H 	0.73220 0.99530 0.81580 0.06100
C 	C 	0.58280 0.01080 0.83960 -0.06200
C 	C 	0.47480 0.99554 0.84400 0.00500
H 	H 	0.42120 0.01380 0.85740 0.04400
C 	C 	0.44580 0.95489 0.82950 -0.08400
H 	H 	0.37240 0.94510 0.83280 0.07300
C 	C 	0.52420 0.92709 0.80933 0.02900
C 	C 	0.49840 0.88424 0.79621 -0.03600
H 	H 	0.42540 0.87390 0.79930 0.06900
C 	C 	0.61780 0.05395 0.86230 0.30700
O 	O 	0.55140 0.07579 0.88520 -0.37100
O 	O 	0.71560 0.06571 0.86052 -0.41200
O 	O 	0.54580 0.66584 0.73774 -0.47300
O 	O 	0.40750 0.67067 0.79142 -0.45000
C 	C 	0.46650 0.65053 0.76079 0.37400
C 	C 	0.43970 0.60428 0.74977 -0.08300
C 	C 	0.50070 0.58174 0.71551 -0.03200
H 	H 	0.56240 0.59490 0.70140 0.06100
C 	C 	0.47280 0.53920 0.70083 0.02300
C 	C 	0.53160 0.51591 0.66371 -0.08300
H 	H 	0.59500 0.52820 0.65010 0.07200
C 	C 	0.49810 0.47603 0.64740 -0.00000
H 	H 	0.53710 0.46110 0.62170 0.04500
C 	C 	0.40580 0.45673 0.66834 -0.05800
C 	C 	0.35090 0.47746 0.70631 -0.05100
H 	H 	0.29210 0.46350 0.72190 0.06000
C 	C 	0.38060 0.51981 0.72295 0.03200
C 	C 	0.32100 0.54341 0.75900 -0.09000
H 	H 	0.26060 0.53060 0.77460 0.06500
C 	C 	0.34940 0.58461 0.77174 0.01800
H 	H 	0.30780 0.60020 0.79570 0.03900
C 	C 	0.36140 0.41463 0.64570 0.29700
O 	O 	0.28900 0.39490 0.66742 -0.32100
O 	O 	0.40170 0.40141 0.60245 -0.44800
O 	O 	0.63580 0.62296 0.56824 -0.48000
O 	O 	0.61910 0.66085 0.49082 -0.49700
C 	C 	0.57910 0.64028 0.52847 0.39900
C 	C 	0.45530 0.63643 0.52700 -0.10600
C 	C 	0.38780 0.64591 0.48075 -0.01700
H 	H 	0.41980 0.65550 0.44920 0.03900
C 	C 	0.26970 0.64178 0.47842 0.02700
C 	C 	0.19840 0.65114 0.43070 -0.09500
H 	H 	0.22900 0.65930 0.39810 0.06800
C 	C 	0.08590 0.64863 0.43076 0.04200
H 	H 	0.03820 0.65500 0.39830 0.03500
C 	C 	0.03990 0.63650 0.47920 -0.12900
C 	C 	0.10750 0.62640 0.52560 -0.01100
H 	H 	0.07570 0.61780 0.55760 0.05300
C 	C 	0.22500 0.62860 0.52660 0.02100
C 	C 	0.29670 0.61780 0.57420 -0.08700
H 	H 	0.26650 0.60730 0.60580 0.06700
C 	C 	0.40890 0.62240 0.57490 0.02800
H 	H 	0.45650 0.61630 0.60740 0.03900
C 	C 	0.91720 0.63668 0.47999 0.46700
O 	O 	0.85820 0.63930 0.43520 -0.50100
O 	O 	0.88370 0.64440 0.52490 -0.29800
O 	O 	0.86740 0.61450 0.52130 -0.35200
Zn	Zn	0.09078 0.23609 0.71057 1.20800
Zn	Zn	0.88733 0.22446 0.75825 1.21000
Zn	Zn	0.80342 0.14360 0.07208 1.22100
Zn	Zn	0.70144 0.11463 0.91712 1.23000
N 	N 	0.23430 0.24895 0.67423 -0.20000
N 	N 	0.32240 0.29835 0.61482 -0.20200
N 	N 	0.35860 0.22207 0.60985 -0.09500
N 	N 	0.43420 0.26262 0.69044 -0.09400
C 	C 	0.22130 0.28920 0.64205 -0.03600
H 	H 	0.20740 0.31300 0.66690 0.04100
H 	H 	0.15610 0.28680 0.61390 0.03400
C 	C 	0.33350 0.25365 0.71631 -0.01800
H 	H 	0.34410 0.22710 0.73800 0.03900
H 	H 	0.32010 0.27710 0.74180 0.03900
C 	C 	0.25810 0.21379 0.63597 -0.01800
H 	H 	0.19410 0.21060 0.60730 0.03800
H 	H 	0.26700 0.18670 0.65670 0.03900
C 	C 	0.41920 0.30181 0.65895 -0.01800
H 	H 	0.40600 0.32560 0.68390 0.03700
H 	H 	0.48800 0.30810 0.64190 0.02700
C 	C 	0.34350 0.26177 0.57870 -0.01100
H 	H 	0.41110 0.26760 0.56040 0.03600
H 	H 	0.27990 0.25860 0.54980 0.02900
C 	C 	0.45290 0.22729 0.65309 -0.00300
H 	H 	0.52180 0.23270 0.63580 0.03900
H 	H 	0.46340 0.20060 0.67450 0.04100
N 	N 	0.74960 0.21480 0.79979 -0.20000
N 	N 	0.67190 0.17032 0.86779 -0.19500
N 	N 	0.64590 0.24752 0.86872 -0.09400
N 	N 	0.54850 0.20481 0.79499 -0.09600
C 	C 	0.76520 0.17612 0.83431 -0.03300
H 	H 	0.83580 0.17850 0.85880 0.03700
H 	H 	0.77050 0.15090 0.81050 0.03100
C 	C 	0.73810 0.25250 0.83630 -0.02400
H 	H 	0.72650 0.27850 0.81350 0.04200
H 	H 	0.80790 0.25620 0.86110 0.04500
C 	C 	0.64220 0.21014 0.76284 -0.01400
H 	H 	0.64710 0.18510 0.73860 0.03500
H 	H 	0.63010 0.23570 0.73930 0.03700
C 	C 	0.66320 0.20930 0.90205 -0.01100
H 	H 	0.73250 0.21250 0.92740 0.03200
H 	H 	0.60050 0.20590 0.92450 0.03400
C 	C 	0.56670 0.16710 0.82936 -0.01200
H 	H 	0.50270 0.16330 0.85100 0.03300
H 	H 	0.57070 0.14170 0.80570 0.03300
C 	C 	0.54290 0.24223 0.83060 -0.00300
H 	H 	0.53090 0.26800 0.80740 0.04300
H 	H 	0.47850 0.23920 0.85200 0.03900
O 	O 	0.99060 0.23955 0.82896 -0.44500
O 	O 	0.15030 0.23163 0.79110 -0.46200
C 	C 	0.09510 0.23749 0.83129 0.36900
C 	C 	0.16160 0.24180 0.88656 -0.07800
C 	C 	0.11690 0.26021 0.92941 -0.03100
H 	H 	0.04180 0.26970 0.92470 0.05600
C 	C 	0.18140 0.26544 0.98132 0.02700
C 	C 	0.13830 0.28480 0.02670 -0.08800
H 	H 	0.06470 0.29590 0.02270 0.06300
C 	C 	0.20210 0.28771 0.07640 0.01800
H 	H 	0.17170 0.30040 0.10670 0.03700
C 	C 	0.31260 0.27214 0.08327 -0.08600
C 	C 	0.35660 0.25464 0.03967 -0.02800
H 	H 	0.43180 0.24510 0.04410 0.05500
C 	C 	0.29290 0.25032 0.98788 0.02400
C 	C 	0.33590 0.23056 0.94281 -0.08100
H 	H 	0.41010 0.22010 0.94690 0.06000
C 	C 	0.27230 0.22633 0.89341 0.01300
H 	H 	0.30250 0.21300 0.86360 0.03800
C 	C 	0.37910 0.27373 0.13860 0.37300
O 	O 	0.47970 0.26272 0.14199 -0.46600
O 	O 	0.32760 0.28564 0.17817 -0.45800
O 	O 	0.87100 0.28736 0.74284 -0.45700
O 	O 	0.04670 0.29816 0.72423 -0.45200
C 	C 	0.94960 0.31120 0.73046 0.36300
C 	C 	0.92320 0.35720 0.72091 -0.08000
C 	C 	0.81560 0.37244 0.72670 0.01300
H 	H 	0.76170 0.35380 0.73910 0.04000
C 	C 	0.78760 0.41371 0.71450 -0.08500
H 	H 	0.71440 0.42350 0.71830 0.06300
C 	C 	0.86690 0.44215 0.69620 0.02600
C 	C 	0.84030 0.48469 0.68060 -0.04300
H 	H 	0.76780 0.49530 0.68420 0.06000
C 	C 	0.91720 0.51080 0.66040 -0.06300
C 	C 	0.02520 0.49554 0.65600 0.00600
H 	H 	0.07880 0.51380 0.64260 0.04400
C 	C 	0.05420 0.45489 0.67050 -0.08600
H 	H 	0.12760 0.44510 0.66720 0.07400
C 	C 	0.97580 0.42709 0.69067 0.03300
C 	C 	0.00160 0.38424 0.70379 -0.04000
H 	H 	0.07460 0.37390 0.70070 0.07000
C 	C 	0.88220 0.55395 0.63770 0.30700
O 	O 	0.94860 0.57579 0.61480 -0.37100
O 	O 	0.78440 0.56571 0.63948 -0.41200
O 	O 	0.95420 0.16584 0.76226 -0.47200
O 	O 	0.09250 0.17067 0.70858 -0.45000
C 	C 	0.03350 0.15053 0.73921 0.37300
C 	C 	0.06030 0.10428 0.75023 -0.08500
C 	C 	0.99930 0.08174 0.78449 -0.02900
H 	H 	0.93760 0.09490 0.79860 0.06000
C 	C 	0.02720 0.03920 0.79917 0.02000
C 	C 	0.96840 0.01591 0.83629 -0.08000
H 	H 	0.90500 0.02820 0.84990 0.07100
C 	C 	0.00190 0.97603 0.85260 -0.00100
H 	H 	0.96290 0.96110 0.87830 0.04500
C 	C 	0.09420 0.95673 0.83166 -0.05700
C 	C 	0.14910 0.97746 0.79369 -0.05200
H 	H 	0.20790 0.96350 0.77810 0.06100
C 	C 	0.11940 0.01981 0.77705 0.03300
C 	C 	0.17900 0.04341 0.74100 -0.09200
H 	H 	0.23940 0.03060 0.72540 0.06500
C 	C 	0.15060 0.08461 0.72826 0.02000
H 	H 	0.19220 0.10020 0.70430 0.03800
C 	C 	0.13860 0.91463 0.85430 0.29700
O 	O 	0.21100 0.89490 0.83258 -0.32000
O 	O 	0.09830 0.90141 0.89755 -0.44800
O 	O 	0.86420 0.12296 0.93176 -0.48000
O 	O 	0.88090 0.16085 0.00918 -0.49700
C 	C 	0.92090 0.14028 0.97153 0.40000
C 	C 	0.04470 0.13643 0.97300 -0.10800
C 	C 	0.11220 0.14591 0.01925 -0.01600
H 	H 	0.08020 0.15550 0.05080 0.03900
C 	C 	0.23030 0.14178 0.02158 0.02700
C 	C 	0.30160 0.15114 0.06930 -0.09500
H 	H 	0.27100 0.15930 0.10190 0.06800
C 	C 	0.41410 0.14863 0.06924 0.04200
H 	H 	0.46180 0.15500 0.10170 0.03500
C 	C 	0.46010 0.13650 0.02080 -0.13000
C 	C 	0.39250 0.12640 0.97440 -0.01000
H 	H 	0.42430 0.11780 0.94240 0.05300
C 	C 	0.27500 0.12860 0.97340 0.02100
C 	C 	0.20330 0.11780 0.92580 -0.08800
H 	H 	0.23350 0.10730 0.89420 0.06700
C 	C 	0.09110 0.12240 0.92510 0.02900
H 	H 	0.04350 0.11630 0.89260 0.03800
C 	C 	0.58280 0.13668 0.02001 0.46800
O 	O 	0.64180 0.13930 0.06480 -0.50100
O 	O 	0.61630 0.14440 0.97510 -0.29800
O 	O 	0.63260 0.11450 0.97870 -0.35200
