data_crystal

_cell_length_a 15.00050
_cell_length_b 15.00050
_cell_length_c 23.96390
_cell_angle_alpha 80.50580
_cell_angle_beta  76.39670
_cell_angle_gamma 111.14600

_symmetry_space_group_name_	'P 1'
_symmetry_space_group_name_H-M	'P 1'

loop_
_symmetry_equiv_pos_as_xyz
  x,y,z

loop_
_atom_site_label
_atom_site_type_symbol
_atom_site_fract_x
_atom_site_fract_y
_atom_site_fract_z
_atom_site_charge
Tb	Tb	0.69104 0.14589 0.96557 1.57600
Tb	Tb	0.38854 0.34339 0.46557 1.57600
Tb	Tb	0.61146 0.65661 0.53443 1.57600
Tb	Tb	0.30896 0.85411 0.03443 1.57600
H 	H 	0.57450 0.97610 0.50240 0.03100
H 	H 	0.97850 0.07690 0.99760 0.03000
H 	H 	0.67740 0.92290 0.63970 0.04100
H 	H 	0.26040 0.00570 0.20270 0.03300
H 	H 	0.70840 0.46310 0.29730 0.03200
H 	H 	0.57790 0.25720 0.85530 0.01000
H 	H 	0.14110 0.09290 0.97420 0.07200
H 	H 	0.61250 0.43320 0.64470 0.00900
H 	H 	0.06260 0.31710 0.86030 0.04000
H 	H 	0.56080 0.23850 0.54510 0.03400
H 	H 	0.69170 0.23980 0.76010 0.03900
H 	H 	0.30830 0.76020 0.23990 0.03900
H 	H 	0.28620 0.04020 0.28880 0.06100
H 	H 	0.65780 0.33250 0.70450 0.06700
H 	H 	0.28360 0.10590 0.95490 0.03400
H 	H 	0.46300 0.63770 0.20450 0.06700
H 	H 	0.56710 0.11530 0.52580 0.07200
H 	H 	0.93740 0.68290 0.13970 0.04000
H 	H 	0.34220 0.66750 0.29550 0.06700
H 	H 	0.43290 0.88470 0.47420 0.07200
H 	H 	0.38750 0.56680 0.35530 0.00900
H 	H 	0.50010 0.54820 0.26010 0.03900
H 	H 	0.53700 0.36230 0.79550 0.06700
H 	H 	0.42210 0.74280 0.14470 0.00900
H 	H 	0.43920 0.76150 0.45490 0.03400
H 	H 	0.32260 0.07710 0.36030 0.04000
H 	H 	0.85890 0.90710 0.02580 0.07200
H 	H 	0.02150 0.92310 0.00240 0.02900
H 	H 	0.49990 0.45180 0.73990 0.03900
H 	H 	0.17100 0.42500 0.78880 0.06100
H 	H 	0.71640 0.89410 0.04510 0.03400
H 	H 	0.82900 0.57500 0.21120 0.06100
H 	H 	0.71380 0.95980 0.71120 0.06100
H 	H 	0.42550 0.02390 0.49760 0.03000
H 	H 	0.73960 0.99430 0.79730 0.03200
H 	H 	0.29160 0.53690 0.70270 0.03100
C 	C 	0.61240 0.19530 0.61250 -0.05500
C 	C 	0.97060 0.87120 0.03560 0.02200
C 	C 	0.61010 0.37220 0.63730 0.05700
C 	C 	0.54290 0.90650 0.05360 0.47500
C 	C 	0.87420 0.86090 0.04950 -0.10700
C 	C 	0.20460 0.21530 0.90250 0.04900
C 	C 	0.42310 0.65850 0.40920 -0.16900
C 	C 	0.72200 0.03680 0.77240 0.02100
C 	C 	0.69080 0.50560 0.27240 0.02100
C 	C 	0.70530 0.01540 0.72150 -0.10300
C 	C 	0.30690 0.81890 0.24940 -0.00400
C 	C 	0.34610 0.03780 0.38310 -0.00400
C 	C 	0.27800 0.96320 0.22760 0.02100
C 	C 	0.28590 0.88180 0.21150 -0.09000
C 	C 	0.51520 0.68930 0.17170 -0.12400
C 	C 	0.56830 0.55630 0.25060 -0.00400
C 	C 	0.35960 0.37120 0.80200 -0.04200
C 	C 	0.33460 0.15840 0.92200 0.03100
C 	C 	0.45710 0.09350 0.94640 0.47500
C 	C 	0.40680 0.00620 0.46440 0.02100
C 	C 	0.64220 0.22430 0.66090 0.05300
C 	C 	0.58960 0.07630 0.54950 -0.10600
C 	C 	0.46010 0.59650 0.44640 0.47500
C 	C 	0.51440 0.42750 0.34530 0.32500
C 	C 	0.65000 0.04700 0.63220 -0.04100
C 	C 	0.82080 0.71780 0.13220 -0.04000
C 	C 	0.36100 0.68690 0.32830 -0.12400
C 	C 	0.66540 0.84160 0.07800 0.03100
C 	C 	0.49050 0.75260 0.13730 0.05700
C 	C 	0.72720 0.14030 0.84530 0.32500
C 	C 	0.32680 0.83840 0.30200 -0.04200
C 	C 	0.38520 0.30310 0.83910 0.05300
C 	C 	0.62530 0.93420 0.57070 -0.08600
C 	C 	0.30920 0.49440 0.72760 0.02100
C 	C 	0.74260 0.64000 0.18400 0.04200
C 	C 	0.23690 0.42680 0.77850 -0.10300
C 	C 	0.41040 0.92370 0.45050 -0.10600
C 	C 	0.50950 0.24740 0.86270 0.05700
C 	C 	0.12580 0.13910 0.95050 -0.10700
C 	C 	0.69220 0.77510 0.11250 -0.05500
C 	C 	0.61780 0.10710 0.59750 0.04900
C 	C 	0.38220 0.89290 0.40250 0.04900
C 	C 	0.53990 0.40350 0.55360 0.47500
C 	C 	0.76310 0.57320 0.22150 -0.10300
C 	C 	0.07910 0.27080 0.88310 -0.00400
C 	C 	0.59320 0.99380 0.53560 0.02100
C 	C 	0.25740 0.36000 0.81600 0.04200
C 	C 	0.48480 0.31070 0.82830 -0.12400
C 	C 	0.41960 0.74340 0.42200 0.03100
C 	C 	0.61480 0.69690 0.16090 0.05300
C 	C 	0.17920 0.28220 0.86780 -0.04000
C 	C 	0.48560 0.57250 0.65470 0.32500
C 	C 	0.56770 0.83230 0.09080 -0.16900
C 	C 	0.92090 0.72920 0.11690 -0.00400
C 	C 	0.63900 0.31310 0.67170 -0.12400
C 	C 	0.27280 0.85970 0.15470 0.32500
C 	C 	0.61980 0.83750 0.55670 0.31500
C 	C 	0.43230 0.16770 0.90920 -0.16900
C 	C 	0.00490 0.19600 0.92930 -0.08600
C 	C 	0.64040 0.62880 0.19800 -0.04200
C 	C 	0.38990 0.62780 0.36270 0.05700
C 	C 	0.40670 0.50260 0.71150 -0.09000
C 	C 	0.37470 0.06580 0.42930 -0.08600
C 	C 	0.35000 0.95300 0.36780 -0.04100
C 	C 	0.10580 0.82350 0.05670 0.31500
C 	C 	0.30780 0.22490 0.88750 -0.05500
C 	C 	0.35780 0.77570 0.33910 0.05300
C 	C 	0.32400 0.92660 0.31600 0.04200
C 	C 	0.69310 0.18110 0.75060 -0.00400
C 	C 	0.67600 0.07340 0.68400 0.04200
C 	C 	0.89420 0.17650 0.94330 0.31500
C 	C 	0.79540 0.78470 0.09750 0.04900
C 	C 	0.38760 0.80470 0.38750 -0.05500
C 	C 	0.67320 0.16160 0.69800 -0.04200
C 	C 	0.29470 0.98460 0.27850 -0.10300
C 	C 	0.71410 0.11820 0.78850 -0.09000
C 	C 	0.99510 0.80400 0.07070 -0.08600
C 	C 	0.38020 0.16250 0.44330 0.31500
C 	C 	0.65390 0.96220 0.61690 -0.00400
C 	C 	0.43170 0.44370 0.74940 -0.00400
C 	C 	0.58040 0.25660 0.57800 0.03100
C 	C 	0.57690 0.34150 0.59080 -0.16900
C 	C 	0.59330 0.49740 0.28850 -0.09000
C 	C 	0.02940 0.12880 0.96440 0.02200
O 	O 	0.67382 0.79788 0.57650 -0.39900
O 	O 	0.42441 0.40938 0.35461 -0.37800
O 	O 	0.38351 0.02239 0.98470 -0.48700
O 	O 	0.42815 0.19785 0.47480 -0.39600
O 	O 	0.87438 0.25032 0.92350 -0.39900
O 	O 	0.17265 0.90295 0.02520 -0.39600
O 	O 	0.32618 0.20212 0.42350 -0.39900
O 	O 	0.27806 0.93034 0.11440 -0.36600
O 	O 	0.46080 0.52030 0.43610 -0.50000
O 	O 	0.45640 0.89690 0.06390 -0.50000
O 	O 	0.57559 0.59062 0.64539 -0.37800
O 	O 	0.82735 0.09705 0.97480 -0.39600
O 	O 	0.12562 0.74968 0.07650 -0.39900
O 	O 	0.54360 0.10310 0.93610 -0.50000
O 	O 	0.45526 0.60754 0.61440 -0.36600
O 	O 	0.53920 0.47970 0.56390 -0.50000
O 	O 	0.73601 0.22098 0.85461 -0.37800
O 	O 	0.50709 0.36821 0.51530 -0.48700
O 	O 	0.49291 0.63179 0.48470 -0.48700
O 	O 	0.57185 0.80215 0.52520 -0.39600
O 	O 	0.54474 0.39246 0.38560 -0.36600
O 	O 	0.72194 0.06966 0.88560 -0.36600
O 	O 	0.26399 0.77902 0.14539 -0.37800
O 	O 	0.61649 0.97761 0.01530 -0.48700
