data_crystal

_cell_length_a 25.66210
_cell_length_b 16.15870
_cell_length_c 26.57450
_cell_angle_alpha 90.00000
_cell_angle_beta  113.21000
_cell_angle_gamma 90.00000

_symmetry_space_group_name_	'P 1'
_symmetry_space_group_name_H-M	'P 1'

loop_
_symmetry_equiv_pos_as_xyz
  x,y,z

loop_
_atom_site_label
_atom_site_type_symbol
_atom_site_fract_x
_atom_site_fract_y
_atom_site_fract_z
_atom_site_charge
C 	C 	0.11790 0.92490 0.15590 0.32300
C 	C 	0.14520 0.97080 0.20880 -0.09500
C 	C 	0.12360 0.96480 0.24910 0.01300
H 	H 	0.09120 0.93110 0.24270 0.03200
C 	C 	0.14880 0.00780 0.29960 -0.07900
C 	C 	0.19550 0.05640 0.30900 0.06000
C 	C 	0.21740 0.06530 0.26700 -0.11000
H 	H 	0.24780 0.10230 0.27180 0.06500
C 	C 	0.19330 0.01920 0.21990 0.01700
H 	H 	0.21030 0.02040 0.19390 0.03200
C 	C 	0.05430 0.98350 0.46400 0.58400
C 	C 	0.07860 0.98850 0.42070 -0.43800
C 	C 	0.12510 0.03730 0.43010 0.17600
H 	H 	0.14140 0.06680 0.46370 -0.02800
C 	C 	0.14950 0.04480 0.39030 -0.13900
C 	C 	0.12360 0.00000 0.34030 0.11500
C 	C 	0.07670 0.95150 0.33270 -0.21900
H 	H 	0.05890 0.92320 0.29890 0.09800
C 	C 	0.05430 0.94220 0.37250 0.20600
H 	H 	0.02350 0.90560 0.36700 -0.04100
C 	C 	0.34460 0.25190 0.43020 0.30000
C 	C 	0.29460 0.19550 0.41950 -0.09400
C 	C 	0.27010 0.15310 0.37200 0.00600
H 	H 	0.28600 0.15820 0.34540 0.03800
C 	C 	0.22310 0.10260 0.36010 -0.06000
C 	C 	0.19880 0.09710 0.40040 0.08200
C 	C 	0.22580 0.14100 0.44990 -0.13600
H 	H 	0.21160 0.13590 0.47790 0.08100
C 	C 	0.27090 0.18950 0.45860 0.03800
H 	H 	0.28700 0.22020 0.49170 0.02200
O 	O 	0.13710 0.93340 0.11910 -0.41000
O 	O 	0.07560 0.88050 0.14760 -0.42000
O 	O 	0.01880 0.92860 0.45860 -0.55300
O 	O 	0.07320 0.03120 0.50310 -0.54100
O 	O 	0.35730 0.30440 0.46810 -0.40300
O 	O 	0.37050 0.24590 0.39800 -0.41000
Tb	Tb	0.06294 0.85610 0.05294 1.84400
O 	O 	0.01720 0.80780 0.96480 -0.19300
C 	C 	0.99760 0.83270 0.91200 0.11500
C 	C 	0.94650 0.88790 0.88950 -0.47800
H 	H 	0.92550 0.87560 0.85060 0.16800
H 	H 	0.95870 0.94580 0.89380 0.16600
H 	H 	0.92210 0.87810 0.90940 0.16300
C 	C 	0.07380 0.75370 0.90390 -0.36100
H 	H 	0.06340 0.71010 0.92380 0.12800
H 	H 	0.10510 0.78650 0.92970 0.13200
H 	H 	0.08560 0.72870 0.87650 0.12600
N 	N 	0.02330 0.80930 0.87560 0.00300
C 	C 	0.99420 0.84370 0.81850 -0.34600
H 	H 	0.95310 0.84280 0.80790 0.21700
H 	H 	0.00400 0.80990 0.79290 0.02000
H 	H 	0.00670 0.90080 0.81760 0.12200
H 	H 	0.90990 0.25600 0.39550 0.20500
H 	H 	0.95560 0.32550 0.39890 0.20100
H 	H 	0.93180 0.26490 0.34720 0.21300
H 	H 	0.06480 0.11680 0.45450 0.15700
H 	H 	0.05320 0.03970 0.41370 0.27400
H 	H 	0.08160 0.12210 0.40270 0.18000
H 	H 	0.97220 0.11750 0.30300 0.06500
H 	H 	0.93640 0.18960 0.31580 -0.06400
H 	H 	0.99420 0.21110 0.30930 0.16600
O 	O 	0.01350 0.20700 0.47080 -0.25500
C 	C 	0.98960 0.20920 0.41550 0.29000
C 	C 	0.94260 0.26900 0.38680 -0.64400
C 	C 	0.05390 0.10000 0.41600 -0.47400
N 	N 	0.00640 0.15700 0.38170 -0.08300
C 	C 	0.97460 0.17000 0.32240 -0.15700
C 	C 	0.61790 0.42490 0.15590 0.32300
C 	C 	0.64520 0.47080 0.20880 -0.10400
C 	C 	0.62360 0.46480 0.24910 0.01000
H 	H 	0.59120 0.43110 0.24270 0.03000
C 	C 	0.64880 0.50780 0.29960 -0.08100
C 	C 	0.69550 0.55640 0.30900 0.06400
C 	C 	0.71740 0.56530 0.26700 -0.11600
H 	H 	0.74780 0.60230 0.27180 0.06600
C 	C 	0.69330 0.51920 0.21990 0.02600
H 	H 	0.71030 0.52040 0.19390 0.03100
C 	C 	0.55430 0.48350 0.46400 0.58400
C 	C 	0.57860 0.48850 0.42070 -0.46600
C 	C 	0.62510 0.53730 0.43010 0.19700
H 	H 	0.64140 0.56680 0.46370 -0.03500
C 	C 	0.64950 0.54480 0.39030 -0.15100
C 	C 	0.62360 0.50000 0.34030 0.12900
C 	C 	0.57670 0.45150 0.33270 -0.23900
H 	H 	0.55890 0.42320 0.29890 0.10400
C 	C 	0.55430 0.44220 0.37250 0.22300
H 	H 	0.52350 0.40560 0.36700 -0.04700
C 	C 	0.84460 0.75190 0.43020 0.30100
C 	C 	0.79460 0.69550 0.41950 -0.09600
C 	C 	0.77010 0.65310 0.37200 0.00900
H 	H 	0.78600 0.65820 0.34540 0.03700
C 	C 	0.72310 0.60260 0.36010 -0.06400
C 	C 	0.69880 0.59710 0.40040 0.08800
C 	C 	0.72580 0.64100 0.44990 -0.14000
H 	H 	0.71160 0.63590 0.47790 0.08300
C 	C 	0.77090 0.68950 0.45860 0.04100
H 	H 	0.78700 0.72020 0.49170 0.02100
O 	O 	0.63710 0.43340 0.11910 -0.41200
O 	O 	0.57560 0.38050 0.14760 -0.42100
O 	O 	0.51880 0.42860 0.45860 -0.55400
O 	O 	0.57320 0.53120 0.50310 -0.53800
O 	O 	0.85730 0.80440 0.46810 -0.40300
O 	O 	0.87050 0.74590 0.39800 -0.41000
Tb	Tb	0.56294 0.35610 0.05294 1.84500
O 	O 	0.51720 0.30780 0.96480 -0.19400
C 	C 	0.49760 0.33270 0.91200 0.11500
C 	C 	0.44650 0.38790 0.88950 -0.47600
H 	H 	0.42550 0.37560 0.85060 0.16700
H 	H 	0.45870 0.44580 0.89380 0.16400
H 	H 	0.42210 0.37810 0.90940 0.16200
C 	C 	0.57380 0.25370 0.90390 -0.36000
H 	H 	0.56340 0.21010 0.92380 0.12600
H 	H 	0.60510 0.28650 0.92970 0.13200
H 	H 	0.58560 0.22870 0.87650 0.12500
N 	N 	0.52330 0.30930 0.87560 0.00200
C 	C 	0.49420 0.34370 0.81850 -0.34100
H 	H 	0.45310 0.34280 0.80790 0.21300
H 	H 	0.50400 0.30990 0.79290 0.01800
H 	H 	0.50670 0.40080 0.81760 0.11900
H 	H 	0.40990 0.75600 0.39550 0.20700
H 	H 	0.45560 0.82550 0.39890 0.20300
H 	H 	0.43180 0.76490 0.34720 0.21500
H 	H 	0.56480 0.61680 0.45450 0.16200
H 	H 	0.55320 0.53970 0.41370 0.29000
H 	H 	0.58160 0.62210 0.40270 0.18400
H 	H 	0.47220 0.61750 0.30300 0.06500
H 	H 	0.43640 0.68960 0.31580 -0.06400
H 	H 	0.49420 0.71110 0.30930 0.16700
O 	O 	0.51350 0.70700 0.47080 -0.25500
C 	C 	0.48960 0.70920 0.41550 0.29200
C 	C 	0.44260 0.76900 0.38680 -0.64700
C 	C 	0.55390 0.60000 0.41600 -0.49200
N 	N 	0.50640 0.65700 0.38170 -0.08000
C 	C 	0.47460 0.67000 0.32240 -0.16000
C 	C 	0.88210 0.92490 0.34410 0.32200
C 	C 	0.85480 0.97080 0.29120 -0.09600
C 	C 	0.87640 0.96480 0.25090 0.01200
H 	H 	0.90880 0.93110 0.25730 0.03100
C 	C 	0.85120 0.00780 0.20040 -0.08000
C 	C 	0.80450 0.05640 0.19100 0.05900
C 	C 	0.78260 0.06530 0.23300 -0.11100
H 	H 	0.75220 0.10230 0.22820 0.06400
C 	C 	0.80670 0.01920 0.28010 0.01600
H 	H 	0.78970 0.02040 0.30610 0.03200
C 	C 	0.94570 0.98350 0.03600 0.58500
C 	C 	0.92140 0.98850 0.07930 -0.43600
C 	C 	0.87490 0.03730 0.06990 0.17500
H 	H 	0.85860 0.06680 0.03630 -0.02700
C 	C 	0.85050 0.04480 0.10970 -0.13900
C 	C 	0.87640 0.00000 0.15970 0.11400
C 	C 	0.92330 0.95150 0.16730 -0.21800
H 	H 	0.94110 0.92320 0.20110 0.09800
C 	C 	0.94570 0.94220 0.12750 0.20500
H 	H 	0.97650 0.90560 0.13300 -0.04000
C 	C 	0.65540 0.25190 0.06980 0.30000
C 	C 	0.70540 0.19550 0.08050 -0.09400
C 	C 	0.72990 0.15310 0.12800 0.00600
H 	H 	0.71400 0.15820 0.15460 0.03800
C 	C 	0.77690 0.10260 0.13990 -0.06000
C 	C 	0.80120 0.09710 0.09960 0.08100
C 	C 	0.77420 0.14100 0.05010 -0.13600
H 	H 	0.78840 0.13590 0.02210 0.08100
C 	C 	0.72910 0.18950 0.04140 0.03800
H 	H 	0.71300 0.22020 0.00830 0.02200
O 	O 	0.86290 0.93340 0.38090 -0.41000
O 	O 	0.92440 0.88050 0.35240 -0.42000
O 	O 	0.98120 0.92860 0.04140 -0.55200
O 	O 	0.92680 0.03120 0.99690 -0.54200
O 	O 	0.64270 0.30440 0.03190 -0.40300
O 	O 	0.62950 0.24590 0.10200 -0.41000
Tb	Tb	0.93706 0.85610 0.44706 1.84700
O 	O 	0.98280 0.80780 0.53520 -0.19400
C 	C 	0.00240 0.83270 0.58800 0.11300
C 	C 	0.05350 0.88790 0.61050 -0.47800
H 	H 	0.07450 0.87560 0.64940 0.16900
H 	H 	0.04130 0.94580 0.60620 0.16700
H 	H 	0.07790 0.87810 0.59060 0.16300
C 	C 	0.92620 0.75370 0.59610 -0.36000
H 	H 	0.93660 0.71010 0.57620 0.12700
H 	H 	0.89490 0.78650 0.57030 0.13200
H 	H 	0.91440 0.72870 0.62350 0.12500
N 	N 	0.97670 0.80930 0.62440 0.00100
C 	C 	0.00580 0.84370 0.68150 -0.34200
H 	H 	0.04690 0.84280 0.69210 0.21300
H 	H 	0.99600 0.80990 0.70710 0.01800
H 	H 	0.99330 0.90080 0.68240 0.12000
H 	H 	0.09010 0.25600 0.10450 0.20400
H 	H 	0.04440 0.32550 0.10110 0.20000
H 	H 	0.06820 0.26490 0.15280 0.21200
H 	H 	0.93520 0.11680 0.04550 0.15700
H 	H 	0.94680 0.03970 0.08630 0.27300
H 	H 	0.91840 0.12210 0.09730 0.17900
H 	H 	0.02780 0.11750 0.19700 0.06400
H 	H 	0.06360 0.18960 0.18420 -0.06400
H 	H 	0.00580 0.21110 0.19070 0.16600
O 	O 	0.98650 0.20700 0.02920 -0.25300
C 	C 	0.01040 0.20920 0.08450 0.28500
C 	C 	0.05740 0.26900 0.11320 -0.63900
C 	C 	0.94610 0.10000 0.08400 -0.47300
N 	N 	0.99360 0.15700 0.11830 -0.08200
C 	C 	0.02540 0.17000 0.17760 -0.16200
C 	C 	0.38210 0.42490 0.34410 0.32300
C 	C 	0.35480 0.47080 0.29120 -0.10400
C 	C 	0.37640 0.46480 0.25090 0.01000
H 	H 	0.40880 0.43110 0.25730 0.03000
C 	C 	0.35120 0.50780 0.20040 -0.08100
C 	C 	0.30450 0.55640 0.19100 0.06400
C 	C 	0.28260 0.56530 0.23300 -0.11600
H 	H 	0.25220 0.60230 0.22820 0.06600
C 	C 	0.30670 0.51920 0.28010 0.02600
H 	H 	0.28970 0.52040 0.30610 0.03100
C 	C 	0.44570 0.48350 0.03600 0.58300
C 	C 	0.42140 0.48850 0.07930 -0.46600
C 	C 	0.37490 0.53730 0.06990 0.19700
H 	H 	0.35860 0.56680 0.03630 -0.03500
C 	C 	0.35050 0.54480 0.10970 -0.15100
C 	C 	0.37640 0.50000 0.15970 0.12900
C 	C 	0.42330 0.45150 0.16730 -0.23900
H 	H 	0.44110 0.42320 0.20110 0.10400
C 	C 	0.44570 0.44220 0.12750 0.22300
H 	H 	0.47650 0.40560 0.13300 -0.04700
C 	C 	0.15540 0.75190 0.06980 0.30100
C 	C 	0.20540 0.69550 0.08050 -0.09600
C 	C 	0.22990 0.65310 0.12800 0.00900
H 	H 	0.21400 0.65820 0.15460 0.03700
C 	C 	0.27690 0.60260 0.13990 -0.06400
C 	C 	0.30120 0.59710 0.09960 0.08800
C 	C 	0.27420 0.64100 0.05010 -0.14000
H 	H 	0.28840 0.63590 0.02210 0.08300
C 	C 	0.22910 0.68950 0.04140 0.04100
H 	H 	0.21300 0.72020 0.00830 0.02100
O 	O 	0.36290 0.43340 0.38090 -0.41200
O 	O 	0.42440 0.38050 0.35240 -0.42100
O 	O 	0.48120 0.42860 0.04140 -0.55400
O 	O 	0.42680 0.53120 0.99690 -0.53700
O 	O 	0.14270 0.80440 0.03190 -0.40400
O 	O 	0.12950 0.74590 0.10200 -0.41000
Tb	Tb	0.43706 0.35610 0.44706 1.84600
O 	O 	0.48280 0.30780 0.53520 -0.19400
C 	C 	0.50240 0.33270 0.58800 0.11500
C 	C 	0.55350 0.38790 0.61050 -0.47500
H 	H 	0.57450 0.37560 0.64940 0.16700
H 	H 	0.54130 0.44580 0.60620 0.16400
H 	H 	0.57790 0.37810 0.59060 0.16200
C 	C 	0.42620 0.25370 0.59610 -0.36000
H 	H 	0.43660 0.21010 0.57620 0.12600
H 	H 	0.39490 0.28650 0.57030 0.13200
H 	H 	0.41440 0.22870 0.62350 0.12500
N 	N 	0.47670 0.30930 0.62440 0.00200
C 	C 	0.50580 0.34370 0.68150 -0.34100
H 	H 	0.54690 0.34280 0.69210 0.21300
H 	H 	0.49600 0.30990 0.70710 0.01800
H 	H 	0.49330 0.40080 0.68240 0.11900
H 	H 	0.59010 0.75600 0.10450 0.20700
H 	H 	0.54440 0.82550 0.10110 0.20300
H 	H 	0.56820 0.76490 0.15280 0.21500
H 	H 	0.43520 0.61680 0.04550 0.16200
H 	H 	0.44680 0.53970 0.08630 0.29000
H 	H 	0.41840 0.62210 0.09730 0.18400
H 	H 	0.52780 0.61750 0.19700 0.06500
H 	H 	0.56360 0.68960 0.18420 -0.06400
H 	H 	0.50580 0.71110 0.19070 0.16700
O 	O 	0.48650 0.70700 0.02920 -0.25500
C 	C 	0.51040 0.70920 0.08450 0.29100
C 	C 	0.55740 0.76900 0.11320 -0.64700
C 	C 	0.44610 0.60000 0.08400 -0.49200
N 	N 	0.49360 0.65700 0.11830 -0.08000
C 	C 	0.52540 0.67000 0.17760 -0.16000
C 	C 	0.88210 0.07510 0.84410 0.32300
C 	C 	0.85480 0.02920 0.79120 -0.10700
C 	C 	0.87640 0.03520 0.75090 0.00100
H 	H 	0.90880 0.06890 0.75730 0.03200
C 	C 	0.85120 0.99220 0.70040 -0.06800
C 	C 	0.80450 0.94360 0.69100 0.05900
C 	C 	0.78260 0.93470 0.73300 -0.11400
H 	H 	0.75220 0.89770 0.72820 0.06600
C 	C 	0.80670 0.98080 0.78010 0.03100
H 	H 	0.78970 0.97960 0.80610 0.03100
C 	C 	0.94570 0.01650 0.53600 0.57900
C 	C 	0.92140 0.01150 0.57930 -0.47800
C 	C 	0.87490 0.96270 0.56990 0.20500
H 	H 	0.85860 0.93320 0.53630 -0.03600
C 	C 	0.85050 0.95520 0.60970 -0.14500
C 	C 	0.87640 0.00000 0.65970 0.11600
C 	C 	0.92330 0.04850 0.66730 -0.23600
H 	H 	0.94110 0.07680 0.70110 0.10200
C 	C 	0.94570 0.05780 0.62750 0.22500
H 	H 	0.97650 0.09440 0.63300 -0.04800
C 	C 	0.65540 0.74810 0.56980 0.30000
C 	C 	0.70540 0.80450 0.58050 -0.09400
C 	C 	0.72990 0.84690 0.62800 0.00700
H 	H 	0.71400 0.84180 0.65460 0.03800
C 	C 	0.77690 0.89740 0.63990 -0.06000
C 	C 	0.80120 0.90290 0.59960 0.08500
C 	C 	0.77420 0.85900 0.55010 -0.13800
H 	H 	0.78840 0.86410 0.52210 0.08300
C 	C 	0.72910 0.81050 0.54140 0.04000
H 	H 	0.71300 0.77980 0.50830 0.02200
O 	O 	0.86290 0.06660 0.88090 -0.41400
O 	O 	0.92440 0.11950 0.85240 -0.42100
O 	O 	0.98120 0.07140 0.54140 -0.55400
O 	O 	0.92680 0.96880 0.49690 -0.53300
O 	O 	0.64270 0.69560 0.53190 -0.40300
O 	O 	0.62950 0.75410 0.60200 -0.40900
Tb	Tb	0.93706 0.14390 0.94706 1.84400
O 	O 	0.98280 0.19220 0.03520 -0.19300
C 	C 	0.00240 0.16730 0.08800 0.11900
C 	C 	0.05350 0.11210 0.11050 -0.47400
H 	H 	0.07450 0.12440 0.14940 0.16600
H 	H 	0.04130 0.05420 0.10620 0.16100
H 	H 	0.07790 0.12190 0.09060 0.16000
C 	C 	0.92620 0.24630 0.09610 -0.36200
H 	H 	0.93660 0.28990 0.07620 0.12800
H 	H 	0.89490 0.21350 0.07030 0.13300
H 	H 	0.91440 0.27130 0.12350 0.12600
N 	N 	0.97670 0.19070 0.12440 0.00400
C 	C 	0.00580 0.15630 0.18150 -0.34100
H 	H 	0.04690 0.15720 0.19210 0.21400
H 	H 	0.99600 0.19010 0.20710 0.02000
H 	H 	0.99330 0.09920 0.18240 0.11900
H 	H 	0.09010 0.74400 0.60450 0.20700
H 	H 	0.04440 0.67450 0.60110 0.20300
H 	H 	0.06820 0.73510 0.65280 0.21500
H 	H 	0.93520 0.88320 0.54550 0.16500
H 	H 	0.94680 0.96030 0.58630 0.29900
H 	H 	0.91840 0.87790 0.59730 0.18700
H 	H 	0.02780 0.88250 0.69700 0.06600
H 	H 	0.06360 0.81040 0.68420 -0.06400
H 	H 	0.00580 0.78890 0.69070 0.16800
O 	O 	0.98650 0.79300 0.52920 -0.25500
C 	C 	0.01040 0.79080 0.58450 0.29500
C 	C 	0.05740 0.73100 0.61320 -0.64800
C 	C 	0.94610 0.90000 0.58400 -0.50100
N 	N 	0.99360 0.84300 0.61830 -0.07700
C 	C 	0.02540 0.83000 0.67760 -0.16000
C 	C 	0.38210 0.57510 0.84410 0.32300
C 	C 	0.35480 0.52920 0.79120 -0.10400
C 	C 	0.37640 0.53520 0.75090 0.01000
H 	H 	0.40880 0.56890 0.75730 0.03000
C 	C 	0.35120 0.49220 0.70040 -0.08100
C 	C 	0.30450 0.44360 0.69100 0.06300
C 	C 	0.28260 0.43470 0.73300 -0.11600
H 	H 	0.25220 0.39770 0.72820 0.06600
C 	C 	0.30670 0.48080 0.78010 0.02600
H 	H 	0.28970 0.47960 0.80610 0.03100
C 	C 	0.44570 0.51650 0.53600 0.58400
C 	C 	0.42140 0.51150 0.57930 -0.46500
C 	C 	0.37490 0.46270 0.56990 0.19700
H 	H 	0.35860 0.43320 0.53630 -0.03400
C 	C 	0.35050 0.45520 0.60970 -0.15100
C 	C 	0.37640 0.50000 0.65970 0.12900
C 	C 	0.42330 0.54850 0.66730 -0.23900
H 	H 	0.44110 0.57680 0.70110 0.10400
C 	C 	0.44570 0.55780 0.62750 0.22300
H 	H 	0.47650 0.59440 0.63300 -0.04700
C 	C 	0.15540 0.24810 0.56980 0.30000
C 	C 	0.20540 0.30450 0.58050 -0.09600
C 	C 	0.22990 0.34690 0.62800 0.00900
H 	H 	0.21400 0.34180 0.65460 0.03700
C 	C 	0.27690 0.39740 0.63990 -0.06400
C 	C 	0.30120 0.40290 0.59960 0.08800
C 	C 	0.27420 0.35900 0.55010 -0.14000
H 	H 	0.28840 0.36410 0.52210 0.08300
C 	C 	0.22910 0.31050 0.54140 0.04100
H 	H 	0.21300 0.27980 0.50830 0.02100
O 	O 	0.36290 0.56660 0.88090 -0.41200
O 	O 	0.42440 0.61950 0.85240 -0.42100
O 	O 	0.48120 0.57140 0.54140 -0.55400
O 	O 	0.42680 0.46880 0.49690 -0.53700
O 	O 	0.14270 0.19560 0.53190 -0.40400
O 	O 	0.12950 0.25410 0.60200 -0.41000
Tb	Tb	0.43706 0.64390 0.94706 1.84700
O 	O 	0.48280 0.69220 0.03520 -0.19300
C 	C 	0.50240 0.66730 0.08800 0.11700
C 	C 	0.55350 0.61210 0.11050 -0.47700
H 	H 	0.57450 0.62440 0.14940 0.16800
H 	H 	0.54130 0.55420 0.10620 0.16400
H 	H 	0.57790 0.62190 0.09060 0.16200
C 	C 	0.42620 0.74630 0.09610 -0.36200
H 	H 	0.43660 0.78990 0.07620 0.12800
H 	H 	0.39490 0.71350 0.07030 0.13300
H 	H 	0.41440 0.77130 0.12350 0.12600
N 	N 	0.47670 0.69070 0.12440 0.00300
C 	C 	0.50580 0.65630 0.18150 -0.34100
H 	H 	0.54690 0.65720 0.19210 0.21300
H 	H 	0.49600 0.69010 0.20710 0.01800
H 	H 	0.49330 0.59920 0.18240 0.11900
H 	H 	0.59010 0.24400 0.60450 0.20500
H 	H 	0.54440 0.17450 0.60110 0.20100
H 	H 	0.56820 0.23510 0.65280 0.21300
H 	H 	0.43520 0.38320 0.54550 0.16200
H 	H 	0.44680 0.46030 0.58630 0.28900
H 	H 	0.41840 0.37790 0.59730 0.18400
H 	H 	0.52780 0.38250 0.69700 0.06500
H 	H 	0.56360 0.31040 0.68420 -0.06400
H 	H 	0.50580 0.28890 0.69070 0.16700
O 	O 	0.48650 0.29300 0.52920 -0.25400
C 	C 	0.51040 0.29080 0.58450 0.29200
C 	C 	0.55740 0.23100 0.61320 -0.64500
C 	C 	0.44610 0.40000 0.58400 -0.49100
N 	N 	0.49360 0.34300 0.61830 -0.07900
C 	C 	0.52540 0.33000 0.67760 -0.16000
C 	C 	0.11790 0.07510 0.65590 0.32300
C 	C 	0.14520 0.02920 0.70880 -0.10700
C 	C 	0.12360 0.03520 0.74910 0.00100
H 	H 	0.09120 0.06890 0.74270 0.03200
C 	C 	0.14880 0.99220 0.79960 -0.06800
C 	C 	0.19550 0.94360 0.80900 0.05900
C 	C 	0.21740 0.93470 0.76700 -0.11500
H 	H 	0.24780 0.89770 0.77180 0.06600
C 	C 	0.19330 0.98080 0.71990 0.03100
H 	H 	0.21030 0.97960 0.69390 0.03100
C 	C 	0.05430 0.01650 0.96400 0.58000
C 	C 	0.07860 0.01150 0.92070 -0.47700
C 	C 	0.12510 0.96270 0.93010 0.20400
H 	H 	0.14140 0.93320 0.96370 -0.03600
C 	C 	0.14950 0.95520 0.89030 -0.14600
C 	C 	0.12360 0.00000 0.84030 0.11700
C 	C 	0.07670 0.04850 0.83270 -0.23600
H 	H 	0.05890 0.07680 0.79890 0.10200
C 	C 	0.05430 0.05780 0.87250 0.22500
H 	H 	0.02350 0.09440 0.86700 -0.04800
C 	C 	0.34460 0.74810 0.93020 0.30000
C 	C 	0.29460 0.80450 0.91950 -0.09400
C 	C 	0.27010 0.84690 0.87200 0.00700
H 	H 	0.28600 0.84180 0.84540 0.03800
C 	C 	0.22310 0.89740 0.86010 -0.06000
C 	C 	0.19880 0.90290 0.90040 0.08500
C 	C 	0.22580 0.85900 0.94990 -0.13800
H 	H 	0.21160 0.86410 0.97790 0.08300
C 	C 	0.27090 0.81050 0.95860 0.04000
H 	H 	0.28700 0.77980 0.99170 0.02200
O 	O 	0.13710 0.06660 0.61910 -0.41400
O 	O 	0.07560 0.11950 0.64760 -0.42100
O 	O 	0.01880 0.07140 0.95860 -0.55300
O 	O 	0.07320 0.96880 0.00310 -0.53400
O 	O 	0.35730 0.69560 0.96810 -0.40300
O 	O 	0.37050 0.75410 0.89800 -0.40900
Tb	Tb	0.06294 0.14390 0.55294 1.84600
O 	O 	0.01720 0.19220 0.46480 -0.19400
C 	C 	0.99760 0.16730 0.41200 0.11700
C 	C 	0.94650 0.11210 0.38950 -0.47400
H 	H 	0.92550 0.12440 0.35060 0.16600
H 	H 	0.95870 0.05420 0.39380 0.16200
H 	H 	0.92210 0.12190 0.40940 0.16100
C 	C 	0.07380 0.24630 0.40390 -0.36100
H 	H 	0.06340 0.28990 0.42380 0.12700
H 	H 	0.10510 0.21350 0.42970 0.13300
H 	H 	0.08560 0.27130 0.37650 0.12600
N 	N 	0.02330 0.19070 0.37560 0.00300
C 	C 	0.99420 0.15630 0.31850 -0.33700
H 	H 	0.95310 0.15720 0.30790 0.21000
H 	H 	0.00400 0.19010 0.29290 0.01700
H 	H 	0.00670 0.09920 0.31760 0.11700
H 	H 	0.90990 0.74400 0.89550 0.20600
H 	H 	0.95560 0.67450 0.89890 0.20100
H 	H 	0.93180 0.73510 0.84720 0.21400
H 	H 	0.06480 0.88320 0.95450 0.16600
H 	H 	0.05320 0.96030 0.91370 0.29800
H 	H 	0.08160 0.87790 0.90270 0.18700
H 	H 	0.97220 0.88250 0.80300 0.06600
H 	H 	0.93640 0.81040 0.81580 -0.06500
H 	H 	0.99420 0.78890 0.80930 0.16800
O 	O 	0.01350 0.79300 0.97080 -0.25300
C 	C 	0.98960 0.79080 0.91550 0.29000
C 	C 	0.94260 0.73100 0.88680 -0.64400
C 	C 	0.05390 0.90000 0.91600 -0.50100
N 	N 	0.00640 0.84300 0.88170 -0.07600
C 	C 	0.97460 0.83000 0.82240 -0.16400
C 	C 	0.61790 0.57510 0.65590 0.32300
C 	C 	0.64520 0.52920 0.70880 -0.10400
C 	C 	0.62360 0.53520 0.74910 0.01000
H 	H 	0.59120 0.56890 0.74270 0.03000
C 	C 	0.64880 0.49220 0.79960 -0.08100
C 	C 	0.69550 0.44360 0.80900 0.06300
C 	C 	0.71740 0.43470 0.76700 -0.11600
H 	H 	0.74780 0.39770 0.77180 0.06600
C 	C 	0.69330 0.48080 0.71990 0.02600
H 	H 	0.71030 0.47960 0.69390 0.03100
C 	C 	0.55430 0.51650 0.96400 0.58300
C 	C 	0.57860 0.51150 0.92070 -0.46500
C 	C 	0.62510 0.46270 0.93010 0.19700
H 	H 	0.64140 0.43320 0.96370 -0.03500
C 	C 	0.64950 0.45520 0.89030 -0.15100
C 	C 	0.62360 0.50000 0.84030 0.12900
C 	C 	0.57670 0.54850 0.83270 -0.23900
H 	H 	0.55890 0.57680 0.79890 0.10400
C 	C 	0.55430 0.55780 0.87250 0.22300
H 	H 	0.52350 0.59440 0.86700 -0.04700
C 	C 	0.84460 0.24810 0.93020 0.30000
C 	C 	0.79460 0.30450 0.91950 -0.09600
C 	C 	0.77010 0.34690 0.87200 0.00900
H 	H 	0.78600 0.34180 0.84540 0.03700
C 	C 	0.72310 0.39740 0.86010 -0.06400
C 	C 	0.69880 0.40290 0.90040 0.08800
C 	C 	0.72580 0.35900 0.94990 -0.14000
H 	H 	0.71160 0.36410 0.97790 0.08300
C 	C 	0.77090 0.31050 0.95860 0.04100
H 	H 	0.78700 0.27980 0.99170 0.02100
O 	O 	0.63710 0.56660 0.61910 -0.41200
O 	O 	0.57560 0.61950 0.64760 -0.42100
O 	O 	0.51880 0.57140 0.95860 -0.55400
O 	O 	0.57320 0.46880 0.00310 -0.53700
O 	O 	0.85730 0.19560 0.96810 -0.40400
O 	O 	0.87050 0.25410 0.89800 -0.41000
Tb	Tb	0.56294 0.64390 0.55294 1.84700
O 	O 	0.51720 0.69220 0.46480 -0.19300
C 	C 	0.49760 0.66730 0.41200 0.11600
C 	C 	0.44650 0.61210 0.38950 -0.47700
H 	H 	0.42550 0.62440 0.35060 0.16800
H 	H 	0.45870 0.55420 0.39380 0.16400
H 	H 	0.42210 0.62190 0.40940 0.16200
C 	C 	0.57380 0.74630 0.40390 -0.36200
H 	H 	0.56340 0.78990 0.42380 0.12800
H 	H 	0.60510 0.71350 0.42970 0.13300
H 	H 	0.58560 0.77130 0.37650 0.12600
N 	N 	0.52330 0.69070 0.37560 0.00300
C 	C 	0.49420 0.65630 0.31850 -0.34100
H 	H 	0.45310 0.65720 0.30790 0.21300
H 	H 	0.50400 0.69010 0.29290 0.01800
H 	H 	0.50670 0.59920 0.31760 0.11900
H 	H 	0.40990 0.24400 0.89550 0.20500
H 	H 	0.45560 0.17450 0.89890 0.20100
H 	H 	0.43180 0.23510 0.84720 0.21300
H 	H 	0.56480 0.38320 0.95450 0.16200
H 	H 	0.55320 0.46030 0.91370 0.28900
H 	H 	0.58160 0.37790 0.90270 0.18400
H 	H 	0.47220 0.38250 0.80300 0.06500
H 	H 	0.43640 0.31040 0.81580 -0.06400
H 	H 	0.49420 0.28890 0.80930 0.16700
O 	O 	0.51350 0.29300 0.97080 -0.25400
C 	C 	0.48960 0.29080 0.91550 0.29200
C 	C 	0.44260 0.23100 0.88680 -0.64500
C 	C 	0.55390 0.40000 0.91600 -0.49100
N 	N 	0.50640 0.34300 0.88170 -0.07900
C 	C 	0.47460 0.33000 0.82240 -0.16000
