data_crystal

_cell_length_a 6.81200
_cell_length_b 16.73310
_cell_length_c 13.03800
_cell_angle_alpha 90.00000
_cell_angle_beta  90.00000
_cell_angle_gamma 90.00000

_symmetry_space_group_name_	'P 1'
_symmetry_space_group_name_H-M	'P 1'

loop_
_symmetry_equiv_pos_as_xyz
  x,y,z

loop_
_atom_site_label
_atom_site_type_symbol
_atom_site_fract_x
_atom_site_fract_y
_atom_site_fract_z
_atom_site_charge
C 	C 	0.30400 0.04000 0.48200 -0.01100
O 	O 	0.65000 0.16600 0.34300 -0.42300
H 	H 	0.83962 0.42524 0.47713 0.03500
C 	C 	0.80400 0.54000 0.98200 -0.01200
O 	O 	0.15000 0.66600 0.84300 -0.42300
H 	H 	0.33962 0.92524 0.97713 0.03500
C 	C 	0.69600 0.46000 0.48200 -0.01100
O 	O 	0.35000 0.33400 0.34300 -0.42300
H 	H 	0.16038 0.07476 0.47713 0.03600
C 	C 	0.19600 0.96000 0.98200 -0.01000
O 	O 	0.85000 0.83400 0.84300 -0.42300
H 	H 	0.66038 0.57476 0.97713 0.03600
C 	C 	0.69600 0.54000 0.51800 -0.01000
O 	O 	0.35000 0.66600 0.65700 -0.42200
H 	H 	0.16038 0.92524 0.52287 0.03600
C 	C 	0.19600 0.04000 0.01800 -0.01000
O 	O 	0.85000 0.16600 0.15700 -0.42300
H 	H 	0.66038 0.42524 0.02287 0.03600
C 	C 	0.30400 0.96000 0.51800 -0.01000
O 	O 	0.65000 0.83400 0.65700 -0.42200
H 	H 	0.83962 0.57476 0.52287 0.03600
C 	C 	0.80400 0.46000 0.01800 -0.01100
O 	O 	0.15000 0.33400 0.15700 -0.42200
H 	H 	0.33962 0.07476 0.02287 0.03600
C 	C 	0.69600 0.96000 0.51800 -0.01000
O 	O 	0.35000 0.83400 0.65700 -0.42200
H 	H 	0.16038 0.57476 0.52287 0.03600
C 	C 	0.19600 0.46000 0.01800 -0.01000
O 	O 	0.85000 0.33400 0.15700 -0.42300
H 	H 	0.66038 0.07476 0.02287 0.03600
C 	C 	0.30400 0.54000 0.51800 -0.01000
O 	O 	0.65000 0.66600 0.65700 -0.42200
H 	H 	0.83962 0.92524 0.52287 0.03600
C 	C 	0.80400 0.04000 0.01800 -0.01100
O 	O 	0.15000 0.16600 0.15700 -0.42200
H 	H 	0.33962 0.42524 0.02287 0.03600
C 	C 	0.30400 0.46000 0.48200 -0.01000
O 	O 	0.65000 0.33400 0.34300 -0.42200
H 	H 	0.83962 0.07476 0.47713 0.03600
C 	C 	0.80400 0.96000 0.98200 -0.01100
O 	O 	0.15000 0.83400 0.84300 -0.42200
H 	H 	0.33962 0.57476 0.97713 0.03600
C 	C 	0.69600 0.04000 0.48200 -0.01000
O 	O 	0.35000 0.16600 0.34300 -0.42200
H 	H 	0.16038 0.42524 0.47713 0.03600
C 	C 	0.19600 0.54000 0.98200 -0.01000
O 	O 	0.85000 0.66600 0.84300 -0.42300
H 	H 	0.66038 0.92524 0.97713 0.03600
H 	H 	0.50000 0.75000 0.89070 0.19200
H 	H 	0.00000 0.25000 0.39070 0.19200
H 	H 	0.50000 0.25000 0.10930 0.19200
H 	H 	-0.00000 0.75000 0.60930 0.19200
Cr	Cr	0.25000 0.75000 0.75000 1.59600
Cr	Cr	0.75000 0.75000 0.75000 1.59600
Cr	Cr	0.75000 0.25000 0.25000 1.59600
Cr	Cr	0.25000 0.25000 0.25000 1.59600
C 	C 	0.50000 0.05400 0.46100 -0.06800
C 	C 	0.50000 0.12500 0.38800 0.31100
C 	C 	-0.00000 0.55400 0.96100 -0.06800
C 	C 	0.00000 0.62500 0.88800 0.31200
C 	C 	0.50000 0.44600 0.46100 -0.06800
C 	C 	0.50000 0.37500 0.38800 0.31100
C 	C 	-0.00000 0.94600 0.96100 -0.06800
C 	C 	0.00000 0.87500 0.88800 0.31200
C 	C 	0.50000 0.55400 0.53900 -0.06800
C 	C 	0.50000 0.62500 0.61200 0.31100
C 	C 	0.00000 0.05400 0.03900 -0.06800
C 	C 	0.00000 0.12500 0.11200 0.31200
C 	C 	0.50000 0.94600 0.53900 -0.06800
C 	C 	0.50000 0.87500 0.61200 0.31100
C 	C 	-0.00000 0.44600 0.03900 -0.06800
C 	C 	0.00000 0.37500 0.11200 0.31200
O 	O 	0.00000 0.75000 0.68600 -0.68700
O 	O 	0.50000 0.25000 0.18600 -0.68700
O 	O 	-0.00000 0.25000 0.31400 -0.68700
O 	O 	0.50000 0.75000 0.81400 -0.68700
