data_crystal

_cell_length_a 17.34000
_cell_length_b 6.82200
_cell_length_c 12.17800
_cell_angle_alpha 90.00000
_cell_angle_beta  90.00000
_cell_angle_gamma 90.00000

_symmetry_space_group_name_	'P 1'
_symmetry_space_group_name_H-M	'P 1'

loop_
_symmetry_equiv_pos_as_xyz
  x,y,z

loop_
_atom_site_label
_atom_site_type_symbol
_atom_site_fract_x
_atom_site_fract_y
_atom_site_fract_z
_atom_site_charge
O 	O 	0.08900 0.91300 0.08900 -0.46500
O 	O 	0.42700 0.91000 0.38800 -0.37400
C 	C 	0.22900 0.92200 0.19800 0.06000
C 	C 	0.29500 0.92000 0.26400 0.11100
O 	O 	0.41100 0.08700 0.58900 -0.51300
O 	O 	0.07300 0.09000 0.88800 -0.48100
C 	C 	0.27100 0.07800 0.69800 -0.01400
C 	C 	0.20500 0.08000 0.76400 0.03100
O 	O 	0.91100 0.41300 0.91100 -0.27400
O 	O 	0.57300 0.41000 0.61200 -0.44100
C 	C 	0.77100 0.42200 0.80200 0.11500
C 	C 	0.70500 0.42000 0.73600 0.10300
O 	O 	0.58900 0.58700 0.41100 -0.46400
O 	O 	0.92700 0.59000 0.11200 -0.42600
C 	C 	0.72900 0.57800 0.30200 0.03200
C 	C 	0.79500 0.58000 0.23600 0.01700
O 	O 	0.91100 0.08700 0.91100 -0.34800
O 	O 	0.57300 0.09000 0.61200 -0.51500
C 	C 	0.77100 0.07800 0.80200 0.03400
C 	C 	0.70500 0.08000 0.73600 0.02300
O 	O 	0.58900 0.91300 0.41100 -0.36600
O 	O 	0.92700 0.91000 0.11200 -0.33100
C 	C 	0.72900 0.92200 0.30200 0.11400
C 	C 	0.79500 0.92000 0.23600 0.09700
O 	O 	0.08900 0.58700 0.08900 -0.56600
O 	O 	0.42700 0.59000 0.38800 -0.47200
C 	C 	0.22900 0.57800 0.19800 -0.02400
C 	C 	0.29500 0.58000 0.26400 0.02900
O 	O 	0.41100 0.41300 0.58900 -0.43800
O 	O 	0.07300 0.41000 0.88800 -0.40800
C 	C 	0.27100 0.42200 0.69800 0.06800
C 	C 	0.20500 0.42000 0.76400 0.11100
Cr	Cr	-0.00000 0.00000 -0.00000 1.32800
Cr	Cr	0.50000 0.00000 0.50000 1.50700
Cr	Cr	-0.00000 0.50000 -0.00000 1.40600
Cr	Cr	0.50000 0.50000 0.50000 1.58500
O 	O 	0.00200 0.75000 0.92200 -0.38700
C 	C 	0.39200 0.75000 0.35700 0.40800
C 	C 	0.12300 0.75000 0.11700 0.38400
C 	C 	0.32900 0.75000 0.28700 -0.16600
C 	C 	0.19100 0.75000 0.18000 -0.13700
O 	O 	0.49800 0.25000 0.42200 -0.58900
C 	C 	0.10800 0.25000 0.85700 0.41400
C 	C 	0.37700 0.25000 0.61700 0.40100
C 	C 	0.17100 0.25000 0.78700 -0.17700
C 	C 	0.30900 0.25000 0.68000 -0.12500
O 	O 	0.99800 0.25000 0.07800 -0.50000
C 	C 	0.60800 0.25000 0.64300 0.42000
C 	C 	0.87700 0.25000 0.88300 0.38700
C 	C 	0.67100 0.25000 0.71300 -0.15700
C 	C 	0.80900 0.25000 0.82000 -0.11800
O 	O 	0.50200 0.75000 0.57800 -0.41900
C 	C 	0.89200 0.75000 0.14300 0.37900
C 	C 	0.62300 0.75000 0.38300 0.40300
C 	C 	0.82900 0.75000 0.21300 -0.12700
C 	C 	0.69100 0.75000 0.32000 -0.14500
