data_crystal

_cell_length_a 10.24960
_cell_length_b 13.45830
_cell_length_c 16.24220
_cell_angle_alpha 90.00000
_cell_angle_beta  95.72000
_cell_angle_gamma 90.00000

_symmetry_space_group_name_	'P 1'
_symmetry_space_group_name_H-M	'P 1'

loop_
_symmetry_equiv_pos_as_xyz
  x,y,z

loop_
_atom_site_label
_atom_site_type_symbol
_atom_site_fract_x
_atom_site_fract_y
_atom_site_fract_z
_atom_site_charge
Zn	Zn	0.12411 0.53153 0.45508 1.23000
Zn	Zn	0.97833 0.70608 0.56400 1.22300
Br	Br	0.97081 0.85521 0.49194 -0.40600
C 	C 	0.38127 0.68391 0.64135 -0.12200
C 	C 	0.38463 0.75343 0.70511 0.06200
H 	H 	0.30650 0.77820 0.72140 0.05100
C 	C 	0.50282 0.78611 0.74461 -0.09600
C 	C 	0.61985 0.74911 0.71999 0.06000
H 	H 	0.69960 0.77120 0.74590 0.05000
C 	C 	0.61738 0.67906 0.65662 -0.11800
C 	C 	0.49846 0.64622 0.61837 0.07200
H 	H 	0.49700 0.59850 0.57690 0.04600
C 	C 	0.25295 0.65277 0.59696 0.41000
C 	C 	0.50141 0.85991 0.81453 0.33600
C 	C 	0.74264 0.63949 0.62785 0.39500
O 	O 	0.25785 0.59663 0.53491 -0.46300
O 	O 	0.15135 0.68432 0.62476 -0.48400
O 	O 	0.39304 0.88872 0.83277 -0.27400
O 	O 	0.61188 0.88770 0.85001 -0.41700
O 	O 	0.84322 0.69311 0.64190 -0.46800
O 	O 	0.73561 0.55792 0.59133 -0.43400
O 	O 	0.95046 0.59003 0.49313 -0.65100
Zn	Zn	0.37589 0.03153 0.04492 1.22800
Zn	Zn	0.52167 0.20608 0.93600 1.22200
Br	Br	0.52919 0.35521 0.00806 -0.40700
C 	C 	0.11873 0.18391 0.85865 -0.12400
C 	C 	0.11537 0.25343 0.79489 0.06400
H 	H 	0.19350 0.27820 0.77860 0.05000
C 	C 	0.99718 0.28611 0.75539 -0.09700
C 	C 	0.88015 0.24911 0.78001 0.06100
H 	H 	0.80040 0.27120 0.75410 0.05000
C 	C 	0.88262 0.17906 0.84338 -0.11900
C 	C 	0.00154 0.14622 0.88163 0.07300
H 	H 	0.00300 0.09850 0.92310 0.04600
C 	C 	0.24705 0.15277 0.90304 0.41100
C 	C 	0.99859 0.35991 0.68547 0.33600
C 	C 	0.75736 0.13949 0.87215 0.39500
O 	O 	0.24215 0.09663 0.96509 -0.46200
O 	O 	0.34865 0.18432 0.87524 -0.48500
O 	O 	0.10696 0.38872 0.66723 -0.27400
O 	O 	0.88812 0.38770 0.64999 -0.41700
O 	O 	0.65678 0.19311 0.85810 -0.46700
O 	O 	0.76439 0.05792 0.90867 -0.43300
O 	O 	0.54954 0.09003 0.00687 -0.65100
Zn	Zn	0.87589 0.46847 0.54492 1.22900
Zn	Zn	0.02167 0.29392 0.43600 1.22200
Br	Br	0.02919 0.14479 0.50806 -0.40700
C 	C 	0.61873 0.31609 0.35865 -0.12300
C 	C 	0.61537 0.24657 0.29489 0.06200
H 	H 	0.69350 0.22180 0.27860 0.05100
C 	C 	0.49718 0.21389 0.25539 -0.09600
C 	C 	0.38015 0.25089 0.28001 0.06000
H 	H 	0.30040 0.22880 0.25410 0.05000
C 	C 	0.38262 0.32094 0.34338 -0.11800
C 	C 	0.50154 0.35378 0.38163 0.07200
H 	H 	0.50300 0.40150 0.42310 0.04600
C 	C 	0.74705 0.34723 0.40304 0.41000
C 	C 	0.49859 0.14009 0.18547 0.33600
C 	C 	0.25736 0.36051 0.37215 0.39500
O 	O 	0.74215 0.40337 0.46509 -0.46300
O 	O 	0.84865 0.31568 0.37524 -0.48400
O 	O 	0.60696 0.11128 0.16723 -0.27400
O 	O 	0.38812 0.11230 0.14999 -0.41700
O 	O 	0.15678 0.30689 0.35810 -0.46800
O 	O 	0.26439 0.44208 0.40867 -0.43400
O 	O 	0.04954 0.40997 0.50687 -0.65100
Zn	Zn	0.62411 0.96847 0.95508 1.22800
Zn	Zn	0.47833 0.79392 0.06400 1.22200
Br	Br	0.47081 0.64479 0.99194 -0.40700
C 	C 	0.88127 0.81609 0.14135 -0.12400
C 	C 	0.88463 0.74657 0.20511 0.06400
H 	H 	0.80650 0.72180 0.22140 0.05000
C 	C 	0.00282 0.71389 0.24461 -0.09700
C 	C 	0.11985 0.75089 0.21999 0.06100
H 	H 	0.19960 0.72880 0.24590 0.05000
C 	C 	0.11738 0.82094 0.15662 -0.11900
C 	C 	0.99846 0.85378 0.11837 0.07300
H 	H 	0.99700 0.90150 0.07690 0.04600
C 	C 	0.75295 0.84723 0.09696 0.41100
C 	C 	0.00141 0.64009 0.31453 0.33600
C 	C 	0.24264 0.86051 0.12785 0.39500
O 	O 	0.75785 0.90337 0.03491 -0.46200
O 	O 	0.65135 0.81568 0.12476 -0.48500
O 	O 	0.89304 0.61128 0.33277 -0.27400
O 	O 	0.11188 0.61230 0.35001 -0.41700
O 	O 	0.34322 0.80689 0.14190 -0.46700
O 	O 	0.23561 0.94208 0.09133 -0.43300
O 	O 	0.45046 0.90997 0.99313 -0.65100
