data_crystal

_cell_length_a 16.25400
_cell_length_b 13.50800
_cell_length_c 7.68300
_cell_angle_alpha 90.00000
_cell_angle_beta  90.91000
_cell_angle_gamma 90.00000

_symmetry_space_group_name_	'P 1'
_symmetry_space_group_name_H-M	'P 1'

loop_
_symmetry_equiv_pos_as_xyz
  x,y,z

loop_
_atom_site_label
_atom_site_type_symbol
_atom_site_fract_x
_atom_site_fract_y
_atom_site_fract_z
_atom_site_charge
O 	O 	0.44050 0.26630 0.44180 -0.08600
O 	O 	0.62140 0.19310 0.37890 -0.17600
O 	O 	0.60210 0.20730 0.66130 -0.23500
O 	O 	0.93000 0.10180 0.62510 -0.17800
O 	O 	0.86530 0.96030 0.65660 -0.24200
C 	C 	0.64210 0.18270 0.53600 0.31700
C 	C 	0.72080 0.13490 0.56630 -0.01300
C 	C 	0.78680 0.09840 0.59600 0.00400
C 	C 	0.86640 0.04890 0.62910 0.30200
O 	O 	0.94050 0.76630 0.44180 -0.03700
O 	O 	0.12140 0.69310 0.37890 -0.18700
O 	O 	0.10210 0.70730 0.66130 -0.25500
O 	O 	0.43000 0.60180 0.62510 -0.22000
O 	O 	0.36530 0.46030 0.65660 -0.26200
C 	C 	0.14210 0.68270 0.53600 0.31700
C 	C 	0.22080 0.63490 0.56630 -0.01600
C 	C 	0.28680 0.59840 0.59600 -0.00400
C 	C 	0.36640 0.54890 0.62910 0.31200
O 	O 	0.55950 0.26630 0.05820 -0.08500
O 	O 	0.37860 0.19310 0.12110 -0.17400
O 	O 	0.39790 0.20730 0.83870 -0.23400
O 	O 	0.07000 0.10180 0.87490 -0.24500
O 	O 	0.13470 0.96030 0.84340 -0.27200
C 	C 	0.35790 0.18270 0.96400 0.31300
C 	C 	0.27920 0.13490 0.93370 -0.00800
C 	C 	0.21320 0.09840 0.90400 -0.00800
C 	C 	0.13360 0.04890 0.87090 0.31700
O 	O 	0.05950 0.76630 0.05820 -0.10800
O 	O 	0.87860 0.69310 0.12110 -0.15000
O 	O 	0.89790 0.70730 0.83870 -0.20600
O 	O 	0.57000 0.60180 0.87490 -0.22100
O 	O 	0.63470 0.46030 0.84340 -0.26100
C 	C 	0.85790 0.68270 0.96400 0.30800
C 	C 	0.77920 0.63490 0.93370 -0.00100
C 	C 	0.71320 0.59840 0.90400 -0.00500
C 	C 	0.63360 0.54890 0.87090 0.31400
O 	O 	0.55950 0.73370 0.55820 -0.08500
O 	O 	0.37860 0.80690 0.62110 -0.17500
O 	O 	0.39790 0.79270 0.33870 -0.23400
O 	O 	0.07000 0.89820 0.37490 -0.24500
O 	O 	0.13470 0.03970 0.34340 -0.27200
C 	C 	0.35790 0.81730 0.46400 0.31400
C 	C 	0.27920 0.86510 0.43370 -0.00800
C 	C 	0.21320 0.90160 0.40400 -0.00700
C 	C 	0.13360 0.95110 0.37090 0.31700
O 	O 	0.05950 0.23370 0.55820 -0.10800
O 	O 	0.87860 0.30690 0.62110 -0.15100
O 	O 	0.89790 0.29270 0.33870 -0.20500
O 	O 	0.57000 0.39820 0.37490 -0.22000
O 	O 	0.63470 0.53970 0.34340 -0.26000
C 	C 	0.85790 0.31730 0.46400 0.30900
C 	C 	0.77920 0.36510 0.43370 -0.00100
C 	C 	0.71320 0.40160 0.40400 -0.00500
C 	C 	0.63360 0.45110 0.37090 0.31400
O 	O 	0.44050 0.73370 0.94180 -0.08600
O 	O 	0.62140 0.80690 0.87890 -0.17600
O 	O 	0.60210 0.79270 0.16130 -0.23400
O 	O 	0.93000 0.89820 0.12510 -0.17800
O 	O 	0.86530 0.03970 0.15660 -0.24100
C 	C 	0.64210 0.81730 0.03600 0.31700
C 	C 	0.72080 0.86510 0.06630 -0.01300
C 	C 	0.78680 0.90160 0.09600 0.00400
C 	C 	0.86640 0.95110 0.12910 0.30100
O 	O 	0.94050 0.23370 0.94180 -0.03800
O 	O 	0.12140 0.30690 0.87890 -0.18800
O 	O 	0.10210 0.29270 0.16130 -0.25500
O 	O 	0.43000 0.39820 0.12510 -0.22000
O 	O 	0.36530 0.53970 0.15660 -0.26200
C 	C 	0.14210 0.31730 0.03600 0.31900
C 	C 	0.22080 0.36510 0.06630 -0.01600
C 	C 	0.28680 0.40160 0.09600 -0.00300
C 	C 	0.36640 0.45110 0.12910 0.31200
U 	U 	0.50000 0.26553 0.25000 0.03900
U 	U 	0.00000 0.76553 0.25000 -0.01200
U 	U 	0.50000 0.73447 0.75000 0.03900
U 	U 	0.00000 0.23447 0.75000 -0.01100
K 	K 	0.50000 0.36037 0.75000 0.68600
K 	K 	0.00000 0.86037 0.75000 0.66800
K 	K 	0.50000 0.63963 0.25000 0.68600
K 	K 	-0.00000 0.13963 0.25000 0.66900
