data_crystal

_cell_length_a 9.36200
_cell_length_b 9.36200
_cell_length_c 7.00400
_cell_angle_alpha 90.00000
_cell_angle_beta  90.00000
_cell_angle_gamma 120.00000

_symmetry_space_group_name_	'P 1'
_symmetry_space_group_name_H-M	'P 1'

loop_
_symmetry_equiv_pos_as_xyz
  x,y,z

loop_
_atom_site_label
_atom_site_type_symbol
_atom_site_fract_x
_atom_site_fract_y
_atom_site_fract_z
_atom_site_charge
Al	Al	0.16200 0.52099 0.05633 2.40200
O 	O 	0.30150 0.73000 0.96020 -0.95200
H 	H 	0.34570 0.81220 0.06210 0.22400
O 	O 	0.27850 0.42720 0.95920 -0.52800
O 	O 	0.53280 0.56530 0.16940 -0.61900
Al	Al	0.47901 0.64101 0.38966 2.40500
O 	O 	0.27000 0.57150 0.29353 -1.01600
H 	H 	0.18780 0.53350 0.39543 0.31800
O 	O 	0.57280 0.85130 0.29253 -0.67200
O 	O 	0.43470 0.96750 0.50273 -0.69600
Al	Al	0.35899 0.83800 0.72300 2.40300
O 	O 	0.42850 0.69850 0.62687 -1.01400
H 	H 	0.46650 0.65430 0.72877 0.29600
O 	O 	0.14870 0.72150 0.62587 -0.60700
O 	O 	0.03250 0.46720 0.83607 -0.57400
Al	Al	0.52099 0.16200 0.94367 2.40900
O 	O 	0.73000 0.30150 0.03980 -1.06100
H 	H 	0.81220 0.34570 0.93790 0.31200
O 	O 	0.42720 0.27850 0.04080 -0.58700
O 	O 	0.56530 0.53280 0.83060 -0.57900
Al	Al	0.64101 0.47901 0.61034 2.40500
O 	O 	0.57150 0.27000 0.70647 -0.99400
H 	H 	0.53350 0.18780 0.60457 0.31300
O 	O 	0.85130 0.57280 0.70747 -0.65900
O 	O 	0.96750 0.43470 0.49727 -0.70000
Al	Al	0.83800 0.35899 0.27700 2.40300
O 	O 	0.69850 0.42850 0.37313 -1.01400
H 	H 	0.65430 0.46650 0.27123 0.29100
O 	O 	0.72150 0.14870 0.37413 -0.61000
O 	O 	0.46720 0.03250 0.16393 -0.59900
P 	P 	0.44934 0.44934 -0.00000 0.63700
P 	P 	0.55066 -0.00000 0.33333 0.82300
P 	P 	-0.00000 0.55066 0.66667 0.82600
F 	F 	-0.00000 0.31780 0.16667 -0.82700
F 	F 	-0.00000 0.56860 0.16667 -0.83600
F 	F 	0.68220 0.68220 0.50000 -0.88300
F 	F 	0.43140 0.43140 0.50000 -0.83800
F 	F 	0.31780 -0.00000 0.83333 -0.79600
F 	F 	0.56860 -0.00000 0.83333 -0.80600
