data_crystal

_cell_length_a 9.33920
_cell_length_b 9.33920
_cell_length_c 6.99420
_cell_angle_alpha 90.00000
_cell_angle_beta  90.00000
_cell_angle_gamma 120.00000

_symmetry_space_group_name_	'P 1'
_symmetry_space_group_name_H-M	'P 1'

loop_
_symmetry_equiv_pos_as_xyz
  x,y,z

loop_
_atom_site_label
_atom_site_type_symbol
_atom_site_fract_x
_atom_site_fract_y
_atom_site_fract_z
_atom_site_charge
O 	O 	0.85150 0.27840 0.12600 -0.61300
O 	O 	0.96730 0.53317 0.33640 -0.70900
Al	Al	0.64088 0.16199 0.22298 2.40700
O 	O 	0.57110 0.30130 0.12680 -1.02100
H 	H 	0.53670 0.35100 0.20930 0.36900
O 	O 	0.72160 0.57310 0.45933 -0.61400
O 	O 	0.46683 0.43413 0.66973 -0.64300
Al	Al	0.83801 0.47889 0.55631 2.40300
O 	O 	0.69870 0.26980 0.46013 -1.09500
H 	H 	0.64900 0.18570 0.54263 0.38200
O 	O 	0.42690 0.14850 0.79267 -0.61700
O 	O 	0.56587 0.03270 0.00307 -0.47300
Al	Al	0.52111 0.35912 0.88965 2.39700
O 	O 	0.73020 0.42890 0.79347 -1.12400
H 	H 	0.81430 0.46330 0.87597 0.30500
O 	O 	0.27840 0.85150 0.87400 -0.66600
O 	O 	0.53317 0.96730 0.66360 -0.70800
Al	Al	0.16199 0.64088 0.77702 2.40700
O 	O 	0.30130 0.57110 0.87320 -1.15100
H 	H 	0.35100 0.53670 0.79070 0.36700
O 	O 	0.57310 0.72160 0.54067 -0.63100
O 	O 	0.43413 0.46683 0.33027 -0.59800
Al	Al	0.47889 0.83801 0.44369 2.40400
O 	O 	0.26980 0.69870 0.53987 -1.09300
H 	H 	0.18570 0.64900 0.45737 0.39700
O 	O 	0.14850 0.42690 0.20733 -0.56600
O 	O 	0.03270 0.56587 0.99693 -0.70000
Al	Al	0.35912 0.52111 0.11035 2.41100
O 	O 	0.42890 0.73020 0.20653 -1.06900
H 	H 	0.46330 0.81430 0.12403 0.37100
P 	P 	-0.00000 0.44942 0.16667 0.92800
P 	P 	0.55058 0.55058 0.50000 0.71200
P 	P 	0.44942 -0.00000 0.83333 0.69700
F 	F 	0.68220 -0.00000 0.33333 -0.83400
F 	F 	0.43160 -0.00000 0.33333 -0.80000
F 	F 	-0.00000 0.68220 0.66667 -0.83500
F 	F 	-0.00000 0.43160 0.66667 -0.82400
F 	F 	0.31780 0.31780 -0.00000 -0.77400
F 	F 	0.56840 0.56840 -0.00000 -0.79900
