data_crystal

_cell_length_a 9.34250
_cell_length_b 9.34250
_cell_length_c 6.99400
_cell_angle_alpha 90.00000
_cell_angle_beta  90.00000
_cell_angle_gamma 120.00000

_symmetry_space_group_name_	'P 1'
_symmetry_space_group_name_H-M	'P 1'

loop_
_symmetry_equiv_pos_as_xyz
  x,y,z

loop_
_atom_site_label
_atom_site_type_symbol
_atom_site_fract_x
_atom_site_fract_y
_atom_site_fract_z
_atom_site_charge
Al	Al	0.16218 0.52118 0.05622 2.40100
O 	O 	0.30140 0.73033 0.96030 -0.95100
H 	H 	0.35770 0.82060 0.05120 0.22200
O 	O 	0.27840 0.42700 0.95950 -0.52900
O 	O 	0.53314 0.56580 0.16960 -0.62000
Al	Al	0.47882 0.64100 0.38955 2.40600
O 	O 	0.26967 0.57107 0.29363 -1.01700
H 	H 	0.17940 0.53710 0.38453 0.32000
O 	O 	0.57300 0.85140 0.29283 -0.67200
O 	O 	0.43420 0.96734 0.50293 -0.69700
Al	Al	0.35900 0.83782 0.72289 2.40300
O 	O 	0.42893 0.69860 0.62697 -1.01500
H 	H 	0.46290 0.64230 0.71787 0.29900
O 	O 	0.14860 0.72160 0.62617 -0.60800
O 	O 	0.03266 0.46686 0.83627 -0.57600
Al	Al	0.52118 0.16218 0.94378 2.41000
O 	O 	0.73033 0.30140 0.03970 -1.06000
H 	H 	0.82060 0.35770 0.94880 0.31200
O 	O 	0.42700 0.27840 0.04050 -0.58800
O 	O 	0.56580 0.53314 0.83040 -0.58100
Al	Al	0.64100 0.47882 0.61045 2.40600
O 	O 	0.57107 0.26967 0.70637 -0.99400
H 	H 	0.53710 0.17940 0.61547 0.31600
O 	O 	0.85140 0.57300 0.70717 -0.66000
O 	O 	0.96734 0.43420 0.49707 -0.70200
Al	Al	0.83782 0.35900 0.27711 2.40300
O 	O 	0.69860 0.42893 0.37303 -1.01600
H 	H 	0.64230 0.46290 0.28213 0.29500
O 	O 	0.72160 0.14860 0.37383 -0.61100
O 	O 	0.46686 0.03266 0.16373 -0.60000
P 	P 	0.44940 0.44940 -0.00000 0.64100
P 	P 	0.55060 0.00000 0.33333 0.82700
P 	P 	0.00000 0.55060 0.66667 0.83000
F 	F 	-0.00000 0.31790 0.16667 -0.82700
F 	F 	-0.00000 0.56830 0.16667 -0.84000
F 	F 	0.68210 0.68210 0.50000 -0.88200
F 	F 	0.43170 0.43170 0.50000 -0.84100
F 	F 	0.31790 0.00000 0.83333 -0.79500
F 	F 	0.56830 0.00000 0.83333 -0.80900
