data_crystal

_cell_length_a 9.34210
_cell_length_b 9.34210
_cell_length_c 6.99600
_cell_angle_alpha 90.00000
_cell_angle_beta  90.00000
_cell_angle_gamma 120.00000

_symmetry_space_group_name_	'P 1'
_symmetry_space_group_name_H-M	'P 1'

loop_
_symmetry_equiv_pos_as_xyz
  x,y,z

loop_
_atom_site_label
_atom_site_type_symbol
_atom_site_fract_x
_atom_site_fract_y
_atom_site_fract_z
_atom_site_charge
O 	O 	0.57340 0.72160 0.04090 -0.61100
O 	O 	0.43450 0.46750 0.83020 -0.57400
Al	Al	0.47892 0.83800 0.94364 2.40900
O 	O 	0.27010 0.69860 0.04040 -1.43200
H 	H 	0.20400 0.65200 0.96800 0.70100
O 	O 	0.27840 0.85180 0.37423 -0.62800
O 	O 	0.53250 0.96700 0.16353 -0.70000
Al	Al	0.16200 0.64092 0.27697 2.41100
O 	O 	0.30140 0.57150 0.37373 -1.38200
H 	H 	0.34800 0.55200 0.30133 0.65700
O 	O 	0.14820 0.42660 0.70757 -0.56600
O 	O 	0.03300 0.56550 0.49687 -0.59500
Al	Al	0.35908 0.52108 0.61031 2.41000
O 	O 	0.42850 0.72990 0.70707 -1.38000
H 	H 	0.44800 0.79600 0.63467 0.62400
O 	O 	0.72160 0.57340 0.95910 -0.56500
O 	O 	0.46750 0.43450 0.16980 -0.60600
Al	Al	0.83800 0.47892 0.05636 2.40200
O 	O 	0.69860 0.27010 0.95960 -1.26600
H 	H 	0.65200 0.20400 0.03200 0.55700
O 	O 	0.85180 0.27840 0.62577 -0.63600
O 	O 	0.96700 0.53250 0.83647 -0.69500
Al	Al	0.64092 0.16200 0.72303 2.41000
O 	O 	0.57150 0.30140 0.62627 -1.38400
H 	H 	0.55200 0.34800 0.69867 0.66000
O 	O 	0.42660 0.14820 0.29243 -0.57600
O 	O 	0.56550 0.03300 0.50313 -0.59700
Al	Al	0.52108 0.35908 0.38969 2.41000
O 	O 	0.72990 0.42850 0.29293 -1.40500
H 	H 	0.79600 0.44800 0.36533 0.62900
P 	P 	0.55059 0.55059 -0.00000 0.65000
P 	P 	0.44941 0.00000 0.33333 0.81100
P 	P 	-0.00000 0.44941 0.66667 0.81900
F 	F 	0.68180 0.00000 0.83333 -0.80900
F 	F 	0.43170 0.00000 0.83333 -0.79100
F 	F 	-0.00000 0.68180 0.16667 -0.83100
F 	F 	-0.00000 0.43170 0.16667 -0.81700
F 	F 	0.31820 0.31820 0.50000 -0.84200
F 	F 	0.56830 0.56830 0.50000 -0.87200
