data_crystal

_cell_length_a 9.34150
_cell_length_b 9.34150
_cell_length_c 6.99550
_cell_angle_alpha 90.00000
_cell_angle_beta  90.00000
_cell_angle_gamma 120.00000

_symmetry_space_group_name_	'P 1'
_symmetry_space_group_name_H-M	'P 1'

loop_
_symmetry_equiv_pos_as_xyz
  x,y,z

loop_
_atom_site_label
_atom_site_type_symbol
_atom_site_fract_x
_atom_site_fract_y
_atom_site_fract_z
_atom_site_charge
Al	Al	0.16196 0.52127 0.05625 2.40200
O 	O 	0.30180 0.73020 0.95990 -0.92100
H 	H 	0.36050 0.83100 0.04290 0.19000
O 	O 	0.27830 0.42700 0.95920 -0.52600
O 	O 	0.53250 0.56580 0.16910 -0.62100
Al	Al	0.47873 0.64069 0.38958 2.40600
O 	O 	0.26980 0.57160 0.29323 -0.98900
H 	H 	0.16900 0.52950 0.37623 0.29000
O 	O 	0.57300 0.85130 0.29253 -0.66900
O 	O 	0.43420 0.96670 0.50243 -0.69700
Al	Al	0.35931 0.83804 0.72292 2.40300
O 	O 	0.42840 0.69820 0.62657 -0.98500
H 	H 	0.47050 0.63950 0.70957 0.26900
O 	O 	0.14870 0.72170 0.62587 -0.60500
O 	O 	0.03330 0.46750 0.83577 -0.57600
Al	Al	0.52127 0.16196 0.94375 2.40900
O 	O 	0.73020 0.30180 0.04010 -1.02900
H 	H 	0.83100 0.36050 0.95710 0.27900
O 	O 	0.42700 0.27830 0.04080 -0.58600
O 	O 	0.56580 0.53250 0.83090 -0.58100
Al	Al	0.64069 0.47873 0.61042 2.40600
O 	O 	0.57160 0.26980 0.70677 -0.96500
H 	H 	0.52950 0.16900 0.62377 0.28700
O 	O 	0.85130 0.57300 0.70747 -0.65700
O 	O 	0.96670 0.43420 0.49757 -0.70300
Al	Al	0.83804 0.35931 0.27708 2.40300
O 	O 	0.69820 0.42840 0.37343 -0.98600
H 	H 	0.63950 0.47050 0.29043 0.26400
O 	O 	0.72170 0.14870 0.37413 -0.60800
O 	O 	0.46750 0.03330 0.16423 -0.59900
P 	P 	0.44930 0.44930 -0.00000 0.64600
P 	P 	0.55070 0.00000 0.33333 0.83100
P 	P 	-0.00000 0.55070 0.66667 0.83600
F 	F 	-0.00000 0.31830 0.16667 -0.83400
F 	F 	-0.00000 0.56860 0.16667 -0.84200
F 	F 	0.68170 0.68170 0.50000 -0.88900
F 	F 	0.43140 0.43140 0.50000 -0.84200
F 	F 	0.31830 0.00000 0.83333 -0.80100
F 	F 	0.56860 0.00000 0.83333 -0.81000
