data_crystal

_cell_length_a 9.33760
_cell_length_b 9.33760
_cell_length_c 6.99100
_cell_angle_alpha 90.00000
_cell_angle_beta  90.00000
_cell_angle_gamma 120.00000

_symmetry_space_group_name_	'P 1'
_symmetry_space_group_name_H-M	'P 1'

loop_
_symmetry_equiv_pos_as_xyz
  x,y,z

loop_
_atom_site_label
_atom_site_type_symbol
_atom_site_fract_x
_atom_site_fract_y
_atom_site_fract_z
_atom_site_charge
Al	Al	0.47881 0.83784 0.94382 2.40700
O 	O 	0.27030 0.69870 0.04040 -1.17200
H 	H 	0.19360 0.64110 0.95830 0.45800
O 	O 	0.57260 0.72150 0.04070 -0.62800
O 	O 	0.43440 0.46720 0.83070 -0.56900
Al	Al	0.16216 0.64097 0.27715 2.40800
O 	O 	0.30130 0.57160 0.37373 -1.12400
H 	H 	0.35890 0.55250 0.29163 0.41500
O 	O 	0.27850 0.85110 0.37403 -0.64200
O 	O 	0.53280 0.96720 0.16403 -0.70300
Al	Al	0.35903 0.52119 0.61049 2.40700
O 	O 	0.42840 0.72970 0.70707 -1.12600
H 	H 	0.44750 0.80640 0.62497 0.38400
O 	O 	0.14890 0.42740 0.70737 -0.58000
O 	O 	0.03280 0.56560 0.49737 -0.59400
Al	Al	0.83784 0.47881 0.05618 2.39900
O 	O 	0.69870 0.27030 0.95960 -1.04200
H 	H 	0.64110 0.19360 0.04170 0.34500
O 	O 	0.72150 0.57260 0.95930 -0.57300
O 	O 	0.46720 0.43440 0.16930 -0.60600
Al	Al	0.64097 0.16216 0.72285 2.40800
O 	O 	0.57160 0.30130 0.62627 -1.12500
H 	H 	0.55250 0.35890 0.70837 0.41900
O 	O 	0.85110 0.27850 0.62597 -0.65000
O 	O 	0.96720 0.53280 0.83597 -0.69300
Al	Al	0.52119 0.35903 0.38951 2.40700
O 	O 	0.72970 0.42840 0.29293 -1.15000
H 	H 	0.80640 0.44750 0.37503 0.38600
O 	O 	0.42740 0.14890 0.29263 -0.59200
O 	O 	0.56560 0.03280 0.50263 -0.59600
P 	P 	0.55071 0.55071 -0.00000 0.64400
P 	P 	0.44929 0.00000 0.33333 0.81300
P 	P 	-0.00000 0.44929 0.66667 0.82400
F 	F 	0.68210 0.00000 0.83333 -0.80500
F 	F 	0.43190 0.00000 0.83333 -0.79100
F 	F 	-0.00000 0.68210 0.16667 -0.83000
F 	F 	-0.00000 0.43190 0.16667 -0.82100
F 	F 	0.31790 0.31790 0.50000 -0.83900
F 	F 	0.56810 0.56810 0.50000 -0.87300
