data_crystal

_cell_length_a 9.34110
_cell_length_b 9.34110
_cell_length_c 6.99320
_cell_angle_alpha 90.00000
_cell_angle_beta  90.00000
_cell_angle_gamma 120.00000

_symmetry_space_group_name_	'P 1'
_symmetry_space_group_name_H-M	'P 1'

loop_
_symmetry_equiv_pos_as_xyz
  x,y,z

loop_
_atom_site_label
_atom_site_type_symbol
_atom_site_fract_x
_atom_site_fract_y
_atom_site_fract_z
_atom_site_charge
Al	Al	0.64075 0.16199 0.22307 2.40700
O 	O 	0.57110 0.30140 0.12710 -1.04100
H 	H 	0.55350 0.36790 0.19820 0.38400
O 	O 	0.85150 0.27850 0.12600 -0.61400
O 	O 	0.03290 0.56560 0.99700 -0.70000
Al	Al	0.83801 0.47876 0.55640 2.40300
O 	O 	0.69860 0.26970 0.46043 -1.11800
H 	H 	0.63210 0.18560 0.53153 0.40300
O 	O 	0.72150 0.57300 0.45933 -0.61400
O 	O 	0.43440 0.46730 0.33033 -0.59600
Al	Al	0.52124 0.35925 0.88974 2.39700
O 	O 	0.73030 0.42890 0.79377 -1.14500
H 	H 	0.81440 0.44650 0.86487 0.32600
O 	O 	0.42700 0.14850 0.79267 -0.61700
O 	O 	0.53270 0.96710 0.66367 -0.70500
Al	Al	0.16199 0.64075 0.77693 2.40700
O 	O 	0.30140 0.57110 0.87290 -1.16800
H 	H 	0.36790 0.55350 0.80180 0.37900
O 	O 	0.27850 0.85150 0.87400 -0.66600
O 	O 	0.56560 0.03290 0.00300 -0.47000
Al	Al	0.47876 0.83801 0.44360 2.40400
O 	O 	0.26970 0.69860 0.53957 -1.11300
H 	H 	0.18560 0.63210 0.46847 0.41400
O 	O 	0.57300 0.72150 0.54067 -0.63100
O 	O 	0.46730 0.43440 0.66967 -0.64100
Al	Al	0.35925 0.52124 0.11026 2.41100
O 	O 	0.42890 0.73030 0.20623 -1.08900
H 	H 	0.44650 0.81440 0.13513 0.38800
O 	O 	0.14850 0.42700 0.20733 -0.56600
O 	O 	0.96710 0.53270 0.33633 -0.70800
P 	P 	0.00000 0.44936 0.16667 0.93100
P 	P 	0.55064 0.55064 0.50000 0.71400
P 	P 	0.44936 -0.00000 0.83333 0.69800
F 	F 	0.68220 0.00000 0.33333 -0.82900
F 	F 	0.43170 0.00000 0.33333 -0.80500
F 	F 	0.00000 0.68220 0.66667 -0.83000
F 	F 	0.00000 0.43170 0.66667 -0.82800
F 	F 	0.31780 0.31780 -0.00000 -0.76800
F 	F 	0.56830 0.56830 -0.00000 -0.80400
