data_crystal

_cell_length_a 9.34290
_cell_length_b 9.34290
_cell_length_c 6.99270
_cell_angle_alpha 90.00000
_cell_angle_beta  90.00000
_cell_angle_gamma 120.00000

_symmetry_space_group_name_	'P 1'
_symmetry_space_group_name_H-M	'P 1'

loop_
_symmetry_equiv_pos_as_xyz
  x,y,z

loop_
_atom_site_label
_atom_site_type_symbol
_atom_site_fract_x
_atom_site_fract_y
_atom_site_fract_z
_atom_site_charge
Al	Al	0.47892 0.64105 0.88953 2.39800
O 	O 	0.42870 0.69850 0.12630 -0.98500
H 	H 	0.45060 0.64600 0.22950 0.30700
O 	O 	0.57290 0.85150 0.79250 -0.72300
O 	O 	0.43420 0.96710 0.00280 -0.61000
Al	Al	0.35895 0.83787 0.22286 2.40200
O 	O 	0.30150 0.73020 0.45963 -1.04300
H 	H 	0.35400 0.80460 0.56283 0.27800
O 	O 	0.14850 0.72140 0.12583 -0.58700
O 	O 	0.03290 0.46710 0.33613 -0.58800
Al	Al	0.16213 0.52108 0.55620 2.40600
O 	O 	0.26980 0.57130 0.79297 -1.05900
H 	H 	0.19540 0.54940 0.89617 0.28800
O 	O 	0.27860 0.42710 0.45917 -0.57600
O 	O 	0.53290 0.56580 0.66947 -0.65600
Al	Al	0.64105 0.47892 0.11047 2.41100
O 	O 	0.69850 0.42870 0.87370 -1.11700
H 	H 	0.64600 0.45060 0.77050 0.30900
O 	O 	0.85150 0.57290 0.20750 -0.63400
O 	O 	0.96710 0.43420 0.99720 -0.78900
Al	Al	0.83787 0.35895 0.77714 2.40400
O 	O 	0.73020 0.30150 0.54037 -1.03500
H 	H 	0.80460 0.35400 0.43717 0.30800
O 	O 	0.72140 0.14850 0.87417 -0.64200
O 	O 	0.46710 0.03290 0.66387 -0.59000
Al	Al	0.52108 0.16213 0.44380 2.40700
O 	O 	0.57130 0.26980 0.20703 -1.01200
H 	H 	0.54940 0.19540 0.10383 0.37800
O 	O 	0.42710 0.27860 0.54083 -0.59300
O 	O 	0.56580 0.53290 0.33053 -0.60900
P 	P 	0.55067 -0.00000 0.83333 0.75400
P 	P 	-0.00000 0.55067 0.16667 0.90100
P 	P 	0.44933 0.44933 0.50000 0.71100
F 	F 	0.68220 0.68220 -0.00000 -0.80100
F 	F 	0.43180 0.43180 -0.00000 -0.76400
F 	F 	0.31780 -0.00000 0.33333 -0.79000
F 	F 	0.56820 -0.00000 0.33333 -0.79100
F 	F 	-0.00000 0.31780 0.66667 -0.81900
F 	F 	0.00000 0.56820 0.66667 -0.84900
