data_crystal

_cell_length_a 7.16800
_cell_length_b 10.72300
_cell_length_c 17.15500
_cell_angle_alpha 97.07900
_cell_angle_beta  90.00000
_cell_angle_gamma 90.00000

_symmetry_space_group_name_	'P 1'
_symmetry_space_group_name_H-M	'P 1'

loop_
_symmetry_equiv_pos_as_xyz
  x,y,z

loop_
_atom_site_label
_atom_site_type_symbol
_atom_site_fract_x
_atom_site_fract_y
_atom_site_fract_z
_atom_site_charge
Tb	Tb	0.47974 0.67572 0.74673 1.89200
Tb	Tb	0.97974 0.82428 0.75327 1.87100
Tb	Tb	0.52026 0.32428 0.25326 1.89200
Tb	Tb	0.02026 0.17572 0.24673 1.87100
H 	H 	0.67000 0.51500 0.47700 0.05600
H 	H 	0.34400 0.83200 0.55100 0.04800
H 	H 	0.03700 0.19400 0.56200 0.22600
H 	H 	0.17000 0.98500 0.02300 0.05600
H 	H 	0.84400 0.66800 0.94900 0.04900
H 	H 	0.53700 0.30600 0.93800 0.23000
H 	H 	0.33000 0.48500 0.52300 0.05600
H 	H 	0.65600 0.16800 0.44900 0.04800
H 	H 	0.96300 0.80600 0.43800 0.22600
H 	H 	0.83000 0.01500 0.97700 0.05600
H 	H 	0.15600 0.33200 0.05100 0.04900
H 	H 	0.46300 0.69400 0.06200 0.23000
C 	C 	0.74750 0.59560 0.62596 0.38200
C 	C 	0.88260 0.54800 0.56168 -0.07400
C 	C 	0.07390 0.54200 0.57302 -0.05000
C 	C 	0.17330 0.58420 0.64887 0.35700
C 	C 	0.80920 0.50560 0.48811 0.01200
C 	C 	0.64730 0.89160 0.63491 0.45700
C 	C 	0.65910 0.05370 0.53677 -0.03100
C 	C 	0.81990 0.12190 0.57927 0.33800
C 	C 	0.41020 0.90140 0.52963 0.01800
C 	C 	0.57150 0.95280 0.56673 -0.09200
C 	C 	0.24750 0.90440 0.87404 0.38000
C 	C 	0.38260 0.95200 0.93832 -0.06800
C 	C 	0.57390 0.95800 0.92698 -0.05700
C 	C 	0.67330 0.91580 0.85113 0.35800
C 	C 	0.30920 0.99440 0.01189 0.01200
C 	C 	0.14730 0.60840 0.86509 0.45400
C 	C 	0.15910 0.44630 0.96323 -0.03000
C 	C 	0.31990 0.37810 0.92073 0.33900
C 	C 	0.91020 0.59860 0.97037 0.00700
C 	C 	0.07150 0.54720 0.93327 -0.08200
C 	C 	0.25250 0.40440 0.37404 0.38200
C 	C 	0.11740 0.45200 0.43832 -0.07400
C 	C 	0.92610 0.45800 0.42698 -0.05000
C 	C 	0.82670 0.41580 0.35113 0.35700
C 	C 	0.19080 0.49440 0.51189 0.01200
C 	C 	0.35270 0.10840 0.36509 0.45700
C 	C 	0.34090 0.94630 0.46323 -0.03100
C 	C 	0.18010 0.87810 0.42073 0.33800
C 	C 	0.58980 0.09860 0.47037 0.01800
C 	C 	0.42850 0.04720 0.43327 -0.09200
C 	C 	0.75250 0.09560 0.12596 0.38000
C 	C 	0.61740 0.04800 0.06168 -0.06800
C 	C 	0.42610 0.04200 0.07302 -0.05700
C 	C 	0.32670 0.08420 0.14887 0.35800
C 	C 	0.69080 0.00560 0.98811 0.01200
C 	C 	0.85270 0.39160 0.13491 0.45400
C 	C 	0.84090 0.55370 0.03677 -0.03000
C 	C 	0.68010 0.62190 0.07927 0.33900
C 	C 	0.08980 0.40140 0.02963 0.00700
C 	C 	0.92850 0.45280 0.06673 -0.08200
O 	O 	0.57800 0.58480 0.61355 -0.42300
O 	O 	0.81010 0.64440 0.69206 -0.55100
O 	O 	0.19130 0.70311 0.67064 -0.55900
O 	O 	0.25360 0.50633 0.68473 -0.38100
O 	O 	0.53080 0.84520 0.67685 -0.49600
O 	O 	0.82130 0.88777 0.64340 -0.47300
O 	O 	0.81890 0.15320 0.64992 -0.26000
O 	O 	0.95400 0.14880 0.53252 -0.38800
O 	O 	0.07800 0.91520 0.88645 -0.41500
O 	O 	0.31010 0.85560 0.80794 -0.54700
O 	O 	0.69130 0.79689 0.82936 -0.56400
O 	O 	0.75360 0.99367 0.81527 -0.38400
O 	O 	0.03080 0.65480 0.82315 -0.48900
O 	O 	0.32130 0.61223 0.85660 -0.47100
O 	O 	0.31890 0.34680 0.85008 -0.26200
O 	O 	0.45400 0.35120 0.96748 -0.39500
O 	O 	0.42200 0.41520 0.38645 -0.42300
O 	O 	0.18990 0.35560 0.30794 -0.55100
O 	O 	0.80870 0.29689 0.32936 -0.55900
O 	O 	0.74640 0.49367 0.31527 -0.38100
O 	O 	0.46920 0.15480 0.32315 -0.49600
O 	O 	0.17870 0.11223 0.35660 -0.47300
O 	O 	0.18110 0.84680 0.35008 -0.26000
O 	O 	0.04600 0.85120 0.46748 -0.38800
O 	O 	0.92200 0.08480 0.11355 -0.41500
O 	O 	0.68990 0.14440 0.19206 -0.54700
O 	O 	0.30870 0.20311 0.17064 -0.56400
O 	O 	0.24640 0.00633 0.18473 -0.38400
O 	O 	0.96920 0.34520 0.17685 -0.48900
O 	O 	0.67870 0.38777 0.14340 -0.47100
O 	O 	0.68110 0.65320 0.14992 -0.26200
O 	O 	0.54600 0.64880 0.03252 -0.39500
