data_crystal

_cell_length_a 16.09840
_cell_length_b 14.60700
_cell_length_c 16.12570
_cell_angle_alpha 90.00000
_cell_angle_beta  101.47900
_cell_angle_gamma 90.00000

_symmetry_space_group_name_	'P 1'
_symmetry_space_group_name_H-M	'P 1'

loop_
_symmetry_equiv_pos_as_xyz
  x,y,z

loop_
_atom_site_label
_atom_site_type_symbol
_atom_site_fract_x
_atom_site_fract_y
_atom_site_fract_z
_atom_site_charge
Cd	Cd	0.45772 0.93180 0.39140 1.23200
Cd	Cd	0.04233 0.06734 0.10863 1.22900
O 	O 	0.14716 0.03540 0.23729 -0.33800
O 	O 	0.05373 0.14490 0.23592 -0.36500
O 	O 	0.40412 0.03400 0.47292 -0.46500
O 	O 	0.40564 0.12585 0.58346 -0.38100
O 	O 	0.16730 0.32690 0.59854 -0.32600
O 	O 	0.05363 0.32740 0.49656 -0.34800
O 	O 	0.44370 0.82770 0.50047 -0.37200
O 	O 	0.33030 0.82740 0.40050 -0.30900
O 	O 	0.44480 0.64930 0.76290 -0.36200
O 	O 	0.35290 0.54050 0.76468 -0.36400
O 	O 	0.09440 0.62350 0.41557 -0.39900
O 	O 	0.09422 0.53720 0.52400 -0.49500
C 	C 	0.11770 0.10330 0.27090 0.30600
C 	C 	0.16650 0.13360 0.36010 -0.06900
C 	C 	0.12890 0.20040 0.40090 0.02100
H 	H 	0.07680 0.22490 0.37510 0.05800
C 	C 	0.16790 0.23040 0.47850 -0.07600
C 	C 	0.24600 0.19390 0.51520 0.03400
H 	H 	0.27380 0.21500 0.56780 0.05900
C 	C 	0.28360 0.12590 0.47440 -0.10700
C 	C 	0.24390 0.09810 0.39570 0.03800
H 	H 	0.26950 0.05520 0.36630 0.04800
C 	C 	0.12910 0.29890 0.53140 0.30500
C 	C 	0.36980 0.09210 0.51270 0.36700
C 	C 	0.37170 0.79840 0.47210 0.32800
C 	C 	0.32940 0.73070 0.51480 -0.12000
C 	C 	0.37180 0.69940 0.60190 0.04900
H 	H 	0.42300 0.72590 0.62770 0.04900
C 	C 	0.33880 0.63640 0.64180 -0.09400
C 	C 	0.25970 0.59760 0.60640 0.05100
H 	H 	0.23620 0.55250 0.63540 0.04400
C 	C 	0.21410 0.62950 0.52220 -0.14700
C 	C 	0.25370 0.69150 0.48440 0.09100
H 	H 	0.22620 0.71010 0.43080 0.04100
C 	C 	0.38060 0.60370 0.73110 0.33900
C 	C 	0.12840 0.59180 0.48670 0.43100
Cd	Cd	0.54228 0.43180 0.10860 1.23200
Cd	Cd	0.95767 0.56734 0.39137 1.23300
O 	O 	0.85284 0.53540 0.26271 -0.33200
O 	O 	0.94627 0.64490 0.26408 -0.36000
O 	O 	0.59588 0.53400 0.02708 -0.46100
O 	O 	0.59436 0.62585 0.91654 -0.37900
O 	O 	0.83270 0.82690 0.90146 -0.32300
O 	O 	0.94637 0.82740 0.00344 -0.33800
O 	O 	0.55630 0.32770 0.99953 -0.36600
O 	O 	0.66970 0.32740 0.09950 -0.30600
O 	O 	0.55520 0.14930 0.73710 -0.36000
O 	O 	0.64710 0.04050 0.73532 -0.36000
O 	O 	0.90560 0.12350 0.08443 -0.39400
O 	O 	0.90578 0.03720 0.97600 -0.48400
C 	C 	0.88230 0.60330 0.22910 0.30100
C 	C 	0.83350 0.63360 0.13990 -0.05600
C 	C 	0.87110 0.70040 0.09910 0.00300
H 	H 	0.92320 0.72490 0.12490 0.06400
C 	C 	0.83210 0.73040 0.02150 -0.05100
C 	C 	0.75400 0.69390 0.98480 0.00600
H 	H 	0.72620 0.71500 0.93220 0.06700
C 	C 	0.71640 0.62590 0.02560 -0.08700
C 	C 	0.75610 0.59810 0.10430 0.02200
H 	H 	0.73050 0.55520 0.13370 0.05400
C 	C 	0.87090 0.79890 0.96860 0.28600
C 	C 	0.63020 0.59210 0.98730 0.35600
C 	C 	0.62830 0.29840 0.02790 0.31400
C 	C 	0.67060 0.23070 0.98520 -0.09800
C 	C 	0.62820 0.19940 0.89810 0.03500
H 	H 	0.57700 0.22590 0.87230 0.05400
C 	C 	0.66120 0.13640 0.85820 -0.08200
C 	C 	0.74030 0.09760 0.89360 0.03700
H 	H 	0.76380 0.05250 0.86460 0.05100
C 	C 	0.78590 0.12950 0.97780 -0.12100
C 	C 	0.74630 0.19150 0.01560 0.05900
H 	H 	0.77380 0.21010 0.06920 0.05100
C 	C 	0.61940 0.10370 0.76890 0.33500
C 	C 	0.87160 0.09180 0.01330 0.41000
Cd	Cd	0.54228 0.06820 0.60860 1.23300
Cd	Cd	0.95767 0.93266 0.89137 1.23000
O 	O 	0.85284 0.96460 0.76271 -0.33700
O 	O 	0.94627 0.85510 0.76408 -0.36400
O 	O 	0.59588 0.96600 0.52708 -0.46400
O 	O 	0.59436 0.87415 0.41654 -0.38000
O 	O 	0.83270 0.67310 0.40146 -0.32500
O 	O 	0.94637 0.67260 0.50344 -0.34700
O 	O 	0.55630 0.17230 0.49953 -0.37100
O 	O 	0.66970 0.17260 0.59950 -0.30800
O 	O 	0.55520 0.35070 0.23710 -0.36200
O 	O 	0.64710 0.45950 0.23532 -0.36400
O 	O 	0.90560 0.37650 0.58443 -0.39900
O 	O 	0.90578 0.46280 0.47600 -0.49500
C 	C 	0.88230 0.89670 0.72910 0.30600
C 	C 	0.83350 0.86640 0.63990 -0.06900
C 	C 	0.87110 0.79960 0.59910 0.02100
H 	H 	0.92320 0.77510 0.62490 0.05800
C 	C 	0.83210 0.76960 0.52150 -0.07600
C 	C 	0.75400 0.80610 0.48480 0.03400
H 	H 	0.72620 0.78500 0.43220 0.05900
C 	C 	0.71640 0.87410 0.52560 -0.10700
C 	C 	0.75610 0.90190 0.60430 0.03800
H 	H 	0.73050 0.94480 0.63370 0.04800
C 	C 	0.87090 0.70110 0.46860 0.30500
C 	C 	0.63020 0.90790 0.48730 0.36700
C 	C 	0.62830 0.20160 0.52790 0.32800
C 	C 	0.67060 0.26930 0.48520 -0.12000
C 	C 	0.62820 0.30060 0.39810 0.04900
H 	H 	0.57700 0.27410 0.37230 0.04900
C 	C 	0.66120 0.36360 0.35820 -0.09400
C 	C 	0.74030 0.40240 0.39360 0.05100
H 	H 	0.76380 0.44750 0.36460 0.04400
C 	C 	0.78590 0.37050 0.47780 -0.14700
C 	C 	0.74630 0.30850 0.51560 0.09100
H 	H 	0.77380 0.28990 0.56920 0.04100
C 	C 	0.61940 0.39630 0.26890 0.33900
C 	C 	0.87160 0.40820 0.51330 0.43100
Cd	Cd	0.45772 0.56820 0.89140 1.23200
Cd	Cd	0.04233 0.43266 0.60863 1.23300
O 	O 	0.14716 0.46460 0.73729 -0.33200
O 	O 	0.05373 0.35510 0.73592 -0.36000
O 	O 	0.40412 0.46600 0.97292 -0.46100
O 	O 	0.40564 0.37415 0.08346 -0.37900
O 	O 	0.16730 0.17310 0.09854 -0.32300
O 	O 	0.05363 0.17260 0.99656 -0.33800
O 	O 	0.44370 0.67230 0.00047 -0.36600
O 	O 	0.33030 0.67260 0.90050 -0.30600
O 	O 	0.44480 0.85070 0.26290 -0.36000
O 	O 	0.35290 0.95950 0.26468 -0.36000
O 	O 	0.09440 0.87650 0.91557 -0.39400
O 	O 	0.09422 0.96280 0.02400 -0.48400
C 	C 	0.11770 0.39670 0.77090 0.30100
C 	C 	0.16650 0.36640 0.86010 -0.05600
C 	C 	0.12890 0.29960 0.90090 0.00300
H 	H 	0.07680 0.27510 0.87510 0.06400
C 	C 	0.16790 0.26960 0.97850 -0.05100
C 	C 	0.24600 0.30610 0.01520 0.00600
H 	H 	0.27380 0.28500 0.06780 0.06700
C 	C 	0.28360 0.37410 0.97440 -0.08700
C 	C 	0.24390 0.40190 0.89570 0.02200
H 	H 	0.26950 0.44480 0.86630 0.05400
C 	C 	0.12910 0.20110 0.03140 0.28600
C 	C 	0.36980 0.40790 0.01270 0.35600
C 	C 	0.37170 0.70160 0.97210 0.31400
C 	C 	0.32940 0.76930 0.01480 -0.09800
C 	C 	0.37180 0.80060 0.10190 0.03500
H 	H 	0.42300 0.77410 0.12770 0.05400
C 	C 	0.33880 0.86360 0.14180 -0.08200
C 	C 	0.25970 0.90240 0.10640 0.03700
H 	H 	0.23620 0.94750 0.13540 0.05100
C 	C 	0.21410 0.87050 0.02220 -0.12100
C 	C 	0.25370 0.80850 0.98440 0.05900
H 	H 	0.22620 0.78990 0.93080 0.05100
C 	C 	0.38060 0.89630 0.23110 0.33500
C 	C 	0.12840 0.90820 0.98670 0.41000
