data_crystal

_cell_length_a 10.03550
_cell_length_b 12.81900
_cell_length_c 15.47970
_cell_angle_alpha 90.00000
_cell_angle_beta  102.48600
_cell_angle_gamma 90.00000

_symmetry_space_group_name_	'P 1'
_symmetry_space_group_name_H-M	'P 1'

loop_
_symmetry_equiv_pos_as_xyz
  x,y,z

loop_
_atom_site_label
_atom_site_type_symbol
_atom_site_fract_x
_atom_site_fract_y
_atom_site_fract_z
_atom_site_charge
Cd	Cd	0.17871 0.96605 0.09169 1.24300
O 	O 	0.37865 0.91392 0.04833 -0.34500
O 	O 	0.34864 0.84479 0.17227 -0.33100
O 	O 	0.68834 0.59953 0.33390 -0.36300
O 	O 	0.87489 0.56568 0.29086 -0.35800
O 	O 	0.02586 0.84566 0.10373 -0.40900
O 	O 	0.87987 0.96875 0.04562 -0.45600
C 	C 	0.42126 0.86164 0.11735 0.30900
C 	C 	0.56325 0.81975 0.13488 -0.07800
C 	C 	0.66295 0.86377 0.09504 0.04000
H 	H 	0.63970 0.91740 0.05410 0.05200
C 	C 	0.79671 0.82729 0.11684 -0.10800
C 	C 	0.82932 0.74369 0.17529 0.04500
H 	H 	0.91760 0.71710 0.18750 0.05400
C 	C 	0.73233 0.69990 0.21532 -0.08700
C 	C 	0.59954 0.73883 0.19510 0.03100
H 	H 	0.53410 0.71020 0.22240 0.06100
C 	C 	0.76801 0.61584 0.28373 0.32400
C 	C 	0.90688 0.88357 0.08424 0.37300
Cd	Cd	0.82129 0.46605 0.40832 1.24300
O 	O 	0.62135 0.41392 0.45167 -0.34500
O 	O 	0.65136 0.34479 0.32773 -0.33000
O 	O 	0.31166 0.09953 0.16610 -0.36100
O 	O 	0.12511 0.06568 0.20914 -0.35600
O 	O 	0.97414 0.34566 0.39627 -0.40500
O 	O 	0.12013 0.46875 0.45438 -0.45600
C 	C 	0.57874 0.36164 0.38265 0.30800
C 	C 	0.43675 0.31975 0.36512 -0.07700
C 	C 	0.33705 0.36377 0.40496 0.03900
H 	H 	0.36030 0.41740 0.44590 0.05200
C 	C 	0.20329 0.32729 0.38316 -0.10700
C 	C 	0.17068 0.24369 0.32471 0.04400
H 	H 	0.08240 0.21710 0.31250 0.05500
C 	C 	0.26767 0.19990 0.28468 -0.08600
C 	C 	0.40046 0.23883 0.30490 0.03000
H 	H 	0.46590 0.21020 0.27760 0.06200
C 	C 	0.23199 0.11584 0.21627 0.32400
C 	C 	0.09312 0.38357 0.41576 0.37000
Cd	Cd	0.82129 0.03395 0.90832 1.24200
O 	O 	0.62135 0.08608 0.95167 -0.34600
O 	O 	0.65136 0.15521 0.82773 -0.33100
O 	O 	0.31166 0.40047 0.66610 -0.36300
O 	O 	0.12511 0.43432 0.70914 -0.35800
O 	O 	0.97414 0.15434 0.89627 -0.40900
O 	O 	0.12013 0.03125 0.95438 -0.45600
C 	C 	0.57874 0.13836 0.88265 0.30900
C 	C 	0.43675 0.18025 0.86512 -0.07800
C 	C 	0.33705 0.13623 0.90496 0.04000
H 	H 	0.36030 0.08260 0.94590 0.05200
C 	C 	0.20329 0.17271 0.88316 -0.10800
C 	C 	0.17068 0.25631 0.82471 0.04500
H 	H 	0.08240 0.28290 0.81250 0.05400
C 	C 	0.26767 0.30010 0.78468 -0.08700
C 	C 	0.40046 0.26117 0.80490 0.03100
H 	H 	0.46590 0.28980 0.77760 0.06100
C 	C 	0.23199 0.38416 0.71627 0.32400
C 	C 	0.09312 0.11643 0.91576 0.37300
Cd	Cd	0.17871 0.53395 0.59169 1.24300
O 	O 	0.37865 0.58608 0.54833 -0.34500
O 	O 	0.34864 0.65521 0.67227 -0.33000
O 	O 	0.68834 0.90047 0.83390 -0.36100
O 	O 	0.87489 0.93432 0.79086 -0.35600
O 	O 	0.02586 0.65434 0.60373 -0.40500
O 	O 	0.87987 0.53125 0.54562 -0.45600
C 	C 	0.42126 0.63836 0.61735 0.30800
C 	C 	0.56325 0.68025 0.63488 -0.07700
C 	C 	0.66295 0.63623 0.59504 0.03900
H 	H 	0.63970 0.58260 0.55410 0.05200
C 	C 	0.79671 0.67271 0.61684 -0.10700
C 	C 	0.82932 0.75631 0.67529 0.04400
H 	H 	0.91760 0.78290 0.68750 0.05500
C 	C 	0.73233 0.80010 0.71532 -0.08600
C 	C 	0.59954 0.76117 0.69510 0.03000
H 	H 	0.53410 0.78980 0.72240 0.06200
C 	C 	0.76801 0.88416 0.78373 0.32400
C 	C 	0.90688 0.61643 0.58424 0.37000
