data_crystal

_cell_length_a 18.48520
_cell_length_b 18.48520
_cell_length_c 18.48520
_cell_angle_alpha 90.00000
_cell_angle_beta  90.00000
_cell_angle_gamma 90.00000

_symmetry_space_group_name_	'P 1'
_symmetry_space_group_name_H-M	'P 1'

loop_
_symmetry_equiv_pos_as_xyz
  x,y,z

loop_
_atom_site_label
_atom_site_type_symbol
_atom_site_fract_x
_atom_site_fract_y
_atom_site_fract_z
_atom_site_charge
N 	N 	0.42030 0.36970 0.07500 -0.25300
N 	N 	0.40950 0.32470 0.13040 -0.25600
N 	N 	0.57970 0.63030 0.07500 -0.24900
N 	N 	0.59050 0.67530 0.13040 -0.25000
N 	N 	0.57970 0.36970 0.92500 -0.21100
N 	N 	0.59050 0.32470 0.86960 -0.24300
N 	N 	0.42030 0.63030 0.92500 -0.21100
N 	N 	0.40950 0.67530 0.86960 -0.24100
N 	N 	0.07500 0.42030 0.36970 -0.25400
N 	N 	0.13040 0.40950 0.32470 -0.25700
N 	N 	0.07500 0.57970 0.63030 -0.25000
N 	N 	0.13040 0.59050 0.67530 -0.25100
N 	N 	0.92500 0.57970 0.36970 -0.21200
N 	N 	0.86960 0.59050 0.32470 -0.24400
N 	N 	0.92500 0.42030 0.63030 -0.21100
N 	N 	0.86960 0.40950 0.67530 -0.24100
N 	N 	0.36970 0.07500 0.42030 -0.25400
N 	N 	0.32470 0.13040 0.40950 -0.25700
N 	N 	0.63030 0.07500 0.57970 -0.25000
N 	N 	0.67530 0.13040 0.59050 -0.25100
N 	N 	0.36970 0.92500 0.57970 -0.21200
N 	N 	0.32470 0.86960 0.59050 -0.24400
N 	N 	0.63030 0.92500 0.42030 -0.21100
N 	N 	0.67530 0.86960 0.40950 -0.24100
N 	N 	0.36970 0.42030 0.92500 -0.21300
N 	N 	0.32470 0.40950 0.86960 -0.24500
N 	N 	0.63030 0.57970 0.92500 -0.20900
N 	N 	0.67530 0.59050 0.86960 -0.23900
N 	N 	0.36970 0.57970 0.07500 -0.25300
N 	N 	0.32470 0.59050 0.13040 -0.25600
N 	N 	0.63030 0.42030 0.07500 -0.25200
N 	N 	0.67530 0.40950 0.13040 -0.25300
N 	N 	0.42030 0.07500 0.63030 -0.25200
N 	N 	0.40950 0.13040 0.67530 -0.25300
N 	N 	0.57970 0.07500 0.36970 -0.25300
N 	N 	0.59050 0.13040 0.32470 -0.25600
N 	N 	0.57970 0.92500 0.63030 -0.20900
N 	N 	0.59050 0.86960 0.67530 -0.23900
N 	N 	0.42030 0.92500 0.36970 -0.21300
N 	N 	0.40950 0.86960 0.32470 -0.24500
N 	N 	0.07500 0.36970 0.57970 -0.25300
N 	N 	0.13040 0.32470 0.59050 -0.25600
N 	N 	0.07500 0.63030 0.42030 -0.25200
N 	N 	0.13040 0.67530 0.40950 -0.25300
N 	N 	0.92500 0.36970 0.42030 -0.21300
N 	N 	0.86960 0.32470 0.40950 -0.24500
N 	N 	0.92500 0.63030 0.57970 -0.20900
N 	N 	0.86960 0.67530 0.59050 -0.23900
N 	N 	0.57970 0.63030 0.92500 -0.20900
N 	N 	0.59050 0.67530 0.86960 -0.23900
N 	N 	0.42030 0.36970 0.92500 -0.21300
N 	N 	0.40950 0.32470 0.86960 -0.24500
N 	N 	0.42030 0.63030 0.07500 -0.25200
N 	N 	0.40950 0.67530 0.13040 -0.25300
N 	N 	0.57970 0.36970 0.07500 -0.25300
N 	N 	0.59050 0.32470 0.13040 -0.25600
N 	N 	0.92500 0.57970 0.63030 -0.20900
N 	N 	0.86960 0.59050 0.67530 -0.23900
N 	N 	0.92500 0.42030 0.36970 -0.21300
N 	N 	0.86960 0.40950 0.32470 -0.24500
N 	N 	0.07500 0.42030 0.63030 -0.25200
N 	N 	0.13040 0.40950 0.67530 -0.25300
N 	N 	0.07500 0.57970 0.36970 -0.25300
N 	N 	0.13040 0.59050 0.32470 -0.25600
N 	N 	0.63030 0.92500 0.57970 -0.20900
N 	N 	0.67530 0.86960 0.59050 -0.23900
N 	N 	0.36970 0.92500 0.42030 -0.21300
N 	N 	0.32470 0.86960 0.40950 -0.24500
N 	N 	0.63030 0.07500 0.42030 -0.25200
N 	N 	0.67530 0.13040 0.40950 -0.25300
N 	N 	0.36970 0.07500 0.57970 -0.25300
N 	N 	0.32470 0.13040 0.59050 -0.25600
N 	N 	0.63030 0.57970 0.07500 -0.25000
N 	N 	0.67530 0.59050 0.13040 -0.25100
N 	N 	0.36970 0.42030 0.07500 -0.25400
N 	N 	0.32470 0.40950 0.13040 -0.25700
N 	N 	0.63030 0.42030 0.92500 -0.21100
N 	N 	0.67530 0.40950 0.86960 -0.24100
N 	N 	0.36970 0.57970 0.92500 -0.21200
N 	N 	0.32470 0.59050 0.86960 -0.24400
N 	N 	0.57970 0.92500 0.36970 -0.21200
N 	N 	0.59050 0.86960 0.32470 -0.24400
N 	N 	0.42030 0.92500 0.63030 -0.21100
N 	N 	0.40950 0.86960 0.67530 -0.24100
N 	N 	0.42030 0.07500 0.36970 -0.25400
N 	N 	0.40950 0.13040 0.32470 -0.25700
N 	N 	0.57970 0.07500 0.63030 -0.25000
N 	N 	0.59050 0.13040 0.67530 -0.25100
N 	N 	0.92500 0.63030 0.42030 -0.21100
N 	N 	0.86960 0.67530 0.40950 -0.24100
N 	N 	0.92500 0.36970 0.57970 -0.21200
N 	N 	0.86960 0.32470 0.59050 -0.24400
N 	N 	0.07500 0.63030 0.57970 -0.25000
N 	N 	0.13040 0.67530 0.59050 -0.25100
N 	N 	0.07500 0.36970 0.42030 -0.25400
N 	N 	0.13040 0.32470 0.40950 -0.25700
Cu	Cu	0.50000 0.36360 -0.00000 2.71800
Mn	Mn	0.50000 0.34800 -0.00000 -1.68700
Cu	Cu	0.50000 0.63640 -0.00000 2.72500
Mn	Mn	0.50000 0.65200 -0.00000 -1.69000
Cu	Cu	0.00000 0.50000 0.36360 2.71800
Mn	Mn	-0.00000 0.50000 0.34800 -1.68700
Cu	Cu	0.00000 0.50000 0.63640 2.72500
Mn	Mn	-0.00000 0.50000 0.65200 -1.69000
Cu	Cu	0.36360 0.00000 0.50000 2.71800
Mn	Mn	0.34800 0.00000 0.50000 -1.68700
Cu	Cu	0.63640 0.00000 0.50000 2.72500
Mn	Mn	0.65200 0.00000 0.50000 -1.69000
Cu	Cu	0.36360 0.50000 -0.00000 2.71800
Mn	Mn	0.34800 0.50000 -0.00000 -1.68700
Cu	Cu	0.63640 0.50000 -0.00000 2.72500
Mn	Mn	0.65200 0.50000 -0.00000 -1.69000
Cu	Cu	0.50000 0.00000 0.63640 2.72500
Mn	Mn	0.50000 -0.00000 0.65200 -1.69000
Cu	Cu	0.50000 -0.00000 0.36360 2.71800
Mn	Mn	0.50000 0.00000 0.34800 -1.68700
Cu	Cu	-0.00000 0.36360 0.50000 2.71800
Mn	Mn	-0.00000 0.34800 0.50000 -1.68700
Cu	Cu	0.00000 0.63640 0.50000 2.72500
Mn	Mn	-0.00000 0.65200 0.50000 -1.69000
Cl	Cl	0.50000 0.50000 -0.00000 -1.19600
Cl	Cl	0.00000 0.50000 0.50000 -1.19600
Cl	Cl	0.50000 0.00000 0.50000 -1.19600
Cu	Cu	0.50000 0.25650 0.13700 0.67600
Cu	Cu	0.50000 0.74350 0.13700 0.68800
Cu	Cu	0.50000 0.25650 0.86300 0.70100
Cu	Cu	0.50000 0.74350 0.86300 0.71300
Cu	Cu	0.13700 0.50000 0.25650 0.67600
Cu	Cu	0.13700 0.50000 0.74350 0.68800
Cu	Cu	0.86300 0.50000 0.25650 0.70100
Cu	Cu	0.86300 0.50000 0.74350 0.71300
Cu	Cu	0.25650 0.13700 0.50000 0.67600
Cu	Cu	0.74350 0.13700 0.50000 0.68800
Cu	Cu	0.25650 0.86300 0.50000 0.70100
Cu	Cu	0.74350 0.86300 0.50000 0.71300
Cu	Cu	0.25650 0.50000 0.86300 0.70100
Cu	Cu	0.74350 0.50000 0.86300 0.71300
Cu	Cu	0.25650 0.50000 0.13700 0.67600
Cu	Cu	0.74350 0.50000 0.13700 0.68800
Cu	Cu	0.50000 0.13700 0.74350 0.68800
Cu	Cu	0.50000 0.13700 0.25650 0.67600
Cu	Cu	0.50000 0.86300 0.74350 0.71300
Cu	Cu	0.50000 0.86300 0.25650 0.70100
Cu	Cu	0.13700 0.25650 0.50000 0.67600
Cu	Cu	0.13700 0.74350 0.50000 0.68800
Cu	Cu	0.86300 0.25650 0.50000 0.70100
Cu	Cu	0.86300 0.74350 0.50000 0.71300
C 	C 	0.35080 0.35080 0.16230 0.12700
C 	C 	0.31910 0.31910 0.22760 -0.22500
C 	C 	0.64920 0.64920 0.16230 0.13500
C 	C 	0.68090 0.68090 0.22760 -0.21300
C 	C 	0.64920 0.35080 0.83770 0.14300
C 	C 	0.68090 0.31910 0.77240 -0.21000
C 	C 	0.35080 0.64920 0.83770 0.14300
C 	C 	0.31910 0.68090 0.77240 -0.21000
C 	C 	0.16230 0.35080 0.35080 0.12700
C 	C 	0.22760 0.31910 0.31910 -0.22500
C 	C 	0.16230 0.64920 0.64920 0.13500
C 	C 	0.22760 0.68090 0.68090 -0.21300
C 	C 	0.83770 0.64920 0.35080 0.14300
C 	C 	0.77240 0.68090 0.31910 -0.21000
C 	C 	0.83770 0.35080 0.64920 0.14300
C 	C 	0.77240 0.31910 0.68090 -0.21000
C 	C 	0.35080 0.16230 0.35080 0.12700
C 	C 	0.31910 0.22760 0.31910 -0.22500
C 	C 	0.64920 0.16230 0.64920 0.13500
C 	C 	0.68090 0.22760 0.68090 -0.21300
C 	C 	0.35080 0.83770 0.64920 0.14300
C 	C 	0.31910 0.77240 0.68090 -0.21000
C 	C 	0.64920 0.83770 0.35080 0.14300
C 	C 	0.68090 0.77240 0.31910 -0.21000
C 	C 	0.35080 0.35080 0.83770 0.13900
C 	C 	0.31910 0.31910 0.77240 -0.21600
C 	C 	0.64920 0.64920 0.83770 0.14700
C 	C 	0.68090 0.68090 0.77240 -0.20400
C 	C 	0.35080 0.64920 0.16230 0.13100
C 	C 	0.31910 0.68090 0.22760 -0.21900
C 	C 	0.64920 0.35080 0.16230 0.13100
C 	C 	0.68090 0.31910 0.22760 -0.21900
C 	C 	0.35080 0.16230 0.64920 0.13100
C 	C 	0.31910 0.22760 0.68090 -0.21900
C 	C 	0.64920 0.16230 0.35080 0.13100
C 	C 	0.68090 0.22760 0.31910 -0.21900
C 	C 	0.64920 0.83770 0.64920 0.14700
C 	C 	0.68090 0.77240 0.68090 -0.20400
C 	C 	0.35080 0.83770 0.35080 0.13900
C 	C 	0.31910 0.77240 0.31910 -0.21600
C 	C 	0.16230 0.35080 0.64920 0.13100
C 	C 	0.22760 0.31910 0.68090 -0.21900
C 	C 	0.16230 0.64920 0.35080 0.13100
C 	C 	0.22760 0.68090 0.31910 -0.21900
C 	C 	0.83770 0.35080 0.35080 0.13900
C 	C 	0.77240 0.31910 0.31910 -0.21600
C 	C 	0.83770 0.64920 0.64920 0.14700
C 	C 	0.77240 0.68090 0.68090 -0.20400
C 	C 	0.34840 0.25770 0.25770 0.11000
H 	H 	0.38850 0.23615 0.23615 -0.14600
C 	C 	0.65160 0.74230 0.25770 0.11300
H 	H 	0.61150 0.76385 0.23615 -0.13500
C 	C 	0.65160 0.25770 0.74230 0.11300
H 	H 	0.61150 0.23615 0.76385 -0.13500
C 	C 	0.34840 0.74230 0.74230 0.11300
H 	H 	0.38850 0.76385 0.76385 -0.12900
C 	C 	0.25770 0.34840 0.25770 0.11000
H 	H 	0.23615 0.38850 0.23615 -0.14600
C 	C 	0.25770 0.65160 0.74230 0.11300
H 	H 	0.23615 0.61150 0.76385 -0.13500
C 	C 	0.74230 0.65160 0.25770 0.11300
H 	H 	0.76385 0.61150 0.23615 -0.13500
C 	C 	0.74230 0.34840 0.74230 0.11300
H 	H 	0.76385 0.38850 0.76385 -0.12900
C 	C 	0.25770 0.25770 0.34840 0.11000
H 	H 	0.23615 0.23615 0.38850 -0.14600
C 	C 	0.74230 0.25770 0.65160 0.11300
H 	H 	0.76385 0.23615 0.61150 -0.13500
C 	C 	0.25770 0.74230 0.65160 0.11300
H 	H 	0.23615 0.76385 0.61150 -0.13500
C 	C 	0.74230 0.74230 0.34840 0.11300
H 	H 	0.76385 0.76385 0.38850 -0.12900
C 	C 	0.25770 0.34840 0.74230 0.11200
H 	H 	0.23615 0.38850 0.76385 -0.13800
C 	C 	0.74230 0.65160 0.74230 0.11400
H 	H 	0.76385 0.61150 0.76385 -0.12700
C 	C 	0.25770 0.65160 0.25770 0.11100
H 	H 	0.23615 0.61150 0.23615 -0.14400
C 	C 	0.74230 0.34840 0.25770 0.11200
H 	H 	0.76385 0.38850 0.23615 -0.13800
C 	C 	0.34840 0.25770 0.74230 0.11200
H 	H 	0.38850 0.23615 0.76385 -0.13800
C 	C 	0.65160 0.25770 0.25770 0.11100
H 	H 	0.61150 0.23615 0.23615 -0.14400
C 	C 	0.65160 0.74230 0.74230 0.11400
H 	H 	0.61150 0.76385 0.76385 -0.12700
C 	C 	0.34840 0.74230 0.25770 0.11200
H 	H 	0.38850 0.76385 0.23615 -0.13800
C 	C 	0.25770 0.25770 0.65160 0.11100
H 	H 	0.23615 0.23615 0.61150 -0.14400
C 	C 	0.25770 0.74230 0.34840 0.11200
H 	H 	0.23615 0.76385 0.38850 -0.13800
C 	C 	0.74230 0.25770 0.34840 0.11200
H 	H 	0.76385 0.23615 0.38850 -0.13800
C 	C 	0.74230 0.74230 0.65160 0.11400
H 	H 	0.76385 0.76385 0.61150 -0.12700
