data_crystal

_cell_length_a 7.64350
_cell_length_b 9.84000
_cell_length_c 14.78500
_cell_angle_alpha 90.00000
_cell_angle_beta  98.27000
_cell_angle_gamma 90.00000

_symmetry_space_group_name_	'P 1'
_symmetry_space_group_name_H-M	'P 1'

loop_
_symmetry_equiv_pos_as_xyz
  x,y,z

loop_
_atom_site_label
_atom_site_type_symbol
_atom_site_fract_x
_atom_site_fract_y
_atom_site_fract_z
_atom_site_charge
Gd	Gd	0.85200 0.04504 0.63922 1.56800
Gd	Gd	0.64800 0.54504 0.86078 1.58700
Gd	Gd	0.14800 0.95496 0.36079 1.56700
Gd	Gd	0.35200 0.45496 0.13922 1.58600
H 	H 	0.61520 0.30170 0.48470 0.00300
H 	H 	0.82600 0.61370 0.63550 -0.02200
H 	H 	0.79680 0.61020 0.36310 -0.01300
H 	H 	0.88480 0.80170 0.01530 0.00900
H 	H 	0.67400 0.11370 0.86450 -0.01200
H 	H 	0.70320 0.11020 0.13690 -0.01000
H 	H 	0.38480 0.69830 0.51530 0.00300
H 	H 	0.17400 0.38630 0.36450 -0.02200
H 	H 	0.20320 0.38980 0.63690 -0.01300
H 	H 	0.11520 0.19830 0.98470 0.00900
H 	H 	0.32600 0.88630 0.13550 -0.01200
H 	H 	0.29680 0.88980 0.86310 -0.01000
C 	C 	0.66920 0.38660 0.48813 0.13700
C 	C 	0.72110 0.44210 0.57389 -0.22800
C 	C 	0.79630 0.57070 0.57936 0.16200
C 	C 	0.82620 0.63350 0.49904 -0.22800
C 	C 	0.77400 0.56830 0.41656 0.13700
C 	C 	0.69200 0.36270 0.65693 0.46800
C 	C 	0.91130 0.77150 0.50067 0.51000
C 	C 	0.45680 0.96840 0.53902 0.25000
C 	C 	0.83080 0.88660 0.01187 0.12000
C 	C 	0.77890 0.94210 0.92611 -0.19800
C 	C 	0.70370 0.07070 0.92064 0.12700
C 	C 	0.67380 0.13350 0.00096 -0.20600
C 	C 	0.72600 0.06830 0.08344 0.12500
C 	C 	0.80800 0.86270 0.84307 0.45900
C 	C 	0.58870 0.27150 0.99933 0.49900
C 	C 	0.04320 0.46840 0.96098 0.25100
C 	C 	0.33080 0.61340 0.51187 0.13700
C 	C 	0.27890 0.55790 0.42611 -0.22800
C 	C 	0.20370 0.42930 0.42064 0.16200
C 	C 	0.17380 0.36650 0.50096 -0.22800
C 	C 	0.22600 0.43170 0.58344 0.13700
C 	C 	0.30800 0.63730 0.34307 0.46800
C 	C 	0.08870 0.22850 0.49933 0.51000
C 	C 	0.54320 0.03160 0.46098 0.25000
C 	C 	0.16920 0.11340 0.98813 0.12000
C 	C 	0.22110 0.05790 0.07389 -0.19800
C 	C 	0.29630 0.92930 0.07936 0.12700
C 	C 	0.32620 0.86650 0.99904 -0.20600
C 	C 	0.27400 0.93170 0.91656 0.12500
C 	C 	0.19200 0.13730 0.15693 0.45900
C 	C 	0.41130 0.72850 0.00067 0.49900
C 	C 	0.95680 0.53160 0.03902 0.25100
N 	N 	0.69210 0.44746 0.41037 -0.16600
N 	N 	0.80790 0.94746 0.08963 -0.15900
N 	N 	0.30790 0.55254 0.58963 -0.16600
N 	N 	0.19210 0.05254 0.91037 -0.15900
O 	O 	0.66619 0.23598 0.64687 -0.44700
O 	O 	0.69520 0.42332 0.73085 -0.47500
O 	O 	0.90880 0.84190 0.57080 -0.47700
O 	O 	0.97870 0.80587 0.43243 -0.48900
O 	O 	0.55270 0.95198 0.61423 -0.34600
O 	O 	0.29653 0.93687 0.52067 -0.35200
O 	O 	0.83381 0.73598 0.85313 -0.44400
O 	O 	0.80480 0.92332 0.76915 -0.46600
O 	O 	0.59120 0.34190 0.92920 -0.48000
O 	O 	0.52130 0.30587 0.06757 -0.49000
O 	O 	0.94730 0.45198 0.88577 -0.35200
O 	O 	0.20347 0.43687 0.97933 -0.35100
O 	O 	0.33381 0.76402 0.35313 -0.44700
O 	O 	0.30480 0.57668 0.26915 -0.47500
O 	O 	0.09120 0.15810 0.42920 -0.47700
O 	O 	0.02130 0.19413 0.56757 -0.48900
O 	O 	0.44730 0.04802 0.38577 -0.34600
O 	O 	0.70347 0.06313 0.47933 -0.35200
O 	O 	0.16619 0.26402 0.14687 -0.44400
O 	O 	0.19520 0.07668 0.23085 -0.46600
O 	O 	0.40880 0.65810 0.07080 -0.48000
O 	O 	0.47870 0.69413 0.93243 -0.49000
O 	O 	0.05270 0.54802 0.11423 -0.35200
O 	O 	0.79653 0.56313 0.02067 -0.35100
