data_crystal

_cell_length_a 7.60260
_cell_length_b 9.77980
_cell_length_c 14.64230
_cell_angle_alpha 90.00000
_cell_angle_beta  98.07500
_cell_angle_gamma 90.00000

_symmetry_space_group_name_	'P 1'
_symmetry_space_group_name_H-M	'P 1'

loop_
_symmetry_equiv_pos_as_xyz
  x,y,z

loop_
_atom_site_label
_atom_site_type_symbol
_atom_site_fract_x
_atom_site_fract_y
_atom_site_fract_z
_atom_site_charge
Yb	Yb	0.84802 0.95438 0.63835 1.52400
Yb	Yb	0.65198 0.45438 0.86165 1.52900
Yb	Yb	0.15198 0.04562 0.36165 1.52300
Yb	Yb	0.34802 0.54562 0.13835 1.52800
H 	H 	0.82870 0.38500 0.63730 -0.00200
H 	H 	0.61420 0.69820 0.48490 0.01900
H 	H 	0.80100 0.38840 0.36130 0.00300
H 	H 	0.67130 0.88500 0.86270 0.00700
H 	H 	0.88580 0.19820 0.01510 0.02400
H 	H 	0.69900 0.88840 0.13870 0.00600
H 	H 	0.17130 0.61500 0.36270 -0.00200
H 	H 	0.38580 0.30180 0.51510 0.01900
H 	H 	0.19900 0.61160 0.63870 0.00300
H 	H 	0.32870 0.11500 0.13730 0.00700
H 	H 	0.11420 0.80180 0.98490 0.02400
H 	H 	0.30100 0.11160 0.86130 0.00600
C 	C 	0.69350 0.63810 0.65880 0.41400
C 	C 	0.72170 0.55760 0.57560 -0.18800
C 	C 	0.54350 0.96810 0.46020 0.22900
C 	C 	0.79820 0.42800 0.58070 0.12000
C 	C 	0.66890 0.61290 0.48830 0.10900
C 	C 	0.91320 0.22490 0.50090 0.44900
C 	C 	0.82820 0.36370 0.49910 -0.18100
C 	C 	0.77620 0.42980 0.41520 0.10900
C 	C 	0.80650 0.13810 0.84120 0.40600
C 	C 	0.77830 0.05760 0.92440 -0.16200
C 	C 	0.95650 0.46810 0.03980 0.23000
C 	C 	0.70180 0.92800 0.91930 0.08800
C 	C 	0.83110 0.11290 0.01170 0.09400
C 	C 	0.58680 0.72490 0.99910 0.43800
C 	C 	0.67180 0.86370 0.00090 -0.16100
C 	C 	0.72380 0.92980 0.08480 0.09800
C 	C 	0.30650 0.36190 0.34120 0.41400
C 	C 	0.27830 0.44240 0.42440 -0.18800
C 	C 	0.45650 0.03190 0.53980 0.22900
C 	C 	0.20180 0.57200 0.41930 0.12000
C 	C 	0.33110 0.38710 0.51170 0.10900
C 	C 	0.08680 0.77510 0.49910 0.44900
C 	C 	0.17180 0.63630 0.50090 -0.18100
C 	C 	0.22380 0.57020 0.58480 0.10900
C 	C 	0.19350 0.86190 0.15880 0.40600
C 	C 	0.22170 0.94240 0.07560 -0.16200
C 	C 	0.04350 0.53190 0.96020 0.23000
C 	C 	0.29820 0.07200 0.08070 0.08800
C 	C 	0.16890 0.88710 0.98830 0.09400
C 	C 	0.41320 0.27510 0.00090 0.43800
C 	C 	0.32820 0.13630 0.99910 -0.16100
C 	C 	0.27620 0.07020 0.91520 0.09800
N 	N 	0.69140 0.55160 0.40900 -0.14800
N 	N 	0.80860 0.05160 0.09100 -0.14300
N 	N 	0.30860 0.44840 0.59100 -0.14800
N 	N 	0.19140 0.94840 0.90900 -0.14300
O 	O 	0.66900 0.76640 0.64779 -0.42500
O 	O 	0.70390 0.93510 0.47910 -0.33900
O 	O 	0.69590 0.57870 0.73450 -0.44700
O 	O 	0.90410 0.15200 0.57070 -0.45200
O 	O 	0.98560 0.19070 0.43250 -0.46200
O 	O 	0.44700 0.95560 0.38400 -0.33400
O 	O 	0.83100 0.26640 0.85221 -0.42100
O 	O 	0.79610 0.43510 0.02090 -0.33700
O 	O 	0.80410 0.07870 0.76550 -0.44100
O 	O 	0.59590 0.65200 0.92930 -0.45300
O 	O 	0.51440 0.69070 0.06750 -0.46100
O 	O 	0.05300 0.45560 0.11600 -0.33800
O 	O 	0.33100 0.23360 0.35221 -0.42500
O 	O 	0.29610 0.06490 0.52090 -0.33900
O 	O 	0.30410 0.42130 0.26550 -0.44700
O 	O 	0.09590 0.84800 0.42930 -0.45200
O 	O 	0.01440 0.80930 0.56750 -0.46200
O 	O 	0.55300 0.04440 0.61600 -0.33400
O 	O 	0.16900 0.73360 0.14779 -0.42100
O 	O 	0.20390 0.56490 0.97910 -0.33700
O 	O 	0.19590 0.92130 0.23450 -0.44100
O 	O 	0.40410 0.34800 0.07070 -0.45300
O 	O 	0.48560 0.30930 0.93250 -0.46100
O 	O 	0.94700 0.54440 0.88400 -0.33800
