data_crystal

_cell_length_a 7.57160
_cell_length_b 9.78910
_cell_length_c 14.67020
_cell_angle_alpha 90.00000
_cell_angle_beta  97.93300
_cell_angle_gamma 90.00000

_symmetry_space_group_name_	'P 1'
_symmetry_space_group_name_H-M	'P 1'

loop_
_symmetry_equiv_pos_as_xyz
  x,y,z

loop_
_atom_site_label
_atom_site_type_symbol
_atom_site_fract_x
_atom_site_fract_y
_atom_site_fract_z
_atom_site_charge
Tm	Tm	0.84811 0.45571 0.63873 1.53700
Tm	Tm	0.65189 0.95571 0.86127 1.53300
Tm	Tm	0.15189 0.54429 0.36127 1.53700
Tm	Tm	0.34811 0.04429 0.13873 1.53300
H 	H 	0.83120 0.88680 0.63690 -0.00200
H 	H 	0.61260 0.19880 0.48420 0.01900
H 	H 	0.79750 0.88700 0.36150 0.00200
H 	H 	0.66880 0.38680 0.86310 -0.00400
H 	H 	0.88740 0.69880 0.01580 0.01800
H 	H 	0.70250 0.38700 0.13850 -0.00000
H 	H 	0.16880 0.11320 0.36310 -0.00100
H 	H 	0.38740 0.80120 0.51580 0.02000
H 	H 	0.20250 0.11300 0.63850 0.00200
H 	H 	0.33120 0.61320 0.13690 -0.00400
H 	H 	0.11260 0.30120 0.98420 0.01800
H 	H 	0.29750 0.61300 0.86150 -0.00000
C 	C 	0.72090 0.05880 0.57492 -0.17700
C 	C 	0.69290 0.13960 0.65845 0.40400
C 	C 	0.79910 0.92920 0.58030 0.11000
C 	C 	0.54410 0.46880 0.46012 0.22700
C 	C 	0.66730 0.11360 0.48776 0.10500
C 	C 	0.91270 0.72550 0.50058 0.44500
C 	C 	0.82770 0.86490 0.49876 -0.17800
C 	C 	0.77420 0.92940 0.41540 0.10800
C 	C 	0.77910 0.55880 0.92508 -0.18800
C 	C 	0.80710 0.63960 0.84155 0.40800
C 	C 	0.70090 0.42920 0.91970 0.12300
C 	C 	0.95590 0.96880 0.03988 0.22500
C 	C 	0.83270 0.61360 0.01224 0.11100
C 	C 	0.58730 0.22550 0.99942 0.45400
C 	C 	0.67230 0.36490 0.00124 -0.18800
C 	C 	0.72580 0.42940 0.08460 0.11300
C 	C 	0.27910 0.94120 0.42508 -0.17700
C 	C 	0.30710 0.86040 0.34155 0.40400
C 	C 	0.20090 0.07080 0.41970 0.11000
C 	C 	0.45590 0.53120 0.53988 0.22700
C 	C 	0.33270 0.88640 0.51224 0.10500
C 	C 	0.08730 0.27450 0.49942 0.44500
C 	C 	0.17230 0.13510 0.50124 -0.17800
C 	C 	0.22580 0.07060 0.58460 0.10800
C 	C 	0.22090 0.44120 0.07492 -0.18800
C 	C 	0.19290 0.36040 0.15845 0.40800
C 	C 	0.29910 0.57080 0.08030 0.12300
C 	C 	0.04410 0.03120 0.96012 0.22500
C 	C 	0.16730 0.38640 0.98776 0.11100
C 	C 	0.41270 0.77450 0.00058 0.45400
C 	C 	0.32770 0.63510 0.99876 -0.18800
C 	C 	0.27420 0.57060 0.91540 0.11300
N 	N 	0.68970 0.05140 0.40902 -0.14800
N 	N 	0.81030 0.55140 0.09098 -0.15000
N 	N 	0.31030 0.94860 0.59098 -0.14800
N 	N 	0.18970 0.44860 0.90902 -0.15000
O 	O 	0.70570 0.43610 0.47947 -0.33600
O 	O 	0.66570 0.26786 0.64700 -0.41900
O 	O 	0.90590 0.65390 0.57076 -0.45500
O 	O 	0.69810 0.08010 0.73405 -0.44200
O 	O 	0.98340 0.69050 0.43133 -0.46300
O 	O 	0.44710 0.45350 0.38442 -0.33700
O 	O 	0.79430 0.93610 0.02053 -0.33400
O 	O 	0.83430 0.76786 0.85300 -0.42300
O 	O 	0.59410 0.15390 0.92924 -0.45400
O 	O 	0.80190 0.58010 0.76595 -0.44600
O 	O 	0.51660 0.19050 0.06867 -0.46700
O 	O 	0.05290 0.95350 0.11558 -0.33200
O 	O 	0.29430 0.56390 0.52053 -0.33600
O 	O 	0.33430 0.73214 0.35300 -0.41900
O 	O 	0.09410 0.34610 0.42924 -0.45500
O 	O 	0.30190 0.91990 0.26595 -0.44200
O 	O 	0.01660 0.30950 0.56867 -0.46300
O 	O 	0.55290 0.54650 0.61558 -0.33700
O 	O 	0.20570 0.06390 0.97947 -0.33400
O 	O 	0.16570 0.23214 0.14700 -0.42300
O 	O 	0.40590 0.84610 0.07076 -0.45400
O 	O 	0.19810 0.41990 0.23405 -0.44600
O 	O 	0.48340 0.80950 0.93133 -0.46700
O 	O 	0.94710 0.04650 0.88442 -0.33200
