data_crystal

_cell_length_a 16.83500
_cell_length_b 9.70700
_cell_length_c 39.76700
_cell_angle_alpha 90.00000
_cell_angle_beta  90.52200
_cell_angle_gamma 90.00000

_symmetry_space_group_name_	'P 1'
_symmetry_space_group_name_H-M	'P 1'

loop_
_symmetry_equiv_pos_as_xyz
  x,y,z

loop_
_atom_site_label
_atom_site_type_symbol
_atom_site_fract_x
_atom_site_fract_y
_atom_site_fract_z
_atom_site_charge
Cu	Cu	0.55023 0.71487 0.66665 0.85400
C 	C 	0.66350 0.87940 0.51580 0.48200
C 	C 	0.63620 0.98840 0.53460 -0.44900
H 	H 	0.59280 0.04130 0.52790 0.21100
C 	C 	0.67820 0.01430 0.56460 0.45400
C 	C 	0.73590 0.93280 0.57490 -0.49100
H 	H 	0.75940 0.94940 0.59570 0.20800
C 	C 	0.76300 0.82330 0.55580 0.40900
H 	H 	0.80640 0.77090 0.56280 -0.09500
C 	C 	0.72350 0.79550 0.52660 -0.49300
H 	H 	0.73750 0.71900 0.51390 0.24500
O 	O 	0.62270 0.84440 0.48668 -0.36500
O 	O 	0.63820 0.04900 0.46420 -0.29800
N 	N 	0.49730 0.78630 0.37667 -0.23600
C 	C 	0.53810 0.70260 0.39610 0.07000
H 	H 	0.54180 0.61080 0.38960 -0.01200
C 	C 	0.57470 0.74060 0.42460 -0.08100
H 	H 	0.60180 0.67670 0.43780 0.08900
C 	C 	0.57110 0.87610 0.43380 -0.02300
C 	C 	0.53290 0.96780 0.41310 -0.06200
H 	H 	0.53060 0.06130 0.41810 0.06100
C 	C 	0.49820 0.91490 0.38461 0.06700
H 	H 	0.47360 0.97630 0.36990 -0.00400
C 	C 	0.61320 0.93570 0.46370 0.37700
N 	N 	0.59770 0.56210 0.64087 -0.24000
O 	O 	0.65190 0.12820 0.58243 -0.37100
O 	O 	0.73900 0.26440 0.55830 -0.25500
C 	C 	0.65230 0.58650 0.61700 0.06200
H 	H 	0.66930 0.67660 0.61370 -0.00900
C 	C 	0.68380 0.48450 0.59740 -0.09700
H 	H 	0.72510 0.50260 0.58270 0.08600
C 	C 	0.65280 0.35560 0.60035 -0.00800
C 	C 	0.59880 0.32830 0.62360 -0.09500
H 	H 	0.57780 0.24020 0.62580 0.07400
C 	C 	0.57440 0.43510 0.64450 0.06700
H 	H 	0.53980 0.41470 0.66190 -0.01200
C 	C 	0.68550 0.24570 0.57810 0.31600
C 	C 	0.58650 0.21950 0.89728 0.50500
C 	C 	0.59660 0.29920 0.86780 -0.49000
H 	H 	0.64470 0.33630 0.86100 0.23600
C 	C 	0.52180 0.31570 0.84960 0.52700
C 	C 	0.45380 0.26710 0.85950 -0.60800
H 	H 	0.40880 0.27870 0.84610 0.28300
C 	C 	0.44830 0.20000 0.88920 0.49800
H 	H 	0.39910 0.17130 0.89700 -0.12900
C 	C 	0.51640 0.17440 0.90800 -0.56900
H 	H 	0.51310 0.12560 0.92800 0.23200
O 	O 	0.65480 0.20520 0.91656 -0.38100
O 	O 	0.68040 0.01070 0.89170 -0.27600
N 	N 	0.89890 0.06990 0.97398 -0.24100
C 	C 	0.84660 0.17060 0.97730 0.07300
H 	H 	0.85480 0.23520 0.99420 -0.01000
C 	C 	0.78310 0.18370 0.95750 -0.10200
H 	H 	0.74880 0.25810 0.95990 0.08000
C 	C 	0.76940 0.08580 0.93378 -0.00900
C 	C 	0.82040 0.98050 0.93100 -0.10500
H 	H 	0.81140 0.91210 0.91500 0.09000
C 	C 	0.88180 0.97440 0.95040 0.08400
H 	H 	0.91620 0.90020 0.94800 -0.01400
C 	C 	0.69620 0.09390 0.91195 0.33500
O 	O 	0.62610 0.26700 0.79760 -0.26300
N 	N 	0.56180 0.60510 0.70977 -0.24900
O 	O 	0.52690 0.39030 0.82025 -0.35000
C 	C 	0.50090 0.58840 0.72940 0.09400
H 	H 	0.45310 0.62830 0.72270 -0.02000
C 	C 	0.50160 0.51800 0.75870 -0.12000
H 	H 	0.45790 0.51510 0.77280 0.10200
C 	C 	0.57120 0.45110 0.76620 0.02700
C 	C 	0.63450 0.46670 0.74580 -0.13700
H 	H 	0.68260 0.42420 0.75090 0.09400
C 	C 	0.62700 0.54340 0.71850 0.10900
H 	H 	0.67110 0.55350 0.70470 -0.02100
C 	C 	0.57990 0.36040 0.79640 0.30700
C 	C 	0.26440 0.25560 0.76930 0.52100
C 	C 	0.22980 0.20720 0.79820 -0.54300
H 	H 	0.23410 0.11530 0.80450 0.24800
C 	C 	0.18860 0.30090 0.81724 0.50800
C 	C 	0.17550 0.42980 0.80790 -0.47600
H 	H 	0.14500 0.48840 0.82110 0.23700
C 	C 	0.21000 0.47800 0.77650 0.38100
H 	H 	0.20100 0.56650 0.76830 -0.08800
C 	C 	0.25640 0.38460 0.75990 -0.52500
H 	H 	0.28360 0.41410 0.74090 0.21600
N 	N 	0.05930 0.10230 0.95667 -0.23700
O 	O 	0.15010 0.25830 0.84668 -0.35700
O 	O 	0.26270 0.17760 0.86870 -0.26300
C 	C 	0.12080 0.03470 0.94880 0.07400
H 	H 	0.13700 0.96310 0.96280 -0.00600
C 	C 	0.16600 0.06270 0.91990 -0.09900
H 	H 	0.21080 0.01070 0.91500 0.08000
C 	C 	0.14350 0.16300 0.90029 0.00000
C 	C 	0.07550 0.24240 0.90890 -0.08900
H 	H 	0.05800 0.31610 0.89590 0.08800
C 	C 	0.03760 0.20300 0.93760 0.05600
H 	H 	0.99280 0.25270 0.94390 0.00100
C 	C 	0.19120 0.20120 0.86990 0.32300
N 	N 	0.49660 0.86420 0.69297 -0.22300
O 	O 	0.30710 0.16280 0.74943 -0.37800
O 	O 	0.41820 0.22130 0.77530 -0.27000
C 	C 	0.53760 0.93200 0.71620 0.06000
H 	H 	0.59170 0.91470 0.71860 -0.01000
C 	C 	0.50220 0.02820 0.73710 -0.07500
H 	H 	0.53170 0.07480 0.75340 0.07700
C 	C 	0.42160 0.05280 0.73300 -0.06900
C 	C 	0.38540 0.98380 0.70918 -0.00400
H 	H 	0.33140 0.00060 0.70620 0.03800
C 	C 	0.41850 0.89130 0.68860 0.01000
H 	H 	0.38880 0.84730 0.67200 0.01100
C 	C 	0.38510 0.15380 0.75490 0.33900
Cu	Cu	0.44977 0.71487 0.33335 0.85500
C 	C 	0.33650 0.87940 0.48420 0.48200
C 	C 	0.36380 0.98840 0.46540 -0.44700
H 	H 	0.40720 0.04130 0.47210 0.21000
C 	C 	0.32180 0.01430 0.43540 0.45100
C 	C 	0.26410 0.93280 0.42510 -0.48900
H 	H 	0.24060 0.94940 0.40430 0.20600
C 	C 	0.23700 0.82330 0.44420 0.40700
H 	H 	0.19360 0.77090 0.43720 -0.09600
C 	C 	0.27650 0.79550 0.47340 -0.49200
H 	H 	0.26250 0.71900 0.48610 0.24400
O 	O 	0.37730 0.84440 0.51332 -0.36500
O 	O 	0.36180 0.04900 0.53580 -0.29900
N 	N 	0.50270 0.78630 0.62333 -0.23600
C 	C 	0.46190 0.70260 0.60390 0.07000
H 	H 	0.45820 0.61080 0.61040 -0.01200
C 	C 	0.42530 0.74060 0.57540 -0.08100
H 	H 	0.39820 0.67670 0.56220 0.08900
C 	C 	0.42890 0.87610 0.56620 -0.02300
C 	C 	0.46710 0.96780 0.58690 -0.06200
H 	H 	0.46940 0.06130 0.58190 0.06100
C 	C 	0.50180 0.91490 0.61539 0.06700
H 	H 	0.52640 0.97630 0.63010 -0.00400
C 	C 	0.38680 0.93570 0.53630 0.37700
N 	N 	0.40230 0.56210 0.35913 -0.24000
O 	O 	0.34810 0.12820 0.41757 -0.37100
O 	O 	0.26100 0.26440 0.44170 -0.25600
C 	C 	0.34770 0.58650 0.38300 0.06200
H 	H 	0.33070 0.67660 0.38630 -0.01000
C 	C 	0.31620 0.48450 0.40260 -0.09700
H 	H 	0.27490 0.50260 0.41730 0.08600
C 	C 	0.34720 0.35560 0.39965 -0.00800
C 	C 	0.40120 0.32830 0.37640 -0.09500
H 	H 	0.42220 0.24020 0.37420 0.07400
C 	C 	0.42560 0.43510 0.35550 0.06700
H 	H 	0.46020 0.41470 0.33810 -0.01200
C 	C 	0.31450 0.24570 0.42190 0.31600
C 	C 	0.41350 0.21950 0.10272 0.50400
C 	C 	0.40340 0.29920 0.13220 -0.49000
H 	H 	0.35530 0.33630 0.13900 0.23500
C 	C 	0.47820 0.31570 0.15040 0.52700
C 	C 	0.54620 0.26710 0.14050 -0.60700
H 	H 	0.59120 0.27870 0.15390 0.28300
C 	C 	0.55170 0.20000 0.11080 0.49700
H 	H 	0.60090 0.17130 0.10300 -0.12900
C 	C 	0.48360 0.17440 0.09200 -0.56800
H 	H 	0.48690 0.12560 0.07200 0.23000
O 	O 	0.34520 0.20520 0.08344 -0.38100
O 	O 	0.31960 0.01070 0.10830 -0.27700
N 	N 	0.10110 0.06990 0.02602 -0.24800
C 	C 	0.15340 0.17060 0.02270 0.07300
H 	H 	0.14520 0.23520 0.00580 -0.01600
C 	C 	0.21690 0.18370 0.04250 -0.10500
H 	H 	0.25120 0.25810 0.04010 0.07800
C 	C 	0.23060 0.08580 0.06622 -0.01000
C 	C 	0.17960 0.98050 0.06900 -0.10800
H 	H 	0.18860 0.91210 0.08500 0.09000
C 	C 	0.11820 0.97440 0.04960 0.08400
H 	H 	0.08380 0.90020 0.05200 -0.02100
C 	C 	0.30380 0.09390 0.08805 0.33400
O 	O 	0.37390 0.26700 0.20240 -0.26400
N 	N 	0.43820 0.60510 0.29023 -0.24800
O 	O 	0.47310 0.39030 0.17975 -0.35000
C 	C 	0.49910 0.58840 0.27060 0.09400
H 	H 	0.54690 0.62830 0.27730 -0.02000
C 	C 	0.49840 0.51800 0.24130 -0.11900
H 	H 	0.54210 0.51510 0.22720 0.10200
C 	C 	0.42880 0.45110 0.23380 0.02600
C 	C 	0.36550 0.46670 0.25420 -0.13700
H 	H 	0.31740 0.42420 0.24910 0.09300
C 	C 	0.37300 0.54340 0.28150 0.10900
H 	H 	0.32890 0.55350 0.29530 -0.02100
C 	C 	0.42010 0.36040 0.20360 0.30700
C 	C 	0.73560 0.25560 0.23070 0.52000
C 	C 	0.77020 0.20720 0.20180 -0.54300
H 	H 	0.76590 0.11530 0.19550 0.24800
C 	C 	0.81140 0.30090 0.18276 0.50800
C 	C 	0.82450 0.42980 0.19210 -0.47500
H 	H 	0.85500 0.48840 0.17890 0.23900
C 	C 	0.79000 0.47800 0.22350 0.38200
H 	H 	0.79900 0.56650 0.23170 -0.08800
C 	C 	0.74360 0.38460 0.24010 -0.52500
H 	H 	0.71640 0.41410 0.25910 0.21600
N 	N 	0.94070 0.10230 0.04333 -0.24900
O 	O 	0.84990 0.25830 0.15332 -0.35400
O 	O 	0.73730 0.17760 0.13130 -0.26100
C 	C 	0.87920 0.03470 0.05120 0.08700
H 	H 	0.86300 0.96310 0.03720 -0.01200
C 	C 	0.83400 0.06270 0.08010 -0.11700
H 	H 	0.78920 0.01070 0.08500 0.08500
C 	C 	0.85650 0.16300 0.09971 0.02000
C 	C 	0.92450 0.24240 0.09110 -0.12500
H 	H 	0.94200 0.31610 0.10410 0.10500
C 	C 	0.96240 0.20300 0.06240 0.11800
H 	H 	0.00720 0.25270 0.05610 -0.03800
C 	C 	0.80880 0.20120 0.13010 0.31600
N 	N 	0.50340 0.86420 0.30703 -0.22400
O 	O 	0.69290 0.16280 0.25057 -0.37800
O 	O 	0.58180 0.22130 0.22470 -0.27000
C 	C 	0.46240 0.93200 0.28380 0.06000
H 	H 	0.40830 0.91470 0.28140 -0.01000
C 	C 	0.49780 0.02820 0.26290 -0.07600
H 	H 	0.46830 0.07480 0.24660 0.07700
C 	C 	0.57840 0.05280 0.26700 -0.06800
C 	C 	0.61460 0.98380 0.29082 -0.00600
H 	H 	0.66860 0.00060 0.29380 0.03900
C 	C 	0.58150 0.89130 0.31140 0.01100
H 	H 	0.61120 0.84730 0.32800 0.01100
C 	C 	0.61490 0.15380 0.24510 0.33900
Cu	Cu	-0.00000 0.06478 -0.00000 0.84600
Cu	Cu	0.05023 0.21487 0.66665 0.85200
C 	C 	0.16350 0.37940 0.51580 0.53400
C 	C 	0.13620 0.48840 0.53460 -0.54700
H 	H 	0.09280 0.54130 0.52790 0.25100
C 	C 	0.17820 0.51430 0.56460 0.54100
C 	C 	0.23590 0.43280 0.57490 -0.58300
H 	H 	0.25940 0.44940 0.59570 0.23400
C 	C 	0.26300 0.32330 0.55580 0.48000
H 	H 	0.30640 0.27090 0.56280 -0.12200
C 	C 	0.22350 0.29550 0.52660 -0.55600
H 	H 	0.23750 0.21900 0.51390 0.26400
O 	O 	0.12270 0.34440 0.48668 -0.37500
O 	O 	0.13820 0.54900 0.46420 -0.28200
N 	N 	0.99730 0.28630 0.37667 -0.24100
C 	C 	0.03810 0.20260 0.39610 0.07100
H 	H 	0.04180 0.11080 0.38960 -0.01900
C 	C 	0.07470 0.24060 0.42460 -0.10200
H 	H 	0.10180 0.17670 0.43780 0.09200
C 	C 	0.07110 0.37610 0.43380 0.00600
C 	C 	0.03290 0.46780 0.41310 -0.13200
H 	H 	0.03060 0.56130 0.41810 0.09000
C 	C 	0.99820 0.41490 0.38461 0.11300
H 	H 	0.97360 0.47630 0.36990 -0.02000
C 	C 	0.11320 0.43570 0.46370 0.34800
N 	N 	0.09770 0.06210 0.64087 -0.23800
O 	O 	0.15190 0.62820 0.58243 -0.39300
O 	O 	0.23900 0.76440 0.55830 -0.25800
C 	C 	0.15230 0.08650 0.61700 0.01200
H 	H 	0.16930 0.17660 0.61370 0.00600
C 	C 	0.18380 0.98450 0.59740 -0.02400
H 	H 	0.22510 0.00260 0.58270 0.05100
C 	C 	0.15280 0.85560 0.60035 -0.04100
C 	C 	0.09880 0.82830 0.62360 -0.07500
H 	H 	0.07780 0.74020 0.62580 0.06800
C 	C 	0.07440 0.93510 0.64450 0.06800
H 	H 	0.03980 0.91470 0.66190 -0.01000
C 	C 	0.18550 0.74570 0.57810 0.33600
C 	C 	0.08650 0.71950 0.89728 0.50900
C 	C 	0.09660 0.79920 0.86780 -0.48700
H 	H 	0.14470 0.83630 0.86100 0.23700
C 	C 	0.02180 0.81570 0.84960 0.51300
C 	C 	0.95380 0.76710 0.85950 -0.59300
H 	H 	0.90880 0.77870 0.84610 0.28100
C 	C 	0.94830 0.70000 0.88920 0.51200
H 	H 	0.89910 0.67130 0.89700 -0.13100
C 	C 	0.01640 0.67440 0.90800 -0.58600
H 	H 	0.01310 0.62560 0.92800 0.23600
O 	O 	0.15480 0.70520 0.91656 -0.38000
O 	O 	0.18040 0.51070 0.89170 -0.27100
N 	N 	0.39890 0.56990 0.97398 -0.24300
C 	C 	0.34660 0.67060 0.97730 0.07900
H 	H 	0.35480 0.73520 0.99420 -0.01200
C 	C 	0.28310 0.68370 0.95750 -0.11100
H 	H 	0.24880 0.75810 0.95990 0.08300
C 	C 	0.26940 0.58580 0.93378 0.00400
C 	C 	0.32040 0.48050 0.93100 -0.12000
H 	H 	0.31140 0.41210 0.91500 0.09400
C 	C 	0.38180 0.47440 0.95040 0.08600
H 	H 	0.41620 0.40020 0.94800 -0.01900
C 	C 	0.19620 0.59390 0.91195 0.33000
O 	O 	0.12610 0.76700 0.79760 -0.26000
N 	N 	0.06180 0.10510 0.70977 -0.24700
O 	O 	0.02690 0.89030 0.82025 -0.34700
C 	C 	0.00090 0.08840 0.72940 0.08500
H 	H 	0.95310 0.12830 0.72270 -0.01200
C 	C 	0.00160 0.01800 0.75870 -0.15300
H 	H 	0.95790 0.01510 0.77280 0.11800
C 	C 	0.07120 0.95110 0.76620 0.04100
C 	C 	0.13450 0.96670 0.74580 -0.12500
H 	H 	0.18260 0.92420 0.75090 0.09300
C 	C 	0.12700 0.04340 0.71850 0.09300
H 	H 	0.17110 0.05350 0.70470 -0.01700
C 	C 	0.07990 0.86040 0.79640 0.30100
C 	C 	0.76440 0.75560 0.76930 0.53500
C 	C 	0.72980 0.70720 0.79820 -0.55600
H 	H 	0.73410 0.61530 0.80450 0.25400
C 	C 	0.68860 0.80090 0.81724 0.52100
C 	C 	0.67550 0.92980 0.80790 -0.49500
H 	H 	0.64500 0.98840 0.82110 0.24800
C 	C 	0.71000 0.97800 0.77650 0.41700
H 	H 	0.70100 0.06650 0.76830 -0.10600
C 	C 	0.75640 0.88460 0.75990 -0.54800
H 	H 	0.78360 0.91410 0.74090 0.22700
N 	N 	0.55930 0.60230 0.95667 -0.24500
O 	O 	0.65010 0.75830 0.84668 -0.35600
O 	O 	0.76270 0.67760 0.86870 -0.26000
C 	C 	0.62080 0.53470 0.94880 0.09700
H 	H 	0.63700 0.46310 0.96280 -0.01700
C 	C 	0.66600 0.56270 0.91990 -0.11700
H 	H 	0.71080 0.51070 0.91500 0.08800
C 	C 	0.64350 0.66300 0.90029 0.01700
C 	C 	0.57550 0.74240 0.90890 -0.11000
H 	H 	0.55800 0.81610 0.89590 0.10000
C 	C 	0.53760 0.70300 0.93760 0.09200
H 	H 	0.49280 0.75270 0.94390 -0.01800
C 	C 	0.69120 0.70120 0.86990 0.31900
N 	N 	0.99660 0.36420 0.69297 -0.22200
O 	O 	0.80710 0.66280 0.74943 -0.37500
O 	O 	0.91820 0.72130 0.77530 -0.25800
C 	C 	0.03760 0.43200 0.71620 0.05200
H 	H 	0.09170 0.41470 0.71860 -0.01000
C 	C 	0.00220 0.52820 0.73710 -0.09800
H 	H 	0.03170 0.57480 0.75340 0.08500
C 	C 	0.92160 0.55280 0.73300 -0.01200
C 	C 	0.88540 0.48380 0.70918 -0.07800
H 	H 	0.83140 0.50060 0.70620 0.07100
C 	C 	0.91850 0.39130 0.68860 0.04900
H 	H 	0.88880 0.34730 0.67200 -0.00300
C 	C 	0.88510 0.65380 0.75490 0.32000
Cu	Cu	0.94977 0.21487 0.33335 0.85700
C 	C 	0.83650 0.37940 0.48420 0.53700
C 	C 	0.86380 0.48840 0.46540 -0.54800
H 	H 	0.90720 0.54130 0.47210 0.25600
C 	C 	0.82180 0.51430 0.43540 0.54400
C 	C 	0.76410 0.43280 0.42510 -0.58400
H 	H 	0.74060 0.44940 0.40430 0.23500
C 	C 	0.73700 0.32330 0.44420 0.48200
H 	H 	0.69360 0.27090 0.43720 -0.12300
C 	C 	0.77650 0.29550 0.47340 -0.55800
H 	H 	0.76250 0.21900 0.48610 0.26500
O 	O 	0.87730 0.34440 0.51332 -0.37300
O 	O 	0.86180 0.54900 0.53580 -0.28200
N 	N 	0.00270 0.28630 0.62333 -0.24800
C 	C 	0.96190 0.20260 0.60390 0.09300
H 	H 	0.95820 0.11080 0.61040 -0.01900
C 	C 	0.92530 0.24060 0.57540 -0.10000
H 	H 	0.89820 0.17670 0.56220 0.09400
C 	C 	0.92890 0.37610 0.56620 -0.00300
C 	C 	0.96710 0.46780 0.58690 -0.08800
H 	H 	0.96940 0.56130 0.58190 0.08200
C 	C 	0.00180 0.41490 0.61539 0.06900
H 	H 	0.02640 0.47630 0.63010 -0.01100
C 	C 	0.88680 0.43570 0.53630 0.35400
N 	N 	0.90230 0.06210 0.35913 -0.23600
O 	O 	0.84810 0.62820 0.41757 -0.39100
O 	O 	0.76100 0.76440 0.44170 -0.25800
C 	C 	0.84770 0.08650 0.38300 0.01600
H 	H 	0.83070 0.17660 0.38630 0.00500
C 	C 	0.81620 0.98450 0.40260 -0.02700
H 	H 	0.77490 0.00260 0.41730 0.05300
C 	C 	0.84720 0.85560 0.39965 -0.03800
C 	C 	0.90120 0.82830 0.37640 -0.07500
H 	H 	0.92220 0.74020 0.37420 0.07200
C 	C 	0.92560 0.93510 0.35550 0.07000
H 	H 	0.96020 0.91470 0.33810 -0.00600
C 	C 	0.81450 0.74570 0.42190 0.33600
C 	C 	0.91350 0.71950 0.10272 0.50100
C 	C 	0.90340 0.79920 0.13220 -0.49000
H 	H 	0.85530 0.83630 0.13900 0.23800
C 	C 	0.97820 0.81570 0.15040 0.54100
C 	C 	0.04620 0.76710 0.14050 -0.61900
H 	H 	0.09120 0.77870 0.15390 0.28600
C 	C 	0.05170 0.70000 0.11080 0.48500
H 	H 	0.10090 0.67130 0.10300 -0.12600
C 	C 	0.98360 0.67440 0.09200 -0.55000
H 	H 	0.98690 0.62560 0.07200 0.22900
O 	O 	0.84520 0.70520 0.08344 -0.37700
O 	O 	0.81960 0.51070 0.10830 -0.27000
N 	N 	0.60110 0.56990 0.02602 -0.24600
C 	C 	0.65340 0.67060 0.02270 0.07900
H 	H 	0.64520 0.73520 0.00580 -0.01600
C 	C 	0.71690 0.68370 0.04250 -0.11200
H 	H 	0.75120 0.75810 0.04010 0.08300
C 	C 	0.73060 0.58580 0.06622 0.00400
C 	C 	0.67960 0.48050 0.06900 -0.12200
H 	H 	0.68860 0.41210 0.08500 0.09400
C 	C 	0.61820 0.47440 0.04960 0.08600
H 	H 	0.58380 0.40020 0.05200 -0.02000
C 	C 	0.80380 0.59390 0.08805 0.32900
O 	O 	0.87390 0.76700 0.20240 -0.26200
N 	N 	0.93820 0.10510 0.29023 -0.24700
O 	O 	0.97310 0.89030 0.17975 -0.34700
C 	C 	0.99910 0.08840 0.27060 0.10500
H 	H 	0.04690 0.12830 0.27730 -0.03300
C 	C 	0.99840 0.01800 0.24130 -0.11200
H 	H 	0.04210 0.01510 0.22720 0.08800
C 	C 	0.92880 0.95110 0.23380 0.02400
C 	C 	0.86550 0.96670 0.25420 -0.11400
H 	H 	0.81740 0.92420 0.24910 0.08900
C 	C 	0.87300 0.04340 0.28150 0.08700
H 	H 	0.82890 0.05350 0.29530 -0.01500
C 	C 	0.92010 0.86040 0.20360 0.31200
C 	C 	0.23560 0.75560 0.23070 0.53600
C 	C 	0.27020 0.70720 0.20180 -0.55700
H 	H 	0.26590 0.61530 0.19550 0.25400
C 	C 	0.31140 0.80090 0.18276 0.52200
C 	C 	0.32450 0.92980 0.19210 -0.49700
H 	H 	0.35500 0.98840 0.17890 0.24800
C 	C 	0.29000 0.97800 0.22350 0.41900
H 	H 	0.29900 0.06650 0.23170 -0.10800
C 	C 	0.24360 0.88460 0.24010 -0.55000
H 	H 	0.21640 0.91410 0.25910 0.22600
N 	N 	0.44070 0.60230 0.04333 -0.24800
O 	O 	0.34990 0.75830 0.15332 -0.35700
O 	O 	0.23730 0.67760 0.13130 -0.26200
C 	C 	0.37920 0.53470 0.05120 0.09600
H 	H 	0.36300 0.46310 0.03720 -0.02000
C 	C 	0.33400 0.56270 0.08010 -0.11700
H 	H 	0.28920 0.51070 0.08500 0.08700
C 	C 	0.35650 0.66300 0.09971 0.01600
C 	C 	0.42450 0.74240 0.09110 -0.11100
H 	H 	0.44200 0.81610 0.10410 0.10000
C 	C 	0.46240 0.70300 0.06240 0.09100
H 	H 	0.50720 0.75270 0.05610 -0.01900
C 	C 	0.30880 0.70120 0.13010 0.31900
N 	N 	0.00340 0.36420 0.30703 -0.23500
O 	O 	0.19290 0.66280 0.25057 -0.37900
O 	O 	0.08180 0.72130 0.22470 -0.27100
C 	C 	0.96240 0.43200 0.28380 0.06000
H 	H 	0.90830 0.41470 0.28140 -0.01100
C 	C 	0.99780 0.52820 0.26290 -0.06100
H 	H 	0.96830 0.57480 0.24660 0.07700
C 	C 	0.07840 0.55280 0.26700 -0.05200
C 	C 	0.11460 0.48380 0.29082 -0.05600
H 	H 	0.16860 0.50060 0.29380 0.06300
C 	C 	0.08150 0.39130 0.31140 0.03200
H 	H 	0.11120 0.34730 0.32800 -0.00100
C 	C 	0.11490 0.65380 0.24510 0.33300
Cu	Cu	0.50000 0.56478 -0.00000 0.85300
