data_crystal

_cell_length_a 18.14020
_cell_length_b 18.14020
_cell_length_c 18.11400
_cell_angle_alpha 90.00000
_cell_angle_beta  90.00000
_cell_angle_gamma 120.00000

_symmetry_space_group_name_	'P 1'
_symmetry_space_group_name_H-M	'P 1'

loop_
_symmetry_equiv_pos_as_xyz
  x,y,z

loop_
_atom_site_label
_atom_site_type_symbol
_atom_site_fract_x
_atom_site_fract_y
_atom_site_fract_z
_atom_site_charge
Cu	Cu	0.47324 0.52552 0.05833 0.92400
O 	O 	0.43610 0.41370 0.09620 -0.38600
O 	O 	0.47710 0.36970 0.00160 -0.38800
O 	O 	0.47930 0.11030 -0.00000 -0.36600
O 	O 	0.43480 0.02190 0.10100 -0.40000
C 	C 	0.44420 0.35530 0.06250 0.36500
C 	C 	0.41760 0.27300 0.09630 -0.05100
C 	C 	0.37410 0.24870 0.16600 -0.08000
H 	H 	0.36220 0.28590 0.19170 0.09200
C 	C 	0.35050 0.16990 0.19390 0.12200
C 	C 	0.37100 0.11380 0.16260 -0.09700
H 	H 	0.35300 0.06020 0.18260 0.09200
C 	C 	0.41990 0.14190 0.09980 -0.01600
C 	C 	0.44190 0.22080 0.06540 -0.01200
H 	H 	0.47300 0.23640 0.02170 0.07600
C 	C 	0.45020 0.08410 0.06610 0.33400
C 	C 	0.21640 0.04680 0.43630 0.04300
C 	C 	0.14650 0.02870 0.46860 -0.07700
H 	H 	0.11430 0.05220 0.45190 0.07000
C 	C 	0.28100 0.02470 0.46900 -0.06900
H 	H 	0.33420 0.04400 0.44770 0.06300
N 	N 	0.30070 0.14130 0.25770 -0.09500
N 	N 	0.28240 0.19670 0.29910 -0.04500
N 	N 	0.23040 0.15020 0.35980 -0.07300
C 	C 	0.21660 0.06610 0.35610 0.04000
C 	C 	0.26000 0.06050 0.29290 -0.00100
H 	H 	0.26160 0.01250 0.27740 0.04400
Cu	Cu	0.47448 0.94772 0.05833 0.92300
O 	O 	0.58630 0.02240 0.09620 -0.38700
O 	O 	0.63030 0.10740 0.00160 -0.38800
O 	O 	0.88970 0.36900 -0.00000 -0.36600
O 	O 	0.97810 0.41290 0.10100 -0.40000
C 	C 	0.64470 0.08890 0.06250 0.36500
C 	C 	0.72700 0.14460 0.09630 -0.05200
C 	C 	0.75130 0.12540 0.16600 -0.08000
H 	H 	0.71410 0.07630 0.19170 0.09200
C 	C 	0.83010 0.18060 0.19390 0.12100
C 	C 	0.88620 0.25720 0.16260 -0.09700
H 	H 	0.93980 0.29280 0.18260 0.09200
C 	C 	0.85810 0.27800 0.09980 -0.01600
C 	C 	0.77920 0.22110 0.06540 -0.01200
H 	H 	0.76360 0.23660 0.02170 0.07600
C 	C 	0.91590 0.36610 0.06610 0.33400
C 	C 	0.95320 0.16960 0.43630 0.04300
C 	C 	0.97130 0.11780 0.46860 -0.07800
H 	H 	0.94780 0.06210 0.45190 0.06800
C 	C 	0.97530 0.25630 0.46900 -0.07000
H 	H 	0.95600 0.29020 0.44770 0.06300
N 	N 	0.85870 0.15940 0.25770 -0.09500
N 	N 	0.80330 0.08570 0.29910 -0.04600
N 	N 	0.84980 0.08020 0.35980 -0.07400
C 	C 	0.93390 0.15050 0.35610 0.04000
C 	C 	0.93950 0.19950 0.29290 -0.00200
H 	H 	0.98750 0.24910 0.27740 0.04400
Cu	Cu	0.05228 0.52676 0.05833 0.92300
O 	O 	0.97760 0.56390 0.09620 -0.38700
O 	O 	0.89260 0.52290 0.00160 -0.38800
O 	O 	0.63100 0.52070 -0.00000 -0.36600
O 	O 	0.58710 0.56520 0.10100 -0.39900
C 	C 	0.91110 0.55580 0.06250 0.36500
C 	C 	0.85540 0.58240 0.09630 -0.05200
C 	C 	0.87460 0.62590 0.16600 -0.08000
H 	H 	0.92370 0.63780 0.19170 0.09200
C 	C 	0.81940 0.64950 0.19390 0.12100
C 	C 	0.74280 0.62900 0.16260 -0.09700
H 	H 	0.70720 0.64700 0.18260 0.09200
C 	C 	0.72200 0.58010 0.09980 -0.01500
C 	C 	0.77890 0.55810 0.06540 -0.01200
H 	H 	0.76340 0.52700 0.02170 0.07600
C 	C 	0.63390 0.54980 0.06610 0.33400
C 	C 	0.83040 0.78360 0.43630 0.03000
C 	C 	0.88220 0.85350 0.46860 -0.05600
H 	H 	0.93790 0.88570 0.45190 0.06300
C 	C 	0.74370 0.71900 0.46900 -0.05000
H 	H 	0.70980 0.66580 0.44770 0.05800
N 	N 	0.84060 0.69930 0.25770 -0.09400
N 	N 	0.91430 0.71760 0.29910 -0.04500
N 	N 	0.91980 0.76960 0.35980 -0.07400
C 	C 	0.84950 0.78340 0.35610 0.04500
C 	C 	0.80050 0.74000 0.29290 -0.00300
H 	H 	0.75090 0.73840 0.27740 0.04600
Cu	Cu	0.52552 0.47324 0.94167 0.87800
O 	O 	0.41370 0.43610 0.90380 -0.41900
O 	O 	0.36970 0.47710 0.99840 -0.45600
O 	O 	0.11030 0.47930 -0.00000 -0.32400
O 	O 	0.02190 0.43480 0.89900 -0.39800
C 	C 	0.35530 0.44420 0.93750 0.37500
C 	C 	0.27300 0.41760 0.90370 -0.07500
C 	C 	0.24870 0.37410 0.83400 -0.07600
H 	H 	0.28590 0.36220 0.80830 0.08300
C 	C 	0.16990 0.35050 0.80610 0.11200
C 	C 	0.11380 0.37100 0.83740 -0.10100
H 	H 	0.06020 0.35300 0.81740 0.08700
C 	C 	0.14190 0.41990 0.90020 -0.01900
C 	C 	0.22080 0.44190 0.93460 -0.01200
H 	H 	0.23640 0.47300 0.97830 0.05100
C 	C 	0.08410 0.45020 0.93390 0.26700
C 	C 	0.04680 0.21640 0.56370 0.02000
C 	C 	0.02870 0.14650 0.53140 -0.03800
H 	H 	0.05220 0.11430 0.54810 0.05500
C 	C 	0.02470 0.28100 0.53100 -0.03300
H 	H 	0.04400 0.33420 0.55230 0.05300
N 	N 	0.14130 0.30070 0.74230 -0.09500
N 	N 	0.19670 0.28240 0.70090 -0.04900
N 	N 	0.15020 0.23040 0.64020 -0.07600
C 	C 	0.06610 0.21660 0.64390 0.04400
C 	C 	0.06050 0.26000 0.70710 -0.00800
H 	H 	0.01250 0.26160 0.72260 0.04100
Cu	Cu	0.94772 0.47448 0.94167 0.87300
O 	O 	0.02240 0.58630 0.90380 -0.41300
O 	O 	0.10740 0.63030 0.99840 -0.45100
O 	O 	0.36900 0.88970 -0.00000 -0.32600
O 	O 	0.41290 0.97810 0.89900 -0.39800
C 	C 	0.08890 0.64470 0.93750 0.37400
C 	C 	0.14460 0.72700 0.90370 -0.07200
C 	C 	0.12540 0.75130 0.83400 -0.07600
H 	H 	0.07630 0.71410 0.80830 0.08500
C 	C 	0.18060 0.83010 0.80610 0.11400
C 	C 	0.25720 0.88620 0.83740 -0.10100
H 	H 	0.29280 0.93980 0.81740 0.08700
C 	C 	0.27800 0.85810 0.90020 -0.01800
C 	C 	0.22110 0.77920 0.93460 -0.01300
H 	H 	0.23660 0.76360 0.97830 0.05200
C 	C 	0.36610 0.91590 0.93390 0.26900
C 	C 	0.16960 0.95320 0.56370 0.02100
C 	C 	0.11780 0.97130 0.53140 -0.03700
H 	H 	0.06210 0.94780 0.54810 0.05800
C 	C 	0.25630 0.97530 0.53100 -0.03200
H 	H 	0.29020 0.95600 0.55230 0.05300
N 	N 	0.15940 0.85870 0.74230 -0.09500
N 	N 	0.08570 0.80330 0.70090 -0.04800
N 	N 	0.08020 0.84980 0.64020 -0.07400
C 	C 	0.15050 0.93390 0.64390 0.04600
C 	C 	0.19950 0.93950 0.70710 -0.00700
H 	H 	0.24910 0.98750 0.72260 0.04200
Cu	Cu	0.52676 0.05228 0.94167 0.87300
O 	O 	0.56390 0.97760 0.90380 -0.41400
O 	O 	0.52290 0.89260 0.99840 -0.45200
O 	O 	0.52070 0.63100 -0.00000 -0.32100
O 	O 	0.56520 0.58710 0.89900 -0.40100
C 	C 	0.55580 0.91110 0.93750 0.37400
C 	C 	0.58240 0.85540 0.90370 -0.07300
C 	C 	0.62590 0.87460 0.83400 -0.07700
H 	H 	0.63780 0.92370 0.80830 0.08400
C 	C 	0.64950 0.81940 0.80610 0.11300
C 	C 	0.62900 0.74280 0.83740 -0.10200
H 	H 	0.64700 0.70720 0.81740 0.08600
C 	C 	0.58010 0.72200 0.90020 -0.01800
C 	C 	0.55810 0.77890 0.93460 -0.01400
H 	H 	0.52700 0.76340 0.97830 0.05100
C 	C 	0.54980 0.63390 0.93390 0.26300
C 	C 	0.78360 0.83040 0.56370 0.03300
C 	C 	0.85350 0.88220 0.53140 -0.05900
H 	H 	0.88570 0.93790 0.54810 0.06300
C 	C 	0.71900 0.74370 0.53100 -0.05200
H 	H 	0.66580 0.70980 0.55230 0.05800
N 	N 	0.69930 0.84060 0.74230 -0.09600
N 	N 	0.71760 0.91430 0.70090 -0.04900
N 	N 	0.76960 0.91980 0.64020 -0.07500
C 	C 	0.78340 0.84950 0.64390 0.03900
C 	C 	0.74000 0.80050 0.70710 -0.00600
H 	H 	0.73840 0.75090 0.72260 0.03800
