data_crystal

_cell_length_a 8.57070
_cell_length_b 9.89850
_cell_length_c 14.28120
_cell_angle_alpha 104.98600
_cell_angle_beta  102.29100
_cell_angle_gamma 91.28600

_symmetry_space_group_name_	'P 1'
_symmetry_space_group_name_H-M	'P 1'

loop_
_symmetry_equiv_pos_as_xyz
  x,y,z

loop_
_atom_site_label
_atom_site_type_symbol
_atom_site_fract_x
_atom_site_fract_y
_atom_site_fract_z
_atom_site_charge
Zn	Zn	0.33695 0.63936 0.66121 1.21700
Zn	Zn	0.66305 0.36064 0.33879 1.21700
Zn	Zn	0.33220 0.41613 0.46172 1.22200
Zn	Zn	0.66780 0.58387 0.53828 1.22200
H 	H 	0.88820 0.76470 0.31420 0.10900
H 	H 	0.98100 0.34180 0.70190 0.12500
H 	H 	0.01900 0.65820 0.29810 0.12500
H 	H 	0.80170 0.56430 0.75230 -0.01000
H 	H 	0.10860 0.15160 0.37790 -0.01100
H 	H 	0.31760 0.93760 0.12180 0.11900
H 	H 	0.19830 0.43570 0.24770 -0.01000
H 	H 	0.98600 0.14620 0.51840 0.11700
H 	H 	0.01400 0.85380 0.48160 0.11700
H 	H 	0.63350 0.77010 0.01370 0.11900
H 	H 	0.14090 0.86100 0.41800 0.10600
H 	H 	0.58770 0.03890 0.59900 0.11100
H 	H 	0.50320 0.92830 0.73860 -0.03200
H 	H 	0.85910 0.13900 0.58200 0.10600
H 	H 	0.68240 0.06240 0.87820 0.11900
H 	H 	0.41230 0.96110 0.40100 0.11100
H 	H 	0.97500 0.68190 0.89770 0.11200
H 	H 	0.49680 0.07170 0.26140 -0.03200
H 	H 	0.45410 0.64160 0.87280 -0.02500
H 	H 	0.92390 0.02920 0.23310 0.11200
H 	H 	0.54590 0.35840 0.12720 -0.02500
H 	H 	0.02500 0.31810 0.10230 0.11200
H 	H 	0.07610 0.97080 0.76690 0.11200
H 	H 	0.59770 0.99880 0.43260 0.10900
H 	H 	0.89140 0.84840 0.62210 -0.01100
H 	H 	0.36650 0.22990 0.98630 0.11900
H 	H 	0.40230 0.00120 0.56740 0.10900
H 	H 	0.11180 0.23530 0.68580 0.10900
C 	C 	0.07450 0.79760 0.43780 -0.24900
C 	C 	0.14380 0.35190 0.24480 0.11800
C 	C 	0.98050 0.11120 0.23460 -0.21300
C 	C 	0.52990 0.89460 0.79450 0.13400
C 	C 	0.63710 0.97620 0.87840 -0.22400
C 	C 	0.95770 0.16040 0.15280 0.18000
C 	C 	0.39180 0.19540 0.04190 -0.23200
C 	C 	0.92550 0.20240 0.56220 -0.24900
C 	C 	0.60820 0.80460 0.95810 -0.23200
C 	C 	0.82030 0.28950 0.50710 0.43800
C 	C 	0.01950 0.88880 0.76540 -0.21300
C 	C 	0.50830 0.95700 0.45010 -0.23100
C 	C 	0.67450 0.92880 0.96040 0.20300
C 	C 	0.95860 0.70560 0.34540 -0.24800
C 	C 	0.53470 0.80420 0.44380 0.37500
C 	C 	0.04230 0.83960 0.84720 0.18000
C 	C 	0.90870 0.81380 0.67780 0.11500
C 	C 	0.36290 0.02380 0.12160 -0.22400
C 	C 	0.46530 0.19580 0.55620 0.37500
C 	C 	0.85620 0.64810 0.75520 0.11800
C 	C 	0.14100 0.40190 0.63000 0.42700
C 	C 	0.50140 0.72710 0.87280 0.13500
C 	C 	0.03960 0.28240 0.15750 -0.20900
C 	C 	0.96040 0.71760 0.84250 -0.20900
C 	C 	0.49860 0.27290 0.12720 0.13500
C 	C 	0.04140 0.29440 0.65460 -0.24800
C 	C 	0.32550 0.07120 0.03960 0.20300
C 	C 	0.09130 0.18620 0.32220 0.11500
C 	C 	0.85900 0.59810 0.37000 0.42700
C 	C 	0.49170 0.04300 0.54990 -0.23100
C 	C 	0.17970 0.71050 0.49290 0.43800
C 	C 	0.47010 0.10540 0.20550 0.13400
N 	N 	0.17090 0.30460 0.32640 -0.24800
N 	N 	0.84770 0.09600 0.05420 -0.09500
N 	N 	0.21190 0.00310 0.94040 -0.09900
N 	N 	0.46470 0.77100 0.79120 -0.28500
N 	N 	0.53530 0.22900 0.20880 -0.28500
N 	N 	0.82910 0.69540 0.67360 -0.24800
N 	N 	0.78810 0.99690 0.05960 -0.09900
N 	N 	0.15230 0.90400 0.94580 -0.09500
O 	O 	0.50580 0.71910 0.35930 -0.29000
O 	O 	0.49420 0.28090 0.64070 -0.29000
O 	O 	0.84550 0.61550 0.45600 -0.46800
O 	O 	0.15450 0.38450 0.54400 -0.46800
O 	O 	0.77670 0.24130 0.41320 -0.50500
O 	O 	0.58490 0.77280 0.52430 -0.45100
O 	O 	0.51170 0.47090 0.40060 -0.63600
O 	O 	0.79320 0.49190 0.29770 -0.47100
O 	O 	0.21810 0.59870 0.44360 -0.47100
O 	O 	0.78190 0.40130 0.55640 -0.47100
O 	O 	0.41510 0.22720 0.47570 -0.45100
O 	O 	0.48830 0.52910 0.59940 -0.63600
O 	O 	0.20680 0.50810 0.70230 -0.47100
O 	O 	0.22330 0.75870 0.58680 -0.50500
