data_crystal

_cell_length_a 10.00890
_cell_length_b 22.02590
_cell_length_c 11.73110
_cell_angle_alpha 90.00000
_cell_angle_beta  104.96100
_cell_angle_gamma 90.00000

_symmetry_space_group_name_	'P 1'
_symmetry_space_group_name_H-M	'P 1'

loop_
_symmetry_equiv_pos_as_xyz
  x,y,z

loop_
_atom_site_label
_atom_site_type_symbol
_atom_site_fract_x
_atom_site_fract_y
_atom_site_fract_z
_atom_site_charge
Zn	Zn	0.67262 0.70046 0.05965 1.19100
Zn	Zn	0.26347 0.67444 0.37911 1.21000
Zn	Zn	0.08336 0.67577 0.74963 1.20900
Zn	Zn	0.70648 0.55194 0.19946 1.20400
Zn	Zn	0.60952 0.82486 0.84626 1.17000
C 	C 	0.88340 0.67940 0.90710 0.10400
H 	H 	0.91570 0.64350 0.94640 -0.01500
N 	N 	0.93120 0.70370 0.81950 -0.28200
O 	O 	0.62750 0.60730 0.97710 -0.48300
C 	C 	0.22870 0.79870 0.42560 0.33900
O 	O 	0.31940 0.35940 0.99610 -0.52400
N 	N 	0.06520 0.65530 0.29880 -0.28000
O 	O 	0.17620 0.57150 0.89080 -0.31800
C 	C 	0.97610 0.69150 0.22680 0.11100
H 	H 	0.99440 0.73160 0.21110 -0.01900
O 	O 	0.02910 0.71560 0.59380 -0.55100
N 	N 	0.55810 0.67190 0.18310 -0.21400
N 	N 	0.47220 0.38180 0.68380 -0.00800
O 	O 	0.27020 0.28490 0.86370 -0.47800
C 	C 	0.46100 0.69840 0.22580 0.10900
H 	H 	0.43880 0.73950 0.21650 0.00300
O 	O 	0.25190 0.76310 0.35050 -0.45100
N 	N 	0.87130 0.60720 0.22260 -0.24700
O 	O 	0.35760 0.64640 0.54370 -0.43700
N 	N 	0.07480 0.39920 0.47460 -0.00300
O 	O 	0.62350 0.51440 0.04520 -0.46000
O 	O 	0.51990 0.34850 0.76960 -0.12500
C 	C 	0.60330 0.55400 0.96540 0.40100
O 	O 	0.08580 0.59150 0.70260 -0.45100
C 	C 	0.21160 0.99030 0.35530 -0.02100
H 	H 	0.20530 0.03170 0.33920 0.05600
N 	N 	0.27060 0.71120 0.82660 -0.28500
N 	N 	0.45830 0.76680 0.85500 -0.24800
N 	N 	0.85820 0.66360 0.18050 -0.21400
C 	C 	0.24950 0.90810 0.49040 -0.01100
H 	H 	0.26770 0.89440 0.56790 0.06200
C 	C 	0.20750 0.38600 0.80150 -0.07600
C 	C 	0.47600 0.44740 0.70940 0.10400
C 	C 	0.11550 0.41470 0.60390 0.09100
C 	C 	0.53350 0.52980 0.84020 -0.04300
C 	C 	0.13810 0.55590 0.78720 0.33300
O 	O 	0.28400 0.56460 0.44130 -0.33400
C 	C 	0.52660 0.46840 0.81940 -0.07600
H 	H 	0.55710 0.44140 0.88160 0.10600
N 	N 	0.76630 0.76190 0.85410 -0.24800
C 	C 	0.14600 0.49090 0.75110 -0.04700
C 	C 	0.10560 0.47490 0.63200 -0.06500
H 	H 	0.07320 0.50380 0.57370 0.09400
N 	N 	0.47820 0.72210 0.93990 -0.22400
C 	C 	0.36200 0.69130 0.92030 0.12100
H 	H 	0.34670 0.65930 0.96720 -0.02400
C 	C 	0.26780 0.33880 0.89540 0.42800
N 	N 	0.39950 0.65970 0.28310 -0.27600
C 	C 	0.41860 0.48600 0.61450 -0.07700
H 	H 	0.38060 0.47040 0.53950 0.09000
C 	C 	0.19690 0.44620 0.83360 0.01500
H 	H 	0.22490 0.45670 0.91300 0.05400
C 	C 	0.19390 0.88560 0.28630 -0.05600
H 	H 	0.17670 0.85820 0.22380 0.08600
N 	N 	0.78460 0.71360 0.92920 -0.22000
C 	C 	0.22680 0.86570 0.40000 -0.04300
C 	C 	0.16330 0.36980 0.68550 -0.04600
H 	H 	0.16550 0.32950 0.66230 0.08600
O 	O 	0.09470 0.34730 0.44810 -0.12400
N 	N 	0.55500 0.61250 0.21250 -0.23600
O 	O 	0.29690 0.99320 0.67270 -0.41400
C 	C 	0.24630 0.96810 0.47050 -0.02300
O 	O 	0.43070 0.36370 0.58430 -0.13100
O 	O 	0.23760 0.06740 0.54380 -0.30000
C 	C 	0.18680 0.94720 0.26620 0.08300
C 	C 	0.47870 0.57080 0.74740 -0.01300
H 	H 	0.48170 0.61240 0.76120 0.05000
C 	C 	0.26340 0.01540 0.56830 0.27500
C 	C 	0.99400 0.60390 0.29350 0.12300
H 	H 	0.02860 0.56920 0.33620 -0.01400
O 	O 	0.21700 0.78200 0.52580 -0.32800
C 	C 	0.41970 0.54780 0.63460 -0.03900
C 	C 	0.46450 0.60700 0.27370 0.11600
H 	H 	0.44640 0.57070 0.30740 -0.02500
O 	O 	0.13320 0.02270 0.12340 -0.15400
N 	N 	0.14420 0.96980 0.14270 0.01300
O 	O 	0.12450 0.93170 0.06560 -0.12100
C 	C 	0.35220 0.58900 0.53520 0.29500
O 	O 	0.02410 0.43720 0.40660 -0.13100
C 	C 	0.85910 0.75310 0.79200 0.11400
H 	H 	0.87110 0.78000 0.73420 -0.02300
O 	O 	0.46100 0.90540 0.82870 -0.76900
C 	C 	0.33030 0.75950 0.78970 0.10700
H 	H 	0.28730 0.78430 0.72680 -0.01200
H 	H 	0.04600 0.68000 0.62500 0.02600
H 	H 	0.09090 0.73670 0.57210 0.27300
H 	H 	0.52980 0.89150 0.88270 0.22800
H 	H 	0.46100 0.92820 0.77730 0.39100
Zn	Zn	0.32738 0.20046 0.94035 1.19100
Zn	Zn	0.73653 0.17444 0.62089 1.20900
Zn	Zn	0.91664 0.17577 0.25037 1.20800
Zn	Zn	0.29352 0.05194 0.80054 1.19800
Zn	Zn	0.39048 0.32486 0.15374 1.16900
C 	C 	0.11660 0.17940 0.09290 0.10400
H 	H 	0.08430 0.14350 0.05360 -0.01600
N 	N 	0.06880 0.20370 0.18050 -0.28200
O 	O 	0.37250 0.10730 0.02290 -0.49000
C 	C 	0.77130 0.29870 0.57440 0.34000
O 	O 	0.68060 0.85940 0.00390 -0.52300
N 	N 	0.93480 0.15530 0.70120 -0.28000
O 	O 	0.82380 0.07150 0.10920 -0.31900
C 	C 	0.02390 0.19150 0.77320 0.11100
H 	H 	0.00560 0.23160 0.78890 -0.01900
O 	O 	0.97090 0.21560 0.40620 -0.55100
N 	N 	0.44190 0.17190 0.81690 -0.21300
N 	N 	0.52780 0.88180 0.31620 -0.00100
O 	O 	0.72980 0.78490 0.13630 -0.47800
C 	C 	0.53900 0.19840 0.77420 0.10900
H 	H 	0.56120 0.23950 0.78350 0.00300
O 	O 	0.74810 0.26310 0.64950 -0.45100
N 	N 	0.12870 0.10720 0.77740 -0.24900
O 	O 	0.64240 0.14640 0.45630 -0.44300
N 	N 	0.92520 0.89920 0.52540 -0.00000
O 	O 	0.37650 0.01440 0.95480 -0.47900
O 	O 	0.48010 0.84850 0.23040 -0.12400
C 	C 	0.39670 0.05400 0.03460 0.42300
O 	O 	0.91420 0.09150 0.29740 -0.45000
C 	C 	0.78840 0.49030 0.64470 -0.07000
H 	H 	0.79470 0.53170 0.66080 0.08800
N 	N 	0.72940 0.21120 0.17340 -0.28500
N 	N 	0.54170 0.26680 0.14500 -0.24800
N 	N 	0.14180 0.16360 0.81950 -0.21400
C 	C 	0.75050 0.40810 0.50960 -0.00200
H 	H 	0.73230 0.39440 0.43210 0.05700
C 	C 	0.79250 0.88600 0.19850 -0.07900
C 	C 	0.52400 0.94740 0.29060 0.05400
C 	C 	0.88450 0.91470 0.39610 0.07300
C 	C 	0.46650 0.02980 0.15980 -0.11600
C 	C 	0.86190 0.05590 0.21280 0.31200
O 	O 	0.71600 0.06460 0.55870 -0.34800
C 	C 	0.47340 0.96840 0.18060 0.01100
H 	H 	0.44290 0.94140 0.11840 0.08200
N 	N 	0.23370 0.26190 0.14590 -0.24800
C 	C 	0.85400 0.99090 0.24890 -0.03800
C 	C 	0.89440 0.97490 0.36800 -0.01100
H 	H 	0.92680 0.00380 0.42630 0.05500
N 	N 	0.52180 0.22210 0.06010 -0.22500
C 	C 	0.63800 0.19130 0.07970 0.12100
H 	H 	0.65330 0.15930 0.03280 -0.02500
C 	C 	0.73220 0.83880 0.10460 0.43000
N 	N 	0.60050 0.15970 0.71690 -0.27700
C 	C 	0.58140 0.98600 0.38550 0.00700
H 	H 	0.61940 0.97040 0.46050 0.06900
C 	C 	0.80310 0.94620 0.16640 0.01500
H 	H 	0.77510 0.95670 0.08700 0.06100
C 	C 	0.80610 0.38560 0.71370 -0.06200
H 	H 	0.82330 0.35820 0.77620 0.08800
N 	N 	0.21540 0.21360 0.07080 -0.22000
C 	C 	0.77320 0.36570 0.60000 -0.04400
C 	C 	0.83670 0.86980 0.31450 -0.03500
H 	H 	0.83450 0.82950 0.33770 0.08200
O 	O 	0.90530 0.84730 0.55190 -0.12300
N 	N 	0.44500 0.11250 0.78750 -0.23800
O 	O 	0.70310 0.49320 0.32730 -0.45400
C 	C 	0.75370 0.46810 0.52950 -0.04400
O 	O 	0.56930 0.86370 0.41570 -0.13000
O 	O 	0.76240 0.56740 0.45620 -0.31300
C 	C 	0.81320 0.44720 0.73380 0.09700
C 	C 	0.52130 0.07080 0.25260 0.04100
H 	H 	0.51830 0.11240 0.23880 0.03100
C 	C 	0.73660 0.51540 0.43170 0.33500
C 	C 	0.00600 0.10390 0.70650 0.12400
H 	H 	0.97140 0.06920 0.66380 -0.01800
O 	O 	0.78300 0.28200 0.47420 -0.32800
C 	C 	0.58030 0.04780 0.36540 -0.11100
C 	C 	0.53550 0.10700 0.72630 0.11600
H 	H 	0.55360 0.07070 0.69260 -0.03100
O 	O 	0.86680 0.52270 0.87660 -0.13200
N 	N 	0.85580 0.46980 0.85730 -0.00500
O 	O 	0.87550 0.43170 0.93440 -0.12600
C 	C 	0.64780 0.08900 0.46480 0.31800
O 	O 	0.97590 0.93720 0.59340 -0.12000
C 	C 	0.14090 0.25310 0.20800 0.11300
H 	H 	0.12890 0.28000 0.26580 -0.02400
O 	O 	0.53900 0.40540 0.17130 -0.77000
C 	C 	0.66970 0.25950 0.21030 0.10700
H 	H 	0.71270 0.28430 0.27320 -0.01200
H 	H 	0.95400 0.18000 0.37500 0.02500
H 	H 	0.90910 0.23670 0.42790 0.27300
H 	H 	0.47020 0.39150 0.11730 0.22400
H 	H 	0.53900 0.42820 0.22270 0.38600
