data_crystal

_cell_length_a 10.99600
_cell_length_b 14.01890
_cell_length_c 14.02710
_cell_angle_alpha 61.90000
_cell_angle_beta  80.58500
_cell_angle_gamma 85.44100

_symmetry_space_group_name_	'P 1'
_symmetry_space_group_name_H-M	'P 1'

loop_
_symmetry_equiv_pos_as_xyz
  x,y,z

loop_
_atom_site_label
_atom_site_type_symbol
_atom_site_fract_x
_atom_site_fract_y
_atom_site_fract_z
_atom_site_charge
Cd	Cd	0.25080 0.47396 0.27573 1.18800
N 	N 	0.33610 0.45500 0.58890 -0.12000
N 	N 	0.29550 0.48880 0.42770 -0.23400
N 	N 	0.16850 0.49540 0.95990 -0.11700
N 	N 	0.20870 0.45790 0.12270 -0.22800
N 	N 	0.01720 0.18460 0.51100 -0.12200
N 	N 	0.10570 0.33870 0.39060 -0.23500
N 	N 	0.53860 0.20800 0.36040 -0.12000
N 	N 	0.40500 0.34050 0.30020 -0.23300
N 	N 	0.99130 0.75810 0.17570 -0.12300
N 	N 	0.09800 0.60920 0.25180 -0.23200
N 	N 	0.46640 0.77660 0.04720 -0.14600
N 	N 	0.38530 0.61540 0.14830 -0.23500
C 	C 	0.29600 0.41510 0.53000 0.09100
H 	H 	0.27140 0.34380 0.55790 -0.01700
C 	C 	0.33670 0.58110 0.42180 -0.00000
H 	H 	0.34520 0.64780 0.35940 0.01000
C 	C 	0.36320 0.56130 0.51990 -0.00400
H 	H 	0.39380 0.61030 0.53730 0.02800
C 	C 	0.21560 0.53190 0.01880 0.08100
H 	H 	0.24890 0.60050 0.99040 -0.00900
C 	C 	0.15400 0.37000 0.12830 -0.00600
H 	H 	0.13680 0.30470 0.19130 0.01300
C 	C 	0.12960 0.39240 0.02980 -0.00400
H 	H 	0.09290 0.34640 0.01210 0.02800
C 	C 	0.34940 0.39510 0.70570 -0.03600
H 	H 	0.42930 0.41130 0.71520 0.03700
H 	H 	0.34720 0.31820 0.72870 0.03600
C 	C 	0.25060 0.42140 0.77850 -0.11200
H 	H 	0.25470 0.36800 0.85370 0.06300
H 	H 	0.17080 0.41420 0.76160 0.06800
C 	C 	0.25830 0.53300 0.76940 -0.09600
H 	H 	0.33790 0.54020 0.78660 0.05900
H 	H 	0.25430 0.58640 0.69420 0.05700
C 	C 	0.15870 0.55830 0.84240 -0.04900
H 	H 	0.16220 0.63470 0.82140 0.04200
H 	H 	0.07900 0.54430 0.83050 0.04300
C 	C 	0.12220 0.23490 0.45350 0.08800
H 	H 	0.19850 0.20060 0.45730 -0.01700
C 	C 	0.98060 0.35330 0.41090 -0.00800
H 	H 	0.93980 0.41910 0.37880 0.01800
C 	C 	0.92610 0.25910 0.48370 -0.00300
H 	H 	0.84240 0.24740 0.51000 0.02700
C 	C 	0.00200 0.06940 0.59130 -0.04900
H 	H 	0.94290 0.06300 0.65350 0.04000
H 	H 	0.08020 0.04090 0.61710 0.04000
C 	C 	0.95850 0.00220 0.54480 -0.09700
H 	H 	0.94430 0.92900 0.60310 0.05500
H 	H 	0.88000 0.03090 0.51980 0.05600
C 	C 	0.46000 0.27360 0.38460 0.08700
H 	H 	0.44570 0.27230 0.45240 -0.01600
C 	C 	0.45330 0.31560 0.21830 -0.00600
H 	H 	0.43270 0.35000 0.14790 0.01400
C 	C 	0.53510 0.23400 0.25420 -0.00700
H 	H 	0.58010 0.20190 0.21470 0.03100
C 	C 	0.61320 0.12160 0.43530 -0.04800
H 	H 	0.61320 0.13070 0.49960 0.04000
H 	H 	0.69770 0.12760 0.39960 0.04000
C 	C 	0.56450 0.00990 0.46970 -0.09900
H 	H 	0.56650 0.00080 0.40510 0.05800
H 	H 	0.61890 0.95600 0.51580 0.05700
C 	C 	0.06510 0.68480 0.15990 0.08600
H 	H 	0.09000 0.68710 0.09220 -0.01600
C 	C 	0.04200 0.63540 0.33120 -0.00300
H 	H 	0.04860 0.59660 0.40520 0.01500
C 	C 	0.97550 0.72680 0.28410 -0.00500
H 	H 	0.92780 0.76180 0.31950 0.03200
C 	C 	0.94010 0.85510 0.09030 -0.04100
H 	H 	0.86140 0.87310 0.12080 0.03700
H 	H 	0.92610 0.84020 0.03210 0.03700
C 	C 	0.02650 0.95000 0.04420 -0.11000
H 	H 	0.10520 0.93200 0.01370 0.05900
H 	H 	0.04040 0.96490 0.10230 0.05900
C 	C 	0.37630 0.71730 0.12580 0.09500
H 	H 	0.31500 0.74520 0.15990 -0.01900
C 	C 	0.48650 0.61020 0.07920 -0.00300
H 	H 	0.51550 0.54770 0.07550 0.01500
C 	C 	0.53760 0.70830 0.01790 -0.00100
H 	H 	0.60770 0.72600 0.96580 0.02600
C 	C 	0.49160 0.89230 0.00170 0.12100
H 	H 	0.52440 0.92000 0.92500 -0.00700
H 	H 	0.41410 0.92910 0.00630 -0.07300
C 	C 	0.57550 0.91930 0.05380 -0.29000
H 	H 	0.64890 0.87480 0.05920 0.11000
H 	H 	0.53720 0.90180 0.12750 0.11200
C 	C 	0.61360 0.03730 0.99470 0.10900
H 	H 	0.67830 0.04760 0.02840 -0.00600
H 	H 	0.64620 0.05710 0.91920 -0.00500
Cd	Cd	0.74920 0.52604 0.72427 1.18700
N 	N 	0.66390 0.54500 0.41110 -0.12100
N 	N 	0.70450 0.51120 0.57230 -0.23400
N 	N 	0.83150 0.50460 0.04010 -0.11700
N 	N 	0.79130 0.54210 0.87730 -0.22800
N 	N 	0.98280 0.81540 0.48900 -0.12200
N 	N 	0.89430 0.66130 0.60940 -0.23500
N 	N 	0.46140 0.79200 0.63960 -0.12000
N 	N 	0.59500 0.65950 0.69980 -0.23300
N 	N 	0.00870 0.24190 0.82430 -0.12300
N 	N 	0.90200 0.39080 0.74820 -0.23200
N 	N 	0.53360 0.22340 0.95280 -0.14600
N 	N 	0.61470 0.38460 0.85170 -0.23500
C 	C 	0.70400 0.58490 0.47000 0.09100
H 	H 	0.72860 0.65620 0.44210 -0.01700
C 	C 	0.66330 0.41890 0.57820 -0.00000
H 	H 	0.65480 0.35220 0.64060 0.01000
C 	C 	0.63680 0.43870 0.48010 -0.00400
H 	H 	0.60620 0.38970 0.46270 0.02800
C 	C 	0.78440 0.46810 0.98120 0.08100
H 	H 	0.75110 0.39950 0.00960 -0.00900
C 	C 	0.84600 0.63000 0.87170 -0.00600
H 	H 	0.86320 0.69530 0.80870 0.01300
C 	C 	0.87040 0.60760 0.97020 -0.00400
H 	H 	0.90710 0.65360 0.98790 0.02800
C 	C 	0.65060 0.60490 0.29430 -0.03600
H 	H 	0.57070 0.58870 0.28480 0.03700
H 	H 	0.65280 0.68180 0.27130 0.03600
C 	C 	0.74940 0.57860 0.22150 -0.11200
H 	H 	0.74530 0.63200 0.14630 0.06300
H 	H 	0.82920 0.58580 0.23840 0.06800
C 	C 	0.74170 0.46700 0.23060 -0.09600
H 	H 	0.66210 0.45980 0.21340 0.05900
H 	H 	0.74570 0.41360 0.30580 0.05700
C 	C 	0.84130 0.44170 0.15760 -0.04900
H 	H 	0.83780 0.36530 0.17860 0.04200
H 	H 	0.92100 0.45570 0.16950 0.04300
C 	C 	0.87780 0.76510 0.54650 0.08800
H 	H 	0.80150 0.79940 0.54270 -0.01700
C 	C 	0.01940 0.64670 0.58910 -0.00800
H 	H 	0.06020 0.58090 0.62120 0.01800
C 	C 	0.07390 0.74090 0.51630 -0.00300
H 	H 	0.15760 0.75260 0.49000 0.02700
C 	C 	0.99800 0.93060 0.40870 -0.04900
H 	H 	0.05710 0.93700 0.34650 0.04000
H 	H 	0.91980 0.95910 0.38290 0.04000
C 	C 	0.04150 0.99780 0.45520 -0.09700
H 	H 	0.05570 0.07100 0.39690 0.05500
H 	H 	0.12000 0.96910 0.48020 0.05600
C 	C 	0.54000 0.72640 0.61540 0.08700
H 	H 	0.55430 0.72770 0.54760 -0.01600
C 	C 	0.54670 0.68440 0.78170 -0.00600
H 	H 	0.56730 0.65000 0.85210 0.01400
C 	C 	0.46490 0.76600 0.74580 -0.00700
H 	H 	0.41990 0.79810 0.78530 0.03100
C 	C 	0.38680 0.87840 0.56470 -0.04800
H 	H 	0.38680 0.86930 0.50040 0.04000
H 	H 	0.30230 0.87240 0.60040 0.04000
C 	C 	0.43550 0.99010 0.53030 -0.09900
H 	H 	0.43350 0.99920 0.59490 0.05800
H 	H 	0.38110 0.04400 0.48420 0.05700
C 	C 	0.93490 0.31520 0.84010 0.08600
H 	H 	0.91000 0.31290 0.90780 -0.01600
C 	C 	0.95800 0.36460 0.66880 -0.00300
H 	H 	0.95140 0.40340 0.59480 0.01500
C 	C 	0.02450 0.27320 0.71590 -0.00500
H 	H 	0.07220 0.23820 0.68050 0.03200
C 	C 	0.05990 0.14490 0.90970 -0.04100
H 	H 	0.13860 0.12690 0.87920 0.03700
H 	H 	0.07390 0.15980 0.96790 0.03700
C 	C 	0.97350 0.05000 0.95580 -0.11000
H 	H 	0.89480 0.06800 0.98630 0.05900
H 	H 	0.95960 0.03510 0.89770 0.05900
C 	C 	0.62370 0.28270 0.87420 0.09500
H 	H 	0.68500 0.25480 0.84010 -0.01900
C 	C 	0.51350 0.38980 0.92080 -0.00300
H 	H 	0.48450 0.45230 0.92450 0.01500
C 	C 	0.46240 0.29170 0.98210 -0.00100
H 	H 	0.39230 0.27400 0.03420 0.02600
C 	C 	0.50840 0.10770 0.99830 0.12100
H 	H 	0.47560 0.08000 0.07500 -0.00700
H 	H 	0.58590 0.07090 0.99370 -0.07300
C 	C 	0.42450 0.08070 0.94620 -0.29000
H 	H 	0.35110 0.12520 0.94080 0.11000
H 	H 	0.46280 0.09820 0.87250 0.11200
C 	C 	0.38640 0.96270 0.00530 0.10900
H 	H 	0.32170 0.95240 0.97160 -0.00600
H 	H 	0.35380 0.94290 0.08080 -0.00500
