data_crystal

_cell_length_a 16.63400
_cell_length_b 16.63400
_cell_length_c 18.19400
_cell_angle_alpha 90.00000
_cell_angle_beta  90.00000
_cell_angle_gamma 120.00000

_symmetry_space_group_name_	'P 1'
_symmetry_space_group_name_H-M	'P 1'

loop_
_symmetry_equiv_pos_as_xyz
  x,y,z

loop_
_atom_site_label
_atom_site_type_symbol
_atom_site_fract_x
_atom_site_fract_y
_atom_site_fract_z
_atom_site_charge
Ni	Ni	0.00008 0.32066 0.14951 1.09600
Ni	Ni	0.32058 0.99992 0.14951 1.09600
Ni	Ni	0.67905 0.67910 0.76830 1.11100
Ni	Ni	0.32090 0.99995 0.76830 1.09800
Ni	Ni	0.67934 0.67942 0.14951 1.11300
Ni	Ni	0.00005 0.32095 0.76830 1.09700
H 	H 	0.45230 0.10790 0.64570 -0.00600
H 	H 	0.45960 0.05650 0.01510 -0.00200
H 	H 	0.19480 0.88850 0.64630 0.00100
H 	H 	0.36640 0.13680 0.40560 0.03500
H 	H 	0.14090 0.13820 0.76320 0.06900
H 	H 	0.76170 0.62270 0.01650 0.05900
H 	H 	0.49120 0.77680 0.75550 0.04200
H 	H 	0.65560 0.54770 0.64570 0.01800
H 	H 	0.54450 0.60090 0.90210 0.04800
H 	H 	0.88640 0.34530 0.51710 0.12100
H 	H 	0.13310 0.42580 0.40560 0.03900
H 	H 	0.26650 0.08450 0.90100 0.05300
H 	H 	0.86440 0.22780 0.27810 0.04400
H 	H 	0.19540 0.88800 0.51540 0.11300
H 	H 	0.39910 0.94360 0.90210 0.10600
H 	H 	0.18120 0.90880 0.90150 0.04300
H 	H 	0.11150 0.30630 0.64630 0.00800
H 	H 	0.54020 0.59470 0.01600 0.05700
H 	H 	0.57720 0.70980 0.28040 0.01600
H 	H 	0.81700 0.73370 0.01680 0.05700
H 	H 	0.61670 0.75760 0.90190 0.05200
H 	H 	0.86180 0.00270 0.76320 0.04700
H 	H 	0.24240 0.85910 0.90190 0.05200
H 	H 	0.69370 0.80520 0.64630 0.02300
H 	H 	0.13260 0.42280 0.28040 0.04500
H 	H 	0.59970 0.54540 0.90120 0.04900
H 	H 	0.69260 0.80460 0.51540 0.07400
H 	H 	0.94570 0.40030 0.90120 0.13200
H 	H 	0.37730 0.13900 0.01650 0.05200
H 	H 	0.72940 0.81690 0.01780 0.05000
H 	H 	0.37770 0.13800 0.90070 0.04900
H 	H 	0.09120 0.27240 0.90150 0.05100
H 	H 	0.22320 0.71440 0.75550 0.04100
H 	H 	0.77040 0.63360 0.40560 0.07500
H 	H 	0.77480 0.48950 0.15660 0.04200
H 	H 	0.86200 0.23970 0.90070 0.05100
H 	H 	0.49020 0.77690 0.15880 0.03900
H 	H 	0.99680 0.85840 0.15580 0.09100
H 	H 	0.26630 0.08330 0.01680 0.05600
H 	H 	0.11200 0.30740 0.51540 0.12000
H 	H 	0.59690 0.54040 0.01510 0.05900
H 	H 	0.24110 0.85970 0.01820 0.05200
H 	H 	0.28670 0.50980 0.15880 0.04000
H 	H 	0.71470 0.22520 0.15660 0.04200
H 	H 	0.71470 0.22480 0.75960 0.04600
H 	H 	0.57420 0.70730 0.40560 0.07400
H 	H 	0.29270 0.86690 0.40560 0.03600
H 	H 	0.77220 0.63660 0.27810 0.02400
H 	H 	0.05450 0.45980 0.01600 -0.03100
H 	H 	0.94350 0.40310 0.01510 -0.00100
H 	H 	0.77520 0.48990 0.75960 0.04500
H 	H 	0.22310 0.71330 0.15880 0.03700
H 	H 	0.65470 0.54110 0.51710 0.08100
H 	H 	0.61860 0.75890 0.01820 0.05200
H 	H 	0.40530 0.94550 0.01600 -0.03200
H 	H 	0.36340 0.13560 0.27810 0.04100
H 	H 	0.14090 0.38330 0.90190 0.05500
H 	H 	0.29020 0.86740 0.28040 0.04400
H 	H 	0.86160 0.00320 0.15580 0.08600
H 	H 	0.76030 0.62230 0.90070 0.05500
H 	H 	0.14160 0.13840 0.15580 0.10600
H 	H 	0.89210 0.34440 0.64570 -0.00600
H 	H 	0.51050 0.28530 0.15660 0.03900
H 	H 	0.45890 0.11360 0.51710 0.12100
H 	H 	0.51010 0.28530 0.75960 0.04300
H 	H 	0.86100 0.23830 0.01650 0.05600
H 	H 	0.91670 0.18300 0.01680 0.06300
H 	H 	0.99730 0.85910 0.76320 0.07400
H 	H 	0.72760 0.81880 0.90150 0.05000
H 	H 	0.28560 0.50880 0.75550 0.04400
H 	H 	0.14030 0.38140 0.01820 0.05400
H 	H 	0.45460 0.05430 0.90120 0.13300
H 	H 	0.86320 0.22960 0.40560 0.04100
H 	H 	0.81800 0.73350 0.90100 0.05500
H 	H 	0.08750 0.27060 0.01780 0.05000
H 	H 	0.05640 0.45550 0.90210 0.10500
H 	H 	0.91550 0.18200 0.90100 0.05800
H 	H 	0.18310 0.91250 0.01780 0.04300
C 	C 	0.30620 0.57420 0.15850 0.06300
C 	C 	0.08410 0.08160 0.15650 -0.12300
C 	C 	0.46820 0.60570 0.76230 0.35600
C 	C 	0.32180 0.08160 0.99920 -0.03800
C 	C 	0.23870 0.60170 0.75960 -0.12100
C 	C 	0.00020 0.32880 0.42310 -0.10500
C 	C 	0.73110 0.42550 0.76210 0.05800
C 	C 	0.39240 0.86110 0.15190 0.34800
C 	C 	0.26780 0.69470 0.75790 0.05800
C 	C 	0.59830 0.59800 0.99900 -0.06400
C 	C 	0.73180 0.65120 0.30440 0.05900
C 	C 	0.46870 0.60760 0.15190 0.34400
C 	C 	0.24100 0.91580 0.00030 -0.06000
C 	C 	0.24010 0.91430 0.91920 -0.06100
C 	C 	0.60550 0.46510 0.76480 0.32400
C 	C 	0.99750 0.91590 0.15650 -0.04900
C 	C 	0.39880 0.63690 0.15830 -0.12700
C 	C 	0.60160 0.23850 0.15470 -0.12500
C 	C 	0.63690 0.39840 0.15470 -0.12800
C 	C 	0.30530 0.57310 0.75790 0.05700
C 	C 	0.36310 0.76190 0.15830 -0.13000
C 	C 	0.91580 0.91580 0.76200 -0.11300
C 	C 	0.91840 0.24020 0.99920 -0.04500
C 	C 	0.91940 0.26970 0.38050 0.01900
C 	C 	0.13890 0.53130 0.15190 0.34800
C 	C 	0.08350 0.08150 0.76250 -0.00100
C 	C 	0.39830 0.63700 0.75960 -0.11900
C 	C 	0.35030 0.08060 0.38050 0.01900
C 	C 	0.17280 0.99960 0.76390 0.16100
C 	C 	0.61580 0.69280 0.38110 -0.11400
C 	C 	0.82640 0.82650 0.15580 0.24600
C 	C 	0.39770 0.99920 0.91970 -0.25900
C 	C 	0.75970 0.36400 0.76380 -0.11600
C 	C 	0.06710 0.31430 0.54260 -0.24500
C 	C 	0.00010 0.17360 0.15580 0.14400
C 	C 	0.91840 0.00250 0.15650 -0.01600
C 	C 	0.93150 0.33730 0.54300 -0.21900
C 	C 	0.99800 0.91650 0.76250 0.00700
C 	C 	0.57450 0.30560 0.76210 0.05900
C 	C 	0.23810 0.60120 0.15830 -0.13000
C 	C 	0.06680 0.31420 0.61980 0.11100
C 	C 	0.60570 0.46630 0.15310 0.33400
C 	C 	0.08420 -0.00000 0.76200 -0.01600
C 	C 	0.68580 0.75260 0.61980 0.05800
C 	C 	0.17350 0.99990 0.15580 0.14300
C 	C 	0.24740 0.93320 0.61980 0.10900
C 	C 	0.40200 0.00030 0.99900 0.17700
C 	C 	0.67520 0.67470 0.50850 0.06000
C 	C 	0.07690 0.38280 0.30610 -0.01900
C 	C 	0.57490 0.30530 0.15540 0.06600
C 	C 	0.99960 0.08480 0.15690 0.07000
C 	C 	0.67420 0.75990 0.91920 -0.05800
C 	C 	0.53490 0.14040 0.76480 0.31900
C 	C 	0.53370 0.13940 0.15310 0.33200
C 	C 	0.36300 0.76130 0.75960 -0.12100
C 	C 	0.69470 0.26960 0.15540 0.06600
C 	C 	0.67120 0.67140 0.42310 0.04600
C 	C 	0.99950 0.32480 0.50850 0.22100
C 	C 	0.40580 0.06850 0.54300 -0.22000
C 	C 	0.00040 0.17320 0.76390 0.21700
C 	C 	0.86060 0.39430 0.15310 0.33200
C 	C 	0.34880 0.08060 0.30440 0.00800
C 	C 	0.32530 0.00050 0.50850 0.22100
C 	C 	0.75980 0.67820 0.99920 -0.06500
C 	C 	0.08420 0.32520 0.00030 -0.05900
C 	C 	0.30590 0.92310 0.30610 -0.02400
C 	C 	0.60150 0.60230 0.91970 -0.03900
C 	C 	0.66330 0.59970 0.61840 0.07500
C 	C 	0.13750 0.53180 0.76230 0.35600
C 	C 	0.08570 0.32580 0.91920 -0.06500
C 	C 	0.67480 0.75900 0.00030 -0.05900
C 	C 	0.91520 0.91480 0.15690 -0.05300
C 	C 	0.30720 0.92300 0.38110 -0.01400
C 	C 	0.91940 0.26820 0.30440 0.01100
C 	C 	0.91850 0.00200 0.76250 0.11100
C 	C 	0.61720 0.69410 0.30610 0.07400
C 	C 	0.99970 0.40170 0.99900 0.17200
C 	C 	0.00080 0.39850 0.91970 -0.25700
C 	C 	0.82680 0.82720 0.76390 0.25900
C 	C 	0.73030 0.64970 0.38050 -0.10100
C 	C 	0.68570 0.75280 0.54260 -0.11300
C 	C 	0.24720 0.93290 0.54260 -0.24900
C 	C 	0.32860 0.99980 0.42310 -0.11000
C 	C 	0.93640 0.33670 0.61840 0.16500
C 	C 	0.26800 0.69380 0.15850 0.06400
C 	C 	0.40030 0.06360 0.61840 0.16400
C 	C 	0.73040 0.42510 0.15540 0.06600
C 	C 	0.07700 0.38420 0.38110 -0.01500
C 	C 	0.91830 0.23970 0.91850 -0.03400
C 	C 	0.00000 0.08420 0.76200 -0.10800
C 	C 	0.08520 0.00040 0.15690 0.04600
C 	C 	0.85960 0.39450 0.76480 0.31900
C 	C 	0.32140 0.08170 0.91850 -0.03500
C 	C 	0.66270 0.59420 0.54300 -0.12100
C 	C 	0.69440 0.26890 0.76210 0.05700
C 	C 	0.63600 0.39570 0.76380 -0.11900
C 	C 	0.76150 0.36310 0.15470 -0.12500
C 	C 	0.42690 0.73220 0.75790 0.05700
C 	C 	0.60430 0.24030 0.76380 -0.11600
C 	C 	0.76030 0.67860 0.91850 -0.05600
C 	C 	0.42580 0.73200 0.15850 0.06400
C 	C 	0.39430 0.86250 0.76230 0.35600
N 	N 	0.67400 0.67380 0.26760 -0.20200
N 	N 	0.67760 0.67790 0.03370 -0.16800
N 	N 	0.32620 0.00020 0.26760 -0.15300
N 	N 	0.67430 0.67530 0.65640 -0.21500
N 	N 	0.67970 0.68070 0.88720 -0.16700
N 	N 	0.00100 0.32030 0.88720 -0.15700
N 	N 	0.00030 0.32240 0.03370 -0.21900
N 	N 	0.00100 0.32570 0.65640 -0.25900
N 	N 	0.99980 0.32600 0.26760 -0.15300
N 	N 	0.32470 0.99900 0.65640 -0.26000
N 	N 	0.31930 0.99900 0.88720 -0.15700
N 	N 	0.32210 0.99970 0.03370 -0.22100
O 	O 	0.08170 0.56260 0.16090 -0.24200
O 	O 	0.74890 0.82710 0.15470 -0.34800
O 	O 	0.92190 0.17200 0.76490 -0.30100
O 	O 	0.55090 0.66590 0.76890 -0.41000
O 	O 	0.74930 0.82860 0.76260 -0.34800
O 	O 	0.66610 0.55110 0.76990 -0.39300
O 	O 	0.33410 0.88500 0.76890 -0.41600
O 	O 	0.91920 0.48120 0.75990 -0.21000
O 	O 	0.33370 0.88550 0.14900 -0.41900
O 	O 	0.08240 0.56270 0.75680 -0.25600
O 	O 	0.43740 0.51910 0.16090 -0.22600
O 	O 	0.66570 0.55120 0.14740 -0.39600
O 	O 	0.48030 0.91760 0.75680 -0.25500
O 	O 	0.11450 0.44820 0.14900 -0.41700
O 	O 	0.48090 0.91830 0.16090 -0.24100
O 	O 	0.82610 0.74860 0.15540 -0.34200
O 	O 	0.88500 0.33390 0.76990 -0.37900
O 	O 	0.55180 0.66630 0.14900 -0.41100
O 	O 	0.92250 0.17390 0.15540 -0.29300
O 	O 	0.88550 0.33430 0.14740 -0.38300
O 	O 	0.11500 0.44910 0.76890 -0.41500
O 	O 	0.07930 0.25070 0.76260 -0.33300
O 	O 	0.43730 0.51970 0.75680 -0.23900
O 	O 	0.56200 0.08080 0.75990 -0.20900
O 	O 	0.17290 0.92180 0.15470 -0.33300
O 	O 	0.44880 0.11450 0.14740 -0.38400
O 	O 	0.56030 0.07860 0.15800 -0.20500
O 	O 	0.51830 0.43970 0.15800 -0.22400
O 	O 	0.44890 0.11500 0.76990 -0.38100
O 	O 	0.17140 0.92070 0.76260 -0.33200
O 	O 	0.51880 0.43800 0.75990 -0.22500
O 	O 	0.07820 0.25110 0.15470 -0.32200
O 	O 	0.25010 0.07810 0.76490 -0.29400
O 	O 	0.82800 0.74990 0.76490 -0.33800
O 	O 	0.92140 0.48170 0.15800 -0.20600
O 	O 	0.25140 0.07750 0.15540 -0.29700
