data_crystal

_cell_length_a 19.17860
_cell_length_b 19.17860
_cell_length_c 27.92600
_cell_angle_alpha 90.00000
_cell_angle_beta  90.00000
_cell_angle_gamma 120.00000

_symmetry_space_group_name_	'P 1'
_symmetry_space_group_name_H-M	'P 1'

loop_
_symmetry_equiv_pos_as_xyz
  x,y,z

loop_
_atom_site_label
_atom_site_type_symbol
_atom_site_fract_x
_atom_site_fract_y
_atom_site_fract_z
_atom_site_charge
C 	C 	0.29510 0.78180 0.68390 0.41800
C 	C 	0.28020 0.82650 0.64420 -0.15100
C 	C 	0.25180 0.90900 0.57130 0.06600
C 	C 	0.32800 0.93740 0.58950 -0.13600
H 	H 	0.37070 0.98460 0.57730 0.07600
C 	C 	0.20630 0.79790 0.62530 0.08000
H 	H 	0.16440 0.74920 0.63640 0.01700
C 	C 	0.19070 0.83800 0.59020 -0.14100
H 	H 	0.13840 0.81730 0.57890 0.07800
C 	C 	0.34210 0.89660 0.62600 0.07200
H 	H 	0.39390 0.91710 0.63810 0.01900
O 	O 	0.36590 0.81260 0.69829 -0.43200
O 	O 	0.23560 0.71960 0.69866 -0.43500
C 	C 	0.23660 0.95500 0.53420 0.03100
C 	C 	0.16430 0.95410 0.53310 -0.10000
H 	H 	0.12420 0.92240 0.55490 0.06500
C 	C 	0.21820 0.51330 0.68390 0.41900
C 	C 	0.17350 0.45370 0.64420 -0.15000
C 	C 	0.09100 0.34280 0.57130 0.06700
C 	C 	0.06260 0.39060 0.58950 -0.13500
H 	H 	0.01540 0.38610 0.57730 0.07700
C 	C 	0.20210 0.40840 0.62530 0.08000
H 	H 	0.25080 0.41520 0.63640 0.01700
C 	C 	0.16200 0.35270 0.59020 -0.14100
H 	H 	0.18270 0.32110 0.57890 0.07800
C 	C 	0.10340 0.44550 0.62600 0.07200
H 	H 	0.08290 0.47680 0.63810 0.01900
O 	O 	0.18740 0.55330 0.69829 -0.43200
O 	O 	0.28040 0.51600 0.69866 -0.43500
C 	C 	0.04500 0.28160 0.53420 0.03000
C 	C 	0.04590 0.21020 0.53310 -0.10100
H 	H 	0.07760 0.20180 0.55490 0.06500
C 	C 	0.48670 0.70490 0.68390 0.41900
C 	C 	0.54630 0.71980 0.64420 -0.15000
C 	C 	0.65720 0.74820 0.57130 0.06600
C 	C 	0.60940 0.67200 0.58950 -0.13500
H 	H 	0.61390 0.62930 0.57730 0.07700
C 	C 	0.59160 0.79370 0.62530 0.08000
H 	H 	0.58480 0.83560 0.63640 0.01700
C 	C 	0.64730 0.80930 0.59020 -0.14100
H 	H 	0.67890 0.86160 0.57890 0.07800
C 	C 	0.55450 0.65790 0.62600 0.07200
H 	H 	0.52320 0.60610 0.63810 0.01900
O 	O 	0.44670 0.63410 0.69829 -0.43200
O 	O 	0.48400 0.76440 0.69866 -0.43500
C 	C 	0.71840 0.76340 0.53420 0.03000
C 	C 	0.78980 0.83570 0.53310 -0.10100
H 	H 	0.79820 0.87580 0.55490 0.06500
C 	C 	0.29510 0.78180 0.81610 0.41900
C 	C 	0.28020 0.82650 0.85580 -0.15000
C 	C 	0.25180 0.90900 0.92870 0.06700
C 	C 	0.32800 0.93740 0.91050 -0.13500
H 	H 	0.37070 0.98460 0.92270 0.07800
C 	C 	0.20630 0.79790 0.87470 0.08000
H 	H 	0.16440 0.74920 0.86360 0.01700
C 	C 	0.19070 0.83800 0.90980 -0.14100
H 	H 	0.13840 0.81730 0.92110 0.07800
C 	C 	0.34210 0.89660 0.87400 0.07200
H 	H 	0.39390 0.91710 0.86190 0.01900
O 	O 	0.36590 0.81260 0.80171 -0.43200
O 	O 	0.23560 0.71960 0.80134 -0.43500
C 	C 	0.23660 0.95500 0.96580 0.03100
C 	C 	0.16430 0.95410 0.96690 -0.10000
H 	H 	0.12420 0.92240 0.94510 0.06500
C 	C 	0.21820 0.51330 0.81610 0.41900
C 	C 	0.17350 0.45370 0.85580 -0.15000
C 	C 	0.09100 0.34280 0.92870 0.06700
C 	C 	0.06260 0.39060 0.91050 -0.13500
H 	H 	0.01540 0.38610 0.92270 0.07700
C 	C 	0.20210 0.40840 0.87470 0.08000
H 	H 	0.25080 0.41520 0.86360 0.01700
C 	C 	0.16200 0.35270 0.90980 -0.14100
H 	H 	0.18270 0.32110 0.92110 0.07800
C 	C 	0.10340 0.44550 0.87400 0.07200
H 	H 	0.08290 0.47680 0.86190 0.01900
O 	O 	0.18740 0.55330 0.80171 -0.43200
O 	O 	0.28040 0.51600 0.80134 -0.43500
C 	C 	0.04500 0.28160 0.96580 0.03000
C 	C 	0.04590 0.21020 0.96690 -0.10100
H 	H 	0.07760 0.20180 0.94510 0.06500
C 	C 	0.48670 0.70490 0.81610 0.41900
C 	C 	0.54630 0.71980 0.85580 -0.15000
C 	C 	0.65720 0.74820 0.92870 0.06600
C 	C 	0.60940 0.67200 0.91050 -0.13500
H 	H 	0.61390 0.62930 0.92270 0.07700
C 	C 	0.59160 0.79370 0.87470 0.08000
H 	H 	0.58480 0.83560 0.86360 0.01700
C 	C 	0.64730 0.80930 0.90980 -0.14100
H 	H 	0.67890 0.86160 0.92110 0.07800
C 	C 	0.55450 0.65790 0.87400 0.07200
H 	H 	0.52320 0.60610 0.86190 0.01900
O 	O 	0.44670 0.63410 0.80171 -0.43200
O 	O 	0.48400 0.76440 0.80134 -0.43500
C 	C 	0.71840 0.76340 0.96580 0.03000
C 	C 	0.78980 0.83570 0.96690 -0.10100
H 	H 	0.79820 0.87580 0.94510 0.06500
C 	C 	0.78180 0.29510 0.31610 0.41900
C 	C 	0.82650 0.28020 0.35580 -0.15000
C 	C 	0.90900 0.25180 0.42870 0.06700
C 	C 	0.93740 0.32800 0.41050 -0.13500
H 	H 	0.98460 0.37070 0.42270 0.07700
C 	C 	0.79790 0.20630 0.37470 0.08000
H 	H 	0.74920 0.16440 0.36360 0.01700
C 	C 	0.83800 0.19070 0.40980 -0.14100
H 	H 	0.81730 0.13840 0.42110 0.07800
C 	C 	0.89660 0.34210 0.37400 0.07200
H 	H 	0.91710 0.39390 0.36190 0.01900
O 	O 	0.81260 0.36590 0.30171 -0.43200
O 	O 	0.71960 0.23560 0.30134 -0.43500
C 	C 	0.95500 0.23660 0.46580 0.03100
C 	C 	0.95410 0.16430 0.46690 -0.10000
H 	H 	0.92240 0.12420 0.44510 0.06500
C 	C 	0.51330 0.21820 0.31610 0.41900
C 	C 	0.45370 0.17350 0.35580 -0.15000
C 	C 	0.34280 0.09100 0.42870 0.06700
C 	C 	0.39060 0.06260 0.41050 -0.13500
H 	H 	0.38610 0.01540 0.42270 0.07700
C 	C 	0.40840 0.20210 0.37470 0.08000
H 	H 	0.41520 0.25080 0.36360 0.01700
C 	C 	0.35270 0.16200 0.40980 -0.14100
H 	H 	0.32110 0.18270 0.42110 0.07800
C 	C 	0.44550 0.10340 0.37400 0.07200
H 	H 	0.47680 0.08290 0.36190 0.01900
O 	O 	0.55330 0.18740 0.30171 -0.43200
O 	O 	0.51600 0.28040 0.30134 -0.43500
C 	C 	0.28160 0.04500 0.46580 0.03000
C 	C 	0.21020 0.04590 0.46690 -0.10100
H 	H 	0.20180 0.07760 0.44510 0.06500
C 	C 	0.70490 0.48670 0.31610 0.41900
C 	C 	0.71980 0.54630 0.35580 -0.15000
C 	C 	0.74820 0.65720 0.42870 0.06600
C 	C 	0.67200 0.60940 0.41050 -0.13500
H 	H 	0.62930 0.61390 0.42270 0.07700
C 	C 	0.79370 0.59160 0.37470 0.08000
H 	H 	0.83560 0.58480 0.36360 0.01700
C 	C 	0.80930 0.64730 0.40980 -0.14100
H 	H 	0.86160 0.67890 0.42110 0.07800
C 	C 	0.65790 0.55450 0.37400 0.07200
H 	H 	0.60610 0.52320 0.36190 0.01900
O 	O 	0.63410 0.44670 0.30171 -0.43200
O 	O 	0.76440 0.48400 0.30134 -0.43500
C 	C 	0.76340 0.71840 0.46580 0.03000
C 	C 	0.83570 0.78980 0.46690 -0.10100
H 	H 	0.87580 0.79820 0.44510 0.06500
C 	C 	0.78180 0.29510 0.18390 0.41900
C 	C 	0.82650 0.28020 0.14420 -0.15000
C 	C 	0.90900 0.25180 0.07130 0.06700
C 	C 	0.93740 0.32800 0.08950 -0.13500
H 	H 	0.98460 0.37070 0.07730 0.07700
C 	C 	0.79790 0.20630 0.12530 0.08000
H 	H 	0.74920 0.16440 0.13640 0.01700
C 	C 	0.83800 0.19070 0.09020 -0.14100
H 	H 	0.81730 0.13840 0.07890 0.07800
C 	C 	0.89660 0.34210 0.12600 0.07200
H 	H 	0.91710 0.39390 0.13810 0.01900
O 	O 	0.81260 0.36590 0.19829 -0.43200
O 	O 	0.71960 0.23560 0.19866 -0.43500
C 	C 	0.95500 0.23660 0.03420 0.03100
C 	C 	0.95410 0.16430 0.03310 -0.10000
H 	H 	0.92240 0.12420 0.05490 0.06500
C 	C 	0.51330 0.21820 0.18390 0.41900
C 	C 	0.45370 0.17350 0.14420 -0.15000
C 	C 	0.34280 0.09100 0.07130 0.06700
C 	C 	0.39060 0.06260 0.08950 -0.13500
H 	H 	0.38610 0.01540 0.07730 0.07700
C 	C 	0.40840 0.20210 0.12530 0.08000
H 	H 	0.41520 0.25080 0.13640 0.01700
C 	C 	0.35270 0.16200 0.09020 -0.14100
H 	H 	0.32110 0.18270 0.07890 0.07800
C 	C 	0.44550 0.10340 0.12600 0.07200
H 	H 	0.47680 0.08290 0.13810 0.01900
O 	O 	0.55330 0.18740 0.19829 -0.43200
O 	O 	0.51600 0.28040 0.19866 -0.43500
C 	C 	0.28160 0.04500 0.03420 0.03000
C 	C 	0.21020 0.04590 0.03310 -0.10100
H 	H 	0.20180 0.07760 0.05490 0.06500
C 	C 	0.70490 0.48670 0.18390 0.41900
C 	C 	0.71980 0.54630 0.14420 -0.15000
C 	C 	0.74820 0.65720 0.07130 0.06600
C 	C 	0.67200 0.60940 0.08950 -0.13500
H 	H 	0.62930 0.61390 0.07730 0.07700
C 	C 	0.79370 0.59160 0.12530 0.08000
H 	H 	0.83560 0.58480 0.13640 0.01700
C 	C 	0.80930 0.64730 0.09020 -0.14100
H 	H 	0.86160 0.67890 0.07890 0.07800
C 	C 	0.65790 0.55450 0.12600 0.07200
H 	H 	0.60610 0.52320 0.13810 0.01900
O 	O 	0.63410 0.44670 0.19829 -0.43200
O 	O 	0.76440 0.48400 0.19866 -0.43500
C 	C 	0.76340 0.71840 0.03420 0.03000
C 	C 	0.83570 0.78980 0.03310 -0.10100
H 	H 	0.87580 0.79820 0.05490 0.06500
Ni	Ni	0.41929 0.78102 0.75000 1.12800
Ni	Ni	0.21898 0.63827 0.75000 1.12800
Ni	Ni	0.36173 0.58071 0.75000 1.12800
Ni	Ni	0.78102 0.41929 0.25000 1.12800
Ni	Ni	0.63827 0.21898 0.25000 1.12800
Ni	Ni	0.58071 0.36173 0.25000 1.12800
O 	O 	0.33333 0.66667 0.75000 -0.56900
O 	O 	0.66667 0.33333 0.25000 -0.56900
C 	C 	0.07080 0.00000 0.50000 0.06700
C 	C 	0.15060 0.00000 0.50000 0.03000
C 	C 	0.29320 0.00000 0.50000 -0.10000
H 	H 	0.34170 0.00000 0.50000 0.06400
C 	C 	-0.00000 0.07080 0.50000 0.06700
C 	C 	-0.00000 0.15060 0.50000 0.03000
C 	C 	0.00000 0.29320 0.50000 -0.10000
H 	H 	-0.00000 0.34170 0.50000 0.06400
C 	C 	0.92920 0.92920 0.50000 0.06600
C 	C 	0.84940 0.84940 0.50000 0.03100
C 	C 	0.70680 0.70680 0.50000 -0.09900
H 	H 	0.65830 0.65830 0.50000 0.06400
C 	C 	0.07080 0.00000 -0.00000 0.06700
C 	C 	0.15060 0.00000 -0.00000 0.03000
C 	C 	0.29320 0.00000 -0.00000 -0.10000
H 	H 	0.34170 0.00000 -0.00000 0.06400
C 	C 	-0.00000 0.07080 -0.00000 0.06700
C 	C 	-0.00000 0.15060 -0.00000 0.03000
C 	C 	-0.00000 0.29320 -0.00000 -0.10000
H 	H 	-0.00000 0.34170 -0.00000 0.06400
C 	C 	0.92920 0.92920 -0.00000 0.06600
C 	C 	0.84940 0.84940 -0.00000 0.03100
C 	C 	0.70680 0.70680 -0.00000 -0.09900
H 	H 	0.65830 0.65830 -0.00000 0.06400
C 	C 	-0.00000 0.92760 0.50000 -0.13800
H 	H 	-0.00000 0.87910 0.50000 0.07900
C 	C 	0.07240 0.07240 0.50000 -0.14000
H 	H 	0.12090 0.12090 0.50000 0.07900
C 	C 	0.92760 0.00000 0.50000 -0.13800
H 	H 	0.87910 0.00000 0.50000 0.07900
C 	C 	-0.00000 0.92760 -0.00000 -0.13800
H 	H 	-0.00000 0.87910 -0.00000 0.07900
C 	C 	0.07240 0.07240 -0.00000 -0.14000
H 	H 	0.12090 0.12090 -0.00000 0.07900
C 	C 	0.92760 0.00000 -0.00000 -0.13800
H 	H 	0.87910 0.00000 -0.00000 0.07900
