data_crystal

_cell_length_a 7.87190
_cell_length_b 7.96570
_cell_length_c 10.47540
_cell_angle_alpha 70.16350
_cell_angle_beta  67.93040
_cell_angle_gamma 60.38870

_symmetry_space_group_name_	'P 1'
_symmetry_space_group_name_H-M	'P 1'

loop_
_symmetry_equiv_pos_as_xyz
  x,y,z

loop_
_atom_site_label
_atom_site_type_symbol
_atom_site_fract_x
_atom_site_fract_y
_atom_site_fract_z
_atom_site_charge
Th	Th	0.23758 0.25000 0.75000 0.04100
Th	Th	0.76242 0.75000 0.25000 0.04100
C 	C 	0.07500 0.42070 0.04370 0.22800
C 	C 	0.10130 0.91690 0.01210 0.22800
C 	C 	0.53940 0.07930 0.45630 0.23000
C 	C 	0.03030 0.58310 0.48790 0.23000
C 	C 	0.92500 0.57930 0.95630 0.22800
C 	C 	0.89870 0.08310 0.98790 0.22800
C 	C 	0.46060 0.92070 0.54370 0.23000
C 	C 	0.96970 0.41690 0.51210 0.23000
O 	O 	0.25690 0.93860 0.93820 -0.11400
O 	O 	0.22046 0.28388 0.98420 -0.11800
O 	O 	0.08901 0.77178 0.10600 -0.12300
O 	O 	0.04067 0.44186 0.16440 -0.12200
O 	O 	0.13370 0.56140 0.56180 -0.11600
O 	O 	0.48854 0.21612 0.51580 -0.12000
O 	O 	0.96679 0.72822 0.39400 -0.12200
O 	O 	0.64693 0.05814 0.33560 -0.12200
O 	O 	0.74310 0.06140 0.06180 -0.11400
O 	O 	0.77954 0.71612 0.01580 -0.11800
O 	O 	0.91099 0.22822 0.89400 -0.12300
O 	O 	0.95933 0.55814 0.83560 -0.12200
O 	O 	0.86630 0.43860 0.43820 -0.11600
O 	O 	0.51146 0.78388 0.48420 -0.12000
O 	O 	0.03321 0.27178 0.60600 -0.12200
O 	O 	0.35307 0.94186 0.66440 -0.12200
