data_crystal

_cell_length_a 10.80010
_cell_length_b 11.62880
_cell_length_c 25.31830
_cell_angle_alpha 89.09400
_cell_angle_beta  87.42500
_cell_angle_gamma 78.44000

_symmetry_space_group_name_	'P 1'
_symmetry_space_group_name_H-M	'P 1'

loop_
_symmetry_equiv_pos_as_xyz
  x,y,z

loop_
_atom_site_label
_atom_site_type_symbol
_atom_site_fract_x
_atom_site_fract_y
_atom_site_fract_z
_atom_site_charge
Ag	Ag	0.74095 0.06095 0.00639 0.38800
Ag	Ag	0.49776 0.05057 0.10954 0.35000
Ag	Ag	0.48760 0.02851 0.01078 0.18900
Ag	Ag	0.52754 0.19291 0.93139 0.39300
Ag	Ag	0.58117 0.28413 0.03260 0.39900
Ag	Ag	0.62310 0.42934 0.93438 0.46800
Ag	Ag	0.59421 0.42486 0.57389 0.53800
Ag	Ag	0.50041 0.19189 0.56557 0.40200
Ag	Ag	0.59570 0.29161 0.47084 0.46000
Ag	Ag	0.73828 0.06418 0.49852 0.40500
Ag	Ag	0.48082 0.04717 0.47810 0.24700
Ag	Ag	0.47822 0.93093 0.57658 0.26800
Ag	Ag	0.44760 0.95390 0.63393 0.33400
Ag	Ag	0.02278 0.33082 0.74956 0.52400
C 	C 	0.93250 0.28560 0.86210 0.06700
H 	H 	0.85720 0.32010 0.84680 -0.04400
C 	C 	0.92640 0.24370 0.91350 -0.10600
C 	C 	0.03660 0.19080 0.93670 0.04600
H 	H 	0.03560 0.16340 0.97140 -0.01500
C 	C 	0.15040 0.17940 0.90640 -0.11600
C 	C 	0.14770 0.22630 0.85570 0.09100
H 	H 	0.22380 0.22080 0.83630 -0.02600
C 	C 	0.80480 0.25100 0.94090 0.07500
C 	C 	0.70530 0.24120 0.96350 -0.45200
C 	C 	0.73010 0.87800 0.07230 0.09500
C 	C 	0.62900 0.92560 0.05720 -0.51400
C 	C 	0.12390 0.22050 0.64200 0.10300
H 	H 	0.19960 0.21480 0.65890 -0.04100
C 	C 	0.12740 0.17490 0.59190 -0.11200
C 	C 	0.01470 0.18470 0.56640 0.06500
H 	H 	0.01410 0.15710 0.53210 0.01400
C 	C 	0.90260 0.23690 0.59320 -0.08100
C 	C 	0.90790 0.27980 0.64340 0.09700
H 	H 	0.83300 0.31510 0.66110 -0.01500
C 	C 	0.78420 0.24340 0.56880 0.11300
C 	C 	0.68800 0.23930 0.54570 -0.44700
C 	C 	0.24710 0.11680 0.56890 0.12000
C 	C 	0.35320 0.06850 0.55380 -0.54400
C 	C 	0.30820 0.45130 0.56470 0.11600
C 	C 	0.16910 0.51580 0.56600 0.97000
C 	C 	0.66260 0.54830 0.07550 0.07200
C 	C 	0.79710 0.48500 0.08040 0.92200
C 	C 	0.33370 0.30370 0.42070 0.10600
C 	C 	0.20280 0.37030 0.40460 0.95400
F 	F 	0.13860 0.54260 0.61650 -0.47500
F 	F 	0.09130 0.45350 0.55940 -0.46100
F 	F 	0.14500 0.61150 0.54260 -0.53100
F 	F 	0.87810 0.54610 0.07220 -0.53500
F 	F 	0.83220 0.38910 0.05590 -0.57400
F 	F 	0.81770 0.45580 0.13170 -0.50900
F 	F 	0.20240 0.36900 0.35330 -0.53400
F 	F 	0.11180 0.32240 0.42090 -0.46500
F 	F 	0.17720 0.47550 0.41820 -0.51400
N 	N 	0.04020 0.27940 0.83320 -0.19000
N 	N 	0.01720 0.27240 0.66730 -0.18600
O 	O 	0.32480 0.34990 0.57550 -0.26800
O 	O 	0.38880 0.50950 0.55290 -0.32600
O 	O 	0.59210 0.49020 0.05610 -0.36100
O 	O 	0.36370 0.35120 0.90790 -0.27600
O 	O 	0.34280 0.19490 0.42250 -0.34600
O 	O 	0.58930 0.63640 0.56890 -0.32600
Ag	Ag	0.25905 0.93905 0.99361 0.38700
Ag	Ag	0.50224 0.94943 0.89046 0.34900
Ag	Ag	0.51240 0.97149 0.98922 0.18900
Ag	Ag	0.47246 0.80709 0.06861 0.39300
Ag	Ag	0.41883 0.71587 0.96740 0.39900
Ag	Ag	0.37690 0.57066 0.06562 0.46800
Ag	Ag	0.40579 0.57514 0.42611 0.53800
Ag	Ag	0.49959 0.80811 0.43443 0.40200
Ag	Ag	0.40430 0.70839 0.52916 0.46000
Ag	Ag	0.26172 0.93582 0.50148 0.40500
Ag	Ag	0.51918 0.95283 0.52190 0.24700
Ag	Ag	0.52178 0.06907 0.42342 0.26800
Ag	Ag	0.55240 0.04610 0.36607 0.33400
Ag	Ag	0.97722 0.66918 0.25044 0.52400
C 	C 	0.06750 0.71440 0.13790 0.06700
H 	H 	0.14280 0.67990 0.15320 -0.04400
C 	C 	0.07360 0.75630 0.08650 -0.10600
C 	C 	0.96340 0.80920 0.06330 0.04600
H 	H 	0.96440 0.83660 0.02860 -0.01500
C 	C 	0.84960 0.82060 0.09360 -0.11600
C 	C 	0.85230 0.77370 0.14430 0.09100
H 	H 	0.77620 0.77920 0.16370 -0.02600
C 	C 	0.19520 0.74900 0.05910 0.07500
C 	C 	0.29470 0.75880 0.03650 -0.45200
C 	C 	0.26990 0.12200 0.92770 0.09500
C 	C 	0.37100 0.07440 0.94280 -0.51400
C 	C 	0.87610 0.77950 0.35800 0.10300
H 	H 	0.80040 0.78520 0.34110 -0.04100
C 	C 	0.87260 0.82510 0.40810 -0.11200
C 	C 	0.98530 0.81530 0.43360 0.06500
H 	H 	0.98590 0.84290 0.46790 0.01400
C 	C 	0.09740 0.76310 0.40680 -0.08100
C 	C 	0.09210 0.72020 0.35660 0.09700
H 	H 	0.16700 0.68490 0.33890 -0.01500
C 	C 	0.21580 0.75660 0.43120 0.11300
C 	C 	0.31200 0.76070 0.45430 -0.44700
C 	C 	0.75290 0.88320 0.43110 0.12000
C 	C 	0.64680 0.93150 0.44620 -0.54400
C 	C 	0.69180 0.54870 0.43530 0.11600
C 	C 	0.83090 0.48420 0.43400 0.97000
C 	C 	0.33740 0.45170 0.92450 0.07200
C 	C 	0.20290 0.51500 0.91960 0.92200
C 	C 	0.66630 0.69630 0.57930 0.10600
C 	C 	0.79720 0.62970 0.59540 0.95400
F 	F 	0.86140 0.45740 0.38350 -0.47500
F 	F 	0.90870 0.54650 0.44060 -0.46100
F 	F 	0.85500 0.38850 0.45740 -0.53100
F 	F 	0.12190 0.45390 0.92780 -0.53500
F 	F 	0.16780 0.61090 0.94410 -0.57400
F 	F 	0.18230 0.54420 0.86830 -0.50900
F 	F 	0.79760 0.63100 0.64670 -0.53400
F 	F 	0.88820 0.67760 0.57910 -0.46500
F 	F 	0.82280 0.52450 0.58180 -0.51400
N 	N 	0.95980 0.72060 0.16680 -0.19000
N 	N 	0.98280 0.72760 0.33270 -0.18600
O 	O 	0.67520 0.65010 0.42450 -0.26800
O 	O 	0.61120 0.49050 0.44710 -0.32600
O 	O 	0.40790 0.50980 0.94390 -0.36100
O 	O 	0.63630 0.64880 0.09210 -0.27600
O 	O 	0.65720 0.80510 0.57750 -0.34600
O 	O 	0.41070 0.36360 0.43110 -0.32600
