data_crystal

_cell_length_a 16.59260
_cell_length_b 11.91980
_cell_length_c 27.80840
_cell_angle_alpha 90.00000
_cell_angle_beta  90.55800
_cell_angle_gamma 90.00000

_symmetry_space_group_name_	'P 1'
_symmetry_space_group_name_H-M	'P 1'

loop_
_symmetry_equiv_pos_as_xyz
  x,y,z

loop_
_atom_site_label
_atom_site_type_symbol
_atom_site_fract_x
_atom_site_fract_y
_atom_site_fract_z
_atom_site_charge
N 	N 	0.43530 0.05020 0.78572 -0.22200
N 	N 	0.54410 0.67180 0.96950 -0.14300
N 	N 	0.56040 0.70750 0.21446 -0.22000
C 	C 	0.47150 0.97260 0.81382 0.01500
H 	H 	0.52870 0.97100 0.81540 0.00700
C 	C 	0.35420 0.05390 0.78460 0.04100
H 	H 	0.32850 0.10980 0.76550 -0.00800
C 	C 	0.30650 0.97910 0.81030 -0.07900
H 	H 	0.24940 0.98340 0.80850 0.05000
C 	C 	0.34410 0.89790 0.83860 -0.02500
H 	H 	0.31320 0.84560 0.85640 0.03600
C 	C 	0.42860 0.89490 0.84050 -0.01600
C 	C 	0.47010 0.81300 0.86950 0.01200
C 	C 	0.50380 0.74490 0.89380 -0.05400
C 	C 	0.54500 0.66070 0.92190 0.12300
C 	C 	0.58480 0.57330 0.89830 -0.15800
H 	H 	0.58360 0.56830 0.86420 0.08400
C 	C 	0.62520 0.49560 0.92510 0.07900
H 	H 	0.65390 0.43650 0.91000 0.00100
C 	C 	0.62390 0.50430 0.97550 -0.15800
H 	H 	0.64980 0.45000 0.99530 0.09000
C 	C 	0.58400 0.59340 0.99500 0.12700
C 	C 	0.58230 0.60560 0.04700 -0.05000
C 	C 	0.58490 0.60950 0.08960 0.01500
C 	C 	0.58910 0.61270 0.14170 -0.01800
C 	C 	0.62710 0.52590 0.16700 -0.02200
H 	H 	0.64920 0.46320 0.15060 0.03900
C 	C 	0.63160 0.53420 0.21630 -0.08200
H 	H 	0.65800 0.47740 0.23460 0.05300
C 	C 	0.59780 0.62490 0.23920 0.04300
H 	H 	0.60090 0.62940 0.27320 -0.00700
C 	C 	0.55700 0.70040 0.16681 0.02000
H 	H 	0.53100 0.75900 0.14940 0.00600
N 	N 	0.56470 0.05020 0.71428 -0.22100
N 	N 	0.45590 0.67180 0.53050 -0.14300
N 	N 	0.43960 0.70750 0.28554 -0.22000
C 	C 	0.52850 0.97260 0.68618 0.01500
H 	H 	0.47130 0.97100 0.68460 0.00700
C 	C 	0.64580 0.05390 0.71540 0.04100
H 	H 	0.67150 0.10980 0.73450 -0.00700
C 	C 	0.69350 0.97910 0.68970 -0.07900
H 	H 	0.75060 0.98340 0.69150 0.05200
C 	C 	0.65590 0.89790 0.66140 -0.02500
H 	H 	0.68680 0.84560 0.64360 0.03800
C 	C 	0.57140 0.89490 0.65950 -0.01500
C 	C 	0.52990 0.81300 0.63050 0.01200
C 	C 	0.49620 0.74490 0.60620 -0.05400
C 	C 	0.45500 0.66070 0.57810 0.12300
C 	C 	0.41520 0.57330 0.60170 -0.15900
H 	H 	0.41640 0.56830 0.63580 0.08400
C 	C 	0.37480 0.49560 0.57490 0.07800
H 	H 	0.34610 0.43650 0.59000 0.00000
C 	C 	0.37610 0.50430 0.52450 -0.15800
H 	H 	0.35020 0.45000 0.50470 0.08800
C 	C 	0.41600 0.59340 0.50500 0.12600
C 	C 	0.41770 0.60560 0.45300 -0.05000
C 	C 	0.41510 0.60950 0.41040 0.01400
C 	C 	0.41090 0.61270 0.35830 -0.01900
C 	C 	0.37290 0.52590 0.33300 -0.02200
H 	H 	0.35080 0.46320 0.34940 0.03700
C 	C 	0.36840 0.53420 0.28370 -0.08300
H 	H 	0.34200 0.47740 0.26540 0.05200
C 	C 	0.40220 0.62490 0.26080 0.04300
H 	H 	0.39910 0.62940 0.22680 -0.00700
C 	C 	0.44300 0.70040 0.33319 0.02000
H 	H 	0.46900 0.75900 0.35060 0.00600
N 	N 	0.56470 0.94980 0.21428 -0.22100
N 	N 	0.45590 0.32820 0.03050 -0.14300
N 	N 	0.43960 0.29250 0.78554 -0.22000
C 	C 	0.52850 0.02740 0.18618 0.01500
H 	H 	0.47130 0.02900 0.18460 0.00700
C 	C 	0.64580 0.94610 0.21540 0.04100
H 	H 	0.67150 0.89020 0.23450 -0.00700
C 	C 	0.69350 0.02090 0.18970 -0.07900
H 	H 	0.75060 0.01660 0.19150 0.05200
C 	C 	0.65590 0.10210 0.16140 -0.02500
H 	H 	0.68680 0.15440 0.14360 0.03800
C 	C 	0.57140 0.10510 0.15950 -0.01500
C 	C 	0.52990 0.18700 0.13050 0.01200
C 	C 	0.49620 0.25510 0.10620 -0.05400
C 	C 	0.45500 0.33930 0.07810 0.12300
C 	C 	0.41520 0.42670 0.10170 -0.15800
H 	H 	0.41640 0.43170 0.13580 0.08400
C 	C 	0.37480 0.50440 0.07490 0.07800
H 	H 	0.34610 0.56350 0.09000 0.00000
C 	C 	0.37610 0.49570 0.02450 -0.15800
H 	H 	0.35020 0.55000 0.00470 0.08700
C 	C 	0.41600 0.40660 0.00500 0.12600
C 	C 	0.41770 0.39440 0.95300 -0.05000
C 	C 	0.41510 0.39050 0.91040 0.01400
C 	C 	0.41090 0.38730 0.85830 -0.01900
C 	C 	0.37290 0.47410 0.83300 -0.02200
H 	H 	0.35080 0.53680 0.84940 0.03700
C 	C 	0.36840 0.46580 0.78370 -0.08300
H 	H 	0.34200 0.52260 0.76540 0.05200
C 	C 	0.40220 0.37510 0.76080 0.04300
H 	H 	0.39910 0.37060 0.72680 -0.00700
C 	C 	0.44300 0.29960 0.83319 0.02000
H 	H 	0.46900 0.24100 0.85060 0.00600
N 	N 	0.43530 0.94980 0.28572 -0.22100
N 	N 	0.54410 0.32820 0.46950 -0.14300
N 	N 	0.56040 0.29250 0.71446 -0.22000
C 	C 	0.47150 0.02740 0.31382 0.01500
H 	H 	0.52870 0.02900 0.31540 0.00700
C 	C 	0.35420 0.94610 0.28460 0.04100
H 	H 	0.32850 0.89020 0.26550 -0.00800
C 	C 	0.30650 0.02090 0.31030 -0.07900
H 	H 	0.24940 0.01660 0.30850 0.05000
C 	C 	0.34410 0.10210 0.33860 -0.02500
H 	H 	0.31320 0.15440 0.35640 0.03600
C 	C 	0.42860 0.10510 0.34050 -0.01600
C 	C 	0.47010 0.18700 0.36950 0.01200
C 	C 	0.50380 0.25510 0.39380 -0.05400
C 	C 	0.54500 0.33930 0.42190 0.12300
C 	C 	0.58480 0.42670 0.39830 -0.15800
H 	H 	0.58360 0.43170 0.36420 0.08400
C 	C 	0.62520 0.50440 0.42510 0.07900
H 	H 	0.65390 0.56350 0.41000 0.00100
C 	C 	0.62390 0.49570 0.47550 -0.15800
H 	H 	0.64980 0.55000 0.49530 0.09000
C 	C 	0.58400 0.40660 0.49500 0.12700
C 	C 	0.58230 0.39440 0.54700 -0.04900
C 	C 	0.58490 0.39050 0.58960 0.01500
C 	C 	0.58910 0.38730 0.64170 -0.01800
C 	C 	0.62710 0.47410 0.66700 -0.02200
H 	H 	0.64920 0.53680 0.65060 0.03900
C 	C 	0.63160 0.46580 0.71630 -0.08200
H 	H 	0.65800 0.52260 0.73460 0.05300
C 	C 	0.59780 0.37510 0.73920 0.04300
H 	H 	0.60090 0.37060 0.77320 -0.00700
C 	C 	0.55700 0.29960 0.66681 0.02000
H 	H 	0.53100 0.24100 0.64940 0.00600
Cu	Cu	0.50000 0.16823 0.75000 0.84800
Cu	Cu	0.50000 0.83177 0.25000 0.84800
N 	N 	0.93530 0.55020 0.78572 -0.22800
N 	N 	0.04410 0.17180 0.96950 -0.15200
N 	N 	0.06040 0.20750 0.21446 -0.22400
C 	C 	0.97150 0.47260 0.81382 0.08800
H 	H 	0.02870 0.47100 0.81540 -0.03600
C 	C 	0.85420 0.55390 0.78460 0.05400
H 	H 	0.82850 0.60980 0.76550 -0.00900
C 	C 	0.80650 0.47910 0.81030 -0.10000
H 	H 	0.74940 0.48340 0.80850 0.05800
C 	C 	0.84410 0.39790 0.83860 0.00900
H 	H 	0.81320 0.34560 0.85640 0.02700
C 	C 	0.92860 0.39490 0.84050 -0.06800
C 	C 	0.97010 0.31300 0.86950 0.09000
C 	C 	0.00380 0.24490 0.89380 -0.12600
C 	C 	0.04500 0.16070 0.92190 0.14600
C 	C 	0.08480 0.07330 0.89830 -0.17800
H 	H 	0.08360 0.06830 0.86420 0.08600
C 	C 	0.12520 0.99560 0.92510 0.08500
H 	H 	0.15390 0.93650 0.91000 -0.00500
C 	C 	0.12390 0.00430 0.97550 -0.16600
H 	H 	0.14980 0.95000 0.99530 0.08800
C 	C 	0.08400 0.09340 0.99500 0.12600
C 	C 	0.08230 0.10560 0.04700 -0.05700
C 	C 	0.08490 0.10950 0.08960 0.01100
C 	C 	0.08910 0.11270 0.14170 -0.02300
C 	C 	0.12710 0.02590 0.16700 -0.02300
H 	H 	0.14920 0.96320 0.15060 0.03500
C 	C 	0.13160 0.03420 0.21630 -0.08500
H 	H 	0.15800 0.97740 0.23460 0.05100
C 	C 	0.09780 0.12490 0.23920 0.04000
H 	H 	0.10090 0.12940 0.27320 -0.01100
C 	C 	0.05700 0.20040 0.16681 0.01800
H 	H 	0.03100 0.25900 0.14940 0.00100
N 	N 	0.06470 0.55020 0.71428 -0.21000
N 	N 	0.95590 0.17180 0.53050 -0.13400
N 	N 	0.93960 0.20750 0.28554 -0.21300
C 	C 	0.02850 0.47260 0.68618 -0.05800
H 	H 	0.97130 0.47100 0.68460 0.05100
C 	C 	0.14580 0.55390 0.71540 0.02800
H 	H 	0.17150 0.60980 0.73450 -0.00400
C 	C 	0.19350 0.47910 0.68970 -0.05900
H 	H 	0.25060 0.48340 0.69150 0.04400
C 	C 	0.15590 0.39790 0.66140 -0.05900
H 	H 	0.18680 0.34560 0.64360 0.04800
C 	C 	0.07140 0.39490 0.65950 0.03700
C 	C 	0.02990 0.31300 0.63050 -0.06700
C 	C 	0.99620 0.24490 0.60620 0.01800
C 	C 	0.95500 0.16070 0.57810 0.10000
C 	C 	0.91520 0.07330 0.60170 -0.13900
H 	H 	0.91640 0.06830 0.63580 0.08200
C 	C 	0.87480 0.99560 0.57490 0.07100
H 	H 	0.84610 0.93650 0.59000 0.00600
C 	C 	0.87610 0.00430 0.52450 -0.15000
H 	H 	0.85020 0.95000 0.50470 0.08900
C 	C 	0.91600 0.09340 0.50500 0.12700
C 	C 	0.91770 0.10560 0.45300 -0.04300
C 	C 	0.91510 0.10950 0.41040 0.01900
C 	C 	0.91090 0.11270 0.35830 -0.01400
C 	C 	0.87290 0.02590 0.33300 -0.02100
H 	H 	0.85080 0.96320 0.34940 0.04000
C 	C 	0.86840 0.03420 0.28370 -0.08000
H 	H 	0.84200 0.97740 0.26540 0.05300
C 	C 	0.90220 0.12490 0.26080 0.04600
H 	H 	0.89910 0.12940 0.22680 -0.00200
C 	C 	0.94300 0.20040 0.33319 0.02200
H 	H 	0.96900 0.25900 0.35060 0.01200
N 	N 	0.06470 0.44980 0.21428 -0.21000
N 	N 	0.95590 0.82820 0.03050 -0.13400
N 	N 	0.93960 0.79250 0.78554 -0.21300
C 	C 	0.02850 0.52740 0.18618 -0.05800
H 	H 	0.97130 0.52900 0.18460 0.05100
C 	C 	0.14580 0.44610 0.21540 0.02800
H 	H 	0.17150 0.39020 0.23450 -0.00400
C 	C 	0.19350 0.52090 0.18970 -0.05900
H 	H 	0.25060 0.51660 0.19150 0.04400
C 	C 	0.15590 0.60210 0.16140 -0.05900
H 	H 	0.18680 0.65440 0.14360 0.04700
C 	C 	0.07140 0.60510 0.15950 0.03700
C 	C 	0.02990 0.68700 0.13050 -0.06600
C 	C 	0.99620 0.75510 0.10620 0.01700
C 	C 	0.95500 0.83930 0.07810 0.10000
C 	C 	0.91520 0.92670 0.10170 -0.13900
H 	H 	0.91640 0.93170 0.13580 0.08200
C 	C 	0.87480 0.00440 0.07490 0.07100
H 	H 	0.84610 0.06350 0.09000 0.00600
C 	C 	0.87610 0.99570 0.02450 -0.14900
H 	H 	0.85020 0.05000 0.00470 0.08900
C 	C 	0.91600 0.90660 0.00500 0.12700
C 	C 	0.91770 0.89440 0.95300 -0.04300
C 	C 	0.91510 0.89050 0.91040 0.01900
C 	C 	0.91090 0.88730 0.85830 -0.01400
C 	C 	0.87290 0.97410 0.83300 -0.02100
H 	H 	0.85080 0.03680 0.84940 0.04000
C 	C 	0.86840 0.96580 0.78370 -0.08000
H 	H 	0.84200 0.02260 0.76540 0.05300
C 	C 	0.90220 0.87510 0.76080 0.04600
H 	H 	0.89910 0.87060 0.72680 -0.00200
C 	C 	0.94300 0.79960 0.83319 0.02200
H 	H 	0.96900 0.74100 0.85060 0.01200
N 	N 	0.93530 0.44980 0.28572 -0.22800
N 	N 	0.04410 0.82820 0.46950 -0.15200
N 	N 	0.06040 0.79250 0.71446 -0.22400
C 	C 	0.97150 0.52740 0.31382 0.08800
H 	H 	0.02870 0.52900 0.31540 -0.03600
C 	C 	0.85420 0.44610 0.28460 0.05400
H 	H 	0.82850 0.39020 0.26550 -0.00900
C 	C 	0.80650 0.52090 0.31030 -0.10000
H 	H 	0.74940 0.51660 0.30850 0.05800
C 	C 	0.84410 0.60210 0.33860 0.00900
H 	H 	0.81320 0.65440 0.35640 0.02700
C 	C 	0.92860 0.60510 0.34050 -0.06800
C 	C 	0.97010 0.68700 0.36950 0.09000
C 	C 	0.00380 0.75510 0.39380 -0.12600
C 	C 	0.04500 0.83930 0.42190 0.14600
C 	C 	0.08480 0.92670 0.39830 -0.17800
H 	H 	0.08360 0.93170 0.36420 0.08600
C 	C 	0.12520 0.00440 0.42510 0.08600
H 	H 	0.15390 0.06350 0.41000 -0.00500
C 	C 	0.12390 0.99570 0.47550 -0.16700
H 	H 	0.14980 0.05000 0.49530 0.08800
C 	C 	0.08400 0.90660 0.49500 0.12600
C 	C 	0.08230 0.89440 0.54700 -0.05700
C 	C 	0.08490 0.89050 0.58960 0.01100
C 	C 	0.08910 0.88730 0.64170 -0.02300
C 	C 	0.12710 0.97410 0.66700 -0.02300
H 	H 	0.14920 0.03680 0.65060 0.03500
C 	C 	0.13160 0.96580 0.71630 -0.08500
H 	H 	0.15800 0.02260 0.73460 0.05100
C 	C 	0.09780 0.87510 0.73920 0.04000
H 	H 	0.10090 0.87060 0.77320 -0.01100
C 	C 	0.05700 0.79960 0.66681 0.01800
H 	H 	0.03100 0.74100 0.64940 0.00100
Cu	Cu	0.00000 0.66823 0.75000 0.83600
Cu	Cu	-0.00000 0.33177 0.25000 0.83600
