data_crystal

_cell_length_a 34.62200
_cell_length_b 10.43200
_cell_length_c 18.03200
_cell_angle_alpha 90.00000
_cell_angle_beta  100.95000
_cell_angle_gamma 90.00000

_symmetry_space_group_name_	'P 1'
_symmetry_space_group_name_H-M	'P 1'

loop_
_symmetry_equiv_pos_as_xyz
  x,y,z

loop_
_atom_site_label
_atom_site_type_symbol
_atom_site_fract_x
_atom_site_fract_y
_atom_site_fract_z
_atom_site_charge
Cd	Cd	0.14854 0.32777 0.46249 1.23600
O 	O 	0.15555 0.20590 0.56380 -0.46400
O 	O 	0.21347 0.12310 0.55390 -0.46500
O 	O 	0.14966 0.80800 0.86920 -0.43800
O 	O 	0.21320 0.77160 0.88380 -0.43600
O 	O 	0.17244 0.52080 0.41820 -0.37800
O 	O 	0.20975 0.42730 0.51610 -0.48700
C 	C 	0.18393 0.05410 0.65520 -0.37900
C 	C 	0.15240 0.05920 0.69220 0.91300
C 	C 	0.15320 0.98410 0.75560 -0.43500
H 	H 	0.13130 0.98740 0.78100 0.19300
C 	C 	0.18326 0.90340 0.78260 -0.12500
C 	C 	0.21550 0.90090 0.74560 0.54600
C 	C 	0.21488 0.97410 0.68240 -0.16100
H 	H 	0.23650 0.96860 0.65610 0.10600
C 	C 	0.18400 0.13360 0.58590 0.48300
C 	C 	0.18240 0.82350 0.85100 0.39800
C 	C 	0.22701 0.63960 0.48300 -0.22400
C 	C 	0.22117 0.74480 0.43420 0.68500
H 	H 	0.20170 0.74100 0.38860 -0.92900
C 	C 	0.25681 0.64750 0.54910 -0.30000
H 	H 	0.26110 0.57550 0.58280 0.14900
C 	C 	0.20192 0.52120 0.47090 0.38100
C 	C 	0.03680 0.46190 0.48980 0.07600
C 	C 	0.07830 0.41800 0.48280 0.22900
N 	N 	0.12070 0.14900 0.66970 0.97100
H 	H 	0.11450 0.21080 0.62360 -0.12400
H 	H 	0.09630 0.16720 0.69220 -0.15500
H 	H 	0.23690 0.84150 0.76400 -0.90900
N 	N 	0.24670 0.81190 0.76320 0.86400
H 	H 	0.24750 0.75610 0.80150 -0.09800
H 	H 	0.26650 0.81400 0.73730 -0.18500
H 	H 	0.13070 0.11530 0.67610 -1.14900
C 	C 	0.00360 0.38940 0.45940 -0.33300
H 	H 	0.00630 0.31150 0.43250 0.84700
C 	C 	0.03330 0.57290 0.52870 0.26900
H 	H 	0.05620 0.62270 0.54930 -0.06700
O 	O 	0.08060 0.32540 0.43990 -0.41800
O 	O 	0.10740 0.47810 0.51590 -0.46900
N 	N 	0.00060 0.28400 0.40400 -0.98400
H 	H 	0.97790 0.25370 0.38380 0.29100
H 	H 	0.02150 0.25210 0.39200 0.26000
C 	C 	0.00480 0.43690 0.43120 -0.46500
H 	H 	0.00780 0.39320 0.38580 0.89900
C 	C 	0.03130 0.52760 0.55380 -0.08700
H 	H 	0.05410 0.54790 0.59110 0.02500
O 	O 	0.08220 0.36710 0.41940 0.00200
O 	O 	0.10640 0.43910 0.53710 0.13700
N 	N 	0.00150 0.34900 0.36650 -1.01700
H 	H 	0.97870 0.32490 0.34270 0.34000
H 	H 	0.02230 0.32080 0.35250 0.20800
N 	N 	0.19410 0.74000 0.36340 0.84800
H 	H 	0.18030 0.66790 0.34980 -0.11700
H 	H 	0.19080 0.80870 0.33260 -0.16400
Cd	Cd	0.64854 0.82777 0.46249 1.23700
O 	O 	0.65555 0.70590 0.56380 -0.46300
O 	O 	0.71347 0.62310 0.55390 -0.46400
O 	O 	0.64966 0.30800 0.86920 -0.43800
O 	O 	0.71320 0.27160 0.88380 -0.43700
O 	O 	0.67244 0.02080 0.41820 -0.37800
O 	O 	0.70975 0.92730 0.51610 -0.48700
C 	C 	0.68393 0.55410 0.65520 -0.37800
C 	C 	0.65240 0.55920 0.69220 0.91300
C 	C 	0.65320 0.48410 0.75560 -0.43600
H 	H 	0.63130 0.48740 0.78100 0.19300
C 	C 	0.68326 0.40340 0.78260 -0.12500
C 	C 	0.71550 0.40090 0.74560 0.54600
C 	C 	0.71488 0.47410 0.68240 -0.16200
H 	H 	0.73650 0.46860 0.65610 0.10700
C 	C 	0.68400 0.63360 0.58590 0.48300
C 	C 	0.68240 0.32350 0.85100 0.39800
C 	C 	0.72701 0.13960 0.48300 -0.22400
C 	C 	0.72117 0.24480 0.43420 0.68600
H 	H 	0.70170 0.24100 0.38860 -0.92900
C 	C 	0.75681 0.14750 0.54910 -0.29900
H 	H 	0.76110 0.07550 0.58280 0.14900
C 	C 	0.70192 0.02120 0.47090 0.38100
C 	C 	0.53680 0.96190 0.48980 0.07800
C 	C 	0.57830 0.91800 0.48280 0.22800
N 	N 	0.62070 0.64900 0.66970 0.97000
H 	H 	0.61450 0.71080 0.62360 -0.12400
H 	H 	0.59630 0.66720 0.69220 -0.15500
H 	H 	0.73690 0.34150 0.76400 -0.90900
N 	N 	0.74670 0.31190 0.76320 0.86400
H 	H 	0.74750 0.25610 0.80150 -0.09900
H 	H 	0.76650 0.31400 0.73730 -0.18500
H 	H 	0.63070 0.61530 0.67610 -1.14800
C 	C 	0.50360 0.88940 0.45940 -0.33500
H 	H 	0.50630 0.81150 0.43250 0.84900
C 	C 	0.53330 0.07290 0.52870 0.26600
H 	H 	0.55620 0.12270 0.54930 -0.06600
O 	O 	0.58060 0.82540 0.43990 -0.41700
O 	O 	0.60740 0.97810 0.51590 -0.47000
N 	N 	0.50060 0.78400 0.40400 -0.98700
H 	H 	0.47790 0.75370 0.38380 0.29300
H 	H 	0.52150 0.75210 0.39200 0.26100
C 	C 	0.50480 0.93690 0.43120 -0.46800
H 	H 	0.50780 0.89320 0.38580 0.90200
C 	C 	0.53130 0.02760 0.55380 -0.08800
H 	H 	0.55410 0.04790 0.59110 0.02600
O 	O 	0.58220 0.86710 0.41940 0.00100
O 	O 	0.60640 0.93910 0.53710 0.13800
N 	N 	0.50150 0.84900 0.36650 -1.02000
H 	H 	0.47870 0.82490 0.34270 0.34200
H 	H 	0.52230 0.82080 0.35250 0.20900
N 	N 	0.69410 0.24000 0.36340 0.84800
H 	H 	0.68030 0.16790 0.34980 -0.11700
H 	H 	0.69080 0.30870 0.33260 -0.16400
Cd	Cd	0.85146 0.32777 0.03751 1.22600
O 	O 	0.84445 0.20590 0.93620 -0.44900
O 	O 	0.78653 0.12310 0.94610 -0.45000
O 	O 	0.85034 0.80800 0.63080 -0.44500
O 	O 	0.78680 0.77160 0.61620 -0.44500
O 	O 	0.82756 0.52080 0.08180 -0.38000
O 	O 	0.79025 0.42730 0.98390 -0.44900
C 	C 	0.81607 0.05410 0.84480 -0.37800
C 	C 	0.84760 0.05920 0.80780 0.91700
C 	C 	0.84680 0.98410 0.74440 -0.43500
H 	H 	0.86870 0.98740 0.71900 0.19200
C 	C 	0.81674 0.90340 0.71740 -0.12600
C 	C 	0.78450 0.90090 0.75440 0.54600
C 	C 	0.78512 0.97410 0.81760 -0.15900
H 	H 	0.76350 0.96860 0.84390 0.10700
C 	C 	0.81600 0.13360 0.91410 0.48100
C 	C 	0.81760 0.82350 0.64900 0.39900
C 	C 	0.77299 0.63960 0.01700 -0.26700
C 	C 	0.77883 0.74480 0.06580 0.69600
H 	H 	0.79830 0.74100 0.11140 -0.90600
C 	C 	0.74319 0.64750 0.95090 -0.24300
H 	H 	0.73890 0.57550 0.91720 0.13700
C 	C 	0.79808 0.52120 0.02910 0.35000
C 	C 	0.96320 0.46190 0.01020 0.02200
C 	C 	0.92170 0.41800 0.01720 0.19500
N 	N 	0.87930 0.14900 0.83030 0.97500
H 	H 	0.88550 0.21080 0.87640 -0.11800
H 	H 	0.90370 0.16720 0.80780 -0.15400
H 	H 	0.76310 0.84150 0.73600 -0.90900
N 	N 	0.75330 0.81190 0.73680 0.86400
H 	H 	0.75250 0.75610 0.69850 -0.09800
H 	H 	0.73350 0.81400 0.76270 -0.18500
H 	H 	0.86930 0.11530 0.82390 -1.15400
C 	C 	0.99640 0.38940 0.04060 -0.31900
H 	H 	0.99370 0.31150 0.06750 0.82800
C 	C 	0.96670 0.57290 0.97130 0.30500
H 	H 	0.94380 0.62270 0.95070 -0.07300
O 	O 	0.91940 0.32540 0.06010 -0.39400
O 	O 	0.89260 0.47810 0.98410 -0.34100
N 	N 	0.99940 0.28400 0.09600 -0.97000
H 	H 	0.02210 0.25370 0.11620 0.28600
H 	H 	0.97850 0.25210 0.10800 0.25500
C 	C 	0.99520 0.43690 0.06880 -0.43900
H 	H 	0.99220 0.39320 0.11420 0.87900
C 	C 	0.96870 0.52760 0.94620 -0.06000
H 	H 	0.94590 0.54790 0.90890 0.02000
O 	O 	0.91780 0.36710 0.08060 -0.02000
O 	O 	0.89360 0.43910 0.96290 0.04700
N 	N 	0.99850 0.34900 0.13350 -1.00200
H 	H 	0.02130 0.32490 0.15730 0.33600
H 	H 	0.97770 0.32080 0.14750 0.20600
N 	N 	0.80590 0.74000 0.13660 0.81500
H 	H 	0.81970 0.66790 0.15020 -0.10900
H 	H 	0.80920 0.80870 0.16740 -0.15700
Cd	Cd	0.35146 0.82777 0.03751 1.22500
O 	O 	0.34445 0.70590 0.93620 -0.44800
O 	O 	0.28653 0.62310 0.94610 -0.44800
O 	O 	0.35034 0.30800 0.63080 -0.44500
O 	O 	0.28680 0.27160 0.61620 -0.44500
O 	O 	0.32756 0.02080 0.08180 -0.37900
O 	O 	0.29025 0.92730 0.98390 -0.44800
C 	C 	0.31607 0.55410 0.84480 -0.37600
C 	C 	0.34760 0.55920 0.80780 0.91800
C 	C 	0.34680 0.48410 0.74440 -0.43700
H 	H 	0.36870 0.48740 0.71900 0.19200
C 	C 	0.31674 0.40340 0.71740 -0.12600
C 	C 	0.28450 0.40090 0.75440 0.54600
C 	C 	0.28512 0.47410 0.81760 -0.16200
H 	H 	0.26350 0.46860 0.84390 0.10800
C 	C 	0.31600 0.63360 0.91410 0.48000
C 	C 	0.31760 0.32350 0.64900 0.39800
C 	C 	0.27299 0.13960 0.01700 -0.26300
C 	C 	0.27883 0.24480 0.06580 0.69500
H 	H 	0.29830 0.24100 0.11140 -0.90800
C 	C 	0.24319 0.14750 0.95090 -0.24800
H 	H 	0.23890 0.07550 0.91720 0.13800
C 	C 	0.29808 0.02120 0.02910 0.34900
C 	C 	0.46320 0.96190 0.01020 0.02200
C 	C 	0.42170 0.91800 0.01720 0.19300
N 	N 	0.37930 0.64900 0.83030 0.97400
H 	H 	0.38550 0.71080 0.87640 -0.11700
H 	H 	0.40370 0.66720 0.80780 -0.15300
H 	H 	0.26310 0.34150 0.73600 -0.90800
N 	N 	0.25330 0.31190 0.73680 0.86300
H 	H 	0.25250 0.25610 0.69850 -0.09800
H 	H 	0.23350 0.31400 0.76270 -0.18500
H 	H 	0.36930 0.61530 0.82390 -1.15300
C 	C 	0.49640 0.88940 0.04060 -0.31800
H 	H 	0.49370 0.81150 0.06750 0.82600
C 	C 	0.46670 0.07290 0.97130 0.30600
H 	H 	0.44380 0.12270 0.95070 -0.07400
O 	O 	0.41940 0.82540 0.06010 -0.39400
O 	O 	0.39260 0.97810 0.98410 -0.33800
N 	N 	0.49940 0.78400 0.09600 -0.96700
H 	H 	0.52210 0.75370 0.11620 0.28400
H 	H 	0.47850 0.75210 0.10800 0.25400
C 	C 	0.49520 0.93690 0.06880 -0.43700
H 	H 	0.49220 0.89320 0.11420 0.87600
C 	C 	0.46870 0.02760 0.94620 -0.06000
H 	H 	0.44590 0.04790 0.90890 0.01900
O 	O 	0.41780 0.86710 0.08060 -0.02000
O 	O 	0.39360 0.93910 0.96290 0.04700
N 	N 	0.49850 0.84900 0.13350 -0.99900
H 	H 	0.52130 0.82490 0.15730 0.33500
H 	H 	0.47770 0.82080 0.14750 0.20600
N 	N 	0.30590 0.24000 0.13660 0.81800
H 	H 	0.31970 0.16790 0.15020 -0.11000
H 	H 	0.30920 0.30870 0.16740 -0.15700
Cd	Cd	0.85146 0.67223 0.53751 1.23700
O 	O 	0.84445 0.79410 0.43620 -0.46300
O 	O 	0.78653 0.87690 0.44610 -0.46400
O 	O 	0.85034 0.19200 0.13080 -0.45200
O 	O 	0.78680 0.22840 0.11620 -0.45100
O 	O 	0.82756 0.47920 0.58180 -0.37800
O 	O 	0.79025 0.57270 0.48390 -0.48700
C 	C 	0.81607 0.94590 0.34480 -0.37900
C 	C 	0.84760 0.94080 0.30780 0.91100
C 	C 	0.84680 0.01590 0.24440 -0.43300
H 	H 	0.86870 0.01260 0.21900 0.18800
C 	C 	0.81674 0.09660 0.21740 -0.12900
C 	C 	0.78450 0.09910 0.25440 0.54600
C 	C 	0.78512 0.02590 0.31760 -0.16200
H 	H 	0.76350 0.03140 0.34390 0.10600
C 	C 	0.81600 0.86640 0.41410 0.48300
C 	C 	0.81760 0.17650 0.14900 0.39900
C 	C 	0.77299 0.36040 0.51700 -0.22400
C 	C 	0.77883 0.25520 0.56580 0.68600
H 	H 	0.79830 0.25900 0.61140 -0.92900
C 	C 	0.74319 0.35250 0.45090 -0.29900
H 	H 	0.73890 0.42450 0.41720 0.14900
C 	C 	0.79808 0.47880 0.52910 0.38100
C 	C 	0.96320 0.53810 0.51020 0.08100
C 	C 	0.92170 0.58200 0.51720 0.22700
N 	N 	0.87930 0.85100 0.33030 0.97200
H 	H 	0.88550 0.78920 0.37640 -0.12500
H 	H 	0.90370 0.83280 0.30780 -0.15900
H 	H 	0.76310 0.15850 0.23600 -0.90800
N 	N 	0.75330 0.18810 0.23680 0.86200
H 	H 	0.75250 0.24390 0.19850 -0.09900
H 	H 	0.73350 0.18600 0.26270 -0.18500
H 	H 	0.86930 0.88470 0.32390 -1.15000
C 	C 	0.99640 0.61060 0.54060 -0.34000
H 	H 	0.99370 0.68850 0.56750 0.85100
C 	C 	0.96670 0.42710 0.47130 0.26500
H 	H 	0.94380 0.37730 0.45070 -0.06500
O 	O 	0.91940 0.67460 0.56010 -0.42000
O 	O 	0.89260 0.52190 0.48410 -0.46200
N 	N 	0.99940 0.71600 0.59600 -0.98800
H 	H 	0.02210 0.74630 0.61620 0.29300
H 	H 	0.97850 0.74790 0.60800 0.26100
C 	C 	0.99520 0.56310 0.56880 -0.46800
H 	H 	0.99220 0.60680 0.61420 0.90800
C 	C 	0.96870 0.47240 0.44620 -0.08900
H 	H 	0.94590 0.45210 0.40890 0.02600
O 	O 	0.91780 0.63290 0.58060 0.00500
O 	O 	0.89360 0.56090 0.46290 0.13000
N 	N 	0.99850 0.65100 0.63350 -1.02900
H 	H 	0.02130 0.67510 0.65730 0.34600
H 	H 	0.97770 0.67920 0.64750 0.21100
N 	N 	0.80590 0.26000 0.63660 0.84800
H 	H 	0.81970 0.33210 0.65020 -0.11600
H 	H 	0.80920 0.19130 0.66740 -0.16400
Cd	Cd	0.35146 0.17223 0.53751 1.23700
O 	O 	0.34445 0.29410 0.43620 -0.46300
O 	O 	0.28653 0.37690 0.44610 -0.46400
O 	O 	0.35034 0.69200 0.13080 -0.45200
O 	O 	0.28680 0.72840 0.11620 -0.45100
O 	O 	0.32756 0.97920 0.58180 -0.37700
O 	O 	0.29025 0.07270 0.48390 -0.48700
C 	C 	0.31607 0.44590 0.34480 -0.37800
C 	C 	0.34760 0.44080 0.30780 0.91200
C 	C 	0.34680 0.51590 0.24440 -0.43500
H 	H 	0.36870 0.51260 0.21900 0.18800
C 	C 	0.31674 0.59660 0.21740 -0.12900
C 	C 	0.28450 0.59910 0.25440 0.54600
C 	C 	0.28512 0.52590 0.31760 -0.16300
H 	H 	0.26350 0.53140 0.34390 0.10600
C 	C 	0.31600 0.36640 0.41410 0.48200
C 	C 	0.31760 0.67650 0.14900 0.39800
C 	C 	0.27299 0.86040 0.51700 -0.22400
C 	C 	0.27883 0.75520 0.56580 0.68600
H 	H 	0.29830 0.75900 0.61140 -0.92900
C 	C 	0.24319 0.85250 0.45090 -0.29900
H 	H 	0.23890 0.92450 0.41720 0.14900
C 	C 	0.29808 0.97880 0.52910 0.38100
C 	C 	0.46320 0.03810 0.51020 0.07800
C 	C 	0.42170 0.08200 0.51720 0.22900
N 	N 	0.37930 0.35100 0.33030 0.97100
H 	H 	0.38550 0.28920 0.37640 -0.12500
H 	H 	0.40370 0.33280 0.30780 -0.15800
H 	H 	0.26310 0.65850 0.23600 -0.90800
N 	N 	0.25330 0.68810 0.23680 0.86200
H 	H 	0.25250 0.74390 0.19850 -0.09900
H 	H 	0.23350 0.68600 0.26270 -0.18500
H 	H 	0.36930 0.38470 0.32390 -1.14900
C 	C 	0.49640 0.11060 0.54060 -0.33700
H 	H 	0.49370 0.18850 0.56750 0.84900
C 	C 	0.46670 0.92710 0.47130 0.26700
H 	H 	0.44380 0.87730 0.45070 -0.06600
O 	O 	0.41940 0.17460 0.56010 -0.42000
O 	O 	0.39260 0.02190 0.48410 -0.46500
N 	N 	0.49940 0.21600 0.59600 -0.98600
H 	H 	0.52210 0.24630 0.61620 0.29300
H 	H 	0.47850 0.24790 0.60800 0.26100
C 	C 	0.49520 0.06310 0.56880 -0.46600
H 	H 	0.49220 0.10680 0.61420 0.90400
C 	C 	0.46870 0.97240 0.44620 -0.08800
H 	H 	0.44590 0.95210 0.40890 0.02500
O 	O 	0.41780 0.13290 0.58060 0.00500
O 	O 	0.39360 0.06090 0.46290 0.13300
N 	N 	0.49850 0.15100 0.63350 -1.02300
H 	H 	0.52130 0.17510 0.65730 0.34400
H 	H 	0.47770 0.17920 0.64750 0.21000
N 	N 	0.30590 0.76000 0.63660 0.84900
H 	H 	0.31970 0.83210 0.65020 -0.11500
H 	H 	0.30920 0.69130 0.66740 -0.16300
Cd	Cd	0.14854 0.67223 0.96249 1.24800
O 	O 	0.15555 0.79410 0.06380 -0.47700
O 	O 	0.21347 0.87690 0.05390 -0.47600
O 	O 	0.14966 0.19200 0.36920 -0.44600
O 	O 	0.21320 0.22840 0.38380 -0.44600
O 	O 	0.17244 0.47920 0.91820 -0.37600
O 	O 	0.20975 0.57270 0.01610 -0.52200
C 	C 	0.18393 0.94590 0.15520 -0.38200
C 	C 	0.15240 0.94080 0.19220 0.90700
C 	C 	0.15320 0.01590 0.25560 -0.43100
H 	H 	0.13130 0.01260 0.28100 0.18900
C 	C 	0.18326 0.09660 0.28260 -0.12900
C 	C 	0.21550 0.09910 0.24560 0.54600
C 	C 	0.21488 0.02590 0.18240 -0.16100
H 	H 	0.23650 0.03140 0.15610 0.10500
C 	C 	0.18400 0.86640 0.08590 0.48500
C 	C 	0.18240 0.17650 0.35100 0.39900
C 	C 	0.22701 0.36040 0.98300 -0.18300
C 	C 	0.22117 0.25520 0.93420 0.67600
H 	H 	0.20170 0.25900 0.88860 -0.95000
C 	C 	0.25681 0.35250 0.04910 -0.35200
H 	H 	0.26110 0.42450 0.08280 0.16000
C 	C 	0.20192 0.47880 0.97090 0.41400
C 	C 	0.03680 0.53810 0.98980 0.13400
C 	C 	0.07830 0.58200 0.98280 0.26200
N 	N 	0.12070 0.85100 0.16970 0.96800
H 	H 	0.11450 0.78920 0.12360 -0.13100
H 	H 	0.09630 0.83280 0.19220 -0.16000
H 	H 	0.23690 0.15850 0.26400 -0.90900
N 	N 	0.24670 0.18810 0.26320 0.86300
H 	H 	0.24750 0.24390 0.30150 -0.09900
H 	H 	0.26650 0.18600 0.23730 -0.18600
H 	H 	0.13070 0.88470 0.17610 -1.14500
C 	C 	0.00360 0.61060 0.95940 -0.35300
H 	H 	0.00630 0.68850 0.93250 0.87200
C 	C 	0.03330 0.42710 0.02870 0.22800
H 	H 	0.05620 0.37730 0.04930 -0.05900
O 	O 	0.08060 0.67460 0.93990 -0.43300
O 	O 	0.10740 0.52190 0.01590 -0.57600
N 	N 	0.00060 0.71600 0.90400 -1.00500
H 	H 	0.97790 0.74630 0.88380 0.30100
H 	H 	0.02150 0.74790 0.89200 0.26800
C 	C 	0.00480 0.56310 0.93120 -0.49500
H 	H 	0.00780 0.60680 0.88580 0.92800
C 	C 	0.03130 0.47240 0.05380 -0.11600
H 	H 	0.05410 0.45210 0.09110 0.03200
O 	O 	0.08220 0.63290 0.91940 0.01700
O 	O 	0.10640 0.56090 0.03710 0.20600
N 	N 	0.00150 0.65100 0.86650 -1.04200
H 	H 	0.97870 0.67510 0.84270 0.35000
H 	H 	0.02230 0.67920 0.85250 0.21300
N 	N 	0.19410 0.26000 0.86340 0.87900
H 	H 	0.18030 0.33210 0.84980 -0.12200
H 	H 	0.19080 0.19130 0.83260 -0.17000
Cd	Cd	0.64854 0.17223 0.96249 1.24700
O 	O 	0.65555 0.29410 0.06380 -0.47600
O 	O 	0.71347 0.37690 0.05390 -0.47500
O 	O 	0.64966 0.69200 0.36920 -0.44600
O 	O 	0.71320 0.72840 0.38380 -0.44600
O 	O 	0.67244 0.97920 0.91820 -0.37500
O 	O 	0.70975 0.07270 0.01610 -0.52100
C 	C 	0.68393 0.44590 0.15520 -0.37900
C 	C 	0.65240 0.44080 0.19220 0.90700
C 	C 	0.65320 0.51590 0.25560 -0.43300
H 	H 	0.63130 0.51260 0.28100 0.18900
C 	C 	0.68326 0.59660 0.28260 -0.12900
C 	C 	0.71550 0.59910 0.24560 0.54600
C 	C 	0.71488 0.52590 0.18240 -0.16400
H 	H 	0.73650 0.53140 0.15610 0.10600
C 	C 	0.68400 0.36640 0.08590 0.48400
C 	C 	0.68240 0.67650 0.35100 0.39900
C 	C 	0.72701 0.86040 0.98300 -0.18000
C 	C 	0.72117 0.75520 0.93420 0.67600
H 	H 	0.70170 0.75900 0.88860 -0.95200
C 	C 	0.75681 0.85250 0.04910 -0.35700
H 	H 	0.76110 0.92450 0.08280 0.16100
C 	C 	0.70192 0.97880 0.97090 0.41300
C 	C 	0.53680 0.03810 0.98980 0.13500
C 	C 	0.57830 0.08200 0.98280 0.25700
N 	N 	0.62070 0.35100 0.16970 0.96700
H 	H 	0.61450 0.28920 0.12360 -0.13000
H 	H 	0.59630 0.33280 0.19220 -0.15900
H 	H 	0.73690 0.65850 0.26400 -0.90800
N 	N 	0.74670 0.68810 0.26320 0.86300
H 	H 	0.74750 0.74390 0.30150 -0.09900
H 	H 	0.76650 0.68600 0.23730 -0.18600
H 	H 	0.63070 0.38470 0.17610 -1.14500
C 	C 	0.50360 0.11060 0.95940 -0.35500
H 	H 	0.50630 0.18850 0.93250 0.87300
C 	C 	0.53330 0.92710 0.02870 0.22700
H 	H 	0.55620 0.87730 0.04930 -0.05900
O 	O 	0.58060 0.17460 0.93990 -0.42900
O 	O 	0.60740 0.02190 0.01590 -0.56600
N 	N 	0.50060 0.21600 0.90400 -1.00700
H 	H 	0.47790 0.24630 0.88380 0.30100
H 	H 	0.52150 0.24790 0.89200 0.26800
C 	C 	0.50480 0.06310 0.93120 -0.49700
H 	H 	0.50780 0.10680 0.88580 0.93000
C 	C 	0.53130 0.97240 0.05380 -0.11700
H 	H 	0.55410 0.95210 0.09110 0.03200
O 	O 	0.58220 0.13290 0.91940 0.01300
O 	O 	0.60640 0.06090 0.03710 0.20000
N 	N 	0.50150 0.15100 0.86650 -1.04500
H 	H 	0.47870 0.17510 0.84270 0.35100
H 	H 	0.52230 0.17920 0.85250 0.21300
N 	N 	0.69410 0.76000 0.86340 0.88200
H 	H 	0.68030 0.83210 0.84980 -0.12300
H 	H 	0.69080 0.69130 0.83260 -0.17000
Cd	Cd	0.25000 0.25000 0.50000 1.24700
Cd	Cd	0.75000 0.25000 -0.00000 1.23500
Cd	Cd	0.75000 0.75000 0.50000 1.24700
Cd	Cd	0.25000 0.75000 -0.00000 1.23400
