data_crystal

_cell_length_a 16.93230
_cell_length_b 16.93230
_cell_length_c 16.93230
_cell_angle_alpha 67.01700
_cell_angle_beta  67.01700
_cell_angle_gamma 67.01700

_symmetry_space_group_name_	'P 1'
_symmetry_space_group_name_H-M	'P 1'

loop_
_symmetry_equiv_pos_as_xyz
  x,y,z

loop_
_atom_site_label
_atom_site_type_symbol
_atom_site_fract_x
_atom_site_fract_y
_atom_site_fract_z
_atom_site_charge
Cu	Cu	0.57464 0.00529 0.00529 0.89700
Cu	Cu	0.00529 0.57464 0.00529 0.89700
Cu	Cu	0.99471 0.99471 0.42536 0.89700
Cu	Cu	0.99471 0.42536 0.99471 0.89700
Cu	Cu	0.00529 0.00529 0.57464 0.89700
Cu	Cu	0.42536 0.99471 0.99471 0.89700
B 	B 	0.43980 0.03250 0.59050 0.17900
B 	B 	0.40330 0.07100 0.49470 0.25600
B 	B 	0.43980 0.59050 0.03250 0.17900
B 	B 	0.40950 0.56020 0.96750 0.17900
B 	B 	0.92900 0.59670 0.50530 0.25600
B 	B 	0.49470 0.40330 0.07100 0.25600
B 	B 	0.10110 0.49345 0.49345 0.25300
B 	B 	0.56020 0.40950 0.96750 0.17900
B 	B 	0.96750 0.56020 0.40950 0.17900
B 	B 	0.40330 0.49470 0.07100 0.25600
B 	B 	0.96750 0.40950 0.56020 0.17900
B 	B 	0.50530 0.59670 0.92900 0.25600
B 	B 	0.92900 0.50530 0.59670 0.25600
B 	B 	0.03250 0.43980 0.59050 0.17900
B 	B 	0.59670 0.50530 0.92900 0.25600
B 	B 	0.07100 0.49470 0.40330 0.25600
B 	B 	0.49345 0.10110 0.49345 0.25300
B 	B 	0.59050 0.43980 0.03250 0.17900
B 	B 	0.50530 0.92900 0.59670 0.25500
B 	B 	0.07100 0.40330 0.49470 0.25500
B 	B 	0.59670 0.92900 0.50530 0.25500
B 	B 	0.59050 0.03250 0.43980 0.17800
B 	B 	0.49345 0.49345 0.10110 0.25200
B 	B 	0.50655 0.50655 0.89890 0.25200
B 	B 	0.40950 0.96750 0.56020 0.17800
B 	B 	0.56020 0.96750 0.40950 0.17800
B 	B 	0.89890 0.50655 0.50655 0.25200
B 	B 	0.49470 0.07100 0.40330 0.25500
B 	B 	0.50655 0.89890 0.50655 0.25200
B 	B 	0.03250 0.59050 0.43980 0.17800
H 	H 	0.50990 0.87920 0.66290 -0.12500
H 	H 	0.02980 0.73235 0.73235 0.07100
H 	H 	0.50550 0.71850 0.01820 0.08700
H 	H 	0.94490 0.60120 0.34790 -0.10200
H 	H 	0.39880 0.05510 0.65210 -0.10200
H 	H 	0.48915 0.48915 0.17030 -0.12300
H 	H 	0.49010 0.12080 0.33710 -0.12500
H 	H 	0.05510 0.65210 0.39880 -0.10200
H 	H 	0.48915 0.17030 0.48915 -0.12300
H 	H 	0.26765 0.97020 0.26765 0.07100
H 	H 	0.82970 0.51085 0.51085 -0.12300
H 	H 	0.50990 0.66290 0.87920 -0.12500
H 	H 	0.66290 0.87920 0.50990 -0.12500
H 	H 	0.73235 0.02980 0.73235 0.07100
H 	H 	0.05510 0.39880 0.65210 -0.10200
H 	H 	0.34790 0.94490 0.60120 -0.10200
H 	H 	0.50550 0.01820 0.71850 0.08700
H 	H 	0.34790 0.60120 0.94490 -0.10200
H 	H 	0.65210 0.39880 0.05510 -0.10200
H 	H 	0.65210 0.05510 0.39880 -0.10200
H 	H 	0.60120 0.34790 0.94490 -0.10200
H 	H 	0.17030 0.48915 0.48915 -0.12300
H 	H 	0.12080 0.49010 0.33710 -0.12500
H 	H 	0.28150 0.49450 0.98180 0.08700
H 	H 	0.97020 0.26765 0.26765 0.07100
H 	H 	0.33710 0.12080 0.49010 -0.12500
H 	H 	0.71850 0.50550 0.01820 0.08700
H 	H 	0.71850 0.01820 0.50550 0.08700
H 	H 	0.66290 0.50990 0.87920 -0.12500
H 	H 	0.60120 0.94490 0.34790 -0.10200
H 	H 	0.49450 0.98180 0.28150 0.08700
H 	H 	0.39880 0.65210 0.05510 -0.10200
H 	H 	0.01820 0.71850 0.50550 0.08700
H 	H 	0.87920 0.50990 0.66290 -0.12500
H 	H 	0.98180 0.49450 0.28150 0.08700
H 	H 	0.49450 0.28150 0.98180 0.08700
H 	H 	0.28150 0.98180 0.49450 0.08700
H 	H 	0.33710 0.49010 0.12080 -0.12500
H 	H 	0.98180 0.28150 0.49450 0.08700
H 	H 	0.26765 0.26765 0.97020 0.07100
H 	H 	0.01820 0.50550 0.71850 0.08700
H 	H 	0.12080 0.33710 0.49010 -0.12500
H 	H 	0.51085 0.51085 0.82970 -0.12300
H 	H 	0.49010 0.33710 0.12080 -0.12500
H 	H 	0.94490 0.34790 0.60120 -0.10200
H 	H 	0.73235 0.73235 0.02980 0.07100
H 	H 	0.87920 0.66290 0.50990 -0.12500
H 	H 	0.51085 0.82970 0.51085 -0.12300
C 	C 	0.02604 0.73894 0.61144 -0.01300
C 	C 	0.69939 0.02759 0.69939 -0.04400
C 	C 	0.99120 0.44765 0.44765 -0.54200
C 	C 	0.02042 0.56562 0.69042 -0.15700
C 	C 	0.30061 0.30061 0.97241 -0.04400
C 	C 	0.69939 0.69939 0.02759 -0.04400
C 	C 	0.57021 0.83551 0.02131 0.32200
C 	C 	0.39655 0.39655 0.98210 0.20200
C 	C 	0.97869 0.16449 0.42979 0.32200
C 	C 	0.97958 0.43438 0.30958 -0.15700
C 	C 	0.97396 0.38856 0.26106 -0.01300
C 	C 	0.60345 0.01790 0.60345 0.20200
C 	C 	0.98210 0.39655 0.39655 0.20200
C 	C 	0.30958 0.43438 0.97958 -0.15700
C 	C 	0.61144 0.02604 0.73894 -0.01300
C 	C 	0.43438 0.30958 0.97958 -0.15700
C 	C 	0.97869 0.42979 0.16449 0.32200
C 	C 	0.60345 0.60345 0.01790 0.20200
C 	C 	0.39655 0.98210 0.39655 0.20200
C 	C 	0.26106 0.97396 0.38856 -0.01300
C 	C 	0.38856 0.97396 0.26106 -0.01300
C 	C 	0.55235 0.00880 0.55235 -0.54200
C 	C 	0.69042 0.02042 0.56562 -0.15700
C 	C 	0.55235 0.55235 0.00880 -0.54200
C 	C 	0.01790 0.60345 0.60345 0.20200
C 	C 	0.56562 0.69042 0.02042 -0.15700
C 	C 	0.57021 0.02131 0.83551 0.32200
C 	C 	0.44765 0.99120 0.44765 -0.54200
C 	C 	0.16449 0.97869 0.42979 0.32200
C 	C 	0.97241 0.30061 0.30061 -0.04400
C 	C 	0.73894 0.61144 0.02604 -0.01300
C 	C 	0.83551 0.57021 0.02131 0.32200
C 	C 	0.30061 0.97241 0.30061 -0.04400
C 	C 	0.69042 0.56562 0.02042 -0.15700
C 	C 	0.42979 0.97869 0.16449 0.32200
C 	C 	0.16449 0.42979 0.97869 0.32200
C 	C 	0.02131 0.83551 0.57021 0.32200
C 	C 	0.44765 0.44765 0.99120 -0.54200
C 	C 	0.42979 0.16449 0.97869 0.32200
C 	C 	0.02759 0.69939 0.69939 -0.04400
C 	C 	0.61144 0.73894 0.02604 -0.01300
C 	C 	0.02042 0.69042 0.56562 -0.15700
C 	C 	0.26106 0.38856 0.97396 -0.01300
C 	C 	0.97396 0.26106 0.38856 -0.01300
C 	C 	0.83551 0.02131 0.57021 0.32200
C 	C 	0.00880 0.55235 0.55235 -0.54200
C 	C 	0.97958 0.30958 0.43438 -0.15700
C 	C 	0.02604 0.61144 0.73894 -0.01300
C 	C 	0.73894 0.02604 0.61144 -0.01300
C 	C 	0.30958 0.97958 0.43438 -0.15700
C 	C 	0.56562 0.02042 0.69042 -0.15700
C 	C 	0.43438 0.97958 0.30958 -0.15700
C 	C 	0.38856 0.26106 0.97396 -0.01300
C 	C 	0.02131 0.57021 0.83551 0.32200
O 	O 	0.87682 0.61752 0.02272 -0.40000
O 	O 	0.87682 0.02272 0.61752 -0.40000
O 	O 	0.38248 0.12318 0.97728 -0.40000
O 	O 	0.97728 0.12318 0.38248 -0.40000
O 	O 	0.13267 0.98557 0.50867 -0.40300
O 	O 	0.12318 0.38248 0.97728 -0.40000
O 	O 	0.61752 0.02272 0.87682 -0.40000
O 	O 	0.49133 0.86733 0.01443 -0.40300
O 	O 	0.50867 0.98557 0.13267 -0.40300
O 	O 	0.98557 0.13267 0.50867 -0.40300
O 	O 	0.98557 0.50867 0.13267 -0.40300
O 	O 	0.01443 0.86733 0.49133 -0.40300
O 	O 	0.49133 0.01443 0.86733 -0.40300
O 	O 	0.61752 0.87682 0.02272 -0.40000
O 	O 	0.02272 0.87682 0.61752 -0.40000
O 	O 	0.38248 0.97728 0.12318 -0.40000
O 	O 	0.02272 0.61752 0.87682 -0.40000
O 	O 	0.13267 0.50867 0.98557 -0.40300
O 	O 	0.50867 0.13267 0.98557 -0.40300
O 	O 	0.97728 0.38248 0.12318 -0.40000
O 	O 	0.86733 0.01443 0.49133 -0.40300
O 	O 	0.01443 0.49133 0.86733 -0.40300
O 	O 	0.86733 0.49133 0.01443 -0.40300
O 	O 	0.12318 0.97728 0.38248 -0.40000
