data_crystal

_cell_length_a 9.59350
_cell_length_b 9.59350
_cell_length_c 13.83600
_cell_angle_alpha 90.00000
_cell_angle_beta  90.00000
_cell_angle_gamma 120.00000

_symmetry_space_group_name_	'P 1'
_symmetry_space_group_name_H-M	'P 1'

loop_
_symmetry_equiv_pos_as_xyz
  x,y,z

loop_
_atom_site_label
_atom_site_type_symbol
_atom_site_fract_x
_atom_site_fract_y
_atom_site_fract_z
_atom_site_charge
C 	C 	0.11380 0.11620 0.04910 0.02100
C 	C 	0.88380 0.99760 0.04910 0.16600
C 	C 	0.00240 0.88620 0.04910 -0.10000
C 	C 	0.88620 0.88380 0.54910 0.03300
C 	C 	0.11620 0.00240 0.54910 -0.11200
C 	C 	0.99760 0.11380 0.54910 0.17200
C 	C 	0.11620 0.11380 0.95090 0.02100
C 	C 	0.99760 0.88380 0.95090 0.16600
C 	C 	0.88620 0.00240 0.95090 -0.09900
C 	C 	0.88380 0.88620 0.45090 0.03400
C 	C 	0.00240 0.11620 0.45090 -0.11100
C 	C 	0.11380 0.99760 0.45090 0.17300
C 	C 	0.88620 0.88380 0.95090 0.03400
C 	C 	0.11620 0.00240 0.95090 -0.10900
C 	C 	0.99760 0.11380 0.95090 0.17100
C 	C 	0.11380 0.11620 0.45090 0.02100
C 	C 	0.88380 0.99760 0.45090 0.16800
C 	C 	0.00240 0.88620 0.45090 -0.09900
C 	C 	0.88380 0.88620 0.04910 0.03400
C 	C 	0.00240 0.11620 0.04910 -0.10900
C 	C 	0.11380 0.99760 0.04910 0.17100
C 	C 	0.11620 0.11380 0.54910 0.02100
C 	C 	0.99760 0.88380 0.54910 0.16800
C 	C 	0.88620 0.00240 0.54910 -0.09900
Ni	Ni	-0.00000 0.00000 0.25000 1.19500
Ni	Ni	-0.00000 0.00000 0.75000 1.19500
O 	O 	0.24850 0.23560 0.25000 -0.32100
O 	O 	0.30330 0.36370 0.25000 -0.08900
C 	C 	0.33970 0.25310 0.25000 0.41300
C 	C 	0.52430 0.33570 0.25000 -0.02200
O 	O 	0.76440 0.01290 0.25000 -0.33200
O 	O 	0.63630 0.93960 0.25000 -0.07600
C 	C 	0.74690 0.08660 0.25000 0.41400
C 	C 	0.66430 0.18860 0.25000 -0.01100
O 	O 	0.98710 0.75150 0.25000 -0.28500
O 	O 	0.06040 0.69670 0.25000 -0.11000
C 	C 	0.91340 0.66030 0.25000 0.40900
C 	C 	0.81140 0.47570 0.25000 -0.01700
O 	O 	0.75150 0.76440 0.75000 -0.30500
O 	O 	0.69670 0.63630 0.75000 -0.09300
C 	C 	0.66030 0.74690 0.75000 0.40800
C 	C 	0.47570 0.66430 0.75000 -0.01000
O 	O 	0.23560 0.98710 0.75000 -0.28300
O 	O 	0.36370 0.06040 0.75000 -0.11300
C 	C 	0.25310 0.91340 0.75000 0.40600
C 	C 	0.33570 0.81140 0.75000 -0.01900
O 	O 	0.01290 0.24850 0.75000 -0.34600
O 	O 	0.93960 0.30330 0.75000 -0.06900
C 	C 	0.08660 0.33970 0.75000 0.41400
C 	C 	0.18860 0.52430 0.75000 -0.01500
O 	O 	0.23560 0.24850 0.75000 -0.32100
O 	O 	0.36370 0.30330 0.75000 -0.08900
C 	C 	0.25310 0.33970 0.75000 0.41300
C 	C 	0.33570 0.52430 0.75000 -0.02200
O 	O 	0.01290 0.76440 0.75000 -0.33200
O 	O 	0.93960 0.63630 0.75000 -0.07600
C 	C 	0.08660 0.74690 0.75000 0.41400
C 	C 	0.18860 0.66430 0.75000 -0.01100
O 	O 	0.75150 0.98710 0.75000 -0.28500
O 	O 	0.69670 0.06040 0.75000 -0.11000
C 	C 	0.66030 0.91340 0.75000 0.40900
C 	C 	0.47570 0.81140 0.75000 -0.01700
O 	O 	0.76440 0.75150 0.25000 -0.30500
O 	O 	0.63630 0.69670 0.25000 -0.09300
C 	C 	0.74690 0.66030 0.25000 0.40800
C 	C 	0.66430 0.47570 0.25000 -0.01000
O 	O 	0.98710 0.23560 0.25000 -0.28300
O 	O 	0.06040 0.36370 0.25000 -0.11300
C 	C 	0.91340 0.25310 0.25000 0.40600
C 	C 	0.81140 0.33570 0.25000 -0.01900
O 	O 	0.24850 0.01290 0.25000 -0.34600
O 	O 	0.30330 0.93960 0.25000 -0.06900
C 	C 	0.33970 0.08660 0.25000 0.41400
C 	C 	0.52430 0.18860 0.25000 -0.01500
C 	C 	0.31000 0.15500 0.25000 0.24500
C 	C 	0.49970 0.24985 0.25000 -0.46700
O 	O 	0.22620 0.11310 0.25000 -0.44000
C 	C 	0.84500 0.15500 0.25000 0.24400
C 	C 	0.75015 0.24985 0.25000 -0.46700
O 	O 	0.88690 0.11310 0.25000 -0.44300
C 	C 	0.84500 0.69000 0.25000 0.24400
C 	C 	0.75015 0.50030 0.25000 -0.47000
O 	O 	0.88690 0.77380 0.25000 -0.44500
C 	C 	0.69000 0.84500 0.75000 0.24400
C 	C 	0.50030 0.75015 0.75000 -0.47000
O 	O 	0.77380 0.88690 0.75000 -0.44500
C 	C 	0.15500 0.84500 0.75000 0.24400
C 	C 	0.24985 0.75015 0.75000 -0.46700
O 	O 	0.11310 0.88690 0.75000 -0.44300
C 	C 	0.15500 0.31000 0.75000 0.24500
C 	C 	0.24985 0.49970 0.75000 -0.46700
O 	O 	0.11310 0.22620 0.75000 -0.44000
C 	C 	0.58390 0.41610 0.25000 0.37900
H 	H 	0.52670 0.47330 0.25000 -0.07000
C 	C 	0.58390 0.16780 0.25000 0.37200
H 	H 	0.52670 0.05340 0.25000 -0.07800
C 	C 	0.83220 0.41610 0.25000 0.38600
H 	H 	0.94660 0.47330 0.25000 -0.06200
C 	C 	0.41610 0.58390 0.75000 0.37900
H 	H 	0.47330 0.52670 0.75000 -0.07000
C 	C 	0.41610 0.83220 0.75000 0.38600
H 	H 	0.47330 0.94660 0.75000 -0.06200
C 	C 	0.16780 0.58390 0.75000 0.37200
H 	H 	0.05340 0.52670 0.75000 -0.07800
N 	N 	0.00000 0.00000 0.10020 -0.21900
N 	N 	-0.00000 0.00000 0.60020 -0.22000
N 	N 	-0.00000 0.00000 0.89980 -0.21900
N 	N 	-0.00000 0.00000 0.39980 -0.22000
