data_crystal

_cell_length_a 9.02110
_cell_length_b 9.02110
_cell_length_c 12.72000
_cell_angle_alpha 85.20890
_cell_angle_beta  85.20890
_cell_angle_gamma 79.37690

_symmetry_space_group_name_	'P 1'
_symmetry_space_group_name_H-M	'P 1'

loop_
_symmetry_equiv_pos_as_xyz
  x,y,z

loop_
_atom_site_label
_atom_site_type_symbol
_atom_site_fract_x
_atom_site_fract_y
_atom_site_fract_z
_atom_site_charge
Th	Th	0.26515 0.73485 0.25000 0.04500
Th	Th	0.73485 0.26515 0.75000 0.04500
C 	C 	0.05420 0.50820 0.39060 0.10800
C 	C 	0.87910 0.41990 0.52560 0.09200
C 	C 	0.93700 0.42660 0.42120 0.11000
C 	C 	0.08400 0.00360 0.08990 0.10400
C 	C 	0.96510 0.13990 0.93880 0.10100
C 	C 	0.04550 0.13910 0.02290 0.10800
C 	C 	0.49180 0.94580 0.10940 0.10800
C 	C 	0.58010 0.12090 0.97440 0.09200
C 	C 	0.57340 0.06300 0.07880 0.10800
C 	C 	0.99640 0.91600 0.41010 0.10400
C 	C 	0.86010 0.03490 0.56120 0.10000
C 	C 	0.86090 0.95450 0.47710 0.10800
C 	C 	0.94580 0.49180 0.60940 0.10700
C 	C 	0.12090 0.58010 0.47440 0.09100
C 	C 	0.06300 0.57340 0.57880 0.10900
C 	C 	0.91600 0.99640 0.91010 0.10300
C 	C 	0.03490 0.86010 0.06120 0.10100
C 	C 	0.95450 0.86090 0.97710 0.10800
C 	C 	0.50820 0.05420 0.89060 0.10800
C 	C 	0.41990 0.87910 0.02560 0.09200
C 	C 	0.42660 0.93700 0.92120 0.10800
C 	C 	0.00360 0.08400 0.58990 0.10400
C 	C 	0.13990 0.96510 0.43880 0.10000
C 	C 	0.13910 0.04550 0.52290 0.10800
Cl	Cl	0.86863 0.33603 0.32660 -0.18100
Cl	Cl	0.09830 0.30210 0.05860 -0.17200
Cl	Cl	0.66397 0.13137 0.17340 -0.18100
Cl	Cl	0.69790 0.90170 0.44140 -0.17100
Cl	Cl	0.13137 0.66397 0.67340 -0.18100
Cl	Cl	0.90170 0.69790 0.94140 -0.17200
Cl	Cl	0.33603 0.86863 0.82660 -0.18100
Cl	Cl	0.30210 0.09830 0.55860 -0.17100
O 	O 	0.10720 0.53140 0.29860 -0.06700
O 	O 	0.76540 0.36060 0.55870 -0.07600
O 	O 	0.16170 0.99210 0.16840 -0.08600
O 	O 	0.92730 0.25530 0.87580 -0.06100
O 	O 	0.46860 0.89280 0.20140 -0.06700
O 	O 	0.63940 0.23460 0.94130 -0.07600
O 	O 	0.00790 0.83830 0.33160 -0.08700
O 	O 	0.74470 0.07270 0.62420 -0.06100
O 	O 	0.89280 0.46860 0.70140 -0.06700
O 	O 	0.23460 0.63940 0.44130 -0.07600
O 	O 	0.83830 0.00790 0.83160 -0.08600
O 	O 	0.07270 0.74470 0.12420 -0.06100
O 	O 	0.53140 0.10720 0.79860 -0.06700
O 	O 	0.36060 0.76540 0.05870 -0.07600
O 	O 	0.99210 0.16170 0.66840 -0.08700
O 	O 	0.25530 0.92730 0.37580 -0.06100
