data_crystal

_cell_length_a 11.40500
_cell_length_b 13.05150
_cell_length_c 18.48550
_cell_angle_alpha 101.73400
_cell_angle_beta  95.68200
_cell_angle_gamma 115.79000

_symmetry_space_group_name_	'P 1'
_symmetry_space_group_name_H-M	'P 1'

loop_
_symmetry_equiv_pos_as_xyz
  x,y,z

loop_
_atom_site_label
_atom_site_type_symbol
_atom_site_fract_x
_atom_site_fract_y
_atom_site_fract_z
_atom_site_charge
Cs	Cs	0.17270 0.63990 0.32379 0.50000
Cs	Cs	0.25470 0.67920 0.34700 0.52100
Cs	Cs	0.61551 0.74588 0.19017 0.71700
Co	Co	0.34460 0.16291 0.14229 1.17200
Co	Co	0.56540 0.35317 0.28685 1.17100
Co	Co	0.52491 0.09151 0.24102 1.17300
Co	Co	0.29832 0.15377 0.30401 1.16700
Co	Co	0.25822 0.22362 0.58441 1.10600
Co	Co	0.73776 0.98208 0.08144 1.15600
O 	O 	0.54530 0.22920 0.18780 -0.63000
O 	O 	0.61990 0.06730 0.15100 -0.42500
O 	O 	0.73530 0.14280 0.07190 -0.35100
O 	O 	0.68450 0.48520 0.24250 -0.46900
O 	O 	0.86490 0.55970 0.20030 -0.35100
O 	O 	0.38200 0.09960 0.03670 -0.52600
O 	O 	0.46380 0.16420 0.94390 -0.46100
O 	O 	0.36410 0.28110 0.24510 -0.62800
O 	O 	0.29970 0.26840 0.08980 -0.42100
O 	O 	0.18430 0.36150 0.07060 -0.29900
O 	O 	0.54440 0.49250 0.36020 -0.45800
O 	O 	0.55920 0.66030 0.34140 -0.49300
O 	O 	0.24670 0.28050 0.36000 -0.37900
O 	O 	0.21350 0.43270 0.34810 -0.33000
O 	O 	0.50790 0.20770 0.33100 -0.62900
O 	O 	0.72970 0.40450 0.37150 -0.38200
O 	O 	0.79660 0.37640 0.47990 -0.39600
O 	O 	0.70510 0.12680 0.30780 -0.41300
O 	O 	0.81480 0.12550 0.41180 -0.24700
O 	O 	0.34340 0.13330 0.52170 -0.42300
O 	O 	0.29020 0.09000 0.39790 -0.44400
O 	O 	0.32250 0.04950 0.21010 -0.62900
O 	O 	0.46100 0.91620 0.24170 -0.45100
O 	O 	0.33130 0.72560 0.19150 -0.39500
O 	O 	0.14670 0.02850 0.09860 -0.35500
O 	O 	0.01580 0.83950 0.08570 -0.21300
O 	O 	0.08980 0.03830 0.26550 -0.39800
O 	O 	0.94470 0.86250 0.27020 -0.26100
O 	O 	0.20970 0.09540 0.64440 -0.28900
O 	O 	0.97380 0.57970 0.41430 -0.33600
O 	O 	0.82700 0.02470 0.20030 -0.25600
O 	O 	0.77500 0.83190 0.06380 -0.27100
C 	C 	0.64040 0.25430 0.14200 0.36000
C 	C 	0.66650 0.14700 0.11970 0.18900
C 	C 	0.77540 0.36100 0.18800 -0.66900
H 	H 	0.80120 0.34430 0.23400 0.21500
H 	H 	0.84310 0.36810 0.15860 0.24100
C 	C 	0.77340 0.47400 0.20800 0.52300
C 	C 	0.59340 0.27830 0.06950 -0.63500
H 	H 	0.57160 0.34270 0.08390 0.21400
H 	H 	0.66740 0.30540 0.04430 0.24000
C 	C 	0.47720 0.17770 0.01430 0.49300
C 	C 	0.29970 0.35420 0.25120 0.28800
C 	C 	0.18100 0.30260 0.18400 -0.56700
H 	H 	0.12540 0.21960 0.17990 0.18300
H 	H 	0.12760 0.34300 0.19360 0.18200
C 	C 	0.22300 0.31420 0.11150 0.45100
C 	C 	0.39830 0.48200 0.25250 -0.53300
H 	H 	0.43900 0.47930 0.20900 0.16500
H 	H 	0.34910 0.52590 0.24800 0.15600
C 	C 	0.50810 0.54800 0.32390 0.44400
C 	C 	0.25120 0.35550 0.32740 0.21900
C 	C 	0.57790 0.23470 0.40480 0.33900
C 	C 	0.71270 0.34810 0.42010 0.20200
C 	C 	0.60870 0.13560 0.41660 -0.58600
H 	H 	0.52750 0.06080 0.39890 0.22300
H 	H 	0.63870 0.14930 0.47030 0.22300
C 	C 	0.71530 0.12690 0.37520 0.46600
C 	C 	0.50050 0.25930 0.46210 -0.60100
H 	H 	0.55610 0.28720 0.51230 0.19300
H 	H 	0.48260 0.32260 0.45380 0.18500
C 	C 	0.37020 0.15460 0.45990 0.45800
C 	C 	0.22220 0.93380 0.17660 0.31500
C 	C 	0.28080 0.85720 0.13790 -0.60200
H 	H 	0.20870 0.78310 0.10570 0.22200
H 	H 	0.33650 0.89760 0.10590 0.20300
C 	C 	0.36280 0.83090 0.19370 0.46500
C 	C 	0.11800 0.93140 0.11530 0.16600
C 	C 	0.14700 0.88030 0.23740 -0.52300
H 	H 	0.09570 0.79500 0.21730 0.18000
H 	H 	0.21180 0.89690 0.28210 0.16300
C 	C 	0.05420 0.93110 0.25950 0.40300
O 	O 	0.14790 0.85130 0.43250 -0.21300
O 	O 	0.44100 0.83900 0.37280 -0.27600
Cs	Cs	0.82730 0.36010 0.67621 0.51300
Cs	Cs	0.74530 0.32080 0.65300 0.52300
Cs	Cs	0.38449 0.25412 0.80983 0.71500
Co	Co	0.65540 0.83709 0.85771 1.17200
Co	Co	0.43460 0.64683 0.71315 1.17100
Co	Co	0.47509 0.90849 0.75898 1.17200
Co	Co	0.70168 0.84623 0.69599 1.16900
Co	Co	0.74178 0.77638 0.41559 1.11400
Co	Co	0.26224 0.01792 0.91856 1.15100
O 	O 	0.45470 0.77080 0.81220 -0.62800
O 	O 	0.38010 0.93270 0.84900 -0.42900
O 	O 	0.26470 0.85720 0.92810 -0.36600
O 	O 	0.31550 0.51480 0.75750 -0.47200
O 	O 	0.13510 0.44030 0.79970 -0.38200
O 	O 	0.61800 0.90040 0.96330 -0.52400
O 	O 	0.53620 0.83580 0.05610 -0.45600
O 	O 	0.63590 0.71890 0.75490 -0.62900
O 	O 	0.70030 0.73160 0.91020 -0.42000
O 	O 	0.81570 0.63850 0.92940 -0.27900
O 	O 	0.45560 0.50750 0.63980 -0.46000
O 	O 	0.44080 0.33970 0.65860 -0.49500
O 	O 	0.75330 0.71950 0.64000 -0.36500
O 	O 	0.78650 0.56730 0.65190 -0.31000
O 	O 	0.49210 0.79230 0.66900 -0.62800
O 	O 	0.27030 0.59550 0.62850 -0.39000
O 	O 	0.20340 0.62360 0.52010 -0.42000
O 	O 	0.29490 0.87320 0.69220 -0.42200
O 	O 	0.18520 0.87450 0.58820 -0.27000
O 	O 	0.65660 0.86670 0.47830 -0.42000
O 	O 	0.70980 0.91000 0.60210 -0.43900
O 	O 	0.67750 0.95050 0.78990 -0.63800
O 	O 	0.53900 0.08380 0.75830 -0.45100
O 	O 	0.66870 0.27440 0.80850 -0.39000
O 	O 	0.85330 0.97150 0.90140 -0.33700
O 	O 	0.98420 0.16050 0.91430 -0.16700
O 	O 	0.91020 0.96170 0.73450 -0.40800
O 	O 	0.05530 0.13750 0.72980 -0.36400
O 	O 	0.79030 0.90460 0.35560 -0.27600
O 	O 	0.02620 0.42030 0.58570 -0.38800
O 	O 	0.17300 0.97530 0.79970 -0.28500
O 	O 	0.22500 0.16810 0.93620 -0.29600
C 	C 	0.35960 0.74570 0.85800 0.34900
C 	C 	0.33350 0.85300 0.88030 0.19200
C 	C 	0.22460 0.63900 0.81200 -0.65400
H 	H 	0.19880 0.65570 0.76600 0.19900
H 	H 	0.15690 0.63190 0.84140 0.21900
C 	C 	0.22660 0.52600 0.79200 0.52000
C 	C 	0.40660 0.72170 0.93050 -0.62100
H 	H 	0.42840 0.65730 0.91610 0.20800
H 	H 	0.33260 0.69460 0.95570 0.22900
C 	C 	0.52280 0.82230 0.98570 0.48100
C 	C 	0.70030 0.64580 0.74880 0.30000
C 	C 	0.81900 0.69740 0.81600 -0.58800
H 	H 	0.87460 0.78040 0.82010 0.20600
H 	H 	0.87240 0.65700 0.80640 0.20700
C 	C 	0.77700 0.68580 0.88850 0.46200
C 	C 	0.60170 0.51800 0.74750 -0.54100
H 	H 	0.56100 0.52070 0.79100 0.16700
H 	H 	0.65090 0.47410 0.75200 0.16100
C 	C 	0.49190 0.45200 0.67610 0.44600
C 	C 	0.74880 0.64450 0.67260 0.21600
C 	C 	0.42210 0.76530 0.59520 0.33600
C 	C 	0.28730 0.65190 0.57990 0.20600
C 	C 	0.39130 0.86440 0.58340 -0.58800
H 	H 	0.47250 0.93920 0.60110 0.22300
H 	H 	0.36130 0.85070 0.52970 0.22100
C 	C 	0.28470 0.87310 0.62480 0.46900
C 	C 	0.49950 0.74070 0.53790 -0.59900
H 	H 	0.44390 0.71280 0.48770 0.19200
H 	H 	0.51740 0.67740 0.54620 0.18500
C 	C 	0.62980 0.84540 0.54010 0.45800
C 	C 	0.77780 0.06620 0.82340 0.34700
C 	C 	0.71920 0.14280 0.86210 -0.62300
H 	H 	0.79130 0.21690 0.89430 0.23700
H 	H 	0.66350 0.10240 0.89410 0.21000
C 	C 	0.63720 0.16910 0.80630 0.47200
C 	C 	0.88200 0.06860 0.88470 0.15400
C 	C 	0.85300 0.11970 0.76260 -0.60000
H 	H 	0.90430 0.20500 0.78270 0.22500
H 	H 	0.78820 0.10310 0.71790 0.19100
C 	C 	0.94580 0.06890 0.74050 0.53700
O 	O 	0.85210 0.14870 0.56750 -0.18200
O 	O 	0.55900 0.16100 0.62720 -0.27400
Co	Co	0.00000 0.50000 0.50000 1.11100
