data_crystal

_cell_length_a 6.65440
_cell_length_b 7.03800
_cell_length_c 7.79380
_cell_angle_alpha 111.16000
_cell_angle_beta  95.30700
_cell_angle_gamma 90.59000

_symmetry_space_group_name_	'P 1'
_symmetry_space_group_name_H-M	'P 1'

loop_
_symmetry_equiv_pos_as_xyz
  x,y,z

loop_
_atom_site_label
_atom_site_type_symbol
_atom_site_fract_x
_atom_site_fract_y
_atom_site_fract_z
_atom_site_charge
Nd	Nd	0.86983 0.77765 0.06652 2.09200
Nd	Nd	0.13017 0.22235 0.93348 2.09200
P 	P 	0.32593 0.74790 0.97919 0.50500
P 	P 	0.67407 0.25210 0.02081 0.50500
H 	H 	0.36220 0.72040 0.79780 -0.09500
H 	H 	0.63780 0.27960 0.20220 -0.09500
C 	C 	0.06200 0.90790 0.50010 0.26100
C 	C 	0.93800 0.09210 0.49990 0.26100
O 	O 	0.19920 0.93900 0.03470 -0.64300
O 	O 	0.52170 0.77240 0.10200 -0.52700
O 	O 	0.18150 0.57310 0.97290 -0.66000
O 	O 	0.05280 0.75910 0.35110 -0.46600
O 	O 	0.84100 0.07780 0.35050 -0.46700
O 	O 	0.80080 0.06100 0.96530 -0.64300
O 	O 	0.47830 0.22760 0.89800 -0.52700
O 	O 	0.81850 0.42690 0.02710 -0.66000
O 	O 	0.94720 0.24090 0.64890 -0.46600
O 	O 	0.15900 0.92220 0.64950 -0.46700
