data_crystal

_cell_length_a 6.56190
_cell_length_b 6.94420
_cell_length_c 7.74120
_cell_angle_alpha 111.36900
_cell_angle_beta  95.49500
_cell_angle_gamma 90.82400

_symmetry_space_group_name_	'P 1'
_symmetry_space_group_name_H-M	'P 1'

loop_
_symmetry_equiv_pos_as_xyz
  x,y,z

loop_
_atom_site_label
_atom_site_type_symbol
_atom_site_fract_x
_atom_site_fract_y
_atom_site_fract_z
_atom_site_charge
Eu	Eu	0.87298 0.77892 0.06735 1.86200
Eu	Eu	0.12702 0.22108 0.93265 1.86200
P 	P 	0.32828 0.74820 0.97960 0.49900
P 	P 	0.67172 0.25180 0.02040 0.49900
H 	H 	0.36220 0.72040 0.79780 -0.07900
H 	H 	0.63780 0.27960 0.20220 -0.07900
C 	C 	0.05900 0.90540 0.50150 0.26000
C 	C 	0.94100 0.09460 0.49850 0.26000
O 	O 	0.19890 0.94070 0.03480 -0.59000
O 	O 	0.52570 0.77460 0.10380 -0.48700
O 	O 	0.18180 0.57220 0.97460 -0.60200
O 	O 	0.05190 0.75650 0.34870 -0.43000
O 	O 	0.84550 0.08070 0.34730 -0.43300
O 	O 	0.80110 0.05930 0.96520 -0.59000
O 	O 	0.47430 0.22540 0.89620 -0.48700
O 	O 	0.81820 0.42780 0.02540 -0.60200
O 	O 	0.94810 0.24350 0.65130 -0.43000
O 	O 	0.15450 0.91930 0.65270 -0.43300
