data_crystal

_cell_length_a 6.67640
_cell_length_b 7.06840
_cell_length_c 7.81030
_cell_angle_alpha 111.14100
_cell_angle_beta  95.41500
_cell_angle_gamma 90.45700

_symmetry_space_group_name_	'P 1'
_symmetry_space_group_name_H-M	'P 1'

loop_
_symmetry_equiv_pos_as_xyz
  x,y,z

loop_
_atom_site_label
_atom_site_type_symbol
_atom_site_fract_x
_atom_site_fract_y
_atom_site_fract_z
_atom_site_charge
Pr	Pr	0.86820 0.77721 0.06593 2.03200
Pr	Pr	0.13180 0.22279 0.93407 2.03200
P 	P 	0.32502 0.74746 0.97927 0.43400
P 	P 	0.67498 0.25254 0.02073 0.43400
H 	H 	0.36220 0.72040 0.79780 -0.07000
H 	H 	0.63780 0.27960 0.20220 -0.07000
C 	C 	0.06100 0.90830 0.50060 0.23300
C 	C 	0.93900 0.09170 0.49940 0.23300
O 	O 	0.19850 0.93740 0.03410 -0.61800
O 	O 	0.51980 0.77190 0.10130 -0.49300
O 	O 	0.18320 0.57470 0.97500 -0.63400
O 	O 	0.05220 0.75990 0.35220 -0.44200
O 	O 	0.83970 0.07600 0.35090 -0.44200
O 	O 	0.80150 0.06260 0.96590 -0.61800
O 	O 	0.48020 0.22810 0.89870 -0.49300
O 	O 	0.81680 0.42530 0.02500 -0.63400
O 	O 	0.94780 0.24010 0.64780 -0.44200
O 	O 	0.16030 0.92400 0.64910 -0.44200
