data_crystal

_cell_length_a 6.40750
_cell_length_b 6.80500
_cell_length_c 7.66470
_cell_angle_alpha 111.75300
_cell_angle_beta  95.85800
_cell_angle_gamma 91.20400

_symmetry_space_group_name_	'P 1'
_symmetry_space_group_name_H-M	'P 1'

loop_
_symmetry_equiv_pos_as_xyz
  x,y,z

loop_
_atom_site_label
_atom_site_type_symbol
_atom_site_fract_x
_atom_site_fract_y
_atom_site_fract_z
_atom_site_charge
Yb	Yb	0.87751 0.78147 0.06862 1.50500
Yb	Yb	0.12249 0.21853 0.93138 1.50500
P 	P 	0.33110 0.74740 0.97930 0.41900
P 	P 	0.66890 0.25260 0.02070 0.41900
H 	H 	0.36220 0.72040 0.79780 -0.03800
H 	H 	0.63780 0.27960 0.20220 -0.03800
C 	C 	0.05710 0.90180 0.50050 0.24300
C 	C 	0.94290 0.09820 0.49950 0.24300
O 	O 	0.19690 0.94210 0.03530 -0.49400
O 	O 	0.53600 0.78000 0.10680 -0.40300
O 	O 	0.18160 0.56780 0.97570 -0.49700
O 	O 	0.04940 0.75430 0.34510 -0.36800
O 	O 	0.85450 0.08840 0.34470 -0.36700
O 	O 	0.80310 0.05790 0.96470 -0.49400
O 	O 	0.46400 0.22000 0.89320 -0.40300
O 	O 	0.81840 0.43220 0.02430 -0.49700
O 	O 	0.95060 0.24570 0.65490 -0.36800
O 	O 	0.14550 0.91160 0.65530 -0.36700
