data_crystal

_cell_length_a 6.46280
_cell_length_b 6.85190
_cell_length_c 7.69360
_cell_angle_alpha 111.64600
_cell_angle_beta  95.77900
_cell_angle_gamma 91.02800

_symmetry_space_group_name_	'P 1'
_symmetry_space_group_name_H-M	'P 1'

loop_
_symmetry_equiv_pos_as_xyz
  x,y,z

loop_
_atom_site_label
_atom_site_type_symbol
_atom_site_fract_x
_atom_site_fract_y
_atom_site_fract_z
_atom_site_charge
Ho	Ho	0.87615 0.78055 0.06815 1.70400
Ho	Ho	0.12385 0.21945 0.93185 1.70400
P 	P 	0.32992 0.74765 0.97945 0.49600
P 	P 	0.67008 0.25235 0.02055 0.49600
H 	H 	0.36220 0.72040 0.79780 -0.06600
H 	H 	0.63780 0.27960 0.20220 -0.06600
C 	C 	0.05770 0.90360 0.50050 0.25900
C 	C 	0.94230 0.09640 0.49950 0.25900
O 	O 	0.19890 0.94180 0.03530 -0.55600
O 	O 	0.53260 0.77780 0.10550 -0.46100
O 	O 	0.18200 0.57010 0.97690 -0.56300
O 	O 	0.05080 0.75360 0.34550 -0.40600
O 	O 	0.85160 0.08560 0.34490 -0.40700
O 	O 	0.80110 0.05820 0.96470 -0.55600
O 	O 	0.46740 0.22220 0.89450 -0.46100
O 	O 	0.81800 0.42990 0.02310 -0.56300
O 	O 	0.94920 0.24640 0.65450 -0.40600
O 	O 	0.14840 0.91440 0.65510 -0.40700
