data_crystal

_cell_length_a 6.44000
_cell_length_b 6.83260
_cell_length_c 7.67470
_cell_angle_alpha 111.65400
_cell_angle_beta  95.75700
_cell_angle_gamma 91.09600

_symmetry_space_group_name_	'P 1'
_symmetry_space_group_name_H-M	'P 1'

loop_
_symmetry_equiv_pos_as_xyz
  x,y,z

loop_
_atom_site_label
_atom_site_type_symbol
_atom_site_fract_x
_atom_site_fract_y
_atom_site_fract_z
_atom_site_charge
Er	Er	0.87665 0.78078 0.06840 1.66600
Er	Er	0.12335 0.21922 0.93160 1.66600
P 	P 	0.33020 0.74760 0.97920 0.49600
P 	P 	0.66980 0.25240 0.02080 0.49600
H 	H 	0.36220 0.72040 0.79780 -0.06500
H 	H 	0.63780 0.27960 0.20220 -0.06500
C 	C 	0.05620 0.90280 0.50070 0.26900
C 	C 	0.94380 0.09720 0.49930 0.26900
O 	O 	0.19790 0.94170 0.03570 -0.54800
O 	O 	0.53370 0.77920 0.10550 -0.45600
O 	O 	0.18150 0.56990 0.97650 -0.55400
O 	O 	0.05090 0.75250 0.34650 -0.40100
O 	O 	0.85360 0.08450 0.34630 -0.40700
O 	O 	0.80210 0.05830 0.96430 -0.54800
O 	O 	0.46630 0.22080 0.89450 -0.45600
O 	O 	0.81850 0.43010 0.02350 -0.55400
O 	O 	0.94910 0.24750 0.65350 -0.40100
O 	O 	0.14640 0.91550 0.65370 -0.40700
