data_crystal

_cell_length_a 8.88020
_cell_length_b 12.08000
_cell_length_c 16.61500
_cell_angle_alpha 90.00000
_cell_angle_beta  90.00000
_cell_angle_gamma 109.32000

_symmetry_space_group_name_	'P 1'
_symmetry_space_group_name_H-M	'P 1'

loop_
_symmetry_equiv_pos_as_xyz
  x,y,z

loop_
_atom_site_label
_atom_site_type_symbol
_atom_site_fract_x
_atom_site_fract_y
_atom_site_fract_z
_atom_site_charge
Dy	Dy	0.93315 0.95259 0.88221 1.80100
Dy	Dy	0.56685 0.04741 0.38221 1.82700
Dy	Dy	0.06685 0.04741 0.11779 1.80100
Dy	Dy	0.43315 0.95259 0.61779 1.82700
H 	H 	0.47010 0.28030 0.93360 0.12600
H 	H 	0.37780 0.36110 0.96690 0.12400
H 	H 	0.62860 0.46500 0.93400 0.05700
H 	H 	0.40330 0.47420 0.72610 0.06300
H 	H 	0.82220 0.64180 0.90090 0.08900
H 	H 	0.59670 0.65300 0.69420 0.10000
H 	H 	0.90920 0.72550 0.67710 0.12300
H 	H 	0.82720 0.82220 0.66830 0.12000
H 	H 	0.25100 0.79460 0.07020 0.09000
H 	H 	0.38120 0.86110 0.00750 0.10300
H 	H 	0.20140 0.50400 0.91130 0.07800
H 	H 	0.01350 0.66580 0.07310 0.05900
H 	H 	0.02990 0.71970 0.43360 0.12600
H 	H 	0.12220 0.63890 0.46690 0.12300
H 	H 	0.87140 0.53500 0.43400 0.05700
H 	H 	0.09670 0.52580 0.22610 0.06500
H 	H 	0.67780 0.35820 0.40090 0.09000
H 	H 	0.90330 0.34700 0.19420 0.10000
H 	H 	0.59080 0.27450 0.17710 0.12100
H 	H 	0.67280 0.17780 0.16830 0.11800
H 	H 	0.24900 0.20540 0.57020 0.09200
H 	H 	0.11880 0.13890 0.50750 0.10400
H 	H 	0.29860 0.49600 0.41130 0.07800
H 	H 	0.48650 0.33420 0.57310 0.05700
H 	H 	0.52990 0.71970 0.06640 0.12600
H 	H 	0.62220 0.63890 0.03310 0.12400
H 	H 	0.37140 0.53500 0.06600 0.05700
H 	H 	0.59670 0.52580 0.27390 0.06300
H 	H 	0.17780 0.35820 0.09910 0.08900
H 	H 	0.40330 0.34700 0.30580 0.10000
H 	H 	0.09080 0.27450 0.32290 0.12300
H 	H 	0.17280 0.17780 0.33170 0.12000
H 	H 	0.74900 0.20540 0.92980 0.09000
H 	H 	0.61880 0.13890 0.99250 0.10300
H 	H 	0.79860 0.49600 0.08870 0.07800
H 	H 	0.98650 0.33420 0.92690 0.05900
H 	H 	0.97010 0.28030 0.56640 0.12600
H 	H 	0.87780 0.36110 0.53310 0.12300
H 	H 	0.12860 0.46500 0.56600 0.05700
H 	H 	0.90330 0.47420 0.77390 0.06500
H 	H 	0.32220 0.64180 0.59910 0.09000
H 	H 	0.09670 0.65300 0.80580 0.10000
H 	H 	0.40920 0.72550 0.82290 0.12100
H 	H 	0.32720 0.82220 0.83170 0.11800
H 	H 	0.75100 0.79460 0.42980 0.09200
H 	H 	0.88120 0.86110 0.49250 0.10400
H 	H 	0.70140 0.50400 0.58870 0.07800
H 	H 	0.51350 0.66580 0.42690 0.05700
C 	C 	0.22980 0.19400 0.94350 0.49400
C 	C 	0.37430 0.30120 0.92730 -0.26600
C 	C 	0.49500 0.45220 0.83340 0.10400
C 	C 	0.62140 0.50230 0.88600 -0.06200
C 	C 	0.48660 0.50820 0.76170 -0.05500
C 	C 	0.73690 0.60870 0.86620 -0.13500
C 	C 	0.60230 0.61540 0.74240 -0.14100
C 	C 	0.72560 0.66480 0.79630 0.18600
C 	C 	0.90020 0.79650 0.70080 -0.24500
C 	C 	0.06200 0.89090 0.70380 0.46400
C 	C 	0.15810 0.85990 0.97610 0.43500
C 	C 	0.27370 0.80630 0.01310 -0.21700
C 	C 	0.13000 0.60200 0.99080 0.13100
C 	C 	0.12040 0.50250 0.94710 -0.09900
C 	C 	0.00850 0.59920 0.04370 -0.08000
C 	C 	0.27020 0.80600 0.44350 0.49100
C 	C 	0.12570 0.69880 0.42730 -0.26500
C 	C 	0.00500 0.54780 0.33340 0.10600
C 	C 	0.87860 0.49770 0.38600 -0.06300
C 	C 	0.01340 0.49180 0.26170 -0.05800
C 	C 	0.76310 0.39130 0.36620 -0.13400
C 	C 	0.89770 0.38460 0.24240 -0.13800
C 	C 	0.77440 0.33520 0.29630 0.18600
C 	C 	0.59980 0.20350 0.20080 -0.23700
C 	C 	0.43800 0.10910 0.20380 0.45800
C 	C 	0.34190 0.14010 0.47610 0.45200
C 	C 	0.22630 0.19370 0.51310 -0.23300
C 	C 	0.37000 0.39800 0.49080 0.13100
C 	C 	0.37960 0.49750 0.44710 -0.09800
C 	C 	0.49150 0.40080 0.54370 -0.08100
C 	C 	0.77020 0.80600 0.05650 0.49400
C 	C 	0.62570 0.69880 0.07270 -0.26600
C 	C 	0.50500 0.54780 0.16660 0.10400
C 	C 	0.37860 0.49770 0.11400 -0.06200
C 	C 	0.51340 0.49180 0.23830 -0.05500
C 	C 	0.26310 0.39130 0.13380 -0.13500
C 	C 	0.39770 0.38460 0.25760 -0.14100
C 	C 	0.27440 0.33520 0.20370 0.18600
C 	C 	0.09980 0.20350 0.29920 -0.24500
C 	C 	0.93800 0.10910 0.29620 0.46400
C 	C 	0.84190 0.14010 0.02390 0.43500
C 	C 	0.72630 0.19370 0.98690 -0.21700
C 	C 	0.87000 0.39800 0.00920 0.13100
C 	C 	0.87960 0.49750 0.05290 -0.09900
C 	C 	0.99150 0.40080 0.95630 -0.08000
C 	C 	0.72980 0.19400 0.55650 0.49100
C 	C 	0.87430 0.30120 0.57270 -0.26500
C 	C 	0.99500 0.45220 0.66660 0.10600
C 	C 	0.12140 0.50230 0.61400 -0.06300
C 	C 	0.98660 0.50820 0.73830 -0.05800
C 	C 	0.23690 0.60870 0.63380 -0.13400
C 	C 	0.10230 0.61540 0.75760 -0.13800
C 	C 	0.22560 0.66480 0.70370 0.18600
C 	C 	0.40020 0.79650 0.79920 -0.23700
C 	C 	0.56200 0.89090 0.79620 0.45800
C 	C 	0.65810 0.85990 0.52390 0.45200
C 	C 	0.77370 0.80630 0.48690 -0.23300
C 	C 	0.63000 0.60200 0.50920 0.13100
C 	C 	0.62040 0.50250 0.55290 -0.09800
C 	C 	0.50850 0.59920 0.45630 -0.08100
O 	O 	0.15930 0.12920 0.88653 -0.47100
O 	O 	0.19760 0.18020 0.01721 -0.49000
O 	O 	0.37350 0.34830 0.84898 -0.15100
O 	O 	0.84190 0.77420 0.78259 -0.27900
O 	O 	0.15000 0.89980 0.64406 -0.46500
O 	O 	0.09550 0.95510 0.76500 -0.46400
O 	O 	0.09910 0.82790 0.90891 -0.42400
O 	O 	0.13130 0.94200 0.01330 -0.53000
O 	O 	0.26690 0.69810 0.97830 -0.17500
O 	O 	0.34070 0.87080 0.38653 -0.47100
O 	O 	0.30240 0.81980 0.51721 -0.48500
O 	O 	0.12650 0.65170 0.34898 -0.15100
O 	O 	0.65810 0.22580 0.28259 -0.28000
O 	O 	0.35000 0.10020 0.14406 -0.46500
O 	O 	0.40450 0.04490 0.26500 -0.46900
O 	O 	0.40090 0.17210 0.40891 -0.43300
O 	O 	0.36870 0.05800 0.51330 -0.54800
O 	O 	0.23310 0.30190 0.47830 -0.17100
O 	O 	0.84070 0.87080 0.11347 -0.47100
O 	O 	0.80240 0.81980 0.98279 -0.49000
O 	O 	0.62650 0.65170 0.15102 -0.15100
O 	O 	0.15810 0.22580 0.21741 -0.27900
O 	O 	0.85000 0.10020 0.35594 -0.46500
O 	O 	0.90450 0.04490 0.23500 -0.46400
O 	O 	0.90090 0.17210 0.09109 -0.42400
O 	O 	0.86870 0.05800 0.98670 -0.53000
O 	O 	0.73310 0.30190 0.02170 -0.17500
O 	O 	0.65930 0.12920 0.61347 -0.47100
O 	O 	0.69760 0.18020 0.48279 -0.48500
O 	O 	0.87350 0.34830 0.65102 -0.15100
O 	O 	0.34190 0.77420 0.71741 -0.28000
O 	O 	0.65000 0.89980 0.85594 -0.46500
O 	O 	0.59550 0.95510 0.73500 -0.46900
O 	O 	0.59910 0.82790 0.59109 -0.43300
O 	O 	0.63130 0.94200 0.48670 -0.54800
O 	O 	0.76690 0.69810 0.52170 -0.17100
