data_crystal

_cell_length_a 10.78640
_cell_length_b 12.20530
_cell_length_c 19.00000
_cell_angle_alpha 90.00000
_cell_angle_beta  92.23900
_cell_angle_gamma 90.00000

_symmetry_space_group_name_	'P 1'
_symmetry_space_group_name_H-M	'P 1'

loop_
_symmetry_equiv_pos_as_xyz
  x,y,z

loop_
_atom_site_label
_atom_site_type_symbol
_atom_site_fract_x
_atom_site_fract_y
_atom_site_fract_z
_atom_site_charge
U 	U 	0.40774 0.04086 0.12388 0.02800
U 	U 	0.03327 0.31601 0.18761 0.02000
O 	O 	0.35240 0.11990 0.23380 -0.15900
O 	O 	0.15300 0.16600 0.22310 -0.15500
O 	O 	0.12260 0.96270 0.29830 -0.15300
O 	O 	0.03220 0.95660 0.39950 -0.16600
O 	O 	0.13600 0.22000 0.58410 -0.15900
O 	O 	0.33030 0.27910 0.59350 -0.15900
O 	O 	0.36100 0.43900 0.50060 -0.15500
O 	O 	0.50290 0.38300 0.42650 -0.16100
C 	C 	0.24950 0.16120 0.33800 -0.00400
C 	C 	0.32330 0.24560 0.36460 -0.02300
H 	H 	0.37360 0.28380 0.33440 0.09100
C 	C 	0.32380 0.27480 0.43590 -0.00700
C 	C 	0.24570 0.21760 0.48140 -0.00900
C 	C 	0.17650 0.13000 0.45390 -0.02100
H 	H 	0.12690 0.09020 0.48360 0.09400
C 	C 	0.17950 0.10030 0.38350 -0.01200
C 	C 	0.10630 0.00180 0.35930 0.26900
C 	C 	0.24980 0.14600 0.25830 0.28300
C 	C 	0.40180 0.37340 0.45740 0.28100
C 	C 	0.23900 0.24240 0.55900 0.28200
U 	U 	0.59226 0.54086 0.37612 0.02700
U 	U 	0.96673 0.81601 0.31239 0.01800
O 	O 	0.64760 0.61990 0.26620 -0.16000
O 	O 	0.84700 0.66600 0.27690 -0.15600
O 	O 	0.87740 0.46270 0.20170 -0.15700
O 	O 	0.96780 0.45660 0.10050 -0.17100
O 	O 	0.86400 0.72000 0.91590 -0.15800
O 	O 	0.66970 0.77910 0.90650 -0.15900
O 	O 	0.63900 0.93900 0.99940 -0.15500
O 	O 	0.49710 0.88300 0.07350 -0.16100
C 	C 	0.75050 0.66120 0.16200 -0.00300
C 	C 	0.67670 0.74560 0.13540 -0.02400
H 	H 	0.62640 0.78380 0.16560 0.09100
C 	C 	0.67620 0.77480 0.06410 -0.00600
C 	C 	0.75430 0.71760 0.01860 -0.01000
C 	C 	0.82350 0.63000 0.04610 -0.01900
H 	H 	0.87310 0.59020 0.01640 0.09400
C 	C 	0.82050 0.60030 0.11650 -0.01400
C 	C 	0.89370 0.50180 0.14070 0.27500
C 	C 	0.75020 0.64600 0.24170 0.28300
C 	C 	0.59820 0.87340 0.04260 0.28000
C 	C 	0.76100 0.74240 0.94100 0.28300
U 	U 	0.59226 0.95914 0.87612 0.02700
U 	U 	0.96673 0.68399 0.81239 0.01900
O 	O 	0.64760 0.88010 0.76620 -0.16000
O 	O 	0.84700 0.83400 0.77690 -0.15600
O 	O 	0.87740 0.03730 0.70170 -0.15400
O 	O 	0.96780 0.04340 0.60050 -0.16700
O 	O 	0.86400 0.78000 0.41590 -0.15900
O 	O 	0.66970 0.72090 0.40650 -0.15900
O 	O 	0.63900 0.56100 0.49940 -0.15500
O 	O 	0.49710 0.61700 0.57350 -0.16100
C 	C 	0.75050 0.83880 0.66200 -0.00400
C 	C 	0.67670 0.75440 0.63540 -0.02300
H 	H 	0.62640 0.71620 0.66560 0.09100
C 	C 	0.67620 0.72520 0.56410 -0.00700
C 	C 	0.75430 0.78240 0.51860 -0.00900
C 	C 	0.82350 0.87000 0.54610 -0.02100
H 	H 	0.87310 0.90980 0.51640 0.09400
C 	C 	0.82050 0.89970 0.61650 -0.01200
C 	C 	0.89370 0.99820 0.64070 0.26900
C 	C 	0.75020 0.85400 0.74170 0.28300
C 	C 	0.59820 0.62660 0.54260 0.28100
C 	C 	0.76100 0.75760 0.44100 0.28200
U 	U 	0.40774 0.45914 0.62388 0.02700
U 	U 	0.03327 0.18399 0.68761 0.01800
O 	O 	0.35240 0.38010 0.73380 -0.16000
O 	O 	0.15300 0.33400 0.72310 -0.15600
O 	O 	0.12260 0.53730 0.79830 -0.15700
O 	O 	0.03220 0.54340 0.89950 -0.17100
O 	O 	0.13600 0.28000 0.08410 -0.15800
O 	O 	0.33030 0.22090 0.09350 -0.15900
O 	O 	0.36100 0.06100 0.00060 -0.15500
O 	O 	0.50290 0.11700 0.92650 -0.16100
C 	C 	0.24950 0.33880 0.83800 -0.00300
C 	C 	0.32330 0.25440 0.86460 -0.02400
H 	H 	0.37360 0.21620 0.83440 0.09100
C 	C 	0.32380 0.22520 0.93590 -0.00600
C 	C 	0.24570 0.28240 0.98140 -0.01000
C 	C 	0.17650 0.37000 0.95390 -0.01900
H 	H 	0.12690 0.40980 0.98360 0.09400
C 	C 	0.17950 0.39970 0.88350 -0.01400
C 	C 	0.10630 0.49820 0.85930 0.27500
C 	C 	0.24980 0.35400 0.75830 0.28300
C 	C 	0.40180 0.12660 0.95740 0.28000
C 	C 	0.23900 0.25760 0.05900 0.28300
