data_crystal

_cell_length_a 13.74000
_cell_length_b 27.03000
_cell_length_c 13.64700
_cell_angle_alpha 90.00000
_cell_angle_beta  90.00000
_cell_angle_gamma 90.00000

_symmetry_space_group_name_	'P 1'
_symmetry_space_group_name_H-M	'P 1'

loop_
_symmetry_equiv_pos_as_xyz
  x,y,z

loop_
_atom_site_label
_atom_site_type_symbol
_atom_site_fract_x
_atom_site_fract_y
_atom_site_fract_z
_atom_site_charge
Cd	Cd	0.83208 0.87481 0.99767 1.16800
Cd	Cd	0.46977 0.80749 0.13680 1.14500
Cd	Cd	0.22078 0.92325 0.89089 1.15900
N 	N 	0.68070 0.84900 0.04330 -0.20700
C 	C 	0.60980 0.83290 0.07460 -0.27700
N 	N 	0.89440 0.85660 0.15400 -0.19000
C 	C 	0.92150 0.84130 0.22370 -0.27200
N 	N 	0.98860 0.89730 0.94800 -0.20300
C 	C 	0.06800 0.90310 0.92680 -0.25400
N 	N 	0.77590 0.90200 0.84270 -0.19400
C 	C 	0.75610 0.91080 0.76580 -0.25200
N 	N 	0.37700 0.86670 0.03750 -0.18700
C 	C 	0.32620 0.88640 0.98890 -0.26400
N 	N 	0.79970 0.95520 0.05460 -0.19200
C 	C 	0.78760 0.99550 0.07620 -0.21500
N 	N 	0.86880 0.79620 0.94300 -0.20500
C 	C 	0.90100 0.76140 0.91700 -0.30300
N 	N 	0.54640 0.98400 0.24880 -0.11000
C 	C 	0.56780 0.94890 0.18820 0.04300
H 	H 	0.59530 0.91980 0.21150 -0.02100
C 	C 	0.55000 0.95450 0.08810 -0.13900
H 	H 	0.56630 0.92890 0.04580 0.05200
C 	C 	0.50910 0.99680 0.05030 0.03000
C 	C 	0.48920 0.03420 0.12000 -0.14200
H 	H 	0.46340 0.06430 0.09960 0.04600
C 	C 	0.50800 0.02620 0.21730 0.02700
H 	H 	0.49290 0.05080 0.26240 -0.01800
C 	C 	0.56860 0.97780 0.35740 -0.29100
H 	H 	0.58720 0.94410 0.37000 0.08100
H 	H 	0.51170 0.98580 0.39500 0.09100
H 	H 	0.62080 0.99950 0.37550 0.08900
Cd	Cd	0.66792 0.12519 0.49767 1.17100
Cd	Cd	0.03023 0.19251 0.63680 1.14600
Cd	Cd	0.27922 0.07675 0.39089 1.16000
N 	N 	0.81930 0.15100 0.54330 -0.20700
C 	C 	0.89020 0.16710 0.57460 -0.27800
N 	N 	0.60560 0.14340 0.65400 -0.19200
C 	C 	0.57850 0.15870 0.72370 -0.27300
N 	N 	0.51140 0.10270 0.44800 -0.19700
C 	C 	0.43200 0.09690 0.42680 -0.26000
N 	N 	0.72410 0.09800 0.34270 -0.19300
C 	C 	0.74390 0.08920 0.26580 -0.25100
N 	N 	0.12300 0.13330 0.53750 -0.18700
C 	C 	0.17380 0.11360 0.48890 -0.26400
N 	N 	0.70030 0.04480 0.55460 -0.19300
C 	C 	0.71240 0.00450 0.57620 -0.21600
N 	N 	0.63120 0.20380 0.44300 -0.20400
C 	C 	0.59900 0.23860 0.41700 -0.30100
N 	N 	0.95360 0.01600 0.74880 -0.10600
C 	C 	0.93220 0.05110 0.68820 0.03900
H 	H 	0.90470 0.08020 0.71150 -0.02000
C 	C 	0.95000 0.04550 0.58810 -0.13500
H 	H 	0.93370 0.07110 0.54580 0.05100
C 	C 	0.99090 0.00320 0.55030 0.02500
C 	C 	0.01080 0.96580 0.62000 -0.12700
H 	H 	0.03660 0.93570 0.59960 0.04200
C 	C 	0.99200 0.97380 0.71730 0.00900
H 	H 	0.00710 0.94920 0.76240 -0.00900
C 	C 	0.93140 0.02220 0.85740 -0.29300
H 	H 	0.91280 0.05590 0.87000 0.08100
H 	H 	0.98830 0.01420 0.89500 0.09100
H 	H 	0.87920 0.00050 0.87550 0.08900
Cd	Cd	0.16792 0.37481 0.50233 1.17100
Cd	Cd	0.53023 0.30749 0.36320 1.14600
Cd	Cd	0.77922 0.42325 0.60911 1.16000
N 	N 	0.31930 0.34900 0.45670 -0.20700
C 	C 	0.39020 0.33290 0.42540 -0.27800
N 	N 	0.10560 0.35660 0.34600 -0.19200
C 	C 	0.07850 0.34130 0.27630 -0.27400
N 	N 	0.01140 0.39730 0.55200 -0.19700
C 	C 	0.93200 0.40310 0.57320 -0.25900
N 	N 	0.22410 0.40200 0.65730 -0.19300
C 	C 	0.24390 0.41080 0.73420 -0.25100
N 	N 	0.62300 0.36670 0.46250 -0.18700
C 	C 	0.67380 0.38640 0.51110 -0.26400
N 	N 	0.20030 0.45520 0.44540 -0.19300
C 	C 	0.21240 0.49550 0.42380 -0.21600
N 	N 	0.13120 0.29620 0.55700 -0.20400
C 	C 	0.09900 0.26140 0.58300 -0.30100
N 	N 	0.45360 0.48400 0.25120 -0.11100
C 	C 	0.43220 0.44890 0.31180 0.04200
H 	H 	0.40470 0.41980 0.28850 -0.02100
C 	C 	0.45000 0.45450 0.41190 -0.13800
H 	H 	0.43370 0.42890 0.45420 0.05200
C 	C 	0.49090 0.49680 0.44970 0.02900
C 	C 	0.51080 0.53420 0.38000 -0.14000
H 	H 	0.53660 0.56430 0.40040 0.04600
C 	C 	0.49200 0.52620 0.28270 0.02800
H 	H 	0.50710 0.55080 0.23760 -0.01800
C 	C 	0.43140 0.47780 0.14260 -0.29100
H 	H 	0.41280 0.44410 0.13000 0.08100
H 	H 	0.48830 0.48580 0.10500 0.09100
H 	H 	0.37920 0.49950 0.12450 0.08800
Cd	Cd	0.33208 0.62519 0.00233 1.17000
Cd	Cd	0.96977 0.69251 0.86320 1.14500
Cd	Cd	0.72078 0.57675 0.10911 1.16000
N 	N 	0.18070 0.65100 0.95670 -0.20700
C 	C 	0.10980 0.66710 0.92540 -0.27500
N 	N 	0.39440 0.64340 0.84600 -0.19100
C 	C 	0.42150 0.65870 0.77630 -0.27300
N 	N 	0.48860 0.60270 0.05200 -0.19700
C 	C 	0.56800 0.59690 0.07320 -0.25900
N 	N 	0.27590 0.59800 0.15730 -0.19300
C 	C 	0.25610 0.58920 0.23420 -0.25200
N 	N 	0.87700 0.63330 0.96250 -0.19100
C 	C 	0.82620 0.61360 0.01110 -0.25800
N 	N 	0.29970 0.54480 0.94540 -0.19300
C 	C 	0.28760 0.50450 0.92380 -0.21600
N 	N 	0.36880 0.70380 0.05700 -0.20500
C 	C 	0.40100 0.73860 0.08300 -0.30100
N 	N 	0.04640 0.51600 0.75120 -0.11400
C 	C 	0.06780 0.55110 0.81180 0.04600
H 	H 	0.09530 0.58020 0.78850 -0.02100
C 	C 	0.05000 0.54550 0.91190 -0.14200
H 	H 	0.06630 0.57110 0.95420 0.05400
C 	C 	0.00910 0.50320 0.94970 0.03600
C 	C 	0.98920 0.46580 0.88000 -0.15500
H 	H 	0.96340 0.43570 0.90040 0.05000
C 	C 	0.00800 0.47380 0.78270 0.04200
H 	H 	0.99290 0.44920 0.73760 -0.02400
C 	C 	0.06860 0.52220 0.64260 -0.28900
H 	H 	0.08720 0.55590 0.63000 0.08100
H 	H 	0.01170 0.51420 0.60500 0.09000
H 	H 	0.12080 0.50050 0.62450 0.08800
Cd	Cd	0.16792 0.12519 0.00233 1.16900
Cd	Cd	0.53023 0.19251 0.86320 1.14600
Cd	Cd	0.77922 0.07675 0.10911 1.16000
N 	N 	0.31930 0.15100 0.95670 -0.20600
C 	C 	0.39020 0.16710 0.92540 -0.27700
N 	N 	0.10560 0.14340 0.84600 -0.19000
C 	C 	0.07850 0.15870 0.77630 -0.27200
N 	N 	0.01140 0.10270 0.05200 -0.20300
C 	C 	0.93200 0.09690 0.07320 -0.25400
N 	N 	0.22410 0.09800 0.15730 -0.19400
C 	C 	0.24390 0.08920 0.23420 -0.25200
N 	N 	0.62300 0.13330 0.96250 -0.18700
C 	C 	0.67380 0.11360 0.01110 -0.26400
N 	N 	0.20030 0.04480 0.94540 -0.19200
C 	C 	0.21240 0.00450 0.92380 -0.21500
N 	N 	0.13120 0.20380 0.05700 -0.20500
C 	C 	0.09900 0.23860 0.08300 -0.30300
N 	N 	0.45360 0.01600 0.75120 -0.11000
C 	C 	0.43220 0.05110 0.81180 0.04300
H 	H 	0.40470 0.08020 0.78850 -0.02100
C 	C 	0.45000 0.04550 0.91190 -0.13900
H 	H 	0.43370 0.07110 0.95420 0.05200
C 	C 	0.49090 0.00320 0.94970 0.03000
C 	C 	0.51080 0.96580 0.88000 -0.14200
H 	H 	0.53660 0.93570 0.90040 0.04600
C 	C 	0.49200 0.97380 0.78270 0.02700
H 	H 	0.50710 0.94920 0.73760 -0.01800
C 	C 	0.43140 0.02220 0.64260 -0.29100
H 	H 	0.41280 0.05590 0.63000 0.08100
H 	H 	0.48830 0.01420 0.60500 0.09100
H 	H 	0.37920 0.00050 0.62450 0.08900
Cd	Cd	0.33208 0.87481 0.50233 1.17100
Cd	Cd	0.96977 0.80749 0.36320 1.14600
Cd	Cd	0.72078 0.92325 0.60911 1.16000
N 	N 	0.18070 0.84900 0.45670 -0.20700
C 	C 	0.10980 0.83290 0.42540 -0.27800
N 	N 	0.39440 0.85660 0.34600 -0.19200
C 	C 	0.42150 0.84130 0.27630 -0.27300
N 	N 	0.48860 0.89730 0.55200 -0.19700
C 	C 	0.56800 0.90310 0.57320 -0.26000
N 	N 	0.27590 0.90200 0.65730 -0.19300
C 	C 	0.25610 0.91080 0.73420 -0.25100
N 	N 	0.87700 0.86670 0.46250 -0.18700
C 	C 	0.82620 0.88640 0.51110 -0.26400
N 	N 	0.29970 0.95520 0.44540 -0.19300
C 	C 	0.28760 0.99550 0.42380 -0.21600
N 	N 	0.36880 0.79620 0.55700 -0.20400
C 	C 	0.40100 0.76140 0.58300 -0.30100
N 	N 	0.04640 0.98400 0.25120 -0.10600
C 	C 	0.06780 0.94890 0.31180 0.03900
H 	H 	0.09530 0.91980 0.28850 -0.02000
C 	C 	0.05000 0.95450 0.41190 -0.13500
H 	H 	0.06630 0.92890 0.45420 0.05100
C 	C 	0.00910 0.99680 0.44970 0.02500
C 	C 	0.98920 0.03420 0.38000 -0.12700
H 	H 	0.96340 0.06430 0.40040 0.04200
C 	C 	0.00800 0.02620 0.28270 0.00900
H 	H 	0.99290 0.05080 0.23760 -0.00900
C 	C 	0.06860 0.97780 0.14260 -0.29300
H 	H 	0.08720 0.94410 0.13000 0.08100
H 	H 	0.01170 0.98580 0.10500 0.09100
H 	H 	0.12080 0.99950 0.12450 0.08900
Cd	Cd	0.83208 0.62519 0.49767 1.17100
Cd	Cd	0.46977 0.69251 0.63680 1.14600
Cd	Cd	0.22078 0.57675 0.39089 1.16000
N 	N 	0.68070 0.65100 0.54330 -0.20700
C 	C 	0.60980 0.66710 0.57460 -0.27800
N 	N 	0.89440 0.64340 0.65400 -0.19200
C 	C 	0.92150 0.65870 0.72370 -0.27400
N 	N 	0.98860 0.60270 0.44800 -0.19700
C 	C 	0.06800 0.59690 0.42680 -0.25900
N 	N 	0.77590 0.59800 0.34270 -0.19300
C 	C 	0.75610 0.58920 0.26580 -0.25100
N 	N 	0.37700 0.63330 0.53750 -0.18700
C 	C 	0.32620 0.61360 0.48890 -0.26400
N 	N 	0.79970 0.54480 0.55460 -0.19300
C 	C 	0.78760 0.50450 0.57620 -0.21600
N 	N 	0.86880 0.70380 0.44300 -0.20400
C 	C 	0.90100 0.73860 0.41700 -0.30100
N 	N 	0.54640 0.51600 0.74880 -0.11100
C 	C 	0.56780 0.55110 0.68820 0.04200
H 	H 	0.59530 0.58020 0.71150 -0.02100
C 	C 	0.55000 0.54550 0.58810 -0.13800
H 	H 	0.56630 0.57110 0.54580 0.05200
C 	C 	0.50910 0.50320 0.55030 0.02900
C 	C 	0.48920 0.46580 0.62000 -0.14000
H 	H 	0.46340 0.43570 0.59960 0.04600
C 	C 	0.50800 0.47380 0.71730 0.02800
H 	H 	0.49290 0.44920 0.76240 -0.01800
C 	C 	0.56860 0.52220 0.85740 -0.29100
H 	H 	0.58720 0.55590 0.87000 0.08100
H 	H 	0.51170 0.51420 0.89500 0.09100
H 	H 	0.62080 0.50050 0.87550 0.08800
Cd	Cd	0.66792 0.37481 0.99767 1.17000
Cd	Cd	0.03023 0.30749 0.13680 1.14500
Cd	Cd	0.27922 0.42325 0.89089 1.16000
N 	N 	0.81930 0.34900 0.04330 -0.20700
C 	C 	0.89020 0.33290 0.07460 -0.27500
N 	N 	0.60560 0.35660 0.15400 -0.19100
C 	C 	0.57850 0.34130 0.22370 -0.27300
N 	N 	0.51140 0.39730 0.94800 -0.19700
C 	C 	0.43200 0.40310 0.92680 -0.25900
N 	N 	0.72410 0.40200 0.84270 -0.19300
C 	C 	0.74390 0.41080 0.76580 -0.25200
N 	N 	0.12300 0.36670 0.03750 -0.19100
C 	C 	0.17380 0.38640 0.98890 -0.25800
N 	N 	0.70030 0.45520 0.05460 -0.19300
C 	C 	0.71240 0.49550 0.07620 -0.21600
N 	N 	0.63120 0.29620 0.94300 -0.20500
C 	C 	0.59900 0.26140 0.91700 -0.30100
N 	N 	0.95360 0.48400 0.24880 -0.11400
C 	C 	0.93220 0.44890 0.18820 0.04600
H 	H 	0.90470 0.41980 0.21150 -0.02100
C 	C 	0.95000 0.45450 0.08810 -0.14200
H 	H 	0.93370 0.42890 0.04580 0.05400
C 	C 	0.99090 0.49680 0.05030 0.03600
C 	C 	0.01080 0.53420 0.12000 -0.15500
H 	H 	0.03660 0.56430 0.09960 0.05000
C 	C 	0.99200 0.52620 0.21730 0.04200
H 	H 	0.00710 0.55080 0.26240 -0.02400
C 	C 	0.93140 0.47780 0.35740 -0.28900
H 	H 	0.91280 0.44410 0.37000 0.08100
H 	H 	0.98830 0.48580 0.39500 0.09000
H 	H 	0.87920 0.49950 0.37550 0.08800
