data_crystal

_cell_length_a 13.71800
_cell_length_b 27.23200
_cell_length_c 13.63900
_cell_angle_alpha 90.00000
_cell_angle_beta  90.00000
_cell_angle_gamma 90.00000

_symmetry_space_group_name_	'P 1'
_symmetry_space_group_name_H-M	'P 1'

loop_
_symmetry_equiv_pos_as_xyz
  x,y,z

loop_
_atom_site_label
_atom_site_type_symbol
_atom_site_fract_x
_atom_site_fract_y
_atom_site_fract_z
_atom_site_charge
Cd	Cd	0.83374 0.87367 0.99599 1.16600
Cd	Cd	0.47048 0.80752 0.13743 1.14300
Cd	Cd	0.22245 0.92530 0.89199 1.15800
N 	N 	0.68030 0.84980 0.04290 -0.20600
C 	C 	0.61030 0.83490 0.07510 -0.27400
N 	N 	0.89420 0.85810 0.15380 -0.19400
C 	C 	0.92010 0.84170 0.22450 -0.27700
N 	N 	0.99080 0.89820 0.94820 -0.20400
C 	C 	0.06980 0.90450 0.92750 -0.25400
N 	N 	0.77920 0.90140 0.84100 -0.19600
C 	C 	0.75710 0.91070 0.76540 -0.24900
N 	N 	0.37710 0.86690 0.03740 -0.18600
C 	C 	0.32770 0.88760 0.99000 -0.26100
N 	N 	0.80010 0.95530 0.05000 -0.18600
C 	C 	0.78810 0.99400 0.07360 -0.21200
N 	N 	0.87110 0.79490 0.94470 -0.20600
C 	C 	0.90240 0.76070 0.91710 -0.30700
N 	N 	0.54570 0.98410 0.24890 -0.10700
C 	C 	0.56640 0.94870 0.18560 0.04000
H 	H 	0.59250 0.91940 0.20870 -0.01900
C 	C 	0.55030 0.95410 0.08640 -0.14300
H 	H 	0.56820 0.92940 0.04300 0.05500
C 	C 	0.50820 0.99590 0.05290 0.03400
C 	C 	0.48800 0.03340 0.11960 -0.14300
H 	H 	0.45990 0.06250 0.09770 0.04700
C 	C 	0.50800 0.02760 0.21600 0.01900
H 	H 	0.49660 0.05310 0.25980 -0.01600
C 	C 	0.56460 0.97700 0.35720 -0.28700
H 	H 	0.51790 0.95430 0.38360 0.08800
H 	H 	0.55880 0.00800 0.39030 0.09000
H 	H 	0.62920 0.96420 0.36650 0.07900
Cd	Cd	0.66626 0.12633 0.49599 1.16800
Cd	Cd	0.02952 0.19248 0.63743 1.14400
Cd	Cd	0.27755 0.07470 0.39199 1.15900
N 	N 	0.81970 0.15020 0.54290 -0.20600
C 	C 	0.88970 0.16510 0.57510 -0.27300
N 	N 	0.60580 0.14190 0.65380 -0.19400
C 	C 	0.57990 0.15830 0.72450 -0.27600
N 	N 	0.50920 0.10180 0.44820 -0.19800
C 	C 	0.43020 0.09550 0.42750 -0.26000
N 	N 	0.72080 0.09860 0.34100 -0.19400
C 	C 	0.74290 0.08930 0.26540 -0.24700
N 	N 	0.12290 0.13310 0.53740 -0.18600
C 	C 	0.17230 0.11240 0.49000 -0.26100
N 	N 	0.69990 0.04470 0.55000 -0.18800
C 	C 	0.71190 0.00600 0.57360 -0.21300
N 	N 	0.62890 0.20510 0.44470 -0.20500
C 	C 	0.59760 0.23930 0.41710 -0.30500
N 	N 	0.95430 0.01590 0.74890 -0.10400
C 	C 	0.93360 0.05130 0.68560 0.03700
H 	H 	0.90750 0.08060 0.70870 -0.01800
C 	C 	0.94970 0.04590 0.58640 -0.13900
H 	H 	0.93180 0.07060 0.54300 0.05300
C 	C 	0.99180 0.00410 0.55290 0.02700
C 	C 	0.01200 0.96660 0.61960 -0.12600
H 	H 	0.04010 0.93750 0.59770 0.04200
C 	C 	0.99200 0.97240 0.71600 0.00000
H 	H 	0.00340 0.94690 0.75980 -0.00700
C 	C 	0.93540 0.02300 0.85720 -0.27800
H 	H 	0.98210 0.04570 0.88360 0.08500
H 	H 	0.94120 0.99200 0.89030 0.08500
H 	H 	0.87080 0.03580 0.86650 0.07700
Cd	Cd	0.16626 0.37367 0.50401 1.16800
Cd	Cd	0.52952 0.30752 0.36257 1.14400
Cd	Cd	0.77755 0.42530 0.60801 1.15900
N 	N 	0.31970 0.34980 0.45710 -0.20600
C 	C 	0.38970 0.33490 0.42490 -0.27400
N 	N 	0.10580 0.35810 0.34620 -0.19400
C 	C 	0.07990 0.34170 0.27550 -0.27800
N 	N 	0.00920 0.39820 0.55180 -0.19800
C 	C 	0.93020 0.40450 0.57250 -0.26000
N 	N 	0.22080 0.40140 0.65900 -0.19400
C 	C 	0.24290 0.41070 0.73460 -0.24700
N 	N 	0.62290 0.36690 0.46260 -0.18500
C 	C 	0.67230 0.38760 0.51000 -0.26100
N 	N 	0.19990 0.45530 0.45000 -0.18800
C 	C 	0.21190 0.49400 0.42640 -0.21300
N 	N 	0.12890 0.29490 0.55530 -0.20500
C 	C 	0.09760 0.26070 0.58290 -0.30500
N 	N 	0.45430 0.48410 0.25110 -0.10700
C 	C 	0.43360 0.44870 0.31440 0.03900
H 	H 	0.40750 0.41940 0.29130 -0.01900
C 	C 	0.44970 0.45410 0.41360 -0.14200
H 	H 	0.43180 0.42940 0.45700 0.05400
C 	C 	0.49180 0.49590 0.44710 0.03200
C 	C 	0.51200 0.53340 0.38040 -0.14000
H 	H 	0.54010 0.56250 0.40230 0.04600
C 	C 	0.49200 0.52760 0.28400 0.01900
H 	H 	0.50340 0.55310 0.24020 -0.01600
C 	C 	0.43540 0.47700 0.14280 -0.28800
H 	H 	0.48210 0.45430 0.11640 0.08800
H 	H 	0.44120 0.50800 0.10970 0.09100
H 	H 	0.37080 0.46420 0.13350 0.07900
Cd	Cd	0.33374 0.62633 0.00401 1.16800
Cd	Cd	0.97048 0.69248 0.86257 1.14300
Cd	Cd	0.72245 0.57470 0.10801 1.15900
N 	N 	0.18030 0.65020 0.95710 -0.20600
C 	C 	0.11030 0.66510 0.92490 -0.27100
N 	N 	0.39420 0.64190 0.84620 -0.19400
C 	C 	0.42010 0.65830 0.77550 -0.27600
N 	N 	0.49080 0.60180 0.05180 -0.19800
C 	C 	0.56980 0.59550 0.07250 -0.25900
N 	N 	0.27920 0.59860 0.15900 -0.19500
C 	C 	0.25710 0.58930 0.23460 -0.24800
N 	N 	0.87710 0.63310 0.96260 -0.19000
C 	C 	0.82770 0.61240 0.01000 -0.25500
N 	N 	0.30010 0.54470 0.95000 -0.18700
C 	C 	0.28810 0.50600 0.92640 -0.21300
N 	N 	0.37110 0.70510 0.05530 -0.20500
C 	C 	0.40240 0.73930 0.08290 -0.30500
N 	N 	0.04570 0.51590 0.75110 -0.11000
C 	C 	0.06640 0.55130 0.81440 0.04300
H 	H 	0.09250 0.58060 0.79130 -0.02000
C 	C 	0.05030 0.54590 0.91360 -0.14700
H 	H 	0.06820 0.57060 0.95700 0.05600
C 	C 	0.00820 0.50410 0.94710 0.03900
C 	C 	0.98800 0.46660 0.88040 -0.15600
H 	H 	0.95990 0.43750 0.90230 0.05000
C 	C 	0.00800 0.47240 0.78400 0.03300
H 	H 	0.99660 0.44690 0.74020 -0.02300
C 	C 	0.06460 0.52300 0.64280 -0.28700
H 	H 	0.01790 0.54570 0.61640 0.08800
H 	H 	0.05880 0.49200 0.60970 0.09100
H 	H 	0.12920 0.53580 0.63350 0.07900
Cd	Cd	0.16626 0.12633 0.00401 1.16700
Cd	Cd	0.52952 0.19248 0.86257 1.14400
Cd	Cd	0.77755 0.07470 0.10801 1.15900
N 	N 	0.31970 0.15020 0.95710 -0.20500
C 	C 	0.38970 0.16510 0.92490 -0.27300
N 	N 	0.10580 0.14190 0.84620 -0.19300
C 	C 	0.07990 0.15830 0.77550 -0.27600
N 	N 	0.00920 0.10180 0.05180 -0.20300
C 	C 	0.93020 0.09550 0.07250 -0.25300
N 	N 	0.22080 0.09860 0.15900 -0.19500
C 	C 	0.24290 0.08930 0.23460 -0.24800
N 	N 	0.62290 0.13310 0.96260 -0.18500
C 	C 	0.67230 0.11240 0.01000 -0.26100
N 	N 	0.19990 0.04470 0.95000 -0.18600
C 	C 	0.21190 0.00600 0.92640 -0.21200
N 	N 	0.12890 0.20510 0.05530 -0.20600
C 	C 	0.09760 0.23930 0.08290 -0.30700
N 	N 	0.45430 0.01590 0.75110 -0.10700
C 	C 	0.43360 0.05130 0.81440 0.04000
H 	H 	0.40750 0.08060 0.79130 -0.01900
C 	C 	0.44970 0.04590 0.91360 -0.14300
H 	H 	0.43180 0.07060 0.95700 0.05500
C 	C 	0.49180 0.00410 0.94710 0.03400
C 	C 	0.51200 0.96660 0.88040 -0.14300
H 	H 	0.54010 0.93750 0.90230 0.04700
C 	C 	0.49200 0.97240 0.78400 0.01900
H 	H 	0.50340 0.94690 0.74020 -0.01600
C 	C 	0.43540 0.02300 0.64280 -0.28700
H 	H 	0.48210 0.04570 0.61640 0.08800
H 	H 	0.44120 0.99200 0.60970 0.09000
H 	H 	0.37080 0.03580 0.63350 0.07900
Cd	Cd	0.33374 0.87367 0.50401 1.16800
Cd	Cd	0.97048 0.80752 0.36257 1.14400
Cd	Cd	0.72245 0.92530 0.60801 1.15900
N 	N 	0.18030 0.84980 0.45710 -0.20600
C 	C 	0.11030 0.83490 0.42490 -0.27300
N 	N 	0.39420 0.85810 0.34620 -0.19400
C 	C 	0.42010 0.84170 0.27550 -0.27600
N 	N 	0.49080 0.89820 0.55180 -0.19800
C 	C 	0.56980 0.90450 0.57250 -0.26000
N 	N 	0.27920 0.90140 0.65900 -0.19400
C 	C 	0.25710 0.91070 0.73460 -0.24700
N 	N 	0.87710 0.86690 0.46260 -0.18600
C 	C 	0.82770 0.88760 0.51000 -0.26100
N 	N 	0.30010 0.95530 0.45000 -0.18800
C 	C 	0.28810 0.99400 0.42640 -0.21300
N 	N 	0.37110 0.79490 0.55530 -0.20500
C 	C 	0.40240 0.76070 0.58290 -0.30500
N 	N 	0.04570 0.98410 0.25110 -0.10400
C 	C 	0.06640 0.94870 0.31440 0.03700
H 	H 	0.09250 0.91940 0.29130 -0.01800
C 	C 	0.05030 0.95410 0.41360 -0.13900
H 	H 	0.06820 0.92940 0.45700 0.05300
C 	C 	0.00820 0.99590 0.44710 0.02700
C 	C 	0.98800 0.03340 0.38040 -0.12600
H 	H 	0.95990 0.06250 0.40230 0.04200
C 	C 	0.00800 0.02760 0.28400 0.00000
H 	H 	0.99660 0.05310 0.24020 -0.00700
C 	C 	0.06460 0.97700 0.14280 -0.27800
H 	H 	0.01790 0.95430 0.11640 0.08500
H 	H 	0.05880 0.00800 0.10970 0.08500
H 	H 	0.12920 0.96420 0.13350 0.07700
Cd	Cd	0.83374 0.62633 0.49599 1.16800
Cd	Cd	0.47048 0.69248 0.63743 1.14400
Cd	Cd	0.22245 0.57470 0.39199 1.15900
N 	N 	0.68030 0.65020 0.54290 -0.20600
C 	C 	0.61030 0.66510 0.57510 -0.27400
N 	N 	0.89420 0.64190 0.65380 -0.19400
C 	C 	0.92010 0.65830 0.72450 -0.27800
N 	N 	0.99080 0.60180 0.44820 -0.19800
C 	C 	0.06980 0.59550 0.42750 -0.26000
N 	N 	0.77920 0.59860 0.34100 -0.19400
C 	C 	0.75710 0.58930 0.26540 -0.24700
N 	N 	0.37710 0.63310 0.53740 -0.18500
C 	C 	0.32770 0.61240 0.49000 -0.26100
N 	N 	0.80010 0.54470 0.55000 -0.18800
C 	C 	0.78810 0.50600 0.57360 -0.21300
N 	N 	0.87110 0.70510 0.44470 -0.20500
C 	C 	0.90240 0.73930 0.41710 -0.30500
N 	N 	0.54570 0.51590 0.74890 -0.10700
C 	C 	0.56640 0.55130 0.68560 0.03900
H 	H 	0.59250 0.58060 0.70870 -0.01900
C 	C 	0.55030 0.54590 0.58640 -0.14200
H 	H 	0.56820 0.57060 0.54300 0.05400
C 	C 	0.50820 0.50410 0.55290 0.03200
C 	C 	0.48800 0.46660 0.61960 -0.14000
H 	H 	0.45990 0.43750 0.59770 0.04600
C 	C 	0.50800 0.47240 0.71600 0.01900
H 	H 	0.49660 0.44690 0.75980 -0.01600
C 	C 	0.56460 0.52300 0.85720 -0.28800
H 	H 	0.51790 0.54570 0.88360 0.08800
H 	H 	0.55880 0.49200 0.89030 0.09100
H 	H 	0.62920 0.53580 0.86650 0.07900
Cd	Cd	0.66626 0.37367 0.99599 1.16800
Cd	Cd	0.02952 0.30752 0.13743 1.14300
Cd	Cd	0.27755 0.42530 0.89199 1.15900
N 	N 	0.81970 0.34980 0.04290 -0.20600
C 	C 	0.88970 0.33490 0.07510 -0.27100
N 	N 	0.60580 0.35810 0.15380 -0.19400
C 	C 	0.57990 0.34170 0.22450 -0.27600
N 	N 	0.50920 0.39820 0.94820 -0.19800
C 	C 	0.43020 0.40450 0.92750 -0.25900
N 	N 	0.72080 0.40140 0.84100 -0.19500
C 	C 	0.74290 0.41070 0.76540 -0.24800
N 	N 	0.12290 0.36690 0.03740 -0.19000
C 	C 	0.17230 0.38760 0.99000 -0.25500
N 	N 	0.69990 0.45530 0.05000 -0.18700
C 	C 	0.71190 0.49400 0.07360 -0.21300
N 	N 	0.62890 0.29490 0.94470 -0.20500
C 	C 	0.59760 0.26070 0.91710 -0.30500
N 	N 	0.95430 0.48410 0.24890 -0.11000
C 	C 	0.93360 0.44870 0.18560 0.04300
H 	H 	0.90750 0.41940 0.20870 -0.02000
C 	C 	0.94970 0.45410 0.08640 -0.14700
H 	H 	0.93180 0.42940 0.04300 0.05600
C 	C 	0.99180 0.49590 0.05290 0.03900
C 	C 	0.01200 0.53340 0.11960 -0.15600
H 	H 	0.04010 0.56250 0.09770 0.05000
C 	C 	0.99200 0.52760 0.21600 0.03300
H 	H 	0.00340 0.55310 0.25980 -0.02300
C 	C 	0.93540 0.47700 0.35720 -0.28700
H 	H 	0.98210 0.45430 0.38360 0.08800
H 	H 	0.94120 0.50800 0.39030 0.09100
H 	H 	0.87080 0.46420 0.36650 0.07900
