data_crystal

_cell_length_a 13.06420
_cell_length_b 13.58840
_cell_length_c 19.29670
_cell_angle_alpha 90.00000
_cell_angle_beta  90.00000
_cell_angle_gamma 90.00000

_symmetry_space_group_name_	'P 1'
_symmetry_space_group_name_H-M	'P 1'

loop_
_symmetry_equiv_pos_as_xyz
  x,y,z

loop_
_atom_site_label
_atom_site_type_symbol
_atom_site_fract_x
_atom_site_fract_y
_atom_site_fract_z
_atom_site_charge
Cd	Cd	0.70620 0.37537 0.22219 1.20500
Cd	Cd	0.29380 0.87537 0.77781 1.20000
Cd	Cd	0.20620 0.37537 0.27781 1.20500
Cd	Cd	0.79380 0.87537 0.72219 1.20100
H 	H 	0.07750 0.76040 0.78860 -0.03600
H 	H 	0.67290 0.44190 0.48920 0.12900
H 	H 	0.78640 0.15010 0.86840 0.04000
H 	H 	0.63990 0.40090 0.90920 0.04400
H 	H 	0.50510 0.20860 0.55130 0.13900
H 	H 	0.99490 0.70860 0.05130 0.15700
H 	H 	0.43910 0.54250 0.37810 0.13500
H 	H 	0.04050 0.20220 0.13320 0.12200
H 	H 	0.54360 0.41720 0.78970 0.09100
H 	H 	0.60560 0.51540 0.68780 0.08500
H 	H 	0.18450 0.69620 0.37290 0.02200
H 	H 	0.46180 0.62830 0.77710 0.28900
H 	H 	0.06090 0.04250 0.87810 0.08600
H 	H 	0.04390 0.55160 0.95350 0.15600
H 	H 	0.92250 0.26040 0.21140 -0.03000
H 	H 	0.95610 0.05160 0.04650 0.11600
H 	H 	0.57750 0.76040 0.71140 -0.03500
H 	H 	0.65240 0.23550 0.92170 0.05300
H 	H 	0.53820 0.12830 0.22290 0.29200
H 	H 	0.96180 0.62830 0.72290 0.28900
H 	H 	0.70130 0.55740 0.85560 0.04400
H 	H 	0.54390 0.55160 0.54650 0.15900
H 	H 	0.13990 0.40090 0.59080 0.04400
H 	H 	0.14270 0.02180 0.43020 0.14100
H 	H 	0.81550 0.19620 0.62710 0.04400
H 	H 	0.52040 0.48790 0.28120 -0.04800
H 	H 	0.09470 0.25870 0.98930 0.13500
H 	H 	0.47960 0.98790 0.71880 -0.02500
H 	H 	0.34760 0.73550 0.07830 0.06600
H 	H 	0.42250 0.26040 0.28860 -0.03100
H 	H 	0.04120 0.97290 0.03370 0.09600
H 	H 	0.24530 0.38480 0.10980 -0.03600
H 	H 	0.15240 0.23550 0.57830 0.05300
H 	H 	0.22320 0.60170 0.87330 0.02900
H 	H 	0.27680 0.10170 0.37330 -0.04800
H 	H 	0.36240 0.30690 0.51830 0.12500
H 	H 	0.32710 0.94190 0.51080 0.09600
H 	H 	0.01810 0.81910 0.28690 0.07300
H 	H 	0.89440 0.01540 0.18780 0.16000
H 	H 	0.09010 0.73070 0.19030 0.09600
H 	H 	0.86640 0.59360 0.02880 -0.03800
H 	H 	0.68450 0.69620 0.12710 0.02500
H 	H 	0.07030 0.11290 0.73140 0.28600
H 	H 	0.98190 0.31910 0.71310 0.09200
H 	H 	0.95880 0.47290 0.96630 0.15400
H 	H 	0.45950 0.70220 0.63320 0.13300
H 	H 	0.74530 0.38480 0.39020 -0.03600
H 	H 	0.97960 0.98790 0.78120 -0.02400
H 	H 	0.74750 0.86260 0.56290 -0.05500
H 	H 	0.40990 0.23070 0.69030 0.08400
H 	H 	0.25470 0.88480 0.60980 -0.02000
H 	H 	0.64270 0.02180 0.06980 0.13000
H 	H 	0.57030 0.11290 0.76860 0.28600
H 	H 	0.45610 0.05160 0.45350 0.11400
H 	H 	0.72320 0.60170 0.62670 0.02900
H 	H 	0.02040 0.48790 0.21880 -0.04900
H 	H 	0.39440 0.01540 0.31220 0.16900
H 	H 	0.36010 0.90090 0.09080 0.02600
H 	H 	0.79870 0.05740 0.35560 0.02900
H 	H 	0.62780 0.85190 0.07820 -0.00300
H 	H 	0.77680 0.10170 0.12670 -0.03900
H 	H 	0.13760 0.80690 0.01830 0.13500
H 	H 	0.56090 0.04250 0.62190 0.08700
H 	H 	0.87220 0.35190 0.57820 0.04400
H 	H 	0.25250 0.36260 0.43710 -0.04700
H 	H 	0.63760 0.80690 0.48170 0.13300
H 	H 	0.92970 0.61290 0.26860 0.28700
H 	H 	0.93910 0.54250 0.12190 0.13600
H 	H 	0.86240 0.30690 0.98170 0.12500
H 	H 	0.62450 0.11350 0.44900 -0.00500
H 	H 	0.87550 0.61350 0.94900 -0.04000
H 	H 	0.28640 0.15010 0.63160 0.04100
H 	H 	0.59010 0.73070 0.30970 0.09600
H 	H 	0.54120 0.97290 0.46630 0.09300
H 	H 	0.90990 0.23070 0.80970 0.08400
H 	H 	0.54050 0.20220 0.36680 0.12500
H 	H 	0.03820 0.12830 0.27710 0.29200
H 	H 	0.36640 0.59360 0.47120 -0.04300
H 	H 	0.48190 0.31910 0.78690 0.09100
H 	H 	0.10560 0.51540 0.81220 0.08500
H 	H 	0.45640 0.91720 0.21030 0.07000
H 	H 	0.63360 0.09360 0.52880 -0.00300
H 	H 	0.49490 0.70860 0.44870 0.16000
H 	H 	0.20130 0.55740 0.64440 0.04400
H 	H 	0.21360 0.65010 0.13160 0.02400
H 	H 	0.45880 0.47290 0.53370 0.15600
H 	H 	0.00510 0.20860 0.94870 0.13700
H 	H 	0.31550 0.19620 0.87290 0.04500
H 	H 	0.17290 0.44190 0.01080 0.13000
H 	H 	0.24750 0.86260 0.93710 -0.05600
H 	H 	0.71360 0.65010 0.36840 0.02300
H 	H 	0.95640 0.91720 0.28970 0.06900
H 	H 	0.29870 0.05740 0.14440 0.03000
H 	H 	0.04360 0.41720 0.71030 0.09100
H 	H 	0.35730 0.52180 0.93020 0.05200
H 	H 	0.40530 0.75870 0.48930 0.16000
H 	H 	0.12450 0.11350 0.05100 -0.00300
H 	H 	0.37220 0.35190 0.92180 0.04400
H 	H 	0.59470 0.25870 0.51070 0.13700
H 	H 	0.75250 0.36260 0.06290 -0.04700
H 	H 	0.82710 0.94190 0.98920 0.09500
H 	H 	0.95950 0.70220 0.86680 0.13300
H 	H 	0.75470 0.88480 0.89020 -0.02000
H 	H 	0.90530 0.75870 0.01070 0.15700
H 	H 	0.13360 0.09360 0.97120 0.00100
H 	H 	0.85730 0.52180 0.56980 0.05200
H 	H 	0.86010 0.90090 0.40920 0.02500
H 	H 	0.84760 0.73550 0.42170 0.06600
H 	H 	0.12780 0.85190 0.42180 -0.01000
H 	H 	0.42970 0.61290 0.23140 0.28800
H 	H 	0.37550 0.61350 0.55100 -0.04400
H 	H 	0.51810 0.81910 0.21310 0.07500
C 	C 	0.69390 0.36740 0.88840 -0.04000
C 	C 	0.83430 0.87720 0.17460 0.14600
C 	C 	0.69880 0.17550 0.69270 -0.16800
C 	C 	0.40320 0.82340 0.28320 -0.12300
C 	C 	0.73750 0.72830 0.15010 0.07000
C 	C 	0.44890 0.97700 0.67600 0.06600
C 	C 	0.53490 0.74690 0.54660 0.27100
C 	C 	0.81020 0.48580 0.59560 -0.06000
C 	C 	0.01800 0.73430 0.88240 -0.27900
C 	C 	0.18980 0.98580 0.40440 -0.27600
C 	C 	0.76730 0.42080 0.84930 -0.02200
C 	C 	0.90890 0.52200 0.76570 0.22600
C 	C 	0.31710 0.91750 0.61250 0.11200
C 	C 	0.21710 0.71820 0.13570 0.03400
C 	C 	0.18890 0.82950 0.92260 0.16300
C 	C 	0.31020 0.48580 0.90440 -0.06000
C 	C 	0.49800 0.01100 0.61790 -0.13700
C 	C 	0.98200 0.23430 0.11760 -0.25400
C 	C 	0.04620 0.49830 0.05370 0.26400
C 	C 	0.32310 0.57280 0.70580 -0.16800
C 	C 	0.19390 0.36740 0.61160 -0.04000
C 	C 	0.75570 0.52340 0.83580 0.01600
C 	C 	0.74910 0.33090 0.64060 -0.02200
C 	C 	0.81710 0.91750 0.88750 0.11100
C 	C 	0.24910 0.33090 0.85940 -0.02100
C 	C 	0.07490 0.92300 0.22150 -0.12100
C 	C 	0.05110 0.47700 0.17600 0.16100
C 	C 	0.15930 0.48190 0.83330 -0.10400
C 	C 	0.23270 0.92080 0.15070 -0.07600
C 	C 	0.79900 0.76950 0.39590 -0.09500
C 	C 	0.67690 0.07280 0.29420 -0.19800
C 	C 	0.91400 0.61010 0.99190 0.21900
C 	C 	0.84070 0.98190 0.16670 -0.28500
C 	C 	0.19650 0.17960 0.22420 0.34500
C 	C 	0.38360 0.72300 0.27430 0.25400
C 	C 	0.48200 0.23430 0.38240 -0.25900
C 	C 	0.31110 0.32950 0.42260 0.15400
C 	C 	0.64830 0.87050 0.31910 0.08900
C 	C 	0.80610 0.86740 0.38840 0.00400
C 	C 	0.87690 0.29630 0.02830 -0.27400
C 	C 	0.17690 0.07280 0.20580 -0.19700
C 	C 	0.35580 0.26600 0.67140 -0.10200
C 	C 	0.62310 0.79630 0.52830 -0.30000
C 	C 	0.82310 0.57280 0.79420 -0.16800
C 	C 	0.25090 0.83090 0.35940 -0.12300
C 	C 	0.88360 0.72300 0.22570 0.25200
C 	C 	0.18290 0.41750 0.11250 0.16800
C 	C 	0.00810 0.03030 0.01390 -0.25700
C 	C 	0.81110 0.32950 0.07740 0.15200
C 	C 	0.54620 0.49830 0.44630 0.26600
C 	C 	0.99800 0.01100 0.88210 -0.13400
C 	C 	0.31930 0.38430 0.89900 -0.04100
C 	C 	0.09680 0.32340 0.78320 -0.06200
C 	C 	0.27090 0.03360 0.37030 0.23200
C 	C 	0.55110 0.47700 0.32400 0.16100
C 	C 	0.68070 0.88430 0.10100 0.08900
C 	C 	0.00200 0.51100 0.11790 -0.28600
C 	C 	0.45380 0.99830 0.55370 0.12700
C 	C 	0.08600 0.11010 0.00810 0.10800
C 	C 	0.69650 0.17960 0.27580 0.34600
C 	C 	0.59680 0.32340 0.71680 -0.06200
C 	C 	0.03490 0.74690 0.95340 0.26600
C 	C 	0.33430 0.87720 0.32540 0.15700
C 	C 	0.64420 0.76600 0.32860 -0.14000
C 	C 	0.40890 0.52200 0.73430 0.22700
C 	C 	0.37690 0.29630 0.47170 -0.27700
C 	C 	0.58600 0.11010 0.49190 0.11700
C 	C 	0.01220 0.37020 0.74160 -0.10700
C 	C 	0.41050 0.27000 0.33560 0.14500
C 	C 	0.80350 0.67960 0.77580 0.33500
C 	C 	0.68890 0.82950 0.57740 0.16200
C 	C 	0.85170 0.37050 0.81910 0.04700
C 	C 	0.51220 0.37020 0.75840 -0.10500
C 	C 	0.49190 0.53030 0.51390 -0.42700
C 	C 	0.14420 0.76600 0.17140 -0.14000
C 	C 	0.11640 0.22300 0.77430 0.22100
C 	C 	0.80120 0.67550 0.19270 -0.20200
C 	C 	0.25570 0.52340 0.66420 0.01600
C 	C 	0.68290 0.41750 0.38750 0.16900
C 	C 	0.51800 0.73430 0.61760 -0.28100
C 	C 	0.65930 0.48190 0.66670 -0.10400
C 	C 	0.26730 0.42080 0.65070 -0.02200
C 	C 	0.68980 0.98580 0.09560 -0.24900
C 	C 	0.30610 0.86740 0.11160 0.00300
C 	C 	0.48780 0.87020 0.24160 -0.04900
C 	C 	0.77090 0.03360 0.12970 0.20600
C 	C 	0.92510 0.42300 0.77850 -0.06500
C 	C 	0.12310 0.79630 0.97170 -0.30200
C 	C 	0.22910 0.53360 0.87030 0.00000
C 	C 	0.27790 0.56810 0.29370 0.35100
C 	C 	0.46510 0.24690 0.45340 0.24200
C 	C 	0.91050 0.27000 0.16440 0.14200
C 	C 	0.66570 0.37720 0.67460 0.04800
C 	C 	0.22210 0.06810 0.79370 0.33900
C 	C 	0.16570 0.37720 0.82540 0.04800
C 	C 	0.19880 0.17550 0.80730 -0.16700
C 	C 	0.41400 0.61010 0.50810 0.23400
C 	C 	0.74430 0.02340 0.33580 0.07200
C 	C 	0.96510 0.24690 0.04660 0.23700
C 	C 	0.46040 0.71120 0.49320 -0.43500
C 	C 	0.71710 0.71820 0.36430 0.03500
C 	C 	0.76250 0.22830 0.65010 0.01400
C 	C 	0.63920 0.45110 0.44720 -0.29600
C 	C 	0.20100 0.26950 0.60410 -0.05500
C 	C 	0.72210 0.06810 0.70630 0.33900
C 	C 	0.58950 0.77000 0.66440 0.15300
C 	C 	0.81930 0.38430 0.60100 -0.04000
C 	C 	0.34070 0.98190 0.33330 -0.30700
C 	C 	0.24430 0.02340 0.16420 0.07000
C 	C 	0.86080 0.95110 0.94720 -0.20600
C 	C 	0.99190 0.53030 0.98610 -0.41900
C 	C 	0.18070 0.88430 0.39900 0.10600
C 	C 	0.50810 0.03030 0.48610 -0.25200
C 	C 	0.23750 0.72830 0.34990 0.07600
C 	C 	0.36080 0.95110 0.55280 -0.20600
C 	C 	0.98780 0.87020 0.25840 -0.04700
C 	C 	0.78290 0.21820 0.86430 -0.00200
C 	C 	0.30120 0.67550 0.30730 -0.20500
C 	C 	0.26250 0.22830 0.84990 0.01400
C 	C 	0.90320 0.82340 0.21680 -0.11900
C 	C 	0.70100 0.26950 0.89590 -0.05400
C 	C 	0.30350 0.67960 0.72420 0.33600
C 	C 	0.59110 0.02200 0.26570 0.27000
C 	C 	0.57490 0.92300 0.27850 -0.12000
C 	C 	0.35170 0.37050 0.68090 0.04700
C 	C 	0.14830 0.87050 0.18090 0.08800
C 	C 	0.13920 0.45110 0.05280 -0.29400
C 	C 	0.03960 0.21120 0.99320 -0.35400
C 	C 	0.75090 0.83090 0.14060 -0.11200
C 	C 	0.08950 0.77000 0.83560 0.15200
C 	C 	0.96040 0.71120 0.00680 -0.42200
C 	C 	0.42510 0.42300 0.72150 -0.06600
C 	C 	0.95380 0.99830 0.94630 0.12500
C 	C 	0.94890 0.97700 0.82400 0.06400
C 	C 	0.61640 0.22300 0.72570 0.22100
C 	C 	0.53960 0.21120 0.50680 -0.36300
C 	C 	0.73270 0.92080 0.34930 -0.07700
C 	C 	0.09110 0.02200 0.23430 0.27000
C 	C 	0.28290 0.21820 0.63570 -0.00200
C 	C 	0.85580 0.26600 0.82860 -0.10200
C 	C 	0.72910 0.53360 0.62970 0.00100
C 	C 	0.29900 0.76950 0.10410 -0.09400
C 	C 	0.77790 0.56810 0.20630 0.35000
C 	C 	0.50200 0.51100 0.38210 -0.28500
N 	N 	0.36040 0.92960 0.67470 -0.24900
N 	N 	0.67420 0.81730 0.64570 -0.27600
N 	N 	0.13960 0.42960 0.17470 -0.27200
N 	N 	0.86040 0.92960 0.82530 -0.24800
N 	N 	0.82580 0.31730 0.14570 -0.26800
N 	N 	0.17420 0.81730 0.85430 -0.27600
N 	N 	0.32580 0.31730 0.35430 -0.26800
N 	N 	0.63960 0.42960 0.32530 -0.27200
O 	O 	0.05420 0.17120 0.73060 -0.43700
O 	O 	0.70730 0.52870 0.17260 -0.41600
O 	O 	0.16910 0.02180 0.74960 -0.36900
O 	O 	0.13500 0.22000 0.26670 -0.43600
O 	O 	0.44580 0.67120 0.23060 -0.44700
O 	O 	0.83090 0.52180 0.25040 -0.38200
O 	O 	0.22940 0.72500 0.69850 -0.34800
O 	O 	0.66910 0.02180 0.75040 -0.36900
O 	O 	0.29270 0.02870 0.82740 -0.40300
O 	O 	0.94580 0.67120 0.26940 -0.44600
O 	O 	0.02340 0.06970 0.27540 -0.45100
O 	O 	0.63500 0.22000 0.23330 -0.43600
O 	O 	0.47660 0.56970 0.77540 -0.44300
O 	O 	0.33090 0.52180 0.24960 -0.38200
O 	O 	0.77060 0.22500 0.30150 -0.34800
O 	O 	0.55420 0.17120 0.76940 -0.43700
O 	O 	0.86500 0.72000 0.73330 -0.43400
O 	O 	0.20730 0.52870 0.32740 -0.41600
O 	O 	0.36500 0.72000 0.76670 -0.43500
O 	O 	0.52340 0.06970 0.22460 -0.45100
O 	O 	0.97660 0.56970 0.72460 -0.44200
O 	O 	0.72940 0.72500 0.80150 -0.34800
O 	O 	0.79270 0.02870 0.67260 -0.40400
O 	O 	0.27060 0.22500 0.19850 -0.34800
