data_crystal

_cell_length_a 9.79040
_cell_length_b 14.02870
_cell_length_c 11.86510
_cell_angle_alpha 90.00000
_cell_angle_beta  104.69000
_cell_angle_gamma 90.00000

_symmetry_space_group_name_	'P 1'
_symmetry_space_group_name_H-M	'P 1'

loop_
_symmetry_equiv_pos_as_xyz
  x,y,z

loop_
_atom_site_label
_atom_site_type_symbol
_atom_site_fract_x
_atom_site_fract_y
_atom_site_fract_z
_atom_site_charge
Zn	Zn	0.37070 0.38779 0.14186 1.19800
Zn	Zn	0.58673 0.38501 0.45158 1.23200
Zn	Zn	0.99661 0.54473 0.82842 1.23300
P 	P 	0.09655 0.34971 0.92853 0.61400
P 	P 	0.70230 0.50289 0.66161 0.51800
P 	P 	0.69087 0.44587 0.21937 0.57800
O 	O 	0.69530 0.40110 0.61280 -0.43400
O 	O 	0.85700 0.54160 0.67580 -0.41900
O 	O 	0.00150 0.41760 0.88480 -0.54300
O 	O 	0.67440 0.50060 0.78180 -0.49200
O 	O 	0.25410 0.37690 0.98380 -0.50700
O 	O 	0.60540 0.56890 0.57810 -0.50600
O 	O 	0.06860 0.25070 0.91380 -0.50100
O 	O 	0.68890 0.43590 0.34480 -0.46300
O 	O 	0.56720 0.39660 0.13450 -0.46700
O 	O 	0.68000 0.55550 0.19490 -0.40900
O 	O 	0.82680 0.40940 0.19620 -0.44200
O 	O 	0.06900 0.35170 0.08920 -0.42700
H 	H 	0.69370 0.56820 0.12390 0.23000
Zn	Zn	0.12930 0.88779 0.35814 1.19900
Zn	Zn	0.91327 0.88501 0.04842 1.23200
Zn	Zn	0.50339 0.04473 0.67158 1.23500
P 	P 	0.40345 0.84971 0.57147 0.61500
P 	P 	0.79770 0.00289 0.83839 0.51700
P 	P 	0.80913 0.94587 0.28063 0.57700
O 	O 	0.80470 0.90110 0.88720 -0.43000
O 	O 	0.64300 0.04160 0.82420 -0.41800
O 	O 	0.49850 0.91760 0.61520 -0.54300
O 	O 	0.82560 0.00060 0.71820 -0.49200
O 	O 	0.24590 0.87690 0.51620 -0.50600
O 	O 	0.89460 0.06890 0.92190 -0.50700
O 	O 	0.43140 0.75070 0.58620 -0.50000
O 	O 	0.81110 0.93590 0.15520 -0.46400
O 	O 	0.93280 0.89660 0.36550 -0.46700
O 	O 	0.82000 0.05550 0.30510 -0.40500
O 	O 	0.67320 0.90940 0.30380 -0.44300
O 	O 	0.43100 0.85170 0.41080 -0.42700
H 	H 	0.80630 0.06820 0.37610 0.23000
Zn	Zn	0.62930 0.61221 0.85814 1.19900
Zn	Zn	0.41327 0.61499 0.54842 1.23300
Zn	Zn	0.00339 0.45527 0.17158 1.23400
P 	P 	0.90345 0.65029 0.07147 0.61500
P 	P 	0.29770 0.49711 0.33839 0.51900
P 	P 	0.30913 0.55413 0.78063 0.57900
O 	O 	0.30470 0.59890 0.38720 -0.43300
O 	O 	0.14300 0.45840 0.32420 -0.41800
O 	O 	0.99850 0.58240 0.11520 -0.54300
O 	O 	0.32560 0.49940 0.21820 -0.49200
O 	O 	0.74590 0.62310 0.01620 -0.50700
O 	O 	0.39460 0.43110 0.42190 -0.50600
O 	O 	0.93140 0.74930 0.08620 -0.50100
O 	O 	0.31110 0.56410 0.65520 -0.46300
O 	O 	0.43280 0.60340 0.86550 -0.46700
O 	O 	0.32000 0.44450 0.80510 -0.40900
O 	O 	0.17320 0.59060 0.80380 -0.44200
O 	O 	0.93100 0.64830 0.91080 -0.42700
H 	H 	0.30630 0.43180 0.87610 0.23000
Zn	Zn	0.87070 0.11221 0.64186 1.19900
Zn	Zn	0.08673 0.11499 0.95158 1.23200
Zn	Zn	0.49661 0.95527 0.32842 1.23500
P 	P 	0.59655 0.15029 0.42853 0.61500
P 	P 	0.20230 0.99711 0.16161 0.51700
P 	P 	0.19087 0.05413 0.71937 0.57700
O 	O 	0.19530 0.09890 0.11280 -0.43000
O 	O 	0.35700 0.95840 0.17580 -0.41800
O 	O 	0.50150 0.08240 0.38480 -0.54300
O 	O 	0.17440 0.99940 0.28180 -0.49200
O 	O 	0.75410 0.12310 0.48380 -0.50600
O 	O 	0.10540 0.93110 0.07810 -0.50700
O 	O 	0.56860 0.24930 0.41380 -0.50000
O 	O 	0.18890 0.06410 0.84480 -0.46400
O 	O 	0.06720 0.10340 0.63450 -0.46700
O 	O 	0.18000 0.94450 0.69490 -0.40500
O 	O 	0.32680 0.09060 0.69620 -0.44300
O 	O 	0.56900 0.14830 0.58920 -0.42700
H 	H 	0.19370 0.93180 0.62390 0.23000
