data_crystal

_cell_length_a 10.14500
_cell_length_b 10.88580
_cell_length_c 13.85150
_cell_angle_alpha 78.70600
_cell_angle_beta  79.29700
_cell_angle_gamma 86.25300

_symmetry_space_group_name_	'P 1'
_symmetry_space_group_name_H-M	'P 1'

loop_
_symmetry_equiv_pos_as_xyz
  x,y,z

loop_
_atom_site_label
_atom_site_type_symbol
_atom_site_fract_x
_atom_site_fract_y
_atom_site_fract_z
_atom_site_charge
Tb	Tb	0.31989 0.92335 0.29664 1.73400
C 	C 	0.59530 0.90090 0.21420 0.26900
C 	C 	0.73780 0.88550 0.16690 0.05100
C 	C 	0.84370 0.89590 0.21430 -0.14500
H 	H 	0.82680 0.91350 0.27860 0.09600
C 	C 	0.97250 0.88080 0.16790 0.13300
C 	C 	0.00030 0.85430 0.07200 -0.29900
H 	H 	0.08850 0.84700 0.03950 0.15600
C 	C 	0.89390 0.83890 0.02530 0.26300
C 	C 	0.76420 0.85830 0.07050 -0.19700
H 	H 	0.69380 0.85340 0.03710 0.13300
C 	C 	0.09210 0.89320 0.21570 0.21600
C 	C 	0.00390 0.70620 0.91100 0.18200
C 	C 	0.00890 0.66610 0.81340 0.02000
C 	C 	0.01490 0.74740 0.72220 -0.11400
H 	H 	0.01210 0.83360 0.71880 0.05500
C 	C 	0.02520 0.69770 0.63610 0.06500
H 	H 	0.03460 0.75240 0.57480 -0.03800
C 	C 	0.01610 0.49680 0.72580 0.06900
H 	H 	0.01540 0.41100 0.72750 -0.02600
C 	C 	0.01090 0.53800 0.81530 -0.11400
H 	H 	0.00870 0.48100 0.87510 0.09900
C 	C 	0.27180 0.60500 0.35310 0.46000
C 	C 	0.29980 0.52810 0.27320 -0.14000
C 	C 	0.32310 0.58270 0.17190 -0.05000
H 	H 	0.32960 0.66920 0.15330 0.05900
C 	C 	0.33660 0.51080 0.09860 0.11000
C 	C 	0.33540 0.38120 0.12590 -0.08300
H 	H 	0.34690 0.33180 0.07710 0.09300
C 	C 	0.31690 0.32520 0.22740 -0.07600
C 	C 	0.29880 0.39860 0.29970 0.03500
H 	H 	0.28570 0.36070 0.36690 0.01200
C 	C 	0.31260 0.18910 0.25250 0.31600
C 	C 	0.33370 0.51910 0.92080 0.22800
C 	C 	0.34820 0.60190 0.81890 0.00700
C 	C 	0.34800 0.73100 0.80080 -0.08800
H 	H 	0.34440 0.77430 0.85280 0.06500
C 	C 	0.35350 0.79530 0.70240 0.05800
H 	H 	0.35310 0.88240 0.69050 0.01600
C 	C 	0.35910 0.61450 0.64270 0.06000
H 	H 	0.36210 0.57400 0.58910 0.01600
C 	C 	0.35500 0.54330 0.73670 -0.09000
H 	H 	0.35660 0.45640 0.74570 0.07900
N 	N 	0.91800 0.80220 0.93020 -0.23800
H 	H 	0.87690 0.84200 0.88390 0.16400
N 	N 	0.02230 0.57430 0.63740 -0.25500
N 	N 	0.35420 0.57070 0.99700 -0.23300
H 	H 	0.38030 0.64680 0.98290 0.14000
N 	N 	0.35910 0.73870 0.62530 -0.13700
O 	O 	0.56210 0.90110 0.30790 -0.38500
O 	O 	0.50560 0.91430 0.16210 -0.38000
O 	O 	0.07250 0.90530 0.30780 -0.40800
O 	O 	0.20530 0.88880 0.16630 -0.37600
O 	O 	0.07630 0.65260 0.96870 -0.22400
O 	O 	0.32150 0.71220 0.33340 -0.51300
O 	O 	0.19930 0.56270 0.43340 -0.51200
O 	O 	0.32580 0.13060 0.33900 -0.42700
O 	O 	0.29560 0.12640 0.18900 -0.40400
O 	O 	0.30550 0.41190 0.92870 -0.23300
Tb	Tb	0.68011 0.07665 0.70336 1.74500
C 	C 	0.40470 0.09910 0.78580 0.31500
C 	C 	0.26220 0.11450 0.83310 -0.07600
C 	C 	0.15630 0.10410 0.78570 0.04200
H 	H 	0.17320 0.08650 0.72140 0.02200
C 	C 	0.02750 0.11920 0.83210 -0.15700
C 	C 	0.99970 0.14570 0.92800 0.04000
H 	H 	0.91150 0.15300 0.96050 0.05900
C 	C 	0.10610 0.16110 0.97470 0.07100
C 	C 	0.23580 0.14170 0.92950 -0.05600
H 	H 	0.30620 0.14660 0.96290 0.08900
C 	C 	0.90790 0.10680 0.78430 0.36000
C 	C 	0.99610 0.29380 0.08900 0.23500
C 	C 	0.99110 0.33390 0.18660 0.02200
C 	C 	0.98510 0.25260 0.27780 -0.10100
H 	H 	0.98790 0.16640 0.28120 0.06900
C 	C 	0.97480 0.30230 0.36390 0.07400
H 	H 	0.96540 0.24760 0.42520 -0.02500
C 	C 	0.98390 0.50320 0.27420 0.07900
H 	H 	0.98460 0.58900 0.27250 -0.01000
C 	C 	0.98910 0.46200 0.18470 -0.10300
H 	H 	0.99130 0.51900 0.12490 0.11300
C 	C 	0.72820 0.39500 0.64690 0.45900
C 	C 	0.70020 0.47190 0.72680 -0.12400
C 	C 	0.67690 0.41730 0.82810 -0.05700
H 	H 	0.67040 0.33080 0.84670 0.06800
C 	C 	0.66340 0.48920 0.90140 0.13600
C 	C 	0.66460 0.61880 0.87410 -0.08900
H 	H 	0.65310 0.66820 0.92290 0.10100
C 	C 	0.68310 0.67480 0.77260 -0.06000
C 	C 	0.70120 0.60140 0.70030 0.03300
H 	H 	0.71430 0.63930 0.63310 0.02100
C 	C 	0.68740 0.81090 0.74750 0.31900
C 	C 	0.66630 0.48090 0.07920 0.23100
C 	C 	0.65180 0.39810 0.18110 0.00700
C 	C 	0.65200 0.26900 0.19920 -0.08800
H 	H 	0.65560 0.22570 0.14720 0.06500
C 	C 	0.64650 0.20470 0.29760 0.05900
H 	H 	0.64690 0.11760 0.30950 0.01600
C 	C 	0.64090 0.38550 0.35730 0.06000
H 	H 	0.63790 0.42600 0.41090 0.01700
C 	C 	0.64500 0.45670 0.26330 -0.09000
H 	H 	0.64340 0.54360 0.25430 0.08000
N 	N 	0.08200 0.19780 0.06980 -0.24900
H 	H 	0.12310 0.15800 0.11610 0.14900
N 	N 	0.97770 0.42570 0.36260 -0.24200
N 	N 	0.64580 0.42930 0.00300 -0.24200
H 	H 	0.61970 0.35320 0.01710 0.14000
N 	N 	0.64090 0.26130 0.37470 -0.13700
O 	O 	0.43790 0.09890 0.69210 -0.40000
O 	O 	0.49440 0.08570 0.83790 -0.39100
O 	O 	0.92750 0.09470 0.69220 -0.41200
O 	O 	0.79470 0.11120 0.83370 -0.40700
O 	O 	0.92370 0.34740 0.03130 -0.22100
O 	O 	0.67850 0.28780 0.66660 -0.51100
O 	O 	0.80070 0.43730 0.56660 -0.49500
O 	O 	0.67420 0.86940 0.66100 -0.41900
O 	O 	0.70440 0.87360 0.81100 -0.39700
O 	O 	0.69450 0.58810 0.07130 -0.23400
Mn	Mn	0.00000 0.50000 0.50000 1.22300
