data_crystal

_cell_length_a 10.05450
_cell_length_b 15.29380
_cell_length_c 20.44660
_cell_angle_alpha 90.00000
_cell_angle_beta  90.00000
_cell_angle_gamma 90.00000

_symmetry_space_group_name_	'P 1'
_symmetry_space_group_name_H-M	'P 1'

loop_
_symmetry_equiv_pos_as_xyz
  x,y,z

loop_
_atom_site_label
_atom_site_type_symbol
_atom_site_fract_x
_atom_site_fract_y
_atom_site_fract_z
_atom_site_charge
Ag	Ag	0.39758 0.91127 0.58785 0.54700
Ag	Ag	0.55290 0.87012 0.47329 0.48900
Ag	Ag	0.10242 0.08873 0.08785 0.54600
Ag	Ag	0.94710 0.12988 0.97329 0.48900
Ag	Ag	0.60242 0.41127 0.41215 0.54700
Ag	Ag	0.44710 0.37012 0.52671 0.48900
Ag	Ag	0.89758 0.58873 0.91215 0.54600
Ag	Ag	0.05290 0.62988 0.02671 0.48900
Ag	Ag	0.60242 0.08873 0.41215 0.54700
Ag	Ag	0.44710 0.12988 0.52671 0.48900
Ag	Ag	0.89758 0.91127 0.91215 0.54700
Ag	Ag	0.05290 0.87012 0.02671 0.49000
Ag	Ag	0.39758 0.58873 0.58785 0.54800
Ag	Ag	0.55290 0.62988 0.47329 0.49000
Ag	Ag	0.10242 0.41127 0.08785 0.54700
Ag	Ag	0.94710 0.37012 0.97329 0.49000
Ag	Ag	0.34660 0.75000 0.65707 0.54800
Ag	Ag	0.32488 0.75000 0.46093 0.52700
Ag	Ag	0.70767 0.75000 0.55688 0.54800
Ag	Ag	0.15340 0.25000 0.15707 0.54700
Ag	Ag	0.17512 0.25000 0.96093 0.52800
Ag	Ag	0.79233 0.25000 0.05688 0.55000
Ag	Ag	0.65340 0.25000 0.34293 0.54800
Ag	Ag	0.67512 0.25000 0.53907 0.52700
Ag	Ag	0.29233 0.25000 0.44312 0.54800
Ag	Ag	0.84660 0.75000 0.84293 0.54700
Ag	Ag	0.82488 0.75000 0.03907 0.52800
Ag	Ag	0.20767 0.75000 0.94312 0.55000
C 	C 	0.46790 0.78970 0.55330 -0.30200
C 	C 	0.22920 0.93800 0.70810 0.31200
C 	C 	0.15040 0.99110 0.76010 0.42500
C 	C 	0.23040 0.01100 0.82260 0.41600
C 	C 	0.15990 0.07250 0.87150 0.29600
C 	C 	0.83370 0.93260 0.48550 0.30700
C 	C 	0.96100 0.98640 0.47000 0.39600
C 	C 	0.03210 0.21030 0.05330 -0.30300
C 	C 	0.27080 0.06200 0.20810 0.31300
C 	C 	0.34960 0.00890 0.26010 0.42000
C 	C 	0.26960 0.98900 0.32260 0.42100
C 	C 	0.34010 0.92750 0.37150 0.29500
C 	C 	0.66630 0.06740 0.98550 0.30700
C 	C 	0.53900 0.01360 0.97000 0.39900
C 	C 	0.53210 0.28970 0.44670 -0.30200
C 	C 	0.77080 0.43800 0.29190 0.31200
C 	C 	0.84960 0.49110 0.23990 0.42100
C 	C 	0.76960 0.51100 0.17740 0.41900
C 	C 	0.84010 0.57250 0.12850 0.29500
C 	C 	0.16630 0.43260 0.51450 0.30700
C 	C 	0.03900 0.48640 0.53000 0.39900
C 	C 	0.96790 0.71030 0.94670 -0.30300
C 	C 	0.72920 0.56200 0.79190 0.31200
C 	C 	0.65040 0.50890 0.73990 0.42100
C 	C 	0.73040 0.48900 0.67740 0.41900
C 	C 	0.65990 0.42750 0.62850 0.29500
C 	C 	0.33370 0.56740 0.01450 0.30700
C 	C 	0.46100 0.51360 0.03000 0.40000
C 	C 	0.53210 0.21030 0.44670 -0.30200
C 	C 	0.77080 0.06200 0.29190 0.31200
C 	C 	0.84960 0.00890 0.23990 0.42500
C 	C 	0.76960 0.98900 0.17740 0.41600
C 	C 	0.84010 0.92750 0.12850 0.29600
C 	C 	0.16630 0.06740 0.51450 0.30700
C 	C 	0.03900 0.01360 0.53000 0.39600
C 	C 	0.96790 0.78970 0.94670 -0.30300
C 	C 	0.72920 0.93800 0.79190 0.31300
C 	C 	0.65040 0.99110 0.73990 0.42000
C 	C 	0.73040 0.01100 0.67740 0.42100
C 	C 	0.65990 0.07250 0.62850 0.29500
C 	C 	0.33370 0.93260 0.01450 0.30700
C 	C 	0.46100 0.98640 0.03000 0.39900
C 	C 	0.46790 0.71030 0.55330 -0.30200
C 	C 	0.22920 0.56200 0.70810 0.31200
C 	C 	0.15040 0.50890 0.76010 0.42100
C 	C 	0.23040 0.48900 0.82260 0.41900
C 	C 	0.15990 0.42750 0.87150 0.29500
C 	C 	0.83370 0.56740 0.48550 0.30700
C 	C 	0.96100 0.51360 0.47000 0.39900
C 	C 	0.03210 0.28970 0.05330 -0.30300
C 	C 	0.27080 0.43800 0.20810 0.31200
C 	C 	0.34960 0.49110 0.26010 0.42100
C 	C 	0.26960 0.51100 0.32260 0.41900
C 	C 	0.34010 0.57250 0.37150 0.29500
C 	C 	0.66630 0.43260 0.98550 0.30700
C 	C 	0.53900 0.48640 0.97000 0.40000
O 	O 	0.28080 0.98130 0.66400 -0.19400
O 	O 	0.23130 0.85810 0.71690 -0.22400
O 	O 	0.06150 0.04090 0.89990 -0.31300
O 	O 	0.20700 0.14730 0.87620 -0.19700
O 	O 	0.72840 0.97210 0.48190 -0.31100
O 	O 	0.85480 0.85310 0.49760 -0.21900
O 	O 	0.21920 0.01870 0.16400 -0.19600
O 	O 	0.26870 0.14190 0.21690 -0.22500
O 	O 	0.43850 0.95910 0.39990 -0.31300
O 	O 	0.29300 0.85270 0.37620 -0.19700
O 	O 	0.77160 0.02790 0.98190 -0.31000
O 	O 	0.64520 0.14690 0.99760 -0.21800
O 	O 	0.71920 0.48130 0.33600 -0.19500
O 	O 	0.76870 0.35810 0.28310 -0.22500
O 	O 	0.93850 0.54090 0.10010 -0.31200
O 	O 	0.79300 0.64730 0.12380 -0.19700
O 	O 	0.27160 0.47210 0.51810 -0.31000
O 	O 	0.14520 0.35310 0.50240 -0.21900
O 	O 	0.78080 0.51870 0.83600 -0.19600
O 	O 	0.73130 0.64190 0.78310 -0.22500
O 	O 	0.56150 0.45910 0.60010 -0.31300
O 	O 	0.70700 0.35270 0.62380 -0.19700
O 	O 	0.22840 0.52790 0.01810 -0.31000
O 	O 	0.35480 0.64690 0.00240 -0.21800
O 	O 	0.71920 0.01870 0.33600 -0.19400
O 	O 	0.76870 0.14190 0.28310 -0.22400
O 	O 	0.93850 0.95910 0.10010 -0.31300
O 	O 	0.79300 0.85270 0.12380 -0.19700
O 	O 	0.27160 0.02790 0.51810 -0.31100
O 	O 	0.14520 0.14690 0.50240 -0.21900
O 	O 	0.78080 0.98130 0.83600 -0.19600
O 	O 	0.73130 0.85810 0.78310 -0.22500
O 	O 	0.56150 0.04090 0.60010 -0.31300
O 	O 	0.70700 0.14730 0.62380 -0.19700
O 	O 	0.22840 0.97210 0.01810 -0.31000
O 	O 	0.35480 0.85310 0.00240 -0.21800
O 	O 	0.28080 0.51870 0.66400 -0.19500
O 	O 	0.23130 0.64190 0.71690 -0.22500
O 	O 	0.06150 0.45910 0.89990 -0.31200
O 	O 	0.20700 0.35270 0.87620 -0.19700
O 	O 	0.72840 0.52790 0.48190 -0.31000
O 	O 	0.85480 0.64690 0.49760 -0.21900
O 	O 	0.21920 0.48130 0.16400 -0.19600
O 	O 	0.26870 0.35810 0.21690 -0.22500
O 	O 	0.43850 0.54090 0.39990 -0.31300
O 	O 	0.29300 0.64730 0.37620 -0.19700
O 	O 	0.77160 0.47210 0.98190 -0.31000
O 	O 	0.64520 0.35310 0.99760 -0.21800
F 	F 	0.10990 0.06850 0.73593 -0.34300
F 	F 	0.03930 0.94590 0.77680 -0.40600
F 	F 	0.34570 0.04580 0.80300 -0.32400
F 	F 	0.25890 0.93480 0.85250 -0.41100
F 	F 	0.93710 0.05860 0.43400 -0.39600
F 	F 	0.04950 0.93810 0.43360 -0.35700
F 	F 	0.39010 0.93150 0.23593 -0.34100
F 	F 	0.46070 0.05410 0.27680 -0.40600
F 	F 	0.15430 0.95420 0.30300 -0.32400
F 	F 	0.24110 0.06520 0.35250 -0.41400
F 	F 	0.56290 0.94140 0.93400 -0.39800
F 	F 	0.45050 0.06190 0.93360 -0.35900
F 	F 	0.89010 0.56850 0.26407 -0.34100
F 	F 	0.96070 0.44590 0.22320 -0.40600
F 	F 	0.65430 0.54580 0.19700 -0.32400
F 	F 	0.74110 0.43480 0.14750 -0.41200
F 	F 	0.06290 0.55860 0.56600 -0.39800
F 	F 	0.95050 0.43810 0.56640 -0.35900
F 	F 	0.60990 0.43150 0.76407 -0.34200
F 	F 	0.53930 0.55410 0.72320 -0.40700
F 	F 	0.84570 0.45420 0.69700 -0.32500
F 	F 	0.75890 0.56520 0.64750 -0.41300
F 	F 	0.43710 0.44140 0.06600 -0.39800
F 	F 	0.54950 0.56190 0.06640 -0.35900
F 	F 	0.89010 0.93150 0.26407 -0.34300
F 	F 	0.96070 0.05410 0.22320 -0.40600
F 	F 	0.65430 0.95420 0.19700 -0.32400
F 	F 	0.74110 0.06520 0.14750 -0.41100
F 	F 	0.06290 0.94140 0.56600 -0.39600
F 	F 	0.95050 0.06190 0.56640 -0.35700
F 	F 	0.60990 0.06850 0.76407 -0.34100
F 	F 	0.53930 0.94590 0.72320 -0.40600
F 	F 	0.84570 0.04580 0.69700 -0.32400
F 	F 	0.75890 0.93480 0.64750 -0.41400
F 	F 	0.43710 0.05860 0.06600 -0.39800
F 	F 	0.54950 0.93810 0.06640 -0.35900
F 	F 	0.10990 0.43150 0.73593 -0.34100
F 	F 	0.03930 0.55410 0.77680 -0.40600
F 	F 	0.34570 0.45420 0.80300 -0.32400
F 	F 	0.25890 0.56520 0.85250 -0.41200
F 	F 	0.93710 0.44140 0.43400 -0.39800
F 	F 	0.04950 0.56190 0.43360 -0.35900
F 	F 	0.39010 0.56850 0.23593 -0.34200
F 	F 	0.46070 0.44590 0.27680 -0.40700
F 	F 	0.15430 0.54580 0.30300 -0.32500
F 	F 	0.24110 0.43480 0.35250 -0.41300
F 	F 	0.56290 0.55860 0.93400 -0.39800
F 	F 	0.45050 0.43810 0.93360 -0.35900
