data_crystal

_cell_length_a 10.55690
_cell_length_b 14.84590
_cell_length_c 19.06630
_cell_angle_alpha 90.00000
_cell_angle_beta  90.00000
_cell_angle_gamma 90.00000

_symmetry_space_group_name_	'P 1'
_symmetry_space_group_name_H-M	'P 1'

loop_
_symmetry_equiv_pos_as_xyz
  x,y,z

loop_
_atom_site_label
_atom_site_type_symbol
_atom_site_fract_x
_atom_site_fract_y
_atom_site_fract_z
_atom_site_charge
Ag	Ag	0.64884 0.14975 0.35239 0.53400
Ag	Ag	0.87268 0.10244 0.45174 0.52300
Ag	Ag	0.14740 0.84965 0.01560 0.56800
Ag	Ag	0.35584 0.88891 0.91752 0.53300
Ag	Ag	0.35116 0.35025 0.85239 0.53100
Ag	Ag	0.12732 0.39756 0.95174 0.52800
Ag	Ag	0.85260 0.65035 0.51560 0.52900
Ag	Ag	0.64416 0.61109 0.41752 0.51100
Ag	Ag	0.35116 0.64975 0.85239 0.53200
Ag	Ag	0.12732 0.60244 0.95174 0.52800
Ag	Ag	0.85260 0.34965 0.51560 0.52900
Ag	Ag	0.64416 0.38891 0.41752 0.51200
Ag	Ag	0.64884 0.85025 0.35239 0.58100
Ag	Ag	0.87268 0.89756 0.45174 0.60500
Ag	Ag	0.14740 0.15035 0.01560 0.52300
Ag	Ag	0.35584 0.11109 0.91752 0.46100
Ag	Ag	0.56787 0.00000 0.26558 0.46700
Ag	Ag	0.58957 0.00000 0.45139 0.45500
Ag	Ag	0.86943 0.00000 0.25131 0.54300
Ag	Ag	0.03389 -0.00000 0.08398 0.42700
Ag	Ag	0.08674 -0.00000 0.91582 0.41200
Ag	Ag	0.31139 -0.00000 0.13732 0.49400
Ag	Ag	0.51993 0.00000 0.00289 0.51700
Ag	Ag	0.43213 0.50000 0.76558 0.52400
Ag	Ag	0.41043 0.50000 0.95139 0.50000
Ag	Ag	0.13057 0.50000 0.75131 0.59700
Ag	Ag	0.96611 0.50000 0.58398 0.50200
Ag	Ag	0.91326 0.50000 0.41582 0.50800
Ag	Ag	0.68861 0.50000 0.63732 0.57400
Ag	Ag	0.48007 0.50000 0.50289 0.56300
C 	C 	0.92200 0.17880 0.14070 0.28300
C 	C 	0.85030 0.24140 0.19070 0.42300
C 	C 	0.91730 0.25940 0.26080 0.38000
C 	C 	0.85010 0.32450 0.31290 0.29800
C 	C 	0.44200 0.82030 0.22190 0.31200
C 	C 	0.35400 0.76220 0.17270 0.40700
C 	C 	0.41600 0.74460 0.10170 0.40100
C 	C 	0.34190 0.68050 0.05460 0.27700
C 	C 	0.42030 0.19060 0.44010 0.30400
C 	C 	0.30000 0.24060 0.46290 0.38300
C 	C 	0.20240 0.25890 0.40590 0.42500
C 	C 	0.08080 0.30730 0.43250 0.30200
C 	C 	0.07800 0.32120 0.64070 0.27800
C 	C 	0.14970 0.25860 0.69070 0.42600
C 	C 	0.08270 0.24060 0.76080 0.37700
C 	C 	0.14990 0.17550 0.81290 0.30300
C 	C 	0.55800 0.67970 0.72190 0.32300
C 	C 	0.64600 0.73780 0.67270 0.39700
C 	C 	0.58400 0.75540 0.60170 0.40900
C 	C 	0.65810 0.81950 0.55460 0.26400
C 	C 	0.57970 0.30940 0.94010 0.30000
C 	C 	0.70000 0.25940 0.96290 0.35100
C 	C 	0.79760 0.24110 0.90590 0.42600
C 	C 	0.91920 0.19270 0.93250 0.29900
C 	C 	0.07800 0.67880 0.64070 0.27900
C 	C 	0.14970 0.74140 0.69070 0.42200
C 	C 	0.08270 0.75940 0.76080 0.39300
C 	C 	0.14990 0.82450 0.81290 0.28700
C 	C 	0.55800 0.32030 0.72190 0.32200
C 	C 	0.64600 0.26220 0.67270 0.39900
C 	C 	0.58400 0.24460 0.60170 0.39600
C 	C 	0.65810 0.18050 0.55460 0.28000
C 	C 	0.57970 0.69060 0.94010 0.30100
C 	C 	0.70000 0.74060 0.96290 0.34800
C 	C 	0.79760 0.75890 0.90590 0.43700
C 	C 	0.91920 0.80730 0.93250 0.28000
C 	C 	0.92200 0.82120 0.14070 0.27000
C 	C 	0.85030 0.75860 0.19070 0.43600
C 	C 	0.91730 0.74060 0.26080 0.37500
C 	C 	0.85010 0.67550 0.31290 0.30000
C 	C 	0.44200 0.17970 0.22190 0.32600
C 	C 	0.35400 0.23780 0.17270 0.39400
C 	C 	0.41600 0.25540 0.10170 0.40600
C 	C 	0.34190 0.31950 0.05460 0.27400
C 	C 	0.42030 0.80940 0.44010 0.28600
C 	C 	0.30000 0.75940 0.46290 0.39600
C 	C 	0.20240 0.74110 0.40590 0.42100
C 	C 	0.08080 0.69270 0.43250 0.30700
C 	C 	0.72200 -0.00000 0.33600 -0.34900
C 	C 	0.79800 -0.00000 0.38340 -0.30900
C 	C 	0.21050 1.00000 0.02710 -0.13800
C 	C 	0.31180 1.00000 0.99620 -0.27300
C 	C 	0.27800 0.50000 0.83600 -0.31400
C 	C 	0.20200 0.50000 0.88340 -0.24700
C 	C 	0.78950 0.50000 0.52710 -0.33700
C 	C 	0.68820 0.50000 0.49620 -0.26500
O 	O 	0.89900 0.09420 0.14470 -0.30700
O 	O 	0.99630 0.21540 0.09890 -0.17900
O 	O 	0.75700 0.29140 0.34480 -0.32200
O 	O 	0.89230 0.40060 0.31720 -0.22400
O 	O 	0.44930 0.90040 0.20290 -0.22600
O 	O 	0.49100 0.78360 0.27300 -0.17500
O 	O 	0.25270 0.71070 0.02040 -0.29500
O 	O 	0.37930 0.60000 0.05490 -0.17600
O 	O 	0.51550 0.23960 0.42600 -0.27400
O 	O 	0.41280 0.10810 0.43480 -0.26300
O 	O 	0.09350 0.38860 0.44500 -0.24700
O 	O 	0.98570 0.26040 0.44090 -0.28000
O 	O 	0.10100 0.40580 0.64470 -0.28100
O 	O 	0.00370 0.28460 0.59890 -0.18600
O 	O 	0.24300 0.20860 0.84480 -0.33700
O 	O 	0.10770 0.09940 0.81720 -0.26600
O 	O 	0.55070 0.59960 0.70290 -0.30900
O 	O 	0.50900 0.71640 0.77300 -0.18500
O 	O 	0.74730 0.78930 0.52040 -0.30600
O 	O 	0.62070 0.90000 0.55490 -0.13100
O 	O 	0.48450 0.26040 0.92600 -0.28900
O 	O 	0.58720 0.39190 0.93480 -0.24500
O 	O 	0.90650 0.11140 0.94500 -0.29400
O 	O 	0.01430 0.23960 0.94090 -0.29300
O 	O 	0.10100 0.59420 0.64470 -0.28100
O 	O 	0.00370 0.71540 0.59890 -0.17300
O 	O 	0.24300 0.79140 0.84480 -0.31400
O 	O 	0.10770 0.90060 0.81720 -0.16100
O 	O 	0.55070 0.40040 0.70290 -0.30900
O 	O 	0.50900 0.28360 0.77300 -0.19900
O 	O 	0.74730 0.21070 0.52040 -0.32900
O 	O 	0.62070 0.10000 0.55490 -0.23600
O 	O 	0.48450 0.73960 0.92600 -0.27800
O 	O 	0.58720 0.60810 0.93480 -0.24600
O 	O 	0.90650 0.88860 0.94500 -0.20600
O 	O 	0.01430 0.76040 0.94090 -0.28000
O 	O 	0.89900 0.90580 0.14470 -0.19600
O 	O 	0.99630 0.78460 0.09890 -0.16000
O 	O 	0.75700 0.70860 0.34480 -0.32000
O 	O 	0.89230 0.59940 0.31720 -0.22500
O 	O 	0.44930 0.09960 0.20290 -0.33500
O 	O 	0.49100 0.21640 0.27300 -0.19700
O 	O 	0.25270 0.28930 0.02040 -0.29800
O 	O 	0.37930 0.40000 0.05490 -0.17600
O 	O 	0.51550 0.76040 0.42600 -0.26100
O 	O 	0.41280 0.89190 0.43480 -0.16500
O 	O 	0.09350 0.61140 0.44500 -0.24900
O 	O 	0.98570 0.73960 0.44090 -0.27200
F 	F 	0.82520 0.32150 0.16250 -0.33100
F 	F 	0.73590 0.20350 0.20670 -0.42300
F 	F 	0.03450 0.28800 0.24470 -0.32700
F 	F 	0.93600 0.17630 0.29330 -0.45400
F 	F 	0.33090 0.68090 0.20350 -0.32600
F 	F 	0.24040 0.80360 0.16300 -0.41000
F 	F 	0.53450 0.71190 0.11330 -0.31800
F 	F 	0.42880 0.82430 0.06860 -0.44500
F 	F 	0.33030 0.31950 0.49490 -0.39500
F 	F 	0.23940 0.19120 0.51440 -0.34900
F 	F 	0.17440 0.18070 0.37560 -0.39900
F 	F 	0.26110 0.31100 0.35780 -0.36000
F 	F 	0.17480 0.17850 0.66250 -0.35500
F 	F 	0.26410 0.29650 0.70670 -0.42500
F 	F 	0.96550 0.21200 0.74470 -0.33900
F 	F 	0.06400 0.32370 0.79330 -0.44700
F 	F 	0.66910 0.81910 0.70350 -0.30600
F 	F 	0.75960 0.69640 0.66300 -0.42600
F 	F 	0.46550 0.78810 0.61330 -0.31900
F 	F 	0.57120 0.67570 0.56860 -0.48100
F 	F 	0.66970 0.18050 0.99490 -0.42100
F 	F 	0.76060 0.30880 0.01440 -0.29800
F 	F 	0.82560 0.31930 0.87560 -0.39000
F 	F 	0.73890 0.18900 0.85780 -0.37400
F 	F 	0.17480 0.82150 0.66250 -0.31300
F 	F 	0.26410 0.70350 0.70670 -0.41900
F 	F 	0.96550 0.78800 0.74470 -0.32100
F 	F 	0.06400 0.67630 0.79330 -0.44900
F 	F 	0.66910 0.18090 0.70350 -0.34600
F 	F 	0.75960 0.30360 0.66300 -0.43100
F 	F 	0.46550 0.21190 0.61330 -0.33900
F 	F 	0.57120 0.32430 0.56860 -0.47900
F 	F 	0.66970 0.81950 0.99490 -0.38800
F 	F 	0.76060 0.69120 0.01440 -0.29400
F 	F 	0.82560 0.68070 0.87560 -0.39200
F 	F 	0.73890 0.81100 0.85780 -0.34400
F 	F 	0.82520 0.67850 0.16250 -0.33300
F 	F 	0.73590 0.79650 0.20670 -0.40400
F 	F 	0.03450 0.71200 0.24470 -0.31900
F 	F 	0.93600 0.82370 0.29330 -0.41800
F 	F 	0.33090 0.31910 0.20350 -0.32500
F 	F 	0.24040 0.19640 0.16300 -0.43500
F 	F 	0.53450 0.28810 0.11330 -0.32400
F 	F 	0.42880 0.17570 0.06860 -0.48100
F 	F 	0.33030 0.68050 0.49490 -0.39600
F 	F 	0.23940 0.80880 0.51440 -0.32000
F 	F 	0.17440 0.81930 0.37560 -0.36100
F 	F 	0.26110 0.68900 0.35780 -0.35700
