data_crystal

_cell_length_a 12.34800
_cell_length_b 14.80200
_cell_length_c 15.87790
_cell_angle_alpha 90.00000
_cell_angle_beta  107.93100
_cell_angle_gamma 90.00000

_symmetry_space_group_name_	'P 1'
_symmetry_space_group_name_H-M	'P 1'

loop_
_symmetry_equiv_pos_as_xyz
  x,y,z

loop_
_atom_site_label
_atom_site_type_symbol
_atom_site_fract_x
_atom_site_fract_y
_atom_site_fract_z
_atom_site_charge
Mn	Mn	0.31838 0.08040 0.79617 1.18700
Mn	Mn	0.16979 0.07837 0.20224 1.18800
Mn	Mn	0.18162 0.58040 0.70383 1.18800
Mn	Mn	0.33021 0.57837 0.29776 1.18800
Mn	Mn	0.68162 0.91960 0.20383 1.18700
Mn	Mn	0.83021 0.92163 0.79776 1.18800
Mn	Mn	0.81838 0.41960 0.29617 1.18800
Mn	Mn	0.66979 0.42163 0.70224 1.18800
Nb	Nb	0.74544 0.20821 0.99855 1.25900
Nb	Nb	0.75456 0.70821 0.50145 1.26200
Nb	Nb	0.25456 0.79179 0.00145 1.25900
Nb	Nb	0.24544 0.29179 0.49855 1.26200
H 	H 	0.02400 0.16280 0.94660 0.10600
H 	H 	0.38270 0.31080 0.07400 0.10100
H 	H 	0.11260 0.24080 0.74640 0.00700
H 	H 	0.96970 0.26400 0.82140 -0.00300
H 	H 	0.18590 0.08000 0.94840 -0.04600
H 	H 	0.39520 0.05760 0.12780 -0.01800
H 	H 	0.48640 0.17150 0.06660 0.00800
H 	H 	0.23040 0.27880 0.13150 -0.05000
H 	H 	0.47600 0.66280 0.55340 0.10700
H 	H 	0.11730 0.81080 0.42600 0.10200
H 	H 	0.38740 0.74080 0.75360 0.00700
H 	H 	0.53030 0.76400 0.67860 -0.00300
H 	H 	0.31410 0.58000 0.55160 -0.04500
H 	H 	0.10480 0.55760 0.37220 -0.01900
H 	H 	0.01360 0.67150 0.43340 0.00800
H 	H 	0.26960 0.77880 0.36850 -0.04900
H 	H 	0.97600 0.83720 0.05340 0.10600
H 	H 	0.61730 0.68920 0.92600 0.10100
H 	H 	0.88740 0.75920 0.25360 0.00700
H 	H 	0.03030 0.73600 0.17860 -0.00300
H 	H 	0.81410 0.92000 0.05160 -0.04600
H 	H 	0.60480 0.94240 0.87220 -0.01800
H 	H 	0.51360 0.82850 0.93340 0.00800
H 	H 	0.76960 0.72120 0.86850 -0.05000
H 	H 	0.52400 0.33720 0.44660 0.10700
H 	H 	0.88270 0.18920 0.57400 0.10200
H 	H 	0.61260 0.25920 0.24640 0.00700
H 	H 	0.46970 0.23600 0.32140 -0.00300
H 	H 	0.68590 0.42000 0.44840 -0.04500
H 	H 	0.89520 0.44240 0.62780 -0.01900
H 	H 	0.98640 0.32850 0.56660 0.00800
H 	H 	0.73040 0.22120 0.63150 -0.04900
C 	C 	0.11080 0.21150 0.79780 -0.03900
C 	C 	0.03130 0.22460 0.83820 0.01900
C 	C 	0.15150 0.12430 0.90740 0.10900
C 	C 	0.37340 0.11800 0.12100 -0.01100
C 	C 	0.42460 0.17950 0.08760 -0.00200
C 	C 	0.28340 0.23750 0.12390 0.11400
C 	C 	0.57170 0.15365 0.92380 -0.15200
C 	C 	0.91885 0.15174 0.07195 -0.14500
C 	C 	0.78564 0.09897 0.91404 -0.16200
C 	C 	0.69445 0.26986 0.86235 -0.16300
C 	C 	0.87121 0.31489 0.99081 -0.19400
C 	C 	0.70733 0.09658 0.08133 -0.15900
C 	C 	0.62486 0.31872 0.00656 -0.19000
C 	C 	0.79583 0.26752 0.13583 -0.16400
C 	C 	0.38920 0.71150 0.70220 -0.03900
C 	C 	0.46870 0.72460 0.66180 0.02000
C 	C 	0.34850 0.62430 0.59260 0.11000
C 	C 	0.12660 0.61800 0.37900 -0.01100
C 	C 	0.07540 0.67950 0.41240 -0.00200
C 	C 	0.21660 0.73750 0.37610 0.11400
C 	C 	0.92830 0.65365 0.57620 -0.15200
C 	C 	0.58115 0.65174 0.42805 -0.15400
C 	C 	0.71436 0.59897 0.58596 -0.16000
C 	C 	0.80555 0.76986 0.63765 -0.16300
C 	C 	0.62879 0.81489 0.50919 -0.19200
C 	C 	0.79267 0.59658 0.41867 -0.16200
C 	C 	0.87514 0.81872 0.49344 -0.19300
C 	C 	0.70417 0.76752 0.36417 -0.16600
C 	C 	0.88920 0.78850 0.20220 -0.03900
C 	C 	0.96870 0.77540 0.16180 0.01900
C 	C 	0.84850 0.87570 0.09260 0.10900
C 	C 	0.62660 0.88200 0.87900 -0.01100
C 	C 	0.57540 0.82050 0.91240 -0.00200
C 	C 	0.71660 0.76250 0.87610 0.11400
C 	C 	0.42830 0.84635 0.07620 -0.15200
C 	C 	0.08115 0.84826 0.92805 -0.14500
C 	C 	0.21436 0.90103 0.08596 -0.16200
C 	C 	0.30555 0.73014 0.13765 -0.16300
C 	C 	0.12879 0.68511 0.00919 -0.19400
C 	C 	0.29267 0.90342 0.91867 -0.15900
C 	C 	0.37514 0.68128 0.99344 -0.19000
C 	C 	0.20417 0.73248 0.86417 -0.16400
C 	C 	0.61080 0.28850 0.29780 -0.03900
C 	C 	0.53130 0.27540 0.33820 0.02000
C 	C 	0.65150 0.37570 0.40740 0.11000
C 	C 	0.87340 0.38200 0.62100 -0.01100
C 	C 	0.92460 0.32050 0.58760 -0.00200
C 	C 	0.78340 0.26250 0.62390 0.11400
C 	C 	0.07170 0.34635 0.42380 -0.15200
C 	C 	0.41885 0.34826 0.57195 -0.15400
C 	C 	0.28564 0.40103 0.41404 -0.16000
C 	C 	0.19445 0.23014 0.36235 -0.16300
C 	C 	0.37121 0.18511 0.49081 -0.19200
C 	C 	0.20733 0.40342 0.58133 -0.16200
C 	C 	0.12486 0.18128 0.50656 -0.19300
C 	C 	0.29583 0.23248 0.63583 -0.16600
N 	N 	0.18887 0.14908 0.84287 -0.27200
N 	N 	0.05960 0.16860 0.90810 -0.21900
N 	N 	0.28502 0.15218 0.14462 -0.27200
N 	N 	0.36740 0.25820 0.09040 -0.20800
N 	N 	0.48220 0.12826 0.88512 -0.23700
N 	N 	0.00862 0.12530 0.10769 -0.24100
N 	N 	0.80667 0.04263 0.87237 -0.24000
N 	N 	0.67190 0.30549 0.79500 -0.23200
N 	N 	0.93674 0.36705 0.98444 -0.10200
N 	N 	0.69087 0.03966 0.12447 -0.24200
N 	N 	0.56493 0.37568 0.01283 -0.10600
N 	N 	0.81541 0.30273 0.20341 -0.22900
N 	N 	0.31113 0.64908 0.65713 -0.27100
N 	N 	0.44040 0.66860 0.59190 -0.21900
N 	N 	0.21498 0.65218 0.35538 -0.27200
N 	N 	0.13260 0.75820 0.40960 -0.20800
N 	N 	0.01780 0.62826 0.61488 -0.23500
N 	N 	0.49138 0.62530 0.39231 -0.23700
N 	N 	0.69333 0.54263 0.62763 -0.24000
N 	N 	0.82810 0.80549 0.70500 -0.23200
N 	N 	0.56326 0.86705 0.51556 -0.10100
N 	N 	0.80913 0.53966 0.37553 -0.24400
N 	N 	0.93507 0.87568 0.48717 -0.10700
N 	N 	0.68459 0.80273 0.29659 -0.23000
N 	N 	0.81113 0.85092 0.15713 -0.27200
N 	N 	0.94040 0.83140 0.09190 -0.21900
N 	N 	0.71498 0.84782 0.85538 -0.27200
N 	N 	0.63260 0.74180 0.90960 -0.20800
N 	N 	0.51780 0.87174 0.11488 -0.23700
N 	N 	0.99138 0.87470 0.89231 -0.24100
N 	N 	0.19333 0.95737 0.12763 -0.24000
N 	N 	0.32810 0.69451 0.20500 -0.23200
N 	N 	0.06326 0.63295 0.01556 -0.10200
N 	N 	0.30913 0.96034 0.87553 -0.24200
N 	N 	0.43507 0.62432 0.98717 -0.10600
N 	N 	0.18459 0.69727 0.79659 -0.22900
N 	N 	0.68887 0.35092 0.34287 -0.27100
N 	N 	0.55960 0.33140 0.40810 -0.21900
N 	N 	0.78502 0.34782 0.64462 -0.27200
N 	N 	0.86740 0.24180 0.59040 -0.20800
N 	N 	0.98220 0.37174 0.38512 -0.23500
N 	N 	0.50862 0.37470 0.60769 -0.23700
N 	N 	0.30667 0.45737 0.37237 -0.24000
N 	N 	0.17190 0.19451 0.29500 -0.23200
N 	N 	0.43674 0.13295 0.48444 -0.10100
N 	N 	0.19087 0.46034 0.62447 -0.24400
N 	N 	0.06493 0.12432 0.51283 -0.10700
N 	N 	0.31541 0.19727 0.70341 -0.23000
