data_crystal

_cell_length_a 12.69740
_cell_length_b 16.73090
_cell_length_c 14.80760
_cell_angle_alpha 90.00000
_cell_angle_beta  91.45200
_cell_angle_gamma 90.00000

_symmetry_space_group_name_	'P 1'
_symmetry_space_group_name_H-M	'P 1'

loop_
_symmetry_equiv_pos_as_xyz
  x,y,z

loop_
_atom_site_label
_atom_site_type_symbol
_atom_site_fract_x
_atom_site_fract_y
_atom_site_fract_z
_atom_site_charge
Sm	Sm	0.37690 0.19836 0.05535 1.91600
O 	O 	0.32690 0.07150 0.13620 -0.41700
O 	O 	0.37860 0.17290 0.21940 -0.45900
O 	O 	0.52250 0.73280 0.06450 -0.47700
O 	O 	0.69290 0.71690 0.07970 -0.59400
O 	O 	0.29130 0.88560 0.44380 -0.51400
O 	O 	0.14430 0.83010 0.38550 -0.52300
N 	N 	0.32690 0.96900 0.28730 -0.05400
N 	N 	0.40870 0.84700 0.26790 -0.16800
C 	C 	0.34740 0.10060 0.21290 0.35400
C 	C 	0.33320 0.05450 0.29900 -0.24000
H 	H 	0.39170 0.06650 0.34010 0.08100
H 	H 	0.26930 0.07280 0.32700 0.09800
C 	C 	0.60180 0.71380 0.11260 0.46600
C 	C 	0.58860 0.68880 0.21030 -0.31200
H 	H 	0.57770 0.63150 0.21310 0.12300
H 	H 	0.65240 0.70140 0.24480 0.13000
C 	C 	0.22170 0.87690 0.38400 0.52300
C 	C 	0.22820 0.92710 0.29770 -0.33100
H 	H 	0.21690 0.89230 0.24600 0.13800
H 	H 	0.17150 0.96600 0.29720 0.13200
C 	C 	0.41480 0.92680 0.26800 0.15600
Sm	Sm	0.87690 0.69836 0.05535 1.90800
O 	O 	0.82690 0.57150 0.13620 -0.41700
O 	O 	0.87860 0.67290 0.21940 -0.45900
O 	O 	0.02250 0.23280 0.06450 -0.47400
O 	O 	0.19290 0.21690 0.07970 -0.59300
O 	O 	0.79130 0.38560 0.44380 -0.51400
O 	O 	0.64430 0.33010 0.38550 -0.52300
N 	N 	0.82690 0.46900 0.28730 -0.05400
N 	N 	0.90870 0.34700 0.26790 -0.17100
C 	C 	0.84740 0.60060 0.21290 0.35400
C 	C 	0.83320 0.55450 0.29900 -0.23900
H 	H 	0.89170 0.56650 0.34010 0.08000
H 	H 	0.76930 0.57280 0.32700 0.09700
C 	C 	0.10180 0.21380 0.11260 0.46600
C 	C 	0.08860 0.18880 0.21030 -0.31300
H 	H 	0.07770 0.13150 0.21310 0.12500
H 	H 	0.15240 0.20140 0.24480 0.13000
C 	C 	0.72170 0.37690 0.38400 0.52300
C 	C 	0.72820 0.42710 0.29770 -0.33000
H 	H 	0.71690 0.39230 0.24600 0.13700
H 	H 	0.67150 0.46600 0.29720 0.13100
C 	C 	0.91480 0.42680 0.26800 0.15000
Sm	Sm	0.62310 0.19836 0.44465 1.91600
O 	O 	0.67310 0.07150 0.36380 -0.41700
O 	O 	0.62140 0.17290 0.28060 -0.45800
O 	O 	0.47750 0.73280 0.43550 -0.47800
O 	O 	0.30710 0.71690 0.42030 -0.59500
O 	O 	0.70870 0.88560 0.05620 -0.51400
O 	O 	0.85570 0.83010 0.11450 -0.52400
N 	N 	0.67310 0.96900 0.21270 -0.05400
N 	N 	0.59130 0.84700 0.23210 -0.16800
C 	C 	0.65260 0.10060 0.28710 0.35400
C 	C 	0.66680 0.05450 0.20100 -0.23900
H 	H 	0.60830 0.06650 0.15990 0.08100
H 	H 	0.73070 0.07280 0.17300 0.09700
C 	C 	0.39820 0.71380 0.38740 0.46600
C 	C 	0.41140 0.68880 0.28970 -0.31300
H 	H 	0.42230 0.63150 0.28690 0.12400
H 	H 	0.34760 0.70140 0.25520 0.13100
C 	C 	0.77830 0.87690 0.11600 0.52200
C 	C 	0.77180 0.92710 0.20230 -0.32900
H 	H 	0.78310 0.89230 0.25400 0.13600
H 	H 	0.82850 0.96600 0.20280 0.13000
C 	C 	0.58520 0.92680 0.23200 0.15600
Sm	Sm	0.12310 0.69836 0.44465 1.91900
O 	O 	0.17310 0.57150 0.36380 -0.41600
O 	O 	0.12140 0.67290 0.28060 -0.45700
O 	O 	0.97750 0.23280 0.43550 -0.48000
O 	O 	0.80710 0.21690 0.42030 -0.59500
O 	O 	0.20870 0.38560 0.05620 -0.51200
O 	O 	0.35570 0.33010 0.11450 -0.52300
N 	N 	0.17310 0.46900 0.21270 -0.05400
N 	N 	0.09130 0.34700 0.23210 -0.16900
C 	C 	0.15260 0.60060 0.28710 0.35500
C 	C 	0.16680 0.55450 0.20100 -0.23900
H 	H 	0.10830 0.56650 0.15990 0.08400
H 	H 	0.23070 0.57280 0.17300 0.09800
C 	C 	0.89820 0.21380 0.38740 0.46700
C 	C 	0.91140 0.18880 0.28970 -0.31800
H 	H 	0.92230 0.13150 0.28690 0.12300
H 	H 	0.84760 0.20140 0.25520 0.13100
C 	C 	0.27830 0.37690 0.11600 0.52200
C 	C 	0.27180 0.42710 0.20230 -0.33000
H 	H 	0.28310 0.39230 0.25400 0.13700
H 	H 	0.32850 0.46600 0.20280 0.13100
C 	C 	0.08520 0.42680 0.23200 0.15700
Sm	Sm	0.62310 0.80165 0.94465 1.91700
O 	O 	0.67310 0.92850 0.86380 -0.41700
O 	O 	0.62140 0.82710 0.78060 -0.45800
O 	O 	0.47750 0.26720 0.93550 -0.47700
O 	O 	0.30710 0.28310 0.92030 -0.59400
O 	O 	0.70870 0.11440 0.55620 -0.51400
O 	O 	0.85570 0.16990 0.61450 -0.52400
N 	N 	0.67310 0.03100 0.71270 -0.05400
N 	N 	0.59130 0.15300 0.73210 -0.16800
C 	C 	0.65260 0.89940 0.78710 0.35400
C 	C 	0.66680 0.94550 0.70100 -0.23900
H 	H 	0.60830 0.93350 0.65990 0.08100
H 	H 	0.73070 0.92720 0.67300 0.09700
C 	C 	0.39820 0.28620 0.88740 0.46600
C 	C 	0.41140 0.31120 0.78970 -0.31300
H 	H 	0.42230 0.36850 0.78690 0.12400
H 	H 	0.34760 0.29860 0.75520 0.13000
C 	C 	0.77830 0.12310 0.61600 0.52300
C 	C 	0.77180 0.07290 0.70230 -0.33000
H 	H 	0.78310 0.10770 0.75400 0.13700
H 	H 	0.82850 0.03400 0.70280 0.13100
C 	C 	0.58520 0.07320 0.73200 0.15600
Sm	Sm	0.12310 0.30165 0.94465 1.91300
O 	O 	0.17310 0.42850 0.86380 -0.41600
O 	O 	0.12140 0.32710 0.78060 -0.45700
O 	O 	0.97750 0.76720 0.93550 -0.47700
O 	O 	0.80710 0.78310 0.92030 -0.59300
O 	O 	0.20870 0.61440 0.55620 -0.51400
O 	O 	0.35570 0.66990 0.61450 -0.52300
N 	N 	0.17310 0.53100 0.71270 -0.05400
N 	N 	0.09130 0.65300 0.73210 -0.16900
C 	C 	0.15260 0.39940 0.78710 0.35400
C 	C 	0.16680 0.44550 0.70100 -0.23900
H 	H 	0.10830 0.43350 0.65990 0.08200
H 	H 	0.23070 0.42720 0.67300 0.09800
C 	C 	0.89820 0.78620 0.88740 0.46600
C 	C 	0.91140 0.81120 0.78970 -0.31400
H 	H 	0.92230 0.86850 0.78690 0.12300
H 	H 	0.84760 0.79860 0.75520 0.13000
C 	C 	0.27830 0.62310 0.61600 0.52300
C 	C 	0.27180 0.57290 0.70230 -0.33000
H 	H 	0.28310 0.60770 0.75400 0.13700
H 	H 	0.32850 0.53400 0.70280 0.13100
C 	C 	0.08520 0.57320 0.73200 0.15600
Sm	Sm	0.37690 0.80165 0.55535 1.91600
O 	O 	0.32690 0.92850 0.63620 -0.41700
O 	O 	0.37860 0.82710 0.71940 -0.45800
O 	O 	0.52250 0.26720 0.56450 -0.47800
O 	O 	0.69290 0.28310 0.57970 -0.59400
O 	O 	0.29130 0.11440 0.94380 -0.51400
O 	O 	0.14430 0.16990 0.88550 -0.52300
N 	N 	0.32690 0.03100 0.78730 -0.05400
N 	N 	0.40870 0.15300 0.76790 -0.16800
C 	C 	0.34740 0.89940 0.71290 0.35400
C 	C 	0.33320 0.94550 0.79900 -0.24000
H 	H 	0.39170 0.93350 0.84010 0.08100
H 	H 	0.26930 0.92720 0.82700 0.09700
C 	C 	0.60180 0.28620 0.61260 0.46600
C 	C 	0.58860 0.31120 0.71030 -0.31300
H 	H 	0.57770 0.36850 0.71310 0.12400
H 	H 	0.65240 0.29860 0.74480 0.13000
C 	C 	0.22170 0.12310 0.88400 0.52300
C 	C 	0.22820 0.07290 0.79770 -0.33000
H 	H 	0.21690 0.10770 0.74600 0.13700
H 	H 	0.17150 0.03400 0.79720 0.13200
C 	C 	0.41480 0.07320 0.76800 0.15600
Sm	Sm	0.87690 0.30165 0.55535 1.91300
O 	O 	0.82690 0.42850 0.63620 -0.41700
O 	O 	0.87860 0.32710 0.71940 -0.45800
O 	O 	0.02250 0.76720 0.56450 -0.47700
O 	O 	0.19290 0.78310 0.57970 -0.59400
O 	O 	0.79130 0.61440 0.94380 -0.51200
O 	O 	0.64430 0.66990 0.88550 -0.52300
N 	N 	0.82690 0.53100 0.78730 -0.05400
N 	N 	0.90870 0.65300 0.76790 -0.16900
C 	C 	0.84740 0.39940 0.71290 0.35400
C 	C 	0.83320 0.44550 0.79900 -0.23900
H 	H 	0.89170 0.43350 0.84010 0.08100
H 	H 	0.76930 0.42720 0.82700 0.09800
C 	C 	0.10180 0.78620 0.61260 0.46600
C 	C 	0.08860 0.81120 0.71030 -0.31200
H 	H 	0.07770 0.86850 0.71310 0.12400
H 	H 	0.15240 0.79860 0.74480 0.13000
C 	C 	0.72170 0.62310 0.88400 0.52200
C 	C 	0.72820 0.57290 0.79770 -0.33000
H 	H 	0.71690 0.60770 0.74600 0.13700
H 	H 	0.67150 0.53400 0.79720 0.13100
C 	C 	0.91480 0.57320 0.76800 0.15500
N 	N 	0.50000 0.72930 0.25000 -0.04800
N 	N 	0.50000 0.97100 0.25000 -0.16700
C 	C 	0.50000 0.81110 0.25000 0.16000
N 	N 	0.00000 0.22930 0.25000 -0.04500
N 	N 	0.00000 0.47100 0.25000 -0.16300
C 	C 	0.00000 0.31110 0.25000 0.16500
N 	N 	0.50000 0.27070 0.75000 -0.04800
N 	N 	0.50000 0.02900 0.75000 -0.16700
C 	C 	0.50000 0.18890 0.75000 0.16000
N 	N 	-0.00000 0.77070 0.75000 -0.04700
N 	N 	0.00000 0.52900 0.75000 -0.16600
C 	C 	0.00000 0.68890 0.75000 0.16100
