data_crystal

_cell_length_a 18.38550
_cell_length_b 18.38550
_cell_length_c 52.24630
_cell_angle_alpha 90.00000
_cell_angle_beta  90.00000
_cell_angle_gamma 120.00000

_symmetry_space_group_name_	'P 1'
_symmetry_space_group_name_H-M	'P 1'

loop_
_symmetry_equiv_pos_as_xyz
  x,y,z

loop_
_atom_site_label
_atom_site_type_symbol
_atom_site_fract_x
_atom_site_fract_y
_atom_site_fract_z
_atom_site_charge
O 	O 	0.77410 0.96040 0.33277 -0.59000
O 	O 	0.70250 0.91810 0.30111 -0.57800
C 	C 	0.75560 0.96120 0.31319 0.73500
C 	C 	0.81140 0.04520 0.29941 -0.18300
C 	C 	0.80000 0.06800 0.27448 0.04900
H 	H 	0.75050 0.03150 0.26600 0.03900
C 	C 	0.75990 0.12710 0.22680 -0.00500
C 	C 	0.91500 0.19670 0.21840 -0.00400
C 	C 	0.76090 0.12920 0.19750 0.00100
C 	C 	0.91220 0.19630 0.19040 0.00000
O 	O 	0.44077 0.29373 0.66610 -0.59000
O 	O 	0.36917 0.25143 0.63444 -0.57800
C 	C 	0.42227 0.29453 0.64652 0.73600
C 	C 	0.47807 0.37853 0.63274 -0.18500
C 	C 	0.46667 0.40133 0.60781 0.05000
H 	H 	0.41717 0.36483 0.59933 0.03900
C 	C 	0.42657 0.46043 0.56013 -0.00500
C 	C 	0.58167 0.53003 0.55173 -0.00400
C 	C 	0.42757 0.46253 0.53083 0.00100
C 	C 	0.57887 0.52963 0.52373 0.00000
O 	O 	0.10743 0.62707 0.99944 -0.59000
O 	O 	0.03583 0.58477 0.96778 -0.57800
C 	C 	0.08893 0.62787 0.97986 0.73600
C 	C 	0.14473 0.71187 0.96608 -0.18500
C 	C 	0.13333 0.73467 0.94115 0.05100
H 	H 	0.08383 0.69817 0.93267 0.04000
C 	C 	0.09323 0.79377 0.89347 -0.00400
C 	C 	0.24833 0.86337 0.88507 -0.00300
C 	C 	0.09423 0.79587 0.86417 0.00200
C 	C 	0.24553 0.86297 0.85707 0.00100
O 	O 	0.03960 0.81370 0.33277 -0.58900
O 	O 	0.08190 0.78440 0.30111 -0.57700
C 	C 	0.03880 0.79440 0.31319 0.73600
C 	C 	0.95480 0.76620 0.29941 -0.18300
C 	C 	0.93200 0.73200 0.27448 0.05000
H 	H 	0.96850 0.71900 0.26600 0.04000
C 	C 	0.87290 0.63280 0.22680 -0.00400
C 	C 	0.80330 0.71830 0.21840 -0.00400
C 	C 	0.87080 0.63170 0.19750 0.00200
C 	C 	0.80370 0.71590 0.19040 0.00100
O 	O 	0.70627 0.14703 0.66610 -0.58900
O 	O 	0.74857 0.11773 0.63444 -0.57700
C 	C 	0.70547 0.12773 0.64652 0.73700
C 	C 	0.62147 0.09953 0.63274 -0.18400
C 	C 	0.59867 0.06533 0.60781 0.05100
H 	H 	0.63517 0.05233 0.59933 0.04000
C 	C 	0.53957 0.96613 0.56013 -0.00300
C 	C 	0.46997 0.05163 0.55173 -0.00400
C 	C 	0.53747 0.96503 0.53083 0.00200
C 	C 	0.47037 0.04923 0.52373 0.00100
O 	O 	0.37293 0.48037 0.99944 -0.58900
O 	O 	0.41523 0.45107 0.96778 -0.57700
C 	C 	0.37213 0.46107 0.97986 0.73700
C 	C 	0.28813 0.43287 0.96608 -0.18400
C 	C 	0.26533 0.39867 0.94115 0.05100
H 	H 	0.30183 0.38567 0.93267 0.04000
C 	C 	0.20623 0.29947 0.89347 -0.00400
C 	C 	0.13663 0.38497 0.88507 -0.00300
C 	C 	0.20413 0.29837 0.86417 0.00200
C 	C 	0.13703 0.38257 0.85707 0.00100
O 	O 	0.18630 0.22590 0.33277 -0.58900
O 	O 	0.21560 0.29750 0.30111 -0.57700
C 	C 	0.20560 0.24440 0.31319 0.73700
C 	C 	0.23380 0.18860 0.29941 -0.18400
C 	C 	0.26800 0.20000 0.27448 0.05100
H 	H 	0.28100 0.24950 0.26600 0.04000
C 	C 	0.36720 0.24010 0.22680 -0.00400
C 	C 	0.28170 0.08500 0.21840 -0.00300
C 	C 	0.36830 0.23910 0.19750 0.00200
C 	C 	0.28410 0.08780 0.19040 0.00100
O 	O 	0.85297 0.55923 0.66610 -0.58900
O 	O 	0.88227 0.63083 0.63444 -0.57700
C 	C 	0.87227 0.57773 0.64652 0.73700
C 	C 	0.90047 0.52193 0.63274 -0.18400
C 	C 	0.93467 0.53333 0.60781 0.05100
H 	H 	0.94767 0.58283 0.59933 0.04000
C 	C 	0.03387 0.57343 0.56013 -0.00300
C 	C 	0.94837 0.41833 0.55173 -0.00400
C 	C 	0.03497 0.57243 0.53083 0.00200
C 	C 	0.95077 0.42113 0.52373 0.00100
O 	O 	0.51963 0.89257 0.99944 -0.58900
O 	O 	0.54893 0.96417 0.96778 -0.57700
C 	C 	0.53893 0.91107 0.97986 0.73700
C 	C 	0.56713 0.85527 0.96608 -0.18400
C 	C 	0.60133 0.86667 0.94115 0.05100
H 	H 	0.61433 0.91617 0.93267 0.04000
C 	C 	0.70053 0.90677 0.89347 -0.00400
C 	C 	0.61503 0.75167 0.88507 -0.00300
C 	C 	0.70163 0.90577 0.86417 0.00200
C 	C 	0.61743 0.75447 0.85707 0.00100
O 	O 	0.96040 0.77410 0.66723 -0.58900
O 	O 	0.91810 0.70250 0.69889 -0.57700
C 	C 	0.96120 0.75560 0.68681 0.73600
C 	C 	0.04520 0.81140 0.70059 -0.18200
C 	C 	0.06800 0.80000 0.72552 0.05000
H 	H 	0.03150 0.75050 0.73400 0.04000
C 	C 	0.12710 0.75990 0.77320 -0.00400
C 	C 	0.19670 0.91500 0.78160 -0.00300
C 	C 	0.12920 0.76090 0.80250 0.00200
C 	C 	0.19630 0.91220 0.80960 0.00100
O 	O 	0.62707 0.10743 0.00056 -0.58900
O 	O 	0.58477 0.03583 0.03222 -0.57700
C 	C 	0.62787 0.08893 0.02014 0.73700
C 	C 	0.71187 0.14473 0.03392 -0.18400
C 	C 	0.73467 0.13333 0.05885 0.05100
H 	H 	0.69817 0.08383 0.06733 0.04000
C 	C 	0.79377 0.09323 0.10653 -0.00400
C 	C 	0.86337 0.24833 0.11493 -0.00300
C 	C 	0.79587 0.09423 0.13583 0.00200
C 	C 	0.86297 0.24553 0.14293 0.00100
O 	O 	0.29373 0.44077 0.33390 -0.58900
O 	O 	0.25143 0.36917 0.36556 -0.57700
C 	C 	0.29453 0.42227 0.35348 0.73700
C 	C 	0.37853 0.47807 0.36726 -0.18400
C 	C 	0.40133 0.46667 0.39219 0.05100
H 	H 	0.36483 0.41717 0.40067 0.04000
C 	C 	0.46043 0.42657 0.43987 -0.00400
C 	C 	0.53003 0.58167 0.44827 -0.00300
C 	C 	0.46253 0.42757 0.46917 0.00200
C 	C 	0.52963 0.57887 0.47627 0.00100
O 	O 	0.81370 0.03960 0.66723 -0.58900
O 	O 	0.78440 0.08190 0.69889 -0.57700
C 	C 	0.79440 0.03880 0.68681 0.73600
C 	C 	0.76620 0.95480 0.70059 -0.18300
C 	C 	0.73200 0.93200 0.72552 0.05000
H 	H 	0.71900 0.96850 0.73400 0.04000
C 	C 	0.63280 0.87290 0.77320 -0.00400
C 	C 	0.71830 0.80330 0.78160 -0.00400
C 	C 	0.63170 0.87080 0.80250 0.00200
C 	C 	0.71590 0.80370 0.80960 0.00100
O 	O 	0.48037 0.37293 0.00056 -0.58900
O 	O 	0.45107 0.41523 0.03222 -0.57700
C 	C 	0.46107 0.37213 0.02014 0.73700
C 	C 	0.43287 0.28813 0.03392 -0.18400
C 	C 	0.39867 0.26533 0.05885 0.05100
H 	H 	0.38567 0.30183 0.06733 0.04000
C 	C 	0.29947 0.20623 0.10653 -0.00400
C 	C 	0.38497 0.13663 0.11493 -0.00300
C 	C 	0.29837 0.20413 0.13583 0.00200
C 	C 	0.38257 0.13703 0.14293 0.00100
O 	O 	0.14703 0.70627 0.33390 -0.58900
O 	O 	0.11773 0.74857 0.36556 -0.57700
C 	C 	0.12773 0.70547 0.35348 0.73700
C 	C 	0.09953 0.62147 0.36726 -0.18400
C 	C 	0.06533 0.59867 0.39219 0.05100
H 	H 	0.05233 0.63517 0.40067 0.04000
C 	C 	0.96613 0.53957 0.43987 -0.00300
C 	C 	0.05163 0.46997 0.44827 -0.00400
C 	C 	0.96503 0.53747 0.46917 0.00200
C 	C 	0.04923 0.47037 0.47627 0.00100
O 	O 	0.22590 0.18630 0.66723 -0.58900
O 	O 	0.29750 0.21560 0.69889 -0.57700
C 	C 	0.24440 0.20560 0.68681 0.73700
C 	C 	0.18860 0.23380 0.70059 -0.18400
C 	C 	0.20000 0.26800 0.72552 0.05100
H 	H 	0.24950 0.28100 0.73400 0.04000
C 	C 	0.24010 0.36720 0.77320 -0.00400
C 	C 	0.08500 0.28170 0.78160 -0.00300
C 	C 	0.23910 0.36830 0.80250 0.00200
C 	C 	0.08780 0.28410 0.80960 0.00100
O 	O 	0.89257 0.51963 0.00056 -0.58900
O 	O 	0.96417 0.54893 0.03222 -0.57700
C 	C 	0.91107 0.53893 0.02014 0.73700
C 	C 	0.85527 0.56713 0.03392 -0.18400
C 	C 	0.86667 0.60133 0.05885 0.05100
H 	H 	0.91617 0.61433 0.06733 0.04000
C 	C 	0.90677 0.70053 0.10653 -0.00400
C 	C 	0.75167 0.61503 0.11493 -0.00300
C 	C 	0.90577 0.70163 0.13583 0.00200
C 	C 	0.75447 0.61743 0.14293 0.00100
O 	O 	0.55923 0.85297 0.33390 -0.58900
O 	O 	0.63083 0.88227 0.36556 -0.57700
C 	C 	0.57773 0.87227 0.35348 0.73700
C 	C 	0.52193 0.90047 0.36726 -0.18400
C 	C 	0.53333 0.93467 0.39219 0.05100
H 	H 	0.58283 0.94767 0.40067 0.04000
C 	C 	0.57343 0.03387 0.43987 -0.00300
C 	C 	0.41833 0.94837 0.44827 -0.00400
C 	C 	0.57243 0.03497 0.46917 0.00200
C 	C 	0.42113 0.95077 0.47627 0.00100
O 	O 	0.22590 0.03960 0.66723 -0.58900
O 	O 	0.29750 0.08190 0.69889 -0.57700
C 	C 	0.24440 0.03880 0.68681 0.73600
C 	C 	0.18860 0.95480 0.70059 -0.18200
C 	C 	0.20000 0.93200 0.72552 0.05000
H 	H 	0.24950 0.96850 0.73400 0.04000
C 	C 	0.24010 0.87290 0.77320 -0.00400
C 	C 	0.08500 0.80330 0.78160 -0.00300
C 	C 	0.23910 0.87080 0.80250 0.00200
C 	C 	0.08780 0.80370 0.80960 0.00100
O 	O 	0.89257 0.37293 0.00056 -0.58900
O 	O 	0.96417 0.41523 0.03222 -0.57700
C 	C 	0.91107 0.37213 0.02014 0.73700
C 	C 	0.85527 0.28813 0.03392 -0.18400
C 	C 	0.86667 0.26533 0.05885 0.05100
H 	H 	0.91617 0.30183 0.06733 0.04000
C 	C 	0.90677 0.20623 0.10653 -0.00400
C 	C 	0.75167 0.13663 0.11493 -0.00300
C 	C 	0.90577 0.20413 0.13583 0.00200
C 	C 	0.75447 0.13703 0.14293 0.00100
O 	O 	0.55923 0.70627 0.33390 -0.58900
O 	O 	0.63083 0.74857 0.36556 -0.57700
C 	C 	0.57773 0.70547 0.35348 0.73700
C 	C 	0.52193 0.62147 0.36726 -0.18400
C 	C 	0.53333 0.59867 0.39219 0.05100
H 	H 	0.58283 0.63517 0.40067 0.04000
C 	C 	0.57343 0.53957 0.43987 -0.00400
C 	C 	0.41833 0.46997 0.44827 -0.00300
C 	C 	0.57243 0.53747 0.46917 0.00200
C 	C 	0.42113 0.47037 0.47627 0.00100
O 	O 	0.96040 0.18630 0.66723 -0.58900
O 	O 	0.91810 0.21560 0.69889 -0.57700
C 	C 	0.96120 0.20560 0.68681 0.73600
C 	C 	0.04520 0.23380 0.70059 -0.18300
C 	C 	0.06800 0.26800 0.72552 0.05000
H 	H 	0.03150 0.28100 0.73400 0.04000
C 	C 	0.12710 0.36720 0.77320 -0.00400
C 	C 	0.19670 0.28170 0.78160 -0.00400
C 	C 	0.12920 0.36830 0.80250 0.00200
C 	C 	0.19630 0.28410 0.80960 0.00100
O 	O 	0.62707 0.51963 0.00056 -0.58900
O 	O 	0.58477 0.54893 0.03222 -0.57700
C 	C 	0.62787 0.53893 0.02014 0.73700
C 	C 	0.71187 0.56713 0.03392 -0.18400
C 	C 	0.73467 0.60133 0.05885 0.05100
H 	H 	0.69817 0.61433 0.06733 0.04000
C 	C 	0.79377 0.70053 0.10653 -0.00400
C 	C 	0.86337 0.61503 0.11493 -0.00300
C 	C 	0.79587 0.70163 0.13583 0.00200
C 	C 	0.86297 0.61743 0.14293 0.00100
O 	O 	0.29373 0.85297 0.33390 -0.58900
O 	O 	0.25143 0.88227 0.36556 -0.57700
C 	C 	0.29453 0.87227 0.35348 0.73700
C 	C 	0.37853 0.90047 0.36726 -0.18400
C 	C 	0.40133 0.93467 0.39219 0.05100
H 	H 	0.36483 0.94767 0.40067 0.04000
C 	C 	0.46043 0.03387 0.43987 -0.00300
C 	C 	0.53003 0.94837 0.44827 -0.00400
C 	C 	0.46253 0.03497 0.46917 0.00200
C 	C 	0.52963 0.95077 0.47627 0.00100
O 	O 	0.81370 0.77410 0.66723 -0.58900
O 	O 	0.78440 0.70250 0.69889 -0.57700
C 	C 	0.79440 0.75560 0.68681 0.73700
C 	C 	0.76620 0.81140 0.70059 -0.18400
C 	C 	0.73200 0.80000 0.72552 0.05100
H 	H 	0.71900 0.75050 0.73400 0.04000
C 	C 	0.63280 0.75990 0.77320 -0.00400
C 	C 	0.71830 0.91500 0.78160 -0.00300
C 	C 	0.63170 0.76090 0.80250 0.00200
C 	C 	0.71590 0.91220 0.80960 0.00100
O 	O 	0.48037 0.10743 0.00056 -0.58900
O 	O 	0.45107 0.03583 0.03222 -0.57700
C 	C 	0.46107 0.08893 0.02014 0.73700
C 	C 	0.43287 0.14473 0.03392 -0.18400
C 	C 	0.39867 0.13333 0.05885 0.05100
H 	H 	0.38567 0.08383 0.06733 0.04000
C 	C 	0.29947 0.09323 0.10653 -0.00400
C 	C 	0.38497 0.24833 0.11493 -0.00300
C 	C 	0.29837 0.09423 0.13583 0.00200
C 	C 	0.38257 0.24553 0.14293 0.00100
O 	O 	0.14703 0.44077 0.33390 -0.58900
O 	O 	0.11773 0.36917 0.36556 -0.57700
C 	C 	0.12773 0.42227 0.35348 0.73700
C 	C 	0.09953 0.47807 0.36726 -0.18400
C 	C 	0.06533 0.46667 0.39219 0.05100
H 	H 	0.05233 0.41717 0.40067 0.04000
C 	C 	0.96613 0.42657 0.43987 -0.00300
C 	C 	0.05163 0.58167 0.44827 -0.00400
C 	C 	0.96503 0.42757 0.46917 0.00200
C 	C 	0.04923 0.57887 0.47627 0.00100
O 	O 	0.03960 0.22590 0.33277 -0.58900
O 	O 	0.08190 0.29750 0.30111 -0.57700
C 	C 	0.03880 0.24440 0.31319 0.73600
C 	C 	0.95480 0.18860 0.29941 -0.18200
C 	C 	0.93200 0.20000 0.27448 0.05000
H 	H 	0.96850 0.24950 0.26600 0.04000
C 	C 	0.87290 0.24010 0.22680 -0.00400
C 	C 	0.80330 0.08500 0.21840 -0.00300
C 	C 	0.87080 0.23910 0.19750 0.00200
C 	C 	0.80370 0.08780 0.19040 0.00100
O 	O 	0.70627 0.55923 0.66610 -0.58900
O 	O 	0.74857 0.63083 0.63444 -0.57700
C 	C 	0.70547 0.57773 0.64652 0.73700
C 	C 	0.62147 0.52193 0.63274 -0.18400
C 	C 	0.59867 0.53333 0.60781 0.05100
H 	H 	0.63517 0.58283 0.59933 0.04000
C 	C 	0.53957 0.57343 0.56013 -0.00400
C 	C 	0.46997 0.41833 0.55173 -0.00300
C 	C 	0.53747 0.57243 0.53083 0.00200
C 	C 	0.47037 0.42113 0.52373 0.00100
O 	O 	0.37293 0.89257 0.99944 -0.58900
O 	O 	0.41523 0.96417 0.96778 -0.57700
C 	C 	0.37213 0.91107 0.97986 0.73700
C 	C 	0.28813 0.85527 0.96608 -0.18400
C 	C 	0.26533 0.86667 0.94115 0.05100
H 	H 	0.30183 0.91617 0.93267 0.04000
C 	C 	0.20623 0.90677 0.89347 -0.00400
C 	C 	0.13663 0.75167 0.88507 -0.00300
C 	C 	0.20413 0.90577 0.86417 0.00200
C 	C 	0.13703 0.75447 0.85707 0.00100
O 	O 	0.18630 0.96040 0.33277 -0.58900
O 	O 	0.21560 0.91810 0.30111 -0.57700
C 	C 	0.20560 0.96120 0.31319 0.73600
C 	C 	0.23380 0.04520 0.29941 -0.18300
C 	C 	0.26800 0.06800 0.27448 0.05000
H 	H 	0.28100 0.03150 0.26600 0.04000
C 	C 	0.36720 0.12710 0.22680 -0.00400
C 	C 	0.28170 0.19670 0.21840 -0.00400
C 	C 	0.36830 0.12920 0.19750 0.00200
C 	C 	0.28410 0.19630 0.19040 0.00100
O 	O 	0.85297 0.29373 0.66610 -0.58900
O 	O 	0.88227 0.25143 0.63444 -0.57700
C 	C 	0.87227 0.29453 0.64652 0.73700
C 	C 	0.90047 0.37853 0.63274 -0.18400
C 	C 	0.93467 0.40133 0.60781 0.05100
H 	H 	0.94767 0.36483 0.59933 0.04000
C 	C 	0.03387 0.46043 0.56013 -0.00300
C 	C 	0.94837 0.53003 0.55173 -0.00400
C 	C 	0.03497 0.46253 0.53083 0.00200
C 	C 	0.95077 0.52963 0.52373 0.00100
O 	O 	0.51963 0.62707 0.99944 -0.58900
O 	O 	0.54893 0.58477 0.96778 -0.57700
C 	C 	0.53893 0.62787 0.97986 0.73700
C 	C 	0.56713 0.71187 0.96608 -0.18400
C 	C 	0.60133 0.73467 0.94115 0.05100
H 	H 	0.61433 0.69817 0.93267 0.04000
C 	C 	0.70053 0.79377 0.89347 -0.00400
C 	C 	0.61503 0.86337 0.88507 -0.00300
C 	C 	0.70163 0.79587 0.86417 0.00200
C 	C 	0.61743 0.86297 0.85707 0.00100
O 	O 	0.77410 0.81370 0.33277 -0.58900
O 	O 	0.70250 0.78440 0.30111 -0.57700
C 	C 	0.75560 0.79440 0.31319 0.73700
C 	C 	0.81140 0.76620 0.29941 -0.18400
C 	C 	0.80000 0.73200 0.27448 0.05100
H 	H 	0.75050 0.71900 0.26600 0.04000
C 	C 	0.75990 0.63280 0.22680 -0.00400
C 	C 	0.91500 0.71830 0.21840 -0.00300
C 	C 	0.76090 0.63170 0.19750 0.00200
C 	C 	0.91220 0.71590 0.19040 0.00100
O 	O 	0.44077 0.14703 0.66610 -0.58900
O 	O 	0.36917 0.11773 0.63444 -0.57700
C 	C 	0.42227 0.12773 0.64652 0.73700
C 	C 	0.47807 0.09953 0.63274 -0.18400
C 	C 	0.46667 0.06533 0.60781 0.05100
H 	H 	0.41717 0.05233 0.59933 0.04000
C 	C 	0.42657 0.96613 0.56013 -0.00300
C 	C 	0.58167 0.05163 0.55173 -0.00400
C 	C 	0.42757 0.96503 0.53083 0.00200
C 	C 	0.57887 0.04923 0.52373 0.00100
O 	O 	0.10743 0.48037 0.99944 -0.58900
O 	O 	0.03583 0.45107 0.96778 -0.57700
C 	C 	0.08893 0.46107 0.97986 0.73700
C 	C 	0.14473 0.43287 0.96608 -0.18400
C 	C 	0.13333 0.39867 0.94115 0.05100
H 	H 	0.08383 0.38567 0.93267 0.04000
C 	C 	0.09323 0.29947 0.89347 -0.00400
C 	C 	0.24833 0.38497 0.88507 -0.00300
C 	C 	0.09423 0.29837 0.86417 0.00200
C 	C 	0.24553 0.38257 0.85707 0.00100
Cu	Cu	0.71618 0.85809 0.35385 0.94300
Cu	Cu	0.38285 0.19142 0.68718 0.94300
Cu	Cu	0.04951 0.52476 0.02052 0.94300
Cu	Cu	0.14191 0.85809 0.35385 0.94300
Cu	Cu	0.80858 0.19142 0.68718 0.94300
Cu	Cu	0.47524 0.52476 0.02052 0.94300
Cu	Cu	0.14191 0.28382 0.35385 0.94300
Cu	Cu	0.80858 0.61715 0.68718 0.94300
Cu	Cu	0.47524 0.95049 0.02052 0.94300
Cu	Cu	0.85809 0.71618 0.64615 0.94300
Cu	Cu	0.52476 0.04951 0.97948 0.94300
Cu	Cu	0.19142 0.38285 0.31282 0.94300
Cu	Cu	0.85809 0.14191 0.64615 0.94300
Cu	Cu	0.52476 0.47524 0.97948 0.94300
Cu	Cu	0.19142 0.80858 0.31282 0.94300
Cu	Cu	0.28382 0.14191 0.64615 0.94300
Cu	Cu	0.95049 0.47524 0.97948 0.94300
Cu	Cu	0.61715 0.80858 0.31282 0.94300
C 	C 	0.89010 0.10990 0.31220 0.09700
H 	H 	0.89950 0.10050 0.32910 0.03800
C 	C 	0.85810 0.14190 0.26150 -0.03300
C 	C 	0.84180 0.15820 0.23420 0.01000
C 	C 	0.80070 0.19930 0.18880 -0.00000
C 	C 	0.83900 0.16100 0.18090 -0.00200
C 	C 	0.88100 0.11900 0.17550 0.00100
C 	C 	0.55677 0.44323 0.64553 0.09800
H 	H 	0.56617 0.43383 0.66243 0.03700
C 	C 	0.52477 0.47523 0.59483 -0.03400
C 	C 	0.50847 0.49153 0.56753 0.01100
C 	C 	0.46737 0.53263 0.52213 -0.00100
C 	C 	0.50567 0.49433 0.51423 -0.00100
C 	C 	0.54767 0.45233 0.50883 0.00100
C 	C 	0.22343 0.77657 0.97887 0.09800
H 	H 	0.23283 0.76717 0.99577 0.03700
C 	C 	0.19143 0.80857 0.92817 -0.03400
C 	C 	0.17513 0.82487 0.90087 0.01100
C 	C 	0.13403 0.86597 0.85547 -0.00100
C 	C 	0.17233 0.82767 0.84757 -0.00100
C 	C 	0.21433 0.78567 0.84217 0.00100
C 	C 	0.89010 0.78020 0.31220 0.09700
H 	H 	0.89950 0.79900 0.32910 0.03800
C 	C 	0.85810 0.71620 0.26150 -0.03400
C 	C 	0.84180 0.68360 0.23420 0.01100
C 	C 	0.80070 0.60140 0.18880 -0.00100
C 	C 	0.83900 0.67800 0.18090 -0.00100
C 	C 	0.88100 0.76200 0.17550 0.00100
C 	C 	0.55677 0.11353 0.64553 0.09800
H 	H 	0.56617 0.13233 0.66243 0.03700
C 	C 	0.52477 0.04953 0.59483 -0.03400
C 	C 	0.50847 0.01693 0.56753 0.01000
C 	C 	0.46737 0.93473 0.52213 -0.00100
C 	C 	0.50567 0.01133 0.51423 -0.00100
C 	C 	0.54767 0.09533 0.50883 0.00100
C 	C 	0.22343 0.44687 0.97887 0.09800
H 	H 	0.23283 0.46567 0.99577 0.03700
C 	C 	0.19143 0.38287 0.92817 -0.03400
C 	C 	0.17513 0.35027 0.90087 0.01100
C 	C 	0.13403 0.26807 0.85547 -0.00100
C 	C 	0.17233 0.34467 0.84757 -0.00100
C 	C 	0.21433 0.42867 0.84217 0.00100
C 	C 	0.21980 0.10990 0.31220 0.09700
H 	H 	0.20100 0.10050 0.32910 0.03800
C 	C 	0.28380 0.14190 0.26150 -0.03400
C 	C 	0.31640 0.15820 0.23420 0.01100
C 	C 	0.39860 0.19930 0.18880 -0.00100
C 	C 	0.32200 0.16100 0.18090 -0.00100
C 	C 	0.23800 0.11900 0.17550 0.00100
C 	C 	0.88647 0.44323 0.64553 0.09800
H 	H 	0.86767 0.43383 0.66243 0.03700
C 	C 	0.95047 0.47523 0.59483 -0.03400
C 	C 	0.98307 0.49153 0.56753 0.01000
C 	C 	0.06527 0.53263 0.52213 -0.00100
C 	C 	0.98867 0.49433 0.51423 -0.00100
C 	C 	0.90467 0.45233 0.50883 0.00100
C 	C 	0.55313 0.77657 0.97887 0.09800
H 	H 	0.53433 0.76717 0.99577 0.03700
C 	C 	0.61713 0.80857 0.92817 -0.03400
C 	C 	0.64973 0.82487 0.90087 0.01100
C 	C 	0.73193 0.86597 0.85547 -0.00100
C 	C 	0.65533 0.82767 0.84757 -0.00100
C 	C 	0.57133 0.78567 0.84217 0.00100
C 	C 	0.10990 0.89010 0.68780 0.09700
H 	H 	0.10050 0.89950 0.67090 0.03800
C 	C 	0.14190 0.85810 0.73850 -0.03300
C 	C 	0.15820 0.84180 0.76580 0.01000
C 	C 	0.19930 0.80070 0.81120 -0.00000
C 	C 	0.16100 0.83900 0.81910 -0.00200
C 	C 	0.11900 0.88100 0.82450 0.00100
C 	C 	0.77657 0.22343 0.02113 0.09800
H 	H 	0.76717 0.23283 0.00423 0.03700
C 	C 	0.80857 0.19143 0.07183 -0.03400
C 	C 	0.82487 0.17513 0.09913 0.01100
C 	C 	0.86597 0.13403 0.14453 -0.00100
C 	C 	0.82767 0.17233 0.15243 -0.00100
C 	C 	0.78567 0.21433 0.15783 0.00100
C 	C 	0.44323 0.55677 0.35447 0.09800
H 	H 	0.43383 0.56617 0.33757 0.03700
C 	C 	0.47523 0.52477 0.40517 -0.03400
C 	C 	0.49153 0.50847 0.43247 0.01100
C 	C 	0.53263 0.46737 0.47787 -0.00100
C 	C 	0.49433 0.50567 0.48577 -0.00100
C 	C 	0.45233 0.54767 0.49117 0.00100
C 	C 	0.78020 0.89010 0.68780 0.09700
H 	H 	0.79900 0.89950 0.67090 0.03800
C 	C 	0.71620 0.85810 0.73850 -0.03400
C 	C 	0.68360 0.84180 0.76580 0.01100
C 	C 	0.60140 0.80070 0.81120 -0.00100
C 	C 	0.67800 0.83900 0.81910 -0.00100
C 	C 	0.76200 0.88100 0.82450 0.00100
C 	C 	0.44687 0.22343 0.02113 0.09800
H 	H 	0.46567 0.23283 0.00423 0.03700
C 	C 	0.38287 0.19143 0.07183 -0.03400
C 	C 	0.35027 0.17513 0.09913 0.01100
C 	C 	0.26807 0.13403 0.14453 -0.00100
C 	C 	0.34467 0.17233 0.15243 -0.00100
C 	C 	0.42867 0.21433 0.15783 0.00100
C 	C 	0.11353 0.55677 0.35447 0.09800
H 	H 	0.13233 0.56617 0.33757 0.03700
C 	C 	0.04953 0.52477 0.40517 -0.03400
C 	C 	0.01693 0.50847 0.43247 0.01000
C 	C 	0.93473 0.46737 0.47787 -0.00100
C 	C 	0.01133 0.50567 0.48577 -0.00100
C 	C 	0.09533 0.54767 0.49117 0.00100
C 	C 	0.10990 0.21980 0.68780 0.09700
H 	H 	0.10050 0.20100 0.67090 0.03800
C 	C 	0.14190 0.28380 0.73850 -0.03400
C 	C 	0.15820 0.31640 0.76580 0.01100
C 	C 	0.19930 0.39860 0.81120 -0.00100
C 	C 	0.16100 0.32200 0.81910 -0.00100
C 	C 	0.11900 0.23800 0.82450 0.00100
C 	C 	0.77657 0.55313 0.02113 0.09800
H 	H 	0.76717 0.53433 0.00423 0.03700
C 	C 	0.80857 0.61713 0.07183 -0.03400
C 	C 	0.82487 0.64973 0.09913 0.01100
C 	C 	0.86597 0.73193 0.14453 -0.00100
C 	C 	0.82767 0.65533 0.15243 -0.00100
C 	C 	0.78567 0.57133 0.15783 0.00100
C 	C 	0.44323 0.88647 0.35447 0.09800
H 	H 	0.43383 0.86767 0.33757 0.03700
C 	C 	0.47523 0.95047 0.40517 -0.03400
C 	C 	0.49153 0.98307 0.43247 0.01000
C 	C 	0.53263 0.06527 0.47787 -0.00100
C 	C 	0.49433 0.98867 0.48577 -0.00100
C 	C 	0.45233 0.90467 0.49117 0.00100
