data_crystal

_cell_length_a 12.81500
_cell_length_b 15.97900
_cell_length_c 6.77050
_cell_angle_alpha 90.00000
_cell_angle_beta  90.00000
_cell_angle_gamma 90.00000

_symmetry_space_group_name_	'P 1'
_symmetry_space_group_name_H-M	'P 1'

loop_
_symmetry_equiv_pos_as_xyz
  x,y,z

loop_
_atom_site_label
_atom_site_type_symbol
_atom_site_fract_x
_atom_site_fract_y
_atom_site_fract_z
_atom_site_charge
N 	N 	0.50000 0.29050 0.95800 -0.23400
C 	C 	0.50000 0.36000 0.85170 -0.02900
C 	C 	0.50000 0.21900 0.85220 -0.02300
N 	N 	-0.00000 0.79050 0.95800 -0.24100
C 	C 	-0.00000 0.86000 0.85170 -0.05000
C 	C 	-0.00000 0.71900 0.85220 -0.04600
N 	N 	0.50000 0.29050 0.54200 -0.23400
C 	C 	0.50000 0.36000 0.64830 -0.02900
C 	C 	0.50000 0.21900 0.64780 -0.02300
N 	N 	0.00000 0.79050 0.54200 -0.24000
C 	C 	-0.00000 0.86000 0.64830 -0.04900
C 	C 	-0.00000 0.71900 0.64780 -0.04500
Fe	Fe	0.50000 0.28920 0.25000 1.16700
Fe	Fe	-0.00000 0.78920 0.25000 1.14000
Ag	Ag	0.25260 0.03819 0.25000 0.45100
N 	N 	0.39550 0.20430 0.25000 -0.24600
N 	N 	0.10900 0.87700 0.25000 -0.23300
C 	C 	0.33600 0.15000 0.25000 -0.12100
C 	C 	0.16200 0.93400 0.25000 -0.15700
Ag	Ag	0.75260 0.53819 0.25000 0.46100
N 	N 	0.89550 0.70430 0.25000 -0.21500
N 	N 	0.60900 0.37700 0.25000 -0.22800
C 	C 	0.83600 0.65000 0.25000 -0.09900
C 	C 	0.66200 0.43400 0.25000 -0.14400
Ag	Ag	0.74740 0.03819 0.25000 0.46100
N 	N 	0.60450 0.20430 0.25000 -0.24600
N 	N 	0.89100 0.87700 0.25000 -0.20000
C 	C 	0.66400 0.15000 0.25000 -0.11000
C 	C 	0.83800 0.93400 0.25000 -0.12800
Ag	Ag	0.24740 0.53819 0.25000 0.44800
N 	N 	0.10450 0.70430 0.25000 -0.25000
N 	N 	0.39100 0.37700 0.25000 -0.22800
C 	C 	0.16400 0.65000 0.25000 -0.13000
C 	C 	0.33800 0.43400 0.25000 -0.15400
N 	N 	0.50000 0.70950 0.45800 -0.23300
C 	C 	0.50000 0.64000 0.35170 -0.02800
C 	C 	0.50000 0.78100 0.35220 -0.02300
N 	N 	-0.00000 0.20950 0.45800 -0.24000
C 	C 	-0.00000 0.14000 0.35170 -0.04900
C 	C 	-0.00000 0.28100 0.35220 -0.04500
N 	N 	0.50000 0.70950 0.04200 -0.23300
C 	C 	0.50000 0.64000 0.14830 -0.02800
C 	C 	0.50000 0.78100 0.14780 -0.02200
N 	N 	-0.00000 0.20950 0.04200 -0.24000
C 	C 	-0.00000 0.14000 0.14830 -0.04900
C 	C 	-0.00000 0.28100 0.14780 -0.04500
Fe	Fe	0.50000 0.71080 0.75000 1.16700
Fe	Fe	-0.00000 0.21080 0.75000 1.14000
Ag	Ag	0.74740 0.96181 0.75000 0.46100
N 	N 	0.60450 0.79570 0.75000 -0.24600
N 	N 	0.89100 0.12300 0.75000 -0.20000
C 	C 	0.66400 0.85000 0.75000 -0.11000
C 	C 	0.83800 0.06600 0.75000 -0.12800
Ag	Ag	0.24740 0.46181 0.75000 0.44800
N 	N 	0.10450 0.29570 0.75000 -0.25000
N 	N 	0.39100 0.62300 0.75000 -0.22800
C 	C 	0.16400 0.35000 0.75000 -0.13000
C 	C 	0.33800 0.56600 0.75000 -0.15400
Ag	Ag	0.25260 0.96181 0.75000 0.45100
N 	N 	0.39550 0.79570 0.75000 -0.24600
N 	N 	0.10900 0.12300 0.75000 -0.23300
C 	C 	0.33600 0.85000 0.75000 -0.12100
C 	C 	0.16200 0.06600 0.75000 -0.15700
Ag	Ag	0.75260 0.46181 0.75000 0.46100
N 	N 	0.89550 0.29570 0.75000 -0.21500
N 	N 	0.60900 0.62300 0.75000 -0.22800
C 	C 	0.83600 0.35000 0.75000 -0.09900
C 	C 	0.66200 0.56600 0.75000 -0.14400
