data_crystal

_cell_length_a 6.37730
_cell_length_b 6.97190
_cell_length_c 15.51180
_cell_angle_alpha 78.96300
_cell_angle_beta  87.65700
_cell_angle_gamma 71.99000

_symmetry_space_group_name_	'P 1'
_symmetry_space_group_name_H-M	'P 1'

loop_
_symmetry_equiv_pos_as_xyz
  x,y,z

loop_
_atom_site_label
_atom_site_type_symbol
_atom_site_fract_x
_atom_site_fract_y
_atom_site_fract_z
_atom_site_charge
La	La	0.29202 0.93712 0.25822 1.60800
O 	O 	0.66130 0.99030 0.27630 -0.40200
O 	O 	0.95320 0.98640 0.35296 -0.39400
O 	O 	0.51830 0.79620 0.13646 -0.40100
O 	O 	0.71080 0.46680 0.18490 -0.28000
O 	O 	0.84640 0.36160 0.75144 -0.41300
O 	O 	0.80710 0.69690 0.71572 -0.38200
N 	N 	0.42830 0.95830 0.42366 -0.16800
N 	N 	0.78470 0.40620 0.01686 -0.10000
N 	N 	0.70770 0.74730 0.88117 -0.16000
C 	C 	0.75680 0.99190 0.34523 0.35400
C 	C 	0.61870 0.99860 0.42729 -0.05900
C 	C 	0.31050 0.95820 0.49720 0.04500
C 	C 	0.64210 0.62070 0.12670 0.32900
C 	C 	0.70210 0.59730 0.03238 -0.02700
C 	C 	0.82190 0.38640 0.93320 0.05800
C 	C 	0.81390 0.53520 0.76960 0.36900
C 	C 	0.77790 0.55590 0.86486 -0.06600
C 	C 	0.67030 0.76700 0.96460 0.03900
H 	H 	0.18200 0.91800 0.49600 0.01900
H 	H 	0.87890 0.25560 0.92010 0.00300
H 	H 	0.62140 0.89800 0.97790 0.02700
La	La	0.70798 0.06288 0.74178 1.60900
O 	O 	0.33870 0.00970 0.72370 -0.40100
O 	O 	0.04680 0.01360 0.64704 -0.39400
O 	O 	0.48170 0.20380 0.86354 -0.40100
O 	O 	0.28920 0.53320 0.81510 -0.28000
O 	O 	0.15360 0.63840 0.24856 -0.41300
O 	O 	0.19290 0.30310 0.28428 -0.38200
N 	N 	0.57170 0.04170 0.57634 -0.16800
N 	N 	0.21530 0.59380 0.98314 -0.10000
N 	N 	0.29230 0.25270 0.11883 -0.16000
C 	C 	0.24320 0.00810 0.65477 0.35400
C 	C 	0.38130 0.00140 0.57271 -0.05900
C 	C 	0.68950 0.04180 0.50280 0.04500
C 	C 	0.35790 0.37930 0.87330 0.32900
C 	C 	0.29790 0.40270 0.96762 -0.02700
C 	C 	0.17810 0.61360 0.06680 0.05800
C 	C 	0.18610 0.46480 0.23040 0.36900
C 	C 	0.22210 0.44410 0.13514 -0.06600
C 	C 	0.32970 0.23300 0.03540 0.03900
H 	H 	0.81800 0.08200 0.50400 0.01900
H 	H 	0.12110 0.74440 0.07990 0.00300
H 	H 	0.37860 0.10200 0.02210 0.02700
