data_crystal

_cell_length_a 20.57000
_cell_length_b 35.81500
_cell_length_c 10.10600
_cell_angle_alpha 90.00000
_cell_angle_beta  114.69400
_cell_angle_gamma 90.00000

_symmetry_space_group_name_	'P 1'
_symmetry_space_group_name_H-M	'P 1'

loop_
_symmetry_equiv_pos_as_xyz
  x,y,z

loop_
_atom_site_label
_atom_site_type_symbol
_atom_site_fract_x
_atom_site_fract_y
_atom_site_fract_z
_atom_site_charge
Nd	Nd	0.75752 0.19259 0.50891 2.59700
Nd	Nd	0.63752 0.03095 0.47923 2.67600
S 	S 	0.75292 0.97379 0.37190 1.09900
S 	S 	0.55838 0.03571 0.13810 0.91200
S 	S 	0.70632 0.11088 0.51640 0.69500
S 	S 	0.90493 0.15756 0.53790 0.69200
S 	S 	0.86778 0.26784 0.44287 0.92600
S 	S 	0.84407 0.25263 0.82236 0.96800
O 	O 	0.77500 0.93680 0.40500 -0.33700
O 	O 	0.71410 0.97990 0.22220 -0.68500
O 	O 	0.82070 0.99550 0.42090 -0.26800
O 	O 	0.71590 0.98730 0.45460 -0.64500
O 	O 	0.58670 0.02752 0.03040 -0.53400
O 	O 	0.56530 0.00294 0.22910 -0.57300
O 	O 	0.48430 0.04825 0.06070 -0.57000
O 	O 	0.59990 0.06512 0.23910 -0.51200
O 	O 	0.73870 0.07541 0.50170 -0.43600
O 	O 	0.64090 0.10047 0.53230 -0.45200
O 	O 	0.69040 0.13518 0.38980 -0.45700
O 	O 	0.75680 0.13249 0.64300 -0.42100
O 	O 	0.91870 0.11812 0.56580 -0.20200
O 	O 	0.96630 0.17704 0.53340 -0.39500
O 	O 	0.83840 0.16375 0.40780 -0.45300
O 	O 	0.89340 0.17602 0.65980 -0.59200
O 	O 	0.81650 0.24802 0.48840 -0.76800
O 	O 	0.86060 0.25577 0.30250 -0.28500
O 	O 	0.84990 0.30760 0.44400 -0.50700
O 	O 	0.94040 0.26143 0.55370 -0.52100
O 	O 	0.79960 0.21945 0.75240 -0.55700
O 	O 	0.91650 0.24664 0.83160 -0.52800
O 	O 	0.81300 0.28661 0.73680 -0.57200
O 	O 	0.84730 0.25660 0.96770 -0.25600
Nd	Nd	0.25752 0.69259 0.50891 2.59300
Nd	Nd	0.13752 0.53095 0.47923 2.65800
S 	S 	0.25292 0.47379 0.37190 1.10200
S 	S 	0.05838 0.53571 0.13810 0.79700
S 	S 	0.20632 0.61088 0.51640 0.69900
S 	S 	0.40493 0.65756 0.53790 0.70500
S 	S 	0.36778 0.76784 0.44287 0.94700
S 	S 	0.34407 0.75263 0.82236 0.98900
O 	O 	0.27500 0.43680 0.40500 -0.35000
O 	O 	0.21410 0.47990 0.22220 -0.68500
O 	O 	0.32070 0.49550 0.42090 -0.28400
O 	O 	0.21590 0.48730 0.45460 -0.64800
O 	O 	0.08670 0.52752 0.03040 -0.52800
O 	O 	0.06530 0.50294 0.22910 -0.57300
O 	O 	0.98430 0.54825 0.06070 -0.48600
O 	O 	0.09990 0.56512 0.23910 -0.50400
O 	O 	0.23870 0.57541 0.50170 -0.44000
O 	O 	0.14090 0.60047 0.53230 -0.46300
O 	O 	0.19040 0.63518 0.38980 -0.46600
O 	O 	0.25680 0.63249 0.64300 -0.42800
O 	O 	0.41870 0.61812 0.56580 -0.23500
O 	O 	0.46630 0.67704 0.53340 -0.46400
O 	O 	0.33840 0.66375 0.40780 -0.46300
O 	O 	0.39340 0.67602 0.65980 -0.63900
O 	O 	0.31650 0.74802 0.48840 -0.77700
O 	O 	0.36060 0.75577 0.30250 -0.30500
O 	O 	0.34990 0.80760 0.44400 -0.52300
O 	O 	0.44040 0.76143 0.55370 -0.59300
O 	O 	0.29960 0.71945 0.75240 -0.56800
O 	O 	0.41650 0.74664 0.83160 -0.59800
O 	O 	0.31300 0.78661 0.73680 -0.58400
O 	O 	0.34730 0.75660 0.96770 -0.27900
Nd	Nd	0.24248 0.19259 0.99109 2.58300
Nd	Nd	0.36248 0.03095 0.02077 2.68600
S 	S 	0.24708 0.97379 0.12810 1.11000
S 	S 	0.44162 0.03571 0.36190 0.91300
S 	S 	0.29368 0.11088 0.98360 0.69500
S 	S 	0.09507 0.15756 0.96210 0.70100
S 	S 	0.13222 0.26784 0.05713 0.94600
S 	S 	0.15593 0.25263 0.67764 0.98000
O 	O 	0.22500 0.93680 0.09500 -0.35700
O 	O 	0.28590 0.97990 0.27780 -0.69300
O 	O 	0.17930 0.99550 0.07910 -0.30000
O 	O 	0.28410 0.98730 0.04540 -0.65200
O 	O 	0.41330 0.02752 0.46960 -0.53700
O 	O 	0.43470 0.00294 0.27090 -0.57300
O 	O 	0.51570 0.04825 0.43930 -0.57000
O 	O 	0.40010 0.06512 0.26090 -0.51400
O 	O 	0.26130 0.07541 0.99830 -0.44700
O 	O 	0.35910 0.10047 0.96770 -0.45400
O 	O 	0.30960 0.13518 0.11020 -0.45500
O 	O 	0.24320 0.13249 0.85700 -0.43000
O 	O 	0.08130 0.11812 0.93420 -0.26100
O 	O 	0.03370 0.17704 0.96660 -0.47700
O 	O 	0.16160 0.16375 0.09220 -0.46100
O 	O 	0.10660 0.17602 0.84020 -0.63100
O 	O 	0.18350 0.24802 0.01160 -0.77000
O 	O 	0.13940 0.25577 0.19750 -0.31500
O 	O 	0.15010 0.30760 0.05600 -0.53100
O 	O 	0.05960 0.26143 0.94630 -0.59600
O 	O 	0.20040 0.21945 0.74760 -0.56600
O 	O 	0.08350 0.24664 0.66840 -0.59600
O 	O 	0.18700 0.28661 0.76320 -0.58700
O 	O 	0.15270 0.25660 0.53230 -0.28800
Nd	Nd	0.74248 0.69259 0.99109 2.59000
Nd	Nd	0.86248 0.53095 0.02077 2.70300
S 	S 	0.74708 0.47379 0.12810 1.10900
S 	S 	0.94162 0.53571 0.36190 1.03100
S 	S 	0.79368 0.61088 0.98360 0.69200
S 	S 	0.59507 0.65756 0.96210 0.70000
S 	S 	0.63222 0.76784 0.05713 0.95000
S 	S 	0.65593 0.75263 0.67764 0.98900
O 	O 	0.72500 0.43680 0.09500 -0.34600
O 	O 	0.78590 0.47990 0.27780 -0.69200
O 	O 	0.67930 0.49550 0.07910 -0.28500
O 	O 	0.78410 0.48730 0.04540 -0.65000
O 	O 	0.91330 0.52752 0.46960 -0.54100
O 	O 	0.93470 0.50294 0.27090 -0.57200
O 	O 	0.01570 0.54825 0.43930 -0.65400
O 	O 	0.90010 0.56512 0.26090 -0.52100
O 	O 	0.76130 0.57541 0.99830 -0.44300
O 	O 	0.85910 0.60047 0.96770 -0.44300
O 	O 	0.80960 0.63518 0.11020 -0.44600
O 	O 	0.74320 0.63249 0.85700 -0.42300
O 	O 	0.58130 0.61812 0.93420 -0.23500
O 	O 	0.53370 0.67704 0.96660 -0.46400
O 	O 	0.66160 0.66375 0.09220 -0.45800
O 	O 	0.60660 0.67602 0.84020 -0.63800
O 	O 	0.68350 0.74802 0.01160 -0.77700
O 	O 	0.63940 0.75577 0.19750 -0.30400
O 	O 	0.65010 0.80760 0.05600 -0.52300
O 	O 	0.55960 0.76143 0.94630 -0.59500
O 	O 	0.70040 0.71945 0.74760 -0.56600
O 	O 	0.58350 0.74664 0.66840 -0.59800
O 	O 	0.68700 0.78661 0.76320 -0.58400
O 	O 	0.65270 0.75660 0.53230 -0.27500
Nd	Nd	0.24248 0.80741 0.49109 2.59300
Nd	Nd	0.36248 0.96905 0.52077 2.67500
S 	S 	0.24708 0.02621 0.62810 1.11200
S 	S 	0.44162 0.96429 0.86190 0.91400
S 	S 	0.29368 0.88912 0.48360 0.69900
S 	S 	0.09507 0.84244 0.46210 0.70700
S 	S 	0.13222 0.73216 0.55713 0.94100
S 	S 	0.15593 0.74737 0.17764 0.97900
O 	O 	0.22500 0.06320 0.59500 -0.35900
O 	O 	0.28590 0.02010 0.77780 -0.69600
O 	O 	0.17930 0.00450 0.57910 -0.30200
O 	O 	0.28410 0.01270 0.54540 -0.65300
O 	O 	0.41330 0.97248 0.96960 -0.54000
O 	O 	0.43470 0.99706 0.77090 -0.57400
O 	O 	0.51570 0.95175 0.93930 -0.57100
O 	O 	0.40010 0.93488 0.76090 -0.51400
O 	O 	0.26130 0.92459 0.49830 -0.44600
O 	O 	0.35910 0.89953 0.46770 -0.45300
O 	O 	0.30960 0.86482 0.61020 -0.46000
O 	O 	0.24320 0.86751 0.35700 -0.43100
O 	O 	0.08130 0.88188 0.43420 -0.26100
O 	O 	0.03370 0.82296 0.46660 -0.47800
O 	O 	0.16160 0.83625 0.59220 -0.46800
O 	O 	0.10660 0.82398 0.34020 -0.63200
O 	O 	0.18350 0.75198 0.51160 -0.77300
O 	O 	0.13940 0.74423 0.69750 -0.31600
O 	O 	0.15010 0.69240 0.55600 -0.53100
O 	O 	0.05960 0.73857 0.44630 -0.59300
O 	O 	0.20040 0.78055 0.24760 -0.56600
O 	O 	0.08350 0.75336 0.16840 -0.59500
O 	O 	0.18700 0.71339 0.26320 -0.58500
O 	O 	0.15270 0.74340 0.03230 -0.28500
Nd	Nd	0.74248 0.30741 0.49109 2.59900
Nd	Nd	0.86248 0.46905 0.52077 2.69500
S 	S 	0.74708 0.52621 0.62810 1.11000
S 	S 	0.94162 0.46429 0.86190 1.03100
S 	S 	0.79368 0.38912 0.48360 0.69600
S 	S 	0.59507 0.34244 0.46210 0.70400
S 	S 	0.63222 0.23216 0.55713 0.94700
S 	S 	0.65593 0.24737 0.17764 0.98900
O 	O 	0.72500 0.56320 0.59500 -0.34700
O 	O 	0.78590 0.52010 0.77780 -0.69500
O 	O 	0.67930 0.50450 0.57910 -0.28600
O 	O 	0.78410 0.51270 0.54540 -0.65000
O 	O 	0.91330 0.47248 0.96960 -0.54400
O 	O 	0.93470 0.49706 0.77090 -0.57300
O 	O 	0.01570 0.45175 0.93930 -0.65600
O 	O 	0.90010 0.43488 0.76090 -0.52100
O 	O 	0.76130 0.42459 0.49830 -0.44100
O 	O 	0.85910 0.39953 0.46770 -0.44100
O 	O 	0.80960 0.36482 0.61020 -0.45000
O 	O 	0.74320 0.36751 0.35700 -0.42400
O 	O 	0.58130 0.38188 0.43420 -0.23500
O 	O 	0.53370 0.32296 0.46660 -0.46500
O 	O 	0.66160 0.33625 0.59220 -0.46200
O 	O 	0.60660 0.32398 0.34020 -0.63900
O 	O 	0.68350 0.25198 0.51160 -0.77800
O 	O 	0.63940 0.24423 0.69750 -0.30500
O 	O 	0.65010 0.19240 0.55600 -0.52300
O 	O 	0.55960 0.23857 0.44630 -0.59300
O 	O 	0.70040 0.28055 0.24760 -0.56700
O 	O 	0.58350 0.25336 0.16840 -0.59700
O 	O 	0.68700 0.21339 0.26320 -0.58200
O 	O 	0.65270 0.24340 0.03230 -0.27300
Nd	Nd	0.75752 0.80741 0.00891 2.60600
Nd	Nd	0.63752 0.96905 0.97923 2.66900
S 	S 	0.75292 0.02621 0.87190 1.10100
S 	S 	0.55838 0.96429 0.63810 0.91300
S 	S 	0.70632 0.88912 0.01640 0.69900
S 	S 	0.90493 0.84244 0.03790 0.69600
S 	S 	0.86778 0.73216 0.94287 0.92200
S 	S 	0.84407 0.74737 0.32236 0.96800
O 	O 	0.77500 0.06320 0.90500 -0.33800
O 	O 	0.71410 0.02010 0.72220 -0.68700
O 	O 	0.82070 0.00450 0.92090 -0.26900
O 	O 	0.71590 0.01270 0.95460 -0.64600
O 	O 	0.58670 0.97248 0.53040 -0.53600
O 	O 	0.56530 0.99706 0.72910 -0.57300
O 	O 	0.48430 0.95175 0.56070 -0.57000
O 	O 	0.59990 0.93488 0.73910 -0.51200
O 	O 	0.73870 0.92459 0.00170 -0.43500
O 	O 	0.64090 0.89953 0.03230 -0.45000
O 	O 	0.69040 0.86482 0.88980 -0.46100
O 	O 	0.75680 0.86751 0.14300 -0.42100
O 	O 	0.91870 0.88188 0.06580 -0.20300
O 	O 	0.96630 0.82296 0.03340 -0.39600
O 	O 	0.83840 0.83625 0.90780 -0.45700
O 	O 	0.89340 0.82398 0.15980 -0.59400
O 	O 	0.81650 0.75198 0.98840 -0.77000
O 	O 	0.86060 0.74423 0.80250 -0.28600
O 	O 	0.84990 0.69240 0.94400 -0.50700
O 	O 	0.94040 0.73857 0.05370 -0.51900
O 	O 	0.79960 0.78055 0.25240 -0.55700
O 	O 	0.91650 0.75336 0.33160 -0.52800
O 	O 	0.81300 0.71339 0.23680 -0.57000
O 	O 	0.84730 0.74340 0.46770 -0.25600
Nd	Nd	0.25752 0.30741 0.00891 2.60400
Nd	Nd	0.13752 0.46905 0.97923 2.64800
S 	S 	0.25292 0.52621 0.87190 1.10300
S 	S 	0.05838 0.46429 0.63810 0.79600
S 	S 	0.20632 0.38912 0.01640 0.70400
S 	S 	0.40493 0.34244 0.03790 0.70900
S 	S 	0.36778 0.23216 0.94287 0.94300
S 	S 	0.34407 0.24737 0.32236 0.98900
O 	O 	0.27500 0.56320 0.90500 -0.35100
O 	O 	0.21410 0.52010 0.72220 -0.68800
O 	O 	0.32070 0.50450 0.92090 -0.28500
O 	O 	0.21590 0.51270 0.95460 -0.64900
O 	O 	0.08670 0.47248 0.53040 -0.53200
O 	O 	0.06530 0.49706 0.72910 -0.57400
O 	O 	0.98430 0.45175 0.56070 -0.48500
O 	O 	0.09990 0.43488 0.73910 -0.50500
O 	O 	0.23870 0.42459 0.00170 -0.43800
O 	O 	0.14090 0.39953 0.03230 -0.46100
O 	O 	0.19040 0.36482 0.88980 -0.47100
O 	O 	0.25680 0.36751 0.14300 -0.42900
O 	O 	0.41870 0.38188 0.06580 -0.23500
O 	O 	0.46630 0.32296 0.03340 -0.46400
O 	O 	0.33840 0.33625 0.90780 -0.46800
O 	O 	0.39340 0.32398 0.15980 -0.64000
O 	O 	0.31650 0.25198 0.98840 -0.77900
O 	O 	0.36060 0.24423 0.80250 -0.30600
O 	O 	0.34990 0.19240 0.94400 -0.52300
O 	O 	0.44040 0.23857 0.05370 -0.59000
O 	O 	0.29960 0.28055 0.25240 -0.56900
O 	O 	0.41650 0.25336 0.33160 -0.59700
O 	O 	0.31300 0.21339 0.23680 -0.58100
O 	O 	0.34730 0.24340 0.46770 -0.27800
Nd	Nd	0.00000 0.22002 0.75000 2.40900
Nd	Nd	0.50000 0.72002 0.75000 2.67600
Nd	Nd	0.00000 0.77998 0.25000 2.41500
Nd	Nd	0.50000 0.27998 0.25000 2.67700
