data_crystal

_cell_length_a 12.85850
_cell_length_b 11.98730
_cell_length_c 7.66850
_cell_angle_alpha 90.00000
_cell_angle_beta  98.89600
_cell_angle_gamma 90.00000

_symmetry_space_group_name_	'P 1'
_symmetry_space_group_name_H-M	'P 1'

loop_
_symmetry_equiv_pos_as_xyz
  x,y,z

loop_
_atom_site_label
_atom_site_type_symbol
_atom_site_fract_x
_atom_site_fract_y
_atom_site_fract_z
_atom_site_charge
Co	Co	0.26570 0.48850 0.59428 1.12100
O 	O 	0.13750 0.58550 0.47720 -0.46600
O 	O 	0.10620 0.74750 0.33110 -0.33200
O 	O 	0.22020 0.98810 0.33640 -0.45700
O 	O 	0.15070 0.94000 0.57110 -0.46100
O 	O 	0.59680 0.91440 0.78750 -0.39000
O 	O 	0.64340 0.73480 0.79000 -0.28600
N 	N 	0.33650 0.64640 0.58590 -0.22300
C 	C 	0.16070 0.68440 0.43560 0.30400
C 	C 	0.26890 0.72630 0.51790 0.00900
C 	C 	0.29740 0.83770 0.51970 -0.10900
C 	C 	0.39880 0.86700 0.59340 0.05400
H 	H 	0.41990 0.94120 0.59590 0.05000
C 	C 	0.46880 0.78440 0.66360 -0.11200
C 	C 	0.43460 0.67460 0.65490 0.08600
H 	H 	0.48160 0.61870 0.69860 0.01100
C 	C 	0.21600 0.92850 0.46630 0.40900
C 	C 	0.57870 0.81300 0.75260 0.35000
Co	Co	0.73430 0.98850 0.90572 1.18700
O 	O 	0.86250 0.08550 0.02280 -0.41700
O 	O 	0.89380 0.24750 0.16890 -0.24500
O 	O 	0.77980 0.48810 0.16360 -0.44000
O 	O 	0.84930 0.44000 0.92890 -0.37000
O 	O 	0.40320 0.41440 0.71250 -0.43600
O 	O 	0.35660 0.23480 0.71000 -0.34700
N 	N 	0.66350 0.14640 0.91410 -0.23900
C 	C 	0.83930 0.18440 0.06440 0.25600
C 	C 	0.73110 0.22630 0.98210 0.03800
C 	C 	0.70260 0.33770 0.98030 -0.08200
C 	C 	0.60120 0.36700 0.90660 0.04800
H 	H 	0.58010 0.44120 0.90410 0.03800
C 	C 	0.53120 0.28440 0.83640 -0.12700
C 	C 	0.56540 0.17460 0.84510 0.09400
H 	H 	0.51840 0.11870 0.80140 -0.01400
C 	C 	0.78400 0.42850 0.03370 0.33400
C 	C 	0.42130 0.31300 0.74740 0.36100
Co	Co	0.73430 0.51150 0.40572 1.13800
O 	O 	0.86250 0.41450 0.52280 -0.37200
O 	O 	0.89380 0.25250 0.66890 -0.23700
O 	O 	0.77980 0.01190 0.66360 -0.48900
O 	O 	0.84930 0.06000 0.42890 -0.43500
O 	O 	0.40320 0.08560 0.21250 -0.48200
O 	O 	0.35660 0.26520 0.21000 -0.35600
N 	N 	0.66350 0.35360 0.41410 -0.23200
C 	C 	0.83930 0.31560 0.56440 0.27700
C 	C 	0.73110 0.27370 0.48210 0.02800
C 	C 	0.70260 0.16230 0.48030 -0.14400
C 	C 	0.60120 0.13300 0.40660 0.07500
H 	H 	0.58010 0.05880 0.40410 -0.00600
C 	C 	0.53120 0.21560 0.33640 -0.15500
C 	C 	0.56540 0.32540 0.34510 0.09500
H 	H 	0.51840 0.38130 0.30140 -0.00200
C 	C 	0.78400 0.07150 0.53370 0.41500
C 	C 	0.42130 0.18700 0.24740 0.36300
Co	Co	0.26570 0.01150 0.09428 1.06100
O 	O 	0.13750 0.91450 0.97720 -0.41400
O 	O 	0.10620 0.75250 0.83110 -0.32300
O 	O 	0.22020 0.51190 0.83640 -0.52000
O 	O 	0.15070 0.56000 0.07110 -0.54900
O 	O 	0.59680 0.58560 0.28750 -0.43200
O 	O 	0.64340 0.76520 0.29000 -0.29200
N 	N 	0.33650 0.85360 0.08590 -0.21400
C 	C 	0.16070 0.81560 0.93560 0.32200
C 	C 	0.26890 0.77370 0.01790 0.00300
C 	C 	0.29740 0.66230 0.01970 -0.17900
C 	C 	0.39880 0.63300 0.09340 0.08500
H 	H 	0.41990 0.55880 0.09590 0.00300
C 	C 	0.46880 0.71560 0.16360 -0.14000
C 	C 	0.43460 0.82540 0.15490 0.08900
H 	H 	0.48160 0.88130 0.19860 0.02400
C 	C 	0.21600 0.57150 0.96630 0.50000
C 	C 	0.57870 0.68700 0.25260 0.35200
Co	Co	0.00000 0.00000 0.50000 0.96000
Co	Co	0.00000 0.50000 -0.00000 0.98600
