data_crystal

_cell_length_a 13.13170
_cell_length_b 12.12560
_cell_length_c 7.81190
_cell_angle_alpha 90.00000
_cell_angle_beta  99.73400
_cell_angle_gamma 90.00000

_symmetry_space_group_name_	'P 1'
_symmetry_space_group_name_H-M	'P 1'

loop_
_symmetry_equiv_pos_as_xyz
  x,y,z

loop_
_atom_site_label
_atom_site_type_symbol
_atom_site_fract_x
_atom_site_fract_y
_atom_site_fract_z
_atom_site_charge
Mn	Mn	0.73682 0.48229 0.90140 1.26200
O 	O 	0.13662 0.09007 0.48080 -0.51500
N 	N 	0.33549 0.14880 0.58390 -0.23800
C 	C 	0.16100 0.18730 0.43790 0.30400
O 	O 	0.10638 0.24991 0.33490 -0.37200
C 	C 	0.26820 0.22810 0.51900 0.01000
O 	O 	0.15329 0.44222 0.57720 -0.53600
C 	C 	0.29490 0.33910 0.52340 -0.13800
O 	O 	0.21979 0.48848 0.34470 -0.54400
C 	C 	0.39580 0.36750 0.59570 0.07400
H 	H 	0.41400 0.44000 0.60600 0.01600
O 	O 	0.59326 0.41408 0.77980 -0.44400
C 	C 	0.46610 0.28590 0.66070 -0.13800
O 	O 	0.63734 0.23609 0.78610 -0.33100
C 	C 	0.43240 0.17700 0.65100 0.10000
H 	H 	0.47500 0.11800 0.68700 -0.01400
C 	C 	0.21610 0.42890 0.47240 0.42300
C 	C 	0.57470 0.31330 0.74810 0.36400
Mn	Mn	0.26318 0.98229 0.59860 1.26300
O 	O 	0.86338 0.59007 0.01920 -0.41700
N 	N 	0.66451 0.64880 0.91610 -0.22300
C 	C 	0.83900 0.68730 0.06210 0.25200
O 	O 	0.89362 0.74991 0.16510 -0.25400
C 	C 	0.73180 0.72810 0.98100 0.03700
O 	O 	0.84671 0.94222 0.92280 -0.37600
C 	C 	0.70510 0.83910 0.97660 -0.07200
O 	O 	0.78021 0.98848 0.15530 -0.44000
C 	C 	0.60420 0.86750 0.90430 0.03600
H 	H 	0.58600 0.94000 0.89400 0.05500
O 	O 	0.40674 0.91408 0.72020 -0.42900
C 	C 	0.53390 0.78590 0.83930 -0.11100
O 	O 	0.36266 0.73609 0.71390 -0.34500
C 	C 	0.56760 0.67700 0.84900 0.08500
H 	H 	0.52500 0.61800 0.81300 0.00500
C 	C 	0.78390 0.92890 0.02760 0.32200
C 	C 	0.42530 0.81330 0.75190 0.35500
Mn	Mn	0.26318 0.51771 0.09860 1.22600
O 	O 	0.86338 0.90993 0.51920 -0.37700
N 	N 	0.66451 0.85120 0.41610 -0.22100
C 	C 	0.83900 0.81270 0.56210 0.27600
O 	O 	0.89362 0.75009 0.66510 -0.24600
C 	C 	0.73180 0.77190 0.48100 0.02400
O 	O 	0.84671 0.55778 0.42280 -0.45100
C 	C 	0.70510 0.66090 0.47660 -0.13500
O 	O 	0.78021 0.51152 0.65530 -0.48200
C 	C 	0.60420 0.63250 0.40430 0.06400
H 	H 	0.58600 0.56000 0.39400 0.01700
O 	O 	0.40674 0.58592 0.22020 -0.46400
C 	C 	0.53390 0.71410 0.33930 -0.13900
O 	O 	0.36266 0.76391 0.21390 -0.35800
C 	C 	0.56760 0.82300 0.34900 0.08500
H 	H 	0.52500 0.88200 0.31300 0.01100
C 	C 	0.78390 0.57110 0.52760 0.41000
C 	C 	0.42530 0.68670 0.25190 0.35700
Mn	Mn	0.73682 0.01771 0.40140 1.22600
O 	O 	0.13662 0.40993 0.98080 -0.48000
N 	N 	0.33549 0.35120 0.08390 -0.23700
C 	C 	0.16100 0.31270 0.93790 0.33300
O 	O 	0.10638 0.25009 0.83490 -0.36000
C 	C 	0.26820 0.27190 0.01900 -0.00600
O 	O 	0.15329 0.05778 0.07720 -0.60500
C 	C 	0.29490 0.16090 0.02340 -0.21000
O 	O 	0.21979 0.01152 0.84470 -0.57800
C 	C 	0.39580 0.13250 0.09570 0.10700
H 	H 	0.41400 0.06000 0.10600 -0.02400
O 	O 	0.59326 0.08592 0.27980 -0.48100
C 	C 	0.46610 0.21410 0.16070 -0.16800
O 	O 	0.63734 0.26391 0.28610 -0.34300
C 	C 	0.43240 0.32300 0.15100 0.10100
H 	H 	0.47500 0.38200 0.18700 -0.01000
C 	C 	0.21610 0.07110 0.97240 0.52600
C 	C 	0.57470 0.18670 0.24810 0.36600
Mn	Mn	0.00000 0.50000 0.50000 1.12600
Mn	Mn	-0.00000 0.00000 -0.00000 1.09400
