data_crystal

_cell_length_a 17.86500
_cell_length_b 10.25400
_cell_length_c 11.57010
_cell_angle_alpha 90.00000
_cell_angle_beta  97.65500
_cell_angle_gamma 90.00000

_symmetry_space_group_name_	'P 1'
_symmetry_space_group_name_H-M	'P 1'

loop_
_symmetry_equiv_pos_as_xyz
  x,y,z

loop_
_atom_site_label
_atom_site_type_symbol
_atom_site_fract_x
_atom_site_fract_y
_atom_site_fract_z
_atom_site_charge
K 	K 	0.38145 0.09869 0.68575 0.61200
C 	C 	0.51290 0.35420 0.65470 0.12000
H 	H 	0.47520 0.33600 0.58700 -0.04200
H 	H 	0.56320 0.33720 0.63290 -0.04200
C 	C 	0.50730 0.48880 0.69050 -0.14400
H 	H 	0.55450 0.53510 0.68370 0.04000
H 	H 	0.46620 0.53270 0.64080 0.04600
C 	C 	0.39927 0.01310 0.43640 -0.13800
H 	H 	0.36810 0.06710 0.38490 -0.00500
C 	C 	0.36760 0.90880 0.48740 -0.10200
H 	H 	0.31580 0.89090 0.46880 -0.00400
C 	C 	0.41130 0.83190 0.56450 -0.05800
H 	H 	0.38940 0.76140 0.59970 0.00500
C 	C 	0.48760 0.85610 0.59190 -0.11600
H 	H 	0.51650 0.80200 0.64630 0.03300
C 	C 	0.47677 0.04090 0.45920 -0.02500
K 	K 	0.61855 0.09869 0.81425 0.61200
C 	C 	0.48710 0.35420 0.84530 0.11900
H 	H 	0.52480 0.33600 0.91300 -0.04200
H 	H 	0.43680 0.33720 0.86710 -0.04200
C 	C 	0.49270 0.48880 0.80950 -0.14500
H 	H 	0.44550 0.53510 0.81630 0.04100
H 	H 	0.53380 0.53270 0.85920 0.04700
C 	C 	0.60073 0.01310 0.06360 -0.11200
H 	H 	0.63190 0.06710 0.11510 -0.01300
C 	C 	0.63240 0.90880 0.01260 -0.13700
H 	H 	0.68420 0.89090 0.03120 0.00600
C 	C 	0.58870 0.83190 0.93550 -0.02700
H 	H 	0.61060 0.76140 0.90030 -0.00500
C 	C 	0.51240 0.85610 0.90810 -0.13500
H 	H 	0.48350 0.80200 0.85370 0.04000
C 	C 	0.52323 0.04090 0.04080 -0.04100
K 	K 	0.61855 0.90131 0.31425 0.61200
C 	C 	0.48710 0.64580 0.34530 0.11900
H 	H 	0.52480 0.66400 0.41300 -0.04200
H 	H 	0.43680 0.66280 0.36710 -0.04200
C 	C 	0.49270 0.51120 0.30950 -0.14400
H 	H 	0.44550 0.46490 0.31630 0.04000
H 	H 	0.53380 0.46730 0.35920 0.04600
C 	C 	0.60073 0.98690 0.56360 -0.13600
H 	H 	0.63190 0.93290 0.61510 -0.00500
C 	C 	0.63240 0.09120 0.51260 -0.10400
H 	H 	0.68420 0.10910 0.53120 -0.00300
C 	C 	0.58870 0.16810 0.43550 -0.05600
H 	H 	0.61060 0.23860 0.40030 0.00500
C 	C 	0.51240 0.14390 0.40810 -0.11700
H 	H 	0.48350 0.19800 0.35370 0.03400
C 	C 	0.52323 0.95910 0.54080 -0.02500
K 	K 	0.38145 0.90131 0.18575 0.61100
C 	C 	0.51290 0.64580 0.15470 0.12000
H 	H 	0.47520 0.66400 0.08700 -0.04400
H 	H 	0.56320 0.66280 0.13290 -0.04400
C 	C 	0.50730 0.51120 0.19050 -0.14600
H 	H 	0.55450 0.46490 0.18370 0.04000
H 	H 	0.46620 0.46730 0.14080 0.04600
C 	C 	0.39927 0.98690 0.93640 -0.14000
H 	H 	0.36810 0.93290 0.88490 -0.00300
C 	C 	0.36760 0.09120 0.98740 -0.10200
H 	H 	0.31580 0.10910 0.96880 -0.00400
C 	C 	0.41130 0.16810 0.06450 -0.06200
H 	H 	0.38940 0.23860 0.09970 0.00600
C 	C 	0.48760 0.14390 0.09190 -0.10700
H 	H 	0.51650 0.19800 0.14630 0.03000
C 	C 	0.47677 0.95910 0.95920 -0.01000
O 	O 	0.50000 0.27290 0.75000 -0.35800
O 	O 	0.50000 0.72710 0.25000 -0.35800
K 	K 	0.88145 0.59869 0.68575 0.61100
C 	C 	0.01290 0.85420 0.65470 0.10800
H 	H 	0.97520 0.83600 0.58700 -0.04300
H 	H 	0.06320 0.83720 0.63290 -0.03800
C 	C 	0.00730 0.98880 0.69050 -0.10500
H 	H 	0.05450 0.03510 0.68370 0.02800
H 	H 	0.96620 0.03270 0.64080 0.03100
C 	C 	0.89927 0.51310 0.43640 -0.08200
H 	H 	0.86810 0.56710 0.38490 -0.02400
C 	C 	0.86760 0.40880 0.48740 -0.15900
H 	H 	0.81580 0.39090 0.46880 0.01600
C 	C 	0.91130 0.33190 0.56450 0.00300
H 	H 	0.88940 0.26140 0.59970 -0.01600
C 	C 	0.98760 0.35610 0.59190 -0.18800
H 	H 	0.01650 0.30200 0.64630 0.06100
C 	C 	0.97677 0.54090 0.45920 -0.09200
K 	K 	0.11855 0.59869 0.81425 0.61200
C 	C 	0.98710 0.85420 0.84530 0.11100
H 	H 	0.02480 0.83600 0.91300 -0.03500
H 	H 	0.93680 0.83720 0.86710 -0.04000
C 	C 	0.99270 0.98880 0.80950 -0.16700
H 	H 	0.94550 0.03510 0.81630 0.04500
H 	H 	0.03380 0.03270 0.85920 0.05500
C 	C 	0.10073 0.51310 0.06360 -0.18000
H 	H 	0.13190 0.56710 0.11510 0.00900
C 	C 	0.13240 0.40880 0.01260 -0.06200
H 	H 	0.18420 0.39090 0.03120 -0.01800
C 	C 	0.08870 0.33190 0.93550 -0.10200
H 	H 	0.11060 0.26140 0.90030 0.02000
C 	C 	0.01240 0.35610 0.90810 -0.06100
H 	H 	0.98350 0.30200 0.85370 0.01000
C 	C 	0.02323 0.54090 0.04080 0.02600
K 	K 	0.11855 0.40131 0.31425 0.61200
C 	C 	0.98710 0.14580 0.34530 0.12600
H 	H 	0.02480 0.16400 0.41300 -0.04100
H 	H 	0.93680 0.16280 0.36710 -0.04500
C 	C 	0.99270 0.01120 0.30950 -0.19600
H 	H 	0.94550 0.96490 0.31630 0.05400
H 	H 	0.03380 0.96730 0.35920 0.06400
C 	C 	0.10073 0.48690 0.56360 -0.19400
H 	H 	0.13190 0.43290 0.61510 0.01400
C 	C 	0.13240 0.59120 0.51260 -0.04600
H 	H 	0.18420 0.60910 0.53120 -0.02300
C 	C 	0.08870 0.66810 0.43550 -0.11800
H 	H 	0.11060 0.73860 0.40030 0.02600
C 	C 	0.01240 0.64390 0.40810 -0.04500
H 	H 	0.98350 0.69800 0.35370 0.00400
C 	C 	0.02323 0.45910 0.54080 0.04100
K 	K 	0.88145 0.40131 0.18575 0.61100
C 	C 	0.01290 0.14580 0.15470 0.09400
H 	H 	0.97520 0.16400 0.08700 -0.03800
H 	H 	0.06320 0.16280 0.13290 -0.03400
C 	C 	0.00730 0.01120 0.19050 -0.07800
H 	H 	0.05450 0.96490 0.18370 0.01900
H 	H 	0.96620 0.96730 0.14080 0.02100
C 	C 	0.89927 0.48690 0.93640 -0.09800
H 	H 	0.86810 0.43290 0.88490 -0.01800
C 	C 	0.86760 0.59120 0.98740 -0.13800
H 	H 	0.81580 0.60910 0.96880 0.01000
C 	C 	0.91130 0.66810 0.06450 -0.01700
H 	H 	0.88940 0.73860 0.09970 -0.01000
C 	C 	0.98760 0.64390 0.09190 -0.17500
H 	H 	0.01650 0.69800 0.14630 0.05700
C 	C 	0.97677 0.45910 0.95920 -0.07500
O 	O 	0.00000 0.77290 0.75000 -0.35000
O 	O 	0.00000 0.22710 0.25000 -0.35100
