data_crystal

_cell_length_a 9.15100
_cell_length_b 9.16710
_cell_length_c 9.31360
_cell_angle_alpha 77.93000
_cell_angle_beta  86.22000
_cell_angle_gamma 88.36000

_symmetry_space_group_name_	'P 1'
_symmetry_space_group_name_H-M	'P 1'

loop_
_symmetry_equiv_pos_as_xyz
  x,y,z

loop_
_atom_site_label
_atom_site_type_symbol
_atom_site_fract_x
_atom_site_fract_y
_atom_site_fract_z
_atom_site_charge
P 	P 	0.35335 0.83150 0.85617 0.70900
P 	P 	0.18703 0.38304 0.89947 0.85700
P 	P 	0.61876 0.37193 0.67852 0.82100
Al	Al	0.43784 0.13294 0.91199 2.39600
Al	Al	0.62582 0.39652 0.34237 2.39900
Al	Al	0.84159 0.36783 0.92376 2.39800
F 	F 	0.39170 0.98880 0.08020 0.18800
O 	O 	0.20260 0.77840 0.92950 -0.74200
O 	O 	0.37490 0.77120 0.71360 -0.71600
O 	O 	0.47020 0.76580 0.96080 -0.68800
O 	O 	0.35440 0.00040 0.81130 -0.58800
O 	O 	0.26520 0.23560 0.92910 -0.65500
O 	O 	0.02680 0.35870 0.88180 -0.76700
O 	O 	0.20060 0.46100 0.02850 -0.79700
O 	O 	0.24570 0.48460 0.75790 -0.81600
O 	O 	0.50670 0.25590 0.74010 -0.70400
O 	O 	0.55080 0.52830 0.66900 -0.78900
O 	O 	0.75330 0.36000 0.76740 -0.75800
O 	O 	0.67240 0.35670 0.52380 -0.73600
O 	O 	0.38700 0.99100 0.09700 -1.01200
P 	P 	0.64665 0.16850 0.14383 0.70900
P 	P 	0.81297 0.61696 0.10053 0.85700
P 	P 	0.38124 0.62807 0.32148 0.82100
Al	Al	0.56216 0.86706 0.08801 2.39600
Al	Al	0.37418 0.60348 0.65763 2.39900
Al	Al	0.15841 0.63217 0.07624 2.39800
F 	F 	0.60830 0.01120 0.91980 0.18800
O 	O 	0.79740 0.22160 0.07050 -0.74200
O 	O 	0.62510 0.22880 0.28640 -0.71600
O 	O 	0.52980 0.23420 0.03920 -0.68800
O 	O 	0.64560 0.99960 0.18870 -0.58800
O 	O 	0.73480 0.76440 0.07090 -0.65500
O 	O 	0.97320 0.64130 0.11820 -0.76700
O 	O 	0.79940 0.53900 0.97150 -0.79700
O 	O 	0.75430 0.51540 0.24210 -0.81600
O 	O 	0.49330 0.74410 0.25990 -0.70400
O 	O 	0.44920 0.47170 0.33100 -0.78900
O 	O 	0.24670 0.64000 0.23260 -0.75800
O 	O 	0.32760 0.64330 0.47620 -0.73600
O 	O 	0.61300 0.00900 0.90300 -1.01200
