data_crystal

_cell_length_a 10.01300
_cell_length_b 11.41600
_cell_length_c 14.91400
_cell_angle_alpha 91.44000
_cell_angle_beta  90.00000
_cell_angle_gamma 90.00000

_symmetry_space_group_name_	'P 1'
_symmetry_space_group_name_H-M	'P 1'

loop_
_symmetry_equiv_pos_as_xyz
  x,y,z

loop_
_atom_site_label
_atom_site_type_symbol
_atom_site_fract_x
_atom_site_fract_y
_atom_site_fract_z
_atom_site_charge
Mg	Mg	0.00000 0.00000 0.50000 1.45800
Mg	Mg	0.62118 0.26112 0.69528 1.48000
Mg	Mg	0.37882 0.73888 0.30472 1.48100
Mg	Mg	0.42683 0.24489 0.86472 1.47600
Mg	Mg	0.12118 0.23888 0.80472 1.47300
Mg	Mg	0.92683 0.25511 0.63528 1.49200
Mg	Mg	0.57317 0.75511 0.13528 1.47700
Mg	Mg	0.07317 0.74489 0.36472 1.46200
Mg	Mg	0.50000 0.50000 -0.00000 1.46600
Mg	Mg	0.87882 0.76112 0.19528 1.48600
Mg	Mg	-0.00000 0.50000 0.50000 1.46600
Mg	Mg	0.50000 0.00000 -0.00000 1.46000
H 	H 	0.85380 0.80300 0.57200 -0.08500
H 	H 	0.27430 0.15180 0.63020 -0.16000
H 	H 	0.45190 0.47640 0.25580 -0.15400
H 	H 	0.21700 0.99470 0.96440 0.01800
H 	H 	0.37280 0.94070 0.44780 -0.10700
H 	H 	0.28300 0.49470 0.46440 -0.14200
H 	H 	0.87280 0.55930 0.05220 -0.12100
H 	H 	0.54810 0.52360 0.74420 -0.11900
H 	H 	0.22570 0.65180 0.13020 -0.19800
H 	H 	0.28120 0.96440 0.21180 -0.22800
H 	H 	0.72570 0.84820 0.36980 -0.13000
H 	H 	0.14620 0.19700 0.42800 -0.19000
H 	H 	0.62720 0.05930 0.55220 -0.15200
H 	H 	0.78300 0.00530 0.03560 -0.26100
H 	H 	0.12720 0.44070 0.94780 -0.13900
H 	H 	0.71700 0.50530 0.53560 -0.11600
H 	H 	0.04810 0.97640 0.75580 0.01200
H 	H 	0.21880 0.46440 0.71180 -0.17000
H 	H 	0.71880 0.03560 0.78820 -0.08700
H 	H 	0.35380 0.69700 0.92800 -0.20500
H 	H 	0.78120 0.53560 0.28820 -0.14600
H 	H 	0.64620 0.30300 0.07200 -0.06700
H 	H 	0.77430 0.34820 0.86980 -0.09100
H 	H 	0.95190 0.02360 0.24420 -0.25600
C 	C 	0.85130 0.55880 0.32550 0.58000
C 	C 	0.97320 0.98100 0.29460 0.86500
C 	C 	0.59210 0.25940 0.03310 0.31500
C 	C 	0.47320 0.51900 0.20540 0.60700
C 	C 	0.40790 0.74060 0.96690 0.84800
C 	C 	0.02680 0.01900 0.70540 0.26100
C 	C 	0.52680 0.48100 0.79460 0.57800
C 	C 	0.71740 0.07760 0.55780 0.58000
C 	C 	0.73410 0.43940 0.56910 0.54800
C 	C 	0.64870 0.05880 0.82550 0.43000
C 	C 	0.90790 0.75940 0.53310 0.55600
C 	C 	0.23410 0.06060 0.93090 0.38100
C 	C 	0.76590 0.93940 0.06910 0.73200
C 	C 	0.34130 0.17810 0.66890 0.57300
C 	C 	0.09210 0.24060 0.46690 0.60700
C 	C 	0.78260 0.57760 0.05780 0.58100
C 	C 	0.65870 0.82190 0.33110 0.56900
C 	C 	0.14870 0.44120 0.67450 0.61300
C 	C 	0.84130 0.32190 0.83110 0.54300
C 	C 	0.26590 0.56060 0.43090 0.58700
C 	C 	0.35130 0.94120 0.17450 0.76300
C 	C 	0.15870 0.67810 0.16890 0.59800
C 	C 	0.28260 0.92240 0.44220 0.55600
C 	C 	0.21740 0.42240 0.94220 0.55700
O 	O 	0.97450 0.81570 0.47547 -0.56500
O 	O 	0.48780 0.46310 0.13435 -0.56400
O 	O 	0.85390 0.40260 0.56965 -0.58600
O 	O 	0.51570 0.37040 0.78360 -0.66900
O 	O 	0.75030 0.65930 0.11493 -0.66100
O 	O 	0.01220 0.96310 0.63435 -0.43100
O 	O 	0.45350 0.19350 0.63575 -0.52200
O 	O 	0.70360 0.52150 0.00970 -0.56700
O 	O 	0.30910 0.19500 0.75086 -0.67600
O 	O 	0.87640 0.49610 0.38960 -0.45800
O 	O 	0.35390 0.09740 0.93035 -0.59600
O 	O 	0.52550 0.31570 0.97547 -0.48600
O 	O 	0.02550 0.18430 0.52453 -0.76300
O 	O 	0.20360 0.97850 0.49030 -0.49400
O 	O 	0.19090 0.69500 0.25086 -0.71700
O 	O 	0.74970 0.15930 0.61493 -0.64000
O 	O 	0.14610 0.59740 0.43035 -0.73000
O 	O 	0.24970 0.34070 0.88507 -0.67500
O 	O 	0.98430 0.87040 0.28360 -0.66800
O 	O 	0.51220 0.53690 0.86565 -0.46400
O 	O 	0.62360 0.99610 0.88960 -0.32300
O 	O 	0.90870 0.65200 0.54200 -0.44500
O 	O 	0.63790 0.39650 0.60865 -0.49700
O 	O 	0.37640 0.00390 0.11040 -0.70200
O 	O 	0.80910 0.30500 0.74914 -0.61100
O 	O 	0.12360 0.50390 0.61040 -0.56700
O 	O 	0.59130 0.15200 0.04200 -0.52100
O 	O 	0.25030 0.84070 0.38507 -0.69300
O 	O 	0.41280 0.84740 0.19401 -0.72400
O 	O 	0.58720 0.15260 0.80599 -0.62900
O 	O 	0.98780 0.03690 0.36565 -0.56700
O 	O 	0.01570 0.12960 0.71640 -0.67200
O 	O 	0.91280 0.65260 0.30599 -0.61200
O 	O 	0.09130 0.34800 0.45800 -0.58900
O 	O 	0.54650 0.80650 0.36425 -0.49700
O 	O 	0.13790 0.10350 0.89135 -0.50700
O 	O 	0.48430 0.62960 0.21640 -0.68100
O 	O 	0.40870 0.84800 0.95800 -0.50700
O 	O 	0.08720 0.34740 0.69401 -0.74200
O 	O 	0.69090 0.80500 0.24914 -0.65300
O 	O 	0.79640 0.02150 0.50970 -0.50400
O 	O 	0.86210 0.89650 0.10865 -0.50800
O 	O 	0.36210 0.60350 0.39135 -0.51900
O 	O 	0.47450 0.68430 0.02453 -0.84000
O 	O 	0.04650 0.69350 0.13575 -0.64400
O 	O 	0.95350 0.30650 0.86425 -0.37100
O 	O 	0.29640 0.47850 0.99030 -0.43800
O 	O 	0.64610 0.90260 0.06965 -0.71600
