data_crystal

_cell_length_a 10.59030
_cell_length_b 13.36200
_cell_length_c 20.90700
_cell_angle_alpha 90.00000
_cell_angle_beta  90.00000
_cell_angle_gamma 113.34600

_symmetry_space_group_name_	'P 1'
_symmetry_space_group_name_H-M	'P 1'

loop_
_symmetry_equiv_pos_as_xyz
  x,y,z

loop_
_atom_site_label
_atom_site_type_symbol
_atom_site_fract_x
_atom_site_fract_y
_atom_site_fract_z
_atom_site_charge
Cd	Cd	0.40392 0.53520 0.43566 1.21600
Cd	Cd	0.59608 0.46480 0.93566 1.21700
Cd	Cd	0.13128 0.53520 0.06434 1.21600
Cd	Cd	0.86872 0.46480 0.56434 1.21700
H 	H 	0.21910 0.46320 0.64620 0.05600
H 	H 	0.36270 0.37420 0.80220 0.04600
H 	H 	0.55460 0.38600 0.74760 0.03300
H 	H 	0.56010 0.37840 0.47610 0.00900
H 	H 	0.42070 0.37720 0.30440 0.02400
H 	H 	0.52510 0.24600 0.30590 0.04800
H 	H 	0.72260 0.27140 0.45180 0.06800
H 	H 	0.58210 0.16980 0.45560 0.07700
H 	H 	0.51050 0.03720 0.36810 0.07400
H 	H 	0.57800 0.95840 0.28310 0.03300
H 	H 	0.95140 0.19680 0.28850 0.03800
H 	H 	0.88560 0.28360 0.36960 0.08800
H 	H 	0.91700 0.65680 0.04700 0.01300
H 	H 	0.29520 0.81220 0.10660 0.02100
H 	H 	0.18950 0.94700 0.10270 0.04400
H 	H 	0.95290 0.91460 0.02560 0.06600
H 	H 	0.83370 0.80360 0.04370 0.07400
H 	H 	0.75450 0.77700 0.15990 0.07700
H 	H 	0.71410 0.86160 0.24980 0.04500
H 	H 	0.94250 0.15100 0.17890 0.04600
H 	H 	0.00040 0.07040 0.09290 0.05800
H 	H 	0.78090 0.53680 0.14620 0.05600
H 	H 	0.63730 0.62580 0.30220 0.04600
H 	H 	0.44540 0.61400 0.24760 0.03300
H 	H 	0.43990 0.62160 0.97610 0.00900
H 	H 	0.57930 0.62280 0.80440 0.02400
H 	H 	0.47490 0.75400 0.80590 0.04800
H 	H 	0.27740 0.72860 0.95180 0.06800
H 	H 	0.41790 0.83020 0.95560 0.07700
H 	H 	0.48950 0.96280 0.86810 0.07400
H 	H 	0.42200 0.04160 0.78310 0.03300
H 	H 	0.04860 0.80320 0.78850 0.03900
H 	H 	0.11440 0.71640 0.86960 0.08800
H 	H 	0.08300 0.34320 0.54700 0.01400
H 	H 	0.70480 0.18780 0.60660 0.02100
H 	H 	0.81050 0.05300 0.60270 0.04400
H 	H 	0.04710 0.08540 0.52560 0.06600
H 	H 	0.16630 0.19640 0.54370 0.07500
H 	H 	0.24550 0.22300 0.65990 0.07700
H 	H 	0.28590 0.13840 0.74980 0.04400
H 	H 	0.05750 0.84900 0.67890 0.04400
H 	H 	0.99960 0.92960 0.59290 0.06000
H 	H 	0.24410 0.46320 0.85380 0.05600
H 	H 	0.01150 0.37420 0.69780 0.04600
H 	H 	0.83140 0.38600 0.75240 0.03300
H 	H 	0.81830 0.37840 0.02390 0.00900
H 	H 	0.95650 0.37720 0.19560 0.02400
H 	H 	0.72090 0.24600 0.19410 0.04800
H 	H 	0.54880 0.27140 0.04820 0.06700
H 	H 	0.58770 0.16980 0.04440 0.07700
H 	H 	0.52670 0.03720 0.13190 0.07300
H 	H 	0.38040 0.95840 0.21690 0.03400
H 	H 	0.24540 0.19680 0.21150 0.03900
H 	H 	0.39800 0.28360 0.13040 0.08700
H 	H 	0.73980 0.65680 0.45300 0.01400
H 	H 	0.51700 0.81220 0.39340 0.02100
H 	H 	0.75750 0.94700 0.39730 0.04400
H 	H 	0.96170 0.91460 0.47440 0.06800
H 	H 	0.96990 0.80360 0.45630 0.07600
H 	H 	0.02250 0.77700 0.34010 0.08100
H 	H 	0.14750 0.86160 0.25020 0.04100
H 	H 	0.20850 0.15100 0.32110 0.04000
H 	H 	0.07000 0.07040 0.40710 0.06500
H 	H 	0.75590 0.53680 0.35380 0.05600
H 	H 	0.98850 0.62580 0.19780 0.04600
H 	H 	0.16860 0.61400 0.25240 0.03300
H 	H 	0.18170 0.62160 0.52390 0.00900
H 	H 	0.04350 0.62280 0.69560 0.02400
H 	H 	0.27910 0.75400 0.69410 0.04800
H 	H 	0.45120 0.72860 0.54820 0.06700
H 	H 	0.41230 0.83020 0.54440 0.07600
H 	H 	0.47330 0.96280 0.63190 0.07300
H 	H 	0.61960 0.04160 0.71690 0.03400
H 	H 	0.75460 0.80320 0.71150 0.03900
H 	H 	0.60200 0.71640 0.63040 0.08700
H 	H 	0.26020 0.34320 0.95300 0.01400
H 	H 	0.48300 0.18780 0.89340 0.02100
H 	H 	0.24250 0.05300 0.89730 0.04400
H 	H 	0.03830 0.08540 0.97440 0.06800
H 	H 	0.03010 0.19640 0.95630 0.07600
H 	H 	0.97750 0.22300 0.84010 0.07900
H 	H 	0.85250 0.13840 0.75020 0.04200
H 	H 	0.79150 0.84900 0.82110 0.04100
H 	H 	0.93000 0.92960 0.90710 0.06400
C 	C 	0.41690 0.48920 0.56270 0.30100
C 	C 	0.40180 0.45520 0.63180 -0.03300
C 	C 	0.28800 0.44900 0.66690 -0.05600
C 	C 	0.27150 0.42240 0.73180 0.02200
C 	C 	0.37250 0.39620 0.75970 -0.08200
C 	C 	0.48740 0.40180 0.72660 -0.00500
C 	C 	0.50510 0.43060 0.66260 -0.05400
C 	C 	0.63210 0.43320 0.62770 0.31300
C 	C 	0.53840 0.36200 0.43320 0.07100
C 	C 	0.46210 0.36120 0.34000 0.01700
C 	C 	0.52050 0.28900 0.34010 -0.01900
C 	C 	0.64390 0.22460 0.42700 -0.14500
C 	C 	0.69090 0.17040 0.37610 0.10400
C 	C 	0.59870 0.07080 0.35130 -0.12000
C 	C 	0.64120 0.02260 0.30080 -0.01300
C 	C 	0.77480 0.06680 0.27580 -0.01600
C 	C 	0.86160 0.16460 0.30370 -0.01000
C 	C 	0.82340 0.21800 0.35300 -0.12500
C 	C 	0.99820 0.71100 0.06160 0.07400
C 	C 	0.20510 0.79720 0.09440 0.00900
C 	C 	0.14890 0.87340 0.09230 -0.01700
C 	C 	0.91810 0.86040 0.05920 -0.12200
C 	C 	0.88360 0.91500 0.11900 0.07600
C 	C 	0.79560 0.85240 0.16420 -0.09700
C 	C 	0.76850 0.90400 0.21700 -0.03200
C 	C 	0.81930 0.01500 0.22220 0.01300
C 	C 	0.90570 0.07540 0.17570 -0.03700
C 	C 	0.94020 0.02780 0.12400 -0.08700
C 	C 	0.58310 0.51080 0.06270 0.30100
C 	C 	0.59820 0.54480 0.13180 -0.03200
C 	C 	0.71200 0.55100 0.16690 -0.05600
C 	C 	0.72850 0.57760 0.23180 0.02200
C 	C 	0.62750 0.60380 0.25970 -0.08300
C 	C 	0.51260 0.59820 0.22660 -0.00500
C 	C 	0.49490 0.56940 0.16260 -0.05400
C 	C 	0.36790 0.56680 0.12770 0.31300
C 	C 	0.46160 0.63800 0.93320 0.07100
C 	C 	0.53790 0.63880 0.84000 0.01700
C 	C 	0.47950 0.71100 0.84010 -0.01900
C 	C 	0.35610 0.77540 0.92700 -0.14500
C 	C 	0.30910 0.82960 0.87610 0.10400
C 	C 	0.40130 0.92920 0.85130 -0.12000
C 	C 	0.35880 0.97740 0.80080 -0.01300
C 	C 	0.22520 0.93320 0.77580 -0.01500
C 	C 	0.13840 0.83540 0.80370 -0.01000
C 	C 	0.17660 0.78200 0.85300 -0.12500
C 	C 	0.00180 0.28900 0.56160 0.07200
C 	C 	0.79490 0.20280 0.59440 0.00900
C 	C 	0.85110 0.12660 0.59230 -0.01700
C 	C 	0.08190 0.13960 0.55920 -0.12500
C 	C 	0.11640 0.08500 0.61900 0.07900
C 	C 	0.20440 0.14760 0.66420 -0.10000
C 	C 	0.23150 0.09600 0.71700 -0.03000
C 	C 	0.18070 0.98500 0.72220 0.01100
C 	C 	0.09430 0.92460 0.67570 -0.03400
C 	C 	0.05980 0.97220 0.62400 -0.09200
C 	C 	0.07230 0.48920 0.93730 0.30100
C 	C 	0.05340 0.45520 0.86820 -0.03100
C 	C 	0.16100 0.44900 0.83310 -0.05600
C 	C 	0.15090 0.42240 0.76820 0.02100
C 	C 	0.02370 0.39620 0.74030 -0.08100
C 	C 	0.91440 0.40180 0.77340 -0.00600
C 	C 	0.92550 0.43060 0.83740 -0.05500
C 	C 	0.80110 0.43320 0.87230 0.31300
C 	C 	0.82360 0.36200 0.06680 0.07200
C 	C 	0.89910 0.36120 0.16000 0.01700
C 	C 	0.76850 0.28900 0.15990 -0.01900
C 	C 	0.58070 0.22460 0.07300 -0.14400
C 	C 	0.47950 0.17040 0.12390 0.10200
C 	C 	0.47210 0.07080 0.14870 -0.11700
C 	C 	0.38140 0.02260 0.19920 -0.01700
C 	C 	0.29200 0.06680 0.22420 -0.01000
C 	C 	0.30300 0.16460 0.19630 -0.01400
C 	C 	0.39460 0.21800 0.14700 -0.12300
C 	C 	0.71280 0.71100 0.43840 0.07200
C 	C 	0.59210 0.79720 0.40560 0.00900
C 	C 	0.72450 0.87340 0.40770 -0.01800
C 	C 	0.94230 0.86040 0.44080 -0.13000
C 	C 	0.03140 0.91500 0.38100 0.08800
C 	C 	0.05680 0.85240 0.33580 -0.10900
C 	C 	0.13550 0.90400 0.28300 -0.02000
C 	C 	0.19570 0.01500 0.27780 0.00100
C 	C 	0.16970 0.07540 0.32430 -0.02400
C 	C 	0.08760 0.02780 0.37600 -0.10600
C 	C 	0.92770 0.51080 0.43730 0.30100
C 	C 	0.94660 0.54480 0.36820 -0.03300
C 	C 	0.83900 0.55100 0.33310 -0.05600
C 	C 	0.84910 0.57760 0.26820 0.02100
C 	C 	0.97630 0.60380 0.24030 -0.08100
C 	C 	0.08560 0.59820 0.27340 -0.00600
C 	C 	0.07450 0.56940 0.33740 -0.05400
C 	C 	0.19890 0.56680 0.37230 0.31300
C 	C 	0.17640 0.63800 0.56680 0.07100
C 	C 	0.10090 0.63880 0.66000 0.01700
C 	C 	0.23150 0.71100 0.65990 -0.01900
C 	C 	0.41930 0.77540 0.57300 -0.14400
C 	C 	0.52050 0.82960 0.62390 0.10200
C 	C 	0.52790 0.92920 0.64870 -0.11800
C 	C 	0.61860 0.97740 0.69920 -0.01700
C 	C 	0.70800 0.93320 0.72420 -0.01100
C 	C 	0.69700 0.83540 0.69630 -0.01300
C 	C 	0.60540 0.78200 0.64700 -0.12300
C 	C 	0.28720 0.28900 0.93840 0.07200
C 	C 	0.40790 0.20280 0.90560 0.00900
C 	C 	0.27550 0.12660 0.90770 -0.01700
C 	C 	0.05770 0.13960 0.94080 -0.12700
C 	C 	0.96860 0.08500 0.88100 0.08400
C 	C 	0.94320 0.14760 0.83580 -0.10600
C 	C 	0.86450 0.09600 0.78300 -0.02300
C 	C 	0.80430 0.98500 0.77780 0.00400
C 	C 	0.83030 0.92460 0.82430 -0.02700
C 	C 	0.91240 0.97220 0.87600 -0.10200
N 	N 	0.47060 0.40780 0.39830 -0.23800
N 	N 	0.57260 0.29020 0.40060 -0.09800
N 	N 	0.11140 0.69500 0.07630 -0.23700
N 	N 	0.01650 0.81360 0.07060 -0.10100
N 	N 	0.52940 0.59220 0.89830 -0.23800
N 	N 	0.42740 0.70980 0.90060 -0.09800
N 	N 	0.88860 0.30500 0.57630 -0.23600
N 	N 	0.98350 0.18640 0.57060 -0.09900
N 	N 	0.93720 0.40780 0.10170 -0.23800
N 	N 	0.71760 0.29020 0.09940 -0.09800
N 	N 	0.58360 0.69500 0.42370 -0.23600
N 	N 	0.79710 0.81360 0.42940 -0.09900
N 	N 	0.06280 0.59220 0.60170 -0.23800
N 	N 	0.28240 0.70980 0.59940 -0.09800
N 	N 	0.41640 0.30500 0.92370 -0.23600
N 	N 	0.20290 0.18640 0.92940 -0.09900
O 	O 	0.30800 0.45920 0.52960 -0.39900
O 	O 	0.53130 0.54480 0.54118 -0.35500
O 	O 	0.61950 0.36900 0.58250 -0.36300
O 	O 	0.74600 0.50060 0.64600 -0.39000
O 	O 	0.69200 0.54080 0.02960 -0.39900
O 	O 	0.46870 0.45520 0.04118 -0.35500
O 	O 	0.38050 0.63100 0.08250 -0.36400
O 	O 	0.25400 0.49940 0.14600 -0.39000
O 	O 	0.15120 0.45920 0.97040 -0.39900
O 	O 	0.01350 0.54480 0.95882 -0.35400
O 	O 	0.74950 0.36900 0.91750 -0.36400
O 	O 	0.75460 0.50060 0.85400 -0.39000
O 	O 	0.84880 0.54080 0.47040 -0.39900
O 	O 	0.98650 0.45520 0.45882 -0.35500
O 	O 	0.25050 0.63100 0.41750 -0.36300
O 	O 	0.24540 0.49940 0.35400 -0.38900
