data_crystal

_cell_length_a 8.23190
_cell_length_b 9.16500
_cell_length_c 17.58000
_cell_angle_alpha 90.00000
_cell_angle_beta  90.00000
_cell_angle_gamma 90.00000

_symmetry_space_group_name_	'P 1'
_symmetry_space_group_name_H-M	'P 1'

loop_
_symmetry_equiv_pos_as_xyz
  x,y,z

loop_
_atom_site_label
_atom_site_type_symbol
_atom_site_fract_x
_atom_site_fract_y
_atom_site_fract_z
_atom_site_charge
Al	Al	0.86130 0.86880 0.56605 2.38800
Al	Al	0.93970 0.41220 0.46845 2.40100
Al	Al	0.44260 0.58530 0.66700 2.39800
P 	P 	0.13350 0.63110 0.57117 0.77600
P 	P 	0.07070 0.09050 0.47317 0.87100
P 	P 	0.56410 0.91540 0.67268 0.88000
O 	O 	0.96430 0.03310 0.53600 -0.81300
O 	O 	0.01430 0.24200 0.45050 -0.82200
O 	O 	0.24460 0.09790 0.50110 -0.82300
O 	O 	0.45140 0.98770 0.61460 -0.82500
O 	O 	0.50750 0.75870 0.68260 -0.83800
O 	O 	0.73840 0.92110 0.64590 -0.81000
O 	O 	0.54810 0.98920 0.74830 -0.78300
O 	O 	0.06620 0.99490 0.40240 -0.82100
O 	O 	0.23480 0.58700 0.64020 -0.74000
O 	O 	0.05550 0.49430 0.53860 -0.82300
O 	O 	0.23850 0.70500 0.51120 -0.84800
O 	O 	0.00180 0.73320 0.59990 -0.75400
Al	Al	0.63870 0.13120 0.06605 2.38800
Al	Al	0.56030 0.58780 0.96845 2.40000
Al	Al	0.05740 0.41470 0.16700 2.39700
P 	P 	0.36650 0.36890 0.07117 0.77500
P 	P 	0.42930 0.90950 0.97317 0.88100
P 	P 	0.93590 0.08460 0.17268 0.88500
O 	O 	0.53570 0.96690 0.03600 -0.81500
O 	O 	0.48570 0.75800 0.95050 -0.82400
O 	O 	0.25540 0.90210 0.00110 -0.82000
O 	O 	0.04860 0.01230 0.11460 -0.83100
O 	O 	0.99250 0.24130 0.18260 -0.83800
O 	O 	0.76160 0.07890 0.14590 -0.80700
O 	O 	0.95190 0.01080 0.24830 -0.78400
O 	O 	0.43380 0.00510 0.90240 -0.83500
O 	O 	0.26520 0.41300 0.14020 -0.74000
O 	O 	0.44450 0.50570 0.03860 -0.82400
O 	O 	0.26150 0.29500 0.01120 -0.84800
O 	O 	0.49820 0.26680 0.09990 -0.75800
Al	Al	0.13870 0.36880 0.93395 2.38700
Al	Al	0.06030 0.91220 0.03155 2.40100
Al	Al	0.55740 0.08530 0.83300 2.39700
P 	P 	0.86650 0.13110 0.92883 0.77600
P 	P 	0.92930 0.59050 0.02683 0.87900
P 	P 	0.43590 0.41540 0.82732 0.88000
O 	O 	0.03570 0.53310 0.96400 -0.81500
O 	O 	0.98570 0.74200 0.04950 -0.82500
O 	O 	0.75540 0.59790 0.99890 -0.82300
O 	O 	0.54860 0.48770 0.88540 -0.82700
O 	O 	0.49250 0.25870 0.81740 -0.84000
O 	O 	0.26160 0.42110 0.85410 -0.80900
O 	O 	0.45190 0.48920 0.75170 -0.78400
O 	O 	0.93380 0.49490 0.09760 -0.82800
O 	O 	0.76520 0.08700 0.85980 -0.74100
O 	O 	0.94450 0.99430 0.96140 -0.82600
O 	O 	0.76150 0.20500 0.98880 -0.85100
O 	O 	0.99820 0.23320 0.90010 -0.75700
Al	Al	0.36130 0.63120 0.43395 2.38700
Al	Al	0.43970 0.08780 0.53155 2.40000
Al	Al	0.94260 0.91470 0.33300 2.39700
P 	P 	0.63350 0.86890 0.42883 0.77500
P 	P 	0.57070 0.40950 0.52683 0.87600
P 	P 	0.06410 0.58460 0.32732 0.88300
O 	O 	0.46430 0.46690 0.46400 -0.81300
O 	O 	0.51430 0.25800 0.54950 -0.82400
O 	O 	0.74460 0.40210 0.49890 -0.82300
O 	O 	0.95140 0.51230 0.38540 -0.83100
O 	O 	0.00750 0.74130 0.31740 -0.83500
O 	O 	0.23840 0.57890 0.35410 -0.80800
O 	O 	0.04810 0.51080 0.25170 -0.78400
O 	O 	0.56620 0.50510 0.59760 -0.82900
O 	O 	0.73480 0.91300 0.35980 -0.74400
O 	O 	0.55550 0.00570 0.46140 -0.82600
O 	O 	0.73850 0.79500 0.48880 -0.85200
O 	O 	0.50180 0.76680 0.40010 -0.75900
