data_crystal

_cell_length_a 8.01540
_cell_length_b 30.17500
_cell_length_c 15.32200
_cell_angle_alpha 90.00000
_cell_angle_beta  90.00000
_cell_angle_gamma 90.00000

_symmetry_space_group_name_	'P 1'
_symmetry_space_group_name_H-M	'P 1'

loop_
_symmetry_equiv_pos_as_xyz
  x,y,z

loop_
_atom_site_label
_atom_site_type_symbol
_atom_site_fract_x
_atom_site_fract_y
_atom_site_fract_z
_atom_site_charge
Eu	Eu	0.43541 0.90717 0.70442 1.95000
O 	O 	0.25420 0.95990 0.65000 -0.52700
O 	O 	0.00120 0.96990 0.70880 -0.49700
O 	O 	0.39190 0.04200 0.38500 -0.43000
O 	O 	0.23600 0.09690 0.33720 -0.53800
O 	O 	0.15680 0.86920 0.68310 -0.52200
O 	O 	0.98770 0.83050 0.76950 -0.48500
N 	N 	0.92700 0.08240 0.56030 -0.15000
C 	C 	0.11710 0.98000 0.65820 0.50500
C 	C 	0.09260 0.01950 0.60020 -0.20300
C 	C 	0.95860 0.04840 0.61140 0.12400
H 	H 	0.88540 0.04320 0.65900 0.01300
C 	C 	0.02520 0.08740 0.49080 0.10600
H 	H 	-0.00000 0.11060 0.45110 -0.00300
C 	C 	0.16220 0.06060 0.47270 -0.18400
C 	C 	0.19750 0.02680 0.52980 0.12500
H 	H 	0.29290 0.00860 0.52110 0.01600
C 	C 	0.26820 0.06620 0.39410 0.37400
C 	C 	0.09430 0.83200 0.71000 0.40300
C 	C 	0.14800 0.78960 0.66860 -0.17700
C 	C 	0.24200 0.78770 0.59170 0.11700
H 	H 	0.27300 0.81490 0.56500 -0.01500
Eu	Eu	0.06459 0.09283 0.20442 1.93900
O 	O 	0.24580 0.04010 0.15000 -0.52600
O 	O 	0.49880 0.03010 0.20880 -0.49900
O 	O 	0.10810 0.95800 0.88500 -0.42600
O 	O 	0.26400 0.90310 0.83720 -0.53500
O 	O 	0.34320 0.13080 0.18310 -0.52000
O 	O 	0.51230 0.16950 0.26950 -0.47900
N 	N 	0.57300 0.91760 0.06030 -0.15100
C 	C 	0.38290 0.02000 0.15820 0.50400
C 	C 	0.40740 0.98050 0.10020 -0.20100
C 	C 	0.54140 0.95160 0.11140 0.12200
H 	H 	0.61460 0.95680 0.15900 0.01400
C 	C 	0.47480 0.91260 0.99080 0.10700
H 	H 	0.50000 0.88940 0.95110 -0.00100
C 	C 	0.33780 0.93940 0.97270 -0.18100
C 	C 	0.30250 0.97320 0.02980 0.12200
H 	H 	0.20710 0.99140 0.02110 0.01600
C 	C 	0.23180 0.93380 0.89410 0.37400
C 	C 	0.40570 0.16800 0.21000 0.39400
C 	C 	0.35200 0.21040 0.16860 -0.17400
C 	C 	0.25800 0.21230 0.09170 0.11500
H 	H 	0.22700 0.18510 0.06500 -0.01500
Eu	Eu	0.56459 0.40717 0.29558 1.95100
O 	O 	0.74580 0.45990 0.35000 -0.52500
O 	O 	0.99880 0.46990 0.29120 -0.49600
O 	O 	0.60810 0.54200 0.61500 -0.42800
O 	O 	0.76400 0.59690 0.66280 -0.53600
O 	O 	0.84320 0.36920 0.31690 -0.52100
O 	O 	0.01230 0.33050 0.23050 -0.48600
N 	N 	0.07300 0.58240 0.43970 -0.14900
C 	C 	0.88290 0.48000 0.34180 0.50400
C 	C 	0.90740 0.51950 0.39980 -0.20000
C 	C 	0.04140 0.54840 0.38860 0.12200
H 	H 	0.11460 0.54320 0.34100 0.01400
C 	C 	0.97480 0.58740 0.50920 0.10000
H 	H 	-0.00000 0.61060 0.54890 0.00300
C 	C 	0.83780 0.56060 0.52730 -0.18100
C 	C 	0.80250 0.52680 0.47020 0.12300
H 	H 	0.70710 0.50860 0.47890 0.01700
C 	C 	0.73180 0.56620 0.60590 0.37200
C 	C 	0.90570 0.33200 0.29000 0.40300
C 	C 	0.85200 0.28960 0.33140 -0.17600
C 	C 	0.75800 0.28770 0.40830 0.11700
H 	H 	0.72700 0.31490 0.43500 -0.01500
Eu	Eu	0.93541 0.59283 0.79558 1.94100
O 	O 	0.75420 0.54010 0.85000 -0.52600
O 	O 	0.50120 0.53010 0.79120 -0.49900
O 	O 	0.89190 0.45800 0.11500 -0.42500
O 	O 	0.73600 0.40310 0.16280 -0.53500
O 	O 	0.65680 0.63080 0.81690 -0.52000
O 	O 	0.48770 0.66950 0.73050 -0.47900
N 	N 	0.42700 0.41760 0.93970 -0.15100
C 	C 	0.61710 0.52000 0.84180 0.50400
C 	C 	0.59260 0.48050 0.89980 -0.20100
C 	C 	0.45860 0.45160 0.88860 0.12200
H 	H 	0.38540 0.45680 0.84100 0.01400
C 	C 	0.52520 0.41260 0.00920 0.10700
H 	H 	0.50000 0.38940 0.04890 -0.00100
C 	C 	0.66220 0.43940 0.02730 -0.18100
C 	C 	0.69750 0.47320 0.97020 0.12200
H 	H 	0.79290 0.49140 0.97890 0.01600
C 	C 	0.76820 0.43380 0.10590 0.37400
C 	C 	0.59430 0.66800 0.79000 0.39400
C 	C 	0.64800 0.71040 0.83140 -0.17400
C 	C 	0.74200 0.71230 0.90830 0.11500
H 	H 	0.77300 0.68510 0.93500 -0.01500
Eu	Eu	0.56459 0.09283 0.29558 1.95100
O 	O 	0.74580 0.04010 0.35000 -0.52500
O 	O 	0.99880 0.03010 0.29120 -0.49500
O 	O 	0.60810 0.95800 0.61500 -0.42800
O 	O 	0.76400 0.90310 0.66280 -0.53600
O 	O 	0.84320 0.13080 0.31690 -0.52100
O 	O 	0.01230 0.16950 0.23050 -0.48600
N 	N 	0.07300 0.91760 0.43970 -0.14900
C 	C 	0.88290 0.02000 0.34180 0.50500
C 	C 	0.90740 0.98050 0.39980 -0.20200
C 	C 	0.04140 0.95160 0.38860 0.12300
H 	H 	0.11460 0.95680 0.34100 0.01400
C 	C 	0.97480 0.91260 0.50920 0.09900
H 	H 	0.00000 0.88940 0.54890 0.00400
C 	C 	0.83780 0.93940 0.52730 -0.18000
C 	C 	0.80250 0.97320 0.47020 0.12300
H 	H 	0.70710 0.99140 0.47890 0.01600
C 	C 	0.73180 0.93380 0.60590 0.37200
C 	C 	0.90570 0.16800 0.29000 0.40400
C 	C 	0.85200 0.21040 0.33140 -0.17700
C 	C 	0.75800 0.21230 0.40830 0.11700
H 	H 	0.72700 0.18510 0.43500 -0.01500
Eu	Eu	0.93541 0.90717 0.79558 1.94000
O 	O 	0.75420 0.95990 0.85000 -0.52600
O 	O 	0.50120 0.96990 0.79120 -0.49900
O 	O 	0.89190 0.04200 0.11500 -0.42500
O 	O 	0.73600 0.09690 0.16280 -0.53400
O 	O 	0.65680 0.86920 0.81690 -0.52000
O 	O 	0.48770 0.83050 0.73050 -0.47900
N 	N 	0.42700 0.08240 0.93970 -0.15100
C 	C 	0.61710 0.98000 0.84180 0.50400
C 	C 	0.59260 0.01950 0.89980 -0.20100
C 	C 	0.45860 0.04840 0.88860 0.12200
H 	H 	0.38540 0.04320 0.84100 0.01400
C 	C 	0.52520 0.08740 0.00920 0.10700
H 	H 	0.50000 0.11060 0.04890 -0.00100
C 	C 	0.66220 0.06060 0.02730 -0.18100
C 	C 	0.69750 0.02680 0.97020 0.12200
H 	H 	0.79290 0.00860 0.97890 0.01600
C 	C 	0.76820 0.06620 0.10590 0.37400
C 	C 	0.59430 0.83200 0.79000 0.39400
C 	C 	0.64800 0.78960 0.83140 -0.17400
C 	C 	0.74200 0.78770 0.90830 0.11500
H 	H 	0.77300 0.81490 0.93500 -0.01500
Eu	Eu	0.43541 0.59283 0.70442 1.95100
O 	O 	0.25420 0.54010 0.65000 -0.52600
O 	O 	0.00120 0.53010 0.70880 -0.49600
O 	O 	0.39190 0.45800 0.38500 -0.42900
O 	O 	0.23600 0.40310 0.33720 -0.53700
O 	O 	0.15680 0.63080 0.68310 -0.52100
O 	O 	0.98770 0.66950 0.76950 -0.48500
N 	N 	0.92700 0.41760 0.56030 -0.15000
C 	C 	0.11710 0.52000 0.65820 0.50400
C 	C 	0.09260 0.48050 0.60020 -0.20200
C 	C 	0.95860 0.45160 0.61140 0.12300
H 	H 	0.88540 0.45680 0.65900 0.01400
C 	C 	0.02520 0.41260 0.49080 0.10700
H 	H 	-0.00000 0.38940 0.45110 -0.00300
C 	C 	0.16220 0.43940 0.47270 -0.18400
C 	C 	0.19750 0.47320 0.52980 0.12500
H 	H 	0.29290 0.49140 0.52110 0.01600
C 	C 	0.26820 0.43380 0.39410 0.37400
C 	C 	0.09430 0.66800 0.71000 0.40300
C 	C 	0.14800 0.71040 0.66860 -0.17600
C 	C 	0.24200 0.71230 0.59170 0.11700
H 	H 	0.27300 0.68510 0.56500 -0.01500
Eu	Eu	0.06459 0.40717 0.20442 1.94000
O 	O 	0.24580 0.45990 0.15000 -0.52600
O 	O 	0.49880 0.46990 0.20880 -0.49900
O 	O 	0.10810 0.54200 0.88500 -0.42600
O 	O 	0.26400 0.59690 0.83720 -0.53500
O 	O 	0.34320 0.36920 0.18310 -0.52000
O 	O 	0.51230 0.33050 0.26950 -0.47900
N 	N 	0.57300 0.58240 0.06030 -0.15100
C 	C 	0.38290 0.48000 0.15820 0.50400
C 	C 	0.40740 0.51950 0.10020 -0.20100
C 	C 	0.54140 0.54840 0.11140 0.12200
H 	H 	0.61460 0.54320 0.15900 0.01400
C 	C 	0.47480 0.58740 0.99080 0.10700
H 	H 	0.50000 0.61060 0.95110 -0.00100
C 	C 	0.33780 0.56060 0.97270 -0.18100
C 	C 	0.30250 0.52680 0.02980 0.12200
H 	H 	0.20710 0.50860 0.02110 0.01600
C 	C 	0.23180 0.56620 0.89410 0.37400
C 	C 	0.40570 0.33200 0.21000 0.39400
C 	C 	0.35200 0.28960 0.16860 -0.17400
C 	C 	0.25800 0.28770 0.09170 0.11500
H 	H 	0.22700 0.31490 0.06500 -0.01500
N 	N 	0.29150 0.75000 0.55310 -0.14700
C 	C 	0.09970 0.75000 0.70460 0.11400
H 	H 	0.03180 0.75000 0.75540 0.02600
N 	N 	0.20850 0.25000 0.05310 -0.14800
C 	C 	0.40030 0.25000 0.20460 0.11000
H 	H 	0.46820 0.25000 0.25540 0.02400
N 	N 	0.70850 0.25000 0.44690 -0.14700
C 	C 	0.90030 0.25000 0.29540 0.11400
H 	H 	0.96820 0.25000 0.24460 0.02600
N 	N 	0.79150 0.75000 0.94690 -0.14800
C 	C 	0.59970 0.75000 0.79540 0.11000
H 	H 	0.53180 0.75000 0.74460 0.02400
