data_crystal

_cell_length_a 13.87000
_cell_length_b 19.02300
_cell_length_c 19.23800
_cell_angle_alpha 90.00000
_cell_angle_beta  90.00000
_cell_angle_gamma 90.00000

_symmetry_space_group_name_	'P 1'
_symmetry_space_group_name_H-M	'P 1'

loop_
_symmetry_equiv_pos_as_xyz
  x,y,z

loop_
_atom_site_label
_atom_site_type_symbol
_atom_site_fract_x
_atom_site_fract_y
_atom_site_fract_z
_atom_site_charge
Zn	Zn	0.40436 0.48379 0.95568 1.20800
Zn	Zn	0.59564 0.98379 0.54432 1.20800
Zn	Zn	0.36452 0.60322 0.06744 1.22600
Zn	Zn	0.63548 0.10322 0.43256 1.22600
Zn	Zn	0.36452 0.89678 0.56744 1.22600
Zn	Zn	0.59564 0.51621 0.04432 1.20900
Zn	Zn	0.63548 0.39678 0.93256 1.22600
Zn	Zn	0.40436 0.01621 0.45568 1.20900
H 	H 	0.62270 0.02360 0.70550 0.01700
H 	H 	0.62370 0.13190 0.15640 0.05900
H 	H 	0.41130 0.78170 0.20050 0.06900
H 	H 	0.34660 0.17970 0.98830 0.04800
H 	H 	0.38350 0.36660 0.07620 -0.00400
H 	H 	0.42510 0.01620 0.59070 0.18400
H 	H 	0.42510 0.48380 0.09070 0.18300
H 	H 	0.65160 0.64980 0.31870 0.04000
H 	H 	0.65340 0.67970 0.51170 0.04800
H 	H 	0.95140 0.09060 0.42920 0.05100
H 	H 	0.88820 0.56780 0.05680 0.05000
H 	H 	0.58870 0.28170 0.29950 0.06900
H 	H 	0.35560 0.47080 0.68790 0.07900
H 	H 	0.34840 0.35020 0.68130 0.04000
H 	H 	0.37730 0.52360 0.79450 0.01800
H 	H 	0.37630 0.63190 0.34360 0.06000
H 	H 	0.35560 0.02920 0.18790 0.08000
H 	H 	0.95140 0.40940 0.92920 0.05000
H 	H 	0.57670 0.13560 0.71160 0.05100
H 	H 	0.11180 0.43220 0.94320 0.05000
H 	H 	0.65340 0.82030 0.01170 0.04800
H 	H 	0.34660 0.32030 0.48830 0.04800
H 	H 	0.41130 0.71830 0.70050 0.06900
H 	H 	0.35490 0.25220 0.58830 0.08300
H 	H 	0.37630 0.86810 0.84360 0.05900
H 	H 	0.57490 0.98380 0.40930 0.18400
H 	H 	0.37730 0.97640 0.29450 0.01700
H 	H 	0.42330 0.63560 0.78840 0.05100
H 	H 	0.61650 0.86660 0.42380 -0.00400
H 	H 	0.58870 0.21830 0.79950 0.06900
H 	H 	0.88820 0.93220 0.55680 0.04900
H 	H 	0.64440 0.97080 0.81210 0.08000
H 	H 	0.62370 0.36810 0.65640 0.06000
H 	H 	0.38070 0.78570 0.93130 0.05100
H 	H 	0.38350 0.13340 0.57620 -0.00400
H 	H 	0.61930 0.28570 0.56870 0.05100
H 	H 	0.65160 0.85020 0.81870 0.04000
H 	H 	0.11180 0.06780 0.44320 0.04900
H 	H 	0.57490 0.51620 0.90930 0.18300
H 	H 	0.04860 0.90940 0.57080 0.05100
H 	H 	0.35490 0.24780 0.08830 0.08300
H 	H 	0.61930 0.21430 0.06870 0.05100
H 	H 	0.34840 0.14980 0.18130 0.04000
H 	H 	0.04860 0.59060 0.07080 0.05000
H 	H 	0.38070 0.71430 0.43130 0.05100
H 	H 	0.42330 0.86440 0.28840 0.05100
H 	H 	0.61650 0.63340 0.92380 -0.00400
H 	H 	0.64440 0.52920 0.31210 0.07900
H 	H 	0.62270 0.47640 0.20550 0.01800
H 	H 	0.64510 0.74780 0.41170 0.08300
H 	H 	0.64510 0.75220 0.91170 0.08300
H 	H 	0.57670 0.36440 0.21160 0.05100
C 	C 	0.93330 0.95980 0.53370 -0.00100
C 	C 	0.93330 0.54020 0.03370 -0.00700
C 	C 	0.37350 0.02520 0.29260 0.07400
C 	C 	0.39220 0.69810 0.26270 -0.04300
C 	C 	0.60170 0.20140 0.63080 -0.07900
C 	C 	0.62270 0.83920 0.46350 0.07100
C 	C 	0.37350 0.47480 0.79260 0.07300
C 	C 	0.60170 0.29860 0.13080 -0.07900
C 	C 	0.06670 0.04020 0.46630 -0.00100
C 	C 	0.40570 0.76780 0.24670 -0.02900
C 	C 	0.60780 0.19810 0.23730 -0.04300
C 	C 	0.36310 0.25880 0.92020 -0.03100
C 	C 	0.35580 0.12750 0.22410 0.01600
C 	C 	0.64370 0.71640 0.64590 0.10500
C 	C 	0.63800 0.83280 0.71420 -0.04200
C 	C 	0.39830 0.79860 0.36920 -0.07900
C 	C 	0.09780 0.98560 0.50840 -0.07800
C 	C 	0.63860 0.76800 0.45550 -0.10300
C 	C 	0.58890 0.18230 0.70050 0.00700
C 	C 	0.20310 0.97110 0.51510 0.37100
C 	C 	0.61610 0.32090 0.66770 -0.03500
C 	C 	0.60290 0.35340 0.07420 0.37600
C 	C 	0.06670 0.45980 0.96630 -0.00700
C 	C 	0.60780 0.30190 0.73730 -0.04300
C 	C 	0.63930 0.94350 0.77220 -0.10000
C 	C 	0.35370 0.25530 0.78380 0.11200
C 	C 	0.62650 0.97480 0.70740 0.07400
C 	C 	0.39710 0.64660 0.92580 0.37600
C 	C 	0.61330 0.27160 0.61470 -0.00500
C 	C 	0.35370 0.24470 0.28380 0.11200
C 	C 	0.35580 0.37250 0.72410 0.01600
C 	C 	0.02940 0.55400 0.04200 -0.01600
C 	C 	0.35560 0.27200 0.48490 0.00400
C 	C 	0.36200 0.33280 0.78580 -0.04100
C 	C 	0.60290 0.14660 0.57420 0.37600
C 	C 	0.79690 0.02890 0.48490 0.37100
C 	C 	0.38390 0.67910 0.33230 -0.03500
C 	C 	0.38670 0.77160 0.88530 -0.00500
C 	C 	0.35560 0.22800 0.98490 0.00700
C 	C 	0.37730 0.33920 0.03650 0.07100
C 	C 	0.90220 0.48560 0.99160 -0.07600
C 	C 	0.02940 0.94600 0.54200 -0.01900
C 	C 	0.38600 0.85560 0.70510 0.32100
C 	C 	0.62580 0.86890 0.65110 0.04000
C 	C 	0.64630 0.74470 0.21620 0.11200
C 	C 	0.61400 0.14440 0.29490 0.32100
C 	C 	0.36200 0.16720 0.28580 -0.04200
C 	C 	0.62650 0.52520 0.20740 0.07300
C 	C 	0.39710 0.85340 0.42580 0.37600
C 	C 	0.63930 0.55650 0.27220 -0.09900
C 	C 	0.63690 0.75880 0.57980 -0.03100
C 	C 	0.37420 0.36890 0.84890 0.04000
C 	C 	0.36070 0.05650 0.22780 -0.10000
C 	C 	0.64440 0.72800 0.51510 0.00400
C 	C 	0.35630 0.28360 0.35410 0.10500
C 	C 	0.59430 0.23220 0.75330 -0.02900
C 	C 	0.09780 0.51440 0.00840 -0.07600
C 	C 	0.97060 0.05400 0.45800 -0.01900
C 	C 	0.90220 0.01440 0.49160 -0.07800
C 	C 	0.38390 0.82090 0.83230 -0.03500
C 	C 	0.62270 0.66080 0.96350 0.07100
C 	C 	0.63860 0.73200 0.95550 -0.10500
C 	C 	0.64420 0.87250 0.77590 0.01600
C 	C 	0.63800 0.66720 0.21420 -0.04100
C 	C 	0.20310 0.52890 0.01510 0.37200
C 	C 	0.79690 0.47110 0.98490 0.37200
C 	C 	0.36070 0.44350 0.72780 -0.09900
C 	C 	0.61330 0.22840 0.11470 -0.00500
C 	C 	0.37590 0.33140 0.91610 0.02600
C 	C 	0.36140 0.26800 0.04450 -0.10500
C 	C 	0.38670 0.72840 0.38530 -0.00500
C 	C 	0.64440 0.77200 0.01510 0.00700
C 	C 	0.37420 0.13110 0.34890 0.04000
C 	C 	0.63690 0.74120 0.07980 -0.03100
C 	C 	0.58890 0.31770 0.20050 0.00700
C 	C 	0.62410 0.66860 0.08390 0.02600
C 	C 	0.37730 0.16080 0.53650 0.07100
C 	C 	0.61610 0.17910 0.16770 -0.03500
C 	C 	0.39830 0.70140 0.86920 -0.07900
C 	C 	0.62410 0.83140 0.58390 0.02500
C 	C 	0.39220 0.80190 0.76270 -0.04300
C 	C 	0.97060 0.44600 0.95800 -0.01600
C 	C 	0.61400 0.35560 0.79490 0.32100
C 	C 	0.64630 0.75530 0.71620 0.11200
C 	C 	0.37590 0.16860 0.41610 0.02500
C 	C 	0.36310 0.24120 0.42020 -0.03100
C 	C 	0.38600 0.64440 0.20510 0.32100
C 	C 	0.64420 0.62750 0.27590 0.01600
C 	C 	0.62580 0.63110 0.15110 0.04000
C 	C 	0.64370 0.78360 0.14590 0.10500
C 	C 	0.40570 0.73220 0.74670 -0.02900
C 	C 	0.41110 0.81770 0.29950 0.00700
C 	C 	0.36140 0.23200 0.54450 -0.10300
C 	C 	0.59430 0.26780 0.25330 -0.02900
C 	C 	0.35630 0.21640 0.85410 0.10500
C 	C 	0.41110 0.68230 0.79950 0.00700
N 	N 	0.38430 0.37090 0.97460 -0.23300
N 	N 	0.38430 0.12910 0.47460 -0.23300
N 	N 	0.61570 0.87090 0.52540 -0.23300
N 	N 	0.61940 0.56100 0.14750 -0.22100
N 	N 	0.38060 0.06100 0.35250 -0.22100
N 	N 	0.61940 0.93900 0.64750 -0.22100
N 	N 	0.61570 0.62910 0.02540 -0.23300
N 	N 	0.38060 0.43900 0.85250 -0.22100
O 	O 	0.65510 0.77820 0.27100 -0.18500
O 	O 	0.62060 0.41850 0.77950 -0.29400
O 	O 	0.38730 0.66780 0.14310 -0.44500
O 	O 	0.40960 0.58377 0.90803 -0.45900
O 	O 	0.37940 0.58150 0.22050 -0.29400
O 	O 	0.61270 0.33220 0.85690 -0.44500
O 	O 	0.35040 0.15190 0.85500 -0.17700
O 	O 	0.38730 0.83220 0.64310 -0.44500
O 	O 	0.64960 0.65190 0.64500 -0.17700
O 	O 	0.22800 0.92453 0.55980 -0.46700
O 	O 	0.65510 0.72180 0.77100 -0.18500
O 	O 	0.59040 0.08377 0.59197 -0.46000
O 	O 	0.44450 0.98098 0.55627 -0.76400
O 	O 	0.55550 0.48098 0.94373 -0.76400
O 	O 	0.34490 0.27820 0.22900 -0.18500
O 	O 	0.74130 0.50580 0.02270 -0.46400
O 	O 	0.37940 0.91850 0.72050 -0.29400
O 	O 	0.77200 0.42453 0.94020 -0.46700
O 	O 	0.38300 0.66730 0.98773 -0.46300
O 	O 	0.22800 0.57547 0.05980 -0.46700
O 	O 	0.25870 0.00580 0.47730 -0.46200
O 	O 	0.59040 0.41623 0.09197 -0.45900
O 	O 	0.38300 0.83270 0.48773 -0.46300
O 	O 	0.77200 0.07547 0.44020 -0.46700
O 	O 	0.61700 0.33270 0.01227 -0.46300
O 	O 	0.35040 0.34810 0.35500 -0.17700
O 	O 	0.64960 0.84810 0.14500 -0.17700
O 	O 	0.25870 0.49420 0.97730 -0.46400
O 	O 	0.74130 0.99420 0.52270 -0.46200
O 	O 	0.62060 0.08150 0.27950 -0.29400
O 	O 	0.61270 0.16780 0.35690 -0.44500
O 	O 	0.55550 0.01902 0.44373 -0.76400
O 	O 	0.61700 0.16730 0.51227 -0.46300
O 	O 	0.44450 0.51902 0.05627 -0.76400
O 	O 	0.34490 0.22180 0.72900 -0.18500
O 	O 	0.40960 0.91623 0.40803 -0.46000
Zn	Zn	0.86452 0.60322 0.43256 1.22600
Zn	Zn	0.90436 0.01621 0.04432 1.20800
Zn	Zn	0.09564 0.51621 0.45568 1.20900
Zn	Zn	0.13548 0.39678 0.56744 1.22600
Zn	Zn	0.09564 0.98379 0.95568 1.20800
Zn	Zn	0.90436 0.48379 0.54432 1.20900
Zn	Zn	0.86452 0.89678 0.93256 1.22600
Zn	Zn	0.13548 0.10322 0.06744 1.22600
H 	H 	0.85490 0.24780 0.41170 0.08200
H 	H 	0.07490 0.51620 0.59070 0.18300
H 	H 	0.92510 0.01620 0.90930 0.18100
H 	H 	0.15340 0.82030 0.48830 0.04800
H 	H 	0.85490 0.25220 0.91170 0.08300
H 	H 	0.91130 0.78170 0.29950 0.06900
H 	H 	0.61180 0.43220 0.55680 0.05100
H 	H 	0.14510 0.74780 0.08830 0.08300
H 	H 	0.84660 0.32030 0.01170 0.04800
H 	H 	0.15160 0.85020 0.68130 0.04100
H 	H 	0.08870 0.28170 0.20050 0.06900
H 	H 	0.15160 0.64980 0.18130 0.04000
H 	H 	0.11930 0.21430 0.43130 0.05200
H 	H 	0.87730 0.97640 0.20550 0.02400
H 	H 	0.84840 0.14980 0.31870 0.04100
H 	H 	0.84840 0.35020 0.81870 0.04000
H 	H 	0.12370 0.36810 0.84360 0.06000
H 	H 	0.11650 0.63340 0.57620 -0.00400
H 	H 	0.88350 0.36660 0.42380 -0.00400
H 	H 	0.08870 0.21830 0.70050 0.06900
H 	H 	0.38820 0.56780 0.44320 0.05100
H 	H 	0.54860 0.90940 0.92920 0.05000
H 	H 	0.92330 0.86440 0.21160 0.05200
H 	H 	0.15340 0.67970 0.98830 0.04800
H 	H 	0.88070 0.78570 0.56870 0.05200
H 	H 	0.54860 0.59060 0.42920 0.05000
H 	H 	0.07490 0.98380 0.09070 0.18100
H 	H 	0.12370 0.13190 0.34360 0.06000
H 	H 	0.14440 0.97080 0.68790 0.07600
H 	H 	0.07670 0.13560 0.78840 0.05200
H 	H 	0.11650 0.86660 0.07620 -0.00500
H 	H 	0.45140 0.09060 0.07080 0.05000
H 	H 	0.07670 0.36440 0.28840 0.05100
H 	H 	0.12270 0.47640 0.29450 0.01800
H 	H 	0.38820 0.93220 0.94320 0.05100
H 	H 	0.14440 0.52920 0.18790 0.07900
H 	H 	0.12270 0.02360 0.79450 0.02400
H 	H 	0.88070 0.71430 0.06870 0.05200
H 	H 	0.45140 0.40940 0.57080 0.05000
H 	H 	0.85560 0.02920 0.31210 0.07600
H 	H 	0.92330 0.63560 0.71160 0.05100
H 	H 	0.87630 0.63190 0.15640 0.06000
H 	H 	0.61180 0.06780 0.05680 0.05100
H 	H 	0.87630 0.86810 0.65640 0.06000
H 	H 	0.84660 0.17970 0.51170 0.04800
H 	H 	0.91130 0.71830 0.79950 0.06900
H 	H 	0.85560 0.47080 0.81210 0.07900
H 	H 	0.11930 0.28570 0.93130 0.05200
H 	H 	0.88350 0.13340 0.92380 -0.00500
H 	H 	0.14510 0.75220 0.58830 0.08200
H 	H 	0.92510 0.48380 0.40930 0.18300
H 	H 	0.87730 0.52360 0.70550 0.01800
C 	C 	0.87590 0.16860 0.08390 0.02500
C 	C 	0.87350 0.47480 0.70740 0.07300
C 	C 	0.13690 0.75880 0.92020 -0.03100
C 	C 	0.40220 0.48560 0.50840 -0.07500
C 	C 	0.12580 0.86890 0.84890 0.03900
C 	C 	0.52940 0.55400 0.45800 -0.01300
C 	C 	0.85630 0.21640 0.64590 0.10500
C 	C 	0.08890 0.18230 0.79950 0.00700
C 	C 	0.12650 0.52520 0.29260 0.07300
C 	C 	0.11330 0.27160 0.88530 -0.00500
C 	C 	0.88670 0.77160 0.61470 -0.00400
C 	C 	0.12270 0.66080 0.53650 0.07100
C 	C 	0.85370 0.24470 0.21620 0.11100
C 	C 	0.29690 0.02890 0.01510 0.37400
C 	C 	0.13690 0.74120 0.42020 -0.03100
C 	C 	0.86140 0.26800 0.45550 -0.10300
C 	C 	0.86070 0.05650 0.27220 -0.09400
C 	C 	0.43330 0.54020 0.46630 -0.01100
C 	C 	0.89710 0.64660 0.57420 0.37600
C 	C 	0.43330 0.95980 0.96630 -0.01100
C 	C 	0.12410 0.66860 0.41610 0.02500
C 	C 	0.88600 0.85560 0.79490 0.32100
C 	C 	0.10780 0.30190 0.76270 -0.04300
C 	C 	0.85580 0.12750 0.27590 0.01200
C 	C 	0.12270 0.83920 0.03650 0.07100
C 	C 	0.14370 0.78360 0.35410 0.10500
C 	C 	0.56670 0.04020 0.03370 -0.01100
C 	C 	0.90570 0.73220 0.75330 -0.02900
C 	C 	0.13860 0.73200 0.54450 -0.10300
C 	C 	0.08890 0.31770 0.29950 0.00700
C 	C 	0.91110 0.81770 0.20050 0.00700
C 	C 	0.85370 0.25530 0.71620 0.11200
C 	C 	0.89710 0.85340 0.07420 0.37600
C 	C 	0.12650 0.97480 0.79260 0.06400
C 	C 	0.12410 0.83140 0.91610 0.02500
C 	C 	0.88390 0.82090 0.66770 -0.03500
C 	C 	0.14630 0.74470 0.28380 0.11200
C 	C 	0.10170 0.29860 0.36920 -0.07900
C 	C 	0.13800 0.83280 0.78580 -0.04000
C 	C 	0.86200 0.33280 0.71420 -0.04200
C 	C 	0.40220 0.01440 0.00840 -0.07500
C 	C 	0.91110 0.68230 0.70050 0.00700
C 	C 	0.11610 0.32090 0.83230 -0.03500
C 	C 	0.13930 0.55650 0.22780 -0.09900
C 	C 	0.88600 0.64440 0.29490 0.32100
C 	C 	0.14630 0.75530 0.78380 0.11100
C 	C 	0.10170 0.20140 0.86920 -0.07800
C 	C 	0.87730 0.16080 0.96350 0.07100
C 	C 	0.70310 0.97110 0.98490 0.37400
C 	C 	0.29690 0.47110 0.51510 0.37300
C 	C 	0.13930 0.94350 0.72780 -0.09400
C 	C 	0.87420 0.36890 0.65110 0.04000
C 	C 	0.12580 0.63110 0.34890 0.04000
C 	C 	0.89830 0.79860 0.13080 -0.07800
C 	C 	0.86070 0.44350 0.77220 -0.09900
C 	C 	0.14440 0.72800 0.98490 0.00500
C 	C 	0.11610 0.17910 0.33230 -0.03500
C 	C 	0.47060 0.05400 0.04200 -0.01300
C 	C 	0.86140 0.23200 0.95550 -0.10400
C 	C 	0.85560 0.22800 0.51510 0.00400
C 	C 	0.87730 0.33920 0.46350 0.07100
C 	C 	0.11400 0.35560 0.70510 0.32100
C 	C 	0.14420 0.87250 0.72410 0.01200
C 	C 	0.85580 0.37250 0.77590 0.01600
C 	C 	0.14420 0.62750 0.22410 0.01600
C 	C 	0.14440 0.77200 0.48490 0.00400
C 	C 	0.10290 0.14660 0.92580 0.37600
C 	C 	0.52940 0.94600 0.95800 -0.01300
C 	C 	0.90570 0.76780 0.25330 -0.02900
C 	C 	0.86310 0.25880 0.57980 -0.03100
C 	C 	0.88670 0.72840 0.11470 -0.00500
C 	C 	0.89220 0.80190 0.73730 -0.04300
C 	C 	0.59780 0.98560 0.99160 -0.07500
C 	C 	0.87350 0.02520 0.20740 0.06400
C 	C 	0.09430 0.26780 0.24670 -0.02900
C 	C 	0.89830 0.70140 0.63080 -0.07900
C 	C 	0.87590 0.33140 0.58390 0.02500
C 	C 	0.70310 0.52890 0.48490 0.37300
C 	C 	0.11330 0.22840 0.38530 -0.00400
C 	C 	0.86310 0.24120 0.07980 -0.03100
C 	C 	0.85630 0.28360 0.14590 0.10500
C 	C 	0.89220 0.69810 0.23730 -0.04300
C 	C 	0.87420 0.13110 0.15110 0.03900
C 	C 	0.86200 0.16720 0.21420 -0.04000
C 	C 	0.14370 0.71640 0.85410 0.10500
C 	C 	0.10290 0.35340 0.42580 0.37600
C 	C 	0.13800 0.66720 0.28580 -0.04200
C 	C 	0.47060 0.44600 0.54200 -0.01300
C 	C 	0.11400 0.14440 0.20510 0.32100
C 	C 	0.85560 0.27200 0.01510 0.00500
C 	C 	0.10780 0.19810 0.26270 -0.04300
C 	C 	0.59780 0.51440 0.49160 -0.07500
C 	C 	0.88390 0.67910 0.16770 -0.03500
C 	C 	0.09430 0.23220 0.74670 -0.02900
C 	C 	0.13860 0.76800 0.04450 -0.10400
C 	C 	0.56670 0.45980 0.53370 -0.01100
N 	N 	0.11570 0.62910 0.47460 -0.23300
N 	N 	0.88430 0.37090 0.52540 -0.23300
N 	N 	0.88060 0.43900 0.64750 -0.22100
N 	N 	0.11940 0.93900 0.85250 -0.22000
N 	N 	0.11570 0.87090 0.97460 -0.23300
N 	N 	0.88060 0.06100 0.14750 -0.22000
N 	N 	0.88430 0.12910 0.02540 -0.23300
N 	N 	0.11940 0.56100 0.35250 -0.22100
O 	O 	0.84490 0.27820 0.27100 -0.18500
O 	O 	0.75870 0.00580 0.02270 -0.46600
O 	O 	0.11700 0.33270 0.48773 -0.46200
O 	O 	0.11700 0.16730 0.98773 -0.46100
O 	O 	0.88730 0.66780 0.35690 -0.44500
O 	O 	0.14960 0.84810 0.35500 -0.17800
O 	O 	0.11270 0.16780 0.14310 -0.44500
O 	O 	0.90960 0.91623 0.09197 -0.45700
O 	O 	0.15510 0.72180 0.72900 -0.18500
O 	O 	0.87940 0.58150 0.27950 -0.29400
O 	O 	0.90960 0.58377 0.59197 -0.45900
O 	O 	0.09040 0.41623 0.40803 -0.45900
O 	O 	0.87940 0.91850 0.77950 -0.29300
O 	O 	0.84490 0.22180 0.77100 -0.18600
O 	O 	0.94450 0.98098 0.94373 -0.76100
O 	O 	0.09040 0.08377 0.90803 -0.45700
O 	O 	0.15510 0.77820 0.22900 -0.18600
O 	O 	0.75870 0.49420 0.52270 -0.46500
O 	O 	0.27200 0.42453 0.55980 -0.46700
O 	O 	0.24130 0.99420 0.97730 -0.46600
O 	O 	0.72800 0.57547 0.44020 -0.46700
O 	O 	0.85040 0.34810 0.14500 -0.17700
O 	O 	0.85040 0.15190 0.64500 -0.17800
O 	O 	0.11270 0.33220 0.64310 -0.44500
O 	O 	0.94450 0.51902 0.44373 -0.76400
O 	O 	0.24130 0.50580 0.47730 -0.46500
O 	O 	0.27200 0.07547 0.05980 -0.46800
O 	O 	0.05550 0.48098 0.55627 -0.76400
O 	O 	0.12060 0.41850 0.72050 -0.29400
O 	O 	0.12060 0.08150 0.22050 -0.29300
O 	O 	0.88730 0.83220 0.85690 -0.44500
O 	O 	0.88300 0.66730 0.51227 -0.46200
O 	O 	0.72800 0.92453 0.94020 -0.46800
O 	O 	0.05550 0.01902 0.05627 -0.76100
O 	O 	0.88300 0.83270 0.01227 -0.46100
O 	O 	0.14960 0.65190 0.85500 -0.17700
