data_crystal

_cell_length_a 4.93920
_cell_length_b 12.18670
_cell_length_c 10.78300
_cell_angle_alpha 90.00000
_cell_angle_beta  94.76650
_cell_angle_gamma 90.00000

_symmetry_space_group_name_	'P 1'
_symmetry_space_group_name_H-M	'P 1'

loop_
_symmetry_equiv_pos_as_xyz
  x,y,z

loop_
_atom_site_label
_atom_site_type_symbol
_atom_site_fract_x
_atom_site_fract_y
_atom_site_fract_z
_atom_site_charge
P 	P 	0.53590 0.51400 0.18130 0.54800
F 	F 	0.06630 0.35330 0.98370 -0.99500
O 	O 	0.70190 0.45880 0.08370 -0.69000
O 	O 	0.60730 0.63680 0.18890 -0.70000
O 	O 	0.22600 0.50710 0.14380 -0.91600
C 	C 	0.47040 0.52210 0.43220 -0.06000
C 	C 	0.61680 0.46340 0.33340 0.01300
P 	P 	0.46410 0.01400 0.81870 0.33800
F 	F 	0.93370 0.85330 0.01630 -1.00000
O 	O 	0.29810 0.95880 0.91630 -0.34300
O 	O 	0.39270 0.13680 0.81110 -0.65600
O 	O 	0.77400 0.00710 0.85620 -0.31300
C 	C 	0.52960 0.02210 0.56780 -0.21300
C 	C 	0.38320 0.96340 0.66660 0.12600
P 	P 	0.46410 0.48600 0.81870 0.56400
F 	F 	0.93370 0.64670 0.01630 -1.03100
O 	O 	0.29810 0.54120 0.91630 -0.48500
O 	O 	0.39270 0.36320 0.81110 -0.67100
O 	O 	0.77400 0.49290 0.85620 -0.26300
C 	C 	0.52960 0.47790 0.56780 0.10600
C 	C 	0.38320 0.53660 0.66660 -0.16000
P 	P 	0.53590 0.98600 0.18130 0.78600
F 	F 	0.06630 0.14670 0.98370 -1.02100
O 	O 	0.70190 0.04120 0.08370 -0.84100
O 	O 	0.60730 0.86320 0.18890 -0.71600
O 	O 	0.22600 0.99290 0.14380 -0.85000
C 	C 	0.47040 0.97790 0.43220 0.26300
C 	C 	0.61680 0.03660 0.33340 -0.28300
Al	Al	-0.00000 0.50000 -0.00000 2.34600
Al	Al	-0.00000 0.00000 -0.00000 2.33500
Al	Al	0.24350 0.25000 0.89860 2.39200
Al	Al	0.75650 0.75000 0.10140 2.39000
