data_crystal

_cell_length_a 15.47240
_cell_length_b 14.14590
_cell_length_c 24.04000
_cell_angle_alpha 90.00000
_cell_angle_beta  90.18800
_cell_angle_gamma 90.00000

_symmetry_space_group_name_	'P 1'
_symmetry_space_group_name_H-M	'P 1'

loop_
_symmetry_equiv_pos_as_xyz
  x,y,z

loop_
_atom_site_label
_atom_site_type_symbol
_atom_site_fract_x
_atom_site_fract_y
_atom_site_fract_z
_atom_site_charge
C 	C 	0.37160 0.00840 0.42500 0.38400
C 	C 	0.33570 0.05330 0.37300 -0.13700
C 	C 	0.36850 0.13940 0.35420 0.04400
H 	H 	0.41250 0.17020 0.37510 0.02000
C 	C 	0.33980 0.17870 0.30820 -0.10900
H 	H 	0.36240 0.23800 0.29670 0.07100
C 	C 	0.27540 0.13380 0.27540 0.01900
C 	C 	0.24250 0.04790 0.29520 -0.09700
C 	C 	0.27240 0.00430 0.34390 0.00600
H 	H 	0.25070 0.94510 0.35620 0.04200
C 	C 	0.07400 0.17510 0.07780 0.57100
C 	C 	0.13080 0.16530 0.12770 -0.26400
C 	C 	0.18910 0.23370 0.14130 0.12200
H 	H 	0.19420 0.28660 0.11720 -0.00800
C 	C 	0.24350 0.23060 0.18990 -0.18500
H 	H 	0.28540 0.27770 0.19790 0.09500
C 	C 	0.23030 0.15720 0.22210 0.08900
C 	C 	0.17240 0.08460 0.20950 -0.15000
C 	C 	0.12140 0.08720 0.16460 0.11100
H 	H 	0.08030 0.03870 0.15750 -0.02500
C 	C 	0.17610 0.00260 0.25510 0.27600
C 	C 	0.09080 0.99820 0.28260 -0.46400
H 	H 	0.09660 0.01890 0.32140 0.13500
H 	H 	0.06920 0.93310 0.28170 0.16100
H 	H 	0.05010 0.03970 0.26310 0.13000
C 	C 	0.46430 0.68190 0.59150 0.54100
C 	C 	0.41650 0.68680 0.64480 -0.28200
C 	C 	0.39510 0.77110 0.66830 0.15600
H 	H 	0.41160 0.82790 0.65010 -0.04100
C 	C 	0.34990 0.77660 0.71790 -0.20300
H 	H 	0.34310 0.83570 0.73610 0.10500
C 	C 	0.31580 0.69760 0.74020 0.08900
C 	C 	0.34150 0.60720 0.71820 -0.18000
C 	C 	0.38960 0.60440 0.67120 0.14600
H 	H 	0.40530 0.54490 0.65590 -0.03200
C 	C 	0.10570 0.57250 0.91930 0.47400
C 	C 	0.16150 0.60810 0.87270 -0.19100
C 	C 	0.16720 0.70680 0.86550 0.07200
H 	H 	0.13560 0.74830 0.88890 0.00100
C 	C 	0.21990 0.74280 0.82360 -0.12900
H 	H 	0.22460 0.80900 0.81790 0.06300
C 	C 	0.26560 0.67950 0.78980 0.04800
C 	C 	0.25360 0.58370 0.79480 -0.15100
C 	C 	0.20220 0.54830 0.83870 0.10700
H 	H 	0.19670 0.48200 0.84400 -0.00300
C 	C 	0.29730 0.53040 0.75160 0.35000
C 	C 	0.36360 0.45430 0.77000 -0.64900
H 	H 	0.33290 0.39980 0.78540 0.21500
H 	H 	0.40220 0.48090 0.79830 0.20500
H 	H 	0.39760 0.43420 0.73780 0.20400
Eu	Eu	0.44398 0.87368 0.50845 2.06000
O 	O 	0.33900 0.93200 0.44360 -0.46600
O 	O 	0.43740 0.04200 0.45120 -0.56400
O 	O 	0.08570 0.24340 0.04680 -0.60200
O 	O 	0.02250 0.11220 0.06570 -0.60100
O 	O 	0.20270 0.92170 0.23270 -0.34700
H 	H 	0.26420 0.91110 0.22500 0.16400
O 	O 	0.48910 0.75760 0.57000 -0.57500
O 	O 	0.47680 0.60250 0.56850 -0.60000
O 	O 	0.05020 0.62780 0.94010 -0.53200
O 	O 	0.11650 0.48480 0.93170 -0.54200
O 	O 	0.23640 0.49050 0.71740 -0.36500
H 	H 	0.26260 0.45790 0.68680 0.15600
C 	C 	0.12840 0.50840 0.07500 0.41700
C 	C 	0.16430 0.55330 0.12700 -0.18000
C 	C 	0.13150 0.63940 0.14580 0.08000
H 	H 	0.08750 0.67020 0.12490 -0.00500
C 	C 	0.16020 0.67870 0.19180 -0.14100
H 	H 	0.13760 0.73800 0.20330 0.07700
C 	C 	0.22460 0.63380 0.22460 0.04400
C 	C 	0.25750 0.54790 0.20480 -0.15100
C 	C 	0.22760 0.50430 0.15610 0.07600
H 	H 	0.24930 0.44510 0.14380 0.00700
C 	C 	0.42600 0.67510 0.42220 0.58100
C 	C 	0.36920 0.66530 0.37230 -0.26600
C 	C 	0.31090 0.73370 0.35870 0.12900
H 	H 	0.30580 0.78660 0.38280 -0.00700
C 	C 	0.25650 0.73060 0.31010 -0.18600
H 	H 	0.21460 0.77770 0.30210 0.09500
C 	C 	0.26970 0.65720 0.27790 0.09200
C 	C 	0.32760 0.58460 0.29050 -0.17700
C 	C 	0.37860 0.58720 0.33540 0.13000
H 	H 	0.41970 0.53870 0.34250 -0.02000
C 	C 	0.32390 0.50260 0.24490 0.39200
C 	C 	0.40920 0.49820 0.21740 -0.72000
H 	H 	0.40340 0.51890 0.17860 0.22500
H 	H 	0.43080 0.43310 0.21830 0.23900
H 	H 	0.44990 0.53970 0.23690 0.22700
C 	C 	0.03570 0.18190 0.90850 0.52800
C 	C 	0.08350 0.18680 0.85520 -0.28100
C 	C 	0.10490 0.27110 0.83170 0.15200
H 	H 	0.08840 0.32790 0.84990 -0.04700
C 	C 	0.15010 0.27660 0.78210 -0.20800
H 	H 	0.15690 0.33570 0.76390 0.09900
C 	C 	0.18420 0.19760 0.75980 0.09000
C 	C 	0.15850 0.10720 0.78180 -0.17100
C 	C 	0.11040 0.10440 0.82880 0.13400
H 	H 	0.09470 0.04490 0.84410 -0.03600
C 	C 	0.39430 0.07250 0.58070 0.44400
C 	C 	0.33850 0.10810 0.62730 -0.16100
C 	C 	0.33280 0.20680 0.63450 0.04800
H 	H 	0.36440 0.24830 0.61110 0.00800
C 	C 	0.28010 0.24280 0.67640 -0.11200
H 	H 	0.27540 0.30900 0.68210 0.05300
C 	C 	0.23440 0.17950 0.71020 0.02500
C 	C 	0.24640 0.08370 0.70520 -0.11700
C 	C 	0.29780 0.04830 0.66130 0.04900
H 	H 	0.30330 0.98200 0.65600 0.02400
C 	C 	0.20270 0.03040 0.74840 0.29000
C 	C 	0.13640 0.95430 0.73000 -0.56700
H 	H 	0.16710 0.89980 0.71460 0.18600
H 	H 	0.09780 0.98090 0.70170 0.17000
H 	H 	0.10240 0.93420 0.76220 0.17300
Eu	Eu	0.05602 0.37368 0.99155 2.08400
O 	O 	0.16100 0.43200 0.05640 -0.50000
O 	O 	0.06260 0.54200 0.04880 -0.59700
O 	O 	0.41430 0.74340 0.45320 -0.58300
O 	O 	0.47750 0.61220 0.43430 -0.60400
O 	O 	0.29730 0.42170 0.26730 -0.38800
H 	H 	0.23580 0.41110 0.27500 0.16700
O 	O 	0.01090 0.25760 0.93000 -0.58300
O 	O 	0.02320 0.10250 0.93150 -0.56800
O 	O 	0.44980 0.12780 0.55990 -0.52100
O 	O 	0.38350 0.98480 0.56830 -0.52700
O 	O 	0.26360 0.99050 0.78260 -0.33200
H 	H 	0.23740 0.95790 0.81320 0.15700
C 	C 	0.62840 0.99160 0.57500 0.43500
C 	C 	0.66430 0.94670 0.62700 -0.18600
C 	C 	0.63150 0.86060 0.64580 0.09400
H 	H 	0.58750 0.82980 0.62490 0.00500
C 	C 	0.66020 0.82130 0.69180 -0.14600
H 	H 	0.63760 0.76200 0.70330 0.08700
C 	C 	0.72460 0.86620 0.72460 0.06100
C 	C 	0.75750 0.95210 0.70480 -0.17400
C 	C 	0.72760 0.99570 0.65610 0.11200
H 	H 	0.74930 0.05490 0.64380 -0.00600
C 	C 	0.92600 0.82490 0.92220 0.55700
C 	C 	0.86920 0.83470 0.87230 -0.23800
C 	C 	0.81090 0.76630 0.85870 0.12100
H 	H 	0.80580 0.71340 0.88280 0.00200
C 	C 	0.75650 0.76940 0.81010 -0.17300
H 	H 	0.71460 0.72230 0.80210 0.09600
C 	C 	0.76970 0.84280 0.77790 0.09100
C 	C 	0.82760 0.91540 0.79050 -0.17800
C 	C 	0.87860 0.91280 0.83540 0.12800
H 	H 	0.91970 0.96130 0.84250 -0.00100
C 	C 	0.82390 0.99740 0.74490 0.45100
C 	C 	0.90920 0.00180 0.71740 -0.85400
H 	H 	0.90340 0.98110 0.67860 0.27900
H 	H 	0.93080 0.06690 0.71830 0.28900
H 	H 	0.94990 0.96030 0.73690 0.28400
C 	C 	0.53570 0.31810 0.40850 0.54200
C 	C 	0.58350 0.31320 0.35520 -0.28000
C 	C 	0.60490 0.22890 0.33170 0.15600
H 	H 	0.58840 0.17210 0.34990 -0.04100
C 	C 	0.65010 0.22340 0.28210 -0.20400
H 	H 	0.65690 0.16430 0.26390 0.10200
C 	C 	0.68420 0.30240 0.25980 0.09200
C 	C 	0.65850 0.39280 0.28180 -0.17700
C 	C 	0.61040 0.39560 0.32880 0.14600
H 	H 	0.59470 0.45510 0.34410 -0.03000
C 	C 	0.89430 0.42750 0.08070 0.46900
C 	C 	0.83850 0.39190 0.12730 -0.18200
C 	C 	0.83280 0.29320 0.13450 0.06600
H 	H 	0.86440 0.25170 0.11110 0.01100
C 	C 	0.78010 0.25720 0.17640 -0.12200
H 	H 	0.77540 0.19100 0.18210 0.05900
C 	C 	0.73440 0.32050 0.21020 0.04300
C 	C 	0.74640 0.41630 0.20520 -0.14400
C 	C 	0.79780 0.45170 0.16130 0.10300
H 	H 	0.80330 0.51800 0.15600 -0.00100
C 	C 	0.70270 0.46960 0.24840 0.34200
C 	C 	0.63640 0.54570 0.23000 -0.63800
H 	H 	0.66710 0.60020 0.21460 0.20900
H 	H 	0.59780 0.51910 0.20170 0.19700
H 	H 	0.60240 0.56580 0.26220 0.20000
Eu	Eu	0.55602 0.12632 0.49155 2.04900
O 	O 	0.66100 0.06800 0.55640 -0.48900
O 	O 	0.56260 0.95800 0.54880 -0.56500
O 	O 	0.91430 0.75660 0.95320 -0.54000
O 	O 	0.97750 0.88780 0.93430 -0.52300
O 	O 	0.79730 0.07830 0.76730 -0.40400
H 	H 	0.73580 0.08890 0.77500 0.17600
O 	O 	0.51090 0.24240 0.43000 -0.57500
O 	O 	0.52320 0.39750 0.43150 -0.59900
O 	O 	0.94980 0.37220 0.05990 -0.51400
O 	O 	0.88350 0.51520 0.06830 -0.53800
O 	O 	0.76360 0.50950 0.28260 -0.35300
H 	H 	0.73740 0.54210 0.31320 0.15800
C 	C 	0.87160 0.49160 0.92500 0.41200
C 	C 	0.83570 0.44670 0.87300 -0.15300
C 	C 	0.86850 0.36060 0.85420 0.07000
H 	H 	0.91250 0.32980 0.87510 0.03100
C 	C 	0.83980 0.32130 0.80820 -0.12000
H 	H 	0.86240 0.26200 0.79670 0.08600
C 	C 	0.77540 0.36620 0.77540 0.04300
C 	C 	0.74250 0.45210 0.79520 -0.14300
C 	C 	0.77240 0.49570 0.84390 0.07000
H 	H 	0.75070 0.55490 0.85620 0.01500
C 	C 	0.57400 0.32490 0.57780 0.58100
C 	C 	0.63080 0.33470 0.62770 -0.26500
C 	C 	0.68910 0.26630 0.64130 0.13200
H 	H 	0.69420 0.21340 0.61720 -0.00500
C 	C 	0.74350 0.26940 0.68990 -0.18600
H 	H 	0.78540 0.22230 0.69790 0.10100
C 	C 	0.73030 0.34280 0.72210 0.09900
C 	C 	0.67240 0.41540 0.70950 -0.17700
C 	C 	0.62140 0.41280 0.66460 0.13200
H 	H 	0.58030 0.46130 0.65750 -0.02000
C 	C 	0.67610 0.49740 0.75510 0.39700
C 	C 	0.59080 0.50180 0.78260 -0.73200
H 	H 	0.59660 0.48110 0.82140 0.23500
H 	H 	0.56920 0.56690 0.78170 0.24600
H 	H 	0.55010 0.46030 0.76310 0.23200
C 	C 	0.96430 0.81810 0.09150 0.52000
C 	C 	0.91650 0.81320 0.14480 -0.25800
C 	C 	0.89510 0.72890 0.16830 0.14500
H 	H 	0.91160 0.67210 0.15010 -0.03000
C 	C 	0.84990 0.72340 0.21790 -0.18900
H 	H 	0.84310 0.66430 0.23610 0.10300
C 	C 	0.81580 0.80240 0.24020 0.08400
C 	C 	0.84150 0.89280 0.21820 -0.17400
C 	C 	0.88960 0.89560 0.17120 0.14100
H 	H 	0.90530 0.95510 0.15590 -0.01600
C 	C 	0.60570 0.92750 0.41930 0.49400
C 	C 	0.66150 0.89190 0.37270 -0.20900
C 	C 	0.66720 0.79320 0.36550 0.08900
H 	H 	0.63560 0.75170 0.38890 -0.00200
C 	C 	0.71990 0.75720 0.32360 -0.14100
H 	H 	0.72460 0.69100 0.31790 0.06700
C 	C 	0.76560 0.82050 0.28980 0.06500
C 	C 	0.75360 0.91630 0.29480 -0.17200
C 	C 	0.70220 0.95170 0.33870 0.14900
H 	H 	0.69670 0.01800 0.34400 -0.02200
C 	C 	0.79730 0.96960 0.25160 0.38500
C 	C 	0.86360 0.04570 0.27000 -0.70500
H 	H 	0.83290 0.10020 0.28540 0.23400
H 	H 	0.90220 0.01910 0.29830 0.23100
H 	H 	0.89760 0.06580 0.23780 0.23200
Eu	Eu	0.94398 0.62632 0.00845 2.01800
O 	O 	0.83900 0.56800 0.94360 -0.45700
O 	O 	0.93740 0.45800 0.95120 -0.52800
O 	O 	0.58570 0.25660 0.54680 -0.58100
O 	O 	0.52250 0.38780 0.56570 -0.60400
O 	O 	0.70270 0.57830 0.73270 -0.38800
H 	H 	0.76420 0.58890 0.72500 0.17600
O 	O 	0.98910 0.74240 0.07000 -0.55000
O 	O 	0.97680 0.89750 0.06850 -0.54400
O 	O 	0.55020 0.87220 0.44010 -0.52800
O 	O 	0.61650 0.01520 0.43170 -0.55200
O 	O 	0.73640 0.00950 0.21740 -0.37700
H 	H 	0.76260 0.04210 0.18680 0.16000
Eu	Eu	0.50000 0.50000 0.50000 1.83400
Eu	Eu	-0.00000 0.00000 -0.00000 1.60800
