data_crystal

_cell_length_a 17.07120
_cell_length_b 16.98100
_cell_length_c 20.38320
_cell_angle_alpha 90.00000
_cell_angle_beta  108.07300
_cell_angle_gamma 90.00000

_symmetry_space_group_name_	'P 1'
_symmetry_space_group_name_H-M	'P 1'

loop_
_symmetry_equiv_pos_as_xyz
  x,y,z

loop_
_atom_site_label
_atom_site_type_symbol
_atom_site_fract_x
_atom_site_fract_y
_atom_site_fract_z
_atom_site_charge
Eu	Eu	0.49446 0.06227 0.58259 1.79600
C 	C 	0.51280 0.30930 0.63880 -0.02300
C 	C 	0.44210 0.35280 0.62610 -0.07600
H 	H 	0.39110 0.33030 0.60350 0.06800
C 	C 	0.44750 0.43060 0.64730 0.04100
C 	C 	0.58860 0.42120 0.69510 0.05300
H 	H 	0.63860 0.44440 0.71900 -0.00500
C 	C 	0.58870 0.34450 0.67220 -0.08400
H 	H 	0.63780 0.31720 0.67880 0.06500
C 	C 	0.37340 0.48210 0.63440 0.01700
C 	C 	0.30110 0.46870 0.58180 -0.03300
H 	H 	0.29690 0.42520 0.55320 0.05100
C 	C 	0.23600 0.51840 0.57130 -0.09500
C 	C 	0.24510 0.58620 0.61230 -0.04800
H 	H 	0.20240 0.62250 0.60500 0.03400
C 	C 	0.31840 0.59790 0.66340 0.02400
H 	H 	0.32480 0.64260 0.69080 0.00300
C 	C 	0.54810 0.65280 0.63660 0.02400
H 	H 	0.56120 0.60410 0.62200 0.00600
C 	C 	0.54960 0.71860 0.59710 -0.03600
H 	H 	0.56220 0.71440 0.55600 0.05600
C 	C 	0.53190 0.79010 0.62030 -0.09100
C 	C 	0.51170 0.79520 0.68130 -0.03200
H 	H 	0.49890 0.84350 0.69700 0.03000
C 	C 	0.51130 0.72790 0.71750 0.02200
C 	C 	0.52770 0.86430 0.57800 0.43500
C 	C 	0.15490 0.49990 0.51760 0.40400
C 	C 	0.50920 0.22420 0.61960 0.29400
N 	N 	0.51960 0.46340 0.68440 -0.23200
N 	N 	0.38110 0.54690 0.67500 -0.23500
N 	N 	0.52840 0.65670 0.69580 -0.23800
O 	O 	0.57100 0.18990 0.61210 -0.40800
O 	O 	0.44210 0.18830 0.61080 -0.41600
O 	O 	0.15510 0.45700 0.46730 -0.43900
O 	O 	0.08980 0.52570 0.52520 -0.57900
O 	O 	0.51160 0.92690 0.60490 -0.52200
O 	O 	0.54050 0.85890 0.52080 -0.45000
Eu	Eu	0.99446 0.56227 0.58259 1.87700
C 	C 	0.01280 0.80930 0.63880 -0.06300
C 	C 	0.94210 0.85280 0.62610 -0.02900
H 	H 	0.89110 0.83030 0.60350 0.05600
C 	C 	0.94750 0.93060 0.64730 0.05600
C 	C 	0.08860 0.92120 0.69510 0.04000
H 	H 	0.13860 0.94440 0.71900 -0.00300
C 	C 	0.08870 0.84450 0.67220 -0.07100
H 	H 	0.13780 0.81720 0.67880 0.05800
C 	C 	0.87340 0.98210 0.63440 0.02100
C 	C 	0.80110 0.96870 0.58180 -0.03500
H 	H 	0.79690 0.92520 0.55320 0.05400
C 	C 	0.73600 0.01840 0.57130 -0.08700
C 	C 	0.74510 0.08620 0.61230 -0.05100
H 	H 	0.70240 0.12250 0.60500 0.04000
C 	C 	0.81840 0.09790 0.66340 0.02900
H 	H 	0.82480 0.14260 0.69080 0.00600
C 	C 	0.04810 0.15280 0.63660 0.03200
H 	H 	0.06120 0.10410 0.62200 -0.00100
C 	C 	0.04960 0.21860 0.59710 -0.05800
H 	H 	0.06220 0.21440 0.55600 0.05900
C 	C 	0.03190 0.29010 0.62030 -0.06400
C 	C 	0.01170 0.29520 0.68130 -0.11300
H 	H 	0.99890 0.34350 0.69700 0.08800
C 	C 	0.01130 0.22790 0.71750 0.02600
C 	C 	0.02770 0.36430 0.57800 0.42300
C 	C 	0.65490 0.99990 0.51760 0.39800
C 	C 	0.00920 0.72420 0.61960 0.26600
N 	N 	0.01960 0.96340 0.68440 -0.24700
N 	N 	0.88110 0.04690 0.67500 -0.22800
N 	N 	0.02840 0.15670 0.69580 -0.24700
O 	O 	0.07100 0.68990 0.61210 -0.42000
O 	O 	0.94210 0.68830 0.61080 -0.39400
O 	O 	0.65510 0.95700 0.46730 -0.43900
O 	O 	0.58980 0.02570 0.52520 -0.56000
O 	O 	0.01160 0.42690 0.60490 -0.54500
O 	O 	0.04050 0.35890 0.52080 -0.45000
Eu	Eu	0.50554 0.06227 0.91741 1.79500
C 	C 	0.48720 0.30930 0.86120 -0.02300
C 	C 	0.55790 0.35280 0.87390 -0.07500
H 	H 	0.60890 0.33030 0.89650 0.06800
C 	C 	0.55250 0.43060 0.85270 0.04000
C 	C 	0.41140 0.42120 0.80490 0.05300
H 	H 	0.36140 0.44440 0.78100 -0.00700
C 	C 	0.41130 0.34450 0.82780 -0.08500
H 	H 	0.36220 0.31720 0.82120 0.06300
C 	C 	0.62660 0.48210 0.86560 0.02000
C 	C 	0.69890 0.46870 0.91820 -0.03900
H 	H 	0.70310 0.42520 0.94680 0.05400
C 	C 	0.76400 0.51840 0.92870 -0.08100
C 	C 	0.75490 0.58620 0.88770 -0.05400
H 	H 	0.79760 0.62250 0.89500 0.04500
C 	C 	0.68160 0.59790 0.83660 0.03000
H 	H 	0.67520 0.64260 0.80920 0.00300
C 	C 	0.45190 0.65280 0.86340 0.02400
H 	H 	0.43880 0.60410 0.87800 0.00600
C 	C 	0.45040 0.71860 0.90290 -0.03600
H 	H 	0.43780 0.71440 0.94400 0.05500
C 	C 	0.46810 0.79010 0.87970 -0.09100
C 	C 	0.48830 0.79520 0.81870 -0.03200
H 	H 	0.50110 0.84350 0.80300 0.03100
C 	C 	0.48870 0.72790 0.78250 0.02200
C 	C 	0.47230 0.86430 0.92200 0.43500
C 	C 	0.84510 0.49990 0.98240 0.39300
C 	C 	0.49080 0.22420 0.88040 0.29400
N 	N 	0.48040 0.46340 0.81560 -0.23200
N 	N 	0.61890 0.54690 0.82500 -0.23600
N 	N 	0.47160 0.65670 0.80420 -0.23800
O 	O 	0.42900 0.18990 0.88790 -0.41000
O 	O 	0.55790 0.18830 0.88920 -0.41500
O 	O 	0.84490 0.45700 0.03270 -0.44200
O 	O 	0.91020 0.52570 0.97480 -0.53900
O 	O 	0.48840 0.92690 0.89510 -0.52100
O 	O 	0.45950 0.85890 0.97920 -0.45000
Eu	Eu	0.00554 0.56227 0.91741 1.71100
C 	C 	0.98720 0.80930 0.86120 0.02200
C 	C 	0.05790 0.85280 0.87390 -0.12500
H 	H 	0.10890 0.83030 0.89650 0.08000
C 	C 	0.05250 0.93060 0.85270 0.02700
C 	C 	0.91140 0.92120 0.80490 0.06800
H 	H 	0.86140 0.94440 0.78100 -0.00900
C 	C 	0.91130 0.84450 0.82780 -0.09900
H 	H 	0.86220 0.81720 0.82120 0.07100
C 	C 	0.12660 0.98210 0.86560 0.01600
C 	C 	0.19890 0.96870 0.91820 -0.03400
H 	H 	0.20310 0.92520 0.94680 0.05000
C 	C 	0.26400 0.01840 0.92870 -0.09400
C 	C 	0.25490 0.08620 0.88770 -0.05000
H 	H 	0.29760 0.12250 0.89500 0.03800
C 	C 	0.18160 0.09790 0.83660 0.02300
H 	H 	0.17520 0.14260 0.80920 0.00100
C 	C 	0.95190 0.15280 0.86340 0.01600
H 	H 	0.93880 0.10410 0.87800 0.01500
C 	C 	0.95040 0.21860 0.90290 -0.01300
H 	H 	0.93780 0.21440 0.94400 0.05300
C 	C 	0.96810 0.29010 0.87970 -0.11900
C 	C 	0.98830 0.29520 0.81870 0.05000
H 	H 	0.00110 0.34350 0.80300 -0.02800
C 	C 	0.98870 0.22790 0.78250 0.01800
C 	C 	0.97230 0.36430 0.92200 0.44600
C 	C 	0.34510 0.99990 0.98240 0.40000
C 	C 	0.99080 0.72420 0.88040 0.32600
N 	N 	0.98040 0.96340 0.81560 -0.21300
N 	N 	0.11890 0.04690 0.82500 -0.24000
N 	N 	0.97160 0.15670 0.80420 -0.22600
O 	O 	0.92900 0.68990 0.88790 -0.39800
O 	O 	0.05790 0.68830 0.88920 -0.43900
O 	O 	0.34490 0.95700 0.03270 -0.43900
O 	O 	0.41020 0.02570 0.97480 -0.56200
O 	O 	0.98840 0.42690 0.89510 -0.49600
O 	O 	0.95950 0.35890 0.97920 -0.44800
Eu	Eu	0.50554 0.93773 0.41741 1.79700
C 	C 	0.48720 0.69070 0.36120 -0.02300
C 	C 	0.55790 0.64720 0.37390 -0.07500
H 	H 	0.60890 0.66970 0.39650 0.06800
C 	C 	0.55250 0.56940 0.35270 0.04000
C 	C 	0.41140 0.57880 0.30490 0.05300
H 	H 	0.36140 0.55560 0.28100 -0.00700
C 	C 	0.41130 0.65550 0.32780 -0.08500
H 	H 	0.36220 0.68280 0.32120 0.06300
C 	C 	0.62660 0.51790 0.36560 0.02000
C 	C 	0.69890 0.53130 0.41820 -0.03900
H 	H 	0.70310 0.57480 0.44680 0.05400
C 	C 	0.76400 0.48160 0.42870 -0.08100
C 	C 	0.75490 0.41380 0.38770 -0.05500
H 	H 	0.79760 0.37750 0.39500 0.04500
C 	C 	0.68160 0.40210 0.33660 0.03000
H 	H 	0.67520 0.35740 0.30920 0.00300
C 	C 	0.45190 0.34720 0.36340 0.02400
H 	H 	0.43880 0.39590 0.37800 0.00600
C 	C 	0.45040 0.28140 0.40290 -0.03600
H 	H 	0.43780 0.28560 0.44400 0.05600
C 	C 	0.46810 0.20990 0.37970 -0.09100
C 	C 	0.48830 0.20480 0.31870 -0.03200
H 	H 	0.50110 0.15650 0.30300 0.03100
C 	C 	0.48870 0.27210 0.28250 0.02200
C 	C 	0.47230 0.13570 0.42200 0.43500
C 	C 	0.84510 0.50010 0.48240 0.39300
C 	C 	0.49080 0.77580 0.38040 0.29500
N 	N 	0.48040 0.53660 0.31560 -0.23200
N 	N 	0.61890 0.45310 0.32500 -0.23600
N 	N 	0.47160 0.34330 0.30420 -0.23800
O 	O 	0.42900 0.81010 0.38790 -0.40900
O 	O 	0.55790 0.81170 0.38920 -0.41500
O 	O 	0.84490 0.54300 0.53270 -0.44100
O 	O 	0.91020 0.47430 0.47480 -0.54200
O 	O 	0.48840 0.07310 0.39510 -0.52200
O 	O 	0.45950 0.14110 0.47920 -0.45000
Eu	Eu	0.00554 0.43773 0.41741 1.72800
C 	C 	0.98720 0.19070 0.36120 0.01700
C 	C 	0.05790 0.14720 0.37390 -0.11800
H 	H 	0.10890 0.16970 0.39650 0.07900
C 	C 	0.05250 0.06940 0.35270 0.02800
C 	C 	0.91140 0.07880 0.30490 0.06600
H 	H 	0.86140 0.05560 0.28100 -0.00900
C 	C 	0.91130 0.15550 0.32780 -0.09700
H 	H 	0.86220 0.18280 0.32120 0.07000
C 	C 	0.12660 0.01790 0.36560 0.01700
C 	C 	0.19890 0.03130 0.41820 -0.03700
H 	H 	0.20310 0.07480 0.44680 0.05200
C 	C 	0.26400 0.98160 0.42870 -0.08900
C 	C 	0.25490 0.91380 0.38770 -0.05200
H 	H 	0.29760 0.87750 0.39500 0.03900
C 	C 	0.18160 0.90210 0.33660 0.02500
H 	H 	0.17520 0.85740 0.30920 0.00100
C 	C 	0.95190 0.84720 0.36340 0.01800
H 	H 	0.93880 0.89590 0.37800 0.01400
C 	C 	0.95040 0.78140 0.40290 -0.01600
H 	H 	0.93780 0.78560 0.44400 0.05400
C 	C 	0.96810 0.70990 0.37970 -0.11500
C 	C 	0.98830 0.70480 0.31870 0.03900
H 	H 	0.00110 0.65650 0.30300 -0.01900
C 	C 	0.98870 0.77210 0.28250 0.01800
C 	C 	0.97230 0.63570 0.42200 0.44600
C 	C 	0.34510 0.00010 0.48240 0.39900
C 	C 	0.99080 0.27580 0.38040 0.32200
N 	N 	0.98040 0.03660 0.31560 -0.21500
N 	N 	0.11890 0.95310 0.32500 -0.23900
N 	N 	0.97160 0.84330 0.30420 -0.22700
O 	O 	0.92900 0.31010 0.38790 -0.39900
O 	O 	0.05790 0.31170 0.38920 -0.43500
O 	O 	0.34490 0.04300 0.53270 -0.44000
O 	O 	0.41020 0.97430 0.47480 -0.56000
O 	O 	0.98840 0.57310 0.39510 -0.50000
O 	O 	0.95950 0.64110 0.47920 -0.44900
Eu	Eu	0.49446 0.93773 0.08259 1.79800
C 	C 	0.51280 0.69070 0.13880 -0.02200
C 	C 	0.44210 0.64720 0.12610 -0.07600
H 	H 	0.39110 0.66970 0.10350 0.06800
C 	C 	0.44750 0.56940 0.14730 0.04100
C 	C 	0.58860 0.57880 0.19510 0.05400
H 	H 	0.63860 0.55560 0.21900 -0.00500
C 	C 	0.58870 0.65550 0.17220 -0.08500
H 	H 	0.63780 0.68280 0.17880 0.06500
C 	C 	0.37340 0.51790 0.13440 0.01700
C 	C 	0.30110 0.53130 0.08180 -0.03200
H 	H 	0.29690 0.57480 0.05320 0.05200
C 	C 	0.23600 0.48160 0.07130 -0.09500
C 	C 	0.24510 0.41380 0.11230 -0.04700
H 	H 	0.20240 0.37750 0.10500 0.03500
C 	C 	0.31840 0.40210 0.16340 0.02400
H 	H 	0.32480 0.35740 0.19080 0.00300
C 	C 	0.54810 0.34720 0.13660 0.02400
H 	H 	0.56120 0.39590 0.12200 0.00600
C 	C 	0.54960 0.28140 0.09710 -0.03600
H 	H 	0.56220 0.28560 0.05600 0.05600
C 	C 	0.53190 0.20990 0.12030 -0.09100
C 	C 	0.51170 0.20480 0.18130 -0.03200
H 	H 	0.49890 0.15650 0.19700 0.03100
C 	C 	0.51130 0.27210 0.21750 0.02200
C 	C 	0.52770 0.13570 0.07800 0.43500
C 	C 	0.15490 0.50010 0.01760 0.41000
C 	C 	0.50920 0.77580 0.11960 0.29400
N 	N 	0.51960 0.53660 0.18440 -0.23200
N 	N 	0.38110 0.45310 0.17500 -0.23400
N 	N 	0.52840 0.34330 0.19580 -0.23800
O 	O 	0.57100 0.81010 0.11210 -0.40800
O 	O 	0.44210 0.81170 0.11080 -0.41600
O 	O 	0.15510 0.54300 0.96730 -0.44300
O 	O 	0.08980 0.47430 0.02520 -0.57600
O 	O 	0.51160 0.07310 0.10490 -0.52100
O 	O 	0.54050 0.14110 0.02080 -0.44800
Eu	Eu	0.99446 0.43773 0.08259 1.86200
C 	C 	0.01280 0.19070 0.13880 -0.05600
C 	C 	0.94210 0.14720 0.12610 -0.03700
H 	H 	0.89110 0.16970 0.10350 0.05800
C 	C 	0.94750 0.06940 0.14730 0.05400
C 	C 	0.08860 0.07880 0.19510 0.04200
H 	H 	0.13860 0.05560 0.21900 -0.00300
C 	C 	0.08870 0.15550 0.17220 -0.07300
H 	H 	0.13780 0.18280 0.17880 0.05900
C 	C 	0.87340 0.01790 0.13440 0.02000
C 	C 	0.80110 0.03130 0.08180 -0.03000
H 	H 	0.79690 0.07480 0.05320 0.05200
C 	C 	0.73600 0.98160 0.07130 -0.09300
C 	C 	0.74510 0.91380 0.11230 -0.04700
H 	H 	0.70240 0.87750 0.10500 0.03900
C 	C 	0.81840 0.90210 0.16340 0.02700
H 	H 	0.82480 0.85740 0.19080 0.00600
C 	C 	0.04810 0.84720 0.13660 0.03100
H 	H 	0.06120 0.89590 0.12200 -0.00000
C 	C 	0.04960 0.78140 0.09710 -0.05500
H 	H 	0.06220 0.78560 0.05600 0.05900
C 	C 	0.03190 0.70990 0.12030 -0.06700
C 	C 	0.01170 0.70480 0.18130 -0.10000
H 	H 	0.99890 0.65650 0.19700 0.07900
C 	C 	0.01130 0.77210 0.21750 0.02600
C 	C 	0.02770 0.63570 0.07800 0.42300
C 	C 	0.65490 0.00010 0.01760 0.40500
C 	C 	0.00920 0.27580 0.11960 0.27100
N 	N 	0.01960 0.03660 0.18440 -0.24500
N 	N 	0.88110 0.95310 0.17500 -0.22900
N 	N 	0.02840 0.84330 0.19580 -0.24600
O 	O 	0.07100 0.31010 0.11210 -0.41800
O 	O 	0.94210 0.31170 0.11080 -0.39800
O 	O 	0.65510 0.04300 0.96730 -0.44100
O 	O 	0.58980 0.97430 0.02520 -0.56200
O 	O 	0.01160 0.57310 0.10490 -0.54100
O 	O 	0.04050 0.64110 0.02080 -0.44600
Zn	Zn	0.50000 0.55994 0.75000 1.18100
Zn	Zn	0.00000 0.05994 0.75000 1.17100
Zn	Zn	0.50000 0.44006 0.25000 1.18100
Zn	Zn	0.00000 0.94006 0.25000 1.17200
