data_crystal

_cell_length_a 17.07780
_cell_length_b 16.92840
_cell_length_c 20.33850
_cell_angle_alpha 90.00000
_cell_angle_beta  108.11500
_cell_angle_gamma 90.00000

_symmetry_space_group_name_	'P 1'
_symmetry_space_group_name_H-M	'P 1'

loop_
_symmetry_equiv_pos_as_xyz
  x,y,z

loop_
_atom_site_label
_atom_site_type_symbol
_atom_site_fract_x
_atom_site_fract_y
_atom_site_fract_z
_atom_site_charge
Tb	Tb	0.49445 0.06205 0.58235 1.72500
C 	C 	0.51220 0.30850 0.63850 -0.01700
C 	C 	0.44070 0.35280 0.62470 -0.07800
H 	H 	0.38980 0.33090 0.60100 0.06800
C 	C 	0.44690 0.43070 0.64710 0.03800
C 	C 	0.58800 0.42070 0.69430 0.05400
H 	H 	0.63850 0.44360 0.71800 -0.00500
C 	C 	0.58740 0.34370 0.67150 -0.08800
H 	H 	0.63630 0.31610 0.67830 0.06700
C 	C 	0.37400 0.48230 0.63380 0.02300
C 	C 	0.30110 0.46750 0.58130 -0.04400
H 	H 	0.29620 0.42360 0.55280 0.05400
C 	C 	0.23600 0.51910 0.57210 -0.08200
C 	C 	0.24500 0.58660 0.61280 -0.05500
H 	H 	0.20240 0.62300 0.60600 0.03900
C 	C 	0.31880 0.59780 0.66330 0.02800
H 	H 	0.32570 0.64270 0.69090 0.00200
C 	C 	0.54790 0.65280 0.63680 0.02800
H 	H 	0.56070 0.60380 0.62220 0.00600
C 	C 	0.54930 0.71810 0.59660 -0.03800
H 	H 	0.56260 0.71310 0.55580 0.05700
C 	C 	0.53030 0.79210 0.61870 -0.09300
C 	C 	0.51190 0.79620 0.68130 -0.03000
H 	H 	0.50070 0.84450 0.69800 0.03200
C 	C 	0.51080 0.72770 0.71750 0.02200
C 	C 	0.52810 0.86610 0.57720 0.44100
C 	C 	0.15390 0.50010 0.51840 0.39300
C 	C 	0.50820 0.22260 0.61860 0.28800
N 	N 	0.51940 0.46400 0.68400 -0.23200
N 	N 	0.38180 0.54660 0.67470 -0.23700
N 	N 	0.52880 0.65660 0.69590 -0.23900
O 	O 	0.57060 0.18930 0.61120 -0.39700
O 	O 	0.44150 0.18620 0.61070 -0.40700
O 	O 	0.15350 0.45760 0.46670 -0.42400
O 	O 	0.08920 0.52650 0.52580 -0.56400
O 	O 	0.51130 0.92780 0.60430 -0.51700
O 	O 	0.54090 0.86070 0.51980 -0.44700
Tb	Tb	0.99445 0.56205 0.58235 1.81500
C 	C 	0.01220 0.80850 0.63850 -0.06100
C 	C 	0.94070 0.85280 0.62470 -0.02700
H 	H 	0.88980 0.83090 0.60100 0.05600
C 	C 	0.94690 0.93070 0.64710 0.05600
C 	C 	0.08800 0.92070 0.69430 0.03900
H 	H 	0.13850 0.94360 0.71800 -0.00100
C 	C 	0.08740 0.84370 0.67150 -0.07200
H 	H 	0.13630 0.81610 0.67830 0.06000
C 	C 	0.87400 0.98230 0.63380 0.02900
C 	C 	0.80110 0.96750 0.58130 -0.04500
H 	H 	0.79620 0.92360 0.55280 0.05800
C 	C 	0.73600 0.01910 0.57210 -0.07400
C 	C 	0.74500 0.08660 0.61280 -0.05700
H 	H 	0.70240 0.12300 0.60600 0.04600
C 	C 	0.81880 0.09780 0.66330 0.03400
H 	H 	0.82570 0.14270 0.69090 0.00600
C 	C 	0.04790 0.15280 0.63680 0.01600
H 	H 	0.06070 0.10380 0.62220 0.00400
C 	C 	0.04930 0.21810 0.59660 -0.02800
H 	H 	0.06260 0.21310 0.55580 0.04800
C 	C 	0.03030 0.29210 0.61870 -0.11500
C 	C 	0.01190 0.29620 0.68130 -0.00200
H 	H 	0.00070 0.34450 0.69800 0.00800
C 	C 	0.01080 0.22770 0.71750 -0.03500
C 	C 	0.02810 0.36610 0.57720 0.44900
C 	C 	0.65390 0.00010 0.51840 0.38700
C 	C 	0.00820 0.72260 0.61860 0.25500
N 	N 	0.01940 0.96400 0.68400 -0.24900
N 	N 	0.88180 0.04660 0.67470 -0.23000
N 	N 	0.02880 0.15660 0.69590 -0.23500
O 	O 	0.07060 0.68930 0.61120 -0.41000
O 	O 	0.94150 0.68620 0.61070 -0.38300
O 	O 	0.65350 0.95760 0.46670 -0.42400
O 	O 	0.58920 0.02650 0.52580 -0.54200
O 	O 	0.01130 0.42780 0.60430 -0.54500
O 	O 	0.04090 0.36070 0.51980 -0.45300
Tb	Tb	0.50555 0.06205 0.91765 1.72000
C 	C 	0.48780 0.30850 0.86150 -0.01700
C 	C 	0.55930 0.35280 0.87530 -0.07600
H 	H 	0.61020 0.33090 0.89900 0.06800
C 	C 	0.55310 0.43070 0.85290 0.03800
C 	C 	0.41200 0.42070 0.80570 0.05400
H 	H 	0.36150 0.44360 0.78200 -0.00600
C 	C 	0.41260 0.34370 0.82850 -0.08700
H 	H 	0.36370 0.31610 0.82170 0.06500
C 	C 	0.62600 0.48230 0.86620 0.02800
C 	C 	0.69890 0.46750 0.91870 -0.05000
H 	H 	0.70380 0.42360 0.94720 0.05800
C 	C 	0.76400 0.51910 0.92790 -0.06700
C 	C 	0.75500 0.58660 0.88720 -0.06200
H 	H 	0.79760 0.62300 0.89400 0.05200
C 	C 	0.68120 0.59780 0.83670 0.03500
H 	H 	0.67430 0.64270 0.80910 0.00200
C 	C 	0.45210 0.65280 0.86320 0.02800
H 	H 	0.43930 0.60380 0.87780 0.00500
C 	C 	0.45070 0.71810 0.90340 -0.03800
H 	H 	0.43740 0.71310 0.94420 0.05600
C 	C 	0.46970 0.79210 0.88130 -0.09200
C 	C 	0.48810 0.79620 0.81870 -0.03000
H 	H 	0.49930 0.84450 0.80200 0.03300
C 	C 	0.48920 0.72770 0.78250 0.02200
C 	C 	0.47190 0.86610 0.92280 0.44100
C 	C 	0.84610 0.50010 0.98160 0.38000
C 	C 	0.49180 0.22260 0.88140 0.28800
N 	N 	0.48060 0.46400 0.81600 -0.23200
N 	N 	0.61820 0.54660 0.82530 -0.23800
N 	N 	0.47120 0.65660 0.80410 -0.23900
O 	O 	0.42940 0.18930 0.88880 -0.39900
O 	O 	0.55850 0.18620 0.88930 -0.40700
O 	O 	0.84650 0.45760 0.03330 -0.42600
O 	O 	0.91080 0.52650 0.97420 -0.51800
O 	O 	0.48870 0.92780 0.89570 -0.51400
O 	O 	0.45910 0.86070 0.98020 -0.44700
Tb	Tb	0.00555 0.56205 0.91765 1.63000
C 	C 	0.98780 0.80850 0.86150 0.03100
C 	C 	0.05930 0.85280 0.87530 -0.12900
H 	H 	0.11020 0.83090 0.89900 0.08200
C 	C 	0.05310 0.93070 0.85290 0.02200
C 	C 	0.91200 0.92070 0.80570 0.07100
H 	H 	0.86150 0.94360 0.78200 -0.00800
C 	C 	0.91260 0.84370 0.82850 -0.10300
H 	H 	0.86370 0.81610 0.82170 0.07400
C 	C 	0.12600 0.98230 0.86620 0.02500
C 	C 	0.19890 0.96750 0.91870 -0.04400
H 	H 	0.20380 0.92360 0.94720 0.05400
C 	C 	0.26400 0.01910 0.92790 -0.08000
C 	C 	0.25500 0.08660 0.88720 -0.05800
H 	H 	0.29760 0.12300 0.89400 0.04400
C 	C 	0.18120 0.09780 0.83670 0.02700
H 	H 	0.17430 0.14270 0.80910 -0.00000
C 	C 	0.95210 0.15280 0.86320 0.04100
H 	H 	0.93930 0.10380 0.87780 0.00700
C 	C 	0.95070 0.21810 0.90340 -0.04800
H 	H 	0.93740 0.21310 0.94420 0.06600
C 	C 	0.96970 0.29210 0.88130 -0.07000
C 	C 	0.98810 0.29620 0.81870 -0.05900
H 	H 	0.99930 0.34450 0.80200 0.05700
C 	C 	0.98920 0.22770 0.78250 0.08000
C 	C 	0.97190 0.36610 0.92280 0.43400
C 	C 	0.34610 0.00010 0.98160 0.38100
C 	C 	0.99180 0.72260 0.88140 0.32500
N 	N 	0.98060 0.96400 0.81600 -0.21100
N 	N 	0.11820 0.04660 0.82530 -0.24400
N 	N 	0.97120 0.15660 0.80410 -0.23900
O 	O 	0.92940 0.68930 0.88880 -0.38600
O 	O 	0.05850 0.68620 0.88930 -0.43300
O 	O 	0.34650 0.95760 0.03330 -0.42200
O 	O 	0.41080 0.02650 0.97420 -0.54300
O 	O 	0.98870 0.42780 0.89570 -0.48600
O 	O 	0.95910 0.36070 0.98020 -0.44100
Tb	Tb	0.50555 0.93795 0.41765 1.72500
C 	C 	0.48780 0.69150 0.36150 -0.01700
C 	C 	0.55930 0.64720 0.37530 -0.07600
H 	H 	0.61020 0.66910 0.39900 0.06900
C 	C 	0.55310 0.56930 0.35290 0.03800
C 	C 	0.41200 0.57930 0.30570 0.05400
H 	H 	0.36150 0.55640 0.28200 -0.00600
C 	C 	0.41260 0.65630 0.32850 -0.08700
H 	H 	0.36370 0.68390 0.32170 0.06600
C 	C 	0.62600 0.51770 0.36620 0.02800
C 	C 	0.69890 0.53250 0.41870 -0.05000
H 	H 	0.70380 0.57640 0.44720 0.05800
C 	C 	0.76400 0.48090 0.42790 -0.06800
C 	C 	0.75500 0.41340 0.38720 -0.06200
H 	H 	0.79760 0.37700 0.39400 0.05100
C 	C 	0.68120 0.40220 0.33670 0.03500
H 	H 	0.67430 0.35730 0.30910 0.00200
C 	C 	0.45210 0.34720 0.36320 0.02800
H 	H 	0.43930 0.39620 0.37780 0.00500
C 	C 	0.45070 0.28190 0.40340 -0.03800
H 	H 	0.43740 0.28690 0.44420 0.05700
C 	C 	0.46970 0.20790 0.38130 -0.09200
C 	C 	0.48810 0.20380 0.31870 -0.03000
H 	H 	0.49930 0.15550 0.30200 0.03300
C 	C 	0.48920 0.27230 0.28250 0.02200
C 	C 	0.47190 0.13390 0.42280 0.44100
C 	C 	0.84610 0.49990 0.48160 0.38000
C 	C 	0.49180 0.77740 0.38140 0.28800
N 	N 	0.48060 0.53600 0.31600 -0.23200
N 	N 	0.61820 0.45340 0.32530 -0.23800
N 	N 	0.47120 0.34340 0.30410 -0.23900
O 	O 	0.42940 0.81070 0.38880 -0.39800
O 	O 	0.55850 0.81380 0.38930 -0.40700
O 	O 	0.84650 0.54240 0.53330 -0.42600
O 	O 	0.91080 0.47350 0.47420 -0.52100
O 	O 	0.48870 0.07220 0.39570 -0.51600
O 	O 	0.45910 0.13930 0.48020 -0.44700
Tb	Tb	0.00555 0.43795 0.41765 1.64600
C 	C 	0.98780 0.19150 0.36150 0.02700
C 	C 	0.05930 0.14720 0.37530 -0.12300
H 	H 	0.11020 0.16910 0.39900 0.08100
C 	C 	0.05310 0.06930 0.35290 0.02400
C 	C 	0.91200 0.07930 0.30570 0.06900
H 	H 	0.86150 0.05640 0.28200 -0.00800
C 	C 	0.91260 0.15630 0.32850 -0.10100
H 	H 	0.86370 0.18390 0.32170 0.07400
C 	C 	0.12600 0.01770 0.36620 0.02500
C 	C 	0.19890 0.03250 0.41870 -0.04700
H 	H 	0.20380 0.07640 0.44720 0.05600
C 	C 	0.26400 0.98090 0.42790 -0.07700
C 	C 	0.25500 0.91340 0.38720 -0.05900
H 	H 	0.29760 0.87700 0.39400 0.04500
C 	C 	0.18120 0.90220 0.33670 0.02900
H 	H 	0.17430 0.85730 0.30910 -0.00000
C 	C 	0.95210 0.84720 0.36320 0.04000
H 	H 	0.93930 0.89620 0.37780 0.00700
C 	C 	0.95070 0.78190 0.40340 -0.04600
H 	H 	0.93740 0.78690 0.44420 0.06500
C 	C 	0.96970 0.70790 0.38130 -0.07300
C 	C 	0.98810 0.70380 0.31870 -0.05500
H 	H 	0.99930 0.65550 0.30200 0.05300
C 	C 	0.98920 0.77230 0.28250 0.07100
C 	C 	0.97190 0.63390 0.42280 0.43600
C 	C 	0.34610 0.99990 0.48160 0.38600
C 	C 	0.99180 0.27740 0.38140 0.32200
N 	N 	0.98060 0.03600 0.31600 -0.21300
N 	N 	0.11820 0.95340 0.32530 -0.24300
N 	N 	0.97120 0.84340 0.30410 -0.23900
O 	O 	0.92940 0.31070 0.38880 -0.38700
O 	O 	0.05850 0.31380 0.38930 -0.42900
O 	O 	0.34650 0.04240 0.53330 -0.42500
O 	O 	0.41080 0.97350 0.47420 -0.54200
O 	O 	0.98870 0.57220 0.39570 -0.49000
O 	O 	0.95910 0.63930 0.48020 -0.44300
Tb	Tb	0.49445 0.93795 0.08235 1.72400
C 	C 	0.51220 0.69150 0.13850 -0.01600
C 	C 	0.44070 0.64720 0.12470 -0.07700
H 	H 	0.38980 0.66910 0.10100 0.06900
C 	C 	0.44690 0.56930 0.14710 0.03900
C 	C 	0.58800 0.57930 0.19430 0.05500
H 	H 	0.63850 0.55640 0.21800 -0.00400
C 	C 	0.58740 0.65630 0.17150 -0.08700
H 	H 	0.63630 0.68390 0.17830 0.06800
C 	C 	0.37400 0.51770 0.13380 0.02400
C 	C 	0.30110 0.53250 0.08130 -0.04200
H 	H 	0.29620 0.57640 0.05280 0.05600
C 	C 	0.23600 0.48090 0.07210 -0.08300
C 	C 	0.24500 0.41340 0.11280 -0.05400
H 	H 	0.20240 0.37700 0.10600 0.04000
C 	C 	0.31880 0.40220 0.16330 0.02800
H 	H 	0.32570 0.35730 0.19090 0.00300
C 	C 	0.54790 0.34720 0.13680 0.02900
H 	H 	0.56070 0.39620 0.12220 0.00600
C 	C 	0.54930 0.28190 0.09660 -0.03800
H 	H 	0.56260 0.28690 0.05580 0.05800
C 	C 	0.53030 0.20790 0.11870 -0.09200
C 	C 	0.51190 0.20380 0.18130 -0.03100
H 	H 	0.50070 0.15550 0.19800 0.03300
C 	C 	0.51080 0.27230 0.21750 0.02200
C 	C 	0.52810 0.13390 0.07720 0.44100
C 	C 	0.15390 0.49990 0.01840 0.39900
C 	C 	0.50820 0.77740 0.11860 0.28800
N 	N 	0.51940 0.53600 0.18400 -0.23200
N 	N 	0.38180 0.45340 0.17470 -0.23700
N 	N 	0.52880 0.34340 0.19590 -0.23900
O 	O 	0.57060 0.81070 0.11120 -0.39700
O 	O 	0.44150 0.81380 0.11070 -0.40700
O 	O 	0.15350 0.54240 0.96670 -0.42800
O 	O 	0.08920 0.47350 0.02580 -0.56000
O 	O 	0.51130 0.07220 0.10430 -0.51400
O 	O 	0.54090 0.13930 0.01980 -0.44400
Tb	Tb	0.99445 0.43795 0.08235 1.80200
C 	C 	0.01220 0.19150 0.13850 -0.05500
C 	C 	0.94070 0.14720 0.12470 -0.03400
H 	H 	0.88980 0.16910 0.10100 0.05800
C 	C 	0.94690 0.06930 0.14710 0.05500
C 	C 	0.08800 0.07930 0.19430 0.04100
H 	H 	0.13850 0.05640 0.21800 -0.00100
C 	C 	0.08740 0.15630 0.17150 -0.07400
H 	H 	0.13630 0.18390 0.17830 0.06100
C 	C 	0.87400 0.01770 0.13380 0.02800
C 	C 	0.80110 0.03250 0.08130 -0.03900
H 	H 	0.79620 0.07640 0.05280 0.05600
C 	C 	0.73600 0.98090 0.07210 -0.08000
C 	C 	0.74500 0.91340 0.11280 -0.05500
H 	H 	0.70240 0.87700 0.10600 0.04500
C 	C 	0.81880 0.90220 0.16330 0.03200
H 	H 	0.82570 0.85730 0.19090 0.00600
C 	C 	0.04790 0.84720 0.13680 0.01800
H 	H 	0.06070 0.89620 0.12220 0.00300
C 	C 	0.04930 0.78190 0.09660 -0.03000
H 	H 	0.06260 0.78690 0.05580 0.04900
C 	C 	0.03030 0.70790 0.11870 -0.11100
C 	C 	0.01190 0.70380 0.18130 -0.00600
H 	H 	0.00070 0.65550 0.19800 0.01200
C 	C 	0.01080 0.77230 0.21750 -0.02700
C 	C 	0.02810 0.63390 0.07720 0.44600
C 	C 	0.65390 0.99990 0.01840 0.38700
C 	C 	0.00820 0.27740 0.11860 0.25900
N 	N 	0.01940 0.03600 0.18400 -0.24700
N 	N 	0.88180 0.95340 0.17470 -0.23200
N 	N 	0.02880 0.84340 0.19590 -0.23600
O 	O 	0.07060 0.31070 0.11120 -0.40800
O 	O 	0.94150 0.31380 0.11070 -0.38600
O 	O 	0.65350 0.04240 0.96670 -0.42500
O 	O 	0.58920 0.97350 0.02580 -0.54200
O 	O 	0.01130 0.57220 0.10430 -0.54000
O 	O 	0.04090 0.63930 0.01980 -0.44800
Zn	Zn	0.50000 0.55993 0.75000 1.18300
Zn	Zn	0.00000 0.05993 0.75000 1.17000
Zn	Zn	0.50000 0.44007 0.25000 1.18300
Zn	Zn	-0.00000 0.94007 0.25000 1.17200
