data_crystal

_cell_length_a 17.23160
_cell_length_b 16.75850
_cell_length_c 21.25670
_cell_angle_alpha 90.00000
_cell_angle_beta  106.99600
_cell_angle_gamma 90.00000

_symmetry_space_group_name_	'P 1'
_symmetry_space_group_name_H-M	'P 1'

loop_
_symmetry_equiv_pos_as_xyz
  x,y,z

loop_
_atom_site_label
_atom_site_type_symbol
_atom_site_fract_x
_atom_site_fract_y
_atom_site_fract_z
_atom_site_charge
Tb	Tb	0.47942 0.56529 0.57109 1.73400
C 	C 	0.31620 0.09240 0.67800 0.01900
H 	H 	0.32280 0.13770 0.70430 0.00300
C 	C 	0.23930 0.07730 0.63200 -0.03600
H 	H 	0.19530 0.11060 0.62950 0.03100
C 	C 	0.23170 0.01340 0.59180 -0.09600
C 	C 	0.30000 0.96520 0.59660 -0.03700
H 	H 	0.29670 0.92300 0.56750 0.05600
C 	C 	0.37160 0.98050 0.64410 0.02200
C 	C 	0.15580 0.99260 0.53820 0.41300
C 	C 	0.44490 0.93150 0.65240 0.04200
C 	C 	0.43860 0.85280 0.62600 -0.07600
H 	H 	0.38830 0.83040 0.60530 0.07000
C 	C 	0.50890 0.81100 0.63210 -0.02300
C 	C 	0.58400 0.84800 0.66310 -0.08600
H 	H 	0.63270 0.82220 0.66600 0.06600
C 	C 	0.58330 0.92330 0.68900 0.05500
H 	H 	0.63270 0.94710 0.71040 -0.00400
C 	C 	0.50340 0.72730 0.60860 0.28700
C 	C 	0.53290 0.15430 0.63560 0.03500
H 	H 	0.54180 0.10450 0.61950 0.00200
C 	C 	0.53170 0.21980 0.59670 -0.04600
H 	H 	0.54160 0.21510 0.55620 0.06100
C 	C 	0.51560 0.29220 0.61950 -0.08300
C 	C 	0.50350 0.29910 0.67950 -0.03400
H 	H 	0.49360 0.34870 0.69530 0.03300
C 	C 	0.50610 0.22970 0.71740 0.02100
C 	C 	0.51150 0.36860 0.57670 0.46000
N 	N 	0.37900 0.04360 0.68460 -0.23200
N 	N 	0.51520 0.96400 0.68490 -0.23600
N 	N 	0.52210 0.15790 0.69500 -0.24100
O 	O 	0.15910 0.94380 0.49560 -0.44800
O 	O 	0.08990 0.02670 0.53840 -0.56200
O 	O 	0.53260 0.36050 0.52570 -0.45900
O 	O 	0.48950 0.42960 0.59810 -0.53100
O 	O 	0.43540 0.69250 0.59710 -0.42100
O 	O 	0.56470 0.69200 0.60160 -0.37600
Tb	Tb	0.97942 0.06529 0.57109 1.78500
C 	C 	0.81620 0.59240 0.67800 0.02500
H 	H 	0.82280 0.63770 0.70430 0.00700
C 	C 	0.73930 0.57730 0.63200 -0.03600
H 	H 	0.69530 0.61060 0.62950 0.03700
C 	C 	0.73170 0.51340 0.59180 -0.09000
C 	C 	0.80000 0.46520 0.59660 -0.03800
H 	H 	0.79670 0.42300 0.56750 0.05800
C 	C 	0.87160 0.48050 0.64410 0.02300
C 	C 	0.65580 0.49260 0.53820 0.40800
C 	C 	0.94490 0.43150 0.65240 0.05900
C 	C 	0.93860 0.35280 0.62600 -0.03400
H 	H 	0.88830 0.33040 0.60530 0.06000
C 	C 	0.00890 0.31100 0.63210 -0.06000
C 	C 	0.08400 0.34800 0.66310 -0.07500
H 	H 	0.13270 0.32220 0.66600 0.06000
C 	C 	0.08330 0.42330 0.68900 0.04200
H 	H 	0.13270 0.44710 0.71040 -0.00200
C 	C 	0.00340 0.22730 0.60860 0.26000
C 	C 	0.03290 0.65430 0.63560 0.04900
H 	H 	0.04180 0.60450 0.61950 -0.00800
C 	C 	0.03170 0.71980 0.59670 -0.07800
H 	H 	0.04160 0.71510 0.55620 0.06700
C 	C 	0.01560 0.79220 0.61950 -0.04100
C 	C 	0.00350 0.79910 0.67950 -0.11800
H 	H 	0.99360 0.84870 0.69530 0.08700
C 	C 	0.00610 0.72970 0.71740 0.02600
C 	C 	0.01150 0.86860 0.57670 0.40300
N 	N 	0.87900 0.54360 0.68460 -0.22500
N 	N 	0.01520 0.46400 0.68490 -0.25200
N 	N 	0.02210 0.65790 0.69500 -0.25100
O 	O 	0.65910 0.44380 0.49560 -0.44800
O 	O 	0.58990 0.52670 0.53840 -0.54400
O 	O 	0.03260 0.86050 0.52570 -0.45000
O 	O 	0.98950 0.92960 0.59810 -0.49500
O 	O 	0.93540 0.19250 0.59710 -0.39900
O 	O 	0.06470 0.19200 0.60160 -0.38400
Tb	Tb	0.52058 0.56529 0.92891 1.73500
C 	C 	0.68380 0.09240 0.82200 0.02400
H 	H 	0.67720 0.13770 0.79570 0.00500
C 	C 	0.76070 0.07730 0.86800 -0.03800
H 	H 	0.80470 0.11060 0.87050 0.04100
C 	C 	0.76830 0.01340 0.90820 -0.08900
C 	C 	0.70000 0.96520 0.90340 -0.03900
H 	H 	0.70330 0.92300 0.93250 0.05800
C 	C 	0.62840 0.98050 0.85590 0.02400
C 	C 	0.84420 0.99260 0.96180 0.40800
C 	C 	0.55510 0.93150 0.84760 0.04200
C 	C 	0.56140 0.85280 0.87400 -0.07600
H 	H 	0.61170 0.83040 0.89470 0.07000
C 	C 	0.49110 0.81100 0.86790 -0.02300
C 	C 	0.41600 0.84800 0.83690 -0.08600
H 	H 	0.36730 0.82220 0.83400 0.06400
C 	C 	0.41670 0.92330 0.81100 0.05400
H 	H 	0.36730 0.94710 0.78960 -0.00600
C 	C 	0.49660 0.72730 0.89140 0.28700
C 	C 	0.46710 0.15430 0.86440 0.03500
H 	H 	0.45820 0.10450 0.88050 0.00100
C 	C 	0.46830 0.21980 0.90330 -0.04600
H 	H 	0.45840 0.21510 0.94380 0.06000
C 	C 	0.48440 0.29220 0.88050 -0.08300
C 	C 	0.49650 0.29910 0.82050 -0.03300
H 	H 	0.50640 0.34870 0.80470 0.03300
C 	C 	0.49390 0.22970 0.78260 0.02100
C 	C 	0.48850 0.36860 0.92330 0.46000
N 	N 	0.62100 0.04360 0.81540 -0.23300
N 	N 	0.48480 0.96400 0.81510 -0.23500
N 	N 	0.47790 0.15790 0.80500 -0.24100
O 	O 	0.84090 0.94380 0.00440 -0.45300
O 	O 	0.91010 0.02670 0.96160 -0.52900
O 	O 	0.46740 0.36050 0.97430 -0.46100
O 	O 	0.51050 0.42960 0.90190 -0.53100
O 	O 	0.56460 0.69250 0.90290 -0.42000
O 	O 	0.43530 0.69200 0.89840 -0.37800
Tb	Tb	0.02058 0.06529 0.92891 1.68300
C 	C 	0.18380 0.59240 0.82200 0.02200
H 	H 	0.17720 0.63770 0.79570 0.00200
C 	C 	0.26070 0.57730 0.86800 -0.04000
H 	H 	0.30470 0.61060 0.87050 0.03700
C 	C 	0.26830 0.51340 0.90820 -0.09000
C 	C 	0.20000 0.46520 0.90340 -0.04300
H 	H 	0.20330 0.42300 0.93250 0.05600
C 	C 	0.12840 0.48050 0.85590 0.02200
C 	C 	0.34420 0.49260 0.96180 0.40400
C 	C 	0.05510 0.43150 0.84760 0.02500
C 	C 	0.06140 0.35280 0.87400 -0.12000
H 	H 	0.11170 0.33040 0.89470 0.08100
C 	C 	0.99110 0.31100 0.86790 0.01600
C 	C 	0.91600 0.34800 0.83690 -0.09800
H 	H 	0.86730 0.32220 0.83400 0.07100
C 	C 	0.91670 0.42330 0.81100 0.06700
H 	H 	0.86730 0.44710 0.78960 -0.00800
C 	C 	0.99660 0.22730 0.89140 0.31600
C 	C 	0.96710 0.65430 0.86440 0.02200
H 	H 	0.95820 0.60450 0.88050 0.01300
C 	C 	0.96830 0.71980 0.90330 -0.01300
H 	H 	0.95840 0.71510 0.94380 0.05500
C 	C 	0.98440 0.79220 0.88050 -0.12400
C 	C 	0.99650 0.79910 0.82050 0.05300
H 	H 	0.00640 0.84870 0.80470 -0.02100
C 	C 	0.99390 0.72970 0.78260 0.01700
C 	C 	0.98850 0.86860 0.92330 0.51900
N 	N 	0.12100 0.54360 0.81540 -0.23700
N 	N 	0.98480 0.46400 0.81510 -0.21700
N 	N 	0.97790 0.65790 0.80500 -0.22800
O 	O 	0.34090 0.44380 0.00440 -0.44700
O 	O 	0.41010 0.52670 0.96160 -0.54500
O 	O 	0.96740 0.86050 0.97430 -0.46800
O 	O 	0.01050 0.92960 0.90190 -0.56700
O 	O 	0.06460 0.19250 0.90290 -0.44300
O 	O 	0.93530 0.19200 0.89840 -0.36900
Tb	Tb	0.52058 0.43471 0.42891 1.73600
C 	C 	0.68380 0.90760 0.32200 0.02500
H 	H 	0.67720 0.86230 0.29570 0.00400
C 	C 	0.76070 0.92270 0.36800 -0.04000
H 	H 	0.80470 0.88940 0.37050 0.04100
C 	C 	0.76830 0.98660 0.40820 -0.08500
C 	C 	0.70000 0.03480 0.40340 -0.04200
H 	H 	0.70330 0.07700 0.43250 0.05900
C 	C 	0.62840 0.01950 0.35590 0.02400
C 	C 	0.84420 0.00740 0.46180 0.40400
C 	C 	0.55510 0.06850 0.34760 0.04100
C 	C 	0.56140 0.14720 0.37400 -0.07600
H 	H 	0.61170 0.16960 0.39470 0.07000
C 	C 	0.49110 0.18900 0.36790 -0.02300
C 	C 	0.41600 0.15200 0.33690 -0.08600
H 	H 	0.36730 0.17780 0.33400 0.06400
C 	C 	0.41670 0.07670 0.31100 0.05400
H 	H 	0.36730 0.05290 0.28960 -0.00600
C 	C 	0.49660 0.27270 0.39140 0.28700
C 	C 	0.46710 0.84570 0.36440 0.03500
H 	H 	0.45820 0.89550 0.38050 0.00200
C 	C 	0.46830 0.78020 0.40330 -0.04600
H 	H 	0.45840 0.78490 0.44380 0.06100
C 	C 	0.48440 0.70780 0.38050 -0.08200
C 	C 	0.49650 0.70090 0.32050 -0.03300
H 	H 	0.50640 0.65130 0.30470 0.03300
C 	C 	0.49390 0.77030 0.28260 0.02100
C 	C 	0.48850 0.63140 0.42330 0.46000
N 	N 	0.62100 0.95640 0.31540 -0.23300
N 	N 	0.48480 0.03600 0.31510 -0.23600
N 	N 	0.47790 0.84210 0.30500 -0.24100
O 	O 	0.84090 0.05620 0.50440 -0.45100
O 	O 	0.91010 0.97330 0.46160 -0.52900
O 	O 	0.46740 0.63950 0.47430 -0.45900
O 	O 	0.51050 0.57040 0.40190 -0.53100
O 	O 	0.56460 0.30750 0.40290 -0.42000
O 	O 	0.43530 0.30800 0.39840 -0.37700
Tb	Tb	0.02058 0.93471 0.42891 1.69000
C 	C 	0.18380 0.40760 0.32200 0.02100
H 	H 	0.17720 0.36230 0.29570 0.00200
C 	C 	0.26070 0.42270 0.36800 -0.03900
H 	H 	0.30470 0.38940 0.37050 0.03700
C 	C 	0.26830 0.48660 0.40820 -0.09100
C 	C 	0.20000 0.53480 0.40340 -0.04200
H 	H 	0.20330 0.57700 0.43250 0.05700
C 	C 	0.12840 0.51950 0.35590 0.02200
C 	C 	0.34420 0.50740 0.46180 0.40700
C 	C 	0.05510 0.56850 0.34760 0.02700
C 	C 	0.06140 0.64720 0.37400 -0.11700
H 	H 	0.11170 0.66960 0.39470 0.08100
C 	C 	0.99110 0.68900 0.36790 0.01400
C 	C 	0.91600 0.65200 0.33690 -0.09700
H 	H 	0.86730 0.67780 0.33400 0.07100
C 	C 	0.91670 0.57670 0.31100 0.06600
H 	H 	0.86730 0.55290 0.28960 -0.00800
C 	C 	0.99660 0.77270 0.39140 0.31400
C 	C 	0.96710 0.34570 0.36440 0.02300
H 	H 	0.95820 0.39550 0.38050 0.01300
C 	C 	0.96830 0.28020 0.40330 -0.01500
H 	H 	0.95840 0.28490 0.44380 0.05600
C 	C 	0.98440 0.20780 0.38050 -0.12100
C 	C 	0.99650 0.20090 0.32050 0.04700
H 	H 	0.00640 0.15130 0.30470 -0.01700
C 	C 	0.99390 0.27030 0.28260 0.01700
C 	C 	0.98850 0.13140 0.42330 0.51600
N 	N 	0.12100 0.45640 0.31540 -0.23600
N 	N 	0.98480 0.53600 0.31510 -0.21800
N 	N 	0.97790 0.34210 0.30500 -0.22900
O 	O 	0.34090 0.55620 0.50440 -0.45000
O 	O 	0.41010 0.47330 0.46160 -0.54500
O 	O 	0.96740 0.13950 0.47430 -0.46800
O 	O 	0.01050 0.07040 0.40190 -0.56600
O 	O 	0.06460 0.80750 0.40290 -0.44100
O 	O 	0.93530 0.80800 0.39840 -0.37000
Tb	Tb	0.47942 0.43471 0.07109 1.73700
C 	C 	0.31620 0.90760 0.17800 0.01900
H 	H 	0.32280 0.86230 0.20430 0.00500
C 	C 	0.23930 0.92270 0.13200 -0.03200
H 	H 	0.19530 0.88940 0.12950 0.03200
C 	C 	0.23170 0.98660 0.09180 -0.10100
C 	C 	0.30000 0.03480 0.09660 -0.03400
H 	H 	0.29670 0.07700 0.06750 0.05600
C 	C 	0.37160 0.01950 0.14410 0.02100
C 	C 	0.15580 0.00740 0.03820 0.42100
C 	C 	0.44490 0.06850 0.15240 0.04300
C 	C 	0.43860 0.14720 0.12600 -0.07700
H 	H 	0.38830 0.16960 0.10530 0.07000
C 	C 	0.50890 0.18900 0.13210 -0.02200
C 	C 	0.58400 0.15200 0.16310 -0.08600
H 	H 	0.63270 0.17780 0.16600 0.06600
C 	C 	0.58330 0.07670 0.18900 0.05500
H 	H 	0.63270 0.05290 0.21040 -0.00400
C 	C 	0.50340 0.27270 0.10860 0.28700
C 	C 	0.53290 0.84570 0.13560 0.03500
H 	H 	0.54180 0.89550 0.11950 0.00200
C 	C 	0.53170 0.78020 0.09670 -0.04600
H 	H 	0.54160 0.78490 0.05620 0.06100
C 	C 	0.51560 0.70780 0.11950 -0.08300
C 	C 	0.50350 0.70090 0.17950 -0.03400
H 	H 	0.49360 0.65130 0.19530 0.03300
C 	C 	0.50610 0.77030 0.21740 0.02100
C 	C 	0.51150 0.63140 0.07670 0.46000
N 	N 	0.37900 0.95640 0.18460 -0.23200
N 	N 	0.51520 0.03600 0.18490 -0.23600
N 	N 	0.52210 0.84210 0.19500 -0.24100
O 	O 	0.15910 0.05620 0.99560 -0.45400
O 	O 	0.08990 0.97330 0.03840 -0.56200
O 	O 	0.53260 0.63950 0.02570 -0.45900
O 	O 	0.48950 0.57040 0.09810 -0.53100
O 	O 	0.43540 0.30750 0.09710 -0.42100
O 	O 	0.56470 0.30800 0.10160 -0.37600
Tb	Tb	0.97942 0.93471 0.07109 1.78000
C 	C 	0.81620 0.40760 0.17800 0.02500
H 	H 	0.82280 0.36230 0.20430 0.00700
C 	C 	0.73930 0.42270 0.13200 -0.03600
H 	H 	0.69530 0.38940 0.12950 0.03700
C 	C 	0.73170 0.48660 0.09180 -0.09000
C 	C 	0.80000 0.53480 0.09660 -0.03800
H 	H 	0.79670 0.57700 0.06750 0.05800
C 	C 	0.87160 0.51950 0.14410 0.02300
C 	C 	0.65580 0.50740 0.03820 0.40900
C 	C 	0.94490 0.56850 0.15240 0.05800
C 	C 	0.93860 0.64720 0.12600 -0.03800
H 	H 	0.88830 0.66960 0.10530 0.06000
C 	C 	0.00890 0.68900 0.13210 -0.05600
C 	C 	0.08400 0.65200 0.16310 -0.07600
H 	H 	0.13270 0.67780 0.16600 0.06000
C 	C 	0.08330 0.57670 0.18900 0.04300
H 	H 	0.13270 0.55290 0.21040 -0.00300
C 	C 	0.00340 0.77270 0.10860 0.26200
C 	C 	0.03290 0.34570 0.13560 0.04800
H 	H 	0.04180 0.39550 0.11950 -0.00700
C 	C 	0.03170 0.28020 0.09670 -0.07600
H 	H 	0.04160 0.28490 0.05620 0.06700
C 	C 	0.01560 0.20780 0.11950 -0.04400
C 	C 	0.00350 0.20090 0.17950 -0.11200
H 	H 	0.99360 0.15130 0.19530 0.08200
C 	C 	0.00610 0.27030 0.21740 0.02600
C 	C 	0.01150 0.13140 0.07670 0.40700
N 	N 	0.87900 0.45640 0.18460 -0.22600
N 	N 	0.01520 0.53600 0.18490 -0.25000
N 	N 	0.02210 0.34210 0.19500 -0.25000
O 	O 	0.65910 0.55620 0.99560 -0.44900
O 	O 	0.58990 0.47330 0.03840 -0.54400
O 	O 	0.03260 0.13950 0.02570 -0.44800
O 	O 	0.98950 0.07040 0.09810 -0.49700
O 	O 	0.93540 0.80750 0.09710 -0.40200
O 	O 	0.06470 0.80800 0.10160 -0.38400
Zn	Zn	0.50000 0.05995 0.75000 1.18200
Zn	Zn	0.00000 0.55995 0.75000 1.17200
Zn	Zn	0.50000 0.94005 0.25000 1.18200
Zn	Zn	0.00000 0.44005 0.25000 1.17300
