data_crystal

_cell_length_a 8.52300
_cell_length_b 28.62800
_cell_length_c 9.30600
_cell_angle_alpha 90.00000
_cell_angle_beta  96.49700
_cell_angle_gamma 90.00000

_symmetry_space_group_name_	'P 1'
_symmetry_space_group_name_H-M	'P 1'

loop_
_symmetry_equiv_pos_as_xyz
  x,y,z

loop_
_atom_site_label
_atom_site_type_symbol
_atom_site_fract_x
_atom_site_fract_y
_atom_site_fract_z
_atom_site_charge
C 	C 	0.23310 0.24424 0.60210 0.28200
C 	C 	0.38790 0.26479 0.67780 0.25500
C 	C 	0.03340 0.02549 0.50510 0.27400
C 	C 	0.03310 0.02505 0.00010 0.26900
O 	O 	0.17400 0.21034 0.66160 -0.42100
O 	O 	0.43500 0.24997 0.80040 -0.36200
O 	O 	0.17330 0.26405 0.48790 -0.40700
O 	O 	0.45400 0.29508 0.60810 -0.37600
O 	O 	0.12120 0.03761 0.41300 -0.41700
O 	O 	0.14540 0.03445 0.09360 -0.44500
O 	O 	0.98830 0.05059 0.60450 -0.41000
O 	O 	0.96780 0.05261 0.90730 -0.44200
O 	O 	0.44870 0.03309 0.64600 -0.50200
O 	O 	0.55510 0.95960 0.71480 -0.50200
O 	O 	0.31630 0.96229 0.54750 -0.48100
O 	O 	0.30280 0.98262 0.79310 -0.35500
O 	O 	0.59390 0.14764 0.89560 -0.51100
O 	O 	0.49870 0.16504 0.65400 -0.41800
O 	O 	0.76500 0.18906 0.74810 -0.28100
O 	O 	0.71050 0.10822 0.70470 -0.53200
S 	S 	0.40176 0.98418 0.67652 0.75800
S 	S 	0.64471 0.15272 0.74903 0.77200
Nd	Nd	0.74752 0.02480 0.71568 2.31100
Nd	Nd	0.31929 0.17387 0.87168 1.93700
C 	C 	0.76690 0.74424 0.89790 0.28500
C 	C 	0.61210 0.76479 0.82220 0.25500
C 	C 	0.96660 0.52549 0.99490 0.27400
C 	C 	0.96690 0.52505 0.49990 0.26900
O 	O 	0.82600 0.71034 0.83840 -0.42100
O 	O 	0.56500 0.74997 0.69960 -0.36200
O 	O 	0.82670 0.76405 0.01210 -0.40800
O 	O 	0.54600 0.79508 0.89190 -0.37500
O 	O 	0.87880 0.53761 0.08700 -0.41600
O 	O 	0.85460 0.53445 0.40640 -0.44500
O 	O 	0.01170 0.55059 0.89550 -0.40900
O 	O 	0.03220 0.55261 0.59270 -0.44100
O 	O 	0.55130 0.53309 0.85400 -0.50100
O 	O 	0.44490 0.45960 0.78520 -0.50300
O 	O 	0.68370 0.46229 0.95250 -0.48100
O 	O 	0.69720 0.48262 0.70690 -0.35600
O 	O 	0.40610 0.64764 0.60440 -0.51100
O 	O 	0.50130 0.66504 0.84600 -0.41800
O 	O 	0.23500 0.68906 0.75190 -0.28000
O 	O 	0.28950 0.60822 0.79530 -0.53200
S 	S 	0.59824 0.48418 0.82348 0.75800
S 	S 	0.35529 0.65272 0.75097 0.77100
Nd	Nd	0.25248 0.52480 0.78432 2.31100
Nd	Nd	0.68071 0.67387 0.62832 1.93800
C 	C 	0.76690 0.75576 0.39790 0.28300
C 	C 	0.61210 0.73521 0.32220 0.25600
C 	C 	0.96660 0.97451 0.49490 0.27500
C 	C 	0.96690 0.97495 0.99990 0.27000
O 	O 	0.82600 0.78966 0.33840 -0.42100
O 	O 	0.56500 0.75003 0.19960 -0.36200
O 	O 	0.82670 0.73595 0.51210 -0.40700
O 	O 	0.54600 0.70492 0.39190 -0.37600
O 	O 	0.87880 0.96239 0.58700 -0.41700
O 	O 	0.85460 0.96555 0.90640 -0.44500
O 	O 	0.01170 0.94941 0.39550 -0.41000
O 	O 	0.03220 0.94739 0.09270 -0.44200
O 	O 	0.55130 0.96691 0.35400 -0.50200
O 	O 	0.44490 0.04040 0.28520 -0.50200
O 	O 	0.68370 0.03771 0.45250 -0.48100
O 	O 	0.69720 0.01738 0.20690 -0.35500
O 	O 	0.40610 0.85236 0.10440 -0.51100
O 	O 	0.50130 0.83496 0.34600 -0.41800
O 	O 	0.23500 0.81094 0.25190 -0.28100
O 	O 	0.28950 0.89178 0.29530 -0.53200
S 	S 	0.59824 0.01582 0.32348 0.75800
S 	S 	0.35529 0.84728 0.25097 0.77200
Nd	Nd	0.25248 0.97520 0.28432 2.31100
Nd	Nd	0.68071 0.82613 0.12832 1.93700
C 	C 	0.23310 0.25576 0.10210 0.28500
C 	C 	0.38790 0.23521 0.17780 0.25500
C 	C 	0.03340 0.47451 0.00510 0.27400
C 	C 	0.03310 0.47495 0.50010 0.26900
O 	O 	0.17400 0.28966 0.16160 -0.42100
O 	O 	0.43500 0.25003 0.30040 -0.36200
O 	O 	0.17330 0.23595 0.98790 -0.40800
O 	O 	0.45400 0.20492 0.10810 -0.37500
O 	O 	0.12120 0.46239 0.91300 -0.41600
O 	O 	0.14540 0.46555 0.59360 -0.44500
O 	O 	0.98830 0.44941 0.10450 -0.40900
O 	O 	0.96780 0.44739 0.40730 -0.44100
O 	O 	0.44870 0.46691 0.14600 -0.50100
O 	O 	0.55510 0.54040 0.21480 -0.50300
O 	O 	0.31630 0.53771 0.04750 -0.48100
O 	O 	0.30280 0.51738 0.29310 -0.35600
O 	O 	0.59390 0.35236 0.39560 -0.51100
O 	O 	0.49870 0.33496 0.15400 -0.41800
O 	O 	0.76500 0.31094 0.24810 -0.28000
O 	O 	0.71050 0.39178 0.20470 -0.53200
S 	S 	0.40176 0.51582 0.17652 0.75800
S 	S 	0.64471 0.34728 0.24903 0.77100
Nd	Nd	0.74752 0.47520 0.21568 2.31100
Nd	Nd	0.31929 0.32613 0.37168 1.93800
