data_crystal

_cell_length_a 25.61800
_cell_length_b 17.04000
_cell_length_c 4.43220
_cell_angle_alpha 90.00000
_cell_angle_beta  99.96000
_cell_angle_gamma 90.00000

_symmetry_space_group_name_	'P 1'
_symmetry_space_group_name_H-M	'P 1'

loop_
_symmetry_equiv_pos_as_xyz
  x,y,z

loop_
_atom_site_label
_atom_site_type_symbol
_atom_site_fract_x
_atom_site_fract_y
_atom_site_fract_z
_atom_site_charge
Cu	Cu	0.46865 0.39272 0.29599 0.92100
O 	O 	0.50620 0.28520 0.34900 -0.15500
P 	P 	0.37850 0.37176 0.71590 0.41700
O 	O 	0.42700 0.34410 0.93870 -0.31800
O 	O 	0.39580 0.41920 0.45200 -0.46700
O 	O 	0.33880 0.41840 0.86310 -0.34100
C 	C 	0.34800 0.28190 0.55660 -0.06100
C 	C 	0.36690 0.21080 0.66800 0.00900
H 	H 	0.39600 0.20910 0.82600 0.07600
C 	C 	0.34360 0.13990 0.54900 -0.07900
H 	H 	0.35610 0.09210 0.63400 0.08400
C 	C 	0.30150 0.14220 0.30400 0.03800
C 	C 	0.28050 0.21250 0.19300 -0.09400
H 	H 	0.25140 0.21380 0.03560 0.05100
C 	C 	0.30340 0.28300 0.32100 0.00500
H 	H 	0.28880 0.33090 0.24920 0.02100
C 	C 	0.27840 0.06580 0.16400 0.03700
N 	N 	0.23820 0.06990 0.92880 -0.08100
O 	O 	0.01460 0.07500 0.66270 -0.35600
C 	C 	0.15300 0.06940 0.43400 -0.12600
H 	H 	0.16880 0.11660 0.50480 0.09800
C 	C 	0.10840 0.06960 0.20600 0.07200
H 	H 	0.09520 0.11700 0.12020 0.00400
O 	O 	0.48380 0.28560 0.49300 -0.12500
Cu	Cu	0.96865 0.89272 0.29599 0.91600
O 	O 	0.00620 0.78520 0.34900 -0.10400
P 	P 	0.87850 0.87176 0.71590 0.41800
O 	O 	0.92700 0.84410 0.93870 -0.32000
O 	O 	0.89580 0.91920 0.45200 -0.45700
O 	O 	0.83880 0.91840 0.86310 -0.33000
C 	C 	0.84800 0.78190 0.55660 -0.06100
C 	C 	0.86690 0.71080 0.66800 0.01100
H 	H 	0.89600 0.70910 0.82600 0.07500
C 	C 	0.84360 0.63990 0.54900 -0.08000
H 	H 	0.85610 0.59210 0.63400 0.08700
C 	C 	0.80150 0.64220 0.30400 0.03900
C 	C 	0.78050 0.71250 0.19300 -0.09400
H 	H 	0.75140 0.71380 0.03560 0.05200
C 	C 	0.80340 0.78300 0.32100 0.00400
H 	H 	0.78880 0.83090 0.24920 0.02400
C 	C 	0.77840 0.56580 0.16400 0.03900
N 	N 	0.73820 0.56990 0.92880 -0.08200
O 	O 	0.51460 0.57500 0.66270 -0.36900
C 	C 	0.65300 0.56940 0.43400 -0.13100
H 	H 	0.66880 0.61660 0.50480 0.10000
C 	C 	0.60840 0.56960 0.20600 0.06700
H 	H 	0.59520 0.61700 0.12020 0.00400
O 	O 	0.98380 0.78560 0.49300 -0.17100
Cu	Cu	0.46865 0.60728 0.29599 0.92000
O 	O 	0.50620 0.71480 0.34900 -0.15200
P 	P 	0.37850 0.62824 0.71590 0.41700
O 	O 	0.42700 0.65590 0.93870 -0.31700
O 	O 	0.39580 0.58080 0.45200 -0.46700
O 	O 	0.33880 0.58160 0.86310 -0.34100
C 	C 	0.34800 0.71810 0.55660 -0.06000
C 	C 	0.36690 0.78920 0.66800 0.00900
H 	H 	0.39600 0.79090 0.82600 0.08000
C 	C 	0.34360 0.86010 0.54900 -0.07500
H 	H 	0.35610 0.90790 0.63400 0.09400
C 	C 	0.30150 0.85780 0.30400 0.03400
C 	C 	0.28050 0.78750 0.19300 -0.09000
H 	H 	0.25140 0.78620 0.03560 0.05100
C 	C 	0.30340 0.71700 0.32100 0.00300
H 	H 	0.28880 0.66910 0.24920 0.02200
C 	C 	0.27840 0.93420 0.16400 0.06600
N 	N 	0.23820 0.93010 0.92880 -0.07200
O 	O 	0.01460 0.92500 0.66270 -0.33700
C 	C 	0.15300 0.93060 0.43400 -0.10100
H 	H 	0.16880 0.88340 0.50480 0.09300
C 	C 	0.10840 0.93040 0.20600 0.09600
H 	H 	0.09520 0.88300 0.12020 -0.00100
O 	O 	0.48380 0.71440 0.49300 -0.12200
Cu	Cu	0.96865 0.10728 0.29599 0.91100
O 	O 	0.00620 0.21480 0.34900 -0.10500
P 	P 	0.87850 0.12824 0.71590 0.41800
O 	O 	0.92700 0.15590 0.93870 -0.32200
O 	O 	0.89580 0.08080 0.45200 -0.47300
O 	O 	0.83880 0.08160 0.86310 -0.34800
C 	C 	0.84800 0.21810 0.55660 -0.06300
C 	C 	0.86690 0.28920 0.66800 0.01200
H 	H 	0.89600 0.29090 0.82600 0.07500
C 	C 	0.84360 0.36010 0.54900 -0.08100
H 	H 	0.85610 0.40790 0.63400 0.08700
C 	C 	0.80150 0.35780 0.30400 0.03900
C 	C 	0.78050 0.28750 0.19300 -0.09600
H 	H 	0.75140 0.28620 0.03560 0.05000
C 	C 	0.80340 0.21700 0.32100 0.00600
H 	H 	0.78880 0.16910 0.24920 0.01800
C 	C 	0.77840 0.43420 0.16400 0.03900
N 	N 	0.73820 0.43010 0.92880 -0.08200
O 	O 	0.51460 0.42500 0.66270 -0.37000
C 	C 	0.65300 0.43060 0.43400 -0.13100
H 	H 	0.66880 0.38340 0.50480 0.09800
C 	C 	0.60840 0.43040 0.20600 0.06700
H 	H 	0.59520 0.38300 0.12020 0.00300
O 	O 	0.98380 0.21440 0.49300 -0.17000
Cu	Cu	0.36046 0.50000 0.16950 0.87900
Cu	Cu	0.86046 0.00000 0.16950 0.86700
N 	N 	0.30080 -0.00000 0.28500 -0.14200
C 	C 	0.21850 0.00000 0.81600 0.09500
P 	P 	0.01862 0.00000 0.84820 0.52300
O 	O 	0.97850 0.00000 0.06900 -0.56100
C 	C 	0.17340 -0.00000 0.55400 0.05000
C 	C 	0.08350 0.00000 0.10300 -0.19800
N 	N 	0.80080 0.50000 0.28500 -0.12400
C 	C 	0.71850 0.50000 0.81600 0.11100
P 	P 	0.51862 0.50000 0.84820 0.52300
O 	O 	0.47850 0.50000 0.06900 -0.53100
C 	C 	0.67340 0.50000 0.55400 0.07900
C 	C 	0.58350 0.50000 0.10300 -0.17000
