data_crystal

_cell_length_a 13.39500
_cell_length_b 13.51190
_cell_length_c 17.62000
_cell_angle_alpha 90.00000
_cell_angle_beta  90.00000
_cell_angle_gamma 90.00000

_symmetry_space_group_name_	'P 1'
_symmetry_space_group_name_H-M	'P 1'

loop_
_symmetry_equiv_pos_as_xyz
  x,y,z

loop_
_atom_site_label
_atom_site_type_symbol
_atom_site_fract_x
_atom_site_fract_y
_atom_site_fract_z
_atom_site_charge
Co	Co	0.23366 0.48936 0.42449 1.17600
O 	O 	0.12640 0.55930 0.58900 -0.46000
C 	C 	0.06840 0.55750 0.53030 0.36000
Co	Co	0.26945 0.50904 0.58330 1.16900
O 	O 	0.09820 0.53100 0.46720 -0.46200
C 	C 	0.80450 0.82010 0.51800 0.43600
O 	O 	0.77480 0.86460 0.57560 -0.49700
C 	C 	0.91930 0.52310 0.60790 -0.26900
H 	H 	0.92110 0.45390 0.59540 0.08000
H 	H 	0.85160 0.54280 0.61740 0.08600
H 	H 	0.95880 0.53470 0.65250 0.07900
O 	O 	0.81190 0.85330 0.45130 -0.46700
C 	C 	0.96160 0.58350 0.54160 -0.14800
C 	C 	0.90060 0.56270 0.47190 -0.15200
H 	H 	0.86790 0.49890 0.47670 0.06400
H 	H 	0.94350 0.56090 0.42760 0.08000
C 	C 	0.82230 0.64440 0.46300 0.09200
H 	H 	0.83270 0.68040 0.41600 0.00200
H 	H 	0.75560 0.61660 0.46270 -0.01900
C 	C 	0.83640 0.71200 0.53070 -0.41000
H 	H 	0.79530 0.68570 0.57200 0.14800
C 	C 	0.94770 0.69960 0.55490 0.57600
C 	C 	0.96810 0.73670 0.63650 -1.00200
H 	H 	0.03880 0.74120 0.64460 0.31400
H 	H 	0.93970 0.69120 0.67230 0.30000
H 	H 	0.93840 0.80080 0.64320 0.30600
C 	C 	0.01850 0.75590 0.50520 -1.09900
H 	H 	0.08510 0.74950 0.52470 0.35300
H 	H 	0.99980 0.82450 0.50440 0.35800
H 	H 	0.01590 0.72980 0.45450 0.36600
O 	O 	0.70380 0.15280 0.54450 -0.45600
O 	O 	0.71740 0.13270 0.42080 -0.47800
O 	O 	0.40450 0.45970 0.54660 -0.46700
O 	O 	0.37930 0.45250 0.42160 -0.52300
C 	C 	0.69810 0.18600 0.47810 0.38100
C 	C 	0.43170 0.44800 0.47800 0.45200
C 	C 	0.73780 0.33380 0.40280 -0.24200
H 	H 	0.80560 0.33680 0.42020 0.08800
H 	H 	0.71550 0.39910 0.38960 0.07700
H 	H 	0.73390 0.29170 0.35900 0.08400
C 	C 	0.67150 0.29210 0.46580 -0.20100
C 	C 	0.68430 0.35560 0.53870 -0.12600
H 	H 	0.66830 0.31660 0.58330 0.06500
H 	H 	0.75270 0.37850 0.54310 0.05300
C 	C 	0.61530 0.44090 0.53220 0.07100
H 	H 	0.65250 0.50120 0.52260 -0.00800
H 	H 	0.57780 0.44920 0.57890 0.01300
C 	C 	0.54310 0.41870 0.46480 -0.43200
H 	H 	0.56730 0.45500 0.42030 0.14600
C 	C 	0.55760 0.30620 0.44930 0.69900
C 	C 	0.53100 0.28310 0.36950 -1.24200
H 	H 	0.46570 0.30870 0.35860 0.39000
H 	H 	0.53120 0.21270 0.36230 0.37900
H 	H 	0.57880 0.31300 0.33600 0.37300
C 	C 	0.49470 0.24290 0.50260 -1.21900
H 	H 	0.42520 0.25690 0.49440 0.39300
H 	H 	0.51190 0.25770 0.55420 0.40300
H 	H 	0.50730 0.17410 0.49260 0.38700
O 	O 	0.31340 0.52260 0.69270 -0.51600
O 	O 	0.30950 0.52500 0.81630 -0.53700
C 	C 	0.26900 0.50360 0.75500 0.75700
C 	C 	0.16960 0.45510 0.75340 -1.38000
H 	H 	0.17110 0.39660 0.78420 0.42100
H 	H 	0.15320 0.43750 0.70210 0.41800
H 	H 	0.12020 0.49990 0.77270 0.42100
Co	Co	0.26634 0.51064 0.92449 1.17400
O 	O 	0.37360 0.44070 0.08900 -0.46200
C 	C 	0.43160 0.44250 0.03030 0.36200
Co	Co	0.23055 0.49096 0.08330 1.16900
O 	O 	0.40180 0.46900 0.96720 -0.46400
C 	C 	0.69550 0.17990 0.01800 0.43700
O 	O 	0.72520 0.13540 0.07560 -0.49500
C 	C 	0.58070 0.47690 0.10790 -0.26500
H 	H 	0.57890 0.54610 0.09540 0.07900
H 	H 	0.64840 0.45720 0.11740 0.08400
H 	H 	0.54120 0.46530 0.15250 0.07800
O 	O 	0.68810 0.14670 0.95130 -0.46700
C 	C 	0.53840 0.41650 0.04160 -0.15000
C 	C 	0.59940 0.43730 0.97190 -0.15100
H 	H 	0.63210 0.50110 0.97670 0.06500
H 	H 	0.55650 0.43910 0.92760 0.08000
C 	C 	0.67770 0.35560 0.96300 0.09300
H 	H 	0.66730 0.31960 0.91600 0.00300
H 	H 	0.74440 0.38340 0.96270 -0.01800
C 	C 	0.66360 0.28800 0.03070 -0.41300
H 	H 	0.70470 0.31430 0.07200 0.14900
C 	C 	0.55230 0.30040 0.05490 0.58200
C 	C 	0.53190 0.26330 0.13650 -1.00600
H 	H 	0.46120 0.25880 0.14460 0.31500
H 	H 	0.56030 0.30880 0.17230 0.30100
H 	H 	0.56160 0.19920 0.14320 0.30700
C 	C 	0.48150 0.24410 0.00520 -1.11200
H 	H 	0.41490 0.25050 0.02470 0.35700
H 	H 	0.50020 0.17550 0.00440 0.36500
H 	H 	0.48410 0.27020 0.95450 0.36700
O 	O 	0.79620 0.84720 0.04450 -0.46200
O 	O 	0.78260 0.86730 0.92080 -0.47800
O 	O 	0.09550 0.54030 0.04660 -0.45900
O 	O 	0.12070 0.54750 0.92160 -0.51900
C 	C 	0.80190 0.81400 0.97810 0.38500
C 	C 	0.06830 0.55200 0.97800 0.43700
C 	C 	0.76220 0.66620 0.90280 -0.26000
H 	H 	0.69440 0.66320 0.92020 0.09400
H 	H 	0.78450 0.60090 0.88960 0.08300
H 	H 	0.76610 0.70830 0.85900 0.09000
C 	C 	0.82850 0.70790 0.96580 -0.18500
C 	C 	0.81570 0.64440 0.03870 -0.13200
H 	H 	0.83170 0.68340 0.08330 0.06600
H 	H 	0.74730 0.62150 0.04310 0.05400
C 	C 	0.88470 0.55910 0.03220 0.05700
H 	H 	0.84750 0.49880 0.02260 -0.00500
H 	H 	0.92220 0.55080 0.07890 0.01600
C 	C 	0.95690 0.58130 0.96480 -0.40500
H 	H 	0.93270 0.54500 0.92030 0.14000
C 	C 	0.94240 0.69380 0.94930 0.66300
C 	C 	0.96900 0.71690 0.86950 -1.19000
H 	H 	0.03430 0.69130 0.85860 0.37300
H 	H 	0.96880 0.78730 0.86230 0.36300
H 	H 	0.92120 0.68700 0.83600 0.35700
C 	C 	0.00530 0.75710 0.00260 -1.14300
H 	H 	0.07480 0.74310 0.99440 0.36800
H 	H 	0.98810 0.74230 0.05420 0.37400
H 	H 	0.99270 0.82590 0.99260 0.36600
O 	O 	0.18660 0.47740 0.19270 -0.51500
O 	O 	0.19050 0.47500 0.31630 -0.53700
C 	C 	0.23100 0.49640 0.25500 0.75800
C 	C 	0.33040 0.54490 0.25340 -1.38200
H 	H 	0.32890 0.60340 0.28420 0.42200
H 	H 	0.34680 0.56250 0.20210 0.41900
H 	H 	0.37980 0.50010 0.27270 0.42100
Co	Co	0.76634 0.98936 0.07551 1.17200
O 	O 	0.87360 0.05930 0.91100 -0.46100
C 	C 	0.93160 0.05750 0.96970 0.36900
Co	Co	0.73055 0.00904 0.91670 1.16900
O 	O 	0.90180 0.03100 0.03280 -0.46300
C 	C 	0.19550 0.32010 0.98200 0.42800
O 	O 	0.22520 0.36460 0.92440 -0.49500
C 	C 	0.08070 0.02310 0.89210 -0.28400
H 	H 	0.07890 0.95390 0.90460 0.08900
H 	H 	0.14840 0.04280 0.88260 0.08900
H 	H 	0.04120 0.03470 0.84750 0.08100
O 	O 	0.18810 0.35330 0.04870 -0.46100
C 	C 	0.03840 0.08350 0.95840 -0.15700
C 	C 	0.09940 0.06270 0.02810 -0.13500
H 	H 	0.13210 0.99890 0.02330 0.06000
H 	H 	0.05650 0.06090 0.07240 0.07800
C 	C 	0.17770 0.14440 0.03700 0.08900
H 	H 	0.16730 0.18040 0.08400 0.00500
H 	H 	0.24440 0.11660 0.03730 -0.01600
C 	C 	0.16360 0.21200 0.96930 -0.40600
H 	H 	0.20470 0.18570 0.92800 0.14700
C 	C 	0.05230 0.19960 0.94510 0.55900
C 	C 	0.03190 0.23670 0.86350 -1.00600
H 	H 	0.96120 0.24120 0.85540 0.31900
H 	H 	0.06030 0.19120 0.82770 0.30000
H 	H 	0.06160 0.30080 0.85680 0.30600
C 	C 	0.98150 0.25590 0.99480 -1.04000
H 	H 	0.91490 0.24950 0.97530 0.33600
H 	H 	0.00020 0.32450 0.99560 0.33700
H 	H 	0.98410 0.22980 0.04550 0.34500
O 	O 	0.29620 0.65280 0.95550 -0.45500
O 	O 	0.28260 0.63270 0.07920 -0.47700
O 	O 	0.59550 0.95970 0.95340 -0.46000
O 	O 	0.62070 0.95250 0.07840 -0.52200
C 	C 	0.30190 0.68600 0.02190 0.37800
C 	C 	0.56830 0.94800 0.02200 0.44400
C 	C 	0.26220 0.83380 0.09720 -0.25600
H 	H 	0.19440 0.83680 0.07980 0.09300
H 	H 	0.28450 0.89910 0.11040 0.08100
H 	H 	0.26610 0.79170 0.14100 0.08900
C 	C 	0.32850 0.79210 0.03420 -0.19000
C 	C 	0.31570 0.85560 0.96130 -0.14000
H 	H 	0.33170 0.81660 0.91670 0.07000
H 	H 	0.24730 0.87850 0.95690 0.05900
C 	C 	0.38470 0.94090 0.96780 0.09300
H 	H 	0.34750 0.00120 0.97740 -0.01900
H 	H 	0.42220 0.94920 0.92110 0.00900
C 	C 	0.45690 0.91870 0.03520 -0.43200
H 	H 	0.43270 0.95500 0.07970 0.14600
C 	C 	0.44240 0.80620 0.05070 0.67800
C 	C 	0.46900 0.78310 0.13050 -1.21700
H 	H 	0.53430 0.80870 0.14140 0.38300
H 	H 	0.46880 0.71270 0.13770 0.37100
H 	H 	0.42120 0.81300 0.16400 0.36500
C 	C 	0.50530 0.74290 0.99740 -1.16800
H 	H 	0.57480 0.75690 0.00560 0.37500
H 	H 	0.48810 0.75770 0.94580 0.38800
H 	H 	0.49270 0.67410 0.00740 0.37000
O 	O 	0.68660 0.02260 0.80730 -0.51700
O 	O 	0.69050 0.02500 0.68370 -0.53800
C 	C 	0.73100 0.00360 0.74500 0.75900
C 	C 	0.83040 0.95510 0.74660 -1.38300
H 	H 	0.82890 0.89660 0.71580 0.42200
H 	H 	0.84680 0.93750 0.79790 0.42000
H 	H 	0.87980 0.99990 0.72730 0.42200
Co	Co	0.73366 0.01064 0.57551 1.17500
O 	O 	0.62640 0.94070 0.41100 -0.46200
C 	C 	0.56840 0.94250 0.46970 0.36100
Co	Co	0.76945 0.99096 0.41670 1.16800
O 	O 	0.59820 0.96900 0.53280 -0.46300
C 	C 	0.30450 0.67990 0.48200 0.43600
O 	O 	0.27480 0.63540 0.42440 -0.49700
C 	C 	0.41930 0.97690 0.39210 -0.26500
H 	H 	0.42110 0.04610 0.40460 0.07900
H 	H 	0.35160 0.95720 0.38260 0.08500
H 	H 	0.45880 0.96530 0.34750 0.07800
O 	O 	0.31190 0.64670 0.54870 -0.46700
C 	C 	0.46160 0.91650 0.45840 -0.15100
C 	C 	0.40060 0.93730 0.52810 -0.14800
H 	H 	0.36790 0.00110 0.52330 0.06300
H 	H 	0.44350 0.93910 0.57240 0.08000
C 	C 	0.32230 0.85560 0.53700 0.09100
H 	H 	0.33270 0.81960 0.58400 0.00400
H 	H 	0.25560 0.88340 0.53730 -0.01800
C 	C 	0.33640 0.78800 0.46930 -0.41200
H 	H 	0.29530 0.81430 0.42800 0.14900
C 	C 	0.44770 0.80040 0.44510 0.58300
C 	C 	0.46810 0.76330 0.36350 -1.00600
H 	H 	0.53880 0.75880 0.35540 0.31500
H 	H 	0.43970 0.80880 0.32770 0.30100
H 	H 	0.43840 0.69920 0.35680 0.30700
C 	C 	0.51850 0.74410 0.49480 -1.11800
H 	H 	0.58510 0.75050 0.47530 0.35800
H 	H 	0.49980 0.67550 0.49560 0.36600
H 	H 	0.51590 0.77020 0.54550 0.37100
O 	O 	0.20380 0.34720 0.45550 -0.45600
O 	O 	0.21740 0.36730 0.57920 -0.47900
O 	O 	0.90450 0.04030 0.45340 -0.46600
O 	O 	0.87930 0.04750 0.57840 -0.52200
C 	C 	0.19810 0.31400 0.52190 0.38200
C 	C 	0.93170 0.05200 0.52200 0.45400
C 	C 	0.23780 0.16620 0.59720 -0.24000
H 	H 	0.30560 0.16320 0.57980 0.08700
H 	H 	0.21550 0.10090 0.61040 0.07500
H 	H 	0.23390 0.20830 0.64100 0.08300
C 	C 	0.17150 0.20790 0.53420 -0.20300
C 	C 	0.18430 0.14440 0.46130 -0.12200
H 	H 	0.16830 0.18340 0.41670 0.06400
H 	H 	0.25270 0.12150 0.45690 0.05200
C 	C 	0.11530 0.05910 0.46780 0.06400
H 	H 	0.15250 0.99880 0.47740 -0.00400
H 	H 	0.07780 0.05080 0.42110 0.01500
C 	C 	0.04310 0.08130 0.53520 -0.43400
H 	H 	0.06730 0.04500 0.57970 0.14500
C 	C 	0.05760 0.19380 0.55070 0.70000
C 	C 	0.03100 0.21690 0.63050 -1.25500
H 	H 	0.96570 0.19130 0.64140 0.39600
H 	H 	0.03120 0.28730 0.63770 0.38100
H 	H 	0.07880 0.18700 0.66400 0.37600
C 	C 	0.99470 0.25710 0.49740 -1.20900
H 	H 	0.92520 0.24310 0.50560 0.39000
H 	H 	0.01190 0.24230 0.44580 0.39900
H 	H 	0.00730 0.32590 0.50740 0.38300
O 	O 	0.81340 0.97740 0.30730 -0.51600
O 	O 	0.80950 0.97500 0.18370 -0.53800
C 	C 	0.76900 0.99640 0.24500 0.75200
C 	C 	0.66960 0.04490 0.24660 -1.37200
H 	H 	0.67110 0.10340 0.21580 0.42000
H 	H 	0.65320 0.06250 0.29790 0.41700
H 	H 	0.62020 0.00010 0.22730 0.42100
