data_crystal

_cell_length_a 9.02290
_cell_length_b 21.61070
_cell_length_c 24.04910
_cell_angle_alpha 90.00000
_cell_angle_beta  90.00000
_cell_angle_gamma 90.00000

_symmetry_space_group_name_	'P 1'
_symmetry_space_group_name_H-M	'P 1'

loop_
_symmetry_equiv_pos_as_xyz
  x,y,z

loop_
_atom_site_label
_atom_site_type_symbol
_atom_site_fract_x
_atom_site_fract_y
_atom_site_fract_z
_atom_site_charge
C 	C 	0.02620 0.18710 0.06980 0.28300
H 	H 	0.95970 0.21010 0.04790 -0.10000
N 	N 	0.16790 0.19374 0.06053 -0.30200
C 	C 	0.96840 0.14820 0.11000 -0.40800
H 	H 	0.86560 0.14440 0.11530 0.18100
C 	C 	0.06710 0.11512 0.14197 0.38600
C 	C 	0.21300 0.12310 0.13350 -0.35600
H 	H 	0.28220 0.10160 0.15550 0.15400
C 	C 	0.26010 0.16250 0.09310 0.21100
H 	H 	0.36260 0.16790 0.08800 -0.05600
O 	O 	0.00400 0.07732 0.18059 -0.23700
C 	C 	0.10130 0.03983 0.21340 -0.04300
H 	H 	0.16600 0.06580 0.23640 0.07300
H 	H 	0.16310 0.01370 0.18950 0.07400
C 	C 	0.52620 0.68710 0.06980 0.17400
H 	H 	0.45970 0.71010 0.04790 -0.05100
N 	N 	0.66790 0.69374 0.06053 -0.27800
C 	C 	0.46840 0.64820 0.11000 -0.29100
H 	H 	0.36560 0.64440 0.11530 0.14700
C 	C 	0.56710 0.61512 0.14197 0.31600
C 	C 	0.71300 0.62310 0.13350 -0.30900
H 	H 	0.78220 0.60160 0.15550 0.13600
C 	C 	0.76010 0.66250 0.09310 0.17900
H 	H 	0.86260 0.66790 0.08800 -0.04900
O 	O 	0.50400 0.57732 0.18059 -0.23400
C 	C 	0.60130 0.53983 0.21340 -0.02600
H 	H 	0.66600 0.56580 0.23640 0.06700
H 	H 	0.66310 0.51370 0.18950 0.06700
C 	C 	0.97380 0.81290 0.06980 0.05900
H 	H 	0.04030 0.78990 0.04790 0.00000
N 	N 	0.83210 0.80626 0.06053 -0.25200
C 	C 	0.03160 0.85180 0.11000 -0.16700
H 	H 	0.13440 0.85560 0.11530 0.10600
C 	C 	0.93290 0.88488 0.14197 0.23700
C 	C 	0.78700 0.87690 0.13350 -0.25300
H 	H 	0.71780 0.89840 0.15550 0.12000
C 	C 	0.73990 0.83750 0.09310 0.14300
H 	H 	0.63740 0.83210 0.08800 -0.03300
O 	O 	0.99600 0.92268 0.18059 -0.22000
C 	C 	0.89870 0.96017 0.21340 -0.07900
H 	H 	0.83400 0.93420 0.23640 0.08100
H 	H 	0.83690 0.98630 0.18950 0.07900
C 	C 	0.47380 0.31290 0.06980 0.17300
H 	H 	0.54030 0.28990 0.04790 -0.05200
N 	N 	0.33210 0.30626 0.06053 -0.27700
C 	C 	0.53160 0.35180 0.11000 -0.29000
H 	H 	0.63440 0.35560 0.11530 0.14300
C 	C 	0.43290 0.38488 0.14197 0.31500
C 	C 	0.28700 0.37690 0.13350 -0.30700
H 	H 	0.21780 0.39840 0.15550 0.14000
C 	C 	0.23990 0.33750 0.09310 0.17800
H 	H 	0.13740 0.33210 0.08800 -0.04000
O 	O 	0.49600 0.42268 0.18059 -0.23400
C 	C 	0.39870 0.46017 0.21340 -0.02700
H 	H 	0.33400 0.43420 0.23640 0.06800
H 	H 	0.33690 0.48630 0.18950 0.06700
C 	C 	0.97380 0.18710 0.43020 0.06000
H 	H 	0.04030 0.21010 0.45210 0.00400
N 	N 	0.83210 0.19374 0.43947 -0.25000
C 	C 	0.03160 0.14820 0.39000 -0.16600
H 	H 	0.13440 0.14440 0.38470 0.10700
C 	C 	0.93290 0.11512 0.35803 0.23800
C 	C 	0.78700 0.12310 0.36650 -0.25300
H 	H 	0.71780 0.10160 0.34450 0.11900
C 	C 	0.73990 0.16250 0.40690 0.14400
H 	H 	0.63740 0.16790 0.41200 -0.03200
O 	O 	0.99600 0.07732 0.31941 -0.22000
C 	C 	0.89870 0.03983 0.28660 -0.07500
H 	H 	0.83400 0.06580 0.26360 0.07900
H 	H 	0.83690 0.01370 0.31050 0.08000
C 	C 	0.47380 0.68710 0.43020 0.17300
H 	H 	0.54030 0.71010 0.45210 -0.04700
N 	N 	0.33210 0.69374 0.43947 -0.27400
C 	C 	0.53160 0.64820 0.39000 -0.28800
H 	H 	0.63440 0.64440 0.38470 0.14400
C 	C 	0.43290 0.61512 0.35803 0.31500
C 	C 	0.28700 0.62310 0.36650 -0.30600
H 	H 	0.21780 0.60160 0.34450 0.14000
C 	C 	0.23990 0.66250 0.40690 0.17900
H 	H 	0.13740 0.66790 0.41200 -0.03900
O 	O 	0.49600 0.57732 0.31941 -0.23400
C 	C 	0.39870 0.53983 0.28660 -0.02700
H 	H 	0.33400 0.56580 0.26360 0.06800
H 	H 	0.33690 0.51370 0.31050 0.06700
C 	C 	0.02620 0.81290 0.43020 0.28500
H 	H 	0.95970 0.78990 0.45210 -0.09700
N 	N 	0.16790 0.80626 0.43947 -0.30000
C 	C 	0.96840 0.85180 0.39000 -0.40800
H 	H 	0.86560 0.85560 0.38470 0.18200
C 	C 	0.06710 0.88488 0.35803 0.38700
C 	C 	0.21300 0.87690 0.36650 -0.35600
H 	H 	0.28220 0.89840 0.34450 0.15500
C 	C 	0.26010 0.83750 0.40690 0.21300
H 	H 	0.36260 0.83210 0.41200 -0.05400
O 	O 	0.00400 0.92268 0.31941 -0.23700
C 	C 	0.10130 0.96017 0.28660 -0.04600
H 	H 	0.16600 0.93420 0.26360 0.07500
H 	H 	0.16310 0.98630 0.31050 0.07200
C 	C 	0.52620 0.31290 0.43020 0.17400
H 	H 	0.45970 0.28990 0.45210 -0.04700
N 	N 	0.66790 0.30626 0.43947 -0.27600
C 	C 	0.46840 0.35180 0.39000 -0.29000
H 	H 	0.36560 0.35560 0.38470 0.14700
C 	C 	0.56710 0.38488 0.35803 0.31600
C 	C 	0.71300 0.37690 0.36650 -0.30800
H 	H 	0.78220 0.39840 0.34450 0.13600
C 	C 	0.76010 0.33750 0.40690 0.18000
H 	H 	0.86260 0.33210 0.41200 -0.04800
O 	O 	0.50400 0.42268 0.31941 -0.23400
C 	C 	0.60130 0.46017 0.28660 -0.02600
H 	H 	0.66600 0.43420 0.26360 0.06700
H 	H 	0.66310 0.48630 0.31050 0.06700
C 	C 	0.97380 0.81290 0.93020 0.06000
H 	H 	0.04030 0.78990 0.95210 0.00900
N 	N 	0.83210 0.80626 0.93947 -0.24500
C 	C 	0.03160 0.85180 0.89000 -0.16300
H 	H 	0.13440 0.85560 0.88470 0.10700
C 	C 	0.93290 0.88488 0.85803 0.23700
C 	C 	0.78700 0.87690 0.86650 -0.25100
H 	H 	0.71780 0.89840 0.84450 0.11900
C 	C 	0.73990 0.83750 0.90690 0.14500
H 	H 	0.63740 0.83210 0.91200 -0.02900
O 	O 	0.99600 0.92268 0.81941 -0.21900
C 	C 	0.89870 0.96017 0.78660 -0.07800
H 	H 	0.83400 0.93420 0.76360 0.08100
H 	H 	0.83690 0.98630 0.81050 0.07900
C 	C 	0.47380 0.31290 0.93020 0.17400
H 	H 	0.54030 0.28990 0.95210 -0.04200
N 	N 	0.33210 0.30626 0.93947 -0.27000
C 	C 	0.53160 0.35180 0.89000 -0.28700
H 	H 	0.63440 0.35560 0.88470 0.14400
C 	C 	0.43290 0.38488 0.85803 0.31500
C 	C 	0.28700 0.37690 0.86650 -0.30500
H 	H 	0.21780 0.39840 0.84450 0.14000
C 	C 	0.23990 0.33750 0.90690 0.18000
H 	H 	0.13740 0.33210 0.91200 -0.03700
O 	O 	0.49600 0.42268 0.81941 -0.23400
C 	C 	0.39870 0.46017 0.78660 -0.02700
H 	H 	0.33400 0.43420 0.76360 0.06800
H 	H 	0.33690 0.48630 0.81050 0.06700
C 	C 	0.02620 0.18710 0.93020 0.28300
H 	H 	0.95970 0.21010 0.95210 -0.09100
N 	N 	0.16790 0.19374 0.93947 -0.29500
C 	C 	0.96840 0.14820 0.89000 -0.40400
H 	H 	0.86560 0.14440 0.88470 0.18200
C 	C 	0.06710 0.11512 0.85803 0.38600
C 	C 	0.21300 0.12310 0.86650 -0.35400
H 	H 	0.28220 0.10160 0.84450 0.15400
C 	C 	0.26010 0.16250 0.90690 0.21200
H 	H 	0.36260 0.16790 0.91200 -0.05200
O 	O 	0.00400 0.07732 0.81941 -0.23700
C 	C 	0.10130 0.03983 0.78660 -0.04300
H 	H 	0.16600 0.06580 0.76360 0.07300
H 	H 	0.16310 0.01370 0.81050 0.07300
C 	C 	0.52620 0.68710 0.93020 0.17500
H 	H 	0.45970 0.71010 0.95210 -0.04100
N 	N 	0.66790 0.69374 0.93947 -0.27100
C 	C 	0.46840 0.64820 0.89000 -0.28700
H 	H 	0.36560 0.64440 0.88470 0.14800
C 	C 	0.56710 0.61512 0.85803 0.31600
C 	C 	0.71300 0.62310 0.86650 -0.30700
H 	H 	0.78220 0.60160 0.84450 0.13500
C 	C 	0.76010 0.66250 0.90690 0.18100
H 	H 	0.86260 0.66790 0.91200 -0.04600
O 	O 	0.50400 0.57732 0.81941 -0.23400
C 	C 	0.60130 0.53983 0.78660 -0.02600
H 	H 	0.66600 0.56580 0.76360 0.06700
H 	H 	0.66310 0.51370 0.81050 0.06700
C 	C 	0.02620 0.81290 0.56980 0.28500
H 	H 	0.95970 0.78990 0.54790 -0.09700
N 	N 	0.16790 0.80626 0.56053 -0.30000
C 	C 	0.96840 0.85180 0.61000 -0.40800
H 	H 	0.86560 0.85560 0.61530 0.18200
C 	C 	0.06710 0.88488 0.64197 0.38700
C 	C 	0.21300 0.87690 0.63350 -0.35600
H 	H 	0.28220 0.89840 0.65550 0.15500
C 	C 	0.26010 0.83750 0.59310 0.21300
H 	H 	0.36260 0.83210 0.58800 -0.05400
O 	O 	0.00400 0.92268 0.68059 -0.23700
C 	C 	0.10130 0.96017 0.71340 -0.04600
H 	H 	0.16600 0.93420 0.73640 0.07500
H 	H 	0.16310 0.98630 0.68950 0.07200
C 	C 	0.52620 0.31290 0.56980 0.17400
H 	H 	0.45970 0.28990 0.54790 -0.04700
N 	N 	0.66790 0.30626 0.56053 -0.27600
C 	C 	0.46840 0.35180 0.61000 -0.29000
H 	H 	0.36560 0.35560 0.61530 0.14700
C 	C 	0.56710 0.38488 0.64197 0.31600
C 	C 	0.71300 0.37690 0.63350 -0.30800
H 	H 	0.78220 0.39840 0.65550 0.13600
C 	C 	0.76010 0.33750 0.59310 0.18000
H 	H 	0.86260 0.33210 0.58800 -0.04800
O 	O 	0.50400 0.42268 0.68059 -0.23400
C 	C 	0.60130 0.46017 0.71340 -0.02600
H 	H 	0.66600 0.43420 0.73640 0.06600
H 	H 	0.66310 0.48630 0.68950 0.06700
C 	C 	0.97380 0.18710 0.56980 0.06000
H 	H 	0.04030 0.21010 0.54790 0.00400
N 	N 	0.83210 0.19374 0.56053 -0.25000
C 	C 	0.03160 0.14820 0.61000 -0.16600
H 	H 	0.13440 0.14440 0.61530 0.10700
C 	C 	0.93290 0.11512 0.64197 0.23800
C 	C 	0.78700 0.12310 0.63350 -0.25300
H 	H 	0.71780 0.10160 0.65550 0.11900
C 	C 	0.73990 0.16250 0.59310 0.14400
H 	H 	0.63740 0.16790 0.58800 -0.03200
O 	O 	0.99600 0.07732 0.68059 -0.22000
C 	C 	0.89870 0.03983 0.71340 -0.07500
H 	H 	0.83400 0.06580 0.73640 0.07900
H 	H 	0.83690 0.01370 0.68950 0.08000
C 	C 	0.47380 0.68710 0.56980 0.17300
H 	H 	0.54030 0.71010 0.54790 -0.04700
N 	N 	0.33210 0.69374 0.56053 -0.27400
C 	C 	0.53160 0.64820 0.61000 -0.28900
H 	H 	0.63440 0.64440 0.61530 0.14400
C 	C 	0.43290 0.61512 0.64197 0.31500
C 	C 	0.28700 0.62310 0.63350 -0.30600
H 	H 	0.21780 0.60160 0.65550 0.14000
C 	C 	0.23990 0.66250 0.59310 0.17900
H 	H 	0.13740 0.66790 0.58800 -0.03900
O 	O 	0.49600 0.57732 0.68059 -0.23400
C 	C 	0.39870 0.53983 0.71340 -0.02700
H 	H 	0.33400 0.56580 0.73640 0.06800
H 	H 	0.33690 0.51370 0.68950 0.06700
Cu	Cu	0.25000 0.25000 -0.00000 0.85000
Cu	Cu	0.75000 0.75000 -0.00000 0.84500
Cu	Cu	0.75000 0.25000 0.50000 0.85300
Cu	Cu	0.25000 0.75000 0.50000 0.85800
C 	C 	-0.00000 0.00000 0.25000 0.12000
C 	C 	0.50000 0.50000 0.25000 0.06500
C 	C 	-0.00000 0.00000 0.75000 0.12000
C 	C 	0.50000 0.50000 0.75000 0.06500
H 	H 	0.02380 0.48900 0.23600 0.23700
H 	H 	0.90540 0.46410 0.27800 0.15900
O 	O 	0.95600 0.53050 0.33460 -0.41300
H 	H 	0.96600 0.54550 0.29590 0.28200
H 	H 	0.05280 0.53940 0.35210 0.18600
O 	O 	0.18300 0.52200 0.86920 -0.32800
H 	H 	0.20310 0.55420 0.89750 0.19400
H 	H 	0.19150 0.48240 0.88970 0.12500
O 	O 	0.05300 0.50290 0.45540 -0.22600
H 	H 	0.02130 0.47860 0.48820 0.13800
H 	H 	0.01540 0.47930 0.42310 0.42500
O 	O 	0.08000 0.53660 0.06380 -0.60300
H 	H 	0.08110 0.51430 0.09980 0.09800
H 	H 	0.16700 0.52010 0.03980 0.20900
O 	O 	0.91400 0.62110 0.28040 -0.45100
H 	H 	0.87400 0.60440 0.31580 0.20600
H 	H 	0.98660 0.58980 0.26800 0.36300
H 	H 	0.97620 0.51100 0.23600 0.09700
H 	H 	0.09460 0.53590 0.27800 0.12400
O 	O 	0.04400 0.46950 0.33460 -0.36800
H 	H 	0.03400 0.45450 0.29590 0.28600
H 	H 	0.94720 0.46060 0.35210 0.15100
O 	O 	0.81700 0.47800 0.86920 -0.31900
H 	H 	0.79690 0.44580 0.89750 0.17900
H 	H 	0.80850 0.51760 0.88970 0.12200
O 	O 	0.94700 0.49710 0.45540 -0.32900
H 	H 	0.97870 0.52140 0.48820 0.12100
H 	H 	0.98460 0.52070 0.42310 0.31500
O 	O 	0.92000 0.46340 0.06380 -0.50600
H 	H 	0.91890 0.48570 0.09980 0.10300
H 	H 	0.83300 0.47990 0.03980 0.20300
O 	O 	0.08600 0.37890 0.28040 -0.44700
H 	H 	0.12600 0.39560 0.31580 0.20900
H 	H 	0.01340 0.41020 0.26800 0.39700
H 	H 	0.97620 0.48900 0.26400 0.09600
H 	H 	0.09460 0.46410 0.22200 0.12400
O 	O 	0.04400 0.53050 0.16540 -0.36800
H 	H 	0.03400 0.54550 0.20410 0.28600
H 	H 	0.94720 0.53940 0.14790 0.15100
O 	O 	0.81700 0.52200 0.63080 -0.32200
H 	H 	0.79690 0.55420 0.60250 0.17900
H 	H 	0.80850 0.48240 0.61030 0.11800
O 	O 	0.94700 0.50290 0.04460 -0.22400
H 	H 	0.97870 0.47860 0.01180 -0.05600
H 	H 	0.98460 0.47930 0.07690 0.26800
O 	O 	0.92000 0.53660 0.43620 -0.50700
H 	H 	0.91890 0.51430 0.40020 0.08500
H 	H 	0.83300 0.52010 0.46020 0.22200
O 	O 	0.08600 0.62110 0.21960 -0.44700
H 	H 	0.12600 0.60440 0.18420 0.20900
H 	H 	0.01340 0.58980 0.23200 0.39800
H 	H 	0.02380 0.51100 0.26400 0.23900
H 	H 	0.90540 0.53590 0.22200 0.15900
O 	O 	0.95600 0.46950 0.16540 -0.41300
H 	H 	0.96600 0.45450 0.20410 0.28200
H 	H 	0.05280 0.46060 0.14790 0.18700
O 	O 	0.18300 0.47800 0.63080 -0.33100
H 	H 	0.20310 0.44580 0.60250 0.19400
H 	H 	0.19150 0.51760 0.61030 0.12200
O 	O 	0.05300 0.49710 0.04460 -0.12200
H 	H 	0.02130 0.52140 0.01180 -0.03900
H 	H 	0.01540 0.52070 0.07690 0.37800
O 	O 	0.08000 0.46340 0.43620 -0.60400
H 	H 	0.08110 0.48570 0.40020 0.08100
H 	H 	0.16700 0.47990 0.46020 0.22800
O 	O 	0.91400 0.37890 0.21960 -0.45100
H 	H 	0.87400 0.39560 0.18420 0.20600
H 	H 	0.98660 0.41020 0.23200 0.36300
H 	H 	0.97620 0.51100 0.76400 0.09700
H 	H 	0.09460 0.53590 0.72200 0.12400
O 	O 	0.04400 0.46950 0.66540 -0.36800
H 	H 	0.03400 0.45450 0.70410 0.28600
H 	H 	0.94720 0.46060 0.64790 0.15100
O 	O 	0.81700 0.47800 0.13080 -0.32500
H 	H 	0.79690 0.44580 0.10250 0.17900
H 	H 	0.80850 0.51760 0.11030 0.11500
O 	O 	0.94700 0.49710 0.54460 -0.32900
H 	H 	0.97870 0.52140 0.51180 0.12100
H 	H 	0.98460 0.52070 0.57690 0.31500
O 	O 	0.92000 0.46340 0.93620 -0.50800
H 	H 	0.91890 0.48570 0.90020 0.06800
H 	H 	0.83300 0.47990 0.96020 0.24100
O 	O 	0.08600 0.37890 0.71960 -0.44700
H 	H 	0.12600 0.39560 0.68420 0.20900
H 	H 	0.01340 0.41020 0.73200 0.39700
H 	H 	0.02380 0.48900 0.76400 0.23700
H 	H 	0.90540 0.46410 0.72200 0.15900
O 	O 	0.95600 0.53050 0.66540 -0.41300
H 	H 	0.96600 0.54550 0.70410 0.28200
H 	H 	0.05280 0.53940 0.64790 0.18600
O 	O 	0.18300 0.52200 0.13080 -0.33400
H 	H 	0.20310 0.55420 0.10250 0.19300
H 	H 	0.19150 0.48240 0.11030 0.11900
O 	O 	0.05300 0.50290 0.54460 -0.22600
H 	H 	0.02130 0.47860 0.51180 0.13800
H 	H 	0.01540 0.47930 0.57690 0.42500
O 	O 	0.08000 0.53660 0.93620 -0.60500
H 	H 	0.08110 0.51430 0.90020 0.06400
H 	H 	0.16700 0.52010 0.96020 0.24700
O 	O 	0.91400 0.62110 0.71960 -0.45100
H 	H 	0.87400 0.60440 0.68420 0.20600
H 	H 	0.98660 0.58980 0.73200 0.36300
H 	H 	0.02380 0.51100 0.73600 0.23900
H 	H 	0.90540 0.53590 0.77800 0.15900
O 	O 	0.95600 0.46950 0.83460 -0.41300
H 	H 	0.96600 0.45450 0.79590 0.28200
H 	H 	0.05280 0.46060 0.85210 0.18600
O 	O 	0.18300 0.47800 0.36920 -0.33100
H 	H 	0.20310 0.44580 0.39750 0.19400
H 	H 	0.19150 0.51760 0.38970 0.12200
O 	O 	0.05300 0.49710 0.95540 -0.33100
H 	H 	0.02130 0.52140 0.98820 0.31500
H 	H 	0.01540 0.52070 0.92310 0.47200
O 	O 	0.08000 0.46340 0.56380 -0.60400
H 	H 	0.08110 0.48570 0.59980 0.08100
H 	H 	0.16700 0.47990 0.53980 0.22800
O 	O 	0.91400 0.37890 0.78040 -0.45100
H 	H 	0.87400 0.39560 0.81580 0.20600
H 	H 	0.98660 0.41020 0.76800 0.36300
H 	H 	0.97620 0.48900 0.73600 0.09600
H 	H 	0.09460 0.46410 0.77800 0.12400
O 	O 	0.04400 0.53050 0.83460 -0.36700
H 	H 	0.03400 0.54550 0.79590 0.28600
H 	H 	0.94720 0.53940 0.85210 0.15000
O 	O 	0.81700 0.52200 0.36920 -0.32200
H 	H 	0.79690 0.55420 0.39750 0.17900
H 	H 	0.80850 0.48240 0.38970 0.11800
O 	O 	0.94700 0.50290 0.95540 -0.43400
H 	H 	0.97870 0.47860 0.98820 0.29800
H 	H 	0.98460 0.47930 0.92310 0.36200
O 	O 	0.92000 0.53660 0.56380 -0.50700
H 	H 	0.91890 0.51430 0.59980 0.08500
H 	H 	0.83300 0.52010 0.53980 0.22200
O 	O 	0.08600 0.62110 0.78040 -0.44600
H 	H 	0.12600 0.60440 0.81580 0.20900
H 	H 	0.01340 0.58980 0.76800 0.39800
O 	O 	-0.00000 0.45130 0.25000 -1.11700
O 	O 	0.00000 0.54870 0.25000 -1.11900
O 	O 	-0.00000 0.54870 0.75000 -1.11900
O 	O 	-0.00000 0.45130 0.75000 -1.11700
O 	O 	0.68300 0.02200 0.86920 -0.32300
H 	H 	0.70310 0.05420 0.89750 0.18400
H 	H 	0.69150 0.98240 0.88970 0.12000
O 	O 	0.55300 0.00290 0.45540 -0.26800
H 	H 	0.52130 0.97860 0.48820 0.12800
H 	H 	0.51540 0.97930 0.42310 0.37000
O 	O 	0.58000 0.03660 0.06380 -0.55100
H 	H 	0.58110 0.01430 0.09980 0.10200
H 	H 	0.66700 0.02010 0.03980 0.20700
O 	O 	0.41400 0.12110 0.28040 -0.44300
H 	H 	0.37400 0.10440 0.31580 0.20700
H 	H 	0.48660 0.08980 0.26800 0.36800
H 	H 	0.52380 0.98900 0.23600 0.27900
H 	H 	0.40540 0.96410 0.27800 0.13600
O 	O 	0.45600 0.03050 0.33460 -0.38900
H 	H 	0.46600 0.04550 0.29590 0.28200
H 	H 	0.55280 0.03940 0.35210 0.17000
O 	O 	0.31700 0.97800 0.86920 -0.32400
H 	H 	0.29690 0.94580 0.89750 0.18900
H 	H 	0.30850 0.01760 0.88970 0.12500
O 	O 	0.44700 0.99710 0.45540 -0.28700
H 	H 	0.47870 0.02140 0.48820 0.13000
H 	H 	0.48460 0.02070 0.42310 0.36900
O 	O 	0.42000 0.96340 0.06380 -0.55800
H 	H 	0.41890 0.98570 0.09980 0.10000
H 	H 	0.33300 0.97990 0.03980 0.20500
O 	O 	0.58600 0.87890 0.28040 -0.47000
H 	H 	0.62600 0.89560 0.31580 0.21100
H 	H 	0.51340 0.91020 0.26800 0.42300
H 	H 	0.47620 0.01100 0.23600 0.07400
H 	H 	0.59460 0.03590 0.27800 0.16100
O 	O 	0.54400 0.96950 0.33460 -0.40400
H 	H 	0.53400 0.95450 0.29590 0.30400
H 	H 	0.44720 0.96060 0.35210 0.17000
O 	O 	0.31700 0.02200 0.63080 -0.32400
H 	H 	0.29690 0.05420 0.60250 0.18800
H 	H 	0.30850 0.98240 0.61030 0.11800
O 	O 	0.44700 0.00290 0.04460 -0.16400
H 	H 	0.47870 0.97860 0.01180 -0.04800
H 	H 	0.48460 0.97930 0.07690 0.32400
O 	O 	0.42000 0.03660 0.43620 -0.55300
H 	H 	0.41890 0.01430 0.40020 0.08500
H 	H 	0.33300 0.02010 0.46020 0.22800
O 	O 	0.58600 0.12110 0.21960 -0.44400
H 	H 	0.62600 0.10440 0.18420 0.20400
H 	H 	0.51340 0.08980 0.23200 0.36800
H 	H 	0.47620 0.98900 0.26400 0.28000
H 	H 	0.59460 0.96410 0.22200 0.13700
O 	O 	0.54400 0.03050 0.16540 -0.38900
H 	H 	0.53400 0.04550 0.20410 0.28200
H 	H 	0.44720 0.03940 0.14790 0.16900
O 	O 	0.68300 0.97800 0.63080 -0.32900
H 	H 	0.70310 0.94580 0.60250 0.18400
H 	H 	0.69150 0.01760 0.61030 0.12100
O 	O 	0.55300 0.99710 0.04460 -0.18300
H 	H 	0.52130 0.02140 0.01180 -0.04600
H 	H 	0.51540 0.02070 0.07690 0.32200
O 	O 	0.58000 0.96340 0.43620 -0.55800
H 	H 	0.58110 0.98570 0.40020 0.08300
H 	H 	0.66700 0.97990 0.46020 0.22100
O 	O 	0.41400 0.87890 0.21960 -0.46900
H 	H 	0.37400 0.89560 0.18420 0.21400
H 	H 	0.48660 0.91020 0.23200 0.42300
H 	H 	0.52380 0.01100 0.26400 0.07300
H 	H 	0.40540 0.03590 0.22200 0.16000
O 	O 	0.45600 0.96950 0.16540 -0.40400
H 	H 	0.46600 0.95450 0.20410 0.30500
H 	H 	0.55280 0.96060 0.14790 0.17100
O 	O 	0.31700 0.97800 0.13080 -0.33000
H 	H 	0.29690 0.94580 0.10250 0.18900
H 	H 	0.30850 0.01760 0.11030 0.11900
O 	O 	0.44700 0.99710 0.54460 -0.28700
H 	H 	0.47870 0.02140 0.51180 0.13000
H 	H 	0.48460 0.02070 0.57690 0.36900
O 	O 	0.42000 0.96340 0.93620 -0.56000
H 	H 	0.41890 0.98570 0.90020 0.06500
H 	H 	0.33300 0.97990 0.96020 0.24300
O 	O 	0.58600 0.87890 0.71960 -0.47000
H 	H 	0.62600 0.89560 0.68420 0.21100
H 	H 	0.51340 0.91020 0.73200 0.42300
H 	H 	0.47620 0.01100 0.76400 0.07400
H 	H 	0.59460 0.03590 0.72200 0.16100
O 	O 	0.54400 0.96950 0.66540 -0.40400
H 	H 	0.53400 0.95450 0.70410 0.30400
H 	H 	0.44720 0.96060 0.64790 0.17000
O 	O 	0.68300 0.02200 0.13080 -0.32900
H 	H 	0.70310 0.05420 0.10250 0.18300
H 	H 	0.69150 0.98240 0.11030 0.11400
O 	O 	0.55300 0.00290 0.54460 -0.26800
H 	H 	0.52130 0.97860 0.51180 0.12800
H 	H 	0.51540 0.97930 0.57690 0.37000
O 	O 	0.58000 0.03660 0.93620 -0.55300
H 	H 	0.58110 0.01430 0.90020 0.06800
H 	H 	0.66700 0.02010 0.96020 0.24400
O 	O 	0.41400 0.12110 0.71960 -0.44300
H 	H 	0.37400 0.10440 0.68420 0.20700
H 	H 	0.48660 0.08980 0.73200 0.36800
H 	H 	0.52380 0.98900 0.76400 0.27900
H 	H 	0.40540 0.96410 0.72200 0.13600
O 	O 	0.45600 0.03050 0.66540 -0.38900
H 	H 	0.46600 0.04550 0.70410 0.28200
H 	H 	0.55280 0.03940 0.64790 0.17000
O 	O 	0.68300 0.97800 0.36920 -0.32900
H 	H 	0.70310 0.94580 0.39750 0.18400
H 	H 	0.69150 0.01760 0.38970 0.12100
O 	O 	0.55300 0.99710 0.95540 -0.39100
H 	H 	0.52130 0.02140 0.98820 0.30700
H 	H 	0.51540 0.02070 0.92310 0.41600
O 	O 	0.58000 0.96340 0.56380 -0.55800
H 	H 	0.58110 0.98570 0.59980 0.08300
H 	H 	0.66700 0.97990 0.53980 0.22100
O 	O 	0.41400 0.87890 0.78040 -0.46900
H 	H 	0.37400 0.89560 0.81580 0.21400
H 	H 	0.48660 0.91020 0.76800 0.42300
H 	H 	0.52380 0.01100 0.73600 0.07300
H 	H 	0.40540 0.03590 0.77800 0.16000
O 	O 	0.45600 0.96950 0.83460 -0.40400
H 	H 	0.46600 0.95450 0.79590 0.30500
H 	H 	0.55280 0.96060 0.85210 0.17100
O 	O 	0.31700 0.02200 0.36920 -0.32400
H 	H 	0.29690 0.05420 0.39750 0.18800
H 	H 	0.30850 0.98240 0.38970 0.11800
O 	O 	0.44700 0.00290 0.95540 -0.37200
H 	H 	0.47870 0.97860 0.98820 0.30500
H 	H 	0.48460 0.97930 0.92310 0.41800
O 	O 	0.42000 0.03660 0.56380 -0.55300
H 	H 	0.41890 0.01430 0.59980 0.08500
H 	H 	0.33300 0.02010 0.53980 0.22800
O 	O 	0.58600 0.12110 0.78040 -0.44400
H 	H 	0.62600 0.10440 0.81580 0.20400
H 	H 	0.51340 0.08980 0.76800 0.36800
H 	H 	0.47620 0.98900 0.73600 0.28000
H 	H 	0.59460 0.96410 0.77800 0.13600
O 	O 	0.54400 0.03050 0.83460 -0.38900
H 	H 	0.53400 0.04550 0.79590 0.28100
H 	H 	0.44720 0.03940 0.85210 0.16800
O 	O 	0.50000 0.95130 0.25000 -1.29300
O 	O 	0.50000 0.04870 0.25000 -1.06600
O 	O 	0.50000 0.04870 0.75000 -1.06600
O 	O 	0.50000 0.95130 0.75000 -1.29300
