data_crystal

_cell_length_a 7.42300
_cell_length_b 30.33700
_cell_length_c 30.33700
_cell_angle_alpha 90.00000
_cell_angle_beta  90.00000
_cell_angle_gamma 90.00000

_symmetry_space_group_name_	'P 1'
_symmetry_space_group_name_H-M	'P 1'

loop_
_symmetry_equiv_pos_as_xyz
  x,y,z

loop_
_atom_site_label
_atom_site_type_symbol
_atom_site_fract_x
_atom_site_fract_y
_atom_site_fract_z
_atom_site_charge
Cu	Cu	0.90335 0.52590 0.52581 0.92300
Cu	Cu	0.90335 0.97410 0.97419 0.92200
Cu	Cu	0.40335 0.47419 0.02591 0.92400
Cu	Cu	0.40335 0.02581 0.47410 0.92400
Cu	Cu	0.09665 0.47409 0.47419 0.92400
Cu	Cu	0.09665 0.02590 0.02581 0.92300
Cu	Cu	0.59665 0.52581 0.97410 0.92400
Cu	Cu	0.59665 0.97419 0.52591 0.92400
H 	H 	0.51150 0.54010 0.53980 -0.02400
H 	H 	0.29620 0.57800 0.57850 0.15900
H 	H 	0.69700 0.63960 0.63950 0.14500
H 	H 	0.89460 0.60080 0.60060 -0.04500
H 	H 	0.27550 0.55670 0.65870 0.29900
H 	H 	0.19550 0.56850 0.70560 0.29700
H 	H 	0.06450 0.56120 0.66500 0.30300
H 	H 	0.96920 0.62660 0.70290 0.20200
H 	H 	0.21860 0.73830 0.66080 0.19000
H 	H 	0.42590 0.69470 0.62400 -0.10600
H 	H 	0.81020 0.68700 0.73180 0.02000
H 	H 	0.96560 0.70940 0.75960 0.03000
H 	H 	0.27380 0.48220 0.62940 0.33500
H 	H 	0.43550 0.47310 0.59660 0.35300
H 	H 	0.29670 0.43500 0.60770 0.33100
H 	H 	0.72300 0.37050 0.51760 0.35100
H 	H 	0.70750 0.39180 0.56510 0.33900
H 	H 	0.56350 0.40350 0.52840 0.36200
H 	H 	0.51150 0.95990 0.96020 -0.02400
H 	H 	0.29620 0.92200 0.92150 0.16000
H 	H 	0.69700 0.86040 0.86050 0.14500
H 	H 	0.89460 0.89920 0.89940 -0.04500
H 	H 	0.27550 0.94330 0.84130 0.29900
H 	H 	0.19550 0.93150 0.79440 0.29800
H 	H 	0.06450 0.93880 0.83500 0.30300
H 	H 	0.96920 0.87340 0.79710 0.20100
H 	H 	0.21860 0.76170 0.83920 0.19000
H 	H 	0.42590 0.80530 0.87600 -0.10600
H 	H 	0.81020 0.81300 0.76820 0.02000
H 	H 	0.96560 0.79060 0.74040 0.03000
H 	H 	0.27380 0.01780 0.87060 0.33500
H 	H 	0.43550 0.02690 0.90340 0.35200
H 	H 	0.29670 0.06500 0.89230 0.33000
H 	H 	0.72300 0.12950 0.98240 0.35100
H 	H 	0.70750 0.10820 0.93490 0.33900
H 	H 	0.56350 0.09650 0.97160 0.36200
H 	H 	0.01150 0.46020 0.04010 -0.02400
H 	H 	0.79620 0.42150 0.07800 0.15900
H 	H 	0.19700 0.36050 0.13960 0.14600
H 	H 	0.39460 0.39940 0.10080 -0.04500
H 	H 	0.77550 0.34130 0.05670 0.30000
H 	H 	0.69550 0.29440 0.06850 0.29800
H 	H 	0.56450 0.33500 0.06120 0.30300
H 	H 	0.46920 0.29710 0.12660 0.20500
H 	H 	0.71860 0.33920 0.23830 0.19000
H 	H 	0.92590 0.37600 0.19470 -0.10600
H 	H 	0.31020 0.26820 0.18700 0.02100
H 	H 	0.46560 0.24040 0.20940 0.03100
H 	H 	0.77380 0.37060 0.98220 0.33500
H 	H 	0.93550 0.40340 0.97310 0.35300
H 	H 	0.79670 0.39230 0.93500 0.33000
H 	H 	0.22300 0.48240 0.87050 0.35100
H 	H 	0.20750 0.43490 0.89180 0.33900
H 	H 	0.06350 0.47160 0.90350 0.36200
H 	H 	0.01150 0.03980 0.45990 -0.02400
H 	H 	0.79620 0.07850 0.42200 0.15900
H 	H 	0.19700 0.13950 0.36040 0.14600
H 	H 	0.39460 0.10060 0.39920 -0.04500
H 	H 	0.77550 0.15870 0.44330 0.30000
H 	H 	0.69550 0.20560 0.43150 0.29800
H 	H 	0.56450 0.16500 0.43880 0.30300
H 	H 	0.46920 0.20290 0.37340 0.20500
H 	H 	0.71860 0.16080 0.26170 0.19000
H 	H 	0.92590 0.12400 0.30530 -0.10600
H 	H 	0.31020 0.23180 0.31300 0.02100
H 	H 	0.46560 0.25960 0.29060 0.03100
H 	H 	0.77380 0.12940 0.51780 0.33500
H 	H 	0.93550 0.09660 0.52690 0.35300
H 	H 	0.79670 0.10770 0.56500 0.33100
H 	H 	0.22300 0.01760 0.62950 0.35100
H 	H 	0.20750 0.06510 0.60820 0.33900
H 	H 	0.06350 0.02840 0.59650 0.36200
H 	H 	0.48850 0.45990 0.46020 -0.02400
H 	H 	0.70380 0.42200 0.42150 0.15900
H 	H 	0.30300 0.36040 0.36050 0.14500
H 	H 	0.10540 0.39920 0.39940 -0.04500
H 	H 	0.72450 0.44330 0.34130 0.29900
H 	H 	0.80450 0.43150 0.29440 0.29700
H 	H 	0.93550 0.43880 0.33500 0.30300
H 	H 	0.03080 0.37340 0.29710 0.20200
H 	H 	0.78140 0.26170 0.33920 0.19000
H 	H 	0.57410 0.30530 0.37600 -0.10600
H 	H 	0.18980 0.31300 0.26820 0.02000
H 	H 	0.03440 0.29060 0.24040 0.03000
H 	H 	0.72620 0.51780 0.37060 0.33500
H 	H 	0.56450 0.52690 0.40340 0.35300
H 	H 	0.70330 0.56500 0.39230 0.33100
H 	H 	0.27700 0.62950 0.48240 0.35100
H 	H 	0.29250 0.60820 0.43490 0.33900
H 	H 	0.43650 0.59650 0.47160 0.36200
H 	H 	0.48850 0.04010 0.03980 -0.02400
H 	H 	0.70380 0.07800 0.07850 0.16000
H 	H 	0.30300 0.13960 0.13950 0.14500
H 	H 	0.10540 0.10080 0.10060 -0.04500
H 	H 	0.72450 0.05670 0.15870 0.29900
H 	H 	0.80450 0.06850 0.20560 0.29800
H 	H 	0.93550 0.06120 0.16500 0.30300
H 	H 	0.03080 0.12660 0.20290 0.20100
H 	H 	0.78140 0.23830 0.16080 0.19000
H 	H 	0.57410 0.19470 0.12400 -0.10600
H 	H 	0.18980 0.18700 0.23180 0.02000
H 	H 	0.03440 0.20940 0.25960 0.03000
H 	H 	0.72620 0.98220 0.12940 0.33500
H 	H 	0.56450 0.97310 0.09660 0.35200
H 	H 	0.70330 0.93500 0.10770 0.33000
H 	H 	0.27700 0.87050 0.01760 0.35100
H 	H 	0.29250 0.89180 0.06510 0.33900
H 	H 	0.43650 0.90350 0.02840 0.36200
H 	H 	0.98850 0.53980 0.95990 -0.02400
H 	H 	0.20380 0.57850 0.92200 0.15900
H 	H 	0.80300 0.63950 0.86040 0.14600
H 	H 	0.60540 0.60060 0.89920 -0.04500
H 	H 	0.22450 0.65870 0.94330 0.30000
H 	H 	0.30450 0.70560 0.93150 0.29800
H 	H 	0.43550 0.66500 0.93880 0.30300
H 	H 	0.53080 0.70290 0.87340 0.20500
H 	H 	0.28140 0.66080 0.76170 0.19000
H 	H 	0.07410 0.62400 0.80530 -0.10600
H 	H 	0.68980 0.73180 0.81300 0.02100
H 	H 	0.53440 0.75960 0.79060 0.03100
H 	H 	0.22620 0.62940 0.01780 0.33500
H 	H 	0.06450 0.59660 0.02690 0.35300
H 	H 	0.20330 0.60770 0.06500 0.33000
H 	H 	0.77700 0.51760 0.12950 0.35100
H 	H 	0.79250 0.56510 0.10820 0.33900
H 	H 	0.93650 0.52840 0.09650 0.36200
H 	H 	0.98850 0.96020 0.54010 -0.02400
H 	H 	0.20380 0.92150 0.57800 0.15900
H 	H 	0.80300 0.86050 0.63960 0.14600
H 	H 	0.60540 0.89940 0.60080 -0.04500
H 	H 	0.22450 0.84130 0.55670 0.30000
H 	H 	0.30450 0.79440 0.56850 0.29800
H 	H 	0.43550 0.83500 0.56120 0.30300
H 	H 	0.53080 0.79710 0.62660 0.20500
H 	H 	0.28140 0.83920 0.73830 0.19000
H 	H 	0.07410 0.87600 0.69470 -0.10600
H 	H 	0.68980 0.76820 0.68700 0.02100
H 	H 	0.53440 0.74040 0.70940 0.03100
H 	H 	0.22620 0.87060 0.48220 0.33500
H 	H 	0.06450 0.90340 0.47310 0.35300
H 	H 	0.20330 0.89230 0.43500 0.33100
H 	H 	0.77700 0.98240 0.37050 0.35100
H 	H 	0.79250 0.93490 0.39180 0.33900
H 	H 	0.93650 0.97160 0.40350 0.36200
C 	C 	0.46680 0.61321 0.61374 0.32500
C 	C 	0.54940 0.56084 0.56089 0.16700
C 	C 	0.41880 0.58354 0.58393 -0.35200
C 	C 	0.65440 0.61889 0.61900 -0.33700
C 	C 	0.77120 0.59583 0.59583 0.19900
C 	C 	0.33030 0.63960 0.63942 -0.46400
C 	C 	0.07480 0.68583 0.68580 0.38400
C 	C 	0.19210 0.61940 0.66343 0.53600
C 	C 	0.18100 0.57250 0.67410 -0.97500
C 	C 	0.06040 0.64130 0.68720 -0.53200
C 	C 	0.21090 0.70740 0.66190 -0.42200
C 	C 	0.33340 0.68070 0.63980 0.38200
C 	C 	0.87780 0.71440 0.73600 0.06200
C 	C 	0.31040 0.46650 0.60306 -1.10800
C 	C 	0.19780 0.48025 0.56605 0.67500
C 	C 	0.80110 0.43386 0.51941 0.68600
C 	C 	0.68930 0.39680 0.53390 -1.12700
C 	C 	0.46680 0.88679 0.88626 0.32500
C 	C 	0.54940 0.93916 0.93911 0.16700
C 	C 	0.41880 0.91646 0.91607 -0.35200
C 	C 	0.65440 0.88111 0.88100 -0.33700
C 	C 	0.77120 0.90417 0.90417 0.19900
C 	C 	0.33030 0.86040 0.86058 -0.46400
C 	C 	0.07480 0.81417 0.81420 0.38400
C 	C 	0.19210 0.88060 0.83657 0.53600
C 	C 	0.18100 0.92750 0.82590 -0.97500
C 	C 	0.06040 0.85870 0.81280 -0.53100
C 	C 	0.21090 0.79260 0.83810 -0.42200
C 	C 	0.33340 0.81930 0.86020 0.38200
C 	C 	0.87780 0.78560 0.76400 0.06200
C 	C 	0.31040 0.03350 0.89694 -1.10700
C 	C 	0.19780 0.01975 0.93395 0.67400
C 	C 	0.80110 0.06614 0.98059 0.68500
C 	C 	0.68930 0.10320 0.96610 -1.12600
C 	C 	0.96680 0.38626 0.11321 0.32700
C 	C 	0.04940 0.43911 0.06084 0.16600
C 	C 	0.91880 0.41607 0.08354 -0.35200
C 	C 	0.15440 0.38100 0.11889 -0.34000
C 	C 	0.27120 0.40417 0.09583 0.20000
C 	C 	0.83030 0.36058 0.13960 -0.46600
C 	C 	0.57480 0.31420 0.18583 0.38400
C 	C 	0.69210 0.33657 0.11940 0.53900
C 	C 	0.68100 0.32590 0.07250 -0.97800
C 	C 	0.56040 0.31280 0.14130 -0.53600
C 	C 	0.71090 0.33810 0.20740 -0.42300
C 	C 	0.83340 0.36020 0.18070 0.38300
C 	C 	0.37780 0.26400 0.21440 0.06200
C 	C 	0.81040 0.39694 0.96650 -1.10800
C 	C 	0.69780 0.43395 0.98025 0.67500
C 	C 	0.30110 0.48059 0.93386 0.68600
C 	C 	0.18930 0.46610 0.89680 -1.12800
C 	C 	0.96680 0.11374 0.38679 0.32700
C 	C 	0.04940 0.06089 0.43916 0.16600
C 	C 	0.91880 0.08393 0.41646 -0.35200
C 	C 	0.15440 0.11900 0.38111 -0.34000
C 	C 	0.27120 0.09583 0.40417 0.20000
C 	C 	0.83030 0.13942 0.36040 -0.46600
C 	C 	0.57480 0.18580 0.31417 0.38400
C 	C 	0.69210 0.16343 0.38060 0.53800
C 	C 	0.68100 0.17410 0.42750 -0.97700
C 	C 	0.56040 0.18720 0.35870 -0.53500
C 	C 	0.71090 0.16190 0.29260 -0.42300
C 	C 	0.83340 0.13980 0.31930 0.38300
C 	C 	0.37780 0.23600 0.28560 0.06200
C 	C 	0.81040 0.10306 0.53350 -1.10800
C 	C 	0.69780 0.06605 0.51975 0.67600
C 	C 	0.30110 0.01941 0.56614 0.68600
C 	C 	0.18930 0.03390 0.60320 -1.12700
C 	C 	0.53320 0.38679 0.38626 0.32500
C 	C 	0.45060 0.43916 0.43911 0.16700
C 	C 	0.58120 0.41646 0.41607 -0.35200
C 	C 	0.34560 0.38111 0.38100 -0.33700
C 	C 	0.22880 0.40417 0.40417 0.19900
C 	C 	0.66970 0.36040 0.36058 -0.46400
C 	C 	0.92520 0.31417 0.31420 0.38400
C 	C 	0.80790 0.38060 0.33657 0.53600
C 	C 	0.81900 0.42750 0.32590 -0.97500
C 	C 	0.93960 0.35870 0.31280 -0.53200
C 	C 	0.78910 0.29260 0.33810 -0.42200
C 	C 	0.66660 0.31930 0.36020 0.38200
C 	C 	0.12220 0.28560 0.26400 0.06200
C 	C 	0.68960 0.53350 0.39694 -1.10800
C 	C 	0.80220 0.51975 0.43395 0.67500
C 	C 	0.19890 0.56614 0.48059 0.68600
C 	C 	0.31070 0.60320 0.46610 -1.12700
C 	C 	0.53320 0.11321 0.11374 0.32500
C 	C 	0.45060 0.06084 0.06089 0.16700
C 	C 	0.58120 0.08354 0.08393 -0.35200
C 	C 	0.34560 0.11889 0.11900 -0.33700
C 	C 	0.22880 0.09583 0.09583 0.19900
C 	C 	0.66970 0.13960 0.13942 -0.46400
C 	C 	0.92520 0.18583 0.18580 0.38400
C 	C 	0.80790 0.11940 0.16343 0.53600
C 	C 	0.81900 0.07250 0.17410 -0.97500
C 	C 	0.93960 0.14130 0.18720 -0.53100
C 	C 	0.78910 0.20740 0.16190 -0.42200
C 	C 	0.66660 0.18070 0.13980 0.38200
C 	C 	0.12220 0.21440 0.23600 0.06200
C 	C 	0.68960 0.96650 0.10306 -1.10700
C 	C 	0.80220 0.98025 0.06605 0.67400
C 	C 	0.19890 0.93386 0.01941 0.68500
C 	C 	0.31070 0.89680 0.03390 -1.12600
C 	C 	0.03320 0.61374 0.88679 0.32700
C 	C 	0.95060 0.56089 0.93916 0.16600
C 	C 	0.08120 0.58393 0.91646 -0.35200
C 	C 	0.84560 0.61900 0.88111 -0.34000
C 	C 	0.72880 0.59583 0.90417 0.20000
C 	C 	0.16970 0.63942 0.86040 -0.46600
C 	C 	0.42520 0.68580 0.81417 0.38400
C 	C 	0.30790 0.66343 0.88060 0.53900
C 	C 	0.31900 0.67410 0.92750 -0.97800
C 	C 	0.43960 0.68720 0.85870 -0.53600
C 	C 	0.28910 0.66190 0.79260 -0.42300
C 	C 	0.16660 0.63980 0.81930 0.38300
C 	C 	0.62220 0.73600 0.78560 0.06200
C 	C 	0.18960 0.60306 0.03350 -1.10800
C 	C 	0.30220 0.56605 0.01975 0.67500
C 	C 	0.69890 0.51941 0.06614 0.68600
C 	C 	0.81070 0.53390 0.10320 -1.12800
C 	C 	0.03320 0.88626 0.61321 0.32700
C 	C 	0.95060 0.93911 0.56084 0.16600
C 	C 	0.08120 0.91607 0.58354 -0.35200
C 	C 	0.84560 0.88100 0.61889 -0.34000
C 	C 	0.72880 0.90417 0.59583 0.20000
C 	C 	0.16970 0.86058 0.63960 -0.46600
C 	C 	0.42520 0.81420 0.68583 0.38400
C 	C 	0.30790 0.83657 0.61940 0.53800
C 	C 	0.31900 0.82590 0.57250 -0.97700
C 	C 	0.43960 0.81280 0.64130 -0.53500
C 	C 	0.28910 0.83810 0.70740 -0.42300
C 	C 	0.16660 0.86020 0.68070 0.38300
C 	C 	0.62220 0.76400 0.71440 0.06200
C 	C 	0.18960 0.89694 0.46650 -1.10800
C 	C 	0.30220 0.93395 0.48025 0.67600
C 	C 	0.69890 0.98059 0.43386 0.68600
C 	C 	0.81070 0.96610 0.39680 -1.12700
C 	C 	0.75000 0.75000 0.75000 -0.04500
C 	C 	0.25000 0.25000 0.25000 -0.04500
N 	N 	0.72480 0.56638 0.56649 -0.23800
N 	N 	0.72480 0.93362 0.93351 -0.23800
N 	N 	0.22480 0.43351 0.06638 -0.23800
N 	N 	0.22480 0.06649 0.43362 -0.23800
N 	N 	0.27520 0.43362 0.43351 -0.23800
N 	N 	0.27520 0.06638 0.06649 -0.23800
N 	N 	0.77520 0.56649 0.93362 -0.23800
N 	N 	0.77520 0.93351 0.56638 -0.23800
O 	O 	0.76680 0.47057 0.53651 -0.51100
O 	O 	0.07530 0.50824 0.57227 -0.51500
O 	O 	0.92490 0.42781 0.49168 -0.51100
O 	O 	0.23460 0.46341 0.52915 -0.50600
O 	O 	0.96840 0.72400 0.69790 -0.27300
O 	O 	0.76680 0.02943 0.96349 -0.51100
O 	O 	0.07530 0.99176 0.92773 -0.51400
O 	O 	0.92490 0.07219 0.00832 -0.51000
O 	O 	0.23460 0.03659 0.97085 -0.50500
O 	O 	0.96840 0.77600 0.80210 -0.27400
O 	O 	0.26680 0.46349 0.97057 -0.51100
O 	O 	0.57530 0.42773 0.00824 -0.51500
O 	O 	0.42490 0.50832 0.92781 -0.51100
O 	O 	0.73460 0.47085 0.96341 -0.50600
O 	O 	0.46840 0.30210 0.22400 -0.27200
O 	O 	0.26680 0.03651 0.52943 -0.51100
O 	O 	0.57530 0.07227 0.49176 -0.51500
O 	O 	0.42490 0.99168 0.57219 -0.51100
O 	O 	0.73460 0.02915 0.53659 -0.50500
O 	O 	0.46840 0.19790 0.27600 -0.27200
O 	O 	0.23320 0.52943 0.46349 -0.51100
O 	O 	0.92470 0.49176 0.42773 -0.51500
O 	O 	0.07510 0.57219 0.50832 -0.51100
O 	O 	0.76540 0.53659 0.47085 -0.50600
O 	O 	0.03160 0.27600 0.30210 -0.27300
O 	O 	0.23320 0.97057 0.03651 -0.51100
O 	O 	0.92470 0.00824 0.07227 -0.51400
O 	O 	0.07510 0.92781 0.99168 -0.51000
O 	O 	0.76540 0.96341 0.02915 -0.50500
O 	O 	0.03160 0.22400 0.19790 -0.27400
O 	O 	0.73320 0.53651 0.02943 -0.51100
O 	O 	0.42470 0.57227 0.99176 -0.51500
O 	O 	0.57510 0.49168 0.07219 -0.51100
O 	O 	0.26540 0.52915 0.03659 -0.50600
O 	O 	0.53160 0.69790 0.77600 -0.27200
O 	O 	0.73320 0.96349 0.47057 -0.51100
O 	O 	0.42470 0.92773 0.50824 -0.51500
O 	O 	0.57510 0.00832 0.42781 -0.51100
O 	O 	0.26540 0.97085 0.46341 -0.50500
O 	O 	0.53160 0.80210 0.72400 -0.27200
