data_crystal

_cell_length_a 20.55110
_cell_length_b 21.50040
_cell_length_c 14.06810
_cell_angle_alpha 90.00000
_cell_angle_beta  130.54700
_cell_angle_gamma 90.00000

_symmetry_space_group_name_	'P 1'
_symmetry_space_group_name_H-M	'P 1'

loop_
_symmetry_equiv_pos_as_xyz
  x,y,z

loop_
_atom_site_label
_atom_site_type_symbol
_atom_site_fract_x
_atom_site_fract_y
_atom_site_fract_z
_atom_site_charge
O 	O 	0.87250 0.97780 0.14460 -0.36500
O 	O 	0.95280 0.95969 0.09610 -0.45700
O 	O 	0.58820 0.61760 0.39200 -0.42500
O 	O 	0.49280 0.58915 0.40870 -0.51800
C 	C 	0.83460 0.87210 0.91180 0.04500
H 	H 	0.87500 0.88750 0.90760 0.01200
C 	C 	0.82880 0.89580 0.99870 -0.11100
C 	C 	0.76850 0.87230 0.00500 0.02400
H 	H 	0.76490 0.88890 0.06250 0.03300
C 	C 	0.71350 0.82420 0.92630 -0.10400
H 	H 	0.67450 0.80770 0.93230 0.07100
C 	C 	0.60200 0.71490 0.71070 -0.12500
H 	H 	0.58210 0.71810 0.75390 0.07600
C 	C 	0.56590 0.67270 0.61450 0.03700
H 	H 	0.52210 0.64680 0.59390 0.01400
C 	C 	0.59440 0.66830 0.54730 -0.15500
C 	C 	0.66170 0.70610 0.57990 0.04800
H 	H 	0.68140 0.70320 0.53640 0.00000
C 	C 	0.77440 0.79240 0.73270 0.30100
C 	C 	0.77850 0.82480 0.83150 -0.10700
C 	C 	0.71840 0.80130 0.83790 0.04000
C 	C 	0.66870 0.75290 0.74250 0.04400
C 	C 	0.69880 0.74800 0.67770 -0.12300
C 	C 	0.88750 0.94760 0.08480 0.34500
C 	C 	0.55670 0.62230 0.44320 0.33100
C 	C 	0.86010 0.75380 0.79670 -0.49000
H 	H 	0.85380 0.73070 0.73190 0.16200
H 	H 	0.90670 0.78310 0.83210 0.19300
C 	C 	0.88410 0.71120 0.89250 0.33600
H 	H 	0.83670 0.68330 0.86030 -0.07700
H 	H 	0.89650 0.73410 0.96210 -0.05900
C 	C 	0.96300 0.67300 0.93880 -0.53900
H 	H 	0.97680 0.64420 0.00180 0.19500
H 	H 	0.01060 0.70040 0.97370 0.14200
H 	H 	0.95100 0.65050 0.87000 0.18200
C 	C 	0.76110 0.83590 0.63650 -0.68700
H 	H 	0.80980 0.86380 0.67890 0.24000
H 	H 	0.75990 0.81140 0.57750 0.22500
C 	C 	0.68500 0.87230 0.56860 0.62700
H 	H 	0.68630 0.89790 0.62660 -0.16400
H 	H 	0.63580 0.84490 0.52630 -0.18400
C 	C 	0.67480 0.91570 0.46840 -1.05200
H 	H 	0.62320 0.93970 0.42530 0.32800
H 	H 	0.67170 0.89040 0.40940 0.32100
H 	H 	0.72310 0.94310 0.51000 0.35500
O 	O 	0.37250 0.47780 0.14460 -0.42000
O 	O 	0.45280 0.45969 0.09610 -0.52700
O 	O 	0.08820 0.11760 0.39200 -0.42700
O 	O 	0.99280 0.08915 0.40870 -0.44100
C 	C 	0.33460 0.37210 0.91180 0.06400
H 	H 	0.37500 0.38750 0.90760 -0.00800
C 	C 	0.32880 0.39580 0.99870 -0.14000
C 	C 	0.26850 0.37230 0.00500 0.03600
H 	H 	0.26490 0.38890 0.06250 0.01800
C 	C 	0.21350 0.32420 0.92630 -0.12100
H 	H 	0.17450 0.30770 0.93230 0.07100
C 	C 	0.10200 0.21490 0.71070 -0.12300
H 	H 	0.08210 0.21810 0.75390 0.06100
C 	C 	0.06590 0.17270 0.61450 0.02300
H 	H 	0.02210 0.14680 0.59390 -0.01100
C 	C 	0.09440 0.16830 0.54730 -0.14200
C 	C 	0.16170 0.20610 0.57990 0.05100
H 	H 	0.18140 0.20320 0.53640 -0.00500
C 	C 	0.27440 0.29240 0.73270 0.37100
C 	C 	0.27850 0.32480 0.83150 -0.13600
C 	C 	0.21840 0.30130 0.83790 0.05100
C 	C 	0.16870 0.25290 0.74250 0.04400
C 	C 	0.19880 0.24800 0.67770 -0.13600
C 	C 	0.38750 0.44760 0.08480 0.35700
C 	C 	0.05670 0.12230 0.44320 0.24400
C 	C 	0.36010 0.25380 0.79670 -0.74100
H 	H 	0.35380 0.23070 0.73190 0.22900
H 	H 	0.40670 0.28310 0.83210 0.25100
C 	C 	0.38410 0.21120 0.89250 0.74700
H 	H 	0.33670 0.18330 0.86030 -0.20500
H 	H 	0.39650 0.23410 0.96210 -0.19600
C 	C 	0.46300 0.17300 0.93880 -1.17000
H 	H 	0.47680 0.14420 0.00180 0.35300
H 	H 	0.51060 0.20040 0.97370 0.38000
H 	H 	0.45100 0.15050 0.87000 0.34700
C 	C 	0.26110 0.33590 0.63650 -0.71200
H 	H 	0.30980 0.36380 0.67890 0.23900
H 	H 	0.25990 0.31140 0.57750 0.22900
C 	C 	0.18500 0.37230 0.56860 0.61200
H 	H 	0.18630 0.39790 0.62660 -0.17300
H 	H 	0.13580 0.34490 0.52630 -0.18300
C 	C 	0.17480 0.41570 0.46840 -0.98900
H 	H 	0.12320 0.43970 0.42530 0.28300
H 	H 	0.17170 0.39040 0.40940 0.28700
H 	H 	0.22310 0.44310 0.51000 0.31600
O 	O 	0.12750 0.97780 0.35540 -0.40100
O 	O 	0.04720 0.95969 0.40390 -0.53000
O 	O 	0.41180 0.61760 0.10800 -0.42600
O 	O 	0.50720 0.58915 0.09130 -0.52100
C 	C 	0.16540 0.87210 0.58820 0.11200
H 	H 	0.12500 0.88750 0.59240 -0.02800
C 	C 	0.17120 0.89580 0.50130 -0.17200
C 	C 	0.23150 0.87230 0.49500 0.07900
H 	H 	0.23510 0.88890 0.43750 0.01100
C 	C 	0.28650 0.82420 0.57370 -0.14900
H 	H 	0.32550 0.80770 0.56770 0.08400
C 	C 	0.39800 0.71490 0.78930 -0.13700
H 	H 	0.41790 0.71810 0.74610 0.08000
C 	C 	0.43410 0.67270 0.88550 0.05300
H 	H 	0.47790 0.64680 0.90610 0.01000
C 	C 	0.40560 0.66830 0.95270 -0.17200
C 	C 	0.33830 0.70610 0.92010 0.09500
H 	H 	0.31860 0.70320 0.96360 -0.01700
C 	C 	0.22560 0.79240 0.76730 0.53200
C 	C 	0.22150 0.82480 0.66850 -0.19400
C 	C 	0.28160 0.80130 0.66210 0.08000
C 	C 	0.33130 0.75290 0.75750 0.06200
C 	C 	0.30120 0.74800 0.82230 -0.18900
C 	C 	0.11250 0.94760 0.41520 0.37000
C 	C 	0.44330 0.62230 0.05680 0.33300
C 	C 	0.13990 0.75380 0.70330 -1.12900
H 	H 	0.14620 0.73070 0.76810 0.33700
H 	H 	0.09330 0.78310 0.66790 0.34700
C 	C 	0.11590 0.71120 0.60750 1.33600
H 	H 	0.16330 0.68330 0.63970 -0.38100
H 	H 	0.10350 0.73410 0.53790 -0.38600
C 	C 	0.03700 0.67300 0.56120 -2.02700
H 	H 	0.02320 0.64420 0.49820 0.60300
H 	H 	0.98940 0.70040 0.52630 0.68500
H 	H 	0.04900 0.65050 0.63000 0.58700
C 	C 	0.23890 0.83590 0.86350 -0.91000
H 	H 	0.19020 0.86380 0.82110 0.29900
H 	H 	0.24010 0.81140 0.92250 0.28800
C 	C 	0.31500 0.87230 0.93140 0.82000
H 	H 	0.31370 0.89790 0.87340 -0.22400
H 	H 	0.36420 0.84490 0.97370 -0.24400
C 	C 	0.32520 0.91570 0.03160 -1.22700
H 	H 	0.37680 0.93970 0.07470 0.38000
H 	H 	0.32830 0.89040 0.09060 0.37200
H 	H 	0.27690 0.94310 0.99000 0.40500
O 	O 	0.62750 0.47780 0.35540 -0.42300
O 	O 	0.54720 0.45969 0.40390 -0.52800
O 	O 	0.91180 0.11760 0.10800 -0.43300
O 	O 	0.00720 0.08915 0.09130 -0.60500
C 	C 	0.66540 0.37210 0.58820 0.09500
H 	H 	0.62500 0.38750 0.59240 -0.01900
C 	C 	0.67120 0.39580 0.50130 -0.16700
C 	C 	0.73150 0.37230 0.49500 0.07300
H 	H 	0.73510 0.38890 0.43750 0.00700
C 	C 	0.78650 0.32420 0.57370 -0.14300
H 	H 	0.82550 0.30770 0.56770 0.08300
C 	C 	0.89800 0.21490 0.78930 -0.13000
H 	H 	0.91790 0.21810 0.74610 0.09200
C 	C 	0.93410 0.17270 0.88550 0.05700
H 	H 	0.97790 0.14680 0.90610 0.03800
C 	C 	0.90560 0.16830 0.95270 -0.17600
C 	C 	0.83830 0.20610 0.92010 0.08100
H 	H 	0.81860 0.20320 0.96360 -0.00600
C 	C 	0.72560 0.29240 0.76730 0.44100
C 	C 	0.72150 0.32480 0.66850 -0.16700
C 	C 	0.78160 0.30130 0.66210 0.07200
C 	C 	0.83130 0.25290 0.75750 0.05400
C 	C 	0.80120 0.24800 0.82230 -0.16500
C 	C 	0.61250 0.44760 0.41520 0.37100
C 	C 	0.94330 0.12230 0.05680 0.40900
C 	C 	0.63990 0.25380 0.70330 -0.84000
H 	H 	0.64620 0.23070 0.76810 0.26100
H 	H 	0.59330 0.28310 0.66790 0.27900
C 	C 	0.61590 0.21120 0.60750 0.87100
H 	H 	0.66330 0.18330 0.63970 -0.24200
H 	H 	0.60350 0.23410 0.53790 -0.23500
C 	C 	0.53700 0.17300 0.56120 -1.32200
H 	H 	0.52320 0.14420 0.49820 0.40600
H 	H 	0.48940 0.20040 0.52630 0.42500
H 	H 	0.54900 0.15050 0.63000 0.39400
C 	C 	0.73890 0.33590 0.86350 -0.84500
H 	H 	0.69020 0.36380 0.82110 0.27900
H 	H 	0.74010 0.31140 0.92250 0.27400
C 	C 	0.81500 0.37230 0.93140 0.78400
H 	H 	0.81370 0.39790 0.87340 -0.21600
H 	H 	0.86420 0.34490 0.97370 -0.22900
C 	C 	0.82520 0.41570 0.03160 -1.21500
H 	H 	0.87680 0.43970 0.07470 0.37600
H 	H 	0.82830 0.39040 0.09060 0.37300
H 	H 	0.77690 0.44310 0.99000 0.39200
O 	O 	0.12750 0.02220 0.85540 -0.46800
O 	O 	0.04720 0.04031 0.90390 -0.57800
O 	O 	0.41180 0.38240 0.60800 -0.42600
O 	O 	0.50720 0.41085 0.59130 -0.52100
C 	C 	0.16540 0.12790 0.08820 0.12700
H 	H 	0.12500 0.11250 0.09240 -0.04300
C 	C 	0.17120 0.10420 0.00130 -0.22100
C 	C 	0.23150 0.12770 0.99500 0.11800
H 	H 	0.23510 0.11110 0.93750 -0.01600
C 	C 	0.28650 0.17580 0.07370 -0.18800
H 	H 	0.32550 0.19230 0.06770 0.09000
C 	C 	0.39800 0.28510 0.28930 -0.13100
H 	H 	0.41790 0.28190 0.24610 0.07500
C 	C 	0.43410 0.32730 0.38550 0.05000
H 	H 	0.47790 0.35320 0.40610 0.00900
C 	C 	0.40560 0.33170 0.45270 -0.17200
C 	C 	0.33830 0.29390 0.42010 0.09000
H 	H 	0.31860 0.29680 0.46360 -0.01600
C 	C 	0.22560 0.20760 0.26730 0.51000
C 	C 	0.22150 0.17520 0.16850 -0.20500
C 	C 	0.28160 0.19870 0.16210 0.09200
C 	C 	0.33130 0.24710 0.25750 0.05100
C 	C 	0.30120 0.25200 0.32230 -0.18000
C 	C 	0.11250 0.05240 0.91520 0.39300
C 	C 	0.44330 0.37770 0.55680 0.33600
C 	C 	0.13990 0.24620 0.20330 -1.10700
H 	H 	0.14620 0.26930 0.26810 0.33100
H 	H 	0.09330 0.21690 0.16790 0.34100
C 	C 	0.11590 0.28880 0.10750 1.31400
H 	H 	0.16330 0.31670 0.13970 -0.37400
H 	H 	0.10350 0.26590 0.03790 -0.38000
C 	C 	0.03700 0.32700 0.06120 -2.00400
H 	H 	0.02320 0.35580 0.99820 0.59800
H 	H 	0.98940 0.29960 0.02630 0.67500
H 	H 	0.04900 0.34950 0.13000 0.58100
C 	C 	0.23890 0.16410 0.36350 -0.84500
H 	H 	0.19020 0.13620 0.32110 0.27200
H 	H 	0.24010 0.18860 0.42250 0.26800
C 	C 	0.31500 0.12770 0.43140 0.72600
H 	H 	0.31370 0.10210 0.37340 -0.21300
H 	H 	0.36420 0.15510 0.47370 -0.21800
C 	C 	0.32520 0.08430 0.53160 -1.08400
H 	H 	0.37680 0.06030 0.57470 0.31300
H 	H 	0.32830 0.10960 0.59060 0.32100
H 	H 	0.27690 0.05690 0.49000 0.33000
O 	O 	0.62750 0.52220 0.85540 -0.42600
O 	O 	0.54720 0.54031 0.90390 -0.52900
O 	O 	0.91180 0.88240 0.60800 -0.41600
O 	O 	0.00720 0.91085 0.59130 -0.57600
C 	C 	0.66540 0.62790 0.08820 0.10600
H 	H 	0.62500 0.61250 0.09240 -0.02400
C 	C 	0.67120 0.60420 0.00130 -0.18800
C 	C 	0.73150 0.62770 0.99500 0.09800
H 	H 	0.73510 0.61110 0.93750 -0.00100
C 	C 	0.78650 0.67580 0.07370 -0.16300
H 	H 	0.82550 0.69230 0.06770 0.08700
C 	C 	0.89800 0.78510 0.28930 -0.13100
H 	H 	0.91790 0.78190 0.24610 0.09000
C 	C 	0.93410 0.82730 0.38550 0.06200
H 	H 	0.97790 0.85320 0.40610 0.03600
C 	C 	0.90560 0.83170 0.45270 -0.18100
C 	C 	0.83830 0.79390 0.42010 0.08600
H 	H 	0.81860 0.79680 0.46360 -0.01100
C 	C 	0.72560 0.70760 0.26730 0.44200
C 	C 	0.72150 0.67520 0.16850 -0.17400
C 	C 	0.78160 0.69870 0.16210 0.07900
C 	C 	0.83130 0.74710 0.25750 0.05200
C 	C 	0.80120 0.75200 0.32230 -0.16700
C 	C 	0.61250 0.55240 0.91520 0.38100
C 	C 	0.94330 0.87770 0.55680 0.41900
C 	C 	0.63990 0.74620 0.20330 -0.86500
H 	H 	0.64620 0.76930 0.26810 0.26700
H 	H 	0.59330 0.71690 0.16790 0.28600
C 	C 	0.61590 0.78880 0.10750 0.91700
H 	H 	0.66330 0.81670 0.13970 -0.25000
H 	H 	0.60350 0.76590 0.03790 -0.24800
C 	C 	0.53700 0.82700 0.06120 -1.39700
H 	H 	0.52320 0.85580 0.99820 0.44500
H 	H 	0.48940 0.79960 0.02630 0.44900
H 	H 	0.54900 0.84950 0.13000 0.42300
C 	C 	0.73890 0.66410 0.36350 -0.82000
H 	H 	0.69020 0.63620 0.32110 0.27100
H 	H 	0.74010 0.68860 0.42250 0.26500
C 	C 	0.81500 0.62770 0.43140 0.73900
H 	H 	0.81370 0.60210 0.37340 -0.20400
H 	H 	0.86420 0.65510 0.47370 -0.21800
C 	C 	0.82520 0.58430 0.53160 -1.14600
H 	H 	0.87680 0.56030 0.57470 0.35800
H 	H 	0.82830 0.60960 0.59060 0.35400
H 	H 	0.77690 0.55690 0.49000 0.36800
O 	O 	0.87250 0.02220 0.64460 -0.43000
O 	O 	0.95280 0.04031 0.59610 -0.50100
O 	O 	0.58820 0.38240 0.89200 -0.42600
O 	O 	0.49280 0.41085 0.90870 -0.51800
C 	C 	0.83460 0.12790 0.41180 0.05000
H 	H 	0.87500 0.11250 0.40760 0.00200
C 	C 	0.82880 0.10420 0.49870 -0.14500
C 	C 	0.76850 0.12770 0.50500 0.04800
H 	H 	0.76490 0.11110 0.56250 0.01000
C 	C 	0.71350 0.17580 0.42630 -0.13000
H 	H 	0.67450 0.19230 0.43230 0.07300
C 	C 	0.60200 0.28510 0.21070 -0.12200
H 	H 	0.58210 0.28190 0.25390 0.07200
C 	C 	0.56590 0.32730 0.11450 0.03600
H 	H 	0.52210 0.35320 0.09390 0.01200
C 	C 	0.59440 0.33170 0.04730 -0.16000
C 	C 	0.66170 0.29390 0.07990 0.04400
H 	H 	0.68140 0.29680 0.03640 -0.00100
C 	C 	0.77440 0.20760 0.23270 0.26800
C 	C 	0.77850 0.17520 0.33150 -0.10800
C 	C 	0.71840 0.19870 0.33790 0.04400
C 	C 	0.66870 0.24710 0.24250 0.03600
C 	C 	0.69880 0.25200 0.17770 -0.11400
C 	C 	0.88750 0.05240 0.58480 0.36000
C 	C 	0.55670 0.37770 0.94320 0.33700
C 	C 	0.86010 0.24620 0.29670 -0.48000
H 	H 	0.85380 0.26930 0.23190 0.15800
H 	H 	0.90670 0.21690 0.33210 0.19100
C 	C 	0.88410 0.28880 0.39250 0.34500
H 	H 	0.83670 0.31670 0.36030 -0.08000
H 	H 	0.89650 0.26590 0.46210 -0.06100
C 	C 	0.96300 0.32700 0.43880 -0.57200
H 	H 	0.97680 0.35580 0.50180 0.21100
H 	H 	0.01060 0.29960 0.47370 0.15300
H 	H 	0.95100 0.34950 0.37000 0.19100
C 	C 	0.76110 0.16410 0.13650 -0.57600
H 	H 	0.80980 0.13620 0.17890 0.19800
H 	H 	0.75990 0.18860 0.07750 0.19000
C 	C 	0.68500 0.12770 0.06860 0.46200
H 	H 	0.68630 0.10210 0.12660 -0.13200
H 	H 	0.63580 0.15510 0.02630 -0.13900
C 	C 	0.67480 0.08430 0.96840 -0.80900
H 	H 	0.62320 0.06030 0.92530 0.23200
H 	H 	0.67170 0.10960 0.90940 0.24200
H 	H 	0.72310 0.05690 0.01000 0.24500
O 	O 	0.37250 0.52220 0.64460 -0.42200
O 	O 	0.45280 0.54031 0.59610 -0.52800
O 	O 	0.08820 0.88240 0.89200 -0.40800
O 	O 	0.99280 0.91085 0.90870 -0.41100
C 	C 	0.33460 0.62790 0.41180 0.08000
H 	H 	0.37500 0.61250 0.40760 -0.01400
C 	C 	0.32880 0.60420 0.49870 -0.16200
C 	C 	0.26850 0.62770 0.50500 0.06400
H 	H 	0.26490 0.61110 0.56250 0.01000
C 	C 	0.21350 0.67580 0.42630 -0.14300
H 	H 	0.17450 0.69230 0.43230 0.07800
C 	C 	0.10200 0.78510 0.21070 -0.11900
H 	H 	0.08210 0.78190 0.25390 0.05900
C 	C 	0.06590 0.82730 0.11450 0.02200
H 	H 	0.02210 0.85320 0.09390 -0.00600
C 	C 	0.09440 0.83170 0.04730 -0.13300
C 	C 	0.16170 0.79390 0.07990 0.05300
H 	H 	0.18140 0.79680 0.03640 -0.00500
C 	C 	0.27440 0.70760 0.23270 0.38900
C 	C 	0.27850 0.67520 0.33150 -0.15000
C 	C 	0.21840 0.69870 0.33790 0.06300
C 	C 	0.16870 0.74710 0.24250 0.04100
C 	C 	0.19880 0.75200 0.17770 -0.13800
C 	C 	0.38750 0.55240 0.58480 0.36800
C 	C 	0.05670 0.87770 0.94320 0.24200
C 	C 	0.36010 0.74620 0.29670 -0.80100
H 	H 	0.35380 0.76930 0.23190 0.24600
H 	H 	0.40670 0.71690 0.33210 0.26800
C 	C 	0.38410 0.78880 0.39250 0.84400
H 	H 	0.33670 0.81670 0.36030 -0.22800
H 	H 	0.39650 0.76590 0.46210 -0.22400
C 	C 	0.46300 0.82700 0.43880 -1.31300
H 	H 	0.47680 0.85580 0.50180 0.41700
H 	H 	0.51060 0.79960 0.47370 0.42300
H 	H 	0.45100 0.84950 0.37000 0.39600
C 	C 	0.26110 0.66410 0.13650 -0.71800
H 	H 	0.30980 0.63620 0.17890 0.24000
H 	H 	0.25990 0.68860 0.07750 0.23000
C 	C 	0.18500 0.62770 0.06860 0.60800
H 	H 	0.18630 0.60210 0.12660 -0.17200
H 	H 	0.13580 0.65510 0.02630 -0.18200
C 	C 	0.17480 0.58430 0.96840 -0.97200
H 	H 	0.12320 0.56030 0.92530 0.27800
H 	H 	0.17170 0.60960 0.90940 0.28300
H 	H 	0.22310 0.55690 0.01000 0.30900
Cd	Cd	0.00000 0.04131 0.25000 1.18300
Cd	Cd	0.50000 0.54131 0.25000 1.22400
Cd	Cd	0.00000 0.95869 0.75000 1.22000
Cd	Cd	0.50000 0.45869 0.75000 1.22400
Cd	Cd	-0.00000 0.00000 -0.00000 1.15200
Cd	Cd	0.50000 0.50000 -0.00000 1.19400
Cd	Cd	0.00000 0.00000 0.50000 1.15300
Cd	Cd	0.50000 0.50000 0.50000 1.19600
