data_crystal

_cell_length_a 24.67300
_cell_length_b 24.91100
_cell_length_c 9.37250
_cell_angle_alpha 90.00000
_cell_angle_beta  90.00000
_cell_angle_gamma 90.00000

_symmetry_space_group_name_	'P 1'
_symmetry_space_group_name_H-M	'P 1'

loop_
_symmetry_equiv_pos_as_xyz
  x,y,z

loop_
_atom_site_label
_atom_site_type_symbol
_atom_site_fract_x
_atom_site_fract_y
_atom_site_fract_z
_atom_site_charge
Zn	Zn	0.79174 0.80232 0.88880 1.20700
Zn	Zn	0.50932 0.06104 0.63272 1.20100
O 	O 	0.58390 0.04210 0.60410 -0.43600
O 	O 	0.51780 0.11920 0.50130 -0.46100
O 	O 	0.75030 0.86150 0.79400 -0.46300
O 	O 	0.68160 0.84880 0.94860 -0.49900
O 	O 	0.30940 0.25100 0.30670 -0.37900
O 	O 	0.36990 0.28520 0.16940 -0.41600
N 	N 	0.49410 0.99680 0.74240 -0.28500
N 	N 	0.43220 0.07240 0.65500 -0.28300
C 	C 	0.40390 0.10880 0.59150 0.08700
H 	H 	0.36700 0.10990 0.61110 0.00800
C 	C 	0.42400 0.14670 0.49630 -0.17500
C 	C 	0.38620 0.18150 0.43010 0.08500
H 	H 	0.34970 0.17810 0.45310 0.03000
C 	C 	0.40150 0.22010 0.33290 -0.15100
C 	C 	0.45530 0.22350 0.29180 0.13900
H 	H 	0.46580 0.24830 0.22290 -0.00500
C 	C 	0.49260 0.19070 0.35210 -0.26300
H 	H 	0.52860 0.19490 0.32460 0.13000
C 	C 	0.48060 0.15050 0.45440 0.28000
C 	C 	0.35690 0.25320 0.26720 0.34000
C 	C 	0.52970 0.96330 0.78440 0.04900
H 	H 	0.51740 0.93580 0.84320 0.00400
C 	C 	0.58570 0.96280 0.75210 -0.15500
C 	C 	0.61930 0.92210 0.80590 0.05100
H 	H 	0.60380 0.89690 0.86670 0.02000
C 	C 	0.67270 0.91690 0.77550 -0.13100
C 	C 	0.69630 0.95440 0.68740 0.01900
H 	H 	0.73300 0.95110 0.66610 0.03400
C 	C 	0.66690 0.99790 0.62760 -0.07400
C 	C 	0.61020 0.00180 0.66150 0.18400
C 	C 	0.70400 0.87270 0.84550 0.37500
C 	C 	0.40820 0.03870 0.76700 -0.04500
H 	H 	0.41970 0.05310 0.85950 0.02500
C 	C 	0.32830 0.99560 0.89610 -0.08400
H 	H 	0.34020 0.01050 0.98640 0.02600
H 	H 	0.28930 0.99090 0.89870 -0.05000
C 	C 	0.35730 0.94150 0.86520 -0.06500
H 	H 	0.34740 0.92940 0.77030 0.03400
H 	H 	0.34460 0.91480 0.93280 0.02200
C 	C 	0.43510 0.98270 0.74770 0.00700
H 	H 	0.42370 0.96650 0.65730 0.01000
C 	C 	0.34510 0.03250 0.77010 -0.05600
H 	H 	0.32840 0.06750 0.78110 0.03700
H 	H 	0.33270 0.01710 0.68080 0.04700
C 	C 	0.42010 0.94530 0.87500 -0.01700
H 	H 	0.43680 0.91030 0.86460 -0.00700
H 	H 	0.43130 0.96090 0.96520 0.01700
C 	C 	0.36280 0.96540 0.94190 -0.04500
H 	H 	0.34870 0.93350 0.98830 0.02100
H 	H 	0.36950 0.99290 0.01300 0.05300
C 	C 	0.44210 0.00700 0.82510 -0.03100
H 	H 	0.45980 0.02300 0.90660 0.00600
C 	C 	0.40080 0.02070 0.70750 0.05100
H 	H 	0.41000 0.98890 0.65500 -0.00600
C 	C 	0.32470 0.98540 0.82450 0.03300
H 	H 	0.28770 0.98930 0.85780 0.07900
H 	H 	0.32550 0.96250 0.74070 0.00300
C 	C 	0.35220 0.03980 0.79800 -0.07300
H 	H 	0.36370 0.05660 0.88650 0.04900
H 	H 	0.32890 0.06420 0.74580 0.02600
C 	C 	0.41420 0.95280 0.85400 -0.10400
H 	H 	0.43810 0.92930 0.90780 0.05100
H 	H 	0.40460 0.93530 0.76550 0.06700
Zn	Zn	0.70826 0.69768 0.88880 1.20600
Zn	Zn	0.99068 0.43896 0.63272 1.20000
O 	O 	0.91610 0.45790 0.60410 -0.43700
O 	O 	0.98220 0.38080 0.50130 -0.46200
O 	O 	0.74970 0.63850 0.79400 -0.46400
O 	O 	0.81840 0.65120 0.94860 -0.50000
O 	O 	0.19060 0.24900 0.30670 -0.38000
O 	O 	0.13010 0.21480 0.16940 -0.41700
N 	N 	0.00590 0.50320 0.74240 -0.28600
N 	N 	0.06780 0.42760 0.65500 -0.28400
C 	C 	0.09610 0.39120 0.59150 0.08700
H 	H 	0.13300 0.39010 0.61110 0.00800
C 	C 	0.07600 0.35330 0.49630 -0.17500
C 	C 	0.11380 0.31850 0.43010 0.08400
H 	H 	0.15030 0.32190 0.45310 0.03000
C 	C 	0.09850 0.27990 0.33290 -0.15100
C 	C 	0.04470 0.27650 0.29180 0.13800
H 	H 	0.03420 0.25170 0.22290 -0.00400
C 	C 	0.00740 0.30930 0.35210 -0.26100
H 	H 	0.97140 0.30510 0.32460 0.13000
C 	C 	0.01940 0.34950 0.45440 0.28000
C 	C 	0.14310 0.24680 0.26720 0.33900
C 	C 	0.97030 0.53670 0.78440 0.04900
H 	H 	0.98260 0.56420 0.84320 0.00500
C 	C 	0.91430 0.53720 0.75210 -0.15600
C 	C 	0.88070 0.57790 0.80590 0.05100
H 	H 	0.89620 0.60310 0.86670 0.01900
C 	C 	0.82730 0.58310 0.77550 -0.13200
C 	C 	0.80370 0.54560 0.68740 0.01900
H 	H 	0.76700 0.54890 0.66610 0.03400
C 	C 	0.83310 0.50210 0.62760 -0.07500
C 	C 	0.88980 0.49820 0.66150 0.18500
C 	C 	0.79600 0.62730 0.84550 0.37500
C 	C 	0.09180 0.46130 0.76700 -0.04600
H 	H 	0.08030 0.44690 0.85950 0.02600
C 	C 	0.17170 0.50440 0.89610 -0.08300
H 	H 	0.15980 0.48950 0.98640 0.02500
H 	H 	0.21070 0.50910 0.89870 -0.04900
C 	C 	0.14270 0.55850 0.86520 -0.06600
H 	H 	0.15260 0.57060 0.77030 0.03400
H 	H 	0.15540 0.58520 0.93280 0.02300
C 	C 	0.06490 0.51730 0.74770 0.00900
H 	H 	0.07630 0.53350 0.65730 0.01000
C 	C 	0.15490 0.46750 0.77010 -0.05600
H 	H 	0.17160 0.43250 0.78110 0.03700
H 	H 	0.16730 0.48290 0.68080 0.04700
C 	C 	0.07990 0.55470 0.87500 -0.01700
H 	H 	0.06320 0.58970 0.86460 -0.00700
H 	H 	0.06870 0.53910 0.96520 0.01700
C 	C 	0.13720 0.53460 0.94190 -0.04500
H 	H 	0.15130 0.56650 0.98830 0.02000
H 	H 	0.13050 0.50710 0.01300 0.05400
C 	C 	0.05790 0.49300 0.82510 -0.03300
H 	H 	0.04020 0.47700 0.90660 0.00700
C 	C 	0.09920 0.47930 0.70750 0.05300
H 	H 	0.09000 0.51110 0.65500 -0.00600
C 	C 	0.17530 0.51460 0.82450 0.03300
H 	H 	0.21230 0.51070 0.85780 0.07700
H 	H 	0.17450 0.53750 0.74070 0.00300
C 	C 	0.14780 0.46020 0.79800 -0.07300
H 	H 	0.13630 0.44340 0.88650 0.04900
H 	H 	0.17110 0.43580 0.74580 0.02600
C 	C 	0.08580 0.54720 0.85400 -0.10300
H 	H 	0.06190 0.57070 0.90780 0.05000
H 	H 	0.09540 0.56470 0.76550 0.06700
Zn	Zn	0.70826 0.80232 0.11120 1.21700
Zn	Zn	0.99068 0.06104 0.36728 1.20200
O 	O 	0.91610 0.04210 0.39590 -0.43400
O 	O 	0.98220 0.11920 0.49870 -0.46100
O 	O 	0.74970 0.86150 0.20600 -0.45400
O 	O 	0.81840 0.84880 0.05140 -0.47100
O 	O 	0.19060 0.25100 0.69330 -0.38400
O 	O 	0.13010 0.28520 0.83060 -0.43500
N 	N 	0.00590 0.99680 0.25760 -0.28800
N 	N 	0.06780 0.07240 0.34500 -0.28000
C 	C 	0.09610 0.10880 0.40850 0.08900
H 	H 	0.13300 0.10990 0.38890 0.00800
C 	C 	0.07600 0.14670 0.50370 -0.17500
C 	C 	0.11380 0.18150 0.56990 0.08700
H 	H 	0.15030 0.17810 0.54690 0.02900
C 	C 	0.09850 0.22010 0.66710 -0.15700
C 	C 	0.04470 0.22350 0.70820 0.14100
H 	H 	0.03420 0.24830 0.77710 -0.01400
C 	C 	0.00740 0.19070 0.64790 -0.26500
H 	H 	0.97140 0.19490 0.67540 0.12700
C 	C 	0.01940 0.15050 0.54560 0.28200
C 	C 	0.14310 0.25320 0.73280 0.34300
C 	C 	0.97030 0.96330 0.21560 0.05300
H 	H 	0.98260 0.93580 0.15680 0.01200
C 	C 	0.91430 0.96280 0.24790 -0.14500
C 	C 	0.88070 0.92210 0.19410 0.04800
H 	H 	0.89620 0.89690 0.13330 0.03200
C 	C 	0.82730 0.91690 0.22450 -0.11900
C 	C 	0.80370 0.95440 0.31260 0.01700
H 	H 	0.76700 0.95110 0.33390 0.03900
C 	C 	0.83310 0.99790 0.37240 -0.06700
C 	C 	0.88980 0.00180 0.33850 0.18300
C 	C 	0.79600 0.87270 0.15450 0.37300
C 	C 	0.09180 0.03870 0.23300 -0.07800
H 	H 	0.08030 0.05310 0.14050 0.05300
C 	C 	0.17170 0.99560 0.10390 -0.01900
H 	H 	0.15980 0.01050 0.01360 0.04700
H 	H 	0.21070 0.99090 0.10130 0.06700
C 	C 	0.14270 0.94150 0.13480 0.04500
H 	H 	0.15260 0.92940 0.22970 -0.00300
H 	H 	0.15540 0.91480 0.06720 -0.01500
C 	C 	0.06490 0.98270 0.25230 0.11200
H 	H 	0.07630 0.96650 0.34270 -0.01300
C 	C 	0.15490 0.03250 0.22990 -0.05300
H 	H 	0.17160 0.06750 0.21890 0.03200
H 	H 	0.16730 0.01710 0.31920 0.05000
C 	C 	0.07990 0.94530 0.12500 -0.04000
H 	H 	0.06320 0.91030 0.13540 -0.00300
H 	H 	0.06870 0.96090 0.03480 0.04600
C 	C 	0.13720 0.96540 0.05810 -0.08300
H 	H 	0.15130 0.93350 0.01170 0.05200
H 	H 	0.13050 0.99290 0.98700 0.00700
C 	C 	0.05790 0.00700 0.17490 -0.12000
H 	H 	0.04020 0.02300 0.09340 0.04900
C 	C 	0.09920 0.02070 0.29250 0.07900
H 	H 	0.09000 0.98890 0.34500 -0.02600
C 	C 	0.17530 0.98540 0.17550 -0.06600
H 	H 	0.21230 0.98930 0.14220 -0.01900
H 	H 	0.17450 0.96250 0.25930 0.04400
C 	C 	0.14780 0.03980 0.20200 -0.05600
H 	H 	0.13630 0.05660 0.11350 0.05300
H 	H 	0.17110 0.06420 0.25420 0.02800
C 	C 	0.08580 0.95280 0.14600 -0.13300
H 	H 	0.06190 0.92930 0.09220 0.06900
H 	H 	0.09540 0.93530 0.23450 0.06700
Zn	Zn	0.79174 0.69768 0.11120 1.21700
Zn	Zn	0.50932 0.43896 0.36728 1.20200
O 	O 	0.58390 0.45790 0.39590 -0.43400
O 	O 	0.51780 0.38080 0.49870 -0.46000
O 	O 	0.75030 0.63850 0.20600 -0.45400
O 	O 	0.68160 0.65120 0.05140 -0.47100
O 	O 	0.30940 0.24900 0.69330 -0.38400
O 	O 	0.36990 0.21480 0.83060 -0.43500
N 	N 	0.49410 0.50320 0.25760 -0.28800
N 	N 	0.43220 0.42760 0.34500 -0.28000
C 	C 	0.40390 0.39120 0.40850 0.08800
H 	H 	0.36700 0.39010 0.38890 0.00900
C 	C 	0.42400 0.35330 0.50370 -0.17500
C 	C 	0.38620 0.31850 0.56990 0.08700
H 	H 	0.34970 0.32190 0.54690 0.02900
C 	C 	0.40150 0.27990 0.66710 -0.15700
C 	C 	0.45530 0.27650 0.70820 0.14200
H 	H 	0.46580 0.25170 0.77710 -0.01400
C 	C 	0.49260 0.30930 0.64790 -0.26700
H 	H 	0.52860 0.30510 0.67540 0.12800
C 	C 	0.48060 0.34950 0.54560 0.28200
C 	C 	0.35690 0.24680 0.73280 0.34300
C 	C 	0.52970 0.53670 0.21560 0.05200
H 	H 	0.51740 0.56420 0.15680 0.01100
C 	C 	0.58570 0.53720 0.24790 -0.14600
C 	C 	0.61930 0.57790 0.19410 0.04800
H 	H 	0.60380 0.60310 0.13330 0.03100
C 	C 	0.67270 0.58310 0.22450 -0.11900
C 	C 	0.69630 0.54560 0.31260 0.01800
H 	H 	0.73300 0.54890 0.33390 0.03800
C 	C 	0.66690 0.50210 0.37240 -0.06800
C 	C 	0.61020 0.49820 0.33850 0.18500
C 	C 	0.70400 0.62730 0.15450 0.37300
C 	C 	0.40820 0.46130 0.23300 -0.08700
H 	H 	0.41970 0.44690 0.14050 0.05800
C 	C 	0.32830 0.50440 0.10390 -0.01600
H 	H 	0.34020 0.48950 0.01360 0.04500
H 	H 	0.28930 0.50910 0.10130 0.07100
C 	C 	0.35730 0.55850 0.13480 0.04300
H 	H 	0.34740 0.57060 0.22970 -0.00200
H 	H 	0.34460 0.58520 0.06720 -0.01400
C 	C 	0.43510 0.51730 0.25230 0.13100
H 	H 	0.42370 0.53350 0.34270 -0.01600
C 	C 	0.34510 0.46750 0.22990 -0.05300
H 	H 	0.32840 0.43250 0.21890 0.03200
H 	H 	0.33270 0.48290 0.31920 0.05000
C 	C 	0.42010 0.55470 0.12500 -0.04100
H 	H 	0.43680 0.58970 0.13540 -0.00300
H 	H 	0.43130 0.53910 0.03480 0.04700
C 	C 	0.36280 0.53460 0.05810 -0.08100
H 	H 	0.34870 0.56650 0.01170 0.05200
H 	H 	0.36950 0.50710 0.98700 0.00700
C 	C 	0.44210 0.49300 0.17490 -0.13900
H 	H 	0.45980 0.47700 0.09340 0.05500
C 	C 	0.40080 0.47930 0.29250 0.08900
H 	H 	0.41000 0.51110 0.34500 -0.03100
C 	C 	0.32470 0.51460 0.17550 -0.06900
H 	H 	0.28770 0.51070 0.14220 -0.02400
H 	H 	0.32550 0.53750 0.25930 0.04500
C 	C 	0.35220 0.46020 0.20200 -0.05700
H 	H 	0.36370 0.44340 0.11350 0.05300
H 	H 	0.32890 0.43580 0.25420 0.02800
C 	C 	0.41420 0.54720 0.14600 -0.13300
H 	H 	0.43810 0.57070 0.09220 0.06900
H 	H 	0.40460 0.56470 0.23450 0.06600
Zn	Zn	0.20826 0.19768 0.11120 1.21700
Zn	Zn	0.49068 0.93896 0.36728 1.20200
O 	O 	0.41610 0.95790 0.39590 -0.43400
O 	O 	0.48220 0.88080 0.49870 -0.46000
O 	O 	0.24970 0.13850 0.20600 -0.45400
O 	O 	0.31840 0.15120 0.05140 -0.47100
O 	O 	0.69060 0.74900 0.69330 -0.38400
O 	O 	0.63010 0.71480 0.83060 -0.43500
N 	N 	0.50590 0.00320 0.25760 -0.28800
N 	N 	0.56780 0.92760 0.34500 -0.28000
C 	C 	0.59610 0.89120 0.40850 0.08800
H 	H 	0.63300 0.89010 0.38890 0.00900
C 	C 	0.57600 0.85330 0.50370 -0.17500
C 	C 	0.61380 0.81850 0.56990 0.08700
H 	H 	0.65030 0.82190 0.54690 0.02900
C 	C 	0.59850 0.77990 0.66710 -0.15700
C 	C 	0.54470 0.77650 0.70820 0.14200
H 	H 	0.53420 0.75170 0.77710 -0.01400
C 	C 	0.50740 0.80930 0.64790 -0.26700
H 	H 	0.47140 0.80510 0.67540 0.12800
C 	C 	0.51940 0.84950 0.54560 0.28200
C 	C 	0.64310 0.74680 0.73280 0.34300
C 	C 	0.47030 0.03670 0.21560 0.05200
H 	H 	0.48260 0.06420 0.15680 0.01100
C 	C 	0.41430 0.03720 0.24790 -0.14600
C 	C 	0.38070 0.07790 0.19410 0.04800
H 	H 	0.39620 0.10310 0.13330 0.03100
C 	C 	0.32730 0.08310 0.22450 -0.11900
C 	C 	0.30370 0.04560 0.31260 0.01700
H 	H 	0.26700 0.04890 0.33390 0.03800
C 	C 	0.33310 0.00210 0.37240 -0.06800
C 	C 	0.38980 0.99820 0.33850 0.18400
C 	C 	0.29600 0.12730 0.15450 0.37300
C 	C 	0.59180 0.96130 0.23300 -0.08500
H 	H 	0.58030 0.94690 0.14050 0.05700
C 	C 	0.67170 0.00440 0.10390 -0.01700
H 	H 	0.65980 0.98950 0.01360 0.04600
H 	H 	0.71070 0.00910 0.10130 0.06900
C 	C 	0.64270 0.05850 0.13480 0.04400
H 	H 	0.65260 0.07060 0.22970 -0.00200
H 	H 	0.65540 0.08520 0.06720 -0.01500
C 	C 	0.56490 0.01730 0.25230 0.12800
H 	H 	0.57630 0.03350 0.34270 -0.01500
C 	C 	0.65490 0.96750 0.22990 -0.05300
H 	H 	0.67160 0.93250 0.21890 0.03200
H 	H 	0.66730 0.98290 0.31920 0.05000
C 	C 	0.57990 0.05470 0.12500 -0.04100
H 	H 	0.56320 0.08970 0.13540 -0.00300
H 	H 	0.56870 0.03910 0.03480 0.04700
C 	C 	0.63720 0.03460 0.05810 -0.08200
H 	H 	0.65130 0.06650 0.01170 0.05200
H 	H 	0.63050 0.00710 0.98700 0.00700
C 	C 	0.55790 0.99300 0.17490 -0.13700
H 	H 	0.54020 0.97700 0.09340 0.05400
C 	C 	0.59920 0.97930 0.29250 0.08700
H 	H 	0.59000 0.01110 0.34500 -0.03000
C 	C 	0.67530 0.01460 0.17550 -0.06800
H 	H 	0.71230 0.01070 0.14220 -0.02200
H 	H 	0.67450 0.03750 0.25930 0.04400
C 	C 	0.64780 0.96020 0.20200 -0.05700
H 	H 	0.63630 0.94340 0.11350 0.05300
H 	H 	0.67110 0.93580 0.25420 0.02800
C 	C 	0.58580 0.04720 0.14600 -0.13300
H 	H 	0.56190 0.07070 0.09220 0.06900
H 	H 	0.59540 0.06470 0.23450 0.06600
Zn	Zn	0.29174 0.30232 0.11120 1.21700
Zn	Zn	0.00932 0.56104 0.36728 1.20200
O 	O 	0.08390 0.54210 0.39590 -0.43400
O 	O 	0.01780 0.61920 0.49870 -0.46000
O 	O 	0.25030 0.36150 0.20600 -0.45400
O 	O 	0.18160 0.34880 0.05140 -0.47100
O 	O 	0.80940 0.75100 0.69330 -0.38400
O 	O 	0.86990 0.78520 0.83060 -0.43500
N 	N 	0.99410 0.49680 0.25760 -0.28700
N 	N 	0.93220 0.57240 0.34500 -0.28000
C 	C 	0.90390 0.60880 0.40850 0.08800
H 	H 	0.86700 0.60990 0.38890 0.00900
C 	C 	0.92400 0.64670 0.50370 -0.17500
C 	C 	0.88620 0.68150 0.56990 0.08700
H 	H 	0.84970 0.67810 0.54690 0.02900
C 	C 	0.90150 0.72010 0.66710 -0.15700
C 	C 	0.95530 0.72350 0.70820 0.14100
H 	H 	0.96580 0.74830 0.77710 -0.01400
C 	C 	0.99260 0.69070 0.64790 -0.26500
H 	H 	0.02860 0.69490 0.67540 0.12700
C 	C 	0.98060 0.65050 0.54560 0.28200
C 	C 	0.85690 0.75320 0.73280 0.34300
C 	C 	0.02970 0.46330 0.21560 0.05200
H 	H 	0.01740 0.43580 0.15680 0.01100
C 	C 	0.08570 0.46280 0.24790 -0.14600
C 	C 	0.11930 0.42210 0.19410 0.04800
H 	H 	0.10380 0.39690 0.13330 0.03100
C 	C 	0.17270 0.41690 0.22450 -0.11900
C 	C 	0.19630 0.45440 0.31260 0.01800
H 	H 	0.23300 0.45110 0.33390 0.03800
C 	C 	0.16690 0.49790 0.37240 -0.06800
C 	C 	0.11020 0.50180 0.33850 0.18500
C 	C 	0.20400 0.37270 0.15450 0.37300
C 	C 	0.90820 0.53870 0.23300 -0.08700
H 	H 	0.91970 0.55310 0.14050 0.05800
C 	C 	0.82830 0.49560 0.10390 -0.01600
H 	H 	0.84020 0.51050 0.01360 0.04500
H 	H 	0.78930 0.49090 0.10130 0.07100
C 	C 	0.85730 0.44150 0.13480 0.04300
H 	H 	0.84740 0.42940 0.22970 -0.00200
H 	H 	0.84460 0.41480 0.06720 -0.01400
C 	C 	0.93510 0.48270 0.25230 0.13000
H 	H 	0.92370 0.46650 0.34270 -0.01600
C 	C 	0.84510 0.53250 0.22990 -0.05300
H 	H 	0.82840 0.56750 0.21890 0.03200
H 	H 	0.83270 0.51710 0.31920 0.05000
C 	C 	0.92010 0.44530 0.12500 -0.04100
H 	H 	0.93680 0.41030 0.13540 -0.00300
H 	H 	0.93130 0.46090 0.03480 0.04700
C 	C 	0.86280 0.46540 0.05810 -0.08100
H 	H 	0.84870 0.43350 0.01170 0.05100
H 	H 	0.86950 0.49290 0.98700 0.00700
C 	C 	0.94210 0.50700 0.17490 -0.13900
H 	H 	0.95980 0.52300 0.09340 0.05500
C 	C 	0.90080 0.52070 0.29250 0.08900
H 	H 	0.91000 0.48890 0.34500 -0.03100
C 	C 	0.82470 0.48540 0.17550 -0.06900
H 	H 	0.78770 0.48930 0.14220 -0.02400
H 	H 	0.82550 0.46250 0.25930 0.04500
C 	C 	0.85220 0.53980 0.20200 -0.05700
H 	H 	0.86370 0.55660 0.11350 0.05300
H 	H 	0.82890 0.56420 0.25420 0.02800
C 	C 	0.91420 0.45280 0.14600 -0.13300
H 	H 	0.93810 0.42930 0.09220 0.06900
H 	H 	0.90460 0.43530 0.23450 0.06600
Zn	Zn	0.29174 0.19768 0.88880 1.20600
Zn	Zn	0.00932 0.93896 0.63272 1.20000
O 	O 	0.08390 0.95790 0.60410 -0.43700
O 	O 	0.01780 0.88080 0.50130 -0.46200
O 	O 	0.25030 0.13850 0.79400 -0.46400
O 	O 	0.18160 0.15120 0.94860 -0.50000
O 	O 	0.80940 0.74900 0.30670 -0.38000
O 	O 	0.86990 0.71480 0.16940 -0.41700
N 	N 	0.99410 0.00320 0.74240 -0.28600
N 	N 	0.93220 0.92760 0.65500 -0.28400
C 	C 	0.90390 0.89120 0.59150 0.08700
H 	H 	0.86700 0.89010 0.61110 0.00800
C 	C 	0.92400 0.85330 0.49630 -0.17500
C 	C 	0.88620 0.81850 0.43010 0.08400
H 	H 	0.84970 0.82190 0.45310 0.03000
C 	C 	0.90150 0.77990 0.33290 -0.15100
C 	C 	0.95530 0.77650 0.29180 0.13800
H 	H 	0.96580 0.75170 0.22290 -0.00400
C 	C 	0.99260 0.80930 0.35210 -0.26100
H 	H 	0.02860 0.80510 0.32460 0.13000
C 	C 	0.98060 0.84950 0.45440 0.28100
C 	C 	0.85690 0.74680 0.26720 0.33900
C 	C 	0.02970 0.03670 0.78440 0.05000
H 	H 	0.01740 0.06420 0.84320 0.00500
C 	C 	0.08570 0.03720 0.75210 -0.15400
C 	C 	0.11930 0.07790 0.80590 0.05100
H 	H 	0.10380 0.10310 0.86670 0.02000
C 	C 	0.17270 0.08310 0.77550 -0.13100
C 	C 	0.19630 0.04560 0.68740 0.01900
H 	H 	0.23300 0.04890 0.66610 0.03400
C 	C 	0.16690 0.00210 0.62760 -0.07300
C 	C 	0.11020 0.99820 0.66150 0.18300
C 	C 	0.20400 0.12730 0.84550 0.37500
C 	C 	0.90820 0.96130 0.76700 -0.03700
H 	H 	0.91970 0.94690 0.85950 0.02100
C 	C 	0.82830 0.00440 0.89610 -0.08600
H 	H 	0.84020 0.98950 0.98640 0.02800
H 	H 	0.78930 0.00910 0.89870 -0.05200
C 	C 	0.85730 0.05850 0.86520 -0.06400
H 	H 	0.84740 0.07060 0.77030 0.03300
H 	H 	0.84460 0.08520 0.93280 0.02200
C 	C 	0.93510 0.01730 0.74770 -0.00900
H 	H 	0.92370 0.03350 0.65730 0.01300
C 	C 	0.84510 0.96750 0.77010 -0.05700
H 	H 	0.82840 0.93250 0.78110 0.03700
H 	H 	0.83270 0.98290 0.68080 0.04800
C 	C 	0.92010 0.05470 0.87500 -0.01600
H 	H 	0.93680 0.08970 0.86460 -0.00700
H 	H 	0.93130 0.03910 0.96520 0.01600
C 	C 	0.86280 0.03460 0.94190 -0.04700
H 	H 	0.84870 0.06650 0.98830 0.02100
H 	H 	0.86950 0.00710 0.01300 0.05300
C 	C 	0.94210 0.99300 0.82510 -0.01500
H 	H 	0.95980 0.97700 0.90660 0.00200
C 	C 	0.90080 0.97930 0.70750 0.04300
H 	H 	0.91000 0.01110 0.65500 -0.00100
C 	C 	0.82470 0.01460 0.82450 0.03500
H 	H 	0.78770 0.01070 0.85780 0.08100
H 	H 	0.82550 0.03750 0.74070 0.00200
C 	C 	0.85220 0.96020 0.79800 -0.07300
H 	H 	0.86370 0.94340 0.88650 0.04900
H 	H 	0.82890 0.93580 0.74580 0.02500
C 	C 	0.91420 0.04720 0.85400 -0.10300
H 	H 	0.93810 0.07070 0.90780 0.05000
H 	H 	0.90460 0.06470 0.76550 0.06800
Zn	Zn	0.20826 0.30232 0.88880 1.20600
Zn	Zn	0.49068 0.56104 0.63272 1.20000
O 	O 	0.41610 0.54210 0.60410 -0.43700
O 	O 	0.48220 0.61920 0.50130 -0.46200
O 	O 	0.24970 0.36150 0.79400 -0.46400
O 	O 	0.31840 0.34880 0.94860 -0.50000
O 	O 	0.69060 0.75100 0.30670 -0.38000
O 	O 	0.63010 0.78520 0.16940 -0.41700
N 	N 	0.50590 0.49680 0.74240 -0.28600
N 	N 	0.56780 0.57240 0.65500 -0.28400
C 	C 	0.59610 0.60880 0.59150 0.08700
H 	H 	0.63300 0.60990 0.61110 0.00800
C 	C 	0.57600 0.64670 0.49630 -0.17500
C 	C 	0.61380 0.68150 0.43010 0.08500
H 	H 	0.65030 0.67810 0.45310 0.03000
C 	C 	0.59850 0.72010 0.33290 -0.15100
C 	C 	0.54470 0.72350 0.29180 0.13900
H 	H 	0.53420 0.74830 0.22290 -0.00500
C 	C 	0.50740 0.69070 0.35210 -0.26300
H 	H 	0.47140 0.69490 0.32460 0.13000
C 	C 	0.51940 0.65050 0.45440 0.28000
C 	C 	0.64310 0.75320 0.26720 0.34000
C 	C 	0.47030 0.46330 0.78440 0.04900
H 	H 	0.48260 0.43580 0.84320 0.00400
C 	C 	0.41430 0.46280 0.75210 -0.15600
C 	C 	0.38070 0.42210 0.80590 0.05100
H 	H 	0.39620 0.39690 0.86670 0.01900
C 	C 	0.32730 0.41690 0.77550 -0.13200
C 	C 	0.30370 0.45440 0.68740 0.01900
H 	H 	0.26700 0.45110 0.66610 0.03400
C 	C 	0.33310 0.49790 0.62760 -0.07500
C 	C 	0.38980 0.50180 0.66150 0.18500
C 	C 	0.29600 0.37270 0.84550 0.37500
C 	C 	0.59180 0.53870 0.76700 -0.04600
H 	H 	0.58030 0.55310 0.85950 0.02500
C 	C 	0.67170 0.49560 0.89610 -0.08300
H 	H 	0.65980 0.51050 0.98640 0.02500
H 	H 	0.71070 0.49090 0.89870 -0.04900
C 	C 	0.64270 0.44150 0.86520 -0.06700
H 	H 	0.65260 0.42940 0.77030 0.03400
H 	H 	0.65540 0.41480 0.93280 0.02300
C 	C 	0.56490 0.48270 0.74770 0.00800
H 	H 	0.57630 0.46650 0.65730 0.01000
C 	C 	0.65490 0.53250 0.77010 -0.05600
H 	H 	0.67160 0.56750 0.78110 0.03700
H 	H 	0.66730 0.51710 0.68080 0.04700
C 	C 	0.57990 0.44530 0.87500 -0.01700
H 	H 	0.56320 0.41030 0.86460 -0.00700
H 	H 	0.56870 0.46090 0.96520 0.01700
C 	C 	0.63720 0.46540 0.94190 -0.04500
H 	H 	0.65130 0.43350 0.98830 0.02000
H 	H 	0.63050 0.49290 0.01300 0.05400
C 	C 	0.55790 0.50700 0.82510 -0.03300
H 	H 	0.54020 0.52300 0.90660 0.00700
C 	C 	0.59920 0.52070 0.70750 0.05200
H 	H 	0.59000 0.48890 0.65500 -0.00600
C 	C 	0.67530 0.48540 0.82450 0.03300
H 	H 	0.71230 0.48930 0.85780 0.07700
H 	H 	0.67450 0.46250 0.74070 0.00300
C 	C 	0.64780 0.53980 0.79800 -0.07300
H 	H 	0.63630 0.55660 0.88650 0.04900
H 	H 	0.67110 0.56420 0.74580 0.02500
C 	C 	0.58580 0.45280 0.85400 -0.10300
H 	H 	0.56190 0.42930 0.90780 0.05000
H 	H 	0.59540 0.43530 0.76550 0.06700
O 	O 	0.75000 0.75000 -0.00000 -0.88900
O 	O 	0.25000 0.25000 -0.00000 -0.88900
