data_crystal

_cell_length_a 14.29700
_cell_length_b 18.90170
_cell_length_c 18.90170
_cell_angle_alpha 66.13100
_cell_angle_beta  75.39650
_cell_angle_gamma 104.60300

_symmetry_space_group_name_	'P 1'
_symmetry_space_group_name_H-M	'P 1'

loop_
_symmetry_equiv_pos_as_xyz
  x,y,z

loop_
_atom_site_label
_atom_site_type_symbol
_atom_site_fract_x
_atom_site_fract_y
_atom_site_fract_z
_atom_site_charge
Cu	Cu	0.55191 0.57997 0.97501 0.90500
Cu	Cu	0.52692 0.97501 0.44502 0.90400
Cu	Cu	0.97194 0.44502 0.57997 0.90400
Cu	Cu	0.44809 0.42003 0.02499 0.90500
Cu	Cu	0.47308 0.02499 0.55498 0.90400
Cu	Cu	0.02806 0.55498 0.42003 0.90400
H 	H 	0.25470 0.54770 0.61010 0.04900
H 	H 	0.52960 0.74830 0.48370 0.04500
H 	H 	0.49630 0.78820 0.36310 0.04500
H 	H 	0.34110 0.71200 0.36670 0.04600
H 	H 	0.34680 0.49320 0.68820 0.08200
H 	H 	0.38000 0.45440 0.80720 0.02100
H 	H 	0.52210 0.69690 0.73650 0.02700
H 	H 	0.49080 0.73640 0.61580 0.09200
H 	H 	0.86480 0.61010 0.84220 0.04900
H 	H 	0.01330 0.48370 0.76800 0.04500
H 	H 	0.85940 0.36310 0.84870 0.04400
H 	H 	0.70780 0.36670 0.92130 0.04600
H 	H 	0.03500 0.68820 0.81860 0.08200
H 	H 	0.18720 0.80720 0.73840 0.02100
H 	H 	0.25860 0.73650 0.56660 0.02700
H 	H 	0.10660 0.61580 0.64780 0.09200
H 	H 	0.70700 0.84220 0.54770 0.04900
H 	H 	0.78130 0.76800 0.74830 0.04500
H 	H 	0.70810 0.84870 0.78820 0.04500
H 	H 	0.62910 0.92130 0.71200 0.04600
H 	H 	0.85360 0.81860 0.49320 0.08200
H 	H 	0.92560 0.73840 0.45440 0.02100
H 	H 	0.82520 0.56660 0.69690 0.02700
H 	H 	0.75440 0.64780 0.73640 0.09200
H 	H 	0.74530 0.45230 0.38990 0.04900
H 	H 	0.47040 0.25170 0.51630 0.04500
H 	H 	0.50370 0.21180 0.63690 0.04500
H 	H 	0.65890 0.28800 0.63330 0.04600
H 	H 	0.65320 0.50680 0.31180 0.08200
H 	H 	0.62000 0.54560 0.19280 0.02100
H 	H 	0.47790 0.30310 0.26350 0.02700
H 	H 	0.50920 0.26360 0.38420 0.09200
H 	H 	0.13520 0.38990 0.15780 0.04900
H 	H 	0.98670 0.51630 0.23200 0.04500
H 	H 	0.14060 0.63690 0.15130 0.04400
H 	H 	0.29220 0.63330 0.07870 0.04600
H 	H 	0.96500 0.31180 0.18140 0.08200
H 	H 	0.81280 0.19280 0.26160 0.02100
H 	H 	0.74140 0.26350 0.43340 0.02700
H 	H 	0.89340 0.38420 0.35220 0.09200
H 	H 	0.29300 0.15780 0.45230 0.04900
H 	H 	0.21870 0.23200 0.25170 0.04500
H 	H 	0.29190 0.15130 0.21180 0.04500
H 	H 	0.37090 0.07870 0.28800 0.04600
H 	H 	0.14640 0.18140 0.50680 0.08200
H 	H 	0.07440 0.26160 0.54560 0.02100
H 	H 	0.17480 0.43340 0.30310 0.02700
H 	H 	0.24560 0.35220 0.26360 0.09200
C 	C 	0.17688 0.57490 0.49390 0.35500
C 	C 	0.28207 0.62304 0.48915 -0.07600
C 	C 	0.30317 0.59714 0.56054 -0.01900
C 	C 	0.39696 0.64466 0.55916 -0.01800
C 	C 	0.46733 0.71587 0.48544 -0.03600
C 	C 	0.44675 0.74034 0.41319 -0.05100
C 	C 	0.35489 0.69488 0.41507 -0.00200
C 	C 	0.41640 0.61912 0.63739 0.08700
C 	C 	0.38323 0.53495 0.69713 -0.14300
C 	C 	0.40237 0.51147 0.76869 0.07100
C 	C 	0.45484 0.57209 0.78470 -0.13400
C 	C 	0.48704 0.65561 0.72662 0.07100
C 	C 	0.46843 0.67949 0.65396 -0.14300
C 	C 	0.47482 0.54665 0.86405 0.38300
C 	C 	0.67078 0.49390 0.93120 0.35500
C 	C 	0.77122 0.48915 0.88781 -0.07600
C 	C 	0.86371 0.56054 0.84232 -0.01900
C 	C 	0.95612 0.55916 0.79618 -0.01800
C 	C 	0.95277 0.48544 0.79869 -0.03700
C 	C 	0.85994 0.41319 0.84647 -0.05100
C 	C 	0.76996 0.41507 0.89005 -0.00300
C 	C 	0.05379 0.63739 0.74349 0.08700
C 	C 	0.08036 0.69713 0.76792 -0.14300
C 	C 	0.17106 0.76869 0.71984 0.07100
C 	C 	0.23954 0.78470 0.64321 -0.13400
C 	C 	0.21366 0.72662 0.61777 0.07100
C 	C 	0.12239 0.65396 0.66655 -0.14400
C 	C 	0.33887 0.86405 0.58930 0.38300
C 	C 	0.60198 0.93120 0.57490 0.35500
C 	C 	0.65903 0.88781 0.62304 -0.07600
C 	C 	0.70603 0.84232 0.59714 -0.01900
C 	C 	0.75230 0.79618 0.64466 -0.01800
C 	C 	0.75146 0.79869 0.71587 -0.03600
C 	C 	0.70641 0.84647 0.74034 -0.05100
C 	C 	0.66001 0.89005 0.69488 -0.00200
C 	C 	0.79728 0.74349 0.61912 0.08700
C 	C 	0.84828 0.76792 0.53495 -0.14300
C 	C 	0.89090 0.71984 0.51147 0.07100
C 	C 	0.88275 0.64321 0.57209 -0.13400
C 	C 	0.83143 0.61777 0.65561 0.07100
C 	C 	0.78894 0.66655 0.67949 -0.14300
C 	C 	0.92817 0.58930 0.54665 0.38300
C 	C 	0.82312 0.42510 0.50610 0.35500
C 	C 	0.71793 0.37696 0.51085 -0.07600
C 	C 	0.69683 0.40286 0.43946 -0.01900
C 	C 	0.60304 0.35534 0.44084 -0.01800
C 	C 	0.53267 0.28413 0.51456 -0.03600
C 	C 	0.55325 0.25966 0.58681 -0.05100
C 	C 	0.64511 0.30512 0.58493 -0.00200
C 	C 	0.58360 0.38088 0.36261 0.08700
C 	C 	0.61677 0.46505 0.30287 -0.14300
C 	C 	0.59763 0.48853 0.23131 0.07100
C 	C 	0.54516 0.42791 0.21530 -0.13400
C 	C 	0.51296 0.34439 0.27338 0.07100
C 	C 	0.53157 0.32051 0.34604 -0.14300
C 	C 	0.52518 0.45335 0.13595 0.38300
C 	C 	0.32922 0.50610 0.06880 0.35500
C 	C 	0.22878 0.51085 0.11219 -0.07600
C 	C 	0.13629 0.43946 0.15768 -0.01900
C 	C 	0.04388 0.44084 0.20382 -0.01800
C 	C 	0.04723 0.51456 0.20131 -0.03700
C 	C 	0.14006 0.58681 0.15353 -0.05100
C 	C 	0.23004 0.58493 0.10995 -0.00300
C 	C 	0.94621 0.36261 0.25651 0.08700
C 	C 	0.91964 0.30287 0.23208 -0.14300
C 	C 	0.82894 0.23131 0.28016 0.07100
C 	C 	0.76046 0.21530 0.35679 -0.13400
C 	C 	0.78634 0.27338 0.38223 0.07100
C 	C 	0.87761 0.34604 0.33345 -0.14400
C 	C 	0.66113 0.13595 0.41070 0.38300
C 	C 	0.39802 0.06880 0.42510 0.35500
C 	C 	0.34097 0.11219 0.37696 -0.07600
C 	C 	0.29397 0.15768 0.40286 -0.01900
C 	C 	0.24770 0.20382 0.35534 -0.01800
C 	C 	0.24854 0.20131 0.28413 -0.03600
C 	C 	0.29359 0.15353 0.25966 -0.05100
C 	C 	0.33999 0.10995 0.30512 -0.00200
C 	C 	0.20272 0.25651 0.38088 0.08700
C 	C 	0.15172 0.23208 0.46505 -0.14300
C 	C 	0.10910 0.28016 0.48853 0.07100
C 	C 	0.11725 0.35679 0.42791 -0.13400
C 	C 	0.16857 0.38223 0.34439 0.07100
C 	C 	0.21106 0.33345 0.32051 -0.14300
C 	C 	0.07183 0.41070 0.45335 0.38300
O 	O 	0.11325 0.51188 0.56285 -0.41500
O 	O 	0.16190 0.60436 0.42661 -0.40500
O 	O 	0.43763 0.46924 0.91507 -0.41800
O 	O 	0.52470 0.60445 0.87343 -0.41700
O 	O 	0.67610 0.56285 0.92527 -0.41500
O 	O 	0.58851 0.42661 0.96903 -0.40500
O 	O 	0.35270 0.91507 0.61569 -0.41800
O 	O 	0.39813 0.87343 0.52212 -0.41700
O 	O 	0.60137 0.92527 0.51188 -0.41500
O 	O 	0.55754 0.96903 0.60436 -0.40500
O 	O 	0.96839 0.61569 0.46924 -0.41800
O 	O 	0.92025 0.52212 0.60445 -0.41700
O 	O 	0.88675 0.48812 0.43715 -0.41500
O 	O 	0.83810 0.39564 0.57339 -0.40500
O 	O 	0.56237 0.53076 0.08493 -0.41800
O 	O 	0.47530 0.39555 0.12657 -0.41700
O 	O 	0.32390 0.43715 0.07473 -0.41500
O 	O 	0.41149 0.57339 0.03097 -0.40500
O 	O 	0.64730 0.08493 0.38431 -0.41800
O 	O 	0.60187 0.12657 0.47788 -0.41700
O 	O 	0.39863 0.07473 0.48812 -0.41500
O 	O 	0.44246 0.03097 0.39564 -0.40500
O 	O 	0.03161 0.38431 0.53076 -0.41800
O 	O 	0.07975 0.47788 0.39555 -0.41700
