data_crystal

_cell_length_a 16.69010
_cell_length_b 16.69010
_cell_length_c 14.05670
_cell_angle_alpha 90.00000
_cell_angle_beta  90.00000
_cell_angle_gamma 90.00000

_symmetry_space_group_name_	'P 1'
_symmetry_space_group_name_H-M	'P 1'

loop_
_symmetry_equiv_pos_as_xyz
  x,y,z

loop_
_atom_site_label
_atom_site_type_symbol
_atom_site_fract_x
_atom_site_fract_y
_atom_site_fract_z
_atom_site_charge
C 	C 	0.06210 0.97410 0.20200 -0.31400
H 	H 	0.10650 0.95550 0.23540 0.13900
C 	C 	0.06500 0.97310 0.10280 -0.36400
H 	H 	0.11030 0.95450 0.07140 0.15600
C 	C 	0.93790 0.02590 0.20200 0.36400
H 	H 	0.89350 0.04450 0.23540 -0.12200
C 	C 	0.93500 0.02690 0.10280 0.37100
H 	H 	0.88970 0.04550 0.07140 -0.12000
C 	C 	0.02590 0.06210 0.20200 0.11000
H 	H 	0.04450 0.10650 0.23540 -0.04800
C 	C 	0.02690 0.06500 0.10280 0.11400
H 	H 	0.04550 0.11030 0.07140 -0.04400
C 	C 	0.97410 0.93790 0.20200 -0.08000
H 	H 	0.95550 0.89350 0.23540 0.07100
C 	C 	0.97310 0.93500 0.10280 -0.11100
H 	H 	0.95450 0.88970 0.07140 0.08200
C 	C 	0.93790 0.97410 0.79800 -0.08000
H 	H 	0.89350 0.95550 0.76460 0.07100
C 	C 	0.93500 0.97310 0.89720 -0.11100
H 	H 	0.88970 0.95450 0.92860 0.08200
C 	C 	0.06210 0.02590 0.79800 0.11100
H 	H 	0.10650 0.04450 0.76460 -0.04700
C 	C 	0.06500 0.02690 0.89720 0.11500
H 	H 	0.11030 0.04550 0.92860 -0.04400
C 	C 	0.97410 0.06210 0.79800 -0.31300
H 	H 	0.95550 0.10650 0.76460 0.14000
C 	C 	0.97310 0.06500 0.89720 -0.36300
H 	H 	0.95450 0.11030 0.92860 0.15700
C 	C 	0.02590 0.93790 0.79800 0.36500
H 	H 	0.04450 0.89350 0.76460 -0.12100
C 	C 	0.02690 0.93500 0.89720 0.37200
H 	H 	0.04550 0.88970 0.92860 -0.11900
C 	C 	0.93790 0.02590 0.79800 0.36500
H 	H 	0.89350 0.04450 0.76460 -0.12100
C 	C 	0.93500 0.02690 0.89720 0.37200
H 	H 	0.88970 0.04550 0.92860 -0.11900
C 	C 	0.06210 0.97410 0.79800 -0.31300
H 	H 	0.10650 0.95550 0.76460 0.14000
C 	C 	0.06500 0.97310 0.89720 -0.36300
H 	H 	0.11030 0.95450 0.92860 0.15700
C 	C 	0.97410 0.93790 0.79800 -0.08000
H 	H 	0.95550 0.89350 0.76460 0.07100
C 	C 	0.97310 0.93500 0.89720 -0.11100
H 	H 	0.95450 0.88970 0.92860 0.08200
C 	C 	0.02590 0.06210 0.79800 0.11100
H 	H 	0.04450 0.10650 0.76460 -0.04700
C 	C 	0.02690 0.06500 0.89720 0.11500
H 	H 	0.04550 0.11030 0.92860 -0.04400
C 	C 	0.06210 0.02590 0.20200 0.11100
H 	H 	0.10650 0.04450 0.23540 -0.04700
C 	C 	0.06500 0.02690 0.10280 0.11500
H 	H 	0.11030 0.04550 0.07140 -0.04400
C 	C 	0.93790 0.97410 0.20200 -0.08000
H 	H 	0.89350 0.95550 0.23540 0.07100
C 	C 	0.93500 0.97310 0.10280 -0.11100
H 	H 	0.88970 0.95450 0.07140 0.08200
C 	C 	0.02590 0.93790 0.20200 0.36500
H 	H 	0.04450 0.89350 0.23540 -0.12100
C 	C 	0.02690 0.93500 0.10280 0.37200
H 	H 	0.04550 0.88970 0.07140 -0.11900
C 	C 	0.97410 0.06210 0.20200 -0.31300
H 	H 	0.95550 0.10650 0.23540 0.14000
C 	C 	0.97310 0.06500 0.10280 -0.36300
H 	H 	0.95450 0.11030 0.07140 0.15700
V 	V 	0.50000 0.50000 0.53560 1.20200
V 	V 	0.50000 0.50000 0.46440 1.20200
Zn	Zn	0.00000 0.00000 0.39567 1.16200
N 	N 	0.00000 0.00000 0.25082 -0.37000
C 	C 	0.00000 0.00000 0.05260 -0.18600
Zn	Zn	0.00000 0.00000 0.60433 1.16200
N 	N 	0.00000 0.00000 0.74918 -0.37000
C 	C 	0.00000 0.00000 0.94740 -0.18600
O 	O 	0.91515 0.91515 0.42135 -0.40900
C 	C 	0.73911 0.73911 0.58308 -0.22500
H 	H 	0.71970 0.71970 0.64060 0.10400
C 	C 	0.79787 0.79787 0.58353 0.13700
H 	H 	0.81730 0.81730 0.64110 0.00300
O 	O 	0.08485 0.08485 0.42135 -0.52400
C 	C 	0.26089 0.26089 0.58308 -0.25300
H 	H 	0.28030 0.28030 0.64060 0.09600
C 	C 	0.20213 0.20213 0.58353 0.14500
H 	H 	0.18270 0.18270 0.64110 -0.02600
O 	O 	0.08485 0.91515 0.42135 -0.46500
C 	C 	0.26089 0.73911 0.58308 -0.23800
H 	H 	0.28030 0.71970 0.64060 0.10000
C 	C 	0.20213 0.79787 0.58353 0.14100
H 	H 	0.18270 0.81730 0.64110 -0.01100
O 	O 	0.91515 0.08485 0.42135 -0.46500
C 	C 	0.73911 0.26089 0.58308 -0.23800
H 	H 	0.71970 0.28030 0.64060 0.10000
C 	C 	0.79787 0.20213 0.58353 0.14100
H 	H 	0.81730 0.18270 0.64110 -0.01100
O 	O 	0.08485 0.91515 0.57865 -0.46500
C 	C 	0.26089 0.73911 0.41692 -0.23800
H 	H 	0.28030 0.71970 0.35940 0.10000
C 	C 	0.20213 0.79787 0.41647 0.14100
H 	H 	0.18270 0.81730 0.35890 -0.01100
O 	O 	0.91515 0.08485 0.57865 -0.46500
C 	C 	0.73911 0.26089 0.41692 -0.23800
H 	H 	0.71970 0.28030 0.35940 0.10000
C 	C 	0.79787 0.20213 0.41647 0.14100
H 	H 	0.81730 0.18270 0.35890 -0.01100
O 	O 	0.91515 0.91515 0.57865 -0.40900
C 	C 	0.73911 0.73911 0.41692 -0.22500
H 	H 	0.71970 0.71970 0.35940 0.10400
C 	C 	0.79787 0.79787 0.41647 0.13700
H 	H 	0.81730 0.81730 0.35890 0.00300
O 	O 	0.08485 0.08485 0.57865 -0.52400
C 	C 	0.26089 0.26089 0.41692 -0.25300
H 	H 	0.28030 0.28030 0.35940 0.09600
C 	C 	0.20213 0.20213 0.41647 0.14500
H 	H 	0.18270 0.18270 0.35890 -0.02600
N 	N 	0.50000 0.62110 0.50000 -0.45800
N 	N 	0.50000 0.37890 0.50000 -0.45900
N 	N 	0.37890 0.50000 0.50000 -0.45900
N 	N 	0.62110 0.50000 0.50000 -0.45800
C 	C 	0.56609 0.67076 0.50000 0.07800
C 	C 	0.54034 0.75271 0.50000 -0.08700
H 	H 	0.57330 0.79760 0.50000 0.06900
C 	C 	0.43391 0.32924 0.50000 0.07400
C 	C 	0.45966 0.24729 0.50000 -0.09500
H 	H 	0.42670 0.20240 0.50000 0.04700
C 	C 	0.32924 0.56609 0.50000 0.07300
C 	C 	0.24729 0.54034 0.50000 -0.09400
H 	H 	0.20240 0.57330 0.50000 0.04700
C 	C 	0.67076 0.43391 0.50000 0.07900
C 	C 	0.75271 0.45966 0.50000 -0.08800
H 	H 	0.79760 0.42670 0.50000 0.07000
C 	C 	0.43391 0.67076 0.50000 0.07900
C 	C 	0.45966 0.75271 0.50000 -0.08800
H 	H 	0.42670 0.79760 0.50000 0.07000
C 	C 	0.56609 0.32924 0.50000 0.07300
C 	C 	0.54034 0.24729 0.50000 -0.09400
H 	H 	0.57330 0.20240 0.50000 0.04700
C 	C 	0.67076 0.56609 0.50000 0.07800
C 	C 	0.75271 0.54034 0.50000 -0.08700
H 	H 	0.79760 0.57330 0.50000 0.06900
C 	C 	0.32924 0.43391 0.50000 0.07400
C 	C 	0.24729 0.45966 0.50000 -0.09500
H 	H 	0.20240 0.42670 0.50000 0.04700
C 	C 	0.64602 0.64602 0.50000 -0.21200
C 	C 	0.70918 0.70918 0.50000 0.18900
C 	C 	0.82756 0.82756 0.50000 -0.18200
C 	C 	0.89105 0.89105 0.50000 0.43100
C 	C 	0.35398 0.35398 0.50000 -0.22000
C 	C 	0.29082 0.29082 0.50000 0.19500
C 	C 	0.17244 0.17244 0.50000 -0.23200
C 	C 	0.10895 0.10895 0.50000 0.44000
C 	C 	0.35398 0.64602 0.50000 -0.21600
C 	C 	0.29082 0.70918 0.50000 0.19200
C 	C 	0.17244 0.82756 0.50000 -0.20600
C 	C 	0.10895 0.89105 0.50000 0.43500
C 	C 	0.64602 0.35398 0.50000 -0.21600
C 	C 	0.70918 0.29082 0.50000 0.19200
C 	C 	0.82756 0.17244 0.50000 -0.20600
C 	C 	0.89105 0.10895 0.50000 0.43500
