data_crystal

_cell_length_a 5.99000
_cell_length_b 7.43500
_cell_length_c 13.32300
_cell_angle_alpha 102.89000
_cell_angle_beta  101.55000
_cell_angle_gamma 90.85000

_symmetry_space_group_name_	'P 1'
_symmetry_space_group_name_H-M	'P 1'

loop_
_symmetry_equiv_pos_as_xyz
  x,y,z

loop_
_atom_site_label
_atom_site_type_symbol
_atom_site_fract_x
_atom_site_fract_y
_atom_site_fract_z
_atom_site_charge
Tb	Tb	0.23767 0.63759 0.11857 1.70200
Tb	Tb	0.19953 0.99985 0.75947 1.62900
H 	H 	0.86310 0.85970 0.38370 -0.00900
H 	H 	0.57220 0.91950 0.48140 0.04400
H 	H 	0.72660 0.50350 0.87200 0.06400
H 	H 	0.75240 0.54140 0.71290 0.07500
H 	H 	0.67190 0.21970 0.16860 0.13200
H 	H 	0.69690 0.06730 0.00140 0.07400
H 	H 	0.98030 0.56690 0.44530 0.32800
H 	H 	0.43850 0.68710 0.53000 0.22300
H 	H 	0.59100 0.21630 0.73990 0.39100
H 	H 	0.49750 0.05000 0.67410 0.35200
H 	H 	0.86250 0.84170 0.21500 0.35000
H 	H 	0.94720 0.83620 0.12420 0.24900
C 	C 	0.00200 0.88100 0.54130 -0.15500
C 	C 	0.84600 0.78920 0.43600 0.26400
C 	C 	0.60100 0.79200 0.45050 -0.06000
C 	C 	0.44000 0.73200 0.34350 0.32000
C 	C 	0.05700 0.43170 0.86810 0.30500
C 	C 	0.86900 0.56840 0.87080 0.03600
C 	C 	0.83870 0.63810 0.77080 0.04200
C 	C 	0.70640 0.81660 0.77590 0.41200
C 	C 	0.72440 0.44660 0.10860 0.43800
C 	C 	0.59210 0.27410 0.11190 -0.07400
C 	C 	0.55400 0.12930 0.00380 0.00000
C 	C 	0.37400 0.98450 0.00570 0.15500
O 	O 	0.17720 0.79820 0.58000 -0.30400
O 	O 	0.96290 0.03610 0.58850 -0.01700
O 	O 	0.89420 0.60190 0.39840 -0.37300
O 	O 	0.57050 0.68310 0.52160 -0.29900
O 	O 	0.29910 0.60360 0.31900 -0.34000
O 	O 	0.46780 0.83060 0.27710 -0.39100
O 	O 	0.03630 0.29600 0.79420 -0.39300
O 	O 	0.23050 0.46820 0.94520 -0.33800
O 	O 	0.93380 0.71370 0.96660 -0.15900
O 	O 	0.05510 0.67380 0.74650 -0.31400
O 	O 	0.50390 0.80370 0.78220 -0.44200
O 	O 	0.80990 0.95790 0.76910 -0.44400
O 	O 	0.62650 0.59030 0.11090 -0.47300
O 	O 	0.92900 0.42930 0.10660 -0.40600
O 	O 	0.37280 0.33060 0.13120 -0.25400
O 	O 	0.50190 0.20000 0.91510 -0.13100
O 	O 	0.20130 0.96400 0.93170 -0.34300
O 	O 	0.39930 0.90270 0.07950 -0.41500
O 	O 	0.47280 0.16280 0.69600 -0.75900
O 	O 	0.98160 0.85280 0.19080 -0.69200
