data_crystal

_cell_length_a 22.07100
_cell_length_b 22.07100
_cell_length_c 22.07100
_cell_angle_alpha 90.00000
_cell_angle_beta  90.00000
_cell_angle_gamma 90.00000

_symmetry_space_group_name_	'P 1'
_symmetry_space_group_name_H-M	'P 1'

loop_
_symmetry_equiv_pos_as_xyz
  x,y,z

loop_
_atom_site_label
_atom_site_type_symbol
_atom_site_fract_x
_atom_site_fract_y
_atom_site_fract_z
_atom_site_charge
C 	C 	0.49826 1.00048 -0.66360 -0.07800
C 	C 	0.44337 1.00434 -0.63173 0.04500
C 	C 	0.44438 1.00585 -0.56786 -0.07100
C 	C 	0.49963 1.00089 -0.53463 0.02600
C 	C 	0.55396 0.99572 -0.56892 -0.07100
C 	C 	0.55358 0.99681 -0.63259 0.04300
C 	C 	0.50071 1.00090 -0.46529 0.02600
C 	C 	0.55595 1.00593 -0.43206 -0.07100
C 	C 	0.55695 1.00445 -0.36818 0.04600
C 	C 	0.50207 1.00056 -0.33632 -0.07800
C 	C 	0.44675 0.99682 -0.36733 0.04300
C 	C 	0.44638 0.99569 -0.43100 -0.07100
H 	H 	0.49805 1.00029 -0.71277 0.05500
H 	H 	0.40145 1.01133 -0.54521 0.05100
H 	H 	0.59741 0.99034 -0.54730 0.05100
H 	H 	0.59887 1.01145 -0.45472 0.05100
H 	H 	0.50228 1.00040 -0.28715 0.05400
H 	H 	0.40294 0.99025 -0.45261 0.05000
C 	C 	-0.66501 1.50032 0.00019 -0.07900
C 	C 	-0.63329 1.44528 0.00366 0.04500
C 	C 	-0.56942 1.44605 0.00493 -0.07300
C 	C 	-0.53591 1.50115 0.00029 0.02500
C 	C 	-0.57004 1.55574 -0.00439 -0.07300
C 	C 	-0.63386 1.55569 -0.00322 0.04500
C 	C 	-0.46644 1.50170 0.00022 0.02500
C 	C 	-0.43283 1.55676 0.00482 -0.07200
C 	C 	-0.36893 1.55737 0.00350 0.04400
C 	C 	-0.33737 1.50227 -0.00001 -0.07800
C 	C 	-0.36863 1.44705 -0.00342 0.04200
C 	C 	-0.43237 1.44708 -0.00452 -0.07100
H 	H 	-0.71420 1.50007 0.00014 0.05400
H 	H 	-0.54697 1.40298 0.00999 0.05000
H 	H 	-0.54809 1.59908 -0.00941 0.05000
H 	H 	-0.45520 1.59988 0.00988 0.05000
H 	H 	-0.28820 1.50223 -0.00010 0.05400
H 	H 	-0.45418 1.40369 -0.00954 0.05000
C 	C 	0.00029 0.33393 0.50004 -0.08000
C 	C 	0.00399 0.36539 0.44488 0.04500
C 	C 	0.00527 0.42919 0.44523 -0.07300
C 	C 	0.00022 0.46294 0.50002 0.02600
C 	C 	-0.00480 0.42920 0.55482 -0.07300
C 	C 	-0.00344 0.36541 0.55519 0.04500
C 	C 	0.00018 0.53228 0.50001 0.02400
C 	C 	0.00532 0.56607 0.55479 -0.07100
C 	C 	0.00398 0.62982 0.55505 0.04100
C 	C 	0.00009 0.66123 0.50000 -0.07700
C 	C 	-0.00376 0.62981 0.44495 0.04100
C 	C 	-0.00501 0.56605 0.44523 -0.07100
H 	H 	0.00032 0.28474 0.50005 0.05400
H 	H 	0.01068 0.45144 0.40207 0.05000
H 	H 	-0.01024 0.45145 0.59797 0.05000
H 	H 	0.01084 0.54405 0.59801 0.05000
H 	H 	0.00006 0.71037 0.49999 0.05400
H 	H 	-0.01050 0.54402 0.40200 0.05000
O 	O 	-0.15650 1.00275 -0.08162 -0.65000
O 	O 	0.15686 0.99763 -0.08090 -0.65300
O 	O 	-0.00202 1.08141 -0.15666 -0.65200
O 	O 	0.00258 0.91891 -0.15660 -0.65100
O 	O 	0.00223 0.84399 -0.08382 -0.62200
O 	O 	-0.00183 1.15648 -0.08402 -0.62000
O 	O 	0.08421 0.99794 -0.15599 -0.62200
O 	O 	-0.08363 1.00242 -0.15644 -0.62000
Zr	Zr	0.00023 1.00023 -0.10704 3.23500
O 	O 	0.05509 0.94532 -0.05477 -1.27200
O 	O 	-0.05469 1.05531 -0.05502 -1.27400
C 	C 	-0.13995 1.00389 -0.13799 0.46900
C 	C 	0.14040 0.99630 -0.13726 0.47300
C 	C 	-0.00331 1.13780 -0.14026 0.47100
C 	C 	0.00372 0.86254 -0.14006 0.47100
H 	H 	0.08097 1.08084 -0.08053 0.31700
O 	O 	0.05508 1.05500 -0.05467 -1.50000
H 	H 	-0.08056 0.91966 -0.08084 0.31800
O 	O 	-0.05471 0.94548 -0.05491 -1.50200
O 	O 	0.15684 1.00239 0.08164 -0.65100
O 	O 	-0.15653 0.99785 0.08095 -0.65300
O 	O 	0.08155 1.15705 0.00229 -0.65000
O 	O 	0.08117 0.84351 -0.00229 -0.65000
O 	O 	-0.08146 0.84362 0.00206 -0.64900
O 	O 	-0.08093 1.15705 -0.00225 -0.65100
O 	O 	0.00246 1.08134 0.15674 -0.65100
O 	O 	-0.00237 0.91886 0.15661 -0.65100
O 	O 	0.00243 1.15644 0.08412 -0.62000
O 	O 	-0.00231 0.84397 0.08380 -0.62300
O 	O 	0.15654 1.08432 0.00229 -0.61900
O 	O 	-0.15601 1.08441 -0.00226 -0.62100
O 	O 	-0.15633 0.91644 0.00174 -0.62000
O 	O 	0.15632 0.91610 -0.00185 -0.62000
O 	O 	0.08397 1.00219 0.15646 -0.62000
O 	O 	-0.08389 0.99802 0.15604 -0.62200
Zr	Zr	0.10732 1.00022 0.00027 3.23500
Zr	Zr	-0.10698 1.00036 -0.00023 3.23500
Zr	Zr	0.00029 1.10739 0.00004 3.23500
Zr	Zr	-0.00004 0.89317 -0.00000 3.23600
Zr	Zr	0.00009 1.00018 0.10708 3.23500
O 	O 	-0.05497 0.94536 0.05485 -1.27300
O 	O 	0.05515 1.05522 0.05511 -1.27400
C 	C 	0.14029 1.00353 0.13802 0.46900
C 	C 	-0.14007 0.99648 0.13731 0.47300
C 	C 	0.13796 1.14064 0.00355 0.46800
C 	C 	0.13759 0.85986 -0.00340 0.47000
C 	C 	-0.13786 0.86012 0.00308 0.46800
C 	C 	-0.13733 1.14065 -0.00354 0.47000
C 	C 	0.00385 1.13774 0.14035 0.47000
C 	C 	-0.00368 0.86249 0.14005 0.47100
H 	H 	-0.08048 1.08091 0.08059 0.31700
O 	O 	-0.05463 1.05505 0.05471 -1.50000
H 	H 	0.08065 0.91947 0.08077 0.31800
O 	O 	0.05486 0.94536 0.05487 -1.50100
C 	C 	0.29074 1.00768 0.26576 0.04700
C 	C 	0.23104 1.00070 0.28713 -0.07900
C 	C 	0.18161 0.99998 0.24638 0.04100
C 	C 	0.19109 1.00597 0.18344 -0.12800
C 	C 	0.25128 1.01354 0.16296 0.04400
C 	C 	0.30013 1.01435 0.20344 -0.08000
C 	C 	0.34322 1.00701 0.30618 -0.02100
C 	C 	0.38936 1.00612 0.33659 -0.02200
H 	H 	0.22267 0.99542 0.33519 0.05200
H 	H 	0.13622 0.99410 0.26403 0.03400
H 	H 	0.26110 1.01869 0.11518 0.03900
H 	H 	0.34563 1.01982 0.18581 0.05200
C 	C 	-0.29101 0.99205 0.26346 0.04900
C 	C 	-0.29944 0.98075 0.20172 -0.08100
C 	C 	-0.25027 0.98138 0.16177 0.04600
C 	C 	-0.19087 0.99342 0.18233 -0.13100
C 	C 	-0.18228 1.00369 0.24478 0.04300
C 	C 	-0.23204 1.00319 0.28499 -0.08000
C 	C 	-0.34376 0.99332 0.30315 -0.02300
C 	C 	-0.38982 0.99459 0.33340 -0.02000
H 	H 	-0.34442 0.97194 0.18412 0.05300
H 	H 	-0.25918 0.97265 0.11432 0.03900
H 	H 	-0.13746 1.01311 0.26235 0.03400
H 	H 	-0.22457 1.01205 0.33267 0.05200
C 	C 	-0.29040 1.00807 -0.26571 0.04700
C 	C 	-0.29970 1.01544 -0.20345 -0.08000
C 	C 	-0.25085 1.01467 -0.16299 0.04400
C 	C 	-0.19073 1.00644 -0.18341 -0.12800
C 	C 	-0.18131 0.99981 -0.24630 0.04100
C 	C 	-0.23076 1.00048 -0.28704 -0.07900
C 	C 	-0.34290 1.00729 -0.30610 -0.02100
C 	C 	-0.38904 1.00631 -0.33651 -0.02300
H 	H 	-0.34516 1.02140 -0.18587 0.05200
H 	H 	-0.26059 1.02035 -0.11525 0.03900
H 	H 	-0.13598 0.99340 -0.26391 0.03400
H 	H 	-0.22245 0.99465 -0.33504 0.05200
C 	C 	0.29134 0.99192 -0.26341 0.04900
C 	C 	0.29973 0.98040 -0.20170 -0.08100
C 	C 	0.25055 0.98100 -0.16176 0.04600
C 	C 	0.19119 0.99322 -0.18229 -0.13100
C 	C 	0.18262 1.00370 -0.24472 0.04300
C 	C 	0.23239 1.00323 -0.28492 -0.08000
C 	C 	0.34409 0.99325 -0.30308 -0.02300
C 	C 	0.39015 0.99455 -0.33333 -0.02000
H 	H 	0.34469 0.97146 -0.18413 0.05300
H 	H 	0.25944 0.97211 -0.11433 0.03900
H 	H 	0.13782 1.01327 -0.26226 0.03400
H 	H 	0.22494 1.01227 -0.33257 0.05200
C 	C 	0.26474 1.29208 0.00728 0.04700
C 	C 	0.20248 1.30084 0.01525 -0.08000
C 	C 	0.16239 1.25166 0.01467 0.04400
C 	C 	0.18315 1.19170 0.00602 -0.12700
C 	C 	0.24605 1.18281 -0.00119 0.04100
C 	C 	0.28643 1.23259 -0.00070 -0.07800
C 	C 	0.30476 1.34493 0.00639 -0.02000
C 	C 	0.33496 1.39124 0.00540 -0.02300
H 	H 	0.18460 1.34613 0.02156 0.05200
H 	H 	0.11463 1.26105 0.02083 0.04000
H 	H 	0.26393 1.13763 -0.00795 0.03400
H 	H 	0.33444 1.22466 -0.00698 0.05200
C 	C 	0.26391 0.70843 -0.00724 0.04700
C 	C 	0.28561 0.76769 0.00209 -0.07900
C 	C 	0.24538 0.81752 0.00253 0.04100
C 	C 	0.18265 0.80884 -0.00607 -0.12800
C 	C 	0.16188 0.74912 -0.01617 0.04400
C 	C 	0.20185 0.69988 -0.01670 -0.08000
C 	C 	0.30374 0.65557 -0.00616 -0.02100
C 	C 	0.33399 0.60938 -0.00506 -0.02300
H 	H 	0.33350 0.77537 0.00952 0.05200
H 	H 	0.26320 0.86254 0.01042 0.03400
H 	H 	0.11424 0.73998 -0.02348 0.03900
H 	H 	0.18402 0.65473 -0.02409 0.05200
C 	C 	-0.26577 0.70967 0.00674 0.04700
C 	C 	-0.20338 0.70017 0.01271 -0.08000
C 	C 	-0.16284 0.74899 0.01203 0.04400
C 	C 	-0.18330 0.80929 0.00529 -0.12800
C 	C 	-0.24629 0.81888 -0.00005 0.04100
C 	C 	-0.28710 0.76948 0.00056 -0.07900
C 	C 	-0.30633 0.65726 0.00608 -0.02100
C 	C 	-0.33694 0.61123 0.00520 -0.02300
H 	H 	-0.18576 0.65460 0.01757 0.05200
H 	H 	-0.11502 0.73907 0.01662 0.03900
H 	H 	-0.26396 0.86434 -0.00528 0.03400
H 	H 	-0.33520 0.77797 -0.00417 0.05200
C 	C 	-0.26413 1.29159 -0.00737 0.04800
C 	C 	-0.28574 1.23215 0.00084 -0.08000
C 	C 	-0.24530 1.18250 0.00134 0.04200
C 	C 	-0.18247 1.19157 -0.00607 -0.12900
C 	C 	-0.16178 1.25150 -0.01498 0.04500
C 	C 	-0.20195 1.30055 -0.01558 -0.08100
C 	C 	-0.30422 1.34422 -0.00642 -0.02200
C 	C 	-0.33467 1.39025 -0.00538 -0.02000
H 	H 	-0.33372 1.22416 0.00730 0.05200
H 	H 	-0.26307 1.13731 0.00830 0.03400
H 	H 	-0.11406 1.26093 -0.02132 0.03900
H 	H 	-0.18420 1.34587 -0.02206 0.05300
C 	C 	0.00818 1.26385 0.29180 0.04700
C 	C 	0.01853 1.20190 0.30015 -0.08000
C 	C 	0.01787 1.16202 0.25088 0.04500
C 	C 	0.00676 1.18276 0.19134 -0.12900
C 	C 	-0.00264 1.24539 0.18282 0.04200
C 	C 	-0.00210 1.28555 0.23270 -0.07900
C 	C 	0.00707 1.30351 0.34474 -0.02100
C 	C 	0.00593 1.33356 0.39104 -0.02300
H 	H 	0.02665 1.18410 0.34518 0.05300
H 	H 	0.02588 1.11445 0.25984 0.03900
H 	H 	-0.01133 1.26316 0.13793 0.03400
H 	H 	-0.01023 1.33335 0.22520 0.05200
C 	C 	-0.00761 1.26391 -0.29170 0.04700
C 	C 	-0.01807 1.20199 -0.30004 -0.08000
C 	C 	-0.01743 1.16211 -0.25076 0.04500
C 	C 	-0.00621 1.18283 -0.19123 -0.12900
C 	C 	0.00332 1.24544 -0.18273 0.04200
C 	C 	0.00279 1.28560 -0.23262 -0.07900
C 	C 	-0.00649 1.30356 -0.34465 -0.02100
C 	C 	-0.00536 1.33359 -0.39096 -0.02300
H 	H 	-0.02629 1.18419 -0.34506 0.05200
H 	H 	-0.02554 1.11456 -0.25971 0.03900
H 	H 	0.01209 1.26320 -0.13786 0.03400
H 	H 	0.01101 1.33339 -0.22513 0.05200
C 	C 	0.00795 0.73483 -0.29005 0.04900
C 	C 	0.01560 0.79701 -0.29954 -0.08100
C 	C 	0.01483 0.83754 -0.25079 0.04500
C 	C 	0.00632 0.81718 -0.19071 -0.13000
C 	C 	-0.00057 0.75437 -0.18114 0.04200
C 	C 	0.00011 0.71358 -0.23045 -0.08000
C 	C 	0.00711 0.69437 -0.34232 -0.02300
C 	C 	0.00607 0.66371 -0.38817 -0.01900
H 	H 	0.02177 0.81446 -0.34501 0.05300
H 	H 	0.02073 0.88525 -0.26058 0.03900
H 	H 	-0.00720 0.73687 -0.13579 0.03400
H 	H 	-0.00594 0.66560 -0.22210 0.05200
C 	C 	-0.00789 0.73479 0.29004 0.04900
C 	C 	0.00017 0.71355 0.23046 -0.08000
C 	C 	0.00081 0.75434 0.18114 0.04200
C 	C 	-0.00631 0.81712 0.19069 -0.13000
C 	C 	-0.01505 0.83746 0.25074 0.04500
C 	C 	-0.01579 0.79694 0.29949 -0.08100
C 	C 	-0.00698 0.69434 0.34231 -0.02300
C 	C 	-0.00590 0.66368 0.38817 -0.01900
H 	H 	0.00642 0.66560 0.22213 0.05200
H 	H 	0.00764 0.73686 0.13582 0.03400
H 	H 	-0.02114 0.88515 0.26051 0.03900
H 	H 	-0.02213 0.81437 0.34495 0.05300
