data_crystal

_cell_length_a 21.98300
_cell_length_b 21.98300
_cell_length_c 21.98300
_cell_angle_alpha 90.00000
_cell_angle_beta  90.00000
_cell_angle_gamma 90.00000

_symmetry_space_group_name_	'P 1'
_symmetry_space_group_name_H-M	'P 1'

loop_
_symmetry_equiv_pos_as_xyz
  x,y,z

loop_
_atom_site_label
_atom_site_type_symbol
_atom_site_fract_x
_atom_site_fract_y
_atom_site_fract_z
_atom_site_charge
C 	C 	0.55777 1.00058 -0.37193 0.00300
C 	C 	0.50199 1.00010 -0.34059 -0.05000
C 	C 	0.44609 0.99969 -0.37157 0.00300
C 	C 	0.44554 1.00002 -0.43608 0.00600
C 	C 	0.50138 1.00024 -0.46876 -0.00300
C 	C 	0.55764 1.00040 -0.43663 0.00600
C 	C 	0.61217 1.00036 -0.47016 -0.03700
C 	C 	0.61174 1.00008 -0.53360 -0.03700
C 	C 	0.55675 1.00006 -0.56649 0.00600
C 	C 	0.50090 1.00029 -0.53378 -0.00300
C 	C 	0.39055 1.00012 -0.46880 -0.03700
C 	C 	0.39007 1.00048 -0.53223 -0.03700
C 	C 	0.44459 1.00053 -0.56583 0.00600
C 	C 	0.44432 1.00080 -0.63051 0.00400
C 	C 	0.50004 1.00031 -0.66198 -0.05000
C 	C 	0.55610 0.99981 -0.63112 0.00300
H 	H 	0.65590 1.00043 -0.44749 0.04200
H 	H 	0.65520 0.99998 -0.55677 0.04200
H 	H 	0.34715 1.00001 -0.44554 0.04200
H 	H 	0.34631 1.00061 -0.55483 0.04200
H 	H 	0.50197 1.00002 -0.29121 0.04700
H 	H 	0.49977 1.00031 -0.71140 0.04700
C 	C 	-0.55776 1.37200 0.00067 0.00400
C 	C 	-0.50204 1.34065 0.00014 -0.05000
C 	C 	-0.44617 1.37161 -0.00030 0.00300
C 	C 	-0.44557 1.43610 0.00004 0.00600
C 	C 	-0.50138 1.46879 0.00031 -0.00300
C 	C 	-0.55765 1.43668 0.00050 0.00600
C 	C 	-0.61219 1.47020 0.00051 -0.03700
C 	C 	-0.61174 1.53363 0.00025 -0.03700
C 	C 	-0.55673 1.56649 0.00019 0.00600
C 	C 	-0.50090 1.53377 0.00036 -0.00300
C 	C 	-0.39056 1.46879 0.00010 -0.03700
C 	C 	-0.39006 1.53220 0.00047 -0.03700
C 	C 	-0.44458 1.56580 0.00057 0.00600
C 	C 	-0.44434 1.63045 0.00085 0.00400
C 	C 	-0.50000 1.66194 0.00042 -0.05000
C 	C 	-0.55603 1.63110 -0.00004 0.00300
H 	H 	-0.65591 1.44753 0.00061 0.04200
H 	H 	-0.65519 1.55683 0.00018 0.04200
H 	H 	-0.34717 1.44550 -0.00005 0.04200
H 	H 	-0.34630 1.55481 0.00057 0.04200
H 	H 	-0.50202 1.29126 0.00005 0.04700
H 	H 	-0.49972 1.71136 0.00042 0.04700
C 	C 	0.00048 0.36959 0.44442 0.00400
C 	C 	0.00001 0.33807 0.50004 -0.05000
C 	C 	-0.00034 0.36893 0.55605 0.00300
C 	C 	0.00003 0.43351 0.55676 0.00600
C 	C 	0.00025 0.46621 0.50095 -0.00300
C 	C 	0.00036 0.43421 0.44465 0.00600
C 	C 	0.00033 0.46778 0.39012 -0.03700
C 	C 	0.00012 0.53116 0.39062 -0.03700
C 	C 	0.00014 0.56381 0.44564 0.00600
C 	C 	0.00034 0.53115 0.50144 -0.00300
C 	C 	0.00017 0.46633 0.61179 -0.03700
C 	C 	0.00055 0.52973 0.61224 -0.03700
C 	C 	0.00061 0.56323 0.55769 0.00600
C 	C 	0.00090 0.62786 0.55779 0.00400
C 	C 	0.00045 0.65925 0.50210 -0.05000
C 	C 	-0.00004 0.62826 0.44626 0.00300
H 	H 	0.00036 0.44519 0.34635 0.04200
H 	H 	0.00002 0.55444 0.34722 0.04200
H 	H 	0.00007 0.44314 0.65524 0.04200
H 	H 	0.00070 0.55239 0.65598 0.04200
H 	H 	-0.00009 0.28865 0.49975 0.04700
H 	H 	0.00046 0.70864 0.50209 0.04700
O 	O 	-0.15614 1.00176 -0.08142 -0.64100
O 	O 	0.15624 0.99799 -0.08081 -0.64300
O 	O 	-0.00238 1.08141 -0.15710 -0.64900
O 	O 	0.00255 0.91781 -0.15692 -0.64800
O 	O 	0.00211 0.84200 -0.08418 -0.63100
O 	O 	-0.00211 1.15755 -0.08467 -0.63000
O 	O 	0.08411 0.99806 -0.15667 -0.62600
O 	O 	-0.08377 1.00131 -0.15702 -0.62500
Zr	Zr	0.00010 0.99974 -0.10742 3.23600
O 	O 	0.05476 0.94418 -0.05500 -1.27200
O 	O 	-0.05460 1.05563 -0.05534 -1.27200
C 	C 	-0.14007 1.00253 -0.13814 0.46900
C 	C 	0.14031 0.99692 -0.13754 0.47200
C 	C 	-0.00342 1.13817 -0.14091 0.47500
C 	C 	0.00340 0.86108 -0.14051 0.47400
H 	H 	0.08062 1.08113 -0.08092 0.31900
O 	O 	0.05427 1.05557 -0.05495 -1.50400
H 	H 	-0.08057 0.91855 -0.08091 0.31900
O 	O 	-0.05424 0.94418 -0.05497 -1.50500
O 	O 	0.15620 1.00252 0.08131 -0.64200
O 	O 	-0.15627 0.99766 0.08083 -0.64300
O 	O 	0.08401 1.15805 0.00163 -0.63400
O 	O 	0.08454 0.84238 -0.00149 -0.63300
O 	O 	-0.08424 0.84204 0.00197 -0.63200
O 	O 	-0.08446 1.15766 -0.00196 -0.63500
O 	O 	0.00205 1.08195 0.15711 -0.64900
O 	O 	-0.00241 0.91847 0.15718 -0.65000
O 	O 	0.00159 1.15788 0.08449 -0.62900
O 	O 	-0.00180 0.84238 0.08471 -0.63200
O 	O 	0.15597 1.08178 0.00227 -0.63800
O 	O 	-0.15613 1.08111 -0.00259 -0.64000
O 	O 	-0.15607 0.91843 0.00217 -0.63900
O 	O 	0.15616 0.91900 -0.00195 -0.64000
O 	O 	0.08395 1.00198 0.15703 -0.62400
O 	O 	-0.08418 0.99835 0.15674 -0.62500
Zr	Zr	0.10555 1.00025 0.00020 3.23800
Zr	Zr	-0.10557 0.99981 -0.00017 3.23800
Zr	Zr	-0.00014 1.10924 -0.00005 3.23400
Zr	Zr	0.00010 0.89074 0.00018 3.23400
Zr	Zr	-0.00008 1.00017 0.10752 3.23600
O 	O 	-0.05460 0.94421 0.05527 -1.27200
O 	O 	0.05453 1.05605 0.05535 -1.27400
C 	C 	0.14024 1.00335 0.13804 0.46900
C 	C 	-0.14038 0.99688 0.13757 0.47100
C 	C 	0.14015 1.13866 0.00293 0.47100
C 	C 	0.14058 0.86209 -0.00277 0.47300
C 	C 	-0.14037 0.86155 0.00314 0.47100
C 	C 	-0.14049 1.13800 -0.00338 0.47400
C 	C 	0.00289 1.13869 0.14082 0.47400
C 	C 	-0.00323 0.86172 0.14093 0.47600
H 	H 	-0.08090 1.08109 0.08077 0.31900
O 	O 	-0.05447 1.05554 0.05487 -1.50300
H 	H 	0.08073 0.91912 0.08116 0.31900
O 	O 	0.05433 0.94460 0.05514 -1.50300
C 	C 	0.29230 1.00429 0.26465 0.05300
C 	C 	0.23269 0.99587 0.28642 -0.08200
C 	C 	0.18270 0.99639 0.24603 0.04300
C 	C 	0.19158 1.00512 0.18310 -0.12900
C 	C 	0.25167 1.01427 0.16222 0.04600
C 	C 	0.30111 1.01383 0.20236 -0.08300
C 	C 	0.34512 1.00275 0.30487 -0.03200
C 	C 	0.39102 1.00173 0.33592 -0.00300
H 	H 	0.22484 0.98849 0.33449 0.05200
H 	H 	0.13738 0.98917 0.26392 0.03400
H 	H 	0.26092 1.02160 0.11440 0.03900
H 	H 	0.34656 1.02061 0.18452 0.05300
C 	C 	-0.29248 0.99602 0.26364 0.05400
C 	C 	-0.30115 0.98570 0.20149 -0.08300
C 	C 	-0.25166 0.98518 0.16150 0.04700
C 	C 	-0.19172 0.99505 0.18246 -0.13100
C 	C 	-0.18299 1.00450 0.24528 0.04400
C 	C 	-0.23303 1.00509 0.28551 -0.08200
C 	C 	-0.34526 0.99770 0.30369 -0.03200
C 	C 	-0.39101 0.99882 0.33483 -0.00300
H 	H 	-0.34652 0.97839 0.18365 0.05300
H 	H 	-0.26073 0.97726 0.11373 0.03900
H 	H 	-0.13776 1.01228 0.26317 0.03400
H 	H 	-0.22536 1.01307 0.33352 0.05200
C 	C 	-0.29111 1.00350 -0.26592 0.05300
C 	C 	-0.23118 0.99678 -0.28735 -0.08200
C 	C 	-0.18159 0.99715 -0.24652 0.04300
C 	C 	-0.19117 1.00406 -0.18345 -0.13000
C 	C 	-0.25161 1.01139 -0.16286 0.04600
C 	C 	-0.30066 1.01109 -0.20347 -0.08300
C 	C 	-0.34347 1.00224 -0.30670 -0.03200
C 	C 	-0.38908 1.00137 -0.33815 -0.00300
H 	H 	-0.22276 0.99091 -0.33554 0.05200
H 	H 	-0.13599 0.99138 -0.26420 0.03400
H 	H 	-0.26139 1.01722 -0.11494 0.03900
H 	H 	-0.34640 1.01651 -0.18589 0.05300
C 	C 	0.29196 0.99598 -0.26404 0.05400
C 	C 	0.23237 1.00430 -0.28581 -0.08200
C 	C 	0.18250 1.00377 -0.24540 0.04400
C 	C 	0.19155 0.99513 -0.18250 -0.13100
C 	C 	0.25163 0.98605 -0.16162 0.04700
C 	C 	0.30096 0.98651 -0.20179 -0.08300
C 	C 	0.34454 0.99757 -0.30430 -0.03200
C 	C 	0.39015 0.99866 -0.33558 -0.00300
H 	H 	0.22447 1.01162 -0.33388 0.05300
H 	H 	0.13715 1.01092 -0.26323 0.03400
H 	H 	0.26092 0.97880 -0.11379 0.03800
H 	H 	0.34646 0.97980 -0.18404 0.05300
C 	C 	0.29134 1.26599 0.00375 0.05300
C 	C 	0.23155 1.28746 -0.00370 -0.08200
C 	C 	0.18194 1.24672 -0.00328 0.04400
C 	C 	0.19138 1.18373 0.00442 -0.13100
C 	C 	0.25168 1.16308 0.01246 0.04700
C 	C 	0.30079 1.20361 0.01211 -0.08300
C 	C 	0.34365 1.30672 0.00242 -0.03200
C 	C 	0.38917 1.33821 0.00150 -0.00300
H 	H 	0.22325 1.33559 -0.01019 0.05300
H 	H 	0.13643 1.26442 -0.00966 0.03400
H 	H 	0.26130 1.11520 0.01889 0.03800
H 	H 	0.34646 1.18605 0.01808 0.05300
C 	C 	0.29284 0.73645 -0.00358 0.05400
C 	C 	0.30153 0.79868 -0.01345 -0.08400
C 	C 	0.25200 0.83862 -0.01392 0.04800
C 	C 	0.19208 0.81747 -0.00447 -0.13200
C 	C 	0.18338 0.75459 0.00461 0.04500
C 	C 	0.23342 0.71444 0.00516 -0.08300
C 	C 	0.34553 0.69640 -0.00202 -0.03300
C 	C 	0.39117 0.66519 -0.00098 -0.00300
H 	H 	0.34691 0.81660 -0.02046 0.05300
H 	H 	0.26101 0.88645 -0.02151 0.03800
H 	H 	0.13816 0.73658 0.01210 0.03300
H 	H 	0.22578 0.66637 0.01280 0.05300
C 	C 	-0.29257 0.73535 0.00414 0.05300
C 	C 	-0.23301 0.71346 -0.00410 -0.08200
C 	C 	-0.18302 0.75377 -0.00364 0.04400
C 	C 	-0.19185 0.81674 0.00485 -0.13100
C 	C 	-0.25191 0.83777 0.01376 0.04700
C 	C 	-0.30137 0.79768 0.01338 -0.08300
C 	C 	-0.34530 0.69514 0.00270 -0.03200
C 	C 	-0.39111 0.66404 0.00172 -0.00300
H 	H 	-0.22520 0.66535 -0.01127 0.05300
H 	H 	-0.13772 0.73578 -0.01071 0.03400
H 	H 	-0.26108 0.88565 0.02086 0.03800
H 	H 	-0.34683 0.81558 0.01999 0.05300
C 	C 	-0.29230 1.26403 -0.00418 0.05400
C 	C 	-0.23286 1.28582 0.00486 -0.08300
C 	C 	-0.18296 1.24552 0.00428 0.04500
C 	C 	-0.19185 1.18271 -0.00513 -0.13300
C 	C 	-0.25178 1.16178 -0.01489 0.04800
C 	C 	-0.30117 1.20188 -0.01439 -0.08400
C 	C 	-0.34482 1.30424 -0.00252 -0.03300
C 	C 	-0.39034 1.33559 -0.00138 -0.00300
H 	H 	-0.22509 1.33382 0.01278 0.05300
H 	H 	-0.13771 1.26336 0.01202 0.03400
H 	H 	-0.26089 1.11401 -0.02274 0.03800
H 	H 	-0.34660 1.18415 -0.02163 0.05300
C 	C 	0.00386 1.26517 0.29254 0.05400
C 	C 	-0.00572 1.28685 0.23310 -0.08300
C 	C 	-0.00518 1.24649 0.18316 0.04400
C 	C 	0.00472 1.18375 0.19201 -0.13200
C 	C 	0.01504 1.16300 0.25194 0.04700
C 	C 	0.01457 1.20311 0.30131 -0.08400
C 	C 	0.00228 1.30524 0.34528 -0.03300
C 	C 	0.00130 1.33614 0.39117 -0.00300
H 	H 	-0.01404 1.33479 0.22537 0.05300
H 	H 	-0.01336 1.26422 0.13794 0.03300
H 	H 	0.02331 1.11532 0.26110 0.03900
H 	H 	0.02224 1.18543 0.34669 0.05400
C 	C 	-0.00436 1.26407 -0.29271 0.05400
C 	C 	-0.01616 1.20219 -0.30127 -0.08400
C 	C 	-0.01674 1.16225 -0.25181 0.04800
C 	C 	-0.00544 1.18304 -0.19209 -0.13400
C 	C 	0.00544 1.24563 -0.18345 0.04500
C 	C 	0.00609 1.28581 -0.23346 -0.08300
C 	C 	-0.00253 1.30395 -0.34543 -0.03300
C 	C 	-0.00136 1.33496 -0.39115 -0.00300
H 	H 	-0.02454 1.18453 -0.34653 0.05400
H 	H 	-0.02582 1.11466 -0.26073 0.03900
H 	H 	0.01439 1.26332 -0.13837 0.03300
H 	H 	0.01523 1.33364 -0.22596 0.05300
C 	C 	0.00430 0.73344 -0.29123 0.05400
C 	C 	0.01343 0.79566 -0.30074 -0.08400
C 	C 	0.01386 0.83623 -0.25173 0.04700
C 	C 	0.00510 0.81577 -0.19147 -0.13200
C 	C 	-0.00331 0.75290 -0.18193 0.04500
C 	C 	-0.00380 0.71210 -0.23147 -0.08300
C 	C 	0.00280 0.69282 -0.34352 -0.03300
C 	C 	0.00180 0.66153 -0.38913 -0.00300
H 	H 	0.01992 0.81308 -0.34640 0.05400
H 	H 	0.02087 0.88401 -0.26143 0.03900
H 	H 	-0.01027 0.73538 -0.13643 0.03400
H 	H 	-0.01090 0.66406 -0.22318 0.05300
C 	C 	-0.00401 0.73538 0.29229 0.05500
C 	C 	0.00583 0.71376 0.23291 -0.08300
C 	C 	0.00518 0.75411 0.18307 0.04600
C 	C 	-0.00510 0.81676 0.19202 -0.13400
C 	C 	-0.01574 0.83746 0.25189 0.04800
C 	C 	-0.01516 0.79733 0.30118 -0.08400
C 	C 	-0.00224 0.69530 0.34482 -0.03300
C 	C 	-0.00108 0.66415 0.39042 -0.00300
H 	H 	0.01446 0.66587 0.22518 0.05300
H 	H 	0.01361 0.73649 0.13786 0.03300
H 	H 	-0.02430 0.88510 0.26104 0.03900
H 	H 	-0.02304 0.81489 0.34657 0.05400
