data_crystal

_cell_length_a 13.83800
_cell_length_b 12.78400
_cell_length_c 16.88500
_cell_angle_alpha 90.00000
_cell_angle_beta  90.00000
_cell_angle_gamma 90.00000

_symmetry_space_group_name_	'P 1'
_symmetry_space_group_name_H-M	'P 1'

loop_
_symmetry_equiv_pos_as_xyz
  x,y,z

loop_
_atom_site_label
_atom_site_type_symbol
_atom_site_fract_x
_atom_site_fract_y
_atom_site_fract_z
_atom_site_charge
Zn	Zn	0.59354 0.97602 0.92413 1.18300
Zn	Zn	0.47753 0.43198 0.90213 1.18400
C 	C 	0.58960 0.97820 0.75460 0.23600
C 	C 	0.49380 0.92580 0.77790 0.20100
C 	C 	0.54810 0.20530 0.91240 0.18600
C 	C 	0.41780 0.22470 0.97660 0.16800
C 	C 	0.77990 0.02140 0.02220 0.17800
C 	C 	0.81200 0.97570 0.90540 0.09000
H 	H 	0.80520 0.95520 0.85280 -0.01200
N 	N 	0.47890 0.27710 0.92740 -0.31300
N 	N 	0.53260 0.11560 0.94910 -0.27000
N 	N 	0.44730 0.12820 0.99060 -0.26200
N 	N 	0.62780 0.22500 0.86550 -0.34000
H 	H 	0.67100 0.17740 0.85880 0.14600
H 	H 	0.63430 0.28490 0.84290 0.15400
N 	N 	0.89590 0.98870 0.93980 -0.26100
N 	N 	0.87560 0.01800 0.01760 -0.27100
N 	N 	0.73700 0.99470 0.95340 -0.29300
N 	N 	0.72980 0.05170 0.08730 -0.34100
H 	H 	0.76020 0.07060 0.12940 0.16000
H 	H 	0.66770 0.05220 0.08650 0.14100
O 	O 	0.64380 0.00710 0.80940 -0.40500
O 	O 	0.47840 0.91620 0.85030 -0.40000
O 	O 	0.60630 0.99200 0.68230 -0.43700
O 	O 	0.44160 0.89730 0.72090 -0.34800
H 	H 	0.29220 0.20970 0.02970 0.11600
H 	H 	0.30630 0.31630 0.99600 0.13800
N 	N 	0.32700 0.25400 0.00400 -0.33100
Zn	Zn	0.90646 0.02398 0.42413 1.18200
Zn	Zn	0.02247 0.56802 0.40213 1.18400
C 	C 	0.91040 0.02180 0.25460 0.21800
C 	C 	0.00620 0.07420 0.27790 0.21500
C 	C 	0.95190 0.79470 0.41240 0.19100
C 	C 	0.08220 0.77530 0.47660 0.16400
C 	C 	0.72010 0.97860 0.52220 0.19000
C 	C 	0.68800 0.02430 0.40540 0.08800
H 	H 	0.69480 0.04480 0.35280 -0.01400
N 	N 	0.02110 0.72290 0.42740 -0.31600
N 	N 	0.96740 0.88440 0.44910 -0.26800
N 	N 	0.05270 0.87180 0.49060 -0.26800
N 	N 	0.87220 0.77500 0.36550 -0.34100
H 	H 	0.82900 0.82260 0.35880 0.14700
H 	H 	0.86570 0.71510 0.34290 0.15500
N 	N 	0.60410 0.01130 0.43980 -0.26600
N 	N 	0.62440 0.98200 0.51760 -0.26700
N 	N 	0.76300 0.00530 0.45340 -0.29900
N 	N 	0.77020 0.94830 0.58730 -0.34300
H 	H 	0.73980 0.92940 0.62940 0.16200
H 	H 	0.83230 0.94780 0.58650 0.14500
O 	O 	0.85620 0.99290 0.30940 -0.39200
O 	O 	0.02160 0.08380 0.35030 -0.39900
O 	O 	0.89370 0.00800 0.18230 -0.43600
O 	O 	0.05840 0.10270 0.22090 -0.34800
H 	H 	0.20780 0.79030 0.52970 0.11400
H 	H 	0.19370 0.68370 0.49600 0.13400
N 	N 	0.17300 0.74600 0.50400 -0.32700
Zn	Zn	0.40646 0.47602 0.57587 1.18500
Zn	Zn	0.52247 0.93198 0.59787 1.18500
C 	C 	0.41040 0.47820 0.74540 0.24000
C 	C 	0.50620 0.42580 0.72210 0.20200
C 	C 	0.45190 0.70530 0.58760 0.18600
C 	C 	0.58220 0.72470 0.52340 0.16500
C 	C 	0.22010 0.52140 0.47780 0.18500
C 	C 	0.18800 0.47570 0.59460 0.08900
H 	H 	0.19480 0.45520 0.64720 -0.01200
N 	N 	0.52110 0.77710 0.57260 -0.31300
N 	N 	0.46740 0.61560 0.55090 -0.27100
N 	N 	0.55270 0.62820 0.50940 -0.26400
N 	N 	0.37220 0.72500 0.63450 -0.34000
H 	H 	0.32900 0.67740 0.64120 0.14500
H 	H 	0.36570 0.78490 0.65710 0.15300
N 	N 	0.10410 0.48870 0.56020 -0.26500
N 	N 	0.12440 0.51800 0.48240 -0.26700
N 	N 	0.26300 0.49470 0.54660 -0.29500
N 	N 	0.27020 0.55170 0.41270 -0.34200
H 	H 	0.23980 0.57060 0.37060 0.16100
H 	H 	0.33230 0.55220 0.41350 0.14300
O 	O 	0.35620 0.50710 0.69060 -0.40700
O 	O 	0.52160 0.41620 0.64970 -0.39900
O 	O 	0.39370 0.49200 0.81770 -0.43800
O 	O 	0.55840 0.39730 0.77910 -0.34800
H 	H 	0.70780 0.70970 0.47030 0.11500
H 	H 	0.69370 0.81630 0.50400 0.13500
N 	N 	0.67300 0.75400 0.49600 -0.32700
Zn	Zn	0.09354 0.52398 0.07587 1.18500
Zn	Zn	0.97753 0.06802 0.09787 1.18200
C 	C 	0.08960 0.52180 0.24540 0.23900
C 	C 	0.99380 0.57420 0.22210 0.20200
C 	C 	0.04810 0.29470 0.08760 0.19100
C 	C 	0.91780 0.27530 0.02340 0.16000
C 	C 	0.27990 0.47860 0.97780 0.18400
C 	C 	0.31200 0.52430 0.09460 0.08900
H 	H 	0.30520 0.54480 0.14720 -0.01300
N 	N 	0.97890 0.22290 0.07260 -0.31600
N 	N 	0.03260 0.38440 0.05090 -0.27100
N 	N 	0.94730 0.37180 0.00940 -0.26500
N 	N 	0.12780 0.27500 0.13450 -0.34100
H 	H 	0.17100 0.32260 0.14120 0.14600
H 	H 	0.13430 0.21510 0.15710 0.15400
N 	N 	0.39590 0.51130 0.06020 -0.26600
N 	N 	0.37560 0.48200 0.98240 -0.26800
N 	N 	0.23700 0.50530 0.04660 -0.29500
N 	N 	0.22980 0.44830 0.91270 -0.34200
H 	H 	0.26020 0.42940 0.87060 0.16100
H 	H 	0.16770 0.44780 0.91350 0.14300
O 	O 	0.14380 0.49290 0.19060 -0.40700
O 	O 	0.97840 0.58380 0.14970 -0.39700
O 	O 	0.10630 0.50800 0.31770 -0.43800
O 	O 	0.94160 0.60270 0.27910 -0.34700
H 	H 	0.79220 0.29030 0.97030 0.11400
H 	H 	0.80630 0.18370 0.00400 0.13000
N 	N 	0.82700 0.24600 0.99600 -0.32000
Zn	Zn	0.40646 0.02398 0.07587 1.18400
Zn	Zn	0.52247 0.56802 0.09787 1.18500
C 	C 	0.41040 0.02180 0.24540 0.23700
C 	C 	0.50620 0.07420 0.22210 0.20200
C 	C 	0.45190 0.79470 0.08760 0.18700
C 	C 	0.58220 0.77530 0.02340 0.16900
C 	C 	0.22010 0.97860 0.97780 0.17800
C 	C 	0.18800 0.02430 0.09460 0.09000
H 	H 	0.19480 0.04480 0.14720 -0.01200
N 	N 	0.52110 0.72290 0.07260 -0.31300
N 	N 	0.46740 0.88440 0.05090 -0.27000
N 	N 	0.55270 0.87180 0.00940 -0.26200
N 	N 	0.37220 0.77500 0.13450 -0.34000
H 	H 	0.32900 0.82260 0.14120 0.14600
H 	H 	0.36570 0.71510 0.15710 0.15400
N 	N 	0.10410 0.01130 0.06020 -0.26100
N 	N 	0.12440 0.98200 0.98240 -0.27100
N 	N 	0.26300 0.00530 0.04660 -0.29300
N 	N 	0.27020 0.94830 0.91270 -0.34100
H 	H 	0.23980 0.92940 0.87060 0.16000
H 	H 	0.33230 0.94780 0.91350 0.14100
O 	O 	0.35620 0.99290 0.19060 -0.40500
O 	O 	0.52160 0.08380 0.14970 -0.40000
O 	O 	0.39370 0.00800 0.31770 -0.43700
O 	O 	0.55840 0.10270 0.27910 -0.34800
H 	H 	0.70780 0.79030 0.97030 0.11600
H 	H 	0.69370 0.68370 0.00400 0.13800
N 	N 	0.67300 0.74600 0.99600 -0.33100
Zn	Zn	0.09354 0.97602 0.57587 1.18200
Zn	Zn	0.97753 0.43198 0.59787 1.18400
C 	C 	0.08960 0.97820 0.74540 0.21800
C 	C 	0.99380 0.92580 0.72210 0.21500
C 	C 	0.04810 0.20530 0.58760 0.19100
C 	C 	0.91780 0.22470 0.52340 0.16400
C 	C 	0.27990 0.02140 0.47780 0.19000
C 	C 	0.31200 0.97570 0.59460 0.08800
H 	H 	0.30520 0.95520 0.64720 -0.01400
N 	N 	0.97890 0.27710 0.57260 -0.31600
N 	N 	0.03260 0.11560 0.55090 -0.26800
N 	N 	0.94730 0.12820 0.50940 -0.26800
N 	N 	0.12780 0.22500 0.63450 -0.34100
H 	H 	0.17100 0.17740 0.64120 0.14700
H 	H 	0.13430 0.28490 0.65710 0.15500
N 	N 	0.39590 0.98870 0.56020 -0.26600
N 	N 	0.37560 0.01800 0.48240 -0.26700
N 	N 	0.23700 0.99470 0.54660 -0.29900
N 	N 	0.22980 0.05170 0.41270 -0.34300
H 	H 	0.26020 0.07060 0.37060 0.16200
H 	H 	0.16770 0.05220 0.41350 0.14500
O 	O 	0.14380 0.00710 0.69060 -0.39200
O 	O 	0.97840 0.91620 0.64970 -0.39900
O 	O 	0.10630 0.99200 0.81770 -0.43600
O 	O 	0.94160 0.89730 0.77910 -0.34800
H 	H 	0.79220 0.20970 0.47030 0.11400
H 	H 	0.80630 0.31630 0.50400 0.13400
N 	N 	0.82700 0.25400 0.49600 -0.32700
Zn	Zn	0.59354 0.52398 0.42413 1.18500
Zn	Zn	0.47753 0.06802 0.40213 1.18500
C 	C 	0.58960 0.52180 0.25460 0.24000
C 	C 	0.49380 0.57420 0.27790 0.20200
C 	C 	0.54810 0.29470 0.41240 0.18600
C 	C 	0.41780 0.27530 0.47660 0.16500
C 	C 	0.77990 0.47860 0.52220 0.18500
C 	C 	0.81200 0.52430 0.40540 0.08900
H 	H 	0.80520 0.54480 0.35280 -0.01200
N 	N 	0.47890 0.22290 0.42740 -0.31300
N 	N 	0.53260 0.38440 0.44910 -0.27100
N 	N 	0.44730 0.37180 0.49060 -0.26400
N 	N 	0.62780 0.27500 0.36550 -0.34000
H 	H 	0.67100 0.32260 0.35880 0.14500
H 	H 	0.63430 0.21510 0.34290 0.15300
N 	N 	0.89590 0.51130 0.43980 -0.26500
N 	N 	0.87560 0.48200 0.51760 -0.26700
N 	N 	0.73700 0.50530 0.45340 -0.29500
N 	N 	0.72980 0.44830 0.58730 -0.34200
H 	H 	0.76020 0.42940 0.62940 0.16100
H 	H 	0.66770 0.44780 0.58650 0.14300
O 	O 	0.64380 0.49290 0.30940 -0.40700
O 	O 	0.47840 0.58380 0.35030 -0.39900
O 	O 	0.60630 0.50800 0.18230 -0.43800
O 	O 	0.44160 0.60270 0.22090 -0.34800
H 	H 	0.29220 0.29030 0.52970 0.11500
H 	H 	0.30630 0.18370 0.49600 0.13500
N 	N 	0.32700 0.24600 0.50400 -0.32700
Zn	Zn	0.90646 0.47602 0.92413 1.18500
Zn	Zn	0.02247 0.93198 0.90213 1.18200
C 	C 	0.91040 0.47820 0.75460 0.23900
C 	C 	0.00620 0.42580 0.77790 0.20200
C 	C 	0.95190 0.70530 0.91240 0.19100
C 	C 	0.08220 0.72470 0.97660 0.16000
C 	C 	0.72010 0.52140 0.02220 0.18400
C 	C 	0.68800 0.47570 0.90540 0.08900
H 	H 	0.69480 0.45520 0.85280 -0.01300
N 	N 	0.02110 0.77710 0.92740 -0.31600
N 	N 	0.96740 0.61560 0.94910 -0.27100
N 	N 	0.05270 0.62820 0.99060 -0.26500
N 	N 	0.87220 0.72500 0.86550 -0.34100
H 	H 	0.82900 0.67740 0.85880 0.14600
H 	H 	0.86570 0.78490 0.84290 0.15400
N 	N 	0.60410 0.48870 0.93980 -0.26600
N 	N 	0.62440 0.51800 0.01760 -0.26800
N 	N 	0.76300 0.49470 0.95340 -0.29500
N 	N 	0.77020 0.55170 0.08730 -0.34200
H 	H 	0.73980 0.57060 0.12940 0.16100
H 	H 	0.83230 0.55220 0.08650 0.14300
O 	O 	0.85620 0.50710 0.80940 -0.40700
O 	O 	0.02160 0.41620 0.85030 -0.39700
O 	O 	0.89370 0.49200 0.68230 -0.43800
O 	O 	0.05840 0.39730 0.72090 -0.34700
H 	H 	0.20780 0.70970 0.02970 0.11400
H 	H 	0.19370 0.81630 0.99600 0.13000
N 	N 	0.17300 0.75400 0.00400 -0.32000
