data_crystal

_cell_length_a 15.72720
_cell_length_b 23.55500
_cell_length_c 23.55500
_cell_angle_alpha 64.56170
_cell_angle_beta  70.49800
_cell_angle_gamma 70.49800

_symmetry_space_group_name_	'P 1'
_symmetry_space_group_name_H-M	'P 1'

loop_
_symmetry_equiv_pos_as_xyz
  x,y,z

loop_
_atom_site_label
_atom_site_type_symbol
_atom_site_fract_x
_atom_site_fract_y
_atom_site_fract_z
_atom_site_charge
Mg	Mg	0.16901 0.49487 0.49487 1.46400
Mg	Mg	0.65875 0.00513 0.00513 1.46300
H 	H 	0.94230 0.64380 0.24660 0.11600
H 	H 	0.00410 0.59830 0.33630 -0.00200
H 	H 	0.24130 0.52330 0.23670 0.01200
H 	H 	0.17820 0.56860 0.14660 0.11300
H 	H 	0.04980 0.73470 0.13670 0.11800
H 	H 	0.96310 0.84090 0.11670 0.01300
H 	H 	0.79460 0.80170 0.04990 0.00100
H 	H 	0.87510 0.69540 0.07660 0.11200
H 	H 	0.02280 0.51780 0.16220 0.07900
H 	H 	0.06420 0.45900 0.09760 0.03300
H 	H 	0.10780 0.61230 0.94230 0.03800
H 	H 	0.06730 0.67500 0.00740 0.08100
H 	H 	0.33270 0.85620 0.25340 0.11600
H 	H 	0.43870 0.90170 0.16370 -0.00100
H 	H 	0.50130 0.97670 0.26330 0.01300
H 	H 	0.39340 0.93140 0.35340 0.11300
H 	H 	0.42120 0.76530 0.36330 0.11900
H 	H 	0.42070 0.65910 0.38330 0.01400
H 	H 	0.14620 0.69830 0.45010 0.00200
H 	H 	0.14710 0.80460 0.42340 0.11300
H 	H 	0.20280 0.98220 0.33780 0.08400
H 	H 	0.12080 0.04100 0.40240 0.02900
H 	H 	0.16240 0.88770 0.55770 0.03400
H 	H 	0.24970 0.82500 0.49260 0.08500
H 	H 	0.33270 0.25340 0.85620 0.11700
H 	H 	0.43870 0.16370 0.90170 -0.00000
H 	H 	0.50130 0.26330 0.97670 0.01400
H 	H 	0.39340 0.35340 0.93140 0.11400
H 	H 	0.42120 0.36330 0.76530 0.11900
H 	H 	0.42070 0.38330 0.65910 0.01400
H 	H 	0.14620 0.45010 0.69830 0.00200
H 	H 	0.14710 0.42340 0.80460 0.11300
H 	H 	0.20280 0.33780 0.98220 0.08400
H 	H 	0.12080 0.40240 0.04100 0.02900
H 	H 	0.16240 0.55770 0.88770 0.03400
H 	H 	0.24970 0.49260 0.82500 0.08500
H 	H 	0.94230 0.24660 0.64380 0.11700
H 	H 	0.00410 0.33630 0.59830 -0.00100
H 	H 	0.24130 0.23670 0.52330 0.01300
H 	H 	0.17820 0.14660 0.56860 0.11400
H 	H 	0.04980 0.13670 0.73470 0.11900
H 	H 	0.96310 0.11670 0.84090 0.01400
H 	H 	0.79460 0.04990 0.80170 0.00200
H 	H 	0.87510 0.07660 0.69540 0.11300
H 	H 	0.02280 0.16220 0.51780 0.08000
H 	H 	0.06420 0.09760 0.45900 0.03400
H 	H 	0.10780 0.94230 0.61230 0.03900
H 	H 	0.06730 0.00740 0.67500 0.08200
C 	C 	0.05386 0.61049 0.18819 0.19000
C 	C 	0.00257 0.61919 0.24447 -0.22800
C 	C 	0.04000 0.59157 0.29843 0.12800
C 	C 	0.12748 0.55502 0.29762 -0.17300
C 	C 	0.18057 0.54713 0.23913 0.11000
C 	C 	0.14293 0.57457 0.18497 -0.21400
C 	C 	0.17409 0.52421 0.35221 0.36900
C 	C 	0.96479 0.70491 0.11411 0.19300
C 	C 	0.99596 0.74784 0.12184 -0.22000
C 	C 	0.94595 0.81225 0.10725 0.12100
C 	C 	0.87143 0.83341 0.07893 -0.17100
C 	C 	0.84504 0.78847 0.06845 0.11700
C 	C 	0.89230 0.72460 0.08500 -0.22300
C 	C 	0.81587 0.90193 0.05853 0.40800
C 	C 	0.03895 0.60205 0.09245 0.12500
C 	C 	0.04049 0.53781 0.11781 -0.13300
C 	C 	0.06763 0.50217 0.07877 -0.00800
C 	C 	0.10018 0.52812 0.01212 0.00100
C 	C 	0.09390 0.59230 0.98690 -0.02300
C 	C 	0.06660 0.63130 0.02610 -0.12000
C 	C 	0.35254 0.88951 0.31181 0.19000
C 	C 	0.36623 0.88081 0.25553 -0.22800
C 	C 	0.43000 0.90843 0.20157 0.12800
C 	C 	0.48012 0.94498 0.20238 -0.17200
C 	C 	0.46683 0.95287 0.26087 0.11000
C 	C 	0.40247 0.92543 0.31503 -0.21400
C 	C 	0.55051 0.97579 0.14779 0.36900
C 	C 	0.28381 0.79509 0.38589 0.19400
C 	C 	0.36564 0.75216 0.37816 -0.22000
C 	C 	0.36545 0.68775 0.39275 0.12100
C 	C 	0.28377 0.66659 0.42107 -0.17100
C 	C 	0.20196 0.71153 0.43155 0.11700
C 	C 	0.20190 0.77540 0.41500 -0.22300
C 	C 	0.27633 0.59807 0.44147 0.40900
C 	C 	0.23345 0.89795 0.40755 0.13200
C 	C 	0.19611 0.96219 0.38219 -0.14400
C 	C 	0.14857 0.99783 0.42123 0.00600
C 	C 	0.14042 0.97188 0.48788 -0.01600
C 	C 	0.17310 0.90770 0.51310 -0.00700
C 	C 	0.22400 0.86870 0.47390 -0.13200
C 	C 	0.35254 0.31181 0.88951 0.19000
C 	C 	0.36623 0.25553 0.88081 -0.22800
C 	C 	0.43000 0.20157 0.90843 0.12800
C 	C 	0.48012 0.20238 0.94498 -0.17200
C 	C 	0.46683 0.26087 0.95287 0.11000
C 	C 	0.40247 0.31503 0.92543 -0.21400
C 	C 	0.55051 0.14779 0.97579 0.36900
C 	C 	0.28381 0.38589 0.79509 0.19400
C 	C 	0.36564 0.37816 0.75216 -0.22000
C 	C 	0.36545 0.39275 0.68775 0.12100
C 	C 	0.28377 0.42107 0.66659 -0.17100
C 	C 	0.20196 0.43155 0.71153 0.11700
C 	C 	0.20190 0.41500 0.77540 -0.22300
C 	C 	0.27633 0.44147 0.59807 0.40900
C 	C 	0.23345 0.40755 0.89795 0.13200
C 	C 	0.19611 0.38219 0.96219 -0.14400
C 	C 	0.14857 0.42123 0.99783 0.00600
C 	C 	0.14042 0.48788 0.97188 -0.01600
C 	C 	0.17310 0.51310 0.90770 -0.00700
C 	C 	0.22400 0.47390 0.86870 -0.13200
C 	C 	0.05386 0.18819 0.61049 0.19000
C 	C 	0.00257 0.24447 0.61919 -0.22800
C 	C 	0.04000 0.29843 0.59157 0.12800
C 	C 	0.12748 0.29762 0.55502 -0.17300
C 	C 	0.18057 0.23913 0.54713 0.11000
C 	C 	0.14293 0.18497 0.57457 -0.21400
C 	C 	0.17409 0.35221 0.52421 0.36900
C 	C 	0.96479 0.11411 0.70491 0.19300
C 	C 	0.99596 0.12184 0.74784 -0.22000
C 	C 	0.94595 0.10725 0.81225 0.12100
C 	C 	0.87143 0.07893 0.83341 -0.17100
C 	C 	0.84504 0.06845 0.78847 0.11700
C 	C 	0.89230 0.08500 0.72460 -0.22300
C 	C 	0.81587 0.05853 0.90193 0.40800
C 	C 	0.03895 0.09245 0.60205 0.12500
C 	C 	0.04049 0.11781 0.53781 -0.13300
C 	C 	0.06763 0.07877 0.50217 -0.00800
C 	C 	0.10018 0.01212 0.52812 0.00100
C 	C 	0.09390 0.98690 0.59230 -0.02300
C 	C 	0.06660 0.02610 0.63130 -0.12000
N 	N 	0.01603 0.63917 0.13197 -0.18900
N 	N 	0.28717 0.86083 0.36803 -0.19000
N 	N 	0.28717 0.36803 0.86083 -0.19000
N 	N 	0.01603 0.13197 0.63917 -0.18900
O 	O 	0.74844 0.91855 0.03757 -0.51400
O 	O 	0.85398 0.93920 0.06624 -0.25800
O 	O 	0.12420 0.52598 0.40762 -0.45900
O 	O 	0.25866 0.50004 0.34184 -0.28400
O 	O 	0.20456 0.58145 0.46243 -0.51600
O 	O 	0.35942 0.56080 0.43376 -0.25900
O 	O 	0.55780 0.97402 0.09238 -0.45800
O 	O 	0.60054 0.99996 0.15816 -0.28200
O 	O 	0.20456 0.46243 0.58145 -0.51600
O 	O 	0.35942 0.43376 0.56080 -0.25900
O 	O 	0.55780 0.09238 0.97402 -0.45800
O 	O 	0.60054 0.15816 0.99996 -0.28200
O 	O 	0.74844 0.03757 0.91855 -0.51400
O 	O 	0.85398 0.06624 0.93920 -0.25800
O 	O 	0.12420 0.40762 0.52598 -0.45900
O 	O 	0.25866 0.34184 0.50004 -0.28400
Mg	Mg	0.34125 0.99487 0.99487 1.46400
Mg	Mg	0.83099 0.50513 0.50513 1.46500
H 	H 	0.66730 0.74660 0.14380 0.11700
H 	H 	0.56130 0.83630 0.09830 -0.00000
H 	H 	0.49870 0.73670 0.02330 0.01400
H 	H 	0.60660 0.64660 0.06860 0.11400
H 	H 	0.57880 0.63670 0.23470 0.11900
H 	H 	0.57930 0.61670 0.34090 0.01400
H 	H 	0.85380 0.54990 0.30170 0.00200
H 	H 	0.85290 0.57660 0.19540 0.11300
H 	H 	0.79720 0.66220 0.01780 0.08400
H 	H 	0.87920 0.59760 0.95900 0.02900
H 	H 	0.83760 0.44230 0.11230 0.03400
H 	H 	0.75030 0.50740 0.17500 0.08500
H 	H 	0.05770 0.75340 0.35620 0.11700
H 	H 	0.99590 0.66370 0.40170 -0.00100
H 	H 	0.75870 0.76330 0.47670 0.01300
H 	H 	0.82180 0.85340 0.43140 0.11400
H 	H 	0.95020 0.86330 0.26530 0.11900
H 	H 	0.03690 0.88330 0.15910 0.01400
H 	H 	0.20540 0.95010 0.19830 0.00200
H 	H 	0.12490 0.92340 0.30460 0.11300
H 	H 	0.97720 0.83780 0.48220 0.08000
H 	H 	0.93580 0.90240 0.54100 0.03400
H 	H 	0.89220 0.05770 0.38770 0.03900
H 	H 	0.93270 0.99260 0.32500 0.08200
H 	H 	0.05770 0.35620 0.75340 0.11700
H 	H 	0.99590 0.40170 0.66370 -0.00100
H 	H 	0.75870 0.47670 0.76330 0.01300
H 	H 	0.82180 0.43140 0.85340 0.11400
H 	H 	0.95020 0.26530 0.86330 0.11900
H 	H 	0.03690 0.15910 0.88330 0.01400
H 	H 	0.20540 0.19830 0.95010 0.00200
H 	H 	0.12490 0.30460 0.92340 0.11300
H 	H 	0.97720 0.48220 0.83780 0.08000
H 	H 	0.93580 0.54100 0.90240 0.03400
H 	H 	0.89220 0.38770 0.05770 0.03900
H 	H 	0.93270 0.32500 0.99260 0.08200
H 	H 	0.66730 0.14380 0.74660 0.11700
H 	H 	0.56130 0.09830 0.83630 -0.00000
H 	H 	0.49870 0.02330 0.73670 0.01400
H 	H 	0.60660 0.06860 0.64660 0.11400
H 	H 	0.57880 0.23470 0.63670 0.11900
H 	H 	0.57930 0.34090 0.61670 0.01400
H 	H 	0.85380 0.30170 0.54990 0.00200
H 	H 	0.85290 0.19540 0.57660 0.11300
H 	H 	0.79720 0.01780 0.66220 0.08400
H 	H 	0.87920 0.95900 0.59760 0.02900
H 	H 	0.83760 0.11230 0.44230 0.03400
H 	H 	0.75030 0.17500 0.50740 0.08500
C 	C 	0.64746 0.68819 0.11049 0.19000
C 	C 	0.63377 0.74447 0.11919 -0.22800
C 	C 	0.57000 0.79843 0.09157 0.12800
C 	C 	0.51988 0.79762 0.05502 -0.17200
C 	C 	0.53317 0.73913 0.04713 0.11000
C 	C 	0.59753 0.68497 0.07457 -0.21400
C 	C 	0.44949 0.85221 0.02421 0.36900
C 	C 	0.71619 0.61411 0.20491 0.19400
C 	C 	0.63436 0.62184 0.24784 -0.22000
C 	C 	0.63455 0.60725 0.31225 0.12100
C 	C 	0.71623 0.57893 0.33341 -0.17100
C 	C 	0.79804 0.56845 0.28847 0.11700
C 	C 	0.79810 0.58500 0.22460 -0.22300
C 	C 	0.72367 0.55853 0.40193 0.40900
C 	C 	0.76655 0.59245 0.10205 0.13200
C 	C 	0.80389 0.61781 0.03781 -0.14400
C 	C 	0.85143 0.57877 0.00217 0.00600
C 	C 	0.85958 0.51212 0.02812 -0.01600
C 	C 	0.82690 0.48690 0.09230 -0.00700
C 	C 	0.77600 0.52610 0.13130 -0.13200
C 	C 	0.94614 0.81181 0.38951 0.19000
C 	C 	0.99743 0.75553 0.38081 -0.22800
C 	C 	0.96000 0.70157 0.40843 0.12800
C 	C 	0.87252 0.70238 0.44498 -0.17300
C 	C 	0.81943 0.76087 0.45287 0.11000
C 	C 	0.85707 0.81503 0.42543 -0.21400
C 	C 	0.82591 0.64779 0.47579 0.36900
C 	C 	0.03521 0.88589 0.29509 0.19300
C 	C 	0.00404 0.87816 0.25216 -0.22000
C 	C 	0.05405 0.89275 0.18775 0.12100
C 	C 	0.12857 0.92107 0.16659 -0.17100
C 	C 	0.15496 0.93155 0.21153 0.11700
C 	C 	0.10770 0.91500 0.27540 -0.22300
C 	C 	0.18413 0.94147 0.09807 0.40800
C 	C 	0.96105 0.90755 0.39795 0.12500
C 	C 	0.95951 0.88219 0.46219 -0.13300
C 	C 	0.93237 0.92123 0.49783 -0.00800
C 	C 	0.89982 0.98788 0.47188 0.00100
C 	C 	0.90610 0.01310 0.40770 -0.02300
C 	C 	0.93340 0.97390 0.36870 -0.12000
C 	C 	0.94614 0.38951 0.81181 0.19000
C 	C 	0.99743 0.38081 0.75553 -0.22800
C 	C 	0.96000 0.40843 0.70157 0.12800
C 	C 	0.87252 0.44498 0.70238 -0.17300
C 	C 	0.81943 0.45287 0.76087 0.11000
C 	C 	0.85707 0.42543 0.81503 -0.21400
C 	C 	0.82591 0.47579 0.64779 0.36900
C 	C 	0.03521 0.29509 0.88589 0.19300
C 	C 	0.00404 0.25216 0.87816 -0.22000
C 	C 	0.05405 0.18775 0.89275 0.12100
C 	C 	0.12857 0.16659 0.92107 -0.17100
C 	C 	0.15496 0.21153 0.93155 0.11700
C 	C 	0.10770 0.27540 0.91500 -0.22300
C 	C 	0.18413 0.09807 0.94147 0.40800
C 	C 	0.96105 0.39795 0.90755 0.12500
C 	C 	0.95951 0.46219 0.88219 -0.13300
C 	C 	0.93237 0.49783 0.92123 -0.00800
C 	C 	0.89982 0.47188 0.98788 0.00100
C 	C 	0.90610 0.40770 0.01310 -0.02300
C 	C 	0.93340 0.36870 0.97390 -0.12000
C 	C 	0.64746 0.11049 0.68819 0.19000
C 	C 	0.63377 0.11919 0.74447 -0.22800
C 	C 	0.57000 0.09157 0.79843 0.12800
C 	C 	0.51988 0.05502 0.79762 -0.17200
C 	C 	0.53317 0.04713 0.73913 0.11000
C 	C 	0.59753 0.07457 0.68497 -0.21400
C 	C 	0.44949 0.02421 0.85221 0.36900
C 	C 	0.71619 0.20491 0.61411 0.19400
C 	C 	0.63436 0.24784 0.62184 -0.22000
C 	C 	0.63455 0.31225 0.60725 0.12100
C 	C 	0.71623 0.33341 0.57893 -0.17100
C 	C 	0.79804 0.28847 0.56845 0.11700
C 	C 	0.79810 0.22460 0.58500 -0.22300
C 	C 	0.72367 0.40193 0.55853 0.40900
C 	C 	0.76655 0.10205 0.59245 0.13200
C 	C 	0.80389 0.03781 0.61781 -0.14400
C 	C 	0.85143 0.00217 0.57877 0.00600
C 	C 	0.85958 0.02812 0.51212 -0.01600
C 	C 	0.82690 0.09230 0.48690 -0.00700
C 	C 	0.77600 0.13130 0.52610 -0.13200
N 	N 	0.71283 0.63197 0.13917 -0.19000
N 	N 	0.98397 0.86803 0.36083 -0.18900
N 	N 	0.98397 0.36083 0.86803 -0.18900
N 	N 	0.71283 0.13917 0.63197 -0.19000
O 	O 	0.79544 0.53757 0.41855 -0.51600
O 	O 	0.64058 0.56624 0.43920 -0.25900
O 	O 	0.44220 0.90762 0.02598 -0.45800
O 	O 	0.39946 0.84184 0.00004 -0.28200
O 	O 	0.25156 0.96243 0.08145 -0.51400
O 	O 	0.14602 0.93376 0.06080 -0.25800
O 	O 	0.87580 0.59238 0.47402 -0.45900
O 	O 	0.74134 0.65816 0.49996 -0.28400
O 	O 	0.25156 0.08145 0.96243 -0.51400
O 	O 	0.14602 0.06080 0.93376 -0.25800
O 	O 	0.87580 0.47402 0.59238 -0.45900
O 	O 	0.74134 0.49996 0.65816 -0.28400
O 	O 	0.79544 0.41855 0.53757 -0.51600
O 	O 	0.64058 0.43920 0.56624 -0.25900
O 	O 	0.44220 0.02598 0.90762 -0.45800
O 	O 	0.39946 0.00004 0.84184 -0.28200
