data_crystal

_cell_length_a 18.27210
_cell_length_b 18.27210
_cell_length_c 18.27210
_cell_angle_alpha 105.05100
_cell_angle_beta  105.05100
_cell_angle_gamma 118.72800

_symmetry_space_group_name_	'P 1'
_symmetry_space_group_name_H-M	'P 1'

loop_
_symmetry_equiv_pos_as_xyz
  x,y,z

loop_
_atom_site_label
_atom_site_type_symbol
_atom_site_fract_x
_atom_site_fract_y
_atom_site_fract_z
_atom_site_charge
Cd	Cd	0.40960 0.92216 0.12310 1.20400
Cd	Cd	0.56678 0.18620 0.21506 1.20400
Cd	Cd	0.57085 0.82989 0.20624 1.20200
H 	H 	0.77154 0.27209 0.42492 0.06000
H 	H 	0.81689 0.27384 0.34471 0.07300
H 	H 	0.85104 0.23603 0.42466 0.06900
H 	H 	0.14673 0.71055 0.15890 0.06900
H 	H 	0.19974 0.79094 0.11352 0.11000
H 	H 	0.22800 0.83943 0.22803 0.09800
C 	C 	0.70980 0.13720 0.32400 0.15900
C 	C 	0.79210 0.23550 0.38300 -0.23200
C 	C 	0.29290 0.77290 0.19380 0.16300
C 	C 	0.21210 0.77880 0.17230 -0.24500
N 	N 	0.62940 0.11170 0.26450 -0.21900
N 	N 	0.57500 0.01710 0.22670 -0.16500
N 	N 	0.62020 0.98850 0.26170 -0.16400
N 	N 	0.70500 0.06180 0.32360 -0.20500
N 	N 	0.45910 0.00040 0.04170 -0.15300
N 	N 	0.52040 0.09350 0.07050 -0.20500
N 	N 	0.29730 0.71370 0.22260 -0.21300
N 	N 	0.37980 0.73020 0.23300 -0.16900
N 	N 	0.42430 0.79610 0.21180 -0.16300
N 	N 	0.37080 0.82530 0.18790 -0.21500
N 	N 	0.50410 0.80490 0.06880 -0.22000
N 	N 	0.43940 0.82060 0.04140 -0.14900
Cl	Cl	0.41523 0.05790 0.21295 -0.61600
Cl	Cl	0.49393 0.26310 0.16135 -0.62400
Cd	Cd	0.79906 0.28650 0.87690 1.19700
Cd	Cd	0.97114 0.35172 0.78494 1.20500
Cd	Cd	0.62365 0.36461 0.79376 1.20000
H 	H 	0.92772 0.47493 0.65520 0.07400
H 	H 	0.80854 0.42187 0.57252 0.06800
H 	H 	0.85140 0.34839 0.57799 0.05900
H 	H 	0.61608 0.00368 0.77379 0.09600
H 	H 	0.54932 0.98469 0.83682 0.06500
H 	H 	0.67506 0.08565 0.88894 0.09700
C 	C 	0.81320 0.38580 0.67600 0.16100
C 	C 	0.85250 0.40910 0.61700 -0.23200
C 	C 	0.57910 0.09910 0.80620 0.15900
C 	C 	0.60650 0.03980 0.82770 -0.24600
N 	N 	0.84720 0.36490 0.73550 -0.21800
N 	N 	0.79040 0.34830 0.77330 -0.16500
N 	N 	0.72680 0.35850 0.73830 -0.16700
N 	N 	0.73820 0.38140 0.67640 -0.20300
N 	N 	0.95870 0.41740 0.95830 -0.17600
N 	N 	0.02300 0.44990 0.92950 -0.22100
N 	N 	0.49110 0.07470 0.77740 -0.21400
N 	N 	0.49720 0.14680 0.76700 -0.17100
N 	N 	0.58430 0.21250 0.78820 -0.16400
N 	N 	0.63740 0.18290 0.81210 -0.21700
N 	N 	0.73610 0.43530 0.93120 -0.23500
N 	N 	0.77920 0.39800 0.95860 -0.17900
Cl	Cl	0.84495 0.20228 0.78705 -0.62200
Cl	Cl	0.10175 0.33258 0.83865 -0.63800
Cd	Cd	0.07784 0.20094 0.48744 1.20000
Cd	Cd	0.81380 0.02886 0.38058 1.20200
Cd	Cd	0.17011 0.37635 0.74097 1.20100
H 	H 	0.76396 0.19261 0.61253 0.06700
H 	H 	0.72806 0.07296 0.54900 0.07100
H 	H 	0.72603 0.14676 0.49599 0.05700
H 	H 	0.25526 0.35550 0.42557 0.09900
H 	H 	0.25926 0.45891 0.42438 0.07200
H 	H 	0.14456 0.34513 0.38360 0.10200
C 	C 	0.86280 0.18680 0.57260 0.16000
C 	C 	0.76450 0.14750 0.55660 -0.23100
C 	C 	0.22710 0.42090 0.52000 0.16100
C 	C 	0.22120 0.39350 0.43330 -0.24600
N 	N 	0.88830 0.15280 0.51770 -0.21900
N 	N 	0.98290 0.20960 0.55790 -0.16100
N 	N 	0.01150 0.27320 0.63170 -0.17200
N 	N 	0.93820 0.26180 0.64320 -0.20100
N 	N 	0.99960 0.04130 0.45870 -0.16300
N 	N 	0.90650 0.97700 0.42690 -0.20100
N 	N 	0.28630 0.50890 0.58360 -0.21300
N 	N 	0.26980 0.50280 0.64960 -0.17000
N 	N 	0.20390 0.41570 0.62820 -0.16400
N 	N 	0.17470 0.36260 0.54550 -0.21600
N 	N 	0.19510 0.26390 0.69920 -0.21900
N 	N 	0.17940 0.22080 0.61880 -0.16400
Cl	Cl	0.94210 0.15505 0.35733 -0.61300
Cl	Cl	0.73690 0.89825 0.23083 -0.62300
Cd	Cd	0.71350 0.59040 0.51256 1.20100
Cd	Cd	0.64828 0.43322 0.61942 1.20300
Cd	Cd	0.63539 0.42915 0.25904 1.20100
H 	H 	0.53499 0.18971 0.46639 0.06600
H 	H 	0.65646 0.22521 0.49406 0.05900
H 	H 	0.56337 0.14561 0.38204 0.07000
H 	H 	0.00819 0.85441 0.56299 0.05800
H 	H 	0.00437 0.77449 0.61013 0.08700
H 	H 	0.91342 0.79663 0.59332 0.10400
C 	C 	0.61420 0.29020 0.42740 0.16000
C 	C 	0.59090 0.20790 0.44340 -0.23200
C 	C 	0.90090 0.70710 0.48000 0.15900
C 	C 	0.96020 0.78790 0.56670 -0.22300
N 	N 	0.63510 0.37060 0.48230 -0.21800
N 	N 	0.65170 0.42500 0.44210 -0.16400
N 	N 	0.64150 0.37980 0.36830 -0.16700
N 	N 	0.61860 0.29500 0.35680 -0.20300
N 	N 	0.58260 0.54090 0.54130 -0.16500
N 	N 	0.55010 0.47960 0.57310 -0.20400
N 	N 	0.92530 0.70270 0.41640 -0.21000
N 	N 	0.85320 0.62020 0.35040 -0.16900
N 	N 	0.78750 0.57570 0.37180 -0.16300
N 	N 	0.81710 0.62920 0.45450 -0.21400
N 	N 	0.56470 0.49590 0.30080 -0.21900
N 	N 	0.60200 0.56060 0.38120 -0.16300
Cl	Cl	0.79772 0.58477 0.64267 -0.61700
Cl	Cl	0.66742 0.50607 0.76917 -0.63100
Cd	Cd	0.20094 0.07784 0.48744 1.20100
Cd	Cd	0.02886 0.81380 0.38058 1.20100
Cd	Cd	0.37635 0.17011 0.74097 1.20100
H 	H 	0.07926 0.73248 0.56201 0.07200
H 	H 	0.19978 0.76327 0.60552 0.06500
H 	H 	0.13330 0.72229 0.48999 0.05600
H 	H 	0.40075 0.16919 0.39154 0.09700
H 	H 	0.44108 0.29316 0.43778 0.06900
H 	H 	0.31770 0.19673 0.40423 0.10700
C 	C 	0.18680 0.86280 0.57260 0.15900
C 	C 	0.14750 0.76450 0.55660 -0.23100
C 	C 	0.42090 0.22710 0.52000 0.16200
C 	C 	0.39350 0.22120 0.43330 -0.24400
N 	N 	0.15280 0.88830 0.51770 -0.21900
N 	N 	0.20960 0.98290 0.55790 -0.16300
N 	N 	0.27320 0.01150 0.63170 -0.16800
N 	N 	0.26180 0.93820 0.64320 -0.20300
N 	N 	0.04130 0.99960 0.45870 -0.17000
N 	N 	0.97700 0.90650 0.42690 -0.19900
N 	N 	0.50890 0.28630 0.58360 -0.21400
N 	N 	0.50280 0.26980 0.64960 -0.17000
N 	N 	0.41570 0.20390 0.62820 -0.16300
N 	N 	0.36260 0.17470 0.54550 -0.21500
N 	N 	0.26390 0.19510 0.69920 -0.21900
N 	N 	0.22080 0.17940 0.61880 -0.16300
Cl	Cl	0.15505 0.94210 0.35733 -0.61700
Cl	Cl	0.89825 0.73690 0.23083 -0.61900
Cd	Cd	0.59040 0.71350 0.51256 1.20100
Cd	Cd	0.43322 0.64828 0.61942 1.20300
Cd	Cd	0.42915 0.63539 0.25904 1.20100
H 	H 	0.23177 0.64590 0.50837 0.05700
H 	H 	0.17312 0.51910 0.44207 0.07500
H 	H 	0.15563 0.58981 0.39205 0.06500
H 	H 	0.84802 0.02310 0.56738 0.06500
H 	H 	0.81182 0.91729 0.58449 0.10600
H 	H 	0.76569 0.98559 0.61457 0.10100
C 	C 	0.29020 0.61420 0.42740 0.15900
C 	C 	0.20790 0.59090 0.44340 -0.23200
C 	C 	0.70710 0.90090 0.48000 0.16100
C 	C 	0.78790 0.96020 0.56670 -0.24300
N 	N 	0.37060 0.63510 0.48230 -0.21900
N 	N 	0.42500 0.65170 0.44210 -0.16400
N 	N 	0.37980 0.64150 0.36830 -0.16700
N 	N 	0.29500 0.61860 0.35680 -0.20400
N 	N 	0.54090 0.58260 0.54130 -0.16400
N 	N 	0.47960 0.55010 0.57310 -0.20400
N 	N 	0.70270 0.92530 0.41640 -0.21200
N 	N 	0.62020 0.85320 0.35040 -0.17000
N 	N 	0.57570 0.78750 0.37180 -0.16300
N 	N 	0.62920 0.81710 0.45450 -0.21500
N 	N 	0.49590 0.56470 0.30080 -0.21900
N 	N 	0.56060 0.60200 0.38120 -0.16300
Cl	Cl	0.58477 0.79772 0.64267 -0.61800
Cl	Cl	0.50607 0.66742 0.76917 -0.63300
Cd	Cd	0.28650 0.79906 0.87690 1.19700
Cd	Cd	0.35172 0.97114 0.78494 1.20300
Cd	Cd	0.36461 0.62365 0.79376 1.20000
H 	H 	0.48214 0.92153 0.65352 0.07500
H 	H 	0.35577 0.86525 0.58791 0.05800
H 	H 	0.40727 0.80089 0.56428 0.06500
H 	H 	0.98415 0.54893 0.83606 0.07000
H 	H 	0.00436 0.61692 0.77414 0.09600
H 	H 	0.08551 0.67461 0.88935 0.09800
C 	C 	0.38580 0.81320 0.67600 0.16000
C 	C 	0.40910 0.85250 0.61700 -0.23200
C 	C 	0.09910 0.57910 0.80620 0.15900
C 	C 	0.03980 0.60650 0.82770 -0.25300
N 	N 	0.36490 0.84720 0.73550 -0.21900
N 	N 	0.34830 0.79040 0.77330 -0.16500
N 	N 	0.35850 0.72680 0.73830 -0.16700
N 	N 	0.38140 0.73820 0.67640 -0.20400
N 	N 	0.41740 0.95870 0.95830 -0.17900
N 	N 	0.44990 0.02300 0.92950 -0.21900
N 	N 	0.07470 0.49110 0.77740 -0.21600
N 	N 	0.14680 0.49720 0.76700 -0.17000
N 	N 	0.21250 0.58430 0.78820 -0.16400
N 	N 	0.18290 0.63740 0.81210 -0.21700
N 	N 	0.43530 0.73610 0.93120 -0.23500
N 	N 	0.39800 0.77920 0.95860 -0.17900
Cl	Cl	0.20228 0.84495 0.78705 -0.62400
Cl	Cl	0.33258 0.10175 0.83865 -0.63600
Cd	Cd	0.92216 0.40960 0.12310 1.20400
Cd	Cd	0.18620 0.56678 0.21506 1.20400
Cd	Cd	0.82989 0.57085 0.20624 1.20100
H 	H 	0.23709 0.84022 0.43851 0.06500
H 	H 	0.26619 0.83189 0.34767 0.07600
H 	H 	0.27867 0.76736 0.40810 0.05700
H 	H 	0.74627 0.17130 0.10027 0.10200
H 	H 	0.73928 0.16422 0.19831 0.07300
H 	H 	0.85536 0.23896 0.20187 0.10500
C 	C 	0.13720 0.70980 0.32400 0.16000
C 	C 	0.23550 0.79210 0.38300 -0.23200
C 	C 	0.77290 0.29290 0.19380 0.16300
C 	C 	0.77880 0.21210 0.17230 -0.24700
N 	N 	0.11170 0.62940 0.26450 -0.21900
N 	N 	0.01710 0.57500 0.22670 -0.16800
N 	N 	0.98850 0.62020 0.26170 -0.16000
N 	N 	0.06180 0.70500 0.32360 -0.20700
N 	N 	0.00040 0.45910 0.04170 -0.15600
N 	N 	0.09350 0.52040 0.07050 -0.20400
N 	N 	0.71370 0.29730 0.22260 -0.21400
N 	N 	0.73020 0.37980 0.23300 -0.17000
N 	N 	0.79610 0.42430 0.21180 -0.16200
N 	N 	0.82530 0.37080 0.18790 -0.21400
N 	N 	0.80490 0.50410 0.06880 -0.22000
N 	N 	0.82060 0.43940 0.04140 -0.14900
Cl	Cl	0.05790 0.41523 0.21295 -0.61800
Cl	Cl	0.26310 0.49393 0.16135 -0.62000
C 	C 	0.51290 0.10490 -0.00000 0.20000
C 	C 	0.56690 0.19910 -0.00000 -0.19800
C 	C 	0.50160 0.75440 -0.00000 0.21800
C 	C 	0.56020 0.72020 -0.00000 -0.24500
Cl	Cl	0.24448 0.81942 -0.00000 -0.62100
C 	C 	0.10490 0.51290 -0.00000 0.19400
C 	C 	0.19910 0.56690 -0.00000 -0.16800
C 	C 	0.75440 0.50160 -0.00000 0.21700
C 	C 	0.72020 0.56020 -0.00000 -0.24400
Cl	Cl	0.81942 0.24448 -0.00000 -0.61800
C 	C 	0.89510 0.89510 0.40800 0.18300
C 	C 	0.80090 0.80090 0.36780 -0.23500
C 	C 	0.24560 0.24560 0.74720 0.19200
C 	C 	0.27980 0.27980 0.84000 -0.26900
Cl	Cl	0.18058 0.18058 0.42506 -0.64200
C 	C 	0.48710 0.48710 0.59200 0.18000
C 	C 	0.43310 0.43310 0.63220 -0.23400
C 	C 	0.49840 0.49840 0.25280 0.19500
C 	C 	0.43980 0.43980 0.16000 -0.27300
Cl	Cl	0.75552 0.75552 0.57494 -0.64500
Cl	Cl	0.50000 0.65788 0.15788 -0.64500
Cl	Cl	0.50000 0.34212 0.84212 -0.65700
Cl	Cl	0.34212 0.50000 0.84212 -0.66100
Cl	Cl	0.65788 0.50000 0.15788 -0.64500
H 	H 	0.54186 0.18919 0.93186 0.04800
H 	H 	0.64486 0.23094 0.02924 0.06900
H 	H 	0.55455 0.24793 0.03890 0.09400
H 	H 	0.56995 0.71108 0.93992 0.09100
H 	H 	0.52442 0.65002 0.00179 0.13300
H 	H 	0.63147 0.77309 0.05829 0.11500
H 	H 	0.18997 0.58068 0.94205 0.04000
H 	H 	0.22851 0.52413 0.99757 0.07000
H 	H 	0.24957 0.63645 0.06038 0.06100
H 	H 	0.65591 0.53016 0.01175 0.13200
H 	H 	0.70071 0.56098 0.93580 0.09000
H 	H 	0.77758 0.63471 0.05245 0.11700
H 	H 	0.81208 0.74661 0.37564 0.07100
H 	H 	0.76262 0.77830 0.29724 0.10500
H 	H 	0.75725 0.80704 0.40033 0.07100
H 	H 	0.33697 0.35848 0.87387 0.12300
H 	H 	0.30949 0.24254 0.86176 0.10600
H 	H 	0.21934 0.26479 0.85602 0.11100
H 	H 	0.43558 0.37039 0.62354 0.07000
H 	H 	0.35715 0.40758 0.60030 0.07000
H 	H 	0.46601 0.48077 0.70295 0.10400
H 	H 	0.44133 0.37628 0.13935 0.11700
H 	H 	0.46818 0.48250 0.12583 0.13400
H 	H 	0.36465 0.41538 0.14317 0.12100
