data_crystal

_cell_length_a 19.03450
_cell_length_b 27.68800
_cell_length_c 12.12730
_cell_angle_alpha 90.00000
_cell_angle_beta  105.29300
_cell_angle_gamma 90.00000

_symmetry_space_group_name_	'P 1'
_symmetry_space_group_name_H-M	'P 1'

loop_
_symmetry_equiv_pos_as_xyz
  x,y,z

loop_
_atom_site_label
_atom_site_type_symbol
_atom_site_fract_x
_atom_site_fract_y
_atom_site_fract_z
_atom_site_charge
C 	C 	0.87360 0.21360 0.92340 0.36500
C 	C 	0.81590 0.27560 0.03040 0.00400
C 	C 	0.80840 0.23120 0.96610 -0.12400
C 	C 	0.74370 0.20600 0.93960 0.01800
C 	C 	0.88530 0.35640 0.97500 -0.30000
H 	H 	0.84020 0.35130 0.91510 0.10500
H 	H 	0.92590 0.36120 0.94080 0.08700
H 	H 	0.88010 0.38510 0.02010 0.09900
C 	C 	0.70750 0.17150 0.71950 -0.33700
H 	H 	0.66290 0.19050 0.71050 0.09300
H 	H 	0.69740 0.14370 0.66760 0.09900
H 	H 	0.74520 0.19160 0.70120 0.11800
C 	C 	0.01740 0.10500 0.76510 0.32000
C 	C 	0.07200 0.02430 0.84010 -0.00100
C 	C 	0.01890 0.04970 0.76210 -0.07800
C 	C 	0.96320 0.02490 0.68190 0.00400
C 	C 	0.10620 0.06970 0.04700 -0.44200
H 	H 	0.07540 0.09870 0.03360 0.18200
H 	H 	0.14590 0.07410 0.11650 0.15100
H 	H 	0.07680 0.04170 0.05620 0.15600
C 	C 	0.83260 0.07970 0.64680 -0.37900
H 	H 	0.80210 0.05250 0.65770 0.12200
H 	H 	0.80180 0.10460 0.60030 0.11600
H 	H 	0.85770 0.09330 0.72140 0.13400
O 	O 	0.92330 0.19160 0.98800 -0.46500
O 	O 	0.05560 0.12790 0.71520 -0.36100
O 	O 	0.97750 0.12270 0.82200 -0.41500
O 	O 	0.86800 0.22140 0.82130 -0.45000
Pb	Pb	0.98980 0.20648 0.81002 1.20800
S 	S 	0.90310 0.30473 0.06700 -0.12500
S 	S 	0.73920 0.15018 0.86750 0.00200
S 	S 	0.14170 0.06061 0.93340 0.05800
S 	S 	0.89860 0.05904 0.57540 0.02900
C 	C 	0.62640 0.71360 0.07660 0.36600
C 	C 	0.68410 0.77560 0.96960 0.00400
C 	C 	0.69160 0.73120 0.03390 -0.12100
C 	C 	0.75630 0.70600 0.06040 0.01800
C 	C 	0.61470 0.85640 0.02500 -0.29300
H 	H 	0.65980 0.85130 0.08490 0.10500
H 	H 	0.57410 0.86120 0.05920 0.08700
H 	H 	0.61990 0.88510 0.97990 0.09800
C 	C 	0.79250 0.67150 0.28050 -0.33700
H 	H 	0.83710 0.69050 0.28950 0.09400
H 	H 	0.80260 0.64370 0.33240 0.09900
H 	H 	0.75480 0.69160 0.29880 0.11800
C 	C 	0.48260 0.60500 0.23490 0.31900
C 	C 	0.42800 0.52430 0.15990 -0.00100
C 	C 	0.48110 0.54970 0.23790 -0.07900
C 	C 	0.53680 0.52490 0.31810 0.00400
C 	C 	0.39380 0.56970 0.95300 -0.44000
H 	H 	0.42460 0.59870 0.96640 0.18100
H 	H 	0.35410 0.57410 0.88350 0.15100
H 	H 	0.42320 0.54170 0.94380 0.15600
C 	C 	0.66740 0.57970 0.35320 -0.37900
H 	H 	0.69790 0.55250 0.34230 0.12200
H 	H 	0.69820 0.60460 0.39970 0.11600
H 	H 	0.64230 0.59330 0.27860 0.13400
O 	O 	0.57670 0.69160 0.01200 -0.46500
O 	O 	0.44440 0.62790 0.28480 -0.36100
O 	O 	0.52250 0.62270 0.17800 -0.41500
O 	O 	0.63200 0.72140 0.17870 -0.44900
Pb	Pb	0.51020 0.70648 0.18998 1.20800
S 	S 	0.59690 0.80473 0.93300 -0.12700
S 	S 	0.76080 0.65018 0.13250 0.00300
S 	S 	0.35830 0.56061 0.06660 0.05600
S 	S 	0.60140 0.55904 0.42460 0.02900
C 	C 	0.62640 0.28640 0.07660 0.36600
C 	C 	0.68410 0.22440 0.96960 0.00400
C 	C 	0.69160 0.26880 0.03390 -0.12100
C 	C 	0.75630 0.29400 0.06040 0.01800
C 	C 	0.61470 0.14360 0.02500 -0.29300
H 	H 	0.65980 0.14870 0.08490 0.10500
H 	H 	0.57410 0.13880 0.05920 0.08700
H 	H 	0.61990 0.11490 0.97990 0.09800
C 	C 	0.79250 0.32850 0.28050 -0.33700
H 	H 	0.83710 0.30950 0.28950 0.09400
H 	H 	0.80260 0.35630 0.33240 0.09900
H 	H 	0.75480 0.30840 0.29880 0.11800
C 	C 	0.48260 0.39500 0.23490 0.31900
C 	C 	0.42800 0.47570 0.15990 -0.00100
C 	C 	0.48110 0.45030 0.23790 -0.07900
C 	C 	0.53680 0.47510 0.31810 0.00400
C 	C 	0.39380 0.43030 0.95300 -0.44000
H 	H 	0.42460 0.40130 0.96640 0.18100
H 	H 	0.35410 0.42590 0.88350 0.15100
H 	H 	0.42320 0.45830 0.94380 0.15600
C 	C 	0.66740 0.42030 0.35320 -0.37900
H 	H 	0.69790 0.44750 0.34230 0.12200
H 	H 	0.69820 0.39540 0.39970 0.11600
H 	H 	0.64230 0.40670 0.27860 0.13400
O 	O 	0.57670 0.30840 0.01200 -0.46500
O 	O 	0.44440 0.37210 0.28480 -0.36100
O 	O 	0.52250 0.37730 0.17800 -0.41500
O 	O 	0.63200 0.27860 0.17870 -0.44900
Pb	Pb	0.51020 0.29352 0.18998 1.20800
S 	S 	0.59690 0.19527 0.93300 -0.12700
S 	S 	0.76080 0.34982 0.13250 0.00300
S 	S 	0.35830 0.43939 0.06660 0.05600
S 	S 	0.60140 0.44096 0.42460 0.02900
C 	C 	0.87360 0.78640 0.92340 0.36600
C 	C 	0.81590 0.72440 0.03040 0.00500
C 	C 	0.80840 0.76880 0.96610 -0.12300
C 	C 	0.74370 0.79400 0.93960 0.01900
C 	C 	0.88530 0.64360 0.97500 -0.29900
H 	H 	0.84020 0.64870 0.91510 0.10600
H 	H 	0.92590 0.63880 0.94080 0.08800
H 	H 	0.88010 0.61490 0.02010 0.10000
C 	C 	0.70750 0.82850 0.71950 -0.33700
H 	H 	0.66290 0.80950 0.71050 0.09300
H 	H 	0.69740 0.85630 0.66760 0.09900
H 	H 	0.74520 0.80840 0.70120 0.11800
C 	C 	0.01740 0.89500 0.76510 0.32000
C 	C 	0.07200 0.97570 0.84010 -0.00100
C 	C 	0.01890 0.95030 0.76210 -0.07800
C 	C 	0.96320 0.97510 0.68190 0.00400
C 	C 	0.10620 0.93030 0.04700 -0.44200
H 	H 	0.07540 0.90130 0.03360 0.18200
H 	H 	0.14590 0.92590 0.11650 0.15100
H 	H 	0.07680 0.95830 0.05620 0.15600
C 	C 	0.83260 0.92030 0.64680 -0.37900
H 	H 	0.80210 0.94750 0.65770 0.12200
H 	H 	0.80180 0.89540 0.60030 0.11600
H 	H 	0.85770 0.90670 0.72140 0.13400
O 	O 	0.92330 0.80840 0.98800 -0.46500
O 	O 	0.05560 0.87210 0.71520 -0.36100
O 	O 	0.97750 0.87730 0.82200 -0.41500
O 	O 	0.86800 0.77860 0.82130 -0.45000
Pb	Pb	0.98980 0.79352 0.81002 1.20800
S 	S 	0.90310 0.69527 0.06700 -0.12500
S 	S 	0.73920 0.84982 0.86750 0.00200
S 	S 	0.14170 0.93939 0.93340 0.05800
S 	S 	0.89860 0.94096 0.57540 0.02900
C 	C 	0.37360 0.71360 0.92340 0.36600
C 	C 	0.31590 0.77560 0.03040 0.00400
C 	C 	0.30840 0.73120 0.96610 -0.12100
C 	C 	0.24370 0.70600 0.93960 0.01800
C 	C 	0.38530 0.85640 0.97500 -0.29300
H 	H 	0.34020 0.85130 0.91510 0.10500
H 	H 	0.42590 0.86120 0.94080 0.08700
H 	H 	0.38010 0.88510 0.02010 0.09800
C 	C 	0.20750 0.67150 0.71950 -0.33700
H 	H 	0.16290 0.69050 0.71050 0.09400
H 	H 	0.19740 0.64370 0.66760 0.09900
H 	H 	0.24520 0.69160 0.70120 0.11800
C 	C 	0.51740 0.60500 0.76510 0.31900
C 	C 	0.57200 0.52430 0.84010 -0.00100
C 	C 	0.51890 0.54970 0.76210 -0.07900
C 	C 	0.46320 0.52490 0.68190 0.00400
C 	C 	0.60620 0.56970 0.04700 -0.44000
H 	H 	0.57540 0.59870 0.03360 0.18100
H 	H 	0.64590 0.57410 0.11650 0.15100
H 	H 	0.57680 0.54170 0.05620 0.15600
C 	C 	0.33260 0.57970 0.64680 -0.37900
H 	H 	0.30210 0.55250 0.65770 0.12200
H 	H 	0.30180 0.60460 0.60030 0.11600
H 	H 	0.35770 0.59330 0.72140 0.13400
O 	O 	0.42330 0.69160 0.98800 -0.46500
O 	O 	0.55560 0.62790 0.71520 -0.36100
O 	O 	0.47750 0.62270 0.82200 -0.41500
O 	O 	0.36800 0.72140 0.82130 -0.44900
Pb	Pb	0.48980 0.70648 0.81002 1.20800
S 	S 	0.40310 0.80473 0.06700 -0.12700
S 	S 	0.23920 0.65018 0.86750 0.00300
S 	S 	0.64170 0.56061 0.93340 0.05600
S 	S 	0.39860 0.55904 0.57540 0.02900
C 	C 	0.12640 0.21360 0.07660 0.36600
C 	C 	0.18410 0.27560 0.96960 0.00500
C 	C 	0.19160 0.23120 0.03390 -0.12300
C 	C 	0.25630 0.20600 0.06040 0.01900
C 	C 	0.11470 0.35640 0.02500 -0.29900
H 	H 	0.15980 0.35130 0.08490 0.10600
H 	H 	0.07410 0.36120 0.05920 0.08800
H 	H 	0.11990 0.38510 0.97990 0.10000
C 	C 	0.29250 0.17150 0.28050 -0.33700
H 	H 	0.33710 0.19050 0.28950 0.09300
H 	H 	0.30260 0.14370 0.33240 0.09900
H 	H 	0.25480 0.19160 0.29880 0.11800
C 	C 	0.98260 0.10500 0.23490 0.32000
C 	C 	0.92800 0.02430 0.15990 -0.00100
C 	C 	0.98110 0.04970 0.23790 -0.07800
C 	C 	0.03680 0.02490 0.31810 0.00400
C 	C 	0.89380 0.06970 0.95300 -0.44200
H 	H 	0.92460 0.09870 0.96640 0.18200
H 	H 	0.85410 0.07410 0.88350 0.15100
H 	H 	0.92320 0.04170 0.94380 0.15600
C 	C 	0.16740 0.07970 0.35320 -0.37900
H 	H 	0.19790 0.05250 0.34230 0.12200
H 	H 	0.19820 0.10460 0.39970 0.11600
H 	H 	0.14230 0.09330 0.27860 0.13400
O 	O 	0.07670 0.19160 0.01200 -0.46500
O 	O 	0.94440 0.12790 0.28480 -0.36100
O 	O 	0.02250 0.12270 0.17800 -0.41500
O 	O 	0.13200 0.22140 0.17870 -0.45000
Pb	Pb	0.01020 0.20648 0.18998 1.20800
S 	S 	0.09690 0.30473 0.93300 -0.12500
S 	S 	0.26080 0.15018 0.13250 0.00200
S 	S 	0.85830 0.06061 0.06660 0.05800
S 	S 	0.10140 0.05904 0.42460 0.02900
C 	C 	0.12640 0.78640 0.07660 0.36600
C 	C 	0.18410 0.72440 0.96960 0.00500
C 	C 	0.19160 0.76880 0.03390 -0.12300
C 	C 	0.25630 0.79400 0.06040 0.01900
C 	C 	0.11470 0.64360 0.02500 -0.29900
H 	H 	0.15980 0.64870 0.08490 0.10600
H 	H 	0.07410 0.63880 0.05920 0.08800
H 	H 	0.11990 0.61490 0.97990 0.10000
C 	C 	0.29250 0.82850 0.28050 -0.33700
H 	H 	0.33710 0.80950 0.28950 0.09300
H 	H 	0.30260 0.85630 0.33240 0.09900
H 	H 	0.25480 0.80840 0.29880 0.11800
C 	C 	0.98260 0.89500 0.23490 0.32000
C 	C 	0.92800 0.97570 0.15990 -0.00100
C 	C 	0.98110 0.95030 0.23790 -0.07800
C 	C 	0.03680 0.97510 0.31810 0.00400
C 	C 	0.89380 0.93030 0.95300 -0.44200
H 	H 	0.92460 0.90130 0.96640 0.18200
H 	H 	0.85410 0.92590 0.88350 0.15100
H 	H 	0.92320 0.95830 0.94380 0.15600
C 	C 	0.16740 0.92030 0.35320 -0.37900
H 	H 	0.19790 0.94750 0.34230 0.12200
H 	H 	0.19820 0.89540 0.39970 0.11600
H 	H 	0.14230 0.90670 0.27860 0.13400
O 	O 	0.07670 0.80840 0.01200 -0.46500
O 	O 	0.94440 0.87210 0.28480 -0.36100
O 	O 	0.02250 0.87730 0.17800 -0.41500
O 	O 	0.13200 0.77860 0.17870 -0.45000
Pb	Pb	0.01020 0.79352 0.18998 1.20800
S 	S 	0.09690 0.69527 0.93300 -0.12500
S 	S 	0.26080 0.84982 0.13250 0.00200
S 	S 	0.85830 0.93939 0.06660 0.05800
S 	S 	0.10140 0.94096 0.42460 0.02900
C 	C 	0.37360 0.28640 0.92340 0.36600
C 	C 	0.31590 0.22440 0.03040 0.00400
C 	C 	0.30840 0.26880 0.96610 -0.12100
C 	C 	0.24370 0.29400 0.93960 0.01800
C 	C 	0.38530 0.14360 0.97500 -0.29300
H 	H 	0.34020 0.14870 0.91510 0.10500
H 	H 	0.42590 0.13880 0.94080 0.08700
H 	H 	0.38010 0.11490 0.02010 0.09800
C 	C 	0.20750 0.32850 0.71950 -0.33700
H 	H 	0.16290 0.30950 0.71050 0.09400
H 	H 	0.19740 0.35630 0.66760 0.09900
H 	H 	0.24520 0.30840 0.70120 0.11800
C 	C 	0.51740 0.39500 0.76510 0.31900
C 	C 	0.57200 0.47570 0.84010 -0.00100
C 	C 	0.51890 0.45030 0.76210 -0.07900
C 	C 	0.46320 0.47510 0.68190 0.00400
C 	C 	0.60620 0.43030 0.04700 -0.44000
H 	H 	0.57540 0.40130 0.03360 0.18100
H 	H 	0.64590 0.42590 0.11650 0.15100
H 	H 	0.57680 0.45830 0.05620 0.15600
C 	C 	0.33260 0.42030 0.64680 -0.37900
H 	H 	0.30210 0.44750 0.65770 0.12200
H 	H 	0.30180 0.39540 0.60030 0.11600
H 	H 	0.35770 0.40670 0.72140 0.13400
O 	O 	0.42330 0.30840 0.98800 -0.46500
O 	O 	0.55560 0.37210 0.71520 -0.36100
O 	O 	0.47750 0.37730 0.82200 -0.41500
O 	O 	0.36800 0.27860 0.82130 -0.44900
Pb	Pb	0.48980 0.29352 0.81002 1.20800
S 	S 	0.40310 0.19527 0.06700 -0.12700
S 	S 	0.23920 0.34982 0.86750 0.00300
S 	S 	0.64170 0.43939 0.93340 0.05600
S 	S 	0.39860 0.44096 0.57540 0.02900
