data_crystal

_cell_length_a 30.28750
_cell_length_b 30.28750
_cell_length_c 30.28750
_cell_angle_alpha 60.00000
_cell_angle_beta  60.00000
_cell_angle_gamma 60.00000

_symmetry_space_group_name_	'P 1'
_symmetry_space_group_name_H-M	'P 1'

loop_
_symmetry_equiv_pos_as_xyz
  x,y,z

loop_
_atom_site_label
_atom_site_type_symbol
_atom_site_fract_x
_atom_site_fract_y
_atom_site_fract_z
_atom_site_charge
Cu	Cu	0.35039 0.64961 -0.00000 0.85900
Cu	Cu	0.26244 0.73756 -0.00000 0.86100
Cu	Cu	0.64961 0.35039 -0.00000 0.85800
Cu	Cu	0.73756 0.26244 -0.00000 0.86200
Cu	Cu	-0.00000 1.00000 0.35039 0.90400
Cu	Cu	0.00000 0.00000 0.26244 0.82500
Cu	Cu	0.00000 0.00000 0.64961 0.82800
Cu	Cu	-0.00000 -0.00000 0.73756 0.83400
Cu	Cu	0.35039 0.00000 -0.00000 0.82000
Cu	Cu	0.26244 0.00000 -0.00000 0.82100
Cu	Cu	0.64961 0.00000 -0.00000 0.82100
Cu	Cu	0.73756 0.00000 -0.00000 0.82700
Cu	Cu	1.00000 0.35039 0.64961 0.95200
Cu	Cu	-0.00000 0.26244 0.73756 0.86500
Cu	Cu	-0.00000 0.64961 0.35039 0.86400
Cu	Cu	0.00000 0.73756 0.26244 0.86700
Cu	Cu	0.35039 1.00000 0.64961 0.94500
Cu	Cu	0.26244 -0.00000 0.73756 0.87100
Cu	Cu	0.64961 0.00000 0.35039 0.87000
Cu	Cu	0.73756 0.00000 0.26244 0.87300
Cu	Cu	-0.00000 0.64961 -0.00000 0.81500
Cu	Cu	-0.00000 0.73756 -0.00000 0.82100
Cu	Cu	-0.00000 0.35039 -0.00000 0.81400
Cu	Cu	-0.00000 0.26244 -0.00000 0.81600
H 	H 	0.30280 0.55860 0.96880 0.06700
H 	H 	0.55860 0.30280 0.16980 0.04100
H 	H 	0.96880 0.16980 0.30280 0.05700
H 	H 	0.16980 0.96880 0.55860 0.05600
H 	H 	0.30280 0.96880 0.16980 0.05300
H 	H 	0.55860 0.16980 0.96880 0.06200
H 	H 	0.96880 0.30280 0.55860 0.06400
H 	H 	0.16980 0.55860 0.30280 0.04200
H 	H 	0.30280 0.16980 0.55860 0.04200
H 	H 	0.55860 0.96880 0.30280 0.06300
H 	H 	0.96880 0.55860 0.16980 0.05800
H 	H 	0.16980 0.30280 0.96880 0.05900
H 	H 	0.44140 0.69720 0.03120 0.04300
H 	H 	0.69720 0.44140 0.83020 0.06800
H 	H 	0.83020 0.03120 0.69720 0.05700
H 	H 	0.03120 0.83020 0.44140 0.05000
H 	H 	0.03120 0.69720 0.83020 0.05600
H 	H 	0.83020 0.44140 0.03120 0.05100
H 	H 	0.69720 0.03120 0.44140 0.04600
H 	H 	0.44140 0.83020 0.69720 0.06500
H 	H 	0.83020 0.69720 0.44140 0.06600
H 	H 	0.03120 0.44140 0.69720 0.04400
H 	H 	0.44140 0.03120 0.83020 0.05600
H 	H 	0.69720 0.83020 0.03120 0.05300
H 	H 	0.69720 0.44140 0.03120 0.04300
H 	H 	0.44140 0.69720 0.83020 0.06800
H 	H 	0.03120 0.83020 0.69720 0.05400
H 	H 	0.83020 0.03120 0.44140 0.05300
H 	H 	0.69720 0.03120 0.83020 0.05800
H 	H 	0.44140 0.83020 0.03120 0.05000
H 	H 	0.03120 0.69720 0.44140 0.04400
H 	H 	0.83020 0.44140 0.69720 0.06600
H 	H 	0.69720 0.83020 0.44140 0.06500
H 	H 	0.44140 0.03120 0.69720 0.04600
H 	H 	0.03120 0.44140 0.83020 0.05400
H 	H 	0.83020 0.69720 0.03120 0.05400
H 	H 	0.55860 0.30280 0.96880 0.06700
H 	H 	0.30280 0.55860 0.16980 0.04100
H 	H 	0.16980 0.96880 0.30280 0.05300
H 	H 	0.96880 0.16980 0.55860 0.06000
H 	H 	0.96880 0.30280 0.16980 0.05600
H 	H 	0.16980 0.55860 0.96880 0.06100
H 	H 	0.30280 0.96880 0.55860 0.06200
H 	H 	0.55860 0.16980 0.30280 0.04300
H 	H 	0.16980 0.30280 0.55860 0.04100
H 	H 	0.96880 0.55860 0.30280 0.06500
H 	H 	0.55860 0.96880 0.16980 0.05600
H 	H 	0.30280 0.16980 0.96880 0.06000
H 	H 	0.16510 0.68610 0.98370 0.06700
H 	H 	0.68610 0.16510 0.16510 0.03800
H 	H 	0.98370 0.16510 0.16510 0.05300
H 	H 	0.16510 0.98370 0.68610 0.06300
H 	H 	0.16510 0.98370 0.16510 0.05000
H 	H 	0.68610 0.16510 0.98370 0.06900
H 	H 	0.98370 0.16510 0.68610 0.06600
H 	H 	0.16510 0.68610 0.16510 0.03600
H 	H 	0.16510 0.16510 0.68610 0.03900
H 	H 	0.68610 0.98370 0.16510 0.06200
H 	H 	0.98370 0.68610 0.16510 0.06400
H 	H 	0.16510 0.16510 0.98370 0.05800
H 	H 	0.31390 0.83490 0.01630 0.04200
H 	H 	0.83490 0.31390 0.83490 0.07200
H 	H 	0.83490 0.01630 0.83490 0.06200
H 	H 	0.01630 0.83490 0.31390 0.04300
H 	H 	0.01630 0.83490 0.83490 0.05800
H 	H 	0.83490 0.31390 0.01630 0.04400
H 	H 	0.83490 0.01630 0.31390 0.04700
H 	H 	0.31390 0.83490 0.83490 0.07100
H 	H 	0.83490 0.83490 0.31390 0.06900
H 	H 	0.01630 0.31390 0.83490 0.04700
H 	H 	0.31390 0.01630 0.83490 0.04900
H 	H 	0.83490 0.83490 0.01630 0.05500
H 	H 	0.26140 0.39460 0.94940 0.10500
H 	H 	0.39460 0.26140 0.39460 0.09600
H 	H 	0.94940 0.39460 0.26140 0.10400
H 	H 	0.39460 0.94940 0.39460 0.10700
H 	H 	0.26140 0.94940 0.39460 0.10300
H 	H 	0.39460 0.39460 0.94940 0.11000
H 	H 	0.94940 0.26140 0.39460 0.10500
H 	H 	0.39460 0.39460 0.26140 0.09500
H 	H 	0.26140 0.39460 0.39460 0.09500
H 	H 	0.39460 0.94940 0.26140 0.10200
H 	H 	0.94940 0.39460 0.39460 0.10800
H 	H 	0.39460 0.26140 0.94940 0.10600
H 	H 	0.60540 0.73860 0.05060 0.10000
H 	H 	0.73860 0.60540 0.60540 0.10900
H 	H 	0.60540 0.05060 0.73860 0.10300
H 	H 	0.05060 0.60540 0.60540 0.09700
H 	H 	0.05060 0.73860 0.60540 0.10100
H 	H 	0.60540 0.60540 0.05060 0.09600
H 	H 	0.73860 0.05060 0.60540 0.10300
H 	H 	0.60540 0.60540 0.73860 0.11000
H 	H 	0.60540 0.73860 0.60540 0.10900
H 	H 	0.05060 0.60540 0.73860 0.10200
H 	H 	0.60540 0.05060 0.60540 0.09800
H 	H 	0.73860 0.60540 0.05060 0.10100
C 	C 	0.26402 0.65160 0.98414 0.33700
C 	C 	0.23808 0.62646 0.97706 -0.06300
C 	C 	0.26613 0.57621 0.97039 -0.02000
C 	C 	0.65160 0.26402 0.10024 0.34700
C 	C 	0.62646 0.23808 0.15840 -0.10500
C 	C 	0.57621 0.26613 0.18727 -0.00600
C 	C 	0.98414 0.10024 0.26402 0.34200
C 	C 	0.97706 0.15840 0.23808 -0.08100
C 	C 	0.97039 0.18727 0.26613 -0.01300
C 	C 	0.10024 0.98414 0.65160 0.33800
C 	C 	0.15840 0.97706 0.62646 -0.07500
C 	C 	0.18727 0.97039 0.57621 -0.01600
C 	C 	0.26402 0.98414 0.10024 0.34000
C 	C 	0.23808 0.97706 0.15840 -0.08600
C 	C 	0.26613 0.97039 0.18727 -0.01200
C 	C 	0.65160 0.10024 0.98414 0.33600
C 	C 	0.62646 0.15840 0.97706 -0.06600
C 	C 	0.57621 0.18727 0.97039 -0.02000
C 	C 	0.98414 0.26402 0.65160 0.34100
C 	C 	0.97706 0.23808 0.62646 -0.06700
C 	C 	0.97039 0.26613 0.57621 -0.01800
C 	C 	0.10024 0.65160 0.26402 0.34700
C 	C 	0.15840 0.62646 0.23808 -0.10500
C 	C 	0.18727 0.57621 0.26613 -0.00600
C 	C 	0.26402 0.10024 0.65160 0.35000
C 	C 	0.23808 0.15840 0.62646 -0.10400
C 	C 	0.26613 0.18727 0.57621 -0.00500
C 	C 	0.65160 0.98414 0.26402 0.33900
C 	C 	0.62646 0.97706 0.23808 -0.07000
C 	C 	0.57621 0.97039 0.26613 -0.01700
C 	C 	0.98414 0.65160 0.10024 0.33700
C 	C 	0.97706 0.62646 0.15840 -0.07300
C 	C 	0.97039 0.57621 0.18727 -0.01800
C 	C 	0.10024 0.26402 0.98414 0.33800
C 	C 	0.15840 0.23808 0.97706 -0.07500
C 	C 	0.18727 0.26613 0.97039 -0.01600
C 	C 	0.34840 0.73598 0.01586 0.34600
C 	C 	0.37354 0.76192 0.02294 -0.10000
C 	C 	0.42379 0.73387 0.02961 -0.00900
C 	C 	0.73598 0.34840 0.89976 0.33600
C 	C 	0.76192 0.37354 0.84160 -0.05900
C 	C 	0.73387 0.42379 0.81273 -0.02100
C 	C 	0.89976 0.01586 0.73598 0.33700
C 	C 	0.84160 0.02294 0.76192 -0.07400
C 	C 	0.81273 0.02961 0.73387 -0.01800
C 	C 	0.01586 0.89976 0.34840 0.34400
C 	C 	0.02294 0.84160 0.37354 -0.09300
C 	C 	0.02961 0.81273 0.42379 -0.00900
C 	C 	0.01586 0.73598 0.89976 0.33600
C 	C 	0.02294 0.76192 0.84160 -0.07700
C 	C 	0.02961 0.73387 0.81273 -0.01700
C 	C 	0.89976 0.34840 0.01586 0.33900
C 	C 	0.84160 0.37354 0.02294 -0.09100
C 	C 	0.81273 0.42379 0.02961 -0.01100
C 	C 	0.73598 0.01586 0.34840 0.34600
C 	C 	0.76192 0.02294 0.37354 -0.09500
C 	C 	0.73387 0.02961 0.42379 -0.01000
C 	C 	0.34840 0.89976 0.73598 0.34100
C 	C 	0.37354 0.84160 0.76192 -0.06400
C 	C 	0.42379 0.81273 0.73387 -0.01900
C 	C 	0.89976 0.73598 0.34840 0.33800
C 	C 	0.84160 0.76192 0.37354 -0.06300
C 	C 	0.81273 0.73387 0.42379 -0.02000
C 	C 	0.01586 0.34840 0.73598 0.34900
C 	C 	0.02294 0.37354 0.76192 -0.09700
C 	C 	0.02961 0.42379 0.73387 -0.00900
C 	C 	0.34840 0.01586 0.89976 0.33900
C 	C 	0.37354 0.02294 0.84160 -0.08400
C 	C 	0.42379 0.02961 0.81273 -0.01200
C 	C 	0.73598 0.89976 0.01586 0.33800
C 	C 	0.76192 0.84160 0.02294 -0.08300
C 	C 	0.73387 0.81273 0.02961 -0.01500
C 	C 	0.73598 0.34840 0.01586 0.34600
C 	C 	0.76192 0.37354 0.02294 -0.09900
C 	C 	0.73387 0.42379 0.02961 -0.00900
C 	C 	0.34840 0.73598 0.89976 0.33700
C 	C 	0.37354 0.76192 0.84160 -0.06100
C 	C 	0.42379 0.73387 0.81273 -0.02000
C 	C 	0.01586 0.89976 0.73598 0.33800
C 	C 	0.02294 0.84160 0.76192 -0.07900
C 	C 	0.02961 0.81273 0.73387 -0.01600
C 	C 	0.89976 0.01586 0.34840 0.34300
C 	C 	0.84160 0.02294 0.37354 -0.08800
C 	C 	0.81273 0.02961 0.42379 -0.01100
C 	C 	0.73598 0.01586 0.89976 0.33600
C 	C 	0.76192 0.02294 0.84160 -0.07300
C 	C 	0.73387 0.02961 0.81273 -0.01800
C 	C 	0.34840 0.89976 0.01586 0.34100
C 	C 	0.37354 0.84160 0.02294 -0.09300
C 	C 	0.42379 0.81273 0.02961 -0.01000
C 	C 	0.01586 0.73598 0.34840 0.34700
C 	C 	0.02294 0.76192 0.37354 -0.09900
C 	C 	0.02961 0.73387 0.42379 -0.00800
C 	C 	0.89976 0.34840 0.73598 0.34100
C 	C 	0.84160 0.37354 0.76192 -0.06200
C 	C 	0.81273 0.42379 0.73387 -0.02000
C 	C 	0.73598 0.89976 0.34840 0.33900
C 	C 	0.76192 0.84160 0.37354 -0.06400
C 	C 	0.73387 0.81273 0.42379 -0.01900
C 	C 	0.34840 0.01586 0.73598 0.34900
C 	C 	0.37354 0.02294 0.76192 -0.09400
C 	C 	0.42379 0.02961 0.73387 -0.01000
C 	C 	0.01586 0.34840 0.89976 0.33900
C 	C 	0.02294 0.37354 0.84160 -0.08600
C 	C 	0.02961 0.42379 0.81273 -0.01200
C 	C 	0.89976 0.73598 0.01586 0.33700
C 	C 	0.84160 0.76192 0.02294 -0.08200
C 	C 	0.81273 0.73387 0.02961 -0.01600
C 	C 	0.65160 0.26402 0.98414 0.33600
C 	C 	0.62646 0.23808 0.97706 -0.06100
C 	C 	0.57621 0.26613 0.97039 -0.02000
C 	C 	0.26402 0.65160 0.10024 0.34700
C 	C 	0.23808 0.62646 0.15840 -0.10600
C 	C 	0.26613 0.57621 0.18727 -0.00600
C 	C 	0.10024 0.98414 0.26402 0.34400
C 	C 	0.15840 0.97706 0.23808 -0.08600
C 	C 	0.18727 0.97039 0.26613 -0.01200
C 	C 	0.98414 0.10024 0.65160 0.33700
C 	C 	0.97706 0.15840 0.62646 -0.07000
C 	C 	0.97039 0.18727 0.57621 -0.01800
C 	C 	0.98414 0.26402 0.10024 0.33900
C 	C 	0.97706 0.23808 0.15840 -0.08100
C 	C 	0.97039 0.26613 0.18727 -0.01400
C 	C 	0.10024 0.65160 0.98414 0.33600
C 	C 	0.15840 0.62646 0.97706 -0.06800
C 	C 	0.18727 0.57621 0.97039 -0.01900
C 	C 	0.26402 0.98414 0.65160 0.34200
C 	C 	0.23808 0.97706 0.62646 -0.07100
C 	C 	0.26613 0.97039 0.57621 -0.01600
C 	C 	0.65160 0.10024 0.26402 0.34700
C 	C 	0.62646 0.15840 0.23808 -0.10300
C 	C 	0.57621 0.18727 0.26613 -0.00700
C 	C 	0.10024 0.26402 0.65160 0.35000
C 	C 	0.15840 0.23808 0.62646 -0.10500
C 	C 	0.18727 0.26613 0.57621 -0.00500
C 	C 	0.98414 0.65160 0.26402 0.33800
C 	C 	0.97706 0.62646 0.23808 -0.06700
C 	C 	0.97039 0.57621 0.26613 -0.01800
C 	C 	0.65160 0.98414 0.10024 0.33800
C 	C 	0.62646 0.97706 0.15840 -0.07600
C 	C 	0.57621 0.97039 0.18727 -0.01700
C 	C 	0.26402 0.10024 0.98414 0.33800
C 	C 	0.23808 0.15840 0.97706 -0.07400
C 	C 	0.26613 0.18727 0.97039 -0.01600
C 	C 	0.24130 0.55134 0.96606 0.00900
C 	C 	0.18439 0.65139 0.97983 0.02100
C 	C 	0.27210 0.49890 0.95690 0.02700
C 	C 	0.29460 0.45560 0.95520 -0.06400
C 	C 	0.32240 0.40180 0.95340 0.14600
C 	C 	0.55134 0.24130 0.24130 -0.02000
C 	C 	0.65139 0.18439 0.18439 0.03700
C 	C 	0.49890 0.27210 0.27210 0.02000
C 	C 	0.45560 0.29460 0.29460 -0.08300
C 	C 	0.40180 0.32240 0.32240 0.13600
C 	C 	0.96606 0.24130 0.24130 -0.00200
C 	C 	0.97983 0.18439 0.18439 0.02800
C 	C 	0.95690 0.27210 0.27210 0.02600
C 	C 	0.95520 0.29460 0.29460 -0.07000
C 	C 	0.95340 0.32240 0.32240 0.14400
C 	C 	0.24130 0.96606 0.55134 0.00300
C 	C 	0.18439 0.97983 0.65139 0.02500
C 	C 	0.27210 0.95690 0.49890 0.02600
C 	C 	0.29460 0.95520 0.45560 -0.06800
C 	C 	0.32240 0.95340 0.40180 0.14400
C 	C 	0.24130 0.96606 0.24130 -0.00600
C 	C 	0.18439 0.97983 0.18439 0.03000
C 	C 	0.27210 0.95690 0.27210 0.02500
C 	C 	0.29460 0.95520 0.29460 -0.07200
C 	C 	0.32240 0.95340 0.32240 0.14300
C 	C 	0.55134 0.24130 0.96606 0.01000
C 	C 	0.65139 0.18439 0.97983 0.02100
C 	C 	0.49890 0.27210 0.95690 0.02700
C 	C 	0.45560 0.29460 0.95520 -0.06400
C 	C 	0.40180 0.32240 0.95340 0.14600
C 	C 	0.96606 0.24130 0.55134 0.00600
C 	C 	0.97983 0.18439 0.65139 0.02300
C 	C 	0.95690 0.27210 0.49890 0.02700
C 	C 	0.95520 0.29460 0.45560 -0.06600
C 	C 	0.95340 0.32240 0.40180 0.14500
C 	C 	0.24130 0.55134 0.24130 -0.02100
C 	C 	0.18439 0.65139 0.18439 0.03700
C 	C 	0.27210 0.49890 0.27210 0.02000
C 	C 	0.29460 0.45560 0.29460 -0.08300
C 	C 	0.32240 0.40180 0.32240 0.13500
C 	C 	0.24130 0.24130 0.55134 -0.02100
C 	C 	0.18439 0.18439 0.65139 0.03800
C 	C 	0.27210 0.27210 0.49890 0.02000
C 	C 	0.29460 0.29460 0.45560 -0.08300
C 	C 	0.32240 0.32240 0.40180 0.13600
C 	C 	0.55134 0.96606 0.24130 0.00300
C 	C 	0.65139 0.97983 0.18439 0.02500
C 	C 	0.49890 0.95690 0.27210 0.02500
C 	C 	0.45560 0.95520 0.29460 -0.06800
C 	C 	0.40180 0.95340 0.32240 0.14300
C 	C 	0.96606 0.55134 0.24130 0.00500
C 	C 	0.97983 0.65139 0.18439 0.02300
C 	C 	0.95690 0.49890 0.27210 0.02600
C 	C 	0.95520 0.45560 0.29460 -0.06600
C 	C 	0.95340 0.40180 0.32240 0.14500
C 	C 	0.24130 0.24130 0.96606 0.00300
C 	C 	0.18439 0.18439 0.97983 0.02500
C 	C 	0.27210 0.27210 0.95690 0.02600
C 	C 	0.29460 0.29460 0.95520 -0.06700
C 	C 	0.32240 0.32240 0.95340 0.14500
C 	C 	0.44866 0.75870 0.03394 -0.01500
C 	C 	0.34861 0.81561 0.02017 0.03400
C 	C 	0.50110 0.72790 0.04310 0.02100
C 	C 	0.54440 0.70540 0.04480 -0.07900
C 	C 	0.59820 0.67760 0.04660 0.13800
C 	C 	0.75870 0.44866 0.75870 0.01300
C 	C 	0.81561 0.34861 0.81561 0.02100
C 	C 	0.72790 0.50110 0.72790 0.02900
C 	C 	0.70540 0.54440 0.70540 -0.06100
C 	C 	0.67760 0.59820 0.67760 0.14800
C 	C 	0.75870 0.03394 0.75870 0.00100
C 	C 	0.81561 0.02017 0.81561 0.02300
C 	C 	0.72790 0.04310 0.72790 0.02400
C 	C 	0.70540 0.04480 0.70540 -0.07000
C 	C 	0.67760 0.04660 0.67760 0.14100
C 	C 	0.03394 0.75870 0.44866 -0.01400
C 	C 	0.02017 0.81561 0.34861 0.03400
C 	C 	0.04310 0.72790 0.50110 0.02200
C 	C 	0.04480 0.70540 0.54440 -0.07800
C 	C 	0.04660 0.67760 0.59820 0.13900
C 	C 	0.03394 0.75870 0.75870 -0.00200
C 	C 	0.02017 0.81561 0.81561 0.02400
C 	C 	0.04310 0.72790 0.72790 0.02300
C 	C 	0.04480 0.70540 0.70540 -0.07300
C 	C 	0.04660 0.67760 0.67760 0.14000
C 	C 	0.75870 0.44866 0.03394 -0.01400
C 	C 	0.81561 0.34861 0.02017 0.03200
C 	C 	0.72790 0.50110 0.04310 0.02100
C 	C 	0.70540 0.54440 0.04480 -0.07800
C 	C 	0.67760 0.59820 0.04660 0.13800
C 	C 	0.75870 0.03394 0.44866 -0.01000
C 	C 	0.81561 0.02017 0.34861 0.03300
C 	C 	0.72790 0.04310 0.50110 0.02300
C 	C 	0.70540 0.04480 0.54440 -0.07600
C 	C 	0.67760 0.04660 0.59820 0.14000
C 	C 	0.44866 0.75870 0.75870 0.01100
C 	C 	0.34861 0.81561 0.81561 0.02200
C 	C 	0.50110 0.72790 0.72790 0.02900
C 	C 	0.54440 0.70540 0.70540 -0.06200
C 	C 	0.59820 0.67760 0.67760 0.14800
C 	C 	0.75870 0.75870 0.44866 0.01100
C 	C 	0.81561 0.81561 0.34861 0.02200
C 	C 	0.72790 0.72790 0.50110 0.02900
C 	C 	0.70540 0.70540 0.54440 -0.06200
C 	C 	0.67760 0.67760 0.59820 0.14800
C 	C 	0.03394 0.44866 0.75870 -0.01100
C 	C 	0.02017 0.34861 0.81561 0.03200
C 	C 	0.04310 0.50110 0.72790 0.02200
C 	C 	0.04480 0.54440 0.70540 -0.07700
C 	C 	0.04660 0.59820 0.67760 0.13900
C 	C 	0.44866 0.03394 0.75870 -0.00900
C 	C 	0.34861 0.02017 0.81561 0.03100
C 	C 	0.50110 0.04310 0.72790 0.02300
C 	C 	0.54440 0.04480 0.70540 -0.07500
C 	C 	0.59820 0.04660 0.67760 0.14000
C 	C 	0.75870 0.75870 0.03394 -0.00500
C 	C 	0.81561 0.81561 0.02017 0.02600
C 	C 	0.72790 0.72790 0.04310 0.02200
C 	C 	0.70540 0.70540 0.04480 -0.07500
C 	C 	0.67760 0.67760 0.04660 0.13900
C 	C 	0.29690 0.37570 0.95170 -0.18900
C 	C 	0.37570 0.29690 0.37570 -0.19300
C 	C 	0.95170 0.37570 0.29690 -0.19000
C 	C 	0.37570 0.95170 0.37570 -0.19000
C 	C 	0.29690 0.95170 0.37570 -0.19000
C 	C 	0.37570 0.37570 0.95170 -0.18900
C 	C 	0.95170 0.29690 0.37570 -0.19000
C 	C 	0.37570 0.37570 0.29690 -0.19400
C 	C 	0.29690 0.37570 0.37570 -0.19400
C 	C 	0.37570 0.95170 0.29690 -0.19000
C 	C 	0.95170 0.37570 0.37570 -0.18900
C 	C 	0.37570 0.29690 0.95170 -0.18900
C 	C 	0.62430 0.70310 0.04830 -0.19200
C 	C 	0.70310 0.62430 0.62430 -0.18900
C 	C 	0.62430 0.04830 0.70310 -0.19100
C 	C 	0.04830 0.62430 0.62430 -0.19200
C 	C 	0.04830 0.70310 0.62430 -0.19200
C 	C 	0.62430 0.62430 0.04830 -0.19300
C 	C 	0.70310 0.04830 0.62430 -0.19100
C 	C 	0.62430 0.62430 0.70310 -0.18800
C 	C 	0.62430 0.70310 0.62430 -0.18900
C 	C 	0.04830 0.62430 0.70310 -0.19100
C 	C 	0.62430 0.04830 0.62430 -0.19200
C 	C 	0.70310 0.62430 0.04830 -0.19200
O 	O 	0.31132 0.62450 0.98690 -0.34900
O 	O 	0.23686 0.69914 0.98714 -0.34700
O 	O 	0.62450 0.31132 0.07728 -0.42900
O 	O 	0.69914 0.23686 0.07686 -0.42600
O 	O 	0.98690 0.07728 0.31132 -0.39100
O 	O 	0.98714 0.07686 0.23686 -0.37900
O 	O 	0.07728 0.98690 0.62450 -0.38400
O 	O 	0.07686 0.98714 0.69914 -0.37600
O 	O 	0.31132 0.98690 0.07728 -0.38800
O 	O 	0.23686 0.98714 0.07686 -0.38800
O 	O 	0.62450 0.07728 0.98690 -0.36700
O 	O 	0.69914 0.07686 0.98714 -0.36000
O 	O 	0.98690 0.31132 0.62450 -0.37300
O 	O 	0.98714 0.23686 0.69914 -0.35600
O 	O 	0.07728 0.62450 0.31132 -0.42600
O 	O 	0.07686 0.69914 0.23686 -0.42500
O 	O 	0.31132 0.07728 0.62450 -0.43800
O 	O 	0.23686 0.07686 0.69914 -0.42300
O 	O 	0.62450 0.98690 0.31132 -0.36300
O 	O 	0.69914 0.98714 0.23686 -0.36100
O 	O 	0.98690 0.62450 0.07728 -0.37900
O 	O 	0.98714 0.69914 0.07686 -0.37300
O 	O 	0.07728 0.31132 0.98690 -0.37100
O 	O 	0.07686 0.23686 0.98714 -0.37000
O 	O 	0.37550 0.68868 0.01310 -0.42800
O 	O 	0.30086 0.76314 0.01286 -0.42500
O 	O 	0.68868 0.37550 0.92272 -0.34900
O 	O 	0.76314 0.30086 0.92314 -0.34500
O 	O 	0.92272 0.01310 0.68868 -0.37600
O 	O 	0.92314 0.01286 0.76314 -0.36900
O 	O 	0.01310 0.92272 0.37550 -0.40300
O 	O 	0.01286 0.92314 0.30086 -0.39200
O 	O 	0.01310 0.68868 0.92272 -0.37300
O 	O 	0.01286 0.76314 0.92314 -0.36800
O 	O 	0.92272 0.37550 0.01310 -0.38400
O 	O 	0.92314 0.30086 0.01286 -0.38600
O 	O 	0.68868 0.01310 0.37550 -0.42100
O 	O 	0.76314 0.01286 0.30086 -0.41700
O 	O 	0.37550 0.92272 0.68868 -0.37600
O 	O 	0.30086 0.92314 0.76314 -0.36000
O 	O 	0.92272 0.68868 0.37550 -0.35500
O 	O 	0.92314 0.76314 0.30086 -0.35200
O 	O 	0.01310 0.37550 0.68868 -0.44100
O 	O 	0.01286 0.30086 0.76314 -0.42200
O 	O 	0.37550 0.01310 0.92272 -0.37100
O 	O 	0.30086 0.01286 0.92314 -0.37300
O 	O 	0.68868 0.92272 0.01310 -0.38900
O 	O 	0.76314 0.92314 0.01286 -0.38300
O 	O 	0.68868 0.37550 0.01310 -0.42700
O 	O 	0.76314 0.30086 0.01286 -0.42300
O 	O 	0.37550 0.68868 0.92272 -0.34900
O 	O 	0.30086 0.76314 0.92314 -0.34600
O 	O 	0.01310 0.92272 0.68868 -0.38600
O 	O 	0.01286 0.92314 0.76314 -0.37900
O 	O 	0.92272 0.01310 0.37550 -0.39300
O 	O 	0.92314 0.01286 0.30086 -0.38300
O 	O 	0.68868 0.01310 0.92272 -0.37000
O 	O 	0.76314 0.01286 0.92314 -0.36400
O 	O 	0.37550 0.92272 0.01310 -0.39000
O 	O 	0.30086 0.92314 0.01286 -0.39200
O 	O 	0.01310 0.68868 0.37550 -0.42400
O 	O 	0.01286 0.76314 0.30086 -0.42200
O 	O 	0.92272 0.37550 0.68868 -0.37200
O 	O 	0.92314 0.30086 0.76314 -0.35400
O 	O 	0.68868 0.92272 0.37550 -0.36100
O 	O 	0.76314 0.92314 0.30086 -0.35700
O 	O 	0.37550 0.01310 0.68868 -0.43500
O 	O 	0.30086 0.01286 0.76314 -0.41800
O 	O 	0.01310 0.37550 0.92272 -0.37500
O 	O 	0.01286 0.30086 0.92314 -0.37600
O 	O 	0.92272 0.68868 0.01310 -0.38300
O 	O 	0.92314 0.76314 0.01286 -0.37700
O 	O 	0.62450 0.31132 0.98690 -0.34900
O 	O 	0.69914 0.23686 0.98714 -0.34600
O 	O 	0.31132 0.62450 0.07728 -0.42900
O 	O 	0.23686 0.69914 0.07686 -0.42700
O 	O 	0.07728 0.98690 0.31132 -0.40000
O 	O 	0.07686 0.98714 0.23686 -0.38900
O 	O 	0.98690 0.07728 0.62450 -0.37400
O 	O 	0.98714 0.07686 0.69914 -0.36700
O 	O 	0.98690 0.31132 0.07728 -0.38100
O 	O 	0.98714 0.23686 0.07686 -0.38000
O 	O 	0.07728 0.62450 0.98690 -0.37000
O 	O 	0.07686 0.69914 0.98714 -0.36300
O 	O 	0.31132 0.98690 0.62450 -0.37800
O 	O 	0.23686 0.98714 0.69914 -0.36300
O 	O 	0.62450 0.07728 0.31132 -0.42300
O 	O 	0.69914 0.07686 0.23686 -0.42100
O 	O 	0.07728 0.31132 0.62450 -0.44300
O 	O 	0.07686 0.23686 0.69914 -0.42600
O 	O 	0.98690 0.62450 0.31132 -0.35600
O 	O 	0.98714 0.69914 0.23686 -0.35500
O 	O 	0.62450 0.98690 0.07728 -0.38600
O 	O 	0.69914 0.98714 0.07686 -0.37900
O 	O 	0.31132 0.07728 0.98690 -0.36800
O 	O 	0.23686 0.07686 0.98714 -0.36800
