data_crystal

_cell_length_a 7.98410
_cell_length_b 8.35770
_cell_length_c 17.59300
_cell_angle_alpha 90.00000
_cell_angle_beta  90.00000
_cell_angle_gamma 109.49000

_symmetry_space_group_name_	'P 1'
_symmetry_space_group_name_H-M	'P 1'

loop_
_symmetry_equiv_pos_as_xyz
  x,y,z

loop_
_atom_site_label
_atom_site_type_symbol
_atom_site_fract_x
_atom_site_fract_y
_atom_site_fract_z
_atom_site_charge
Nd	Nd	0.74129 0.71817 0.47788 2.17000
Nd	Nd	0.75871 0.28183 0.97788 2.16600
Nd	Nd	0.25871 0.28183 0.52212 2.17000
Nd	Nd	0.24129 0.71817 0.02212 2.16600
H 	H 	0.66230 0.37280 0.21020 0.00900
H 	H 	0.36760 0.09410 0.37200 0.06100
H 	H 	0.83770 0.62720 0.71020 0.00800
H 	H 	0.13240 0.90590 0.87200 0.06100
H 	H 	0.33770 0.62720 0.78980 0.00900
H 	H 	0.63240 0.90590 0.62800 0.06100
H 	H 	0.16230 0.37280 0.28980 0.00800
H 	H 	0.86760 0.09410 0.12800 0.06100
C 	C 	0.07100 0.56400 0.47450 0.27800
C 	C 	0.60700 0.41310 0.37500 0.44100
C 	C 	0.54970 0.28000 0.31540 -0.09800
C 	C 	0.58670 0.28180 0.23740 0.08400
C 	C 	0.49340 0.12830 0.20900 -0.13400
C 	C 	0.48300 0.05890 0.13110 0.57600
C 	C 	0.42900 0.43600 0.97450 0.27900
C 	C 	0.89300 0.58690 0.87500 0.44100
C 	C 	0.95030 0.72000 0.81540 -0.09700
C 	C 	0.91330 0.71820 0.73740 0.08600
C 	C 	0.00660 0.87170 0.70900 -0.13400
C 	C 	0.01700 0.94110 0.63110 0.56100
C 	C 	0.92900 0.43600 0.52550 0.27800
C 	C 	0.39300 0.58690 0.62500 0.44100
C 	C 	0.45030 0.72000 0.68460 -0.09800
C 	C 	0.41330 0.71820 0.76260 0.08400
C 	C 	0.50660 0.87170 0.79100 -0.13400
C 	C 	0.51700 0.94110 0.86890 0.57600
C 	C 	0.57100 0.56400 0.02550 0.27900
C 	C 	0.10700 0.41310 0.12500 0.44100
C 	C 	0.04970 0.28000 0.18460 -0.09700
C 	C 	0.08670 0.28180 0.26260 0.08600
C 	C 	0.99340 0.12830 0.29100 -0.13400
C 	C 	0.98300 0.05890 0.36890 0.56100
N 	N 	0.42100 0.12560 0.32920 -0.12700
N 	N 	0.39050 0.03300 0.26600 -0.05000
N 	N 	0.07900 0.87440 0.82920 -0.12800
N 	N 	0.10950 0.96700 0.76600 -0.05200
N 	N 	0.57900 0.87440 0.67080 -0.12700
N 	N 	0.60950 0.96700 0.73400 -0.05000
N 	N 	0.92100 0.12560 0.17080 -0.12800
N 	N 	0.89050 0.03300 0.23400 -0.05200
O 	O 	0.04970 0.70230 0.45910 -0.42700
O 	O 	0.20050 0.52210 0.45690 -0.45600
O 	O 	0.50850 0.39110 0.43440 -0.62400
O 	O 	0.73970 0.53140 0.36750 -0.49800
O 	O 	0.58280 0.15080 0.08330 -0.60800
O 	O 	0.37400 0.91820 0.11910 -0.59700
O 	O 	0.45030 0.29770 0.95910 -0.42400
O 	O 	0.29950 0.47790 0.95690 -0.45400
O 	O 	0.99150 0.60890 0.93440 -0.62300
O 	O 	0.76030 0.46860 0.86750 -0.49800
O 	O 	0.91720 0.84920 0.58330 -0.60300
O 	O 	0.12600 0.08180 0.61910 -0.58900
O 	O 	0.95030 0.29770 0.54090 -0.42700
O 	O 	0.79950 0.47790 0.54310 -0.45600
O 	O 	0.49150 0.60890 0.56560 -0.62400
O 	O 	0.26030 0.46860 0.63250 -0.49800
O 	O 	0.41720 0.84920 0.91670 -0.60800
O 	O 	0.62600 0.08180 0.88090 -0.59700
O 	O 	0.54970 0.70230 0.04090 -0.42400
O 	O 	0.70050 0.52210 0.04310 -0.45400
O 	O 	0.00850 0.39110 0.06560 -0.62300
O 	O 	0.23970 0.53140 0.13250 -0.49800
O 	O 	0.08280 0.15080 0.41670 -0.60300
O 	O 	0.87400 0.91820 0.38090 -0.58900
