data_crystal

_cell_length_a 7.92190
_cell_length_b 8.31940
_cell_length_c 17.47600
_cell_angle_alpha 90.00000
_cell_angle_beta  90.00000
_cell_angle_gamma 109.00800

_symmetry_space_group_name_	'P 1'
_symmetry_space_group_name_H-M	'P 1'

loop_
_symmetry_equiv_pos_as_xyz
  x,y,z

loop_
_atom_site_label
_atom_site_type_symbol
_atom_site_fract_x
_atom_site_fract_y
_atom_site_fract_z
_atom_site_charge
Eu	Eu	0.75582 0.28030 0.97778 1.90800
Eu	Eu	0.74418 0.71970 0.47778 1.91100
Eu	Eu	0.24418 0.71970 0.02222 1.90800
Eu	Eu	0.25582 0.28030 0.52222 1.91100
H 	H 	0.83190 0.62540 0.71270 0.02600
H 	H 	0.11000 0.93000 0.86900 0.08900
H 	H 	0.66810 0.37460 0.21270 0.02700
H 	H 	0.39000 0.07000 0.36900 0.08900
H 	H 	0.16810 0.37460 0.28730 0.02600
H 	H 	0.89000 0.07000 0.13100 0.08900
H 	H 	0.33190 0.62540 0.78730 0.02700
H 	H 	0.61000 0.93000 0.63100 0.08900
C 	C 	0.90220 0.59440 0.87700 0.39900
C 	C 	0.95430 0.72260 0.81520 -0.06700
C 	C 	0.91110 0.71620 0.73890 0.05300
C 	C 	0.01030 0.87390 0.70870 -0.10100
C 	C 	0.01920 0.94050 0.63000 0.50800
C 	C 	0.42920 0.43660 0.97450 0.26100
C 	C 	0.59780 0.40560 0.37700 0.40000
C 	C 	0.54570 0.27740 0.31520 -0.06800
C 	C 	0.58890 0.28380 0.23890 0.05100
C 	C 	0.48970 0.12610 0.20870 -0.10100
C 	C 	0.48080 0.05950 0.13000 0.52100
C 	C 	0.07080 0.56340 0.47450 0.26000
C 	C 	0.09780 0.40560 0.12300 0.39900
C 	C 	0.04570 0.27740 0.18480 -0.06700
C 	C 	0.08890 0.28380 0.26110 0.05300
C 	C 	0.98970 0.12610 0.29130 -0.10100
C 	C 	0.98080 0.05950 0.37000 0.50800
C 	C 	0.57080 0.56340 0.02550 0.26100
C 	C 	0.40220 0.59440 0.62300 0.40000
C 	C 	0.45430 0.72260 0.68480 -0.06800
C 	C 	0.41110 0.71620 0.76110 0.05100
C 	C 	0.51030 0.87390 0.79130 -0.10100
C 	C 	0.51920 0.94050 0.87000 0.52100
C 	C 	0.92920 0.43660 0.52550 0.26000
N 	N 	0.07840 0.87760 0.82910 -0.14600
N 	N 	0.11030 0.97010 0.76500 -0.05100
N 	N 	0.42160 0.12240 0.32910 -0.14500
N 	N 	0.38970 0.02990 0.26500 -0.04900
N 	N 	0.92160 0.12240 0.17090 -0.14600
N 	N 	0.88970 0.02990 0.23500 -0.05100
N 	N 	0.57840 0.87760 0.67090 -0.14500
N 	N 	0.61030 0.97010 0.73500 -0.04900
O 	O 	0.99920 0.61730 0.93630 -0.56000
O 	O 	0.76500 0.46970 0.86920 -0.44300
O 	O 	0.12420 0.08570 0.61830 -0.53200
O 	O 	0.92290 0.84740 0.58090 -0.54700
O 	O 	0.45180 0.29950 0.95640 -0.38500
O 	O 	0.29540 0.48000 0.95740 -0.41200
O 	O 	0.50080 0.38270 0.43630 -0.56100
O 	O 	0.73500 0.53030 0.36920 -0.44300
O 	O 	0.37580 0.91430 0.11830 -0.53900
O 	O 	0.57710 0.15260 0.08090 -0.55100
O 	O 	0.04820 0.70050 0.45640 -0.38800
O 	O 	0.20460 0.52000 0.45740 -0.41400
O 	O 	0.00080 0.38270 0.06370 -0.56000
O 	O 	0.23500 0.53030 0.13080 -0.44300
O 	O 	0.87580 0.91430 0.38170 -0.53200
O 	O 	0.07710 0.15260 0.41910 -0.54700
O 	O 	0.54820 0.70050 0.04360 -0.38500
O 	O 	0.70460 0.52000 0.04260 -0.41200
O 	O 	0.49920 0.61730 0.56370 -0.56100
O 	O 	0.26500 0.46970 0.63080 -0.44300
O 	O 	0.62420 0.08570 0.88170 -0.53900
O 	O 	0.42290 0.84740 0.91910 -0.55100
O 	O 	0.95180 0.29950 0.54360 -0.38800
O 	O 	0.79540 0.48000 0.54260 -0.41400
