data_crystal

_cell_length_a 7.76640
_cell_length_b 8.26100
_cell_length_c 17.32390
_cell_angle_alpha 90.00000
_cell_angle_beta  90.00000
_cell_angle_gamma 108.05600

_symmetry_space_group_name_	'P 1'
_symmetry_space_group_name_H-M	'P 1'

loop_
_symmetry_equiv_pos_as_xyz
  x,y,z

loop_
_atom_site_label
_atom_site_type_symbol
_atom_site_fract_x
_atom_site_fract_y
_atom_site_fract_z
_atom_site_charge
Er	Er	0.74966 0.77484 0.97763 1.72800
Er	Er	0.75034 0.22516 0.47763 1.73200
Er	Er	0.25034 0.22516 0.02237 1.72900
Er	Er	0.24966 0.77484 0.52237 1.73300
H 	H 	0.16360 0.87080 0.28740 0.03500
H 	H 	0.33640 0.12920 0.78740 0.03500
H 	H 	0.83640 0.12920 0.71260 0.03500
H 	H 	0.66360 0.87080 0.21260 0.03500
C 	C 	0.98200 0.56000 0.37150 0.48100
C 	C 	0.98700 0.62300 0.29140 -0.07400
C 	C 	0.08500 0.78000 0.26070 0.04200
C 	C 	0.04500 0.77400 0.18320 -0.07700
C 	C 	0.09100 0.89800 0.11920 0.40300
C 	C 	0.57200 0.06200 0.02600 0.26600
C 	C 	0.51800 0.44000 0.87150 0.47900
C 	C 	0.51300 0.37700 0.79140 -0.07800
C 	C 	0.41500 0.22000 0.76070 0.04800
C 	C 	0.45500 0.22600 0.68320 -0.07700
C 	C 	0.40900 0.10200 0.61920 0.41500
C 	C 	0.92800 0.93800 0.52600 0.26700
C 	C 	0.01800 0.44000 0.62850 0.48100
C 	C 	0.01300 0.37700 0.70860 -0.07400
C 	C 	0.91500 0.22000 0.73930 0.04200
C 	C 	0.95500 0.22600 0.81680 -0.07700
C 	C 	0.90900 0.10200 0.88080 0.40300
C 	C 	0.42800 0.93800 0.97400 0.26600
C 	C 	0.48200 0.56000 0.12850 0.47900
C 	C 	0.48700 0.62300 0.20860 -0.07800
C 	C 	0.58500 0.78000 0.23930 0.04800
C 	C 	0.54500 0.77400 0.31680 -0.07700
C 	C 	0.59100 0.89800 0.38080 0.41500
C 	C 	0.07200 0.06200 0.47400 0.26700
N 	N 	0.92100 0.61500 0.16870 -0.07300
N 	N 	0.89200 0.52780 0.23460 -0.04900
N 	N 	0.57900 0.38500 0.66870 -0.07500
N 	N 	0.60800 0.47220 0.73460 -0.04900
N 	N 	0.07900 0.38500 0.83130 -0.07300
N 	N 	0.10800 0.47220 0.76540 -0.04900
N 	N 	0.42100 0.61500 0.33130 -0.07500
N 	N 	0.39200 0.52780 0.26540 -0.04900
O 	O 	0.07250 0.65360 0.42120 -0.52000
O 	O 	0.87450 0.40770 0.38140 -0.48700
O 	O 	0.22860 0.02590 0.12480 -0.42200
O 	O 	0.98960 0.86760 0.06060 -0.50700
O 	O 	0.70610 0.01390 0.04240 -0.38500
O 	O 	0.45240 0.80140 0.95450 -0.36300
O 	O 	0.42750 0.34640 0.92120 -0.51600
O 	O 	0.62550 0.59230 0.88140 -0.48700
O 	O 	0.27140 0.97410 0.62480 -0.42700
O 	O 	0.51040 0.13240 0.56060 -0.51700
O 	O 	0.79390 0.98610 0.54240 -0.38500
O 	O 	0.04760 0.19860 0.45450 -0.36400
O 	O 	0.92750 0.34640 0.57880 -0.52000
O 	O 	0.12550 0.59230 0.61860 -0.48700
O 	O 	0.77140 0.97410 0.87520 -0.42200
O 	O 	0.01040 0.13240 0.93940 -0.50700
O 	O 	0.29390 0.98610 0.95760 -0.38500
O 	O 	0.54760 0.19860 0.04550 -0.36300
O 	O 	0.57250 0.65360 0.07880 -0.51600
O 	O 	0.37450 0.40770 0.11860 -0.48700
O 	O 	0.72860 0.02590 0.37520 -0.42700
O 	O 	0.48960 0.86760 0.43940 -0.51700
O 	O 	0.20610 0.01390 0.45760 -0.38500
O 	O 	0.95240 0.80140 0.54550 -0.36400
