data_crystal

_cell_length_a 10.18800
_cell_length_b 10.83860
_cell_length_c 13.87210
_cell_angle_alpha 78.67300
_cell_angle_beta  79.28100
_cell_angle_gamma 86.12600

_symmetry_space_group_name_	'P 1'
_symmetry_space_group_name_H-M	'P 1'

loop_
_symmetry_equiv_pos_as_xyz
  x,y,z

loop_
_atom_site_label
_atom_site_type_symbol
_atom_site_fract_x
_atom_site_fract_y
_atom_site_fract_z
_atom_site_charge
C 	C 	0.59520 0.90070 0.21430 0.27700
C 	C 	0.73660 0.88590 0.16740 0.04000
C 	C 	0.84400 0.89540 0.21430 -0.13500
H 	H 	0.82710 0.91210 0.27880 0.09200
C 	C 	0.97300 0.88100 0.16860 0.12800
C 	C 	0.00040 0.85480 0.07170 -0.29000
H 	H 	0.08820 0.84810 0.03900 0.15300
C 	C 	0.89390 0.83890 0.02490 0.25500
C 	C 	0.76410 0.85800 0.07090 -0.18500
H 	H 	0.69400 0.85240 0.03760 0.12800
C 	C 	0.09210 0.89290 0.21620 0.21000
C 	C 	0.00420 0.70450 0.91150 0.18300
C 	C 	0.00840 0.66600 0.81320 0.02100
C 	C 	0.01520 0.74770 0.72250 -0.11800
H 	H 	0.01360 0.83430 0.71900 0.05300
C 	C 	0.02440 0.69750 0.63670 0.06900
H 	H 	0.03220 0.75230 0.57550 -0.04500
C 	C 	0.01550 0.49680 0.72560 0.07200
H 	H 	0.01320 0.41080 0.72720 -0.02900
C 	C 	0.01120 0.53780 0.81600 -0.11700
H 	H 	0.01030 0.48070 0.87570 0.10000
C 	C 	0.27250 0.60550 0.35270 0.48300
C 	C 	0.30030 0.52730 0.27310 -0.15400
C 	C 	0.32310 0.58350 0.17240 -0.03800
H 	H 	0.32910 0.67050 0.15440 0.05200
C 	C 	0.33700 0.51130 0.09820 0.10300
C 	C 	0.33560 0.38060 0.12660 -0.07500
H 	H 	0.34680 0.33050 0.07830 0.09000
C 	C 	0.31770 0.32540 0.22690 -0.08400
C 	C 	0.29890 0.39820 0.29960 0.04600
H 	H 	0.28520 0.36010 0.36670 0.00700
C 	C 	0.31260 0.18900 0.25210 0.32600
C 	C 	0.33390 0.51850 0.92100 0.22900
C 	C 	0.34840 0.60210 0.81930 0.00700
C 	C 	0.34810 0.73170 0.80040 -0.09000
H 	H 	0.34340 0.77570 0.85220 0.06400
C 	C 	0.35500 0.79550 0.70260 0.06000
H 	H 	0.35710 0.88290 0.69030 0.01200
C 	C 	0.35930 0.61470 0.64270 0.06100
H 	H 	0.36280 0.57430 0.58900 0.01300
C 	C 	0.35490 0.54260 0.73660 -0.09100
H 	H 	0.35620 0.45530 0.74550 0.07800
N 	N 	0.91800 0.80150 0.93080 -0.23600
H 	H 	0.87690 0.84130 0.88460 0.16300
N 	N 	0.02270 0.57410 0.63800 -0.25800
N 	N 	0.35450 0.57050 0.99700 -0.23300
H 	H 	0.38070 0.64670 0.98260 0.14000
N 	N 	0.35870 0.73880 0.62570 -0.14200
O 	O 	0.56250 0.90090 0.30760 -0.41100
O 	O 	0.50570 0.91450 0.16170 -0.40500
O 	O 	0.07160 0.90530 0.30830 -0.42900
O 	O 	0.20580 0.88820 0.16600 -0.39600
O 	O 	0.07640 0.65280 0.96850 -0.22700
O 	O 	0.32130 0.71190 0.33350 -0.56500
O 	O 	0.19960 0.56230 0.43350 -0.51700
O 	O 	0.32550 0.13070 0.33910 -0.46100
O 	O 	0.29590 0.12630 0.18920 -0.43700
O 	O 	0.30490 0.41140 0.92880 -0.23400
Sm	Sm	0.31986 0.92336 0.29666 1.96200
C 	C 	0.40480 0.09930 0.78570 0.31800
C 	C 	0.26340 0.11410 0.83260 -0.07700
C 	C 	0.15600 0.10460 0.78570 0.04000
H 	H 	0.17290 0.08790 0.72120 0.02100
C 	C 	0.02700 0.11900 0.83140 -0.15200
C 	C 	0.99960 0.14520 0.92830 0.03700
H 	H 	0.91180 0.15190 0.96100 0.06000
C 	C 	0.10610 0.16110 0.97510 0.07100
C 	C 	0.23590 0.14200 0.92910 -0.05500
H 	H 	0.30600 0.14760 0.96240 0.08800
C 	C 	0.90790 0.10710 0.78380 0.35000
C 	C 	0.99580 0.29550 0.08850 0.23800
C 	C 	0.99160 0.33400 0.18680 0.02300
C 	C 	0.98480 0.25230 0.27750 -0.10400
H 	H 	0.98640 0.16570 0.28100 0.06700
C 	C 	0.97560 0.30250 0.36330 0.07700
H 	H 	0.96780 0.24770 0.42450 -0.03200
C 	C 	0.98450 0.50320 0.27440 0.08200
H 	H 	0.98680 0.58920 0.27280 -0.01200
C 	C 	0.98880 0.46220 0.18400 -0.10600
H 	H 	0.98970 0.51930 0.12430 0.11400
C 	C 	0.72750 0.39450 0.64730 0.48200
C 	C 	0.69970 0.47270 0.72690 -0.13800
C 	C 	0.67690 0.41650 0.82760 -0.04400
H 	H 	0.67090 0.32950 0.84560 0.06100
C 	C 	0.66300 0.48870 0.90180 0.12800
C 	C 	0.66440 0.61940 0.87340 -0.08100
H 	H 	0.65320 0.66950 0.92170 0.09800
C 	C 	0.68230 0.67460 0.77310 -0.06800
C 	C 	0.70110 0.60180 0.70040 0.04500
H 	H 	0.71480 0.63990 0.63330 0.01600
C 	C 	0.68740 0.81100 0.74790 0.32800
C 	C 	0.66610 0.48150 0.07900 0.23100
C 	C 	0.65160 0.39790 0.18070 0.00600
C 	C 	0.65190 0.26830 0.19960 -0.09000
H 	H 	0.65660 0.22430 0.14780 0.06500
C 	C 	0.64500 0.20450 0.29740 0.06100
H 	H 	0.64290 0.11710 0.30970 0.01100
C 	C 	0.64070 0.38530 0.35730 0.06100
H 	H 	0.63720 0.42570 0.41100 0.01400
C 	C 	0.64510 0.45740 0.26340 -0.09100
H 	H 	0.64380 0.54470 0.25450 0.07900
N 	N 	0.08200 0.19850 0.06920 -0.25000
H 	H 	0.12310 0.15870 0.11540 0.14800
N 	N 	0.97730 0.42590 0.36200 -0.24400
N 	N 	0.64550 0.42950 0.00300 -0.24100
H 	H 	0.61930 0.35330 0.01740 0.14000
N 	N 	0.64130 0.26120 0.37430 -0.14200
O 	O 	0.43750 0.09910 0.69240 -0.42500
O 	O 	0.49430 0.08550 0.83830 -0.41500
O 	O 	0.92840 0.09470 0.69170 -0.43200
O 	O 	0.79420 0.11180 0.83400 -0.42500
O 	O 	0.92360 0.34720 0.03150 -0.22400
O 	O 	0.67870 0.28810 0.66650 -0.56300
O 	O 	0.80040 0.43770 0.56650 -0.50000
O 	O 	0.67450 0.86930 0.66090 -0.45200
O 	O 	0.70410 0.87370 0.81080 -0.42900
O 	O 	0.69510 0.58860 0.07120 -0.23500
Sm	Sm	0.68014 0.07664 0.70334 1.97200
Mn	Mn	-0.00000 0.50000 0.50000 1.22000
