data_crystal

_cell_length_a 11.83250
_cell_length_b 14.50260
_cell_length_c 21.10030
_cell_angle_alpha 90.00000
_cell_angle_beta  100.64800
_cell_angle_gamma 90.00000

_symmetry_space_group_name_	'P 1'
_symmetry_space_group_name_H-M	'P 1'

loop_
_symmetry_equiv_pos_as_xyz
  x,y,z

loop_
_atom_site_label
_atom_site_type_symbol
_atom_site_fract_x
_atom_site_fract_y
_atom_site_fract_z
_atom_site_charge
Cd	Cd	0.57079 0.22745 0.94922 1.19900
N 	N 	0.92460 0.85570 0.24770 -0.10700
C 	C 	0.11000 0.48000 0.01900 0.13400
O 	O 	0.64830 0.10540 0.01750 -0.51900
O 	O 	0.69190 0.24530 0.05180 -0.41200
O 	O 	0.98370 0.47150 0.39600 -0.48400
O 	O 	0.00650 0.33700 0.35510 -0.51600
O 	O 	0.37340 0.09900 0.01000 -0.47100
O 	O 	0.40550 0.24360 0.98700 -0.45700
C 	C 	0.85000 0.89000 0.19000 -0.02500
C 	C 	0.79100 0.82800 0.15200 -0.27000
H 	H 	0.74200 0.84890 0.11510 0.11300
C 	C 	0.80400 0.73400 0.16300 0.00600
H 	H 	0.76110 0.69230 0.13490 0.01700
C 	C 	0.87800 0.70100 0.21700 0.23500
C 	C 	0.94340 0.76300 0.25840 -0.00600
H 	H 	0.99830 0.74220 0.29280 0.04700
C 	C 	0.69950 0.15930 0.06010 0.32800
C 	C 	0.77030 0.12350 0.11930 -0.05200
C 	C 	0.78430 0.02830 0.12760 -0.11200
H 	H 	0.75030 0.98850 0.09500 0.08300
C 	C 	0.85040 0.99150 0.18580 0.08300
C 	C 	0.89440 0.05120 0.23170 -0.12200
H 	H 	0.93910 0.02790 0.26920 0.06800
C 	C 	0.87790 0.14800 0.22720 -0.00300
H 	H 	0.90840 0.18680 0.26110 0.02800
C 	C 	0.81680 0.18160 0.17230 -0.04700
H 	H 	0.80430 0.24480 0.16860 0.05800
C 	C 	0.98740 0.42100 0.35140 0.48100
C 	C 	0.96630 0.46630 0.28650 -0.15400
C 	C 	0.94560 0.55980 0.27760 0.01200
H 	H 	0.94250 0.59620 0.31360 0.03900
C 	C 	0.93000 0.59930 0.22060 -0.00300
C 	C 	0.93560 0.55210 0.16830 -0.02100
H 	H 	0.93440 0.58200 0.12920 0.03900
C 	C 	0.94380 0.45360 0.17250 -0.10600
H 	H 	0.92920 0.41640 0.13600 0.07100
C 	C 	0.97490 0.41650 0.23430 0.09300
H 	H 	0.00200 0.35630 0.23930 -0.00800
C 	C 	0.03750 0.41050 0.01280 -0.19600
C 	C 	0.07580 0.57320 0.00570 -0.29300
H 	H 	0.12910 0.62090 0.00940 0.10400
C 	C 	0.35120 0.18340 0.00590 0.38000
C 	C 	0.23710 0.20570 0.02210 -0.04000
C 	C 	0.19250 0.29410 0.01150 -0.14800
H 	H 	0.23640 0.33890 0.99590 0.09900
C 	C 	0.08320 0.31820 0.02360 0.12800
C 	C 	0.01590 0.24840 0.04570 -0.19100
H 	H 	0.94230 0.26290 0.05230 0.10500
C 	C 	0.05490 0.16220 0.05740 0.03500
H 	H 	0.01000 0.11750 0.07250 0.00500
C 	C 	0.17240 0.13980 0.04550 -0.06900
H 	H 	0.20200 0.08080 0.05410 0.05600
C 	C 	0.88000 0.89000 0.19000 0.05700
C 	C 	0.85700 0.82800 0.13800 0.21200
H 	H 	0.82450 0.84860 0.09710 -0.04500
C 	C 	0.88200 0.73500 0.14700 -0.08900
H 	H 	0.86720 0.69460 0.11180 0.05400
C 	C 	0.92800 0.70200 0.20700 -0.22700
H 	H 	0.18890 0.46860 0.03370 -0.03300
N 	N 	0.89000 0.52000 0.98100 -0.22800
Cd	Cd	0.92921 0.72745 0.55078 1.19800
N 	N 	0.57540 0.35570 0.25230 -0.12000
C 	C 	0.39000 0.98000 0.48100 0.05500
O 	O 	0.85170 0.60540 0.48250 -0.50500
O 	O 	0.80810 0.74530 0.44820 -0.40400
O 	O 	0.51630 0.97150 0.10400 -0.46800
O 	O 	0.49350 0.83700 0.14490 -0.48500
O 	O 	0.12660 0.59900 0.49000 -0.47700
O 	O 	0.09450 0.74360 0.51300 -0.49300
C 	C 	0.65000 0.39000 0.31000 -0.03900
C 	C 	0.70900 0.32800 0.34800 -0.36000
H 	H 	0.75800 0.34890 0.38490 0.14700
C 	C 	0.69600 0.23400 0.33700 0.04200
H 	H 	0.73890 0.19230 0.36510 0.00500
C 	C 	0.62200 0.20100 0.28300 0.28700
C 	C 	0.55660 0.26300 0.24160 0.00800
H 	H 	0.50170 0.24220 0.20720 0.03500
C 	C 	0.80050 0.65930 0.43990 0.34400
C 	C 	0.72970 0.62350 0.38070 -0.09600
C 	C 	0.71570 0.52830 0.37240 -0.02200
H 	H 	0.74970 0.48850 0.40500 0.04400
C 	C 	0.64960 0.49150 0.31420 0.00200
C 	C 	0.60560 0.55120 0.26830 -0.04600
H 	H 	0.56090 0.52790 0.23080 0.04200
C 	C 	0.62210 0.64800 0.27280 -0.06200
H 	H 	0.59160 0.68680 0.23890 0.04400
C 	C 	0.68320 0.68160 0.32770 0.00100
H 	H 	0.69570 0.74480 0.33140 0.04300
C 	C 	0.51260 0.92100 0.14860 0.41400
C 	C 	0.53370 0.96630 0.21350 -0.03700
C 	C 	0.55440 0.05980 0.22240 -0.11500
H 	H 	0.55750 0.09620 0.18640 0.07500
C 	C 	0.57000 0.09930 0.27940 0.09600
C 	C 	0.56440 0.05210 0.33170 -0.14600
H 	H 	0.56560 0.08200 0.37080 0.08100
C 	C 	0.55620 0.95360 0.32750 0.02800
H 	H 	0.57080 0.91640 0.36400 0.02500
C 	C 	0.52510 0.91650 0.26570 -0.05300
H 	H 	0.49800 0.85630 0.26070 0.05500
C 	C 	0.46250 0.91050 0.48720 -0.06800
C 	C 	0.42420 0.07320 0.49430 -0.18500
H 	H 	0.37090 0.12090 0.49060 0.07200
C 	C 	0.14880 0.68340 0.49410 0.43200
C 	C 	0.26290 0.70570 0.47790 -0.10500
C 	C 	0.30750 0.79410 0.48850 -0.03700
H 	H 	0.26360 0.83890 0.50410 0.04600
C 	C 	0.41680 0.81820 0.47640 0.03200
C 	C 	0.48410 0.74840 0.45430 -0.07200
H 	H 	0.55770 0.76290 0.44770 0.05600
C 	C 	0.44510 0.66220 0.44260 -0.04300
H 	H 	0.49000 0.61750 0.42750 0.04400
C 	C 	0.32760 0.63980 0.45450 -0.00300
H 	H 	0.29800 0.58080 0.44590 0.04000
C 	C 	0.62000 0.39000 0.31000 0.09300
C 	C 	0.64300 0.32800 0.36200 0.28300
H 	H 	0.67550 0.34860 0.40290 -0.06500
C 	C 	0.61800 0.23500 0.35300 -0.11000
H 	H 	0.63280 0.19460 0.38820 0.06000
C 	C 	0.57200 0.20200 0.29300 -0.31500
H 	H 	0.31110 0.96860 0.46630 0.00300
N 	N 	0.61000 0.02000 0.51900 -0.20400
Cd	Cd	0.42921 0.77255 0.05078 1.18900
N 	N 	0.07540 0.14430 0.75230 -0.12500
O 	O 	0.35170 0.89460 0.98250 -0.50100
O 	O 	0.30810 0.75470 0.94820 -0.40700
O 	O 	0.01630 0.52850 0.60400 -0.47500
O 	O 	0.99350 0.66300 0.64490 -0.46400
O 	O 	0.62660 0.90100 0.99000 -0.47200
O 	O 	0.59450 0.75640 0.01300 -0.51900
C 	C 	0.15000 0.11000 0.81000 -0.02700
C 	C 	0.20900 0.17200 0.84800 -0.34800
H 	H 	0.25800 0.15110 0.88490 0.14500
C 	C 	0.19600 0.26600 0.83700 0.03900
H 	H 	0.23890 0.30770 0.86510 0.00700
C 	C 	0.12200 0.29900 0.78300 0.27500
C 	C 	0.05660 0.23700 0.74160 0.00500
H 	H 	0.00170 0.25780 0.70720 0.03300
C 	C 	0.30050 0.84070 0.93990 0.36300
C 	C 	0.22970 0.87650 0.88070 -0.14600
C 	C 	0.21570 0.97170 0.87240 0.07400
H 	H 	0.24970 0.01150 0.90500 0.00300
C 	C 	0.14960 0.00850 0.81420 -0.08500
C 	C 	0.10560 0.94880 0.76830 0.03700
H 	H 	0.06090 0.97210 0.73080 0.01800
C 	C 	0.12210 0.85200 0.77280 -0.12800
H 	H 	0.09160 0.81320 0.73890 0.06500
C 	C 	0.18320 0.81840 0.82770 0.05500
H 	H 	0.19570 0.75520 0.83140 0.02300
C 	C 	0.01260 0.57900 0.64860 0.40000
C 	C 	0.03370 0.53370 0.71350 -0.06200
C 	C 	0.05440 0.44020 0.72240 -0.07200
H 	H 	0.05750 0.40380 0.68640 0.06300
C 	C 	0.07000 0.40070 0.77940 0.06500
C 	C 	0.06440 0.44790 0.83170 -0.10200
H 	H 	0.06560 0.41800 0.87080 0.06900
C 	C 	0.05620 0.54640 0.82750 -0.00700
H 	H 	0.07080 0.58360 0.86400 0.03400
C 	C 	0.02510 0.58350 0.76570 -0.06000
H 	H 	0.99800 0.64370 0.76070 0.07100
C 	C 	0.96250 0.58950 0.98720 0.23700
C 	C 	0.92420 0.42680 0.99430 0.14500
H 	H 	0.87090 0.37910 0.99060 -0.02900
C 	C 	0.64880 0.81660 0.99410 0.49300
C 	C 	0.76290 0.79430 0.97790 -0.19700
C 	C 	0.80750 0.70590 0.98850 0.12800
H 	H 	0.76360 0.66110 0.00410 -0.02700
C 	C 	0.91680 0.68180 0.97640 -0.15500
C 	C 	0.98410 0.75160 0.95430 0.10300
H 	H 	0.05770 0.73710 0.94770 -0.01500
C 	C 	0.94510 0.83780 0.94260 -0.16200
H 	H 	0.99000 0.88250 0.92750 0.09800
C 	C 	0.82760 0.86020 0.95450 0.09400
H 	H 	0.79800 0.91920 0.94590 0.01700
C 	C 	0.12000 0.11000 0.81000 0.10300
C 	C 	0.14300 0.17200 0.86200 0.25700
H 	H 	0.17550 0.15140 0.90290 -0.05300
C 	C 	0.11800 0.26500 0.85300 -0.10500
H 	H 	0.13280 0.30540 0.88820 0.06200
C 	C 	0.07200 0.29800 0.79300 -0.29500
H 	H 	0.81110 0.53140 0.96630 0.10200
Cd	Cd	0.07079 0.27255 0.44922 1.18900
N 	N 	0.42460 0.64430 0.74770 -0.11300
O 	O 	0.14830 0.39460 0.51750 -0.51600
O 	O 	0.19190 0.25470 0.55180 -0.41600
O 	O 	0.48370 0.02850 0.89600 -0.48700
O 	O 	0.50650 0.16300 0.85510 -0.49300
O 	O 	0.87340 0.40100 0.51000 -0.46900
O 	O 	0.90550 0.25640 0.48700 -0.48500
C 	C 	0.35000 0.61000 0.69000 -0.01500
C 	C 	0.29100 0.67200 0.65200 -0.26300
H 	H 	0.24200 0.65110 0.61510 0.11200
C 	C 	0.30400 0.76600 0.66300 0.00500
H 	H 	0.26110 0.80770 0.63490 0.01800
C 	C 	0.37800 0.79900 0.71700 0.22700
C 	C 	0.44340 0.73700 0.75840 -0.00900
H 	H 	0.49830 0.75780 0.79280 0.04500
C 	C 	0.19950 0.34070 0.56010 0.34600
C 	C 	0.27030 0.37650 0.61930 -0.10100
C 	C 	0.28430 0.47170 0.62760 -0.02100
H 	H 	0.25030 0.51150 0.59500 0.04300
C 	C 	0.35040 0.50850 0.68580 0.00100
C 	C 	0.39440 0.44880 0.73170 -0.04400
H 	H 	0.43910 0.47210 0.76920 0.04500
C 	C 	0.37790 0.35200 0.72720 -0.06500
H 	H 	0.40840 0.31320 0.76110 0.04700
C 	C 	0.31680 0.31840 0.67230 0.00400
H 	H 	0.30430 0.25520 0.66860 0.03900
C 	C 	0.48740 0.07900 0.85140 0.46300
C 	C 	0.46630 0.03370 0.78650 -0.17400
C 	C 	0.44560 0.94020 0.77760 0.05100
H 	H 	0.44250 0.90380 0.81360 0.02900
C 	C 	0.43000 0.90070 0.72060 -0.03100
C 	C 	0.43560 0.94790 0.66830 0.02000
H 	H 	0.43440 0.91800 0.62920 0.02800
C 	C 	0.44380 0.04640 0.67250 -0.13500
H 	H 	0.42920 0.08360 0.63600 0.07700
C 	C 	0.47490 0.08350 0.73430 0.07800
H 	H 	0.50200 0.14370 0.73930 0.01100
C 	C 	0.53750 0.08950 0.51280 0.13400
C 	C 	0.57580 0.92680 0.50570 0.05700
H 	H 	0.62910 0.87910 0.50940 -0.00300
C 	C 	0.85120 0.31660 0.50590 0.44500
C 	C 	0.73710 0.29430 0.52210 -0.14000
C 	C 	0.69250 0.20590 0.51150 0.03000
H 	H 	0.73640 0.16110 0.49590 0.02100
C 	C 	0.58320 0.18180 0.52360 -0.07400
C 	C 	0.51590 0.25160 0.54570 0.00100
H 	H 	0.44230 0.23710 0.55230 0.02600
C 	C 	0.55490 0.33780 0.55740 -0.09400
H 	H 	0.51000 0.38250 0.57250 0.06400
C 	C 	0.67240 0.36020 0.54550 0.03600
H 	H 	0.70200 0.41920 0.55410 0.03000
C 	C 	0.38000 0.61000 0.69000 0.06700
C 	C 	0.35700 0.67200 0.63800 0.19100
H 	H 	0.32450 0.65140 0.59710 -0.03500
C 	C 	0.38200 0.76500 0.64700 -0.08600
H 	H 	0.36720 0.80540 0.61180 0.05600
C 	C 	0.42800 0.79800 0.70700 -0.21200
H 	H 	0.68890 0.03140 0.53370 0.08900
Cd	Cd	0.50000 0.00000 -0.00000 1.25200
Cd	Cd	-0.00000 0.50000 0.50000 1.25800
