data_crystal

_cell_length_a 15.48100
_cell_length_b 15.86570
_cell_length_c 15.86570
_cell_angle_alpha 76.23020
_cell_angle_beta  60.79900
_cell_angle_gamma 60.79900

_symmetry_space_group_name_	'P 1'
_symmetry_space_group_name_H-M	'P 1'

loop_
_symmetry_equiv_pos_as_xyz
  x,y,z

loop_
_atom_site_label
_atom_site_type_symbol
_atom_site_fract_x
_atom_site_fract_y
_atom_site_fract_z
_atom_site_charge
Ni	Ni	0.50000 0.00000 -0.00000 1.04400
Ni	Ni	0.00000 0.50000 0.50000 1.05100
Ni	Ni	0.00000 1.00000 0.50000 1.05100
Ni	Ni	-0.00000 0.50000 -0.00000 1.01900
Mo	Mo	0.87500 0.75000 0.75000 1.10000
Mo	Mo	0.12500 0.25000 0.25000 1.08300
H 	H 	0.28960 0.97710 0.08850 0.07800
H 	H 	0.32260 0.86900 0.07320 0.07700
H 	H 	0.47440 0.81180 0.89180 0.12800
H 	H 	0.41990 0.83560 0.17640 0.06400
H 	H 	0.38860 0.94680 0.17360 0.04700
H 	H 	0.49800 0.83820 0.00680 0.06200
H 	H 	0.85520 0.52290 0.41150 0.06000
H 	H 	0.76480 0.63100 0.42680 0.05300
H 	H 	0.67800 0.68820 0.60820 0.08800
H 	H 	0.93190 0.66440 0.32360 -0.01700
H 	H 	0.00900 0.55320 0.32640 -0.08800
H 	H 	0.84300 0.66180 0.49320 0.09800
H 	H 	0.87810 0.91150 0.47710 0.06700
H 	H 	0.89580 0.92680 0.36900 0.07800
H 	H 	0.86620 0.10820 0.31180 0.10600
H 	H 	0.09630 0.82360 0.33560 0.06100
H 	H 	0.06220 0.82640 0.44680 0.03800
H 	H 	0.00480 0.99320 0.33820 0.03100
H 	H 	0.76670 0.58850 0.02290 0.01100
H 	H 	0.69160 0.57320 0.13100 0.03600
H 	H 	0.78620 0.39180 0.18820 0.07800
H 	H 	0.75550 0.67640 0.16440 0.06100
H 	H 	0.83540 0.67360 0.05320 0.03200
H 	H 	0.83620 0.50680 0.16180 0.10300
H 	H 	0.14480 0.58850 0.47710 0.04300
H 	H 	0.23520 0.57320 0.36900 0.05500
H 	H 	0.32200 0.39180 0.31180 0.08500
H 	H 	0.06810 0.67640 0.33560 0.13300
H 	H 	0.99100 0.67360 0.44680 0.17100
H 	H 	0.15700 0.50680 0.33820 0.08600
H 	H 	0.71040 0.91150 0.02290 0.00500
H 	H 	0.67740 0.92680 0.13100 0.03100
H 	H 	0.52560 0.10820 0.18820 0.06100
H 	H 	0.58010 0.82360 0.16440 0.05500
H 	H 	0.61140 0.82640 0.05320 0.02200
H 	H 	0.50200 0.99320 0.16180 0.10100
H 	H 	0.23330 0.97710 0.41150 0.04800
H 	H 	0.30840 0.86900 0.42680 0.05100
H 	H 	0.21380 0.81180 0.60820 0.07600
H 	H 	0.24450 0.83560 0.32360 0.05200
H 	H 	0.16460 0.94680 0.32640 0.03200
H 	H 	0.16380 0.83820 0.49320 0.08800
H 	H 	0.12190 0.52290 0.08850 0.06100
H 	H 	0.10420 0.63100 0.07320 0.05400
H 	H 	0.13380 0.68820 0.89180 0.10300
H 	H 	0.90370 0.66440 0.17640 0.06000
H 	H 	0.93780 0.55320 0.17360 0.05100
H 	H 	0.99520 0.66180 0.00680 0.12400
H 	H 	0.71040 0.02290 0.91150 0.02200
H 	H 	0.67740 0.13100 0.92680 0.03100
H 	H 	0.52560 0.18820 0.10820 0.04600
H 	H 	0.58010 0.16440 0.82360 0.05700
H 	H 	0.61140 0.05320 0.82640 0.03700
H 	H 	0.50200 0.16180 0.99320 0.12700
H 	H 	0.14480 0.47710 0.58850 0.04300
H 	H 	0.23520 0.36900 0.57320 0.05800
H 	H 	0.32200 0.31180 0.39180 0.08800
H 	H 	0.06810 0.33560 0.67640 0.13700
H 	H 	0.99100 0.44680 0.67360 0.16800
H 	H 	0.15700 0.33820 0.50680 0.08900
H 	H 	0.12190 0.08850 0.52290 0.03500
H 	H 	0.10420 0.07320 0.63100 0.03500
H 	H 	0.13380 0.89180 0.68820 0.06700
H 	H 	0.90370 0.17640 0.66440 0.06200
H 	H 	0.93780 0.17360 0.55320 0.04700
H 	H 	0.99520 0.00680 0.66180 0.15000
H 	H 	0.23330 0.41150 0.97710 0.09500
H 	H 	0.30840 0.42680 0.86900 0.07600
H 	H 	0.21380 0.60820 0.81180 0.09900
H 	H 	0.24450 0.32360 0.83560 0.06000
H 	H 	0.16460 0.32640 0.94680 0.05600
H 	H 	0.16380 0.49320 0.83820 0.08400
H 	H 	0.85520 0.41150 0.52290 0.06000
H 	H 	0.76480 0.42680 0.63100 0.05600
H 	H 	0.67800 0.60820 0.68820 0.09100
H 	H 	0.93190 0.32360 0.66440 -0.00900
H 	H 	0.00900 0.32640 0.55320 -0.08100
H 	H 	0.84300 0.49320 0.66180 0.10000
H 	H 	0.28960 0.08850 0.97710 0.09800
H 	H 	0.32260 0.07320 0.86900 0.07900
H 	H 	0.47440 0.89180 0.81180 0.11200
H 	H 	0.41990 0.17640 0.83560 0.06600
H 	H 	0.38860 0.17360 0.94680 0.06400
H 	H 	0.49800 0.00680 0.83820 0.08700
H 	H 	0.76670 0.02290 0.58850 0.05300
H 	H 	0.69160 0.13100 0.57320 0.05900
H 	H 	0.78620 0.18820 0.39180 0.09800
H 	H 	0.75550 0.16440 0.67640 0.06900
H 	H 	0.83540 0.05320 0.67360 0.05000
H 	H 	0.83620 0.16180 0.50680 0.09800
H 	H 	0.87810 0.47710 0.91150 0.04300
H 	H 	0.89580 0.36900 0.92680 0.05600
H 	H 	0.86620 0.31180 0.10820 0.07300
H 	H 	0.09630 0.33560 0.82360 0.06000
H 	H 	0.06220 0.44680 0.82640 0.03400
H 	H 	0.00480 0.33820 0.99320 0.06900
H 	H 	0.28100 0.95610 0.95610 0.00400
H 	H 	0.69320 0.54390 0.54390 0.02800
H 	H 	0.73710 0.04390 0.45610 0.02000
H 	H 	0.73710 0.45610 0.04390 0.03700
H 	H 	0.30680 0.45610 0.45610 0.02700
H 	H 	0.71900 0.04390 0.04390 0.05300
H 	H 	0.26290 0.95610 0.54390 0.03600
H 	H 	0.26290 0.54390 0.95610 0.01700
C 	C 	0.34417 0.92122 0.04674 -0.22900
C 	C 	0.44022 0.88637 0.13857 -0.13600
C 	C 	0.81213 0.57878 0.45326 -0.08100
C 	C 	0.96516 0.61363 0.36143 0.18400
C 	C 	0.89091 0.95326 0.42122 -0.11700
C 	C 	0.07879 0.86143 0.38637 -0.18000
C 	C 	0.76539 0.54674 0.07878 -0.03700
C 	C 	0.82659 0.63857 0.11363 -0.12300
C 	C 	0.18787 0.54674 0.42122 -0.10100
C 	C 	0.03484 0.63857 0.38637 -0.42000
C 	C 	0.65583 0.95326 0.07878 -0.00600
C 	C 	0.55978 0.86143 0.11363 -0.10300
C 	C 	0.23461 0.92122 0.45326 -0.07700
C 	C 	0.17341 0.88637 0.36143 -0.09800
C 	C 	0.10909 0.57878 0.04674 -0.19400
C 	C 	0.92121 0.61363 0.13857 -0.07200
C 	C 	0.65583 0.07878 0.95326 0.05600
C 	C 	0.55978 0.11363 0.86143 -0.09900
C 	C 	0.18787 0.42122 0.54674 -0.10100
C 	C 	0.03484 0.38637 0.63857 -0.40900
C 	C 	0.10909 0.04674 0.57878 -0.05900
C 	C 	0.92121 0.13857 0.61363 -0.06500
C 	C 	0.23461 0.45326 0.92122 -0.14800
C 	C 	0.17341 0.36143 0.88637 -0.11200
C 	C 	0.81213 0.45326 0.57878 -0.08200
C 	C 	0.96516 0.36143 0.61363 0.17200
C 	C 	0.34417 0.04674 0.92122 -0.16500
C 	C 	0.44022 0.13857 0.88637 -0.13200
C 	C 	0.76539 0.07878 0.54674 -0.10200
C 	C 	0.82659 0.11363 0.63857 -0.13500
C 	C 	0.89091 0.42122 0.95326 0.01000
C 	C 	0.07879 0.38637 0.86143 -0.15500
C 	C 	0.91520 0.81550 0.81550 -0.12100
C 	C 	0.73030 0.85210 0.85210 -0.10400
C 	C 	0.35354 0.94536 0.94536 0.15500
C 	C 	0.42733 0.86847 0.86847 -0.26800
C 	C 	0.36500 0.83880 0.83880 0.03100
C 	C 	0.04620 0.68450 0.68450 -0.21200
C 	C 	0.93450 0.64790 0.64790 -0.09800
C 	C 	0.74426 0.55464 0.55464 0.01700
C 	C 	0.66427 0.63153 0.63153 -0.19300
C 	C 	0.54260 0.66120 0.66120 0.00800
C 	C 	0.23070 0.18450 0.31550 -0.15100
C 	C 	0.08240 0.14790 0.35210 -0.13700
C 	C 	0.79890 0.05464 0.44536 0.03900
C 	C 	0.79580 0.13153 0.36847 -0.21200
C 	C 	0.70380 0.16120 0.33880 0.01200
C 	C 	0.23070 0.31550 0.18450 -0.16100
C 	C 	0.08240 0.35210 0.14790 -0.15300
C 	C 	0.79890 0.44536 0.05464 -0.08100
C 	C 	0.79580 0.36847 0.13153 -0.14600
C 	C 	0.70380 0.33880 0.16120 -0.01400
C 	C 	0.95380 0.31550 0.31550 -0.09200
C 	C 	0.06550 0.35210 0.35210 -0.13700
C 	C 	0.25574 0.44536 0.44536 0.02000
C 	C 	0.33573 0.36847 0.36847 -0.19300
C 	C 	0.45740 0.33880 0.33880 0.00300
C 	C 	0.08480 0.18450 0.18450 -0.18000
C 	C 	0.26970 0.14790 0.14790 -0.13300
C 	C 	0.64646 0.05464 0.05464 -0.13000
C 	C 	0.57267 0.13153 0.13153 -0.11100
C 	C 	0.63500 0.16120 0.16120 -0.02200
C 	C 	0.76930 0.81550 0.68450 -0.15100
C 	C 	0.91760 0.85210 0.64790 -0.09800
C 	C 	0.20110 0.94536 0.55464 -0.01000
C 	C 	0.20420 0.86847 0.63153 -0.16900
C 	C 	0.29620 0.83880 0.66120 -0.00200
C 	C 	0.76930 0.68450 0.81550 -0.14100
C 	C 	0.91760 0.64790 0.85210 -0.08500
C 	C 	0.20110 0.55464 0.94536 0.12300
C 	C 	0.20420 0.63153 0.86847 -0.24200
C 	C 	0.29620 0.66120 0.83880 0.02500
N 	N 	0.44504 0.89440 0.03952 -0.21500
N 	N 	0.87896 0.60560 0.46048 -0.26100
N 	N 	0.98456 0.96048 0.39440 -0.15300
N 	N 	0.83944 0.53952 0.10560 -0.24400
N 	N 	0.12104 0.53952 0.39440 -0.20500
N 	N 	0.55496 0.96048 0.10560 -0.25800
N 	N 	0.16056 0.89440 0.46048 -0.24200
N 	N 	0.01544 0.60560 0.03952 -0.29300
N 	N 	0.55496 0.10560 0.96048 -0.25000
N 	N 	0.12104 0.39440 0.53952 -0.20600
N 	N 	0.01544 0.03952 0.60560 -0.30400
N 	N 	0.16056 0.46048 0.89440 -0.21400
N 	N 	0.87896 0.46048 0.60560 -0.25900
N 	N 	0.44504 0.03952 0.89440 -0.20700
N 	N 	0.83944 0.10560 0.53952 -0.22600
N 	N 	0.98456 0.39440 0.96048 -0.17200
N 	N 	0.93988 0.85240 0.85240 -0.05600
N 	N 	0.64985 0.90785 0.90785 -0.18100
N 	N 	0.14468 0.64760 0.64760 -0.07900
N 	N 	0.96555 0.59215 0.59215 -0.19300
N 	N 	0.29228 0.14760 0.35240 -0.08300
N 	N 	0.05770 0.09215 0.40785 -0.21600
N 	N 	0.29228 0.35240 0.14760 -0.09700
N 	N 	0.05770 0.40785 0.09215 -0.23300
N 	N 	0.85532 0.35240 0.35240 -0.08800
N 	N 	0.03445 0.40785 0.40785 -0.21400
N 	N 	0.06012 0.14760 0.14760 -0.11000
N 	N 	0.35015 0.09215 0.09215 -0.22500
N 	N 	0.70772 0.85240 0.64760 -0.08300
N 	N 	0.94230 0.90785 0.59215 -0.19000
N 	N 	0.70772 0.64760 0.85240 -0.07000
N 	N 	0.94230 0.59215 0.90785 -0.16700
