data_crystal

_cell_length_a 19.00300
_cell_length_b 19.00300
_cell_length_c 16.91600
_cell_angle_alpha 90.00000
_cell_angle_beta  90.00000
_cell_angle_gamma 120.00000

_symmetry_space_group_name_	'P 1'
_symmetry_space_group_name_H-M	'P 1'

loop_
_symmetry_equiv_pos_as_xyz
  x,y,z

loop_
_atom_site_label
_atom_site_type_symbol
_atom_site_fract_x
_atom_site_fract_y
_atom_site_fract_z
_atom_site_charge
N 	N 	0.48570 0.22980 0.63380 -0.20700
H 	H 	0.50710 0.20770 0.66190 0.09200
N 	N 	0.48900 0.30020 0.65360 -0.22700
N 	N 	0.28080 0.20330 0.37570 -0.21300
H 	H 	0.23570 0.17430 0.35120 0.09000
C 	C 	0.37420 0.24430 0.46620 -0.15600
C 	C 	0.29840 0.18240 0.44620 0.25100
C 	C 	0.24170 0.10490 0.48570 -0.73600
H 	H 	0.18680 0.09120 0.47440 0.21600
H 	H 	0.25060 0.11080 0.54180 0.22700
H 	H 	0.25100 0.06270 0.46660 0.22200
C 	C 	0.40100 0.30100 0.40200 0.22200
C 	C 	0.42150 0.25150 0.53830 -0.14500
C 	C 	0.44570 0.19770 0.56560 0.25000
C 	C 	0.44980 0.31440 0.59530 0.20800
C 	C 	0.43750 0.12240 0.53130 -0.73000
H 	H 	0.45100 0.09460 0.57050 0.21500
H 	H 	0.47350 0.13590 0.48700 0.22000
H 	H 	0.38250 0.08790 0.51410 0.22300
C 	C 	0.43760 0.38600 0.59880 -0.65500
H 	H 	0.45490 0.41180 0.64950 0.16800
H 	H 	0.38110 0.36840 0.59130 0.19200
H 	H 	0.46900 0.42390 0.55800 0.18800
C 	C 	0.47950 0.37800 0.39040 -0.68500
H 	H 	0.47490 0.42280 0.41040 0.19100
H 	H 	0.49220 0.38590 0.33500 0.18300
H 	H 	0.52190 0.37490 0.41810 0.21000
N 	N 	0.34280 0.27600 0.34740 -0.23500
H 	H 	0.94540 0.70150 0.70370 0.21600
N 	N 	0.77020 0.25590 0.63380 -0.20800
H 	H 	0.79230 0.29940 0.66190 0.09100
N 	N 	0.69980 0.18880 0.65360 -0.22800
N 	N 	0.79670 0.07750 0.37570 -0.21400
H 	H 	0.82570 0.06140 0.35120 0.08900
C 	C 	0.75570 0.12990 0.46620 -0.15700
C 	C 	0.81760 0.11600 0.44620 0.25100
C 	C 	0.89510 0.13680 0.48570 -0.73800
H 	H 	0.90880 0.09560 0.47440 0.21600
H 	H 	0.88920 0.13980 0.54180 0.22700
H 	H 	0.93730 0.18830 0.46660 0.22100
C 	C 	0.69900 0.10000 0.40200 0.22100
C 	C 	0.74850 0.17000 0.53830 -0.14600
C 	C 	0.80230 0.24800 0.56560 0.24900
C 	C 	0.68560 0.13540 0.59530 0.20700
C 	C 	0.87760 0.31510 0.53130 -0.73100
H 	H 	0.90540 0.35640 0.57050 0.21400
H 	H 	0.86410 0.33760 0.48700 0.21900
H 	H 	0.91210 0.29460 0.51410 0.22200
C 	C 	0.61400 0.05160 0.59880 -0.65600
H 	H 	0.58820 0.04310 0.64950 0.16800
H 	H 	0.63160 0.01270 0.59130 0.19200
H 	H 	0.57610 0.04510 0.55800 0.18800
C 	C 	0.62200 0.10150 0.39040 -0.68500
H 	H 	0.57720 0.05210 0.41040 0.19100
H 	H 	0.61410 0.10630 0.33500 0.18300
H 	H 	0.62510 0.14700 0.41810 0.21000
N 	N 	0.72400 0.06680 0.34740 -0.23500
H 	H 	0.29850 0.24390 0.70370 0.21600
N 	N 	0.74410 0.51430 0.63380 -0.20800
H 	H 	0.70060 0.49290 0.66190 0.09100
N 	N 	0.81120 0.51100 0.65360 -0.22800
N 	N 	0.92250 0.71920 0.37570 -0.21400
H 	H 	0.93860 0.76430 0.35120 0.08900
C 	C 	0.87010 0.62580 0.46620 -0.15700
C 	C 	0.88400 0.70160 0.44620 0.25000
C 	C 	0.86320 0.75830 0.48570 -0.73700
H 	H 	0.90440 0.81320 0.47440 0.21500
H 	H 	0.86020 0.74940 0.54180 0.22600
H 	H 	0.81170 0.74900 0.46660 0.22100
C 	C 	0.90000 0.59900 0.40200 0.22100
C 	C 	0.83000 0.57850 0.53830 -0.14600
C 	C 	0.75200 0.55430 0.56560 0.24900
C 	C 	0.86460 0.55020 0.59530 0.20700
C 	C 	0.68490 0.56250 0.53130 -0.73100
H 	H 	0.64360 0.54900 0.57050 0.21400
H 	H 	0.66240 0.52650 0.48700 0.21900
H 	H 	0.70540 0.61750 0.51410 0.22200
C 	C 	0.94840 0.56240 0.59880 -0.65600
H 	H 	0.95690 0.54510 0.64950 0.16800
H 	H 	0.98730 0.61890 0.59130 0.19200
H 	H 	0.95490 0.53100 0.55800 0.18800
C 	C 	0.89850 0.52050 0.39040 -0.68500
H 	H 	0.94790 0.52510 0.41040 0.19100
H 	H 	0.89370 0.50780 0.33500 0.18300
H 	H 	0.85300 0.47810 0.41810 0.21000
N 	N 	0.93320 0.65720 0.34740 -0.23500
H 	H 	0.75610 0.05460 0.70370 0.21600
N 	N 	0.51430 0.77020 0.13380 -0.20800
H 	H 	0.49290 0.79230 0.16190 0.09100
N 	N 	0.51100 0.69980 0.15360 -0.22800
N 	N 	0.71920 0.79670 0.87570 -0.21400
H 	H 	0.76430 0.82570 0.85120 0.08900
C 	C 	0.62580 0.75570 0.96620 -0.15500
C 	C 	0.70160 0.81760 0.94620 0.24900
C 	C 	0.75830 0.89510 0.98570 -0.73400
H 	H 	0.81320 0.90880 0.97440 0.21500
H 	H 	0.74940 0.88920 0.04180 0.22500
H 	H 	0.74900 0.93730 0.96660 0.22000
C 	C 	0.59900 0.69900 0.90200 0.22000
C 	C 	0.57850 0.74850 0.03830 -0.14800
C 	C 	0.55430 0.80230 0.06560 0.25100
C 	C 	0.55020 0.68560 0.09530 0.20800
C 	C 	0.56250 0.87760 0.03130 -0.73800
H 	H 	0.54900 0.90540 0.07050 0.21500
H 	H 	0.52650 0.86410 0.98700 0.22200
H 	H 	0.61750 0.91210 0.01410 0.22300
C 	C 	0.56240 0.61400 0.09880 -0.65600
H 	H 	0.54510 0.58820 0.14950 0.16900
H 	H 	0.61890 0.63160 0.09130 0.19200
H 	H 	0.53100 0.57610 0.05800 0.18800
C 	C 	0.52050 0.62200 0.89040 -0.68400
H 	H 	0.52510 0.57720 0.91040 0.19000
H 	H 	0.50780 0.61410 0.83500 0.18300
H 	H 	0.47810 0.62510 0.91810 0.21000
N 	N 	0.65720 0.72400 0.84740 -0.23500
H 	H 	0.05460 0.29850 0.20370 0.21600
N 	N 	0.22980 0.74410 0.13380 -0.20900
H 	H 	0.20770 0.70060 0.16190 0.09100
N 	N 	0.30020 0.81120 0.15360 -0.22800
N 	N 	0.20330 0.92250 0.87570 -0.21300
H 	H 	0.17430 0.93860 0.85120 0.08900
C 	C 	0.24430 0.87010 0.96620 -0.15200
C 	C 	0.18240 0.88400 0.94620 0.24600
C 	C 	0.10490 0.86320 0.98570 -0.72400
H 	H 	0.09120 0.90440 0.97440 0.21200
H 	H 	0.11080 0.86020 0.04180 0.22000
H 	H 	0.06270 0.81170 0.96660 0.21800
C 	C 	0.30100 0.90000 0.90200 0.22000
C 	C 	0.25150 0.83000 0.03830 -0.15100
C 	C 	0.19770 0.75200 0.06560 0.25300
C 	C 	0.31440 0.86460 0.09530 0.20800
C 	C 	0.12240 0.68490 0.03130 -0.74300
H 	H 	0.09460 0.64360 0.07050 0.21700
H 	H 	0.13590 0.66240 0.98700 0.22400
H 	H 	0.08790 0.70540 0.01410 0.22400
C 	C 	0.38600 0.94840 0.09880 -0.65700
H 	H 	0.41180 0.95690 0.14950 0.16800
H 	H 	0.36840 0.98730 0.09130 0.19200
H 	H 	0.42390 0.95490 0.05800 0.18800
C 	C 	0.37800 0.89850 0.89040 -0.68400
H 	H 	0.42280 0.94790 0.91040 0.19100
H 	H 	0.38590 0.89370 0.83500 0.18300
H 	H 	0.37490 0.85300 0.91810 0.21000
N 	N 	0.27600 0.93320 0.84740 -0.23500
H 	H 	0.70150 0.75610 0.20370 0.21600
N 	N 	0.25590 0.48570 0.13380 -0.20800
H 	H 	0.29940 0.50710 0.16190 0.09100
N 	N 	0.18880 0.48900 0.15360 -0.22800
N 	N 	0.07750 0.28080 0.87570 -0.21400
H 	H 	0.06140 0.23570 0.85120 0.08900
C 	C 	0.12990 0.37420 0.96620 -0.15500
C 	C 	0.11600 0.29840 0.94620 0.24900
C 	C 	0.13680 0.24170 0.98570 -0.73500
H 	H 	0.09560 0.18680 0.97440 0.21500
H 	H 	0.13980 0.25060 0.04180 0.22500
H 	H 	0.18830 0.25100 0.96660 0.22000
C 	C 	0.10000 0.40100 0.90200 0.22100
C 	C 	0.17000 0.42150 0.03830 -0.14800
C 	C 	0.24800 0.44570 0.06560 0.25000
C 	C 	0.13540 0.44980 0.09530 0.20700
C 	C 	0.31510 0.43750 0.03130 -0.73400
H 	H 	0.35640 0.45100 0.07050 0.21500
H 	H 	0.33760 0.47350 0.98700 0.22000
H 	H 	0.29460 0.38250 0.01410 0.22200
C 	C 	0.05160 0.43760 0.09880 -0.65500
H 	H 	0.04310 0.45490 0.14950 0.16800
H 	H 	0.01270 0.38110 0.09130 0.19200
H 	H 	0.04510 0.46900 0.05800 0.18700
C 	C 	0.10150 0.47950 0.89040 -0.68500
H 	H 	0.05210 0.47490 0.91040 0.19100
H 	H 	0.10630 0.49220 0.83500 0.18300
H 	H 	0.14700 0.52190 0.91810 0.21100
N 	N 	0.06680 0.34280 0.84740 -0.23500
H 	H 	0.24390 0.94540 0.20370 0.21600
N 	N 	0.51430 0.77020 0.36620 -0.20800
H 	H 	0.49290 0.79230 0.33810 0.09100
N 	N 	0.51100 0.69980 0.34640 -0.22800
N 	N 	0.71920 0.79670 0.62430 -0.21400
H 	H 	0.76430 0.82570 0.64880 0.08900
C 	C 	0.62580 0.75570 0.53380 -0.15700
C 	C 	0.70160 0.81760 0.55380 0.25000
C 	C 	0.75830 0.89510 0.51430 -0.73700
H 	H 	0.81320 0.90880 0.52560 0.21500
H 	H 	0.74940 0.88920 0.45820 0.22600
H 	H 	0.74900 0.93730 0.53340 0.22100
C 	C 	0.59900 0.69900 0.59800 0.22100
C 	C 	0.57850 0.74850 0.46170 -0.14600
C 	C 	0.55430 0.80230 0.43440 0.24900
C 	C 	0.55020 0.68560 0.40470 0.20700
C 	C 	0.56250 0.87760 0.46870 -0.73100
H 	H 	0.54900 0.90540 0.42950 0.21400
H 	H 	0.52650 0.86410 0.51300 0.21900
H 	H 	0.61750 0.91210 0.48590 0.22200
C 	C 	0.56240 0.61400 0.40120 -0.65600
H 	H 	0.54510 0.58820 0.35050 0.16800
H 	H 	0.61890 0.63160 0.40870 0.19200
H 	H 	0.53100 0.57610 0.44200 0.18800
C 	C 	0.52050 0.62200 0.60960 -0.68500
H 	H 	0.52510 0.57720 0.58960 0.19100
H 	H 	0.50780 0.61410 0.66500 0.18300
H 	H 	0.47810 0.62510 0.58190 0.21000
N 	N 	0.65720 0.72400 0.65260 -0.23500
H 	H 	0.05460 0.29850 0.29630 0.21600
N 	N 	0.22980 0.74410 0.36620 -0.20800
H 	H 	0.20770 0.70060 0.33810 0.09100
N 	N 	0.30020 0.81120 0.34640 -0.22800
N 	N 	0.20330 0.92250 0.62430 -0.21400
H 	H 	0.17430 0.93860 0.64880 0.08900
C 	C 	0.24430 0.87010 0.53380 -0.15700
C 	C 	0.18240 0.88400 0.55380 0.25100
C 	C 	0.10490 0.86320 0.51430 -0.73800
H 	H 	0.09120 0.90440 0.52560 0.21600
H 	H 	0.11080 0.86020 0.45820 0.22700
H 	H 	0.06270 0.81170 0.53340 0.22100
C 	C 	0.30100 0.90000 0.59800 0.22100
C 	C 	0.25150 0.83000 0.46170 -0.14600
C 	C 	0.19770 0.75200 0.43440 0.24900
C 	C 	0.31440 0.86460 0.40470 0.20700
C 	C 	0.12240 0.68490 0.46870 -0.73100
H 	H 	0.09460 0.64360 0.42950 0.21400
H 	H 	0.13590 0.66240 0.51300 0.21900
H 	H 	0.08790 0.70540 0.48590 0.22200
C 	C 	0.38600 0.94840 0.40120 -0.65600
H 	H 	0.41180 0.95690 0.35050 0.16800
H 	H 	0.36840 0.98730 0.40870 0.19200
H 	H 	0.42390 0.95490 0.44200 0.18800
C 	C 	0.37800 0.89850 0.60960 -0.68500
H 	H 	0.42280 0.94790 0.58960 0.19100
H 	H 	0.38590 0.89370 0.66500 0.18300
H 	H 	0.37490 0.85300 0.58190 0.21000
N 	N 	0.27600 0.93320 0.65260 -0.23500
H 	H 	0.70150 0.75610 0.29630 0.21600
N 	N 	0.25590 0.48570 0.36620 -0.20800
H 	H 	0.29940 0.50710 0.33810 0.09100
N 	N 	0.18880 0.48900 0.34640 -0.22800
N 	N 	0.07750 0.28080 0.62430 -0.21400
H 	H 	0.06140 0.23570 0.64880 0.08900
C 	C 	0.12990 0.37420 0.53380 -0.15700
C 	C 	0.11600 0.29840 0.55380 0.25000
C 	C 	0.13680 0.24170 0.51430 -0.73700
H 	H 	0.09560 0.18680 0.52560 0.21500
H 	H 	0.13980 0.25060 0.45820 0.22600
H 	H 	0.18830 0.25100 0.53340 0.22100
C 	C 	0.10000 0.40100 0.59800 0.22100
C 	C 	0.17000 0.42150 0.46170 -0.14600
C 	C 	0.24800 0.44570 0.43440 0.24900
C 	C 	0.13540 0.44980 0.40470 0.20700
C 	C 	0.31510 0.43750 0.46870 -0.73100
H 	H 	0.35640 0.45100 0.42950 0.21400
H 	H 	0.33760 0.47350 0.51300 0.21900
H 	H 	0.29460 0.38250 0.48590 0.22200
C 	C 	0.05160 0.43760 0.40120 -0.65600
H 	H 	0.04310 0.45490 0.35050 0.16800
H 	H 	0.01270 0.38110 0.40870 0.19200
H 	H 	0.04510 0.46900 0.44200 0.18800
C 	C 	0.10150 0.47950 0.60960 -0.68500
H 	H 	0.05210 0.47490 0.58960 0.19100
H 	H 	0.10630 0.49220 0.66500 0.18300
H 	H 	0.14700 0.52190 0.58190 0.21000
N 	N 	0.06680 0.34280 0.65260 -0.23500
H 	H 	0.24390 0.94540 0.29630 0.21600
N 	N 	0.48570 0.22980 0.86620 -0.20800
H 	H 	0.50710 0.20770 0.83810 0.09100
N 	N 	0.48900 0.30020 0.84640 -0.22800
N 	N 	0.28080 0.20330 0.12430 -0.21400
H 	H 	0.23570 0.17430 0.14880 0.08900
C 	C 	0.37420 0.24430 0.03380 -0.15500
C 	C 	0.29840 0.18240 0.05380 0.24900
C 	C 	0.24170 0.10490 0.01430 -0.73400
H 	H 	0.18680 0.09120 0.02560 0.21500
H 	H 	0.25060 0.11080 0.95820 0.22500
H 	H 	0.25100 0.06270 0.03340 0.22000
C 	C 	0.40100 0.30100 0.09800 0.22000
C 	C 	0.42150 0.25150 0.96170 -0.14800
C 	C 	0.44570 0.19770 0.93440 0.25100
C 	C 	0.44980 0.31440 0.90470 0.20800
C 	C 	0.43750 0.12240 0.96870 -0.73800
H 	H 	0.45100 0.09460 0.92950 0.21500
H 	H 	0.47350 0.13590 0.01300 0.22200
H 	H 	0.38250 0.08790 0.98590 0.22300
C 	C 	0.43760 0.38600 0.90120 -0.65600
H 	H 	0.45490 0.41180 0.85050 0.16900
H 	H 	0.38110 0.36840 0.90870 0.19200
H 	H 	0.46900 0.42390 0.94200 0.18800
C 	C 	0.47950 0.37800 0.10960 -0.68400
H 	H 	0.47490 0.42280 0.08960 0.19000
H 	H 	0.49220 0.38590 0.16500 0.18300
H 	H 	0.52190 0.37490 0.08190 0.21000
N 	N 	0.34280 0.27600 0.15260 -0.23500
H 	H 	0.94540 0.70150 0.79630 0.21600
N 	N 	0.77020 0.25590 0.86620 -0.20900
H 	H 	0.79230 0.29940 0.83810 0.09100
N 	N 	0.69980 0.18880 0.84640 -0.22800
N 	N 	0.79670 0.07750 0.12430 -0.21300
H 	H 	0.82570 0.06140 0.14880 0.08900
C 	C 	0.75570 0.12990 0.03380 -0.15200
C 	C 	0.81760 0.11600 0.05380 0.24600
C 	C 	0.89510 0.13680 0.01430 -0.72400
H 	H 	0.90880 0.09560 0.02560 0.21200
H 	H 	0.88920 0.13980 0.95820 0.22000
H 	H 	0.93730 0.18830 0.03340 0.21800
C 	C 	0.69900 0.10000 0.09800 0.22000
C 	C 	0.74850 0.17000 0.96170 -0.15100
C 	C 	0.80230 0.24800 0.93440 0.25300
C 	C 	0.68560 0.13540 0.90470 0.20800
C 	C 	0.87760 0.31510 0.96870 -0.74300
H 	H 	0.90540 0.35640 0.92950 0.21700
H 	H 	0.86410 0.33760 0.01300 0.22400
H 	H 	0.91210 0.29460 0.98590 0.22400
C 	C 	0.61400 0.05160 0.90120 -0.65700
H 	H 	0.58820 0.04310 0.85050 0.16800
H 	H 	0.63160 0.01270 0.90870 0.19200
H 	H 	0.57610 0.04510 0.94200 0.18800
C 	C 	0.62200 0.10150 0.10960 -0.68400
H 	H 	0.57720 0.05210 0.08960 0.19100
H 	H 	0.61410 0.10630 0.16500 0.18300
H 	H 	0.62510 0.14700 0.08190 0.21000
N 	N 	0.72400 0.06680 0.15260 -0.23500
H 	H 	0.29850 0.24390 0.79630 0.21600
N 	N 	0.74410 0.51430 0.86620 -0.20800
H 	H 	0.70060 0.49290 0.83810 0.09100
N 	N 	0.81120 0.51100 0.84640 -0.22800
N 	N 	0.92250 0.71920 0.12430 -0.21400
H 	H 	0.93860 0.76430 0.14880 0.08900
C 	C 	0.87010 0.62580 0.03380 -0.15500
C 	C 	0.88400 0.70160 0.05380 0.24900
C 	C 	0.86320 0.75830 0.01430 -0.73500
H 	H 	0.90440 0.81320 0.02560 0.21500
H 	H 	0.86020 0.74940 0.95820 0.22500
H 	H 	0.81170 0.74900 0.03340 0.22000
C 	C 	0.90000 0.59900 0.09800 0.22100
C 	C 	0.83000 0.57850 0.96170 -0.14800
C 	C 	0.75200 0.55430 0.93440 0.25000
C 	C 	0.86460 0.55020 0.90470 0.20700
C 	C 	0.68490 0.56250 0.96870 -0.73400
H 	H 	0.64360 0.54900 0.92950 0.21500
H 	H 	0.66240 0.52650 0.01300 0.22000
H 	H 	0.70540 0.61750 0.98590 0.22200
C 	C 	0.94840 0.56240 0.90120 -0.65500
H 	H 	0.95690 0.54510 0.85050 0.16800
H 	H 	0.98730 0.61890 0.90870 0.19200
H 	H 	0.95490 0.53100 0.94200 0.18700
C 	C 	0.89850 0.52050 0.10960 -0.68500
H 	H 	0.94790 0.52510 0.08960 0.19100
H 	H 	0.89370 0.50780 0.16500 0.18300
H 	H 	0.85300 0.47810 0.08190 0.21100
N 	N 	0.93320 0.65720 0.15260 -0.23500
H 	H 	0.75610 0.05460 0.79630 0.21600
Cu	Cu	0.66932 0.66706 0.75000 0.85000
Cu	Cu	0.54774 0.36667 0.75000 0.85000
C 	C 	0.61830 0.55370 0.75000 -0.23500
N 	N 	0.59290 0.48230 0.75000 -0.21900
N 	N 	0.79200 0.70790 0.75000 -0.31200
C 	C 	0.85280 0.71510 0.75000 0.23700
C 	C 	0.93830 0.72640 0.75000 -0.72300
H 	H 	0.97770 0.78340 0.75000 0.21100
Cu	Cu	0.33294 0.00226 0.75000 0.85000
Cu	Cu	0.63333 0.18107 0.75000 0.85000
C 	C 	0.44630 0.06460 0.75000 -0.23500
N 	N 	0.51770 0.11060 0.75000 -0.21900
N 	N 	0.29210 0.08410 0.75000 -0.31300
C 	C 	0.28490 0.13770 0.75000 0.23700
C 	C 	0.27360 0.21190 0.75000 -0.72300
H 	H 	0.21660 0.19430 0.75000 0.21200
Cu	Cu	0.99774 0.33068 0.75000 0.85000
Cu	Cu	0.81893 0.45226 0.75000 0.85000
C 	C 	0.93540 0.38170 0.75000 -0.23500
N 	N 	0.88940 0.40710 0.75000 -0.21900
N 	N 	0.91590 0.20800 0.75000 -0.31200
C 	C 	0.86230 0.14720 0.75000 0.23700
C 	C 	0.78810 0.06170 0.75000 -0.72300
H 	H 	0.80570 0.02230 0.75000 0.21200
Cu	Cu	0.33068 0.33294 0.25000 0.85000
Cu	Cu	0.45226 0.63333 0.25000 0.85000
C 	C 	0.38170 0.44630 0.25000 -0.23500
N 	N 	0.40710 0.51770 0.25000 -0.21900
N 	N 	0.20800 0.29210 0.25000 -0.31200
C 	C 	0.14720 0.28490 0.25000 0.23700
C 	C 	0.06170 0.27360 0.25000 -0.72300
H 	H 	0.02230 0.21660 0.25000 0.21100
Cu	Cu	0.66706 0.99774 0.25000 0.85000
Cu	Cu	0.36667 0.81893 0.25000 0.85000
C 	C 	0.55370 0.93540 0.25000 -0.23500
N 	N 	0.48230 0.88940 0.25000 -0.21900
N 	N 	0.70790 0.91590 0.25000 -0.31300
C 	C 	0.71510 0.86230 0.25000 0.23700
C 	C 	0.72640 0.78810 0.25000 -0.72300
H 	H 	0.78340 0.80570 0.25000 0.21200
Cu	Cu	0.00226 0.66932 0.25000 0.85000
Cu	Cu	0.18107 0.54774 0.25000 0.85000
C 	C 	0.06460 0.61830 0.25000 -0.23500
N 	N 	0.11060 0.59290 0.25000 -0.21900
N 	N 	0.08410 0.79200 0.25000 -0.31200
C 	C 	0.13770 0.85280 0.25000 0.23700
C 	C 	0.21190 0.93830 0.25000 -0.72300
H 	H 	0.19430 0.97770 0.25000 0.21200
Br	Br	0.66667 0.33333 0.75000 -0.64000
Br	Br	0.33333 0.66667 0.25000 -0.64000
