data_crystal

_cell_length_a 12.41430
_cell_length_b 7.71660
_cell_length_c 18.32700
_cell_angle_alpha 90.00000
_cell_angle_beta  90.00000
_cell_angle_gamma 90.00000

_symmetry_space_group_name_	'P 1'
_symmetry_space_group_name_H-M	'P 1'

loop_
_symmetry_equiv_pos_as_xyz
  x,y,z

loop_
_atom_site_label
_atom_site_type_symbol
_atom_site_fract_x
_atom_site_fract_y
_atom_site_fract_z
_atom_site_charge
In	In	0.43362 0.71118 0.30351 2.01000
In	In	0.62305 0.28402 0.45164 2.00800
P 	P 	0.36540 0.37060 0.40590 0.48500
H 	H 	0.38200 0.22000 0.36600 -0.03800
P 	P 	0.19191 0.87170 0.35007 0.49600
H 	H 	0.17100 0.72900 0.38400 -0.05700
P 	P 	0.44711 0.74860 0.12234 0.45600
H 	H 	0.54100 0.70300 0.09800 -0.00100
O 	O 	0.35150 0.49620 0.34230 -0.50600
O 	O 	0.29030 0.86470 0.29990 -0.46100
O 	O 	0.46330 0.81410 0.41280 -0.43600
O 	O 	0.51800 0.96020 0.28360 -0.41000
O 	O 	0.09100 0.90360 0.30580 -0.48400
O 	O 	0.42630 0.64990 0.19280 -0.46300
O 	O 	0.46790 0.40280 0.44870 -0.50100
O 	O 	0.36920 0.68210 0.06400 -0.42700
O 	O 	0.26680 0.36780 0.45440 -0.47000
O 	O 	0.20530 0.99790 0.41310 -0.50700
O 	O 	0.53660 0.03560 0.47100 -0.41600
O 	O 	0.59240 0.18120 0.34160 -0.42500
O 	O 	0.44860 0.94410 0.13130 -0.18700
C 	C 	0.51090 0.95640 0.41470 0.23200
C 	C 	0.54250 0.03890 0.34000 0.22500
In	In	0.56638 0.28882 0.80351 2.00800
In	In	0.37695 0.71598 0.95164 1.99800
P 	P 	0.63460 0.62940 0.90590 0.48400
H 	H 	0.61800 0.78000 0.86600 -0.04200
P 	P 	0.80809 0.12830 0.85007 0.49700
H 	H 	0.82900 0.27100 0.88400 -0.06300
P 	P 	0.55289 0.25140 0.62234 0.45500
H 	H 	0.45900 0.29700 0.59800 -0.02200
O 	O 	0.64850 0.50380 0.84230 -0.51000
O 	O 	0.70970 0.13530 0.79990 -0.46500
O 	O 	0.53670 0.18590 0.91280 -0.45100
O 	O 	0.48200 0.03980 0.78360 -0.41000
O 	O 	0.90900 0.09640 0.80580 -0.48700
O 	O 	0.57370 0.35010 0.69280 -0.47000
O 	O 	0.53210 0.59720 0.94870 -0.52300
O 	O 	0.63080 0.31790 0.56400 -0.47300
O 	O 	0.73320 0.63220 0.95440 -0.49300
O 	O 	0.79470 0.00210 0.91310 -0.51900
O 	O 	0.46340 0.96440 0.97100 -0.45000
O 	O 	0.40760 0.81880 0.84160 -0.42600
O 	O 	0.55140 0.05590 0.63130 -0.21000
C 	C 	0.48910 0.04360 0.91470 0.24400
C 	C 	0.45750 0.96110 0.84000 0.21600
In	In	0.93362 0.78882 0.30351 2.00700
In	In	0.12305 0.21598 0.45164 2.00500
P 	P 	0.86540 0.12940 0.40590 0.48400
H 	H 	0.88200 0.28000 0.36600 -0.03800
P 	P 	0.69191 0.62830 0.35007 0.49600
H 	H 	0.67100 0.77100 0.38400 -0.05900
P 	P 	0.94711 0.75140 0.12234 0.45000
H 	H 	0.04100 0.79700 0.09800 0.00400
O 	O 	0.85150 0.00380 0.34230 -0.50200
O 	O 	0.79030 0.63530 0.29990 -0.46300
O 	O 	0.96330 0.68590 0.41280 -0.44300
O 	O 	0.01800 0.53980 0.28360 -0.40600
O 	O 	0.59100 0.59640 0.30580 -0.48700
O 	O 	0.92630 0.85010 0.19280 -0.46600
O 	O 	0.96790 0.09720 0.44870 -0.49700
O 	O 	0.86920 0.81790 0.06400 -0.43000
O 	O 	0.76680 0.13220 0.45440 -0.46800
O 	O 	0.70530 0.50210 0.41310 -0.51000
O 	O 	0.03660 0.46440 0.47100 -0.41900
O 	O 	0.09240 0.31880 0.34160 -0.42700
O 	O 	0.94860 0.55590 0.13130 -0.18600
C 	C 	0.01090 0.54360 0.41470 0.24100
C 	C 	0.04250 0.46110 0.34000 0.22000
In	In	0.06638 0.21118 0.80351 2.00700
In	In	0.87695 0.78402 0.95164 1.99700
P 	P 	0.13460 0.87060 0.90590 0.48500
H 	H 	0.11800 0.72000 0.86600 -0.04000
P 	P 	0.30809 0.37170 0.85007 0.49700
H 	H 	0.32900 0.22900 0.88400 -0.06400
P 	P 	0.05289 0.24860 0.62234 0.45100
H 	H 	0.95900 0.20300 0.59800 -0.01800
O 	O 	0.14850 0.99620 0.84230 -0.50600
O 	O 	0.20970 0.36470 0.79990 -0.46600
O 	O 	0.03670 0.31410 0.91280 -0.45400
O 	O 	0.98200 0.46020 0.78360 -0.41000
O 	O 	0.40900 0.40360 0.80580 -0.49100
O 	O 	0.07370 0.14990 0.69280 -0.47200
O 	O 	0.03210 0.90280 0.94870 -0.51900
O 	O 	0.13080 0.18210 0.56400 -0.47400
O 	O 	0.23320 0.86780 0.95440 -0.49200
O 	O 	0.29470 0.49790 0.91310 -0.52400
O 	O 	0.96340 0.53560 0.97100 -0.44900
O 	O 	0.90760 0.68120 0.84160 -0.43000
O 	O 	0.05140 0.44410 0.63130 -0.20900
C 	C 	0.98910 0.45640 0.91470 0.24600
C 	C 	0.95750 0.53890 0.84000 0.21800
