data_crystal

_cell_length_a 9.57200
_cell_length_b 17.71700
_cell_length_c 13.71500
_cell_angle_alpha 90.00000
_cell_angle_beta  90.00000
_cell_angle_gamma 90.00000

_symmetry_space_group_name_	'P 1'
_symmetry_space_group_name_H-M	'P 1'

loop_
_symmetry_equiv_pos_as_xyz
  x,y,z

loop_
_atom_site_label
_atom_site_type_symbol
_atom_site_fract_x
_atom_site_fract_y
_atom_site_fract_z
_atom_site_charge
O 	O 	0.73830 0.78540 0.87400 -0.39100
O 	O 	0.84790 0.79260 0.73400 -0.40300
C 	C 	0.73900 0.80170 0.78530 0.40600
C 	C 	0.61160 0.83560 0.73870 -0.44400
H 	H 	0.52840 0.81750 0.77160 0.15500
H 	H 	0.60650 0.82020 0.67090 0.16000
C 	C 	0.61750 0.92170 0.74470 0.15700
C 	C 	0.61770 0.95680 0.83340 -0.11000
H 	H 	0.61620 0.92820 0.89030 0.06900
C 	C 	0.62010 0.96500 0.66080 -0.10500
H 	H 	0.62350 0.94150 0.60020 0.05800
N 	N 	0.92930 0.62680 0.84440 -0.01100
C 	C 	0.70240 0.60960 0.08690 0.37300
H 	H 	0.76250 0.65050 0.08080 -0.11100
C 	C 	0.00840 0.56850 0.87940 -0.06300
H 	H 	0.09780 0.58240 0.89920 0.03300
C 	C 	0.97980 0.49530 0.89020 0.06800
H 	H 	0.04190 0.46060 0.91700 -0.01800
C 	C 	0.85180 0.47700 0.85810 -0.15100
C 	C 	0.75980 0.53260 0.82300 0.16400
H 	H 	0.67020 0.51970 0.80290 -0.02700
C 	C 	0.67740 0.47700 0.07620 0.22700
C 	C 	0.75860 0.53920 0.07060 -0.40800
H 	H 	0.85300 0.53440 0.05570 0.17300
C 	C 	0.80360 0.60470 0.81900 -0.21400
H 	H 	0.74110 0.64100 0.79680 0.08100
N 	N 	0.57350 0.62450 0.11000 -0.29700
C 	C 	0.72770 0.38750 0.94800 -0.11100
H 	H 	0.67680 0.34060 0.93930 0.05500
H 	H 	0.65880 0.42740 0.94310 0.04900
C 	C 	0.81030 0.39460 0.86410 -0.10300
H 	H 	0.75770 0.38000 0.80660 0.06000
H 	H 	0.89250 0.36280 0.86880 0.07500
O 	O 	0.23830 0.28540 0.37400 -0.39900
O 	O 	0.34790 0.29260 0.23400 -0.41500
C 	C 	0.23900 0.30170 0.28530 0.40000
C 	C 	0.11160 0.33560 0.23870 -0.43400
H 	H 	0.02840 0.31750 0.27160 0.14100
H 	H 	0.10650 0.32020 0.17090 0.15000
C 	C 	0.11750 0.42170 0.24470 0.14600
C 	C 	0.11770 0.45680 0.33340 -0.11200
H 	H 	0.11620 0.42820 0.39030 0.06300
C 	C 	0.12010 0.46500 0.16080 -0.10900
H 	H 	0.12350 0.44150 0.10020 0.05600
N 	N 	0.42930 0.12680 0.34440 0.06300
C 	C 	0.20240 0.10960 0.58690 0.56300
H 	H 	0.26250 0.15050 0.58080 -0.18000
C 	C 	0.50840 0.06850 0.37940 0.11500
H 	H 	0.59780 0.08240 0.39920 -0.02100
C 	C 	0.47980 0.99530 0.39020 -0.11100
H 	H 	0.54190 0.96060 0.41700 0.06500
C 	C 	0.35180 0.97700 0.35810 -0.20000
C 	C 	0.25980 0.03260 0.32300 0.29300
H 	H 	0.17020 0.01970 0.30290 -0.07600
C 	C 	0.17740 0.97700 0.57620 0.33000
C 	C 	0.25860 0.03920 0.57060 -0.57400
H 	H 	0.35300 0.03440 0.55570 0.22300
C 	C 	0.30360 0.10470 0.31900 -0.39100
H 	H 	0.24110 0.14100 0.29680 0.13800
N 	N 	0.07350 0.12450 0.61000 -0.42600
C 	C 	0.22770 0.88750 0.44800 -0.12900
H 	H 	0.17680 0.84060 0.43930 0.05400
H 	H 	0.15880 0.92740 0.44310 0.04000
C 	C 	0.31030 0.89460 0.36410 -0.10500
H 	H 	0.25770 0.88000 0.30660 0.05900
H 	H 	0.39250 0.86280 0.36880 0.06700
O 	O 	0.76170 0.21460 0.37400 -0.39400
O 	O 	0.65210 0.20740 0.23400 -0.41700
C 	C 	0.76100 0.19830 0.28530 0.41200
C 	C 	0.88840 0.16440 0.23870 -0.45700
H 	H 	0.97160 0.18250 0.27160 0.17200
H 	H 	0.89350 0.17980 0.17090 0.16900
C 	C 	0.88250 0.07830 0.24470 0.16400
C 	C 	0.88230 0.04320 0.33340 -0.11000
H 	H 	0.88380 0.07180 0.39030 0.07400
C 	C 	0.87990 0.03500 0.16080 -0.10200
H 	H 	0.87650 0.05850 0.10020 0.06100
N 	N 	0.57070 0.37320 0.34440 0.02900
C 	C 	0.79760 0.39040 0.58690 0.24100
H 	H 	0.73750 0.34950 0.58080 -0.07000
C 	C 	0.49160 0.43150 0.37940 0.13400
H 	H 	0.40220 0.41760 0.39920 -0.02700
C 	C 	0.52020 0.50470 0.39020 -0.14800
H 	H 	0.45810 0.53940 0.41700 0.07900
C 	C 	0.64820 0.52300 0.35810 -0.11400
C 	C 	0.74020 0.46740 0.32300 0.21100
H 	H 	0.82980 0.48030 0.30290 -0.03600
C 	C 	0.82260 0.52300 0.57620 0.17700
C 	C 	0.74140 0.46080 0.57060 -0.28700
H 	H 	0.64700 0.46560 0.55570 0.12400
C 	C 	0.69640 0.39530 0.31900 -0.31800
H 	H 	0.75890 0.35900 0.29680 0.11900
N 	N 	0.92650 0.37550 0.61000 -0.19500
C 	C 	0.77230 0.61250 0.44800 -0.09000
H 	H 	0.82320 0.65940 0.43930 0.05500
H 	H 	0.84120 0.57260 0.44310 0.04800
C 	C 	0.68970 0.60540 0.36410 -0.15500
H 	H 	0.74230 0.62000 0.30660 0.07900
H 	H 	0.60750 0.63720 0.36880 0.08100
O 	O 	0.26170 0.71460 0.87400 -0.39900
O 	O 	0.15210 0.70740 0.73400 -0.42400
C 	C 	0.26100 0.69830 0.78530 0.40700
C 	C 	0.38840 0.66440 0.73870 -0.44700
H 	H 	0.47160 0.68250 0.77160 0.15700
H 	H 	0.39350 0.67980 0.67090 0.16000
C 	C 	0.38250 0.57830 0.74470 0.15500
C 	C 	0.38230 0.54320 0.83340 -0.11300
H 	H 	0.38380 0.57180 0.89030 0.06900
C 	C 	0.37990 0.53500 0.66080 -0.10600
H 	H 	0.37650 0.55850 0.60020 0.05900
N 	N 	0.07070 0.87320 0.84440 0.10400
C 	C 	0.29760 0.89040 0.08690 0.43000
H 	H 	0.23750 0.84950 0.08080 -0.13800
C 	C 	0.99160 0.93150 0.87940 0.31000
H 	H 	0.90220 0.91760 0.89920 -0.08000
C 	C 	0.02020 0.00470 0.89020 -0.32400
H 	H 	0.95810 0.03940 0.91700 0.16000
C 	C 	0.14820 0.02300 0.85810 -0.16200
C 	C 	0.24020 0.96740 0.82300 0.34000
H 	H 	0.32980 0.98030 0.80290 -0.08600
C 	C 	0.32260 0.02300 0.07620 0.28000
C 	C 	0.24140 0.96080 0.07060 -0.45300
H 	H 	0.14700 0.96560 0.05570 0.17400
C 	C 	0.19640 0.89530 0.81900 -0.49600
H 	H 	0.25890 0.85900 0.79680 0.17600
N 	N 	0.42650 0.87550 0.11000 -0.32500
C 	C 	0.27230 0.11250 0.94800 -0.10100
H 	H 	0.32320 0.15940 0.93930 0.05200
H 	H 	0.34120 0.07260 0.94310 0.03700
C 	C 	0.18970 0.10540 0.86410 -0.16100
H 	H 	0.24230 0.12000 0.80660 0.07900
H 	H 	0.10750 0.13720 0.86880 0.07600
O 	O 	0.26170 0.28540 0.62600 -0.39900
O 	O 	0.15210 0.29260 0.76600 -0.42400
C 	C 	0.26100 0.30170 0.71470 0.40700
C 	C 	0.38840 0.33560 0.76130 -0.44700
H 	H 	0.47160 0.31750 0.72840 0.15700
H 	H 	0.39350 0.32020 0.82910 0.16000
C 	C 	0.38250 0.42170 0.75530 0.15500
C 	C 	0.38230 0.45680 0.66660 -0.11300
H 	H 	0.38380 0.42820 0.60970 0.06900
C 	C 	0.37990 0.46500 0.83920 -0.10600
H 	H 	0.37650 0.44150 0.89980 0.05900
N 	N 	0.07070 0.12680 0.65560 0.10400
C 	C 	0.29760 0.10960 0.41310 0.43000
H 	H 	0.23750 0.15050 0.41920 -0.13900
C 	C 	0.99160 0.06850 0.62060 0.30900
H 	H 	0.90220 0.08240 0.60080 -0.08000
C 	C 	0.02020 0.99530 0.60980 -0.32300
H 	H 	0.95810 0.96060 0.58300 0.15900
C 	C 	0.14820 0.97700 0.64190 -0.16200
C 	C 	0.24020 0.03260 0.67700 0.33900
H 	H 	0.32980 0.01970 0.69710 -0.08600
C 	C 	0.32260 0.97700 0.42380 0.28000
C 	C 	0.24140 0.03920 0.42940 -0.45300
H 	H 	0.14700 0.03440 0.44430 0.17300
C 	C 	0.19640 0.10470 0.68100 -0.49400
H 	H 	0.25890 0.14100 0.70320 0.17500
N 	N 	0.42650 0.12450 0.39000 -0.32500
C 	C 	0.27230 0.88750 0.55200 -0.10100
H 	H 	0.32320 0.84060 0.56070 0.05200
H 	H 	0.34120 0.92740 0.55690 0.03700
C 	C 	0.18970 0.89460 0.63590 -0.16000
H 	H 	0.24230 0.88000 0.69340 0.07900
H 	H 	0.10750 0.86280 0.63120 0.07600
O 	O 	0.76170 0.78540 0.12600 -0.39400
O 	O 	0.65210 0.79260 0.26600 -0.41700
C 	C 	0.76100 0.80170 0.21470 0.41200
C 	C 	0.88840 0.83560 0.26130 -0.45800
H 	H 	0.97160 0.81750 0.22840 0.17200
H 	H 	0.89350 0.82020 0.32910 0.17000
C 	C 	0.88250 0.92170 0.25530 0.16500
C 	C 	0.88230 0.95680 0.16660 -0.11000
H 	H 	0.88380 0.92820 0.10970 0.07400
C 	C 	0.87990 0.96500 0.33920 -0.10200
H 	H 	0.87650 0.94150 0.39980 0.06100
N 	N 	0.57070 0.62680 0.15560 0.02800
C 	C 	0.79760 0.60960 0.91310 0.24100
H 	H 	0.73750 0.65050 0.91920 -0.07000
C 	C 	0.49160 0.56850 0.12060 0.13400
H 	H 	0.40220 0.58240 0.10080 -0.02700
C 	C 	0.52020 0.49530 0.10980 -0.14800
H 	H 	0.45810 0.46060 0.08300 0.07900
C 	C 	0.64820 0.47700 0.14190 -0.11400
C 	C 	0.74020 0.53260 0.17700 0.21000
H 	H 	0.82980 0.51970 0.19710 -0.03600
C 	C 	0.82260 0.47700 0.92380 0.17700
C 	C 	0.74140 0.53920 0.92940 -0.28700
H 	H 	0.64700 0.53440 0.94430 0.12400
C 	C 	0.69640 0.60470 0.18100 -0.31700
H 	H 	0.75890 0.64100 0.20320 0.11800
N 	N 	0.92650 0.62450 0.89000 -0.19500
C 	C 	0.77230 0.38750 0.05200 -0.09300
H 	H 	0.82320 0.34060 0.06070 0.05600
H 	H 	0.84120 0.42740 0.05690 0.04800
C 	C 	0.68970 0.39460 0.13590 -0.15200
H 	H 	0.74230 0.38000 0.19340 0.07800
H 	H 	0.60750 0.36280 0.13120 0.08100
O 	O 	0.23830 0.71460 0.12600 -0.39900
O 	O 	0.34790 0.70740 0.26600 -0.41500
C 	C 	0.23900 0.69830 0.21470 0.40000
C 	C 	0.11160 0.66440 0.26130 -0.43400
H 	H 	0.02840 0.68250 0.22840 0.14100
H 	H 	0.10650 0.67980 0.32910 0.15000
C 	C 	0.11750 0.57830 0.25530 0.14600
C 	C 	0.11770 0.54320 0.16660 -0.11200
H 	H 	0.11620 0.57180 0.10970 0.06400
C 	C 	0.12010 0.53500 0.33920 -0.10900
H 	H 	0.12350 0.55850 0.39980 0.05600
N 	N 	0.42930 0.87320 0.15560 0.06300
C 	C 	0.20240 0.89040 0.91310 0.56500
H 	H 	0.26250 0.84950 0.91920 -0.18100
C 	C 	0.50840 0.93150 0.12060 0.11500
H 	H 	0.59780 0.91760 0.10080 -0.02100
C 	C 	0.47980 0.00470 0.10980 -0.11100
H 	H 	0.54190 0.03940 0.08300 0.06400
C 	C 	0.35180 0.02300 0.14190 -0.20000
C 	C 	0.25980 0.96740 0.17700 0.29300
H 	H 	0.17020 0.98030 0.19710 -0.07600
C 	C 	0.17740 0.02300 0.92380 0.33100
C 	C 	0.25860 0.96080 0.92940 -0.57600
H 	H 	0.35300 0.96560 0.94430 0.22300
C 	C 	0.30360 0.89530 0.18100 -0.39100
H 	H 	0.24110 0.85900 0.20320 0.13800
N 	N 	0.07350 0.87550 0.89000 -0.42700
C 	C 	0.22770 0.11250 0.05200 -0.12900
H 	H 	0.17680 0.15940 0.06070 0.05500
H 	H 	0.15880 0.07260 0.05690 0.04100
C 	C 	0.31030 0.10540 0.13590 -0.10500
H 	H 	0.25770 0.12000 0.19340 0.05900
H 	H 	0.39250 0.13720 0.13120 0.06700
O 	O 	0.73830 0.21460 0.62600 -0.39200
O 	O 	0.84790 0.20740 0.76600 -0.40400
C 	C 	0.73900 0.19830 0.71470 0.40500
C 	C 	0.61160 0.16440 0.76130 -0.44400
H 	H 	0.52840 0.18250 0.72840 0.15500
H 	H 	0.60650 0.17980 0.82910 0.16000
C 	C 	0.61750 0.07830 0.75530 0.15600
C 	C 	0.61770 0.04320 0.66660 -0.10900
H 	H 	0.61620 0.07180 0.60970 0.06900
C 	C 	0.62010 0.03500 0.83920 -0.10400
H 	H 	0.62350 0.05850 0.89980 0.05800
N 	N 	0.92930 0.37320 0.65560 -0.01100
C 	C 	0.70240 0.39040 0.41310 0.37400
H 	H 	0.76250 0.34950 0.41920 -0.11200
C 	C 	0.00840 0.43150 0.62060 -0.06100
H 	H 	0.09780 0.41760 0.60080 0.03300
C 	C 	0.97980 0.50470 0.60980 0.06600
H 	H 	0.04190 0.53940 0.58300 -0.01700
C 	C 	0.85180 0.52300 0.64190 -0.15100
C 	C 	0.75980 0.46740 0.67700 0.16400
H 	H 	0.67020 0.48030 0.69710 -0.02700
C 	C 	0.67740 0.52300 0.42380 0.22800
C 	C 	0.75860 0.46080 0.42940 -0.40900
H 	H 	0.85300 0.46560 0.44430 0.17400
C 	C 	0.80360 0.39530 0.68100 -0.21400
H 	H 	0.74110 0.35900 0.70320 0.08100
N 	N 	0.57350 0.37550 0.39000 -0.29800
C 	C 	0.72770 0.61250 0.55200 -0.11400
H 	H 	0.67680 0.65940 0.56070 0.05600
H 	H 	0.65880 0.57260 0.55690 0.04900
C 	C 	0.81030 0.60540 0.63590 -0.10100
H 	H 	0.75770 0.62000 0.69340 0.06000
H 	H 	0.89250 0.63720 0.63120 0.07400
Cd	Cd	0.00000 0.75000 0.85525 1.19600
Cd	Cd	0.50000 0.25000 0.35525 1.20700
Cd	Cd	-0.00000 0.25000 0.64475 1.19600
Cd	Cd	0.50000 0.75000 0.14475 1.20700
