data_crystal

_cell_length_a 18.53960
_cell_length_b 18.53960
_cell_length_c 38.82600
_cell_angle_alpha 90.00000
_cell_angle_beta  90.00000
_cell_angle_gamma 120.00000

_symmetry_space_group_name_	'P 1'
_symmetry_space_group_name_H-M	'P 1'

loop_
_symmetry_equiv_pos_as_xyz
  x,y,z

loop_
_atom_site_label
_atom_site_type_symbol
_atom_site_fract_x
_atom_site_fract_y
_atom_site_fract_z
_atom_site_charge
O 	O 	0.10961 0.48080 0.00283 -0.40500
O 	O 	0.02923 0.44070 0.95539 -0.40200
O 	O 	0.29150 0.42310 0.78520 -0.14200
C 	C 	0.09160 0.45270 0.97271 0.34700
C 	C 	0.15060 0.43040 0.95522 -0.05300
C 	C 	0.13590 0.40020 0.92227 -0.05300
H 	H 	0.08680 0.38920 0.91130 0.07600
C 	C 	0.22790 0.37480 0.80960 0.07700
C 	C 	0.24270 0.40210 0.84440 -0.02000
C 	C 	0.36860 0.47510 0.79630 -0.19000
H 	H 	0.40400 0.50280 0.77700 0.09400
H 	H 	0.36780 0.51560 0.81140 0.09400
H 	H 	0.38940 0.44420 0.80850 0.09000
O 	O 	0.77628 0.81413 0.33616 -0.40600
O 	O 	0.69590 0.77403 0.28872 -0.40300
O 	O 	0.95817 0.75643 0.11853 -0.14200
C 	C 	0.75827 0.78603 0.30604 0.34600
C 	C 	0.81727 0.76373 0.28855 -0.05300
C 	C 	0.80257 0.73353 0.25560 -0.05300
H 	H 	0.75347 0.72253 0.24463 0.07600
C 	C 	0.89457 0.70813 0.14293 0.07700
C 	C 	0.90937 0.73543 0.17773 -0.02000
C 	C 	0.03527 0.80843 0.12963 -0.19000
H 	H 	0.07067 0.83613 0.11033 0.09400
H 	H 	0.03447 0.84893 0.14473 0.09400
H 	H 	0.05607 0.77753 0.14183 0.09000
O 	O 	0.44294 0.14747 0.66950 -0.40600
O 	O 	0.36256 0.10737 0.62206 -0.40300
O 	O 	0.62483 0.08977 0.45187 -0.14300
C 	C 	0.42493 0.11937 0.63938 0.34600
C 	C 	0.48393 0.09707 0.62189 -0.05300
C 	C 	0.46923 0.06687 0.58894 -0.05300
H 	H 	0.42013 0.05587 0.57797 0.07600
C 	C 	0.56123 0.04147 0.47627 0.07700
C 	C 	0.57603 0.06877 0.51107 -0.02000
C 	C 	0.70193 0.14177 0.46297 -0.19000
H 	H 	0.73733 0.16947 0.44367 0.09400
H 	H 	0.70113 0.18227 0.47807 0.09400
H 	H 	0.72273 0.11087 0.47517 0.09000
O 	O 	0.51920 0.62881 0.00283 -0.40600
O 	O 	0.55930 0.58853 0.95539 -0.40300
O 	O 	0.57690 0.86840 0.78520 -0.14300
C 	C 	0.54730 0.63890 0.97271 0.34600
C 	C 	0.56960 0.72020 0.95522 -0.05300
C 	C 	0.59980 0.73570 0.92227 -0.05300
H 	H 	0.61080 0.69760 0.91130 0.07600
C 	C 	0.62520 0.85310 0.80960 0.07700
C 	C 	0.59790 0.84060 0.84440 -0.02000
C 	C 	0.52490 0.89350 0.79630 -0.19000
H 	H 	0.49720 0.90120 0.77700 0.09400
H 	H 	0.48440 0.85220 0.81140 0.09400
H 	H 	0.55580 0.94520 0.80850 0.09000
O 	O 	0.18587 0.96214 0.33616 -0.40600
O 	O 	0.22597 0.92186 0.28872 -0.40300
O 	O 	0.24357 0.20173 0.11853 -0.14300
C 	C 	0.21397 0.97223 0.30604 0.34600
C 	C 	0.23627 0.05353 0.28855 -0.05200
C 	C 	0.26647 0.06903 0.25560 -0.05300
H 	H 	0.27747 0.03093 0.24463 0.07600
C 	C 	0.29187 0.18643 0.14293 0.07700
C 	C 	0.26457 0.17393 0.17773 -0.02000
C 	C 	0.19157 0.22683 0.12963 -0.19000
H 	H 	0.16387 0.23453 0.11033 0.09400
H 	H 	0.15107 0.18553 0.14473 0.09400
H 	H 	0.22247 0.27853 0.14183 0.09000
O 	O 	0.85253 0.29548 0.66950 -0.40600
O 	O 	0.89263 0.25520 0.62206 -0.40300
O 	O 	0.91023 0.53507 0.45187 -0.14300
C 	C 	0.88063 0.30557 0.63938 0.34600
C 	C 	0.90293 0.38687 0.62189 -0.05300
C 	C 	0.93313 0.40237 0.58894 -0.05300
H 	H 	0.94413 0.36427 0.57797 0.07600
C 	C 	0.95853 0.51977 0.47627 0.07700
C 	C 	0.93123 0.50727 0.51107 -0.02000
C 	C 	0.85823 0.56017 0.46297 -0.19000
H 	H 	0.83053 0.56787 0.44367 0.09400
H 	H 	0.81773 0.51887 0.47807 0.09400
H 	H 	0.88913 0.61187 0.47517 0.09000
O 	O 	0.37119 0.89039 0.00283 -0.40700
O 	O 	0.41147 0.97077 0.95539 -0.40300
O 	O 	0.13160 0.70850 0.78520 -0.14300
C 	C 	0.36110 0.90840 0.97271 0.34700
C 	C 	0.27980 0.84940 0.95522 -0.05300
C 	C 	0.26430 0.86410 0.92227 -0.05300
H 	H 	0.30240 0.91320 0.91130 0.07600
C 	C 	0.14690 0.77210 0.80960 0.07700
C 	C 	0.15940 0.75730 0.84440 -0.02000
C 	C 	0.10650 0.63140 0.79630 -0.19000
H 	H 	0.09880 0.59600 0.77700 0.09400
H 	H 	0.14780 0.63220 0.81140 0.09400
H 	H 	0.05480 0.61060 0.80850 0.09000
O 	O 	0.03786 0.22372 0.33616 -0.40600
O 	O 	0.07814 0.30410 0.28872 -0.40300
O 	O 	0.79827 0.04183 0.11853 -0.14200
C 	C 	0.02777 0.24173 0.30604 0.34600
C 	C 	0.94647 0.18273 0.28855 -0.05200
C 	C 	0.93097 0.19743 0.25560 -0.05300
H 	H 	0.96907 0.24653 0.24463 0.07600
C 	C 	0.81357 0.10543 0.14293 0.07700
C 	C 	0.82607 0.09063 0.17773 -0.02000
C 	C 	0.77317 0.96473 0.12963 -0.19100
H 	H 	0.76547 0.92933 0.11033 0.09400
H 	H 	0.81447 0.96553 0.14473 0.09400
H 	H 	0.72147 0.94393 0.14183 0.09100
O 	O 	0.70452 0.55706 0.66950 -0.40600
O 	O 	0.74480 0.63744 0.62206 -0.40300
O 	O 	0.46493 0.37517 0.45187 -0.14300
C 	C 	0.69443 0.57507 0.63938 0.34600
C 	C 	0.61313 0.51607 0.62189 -0.05300
C 	C 	0.59763 0.53077 0.58894 -0.05300
H 	H 	0.63573 0.57987 0.57797 0.07600
C 	C 	0.48023 0.43877 0.47627 0.07700
C 	C 	0.49273 0.42397 0.51107 -0.02000
C 	C 	0.43983 0.29807 0.46297 -0.19000
H 	H 	0.43213 0.26267 0.44367 0.09400
H 	H 	0.48113 0.29887 0.47807 0.09400
H 	H 	0.38813 0.27727 0.47517 0.09000
O 	O 	0.48080 0.10961 0.99717 -0.40600
O 	O 	0.44070 0.02923 0.04461 -0.40300
O 	O 	0.42310 0.29150 0.21480 -0.14300
C 	C 	0.45270 0.09160 0.02729 0.34600
C 	C 	0.43040 0.15060 0.04478 -0.05300
C 	C 	0.40020 0.13590 0.07773 -0.05300
H 	H 	0.38920 0.08680 0.08870 0.07600
C 	C 	0.37480 0.22790 0.19040 0.07700
C 	C 	0.40210 0.24270 0.15560 -0.02000
C 	C 	0.47510 0.36860 0.20370 -0.19000
H 	H 	0.50280 0.40400 0.22300 0.09400
H 	H 	0.51560 0.36780 0.18860 0.09400
H 	H 	0.44420 0.38940 0.19150 0.09000
O 	O 	0.14747 0.44294 0.33050 -0.40600
O 	O 	0.10737 0.36256 0.37794 -0.40300
O 	O 	0.08977 0.62483 0.54813 -0.14300
C 	C 	0.11937 0.42493 0.36062 0.34600
C 	C 	0.09707 0.48393 0.37811 -0.05300
C 	C 	0.06687 0.46923 0.41106 -0.05300
H 	H 	0.05587 0.42013 0.42203 0.07600
C 	C 	0.04147 0.56123 0.52373 0.07700
C 	C 	0.06877 0.57603 0.48893 -0.02000
C 	C 	0.14177 0.70193 0.53703 -0.19000
H 	H 	0.16947 0.73733 0.55633 0.09400
H 	H 	0.18227 0.70113 0.52193 0.09400
H 	H 	0.11087 0.72273 0.52483 0.09000
O 	O 	0.81413 0.77628 0.66384 -0.40600
O 	O 	0.77403 0.69590 0.71128 -0.40300
O 	O 	0.75643 0.95817 0.88147 -0.14200
C 	C 	0.78603 0.75827 0.69396 0.34600
C 	C 	0.76373 0.81727 0.71145 -0.05300
C 	C 	0.73353 0.80257 0.74440 -0.05300
H 	H 	0.72253 0.75347 0.75537 0.07600
C 	C 	0.70813 0.89457 0.85707 0.07700
C 	C 	0.73543 0.90937 0.82227 -0.02000
C 	C 	0.80843 0.03527 0.87037 -0.19000
H 	H 	0.83613 0.07067 0.88967 0.09400
H 	H 	0.84893 0.03447 0.85527 0.09400
H 	H 	0.77753 0.05607 0.85817 0.09000
O 	O 	0.62881 0.51920 0.99717 -0.40600
O 	O 	0.58853 0.55930 0.04461 -0.40300
O 	O 	0.86840 0.57690 0.21480 -0.14300
C 	C 	0.63890 0.54730 0.02729 0.34600
C 	C 	0.72020 0.56960 0.04478 -0.05300
C 	C 	0.73570 0.59980 0.07773 -0.05300
H 	H 	0.69760 0.61080 0.08870 0.07600
C 	C 	0.85310 0.62520 0.19040 0.07700
C 	C 	0.84060 0.59790 0.15560 -0.02000
C 	C 	0.89350 0.52490 0.20370 -0.19000
H 	H 	0.90120 0.49720 0.22300 0.09400
H 	H 	0.85220 0.48440 0.18860 0.09400
H 	H 	0.94520 0.55580 0.19150 0.09000
O 	O 	0.29548 0.85253 0.33050 -0.40600
O 	O 	0.25520 0.89263 0.37794 -0.40300
O 	O 	0.53507 0.91023 0.54813 -0.14300
C 	C 	0.30557 0.88063 0.36062 0.34600
C 	C 	0.38687 0.90293 0.37811 -0.05300
C 	C 	0.40237 0.93313 0.41106 -0.05300
H 	H 	0.36427 0.94413 0.42203 0.07600
C 	C 	0.51977 0.95853 0.52373 0.07700
C 	C 	0.50727 0.93123 0.48893 -0.02000
C 	C 	0.56017 0.85823 0.53703 -0.19000
H 	H 	0.56787 0.83053 0.55633 0.09400
H 	H 	0.51887 0.81773 0.52193 0.09400
H 	H 	0.61187 0.88913 0.52483 0.09000
O 	O 	0.96214 0.18587 0.66384 -0.40600
O 	O 	0.92186 0.22597 0.71128 -0.40300
O 	O 	0.20173 0.24357 0.88147 -0.14300
C 	C 	0.97223 0.21397 0.69396 0.34600
C 	C 	0.05353 0.23627 0.71145 -0.05200
C 	C 	0.06903 0.26647 0.74440 -0.05300
H 	H 	0.03093 0.27747 0.75537 0.07600
C 	C 	0.18643 0.29187 0.85707 0.07700
C 	C 	0.17393 0.26457 0.82227 -0.02000
C 	C 	0.22683 0.19157 0.87037 -0.19000
H 	H 	0.23453 0.16387 0.88967 0.09400
H 	H 	0.18553 0.15107 0.85527 0.09400
H 	H 	0.27853 0.22247 0.85817 0.09000
O 	O 	0.89039 0.37119 0.99717 -0.40700
O 	O 	0.97077 0.41147 0.04461 -0.40300
O 	O 	0.70850 0.13160 0.21480 -0.14300
C 	C 	0.90840 0.36110 0.02729 0.34700
C 	C 	0.84940 0.27980 0.04478 -0.05300
C 	C 	0.86410 0.26430 0.07773 -0.05300
H 	H 	0.91320 0.30240 0.08870 0.07600
C 	C 	0.77210 0.14690 0.19040 0.07700
C 	C 	0.75730 0.15940 0.15560 -0.02000
C 	C 	0.63140 0.10650 0.20370 -0.19000
H 	H 	0.59600 0.09880 0.22300 0.09400
H 	H 	0.63220 0.14780 0.18860 0.09400
H 	H 	0.61060 0.05480 0.19150 0.09000
O 	O 	0.55706 0.70452 0.33050 -0.40600
O 	O 	0.63744 0.74480 0.37794 -0.40300
O 	O 	0.37517 0.46493 0.54813 -0.14300
C 	C 	0.57507 0.69443 0.36062 0.34600
C 	C 	0.51607 0.61313 0.37811 -0.05300
C 	C 	0.53077 0.59763 0.41106 -0.05300
H 	H 	0.57987 0.63573 0.42203 0.07600
C 	C 	0.43877 0.48023 0.52373 0.07700
C 	C 	0.42397 0.49273 0.48893 -0.02000
C 	C 	0.29807 0.43983 0.53703 -0.19000
H 	H 	0.26267 0.43213 0.55633 0.09400
H 	H 	0.29887 0.48113 0.52193 0.09400
H 	H 	0.27727 0.38813 0.52483 0.09000
O 	O 	0.22372 0.03786 0.66384 -0.40600
O 	O 	0.30410 0.07814 0.71128 -0.40300
O 	O 	0.04183 0.79827 0.88147 -0.14200
C 	C 	0.24173 0.02777 0.69396 0.34600
C 	C 	0.18273 0.94647 0.71145 -0.05200
C 	C 	0.19743 0.93097 0.74440 -0.05300
H 	H 	0.24653 0.96907 0.75537 0.07600
C 	C 	0.10543 0.81357 0.85707 0.07700
C 	C 	0.09063 0.82607 0.82227 -0.02000
C 	C 	0.96473 0.77317 0.87037 -0.19100
H 	H 	0.92933 0.76547 0.88967 0.09400
H 	H 	0.96553 0.81447 0.85527 0.09400
H 	H 	0.94393 0.72147 0.85817 0.09100
O 	O 	0.89039 0.51920 0.99717 -0.40600
O 	O 	0.97077 0.55930 0.04461 -0.40300
O 	O 	0.70850 0.57690 0.21480 -0.14300
C 	C 	0.90840 0.54730 0.02729 0.34600
C 	C 	0.84940 0.56960 0.04478 -0.05300
C 	C 	0.86410 0.59980 0.07773 -0.05300
H 	H 	0.91320 0.61080 0.08870 0.07600
C 	C 	0.77210 0.62520 0.19040 0.07700
C 	C 	0.75730 0.59790 0.15560 -0.02000
C 	C 	0.63140 0.52490 0.20370 -0.19000
H 	H 	0.59600 0.49720 0.22300 0.09400
H 	H 	0.63220 0.48440 0.18860 0.09400
H 	H 	0.61060 0.55580 0.19150 0.09000
O 	O 	0.55706 0.85253 0.33050 -0.40600
O 	O 	0.63744 0.89263 0.37794 -0.40300
O 	O 	0.37517 0.91023 0.54813 -0.14300
C 	C 	0.57507 0.88063 0.36062 0.34600
C 	C 	0.51607 0.90293 0.37811 -0.05300
C 	C 	0.53077 0.93313 0.41106 -0.05300
H 	H 	0.57987 0.94413 0.42203 0.07600
C 	C 	0.43877 0.95853 0.52373 0.07700
C 	C 	0.42397 0.93123 0.48893 -0.02000
C 	C 	0.29807 0.85823 0.53703 -0.19000
H 	H 	0.26267 0.83053 0.55633 0.09400
H 	H 	0.29887 0.81773 0.52193 0.09400
H 	H 	0.27727 0.88913 0.52483 0.09000
O 	O 	0.22372 0.18587 0.66384 -0.40600
O 	O 	0.30410 0.22597 0.71128 -0.40300
O 	O 	0.04183 0.24357 0.88147 -0.14200
C 	C 	0.24173 0.21397 0.69396 0.34600
C 	C 	0.18273 0.23627 0.71145 -0.05300
C 	C 	0.19743 0.26647 0.74440 -0.05300
H 	H 	0.24653 0.27747 0.75537 0.07600
C 	C 	0.10543 0.29187 0.85707 0.07700
C 	C 	0.09063 0.26457 0.82227 -0.02000
C 	C 	0.96473 0.19157 0.87037 -0.19000
H 	H 	0.92933 0.16387 0.88967 0.09400
H 	H 	0.96553 0.15107 0.85527 0.09400
H 	H 	0.94393 0.22247 0.85817 0.09000
O 	O 	0.48080 0.37119 0.99717 -0.40600
O 	O 	0.44070 0.41147 0.04461 -0.40300
O 	O 	0.42310 0.13160 0.21480 -0.14300
C 	C 	0.45270 0.36110 0.02729 0.34600
C 	C 	0.43040 0.27980 0.04478 -0.05300
C 	C 	0.40020 0.26430 0.07773 -0.05300
H 	H 	0.38920 0.30240 0.08870 0.07600
C 	C 	0.37480 0.14690 0.19040 0.07700
C 	C 	0.40210 0.15940 0.15560 -0.02000
C 	C 	0.47510 0.10650 0.20370 -0.19000
H 	H 	0.50280 0.09880 0.22300 0.09400
H 	H 	0.51560 0.14780 0.18860 0.09400
H 	H 	0.44420 0.05480 0.19150 0.09000
O 	O 	0.14747 0.70452 0.33050 -0.40600
O 	O 	0.10737 0.74480 0.37794 -0.40300
O 	O 	0.08977 0.46493 0.54813 -0.14300
C 	C 	0.11937 0.69443 0.36062 0.34600
C 	C 	0.09707 0.61313 0.37811 -0.05300
C 	C 	0.06687 0.59763 0.41106 -0.05300
H 	H 	0.05587 0.63573 0.42203 0.07600
C 	C 	0.04147 0.48023 0.52373 0.07700
C 	C 	0.06877 0.49273 0.48893 -0.02000
C 	C 	0.14177 0.43983 0.53703 -0.19000
H 	H 	0.16947 0.43213 0.55633 0.09400
H 	H 	0.18227 0.48113 0.52193 0.09400
H 	H 	0.11087 0.38813 0.52483 0.09000
O 	O 	0.81413 0.03786 0.66384 -0.40600
O 	O 	0.77403 0.07814 0.71128 -0.40300
O 	O 	0.75643 0.79827 0.88147 -0.14300
C 	C 	0.78603 0.02777 0.69396 0.34600
C 	C 	0.76373 0.94647 0.71145 -0.05200
C 	C 	0.73353 0.93097 0.74440 -0.05300
H 	H 	0.72253 0.96907 0.75537 0.07600
C 	C 	0.70813 0.81357 0.85707 0.07700
C 	C 	0.73543 0.82607 0.82227 -0.02000
C 	C 	0.80843 0.77317 0.87037 -0.19000
H 	H 	0.83613 0.76547 0.88967 0.09400
H 	H 	0.84893 0.81447 0.85527 0.09400
H 	H 	0.77753 0.72147 0.85817 0.09000
O 	O 	0.62881 0.10961 0.99717 -0.40700
O 	O 	0.58853 0.02923 0.04461 -0.40300
O 	O 	0.86840 0.29150 0.21480 -0.14300
C 	C 	0.63890 0.09160 0.02729 0.34700
C 	C 	0.72020 0.15060 0.04478 -0.05300
C 	C 	0.73570 0.13590 0.07773 -0.05300
H 	H 	0.69760 0.08680 0.08870 0.07600
C 	C 	0.85310 0.22790 0.19040 0.07700
C 	C 	0.84060 0.24270 0.15560 -0.02000
C 	C 	0.89350 0.36860 0.20370 -0.19000
H 	H 	0.90120 0.40400 0.22300 0.09400
H 	H 	0.85220 0.36780 0.18860 0.09400
H 	H 	0.94520 0.38940 0.19150 0.09000
O 	O 	0.29548 0.44294 0.33050 -0.40600
O 	O 	0.25520 0.36256 0.37794 -0.40300
O 	O 	0.53507 0.62483 0.54813 -0.14300
C 	C 	0.30557 0.42493 0.36062 0.34600
C 	C 	0.38687 0.48393 0.37811 -0.05300
C 	C 	0.40237 0.46923 0.41106 -0.05300
H 	H 	0.36427 0.42013 0.42203 0.07600
C 	C 	0.51977 0.56123 0.52373 0.07700
C 	C 	0.50727 0.57603 0.48893 -0.02000
C 	C 	0.56017 0.70193 0.53703 -0.19000
H 	H 	0.56787 0.73733 0.55633 0.09400
H 	H 	0.51887 0.70113 0.52193 0.09400
H 	H 	0.61187 0.72273 0.52483 0.09000
O 	O 	0.96214 0.77628 0.66384 -0.40600
O 	O 	0.92186 0.69590 0.71128 -0.40300
O 	O 	0.20173 0.95817 0.88147 -0.14200
C 	C 	0.97223 0.75827 0.69396 0.34600
C 	C 	0.05353 0.81727 0.71145 -0.05200
C 	C 	0.06903 0.80257 0.74440 -0.05300
H 	H 	0.03093 0.75347 0.75537 0.07600
C 	C 	0.18643 0.89457 0.85707 0.07700
C 	C 	0.17393 0.90937 0.82227 -0.02000
C 	C 	0.22683 0.03527 0.87037 -0.19100
H 	H 	0.23453 0.07067 0.88967 0.09400
H 	H 	0.18553 0.03447 0.85527 0.09400
H 	H 	0.27853 0.05607 0.85817 0.09100
O 	O 	0.51920 0.89039 0.00283 -0.40600
O 	O 	0.55930 0.97077 0.95539 -0.40300
O 	O 	0.57690 0.70850 0.78520 -0.14300
C 	C 	0.54730 0.90840 0.97271 0.34600
C 	C 	0.56960 0.84940 0.95522 -0.05300
C 	C 	0.59980 0.86410 0.92227 -0.05300
H 	H 	0.61080 0.91320 0.91130 0.07600
C 	C 	0.62520 0.77210 0.80960 0.07700
C 	C 	0.59790 0.75730 0.84440 -0.02000
C 	C 	0.52490 0.63140 0.79630 -0.19000
H 	H 	0.49720 0.59600 0.77700 0.09400
H 	H 	0.48440 0.63220 0.81140 0.09400
H 	H 	0.55580 0.61060 0.80850 0.09000
O 	O 	0.18587 0.22372 0.33616 -0.40600
O 	O 	0.22597 0.30410 0.28872 -0.40300
O 	O 	0.24357 0.04183 0.11853 -0.14200
C 	C 	0.21397 0.24173 0.30604 0.34600
C 	C 	0.23627 0.18273 0.28855 -0.05300
C 	C 	0.26647 0.19743 0.25560 -0.05300
H 	H 	0.27747 0.24653 0.24463 0.07600
C 	C 	0.29187 0.10543 0.14293 0.07700
C 	C 	0.26457 0.09063 0.17773 -0.02000
C 	C 	0.19157 0.96473 0.12963 -0.19000
H 	H 	0.16387 0.92933 0.11033 0.09400
H 	H 	0.15107 0.96553 0.14473 0.09400
H 	H 	0.22247 0.94393 0.14183 0.09000
O 	O 	0.85253 0.55706 0.66950 -0.40600
O 	O 	0.89263 0.63744 0.62206 -0.40300
O 	O 	0.91023 0.37517 0.45187 -0.14300
C 	C 	0.88063 0.57507 0.63938 0.34600
C 	C 	0.90293 0.51607 0.62189 -0.05300
C 	C 	0.93313 0.53077 0.58894 -0.05300
H 	H 	0.94413 0.57987 0.57797 0.07600
C 	C 	0.95853 0.43877 0.47627 0.07700
C 	C 	0.93123 0.42397 0.51107 -0.02000
C 	C 	0.85823 0.29807 0.46297 -0.19000
H 	H 	0.83053 0.26267 0.44367 0.09400
H 	H 	0.81773 0.29887 0.47807 0.09400
H 	H 	0.88913 0.27727 0.47517 0.09000
O 	O 	0.37119 0.48080 0.00283 -0.40600
O 	O 	0.41147 0.44070 0.95539 -0.40300
O 	O 	0.13160 0.42310 0.78520 -0.14300
C 	C 	0.36110 0.45270 0.97271 0.34600
C 	C 	0.27980 0.43040 0.95522 -0.05300
C 	C 	0.26430 0.40020 0.92227 -0.05300
H 	H 	0.30240 0.38920 0.91130 0.07600
C 	C 	0.14690 0.37480 0.80960 0.07700
C 	C 	0.15940 0.40210 0.84440 -0.02000
C 	C 	0.10650 0.47510 0.79630 -0.19000
H 	H 	0.09880 0.50280 0.77700 0.09400
H 	H 	0.14780 0.51560 0.81140 0.09400
H 	H 	0.05480 0.44420 0.80850 0.09000
O 	O 	0.03786 0.81413 0.33616 -0.40600
O 	O 	0.07814 0.77403 0.28872 -0.40300
O 	O 	0.79827 0.75643 0.11853 -0.14300
C 	C 	0.02777 0.78603 0.30604 0.34600
C 	C 	0.94647 0.76373 0.28855 -0.05200
C 	C 	0.93097 0.73353 0.25560 -0.05300
H 	H 	0.96907 0.72253 0.24463 0.07600
C 	C 	0.81357 0.70813 0.14293 0.07700
C 	C 	0.82607 0.73543 0.17773 -0.02000
C 	C 	0.77317 0.80843 0.12963 -0.19000
H 	H 	0.76547 0.83613 0.11033 0.09400
H 	H 	0.81447 0.84893 0.14473 0.09400
H 	H 	0.72147 0.77753 0.14183 0.09000
O 	O 	0.70452 0.14747 0.66950 -0.40600
O 	O 	0.74480 0.10737 0.62206 -0.40300
O 	O 	0.46493 0.08977 0.45187 -0.14300
C 	C 	0.69443 0.11937 0.63938 0.34600
C 	C 	0.61313 0.09707 0.62189 -0.05300
C 	C 	0.59763 0.06687 0.58894 -0.05300
H 	H 	0.63573 0.05587 0.57797 0.07600
C 	C 	0.48023 0.04147 0.47627 0.07700
C 	C 	0.49273 0.06877 0.51107 -0.02000
C 	C 	0.43983 0.14177 0.46297 -0.19000
H 	H 	0.43213 0.16947 0.44367 0.09400
H 	H 	0.48113 0.18227 0.47807 0.09400
H 	H 	0.38813 0.11087 0.47517 0.09000
O 	O 	0.10961 0.62881 0.00283 -0.40700
O 	O 	0.02923 0.58853 0.95539 -0.40300
O 	O 	0.29150 0.86840 0.78520 -0.14300
C 	C 	0.09160 0.63890 0.97271 0.34700
C 	C 	0.15060 0.72020 0.95522 -0.05300
C 	C 	0.13590 0.73570 0.92227 -0.05300
H 	H 	0.08680 0.69760 0.91130 0.07600
C 	C 	0.22790 0.85310 0.80960 0.07700
C 	C 	0.24270 0.84060 0.84440 -0.02000
C 	C 	0.36860 0.89350 0.79630 -0.19000
H 	H 	0.40400 0.90120 0.77700 0.09400
H 	H 	0.36780 0.85220 0.81140 0.09400
H 	H 	0.38940 0.94520 0.80850 0.09000
O 	O 	0.77628 0.96214 0.33616 -0.40600
O 	O 	0.69590 0.92186 0.28872 -0.40300
O 	O 	0.95817 0.20173 0.11853 -0.14200
C 	C 	0.75827 0.97223 0.30604 0.34600
C 	C 	0.81727 0.05353 0.28855 -0.05200
C 	C 	0.80257 0.06903 0.25560 -0.05300
H 	H 	0.75347 0.03093 0.24463 0.07600
C 	C 	0.89457 0.18643 0.14293 0.07700
C 	C 	0.90937 0.17393 0.17773 -0.02000
C 	C 	0.03527 0.22683 0.12963 -0.19100
H 	H 	0.07067 0.23453 0.11033 0.09400
H 	H 	0.03447 0.18553 0.14473 0.09400
H 	H 	0.05607 0.27853 0.14183 0.09100
O 	O 	0.44294 0.29548 0.66950 -0.40600
O 	O 	0.36256 0.25520 0.62206 -0.40300
O 	O 	0.62483 0.53507 0.45187 -0.14300
C 	C 	0.42493 0.30557 0.63938 0.34600
C 	C 	0.48393 0.38687 0.62189 -0.05300
C 	C 	0.46923 0.40237 0.58894 -0.05300
H 	H 	0.42013 0.36427 0.57797 0.07600
C 	C 	0.56123 0.51977 0.47627 0.07700
C 	C 	0.57603 0.50727 0.51107 -0.02000
C 	C 	0.70193 0.56017 0.46297 -0.19000
H 	H 	0.73733 0.56787 0.44367 0.09400
H 	H 	0.70113 0.51887 0.47807 0.09400
H 	H 	0.72273 0.61187 0.47517 0.09000
Cu	Cu	0.04785 0.52393 0.02758 0.90400
Cu	Cu	0.71452 0.85726 0.36091 0.90400
Cu	Cu	0.38118 0.19059 0.69425 0.90400
Cu	Cu	0.47607 0.52393 0.02758 0.90400
Cu	Cu	0.14274 0.85726 0.36091 0.90400
Cu	Cu	0.80941 0.19059 0.69425 0.90400
Cu	Cu	0.47607 0.95215 0.02758 0.90400
Cu	Cu	0.14274 0.28548 0.36091 0.90400
Cu	Cu	0.80941 0.61882 0.69425 0.90400
Cu	Cu	0.52393 0.04785 0.97242 0.90400
Cu	Cu	0.19059 0.38118 0.30575 0.90400
Cu	Cu	0.85726 0.71452 0.63909 0.90400
Cu	Cu	0.52393 0.47607 0.97242 0.90400
Cu	Cu	0.19059 0.80941 0.30575 0.90400
Cu	Cu	0.85726 0.14274 0.63909 0.90400
Cu	Cu	0.95215 0.47607 0.97242 0.90400
Cu	Cu	0.61882 0.80941 0.30575 0.90400
Cu	Cu	0.28548 0.14274 0.63909 0.90400
C 	C 	0.22255 0.44510 0.97205 0.00000
H 	H 	0.23240 0.46480 0.99460 0.06200
C 	C 	0.19280 0.38560 0.90484 0.06300
C 	C 	0.17945 0.35890 0.86769 -0.04800
C 	C 	0.88922 0.77843 0.30538 -0.00000
H 	H 	0.89907 0.79813 0.32793 0.06200
C 	C 	0.85947 0.71893 0.23817 0.06300
C 	C 	0.84612 0.69223 0.20102 -0.04800
C 	C 	0.55588 0.11177 0.63872 0.00000
H 	H 	0.56573 0.13147 0.66127 0.06200
C 	C 	0.52613 0.05227 0.57151 0.06300
C 	C 	0.51278 0.02557 0.53436 -0.04800
C 	C 	0.55490 0.77745 0.97205 0.00000
H 	H 	0.53520 0.76760 0.99460 0.06200
C 	C 	0.61440 0.80720 0.90484 0.06300
C 	C 	0.64110 0.82055 0.86769 -0.04800
C 	C 	0.22157 0.11078 0.30538 -0.00000
H 	H 	0.20187 0.10093 0.32793 0.06200
C 	C 	0.28107 0.14053 0.23817 0.06300
C 	C 	0.30777 0.15388 0.20102 -0.04800
C 	C 	0.88823 0.44412 0.63872 0.00000
H 	H 	0.86853 0.43427 0.66127 0.06200
C 	C 	0.94773 0.47387 0.57151 0.06300
C 	C 	0.97443 0.48722 0.53436 -0.04800
C 	C 	0.22255 0.77745 0.97205 0.00000
H 	H 	0.23240 0.76760 0.99460 0.06200
C 	C 	0.19280 0.80720 0.90484 0.06200
C 	C 	0.17945 0.82055 0.86769 -0.04800
C 	C 	0.88922 0.11078 0.30538 -0.00000
H 	H 	0.89907 0.10093 0.32793 0.06200
C 	C 	0.85947 0.14053 0.23817 0.06300
C 	C 	0.84612 0.15388 0.20102 -0.04800
C 	C 	0.55588 0.44412 0.63872 0.00000
H 	H 	0.56573 0.43427 0.66127 0.06200
C 	C 	0.52613 0.47387 0.57151 0.06300
C 	C 	0.51278 0.48722 0.53436 -0.04800
C 	C 	0.44510 0.22255 0.02795 0.00000
H 	H 	0.46480 0.23240 0.00540 0.06200
C 	C 	0.38560 0.19280 0.09516 0.06300
C 	C 	0.35890 0.17945 0.13231 -0.04800
C 	C 	0.11177 0.55588 0.36128 0.00000
H 	H 	0.13147 0.56573 0.33873 0.06200
C 	C 	0.05227 0.52613 0.42849 0.06300
C 	C 	0.02557 0.51278 0.46564 -0.04800
C 	C 	0.77843 0.88922 0.69462 -0.00000
H 	H 	0.79813 0.89907 0.67207 0.06200
C 	C 	0.71893 0.85947 0.76183 0.06300
C 	C 	0.69223 0.84612 0.79898 -0.04800
C 	C 	0.77745 0.55490 0.02795 0.00000
H 	H 	0.76760 0.53520 0.00540 0.06200
C 	C 	0.80720 0.61440 0.09516 0.06300
C 	C 	0.82055 0.64110 0.13231 -0.04800
C 	C 	0.44412 0.88823 0.36128 0.00000
H 	H 	0.43427 0.86853 0.33873 0.06200
C 	C 	0.47387 0.94773 0.42849 0.06300
C 	C 	0.48722 0.97443 0.46564 -0.04800
C 	C 	0.11078 0.22157 0.69462 -0.00000
H 	H 	0.10093 0.20187 0.67207 0.06200
C 	C 	0.14053 0.28107 0.76183 0.06300
C 	C 	0.15388 0.30777 0.79898 -0.04800
C 	C 	0.77745 0.22255 0.02795 0.00000
H 	H 	0.76760 0.23240 0.00540 0.06200
C 	C 	0.80720 0.19280 0.09516 0.06200
C 	C 	0.82055 0.17945 0.13231 -0.04800
C 	C 	0.44412 0.55588 0.36128 0.00000
H 	H 	0.43427 0.56573 0.33873 0.06200
C 	C 	0.47387 0.52613 0.42849 0.06300
C 	C 	0.48722 0.51278 0.46564 -0.04800
C 	C 	0.11078 0.88922 0.69462 -0.00000
H 	H 	0.10093 0.89907 0.67207 0.06200
C 	C 	0.14053 0.85947 0.76183 0.06300
C 	C 	0.15388 0.84612 0.79898 -0.04800
