data_crystal

_cell_length_a 10.34660
_cell_length_b 18.54150
_cell_length_c 22.70010
_cell_angle_alpha 90.00000
_cell_angle_beta  90.00000
_cell_angle_gamma 90.00000

_symmetry_space_group_name_	'P 1'
_symmetry_space_group_name_H-M	'P 1'

loop_
_symmetry_equiv_pos_as_xyz
  x,y,z

loop_
_atom_site_label
_atom_site_type_symbol
_atom_site_fract_x
_atom_site_fract_y
_atom_site_fract_z
_atom_site_charge
O 	O 	0.93730 0.66020 0.60320 -0.16200
O 	O 	0.13370 0.66680 0.52000 -0.17800
O 	O 	0.07870 0.77330 0.43700 -0.17000
O 	O 	0.86560 0.84920 0.47700 -0.15100
O 	O 	0.78290 0.78480 0.58460 -0.16800
O 	O 	0.38540 0.84300 0.75330 -0.18000
O 	O 	0.08710 0.70390 0.67490 -0.19200
O 	O 	0.88030 0.65430 0.70460 -0.16800
O 	O 	0.34410 0.73140 0.83890 -0.16200
O 	O 	0.23720 0.42970 0.53320 -0.16600
O 	O 	0.23270 0.56830 0.57330 -0.16400
O 	O 	0.04820 0.57610 0.66810 -0.18500
O 	O 	0.98810 0.43200 0.69710 -0.13000
O 	O 	0.08400 0.34010 0.61300 -0.17600
U 	U 	0.95670 0.74398 0.52452 0.07200
U 	U 	0.23963 0.74546 0.74616 0.05300
U 	U 	0.11635 0.47027 0.61637 0.05300
S 	S 	0.98960 0.64857 0.66300 0.65500
S 	S 	0.24050 0.61421 0.52064 0.60700
S 	S 	0.15090 0.72885 0.39517 0.61300
O 	O 	0.43730 0.16020 0.60320 -0.16200
O 	O 	0.63370 0.16680 0.52000 -0.17000
O 	O 	0.57870 0.27330 0.43700 -0.16000
O 	O 	0.36560 0.34920 0.47700 -0.15900
O 	O 	0.28290 0.28480 0.58460 -0.17300
O 	O 	0.88540 0.34300 0.75330 -0.15300
O 	O 	0.58710 0.20390 0.67490 -0.16400
O 	O 	0.38030 0.15430 0.70460 -0.16400
O 	O 	0.84410 0.23140 0.83890 -0.15500
O 	O 	0.73720 0.92970 0.53320 -0.16300
O 	O 	0.73270 0.06830 0.57330 -0.16000
O 	O 	0.54820 0.07610 0.66810 -0.15700
O 	O 	0.48810 0.93200 0.69710 -0.16500
O 	O 	0.58400 0.84010 0.61300 -0.16800
U 	U 	0.45670 0.24398 0.52452 0.06000
U 	U 	0.73963 0.24546 0.74616 0.05800
U 	U 	0.61635 0.97027 0.61637 0.06000
S 	S 	0.48960 0.14857 0.66300 0.59700
S 	S 	0.74050 0.11421 0.52064 0.60400
S 	S 	0.65090 0.22885 0.39517 0.61000
O 	O 	0.06270 0.33980 0.10320 -0.15800
O 	O 	0.86630 0.33320 0.02000 -0.16200
O 	O 	0.92130 0.22670 0.93700 -0.14900
O 	O 	0.13440 0.15080 0.97700 -0.16600
O 	O 	0.21710 0.21520 0.08460 -0.17400
O 	O 	0.61460 0.15700 0.25330 -0.17700
O 	O 	0.91290 0.29610 0.17490 -0.13900
O 	O 	0.11970 0.34570 0.20460 -0.15700
O 	O 	0.65590 0.26860 0.33890 -0.16000
O 	O 	0.76280 0.57030 0.03320 -0.16400
O 	O 	0.76730 0.43170 0.07330 -0.16000
O 	O 	0.95180 0.42390 0.16810 -0.13000
O 	O 	0.01190 0.56800 0.19710 -0.16700
O 	O 	0.91600 0.65990 0.11300 -0.16000
U 	U 	0.04330 0.25602 0.02452 0.04900
U 	U 	0.76037 0.25454 0.24616 0.05800
U 	U 	0.88365 0.52973 0.11637 0.06500
S 	S 	0.01040 0.35143 0.16300 0.53800
S 	S 	0.75950 0.38579 0.02064 0.60500
S 	S 	0.84910 0.27115 0.89517 0.60700
O 	O 	0.56270 0.83980 0.10320 -0.16000
O 	O 	0.36630 0.83320 0.02000 -0.17200
O 	O 	0.42130 0.72670 0.93700 -0.16100
O 	O 	0.63440 0.65080 0.97700 -0.15900
O 	O 	0.71710 0.71520 0.08460 -0.17100
O 	O 	0.11460 0.65700 0.25330 -0.17200
O 	O 	0.41290 0.79610 0.17490 -0.16700
O 	O 	0.61970 0.84570 0.20460 -0.16100
O 	O 	0.15590 0.76860 0.33890 -0.16600
O 	O 	0.26280 0.07030 0.03320 -0.16700
O 	O 	0.26730 0.93170 0.07330 -0.16600
O 	O 	0.45180 0.92390 0.16810 -0.15700
O 	O 	0.51190 0.06800 0.19710 -0.16300
O 	O 	0.41600 0.15990 0.11300 -0.16800
U 	U 	0.54330 0.75602 0.02452 0.06000
U 	U 	0.26037 0.75454 0.24616 0.05200
U 	U 	0.38365 0.02973 0.11637 0.05900
S 	S 	0.51040 0.85143 0.16300 0.59700
S 	S 	0.25950 0.88579 0.02064 0.60700
S 	S 	0.34910 0.77115 0.89517 0.61100
O 	O 	0.06270 0.66020 0.89680 -0.15800
O 	O 	0.86630 0.66680 0.98000 -0.16200
O 	O 	0.92130 0.77330 0.06300 -0.14900
O 	O 	0.13440 0.84920 0.02300 -0.16600
O 	O 	0.21710 0.78480 0.91540 -0.17400
O 	O 	0.61460 0.84300 0.74670 -0.17700
O 	O 	0.91290 0.70390 0.82510 -0.13900
O 	O 	0.11970 0.65430 0.79540 -0.15700
O 	O 	0.65590 0.73140 0.66110 -0.16000
O 	O 	0.76280 0.42970 0.96680 -0.16400
O 	O 	0.76730 0.56830 0.92670 -0.16000
O 	O 	0.95180 0.57610 0.83190 -0.13000
O 	O 	0.01190 0.43200 0.80290 -0.16700
O 	O 	0.91600 0.34010 0.88700 -0.16000
U 	U 	0.04330 0.74398 0.97548 0.04900
U 	U 	0.76037 0.74546 0.75384 0.05800
U 	U 	0.88365 0.47027 0.88363 0.06500
S 	S 	0.01040 0.64857 0.83700 0.53800
S 	S 	0.75950 0.61421 0.97936 0.60500
S 	S 	0.84910 0.72885 0.10483 0.60700
O 	O 	0.56270 0.16020 0.89680 -0.16000
O 	O 	0.36630 0.16680 0.98000 -0.17200
O 	O 	0.42130 0.27330 0.06300 -0.16100
O 	O 	0.63440 0.34920 0.02300 -0.15900
O 	O 	0.71710 0.28480 0.91540 -0.17100
O 	O 	0.11460 0.34300 0.74670 -0.17200
O 	O 	0.41290 0.20390 0.82510 -0.16700
O 	O 	0.61970 0.15430 0.79540 -0.16100
O 	O 	0.15590 0.23140 0.66110 -0.16600
O 	O 	0.26280 0.92970 0.96680 -0.16700
O 	O 	0.26730 0.06830 0.92670 -0.16600
O 	O 	0.45180 0.07610 0.83190 -0.15700
O 	O 	0.51190 0.93200 0.80290 -0.16300
O 	O 	0.41600 0.84010 0.88700 -0.16800
U 	U 	0.54330 0.24398 0.97548 0.06000
U 	U 	0.26037 0.24546 0.75384 0.05200
U 	U 	0.38365 0.97027 0.88363 0.05900
S 	S 	0.51040 0.14857 0.83700 0.59700
S 	S 	0.25950 0.11421 0.97936 0.60700
S 	S 	0.34910 0.22885 0.10483 0.61100
O 	O 	0.93730 0.33980 0.39680 -0.16300
O 	O 	0.13370 0.33320 0.48000 -0.17900
O 	O 	0.07870 0.22670 0.56300 -0.17100
O 	O 	0.86560 0.15080 0.52300 -0.15200
O 	O 	0.78290 0.21520 0.41540 -0.16900
O 	O 	0.38540 0.15700 0.24670 -0.18100
O 	O 	0.08710 0.29610 0.32510 -0.19200
O 	O 	0.88030 0.34570 0.29540 -0.16800
O 	O 	0.34410 0.26860 0.16110 -0.16200
O 	O 	0.23720 0.57030 0.46680 -0.16600
O 	O 	0.23270 0.43170 0.42670 -0.16400
O 	O 	0.04820 0.42390 0.33190 -0.18500
O 	O 	0.98810 0.56800 0.30290 -0.13000
O 	O 	0.08400 0.65990 0.38700 -0.17600
U 	U 	0.95670 0.25602 0.47548 0.07200
U 	U 	0.23963 0.25454 0.25384 0.05300
U 	U 	0.11635 0.52973 0.38363 0.05300
S 	S 	0.98960 0.35143 0.33700 0.65500
S 	S 	0.24050 0.38579 0.47936 0.60700
S 	S 	0.15090 0.27115 0.60483 0.61300
O 	O 	0.43730 0.83980 0.39680 -0.16200
O 	O 	0.63370 0.83320 0.48000 -0.17000
O 	O 	0.57870 0.72670 0.56300 -0.16000
O 	O 	0.36560 0.65080 0.52300 -0.15900
O 	O 	0.28290 0.71520 0.41540 -0.17300
O 	O 	0.88540 0.65700 0.24670 -0.15300
O 	O 	0.58710 0.79610 0.32510 -0.16400
O 	O 	0.38030 0.84570 0.29540 -0.16400
O 	O 	0.84410 0.76860 0.16110 -0.15500
O 	O 	0.73720 0.07030 0.46680 -0.16300
O 	O 	0.73270 0.93170 0.42670 -0.16000
O 	O 	0.54820 0.92390 0.33190 -0.15700
O 	O 	0.48810 0.06800 0.30290 -0.16500
O 	O 	0.58400 0.15990 0.38700 -0.16800
U 	U 	0.45670 0.75602 0.47548 0.06000
U 	U 	0.73963 0.75454 0.25384 0.05800
U 	U 	0.61635 0.02973 0.38363 0.06000
S 	S 	0.48960 0.85143 0.33700 0.59700
S 	S 	0.74050 0.88579 0.47936 0.60400
S 	S 	0.65090 0.77115 0.60483 0.61000
S 	S 	0.50000 0.88699 0.75000 0.63600
S 	S 	-0.00000 0.38699 0.75000 0.57500
S 	S 	0.50000 0.11301 0.25000 0.63600
S 	S 	0.00000 0.61301 0.25000 0.57500
