data_crystal

_cell_length_a 29.52400
_cell_length_b 11.34200
_cell_length_c 23.00700
_cell_angle_alpha 90.00000
_cell_angle_beta  90.00000
_cell_angle_gamma 90.00000

_symmetry_space_group_name_	'P 1'
_symmetry_space_group_name_H-M	'P 1'

loop_
_symmetry_equiv_pos_as_xyz
  x,y,z

loop_
_atom_site_label
_atom_site_type_symbol
_atom_site_fract_x
_atom_site_fract_y
_atom_site_fract_z
_atom_site_charge
Cd	Cd	0.11325 0.55651 0.31050 1.24500
Cd	Cd	0.06162 0.73467 0.90868 1.21700
C 	C 	0.04402 0.53770 0.71760 0.02700
H 	H 	0.02230 0.52850 0.74660 0.02500
C 	C 	0.08295 0.60610 0.72840 -0.09800
C 	C 	0.11621 0.61780 0.68590 -0.01200
H 	H 	0.14170 0.66390 0.69280 0.05200
C 	C 	0.11102 0.55960 0.63250 -0.02600
C 	C 	0.07166 0.49410 0.62230 -0.00600
H 	H 	0.06800 0.45630 0.58680 0.03900
C 	C 	0.03784 0.48420 0.66430 -0.11300
C 	C 	0.14537 0.56610 0.58560 0.05400
C 	C 	0.19148 0.57460 0.59860 -0.11200
H 	H 	0.20020 0.57860 0.63740 0.07700
C 	C 	0.22503 0.57730 0.55580 0.04900
C 	C 	0.27411 0.58440 0.57050 -0.00200
C 	C 	0.35140 0.62580 0.54130 -0.06000
C 	C 	0.30601 0.61450 0.52820 -0.03100
H 	H 	0.29640 0.62720 0.49030 0.06200
C 	C 	0.35200 0.55250 0.70160 0.29800
C 	C 	0.16418 0.56980 0.48370 -0.03600
C 	C 	0.21093 0.57280 0.49720 -0.06700
H 	H 	0.23230 0.57180 0.46750 0.07400
C 	C 	0.13249 0.56510 0.52710 -0.06800
H 	H 	0.10190 0.56130 0.51750 0.05600
C 	C 	0.14964 0.56990 0.42130 0.31800
C 	C 	0.38455 0.66190 0.49460 0.30400
C 	C 	0.08820 0.66600 0.78700 0.35700
C 	C 	0.99581 0.41570 0.65220 0.36300
O 	O 	0.32381 0.54590 0.74203 -0.33700
O 	O 	0.39376 0.54620 0.71041 -0.38000
O 	O 	0.17691 0.55310 0.38148 -0.33600
O 	O 	0.10774 0.58870 0.41046 -0.47700
O 	O 	0.37193 0.65290 0.44283 -0.37900
O 	O 	0.42285 0.69810 0.50845 -0.39800
O 	O 	0.99400 0.35940 0.60484 -0.45200
O 	O 	0.96448 0.41910 0.68914 -0.43600
O 	O 	0.11996 0.73970 0.79324 -0.40800
O 	O 	0.05938 0.64070 0.82444 -0.45000
O 	O 	0.10870 0.35060 0.32110 0.06000
C 	C 	0.28994 0.56400 0.62690 -0.03200
H 	H 	0.26940 0.54390 0.65590 0.05900
C 	C 	0.36678 0.60610 0.59790 -0.00200
H 	H 	0.39730 0.61480 0.60680 0.04600
C 	C 	0.33601 0.57330 0.64060 -0.06000
N 	N 	0.02900 0.30080 0.38100 -0.08200
C 	C 	0.99010 0.21710 0.37650 -0.38500
H 	H 	0.96300 0.25500 0.39020 0.16400
H 	H 	0.99610 0.14860 0.39980 0.14200
H 	H 	0.98610 0.19410 0.33670 0.14000
C 	C 	0.03820 0.36030 0.43660 -0.36700
H 	H 	0.06020 0.31580 0.45820 0.14500
H 	H 	0.01070 0.36600 0.45860 0.14000
H 	H 	0.04980 0.43790 0.42920 0.15600
O 	O 	0.09280 0.37750 0.33900 -0.49400
C 	C 	0.06020 0.31260 0.33130 0.44200
C 	C 	0.05350 0.26870 0.26920 -0.97200
H 	H 	0.04320 0.33270 0.24520 0.32000
H 	H 	0.03130 0.20690 0.26890 0.32000
H 	H 	0.08160 0.23910 0.25430 0.32400
Cd	Cd	0.38675 0.94349 0.31050 1.24600
Cd	Cd	0.43838 0.76533 0.90868 1.21800
C 	C 	0.45598 0.96230 0.71760 0.02600
H 	H 	0.47770 0.97150 0.74660 0.02600
C 	C 	0.41705 0.89390 0.72840 -0.09800
C 	C 	0.38379 0.88220 0.68590 -0.01200
H 	H 	0.35830 0.83610 0.69280 0.05200
C 	C 	0.38898 0.94040 0.63250 -0.02600
C 	C 	0.42834 0.00590 0.62230 -0.00600
H 	H 	0.43200 0.04370 0.58680 0.03900
C 	C 	0.46216 0.01580 0.66430 -0.11200
C 	C 	0.35463 0.93390 0.58560 0.05400
C 	C 	0.30852 0.92540 0.59860 -0.11200
H 	H 	0.29980 0.92140 0.63740 0.07700
C 	C 	0.27497 0.92270 0.55580 0.04900
C 	C 	0.22589 0.91560 0.57050 -0.00200
C 	C 	0.14860 0.87420 0.54130 -0.06000
C 	C 	0.19399 0.88550 0.52820 -0.03100
H 	H 	0.20360 0.87280 0.49030 0.06200
C 	C 	0.14800 0.94750 0.70160 0.29800
C 	C 	0.33582 0.93020 0.48370 -0.03600
C 	C 	0.28907 0.92720 0.49720 -0.06700
H 	H 	0.26770 0.92820 0.46750 0.07400
C 	C 	0.36751 0.93490 0.52710 -0.06800
H 	H 	0.39810 0.93870 0.51750 0.05600
C 	C 	0.35036 0.93010 0.42130 0.31800
C 	C 	0.11545 0.83810 0.49460 0.30400
C 	C 	0.41180 0.83400 0.78700 0.35600
C 	C 	0.50419 0.08430 0.65220 0.36300
O 	O 	0.17619 0.95410 0.74203 -0.33700
O 	O 	0.10624 0.95380 0.71041 -0.38000
O 	O 	0.32309 0.94690 0.38148 -0.33600
O 	O 	0.39226 0.91130 0.41046 -0.47700
O 	O 	0.12807 0.84710 0.44283 -0.37900
O 	O 	0.07715 0.80190 0.50845 -0.39800
O 	O 	0.50600 0.14060 0.60484 -0.45200
O 	O 	0.53552 0.08090 0.68914 -0.43500
O 	O 	0.38004 0.76030 0.79324 -0.40800
O 	O 	0.44062 0.85930 0.82444 -0.45000
O 	O 	0.39130 0.14940 0.32110 0.06000
C 	C 	0.21006 0.93600 0.62690 -0.03200
H 	H 	0.23060 0.95610 0.65590 0.05900
C 	C 	0.13322 0.89390 0.59790 -0.00100
H 	H 	0.10270 0.88520 0.60680 0.04600
C 	C 	0.16399 0.92670 0.64060 -0.06000
N 	N 	0.47100 0.19920 0.38100 -0.08200
C 	C 	0.50990 0.28290 0.37650 -0.38500
H 	H 	0.53700 0.24500 0.39020 0.16300
H 	H 	0.50390 0.35140 0.39980 0.14200
H 	H 	0.51390 0.30590 0.33670 0.14000
C 	C 	0.46180 0.13970 0.43660 -0.36700
H 	H 	0.43980 0.18420 0.45820 0.14500
H 	H 	0.48930 0.13400 0.45860 0.14000
H 	H 	0.45020 0.06210 0.42920 0.15600
O 	O 	0.40720 0.12250 0.33900 -0.49400
C 	C 	0.43980 0.18740 0.33130 0.44200
C 	C 	0.44650 0.23130 0.26920 -0.97100
H 	H 	0.45680 0.16730 0.24520 0.31900
H 	H 	0.46870 0.29310 0.26890 0.31900
H 	H 	0.41840 0.26090 0.25430 0.32400
Cd	Cd	0.88675 0.05651 0.18950 1.24600
Cd	Cd	0.93838 0.23467 0.59132 1.21900
C 	C 	0.95598 0.03770 0.78240 0.02700
H 	H 	0.97770 0.02850 0.75340 0.02600
C 	C 	0.91705 0.10610 0.77160 -0.09700
C 	C 	0.88379 0.11780 0.81410 -0.01300
H 	H 	0.85830 0.16390 0.80720 0.05200
C 	C 	0.88898 0.05960 0.86750 -0.02400
C 	C 	0.92834 0.99410 0.87770 -0.00800
H 	H 	0.93200 0.95630 0.91320 0.03900
C 	C 	0.96216 0.98420 0.83570 -0.11200
C 	C 	0.85463 0.06610 0.91440 0.05300
C 	C 	0.80852 0.07460 0.90140 -0.11200
H 	H 	0.79980 0.07860 0.86260 0.07700
C 	C 	0.77497 0.07730 0.94420 0.05100
C 	C 	0.72589 0.08440 0.92950 -0.00300
C 	C 	0.64860 0.12580 0.95870 -0.06000
C 	C 	0.69399 0.11450 0.97180 -0.02800
H 	H 	0.70360 0.12720 0.00970 0.06000
C 	C 	0.64800 0.05250 0.79840 0.29800
C 	C 	0.83582 0.06980 0.01630 -0.03800
C 	C 	0.78907 0.07280 0.00280 -0.06800
H 	H 	0.76770 0.07180 0.03250 0.07400
C 	C 	0.86751 0.06510 0.97290 -0.06500
H 	H 	0.89810 0.06130 0.98250 0.05600
C 	C 	0.85036 0.06990 0.07870 0.31800
C 	C 	0.61545 0.16190 0.00540 0.30300
C 	C 	0.91180 0.16600 0.71300 0.35600
C 	C 	0.00419 0.91570 0.84780 0.36200
O 	O 	0.67619 0.04590 0.75797 -0.33700
O 	O 	0.60624 0.04620 0.78959 -0.38000
O 	O 	0.82309 0.05310 0.11852 -0.33600
O 	O 	0.89226 0.08870 0.08954 -0.47800
O 	O 	0.62807 0.15290 0.05717 -0.37900
O 	O 	0.57715 0.19810 0.99155 -0.39600
O 	O 	0.00600 0.85940 0.89516 -0.45300
O 	O 	0.03552 0.91910 0.81086 -0.43600
O 	O 	0.88004 0.23970 0.70676 -0.40800
O 	O 	0.94062 0.14070 0.67556 -0.45000
O 	O 	0.89130 0.85060 0.17890 0.06000
C 	C 	0.71006 0.06400 0.87310 -0.03100
H 	H 	0.73060 0.04390 0.84410 0.05900
C 	C 	0.63322 0.10610 0.90210 -0.00100
H 	H 	0.60270 0.11480 0.89320 0.04600
C 	C 	0.66399 0.07330 0.85940 -0.06000
N 	N 	0.97100 0.80080 0.11900 -0.08200
C 	C 	0.00990 0.71710 0.12350 -0.38400
H 	H 	0.03700 0.75500 0.10980 0.16300
H 	H 	0.00390 0.64860 0.10020 0.14200
H 	H 	0.01390 0.69410 0.16330 0.14000
C 	C 	0.96180 0.86030 0.06340 -0.36800
H 	H 	0.93980 0.81580 0.04180 0.14500
H 	H 	0.98930 0.86600 0.04140 0.14000
H 	H 	0.95020 0.93790 0.07080 0.15700
O 	O 	0.90720 0.87750 0.16100 -0.49300
C 	C 	0.93980 0.81260 0.16870 0.44200
C 	C 	0.94650 0.76870 0.23080 -0.97100
H 	H 	0.95680 0.83270 0.25480 0.32000
H 	H 	0.96870 0.70690 0.23110 0.31900
H 	H 	0.91840 0.73910 0.24570 0.32400
Cd	Cd	0.61325 0.44349 0.18950 1.24600
Cd	Cd	0.56162 0.26533 0.59132 1.21900
C 	C 	0.54402 0.46230 0.78240 0.02600
H 	H 	0.52230 0.47150 0.75340 0.02600
C 	C 	0.58295 0.39390 0.77160 -0.09800
C 	C 	0.61621 0.38220 0.81410 -0.01200
H 	H 	0.64170 0.33610 0.80720 0.05200
C 	C 	0.61102 0.44040 0.86750 -0.02600
C 	C 	0.57166 0.50590 0.87770 -0.00600
H 	H 	0.56800 0.54370 0.91320 0.03900
C 	C 	0.53784 0.51580 0.83570 -0.11300
C 	C 	0.64537 0.43390 0.91440 0.05400
C 	C 	0.69148 0.42540 0.90140 -0.11300
H 	H 	0.70020 0.42140 0.86260 0.07700
C 	C 	0.72503 0.42270 0.94420 0.05000
C 	C 	0.77411 0.41560 0.92950 -0.00200
C 	C 	0.85140 0.37420 0.95870 -0.05900
C 	C 	0.80601 0.38550 0.97180 -0.03000
H 	H 	0.79640 0.37280 0.00970 0.06100
C 	C 	0.85200 0.44750 0.79840 0.29800
C 	C 	0.66418 0.43020 0.01630 -0.03600
C 	C 	0.71093 0.42720 0.00280 -0.06800
H 	H 	0.73230 0.42820 0.03250 0.07400
C 	C 	0.63249 0.43490 0.97290 -0.06800
H 	H 	0.60190 0.43870 0.98250 0.05600
C 	C 	0.64964 0.43010 0.07870 0.31800
C 	C 	0.88455 0.33810 0.00540 0.30200
C 	C 	0.58820 0.33400 0.71300 0.35700
C 	C 	0.49581 0.58430 0.84780 0.36300
O 	O 	0.82381 0.45410 0.75797 -0.33700
O 	O 	0.89376 0.45380 0.78959 -0.38000
O 	O 	0.67691 0.44690 0.11852 -0.33600
O 	O 	0.60774 0.41130 0.08954 -0.47700
O 	O 	0.87193 0.34710 0.05717 -0.37900
O 	O 	0.92285 0.30190 0.99155 -0.39600
O 	O 	0.49400 0.64060 0.89516 -0.45300
O 	O 	0.46448 0.58090 0.81086 -0.43600
O 	O 	0.61996 0.26030 0.70676 -0.40800
O 	O 	0.55938 0.35930 0.67556 -0.45000
O 	O 	0.60870 0.64940 0.17890 0.06000
C 	C 	0.78994 0.43600 0.87310 -0.03200
H 	H 	0.76940 0.45610 0.84410 0.05900
C 	C 	0.86678 0.39390 0.90210 -0.00200
H 	H 	0.89730 0.38520 0.89320 0.04700
C 	C 	0.83601 0.42670 0.85940 -0.06000
N 	N 	0.52900 0.69920 0.11900 -0.08200
C 	C 	0.49010 0.78290 0.12350 -0.38500
H 	H 	0.46300 0.74500 0.10980 0.16400
H 	H 	0.49610 0.85140 0.10020 0.14200
H 	H 	0.48610 0.80590 0.16330 0.14000
C 	C 	0.53820 0.63970 0.06340 -0.36700
H 	H 	0.56020 0.68420 0.04180 0.14500
H 	H 	0.51070 0.63400 0.04140 0.14000
H 	H 	0.54980 0.56210 0.07080 0.15600
O 	O 	0.59280 0.62250 0.16100 -0.49400
C 	C 	0.56020 0.68740 0.16870 0.44200
C 	C 	0.55350 0.73130 0.23080 -0.97200
H 	H 	0.54320 0.66730 0.25480 0.32000
H 	H 	0.53130 0.79310 0.23110 0.32000
H 	H 	0.58160 0.76090 0.24570 0.32400
Cd	Cd	0.88675 0.44349 0.68950 1.24600
Cd	Cd	0.93838 0.26533 0.09132 1.21800
C 	C 	0.95598 0.46230 0.28240 0.02700
H 	H 	0.97770 0.47150 0.25340 0.02500
C 	C 	0.91705 0.39390 0.27160 -0.09800
C 	C 	0.88379 0.38220 0.31410 -0.01200
H 	H 	0.85830 0.33610 0.30720 0.05200
C 	C 	0.88898 0.44040 0.36750 -0.02600
C 	C 	0.92834 0.50590 0.37770 -0.00600
H 	H 	0.93200 0.54370 0.41320 0.03900
C 	C 	0.96216 0.51580 0.33570 -0.11300
C 	C 	0.85463 0.43390 0.41440 0.05400
C 	C 	0.80852 0.42540 0.40140 -0.11200
H 	H 	0.79980 0.42140 0.36260 0.07700
C 	C 	0.77497 0.42270 0.44420 0.04900
C 	C 	0.72589 0.41560 0.42950 -0.00200
C 	C 	0.64860 0.37420 0.45870 -0.06000
C 	C 	0.69399 0.38550 0.47180 -0.03100
H 	H 	0.70360 0.37280 0.50970 0.06200
C 	C 	0.64800 0.44750 0.29840 0.29800
C 	C 	0.83582 0.43020 0.51630 -0.03600
C 	C 	0.78907 0.42720 0.50280 -0.06700
H 	H 	0.76770 0.42820 0.53250 0.07400
C 	C 	0.86751 0.43490 0.47290 -0.06800
H 	H 	0.89810 0.43870 0.48250 0.05600
C 	C 	0.85036 0.43010 0.57870 0.31800
C 	C 	0.61545 0.33810 0.50540 0.30400
C 	C 	0.91180 0.33400 0.21300 0.35700
C 	C 	0.00419 0.58430 0.34780 0.36300
O 	O 	0.67619 0.45410 0.25797 -0.33700
O 	O 	0.60624 0.45380 0.28959 -0.38000
O 	O 	0.82309 0.44690 0.61852 -0.33600
O 	O 	0.89226 0.41130 0.58954 -0.47700
O 	O 	0.62807 0.34710 0.55717 -0.37900
O 	O 	0.57715 0.30190 0.49155 -0.39800
O 	O 	0.00600 0.64060 0.39516 -0.45200
O 	O 	0.03552 0.58090 0.31086 -0.43600
O 	O 	0.88004 0.26030 0.20676 -0.40800
O 	O 	0.94062 0.35930 0.17556 -0.45000
O 	O 	0.89130 0.64940 0.67890 0.06000
C 	C 	0.71006 0.43600 0.37310 -0.03200
H 	H 	0.73060 0.45610 0.34410 0.05900
C 	C 	0.63322 0.39390 0.40210 -0.00200
H 	H 	0.60270 0.38520 0.39320 0.04600
C 	C 	0.66399 0.42670 0.35940 -0.06000
N 	N 	0.97100 0.69920 0.61900 -0.08200
C 	C 	0.00990 0.78290 0.62350 -0.38500
H 	H 	0.03700 0.74500 0.60980 0.16400
H 	H 	0.00390 0.85140 0.60020 0.14200
H 	H 	0.01390 0.80590 0.66330 0.14000
C 	C 	0.96180 0.63970 0.56340 -0.36700
H 	H 	0.93980 0.68420 0.54180 0.14500
H 	H 	0.98930 0.63400 0.54140 0.14000
H 	H 	0.95020 0.56210 0.57080 0.15600
O 	O 	0.90720 0.62250 0.66100 -0.49400
C 	C 	0.93980 0.68740 0.66870 0.44200
C 	C 	0.94650 0.73130 0.73080 -0.97200
H 	H 	0.95680 0.66730 0.75480 0.32000
H 	H 	0.96870 0.79310 0.73110 0.32000
H 	H 	0.91840 0.76090 0.74570 0.32400
Cd	Cd	0.61325 0.05651 0.68950 1.24600
Cd	Cd	0.56162 0.23467 0.09132 1.21800
C 	C 	0.54402 0.03770 0.28240 0.02600
H 	H 	0.52230 0.02850 0.25340 0.02600
C 	C 	0.58295 0.10610 0.27160 -0.09800
C 	C 	0.61621 0.11780 0.31410 -0.01200
H 	H 	0.64170 0.16390 0.30720 0.05200
C 	C 	0.61102 0.05960 0.36750 -0.02600
C 	C 	0.57166 0.99410 0.37770 -0.00600
H 	H 	0.56800 0.95630 0.41320 0.03900
C 	C 	0.53784 0.98420 0.33570 -0.11200
C 	C 	0.64537 0.06610 0.41440 0.05400
C 	C 	0.69148 0.07460 0.40140 -0.11200
H 	H 	0.70020 0.07860 0.36260 0.07700
C 	C 	0.72503 0.07730 0.44420 0.04900
C 	C 	0.77411 0.08440 0.42950 -0.00200
C 	C 	0.85140 0.12580 0.45870 -0.06000
C 	C 	0.80601 0.11450 0.47180 -0.03100
H 	H 	0.79640 0.12720 0.50970 0.06200
C 	C 	0.85200 0.05250 0.29840 0.29800
C 	C 	0.66418 0.06980 0.51630 -0.03600
C 	C 	0.71093 0.07280 0.50280 -0.06700
H 	H 	0.73230 0.07180 0.53250 0.07400
C 	C 	0.63249 0.06510 0.47290 -0.06800
H 	H 	0.60190 0.06130 0.48250 0.05600
C 	C 	0.64964 0.06990 0.57870 0.31800
C 	C 	0.88455 0.16190 0.50540 0.30400
C 	C 	0.58820 0.16600 0.21300 0.35600
C 	C 	0.49581 0.91570 0.34780 0.36300
O 	O 	0.82381 0.04590 0.25797 -0.33700
O 	O 	0.89376 0.04620 0.28959 -0.38000
O 	O 	0.67691 0.05310 0.61852 -0.33600
O 	O 	0.60774 0.08870 0.58954 -0.47700
O 	O 	0.87193 0.15290 0.55717 -0.37900
O 	O 	0.92285 0.19810 0.49155 -0.39800
O 	O 	0.49400 0.85940 0.39516 -0.45200
O 	O 	0.46448 0.91910 0.31086 -0.43500
O 	O 	0.61996 0.23970 0.20676 -0.40800
O 	O 	0.55938 0.14070 0.17556 -0.45000
O 	O 	0.60870 0.85060 0.67890 0.06000
C 	C 	0.78994 0.06400 0.37310 -0.03200
H 	H 	0.76940 0.04390 0.34410 0.05900
C 	C 	0.86678 0.10610 0.40210 -0.00100
H 	H 	0.89730 0.11480 0.39320 0.04600
C 	C 	0.83601 0.07330 0.35940 -0.06000
N 	N 	0.52900 0.80080 0.61900 -0.08200
C 	C 	0.49010 0.71710 0.62350 -0.38500
H 	H 	0.46300 0.75500 0.60980 0.16300
H 	H 	0.49610 0.64860 0.60020 0.14200
H 	H 	0.48610 0.69410 0.66330 0.14000
C 	C 	0.53820 0.86030 0.56340 -0.36700
H 	H 	0.56020 0.81580 0.54180 0.14500
H 	H 	0.51070 0.86600 0.54140 0.14000
H 	H 	0.54980 0.93790 0.57080 0.15600
O 	O 	0.59280 0.87750 0.66100 -0.49400
C 	C 	0.56020 0.81260 0.66870 0.44200
C 	C 	0.55350 0.76870 0.73080 -0.97100
H 	H 	0.54320 0.83270 0.75480 0.31900
H 	H 	0.53130 0.70690 0.73110 0.31900
H 	H 	0.58160 0.73910 0.74570 0.32400
Cd	Cd	0.11325 0.94349 0.81050 1.24600
Cd	Cd	0.06162 0.76533 0.40868 1.21900
C 	C 	0.04402 0.96230 0.21760 0.02700
H 	H 	0.02230 0.97150 0.24660 0.02600
C 	C 	0.08295 0.89390 0.22840 -0.09700
C 	C 	0.11621 0.88220 0.18590 -0.01300
H 	H 	0.14170 0.83610 0.19280 0.05200
C 	C 	0.11102 0.94040 0.13250 -0.02400
C 	C 	0.07166 0.00590 0.12230 -0.00800
H 	H 	0.06800 0.04370 0.08680 0.03900
C 	C 	0.03784 0.01580 0.16430 -0.11200
C 	C 	0.14537 0.93390 0.08560 0.05300
C 	C 	0.19148 0.92540 0.09860 -0.11200
H 	H 	0.20020 0.92140 0.13740 0.07700
C 	C 	0.22503 0.92270 0.05580 0.05100
C 	C 	0.27411 0.91560 0.07050 -0.00300
C 	C 	0.35140 0.87420 0.04130 -0.06000
C 	C 	0.30601 0.88550 0.02820 -0.02800
H 	H 	0.29640 0.87280 0.99030 0.06000
C 	C 	0.35200 0.94750 0.20160 0.29800
C 	C 	0.16418 0.93020 0.98370 -0.03800
C 	C 	0.21093 0.92720 0.99720 -0.06800
H 	H 	0.23230 0.92820 0.96750 0.07400
C 	C 	0.13249 0.93490 0.02710 -0.06500
H 	H 	0.10190 0.93870 0.01750 0.05600
C 	C 	0.14964 0.93010 0.92130 0.31800
C 	C 	0.38455 0.83810 0.99460 0.30300
C 	C 	0.08820 0.83400 0.28700 0.35600
C 	C 	0.99581 0.08430 0.15220 0.36200
O 	O 	0.32381 0.95410 0.24203 -0.33700
O 	O 	0.39376 0.95380 0.21041 -0.38000
O 	O 	0.17691 0.94690 0.88148 -0.33600
O 	O 	0.10774 0.91130 0.91046 -0.47800
O 	O 	0.37193 0.84710 0.94283 -0.37900
O 	O 	0.42285 0.80190 0.00845 -0.39600
O 	O 	0.99400 0.14060 0.10484 -0.45300
O 	O 	0.96448 0.08090 0.18914 -0.43600
O 	O 	0.11996 0.76030 0.29324 -0.40800
O 	O 	0.05938 0.85930 0.32444 -0.45000
O 	O 	0.10870 0.14940 0.82110 0.06000
C 	C 	0.28994 0.93600 0.12690 -0.03100
H 	H 	0.26940 0.95610 0.15590 0.05900
C 	C 	0.36678 0.89390 0.09790 -0.00100
H 	H 	0.39730 0.88520 0.10680 0.04600
C 	C 	0.33601 0.92670 0.14060 -0.06000
N 	N 	0.02900 0.19920 0.88100 -0.08200
C 	C 	0.99010 0.28290 0.87650 -0.38400
H 	H 	0.96300 0.24500 0.89020 0.16300
H 	H 	0.99610 0.35140 0.89980 0.14200
H 	H 	0.98610 0.30590 0.83670 0.14000
C 	C 	0.03820 0.13970 0.93660 -0.36800
H 	H 	0.06020 0.18420 0.95820 0.14500
H 	H 	0.01070 0.13400 0.95860 0.14000
H 	H 	0.04980 0.06210 0.92920 0.15700
O 	O 	0.09280 0.12250 0.83900 -0.49300
C 	C 	0.06020 0.18740 0.83130 0.44200
C 	C 	0.05350 0.23130 0.76920 -0.97100
H 	H 	0.04320 0.16730 0.74520 0.32000
H 	H 	0.03130 0.29310 0.76890 0.31900
H 	H 	0.08160 0.26090 0.75430 0.32400
Cd	Cd	0.38675 0.55651 0.81050 1.24600
Cd	Cd	0.43838 0.73467 0.40868 1.21900
C 	C 	0.45598 0.53770 0.21760 0.02600
H 	H 	0.47770 0.52850 0.24660 0.02600
C 	C 	0.41705 0.60610 0.22840 -0.09800
C 	C 	0.38379 0.61780 0.18590 -0.01200
H 	H 	0.35830 0.66390 0.19280 0.05200
C 	C 	0.38898 0.55960 0.13250 -0.02600
C 	C 	0.42834 0.49410 0.12230 -0.00600
H 	H 	0.43200 0.45630 0.08680 0.03900
C 	C 	0.46216 0.48420 0.16430 -0.11300
C 	C 	0.35463 0.56610 0.08560 0.05400
C 	C 	0.30852 0.57460 0.09860 -0.11300
H 	H 	0.29980 0.57860 0.13740 0.07700
C 	C 	0.27497 0.57730 0.05580 0.05000
C 	C 	0.22589 0.58440 0.07050 -0.00200
C 	C 	0.14860 0.62580 0.04130 -0.05900
C 	C 	0.19399 0.61450 0.02820 -0.03000
H 	H 	0.20360 0.62720 0.99030 0.06100
C 	C 	0.14800 0.55250 0.20160 0.29800
C 	C 	0.33582 0.56980 0.98370 -0.03600
C 	C 	0.28907 0.57280 0.99720 -0.06800
H 	H 	0.26770 0.57180 0.96750 0.07400
C 	C 	0.36751 0.56510 0.02710 -0.06800
H 	H 	0.39810 0.56130 0.01750 0.05600
C 	C 	0.35036 0.56990 0.92130 0.31800
C 	C 	0.11545 0.66190 0.99460 0.30200
C 	C 	0.41180 0.66600 0.28700 0.35700
C 	C 	0.50419 0.41570 0.15220 0.36300
O 	O 	0.17619 0.54590 0.24203 -0.33700
O 	O 	0.10624 0.54620 0.21041 -0.38000
O 	O 	0.32309 0.55310 0.88148 -0.33600
O 	O 	0.39226 0.58870 0.91046 -0.47700
O 	O 	0.12807 0.65290 0.94283 -0.37900
O 	O 	0.07715 0.69810 0.00845 -0.39600
O 	O 	0.50600 0.35940 0.10484 -0.45300
O 	O 	0.53552 0.41910 0.18914 -0.43600
O 	O 	0.38004 0.73970 0.29324 -0.40800
O 	O 	0.44062 0.64070 0.32444 -0.45000
O 	O 	0.39130 0.35060 0.82110 0.06000
C 	C 	0.21006 0.56400 0.12690 -0.03200
H 	H 	0.23060 0.54390 0.15590 0.05900
C 	C 	0.13322 0.60610 0.09790 -0.00200
H 	H 	0.10270 0.61480 0.10680 0.04700
C 	C 	0.16399 0.57330 0.14060 -0.06000
N 	N 	0.47100 0.30080 0.88100 -0.08200
C 	C 	0.50990 0.21710 0.87650 -0.38500
H 	H 	0.53700 0.25500 0.89020 0.16400
H 	H 	0.50390 0.14860 0.89980 0.14200
H 	H 	0.51390 0.19410 0.83670 0.14000
C 	C 	0.46180 0.36030 0.93660 -0.36700
H 	H 	0.43980 0.31580 0.95820 0.14500
H 	H 	0.48930 0.36600 0.95860 0.14000
H 	H 	0.45020 0.43790 0.92920 0.15600
O 	O 	0.40720 0.37750 0.83900 -0.49400
C 	C 	0.43980 0.31260 0.83130 0.44200
C 	C 	0.44650 0.26870 0.76920 -0.97200
H 	H 	0.45680 0.33270 0.74520 0.32000
H 	H 	0.46870 0.20690 0.76890 0.32000
H 	H 	0.41840 0.23910 0.75430 0.32400
