data_crystal

_cell_length_a 10.58260
_cell_length_b 12.00750
_cell_length_c 18.14700
_cell_angle_alpha 90.00000
_cell_angle_beta  90.00000
_cell_angle_gamma 110.07400

_symmetry_space_group_name_	'P 1'
_symmetry_space_group_name_H-M	'P 1'

loop_
_symmetry_equiv_pos_as_xyz
  x,y,z

loop_
_atom_site_label
_atom_site_type_symbol
_atom_site_fract_x
_atom_site_fract_y
_atom_site_fract_z
_atom_site_charge
La	La	0.53527 0.64498 0.93143 1.58200
La	La	0.96473 0.85502 0.43143 1.58000
La	La	0.46473 0.35502 0.06857 1.58100
La	La	0.03527 0.14498 0.56857 1.57900
H 	H 	0.68900 0.29300 0.86000 0.08000
H 	H 	0.77130 0.47770 0.80390 0.02900
H 	H 	0.66000 0.43510 0.74280 0.03900
H 	H 	0.85840 0.41790 0.69620 0.04900
H 	H 	0.86990 0.34140 0.76430 0.04700
H 	H 	0.66700 0.27000 0.65600 0.06600
H 	H 	0.68570 0.12420 0.77300 0.05700
H 	H 	0.57510 0.08990 0.71140 0.05000
H 	H 	0.48100 0.22490 0.75590 0.03500
H 	H 	0.49400 0.14680 0.82280 0.03200
H 	H 	0.13400 0.48700 0.93500 0.08400
H 	H 	0.21520 0.63880 0.01950 0.03800
H 	H 	0.12020 0.56200 0.08080 0.04000
H 	H 	0.96900 0.34900 0.04660 0.05300
H 	H 	0.97750 0.30540 0.96580 0.03900
H 	H 	0.81100 0.20700 0.36000 0.08200
H 	H 	0.72870 0.02230 0.30390 0.02800
H 	H 	0.84000 0.06490 0.24280 0.03800
H 	H 	0.64160 0.08210 0.19620 0.04900
H 	H 	0.63010 0.15860 0.26430 0.04700
H 	H 	0.83300 0.23000 0.15600 0.06600
H 	H 	0.81430 0.37580 0.27300 0.05800
H 	H 	0.92490 0.41010 0.21140 0.05300
H 	H 	0.01900 0.27510 0.25590 0.03000
H 	H 	0.00600 0.35320 0.32280 0.02800
H 	H 	0.36600 0.01300 0.43500 0.08400
H 	H 	0.28480 0.86120 0.51950 0.03700
H 	H 	0.37980 0.93800 0.58080 0.04000
H 	H 	0.53100 0.15100 0.54660 0.05300
H 	H 	0.52250 0.19460 0.46580 0.03800
H 	H 	0.31100 0.70700 0.14000 0.08000
H 	H 	0.22870 0.52230 0.19610 0.02900
H 	H 	0.34000 0.56490 0.25720 0.03900
H 	H 	0.14160 0.58210 0.30380 0.04900
H 	H 	0.13010 0.65860 0.23570 0.04700
H 	H 	0.33300 0.73000 0.34400 0.06600
H 	H 	0.31430 0.87580 0.22700 0.05700
H 	H 	0.42490 0.91010 0.28860 0.05000
H 	H 	0.51900 0.77510 0.24410 0.03500
H 	H 	0.50600 0.85320 0.17720 0.03200
H 	H 	0.86600 0.51300 0.06500 0.08400
H 	H 	0.78480 0.36120 0.98050 0.03800
H 	H 	0.87980 0.43800 0.91920 0.04000
H 	H 	0.03100 0.65100 0.95340 0.05300
H 	H 	0.02250 0.69460 0.03420 0.03900
H 	H 	0.18900 0.79300 0.64000 0.08200
H 	H 	0.27130 0.97770 0.69610 0.02800
H 	H 	0.16000 0.93510 0.75720 0.03800
H 	H 	0.35840 0.91790 0.80380 0.04900
H 	H 	0.36990 0.84140 0.73570 0.04700
H 	H 	0.16700 0.77000 0.84400 0.06600
H 	H 	0.18570 0.62420 0.72700 0.05800
H 	H 	0.07510 0.58990 0.78860 0.05300
H 	H 	0.98100 0.72490 0.74410 0.03000
H 	H 	0.99400 0.64680 0.67720 0.02800
H 	H 	0.63400 0.98700 0.56500 0.08400
H 	H 	0.71520 0.13880 0.48050 0.03700
H 	H 	0.62020 0.06200 0.41920 0.04000
H 	H 	0.46900 0.84900 0.45340 0.05300
H 	H 	0.47750 0.80540 0.53420 0.03800
C 	C 	0.54430 0.36460 0.88060 0.39500
C 	C 	0.62760 0.31680 0.82870 -0.17200
C 	C 	0.71620 0.40930 0.77610 -0.03600
C 	C 	0.80700 0.35900 0.73150 -0.09600
C 	C 	0.72490 0.24690 0.69070 -0.10900
C 	C 	0.63250 0.15510 0.74080 -0.09300
C 	C 	0.54470 0.20620 0.78760 -0.03600
C 	C 	0.12010 0.46670 0.98700 -0.16400
C 	C 	0.12810 0.57850 0.02830 -0.05800
C 	C 	0.98280 0.37400 0.99550 -0.05600
C 	C 	0.81890 0.20300 0.64430 0.30900
C 	C 	0.23330 0.42440 0.01180 0.37500
C 	C 	0.95570 0.13540 0.38060 0.40100
C 	C 	0.87240 0.18320 0.32870 -0.17800
C 	C 	0.78380 0.09070 0.27610 -0.03200
C 	C 	0.69300 0.14100 0.23150 -0.09900
C 	C 	0.77510 0.25310 0.19070 -0.10600
C 	C 	0.86750 0.34490 0.24080 -0.10000
C 	C 	0.95530 0.29380 0.28760 -0.02300
C 	C 	0.37990 0.03330 0.48700 -0.16500
C 	C 	0.37190 0.92150 0.52830 -0.05700
C 	C 	0.51720 0.12600 0.49550 -0.05600
C 	C 	0.68110 0.29700 0.14430 0.30800
C 	C 	0.26670 0.07560 0.51180 0.37500
C 	C 	0.45570 0.63540 0.11940 0.39500
C 	C 	0.37240 0.68320 0.17130 -0.17200
C 	C 	0.28380 0.59070 0.22390 -0.03600
C 	C 	0.19300 0.64100 0.26850 -0.09600
C 	C 	0.27510 0.75310 0.30930 -0.10900
C 	C 	0.36750 0.84490 0.25920 -0.09300
C 	C 	0.45530 0.79380 0.21240 -0.03600
C 	C 	0.87990 0.53330 0.01300 -0.16400
C 	C 	0.87190 0.42150 0.97170 -0.05800
C 	C 	0.01720 0.62600 0.00450 -0.05600
C 	C 	0.18110 0.79700 0.35570 0.30900
C 	C 	0.76670 0.57560 0.98820 0.37500
C 	C 	0.04430 0.86460 0.61940 0.40100
C 	C 	0.12760 0.81680 0.67130 -0.17800
C 	C 	0.21620 0.90930 0.72390 -0.03200
C 	C 	0.30700 0.85900 0.76850 -0.09900
C 	C 	0.22490 0.74690 0.80930 -0.10600
C 	C 	0.13250 0.65510 0.75920 -0.10000
C 	C 	0.04470 0.70620 0.71240 -0.02300
C 	C 	0.62010 0.96670 0.51300 -0.16500
C 	C 	0.62810 0.07850 0.47170 -0.05700
C 	C 	0.48280 0.87400 0.50450 -0.05600
C 	C 	0.31890 0.70300 0.85570 0.30800
C 	C 	0.73330 0.92440 0.48820 0.37500
O 	O 	0.53380 0.46270 0.86470 -0.43400
O 	O 	0.34940 0.47920 0.98720 -0.49800
O 	O 	0.83660 0.10870 0.66150 -0.38200
O 	O 	0.87600 0.26340 0.59040 -0.40300
O 	O 	0.49510 0.30340 0.93610 -0.43600
O 	O 	0.21120 0.33890 0.05470 -0.42200
O 	O 	0.96620 0.03730 0.36470 -0.43300
O 	O 	0.15060 0.02080 0.48720 -0.50000
O 	O 	0.66340 0.39130 0.16150 -0.38400
O 	O 	0.62400 0.23660 0.09040 -0.40400
O 	O 	0.00490 0.19660 0.43610 -0.44000
O 	O 	0.28880 0.16110 0.55470 -0.42100
O 	O 	0.46620 0.53730 0.13530 -0.43400
O 	O 	0.65060 0.52080 0.01280 -0.49800
O 	O 	0.16340 0.89130 0.33850 -0.38200
O 	O 	0.12400 0.73660 0.40960 -0.40300
O 	O 	0.50490 0.69660 0.06390 -0.43600
O 	O 	0.78880 0.66110 0.94530 -0.42200
O 	O 	0.03380 0.96270 0.63530 -0.43300
O 	O 	0.84940 0.97920 0.51280 -0.50000
O 	O 	0.33660 0.60870 0.83850 -0.38400
O 	O 	0.37600 0.76340 0.90960 -0.40400
O 	O 	0.99510 0.80340 0.56390 -0.44000
O 	O 	0.71120 0.83890 0.44530 -0.42100
