data_crystal

_cell_length_a 28.13500
_cell_length_b 28.13500
_cell_length_c 19.20000
_cell_angle_alpha 90.00000
_cell_angle_beta  90.00000
_cell_angle_gamma 120.00000

_symmetry_space_group_name_	'P 1'
_symmetry_space_group_name_H-M	'P 1'

loop_
_symmetry_equiv_pos_as_xyz
  x,y,z

loop_
_atom_site_label
_atom_site_type_symbol
_atom_site_fract_x
_atom_site_fract_y
_atom_site_fract_z
_atom_site_charge
I 	I 	0.22853 0.59748 0.42381 -0.60400
Cu	Cu	0.29146 0.68693 0.49809 0.72800
O 	O 	0.21510 0.83650 0.67600 -0.40900
O 	O 	0.29420 0.83420 0.67910 -0.39900
O 	O 	0.95180 0.67700 0.32040 -0.41000
O 	O 	0.94690 0.59440 0.31970 -0.42000
N 	N 	0.24230 0.71600 0.52900 -0.22500
C 	C 	0.25670 0.75300 0.58170 0.06400
H 	H 	0.28840 0.76210 0.60700 0.01400
C 	C 	0.22640 0.77780 0.59950 -0.10300
C 	C 	0.17650 0.76120 0.56380 0.01500
H 	H 	0.15520 0.77710 0.57420 0.04100
C 	C 	0.16080 0.72300 0.51580 -0.04600
C 	C 	0.19460 0.70280 0.49480 0.02200
H 	H 	0.18450 0.67960 0.45640 0.01200
C 	C 	0.24560 0.82020 0.65580 0.36000
C 	C 	0.10900 0.70200 0.47160 0.09000
C 	C 	0.08920 0.73620 0.45220 -0.14000
H 	H 	0.10680 0.77240 0.46760 0.08300
C 	C 	0.04290 0.71670 0.40970 0.06200
H 	H 	0.03050 0.74040 0.39610 0.02600
C 	C 	0.01530 0.66330 0.38770 -0.12200
C 	C 	0.03250 0.62930 0.40820 0.06700
H 	H 	0.01270 0.59260 0.39530 0.02900
C 	C 	0.07960 0.64750 0.44880 -0.14100
H 	H 	0.09160 0.62320 0.46090 0.08800
C 	C 	0.96570 0.64260 0.33840 0.37300
I 	I 	0.40252 0.63105 0.42381 -0.60500
Cu	Cu	0.31307 0.60453 0.49809 0.72700
O 	O 	0.16350 0.37860 0.67600 -0.40900
O 	O 	0.16580 0.46000 0.67910 -0.39900
O 	O 	0.32300 0.27480 0.32040 -0.41000
O 	O 	0.40560 0.35250 0.31970 -0.42000
N 	N 	0.28400 0.52630 0.52900 -0.22500
C 	C 	0.24700 0.50370 0.58170 0.06400
H 	H 	0.23790 0.52630 0.60700 0.01400
C 	C 	0.22220 0.44860 0.59950 -0.10300
C 	C 	0.23880 0.41530 0.56380 0.01500
H 	H 	0.22290 0.37810 0.57420 0.04100
C 	C 	0.27700 0.43780 0.51580 -0.04600
C 	C 	0.29720 0.49180 0.49480 0.02200
H 	H 	0.32040 0.50490 0.45640 0.01200
C 	C 	0.17980 0.42540 0.65580 0.36000
C 	C 	0.29800 0.40700 0.47160 0.09000
C 	C 	0.26380 0.35300 0.45220 -0.13900
H 	H 	0.22760 0.33440 0.46760 0.08300
C 	C 	0.28330 0.32620 0.40970 0.06100
H 	H 	0.25960 0.29010 0.39610 0.02600
C 	C 	0.33670 0.35200 0.38770 -0.12200
C 	C 	0.37070 0.40320 0.40820 0.06700
H 	H 	0.40740 0.42010 0.39530 0.02900
C 	C 	0.35250 0.43210 0.44880 -0.14000
H 	H 	0.37680 0.46840 0.46090 0.08700
C 	C 	0.35740 0.32310 0.33840 0.37200
I 	I 	0.36895 0.77147 0.42381 -0.60500
Cu	Cu	0.39547 0.70854 0.49809 0.72700
O 	O 	0.62140 0.78490 0.67600 -0.40900
O 	O 	0.54000 0.70580 0.67910 -0.39900
O 	O 	0.72520 0.04820 0.32040 -0.41000
O 	O 	0.64750 0.05310 0.31970 -0.42000
N 	N 	0.47370 0.75770 0.52900 -0.22500
C 	C 	0.49630 0.74330 0.58170 0.06400
H 	H 	0.47370 0.71160 0.60700 0.01400
C 	C 	0.55140 0.77360 0.59950 -0.10300
C 	C 	0.58470 0.82350 0.56380 0.01500
H 	H 	0.62190 0.84480 0.57420 0.04100
C 	C 	0.56220 0.83920 0.51580 -0.04600
C 	C 	0.50820 0.80540 0.49480 0.02200
H 	H 	0.49510 0.81550 0.45640 0.01200
C 	C 	0.57460 0.75440 0.65580 0.36000
C 	C 	0.59300 0.89100 0.47160 0.09000
C 	C 	0.64700 0.91080 0.45220 -0.13900
H 	H 	0.66560 0.89320 0.46760 0.08300
C 	C 	0.67380 0.95710 0.40970 0.06200
H 	H 	0.70990 0.96950 0.39610 0.02600
C 	C 	0.64800 0.98470 0.38770 -0.12200
C 	C 	0.59680 0.96750 0.40820 0.06700
H 	H 	0.57990 0.98730 0.39530 0.02900
C 	C 	0.56790 0.92040 0.44880 -0.14000
H 	H 	0.53160 0.90840 0.46090 0.08800
C 	C 	0.67690 0.03430 0.33840 0.37300
I 	I 	0.77147 0.40252 0.92381 -0.60500
Cu	Cu	0.70854 0.31307 0.99809 0.72700
O 	O 	0.78490 0.16350 0.17600 -0.40900
O 	O 	0.70580 0.16580 0.17910 -0.39900
O 	O 	0.04820 0.32300 0.82040 -0.41000
O 	O 	0.05310 0.40560 0.81970 -0.42000
N 	N 	0.75770 0.28400 0.02900 -0.22400
C 	C 	0.74330 0.24700 0.08170 0.06300
H 	H 	0.71160 0.23790 0.10700 0.01400
C 	C 	0.77360 0.22220 0.09950 -0.10200
C 	C 	0.82350 0.23880 0.06380 0.01200
H 	H 	0.84480 0.22290 0.07420 0.04200
C 	C 	0.83920 0.27700 0.01580 -0.04200
C 	C 	0.80540 0.29720 0.99480 0.01800
H 	H 	0.81550 0.32040 0.95640 0.01400
C 	C 	0.75440 0.17980 0.15580 0.36000
C 	C 	0.89100 0.29800 0.97160 0.08700
C 	C 	0.91080 0.26380 0.95220 -0.13800
H 	H 	0.89320 0.22760 0.96760 0.08200
C 	C 	0.95710 0.28330 0.90970 0.06000
H 	H 	0.96950 0.25960 0.89610 0.02600
C 	C 	0.98470 0.33670 0.88770 -0.12200
C 	C 	0.96750 0.37070 0.90820 0.06600
H 	H 	0.98730 0.40740 0.89530 0.02900
C 	C 	0.92040 0.35250 0.94880 -0.13900
H 	H 	0.90840 0.37680 0.96090 0.08700
C 	C 	0.03430 0.35740 0.83840 0.37300
I 	I 	0.59748 0.36895 0.92381 -0.60500
Cu	Cu	0.68693 0.39547 0.99809 0.72700
O 	O 	0.83650 0.62140 0.17600 -0.40900
O 	O 	0.83420 0.54000 0.17910 -0.39900
O 	O 	0.67700 0.72520 0.82040 -0.41000
O 	O 	0.59440 0.64750 0.81970 -0.42000
N 	N 	0.71600 0.47370 0.02900 -0.22500
C 	C 	0.75300 0.49630 0.08170 0.06300
H 	H 	0.76210 0.47370 0.10700 0.01400
C 	C 	0.77780 0.55140 0.09950 -0.10300
C 	C 	0.76120 0.58470 0.06380 0.01400
H 	H 	0.77710 0.62190 0.07420 0.04100
C 	C 	0.72300 0.56220 0.01580 -0.04500
C 	C 	0.70280 0.50820 0.99480 0.02000
H 	H 	0.67960 0.49510 0.95640 0.01300
C 	C 	0.82020 0.57460 0.15580 0.36000
C 	C 	0.70200 0.59300 0.97160 0.08900
C 	C 	0.73620 0.64700 0.95220 -0.13800
H 	H 	0.77240 0.66560 0.96760 0.08300
C 	C 	0.71670 0.67380 0.90970 0.06100
H 	H 	0.74040 0.70990 0.89610 0.02600
C 	C 	0.66330 0.64800 0.88770 -0.12100
C 	C 	0.62930 0.59680 0.90820 0.06600
H 	H 	0.59260 0.57990 0.89530 0.02900
C 	C 	0.64750 0.56790 0.94880 -0.13900
H 	H 	0.62320 0.53160 0.96090 0.08700
C 	C 	0.64260 0.67690 0.83840 0.37200
I 	I 	0.63105 0.22853 0.92381 -0.60500
Cu	Cu	0.60453 0.29146 0.99809 0.72700
O 	O 	0.37860 0.21510 0.17600 -0.40900
O 	O 	0.46000 0.29420 0.17910 -0.39900
O 	O 	0.27480 0.95180 0.82040 -0.41000
O 	O 	0.35250 0.94690 0.81970 -0.42000
N 	N 	0.52630 0.24230 0.02900 -0.22500
C 	C 	0.50370 0.25670 0.08170 0.06300
H 	H 	0.52630 0.28840 0.10700 0.01400
C 	C 	0.44860 0.22640 0.09950 -0.10200
C 	C 	0.41530 0.17650 0.06380 0.01300
H 	H 	0.37810 0.15520 0.07420 0.04100
C 	C 	0.43780 0.16080 0.01580 -0.04400
C 	C 	0.49180 0.19460 0.99480 0.02000
H 	H 	0.50490 0.18450 0.95640 0.01300
C 	C 	0.42540 0.24560 0.15580 0.36000
C 	C 	0.40700 0.10900 0.97160 0.08800
C 	C 	0.35300 0.08920 0.95220 -0.13900
H 	H 	0.33440 0.10680 0.96760 0.08300
C 	C 	0.32620 0.04290 0.90970 0.06100
H 	H 	0.29010 0.03050 0.89610 0.02600
C 	C 	0.35200 0.01530 0.88770 -0.12200
C 	C 	0.40320 0.03250 0.90820 0.06700
H 	H 	0.42010 0.01270 0.89530 0.02900
C 	C 	0.43210 0.07960 0.94880 -0.14000
H 	H 	0.46840 0.09160 0.96090 0.08700
C 	C 	0.32310 0.96570 0.83840 0.37300
I 	I 	0.77147 0.40252 0.57619 -0.60500
Cu	Cu	0.70854 0.31307 0.50191 0.72700
O 	O 	0.78490 0.16350 0.32400 -0.40900
O 	O 	0.70580 0.16580 0.32090 -0.39900
O 	O 	0.04820 0.32300 0.67960 -0.41000
O 	O 	0.05310 0.40560 0.68030 -0.42000
N 	N 	0.75770 0.28400 0.47100 -0.22500
C 	C 	0.74330 0.24700 0.41830 0.06400
H 	H 	0.71160 0.23790 0.39300 0.01400
C 	C 	0.77360 0.22220 0.40050 -0.10300
C 	C 	0.82350 0.23880 0.43620 0.01500
H 	H 	0.84480 0.22290 0.42580 0.04100
C 	C 	0.83920 0.27700 0.48420 -0.04600
C 	C 	0.80540 0.29720 0.50520 0.02200
H 	H 	0.81550 0.32040 0.54360 0.01200
C 	C 	0.75440 0.17980 0.34420 0.36000
C 	C 	0.89100 0.29800 0.52840 0.09000
C 	C 	0.91080 0.26380 0.54780 -0.14000
H 	H 	0.89320 0.22760 0.53240 0.08300
C 	C 	0.95710 0.28330 0.59030 0.06200
H 	H 	0.96950 0.25960 0.60390 0.02600
C 	C 	0.98470 0.33670 0.61230 -0.12200
C 	C 	0.96750 0.37070 0.59180 0.06700
H 	H 	0.98730 0.40740 0.60470 0.02900
C 	C 	0.92040 0.35250 0.55120 -0.14100
H 	H 	0.90840 0.37680 0.53910 0.08800
C 	C 	0.03430 0.35740 0.66160 0.37300
I 	I 	0.59748 0.36895 0.57619 -0.60500
Cu	Cu	0.68693 0.39547 0.50191 0.72700
O 	O 	0.83650 0.62140 0.32400 -0.40900
O 	O 	0.83420 0.54000 0.32090 -0.39900
O 	O 	0.67700 0.72520 0.67960 -0.41000
O 	O 	0.59440 0.64750 0.68030 -0.42000
N 	N 	0.71600 0.47370 0.47100 -0.22500
C 	C 	0.75300 0.49630 0.41830 0.06400
H 	H 	0.76210 0.47370 0.39300 0.01400
C 	C 	0.77780 0.55140 0.40050 -0.10300
C 	C 	0.76120 0.58470 0.43620 0.01500
H 	H 	0.77710 0.62190 0.42580 0.04100
C 	C 	0.72300 0.56220 0.48420 -0.04600
C 	C 	0.70280 0.50820 0.50520 0.02200
H 	H 	0.67960 0.49510 0.54360 0.01200
C 	C 	0.82020 0.57460 0.34420 0.36000
C 	C 	0.70200 0.59300 0.52840 0.09000
C 	C 	0.73620 0.64700 0.54780 -0.13900
H 	H 	0.77240 0.66560 0.53240 0.08300
C 	C 	0.71670 0.67380 0.59030 0.06100
H 	H 	0.74040 0.70990 0.60390 0.02600
C 	C 	0.66330 0.64800 0.61230 -0.12200
C 	C 	0.62930 0.59680 0.59180 0.06700
H 	H 	0.59260 0.57990 0.60470 0.02900
C 	C 	0.64750 0.56790 0.55120 -0.14000
H 	H 	0.62320 0.53160 0.53910 0.08700
C 	C 	0.64260 0.67690 0.66160 0.37200
I 	I 	0.63105 0.22853 0.57619 -0.60500
Cu	Cu	0.60453 0.29146 0.50191 0.72700
O 	O 	0.37860 0.21510 0.32400 -0.40900
O 	O 	0.46000 0.29420 0.32090 -0.39900
O 	O 	0.27480 0.95180 0.67960 -0.41000
O 	O 	0.35250 0.94690 0.68030 -0.42000
N 	N 	0.52630 0.24230 0.47100 -0.22500
C 	C 	0.50370 0.25670 0.41830 0.06400
H 	H 	0.52630 0.28840 0.39300 0.01400
C 	C 	0.44860 0.22640 0.40050 -0.10300
C 	C 	0.41530 0.17650 0.43620 0.01500
H 	H 	0.37810 0.15520 0.42580 0.04100
C 	C 	0.43780 0.16080 0.48420 -0.04600
C 	C 	0.49180 0.19460 0.50520 0.02200
H 	H 	0.50490 0.18450 0.54360 0.01200
C 	C 	0.42540 0.24560 0.34420 0.36000
C 	C 	0.40700 0.10900 0.52840 0.09000
C 	C 	0.35300 0.08920 0.54780 -0.13900
H 	H 	0.33440 0.10680 0.53240 0.08300
C 	C 	0.32620 0.04290 0.59030 0.06200
H 	H 	0.29010 0.03050 0.60390 0.02600
C 	C 	0.35200 0.01530 0.61230 -0.12200
C 	C 	0.40320 0.03250 0.59180 0.06700
H 	H 	0.42010 0.01270 0.60470 0.02900
C 	C 	0.43210 0.07960 0.55120 -0.14000
H 	H 	0.46840 0.09160 0.53910 0.08800
C 	C 	0.32310 0.96570 0.66160 0.37300
I 	I 	0.22853 0.59748 0.07619 -0.60500
Cu	Cu	0.29146 0.68693 0.00191 0.72700
O 	O 	0.21510 0.83650 0.82400 -0.40900
O 	O 	0.29420 0.83420 0.82090 -0.39900
O 	O 	0.95180 0.67700 0.17960 -0.41000
O 	O 	0.94690 0.59440 0.18030 -0.42000
N 	N 	0.24230 0.71600 0.97100 -0.22400
C 	C 	0.25670 0.75300 0.91830 0.06300
H 	H 	0.28840 0.76210 0.89300 0.01400
C 	C 	0.22640 0.77780 0.90050 -0.10200
C 	C 	0.17650 0.76120 0.93620 0.01200
H 	H 	0.15520 0.77710 0.92580 0.04200
C 	C 	0.16080 0.72300 0.98420 -0.04200
C 	C 	0.19460 0.70280 0.00520 0.01800
H 	H 	0.18450 0.67960 0.04360 0.01400
C 	C 	0.24560 0.82020 0.84420 0.36000
C 	C 	0.10900 0.70200 0.02840 0.08700
C 	C 	0.08920 0.73620 0.04780 -0.13800
H 	H 	0.10680 0.77240 0.03240 0.08200
C 	C 	0.04290 0.71670 0.09030 0.06000
H 	H 	0.03050 0.74040 0.10390 0.02600
C 	C 	0.01530 0.66330 0.11230 -0.12200
C 	C 	0.03250 0.62930 0.09180 0.06600
H 	H 	0.01270 0.59260 0.10470 0.02900
C 	C 	0.07960 0.64750 0.05120 -0.13900
H 	H 	0.09160 0.62320 0.03910 0.08700
C 	C 	0.96570 0.64260 0.16160 0.37300
I 	I 	0.40252 0.63105 0.07619 -0.60500
Cu	Cu	0.31307 0.60453 0.00191 0.72700
O 	O 	0.16350 0.37860 0.82400 -0.40900
O 	O 	0.16580 0.46000 0.82090 -0.39900
O 	O 	0.32300 0.27480 0.17960 -0.41000
O 	O 	0.40560 0.35250 0.18030 -0.42000
N 	N 	0.28400 0.52630 0.97100 -0.22500
C 	C 	0.24700 0.50370 0.91830 0.06300
H 	H 	0.23790 0.52630 0.89300 0.01400
C 	C 	0.22220 0.44860 0.90050 -0.10300
C 	C 	0.23880 0.41530 0.93620 0.01400
H 	H 	0.22290 0.37810 0.92580 0.04100
C 	C 	0.27700 0.43780 0.98420 -0.04500
C 	C 	0.29720 0.49180 0.00520 0.02000
H 	H 	0.32040 0.50490 0.04360 0.01300
C 	C 	0.17980 0.42540 0.84420 0.36000
C 	C 	0.29800 0.40700 0.02840 0.08900
C 	C 	0.26380 0.35300 0.04780 -0.13800
H 	H 	0.22760 0.33440 0.03240 0.08300
C 	C 	0.28330 0.32620 0.09030 0.06100
H 	H 	0.25960 0.29010 0.10390 0.02600
C 	C 	0.33670 0.35200 0.11230 -0.12100
C 	C 	0.37070 0.40320 0.09180 0.06600
H 	H 	0.40740 0.42010 0.10470 0.02900
C 	C 	0.35250 0.43210 0.05120 -0.13900
H 	H 	0.37680 0.46840 0.03910 0.08700
C 	C 	0.35740 0.32310 0.16160 0.37200
I 	I 	0.36895 0.77147 0.07619 -0.60500
Cu	Cu	0.39547 0.70854 0.00191 0.72700
O 	O 	0.62140 0.78490 0.82400 -0.40900
O 	O 	0.54000 0.70580 0.82090 -0.39900
O 	O 	0.72520 0.04820 0.17960 -0.41000
O 	O 	0.64750 0.05310 0.18030 -0.42000
N 	N 	0.47370 0.75770 0.97100 -0.22500
C 	C 	0.49630 0.74330 0.91830 0.06300
H 	H 	0.47370 0.71160 0.89300 0.01400
C 	C 	0.55140 0.77360 0.90050 -0.10200
C 	C 	0.58470 0.82350 0.93620 0.01300
H 	H 	0.62190 0.84480 0.92580 0.04100
C 	C 	0.56220 0.83920 0.98420 -0.04400
C 	C 	0.50820 0.80540 0.00520 0.02000
H 	H 	0.49510 0.81550 0.04360 0.01300
C 	C 	0.57460 0.75440 0.84420 0.36000
C 	C 	0.59300 0.89100 0.02840 0.08800
C 	C 	0.64700 0.91080 0.04780 -0.13900
H 	H 	0.66560 0.89320 0.03240 0.08300
C 	C 	0.67380 0.95710 0.09030 0.06100
H 	H 	0.70990 0.96950 0.10390 0.02600
C 	C 	0.64800 0.98470 0.11230 -0.12200
C 	C 	0.59680 0.96750 0.09180 0.06700
H 	H 	0.57990 0.98730 0.10470 0.02900
C 	C 	0.56790 0.92040 0.05120 -0.14000
H 	H 	0.53160 0.90840 0.03910 0.08700
C 	C 	0.67690 0.03430 0.16160 0.37300
I 	I 	0.33333 0.66667 0.61259 -0.55500
Cu	Cu	0.33333 0.66667 0.37955 0.68500
I 	I 	0.66667 0.33333 0.11259 -0.55400
Cu	Cu	0.66667 0.33333 0.87955 0.68500
I 	I 	0.66667 0.33333 0.38741 -0.55500
Cu	Cu	0.66667 0.33333 0.62045 0.68500
I 	I 	0.33333 0.66667 0.88741 -0.55400
Cu	Cu	0.33333 0.66667 0.12045 0.68500
Cu	Cu	0.23797 0.89432 0.75000 0.89900
Cu	Cu	0.32995 0.89004 0.75000 0.91000
Cu	Cu	0.10568 0.34365 0.75000 0.89900
Cu	Cu	0.10996 0.43991 0.75000 0.91000
Cu	Cu	0.65635 0.76203 0.75000 0.89900
Cu	Cu	0.56009 0.67005 0.75000 0.91000
Cu	Cu	0.76203 0.10568 0.25000 0.89900
Cu	Cu	0.67005 0.10996 0.25000 0.91000
Cu	Cu	0.89432 0.65635 0.25000 0.89900
Cu	Cu	0.89004 0.56009 0.25000 0.91000
Cu	Cu	0.34365 0.23797 0.25000 0.89900
Cu	Cu	0.43991 0.32995 0.25000 0.91000
