data_crystal

_cell_length_a 27.53800
_cell_length_b 27.53800
_cell_length_c 20.13900
_cell_angle_alpha 90.00000
_cell_angle_beta  90.00000
_cell_angle_gamma 120.00000

_symmetry_space_group_name_	'P 1'
_symmetry_space_group_name_H-M	'P 1'

loop_
_symmetry_equiv_pos_as_xyz
  x,y,z

loop_
_atom_site_label
_atom_site_type_symbol
_atom_site_fract_x
_atom_site_fract_y
_atom_site_fract_z
_atom_site_charge
I 	I 	0.22672 0.63420 0.54931 -0.56700
Cu	Cu	0.28777 0.60524 0.47476 0.71500
O 	O 	0.21137 0.36887 0.31983 -0.41100
O 	O 	0.29103 0.45132 0.31759 -0.41100
O 	O 	0.95908 0.27229 0.68097 -0.41100
O 	O 	0.95458 0.35125 0.68229 -0.42100
N 	N 	0.23769 0.52387 0.45010 -0.23400
C 	C 	0.25150 0.49810 0.40320 0.07500
H 	H 	0.28360 0.51990 0.37810 0.00700
C 	C 	0.22080 0.44100 0.39000 -0.12100
C 	C 	0.17370 0.40800 0.42750 0.02900
H 	H 	0.15250 0.36960 0.42000 0.03400
C 	C 	0.15850 0.43330 0.47700 -0.06100
C 	C 	0.19170 0.49050 0.48570 0.03700
H 	H 	0.18150 0.50720 0.51880 0.00700
C 	C 	0.24230 0.41780 0.33840 0.37900
C 	C 	0.10790 0.40230 0.52030 0.10500
C 	C 	0.09290 0.34930 0.54200 -0.14700
H 	H 	0.11200 0.33150 0.52710 0.08700
C 	C 	0.04790 0.32230 0.58710 0.06400
H 	H 	0.03710 0.28610 0.60140 0.02500
C 	C 	0.01960 0.34880 0.61080 -0.12500
C 	C 	0.03360 0.40080 0.58580 0.07100
H 	H 	0.01360 0.41820 0.59890 0.02700
C 	C 	0.07760 0.42710 0.54100 -0.15000
H 	H 	0.08680 0.46220 0.52450 0.09100
C 	C 	0.97360 0.32140 0.66240 0.37800
C 	C 	0.39010 0.68640 0.71150 -0.06500
H 	H 	0.41520 0.72410 0.69550 0.04300
H 	H 	0.40380 0.66220 0.69550 0.04100
I 	I 	0.36580 0.59252 0.54931 -0.56600
Cu	Cu	0.39476 0.68253 0.47476 0.71600
O 	O 	0.63113 0.84250 0.31983 -0.41000
O 	O 	0.54868 0.83971 0.31759 -0.41000
O 	O 	0.72771 0.68679 0.68097 -0.41000
O 	O 	0.64875 0.60333 0.68229 -0.42000
N 	N 	0.47613 0.71382 0.45010 -0.23300
C 	C 	0.50190 0.75340 0.40320 0.07600
H 	H 	0.48010 0.76370 0.37810 0.00800
C 	C 	0.55900 0.77980 0.39000 -0.12000
C 	C 	0.59200 0.76570 0.42750 0.03000
H 	H 	0.63040 0.78290 0.42000 0.03500
C 	C 	0.56670 0.72520 0.47700 -0.06100
C 	C 	0.50950 0.70120 0.48570 0.03700
H 	H 	0.49280 0.67430 0.51880 0.00700
C 	C 	0.58220 0.82450 0.33840 0.37900
C 	C 	0.59770 0.70560 0.52030 0.10500
C 	C 	0.65070 0.74360 0.54200 -0.14700
H 	H 	0.66850 0.78050 0.52710 0.08700
C 	C 	0.67770 0.72560 0.58710 0.06400
H 	H 	0.71390 0.75100 0.60140 0.02500
C 	C 	0.65120 0.67080 0.61080 -0.12600
C 	C 	0.59920 0.63280 0.58580 0.07100
H 	H 	0.58180 0.59540 0.59890 0.02700
C 	C 	0.57290 0.65050 0.54100 -0.15000
H 	H 	0.53780 0.62460 0.52450 0.09100
C 	C 	0.67860 0.65220 0.66240 0.37800
C 	C 	0.31360 0.70370 0.71150 -0.06500
H 	H 	0.27590 0.69110 0.69550 0.04300
H 	H 	0.33780 0.74160 0.69550 0.04100
I 	I 	0.40748 0.77328 0.54931 -0.56600
Cu	Cu	0.31747 0.71223 0.47476 0.71600
O 	O 	0.15750 0.78863 0.31983 -0.41000
O 	O 	0.16029 0.70897 0.31759 -0.41000
O 	O 	0.31321 0.04092 0.68097 -0.41000
O 	O 	0.39667 0.04542 0.68229 -0.42000
N 	N 	0.28618 0.76231 0.45010 -0.23300
C 	C 	0.24660 0.74850 0.40320 0.07600
H 	H 	0.23630 0.71640 0.37810 0.00800
C 	C 	0.22020 0.77920 0.39000 -0.12000
C 	C 	0.23430 0.82630 0.42750 0.03000
H 	H 	0.21710 0.84750 0.42000 0.03500
C 	C 	0.27480 0.84150 0.47700 -0.06100
C 	C 	0.29880 0.80830 0.48570 0.03700
H 	H 	0.32570 0.81850 0.51880 0.00700
C 	C 	0.17550 0.75770 0.33840 0.37900
C 	C 	0.29440 0.89210 0.52030 0.10500
C 	C 	0.25640 0.90710 0.54200 -0.14700
H 	H 	0.21950 0.88800 0.52710 0.08700
C 	C 	0.27440 0.95210 0.58710 0.06400
H 	H 	0.24900 0.96290 0.60140 0.02500
C 	C 	0.32920 0.98040 0.61080 -0.12600
C 	C 	0.36720 0.96640 0.58580 0.07100
H 	H 	0.40460 0.98640 0.59890 0.02700
C 	C 	0.34950 0.92240 0.54100 -0.15000
H 	H 	0.37540 0.91320 0.52450 0.09100
C 	C 	0.34780 0.02640 0.66240 0.37800
C 	C 	0.29630 0.60990 0.71150 -0.06500
H 	H 	0.30890 0.58480 0.69550 0.04300
H 	H 	0.25840 0.59620 0.69550 0.04100
I 	I 	0.77328 0.36580 0.04931 -0.56500
Cu	Cu	0.71223 0.39476 0.97476 0.71500
O 	O 	0.78863 0.63113 0.81983 -0.41000
O 	O 	0.70897 0.54868 0.81759 -0.41000
O 	O 	0.04092 0.72771 0.18097 -0.41000
O 	O 	0.04542 0.64875 0.18229 -0.42000
N 	N 	0.76231 0.47613 0.95010 -0.23200
C 	C 	0.74850 0.50190 0.90320 0.07600
H 	H 	0.71640 0.48010 0.87810 0.00800
C 	C 	0.77920 0.55900 0.89000 -0.12000
C 	C 	0.82630 0.59200 0.92750 0.03000
H 	H 	0.84750 0.63040 0.92000 0.03500
C 	C 	0.84150 0.56670 0.97700 -0.06100
C 	C 	0.80830 0.50950 0.98570 0.03600
H 	H 	0.81850 0.49280 0.01880 0.00700
C 	C 	0.75770 0.58220 0.83840 0.37900
C 	C 	0.89210 0.59770 0.02030 0.10500
C 	C 	0.90710 0.65070 0.04200 -0.14700
H 	H 	0.88800 0.66850 0.02710 0.08700
C 	C 	0.95210 0.67770 0.08710 0.06400
H 	H 	0.96290 0.71390 0.10140 0.02500
C 	C 	0.98040 0.65120 0.11080 -0.12500
C 	C 	0.96640 0.59920 0.08580 0.07100
H 	H 	0.98640 0.58180 0.09890 0.02700
C 	C 	0.92240 0.57290 0.04100 -0.15000
H 	H 	0.91320 0.53780 0.02450 0.09100
C 	C 	0.02640 0.67860 0.16240 0.37800
C 	C 	0.60990 0.31360 0.21150 -0.06500
H 	H 	0.58480 0.27590 0.19550 0.04300
H 	H 	0.59620 0.33780 0.19550 0.04100
I 	I 	0.63420 0.40748 0.04931 -0.56500
Cu	Cu	0.60524 0.31747 0.97476 0.71500
O 	O 	0.36887 0.15750 0.81983 -0.41000
O 	O 	0.45132 0.16029 0.81759 -0.41000
O 	O 	0.27229 0.31321 0.18097 -0.41000
O 	O 	0.35125 0.39667 0.18229 -0.42000
N 	N 	0.52387 0.28618 0.95010 -0.23300
C 	C 	0.49810 0.24660 0.90320 0.07600
H 	H 	0.51990 0.23630 0.87810 0.00800
C 	C 	0.44100 0.22020 0.89000 -0.12000
C 	C 	0.40800 0.23430 0.92750 0.03000
H 	H 	0.36960 0.21710 0.92000 0.03500
C 	C 	0.43330 0.27480 0.97700 -0.06100
C 	C 	0.49050 0.29880 0.98570 0.03700
H 	H 	0.50720 0.32570 0.01880 0.00700
C 	C 	0.41780 0.17550 0.83840 0.37900
C 	C 	0.40230 0.29440 0.02030 0.10500
C 	C 	0.34930 0.25640 0.04200 -0.14700
H 	H 	0.33150 0.21950 0.02710 0.08700
C 	C 	0.32230 0.27440 0.08710 0.06400
H 	H 	0.28610 0.24900 0.10140 0.02500
C 	C 	0.34880 0.32920 0.11080 -0.12600
C 	C 	0.40080 0.36720 0.08580 0.07100
H 	H 	0.41820 0.40460 0.09890 0.02700
C 	C 	0.42710 0.34950 0.04100 -0.15100
H 	H 	0.46220 0.37540 0.02450 0.09100
C 	C 	0.32140 0.34780 0.16240 0.37800
C 	C 	0.68640 0.29630 0.21150 -0.06500
H 	H 	0.72410 0.30890 0.19550 0.04300
H 	H 	0.66220 0.25840 0.19550 0.04100
I 	I 	0.59252 0.22672 0.04931 -0.56500
Cu	Cu	0.68253 0.28777 0.97476 0.71500
O 	O 	0.84250 0.21137 0.81983 -0.41000
O 	O 	0.83971 0.29103 0.81759 -0.41000
O 	O 	0.68679 0.95908 0.18097 -0.41000
O 	O 	0.60333 0.95458 0.18229 -0.42000
N 	N 	0.71382 0.23769 0.95010 -0.23200
C 	C 	0.75340 0.25150 0.90320 0.07600
H 	H 	0.76370 0.28360 0.87810 0.00800
C 	C 	0.77980 0.22080 0.89000 -0.12100
C 	C 	0.76570 0.17370 0.92750 0.03000
H 	H 	0.78290 0.15250 0.92000 0.03500
C 	C 	0.72520 0.15850 0.97700 -0.06200
C 	C 	0.70120 0.19170 0.98570 0.03600
H 	H 	0.67430 0.18150 0.01880 0.00800
C 	C 	0.82450 0.24230 0.83840 0.37900
C 	C 	0.70560 0.10790 0.02030 0.10600
C 	C 	0.74360 0.09290 0.04200 -0.14800
H 	H 	0.78050 0.11200 0.02710 0.08800
C 	C 	0.72560 0.04790 0.08710 0.06400
H 	H 	0.75100 0.03710 0.10140 0.02500
C 	C 	0.67080 0.01960 0.11080 -0.12500
C 	C 	0.63280 0.03360 0.08580 0.07100
H 	H 	0.59540 0.01360 0.09890 0.02700
C 	C 	0.65050 0.07760 0.04100 -0.15100
H 	H 	0.62460 0.08680 0.02450 0.09200
C 	C 	0.65220 0.97360 0.16240 0.37800
C 	C 	0.70370 0.39010 0.21150 -0.06500
H 	H 	0.69110 0.41520 0.19550 0.04300
H 	H 	0.74160 0.40380 0.19550 0.04100
I 	I 	0.77328 0.36580 0.45069 -0.56600
Cu	Cu	0.71223 0.39476 0.52524 0.71600
O 	O 	0.78863 0.63113 0.68017 -0.41000
O 	O 	0.70897 0.54868 0.68241 -0.41000
O 	O 	0.04092 0.72771 0.31903 -0.41000
O 	O 	0.04542 0.64875 0.31771 -0.42000
N 	N 	0.76231 0.47613 0.54990 -0.23300
C 	C 	0.74850 0.50190 0.59680 0.07600
H 	H 	0.71640 0.48010 0.62190 0.00800
C 	C 	0.77920 0.55900 0.61000 -0.12000
C 	C 	0.82630 0.59200 0.57250 0.03000
H 	H 	0.84750 0.63040 0.58000 0.03500
C 	C 	0.84150 0.56670 0.52300 -0.06100
C 	C 	0.80830 0.50950 0.51430 0.03700
H 	H 	0.81850 0.49280 0.48120 0.00700
C 	C 	0.75770 0.58220 0.66160 0.37900
C 	C 	0.89210 0.59770 0.47970 0.10500
C 	C 	0.90710 0.65070 0.45800 -0.14700
H 	H 	0.88800 0.66850 0.47290 0.08700
C 	C 	0.95210 0.67770 0.41290 0.06400
H 	H 	0.96290 0.71390 0.39860 0.02500
C 	C 	0.98040 0.65120 0.38920 -0.12500
C 	C 	0.96640 0.59920 0.41420 0.07100
H 	H 	0.98640 0.58180 0.40110 0.02700
C 	C 	0.92240 0.57290 0.45900 -0.15000
H 	H 	0.91320 0.53780 0.47550 0.09100
C 	C 	0.02640 0.67860 0.33760 0.37800
C 	C 	0.60990 0.31360 0.28850 -0.06500
H 	H 	0.58480 0.27590 0.30450 0.04300
H 	H 	0.59620 0.33780 0.30450 0.04100
I 	I 	0.63420 0.40748 0.45069 -0.56600
Cu	Cu	0.60524 0.31747 0.52524 0.71600
O 	O 	0.36887 0.15750 0.68017 -0.41000
O 	O 	0.45132 0.16029 0.68241 -0.41000
O 	O 	0.27229 0.31321 0.31903 -0.41000
O 	O 	0.35125 0.39667 0.31771 -0.42000
N 	N 	0.52387 0.28618 0.54990 -0.23300
C 	C 	0.49810 0.24660 0.59680 0.07600
H 	H 	0.51990 0.23630 0.62190 0.00800
C 	C 	0.44100 0.22020 0.61000 -0.12000
C 	C 	0.40800 0.23430 0.57250 0.03000
H 	H 	0.36960 0.21710 0.58000 0.03500
C 	C 	0.43330 0.27480 0.52300 -0.06100
C 	C 	0.49050 0.29880 0.51430 0.03700
H 	H 	0.50720 0.32570 0.48120 0.00700
C 	C 	0.41780 0.17550 0.66160 0.37900
C 	C 	0.40230 0.29440 0.47970 0.10500
C 	C 	0.34930 0.25640 0.45800 -0.14700
H 	H 	0.33150 0.21950 0.47290 0.08700
C 	C 	0.32230 0.27440 0.41290 0.06400
H 	H 	0.28610 0.24900 0.39860 0.02500
C 	C 	0.34880 0.32920 0.38920 -0.12600
C 	C 	0.40080 0.36720 0.41420 0.07100
H 	H 	0.41820 0.40460 0.40110 0.02700
C 	C 	0.42710 0.34950 0.45900 -0.15000
H 	H 	0.46220 0.37540 0.47550 0.09100
C 	C 	0.32140 0.34780 0.33760 0.37800
C 	C 	0.68640 0.29630 0.28850 -0.06500
H 	H 	0.72410 0.30890 0.30450 0.04300
H 	H 	0.66220 0.25840 0.30450 0.04100
I 	I 	0.59252 0.22672 0.45069 -0.56600
Cu	Cu	0.68253 0.28777 0.52524 0.71600
O 	O 	0.84250 0.21137 0.68017 -0.41000
O 	O 	0.83971 0.29103 0.68241 -0.41000
O 	O 	0.68679 0.95908 0.31903 -0.41000
O 	O 	0.60333 0.95458 0.31771 -0.42000
N 	N 	0.71382 0.23769 0.54990 -0.23300
C 	C 	0.75340 0.25150 0.59680 0.07600
H 	H 	0.76370 0.28360 0.62190 0.00800
C 	C 	0.77980 0.22080 0.61000 -0.12000
C 	C 	0.76570 0.17370 0.57250 0.03000
H 	H 	0.78290 0.15250 0.58000 0.03500
C 	C 	0.72520 0.15850 0.52300 -0.06100
C 	C 	0.70120 0.19170 0.51430 0.03700
H 	H 	0.67430 0.18150 0.48120 0.00700
C 	C 	0.82450 0.24230 0.66160 0.37900
C 	C 	0.70560 0.10790 0.47970 0.10500
C 	C 	0.74360 0.09290 0.45800 -0.14700
H 	H 	0.78050 0.11200 0.47290 0.08700
C 	C 	0.72560 0.04790 0.41290 0.06400
H 	H 	0.75100 0.03710 0.39860 0.02500
C 	C 	0.67080 0.01960 0.38920 -0.12600
C 	C 	0.63280 0.03360 0.41420 0.07100
H 	H 	0.59540 0.01360 0.40110 0.02700
C 	C 	0.65050 0.07760 0.45900 -0.15000
H 	H 	0.62460 0.08680 0.47550 0.09100
C 	C 	0.65220 0.97360 0.33760 0.37800
C 	C 	0.70370 0.39010 0.28850 -0.06500
H 	H 	0.69110 0.41520 0.30450 0.04300
H 	H 	0.74160 0.40380 0.30450 0.04100
I 	I 	0.22672 0.63420 0.95069 -0.56500
Cu	Cu	0.28777 0.60524 0.02524 0.71500
O 	O 	0.21137 0.36887 0.18017 -0.41000
O 	O 	0.29103 0.45132 0.18241 -0.41000
O 	O 	0.95908 0.27229 0.81903 -0.41000
O 	O 	0.95458 0.35125 0.81771 -0.42000
N 	N 	0.23769 0.52387 0.04990 -0.23200
C 	C 	0.25150 0.49810 0.09680 0.07600
H 	H 	0.28360 0.51990 0.12190 0.00800
C 	C 	0.22080 0.44100 0.11000 -0.12000
C 	C 	0.17370 0.40800 0.07250 0.03000
H 	H 	0.15250 0.36960 0.08000 0.03500
C 	C 	0.15850 0.43330 0.02300 -0.06100
C 	C 	0.19170 0.49050 0.01430 0.03600
H 	H 	0.18150 0.50720 0.98120 0.00700
C 	C 	0.24230 0.41780 0.16160 0.37900
C 	C 	0.10790 0.40230 0.97970 0.10500
C 	C 	0.09290 0.34930 0.95800 -0.14700
H 	H 	0.11200 0.33150 0.97290 0.08700
C 	C 	0.04790 0.32230 0.91290 0.06400
H 	H 	0.03710 0.28610 0.89860 0.02500
C 	C 	0.01960 0.34880 0.88920 -0.12500
C 	C 	0.03360 0.40080 0.91420 0.07100
H 	H 	0.01360 0.41820 0.90110 0.02700
C 	C 	0.07760 0.42710 0.95900 -0.15000
H 	H 	0.08680 0.46220 0.97550 0.09100
C 	C 	0.97360 0.32140 0.83760 0.37800
C 	C 	0.39010 0.68640 0.78850 -0.06500
H 	H 	0.41520 0.72410 0.80450 0.04300
H 	H 	0.40380 0.66220 0.80450 0.04100
I 	I 	0.36580 0.59252 0.95069 -0.56500
Cu	Cu	0.39476 0.68253 0.02524 0.71500
O 	O 	0.63113 0.84250 0.18017 -0.41000
O 	O 	0.54868 0.83971 0.18241 -0.41000
O 	O 	0.72771 0.68679 0.81903 -0.41000
O 	O 	0.64875 0.60333 0.81771 -0.42000
N 	N 	0.47613 0.71382 0.04990 -0.23300
C 	C 	0.50190 0.75340 0.09680 0.07600
H 	H 	0.48010 0.76370 0.12190 0.00800
C 	C 	0.55900 0.77980 0.11000 -0.12000
C 	C 	0.59200 0.76570 0.07250 0.03000
H 	H 	0.63040 0.78290 0.08000 0.03500
C 	C 	0.56670 0.72520 0.02300 -0.06100
C 	C 	0.50950 0.70120 0.01430 0.03700
H 	H 	0.49280 0.67430 0.98120 0.00700
C 	C 	0.58220 0.82450 0.16160 0.37900
C 	C 	0.59770 0.70560 0.97970 0.10500
C 	C 	0.65070 0.74360 0.95800 -0.14700
H 	H 	0.66850 0.78050 0.97290 0.08700
C 	C 	0.67770 0.72560 0.91290 0.06400
H 	H 	0.71390 0.75100 0.89860 0.02500
C 	C 	0.65120 0.67080 0.88920 -0.12600
C 	C 	0.59920 0.63280 0.91420 0.07100
H 	H 	0.58180 0.59540 0.90110 0.02700
C 	C 	0.57290 0.65050 0.95900 -0.15100
H 	H 	0.53780 0.62460 0.97550 0.09100
C 	C 	0.67860 0.65220 0.83760 0.37800
C 	C 	0.31360 0.70370 0.78850 -0.06500
H 	H 	0.27590 0.69110 0.80450 0.04300
H 	H 	0.33780 0.74160 0.80450 0.04100
I 	I 	0.40748 0.77328 0.95069 -0.56500
Cu	Cu	0.31747 0.71223 0.02524 0.71500
O 	O 	0.15750 0.78863 0.18017 -0.41000
O 	O 	0.16029 0.70897 0.18241 -0.41000
O 	O 	0.31321 0.04092 0.81903 -0.41000
O 	O 	0.39667 0.04542 0.81771 -0.42000
N 	N 	0.28618 0.76231 0.04990 -0.23200
C 	C 	0.24660 0.74850 0.09680 0.07600
H 	H 	0.23630 0.71640 0.12190 0.00800
C 	C 	0.22020 0.77920 0.11000 -0.12100
C 	C 	0.23430 0.82630 0.07250 0.03000
H 	H 	0.21710 0.84750 0.08000 0.03500
C 	C 	0.27480 0.84150 0.02300 -0.06200
C 	C 	0.29880 0.80830 0.01430 0.03600
H 	H 	0.32570 0.81850 0.98120 0.00800
C 	C 	0.17550 0.75770 0.16160 0.37900
C 	C 	0.29440 0.89210 0.97970 0.10600
C 	C 	0.25640 0.90710 0.95800 -0.14800
H 	H 	0.21950 0.88800 0.97290 0.08800
C 	C 	0.27440 0.95210 0.91290 0.06400
H 	H 	0.24900 0.96290 0.89860 0.02500
C 	C 	0.32920 0.98040 0.88920 -0.12500
C 	C 	0.36720 0.96640 0.91420 0.07100
H 	H 	0.40460 0.98640 0.90110 0.02700
C 	C 	0.34950 0.92240 0.95900 -0.15100
H 	H 	0.37540 0.91320 0.97550 0.09200
C 	C 	0.34780 0.02640 0.83760 0.37800
C 	C 	0.29630 0.60990 0.78850 -0.06500
H 	H 	0.30890 0.58480 0.80450 0.04300
H 	H 	0.25840 0.59620 0.80450 0.04100
I 	I 	0.33333 0.66667 0.36496 -0.55900
Cu	Cu	0.33333 0.66667 0.58258 0.71500
N 	N 	0.33333 0.66667 0.68540 -0.17500
I 	I 	0.66667 0.33333 0.86496 -0.55900
Cu	Cu	0.66667 0.33333 0.08258 0.71500
N 	N 	0.66667 0.33333 0.18540 -0.17500
I 	I 	0.66667 0.33333 0.63504 -0.55900
Cu	Cu	0.66667 0.33333 0.41742 0.71500
N 	N 	0.66667 0.33333 0.31460 -0.17500
I 	I 	0.33333 0.66667 0.13504 -0.55900
Cu	Cu	0.33333 0.66667 0.91742 0.71500
N 	N 	0.33333 0.66667 0.81460 -0.17500
Cu	Cu	0.23443 0.33287 0.25000 0.90000
Cu	Cu	0.32881 0.43117 0.25000 0.91000
Cu	Cu	0.66713 0.90156 0.25000 0.90000
Cu	Cu	0.56883 0.89764 0.25000 0.91000
Cu	Cu	0.09844 0.76557 0.25000 0.90000
Cu	Cu	0.10236 0.67119 0.25000 0.91000
Cu	Cu	0.76557 0.66713 0.75000 0.90000
Cu	Cu	0.67119 0.56883 0.75000 0.91000
Cu	Cu	0.33287 0.09844 0.75000 0.90000
Cu	Cu	0.43117 0.10236 0.75000 0.91000
Cu	Cu	0.90156 0.23443 0.75000 0.90000
Cu	Cu	0.89764 0.32881 0.75000 0.91000
