data_crystal

_cell_length_a 19.20900
_cell_length_b 19.20900
_cell_length_c 10.99100
_cell_angle_alpha 90.00000
_cell_angle_beta  90.00000
_cell_angle_gamma 90.00000

_symmetry_space_group_name_	'P 1'
_symmetry_space_group_name_H-M	'P 1'

loop_
_symmetry_equiv_pos_as_xyz
  x,y,z

loop_
_atom_site_label
_atom_site_type_symbol
_atom_site_fract_x
_atom_site_fract_y
_atom_site_fract_z
_atom_site_charge
O 	O 	0.03581 0.56636 0.14944 -0.41200
O 	O 	0.98347 0.61855 0.99230 -0.40200
C 	C 	0.07923 0.69078 0.24120 0.09100
H 	H 	0.09410 0.64900 0.27520 0.00700
C 	C 	0.03399 0.68817 0.14380 -0.14100
C 	C 	0.01547 0.61866 0.09120 0.38500
O 	O 	0.46419 0.93364 0.14944 -0.41300
O 	O 	0.51653 0.88145 0.99230 -0.40300
C 	C 	0.42077 0.80922 0.24120 0.08900
H 	H 	0.40590 0.85100 0.27520 0.00700
C 	C 	0.46601 0.81183 0.14380 -0.14000
C 	C 	0.48453 0.88134 0.09120 0.38400
O 	O 	0.93364 0.03581 0.14944 -0.41300
O 	O 	0.88145 0.98347 0.99230 -0.40400
C 	C 	0.80922 0.07923 0.24120 0.09000
H 	H 	0.85100 0.09410 0.27520 0.00600
C 	C 	0.81183 0.03399 0.14380 -0.14100
C 	C 	0.88134 0.01547 0.09120 0.38500
O 	O 	0.56636 0.46419 0.14944 -0.41300
O 	O 	0.61855 0.51653 0.99230 -0.40300
C 	C 	0.69078 0.42077 0.24120 0.08900
H 	H 	0.64900 0.40590 0.27520 0.00700
C 	C 	0.68817 0.46601 0.14380 -0.14000
C 	C 	0.61866 0.48453 0.09120 0.38400
O 	O 	0.96419 0.06636 0.85056 -0.41300
O 	O 	0.01653 0.11855 0.00770 -0.40400
C 	C 	0.92077 0.19078 0.75880 0.09000
H 	H 	0.90590 0.14900 0.72480 0.00600
C 	C 	0.96601 0.18817 0.85620 -0.14100
C 	C 	0.98453 0.11866 0.90880 0.38500
O 	O 	0.53581 0.43364 0.85056 -0.41300
O 	O 	0.48347 0.38145 0.00770 -0.40300
C 	C 	0.57923 0.30922 0.75880 0.08900
H 	H 	0.59410 0.35100 0.72480 0.00700
C 	C 	0.53399 0.31183 0.85620 -0.14000
C 	C 	0.51547 0.38134 0.90880 0.38400
O 	O 	0.06636 0.53581 0.85056 -0.41300
O 	O 	0.11855 0.48347 0.00770 -0.40300
C 	C 	0.19078 0.57923 0.75880 0.08900
H 	H 	0.14900 0.59410 0.72480 0.00700
C 	C 	0.18817 0.53399 0.85620 -0.14000
C 	C 	0.11866 0.51547 0.90880 0.38400
O 	O 	0.43364 0.96419 0.85056 -0.41300
O 	O 	0.38145 0.01653 0.00770 -0.40300
C 	C 	0.30922 0.92077 0.75880 0.09000
H 	H 	0.35100 0.90590 0.72480 0.00600
C 	C 	0.31183 0.96601 0.85620 -0.14100
C 	C 	0.38134 0.98453 0.90880 0.38500
O 	O 	0.96419 0.43364 0.85056 -0.41300
O 	O 	0.01653 0.38145 0.00770 -0.40300
C 	C 	0.92077 0.30922 0.75880 0.09000
H 	H 	0.90590 0.35100 0.72480 0.00600
C 	C 	0.96601 0.31183 0.85620 -0.14100
C 	C 	0.98453 0.38134 0.90880 0.38500
O 	O 	0.53581 0.06636 0.85056 -0.41300
O 	O 	0.48347 0.11855 0.00770 -0.40300
C 	C 	0.57923 0.19078 0.75880 0.08900
H 	H 	0.59410 0.14900 0.72480 0.00700
C 	C 	0.53399 0.18817 0.85620 -0.14000
C 	C 	0.51547 0.11866 0.90880 0.38400
O 	O 	0.06636 0.96419 0.85056 -0.41300
O 	O 	0.11855 0.01653 0.00770 -0.40400
C 	C 	0.19078 0.92077 0.75880 0.09000
H 	H 	0.14900 0.90590 0.72480 0.00600
C 	C 	0.18817 0.96601 0.85620 -0.14100
C 	C 	0.11866 0.98453 0.90880 0.38500
O 	O 	0.43364 0.53581 0.85056 -0.41300
O 	O 	0.38145 0.48347 0.00770 -0.40300
C 	C 	0.30922 0.57923 0.75880 0.08900
H 	H 	0.35100 0.59410 0.72480 0.00700
C 	C 	0.31183 0.53399 0.85620 -0.14000
C 	C 	0.38134 0.51547 0.90880 0.38400
O 	O 	0.03581 0.93364 0.14944 -0.41300
O 	O 	0.98347 0.88145 0.99230 -0.40400
C 	C 	0.07923 0.80922 0.24120 0.09000
H 	H 	0.09410 0.85100 0.27520 0.00600
C 	C 	0.03399 0.81183 0.14380 -0.14100
C 	C 	0.01547 0.88134 0.09120 0.38500
O 	O 	0.46419 0.56636 0.14944 -0.41300
O 	O 	0.51653 0.61855 0.99230 -0.40300
C 	C 	0.42077 0.69078 0.24120 0.08900
H 	H 	0.40590 0.64900 0.27520 0.00700
C 	C 	0.46601 0.68817 0.14380 -0.14000
C 	C 	0.48453 0.61866 0.09120 0.38400
O 	O 	0.93364 0.46419 0.14944 -0.41300
O 	O 	0.88145 0.51653 0.99230 -0.40300
C 	C 	0.80922 0.42077 0.24120 0.08900
H 	H 	0.85100 0.40590 0.27520 0.00700
C 	C 	0.81183 0.46601 0.14380 -0.14000
C 	C 	0.88134 0.48453 0.09120 0.38400
O 	O 	0.56636 0.03581 0.14944 -0.41300
O 	O 	0.61855 0.98347 0.99230 -0.40300
C 	C 	0.69078 0.07923 0.24120 0.09000
H 	H 	0.64900 0.09410 0.27520 0.00600
C 	C 	0.68817 0.03399 0.14380 -0.14100
C 	C 	0.61866 0.01547 0.09120 0.38500
I 	I 	0.12918 0.75000 0.63633 -0.55800
Cu	Cu	0.18123 0.75000 0.41381 0.71800
N 	N 	0.10280 0.75000 0.28930 -0.24200
C 	C 	0.01170 0.75000 0.09340 0.09100
H 	H 	0.98220 0.75000 0.02640 0.03500
I 	I 	0.37082 0.75000 0.63633 -0.55800
Cu	Cu	0.31877 0.75000 0.41381 0.71800
N 	N 	0.39720 0.75000 0.28930 -0.24200
C 	C 	0.48830 0.75000 0.09340 0.08800
H 	H 	0.51780 0.75000 0.02640 0.03600
I 	I 	0.75000 0.12918 0.63633 -0.55800
Cu	Cu	0.75000 0.18123 0.41381 0.71800
N 	N 	0.75000 0.10280 0.28930 -0.24200
C 	C 	0.75000 0.01170 0.09340 0.09100
H 	H 	0.75000 0.98220 0.02640 0.03500
I 	I 	0.75000 0.37082 0.63633 -0.55800
Cu	Cu	0.75000 0.31877 0.41381 0.71800
N 	N 	0.75000 0.39720 0.28930 -0.24200
C 	C 	0.75000 0.48830 0.09340 0.08800
H 	H 	0.75000 0.51780 0.02640 0.03600
I 	I 	0.87082 0.25000 0.36367 -0.55800
Cu	Cu	0.81877 0.25000 0.58619 0.71800
N 	N 	0.89720 0.25000 0.71070 -0.24200
C 	C 	0.98830 0.25000 0.90660 0.09100
H 	H 	0.01780 0.25000 0.97360 0.03500
I 	I 	0.62918 0.25000 0.36367 -0.55800
Cu	Cu	0.68123 0.25000 0.58619 0.71800
N 	N 	0.60280 0.25000 0.71070 -0.24200
C 	C 	0.51170 0.25000 0.90660 0.08800
H 	H 	0.48220 0.25000 0.97360 0.03600
I 	I 	0.25000 0.62918 0.36367 -0.55800
Cu	Cu	0.25000 0.68123 0.58619 0.71800
N 	N 	0.25000 0.60280 0.71070 -0.24200
C 	C 	0.25000 0.51170 0.90660 0.08800
H 	H 	0.25000 0.48220 0.97360 0.03600
I 	I 	0.25000 0.87082 0.36367 -0.55800
Cu	Cu	0.25000 0.81877 0.58619 0.71800
N 	N 	0.25000 0.89720 0.71070 -0.24200
C 	C 	0.25000 0.98830 0.90660 0.09100
H 	H 	0.25000 0.01780 0.97360 0.03500
Cu	Cu	0.03068 0.46932 0.09488 0.90900
Cu	Cu	0.46932 0.03068 0.09488 0.90900
Cu	Cu	0.03068 0.03068 0.09488 0.90900
Cu	Cu	0.46932 0.46932 0.09488 0.90900
Cu	Cu	0.96932 0.96932 0.90512 0.90900
Cu	Cu	0.53068 0.53068 0.90512 0.90900
Cu	Cu	0.96932 0.53068 0.90512 0.90900
Cu	Cu	0.53068 0.96932 0.90512 0.90900
