data_crystal

_cell_length_a 15.11730
_cell_length_b 16.74830
_cell_length_c 16.91010
_cell_angle_alpha 110.56600
_cell_angle_beta  90.03000
_cell_angle_gamma 100.93300

_symmetry_space_group_name_	'P 1'
_symmetry_space_group_name_H-M	'P 1'

loop_
_symmetry_equiv_pos_as_xyz
  x,y,z

loop_
_atom_site_label
_atom_site_type_symbol
_atom_site_fract_x
_atom_site_fract_y
_atom_site_fract_z
_atom_site_charge
Tb	Tb	0.56199 0.12357 0.52812 2.07900
Tb	Tb	0.52200 0.36574 0.64743 2.03900
Tb	Tb	0.45351 0.47118 0.88233 2.07300
O 	O 	0.54340 0.78290 0.46440 -0.56000
O 	O 	0.62600 0.67980 0.42590 -0.43700
O 	O 	0.31090 0.93300 0.54000 -0.42700
O 	O 	0.42130 0.03610 0.53220 -0.58700
O 	O 	0.43360 0.33600 0.75280 -0.61400
O 	O 	0.30980 0.36770 0.81300 -0.40300
O 	O 	0.63300 0.22780 0.47370 -0.49500
O 	O 	0.58970 0.35490 0.52590 -0.52300
O 	O 	0.52260 0.50860 0.34410 -0.52400
O 	O 	0.58950 0.48200 0.22240 -0.51500
O 	O 	0.49050 0.93840 0.61640 -0.48800
O 	O 	0.56110 0.07670 0.64210 -0.51500
O 	O 	0.67570 0.44670 0.69130 -0.43100
O 	O 	0.58020 0.47380 0.79110 -0.56100
O 	O 	0.32780 0.53800 0.94130 -0.42500
O 	O 	0.42260 0.53470 0.03890 -0.59300
O 	O 	0.41230 0.74370 0.33640 -0.59600
O 	O 	0.29320 0.80380 0.37330 -0.38200
O 	O 	0.42380 0.34680 0.92720 -0.50000
O 	O 	0.48200 0.37990 0.06040 -0.51100
N 	N 	0.01310 0.01550 0.62050 -0.22100
H 	H 	0.03400 0.96990 0.58860 0.13000
N 	N 	0.91790 0.09960 0.68600 -0.08600
N 	N 	0.00340 0.14610 0.70290 -0.08600
N 	N 	0.59890 0.16690 0.07430 -0.21900
H 	H 	0.57980 0.20860 0.06310 0.12900
N 	N 	0.64090 0.04470 0.05910 -0.08700
N 	N 	0.64900 0.09370 0.14410 -0.09500
N 	N 	0.03100 0.62270 0.02250 -0.22400
H 	H 	0.05180 0.58650 0.97850 0.12900
N 	N 	0.01850 0.71160 0.14970 -0.08600
N 	N 	0.93840 0.69690 0.10380 -0.08600
C 	C 	0.62040 0.75640 0.46910 0.37400
C 	C 	0.69830 0.81970 0.51960 -0.13600
C 	C 	0.78650 0.80520 0.50470 0.04600
H 	H 	0.79490 0.75040 0.46670 0.03600
C 	C 	0.86050 0.86890 0.54410 -0.09600
H 	H 	0.91960 0.85800 0.53330 0.07000
C 	C 	0.84920 0.94880 0.59950 0.03200
C 	C 	0.76360 0.96420 0.61960 -0.10000
H 	H 	0.75600 0.01820 0.66000 0.08000
C 	C 	0.68860 0.89880 0.57930 0.05800
H 	H 	0.62970 0.90870 0.59300 0.01300
C 	C 	0.92610 0.02140 0.63540 0.11500
C 	C 	0.05960 0.09450 0.66510 0.15000
C 	C 	0.16000 0.12140 0.66680 -0.07000
C 	C 	0.20640 0.05880 0.61730 0.05000
H 	H 	0.17400 0.00240 0.58390 0.03200
C 	C 	0.29860 0.07860 0.61680 -0.15300
C 	C 	0.34630 0.01160 0.56010 0.41600
C 	C 	0.34760 0.16170 0.66460 0.09900
H 	H 	0.41160 0.17530 0.66500 -0.02400
C 	C 	0.29880 0.22560 0.71290 -0.15100
C 	C 	0.35090 0.31510 0.76210 0.41800
C 	C 	0.20680 0.20520 0.71380 0.04800
H 	H 	0.17500 0.24810 0.74620 0.04700
C 	C 	0.61090 0.29310 0.46550 0.48900
C 	C 	0.61090 0.30200 0.38080 -0.18000
C 	C 	0.62250 0.23180 0.30840 0.06800
H 	H 	0.63410 0.17990 0.31330 0.03300
C 	C 	0.61650 0.23960 0.22930 -0.08900
C 	C 	0.62410 0.16610 0.15110 0.15400
C 	C 	0.60080 0.31620 0.22260 0.07500
H 	H 	0.59990 0.32190 0.16870 0.02000
C 	C 	0.58630 0.38440 0.29360 -0.18100
C 	C 	0.56350 0.46430 0.28640 0.50000
C 	C 	0.59070 0.37540 0.37310 0.11800
H 	H 	0.57940 0.42090 0.42210 0.01900
C 	C 	0.60990 0.08910 0.01880 0.11400
C 	C 	0.58910 0.06680 0.92830 0.04200
C 	C 	0.57860 0.98260 0.87110 -0.10600
H 	H 	0.58710 0.93740 0.89030 0.08100
C 	C 	0.55610 0.96320 0.78660 0.07800
H 	H 	0.54350 0.90430 0.74890 0.01600
C 	C 	0.55170 0.02970 0.75590 -0.17300
C 	C 	0.53230 0.01380 0.66480 0.48100
C 	C 	0.56440 0.11360 0.81300 0.08100
H 	H 	0.56230 0.15990 0.79330 0.01600
C 	C 	0.58000 0.13190 0.89840 -0.11000
H 	H 	0.58450 0.18980 0.93710 0.07100
C 	C 	0.66190 0.48370 0.76620 0.37900
C 	C 	0.74080 0.53480 0.83120 -0.11400
C 	C 	0.82740 0.52160 0.81250 0.02900
H 	H 	0.83910 0.48790 0.75680 0.04200
C 	C 	0.89640 0.55810 0.87620 -0.07900
H 	H 	0.95580 0.54880 0.86400 0.06400
C 	C 	0.87980 0.60870 0.95820 0.01600
C 	C 	0.79300 0.62580 0.97510 -0.08400
H 	H 	0.78190 0.66270 0.02970 0.07800
C 	C 	0.72310 0.58830 0.91130 0.04200
H 	H 	0.66410 0.59910 0.92230 0.01900
C 	C 	0.95220 0.64290 0.02680 0.12900
C 	C 	0.07550 0.66940 0.10050 0.14500
C 	C 	0.16680 0.66730 0.12510 -0.07100
C 	C 	0.21690 0.61930 0.06390 0.04600
H 	H 	0.19080 0.58760 0.00790 0.03200
C 	C 	0.30580 0.61810 0.08540 -0.16300
C 	C 	0.35260 0.56050 0.01820 0.40400
C 	C 	0.34440 0.66370 0.16620 0.10400
H 	H 	0.40560 0.66410 0.17950 -0.02700
C 	C 	0.29300 0.71010 0.22940 -0.15300
C 	C 	0.33360 0.75630 0.31730 0.39400
C 	C 	0.20480 0.71300 0.20750 0.04200
H 	H 	0.17070 0.74620 0.24900 0.04800
C 	C 	0.44820 0.32720 0.98700 0.54100
H 	H 	0.44110 0.26680 0.97720 -0.13200
Tb	Tb	0.43801 0.87643 0.47188 2.07800
Tb	Tb	0.47800 0.63426 0.35257 2.03800
Tb	Tb	0.54649 0.52882 0.11767 2.07200
O 	O 	0.45660 0.21710 0.53560 -0.56100
O 	O 	0.37400 0.32020 0.57410 -0.43800
O 	O 	0.68910 0.06700 0.46000 -0.42800
O 	O 	0.57870 0.96390 0.46780 -0.58800
O 	O 	0.56640 0.66400 0.24720 -0.61500
O 	O 	0.69020 0.63230 0.18700 -0.40300
O 	O 	0.36700 0.77220 0.52630 -0.49500
O 	O 	0.41030 0.64510 0.47410 -0.52300
O 	O 	0.47740 0.49140 0.65590 -0.52400
O 	O 	0.41050 0.51800 0.77760 -0.51500
O 	O 	0.50950 0.06160 0.38360 -0.48800
O 	O 	0.43890 0.92330 0.35790 -0.51500
O 	O 	0.32430 0.55330 0.30870 -0.43100
O 	O 	0.41980 0.52620 0.20890 -0.56100
O 	O 	0.67220 0.46200 0.05870 -0.42500
O 	O 	0.57740 0.46530 0.96110 -0.59300
O 	O 	0.58770 0.25630 0.66360 -0.59600
O 	O 	0.70680 0.19620 0.62670 -0.38200
O 	O 	0.57620 0.65320 0.07280 -0.50000
O 	O 	0.51800 0.62010 0.93960 -0.51100
N 	N 	0.98690 0.98450 0.37950 -0.22100
H 	H 	0.96600 0.03010 0.41140 0.13000
N 	N 	0.08210 0.90040 0.31400 -0.08600
N 	N 	0.99660 0.85390 0.29710 -0.08600
N 	N 	0.40110 0.83310 0.92570 -0.21900
H 	H 	0.42020 0.79140 0.93690 0.12900
N 	N 	0.35910 0.95530 0.94090 -0.08700
N 	N 	0.35100 0.90630 0.85590 -0.09500
N 	N 	0.96900 0.37730 0.97750 -0.22400
H 	H 	0.94820 0.41350 0.02150 0.12900
N 	N 	0.98150 0.28840 0.85030 -0.08600
N 	N 	0.06160 0.30310 0.89620 -0.08600
C 	C 	0.37960 0.24360 0.53090 0.37400
C 	C 	0.30170 0.18030 0.48040 -0.13600
C 	C 	0.21350 0.19480 0.49530 0.04600
H 	H 	0.20510 0.24960 0.53330 0.03600
C 	C 	0.13950 0.13110 0.45590 -0.09600
H 	H 	0.08040 0.14200 0.46670 0.07000
C 	C 	0.15080 0.05120 0.40050 0.03200
C 	C 	0.23640 0.03580 0.38040 -0.10000
H 	H 	0.24400 0.98180 0.34000 0.08000
C 	C 	0.31140 0.10120 0.42070 0.05800
H 	H 	0.37030 0.09130 0.40700 0.01300
C 	C 	0.07390 0.97860 0.36460 0.11500
C 	C 	0.94040 0.90550 0.33490 0.15000
C 	C 	0.84000 0.87860 0.33320 -0.07000
C 	C 	0.79360 0.94120 0.38270 0.05000
H 	H 	0.82600 0.99760 0.41610 0.03200
C 	C 	0.70140 0.92140 0.38320 -0.15300
C 	C 	0.65370 0.98840 0.43990 0.41600
C 	C 	0.65240 0.83830 0.33540 0.09900
H 	H 	0.58840 0.82470 0.33500 -0.02400
C 	C 	0.70120 0.77440 0.28710 -0.15100
C 	C 	0.64910 0.68490 0.23790 0.41800
C 	C 	0.79320 0.79480 0.28620 0.04800
H 	H 	0.82500 0.75190 0.25380 0.04700
C 	C 	0.38910 0.70690 0.53450 0.48900
C 	C 	0.38910 0.69800 0.61920 -0.18000
C 	C 	0.37750 0.76820 0.69160 0.06800
H 	H 	0.36590 0.82010 0.68670 0.03300
C 	C 	0.38350 0.76040 0.77070 -0.08900
C 	C 	0.37590 0.83390 0.84890 0.15400
C 	C 	0.39920 0.68380 0.77740 0.07500
H 	H 	0.40010 0.67810 0.83130 0.02000
C 	C 	0.41370 0.61560 0.70640 -0.18100
C 	C 	0.43650 0.53570 0.71360 0.50000
C 	C 	0.40930 0.62460 0.62690 0.11800
H 	H 	0.42060 0.57910 0.57790 0.01900
C 	C 	0.39010 0.91090 0.98120 0.11400
C 	C 	0.41090 0.93320 0.07170 0.04200
C 	C 	0.42140 0.01740 0.12890 -0.10600
H 	H 	0.41290 0.06260 0.10970 0.08100
C 	C 	0.44390 0.03680 0.21340 0.07800
H 	H 	0.45650 0.09570 0.25110 0.01600
C 	C 	0.44830 0.97030 0.24410 -0.17300
C 	C 	0.46770 0.98620 0.33520 0.48100
C 	C 	0.43560 0.88640 0.18700 0.08100
H 	H 	0.43770 0.84010 0.20670 0.01600
C 	C 	0.42000 0.86810 0.10160 -0.11000
H 	H 	0.41550 0.81020 0.06290 0.07100
C 	C 	0.33810 0.51630 0.23380 0.37900
C 	C 	0.25920 0.46520 0.16880 -0.11400
C 	C 	0.17260 0.47840 0.18750 0.02900
H 	H 	0.16090 0.51210 0.24320 0.04200
C 	C 	0.10360 0.44190 0.12380 -0.07900
H 	H 	0.04420 0.45120 0.13600 0.06400
C 	C 	0.12020 0.39130 0.04180 0.01600
C 	C 	0.20700 0.37420 0.02490 -0.08400
H 	H 	0.21810 0.33730 0.97030 0.07800
C 	C 	0.27690 0.41170 0.08870 0.04200
H 	H 	0.33590 0.40090 0.07770 0.01900
C 	C 	0.04780 0.35710 0.97320 0.12900
C 	C 	0.92450 0.33060 0.89950 0.14500
C 	C 	0.83320 0.33270 0.87490 -0.07100
C 	C 	0.78310 0.38070 0.93610 0.04600
H 	H 	0.80920 0.41240 0.99210 0.03200
C 	C 	0.69420 0.38190 0.91460 -0.16300
C 	C 	0.64740 0.43950 0.98180 0.40400
C 	C 	0.65560 0.33630 0.83380 0.10400
H 	H 	0.59440 0.33590 0.82050 -0.02700
C 	C 	0.70700 0.28990 0.77060 -0.15300
C 	C 	0.66640 0.24370 0.68270 0.39400
C 	C 	0.79520 0.28700 0.79250 0.04200
H 	H 	0.82930 0.25380 0.75100 0.04800
C 	C 	0.55180 0.67280 0.01300 0.54100
H 	H 	0.55890 0.73320 0.02280 -0.13200
