data_crystal

_cell_length_a 12.97500
_cell_length_b 13.06000
_cell_length_c 22.38200
_cell_angle_alpha 95.77600
_cell_angle_beta  92.00400
_cell_angle_gamma 112.67800

_symmetry_space_group_name_	'P 1'
_symmetry_space_group_name_H-M	'P 1'

loop_
_symmetry_equiv_pos_as_xyz
  x,y,z

loop_
_atom_site_label
_atom_site_type_symbol
_atom_site_fract_x
_atom_site_fract_y
_atom_site_fract_z
_atom_site_charge
Zn	Zn	0.86002 0.76082 0.29949 1.21600
Zn	Zn	0.85366 0.71572 0.16722 1.21600
O 	O 	0.88880 0.92270 0.28927 -0.44100
C 	C 	0.88150 0.94340 0.23563 0.37700
O 	O 	0.88070 0.88070 0.18980 -0.46900
O 	O 	0.02220 0.78630 0.28874 -0.46000
C 	C 	0.06240 0.76570 0.24116 0.37600
O 	O 	0.01850 0.75320 0.18854 -0.45300
O 	O 	0.82580 0.59440 0.28133 -0.46500
C 	C 	0.82710 0.53330 0.23470 0.38200
O 	O 	0.82780 0.55770 0.18192 -0.45100
O 	O 	0.69790 0.72650 0.27369 -0.46100
C 	C 	0.64830 0.70140 0.22169 0.38100
O 	O 	0.68870 0.68190 0.17374 -0.45400
N 	N 	0.86100 0.76540 0.39080 -0.26000
C 	C 	0.77650 0.69050 0.41539 0.11600
H 	H 	0.71640 0.63660 0.38950 -0.00800
C 	C 	0.77260 0.68790 0.47715 -0.19100
H 	H 	0.71060 0.63460 0.49340 0.11200
C 	C 	0.86180 0.76550 0.51430 0.20500
C 	C 	0.95000 0.84260 0.48912 -0.19200
H 	H 	0.01220 0.89600 0.51390 0.11600
C 	C 	0.94580 0.84060 0.42727 0.11100
H 	H 	0.00550 0.89470 0.41000 0.00800
N 	N 	0.86300 0.76360 0.57840 -0.19100
C 	C 	0.85180 0.85350 0.61374 0.21600
C 	C 	0.85080 0.84810 0.67938 -0.05300
C 	C 	0.84480 0.93530 0.71671 -0.02200
H 	H 	0.84040 0.99780 0.70010 0.06300
C 	C 	0.84520 0.93270 0.77953 -0.02100
H 	H 	0.84160 0.99360 0.80520 0.06100
C 	C 	0.85070 0.84140 0.80374 -0.05500
C 	C 	0.85330 0.84110 0.86974 0.21400
N 	N 	0.85720 0.74420 0.89097 -0.19100
C 	C 	0.86340 0.65180 0.85539 0.21400
C 	C 	0.86260 0.65660 0.78937 -0.05500
C 	C 	0.86880 0.56870 0.75192 -0.02300
H 	H 	0.87140 0.50540 0.76830 0.05800
C 	C 	0.87150 0.57330 0.68971 -0.02300
H 	H 	0.87770 0.51370 0.66400 0.05800
C 	C 	0.86510 0.66450 0.66567 -0.05700
C 	C 	0.87010 0.66860 0.60017 0.21200
C 	C 	0.85690 0.75380 0.70319 0.03000
C 	C 	0.85590 0.75030 0.76599 0.03100
O 	O 	0.84440 0.93010 0.59016 -0.22800
O 	O 	0.85250 0.91780 0.90464 -0.22500
O 	O 	0.87020 0.57490 0.87871 -0.22700
O 	O 	0.88260 0.59740 0.56575 -0.22000
C 	C 	0.17300 0.75440 0.24769 -0.08000
C 	C 	0.23020 0.77600 0.30510 0.01100
H 	H 	0.19840 0.79700 0.33940 0.04800
C 	C 	0.33160 0.76660 0.31170 -0.07900
H 	H 	0.36990 0.78200 0.35060 0.06500
C 	C 	0.37990 0.73440 0.26109 0.02300
C 	C 	0.48660 0.72900 0.26609 -0.02700
H 	H 	0.52780 0.74730 0.30430 0.05900
C 	C 	0.53120 0.69760 0.21627 -0.08300
C 	C 	0.46920 0.66760 0.15930 0.02100
H 	H 	0.49980 0.64470 0.12500 0.04100
C 	C 	0.36630 0.67150 0.15360 -0.08500
H 	H 	0.32510 0.65010 0.11530 0.07300
C 	C 	0.31890 0.70720 0.20400 0.03300
C 	C 	0.21540 0.71890 0.19856 -0.03500
H 	H 	0.17470 0.70180 0.16030 0.06700
C 	C 	0.87170 0.05190 0.22605 -0.07800
C 	C 	0.86200 0.12070 0.27313 -0.03000
H 	H 	0.86280 0.10060 0.31270 0.06100
C 	C 	0.85080 0.22230 0.26448 0.02800
C 	C 	0.84010 0.29410 0.31300 -0.08100
H 	H 	0.83960 0.27450 0.35280 0.06900
C 	C 	0.83060 0.39230 0.30330 0.01500
H 	H 	0.82380 0.44050 0.33630 0.04700
C 	C 	0.83080 0.42200 0.24380 -0.08000
C 	C 	0.84020 0.35290 0.19640 -0.03000
H 	H 	0.84040 0.37380 0.15690 0.06400
C 	C 	0.84960 0.25060 0.20463 0.02900
C 	C 	0.85980 0.17820 0.15670 -0.08100
H 	H 	0.85900 0.19710 0.11680 0.06600
C 	C 	0.87070 0.08100 0.16623 0.01400
H 	H 	0.87760 0.03300 0.13320 0.04500
N 	N 	0.85630 0.72370 0.07697 -0.26000
C 	C 	0.77090 0.65440 0.03894 0.11800
H 	H 	0.70970 0.59930 0.05470 -0.01100
C 	C 	0.76740 0.65910 0.97789 -0.19300
H 	H 	0.70540 0.60840 0.95190 0.11100
C 	C 	0.85680 0.73970 0.95525 0.20400
C 	C 	0.94490 0.81180 0.99354 -0.18500
H 	H 	0.00690 0.86750 0.97870 0.11200
C 	C 	0.94190 0.80170 0.05457 0.10500
H 	H 	0.00270 0.85190 0.08150 0.00900
Zn	Zn	0.13998 0.23918 0.70051 1.21700
Zn	Zn	0.14634 0.28428 0.83278 1.21700
O 	O 	0.11120 0.07730 0.71073 -0.44000
C 	C 	0.11850 0.05660 0.76437 0.37800
O 	O 	0.11930 0.11930 0.81020 -0.46800
O 	O 	0.97780 0.21370 0.71126 -0.45900
C 	C 	0.93760 0.23430 0.75884 0.37600
O 	O 	0.98150 0.24680 0.81146 -0.45300
O 	O 	0.17420 0.40560 0.71867 -0.46500
C 	C 	0.17290 0.46670 0.76530 0.38200
O 	O 	0.17220 0.44230 0.81808 -0.45100
O 	O 	0.30210 0.27350 0.72631 -0.46100
C 	C 	0.35170 0.29860 0.77831 0.38100
O 	O 	0.31130 0.31810 0.82626 -0.45400
N 	N 	0.13900 0.23460 0.60920 -0.26000
C 	C 	0.22350 0.30950 0.58461 0.11600
H 	H 	0.28360 0.36340 0.61050 -0.00800
C 	C 	0.22740 0.31210 0.52285 -0.19100
H 	H 	0.28940 0.36540 0.50660 0.11200
C 	C 	0.13820 0.23450 0.48570 0.20500
C 	C 	0.05000 0.15740 0.51088 -0.19200
H 	H 	0.98780 0.10400 0.48610 0.11600
C 	C 	0.05420 0.15940 0.57273 0.11100
H 	H 	0.99450 0.10530 0.59000 0.00800
N 	N 	0.13700 0.23640 0.42160 -0.19100
C 	C 	0.14820 0.14650 0.38626 0.21600
C 	C 	0.14920 0.15190 0.32062 -0.05300
C 	C 	0.15520 0.06470 0.28329 -0.02200
H 	H 	0.15960 0.00220 0.29990 0.06300
C 	C 	0.15480 0.06730 0.22047 -0.02100
H 	H 	0.15840 0.00640 0.19480 0.06100
C 	C 	0.14930 0.15860 0.19626 -0.05500
C 	C 	0.14670 0.15890 0.13026 0.21400
N 	N 	0.14280 0.25580 0.10903 -0.19100
C 	C 	0.13660 0.34820 0.14461 0.21400
C 	C 	0.13740 0.34340 0.21063 -0.05500
C 	C 	0.13120 0.43130 0.24808 -0.02300
H 	H 	0.12860 0.49460 0.23170 0.05800
C 	C 	0.12850 0.42670 0.31029 -0.02300
H 	H 	0.12230 0.48630 0.33600 0.05800
C 	C 	0.13490 0.33550 0.33433 -0.05700
C 	C 	0.12990 0.33140 0.39983 0.21200
C 	C 	0.14310 0.24620 0.29681 0.03000
C 	C 	0.14410 0.24970 0.23401 0.03100
O 	O 	0.15560 0.06990 0.40984 -0.22800
O 	O 	0.14750 0.08220 0.09536 -0.22500
O 	O 	0.12980 0.42510 0.12129 -0.22700
O 	O 	0.11740 0.40260 0.43425 -0.22000
C 	C 	0.82700 0.24560 0.75231 -0.08000
C 	C 	0.76980 0.22400 0.69490 0.01100
H 	H 	0.80160 0.20300 0.66060 0.04800
C 	C 	0.66840 0.23340 0.68830 -0.07900
H 	H 	0.63010 0.21800 0.64940 0.06500
C 	C 	0.62010 0.26560 0.73891 0.02300
C 	C 	0.51340 0.27100 0.73391 -0.02700
H 	H 	0.47220 0.25270 0.69570 0.05900
C 	C 	0.46880 0.30240 0.78373 -0.08300
C 	C 	0.53080 0.33240 0.84070 0.02100
H 	H 	0.50020 0.35530 0.87500 0.04100
C 	C 	0.63370 0.32850 0.84640 -0.08500
H 	H 	0.67490 0.34990 0.88470 0.07300
C 	C 	0.68110 0.29280 0.79600 0.03300
C 	C 	0.78460 0.28110 0.80144 -0.03500
H 	H 	0.82530 0.29820 0.83970 0.06700
C 	C 	0.12830 0.94810 0.77395 -0.07800
C 	C 	0.13800 0.87930 0.72687 -0.03000
H 	H 	0.13720 0.89940 0.68730 0.06100
C 	C 	0.14920 0.77770 0.73552 0.02800
C 	C 	0.15990 0.70590 0.68700 -0.08100
H 	H 	0.16040 0.72550 0.64720 0.06900
C 	C 	0.16940 0.60770 0.69670 0.01500
H 	H 	0.17620 0.55950 0.66370 0.04700
C 	C 	0.16920 0.57800 0.75620 -0.08000
C 	C 	0.15980 0.64710 0.80360 -0.03000
H 	H 	0.15960 0.62620 0.84310 0.06400
C 	C 	0.15040 0.74940 0.79537 0.02900
C 	C 	0.14020 0.82180 0.84330 -0.08100
H 	H 	0.14100 0.80290 0.88320 0.06600
C 	C 	0.12930 0.91900 0.83377 0.01400
H 	H 	0.12240 0.96700 0.86680 0.04500
N 	N 	0.14370 0.27630 0.92303 -0.26000
C 	C 	0.22910 0.34560 0.96106 0.11800
H 	H 	0.29030 0.40070 0.94530 -0.01100
C 	C 	0.23260 0.34090 0.02211 -0.19300
H 	H 	0.29460 0.39160 0.04810 0.11100
C 	C 	0.14320 0.26030 0.04475 0.20400
C 	C 	0.05510 0.18820 0.00646 -0.18500
H 	H 	0.99310 0.13250 0.02130 0.11200
C 	C 	0.05810 0.19830 0.94543 0.10500
H 	H 	0.99730 0.14810 0.91850 0.00900
