data_crystal

_cell_length_a 13.06300
_cell_length_b 13.12900
_cell_length_c 22.32400
_cell_angle_alpha 90.00000
_cell_angle_beta  90.00000
_cell_angle_gamma 95.14900

_symmetry_space_group_name_	'P 1'
_symmetry_space_group_name_H-M	'P 1'

loop_
_symmetry_equiv_pos_as_xyz
  x,y,z

loop_
_atom_site_label
_atom_site_type_symbol
_atom_site_fract_x
_atom_site_fract_y
_atom_site_fract_z
_atom_site_charge
Zn	Zn	0.23831 0.63069 0.20672 1.21600
Zn	Zn	0.21410 0.60870 0.07700 1.21300
H 	H 	0.16980 0.49170 0.30700 0.00400
H 	H 	0.16150 0.49130 0.41190 0.11300
H 	H 	0.28870 0.78530 0.41000 0.11300
H 	H 	0.29170 0.77690 0.30520 -0.00700
H 	H 	0.46440 0.64660 0.59150 0.06000
H 	H 	0.46020 0.63820 0.69800 0.05800
H 	H 	0.96490 0.64260 0.69220 0.06000
H 	H 	0.96780 0.64780 0.58640 0.05800
H 	H 	0.91580 0.61220 0.25040 0.04400
H 	H 	0.74280 0.62430 0.26170 0.06800
H 	H 	0.56720 0.62890 0.21540 0.06300
H 	H 	0.53710 0.62160 0.03430 0.03900
H 	H 	0.71110 0.60660 0.02370 0.05800
H 	H 	0.88610 0.59830 0.06970 0.05600
H 	H 	0.30010 0.32110 0.24000 0.04600
H 	H 	0.31400 0.14660 0.25120 0.06500
H 	H 	0.28420 0.96820 0.21070 0.05900
H 	H 	0.18340 0.92310 0.03970 0.03600
H 	H 	0.18580 0.09780 0.02530 0.05900
H 	H 	0.20700 0.27500 0.06750 0.05600
H 	H 	0.12020 0.48420 0.97410 0.01100
H 	H 	0.11600 0.49050 0.86970 0.11800
H 	H 	0.29640 0.75840 0.87720 0.11900
H 	H 	0.29580 0.74560 0.98180 0.00800
C 	C 	0.23700 0.42490 0.14510 0.37400
C 	C 	0.03050 0.60580 0.15030 0.38500
C 	C 	0.22800 0.81590 0.13610 0.38600
C 	C 	0.42210 0.63180 0.13410 0.40100
C 	C 	0.19430 0.55140 0.32840 0.11400
C 	C 	0.18790 0.55060 0.39070 -0.18800
C 	C 	0.22170 0.63970 0.42020 0.20000
C 	C 	0.26310 0.72480 0.38950 -0.18900
C 	C 	0.26590 0.71840 0.32740 0.11300
C 	C 	0.31390 0.65140 0.51440 0.21000
C 	C 	0.31140 0.64680 0.58110 -0.05200
C 	C 	0.40080 0.64500 0.61220 -0.02500
C 	C 	0.39840 0.64090 0.67580 -0.02100
C 	C 	0.30600 0.64090 0.70500 -0.05700
C 	C 	0.30500 0.63430 0.77120 0.21000
C 	C 	0.20870 0.63200 0.79940 -0.18300
C 	C 	0.11280 0.63300 0.76930 0.21000
C 	C 	0.11780 0.64170 0.70310 -0.05500
C 	C 	0.02850 0.64320 0.67150 -0.02200
C 	C 	0.02990 0.64580 0.60830 -0.02100
C 	C 	0.12170 0.64540 0.57880 -0.05500
C 	C 	0.12150 0.64040 0.51220 0.21600
C 	C 	0.21510 0.64670 0.61030 0.02900
C 	C 	0.21370 0.64220 0.67380 0.03100
C 	C 	0.91600 0.60610 0.15850 -0.08200
C 	C 	0.87290 0.61240 0.21610 0.02000
C 	C 	0.77070 0.61870 0.22270 -0.08400
C 	C 	0.70380 0.61690 0.17160 0.02800
C 	C 	0.59700 0.62430 0.17680 -0.02800
C 	C 	0.53580 0.62500 0.12710 -0.08800
C 	C 	0.57950 0.61970 0.06870 0.01700
C 	C 	0.68260 0.61170 0.06260 -0.08200
C 	C 	0.74720 0.61100 0.11280 0.02500
C 	C 	0.85560 0.60420 0.10800 -0.03000
C 	C 	0.25040 0.31260 0.15200 -0.08100
C 	C 	0.28310 0.27540 0.20780 0.01200
C 	C 	0.28970 0.17200 0.21450 -0.07800
C 	C 	0.26080 0.10270 0.16710 0.02300
C 	C 	0.26180 0.99510 0.17400 -0.02600
C 	C 	0.23100 0.92970 0.12820 -0.08600
C 	C 	0.20260 0.96870 0.07160 0.01700
C 	C 	0.20320 0.07190 0.06340 -0.08500
C 	C 	0.22970 0.14140 0.11140 0.02700
C 	C 	0.22630 0.24790 0.10490 -0.03400
C 	C 	0.15640 0.54010 0.95390 0.12100
C 	C 	0.15370 0.54280 0.89210 -0.19200
C 	C 	0.20800 0.62510 0.86370 0.20700
C 	C 	0.26040 0.70150 0.89650 -0.19000
C 	C 	0.25954 0.69356 0.95856 0.11600
N 	N 	0.23360 0.63300 0.29770 -0.25900
N 	N 	0.21910 0.64150 0.48570 -0.19100
N 	N 	0.20820 0.61340 0.98640 -0.24800
O 	O 	0.23750 0.47690 0.19290 -0.45700
O 	O 	0.22600 0.45960 0.09350 -0.46400
O 	O 	0.08430 0.62010 0.19720 -0.46100
O 	O 	0.06330 0.59230 0.09890 -0.46600
O 	O 	0.24280 0.78320 0.18800 -0.45000
O 	O 	0.21140 0.76210 0.09030 -0.47000
O 	O 	0.38910 0.63850 0.18570 -0.46600
O 	O 	0.37030 0.63070 0.08710 -0.47000
O 	O 	0.39430 0.65700 0.48620 -0.21900
O 	O 	0.38270 0.63280 0.80120 -0.22000
O 	O 	0.03280 0.62950 0.79740 -0.22100
O 	O 	0.04460 0.63650 0.48210 -0.22800
Zn	Zn	0.76169 0.36931 0.70672 1.21700
Zn	Zn	0.78590 0.39130 0.57700 1.21800
H 	H 	0.83020 0.50830 0.80700 0.00400
H 	H 	0.83850 0.50870 0.91190 0.11900
H 	H 	0.71130 0.21470 0.91000 0.11900
H 	H 	0.70830 0.22310 0.80520 -0.00600
H 	H 	0.53560 0.35340 0.09150 0.06300
H 	H 	0.53980 0.36180 0.19800 0.05100
H 	H 	0.03510 0.35740 0.19220 0.05500
H 	H 	0.03220 0.35220 0.08640 0.06200
H 	H 	0.08420 0.38780 0.75040 0.04600
H 	H 	0.25720 0.37570 0.76170 0.07000
H 	H 	0.43280 0.37110 0.71540 0.06500
H 	H 	0.46290 0.37840 0.53430 0.04700
H 	H 	0.28890 0.39340 0.52370 0.06700
H 	H 	0.11390 0.40170 0.56970 0.06300
H 	H 	0.69990 0.67890 0.74000 0.04800
H 	H 	0.68600 0.85340 0.75120 0.06700
H 	H 	0.71580 0.03180 0.71070 0.06100
H 	H 	0.81660 0.07690 0.53970 0.04400
H 	H 	0.81420 0.90220 0.52530 0.06700
H 	H 	0.79300 0.72500 0.56750 0.06300
H 	H 	0.87980 0.51580 0.47410 0.00300
H 	H 	0.88400 0.50950 0.36970 0.11800
H 	H 	0.70360 0.24160 0.37720 0.11600
H 	H 	0.70420 0.25440 0.48180 -0.00400
C 	C 	0.76300 0.57510 0.64510 0.37200
C 	C 	0.96950 0.39420 0.65030 0.38100
C 	C 	0.77200 0.18410 0.63610 0.38400
C 	C 	0.57790 0.36820 0.63410 0.39900
C 	C 	0.80570 0.44860 0.82840 0.11500
C 	C 	0.81210 0.44940 0.89070 -0.18600
C 	C 	0.77830 0.36030 0.92020 0.20200
C 	C 	0.73690 0.27520 0.88950 -0.18700
C 	C 	0.73410 0.28160 0.82740 0.11500
C 	C 	0.68610 0.34860 0.01440 0.13000
C 	C 	0.68860 0.35320 0.08110 -0.01900
C 	C 	0.59920 0.35500 0.11220 -0.05000
C 	C 	0.60160 0.35910 0.17580 -0.00600
C 	C 	0.69400 0.35910 0.20500 -0.07000
C 	C 	0.69500 0.36570 0.27120 0.21600
C 	C 	0.79130 0.36800 0.29940 -0.18900
C 	C 	0.88720 0.36700 0.26930 0.21500
C 	C 	0.88220 0.35830 0.20310 -0.06700
C 	C 	0.97150 0.35680 0.17150 -0.00800
C 	C 	0.97010 0.35420 0.10830 -0.04600
C 	C 	0.87830 0.35460 0.07880 -0.02200
C 	C 	0.87850 0.35960 0.01220 0.13600
C 	C 	0.78490 0.35330 0.11030 0.00000
C 	C 	0.78630 0.35780 0.17380 0.04700
C 	C 	0.08400 0.39390 0.65850 -0.07700
C 	C 	0.12710 0.38760 0.71610 0.01800
C 	C 	0.22930 0.38130 0.72270 -0.08300
C 	C 	0.29620 0.38310 0.67160 0.02800
C 	C 	0.40300 0.37570 0.67680 -0.02800
C 	C 	0.46420 0.37500 0.62710 -0.08500
C 	C 	0.42050 0.38030 0.56870 0.01900
C 	C 	0.31740 0.38830 0.56260 -0.08200
C 	C 	0.25280 0.38900 0.61280 0.02900
C 	C 	0.14440 0.39580 0.60800 -0.03300
C 	C 	0.74960 0.68740 0.65200 -0.07700
C 	C 	0.71690 0.72460 0.70780 0.01100
C 	C 	0.71030 0.82800 0.71450 -0.07600
C 	C 	0.73920 0.89730 0.66710 0.02400
C 	C 	0.73820 0.00490 0.67400 -0.02600
C 	C 	0.76900 0.07030 0.62820 -0.08100
C 	C 	0.79740 0.03130 0.57160 0.01800
C 	C 	0.79680 0.92810 0.56340 -0.08300
C 	C 	0.77030 0.85860 0.61140 0.03100
C 	C 	0.77370 0.75210 0.60490 -0.03600
C 	C 	0.84360 0.45990 0.45390 0.11800
C 	C 	0.84630 0.45720 0.39210 -0.19500
C 	C 	0.79200 0.37490 0.36370 0.20800
C 	C 	0.73960 0.29850 0.39650 -0.19500
C 	C 	0.74046 0.30644 0.45856 0.11300
N 	N 	0.76640 0.36700 0.79770 -0.25900
N 	N 	0.78090 0.35850 0.98570 -0.14300
N 	N 	0.79180 0.38660 0.48640 -0.26000
O 	O 	0.76250 0.52310 0.69290 -0.45600
O 	O 	0.77400 0.54040 0.59350 -0.45600
O 	O 	0.91570 0.37990 0.69720 -0.46000
O 	O 	0.93670 0.40770 0.59890 -0.45900
O 	O 	0.75720 0.21680 0.68800 -0.44800
O 	O 	0.78860 0.23790 0.59030 -0.46200
O 	O 	0.61090 0.36150 0.68570 -0.46400
O 	O 	0.62970 0.36930 0.58710 -0.46200
O 	O 	0.60570 0.34300 0.98620 -0.16700
O 	O 	0.61730 0.36720 0.30120 -0.22600
O 	O 	0.96720 0.37050 0.29740 -0.22600
O 	O 	0.95540 0.36350 0.98210 -0.17800
