data_crystal

_cell_length_a 12.97200
_cell_length_b 22.29600
_cell_length_c 12.98800
_cell_angle_alpha 90.00000
_cell_angle_beta  109.37600
_cell_angle_gamma 90.00000

_symmetry_space_group_name_	'P 1'
_symmetry_space_group_name_H-M	'P 1'

loop_
_symmetry_equiv_pos_as_xyz
  x,y,z

loop_
_atom_site_label
_atom_site_type_symbol
_atom_site_fract_x
_atom_site_fract_y
_atom_site_fract_z
_atom_site_charge
Zn	Zn	0.85318 0.21332 0.75248 1.21700
Zn	Zn	0.86644 0.08250 0.73759 1.21600
O 	O 	0.69410 0.19430 0.71960 -0.43400
C 	C 	0.65270 0.13930 0.70470 0.32700
O 	O 	0.70150 0.09150 0.70400 -0.45000
O 	O 	0.87460 0.18930 0.90930 -0.44400
C 	C 	0.87720 0.13620 0.95050 0.38300
O 	O 	0.88390 0.09010 0.89520 -0.46400
O 	O 	0.02070 0.20100 0.78710 -0.45700
C 	C 	0.06650 0.15330 0.77230 0.44700
O 	O 	0.02810 0.10400 0.77170 -0.48700
O 	O 	0.84070 0.20720 0.59670 -0.46000
C 	C 	0.84890 0.15760 0.54810 0.38600
O 	O 	0.85160 0.10700 0.58510 -0.48300
N 	N 	0.85330 0.30290 0.76620 -0.25100
C 	C 	0.76000 0.33290 0.70130 0.07600
H 	H 	0.69640 0.31170 0.65940 0.00400
C 	C 	0.76410 0.39730 0.70040 -0.16200
H 	H 	0.70470 0.41910 0.65210 0.10300
C 	C 	0.85370 0.42820 0.76890 0.19700
C 	C 	0.94230 0.39750 0.84050 -0.17600
H 	H 	0.00260 0.41790 0.89040 0.11200
C 	C 	0.93700 0.33360 0.83430 0.10100
H 	H 	0.99660 0.31140 0.88150 0.01300
N 	N 	0.85440 0.48960 0.76480 -0.19000
C 	C 	0.85940 0.52220 0.86450 0.17400
C 	C 	0.85710 0.58790 0.86070 -0.02900
C 	C 	0.85970 0.62060 0.94730 -0.04500
H 	H 	0.86330 0.60220 0.01430 0.07400
C 	C 	0.85710 0.68170 0.93630 -0.00100
H 	H 	0.85010 0.70430 0.99560 0.05700
C 	C 	0.86390 0.71550 0.84330 -0.08100
C 	C 	0.86480 0.77810 0.83710 0.21700
N 	N 	0.87290 0.80200 0.74890 -0.22400
C 	C 	0.86880 0.77780 0.65730 0.25600
C 	C 	0.85870 0.70740 0.66090 -0.05600
C 	C 	0.86440 0.67540 0.56710 -0.02900
H 	H 	0.87490 0.69370 0.50520 0.06100
C 	C 	0.85200 0.61060 0.57980 -0.01200
H 	H 	0.84030 0.58660 0.51650 0.05400
C 	C 	0.85510 0.58430 0.66360 -0.06200
C 	C 	0.84800 0.51610 0.66300 0.24900
C 	C 	0.85360 0.61870 0.75600 0.01700
C 	C 	0.85670 0.68330 0.75940 0.05000
O 	O 	0.85010 0.49550 0.94870 -0.20100
O 	O 	0.87190 0.81110 0.92540 -0.20600
O 	O 	0.86380 0.79960 0.57390 -0.24400
O 	O 	0.85240 0.48750 0.59410 -0.25400
C 	C 	0.53670 0.13600 0.70800 -0.03100
C 	C 	0.48860 0.07380 0.69810 -0.03000
H 	H 	0.52690 0.04020 0.68400 0.05100
C 	C 	0.39090 0.06710 0.70960 -0.03900
H 	H 	0.36020 0.02830 0.70810 0.04400
C 	C 	0.33080 0.12120 0.72480 -0.03300
C 	C 	0.21960 0.11530 0.73200 0.03800
H 	H 	0.18310 0.07770 0.71740 0.03300
C 	C 	0.17050 0.16210 0.75860 -0.17300
C 	C 	0.21660 0.21860 0.75230 0.10900
H 	H 	0.17700 0.25420 0.75450 0.01500
C 	C 	0.31390 0.22210 0.74330 -0.17200
H 	H 	0.34420 0.26130 0.74910 0.09500
C 	C 	0.37590 0.17840 0.72730 0.10100
C 	C 	0.48060 0.18400 0.72180 -0.09000
H 	H 	0.51300 0.22260 0.72790 0.07900
C 	C 	0.86990 0.13050 0.05520 -0.11800
C 	C 	0.87400 0.07380 0.10360 0.04300
H 	H 	0.88340 0.03900 0.06550 0.02700
C 	C 	0.86490 0.06830 0.20380 -0.10000
H 	H 	0.86200 0.02910 0.23170 0.06500
C 	C 	0.85940 0.11800 0.26860 0.03600
C 	C 	0.85230 0.11550 0.36980 -0.03200
H 	H 	0.84760 0.07680 0.39840 0.05700
C 	C 	0.85110 0.16340 0.43510 -0.08900
C 	C 	0.85090 0.21890 0.38920 0.02000
H 	H 	0.85320 0.25340 0.43280 0.04900
C 	C 	0.84740 0.22710 0.28210 -0.07800
H 	H 	0.83850 0.26620 0.25130 0.06500
C 	C 	0.85730 0.17670 0.21830 0.01800
C 	C 	0.86030 0.18140 0.11500 -0.01200
H 	H 	0.85580 0.21990 0.08250 0.05500
N 	N 	0.87210 0.99130 0.73970 -0.31800
C 	C 	0.78450 0.95950 0.68020 0.16600
H 	H 	0.72100 0.98000 0.63600 -0.01100
C 	C 	0.78540 0.89860 0.68220 -0.26400
H 	H 	0.72320 0.87630 0.64030 0.13900
C 	C 	0.87490 0.87110 0.74390 0.26400
C 	C 	0.96090 0.90190 0.80970 -0.29300
H 	H 	0.02420 0.88460 0.86070 0.15300
C 	C 	0.94200 0.96460 0.79070 0.27300
H 	H 	0.00270 0.98850 0.83060 -0.04300
Zn	Zn	0.14682 0.71332 0.24752 1.21700
Zn	Zn	0.13356 0.58250 0.26241 1.22000
O 	O 	0.30590 0.69430 0.28040 -0.43200
C 	C 	0.34730 0.63930 0.29530 0.32600
O 	O 	0.29850 0.59150 0.29600 -0.44100
O 	O 	0.12540 0.68930 0.09070 -0.44300
C 	C 	0.12280 0.63620 0.04950 0.38200
O 	O 	0.11610 0.59010 0.10480 -0.45500
O 	O 	0.97930 0.70100 0.21290 -0.45600
C 	C 	0.93350 0.65330 0.22770 0.44400
O 	O 	0.97190 0.60400 0.22830 -0.47800
O 	O 	0.15930 0.70720 0.40330 -0.45900
C 	C 	0.15110 0.65760 0.45190 0.38300
O 	O 	0.14840 0.60700 0.41490 -0.47600
N 	N 	0.14670 0.80290 0.23380 -0.25100
C 	C 	0.24000 0.83290 0.29870 0.07800
H 	H 	0.30360 0.81170 0.34060 0.00600
C 	C 	0.23590 0.89730 0.29960 -0.16000
H 	H 	0.29530 0.91910 0.34790 0.11000
C 	C 	0.14630 0.92820 0.23110 0.19800
C 	C 	0.05770 0.89750 0.15950 -0.17500
H 	H 	0.99740 0.91790 0.10960 0.12000
C 	C 	0.06300 0.83360 0.16570 0.10300
H 	H 	0.00340 0.81140 0.11850 0.01200
N 	N 	0.14560 0.98960 0.23520 -0.14500
C 	C 	0.14060 0.02220 0.13550 0.10400
C 	C 	0.14290 0.08790 0.13930 0.00000
C 	C 	0.14030 0.12060 0.05270 -0.07000
H 	H 	0.13670 0.10220 0.98570 0.07700
C 	C 	0.14290 0.18170 0.06370 0.01400
H 	H 	0.14990 0.20430 0.00440 0.05100
C 	C 	0.13610 0.21550 0.15670 -0.09500
C 	C 	0.13520 0.27810 0.16290 0.22200
N 	N 	0.12710 0.30200 0.25110 -0.22600
C 	C 	0.13120 0.27780 0.34270 0.25900
C 	C 	0.14130 0.20740 0.33910 -0.06800
C 	C 	0.13560 0.17540 0.43290 -0.01300
H 	H 	0.12510 0.19370 0.49480 0.05500
C 	C 	0.14800 0.11060 0.42020 -0.04300
H 	H 	0.15970 0.08660 0.48350 0.05800
C 	C 	0.14490 0.08430 0.33640 -0.02200
C 	C 	0.15200 0.01610 0.33700 0.15700
C 	C 	0.14640 0.11870 0.24400 -0.01000
C 	C 	0.14330 0.18330 0.24060 0.06600
O 	O 	0.14990 0.99550 0.05130 -0.15600
O 	O 	0.12810 0.31110 0.07460 -0.21000
O 	O 	0.13620 0.29960 0.42610 -0.24800
O 	O 	0.14760 0.98750 0.40590 -0.19100
C 	C 	0.46330 0.63600 0.29200 -0.02800
C 	C 	0.51140 0.57380 0.30190 -0.02800
H 	H 	0.47310 0.54020 0.31600 0.05900
C 	C 	0.60910 0.56710 0.29040 -0.03700
H 	H 	0.63980 0.52830 0.29190 0.05300
C 	C 	0.66920 0.62120 0.27520 -0.02800
C 	C 	0.78040 0.61530 0.26800 0.03500
H 	H 	0.81690 0.57770 0.28260 0.04000
C 	C 	0.82950 0.66210 0.24140 -0.16700
C 	C 	0.78340 0.71860 0.24770 0.10700
H 	H 	0.82300 0.75420 0.24550 0.01800
C 	C 	0.68610 0.72210 0.25670 -0.16900
H 	H 	0.65580 0.76130 0.25090 0.09700
C 	C 	0.62410 0.67840 0.27270 0.10100
C 	C 	0.51940 0.68400 0.27820 -0.08900
H 	H 	0.48700 0.72260 0.27210 0.08100
C 	C 	0.13010 0.63050 0.94480 -0.11700
C 	C 	0.12600 0.57380 0.89640 0.04500
H 	H 	0.11660 0.53900 0.93450 0.03500
C 	C 	0.13510 0.56830 0.79620 -0.10100
H 	H 	0.13800 0.52910 0.76830 0.07400
C 	C 	0.14060 0.61800 0.73140 0.04100
C 	C 	0.14770 0.61550 0.63020 -0.03600
H 	H 	0.15240 0.57680 0.60160 0.06400
C 	C 	0.14890 0.66340 0.56490 -0.08400
C 	C 	0.14910 0.71890 0.61080 0.01700
H 	H 	0.14680 0.75340 0.56720 0.05100
C 	C 	0.15260 0.72710 0.71790 -0.07500
H 	H 	0.16150 0.76620 0.74870 0.06600
C 	C 	0.14270 0.67670 0.78170 0.01700
C 	C 	0.13970 0.68140 0.88500 -0.01100
H 	H 	0.14420 0.71990 0.91750 0.05600
N 	N 	0.12790 0.49130 0.26030 -0.33100
C 	C 	0.21550 0.45950 0.31980 0.16300
H 	H 	0.27900 0.48000 0.36400 -0.02300
C 	C 	0.21460 0.39860 0.31780 -0.26900
H 	H 	0.27680 0.37630 0.35970 0.13700
C 	C 	0.12510 0.37110 0.25610 0.26500
C 	C 	0.03910 0.40190 0.19030 -0.30100
H 	H 	0.97580 0.38460 0.13930 0.15500
C 	C 	0.05800 0.46460 0.20930 0.27200
H 	H 	0.99730 0.48850 0.16940 -0.05200
