data_crystal

_cell_length_a 11.02270
_cell_length_b 11.60490
_cell_length_c 15.80190
_cell_angle_alpha 97.21900
_cell_angle_beta  102.51800
_cell_angle_gamma 102.96400

_symmetry_space_group_name_	'P 1'
_symmetry_space_group_name_H-M	'P 1'

loop_
_symmetry_equiv_pos_as_xyz
  x,y,z

loop_
_atom_site_label
_atom_site_type_symbol
_atom_site_fract_x
_atom_site_fract_y
_atom_site_fract_z
_atom_site_charge
Cu	Cu	0.84526 0.71395 0.13692 0.78900
Cu	Cu	0.57486 0.49321 0.12662 0.78600
Cu	Cu	0.00606 0.32601 0.03643 0.81000
Cu	Cu	0.28943 0.58841 0.05084 0.79800
Cu	Cu	0.62827 0.63318 0.51495 0.78700
N 	N 	0.67990 0.73510 0.09350 -0.25100
N 	N 	0.57220 0.65260 0.09360 -0.22700
N 	N 	0.47200 0.69530 0.06600 -0.18800
N 	N 	0.51130 0.80500 0.04700 -0.11000
N 	N 	0.89470 0.14620 0.02960 -0.22200
N 	N 	0.40330 0.38490 0.11300 -0.22900
N 	N 	0.29760 0.41900 0.07680 -0.20900
N 	N 	0.19430 0.33410 0.07730 -0.19800
N 	N 	0.22970 0.24420 0.11310 -0.11300
N 	N 	0.57690 0.06290 0.25660 -0.22000
H 	H 	0.62310 0.02300 0.28540 0.10200
N 	N 	0.06650 0.65840 0.09050 -0.20500
N 	N 	0.00980 0.68790 0.15300 -0.20800
N 	N 	0.08470 0.69490 0.23290 -0.12200
N 	N 	0.18170 0.64380 0.12960 -0.22100
N 	N 	0.47230 0.62980 0.43410 -0.29100
N 	N 	0.90900 0.39980 0.11690 -0.21100
N 	N 	0.79840 0.42570 0.07940 -0.21000
N 	N 	0.74370 0.45680 0.14230 -0.22300
N 	N 	0.81530 0.45260 0.22150 -0.13700
N 	N 	0.22460 0.38030 0.40300 -0.27600
C 	C 	0.35810 0.27690 0.13390 0.08300
C 	C 	0.43560 0.20190 0.17680 0.02700
C 	C 	0.56040 0.21000 0.16830 -0.13400
H 	H 	0.59650 0.26300 0.13550 0.04600
C 	C 	0.62970 0.13830 0.20920 0.08300
H 	H 	0.71290 0.14230 0.20390 -0.00500
C 	C 	0.45680 0.04810 0.26030 0.09000
H 	H 	0.42200 0.99100 0.29080 -0.02300
C 	C 	0.38170 0.11510 0.22020 -0.14600
H 	H 	0.29600 0.10260 0.22210 0.06800
C 	C 	0.18960 0.66680 0.21680 0.08800
C 	C 	0.29320 0.65910 0.29020 0.00900
C 	C 	0.31270 0.72730 0.37420 -0.11400
H 	H 	0.26540 0.78280 0.38300 0.05300
C 	C 	0.40270 0.71050 0.44280 0.04000
H 	H 	0.41650 0.75690 0.49820 -0.03500
C 	C 	0.45320 0.56440 0.35380 0.01900
H 	H 	0.50030 0.50820 0.34730 -0.06800
C 	C 	0.36650 0.57710 0.28050 -0.11800
H 	H 	0.35710 0.53170 0.22550 0.02300
C 	C 	0.91590 0.41760 0.20370 0.09200
C 	C 	0.02070 0.40240 0.27330 0.01400
C 	C 	0.08730 0.31710 0.25790 -0.11900
H 	H 	0.06390 0.26560 0.20360 0.04100
C 	C 	0.18800 0.30920 0.32310 0.05500
H 	H 	0.23270 0.25240 0.31170 -0.03700
C 	C 	0.15700 0.45930 0.41960 0.05900
H 	H 	0.17970 0.50660 0.47550 -0.03800
C 	C 	0.05480 0.47330 0.35700 -0.11200
H 	H 	0.00970 0.52900 0.37060 0.05200
C 	C 	0.63980 0.82740 0.06470 0.09400
C 	C 	0.72750 0.93630 0.05190 -0.01100
C 	C 	0.68060 0.01980 0.00690 -0.08800
H 	H 	0.59270 0.00710 0.98310 0.06800
H 	H 	0.89630 0.90310 0.10770 -0.03400
H 	H 	0.02720 0.07640 0.09000 -0.00600
C 	C 	0.76680 0.12150 0.99830 0.05400
H 	H 	0.73380 0.17660 0.96870 -0.03300
C 	C 	0.93840 0.06290 0.06910 0.04500
C 	C 	0.85980 0.95860 0.08070 -0.08200
Cu	Cu	0.15474 0.28605 0.86308 0.78800
Cu	Cu	0.42514 0.50679 0.87338 0.78500
Cu	Cu	0.99394 0.67399 0.96357 0.81000
Cu	Cu	0.71057 0.41159 0.94916 0.79800
Cu	Cu	0.37173 0.36682 0.48505 0.78700
N 	N 	0.32010 0.26490 0.90650 -0.25100
N 	N 	0.42780 0.34740 0.90640 -0.22700
N 	N 	0.52800 0.30470 0.93400 -0.18800
N 	N 	0.48870 0.19500 0.95300 -0.11000
N 	N 	0.10530 0.85380 0.97040 -0.22200
N 	N 	0.59670 0.61510 0.88700 -0.22900
N 	N 	0.70240 0.58100 0.92320 -0.20900
N 	N 	0.80570 0.66590 0.92270 -0.19800
N 	N 	0.77030 0.75580 0.88690 -0.11300
N 	N 	0.42310 0.93710 0.74340 -0.22000
H 	H 	0.37690 0.97700 0.71460 0.10200
N 	N 	0.93350 0.34160 0.90950 -0.20500
N 	N 	0.99020 0.31210 0.84700 -0.20800
N 	N 	0.91530 0.30510 0.76710 -0.12200
N 	N 	0.81830 0.35620 0.87040 -0.22100
N 	N 	0.52770 0.37020 0.56590 -0.29100
N 	N 	0.09100 0.60020 0.88310 -0.21100
N 	N 	0.20160 0.57430 0.92060 -0.21000
N 	N 	0.25630 0.54320 0.85770 -0.22300
N 	N 	0.18470 0.54740 0.77850 -0.13700
N 	N 	0.77540 0.61970 0.59700 -0.27600
C 	C 	0.64190 0.72310 0.86610 0.08300
C 	C 	0.56440 0.79810 0.82320 0.02700
C 	C 	0.43960 0.79000 0.83170 -0.13400
H 	H 	0.40350 0.73700 0.86450 0.04600
C 	C 	0.37030 0.86170 0.79080 0.08300
H 	H 	0.28710 0.85770 0.79610 -0.00500
C 	C 	0.54320 0.95190 0.73970 0.09000
H 	H 	0.57800 0.00900 0.70920 -0.02300
C 	C 	0.61830 0.88490 0.77980 -0.14600
H 	H 	0.70400 0.89740 0.77790 0.06800
C 	C 	0.81040 0.33320 0.78320 0.08800
C 	C 	0.70680 0.34090 0.70980 0.00900
C 	C 	0.68730 0.27270 0.62580 -0.11400
H 	H 	0.73460 0.21720 0.61700 0.05300
C 	C 	0.59730 0.28950 0.55720 0.04000
H 	H 	0.58350 0.24310 0.50180 -0.03500
C 	C 	0.54680 0.43560 0.64620 0.01900
H 	H 	0.49970 0.49180 0.65270 -0.06800
C 	C 	0.63350 0.42290 0.71950 -0.11800
H 	H 	0.64290 0.46830 0.77450 0.02300
C 	C 	0.08410 0.58240 0.79630 0.09200
C 	C 	0.97930 0.59760 0.72670 0.01400
C 	C 	0.91270 0.68290 0.74210 -0.11900
H 	H 	0.93610 0.73440 0.79640 0.04100
C 	C 	0.81200 0.69080 0.67690 0.05500
H 	H 	0.76730 0.74760 0.68830 -0.03700
C 	C 	0.84300 0.54070 0.58040 0.05900
H 	H 	0.82030 0.49340 0.52450 -0.03800
C 	C 	0.94520 0.52670 0.64300 -0.11200
H 	H 	0.99030 0.47100 0.62940 0.05200
C 	C 	0.36020 0.17260 0.93530 0.09400
C 	C 	0.27250 0.06370 0.94810 -0.01100
C 	C 	0.31940 0.98020 0.99310 -0.08800
H 	H 	0.40730 0.99290 0.01690 0.06800
H 	H 	0.10370 0.09690 0.89230 -0.03400
H 	H 	0.97280 0.92360 0.91000 -0.00600
C 	C 	0.23320 0.87850 0.00170 0.05400
H 	H 	0.26620 0.82340 0.03130 -0.03300
C 	C 	0.06160 0.93710 0.93090 0.04500
C 	C 	0.14020 0.04140 0.91930 -0.08200
