data_crystal

_cell_length_a 8.18600
_cell_length_b 20.16000
_cell_length_c 8.95210
_cell_angle_alpha 90.00000
_cell_angle_beta  91.04000
_cell_angle_gamma 90.00000

_symmetry_space_group_name_	'P 1'
_symmetry_space_group_name_H-M	'P 1'

loop_
_symmetry_equiv_pos_as_xyz
  x,y,z

loop_
_atom_site_label
_atom_site_type_symbol
_atom_site_fract_x
_atom_site_fract_y
_atom_site_fract_z
_atom_site_charge
N 	N 	0.64980 0.07245 0.88960 -0.20800
N 	N 	0.81970 0.07666 0.90130 -0.08600
N 	N 	0.72350 0.16316 0.78350 -0.09900
N 	N 	0.69740 0.22612 0.72340 -0.03500
N 	N 	0.82630 0.25718 0.72470 -0.02400
N 	N 	0.79780 0.32031 0.66700 -0.11200
N 	N 	0.86040 0.41846 0.59110 -0.21300
N 	N 	0.69280 0.41152 0.57540 -0.09400
N 	N 	0.33990 0.99677 0.80440 -0.18400
N 	N 	0.41650 0.99665 0.66640 -0.08700
N 	N 	0.15280 0.99861 0.63080 -0.09500
N 	N 	0.99670 0.00008 0.56940 -0.05000
C 	C 	0.59610 0.12419 0.81930 0.11500
H 	H 	0.48690 0.13320 0.79700 0.00100
C 	C 	0.86030 0.13204 0.83830 0.11000
H 	H 	0.96630 0.14820 0.83150 0.04500
C 	C 	0.91910 0.36429 0.64760 0.20600
H 	H 	0.02860 0.35690 0.67130 -0.05500
C 	C 	0.65820 0.35184 0.62180 0.10500
H 	H 	0.55390 0.33360 0.62370 0.02700
C 	C 	0.18240 0.99799 0.78060 0.11800
H 	H 	0.10340 0.99840 0.85400 0.03000
C 	C 	0.30230 0.99785 0.56500 0.11200
H 	H 	0.31920 0.99810 0.46260 0.04300
N 	N 	0.85020 0.57245 0.61040 -0.21500
N 	N 	0.68030 0.57666 0.59870 -0.09400
N 	N 	0.77650 0.66316 0.71650 -0.11100
N 	N 	0.80260 0.72612 0.77660 -0.02200
N 	N 	0.67370 0.75718 0.77530 -0.03100
N 	N 	0.70220 0.82031 0.83300 -0.09600
N 	N 	0.63960 0.91846 0.90890 -0.18300
N 	N 	0.80720 0.91152 0.92460 -0.06400
N 	N 	0.16010 0.49677 0.69560 -0.21400
N 	N 	0.08350 0.49665 0.83360 -0.13100
N 	N 	0.34720 0.49861 0.86920 -0.11100
N 	N 	0.50330 0.50008 0.93060 -0.00900
C 	C 	0.90390 0.62419 0.68070 0.20500
H 	H 	0.01310 0.63320 0.70300 -0.05500
C 	C 	0.63970 0.63204 0.66170 0.10700
H 	H 	0.53370 0.64820 0.66850 0.02700
C 	C 	0.58090 0.86429 0.85240 0.12100
H 	H 	0.47140 0.85690 0.82870 0.01100
C 	C 	0.84180 0.85184 0.87820 0.11400
H 	H 	0.94610 0.83360 0.87630 0.05100
C 	C 	0.31760 0.49799 0.71940 0.11300
H 	H 	0.39660 0.49840 0.64600 0.01400
C 	C 	0.19770 0.49785 0.93500 0.19800
H 	H 	0.18080 0.49810 0.03740 -0.04300
N 	N 	0.35020 0.92755 0.11040 -0.20400
N 	N 	0.18030 0.92334 0.09870 -0.10400
N 	N 	0.27650 0.83684 0.21650 -0.10300
N 	N 	0.30260 0.77388 0.27660 -0.04000
N 	N 	0.17370 0.74282 0.27530 -0.05100
N 	N 	0.20220 0.67969 0.33300 -0.09000
N 	N 	0.13960 0.58154 0.40890 -0.20000
N 	N 	0.30720 0.58848 0.42460 -0.09600
N 	N 	0.66010 0.00323 0.19560 -0.22600
N 	N 	0.58350 0.00335 0.33360 -0.12100
N 	N 	0.84720 0.00139 0.36920 -0.10700
N 	N 	0.00330 0.99992 0.43060 -0.02200
C 	C 	0.40390 0.87581 0.18070 0.10300
H 	H 	0.51310 0.86680 0.20300 0.01000
C 	C 	0.13970 0.86796 0.16170 0.09600
H 	H 	0.03370 0.85180 0.16850 0.00700
C 	C 	0.08090 0.63571 0.35240 0.01400
H 	H 	0.97140 0.64310 0.32870 0.06500
C 	C 	0.34180 0.64816 0.37820 0.09700
H 	H 	0.44610 0.66640 0.37630 0.02600
C 	C 	0.81760 0.00201 0.21940 0.10300
H 	H 	0.89660 0.00160 0.14600 -0.00000
C 	C 	0.69770 0.00215 0.43500 0.09900
H 	H 	0.68080 0.00190 0.53740 0.01300
N 	N 	0.14980 0.42755 0.38960 -0.20200
N 	N 	0.31970 0.42334 0.40130 -0.09600
N 	N 	0.22350 0.33684 0.28350 -0.09100
N 	N 	0.19740 0.27388 0.22340 -0.05300
N 	N 	0.32630 0.24282 0.22470 -0.04300
N 	N 	0.29780 0.17969 0.16700 -0.10600
N 	N 	0.36040 0.08154 0.09110 -0.22600
N 	N 	0.19280 0.08848 0.07540 -0.12600
N 	N 	0.83990 0.50323 0.30440 -0.19900
N 	N 	0.91650 0.50335 0.16640 -0.07700
N 	N 	0.65280 0.50139 0.13080 -0.09000
N 	N 	0.49670 0.49992 0.06940 -0.06400
C 	C 	0.09610 0.37581 0.31930 0.01400
H 	H 	0.98690 0.36680 0.29700 0.06400
C 	C 	0.36030 0.36796 0.33830 0.09900
H 	H 	0.46630 0.35180 0.33150 0.02400
C 	C 	0.41910 0.13571 0.14760 0.09800
H 	H 	0.52860 0.14310 0.17130 0.00100
C 	C 	0.15820 0.14816 0.12180 0.08700
H 	H 	0.05390 0.16640 0.12370 0.00100
C 	C 	0.68240 0.50201 0.28060 0.10800
H 	H 	0.60340 0.50160 0.35400 0.01600
C 	C 	0.80230 0.50215 0.06500 0.01100
H 	H 	0.81920 0.50190 0.96260 0.10000
Zn	Zn	0.50000 0.00000 -0.00000 1.15500
Zn	Zn	-0.00000 0.50000 0.50000 1.17400
