data_crystal

_cell_length_a 5.51440
_cell_length_b 8.00210
_cell_length_c 9.24670
_cell_angle_alpha 78.48700
_cell_angle_beta  72.86900
_cell_angle_gamma 87.20000

_symmetry_space_group_name_	'P 1'
_symmetry_space_group_name_H-M	'P 1'

loop_
_symmetry_equiv_pos_as_xyz
  x,y,z

loop_
_atom_site_label
_atom_site_type_symbol
_atom_site_fract_x
_atom_site_fract_y
_atom_site_fract_z
_atom_site_charge
Cd	Cd	-0.00000 0.00000 -0.00000 1.09400
Cd	Cd	0.50000 0.50000 0.50000 1.19500
H 	H 	0.55590 0.20080 0.26780 -0.06700
H 	H 	0.07880 0.51970 0.24060 -0.15900
H 	H 	0.23920 0.34290 0.06260 0.10100
H 	H 	0.44410 0.79920 0.73220 0.03600
H 	H 	0.92120 0.48030 0.75940 0.10000
H 	H 	0.76080 0.65710 0.93740 0.22000
C 	C 	0.71000 0.25920 0.23730 0.09800
C 	C 	0.99110 0.43230 0.22410 0.34500
C 	C 	0.29000 0.74080 0.76270 0.14400
C 	C 	0.00890 0.56770 0.77590 -0.04900
S 	S 	0.57944 0.20762 0.80731 0.71500
S 	S 	0.42056 0.79238 0.19269 0.72300
N 	N 	0.75210 0.38870 0.29970 -0.30000
N 	N 	0.90900 0.22340 0.12850 -0.19100
N 	N 	0.08650 0.33580 0.12320 -0.30400
N 	N 	0.24790 0.61130 0.70030 -0.22500
N 	N 	0.09100 0.77660 0.87150 -0.12500
N 	N 	0.91350 0.66420 0.87680 -0.08500
O 	O 	0.69480 0.30820 0.65030 -0.46100
O 	O 	0.33470 0.13660 0.80900 -0.47200
O 	O 	0.75140 0.06860 0.83610 -0.42300
O 	O 	0.53800 0.31820 0.91960 -0.26700
O 	O 	0.30520 0.69180 0.34970 -0.45700
O 	O 	0.66530 0.86340 0.19100 -0.38600
O 	O 	0.24860 0.93140 0.16390 -0.38500
O 	O 	0.46200 0.68180 0.08040 -0.41500
