data_crystal

_cell_length_a 8.02220
_cell_length_b 18.10990
_cell_length_c 21.95400
_cell_angle_alpha 90.00000
_cell_angle_beta  90.00000
_cell_angle_gamma 90.00000

_symmetry_space_group_name_	'P 1'
_symmetry_space_group_name_H-M	'P 1'

loop_
_symmetry_equiv_pos_as_xyz
  x,y,z

loop_
_atom_site_label
_atom_site_type_symbol
_atom_site_fract_x
_atom_site_fract_y
_atom_site_fract_z
_atom_site_charge
Cd	Cd	0.76819 0.09132 0.13978 1.13400
Cd	Cd	0.96011 0.25271 0.89004 1.17000
C 	C 	0.58980 0.16670 0.02050 0.07500
H 	H 	0.48270 0.16360 0.03660 -0.07100
C 	C 	0.84590 0.15750 0.00910 0.09100
H 	H 	0.95760 0.14610 0.01550 -0.08100
C 	C 	0.66710 0.92640 0.11090 0.09500
H 	H 	0.55760 0.94230 0.10610 -0.08000
C 	C 	0.92270 0.92440 0.12570 0.07700
H 	H 	0.03180 0.93940 0.13290 -0.07100
C 	C 	0.90940 0.15600 0.26550 0.07700
H 	H 	0.01640 0.13900 0.25700 -0.07900
C 	C 	0.65660 0.17910 0.25840 0.08600
H 	H 	0.54780 0.18230 0.24400 -0.08100
N 	N 	0.72720 0.13940 0.04880 -0.31200
N 	N 	0.79510 0.19190 0.96140 -0.24000
N 	N 	0.62520 0.19810 0.96780 -0.23100
N 	N 	0.77840 0.14650 0.22800 -0.32300
N 	N 	0.70410 0.20640 0.31060 -0.23300
N 	N 	0.86940 0.19180 0.31550 -0.22900
N 	N 	0.78870 0.97140 0.12310 -0.31100
N 	N 	0.71100 0.85680 0.10580 -0.23600
N 	N 	0.87720 0.85570 0.11660 -0.22600
Cd	Cd	0.23181 0.40868 0.63978 1.13400
Cd	Cd	0.03989 0.24729 0.39004 1.17100
C 	C 	0.41020 0.33330 0.52050 0.07600
H 	H 	0.51730 0.33640 0.53660 -0.07100
C 	C 	0.15410 0.34250 0.50910 0.09100
H 	H 	0.04240 0.35390 0.51550 -0.08000
C 	C 	0.33290 0.57360 0.61090 0.09500
H 	H 	0.44240 0.55770 0.60610 -0.08000
C 	C 	0.07730 0.57560 0.62570 0.07200
H 	H 	0.96820 0.56060 0.63290 -0.06800
C 	C 	0.09060 0.34400 0.76550 0.08100
H 	H 	0.98360 0.36100 0.75700 -0.08100
C 	C 	0.34340 0.32090 0.75840 0.08600
H 	H 	0.45220 0.31770 0.74400 -0.08100
N 	N 	0.27280 0.36060 0.54880 -0.31200
N 	N 	0.20490 0.30810 0.46140 -0.23900
N 	N 	0.37480 0.30190 0.46780 -0.23200
N 	N 	0.22160 0.35350 0.72800 -0.32300
N 	N 	0.29590 0.29360 0.81060 -0.23300
N 	N 	0.13060 0.30820 0.81550 -0.22900
N 	N 	0.21130 0.52860 0.62310 -0.31100
N 	N 	0.28900 0.64320 0.60580 -0.23600
N 	N 	0.12280 0.64430 0.61660 -0.22600
Cd	Cd	0.26819 0.90868 0.36022 1.13400
Cd	Cd	0.46011 0.74729 0.60996 1.17100
C 	C 	0.08980 0.83330 0.47950 0.07300
H 	H 	0.98270 0.83640 0.46340 -0.06900
C 	C 	0.34590 0.84250 0.49090 0.09100
H 	H 	0.45760 0.85390 0.48450 -0.08000
C 	C 	0.16710 0.07360 0.38910 0.09500
H 	H 	0.05760 0.05770 0.39390 -0.08000
C 	C 	0.42270 0.07560 0.37430 0.06900
H 	H 	0.53180 0.06060 0.36710 -0.06600
C 	C 	0.40940 0.84400 0.23450 0.07500
H 	H 	0.51640 0.86100 0.24300 -0.07800
C 	C 	0.15660 0.82090 0.24160 0.08600
H 	H 	0.04780 0.81770 0.25600 -0.08200
N 	N 	0.22720 0.86060 0.45120 -0.31200
N 	N 	0.29510 0.80810 0.53860 -0.23900
N 	N 	0.12520 0.80190 0.53220 -0.23100
N 	N 	0.27840 0.85350 0.27200 -0.32300
N 	N 	0.20410 0.79360 0.18940 -0.23400
N 	N 	0.36940 0.80820 0.18450 -0.22900
N 	N 	0.28870 0.02860 0.37690 -0.31100
N 	N 	0.21100 0.14320 0.39420 -0.23600
N 	N 	0.37720 0.14430 0.38340 -0.22600
Cd	Cd	0.73181 0.59132 0.86022 1.13400
Cd	Cd	0.53989 0.75271 0.10996 1.17100
C 	C 	0.91020 0.66670 0.97950 0.07100
H 	H 	0.01730 0.66360 0.96340 -0.06900
C 	C 	0.65410 0.65750 0.99090 0.08900
H 	H 	0.54240 0.64610 0.98450 -0.08000
C 	C 	0.83290 0.42640 0.88910 0.09500
H 	H 	0.94240 0.44230 0.89390 -0.08100
C 	C 	0.57730 0.42440 0.87430 0.06900
H 	H 	0.46820 0.43940 0.86710 -0.06600
C 	C 	0.59060 0.65600 0.73450 0.07500
H 	H 	0.48360 0.63900 0.74300 -0.07800
C 	C 	0.84340 0.67910 0.74160 0.08600
H 	H 	0.95220 0.68230 0.75600 -0.08200
N 	N 	0.77280 0.63940 0.95120 -0.31100
N 	N 	0.70490 0.69190 0.03860 -0.23800
N 	N 	0.87480 0.69810 0.03220 -0.23000
N 	N 	0.72160 0.64650 0.77200 -0.32300
N 	N 	0.79590 0.70640 0.68940 -0.23300
N 	N 	0.63060 0.69180 0.68450 -0.22900
N 	N 	0.71130 0.47140 0.87690 -0.31100
N 	N 	0.78900 0.35680 0.89420 -0.23600
N 	N 	0.62280 0.35570 0.88340 -0.22600
Cd	Cd	0.23181 0.90868 0.86022 1.13400
Cd	Cd	0.03989 0.74729 0.10996 1.17000
C 	C 	0.41020 0.83330 0.97950 0.07500
H 	H 	0.51730 0.83640 0.96340 -0.07100
C 	C 	0.15410 0.84250 0.99090 0.09100
H 	H 	0.04240 0.85390 0.98450 -0.08100
C 	C 	0.33290 0.07360 0.88910 0.09500
H 	H 	0.44240 0.05770 0.89390 -0.08000
C 	C 	0.07730 0.07560 0.87430 0.07700
H 	H 	0.96820 0.06060 0.86710 -0.07100
C 	C 	0.09060 0.84400 0.73450 0.07700
H 	H 	0.98360 0.86100 0.74300 -0.07900
C 	C 	0.34340 0.82090 0.74160 0.08600
H 	H 	0.45220 0.81770 0.75600 -0.08100
N 	N 	0.27280 0.86060 0.95120 -0.31200
N 	N 	0.20490 0.80810 0.03860 -0.24000
N 	N 	0.37480 0.80190 0.03220 -0.23100
N 	N 	0.22160 0.85350 0.77200 -0.32300
N 	N 	0.29590 0.79360 0.68940 -0.23300
N 	N 	0.13060 0.80820 0.68450 -0.22900
N 	N 	0.21130 0.02860 0.87690 -0.31100
N 	N 	0.28900 0.14320 0.89420 -0.23600
N 	N 	0.12280 0.14430 0.88340 -0.22600
Cd	Cd	0.76819 0.59132 0.36022 1.13400
Cd	Cd	0.96011 0.75271 0.60996 1.17100
C 	C 	0.58980 0.66670 0.47950 0.07600
H 	H 	0.48270 0.66360 0.46340 -0.07100
C 	C 	0.84590 0.65750 0.49090 0.09100
H 	H 	0.95760 0.64610 0.48450 -0.08000
C 	C 	0.66710 0.42640 0.38910 0.09500
H 	H 	0.55760 0.44230 0.39390 -0.08000
C 	C 	0.92270 0.42440 0.37430 0.07200
H 	H 	0.03180 0.43940 0.36710 -0.06800
C 	C 	0.90940 0.65600 0.23450 0.08100
H 	H 	0.01640 0.63900 0.24300 -0.08100
C 	C 	0.65660 0.67910 0.24160 0.08600
H 	H 	0.54780 0.68230 0.25600 -0.08100
N 	N 	0.72720 0.63940 0.45120 -0.31200
N 	N 	0.79510 0.69190 0.53860 -0.23900
N 	N 	0.62520 0.69810 0.53220 -0.23200
N 	N 	0.77840 0.64650 0.27200 -0.32300
N 	N 	0.70410 0.70640 0.18940 -0.23300
N 	N 	0.86940 0.69180 0.18450 -0.22900
N 	N 	0.78870 0.47140 0.37690 -0.31100
N 	N 	0.71100 0.35680 0.39420 -0.23600
N 	N 	0.87720 0.35570 0.38340 -0.22600
Cd	Cd	0.73181 0.09132 0.63978 1.13400
Cd	Cd	0.53989 0.25271 0.39004 1.17100
C 	C 	0.91020 0.16670 0.52050 0.07300
H 	H 	0.01730 0.16360 0.53660 -0.06900
C 	C 	0.65410 0.15750 0.50910 0.09100
H 	H 	0.54240 0.14610 0.51550 -0.08000
C 	C 	0.83290 0.92640 0.61090 0.09500
H 	H 	0.94240 0.94230 0.60610 -0.08000
C 	C 	0.57730 0.92440 0.62570 0.06900
H 	H 	0.46820 0.93940 0.63290 -0.06600
C 	C 	0.59060 0.15600 0.76550 0.07500
H 	H 	0.48360 0.13900 0.75700 -0.07800
C 	C 	0.84340 0.17910 0.75840 0.08600
H 	H 	0.95220 0.18230 0.74400 -0.08200
N 	N 	0.77280 0.13940 0.54880 -0.31200
N 	N 	0.70490 0.19190 0.46140 -0.23900
N 	N 	0.87480 0.19810 0.46780 -0.23100
N 	N 	0.72160 0.14650 0.72800 -0.32300
N 	N 	0.79590 0.20640 0.81060 -0.23400
N 	N 	0.63060 0.19180 0.81550 -0.22900
N 	N 	0.71130 0.97140 0.62310 -0.31100
N 	N 	0.78900 0.85680 0.60580 -0.23600
N 	N 	0.62280 0.85570 0.61660 -0.22600
Cd	Cd	0.26819 0.40868 0.13978 1.13400
Cd	Cd	0.46011 0.24729 0.89004 1.17100
C 	C 	0.08980 0.33330 0.02050 0.07100
H 	H 	0.98270 0.33640 0.03660 -0.06900
C 	C 	0.34590 0.34250 0.00910 0.08900
H 	H 	0.45760 0.35390 0.01550 -0.08000
C 	C 	0.16710 0.57360 0.11090 0.09500
H 	H 	0.05760 0.55770 0.10610 -0.08100
C 	C 	0.42270 0.57560 0.12570 0.06900
H 	H 	0.53180 0.56060 0.13290 -0.06600
C 	C 	0.40940 0.34400 0.26550 0.07500
H 	H 	0.51640 0.36100 0.25700 -0.07800
C 	C 	0.15660 0.32090 0.25840 0.08600
H 	H 	0.04780 0.31770 0.24400 -0.08200
N 	N 	0.22720 0.36060 0.04880 -0.31100
N 	N 	0.29510 0.30810 0.96140 -0.23800
N 	N 	0.12520 0.30190 0.96780 -0.23000
N 	N 	0.27840 0.35350 0.22800 -0.32300
N 	N 	0.20410 0.29360 0.31060 -0.23300
N 	N 	0.36940 0.30820 0.31550 -0.22900
N 	N 	0.28870 0.52860 0.12310 -0.31100
N 	N 	0.21100 0.64320 0.10580 -0.23600
N 	N 	0.37720 0.64430 0.11660 -0.22600
