data_crystal

_cell_length_a 29.64700
_cell_length_b 24.66900
_cell_length_c 9.74210
_cell_angle_alpha 90.00000
_cell_angle_beta  90.00000
_cell_angle_gamma 90.00000

_symmetry_space_group_name_	'P 1'
_symmetry_space_group_name_H-M	'P 1'

loop_
_symmetry_equiv_pos_as_xyz
  x,y,z

loop_
_atom_site_label
_atom_site_type_symbol
_atom_site_fract_x
_atom_site_fract_y
_atom_site_fract_z
_atom_site_charge
Zn	Zn	0.45812 0.23926 0.97830 1.17600
Zn	Zn	0.79653 0.18914 0.86100 1.19100
O 	O 	0.72317 0.22102 0.83570 -0.37000
O 	O 	0.74316 0.13711 0.87550 -0.43900
O 	O 	0.66737 0.25530 0.28070 -0.42900
O 	O 	0.69947 0.20015 0.13430 -0.36400
O 	O 	0.56286 0.29070 0.65140 -0.46900
O 	O 	0.61675 0.22966 0.62750 -0.35300
N 	N 	0.65256 0.63056 0.86520 -0.26600
N 	N 	0.47645 0.31768 0.97360 -0.31300
O 	O 	0.50976 0.19522 0.91410 -0.45700
O 	O 	0.55102 0.23509 0.07830 -0.26400
C 	C 	0.54704 0.20375 0.97870 0.26200
C 	C 	0.58608 0.17020 0.92960 -0.09600
C 	C 	0.57710 0.11442 0.90810 0.00800
H 	H 	0.54780 0.10130 0.91650 0.01900
C 	C 	0.61180 0.07968 0.87470 -0.09600
H 	H 	0.60610 0.04300 0.86140 0.04500
C 	C 	0.65578 0.09977 0.86080 0.00800
H 	H 	0.67920 0.07610 0.83970 0.03600
C 	C 	0.66481 0.15516 0.87830 -0.09200
C 	C 	0.71332 0.17271 0.86290 0.31500
C 	C 	0.62978 0.19152 0.91130 0.05500
C 	C 	0.67547 0.24082 0.15760 0.31100
C 	C 	0.65542 0.27478 0.04460 -0.06400
C 	C 	0.65581 0.33162 0.06400 0.12700
H 	H 	0.66790 0.34660 0.14350 0.00400
C 	C 	0.63795 0.36455 0.96300 -0.21700
H 	H 	0.63880 0.40200 0.97400 0.09200
C 	C 	0.61898 0.34294 0.84670 0.08700
H 	H 	0.60660 0.36580 0.78070 0.00700
C 	C 	0.61823 0.28747 0.82710 -0.12000
C 	C 	0.59874 0.26636 0.69340 0.33900
C 	C 	0.63644 0.25184 0.92570 0.03400
C 	C 	0.48771 0.34237 0.85550 0.09200
H 	H 	0.48050 0.32550 0.77290 -0.01900
C 	C 	0.50946 0.39163 0.85220 -0.16400
H 	H 	0.51590 0.40790 0.76830 0.09000
C 	C 	0.52176 0.41709 0.97330 0.08900
C 	C 	0.50862 0.39239 0.09590 -0.12000
H 	H 	0.51460 0.40910 0.17950 0.07500
C 	C 	0.48664 0.34292 0.09210 0.13700
H 	H 	0.47860 0.32650 0.17450 -0.01700
C 	C 	0.63740 0.60740 0.75360 0.11100
H 	H 	0.64610 0.62220 0.66980 -0.01000
C 	C 	0.60941 0.56260 0.75110 -0.18900
H 	H 	0.60050 0.54740 0.66820 0.09400
C 	C 	0.59489 0.54099 0.87410 0.13300
C 	C 	0.60874 0.56593 0.99210 -0.24300
H 	H 	0.59870 0.55340 0.07670 0.14800
C 	C 	0.63789 0.61010 0.98600 0.01700
H 	H 	0.64760 0.62600 0.06730 0.04400
C 	C 	0.56582 0.49247 0.87140 -0.06300
H 	H 	0.55880 0.47820 0.78560 0.04900
C 	C 	0.54877 0.46720 0.98050 -0.18500
H 	H 	0.55420 0.48210 0.06660 0.12400
Zn	Zn	0.45812 0.73926 0.47830 1.19000
Zn	Zn	0.79653 0.68914 0.36100 1.19700
O 	O 	0.72317 0.72102 0.33570 -0.35600
O 	O 	0.74316 0.63711 0.37550 -0.42300
O 	O 	0.66737 0.75530 0.78070 -0.44500
O 	O 	0.69947 0.70015 0.63430 -0.38700
O 	O 	0.56286 0.79070 0.15140 -0.44700
O 	O 	0.61675 0.72966 0.12750 -0.33300
N 	N 	0.65256 0.13056 0.36520 -0.27100
N 	N 	0.47645 0.81768 0.47360 -0.28000
O 	O 	0.50976 0.69522 0.41410 -0.46000
O 	O 	0.55102 0.73509 0.57830 -0.32700
C 	C 	0.54704 0.70375 0.47870 0.33200
C 	C 	0.58608 0.67020 0.42960 -0.10400
C 	C 	0.57710 0.61442 0.40810 0.02300
H 	H 	0.54780 0.60130 0.41650 0.02500
C 	C 	0.61180 0.57968 0.37470 -0.09100
H 	H 	0.60610 0.54300 0.36140 0.05600
C 	C 	0.65578 0.59977 0.36080 0.01300
H 	H 	0.67920 0.57610 0.33970 0.04500
C 	C 	0.66481 0.65516 0.37830 -0.08100
C 	C 	0.71332 0.67271 0.36290 0.31900
C 	C 	0.62978 0.69152 0.41130 0.06100
C 	C 	0.67547 0.74082 0.65760 0.31600
C 	C 	0.65542 0.77478 0.54460 -0.09800
C 	C 	0.65581 0.83162 0.56400 0.03200
H 	H 	0.66790 0.84660 0.64350 0.02200
C 	C 	0.63795 0.86455 0.46300 -0.10200
H 	H 	0.63880 0.90200 0.47400 0.06700
C 	C 	0.61898 0.84294 0.34670 0.04200
H 	H 	0.60660 0.86580 0.28070 0.03000
C 	C 	0.61823 0.78747 0.32710 -0.10200
C 	C 	0.59874 0.76636 0.19340 0.33100
C 	C 	0.63644 0.75184 0.42570 0.07600
C 	C 	0.48771 0.84237 0.35550 0.10000
H 	H 	0.48050 0.82550 0.27290 -0.01400
C 	C 	0.50946 0.89163 0.35220 -0.16300
H 	H 	0.51590 0.90790 0.26830 0.09500
C 	C 	0.52176 0.91709 0.47330 0.11300
C 	C 	0.50862 0.89239 0.59590 -0.16300
H 	H 	0.51460 0.90910 0.67950 0.07800
C 	C 	0.48664 0.84292 0.59210 0.08900
H 	H 	0.47860 0.82650 0.67450 -0.00700
C 	C 	0.63740 0.10740 0.25360 0.11600
H 	H 	0.64610 0.12220 0.16980 0.00300
C 	C 	0.60941 0.06260 0.25110 -0.19100
H 	H 	0.60050 0.04740 0.16820 0.11000
C 	C 	0.59489 0.04099 0.37410 0.13900
C 	C 	0.60874 0.06593 0.49210 -0.17800
H 	H 	0.59870 0.05340 0.57670 0.09300
C 	C 	0.63789 0.11010 0.48600 0.09100
H 	H 	0.64760 0.12600 0.56730 -0.01500
C 	C 	0.56582 0.99247 0.37140 -0.10200
H 	H 	0.55880 0.97820 0.28560 0.06700
C 	C 	0.54877 0.96720 0.48050 -0.07800
H 	H 	0.55420 0.98210 0.56660 0.05100
Zn	Zn	0.54188 0.76074 0.97830 1.17500
Zn	Zn	0.20347 0.81086 0.86100 1.19000
O 	O 	0.27683 0.77898 0.83570 -0.37100
O 	O 	0.25684 0.86289 0.87550 -0.44000
O 	O 	0.33263 0.74470 0.28070 -0.42900
O 	O 	0.30053 0.79985 0.13430 -0.36400
O 	O 	0.43714 0.70930 0.65140 -0.46900
O 	O 	0.38325 0.77034 0.62750 -0.35300
N 	N 	0.34744 0.36944 0.86520 -0.26600
N 	N 	0.52355 0.68232 0.97360 -0.31300
O 	O 	0.49024 0.80478 0.91410 -0.45700
O 	O 	0.44898 0.76491 0.07830 -0.26400
C 	C 	0.45296 0.79625 0.97870 0.26200
C 	C 	0.41392 0.82980 0.92960 -0.09600
C 	C 	0.42290 0.88558 0.90810 0.00800
H 	H 	0.45220 0.89870 0.91650 0.01900
C 	C 	0.38820 0.92032 0.87470 -0.09600
H 	H 	0.39390 0.95700 0.86140 0.04500
C 	C 	0.34422 0.90023 0.86080 0.00800
H 	H 	0.32080 0.92390 0.83970 0.03600
C 	C 	0.33519 0.84484 0.87830 -0.09200
C 	C 	0.28668 0.82729 0.86290 0.31500
C 	C 	0.37022 0.80848 0.91130 0.05500
C 	C 	0.32453 0.75918 0.15760 0.31100
C 	C 	0.34458 0.72522 0.04460 -0.06400
C 	C 	0.34419 0.66838 0.06400 0.12700
H 	H 	0.33210 0.65340 0.14350 0.00400
C 	C 	0.36205 0.63545 0.96300 -0.21700
H 	H 	0.36120 0.59800 0.97400 0.09200
C 	C 	0.38102 0.65706 0.84670 0.08700
H 	H 	0.39340 0.63420 0.78070 0.00700
C 	C 	0.38177 0.71253 0.82710 -0.12000
C 	C 	0.40126 0.73364 0.69340 0.33900
C 	C 	0.36356 0.74816 0.92570 0.03400
C 	C 	0.51229 0.65763 0.85550 0.09200
H 	H 	0.51950 0.67450 0.77290 -0.01900
C 	C 	0.49054 0.60837 0.85220 -0.16400
H 	H 	0.48410 0.59210 0.76830 0.09000
C 	C 	0.47824 0.58291 0.97330 0.08900
C 	C 	0.49138 0.60761 0.09590 -0.12000
H 	H 	0.48540 0.59090 0.17950 0.07500
C 	C 	0.51336 0.65708 0.09210 0.13700
H 	H 	0.52140 0.67350 0.17450 -0.01700
C 	C 	0.36260 0.39260 0.75360 0.11100
H 	H 	0.35390 0.37780 0.66980 -0.01000
C 	C 	0.39059 0.43740 0.75110 -0.18900
H 	H 	0.39950 0.45260 0.66820 0.09400
C 	C 	0.40511 0.45901 0.87410 0.13300
C 	C 	0.39126 0.43407 0.99210 -0.24300
H 	H 	0.40130 0.44660 0.07670 0.14800
C 	C 	0.36211 0.38990 0.98600 0.01700
H 	H 	0.35240 0.37400 0.06730 0.04400
C 	C 	0.43418 0.50753 0.87140 -0.06300
H 	H 	0.44120 0.52180 0.78560 0.04900
C 	C 	0.45123 0.53280 0.98050 -0.18500
H 	H 	0.44580 0.51790 0.06660 0.12400
Zn	Zn	0.54188 0.26074 0.47830 1.19000
Zn	Zn	0.20347 0.31086 0.36100 1.19700
O 	O 	0.27683 0.27898 0.33570 -0.35600
O 	O 	0.25684 0.36289 0.37550 -0.42300
O 	O 	0.33263 0.24470 0.78070 -0.44500
O 	O 	0.30053 0.29985 0.63430 -0.38700
O 	O 	0.43714 0.20930 0.15140 -0.44700
O 	O 	0.38325 0.27034 0.12750 -0.33300
N 	N 	0.34744 0.86944 0.36520 -0.27100
N 	N 	0.52355 0.18232 0.47360 -0.28000
O 	O 	0.49024 0.30478 0.41410 -0.46000
O 	O 	0.44898 0.26491 0.57830 -0.32700
C 	C 	0.45296 0.29625 0.47870 0.33200
C 	C 	0.41392 0.32980 0.42960 -0.10400
C 	C 	0.42290 0.38558 0.40810 0.02300
H 	H 	0.45220 0.39870 0.41650 0.02500
C 	C 	0.38820 0.42032 0.37470 -0.09100
H 	H 	0.39390 0.45700 0.36140 0.05600
C 	C 	0.34422 0.40023 0.36080 0.01300
H 	H 	0.32080 0.42390 0.33970 0.04500
C 	C 	0.33519 0.34484 0.37830 -0.08100
C 	C 	0.28668 0.32729 0.36290 0.31900
C 	C 	0.37022 0.30848 0.41130 0.06100
C 	C 	0.32453 0.25918 0.65760 0.31600
C 	C 	0.34458 0.22522 0.54460 -0.09800
C 	C 	0.34419 0.16838 0.56400 0.03200
H 	H 	0.33210 0.15340 0.64350 0.02200
C 	C 	0.36205 0.13545 0.46300 -0.10200
H 	H 	0.36120 0.09800 0.47400 0.06700
C 	C 	0.38102 0.15706 0.34670 0.04200
H 	H 	0.39340 0.13420 0.28070 0.03000
C 	C 	0.38177 0.21253 0.32710 -0.10200
C 	C 	0.40126 0.23364 0.19340 0.33100
C 	C 	0.36356 0.24816 0.42570 0.07600
C 	C 	0.51229 0.15763 0.35550 0.10000
H 	H 	0.51950 0.17450 0.27290 -0.01400
C 	C 	0.49054 0.10837 0.35220 -0.16300
H 	H 	0.48410 0.09210 0.26830 0.09500
C 	C 	0.47824 0.08291 0.47330 0.11300
C 	C 	0.49138 0.10761 0.59590 -0.16300
H 	H 	0.48540 0.09090 0.67950 0.07800
C 	C 	0.51336 0.15708 0.59210 0.08900
H 	H 	0.52140 0.17350 0.67450 -0.00700
C 	C 	0.36260 0.89260 0.25360 0.11600
H 	H 	0.35390 0.87780 0.16980 0.00300
C 	C 	0.39059 0.93740 0.25110 -0.19100
H 	H 	0.39950 0.95260 0.16820 0.11000
C 	C 	0.40511 0.95901 0.37410 0.13900
C 	C 	0.39126 0.93407 0.49210 -0.17800
H 	H 	0.40130 0.94660 0.57670 0.09300
C 	C 	0.36211 0.88990 0.48600 0.09100
H 	H 	0.35240 0.87400 0.56730 -0.01500
C 	C 	0.43418 0.00753 0.37140 -0.10200
H 	H 	0.44120 0.02180 0.28560 0.06700
C 	C 	0.45123 0.03280 0.48050 -0.07800
H 	H 	0.44580 0.01790 0.56660 0.05100
Zn	Zn	0.95812 0.26074 0.97830 1.17500
Zn	Zn	0.29653 0.31086 0.86100 1.19000
O 	O 	0.22317 0.27898 0.83570 -0.37100
O 	O 	0.24316 0.36289 0.87550 -0.44000
O 	O 	0.16737 0.24470 0.28070 -0.42900
O 	O 	0.19947 0.29985 0.13430 -0.36400
O 	O 	0.06286 0.20930 0.65140 -0.46900
O 	O 	0.11675 0.27034 0.62750 -0.35300
N 	N 	0.15256 0.86944 0.86520 -0.26600
N 	N 	0.97645 0.18232 0.97360 -0.31300
O 	O 	0.00976 0.30478 0.91410 -0.45700
O 	O 	0.05102 0.26491 0.07830 -0.26400
C 	C 	0.04704 0.29625 0.97870 0.26200
C 	C 	0.08608 0.32980 0.92960 -0.09600
C 	C 	0.07710 0.38558 0.90810 0.00800
H 	H 	0.04780 0.39870 0.91650 0.01900
C 	C 	0.11180 0.42032 0.87470 -0.09600
H 	H 	0.10610 0.45700 0.86140 0.04500
C 	C 	0.15578 0.40023 0.86080 0.00800
H 	H 	0.17920 0.42390 0.83970 0.03600
C 	C 	0.16481 0.34484 0.87830 -0.09200
C 	C 	0.21332 0.32729 0.86290 0.31500
C 	C 	0.12978 0.30848 0.91130 0.05500
C 	C 	0.17547 0.25918 0.15760 0.31100
C 	C 	0.15542 0.22522 0.04460 -0.06400
C 	C 	0.15581 0.16838 0.06400 0.12600
H 	H 	0.16790 0.15340 0.14350 0.00400
C 	C 	0.13795 0.13545 0.96300 -0.21700
H 	H 	0.13880 0.09800 0.97400 0.09200
C 	C 	0.11898 0.15706 0.84670 0.08600
H 	H 	0.10660 0.13420 0.78070 0.00700
C 	C 	0.11823 0.21253 0.82710 -0.12000
C 	C 	0.09874 0.23364 0.69340 0.33900
C 	C 	0.13644 0.24816 0.92570 0.03400
C 	C 	0.98771 0.15763 0.85550 0.09200
H 	H 	0.98050 0.17450 0.77290 -0.01900
C 	C 	0.00946 0.10837 0.85220 -0.16400
H 	H 	0.01590 0.09210 0.76830 0.09000
C 	C 	0.02176 0.08291 0.97330 0.08900
C 	C 	0.00862 0.10761 0.09590 -0.12000
H 	H 	0.01460 0.09090 0.17950 0.07500
C 	C 	0.98664 0.15708 0.09210 0.13600
H 	H 	0.97860 0.17350 0.17450 -0.01700
C 	C 	0.13740 0.89260 0.75360 0.11100
H 	H 	0.14610 0.87780 0.66980 -0.01000
C 	C 	0.10941 0.93740 0.75110 -0.18900
H 	H 	0.10050 0.95260 0.66820 0.09400
C 	C 	0.09489 0.95901 0.87410 0.13300
C 	C 	0.10874 0.93407 0.99210 -0.24300
H 	H 	0.09870 0.94660 0.07670 0.14700
C 	C 	0.13789 0.88990 0.98600 0.01700
H 	H 	0.14760 0.87400 0.06730 0.04400
C 	C 	0.06582 0.00753 0.87140 -0.06300
H 	H 	0.05880 0.02180 0.78560 0.04900
C 	C 	0.04877 0.03280 0.98050 -0.18400
H 	H 	0.05420 0.01790 0.06660 0.12400
Zn	Zn	0.95812 0.76074 0.47830 1.19000
Zn	Zn	0.29653 0.81086 0.36100 1.19700
O 	O 	0.22317 0.77898 0.33570 -0.35600
O 	O 	0.24316 0.86289 0.37550 -0.42300
O 	O 	0.16737 0.74470 0.78070 -0.44500
O 	O 	0.19947 0.79985 0.63430 -0.38700
O 	O 	0.06286 0.70930 0.15140 -0.44700
O 	O 	0.11675 0.77034 0.12750 -0.33300
N 	N 	0.15256 0.36944 0.36520 -0.27100
N 	N 	0.97645 0.68232 0.47360 -0.28000
O 	O 	0.00976 0.80478 0.41410 -0.46000
O 	O 	0.05102 0.76491 0.57830 -0.32700
C 	C 	0.04704 0.79625 0.47870 0.33300
C 	C 	0.08608 0.82980 0.42960 -0.10400
C 	C 	0.07710 0.88558 0.40810 0.02300
H 	H 	0.04780 0.89870 0.41650 0.02500
C 	C 	0.11180 0.92032 0.37470 -0.09100
H 	H 	0.10610 0.95700 0.36140 0.05600
C 	C 	0.15578 0.90023 0.36080 0.01300
H 	H 	0.17920 0.92390 0.33970 0.04500
C 	C 	0.16481 0.84484 0.37830 -0.08100
C 	C 	0.21332 0.82729 0.36290 0.31900
C 	C 	0.12978 0.80848 0.41130 0.06100
C 	C 	0.17547 0.75918 0.65760 0.31600
C 	C 	0.15542 0.72522 0.54460 -0.09800
C 	C 	0.15581 0.66838 0.56400 0.03200
H 	H 	0.16790 0.65340 0.64350 0.02200
C 	C 	0.13795 0.63545 0.46300 -0.10200
H 	H 	0.13880 0.59800 0.47400 0.06700
C 	C 	0.11898 0.65706 0.34670 0.04200
H 	H 	0.10660 0.63420 0.28070 0.03000
C 	C 	0.11823 0.71253 0.32710 -0.10200
C 	C 	0.09874 0.73364 0.19340 0.33100
C 	C 	0.13644 0.74816 0.42570 0.07600
C 	C 	0.98771 0.65763 0.35550 0.10000
H 	H 	0.98050 0.67450 0.27290 -0.01400
C 	C 	0.00946 0.60837 0.35220 -0.16300
H 	H 	0.01590 0.59210 0.26830 0.09500
C 	C 	0.02176 0.58291 0.47330 0.11300
C 	C 	0.00862 0.60761 0.59590 -0.16300
H 	H 	0.01460 0.59090 0.67950 0.07800
C 	C 	0.98664 0.65708 0.59210 0.08900
H 	H 	0.97860 0.67350 0.67450 -0.00700
C 	C 	0.13740 0.39260 0.25360 0.11600
H 	H 	0.14610 0.37780 0.16980 0.00300
C 	C 	0.10941 0.43740 0.25110 -0.19100
H 	H 	0.10050 0.45260 0.16820 0.11000
C 	C 	0.09489 0.45901 0.37410 0.13900
C 	C 	0.10874 0.43407 0.49210 -0.17800
H 	H 	0.09870 0.44660 0.57670 0.09300
C 	C 	0.13789 0.38990 0.48600 0.09100
H 	H 	0.14760 0.37400 0.56730 -0.01500
C 	C 	0.06582 0.50753 0.37140 -0.10200
H 	H 	0.05880 0.52180 0.28560 0.06700
C 	C 	0.04877 0.53280 0.48050 -0.07800
H 	H 	0.05420 0.51790 0.56660 0.05100
Zn	Zn	0.04188 0.73926 0.97830 1.17500
Zn	Zn	0.70347 0.68914 0.86100 1.19000
O 	O 	0.77683 0.72102 0.83570 -0.37100
O 	O 	0.75684 0.63711 0.87550 -0.44000
O 	O 	0.83263 0.75530 0.28070 -0.42900
O 	O 	0.80053 0.70015 0.13430 -0.36400
O 	O 	0.93714 0.79070 0.65140 -0.46900
O 	O 	0.88325 0.72966 0.62750 -0.35300
N 	N 	0.84744 0.13056 0.86520 -0.26600
N 	N 	0.02355 0.81768 0.97360 -0.31300
O 	O 	0.99024 0.69522 0.91410 -0.45700
O 	O 	0.94898 0.73509 0.07830 -0.26400
C 	C 	0.95296 0.70375 0.97870 0.26200
C 	C 	0.91392 0.67020 0.92960 -0.09600
C 	C 	0.92290 0.61442 0.90810 0.00800
H 	H 	0.95220 0.60130 0.91650 0.01900
C 	C 	0.88820 0.57968 0.87470 -0.09600
H 	H 	0.89390 0.54300 0.86140 0.04500
C 	C 	0.84422 0.59977 0.86080 0.00800
H 	H 	0.82080 0.57610 0.83970 0.03600
C 	C 	0.83519 0.65516 0.87830 -0.09200
C 	C 	0.78668 0.67271 0.86290 0.31500
C 	C 	0.87022 0.69152 0.91130 0.05500
C 	C 	0.82453 0.74082 0.15760 0.31100
C 	C 	0.84458 0.77478 0.04460 -0.06400
C 	C 	0.84419 0.83162 0.06400 0.12600
H 	H 	0.83210 0.84660 0.14350 0.00400
C 	C 	0.86205 0.86455 0.96300 -0.21700
H 	H 	0.86120 0.90200 0.97400 0.09200
C 	C 	0.88102 0.84294 0.84670 0.08600
H 	H 	0.89340 0.86580 0.78070 0.00700
C 	C 	0.88177 0.78747 0.82710 -0.12000
C 	C 	0.90126 0.76636 0.69340 0.33900
C 	C 	0.86356 0.75184 0.92570 0.03400
C 	C 	0.01229 0.84237 0.85550 0.09200
H 	H 	0.01950 0.82550 0.77290 -0.01900
C 	C 	0.99054 0.89163 0.85220 -0.16400
H 	H 	0.98410 0.90790 0.76830 0.09000
C 	C 	0.97824 0.91709 0.97330 0.08900
C 	C 	0.99138 0.89239 0.09590 -0.12000
H 	H 	0.98540 0.90910 0.17950 0.07500
C 	C 	0.01336 0.84292 0.09210 0.13600
H 	H 	0.02140 0.82650 0.17450 -0.01700
C 	C 	0.86260 0.10740 0.75360 0.11100
H 	H 	0.85390 0.12220 0.66980 -0.01000
C 	C 	0.89059 0.06260 0.75110 -0.18900
H 	H 	0.89950 0.04740 0.66820 0.09400
C 	C 	0.90511 0.04099 0.87410 0.13300
C 	C 	0.89126 0.06593 0.99210 -0.24300
H 	H 	0.90130 0.05340 0.07670 0.14700
C 	C 	0.86211 0.11010 0.98600 0.01700
H 	H 	0.85240 0.12600 0.06730 0.04400
C 	C 	0.93418 0.99247 0.87140 -0.06300
H 	H 	0.94120 0.97820 0.78560 0.04900
C 	C 	0.95123 0.96720 0.98050 -0.18400
H 	H 	0.94580 0.98210 0.06660 0.12400
Zn	Zn	0.04188 0.23926 0.47830 1.19000
Zn	Zn	0.70347 0.18914 0.36100 1.19700
O 	O 	0.77683 0.22102 0.33570 -0.35600
O 	O 	0.75684 0.13711 0.37550 -0.42300
O 	O 	0.83263 0.25530 0.78070 -0.44500
O 	O 	0.80053 0.20015 0.63430 -0.38700
O 	O 	0.93714 0.29070 0.15140 -0.44700
O 	O 	0.88325 0.22966 0.12750 -0.33300
N 	N 	0.84744 0.63056 0.36520 -0.27100
N 	N 	0.02355 0.31768 0.47360 -0.28000
O 	O 	0.99024 0.19522 0.41410 -0.46000
O 	O 	0.94898 0.23509 0.57830 -0.32700
C 	C 	0.95296 0.20375 0.47870 0.33300
C 	C 	0.91392 0.17020 0.42960 -0.10400
C 	C 	0.92290 0.11442 0.40810 0.02300
H 	H 	0.95220 0.10130 0.41650 0.02500
C 	C 	0.88820 0.07968 0.37470 -0.09100
H 	H 	0.89390 0.04300 0.36140 0.05600
C 	C 	0.84422 0.09977 0.36080 0.01300
H 	H 	0.82080 0.07610 0.33970 0.04500
C 	C 	0.83519 0.15516 0.37830 -0.08100
C 	C 	0.78668 0.17271 0.36290 0.31900
C 	C 	0.87022 0.19152 0.41130 0.06100
C 	C 	0.82453 0.24082 0.65760 0.31600
C 	C 	0.84458 0.27478 0.54460 -0.09800
C 	C 	0.84419 0.33162 0.56400 0.03200
H 	H 	0.83210 0.34660 0.64350 0.02200
C 	C 	0.86205 0.36455 0.46300 -0.10200
H 	H 	0.86120 0.40200 0.47400 0.06700
C 	C 	0.88102 0.34294 0.34670 0.04200
H 	H 	0.89340 0.36580 0.28070 0.03000
C 	C 	0.88177 0.28747 0.32710 -0.10200
C 	C 	0.90126 0.26636 0.19340 0.33100
C 	C 	0.86356 0.25184 0.42570 0.07600
C 	C 	0.01229 0.34237 0.35550 0.10000
H 	H 	0.01950 0.32550 0.27290 -0.01400
C 	C 	0.99054 0.39163 0.35220 -0.16300
H 	H 	0.98410 0.40790 0.26830 0.09500
C 	C 	0.97824 0.41709 0.47330 0.11300
C 	C 	0.99138 0.39239 0.59590 -0.16300
H 	H 	0.98540 0.40910 0.67950 0.07800
C 	C 	0.01336 0.34292 0.59210 0.08900
H 	H 	0.02140 0.32650 0.67450 -0.00700
C 	C 	0.86260 0.60740 0.25360 0.11600
H 	H 	0.85390 0.62220 0.16980 0.00300
C 	C 	0.89059 0.56260 0.25110 -0.19100
H 	H 	0.89950 0.54740 0.16820 0.11000
C 	C 	0.90511 0.54099 0.37410 0.13900
C 	C 	0.89126 0.56593 0.49210 -0.17800
H 	H 	0.90130 0.55340 0.57670 0.09300
C 	C 	0.86211 0.61010 0.48600 0.09100
H 	H 	0.85240 0.62600 0.56730 -0.01500
C 	C 	0.93418 0.49247 0.37140 -0.10200
H 	H 	0.94120 0.47820 0.28560 0.06700
C 	C 	0.95123 0.46720 0.48050 -0.07800
H 	H 	0.94580 0.48210 0.56660 0.05100
