data_crystal

_cell_length_a 10.15400
_cell_length_b 10.15400
_cell_length_c 15.51210
_cell_angle_alpha 72.08210
_cell_angle_beta  72.08210
_cell_angle_gamma 86.50780

_symmetry_space_group_name_	'P 1'
_symmetry_space_group_name_H-M	'P 1'

loop_
_symmetry_equiv_pos_as_xyz
  x,y,z

loop_
_atom_site_label
_atom_site_type_symbol
_atom_site_fract_x
_atom_site_fract_y
_atom_site_fract_z
_atom_site_charge
Cu	Cu	0.55399 0.00801 0.31352 0.87700
Cu	Cu	0.99199 0.44601 0.18648 0.87700
Cu	Cu	0.44601 0.99199 0.68648 0.87700
Cu	Cu	0.00801 0.55399 0.81352 0.87700
H 	H 	0.83800 0.15400 0.02600 0.04900
H 	H 	0.77600 0.20000 0.31100 0.03300
H 	H 	0.42900 0.25700 0.37400 0.05600
H 	H 	0.57200 0.23200 0.40600 0.03400
H 	H 	0.43800 0.27800 0.21700 0.05000
H 	H 	0.59700 0.24900 0.15400 0.03800
H 	H 	0.40200 0.48400 0.27300 0.05100
H 	H 	0.84600 0.16200 0.47400 0.04800
H 	H 	0.80000 0.22400 0.18900 0.03200
H 	H 	0.74300 0.57100 0.12600 0.05600
H 	H 	0.76800 0.42800 0.09400 0.03300
H 	H 	0.72200 0.56200 0.28300 0.05000
H 	H 	0.75100 0.40300 0.34600 0.03800
H 	H 	0.51600 0.59800 0.22700 0.05100
H 	H 	0.16200 0.84600 0.97400 0.04800
H 	H 	0.22400 0.80000 0.68900 0.03200
H 	H 	0.57100 0.74300 0.62600 0.05600
H 	H 	0.42800 0.76800 0.59400 0.03400
H 	H 	0.56200 0.72200 0.78300 0.05000
H 	H 	0.40300 0.75100 0.84600 0.03800
H 	H 	0.59800 0.51600 0.72700 0.05100
H 	H 	0.15400 0.83800 0.52600 0.04800
H 	H 	0.20000 0.77600 0.81100 0.03200
H 	H 	0.25700 0.42900 0.87400 0.05600
H 	H 	0.23200 0.57200 0.90600 0.03300
H 	H 	0.27800 0.43800 0.71700 0.05000
H 	H 	0.24900 0.59700 0.65400 0.03800
H 	H 	0.48400 0.40200 0.77300 0.05100
C 	C 	0.87960 0.96180 0.07670 -0.05300
C 	C 	0.98080 0.86500 0.06110 -0.04500
C 	C 	0.90190 0.09450 0.01590 -0.01300
C 	C 	0.74710 0.92250 0.15630 0.33700
C 	C 	0.96830 0.72050 0.12850 0.31400
C 	C 	0.52850 0.27630 0.35880 -0.02700
C 	C 	0.54700 0.29540 0.19640 -0.01600
C 	C 	0.03820 0.12040 0.42330 -0.05300
C 	C 	0.13500 0.01920 0.43890 -0.04500
C 	C 	0.90550 0.09810 0.48410 -0.01300
C 	C 	0.07750 0.25290 0.34370 0.33700
C 	C 	0.27950 0.03170 0.37150 0.31400
C 	C 	0.72370 0.47150 0.14120 -0.02700
C 	C 	0.70460 0.45300 0.30360 -0.01600
C 	C 	0.12040 0.03820 0.92330 -0.05300
C 	C 	0.01920 0.13500 0.93890 -0.04500
C 	C 	0.09810 0.90550 0.98410 -0.01300
C 	C 	0.25290 0.07750 0.84370 0.33700
C 	C 	0.03170 0.27950 0.87150 0.31400
C 	C 	0.47150 0.72370 0.64120 -0.02700
C 	C 	0.45300 0.70460 0.80360 -0.01600
C 	C 	0.96180 0.87960 0.57670 -0.05300
C 	C 	0.86500 0.98080 0.56110 -0.04500
C 	C 	0.09450 0.90190 0.51590 -0.01300
C 	C 	0.92250 0.74710 0.65630 0.33700
C 	C 	0.72050 0.96830 0.62850 0.31400
C 	C 	0.27630 0.52850 0.85880 -0.02700
C 	C 	0.29540 0.54700 0.69640 -0.01600
C 	C 	0.74910 0.25090 0.25000 -0.01900
C 	C 	0.50580 0.49420 0.25000 -0.00400
C 	C 	0.25090 0.74910 0.75000 -0.01900
C 	C 	0.49420 0.50580 0.75000 -0.00400
N 	N 	0.59710 0.21930 0.27860 -0.17200
N 	N 	0.55700 0.42500 0.33130 -0.09200
N 	N 	0.78070 0.40290 0.22140 -0.17200
N 	N 	0.57500 0.44300 0.16870 -0.09300
N 	N 	0.40290 0.78070 0.72140 -0.17200
N 	N 	0.44300 0.57500 0.66870 -0.09200
N 	N 	0.21930 0.59710 0.77860 -0.17200
N 	N 	0.42500 0.55700 0.83130 -0.09300
O 	O 	0.70380 0.01160 0.19910 -0.41400
O 	O 	0.68640 0.81100 0.17310 -0.28200
O 	O 	0.98630 0.62350 0.08920 -0.40600
O 	O 	0.94620 0.70040 0.21310 -0.30500
O 	O 	0.98840 0.29620 0.30090 -0.41400
O 	O 	0.18900 0.31360 0.32690 -0.28200
O 	O 	0.37650 0.01370 0.41080 -0.40600
O 	O 	0.29960 0.05380 0.28690 -0.30500
O 	O 	0.29620 0.98840 0.80090 -0.41400
O 	O 	0.31360 0.18900 0.82690 -0.28200
O 	O 	0.01370 0.37650 0.91080 -0.40600
O 	O 	0.05380 0.29960 0.78690 -0.30500
O 	O 	0.01160 0.70380 0.69910 -0.41400
O 	O 	0.81100 0.68640 0.67310 -0.28200
O 	O 	0.62350 0.98630 0.58920 -0.40600
O 	O 	0.70040 0.94620 0.71310 -0.30500
