data_crystal

_cell_length_a 14.62420
_cell_length_b 14.62420
_cell_length_c 15.18700
_cell_angle_alpha 90.00000
_cell_angle_beta  90.00000
_cell_angle_gamma 120.00000

_symmetry_space_group_name_	'P 1'
_symmetry_space_group_name_H-M	'P 1'

loop_
_symmetry_equiv_pos_as_xyz
  x,y,z

loop_
_atom_site_label
_atom_site_type_symbol
_atom_site_fract_x
_atom_site_fract_y
_atom_site_fract_z
_atom_site_charge
Dy	Dy	0.33333 0.66666 0.75000 1.96000
Dy	Dy	0.66667 0.33334 0.75000 1.95900
Dy	Dy	0.66667 0.33334 0.25000 1.95500
Dy	Dy	0.33333 0.66666 0.25000 1.95500
Cu	Cu	0.00000 0.50000 0.50000 0.91500
Cu	Cu	0.50000 0.00000 0.50000 0.91500
Cu	Cu	0.50000 0.50000 0.50000 0.95000
Cu	Cu	0.50000 0.50000 1.00000 0.96900
Cu	Cu	0.50000 0.00000 -0.00000 0.89800
Cu	Cu	-0.00000 0.50000 -0.00000 0.89700
H 	H 	0.16230 0.79630 0.65960 0.10300
H 	H 	0.08750 0.71760 0.73200 0.07900
H 	H 	0.63400 0.83770 0.65960 0.12000
H 	H 	0.63010 0.91250 0.73200 0.12900
H 	H 	0.20370 0.36600 0.65960 0.08100
H 	H 	0.28240 0.36990 0.73200 0.08700
H 	H 	0.83770 0.20370 0.65960 0.09900
H 	H 	0.91250 0.28240 0.73200 0.11700
H 	H 	0.36600 0.16230 0.65960 0.08200
H 	H 	0.36990 0.08750 0.73200 0.06700
H 	H 	0.79630 0.63400 0.65960 0.12300
H 	H 	0.71760 0.63010 0.73200 0.11000
H 	H 	0.36600 0.20370 0.84040 0.08600
H 	H 	0.36990 0.28240 0.76800 0.08700
H 	H 	0.79630 0.16230 0.84040 0.10800
H 	H 	0.71760 0.08750 0.76800 0.07800
H 	H 	0.83770 0.63400 0.84040 0.12400
H 	H 	0.91250 0.63010 0.76800 0.12900
H 	H 	0.63400 0.79630 0.84040 0.12700
H 	H 	0.63010 0.71760 0.76800 0.11000
H 	H 	0.20370 0.83770 0.84040 0.10400
H 	H 	0.28240 0.91250 0.76800 0.11700
H 	H 	0.16230 0.36600 0.84040 0.08700
H 	H 	0.08750 0.36990 0.76800 0.06700
H 	H 	0.83770 0.20370 0.34040 0.09800
H 	H 	0.91250 0.28240 0.26800 0.11500
H 	H 	0.36600 0.16230 0.34040 0.08000
H 	H 	0.36990 0.08750 0.26800 0.06300
H 	H 	0.79630 0.63400 0.34040 0.12100
H 	H 	0.71760 0.63010 0.26800 0.10700
H 	H 	0.16230 0.79630 0.34040 0.10200
H 	H 	0.08750 0.71760 0.26800 0.07500
H 	H 	0.63400 0.83770 0.34040 0.11900
H 	H 	0.63010 0.91250 0.26800 0.12700
H 	H 	0.20370 0.36600 0.34040 0.07900
H 	H 	0.28240 0.36990 0.26800 0.08300
H 	H 	0.63400 0.79630 0.15960 0.11700
H 	H 	0.63010 0.71760 0.23200 0.10700
H 	H 	0.20370 0.83770 0.15960 0.09300
H 	H 	0.28240 0.91250 0.23200 0.11500
H 	H 	0.16230 0.36600 0.15960 0.07500
H 	H 	0.08750 0.36990 0.23200 0.06300
H 	H 	0.36600 0.20370 0.15960 0.07400
H 	H 	0.36990 0.28240 0.23200 0.08400
H 	H 	0.79630 0.16230 0.15960 0.09700
H 	H 	0.71760 0.08750 0.23200 0.07500
H 	H 	0.83770 0.63400 0.15960 0.11400
H 	H 	0.91250 0.63010 0.23200 0.12600
C 	C 	0.13060 0.64500 0.63910 0.42400
C 	C 	0.14940 0.73670 0.69620 -0.20300
C 	C 	0.51440 0.86940 0.63910 0.43600
C 	C 	0.58730 0.85060 0.69620 -0.22800
C 	C 	0.35500 0.48560 0.63910 0.42000
C 	C 	0.26330 0.41270 0.69620 -0.19000
C 	C 	0.86940 0.35500 0.63910 0.42800
C 	C 	0.85060 0.26330 0.69620 -0.21000
C 	C 	0.48560 0.13060 0.63910 0.41600
C 	C 	0.41270 0.14940 0.69620 -0.18600
C 	C 	0.64500 0.51440 0.63910 0.43600
C 	C 	0.73670 0.58730 0.69620 -0.22600
C 	C 	0.48560 0.35500 0.86090 0.42100
C 	C 	0.41270 0.26330 0.80380 -0.19100
C 	C 	0.64500 0.13060 0.86090 0.42300
C 	C 	0.73670 0.14940 0.80380 -0.20200
C 	C 	0.86940 0.51440 0.86090 0.43500
C 	C 	0.85060 0.58730 0.80380 -0.22700
C 	C 	0.51440 0.64500 0.86090 0.43700
C 	C 	0.58730 0.73670 0.80380 -0.22600
C 	C 	0.35500 0.86940 0.86090 0.42700
C 	C 	0.26330 0.85060 0.80380 -0.21000
C 	C 	0.13060 0.48560 0.86090 0.41500
C 	C 	0.14940 0.41270 0.80380 -0.18500
C 	C 	0.86940 0.35500 0.36090 0.42700
C 	C 	0.85060 0.26330 0.30380 -0.20800
C 	C 	0.48560 0.13060 0.36090 0.41400
C 	C 	0.41270 0.14940 0.30380 -0.18200
C 	C 	0.64500 0.51440 0.36090 0.43500
C 	C 	0.73670 0.58730 0.30380 -0.22300
C 	C 	0.13060 0.64500 0.36090 0.42300
C 	C 	0.14940 0.73670 0.30380 -0.20000
C 	C 	0.51440 0.86940 0.36090 0.43500
C 	C 	0.58730 0.85060 0.30380 -0.22600
C 	C 	0.35500 0.48560 0.36090 0.41800
C 	C 	0.26330 0.41270 0.30380 -0.18700
C 	C 	0.51440 0.64500 0.13910 0.43600
C 	C 	0.58730 0.73670 0.19620 -0.22400
C 	C 	0.35500 0.86940 0.13910 0.42600
C 	C 	0.26330 0.85060 0.19620 -0.20800
C 	C 	0.13060 0.48560 0.13910 0.41300
C 	C 	0.14940 0.41270 0.19620 -0.18200
C 	C 	0.48560 0.35500 0.13910 0.42000
C 	C 	0.41270 0.26330 0.19620 -0.18800
C 	C 	0.64500 0.13060 0.13910 0.42200
C 	C 	0.73670 0.14940 0.19620 -0.20000
C 	C 	0.86940 0.51440 0.13910 0.43400
C 	C 	0.85060 0.58730 0.19620 -0.22500
O 	O 	0.19550 0.61250 0.64440 -0.45900
O 	O 	0.05290 0.61030 0.58940 -0.43900
O 	O 	0.41700 0.80450 0.64440 -0.44400
O 	O 	0.55740 0.94710 0.58940 -0.37400
O 	O 	0.38750 0.58300 0.64440 -0.45000
O 	O 	0.38970 0.44260 0.58940 -0.41800
O 	O 	0.80450 0.38750 0.64440 -0.44200
O 	O 	0.94710 0.38970 0.58940 -0.37700
O 	O 	0.58300 0.19550 0.64440 -0.45700
O 	O 	0.44260 0.05290 0.58940 -0.44100
O 	O 	0.61250 0.41700 0.64440 -0.45400
O 	O 	0.61030 0.55740 0.58940 -0.41200
O 	O 	0.58300 0.38750 0.85560 -0.44400
O 	O 	0.44260 0.38970 0.91060 -0.40700
O 	O 	0.61250 0.19550 0.85560 -0.45100
O 	O 	0.61030 0.05290 0.91060 -0.42000
O 	O 	0.80450 0.41700 0.85560 -0.43700
O 	O 	0.94710 0.55740 0.91060 -0.35800
O 	O 	0.41700 0.61250 0.85560 -0.44800
O 	O 	0.55740 0.61030 0.91060 -0.40200
O 	O 	0.38750 0.80450 0.85560 -0.43500
O 	O 	0.38970 0.94710 0.91060 -0.36000
O 	O 	0.19550 0.58300 0.85560 -0.44900
O 	O 	0.05290 0.44260 0.91060 -0.42200
O 	O 	0.80450 0.38750 0.35560 -0.44100
O 	O 	0.94710 0.38970 0.41060 -0.37600
O 	O 	0.58300 0.19550 0.35560 -0.45600
O 	O 	0.44260 0.05290 0.41060 -0.44100
O 	O 	0.61250 0.41700 0.35560 -0.45300
O 	O 	0.61030 0.55740 0.41060 -0.41200
O 	O 	0.19550 0.61250 0.35560 -0.45800
O 	O 	0.05290 0.61030 0.41060 -0.43900
O 	O 	0.41700 0.80450 0.35560 -0.44300
O 	O 	0.55740 0.94710 0.41060 -0.37400
O 	O 	0.38750 0.58300 0.35560 -0.45000
O 	O 	0.38970 0.44260 0.41060 -0.41700
O 	O 	0.41700 0.61250 0.14440 -0.46100
O 	O 	0.55740 0.61030 0.08940 -0.42900
O 	O 	0.38750 0.80450 0.14440 -0.44700
O 	O 	0.38970 0.94710 0.08940 -0.38600
O 	O 	0.19550 0.58300 0.14440 -0.46200
O 	O 	0.05290 0.44260 0.08940 -0.45100
O 	O 	0.58300 0.38750 0.14440 -0.45700
O 	O 	0.44260 0.38970 0.08940 -0.43500
O 	O 	0.61250 0.19550 0.14440 -0.46400
O 	O 	0.61030 0.05290 0.08940 -0.44900
O 	O 	0.80450 0.41700 0.14440 -0.44900
O 	O 	0.94710 0.55740 0.08940 -0.38300
O 	O 	0.23615 0.76385 0.75000 -0.22800
O 	O 	0.52770 0.76385 0.75000 -0.21600
O 	O 	0.23615 0.47230 0.75000 -0.24100
O 	O 	0.76385 0.23615 0.75000 -0.22900
O 	O 	0.47230 0.23615 0.75000 -0.24000
O 	O 	0.76385 0.52770 0.75000 -0.21600
O 	O 	0.76385 0.23615 0.25000 -0.23100
O 	O 	0.47230 0.23615 0.25000 -0.24300
O 	O 	0.76385 0.52770 0.25000 -0.21800
O 	O 	0.23615 0.76385 0.25000 -0.23100
O 	O 	0.52770 0.76385 0.25000 -0.21800
O 	O 	0.23615 0.47230 0.25000 -0.24300
