data_crystal

_cell_length_a 14.36830
_cell_length_b 14.36830
_cell_length_c 15.39300
_cell_angle_alpha 90.00000
_cell_angle_beta  90.00000
_cell_angle_gamma 120.00000

_symmetry_space_group_name_	'P 1'
_symmetry_space_group_name_H-M	'P 1'

loop_
_symmetry_equiv_pos_as_xyz
  x,y,z

loop_
_atom_site_label
_atom_site_type_symbol
_atom_site_fract_x
_atom_site_fract_y
_atom_site_fract_z
_atom_site_charge
Ho	Ho	0.66667 0.33334 0.75000 1.91900
Ho	Ho	0.33333 0.66666 0.75000 1.92000
Ho	Ho	0.33333 0.66666 0.25000 1.90900
Ho	Ho	0.66667 0.33334 0.25000 1.90900
Cu	Cu	-0.00000 0.50000 -0.00000 0.85900
Cu	Cu	0.50000 0.00000 -0.00000 0.85900
Cu	Cu	0.50000 0.50000 -0.00000 0.89200
Cu	Cu	0.50000 0.50000 0.50000 0.95100
Cu	Cu	0.50000 0.00000 0.50000 0.91700
Cu	Cu	0.00000 0.50000 0.50000 0.91700
H 	H 	0.91500 0.27830 0.77220 0.12100
H 	H 	0.83480 0.19840 0.84190 0.11700
H 	H 	0.36330 0.08500 0.77220 0.07100
H 	H 	0.36360 0.16520 0.84190 0.10200
H 	H 	0.72170 0.63670 0.77220 0.11400
H 	H 	0.80160 0.63640 0.84190 0.14200
H 	H 	0.08500 0.72170 0.77220 0.08200
H 	H 	0.16520 0.80160 0.84190 0.12300
H 	H 	0.63670 0.91500 0.77220 0.13300
H 	H 	0.63640 0.83480 0.84190 0.13800
H 	H 	0.27830 0.36330 0.77220 0.09000
H 	H 	0.19840 0.36360 0.84190 0.10000
H 	H 	0.63670 0.72170 0.72780 0.11400
H 	H 	0.63640 0.80160 0.65810 0.12600
H 	H 	0.27830 0.91500 0.72780 0.12100
H 	H 	0.19840 0.83480 0.65810 0.10100
H 	H 	0.08500 0.36330 0.72780 0.07100
H 	H 	0.16520 0.36360 0.65810 0.08600
H 	H 	0.36330 0.27830 0.72780 0.09100
H 	H 	0.36360 0.19840 0.65810 0.08400
H 	H 	0.72170 0.08500 0.72780 0.08300
H 	H 	0.80160 0.16520 0.65810 0.10800
H 	H 	0.91500 0.63670 0.72780 0.13300
H 	H 	0.83480 0.63640 0.65810 0.12300
H 	H 	0.08500 0.72170 0.22780 0.07300
H 	H 	0.16520 0.80160 0.15810 0.08800
H 	H 	0.63670 0.91500 0.22780 0.12400
H 	H 	0.63640 0.83480 0.15810 0.10300
H 	H 	0.27830 0.36330 0.22780 0.08000
H 	H 	0.19840 0.36360 0.15810 0.06300
H 	H 	0.91500 0.27830 0.22780 0.11200
H 	H 	0.83480 0.19840 0.15810 0.08200
H 	H 	0.36330 0.08500 0.22780 0.06100
H 	H 	0.36360 0.16520 0.15810 0.06500
H 	H 	0.72170 0.63670 0.22780 0.10400
H 	H 	0.80160 0.63640 0.15810 0.10600
H 	H 	0.36330 0.27830 0.27220 0.08100
H 	H 	0.36360 0.19840 0.34190 0.07900
H 	H 	0.72170 0.08500 0.27220 0.07400
H 	H 	0.80160 0.16520 0.34190 0.10300
H 	H 	0.91500 0.63670 0.27220 0.12500
H 	H 	0.83480 0.63640 0.34190 0.11800
H 	H 	0.63670 0.72170 0.27220 0.10500
H 	H 	0.63640 0.80160 0.34190 0.12200
H 	H 	0.27830 0.91500 0.27220 0.11300
H 	H 	0.19840 0.83480 0.34190 0.09700
H 	H 	0.08500 0.36330 0.27220 0.06200
H 	H 	0.16520 0.36360 0.34190 0.08100
C 	C 	0.86930 0.35330 0.86140 0.42900
C 	C 	0.85090 0.25990 0.80570 -0.21500
C 	C 	0.48400 0.13070 0.86140 0.41700
C 	C 	0.40900 0.14910 0.80570 -0.19000
C 	C 	0.64670 0.51600 0.86140 0.43700
C 	C 	0.74010 0.59100 0.80570 -0.23000
C 	C 	0.13070 0.64670 0.86140 0.42500
C 	C 	0.14910 0.74010 0.80570 -0.20800
C 	C 	0.51600 0.86930 0.86140 0.43700
C 	C 	0.59100 0.85090 0.80570 -0.23300
C 	C 	0.35330 0.48400 0.86140 0.42100
C 	C 	0.25990 0.40900 0.80570 -0.19500
C 	C 	0.51600 0.64670 0.63860 0.44000
C 	C 	0.59100 0.74010 0.69430 -0.23300
C 	C 	0.35330 0.86930 0.63860 0.43200
C 	C 	0.25990 0.85090 0.69430 -0.21700
C 	C 	0.13070 0.48400 0.63860 0.42000
C 	C 	0.14910 0.40900 0.69430 -0.19200
C 	C 	0.48400 0.35330 0.63860 0.42400
C 	C 	0.40900 0.25990 0.69430 -0.19700
C 	C 	0.64670 0.13070 0.63860 0.42800
C 	C 	0.74010 0.14910 0.69430 -0.21000
C 	C 	0.86930 0.51600 0.63860 0.44000
C 	C 	0.85090 0.59100 0.69430 -0.23500
C 	C 	0.13070 0.64670 0.13860 0.42200
C 	C 	0.14910 0.74010 0.19430 -0.20000
C 	C 	0.51600 0.86930 0.13860 0.43400
C 	C 	0.59100 0.85090 0.19430 -0.22500
C 	C 	0.35330 0.48400 0.13860 0.41700
C 	C 	0.25990 0.40900 0.19430 -0.18700
C 	C 	0.86930 0.35330 0.13860 0.42600
C 	C 	0.85090 0.25990 0.19430 -0.20700
C 	C 	0.48400 0.13070 0.13860 0.41300
C 	C 	0.40900 0.14910 0.19430 -0.18200
C 	C 	0.64670 0.51600 0.13860 0.43400
C 	C 	0.74010 0.59100 0.19430 -0.22300
C 	C 	0.48400 0.35330 0.36140 0.42000
C 	C 	0.40900 0.25990 0.30570 -0.18800
C 	C 	0.64670 0.13070 0.36140 0.42500
C 	C 	0.74010 0.14910 0.30570 -0.20200
C 	C 	0.86930 0.51600 0.36140 0.43700
C 	C 	0.85090 0.59100 0.30570 -0.22700
C 	C 	0.51600 0.64670 0.36140 0.43700
C 	C 	0.59100 0.74010 0.30570 -0.22500
C 	C 	0.35330 0.86930 0.36140 0.42900
C 	C 	0.25990 0.85090 0.30570 -0.20900
C 	C 	0.13070 0.48400 0.36140 0.41600
C 	C 	0.14910 0.40900 0.30570 -0.18400
O 	O 	0.80520 0.38750 0.85490 -0.41800
O 	O 	0.94790 0.38800 0.91200 -0.31900
O 	O 	0.58230 0.19480 0.85490 -0.43200
O 	O 	0.44010 0.05210 0.91200 -0.37900
O 	O 	0.61250 0.41770 0.85490 -0.42900
O 	O 	0.61200 0.55990 0.91200 -0.35100
O 	O 	0.19480 0.61250 0.85490 -0.43400
O 	O 	0.05210 0.61200 0.91200 -0.37700
O 	O 	0.41770 0.80520 0.85490 -0.42000
O 	O 	0.55990 0.94790 0.91200 -0.31600
O 	O 	0.38750 0.58230 0.85490 -0.42500
O 	O 	0.38800 0.44010 0.91200 -0.35600
O 	O 	0.41770 0.61250 0.64510 -0.45400
O 	O 	0.55990 0.61200 0.58800 -0.41000
O 	O 	0.38750 0.80520 0.64510 -0.44200
O 	O 	0.38800 0.94790 0.58800 -0.37600
O 	O 	0.19480 0.58230 0.64510 -0.45700
O 	O 	0.05210 0.44010 0.58800 -0.43900
O 	O 	0.58230 0.38750 0.64510 -0.45000
O 	O 	0.44010 0.38800 0.58800 -0.41600
O 	O 	0.61250 0.19480 0.64510 -0.45900
O 	O 	0.61200 0.05210 0.58800 -0.43600
O 	O 	0.80520 0.41770 0.64510 -0.44400
O 	O 	0.94790 0.55990 0.58800 -0.37300
O 	O 	0.19480 0.61250 0.14510 -0.47400
O 	O 	0.05210 0.61200 0.08800 -0.46800
O 	O 	0.41770 0.80520 0.14510 -0.45900
O 	O 	0.55990 0.94790 0.08800 -0.40500
O 	O 	0.38750 0.58230 0.14510 -0.46600
O 	O 	0.38800 0.44010 0.08800 -0.44800
O 	O 	0.80520 0.38750 0.14510 -0.45700
O 	O 	0.94790 0.38800 0.08800 -0.40700
O 	O 	0.58230 0.19480 0.14510 -0.47200
O 	O 	0.44010 0.05210 0.08800 -0.47100
O 	O 	0.61250 0.41770 0.14510 -0.47000
O 	O 	0.61200 0.55990 0.08800 -0.44300
O 	O 	0.58230 0.38750 0.35490 -0.44800
O 	O 	0.44010 0.38800 0.41200 -0.41500
O 	O 	0.61250 0.19480 0.35490 -0.45600
O 	O 	0.61200 0.05210 0.41200 -0.43500
O 	O 	0.80520 0.41770 0.35490 -0.44200
O 	O 	0.94790 0.55990 0.41200 -0.37200
O 	O 	0.41770 0.61250 0.35490 -0.45200
O 	O 	0.55990 0.61200 0.41200 -0.40900
O 	O 	0.38750 0.80520 0.35490 -0.44000
O 	O 	0.38800 0.94790 0.41200 -0.37400
O 	O 	0.19480 0.58230 0.35490 -0.45500
O 	O 	0.05210 0.44010 0.41200 -0.43800
O 	O 	0.76515 0.23485 0.75000 -0.22200
O 	O 	0.46970 0.23485 0.75000 -0.23400
O 	O 	0.76515 0.53030 0.75000 -0.21000
O 	O 	0.23485 0.76515 0.75000 -0.22200
O 	O 	0.53030 0.76515 0.75000 -0.20900
O 	O 	0.23485 0.46970 0.75000 -0.23400
O 	O 	0.23485 0.76515 0.25000 -0.22900
O 	O 	0.53030 0.76515 0.25000 -0.21600
O 	O 	0.23485 0.46970 0.25000 -0.24200
O 	O 	0.76515 0.23485 0.25000 -0.22900
O 	O 	0.46970 0.23485 0.25000 -0.24200
O 	O 	0.76515 0.53030 0.25000 -0.21600
