data_crystal

_cell_length_a 7.89580
_cell_length_b 9.60830
_cell_length_c 15.51400
_cell_angle_alpha 101.85000
_cell_angle_beta  90.00000
_cell_angle_gamma 90.00000

_symmetry_space_group_name_	'P 1'
_symmetry_space_group_name_H-M	'P 1'

loop_
_symmetry_equiv_pos_as_xyz
  x,y,z

loop_
_atom_site_label
_atom_site_type_symbol
_atom_site_fract_x
_atom_site_fract_y
_atom_site_fract_z
_atom_site_charge
Sm	Sm	0.39843 0.51074 0.54203 2.28400
Sm	Sm	0.38659 0.01618 0.53690 2.26800
Sm	Sm	0.89843 0.48926 0.45797 2.05600
Sm	Sm	0.88659 0.98382 0.46310 2.07600
Cu	Cu	0.54380 0.74651 0.00557 0.91600
Cu	Cu	0.04380 0.25349 0.99443 0.95000
H 	H 	0.58340 0.63040 0.80740 0.00200
H 	H 	0.06200 0.89280 0.89300 0.19900
H 	H 	0.02070 0.78340 0.74150 0.12300
H 	H 	0.02520 0.59800 0.11170 0.12400
H 	H 	0.00510 0.75580 0.24470 0.00500
H 	H 	0.47010 0.89760 0.20020 -0.00900
H 	H 	0.08340 0.36960 0.19260 0.01800
H 	H 	0.56200 0.10720 0.10700 0.07900
H 	H 	0.52070 0.21660 0.25850 -0.01300
H 	H 	0.52520 0.40200 0.88830 0.09000
H 	H 	0.50510 0.24420 0.75530 -0.02500
H 	H 	0.97010 0.10240 0.79980 -0.03900
C 	C 	0.74850 0.63360 0.66340 0.48300
C 	C 	0.79910 0.70190 0.76150 -0.13200
C 	C 	0.67950 0.68500 0.82460 0.09500
C 	C 	0.84130 0.82510 0.93330 0.03200
C 	C 	0.96450 0.84080 0.87470 -0.23900
C 	C 	0.93980 0.77490 0.78370 -0.06300
C 	C 	0.83420 0.90140 0.02890 0.27600
C 	C 	0.25410 0.58570 0.98000 0.28400
C 	C 	0.24160 0.67300 0.07430 0.03900
C 	C 	0.11000 0.66510 0.12900 -0.12800
C 	C 	0.10050 0.75460 0.20940 0.11600
C 	C 	0.23730 0.84420 0.23720 -0.17600
C 	C 	0.37580 0.84150 0.18140 0.11300
C 	C 	0.22880 0.94460 0.32650 0.45100
C 	C 	0.18160 0.26680 0.54520 0.67200
C 	C 	0.70600 0.24400 0.48100 0.65200
C 	C 	0.24850 0.36640 0.33660 0.48900
C 	C 	0.29910 0.29810 0.23850 -0.17500
C 	C 	0.17950 0.31500 0.17540 0.11900
C 	C 	0.34130 0.17490 0.06670 0.01800
C 	C 	0.46450 0.15920 0.12530 -0.11200
C 	C 	0.43980 0.22510 0.21630 0.08800
C 	C 	0.33420 0.09860 0.97110 0.28200
C 	C 	0.75410 0.41430 0.02000 0.29600
C 	C 	0.74160 0.32700 0.92570 0.00200
C 	C 	0.61000 0.33490 0.87100 -0.12800
C 	C 	0.60050 0.24540 0.79060 0.10900
C 	C 	0.73730 0.15580 0.76280 -0.20300
C 	C 	0.87580 0.15850 0.81860 0.11100
C 	C 	0.72880 0.05540 0.67350 0.46900
C 	C 	0.68160 0.73320 0.45480 0.69700
C 	C 	0.20600 0.75600 0.51900 0.63500
N 	N 	0.70090 0.74600 0.90890 -0.21700
N 	N 	0.37400 0.75740 0.09940 -0.21700
N 	N 	0.20090 0.25400 0.09110 -0.20500
N 	N 	0.87400 0.24260 0.90060 -0.24000
O 	O 	0.59910 0.60660 0.65110 -0.57900
O 	O 	0.87330 0.61930 0.61000 -0.55600
O 	O 	0.71490 0.86650 0.07370 -0.39100
O 	O 	0.94420 0.99180 0.05650 -0.32600
O 	O 	0.37570 0.62490 0.93520 -0.36700
O 	O 	0.15520 0.48860 0.95350 -0.27300
O 	O 	0.36350 0.97890 0.36910 -0.48300
O 	O 	0.07990 0.98570 0.34920 -0.48300
O 	O 	0.33580 0.27200 0.56790 -0.75200
O 	O 	0.10980 0.14510 0.53010 -0.66500
O 	O 	0.10480 0.38200 0.53850 -0.64000
O 	O 	0.65610 0.37190 0.51320 -0.71800
O 	O 	0.83490 0.22660 0.43020 -0.70100
O 	O 	0.63730 0.13390 0.50170 -0.73800
O 	O 	0.09910 0.39340 0.34890 -0.52100
O 	O 	0.37330 0.38070 0.39000 -0.53500
O 	O 	0.21490 0.13350 0.92630 -0.36000
O 	O 	0.44420 0.00820 0.94350 -0.27600
O 	O 	0.87570 0.37510 0.06480 -0.43400
O 	O 	0.65520 0.51140 0.04650 -0.32100
O 	O 	0.86350 0.02110 0.63090 -0.51600
O 	O 	0.57990 0.01430 0.65080 -0.55700
O 	O 	0.83580 0.72800 0.43210 -0.76900
O 	O 	0.60980 0.85490 0.46990 -0.71200
O 	O 	0.60480 0.61800 0.46150 -0.70100
O 	O 	0.15610 0.62810 0.48680 -0.67000
O 	O 	0.33490 0.77340 0.56980 -0.67300
O 	O 	0.13730 0.86610 0.49830 -0.68000
