data_crystal

_cell_length_a 5.22400
_cell_length_b 8.80000
_cell_length_c 26.05500
_cell_angle_alpha 90.00000
_cell_angle_beta  90.00000
_cell_angle_gamma 97.38000

_symmetry_space_group_name_	'P 1'
_symmetry_space_group_name_H-M	'P 1'

loop_
_symmetry_equiv_pos_as_xyz
  x,y,z

loop_
_atom_site_label
_atom_site_type_symbol
_atom_site_fract_x
_atom_site_fract_y
_atom_site_fract_z
_atom_site_charge
Lu	Lu	0.59652 0.47856 0.65917 1.16300
Lu	Lu	0.40348 0.02144 0.15917 1.15400
Lu	Lu	0.40348 0.52144 0.34083 1.16300
Lu	Lu	0.59652 0.97856 0.84083 1.15400
H 	H 	0.99500 0.88000 0.64420 0.11100
H 	H 	0.94400 0.85100 0.70160 0.13000
H 	H 	0.41400 0.98700 0.66470 0.12600
H 	H 	0.23100 0.07900 0.69430 0.12100
H 	H 	0.77620 0.55000 0.48300 0.10400
H 	H 	0.99950 0.65260 0.51110 0.10900
H 	H 	0.00500 0.62000 0.14420 0.12200
H 	H 	0.05600 0.64900 0.20160 0.14100
H 	H 	0.58600 0.51300 0.16470 0.11800
H 	H 	0.76900 0.42100 0.19430 0.10800
H 	H 	0.22380 0.95000 0.98300 0.10200
H 	H 	0.00050 0.84740 0.01110 0.11000
H 	H 	0.00500 0.12000 0.35580 0.11100
H 	H 	0.05600 0.14900 0.29840 0.13000
H 	H 	0.58600 0.01300 0.33530 0.12600
H 	H 	0.76900 0.92100 0.30570 0.12100
H 	H 	0.22380 0.45000 0.51700 0.10400
H 	H 	0.00050 0.34740 0.48890 0.10900
H 	H 	0.99500 0.38000 0.85580 0.12200
H 	H 	0.94400 0.35100 0.79840 0.14100
H 	H 	0.41400 0.48700 0.83530 0.11800
H 	H 	0.23100 0.57900 0.80570 0.10800
H 	H 	0.77620 0.05000 0.01700 0.10200
H 	H 	0.99950 0.15260 0.98890 0.11000
C 	C 	0.16500 0.70460 0.66850 0.43500
C 	C 	0.07640 0.85830 0.67597 -0.26300
C 	C 	0.29000 0.98410 0.68985 -0.26800
C 	C 	0.41320 0.96700 0.74140 0.34700
C 	C 	0.78030 0.51050 0.55961 0.33600
C 	C 	0.90970 0.54920 0.50886 -0.21800
C 	C 	0.83500 0.79540 0.16850 0.43800
C 	C 	0.92360 0.64170 0.17597 -0.29000
C 	C 	0.71000 0.51590 0.18985 -0.24000
C 	C 	0.58680 0.53300 0.24140 0.34900
C 	C 	0.21970 0.98950 0.05961 0.34500
C 	C 	0.09030 0.95080 0.00886 -0.21700
C 	C 	0.83500 0.29540 0.33150 0.43500
C 	C 	0.92360 0.14170 0.32403 -0.26300
C 	C 	0.71000 0.01590 0.31015 -0.26800
C 	C 	0.58680 0.03300 0.25860 0.34700
C 	C 	0.21970 0.48950 0.44039 0.33600
C 	C 	0.09030 0.45080 0.49114 -0.21800
C 	C 	0.16500 0.20460 0.83150 0.43800
C 	C 	0.07640 0.35830 0.82403 -0.29000
C 	C 	0.29000 0.48410 0.81015 -0.24000
C 	C 	0.41320 0.46700 0.75860 0.34900
C 	C 	0.78030 0.01050 0.94039 0.34500
C 	C 	0.90970 0.04920 0.99114 -0.21700
O 	O 	0.40000 0.69240 0.66646 -0.38900
O 	O 	0.99590 0.58970 0.66387 -0.42200
O 	O 	0.62690 0.04610 0.75162 -0.34300
O 	O 	0.30230 0.88020 0.77586 -0.36600
O 	O 	0.81130 0.39010 0.58401 -0.36200
O 	O 	0.64220 0.60370 0.57821 -0.35100
O 	O 	0.60000 0.80760 0.16646 -0.38700
O 	O 	0.00410 0.91030 0.16387 -0.41600
O 	O 	0.37310 0.45390 0.25162 -0.35100
O 	O 	0.69770 0.61980 0.27586 -0.36600
O 	O 	0.18870 0.10990 0.08401 -0.36900
O 	O 	0.35780 0.89630 0.07821 -0.35100
O 	O 	0.60000 0.30760 0.33354 -0.38900
O 	O 	0.00410 0.41030 0.33613 -0.42200
O 	O 	0.37310 0.95390 0.24838 -0.34300
O 	O 	0.69770 0.11980 0.22414 -0.36600
O 	O 	0.18870 0.60990 0.41599 -0.36200
O 	O 	0.35780 0.39630 0.42179 -0.35100
O 	O 	0.40000 0.19240 0.83354 -0.38700
O 	O 	0.99590 0.08970 0.83613 -0.41600
O 	O 	0.62690 0.54610 0.74838 -0.35100
O 	O 	0.30230 0.38020 0.72414 -0.36600
O 	O 	0.81130 0.89010 0.91599 -0.36900
O 	O 	0.64220 0.10370 0.92179 -0.35100
