data_crystal

_cell_length_a 12.68460
_cell_length_b 21.73790
_cell_length_c 21.28020
_cell_angle_alpha 90.00000
_cell_angle_beta  90.00000
_cell_angle_gamma 90.00000

_symmetry_space_group_name_	'P 1'
_symmetry_space_group_name_H-M	'P 1'

loop_
_symmetry_equiv_pos_as_xyz
  x,y,z

loop_
_atom_site_label
_atom_site_type_symbol
_atom_site_fract_x
_atom_site_fract_y
_atom_site_fract_z
_atom_site_charge
C 	C 	0.87040 0.01640 0.09470 0.30500
C 	C 	0.79040 0.99410 0.14160 -0.23300
H 	H 	0.72830 0.97950 0.11950 0.12100
H 	H 	0.81950 0.95990 0.16510 0.10900
C 	C 	0.65610 0.03020 0.21510 -0.13500
H 	H 	0.60440 0.02290 0.18230 0.03500
H 	H 	0.63340 0.06580 0.23900 0.01700
C 	C 	0.66030 0.97460 0.25830 0.01300
H 	H 	0.59140 0.96880 0.27710 0.00200
H 	H 	0.67590 0.93840 0.23330 -0.02600
C 	C 	0.84300 0.99530 0.28100 0.12300
H 	H 	0.86880 0.96000 0.25770 -0.04300
H 	H 	0.89300 0.00380 0.31440 -0.05600
C 	C 	0.83830 0.05090 0.23680 -0.18100
H 	H 	0.82090 0.08730 0.26100 0.02700
H 	H 	0.90750 0.05730 0.21840 0.04000
C 	C 	0.70790 0.02470 0.35710 -0.49300
H 	H 	0.67660 0.06010 0.33670 0.16600
H 	H 	0.76960 0.03850 0.38000 0.17300
C 	C 	0.62940 0.99720 0.40280 0.54600
C 	C 	0.33900 0.09160 0.49060 0.42900
C 	C 	0.25840 0.13825 0.51262 -0.37700
H 	H 	0.19130 0.11800 0.51960 0.14000
H 	H 	0.28120 0.15610 0.55210 0.13700
C 	C 	0.34200 0.22500 0.46770 -0.10800
H 	H 	0.40230 0.20020 0.45570 0.02900
H 	H 	0.35320 0.23960 0.51020 0.05400
C 	C 	0.33210 0.27960 0.42330 -0.03700
H 	H 	0.39660 0.30350 0.42530 0.00300
H 	H 	0.32520 0.26430 0.38060 -0.06700
C 	C 	0.14640 0.28280 0.44030 -0.04500
H 	H 	0.12870 0.26870 0.39840 -0.04200
H 	H 	0.08880 0.30840 0.45490 0.02100
C 	C 	0.15520 0.22700 0.48340 -0.10100
H 	H 	0.16420 0.24080 0.52640 0.05200
H 	H 	0.09050 0.20330 0.48120 0.03600
C 	C 	0.26010 0.35747 0.49344 -0.35100
H 	H 	0.28680 0.33140 0.52680 0.13700
H 	H 	0.19400 0.37540 0.50740 0.13800
C 	C 	0.33960 0.40870 0.47930 0.42200
N 	N 	0.75980 0.04356 0.18557 -0.16900
N 	N 	0.73980 0.97956 0.30931 -0.15700
N 	N 	0.24570 0.18720 0.46538 -0.13900
N 	N 	0.24230 0.32067 0.43661 -0.17000
O 	O 	0.88080 0.07191 0.08318 -0.47800
O 	O 	0.92400 0.97469 0.06808 -0.41700
O 	O 	0.61990 0.94126 0.40802 -0.52600
O 	O 	0.57950 0.03629 0.43616 -0.53300
O 	O 	0.39050 0.06435 0.53304 -0.48700
O 	O 	0.34960 0.08180 0.43350 -0.51600
O 	O 	0.38990 0.43054 0.52547 -0.47300
O 	O 	0.34880 0.42781 0.42521 -0.50800
Zn	Zn	0.75917 0.12803 0.12517 1.14800
Zn	Zn	0.74004 0.88965 0.35921 1.15400
C 	C 	0.37040 0.51640 0.09470 0.43100
C 	C 	0.29040 0.49410 0.14160 -0.37400
H 	H 	0.22830 0.47950 0.11950 0.14600
H 	H 	0.31950 0.45990 0.16510 0.13900
C 	C 	0.15610 0.53020 0.21510 -0.06600
H 	H 	0.10440 0.52290 0.18230 0.03000
H 	H 	0.13340 0.56580 0.23900 0.00400
C 	C 	0.16030 0.47460 0.25830 -0.05800
H 	H 	0.09140 0.46880 0.27710 0.01100
H 	H 	0.17590 0.43840 0.23330 -0.01100
C 	C 	0.34300 0.49530 0.28100 -0.06300
H 	H 	0.36880 0.46000 0.25770 -0.00000
H 	H 	0.39300 0.50380 0.31440 0.03100
C 	C 	0.33830 0.55090 0.23680 -0.05900
H 	H 	0.32090 0.58730 0.26100 -0.00500
H 	H 	0.40750 0.55730 0.21840 0.01100
C 	C 	0.20790 0.52470 0.35710 -0.36200
H 	H 	0.17660 0.56010 0.33670 0.13700
H 	H 	0.26960 0.53850 0.38000 0.14500
C 	C 	0.12940 0.49720 0.40280 0.42500
C 	C 	0.83900 0.59160 0.49060 0.42900
C 	C 	0.75840 0.63825 0.51262 -0.37500
H 	H 	0.69130 0.61800 0.51960 0.14200
H 	H 	0.78120 0.65610 0.55210 0.13800
C 	C 	0.84200 0.72500 0.46770 -0.10800
H 	H 	0.90230 0.70020 0.45570 0.02900
H 	H 	0.85320 0.73960 0.51020 0.05500
C 	C 	0.83210 0.77960 0.42330 -0.03800
H 	H 	0.89660 0.80350 0.42530 0.00500
H 	H 	0.82520 0.76430 0.38060 -0.06600
C 	C 	0.64640 0.78280 0.44030 -0.04500
H 	H 	0.62870 0.76870 0.39840 -0.04000
H 	H 	0.58880 0.80840 0.45490 0.02200
C 	C 	0.65520 0.72700 0.48340 -0.10100
H 	H 	0.66420 0.74080 0.52640 0.05200
H 	H 	0.59050 0.70330 0.48120 0.03700
C 	C 	0.76010 0.85747 0.49344 -0.34900
H 	H 	0.78680 0.83140 0.52680 0.13700
H 	H 	0.69400 0.87540 0.50740 0.13900
C 	C 	0.83960 0.90870 0.47930 0.41900
N 	N 	0.25980 0.54356 0.18557 -0.15800
N 	N 	0.23980 0.47956 0.30931 -0.16100
N 	N 	0.74570 0.68720 0.46538 -0.13900
N 	N 	0.74230 0.82067 0.43661 -0.17000
O 	O 	0.38080 0.57191 0.08318 -0.50600
O 	O 	0.42400 0.47469 0.06808 -0.49000
O 	O 	0.11990 0.44126 0.40802 -0.50200
O 	O 	0.07950 0.53629 0.43616 -0.47300
O 	O 	0.89050 0.56435 0.53304 -0.47600
O 	O 	0.84960 0.58180 0.43350 -0.50800
O 	O 	0.88990 0.93054 0.52547 -0.45700
O 	O 	0.84880 0.92781 0.42521 -0.49300
Zn	Zn	0.25917 0.62803 0.12517 1.15000
Zn	Zn	0.24004 0.38965 0.35921 1.15100
C 	C 	0.12960 0.98360 0.59470 0.54800
C 	C 	0.20960 0.00590 0.64160 -0.50100
H 	H 	0.27170 0.02050 0.61950 0.17200
H 	H 	0.18050 0.04010 0.66510 0.16700
C 	C 	0.34390 0.96980 0.71510 0.00000
H 	H 	0.39560 0.97710 0.68230 0.02700
H 	H 	0.36660 0.93420 0.73900 -0.00800
C 	C 	0.33970 0.02540 0.75830 -0.12400
H 	H 	0.40860 0.03120 0.77710 0.01900
H 	H 	0.32410 0.06160 0.73330 0.00400
C 	C 	0.15700 0.00470 0.78100 -0.23400
H 	H 	0.13120 0.04000 0.75770 0.04000
H 	H 	0.10700 0.99620 0.81440 0.11300
C 	C 	0.16170 0.94910 0.73680 0.05300
H 	H 	0.17910 0.91270 0.76100 -0.03500
H 	H 	0.09250 0.94270 0.71840 -0.01600
C 	C 	0.29210 0.97530 0.85710 -0.24200
H 	H 	0.32340 0.93990 0.83670 0.11000
H 	H 	0.23040 0.96150 0.88000 0.12200
C 	C 	0.37060 0.00280 0.90280 0.31200
C 	C 	0.66100 0.90840 0.99060 0.53900
C 	C 	0.74160 0.86175 0.01262 -0.49400
H 	H 	0.80870 0.88200 0.01960 0.16600
H 	H 	0.71880 0.84390 0.05210 0.17000
C 	C 	0.65800 0.77500 0.96770 -0.00900
H 	H 	0.59770 0.79980 0.95570 0.00900
H 	H 	0.64680 0.76040 0.01020 -0.00100
C 	C 	0.66790 0.72040 0.92330 -0.07400
H 	H 	0.60340 0.69650 0.92530 0.02000
H 	H 	0.67480 0.73570 0.88060 -0.05700
C 	C 	0.85360 0.71720 0.94030 -0.07800
H 	H 	0.87130 0.73130 0.89840 -0.03300
H 	H 	0.91120 0.69160 0.95490 0.04200
C 	C 	0.84480 0.77300 0.98340 -0.00700
H 	H 	0.83580 0.75920 0.02640 0.00000
H 	H 	0.90950 0.79670 0.98120 0.02100
C 	C 	0.73990 0.64253 0.99344 -0.18500
H 	H 	0.71320 0.66860 0.02680 0.06400
H 	H 	0.80600 0.62460 0.00740 0.05800
C 	C 	0.66040 0.59130 0.97930 0.43200
N 	N 	0.24020 0.95644 0.68557 -0.14800
N 	N 	0.26020 0.02044 0.80931 -0.16400
N 	N 	0.75430 0.81280 0.96538 -0.13400
N 	N 	0.75770 0.67933 0.93661 -0.17800
O 	O 	0.11920 0.92809 0.58318 -0.52200
O 	O 	0.07600 0.02531 0.56808 -0.53800
O 	O 	0.38010 0.05874 0.90802 -0.46900
O 	O 	0.42050 0.96371 0.93616 -0.40000
O 	O 	0.60950 0.93565 0.03304 -0.51300
O 	O 	0.65040 0.91820 0.93350 -0.52100
O 	O 	0.61010 0.56946 0.02547 -0.50200
O 	O 	0.65120 0.57219 0.92521 -0.50400
Zn	Zn	0.24083 0.87197 0.62517 1.15300
Zn	Zn	0.25996 0.11035 0.85921 1.14900
C 	C 	0.62960 0.48360 0.59470 0.43100
C 	C 	0.70960 0.50590 0.64160 -0.37100
H 	H 	0.77170 0.52050 0.61950 0.14700
H 	H 	0.68050 0.54010 0.66510 0.13900
C 	C 	0.84390 0.46980 0.71510 -0.06500
H 	H 	0.89560 0.47710 0.68230 0.03000
H 	H 	0.86660 0.43420 0.73900 0.00300
C 	C 	0.83970 0.52540 0.75830 -0.05800
H 	H 	0.90860 0.53120 0.77710 0.01000
H 	H 	0.82410 0.56160 0.73330 -0.01100
C 	C 	0.65700 0.50470 0.78100 -0.06400
H 	H 	0.63120 0.54000 0.75770 0.00000
H 	H 	0.60700 0.49620 0.81440 0.03200
C 	C 	0.66170 0.44910 0.73680 -0.05900
H 	H 	0.67910 0.41270 0.76100 -0.00600
H 	H 	0.59250 0.44270 0.71840 0.01100
C 	C 	0.79210 0.47530 0.85710 -0.36200
H 	H 	0.82340 0.43990 0.83670 0.13600
H 	H 	0.73040 0.46150 0.88000 0.14700
C 	C 	0.87060 0.50280 0.90280 0.42300
C 	C 	0.16100 0.40840 0.99060 0.55700
C 	C 	0.24160 0.36175 0.01262 -0.51300
H 	H 	0.30870 0.38200 0.01960 0.16600
H 	H 	0.21880 0.34390 0.05210 0.17300
C 	C 	0.15800 0.27500 0.96770 0.00500
H 	H 	0.09770 0.29980 0.95570 0.00600
H 	H 	0.14680 0.26040 0.01020 -0.00900
C 	C 	0.16790 0.22040 0.92330 -0.07900
H 	H 	0.10340 0.19650 0.92530 0.02100
H 	H 	0.17480 0.23570 0.88060 -0.05700
C 	C 	0.35360 0.21720 0.94030 -0.08300
H 	H 	0.37130 0.23130 0.89840 -0.03200
H 	H 	0.41120 0.19160 0.95490 0.04400
C 	C 	0.34480 0.27300 0.98340 0.00800
H 	H 	0.33580 0.25920 0.02640 -0.00900
H 	H 	0.40950 0.29670 0.98120 0.01800
C 	C 	0.23990 0.14253 0.99344 -0.16500
H 	H 	0.21320 0.16860 0.02680 0.05400
H 	H 	0.30600 0.12460 0.00740 0.04600
C 	C 	0.16040 0.09130 0.97930 0.43400
N 	N 	0.74020 0.45644 0.68557 -0.15800
N 	N 	0.76020 0.52044 0.80931 -0.16100
N 	N 	0.25430 0.31280 0.96538 -0.13300
N 	N 	0.25770 0.17933 0.93661 -0.18000
O 	O 	0.61920 0.42809 0.58318 -0.49800
O 	O 	0.57600 0.52531 0.56808 -0.47800
O 	O 	0.88010 0.55874 0.90802 -0.49400
O 	O 	0.92050 0.46371 0.93616 -0.46000
O 	O 	0.10950 0.43565 0.03304 -0.53900
O 	O 	0.15040 0.41820 0.93350 -0.53400
O 	O 	0.11010 0.06946 0.02547 -0.51600
O 	O 	0.15120 0.07219 0.92521 -0.51400
Zn	Zn	0.74083 0.37197 0.62517 1.15100
Zn	Zn	0.75996 0.61035 0.85921 1.15100
C 	C 	0.12960 0.01640 0.40530 0.30800
C 	C 	0.20960 0.99410 0.35840 -0.23600
H 	H 	0.27170 0.97950 0.38050 0.12300
H 	H 	0.18050 0.95990 0.33490 0.11000
C 	C 	0.34390 0.03020 0.28490 -0.13600
H 	H 	0.39560 0.02290 0.31770 0.03500
H 	H 	0.36660 0.06580 0.26100 0.01700
C 	C 	0.33970 0.97460 0.24170 0.01200
H 	H 	0.40860 0.96880 0.22290 0.00300
H 	H 	0.32410 0.93840 0.26670 -0.02600
C 	C 	0.15700 0.99530 0.21900 0.12400
H 	H 	0.13120 0.96000 0.24230 -0.04300
H 	H 	0.10700 0.00380 0.18560 -0.05700
C 	C 	0.16170 0.05090 0.26320 -0.18200
H 	H 	0.17910 0.08730 0.23900 0.02800
H 	H 	0.09250 0.05730 0.28160 0.04100
C 	C 	0.29210 0.02470 0.14290 -0.49800
H 	H 	0.32340 0.06010 0.16330 0.16700
H 	H 	0.23040 0.03850 0.12000 0.17200
C 	C 	0.37060 0.99720 0.09720 0.55100
C 	C 	0.66100 0.09160 0.00940 0.30100
C 	C 	0.74160 0.13825 0.98738 -0.24000
H 	H 	0.80870 0.11800 0.98040 0.11600
H 	H 	0.71880 0.15610 0.94790 0.10200
C 	C 	0.65800 0.22500 0.03230 -0.21700
H 	H 	0.59770 0.20020 0.04430 0.05200
H 	H 	0.64680 0.23960 0.98980 0.11500
C 	C 	0.66790 0.27960 0.07670 0.00300
H 	H 	0.60340 0.30350 0.07470 -0.01400
H 	H 	0.67480 0.26430 0.11940 -0.07800
C 	C 	0.85360 0.28280 0.05970 -0.00800
H 	H 	0.87130 0.26870 0.10160 -0.05200
H 	H 	0.91120 0.30840 0.04510 -0.00200
C 	C 	0.84480 0.22700 0.01660 -0.20400
H 	H 	0.83580 0.24080 0.97360 0.10800
H 	H 	0.90950 0.20330 0.01880 0.05300
C 	C 	0.73990 0.35747 0.00656 -0.52600
H 	H 	0.71320 0.33140 0.97320 0.21400
H 	H 	0.80600 0.37540 0.99260 0.22200
C 	C 	0.66040 0.40870 0.02070 0.41200
N 	N 	0.24020 0.04356 0.31443 -0.16800
N 	N 	0.26020 0.97956 0.19069 -0.15600
N 	N 	0.75430 0.18720 0.03462 -0.14600
N 	N 	0.75770 0.32067 0.06339 -0.16200
O 	O 	0.11920 0.07191 0.41682 -0.47000
O 	O 	0.07600 0.97469 0.43192 -0.40800
O 	O 	0.38010 0.94126 0.09198 -0.53300
O 	O 	0.42050 0.03629 0.06384 -0.54500
O 	O 	0.60950 0.06435 0.96696 -0.41700
O 	O 	0.65040 0.08180 0.06650 -0.48800
O 	O 	0.61010 0.43054 0.97453 -0.43700
O 	O 	0.65120 0.42781 0.07479 -0.51000
Zn	Zn	0.24083 0.12803 0.37483 1.14900
Zn	Zn	0.25996 0.88965 0.14079 1.15500
C 	C 	0.62960 0.51640 0.40530 0.43100
C 	C 	0.70960 0.49410 0.35840 -0.37100
H 	H 	0.77170 0.47950 0.38050 0.14700
H 	H 	0.68050 0.45990 0.33490 0.13900
C 	C 	0.84390 0.53020 0.28490 -0.06500
H 	H 	0.89560 0.52290 0.31770 0.03000
H 	H 	0.86660 0.56580 0.26100 0.00400
C 	C 	0.83970 0.47460 0.24170 -0.05800
H 	H 	0.90860 0.46880 0.22290 0.01100
H 	H 	0.82410 0.43840 0.26670 -0.01100
C 	C 	0.65700 0.49530 0.21900 -0.06300
H 	H 	0.63120 0.46000 0.24230 -0.00000
H 	H 	0.60700 0.50380 0.18560 0.03100
C 	C 	0.66170 0.55090 0.26320 -0.05900
H 	H 	0.67910 0.58730 0.23900 -0.00500
H 	H 	0.59250 0.55730 0.28160 0.01100
C 	C 	0.79210 0.52470 0.14290 -0.36300
H 	H 	0.82340 0.56010 0.16330 0.13700
H 	H 	0.73040 0.53850 0.12000 0.14400
C 	C 	0.87060 0.49720 0.09720 0.42500
C 	C 	0.16100 0.59160 0.00940 0.30300
C 	C 	0.24160 0.63825 0.98738 -0.24200
H 	H 	0.30870 0.61800 0.98040 0.11900
H 	H 	0.21880 0.65610 0.94790 0.10400
C 	C 	0.15800 0.72500 0.03230 -0.21400
H 	H 	0.09770 0.70020 0.04430 0.05200
H 	H 	0.14680 0.73960 0.98980 0.11400
C 	C 	0.16790 0.77960 0.07670 0.00100
H 	H 	0.10340 0.80350 0.07470 -0.01200
H 	H 	0.17480 0.76430 0.11940 -0.07500
C 	C 	0.35360 0.78280 0.05970 -0.00900
H 	H 	0.37130 0.76870 0.10160 -0.05000
H 	H 	0.41120 0.80840 0.04510 0.00000
C 	C 	0.34480 0.72700 0.01660 -0.20200
H 	H 	0.33580 0.74080 0.97360 0.10800
H 	H 	0.40950 0.70330 0.01880 0.05400
C 	C 	0.23990 0.85747 0.00656 -0.51800
H 	H 	0.21320 0.83140 0.97320 0.21200
H 	H 	0.30600 0.87540 0.99260 0.22100
C 	C 	0.16040 0.90870 0.02070 0.41000
N 	N 	0.74020 0.54356 0.31443 -0.15800
N 	N 	0.76020 0.47956 0.19069 -0.16000
N 	N 	0.25430 0.68720 0.03462 -0.14500
N 	N 	0.25770 0.82067 0.06339 -0.16200
O 	O 	0.61920 0.57191 0.41682 -0.49700
O 	O 	0.57600 0.47469 0.43192 -0.47800
O 	O 	0.88010 0.44126 0.09198 -0.50800
O 	O 	0.92050 0.53629 0.06384 -0.48200
O 	O 	0.10950 0.56435 0.96696 -0.40600
O 	O 	0.15040 0.58180 0.06650 -0.48000
O 	O 	0.11010 0.93054 0.97453 -0.42200
O 	O 	0.15120 0.92781 0.07479 -0.49500
Zn	Zn	0.74083 0.62803 0.37483 1.15100
Zn	Zn	0.75996 0.38965 0.14079 1.15200
C 	C 	0.87040 0.98360 0.90530 0.54000
C 	C 	0.79040 0.00590 0.85840 -0.49200
H 	H 	0.72830 0.02050 0.88050 0.17200
H 	H 	0.81950 0.04010 0.83490 0.16500
C 	C 	0.65610 0.96980 0.78490 0.00000
H 	H 	0.60440 0.97710 0.81770 0.02700
H 	H 	0.63340 0.93420 0.76100 -0.00800
C 	C 	0.66030 0.02540 0.74170 -0.12300
H 	H 	0.59140 0.03120 0.72290 0.01900
H 	H 	0.67590 0.06160 0.76670 0.00400
C 	C 	0.84300 0.00470 0.71900 -0.23600
H 	H 	0.86880 0.04000 0.74230 0.04000
H 	H 	0.89300 0.99620 0.68560 0.11300
C 	C 	0.83830 0.94910 0.76320 0.05500
H 	H 	0.82090 0.91270 0.73900 -0.03600
H 	H 	0.90750 0.94270 0.78160 -0.01800
C 	C 	0.70790 0.97530 0.64290 -0.23600
H 	H 	0.67660 0.93990 0.66330 0.10900
H 	H 	0.76960 0.96150 0.62000 0.11900
C 	C 	0.62940 0.00280 0.59720 0.30600
C 	C 	0.33900 0.90840 0.50940 0.42700
C 	C 	0.25840 0.86175 0.48738 -0.37400
H 	H 	0.19130 0.88200 0.48040 0.14400
H 	H 	0.28120 0.84390 0.44790 0.13900
C 	C 	0.34200 0.77500 0.53230 -0.10800
H 	H 	0.40230 0.79980 0.54430 0.03000
H 	H 	0.35320 0.76040 0.48980 0.05500
C 	C 	0.33210 0.72040 0.57670 -0.03800
H 	H 	0.39660 0.69650 0.57470 0.00400
H 	H 	0.32520 0.73570 0.61940 -0.06600
C 	C 	0.14640 0.71720 0.55970 -0.04500
H 	H 	0.12870 0.73130 0.60160 -0.04100
H 	H 	0.08880 0.69160 0.54510 0.02200
C 	C 	0.15520 0.77300 0.51660 -0.10100
H 	H 	0.16420 0.75920 0.47360 0.05200
H 	H 	0.09050 0.79670 0.51880 0.03800
C 	C 	0.26010 0.64253 0.50656 -0.35200
H 	H 	0.28680 0.66860 0.47320 0.13800
H 	H 	0.19400 0.62460 0.49260 0.13800
C 	C 	0.33960 0.59130 0.52070 0.42200
N 	N 	0.75980 0.95644 0.81443 -0.15000
N 	N 	0.73980 0.02044 0.69069 -0.16500
N 	N 	0.24570 0.81280 0.53462 -0.13800
N 	N 	0.24230 0.67933 0.56339 -0.17000
O 	O 	0.88080 0.92809 0.91682 -0.51200
O 	O 	0.92400 0.02531 0.93192 -0.51800
O 	O 	0.61990 0.05874 0.59198 -0.47600
O 	O 	0.57950 0.96371 0.56384 -0.41000
O 	O 	0.39050 0.93565 0.46696 -0.45700
O 	O 	0.34960 0.91820 0.56650 -0.49800
O 	O 	0.38990 0.56946 0.47453 -0.47200
O 	O 	0.34880 0.57219 0.57479 -0.50700
Zn	Zn	0.75917 0.87197 0.87483 1.15300
Zn	Zn	0.74004 0.11035 0.64079 1.14900
C 	C 	0.37040 0.48360 0.90530 0.42900
C 	C 	0.29040 0.50590 0.85840 -0.36900
H 	H 	0.22830 0.52050 0.88050 0.14900
H 	H 	0.31950 0.54010 0.83490 0.13900
C 	C 	0.15610 0.46980 0.78490 -0.06600
H 	H 	0.10440 0.47710 0.81770 0.03200
H 	H 	0.13340 0.43420 0.76100 0.00500
C 	C 	0.16030 0.52540 0.74170 -0.05900
H 	H 	0.09140 0.53120 0.72290 0.01200
H 	H 	0.17590 0.56160 0.76670 -0.01000
C 	C 	0.34300 0.50470 0.71900 -0.06300
H 	H 	0.36880 0.54000 0.74230 0.00000
H 	H 	0.39300 0.49620 0.68560 0.03200
C 	C 	0.33830 0.44910 0.76320 -0.05900
H 	H 	0.32090 0.41270 0.73900 -0.00600
H 	H 	0.40750 0.44270 0.78160 0.01100
C 	C 	0.20790 0.47530 0.64290 -0.36200
H 	H 	0.17660 0.43990 0.66330 0.13700
H 	H 	0.26960 0.46150 0.62000 0.14500
C 	C 	0.12940 0.50280 0.59720 0.42400
C 	C 	0.83900 0.40840 0.50940 0.42800
C 	C 	0.75840 0.36175 0.48738 -0.37500
H 	H 	0.69130 0.38200 0.48040 0.14200
H 	H 	0.78120 0.34390 0.44790 0.13800
C 	C 	0.84200 0.27500 0.53230 -0.10800
H 	H 	0.90230 0.29980 0.54430 0.02900
H 	H 	0.85320 0.26040 0.48980 0.05400
C 	C 	0.83210 0.22040 0.57670 -0.03700
H 	H 	0.89660 0.19650 0.57470 0.00200
H 	H 	0.82520 0.23570 0.61940 -0.06800
C 	C 	0.64640 0.21720 0.55970 -0.04400
H 	H 	0.62870 0.23130 0.60160 -0.04300
H 	H 	0.58880 0.19160 0.54510 0.02000
C 	C 	0.65520 0.27300 0.51660 -0.10100
H 	H 	0.66420 0.25920 0.47360 0.05100
H 	H 	0.59050 0.29670 0.51880 0.03600
C 	C 	0.76010 0.14253 0.50656 -0.35400
H 	H 	0.78680 0.16860 0.47320 0.13700
H 	H 	0.69400 0.12460 0.49260 0.13700
C 	C 	0.83960 0.09130 0.52070 0.42400
N 	N 	0.25980 0.45644 0.81443 -0.15800
N 	N 	0.23980 0.52044 0.69069 -0.16000
N 	N 	0.74570 0.31280 0.53462 -0.13900
N 	N 	0.74230 0.17933 0.56339 -0.17100
O 	O 	0.38080 0.42809 0.91682 -0.48700
O 	O 	0.42400 0.52531 0.93192 -0.46000
O 	O 	0.11990 0.55874 0.59198 -0.50100
O 	O 	0.07950 0.46371 0.56384 -0.47300
O 	O 	0.89050 0.43565 0.46696 -0.47600
O 	O 	0.84960 0.41820 0.56650 -0.50800
O 	O 	0.88990 0.06946 0.47453 -0.48400
O 	O 	0.84880 0.07219 0.57479 -0.52000
Zn	Zn	0.25917 0.37197 0.87483 1.15200
Zn	Zn	0.24004 0.61035 0.64079 1.15200
Zn	Zn	0.01961 0.00000 -0.00000 1.21700
Zn	Zn	0.51961 0.50000 -0.00000 1.23200
Zn	Zn	0.98039 0.00000 0.50000 1.23200
Zn	Zn	0.48039 0.50000 0.50000 1.24700
Zn	Zn	0.48620 0.00000 0.50000 1.23100
Zn	Zn	0.98620 0.50000 0.50000 1.24500
Zn	Zn	0.51380 0.00000 -0.00000 1.21600
Zn	Zn	0.01380 0.50000 -0.00000 1.23100
