data_crystal

_cell_length_a 18.00260
_cell_length_b 18.00260
_cell_length_c 13.33160
_cell_angle_alpha 90.00000
_cell_angle_beta  90.00000
_cell_angle_gamma 120.00000

_symmetry_space_group_name_	'P 1'
_symmetry_space_group_name_H-M	'P 1'

loop_
_symmetry_equiv_pos_as_xyz
  x,y,z

loop_
_atom_site_label
_atom_site_type_symbol
_atom_site_fract_x
_atom_site_fract_y
_atom_site_fract_z
_atom_site_charge
Be	Be	0.40450 0.04760 0.61840 1.48100
P 	P 	0.08082 0.70125 0.58981 0.57400
H 	H 	0.12550 0.78160 0.54650 -0.02300
O 	O 	0.38510 0.12130 0.65590 -0.57900
O 	O 	0.49526 0.06090 0.65560 -0.56200
O 	O 	0.32860 0.95283 0.65480 -0.55100
O 	O 	0.14423 0.68720 0.65010 -0.56100
O 	O 	0.04940 0.63940 0.50270 -0.52500
O 	O 	0.00870 0.69600 0.65170 -0.55600
Be	Be	0.95240 0.35690 0.61840 1.48000
P 	P 	0.29875 0.37957 0.58981 0.57300
H 	H 	0.21840 0.34390 0.54650 -0.02400
O 	O 	0.87870 0.26380 0.65590 -0.58100
O 	O 	0.93910 0.43436 0.65560 -0.56200
O 	O 	0.04717 0.37577 0.65480 -0.55100
O 	O 	0.31280 0.45703 0.65010 -0.56100
O 	O 	0.36060 0.41000 0.50270 -0.52500
O 	O 	0.30400 0.31270 0.65170 -0.55800
Be	Be	0.64310 0.59550 0.61840 1.48000
P 	P 	0.62043 0.91918 0.58981 0.57300
H 	H 	0.65610 0.87450 0.54650 -0.02400
O 	O 	0.73620 0.61490 0.65590 -0.57900
O 	O 	0.56564 0.50474 0.65560 -0.56200
O 	O 	0.62423 0.67140 0.65480 -0.55200
O 	O 	0.54297 0.85577 0.65010 -0.56100
O 	O 	0.59000 0.95060 0.50270 -0.52500
O 	O 	0.68730 0.99130 0.65170 -0.55700
Be	Be	0.59550 0.95240 0.11840 1.48000
P 	P 	0.91918 0.29875 0.08981 0.57400
H 	H 	0.87450 0.21840 0.04650 -0.02100
O 	O 	0.61490 0.87870 0.15590 -0.58300
O 	O 	0.50474 0.93910 0.15560 -0.56600
O 	O 	0.67140 0.04717 0.15480 -0.54800
O 	O 	0.85577 0.31280 0.15010 -0.56000
O 	O 	0.95060 0.36060 0.00270 -0.51900
O 	O 	0.99130 0.30400 0.15170 -0.55400
Be	Be	0.04760 0.64310 0.11840 1.48000
P 	P 	0.70125 0.62043 0.08981 0.57300
H 	H 	0.78160 0.65610 0.04650 -0.02400
O 	O 	0.12130 0.73620 0.15590 -0.58600
O 	O 	0.06090 0.56564 0.15560 -0.56700
O 	O 	0.95283 0.62423 0.15480 -0.55000
O 	O 	0.68720 0.54297 0.15010 -0.56100
O 	O 	0.63940 0.59000 0.00270 -0.52500
O 	O 	0.69600 0.68730 0.15170 -0.55900
Be	Be	0.35690 0.40450 0.11840 1.48000
P 	P 	0.37957 0.08082 0.08981 0.57300
H 	H 	0.34390 0.12550 0.04650 -0.02400
O 	O 	0.26380 0.38510 0.15590 -0.58100
O 	O 	0.43436 0.49526 0.15560 -0.56300
O 	O 	0.37577 0.32860 0.15480 -0.55200
O 	O 	0.45703 0.14423 0.15010 -0.56000
O 	O 	0.41000 0.04940 0.00270 -0.52100
O 	O 	0.31270 0.00870 0.15170 -0.55600
Be	Be	0.59550 0.95240 0.38160 1.48000
P 	P 	0.91918 0.29875 0.41019 0.57300
H 	H 	0.87450 0.21840 0.45350 -0.02400
O 	O 	0.61490 0.87870 0.34410 -0.58000
O 	O 	0.50474 0.93910 0.34440 -0.56200
O 	O 	0.67140 0.04717 0.34520 -0.55100
O 	O 	0.85577 0.31280 0.34990 -0.56100
O 	O 	0.95060 0.36060 0.49730 -0.52500
O 	O 	0.99130 0.30400 0.34830 -0.55600
Be	Be	0.04760 0.64310 0.38160 1.48000
P 	P 	0.70125 0.62043 0.41019 0.57300
H 	H 	0.78160 0.65610 0.45350 -0.02400
O 	O 	0.12130 0.73620 0.34410 -0.58100
O 	O 	0.06090 0.56564 0.34440 -0.56200
O 	O 	0.95283 0.62423 0.34520 -0.55100
O 	O 	0.68720 0.54297 0.34990 -0.56100
O 	O 	0.63940 0.59000 0.49730 -0.52500
O 	O 	0.69600 0.68730 0.34830 -0.55800
Be	Be	0.35690 0.40450 0.38160 1.48000
P 	P 	0.37957 0.08082 0.41019 0.57300
H 	H 	0.34390 0.12550 0.45350 -0.02400
O 	O 	0.26380 0.38510 0.34410 -0.57900
O 	O 	0.43436 0.49526 0.34440 -0.56200
O 	O 	0.37577 0.32860 0.34520 -0.55200
O 	O 	0.45703 0.14423 0.34990 -0.56100
O 	O 	0.41000 0.04940 0.49730 -0.52500
O 	O 	0.31270 0.00870 0.34830 -0.55700
Be	Be	0.40450 0.04760 0.88160 1.48000
P 	P 	0.08082 0.70125 0.91019 0.57400
H 	H 	0.12550 0.78160 0.95350 -0.02100
O 	O 	0.38510 0.12130 0.84410 -0.58300
O 	O 	0.49526 0.06090 0.84440 -0.56600
O 	O 	0.32860 0.95283 0.84520 -0.54800
O 	O 	0.14423 0.68720 0.84990 -0.56000
O 	O 	0.04940 0.63940 0.99730 -0.51900
O 	O 	0.00870 0.69600 0.84830 -0.55400
Be	Be	0.95240 0.35690 0.88160 1.48000
P 	P 	0.29875 0.37957 0.91019 0.57300
H 	H 	0.21840 0.34390 0.95350 -0.02400
O 	O 	0.87870 0.26380 0.84410 -0.58600
O 	O 	0.93910 0.43436 0.84440 -0.56700
O 	O 	0.04717 0.37577 0.84520 -0.55000
O 	O 	0.31280 0.45703 0.84990 -0.56100
O 	O 	0.36060 0.41000 0.99730 -0.52500
O 	O 	0.30400 0.31270 0.84830 -0.55900
Be	Be	0.64310 0.59550 0.88160 1.48000
P 	P 	0.62043 0.91918 0.91019 0.57300
H 	H 	0.65610 0.87450 0.95350 -0.02400
O 	O 	0.73620 0.61490 0.84410 -0.58100
O 	O 	0.56564 0.50474 0.84440 -0.56300
O 	O 	0.62423 0.67140 0.84520 -0.55200
O 	O 	0.54297 0.85577 0.84990 -0.56000
O 	O 	0.59000 0.95060 0.99730 -0.52100
O 	O 	0.68730 0.99130 0.84830 -0.55600
Be	Be	0.35390 0.30790 0.75000 1.48100
Be	Be	0.20090 0.71510 0.75000 1.48200
P 	P 	0.39807 0.17228 0.75000 0.58100
H 	H 	0.48270 0.23680 0.75000 -0.02800
P 	P 	0.52521 0.03717 0.75000 0.61100
H 	H 	0.49600 0.96230 0.75000 -0.07800
P 	P 	0.28302 0.90626 0.75000 0.56200
H 	H 	0.20170 0.90050 0.75000 -0.02800
O 	O 	0.34270 0.21310 0.75000 -0.52400
O 	O 	0.62120 0.07530 0.75000 -0.55000
O 	O 	0.27050 0.81740 0.75000 -0.53300
O 	O 	0.25230 0.66380 0.75000 -0.59300
Be	Be	0.69210 0.04600 0.75000 1.48100
Be	Be	0.28490 0.48580 0.75000 1.48200
P 	P 	0.82772 0.22579 0.75000 0.58100
H 	H 	0.76320 0.24590 0.75000 -0.02800
P 	P 	0.96283 0.48804 0.75000 0.61100
H 	H 	0.03770 0.53370 0.75000 -0.07800
P 	P 	0.09374 0.37676 0.75000 0.56200
H 	H 	0.09950 0.30120 0.75000 -0.02900
O 	O 	0.78690 0.12960 0.75000 -0.52700
O 	O 	0.92470 0.54590 0.75000 -0.55000
O 	O 	0.18260 0.45310 0.75000 -0.53300
O 	O 	0.33620 0.58850 0.75000 -0.59300
Be	Be	0.95400 0.64610 0.75000 1.48100
Be	Be	0.51420 0.79910 0.75000 1.48200
P 	P 	0.77421 0.60193 0.75000 0.58100
H 	H 	0.75410 0.51730 0.75000 -0.02800
P 	P 	0.51196 0.47479 0.75000 0.61600
H 	H 	0.46630 0.50400 0.75000 -0.08200
P 	P 	0.62324 0.71698 0.75000 0.56200
H 	H 	0.69880 0.79830 0.75000 -0.03000
O 	O 	0.87040 0.65730 0.75000 -0.52500
O 	O 	0.45410 0.37880 0.75000 -0.54800
O 	O 	0.54690 0.72950 0.75000 -0.53300
O 	O 	0.41150 0.74770 0.75000 -0.59300
Be	Be	0.64610 0.69210 0.25000 1.48100
Be	Be	0.79910 0.28490 0.25000 1.48200
P 	P 	0.60193 0.82772 0.25000 0.58100
H 	H 	0.51730 0.76320 0.25000 -0.02800
P 	P 	0.47479 0.96283 0.25000 0.61100
H 	H 	0.50400 0.03770 0.25000 -0.07800
P 	P 	0.71698 0.09374 0.25000 0.56200
H 	H 	0.79830 0.09950 0.25000 -0.02800
O 	O 	0.65730 0.78690 0.25000 -0.52400
O 	O 	0.37880 0.92470 0.25000 -0.55000
O 	O 	0.72950 0.18260 0.25000 -0.53300
O 	O 	0.74770 0.33620 0.25000 -0.59300
Be	Be	0.30790 0.95400 0.25000 1.48100
Be	Be	0.71510 0.51420 0.25000 1.48200
P 	P 	0.17228 0.77421 0.25000 0.58100
H 	H 	0.23680 0.75410 0.25000 -0.02800
P 	P 	0.03717 0.51196 0.25000 0.61100
H 	H 	0.96230 0.46630 0.25000 -0.07800
P 	P 	0.90626 0.62324 0.25000 0.56200
H 	H 	0.90050 0.69880 0.25000 -0.02900
O 	O 	0.21310 0.87040 0.25000 -0.52700
O 	O 	0.07530 0.45410 0.25000 -0.55000
O 	O 	0.81740 0.54690 0.25000 -0.53300
O 	O 	0.66380 0.41150 0.25000 -0.59300
Be	Be	0.04600 0.35390 0.25000 1.48100
Be	Be	0.48580 0.20090 0.25000 1.48200
P 	P 	0.22579 0.39807 0.25000 0.58100
H 	H 	0.24590 0.48270 0.25000 -0.02800
P 	P 	0.48804 0.52521 0.25000 0.61600
H 	H 	0.53370 0.49600 0.25000 -0.08200
P 	P 	0.37676 0.28302 0.25000 0.56200
H 	H 	0.30120 0.20170 0.25000 -0.03000
O 	O 	0.12960 0.34270 0.25000 -0.52500
O 	O 	0.54590 0.62120 0.25000 -0.54800
O 	O 	0.45310 0.27050 0.25000 -0.53300
O 	O 	0.58850 0.25230 0.25000 -0.59300
P 	P 	0.33333 0.66667 0.75000 0.78200
P 	P 	0.66667 0.33333 0.25000 0.78200
H 	H 	0.33333 0.66667 0.65810 -0.04400
H 	H 	0.66667 0.33333 0.15810 -0.04300
H 	H 	0.66667 0.33333 0.34190 -0.04400
H 	H 	0.33333 0.66667 0.84190 -0.04300
