data_crystal

_cell_length_a 19.62300
_cell_length_b 19.62300
_cell_length_c 19.14700
_cell_angle_alpha 90.00000
_cell_angle_beta  90.00000
_cell_angle_gamma 90.00000

_symmetry_space_group_name_	'P 1'
_symmetry_space_group_name_H-M	'P 1'

loop_
_symmetry_equiv_pos_as_xyz
  x,y,z

loop_
_atom_site_label
_atom_site_type_symbol
_atom_site_fract_x
_atom_site_fract_y
_atom_site_fract_z
_atom_site_charge
Fe	Fe	0.39624 0.52176 0.02003 1.08200
N 	N 	0.38293 0.41754 0.07140 -0.22700
N 	N 	0.32919 0.53958 0.10716 -0.24100
N 	N 	0.27050 0.49598 0.19840 -0.16200
H 	H 	0.25390 0.46710 0.22760 0.09700
N 	N 	0.26240 0.56483 0.19883 -0.19900
N 	N 	0.33500 0.69682 0.08489 -0.15300
N 	N 	0.27632 0.70140 0.18493 -0.22000
N 	N 	0.29098 0.76686 0.16637 -0.22900
C 	C 	0.41220 0.35800 0.05320 0.09200
H 	H 	0.44560 0.35690 0.01870 -0.03100
C 	C 	0.39250 0.29950 0.08550 -0.17500
H 	H 	0.41240 0.25880 0.07120 0.07400
C 	C 	0.34730 0.29710 0.13540 0.09100
H 	H 	0.33630 0.25630 0.15750 -0.01500
C 	C 	0.31760 0.35550 0.15350 -0.14700
H 	H 	0.28350 0.35540 0.18710 0.07200
C 	C 	0.33690 0.41680 0.12280 0.05300
C 	C 	0.30990 0.48270 0.14290 0.07000
C 	C 	0.29816 0.58853 0.14440 0.05600
C 	C 	0.30315 0.66218 0.13532 0.04200
C 	C 	0.32490 0.76120 0.10680 0.09000
H 	H 	0.34040 0.79890 0.08200 -0.01400
Fe	Fe	0.89624 0.02176 0.52003 1.08000
N 	N 	0.88293 0.91754 0.57140 -0.22700
N 	N 	0.82919 0.03958 0.60716 -0.24300
N 	N 	0.77050 0.99598 0.69840 -0.16200
H 	H 	0.75390 0.96710 0.72760 0.09700
N 	N 	0.76240 0.06483 0.69883 -0.20000
N 	N 	0.83500 0.19682 0.58489 -0.15300
N 	N 	0.77632 0.20140 0.68493 -0.22000
N 	N 	0.79098 0.26686 0.66637 -0.22900
C 	C 	0.91220 0.85800 0.55320 0.09200
H 	H 	0.94560 0.85690 0.51870 -0.03100
C 	C 	0.89250 0.79950 0.58550 -0.17400
H 	H 	0.91240 0.75880 0.57120 0.07400
C 	C 	0.84730 0.79710 0.63540 0.09000
H 	H 	0.83630 0.75630 0.65750 -0.01500
C 	C 	0.81760 0.85550 0.65350 -0.14700
H 	H 	0.78350 0.85540 0.68710 0.07200
C 	C 	0.83690 0.91680 0.62280 0.05300
C 	C 	0.80990 0.98270 0.64290 0.07100
C 	C 	0.79816 0.08853 0.64440 0.05600
C 	C 	0.80315 0.16218 0.63532 0.04200
C 	C 	0.82490 0.26120 0.60680 0.09000
H 	H 	0.84040 0.29890 0.58200 -0.01400
Fe	Fe	0.10376 0.47824 0.52003 1.08100
N 	N 	0.11707 0.58246 0.57140 -0.22800
N 	N 	0.17081 0.46042 0.60716 -0.24200
N 	N 	0.22950 0.50402 0.69840 -0.16300
H 	H 	0.24610 0.53290 0.72760 0.09600
N 	N 	0.23760 0.43517 0.69883 -0.20000
N 	N 	0.16500 0.30318 0.58489 -0.15300
N 	N 	0.22368 0.29860 0.68493 -0.22000
N 	N 	0.20902 0.23314 0.66637 -0.22900
C 	C 	0.08780 0.64200 0.55320 0.09200
H 	H 	0.05440 0.64310 0.51870 -0.03200
C 	C 	0.10750 0.70050 0.58550 -0.17500
H 	H 	0.08760 0.74120 0.57120 0.07300
C 	C 	0.15270 0.70290 0.63540 0.09100
H 	H 	0.16370 0.74370 0.65750 -0.01600
C 	C 	0.18240 0.64450 0.65350 -0.14700
H 	H 	0.21650 0.64460 0.68710 0.07200
C 	C 	0.16310 0.58320 0.62280 0.05300
C 	C 	0.19010 0.51730 0.64290 0.07000
C 	C 	0.20184 0.41147 0.64440 0.05600
C 	C 	0.19685 0.33782 0.63532 0.04200
C 	C 	0.17510 0.23880 0.60680 0.09000
H 	H 	0.15960 0.20110 0.58200 -0.01400
Fe	Fe	0.60376 0.97824 0.02003 1.08100
N 	N 	0.61707 0.08246 0.07140 -0.22700
N 	N 	0.67081 0.96042 0.10716 -0.24200
N 	N 	0.72950 0.00402 0.19840 -0.16300
H 	H 	0.74610 0.03290 0.22760 0.09600
N 	N 	0.73760 0.93517 0.19883 -0.19900
N 	N 	0.66500 0.80318 0.08489 -0.15300
N 	N 	0.72368 0.79860 0.18493 -0.22000
N 	N 	0.70902 0.73314 0.16637 -0.22900
C 	C 	0.58780 0.14200 0.05320 0.09200
H 	H 	0.55440 0.14310 0.01870 -0.03100
C 	C 	0.60750 0.20050 0.08550 -0.17400
H 	H 	0.58760 0.24120 0.07120 0.07400
C 	C 	0.65270 0.20290 0.13540 0.09100
H 	H 	0.66370 0.24370 0.15750 -0.01500
C 	C 	0.68240 0.14450 0.15350 -0.14700
H 	H 	0.71650 0.14460 0.18710 0.07200
C 	C 	0.66310 0.08320 0.12280 0.05300
C 	C 	0.69010 0.01730 0.14290 0.07000
C 	C 	0.70184 0.91147 0.14440 0.05600
C 	C 	0.69685 0.83782 0.13532 0.04200
C 	C 	0.67510 0.73880 0.10680 0.09000
H 	H 	0.65960 0.70110 0.08200 -0.01400
Fe	Fe	0.22824 0.64624 0.27003 1.08100
N 	N 	0.33246 0.63293 0.32140 -0.22800
N 	N 	0.21042 0.57919 0.35716 -0.24200
N 	N 	0.25402 0.52050 0.44840 -0.16300
H 	H 	0.28290 0.50390 0.47760 0.09600
N 	N 	0.18517 0.51240 0.44883 -0.20000
N 	N 	0.05318 0.58500 0.33489 -0.15300
N 	N 	0.04860 0.52632 0.43493 -0.22000
N 	N 	0.98314 0.54098 0.41637 -0.22900
C 	C 	0.39200 0.66220 0.30320 0.09200
H 	H 	0.39310 0.69560 0.26870 -0.03100
C 	C 	0.45050 0.64250 0.33550 -0.17500
H 	H 	0.49120 0.66240 0.32120 0.07400
C 	C 	0.45290 0.59730 0.38540 0.09100
H 	H 	0.49370 0.58630 0.40750 -0.01600
C 	C 	0.39450 0.56760 0.40350 -0.14700
H 	H 	0.39460 0.53350 0.43710 0.07200
C 	C 	0.33320 0.58690 0.37280 0.05300
C 	C 	0.26730 0.55990 0.39290 0.07000
C 	C 	0.16147 0.54816 0.39440 0.05600
C 	C 	0.08782 0.55315 0.38532 0.04200
C 	C 	0.98880 0.57490 0.35680 0.09000
H 	H 	0.95110 0.59040 0.33200 -0.01400
Fe	Fe	0.72824 0.14624 0.77003 1.08000
N 	N 	0.83246 0.13293 0.82140 -0.22800
N 	N 	0.71042 0.07919 0.85716 -0.24200
N 	N 	0.75402 0.02050 0.94840 -0.16300
H 	H 	0.78290 0.00390 0.97760 0.09600
N 	N 	0.68517 0.01240 0.94883 -0.20000
N 	N 	0.55318 0.08500 0.83489 -0.15300
N 	N 	0.54860 0.02632 0.93493 -0.22000
N 	N 	0.48314 0.04098 0.91637 -0.22900
C 	C 	0.89200 0.16220 0.80320 0.09200
H 	H 	0.89310 0.19560 0.76870 -0.03100
C 	C 	0.95050 0.14250 0.83550 -0.17500
H 	H 	0.99120 0.16240 0.82120 0.07300
C 	C 	0.95290 0.09730 0.88540 0.09000
H 	H 	0.99370 0.08630 0.90750 -0.01600
C 	C 	0.89450 0.06760 0.90350 -0.14700
H 	H 	0.89460 0.03350 0.93710 0.07200
C 	C 	0.83320 0.08690 0.87280 0.05300
C 	C 	0.76730 0.05990 0.89290 0.06900
C 	C 	0.66147 0.04816 0.89440 0.05600
C 	C 	0.58782 0.05315 0.88532 0.04200
C 	C 	0.48880 0.07490 0.85680 0.09000
H 	H 	0.45110 0.09040 0.83200 -0.01400
Fe	Fe	0.27176 0.35376 0.77003 1.08100
N 	N 	0.16754 0.36707 0.82140 -0.22800
N 	N 	0.28958 0.42081 0.85716 -0.24200
N 	N 	0.24598 0.47950 0.94840 -0.16300
H 	H 	0.21710 0.49610 0.97760 0.09600
N 	N 	0.31483 0.48760 0.94883 -0.19900
N 	N 	0.44682 0.41500 0.83489 -0.15300
N 	N 	0.45140 0.47368 0.93493 -0.22000
N 	N 	0.51686 0.45902 0.91637 -0.22900
C 	C 	0.10800 0.33780 0.80320 0.09200
H 	H 	0.10690 0.30440 0.76870 -0.03100
C 	C 	0.04950 0.35750 0.83550 -0.17500
H 	H 	0.00880 0.33760 0.82120 0.07400
C 	C 	0.04710 0.40270 0.88540 0.09100
H 	H 	0.00630 0.41370 0.90750 -0.01500
C 	C 	0.10550 0.43240 0.90350 -0.14700
H 	H 	0.10540 0.46650 0.93710 0.07200
C 	C 	0.16680 0.41310 0.87280 0.05300
C 	C 	0.23270 0.44010 0.89290 0.07000
C 	C 	0.33853 0.45184 0.89440 0.05600
C 	C 	0.41218 0.44685 0.88532 0.04200
C 	C 	0.51120 0.42510 0.85680 0.09000
H 	H 	0.54890 0.40960 0.83200 -0.01400
Fe	Fe	0.77176 0.85376 0.27003 1.08100
N 	N 	0.66754 0.86707 0.32140 -0.22800
N 	N 	0.78958 0.92081 0.35716 -0.24200
N 	N 	0.74598 0.97950 0.44840 -0.16300
H 	H 	0.71710 0.99610 0.47760 0.09600
N 	N 	0.81483 0.98760 0.44883 -0.19900
N 	N 	0.94682 0.91500 0.33489 -0.15200
N 	N 	0.95140 0.97368 0.43493 -0.21900
N 	N 	0.01686 0.95902 0.41637 -0.22900
C 	C 	0.60800 0.83780 0.30320 0.09200
H 	H 	0.60690 0.80440 0.26870 -0.03100
C 	C 	0.54950 0.85750 0.33550 -0.17500
H 	H 	0.50880 0.83760 0.32120 0.07400
C 	C 	0.54710 0.90270 0.38540 0.09100
H 	H 	0.50630 0.91370 0.40750 -0.01600
C 	C 	0.60550 0.93240 0.40350 -0.14800
H 	H 	0.60540 0.96650 0.43710 0.07200
C 	C 	0.66680 0.91310 0.37280 0.05300
C 	C 	0.73270 0.94010 0.39290 0.07000
C 	C 	0.83853 0.95184 0.39440 0.05600
C 	C 	0.91218 0.94685 0.38532 0.04200
C 	C 	0.01120 0.92510 0.35680 0.08800
H 	H 	0.04890 0.90960 0.33200 -0.01300
Fe	Fe	0.60376 0.47824 0.97997 1.08100
N 	N 	0.61707 0.58246 0.92860 -0.22800
N 	N 	0.67081 0.46042 0.89284 -0.24200
N 	N 	0.72950 0.50402 0.80160 -0.16300
H 	H 	0.74610 0.53290 0.77240 0.09600
N 	N 	0.73760 0.43517 0.80117 -0.20000
N 	N 	0.66500 0.30318 0.91511 -0.15300
N 	N 	0.72368 0.29860 0.81507 -0.22000
N 	N 	0.70902 0.23314 0.83363 -0.22900
C 	C 	0.58780 0.64200 0.94680 0.09200
H 	H 	0.55440 0.64310 0.98130 -0.03100
C 	C 	0.60750 0.70050 0.91450 -0.17500
H 	H 	0.58760 0.74120 0.92880 0.07400
C 	C 	0.65270 0.70290 0.86460 0.09100
H 	H 	0.66370 0.74370 0.84250 -0.01500
C 	C 	0.68240 0.64450 0.84650 -0.14700
H 	H 	0.71650 0.64460 0.81290 0.07200
C 	C 	0.66310 0.58320 0.87720 0.05300
C 	C 	0.69010 0.51730 0.85710 0.07000
C 	C 	0.70184 0.41147 0.85560 0.05600
C 	C 	0.69685 0.33782 0.86468 0.04200
C 	C 	0.67510 0.23880 0.89320 0.09000
H 	H 	0.65960 0.20110 0.91800 -0.01400
Fe	Fe	0.10376 0.97824 0.47997 1.08000
N 	N 	0.11707 0.08246 0.42860 -0.22700
N 	N 	0.17081 0.96042 0.39284 -0.24300
N 	N 	0.22950 0.00402 0.30160 -0.16200
H 	H 	0.24610 0.03290 0.27240 0.09700
N 	N 	0.23760 0.93517 0.30117 -0.20000
N 	N 	0.16500 0.80318 0.41511 -0.15300
N 	N 	0.22368 0.79860 0.31507 -0.22000
N 	N 	0.20902 0.73314 0.33363 -0.22900
C 	C 	0.08780 0.14200 0.44680 0.09200
H 	H 	0.05440 0.14310 0.48130 -0.03100
C 	C 	0.10750 0.20050 0.41450 -0.17400
H 	H 	0.08760 0.24120 0.42880 0.07400
C 	C 	0.15270 0.20290 0.36460 0.09000
H 	H 	0.16370 0.24370 0.34250 -0.01500
C 	C 	0.18240 0.14450 0.34650 -0.14700
H 	H 	0.21650 0.14460 0.31290 0.07200
C 	C 	0.16310 0.08320 0.37720 0.05300
C 	C 	0.19010 0.01730 0.35710 0.07100
C 	C 	0.20184 0.91147 0.35560 0.05600
C 	C 	0.19685 0.83782 0.36468 0.04200
C 	C 	0.17510 0.73880 0.39320 0.09000
H 	H 	0.15960 0.70110 0.41800 -0.01400
Fe	Fe	0.89624 0.52176 0.47997 1.08100
N 	N 	0.88293 0.41754 0.42860 -0.22800
N 	N 	0.82919 0.53958 0.39284 -0.24200
N 	N 	0.77050 0.49598 0.30160 -0.16300
H 	H 	0.75390 0.46710 0.27240 0.09600
N 	N 	0.76240 0.56483 0.30117 -0.20000
N 	N 	0.83500 0.69682 0.41511 -0.15300
N 	N 	0.77632 0.70140 0.31507 -0.22000
N 	N 	0.79098 0.76686 0.33363 -0.22900
C 	C 	0.91220 0.35800 0.44680 0.09200
H 	H 	0.94560 0.35690 0.48130 -0.03200
C 	C 	0.89250 0.29950 0.41450 -0.17500
H 	H 	0.91240 0.25880 0.42880 0.07300
C 	C 	0.84730 0.29710 0.36460 0.09100
H 	H 	0.83630 0.25630 0.34250 -0.01600
C 	C 	0.81760 0.35550 0.34650 -0.14700
H 	H 	0.78350 0.35540 0.31290 0.07200
C 	C 	0.83690 0.41680 0.37720 0.05300
C 	C 	0.80990 0.48270 0.35710 0.07000
C 	C 	0.79816 0.58853 0.35560 0.05600
C 	C 	0.80315 0.66218 0.36468 0.04200
C 	C 	0.82490 0.76120 0.39320 0.09000
H 	H 	0.84040 0.79890 0.41800 -0.01400
Fe	Fe	0.39624 0.02176 0.97997 1.08100
N 	N 	0.38293 0.91754 0.92860 -0.22700
N 	N 	0.32919 0.03958 0.89284 -0.24200
N 	N 	0.27050 0.99598 0.80160 -0.16300
H 	H 	0.25390 0.96710 0.77240 0.09600
N 	N 	0.26240 0.06483 0.80117 -0.19900
N 	N 	0.33500 0.19682 0.91511 -0.15300
N 	N 	0.27632 0.20140 0.81507 -0.22000
N 	N 	0.29098 0.26686 0.83363 -0.22900
C 	C 	0.41220 0.85800 0.94680 0.09200
H 	H 	0.44560 0.85690 0.98130 -0.03100
C 	C 	0.39250 0.79950 0.91450 -0.17400
H 	H 	0.41240 0.75880 0.92880 0.07400
C 	C 	0.34730 0.79710 0.86460 0.09100
H 	H 	0.33630 0.75630 0.84250 -0.01500
C 	C 	0.31760 0.85550 0.84650 -0.14700
H 	H 	0.28350 0.85540 0.81290 0.07200
C 	C 	0.33690 0.91680 0.87720 0.05300
C 	C 	0.30990 0.98270 0.85710 0.07000
C 	C 	0.29816 0.08853 0.85560 0.05600
C 	C 	0.30315 0.16218 0.86468 0.04200
C 	C 	0.32490 0.26120 0.89320 0.09000
H 	H 	0.34040 0.29890 0.91800 -0.01400
Fe	Fe	0.77176 0.35376 0.72997 1.08100
N 	N 	0.66754 0.36707 0.67860 -0.22800
N 	N 	0.78958 0.42081 0.64284 -0.24200
N 	N 	0.74598 0.47950 0.55160 -0.16300
H 	H 	0.71710 0.49610 0.52240 0.09600
N 	N 	0.81483 0.48760 0.55117 -0.20000
N 	N 	0.94682 0.41500 0.66511 -0.15300
N 	N 	0.95140 0.47368 0.56507 -0.22000
N 	N 	0.01686 0.45902 0.58363 -0.22900
C 	C 	0.60800 0.33780 0.69680 0.09200
H 	H 	0.60690 0.30440 0.73130 -0.03100
C 	C 	0.54950 0.35750 0.66450 -0.17500
H 	H 	0.50880 0.33760 0.67880 0.07400
C 	C 	0.54710 0.40270 0.61460 0.09100
H 	H 	0.50630 0.41370 0.59250 -0.01600
C 	C 	0.60550 0.43240 0.59650 -0.14700
H 	H 	0.60540 0.46650 0.56290 0.07200
C 	C 	0.66680 0.41310 0.62720 0.05300
C 	C 	0.73270 0.44010 0.60710 0.07000
C 	C 	0.83853 0.45184 0.60560 0.05600
C 	C 	0.91218 0.44685 0.61468 0.04200
C 	C 	0.01120 0.42510 0.64320 0.09000
H 	H 	0.04890 0.40960 0.66800 -0.01400
Fe	Fe	0.27176 0.85376 0.22997 1.08000
N 	N 	0.16754 0.86707 0.17860 -0.22800
N 	N 	0.28958 0.92081 0.14284 -0.24200
N 	N 	0.24598 0.97950 0.05160 -0.16300
H 	H 	0.21710 0.99610 0.02240 0.09600
N 	N 	0.31483 0.98760 0.05117 -0.20000
N 	N 	0.44682 0.91500 0.16511 -0.15300
N 	N 	0.45140 0.97368 0.06507 -0.22000
N 	N 	0.51686 0.95902 0.08363 -0.22900
C 	C 	0.10800 0.83780 0.19680 0.09200
H 	H 	0.10690 0.80440 0.23130 -0.03100
C 	C 	0.04950 0.85750 0.16450 -0.17500
H 	H 	0.00880 0.83760 0.17880 0.07300
C 	C 	0.04710 0.90270 0.11460 0.09000
H 	H 	0.00630 0.91370 0.09250 -0.01600
C 	C 	0.10550 0.93240 0.09650 -0.14700
H 	H 	0.10540 0.96650 0.06290 0.07200
C 	C 	0.16680 0.91310 0.12720 0.05300
C 	C 	0.23270 0.94010 0.10710 0.06900
C 	C 	0.33853 0.95184 0.10560 0.05600
C 	C 	0.41218 0.94685 0.11468 0.04200
C 	C 	0.51120 0.92510 0.14320 0.09000
H 	H 	0.54890 0.90960 0.16800 -0.01400
Fe	Fe	0.72824 0.64624 0.22997 1.08100
N 	N 	0.83246 0.63293 0.17860 -0.22800
N 	N 	0.71042 0.57919 0.14284 -0.24200
N 	N 	0.75402 0.52050 0.05160 -0.16300
H 	H 	0.78290 0.50390 0.02240 0.09600
N 	N 	0.68517 0.51240 0.05117 -0.19900
N 	N 	0.55318 0.58500 0.16511 -0.15300
N 	N 	0.54860 0.52632 0.06507 -0.22000
N 	N 	0.48314 0.54098 0.08363 -0.22900
C 	C 	0.89200 0.66220 0.19680 0.09200
H 	H 	0.89310 0.69560 0.23130 -0.03100
C 	C 	0.95050 0.64250 0.16450 -0.17500
H 	H 	0.99120 0.66240 0.17880 0.07400
C 	C 	0.95290 0.59730 0.11460 0.09100
H 	H 	0.99370 0.58630 0.09250 -0.01500
C 	C 	0.89450 0.56760 0.09650 -0.14700
H 	H 	0.89460 0.53350 0.06290 0.07200
C 	C 	0.83320 0.58690 0.12720 0.05300
C 	C 	0.76730 0.55990 0.10710 0.07000
C 	C 	0.66147 0.54816 0.10560 0.05600
C 	C 	0.58782 0.55315 0.11468 0.04200
C 	C 	0.48880 0.57490 0.14320 0.09000
H 	H 	0.45110 0.59040 0.16800 -0.01400
Fe	Fe	0.22824 0.14624 0.72997 1.08100
N 	N 	0.33246 0.13293 0.67860 -0.22800
N 	N 	0.21042 0.07919 0.64284 -0.24200
N 	N 	0.25402 0.02050 0.55160 -0.16300
H 	H 	0.28290 0.00390 0.52240 0.09600
N 	N 	0.18517 0.01240 0.55117 -0.19900
N 	N 	0.05318 0.08500 0.66511 -0.15200
N 	N 	0.04860 0.02632 0.56507 -0.21900
N 	N 	0.98314 0.04098 0.58363 -0.22900
C 	C 	0.39200 0.16220 0.69680 0.09200
H 	H 	0.39310 0.19560 0.73130 -0.03100
C 	C 	0.45050 0.14250 0.66450 -0.17500
H 	H 	0.49120 0.16240 0.67880 0.07400
C 	C 	0.45290 0.09730 0.61460 0.09100
H 	H 	0.49370 0.08630 0.59250 -0.01600
C 	C 	0.39450 0.06760 0.59650 -0.14800
H 	H 	0.39460 0.03350 0.56290 0.07200
C 	C 	0.33320 0.08690 0.62720 0.05300
C 	C 	0.26730 0.05990 0.60710 0.07000
C 	C 	0.16147 0.04816 0.60560 0.05600
C 	C 	0.08782 0.05315 0.61468 0.04200
C 	C 	0.98880 0.07490 0.64320 0.08800
H 	H 	0.95110 0.09040 0.66800 -0.01300
