data_crystal

_cell_length_a 15.17670
_cell_length_b 15.17670
_cell_length_c 11.82040
_cell_angle_alpha 90.00000
_cell_angle_beta  90.00000
_cell_angle_gamma 90.00000

_symmetry_space_group_name_	'P 1'
_symmetry_space_group_name_H-M	'P 1'

loop_
_symmetry_equiv_pos_as_xyz
  x,y,z

loop_
_atom_site_label
_atom_site_type_symbol
_atom_site_fract_x
_atom_site_fract_y
_atom_site_fract_z
_atom_site_charge
N 	N 	0.61194 0.19380 0.97830 -0.34000
C 	C 	0.65916 0.17095 0.04520 0.38000
C 	C 	0.71930 0.14260 0.13320 -1.39400
H 	H 	0.70200 0.08100 0.17400 0.17800
H 	H 	0.73100 0.18300 0.18500 0.26100
H 	H 	0.77400 0.13200 0.10300 0.19900
H 	H 	0.68700 0.14900 0.20700 0.19100
H 	H 	0.76600 0.18000 0.14000 0.17800
H 	H 	0.74900 0.09100 0.10600 0.22100
N 	N 	0.38806 0.30620 0.97830 -0.33400
C 	C 	0.34084 0.32905 0.04520 0.36200
C 	C 	0.28070 0.35740 0.13320 -1.32400
H 	H 	0.29800 0.41900 0.17400 0.16700
H 	H 	0.26900 0.31700 0.18500 0.24800
H 	H 	0.22600 0.36800 0.10300 0.18700
H 	H 	0.31300 0.35100 0.20700 0.17900
H 	H 	0.23400 0.32000 0.14000 0.16400
H 	H 	0.25100 0.40900 0.10600 0.20900
N 	N 	0.44380 0.13806 0.77170 -0.33600
C 	C 	0.42095 0.09084 0.70480 0.36700
C 	C 	0.39260 0.03070 0.61680 -1.32600
H 	H 	0.33100 0.04800 0.57600 0.16700
H 	H 	0.43300 0.01900 0.56500 0.25100
H 	H 	0.38200 0.97600 0.64700 0.18500
H 	H 	0.39900 0.06300 0.54300 0.17900
H 	H 	0.43000 0.98400 0.61000 0.16400
H 	H 	0.34100 0.00100 0.64400 0.21200
N 	N 	0.55620 0.36194 0.77170 -0.34200
C 	C 	0.57905 0.40916 0.70480 0.38600
C 	C 	0.60740 0.46930 0.61680 -1.39100
H 	H 	0.66900 0.45200 0.57600 0.17900
H 	H 	0.56700 0.48100 0.56500 0.26100
H 	H 	0.61800 0.52400 0.64700 0.19800
H 	H 	0.60100 0.43700 0.54300 0.19000
H 	H 	0.57000 0.51600 0.61000 0.17600
H 	H 	0.65900 0.49900 0.64400 0.22200
Ag	Ag	0.50000 0.25000 0.87500 0.52200
N 	N 	0.11194 0.69380 0.47830 -0.34600
C 	C 	0.15916 0.67095 0.54520 0.36800
C 	C 	0.21930 0.64260 0.63320 -1.35800
H 	H 	0.20200 0.58100 0.67400 0.17300
H 	H 	0.23100 0.68300 0.68500 0.25500
H 	H 	0.27400 0.63200 0.60300 0.19400
H 	H 	0.18700 0.64900 0.70700 0.18200
H 	H 	0.26600 0.68000 0.64000 0.17000
H 	H 	0.24900 0.59100 0.60600 0.21400
N 	N 	0.88806 0.80620 0.47830 -0.32800
C 	C 	0.84084 0.82905 0.54520 0.39100
C 	C 	0.78070 0.85740 0.63320 -1.38900
H 	H 	0.79800 0.91900 0.67400 0.17700
H 	H 	0.76900 0.81700 0.68500 0.26100
H 	H 	0.72600 0.86800 0.60300 0.19700
H 	H 	0.81300 0.85100 0.70700 0.19200
H 	H 	0.73400 0.82000 0.64000 0.17600
H 	H 	0.75100 0.90900 0.60600 0.22100
N 	N 	0.94380 0.63806 0.27170 -0.34400
C 	C 	0.92095 0.59084 0.20480 0.44700
C 	C 	0.89260 0.53070 0.11680 -1.56200
H 	H 	0.83100 0.54800 0.07600 0.20400
H 	H 	0.93300 0.51900 0.06500 0.30400
H 	H 	0.88200 0.47600 0.14700 0.22700
H 	H 	0.89900 0.56300 0.04300 0.22400
H 	H 	0.93000 0.48400 0.11000 0.20800
H 	H 	0.84100 0.50100 0.14400 0.25000
N 	N 	0.05620 0.86194 0.27170 -0.32900
C 	C 	0.07905 0.90916 0.20480 0.31000
C 	C 	0.10740 0.96930 0.11680 -1.16800
H 	H 	0.16900 0.95200 0.07600 0.14500
H 	H 	0.06700 0.98100 0.06500 0.21400
H 	H 	0.11800 0.02400 0.14700 0.15900
H 	H 	0.10100 0.93700 0.04300 0.14900
H 	H 	0.07000 0.01600 0.11000 0.13200
H 	H 	0.15900 0.99900 0.14400 0.18500
Ag	Ag	-0.00000 0.75000 0.37500 0.49600
N 	N 	0.55620 0.86194 0.22830 -0.34400
C 	C 	0.57905 0.90916 0.29520 0.39100
C 	C 	0.60740 0.96930 0.38320 -1.41000
H 	H 	0.66900 0.95200 0.42400 0.18200
H 	H 	0.56700 0.98100 0.43500 0.26400
H 	H 	0.61800 0.02400 0.35300 0.20100
H 	H 	0.60100 0.93700 0.45700 0.19300
H 	H 	0.57000 0.01600 0.39000 0.18000
H 	H 	0.65900 0.99900 0.35600 0.22400
N 	N 	0.44380 0.63806 0.22830 -0.34000
C 	C 	0.42095 0.59084 0.29520 0.37600
C 	C 	0.39260 0.53070 0.38320 -1.36500
H 	H 	0.33100 0.54800 0.42400 0.17300
H 	H 	0.43300 0.51900 0.43500 0.25600
H 	H 	0.38200 0.47600 0.35300 0.19500
H 	H 	0.39900 0.56300 0.45700 0.18600
H 	H 	0.43000 0.48400 0.39000 0.17200
H 	H 	0.34100 0.50100 0.35600 0.21500
N 	N 	0.38806 0.80620 0.02170 -0.33300
C 	C 	0.34084 0.82905 0.95480 0.36000
C 	C 	0.28070 0.85740 0.86680 -1.32000
H 	H 	0.29800 0.91900 0.82600 0.16600
H 	H 	0.26900 0.81700 0.81500 0.24700
H 	H 	0.22600 0.86800 0.89700 0.18600
H 	H 	0.31300 0.85100 0.79300 0.17800
H 	H 	0.23400 0.82000 0.86000 0.16300
H 	H 	0.25100 0.90900 0.89400 0.20800
N 	N 	0.61194 0.69380 0.02170 -0.34200
C 	C 	0.65916 0.67095 0.95480 0.38500
C 	C 	0.71930 0.64260 0.86680 -1.40200
H 	H 	0.70200 0.58100 0.82600 0.18100
H 	H 	0.73100 0.68300 0.81500 0.26400
H 	H 	0.77400 0.63200 0.89700 0.20100
H 	H 	0.68700 0.64900 0.79300 0.19200
H 	H 	0.76600 0.68000 0.86000 0.18000
H 	H 	0.74900 0.59100 0.89400 0.22200
Ag	Ag	0.50000 0.75000 0.12500 0.52100
N 	N 	0.05620 0.36194 0.72830 -0.33200
C 	C 	0.07905 0.40916 0.79520 0.31700
C 	C 	0.10740 0.46930 0.88320 -1.19900
H 	H 	0.16900 0.45200 0.92400 0.14900
H 	H 	0.06700 0.48100 0.93500 0.21400
H 	H 	0.11800 0.52400 0.85300 0.16600
H 	H 	0.10100 0.43700 0.95700 0.15400
H 	H 	0.07000 0.51600 0.89000 0.14100
H 	H 	0.15900 0.49900 0.85600 0.18700
N 	N 	0.94380 0.13806 0.72830 -0.33500
C 	C 	0.92095 0.09084 0.79520 0.42700
C 	C 	0.89260 0.03070 0.88320 -1.47900
H 	H 	0.83100 0.04800 0.92400 0.19300
H 	H 	0.93300 0.01900 0.93500 0.29700
H 	H 	0.88200 0.97600 0.85300 0.20700
H 	H 	0.89900 0.06300 0.95700 0.20900
H 	H 	0.93000 0.98400 0.89000 0.18800
H 	H 	0.84100 0.00100 0.85600 0.24300
N 	N 	0.88806 0.30620 0.52170 -0.32800
C 	C 	0.84084 0.32905 0.45480 0.39400
C 	C 	0.78070 0.35740 0.36680 -1.39700
H 	H 	0.79800 0.41900 0.32600 0.17900
H 	H 	0.76900 0.31700 0.31500 0.26300
H 	H 	0.72600 0.36800 0.39700 0.19800
H 	H 	0.81300 0.35100 0.29300 0.19300
H 	H 	0.73400 0.32000 0.36000 0.17700
H 	H 	0.75100 0.40900 0.39400 0.22300
N 	N 	0.11194 0.19380 0.52170 -0.34700
C 	C 	0.15916 0.17095 0.45480 0.36900
C 	C 	0.21930 0.14260 0.36680 -1.36100
H 	H 	0.20200 0.08100 0.32600 0.17400
H 	H 	0.23100 0.18300 0.31500 0.25500
H 	H 	0.27400 0.13200 0.39700 0.19400
H 	H 	0.18700 0.14900 0.29300 0.18300
H 	H 	0.26600 0.18000 0.36000 0.17100
H 	H 	0.24900 0.09100 0.39400 0.21500
Ag	Ag	0.00000 0.25000 0.62500 0.49500
