data_crystal

_cell_length_a 7.93410
_cell_length_b 11.55000
_cell_length_c 18.11570
_cell_angle_alpha 90.00000
_cell_angle_beta  90.00000
_cell_angle_gamma 90.00000

_symmetry_space_group_name_	'P 1'
_symmetry_space_group_name_H-M	'P 1'

loop_
_symmetry_equiv_pos_as_xyz
  x,y,z

loop_
_atom_site_label
_atom_site_type_symbol
_atom_site_fract_x
_atom_site_fract_y
_atom_site_fract_z
_atom_site_charge
C 	C 	0.30500 0.92750 0.26843 0.14700
C 	C 	0.38740 0.82110 0.26400 -0.18400
H 	H 	0.42480 0.78380 0.30780 0.07100
C 	C 	0.41480 0.76960 0.19625 0.05100
H 	H 	0.47300 0.69780 0.19370 -0.01700
C 	C 	0.35840 0.82140 0.13208 -0.10300
C 	C 	0.27490 0.92760 0.13660 0.02800
H 	H 	0.23560 0.96410 0.09290 0.03800
C 	C 	0.24910 0.98000 0.20410 -0.11800
H 	H 	0.19260 0.05240 0.20650 0.03700
C 	C 	0.38480 0.77070 0.05919 0.18200
N 	N 	0.27350 0.98230 0.33691 -0.43700
H 	H 	0.29000 0.05000 0.33300 0.15400
H 	H 	0.31700 0.95500 0.36800 0.20200
N 	N 	0.43820 0.66960 0.03904 -0.18000
C 	C 	0.69500 0.07250 0.26843 0.23000
C 	C 	0.61260 0.17890 0.26400 -0.23900
H 	H 	0.57520 0.21620 0.30780 0.09400
C 	C 	0.58520 0.23040 0.19625 0.10700
H 	H 	0.52700 0.30220 0.19370 -0.03500
C 	C 	0.64160 0.17860 0.13208 -0.15400
C 	C 	0.72510 0.07240 0.13660 0.12800
H 	H 	0.76440 0.03590 0.09290 0.00400
C 	C 	0.75090 0.02000 0.20410 -0.27800
H 	H 	0.80740 0.94760 0.20650 0.13700
C 	C 	0.61520 0.22930 0.05919 0.20300
N 	N 	0.72650 0.01770 0.33691 -0.52100
H 	H 	0.71000 0.95000 0.33300 0.22100
H 	H 	0.68300 0.04500 0.36800 0.22900
N 	N 	0.56180 0.33040 0.03904 -0.18400
C 	C 	0.69500 0.07250 0.73157 0.22800
C 	C 	0.61260 0.17890 0.73600 -0.23700
H 	H 	0.57520 0.21620 0.69220 0.09400
C 	C 	0.58520 0.23040 0.80375 0.10300
H 	H 	0.52700 0.30220 0.80630 -0.03400
C 	C 	0.64160 0.17860 0.86792 -0.15100
C 	C 	0.72510 0.07240 0.86340 0.12400
H 	H 	0.76440 0.03590 0.90710 -0.00600
C 	C 	0.75090 0.02000 0.79590 -0.27800
H 	H 	0.80740 0.94760 0.79350 0.13500
C 	C 	0.61520 0.22930 0.94081 0.17500
N 	N 	0.72650 0.01770 0.66309 -0.52100
H 	H 	0.71000 0.95000 0.66700 0.22100
H 	H 	0.68300 0.04500 0.63200 0.22900
N 	N 	0.56180 0.33040 0.96096 -0.20300
C 	C 	0.30500 0.92750 0.73157 0.14700
C 	C 	0.38740 0.82110 0.73600 -0.18200
H 	H 	0.42480 0.78380 0.69220 0.07100
C 	C 	0.41480 0.76960 0.80375 0.04700
H 	H 	0.47300 0.69780 0.80630 -0.01600
C 	C 	0.35840 0.82140 0.86792 -0.09900
C 	C 	0.27490 0.92760 0.86340 0.02400
H 	H 	0.23560 0.96410 0.90710 0.02900
C 	C 	0.24910 0.98000 0.79590 -0.11800
H 	H 	0.19260 0.05240 0.79350 0.03500
C 	C 	0.38480 0.77070 0.94081 0.15500
N 	N 	0.27350 0.98230 0.66309 -0.43700
H 	H 	0.29000 0.05000 0.66700 0.15400
H 	H 	0.31700 0.95500 0.63200 0.20200
N 	N 	0.43820 0.66960 0.96096 -0.20000
Ag	Ag	0.50000 0.50000 0.09898 0.51100
Ag	Ag	0.50000 0.50000 0.90102 0.50100
O 	O 	0.35000 0.83900 -0.00000 -0.23300
O 	O 	0.65000 0.16100 -0.00000 -0.24200
C 	C 	0.19500 0.42750 0.23157 0.18100
C 	C 	0.11260 0.32110 0.23600 -0.21800
H 	H 	0.07520 0.28380 0.19220 0.07200
C 	C 	0.08520 0.26960 0.30375 0.07700
H 	H 	0.02700 0.19780 0.30630 -0.03900
C 	C 	0.14160 0.32140 0.36792 -0.14000
C 	C 	0.22510 0.42760 0.36340 0.07900
H 	H 	0.26440 0.46410 0.40710 0.01200
C 	C 	0.25090 0.48000 0.29590 -0.21000
H 	H 	0.30740 0.55240 0.29350 0.08600
C 	C 	0.11520 0.27070 0.44081 0.18900
N 	N 	0.22650 0.48230 0.16309 -0.47400
H 	H 	0.21000 0.55000 0.16700 0.17700
H 	H 	0.18300 0.45500 0.13200 0.20300
N 	N 	0.06180 0.16960 0.46096 -0.20200
C 	C 	0.80500 0.57250 0.23157 0.20500
C 	C 	0.88740 0.67890 0.23600 -0.21300
H 	H 	0.92480 0.71620 0.19220 0.09600
C 	C 	0.91480 0.73040 0.30375 0.08700
H 	H 	0.97300 0.80220 0.30630 -0.01200
C 	C 	0.85840 0.67860 0.36792 -0.12700
C 	C 	0.77490 0.57240 0.36340 0.09000
H 	H 	0.73560 0.53590 0.40710 0.01800
C 	C 	0.74910 0.52000 0.29590 -0.20800
H 	H 	0.69260 0.44760 0.29350 0.09600
C 	C 	0.88480 0.72930 0.44081 0.20000
N 	N 	0.77350 0.51770 0.16309 -0.50000
H 	H 	0.79000 0.45000 0.16700 0.20400
H 	H 	0.81700 0.54500 0.13200 0.23300
N 	N 	0.93820 0.83040 0.46096 -0.17500
C 	C 	0.80500 0.57250 0.76843 0.20100
C 	C 	0.88740 0.67890 0.76400 -0.21000
H 	H 	0.92480 0.71620 0.80780 0.09200
C 	C 	0.91480 0.73040 0.69625 0.08400
H 	H 	0.97300 0.80220 0.69370 -0.01200
C 	C 	0.85840 0.67860 0.63208 -0.12500
C 	C 	0.77490 0.57240 0.63660 0.08700
H 	H 	0.73560 0.53590 0.59290 0.01900
C 	C 	0.74910 0.52000 0.70410 -0.20500
H 	H 	0.69260 0.44760 0.70650 0.09500
C 	C 	0.88480 0.72930 0.55919 0.20000
N 	N 	0.77350 0.51770 0.83691 -0.49400
H 	H 	0.79000 0.45000 0.83300 0.20000
H 	H 	0.81700 0.54500 0.86800 0.22400
N 	N 	0.93820 0.83040 0.53904 -0.17500
C 	C 	0.19500 0.42750 0.76843 0.17600
C 	C 	0.11260 0.32110 0.76400 -0.21400
H 	H 	0.07520 0.28380 0.80780 0.06800
C 	C 	0.08520 0.26960 0.69625 0.07500
H 	H 	0.02700 0.19780 0.69370 -0.03800
C 	C 	0.14160 0.32140 0.63208 -0.13800
C 	C 	0.22510 0.42760 0.63660 0.07700
H 	H 	0.26440 0.46410 0.59290 0.01300
C 	C 	0.25090 0.48000 0.70410 -0.20700
H 	H 	0.30740 0.55240 0.70650 0.08500
C 	C 	0.11520 0.27070 0.55919 0.18900
N 	N 	0.22650 0.48230 0.83691 -0.46900
H 	H 	0.21000 0.55000 0.83300 0.17300
H 	H 	0.18300 0.45500 0.86800 0.19400
N 	N 	0.06180 0.16960 0.53904 -0.20200
Ag	Ag	0.00000 0.00000 0.40102 0.46800
Ag	Ag	0.00000 0.00000 0.59898 0.46800
O 	O 	0.15000 0.33900 0.50000 -0.26900
O 	O 	0.85000 0.66100 0.50000 -0.25800
