data_crystal

_cell_length_a 9.33450
_cell_length_b 12.04270
_cell_length_c 27.51400
_cell_angle_alpha 90.00000
_cell_angle_beta  90.00000
_cell_angle_gamma 112.80300

_symmetry_space_group_name_	'P 1'
_symmetry_space_group_name_H-M	'P 1'

loop_
_symmetry_equiv_pos_as_xyz
  x,y,z

loop_
_atom_site_label
_atom_site_type_symbol
_atom_site_fract_x
_atom_site_fract_y
_atom_site_fract_z
_atom_site_charge
Cd	Cd	0.64916 0.00000 0.50000 1.19500
Cd	Cd	0.35084 0.00000 1.00000 1.18900
Cd	Cd	0.74404 0.48808 0.25000 1.21000
Cd	Cd	0.25596 0.51192 0.75000 1.21000
H 	H 	0.74290 0.62820 0.50900 -0.00900
H 	H 	0.88930 0.51540 0.49390 0.15300
H 	H 	0.13480 0.75160 0.39340 0.14400
H 	H 	0.97970 0.86220 0.40690 0.00000
H 	H 	0.41330 0.64580 0.44740 0.14200
H 	H 	0.59090 0.64620 0.38960 -0.01300
H 	H 	0.25260 0.52060 0.29110 -0.00700
H 	H 	0.07460 0.52340 0.34960 0.14600
H 	H 	0.47860 0.23760 0.25910 0.23500
H 	H 	0.32050 0.23880 0.24030 0.26100
H 	H 	0.36710 0.13040 0.22760 0.25400
H 	H 	0.74530 0.45520 0.12570 0.02700
H 	H 	0.52640 0.32500 0.07630 0.04100
H 	H 	0.27390 0.13600 0.09660 0.03500
H 	H 	0.24330 0.09520 0.15110 0.02200
H 	H 	0.14970 0.24380 0.16630 0.06000
H 	H 	0.18610 0.29000 0.11270 0.07900
H 	H 	0.99500 0.11140 0.08360 0.05400
H 	H 	0.96250 0.05900 0.13660 0.05000
H 	H 	0.90640 0.26320 0.10620 0.04000
H 	H 	0.87170 0.20900 0.15870 0.03300
H 	H 	0.61830 0.00480 0.16840 0.05700
H 	H 	0.39380 0.91080 0.11580 -0.02400
H 	H 	0.69720 0.15560 0.99410 0.19800
H 	H 	0.72540 0.26720 0.02780 0.25400
H 	H 	0.84790 0.20780 0.02610 0.25800
H 	H 	0.25710 0.37180 0.00900 0.03100
H 	H 	0.11070 0.48460 0.99390 0.12900
H 	H 	0.86520 0.24840 0.89340 0.12600
H 	H 	0.02030 0.13780 0.90690 -0.02400
H 	H 	0.58670 0.35420 0.94740 0.13400
H 	H 	0.40910 0.35380 0.88960 -0.01500
H 	H 	0.74740 0.47940 0.79110 -0.00900
H 	H 	0.92540 0.47660 0.84960 0.14100
H 	H 	0.52140 0.76240 0.75910 0.24700
H 	H 	0.67950 0.76120 0.74030 0.27300
H 	H 	0.63290 0.86960 0.72760 0.27700
H 	H 	0.25470 0.54480 0.62570 0.02700
H 	H 	0.47360 0.67500 0.57630 0.04100
H 	H 	0.72610 0.86400 0.59660 0.06400
H 	H 	0.75670 0.90480 0.65110 0.05400
H 	H 	0.85030 0.75620 0.66630 0.04600
H 	H 	0.81390 0.71000 0.61270 0.06300
H 	H 	0.00500 0.88860 0.58360 0.08900
H 	H 	0.03750 0.94100 0.63660 0.09100
H 	H 	0.09360 0.73680 0.60620 0.02500
H 	H 	0.12830 0.79100 0.65870 0.02000
H 	H 	0.38170 0.99520 0.66840 -0.01300
H 	H 	0.60620 0.08920 0.61580 0.07000
H 	H 	0.30280 0.84440 0.49410 0.27100
H 	H 	0.27460 0.73280 0.52780 0.29200
H 	H 	0.15210 0.79220 0.52610 0.30200
H 	H 	0.88530 0.62820 0.99100 -0.05200
H 	H 	0.62610 0.51540 0.00610 0.17800
H 	H 	0.61680 0.75160 0.10660 0.15700
H 	H 	0.88250 0.86220 0.09310 -0.01500
H 	H 	0.23250 0.64580 0.05260 0.15000
H 	H 	0.05530 0.64620 0.11040 -0.01300
H 	H 	0.26800 0.52060 0.20890 -0.00900
H 	H 	0.44880 0.52340 0.15040 0.14700
H 	H 	0.75900 0.23760 0.24090 0.23300
H 	H 	0.91830 0.23880 0.25970 0.25700
H 	H 	0.76330 0.13040 0.27240 0.25200
H 	H 	0.70990 0.45520 0.37430 0.02700
H 	H 	0.79860 0.32500 0.42370 0.03900
H 	H 	0.86210 0.13600 0.40340 0.03200
H 	H 	0.85190 0.09520 0.34890 0.02000
H 	H 	0.09410 0.24380 0.33370 0.06000
H 	H 	0.10390 0.29000 0.38730 0.07800
H 	H 	0.11640 0.11140 0.41640 0.05200
H 	H 	0.09650 0.05900 0.36340 0.05000
H 	H 	0.35680 0.26320 0.39380 0.04000
H 	H 	0.33730 0.20900 0.34130 0.03500
H 	H 	0.38650 0.00480 0.33160 0.05900
H 	H 	0.51700 0.91080 0.38420 -0.02600
H 	H 	0.45840 0.15560 0.50590 0.24200
H 	H 	0.54180 0.26720 0.47220 0.27900
H 	H 	0.35990 0.20780 0.47390 0.28200
H 	H 	0.11470 0.37180 0.49100 -0.01000
H 	H 	0.37390 0.48460 0.50610 0.15400
H 	H 	0.38320 0.24840 0.60660 0.13500
H 	H 	0.11750 0.13780 0.59310 -0.03300
H 	H 	0.76750 0.35420 0.55260 0.14100
H 	H 	0.94470 0.35380 0.61040 -0.01800
H 	H 	0.73200 0.47940 0.70890 -0.01000
H 	H 	0.55120 0.47660 0.65040 0.14400
H 	H 	0.24100 0.76240 0.74090 0.24900
H 	H 	0.08170 0.76120 0.75970 0.27600
H 	H 	0.23670 0.86960 0.77240 0.27900
H 	H 	0.29010 0.54480 0.87430 0.02600
H 	H 	0.20140 0.67500 0.92370 0.04000
H 	H 	0.13790 0.86400 0.90340 0.06300
H 	H 	0.14810 0.90480 0.84890 0.05400
H 	H 	0.90590 0.75620 0.83370 0.04700
H 	H 	0.89610 0.71000 0.88730 0.06300
H 	H 	0.88360 0.88860 0.91640 0.08400
H 	H 	0.90350 0.94100 0.86340 0.08900
H 	H 	0.64320 0.73680 0.89380 0.02200
H 	H 	0.66270 0.79100 0.84130 0.01900
H 	H 	0.61350 0.99520 0.83160 -0.01400
H 	H 	0.48300 0.08920 0.88420 0.07000
H 	H 	0.54160 0.84440 0.00590 0.30800
H 	H 	0.45820 0.73280 0.97220 0.31200
H 	H 	0.64010 0.79220 0.97390 0.32000
C 	C 	0.75670 0.83400 0.46920 0.34900
C 	C 	0.84670 0.75500 0.45960 -0.20000
C 	C 	0.82040 0.65300 0.48550 0.16900
C 	C 	0.90920 0.58640 0.47680 -0.32500
C 	C 	0.02570 0.62380 0.44340 0.32400
C 	C 	0.05570 0.72680 0.41640 -0.30800
C 	C 	0.96310 0.79280 0.42480 0.15600
C 	C 	0.22550 0.57660 0.40420 0.32100
C 	C 	0.38050 0.61840 0.41610 -0.31500
C 	C 	0.48620 0.61960 0.38150 0.17400
C 	C 	0.43970 0.58200 0.33490 -0.19600
C 	C 	0.28530 0.54520 0.32270 0.16500
C 	C 	0.17860 0.54520 0.35790 -0.31200
C 	C 	0.55390 0.56860 0.29880 0.32200
C 	C 	0.40560 0.21580 0.23270 -0.80400
C 	C 	0.48410 0.27900 0.18760 0.28600
C 	C 	0.65500 0.39540 0.13750 -0.00300
C 	C 	0.53480 0.32380 0.11000 -0.00900
C 	C 	0.27270 0.16440 0.12960 -0.00900
C 	C 	0.15420 0.21880 0.13300 -0.12500
C 	C 	0.99280 0.13240 0.11760 -0.10200
C 	C 	0.87390 0.18880 0.12460 -0.04500
C 	C 	0.60940 0.02480 0.13620 -0.14400
C 	C 	0.48570 0.97380 0.10700 0.17300
C 	C 	0.65690 0.11080 0.06490 0.26900
C 	C 	0.73910 0.19260 0.02470 -0.74700
C 	C 	0.24330 0.16600 0.96920 0.31800
C 	C 	0.15330 0.24500 0.95960 -0.17700
C 	C 	0.17960 0.34700 0.98550 0.09400
C 	C 	0.09080 0.41360 0.97680 -0.26900
C 	C 	0.97430 0.37620 0.94340 0.29000
C 	C 	0.94430 0.27320 0.91640 -0.30200
C 	C 	0.03690 0.20720 0.92480 0.14300
C 	C 	0.77450 0.42340 0.90420 0.31400
C 	C 	0.61950 0.38160 0.91610 -0.31400
C 	C 	0.51380 0.38040 0.88150 0.16700
C 	C 	0.56030 0.41800 0.83490 -0.19900
C 	C 	0.71470 0.45480 0.82270 0.15900
C 	C 	0.82140 0.45480 0.85790 -0.31100
C 	C 	0.44610 0.43140 0.79880 0.31900
C 	C 	0.59440 0.78420 0.73270 -0.83400
C 	C 	0.51590 0.72100 0.68760 0.29600
C 	C 	0.34500 0.60460 0.63750 -0.00300
C 	C 	0.46520 0.67620 0.61000 -0.00900
C 	C 	0.72730 0.83560 0.62960 -0.05000
C 	C 	0.84580 0.78120 0.63300 -0.07800
C 	C 	0.00720 0.86760 0.61760 -0.15600
C 	C 	0.12610 0.81120 0.62460 0.00800
C 	C 	0.39060 0.97520 0.63620 0.13600
C 	C 	0.51430 0.02620 0.60700 -0.18100
C 	C 	0.34310 0.88920 0.56490 0.32300
C 	C 	0.26090 0.80740 0.52470 -0.88700
C 	C 	0.07730 0.83400 0.03080 0.39400
C 	C 	0.90830 0.75500 0.04040 -0.25200
C 	C 	0.83260 0.65300 0.01450 0.25600
C 	C 	0.67720 0.58640 0.02320 -0.37400
C 	C 	0.59810 0.62380 0.05660 0.35500
C 	C 	0.67110 0.72680 0.08360 -0.34900
C 	C 	0.82970 0.79280 0.07520 0.20400
C 	C 	0.35110 0.57660 0.09580 0.32800
C 	C 	0.23790 0.61840 0.08390 -0.32100
C 	C 	0.13340 0.61960 0.11850 0.18100
C 	C 	0.14230 0.58200 0.16510 -0.20000
C 	C 	0.25990 0.54520 0.17730 0.17100
C 	C 	0.36660 0.54520 0.14210 -0.31800
C 	C 	0.01470 0.56860 0.20120 0.32800
C 	C 	0.81020 0.21580 0.26730 -0.79800
C 	C 	0.79490 0.27900 0.31240 0.28300
C 	C 	0.74040 0.39540 0.36250 -0.00400
C 	C 	0.78900 0.32380 0.39000 -0.00900
C 	C 	0.89170 0.16440 0.37040 -0.01200
C 	C 	0.06460 0.21880 0.36700 -0.12600
C 	C 	0.13960 0.13240 0.38240 -0.09600
C 	C 	0.31490 0.18880 0.37540 -0.04700
C 	C 	0.41540 0.02480 0.36380 -0.14800
C 	C 	0.48810 0.97380 0.39300 0.17800
C 	C 	0.45390 0.11080 0.43510 0.29200
C 	C 	0.45350 0.19260 0.47530 -0.84600
C 	C 	0.92270 0.16600 0.53080 0.35400
C 	C 	0.09170 0.24500 0.54040 -0.21500
C 	C 	0.16740 0.34700 0.51450 0.17700
C 	C 	0.32280 0.41360 0.52320 -0.32600
C 	C 	0.40190 0.37620 0.55660 0.32500
C 	C 	0.32890 0.27320 0.58360 -0.32700
C 	C 	0.17030 0.20720 0.57520 0.17100
C 	C 	0.64890 0.42340 0.59580 0.32100
C 	C 	0.76210 0.38160 0.58390 -0.32000
C 	C 	0.86660 0.38040 0.61850 0.17200
C 	C 	0.85770 0.41800 0.66510 -0.20200
C 	C 	0.74010 0.45480 0.67730 0.16300
C 	C 	0.63340 0.45480 0.64210 -0.31600
C 	C 	0.98530 0.43140 0.70120 0.31500
C 	C 	0.18980 0.78420 0.76730 -0.83800
C 	C 	0.20510 0.72100 0.81240 0.29800
C 	C 	0.25960 0.60460 0.86250 -0.00300
C 	C 	0.21100 0.67620 0.89000 -0.00800
C 	C 	0.10830 0.83560 0.87040 -0.04500
C 	C 	0.93540 0.78120 0.86700 -0.08200
C 	C 	0.86040 0.86760 0.88240 -0.15600
C 	C 	0.68510 0.81120 0.87540 0.00800
C 	C 	0.58460 0.97520 0.86380 0.13800
C 	C 	0.51190 0.02620 0.89300 -0.18400
C 	C 	0.54610 0.88920 0.93510 0.34200
C 	C 	0.54650 0.80740 0.97530 -0.97000
N 	N 	0.62370 0.36660 0.18570 -0.27500
N 	N 	0.42660 0.24800 0.14220 -0.16000
N 	N 	0.71880 0.11140 0.10960 -0.13700
N 	N 	0.51470 0.02760 0.06264 -0.33300
N 	N 	0.37630 0.63340 0.68570 -0.27700
N 	N 	0.57340 0.75200 0.64220 -0.15300
N 	N 	0.28120 0.88860 0.60960 -0.18800
N 	N 	0.48530 0.97240 0.56264 -0.23200
N 	N 	0.74290 0.36660 0.31430 -0.27500
N 	N 	0.82140 0.24800 0.35780 -0.16000
N 	N 	0.39260 0.11140 0.39040 -0.14100
N 	N 	0.51290 0.02760 0.43736 -0.34300
N 	N 	0.25710 0.63340 0.81430 -0.27700
N 	N 	0.17860 0.75200 0.85780 -0.15400
N 	N 	0.60740 0.88860 0.89040 -0.19200
N 	N 	0.48710 0.97240 0.93736 -0.23700
O 	O 	0.65630 0.80540 0.50280 -0.38800
O 	O 	0.78630 0.92540 0.44470 -0.36700
O 	O 	0.11850 0.55860 0.44188 -0.33400
O 	O 	0.69860 0.61980 0.30800 -0.37100
O 	O 	0.50220 0.50280 0.26190 -0.39500
O 	O 	0.34370 0.19460 0.00280 -0.37800
O 	O 	0.21370 0.07460 0.94470 -0.41500
O 	O 	0.88150 0.44140 0.94188 -0.33000
O 	O 	0.30140 0.38020 0.80800 -0.38200
O 	O 	0.49780 0.49720 0.76190 -0.39800
O 	O 	0.14910 0.80540 0.99720 -0.41200
O 	O 	0.13910 0.92540 0.05530 -0.37300
O 	O 	0.44010 0.55860 0.05812 -0.34100
O 	O 	0.92120 0.61980 0.19200 -0.37600
O 	O 	0.00060 0.50280 0.23810 -0.39500
O 	O 	0.85090 0.19460 0.49720 -0.40600
O 	O 	0.86090 0.07460 0.55530 -0.42300
O 	O 	0.55990 0.44140 0.55812 -0.33600
O 	O 	0.07880 0.38020 0.69200 -0.37900
O 	O 	0.99940 0.49720 0.73810 -0.40000
