data_crystal

_cell_length_a 10.75100
_cell_length_b 17.86830
_cell_length_c 22.60060
_cell_angle_alpha 70.29280
_cell_angle_beta  76.24040
_cell_angle_gamma 72.49190

_symmetry_space_group_name_	'P 1'
_symmetry_space_group_name_H-M	'P 1'

loop_
_symmetry_equiv_pos_as_xyz
  x,y,z

loop_
_atom_site_label
_atom_site_type_symbol
_atom_site_fract_x
_atom_site_fract_y
_atom_site_fract_z
_atom_site_charge
H 	H 	0.52010 0.58950 0.35290 -0.05100
H 	H 	0.63660 0.56730 0.25790 0.21400
H 	H 	0.29960 0.63660 0.18840 0.24600
H 	H 	0.18490 0.65850 0.28270 -0.08400
H 	H 	0.71090 0.80610 0.12730 -0.06200
H 	H 	0.55870 0.72850 0.16010 0.19800
H 	H 	0.80870 0.56330 0.08050 0.26400
H 	H 	0.96050 0.64030 0.04470 -0.01000
H 	H 	0.46250 0.91050 0.14710 -0.05100
H 	H 	0.46180 0.93270 0.24210 0.21400
H 	H 	0.12460 0.86340 0.31160 0.24600
H 	H 	0.12610 0.84150 0.21730 -0.08400
H 	H 	0.64430 0.69390 0.37270 -0.06200
H 	H 	0.44730 0.77150 0.33990 0.19800
H 	H 	0.45250 0.93670 0.41950 0.26400
H 	H 	0.64550 0.85970 0.45530 -0.01000
H 	H 	0.47990 0.41050 0.64710 -0.05200
H 	H 	0.36340 0.43270 0.74210 0.21300
H 	H 	0.70040 0.36340 0.81160 0.24500
H 	H 	0.81510 0.34150 0.71730 -0.08500
H 	H 	0.28910 0.19390 0.87270 -0.06300
H 	H 	0.44130 0.27150 0.83990 0.19700
H 	H 	0.19130 0.43670 0.91950 0.26300
H 	H 	0.03950 0.35970 0.95530 -0.01100
H 	H 	0.53750 0.08950 0.85290 -0.05200
H 	H 	0.53820 0.06730 0.75790 0.21300
H 	H 	0.87540 0.13660 0.68840 0.24500
H 	H 	0.87390 0.15850 0.78270 -0.08500
H 	H 	0.35570 0.30610 0.62730 -0.06300
H 	H 	0.55270 0.22850 0.66010 0.19700
H 	H 	0.54750 0.06330 0.58050 0.26300
H 	H 	0.35450 0.14030 0.54470 -0.01100
Pb	Pb	0.06364 0.67138 0.50282 1.24000
Pb	Pb	0.96893 0.46172 0.58756 1.18700
Pb	Pb	0.23784 0.82862 0.99718 1.23900
Pb	Pb	0.01821 0.03828 0.91244 1.18400
Pb	Pb	0.93636 0.32862 0.49718 1.24000
Pb	Pb	0.03107 0.53828 0.41244 1.18700
Pb	Pb	0.76216 0.17138 0.00282 1.23900
Pb	Pb	0.98179 0.96172 0.08756 1.18400
C 	C 	0.26280 0.64030 0.39050 0.36200
C 	C 	0.34170 0.62710 0.32810 -0.29300
C 	C 	0.47470 0.59950 0.31970 0.27500
C 	C 	0.54520 0.58570 0.26250 -0.41800
C 	C 	0.48160 0.59870 0.21350 0.46700
C 	C 	0.34490 0.62680 0.22160 -0.40800
C 	C 	0.27630 0.64030 0.27790 0.26500
C 	C 	0.56560 0.58410 0.15150 -0.55800
C 	C 	0.62810 0.49040 0.16540 0.99500
C 	C 	0.48340 0.61030 0.09610 1.01100
C 	C 	0.94880 0.78590 0.05650 0.40100
C 	C 	0.85150 0.73360 0.08100 -0.26900
C 	C 	0.73110 0.75720 0.11700 0.27200
C 	C 	0.64080 0.70980 0.13800 -0.40300
C 	C 	0.67060 0.63580 0.12680 0.45400
C 	C 	0.78950 0.61240 0.09040 -0.38300
C 	C 	0.88000 0.65880 0.06820 0.27600
C 	C 	0.29360 0.85970 0.10950 0.36200
C 	C 	0.29690 0.87290 0.17190 -0.29200
C 	C 	0.39390 0.90050 0.18030 0.27500
C 	C 	0.39340 0.91430 0.23750 -0.41700
C 	C 	0.29380 0.90130 0.28650 0.46700
C 	C 	0.19330 0.87320 0.27840 -0.40700
C 	C 	0.19450 0.85970 0.22210 0.26500
C 	C 	0.30120 0.91590 0.34850 -0.55700
C 	C 	0.28390 0.00960 0.33460 0.99400
C 	C 	0.18980 0.88970 0.40390 1.01100
C 	C 	0.79120 0.71410 0.44350 0.40700
C 	C 	0.66610 0.76640 0.41900 -0.27100
C 	C 	0.60530 0.74280 0.38300 0.27300
C 	C 	0.48860 0.79020 0.36200 -0.40400
C 	C 	0.43320 0.86420 0.37320 0.45500
C 	C 	0.49230 0.88760 0.40960 -0.38400
C 	C 	0.60700 0.84120 0.43180 0.27700
C 	C 	0.73720 0.35970 0.60950 0.36200
C 	C 	0.65830 0.37290 0.67190 -0.29300
C 	C 	0.52530 0.40050 0.68030 0.27500
C 	C 	0.45480 0.41430 0.73750 -0.41800
C 	C 	0.51840 0.40130 0.78650 0.46700
C 	C 	0.65510 0.37320 0.77840 -0.40800
C 	C 	0.72370 0.35970 0.72210 0.26500
C 	C 	0.43440 0.41590 0.84850 -0.55800
C 	C 	0.37190 0.50960 0.83460 0.99500
C 	C 	0.51660 0.38970 0.90390 1.01100
C 	C 	0.05120 0.21410 0.94350 0.40100
C 	C 	0.14850 0.26640 0.91900 -0.26900
C 	C 	0.26890 0.24280 0.88300 0.27200
C 	C 	0.35920 0.29020 0.86200 -0.40300
C 	C 	0.32940 0.36420 0.87320 0.45400
C 	C 	0.21050 0.38760 0.90960 -0.38300
C 	C 	0.12000 0.34120 0.93180 0.27600
C 	C 	0.70640 0.14030 0.89050 0.36200
C 	C 	0.70310 0.12710 0.82810 -0.29200
C 	C 	0.60610 0.09950 0.81970 0.27500
C 	C 	0.60660 0.08570 0.76250 -0.41700
C 	C 	0.70620 0.09870 0.71350 0.46700
C 	C 	0.80670 0.12680 0.72160 -0.40700
C 	C 	0.80550 0.14030 0.77790 0.26500
C 	C 	0.69880 0.08410 0.65150 -0.55700
C 	C 	0.71610 0.99040 0.66540 0.99400
C 	C 	0.81020 0.11030 0.59610 1.01100
C 	C 	0.20880 0.28590 0.55650 0.40700
C 	C 	0.33390 0.23360 0.58100 -0.27100
C 	C 	0.39470 0.25720 0.61700 0.27300
C 	C 	0.51140 0.20980 0.63800 -0.40400
C 	C 	0.56680 0.13580 0.62680 0.45500
C 	C 	0.50770 0.11240 0.59040 -0.38400
C 	C 	0.39300 0.15880 0.56820 0.27700
O 	O 	0.32050 0.61720 0.43820 -0.31800
O 	O 	0.14060 0.67320 0.39260 -0.43400
O 	O 	0.06720 0.75320 0.04480 -0.39700
O 	O 	0.90500 0.86270 0.04970 -0.44100
O 	O 	0.09440 0.53960 0.50540 -0.61900
O 	O 	0.37590 0.88280 0.06180 -0.31800
O 	O 	0.20640 0.82680 0.10740 -0.43400
O 	O 	0.86520 0.74680 0.45520 -0.40300
O 	O 	0.81740 0.63730 0.45030 -0.44100
O 	O 	0.13940 0.96040 0.99460 -0.61900
O 	O 	0.67950 0.38280 0.56180 -0.31800
O 	O 	0.85940 0.32680 0.60740 -0.43400
O 	O 	0.93280 0.24680 0.95520 -0.39700
O 	O 	0.09500 0.13730 0.95030 -0.44100
O 	O 	0.90560 0.46040 0.49460 -0.61900
O 	O 	0.62410 0.11720 0.93820 -0.31800
O 	O 	0.79360 0.17320 0.89260 -0.43400
O 	O 	0.13480 0.25320 0.54480 -0.40300
O 	O 	0.18260 0.36270 0.54970 -0.44100
O 	O 	0.86060 0.03960 0.00540 -0.61900
F 	F 	0.53750 0.44810 0.19810 -0.46900
F 	F 	0.72520 0.46640 0.19920 -0.52300
F 	F 	0.67660 0.46680 0.11240 -0.45300
F 	F 	0.55740 0.60250 0.04210 -0.47700
F 	F 	0.41870 0.68840 0.08660 -0.58300
F 	F 	0.39420 0.56600 0.10940 -0.47000
F 	F 	0.18370 0.05190 0.30190 -0.46900
F 	F 	0.39080 0.03360 0.30080 -0.52300
F 	F 	0.25580 0.03320 0.38760 -0.45300
F 	F 	0.20200 0.89750 0.45790 -0.47600
F 	F 	0.19370 0.81160 0.41340 -0.58300
F 	F 	0.06960 0.93400 0.39060 -0.46900
F 	F 	0.46250 0.55190 0.80190 -0.46900
F 	F 	0.27480 0.53360 0.80080 -0.52300
F 	F 	0.32340 0.53320 0.88760 -0.45300
F 	F 	0.44260 0.39750 0.95790 -0.47700
F 	F 	0.58130 0.31160 0.91340 -0.58300
F 	F 	0.60580 0.43400 0.89060 -0.47000
F 	F 	0.81630 0.94810 0.69810 -0.46900
F 	F 	0.60920 0.96640 0.69920 -0.52300
F 	F 	0.74420 0.96680 0.61240 -0.45300
F 	F 	0.79800 0.10250 0.54210 -0.47600
F 	F 	0.80630 0.18840 0.58660 -0.58300
F 	F 	0.93040 0.06600 0.60940 -0.46900
