data_crystal

_cell_length_a 12.61400
_cell_length_b 22.85700
_cell_length_c 14.60400
_cell_angle_alpha 90.00000
_cell_angle_beta  90.00000
_cell_angle_gamma 90.00000

_symmetry_space_group_name_	'P 1'
_symmetry_space_group_name_H-M	'P 1'

loop_
_symmetry_equiv_pos_as_xyz
  x,y,z

loop_
_atom_site_label
_atom_site_type_symbol
_atom_site_fract_x
_atom_site_fract_y
_atom_site_fract_z
_atom_site_charge
Zn	Zn	0.50000 0.75000 0.76142 1.18700
Zn	Zn	0.50000 0.25000 0.73858 1.18700
Zn	Zn	0.50000 0.25000 0.23858 1.18700
Zn	Zn	0.50000 0.75000 0.26142 1.18700
H 	H 	0.07300 0.90400 0.86200 0.05300
H 	H 	0.20100 0.84020 0.86800 0.06500
H 	H 	0.21000 0.84520 0.15300 0.05300
H 	H 	0.08000 0.91890 0.14900 0.05500
H 	H 	0.65200 0.95090 0.79600 0.09100
H 	H 	0.63800 0.85640 0.79580 -0.01400
H 	H 	0.35100 0.85460 0.72400 -0.00800
H 	H 	0.34100 0.95180 0.70700 0.08000
H 	H 	0.92700 0.59600 0.86200 0.05300
H 	H 	0.79900 0.65980 0.86800 0.06500
H 	H 	0.79000 0.65480 0.15300 0.05300
H 	H 	0.92000 0.58110 0.14900 0.05500
H 	H 	0.34800 0.54910 0.79600 0.09100
H 	H 	0.36200 0.64360 0.79580 -0.01400
H 	H 	0.64900 0.64540 0.72400 -0.00800
H 	H 	0.65900 0.54820 0.70700 0.08000
H 	H 	0.07300 0.09600 0.63800 0.05300
H 	H 	0.20100 0.15980 0.63200 0.06500
H 	H 	0.21000 0.15480 0.34700 0.05300
H 	H 	0.08000 0.08110 0.35100 0.05500
H 	H 	0.65200 0.04910 0.70400 0.09200
H 	H 	0.63800 0.14360 0.70420 -0.01400
H 	H 	0.35100 0.14540 0.77600 -0.00800
H 	H 	0.34100 0.04820 0.79300 0.08000
H 	H 	0.92700 0.40400 0.63800 0.05300
H 	H 	0.79900 0.34020 0.63200 0.06500
H 	H 	0.79000 0.34520 0.34700 0.05300
H 	H 	0.92000 0.41890 0.35100 0.05500
H 	H 	0.34800 0.45090 0.70400 0.09100
H 	H 	0.36200 0.35640 0.70420 -0.01400
H 	H 	0.64900 0.35460 0.77600 -0.00800
H 	H 	0.65900 0.45180 0.79300 0.08000
H 	H 	0.92700 0.09600 0.13800 0.05300
H 	H 	0.79900 0.15980 0.13200 0.06500
H 	H 	0.79000 0.15480 0.84700 0.05300
H 	H 	0.92000 0.08110 0.85100 0.05500
H 	H 	0.34800 0.04910 0.20400 0.09100
H 	H 	0.36200 0.14360 0.20420 -0.01400
H 	H 	0.64900 0.14540 0.27600 -0.00800
H 	H 	0.65900 0.04820 0.29300 0.08000
H 	H 	0.07300 0.40400 0.13800 0.05300
H 	H 	0.20100 0.34020 0.13200 0.06500
H 	H 	0.21000 0.34520 0.84700 0.05300
H 	H 	0.08000 0.41890 0.85100 0.05500
H 	H 	0.65200 0.45090 0.20400 0.09100
H 	H 	0.63800 0.35640 0.20420 -0.01400
H 	H 	0.35100 0.35460 0.27600 -0.00800
H 	H 	0.34100 0.45180 0.29300 0.08000
H 	H 	0.92700 0.90400 0.36200 0.05300
H 	H 	0.79900 0.84020 0.36800 0.06500
H 	H 	0.79000 0.84520 0.65300 0.05300
H 	H 	0.92000 0.91890 0.64900 0.05500
H 	H 	0.34800 0.95090 0.29600 0.09200
H 	H 	0.36200 0.85640 0.29580 -0.01400
H 	H 	0.64900 0.85460 0.22400 -0.00800
H 	H 	0.65900 0.95180 0.20700 0.08000
H 	H 	0.07300 0.59600 0.36200 0.05300
H 	H 	0.20100 0.65980 0.36800 0.06500
H 	H 	0.21000 0.65480 0.65300 0.05300
H 	H 	0.08000 0.58110 0.64900 0.05500
H 	H 	0.65200 0.54910 0.29600 0.09100
H 	H 	0.63800 0.64360 0.29580 -0.01400
H 	H 	0.35100 0.64540 0.22400 -0.00800
H 	H 	0.34100 0.54820 0.20700 0.08000
C 	C 	0.18590 0.86053 0.08975 -0.07100
C 	C 	0.22430 0.83571 0.00828 0.08400
C 	C 	0.34526 0.76647 0.92990 0.13500
C 	C 	0.34491 0.76832 0.09176 0.13700
C 	C 	0.30318 0.78952 0.01014 -0.15100
C 	C 	0.58530 0.87586 0.77660 0.08400
C 	C 	0.58880 0.93659 0.77222 -0.14000
C 	C 	0.49665 0.96749 0.75230 0.06000
C 	C 	0.18290 0.85603 0.92568 -0.09000
C 	C 	0.40460 0.93543 0.73660 -0.12000
C 	C 	0.97630 0.96698 0.00210 -0.06200
C 	C 	0.90860 0.96286 0.08390 0.09500
C 	C 	0.90840 0.95947 0.92050 0.09200
C 	C 	0.10570 0.90219 0.08740 -0.03800
C 	C 	0.06350 0.92060 0.00432 0.03100
C 	C 	0.40930 0.87465 0.74040 0.07600
C 	C 	0.10380 0.89752 0.92350 -0.03400
C 	C 	0.81410 0.63947 0.08975 -0.07100
C 	C 	0.77570 0.66429 0.00828 0.08400
C 	C 	0.65474 0.73353 0.92990 0.13500
C 	C 	0.65509 0.73168 0.09176 0.13700
C 	C 	0.69682 0.71048 0.01014 -0.15100
C 	C 	0.41470 0.62414 0.77660 0.08400
C 	C 	0.41120 0.56341 0.77222 -0.14000
C 	C 	0.50335 0.53251 0.75230 0.06000
C 	C 	0.81710 0.64397 0.92568 -0.09000
C 	C 	0.59540 0.56457 0.73660 -0.12000
C 	C 	0.02370 0.53302 0.00210 -0.06200
C 	C 	0.09140 0.53714 0.08390 0.09500
C 	C 	0.09160 0.54053 0.92050 0.09200
C 	C 	0.89430 0.59781 0.08740 -0.03800
C 	C 	0.93650 0.57940 0.00432 0.03100
C 	C 	0.59070 0.62535 0.74040 0.07600
C 	C 	0.89620 0.60248 0.92350 -0.03400
C 	C 	0.18590 0.13947 0.41025 -0.07100
C 	C 	0.22430 0.16429 0.49172 0.08400
C 	C 	0.34526 0.23353 0.57010 0.13500
C 	C 	0.34491 0.23168 0.40824 0.13700
C 	C 	0.30318 0.21048 0.48986 -0.15200
C 	C 	0.58530 0.12414 0.72340 0.08400
C 	C 	0.58880 0.06341 0.72778 -0.14000
C 	C 	0.49665 0.03251 0.74770 0.06000
C 	C 	0.18290 0.14397 0.57432 -0.09000
C 	C 	0.40460 0.06457 0.76340 -0.12000
C 	C 	0.97630 0.03302 0.49790 -0.06300
C 	C 	0.90860 0.03714 0.41610 0.09500
C 	C 	0.90840 0.04053 0.57950 0.09200
C 	C 	0.10570 0.09781 0.41260 -0.03800
C 	C 	0.06350 0.07940 0.49568 0.03100
C 	C 	0.40930 0.12535 0.75960 0.07600
C 	C 	0.10380 0.10248 0.57650 -0.03400
C 	C 	0.81410 0.36053 0.41025 -0.07100
C 	C 	0.77570 0.33571 0.49172 0.08400
C 	C 	0.65474 0.26647 0.57010 0.13500
C 	C 	0.65509 0.26832 0.40824 0.13700
C 	C 	0.69682 0.28952 0.48986 -0.15200
C 	C 	0.41470 0.37586 0.72340 0.08400
C 	C 	0.41120 0.43659 0.72778 -0.14000
C 	C 	0.50335 0.46749 0.74770 0.06000
C 	C 	0.81710 0.35603 0.57432 -0.09000
C 	C 	0.59540 0.43543 0.76340 -0.12000
C 	C 	0.02370 0.46698 0.49790 -0.06200
C 	C 	0.09140 0.46286 0.41610 0.09500
C 	C 	0.09160 0.45947 0.57950 0.09200
C 	C 	0.89430 0.40219 0.41260 -0.03800
C 	C 	0.93650 0.42060 0.49568 0.03100
C 	C 	0.59070 0.37465 0.75960 0.07600
C 	C 	0.89620 0.39752 0.57650 -0.03400
C 	C 	0.81410 0.13947 0.91025 -0.07100
C 	C 	0.77570 0.16429 0.99172 0.08400
C 	C 	0.65474 0.23353 0.07010 0.13500
C 	C 	0.65509 0.23168 0.90824 0.13700
C 	C 	0.69682 0.21048 0.98986 -0.15100
C 	C 	0.41470 0.12414 0.22340 0.08400
C 	C 	0.41120 0.06341 0.22778 -0.14000
C 	C 	0.50335 0.03251 0.24770 0.06000
C 	C 	0.81710 0.14397 0.07432 -0.09000
C 	C 	0.59540 0.06457 0.26340 -0.12000
C 	C 	0.02370 0.03302 0.99790 -0.06200
C 	C 	0.09140 0.03714 0.91610 0.09500
C 	C 	0.09160 0.04053 0.07950 0.09200
C 	C 	0.89430 0.09781 0.91260 -0.03800
C 	C 	0.93650 0.07940 0.99568 0.03100
C 	C 	0.59070 0.12535 0.25960 0.07600
C 	C 	0.89620 0.10248 0.07650 -0.03400
C 	C 	0.18590 0.36053 0.91025 -0.07100
C 	C 	0.22430 0.33571 0.99172 0.08400
C 	C 	0.34526 0.26647 0.07010 0.13500
C 	C 	0.34491 0.26832 0.90824 0.13700
C 	C 	0.30318 0.28952 0.98986 -0.15100
C 	C 	0.58530 0.37586 0.22340 0.08400
C 	C 	0.58880 0.43659 0.22778 -0.14000
C 	C 	0.49665 0.46749 0.24770 0.06000
C 	C 	0.18290 0.35603 0.07432 -0.09000
C 	C 	0.40460 0.43543 0.26340 -0.12000
C 	C 	0.97630 0.46698 0.99790 -0.06200
C 	C 	0.90860 0.46286 0.91610 0.09500
C 	C 	0.90840 0.45947 0.07950 0.09200
C 	C 	0.10570 0.40219 0.91260 -0.03800
C 	C 	0.06350 0.42060 0.99568 0.03100
C 	C 	0.40930 0.37465 0.25960 0.07600
C 	C 	0.10380 0.39752 0.07650 -0.03400
C 	C 	0.81410 0.86053 0.58975 -0.07100
C 	C 	0.77570 0.83571 0.50828 0.08400
C 	C 	0.65474 0.76647 0.42990 0.13500
C 	C 	0.65509 0.76832 0.59176 0.13700
C 	C 	0.69682 0.78952 0.51014 -0.15200
C 	C 	0.41470 0.87586 0.27660 0.08400
C 	C 	0.41120 0.93659 0.27222 -0.14000
C 	C 	0.50335 0.96749 0.25230 0.06000
C 	C 	0.81710 0.85603 0.42568 -0.09000
C 	C 	0.59540 0.93543 0.23660 -0.12000
C 	C 	0.02370 0.96698 0.50210 -0.06300
C 	C 	0.09140 0.96286 0.58390 0.09500
C 	C 	0.09160 0.95947 0.42050 0.09200
C 	C 	0.89430 0.90219 0.58740 -0.03800
C 	C 	0.93650 0.92060 0.50432 0.03100
C 	C 	0.59070 0.87465 0.24040 0.07600
C 	C 	0.89620 0.89752 0.42350 -0.03400
C 	C 	0.18590 0.63947 0.58975 -0.07100
C 	C 	0.22430 0.66429 0.50828 0.08400
C 	C 	0.34526 0.73353 0.42990 0.13500
C 	C 	0.34491 0.73168 0.59176 0.13700
C 	C 	0.30318 0.71048 0.51014 -0.15200
C 	C 	0.58530 0.62414 0.27660 0.08400
C 	C 	0.58880 0.56341 0.27222 -0.14000
C 	C 	0.49665 0.53251 0.25230 0.06000
C 	C 	0.18290 0.64397 0.42568 -0.09000
C 	C 	0.40460 0.56457 0.23660 -0.12000
C 	C 	0.97630 0.53302 0.50210 -0.06200
C 	C 	0.90860 0.53714 0.58390 0.09500
C 	C 	0.90840 0.54053 0.42050 0.09200
C 	C 	0.10570 0.59781 0.58740 -0.03800
C 	C 	0.06350 0.57940 0.50432 0.03100
C 	C 	0.40930 0.62535 0.24040 0.07600
C 	C 	0.10380 0.60248 0.42350 -0.03400
N 	N 	0.37970 0.74825 0.86317 -0.27500
N 	N 	0.37890 0.75115 0.15911 -0.27400
N 	N 	0.86120 0.95840 0.14960 -0.12800
N 	N 	0.49669 0.84495 0.76004 -0.25000
N 	N 	0.85940 0.95243 0.85560 -0.12900
N 	N 	0.62030 0.75175 0.86317 -0.27500
N 	N 	0.62110 0.74885 0.15911 -0.27400
N 	N 	0.13880 0.54160 0.14960 -0.12800
N 	N 	0.50331 0.65505 0.76004 -0.25000
N 	N 	0.14060 0.54757 0.85560 -0.12900
N 	N 	0.37970 0.25175 0.63683 -0.27500
N 	N 	0.37890 0.24885 0.34089 -0.27400
N 	N 	0.86120 0.04160 0.35040 -0.12800
N 	N 	0.49669 0.15505 0.73996 -0.25000
N 	N 	0.85940 0.04757 0.64440 -0.12900
N 	N 	0.62030 0.24825 0.63683 -0.27500
N 	N 	0.62110 0.25115 0.34089 -0.27400
N 	N 	0.13880 0.45840 0.35040 -0.12800
N 	N 	0.50331 0.34495 0.73996 -0.25000
N 	N 	0.14060 0.45243 0.64440 -0.12900
N 	N 	0.62030 0.25175 0.13683 -0.27500
N 	N 	0.62110 0.24885 0.84089 -0.27400
N 	N 	0.13880 0.04160 0.85040 -0.12800
N 	N 	0.50331 0.15505 0.23996 -0.25000
N 	N 	0.14060 0.04757 0.14440 -0.12900
N 	N 	0.37970 0.24825 0.13683 -0.27500
N 	N 	0.37890 0.25115 0.84089 -0.27400
N 	N 	0.86120 0.45840 0.85040 -0.12800
N 	N 	0.49669 0.34495 0.23996 -0.25000
N 	N 	0.85940 0.45243 0.14440 -0.12900
N 	N 	0.62030 0.74825 0.36317 -0.27500
N 	N 	0.62110 0.75115 0.65911 -0.27400
N 	N 	0.13880 0.95840 0.64960 -0.12800
N 	N 	0.50331 0.84495 0.26004 -0.25000
N 	N 	0.14060 0.95243 0.35560 -0.12900
N 	N 	0.37970 0.75175 0.36317 -0.27500
N 	N 	0.37890 0.74885 0.65911 -0.27400
N 	N 	0.86120 0.54160 0.64960 -0.12800
N 	N 	0.49669 0.65505 0.26004 -0.25000
N 	N 	0.85940 0.54757 0.35560 -0.12900
