data_crystal

_cell_length_a 9.48900
_cell_length_b 26.24600
_cell_length_c 9.89800
_cell_angle_alpha 90.00000
_cell_angle_beta  90.00000
_cell_angle_gamma 90.00000

_symmetry_space_group_name_	'P 1'
_symmetry_space_group_name_H-M	'P 1'

loop_
_symmetry_equiv_pos_as_xyz
  x,y,z

loop_
_atom_site_label
_atom_site_type_symbol
_atom_site_fract_x
_atom_site_fract_y
_atom_site_fract_z
_atom_site_charge
N 	N 	0.55860 0.29690 0.29870 -0.24000
C 	C 	0.42850 0.27640 0.27570 0.08300
C 	C 	0.88400 0.20440 0.19200 -0.03000
C 	C 	0.30780 0.30280 0.30370 -0.06800
H 	H 	0.21800 0.28730 0.29240 0.06900
C 	C 	0.75100 0.27930 0.07280 -1.94200
C 	C 	0.31880 0.35220 0.34870 0.06900
H 	H 	0.23580 0.37090 0.36930 0.02400
C 	C 	0.44830 0.37490 0.36420 -0.15600
C 	C 	0.56650 0.34620 0.34190 0.10600
H 	H 	0.65650 0.36100 0.35690 -0.00800
C 	C 	0.46870 0.43010 0.41010 0.41200
O 	O 	0.58400 0.43860 0.46400 0.00300
O 	O 	0.97190 0.17680 0.15960 -0.16500
O 	O 	0.35730 0.45550 0.41080 -0.45200
O 	O 	0.75800 0.30030 0.97110 -1.19300
Cl	Cl	0.69870 0.29050 0.02190 2.69700
O 	O 	0.59200 0.05130 0.09400 -0.52200
N 	N 	0.94140 0.70310 0.29870 -0.24300
C 	C 	0.07150 0.72360 0.27570 0.08700
C 	C 	0.61600 0.79560 0.19200 -0.02700
C 	C 	0.19220 0.69720 0.30370 -0.06800
H 	H 	0.28200 0.71270 0.29240 0.07000
C 	C 	0.74900 0.72070 0.07280 -1.97200
C 	C 	0.18120 0.64780 0.34870 0.06800
H 	H 	0.26420 0.62910 0.36930 0.02400
C 	C 	0.05170 0.62510 0.36420 -0.15000
C 	C 	0.93350 0.65380 0.34190 0.09800
H 	H 	0.84350 0.63900 0.35690 -0.00600
C 	C 	0.03130 0.56990 0.41010 0.41200
O 	O 	0.91600 0.56140 0.46400 0.00400
O 	O 	0.52810 0.82320 0.15960 -0.15500
O 	O 	0.14270 0.54450 0.41080 -0.45200
O 	O 	0.74200 0.69970 0.97110 -1.21100
Cl	Cl	0.80130 0.70950 0.02190 2.74200
O 	O 	0.90800 0.94870 0.09400 -0.45000
N 	N 	0.94140 0.79690 0.20130 -0.24100
C 	C 	0.07150 0.77640 0.22430 0.08600
C 	C 	0.61600 0.70440 0.30800 -0.02800
C 	C 	0.19220 0.80280 0.19630 -0.06300
H 	H 	0.28200 0.78730 0.20760 0.06900
C 	C 	0.74900 0.77930 0.42720 -1.90700
C 	C 	0.18120 0.85220 0.15130 0.06300
H 	H 	0.26420 0.87090 0.13070 0.03100
C 	C 	0.05170 0.87490 0.13580 -0.13500
C 	C 	0.93350 0.84620 0.15810 0.09000
H 	H 	0.84350 0.86100 0.14310 -0.00100
C 	C 	0.03130 0.93010 0.08990 0.41500
O 	O 	0.91600 0.93860 0.03600 -0.02200
O 	O 	0.52810 0.67680 0.34040 -0.15900
O 	O 	0.14270 0.95550 0.08920 -0.41500
O 	O 	0.74200 0.80030 0.52890 -1.17800
Cl	Cl	0.80130 0.79050 0.47810 2.65400
O 	O 	0.90800 0.55130 0.40600 -0.50100
N 	N 	0.55860 0.20310 0.20130 -0.24100
C 	C 	0.42850 0.22360 0.22430 0.08300
C 	C 	0.88400 0.29560 0.30800 -0.03000
C 	C 	0.30780 0.19720 0.19630 -0.07000
H 	H 	0.21800 0.21270 0.20760 0.07000
C 	C 	0.75100 0.22070 0.42720 -1.91300
C 	C 	0.31880 0.14780 0.15130 0.07100
H 	H 	0.23580 0.12910 0.13070 0.02100
C 	C 	0.44830 0.12510 0.13580 -0.16200
C 	C 	0.56650 0.15380 0.15810 0.10700
H 	H 	0.65650 0.13900 0.14310 -0.01200
C 	C 	0.46870 0.06990 0.08990 0.41300
O 	O 	0.58400 0.06140 0.03600 0.00800
O 	O 	0.97190 0.32320 0.34040 -0.16000
O 	O 	0.35730 0.04450 0.08920 -0.47400
O 	O 	0.75800 0.19970 0.52890 -1.18900
Cl	Cl	0.69870 0.20950 0.47810 2.66200
O 	O 	0.59200 0.44870 0.40600 -0.49800
N 	N 	0.44140 0.70310 0.70130 -0.24000
C 	C 	0.57150 0.72360 0.72430 0.08400
C 	C 	0.11600 0.79560 0.80800 -0.02900
C 	C 	0.69220 0.69720 0.69630 -0.06900
H 	H 	0.78200 0.71270 0.70760 0.07000
C 	C 	0.24900 0.72070 0.92720 -1.94000
C 	C 	0.68120 0.64780 0.65130 0.07000
H 	H 	0.76420 0.62910 0.63070 0.02400
C 	C 	0.55170 0.62510 0.63580 -0.15600
C 	C 	0.43350 0.65380 0.65810 0.10600
H 	H 	0.34350 0.63900 0.64310 -0.00900
C 	C 	0.53130 0.56990 0.58990 0.41200
O 	O 	0.41600 0.56140 0.53600 0.00300
O 	O 	0.02810 0.82320 0.84040 -0.15800
O 	O 	0.64270 0.54450 0.58920 -0.45200
O 	O 	0.24200 0.69970 0.02890 -1.19200
Cl	Cl	0.30130 0.70950 0.97810 2.69400
O 	O 	0.40800 0.94870 0.90600 -0.45100
N 	N 	0.05860 0.29690 0.70130 -0.24300
C 	C 	0.92850 0.27640 0.72430 0.08600
C 	C 	0.38400 0.20440 0.80800 -0.02900
C 	C 	0.80780 0.30280 0.69630 -0.06700
H 	H 	0.71800 0.28730 0.70760 0.06900
C 	C 	0.25100 0.27930 0.92720 -1.97100
C 	C 	0.81880 0.35220 0.65130 0.06700
H 	H 	0.73580 0.37090 0.63070 0.02400
C 	C 	0.94830 0.37490 0.63580 -0.14900
C 	C 	0.06650 0.34620 0.65810 0.09800
H 	H 	0.15650 0.36100 0.64310 -0.00600
C 	C 	0.96870 0.43010 0.58990 0.41300
O 	O 	0.08400 0.43860 0.53600 0.00400
O 	O 	0.47190 0.17680 0.84040 -0.16200
O 	O 	0.85730 0.45550 0.58920 -0.45200
O 	O 	0.25800 0.30030 0.02890 -1.21000
Cl	Cl	0.19870 0.29050 0.97810 2.74100
O 	O 	0.09200 0.05130 0.90600 -0.52100
N 	N 	0.05860 0.20310 0.79870 -0.24300
C 	C 	0.92850 0.22360 0.77570 0.08800
C 	C 	0.38400 0.29560 0.69200 -0.02800
C 	C 	0.80780 0.19720 0.80370 -0.07000
H 	H 	0.71800 0.21270 0.79240 0.07000
C 	C 	0.25100 0.22070 0.57280 -1.91300
C 	C 	0.81880 0.14780 0.84870 0.06900
H 	H 	0.73580 0.12910 0.86930 0.02100
C 	C 	0.94830 0.12510 0.86420 -0.15200
C 	C 	0.06650 0.15380 0.84190 0.09300
H 	H 	0.15650 0.13900 0.85690 -0.00800
C 	C 	0.96870 0.06990 0.91010 0.42400
O 	O 	0.08400 0.06140 0.96400 -0.00200
O 	O 	0.47190 0.32320 0.65960 -0.15900
O 	O 	0.85730 0.04450 0.91080 -0.47600
O 	O 	0.25800 0.19970 0.47110 -1.18800
Cl	Cl	0.19870 0.20950 0.52190 2.66000
O 	O 	0.09200 0.44870 0.59400 -0.50100
N 	N 	0.44140 0.79690 0.79870 -0.23800
C 	C 	0.57150 0.77640 0.77570 0.08200
C 	C 	0.11600 0.70440 0.69200 -0.03000
C 	C 	0.69220 0.80280 0.80370 -0.06300
H 	H 	0.78200 0.78730 0.79240 0.06900
C 	C 	0.24900 0.77930 0.57280 -1.90600
C 	C 	0.68120 0.85220 0.84870 0.06500
H 	H 	0.76420 0.87090 0.86930 0.03200
C 	C 	0.55170 0.87490 0.86420 -0.14500
C 	C 	0.43350 0.84620 0.84190 0.10400
H 	H 	0.34350 0.86100 0.85690 -0.00400
C 	C 	0.53130 0.93010 0.91010 0.40600
O 	O 	0.41600 0.93860 0.96400 -0.01200
O 	O 	0.02810 0.67680 0.65960 -0.16000
O 	O 	0.64270 0.95550 0.91080 -0.41400
O 	O 	0.24200 0.80030 0.47110 -1.17800
Cl	Cl	0.30130 0.79050 0.52190 2.65500
O 	O 	0.40800 0.55130 0.59400 -0.49800
Re	Re	0.73836 0.25000 0.25000 1.27500
Re	Re	0.76164 0.75000 0.25000 1.28000
Re	Re	0.26164 0.75000 0.75000 1.27500
Re	Re	0.23836 0.25000 0.75000 1.27900
Mn	Mn	0.75000 0.50000 0.44040 1.28500
Mn	Mn	0.75000 -0.00000 0.05960 1.25500
Mn	Mn	0.25000 0.50000 0.55960 1.28500
Mn	Mn	0.25000 0.00000 0.94040 1.25500
