data_crystal

_cell_length_a 9.06200
_cell_length_b 9.61800
_cell_length_c 25.60000
_cell_angle_alpha 90.00000
_cell_angle_beta  90.00000
_cell_angle_gamma 90.00000

_symmetry_space_group_name_	'P 1'
_symmetry_space_group_name_H-M	'P 1'

loop_
_symmetry_equiv_pos_as_xyz
  x,y,z

loop_
_atom_site_label
_atom_site_type_symbol
_atom_site_fract_x
_atom_site_fract_y
_atom_site_fract_z
_atom_site_charge
Mn	Mn	0.22690 0.75000 0.25000 1.41600
Mn	Mn	0.27310 0.75000 0.75000 1.41600
Mn	Mn	0.77310 0.25000 0.75000 1.41600
Mn	Mn	0.72690 0.25000 0.25000 1.41600
Mn	Mn	0.75000 0.44400 0.50000 1.30200
Mn	Mn	0.75000 0.05600 -0.00000 1.27000
Mn	Mn	0.25000 0.55600 0.50000 1.30200
Mn	Mn	0.25000 0.94400 -0.00000 1.27000
H 	H 	0.71170 0.71090 0.28540 0.13800
H 	H 	0.73240 0.63440 0.37210 0.02200
H 	H 	0.16860 0.65040 0.36020 -0.00200
H 	H 	0.78830 0.71090 0.71460 0.13800
H 	H 	0.76760 0.63440 0.62790 0.02200
H 	H 	0.33140 0.65040 0.63980 -0.00100
H 	H 	0.78830 0.78910 0.78540 0.13700
H 	H 	0.76760 0.86560 0.87210 0.02900
H 	H 	0.33140 0.84960 0.86020 0.00400
H 	H 	0.71170 0.78910 0.21460 0.13900
H 	H 	0.73240 0.86560 0.12790 0.01800
H 	H 	0.16860 0.84960 0.13980 -0.00500
H 	H 	0.28830 0.28910 0.71460 0.13800
H 	H 	0.26760 0.36560 0.62790 0.02200
H 	H 	0.83140 0.34960 0.63980 -0.00200
H 	H 	0.21170 0.28910 0.28540 0.13800
H 	H 	0.23240 0.36560 0.37210 0.02300
H 	H 	0.66860 0.34960 0.36020 -0.00100
H 	H 	0.21170 0.21090 0.21460 0.13900
H 	H 	0.23240 0.13440 0.12790 0.01800
H 	H 	0.66860 0.15040 0.13980 -0.00400
H 	H 	0.28830 0.21090 0.78540 0.13700
H 	H 	0.26760 0.13440 0.87210 0.02800
H 	H 	0.83140 0.15040 0.86020 0.00300
C 	C 	0.34800 0.79100 0.21250 -0.34700
C 	C 	0.93600 0.72500 0.27620 0.11800
C 	C 	0.80500 0.69900 0.30180 -0.14000
C 	C 	0.81900 0.65400 0.35240 0.13700
C 	C 	0.95200 0.63800 0.37460 -0.19000
C 	C 	0.07300 0.66200 0.34540 0.15600
C 	C 	0.97000 0.59000 0.42990 0.43600
C 	C 	0.15200 0.79100 0.78750 -0.34500
C 	C 	0.56400 0.72500 0.72380 0.12000
C 	C 	0.69500 0.69900 0.69820 -0.14100
C 	C 	0.68100 0.65400 0.64760 0.13800
C 	C 	0.54800 0.63800 0.62540 -0.18900
C 	C 	0.42700 0.66200 0.65460 0.15500
C 	C 	0.53000 0.59000 0.57010 0.43700
C 	C 	0.15200 0.70900 0.71250 -0.34600
C 	C 	0.56400 0.77500 0.77620 0.11800
C 	C 	0.69500 0.80100 0.80180 -0.13500
C 	C 	0.68100 0.84600 0.85240 0.13200
C 	C 	0.54800 0.86200 0.87460 -0.17700
C 	C 	0.42700 0.83800 0.84540 0.15100
C 	C 	0.53000 0.91000 0.92990 0.43000
C 	C 	0.34800 0.70900 0.28750 -0.34600
C 	C 	0.93600 0.77500 0.22380 0.11900
C 	C 	0.80500 0.80100 0.19820 -0.14300
C 	C 	0.81900 0.84600 0.14760 0.14000
C 	C 	0.95200 0.86200 0.12540 -0.19700
C 	C 	0.07300 0.83800 0.15460 0.15800
C 	C 	0.97000 0.91000 0.07010 0.43700
C 	C 	0.65200 0.20900 0.78750 -0.34500
C 	C 	0.06400 0.27500 0.72380 0.11900
C 	C 	0.19500 0.30100 0.69820 -0.14100
C 	C 	0.18100 0.34600 0.64760 0.13800
C 	C 	0.04800 0.36200 0.62540 -0.19000
C 	C 	0.92700 0.33800 0.65460 0.15600
C 	C 	0.03000 0.41000 0.57010 0.43600
C 	C 	0.84800 0.20900 0.21250 -0.34700
C 	C 	0.43600 0.27500 0.27620 0.11900
C 	C 	0.30500 0.30100 0.30180 -0.14000
C 	C 	0.31900 0.34600 0.35240 0.13700
C 	C 	0.45200 0.36200 0.37460 -0.18900
C 	C 	0.57300 0.33800 0.34540 0.15500
C 	C 	0.47000 0.41000 0.42990 0.43600
C 	C 	0.84800 0.29100 0.28750 -0.34600
C 	C 	0.43600 0.22500 0.22380 0.12000
C 	C 	0.30500 0.19900 0.19820 -0.14300
C 	C 	0.31900 0.15400 0.14760 0.13900
C 	C 	0.45200 0.13800 0.12540 -0.19500
C 	C 	0.57300 0.16200 0.15460 0.15600
C 	C 	0.47000 0.09000 0.07010 0.43700
C 	C 	0.65200 0.29100 0.71250 -0.34600
C 	C 	0.06400 0.22500 0.77620 0.11700
C 	C 	0.19500 0.19900 0.80180 -0.13500
C 	C 	0.18100 0.15400 0.85240 0.13300
C 	C 	0.04800 0.13800 0.87460 -0.17900
C 	C 	0.92700 0.16200 0.84540 0.15300
C 	C 	0.03000 0.09000 0.92990 0.42800
N 	N 	0.06000 0.70400 0.29580 -0.26100
N 	N 	0.44000 0.70400 0.70420 -0.26100
N 	N 	0.44000 0.79600 0.79580 -0.25900
N 	N 	0.06000 0.79600 0.20420 -0.26200
N 	N 	0.94000 0.29600 0.70420 -0.26100
N 	N 	0.56000 0.29600 0.29580 -0.26100
N 	N 	0.56000 0.20400 0.20420 -0.26200
N 	N 	0.94000 0.20400 0.79580 -0.25900
Cl	Cl	0.20510 0.52400 0.21100 -0.41400
Cl	Cl	0.29490 0.52400 0.78900 -0.40300
Cl	Cl	0.29490 0.97600 0.71100 -0.41000
Cl	Cl	0.20510 0.97600 0.28900 -0.40900
Cl	Cl	0.79490 0.47600 0.78900 -0.40300
Cl	Cl	0.70510 0.47600 0.21100 -0.41500
Cl	Cl	0.70510 0.02400 0.28900 -0.40900
Cl	Cl	0.79490 0.02400 0.71100 -0.41000
O 	O 	0.47600 0.83200 0.17440 -0.07100
O 	O 	0.85000 0.59200 0.45690 -0.45400
O 	O 	0.09500 0.55800 0.44230 -0.49800
O 	O 	0.02400 0.83200 0.82560 -0.06400
O 	O 	0.65000 0.59200 0.54310 -0.45400
O 	O 	0.40500 0.55800 0.55770 -0.49900
O 	O 	0.02400 0.66800 0.67440 -0.06800
O 	O 	0.65000 0.90800 0.95690 -0.41200
O 	O 	0.40500 0.94200 0.94230 -0.46400
O 	O 	0.47600 0.66800 0.32560 -0.06800
O 	O 	0.85000 0.90800 0.04310 -0.48100
O 	O 	0.09500 0.94200 0.05770 -0.51600
O 	O 	0.52400 0.16800 0.82560 -0.06400
O 	O 	0.15000 0.40800 0.54310 -0.45400
O 	O 	0.90500 0.44200 0.55770 -0.49800
O 	O 	0.97600 0.16800 0.17440 -0.07100
O 	O 	0.35000 0.40800 0.45690 -0.45400
O 	O 	0.59500 0.44200 0.44230 -0.49800
O 	O 	0.97600 0.33200 0.32560 -0.06800
O 	O 	0.35000 0.09200 0.04310 -0.48100
O 	O 	0.59500 0.05800 0.05770 -0.51700
O 	O 	0.52400 0.33200 0.67440 -0.06800
O 	O 	0.15000 0.09200 0.95690 -0.41200
O 	O 	0.90500 0.05800 0.94230 -0.46200
