data_crystal

_cell_length_a 12.63900
_cell_length_b 13.97060
_cell_length_c 16.28500
_cell_angle_alpha 68.41400
_cell_angle_beta  83.53200
_cell_angle_gamma 73.82500

_symmetry_space_group_name_	'P 1'
_symmetry_space_group_name_H-M	'P 1'

loop_
_symmetry_equiv_pos_as_xyz
  x,y,z

loop_
_atom_site_label
_atom_site_type_symbol
_atom_site_fract_x
_atom_site_fract_y
_atom_site_fract_z
_atom_site_charge
Zn	Zn	0.68077 0.54891 0.84100 1.21600
Zn	Zn	0.63786 0.74166 0.92062 1.22800
S 	S 	0.26386 0.38358 0.87002 0.51500
S 	S 	0.06071 0.86041 0.93991 0.46000
S 	S 	0.51554 0.82020 0.39793 0.46600
O 	O 	0.82889 0.52810 0.87826 -0.48900
O 	O 	0.79433 0.68120 0.90207 -0.49600
O 	O 	0.19970 0.31330 0.86850 -0.23700
O 	O 	0.32000 0.42800 0.78764 -0.23300
O 	O 	0.34227 0.33447 0.94334 -0.41600
O 	O 	0.99740 0.81760 0.01890 -0.22100
O 	O 	0.12630 0.92540 0.95030 -0.23000
O 	O 	0.99510 0.91020 0.86060 -0.22100
O 	O 	0.53876 0.57157 0.90442 -0.49700
O 	O 	0.48959 0.72000 0.93747 -0.46600
O 	O 	0.64750 0.65965 0.72661 -0.46700
O 	O 	0.61170 0.79014 0.78203 -0.44400
O 	O 	0.55240 0.70540 0.43840 -0.21100
O 	O 	0.58430 0.86630 0.32510 -0.22500
O 	O 	0.39880 0.85790 0.37570 -0.21900
N 	N 	0.68270 0.40670 0.83693 -0.26200
N 	N 	0.63940 0.88960 0.90960 -0.25200
C 	C 	0.72360 0.90430 0.94340 0.09400
H 	H 	0.77510 0.84510 0.97790 0.02300
C 	C 	0.85820 0.60080 0.89140 0.40600
C 	C 	0.73590 0.00430 0.92840 -0.12900
H 	H 	0.79470 0.01190 0.95280 0.11800
C 	C 	0.97910 0.59060 0.89460 -0.09400
C 	C 	0.12350 0.66430 0.91280 0.03200
C 	C 	0.05800 0.50180 0.88500 0.04300
H 	H 	0.03560 0.44830 0.87620 0.05600
C 	C 	0.31770 0.56970 0.90760 -0.05900
H 	H 	0.37130 0.51160 0.90160 0.07500
C 	C 	0.16790 0.49420 0.88870 -0.10500
C 	C 	0.20450 0.57530 0.90280 0.04500
C 	C 	0.57620 0.83570 0.63110 -0.07300
C 	C 	0.01040 0.66980 0.90830 -0.01900
H 	H 	0.95700 0.72780 0.91480 0.07800
C 	C 	0.34850 0.64940 0.92110 -0.08400
C 	C 	0.26910 0.73820 0.93090 0.01200
H 	H 	0.29120 0.79150 0.94030 0.06300
C 	C 	0.15870 0.74590 0.92660 -0.07300
C 	C 	0.46830 0.64660 0.92130 0.39300
C 	C 	0.56640 0.97540 0.85920 0.09500
H 	H 	0.50910 0.96540 0.83480 0.01200
C 	C 	0.66000 0.09380 0.87660 0.07400
C 	C 	0.57290 0.07780 0.84210 -0.12800
H 	H 	0.51980 0.13560 0.80780 0.10800
C 	C 	0.66950 0.20260 0.85960 0.07300
C 	C 	0.77070 0.22290 0.86410 -0.12900
H 	H 	0.83510 0.16830 0.87440 0.11100
C 	C 	0.77360 0.32480 0.85320 0.08900
H 	H 	0.84100 0.33740 0.85710 0.01400
C 	C 	0.58630 0.38780 0.82990 0.09500
H 	H 	0.52340 0.44420 0.81760 0.00900
C 	C 	0.57660 0.28820 0.84000 -0.12800
H 	H 	0.50850 0.27830 0.83380 0.10700
C 	C 	0.61510 0.75710 0.72010 0.38300
C 	C 	0.56830 0.79980 0.56180 0.02400
H 	H 	0.59030 0.72730 0.57110 0.06700
C 	C 	0.52880 0.87070 0.48160 -0.07000
C 	C 	0.49610 0.98210 0.46510 0.04300
C 	C 	0.54410 0.94170 0.61800 -0.02800
H 	H 	0.54860 0.96450 0.66410 0.08100
Zn	Zn	0.31923 0.45109 0.15900 1.21500
Zn	Zn	0.36214 0.25834 0.07938 1.22700
S 	S 	0.73614 0.61642 0.12998 0.51400
S 	S 	0.93929 0.13959 0.06009 0.45900
S 	S 	0.48446 0.17980 0.60207 0.46500
O 	O 	0.17111 0.47190 0.12174 -0.49000
O 	O 	0.20567 0.31880 0.09793 -0.49600
O 	O 	0.80030 0.68670 0.13150 -0.23700
O 	O 	0.68000 0.57200 0.21236 -0.23300
O 	O 	0.65773 0.66553 0.05666 -0.41600
O 	O 	0.00260 0.18240 0.98110 -0.22100
O 	O 	0.87370 0.07460 0.04970 -0.23000
O 	O 	0.00490 0.08980 0.13940 -0.22100
O 	O 	0.46124 0.42843 0.09558 -0.49700
O 	O 	0.51041 0.28000 0.06253 -0.46600
O 	O 	0.35250 0.34035 0.27339 -0.46700
O 	O 	0.38830 0.20986 0.21797 -0.44400
O 	O 	0.44760 0.29460 0.56160 -0.21100
O 	O 	0.41570 0.13370 0.67490 -0.22500
O 	O 	0.60120 0.14210 0.62430 -0.21900
N 	N 	0.31730 0.59330 0.16307 -0.26200
N 	N 	0.36060 0.11040 0.09040 -0.25200
C 	C 	0.27640 0.09570 0.05660 0.09400
H 	H 	0.22490 0.15490 0.02210 0.02300
C 	C 	0.14180 0.39920 0.10860 0.40600
C 	C 	0.26410 0.99570 0.07160 -0.12900
H 	H 	0.20530 0.98810 0.04720 0.11800
C 	C 	0.02090 0.40940 0.10540 -0.09400
C 	C 	0.87650 0.33570 0.08720 0.03200
C 	C 	0.94200 0.49820 0.11500 0.04300
H 	H 	0.96440 0.55170 0.12380 0.05600
C 	C 	0.68230 0.43030 0.09240 -0.05900
H 	H 	0.62870 0.48840 0.09840 0.07500
C 	C 	0.83210 0.50580 0.11130 -0.10500
C 	C 	0.79550 0.42470 0.09720 0.04500
C 	C 	0.42380 0.16430 0.36890 -0.07300
C 	C 	0.98960 0.33020 0.09170 -0.01900
H 	H 	0.04300 0.27220 0.08520 0.07800
C 	C 	0.65150 0.35060 0.07890 -0.08400
C 	C 	0.73090 0.26180 0.06910 0.01200
H 	H 	0.70880 0.20850 0.05970 0.06300
C 	C 	0.84130 0.25410 0.07340 -0.07300
C 	C 	0.53170 0.35340 0.07870 0.39300
C 	C 	0.43360 0.02460 0.14080 0.09500
H 	H 	0.49090 0.03460 0.16520 0.01200
C 	C 	0.34000 0.90620 0.12340 0.07400
C 	C 	0.42710 0.92220 0.15790 -0.12800
H 	H 	0.48020 0.86440 0.19220 0.10800
C 	C 	0.33050 0.79740 0.14040 0.07300
C 	C 	0.22930 0.77710 0.13590 -0.12900
H 	H 	0.16490 0.83170 0.12560 0.11100
C 	C 	0.22640 0.67520 0.14680 0.08900
H 	H 	0.15900 0.66260 0.14290 0.01400
C 	C 	0.41370 0.61220 0.17010 0.09500
H 	H 	0.47660 0.55580 0.18240 0.00900
C 	C 	0.42340 0.71180 0.16000 -0.12800
H 	H 	0.49150 0.72170 0.16620 0.10700
C 	C 	0.38490 0.24290 0.27990 0.38300
C 	C 	0.43170 0.20020 0.43820 0.02400
H 	H 	0.40970 0.27270 0.42890 0.06700
C 	C 	0.47120 0.12930 0.51840 -0.07000
C 	C 	0.50390 0.01790 0.53490 0.04300
C 	C 	0.45590 0.05830 0.38200 -0.02800
H 	H 	0.45140 0.03550 0.33590 0.08100
