data_crystal

_cell_length_a 19.04600
_cell_length_b 19.04600
_cell_length_c 8.33060
_cell_angle_alpha 90.00000
_cell_angle_beta  90.00000
_cell_angle_gamma 120.00000

_symmetry_space_group_name_	'P 1'
_symmetry_space_group_name_H-M	'P 1'

loop_
_symmetry_equiv_pos_as_xyz
  x,y,z

loop_
_atom_site_label
_atom_site_type_symbol
_atom_site_fract_x
_atom_site_fract_y
_atom_site_fract_z
_atom_site_charge
Ga	Ga	0.73698 0.26313 0.12590 2.02200
Ga	Ga	0.81344 0.00000 -0.00000 1.98700
P 	P 	0.82167 0.91080 0.31850 0.62700
P 	P 	0.83171 0.16840 0.10080 0.57800
H 	H 	0.84000 0.18400 0.25700 -0.05500
P 	P 	0.58257 0.16498 0.33180 0.64300
O 	O 	0.77620 0.88730 0.49400 -0.53400
H 	H 	0.24680 0.16240 0.47870 0.30200
H 	H 	0.76470 0.92730 0.57150 0.23900
O 	O 	0.91150 0.95500 0.34800 -0.40400
O 	O 	0.79680 0.96440 0.22870 -0.51400
O 	O 	0.79670 0.83300 0.22790 -0.61000
O 	O 	0.70820 0.28940 0.93920 -0.52000
O 	O 	0.78630 0.08200 0.04810 -0.75200
O 	O 	0.91870 0.21410 0.05360 -0.59200
O 	O 	0.54030 0.08020 0.39580 -0.26500
O 	O 	0.65310 0.17850 0.22800 -0.80200
O 	O 	0.61100 0.22430 0.47370 -0.69400
O 	O 	0.52620 0.17880 0.22850 -0.80400
O 	O 	0.78830 0.21190 0.04050 -0.71500
O 	O 	0.85290 0.92670 0.94760 -0.78200
H 	H 	0.90420 0.95000 0.93800 0.46400
Ga	Ga	0.73687 0.47385 0.12590 2.02400
Ga	Ga	-0.00000 0.81344 -0.00000 1.97500
P 	P 	0.08920 0.91087 0.31850 0.63200
P 	P 	0.83160 0.66331 0.10080 0.58400
H 	H 	0.81600 0.65600 0.25700 -0.05000
P 	P 	0.83502 0.41759 0.33180 0.63700
O 	O 	0.11270 0.88890 0.49400 -0.56100
H 	H 	0.83760 0.08440 0.47870 0.26200
H 	H 	0.07270 0.83740 0.57150 0.13500
O 	O 	0.04500 0.95650 0.34800 -0.58200
O 	O 	0.03560 0.83240 0.22870 -0.71700
O 	O 	0.16700 0.96370 0.22790 -0.53000
O 	O 	0.71060 0.41880 0.93920 -0.51200
O 	O 	0.91800 0.70430 0.04810 -0.59500
O 	O 	0.78590 0.70460 0.05360 -0.68600
O 	O 	0.91980 0.46010 0.39580 -0.09700
O 	O 	0.82150 0.47460 0.22800 -0.75100
O 	O 	0.77570 0.38670 0.47370 -0.66800
O 	O 	0.82120 0.34740 0.22850 -0.75400
O 	O 	0.78810 0.57640 0.04050 -0.70400
O 	O 	0.07330 0.92620 0.94760 -0.81000
H 	H 	0.05000 0.95420 0.93800 0.37600
Ga	Ga	0.52615 0.26302 0.12590 2.02200
Ga	Ga	0.18656 0.18656 -0.00000 2.02100
P 	P 	0.08913 0.17833 0.31850 0.63300
P 	P 	0.33669 0.16829 0.10080 0.59100
H 	H 	0.34400 0.16000 0.25700 -0.08100
P 	P 	0.58241 0.41743 0.33180 0.64100
O 	O 	0.11110 0.22380 0.49400 -0.55800
H 	H 	0.91560 0.75320 0.47870 0.35900
H 	H 	0.16260 0.23530 0.57150 0.18200
O 	O 	0.04350 0.08850 0.34800 -0.72700
O 	O 	0.16760 0.20320 0.22870 -0.62200
O 	O 	0.03630 0.20330 0.22790 -0.74200
O 	O 	0.58120 0.29180 0.93920 -0.52800
O 	O 	0.29570 0.21370 0.04810 -0.70500
O 	O 	0.29540 0.08130 0.05360 -0.75400
O 	O 	0.53990 0.45970 0.39580 -0.19500
O 	O 	0.52540 0.34690 0.22800 -0.78400
O 	O 	0.61330 0.38900 0.47370 -0.68300
O 	O 	0.65260 0.47380 0.22850 -0.78100
O 	O 	0.42360 0.21170 0.04050 -0.73400
O 	O 	0.07380 0.14710 0.94760 -0.82900
H 	H 	0.04580 0.09580 0.93800 0.29800
Ga	Ga	0.26302 0.73687 0.87410 2.09800
Ga	Ga	0.18656 0.00000 -0.00000 1.98600
P 	P 	0.17833 0.08920 0.68150 0.65500
P 	P 	0.16829 0.83160 0.89920 0.55400
H 	H 	0.16000 0.81600 0.74300 -0.07000
P 	P 	0.41743 0.83502 0.66820 0.63900
O 	O 	0.22380 0.11270 0.50600 -0.55200
H 	H 	0.75320 0.83760 0.52130 0.29400
H 	H 	0.23530 0.07270 0.42850 0.14800
O 	O 	0.08850 0.04500 0.65200 -0.68800
O 	O 	0.20320 0.03560 0.77130 -0.49800
O 	O 	0.20330 0.16700 0.77210 -0.43200
O 	O 	0.29180 0.71060 0.06080 -0.94700
O 	O 	0.21370 0.91800 0.95190 -0.30900
O 	O 	0.08130 0.78590 0.94640 -0.45700
O 	O 	0.45970 0.91980 0.60420 -0.09500
O 	O 	0.34690 0.82150 0.77200 -0.61600
O 	O 	0.38900 0.77570 0.52630 -0.71200
O 	O 	0.47380 0.82120 0.77150 -0.61600
O 	O 	0.21170 0.78810 0.95950 -0.43400
O 	O 	0.14710 0.07330 0.05240 -1.12100
H 	H 	0.09580 0.05000 0.06200 0.14300
Ga	Ga	0.26313 0.52615 0.87410 2.09700
Ga	Ga	-0.00000 0.18656 -0.00000 1.97100
P 	P 	0.91080 0.08913 0.68150 0.64900
P 	P 	0.16840 0.33669 0.89920 0.55000
H 	H 	0.18400 0.34400 0.74300 -0.07600
P 	P 	0.16498 0.58241 0.66820 0.64500
O 	O 	0.88730 0.11110 0.50600 -0.52300
H 	H 	0.16240 0.91560 0.52130 0.33400
H 	H 	0.92730 0.16260 0.42850 0.25600
O 	O 	0.95500 0.04350 0.65200 -0.50100
O 	O 	0.96440 0.16760 0.77130 -0.29300
O 	O 	0.83300 0.03630 0.77210 -0.49800
O 	O 	0.28940 0.58120 0.06080 -0.95700
O 	O 	0.08200 0.29570 0.95190 -0.45700
O 	O 	0.21410 0.29540 0.94640 -0.37800
O 	O 	0.08020 0.53990 0.60420 -0.26300
O 	O 	0.17850 0.52540 0.77200 -0.66500
O 	O 	0.22430 0.61330 0.52630 -0.73900
O 	O 	0.17880 0.65260 0.77150 -0.66500
O 	O 	0.21190 0.42360 0.95950 -0.44300
O 	O 	0.92670 0.07380 0.05240 -1.06600
H 	H 	0.95000 0.04580 0.06200 0.23600
Ga	Ga	0.47385 0.73698 0.87410 2.09900
Ga	Ga	0.81344 0.81344 -0.00000 2.02300
P 	P 	0.91087 0.82167 0.68150 0.64800
P 	P 	0.66331 0.83171 0.89920 0.54400
H 	H 	0.65600 0.84000 0.74300 -0.04500
P 	P 	0.41759 0.58257 0.66820 0.64200
O 	O 	0.88890 0.77620 0.50600 -0.52700
H 	H 	0.08440 0.24680 0.52130 0.23500
H 	H 	0.83740 0.76470 0.42850 0.20700
O 	O 	0.95650 0.91150 0.65200 -0.37100
O 	O 	0.83240 0.79680 0.77130 -0.40800
O 	O 	0.96370 0.79670 0.77210 -0.29600
O 	O 	0.41880 0.70820 0.06080 -0.93700
O 	O 	0.70430 0.78630 0.95190 -0.37200
O 	O 	0.70460 0.91870 0.94640 -0.31000
O 	O 	0.46010 0.54030 0.60420 -0.16500
O 	O 	0.47460 0.65310 0.77200 -0.63400
O 	O 	0.38670 0.61100 0.52630 -0.72400
O 	O 	0.34740 0.52620 0.77150 -0.63800
O 	O 	0.57640 0.78830 0.95950 -0.41700
O 	O 	0.92620 0.85290 0.05240 -1.05800
H 	H 	0.95420 0.90420 0.06200 0.31800
Ga	Ga	0.66667 0.33333 0.48378 2.05400
P 	P 	0.66667 0.33333 0.88280 0.76700
O 	O 	0.66667 0.33333 0.70430 -0.54100
Ga	Ga	0.33333 0.66667 0.51622 2.05700
P 	P 	0.33333 0.66667 0.11720 0.82600
O 	O 	0.33333 0.66667 0.29570 -0.62700
Ga	Ga	-0.00000 0.00000 0.50000 2.01500
