data_crystal

_cell_length_a 16.23300
_cell_length_b 11.87100
_cell_length_c 17.98800
_cell_angle_alpha 90.00000
_cell_angle_beta  103.64000
_cell_angle_gamma 90.00000

_symmetry_space_group_name_	'P 1'
_symmetry_space_group_name_H-M	'P 1'

loop_
_symmetry_equiv_pos_as_xyz
  x,y,z

loop_
_atom_site_label
_atom_site_type_symbol
_atom_site_fract_x
_atom_site_fract_y
_atom_site_fract_z
_atom_site_charge
Mo	Mo	0.71661 0.64115 0.06756 1.06500
Mo	Mo	0.61756 0.76711 0.96696 1.09500
Mo	Mo	0.61104 0.25555 0.92182 1.09200
Mo	Mo	0.71570 0.34802 0.03696 1.06400
Mo	Mo	0.47969 0.64604 0.80501 1.08300
Mo	Mo	0.47646 0.42944 0.78680 1.08100
Mn	Mn	0.87581 0.50267 0.86551 1.31300
P 	P 	0.62327 0.83688 0.79026 0.53100
P 	P 	0.88887 0.50735 0.05832 0.51800
P 	P 	0.56122 0.20135 0.73720 0.51100
P 	P 	0.67246 0.52452 0.88604 0.52100
O 	O 	0.69970 0.76070 0.78070 -0.18400
O 	O 	0.73960 0.74540 0.99200 -0.45000
O 	O 	0.59240 0.63460 0.02430 -0.65300
O 	O 	0.59180 0.36140 0.00120 -0.65000
O 	O 	0.46460 0.52430 0.87510 -0.61400
O 	O 	0.48620 0.29090 0.86250 -0.46700
O 	O 	0.48540 0.12220 0.73470 -0.27000
O 	O 	0.51780 0.55040 0.73230 -0.46600
O 	O 	0.90190 0.53930 0.98210 -0.37500
O 	O 	0.52860 0.32420 0.72210 -0.36800
O 	O 	0.84300 0.39370 0.06070 -0.40200
O 	O 	0.70570 0.47980 0.11460 -0.47200
O 	O 	0.84150 0.59960 0.09150 -0.40300
O 	O 	0.62210 0.19610 0.81840 -0.36500
O 	O 	0.53930 0.77510 0.76030 -0.38100
O 	O 	0.60860 0.16910 0.67740 -0.34100
O 	O 	0.63030 0.94330 0.74820 -0.35700
O 	O 	0.63450 0.86250 0.87610 -0.37100
O 	O 	0.97700 0.49710 0.11760 -0.30900
O 	O 	0.73960 0.54010 0.84180 -0.34900
O 	O 	0.49190 0.75540 0.90020 -0.45800
O 	O 	0.71180 0.51010 0.97320 -0.42100
O 	O 	0.73420 0.27380 0.94650 -0.47300
O 	O 	0.61540 0.63140 0.87760 -0.41000
O 	O 	0.61440 0.42340 0.85820 -0.41500
Mo	Mo	0.78339 0.14115 0.43244 1.07200
Mo	Mo	0.88244 0.26711 0.53304 1.08800
Mo	Mo	0.88896 0.75555 0.57818 1.09300
Mo	Mo	0.78430 0.84802 0.46304 1.08600
Mo	Mo	0.02031 0.14604 0.69499 1.06100
Mo	Mo	0.02354 0.92944 0.71320 1.07900
Mn	Mn	0.62419 0.00267 0.63449 1.29500
P 	P 	0.87673 0.33688 0.70974 0.53200
P 	P 	0.61113 0.00735 0.44168 0.50400
P 	P 	0.93878 0.70135 0.76280 0.54100
P 	P 	0.82754 0.02452 0.61396 0.49500
O 	O 	0.80030 0.26070 0.71930 -0.18900
O 	O 	0.76040 0.24540 0.50800 -0.48000
O 	O 	0.90760 0.13460 0.47570 -0.62400
O 	O 	0.90820 0.86140 0.49880 -0.59900
O 	O 	0.03540 0.02430 0.62490 -0.65100
O 	O 	0.01380 0.79090 0.63750 -0.49000
O 	O 	0.01460 0.62220 0.76530 -0.29300
O 	O 	0.98220 0.05040 0.76770 -0.45600
O 	O 	0.59810 0.03930 0.51790 -0.42700
O 	O 	0.97140 0.82420 0.77790 -0.33800
O 	O 	0.65700 0.89370 0.43930 -0.36600
O 	O 	0.79430 0.97980 0.38540 -0.44600
O 	O 	0.65850 0.09960 0.40850 -0.40600
O 	O 	0.87790 0.69610 0.68160 -0.35600
O 	O 	0.96070 0.27510 0.73970 -0.36500
O 	O 	0.89140 0.66910 0.82260 -0.32700
O 	O 	0.86970 0.44330 0.75180 -0.37300
O 	O 	0.86550 0.36250 0.62390 -0.37800
O 	O 	0.52300 0.99710 0.38240 -0.29300
O 	O 	0.76040 0.04010 0.65820 -0.35800
O 	O 	0.00810 0.25540 0.59980 -0.49500
O 	O 	0.78820 0.01010 0.52680 -0.46200
O 	O 	0.76580 0.77380 0.55350 -0.48500
O 	O 	0.88460 0.13140 0.62240 -0.40200
O 	O 	0.88560 0.92340 0.64180 -0.38000
Mo	Mo	0.28339 0.35885 0.93244 1.09200
Mo	Mo	0.38244 0.23289 0.03304 1.06400
Mo	Mo	0.38896 0.74445 0.07818 1.07500
Mo	Mo	0.28430 0.65198 0.96304 1.09700
Mo	Mo	0.52031 0.35396 0.19499 1.08100
Mo	Mo	0.52354 0.57056 0.21320 1.08100
Mn	Mn	0.12419 0.49733 0.13449 1.29800
P 	P 	0.37673 0.16312 0.20974 0.53200
P 	P 	0.11113 0.49265 0.94168 0.58300
P 	P 	0.43878 0.79865 0.26280 0.51300
P 	P 	0.32754 0.47548 0.11396 0.52200
O 	O 	0.30030 0.23930 0.21930 -0.19500
O 	O 	0.26040 0.25460 0.00800 -0.50700
O 	O 	0.40760 0.36540 0.97570 -0.60100
O 	O 	0.40820 0.63860 0.99880 -0.59300
O 	O 	0.53540 0.47570 0.12490 -0.62600
O 	O 	0.51380 0.70910 0.13750 -0.47500
O 	O 	0.51460 0.87780 0.26530 -0.25400
O 	O 	0.48220 0.44960 0.26770 -0.46700
O 	O 	0.09810 0.46070 0.01790 -0.46400
O 	O 	0.47140 0.67580 0.27790 -0.36700
O 	O 	0.15700 0.60630 0.93930 -0.38700
O 	O 	0.29430 0.52020 0.88540 -0.46500
O 	O 	0.15850 0.40040 0.90850 -0.40100
O 	O 	0.37790 0.80390 0.18160 -0.35600
O 	O 	0.46070 0.22490 0.23970 -0.39300
O 	O 	0.39140 0.83090 0.32260 -0.33400
O 	O 	0.36970 0.05670 0.25180 -0.40600
O 	O 	0.36550 0.13750 0.12390 -0.40000
O 	O 	0.02300 0.50290 0.88240 -0.34700
O 	O 	0.26040 0.45990 0.15820 -0.35300
O 	O 	0.50810 0.24460 0.09980 -0.48600
O 	O 	0.28820 0.48990 0.02680 -0.47200
O 	O 	0.26580 0.72620 0.05350 -0.50700
O 	O 	0.38460 0.36860 0.12240 -0.41800
O 	O 	0.38560 0.57660 0.14180 -0.42400
Mo	Mo	0.21661 0.85885 0.56756 1.08700
Mo	Mo	0.11756 0.73289 0.46696 1.07100
Mo	Mo	0.11104 0.24445 0.42182 1.07500
Mo	Mo	0.21570 0.15198 0.53696 1.07700
Mo	Mo	0.97969 0.85396 0.30501 1.10200
Mo	Mo	0.97646 0.07056 0.28680 1.07900
Mn	Mn	0.37581 0.99733 0.36551 1.31500
P 	P 	0.12327 0.66312 0.29026 0.53100
P 	P 	0.38887 0.99265 0.55832 0.60300
P 	P 	0.06122 0.29865 0.23720 0.48700
P 	P 	0.17246 0.97548 0.38604 0.54700
O 	O 	0.19970 0.73930 0.28070 -0.19000
O 	O 	0.23960 0.75460 0.49200 -0.48100
O 	O 	0.09240 0.86540 0.52430 -0.62600
O 	O 	0.09180 0.13860 0.50120 -0.63800
O 	O 	0.96460 0.97570 0.37510 -0.58500
O 	O 	0.98620 0.20910 0.36250 -0.45500
O 	O 	0.98540 0.37780 0.23470 -0.23600
O 	O 	0.01780 0.94960 0.23230 -0.47400
O 	O 	0.40190 0.96070 0.48210 -0.42000
O 	O 	0.02860 0.17580 0.22210 -0.39400
O 	O 	0.34300 0.10630 0.56070 -0.42000
O 	O 	0.20570 0.02020 0.61460 -0.48800
O 	O 	0.34150 0.90040 0.59150 -0.39600
O 	O 	0.12210 0.30390 0.31840 -0.36500
O 	O 	0.03930 0.72490 0.26030 -0.40700
O 	O 	0.10860 0.33090 0.17740 -0.34600
O 	O 	0.13030 0.55670 0.24820 -0.38900
O 	O 	0.13450 0.63750 0.37610 -0.39300
O 	O 	0.47700 0.00290 0.61760 -0.35900
O 	O 	0.23960 0.95990 0.34180 -0.34400
O 	O 	0.99190 0.74460 0.40020 -0.44800
O 	O 	0.21180 0.98990 0.47320 -0.43400
O 	O 	0.23420 0.22620 0.44650 -0.49900
O 	O 	0.11540 0.86860 0.37760 -0.42500
O 	O 	0.11440 0.07660 0.35820 -0.45700
Mn	Mn	0.50000 0.50000 -0.00000 1.30600
Mn	Mn	0.00000 0.00000 0.50000 1.29200
