data_crystal

_cell_length_a 12.56300
_cell_length_b 22.35400
_cell_length_c 26.16400
_cell_angle_alpha 90.00000
_cell_angle_beta  99.58100
_cell_angle_gamma 90.00000

_symmetry_space_group_name_	'P 1'
_symmetry_space_group_name_H-M	'P 1'

loop_
_symmetry_equiv_pos_as_xyz
  x,y,z

loop_
_atom_site_label
_atom_site_type_symbol
_atom_site_fract_x
_atom_site_fract_y
_atom_site_fract_z
_atom_site_charge
Mo	Mo	0.71917 0.39247 0.07747 1.07700
Mo	Mo	0.57646 0.26692 0.10837 1.08400
Mo	Mo	0.91832 0.38010 0.06267 1.09300
Mo	Mo	0.04095 0.23844 0.07406 1.06300
Mo	Mo	0.66071 0.16138 0.11214 1.08100
Mo	Mo	0.92942 0.14622 0.09476 1.09100
P 	P 	0.83120 0.08800 0.19780 0.55900
P 	P 	0.14450 0.35413 0.14372 0.55700
P 	P 	0.85098 0.27384 0.14772 0.51600
P 	P 	0.59007 0.39108 0.17978 0.55500
Mn	Mn	0.34876 0.43652 0.20384 1.29300
O 	O 	0.89640 0.28070 0.20430 -0.34100
O 	O 	0.85020 0.13230 0.24460 -0.18200
O 	O 	0.90070 0.20700 0.03980 -0.62200
O 	O 	0.57920 0.34050 0.05920 -0.49100
O 	O 	0.76860 0.11860 0.07090 -0.49100
O 	O 	0.11090 0.34470 0.19510 -0.44100
O 	O 	0.15360 0.29400 0.11510 -0.41000
O 	O 	0.91570 0.09540 0.16150 -0.37100
O 	O 	0.00160 0.31490 0.02670 -0.51900
O 	O 	0.72290 0.10370 0.16860 -0.42500
O 	O 	0.83300 0.02530 0.21800 -0.45000
O 	O 	0.78490 0.33870 0.03130 -0.64100
O 	O 	0.62220 0.21350 0.16590 -0.46700
O 	O 	0.04700 0.18970 0.13590 -0.49300
O 	O 	0.06330 0.39500 0.10810 -0.45800
O 	O 	0.64950 0.41960 0.13880 -0.40900
O 	O 	0.54820 0.32870 0.16320 -0.39900
O 	O 	0.74370 0.30890 0.13090 -0.41500
O 	O 	0.82580 0.20680 0.13400 -0.41000
O 	O 	0.93060 0.29700 0.11250 -0.42200
O 	O 	0.25530 0.38440 0.14880 -0.45600
O 	O 	0.66750 0.38720 0.23100 -0.42800
O 	O 	0.64910 0.22390 0.05800 -0.63400
O 	O 	0.49630 0.43280 0.18410 -0.48600
O 	O 	0.85510 0.41780 0.11740 -0.51500
Mo	Mo	0.21917 0.89247 0.07747 1.07600
Mo	Mo	0.07646 0.76692 0.10837 1.08000
Mo	Mo	0.41832 0.88010 0.06267 1.07800
Mo	Mo	0.54095 0.73844 0.07406 1.08100
Mo	Mo	0.16071 0.66138 0.11214 1.07800
Mo	Mo	0.42942 0.64622 0.09476 1.08000
P 	P 	0.33120 0.58800 0.19780 0.56000
P 	P 	0.64450 0.85413 0.14372 0.55900
P 	P 	0.35098 0.77384 0.14772 0.51600
P 	P 	0.09007 0.89108 0.17978 0.52600
Mn	Mn	0.84876 0.93652 0.20384 1.29700
O 	O 	0.39640 0.78070 0.20430 -0.35800
O 	O 	0.35020 0.63230 0.24460 -0.19500
O 	O 	0.40070 0.70700 0.03980 -0.63600
O 	O 	0.07920 0.84050 0.05920 -0.50100
O 	O 	0.26860 0.61860 0.07090 -0.49700
O 	O 	0.61090 0.84470 0.19510 -0.43000
O 	O 	0.65360 0.79400 0.11510 -0.40000
O 	O 	0.41570 0.59540 0.16150 -0.38400
O 	O 	0.50160 0.81490 0.02670 -0.48900
O 	O 	0.22290 0.60370 0.16860 -0.43100
O 	O 	0.33300 0.52530 0.21800 -0.46000
O 	O 	0.28490 0.83870 0.03130 -0.64600
O 	O 	0.12220 0.71350 0.16590 -0.47500
O 	O 	0.54700 0.68970 0.13590 -0.46600
O 	O 	0.56330 0.89500 0.10810 -0.43800
O 	O 	0.14950 0.91960 0.13880 -0.41600
O 	O 	0.04820 0.82870 0.16320 -0.40900
O 	O 	0.24370 0.80890 0.13090 -0.41400
O 	O 	0.32580 0.70680 0.13400 -0.41400
O 	O 	0.43060 0.79700 0.11250 -0.44300
O 	O 	0.75530 0.88440 0.14880 -0.44800
O 	O 	0.16750 0.88720 0.23100 -0.43200
O 	O 	0.14910 0.72390 0.05800 -0.64100
O 	O 	0.99630 0.93280 0.18410 -0.45000
O 	O 	0.35510 0.91780 0.11740 -0.52800
Mo	Mo	0.28083 0.39247 0.42253 1.08200
Mo	Mo	0.42354 0.26692 0.39163 1.08900
Mo	Mo	0.08168 0.38010 0.43733 1.06600
Mo	Mo	0.95905 0.23844 0.42594 1.10000
Mo	Mo	0.33929 0.16138 0.38786 1.08600
Mo	Mo	0.07058 0.14622 0.40524 1.07000
P 	P 	0.16880 0.08800 0.30220 0.55900
P 	P 	0.85550 0.35413 0.35628 0.55900
P 	P 	0.14902 0.27384 0.35228 0.51500
P 	P 	0.40993 0.39108 0.32022 0.55500
Mn	Mn	0.65124 0.43652 0.29616 1.29500
O 	O 	0.10360 0.28070 0.29570 -0.36900
O 	O 	0.14980 0.13230 0.25540 -0.20300
O 	O 	0.09930 0.20700 0.46020 -0.63800
O 	O 	0.42080 0.34050 0.44080 -0.47700
O 	O 	0.23140 0.11860 0.42910 -0.48300
O 	O 	0.88910 0.34470 0.30490 -0.41500
O 	O 	0.84640 0.29400 0.38490 -0.39500
O 	O 	0.08430 0.09540 0.33850 -0.39500
O 	O 	0.99840 0.31490 0.47330 -0.44500
O 	O 	0.27710 0.10370 0.33140 -0.42400
O 	O 	0.16700 0.02530 0.28200 -0.46400
O 	O 	0.21510 0.33870 0.46870 -0.63500
O 	O 	0.37780 0.21350 0.33410 -0.46600
O 	O 	0.95300 0.18970 0.36410 -0.44100
O 	O 	0.93670 0.39500 0.39190 -0.41300
O 	O 	0.35050 0.41960 0.36120 -0.41000
O 	O 	0.45180 0.32870 0.33680 -0.39700
O 	O 	0.25630 0.30890 0.36910 -0.41600
O 	O 	0.17420 0.20680 0.36600 -0.41900
O 	O 	0.06940 0.29700 0.38750 -0.46500
O 	O 	0.74470 0.38440 0.35120 -0.44800
O 	O 	0.33250 0.38720 0.26900 -0.43200
O 	O 	0.35090 0.22390 0.44200 -0.62000
O 	O 	0.50370 0.43280 0.31590 -0.48400
O 	O 	0.14490 0.41780 0.38260 -0.53500
Mo	Mo	0.78083 0.89247 0.42253 1.08400
Mo	Mo	0.92354 0.76692 0.39163 1.09500
Mo	Mo	0.58168 0.88010 0.43733 1.08300
Mo	Mo	0.45905 0.73844 0.42594 1.08200
Mo	Mo	0.83929 0.66138 0.38786 1.09000
Mo	Mo	0.57058 0.64622 0.40524 1.08300
P 	P 	0.66880 0.58800 0.30220 0.55900
P 	P 	0.35550 0.85413 0.35628 0.55900
P 	P 	0.64902 0.77384 0.35228 0.51500
P 	P 	0.90993 0.89108 0.32022 0.58300
Mn	Mn	0.15124 0.93652 0.29616 1.29100
O 	O 	0.60360 0.78070 0.29570 -0.35700
O 	O 	0.64980 0.63230 0.25540 -0.19000
O 	O 	0.59930 0.70700 0.46020 -0.62300
O 	O 	0.92080 0.84050 0.44080 -0.46700
O 	O 	0.73140 0.61860 0.42910 -0.47700
O 	O 	0.38910 0.84470 0.30490 -0.43200
O 	O 	0.34640 0.79400 0.38490 -0.40500
O 	O 	0.58430 0.59540 0.33850 -0.38200
O 	O 	0.49840 0.81490 0.47330 -0.47600
O 	O 	0.77710 0.60370 0.33140 -0.41800
O 	O 	0.66700 0.52530 0.28200 -0.45300
O 	O 	0.71510 0.83870 0.46870 -0.63000
O 	O 	0.87780 0.71350 0.33410 -0.45700
O 	O 	0.45300 0.68970 0.36410 -0.46800
O 	O 	0.43670 0.89500 0.39190 -0.43500
O 	O 	0.85050 0.91960 0.36120 -0.40400
O 	O 	0.95180 0.82870 0.33680 -0.38800
O 	O 	0.75630 0.80890 0.36910 -0.41700
O 	O 	0.67420 0.70680 0.36600 -0.41500
O 	O 	0.56940 0.79700 0.38750 -0.44400
O 	O 	0.24470 0.88440 0.35120 -0.45700
O 	O 	0.83250 0.88720 0.26900 -0.42800
O 	O 	0.85090 0.72390 0.44200 -0.61300
O 	O 	0.00370 0.93280 0.31590 -0.52000
O 	O 	0.64490 0.91780 0.38260 -0.52200
Mo	Mo	0.28083 0.60753 0.92253 1.08600
Mo	Mo	0.42354 0.73308 0.89163 1.09200
Mo	Mo	0.08168 0.61990 0.93733 1.07100
Mo	Mo	0.95905 0.76156 0.92594 1.10400
Mo	Mo	0.33929 0.83862 0.88786 1.08900
Mo	Mo	0.07058 0.85378 0.90524 1.07400
P 	P 	0.16880 0.91200 0.80220 0.55900
P 	P 	0.85550 0.64587 0.85628 0.55900
P 	P 	0.14902 0.72616 0.85228 0.51500
P 	P 	0.40993 0.60892 0.82022 0.55400
Mn	Mn	0.65124 0.56348 0.79616 1.29500
O 	O 	0.10360 0.71930 0.79570 -0.37000
O 	O 	0.14980 0.86770 0.75540 -0.20200
O 	O 	0.09930 0.79300 0.96020 -0.61900
O 	O 	0.42080 0.65950 0.94080 -0.46300
O 	O 	0.23140 0.88140 0.92910 -0.46900
O 	O 	0.88910 0.65530 0.80490 -0.41500
O 	O 	0.84640 0.70600 0.88490 -0.39100
O 	O 	0.08430 0.90460 0.83850 -0.39300
O 	O 	0.99840 0.68510 0.97330 -0.42900
O 	O 	0.27710 0.89630 0.83140 -0.42100
O 	O 	0.16700 0.97470 0.78200 -0.46100
O 	O 	0.21510 0.66130 0.96870 -0.61500
O 	O 	0.37780 0.78650 0.83410 -0.46400
O 	O 	0.95300 0.81030 0.86410 -0.43900
O 	O 	0.93670 0.60500 0.89190 -0.40900
O 	O 	0.35050 0.58040 0.86120 -0.40700
O 	O 	0.45180 0.67130 0.83680 -0.39600
O 	O 	0.25630 0.69110 0.86910 -0.41600
O 	O 	0.17420 0.79320 0.86600 -0.41900
O 	O 	0.06940 0.70300 0.88750 -0.46500
O 	O 	0.74470 0.61560 0.85120 -0.44400
O 	O 	0.33250 0.61280 0.76900 -0.43100
O 	O 	0.35090 0.77610 0.94200 -0.60200
O 	O 	0.50370 0.56720 0.81590 -0.48200
O 	O 	0.14490 0.58220 0.88260 -0.53100
Mo	Mo	0.78083 0.10753 0.92253 1.08800
Mo	Mo	0.92354 0.23308 0.89163 1.09700
Mo	Mo	0.58168 0.11990 0.93733 1.08700
Mo	Mo	0.45905 0.26156 0.92594 1.08700
Mo	Mo	0.83929 0.33862 0.88786 1.09300
Mo	Mo	0.57058 0.35378 0.90524 1.08600
P 	P 	0.66880 0.41200 0.80220 0.55900
P 	P 	0.35550 0.14587 0.85628 0.55800
P 	P 	0.64902 0.22616 0.85228 0.51600
P 	P 	0.90993 0.10892 0.82022 0.58300
Mn	Mn	0.15124 0.06348 0.79616 1.29100
O 	O 	0.60360 0.21930 0.79570 -0.35700
O 	O 	0.64980 0.36770 0.75540 -0.18900
O 	O 	0.59930 0.29300 0.96020 -0.60400
O 	O 	0.92080 0.15950 0.94080 -0.45400
O 	O 	0.73140 0.38140 0.92910 -0.46400
O 	O 	0.38910 0.15530 0.80490 -0.43200
O 	O 	0.34640 0.20600 0.88490 -0.40100
O 	O 	0.58430 0.40460 0.83850 -0.38000
O 	O 	0.49840 0.18510 0.97330 -0.46000
O 	O 	0.77710 0.39630 0.83140 -0.41600
O 	O 	0.66700 0.47470 0.78200 -0.45200
O 	O 	0.71510 0.16130 0.96870 -0.61100
O 	O 	0.87780 0.28650 0.83410 -0.45600
O 	O 	0.45300 0.31030 0.86410 -0.46600
O 	O 	0.43670 0.10500 0.89190 -0.43000
O 	O 	0.85050 0.08040 0.86120 -0.40100
O 	O 	0.95180 0.17130 0.83680 -0.38600
O 	O 	0.75630 0.19110 0.86910 -0.41700
O 	O 	0.67420 0.29320 0.86600 -0.41500
O 	O 	0.56940 0.20300 0.88750 -0.44400
O 	O 	0.24470 0.11560 0.85120 -0.45300
O 	O 	0.83250 0.11280 0.76900 -0.42800
O 	O 	0.85090 0.27610 0.94200 -0.59600
O 	O 	0.00370 0.06720 0.81590 -0.51900
O 	O 	0.64490 0.08220 0.88260 -0.51900
Mo	Mo	0.71917 0.60753 0.57747 1.08300
Mo	Mo	0.57646 0.73308 0.60837 1.08800
Mo	Mo	0.91832 0.61990 0.56267 1.09900
Mo	Mo	0.04095 0.76156 0.57406 1.06700
Mo	Mo	0.66071 0.83862 0.61214 1.08500
Mo	Mo	0.92942 0.85378 0.59476 1.09600
P 	P 	0.83120 0.91200 0.69780 0.56000
P 	P 	0.14450 0.64587 0.64372 0.55800
P 	P 	0.85098 0.72616 0.64772 0.51600
P 	P 	0.59007 0.60892 0.67978 0.55400
Mn	Mn	0.34876 0.56348 0.70384 1.29300
O 	O 	0.89640 0.71930 0.70430 -0.34100
O 	O 	0.85020 0.86770 0.74460 -0.18100
O 	O 	0.90070 0.79300 0.53980 -0.60800
O 	O 	0.57920 0.65950 0.55920 -0.47900
O 	O 	0.76860 0.88140 0.57090 -0.47900
O 	O 	0.11090 0.65530 0.69510 -0.44100
O 	O 	0.15360 0.70600 0.61510 -0.40600
O 	O 	0.91570 0.90460 0.66150 -0.36900
O 	O 	0.00160 0.68510 0.52670 -0.50400
O 	O 	0.72290 0.89630 0.66860 -0.42300
O 	O 	0.83300 0.97470 0.71800 -0.44800
O 	O 	0.78490 0.66130 0.53130 -0.62700
O 	O 	0.62220 0.78650 0.66590 -0.46500
O 	O 	0.04700 0.81030 0.63590 -0.49100
O 	O 	0.06330 0.60500 0.60810 -0.45400
O 	O 	0.64950 0.58040 0.63880 -0.40600
O 	O 	0.54820 0.67130 0.66320 -0.39800
O 	O 	0.74370 0.69110 0.63090 -0.41500
O 	O 	0.82580 0.79320 0.63400 -0.41000
O 	O 	0.93060 0.70300 0.61250 -0.42200
O 	O 	0.25530 0.61560 0.64880 -0.45200
O 	O 	0.66750 0.61280 0.73100 -0.42700
O 	O 	0.64910 0.77610 0.55800 -0.62100
O 	O 	0.49630 0.56720 0.68410 -0.48400
O 	O 	0.85510 0.58220 0.61740 -0.51100
Mo	Mo	0.21917 0.10753 0.57747 1.08000
Mo	Mo	0.07646 0.23308 0.60837 1.08300
Mo	Mo	0.41832 0.11990 0.56267 1.08200
Mo	Mo	0.54095 0.26156 0.57406 1.08500
Mo	Mo	0.16071 0.33862 0.61214 1.08100
Mo	Mo	0.42942 0.35378 0.59476 1.08300
P 	P 	0.33120 0.41200 0.69780 0.56000
P 	P 	0.64450 0.14587 0.64372 0.55900
P 	P 	0.35098 0.22616 0.64772 0.51500
P 	P 	0.09007 0.10892 0.67978 0.52500
Mn	Mn	0.84876 0.06348 0.70384 1.29700
O 	O 	0.39640 0.21930 0.70430 -0.35800
O 	O 	0.35020 0.36770 0.74460 -0.19400
O 	O 	0.40070 0.29300 0.53980 -0.62200
O 	O 	0.07920 0.15950 0.55920 -0.48900
O 	O 	0.26860 0.38140 0.57090 -0.48400
O 	O 	0.61090 0.15530 0.69510 -0.43000
O 	O 	0.65360 0.20600 0.61510 -0.39600
O 	O 	0.41570 0.40460 0.66150 -0.38200
O 	O 	0.50160 0.18510 0.52670 -0.47300
O 	O 	0.22290 0.39630 0.66860 -0.42900
O 	O 	0.33300 0.47470 0.71800 -0.45800
O 	O 	0.28490 0.16130 0.53130 -0.63100
O 	O 	0.12220 0.28650 0.66590 -0.47400
O 	O 	0.54700 0.31030 0.63590 -0.46400
O 	O 	0.56330 0.10500 0.60810 -0.43300
O 	O 	0.14950 0.08040 0.63880 -0.41300
O 	O 	0.04820 0.17130 0.66320 -0.40700
O 	O 	0.24370 0.19110 0.63090 -0.41500
O 	O 	0.32580 0.29320 0.63400 -0.41400
O 	O 	0.43060 0.20300 0.61250 -0.44400
O 	O 	0.75530 0.11560 0.64880 -0.44400
O 	O 	0.16750 0.11280 0.73100 -0.43200
O 	O 	0.14910 0.27610 0.55800 -0.62800
O 	O 	0.99630 0.06720 0.68410 -0.44800
O 	O 	0.35510 0.08220 0.61740 -0.52500
Mn	Mn	0.75000 0.25000 -0.00000 1.30500
Mn	Mn	0.25000 0.25000 0.50000 1.32100
Mn	Mn	0.25000 0.75000 -0.00000 1.30400
Mn	Mn	0.75000 0.75000 0.50000 1.32200
Mn	Mn	-0.00000 0.34660 0.25000 1.25500
Mn	Mn	0.50000 0.84660 0.25000 1.27100
Mn	Mn	-0.00000 0.65340 0.75000 1.25500
Mn	Mn	0.50000 0.15340 0.75000 1.27100
