data_crystal

_cell_length_a 18.63420
_cell_length_b 18.63420
_cell_length_c 37.70900
_cell_angle_alpha 90.00000
_cell_angle_beta  90.00000
_cell_angle_gamma 120.00000

_symmetry_space_group_name_	'P 1'
_symmetry_space_group_name_H-M	'P 1'

loop_
_symmetry_equiv_pos_as_xyz
  x,y,z

loop_
_atom_site_label
_atom_site_type_symbol
_atom_site_fract_x
_atom_site_fract_y
_atom_site_fract_z
_atom_site_charge
O 	O 	0.88984 0.63392 0.12274 -0.42600
O 	O 	0.85093 0.55579 0.17124 -0.41500
C 	C 	0.87865 0.57293 0.14039 0.39400
C 	C 	0.89843 0.51311 0.12314 -0.13700
C 	C 	0.92820 0.52800 0.08868 0.02700
H 	H 	0.93850 0.57640 0.07720 0.03300
C 	C 	0.95130 0.53120 0.01240 0.11800
H 	H 	0.92200 0.55570 0.02110 -0.00900
C 	C 	0.97970 0.54610 0.97769 -0.19000
H 	H 	0.90780 0.54000 0.01860 -0.00400
H 	H 	0.96630 0.57730 0.96260 0.09700
N 	N 	0.02030 0.56640 0.02231 -0.21200
O 	O 	0.55651 0.96725 0.45607 -0.42600
O 	O 	0.51760 0.88912 0.50457 -0.41500
C 	C 	0.54532 0.90626 0.47372 0.39400
C 	C 	0.56510 0.84644 0.45647 -0.13700
C 	C 	0.59487 0.86133 0.42201 0.02700
H 	H 	0.60517 0.90973 0.41053 0.03300
C 	C 	0.61797 0.86453 0.34573 0.11900
H 	H 	0.58867 0.88903 0.35443 -0.00900
C 	C 	0.64637 0.87943 0.31102 -0.19200
H 	H 	0.57447 0.87333 0.35193 -0.00400
H 	H 	0.63297 0.91063 0.29593 0.09700
N 	N 	0.68697 0.89973 0.35564 -0.21300
O 	O 	0.22317 0.30059 0.78941 -0.42600
O 	O 	0.18426 0.22246 0.83791 -0.41500
C 	C 	0.21198 0.23960 0.80706 0.39400
C 	C 	0.23176 0.17978 0.78981 -0.13700
C 	C 	0.26153 0.19467 0.75535 0.02700
H 	H 	0.27183 0.24307 0.74387 0.03300
C 	C 	0.28463 0.19787 0.67907 0.11900
H 	H 	0.25533 0.22237 0.68777 -0.00900
C 	C 	0.31303 0.21277 0.64436 -0.19200
H 	H 	0.24113 0.20667 0.68527 -0.00400
H 	H 	0.29963 0.24397 0.62927 0.09700
N 	N 	0.35363 0.23307 0.68898 -0.21300
O 	O 	0.36608 0.25592 0.12274 -0.42600
O 	O 	0.44421 0.29514 0.17124 -0.41500
C 	C 	0.42707 0.30572 0.14039 0.39400
C 	C 	0.48689 0.38532 0.12314 -0.13700
C 	C 	0.47200 0.40020 0.08868 0.02700
H 	H 	0.42360 0.36210 0.07720 0.03300
C 	C 	0.46880 0.42010 0.01240 0.11900
H 	H 	0.44430 0.36630 0.02110 -0.00900
C 	C 	0.45390 0.43360 0.97769 -0.19200
H 	H 	0.46000 0.36780 0.01860 -0.00400
H 	H 	0.42270 0.38900 0.96260 0.09800
N 	N 	0.43360 0.45390 0.02231 -0.21200
O 	O 	0.03275 0.58925 0.45607 -0.42500
O 	O 	0.11088 0.62847 0.50457 -0.41400
C 	C 	0.09374 0.63905 0.47372 0.39500
C 	C 	0.15356 0.71865 0.45647 -0.13600
C 	C 	0.13867 0.73353 0.42201 0.02800
H 	H 	0.09027 0.69543 0.41053 0.03400
C 	C 	0.13547 0.75343 0.34573 0.12000
H 	H 	0.11097 0.69963 0.35443 -0.00800
C 	C 	0.12057 0.76693 0.31102 -0.19100
H 	H 	0.12667 0.70113 0.35193 -0.00300
H 	H 	0.08937 0.72233 0.29593 0.09800
N 	N 	0.10027 0.78723 0.35564 -0.21200
O 	O 	0.69941 0.92259 0.78941 -0.42500
O 	O 	0.77754 0.96181 0.83791 -0.41400
C 	C 	0.76040 0.97239 0.80706 0.39400
C 	C 	0.82022 0.05199 0.78981 -0.13500
C 	C 	0.80533 0.06687 0.75535 0.02700
H 	H 	0.75693 0.02877 0.74387 0.03400
C 	C 	0.80213 0.08677 0.67907 0.12000
H 	H 	0.77763 0.03297 0.68777 -0.00800
C 	C 	0.78723 0.10027 0.64436 -0.19100
H 	H 	0.79333 0.03447 0.68527 -0.00300
H 	H 	0.75603 0.05567 0.62927 0.09800
N 	N 	0.76693 0.12057 0.68898 -0.21200
O 	O 	0.74408 0.11016 0.12274 -0.42500
O 	O 	0.70486 0.14907 0.17124 -0.41400
C 	C 	0.69428 0.12135 0.14039 0.39500
C 	C 	0.61468 0.10157 0.12314 -0.13600
C 	C 	0.59980 0.07180 0.08868 0.02800
H 	H 	0.63790 0.06150 0.07720 0.03400
C 	C 	0.57990 0.04870 0.01240 0.11900
H 	H 	0.63370 0.07800 0.02110 -0.00800
C 	C 	0.56640 0.02030 0.97769 -0.18900
H 	H 	0.63220 0.09220 0.01860 -0.00300
H 	H 	0.61100 0.03370 0.96260 0.09800
N 	N 	0.54610 0.97970 0.02231 -0.21100
O 	O 	0.41075 0.44349 0.45607 -0.42500
O 	O 	0.37153 0.48240 0.50457 -0.41400
C 	C 	0.36095 0.45468 0.47372 0.39500
C 	C 	0.28135 0.43490 0.45647 -0.13600
C 	C 	0.26647 0.40513 0.42201 0.02800
H 	H 	0.30457 0.39483 0.41053 0.03400
C 	C 	0.24657 0.38203 0.34573 0.12000
H 	H 	0.30037 0.41133 0.35443 -0.00800
C 	C 	0.23307 0.35363 0.31102 -0.19100
H 	H 	0.29887 0.42553 0.35193 -0.00300
H 	H 	0.27767 0.36703 0.29593 0.09800
N 	N 	0.21277 0.31303 0.35564 -0.21200
O 	O 	0.07741 0.77683 0.78941 -0.42500
O 	O 	0.03819 0.81574 0.83791 -0.41400
C 	C 	0.02761 0.78802 0.80706 0.39400
C 	C 	0.94801 0.76824 0.78981 -0.13500
C 	C 	0.93313 0.73847 0.75535 0.02700
H 	H 	0.97123 0.72817 0.74387 0.03400
C 	C 	0.91323 0.71537 0.67907 0.12000
H 	H 	0.96703 0.74467 0.68777 -0.00800
C 	C 	0.89973 0.68697 0.64436 -0.19100
H 	H 	0.96553 0.75887 0.68527 -0.00300
H 	H 	0.94433 0.70037 0.62927 0.09800
N 	N 	0.87943 0.64637 0.68898 -0.21200
O 	O 	0.63392 0.88984 0.87726 -0.42500
O 	O 	0.55579 0.85093 0.82876 -0.41400
C 	C 	0.57293 0.87865 0.85961 0.39400
C 	C 	0.51311 0.89843 0.87686 -0.13500
C 	C 	0.52800 0.92820 0.91132 0.02600
H 	H 	0.57640 0.93850 0.92280 0.03400
C 	C 	0.53120 0.95130 0.98760 0.09700
H 	H 	0.55570 0.92200 0.97890 -0.00500
H 	H 	0.54000 0.90780 0.98140 0.00300
H 	H 	0.57730 0.96630 0.03740 0.10900
O 	O 	0.30059 0.22317 0.21059 -0.42500
O 	O 	0.22246 0.18426 0.16209 -0.41400
C 	C 	0.23960 0.21198 0.19294 0.39400
C 	C 	0.17978 0.23176 0.21019 -0.13500
C 	C 	0.19467 0.26153 0.24465 0.02600
H 	H 	0.24307 0.27183 0.25613 0.03400
C 	C 	0.19787 0.28463 0.32093 0.09800
H 	H 	0.22237 0.25533 0.31223 -0.00600
H 	H 	0.20667 0.24113 0.31473 0.00300
H 	H 	0.24397 0.29963 0.37073 0.10900
O 	O 	0.96725 0.55651 0.54393 -0.42500
O 	O 	0.88912 0.51760 0.49543 -0.41400
C 	C 	0.90626 0.54532 0.52628 0.39400
C 	C 	0.84644 0.56510 0.54353 -0.13500
C 	C 	0.86133 0.59487 0.57799 0.02600
H 	H 	0.90973 0.60517 0.58947 0.03400
C 	C 	0.86453 0.61797 0.65427 0.09800
H 	H 	0.88903 0.58867 0.64557 -0.00600
H 	H 	0.87333 0.57447 0.64807 0.00300
H 	H 	0.91063 0.63297 0.70407 0.10900
O 	O 	0.25592 0.36608 0.87726 -0.42500
O 	O 	0.29514 0.44421 0.82876 -0.41400
C 	C 	0.30572 0.42707 0.85961 0.39400
C 	C 	0.38532 0.48689 0.87686 -0.13500
C 	C 	0.40020 0.47200 0.91132 0.02600
H 	H 	0.36210 0.42360 0.92280 0.03400
C 	C 	0.42010 0.46880 0.98760 0.09800
H 	H 	0.36630 0.44430 0.97890 -0.00600
H 	H 	0.36780 0.46000 0.98140 0.00300
H 	H 	0.38900 0.42270 0.03740 0.10900
O 	O 	0.92259 0.69941 0.21059 -0.42500
O 	O 	0.96181 0.77754 0.16209 -0.41400
C 	C 	0.97239 0.76040 0.19294 0.39400
C 	C 	0.05199 0.82022 0.21019 -0.13500
C 	C 	0.06687 0.80533 0.24465 0.02600
H 	H 	0.02877 0.75693 0.25613 0.03500
C 	C 	0.08677 0.80213 0.32093 0.09800
H 	H 	0.03297 0.77763 0.31223 -0.00500
H 	H 	0.03447 0.79333 0.31473 0.00300
H 	H 	0.05567 0.75603 0.37073 0.10900
O 	O 	0.58925 0.03275 0.54393 -0.42500
O 	O 	0.62847 0.11088 0.49543 -0.41400
C 	C 	0.63905 0.09374 0.52628 0.39400
C 	C 	0.71865 0.15356 0.54353 -0.13500
C 	C 	0.73353 0.13867 0.57799 0.02600
H 	H 	0.69543 0.09027 0.58947 0.03400
C 	C 	0.75343 0.13547 0.65427 0.09800
H 	H 	0.69963 0.11097 0.64557 -0.00600
H 	H 	0.70113 0.12667 0.64807 0.00300
H 	H 	0.72233 0.08937 0.70407 0.10900
O 	O 	0.11016 0.74408 0.87726 -0.42500
O 	O 	0.14907 0.70486 0.82876 -0.41400
C 	C 	0.12135 0.69428 0.85961 0.39400
C 	C 	0.10157 0.61468 0.87686 -0.13500
C 	C 	0.07180 0.59980 0.91132 0.02600
H 	H 	0.06150 0.63790 0.92280 0.03400
C 	C 	0.04870 0.57990 0.98760 0.09700
H 	H 	0.07800 0.63370 0.97890 -0.00500
H 	H 	0.09220 0.63220 0.98140 0.00300
H 	H 	0.03370 0.61100 0.03740 0.10900
O 	O 	0.77683 0.07741 0.21059 -0.42500
O 	O 	0.81574 0.03819 0.16209 -0.41400
C 	C 	0.78802 0.02761 0.19294 0.39400
C 	C 	0.76824 0.94801 0.21019 -0.13500
C 	C 	0.73847 0.93313 0.24465 0.02600
H 	H 	0.72817 0.97123 0.25613 0.03500
C 	C 	0.71537 0.91323 0.32093 0.09800
H 	H 	0.74467 0.96703 0.31223 -0.00600
H 	H 	0.75887 0.96553 0.31473 0.00300
H 	H 	0.70037 0.94433 0.37073 0.10900
O 	O 	0.44349 0.41075 0.54393 -0.42500
O 	O 	0.48240 0.37153 0.49543 -0.41400
C 	C 	0.45468 0.36095 0.52628 0.39400
C 	C 	0.43490 0.28135 0.54353 -0.13500
C 	C 	0.40513 0.26647 0.57799 0.02600
H 	H 	0.39483 0.30457 0.58947 0.03400
C 	C 	0.38203 0.24657 0.65427 0.09800
H 	H 	0.41133 0.30037 0.64557 -0.00600
H 	H 	0.42553 0.29887 0.64807 0.00300
H 	H 	0.36703 0.27767 0.70407 0.10900
O 	O 	0.11016 0.36608 0.87726 -0.42500
O 	O 	0.14907 0.44421 0.82876 -0.41400
C 	C 	0.12135 0.42707 0.85961 0.39500
C 	C 	0.10157 0.48689 0.87686 -0.13600
C 	C 	0.07180 0.47200 0.91132 0.02800
H 	H 	0.06150 0.42360 0.92280 0.03400
C 	C 	0.04870 0.46880 0.98760 0.11900
H 	H 	0.07800 0.44430 0.97890 -0.00800
C 	C 	0.02030 0.45390 0.02231 -0.18900
H 	H 	0.09220 0.46000 0.98140 -0.00300
H 	H 	0.03370 0.42270 0.03740 0.09800
N 	N 	0.97970 0.43360 0.97769 -0.21100
O 	O 	0.77683 0.69941 0.21059 -0.42500
O 	O 	0.81574 0.77754 0.16209 -0.41400
C 	C 	0.78802 0.76040 0.19294 0.39500
C 	C 	0.76824 0.82022 0.21019 -0.13600
C 	C 	0.73847 0.80533 0.24465 0.02800
H 	H 	0.72817 0.75693 0.25613 0.03400
C 	C 	0.71537 0.80213 0.32093 0.12000
H 	H 	0.74467 0.77763 0.31223 -0.00800
C 	C 	0.68697 0.78723 0.35564 -0.19100
H 	H 	0.75887 0.79333 0.31473 -0.00300
H 	H 	0.70037 0.75603 0.37073 0.09800
N 	N 	0.64637 0.76693 0.31102 -0.21200
O 	O 	0.44349 0.03275 0.54393 -0.42500
O 	O 	0.48240 0.11088 0.49543 -0.41400
C 	C 	0.45468 0.09374 0.52628 0.39500
C 	C 	0.43490 0.15356 0.54353 -0.13600
C 	C 	0.40513 0.13867 0.57799 0.02800
H 	H 	0.39483 0.09027 0.58947 0.03400
C 	C 	0.38203 0.13547 0.65427 0.12000
H 	H 	0.41133 0.11097 0.64557 -0.00800
C 	C 	0.35363 0.12057 0.68898 -0.19100
H 	H 	0.42553 0.12667 0.64807 -0.00300
H 	H 	0.36703 0.08937 0.70407 0.09800
N 	N 	0.31303 0.10027 0.64436 -0.21200
O 	O 	0.63392 0.74408 0.87726 -0.42500
O 	O 	0.55579 0.70486 0.82876 -0.41400
C 	C 	0.57293 0.69428 0.85961 0.39500
C 	C 	0.51311 0.61468 0.87686 -0.13600
C 	C 	0.52800 0.59980 0.91132 0.02800
H 	H 	0.57640 0.63790 0.92280 0.03400
C 	C 	0.53120 0.57990 0.98760 0.12000
H 	H 	0.55570 0.63370 0.97890 -0.00800
C 	C 	0.54610 0.56640 0.02231 -0.19100
H 	H 	0.54000 0.63220 0.98140 -0.00300
H 	H 	0.57730 0.61100 0.03740 0.09800
N 	N 	0.56640 0.54610 0.97769 -0.21200
O 	O 	0.30059 0.07741 0.21059 -0.42500
O 	O 	0.22246 0.03819 0.16209 -0.41400
C 	C 	0.23960 0.02761 0.19294 0.39400
C 	C 	0.17978 0.94801 0.21019 -0.13500
C 	C 	0.19467 0.93313 0.24465 0.02700
H 	H 	0.24307 0.97123 0.25613 0.03400
C 	C 	0.19787 0.91323 0.32093 0.12000
H 	H 	0.22237 0.96703 0.31223 -0.00800
C 	C 	0.21277 0.89973 0.35564 -0.19100
H 	H 	0.20667 0.96553 0.31473 -0.00300
H 	H 	0.24397 0.94433 0.37073 0.09800
N 	N 	0.23307 0.87943 0.31102 -0.21200
O 	O 	0.96725 0.41075 0.54393 -0.42500
O 	O 	0.88912 0.37153 0.49543 -0.41400
C 	C 	0.90626 0.36095 0.52628 0.39500
C 	C 	0.84644 0.28135 0.54353 -0.13600
C 	C 	0.86133 0.26647 0.57799 0.02800
H 	H 	0.90973 0.30457 0.58947 0.03400
C 	C 	0.86453 0.24657 0.65427 0.12000
H 	H 	0.88903 0.30037 0.64557 -0.00800
C 	C 	0.87943 0.23307 0.68898 -0.19100
H 	H 	0.87333 0.29887 0.64807 -0.00300
H 	H 	0.91063 0.27767 0.70407 0.09800
N 	N 	0.89973 0.21277 0.64436 -0.21200
O 	O 	0.25592 0.88984 0.87726 -0.42500
O 	O 	0.29514 0.85093 0.82876 -0.41400
C 	C 	0.30572 0.87865 0.85961 0.39500
C 	C 	0.38532 0.89843 0.87686 -0.13600
C 	C 	0.40020 0.92820 0.91132 0.02800
H 	H 	0.36210 0.93850 0.92280 0.03400
C 	C 	0.42010 0.95130 0.98760 0.11900
H 	H 	0.36630 0.92200 0.97890 -0.00800
C 	C 	0.43360 0.97970 0.02231 -0.18900
H 	H 	0.36780 0.90780 0.98140 -0.00300
H 	H 	0.38900 0.96630 0.03740 0.09800
N 	N 	0.45390 0.02030 0.97769 -0.21100
O 	O 	0.92259 0.22317 0.21059 -0.42500
O 	O 	0.96181 0.18426 0.16209 -0.41400
C 	C 	0.97239 0.21198 0.19294 0.39400
C 	C 	0.05199 0.23176 0.21019 -0.13500
C 	C 	0.06687 0.26153 0.24465 0.02700
H 	H 	0.02877 0.27183 0.25613 0.03400
C 	C 	0.08677 0.28463 0.32093 0.12000
H 	H 	0.03297 0.25533 0.31223 -0.00800
C 	C 	0.10027 0.31303 0.35564 -0.19100
H 	H 	0.03447 0.24113 0.31473 -0.00300
H 	H 	0.05567 0.29963 0.37073 0.09800
N 	N 	0.12057 0.35363 0.31102 -0.21200
O 	O 	0.58925 0.55651 0.54393 -0.42500
O 	O 	0.62847 0.51760 0.49543 -0.41400
C 	C 	0.63905 0.54532 0.52628 0.39500
C 	C 	0.71865 0.56510 0.54353 -0.13600
C 	C 	0.73353 0.59487 0.57799 0.02800
H 	H 	0.69543 0.60517 0.58947 0.03400
C 	C 	0.75343 0.61797 0.65427 0.12000
H 	H 	0.69963 0.58867 0.64557 -0.00800
C 	C 	0.76693 0.64637 0.68898 -0.19100
H 	H 	0.70113 0.57447 0.64807 -0.00300
H 	H 	0.72233 0.63297 0.70407 0.09800
N 	N 	0.78723 0.68697 0.64436 -0.21200
O 	O 	0.36608 0.11016 0.12274 -0.42500
O 	O 	0.44421 0.14907 0.17124 -0.41400
C 	C 	0.42707 0.12135 0.14039 0.39400
C 	C 	0.48689 0.10157 0.12314 -0.13500
C 	C 	0.47200 0.07180 0.08868 0.02600
H 	H 	0.42360 0.06150 0.07720 0.03400
C 	C 	0.46880 0.04870 0.01240 0.09700
H 	H 	0.44430 0.07800 0.02110 -0.00500
H 	H 	0.46000 0.09220 0.01860 0.00300
H 	H 	0.42270 0.03370 0.96260 0.10900
O 	O 	0.03275 0.44349 0.45607 -0.42500
O 	O 	0.11088 0.48240 0.50457 -0.41400
C 	C 	0.09374 0.45468 0.47372 0.39400
C 	C 	0.15356 0.43490 0.45647 -0.13500
C 	C 	0.13867 0.40513 0.42201 0.02600
H 	H 	0.09027 0.39483 0.41053 0.03400
C 	C 	0.13547 0.38203 0.34573 0.09800
H 	H 	0.11097 0.41133 0.35443 -0.00600
H 	H 	0.12667 0.42553 0.35193 0.00300
H 	H 	0.08937 0.36703 0.29593 0.10900
O 	O 	0.69941 0.77683 0.78941 -0.42500
O 	O 	0.77754 0.81574 0.83791 -0.41400
C 	C 	0.76040 0.78802 0.80706 0.39400
C 	C 	0.82022 0.76824 0.78981 -0.13500
C 	C 	0.80533 0.73847 0.75535 0.02600
H 	H 	0.75693 0.72817 0.74387 0.03400
C 	C 	0.80213 0.71537 0.67907 0.09800
H 	H 	0.77763 0.74467 0.68777 -0.00600
H 	H 	0.79333 0.75887 0.68527 0.00300
H 	H 	0.75603 0.70037 0.62927 0.10900
O 	O 	0.74408 0.63392 0.12274 -0.42500
O 	O 	0.70486 0.55579 0.17124 -0.41400
C 	C 	0.69428 0.57293 0.14039 0.39400
C 	C 	0.61468 0.51311 0.12314 -0.13500
C 	C 	0.59980 0.52800 0.08868 0.02600
H 	H 	0.63790 0.57640 0.07720 0.03400
C 	C 	0.57990 0.53120 0.01240 0.09800
H 	H 	0.63370 0.55570 0.02110 -0.00600
H 	H 	0.63220 0.54000 0.01860 0.00300
H 	H 	0.61100 0.57730 0.96260 0.10900
O 	O 	0.41075 0.96725 0.45607 -0.42500
O 	O 	0.37153 0.88912 0.50457 -0.41400
C 	C 	0.36095 0.90626 0.47372 0.39400
C 	C 	0.28135 0.84644 0.45647 -0.13500
C 	C 	0.26647 0.86133 0.42201 0.02600
H 	H 	0.30457 0.90973 0.41053 0.03400
C 	C 	0.24657 0.86453 0.34573 0.09800
H 	H 	0.30037 0.88903 0.35443 -0.00600
H 	H 	0.29887 0.87333 0.35193 0.00300
H 	H 	0.27767 0.91063 0.29593 0.10900
O 	O 	0.07741 0.30059 0.78941 -0.42500
O 	O 	0.03819 0.22246 0.83791 -0.41400
C 	C 	0.02761 0.23960 0.80706 0.39400
C 	C 	0.94801 0.17978 0.78981 -0.13500
C 	C 	0.93313 0.19467 0.75535 0.02600
H 	H 	0.97123 0.24307 0.74387 0.03500
C 	C 	0.91323 0.19787 0.67907 0.09800
H 	H 	0.96703 0.22237 0.68777 -0.00500
H 	H 	0.96553 0.20667 0.68527 0.00300
H 	H 	0.94433 0.24397 0.62927 0.10900
O 	O 	0.88984 0.25592 0.12274 -0.42500
O 	O 	0.85093 0.29514 0.17124 -0.41400
C 	C 	0.87865 0.30572 0.14039 0.39400
C 	C 	0.89843 0.38532 0.12314 -0.13500
C 	C 	0.92820 0.40020 0.08868 0.02600
H 	H 	0.93850 0.36210 0.07720 0.03400
C 	C 	0.95130 0.42010 0.01240 0.09700
H 	H 	0.92200 0.36630 0.02110 -0.00500
H 	H 	0.90780 0.36780 0.01860 0.00300
H 	H 	0.96630 0.38900 0.96260 0.10900
O 	O 	0.55651 0.58925 0.45607 -0.42500
O 	O 	0.51760 0.62847 0.50457 -0.41400
C 	C 	0.54532 0.63905 0.47372 0.39400
C 	C 	0.56510 0.71865 0.45647 -0.13500
C 	C 	0.59487 0.73353 0.42201 0.02600
H 	H 	0.60517 0.69543 0.41053 0.03400
C 	C 	0.61797 0.75343 0.34573 0.09800
H 	H 	0.58867 0.69963 0.35443 -0.00600
H 	H 	0.57447 0.70113 0.35193 0.00300
H 	H 	0.63297 0.72233 0.29593 0.10900
O 	O 	0.22317 0.92259 0.78941 -0.42500
O 	O 	0.18426 0.96181 0.83791 -0.41400
C 	C 	0.21198 0.97239 0.80706 0.39400
C 	C 	0.23176 0.05199 0.78981 -0.13500
C 	C 	0.26153 0.06687 0.75535 0.02600
H 	H 	0.27183 0.02877 0.74387 0.03500
C 	C 	0.28463 0.08677 0.67907 0.09800
H 	H 	0.25533 0.03297 0.68777 -0.00600
H 	H 	0.24113 0.03447 0.68527 0.00300
H 	H 	0.29963 0.05567 0.62927 0.10900
Cu	Cu	0.85620 0.71239 0.13782 0.91000
Cu	Cu	0.52286 0.04572 0.47115 0.91000
Cu	Cu	0.18953 0.37906 0.80449 0.91000
Cu	Cu	0.28761 0.14380 0.13782 0.91000
Cu	Cu	0.95428 0.47714 0.47115 0.91000
Cu	Cu	0.62094 0.81047 0.80449 0.91000
Cu	Cu	0.85620 0.14380 0.13782 0.91000
Cu	Cu	0.52286 0.47714 0.47115 0.91000
Cu	Cu	0.18953 0.81047 0.80449 0.91000
Cu	Cu	0.71239 0.85620 0.86218 0.91000
Cu	Cu	0.37906 0.18953 0.19551 0.91000
Cu	Cu	0.04572 0.52286 0.52885 0.91000
Cu	Cu	0.14380 0.28761 0.86218 0.91000
Cu	Cu	0.81047 0.62094 0.19551 0.91000
Cu	Cu	0.47714 0.95428 0.52885 0.91000
Cu	Cu	0.14380 0.85620 0.86218 0.91000
Cu	Cu	0.81047 0.18953 0.19551 0.91000
Cu	Cu	0.47714 0.52286 0.52885 0.91000
C 	C 	0.88410 0.44205 0.14077 0.11400
C 	C 	0.94280 0.47140 0.07121 -0.04800
C 	C 	0.97330 0.48665 0.03481 0.05600
C 	C 	0.55077 0.77538 0.47410 0.11400
C 	C 	0.60947 0.80473 0.40454 -0.04800
C 	C 	0.63997 0.81998 0.36814 0.05600
C 	C 	0.21743 0.10872 0.80744 0.11400
C 	C 	0.27613 0.13807 0.73788 -0.04800
C 	C 	0.30663 0.15332 0.70148 0.05600
C 	C 	0.55795 0.44205 0.14077 0.11400
C 	C 	0.52860 0.47140 0.07121 -0.04800
C 	C 	0.51335 0.48665 0.03481 0.05600
C 	C 	0.22462 0.77538 0.47410 0.11400
C 	C 	0.19527 0.80473 0.40454 -0.04800
C 	C 	0.18002 0.81998 0.36814 0.05600
C 	C 	0.89128 0.10872 0.80744 0.11400
C 	C 	0.86193 0.13807 0.73788 -0.04800
C 	C 	0.84668 0.15332 0.70148 0.05600
C 	C 	0.55795 0.11590 0.14077 0.11400
C 	C 	0.52860 0.05720 0.07121 -0.04800
C 	C 	0.51335 0.02670 0.03481 0.05600
C 	C 	0.22462 0.44923 0.47410 0.11400
C 	C 	0.19527 0.39053 0.40454 -0.04800
C 	C 	0.18002 0.36003 0.36814 0.05600
C 	C 	0.89128 0.78257 0.80744 0.11400
C 	C 	0.86193 0.72387 0.73788 -0.04800
C 	C 	0.84668 0.69337 0.70148 0.05600
C 	C 	0.44205 0.88410 0.85923 0.11400
C 	C 	0.47140 0.94280 0.92879 -0.04800
C 	C 	0.48665 0.97330 0.96519 0.05600
C 	C 	0.10872 0.21743 0.19256 0.11400
C 	C 	0.13807 0.27613 0.26212 -0.04800
C 	C 	0.15332 0.30663 0.29852 0.05600
C 	C 	0.77538 0.55077 0.52590 0.11400
C 	C 	0.80473 0.60947 0.59546 -0.04800
C 	C 	0.81998 0.63997 0.63186 0.05600
C 	C 	0.44205 0.55795 0.85923 0.11400
C 	C 	0.47140 0.52860 0.92879 -0.04800
C 	C 	0.48665 0.51335 0.96519 0.05600
C 	C 	0.10872 0.89128 0.19256 0.11400
C 	C 	0.13807 0.86193 0.26212 -0.04800
C 	C 	0.15332 0.84668 0.29852 0.05600
C 	C 	0.77538 0.22462 0.52590 0.11400
C 	C 	0.80473 0.19527 0.59546 -0.04800
C 	C 	0.81998 0.18002 0.63186 0.05600
C 	C 	0.11590 0.55795 0.85923 0.11400
C 	C 	0.05720 0.52860 0.92879 -0.04800
C 	C 	0.02670 0.51335 0.96519 0.05600
C 	C 	0.78257 0.89128 0.19256 0.11400
C 	C 	0.72387 0.86193 0.26212 -0.04800
C 	C 	0.69337 0.84668 0.29852 0.05600
C 	C 	0.44923 0.22462 0.52590 0.11400
C 	C 	0.39053 0.19527 0.59546 -0.04800
C 	C 	0.36003 0.18002 0.63186 0.05600
