data_crystal

_cell_length_a 7.70220
_cell_length_b 9.91520
_cell_length_c 15.82020
_cell_angle_alpha 90.00000
_cell_angle_beta  110.30500
_cell_angle_gamma 90.00000

_symmetry_space_group_name_	'P 1'
_symmetry_space_group_name_H-M	'P 1'

loop_
_symmetry_equiv_pos_as_xyz
  x,y,z

loop_
_atom_site_label
_atom_site_type_symbol
_atom_site_fract_x
_atom_site_fract_y
_atom_site_fract_z
_atom_site_charge
Nd	Nd	0.78478 0.04391 0.63998 2.20500
O 	O 	0.06040 0.94860 0.61264 -0.43800
O 	O 	0.22320 0.93910 0.52051 -0.43700
O 	O 	0.98100 0.23720 0.64538 -0.55400
O 	O 	0.03230 0.42320 0.72825 -0.59400
O 	O 	0.65730 0.83750 0.57152 -0.60100
O 	O 	0.45840 0.80450 0.43270 -0.61000
N 	N 	0.71820 0.44590 0.41120 -0.19500
C 	C 	0.96370 0.36320 0.65510 0.53400
C 	C 	0.85290 0.44100 0.57300 -0.28700
C 	C 	0.81740 0.38570 0.48810 0.16500
H 	H 	0.86620 0.30100 0.48460 -0.02300
C 	C 	0.64460 0.56730 0.41780 0.16700
H 	H 	0.57090 0.60970 0.36520 -0.04700
C 	C 	0.78240 0.56940 0.57820 0.21100
H 	H 	0.80790 0.61230 0.63350 -0.06200
C 	C 	0.67340 0.63150 0.49880 -0.28600
C 	C 	0.59050 0.76860 0.50160 0.58300
C 	C 	0.08210 0.96820 0.53870 0.26600
Nd	Nd	0.21522 0.54391 0.86002 2.21100
O 	O 	0.93960 0.44860 0.88736 -0.43800
O 	O 	0.77680 0.43910 0.97949 -0.43900
O 	O 	0.01900 0.73720 0.85462 -0.55200
O 	O 	0.96770 0.92320 0.77175 -0.58100
O 	O 	0.34270 0.33750 0.92848 -0.60200
O 	O 	0.54160 0.30450 0.06730 -0.60600
N 	N 	0.28180 0.94590 0.08880 -0.19600
C 	C 	0.03630 0.86320 0.84490 0.51800
C 	C 	0.14710 0.94100 0.92700 -0.27000
C 	C 	0.18260 0.88570 0.01190 0.15200
H 	H 	0.13380 0.80100 0.01540 -0.01900
C 	C 	0.35540 0.06730 0.08220 0.16900
H 	H 	0.42910 0.10970 0.13480 -0.04600
C 	C 	0.21760 0.06940 0.92180 0.18900
H 	H 	0.19210 0.11230 0.86650 -0.05500
C 	C 	0.32660 0.13150 0.00120 -0.26800
C 	C 	0.40950 0.26860 0.99840 0.57100
C 	C 	0.91790 0.46820 0.96130 0.26800
Nd	Nd	0.21522 0.95609 0.36002 2.20400
O 	O 	0.93960 0.05140 0.38736 -0.43900
O 	O 	0.77680 0.06090 0.47949 -0.43800
O 	O 	0.01900 0.76280 0.35462 -0.55500
O 	O 	0.96770 0.57680 0.27175 -0.59500
O 	O 	0.34270 0.16250 0.42848 -0.60200
O 	O 	0.54160 0.19550 0.56730 -0.61000
N 	N 	0.28180 0.55410 0.58880 -0.19500
C 	C 	0.03630 0.63680 0.34490 0.53400
C 	C 	0.14710 0.55900 0.42700 -0.28700
C 	C 	0.18260 0.61430 0.51190 0.16500
H 	H 	0.13380 0.69900 0.51540 -0.02300
C 	C 	0.35540 0.43270 0.58220 0.16700
H 	H 	0.42910 0.39030 0.63480 -0.04700
C 	C 	0.21760 0.43060 0.42180 0.21100
H 	H 	0.19210 0.38770 0.36650 -0.06200
C 	C 	0.32660 0.36850 0.50120 -0.28600
C 	C 	0.40950 0.23140 0.49840 0.58300
C 	C 	0.91790 0.03180 0.46130 0.26600
Nd	Nd	0.78478 0.45609 0.13998 2.21100
O 	O 	0.06040 0.55140 0.11264 -0.43800
O 	O 	0.22320 0.56090 0.02051 -0.43900
O 	O 	0.98100 0.26280 0.14538 -0.55200
O 	O 	0.03230 0.07680 0.22825 -0.58100
O 	O 	0.65730 0.66250 0.07152 -0.60200
O 	O 	0.45840 0.69550 0.93270 -0.60600
N 	N 	0.71820 0.05410 0.91120 -0.19600
C 	C 	0.96370 0.13680 0.15510 0.51800
C 	C 	0.85290 0.05900 0.07300 -0.27000
C 	C 	0.81740 0.11430 0.98810 0.15200
H 	H 	0.86620 0.19900 0.98460 -0.01900
C 	C 	0.64460 0.93270 0.91780 0.16900
H 	H 	0.57090 0.89030 0.86520 -0.04600
C 	C 	0.78240 0.93060 0.07820 0.18900
H 	H 	0.80790 0.88770 0.13350 -0.05500
C 	C 	0.67340 0.86850 0.99880 -0.26800
C 	C 	0.59050 0.73140 0.00160 0.57100
C 	C 	0.08210 0.53180 0.03870 0.26800
