data_crystal

_cell_length_a 7.76480
_cell_length_b 9.98270
_cell_length_c 15.15150
_cell_angle_alpha 90.00000
_cell_angle_beta  98.59100
_cell_angle_gamma 90.00000

_symmetry_space_group_name_	'P 1'
_symmetry_space_group_name_H-M	'P 1'

loop_
_symmetry_equiv_pos_as_xyz
  x,y,z

loop_
_atom_site_label
_atom_site_type_symbol
_atom_site_fract_x
_atom_site_fract_y
_atom_site_fract_z
_atom_site_charge
La	La	0.85859 0.54327 0.64068 1.64000
La	La	0.64141 0.04327 0.85932 1.63300
La	La	0.14141 0.45673 0.35932 1.64000
La	La	0.35859 0.95673 0.14068 1.63300
H 	H 	0.79590 0.10660 0.36650 -0.01300
H 	H 	0.61930 0.80140 0.48490 0.00700
H 	H 	0.82400 0.10980 0.63230 -0.01900
H 	H 	0.70410 0.60660 0.13350 -0.01500
H 	H 	0.88070 0.30140 0.01510 0.00500
H 	H 	0.67600 0.60980 0.86770 -0.02200
H 	H 	0.20410 0.89340 0.63350 -0.01300
H 	H 	0.38070 0.19860 0.51510 0.00700
H 	H 	0.17600 0.89020 0.36770 -0.01900
H 	H 	0.29590 0.39340 0.86650 -0.01500
H 	H 	0.11930 0.69860 0.98490 0.00500
H 	H 	0.32400 0.39020 0.13230 -0.02200
C 	C 	0.69020 0.86400 0.65336 0.42400
C 	C 	0.91090 0.26492 0.50148 0.46000
C 	C 	0.82450 0.13001 0.49929 -0.20500
C 	C 	0.77350 0.06530 0.41855 0.12200
C 	C 	0.67100 0.88570 0.48837 0.11900
C 	C 	0.71990 0.94097 0.57223 -0.20500
C 	C 	0.79450 0.06750 0.57741 0.13600
C 	C 	0.45710 0.46786 0.53822 0.23600
C 	C 	0.80980 0.36400 0.84664 0.42800
C 	C 	0.58910 0.76492 0.99852 0.46900
C 	C 	0.67550 0.63001 0.00071 -0.21500
C 	C 	0.72650 0.56530 0.08145 0.12700
C 	C 	0.82900 0.38570 0.01163 0.12500
C 	C 	0.78010 0.44097 0.92777 -0.21700
C 	C 	0.70550 0.56750 0.92259 0.14800
C 	C 	0.04290 0.96786 0.96178 0.23400
C 	C 	0.30980 0.13600 0.34664 0.42400
C 	C 	0.08910 0.73508 0.49852 0.46000
C 	C 	0.17550 0.86999 0.50071 -0.20500
C 	C 	0.22650 0.93470 0.58145 0.12200
C 	C 	0.32900 0.11430 0.51163 0.11900
C 	C 	0.28010 0.05903 0.42777 -0.20500
C 	C 	0.20550 0.93250 0.42259 0.13600
C 	C 	0.54290 0.53214 0.46178 0.23600
C 	C 	0.19020 0.63600 0.15336 0.42800
C 	C 	0.41090 0.23508 0.00148 0.46900
C 	C 	0.32450 0.36999 0.99929 -0.21500
C 	C 	0.27350 0.43470 0.91855 0.12700
C 	C 	0.17100 0.61430 0.98837 0.12500
C 	C 	0.21990 0.55903 0.07223 -0.21700
C 	C 	0.29450 0.43250 0.07741 0.14800
C 	C 	0.95710 0.03214 0.03822 0.23400
N 	N 	0.69330 0.94579 0.41210 -0.16100
N 	N 	0.80670 0.44579 0.08790 -0.16300
N 	N 	0.30670 0.05421 0.58790 -0.16100
N 	N 	0.19330 0.55421 0.91210 -0.16300
O 	O 	0.91800 0.33201 0.57165 -0.46400
O 	O 	0.97020 0.30120 0.43327 -0.47500
O 	O 	0.69510 0.92466 0.72536 -0.46000
O 	O 	0.66273 0.73945 0.64441 -0.43100
O 	O 	0.55302 0.44674 0.61058 -0.35200
O 	O 	0.29825 0.44073 0.52061 -0.35600
O 	O 	0.58200 0.83201 0.92835 -0.46300
O 	O 	0.52980 0.80120 0.06673 -0.47900
O 	O 	0.80490 0.42466 0.77464 -0.46400
O 	O 	0.83727 0.23945 0.85559 -0.43400
O 	O 	0.94698 0.94674 0.88942 -0.34700
O 	O 	0.20175 0.94073 0.97939 -0.35300
O 	O 	0.08200 0.66799 0.42835 -0.46400
O 	O 	0.02980 0.69880 0.56673 -0.47500
O 	O 	0.30490 0.07534 0.27464 -0.46000
O 	O 	0.33727 0.26055 0.35559 -0.43100
O 	O 	0.44698 0.55326 0.38942 -0.35200
O 	O 	0.70175 0.55927 0.47939 -0.35600
O 	O 	0.41800 0.16799 0.07165 -0.46300
O 	O 	0.47020 0.19880 0.93327 -0.47900
O 	O 	0.19510 0.57534 0.22536 -0.46400
O 	O 	0.16273 0.76055 0.14441 -0.43400
O 	O 	0.05302 0.05326 0.11058 -0.34700
O 	O 	0.79825 0.05927 0.02061 -0.35300
