data_crystal

_cell_length_a 7.67990
_cell_length_b 9.87420
_cell_length_c 14.89300
_cell_angle_alpha 90.00000
_cell_angle_beta  98.36400
_cell_angle_gamma 90.00000

_symmetry_space_group_name_	'P 1'
_symmetry_space_group_name_H-M	'P 1'

loop_
_symmetry_equiv_pos_as_xyz
  x,y,z

loop_
_atom_site_label
_atom_site_type_symbol
_atom_site_fract_x
_atom_site_fract_y
_atom_site_fract_z
_atom_site_charge
Eu	Eu	0.85341 0.54448 0.13956 1.91700
Eu	Eu	0.64659 0.04448 0.36044 1.92100
Eu	Eu	0.14659 0.45552 0.86044 1.91700
Eu	Eu	0.35341 0.95552 0.63956 1.92100
H 	H 	0.88400 0.30170 0.51530 -0.00900
H 	H 	0.70170 0.60920 0.63580 -0.02900
H 	H 	0.67270 0.61180 0.36530 -0.04300
H 	H 	0.61600 0.80170 0.98470 -0.00400
H 	H 	0.79830 0.10920 0.86420 -0.02500
H 	H 	0.82730 0.11180 0.13470 -0.02900
H 	H 	0.11600 0.69830 0.48470 -0.01000
H 	H 	0.29830 0.39080 0.36420 -0.03000
H 	H 	0.32730 0.38820 0.63470 -0.04300
H 	H 	0.38400 0.19830 0.01530 -0.00400
H 	H 	0.20170 0.89080 0.13580 -0.02500
H 	H 	0.17270 0.88820 0.86530 -0.02900
C 	C 	0.80830 0.36320 0.34390 0.50200
C 	C 	0.77990 0.44170 0.42660 -0.26000
C 	C 	0.83040 0.38640 0.51190 0.15200
C 	C 	0.72520 0.56770 0.58280 0.15300
C 	C 	0.67450 0.63340 0.50130 -0.26100
C 	C 	0.58880 0.76980 0.49920 0.54800
C 	C 	0.70370 0.56960 0.42120 0.18800
C 	C 	0.45640 0.46870 0.03910 0.26100
C 	C 	0.69170 0.86320 0.15610 0.49100
C 	C 	0.72010 0.94170 0.07340 -0.22700
C 	C 	0.66960 0.88640 0.98810 0.13300
C 	C 	0.77480 0.06770 0.91720 0.13800
C 	C 	0.82550 0.13340 0.99870 -0.22000
C 	C 	0.91120 0.26980 0.00080 0.51400
C 	C 	0.79630 0.06960 0.07880 0.13900
C 	C 	0.04360 0.96870 0.46090 0.25700
C 	C 	0.19170 0.63680 0.65610 0.50200
C 	C 	0.22010 0.55830 0.57340 -0.26000
C 	C 	0.16960 0.61360 0.48810 0.15200
C 	C 	0.27480 0.43230 0.41720 0.15300
C 	C 	0.32550 0.36660 0.49870 -0.26100
C 	C 	0.41120 0.23020 0.50080 0.54800
C 	C 	0.29630 0.43040 0.57880 0.18800
C 	C 	0.54360 0.53130 0.96090 0.26100
C 	C 	0.30830 0.13680 0.84390 0.49100
C 	C 	0.27990 0.05830 0.92660 -0.22700
C 	C 	0.33040 0.11360 0.01190 0.13300
C 	C 	0.22520 0.93230 0.08280 0.13800
C 	C 	0.17450 0.86660 0.00130 -0.22000
C 	C 	0.08880 0.73020 0.99920 0.51400
C 	C 	0.20370 0.93040 0.92120 0.13900
C 	C 	0.95640 0.03130 0.53910 0.25700
N 	N 	0.80710 0.44660 0.58940 -0.18000
N 	N 	0.69290 0.94660 0.91060 -0.17500
N 	N 	0.19290 0.55340 0.41060 -0.18000
N 	N 	0.30710 0.05340 0.08940 -0.17500
O 	O 	0.80500 0.42380 0.27020 -0.54000
O 	O 	0.83480 0.23680 0.35386 -0.50600
O 	O 	0.58760 0.83970 0.42850 -0.54400
O 	O 	0.52340 0.80530 0.56760 -0.55800
O 	O 	0.55310 0.45040 0.11320 -0.39900
O 	O 	0.29710 0.43800 0.02067 -0.39600
O 	O 	0.69500 0.92380 0.22980 -0.53400
O 	O 	0.66520 0.73680 0.14614 -0.50000
O 	O 	0.91240 0.33970 0.07150 -0.53900
O 	O 	0.97660 0.30530 0.93240 -0.54300
O 	O 	0.94690 0.95040 0.38680 -0.39400
O 	O 	0.20290 0.93800 0.47933 -0.39800
O 	O 	0.19500 0.57620 0.72980 -0.54000
O 	O 	0.16520 0.76320 0.64614 -0.50600
O 	O 	0.41240 0.16030 0.57150 -0.54400
O 	O 	0.47660 0.19470 0.43240 -0.55800
O 	O 	0.44690 0.54960 0.88680 -0.39900
O 	O 	0.70290 0.56200 0.97933 -0.39600
O 	O 	0.30500 0.07620 0.77020 -0.53400
O 	O 	0.33480 0.26320 0.85386 -0.50000
O 	O 	0.08760 0.66030 0.92850 -0.53900
O 	O 	0.02340 0.69470 0.06760 -0.54300
O 	O 	0.05310 0.04960 0.61320 -0.39400
O 	O 	0.79710 0.06200 0.52067 -0.39800
