data_crystal

_cell_length_a 7.65060
_cell_length_b 9.85960
_cell_length_c 14.85190
_cell_angle_alpha 90.00000
_cell_angle_beta  98.38900
_cell_angle_gamma 90.00000

_symmetry_space_group_name_	'P 1'
_symmetry_space_group_name_H-M	'P 1'

loop_
_symmetry_equiv_pos_as_xyz
  x,y,z

loop_
_atom_site_label
_atom_site_type_symbol
_atom_site_fract_x
_atom_site_fract_y
_atom_site_fract_z
_atom_site_charge
Eu	Eu	0.85270 0.45549 0.63954 1.95800
Eu	Eu	0.64730 0.95549 0.86046 1.94100
Eu	Eu	0.14730 0.54451 0.36046 1.95900
Eu	Eu	0.35270 0.04451 0.13954 1.94200
H 	H 	0.88460 0.69850 0.01600 -0.01200
H 	H 	0.67420 0.38750 0.86520 -0.05000
H 	H 	0.70390 0.38930 0.13670 -0.03300
H 	H 	0.61540 0.19850 0.48400 -0.01100
H 	H 	0.82580 0.88750 0.63480 -0.04600
H 	H 	0.79610 0.88930 0.36330 -0.03100
H 	H 	0.11540 0.30150 0.98400 -0.01200
H 	H 	0.32580 0.61250 0.13480 -0.05000
H 	H 	0.29610 0.61070 0.86330 -0.03300
H 	H 	0.38460 0.80150 0.51600 -0.01100
H 	H 	0.17420 0.11250 0.36520 -0.04600
H 	H 	0.20390 0.11070 0.63670 -0.03100
C 	C 	0.83070 0.61370 0.01250 0.15900
C 	C 	0.77910 0.55820 0.92630 -0.27500
C 	C 	0.70410 0.43020 0.92120 0.20700
C 	C 	0.67410 0.36680 0.00080 -0.27500
C 	C 	0.72620 0.43160 0.08360 0.15800
C 	C 	0.80760 0.63700 0.84410 0.51100
C 	C 	0.58800 0.22950 0.99930 0.56600
C 	C 	0.45660 0.53140 0.53880 0.26100
C 	C 	0.66930 0.11370 0.48750 0.15200
C 	C 	0.72090 0.05820 0.57370 -0.26100
C 	C 	0.79590 0.93020 0.57880 0.19200
C 	C 	0.82590 0.86680 0.49920 -0.26300
C 	C 	0.77380 0.93160 0.41640 0.15100
C 	C 	0.69240 0.13700 0.65590 0.50700
C 	C 	0.91200 0.72950 0.50070 0.55700
C 	C 	0.04340 0.03140 0.96120 0.25900
C 	C 	0.16930 0.38630 0.98750 0.15900
C 	C 	0.22090 0.44180 0.07370 -0.27500
C 	C 	0.29590 0.56980 0.07880 0.20700
C 	C 	0.32590 0.63320 0.99920 -0.27500
C 	C 	0.27380 0.56840 0.91640 0.15800
C 	C 	0.19240 0.36300 0.15590 0.51100
C 	C 	0.41200 0.77050 0.00070 0.56600
C 	C 	0.54340 0.46860 0.46120 0.26100
C 	C 	0.33070 0.88630 0.51250 0.15200
C 	C 	0.27910 0.94180 0.42630 -0.26100
C 	C 	0.20410 0.06980 0.42120 0.19200
C 	C 	0.17410 0.13320 0.50080 -0.26300
C 	C 	0.22620 0.06840 0.58360 0.15100
C 	C 	0.30760 0.86300 0.34410 0.50700
C 	C 	0.08800 0.27050 0.49930 0.55700
C 	C 	0.95660 0.96860 0.03880 0.25900
N 	N 	0.80750 0.55300 0.08990 -0.18400
N 	N 	0.69250 0.05300 0.41010 -0.18100
N 	N 	0.19250 0.44700 0.91010 -0.18400
N 	N 	0.30750 0.94700 0.58990 -0.18100
O 	O 	0.80420 0.57730 0.76981 -0.54600
O 	O 	0.83400 0.76400 0.85353 -0.51400
O 	O 	0.58950 0.15900 0.92893 -0.55200
O 	O 	0.52240 0.19390 0.06779 -0.57200
O 	O 	0.55290 0.54900 0.61357 -0.40300
O 	O 	0.29640 0.56200 0.52042 -0.40200
O 	O 	0.69580 0.07730 0.73019 -0.54000
O 	O 	0.66600 0.26400 0.64647 -0.51100
O 	O 	0.91050 0.65900 0.57107 -0.55500
O 	O 	0.97760 0.69390 0.43221 -0.56900
O 	O 	0.94710 0.04900 0.88643 -0.39600
O 	O 	0.20360 0.06200 0.97958 -0.39800
O 	O 	0.19580 0.42270 0.23019 -0.54600
O 	O 	0.16600 0.23600 0.14647 -0.51400
O 	O 	0.41050 0.84100 0.07107 -0.55200
O 	O 	0.47760 0.80610 0.93221 -0.57200
O 	O 	0.44710 0.45100 0.38643 -0.40300
O 	O 	0.70360 0.43800 0.47958 -0.40200
O 	O 	0.30420 0.92270 0.26981 -0.54000
O 	O 	0.33400 0.73600 0.35353 -0.51100
O 	O 	0.08950 0.34100 0.42893 -0.55500
O 	O 	0.02240 0.30610 0.56779 -0.56900
O 	O 	0.05290 0.95100 0.11357 -0.39600
O 	O 	0.79640 0.93800 0.02042 -0.39800
