data_crystal

_cell_length_a 18.85300
_cell_length_b 18.85300
_cell_length_c 20.63900
_cell_angle_alpha 90.00000
_cell_angle_beta  90.00000
_cell_angle_gamma 90.00000

_symmetry_space_group_name_	'P 1'
_symmetry_space_group_name_H-M	'P 1'

loop_
_symmetry_equiv_pos_as_xyz
  x,y,z

loop_
_atom_site_label
_atom_site_type_symbol
_atom_site_fract_x
_atom_site_fract_y
_atom_site_fract_z
_atom_site_charge
Cu	Cu	0.71849 0.07189 0.64776 0.85200
Cu	Cu	0.63781 0.19834 0.73151 0.84800
Cu	Cu	0.56622 0.14625 0.59561 0.84300
O 	O 	0.62660 0.11750 0.67050 -0.66600
H 	H 	0.59930 0.08150 0.69400 0.11500
N 	N 	0.74950 0.09500 0.73370 -0.21800
N 	N 	0.72000 0.14760 0.76660 -0.21400
C 	C 	0.74900 0.15320 0.82570 0.06100
H 	H 	0.73760 0.18760 0.85620 -0.00500
C 	C 	0.79880 0.09960 0.83440 -0.14700
H 	H 	0.82640 0.09010 0.87080 0.07600
C 	C 	0.79750 0.06590 0.77900 0.06900
H 	H 	0.82550 0.02640 0.77030 -0.00300
N 	N 	0.54190 0.22900 0.71110 -0.23300
N 	N 	0.50780 0.19990 0.65900 -0.23100
C 	C 	0.44510 0.22300 0.65860 0.10700
H 	H 	0.41320 0.21420 0.62520 -0.03200
C 	C 	0.42840 0.26310 0.71340 -0.19400
H 	H 	0.38550 0.28310 0.72610 0.08900
C 	C 	0.49160 0.26470 0.74250 0.10300
H 	H 	0.49980 0.28850 0.78120 -0.02200
N 	N 	0.62790 0.08990 0.53830 -0.21300
N 	N 	0.68540 0.06100 0.55870 -0.21500
C 	C 	0.71440 0.02200 0.51030 0.05100
H 	H 	0.75520 0.99450 0.51360 -0.00700
C 	C 	0.67420 0.02950 0.45680 -0.12800
H 	H 	0.68140 0.00880 0.41650 0.05800
C 	C 	0.61810 0.07630 0.47560 0.04000
H 	H 	0.58210 0.09370 0.44930 -0.00700
N 	N 	0.66490 0.28230 0.78860 -0.23100
C 	C 	0.72710 0.31840 0.77400 0.04600
H 	H 	0.74910 0.31150 0.73410 -0.02800
C 	C 	0.75660 0.36470 0.81890 -0.12300
H 	H 	0.79830 0.38890 0.80900 0.05600
C 	C 	0.72390 0.37500 0.87850 0.04500
C 	C 	0.66160 0.33890 0.89320 -0.12500
H 	H 	0.63970 0.34580 0.93300 0.06900
C 	C 	0.63210 0.29260 0.84820 0.05100
H 	H 	0.59050 0.26840 0.85810 -0.01200
C 	C 	0.75840 0.41760 0.92910 0.04100
C 	C 	0.71590 0.46450 0.96370 -0.11100
H 	H 	0.66750 0.46690 0.95510 0.06500
C 	C 	0.74560 0.50760 0.01110 0.03400
H 	H 	0.71710 0.53890 0.03420 -0.02200
N 	N 	0.81780 0.50390 0.02390 -0.23900
C 	C 	0.86040 0.45710 0.98930 0.05600
H 	H 	0.90880 0.45470 0.99790 -0.02200
C 	C 	0.83070 0.41400 0.94200 -0.12800
H 	H 	0.85920 0.38270 0.91880 0.06400
N 	N 	0.81680 0.03940 0.62670 -0.23400
C 	C 	0.86460 0.09220 0.60940 0.05000
H 	H 	0.84840 0.13760 0.59990 -0.02200
C 	C 	0.93670 0.07710 0.60620 -0.12200
H 	H 	0.96870 0.11240 0.59460 0.06600
C 	C 	0.96090 0.00920 0.62030 0.04600
C 	C 	0.91310 0.95640 0.63760 -0.12500
H 	H 	0.92930 0.91100 0.64710 0.06100
C 	C 	0.84100 0.97150 0.64080 0.05200
H 	H 	0.80900 0.93620 0.65240 -0.02400
Cu	Cu	0.28151 0.92811 0.64776 0.85100
Cu	Cu	0.36219 0.80166 0.73151 0.84700
Cu	Cu	0.43378 0.85375 0.59561 0.84300
O 	O 	0.37340 0.88250 0.67050 -0.66600
H 	H 	0.40070 0.91850 0.69400 0.11500
N 	N 	0.25050 0.90500 0.73370 -0.21800
N 	N 	0.28000 0.85240 0.76660 -0.21400
C 	C 	0.25100 0.84680 0.82570 0.06100
H 	H 	0.26240 0.81240 0.85620 -0.00500
C 	C 	0.20120 0.90040 0.83440 -0.14700
H 	H 	0.17360 0.90990 0.87080 0.07600
C 	C 	0.20250 0.93410 0.77900 0.06900
H 	H 	0.17450 0.97360 0.77030 -0.00300
N 	N 	0.45810 0.77100 0.71110 -0.23300
N 	N 	0.49220 0.80010 0.65900 -0.23100
C 	C 	0.55490 0.77700 0.65860 0.10700
H 	H 	0.58680 0.78580 0.62520 -0.03200
C 	C 	0.57160 0.73690 0.71340 -0.19400
H 	H 	0.61450 0.71690 0.72610 0.08900
C 	C 	0.50840 0.73530 0.74250 0.10300
H 	H 	0.50020 0.71150 0.78120 -0.02200
N 	N 	0.37210 0.91010 0.53830 -0.21300
N 	N 	0.31460 0.93900 0.55870 -0.21500
C 	C 	0.28560 0.97800 0.51030 0.05100
H 	H 	0.24480 0.00550 0.51360 -0.00700
C 	C 	0.32580 0.97050 0.45680 -0.12800
H 	H 	0.31860 0.99120 0.41650 0.05800
C 	C 	0.38190 0.92370 0.47560 0.04000
H 	H 	0.41790 0.90630 0.44930 -0.00700
N 	N 	0.33510 0.71770 0.78860 -0.23100
C 	C 	0.27290 0.68160 0.77400 0.04600
H 	H 	0.25090 0.68850 0.73410 -0.02800
C 	C 	0.24340 0.63530 0.81890 -0.12300
H 	H 	0.20170 0.61110 0.80900 0.05600
C 	C 	0.27610 0.62500 0.87850 0.04500
C 	C 	0.33840 0.66110 0.89320 -0.12500
H 	H 	0.36030 0.65420 0.93300 0.06900
C 	C 	0.36790 0.70740 0.84820 0.05100
H 	H 	0.40950 0.73160 0.85810 -0.01200
C 	C 	0.24160 0.58240 0.92910 0.04100
C 	C 	0.28410 0.53550 0.96370 -0.11100
H 	H 	0.33250 0.53310 0.95510 0.06500
C 	C 	0.25440 0.49240 0.01110 0.03400
H 	H 	0.28290 0.46110 0.03420 -0.02200
N 	N 	0.18220 0.49610 0.02390 -0.23900
C 	C 	0.13960 0.54290 0.98930 0.05600
H 	H 	0.09120 0.54530 0.99790 -0.02200
C 	C 	0.16930 0.58600 0.94200 -0.12800
H 	H 	0.14080 0.61730 0.91880 0.06400
N 	N 	0.18320 0.96060 0.62670 -0.23400
C 	C 	0.13540 0.90780 0.60940 0.05000
H 	H 	0.15160 0.86240 0.59990 -0.02200
C 	C 	0.06330 0.92290 0.60620 -0.12200
H 	H 	0.03130 0.88760 0.59460 0.06600
C 	C 	0.03910 0.99080 0.62030 0.04600
C 	C 	0.08690 0.04360 0.63760 -0.12500
H 	H 	0.07070 0.08900 0.64710 0.06100
C 	C 	0.15900 0.02850 0.64080 0.05200
H 	H 	0.19100 0.06380 0.65240 -0.02400
Cu	Cu	0.92811 0.71849 0.14776 0.85100
Cu	Cu	0.80166 0.63781 0.23151 0.84700
Cu	Cu	0.85375 0.56622 0.09561 0.84200
O 	O 	0.88250 0.62660 0.17050 -0.66700
H 	H 	0.91850 0.59930 0.19400 0.11500
N 	N 	0.90500 0.74950 0.23370 -0.21800
N 	N 	0.85240 0.72000 0.26660 -0.21400
C 	C 	0.84680 0.74900 0.32570 0.06100
H 	H 	0.81240 0.73760 0.35620 -0.00500
C 	C 	0.90040 0.79880 0.33440 -0.14700
H 	H 	0.90990 0.82640 0.37080 0.07500
C 	C 	0.93410 0.79750 0.27900 0.06900
H 	H 	0.97360 0.82550 0.27030 -0.00300
N 	N 	0.77100 0.54190 0.21110 -0.23300
N 	N 	0.80010 0.50780 0.15900 -0.23100
C 	C 	0.77700 0.44510 0.15860 0.10800
H 	H 	0.78580 0.41320 0.12520 -0.03300
C 	C 	0.73690 0.42840 0.21340 -0.19500
H 	H 	0.71690 0.38550 0.22610 0.08900
C 	C 	0.73530 0.49160 0.24250 0.10300
H 	H 	0.71150 0.49980 0.28120 -0.02200
N 	N 	0.91010 0.62790 0.03830 -0.21800
N 	N 	0.93900 0.68540 0.05870 -0.21400
C 	C 	0.97800 0.71440 0.01030 0.03500
H 	H 	0.00550 0.75520 0.01360 -0.00400
C 	C 	0.97050 0.67420 0.95680 -0.11400
H 	H 	0.99120 0.68140 0.91650 0.05400
C 	C 	0.92370 0.61810 0.97560 0.04400
H 	H 	0.90630 0.58210 0.94930 -0.00700
N 	N 	0.71770 0.66490 0.28860 -0.23000
C 	C 	0.68160 0.72710 0.27400 0.04500
H 	H 	0.68850 0.74910 0.23410 -0.02800
C 	C 	0.63530 0.75660 0.31890 -0.12100
H 	H 	0.61110 0.79830 0.30900 0.05500
C 	C 	0.62500 0.72390 0.37850 0.04200
C 	C 	0.66110 0.66160 0.39320 -0.12300
H 	H 	0.65420 0.63970 0.43300 0.06700
C 	C 	0.70740 0.63210 0.34820 0.04900
H 	H 	0.73160 0.59050 0.35810 -0.01200
C 	C 	0.58240 0.75840 0.42910 0.04600
C 	C 	0.53550 0.71590 0.46370 -0.12700
H 	H 	0.53310 0.66750 0.45510 0.06800
C 	C 	0.49240 0.74560 0.51110 0.05000
H 	H 	0.46110 0.71710 0.53420 -0.02500
N 	N 	0.49610 0.81780 0.52390 -0.23700
C 	C 	0.54290 0.86040 0.48930 0.05000
H 	H 	0.54530 0.90880 0.49790 -0.02200
C 	C 	0.58600 0.83070 0.44200 -0.12900
H 	H 	0.61730 0.85920 0.41880 0.06400
N 	N 	0.96060 0.81680 0.12670 -0.23400
C 	C 	0.90780 0.86460 0.10940 0.04900
H 	H 	0.86240 0.84840 0.09990 -0.02300
C 	C 	0.92290 0.93670 0.10620 -0.12300
H 	H 	0.88760 0.96870 0.09460 0.06500
C 	C 	0.99080 0.96090 0.12030 0.04600
C 	C 	0.04360 0.91310 0.13760 -0.12500
H 	H 	0.08900 0.92930 0.14710 0.06100
C 	C 	0.02850 0.84100 0.14080 0.05100
H 	H 	0.06380 0.80900 0.15240 -0.02500
Cu	Cu	0.07189 0.28151 0.14776 0.85100
Cu	Cu	0.19834 0.36219 0.23151 0.84700
Cu	Cu	0.14625 0.43378 0.09561 0.84200
O 	O 	0.11750 0.37340 0.17050 -0.66700
H 	H 	0.08150 0.40070 0.19400 0.11500
N 	N 	0.09500 0.25050 0.23370 -0.21800
N 	N 	0.14760 0.28000 0.26660 -0.21400
C 	C 	0.15320 0.25100 0.32570 0.06100
H 	H 	0.18760 0.26240 0.35620 -0.00500
C 	C 	0.09960 0.20120 0.33440 -0.14700
H 	H 	0.09010 0.17360 0.37080 0.07500
C 	C 	0.06590 0.20250 0.27900 0.06900
H 	H 	0.02640 0.17450 0.27030 -0.00300
N 	N 	0.22900 0.45810 0.21110 -0.23300
N 	N 	0.19990 0.49220 0.15900 -0.23100
C 	C 	0.22300 0.55490 0.15860 0.10800
H 	H 	0.21420 0.58680 0.12520 -0.03300
C 	C 	0.26310 0.57160 0.21340 -0.19500
H 	H 	0.28310 0.61450 0.22610 0.08900
C 	C 	0.26470 0.50840 0.24250 0.10300
H 	H 	0.28850 0.50020 0.28120 -0.02200
N 	N 	0.08990 0.37210 0.03830 -0.21800
N 	N 	0.06100 0.31460 0.05870 -0.21400
C 	C 	0.02200 0.28560 0.01030 0.03500
H 	H 	0.99450 0.24480 0.01360 -0.00400
C 	C 	0.02950 0.32580 0.95680 -0.11400
H 	H 	0.00880 0.31860 0.91650 0.05400
C 	C 	0.07630 0.38190 0.97560 0.04400
H 	H 	0.09370 0.41790 0.94930 -0.00700
N 	N 	0.28230 0.33510 0.28860 -0.23000
C 	C 	0.31840 0.27290 0.27400 0.04500
H 	H 	0.31150 0.25090 0.23410 -0.02800
C 	C 	0.36470 0.24340 0.31890 -0.12100
H 	H 	0.38890 0.20170 0.30900 0.05500
C 	C 	0.37500 0.27610 0.37850 0.04200
C 	C 	0.33890 0.33840 0.39320 -0.12300
H 	H 	0.34580 0.36030 0.43300 0.06700
C 	C 	0.29260 0.36790 0.34820 0.04900
H 	H 	0.26840 0.40950 0.35810 -0.01200
C 	C 	0.41760 0.24160 0.42910 0.04600
C 	C 	0.46450 0.28410 0.46370 -0.12700
H 	H 	0.46690 0.33250 0.45510 0.06800
C 	C 	0.50760 0.25440 0.51110 0.05000
H 	H 	0.53890 0.28290 0.53420 -0.02500
N 	N 	0.50390 0.18220 0.52390 -0.23700
C 	C 	0.45710 0.13960 0.48930 0.05000
H 	H 	0.45470 0.09120 0.49790 -0.02200
C 	C 	0.41400 0.16930 0.44200 -0.12900
H 	H 	0.38270 0.14080 0.41880 0.06400
N 	N 	0.03940 0.18320 0.12670 -0.23400
C 	C 	0.09220 0.13540 0.10940 0.04900
H 	H 	0.13760 0.15160 0.09990 -0.02300
C 	C 	0.07710 0.06330 0.10620 -0.12300
H 	H 	0.11240 0.03130 0.09460 0.06500
C 	C 	0.00920 0.03910 0.12030 0.04600
C 	C 	0.95640 0.08690 0.13760 -0.12500
H 	H 	0.91100 0.07070 0.14710 0.06100
C 	C 	0.97150 0.15900 0.14080 0.05100
H 	H 	0.93620 0.19100 0.15240 -0.02500
Cu	Cu	0.21849 0.42811 0.64776 0.85100
Cu	Cu	0.13781 0.30166 0.73151 0.84700
Cu	Cu	0.06622 0.35375 0.59561 0.84300
O 	O 	0.12660 0.38250 0.67050 -0.66600
H 	H 	0.09930 0.41850 0.69400 0.11500
N 	N 	0.24950 0.40500 0.73370 -0.21800
N 	N 	0.22000 0.35240 0.76660 -0.21400
C 	C 	0.24900 0.34680 0.82570 0.06100
H 	H 	0.23760 0.31240 0.85620 -0.00500
C 	C 	0.29880 0.40040 0.83440 -0.14700
H 	H 	0.32640 0.40990 0.87080 0.07700
C 	C 	0.29750 0.43410 0.77900 0.06900
H 	H 	0.32550 0.47360 0.77030 -0.00300
N 	N 	0.04190 0.27100 0.71110 -0.23300
N 	N 	0.00780 0.30010 0.65900 -0.23100
C 	C 	0.94510 0.27700 0.65860 0.10700
H 	H 	0.91320 0.28580 0.62520 -0.03200
C 	C 	0.92840 0.23690 0.71340 -0.19400
H 	H 	0.88550 0.21690 0.72610 0.08900
C 	C 	0.99160 0.23530 0.74250 0.10200
H 	H 	0.99980 0.21150 0.78120 -0.02200
N 	N 	0.12790 0.41010 0.53830 -0.21300
N 	N 	0.18540 0.43900 0.55870 -0.21500
C 	C 	0.21440 0.47800 0.51030 0.05100
H 	H 	0.25520 0.50550 0.51360 -0.00700
C 	C 	0.17420 0.47050 0.45680 -0.12800
H 	H 	0.18140 0.49120 0.41650 0.05800
C 	C 	0.11810 0.42370 0.47560 0.04000
H 	H 	0.08210 0.40630 0.44930 -0.00700
N 	N 	0.16490 0.21770 0.78860 -0.23100
C 	C 	0.22710 0.18160 0.77400 0.04600
H 	H 	0.24910 0.18850 0.73410 -0.02800
C 	C 	0.25660 0.13530 0.81890 -0.12300
H 	H 	0.29830 0.11110 0.80900 0.05600
C 	C 	0.22390 0.12500 0.87850 0.04500
C 	C 	0.16160 0.16110 0.89320 -0.12500
H 	H 	0.13970 0.15420 0.93300 0.06900
C 	C 	0.13210 0.20740 0.84820 0.05000
H 	H 	0.09050 0.23160 0.85810 -0.01200
C 	C 	0.25840 0.08240 0.92910 0.04100
C 	C 	0.21590 0.03550 0.96370 -0.11200
H 	H 	0.16750 0.03310 0.95510 0.06500
C 	C 	0.24560 0.99240 0.01110 0.03400
H 	H 	0.21710 0.96110 0.03420 -0.02200
N 	N 	0.31780 0.99610 0.02390 -0.23900
C 	C 	0.36040 0.04290 0.98930 0.05600
H 	H 	0.40880 0.04530 0.99790 -0.02200
C 	C 	0.33070 0.08600 0.94200 -0.12800
H 	H 	0.35920 0.11730 0.91880 0.06400
N 	N 	0.31680 0.46060 0.62670 -0.23400
C 	C 	0.36460 0.40780 0.60940 0.05000
H 	H 	0.34840 0.36240 0.59990 -0.02200
C 	C 	0.43670 0.42290 0.60620 -0.12200
H 	H 	0.46870 0.38760 0.59460 0.06600
C 	C 	0.46090 0.49080 0.62030 0.04600
C 	C 	0.41310 0.54360 0.63760 -0.12500
H 	H 	0.42930 0.58900 0.64710 0.06100
C 	C 	0.34100 0.52850 0.64080 0.05200
H 	H 	0.30900 0.56380 0.65240 -0.02400
Cu	Cu	0.78151 0.57189 0.64776 0.85100
Cu	Cu	0.86219 0.69834 0.73151 0.84700
Cu	Cu	0.93378 0.64625 0.59561 0.84300
O 	O 	0.87340 0.61750 0.67050 -0.66600
H 	H 	0.90070 0.58150 0.69400 0.11500
N 	N 	0.75050 0.59500 0.73370 -0.21800
N 	N 	0.78000 0.64760 0.76660 -0.21400
C 	C 	0.75100 0.65320 0.82570 0.06100
H 	H 	0.76240 0.68760 0.85620 -0.00500
C 	C 	0.70120 0.59960 0.83440 -0.14700
H 	H 	0.67360 0.59010 0.87080 0.07700
C 	C 	0.70250 0.56590 0.77900 0.06900
H 	H 	0.67450 0.52640 0.77030 -0.00300
N 	N 	0.95810 0.72900 0.71110 -0.23300
N 	N 	0.99220 0.69990 0.65900 -0.23100
C 	C 	0.05490 0.72300 0.65860 0.10700
H 	H 	0.08680 0.71420 0.62520 -0.03200
C 	C 	0.07160 0.76310 0.71340 -0.19400
H 	H 	0.11450 0.78310 0.72610 0.08900
C 	C 	0.00840 0.76470 0.74250 0.10200
H 	H 	0.00020 0.78850 0.78120 -0.02200
N 	N 	0.87210 0.58990 0.53830 -0.21300
N 	N 	0.81460 0.56100 0.55870 -0.21500
C 	C 	0.78560 0.52200 0.51030 0.05100
H 	H 	0.74480 0.49450 0.51360 -0.00700
C 	C 	0.82580 0.52950 0.45680 -0.12800
H 	H 	0.81860 0.50880 0.41650 0.05800
C 	C 	0.88190 0.57630 0.47560 0.04000
H 	H 	0.91790 0.59370 0.44930 -0.00700
N 	N 	0.83510 0.78230 0.78860 -0.23100
C 	C 	0.77290 0.81840 0.77400 0.04600
H 	H 	0.75090 0.81150 0.73410 -0.02800
C 	C 	0.74340 0.86470 0.81890 -0.12300
H 	H 	0.70170 0.88890 0.80900 0.05600
C 	C 	0.77610 0.87500 0.87850 0.04500
C 	C 	0.83840 0.83890 0.89320 -0.12500
H 	H 	0.86030 0.84580 0.93300 0.06900
C 	C 	0.86790 0.79260 0.84820 0.05000
H 	H 	0.90950 0.76840 0.85810 -0.01200
C 	C 	0.74160 0.91760 0.92910 0.04100
C 	C 	0.78410 0.96450 0.96370 -0.11200
H 	H 	0.83250 0.96690 0.95510 0.06500
C 	C 	0.75440 0.00760 0.01110 0.03400
H 	H 	0.78290 0.03890 0.03420 -0.02200
N 	N 	0.68220 0.00390 0.02390 -0.23900
C 	C 	0.63960 0.95710 0.98930 0.05600
H 	H 	0.59120 0.95470 0.99790 -0.02200
C 	C 	0.66930 0.91400 0.94200 -0.12800
H 	H 	0.64080 0.88270 0.91880 0.06400
N 	N 	0.68320 0.53940 0.62670 -0.23400
C 	C 	0.63540 0.59220 0.60940 0.05000
H 	H 	0.65160 0.63760 0.59990 -0.02200
C 	C 	0.56330 0.57710 0.60620 -0.12200
H 	H 	0.53130 0.61240 0.59460 0.06600
C 	C 	0.53910 0.50920 0.62030 0.04600
C 	C 	0.58690 0.45640 0.63760 -0.12500
H 	H 	0.57070 0.41100 0.64710 0.06100
C 	C 	0.65900 0.47150 0.64080 0.05200
H 	H 	0.69100 0.43620 0.65240 -0.02400
Cu	Cu	0.42811 0.78151 0.14776 0.85100
Cu	Cu	0.30166 0.86219 0.23151 0.84700
Cu	Cu	0.35375 0.93378 0.09561 0.84200
O 	O 	0.38250 0.87340 0.17050 -0.66700
H 	H 	0.41850 0.90070 0.19400 0.11500
N 	N 	0.40500 0.75050 0.23370 -0.21800
N 	N 	0.35240 0.78000 0.26660 -0.21400
C 	C 	0.34680 0.75100 0.32570 0.06100
H 	H 	0.31240 0.76240 0.35620 -0.00500
C 	C 	0.40040 0.70120 0.33440 -0.14700
H 	H 	0.40990 0.67360 0.37080 0.07500
C 	C 	0.43410 0.70250 0.27900 0.06900
H 	H 	0.47360 0.67450 0.27030 -0.00300
N 	N 	0.27100 0.95810 0.21110 -0.23300
N 	N 	0.30010 0.99220 0.15900 -0.23100
C 	C 	0.27700 0.05490 0.15860 0.10700
H 	H 	0.28580 0.08680 0.12520 -0.03300
C 	C 	0.23690 0.07160 0.21340 -0.19500
H 	H 	0.21690 0.11450 0.22610 0.08900
C 	C 	0.23530 0.00840 0.24250 0.10300
H 	H 	0.21150 0.00020 0.28120 -0.02200
N 	N 	0.41010 0.87210 0.03830 -0.21800
N 	N 	0.43900 0.81460 0.05870 -0.21400
C 	C 	0.47800 0.78560 0.01030 0.03500
H 	H 	0.50550 0.74480 0.01360 -0.00400
C 	C 	0.47050 0.82580 0.95680 -0.11400
H 	H 	0.49120 0.81860 0.91650 0.05400
C 	C 	0.42370 0.88190 0.97560 0.04400
H 	H 	0.40630 0.91790 0.94930 -0.00700
N 	N 	0.21770 0.83510 0.28860 -0.23000
C 	C 	0.18160 0.77290 0.27400 0.04500
H 	H 	0.18850 0.75090 0.23410 -0.02800
C 	C 	0.13530 0.74340 0.31890 -0.12100
H 	H 	0.11110 0.70170 0.30900 0.05500
C 	C 	0.12500 0.77610 0.37850 0.04200
C 	C 	0.16110 0.83840 0.39320 -0.12300
H 	H 	0.15420 0.86030 0.43300 0.06700
C 	C 	0.20740 0.86790 0.34820 0.04900
H 	H 	0.23160 0.90950 0.35810 -0.01200
C 	C 	0.08240 0.74160 0.42910 0.04600
C 	C 	0.03550 0.78410 0.46370 -0.12700
H 	H 	0.03310 0.83250 0.45510 0.06800
C 	C 	0.99240 0.75440 0.51110 0.05000
H 	H 	0.96110 0.78290 0.53420 -0.02500
N 	N 	0.99610 0.68220 0.52390 -0.23700
C 	C 	0.04290 0.63960 0.48930 0.05000
H 	H 	0.04530 0.59120 0.49790 -0.02200
C 	C 	0.08600 0.66930 0.44200 -0.12900
H 	H 	0.11730 0.64080 0.41880 0.06400
N 	N 	0.46060 0.68320 0.12670 -0.23400
C 	C 	0.40780 0.63540 0.10940 0.04900
H 	H 	0.36240 0.65160 0.09990 -0.02300
C 	C 	0.42290 0.56330 0.10620 -0.12300
H 	H 	0.38760 0.53130 0.09460 0.06500
C 	C 	0.49080 0.53910 0.12030 0.04600
C 	C 	0.54360 0.58690 0.13760 -0.12500
H 	H 	0.58900 0.57070 0.14710 0.06100
C 	C 	0.52850 0.65900 0.14080 0.05100
H 	H 	0.56380 0.69100 0.15240 -0.02500
Cu	Cu	0.57189 0.21849 0.14776 0.85100
Cu	Cu	0.69834 0.13781 0.23151 0.84700
Cu	Cu	0.64625 0.06622 0.09561 0.84200
O 	O 	0.61750 0.12660 0.17050 -0.66700
H 	H 	0.58150 0.09930 0.19400 0.11500
N 	N 	0.59500 0.24950 0.23370 -0.21800
N 	N 	0.64760 0.22000 0.26660 -0.21400
C 	C 	0.65320 0.24900 0.32570 0.06100
H 	H 	0.68760 0.23760 0.35620 -0.00500
C 	C 	0.59960 0.29880 0.33440 -0.14700
H 	H 	0.59010 0.32640 0.37080 0.07500
C 	C 	0.56590 0.29750 0.27900 0.06900
H 	H 	0.52640 0.32550 0.27030 -0.00300
N 	N 	0.72900 0.04190 0.21110 -0.23300
N 	N 	0.69990 0.00780 0.15900 -0.23100
C 	C 	0.72300 0.94510 0.15860 0.10700
H 	H 	0.71420 0.91320 0.12520 -0.03300
C 	C 	0.76310 0.92840 0.21340 -0.19500
H 	H 	0.78310 0.88550 0.22610 0.08900
C 	C 	0.76470 0.99160 0.24250 0.10300
H 	H 	0.78850 0.99980 0.28120 -0.02200
N 	N 	0.58990 0.12790 0.03830 -0.21800
N 	N 	0.56100 0.18540 0.05870 -0.21400
C 	C 	0.52200 0.21440 0.01030 0.03500
H 	H 	0.49450 0.25520 0.01360 -0.00400
C 	C 	0.52950 0.17420 0.95680 -0.11400
H 	H 	0.50880 0.18140 0.91650 0.05400
C 	C 	0.57630 0.11810 0.97560 0.04400
H 	H 	0.59370 0.08210 0.94930 -0.00700
N 	N 	0.78230 0.16490 0.28860 -0.23000
C 	C 	0.81840 0.22710 0.27400 0.04500
H 	H 	0.81150 0.24910 0.23410 -0.02800
C 	C 	0.86470 0.25660 0.31890 -0.12100
H 	H 	0.88890 0.29830 0.30900 0.05500
C 	C 	0.87500 0.22390 0.37850 0.04200
C 	C 	0.83890 0.16160 0.39320 -0.12300
H 	H 	0.84580 0.13970 0.43300 0.06700
C 	C 	0.79260 0.13210 0.34820 0.04900
H 	H 	0.76840 0.09050 0.35810 -0.01200
C 	C 	0.91760 0.25840 0.42910 0.04600
C 	C 	0.96450 0.21590 0.46370 -0.12700
H 	H 	0.96690 0.16750 0.45510 0.06800
C 	C 	0.00760 0.24560 0.51110 0.05000
H 	H 	0.03890 0.21710 0.53420 -0.02500
N 	N 	0.00390 0.31780 0.52390 -0.23700
C 	C 	0.95710 0.36040 0.48930 0.05000
H 	H 	0.95470 0.40880 0.49790 -0.02200
C 	C 	0.91400 0.33070 0.44200 -0.12900
H 	H 	0.88270 0.35920 0.41880 0.06400
N 	N 	0.53940 0.31680 0.12670 -0.23400
C 	C 	0.59220 0.36460 0.10940 0.04900
H 	H 	0.63760 0.34840 0.09990 -0.02300
C 	C 	0.57710 0.43670 0.10620 -0.12300
H 	H 	0.61240 0.46870 0.09460 0.06500
C 	C 	0.50920 0.46090 0.12030 0.04600
C 	C 	0.45640 0.41310 0.13760 -0.12500
H 	H 	0.41100 0.42930 0.14710 0.06100
C 	C 	0.47150 0.34100 0.14080 0.05100
H 	H 	0.43620 0.30900 0.15240 -0.02500
