data_crystal

_cell_length_a 9.72500
_cell_length_b 14.65400
_cell_length_c 19.73600
_cell_angle_alpha 80.50000
_cell_angle_beta  77.20000
_cell_angle_gamma 81.70000

_symmetry_space_group_name_	'P 1'
_symmetry_space_group_name_H-M	'P 1'

loop_
_symmetry_equiv_pos_as_xyz
  x,y,z

loop_
_atom_site_label
_atom_site_type_symbol
_atom_site_fract_x
_atom_site_fract_y
_atom_site_fract_z
_atom_site_charge
Cd	Cd	0.46414 0.06293 0.19358 1.20700
Cd	Cd	0.16578 0.23162 0.24784 1.23000
O 	O 	0.27980 0.05570 0.14228 -0.44300
O 	O 	0.08470 0.14200 0.18972 -0.45400
O 	O 	0.53670 0.17810 0.10921 -0.44700
O 	O 	0.37460 0.26300 0.17643 -0.47700
O 	O 	0.29940 0.10280 0.29530 -0.51100
O 	O 	0.36030 0.95330 0.29089 -0.38200
O 	O 	0.99120 0.26710 0.35197 -0.36700
O 	O 	0.19380 0.32460 0.32430 -0.38800
N 	N 	0.03530 0.35800 0.19100 -0.25700
N 	N 	0.58960 0.94370 0.13619 -0.28100
C 	C 	0.15290 0.08760 0.14770 0.37700
C 	C 	0.07210 0.06000 0.09849 -0.09800
C 	C 	0.92870 0.09750 0.09880 0.01700
H 	H 	0.88020 0.13590 0.13310 0.02200
C 	C 	0.13980 0.00180 0.05060 -0.04500
H 	H 	0.23470 0.97540 0.05140 0.06000
C 	C 	0.07050 0.98020 0.00007 0.03100
C 	C 	0.86050 0.07860 0.05020 -0.10600
H 	H 	0.76550 0.10530 0.05020 0.06500
C 	C 	0.44340 0.50280 0.02930 0.01400
C 	C 	0.41850 0.42320 0.07920 -0.03400
H 	H 	0.34470 0.42730 0.11950 0.04400
C 	C 	0.50040 0.33910 0.07000 -0.10800
C 	C 	0.61170 0.33420 0.01160 0.01500
H 	H 	0.66820 0.27650 0.00530 0.03100
C 	C 	0.64080 0.41100 0.96330 -0.09500
H 	H 	0.71810 0.40630 0.92460 0.06000
C 	C 	0.46680 0.25450 0.12210 0.36700
C 	C 	0.04960 0.88400 0.46970 -0.08400
H 	H 	0.02570 0.82210 0.48370 0.06500
C 	C 	0.14890 0.90430 0.41010 0.01200
H 	H 	0.19500 0.85610 0.38340 0.03900
C 	C 	0.18340 0.99580 0.38792 -0.08400
C 	C 	0.12000 0.06400 0.42735 -0.04000
H 	H 	0.14550 0.12540 0.41270 0.04800
C 	C 	0.01750 0.04600 0.48944 0.02500
C 	C 	0.28760 0.01730 0.32070 0.32800
C 	C 	0.11000 0.44390 0.42380 -0.04400
H 	H 	0.19900 0.44830 0.39250 0.06100
C 	C 	0.02690 0.38130 0.41770 -0.06200
C 	C 	0.89420 0.37420 0.46320 -0.00300
H 	H 	0.83620 0.32980 0.45820 0.04400
C 	C 	0.84720 0.43050 0.51480 -0.07900
H 	H 	0.75680 0.42550 0.54480 0.05800
C 	C 	0.93340 0.49560 0.52320 0.02400
C 	C 	0.07270 0.31990 0.36050 0.30800
C 	C 	0.03420 0.44390 0.20270 0.16100
H 	H 	0.09850 0.45510 0.22950 -0.03000
C 	C 	0.94810 0.51690 0.17920 -0.28100
H 	H 	0.94960 0.57660 0.19170 0.12300
C 	C 	0.85820 0.50580 0.13750 0.26900
C 	C 	0.85750 0.41790 0.12400 -0.27000
H 	H 	0.79610 0.40570 0.09610 0.12200
C 	C 	0.94810 0.34590 0.15170 0.14300
H 	H 	0.94690 0.28480 0.14170 -0.02700
C 	C 	0.76500 0.58680 0.10490 -0.44200
H 	H 	0.71340 0.62550 0.14120 0.15700
H 	H 	0.69440 0.56250 0.08540 0.15700
C 	C 	0.86220 0.64790 0.04440 0.37700
H 	H 	0.94250 0.66030 0.06360 -0.08100
H 	H 	0.90280 0.60910 0.00660 -0.08200
C 	C 	0.80820 0.72720 0.01550 -0.57400
H 	H 	0.74050 0.71340 0.98880 0.18400
H 	H 	0.88620 0.75510 0.98070 0.19000
C 	C 	0.73190 0.80210 0.05980 0.33800
C 	C 	0.77780 0.82420 0.11520 -0.32400
H 	H 	0.86060 0.79030 0.12870 0.14000
C 	C 	0.70590 0.89450 0.15120 0.18500
H 	H 	0.74170 0.90840 0.18890 -0.05700
C 	C 	0.54630 0.92180 0.08150 0.17800
H 	H 	0.46530 0.95780 0.06760 -0.03500
C 	C 	0.61090 0.85140 0.04500 -0.32800
H 	H 	0.57120 0.83670 0.00880 0.14300
Cd	Cd	0.53586 0.93707 0.80642 1.20800
Cd	Cd	0.83422 0.76838 0.75216 1.23100
O 	O 	0.72020 0.94430 0.85772 -0.44300
O 	O 	0.91530 0.85800 0.81028 -0.45400
O 	O 	0.46330 0.82190 0.89079 -0.44700
O 	O 	0.62540 0.73700 0.82357 -0.47700
O 	O 	0.70060 0.89720 0.70470 -0.51100
O 	O 	0.63970 0.04670 0.70911 -0.38200
O 	O 	0.00880 0.73290 0.64803 -0.36700
O 	O 	0.80620 0.67540 0.67570 -0.38800
N 	N 	0.96470 0.64200 0.80900 -0.25700
N 	N 	0.41040 0.05630 0.86381 -0.28100
C 	C 	0.84710 0.91240 0.85230 0.37700
C 	C 	0.92790 0.94000 0.90151 -0.09800
C 	C 	0.07130 0.90250 0.90120 0.01700
H 	H 	0.11980 0.86410 0.86690 0.02200
C 	C 	0.86020 0.99820 0.94940 -0.04500
H 	H 	0.76530 0.02460 0.94860 0.06000
C 	C 	0.92950 0.01980 0.99993 0.03100
C 	C 	0.13950 0.92140 0.94980 -0.10600
H 	H 	0.23450 0.89470 0.94980 0.06500
C 	C 	0.55660 0.49720 0.97070 0.01400
C 	C 	0.58150 0.57680 0.92080 -0.03400
H 	H 	0.65530 0.57270 0.88050 0.04400
C 	C 	0.49960 0.66090 0.93000 -0.10800
C 	C 	0.38830 0.66580 0.98840 0.01500
H 	H 	0.33180 0.72350 0.99470 0.03100
C 	C 	0.35920 0.58900 0.03670 -0.09500
H 	H 	0.28190 0.59370 0.07540 0.06000
C 	C 	0.53320 0.74550 0.87790 0.36700
C 	C 	0.95040 0.11600 0.53030 -0.08400
H 	H 	0.97430 0.17790 0.51630 0.06500
C 	C 	0.85110 0.09570 0.58990 0.01200
H 	H 	0.80500 0.14390 0.61660 0.03900
C 	C 	0.81660 0.00420 0.61208 -0.08400
C 	C 	0.88000 0.93600 0.57265 -0.04000
H 	H 	0.85450 0.87460 0.58730 0.04800
C 	C 	0.98250 0.95400 0.51056 0.02500
C 	C 	0.71240 0.98270 0.67930 0.32800
C 	C 	0.89000 0.55610 0.57620 -0.04400
H 	H 	0.80100 0.55170 0.60750 0.06100
C 	C 	0.97310 0.61870 0.58230 -0.06200
C 	C 	0.10580 0.62580 0.53680 -0.00300
H 	H 	0.16380 0.67020 0.54180 0.04400
C 	C 	0.15280 0.56950 0.48520 -0.07900
H 	H 	0.24320 0.57450 0.45520 0.05800
C 	C 	0.06660 0.50440 0.47680 0.02400
C 	C 	0.92730 0.68010 0.63950 0.30800
C 	C 	0.96580 0.55610 0.79730 0.16100
H 	H 	0.90150 0.54490 0.77050 -0.03000
C 	C 	0.05190 0.48310 0.82080 -0.28100
H 	H 	0.05040 0.42340 0.80830 0.12300
C 	C 	0.14180 0.49420 0.86250 0.26900
C 	C 	0.14250 0.58210 0.87600 -0.27000
H 	H 	0.20390 0.59430 0.90390 0.12200
C 	C 	0.05190 0.65410 0.84830 0.14300
H 	H 	0.05310 0.71520 0.85830 -0.02700
C 	C 	0.23500 0.41320 0.89510 -0.44200
H 	H 	0.28660 0.37450 0.85880 0.15700
H 	H 	0.30560 0.43750 0.91460 0.15700
C 	C 	0.13780 0.35210 0.95560 0.37700
H 	H 	0.05750 0.33970 0.93640 -0.08100
H 	H 	0.09720 0.39090 0.99340 -0.08200
C 	C 	0.19180 0.27280 0.98450 -0.57400
H 	H 	0.25950 0.28660 0.01120 0.18400
H 	H 	0.11380 0.24490 0.01930 0.19000
C 	C 	0.26810 0.19790 0.94020 0.33800
C 	C 	0.22220 0.17580 0.88480 -0.32400
H 	H 	0.13940 0.20970 0.87130 0.14000
C 	C 	0.29410 0.10550 0.84880 0.18500
H 	H 	0.25830 0.09160 0.81110 -0.05700
C 	C 	0.45370 0.07820 0.91850 0.17800
H 	H 	0.53470 0.04220 0.93240 -0.03500
C 	C 	0.38910 0.14860 0.95500 -0.32800
H 	H 	0.42880 0.16330 0.99120 0.14300
