data_crystal

_cell_length_a 6.80450
_cell_length_b 9.16480
_cell_length_c 14.82220
_cell_angle_alpha 103.79700
_cell_angle_beta  100.79200
_cell_angle_gamma 101.41500

_symmetry_space_group_name_	'P 1'
_symmetry_space_group_name_H-M	'P 1'

loop_
_symmetry_equiv_pos_as_xyz
  x,y,z

loop_
_atom_site_label
_atom_site_type_symbol
_atom_site_fract_x
_atom_site_fract_y
_atom_site_fract_z
_atom_site_charge
Mn	Mn	0.69570 0.44213 0.30432 1.25400
N 	N 	0.47260 0.22770 0.18880 -0.18500
O 	O 	0.46700 0.01250 0.35780 -0.52700
O 	O 	0.63360 0.25540 0.37380 -0.49400
O 	O 	0.14930 0.29620 0.66910 -0.43600
O 	O 	0.32430 0.43750 0.81260 -0.40200
O 	O 	0.02880 0.62090 0.71830 -0.43000
O 	O 	0.84890 0.71630 0.61640 -0.31500
C 	C 	0.51770 0.12560 0.32530 0.38400
C 	C 	0.43370 0.10120 0.22040 -0.13500
C 	C 	0.32380 0.95610 0.16060 0.08100
H 	H 	0.29740 0.87110 0.18460 0.02500
C 	C 	0.25400 0.94100 0.06400 -0.03000
H 	H 	0.17960 0.84470 0.02210 0.05100
C 	C 	0.29530 0.07080 0.02890 -0.02600
C 	C 	0.40520 0.20910 0.09530 0.00400
H 	H 	0.43470 0.29610 0.07340 0.03100
C 	C 	0.22430 0.05470 0.92550 -0.05500
C 	C 	0.13600 0.90980 0.85860 0.04500
H 	H 	0.12430 0.82150 0.87980 0.02700
C 	C 	0.06440 0.89150 0.76070 -0.05400
C 	C 	0.08510 0.02460 0.72880 -0.04500
H 	H 	0.03190 0.01610 0.66470 0.01500
C 	C 	0.18400 0.16770 0.79240 -0.07800
C 	C 	0.25010 0.18420 0.88880 -0.02000
H 	H 	0.31300 0.28280 0.93060 0.05200
C 	C 	0.97270 0.73370 0.69370 0.30800
C 	C 	0.22000 0.30920 0.75670 0.30100
Mn	Mn	0.30430 0.55787 0.69568 1.25300
N 	N 	0.52740 0.77230 0.81120 -0.19900
O 	O 	0.53300 0.98750 0.64220 -0.45200
O 	O 	0.36640 0.74460 0.62620 -0.47300
O 	O 	0.85070 0.70380 0.33090 -0.42400
O 	O 	0.67570 0.56250 0.18740 -0.40300
O 	O 	0.97120 0.37910 0.28170 -0.44100
O 	O 	0.15110 0.28370 0.38360 -0.34100
C 	C 	0.48230 0.87440 0.67470 0.34800
C 	C 	0.56630 0.89880 0.77960 0.00200
C 	C 	0.67620 0.04390 0.83940 -0.06200
H 	H 	0.70260 0.12890 0.81540 0.05000
C 	C 	0.74600 0.05900 0.93600 -0.11400
H 	H 	0.82040 0.15530 0.97790 0.06500
C 	C 	0.70470 0.92920 0.97110 0.05700
C 	C 	0.59480 0.79090 0.90470 -0.00200
H 	H 	0.56530 0.70390 0.92660 0.03100
C 	C 	0.77570 0.94530 0.07450 0.03900
C 	C 	0.86400 0.09020 0.14140 -0.05900
H 	H 	0.87570 0.17850 0.12020 0.05100
C 	C 	0.93560 0.10850 0.23930 -0.16900
C 	C 	0.91490 0.97540 0.27120 0.12400
H 	H 	0.96810 0.98390 0.33530 -0.00200
C 	C 	0.81600 0.83230 0.20760 -0.11000
C 	C 	0.74990 0.81580 0.11120 -0.01700
H 	H 	0.68700 0.71720 0.06940 0.05100
C 	C 	0.02730 0.26630 0.30630 0.35000
C 	C 	0.78000 0.69080 0.24330 0.32000
Mn	Mn	0.50000 -0.00000 0.50000 1.18100
