data_crystal

_cell_length_a 11.47990
_cell_length_b 11.47990
_cell_length_c 14.73500
_cell_angle_alpha 90.00000
_cell_angle_beta  90.00000
_cell_angle_gamma 120.00000

_symmetry_space_group_name_	'P 1'
_symmetry_space_group_name_H-M	'P 1'

loop_
_symmetry_equiv_pos_as_xyz
  x,y,z

loop_
_atom_site_label
_atom_site_type_symbol
_atom_site_fract_x
_atom_site_fract_y
_atom_site_fract_z
_atom_site_charge
Mg	Mg	0.80620 0.19381 0.75000 1.46800
Mg	Mg	0.38761 0.19381 0.41667 1.46800
Mg	Mg	0.80620 0.61240 0.08333 1.46800
Mg	Mg	0.19381 0.80620 0.25000 1.46800
Mg	Mg	0.61239 0.80619 0.91667 1.46800
Mg	Mg	0.19381 0.38761 0.58333 1.46800
H 	H 	0.79500 0.36250 0.98550 -0.00000
H 	H 	0.56750 0.20500 0.65217 -0.00000
H 	H 	0.63750 0.43250 0.31883 -0.00000
H 	H 	0.20500 0.63750 0.48550 -0.00000
H 	H 	0.43250 0.79500 0.15217 -0.00000
H 	H 	0.36250 0.56750 0.81883 -0.00000
H 	H 	0.43250 0.63750 0.68117 -0.00000
H 	H 	0.36250 0.79500 0.01450 -0.00000
H 	H 	0.20500 0.56750 0.34783 -0.00000
H 	H 	0.56750 0.36250 0.18117 -0.00000
H 	H 	0.63750 0.20500 0.51450 -0.00000
H 	H 	0.79500 0.43250 0.84783 -0.00000
H 	H 	0.50650 0.01300 0.08333 0.01000
H 	H 	0.50650 0.49350 0.75000 0.01000
H 	H 	0.98700 0.49350 0.41667 0.01000
H 	H 	0.49350 0.98700 0.58333 0.01000
H 	H 	0.49350 0.50650 0.25000 0.01000
H 	H 	0.01300 0.50650 0.91667 0.01000
C 	C 	0.68189 0.10240 0.94584 0.47700
C 	C 	0.65281 0.17632 0.01920 -0.20300
C 	C 	0.72283 0.31519 0.02474 0.12100
C 	C 	0.42051 0.31811 0.61251 0.47600
C 	C 	0.52351 0.34719 0.68587 -0.20300
C 	C 	0.59236 0.27717 0.69141 0.12100
C 	C 	0.89760 0.57949 0.27917 0.47600
C 	C 	0.82368 0.47649 0.35253 -0.20300
C 	C 	0.68481 0.40764 0.35807 0.12100
C 	C 	0.31811 0.89760 0.44584 0.47600
C 	C 	0.34719 0.82368 0.51920 -0.20300
C 	C 	0.27717 0.68481 0.52474 0.12100
C 	C 	0.57949 0.68189 0.11251 0.47600
C 	C 	0.47649 0.65281 0.18587 -0.20300
C 	C 	0.40764 0.72283 0.19141 0.12100
C 	C 	0.10240 0.42051 0.77917 0.47700
C 	C 	0.17632 0.52351 0.85253 -0.20300
C 	C 	0.31519 0.59236 0.85807 0.12100
C 	C 	0.57949 0.89760 0.72083 0.47600
C 	C 	0.47649 0.82368 0.64747 -0.20300
C 	C 	0.40764 0.68481 0.64193 0.12100
C 	C 	0.10240 0.68189 0.05416 0.47700
C 	C 	0.17632 0.65281 0.98080 -0.20300
C 	C 	0.31519 0.72283 0.97526 0.12100
C 	C 	0.31811 0.42051 0.38749 0.47600
C 	C 	0.34719 0.52351 0.31413 -0.20300
C 	C 	0.27717 0.59236 0.30859 0.12100
C 	C 	0.42051 0.10240 0.22083 0.47700
C 	C 	0.52351 0.17632 0.14747 -0.20300
C 	C 	0.59236 0.31519 0.14193 0.12100
C 	C 	0.89760 0.31811 0.55416 0.47600
C 	C 	0.82368 0.34719 0.48080 -0.20300
C 	C 	0.68481 0.27717 0.47526 0.12100
C 	C 	0.68189 0.57949 0.88749 0.47600
C 	C 	0.65281 0.47649 0.81413 -0.20300
C 	C 	0.72283 0.40764 0.80859 0.12100
C 	C 	0.55332 0.10664 0.08333 0.13300
C 	C 	0.55332 0.44668 0.75000 0.13300
C 	C 	0.89336 0.44668 0.41667 0.13300
C 	C 	0.44668 0.89336 0.58333 0.13300
C 	C 	0.44668 0.55332 0.25000 0.13300
C 	C 	0.10664 0.55332 0.91667 0.13300
N 	N 	0.69287 0.38574 0.08333 -0.24900
N 	N 	0.69287 0.30713 0.75000 -0.24900
N 	N 	0.61426 0.30713 0.41667 -0.24900
N 	N 	0.30713 0.61426 0.58333 -0.24900
N 	N 	0.30713 0.69287 0.25000 -0.24900
N 	N 	0.38574 0.69287 0.91667 -0.24900
O 	O 	0.77269 0.17205 0.89006 -0.53200
O 	O 	0.61110 0.97760 0.94688 -0.54400
O 	O 	0.39936 0.22731 0.55673 -0.53200
O 	O 	0.36650 0.38890 0.61355 -0.54300
O 	O 	0.82795 0.60064 0.22339 -0.53200
O 	O 	0.02240 0.63350 0.28021 -0.54300
O 	O 	0.22731 0.82795 0.39006 -0.53200
O 	O 	0.38890 0.02240 0.44688 -0.54300
O 	O 	0.60064 0.77269 0.05673 -0.53200
O 	O 	0.63350 0.61110 0.11355 -0.54300
O 	O 	0.17205 0.39936 0.72339 -0.53200
O 	O 	0.97760 0.36650 0.78021 -0.54400
O 	O 	0.60064 0.82795 0.77661 -0.53200
O 	O 	0.63350 0.02240 0.71979 -0.54300
O 	O 	0.17205 0.77269 0.10994 -0.53200
O 	O 	0.97760 0.61110 0.05312 -0.54400
O 	O 	0.22731 0.39936 0.44327 -0.53200
O 	O 	0.38890 0.36650 0.38645 -0.54300
O 	O 	0.39936 0.17205 0.27661 -0.53200
O 	O 	0.36650 0.97760 0.21979 -0.54400
O 	O 	0.82795 0.22731 0.60994 -0.53200
O 	O 	0.02240 0.38890 0.55312 -0.54300
O 	O 	0.77269 0.60064 0.94327 -0.53200
O 	O 	0.61110 0.63350 0.88645 -0.54300
