data_crystal

_cell_length_a 13.99700
_cell_length_b 20.10300
_cell_length_c 17.46000
_cell_angle_alpha 90.00000
_cell_angle_beta  100.20100
_cell_angle_gamma 90.00000

_symmetry_space_group_name_	'P 1'
_symmetry_space_group_name_H-M	'P 1'

loop_
_symmetry_equiv_pos_as_xyz
  x,y,z

loop_
_atom_site_label
_atom_site_type_symbol
_atom_site_fract_x
_atom_site_fract_y
_atom_site_fract_z
_atom_site_charge
Cd	Cd	0.13709 0.42065 0.92745 1.20600
N 	N 	0.13340 0.32980 0.84410 -0.23800
C 	C 	0.11730 0.33860 0.76700 0.07400
H 	H 	0.10930 0.38280 0.74750 -0.01500
C 	C 	0.11170 0.28720 0.71470 -0.14000
H 	H 	0.10050 0.29610 0.66040 0.07600
C 	C 	0.12240 0.22340 0.74070 0.08100
C 	C 	0.13900 0.21290 0.82080 -0.13400
H 	H 	0.14670 0.16910 0.84130 0.08200
C 	C 	0.14420 0.26660 0.87000 0.07300
H 	H 	0.15600 0.25890 0.92450 0.00700
O 	O 	0.11250 0.33540 0.02520 -0.37000
O 	O 	0.11320 0.44160 0.05350 -0.39200
O 	O 	0.12640 0.17090 0.23540 -0.46100
H 	H 	0.15130 0.13550 0.25530 0.26100
O 	O 	0.13940 0.20400 0.35820 -0.28700
O 	O 	0.16570 0.51480 0.32270 -0.40200
O 	O 	0.12930 0.45190 0.41430 -0.34900
C 	C 	0.11680 0.36510 0.15800 -0.11300
C 	C 	0.12430 0.41640 0.21150 0.05700
H 	H 	0.12440 0.46120 0.19420 0.03200
C 	C 	0.13170 0.40300 0.28960 -0.12100
C 	C 	0.12920 0.33790 0.31390 0.06500
H 	H 	0.13160 0.32880 0.36760 0.04000
C 	C 	0.12320 0.28510 0.26160 -0.12800
C 	C 	0.11700 0.30140 0.18110 0.06400
H 	H 	0.11290 0.26670 0.14360 0.04600
C 	C 	0.11230 0.38110 0.07240 0.32500
C 	C 	0.12800 0.21590 0.28970 0.39700
C 	C 	0.14270 0.45920 0.34580 0.32500
N 	N 	0.30280 0.58100 0.47920 -0.24700
C 	C 	0.60490 0.59090 0.57800 -0.23700
H 	H 	0.64300 0.58640 0.53520 0.10900
H 	H 	0.62660 0.55620 0.61700 0.10500
C 	C 	0.33730 0.54840 0.54280 0.14000
H 	H 	0.29280 0.52290 0.56580 -0.02100
C 	C 	0.42980 0.54800 0.57800 -0.23400
H 	H 	0.44890 0.52400 0.62500 0.11100
C 	C 	0.49760 0.58280 0.54550 0.19000
C 	C 	0.46510 0.61680 0.47900 -0.19600
H 	H 	0.51000 0.64140 0.45560 0.12100
C 	C 	0.36380 0.61680 0.44370 0.09100
H 	H 	0.34120 0.64090 0.39730 0.00400
Cd	Cd	0.13709 0.57935 0.42745 1.20800
N 	N 	0.13340 0.67020 0.34410 -0.23700
C 	C 	0.11730 0.66140 0.26700 0.07500
H 	H 	0.10930 0.61720 0.24750 -0.01300
C 	C 	0.11170 0.71280 0.21470 -0.13900
H 	H 	0.10050 0.70390 0.16040 0.07800
C 	C 	0.12240 0.77660 0.24070 0.08300
C 	C 	0.13900 0.78710 0.32080 -0.13300
H 	H 	0.14670 0.83090 0.34130 0.08200
C 	C 	0.14420 0.73340 0.37000 0.07400
H 	H 	0.15600 0.74110 0.42450 0.00800
O 	O 	0.11250 0.66460 0.52520 -0.37100
O 	O 	0.11320 0.55840 0.55350 -0.39300
O 	O 	0.12640 0.82910 0.73540 -0.46200
H 	H 	0.15130 0.86450 0.75530 0.26100
O 	O 	0.13940 0.79600 0.85820 -0.28800
O 	O 	0.16570 0.48520 0.82270 -0.40300
O 	O 	0.12930 0.54810 0.91430 -0.35000
C 	C 	0.11680 0.63490 0.65800 -0.11400
C 	C 	0.12430 0.58360 0.71150 0.05700
H 	H 	0.12440 0.53880 0.69420 0.03100
C 	C 	0.13170 0.59700 0.78960 -0.12200
C 	C 	0.12920 0.66210 0.81390 0.06500
H 	H 	0.13160 0.67120 0.86760 0.03900
C 	C 	0.12320 0.71490 0.76160 -0.12800
C 	C 	0.11700 0.69860 0.68110 0.06400
H 	H 	0.11290 0.73330 0.64360 0.04500
C 	C 	0.11230 0.61890 0.57240 0.32500
C 	C 	0.12800 0.78410 0.78970 0.39700
C 	C 	0.14270 0.54080 0.84580 0.32500
N 	N 	0.30280 0.41900 0.97920 -0.24800
C 	C 	0.60490 0.40910 0.07800 -0.23700
H 	H 	0.64300 0.41360 0.03520 0.10800
H 	H 	0.62660 0.44380 0.11700 0.10500
C 	C 	0.33730 0.45160 0.04280 0.14200
H 	H 	0.29280 0.47710 0.06580 -0.02200
C 	C 	0.42980 0.45200 0.07800 -0.23500
H 	H 	0.44890 0.47600 0.12500 0.11100
C 	C 	0.49760 0.41720 0.04550 0.19000
C 	C 	0.46510 0.38320 0.97900 -0.19600
H 	H 	0.51000 0.35860 0.95560 0.12100
C 	C 	0.36380 0.38320 0.94370 0.09200
H 	H 	0.34120 0.35910 0.89730 0.00400
N 	N 	0.80280 0.08100 0.47920 -0.24700
C 	C 	0.10490 0.09090 0.57800 -0.23800
H 	H 	0.14300 0.08640 0.53520 0.10900
H 	H 	0.12660 0.05620 0.61700 0.10500
C 	C 	0.83730 0.04840 0.54280 0.14100
H 	H 	0.79280 0.02290 0.56580 -0.02200
C 	C 	0.92980 0.04800 0.57800 -0.23500
H 	H 	0.94890 0.02400 0.62500 0.11100
C 	C 	0.99760 0.08280 0.54550 0.19100
C 	C 	0.96510 0.11680 0.47900 -0.19700
H 	H 	0.01000 0.14140 0.45560 0.12100
C 	C 	0.86380 0.11680 0.44370 0.09200
H 	H 	0.84120 0.14090 0.39730 0.00300
Cd	Cd	0.63709 0.92065 0.92745 1.20800
N 	N 	0.63340 0.82980 0.84410 -0.23700
C 	C 	0.61730 0.83860 0.76700 0.07500
H 	H 	0.60930 0.88280 0.74750 -0.01400
C 	C 	0.61170 0.78720 0.71470 -0.13800
H 	H 	0.60050 0.79610 0.66040 0.07700
C 	C 	0.62240 0.72340 0.74070 0.08200
C 	C 	0.63900 0.71290 0.82080 -0.13300
H 	H 	0.64670 0.66910 0.84130 0.08200
C 	C 	0.64420 0.76660 0.87000 0.07400
H 	H 	0.65600 0.75890 0.92450 0.00800
O 	O 	0.61250 0.83540 0.02520 -0.37100
O 	O 	0.61320 0.94160 0.05350 -0.39300
O 	O 	0.62640 0.67090 0.23540 -0.46100
H 	H 	0.65130 0.63550 0.25530 0.26100
O 	O 	0.63940 0.70400 0.35820 -0.28700
O 	O 	0.66570 0.01480 0.32270 -0.40300
O 	O 	0.62930 0.95190 0.41430 -0.35000
C 	C 	0.61680 0.86510 0.15800 -0.11400
C 	C 	0.62430 0.91640 0.21150 0.05700
H 	H 	0.62440 0.96120 0.19420 0.03100
C 	C 	0.63170 0.90300 0.28960 -0.12200
C 	C 	0.62920 0.83790 0.31390 0.06500
H 	H 	0.63160 0.82880 0.36760 0.04000
C 	C 	0.62320 0.78510 0.26160 -0.12800
C 	C 	0.61700 0.80140 0.18110 0.06400
H 	H 	0.61290 0.76670 0.14360 0.04500
C 	C 	0.61230 0.88110 0.07240 0.32500
C 	C 	0.62800 0.71590 0.28970 0.39700
C 	C 	0.64270 0.95920 0.34580 0.32600
N 	N 	0.80280 0.91900 0.97920 -0.24500
C 	C 	0.10490 0.90910 0.07800 -0.22900
H 	H 	0.14300 0.91360 0.03520 0.10700
H 	H 	0.12660 0.94380 0.11700 0.10300
C 	C 	0.83730 0.95160 0.04280 0.13400
H 	H 	0.79280 0.97710 0.06580 -0.02000
C 	C 	0.92980 0.95200 0.07800 -0.22700
H 	H 	0.94890 0.97600 0.12500 0.10800
C 	C 	0.99760 0.91720 0.04550 0.17800
C 	C 	0.96510 0.88320 0.97900 -0.18200
H 	H 	0.01000 0.85860 0.95560 0.11400
C 	C 	0.86380 0.88320 0.94370 0.08600
H 	H 	0.84120 0.85910 0.89730 0.00600
Cd	Cd	0.63709 0.07935 0.42745 1.20800
N 	N 	0.63340 0.17020 0.34410 -0.23700
C 	C 	0.61730 0.16140 0.26700 0.07500
H 	H 	0.60930 0.11720 0.24750 -0.01400
C 	C 	0.61170 0.21280 0.21470 -0.13800
H 	H 	0.60050 0.20390 0.16040 0.07700
C 	C 	0.62240 0.27660 0.24070 0.08200
C 	C 	0.63900 0.28710 0.32080 -0.13300
H 	H 	0.64670 0.33090 0.34130 0.08200
C 	C 	0.64420 0.23340 0.37000 0.07400
H 	H 	0.65600 0.24110 0.42450 0.00800
O 	O 	0.61250 0.16460 0.52520 -0.37100
O 	O 	0.61320 0.05840 0.55350 -0.39300
O 	O 	0.62640 0.32910 0.73540 -0.46100
H 	H 	0.65130 0.36450 0.75530 0.26100
O 	O 	0.63940 0.29600 0.85820 -0.28700
O 	O 	0.66570 0.98520 0.82270 -0.40300
O 	O 	0.62930 0.04810 0.91430 -0.34900
C 	C 	0.61680 0.13490 0.65800 -0.11400
C 	C 	0.62430 0.08360 0.71150 0.05700
H 	H 	0.62440 0.03880 0.69420 0.03100
C 	C 	0.63170 0.09700 0.78960 -0.12200
C 	C 	0.62920 0.16210 0.81390 0.06500
H 	H 	0.63160 0.17120 0.86760 0.04000
C 	C 	0.62320 0.21490 0.76160 -0.12800
C 	C 	0.61700 0.19860 0.68110 0.06400
H 	H 	0.61290 0.23330 0.64360 0.04500
C 	C 	0.61230 0.11890 0.57240 0.32500
C 	C 	0.62800 0.28410 0.78970 0.39700
C 	C 	0.64270 0.04080 0.84580 0.32600
Cd	Cd	0.86291 0.42065 0.57255 1.20800
N 	N 	0.86660 0.32980 0.65590 -0.23700
C 	C 	0.88270 0.33860 0.73300 0.07500
H 	H 	0.89070 0.38280 0.75250 -0.01300
C 	C 	0.88830 0.28720 0.78530 -0.13900
H 	H 	0.89950 0.29610 0.83960 0.07800
C 	C 	0.87760 0.22340 0.75930 0.08300
C 	C 	0.86100 0.21290 0.67920 -0.13300
H 	H 	0.85330 0.16910 0.65870 0.08200
C 	C 	0.85580 0.26660 0.63000 0.07400
H 	H 	0.84400 0.25890 0.57550 0.00800
O 	O 	0.88750 0.33540 0.47480 -0.37100
O 	O 	0.88680 0.44160 0.44650 -0.39300
O 	O 	0.87360 0.17090 0.26460 -0.46200
H 	H 	0.84870 0.13550 0.24470 0.26100
O 	O 	0.86060 0.20400 0.14180 -0.28800
O 	O 	0.83430 0.51480 0.17730 -0.40300
O 	O 	0.87070 0.45190 0.08570 -0.35000
C 	C 	0.88320 0.36510 0.34200 -0.11400
C 	C 	0.87570 0.41640 0.28850 0.05700
H 	H 	0.87560 0.46120 0.30580 0.03100
C 	C 	0.86830 0.40300 0.21040 -0.12200
C 	C 	0.87080 0.33790 0.18610 0.06500
H 	H 	0.86840 0.32880 0.13240 0.03900
C 	C 	0.87680 0.28510 0.23840 -0.12800
C 	C 	0.88300 0.30140 0.31890 0.06400
H 	H 	0.88710 0.26670 0.35640 0.04500
C 	C 	0.88770 0.38110 0.42760 0.32500
C 	C 	0.87200 0.21590 0.21030 0.39700
C 	C 	0.85730 0.45920 0.15420 0.32500
N 	N 	0.69720 0.58100 0.02080 -0.24800
C 	C 	0.39510 0.59090 0.92200 -0.23700
H 	H 	0.35700 0.58640 0.96480 0.10800
H 	H 	0.37340 0.55620 0.88300 0.10500
C 	C 	0.66270 0.54840 0.95720 0.14200
H 	H 	0.70720 0.52290 0.93420 -0.02200
C 	C 	0.57020 0.54800 0.92200 -0.23500
H 	H 	0.55110 0.52400 0.87500 0.11100
C 	C 	0.50240 0.58280 0.95450 0.19000
C 	C 	0.53490 0.61680 0.02100 -0.19600
H 	H 	0.49000 0.64140 0.04440 0.12100
C 	C 	0.63620 0.61680 0.05630 0.09200
H 	H 	0.65880 0.64090 0.10270 0.00400
Cd	Cd	0.86291 0.57935 0.07255 1.20700
N 	N 	0.86660 0.67020 0.15590 -0.23700
C 	C 	0.88270 0.66140 0.23300 0.07500
H 	H 	0.89070 0.61720 0.25250 -0.01400
C 	C 	0.88830 0.71280 0.28530 -0.13900
H 	H 	0.89950 0.70390 0.33960 0.07700
C 	C 	0.87760 0.77660 0.25930 0.08200
C 	C 	0.86100 0.78710 0.17920 -0.13300
H 	H 	0.85330 0.83090 0.15870 0.08200
C 	C 	0.85580 0.73340 0.13000 0.07300
H 	H 	0.84400 0.74110 0.07550 0.00700
O 	O 	0.88750 0.66460 0.97480 -0.37000
O 	O 	0.88680 0.55840 0.94650 -0.39200
O 	O 	0.87360 0.82910 0.76460 -0.46100
H 	H 	0.84870 0.86450 0.74470 0.26100
O 	O 	0.86060 0.79600 0.64180 -0.28700
O 	O 	0.83430 0.48520 0.67730 -0.40200
O 	O 	0.87070 0.54810 0.58570 -0.34900
C 	C 	0.88320 0.63490 0.84200 -0.11300
C 	C 	0.87570 0.58360 0.78850 0.05700
H 	H 	0.87560 0.53880 0.80580 0.03200
C 	C 	0.86830 0.59700 0.71040 -0.12100
C 	C 	0.87080 0.66210 0.68610 0.06500
H 	H 	0.86840 0.67120 0.63240 0.04000
C 	C 	0.87680 0.71490 0.73840 -0.12800
C 	C 	0.88300 0.69860 0.81890 0.06400
H 	H 	0.88710 0.73330 0.85640 0.04600
C 	C 	0.88770 0.61890 0.92760 0.32500
C 	C 	0.87200 0.78410 0.71030 0.39700
C 	C 	0.85730 0.54080 0.65420 0.32500
N 	N 	0.69720 0.41900 0.52080 -0.24700
C 	C 	0.39510 0.40910 0.42200 -0.23700
H 	H 	0.35700 0.41360 0.46480 0.10900
H 	H 	0.37340 0.44380 0.38300 0.10500
C 	C 	0.66270 0.45160 0.45720 0.14000
H 	H 	0.70720 0.47710 0.43420 -0.02100
C 	C 	0.57020 0.45200 0.42200 -0.23400
H 	H 	0.55110 0.47600 0.37500 0.11100
C 	C 	0.50240 0.41720 0.45450 0.19000
C 	C 	0.53490 0.38320 0.52100 -0.19600
H 	H 	0.49000 0.35860 0.54440 0.12100
C 	C 	0.63620 0.38320 0.55630 0.09100
H 	H 	0.65880 0.35910 0.60270 0.00400
N 	N 	0.19720 0.08100 0.02080 -0.24500
C 	C 	0.89510 0.09090 0.92200 -0.22900
H 	H 	0.85700 0.08640 0.96480 0.10700
H 	H 	0.87340 0.05620 0.88300 0.10300
C 	C 	0.16270 0.04840 0.95720 0.13400
H 	H 	0.20720 0.02290 0.93420 -0.02000
C 	C 	0.07020 0.04800 0.92200 -0.22700
H 	H 	0.05110 0.02400 0.87500 0.10800
C 	C 	0.00240 0.08280 0.95450 0.17800
C 	C 	0.03490 0.11680 0.02100 -0.18200
H 	H 	0.99000 0.14140 0.04440 0.11400
C 	C 	0.13620 0.11680 0.05630 0.08600
H 	H 	0.15880 0.14090 0.10270 0.00600
Cd	Cd	0.36291 0.92065 0.57255 1.20800
N 	N 	0.36660 0.82980 0.65590 -0.23700
C 	C 	0.38270 0.83860 0.73300 0.07500
H 	H 	0.39070 0.88280 0.75250 -0.01400
C 	C 	0.38830 0.78720 0.78530 -0.13800
H 	H 	0.39950 0.79610 0.83960 0.07700
C 	C 	0.37760 0.72340 0.75930 0.08200
C 	C 	0.36100 0.71290 0.67920 -0.13300
H 	H 	0.35330 0.66910 0.65870 0.08200
C 	C 	0.35580 0.76660 0.63000 0.07400
H 	H 	0.34400 0.75890 0.57550 0.00800
O 	O 	0.38750 0.83540 0.47480 -0.37100
O 	O 	0.38680 0.94160 0.44650 -0.39300
O 	O 	0.37360 0.67090 0.26460 -0.46100
H 	H 	0.34870 0.63550 0.24470 0.26100
O 	O 	0.36060 0.70400 0.14180 -0.28700
O 	O 	0.33430 0.01480 0.17730 -0.40300
O 	O 	0.37070 0.95190 0.08570 -0.34900
C 	C 	0.38320 0.86510 0.34200 -0.11400
C 	C 	0.37570 0.91640 0.28850 0.05700
H 	H 	0.37560 0.96120 0.30580 0.03100
C 	C 	0.36830 0.90300 0.21040 -0.12200
C 	C 	0.37080 0.83790 0.18610 0.06500
H 	H 	0.36840 0.82880 0.13240 0.04000
C 	C 	0.37680 0.78510 0.23840 -0.12800
C 	C 	0.38300 0.80140 0.31890 0.06400
H 	H 	0.38710 0.76670 0.35640 0.04500
C 	C 	0.38770 0.88110 0.42760 0.32500
C 	C 	0.37200 0.71590 0.21030 0.39700
C 	C 	0.35730 0.95920 0.15420 0.32600
N 	N 	0.19720 0.91900 0.52080 -0.24700
C 	C 	0.89510 0.90910 0.42200 -0.23800
H 	H 	0.85700 0.91360 0.46480 0.10900
H 	H 	0.87340 0.94380 0.38300 0.10500
C 	C 	0.16270 0.95160 0.45720 0.14100
H 	H 	0.20720 0.97710 0.43420 -0.02200
C 	C 	0.07020 0.95200 0.42200 -0.23500
H 	H 	0.05110 0.97600 0.37500 0.11100
C 	C 	0.00240 0.91720 0.45450 0.19100
C 	C 	0.03490 0.88320 0.52100 -0.19700
H 	H 	0.99000 0.85860 0.54440 0.12100
C 	C 	0.13620 0.88320 0.55630 0.09200
H 	H 	0.15880 0.85910 0.60270 0.00300
Cd	Cd	0.36291 0.07935 0.07255 1.20800
N 	N 	0.36660 0.17020 0.15590 -0.23700
C 	C 	0.38270 0.16140 0.23300 0.07500
H 	H 	0.39070 0.11720 0.25250 -0.01400
C 	C 	0.38830 0.21280 0.28530 -0.13800
H 	H 	0.39950 0.20390 0.33960 0.07700
C 	C 	0.37760 0.27660 0.25930 0.08200
C 	C 	0.36100 0.28710 0.17920 -0.13300
H 	H 	0.35330 0.33090 0.15870 0.08200
C 	C 	0.35580 0.23340 0.13000 0.07400
H 	H 	0.34400 0.24110 0.07550 0.00800
O 	O 	0.38750 0.16460 0.97480 -0.37100
O 	O 	0.38680 0.05840 0.94650 -0.39300
O 	O 	0.37360 0.32910 0.76460 -0.46100
H 	H 	0.34870 0.36450 0.74470 0.26100
O 	O 	0.36060 0.29600 0.64180 -0.28700
O 	O 	0.33430 0.98520 0.67730 -0.40300
O 	O 	0.37070 0.04810 0.58570 -0.35000
C 	C 	0.38320 0.13490 0.84200 -0.11400
C 	C 	0.37570 0.08360 0.78850 0.05700
H 	H 	0.37560 0.03880 0.80580 0.03100
C 	C 	0.36830 0.09700 0.71040 -0.12200
C 	C 	0.37080 0.16210 0.68610 0.06500
H 	H 	0.36840 0.17120 0.63240 0.04000
C 	C 	0.37680 0.21490 0.73840 -0.12800
C 	C 	0.38300 0.19860 0.81890 0.06400
H 	H 	0.38710 0.23330 0.85640 0.04500
C 	C 	0.38770 0.11890 0.92760 0.32500
C 	C 	0.37200 0.28410 0.71030 0.39700
C 	C 	0.35730 0.04080 0.65420 0.32600
