data_crystal

_cell_length_a 7.31400
_cell_length_b 12.75800
_cell_length_c 15.33200
_cell_angle_alpha 90.00000
_cell_angle_beta  90.00000
_cell_angle_gamma 94.50000

_symmetry_space_group_name_	'P 1'
_symmetry_space_group_name_H-M	'P 1'

loop_
_symmetry_equiv_pos_as_xyz
  x,y,z

loop_
_atom_site_label
_atom_site_type_symbol
_atom_site_fract_x
_atom_site_fract_y
_atom_site_fract_z
_atom_site_charge
Cu	Cu	0.73207 0.35771 0.87975 0.85500
Cu	Cu	0.26793 0.14229 0.37975 0.85500
Cu	Cu	0.26793 0.64229 0.12025 0.85600
Cu	Cu	0.73207 0.85771 0.62025 0.85600
H 	H 	0.91420 0.40500 0.58330 0.15700
H 	H 	0.83900 0.42310 0.48940 0.15400
H 	H 	0.74550 0.59020 0.58250 0.33300
H 	H 	0.75490 0.53860 0.67510 0.32200
H 	H 	0.56710 0.57130 0.63890 0.34000
H 	H 	0.08580 0.09500 0.08330 0.15600
H 	H 	0.16100 0.07690 0.98940 0.15300
H 	H 	0.25450 0.90980 0.08250 0.33400
H 	H 	0.24510 0.96140 0.17510 0.32200
H 	H 	0.43290 0.92870 0.13890 0.34000
H 	H 	0.08580 0.59500 0.41670 0.15700
H 	H 	0.16100 0.57690 0.51060 0.15400
H 	H 	0.25450 0.40980 0.41750 0.33300
H 	H 	0.24510 0.46140 0.32490 0.32200
H 	H 	0.43290 0.42870 0.36110 0.34000
H 	H 	0.91420 0.90500 0.91670 0.15600
H 	H 	0.83900 0.92310 0.01060 0.15300
H 	H 	0.74550 0.09020 0.91750 0.33400
H 	H 	0.75490 0.03860 0.82490 0.32200
H 	H 	0.56710 0.07130 0.86110 0.34000
C 	C 	0.76850 0.20970 0.61630 -0.14400
C 	C 	0.78290 0.26970 0.53110 0.08600
C 	C 	0.75950 0.26020 0.69590 0.12000
C 	C 	0.75630 0.10130 0.61550 0.10600
C 	C 	0.61920 0.23890 0.47680 0.05900
C 	C 	0.94240 0.23520 0.48220 0.03600
C 	C 	0.81000 0.38970 0.54500 -0.47500
C 	C 	0.64510 0.43730 0.58360 0.53900
C 	C 	0.68140 0.54390 0.62360 -1.06300
C 	C 	0.23150 0.29030 0.11630 -0.14500
C 	C 	0.21710 0.23030 0.03110 0.08700
C 	C 	0.24050 0.23980 0.19590 0.11900
C 	C 	0.24370 0.39870 0.11550 0.10600
C 	C 	0.38080 0.26110 0.97680 0.05900
C 	C 	0.05760 0.26480 0.98220 0.03300
C 	C 	0.19000 0.11030 0.04500 -0.47400
C 	C 	0.35490 0.06270 0.08360 0.53800
C 	C 	0.31860 0.95610 0.12360 -1.06100
C 	C 	0.23150 0.79030 0.38370 -0.14400
C 	C 	0.21710 0.73030 0.46890 0.08600
C 	C 	0.24050 0.73980 0.30410 0.12000
C 	C 	0.24370 0.89870 0.38450 0.10600
C 	C 	0.38080 0.76110 0.52320 0.05900
C 	C 	0.05760 0.76480 0.51780 0.03600
C 	C 	0.19000 0.61030 0.45500 -0.47500
C 	C 	0.35490 0.56270 0.41640 0.53900
C 	C 	0.31860 0.45610 0.37640 -1.06300
C 	C 	0.76850 0.70970 0.88370 -0.14500
C 	C 	0.78290 0.76970 0.96890 0.08700
C 	C 	0.75950 0.76020 0.80410 0.11900
C 	C 	0.75630 0.60130 0.88450 0.10600
C 	C 	0.61920 0.73890 0.02320 0.05900
C 	C 	0.94240 0.73520 0.01780 0.03300
C 	C 	0.81000 0.88970 0.95500 -0.47400
C 	C 	0.64510 0.93730 0.91640 0.53800
C 	C 	0.68140 0.04390 0.87640 -1.06100
N 	N 	0.75090 0.30150 0.76200 -0.28200
N 	N 	0.74930 0.00990 0.61420 -0.28100
N 	N 	0.49860 0.20500 0.43630 -0.24800
N 	N 	0.06510 0.20410 0.44910 -0.24600
N 	N 	0.24910 0.19850 0.26200 -0.28300
N 	N 	0.25070 0.49010 0.11420 -0.28100
N 	N 	0.50140 0.29500 0.93630 -0.24800
N 	N 	0.93490 0.29590 0.94910 -0.24300
N 	N 	0.24910 0.69850 0.23800 -0.28200
N 	N 	0.25070 0.99010 0.38580 -0.28100
N 	N 	0.50140 0.79500 0.56370 -0.24800
N 	N 	0.93490 0.79590 0.55090 -0.24600
N 	N 	0.75090 0.80150 0.73800 -0.28300
N 	N 	0.74930 0.50990 0.88580 -0.28100
N 	N 	0.49860 0.70500 0.06370 -0.24800
N 	N 	0.06510 0.70410 0.05090 -0.24300
O 	O 	0.49580 0.39160 0.58070 -0.36800
O 	O 	0.50420 0.10840 0.08070 -0.36800
O 	O 	0.50420 0.60840 0.41930 -0.36800
O 	O 	0.49580 0.89160 0.91930 -0.36800
