data_crystal

_cell_length_a 9.12670
_cell_length_b 15.36100
_cell_length_c 17.61000
_cell_angle_alpha 90.00000
_cell_angle_beta  90.00000
_cell_angle_gamma 93.06000

_symmetry_space_group_name_	'P 1'
_symmetry_space_group_name_H-M	'P 1'

loop_
_symmetry_equiv_pos_as_xyz
  x,y,z

loop_
_atom_site_label
_atom_site_type_symbol
_atom_site_fract_x
_atom_site_fract_y
_atom_site_fract_z
_atom_site_charge
V 	V 	0.07003 0.66758 0.98824 1.70800
V 	V 	0.92997 0.83242 0.48824 1.71200
V 	V 	0.92997 0.33242 0.01176 1.70800
V 	V 	0.07003 0.16758 0.51176 1.71200
Cd	Cd	0.17945 0.36591 0.75685 1.18000
Cd	Cd	0.82055 0.13409 0.25685 1.18000
Cd	Cd	0.82055 0.63409 0.24315 1.18000
Cd	Cd	0.17945 0.86591 0.74315 1.18000
P 	P 	0.04823 0.49277 0.89530 0.44200
P 	P 	0.95177 0.00723 0.39530 0.45300
P 	P 	0.95177 0.50723 0.10470 0.44200
P 	P 	0.04823 0.99277 0.60470 0.45300
H 	H 	0.21740 0.47110 0.99450 0.07700
H 	H 	0.29960 0.46820 0.91400 0.07400
H 	H 	0.30930 0.58830 0.83880 0.13700
H 	H 	0.43840 0.64080 0.88350 0.13600
H 	H 	0.48310 0.60590 0.99500 0.11700
H 	H 	0.36800 0.56040 0.05330 0.12300
H 	H 	0.52190 0.39060 0.80770 -0.01300
H 	H 	0.72150 0.49030 0.80350 0.08300
H 	H 	0.48450 0.64230 0.66680 0.09200
H 	H 	0.29390 0.53600 0.67290 -0.03700
H 	H 	0.10310 0.66490 0.72070 -0.01600
H 	H 	0.91200 0.55940 0.72420 0.06400
H 	H 	0.62920 0.75280 0.74350 0.07500
H 	H 	0.82910 0.85250 0.74220 -0.01300
H 	H 	0.78260 0.02890 0.49450 0.08100
H 	H 	0.70040 0.03180 0.41400 0.07400
H 	H 	0.69070 0.91170 0.33880 0.13700
H 	H 	0.56160 0.85920 0.38350 0.13500
H 	H 	0.51690 0.89410 0.49500 0.12100
H 	H 	0.63200 0.93960 0.55330 0.12400
H 	H 	0.47810 0.10940 0.30770 -0.01100
H 	H 	0.27850 0.00970 0.30350 0.07900
H 	H 	0.51550 0.85770 0.16680 0.09200
H 	H 	0.70610 0.96400 0.17290 -0.03700
H 	H 	0.89690 0.83510 0.22070 -0.01500
H 	H 	0.08800 0.94060 0.22420 0.06400
H 	H 	0.37080 0.74720 0.24350 0.07500
H 	H 	0.17090 0.64750 0.24220 -0.01300
H 	H 	0.78260 0.52890 0.00550 0.07700
H 	H 	0.70040 0.53180 0.08600 0.07400
H 	H 	0.69070 0.41170 0.16120 0.13700
H 	H 	0.56160 0.35920 0.11650 0.13600
H 	H 	0.51690 0.39410 0.00500 0.11700
H 	H 	0.63200 0.43960 0.94670 0.12300
H 	H 	0.47810 0.60940 0.19230 -0.01300
H 	H 	0.27850 0.50970 0.19650 0.08300
H 	H 	0.51550 0.35770 0.33320 0.09200
H 	H 	0.70610 0.46400 0.32710 -0.03700
H 	H 	0.89690 0.33510 0.27930 -0.01600
H 	H 	0.08800 0.44060 0.27580 0.06400
H 	H 	0.37080 0.24720 0.25650 0.07500
H 	H 	0.17090 0.14750 0.25780 -0.01300
H 	H 	0.21740 0.97110 0.50550 0.08100
H 	H 	0.29960 0.96820 0.58600 0.07400
H 	H 	0.30930 0.08830 0.66120 0.13700
H 	H 	0.43840 0.14080 0.61650 0.13500
H 	H 	0.48310 0.10590 0.50500 0.12100
H 	H 	0.36800 0.06040 0.44670 0.12400
H 	H 	0.52190 0.89060 0.69230 -0.01100
H 	H 	0.72150 0.99030 0.69650 0.07900
H 	H 	0.48450 0.14230 0.83320 0.09200
H 	H 	0.29390 0.03600 0.82710 -0.03700
H 	H 	0.10310 0.16490 0.77930 -0.01500
H 	H 	0.91200 0.05940 0.77580 0.06400
H 	H 	0.62920 0.25280 0.75650 0.07500
H 	H 	0.82910 0.35250 0.75780 -0.01300
C 	C 	0.22670 0.49910 0.94400 -0.28000
C 	C 	0.33060 0.63070 0.88020 -0.35400
C 	C 	0.26320 0.71590 0.86030 0.44100
C 	C 	0.38200 0.60750 0.01510 -0.33200
C 	C 	0.36200 0.69530 0.05300 0.41600
C 	C 	0.51470 0.44240 0.77880 0.06600
C 	C 	0.63410 0.50160 0.77680 -0.14600
C 	C 	0.62470 0.57810 0.73510 0.06300
C 	C 	0.49500 0.59100 0.69600 -0.14600
C 	C 	0.38140 0.52750 0.70050 0.07200
C 	C 	0.00550 0.68270 0.72600 0.03600
C 	C 	0.89210 0.61930 0.72730 -0.10400
C 	C 	0.74910 0.64440 0.73330 0.03800
C 	C 	0.72580 0.73320 0.73910 -0.11300
C 	C 	0.84550 0.79210 0.73820 0.05200
C 	C 	0.77330 0.00090 0.44400 -0.28300
C 	C 	0.66940 0.86930 0.38020 -0.35300
C 	C 	0.73680 0.78410 0.36030 0.44100
C 	C 	0.61800 0.89250 0.51510 -0.34100
C 	C 	0.63800 0.80470 0.55300 0.41800
C 	C 	0.48530 0.05760 0.27880 0.06000
C 	C 	0.36590 0.99840 0.27680 -0.13800
C 	C 	0.37530 0.92190 0.23510 0.06100
C 	C 	0.50500 0.90900 0.19600 -0.14500
C 	C 	0.61860 0.97250 0.20050 0.07300
C 	C 	0.99450 0.81730 0.22600 0.03100
C 	C 	0.10790 0.88070 0.22730 -0.10000
C 	C 	0.25090 0.85560 0.23330 0.03700
C 	C 	0.27420 0.76680 0.23910 -0.11200
C 	C 	0.15450 0.70790 0.23820 0.05100
C 	C 	0.77330 0.50090 0.05600 -0.28000
C 	C 	0.66940 0.36930 0.11980 -0.35400
C 	C 	0.73680 0.28410 0.13970 0.44100
C 	C 	0.61800 0.39250 0.98490 -0.33200
C 	C 	0.63800 0.30470 0.94700 0.41600
C 	C 	0.48530 0.55760 0.22120 0.06600
C 	C 	0.36590 0.49840 0.22320 -0.14600
C 	C 	0.37530 0.42190 0.26490 0.06300
C 	C 	0.50500 0.40900 0.30400 -0.14600
C 	C 	0.61860 0.47250 0.29950 0.07200
C 	C 	0.99450 0.31730 0.27400 0.03600
C 	C 	0.10790 0.38070 0.27270 -0.10400
C 	C 	0.25090 0.35560 0.26670 0.03800
C 	C 	0.27420 0.26680 0.26090 -0.11300
C 	C 	0.15450 0.20790 0.26180 0.05200
C 	C 	0.22670 0.99910 0.55600 -0.28300
C 	C 	0.33060 0.13070 0.61980 -0.35300
C 	C 	0.26320 0.21590 0.63970 0.44100
C 	C 	0.38200 0.10750 0.48490 -0.34100
C 	C 	0.36200 0.19530 0.44700 0.41800
C 	C 	0.51470 0.94240 0.72120 0.06000
C 	C 	0.63410 0.00160 0.72320 -0.13800
C 	C 	0.62470 0.07810 0.76490 0.06100
C 	C 	0.49500 0.09100 0.80400 -0.14500
C 	C 	0.38140 0.02750 0.79950 0.07300
C 	C 	0.00550 0.18270 0.77400 0.03100
C 	C 	0.89210 0.11930 0.77270 -0.10000
C 	C 	0.74910 0.14440 0.76670 0.03700
C 	C 	0.72580 0.23320 0.76090 -0.11200
C 	C 	0.84550 0.29210 0.76180 0.05100
N 	N 	0.27580 0.59255 0.95268 -0.09400
N 	N 	0.38920 0.45480 0.74179 -0.25100
N 	N 	0.98400 0.76780 0.73190 -0.25200
N 	N 	0.72420 0.90745 0.45268 -0.09000
N 	N 	0.61080 0.04520 0.24179 -0.25200
N 	N 	0.01600 0.73220 0.23190 -0.25000
N 	N 	0.72420 0.40745 0.04732 -0.09400
N 	N 	0.61080 0.54520 0.25821 -0.25100
N 	N 	0.01600 0.23220 0.26810 -0.25200
N 	N 	0.27580 0.09255 0.54732 -0.09000
N 	N 	0.38920 0.95480 0.75821 -0.25200
N 	N 	0.98400 0.26780 0.76810 -0.25000
O 	O 	0.07100 0.47850 0.81133 -0.43200
O 	O 	0.95090 0.41920 0.93022 -0.53700
O 	O 	0.98540 0.58208 0.91232 -0.49100
O 	O 	0.15490 0.73909 0.90003 -0.58000
O 	O 	0.31330 0.75765 0.80440 -0.45100
O 	O 	0.23580 0.72609 0.04750 -0.52600
O 	O 	0.46630 0.73080 0.08834 -0.32300
O 	O 	0.92900 0.02150 0.31133 -0.43300
O 	O 	0.04910 0.08080 0.43022 -0.54600
O 	O 	0.01460 0.91792 0.41232 -0.49800
O 	O 	0.84510 0.76091 0.40003 -0.57700
O 	O 	0.68670 0.74235 0.30440 -0.45100
O 	O 	0.76420 0.77391 0.54750 -0.53100
O 	O 	0.53370 0.76920 0.58834 -0.32400
O 	O 	0.92900 0.52150 0.18867 -0.43200
O 	O 	0.04910 0.58080 0.06978 -0.53700
O 	O 	0.01460 0.41792 0.08768 -0.49100
O 	O 	0.84510 0.26091 0.09997 -0.58000
O 	O 	0.68670 0.24235 0.19560 -0.45100
O 	O 	0.76420 0.27391 0.95250 -0.52600
O 	O 	0.53370 0.26920 0.91166 -0.32300
O 	O 	0.07100 0.97850 0.68867 -0.43300
O 	O 	0.95090 0.91920 0.56978 -0.54600
O 	O 	0.98540 0.08208 0.58768 -0.49800
O 	O 	0.15490 0.23909 0.59997 -0.57700
O 	O 	0.31330 0.25765 0.69560 -0.45100
O 	O 	0.23580 0.22609 0.45250 -0.53100
O 	O 	0.46630 0.23080 0.41166 -0.32400
