data_crystal

_cell_length_a 8.67360
_cell_length_b 9.78130
_cell_length_c 22.79640
_cell_angle_alpha 90.00000
_cell_angle_beta  90.00000
_cell_angle_gamma 90.00000

_symmetry_space_group_name_	'P 1'
_symmetry_space_group_name_H-M	'P 1'

loop_
_symmetry_equiv_pos_as_xyz
  x,y,z

loop_
_atom_site_label
_atom_site_type_symbol
_atom_site_fract_x
_atom_site_fract_y
_atom_site_fract_z
_atom_site_charge
Y 	Y 	0.04000 0.85910 0.74424 2.38300
P 	P 	0.98140 0.11020 0.87020 0.50200
P 	P 	0.30470 0.13990 0.72040 0.49400
P 	P 	0.78150 0.09900 0.66630 0.48500
O 	O 	0.92530 0.22780 0.83860 -0.54100
O 	O 	0.98760 0.99000 0.82750 -0.53100
O 	O 	0.13770 0.11870 0.89830 -0.24200
O 	O 	0.17180 0.23800 0.72530 -0.55100
O 	O 	0.24770 0.99790 0.72350 -0.52800
O 	O 	0.38400 0.16860 0.66110 -0.19600
O 	O 	0.88310 0.98540 0.68340 -0.54100
O 	O 	0.78270 0.20720 0.71370 -0.51800
O 	O 	0.62160 0.05190 0.65190 -0.20600
N 	N 	0.67220 0.07370 0.91100 -0.09700
N 	N 	0.39850 0.13580 0.84640 -0.10200
N 	N 	0.91510 0.91110 0.45000 -0.07100
C 	C 	0.83570 0.06190 0.93010 0.00700
C 	C 	0.62540 0.99170 0.85850 0.04600
C 	C 	0.45500 0.98680 0.85690 0.04500
C 	C 	0.45100 0.22560 0.89350 0.07300
C 	C 	0.62060 0.22210 0.89990 0.04000
C 	C 	0.44380 0.17560 0.78330 -0.01500
C 	C 	0.85670 0.18430 0.59690 -0.02300
C 	C 	0.88300 0.14630 0.49050 0.06000
C 	C 	0.92600 0.95170 0.55760 0.02800
C 	C 	0.86300 0.05330 0.44200 0.02200
N 	N 	0.85400 0.08760 0.54970 -0.03500
Y 	Y 	0.04000 0.14090 0.25576 2.38400
P 	P 	0.98140 0.88980 0.12980 0.50300
P 	P 	0.30470 0.86010 0.27960 0.49500
P 	P 	0.78150 0.90100 0.33370 0.48600
O 	O 	0.92530 0.77220 0.16140 -0.54000
O 	O 	0.98760 0.01000 0.17250 -0.53000
O 	O 	0.13770 0.88130 0.10170 -0.24200
O 	O 	0.17180 0.76200 0.27470 -0.55100
O 	O 	0.24770 0.00210 0.27650 -0.52800
O 	O 	0.38400 0.83140 0.33890 -0.19600
O 	O 	0.88310 0.01460 0.31660 -0.54100
O 	O 	0.78270 0.79280 0.28630 -0.51800
O 	O 	0.62160 0.94810 0.34810 -0.20600
N 	N 	0.67220 0.92630 0.08900 -0.09700
N 	N 	0.39850 0.86420 0.15360 -0.10200
N 	N 	0.91510 0.08890 0.55000 -0.07100
C 	C 	0.83570 0.93810 0.06990 0.00700
C 	C 	0.62540 0.00830 0.14150 0.04600
C 	C 	0.45500 0.01320 0.14310 0.04500
C 	C 	0.45100 0.77440 0.10650 0.07300
C 	C 	0.62060 0.77790 0.10010 0.04000
C 	C 	0.44380 0.82440 0.21670 -0.01500
C 	C 	0.85670 0.81570 0.40310 -0.02300
C 	C 	0.88300 0.85370 0.50950 0.06000
C 	C 	0.92600 0.04830 0.44240 0.02800
C 	C 	0.86300 0.94670 0.55800 0.02200
N 	N 	0.85400 0.91240 0.45030 -0.03500
Y 	Y 	0.96000 0.64090 0.24424 2.38400
P 	P 	0.01860 0.38980 0.37020 0.50600
P 	P 	0.69530 0.36010 0.22040 0.49600
P 	P 	0.21850 0.40100 0.16630 0.48700
O 	O 	0.07470 0.27220 0.33860 -0.54000
O 	O 	0.01240 0.51000 0.32750 -0.52900
O 	O 	0.86230 0.38130 0.39830 -0.24400
O 	O 	0.82820 0.26200 0.22530 -0.55200
O 	O 	0.75230 0.50210 0.22350 -0.52800
O 	O 	0.61600 0.33140 0.16110 -0.19500
O 	O 	0.11690 0.51460 0.18340 -0.54000
O 	O 	0.21730 0.29280 0.21370 -0.51700
O 	O 	0.37840 0.44810 0.15190 -0.20400
N 	N 	0.32780 0.42630 0.41100 -0.09700
N 	N 	0.60150 0.36420 0.34640 -0.10200
N 	N 	0.08490 0.58890 0.95000 -0.06900
C 	C 	0.16430 0.43810 0.43010 0.00900
C 	C 	0.37460 0.50830 0.35850 0.04600
C 	C 	0.54500 0.51320 0.35690 0.04500
C 	C 	0.54900 0.27440 0.39350 0.07300
C 	C 	0.37940 0.27790 0.39990 0.04100
C 	C 	0.55620 0.32440 0.28330 -0.01400
C 	C 	0.14330 0.31570 0.09690 -0.02200
C 	C 	0.11700 0.35370 0.99050 0.06000
C 	C 	0.07400 0.54830 0.05760 0.02800
C 	C 	0.13700 0.44670 0.94200 0.02400
N 	N 	0.14600 0.41240 0.04970 -0.03700
Y 	Y 	0.96000 0.35910 0.75576 2.38400
P 	P 	0.01860 0.61020 0.62980 0.50600
P 	P 	0.69530 0.63990 0.77960 0.49600
P 	P 	0.21850 0.59900 0.83370 0.48700
O 	O 	0.07470 0.72780 0.66140 -0.54000
O 	O 	0.01240 0.49000 0.67250 -0.52900
O 	O 	0.86230 0.61870 0.60170 -0.24400
O 	O 	0.82820 0.73800 0.77470 -0.55200
O 	O 	0.75230 0.49790 0.77650 -0.52800
O 	O 	0.61600 0.66860 0.83890 -0.19500
O 	O 	0.11690 0.48540 0.81660 -0.54000
O 	O 	0.21730 0.70720 0.78630 -0.51700
O 	O 	0.37840 0.55190 0.84810 -0.20400
N 	N 	0.32780 0.57370 0.58900 -0.09700
N 	N 	0.60150 0.63580 0.65360 -0.10200
N 	N 	0.08490 0.41110 0.05000 -0.06900
C 	C 	0.16430 0.56190 0.56990 0.00900
C 	C 	0.37460 0.49170 0.64150 0.04600
C 	C 	0.54500 0.48680 0.64310 0.04500
C 	C 	0.54900 0.72560 0.60650 0.07300
C 	C 	0.37940 0.72210 0.60010 0.04100
C 	C 	0.55620 0.67560 0.71670 -0.01400
C 	C 	0.14330 0.68430 0.90310 -0.02200
C 	C 	0.11700 0.64630 0.00950 0.06000
C 	C 	0.07400 0.45170 0.94240 0.02800
C 	C 	0.13700 0.55330 0.05800 0.02400
N 	N 	0.14600 0.58760 0.95030 -0.03700
