data_crystal

_cell_length_a 15.65970
_cell_length_b 15.65970
_cell_length_c 15.65970
_cell_angle_alpha 90.00000
_cell_angle_beta  90.00000
_cell_angle_gamma 90.00000

_symmetry_space_group_name_	'P 1'
_symmetry_space_group_name_H-M	'P 1'

loop_
_symmetry_equiv_pos_as_xyz
  x,y,z

loop_
_atom_site_label
_atom_site_type_symbol
_atom_site_fract_x
_atom_site_fract_y
_atom_site_fract_z
_atom_site_charge
N 	N 	0.58526 0.19451 0.55729 -0.16500
C 	C 	0.58270 0.13664 0.48715 0.22700
C 	C 	0.51760 0.14270 0.42820 -0.28700
H 	H 	0.47760 0.18640 0.43180 0.13200
C 	C 	0.67150 0.46300 0.95400 0.02300
C 	C 	0.65430 0.54830 0.96060 -0.10600
H 	H 	0.60850 0.57120 0.93050 0.07100
C 	C 	0.73970 0.43080 0.99960 -0.11000
H 	H 	0.75360 0.37320 0.99600 0.05200
C 	C 	0.70340 0.60070 0.01080 0.02900
H 	H 	0.69100 0.65870 0.01390 0.01400
C 	C 	0.76990 0.56830 0.05570 -0.10700
H 	H 	0.80320 0.60390 0.08970 0.06200
C 	C 	0.78730 0.48520 0.05100 0.02700
H 	H 	0.83230 0.46310 0.08280 0.01400
C 	C 	0.65064 0.20800 0.61207 0.10400
H 	H 	0.70420 0.18300 0.60640 -0.01800
N 	N 	0.63011 0.26015 0.67378 -0.18100
C 	C 	0.54650 0.28180 0.65760 -0.01500
H 	H 	0.51400 0.31860 0.69110 0.02600
C 	C 	0.51850 0.24270 0.58740 0.01600
H 	H 	0.46440 0.24720 0.56340 0.02000
N 	N 	0.91474 0.80549 0.05729 -0.16400
C 	C 	0.91730 0.86336 0.98715 0.22700
C 	C 	0.98240 0.85730 0.92820 -0.28300
H 	H 	0.02240 0.81360 0.93180 0.13000
C 	C 	0.82850 0.53700 0.45400 0.02400
C 	C 	0.84570 0.45170 0.46060 -0.10900
H 	H 	0.89150 0.42880 0.43050 0.07200
C 	C 	0.76030 0.56920 0.49960 -0.11200
H 	H 	0.74640 0.62680 0.49600 0.05300
C 	C 	0.79660 0.39930 0.51080 0.03200
H 	H 	0.80900 0.34130 0.51390 0.01300
C 	C 	0.73010 0.43170 0.55570 -0.11000
H 	H 	0.69680 0.39610 0.58970 0.06300
C 	C 	0.71270 0.51480 0.55100 0.03000
H 	H 	0.66770 0.53690 0.58280 0.01400
C 	C 	0.84936 0.79200 0.11207 0.10400
H 	H 	0.79580 0.81700 0.10640 -0.01800
N 	N 	0.86989 0.73985 0.17378 -0.18100
C 	C 	0.95350 0.71820 0.15760 -0.01400
H 	H 	0.98600 0.68140 0.19110 0.02600
C 	C 	0.98150 0.75730 0.08740 0.01500
H 	H 	0.03560 0.75280 0.06340 0.02000
N 	N 	0.41474 0.69451 0.94271 -0.16400
C 	C 	0.41730 0.63664 0.01285 0.22800
C 	C 	0.48240 0.64270 0.07180 -0.28600
H 	H 	0.52240 0.68640 0.06820 0.13100
C 	C 	0.32850 0.96300 0.54600 0.02200
C 	C 	0.34570 0.04830 0.53940 -0.10600
H 	H 	0.39150 0.07120 0.56950 0.07100
C 	C 	0.26030 0.93080 0.50040 -0.11000
H 	H 	0.24640 0.87320 0.50400 0.05200
C 	C 	0.29660 0.10070 0.48920 0.02900
H 	H 	0.30900 0.15870 0.48610 0.01400
C 	C 	0.23010 0.06830 0.44430 -0.10600
H 	H 	0.19680 0.10390 0.41030 0.06200
C 	C 	0.21270 0.98520 0.44900 0.02600
H 	H 	0.16770 0.96310 0.41720 0.01500
C 	C 	0.34936 0.70800 0.88793 0.10400
H 	H 	0.29580 0.68300 0.89360 -0.01800
N 	N 	0.36989 0.76015 0.82622 -0.18100
C 	C 	0.45350 0.78180 0.84240 -0.01500
H 	H 	0.48600 0.81860 0.80890 0.02600
C 	C 	0.48150 0.74270 0.91260 0.01600
H 	H 	0.53560 0.74720 0.93660 0.02000
N 	N 	0.08526 0.30549 0.44271 -0.16400
C 	C 	0.08270 0.36336 0.51285 0.22800
C 	C 	0.01760 0.35730 0.57180 -0.28600
H 	H 	0.97760 0.31360 0.56820 0.13100
C 	C 	0.17150 0.03700 0.04600 0.02500
C 	C 	0.15430 0.95170 0.03940 -0.11000
H 	H 	0.10850 0.92880 0.06950 0.07200
C 	C 	0.23970 0.06920 0.00040 -0.11000
H 	H 	0.25360 0.12680 0.00400 0.05300
C 	C 	0.20340 0.89930 0.98920 0.03200
H 	H 	0.19100 0.84130 0.98610 0.01300
C 	C 	0.26990 0.93170 0.94430 -0.10800
H 	H 	0.30320 0.89610 0.91030 0.06200
C 	C 	0.28730 0.01480 0.94900 0.02600
H 	H 	0.33230 0.03690 0.91720 0.01400
C 	C 	0.15064 0.29200 0.38793 0.10400
H 	H 	0.20420 0.31700 0.39360 -0.01800
N 	N 	0.13011 0.23985 0.32622 -0.18100
C 	C 	0.04650 0.21820 0.34240 -0.01500
H 	H 	0.01400 0.18140 0.30890 0.02700
C 	C 	0.01850 0.25730 0.41260 0.01700
H 	H 	0.96440 0.25280 0.43660 0.01900
N 	N 	0.55729 0.58526 0.19451 -0.16400
C 	C 	0.48715 0.58270 0.13664 0.22800
C 	C 	0.42820 0.51760 0.14270 -0.28600
H 	H 	0.43180 0.47760 0.18640 0.13200
C 	C 	0.95400 0.67150 0.46300 0.02300
C 	C 	0.96060 0.65430 0.54830 -0.10600
H 	H 	0.93050 0.60850 0.57120 0.07100
C 	C 	0.99960 0.73970 0.43080 -0.11000
H 	H 	0.99600 0.75360 0.37320 0.05200
C 	C 	0.01080 0.70340 0.60070 0.02900
H 	H 	0.01390 0.69100 0.65870 0.01400
C 	C 	0.05570 0.76990 0.56830 -0.10700
H 	H 	0.08970 0.80320 0.60390 0.06200
C 	C 	0.05100 0.78730 0.48520 0.02700
H 	H 	0.08280 0.83230 0.46310 0.01400
C 	C 	0.61207 0.65064 0.20800 0.10400
H 	H 	0.60640 0.70420 0.18300 -0.01800
N 	N 	0.67378 0.63011 0.26015 -0.18100
C 	C 	0.65760 0.54650 0.28180 -0.01500
H 	H 	0.69110 0.51400 0.31860 0.02600
C 	C 	0.58740 0.51850 0.24270 0.01600
H 	H 	0.56340 0.46440 0.24720 0.02000
N 	N 	0.05729 0.91474 0.80549 -0.16400
C 	C 	0.98715 0.91730 0.86336 0.22700
C 	C 	0.92820 0.98240 0.85730 -0.28300
H 	H 	0.93180 0.02240 0.81360 0.13000
C 	C 	0.45400 0.82850 0.53700 0.02400
C 	C 	0.46060 0.84570 0.45170 -0.10900
H 	H 	0.43050 0.89150 0.42880 0.07200
C 	C 	0.49960 0.76030 0.56920 -0.11200
H 	H 	0.49600 0.74640 0.62680 0.05300
C 	C 	0.51080 0.79660 0.39930 0.03200
H 	H 	0.51390 0.80900 0.34130 0.01300
C 	C 	0.55570 0.73010 0.43170 -0.11000
H 	H 	0.58970 0.69680 0.39610 0.06300
C 	C 	0.55100 0.71270 0.51480 0.03000
H 	H 	0.58280 0.66770 0.53690 0.01400
C 	C 	0.11207 0.84936 0.79200 0.10400
H 	H 	0.10640 0.79580 0.81700 -0.01800
N 	N 	0.17378 0.86989 0.73985 -0.18100
C 	C 	0.15760 0.95350 0.71820 -0.01400
H 	H 	0.19110 0.98600 0.68140 0.02600
C 	C 	0.08740 0.98150 0.75730 0.01500
H 	H 	0.06340 0.03560 0.75280 0.02000
N 	N 	0.94271 0.41474 0.69451 -0.16400
C 	C 	0.01285 0.41730 0.63664 0.22800
C 	C 	0.07180 0.48240 0.64270 -0.28600
H 	H 	0.06820 0.52240 0.68640 0.13100
C 	C 	0.54600 0.32850 0.96300 0.02200
C 	C 	0.53940 0.34570 0.04830 -0.10600
H 	H 	0.56950 0.39150 0.07120 0.07100
C 	C 	0.50040 0.26030 0.93080 -0.11000
H 	H 	0.50400 0.24640 0.87320 0.05200
C 	C 	0.48920 0.29660 0.10070 0.02900
H 	H 	0.48610 0.30900 0.15870 0.01400
C 	C 	0.44430 0.23010 0.06830 -0.10600
H 	H 	0.41030 0.19680 0.10390 0.06200
C 	C 	0.44900 0.21270 0.98520 0.02600
H 	H 	0.41720 0.16770 0.96310 0.01500
C 	C 	0.88793 0.34936 0.70800 0.10400
H 	H 	0.89360 0.29580 0.68300 -0.01800
N 	N 	0.82622 0.36989 0.76015 -0.18100
C 	C 	0.84240 0.45350 0.78180 -0.01500
H 	H 	0.80890 0.48600 0.81860 0.02600
C 	C 	0.91260 0.48150 0.74270 0.01600
H 	H 	0.93660 0.53560 0.74720 0.02000
N 	N 	0.44271 0.08526 0.30549 -0.16400
C 	C 	0.51285 0.08270 0.36336 0.22800
C 	C 	0.57180 0.01760 0.35730 -0.28600
H 	H 	0.56820 0.97760 0.31360 0.13100
C 	C 	0.04600 0.17150 0.03700 0.02500
C 	C 	0.03940 0.15430 0.95170 -0.11000
H 	H 	0.06950 0.10850 0.92880 0.07200
C 	C 	0.00040 0.23970 0.06920 -0.11000
H 	H 	0.00400 0.25360 0.12680 0.05300
C 	C 	0.98920 0.20340 0.89930 0.03200
H 	H 	0.98610 0.19100 0.84130 0.01300
C 	C 	0.94430 0.26990 0.93170 -0.10800
H 	H 	0.91030 0.30320 0.89610 0.06200
C 	C 	0.94900 0.28730 0.01480 0.02600
H 	H 	0.91720 0.33230 0.03690 0.01400
C 	C 	0.38793 0.15064 0.29200 0.10400
H 	H 	0.39360 0.20420 0.31700 -0.01800
N 	N 	0.32622 0.13011 0.23985 -0.18100
C 	C 	0.34240 0.04650 0.21820 -0.01500
H 	H 	0.30890 0.01400 0.18140 0.02700
C 	C 	0.41260 0.01850 0.25730 0.01700
H 	H 	0.43660 0.96440 0.25280 0.01900
N 	N 	0.19451 0.55729 0.58526 -0.16400
C 	C 	0.13664 0.48715 0.58270 0.22800
C 	C 	0.14270 0.42820 0.51760 -0.28600
H 	H 	0.18640 0.43180 0.47760 0.13200
C 	C 	0.46300 0.95400 0.67150 0.02300
C 	C 	0.54830 0.96060 0.65430 -0.10600
H 	H 	0.57120 0.93050 0.60850 0.07100
C 	C 	0.43080 0.99960 0.73970 -0.11000
H 	H 	0.37320 0.99600 0.75360 0.05200
C 	C 	0.60070 0.01080 0.70340 0.02900
H 	H 	0.65870 0.01390 0.69100 0.01400
C 	C 	0.56830 0.05570 0.76990 -0.10700
H 	H 	0.60390 0.08970 0.80320 0.06200
C 	C 	0.48520 0.05100 0.78730 0.02700
H 	H 	0.46310 0.08280 0.83230 0.01400
C 	C 	0.20800 0.61207 0.65064 0.10400
H 	H 	0.18300 0.60640 0.70420 -0.01800
N 	N 	0.26015 0.67378 0.63011 -0.18100
C 	C 	0.28180 0.65760 0.54650 -0.01500
H 	H 	0.31860 0.69110 0.51400 0.02600
C 	C 	0.24270 0.58740 0.51850 0.01600
H 	H 	0.24720 0.56340 0.46440 0.02000
N 	N 	0.80549 0.05729 0.91474 -0.16400
C 	C 	0.86336 0.98715 0.91730 0.22700
C 	C 	0.85730 0.92820 0.98240 -0.28300
H 	H 	0.81360 0.93180 0.02240 0.13000
C 	C 	0.53700 0.45400 0.82850 0.02400
C 	C 	0.45170 0.46060 0.84570 -0.10900
H 	H 	0.42880 0.43050 0.89150 0.07200
C 	C 	0.56920 0.49960 0.76030 -0.11200
H 	H 	0.62680 0.49600 0.74640 0.05300
C 	C 	0.39930 0.51080 0.79660 0.03200
H 	H 	0.34130 0.51390 0.80900 0.01300
C 	C 	0.43170 0.55570 0.73010 -0.11000
H 	H 	0.39610 0.58970 0.69680 0.06300
C 	C 	0.51480 0.55100 0.71270 0.03000
H 	H 	0.53690 0.58280 0.66770 0.01400
C 	C 	0.79200 0.11207 0.84936 0.10400
H 	H 	0.81700 0.10640 0.79580 -0.01800
N 	N 	0.73985 0.17378 0.86989 -0.18100
C 	C 	0.71820 0.15760 0.95350 -0.01400
H 	H 	0.68140 0.19110 0.98600 0.02600
C 	C 	0.75730 0.08740 0.98150 0.01500
H 	H 	0.75280 0.06340 0.03560 0.02000
N 	N 	0.69451 0.94271 0.41474 -0.16400
C 	C 	0.63664 0.01285 0.41730 0.22800
C 	C 	0.64270 0.07180 0.48240 -0.28600
H 	H 	0.68640 0.06820 0.52240 0.13100
C 	C 	0.96300 0.54600 0.32850 0.02200
C 	C 	0.04830 0.53940 0.34570 -0.10600
H 	H 	0.07120 0.56950 0.39150 0.07100
C 	C 	0.93080 0.50040 0.26030 -0.11000
H 	H 	0.87320 0.50400 0.24640 0.05200
C 	C 	0.10070 0.48920 0.29660 0.02900
H 	H 	0.15870 0.48610 0.30900 0.01400
C 	C 	0.06830 0.44430 0.23010 -0.10600
H 	H 	0.10390 0.41030 0.19680 0.06200
C 	C 	0.98520 0.44900 0.21270 0.02600
H 	H 	0.96310 0.41720 0.16770 0.01500
C 	C 	0.70800 0.88793 0.34936 0.10400
H 	H 	0.68300 0.89360 0.29580 -0.01800
N 	N 	0.76015 0.82622 0.36989 -0.18100
C 	C 	0.78180 0.84240 0.45350 -0.01500
H 	H 	0.81860 0.80890 0.48600 0.02600
C 	C 	0.74270 0.91260 0.48150 0.01600
H 	H 	0.74720 0.93660 0.53560 0.02000
N 	N 	0.30549 0.44271 0.08526 -0.16400
C 	C 	0.36336 0.51285 0.08270 0.22800
C 	C 	0.35730 0.57180 0.01760 -0.28600
H 	H 	0.31360 0.56820 0.97760 0.13100
C 	C 	0.03700 0.04600 0.17150 0.02500
C 	C 	0.95170 0.03940 0.15430 -0.11000
H 	H 	0.92880 0.06950 0.10850 0.07200
C 	C 	0.06920 0.00040 0.23970 -0.11000
H 	H 	0.12680 0.00400 0.25360 0.05300
C 	C 	0.89930 0.98920 0.20340 0.03200
H 	H 	0.84130 0.98610 0.19100 0.01300
C 	C 	0.93170 0.94430 0.26990 -0.10800
H 	H 	0.89610 0.91030 0.30320 0.06200
C 	C 	0.01480 0.94900 0.28730 0.02600
H 	H 	0.03690 0.91720 0.33230 0.01400
C 	C 	0.29200 0.38793 0.15064 0.10400
H 	H 	0.31700 0.39360 0.20420 -0.01800
N 	N 	0.23985 0.32622 0.13011 -0.18100
C 	C 	0.21820 0.34240 0.04650 -0.01500
H 	H 	0.18140 0.30890 0.01400 0.02700
C 	C 	0.25730 0.41260 0.01850 0.01700
H 	H 	0.25280 0.43660 0.96440 0.01900
Ag	Ag	0.70214 0.29786 0.79786 0.52100
P 	P 	0.61228 0.38772 0.88772 -0.01300
Ag	Ag	0.79786 0.70214 0.29786 0.52100
P 	P 	0.88772 0.61228 0.38772 -0.01300
Ag	Ag	0.29786 0.79786 0.70214 0.52100
P 	P 	0.38772 0.88772 0.61228 -0.01300
Ag	Ag	0.20214 0.20214 0.20214 0.52100
P 	P 	0.11228 0.11228 0.11228 -0.01400
