data_crystal

_cell_length_a 13.02450
_cell_length_b 13.02450
_cell_length_c 16.79010
_cell_angle_alpha 111.50200
_cell_angle_beta  111.50200
_cell_angle_gamma 93.15140

_symmetry_space_group_name_	'P 1'
_symmetry_space_group_name_H-M	'P 1'

loop_
_symmetry_equiv_pos_as_xyz
  x,y,z

loop_
_atom_site_label
_atom_site_type_symbol
_atom_site_fract_x
_atom_site_fract_y
_atom_site_fract_z
_atom_site_charge
Y 	Y 	0.62553 0.63341 0.77170 2.39500
Y 	Y 	0.14617 0.13829 0.77170 2.40200
Y 	Y 	0.88341 0.37553 0.27170 2.39100
Y 	Y 	0.38829 0.89617 0.27170 2.39000
Y 	Y 	0.99196 0.99196 0.98392 2.39400
Y 	Y 	0.24196 0.74196 0.48392 2.40700
Y 	Y 	0.75383 0.25383 0.50766 2.39700
Y 	Y 	0.50383 0.50383 0.00766 2.39000
H 	H 	0.89670 0.73230 0.76340 -0.11500
H 	H 	0.06980 0.81300 0.63160 -0.16700
H 	H 	0.84200 0.52000 0.49900 -0.09000
H 	H 	0.46810 0.16370 0.28200 -0.06300
H 	H 	0.56110 0.32070 0.14460 -0.09900
H 	H 	0.25610 0.11170 0.02100 -0.07700
H 	H 	0.86670 0.03110 0.76340 0.07500
H 	H 	0.56180 0.81860 0.63160 -0.02200
H 	H 	0.65700 0.97900 0.49900 -0.00200
H 	H 	0.81390 0.11830 0.28200 -0.10800
H 	H 	0.58350 0.82390 0.14460 -0.12900
H 	H 	0.76490 0.90930 0.02100 -0.08400
H 	H 	0.98230 0.64670 0.26340 -0.04700
H 	H 	0.06300 0.81980 0.13160 -0.08900
H 	H 	0.77000 0.59200 0.99900 -0.00700
H 	H 	0.41370 0.21810 0.78200 -0.06300
H 	H 	0.57070 0.31110 0.64460 -0.08300
H 	H 	0.36170 0.00610 0.52100 -0.04500
H 	H 	0.28110 0.61670 0.26340 -0.04300
H 	H 	0.06860 0.31180 0.13160 -0.04700
H 	H 	0.22900 0.40700 0.99900 0.01300
H 	H 	0.36830 0.56390 0.78200 -0.05100
H 	H 	0.07390 0.33350 0.64460 -0.04000
H 	H 	0.15930 0.51490 0.52100 -0.03200
C 	C 	0.85330 0.61210 0.63120 -0.42700
C 	C 	0.91130 0.71490 0.71020 0.38200
C 	C 	0.99140 0.79160 0.70960 -0.61200
C 	C 	0.01530 0.76350 0.63140 0.58600
C 	C 	0.95970 0.66350 0.55360 -0.50500
C 	C 	0.87910 0.58750 0.55220 0.34200
C 	C 	0.77120 0.53400 0.63280 0.55700
C 	C 	0.04850 0.90230 0.79300 0.76400
C 	C 	0.98530 0.63390 0.46720 0.53100
C 	C 	0.34950 0.12930 0.15340 -0.33800
C 	C 	0.45300 0.17780 0.22880 0.26100
C 	C 	0.53630 0.24850 0.22640 -0.35800
C 	C 	0.50860 0.27080 0.14600 0.28300
C 	C 	0.40730 0.22150 0.07020 -0.37200
C 	C 	0.32520 0.14740 0.07280 0.26400
C 	C 	0.26060 0.05180 0.15680 0.55300
C 	C 	0.65170 0.29530 0.30540 0.64900
C 	C 	0.38100 0.24680 0.98620 0.60000
C 	C 	0.77790 0.01910 0.63120 -0.07200
C 	C 	0.79890 0.99530 0.71020 -0.07300
C 	C 	0.71820 0.91800 0.70960 -0.19700
C 	C 	0.61610 0.86790 0.63140 0.12100
C 	C 	0.59390 0.89010 0.55360 -0.19900
C 	C 	0.67310 0.96470 0.55220 0.01700
C 	C 	0.86160 0.09880 0.63280 0.43900
C 	C 	0.74450 0.89070 0.79300 0.56300
C 	C 	0.48190 0.83330 0.46720 0.51000
C 	C 	0.80390 0.02410 0.15340 -0.33900
C 	C 	0.77580 0.05100 0.22880 0.38400
C 	C 	0.69010 0.97790 0.22640 -0.53600
C 	C 	0.63740 0.87520 0.14600 0.35400
C 	C 	0.66290 0.84870 0.07020 -0.40600
C 	C 	0.74760 0.92540 0.07280 0.22200
C 	C 	0.89620 0.10500 0.15680 0.56200
C 	C 	0.65370 0.01010 0.30540 0.81500
C 	C 	0.60520 0.73940 0.98620 0.60800
C 	C 	0.86210 0.60330 0.13120 -0.29200
C 	C 	0.96490 0.66130 0.21020 0.13500
C 	C 	0.04160 0.74140 0.20960 -0.27800
C 	C 	0.01350 0.76530 0.13140 0.33200
C 	C 	0.91350 0.70970 0.05360 -0.40100
C 	C 	0.83750 0.62910 0.05220 0.16700
C 	C 	0.78400 0.52120 0.13280 0.50300
C 	C 	0.15230 0.79850 0.29300 0.60700
C 	C 	0.88390 0.73530 0.96720 0.60400
C 	C 	0.37930 0.09950 0.65340 -0.33900
C 	C 	0.42780 0.20300 0.72880 0.25800
C 	C 	0.49850 0.28630 0.72640 -0.34400
C 	C 	0.52080 0.25860 0.64600 0.25600
C 	C 	0.47150 0.15730 0.57020 -0.31400
C 	C 	0.39740 0.07520 0.57280 0.25100
C 	C 	0.30180 0.01060 0.65680 0.62200
C 	C 	0.54530 0.40170 0.80540 0.64000
C 	C 	0.49680 0.13100 0.48620 0.55700
C 	C 	0.26910 0.52790 0.13120 -0.28000
C 	C 	0.24530 0.54890 0.21020 0.20600
C 	C 	0.16800 0.46820 0.20960 -0.30200
C 	C 	0.11790 0.36610 0.13140 0.23100
C 	C 	0.14010 0.34390 0.05360 -0.29300
C 	C 	0.21470 0.42310 0.05220 0.13100
C 	C 	0.34880 0.61160 0.13280 0.50500
C 	C 	0.14070 0.49450 0.29300 0.60800
C 	C 	0.08330 0.23190 0.96720 0.57600
C 	C 	0.27410 0.55390 0.65340 -0.29800
C 	C 	0.30100 0.52580 0.72880 0.21700
C 	C 	0.22790 0.44010 0.72640 -0.30300
C 	C 	0.12520 0.38740 0.64600 0.19700
C 	C 	0.09870 0.41290 0.57020 -0.21400
C 	C 	0.17540 0.49760 0.57280 0.19100
C 	C 	0.35500 0.64620 0.65680 0.54200
C 	C 	0.26010 0.40370 0.80540 0.62600
C 	C 	0.98940 0.35520 0.48620 0.47500
O 	O 	0.72850 0.43490 0.56540 -0.60700
O 	O 	0.73860 0.56900 0.69900 -0.63000
O 	O 	0.04790 0.91430 0.86880 -0.65300
O 	O 	0.09730 0.97690 0.78060 -0.67900
O 	O 	0.07080 0.69340 0.47520 -0.57000
O 	O 	0.92020 0.55140 0.39200 -0.57600
O 	O 	0.16270 0.02270 0.09440 -0.60500
O 	O 	0.29310 0.02550 0.22540 -0.55500
O 	O 	0.72650 0.33690 0.29160 -0.67700
O 	O 	0.66350 0.29010 0.37980 -0.60800
O 	O 	0.30470 0.17850 0.90840 -0.55200
O 	O 	0.44220 0.33600 0.99780 -0.61800
O 	O 	0.83690 0.13050 0.56540 -0.57500
O 	O 	0.96040 0.13000 0.69900 -0.62100
O 	O 	0.82090 0.95450 0.86880 -0.65200
O 	O 	0.68330 0.80370 0.78060 -0.61900
O 	O 	0.40440 0.78180 0.47520 -0.61300
O 	O 	0.47180 0.84060 0.39200 -0.56400
O 	O 	0.93170 0.07170 0.09440 -0.64900
O 	O 	0.93230 0.19990 0.22540 -0.60500
O 	O 	0.56510 0.95470 0.29160 -0.76800
O 	O 	0.71630 0.08970 0.37980 -0.64800
O 	O 	0.60370 0.72990 0.90840 -0.56900
O 	O 	0.55560 0.66180 0.99780 -0.62200
O 	O 	0.68490 0.47850 0.06540 -0.61100
O 	O 	0.81900 0.48860 0.19900 -0.62800
O 	O 	0.16430 0.79790 0.36880 -0.63200
O 	O 	0.22690 0.84730 0.28060 -0.64400
O 	O 	0.94340 0.82080 0.97520 -0.64900
O 	O 	0.80140 0.67020 0.89200 -0.57500
O 	O 	0.27270 0.91270 0.59440 -0.68200
O 	O 	0.27550 0.04310 0.72540 -0.56900
O 	O 	0.58690 0.47650 0.79160 -0.67400
O 	O 	0.54010 0.41350 0.87980 -0.60000
O 	O 	0.42850 0.05470 0.40840 -0.53700
O 	O 	0.58600 0.19220 0.49780 -0.62300
O 	O 	0.38050 0.58690 0.06540 -0.61000
O 	O 	0.38000 0.71040 0.19900 -0.61900
O 	O 	0.20450 0.57090 0.36880 -0.63000
O 	O 	0.05370 0.43330 0.28060 -0.59600
O 	O 	0.03180 0.15440 0.97520 -0.56300
O 	O 	0.09060 0.22180 0.89200 -0.53900
O 	O 	0.32170 0.68170 0.59440 -0.63100
O 	O 	0.44990 0.68230 0.72540 -0.58000
O 	O 	0.20470 0.31510 0.79160 -0.65700
O 	O 	0.33970 0.46630 0.87980 -0.59400
O 	O 	0.97990 0.35370 0.40840 -0.56300
O 	O 	0.91180 0.30560 0.49780 -0.62200
