data_crystal

_cell_length_a 15.17300
_cell_length_b 15.17300
_cell_length_c 19.08900
_cell_angle_alpha 90.00000
_cell_angle_beta  90.00000
_cell_angle_gamma 90.00000

_symmetry_space_group_name_	'P 1'
_symmetry_space_group_name_H-M	'P 1'

loop_
_symmetry_equiv_pos_as_xyz
  x,y,z

loop_
_atom_site_label
_atom_site_type_symbol
_atom_site_fract_x
_atom_site_fract_y
_atom_site_fract_z
_atom_site_charge
Co	Co	0.20110 0.11874 0.59851 1.09700
Co	Co	0.02112 0.19148 0.32800 1.09800
N 	N 	0.17760 0.12400 0.49670 -0.29100
N 	N 	0.11150 0.15420 0.39570 -0.28600
N 	N 	0.07360 0.28710 0.73460 -0.25500
N 	N 	0.13960 0.21700 0.64710 -0.25300
N 	N 	0.06850 0.90460 0.67960 -0.28300
N 	N 	0.15930 0.00990 0.64580 -0.29100
N 	N 	0.32920 0.13380 0.61260 -0.27700
N 	N 	0.45160 0.20720 0.63840 -0.28300
C 	C 	0.10680 0.15480 0.46340 0.10500
H 	H 	0.05740 0.17530 0.48720 -0.07500
C 	C 	0.23180 0.10420 0.44390 -0.00400
H 	H 	0.28860 0.08200 0.44890 -0.00900
C 	C 	0.19200 0.12110 0.38240 -0.02200
H 	H 	0.21600 0.11150 0.33830 0.01000
C 	C 	0.11010 0.21370 0.71150 0.10200
H 	H 	0.11450 0.16330 0.73890 -0.06800
C 	C 	0.06090 0.33580 0.67120 0.74800
H 	H 	0.03070 0.38900 0.66720 -0.24700
C 	C 	0.09920 0.29290 0.61900 0.70500
H 	H 	0.09940 0.30980 0.57220 -0.25100
C 	C 	0.08920 0.96220 0.63190 0.11100
H 	H 	0.05670 0.96900 0.59100 -0.07100
C 	C 	0.13150 0.91510 0.72850 -0.00000
H 	H 	0.13590 0.88330 0.77000 -0.00500
C 	C 	0.18630 0.97840 0.70790 0.00400
H 	H 	0.23550 0.99770 0.73260 -0.00000
C 	C 	0.36490 0.20850 0.63270 0.07900
H 	H 	0.33160 0.25860 0.64220 -0.04000
C 	C 	0.47300 0.12250 0.61980 -0.01300
H 	H 	0.52970 0.09920 0.61870 0.00000
C 	C 	0.39890 0.07880 0.60340 -0.00700
H 	H 	0.39580 0.02070 0.58830 0.00000
C 	C 	0.09760 0.15190 0.18920 -0.69500
H 	H 	0.08890 0.09140 0.19310 0.21600
C 	C 	0.13710 0.19470 0.13620 -0.79800
H 	H 	0.16010 0.16710 0.09670 0.23100
Co	Co	0.29890 0.88126 0.09851 1.09800
Co	Co	0.47888 0.80852 0.82800 1.10000
N 	N 	0.32240 0.87600 0.99670 -0.28900
N 	N 	0.38850 0.84580 0.89570 -0.28400
N 	N 	0.42640 0.71290 0.23460 -0.25400
N 	N 	0.36040 0.78300 0.14710 -0.25200
N 	N 	0.43150 0.09540 0.17960 -0.28300
N 	N 	0.34070 0.99010 0.14580 -0.28500
N 	N 	0.17080 0.86620 0.11260 -0.27600
N 	N 	0.04840 0.79280 0.13840 -0.28300
C 	C 	0.39320 0.84520 0.96340 0.10600
H 	H 	0.44260 0.82470 0.98720 -0.07400
C 	C 	0.26820 0.89580 0.94390 -0.00200
H 	H 	0.21140 0.91800 0.94890 -0.00700
C 	C 	0.30800 0.87890 0.88240 -0.02000
H 	H 	0.28400 0.88850 0.83830 0.01100
C 	C 	0.38990 0.78630 0.21150 0.10200
H 	H 	0.38550 0.83670 0.23890 -0.06700
C 	C 	0.43910 0.66420 0.17120 0.74800
H 	H 	0.46930 0.61100 0.16720 -0.24700
C 	C 	0.40080 0.70710 0.11900 0.70500
H 	H 	0.40060 0.69020 0.07220 -0.25100
C 	C 	0.41080 0.03780 0.13190 0.10600
H 	H 	0.44330 0.03100 0.09100 -0.07100
C 	C 	0.36850 0.08490 0.22850 0.00200
H 	H 	0.36410 0.11670 0.27000 -0.00700
C 	C 	0.31370 0.02160 0.20790 -0.00100
H 	H 	0.26450 0.00230 0.23260 0.00000
C 	C 	0.13510 0.79150 0.13270 0.07900
H 	H 	0.16840 0.74140 0.14220 -0.04000
C 	C 	0.02700 0.87750 0.11980 -0.00500
H 	H 	0.97030 0.90080 0.11870 -0.00500
C 	C 	0.10110 0.92120 0.10340 -0.01100
H 	H 	0.10420 0.97930 0.08830 0.00300
C 	C 	0.40240 0.84810 0.68920 -0.69200
H 	H 	0.41110 0.90860 0.69310 0.21600
C 	C 	0.36290 0.80530 0.63620 -0.79500
H 	H 	0.33990 0.83290 0.59670 0.23000
Co	Co	0.79890 0.61874 0.90149 1.09800
Co	Co	0.97888 0.69148 0.17200 1.09900
N 	N 	0.82240 0.62400 0.00330 -0.29000
N 	N 	0.88850 0.65420 0.10430 -0.28400
N 	N 	0.92640 0.78710 0.76540 -0.25400
N 	N 	0.86040 0.71700 0.85290 -0.25200
N 	N 	0.93150 0.40460 0.82040 -0.28200
N 	N 	0.84070 0.50990 0.85420 -0.28500
N 	N 	0.67080 0.63380 0.88740 -0.27600
N 	N 	0.54840 0.70720 0.86160 -0.28200
C 	C 	0.89320 0.65480 0.03660 0.10600
H 	H 	0.94260 0.67530 0.01280 -0.07400
C 	C 	0.76820 0.60420 0.05610 -0.00200
H 	H 	0.71140 0.58200 0.05110 -0.00800
C 	C 	0.80800 0.62110 0.11760 -0.02000
H 	H 	0.78400 0.61150 0.16170 0.01100
C 	C 	0.88990 0.71370 0.78850 0.10200
H 	H 	0.88550 0.66330 0.76110 -0.06700
C 	C 	0.93910 0.83580 0.82880 0.74800
H 	H 	0.96930 0.88900 0.83280 -0.24800
C 	C 	0.90080 0.79290 0.88100 0.70500
H 	H 	0.90060 0.80980 0.92780 -0.25200
C 	C 	0.91080 0.46220 0.86810 0.10700
H 	H 	0.94330 0.46900 0.90900 -0.07100
C 	C 	0.86850 0.41510 0.77150 0.00200
H 	H 	0.86410 0.38330 0.73000 -0.00600
C 	C 	0.81370 0.47840 0.79210 -0.00000
H 	H 	0.76450 0.49770 0.76740 0.00100
C 	C 	0.63510 0.70850 0.86730 0.07900
H 	H 	0.66840 0.75860 0.85780 -0.04000
C 	C 	0.52700 0.62250 0.88020 -0.01300
H 	H 	0.47030 0.59920 0.88130 0.00000
C 	C 	0.60110 0.57880 0.89660 -0.00700
H 	H 	0.60420 0.52070 0.91170 0.00100
C 	C 	0.90240 0.65190 0.31080 -0.69500
H 	H 	0.91110 0.59140 0.30690 0.21700
C 	C 	0.86290 0.69470 0.36380 -0.79800
H 	H 	0.83990 0.66710 0.40330 0.23100
Co	Co	0.70110 0.38126 0.40149 1.09900
Co	Co	0.52112 0.30852 0.67200 1.10000
N 	N 	0.67760 0.37600 0.50330 -0.29000
N 	N 	0.61150 0.34580 0.60430 -0.28400
N 	N 	0.57360 0.21290 0.26540 -0.25400
N 	N 	0.63960 0.28300 0.35290 -0.25200
N 	N 	0.56850 0.59540 0.32040 -0.28300
N 	N 	0.65930 0.49010 0.35420 -0.28500
N 	N 	0.82920 0.36620 0.38740 -0.27600
N 	N 	0.95160 0.29280 0.36160 -0.28100
C 	C 	0.60680 0.34520 0.53660 0.10600
H 	H 	0.55740 0.32470 0.51280 -0.07400
C 	C 	0.73180 0.39580 0.55610 -0.00200
H 	H 	0.78860 0.41800 0.55110 -0.00800
C 	C 	0.69200 0.37890 0.61760 -0.02000
H 	H 	0.71600 0.38850 0.66170 0.01100
C 	C 	0.61010 0.28630 0.28850 0.10200
H 	H 	0.61450 0.33670 0.26110 -0.06700
C 	C 	0.56090 0.16420 0.32880 0.74500
H 	H 	0.53070 0.11100 0.33280 -0.24600
C 	C 	0.59920 0.20710 0.38100 0.70200
H 	H 	0.59940 0.19020 0.42780 -0.25000
C 	C 	0.58920 0.53780 0.36810 0.10700
H 	H 	0.55670 0.53100 0.40900 -0.07100
C 	C 	0.63150 0.58490 0.27150 0.00200
H 	H 	0.63590 0.61670 0.23000 -0.00700
C 	C 	0.68630 0.52160 0.29210 -0.00000
H 	H 	0.73550 0.50230 0.26740 0.00100
C 	C 	0.86490 0.29150 0.36730 0.08000
H 	H 	0.83160 0.24140 0.35780 -0.04000
C 	C 	0.97300 0.37750 0.38020 -0.01000
H 	H 	0.02970 0.40080 0.38130 -0.00100
C 	C 	0.89890 0.42120 0.39660 -0.00900
H 	H 	0.89580 0.47930 0.41170 0.00200
C 	C 	0.59760 0.34810 0.81080 -0.69400
H 	H 	0.58890 0.40860 0.80690 0.21700
C 	C 	0.63710 0.30530 0.86380 -0.79700
H 	H 	0.66010 0.33290 0.90330 0.23100
Co	Co	0.79890 0.88126 0.40149 1.09800
Co	Co	0.97888 0.80852 0.67200 1.09900
N 	N 	0.82240 0.87600 0.50330 -0.29000
N 	N 	0.88850 0.84580 0.60430 -0.28500
N 	N 	0.92640 0.71290 0.26540 -0.25400
N 	N 	0.86040 0.78300 0.35290 -0.25200
N 	N 	0.93150 0.09540 0.32040 -0.28200
N 	N 	0.84070 0.99010 0.35420 -0.29000
N 	N 	0.67080 0.86620 0.38740 -0.27600
N 	N 	0.54840 0.79280 0.36160 -0.28200
C 	C 	0.89320 0.84520 0.53660 0.10600
H 	H 	0.94260 0.82470 0.51280 -0.07400
C 	C 	0.76820 0.89580 0.55610 -0.00300
H 	H 	0.71140 0.91800 0.55110 -0.00800
C 	C 	0.80800 0.87890 0.61760 -0.02100
H 	H 	0.78400 0.88850 0.66170 0.01100
C 	C 	0.88990 0.78630 0.28850 0.10200
H 	H 	0.88550 0.83670 0.26110 -0.06800
C 	C 	0.93910 0.66420 0.32880 0.74800
H 	H 	0.96930 0.61100 0.33280 -0.24700
C 	C 	0.90080 0.70710 0.38100 0.70500
H 	H 	0.90060 0.69020 0.42780 -0.25100
C 	C 	0.91080 0.03780 0.36810 0.11100
H 	H 	0.94330 0.03100 0.40900 -0.07100
C 	C 	0.86850 0.08490 0.27150 -0.00000
H 	H 	0.86410 0.11670 0.23000 -0.00500
C 	C 	0.81370 0.02160 0.29210 0.00400
H 	H 	0.76450 0.00230 0.26740 -0.00000
C 	C 	0.63510 0.79150 0.36730 0.07900
H 	H 	0.66840 0.74140 0.35780 -0.04000
C 	C 	0.52700 0.87750 0.38020 -0.01300
H 	H 	0.47030 0.90080 0.38130 0.00000
C 	C 	0.60110 0.92120 0.39660 -0.00700
H 	H 	0.60420 0.97930 0.41170 0.00000
C 	C 	0.90240 0.84810 0.81080 -0.69500
H 	H 	0.91110 0.90860 0.80690 0.21600
C 	C 	0.86290 0.80530 0.86380 -0.79800
H 	H 	0.83990 0.83290 0.90330 0.23100
Co	Co	0.70110 0.11874 0.90149 1.09800
Co	Co	0.52112 0.19148 0.17200 1.10000
N 	N 	0.67760 0.12400 0.00330 -0.28900
N 	N 	0.61150 0.15420 0.10430 -0.28400
N 	N 	0.57360 0.28710 0.76540 -0.25400
N 	N 	0.63960 0.21700 0.85290 -0.25200
N 	N 	0.56850 0.90460 0.82040 -0.28300
N 	N 	0.65930 0.00990 0.85420 -0.28500
N 	N 	0.82920 0.13380 0.88740 -0.27600
N 	N 	0.95160 0.20720 0.86160 -0.28300
C 	C 	0.60680 0.15480 0.03660 0.10600
H 	H 	0.55740 0.17530 0.01280 -0.07400
C 	C 	0.73180 0.10420 0.05610 -0.00200
H 	H 	0.78860 0.08200 0.05110 -0.00700
C 	C 	0.69200 0.12110 0.11760 -0.02000
H 	H 	0.71600 0.11150 0.16170 0.01100
C 	C 	0.61010 0.21370 0.78850 0.10200
H 	H 	0.61450 0.16330 0.76110 -0.06700
C 	C 	0.56090 0.33580 0.82880 0.74800
H 	H 	0.53070 0.38900 0.83280 -0.24700
C 	C 	0.59920 0.29290 0.88100 0.70500
H 	H 	0.59940 0.30980 0.92780 -0.25100
C 	C 	0.58920 0.96220 0.86810 0.10600
H 	H 	0.55670 0.96900 0.90900 -0.07100
C 	C 	0.63150 0.91510 0.77150 0.00200
H 	H 	0.63590 0.88330 0.73000 -0.00700
C 	C 	0.68630 0.97840 0.79210 -0.00100
H 	H 	0.73550 0.99770 0.76740 0.00000
C 	C 	0.86490 0.20850 0.86730 0.07900
H 	H 	0.83160 0.25860 0.85780 -0.04000
C 	C 	0.97300 0.12250 0.88020 -0.00500
H 	H 	0.02970 0.09920 0.88130 -0.00500
C 	C 	0.89890 0.07880 0.89660 -0.01100
H 	H 	0.89580 0.02070 0.91170 0.00300
C 	C 	0.59760 0.15190 0.31080 -0.69200
H 	H 	0.58890 0.09140 0.30690 0.21600
C 	C 	0.63710 0.19470 0.36380 -0.79500
H 	H 	0.66010 0.16710 0.40330 0.23000
Co	Co	0.20110 0.38126 0.09851 1.09800
Co	Co	0.02112 0.30852 0.82800 1.09900
N 	N 	0.17760 0.37600 0.99670 -0.29000
N 	N 	0.11150 0.34580 0.89570 -0.28400
N 	N 	0.07360 0.21290 0.23460 -0.25400
N 	N 	0.13960 0.28300 0.14710 -0.25200
N 	N 	0.06850 0.59540 0.17960 -0.28200
N 	N 	0.15930 0.49010 0.14580 -0.28500
N 	N 	0.32920 0.36620 0.11260 -0.27600
N 	N 	0.45160 0.29280 0.13840 -0.28200
C 	C 	0.10680 0.34520 0.96340 0.10600
H 	H 	0.05740 0.32470 0.98720 -0.07400
C 	C 	0.23180 0.39580 0.94390 -0.00200
H 	H 	0.28860 0.41800 0.94890 -0.00800
C 	C 	0.19200 0.37890 0.88240 -0.02000
H 	H 	0.21600 0.38850 0.83830 0.01100
C 	C 	0.11010 0.28630 0.21150 0.10200
H 	H 	0.11450 0.33670 0.23890 -0.06700
C 	C 	0.06090 0.16420 0.17120 0.74800
H 	H 	0.03070 0.11100 0.16720 -0.24800
C 	C 	0.09920 0.20710 0.11900 0.70500
H 	H 	0.09940 0.19020 0.07220 -0.25200
C 	C 	0.08920 0.53780 0.13190 0.10700
H 	H 	0.05670 0.53100 0.09100 -0.07100
C 	C 	0.13150 0.58490 0.22850 0.00200
H 	H 	0.13590 0.61670 0.27000 -0.00600
C 	C 	0.18630 0.52160 0.20790 -0.00000
H 	H 	0.23550 0.50230 0.23260 0.00100
C 	C 	0.36490 0.29150 0.13270 0.07900
H 	H 	0.33160 0.24140 0.14220 -0.04000
C 	C 	0.47300 0.37750 0.11980 -0.01300
H 	H 	0.52970 0.40080 0.11870 0.00000
C 	C 	0.39890 0.42120 0.10340 -0.00700
H 	H 	0.39580 0.47930 0.08830 0.00100
C 	C 	0.09760 0.34810 0.68920 -0.69500
H 	H 	0.08890 0.40860 0.69310 0.21700
C 	C 	0.13710 0.30530 0.63620 -0.79800
H 	H 	0.16010 0.33290 0.59670 0.23100
Co	Co	0.29890 0.61874 0.59851 1.09900
Co	Co	0.47888 0.69148 0.32800 1.10000
N 	N 	0.32240 0.62400 0.49670 -0.29000
N 	N 	0.38850 0.65420 0.39570 -0.28400
N 	N 	0.42640 0.78710 0.73460 -0.25400
N 	N 	0.36040 0.71700 0.64710 -0.25200
N 	N 	0.43150 0.40460 0.67960 -0.28300
N 	N 	0.34070 0.50990 0.64580 -0.28500
N 	N 	0.17080 0.63380 0.61260 -0.27600
N 	N 	0.04840 0.70720 0.63840 -0.28100
C 	C 	0.39320 0.65480 0.46340 0.10600
H 	H 	0.44260 0.67530 0.48720 -0.07400
C 	C 	0.26820 0.60420 0.44390 -0.00200
H 	H 	0.21140 0.58200 0.44890 -0.00800
C 	C 	0.30800 0.62110 0.38240 -0.02000
H 	H 	0.28400 0.61150 0.33830 0.01100
C 	C 	0.38990 0.71370 0.71150 0.10200
H 	H 	0.38550 0.66330 0.73890 -0.06700
C 	C 	0.43910 0.83580 0.67120 0.74500
H 	H 	0.46930 0.88900 0.66720 -0.24600
C 	C 	0.40080 0.79290 0.61900 0.70200
H 	H 	0.40060 0.80980 0.57220 -0.25000
C 	C 	0.41080 0.46220 0.63190 0.10700
H 	H 	0.44330 0.46900 0.59100 -0.07100
C 	C 	0.36850 0.41510 0.72850 0.00200
H 	H 	0.36410 0.38330 0.77000 -0.00700
C 	C 	0.31370 0.47840 0.70790 -0.00000
H 	H 	0.26450 0.49770 0.73260 0.00100
C 	C 	0.13510 0.70850 0.63270 0.08000
H 	H 	0.16840 0.75860 0.64220 -0.04000
C 	C 	0.02700 0.62250 0.61980 -0.01000
H 	H 	0.97030 0.59920 0.61870 -0.00100
C 	C 	0.10110 0.57880 0.60340 -0.00900
H 	H 	0.10420 0.52070 0.58830 0.00200
C 	C 	0.40240 0.65190 0.18920 -0.69400
H 	H 	0.41110 0.59140 0.19310 0.21700
C 	C 	0.36290 0.69470 0.13620 -0.79700
H 	H 	0.33990 0.66710 0.09670 0.23100
