data_crystal

_cell_length_a 16.85520
_cell_length_b 16.85520
_cell_length_c 16.85520
_cell_angle_alpha 90.00000
_cell_angle_beta  90.00000
_cell_angle_gamma 90.00000

_symmetry_space_group_name_	'P 1'
_symmetry_space_group_name_H-M	'P 1'

loop_
_symmetry_equiv_pos_as_xyz
  x,y,z

loop_
_atom_site_label
_atom_site_type_symbol
_atom_site_fract_x
_atom_site_fract_y
_atom_site_fract_z
_atom_site_charge
O 	O 	0.19440 0.51730 0.09460 -0.77200
O 	O 	0.69440 0.01730 0.59460 -0.79300
O 	O 	0.80560 0.48270 0.09460 -0.72100
O 	O 	0.30560 0.98270 0.59460 -0.39500
O 	O 	0.80560 0.51730 0.90540 -0.43900
O 	O 	0.30560 0.01730 0.40540 -0.84800
O 	O 	0.19440 0.48270 0.90540 -0.48600
O 	O 	0.69440 0.98270 0.40540 -0.38600
O 	O 	0.09460 0.19440 0.51730 -0.77300
O 	O 	0.59460 0.69440 0.01730 -0.79400
O 	O 	0.09460 0.80560 0.48270 -0.72200
O 	O 	0.59460 0.30560 0.98270 -0.39600
O 	O 	0.90540 0.80560 0.51730 -0.44000
O 	O 	0.40540 0.30560 0.01730 -0.84900
O 	O 	0.90540 0.19440 0.48270 -0.48600
O 	O 	0.40540 0.69440 0.98270 -0.38600
O 	O 	0.51730 0.09460 0.19440 -0.77300
O 	O 	0.01730 0.59460 0.69440 -0.79400
O 	O 	0.48270 0.09460 0.80560 -0.72200
O 	O 	0.98270 0.59460 0.30560 -0.39600
O 	O 	0.51730 0.90540 0.80560 -0.44000
O 	O 	0.01730 0.40540 0.30560 -0.84900
O 	O 	0.48270 0.90540 0.19440 -0.48600
O 	O 	0.98270 0.40540 0.69440 -0.38600
O 	O 	0.51730 0.19440 0.09460 -0.77300
O 	O 	0.01730 0.69440 0.59460 -0.79400
O 	O 	0.48270 0.80560 0.09460 -0.72200
O 	O 	0.98270 0.30560 0.59460 -0.39600
O 	O 	0.51730 0.80560 0.90540 -0.44000
O 	O 	0.01730 0.30560 0.40540 -0.84900
O 	O 	0.48270 0.19440 0.90540 -0.48600
O 	O 	0.98270 0.69440 0.40540 -0.38600
O 	O 	0.19440 0.09460 0.51730 -0.77300
O 	O 	0.69440 0.59460 0.01730 -0.79400
O 	O 	0.80560 0.09460 0.48270 -0.72200
O 	O 	0.30560 0.59460 0.98270 -0.39600
O 	O 	0.80560 0.90540 0.51730 -0.44000
O 	O 	0.30560 0.40540 0.01730 -0.84900
O 	O 	0.19440 0.90540 0.48270 -0.48600
O 	O 	0.69440 0.40540 0.98270 -0.38600
O 	O 	0.09460 0.51730 0.19440 -0.77300
O 	O 	0.59460 0.01730 0.69440 -0.79400
O 	O 	0.09460 0.48270 0.80560 -0.72200
O 	O 	0.59460 0.98270 0.30560 -0.39600
O 	O 	0.90540 0.51730 0.80560 -0.44000
O 	O 	0.40540 0.01730 0.30560 -0.84900
O 	O 	0.90540 0.48270 0.19440 -0.48600
O 	O 	0.40540 0.98270 0.69440 -0.38600
Ga	Ga	0.00000 0.50000 -0.00000 1.88900
Ga	Ga	0.50000 0.00000 0.50000 1.97300
Ga	Ga	0.00000 0.00000 0.50000 1.88900
Ga	Ga	0.50000 0.50000 -0.00000 1.97300
Ga	Ga	0.50000 0.00000 -0.00000 1.88900
Ga	Ga	0.00000 0.50000 0.50000 1.97300
Ga	Ga	0.25000 0.50000 -0.00000 1.97200
Ga	Ga	0.75000 0.50000 -0.00000 1.97700
Ga	Ga	0.25000 0.00000 0.50000 1.97200
Ga	Ga	0.00000 0.25000 0.50000 1.97200
Ga	Ga	0.00000 0.75000 0.50000 1.97700
Ga	Ga	0.50000 0.25000 -0.00000 1.97200
Ga	Ga	0.50000 0.00000 0.25000 1.97200
Ga	Ga	0.50000 0.00000 0.75000 1.97700
Ga	Ga	0.00000 0.50000 0.25000 1.97200
Ga	Ga	0.50000 0.75000 -0.00000 1.97700
Ga	Ga	0.75000 0.00000 0.50000 1.97700
Ga	Ga	0.00000 0.50000 0.75000 1.97700
P 	P 	0.12361 0.56640 0.12361 0.61600
O 	O 	0.05890 0.57160 0.05890 -1.01300
O 	O 	0.14580 0.64860 0.14580 -0.38000
P 	P 	0.62361 0.06640 0.62361 0.62900
O 	O 	0.55890 0.07160 0.55890 -0.81500
O 	O 	0.64580 0.14860 0.64580 -0.23700
P 	P 	0.87639 0.43360 0.12361 0.61900
O 	O 	0.94110 0.42840 0.05890 -0.65300
O 	O 	0.85420 0.35140 0.14580 -0.25800
P 	P 	0.37639 0.93360 0.62361 0.61200
O 	O 	0.44110 0.92840 0.55890 -0.50400
O 	O 	0.35420 0.85140 0.64580 -0.18200
P 	P 	0.87639 0.56640 0.87639 0.61900
O 	O 	0.94110 0.57160 0.94110 -0.24400
O 	O 	0.85420 0.64860 0.85420 -0.01300
P 	P 	0.37639 0.06640 0.37639 0.62700
O 	O 	0.44110 0.07160 0.44110 -0.81700
O 	O 	0.35420 0.14860 0.35420 -0.31000
P 	P 	0.12361 0.43360 0.87639 0.61900
O 	O 	0.05890 0.42840 0.94110 -0.65300
O 	O 	0.14580 0.35140 0.85420 -0.25800
P 	P 	0.62361 0.93360 0.37639 0.61200
O 	O 	0.55890 0.92840 0.44110 -0.50400
O 	O 	0.64580 0.85140 0.35420 -0.18200
P 	P 	0.12361 0.12361 0.56640 0.61600
O 	O 	0.05890 0.05890 0.57160 -1.01300
O 	O 	0.14580 0.14580 0.64860 -0.38000
P 	P 	0.62361 0.62361 0.06640 0.62900
O 	O 	0.55890 0.55890 0.07160 -0.81500
O 	O 	0.64580 0.64580 0.14860 -0.23700
P 	P 	0.12361 0.87639 0.43360 0.61900
O 	O 	0.05890 0.94110 0.42840 -0.65300
O 	O 	0.14580 0.85420 0.35140 -0.25800
P 	P 	0.62361 0.37639 0.93360 0.61200
O 	O 	0.55890 0.44110 0.92840 -0.50400
O 	O 	0.64580 0.35420 0.85140 -0.18200
P 	P 	0.87639 0.87639 0.56640 0.61900
O 	O 	0.94110 0.94110 0.57160 -0.24400
O 	O 	0.85420 0.85420 0.64860 -0.01300
P 	P 	0.37639 0.37639 0.06640 0.62700
O 	O 	0.44110 0.44110 0.07160 -0.81700
O 	O 	0.35420 0.35420 0.14860 -0.31000
P 	P 	0.87639 0.12361 0.43360 0.61900
O 	O 	0.94110 0.05890 0.42840 -0.65300
O 	O 	0.85420 0.14580 0.35140 -0.25800
P 	P 	0.37639 0.62361 0.93360 0.61200
O 	O 	0.44110 0.55890 0.92840 -0.50400
O 	O 	0.35420 0.64580 0.85140 -0.18200
P 	P 	0.56640 0.12361 0.12361 0.61600
O 	O 	0.57160 0.05890 0.05890 -1.01300
O 	O 	0.64860 0.14580 0.14580 -0.38000
P 	P 	0.06640 0.62361 0.62361 0.62900
O 	O 	0.07160 0.55890 0.55890 -0.81500
O 	O 	0.14860 0.64580 0.64580 -0.23700
P 	P 	0.43360 0.12361 0.87639 0.61900
O 	O 	0.42840 0.05890 0.94110 -0.65300
O 	O 	0.35140 0.14580 0.85420 -0.25800
P 	P 	0.93360 0.62361 0.37639 0.61200
O 	O 	0.92840 0.55890 0.44110 -0.50400
O 	O 	0.85140 0.64580 0.35420 -0.18200
P 	P 	0.56640 0.87639 0.87639 0.61900
O 	O 	0.57160 0.94110 0.94110 -0.24400
O 	O 	0.64860 0.85420 0.85420 -0.01300
P 	P 	0.06640 0.37639 0.37639 0.62700
O 	O 	0.07160 0.44110 0.44110 -0.81700
O 	O 	0.14860 0.35420 0.35420 -0.31000
P 	P 	0.43360 0.87639 0.12361 0.61900
O 	O 	0.42840 0.94110 0.05890 -0.65300
O 	O 	0.35140 0.85420 0.14580 -0.25800
P 	P 	0.93360 0.37639 0.62361 0.61200
O 	O 	0.92840 0.44110 0.55890 -0.50400
O 	O 	0.85140 0.35420 0.64580 -0.18200
