data_crystal

_cell_length_a 13.11300
_cell_length_b 29.05800
_cell_length_c 30.16700
_cell_angle_alpha 90.00000
_cell_angle_beta  90.00000
_cell_angle_gamma 90.00000

_symmetry_space_group_name_	'P 1'
_symmetry_space_group_name_H-M	'P 1'

loop_
_symmetry_equiv_pos_as_xyz
  x,y,z

loop_
_atom_site_label
_atom_site_type_symbol
_atom_site_fract_x
_atom_site_fract_y
_atom_site_fract_z
_atom_site_charge
C 	C 	0.32280 0.29984 0.06056 0.36600
O 	O 	0.37820 0.26744 0.04636 -0.41500
C 	C 	0.43240 0.37668 0.17247 0.04400
C 	C 	0.36380 0.32711 0.09879 -0.11500
C 	C 	0.34780 0.39162 0.14859 -0.10800
H 	H 	0.31440 0.41840 0.15720 0.06800
C 	C 	0.46810 0.45026 0.21248 -0.11200
H 	H 	0.44720 0.46620 0.18740 0.07000
C 	C 	0.48050 0.33674 0.15907 -0.11200
H 	H 	0.53610 0.32570 0.17500 0.06900
C 	C 	0.31230 0.36700 0.11189 0.03700
H 	H 	0.25510 0.37700 0.09640 0.02900
C 	C 	0.46750 0.40200 0.21248 0.04400
C 	C 	0.44640 0.31276 0.12187 0.04500
H 	H 	0.48100 0.28650 0.11280 0.02800
O 	O 	0.23690 0.31086 0.04573 -0.41800
C 	C 	0.82280 0.79984 0.06056 0.36500
O 	O 	0.87820 0.76744 0.04636 -0.41500
C 	C 	0.93240 0.87668 0.17247 0.04300
C 	C 	0.86380 0.82711 0.09879 -0.11600
C 	C 	0.84780 0.89162 0.14859 -0.10900
H 	H 	0.81440 0.91840 0.15720 0.06700
C 	C 	0.96810 0.95026 0.21248 -0.11300
H 	H 	0.94720 0.96620 0.18740 0.06900
C 	C 	0.98050 0.83674 0.15907 -0.11300
H 	H 	0.03610 0.82570 0.17500 0.06900
C 	C 	0.81230 0.86700 0.11189 0.03700
H 	H 	0.75510 0.87700 0.09640 0.02900
C 	C 	0.96750 0.90200 0.21248 0.04400
C 	C 	0.94640 0.81276 0.12187 0.04500
H 	H 	0.98100 0.78650 0.11280 0.02800
O 	O 	0.73690 0.81086 0.04573 -0.41800
C 	C 	0.67720 0.70016 0.06056 0.36500
O 	O 	0.62180 0.73256 0.04636 -0.41600
C 	C 	0.56760 0.62332 0.17247 0.04300
C 	C 	0.63620 0.67289 0.09879 -0.11600
C 	C 	0.65220 0.60838 0.14859 -0.10900
H 	H 	0.68560 0.58160 0.15720 0.06700
C 	C 	0.53190 0.54974 0.21248 -0.11300
H 	H 	0.55280 0.53380 0.18740 0.06900
C 	C 	0.51950 0.66326 0.15907 -0.11300
H 	H 	0.46390 0.67430 0.17500 0.06900
C 	C 	0.68770 0.63300 0.11189 0.03700
H 	H 	0.74490 0.62300 0.09640 0.02900
C 	C 	0.53250 0.59800 0.21248 0.04400
C 	C 	0.55360 0.68724 0.12187 0.04500
H 	H 	0.51900 0.71350 0.11280 0.02800
O 	O 	0.76310 0.68914 0.04573 -0.41800
C 	C 	0.17720 0.20016 0.06056 0.36500
O 	O 	0.12180 0.23256 0.04636 -0.41500
C 	C 	0.06760 0.12332 0.17247 0.04300
C 	C 	0.13620 0.17289 0.09879 -0.11600
C 	C 	0.15220 0.10838 0.14859 -0.10900
H 	H 	0.18560 0.08160 0.15720 0.06700
C 	C 	0.03190 0.04974 0.21248 -0.11300
H 	H 	0.05280 0.03380 0.18740 0.06900
C 	C 	0.01950 0.16326 0.15907 -0.11300
H 	H 	0.96390 0.17430 0.17500 0.06900
C 	C 	0.18770 0.13300 0.11189 0.03700
H 	H 	0.24490 0.12300 0.09640 0.02900
C 	C 	0.03250 0.09800 0.21248 0.04400
C 	C 	0.05360 0.18724 0.12187 0.04500
H 	H 	0.01900 0.21350 0.11280 0.02800
O 	O 	0.26310 0.18914 0.04573 -0.41800
C 	C 	0.67720 0.29984 0.43944 0.36400
O 	O 	0.62180 0.26744 0.45364 -0.40700
C 	C 	0.56760 0.37668 0.32753 0.04200
C 	C 	0.63620 0.32711 0.40121 -0.11100
C 	C 	0.65220 0.39162 0.35141 -0.10500
H 	H 	0.68560 0.41840 0.34280 0.06800
C 	C 	0.53190 0.45026 0.28752 -0.11400
H 	H 	0.55280 0.46620 0.31260 0.07100
C 	C 	0.51950 0.33674 0.34093 -0.11000
H 	H 	0.46390 0.32570 0.32500 0.06900
C 	C 	0.68770 0.36700 0.38811 0.03600
H 	H 	0.74490 0.37700 0.40360 0.03400
C 	C 	0.53250 0.40200 0.28752 0.04500
C 	C 	0.55360 0.31276 0.37813 0.04200
H 	H 	0.51900 0.28650 0.38720 0.03100
O 	O 	0.76310 0.31086 0.45427 -0.41000
C 	C 	0.17720 0.79984 0.43944 0.36400
O 	O 	0.12180 0.76744 0.45364 -0.40700
C 	C 	0.06760 0.87668 0.32753 0.04200
C 	C 	0.13620 0.82711 0.40121 -0.11100
C 	C 	0.15220 0.89162 0.35141 -0.10500
H 	H 	0.18560 0.91840 0.34280 0.06800
C 	C 	0.03190 0.95026 0.28752 -0.11400
H 	H 	0.05280 0.96620 0.31260 0.07100
C 	C 	0.01950 0.83674 0.34093 -0.11000
H 	H 	0.96390 0.82570 0.32500 0.06900
C 	C 	0.18770 0.86700 0.38811 0.03600
H 	H 	0.24490 0.87700 0.40360 0.03400
C 	C 	0.03250 0.90200 0.28752 0.04500
C 	C 	0.05360 0.81276 0.37813 0.04200
H 	H 	0.01900 0.78650 0.38720 0.03100
O 	O 	0.26310 0.81086 0.45427 -0.41000
C 	C 	0.32280 0.70016 0.43944 0.36400
O 	O 	0.37820 0.73256 0.45364 -0.40700
C 	C 	0.43240 0.62332 0.32753 0.04200
C 	C 	0.36380 0.67289 0.40121 -0.11100
C 	C 	0.34780 0.60838 0.35141 -0.10500
H 	H 	0.31440 0.58160 0.34280 0.06800
C 	C 	0.46810 0.54974 0.28752 -0.11400
H 	H 	0.44720 0.53380 0.31260 0.07100
C 	C 	0.48050 0.66326 0.34093 -0.11000
H 	H 	0.53610 0.67430 0.32500 0.06900
C 	C 	0.31230 0.63300 0.38811 0.03600
H 	H 	0.25510 0.62300 0.40360 0.03400
C 	C 	0.46750 0.59800 0.28752 0.04500
C 	C 	0.44640 0.68724 0.37813 0.04200
H 	H 	0.48100 0.71350 0.38720 0.03100
O 	O 	0.23690 0.68914 0.45427 -0.41000
C 	C 	0.82280 0.20016 0.43944 0.36400
O 	O 	0.87820 0.23256 0.45364 -0.40700
C 	C 	0.93240 0.12332 0.32753 0.04200
C 	C 	0.86380 0.17289 0.40121 -0.11100
C 	C 	0.84780 0.10838 0.35141 -0.10500
H 	H 	0.81440 0.08160 0.34280 0.06800
C 	C 	0.96810 0.04974 0.28752 -0.11400
H 	H 	0.94720 0.03380 0.31260 0.07100
C 	C 	0.98050 0.16326 0.34093 -0.10900
H 	H 	0.03610 0.17430 0.32500 0.06900
C 	C 	0.81230 0.13300 0.38811 0.03600
H 	H 	0.75510 0.12300 0.40360 0.03400
C 	C 	0.96750 0.09800 0.28752 0.04500
C 	C 	0.94640 0.18724 0.37813 0.04200
H 	H 	0.98100 0.21350 0.38720 0.03100
O 	O 	0.73690 0.18914 0.45427 -0.41000
C 	C 	0.67720 0.70016 0.93944 0.36000
O 	O 	0.62180 0.73256 0.95364 -0.39100
C 	C 	0.56760 0.62332 0.82753 0.04000
C 	C 	0.63620 0.67289 0.90121 -0.10300
C 	C 	0.65220 0.60838 0.85141 -0.10100
H 	H 	0.68560 0.58160 0.84280 0.06900
C 	C 	0.53190 0.54974 0.78752 -0.11500
H 	H 	0.55280 0.53380 0.81260 0.07300
C 	C 	0.51950 0.66326 0.84093 -0.10500
H 	H 	0.46390 0.67430 0.82500 0.06900
C 	C 	0.68770 0.63300 0.88811 0.03300
H 	H 	0.74490 0.62300 0.90360 0.03900
C 	C 	0.53250 0.59800 0.78752 0.04800
C 	C 	0.55360 0.68724 0.87813 0.03900
H 	H 	0.51900 0.71350 0.88720 0.03600
O 	O 	0.76310 0.68914 0.95427 -0.39400
C 	C 	0.17720 0.20016 0.93944 0.36000
O 	O 	0.12180 0.23256 0.95364 -0.39200
C 	C 	0.06760 0.12332 0.82753 0.04000
C 	C 	0.13620 0.17289 0.90121 -0.10300
C 	C 	0.15220 0.10838 0.85141 -0.10100
H 	H 	0.18560 0.08160 0.84280 0.06900
C 	C 	0.03190 0.04974 0.78752 -0.11500
H 	H 	0.05280 0.03380 0.81260 0.07300
C 	C 	0.01950 0.16326 0.84093 -0.10500
H 	H 	0.96390 0.17430 0.82500 0.06900
C 	C 	0.18770 0.13300 0.88811 0.03300
H 	H 	0.24490 0.12300 0.90360 0.03900
C 	C 	0.03250 0.09800 0.78752 0.04800
C 	C 	0.05360 0.18724 0.87813 0.03900
H 	H 	0.01900 0.21350 0.88720 0.03500
O 	O 	0.26310 0.18914 0.95427 -0.39400
C 	C 	0.32280 0.29984 0.93944 0.36000
O 	O 	0.37820 0.26744 0.95364 -0.39100
C 	C 	0.43240 0.37668 0.82753 0.04000
C 	C 	0.36380 0.32711 0.90121 -0.10300
C 	C 	0.34780 0.39162 0.85141 -0.10100
H 	H 	0.31440 0.41840 0.84280 0.06900
C 	C 	0.46810 0.45026 0.78752 -0.11500
H 	H 	0.44720 0.46620 0.81260 0.07300
C 	C 	0.48050 0.33674 0.84093 -0.10500
H 	H 	0.53610 0.32570 0.82500 0.06900
C 	C 	0.31230 0.36700 0.88811 0.03300
H 	H 	0.25510 0.37700 0.90360 0.03900
C 	C 	0.46750 0.40200 0.78752 0.04800
C 	C 	0.44640 0.31276 0.87813 0.03900
H 	H 	0.48100 0.28650 0.88720 0.03600
O 	O 	0.23690 0.31086 0.95427 -0.39400
C 	C 	0.82280 0.79984 0.93944 0.36000
O 	O 	0.87820 0.76744 0.95364 -0.39200
C 	C 	0.93240 0.87668 0.82753 0.04000
C 	C 	0.86380 0.82711 0.90121 -0.10300
C 	C 	0.84780 0.89162 0.85141 -0.10100
H 	H 	0.81440 0.91840 0.84280 0.06900
C 	C 	0.96810 0.95026 0.78752 -0.11500
H 	H 	0.94720 0.96620 0.81260 0.07300
C 	C 	0.98050 0.83674 0.84093 -0.10500
H 	H 	0.03610 0.82570 0.82500 0.06900
C 	C 	0.81230 0.86700 0.88811 0.03300
H 	H 	0.75510 0.87700 0.90360 0.03900
C 	C 	0.96750 0.90200 0.78752 0.04800
C 	C 	0.94640 0.81276 0.87813 0.03900
H 	H 	0.98100 0.78650 0.88720 0.03500
O 	O 	0.73690 0.81086 0.95427 -0.39400
C 	C 	0.32280 0.70016 0.56056 0.36400
O 	O 	0.37820 0.73256 0.54636 -0.40700
C 	C 	0.43240 0.62332 0.67247 0.04200
C 	C 	0.36380 0.67289 0.59879 -0.11000
C 	C 	0.34780 0.60838 0.64859 -0.10500
H 	H 	0.31440 0.58160 0.65720 0.06800
C 	C 	0.46810 0.54974 0.71248 -0.11400
H 	H 	0.44720 0.53380 0.68740 0.07100
C 	C 	0.48050 0.66326 0.65907 -0.10900
H 	H 	0.53610 0.67430 0.67500 0.07000
C 	C 	0.31230 0.63300 0.61189 0.03600
H 	H 	0.25510 0.62300 0.59640 0.03400
C 	C 	0.46750 0.59800 0.71248 0.04700
C 	C 	0.44640 0.68724 0.62187 0.04200
H 	H 	0.48100 0.71350 0.61280 0.03100
O 	O 	0.23690 0.68914 0.54573 -0.41000
C 	C 	0.82280 0.20016 0.56056 0.36400
O 	O 	0.87820 0.23256 0.54636 -0.40700
C 	C 	0.93240 0.12332 0.67247 0.04200
C 	C 	0.86380 0.17289 0.59879 -0.11000
C 	C 	0.84780 0.10838 0.64859 -0.10500
H 	H 	0.81440 0.08160 0.65720 0.06800
C 	C 	0.96810 0.04974 0.71248 -0.11400
H 	H 	0.94720 0.03380 0.68740 0.07100
C 	C 	0.98050 0.16326 0.65907 -0.10900
H 	H 	0.03610 0.17430 0.67500 0.06900
C 	C 	0.81230 0.13300 0.61189 0.03600
H 	H 	0.75510 0.12300 0.59640 0.03400
C 	C 	0.96750 0.09800 0.71248 0.04700
C 	C 	0.94640 0.18724 0.62187 0.04200
H 	H 	0.98100 0.21350 0.61280 0.03100
O 	O 	0.73690 0.18914 0.54573 -0.41000
C 	C 	0.67720 0.29984 0.56056 0.36400
O 	O 	0.62180 0.26744 0.54636 -0.40700
C 	C 	0.56760 0.37668 0.67247 0.04200
C 	C 	0.63620 0.32711 0.59879 -0.11000
C 	C 	0.65220 0.39162 0.64859 -0.10500
H 	H 	0.68560 0.41840 0.65720 0.06800
C 	C 	0.53190 0.45026 0.71248 -0.11400
H 	H 	0.55280 0.46620 0.68740 0.07100
C 	C 	0.51950 0.33674 0.65907 -0.10900
H 	H 	0.46390 0.32570 0.67500 0.07000
C 	C 	0.68770 0.36700 0.61189 0.03600
H 	H 	0.74490 0.37700 0.59640 0.03400
C 	C 	0.53250 0.40200 0.71248 0.04700
C 	C 	0.55360 0.31276 0.62187 0.04200
H 	H 	0.51900 0.28650 0.61280 0.03100
O 	O 	0.76310 0.31086 0.54573 -0.41000
C 	C 	0.17720 0.79984 0.56056 0.36400
O 	O 	0.12180 0.76744 0.54636 -0.40700
C 	C 	0.06760 0.87668 0.67247 0.04200
C 	C 	0.13620 0.82711 0.59879 -0.11000
C 	C 	0.15220 0.89162 0.64859 -0.10500
H 	H 	0.18560 0.91840 0.65720 0.06800
C 	C 	0.03190 0.95026 0.71248 -0.11400
H 	H 	0.05280 0.96620 0.68740 0.07100
C 	C 	0.01950 0.83674 0.65907 -0.10900
H 	H 	0.96390 0.82570 0.67500 0.07000
C 	C 	0.18770 0.86700 0.61189 0.03600
H 	H 	0.24490 0.87700 0.59640 0.03400
C 	C 	0.03250 0.90200 0.71248 0.04700
C 	C 	0.05360 0.81276 0.62187 0.04300
H 	H 	0.01900 0.78650 0.61280 0.03100
O 	O 	0.26310 0.81086 0.54573 -0.41000
Cu	Cu	0.33332 0.22469 -0.00000 0.89000
Cu	Cu	0.83332 0.72469 -0.00000 0.89000
Cu	Cu	0.66668 0.77531 -0.00000 0.89000
Cu	Cu	0.16668 0.27531 -0.00000 0.89000
Cu	Cu	0.66668 0.22469 0.50000 0.90400
Cu	Cu	0.16668 0.72469 0.50000 0.90400
Cu	Cu	0.33332 0.77531 0.50000 0.90400
Cu	Cu	0.83332 0.27531 0.50000 0.90400
C 	C 	0.50000 0.47440 0.25000 0.04400
C 	C 	0.50000 0.37886 0.25000 -0.11500
H 	H 	0.50000 0.34690 0.25000 0.07100
C 	C 	-0.00000 0.97440 0.25000 0.04400
C 	C 	-0.00000 0.87886 0.25000 -0.11500
H 	H 	-0.00000 0.84690 0.25000 0.07100
C 	C 	0.50000 0.52560 0.25000 0.04400
C 	C 	0.50000 0.62114 0.25000 -0.11500
H 	H 	0.50000 0.65310 0.25000 0.07100
C 	C 	-0.00000 0.02560 0.25000 0.04400
C 	C 	-0.00000 0.12114 0.25000 -0.11500
H 	H 	0.00000 0.15310 0.25000 0.07100
C 	C 	0.50000 0.52560 0.75000 0.04500
C 	C 	0.50000 0.62114 0.75000 -0.11600
H 	H 	0.50000 0.65310 0.75000 0.07200
C 	C 	0.00000 0.02560 0.75000 0.04500
C 	C 	0.00000 0.12114 0.75000 -0.11600
H 	H 	0.00000 0.15310 0.75000 0.07200
C 	C 	0.50000 0.47440 0.75000 0.04500
C 	C 	0.50000 0.37886 0.75000 -0.11600
H 	H 	0.50000 0.34690 0.75000 0.07200
C 	C 	-0.00000 0.97440 0.75000 0.04500
C 	C 	0.00000 0.87886 0.75000 -0.11600
H 	H 	-0.00000 0.84690 0.75000 0.07200
