data_crystal

_cell_length_a 27.72000
_cell_length_b 27.72000
_cell_length_c 9.71350
_cell_angle_alpha 90.00000
_cell_angle_beta  90.00000
_cell_angle_gamma 120.00000

_symmetry_space_group_name_	'P 1'
_symmetry_space_group_name_H-M	'P 1'

loop_
_symmetry_equiv_pos_as_xyz
  x,y,z

loop_
_atom_site_label
_atom_site_type_symbol
_atom_site_fract_x
_atom_site_fract_y
_atom_site_fract_z
_atom_site_charge
N 	N 	0.54532 0.01378 0.17500 -0.23000
N 	N 	0.59619 0.05340 0.22050 -0.10200
N 	N 	0.55461 0.98687 0.38550 -0.11900
N 	N 	0.44402 0.92958 0.12820 -0.23100
N 	N 	0.74893 0.12611 0.57650 -0.24000
C 	C 	0.39180 0.88980 0.10230 0.08400
H 	H 	0.37690 0.88890 0.01590 -0.01100
C 	C 	0.35910 0.85050 0.19700 -0.14400
H 	H 	0.32260 0.82400 0.17570 0.08000
C 	C 	0.38110 0.85060 0.32460 0.05500
H 	H 	0.35970 0.82370 0.38970 0.01000
C 	C 	0.43430 0.89030 0.35440 -0.11700
H 	H 	0.44960 0.89120 0.44020 0.07700
C 	C 	0.46560 0.92960 0.25450 0.04600
C 	C 	0.52190 0.97550 0.27450 0.08400
C 	C 	0.59930 0.03470 0.34640 0.06500
C 	C 	0.65019 0.06670 0.42940 0.07600
C 	C 	0.69150 0.11830 0.38780 -0.15400
H 	H 	0.68710 0.13410 0.30780 0.08600
C 	C 	0.73910 0.14630 0.46350 0.09000
H 	H 	0.76610 0.18150 0.43410 -0.01100
C 	C 	0.70860 0.07580 0.61640 0.08600
H 	H 	0.71430 0.06040 0.69550 -0.00500
C 	C 	0.65930 0.04570 0.54710 -0.15000
H 	H 	0.63220 0.01110 0.58010 0.08900
N 	N 	0.21199 0.34711 0.50833 -0.21600
N 	N 	0.26286 0.38673 0.55383 -0.09900
N 	N 	0.22128 0.32020 0.71883 -0.12400
N 	N 	0.11069 0.26291 0.46153 -0.24100
N 	N 	0.41560 0.45944 0.90983 -0.24300
C 	C 	0.05847 0.22313 0.43563 0.11200
H 	H 	0.04357 0.22223 0.34923 -0.02100
C 	C 	0.02577 0.18383 0.53033 -0.20200
H 	H 	0.98927 0.15733 0.50903 0.11100
C 	C 	0.04777 0.18393 0.65793 0.09300
H 	H 	0.02637 0.15703 0.72303 -0.00800
C 	C 	0.10097 0.22363 0.68773 -0.14500
H 	H 	0.11627 0.22453 0.77353 0.08700
C 	C 	0.13227 0.26293 0.58783 0.05800
C 	C 	0.18857 0.30883 0.60783 0.06800
C 	C 	0.26597 0.36803 0.67973 0.07500
C 	C 	0.31686 0.40003 0.76273 0.08900
C 	C 	0.35817 0.45163 0.72113 -0.16300
H 	H 	0.35377 0.46743 0.64113 0.09200
C 	C 	0.40577 0.47963 0.79683 0.09800
H 	H 	0.43277 0.51483 0.76743 -0.01100
C 	C 	0.37527 0.40913 0.94973 0.13300
H 	H 	0.38097 0.39373 0.02883 -0.03100
C 	C 	0.32597 0.37903 0.88043 -0.17500
H 	H 	0.29887 0.34443 0.91343 0.10900
N 	N 	0.87865 0.68045 0.84167 -0.21500
N 	N 	0.92952 0.72007 0.88717 -0.08800
N 	N 	0.88794 0.65354 0.05217 -0.12800
N 	N 	0.77735 0.59625 0.79487 -0.25100
N 	N 	0.08226 0.79278 0.24317 -0.24500
C 	C 	0.72513 0.55647 0.76897 0.13500
H 	H 	0.71023 0.55557 0.68257 -0.02400
C 	C 	0.69243 0.51717 0.86367 -0.23100
H 	H 	0.65593 0.49067 0.84237 0.11500
C 	C 	0.71443 0.51727 0.99127 0.19800
H 	H 	0.69303 0.49037 0.05637 -0.05100
C 	C 	0.76763 0.55697 0.02107 -0.24200
H 	H 	0.78293 0.55787 0.10687 0.11600
C 	C 	0.79893 0.59627 0.92117 0.10200
C 	C 	0.85523 0.64217 0.94117 0.06800
C 	C 	0.93263 0.70137 0.01307 0.05400
C 	C 	0.98352 0.73337 0.09607 0.11400
C 	C 	0.02483 0.78497 0.05447 -0.23100
H 	H 	0.02043 0.80077 0.97447 0.12300
C 	C 	0.07243 0.81297 0.13017 0.12400
H 	H 	0.09943 0.84817 0.10077 -0.02600
C 	C 	0.04193 0.74247 0.28307 0.07500
H 	H 	0.04763 0.72707 0.36217 -0.00300
C 	C 	0.99263 0.71237 0.21377 -0.14700
H 	H 	0.96553 0.67777 0.24677 0.09500
N 	N 	0.98622 0.53154 0.17500 -0.20800
N 	N 	0.94660 0.54279 0.22050 -0.10200
N 	N 	0.01313 0.56774 0.38550 -0.13400
N 	N 	0.07042 0.51444 0.12820 -0.23800
N 	N 	0.87389 0.62282 0.57650 -0.23800
C 	C 	0.11020 0.50200 0.10230 0.08400
H 	H 	0.11110 0.48800 0.01590 -0.01400
C 	C 	0.14950 0.50860 0.19700 -0.14700
H 	H 	0.17600 0.49860 0.17570 0.08000
C 	C 	0.14940 0.53050 0.32460 0.05800
H 	H 	0.17630 0.53600 0.38970 0.00900
C 	C 	0.10970 0.54400 0.35440 -0.12400
H 	H 	0.10880 0.55840 0.44020 0.07800
C 	C 	0.07040 0.53600 0.25450 0.05100
C 	C 	0.02450 0.54640 0.27450 0.05600
C 	C 	0.96530 0.56460 0.34640 0.09300
C 	C 	0.93330 0.58349 0.42940 0.07000
C 	C 	0.88170 0.57320 0.38780 -0.14800
H 	H 	0.86590 0.55300 0.30780 0.08500
C 	C 	0.85370 0.59280 0.46350 0.08800
H 	H 	0.81850 0.58460 0.43410 -0.01000
C 	C 	0.92420 0.63280 0.61640 0.08500
H 	H 	0.93960 0.65390 0.69550 0.00000
C 	C 	0.95430 0.61360 0.54710 -0.14300
H 	H 	0.98890 0.62110 0.58010 0.09700
N 	N 	0.65289 0.86487 0.50833 -0.21700
N 	N 	0.61327 0.87612 0.55383 -0.09900
N 	N 	0.67980 0.90107 0.71883 -0.12300
N 	N 	0.73709 0.84777 0.46153 -0.23300
N 	N 	0.54056 0.95615 0.90983 -0.24000
C 	C 	0.77687 0.83533 0.43563 0.08500
H 	H 	0.77777 0.82133 0.34923 -0.00700
C 	C 	0.81617 0.84193 0.53033 -0.14300
H 	H 	0.84267 0.83193 0.50903 0.08300
C 	C 	0.81607 0.86383 0.65793 0.05700
H 	H 	0.84297 0.86933 0.72303 0.01300
C 	C 	0.77637 0.87733 0.68773 -0.12000
H 	H 	0.77547 0.89173 0.77353 0.08100
C 	C 	0.73707 0.86933 0.58783 0.04900
C 	C 	0.69117 0.87973 0.60783 0.07200
C 	C 	0.63197 0.89793 0.67973 0.07700
C 	C 	0.59997 0.91682 0.76273 0.09000
C 	C 	0.54837 0.90653 0.72113 -0.16100
H 	H 	0.53257 0.88633 0.64113 0.09200
C 	C 	0.52037 0.92613 0.79683 0.09900
H 	H 	0.48517 0.91793 0.76743 -0.01000
C 	C 	0.59087 0.96613 0.94973 0.13200
H 	H 	0.60627 0.98723 0.02883 -0.02400
C 	C 	0.62097 0.94693 0.88043 -0.17100
H 	H 	0.65557 0.95443 0.91343 0.11000
N 	N 	0.31955 0.19821 0.84167 -0.21600
N 	N 	0.27993 0.20946 0.88717 -0.09000
N 	N 	0.34646 0.23441 0.05217 -0.12900
N 	N 	0.40375 0.18111 0.79487 -0.25200
N 	N 	0.20722 0.28949 0.24317 -0.24700
C 	C 	0.44353 0.16867 0.76897 0.13700
H 	H 	0.44443 0.15467 0.68257 -0.02500
C 	C 	0.48283 0.17527 0.86367 -0.23500
H 	H 	0.50933 0.16527 0.84237 0.11700
C 	C 	0.48273 0.19717 0.99127 0.20300
H 	H 	0.50963 0.20267 0.05637 -0.05200
C 	C 	0.44303 0.21067 0.02107 -0.24700
H 	H 	0.44213 0.22507 0.10687 0.11800
C 	C 	0.40373 0.20267 0.92117 0.10400
C 	C 	0.35783 0.21307 0.94117 0.06800
C 	C 	0.29863 0.23127 0.01307 0.05400
C 	C 	0.26663 0.25016 0.09607 0.10100
C 	C 	0.21503 0.23987 0.05447 -0.21100
H 	H 	0.19923 0.21967 0.97447 0.11900
C 	C 	0.18703 0.25947 0.13017 0.11800
H 	H 	0.15183 0.25127 0.10077 -0.02500
C 	C 	0.25753 0.29947 0.28307 0.09700
H 	H 	0.27293 0.32057 0.36217 -0.00700
C 	C 	0.28763 0.28027 0.21377 -0.16800
H 	H 	0.32223 0.28777 0.24677 0.10000
N 	N 	0.46846 0.45468 0.17500 -0.21900
N 	N 	0.45721 0.40381 0.22050 -0.10200
N 	N 	0.43226 0.44539 0.38550 -0.12700
N 	N 	0.48556 0.55598 0.12820 -0.23500
N 	N 	0.37718 0.25107 0.57650 -0.23900
C 	C 	0.49800 0.60820 0.10230 0.08400
H 	H 	0.51200 0.62310 0.01590 -0.01300
C 	C 	0.49140 0.64090 0.19700 -0.14600
H 	H 	0.50140 0.67740 0.17570 0.08000
C 	C 	0.46950 0.61890 0.32460 0.05700
H 	H 	0.46400 0.64030 0.38970 0.00900
C 	C 	0.45600 0.56570 0.35440 -0.12100
H 	H 	0.44160 0.55040 0.44020 0.07700
C 	C 	0.46400 0.53440 0.25450 0.04800
C 	C 	0.45360 0.47810 0.27450 0.07000
C 	C 	0.43540 0.40070 0.34640 0.07900
C 	C 	0.41651 0.34981 0.42940 0.07300
C 	C 	0.42680 0.30850 0.38780 -0.15100
H 	H 	0.44700 0.31290 0.30780 0.08500
C 	C 	0.40720 0.26090 0.46350 0.08900
H 	H 	0.41540 0.23390 0.43410 -0.01000
C 	C 	0.36720 0.29140 0.61640 0.08500
H 	H 	0.34610 0.28570 0.69550 -0.00200
C 	C 	0.38640 0.34070 0.54710 -0.14700
H 	H 	0.37890 0.36780 0.58010 0.09300
N 	N 	0.13513 0.78801 0.50833 -0.21800
N 	N 	0.12388 0.73714 0.55383 -0.10000
N 	N 	0.09893 0.77872 0.71883 -0.12600
N 	N 	0.15223 0.88931 0.46153 -0.22600
N 	N 	0.04385 0.58440 0.90983 -0.24500
C 	C 	0.16467 0.94153 0.43563 0.05600
H 	H 	0.17867 0.95643 0.34923 0.00600
C 	C 	0.15807 0.97423 0.53033 -0.08600
H 	H 	0.16807 0.01073 0.50903 0.05000
C 	C 	0.13617 0.95223 0.65793 0.01900
H 	H 	0.13067 0.97363 0.72303 0.02700
C 	C 	0.12267 0.89903 0.68773 -0.09700
H 	H 	0.10827 0.88373 0.77353 0.07100
C 	C 	0.13067 0.86773 0.58783 0.03900
C 	C 	0.12027 0.81143 0.60783 0.07300
C 	C 	0.10207 0.73403 0.67973 0.07400
C 	C 	0.08318 0.68314 0.76273 0.08800
C 	C 	0.09347 0.64183 0.72113 -0.16400
H 	H 	0.11367 0.64623 0.64113 0.09200
C 	C 	0.07387 0.59423 0.79683 0.09700
H 	H 	0.08207 0.56723 0.76743 -0.01100
C 	C 	0.03387 0.62473 0.94973 0.13200
H 	H 	0.01277 0.61903 0.02883 -0.03600
C 	C 	0.05307 0.67403 0.88043 -0.17700
H 	H 	0.04557 0.70113 0.91343 0.10600
N 	N 	0.80179 0.12135 0.84167 -0.21600
N 	N 	0.79054 0.07048 0.88717 -0.09200
N 	N 	0.76559 0.11206 0.05217 -0.13000
N 	N 	0.81889 0.22265 0.79487 -0.25100
N 	N 	0.71051 0.91774 0.24317 -0.24700
C 	C 	0.83133 0.27487 0.76897 0.13500
H 	H 	0.84533 0.28977 0.68257 -0.02400
C 	C 	0.82473 0.30757 0.86367 -0.23200
H 	H 	0.83473 0.34407 0.84237 0.11600
C 	C 	0.80283 0.28557 0.99127 0.19800
H 	H 	0.79733 0.30697 0.05637 -0.05100
C 	C 	0.78933 0.23237 0.02107 -0.24300
H 	H 	0.77493 0.21707 0.10687 0.11600
C 	C 	0.79733 0.20107 0.92117 0.10300
C 	C 	0.78693 0.14477 0.94117 0.06800
C 	C 	0.76873 0.06737 0.01307 0.05600
C 	C 	0.74984 0.01648 0.09607 0.08600
C 	C 	0.76013 0.97517 0.05447 -0.18400
H 	H 	0.78033 0.97957 0.97447 0.11500
C 	C 	0.74053 0.92757 0.13017 0.11000
H 	H 	0.74873 0.90057 0.10077 -0.01900
C 	C 	0.70053 0.95807 0.28307 0.12000
H 	H 	0.67943 0.95237 0.36217 -0.01100
C 	C 	0.71973 0.00737 0.21377 -0.18800
H 	H 	0.71223 0.03447 0.24677 0.10400
N 	N 	0.45468 0.98622 0.82500 -0.20200
N 	N 	0.40381 0.94660 0.77950 -0.09800
N 	N 	0.44539 0.01313 0.61450 -0.13400
N 	N 	0.55598 0.07042 0.87180 -0.23200
N 	N 	0.25107 0.87389 0.42350 -0.23900
C 	C 	0.60820 0.11020 0.89770 0.08500
H 	H 	0.62310 0.11110 0.98410 -0.00200
C 	C 	0.64090 0.14950 0.80300 -0.14400
H 	H 	0.67740 0.17600 0.82430 0.08300
C 	C 	0.61890 0.14940 0.67540 0.05800
H 	H 	0.64030 0.17630 0.61030 0.00900
C 	C 	0.56570 0.10970 0.64560 -0.12400
H 	H 	0.55040 0.10880 0.55980 0.07800
C 	C 	0.53440 0.07040 0.74550 0.05100
C 	C 	0.47810 0.02450 0.72550 0.05800
C 	C 	0.40070 0.96530 0.65360 0.09300
C 	C 	0.34981 0.93330 0.57060 0.07300
C 	C 	0.30850 0.88170 0.61220 -0.15000
H 	H 	0.31290 0.86590 0.69220 0.09000
C 	C 	0.26090 0.85370 0.53650 0.09000
H 	H 	0.23390 0.81850 0.56590 -0.00900
C 	C 	0.29140 0.92420 0.38360 0.08700
H 	H 	0.28570 0.93960 0.30450 -0.00200
C 	C 	0.34070 0.95430 0.45290 -0.14600
H 	H 	0.36780 0.98890 0.41990 0.09900
N 	N 	0.12135 0.31955 0.15833 -0.21900
N 	N 	0.07048 0.27993 0.11283 -0.11300
N 	N 	0.11206 0.34646 0.94783 -0.12400
N 	N 	0.22265 0.40375 0.20513 -0.21400
N 	N 	0.91774 0.20722 0.75683 -0.23300
C 	C 	0.27487 0.44353 0.23103 0.03100
H 	H 	0.28977 0.44443 0.31743 0.01100
C 	C 	0.30757 0.48283 0.13633 -0.05100
H 	H 	0.34407 0.50933 0.15763 0.04600
C 	C 	0.28557 0.48273 0.00873 -0.09400
H 	H 	0.30697 0.50963 0.94363 0.07300
C 	C 	0.23237 0.44303 0.97893 0.01000
H 	H 	0.21707 0.44213 0.89313 0.03600
C 	C 	0.20107 0.40373 0.07883 -0.00900
C 	C 	0.14477 0.35783 0.05883 0.07200
C 	C 	0.06737 0.29863 0.98693 0.10500
C 	C 	0.01648 0.26663 0.90393 0.03700
C 	C 	0.97517 0.21503 0.94553 -0.07700
H 	H 	0.97957 0.19923 0.02553 0.05600
C 	C 	0.92757 0.18703 0.86983 0.05800
H 	H 	0.90057 0.15183 0.89923 0.00500
C 	C 	0.95807 0.25753 0.71693 0.09800
H 	H 	0.95237 0.27293 0.63783 -0.00300
C 	C 	0.00737 0.28763 0.78623 -0.14900
H 	H 	0.03447 0.32223 0.75323 0.09200
N 	N 	0.78801 0.65289 0.49167 -0.21800
N 	N 	0.73714 0.61327 0.44617 -0.10000
N 	N 	0.77872 0.67980 0.28117 -0.12900
N 	N 	0.88931 0.73709 0.53847 -0.22600
N 	N 	0.58440 0.54056 0.09017 -0.23300
C 	C 	0.94153 0.77687 0.56437 0.05700
H 	H 	0.95643 0.77777 0.65077 0.00700
C 	C 	0.97423 0.81617 0.46967 -0.08600
H 	H 	0.01073 0.84267 0.49097 0.05200
C 	C 	0.95223 0.81607 0.34207 0.02000
H 	H 	0.97363 0.84297 0.27697 0.02700
C 	C 	0.89903 0.77637 0.31227 -0.09600
H 	H 	0.88373 0.77547 0.22647 0.06800
C 	C 	0.86773 0.73707 0.41217 0.03800
C 	C 	0.81143 0.69117 0.39217 0.07300
C 	C 	0.73403 0.63197 0.32027 0.08300
C 	C 	0.68314 0.59997 0.23727 0.06000
C 	C 	0.64183 0.54837 0.27887 -0.14100
H 	H 	0.64623 0.53257 0.35887 0.08500
C 	C 	0.59423 0.52037 0.20317 0.08200
H 	H 	0.56723 0.48517 0.23257 -0.00900
C 	C 	0.62473 0.59087 0.05027 0.04200
H 	H 	0.61903 0.60627 0.97117 0.02300
C 	C 	0.67403 0.62097 0.11957 -0.12200
H 	H 	0.70113 0.65557 0.08657 0.07900
N 	N 	0.01378 0.46846 0.82500 -0.22200
N 	N 	0.05340 0.45721 0.77950 -0.09700
N 	N 	0.98687 0.43226 0.61450 -0.11900
N 	N 	0.92958 0.48556 0.87180 -0.22600
N 	N 	0.12611 0.37718 0.42350 -0.24000
C 	C 	0.88980 0.49800 0.89770 0.08400
H 	H 	0.88890 0.51200 0.98410 0.00000
C 	C 	0.85050 0.49140 0.80300 -0.14100
H 	H 	0.82400 0.50140 0.82430 0.08200
C 	C 	0.85060 0.46950 0.67540 0.05500
H 	H 	0.82370 0.46400 0.61030 0.01000
C 	C 	0.89030 0.45600 0.64560 -0.11800
H 	H 	0.89120 0.44160 0.55980 0.07700
C 	C 	0.92960 0.46400 0.74550 0.04700
C 	C 	0.97550 0.45360 0.72550 0.08500
C 	C 	0.03470 0.43540 0.65360 0.06500
C 	C 	0.06670 0.41651 0.57060 0.07900
C 	C 	0.11830 0.42680 0.61220 -0.15600
H 	H 	0.13410 0.44700 0.69220 0.09200
C 	C 	0.14630 0.40720 0.53650 0.09200
H 	H 	0.18150 0.41540 0.56590 -0.01000
C 	C 	0.07580 0.36720 0.38360 0.08800
H 	H 	0.06040 0.34610 0.30450 -0.00700
C 	C 	0.04570 0.38640 0.45290 -0.15300
H 	H 	0.01110 0.37890 0.41990 0.09000
N 	N 	0.68045 0.80179 0.15833 -0.21800
N 	N 	0.72007 0.79054 0.11283 -0.10900
N 	N 	0.65354 0.76559 0.94783 -0.12400
N 	N 	0.59625 0.81889 0.20513 -0.21500
N 	N 	0.79278 0.71051 0.75683 -0.23200
C 	C 	0.55647 0.83133 0.23103 0.03300
H 	H 	0.55557 0.84533 0.31743 0.01100
C 	C 	0.51717 0.82473 0.13633 -0.05400
H 	H 	0.49067 0.83473 0.15763 0.04700
C 	C 	0.51727 0.80283 0.00873 -0.08900
H 	H 	0.49037 0.79733 0.94363 0.07100
C 	C 	0.55697 0.78933 0.97893 0.00500
H 	H 	0.55787 0.77493 0.89313 0.03700
C 	C 	0.59627 0.79733 0.07883 -0.00700
C 	C 	0.64217 0.78693 0.05883 0.07300
C 	C 	0.70137 0.76873 0.98693 0.10300
C 	C 	0.73337 0.74984 0.90393 0.04900
C 	C 	0.78497 0.76013 0.94553 -0.09700
H 	H 	0.80077 0.78033 0.02553 0.06000
C 	C 	0.81297 0.74053 0.86983 0.06400
H 	H 	0.84817 0.74873 0.89923 0.00400
C 	C 	0.74247 0.70053 0.71693 0.07600
H 	H 	0.72707 0.67943 0.63783 0.00000
C 	C 	0.71237 0.71973 0.78623 -0.12900
H 	H 	0.67777 0.71223 0.75323 0.08800
N 	N 	0.34711 0.13513 0.49167 -0.21700
N 	N 	0.38673 0.12388 0.44617 -0.10100
N 	N 	0.32020 0.09893 0.28117 -0.13000
N 	N 	0.26291 0.15223 0.53847 -0.23300
N 	N 	0.45944 0.04385 0.09017 -0.23500
C 	C 	0.22313 0.16467 0.56437 0.08400
H 	H 	0.22223 0.17867 0.65077 -0.00700
C 	C 	0.18383 0.15807 0.46967 -0.14500
H 	H 	0.15733 0.16807 0.49097 0.08000
C 	C 	0.18393 0.13617 0.34207 0.05600
H 	H 	0.15703 0.13067 0.27697 0.00500
C 	C 	0.22363 0.12267 0.31227 -0.12100
H 	H 	0.22453 0.10827 0.22647 0.07300
C 	C 	0.26293 0.13067 0.41217 0.04700
C 	C 	0.30883 0.12027 0.39217 0.06900
C 	C 	0.36803 0.10207 0.32027 0.08100
C 	C 	0.40003 0.08318 0.23727 0.05700
C 	C 	0.45163 0.09347 0.27887 -0.14200
H 	H 	0.46743 0.11367 0.35887 0.08400
C 	C 	0.47963 0.07387 0.20317 0.08000
H 	H 	0.51483 0.08207 0.23257 -0.00900
C 	C 	0.40913 0.03387 0.05027 0.03800
H 	H 	0.39373 0.01277 0.97117 0.02000
C 	C 	0.37903 0.05307 0.11957 -0.12300
H 	H 	0.34443 0.04557 0.08657 0.07600
N 	N 	0.53154 0.54532 0.82500 -0.21300
N 	N 	0.54279 0.59619 0.77950 -0.09800
N 	N 	0.56774 0.55461 0.61450 -0.12600
N 	N 	0.51444 0.44402 0.87180 -0.22900
N 	N 	0.62282 0.74893 0.42350 -0.23900
C 	C 	0.50200 0.39180 0.89770 0.08500
H 	H 	0.48800 0.37690 0.98410 -0.00100
C 	C 	0.50860 0.35910 0.80300 -0.14200
H 	H 	0.49860 0.32260 0.82430 0.08300
C 	C 	0.53050 0.38110 0.67540 0.05600
H 	H 	0.53600 0.35970 0.61030 0.00900
C 	C 	0.54400 0.43430 0.64560 -0.12000
H 	H 	0.55840 0.44960 0.55980 0.07700
C 	C 	0.53600 0.46560 0.74550 0.04900
C 	C 	0.54640 0.52190 0.72550 0.07100
C 	C 	0.56460 0.59930 0.65360 0.07900
C 	C 	0.58349 0.65019 0.57060 0.07600
C 	C 	0.57320 0.69150 0.61220 -0.15300
H 	H 	0.55300 0.68710 0.69220 0.09100
C 	C 	0.59280 0.73910 0.53650 0.09100
H 	H 	0.58460 0.76610 0.56590 -0.00900
C 	C 	0.63280 0.70860 0.38360 0.08700
H 	H 	0.65390 0.71430 0.30450 -0.00500
C 	C 	0.61360 0.65930 0.45290 -0.15000
H 	H 	0.62110 0.63220 0.41990 0.09400
N 	N 	0.19821 0.87865 0.15833 -0.21900
N 	N 	0.20946 0.92952 0.11283 -0.10800
N 	N 	0.23441 0.88794 0.94783 -0.12300
N 	N 	0.18111 0.77735 0.20513 -0.21400
N 	N 	0.28949 0.08226 0.75683 -0.23000
C 	C 	0.16867 0.72513 0.23103 0.03100
H 	H 	0.15467 0.71023 0.31743 0.01100
C 	C 	0.17527 0.69243 0.13633 -0.05200
H 	H 	0.16527 0.65593 0.15763 0.04600
C 	C 	0.19717 0.71443 0.00873 -0.09200
H 	H 	0.20267 0.69303 0.94363 0.07300
C 	C 	0.21067 0.76763 0.97893 0.00800
H 	H 	0.22507 0.78293 0.89313 0.03600
C 	C 	0.20267 0.79893 0.07883 -0.00900
C 	C 	0.21307 0.85523 0.05883 0.07400
C 	C 	0.23127 0.93263 0.98693 0.10400
C 	C 	0.25016 0.98352 0.90393 0.05900
C 	C 	0.23987 0.02483 0.94553 -0.11400
H 	H 	0.21967 0.02043 0.02553 0.05800
C 	C 	0.25947 0.07243 0.86983 0.06700
H 	H 	0.25127 0.09943 0.89923 0.00100
C 	C 	0.29947 0.04193 0.71693 0.05300
H 	H 	0.32057 0.04763 0.63783 0.00500
C 	C 	0.28027 0.99263 0.78623 -0.10700
H 	H 	0.28777 0.96553 0.75323 0.08300
N 	N 	0.86487 0.21199 0.49167 -0.21600
N 	N 	0.87612 0.26286 0.44617 -0.10000
N 	N 	0.90107 0.22128 0.28117 -0.12700
N 	N 	0.84777 0.11069 0.53847 -0.24000
N 	N 	0.95615 0.41560 0.09017 -0.23000
C 	C 	0.83533 0.05847 0.56437 0.11300
H 	H 	0.82133 0.04357 0.65077 -0.02000
C 	C 	0.84193 0.02577 0.46967 -0.20200
H 	H 	0.83193 0.98927 0.49097 0.11300
C 	C 	0.86383 0.04777 0.34207 0.09400
H 	H 	0.86933 0.02637 0.27697 -0.00900
C 	C 	0.87733 0.10097 0.31227 -0.14400
H 	H 	0.89173 0.11627 0.22647 0.08400
C 	C 	0.86933 0.13227 0.41217 0.05800
C 	C 	0.87973 0.18857 0.39217 0.06800
C 	C 	0.89793 0.26597 0.32027 0.08400
C 	C 	0.91682 0.31686 0.23727 0.06100
C 	C 	0.90653 0.35817 0.27887 -0.14000
H 	H 	0.88633 0.35377 0.35887 0.08500
C 	C 	0.92613 0.40577 0.20317 0.08400
H 	H 	0.91793 0.43277 0.23257 -0.00800
C 	C 	0.96613 0.37527 0.05027 0.04400
H 	H 	0.98723 0.38097 0.97117 0.02800
C 	C 	0.94693 0.32597 0.11957 -0.12100
H 	H 	0.95443 0.29887 0.08657 0.08200
Co	Co	0.50000 0.00000 -0.00000 1.10800
Co	Co	0.16667 0.33333 0.33333 1.12200
Co	Co	0.83333 0.66667 0.66667 1.12200
Co	Co	-0.00000 0.50000 -0.00000 1.10800
Co	Co	0.66667 0.83333 0.33333 1.12200
Co	Co	0.33333 0.16667 0.66667 1.12200
Co	Co	0.50000 0.50000 -0.00000 1.11500
Co	Co	0.16667 0.83333 0.33333 1.12200
Co	Co	0.83333 0.16667 0.66667 1.12200
