data_crystal

_cell_length_a 9.00300
_cell_length_b 17.38200
_cell_length_c 17.05700
_cell_angle_alpha 90.00000
_cell_angle_beta  104.59500
_cell_angle_gamma 90.00000

_symmetry_space_group_name_	'P 1'
_symmetry_space_group_name_H-M	'P 1'

loop_
_symmetry_equiv_pos_as_xyz
  x,y,z

loop_
_atom_site_label
_atom_site_type_symbol
_atom_site_fract_x
_atom_site_fract_y
_atom_site_fract_z
_atom_site_charge
Cd	Cd	0.38438 0.06015 0.21475 1.20000
N 	N 	0.76210 0.90500 0.17940 -0.30600
C 	C 	0.68920 0.95580 0.28290 -0.02900
H 	H 	0.68270 0.96780 0.33630 0.03700
C 	C 	0.80720 0.66750 0.23020 -0.02800
H 	H 	0.75380 0.63020 0.25340 0.02300
N 	N 	0.95770 0.66140 0.22570 -0.23400
N 	N 	0.00210 0.88780 0.12860 -0.30600
N 	N 	0.74500 0.84850 0.04080 -0.30300
C 	C 	0.07140 0.95140 0.16890 0.12100
H 	H 	0.02940 0.98130 0.20470 -0.02400
C 	C 	0.64200 0.95260 0.15280 0.13400
H 	H 	0.59670 0.96220 0.09710 -0.04400
N 	N 	0.86190 0.77230 0.16980 -0.29700
O 	O 	0.20640 0.08750 0.29320 -0.38600
C 	C 	0.74750 0.73470 0.19670 0.03900
H 	H 	0.64620 0.75280 0.19230 0.00500
N 	N 	0.20410 0.96610 0.15210 -0.23100
C 	C 	0.98680 0.72510 0.18920 0.12400
H 	H 	0.08260 0.73640 0.17800 -0.03000
N 	N 	0.64890 0.88080 0.91080 -0.24400
N 	N 	0.59350 0.98450 0.21210 -0.24100
C 	C 	0.10030 0.86230 0.08340 0.04100
H 	H 	0.08450 0.81920 0.04810 0.00100
O 	O 	0.38840 0.00520 0.34660 -0.37300
C 	C 	0.79360 0.90790 0.26370 0.04500
H 	H 	0.87350 0.88130 0.30080 0.00500
C 	C 	0.75490 0.89500 0.97840 0.11900
H 	H 	0.83060 0.93400 0.98280 -0.03800
C 	C 	0.04530 0.04830 0.41110 -0.04900
H 	H 	0.99930 0.08420 0.37020 0.05600
C 	C 	0.96570 0.02710 0.46980 0.02200
C 	C 	0.22310 0.91000 0.09880 -0.02300
H 	H 	0.30890 0.90550 0.07620 0.01600
C 	C 	0.18670 0.01850 0.41160 -0.06300
B 	B 	0.84460 0.85370 0.12940 0.90900
C 	C 	0.25700 0.96530 0.47370 -0.00300
H 	H 	0.35610 0.94530 0.47580 0.04600
C 	C 	0.56390 0.82150 0.93060 -0.03100
H 	H 	0.47790 0.79810 0.89450 0.02300
C 	C 	0.62120 0.80140 0.00940 0.04600
H 	H 	0.58290 0.76210 0.03770 0.00300
C 	C 	0.26670 0.03890 0.34730 0.29800
C 	C 	0.18070 0.94310 0.53060 -0.08100
H 	H 	0.22750 0.90690 0.57100 0.05500
Cd	Cd	0.11562 0.56015 0.28525 1.19900
N 	N 	0.73790 0.40500 0.32060 -0.30700
C 	C 	0.81080 0.45580 0.21710 -0.03100
H 	H 	0.81730 0.46780 0.16370 0.03600
C 	C 	0.69280 0.16750 0.26980 -0.02900
H 	H 	0.74620 0.13020 0.24660 0.02100
N 	N 	0.54230 0.16140 0.27430 -0.23400
N 	N 	0.49790 0.38780 0.37140 -0.30600
N 	N 	0.75500 0.34850 0.45920 -0.30300
C 	C 	0.42860 0.45140 0.33110 0.12100
H 	H 	0.47060 0.48130 0.29530 -0.02500
C 	C 	0.85800 0.45260 0.34720 0.13400
H 	H 	0.90330 0.46220 0.40290 -0.04400
N 	N 	0.63810 0.27230 0.33020 -0.29700
O 	O 	0.29360 0.58750 0.20680 -0.38600
C 	C 	0.75250 0.23470 0.30330 0.03900
H 	H 	0.85380 0.25280 0.30770 0.00500
N 	N 	0.29590 0.46610 0.34790 -0.23100
C 	C 	0.51320 0.22510 0.31080 0.12500
H 	H 	0.41740 0.23640 0.32200 -0.03000
N 	N 	0.85110 0.38080 0.58920 -0.24400
N 	N 	0.90650 0.48450 0.28790 -0.24100
C 	C 	0.39970 0.36230 0.41660 0.04100
H 	H 	0.41550 0.31920 0.45190 0.00100
O 	O 	0.11160 0.50520 0.15340 -0.37300
C 	C 	0.70640 0.40790 0.23630 0.04600
H 	H 	0.62650 0.38130 0.19920 0.00500
C 	C 	0.74510 0.39500 0.52160 0.12100
H 	H 	0.66940 0.43400 0.51720 -0.03700
C 	C 	0.45470 0.54830 0.08890 -0.04700
H 	H 	0.50070 0.58420 0.12980 0.05500
C 	C 	0.53430 0.52710 0.03020 0.02000
C 	C 	0.27690 0.41000 0.40120 -0.02300
H 	H 	0.19110 0.40550 0.42380 0.01600
C 	C 	0.31330 0.51850 0.08840 -0.06300
B 	B 	0.65540 0.35370 0.37060 0.90900
C 	C 	0.24300 0.46530 0.02630 -0.00400
H 	H 	0.14390 0.44530 0.02420 0.04600
C 	C 	0.93610 0.32150 0.56940 -0.02700
H 	H 	0.02210 0.29810 0.60550 0.02200
C 	C 	0.87880 0.30140 0.49060 0.04300
H 	H 	0.91710 0.26210 0.46230 0.00300
C 	C 	0.23330 0.53890 0.15270 0.29800
C 	C 	0.31930 0.44310 0.96940 -0.08000
H 	H 	0.27250 0.40690 0.92900 0.05500
Cd	Cd	0.61562 0.93985 0.78525 1.19900
N 	N 	0.23790 0.09500 0.82060 -0.30700
C 	C 	0.31080 0.04420 0.71710 -0.03000
H 	H 	0.31730 0.03220 0.66370 0.03600
C 	C 	0.19280 0.33250 0.76980 -0.02900
H 	H 	0.24620 0.36980 0.74660 0.02200
N 	N 	0.04230 0.33860 0.77430 -0.23400
N 	N 	0.99790 0.11220 0.87140 -0.30600
N 	N 	0.25500 0.15150 0.95920 -0.30300
C 	C 	0.92860 0.04860 0.83110 0.12100
H 	H 	0.97060 0.01870 0.79530 -0.02400
C 	C 	0.35800 0.04740 0.84720 0.13400
H 	H 	0.40330 0.03780 0.90290 -0.04400
N 	N 	0.13810 0.22770 0.83020 -0.29700
O 	O 	0.79360 0.91250 0.70680 -0.38600
C 	C 	0.25250 0.26530 0.80330 0.03900
H 	H 	0.35380 0.24720 0.80770 0.00500
N 	N 	0.79590 0.03390 0.84790 -0.23100
C 	C 	0.01320 0.27490 0.81080 0.12400
H 	H 	0.91740 0.26360 0.82200 -0.03000
N 	N 	0.35110 0.11920 0.08920 -0.24400
N 	N 	0.40650 0.01550 0.78790 -0.24100
C 	C 	0.89970 0.13770 0.91660 0.04100
H 	H 	0.91550 0.18080 0.95190 0.00100
O 	O 	0.61160 0.99480 0.65340 -0.37300
C 	C 	0.20640 0.09210 0.73630 0.04500
H 	H 	0.12650 0.11870 0.69920 0.00500
C 	C 	0.24510 0.10500 0.02160 0.11900
H 	H 	0.16940 0.06600 0.01720 -0.03800
C 	C 	0.95470 0.95170 0.58890 -0.04900
H 	H 	0.00070 0.91580 0.62980 0.05600
C 	C 	0.03430 0.97290 0.53020 0.02200
C 	C 	0.77690 0.09000 0.90120 -0.02300
H 	H 	0.69110 0.09450 0.92380 0.01600
C 	C 	0.81330 0.98150 0.58840 -0.06300
B 	B 	0.15540 0.14630 0.87060 0.90900
C 	C 	0.74300 0.03470 0.52630 -0.00300
H 	H 	0.64390 0.05470 0.52420 0.04600
C 	C 	0.43610 0.17850 0.06940 -0.03100
H 	H 	0.52210 0.20190 0.10550 0.02300
C 	C 	0.37880 0.19860 0.99060 0.04600
H 	H 	0.41710 0.23790 0.96230 0.00300
C 	C 	0.73330 0.96110 0.65270 0.29800
C 	C 	0.81930 0.05690 0.46940 -0.08100
H 	H 	0.77250 0.09310 0.42900 0.05500
Cd	Cd	0.88438 0.43985 0.71475 1.19900
N 	N 	0.26210 0.59500 0.67940 -0.30700
C 	C 	0.18920 0.54420 0.78290 -0.03100
H 	H 	0.18270 0.53220 0.83630 0.03600
C 	C 	0.30720 0.83250 0.73020 -0.02900
H 	H 	0.25380 0.86980 0.75340 0.02100
N 	N 	0.45770 0.83860 0.72570 -0.23400
N 	N 	0.50210 0.61220 0.62860 -0.30600
N 	N 	0.24500 0.65150 0.54080 -0.30300
C 	C 	0.57140 0.54860 0.66890 0.12100
H 	H 	0.52940 0.51870 0.70470 -0.02500
C 	C 	0.14200 0.54740 0.65280 0.13400
H 	H 	0.09670 0.53780 0.59710 -0.04400
N 	N 	0.36190 0.72770 0.66980 -0.29700
O 	O 	0.70640 0.41250 0.79320 -0.38600
C 	C 	0.24750 0.76530 0.69670 0.03900
H 	H 	0.14620 0.74720 0.69230 0.00500
N 	N 	0.70410 0.53390 0.65210 -0.23100
C 	C 	0.48680 0.77490 0.68920 0.12500
H 	H 	0.58260 0.76360 0.67800 -0.03000
N 	N 	0.14890 0.61920 0.41080 -0.24400
N 	N 	0.09350 0.51550 0.71210 -0.24100
C 	C 	0.60030 0.63770 0.58340 0.04100
H 	H 	0.58450 0.68080 0.54810 0.00100
O 	O 	0.88840 0.49480 0.84660 -0.37300
C 	C 	0.29360 0.59210 0.76370 0.04600
H 	H 	0.37350 0.61870 0.80080 0.00500
C 	C 	0.25490 0.60500 0.47840 0.12100
H 	H 	0.33060 0.56600 0.48280 -0.03700
C 	C 	0.54530 0.45170 0.91110 -0.04700
H 	H 	0.49930 0.41580 0.87020 0.05500
C 	C 	0.46570 0.47290 0.96980 0.02000
C 	C 	0.72310 0.59000 0.59880 -0.02300
H 	H 	0.80890 0.59450 0.57620 0.01600
C 	C 	0.68670 0.48150 0.91160 -0.06300
B 	B 	0.34460 0.64630 0.62940 0.90900
C 	C 	0.75700 0.53470 0.97370 -0.00400
H 	H 	0.85610 0.55470 0.97580 0.04600
C 	C 	0.06390 0.67850 0.43060 -0.02700
H 	H 	0.97790 0.70190 0.39450 0.02200
C 	C 	0.12120 0.69860 0.50940 0.04300
H 	H 	0.08290 0.73790 0.53770 0.00300
C 	C 	0.76670 0.46110 0.84730 0.29800
C 	C 	0.68070 0.55690 0.03060 -0.08000
H 	H 	0.72750 0.59310 0.07100 0.05500
