data_crystal

_cell_length_a 18.65700
_cell_length_b 18.65700
_cell_length_c 38.05330
_cell_angle_alpha 90.00000
_cell_angle_beta  90.00000
_cell_angle_gamma 120.00000

_symmetry_space_group_name_	'P 1'
_symmetry_space_group_name_H-M	'P 1'

loop_
_symmetry_equiv_pos_as_xyz
  x,y,z

loop_
_atom_site_label
_atom_site_type_symbol
_atom_site_fract_x
_atom_site_fract_y
_atom_site_fract_z
_atom_site_charge
O 	O 	0.81561 0.03828 0.16283 -0.40700
O 	O 	0.77533 0.07770 0.21103 -0.41100
C 	C 	0.78684 0.02722 0.19355 0.35700
C 	C 	0.76538 0.94700 0.21086 -0.08600
C 	C 	0.73576 0.93197 0.24542 -0.01800
H 	H 	0.72580 0.97020 0.25690 0.04800
C 	C 	0.64800 0.76770 0.31192 -0.40600
C 	C 	0.70990 0.91190 0.32099 0.29800
H 	H 	0.73750 0.96700 0.31150 -0.07200
H 	H 	0.63120 0.72100 0.29620 0.15900
N 	N 	0.68533 0.78637 0.35475 -0.29400
O 	O 	0.48228 0.37161 0.49616 -0.40700
O 	O 	0.44200 0.41103 0.54436 -0.41100
C 	C 	0.45351 0.36055 0.52688 0.35800
C 	C 	0.43205 0.28033 0.54419 -0.08700
C 	C 	0.40243 0.26530 0.57875 -0.01700
H 	H 	0.39247 0.30353 0.59023 0.04700
C 	C 	0.31467 0.10103 0.64525 -0.41600
C 	C 	0.37657 0.24523 0.65432 0.28900
H 	H 	0.40417 0.30033 0.64483 -0.06900
H 	H 	0.29787 0.05433 0.62953 0.16200
N 	N 	0.35200 0.11970 0.68808 -0.29700
O 	O 	0.14894 0.70495 0.82950 -0.40700
O 	O 	0.10866 0.74437 0.87770 -0.41100
C 	C 	0.12017 0.69389 0.86022 0.35900
C 	C 	0.09871 0.61367 0.87753 -0.08600
C 	C 	0.06909 0.59864 0.91209 -0.01600
H 	H 	0.05913 0.63687 0.92357 0.04800
C 	C 	0.98133 0.43437 0.97859 -0.40600
C 	C 	0.04323 0.57857 0.98766 0.29200
H 	H 	0.07083 0.63367 0.97817 -0.06900
H 	H 	0.96453 0.38767 0.96287 0.16000
N 	N 	0.01867 0.45303 0.02141 -0.29300
O 	O 	0.96172 0.77733 0.16283 -0.40600
O 	O 	0.92230 0.69763 0.21103 -0.41000
C 	C 	0.97278 0.75962 0.19355 0.35800
C 	C 	0.05300 0.81838 0.21086 -0.08500
C 	C 	0.06803 0.80379 0.24542 -0.01800
H 	H 	0.02980 0.75560 0.25690 0.04900
C 	C 	0.23230 0.88030 0.31192 -0.40400
C 	C 	0.08810 0.79800 0.32099 0.30000
H 	H 	0.03300 0.77050 0.31150 -0.07100
H 	H 	0.27900 0.91020 0.29620 0.15900
N 	N 	0.21363 0.89897 0.35475 -0.29300
O 	O 	0.62839 0.11066 0.49616 -0.40600
O 	O 	0.58897 0.03096 0.54436 -0.41000
C 	C 	0.63945 0.09295 0.52688 0.35900
C 	C 	0.71967 0.15171 0.54419 -0.08600
C 	C 	0.73470 0.13712 0.57875 -0.01600
H 	H 	0.69647 0.08893 0.59023 0.04800
C 	C 	0.89897 0.21363 0.64525 -0.41600
C 	C 	0.75477 0.13133 0.65432 0.29000
H 	H 	0.69967 0.10383 0.64483 -0.06800
H 	H 	0.94567 0.24353 0.62953 0.16300
N 	N 	0.88030 0.23230 0.68808 -0.29600
O 	O 	0.29505 0.44400 0.82950 -0.40600
O 	O 	0.25563 0.36430 0.87770 -0.41000
C 	C 	0.30611 0.42629 0.86022 0.35800
C 	C 	0.38633 0.48505 0.87753 -0.08600
C 	C 	0.40136 0.47046 0.91209 -0.01700
H 	H 	0.36313 0.42227 0.92357 0.04900
C 	C 	0.56563 0.54697 0.97859 -0.41100
C 	C 	0.42143 0.46467 0.98766 0.29500
H 	H 	0.36633 0.43717 0.97817 -0.07000
H 	H 	0.61233 0.57687 0.96287 0.16100
N 	N 	0.54697 0.56563 0.02141 -0.29400
O 	O 	0.22267 0.18439 0.16283 -0.40600
O 	O 	0.30237 0.22467 0.21103 -0.41000
C 	C 	0.24038 0.21316 0.19355 0.35800
C 	C 	0.18162 0.23462 0.21086 -0.08500
C 	C 	0.19621 0.26424 0.24542 -0.01700
H 	H 	0.24440 0.27420 0.25690 0.04900
C 	C 	0.11970 0.35200 0.31192 -0.40500
C 	C 	0.20200 0.29010 0.32099 0.29900
H 	H 	0.22950 0.26250 0.31150 -0.07100
H 	H 	0.08980 0.36880 0.29620 0.16000
N 	N 	0.10103 0.31467 0.35475 -0.29300
O 	O 	0.88934 0.51772 0.49616 -0.40600
O 	O 	0.96904 0.55800 0.54436 -0.41000
C 	C 	0.90705 0.54649 0.52688 0.35900
C 	C 	0.84829 0.56795 0.54419 -0.08600
C 	C 	0.86288 0.59757 0.57875 -0.01600
H 	H 	0.91107 0.60753 0.59023 0.04800
C 	C 	0.78637 0.68533 0.64525 -0.41500
C 	C 	0.86867 0.62343 0.65432 0.29100
H 	H 	0.89617 0.59583 0.64483 -0.06800
H 	H 	0.75647 0.70213 0.62953 0.16300
N 	N 	0.76770 0.64800 0.68808 -0.29600
O 	O 	0.55600 0.85106 0.82950 -0.40600
O 	O 	0.63570 0.89134 0.87770 -0.41000
C 	C 	0.57371 0.87983 0.86022 0.35800
C 	C 	0.51495 0.90129 0.87753 -0.08600
C 	C 	0.52954 0.93091 0.91209 -0.01600
H 	H 	0.57773 0.94087 0.92357 0.04900
C 	C 	0.45303 0.01867 0.97859 -0.40600
C 	C 	0.53533 0.95677 0.98766 0.29200
H 	H 	0.56283 0.92917 0.97817 -0.06900
H 	H 	0.42313 0.03547 0.96287 0.16000
N 	N 	0.43437 0.98133 0.02141 -0.29300
O 	O 	0.03828 0.81561 0.83717 -0.40600
O 	O 	0.07770 0.77533 0.78897 -0.41000
C 	C 	0.02722 0.78684 0.80645 0.35800
C 	C 	0.94700 0.76538 0.78914 -0.08500
C 	C 	0.93197 0.73576 0.75458 -0.01900
H 	H 	0.97020 0.72580 0.74310 0.04900
C 	C 	0.91190 0.70990 0.67901 0.29000
H 	H 	0.96700 0.73750 0.68850 -0.06100
H 	H 	0.72100 0.63120 0.70380 0.11800
O 	O 	0.70495 0.14894 0.17050 -0.40600
O 	O 	0.74437 0.10866 0.12230 -0.41000
C 	C 	0.69389 0.12017 0.13978 0.35800
C 	C 	0.61367 0.09871 0.12247 -0.08500
C 	C 	0.59864 0.06909 0.08791 -0.01800
H 	H 	0.63687 0.05913 0.07643 0.04800
C 	C 	0.57857 0.04323 0.01234 0.28900
H 	H 	0.63367 0.07083 0.02183 -0.06100
H 	H 	0.38767 0.96453 0.03713 0.11800
O 	O 	0.37161 0.48228 0.50384 -0.40600
O 	O 	0.41103 0.44200 0.45564 -0.41000
C 	C 	0.36055 0.45351 0.47312 0.35800
C 	C 	0.28033 0.43205 0.45581 -0.08600
C 	C 	0.26530 0.40243 0.42125 -0.01700
H 	H 	0.30353 0.39247 0.40977 0.04800
C 	C 	0.24523 0.37657 0.34568 0.29500
H 	H 	0.30033 0.40417 0.35517 -0.06300
H 	H 	0.05433 0.29787 0.37047 0.11800
O 	O 	0.77733 0.96172 0.83717 -0.40600
O 	O 	0.69763 0.92230 0.78897 -0.41000
C 	C 	0.75962 0.97278 0.80645 0.35800
C 	C 	0.81838 0.05300 0.78914 -0.08400
C 	C 	0.80379 0.06803 0.75458 -0.01900
H 	H 	0.75560 0.02980 0.74310 0.04900
C 	C 	0.79800 0.08810 0.67901 0.28900
H 	H 	0.77050 0.03300 0.68850 -0.06100
H 	H 	0.91020 0.27900 0.70380 0.11800
O 	O 	0.44400 0.29505 0.17050 -0.40600
O 	O 	0.36430 0.25563 0.12230 -0.41000
C 	C 	0.42629 0.30611 0.13978 0.35800
C 	C 	0.48505 0.38633 0.12247 -0.08500
C 	C 	0.47046 0.40136 0.08791 -0.01800
H 	H 	0.42227 0.36313 0.07643 0.04800
C 	C 	0.46467 0.42143 0.01234 0.29300
H 	H 	0.43717 0.36633 0.02183 -0.06200
H 	H 	0.57687 0.61233 0.03713 0.11800
O 	O 	0.11066 0.62839 0.50384 -0.40600
O 	O 	0.03096 0.58897 0.45564 -0.41000
C 	C 	0.09295 0.63945 0.47312 0.35800
C 	C 	0.15171 0.71967 0.45581 -0.08600
C 	C 	0.13712 0.73470 0.42125 -0.01700
H 	H 	0.08893 0.69647 0.40977 0.04800
C 	C 	0.13133 0.75477 0.34568 0.29600
H 	H 	0.10383 0.69967 0.35517 -0.06300
H 	H 	0.24353 0.94567 0.37047 0.11800
O 	O 	0.18439 0.22267 0.83717 -0.40600
O 	O 	0.22467 0.30237 0.78897 -0.41000
C 	C 	0.21316 0.24038 0.80645 0.35800
C 	C 	0.23462 0.18162 0.78914 -0.08500
C 	C 	0.26424 0.19621 0.75458 -0.01900
H 	H 	0.27420 0.24440 0.74310 0.04900
C 	C 	0.29010 0.20200 0.67901 0.29000
H 	H 	0.26250 0.22950 0.68850 -0.06100
H 	H 	0.36880 0.08980 0.70380 0.11800
O 	O 	0.85106 0.55600 0.17050 -0.40600
O 	O 	0.89134 0.63570 0.12230 -0.41000
C 	C 	0.87983 0.57371 0.13978 0.35800
C 	C 	0.90129 0.51495 0.12247 -0.08500
C 	C 	0.93091 0.52954 0.08791 -0.01800
H 	H 	0.94087 0.57773 0.07643 0.04800
C 	C 	0.95677 0.53533 0.01234 0.28900
H 	H 	0.92917 0.56283 0.02183 -0.06100
H 	H 	0.03547 0.42313 0.03713 0.11800
O 	O 	0.51772 0.88934 0.50384 -0.40600
O 	O 	0.55800 0.96904 0.45564 -0.41000
C 	C 	0.54649 0.90705 0.47312 0.35800
C 	C 	0.56795 0.84829 0.45581 -0.08600
C 	C 	0.59757 0.86288 0.42125 -0.01700
H 	H 	0.60753 0.91107 0.40977 0.04800
C 	C 	0.62343 0.86867 0.34568 0.29500
H 	H 	0.59583 0.89617 0.35517 -0.06300
H 	H 	0.70213 0.75647 0.37047 0.11800
O 	O 	0.18439 0.96172 0.83717 -0.40600
O 	O 	0.22467 0.92230 0.78897 -0.41000
C 	C 	0.21316 0.97278 0.80645 0.35800
C 	C 	0.23462 0.05300 0.78914 -0.08500
C 	C 	0.26424 0.06803 0.75458 -0.01700
H 	H 	0.27420 0.02980 0.74310 0.04900
C 	C 	0.35200 0.23230 0.68808 -0.40500
C 	C 	0.29010 0.08810 0.67901 0.29900
H 	H 	0.26250 0.03300 0.68850 -0.07100
H 	H 	0.36880 0.27900 0.70380 0.16000
N 	N 	0.31467 0.21363 0.64525 -0.29300
O 	O 	0.85106 0.29505 0.17050 -0.40600
O 	O 	0.89134 0.25563 0.12230 -0.41000
C 	C 	0.87983 0.30611 0.13978 0.35900
C 	C 	0.90129 0.38633 0.12247 -0.08600
C 	C 	0.93091 0.40136 0.08791 -0.01600
H 	H 	0.94087 0.36313 0.07643 0.04800
C 	C 	0.01867 0.56563 0.02141 -0.40600
C 	C 	0.95677 0.42143 0.01234 0.29200
H 	H 	0.92917 0.36633 0.02183 -0.06900
H 	H 	0.03547 0.61233 0.03713 0.16000
N 	N 	0.98133 0.54697 0.97859 -0.29300
O 	O 	0.51772 0.62839 0.50384 -0.40600
O 	O 	0.55800 0.58897 0.45564 -0.41000
C 	C 	0.54649 0.63945 0.47312 0.35900
C 	C 	0.56795 0.71967 0.45581 -0.08600
C 	C 	0.59757 0.73470 0.42125 -0.01600
H 	H 	0.60753 0.69647 0.40977 0.04800
C 	C 	0.68533 0.89897 0.35475 -0.41500
C 	C 	0.62343 0.75477 0.34568 0.29000
H 	H 	0.59583 0.69967 0.35517 -0.06800
H 	H 	0.70213 0.94567 0.37047 0.16300
N 	N 	0.64800 0.88030 0.31192 -0.29600
O 	O 	0.03828 0.22267 0.83717 -0.40600
O 	O 	0.07770 0.30237 0.78897 -0.41000
C 	C 	0.02722 0.24038 0.80645 0.35800
C 	C 	0.94700 0.18162 0.78914 -0.08500
C 	C 	0.93197 0.19621 0.75458 -0.01800
H 	H 	0.97020 0.24440 0.74310 0.04900
C 	C 	0.76770 0.11970 0.68808 -0.40400
C 	C 	0.91190 0.20200 0.67901 0.30000
H 	H 	0.96700 0.22950 0.68850 -0.07100
H 	H 	0.72100 0.08980 0.70380 0.15900
N 	N 	0.78637 0.10103 0.64525 -0.29300
O 	O 	0.70495 0.55600 0.17050 -0.40600
O 	O 	0.74437 0.63570 0.12230 -0.41000
C 	C 	0.69389 0.57371 0.13978 0.35800
C 	C 	0.61367 0.51495 0.12247 -0.08600
C 	C 	0.59864 0.52954 0.08791 -0.01700
H 	H 	0.63687 0.57773 0.07643 0.04900
C 	C 	0.43437 0.45303 0.02141 -0.41100
C 	C 	0.57857 0.53533 0.01234 0.29500
H 	H 	0.63367 0.56283 0.02183 -0.07000
H 	H 	0.38767 0.42313 0.03713 0.16100
N 	N 	0.45303 0.43437 0.97859 -0.29400
O 	O 	0.37161 0.88934 0.50384 -0.40600
O 	O 	0.41103 0.96904 0.45564 -0.41000
C 	C 	0.36055 0.90705 0.47312 0.35900
C 	C 	0.28033 0.84829 0.45581 -0.08600
C 	C 	0.26530 0.86288 0.42125 -0.01600
H 	H 	0.30353 0.91107 0.40977 0.04800
C 	C 	0.10103 0.78637 0.35475 -0.41600
C 	C 	0.24523 0.86867 0.34568 0.29000
H 	H 	0.30033 0.89617 0.35517 -0.06800
H 	H 	0.05433 0.75647 0.37047 0.16300
N 	N 	0.11970 0.76770 0.31192 -0.29600
O 	O 	0.77733 0.81561 0.83717 -0.40600
O 	O 	0.69763 0.77533 0.78897 -0.41000
C 	C 	0.75962 0.78684 0.80645 0.35800
C 	C 	0.81838 0.76538 0.78914 -0.08500
C 	C 	0.80379 0.73576 0.75458 -0.01700
H 	H 	0.75560 0.72580 0.74310 0.04900
C 	C 	0.88030 0.64800 0.68808 -0.40500
C 	C 	0.79800 0.70990 0.67901 0.29900
H 	H 	0.77050 0.73750 0.68850 -0.07100
H 	H 	0.91020 0.63120 0.70380 0.16000
N 	N 	0.89897 0.68533 0.64525 -0.29300
O 	O 	0.44400 0.14894 0.17050 -0.40600
O 	O 	0.36430 0.10866 0.12230 -0.41000
C 	C 	0.42629 0.12017 0.13978 0.35800
C 	C 	0.48505 0.09871 0.12247 -0.08600
C 	C 	0.47046 0.06909 0.08791 -0.01600
H 	H 	0.42227 0.05913 0.07643 0.04900
C 	C 	0.54697 0.98133 0.02141 -0.40600
C 	C 	0.46467 0.04323 0.01234 0.29200
H 	H 	0.43717 0.07083 0.02183 -0.06900
H 	H 	0.57687 0.96453 0.03713 0.16000
N 	N 	0.56563 0.01867 0.97859 -0.29300
O 	O 	0.11066 0.48228 0.50384 -0.40600
O 	O 	0.03096 0.44200 0.45564 -0.41000
C 	C 	0.09295 0.45351 0.47312 0.35900
C 	C 	0.15171 0.43205 0.45581 -0.08600
C 	C 	0.13712 0.40243 0.42125 -0.01600
H 	H 	0.08893 0.39247 0.40977 0.04800
C 	C 	0.21363 0.31467 0.35475 -0.41500
C 	C 	0.13133 0.37657 0.34568 0.29100
H 	H 	0.10383 0.40417 0.35517 -0.06800
H 	H 	0.24353 0.29787 0.37047 0.16300
N 	N 	0.23230 0.35200 0.31192 -0.29600
O 	O 	0.96172 0.18439 0.16283 -0.40600
O 	O 	0.92230 0.22467 0.21103 -0.41000
C 	C 	0.97278 0.21316 0.19355 0.35800
C 	C 	0.05300 0.23462 0.21086 -0.08500
C 	C 	0.06803 0.26424 0.24542 -0.01900
H 	H 	0.02980 0.27420 0.25690 0.04900
C 	C 	0.08810 0.29010 0.32099 0.29000
H 	H 	0.03300 0.26250 0.31150 -0.06100
H 	H 	0.27900 0.36880 0.29620 0.11800
O 	O 	0.62839 0.51772 0.49616 -0.40600
O 	O 	0.58897 0.55800 0.54436 -0.41000
C 	C 	0.63945 0.54649 0.52688 0.35800
C 	C 	0.71967 0.56795 0.54419 -0.08600
C 	C 	0.73470 0.59757 0.57875 -0.01700
H 	H 	0.69647 0.60753 0.59023 0.04800
C 	C 	0.75477 0.62343 0.65432 0.29500
H 	H 	0.69967 0.59583 0.64483 -0.06300
H 	H 	0.94567 0.70213 0.62953 0.11800
O 	O 	0.29505 0.85106 0.82950 -0.40600
O 	O 	0.25563 0.89134 0.87770 -0.41000
C 	C 	0.30611 0.87983 0.86022 0.35800
C 	C 	0.38633 0.90129 0.87753 -0.08500
C 	C 	0.40136 0.93091 0.91209 -0.01800
H 	H 	0.36313 0.94087 0.92357 0.04800
C 	C 	0.42143 0.95677 0.98766 0.28900
H 	H 	0.36633 0.92917 0.97817 -0.06100
H 	H 	0.61233 0.03547 0.96287 0.11800
O 	O 	0.22267 0.03828 0.16283 -0.40600
O 	O 	0.30237 0.07770 0.21103 -0.41000
C 	C 	0.24038 0.02722 0.19355 0.35800
C 	C 	0.18162 0.94700 0.21086 -0.08400
C 	C 	0.19621 0.93197 0.24542 -0.01900
H 	H 	0.24440 0.97020 0.25690 0.04900
C 	C 	0.20200 0.91190 0.32099 0.28900
H 	H 	0.22950 0.96700 0.31150 -0.06100
H 	H 	0.08980 0.72100 0.29620 0.11800
O 	O 	0.88934 0.37161 0.49616 -0.40600
O 	O 	0.96904 0.41103 0.54436 -0.41000
C 	C 	0.90705 0.36055 0.52688 0.35800
C 	C 	0.84829 0.28033 0.54419 -0.08600
C 	C 	0.86288 0.26530 0.57875 -0.01700
H 	H 	0.91107 0.30353 0.59023 0.04800
C 	C 	0.86867 0.24523 0.65432 0.29600
H 	H 	0.89617 0.30033 0.64483 -0.06300
H 	H 	0.75647 0.05433 0.62953 0.11800
O 	O 	0.55600 0.70495 0.82950 -0.40600
O 	O 	0.63570 0.74437 0.87770 -0.41000
C 	C 	0.57371 0.69389 0.86022 0.35800
C 	C 	0.51495 0.61367 0.87753 -0.08500
C 	C 	0.52954 0.59864 0.91209 -0.01800
H 	H 	0.57773 0.63687 0.92357 0.04800
C 	C 	0.53533 0.57857 0.98766 0.29300
H 	H 	0.56283 0.63367 0.97817 -0.06200
H 	H 	0.42313 0.38767 0.96287 0.11800
O 	O 	0.81561 0.77733 0.16283 -0.40600
O 	O 	0.77533 0.69763 0.21103 -0.41000
C 	C 	0.78684 0.75962 0.19355 0.35800
C 	C 	0.76538 0.81838 0.21086 -0.08500
C 	C 	0.73576 0.80379 0.24542 -0.01900
H 	H 	0.72580 0.75560 0.25690 0.04900
C 	C 	0.70990 0.79800 0.32099 0.29000
H 	H 	0.73750 0.77050 0.31150 -0.06100
H 	H 	0.63120 0.91020 0.29620 0.11800
O 	O 	0.48228 0.11066 0.49616 -0.40600
O 	O 	0.44200 0.03096 0.54436 -0.41000
C 	C 	0.45351 0.09295 0.52688 0.35800
C 	C 	0.43205 0.15171 0.54419 -0.08600
C 	C 	0.40243 0.13712 0.57875 -0.01700
H 	H 	0.39247 0.08893 0.59023 0.04800
C 	C 	0.37657 0.13133 0.65432 0.29500
H 	H 	0.40417 0.10383 0.64483 -0.06300
H 	H 	0.29787 0.24353 0.62953 0.11800
O 	O 	0.14894 0.44400 0.82950 -0.40600
O 	O 	0.10866 0.36430 0.87770 -0.41000
C 	C 	0.12017 0.42629 0.86022 0.35800
C 	C 	0.09871 0.48505 0.87753 -0.08500
C 	C 	0.06909 0.47046 0.91209 -0.01800
H 	H 	0.05913 0.42227 0.92357 0.04800
C 	C 	0.04323 0.46467 0.98766 0.28900
H 	H 	0.07083 0.43717 0.97817 -0.06100
H 	H 	0.96453 0.57687 0.96287 0.11800
Cu	Cu	0.85682 0.14318 0.13801 0.90600
Cu	Cu	0.52349 0.47651 0.47134 0.90600
Cu	Cu	0.19016 0.80984 0.80468 0.90600
Cu	Cu	0.85682 0.71365 0.13801 0.90600
Cu	Cu	0.52349 0.04698 0.47134 0.90600
Cu	Cu	0.19016 0.38032 0.80468 0.90600
Cu	Cu	0.28635 0.14318 0.13801 0.90600
Cu	Cu	0.95302 0.47651 0.47134 0.90600
Cu	Cu	0.61968 0.80984 0.80468 0.90600
Cu	Cu	0.14318 0.85682 0.86199 0.90600
Cu	Cu	0.80984 0.19016 0.19532 0.90600
Cu	Cu	0.47651 0.52349 0.52866 0.90600
Cu	Cu	0.71365 0.85682 0.86199 0.90600
Cu	Cu	0.38032 0.19016 0.19532 0.90600
Cu	Cu	0.04698 0.52349 0.52866 0.90600
Cu	Cu	0.14318 0.28635 0.86199 0.90600
Cu	Cu	0.80984 0.61968 0.19532 0.90600
Cu	Cu	0.47651 0.95302 0.52866 0.90600
C 	C 	0.77964 0.88982 0.19391 0.02700
H 	H 	0.79900 0.89950 0.17090 0.05200
C 	C 	0.72122 0.86061 0.26270 -0.00700
C 	C 	0.69210 0.84605 0.29970 0.01600
C 	C 	0.44631 0.22315 0.52724 0.02800
H 	H 	0.46567 0.23283 0.50423 0.05100
C 	C 	0.38789 0.19394 0.59603 -0.00900
C 	C 	0.35877 0.17938 0.63303 0.02000
C 	C 	0.11297 0.55649 0.86058 0.02800
H 	H 	0.13233 0.56617 0.83757 0.05100
C 	C 	0.05455 0.52728 0.92937 -0.00800
C 	C 	0.02543 0.51272 0.96637 0.01800
C 	C 	0.11018 0.88982 0.19391 0.02700
H 	H 	0.10050 0.89950 0.17090 0.05200
C 	C 	0.13939 0.86061 0.26270 -0.00600
C 	C 	0.15395 0.84605 0.29970 0.01500
C 	C 	0.77685 0.22315 0.52724 0.02800
H 	H 	0.76717 0.23283 0.50423 0.05100
C 	C 	0.80606 0.19394 0.59603 -0.00900
C 	C 	0.82062 0.17938 0.63303 0.02000
C 	C 	0.44351 0.55649 0.86058 0.02800
H 	H 	0.43383 0.56617 0.83757 0.05100
C 	C 	0.47272 0.52728 0.92937 -0.00800
C 	C 	0.48728 0.51272 0.96637 0.01800
C 	C 	0.11018 0.22036 0.19391 0.02700
H 	H 	0.10050 0.20100 0.17090 0.05200
C 	C 	0.13939 0.27878 0.26270 -0.00700
C 	C 	0.15395 0.30790 0.29970 0.01600
C 	C 	0.77685 0.55369 0.52724 0.02800
H 	H 	0.76717 0.53433 0.50423 0.05100
C 	C 	0.80606 0.61211 0.59603 -0.00900
C 	C 	0.82062 0.64123 0.63303 0.02000
C 	C 	0.44351 0.88703 0.86058 0.02800
H 	H 	0.43383 0.86767 0.83757 0.05100
C 	C 	0.47272 0.94545 0.92937 -0.00800
C 	C 	0.48728 0.97457 0.96637 0.01800
C 	C 	0.88982 0.77964 0.80609 0.02700
H 	H 	0.89950 0.79900 0.82910 0.05200
C 	C 	0.86061 0.72122 0.73730 -0.00700
C 	C 	0.84605 0.69210 0.70030 0.01600
C 	C 	0.55649 0.11297 0.13942 0.02800
H 	H 	0.56617 0.13233 0.16243 0.05100
C 	C 	0.52728 0.05455 0.07063 -0.00800
C 	C 	0.51272 0.02543 0.03363 0.01800
C 	C 	0.22315 0.44631 0.47276 0.02800
H 	H 	0.23283 0.46567 0.49577 0.05100
C 	C 	0.19394 0.38789 0.40397 -0.00900
C 	C 	0.17938 0.35877 0.36697 0.02000
C 	C 	0.88982 0.11018 0.80609 0.02700
H 	H 	0.89950 0.10050 0.82910 0.05200
C 	C 	0.86061 0.13939 0.73730 -0.00600
C 	C 	0.84605 0.15395 0.70030 0.01500
C 	C 	0.55649 0.44351 0.13942 0.02800
H 	H 	0.56617 0.43383 0.16243 0.05100
C 	C 	0.52728 0.47272 0.07063 -0.00800
C 	C 	0.51272 0.48728 0.03363 0.01800
C 	C 	0.22315 0.77685 0.47276 0.02800
H 	H 	0.23283 0.76717 0.49577 0.05100
C 	C 	0.19394 0.80606 0.40397 -0.00900
C 	C 	0.17938 0.82062 0.36697 0.02000
C 	C 	0.22036 0.11018 0.80609 0.02700
H 	H 	0.20100 0.10050 0.82910 0.05200
C 	C 	0.27878 0.13939 0.73730 -0.00700
C 	C 	0.30790 0.15395 0.70030 0.01600
C 	C 	0.88703 0.44351 0.13942 0.02800
H 	H 	0.86767 0.43383 0.16243 0.05100
C 	C 	0.94545 0.47272 0.07063 -0.00800
C 	C 	0.97457 0.48728 0.03363 0.01800
C 	C 	0.55369 0.77685 0.47276 0.02800
H 	H 	0.53433 0.76717 0.49577 0.05100
C 	C 	0.61211 0.80606 0.40397 -0.00900
C 	C 	0.64123 0.82062 0.36697 0.02000
