data_crystal

_cell_length_a 10.46220
_cell_length_b 7.18700
_cell_length_c 13.45440
_cell_angle_alpha 90.00000
_cell_angle_beta  112.69400
_cell_angle_gamma 90.00000

_symmetry_space_group_name_	'P 1'
_symmetry_space_group_name_H-M	'P 1'

loop_
_symmetry_equiv_pos_as_xyz
  x,y,z

loop_
_atom_site_label
_atom_site_type_symbol
_atom_site_fract_x
_atom_site_fract_y
_atom_site_fract_z
_atom_site_charge
N 	N 	0.13550 0.09640 0.26060 -0.22400
N 	N 	0.09640 0.15720 0.16180 -0.26400
N 	N 	0.86450 0.59640 0.73940 -0.16800
N 	N 	0.90360 0.65720 0.83820 -0.13800
N 	N 	0.86450 0.90360 0.73940 -0.14300
N 	N 	0.90360 0.84280 0.83820 -0.12100
N 	N 	0.13550 0.40360 0.26060 -0.19700
N 	N 	0.09640 0.34280 0.16180 -0.25100
Cd	Cd	0.85630 0.25000 0.72512 1.22100
O 	O 	0.63500 0.25000 0.62260 -0.43400
O 	O 	0.60560 0.25000 0.77670 -0.31800
O 	O 	0.11430 0.25000 0.76270 -0.38200
O 	O 	0.94360 0.25000 0.60150 -0.31400
O 	O 	0.90250 0.25000 0.90240 -0.54300
C 	C 	0.56400 0.25000 0.67910 0.32700
C 	C 	0.40780 0.25000 0.61450 -0.07100
C 	C 	0.35940 0.25000 0.50520 -0.01600
H 	H 	0.42150 0.25000 0.47100 0.04000
C 	C 	0.21430 0.25000 0.44270 -0.06100
C 	C 	0.12640 0.25000 0.49300 -0.03300
H 	H 	0.03130 0.25000 0.45350 0.00300
C 	C 	0.17960 0.25000 0.60800 -0.04900
C 	C 	0.31420 0.25000 0.66780 -0.01500
H 	H 	0.34640 0.25000 0.74260 0.06100
C 	C 	0.07110 0.25000 0.65900 0.15100
C 	C 	0.16390 0.25000 0.32260 0.08900
Cd	Cd	0.14370 0.75000 0.27488 1.21400
O 	O 	0.36500 0.75000 0.37740 -0.40900
O 	O 	0.39440 0.75000 0.22330 -0.36700
O 	O 	0.88570 0.75000 0.23730 -0.39100
O 	O 	0.05640 0.75000 0.39850 -0.49600
O 	O 	0.09750 0.75000 0.09760 -0.73200
C 	C 	0.43600 0.75000 0.32090 0.35000
C 	C 	0.59220 0.75000 0.38550 -0.08900
C 	C 	0.64060 0.75000 0.49480 0.00900
H 	H 	0.57850 0.75000 0.52900 0.06100
C 	C 	0.78570 0.75000 0.55730 -0.04200
C 	C 	0.87360 0.75000 0.50700 0.01800
H 	H 	0.96870 0.75000 0.54650 0.09500
C 	C 	0.82040 0.75000 0.39200 -0.09400
C 	C 	0.68580 0.75000 0.33220 0.04300
H 	H 	0.65360 0.75000 0.25740 0.01900
C 	C 	0.92890 0.75000 0.34100 0.43400
C 	C 	0.83610 0.75000 0.67740 0.14500
Cd	Cd	-0.00000 0.00000 -0.00000 1.02600
Cd	Cd	-0.00000 0.50000 -0.00000 1.05600
