data_crystal

_cell_length_a 8.66300
_cell_length_b 9.06900
_cell_length_c 11.87500
_cell_angle_alpha 110.05000
_cell_angle_beta  90.00000
_cell_angle_gamma 90.00000

_symmetry_space_group_name_	'P 1'
_symmetry_space_group_name_H-M	'P 1'

loop_
_symmetry_equiv_pos_as_xyz
  x,y,z

loop_
_atom_site_label
_atom_site_type_symbol
_atom_site_fract_x
_atom_site_fract_y
_atom_site_fract_z
_atom_site_charge
Nd	Nd	0.47062 0.02571 0.98776 2.21200
Nd	Nd	0.97062 0.97429 0.01224 2.17900
H 	H 	0.09050 0.83240 0.66160 0.22600
H 	H 	0.12220 0.68730 0.70130 0.22300
H 	H 	0.31390 0.77120 0.53810 -0.08400
H 	H 	0.34590 0.62630 0.57790 -0.02800
H 	H 	0.09640 0.65740 0.44010 0.24600
H 	H 	0.11300 0.51750 0.48810 0.26900
H 	H 	0.31200 0.57270 0.31820 -0.13000
H 	H 	0.34210 0.43980 0.37170 -0.12900
H 	H 	0.10150 0.45030 0.22010 0.26900
H 	H 	0.10370 0.32910 0.28730 0.29600
H 	H 	0.50990 0.18480 0.75900 0.32600
H 	H 	0.37360 0.90980 0.36270 0.19800
H 	H 	0.19730 0.86670 0.35460 0.20700
H 	H 	0.30870 0.18320 0.41320 -0.05100
H 	H 	0.13240 0.14050 0.40420 -0.03900
H 	H 	0.33130 0.08840 0.57590 0.16100
H 	H 	0.15310 0.05660 0.56910 0.14300
H 	H 	0.28660 0.35980 0.63170 -0.06000
H 	H 	0.10850 0.33100 0.61970 -0.07200
H 	H 	0.10830 0.25490 0.78470 0.20000
H 	H 	0.17550 0.42470 0.81670 0.21100
H 	H 	0.59050 0.16760 0.33840 0.21700
H 	H 	0.62220 0.31270 0.29870 0.21700
H 	H 	0.81390 0.22880 0.46190 -0.08100
H 	H 	0.84590 0.37370 0.42210 -0.02200
H 	H 	0.59640 0.34260 0.55990 0.23600
H 	H 	0.61300 0.48250 0.51190 0.26100
H 	H 	0.81200 0.42730 0.68180 -0.12800
H 	H 	0.84210 0.56020 0.62830 -0.12800
H 	H 	0.60150 0.54970 0.77990 0.25900
H 	H 	0.60370 0.67090 0.71270 0.28800
H 	H 	0.00990 0.81520 0.24100 0.36100
H 	H 	0.87360 0.09020 0.63730 0.20200
H 	H 	0.69730 0.13330 0.64540 0.20900
H 	H 	0.80870 0.81680 0.58680 -0.06100
H 	H 	0.63240 0.85950 0.59580 -0.04500
H 	H 	0.83130 0.91160 0.42410 0.16400
H 	H 	0.65310 0.94340 0.43090 0.15300
H 	H 	0.78660 0.64020 0.36830 -0.06800
H 	H 	0.60850 0.66900 0.38030 -0.07900
H 	H 	0.60830 0.74510 0.21530 0.20900
H 	H 	0.67550 0.57530 0.18330 0.21900
C 	C 	0.26680 0.86810 0.77900 0.57200
C 	C 	0.17140 0.76850 0.67780 -0.64500
C 	C 	0.26490 0.69010 0.56160 0.41000
C 	C 	0.17050 0.59110 0.46140 -0.68600
C 	C 	0.26180 0.49880 0.34910 0.55000
C 	C 	0.16880 0.38950 0.25280 -0.75600
C 	C 	0.26210 0.27440 0.14890 0.59800
C 	C 	0.27100 0.92780 0.21500 0.57300
C 	C 	0.27200 0.93900 0.34220 -0.58700
C 	C 	0.23300 0.11100 0.42550 0.26000
C 	C 	0.23300 0.12500 0.55670 -0.44200
C 	C 	0.20400 0.29400 0.64280 0.32700
C 	C 	0.19500 0.31500 0.77200 -0.61600
C 	C 	0.34130 0.26410 0.82170 0.60000
C 	C 	0.76680 0.13190 0.22100 0.56800
C 	C 	0.67140 0.23150 0.32220 -0.63400
C 	C 	0.76490 0.30990 0.43840 0.39300
C 	C 	0.67050 0.40890 0.53860 -0.66800
C 	C 	0.76180 0.50120 0.65090 0.53500
C 	C 	0.66880 0.61050 0.74720 -0.74400
C 	C 	0.76210 0.72560 0.85110 0.59400
C 	C 	0.77100 0.07220 0.78500 0.57900
C 	C 	0.77200 0.06100 0.65780 -0.60700
C 	C 	0.73300 0.88900 0.57450 0.28400
C 	C 	0.73300 0.87500 0.44330 -0.46300
C 	C 	0.70400 0.70600 0.35720 0.34900
C 	C 	0.69500 0.68500 0.22800 -0.63800
C 	C 	0.84130 0.73590 0.17830 0.61800
O 	O 	0.19040 0.92600 0.88680 -0.62900
O 	O 	0.39770 0.89890 0.77340 -0.55100
O 	O 	0.19170 0.14750 0.08520 -0.61700
O 	O 	0.39910 0.29730 0.13230 -0.49500
O 	O 	0.39030 0.97880 0.17610 -0.54100
O 	O 	0.15810 0.87100 0.15120 -0.50500
O 	O 	0.46200 0.26660 0.76930 -0.63200
O 	O 	0.33700 0.23370 0.91940 -0.49900
O 	O 	0.48900 0.63400 0.59780 -0.22600
O 	O 	0.69040 0.07400 0.11320 -0.63200
O 	O 	0.89770 0.10110 0.22660 -0.55300
O 	O 	0.69170 0.85250 0.91480 -0.62100
O 	O 	0.89910 0.70270 0.86770 -0.49800
O 	O 	0.89030 0.02120 0.82390 -0.54400
O 	O 	0.65810 0.12900 0.84880 -0.51900
O 	O 	0.96200 0.73340 0.23070 -0.67800
O 	O 	0.83700 0.76630 0.08060 -0.50200
O 	O 	0.98900 0.36600 0.40220 -0.23800
