data_crystal

_cell_length_a 8.83530
_cell_length_b 14.26820
_cell_length_c 22.80800
_cell_angle_alpha 92.47500
_cell_angle_beta  91.10100
_cell_angle_gamma 105.44500

_symmetry_space_group_name_	'P 1'
_symmetry_space_group_name_H-M	'P 1'

loop_
_symmetry_equiv_pos_as_xyz
  x,y,z

loop_
_atom_site_label
_atom_site_type_symbol
_atom_site_fract_x
_atom_site_fract_y
_atom_site_fract_z
_atom_site_charge
Mn	Mn	0.00833 0.54815 0.07958 1.26400
Mn	Mn	0.50575 0.95296 0.42616 1.28200
Mn	Mn	0.25660 0.82634 0.30181 1.19500
C 	C 	0.69720 0.82140 0.47710 0.38600
C 	C 	0.71210 0.71980 0.47833 -0.14900
C 	C 	0.61570 0.64650 0.44123 0.06400
H 	H 	0.54050 0.66110 0.41680 0.02300
C 	C 	0.63080 0.55280 0.44054 -0.13600
H 	H 	0.56570 0.50450 0.41580 0.08000
C 	C 	0.74340 0.53010 0.47672 0.07400
C 	C 	0.83730 0.60210 0.51422 -0.13600
H 	H 	0.91100 0.58710 0.53920 0.09300
C 	C 	0.82230 0.69680 0.51475 0.06400
H 	H 	0.88680 0.74480 0.53980 0.03100
C 	C 	0.75710 0.42800 0.47723 0.00000
C 	C 	0.76700 0.37150 0.42571 -0.05300
C 	C 	0.76640 0.27420 0.43073 0.00400
H 	H 	0.77000 0.23620 0.39690 0.03100
C 	C 	0.76030 0.23240 0.48515 -0.10200
C 	C 	0.75670 0.28980 0.53588 -0.03200
C 	C 	0.75630 0.38600 0.53105 -0.04600
H 	H 	0.75540 0.42400 0.56510 0.06200
C 	C 	0.75120 0.24890 0.59546 0.30800
C 	C 	0.76080 0.12750 0.48500 0.40900
C 	C 	0.90020 0.50000 0.35771 -0.22800
H 	H 	0.95160 0.53820 0.38990 0.12600
C 	C 	0.78920 0.41170 0.36615 0.13200
C 	C 	0.71190 0.35840 0.31754 -0.18800
H 	H 	0.63550 0.30060 0.32260 0.08500
C 	C 	0.74580 0.38930 0.26095 0.10600
H 	H 	0.69250 0.35200 0.22870 -0.00100
C 	C 	0.85880 0.47570 0.25269 -0.19800
C 	C 	0.93380 0.53050 0.30148 0.20000
H 	H 	0.00840 0.58920 0.29640 -0.07600
C 	C 	0.90340 0.50660 0.19132 0.37900
C 	C 	0.74320 0.37520 0.02284 0.39300
C 	C 	0.74550 0.26980 0.02497 -0.12200
C 	C 	0.74820 0.21180 0.97467 -0.01500
C 	C 	0.74950 0.11520 0.98069 -0.00900
H 	H 	0.75060 0.07640 0.94700 0.04700
C 	C 	0.74930 0.07470 0.03466 -0.03800
C 	C 	0.73910 0.13170 0.08553 -0.05800
C 	C 	0.73960 0.22890 0.07957 0.00500
H 	H 	0.73590 0.26750 0.11310 0.03600
C 	C 	0.74480 0.24790 0.91346 0.32000
C 	C 	0.71510 0.08990 0.14516 0.15800
C 	C 	0.79660 0.13900 0.19442 -0.23100
H 	H 	0.87170 0.19780 0.19070 0.11000
C 	C 	0.76740 0.10110 0.24965 0.15000
H 	H 	0.82160 0.13530 0.28270 -0.01700
C 	C 	0.65650 0.01180 0.25529 -0.28400
C 	C 	0.57790 0.96200 0.20590 0.21400
H 	H 	0.50550 0.90190 0.20930 -0.07600
C 	C 	0.60570 0.00040 0.15104 -0.29100
H 	H 	0.55100 0.96630 0.11800 0.14500
C 	C 	0.76000 0.97190 0.03600 0.06200
C 	C 	0.87270 0.94760 0.07145 -0.13700
H 	H 	0.93990 0.99550 0.09570 0.08800
C 	C 	0.88590 0.85290 0.07103 0.07300
H 	H 	0.96140 0.83780 0.09510 0.02300
C 	C 	0.78640 0.78010 0.03470 -0.17600
C 	C 	0.67480 0.80470 0.99901 0.09900
H 	H 	0.60790 0.75710 0.97440 0.01800
C 	C 	0.66260 0.89940 0.99987 -0.10900
H 	H 	0.58750 0.91460 0.97570 0.08600
C 	C 	0.80040 0.67790 0.03322 0.36000
C 	C 	0.61540 0.97590 0.31516 0.41900
O 	O 	0.59730 0.83653 0.44125 -0.46100
O 	O 	0.78210 0.88580 0.51261 -0.46100
O 	O 	0.75000 0.30171 0.64014 -0.41500
O 	O 	0.74430 0.15869 0.59958 -0.54100
O 	O 	0.62760 0.06523 0.48983 -0.58600
O 	O 	0.88690 0.10772 0.47782 -0.47100
O 	O 	0.02470 0.57510 0.18502 -0.43200
O 	O 	0.82140 0.46290 0.14815 -0.38900
O 	O 	0.61480 0.39331 0.03158 -0.46500
O 	O 	0.87150 0.43776 0.01425 -0.54900
O 	O 	0.75870 0.33701 0.90786 -0.39900
O 	O 	0.72730 0.18537 0.87171 -0.29900
O 	O 	0.71730 0.61720 0.99543 -0.43200
O 	O 	0.89780 0.65980 0.06879 -0.44100
O 	O 	0.49800 0.90280 0.32065 -0.57700
O 	O 	0.69370 0.01790 0.35958 -0.44700
Mn	Mn	0.99167 0.45185 0.92042 1.29700
Mn	Mn	0.49425 0.04704 0.57384 1.27100
Mn	Mn	0.74340 0.17366 0.69819 1.19600
C 	C 	0.30280 0.17860 0.52290 0.38800
C 	C 	0.28790 0.28020 0.52167 -0.16600
C 	C 	0.38430 0.35350 0.55877 0.07100
H 	H 	0.45950 0.33890 0.58320 0.01800
C 	C 	0.36920 0.44720 0.55946 -0.14900
H 	H 	0.43430 0.49550 0.58420 0.08700
C 	C 	0.25660 0.46990 0.52328 0.08500
C 	C 	0.16270 0.39790 0.48578 -0.15200
H 	H 	0.08900 0.41290 0.46080 0.07600
C 	C 	0.17770 0.30320 0.48525 0.06800
H 	H 	0.11320 0.25520 0.46020 0.00800
C 	C 	0.24290 0.57200 0.52277 -0.02700
C 	C 	0.23300 0.62850 0.57429 -0.01800
C 	C 	0.23360 0.72580 0.56927 -0.02400
H 	H 	0.23000 0.76380 0.60310 0.03500
C 	C 	0.23970 0.76760 0.51485 -0.09800
C 	C 	0.24330 0.71020 0.46412 -0.04900
C 	C 	0.24370 0.61400 0.46895 -0.03800
H 	H 	0.24460 0.57600 0.43490 0.05000
C 	C 	0.24880 0.75110 0.40454 0.30600
C 	C 	0.23920 0.87250 0.51500 0.40600
C 	C 	0.09980 0.50000 0.64229 -0.07400
H 	H 	0.04840 0.46180 0.61010 0.04900
C 	C 	0.21080 0.58830 0.63385 0.03500
C 	C 	0.28810 0.64160 0.68246 -0.09200
H 	H 	0.36450 0.69940 0.67740 0.05600
C 	C 	0.25420 0.61070 0.73905 -0.00500
H 	H 	0.30750 0.64800 0.77130 0.04000
C 	C 	0.14120 0.52430 0.74731 -0.06300
C 	C 	0.06620 0.46950 0.69852 -0.05800
H 	H 	0.99160 0.41080 0.70360 0.05900
C 	C 	0.09660 0.49340 0.80868 0.25000
C 	C 	0.25680 0.62480 0.97716 0.37800
C 	C 	0.25450 0.73020 0.97503 -0.04600
C 	C 	0.25180 0.78820 0.02533 -0.08400
C 	C 	0.25050 0.88480 0.01931 -0.08300
H 	H 	0.24940 0.92360 0.05300 0.06000
C 	C 	0.25070 0.92530 0.96534 0.03000
C 	C 	0.26090 0.86830 0.91447 -0.01300
C 	C 	0.26040 0.77110 0.92043 -0.04000
H 	H 	0.26410 0.73250 0.88690 0.05100
C 	C 	0.25520 0.75210 0.08654 0.32600
C 	C 	0.28490 0.91010 0.85484 0.02300
C 	C 	0.20340 0.86100 0.80558 -0.08800
H 	H 	0.12830 0.80220 0.80930 0.05300
C 	C 	0.23260 0.89890 0.75035 -0.00900
H 	H 	0.17840 0.86470 0.71730 0.03200
C 	C 	0.34350 0.98820 0.74471 -0.07300
C 	C 	0.42210 0.03800 0.79410 -0.06400
H 	H 	0.49450 0.09810 0.79070 0.01700
C 	C 	0.39430 0.99960 0.84896 -0.01900
H 	H 	0.44900 0.03370 0.88200 0.03700
C 	C 	0.24000 0.02810 0.96400 0.07200
C 	C 	0.12730 0.05240 0.92855 -0.12900
H 	H 	0.06010 0.00450 0.90430 0.06100
C 	C 	0.11410 0.14710 0.92897 0.05200
H 	H 	0.03860 0.16220 0.90490 0.00800
C 	C 	0.21360 0.21990 0.96530 -0.12500
C 	C 	0.32520 0.19530 0.00099 0.01800
H 	H 	0.39210 0.24290 0.02560 0.03100
C 	C 	0.33740 0.10060 0.00013 -0.15600
H 	H 	0.41250 0.08540 0.02430 0.07600
C 	C 	0.19960 0.32210 0.96678 0.42300
C 	C 	0.38460 0.02410 0.68484 0.28500
O 	O 	0.40270 0.16347 0.55875 -0.47200
O 	O 	0.21790 0.11420 0.48739 -0.49200
O 	O 	0.25000 0.69829 0.35986 -0.42100
O 	O 	0.25570 0.84131 0.40042 -0.54500
O 	O 	0.37240 0.93477 0.51017 -0.57200
O 	O 	0.11310 0.89228 0.52218 -0.49200
O 	O 	0.97530 0.42490 0.81498 -0.35000
O 	O 	0.17860 0.53710 0.85185 -0.36800
O 	O 	0.38520 0.60669 0.96842 -0.44300
O 	O 	0.12850 0.56224 0.98575 -0.53800
O 	O 	0.24130 0.66299 0.09214 -0.42400
O 	O 	0.27270 0.81463 0.12829 -0.31000
O 	O 	0.28270 0.38280 0.00457 -0.50900
O 	O 	0.10220 0.34020 0.93121 -0.47900
O 	O 	0.50200 0.09720 0.67935 -0.55000
O 	O 	0.30630 0.98210 0.64042 -0.39400
Mn	Mn	0.50000 0.50000 -0.00000 1.24700
Mn	Mn	-0.00000 0.00000 0.50000 1.23900
