data_crystal

_cell_length_a 29.16200
_cell_length_b 13.45450
_cell_length_c 13.90300
_cell_angle_alpha 90.00000
_cell_angle_beta  98.21900
_cell_angle_gamma 90.00000

_symmetry_space_group_name_	'P 1'
_symmetry_space_group_name_H-M	'P 1'

loop_
_symmetry_equiv_pos_as_xyz
  x,y,z

loop_
_atom_site_label
_atom_site_type_symbol
_atom_site_fract_x
_atom_site_fract_y
_atom_site_fract_z
_atom_site_charge
Ho	Ho	0.31541 0.30093 0.54077 1.64100
C 	C 	0.70440 0.12180 0.24200 -0.14700
C 	C 	0.73240 0.05370 0.29910 0.07800
H 	H 	0.76360 0.04730 0.29290 0.01600
C 	C 	0.71290 0.99570 0.36530 -0.15800
C 	C 	0.66630 0.00630 0.37490 0.02900
H 	H 	0.65340 0.96510 0.41750 0.02200
C 	C 	0.63910 0.07700 0.32230 -0.06500
C 	C 	0.65910 0.13540 0.25400 0.03300
H 	H 	0.64130 0.18310 0.21740 0.03300
C 	C 	0.72500 0.17970 0.16410 0.44100
C 	C 	0.74290 0.92270 0.42740 0.43900
C 	C 	0.59080 0.09530 0.34160 0.09300
C 	C 	0.56320 0.01750 0.36350 -0.11800
H 	H 	0.57460 0.95300 0.36320 0.07400
C 	C 	0.51950 0.03230 0.38540 -0.00600
H 	H 	0.50110 0.97790 0.39560 0.03300
C 	C 	0.50190 0.12940 0.39290 -0.02800
C 	C 	0.45920 0.15050 0.42460 -0.01700
H 	H 	0.44090 0.09820 0.44060 0.04900
C 	C 	0.44410 0.24500 0.43230 -0.08500
C 	C 	0.47060 0.32450 0.40600 0.02600
H 	H 	0.45970 0.38900 0.41020 0.02800
C 	C 	0.51250 0.30940 0.37400 -0.12800
H 	H 	0.52950 0.36310 0.35610 0.07100
C 	C 	0.52980 0.21080 0.36840 0.08900
C 	C 	0.57370 0.19000 0.34160 -0.15700
H 	H 	0.59150 0.24220 0.32340 0.08800
C 	C 	0.39980 0.26440 0.47380 0.31100
O 	O 	0.70000 0.24780 0.12110 -0.44000
O 	O 	0.76520 0.15640 0.15160 -0.48700
O 	O 	0.78500 0.94390 0.45070 -0.43500
O 	O 	0.72540 0.84590 0.45460 -0.53100
O 	O 	0.38300 0.35130 0.46780 -0.39400
O 	O 	0.38060 0.19520 0.51310 -0.40200
Ho	Ho	0.81541 0.80093 0.54077 1.64200
C 	C 	0.20440 0.62180 0.24200 -0.14700
C 	C 	0.23240 0.55370 0.29910 0.08100
H 	H 	0.26360 0.54730 0.29290 0.01600
C 	C 	0.21290 0.49570 0.36530 -0.16000
C 	C 	0.16630 0.50630 0.37490 0.03300
H 	H 	0.15340 0.46510 0.41750 0.02100
C 	C 	0.13910 0.57700 0.32230 -0.06600
C 	C 	0.15910 0.63540 0.25400 0.03500
H 	H 	0.14130 0.68310 0.21740 0.03200
C 	C 	0.22500 0.67970 0.16410 0.44200
C 	C 	0.24290 0.42270 0.42740 0.43900
C 	C 	0.09080 0.59530 0.34160 0.09300
C 	C 	0.06320 0.51750 0.36350 -0.11700
H 	H 	0.07460 0.45300 0.36320 0.07300
C 	C 	0.01950 0.53230 0.38540 -0.00500
H 	H 	0.00110 0.47790 0.39560 0.03300
C 	C 	0.00190 0.62940 0.39290 -0.02800
C 	C 	0.95920 0.65050 0.42460 -0.01700
H 	H 	0.94090 0.59820 0.44060 0.04900
C 	C 	0.94410 0.74500 0.43230 -0.08500
C 	C 	0.97060 0.82450 0.40600 0.02600
H 	H 	0.95970 0.88900 0.41020 0.02700
C 	C 	0.01250 0.80940 0.37400 -0.12900
H 	H 	0.02950 0.86310 0.35610 0.07100
C 	C 	0.02980 0.71080 0.36840 0.08900
C 	C 	0.07370 0.69000 0.34160 -0.15700
H 	H 	0.09150 0.74220 0.32340 0.08800
C 	C 	0.89980 0.76440 0.47380 0.31100
O 	O 	0.20000 0.74780 0.12110 -0.43900
O 	O 	0.26520 0.65640 0.15160 -0.48700
O 	O 	0.28500 0.44390 0.45070 -0.43500
O 	O 	0.22540 0.34590 0.45460 -0.53200
O 	O 	0.88300 0.85130 0.46780 -0.39400
O 	O 	0.88060 0.69520 0.51310 -0.40200
Ho	Ho	0.68459 0.30093 0.95923 1.64400
C 	C 	0.29560 0.12180 0.25800 -0.14400
C 	C 	0.26760 0.05370 0.20090 0.07500
H 	H 	0.23640 0.04730 0.20710 0.01800
C 	C 	0.28710 0.99570 0.13470 -0.15300
C 	C 	0.33370 0.00630 0.12510 0.02300
H 	H 	0.34660 0.96510 0.08250 0.02500
C 	C 	0.36090 0.07700 0.17770 -0.06100
C 	C 	0.34090 0.13540 0.24600 0.03100
H 	H 	0.35870 0.18310 0.28260 0.03400
C 	C 	0.27500 0.17970 0.33590 0.44100
C 	C 	0.25710 0.92270 0.07260 0.43700
C 	C 	0.40920 0.09530 0.15840 0.09000
C 	C 	0.43680 0.01750 0.13650 -0.11700
H 	H 	0.42540 0.95300 0.13680 0.07400
C 	C 	0.48050 0.03230 0.11460 -0.01000
H 	H 	0.49890 0.97790 0.10440 0.03600
C 	C 	0.49810 0.12940 0.10710 -0.02600
C 	C 	0.54080 0.15050 0.07540 -0.01900
H 	H 	0.55910 0.09820 0.05940 0.04900
C 	C 	0.55590 0.24500 0.06770 -0.08300
C 	C 	0.52940 0.32450 0.09400 0.02400
H 	H 	0.54030 0.38900 0.08980 0.02800
C 	C 	0.48750 0.30940 0.12600 -0.12700
H 	H 	0.47050 0.36310 0.14390 0.07100
C 	C 	0.47020 0.21080 0.13160 0.08700
C 	C 	0.42630 0.19000 0.15840 -0.15500
H 	H 	0.40850 0.24220 0.17660 0.08700
C 	C 	0.60020 0.26440 0.02620 0.30900
O 	O 	0.30000 0.24780 0.37890 -0.43900
O 	O 	0.23480 0.15640 0.34840 -0.48700
O 	O 	0.21500 0.94390 0.04930 -0.43300
O 	O 	0.27460 0.84590 0.04540 -0.53000
O 	O 	0.61700 0.35130 0.03220 -0.39400
O 	O 	0.61940 0.19520 0.98690 -0.40100
Ho	Ho	0.18459 0.80093 0.95923 1.63900
C 	C 	0.79560 0.62180 0.25800 -0.14700
C 	C 	0.76760 0.55370 0.20090 0.08100
H 	H 	0.73640 0.54730 0.20710 0.01600
C 	C 	0.78710 0.49570 0.13470 -0.16000
C 	C 	0.83370 0.50630 0.12510 0.03400
H 	H 	0.84660 0.46510 0.08250 0.02100
C 	C 	0.86090 0.57700 0.17770 -0.06600
C 	C 	0.84090 0.63540 0.24600 0.03500
H 	H 	0.85870 0.68310 0.28260 0.03200
C 	C 	0.77500 0.67970 0.33590 0.44200
C 	C 	0.75710 0.42270 0.07260 0.43900
C 	C 	0.90920 0.59530 0.15840 0.09300
C 	C 	0.93680 0.51750 0.13650 -0.11800
H 	H 	0.92540 0.45300 0.13680 0.07300
C 	C 	0.98050 0.53230 0.11460 -0.00500
H 	H 	0.99890 0.47790 0.10440 0.03200
C 	C 	0.99810 0.62940 0.10710 -0.02900
C 	C 	0.04080 0.65050 0.07540 -0.01600
H 	H 	0.05910 0.59820 0.05940 0.04900
C 	C 	0.05590 0.74500 0.06770 -0.08600
C 	C 	0.02940 0.82450 0.09400 0.02700
H 	H 	0.04030 0.88900 0.08980 0.02700
C 	C 	0.98750 0.80940 0.12600 -0.13000
H 	H 	0.97050 0.86310 0.14390 0.07100
C 	C 	0.97020 0.71080 0.13160 0.09000
C 	C 	0.92630 0.69000 0.15840 -0.15800
H 	H 	0.90850 0.74220 0.17660 0.08800
C 	C 	0.10020 0.76440 0.02620 0.31200
O 	O 	0.80000 0.74780 0.37890 -0.43900
O 	O 	0.73480 0.65640 0.34840 -0.48700
O 	O 	0.71500 0.44390 0.04930 -0.43500
O 	O 	0.77460 0.34590 0.04540 -0.53200
O 	O 	0.11700 0.85130 0.03220 -0.39400
O 	O 	0.11940 0.69520 0.98690 -0.40300
Ho	Ho	0.68459 0.69907 0.45923 1.64200
C 	C 	0.29560 0.87820 0.75800 -0.14600
C 	C 	0.26760 0.94630 0.70090 0.07900
H 	H 	0.23640 0.95270 0.70710 0.01700
C 	C 	0.28710 0.00430 0.63470 -0.15700
C 	C 	0.33370 0.99370 0.62510 0.03000
H 	H 	0.34660 0.03490 0.58250 0.02200
C 	C 	0.36090 0.92300 0.67770 -0.06500
C 	C 	0.34090 0.86460 0.74600 0.03300
H 	H 	0.35870 0.81690 0.78260 0.03300
C 	C 	0.27500 0.82030 0.83590 0.44100
C 	C 	0.25710 0.07730 0.57260 0.43900
C 	C 	0.40920 0.90470 0.65840 0.09300
C 	C 	0.43680 0.98250 0.63650 -0.11800
H 	H 	0.42540 0.04700 0.63680 0.07400
C 	C 	0.48050 0.96770 0.61460 -0.00600
H 	H 	0.49890 0.02210 0.60440 0.03300
C 	C 	0.49810 0.87060 0.60710 -0.02800
C 	C 	0.54080 0.84950 0.57540 -0.01700
H 	H 	0.55910 0.90180 0.55940 0.04900
C 	C 	0.55590 0.75500 0.56770 -0.08500
C 	C 	0.52940 0.67550 0.59400 0.02600
H 	H 	0.54030 0.61100 0.58980 0.02800
C 	C 	0.48750 0.69060 0.62600 -0.12800
H 	H 	0.47050 0.63690 0.64390 0.07100
C 	C 	0.47020 0.78920 0.63160 0.08900
C 	C 	0.42630 0.81000 0.65840 -0.15700
H 	H 	0.40850 0.75780 0.67660 0.08800
C 	C 	0.60020 0.73560 0.52620 0.31100
O 	O 	0.30000 0.75220 0.87890 -0.44000
O 	O 	0.23480 0.84360 0.84840 -0.48700
O 	O 	0.21500 0.05610 0.54930 -0.43500
O 	O 	0.27460 0.15410 0.54540 -0.53100
O 	O 	0.61700 0.64870 0.53220 -0.39400
O 	O 	0.61940 0.80480 0.48690 -0.40200
Ho	Ho	0.18459 0.19907 0.45923 1.64200
C 	C 	0.79560 0.37820 0.75800 -0.14700
C 	C 	0.76760 0.44630 0.70090 0.08100
H 	H 	0.73640 0.45270 0.70710 0.01600
C 	C 	0.78710 0.50430 0.63470 -0.16000
C 	C 	0.83370 0.49370 0.62510 0.03300
H 	H 	0.84660 0.53490 0.58250 0.02100
C 	C 	0.86090 0.42300 0.67770 -0.06600
C 	C 	0.84090 0.36460 0.74600 0.03500
H 	H 	0.85870 0.31690 0.78260 0.03200
C 	C 	0.77500 0.32030 0.83590 0.44200
C 	C 	0.75710 0.57730 0.57260 0.43900
C 	C 	0.90920 0.40470 0.65840 0.09300
C 	C 	0.93680 0.48250 0.63650 -0.11700
H 	H 	0.92540 0.54700 0.63680 0.07300
C 	C 	0.98050 0.46770 0.61460 -0.00500
H 	H 	0.99890 0.52210 0.60440 0.03300
C 	C 	0.99810 0.37060 0.60710 -0.02800
C 	C 	0.04080 0.34950 0.57540 -0.01700
H 	H 	0.05910 0.40180 0.55940 0.04900
C 	C 	0.05590 0.25500 0.56770 -0.08500
C 	C 	0.02940 0.17550 0.59400 0.02600
H 	H 	0.04030 0.11100 0.58980 0.02700
C 	C 	0.98750 0.19060 0.62600 -0.12900
H 	H 	0.97050 0.13690 0.64390 0.07100
C 	C 	0.97020 0.28920 0.63160 0.08900
C 	C 	0.92630 0.31000 0.65840 -0.15700
H 	H 	0.90850 0.25780 0.67660 0.08800
C 	C 	0.10020 0.23560 0.52620 0.31100
O 	O 	0.80000 0.25220 0.87890 -0.43900
O 	O 	0.73480 0.34360 0.84840 -0.48700
O 	O 	0.71500 0.55610 0.54930 -0.43500
O 	O 	0.77460 0.65410 0.54540 -0.53200
O 	O 	0.11700 0.14870 0.53220 -0.39400
O 	O 	0.11940 0.30480 0.48690 -0.40200
Ho	Ho	0.31541 0.69907 0.04077 1.64400
C 	C 	0.70440 0.87820 0.74200 -0.14400
C 	C 	0.73240 0.94630 0.79910 0.07500
H 	H 	0.76360 0.95270 0.79290 0.01800
C 	C 	0.71290 0.00430 0.86530 -0.15300
C 	C 	0.66630 0.99370 0.87490 0.02300
H 	H 	0.65340 0.03490 0.91750 0.02500
C 	C 	0.63910 0.92300 0.82230 -0.06100
C 	C 	0.65910 0.86460 0.75400 0.03100
H 	H 	0.64130 0.81690 0.71740 0.03400
C 	C 	0.72500 0.82030 0.66410 0.44100
C 	C 	0.74290 0.07730 0.92740 0.43700
C 	C 	0.59080 0.90470 0.84160 0.09000
C 	C 	0.56320 0.98250 0.86350 -0.11700
H 	H 	0.57460 0.04700 0.86320 0.07400
C 	C 	0.51950 0.96770 0.88540 -0.01000
H 	H 	0.50110 0.02210 0.89560 0.03600
C 	C 	0.50190 0.87060 0.89290 -0.02600
C 	C 	0.45920 0.84950 0.92460 -0.01900
H 	H 	0.44090 0.90180 0.94060 0.04900
C 	C 	0.44410 0.75500 0.93230 -0.08300
C 	C 	0.47060 0.67550 0.90600 0.02400
H 	H 	0.45970 0.61100 0.91020 0.02800
C 	C 	0.51250 0.69060 0.87400 -0.12700
H 	H 	0.52950 0.63690 0.85610 0.07100
C 	C 	0.52980 0.78920 0.86840 0.08700
C 	C 	0.57370 0.81000 0.84160 -0.15500
H 	H 	0.59150 0.75780 0.82340 0.08700
C 	C 	0.39980 0.73560 0.97380 0.30900
O 	O 	0.70000 0.75220 0.62110 -0.43900
O 	O 	0.76520 0.84360 0.65160 -0.48700
O 	O 	0.78500 0.05610 0.95070 -0.43300
O 	O 	0.72540 0.15410 0.95460 -0.53000
O 	O 	0.38300 0.64870 0.96780 -0.39400
O 	O 	0.38060 0.80480 0.01310 -0.40100
Ho	Ho	0.81541 0.19907 0.04077 1.63900
C 	C 	0.20440 0.37820 0.74200 -0.14700
C 	C 	0.23240 0.44630 0.79910 0.08100
H 	H 	0.26360 0.45270 0.79290 0.01600
C 	C 	0.21290 0.50430 0.86530 -0.16000
C 	C 	0.16630 0.49370 0.87490 0.03400
H 	H 	0.15340 0.53490 0.91750 0.02100
C 	C 	0.13910 0.42300 0.82230 -0.06600
C 	C 	0.15910 0.36460 0.75400 0.03500
H 	H 	0.14130 0.31690 0.71740 0.03200
C 	C 	0.22500 0.32030 0.66410 0.44200
C 	C 	0.24290 0.57730 0.92740 0.43900
C 	C 	0.09080 0.40470 0.84160 0.09300
C 	C 	0.06320 0.48250 0.86350 -0.11800
H 	H 	0.07460 0.54700 0.86320 0.07300
C 	C 	0.01950 0.46770 0.88540 -0.00500
H 	H 	0.00110 0.52210 0.89560 0.03200
C 	C 	0.00190 0.37060 0.89290 -0.02900
C 	C 	0.95920 0.34950 0.92460 -0.01600
H 	H 	0.94090 0.40180 0.94060 0.04900
C 	C 	0.94410 0.25500 0.93230 -0.08600
C 	C 	0.97060 0.17550 0.90600 0.02700
H 	H 	0.95970 0.11100 0.91020 0.02700
C 	C 	0.01250 0.19060 0.87400 -0.13000
H 	H 	0.02950 0.13690 0.85610 0.07100
C 	C 	0.02980 0.28920 0.86840 0.09000
C 	C 	0.07370 0.31000 0.84160 -0.15800
H 	H 	0.09150 0.25780 0.82340 0.08800
C 	C 	0.89980 0.23560 0.97380 0.31200
O 	O 	0.20000 0.25220 0.62110 -0.43900
O 	O 	0.26520 0.34360 0.65160 -0.48700
O 	O 	0.28500 0.55610 0.95070 -0.43500
O 	O 	0.22540 0.65410 0.95460 -0.53200
O 	O 	0.88300 0.14870 0.96780 -0.39400
O 	O 	0.88060 0.30480 0.01310 -0.40300
