data_crystal

_cell_length_a 9.32720
_cell_length_b 21.37700
_cell_length_c 21.37700
_cell_angle_alpha 90.00000
_cell_angle_beta  90.00000
_cell_angle_gamma 90.00000

_symmetry_space_group_name_	'P 1'
_symmetry_space_group_name_H-M	'P 1'

loop_
_symmetry_equiv_pos_as_xyz
  x,y,z

loop_
_atom_site_label
_atom_site_type_symbol
_atom_site_fract_x
_atom_site_fract_y
_atom_site_fract_z
_atom_site_charge
Zn	Zn	0.42272 0.99694 0.64694 1.20800
C 	C 	0.13660 0.95129 0.60266 0.09000
H 	H 	0.10686 0.94020 0.64268 -0.00200
C 	C 	0.25540 0.98573 0.52591 0.09200
H 	H 	0.32873 0.00427 0.50300 0.00900
C 	C 	0.25200 0.93750 0.24905 0.09900
H 	H 	0.31736 0.97000 0.25389 -0.00400
C 	C 	0.08270 0.87898 0.21814 0.08800
H 	H 	0.00487 0.86484 0.19490 0.00600
C 	C 	0.05980 0.78660 0.72760 0.09300
H 	H 	0.03110 0.82588 0.71364 0.01400
C 	C 	0.07850 0.70380 0.77620 0.09200
H 	H 	0.06061 0.67252 0.80541 0.01100
C 	C 	0.92900 0.91019 0.54159 0.08500
C 	C 	0.90320 0.88144 0.48438 -0.06600
H 	H 	0.97268 0.88210 0.45318 0.07000
C 	C 	0.77320 0.85175 0.47417 -0.08300
H 	H 	0.75601 0.83224 0.43602 0.07400
C 	C 	0.66760 0.85080 0.52050 0.09400
C 	C 	0.69760 0.87818 0.57802 -0.09200
H 	H 	0.62982 0.87651 0.60988 0.06700
C 	C 	0.82720 0.90786 0.58834 -0.06800
H 	H 	0.84583 0.92629 0.62690 0.06100
C 	C 	0.32970 0.86903 0.33784 0.09000
C 	C 	0.33010 0.80703 0.35831 -0.06600
H 	H 	0.28466 0.77608 0.33504 0.06700
C 	C 	0.39850 0.79234 0.41323 -0.08000
H 	H 	0.39746 0.75142 0.42799 0.06600
C 	C 	0.46970 0.83893 0.44692 0.09100
C 	C 	0.47400 0.90017 0.42445 -0.08500
H 	H 	0.52500 0.93070 0.44602 0.08000
C 	C 	0.40250 0.91514 0.37031 -0.06600
H 	H 	0.40311 0.95606 0.35554 0.06500
C 	C 	0.43880 0.80358 0.55428 0.08500
C 	C 	0.48870 0.76663 0.60340 -0.07300
H 	H 	0.58343 0.75308 0.60324 0.06400
C 	C 	0.40010 0.74980 0.65219 -0.08000
H 	H 	0.43565 0.72639 0.68542 0.08000
C 	C 	0.25750 0.76813 0.65122 0.09800
C 	C 	0.20420 0.80164 0.60138 -0.07700
H 	H 	0.10733 0.81193 0.60008 0.06500
C 	C 	0.29360 0.82007 0.55327 -0.08100
H 	H 	0.25724 0.84346 0.52019 0.07100
C 	C 	0.63540 0.04577 0.56060 0.36000
C 	C 	0.59950 0.40042 0.76946 0.31800
C 	C 	0.78320 0.07528 0.55603 -0.10500
C 	C 	0.87910 0.07240 0.60530 0.03700
H 	H 	0.85201 0.05297 0.64240 0.03200
C 	C 	0.01640 0.09825 0.60000 -0.10100
H 	H 	0.07928 0.09622 0.63372 0.06100
C 	C 	0.05970 0.12702 0.54470 0.04100
C 	C 	0.96410 0.12790 0.49490 -0.10500
H 	H 	0.99164 0.14571 0.45709 0.07300
C 	C 	0.82800 0.10270 0.50110 0.03900
H 	H 	0.76532 0.10425 0.46725 0.03100
C 	C 	0.54560 0.35243 0.72361 -0.08800
C 	C 	0.64100 0.31990 0.68515 0.02200
H 	H 	0.73884 0.32752 0.68873 0.04100
C 	C 	0.59330 0.27663 0.64195 -0.09500
H 	H 	0.65941 0.25537 0.61730 0.06700
C 	C 	0.44560 0.26422 0.63465 0.03100
C 	C 	0.35120 0.29540 0.67470 -0.09400
H 	H 	0.25346 0.28738 0.67154 0.07200
C 	C 	0.39920 0.33800 0.71903 0.02200
H 	H 	0.33401 0.35708 0.74584 0.03900
C 	C 	0.39410 0.22123 0.58449 0.04600
C 	C 	0.47350 0.21230 0.53034 -0.10800
H 	H 	0.56378 0.23055 0.52701 0.07100
C 	C 	0.42110 0.17690 0.48110 0.03000
H 	H 	0.47524 0.17198 0.44490 0.02600
C 	C 	0.28770 0.14870 0.48600 -0.10900
H 	H 	0.25333 0.12447 0.45312 0.07400
C 	C 	0.20470 0.15626 0.53943 0.03900
C 	C 	0.26010 0.19199 0.58805 -0.12000
H 	H 	0.20614 0.19664 0.62433 0.07600
N 	N 	0.26070 0.97896 0.58831 -0.27900
N 	N 	0.06240 0.94221 0.55021 -0.10900
N 	N 	0.13790 0.96399 0.49994 -0.09100
N 	N 	0.14830 0.93555 0.20684 -0.26700
N 	N 	0.24810 0.88560 0.28353 -0.11100
N 	N 	0.13850 0.84650 0.26431 -0.09400
N 	N 	0.00230 0.75710 0.77560 -0.13600
N 	N 	0.16590 0.75237 0.70153 -0.10900
N 	N 	0.18080 0.69780 0.73330 -0.09000
N 	N 	0.53240 0.82371 0.50651 -0.15300
O 	O 	0.59270 0.03859 0.61752 -0.46700
O 	O 	0.57030 0.02970 0.51444 -0.30800
O 	O 	0.50400 0.42541 0.80520 -0.44700
O 	O 	0.72820 0.41497 0.77038 -0.31300
Zn	Zn	0.07728 0.00306 0.14694 1.20900
C 	C 	0.36340 0.04871 0.10266 0.09100
H 	H 	0.39314 0.05980 0.14268 -0.00100
C 	C 	0.24460 0.01427 0.02591 0.08900
H 	H 	0.17127 0.99573 0.00300 0.01000
C 	C 	0.24800 0.06250 0.74905 0.09900
H 	H 	0.18264 0.03000 0.75389 -0.00400
C 	C 	0.41730 0.12102 0.71814 0.08800
H 	H 	0.49513 0.13516 0.69490 0.00600
C 	C 	0.44020 0.21340 0.22760 0.09300
H 	H 	0.46890 0.17412 0.21364 0.01400
C 	C 	0.42150 0.29620 0.27620 0.09200
H 	H 	0.43939 0.32748 0.30541 0.01100
C 	C 	0.57100 0.08981 0.04159 0.08400
C 	C 	0.59680 0.11856 0.98438 -0.06400
H 	H 	0.52732 0.11790 0.95318 0.07000
C 	C 	0.72680 0.14825 0.97417 -0.08200
H 	H 	0.74399 0.16776 0.93602 0.07400
C 	C 	0.83240 0.14920 0.02050 0.09200
C 	C 	0.80240 0.12182 0.07802 -0.09200
H 	H 	0.87018 0.12349 0.10988 0.06700
C 	C 	0.67280 0.09214 0.08834 -0.06800
H 	H 	0.65417 0.07371 0.12690 0.06100
C 	C 	0.17030 0.13097 0.83784 0.08900
C 	C 	0.16990 0.19297 0.85831 -0.06500
H 	H 	0.21534 0.22392 0.83504 0.06700
C 	C 	0.10150 0.20766 0.91323 -0.08100
H 	H 	0.10254 0.24858 0.92799 0.06600
C 	C 	0.03030 0.16107 0.94692 0.09200
C 	C 	0.02600 0.09983 0.92445 -0.08600
H 	H 	0.97500 0.06930 0.94602 0.08200
C 	C 	0.09750 0.08486 0.87031 -0.06400
H 	H 	0.09689 0.04394 0.85554 0.06500
C 	C 	0.06120 0.19642 0.05428 0.08400
C 	C 	0.01130 0.23337 0.10340 -0.07500
H 	H 	0.91657 0.24692 0.10324 0.06400
C 	C 	0.09990 0.25020 0.15219 -0.08000
H 	H 	0.06435 0.27361 0.18542 0.07900
C 	C 	0.24250 0.23187 0.15122 0.09800
C 	C 	0.29580 0.19836 0.10138 -0.07700
H 	H 	0.39267 0.18807 0.10008 0.06500
C 	C 	0.20640 0.17993 0.05327 -0.08100
H 	H 	0.24276 0.15654 0.02019 0.07000
C 	C 	0.86460 0.95423 0.06060 0.36100
C 	C 	0.90050 0.59958 0.26946 0.31800
C 	C 	0.71680 0.92472 0.05603 -0.10900
C 	C 	0.62090 0.92760 0.10530 0.04100
H 	H 	0.64799 0.94703 0.14240 0.03000
C 	C 	0.48360 0.90175 0.10000 -0.10600
H 	H 	0.42072 0.90378 0.13372 0.06200
C 	C 	0.44030 0.87298 0.04470 0.04600
C 	C 	0.53590 0.87210 0.99490 -0.11400
H 	H 	0.50836 0.85429 0.95709 0.07600
C 	C 	0.67200 0.89730 0.00110 0.04800
H 	H 	0.73468 0.89575 0.96725 0.02700
C 	C 	0.95440 0.64757 0.22361 -0.08800
C 	C 	0.85900 0.68010 0.18515 0.02200
H 	H 	0.76116 0.67248 0.18873 0.04100
C 	C 	0.90670 0.72337 0.14195 -0.09500
H 	H 	0.84059 0.74463 0.11730 0.06700
C 	C 	0.05440 0.73578 0.13465 0.03100
C 	C 	0.14880 0.70460 0.17470 -0.09400
H 	H 	0.24654 0.71262 0.17154 0.07200
C 	C 	0.10080 0.66200 0.21903 0.02200
H 	H 	0.16599 0.64292 0.24584 0.03900
C 	C 	0.10590 0.77877 0.08449 0.04600
C 	C 	0.02650 0.78770 0.03034 -0.10800
H 	H 	0.93622 0.76945 0.02701 0.07100
C 	C 	0.07890 0.82310 0.98110 0.03000
H 	H 	0.02476 0.82802 0.94490 0.02600
C 	C 	0.21230 0.85130 0.98600 -0.10900
H 	H 	0.24667 0.87553 0.95312 0.07400
C 	C 	0.29530 0.84374 0.03943 0.03800
C 	C 	0.23990 0.80801 0.08805 -0.11900
H 	H 	0.29386 0.80336 0.12433 0.07600
N 	N 	0.23930 0.02104 0.08831 -0.27900
N 	N 	0.43760 0.05779 0.05021 -0.10900
N 	N 	0.36210 0.03601 0.99994 -0.08900
N 	N 	0.35170 0.06445 0.70684 -0.26700
N 	N 	0.25190 0.11440 0.78353 -0.11100
N 	N 	0.36150 0.15350 0.76431 -0.09400
N 	N 	0.49770 0.24290 0.27560 -0.13600
N 	N 	0.33410 0.24763 0.20153 -0.10900
N 	N 	0.31920 0.30220 0.23330 -0.09000
N 	N 	0.96760 0.17629 0.00651 -0.15300
O 	O 	0.90730 0.96141 0.11752 -0.46700
O 	O 	0.92970 0.97030 0.01444 -0.30800
O 	O 	0.99600 0.57459 0.30520 -0.44700
O 	O 	0.77180 0.58503 0.27038 -0.31300
Zn	Zn	0.57728 0.49694 0.85306 1.21000
C 	C 	0.86340 0.45129 0.89734 0.09100
H 	H 	0.89314 0.44020 0.85732 -0.00200
C 	C 	0.74460 0.48573 0.97409 0.09300
H 	H 	0.67127 0.50427 0.99700 0.00800
C 	C 	0.74800 0.43750 0.25095 0.09900
H 	H 	0.68264 0.47000 0.24611 -0.00400
C 	C 	0.91730 0.37898 0.28186 0.08800
H 	H 	0.99513 0.36484 0.30510 0.00500
C 	C 	0.94020 0.28660 0.77240 0.09300
H 	H 	0.96890 0.32588 0.78636 0.01300
C 	C 	0.92150 0.20380 0.72380 0.09200
H 	H 	0.93939 0.17252 0.69459 0.01100
C 	C 	0.07100 0.41019 0.95841 0.08700
C 	C 	0.09680 0.38144 0.01562 -0.06800
H 	H 	0.02732 0.38210 0.04682 0.07100
C 	C 	0.22680 0.35175 0.02583 -0.08300
H 	H 	0.24399 0.33224 0.06398 0.07400
C 	C 	0.33240 0.35080 0.97950 0.09400
C 	C 	0.30240 0.37818 0.92198 -0.09100
H 	H 	0.37018 0.37651 0.89012 0.06700
C 	C 	0.17280 0.40786 0.91166 -0.06900
H 	H 	0.15417 0.42629 0.87310 0.06100
C 	C 	0.67030 0.36903 0.16216 0.09000
C 	C 	0.66990 0.30703 0.14169 -0.06600
H 	H 	0.71534 0.27608 0.16496 0.06700
C 	C 	0.60150 0.29234 0.08677 -0.07900
H 	H 	0.60254 0.25142 0.07201 0.06500
C 	C 	0.53030 0.33893 0.05308 0.09000
C 	C 	0.52600 0.40017 0.07555 -0.08400
H 	H 	0.47500 0.43070 0.05398 0.08000
C 	C 	0.59750 0.41514 0.12969 -0.06600
H 	H 	0.59689 0.45606 0.14446 0.06500
C 	C 	0.56120 0.30358 0.94572 0.08500
C 	C 	0.51130 0.26663 0.89660 -0.07400
H 	H 	0.41657 0.25308 0.89676 0.06400
C 	C 	0.59990 0.24980 0.84781 -0.08000
H 	H 	0.56435 0.22639 0.81458 0.08000
C 	C 	0.74250 0.26813 0.84878 0.09800
C 	C 	0.79580 0.30164 0.89862 -0.07700
H 	H 	0.89267 0.31193 0.89992 0.06500
C 	C 	0.70640 0.32007 0.94673 -0.08100
H 	H 	0.74276 0.34346 0.97981 0.07100
C 	C 	0.36460 0.54577 0.93940 0.36000
C 	C 	0.40050 0.90042 0.73054 0.31800
C 	C 	0.21680 0.57528 0.94397 -0.10600
C 	C 	0.12090 0.57240 0.89470 0.03800
H 	H 	0.14799 0.55297 0.85760 0.03100
C 	C 	0.98360 0.59825 0.90000 -0.10300
H 	H 	0.92072 0.59622 0.86628 0.06100
C 	C 	0.94030 0.62702 0.95530 0.04100
C 	C 	0.03590 0.62790 0.00510 -0.10600
H 	H 	0.00836 0.64571 0.04291 0.07300
C 	C 	0.17200 0.60270 0.99890 0.04100
H 	H 	0.23468 0.60425 0.03275 0.03000
C 	C 	0.45440 0.85243 0.77639 -0.08800
C 	C 	0.35900 0.81990 0.81485 0.02200
H 	H 	0.26116 0.82752 0.81127 0.04100
C 	C 	0.40670 0.77663 0.85805 -0.09500
H 	H 	0.34059 0.75537 0.88270 0.06700
C 	C 	0.55440 0.76422 0.86535 0.03100
C 	C 	0.64880 0.79540 0.82530 -0.09400
H 	H 	0.74654 0.78738 0.82846 0.07200
C 	C 	0.60080 0.83800 0.78097 0.02200
H 	H 	0.66599 0.85708 0.75416 0.03900
C 	C 	0.60590 0.72123 0.91551 0.04600
C 	C 	0.52650 0.71230 0.96966 -0.10900
H 	H 	0.43622 0.73055 0.97299 0.07100
C 	C 	0.57890 0.67690 0.01890 0.03100
H 	H 	0.52476 0.67198 0.05510 0.02600
C 	C 	0.71230 0.64870 0.01400 -0.10800
H 	H 	0.74667 0.62447 0.04688 0.07400
C 	C 	0.79530 0.65626 0.96057 0.03800
C 	C 	0.73990 0.69199 0.91195 -0.11900
H 	H 	0.79386 0.69664 0.87567 0.07600
N 	N 	0.73930 0.47896 0.91169 -0.28000
N 	N 	0.93760 0.44221 0.94979 -0.10900
N 	N 	0.86210 0.46399 0.00006 -0.09200
N 	N 	0.85170 0.43555 0.29316 -0.26800
N 	N 	0.75190 0.38560 0.21647 -0.11100
N 	N 	0.86150 0.34650 0.23569 -0.09400
N 	N 	0.99770 0.25710 0.72440 -0.13600
N 	N 	0.83410 0.25237 0.79847 -0.10900
N 	N 	0.81920 0.19780 0.76670 -0.09000
N 	N 	0.46760 0.32371 0.99349 -0.15200
O 	O 	0.40730 0.53859 0.88248 -0.46700
O 	O 	0.42970 0.52970 0.98556 -0.30800
O 	O 	0.49600 0.92541 0.69480 -0.44700
O 	O 	0.27180 0.91497 0.72962 -0.31300
Zn	Zn	0.92272 0.50306 0.35306 1.20900
C 	C 	0.63660 0.54871 0.39734 0.09100
H 	H 	0.60686 0.55980 0.35732 -0.00200
C 	C 	0.75540 0.51427 0.47409 0.09300
H 	H 	0.82873 0.49573 0.49700 0.00700
C 	C 	0.75200 0.56250 0.75095 0.09900
H 	H 	0.81736 0.53000 0.74611 -0.00400
C 	C 	0.58270 0.62102 0.78186 0.08800
H 	H 	0.50487 0.63516 0.80510 0.00600
C 	C 	0.55980 0.71340 0.27240 0.09300
H 	H 	0.53110 0.67412 0.28636 0.01400
C 	C 	0.57850 0.79620 0.22380 0.09200
H 	H 	0.56061 0.82748 0.19459 0.01100
C 	C 	0.42900 0.58981 0.45841 0.08600
C 	C 	0.40320 0.61856 0.51562 -0.06600
H 	H 	0.47268 0.61790 0.54682 0.07100
C 	C 	0.27320 0.64825 0.52583 -0.08200
H 	H 	0.25601 0.66776 0.56398 0.07400
C 	C 	0.16760 0.64920 0.47950 0.09400
C 	C 	0.19760 0.62182 0.42198 -0.09200
H 	H 	0.12982 0.62349 0.39012 0.06700
C 	C 	0.32720 0.59214 0.41166 -0.06900
H 	H 	0.34583 0.57371 0.37310 0.06100
C 	C 	0.82970 0.63097 0.66216 0.08900
C 	C 	0.83010 0.69297 0.64169 -0.06500
H 	H 	0.78466 0.72392 0.66496 0.06700
C 	C 	0.89850 0.70766 0.58677 -0.08000
H 	H 	0.89746 0.74858 0.57201 0.06600
C 	C 	0.96970 0.66107 0.55308 0.09100
C 	C 	0.97400 0.59983 0.57555 -0.08700
H 	H 	0.02500 0.56930 0.55398 0.08200
C 	C 	0.90250 0.58486 0.62969 -0.06400
H 	H 	0.90311 0.54394 0.64446 0.06400
C 	C 	0.93880 0.69642 0.44572 0.08400
C 	C 	0.98870 0.73337 0.39660 -0.07500
H 	H 	0.08343 0.74692 0.39676 0.06400
C 	C 	0.90010 0.75020 0.34781 -0.08000
H 	H 	0.93565 0.77361 0.31458 0.07900
C 	C 	0.75750 0.73187 0.34878 0.09800
C 	C 	0.70420 0.69836 0.39862 -0.07700
H 	H 	0.60733 0.68807 0.39992 0.06500
C 	C 	0.79360 0.67993 0.44673 -0.08100
H 	H 	0.75724 0.65654 0.47981 0.07100
C 	C 	0.13540 0.45423 0.43940 0.36000
C 	C 	0.09950 0.09958 0.23054 0.31800
C 	C 	0.28320 0.42472 0.44397 -0.10500
C 	C 	0.37910 0.42760 0.39470 0.03600
H 	H 	0.35201 0.44703 0.35760 0.03100
C 	C 	0.51640 0.40175 0.40000 -0.10100
H 	H 	0.57928 0.40378 0.36628 0.06100
C 	C 	0.55970 0.37298 0.45530 0.04100
C 	C 	0.46410 0.37210 0.50510 -0.10500
H 	H 	0.49164 0.35429 0.54291 0.07300
C 	C 	0.32800 0.39730 0.49890 0.03900
H 	H 	0.26532 0.39575 0.53275 0.03100
C 	C 	0.04560 0.14757 0.27639 -0.08800
C 	C 	0.14100 0.18010 0.31485 0.02200
H 	H 	0.23884 0.17248 0.31127 0.04100
C 	C 	0.09330 0.22337 0.35805 -0.09500
H 	H 	0.15941 0.24463 0.38270 0.06700
C 	C 	0.94560 0.23578 0.36535 0.03100
C 	C 	0.85120 0.20460 0.32530 -0.09400
H 	H 	0.75346 0.21262 0.32846 0.07200
C 	C 	0.89920 0.16200 0.28097 0.02300
H 	H 	0.83401 0.14292 0.25416 0.03900
C 	C 	0.89410 0.27877 0.41551 0.04700
C 	C 	0.97350 0.28770 0.46966 -0.11000
H 	H 	0.06378 0.26945 0.47299 0.07200
C 	C 	0.92110 0.32310 0.51890 0.03100
H 	H 	0.97524 0.32802 0.55510 0.02600
C 	C 	0.78770 0.35130 0.51400 -0.10900
H 	H 	0.75333 0.37553 0.54688 0.07400
C 	C 	0.70470 0.34374 0.46057 0.04000
C 	C 	0.76010 0.30801 0.41195 -0.12000
H 	H 	0.70614 0.30336 0.37567 0.07600
N 	N 	0.76070 0.52104 0.41169 -0.28000
N 	N 	0.56240 0.55779 0.44979 -0.10900
N 	N 	0.63790 0.53601 0.50006 -0.09200
N 	N 	0.64830 0.56445 0.79316 -0.26800
N 	N 	0.74810 0.61440 0.71647 -0.11100
N 	N 	0.63850 0.65350 0.73569 -0.09400
N 	N 	0.50230 0.74290 0.22440 -0.13600
N 	N 	0.66590 0.74763 0.29847 -0.10900
N 	N 	0.68080 0.80220 0.26670 -0.09000
N 	N 	0.03240 0.67629 0.49349 -0.15200
O 	O 	0.09270 0.46141 0.38248 -0.46700
O 	O 	0.07030 0.47030 0.48556 -0.30800
O 	O 	0.00400 0.07459 0.19480 -0.44700
O 	O 	0.22820 0.08503 0.22962 -0.31300
