data_crystal

_cell_length_a 16.63200
_cell_length_b 17.39100
_cell_length_c 15.68500
_cell_angle_alpha 90.00000
_cell_angle_beta  90.00000
_cell_angle_gamma 90.00000

_symmetry_space_group_name_	'P 1'
_symmetry_space_group_name_H-M	'P 1'

loop_
_symmetry_equiv_pos_as_xyz
  x,y,z

loop_
_atom_site_label
_atom_site_type_symbol
_atom_site_fract_x
_atom_site_fract_y
_atom_site_fract_z
_atom_site_charge
Cd	Cd	0.11980 0.35440 0.56220 1.13000
Cd	Cd	0.29210 0.12290 0.39990 1.15600
C 	C 	0.16200 0.46500 0.50300 -0.30400
C 	C 	0.42200 0.16700 0.43700 -0.20800
C 	C 	0.16200 0.35000 0.69600 -0.30700
C 	C 	0.23000 0.21600 0.47000 -0.27800
C 	C 	0.18800 0.25900 0.50500 -0.32200
C 	C 	0.48700 0.16500 0.44000 -0.32100
C 	C 	0.31900 0.14100 0.26600 -0.29100
C 	C 	0.31800 0.02100 0.47500 -0.28600
N 	N 	0.16900 0.06800 0.35800 -0.20300
C 	C 	0.11200 0.05400 0.31900 -0.42500
Cd	Cd	0.38020 0.14560 0.06220 1.14300
Cd	Cd	0.20790 0.37710 0.89990 1.15400
C 	C 	0.33800 0.03500 0.00300 -0.29100
C 	C 	0.07800 0.33300 0.93700 -0.20300
C 	C 	0.33800 0.15000 0.19600 -0.29100
C 	C 	0.27000 0.28400 0.97000 -0.27900
C 	C 	0.31200 0.24100 0.00500 -0.30900
C 	C 	0.01300 0.33500 0.94000 -0.38300
C 	C 	0.18100 0.35900 0.76600 -0.29300
C 	C 	0.18200 0.47900 0.97500 -0.28200
N 	N 	0.33100 0.43200 0.85800 -0.20300
C 	C 	0.38800 0.44600 0.81900 -0.39700
Cd	Cd	0.88020 0.35440 0.93780 1.15900
Cd	Cd	0.70790 0.12290 0.10010 1.15900
C 	C 	0.83800 0.46500 0.99700 -0.26700
C 	C 	0.57800 0.16700 0.06300 -0.20600
C 	C 	0.83800 0.35000 0.80400 -0.26800
C 	C 	0.77000 0.21600 0.03000 -0.27100
C 	C 	0.81200 0.25900 0.99500 -0.28500
C 	C 	0.51300 0.16500 0.06000 -0.32300
C 	C 	0.68100 0.14100 0.23400 -0.28200
C 	C 	0.68200 0.02100 0.02500 -0.27700
N 	N 	0.83100 0.06800 0.14200 -0.20300
C 	C 	0.88800 0.05400 0.18100 -0.34900
Cd	Cd	0.61980 0.14560 0.43780 1.14500
Cd	Cd	0.79210 0.37710 0.60010 1.16100
C 	C 	0.66200 0.03500 0.49700 -0.28100
C 	C 	0.92200 0.33300 0.56300 -0.21100
C 	C 	0.66200 0.15000 0.30400 -0.28400
C 	C 	0.73000 0.28400 0.53000 -0.26800
C 	C 	0.68800 0.24100 0.49500 -0.30000
C 	C 	0.98700 0.33500 0.56000 -0.25700
C 	C 	0.81900 0.35900 0.73400 -0.28000
C 	C 	0.81800 0.47900 0.52500 -0.27600
N 	N 	0.66900 0.43200 0.64200 -0.20000
C 	C 	0.61200 0.44600 0.68100 -0.39500
Cd	Cd	0.88020 0.64560 0.43780 1.15900
Cd	Cd	0.70790 0.87710 0.60010 1.16000
C 	C 	0.83800 0.53500 0.49700 -0.26400
C 	C 	0.57800 0.83300 0.56300 -0.20500
C 	C 	0.83800 0.65000 0.30400 -0.26700
C 	C 	0.77000 0.78400 0.53000 -0.27200
C 	C 	0.81200 0.74100 0.49500 -0.28300
C 	C 	0.51300 0.83500 0.56000 -0.32300
C 	C 	0.68100 0.85900 0.73400 -0.28200
C 	C 	0.68200 0.97900 0.52500 -0.27700
N 	N 	0.83100 0.93200 0.64200 -0.20300
C 	C 	0.88800 0.94600 0.68100 -0.35000
Cd	Cd	0.61980 0.85440 0.93780 1.14500
Cd	Cd	0.79210 0.62290 0.10010 1.16100
C 	C 	0.66200 0.96500 0.99700 -0.28300
C 	C 	0.92200 0.66700 0.06300 -0.21100
C 	C 	0.66200 0.85000 0.80400 -0.28400
C 	C 	0.73000 0.71600 0.03000 -0.26700
C 	C 	0.68800 0.75900 0.99500 -0.30100
C 	C 	0.98700 0.66500 0.06000 -0.25600
C 	C 	0.81900 0.64100 0.23400 -0.28000
C 	C 	0.81800 0.52100 0.02500 -0.27500
N 	N 	0.66900 0.56800 0.14200 -0.20100
C 	C 	0.61200 0.55400 0.18100 -0.39500
Cd	Cd	0.11980 0.64560 0.06220 1.12900
Cd	Cd	0.29210 0.87710 0.89990 1.15600
C 	C 	0.16200 0.53500 0.00300 -0.30900
C 	C 	0.42200 0.83300 0.93700 -0.20800
C 	C 	0.16200 0.65000 0.19600 -0.30700
C 	C 	0.23000 0.78400 0.97000 -0.27400
C 	C 	0.18800 0.74100 0.00500 -0.32500
C 	C 	0.48700 0.83500 0.94000 -0.32200
C 	C 	0.31900 0.85900 0.76600 -0.29000
C 	C 	0.31800 0.97900 0.97500 -0.28400
N 	N 	0.16900 0.93200 0.85800 -0.20300
C 	C 	0.11200 0.94600 0.81900 -0.42400
Cd	Cd	0.38020 0.85440 0.56220 1.14300
Cd	Cd	0.20790 0.62290 0.39990 1.15400
C 	C 	0.33800 0.96500 0.50300 -0.28800
C 	C 	0.07800 0.66700 0.43700 -0.20200
C 	C 	0.33800 0.85000 0.69600 -0.29100
C 	C 	0.27000 0.71600 0.47000 -0.28200
C 	C 	0.31200 0.75900 0.50500 -0.30500
C 	C 	0.01300 0.66500 0.44000 -0.38600
C 	C 	0.18100 0.64100 0.26600 -0.29300
C 	C 	0.18200 0.52100 0.47500 -0.28700
N 	N 	0.33100 0.56800 0.35800 -0.20300
C 	C 	0.38800 0.55400 0.31900 -0.39800
Cd	Cd	-0.00000 0.04750 0.25000 1.06300
Cd	Cd	0.50000 0.45250 0.75000 1.08900
Cd	Cd	-0.00000 0.95250 0.75000 1.06400
Cd	Cd	0.50000 0.54750 0.25000 1.08900
