data_crystal

_cell_length_a 23.71400
_cell_length_b 23.71400
_cell_length_c 16.57500
_cell_angle_alpha 90.00000
_cell_angle_beta  90.00000
_cell_angle_gamma 90.00000

_symmetry_space_group_name_	'P 1'
_symmetry_space_group_name_H-M	'P 1'

loop_
_symmetry_equiv_pos_as_xyz
  x,y,z

loop_
_atom_site_label
_atom_site_type_symbol
_atom_site_fract_x
_atom_site_fract_y
_atom_site_fract_z
_atom_site_charge
Ce	Ce	0.37054 0.64558 0.08940 2.00600
O 	O 	0.33690 0.55710 0.02890 -0.55100
O 	O 	0.31790 0.63670 0.96440 -0.56600
O 	O 	0.20270 0.62820 0.71130 -0.57000
O 	O 	0.19090 0.54690 0.64990 -0.54500
O 	O 	0.15990 0.40300 0.86060 -0.23800
O 	O 	0.35210 0.39360 0.83990 -0.25100
C 	C 	0.31580 0.58260 0.96970 0.29100
C 	C 	0.28640 0.54970 0.90440 -0.08000
C 	C 	0.26290 0.57710 0.84080 -0.00300
H 	H 	0.26450 0.61710 0.83800 0.02500
C 	C 	0.20810 0.57520 0.71030 0.30300
C 	C 	0.23600 0.54610 0.77840 -0.08600
C 	C 	0.23370 0.48920 0.78310 -0.06300
H 	H 	0.21460 0.46850 0.74230 0.06900
C 	C 	0.25950 0.46000 0.84840 0.10100
C 	C 	0.28550 0.49020 0.90940 -0.07300
H 	H 	0.30230 0.47130 0.95380 0.06100
C 	C 	0.20200 0.37310 0.85680 0.19900
C 	C 	0.20130 0.31060 0.85700 -0.05800
C 	C 	0.25130 0.28010 0.85670 0.02800
C 	C 	0.30370 0.30720 0.85540 -0.06700
C 	C 	0.30850 0.36950 0.85040 0.21800
C 	C 	0.35340 0.27520 0.85630 -0.02600
H 	H 	0.38900 0.29370 0.85540 0.04200
C 	C 	0.35100 0.21460 0.85860 -0.03300
H 	H 	0.38440 0.19270 0.86110 0.04800
N 	N 	0.25700 0.39870 0.85350 -0.17700
Ce	Ce	0.12946 0.85442 0.08940 2.00400
O 	O 	0.16310 0.94290 0.02890 -0.55300
O 	O 	0.18210 0.86330 0.96440 -0.56600
O 	O 	0.29730 0.87180 0.71130 -0.57000
O 	O 	0.30910 0.95310 0.64990 -0.54500
O 	O 	0.34010 0.09700 0.86060 -0.23800
O 	O 	0.14790 0.10640 0.83990 -0.25100
C 	C 	0.18420 0.91740 0.96970 0.29200
C 	C 	0.21360 0.95030 0.90440 -0.07900
C 	C 	0.23710 0.92290 0.84080 -0.00400
H 	H 	0.23550 0.88290 0.83800 0.02500
C 	C 	0.29190 0.92480 0.71030 0.30300
C 	C 	0.26400 0.95390 0.77840 -0.08500
C 	C 	0.26630 0.01080 0.78310 -0.06400
H 	H 	0.28540 0.03150 0.74230 0.06900
C 	C 	0.24050 0.04000 0.84840 0.10100
C 	C 	0.21450 0.00980 0.90940 -0.07400
H 	H 	0.19770 0.02870 0.95380 0.06100
C 	C 	0.29800 0.12690 0.85680 0.19900
C 	C 	0.29870 0.18940 0.85700 -0.05800
C 	C 	0.24870 0.21990 0.85670 0.02800
C 	C 	0.19630 0.19280 0.85540 -0.06700
C 	C 	0.19150 0.13050 0.85040 0.21800
C 	C 	0.14660 0.22480 0.85630 -0.02600
H 	H 	0.11100 0.20630 0.85540 0.04200
C 	C 	0.14900 0.28540 0.85860 -0.03300
H 	H 	0.11560 0.30730 0.86110 0.04800
N 	N 	0.24300 0.10130 0.85350 -0.17700
Ce	Ce	0.35442 0.87054 0.58940 2.00500
O 	O 	0.44290 0.83690 0.52890 -0.55100
O 	O 	0.36330 0.81790 0.46440 -0.56600
O 	O 	0.37180 0.70270 0.21130 -0.57100
O 	O 	0.45310 0.69090 0.14990 -0.54500
O 	O 	0.59700 0.65990 0.36060 -0.23800
O 	O 	0.60640 0.85210 0.33990 -0.25200
C 	C 	0.41740 0.81580 0.46970 0.29000
C 	C 	0.45030 0.78640 0.40440 -0.08000
C 	C 	0.42290 0.76290 0.34080 -0.00300
H 	H 	0.38290 0.76450 0.33800 0.02500
C 	C 	0.42480 0.70810 0.21030 0.30300
C 	C 	0.45390 0.73600 0.27840 -0.08600
C 	C 	0.51080 0.73370 0.28310 -0.06300
H 	H 	0.53150 0.71460 0.24230 0.06900
C 	C 	0.54000 0.75950 0.34840 0.10100
C 	C 	0.50980 0.78550 0.40940 -0.07300
H 	H 	0.52870 0.80230 0.45380 0.06100
C 	C 	0.62690 0.70200 0.35680 0.19900
C 	C 	0.68940 0.70130 0.35700 -0.05800
C 	C 	0.71990 0.75130 0.35670 0.02800
C 	C 	0.69280 0.80370 0.35540 -0.06700
C 	C 	0.63050 0.80850 0.35040 0.21800
C 	C 	0.72480 0.85340 0.35630 -0.02600
H 	H 	0.70630 0.88900 0.35540 0.04200
C 	C 	0.78540 0.85100 0.35860 -0.03300
H 	H 	0.80730 0.88440 0.36110 0.04800
N 	N 	0.60130 0.75700 0.35350 -0.17700
Ce	Ce	0.14558 0.62946 0.58940 2.00500
O 	O 	0.05710 0.66310 0.52890 -0.55100
O 	O 	0.13670 0.68210 0.46440 -0.56600
O 	O 	0.12820 0.79730 0.21130 -0.57100
O 	O 	0.04690 0.80910 0.14990 -0.54600
O 	O 	0.90300 0.84010 0.36060 -0.23800
O 	O 	0.89360 0.64790 0.33990 -0.25100
C 	C 	0.08260 0.68420 0.46970 0.29000
C 	C 	0.04970 0.71360 0.40440 -0.08100
C 	C 	0.07710 0.73710 0.34080 -0.00200
H 	H 	0.11710 0.73550 0.33800 0.02400
C 	C 	0.07520 0.79190 0.21030 0.30400
C 	C 	0.04610 0.76400 0.27840 -0.08800
C 	C 	0.98920 0.76630 0.28310 -0.06100
H 	H 	0.96850 0.78540 0.24230 0.06800
C 	C 	0.96000 0.74050 0.34840 0.09900
C 	C 	0.99020 0.71450 0.40940 -0.07200
H 	H 	0.97130 0.69770 0.45380 0.06000
C 	C 	0.87310 0.79800 0.35680 0.19900
C 	C 	0.81060 0.79870 0.35700 -0.05800
C 	C 	0.78010 0.74870 0.35670 0.02800
C 	C 	0.80720 0.69630 0.35540 -0.06700
C 	C 	0.86950 0.69150 0.35040 0.21800
C 	C 	0.77520 0.64660 0.35630 -0.02600
H 	H 	0.79370 0.61100 0.35540 0.04200
C 	C 	0.71460 0.64900 0.35860 -0.03300
H 	H 	0.69270 0.61560 0.36110 0.04800
N 	N 	0.89870 0.74300 0.35350 -0.17700
Ce	Ce	0.62946 0.35442 0.91060 2.00500
O 	O 	0.66310 0.44290 0.97110 -0.55200
O 	O 	0.68210 0.36330 0.03560 -0.56600
O 	O 	0.79730 0.37180 0.28870 -0.57000
O 	O 	0.80910 0.45310 0.35010 -0.54500
O 	O 	0.84010 0.59700 0.13940 -0.23800
O 	O 	0.64790 0.60640 0.16010 -0.25100
C 	C 	0.68420 0.41740 0.03030 0.29100
C 	C 	0.71360 0.45030 0.09560 -0.08000
C 	C 	0.73710 0.42290 0.15920 -0.00300
H 	H 	0.73550 0.38290 0.16200 0.02500
C 	C 	0.79190 0.42480 0.28970 0.30300
C 	C 	0.76400 0.45390 0.22160 -0.08600
C 	C 	0.76630 0.51080 0.21690 -0.06300
H 	H 	0.78540 0.53150 0.25770 0.06900
C 	C 	0.74050 0.54000 0.15160 0.10100
C 	C 	0.71450 0.50980 0.09060 -0.07300
H 	H 	0.69770 0.52870 0.04620 0.06100
C 	C 	0.79800 0.62690 0.14320 0.19900
C 	C 	0.79870 0.68940 0.14300 -0.05800
C 	C 	0.74870 0.71990 0.14330 0.02800
C 	C 	0.69630 0.69280 0.14460 -0.06700
C 	C 	0.69150 0.63050 0.14960 0.21800
C 	C 	0.64660 0.72480 0.14370 -0.02600
H 	H 	0.61100 0.70630 0.14460 0.04200
C 	C 	0.64900 0.78540 0.14140 -0.03300
H 	H 	0.61560 0.80730 0.13890 0.04800
N 	N 	0.74300 0.60130 0.14650 -0.17700
Ce	Ce	0.87054 0.14558 0.91060 2.00400
O 	O 	0.83690 0.05710 0.97110 -0.55300
O 	O 	0.81790 0.13670 0.03560 -0.56600
O 	O 	0.70270 0.12820 0.28870 -0.57000
O 	O 	0.69090 0.04690 0.35010 -0.54500
O 	O 	0.65990 0.90300 0.13940 -0.23800
O 	O 	0.85210 0.89360 0.16010 -0.25100
C 	C 	0.81580 0.08260 0.03030 0.29200
C 	C 	0.78640 0.04970 0.09560 -0.07900
C 	C 	0.76290 0.07710 0.15920 -0.00400
H 	H 	0.76450 0.11710 0.16200 0.02500
C 	C 	0.70810 0.07520 0.28970 0.30300
C 	C 	0.73600 0.04610 0.22160 -0.08500
C 	C 	0.73370 0.98920 0.21690 -0.06400
H 	H 	0.71460 0.96850 0.25770 0.06900
C 	C 	0.75950 0.96000 0.15160 0.10100
C 	C 	0.78550 0.99020 0.09060 -0.07400
H 	H 	0.80230 0.97130 0.04620 0.06100
C 	C 	0.70200 0.87310 0.14320 0.19900
C 	C 	0.70130 0.81060 0.14300 -0.05800
C 	C 	0.75130 0.78010 0.14330 0.02800
C 	C 	0.80370 0.80720 0.14460 -0.06700
C 	C 	0.80850 0.86950 0.14960 0.21800
C 	C 	0.85340 0.77520 0.14370 -0.02600
H 	H 	0.88900 0.79370 0.14460 0.04200
C 	C 	0.85100 0.71460 0.14140 -0.03300
H 	H 	0.88440 0.69270 0.13890 0.04800
N 	N 	0.75700 0.89870 0.14650 -0.17700
Ce	Ce	0.64558 0.12946 0.41060 2.00500
O 	O 	0.55710 0.16310 0.47110 -0.55100
O 	O 	0.63670 0.18210 0.53560 -0.56600
O 	O 	0.62820 0.29730 0.78870 -0.57100
O 	O 	0.54690 0.30910 0.85010 -0.54500
O 	O 	0.40300 0.34010 0.63940 -0.23800
O 	O 	0.39360 0.14790 0.66010 -0.25200
C 	C 	0.58260 0.18420 0.53030 0.29000
C 	C 	0.54970 0.21360 0.59560 -0.08000
C 	C 	0.57710 0.23710 0.65920 -0.00300
H 	H 	0.61710 0.23550 0.66200 0.02500
C 	C 	0.57520 0.29190 0.78970 0.30300
C 	C 	0.54610 0.26400 0.72160 -0.08600
C 	C 	0.48920 0.26630 0.71690 -0.06300
H 	H 	0.46850 0.28540 0.75770 0.06900
C 	C 	0.46000 0.24050 0.65160 0.10100
C 	C 	0.49020 0.21450 0.59060 -0.07300
H 	H 	0.47130 0.19770 0.54620 0.06100
C 	C 	0.37310 0.29800 0.64320 0.19900
C 	C 	0.31060 0.29870 0.64300 -0.05800
C 	C 	0.28010 0.24870 0.64330 0.02800
C 	C 	0.30720 0.19630 0.64460 -0.06700
C 	C 	0.36950 0.19150 0.64960 0.21800
C 	C 	0.27520 0.14660 0.64370 -0.02600
H 	H 	0.29370 0.11100 0.64460 0.04200
C 	C 	0.21460 0.14900 0.64140 -0.03300
H 	H 	0.19270 0.11560 0.63890 0.04800
N 	N 	0.39870 0.24300 0.64650 -0.17700
Ce	Ce	0.85442 0.37054 0.41060 2.00500
O 	O 	0.94290 0.33690 0.47110 -0.55100
O 	O 	0.86330 0.31790 0.53560 -0.56600
O 	O 	0.87180 0.20270 0.78870 -0.57100
O 	O 	0.95310 0.19090 0.85010 -0.54600
O 	O 	0.09700 0.15990 0.63940 -0.23800
O 	O 	0.10640 0.35210 0.66010 -0.25100
C 	C 	0.91740 0.31580 0.53030 0.29000
C 	C 	0.95030 0.28640 0.59560 -0.08100
C 	C 	0.92290 0.26290 0.65920 -0.00200
H 	H 	0.88290 0.26450 0.66200 0.02400
C 	C 	0.92480 0.20810 0.78970 0.30400
C 	C 	0.95390 0.23600 0.72160 -0.08800
C 	C 	0.01080 0.23370 0.71690 -0.06100
H 	H 	0.03150 0.21460 0.75770 0.06800
C 	C 	0.04000 0.25950 0.65160 0.09900
C 	C 	0.00980 0.28550 0.59060 -0.07200
H 	H 	0.02870 0.30230 0.54620 0.06000
C 	C 	0.12690 0.20200 0.64320 0.19900
C 	C 	0.18940 0.20130 0.64300 -0.05800
C 	C 	0.21990 0.25130 0.64330 0.02800
C 	C 	0.19280 0.30370 0.64460 -0.06700
C 	C 	0.13050 0.30850 0.64960 0.21800
C 	C 	0.22480 0.35340 0.64370 -0.02600
H 	H 	0.20630 0.38900 0.64460 0.04200
C 	C 	0.28540 0.35100 0.64140 -0.03300
H 	H 	0.30730 0.38440 0.63890 0.04800
N 	N 	0.10130 0.25700 0.64650 -0.17700
