data_crystal

_cell_length_a 9.42990
_cell_length_b 16.49000
_cell_length_c 11.28030
_cell_angle_alpha 90.00000
_cell_angle_beta  97.73100
_cell_angle_gamma 90.00000

_symmetry_space_group_name_	'P 1'
_symmetry_space_group_name_H-M	'P 1'

loop_
_symmetry_equiv_pos_as_xyz
  x,y,z

loop_
_atom_site_label
_atom_site_type_symbol
_atom_site_fract_x
_atom_site_fract_y
_atom_site_fract_z
_atom_site_charge
Zn	Zn	0.36663 0.07754 0.04912 1.23800
O 	O 	0.70782 0.42033 0.64209 -0.41700
O 	O 	0.42611 0.16307 0.94959 -0.43300
O 	O 	0.19357 0.19128 0.91002 -0.28200
O 	O 	0.76876 0.29717 0.71263 -0.26400
O 	O 	0.04506 0.43598 0.66162 -0.45600
O 	O 	0.19979 0.47992 0.54118 -0.47000
C 	C 	0.31931 0.20450 0.89944 0.32900
C 	C 	0.35723 0.27321 0.82068 -0.08000
C 	C 	0.49738 0.28345 0.79720 0.03400
H 	H 	0.56900 0.24920 0.83300 0.06000
C 	C 	0.53114 0.34459 0.72043 -0.08200
C 	C 	0.42349 0.39558 0.66719 0.05000
H 	H 	0.44550 0.43660 0.61610 0.05500
C 	C 	0.28256 0.38561 0.68989 -0.10900
C 	C 	0.25010 0.32461 0.76714 0.04400
H 	H 	0.15650 0.31810 0.78310 0.05500
C 	C 	0.68085 0.35312 0.69043 0.33300
C 	C 	0.16661 0.43820 0.62652 0.39700
Zn	Zn	0.13337 0.57754 0.45088 1.24000
O 	O 	0.79218 0.92033 0.85791 -0.41800
O 	O 	0.07389 0.66307 0.55041 -0.43500
O 	O 	0.30643 0.69128 0.58998 -0.28400
O 	O 	0.73124 0.79717 0.78737 -0.26500
O 	O 	0.45494 0.93598 0.83838 -0.45700
O 	O 	0.30021 0.97992 0.95882 -0.47100
C 	C 	0.18069 0.70450 0.60056 0.33000
C 	C 	0.14277 0.77321 0.67932 -0.08400
C 	C 	0.00262 0.78345 0.70280 0.04200
H 	H 	0.93100 0.74920 0.66700 0.05700
C 	C 	0.96886 0.84459 0.77957 -0.08900
C 	C 	0.07651 0.89558 0.83281 0.05500
H 	H 	0.05450 0.93660 0.88390 0.05400
C 	C 	0.21744 0.88561 0.81011 -0.11200
C 	C 	0.24990 0.82461 0.73286 0.04800
H 	H 	0.34350 0.81810 0.71690 0.05300
C 	C 	0.81915 0.85312 0.80957 0.33500
C 	C 	0.33339 0.93820 0.87348 0.39800
Zn	Zn	0.63337 0.92246 0.95088 1.23900
O 	O 	0.29218 0.57967 0.35791 -0.41600
O 	O 	0.57389 0.83693 0.05041 -0.43300
O 	O 	0.80643 0.80872 0.08998 -0.28200
O 	O 	0.23124 0.70283 0.28737 -0.26400
O 	O 	0.95494 0.56402 0.33838 -0.45600
O 	O 	0.80021 0.52008 0.45882 -0.47000
C 	C 	0.68069 0.79550 0.10056 0.32900
C 	C 	0.64277 0.72679 0.17932 -0.08000
C 	C 	0.50262 0.71655 0.20280 0.03400
H 	H 	0.43100 0.75080 0.16700 0.06000
C 	C 	0.46886 0.65541 0.27957 -0.08200
C 	C 	0.57651 0.60442 0.33281 0.05000
H 	H 	0.55450 0.56340 0.38390 0.05500
C 	C 	0.71744 0.61439 0.31011 -0.10900
C 	C 	0.74990 0.67539 0.23286 0.04400
H 	H 	0.84350 0.68190 0.21690 0.05500
C 	C 	0.31915 0.64688 0.30957 0.33300
C 	C 	0.83339 0.56180 0.37348 0.39700
Zn	Zn	0.86663 0.42246 0.54912 1.24000
O 	O 	0.20782 0.07967 0.14209 -0.41800
O 	O 	0.92611 0.33693 0.44959 -0.43500
O 	O 	0.69357 0.30872 0.41002 -0.28400
O 	O 	0.26876 0.20283 0.21263 -0.26500
O 	O 	0.54506 0.06402 0.16162 -0.45700
O 	O 	0.69979 0.02008 0.04118 -0.47100
C 	C 	0.81931 0.29550 0.39944 0.33000
C 	C 	0.85723 0.22679 0.32068 -0.08400
C 	C 	0.99738 0.21655 0.29720 0.04200
H 	H 	0.06900 0.25080 0.33300 0.05700
C 	C 	0.03114 0.15541 0.22043 -0.08900
C 	C 	0.92349 0.10442 0.16719 0.05500
H 	H 	0.94550 0.06340 0.11610 0.05400
C 	C 	0.78256 0.11439 0.18989 -0.11200
C 	C 	0.75010 0.17539 0.26714 0.04800
H 	H 	0.65650 0.18190 0.28310 0.05300
C 	C 	0.18085 0.14688 0.19043 0.33500
C 	C 	0.66661 0.06180 0.12652 0.39800
