data_crystal

_cell_length_a 16.14020
_cell_length_b 16.36390
_cell_length_c 16.36390
_cell_angle_alpha 75.92390
_cell_angle_beta  60.45120
_cell_angle_gamma 60.45120

_symmetry_space_group_name_	'P 1'
_symmetry_space_group_name_H-M	'P 1'

loop_
_symmetry_equiv_pos_as_xyz
  x,y,z

loop_
_atom_site_label
_atom_site_type_symbol
_atom_site_fract_x
_atom_site_fract_y
_atom_site_fract_z
_atom_site_charge
Gd	Gd	0.29276 0.46991 0.62207 1.38400
Gd	Gd	0.35184 0.02150 0.61480 1.48700
Gd	Gd	0.88474 0.03009 0.87793 1.34800
Gd	Gd	0.48814 0.47850 0.88520 1.48800
Gd	Gd	0.91483 0.37793 0.96991 1.36400
Gd	Gd	0.96664 0.38520 0.52150 1.48500
Gd	Gd	0.76267 0.12207 0.53009 1.38200
Gd	Gd	0.37334 0.11480 0.97850 1.47700
Gd	Gd	0.70724 0.53009 0.37793 1.38500
Gd	Gd	0.64816 0.97850 0.38520 1.48800
Gd	Gd	0.11526 0.96991 0.12207 1.34900
Gd	Gd	0.51186 0.52150 0.11480 1.48900
Gd	Gd	0.08517 0.62207 0.03009 1.36400
Gd	Gd	0.03336 0.61480 0.47850 1.48500
Gd	Gd	0.23733 0.87793 0.46991 1.38200
Gd	Gd	0.62666 0.88520 0.02150 1.47700
H 	H 	0.41000 0.22800 0.60400 -0.04700
H 	H 	0.44500 0.26000 0.74200 -0.02500
H 	H 	0.74200 0.27200 0.89600 -0.04700
H 	H 	0.94700 0.24000 0.75800 -0.02600
H 	H 	0.01400 0.39600 0.72800 -0.04100
H 	H 	0.18700 0.25800 0.76000 -0.02500
H 	H 	0.63800 0.10400 0.77200 -0.04700
H 	H 	0.70500 0.24200 0.74000 -0.02500
H 	H 	0.59000 0.77200 0.39600 -0.04700
H 	H 	0.55500 0.74000 0.25800 -0.02500
H 	H 	0.25800 0.72800 0.10400 -0.04700
H 	H 	0.05300 0.76000 0.24200 -0.02600
H 	H 	0.98600 0.60400 0.27200 -0.04100
H 	H 	0.81300 0.74200 0.24000 -0.02500
H 	H 	0.36200 0.89600 0.22800 -0.04700
H 	H 	0.29500 0.75800 0.26000 -0.02500
C 	C 	0.15050 0.43060 0.54700 0.32800
C 	C 	0.22780 0.33750 0.55830 -0.04300
C 	C 	0.24970 0.24520 0.54920 -0.06200
C 	C 	0.19650 0.20460 0.53100 0.38500
C 	C 	0.36050 0.24090 0.58790 0.14700
C 	C 	0.11070 0.45010 0.82410 0.35800
C 	C 	0.20340 0.37120 0.83100 -0.06900
C 	C 	0.21540 0.29930 0.89770 -0.05100
C 	C 	0.14310 0.27830 0.98770 0.34600
C 	C 	0.36960 0.27870 0.78570 0.12500
C 	C 	0.62810 0.06940 0.95300 0.30800
C 	C 	0.62360 0.16250 0.94170 -0.03800
C 	C 	0.54410 0.25480 0.95080 -0.06500
C 	C 	0.43210 0.29540 0.96900 0.38500
C 	C 	0.68930 0.25910 0.91210 0.14500
C 	C 	0.88490 0.04990 0.67590 0.34200
C 	C 	0.90560 0.12880 0.66900 -0.06600
C 	C 	0.91240 0.20070 0.60230 -0.05600
C 	C 	0.90910 0.22170 0.51230 0.35500
C 	C 	0.93400 0.22130 0.71430 0.12400
C 	C 	0.69750 0.45300 0.93060 0.32300
C 	C 	0.78610 0.44170 0.83750 -0.04100
C 	C 	0.79890 0.45080 0.74520 -0.06300
C 	C 	0.72750 0.46900 0.70460 0.38500
C 	C 	0.94840 0.41210 0.74090 0.13800
C 	C 	0.93480 0.17590 0.95010 0.33300
C 	C 	0.03440 0.16900 0.87120 -0.05500
C 	C 	0.11310 0.10230 0.79930 -0.05500
C 	C 	0.13080 0.01230 0.77830 0.35100
C 	C 	0.15530 0.21430 0.77870 0.12500
C 	C 	0.58110 0.04700 0.56940 0.32700
C 	C 	0.56530 0.05830 0.66250 -0.04300
C 	C 	0.49490 0.04920 0.75480 -0.06400
C 	C 	0.40110 0.03100 0.79540 0.38500
C 	C 	0.60140 0.08790 0.75910 0.14500
C 	C 	0.56080 0.32410 0.54990 0.35900
C 	C 	0.57460 0.33100 0.62880 -0.07000
C 	C 	0.51470 0.39770 0.70070 -0.05400
C 	C 	0.42140 0.48770 0.72170 0.35500
C 	C 	0.64830 0.28570 0.72130 0.12500
C 	C 	0.84950 0.56940 0.45300 0.32800
C 	C 	0.77220 0.66250 0.44170 -0.04300
C 	C 	0.75030 0.75480 0.45080 -0.06200
C 	C 	0.80350 0.79540 0.46900 0.38500
C 	C 	0.63950 0.75910 0.41210 0.14700
C 	C 	0.88930 0.54990 0.17590 0.35800
C 	C 	0.79660 0.62880 0.16900 -0.06900
C 	C 	0.78460 0.70070 0.10230 -0.05100
C 	C 	0.85690 0.72170 0.01230 0.34600
C 	C 	0.63040 0.72130 0.21430 0.12500
C 	C 	0.37190 0.93060 0.04700 0.30800
C 	C 	0.37640 0.83750 0.05830 -0.03800
C 	C 	0.45590 0.74520 0.04920 -0.06500
C 	C 	0.56790 0.70460 0.03100 0.38500
C 	C 	0.31070 0.74090 0.08790 0.14500
C 	C 	0.11510 0.95010 0.32410 0.34200
C 	C 	0.09440 0.87120 0.33100 -0.06600
C 	C 	0.08760 0.79930 0.39770 -0.05600
C 	C 	0.09090 0.77830 0.48770 0.35500
C 	C 	0.06600 0.77870 0.28570 0.12400
C 	C 	0.30250 0.54700 0.06940 0.32300
C 	C 	0.21390 0.55830 0.16250 -0.04100
C 	C 	0.20110 0.54920 0.25480 -0.06300
C 	C 	0.27250 0.53100 0.29540 0.38500
C 	C 	0.05160 0.58790 0.25910 0.13800
C 	C 	0.06520 0.82410 0.04990 0.33300
C 	C 	0.96560 0.83100 0.12880 -0.05500
C 	C 	0.88690 0.89770 0.20070 -0.05500
C 	C 	0.86920 0.98770 0.22170 0.35100
C 	C 	0.84470 0.78570 0.22130 0.12500
C 	C 	0.41890 0.95300 0.43060 0.32700
C 	C 	0.43470 0.94170 0.33750 -0.04300
C 	C 	0.50510 0.95080 0.24520 -0.06400
C 	C 	0.59890 0.96900 0.20460 0.38500
C 	C 	0.39860 0.91210 0.24090 0.14500
C 	C 	0.43920 0.67590 0.45010 0.35900
C 	C 	0.42540 0.66900 0.37120 -0.07000
C 	C 	0.48530 0.60230 0.29930 -0.05400
C 	C 	0.57860 0.51230 0.27830 0.35500
C 	C 	0.35170 0.71430 0.27870 0.12500
N 	N 	0.29900 0.33210 0.58550 -0.22000
N 	N 	0.33390 0.18410 0.56850 -0.21400
N 	N 	0.30270 0.35760 0.76000 -0.19400
N 	N 	0.32300 0.24120 0.86620 -0.19800
N 	N 	0.71660 0.16790 0.91450 -0.22000
N 	N 	0.58650 0.31590 0.93150 -0.21400
N 	N 	0.92030 0.14240 0.74000 -0.19500
N 	N 	0.93040 0.25880 0.63380 -0.19800
N 	N 	0.88450 0.41450 0.83210 -0.21900
N 	N 	0.90240 0.43150 0.68410 -0.21300
N 	N 	0.06270 0.24000 0.85760 -0.19400
N 	N 	0.18920 0.13380 0.74120 -0.19700
N 	N 	0.63110 0.08550 0.66790 -0.22000
N 	N 	0.51800 0.06850 0.81590 -0.21400
N 	N 	0.66030 0.26000 0.64240 -0.19400
N 	N 	0.56420 0.36620 0.75880 -0.19800
N 	N 	0.70100 0.66790 0.41450 -0.22000
N 	N 	0.66610 0.81590 0.43150 -0.21400
N 	N 	0.69730 0.64240 0.24000 -0.19400
N 	N 	0.67700 0.75880 0.13380 -0.19800
N 	N 	0.28340 0.83210 0.08550 -0.22000
N 	N 	0.41350 0.68410 0.06850 -0.21400
N 	N 	0.07970 0.85760 0.26000 -0.19500
N 	N 	0.06960 0.74120 0.36620 -0.19800
N 	N 	0.11550 0.58550 0.16790 -0.21900
N 	N 	0.09760 0.56850 0.31590 -0.21300
N 	N 	0.93730 0.76000 0.14240 -0.19400
N 	N 	0.81080 0.86620 0.25880 -0.19700
N 	N 	0.36890 0.91450 0.33210 -0.22000
N 	N 	0.48200 0.93150 0.18410 -0.21400
N 	N 	0.33970 0.74000 0.35760 -0.19400
N 	N 	0.43580 0.63380 0.24120 -0.19800
O 	O 	0.14990 0.50040 0.57100 -0.43100
O 	O 	0.08790 0.44520 0.51360 -0.49300
O 	O 	0.12780 0.25360 0.50320 -0.44000
O 	O 	0.22880 0.11680 0.54420 -0.40200
O 	O 	0.02010 0.45490 0.87330 -0.42600
O 	O 	0.12880 0.51360 0.76380 -0.40200
O 	O 	0.04350 0.32330 0.02150 -0.42100
O 	O 	0.18680 0.21060 0.03480 -0.39700
O 	O 	0.72130 0.99960 0.92900 -0.40700
O 	O 	0.54670 0.05480 0.98640 -0.49200
O 	O 	0.38460 0.24640 0.99680 -0.44200
O 	O 	0.38980 0.38320 0.95580 -0.40300
O 	O 	0.84830 0.04510 0.62670 -0.42800
O 	O 	0.90620 0.98640 0.73620 -0.38300
O 	O 	0.88830 0.17670 0.47850 -0.42800
O 	O 	0.93220 0.28940 0.46520 -0.40700
O 	O 	0.72090 0.42900 0.00040 -0.42400
O 	O 	0.60150 0.48640 0.94520 -0.49300
O 	O 	0.63100 0.49680 0.75360 -0.44200
O 	O 	0.77300 0.45580 0.61680 -0.40400
O 	O 	0.89340 0.12670 0.95490 -0.42600
O 	O 	0.89260 0.23620 0.01360 -0.38400
O 	O 	0.06500 0.97850 0.82330 -0.41700
O 	O 	0.22160 0.96520 0.71060 -0.40300
O 	O 	0.65030 0.07100 0.49960 -0.43100
O 	O 	0.53310 0.01360 0.55480 -0.49500
O 	O 	0.38140 0.00320 0.74640 -0.44400
O 	O 	0.34560 0.04420 0.88320 -0.40500
O 	O 	0.47500 0.37330 0.54510 -0.43000
O 	O 	0.64240 0.26380 0.48640 -0.40200
O 	O 	0.36680 0.52150 0.67670 -0.42800
O 	O 	0.39740 0.53480 0.78940 -0.40600
O 	O 	0.85010 0.49960 0.42900 -0.43100
O 	O 	0.91210 0.55480 0.48640 -0.49300
O 	O 	0.87220 0.74640 0.49680 -0.44000
O 	O 	0.77120 0.88320 0.45580 -0.40200
O 	O 	0.97990 0.54510 0.12670 -0.42600
O 	O 	0.87120 0.48640 0.23620 -0.40200
O 	O 	0.95650 0.67670 0.97850 -0.42100
O 	O 	0.81320 0.78940 0.96520 -0.39700
O 	O 	0.27870 0.00040 0.07100 -0.40700
O 	O 	0.45330 0.94520 0.01360 -0.49200
O 	O 	0.61540 0.75360 0.00320 -0.44200
O 	O 	0.61020 0.61680 0.04420 -0.40300
O 	O 	0.15170 0.95490 0.37330 -0.42800
O 	O 	0.09380 0.01360 0.26380 -0.38300
O 	O 	0.11170 0.82330 0.52150 -0.42800
O 	O 	0.06780 0.71060 0.53480 -0.40700
O 	O 	0.27910 0.57100 0.99960 -0.42400
O 	O 	0.39850 0.51360 0.05480 -0.49300
O 	O 	0.36900 0.50320 0.24640 -0.44200
O 	O 	0.22700 0.54420 0.38320 -0.40400
O 	O 	0.10660 0.87330 0.04510 -0.42600
O 	O 	0.10740 0.76380 0.98640 -0.38400
O 	O 	0.93500 0.02150 0.17670 -0.41700
O 	O 	0.77840 0.03480 0.28940 -0.40300
O 	O 	0.34970 0.92900 0.50040 -0.43100
O 	O 	0.46690 0.98640 0.44520 -0.49500
O 	O 	0.61860 0.99680 0.25360 -0.44400
O 	O 	0.65440 0.95580 0.11680 -0.40500
O 	O 	0.52500 0.62670 0.45490 -0.43000
O 	O 	0.35760 0.73620 0.51360 -0.40200
O 	O 	0.63320 0.47850 0.32330 -0.42800
O 	O 	0.60260 0.46520 0.21060 -0.40600
