data_crystal

_cell_length_a 7.69100
_cell_length_b 10.21470
_cell_length_c 15.81540
_cell_angle_alpha 90.00000
_cell_angle_beta  90.00000
_cell_angle_gamma 90.00000

_symmetry_space_group_name_	'P 1'
_symmetry_space_group_name_H-M	'P 1'

loop_
_symmetry_equiv_pos_as_xyz
  x,y,z

loop_
_atom_site_label
_atom_site_type_symbol
_atom_site_fract_x
_atom_site_fract_y
_atom_site_fract_z
_atom_site_charge
Cd	Cd	0.96722 0.29083 0.78848 1.21400
Cd	Cd	0.03278 0.79083 0.21152 1.21700
Cd	Cd	0.46722 0.29083 0.71152 1.21700
Cd	Cd	0.53278 0.79083 0.28848 1.21700
H 	H 	0.20330 0.03110 0.00350 0.05100
H 	H 	0.51780 0.01950 0.80130 0.06800
H 	H 	0.65740 0.83680 0.01480 0.10400
H 	H 	0.84410 0.81960 0.90020 0.26300
H 	H 	0.84830 0.94600 0.84410 0.27200
H 	H 	0.75210 0.82030 0.81170 0.25900
H 	H 	0.79670 0.53110 0.99650 0.05200
H 	H 	0.48220 0.51950 0.19870 0.09100
H 	H 	0.34260 0.33680 0.98520 0.10600
H 	H 	0.15590 0.31960 0.09980 0.26600
H 	H 	0.15170 0.44600 0.15590 0.27300
H 	H 	0.24790 0.32030 0.18830 0.26100
H 	H 	0.70330 0.03110 0.49650 0.05500
H 	H 	0.01780 0.01950 0.69870 0.07600
H 	H 	0.15740 0.83680 0.48520 0.10600
H 	H 	0.34410 0.81960 0.59980 0.26800
H 	H 	0.34830 0.94600 0.65590 0.27600
H 	H 	0.25210 0.82030 0.68830 0.26300
H 	H 	0.29670 0.53110 0.50350 0.05500
H 	H 	0.98220 0.51950 0.30130 0.08900
H 	H 	0.84260 0.33680 0.51480 0.10600
H 	H 	0.65590 0.31960 0.40020 0.26500
H 	H 	0.65170 0.44600 0.34410 0.27200
H 	H 	0.74790 0.32030 0.31170 0.25900
C 	C 	0.38930 0.89590 0.11470 0.35900
C 	C 	0.42630 0.93070 0.02430 -0.01400
C 	C 	0.30710 0.00480 0.97850 -0.05900
C 	C 	0.34330 0.03930 0.89530 -0.03500
C 	C 	0.49500 0.99630 0.85700 -0.18400
C 	C 	0.61510 0.91810 0.90130 0.29400
C 	C 	0.57880 0.88750 0.98440 -0.21400
C 	C 	0.77960 0.87190 0.86070 -0.81700
C 	C 	0.21940 0.12370 0.84790 0.30200
C 	C 	0.61070 0.39590 0.88530 0.35900
C 	C 	0.57370 0.43070 0.97570 -0.01800
C 	C 	0.69290 0.50480 0.02150 -0.05700
C 	C 	0.65670 0.53930 0.10470 -0.01100
C 	C 	0.50500 0.49630 0.14300 -0.22900
C 	C 	0.38490 0.41810 0.09870 0.31100
C 	C 	0.42120 0.38750 0.01560 -0.22400
C 	C 	0.22040 0.37190 0.13930 -0.83300
C 	C 	0.78060 0.62370 0.15210 0.29500
C 	C 	0.88930 0.89590 0.38530 0.35700
C 	C 	0.92630 0.93070 0.47570 -0.00600
C 	C 	0.80710 0.00480 0.52150 -0.07000
C 	C 	0.84330 0.03930 0.60470 -0.03000
C 	C 	0.99500 0.99630 0.64300 -0.19600
C 	C 	0.11510 0.91810 0.59870 0.30500
C 	C 	0.07880 0.88750 0.51560 -0.22100
C 	C 	0.27960 0.87190 0.63930 -0.83100
C 	C 	0.71940 0.12370 0.65210 0.30000
C 	C 	0.11070 0.39590 0.61470 0.36200
C 	C 	0.07370 0.43070 0.52430 -0.01400
C 	C 	0.19290 0.50480 0.47850 -0.06000
C 	C 	0.15670 0.53930 0.39530 -0.01100
C 	C 	0.00500 0.49630 0.35700 -0.22400
C 	C 	0.88490 0.41810 0.40130 0.30800
C 	C 	0.92120 0.38750 0.48440 -0.22600
C 	C 	0.72040 0.37190 0.36070 -0.82900
C 	C 	0.28060 0.62370 0.34790 0.29500
O 	O 	0.23840 0.89560 0.13950 -0.48200
O 	O 	0.52380 0.87150 0.16040 -0.46100
O 	O 	0.07520 0.15140 0.88320 -0.42500
O 	O 	0.25090 0.16560 0.77450 -0.49400
O 	O 	0.76160 0.39560 0.86050 -0.48500
O 	O 	0.47620 0.37150 0.83960 -0.46300
O 	O 	0.92480 0.65140 0.11680 -0.42300
O 	O 	0.74910 0.66560 0.22550 -0.49100
O 	O 	0.73840 0.89560 0.36050 -0.48100
O 	O 	0.02380 0.87150 0.33960 -0.46100
O 	O 	0.57520 0.15140 0.61680 -0.42800
O 	O 	0.75090 0.16560 0.72550 -0.49500
O 	O 	0.26160 0.39560 0.63950 -0.48500
O 	O 	0.97620 0.37150 0.66040 -0.46600
O 	O 	0.42480 0.65140 0.38320 -0.42400
O 	O 	0.24910 0.66560 0.27450 -0.49100
