data_crystal

_cell_length_a 7.33900
_cell_length_b 11.24700
_cell_length_c 15.84580
_cell_angle_alpha 90.00000
_cell_angle_beta  90.00000
_cell_angle_gamma 90.00000

_symmetry_space_group_name_	'P 1'
_symmetry_space_group_name_H-M	'P 1'

loop_
_symmetry_equiv_pos_as_xyz
  x,y,z

loop_
_atom_site_label
_atom_site_type_symbol
_atom_site_fract_x
_atom_site_fract_y
_atom_site_fract_z
_atom_site_charge
Cd	Cd	0.46990 0.48930 0.22170 1.20800
Cd	Cd	0.53010 0.98930 0.77830 1.15300
Cd	Cd	0.96990 0.48930 0.27830 1.20600
Cd	Cd	0.03010 0.98930 0.72170 1.15100
H 	H 	0.35170 0.43530 0.49030 0.13200
H 	H 	0.46200 0.24040 0.69530 0.12200
H 	H 	0.81190 0.24520 0.50070 0.09300
H 	H 	0.18480 0.34730 0.69180 0.29600
H 	H 	0.09870 0.36350 0.60200 0.30200
H 	H 	0.20380 0.46900 0.64450 0.28000
H 	H 	0.64830 0.93530 0.50970 0.07300
H 	H 	0.53800 0.74040 0.30470 0.08900
H 	H 	0.18810 0.74520 0.49930 0.05400
H 	H 	0.81520 0.84730 0.30820 0.23800
H 	H 	0.90130 0.86350 0.39800 0.23700
H 	H 	0.79620 0.96900 0.35550 0.19900
H 	H 	0.85170 0.43530 0.00970 0.11900
H 	H 	0.96200 0.24040 0.80470 0.11700
H 	H 	0.31190 0.24520 0.99930 0.09000
H 	H 	0.68480 0.34730 0.80820 0.29100
H 	H 	0.59870 0.36350 0.89800 0.29700
H 	H 	0.70380 0.46900 0.85550 0.27500
H 	H 	0.14830 0.93530 0.99030 0.06400
H 	H 	0.03800 0.74040 0.19530 0.08600
H 	H 	0.68810 0.74520 0.00070 0.05400
H 	H 	0.31520 0.84730 0.19180 0.23500
H 	H 	0.40130 0.86350 0.10200 0.23300
H 	H 	0.29620 0.96900 0.14450 0.19600
C 	C 	0.64600 0.40020 0.39830 0.33000
C 	C 	0.58800 0.35210 0.48220 0.04100
C 	C 	0.42800 0.38350 0.51930 -0.27300
C 	C 	0.37100 0.34280 0.59860 0.38000
C 	C 	0.49200 0.26640 0.64140 -0.27400
C 	C 	0.65100 0.22960 0.60730 0.06300
C 	C 	0.70400 0.27090 0.52530 -0.10300
C 	C 	0.20000 0.38400 0.63760 -0.91900
C 	C 	0.78300 0.14210 0.64880 0.28600
C 	C 	0.35400 0.90020 0.60170 0.34500
C 	C 	0.41200 0.85210 0.51780 -0.03700
C 	C 	0.57200 0.88350 0.48070 -0.20700
C 	C 	0.62900 0.84280 0.40140 0.27100
C 	C 	0.50800 0.76640 0.35860 -0.21500
C 	C 	0.34900 0.72960 0.39270 -0.01000
C 	C 	0.29600 0.77090 0.47470 -0.06700
C 	C 	0.80000 0.88400 0.36240 -0.75500
C 	C 	0.21700 0.64210 0.35120 0.30500
C 	C 	0.14600 0.40020 0.10170 0.33500
C 	C 	0.08800 0.35210 0.01780 0.02500
C 	C 	0.92800 0.38350 0.98070 -0.24600
C 	C 	0.87100 0.34280 0.90140 0.36300
C 	C 	0.99200 0.26640 0.85860 -0.25800
C 	C 	0.15100 0.22960 0.89270 0.05100
C 	C 	0.20400 0.27090 0.97470 -0.09300
C 	C 	0.70000 0.38400 0.86240 -0.90000
C 	C 	0.28300 0.14210 0.85120 0.28900
C 	C 	0.85400 0.90020 0.89830 0.34600
C 	C 	0.91200 0.85210 0.98220 -0.03700
C 	C 	0.07200 0.88350 0.01930 -0.19500
C 	C 	0.12900 0.84280 0.09860 0.26200
C 	C 	0.00800 0.76640 0.14140 -0.20600
C 	C 	0.84900 0.72960 0.10730 -0.01500
C 	C 	0.79600 0.77090 0.02530 -0.06700
C 	C 	0.30000 0.88400 0.13760 -0.74300
C 	C 	0.71700 0.64210 0.14880 0.30700
O 	O 	0.52090 0.45500 0.35880 -0.45400
O 	O 	0.80850 0.39300 0.37800 -0.45100
O 	O 	0.74200 0.11240 0.72520 -0.43000
O 	O 	0.91850 0.10560 0.61400 -0.33400
O 	O 	0.47910 0.95500 0.64120 -0.53200
O 	O 	0.19150 0.89300 0.62200 -0.51300
O 	O 	0.25800 0.61240 0.27480 -0.50500
O 	O 	0.08150 0.60560 0.38600 -0.41500
O 	O 	0.02090 0.45500 0.14120 -0.45400
O 	O 	0.30850 0.39300 0.12200 -0.45200
O 	O 	0.24200 0.11240 0.77480 -0.43200
O 	O 	0.41850 0.10560 0.88600 -0.33500
O 	O 	0.97910 0.95500 0.85880 -0.52800
O 	O 	0.69150 0.89300 0.87800 -0.51200
O 	O 	0.75800 0.61240 0.22520 -0.50600
O 	O 	0.58150 0.60560 0.11400 -0.41600
