data_crystal

_cell_length_a 21.93140
_cell_length_b 21.93140
_cell_length_c 16.70590
_cell_angle_alpha 90.00000
_cell_angle_beta  90.00000
_cell_angle_gamma 90.00000

_symmetry_space_group_name_	'P 1'
_symmetry_space_group_name_H-M	'P 1'

loop_
_symmetry_equiv_pos_as_xyz
  x,y,z

loop_
_atom_site_label
_atom_site_type_symbol
_atom_site_fract_x
_atom_site_fract_y
_atom_site_fract_z
_atom_site_charge
Pr	Pr	0.60950 0.57456 0.61564 1.96900
O 	O 	0.64070 0.49910 0.51080 -0.58100
O 	O 	0.63640 0.68430 0.60910 -0.58500
O 	O 	0.67340 0.76670 0.54970 -0.59500
O 	O 	0.68090 0.47170 0.39400 -0.52400
C 	C 	0.68310 0.67170 0.48380 -0.11700
C 	C 	0.71700 0.69520 0.42090 0.01600
H 	H 	0.72780 0.73610 0.41900 -0.00700
C 	C 	0.73430 0.65460 0.36030 -0.10900
H 	H 	0.75680 0.66840 0.31670 0.03600
C 	C 	0.71790 0.59430 0.36570 0.01700
H 	H 	0.72820 0.56680 0.32550 0.00700
C 	C 	0.68610 0.57550 0.43170 -0.10500
C 	C 	0.66750 0.51030 0.44560 0.38800
C 	C 	0.66330 0.71100 0.55230 0.39600
N 	N 	0.66790 0.61380 0.48930 -0.20000
Pr	Pr	0.10950 0.07456 0.11564 1.96700
O 	O 	0.14070 0.99910 0.01080 -0.58000
O 	O 	0.13640 0.18430 0.10910 -0.58700
O 	O 	0.17340 0.26670 0.04970 -0.59600
O 	O 	0.18090 0.97170 0.89400 -0.52600
C 	C 	0.18310 0.17170 0.98380 -0.11700
C 	C 	0.21700 0.19520 0.92090 0.01500
H 	H 	0.22780 0.23610 0.91900 -0.00600
C 	C 	0.23430 0.15460 0.86030 -0.10800
H 	H 	0.25680 0.16840 0.81670 0.03600
C 	C 	0.21790 0.09430 0.86570 0.01600
H 	H 	0.22820 0.06680 0.82550 0.00700
C 	C 	0.18610 0.07550 0.93170 -0.10500
C 	C 	0.16750 0.01030 0.94560 0.38800
C 	C 	0.16330 0.21100 0.05230 0.39500
N 	N 	0.16790 0.11380 0.98930 -0.20000
Pr	Pr	0.89050 0.42544 0.11564 1.96800
O 	O 	0.85930 0.50090 0.01080 -0.58200
O 	O 	0.86360 0.31570 0.10910 -0.58600
O 	O 	0.82660 0.23330 0.04970 -0.59600
O 	O 	0.81910 0.52830 0.89400 -0.52500
C 	C 	0.81690 0.32830 0.98380 -0.11700
C 	C 	0.78300 0.30480 0.92090 0.01600
H 	H 	0.77220 0.26390 0.91900 -0.00600
C 	C 	0.76570 0.34540 0.86030 -0.10800
H 	H 	0.74320 0.33160 0.81670 0.03600
C 	C 	0.78210 0.40570 0.86570 0.01700
H 	H 	0.77180 0.43320 0.82550 0.00700
C 	C 	0.81390 0.42450 0.93170 -0.10500
C 	C 	0.83250 0.48970 0.94560 0.38800
C 	C 	0.83670 0.28900 0.05230 0.39500
N 	N 	0.83210 0.38620 0.98930 -0.20000
Pr	Pr	0.39050 0.92544 0.61564 1.96800
O 	O 	0.35930 0.00090 0.51080 -0.58300
O 	O 	0.36360 0.81570 0.60910 -0.58600
O 	O 	0.32660 0.73330 0.54970 -0.59600
O 	O 	0.31910 0.02830 0.39400 -0.52600
C 	C 	0.31690 0.82830 0.48380 -0.11800
C 	C 	0.28300 0.80480 0.42090 0.01600
H 	H 	0.27220 0.76390 0.41900 -0.00700
C 	C 	0.26570 0.84540 0.36030 -0.10900
H 	H 	0.24320 0.83160 0.31670 0.03700
C 	C 	0.28210 0.90570 0.36570 0.01700
H 	H 	0.27180 0.93320 0.32550 0.00700
C 	C 	0.31390 0.92450 0.43170 -0.10500
C 	C 	0.33250 0.98970 0.44560 0.39000
C 	C 	0.33670 0.78900 0.55230 0.39600
N 	N 	0.33210 0.88620 0.48930 -0.19900
Pr	Pr	0.17544 0.85950 0.86564 1.96800
O 	O 	0.25090 0.89070 0.76080 -0.58200
O 	O 	0.06570 0.88640 0.85910 -0.58700
O 	O 	0.98330 0.92340 0.79970 -0.59800
O 	O 	0.27830 0.93090 0.64400 -0.52500
C 	C 	0.07830 0.93310 0.73380 -0.11800
C 	C 	0.05480 0.96700 0.67090 0.01500
H 	H 	0.01390 0.97780 0.66900 -0.00600
C 	C 	0.09540 0.98430 0.61030 -0.10600
H 	H 	0.08160 0.00680 0.56670 0.03500
C 	C 	0.15570 0.96790 0.61570 0.01500
H 	H 	0.18320 0.97820 0.57550 0.00800
C 	C 	0.17450 0.93610 0.68170 -0.10500
C 	C 	0.23970 0.91750 0.69560 0.38800
C 	C 	0.03900 0.91330 0.80230 0.39800
N 	N 	0.13620 0.91790 0.73930 -0.20000
Pr	Pr	0.67544 0.35950 0.36564 1.96800
O 	O 	0.75090 0.39070 0.26080 -0.58200
O 	O 	0.56570 0.38640 0.35910 -0.58600
O 	O 	0.48330 0.42340 0.29970 -0.59600
O 	O 	0.77830 0.43090 0.14400 -0.52500
C 	C 	0.57830 0.43310 0.23380 -0.11800
C 	C 	0.55480 0.46700 0.17090 0.01600
H 	H 	0.51390 0.47780 0.16900 -0.00700
C 	C 	0.59540 0.48430 0.11030 -0.10900
H 	H 	0.58160 0.50680 0.06670 0.03600
C 	C 	0.65570 0.46790 0.11570 0.01700
H 	H 	0.68320 0.47820 0.07550 0.00700
C 	C 	0.67450 0.43610 0.18170 -0.10500
C 	C 	0.73970 0.41750 0.19560 0.38800
C 	C 	0.53900 0.41330 0.30230 0.39600
N 	N 	0.63620 0.41790 0.23930 -0.20000
Pr	Pr	0.32456 0.14050 0.36564 1.96800
O 	O 	0.24910 0.10930 0.26080 -0.58300
O 	O 	0.43430 0.11360 0.35910 -0.58700
O 	O 	0.51670 0.07660 0.29970 -0.59600
O 	O 	0.22170 0.06910 0.14400 -0.52600
C 	C 	0.42170 0.06690 0.23380 -0.12100
C 	C 	0.44520 0.03300 0.17090 0.02100
H 	H 	0.48610 0.02220 0.16900 -0.00900
C 	C 	0.40460 0.01570 0.11030 -0.11800
H 	H 	0.41840 0.99320 0.06670 0.04100
C 	C 	0.34430 0.03210 0.11570 0.02200
H 	H 	0.31680 0.02180 0.07550 0.00400
C 	C 	0.32550 0.06390 0.18170 -0.10800
C 	C 	0.26030 0.08250 0.19560 0.38900
C 	C 	0.46100 0.08670 0.30230 0.39700
N 	N 	0.36380 0.08210 0.23930 -0.19900
Pr	Pr	0.82456 0.64050 0.86564 1.96800
O 	O 	0.74910 0.60930 0.76080 -0.58200
O 	O 	0.93430 0.61360 0.85910 -0.58700
O 	O 	0.01670 0.57660 0.79970 -0.59600
O 	O 	0.72170 0.56910 0.64400 -0.52500
C 	C 	0.92170 0.56690 0.73380 -0.11800
C 	C 	0.94520 0.53300 0.67090 0.01600
H 	H 	0.98610 0.52220 0.66900 -0.00700
C 	C 	0.90460 0.51570 0.61030 -0.10900
H 	H 	0.91840 0.49320 0.56670 0.03600
C 	C 	0.84430 0.53210 0.61570 0.01700
H 	H 	0.81680 0.52180 0.57550 0.00700
C 	C 	0.82550 0.56390 0.68170 -0.10500
C 	C 	0.76030 0.58250 0.69560 0.38800
C 	C 	0.96100 0.58670 0.80230 0.39600
N 	N 	0.86380 0.58210 0.73930 -0.20000
Pr	Pr	0.39050 0.42544 0.38436 1.96800
O 	O 	0.35930 0.50090 0.48920 -0.58200
O 	O 	0.36360 0.31570 0.39090 -0.58600
O 	O 	0.32660 0.23330 0.45030 -0.59600
O 	O 	0.31910 0.52830 0.60600 -0.52500
C 	C 	0.31690 0.32830 0.51620 -0.11800
C 	C 	0.28300 0.30480 0.57910 0.01600
H 	H 	0.27220 0.26390 0.58100 -0.00700
C 	C 	0.26570 0.34540 0.63970 -0.10900
H 	H 	0.24320 0.33160 0.68330 0.03600
C 	C 	0.28210 0.40570 0.63430 0.01700
H 	H 	0.27180 0.43320 0.67450 0.00700
C 	C 	0.31390 0.42450 0.56830 -0.10500
C 	C 	0.33250 0.48970 0.55440 0.38800
C 	C 	0.33670 0.28900 0.44770 0.39600
N 	N 	0.33210 0.38620 0.51070 -0.20000
Pr	Pr	0.89050 0.92544 0.88436 1.96700
O 	O 	0.85930 0.00090 0.98920 -0.58000
O 	O 	0.86360 0.81570 0.89090 -0.58700
O 	O 	0.82660 0.73330 0.95030 -0.59600
O 	O 	0.81910 0.02830 0.10600 -0.52600
C 	C 	0.81690 0.82830 0.01620 -0.11700
C 	C 	0.78300 0.80480 0.07910 0.01500
H 	H 	0.77220 0.76390 0.08100 -0.00600
C 	C 	0.76570 0.84540 0.13970 -0.10800
H 	H 	0.74320 0.83160 0.18330 0.03600
C 	C 	0.78210 0.90570 0.13430 0.01600
H 	H 	0.77180 0.93320 0.17450 0.00700
C 	C 	0.81390 0.92450 0.06830 -0.10500
C 	C 	0.83250 0.98970 0.05440 0.38800
C 	C 	0.83670 0.78900 0.94770 0.39500
N 	N 	0.83210 0.88620 0.01070 -0.20000
Pr	Pr	0.10950 0.57456 0.88436 1.96800
O 	O 	0.14070 0.49910 0.98920 -0.58200
O 	O 	0.13640 0.68430 0.89090 -0.58600
O 	O 	0.17340 0.76670 0.95030 -0.59600
O 	O 	0.18090 0.47170 0.10600 -0.52500
C 	C 	0.18310 0.67170 0.01620 -0.11700
C 	C 	0.21700 0.69520 0.07910 0.01600
H 	H 	0.22780 0.73610 0.08100 -0.00600
C 	C 	0.23430 0.65460 0.13970 -0.10800
H 	H 	0.25680 0.66840 0.18330 0.03600
C 	C 	0.21790 0.59430 0.13430 0.01700
H 	H 	0.22820 0.56680 0.17450 0.00700
C 	C 	0.18610 0.57550 0.06830 -0.10500
C 	C 	0.16750 0.51030 0.05440 0.38800
C 	C 	0.16330 0.71100 0.94770 0.39500
N 	N 	0.16790 0.61380 0.01070 -0.20000
Pr	Pr	0.60950 0.07456 0.38436 1.96800
O 	O 	0.64070 0.99910 0.48920 -0.58300
O 	O 	0.63640 0.18430 0.39090 -0.58600
O 	O 	0.67340 0.26670 0.45030 -0.59600
O 	O 	0.68090 0.97170 0.60600 -0.52600
C 	C 	0.68310 0.17170 0.51620 -0.11800
C 	C 	0.71700 0.19520 0.57910 0.01600
H 	H 	0.72780 0.23610 0.58100 -0.00700
C 	C 	0.73430 0.15460 0.63970 -0.10900
H 	H 	0.75680 0.16840 0.68330 0.03700
C 	C 	0.71790 0.09430 0.63430 0.01700
H 	H 	0.72820 0.06680 0.67450 0.00700
C 	C 	0.68610 0.07550 0.56830 -0.10500
C 	C 	0.66750 0.01030 0.55440 0.39000
C 	C 	0.66330 0.21100 0.44770 0.39600
N 	N 	0.66790 0.11380 0.51070 -0.19900
Pr	Pr	0.82456 0.14050 0.13436 1.96800
O 	O 	0.74910 0.10930 0.23920 -0.58200
O 	O 	0.93430 0.11360 0.14090 -0.58700
O 	O 	0.01670 0.07660 0.20030 -0.59800
O 	O 	0.72170 0.06910 0.35600 -0.52500
C 	C 	0.92170 0.06690 0.26620 -0.11800
C 	C 	0.94520 0.03300 0.32910 0.01500
H 	H 	0.98610 0.02220 0.33100 -0.00600
C 	C 	0.90460 0.01570 0.38970 -0.10600
H 	H 	0.91840 0.99320 0.43330 0.03500
C 	C 	0.84430 0.03210 0.38430 0.01500
H 	H 	0.81680 0.02180 0.42450 0.00800
C 	C 	0.82550 0.06390 0.31830 -0.10500
C 	C 	0.76030 0.08250 0.30440 0.38800
C 	C 	0.96100 0.08670 0.19770 0.39800
N 	N 	0.86380 0.08210 0.26070 -0.20000
Pr	Pr	0.32456 0.64050 0.63436 1.96800
O 	O 	0.24910 0.60930 0.73920 -0.58200
O 	O 	0.43430 0.61360 0.64090 -0.58600
O 	O 	0.51670 0.57660 0.70030 -0.59600
O 	O 	0.22170 0.56910 0.85600 -0.52500
C 	C 	0.42170 0.56690 0.76620 -0.11800
C 	C 	0.44520 0.53300 0.82910 0.01600
H 	H 	0.48610 0.52220 0.83100 -0.00700
C 	C 	0.40460 0.51570 0.88970 -0.10900
H 	H 	0.41840 0.49320 0.93330 0.03600
C 	C 	0.34430 0.53210 0.88430 0.01700
H 	H 	0.31680 0.52180 0.92450 0.00700
C 	C 	0.32550 0.56390 0.81830 -0.10500
C 	C 	0.26030 0.58250 0.80440 0.38800
C 	C 	0.46100 0.58670 0.69770 0.39600
N 	N 	0.36380 0.58210 0.76070 -0.20000
Pr	Pr	0.67544 0.85950 0.63436 1.96800
O 	O 	0.75090 0.89070 0.73920 -0.58300
O 	O 	0.56570 0.88640 0.64090 -0.58700
O 	O 	0.48330 0.92340 0.70030 -0.59600
O 	O 	0.77830 0.93090 0.85600 -0.52600
C 	C 	0.57830 0.93310 0.76620 -0.12100
C 	C 	0.55480 0.96700 0.82910 0.02100
H 	H 	0.51390 0.97780 0.83100 -0.00900
C 	C 	0.59540 0.98430 0.88970 -0.11800
H 	H 	0.58160 0.00680 0.93330 0.04100
C 	C 	0.65570 0.96790 0.88430 0.02200
H 	H 	0.68320 0.97820 0.92450 0.00400
C 	C 	0.67450 0.93610 0.81830 -0.10800
C 	C 	0.73970 0.91750 0.80440 0.38900
C 	C 	0.53900 0.91330 0.69770 0.39700
N 	N 	0.63620 0.91790 0.76070 -0.19900
Pr	Pr	0.17544 0.35950 0.13436 1.96800
O 	O 	0.25090 0.39070 0.23920 -0.58200
O 	O 	0.06570 0.38640 0.14090 -0.58700
O 	O 	0.98330 0.42340 0.20030 -0.59600
O 	O 	0.27830 0.43090 0.35600 -0.52500
C 	C 	0.07830 0.43310 0.26620 -0.11800
C 	C 	0.05480 0.46700 0.32910 0.01600
H 	H 	0.01390 0.47780 0.33100 -0.00700
C 	C 	0.09540 0.48430 0.38970 -0.10900
H 	H 	0.08160 0.50680 0.43330 0.03600
C 	C 	0.15570 0.46790 0.38430 0.01700
H 	H 	0.18320 0.47820 0.42450 0.00700
C 	C 	0.17450 0.43610 0.31830 -0.10500
C 	C 	0.23970 0.41750 0.30440 0.38800
C 	C 	0.03900 0.41330 0.19770 0.39600
N 	N 	0.13620 0.41790 0.26070 -0.20000
