data_crystal

_cell_length_a 21.92850
_cell_length_b 21.92850
_cell_length_c 16.72650
_cell_angle_alpha 90.00000
_cell_angle_beta  90.00000
_cell_angle_gamma 90.00000

_symmetry_space_group_name_	'P 1'
_symmetry_space_group_name_H-M	'P 1'

loop_
_symmetry_equiv_pos_as_xyz
  x,y,z

loop_
_atom_site_label
_atom_site_type_symbol
_atom_site_fract_x
_atom_site_fract_y
_atom_site_fract_z
_atom_site_charge
La	La	0.32215 0.35802 0.86356 1.47100
O 	O 	0.24850 0.38900 0.75550 -0.46700
O 	O 	0.22130 0.43140 0.64010 -0.43000
O 	O 	0.51530 0.42420 0.79870 -0.47600
O 	O 	0.43340 0.38500 0.85670 -0.46400
N 	N 	0.36290 0.41720 0.73600 -0.16200
C 	C 	0.42160 0.43330 0.73100 -0.07900
C 	C 	0.44420 0.46700 0.66820 -0.00400
H 	H 	0.48530 0.47750 0.66640 0.01400
C 	C 	0.40540 0.48500 0.60810 -0.07800
H 	H 	0.41970 0.50790 0.56530 0.03600
C 	C 	0.34430 0.46810 0.61270 -0.01200
H 	H 	0.31700 0.47880 0.57240 0.02500
C 	C 	0.32520 0.43530 0.67790 -0.06800
C 	C 	0.26000 0.41710 0.69060 0.35000
C 	C 	0.45960 0.41270 0.80010 0.35400
La	La	0.82215 0.85802 0.36356 1.47100
O 	O 	0.74850 0.88900 0.25550 -0.46800
O 	O 	0.72130 0.93140 0.14010 -0.43200
O 	O 	0.01530 0.92420 0.29870 -0.47800
O 	O 	0.93340 0.88500 0.35670 -0.46500
N 	N 	0.86290 0.91720 0.23600 -0.16300
C 	C 	0.92160 0.93330 0.23100 -0.08100
C 	C 	0.94420 0.96700 0.16820 -0.00400
H 	H 	0.98530 0.97750 0.16640 0.01300
C 	C 	0.90540 0.98500 0.10810 -0.08200
H 	H 	0.91970 0.00790 0.06530 0.03700
C 	C 	0.84430 0.96810 0.11270 -0.01000
H 	H 	0.81700 0.97880 0.07240 0.02400
C 	C 	0.82520 0.93530 0.17790 -0.06900
C 	C 	0.76000 0.91710 0.19060 0.35000
C 	C 	0.95960 0.91270 0.30010 0.35500
La	La	0.17785 0.64198 0.36356 1.47100
O 	O 	0.25150 0.61100 0.25550 -0.46800
O 	O 	0.27870 0.56860 0.14010 -0.43200
O 	O 	0.98470 0.57580 0.29870 -0.47700
O 	O 	0.06660 0.61500 0.35670 -0.46500
N 	N 	0.13710 0.58280 0.23600 -0.16300
C 	C 	0.07840 0.56670 0.23100 -0.08000
C 	C 	0.05580 0.53300 0.16820 -0.00500
H 	H 	0.01470 0.52250 0.16640 0.01300
C 	C 	0.09460 0.51500 0.10810 -0.07900
H 	H 	0.08030 0.49210 0.06530 0.03600
C 	C 	0.15570 0.53190 0.11270 -0.01200
H 	H 	0.18300 0.52120 0.07240 0.02500
C 	C 	0.17480 0.56470 0.17790 -0.06800
C 	C 	0.24000 0.58290 0.19060 0.35000
C 	C 	0.04040 0.58730 0.30010 0.35400
La	La	0.67785 0.14198 0.86356 1.47000
O 	O 	0.75150 0.11100 0.75550 -0.46800
O 	O 	0.77870 0.06860 0.64010 -0.43200
O 	O 	0.48470 0.07580 0.79870 -0.47700
O 	O 	0.56660 0.11500 0.85670 -0.46500
N 	N 	0.63710 0.08280 0.73600 -0.16300
C 	C 	0.57840 0.06670 0.73100 -0.08000
C 	C 	0.55580 0.03300 0.66820 -0.00400
H 	H 	0.51470 0.02250 0.66640 0.01300
C 	C 	0.59460 0.01500 0.60810 -0.08100
H 	H 	0.58030 0.99210 0.56530 0.03700
C 	C 	0.65570 0.03190 0.61270 -0.01100
H 	H 	0.68300 0.02120 0.57240 0.02400
C 	C 	0.67480 0.06470 0.67790 -0.06900
C 	C 	0.74000 0.08290 0.69060 0.35000
C 	C 	0.54040 0.08730 0.80010 0.35400
La	La	0.39198 0.57215 0.11356 1.47000
O 	O 	0.36100 0.49850 0.00550 -0.46800
O 	O 	0.31860 0.47130 0.89010 -0.43100
O 	O 	0.32580 0.76530 0.04870 -0.47700
O 	O 	0.36500 0.68340 0.10670 -0.46500
N 	N 	0.33280 0.61290 0.98600 -0.16300
C 	C 	0.31670 0.67160 0.98100 -0.07900
C 	C 	0.28300 0.69420 0.91820 -0.00600
H 	H 	0.27250 0.73530 0.91640 0.01400
C 	C 	0.26500 0.65540 0.85810 -0.07900
H 	H 	0.24210 0.66970 0.81530 0.03600
C 	C 	0.28190 0.59430 0.86270 -0.01200
H 	H 	0.27120 0.56700 0.82240 0.02500
C 	C 	0.31470 0.57520 0.92790 -0.06800
C 	C 	0.33290 0.51000 0.94060 0.34900
C 	C 	0.33730 0.70960 0.05010 0.35300
La	La	0.89198 0.07215 0.61356 1.47000
O 	O 	0.86100 0.99850 0.50550 -0.46600
O 	O 	0.81860 0.97130 0.39010 -0.43100
O 	O 	0.82580 0.26530 0.54870 -0.47700
O 	O 	0.86500 0.18340 0.60670 -0.46500
N 	N 	0.83280 0.11290 0.48600 -0.16300
C 	C 	0.81670 0.17160 0.48100 -0.08000
C 	C 	0.78300 0.19420 0.41820 -0.00600
H 	H 	0.77250 0.23530 0.41640 0.01300
C 	C 	0.76500 0.15540 0.35810 -0.07900
H 	H 	0.74210 0.16970 0.31530 0.03600
C 	C 	0.78190 0.09430 0.36270 -0.01200
H 	H 	0.77120 0.06700 0.32240 0.02500
C 	C 	0.81470 0.07520 0.42790 -0.06800
C 	C 	0.83290 0.01000 0.44060 0.34800
C 	C 	0.83730 0.20960 0.55010 0.35400
La	La	0.10802 0.42785 0.61356 1.47100
O 	O 	0.13900 0.50150 0.50550 -0.46800
O 	O 	0.18140 0.52870 0.39010 -0.43100
O 	O 	0.17420 0.23470 0.54870 -0.47700
O 	O 	0.13500 0.31660 0.60670 -0.46500
N 	N 	0.16720 0.38710 0.48600 -0.16300
C 	C 	0.18330 0.32840 0.48100 -0.08000
C 	C 	0.21700 0.30580 0.41820 -0.00500
H 	H 	0.22750 0.26470 0.41640 0.01300
C 	C 	0.23500 0.34460 0.35810 -0.07900
H 	H 	0.25790 0.33030 0.31530 0.03600
C 	C 	0.21810 0.40570 0.36270 -0.01200
H 	H 	0.22880 0.43300 0.32240 0.02500
C 	C 	0.18530 0.42480 0.42790 -0.06800
C 	C 	0.16710 0.49000 0.44060 0.35000
C 	C 	0.16270 0.29040 0.55010 0.35400
La	La	0.60802 0.92785 0.11356 1.47000
O 	O 	0.63900 0.00150 0.00550 -0.46800
O 	O 	0.68140 0.02870 0.89010 -0.43400
O 	O 	0.67420 0.73470 0.04870 -0.47700
O 	O 	0.63500 0.81660 0.10670 -0.46500
N 	N 	0.66720 0.88710 0.98600 -0.16300
C 	C 	0.68330 0.82840 0.98100 -0.07900
C 	C 	0.71700 0.80580 0.91820 -0.00600
H 	H 	0.72750 0.76470 0.91640 0.01400
C 	C 	0.73500 0.84460 0.85810 -0.07900
H 	H 	0.75790 0.83030 0.81530 0.03600
C 	C 	0.71810 0.90570 0.86270 -0.01100
H 	H 	0.72880 0.93300 0.82240 0.02500
C 	C 	0.68530 0.92480 0.92790 -0.06800
C 	C 	0.66710 0.99000 0.94060 0.35200
C 	C 	0.66270 0.79040 0.05010 0.35300
La	La	0.67785 0.64198 0.13644 1.47000
O 	O 	0.75150 0.61100 0.24450 -0.46800
O 	O 	0.77870 0.56860 0.35990 -0.43100
O 	O 	0.48470 0.57580 0.20130 -0.47700
O 	O 	0.56660 0.61500 0.14330 -0.46500
N 	N 	0.63710 0.58280 0.26400 -0.16300
C 	C 	0.57840 0.56670 0.26900 -0.08000
C 	C 	0.55580 0.53300 0.33180 -0.00500
H 	H 	0.51470 0.52250 0.33360 0.01300
C 	C 	0.59460 0.51500 0.39190 -0.07900
H 	H 	0.58030 0.49210 0.43470 0.03600
C 	C 	0.65570 0.53190 0.38730 -0.01200
H 	H 	0.68300 0.52120 0.42760 0.02500
C 	C 	0.67480 0.56470 0.32210 -0.06800
C 	C 	0.74000 0.58290 0.30940 0.35000
C 	C 	0.54040 0.58730 0.19990 0.35400
La	La	0.17785 0.14198 0.63644 1.47100
O 	O 	0.25150 0.11100 0.74450 -0.46800
O 	O 	0.27870 0.06860 0.85990 -0.43200
O 	O 	0.98470 0.07580 0.70130 -0.47800
O 	O 	0.06660 0.11500 0.64330 -0.46500
N 	N 	0.13710 0.08280 0.76400 -0.16300
C 	C 	0.07840 0.06670 0.76900 -0.08100
C 	C 	0.05580 0.03300 0.83180 -0.00400
H 	H 	0.01470 0.02250 0.83360 0.01300
C 	C 	0.09460 0.01500 0.89190 -0.08200
H 	H 	0.08030 0.99210 0.93470 0.03700
C 	C 	0.15570 0.03190 0.88730 -0.01000
H 	H 	0.18300 0.02120 0.92760 0.02400
C 	C 	0.17480 0.06470 0.82210 -0.06900
C 	C 	0.24000 0.08290 0.80940 0.35000
C 	C 	0.04040 0.08730 0.69990 0.35500
La	La	0.82215 0.35802 0.63644 1.47100
O 	O 	0.74850 0.38900 0.74450 -0.46800
O 	O 	0.72130 0.43140 0.85990 -0.43200
O 	O 	0.01530 0.42420 0.70130 -0.47700
O 	O 	0.93340 0.38500 0.64330 -0.46500
N 	N 	0.86290 0.41720 0.76400 -0.16300
C 	C 	0.92160 0.43330 0.76900 -0.08000
C 	C 	0.94420 0.46700 0.83180 -0.00500
H 	H 	0.98530 0.47750 0.83360 0.01300
C 	C 	0.90540 0.48500 0.89190 -0.07900
H 	H 	0.91970 0.50790 0.93470 0.03600
C 	C 	0.84430 0.46810 0.88730 -0.01200
H 	H 	0.81700 0.47880 0.92760 0.02500
C 	C 	0.82520 0.43530 0.82210 -0.06800
C 	C 	0.76000 0.41710 0.80940 0.35000
C 	C 	0.95960 0.41270 0.69990 0.35400
La	La	0.32215 0.85802 0.13644 1.47000
O 	O 	0.24850 0.88900 0.24450 -0.46800
O 	O 	0.22130 0.93140 0.35990 -0.43200
O 	O 	0.51530 0.92420 0.20130 -0.47700
O 	O 	0.43340 0.88500 0.14330 -0.46500
N 	N 	0.36290 0.91720 0.26400 -0.16300
C 	C 	0.42160 0.93330 0.26900 -0.08000
C 	C 	0.44420 0.96700 0.33180 -0.00400
H 	H 	0.48530 0.97750 0.33360 0.01300
C 	C 	0.40540 0.98500 0.39190 -0.08100
H 	H 	0.41970 0.00790 0.43470 0.03700
C 	C 	0.34430 0.96810 0.38730 -0.01100
H 	H 	0.31700 0.97880 0.42760 0.02400
C 	C 	0.32520 0.93530 0.32210 -0.06900
C 	C 	0.26000 0.91710 0.30940 0.35000
C 	C 	0.45960 0.91270 0.19990 0.35400
La	La	0.60802 0.42785 0.88644 1.47000
O 	O 	0.63900 0.50150 0.99450 -0.46800
O 	O 	0.68140 0.52870 0.10990 -0.43100
O 	O 	0.67420 0.23470 0.95130 -0.47700
O 	O 	0.63500 0.31660 0.89330 -0.46500
N 	N 	0.66720 0.38710 0.01400 -0.16300
C 	C 	0.68330 0.32840 0.01900 -0.07900
C 	C 	0.71700 0.30580 0.08180 -0.00600
H 	H 	0.72750 0.26470 0.08360 0.01400
C 	C 	0.73500 0.34460 0.14190 -0.07900
H 	H 	0.75790 0.33030 0.18470 0.03600
C 	C 	0.71810 0.40570 0.13730 -0.01200
H 	H 	0.72880 0.43300 0.17760 0.02500
C 	C 	0.68530 0.42480 0.07210 -0.06800
C 	C 	0.66710 0.49000 0.05940 0.34900
C 	C 	0.66270 0.29040 0.94990 0.35300
La	La	0.10802 0.92785 0.38644 1.47000
O 	O 	0.13900 0.00150 0.49450 -0.46600
O 	O 	0.18140 0.02870 0.60990 -0.43100
O 	O 	0.17420 0.73470 0.45130 -0.47700
O 	O 	0.13500 0.81660 0.39330 -0.46500
N 	N 	0.16720 0.88710 0.51400 -0.16300
C 	C 	0.18330 0.82840 0.51900 -0.08000
C 	C 	0.21700 0.80580 0.58180 -0.00600
H 	H 	0.22750 0.76470 0.58360 0.01300
C 	C 	0.23500 0.84460 0.64190 -0.07900
H 	H 	0.25790 0.83030 0.68470 0.03600
C 	C 	0.21810 0.90570 0.63730 -0.01200
H 	H 	0.22880 0.93300 0.67760 0.02500
C 	C 	0.18530 0.92480 0.57210 -0.06800
C 	C 	0.16710 0.99000 0.55940 0.34800
C 	C 	0.16270 0.79040 0.44990 0.35400
La	La	0.89198 0.57215 0.38644 1.47100
O 	O 	0.86100 0.49850 0.49450 -0.46800
O 	O 	0.81860 0.47130 0.60990 -0.43100
O 	O 	0.82580 0.76530 0.45130 -0.47700
O 	O 	0.86500 0.68340 0.39330 -0.46500
N 	N 	0.83280 0.61290 0.51400 -0.16300
C 	C 	0.81670 0.67160 0.51900 -0.08000
C 	C 	0.78300 0.69420 0.58180 -0.00500
H 	H 	0.77250 0.73530 0.58360 0.01300
C 	C 	0.76500 0.65540 0.64190 -0.07900
H 	H 	0.74210 0.66970 0.68470 0.03600
C 	C 	0.78190 0.59430 0.63730 -0.01200
H 	H 	0.77120 0.56700 0.67760 0.02500
C 	C 	0.81470 0.57520 0.57210 -0.06800
C 	C 	0.83290 0.51000 0.55940 0.35000
C 	C 	0.83730 0.70960 0.44990 0.35400
La	La	0.39198 0.07215 0.88644 1.47000
O 	O 	0.36100 0.99850 0.99450 -0.46800
O 	O 	0.31860 0.97130 0.10990 -0.43400
O 	O 	0.32580 0.26530 0.95130 -0.47700
O 	O 	0.36500 0.18340 0.89330 -0.46500
N 	N 	0.33280 0.11290 0.01400 -0.16300
C 	C 	0.31670 0.17160 0.01900 -0.07900
C 	C 	0.28300 0.19420 0.08180 -0.00600
H 	H 	0.27250 0.23530 0.08360 0.01400
C 	C 	0.26500 0.15540 0.14190 -0.07900
H 	H 	0.24210 0.16970 0.18470 0.03600
C 	C 	0.28190 0.09430 0.13730 -0.01100
H 	H 	0.27120 0.06700 0.17760 0.02500
C 	C 	0.31470 0.07520 0.07210 -0.06800
C 	C 	0.33290 0.01000 0.05940 0.35200
C 	C 	0.33730 0.20960 0.94990 0.35300
