data_crystal

_cell_length_a 21.81540
_cell_length_b 21.81540
_cell_length_c 16.19670
_cell_angle_alpha 90.00000
_cell_angle_beta  90.00000
_cell_angle_gamma 90.00000

_symmetry_space_group_name_	'P 1'
_symmetry_space_group_name_H-M	'P 1'

loop_
_symmetry_equiv_pos_as_xyz
  x,y,z

loop_
_atom_site_label
_atom_site_type_symbol
_atom_site_fract_x
_atom_site_fract_y
_atom_site_fract_z
_atom_site_charge
Y 	Y 	0.33502 0.36759 0.87377 2.34400
O 	O 	0.25470 0.38940 0.77450 -0.64700
O 	O 	0.22380 0.42750 0.65380 -0.61400
O 	O 	0.52410 0.41990 0.80410 -0.69200
O 	O 	0.44190 0.38570 0.86720 -0.68400
N 	N 	0.36860 0.42020 0.74740 -0.24300
C 	C 	0.42720 0.43500 0.73880 -0.15300
C 	C 	0.44920 0.46920 0.67120 0.03800
H 	H 	0.49040 0.47940 0.66590 -0.02100
C 	C 	0.40640 0.48680 0.61330 -0.12500
H 	H 	0.41870 0.51060 0.56870 0.04000
C 	C 	0.34500 0.46970 0.62020 0.02900
H 	H 	0.31630 0.48000 0.58000 -0.00100
C 	C 	0.32920 0.43700 0.68890 -0.12300
C 	C 	0.26460 0.41620 0.70450 0.40600
C 	C 	0.46750 0.41230 0.80770 0.44300
Y 	Y 	0.83502 0.86759 0.37377 2.34500
O 	O 	0.75470 0.88940 0.27450 -0.64600
O 	O 	0.72380 0.92750 0.15380 -0.61300
O 	O 	0.02410 0.91990 0.30410 -0.69200
O 	O 	0.94190 0.88570 0.36720 -0.68400
N 	N 	0.86860 0.92020 0.24740 -0.24300
C 	C 	0.92720 0.93500 0.23880 -0.15400
C 	C 	0.94920 0.96920 0.17120 0.03900
H 	H 	0.99040 0.97940 0.16590 -0.02100
C 	C 	0.90640 0.98680 0.11330 -0.12600
H 	H 	0.91870 0.01060 0.06870 0.04000
C 	C 	0.84500 0.96970 0.12020 0.03000
H 	H 	0.81630 0.98000 0.08000 -0.00200
C 	C 	0.82920 0.93700 0.18890 -0.12300
C 	C 	0.76460 0.91620 0.20450 0.40600
C 	C 	0.96750 0.91230 0.30770 0.44300
Y 	Y 	0.16498 0.63241 0.37377 2.34500
O 	O 	0.24530 0.61060 0.27450 -0.64600
O 	O 	0.27620 0.57250 0.15380 -0.61300
O 	O 	0.97590 0.58010 0.30410 -0.69100
O 	O 	0.05810 0.61430 0.36720 -0.68400
N 	N 	0.13140 0.57980 0.24740 -0.24300
C 	C 	0.07280 0.56500 0.23880 -0.15300
C 	C 	0.05080 0.53080 0.17120 0.03800
H 	H 	0.00960 0.52060 0.16590 -0.02100
C 	C 	0.09360 0.51320 0.11330 -0.12500
H 	H 	0.08130 0.48940 0.06870 0.03900
C 	C 	0.15500 0.53030 0.12020 0.02900
H 	H 	0.18370 0.52000 0.08000 -0.00100
C 	C 	0.17080 0.56300 0.18890 -0.12300
C 	C 	0.23540 0.58380 0.20450 0.40600
C 	C 	0.03250 0.58770 0.30770 0.44300
Y 	Y 	0.66498 0.13241 0.87377 2.34500
O 	O 	0.74530 0.11060 0.77450 -0.64600
O 	O 	0.77620 0.07250 0.65380 -0.61300
O 	O 	0.47590 0.08010 0.80410 -0.69200
O 	O 	0.55810 0.11430 0.86720 -0.68400
N 	N 	0.63140 0.07980 0.74740 -0.24300
C 	C 	0.57280 0.06500 0.73880 -0.15400
C 	C 	0.55080 0.03080 0.67120 0.03900
H 	H 	0.50960 0.02060 0.66590 -0.02100
C 	C 	0.59360 0.01320 0.61330 -0.12600
H 	H 	0.58130 0.98940 0.56870 0.04000
C 	C 	0.65500 0.03030 0.62020 0.03000
H 	H 	0.68370 0.02000 0.58000 -0.00100
C 	C 	0.67080 0.06300 0.68890 -0.12300
C 	C 	0.73540 0.08380 0.70450 0.40600
C 	C 	0.53250 0.08770 0.80770 0.44300
Y 	Y 	0.38241 0.58502 0.12377 2.34500
O 	O 	0.36060 0.50470 0.02450 -0.64600
O 	O 	0.32250 0.47380 0.90380 -0.61300
O 	O 	0.33010 0.77410 0.05410 -0.69200
O 	O 	0.36430 0.69190 0.11720 -0.68400
N 	N 	0.32980 0.61860 0.99740 -0.24300
C 	C 	0.31500 0.67720 0.98880 -0.15300
C 	C 	0.28080 0.69920 0.92120 0.03800
H 	H 	0.27060 0.74040 0.91590 -0.02100
C 	C 	0.26320 0.65640 0.86330 -0.12500
H 	H 	0.23940 0.66870 0.81870 0.04000
C 	C 	0.28030 0.59500 0.87020 0.02900
H 	H 	0.27000 0.56630 0.83000 -0.00100
C 	C 	0.31300 0.57920 0.93890 -0.12300
C 	C 	0.33380 0.51460 0.95450 0.40600
C 	C 	0.33770 0.71750 0.05770 0.44300
Y 	Y 	0.88241 0.08502 0.62377 2.34500
O 	O 	0.86060 0.00470 0.52450 -0.64600
O 	O 	0.82250 0.97380 0.40380 -0.61300
O 	O 	0.83010 0.27410 0.55410 -0.69100
O 	O 	0.86430 0.19190 0.61720 -0.68400
N 	N 	0.82980 0.11860 0.49740 -0.24300
C 	C 	0.81500 0.17720 0.48880 -0.15300
C 	C 	0.78080 0.19920 0.42120 0.03800
H 	H 	0.77060 0.24040 0.41590 -0.02100
C 	C 	0.76320 0.15640 0.36330 -0.12500
H 	H 	0.73940 0.16870 0.31870 0.04000
C 	C 	0.78030 0.09500 0.37020 0.02900
H 	H 	0.77000 0.06630 0.33000 -0.00100
C 	C 	0.81300 0.07920 0.43890 -0.12300
C 	C 	0.83380 0.01460 0.45450 0.40600
C 	C 	0.83770 0.21750 0.55770 0.44300
Y 	Y 	0.11759 0.41498 0.62377 2.34500
O 	O 	0.13940 0.49530 0.52450 -0.64600
O 	O 	0.17750 0.52620 0.40380 -0.61300
O 	O 	0.16990 0.22590 0.55410 -0.69100
O 	O 	0.13570 0.30810 0.61720 -0.68400
N 	N 	0.17020 0.38140 0.49740 -0.24300
C 	C 	0.18500 0.32280 0.48880 -0.15300
C 	C 	0.21920 0.30080 0.42120 0.03800
H 	H 	0.22940 0.25960 0.41590 -0.02100
C 	C 	0.23680 0.34360 0.36330 -0.12500
H 	H 	0.26060 0.33130 0.31870 0.04000
C 	C 	0.21970 0.40500 0.37020 0.02900
H 	H 	0.23000 0.43370 0.33000 -0.00100
C 	C 	0.18700 0.42080 0.43890 -0.12300
C 	C 	0.16620 0.48540 0.45450 0.40600
C 	C 	0.16230 0.28250 0.55770 0.44300
Y 	Y 	0.61759 0.91498 0.12377 2.34500
O 	O 	0.63940 0.99530 0.02450 -0.64700
O 	O 	0.67750 0.02620 0.90380 -0.61400
O 	O 	0.66990 0.72590 0.05410 -0.69100
O 	O 	0.63570 0.80810 0.11720 -0.68400
N 	N 	0.67020 0.88140 0.99740 -0.24300
C 	C 	0.68500 0.82280 0.98880 -0.15300
C 	C 	0.71920 0.80080 0.92120 0.03800
H 	H 	0.72940 0.75960 0.91590 -0.02100
C 	C 	0.73680 0.84360 0.86330 -0.12500
H 	H 	0.76060 0.83130 0.81870 0.04000
C 	C 	0.71970 0.90500 0.87020 0.02900
H 	H 	0.73000 0.93370 0.83000 -0.00100
C 	C 	0.68700 0.92080 0.93890 -0.12300
C 	C 	0.66620 0.98540 0.95450 0.40700
C 	C 	0.66230 0.78250 0.05770 0.44300
Y 	Y 	0.66498 0.63241 0.12623 2.34500
O 	O 	0.74530 0.61060 0.22550 -0.64600
O 	O 	0.77620 0.57250 0.34620 -0.61300
O 	O 	0.47590 0.58010 0.19590 -0.69100
O 	O 	0.55810 0.61430 0.13280 -0.68400
N 	N 	0.63140 0.57980 0.25260 -0.24300
C 	C 	0.57280 0.56500 0.26120 -0.15300
C 	C 	0.55080 0.53080 0.32880 0.03800
H 	H 	0.50960 0.52060 0.33410 -0.02100
C 	C 	0.59360 0.51320 0.38670 -0.12500
H 	H 	0.58130 0.48940 0.43130 0.04000
C 	C 	0.65500 0.53030 0.37980 0.02900
H 	H 	0.68370 0.52000 0.42000 -0.00100
C 	C 	0.67080 0.56300 0.31110 -0.12300
C 	C 	0.73540 0.58380 0.29550 0.40600
C 	C 	0.53250 0.58770 0.19230 0.44300
Y 	Y 	0.16498 0.13241 0.62623 2.34500
O 	O 	0.24530 0.11060 0.72550 -0.64600
O 	O 	0.27620 0.07250 0.84620 -0.61300
O 	O 	0.97590 0.08010 0.69590 -0.69200
O 	O 	0.05810 0.11430 0.63280 -0.68400
N 	N 	0.13140 0.07980 0.75260 -0.24300
C 	C 	0.07280 0.06500 0.76120 -0.15400
C 	C 	0.05080 0.03080 0.82880 0.03900
H 	H 	0.00960 0.02060 0.83410 -0.02100
C 	C 	0.09360 0.01320 0.88670 -0.12600
H 	H 	0.08130 0.98940 0.93130 0.04000
C 	C 	0.15500 0.03030 0.87980 0.03000
H 	H 	0.18370 0.02000 0.92000 -0.00200
C 	C 	0.17080 0.06300 0.81110 -0.12300
C 	C 	0.23540 0.08380 0.79550 0.40600
C 	C 	0.03250 0.08770 0.69230 0.44300
Y 	Y 	0.83502 0.36759 0.62623 2.34500
O 	O 	0.75470 0.38940 0.72550 -0.64600
O 	O 	0.72380 0.42750 0.84620 -0.61300
O 	O 	0.02410 0.41990 0.69590 -0.69100
O 	O 	0.94190 0.38570 0.63280 -0.68400
N 	N 	0.86860 0.42020 0.75260 -0.24300
C 	C 	0.92720 0.43500 0.76120 -0.15300
C 	C 	0.94920 0.46920 0.82880 0.03800
H 	H 	0.99040 0.47940 0.83410 -0.02100
C 	C 	0.90640 0.48680 0.88670 -0.12500
H 	H 	0.91870 0.51060 0.93130 0.03900
C 	C 	0.84500 0.46970 0.87980 0.02900
H 	H 	0.81630 0.48000 0.92000 -0.00100
C 	C 	0.82920 0.43700 0.81110 -0.12300
C 	C 	0.76460 0.41620 0.79550 0.40600
C 	C 	0.96750 0.41230 0.69230 0.44300
Y 	Y 	0.33502 0.86759 0.12623 2.34500
O 	O 	0.25470 0.88940 0.22550 -0.64600
O 	O 	0.22380 0.92750 0.34620 -0.61300
O 	O 	0.52410 0.91990 0.19590 -0.69200
O 	O 	0.44190 0.88570 0.13280 -0.68400
N 	N 	0.36860 0.92020 0.25260 -0.24300
C 	C 	0.42720 0.93500 0.26120 -0.15400
C 	C 	0.44920 0.96920 0.32880 0.03900
H 	H 	0.49040 0.97940 0.33410 -0.02100
C 	C 	0.40640 0.98680 0.38670 -0.12600
H 	H 	0.41870 0.01060 0.43130 0.04000
C 	C 	0.34500 0.96970 0.37980 0.03000
H 	H 	0.31630 0.98000 0.42000 -0.00100
C 	C 	0.32920 0.93700 0.31110 -0.12300
C 	C 	0.26460 0.91620 0.29550 0.40600
C 	C 	0.46750 0.91230 0.19230 0.44300
Y 	Y 	0.61759 0.41498 0.87623 2.34500
O 	O 	0.63940 0.49530 0.97550 -0.64600
O 	O 	0.67750 0.52620 0.09620 -0.61300
O 	O 	0.66990 0.22590 0.94590 -0.69200
O 	O 	0.63570 0.30810 0.88280 -0.68400
N 	N 	0.67020 0.38140 0.00260 -0.24300
C 	C 	0.68500 0.32280 0.01120 -0.15300
C 	C 	0.71920 0.30080 0.07880 0.03800
H 	H 	0.72940 0.25960 0.08410 -0.02100
C 	C 	0.73680 0.34360 0.13670 -0.12500
H 	H 	0.76060 0.33130 0.18130 0.04000
C 	C 	0.71970 0.40500 0.12980 0.02900
H 	H 	0.73000 0.43370 0.17000 -0.00100
C 	C 	0.68700 0.42080 0.06110 -0.12300
C 	C 	0.66620 0.48540 0.04550 0.40600
C 	C 	0.66230 0.28250 0.94230 0.44300
Y 	Y 	0.11759 0.91498 0.37623 2.34500
O 	O 	0.13940 0.99530 0.47550 -0.64600
O 	O 	0.17750 0.02620 0.59620 -0.61300
O 	O 	0.16990 0.72590 0.44590 -0.69100
O 	O 	0.13570 0.80810 0.38280 -0.68400
N 	N 	0.17020 0.88140 0.50260 -0.24300
C 	C 	0.18500 0.82280 0.51120 -0.15300
C 	C 	0.21920 0.80080 0.57880 0.03800
H 	H 	0.22940 0.75960 0.58410 -0.02100
C 	C 	0.23680 0.84360 0.63670 -0.12500
H 	H 	0.26060 0.83130 0.68130 0.04000
C 	C 	0.21970 0.90500 0.62980 0.02900
H 	H 	0.23000 0.93370 0.67000 -0.00100
C 	C 	0.18700 0.92080 0.56110 -0.12300
C 	C 	0.16620 0.98540 0.54550 0.40600
C 	C 	0.16230 0.78250 0.44230 0.44300
Y 	Y 	0.88241 0.58502 0.37623 2.34500
O 	O 	0.86060 0.50470 0.47550 -0.64600
O 	O 	0.82250 0.47380 0.59620 -0.61300
O 	O 	0.83010 0.77410 0.44590 -0.69100
O 	O 	0.86430 0.69190 0.38280 -0.68400
N 	N 	0.82980 0.61860 0.50260 -0.24300
C 	C 	0.81500 0.67720 0.51120 -0.15300
C 	C 	0.78080 0.69920 0.57880 0.03800
H 	H 	0.77060 0.74040 0.58410 -0.02100
C 	C 	0.76320 0.65640 0.63670 -0.12500
H 	H 	0.73940 0.66870 0.68130 0.04000
C 	C 	0.78030 0.59500 0.62980 0.02900
H 	H 	0.77000 0.56630 0.67000 -0.00100
C 	C 	0.81300 0.57920 0.56110 -0.12300
C 	C 	0.83380 0.51460 0.54550 0.40600
C 	C 	0.83770 0.71750 0.44230 0.44300
Y 	Y 	0.38241 0.08502 0.87623 2.34500
O 	O 	0.36060 0.00470 0.97550 -0.64700
O 	O 	0.32250 0.97380 0.09620 -0.61400
O 	O 	0.33010 0.27410 0.94590 -0.69100
O 	O 	0.36430 0.19190 0.88280 -0.68400
N 	N 	0.32980 0.11860 0.00260 -0.24300
C 	C 	0.31500 0.17720 0.01120 -0.15300
C 	C 	0.28080 0.19920 0.07880 0.03800
H 	H 	0.27060 0.24040 0.08410 -0.02100
C 	C 	0.26320 0.15640 0.13670 -0.12500
H 	H 	0.23940 0.16870 0.18130 0.04000
C 	C 	0.28030 0.09500 0.12980 0.02900
H 	H 	0.27000 0.06630 0.17000 -0.00100
C 	C 	0.31300 0.07920 0.06110 -0.12300
C 	C 	0.33380 0.01460 0.04550 0.40700
C 	C 	0.33770 0.21750 0.94230 0.44300
