data_crystal

_cell_length_a 21.75100
_cell_length_b 21.75100
_cell_length_c 16.14380
_cell_angle_alpha 90.00000
_cell_angle_beta  90.00000
_cell_angle_gamma 90.00000

_symmetry_space_group_name_	'P 1'
_symmetry_space_group_name_H-M	'P 1'

loop_
_symmetry_equiv_pos_as_xyz
  x,y,z

loop_
_atom_site_label
_atom_site_type_symbol
_atom_site_fract_x
_atom_site_fract_y
_atom_site_fract_z
_atom_site_charge
Tm	Tm	0.11795 0.08566 0.12396 1.44200
O 	O 	0.22380 0.07340 0.15360 -0.44000
O 	O 	0.25550 0.11120 0.27440 -0.45400
O 	O 	0.44030 0.11590 0.36770 -0.46600
O 	O 	0.52480 0.08220 0.30270 -0.48000
N 	N 	0.36880 0.07990 0.24770 -0.17900
C 	C 	0.26420 0.08460 0.20510 0.34600
C 	C 	0.32930 0.06340 0.18860 -0.05900
C 	C 	0.34700 0.03080 0.12120 -0.01300
H 	H 	0.31910 0.02010 0.08000 0.03000
C 	C 	0.40810 0.01400 0.11590 -0.07000
H 	H 	0.42140 0.99050 0.07110 0.03800
C 	C 	0.44860 0.03080 0.17390 -0.00600
H 	H 	0.48990 0.01970 0.16990 0.02000
C 	C 	0.42760 0.06460 0.23910 -0.06800
C 	C 	0.46870 0.08940 0.30740 0.34800
Tm	Tm	0.61795 0.58566 0.62396 1.44400
O 	O 	0.72380 0.57340 0.65360 -0.43900
O 	O 	0.75550 0.61120 0.77440 -0.45300
O 	O 	0.94030 0.61590 0.86770 -0.46500
O 	O 	0.02480 0.58220 0.80270 -0.47900
N 	N 	0.86880 0.57990 0.74770 -0.17800
C 	C 	0.76420 0.58460 0.70510 0.34700
C 	C 	0.82930 0.56340 0.68860 -0.05800
C 	C 	0.84700 0.53080 0.62120 -0.01200
H 	H 	0.81910 0.52010 0.58000 0.03100
C 	C 	0.90810 0.51400 0.61590 -0.07000
H 	H 	0.92140 0.49050 0.57110 0.04000
C 	C 	0.94860 0.53080 0.67390 -0.00500
H 	H 	0.98990 0.51970 0.66990 0.01900
C 	C 	0.92760 0.56460 0.73910 -0.06800
C 	C 	0.96870 0.58940 0.80740 0.34800
Tm	Tm	0.38205 0.91434 0.62396 1.44300
O 	O 	0.27620 0.92660 0.65360 -0.43900
O 	O 	0.24450 0.88880 0.77440 -0.45300
O 	O 	0.05970 0.88410 0.86770 -0.46500
O 	O 	0.97520 0.91780 0.80270 -0.47900
N 	N 	0.13120 0.92010 0.74770 -0.17800
C 	C 	0.23580 0.91540 0.70510 0.34700
C 	C 	0.17070 0.93660 0.68860 -0.05800
C 	C 	0.15300 0.96920 0.62120 -0.01200
H 	H 	0.18090 0.97990 0.58000 0.03100
C 	C 	0.09190 0.98600 0.61590 -0.06900
H 	H 	0.07860 0.00950 0.57110 0.03900
C 	C 	0.05140 0.96920 0.67390 -0.00600
H 	H 	0.01010 0.98030 0.66990 0.01900
C 	C 	0.07240 0.93540 0.73910 -0.06800
C 	C 	0.03130 0.91060 0.80740 0.34800
Tm	Tm	0.88205 0.41434 0.12396 1.44300
O 	O 	0.77620 0.42660 0.15360 -0.43900
O 	O 	0.74450 0.38880 0.27440 -0.45300
O 	O 	0.55970 0.38410 0.36770 -0.46500
O 	O 	0.47520 0.41780 0.30270 -0.47900
N 	N 	0.63120 0.42010 0.24770 -0.17800
C 	C 	0.73580 0.41540 0.20510 0.34700
C 	C 	0.67070 0.43660 0.18860 -0.05800
C 	C 	0.65300 0.46920 0.12120 -0.01200
H 	H 	0.68090 0.47990 0.08000 0.03100
C 	C 	0.59190 0.48600 0.11590 -0.07000
H 	H 	0.57860 0.50950 0.07110 0.04000
C 	C 	0.55140 0.46920 0.17390 -0.00500
H 	H 	0.51010 0.48030 0.16990 0.01900
C 	C 	0.57240 0.43540 0.23910 -0.06800
C 	C 	0.53130 0.41060 0.30740 0.34800
Tm	Tm	0.66434 0.36795 0.37396 1.44400
O 	O 	0.67660 0.47380 0.40360 -0.43900
O 	O 	0.63880 0.50550 0.52440 -0.45300
O 	O 	0.63410 0.69030 0.61770 -0.46500
O 	O 	0.66780 0.77480 0.55270 -0.47900
N 	N 	0.67010 0.61880 0.49770 -0.17800
C 	C 	0.66540 0.51420 0.45510 0.34700
C 	C 	0.68660 0.57930 0.43860 -0.05800
C 	C 	0.71920 0.59700 0.37120 -0.01200
H 	H 	0.72990 0.56910 0.33000 0.03100
C 	C 	0.73600 0.65810 0.36590 -0.07000
H 	H 	0.75950 0.67140 0.32110 0.04000
C 	C 	0.71920 0.69860 0.42390 -0.00500
H 	H 	0.73030 0.73990 0.41990 0.01900
C 	C 	0.68540 0.67760 0.48910 -0.06800
C 	C 	0.66060 0.71870 0.55740 0.34800
Tm	Tm	0.16434 0.86795 0.87396 1.44300
O 	O 	0.17660 0.97380 0.90360 -0.43900
O 	O 	0.13880 0.00550 0.02440 -0.45300
O 	O 	0.13410 0.19030 0.11770 -0.46500
O 	O 	0.16780 0.27480 0.05270 -0.47900
N 	N 	0.17010 0.11880 0.99770 -0.17800
C 	C 	0.16540 0.01420 0.95510 0.34600
C 	C 	0.18660 0.07930 0.93860 -0.05800
C 	C 	0.21920 0.09700 0.87120 -0.01200
H 	H 	0.22990 0.06910 0.83000 0.03100
C 	C 	0.23600 0.15810 0.86590 -0.07000
H 	H 	0.25950 0.17140 0.82110 0.04000
C 	C 	0.21920 0.19860 0.92390 -0.00500
H 	H 	0.23030 0.23990 0.91990 0.01900
C 	C 	0.18540 0.17760 0.98910 -0.06900
C 	C 	0.16060 0.21870 0.05740 0.34800
Tm	Tm	0.83566 0.63205 0.87396 1.44300
O 	O 	0.82340 0.52620 0.90360 -0.43900
O 	O 	0.86120 0.49450 0.02440 -0.45300
O 	O 	0.86590 0.30970 0.11770 -0.46500
O 	O 	0.83220 0.22520 0.05270 -0.47900
N 	N 	0.82990 0.38120 0.99770 -0.17800
C 	C 	0.83460 0.48580 0.95510 0.34700
C 	C 	0.81340 0.42070 0.93860 -0.05800
C 	C 	0.78080 0.40300 0.87120 -0.01100
H 	H 	0.77010 0.43090 0.83000 0.03100
C 	C 	0.76400 0.34190 0.86590 -0.07000
H 	H 	0.74050 0.32860 0.82110 0.04000
C 	C 	0.78080 0.30140 0.92390 -0.00500
H 	H 	0.76970 0.26010 0.91990 0.01900
C 	C 	0.81460 0.32240 0.98910 -0.06900
C 	C 	0.83940 0.28130 0.05740 0.34800
Tm	Tm	0.33566 0.13205 0.37396 1.44300
O 	O 	0.32340 0.02620 0.40360 -0.43900
O 	O 	0.36120 0.99450 0.52440 -0.45400
O 	O 	0.36590 0.80970 0.61770 -0.46500
O 	O 	0.33220 0.72520 0.55270 -0.47900
N 	N 	0.32990 0.88120 0.49770 -0.17800
C 	C 	0.33460 0.98580 0.45510 0.34700
C 	C 	0.31340 0.92070 0.43860 -0.05800
C 	C 	0.28080 0.90300 0.37120 -0.01200
H 	H 	0.27010 0.93090 0.33000 0.03100
C 	C 	0.26400 0.84190 0.36590 -0.07000
H 	H 	0.24050 0.82860 0.32110 0.04000
C 	C 	0.28080 0.80140 0.42390 -0.00500
H 	H 	0.26970 0.76010 0.41990 0.01900
C 	C 	0.31460 0.82240 0.48910 -0.06800
C 	C 	0.33940 0.78130 0.55740 0.34800
Tm	Tm	0.88205 0.91434 0.87604 1.44300
O 	O 	0.77620 0.92660 0.84640 -0.43900
O 	O 	0.74450 0.88880 0.72560 -0.45300
O 	O 	0.55970 0.88410 0.63230 -0.46500
O 	O 	0.47520 0.91780 0.69730 -0.47900
N 	N 	0.63120 0.92010 0.75230 -0.17800
C 	C 	0.73580 0.91540 0.79490 0.34700
C 	C 	0.67070 0.93660 0.81140 -0.05800
C 	C 	0.65300 0.96920 0.87880 -0.01200
H 	H 	0.68090 0.97990 0.92000 0.03100
C 	C 	0.59190 0.98600 0.88410 -0.06900
H 	H 	0.57860 0.00950 0.92890 0.03900
C 	C 	0.55140 0.96920 0.82610 -0.00600
H 	H 	0.51010 0.98030 0.83010 0.02000
C 	C 	0.57240 0.93540 0.76090 -0.06800
C 	C 	0.53130 0.91060 0.69260 0.34800
Tm	Tm	0.38205 0.41434 0.37604 1.44400
O 	O 	0.27620 0.42660 0.34640 -0.43900
O 	O 	0.24450 0.38880 0.22560 -0.45300
O 	O 	0.05970 0.38410 0.13230 -0.46500
O 	O 	0.97520 0.41780 0.19730 -0.47900
N 	N 	0.13120 0.42010 0.25230 -0.17800
C 	C 	0.23580 0.41540 0.29490 0.34700
C 	C 	0.17070 0.43660 0.31140 -0.05800
C 	C 	0.15300 0.46920 0.37880 -0.01200
H 	H 	0.18090 0.47990 0.42000 0.03100
C 	C 	0.09190 0.48600 0.38410 -0.07000
H 	H 	0.07860 0.50950 0.42890 0.04000
C 	C 	0.05140 0.46920 0.32610 -0.00500
H 	H 	0.01010 0.48030 0.33010 0.01900
C 	C 	0.07240 0.43540 0.26090 -0.06800
C 	C 	0.03130 0.41060 0.19260 0.34800
Tm	Tm	0.61795 0.08566 0.37604 1.44300
O 	O 	0.72380 0.07340 0.34640 -0.43900
O 	O 	0.75550 0.11120 0.22560 -0.45300
O 	O 	0.94030 0.11590 0.13230 -0.46500
O 	O 	0.02480 0.08220 0.19730 -0.47900
N 	N 	0.86880 0.07990 0.25230 -0.17800
C 	C 	0.76420 0.08460 0.29490 0.34700
C 	C 	0.82930 0.06340 0.31140 -0.05800
C 	C 	0.84700 0.03080 0.37880 -0.01200
H 	H 	0.81910 0.02010 0.42000 0.03100
C 	C 	0.90810 0.01400 0.38410 -0.06900
H 	H 	0.92140 0.99050 0.42890 0.03900
C 	C 	0.94860 0.03080 0.32610 -0.00600
H 	H 	0.98990 0.01970 0.33010 0.01900
C 	C 	0.92760 0.06460 0.26090 -0.06800
C 	C 	0.96870 0.08940 0.19260 0.34800
Tm	Tm	0.11795 0.58566 0.87604 1.44300
O 	O 	0.22380 0.57340 0.84640 -0.43900
O 	O 	0.25550 0.61120 0.72560 -0.45300
O 	O 	0.44030 0.61590 0.63230 -0.46500
O 	O 	0.52480 0.58220 0.69730 -0.47900
N 	N 	0.36880 0.57990 0.75230 -0.17800
C 	C 	0.26420 0.58460 0.79490 0.34700
C 	C 	0.32930 0.56340 0.81140 -0.05800
C 	C 	0.34700 0.53080 0.87880 -0.01200
H 	H 	0.31910 0.52010 0.92000 0.03100
C 	C 	0.40810 0.51400 0.88410 -0.07000
H 	H 	0.42140 0.49050 0.92890 0.04000
C 	C 	0.44860 0.53080 0.82610 -0.00500
H 	H 	0.48990 0.51970 0.83010 0.01900
C 	C 	0.42760 0.56460 0.76090 -0.06800
C 	C 	0.46870 0.58940 0.69260 0.34800
Tm	Tm	0.33566 0.63205 0.62604 1.44400
O 	O 	0.32340 0.52620 0.59640 -0.43900
O 	O 	0.36120 0.49450 0.47560 -0.45300
O 	O 	0.36590 0.30970 0.38230 -0.46500
O 	O 	0.33220 0.22520 0.44730 -0.47900
N 	N 	0.32990 0.38120 0.50230 -0.17800
C 	C 	0.33460 0.48580 0.54490 0.34700
C 	C 	0.31340 0.42070 0.56140 -0.05800
C 	C 	0.28080 0.40300 0.62880 -0.01200
H 	H 	0.27010 0.43090 0.67000 0.03100
C 	C 	0.26400 0.34190 0.63410 -0.07000
H 	H 	0.24050 0.32860 0.67890 0.04000
C 	C 	0.28080 0.30140 0.57610 -0.00500
H 	H 	0.26970 0.26010 0.58010 0.01900
C 	C 	0.31460 0.32240 0.51090 -0.06800
C 	C 	0.33940 0.28130 0.44260 0.34800
Tm	Tm	0.83566 0.13205 0.12604 1.44300
O 	O 	0.82340 0.02620 0.09640 -0.43900
O 	O 	0.86120 0.99450 0.97560 -0.45300
O 	O 	0.86590 0.80970 0.88230 -0.46500
O 	O 	0.83220 0.72520 0.94730 -0.47900
N 	N 	0.82990 0.88120 0.00230 -0.17800
C 	C 	0.83460 0.98580 0.04490 0.34600
C 	C 	0.81340 0.92070 0.06140 -0.05800
C 	C 	0.78080 0.90300 0.12880 -0.01200
H 	H 	0.77010 0.93090 0.17000 0.03100
C 	C 	0.76400 0.84190 0.13410 -0.07000
H 	H 	0.74050 0.82860 0.17890 0.04000
C 	C 	0.78080 0.80140 0.07610 -0.00500
H 	H 	0.76970 0.76010 0.08010 0.01900
C 	C 	0.81460 0.82240 0.01090 -0.06900
C 	C 	0.83940 0.78130 0.94260 0.34800
Tm	Tm	0.16434 0.36795 0.12604 1.44300
O 	O 	0.17660 0.47380 0.09640 -0.43900
O 	O 	0.13880 0.50550 0.97560 -0.45300
O 	O 	0.13410 0.69030 0.88230 -0.46500
O 	O 	0.16780 0.77480 0.94730 -0.47900
N 	N 	0.17010 0.61880 0.00230 -0.17800
C 	C 	0.16540 0.51420 0.04490 0.34700
C 	C 	0.18660 0.57930 0.06140 -0.05800
C 	C 	0.21920 0.59700 0.12880 -0.01100
H 	H 	0.22990 0.56910 0.17000 0.03100
C 	C 	0.23600 0.65810 0.13410 -0.07000
H 	H 	0.25950 0.67140 0.17890 0.04000
C 	C 	0.21920 0.69860 0.07610 -0.00500
H 	H 	0.23030 0.73990 0.08010 0.01900
C 	C 	0.18540 0.67760 0.01090 -0.06900
C 	C 	0.16060 0.71870 0.94260 0.34800
Tm	Tm	0.66434 0.86795 0.62604 1.44300
O 	O 	0.67660 0.97380 0.59640 -0.43900
O 	O 	0.63880 0.00550 0.47560 -0.45400
O 	O 	0.63410 0.19030 0.38230 -0.46500
O 	O 	0.66780 0.27480 0.44730 -0.47900
N 	N 	0.67010 0.11880 0.50230 -0.17800
C 	C 	0.66540 0.01420 0.54490 0.34700
C 	C 	0.68660 0.07930 0.56140 -0.05800
C 	C 	0.71920 0.09700 0.62880 -0.01200
H 	H 	0.72990 0.06910 0.67000 0.03100
C 	C 	0.73600 0.15810 0.63410 -0.07000
H 	H 	0.75950 0.17140 0.67890 0.04000
C 	C 	0.71920 0.19860 0.57610 -0.00500
H 	H 	0.73030 0.23990 0.58010 0.01900
C 	C 	0.68540 0.17760 0.51090 -0.06800
C 	C 	0.66060 0.21870 0.44260 0.34800
