data_crystal

_cell_length_a 21.77770
_cell_length_b 21.77770
_cell_length_c 16.41670
_cell_angle_alpha 90.00000
_cell_angle_beta  90.00000
_cell_angle_gamma 90.00000

_symmetry_space_group_name_	'P 1'
_symmetry_space_group_name_H-M	'P 1'

loop_
_symmetry_equiv_pos_as_xyz
  x,y,z

loop_
_atom_site_label
_atom_site_type_symbol
_atom_site_fract_x
_atom_site_fract_y
_atom_site_fract_z
_atom_site_charge
Eu	Eu	0.82908 0.63587 0.36874 1.53600
O 	O 	0.75170 0.61010 0.26660 -0.48700
O 	O 	0.72240 0.56940 0.14800 -0.47300
O 	O 	0.93610 0.61010 0.36620 -0.49100
O 	O 	0.01970 0.57180 0.30540 -0.51500
N 	N 	0.86590 0.57960 0.24320 -0.17100
C 	C 	0.76130 0.58190 0.19900 0.39200
C 	C 	0.82720 0.56360 0.18460 -0.07700
C 	C 	0.84640 0.53120 0.11710 0.00500
H 	H 	0.81880 0.52160 0.07580 0.01900
C 	C 	0.90670 0.51310 0.11140 -0.09700
H 	H 	0.92020 0.49000 0.06720 0.04300
C 	C 	0.94650 0.52970 0.17190 0.01600
H 	H 	0.98770 0.51850 0.16890 0.00600
C 	C 	0.92560 0.56280 0.23680 -0.09700
C 	C 	0.96400 0.58200 0.30640 0.38600
Eu	Eu	0.32908 0.13587 0.86874 1.53700
O 	O 	0.25170 0.11010 0.76660 -0.48600
O 	O 	0.22240 0.06940 0.64800 -0.47200
O 	O 	0.43610 0.11010 0.86620 -0.49000
O 	O 	0.51970 0.07180 0.80540 -0.51400
N 	N 	0.36590 0.07960 0.74320 -0.17000
C 	C 	0.26130 0.08190 0.69900 0.39200
C 	C 	0.32720 0.06360 0.68460 -0.07700
C 	C 	0.34640 0.03120 0.61710 0.00500
H 	H 	0.31880 0.02160 0.57580 0.01900
C 	C 	0.40670 0.01310 0.61140 -0.09700
H 	H 	0.42020 0.99000 0.56720 0.04300
C 	C 	0.44650 0.02970 0.67190 0.01600
H 	H 	0.48770 0.01850 0.66890 0.00600
C 	C 	0.42560 0.06280 0.73680 -0.09700
C 	C 	0.46400 0.08200 0.80640 0.38600
Eu	Eu	0.67092 0.36413 0.86874 1.53700
O 	O 	0.74830 0.38990 0.76660 -0.48600
O 	O 	0.77760 0.43060 0.64800 -0.47200
O 	O 	0.56390 0.38990 0.86620 -0.49000
O 	O 	0.48030 0.42820 0.80540 -0.51400
N 	N 	0.63410 0.42040 0.74320 -0.17000
C 	C 	0.73870 0.41810 0.69900 0.39200
C 	C 	0.67280 0.43640 0.68460 -0.07700
C 	C 	0.65360 0.46880 0.61710 0.00500
H 	H 	0.68120 0.47840 0.57580 0.01900
C 	C 	0.59330 0.48690 0.61140 -0.09700
H 	H 	0.57980 0.51000 0.56720 0.04300
C 	C 	0.55350 0.47030 0.67190 0.01600
H 	H 	0.51230 0.48150 0.66890 0.00600
C 	C 	0.57440 0.43720 0.73680 -0.09700
C 	C 	0.53600 0.41800 0.80640 0.38600
Eu	Eu	0.17092 0.86413 0.36874 1.53700
O 	O 	0.24830 0.88990 0.26660 -0.48600
O 	O 	0.27760 0.93060 0.14800 -0.47200
O 	O 	0.06390 0.88990 0.36620 -0.49000
O 	O 	0.98030 0.92820 0.30540 -0.51400
N 	N 	0.13410 0.92040 0.24320 -0.17100
C 	C 	0.23870 0.91810 0.19900 0.39200
C 	C 	0.17280 0.93640 0.18460 -0.07700
C 	C 	0.15360 0.96880 0.11710 0.00400
H 	H 	0.18120 0.97840 0.07580 0.02000
C 	C 	0.09330 0.98690 0.11140 -0.09500
H 	H 	0.07980 0.01000 0.06720 0.04200
C 	C 	0.05350 0.97030 0.17190 0.01500
H 	H 	0.01230 0.98150 0.16890 0.00600
C 	C 	0.07440 0.93720 0.23680 -0.09700
C 	C 	0.03600 0.91800 0.30640 0.38600
Eu	Eu	0.11413 0.07908 0.61874 1.53600
O 	O 	0.13990 0.00170 0.51660 -0.48600
O 	O 	0.18060 0.97240 0.39800 -0.47200
O 	O 	0.13990 0.18610 0.61620 -0.49000
O 	O 	0.17820 0.26970 0.55540 -0.51400
N 	N 	0.17040 0.11590 0.49320 -0.17000
C 	C 	0.16810 0.01130 0.44900 0.39200
C 	C 	0.18640 0.07720 0.43460 -0.07700
C 	C 	0.21880 0.09640 0.36710 0.00500
H 	H 	0.22840 0.06880 0.32580 0.01900
C 	C 	0.23690 0.15670 0.36140 -0.09700
H 	H 	0.26000 0.17020 0.31720 0.04300
C 	C 	0.22030 0.19650 0.42190 0.01600
H 	H 	0.23150 0.23770 0.41890 0.00600
C 	C 	0.18720 0.17560 0.48680 -0.09700
C 	C 	0.16800 0.21400 0.55640 0.38600
Eu	Eu	0.61413 0.57908 0.11874 1.53700
O 	O 	0.63990 0.50170 0.01660 -0.48600
O 	O 	0.68060 0.47240 0.89800 -0.47200
O 	O 	0.63990 0.68610 0.11620 -0.49000
O 	O 	0.67820 0.76970 0.05540 -0.51400
N 	N 	0.67040 0.61590 0.99320 -0.17000
C 	C 	0.66810 0.51130 0.94900 0.39200
C 	C 	0.68640 0.57720 0.93460 -0.07700
C 	C 	0.71880 0.59640 0.86710 0.00500
H 	H 	0.72840 0.56880 0.82580 0.01900
C 	C 	0.73690 0.65670 0.86140 -0.09700
H 	H 	0.76000 0.67020 0.81720 0.04300
C 	C 	0.72030 0.69650 0.92190 0.01600
H 	H 	0.73150 0.73770 0.91890 0.00600
C 	C 	0.68720 0.67560 0.98680 -0.09700
C 	C 	0.66800 0.71400 0.05640 0.38600
Eu	Eu	0.38587 0.92092 0.11874 1.53700
O 	O 	0.36010 0.99830 0.01660 -0.48600
O 	O 	0.31940 0.02760 0.89800 -0.47200
O 	O 	0.36010 0.81390 0.11620 -0.49000
O 	O 	0.32180 0.73030 0.05540 -0.51400
N 	N 	0.32960 0.88410 0.99320 -0.17100
C 	C 	0.33190 0.98870 0.94900 0.39100
C 	C 	0.31360 0.92280 0.93460 -0.07700
C 	C 	0.28120 0.90360 0.86710 0.00400
H 	H 	0.27160 0.93120 0.82580 0.01900
C 	C 	0.26310 0.84330 0.86140 -0.09700
H 	H 	0.24000 0.82980 0.81720 0.04300
C 	C 	0.27970 0.80350 0.92190 0.01600
H 	H 	0.26850 0.76230 0.91890 0.00600
C 	C 	0.31280 0.82440 0.98680 -0.09700
C 	C 	0.33200 0.78600 0.05640 0.38600
Eu	Eu	0.88587 0.42092 0.61874 1.53700
O 	O 	0.86010 0.49830 0.51660 -0.48600
O 	O 	0.81940 0.52760 0.39800 -0.47200
O 	O 	0.86010 0.31390 0.61620 -0.49000
O 	O 	0.82180 0.23030 0.55540 -0.51400
N 	N 	0.82960 0.38410 0.49320 -0.17000
C 	C 	0.83190 0.48870 0.44900 0.39200
C 	C 	0.81360 0.42280 0.43460 -0.07700
C 	C 	0.78120 0.40360 0.36710 0.00500
H 	H 	0.77160 0.43120 0.32580 0.01900
C 	C 	0.76310 0.34330 0.36140 -0.09700
H 	H 	0.74000 0.32980 0.31720 0.04300
C 	C 	0.77970 0.30350 0.42190 0.01600
H 	H 	0.76850 0.26230 0.41890 0.00600
C 	C 	0.81280 0.32440 0.48680 -0.09700
C 	C 	0.83200 0.28600 0.55640 0.38600
Eu	Eu	0.17092 0.36413 0.63126 1.53700
O 	O 	0.24830 0.38990 0.73340 -0.48600
O 	O 	0.27760 0.43060 0.85200 -0.47200
O 	O 	0.06390 0.38990 0.63380 -0.49000
O 	O 	0.98030 0.42820 0.69460 -0.51400
N 	N 	0.13410 0.42040 0.75680 -0.17000
C 	C 	0.23870 0.41810 0.80100 0.39200
C 	C 	0.17280 0.43640 0.81540 -0.07700
C 	C 	0.15360 0.46880 0.88290 0.00500
H 	H 	0.18120 0.47840 0.92420 0.01900
C 	C 	0.09330 0.48690 0.88860 -0.09700
H 	H 	0.07980 0.51000 0.93280 0.04300
C 	C 	0.05350 0.47030 0.82810 0.01600
H 	H 	0.01230 0.48150 0.83110 0.00600
C 	C 	0.07440 0.43720 0.76320 -0.09700
C 	C 	0.03600 0.41800 0.69360 0.38600
Eu	Eu	0.67092 0.86413 0.13126 1.53700
O 	O 	0.74830 0.88990 0.23340 -0.48600
O 	O 	0.77760 0.93060 0.35200 -0.47200
O 	O 	0.56390 0.88990 0.13380 -0.49000
O 	O 	0.48030 0.92820 0.19460 -0.51400
N 	N 	0.63410 0.92040 0.25680 -0.17000
C 	C 	0.73870 0.91810 0.30100 0.39200
C 	C 	0.67280 0.93640 0.31540 -0.07700
C 	C 	0.65360 0.96880 0.38290 0.00500
H 	H 	0.68120 0.97840 0.42420 0.01900
C 	C 	0.59330 0.98690 0.38860 -0.09700
H 	H 	0.57980 0.01000 0.43280 0.04300
C 	C 	0.55350 0.97030 0.32810 0.01600
H 	H 	0.51230 0.98150 0.33110 0.00600
C 	C 	0.57440 0.93720 0.26320 -0.09700
C 	C 	0.53600 0.91800 0.19360 0.38600
Eu	Eu	0.32908 0.63587 0.13126 1.53700
O 	O 	0.25170 0.61010 0.23340 -0.48600
O 	O 	0.22240 0.56940 0.35200 -0.47200
O 	O 	0.43610 0.61010 0.13380 -0.49000
O 	O 	0.51970 0.57180 0.19460 -0.51400
N 	N 	0.36590 0.57960 0.25680 -0.17000
C 	C 	0.26130 0.58190 0.30100 0.39200
C 	C 	0.32720 0.56360 0.31540 -0.07700
C 	C 	0.34640 0.53120 0.38290 0.00500
H 	H 	0.31880 0.52160 0.42420 0.01900
C 	C 	0.40670 0.51310 0.38860 -0.09700
H 	H 	0.42020 0.49000 0.43280 0.04300
C 	C 	0.44650 0.52970 0.32810 0.01600
H 	H 	0.48770 0.51850 0.33110 0.00600
C 	C 	0.42560 0.56280 0.26320 -0.09700
C 	C 	0.46400 0.58200 0.19360 0.38600
Eu	Eu	0.82908 0.13587 0.63126 1.53700
O 	O 	0.75170 0.11010 0.73340 -0.48600
O 	O 	0.72240 0.06940 0.85200 -0.47200
O 	O 	0.93610 0.11010 0.63380 -0.49000
O 	O 	0.01970 0.07180 0.69460 -0.51400
N 	N 	0.86590 0.07960 0.75680 -0.17100
C 	C 	0.76130 0.08190 0.80100 0.39200
C 	C 	0.82720 0.06360 0.81540 -0.07700
C 	C 	0.84640 0.03120 0.88290 0.00400
H 	H 	0.81880 0.02160 0.92420 0.02000
C 	C 	0.90670 0.01310 0.88860 -0.09500
H 	H 	0.92020 0.99000 0.93280 0.04200
C 	C 	0.94650 0.02970 0.82810 0.01500
H 	H 	0.98770 0.01850 0.83110 0.00600
C 	C 	0.92560 0.06280 0.76320 -0.09700
C 	C 	0.96400 0.08200 0.69360 0.38600
Eu	Eu	0.88587 0.92092 0.38126 1.53600
O 	O 	0.86010 0.99830 0.48340 -0.48600
O 	O 	0.81940 0.02760 0.60200 -0.47200
O 	O 	0.86010 0.81390 0.38380 -0.49000
O 	O 	0.82180 0.73030 0.44460 -0.51400
N 	N 	0.82960 0.88410 0.50680 -0.17000
C 	C 	0.83190 0.98870 0.55100 0.39200
C 	C 	0.81360 0.92280 0.56540 -0.07700
C 	C 	0.78120 0.90360 0.63290 0.00500
H 	H 	0.77160 0.93120 0.67420 0.01900
C 	C 	0.76310 0.84330 0.63860 -0.09700
H 	H 	0.74000 0.82980 0.68280 0.04300
C 	C 	0.77970 0.80350 0.57810 0.01600
H 	H 	0.76850 0.76230 0.58110 0.00600
C 	C 	0.81280 0.82440 0.51320 -0.09700
C 	C 	0.83200 0.78600 0.44360 0.38600
Eu	Eu	0.38587 0.42092 0.88126 1.53700
O 	O 	0.36010 0.49830 0.98340 -0.48600
O 	O 	0.31940 0.52760 0.10200 -0.47200
O 	O 	0.36010 0.31390 0.88380 -0.49000
O 	O 	0.32180 0.23030 0.94460 -0.51400
N 	N 	0.32960 0.38410 0.00680 -0.17000
C 	C 	0.33190 0.48870 0.05100 0.39200
C 	C 	0.31360 0.42280 0.06540 -0.07700
C 	C 	0.28120 0.40360 0.13290 0.00500
H 	H 	0.27160 0.43120 0.17420 0.01900
C 	C 	0.26310 0.34330 0.13860 -0.09700
H 	H 	0.24000 0.32980 0.18280 0.04300
C 	C 	0.27970 0.30350 0.07810 0.01600
H 	H 	0.26850 0.26230 0.08110 0.00600
C 	C 	0.31280 0.32440 0.01320 -0.09700
C 	C 	0.33200 0.28600 0.94360 0.38600
Eu	Eu	0.61413 0.07908 0.88126 1.53700
O 	O 	0.63990 0.00170 0.98340 -0.48600
O 	O 	0.68060 0.97240 0.10200 -0.47200
O 	O 	0.63990 0.18610 0.88380 -0.49000
O 	O 	0.67820 0.26970 0.94460 -0.51400
N 	N 	0.67040 0.11590 0.00680 -0.17100
C 	C 	0.66810 0.01130 0.05100 0.39100
C 	C 	0.68640 0.07720 0.06540 -0.07700
C 	C 	0.71880 0.09640 0.13290 0.00400
H 	H 	0.72840 0.06880 0.17420 0.01900
C 	C 	0.73690 0.15670 0.13860 -0.09700
H 	H 	0.76000 0.17020 0.18280 0.04300
C 	C 	0.72030 0.19650 0.07810 0.01600
H 	H 	0.73150 0.23770 0.08110 0.00600
C 	C 	0.68720 0.17560 0.01320 -0.09700
C 	C 	0.66800 0.21400 0.94360 0.38600
Eu	Eu	0.11413 0.57908 0.38126 1.53700
O 	O 	0.13990 0.50170 0.48340 -0.48600
O 	O 	0.18060 0.47240 0.60200 -0.47200
O 	O 	0.13990 0.68610 0.38380 -0.49000
O 	O 	0.17820 0.76970 0.44460 -0.51400
N 	N 	0.17040 0.61590 0.50680 -0.17000
C 	C 	0.16810 0.51130 0.55100 0.39200
C 	C 	0.18640 0.57720 0.56540 -0.07700
C 	C 	0.21880 0.59640 0.63290 0.00500
H 	H 	0.22840 0.56880 0.67420 0.01900
C 	C 	0.23690 0.65670 0.63860 -0.09700
H 	H 	0.26000 0.67020 0.68280 0.04300
C 	C 	0.22030 0.69650 0.57810 0.01600
H 	H 	0.23150 0.73770 0.58110 0.00600
C 	C 	0.18720 0.67560 0.51320 -0.09700
C 	C 	0.16800 0.71400 0.44360 0.38600
