data_crystal

_cell_length_a 21.68500
_cell_length_b 21.68500
_cell_length_c 16.47000
_cell_angle_alpha 90.00000
_cell_angle_beta  90.00000
_cell_angle_gamma 90.00000

_symmetry_space_group_name_	'P 1'
_symmetry_space_group_name_H-M	'P 1'

loop_
_symmetry_equiv_pos_as_xyz
  x,y,z

loop_
_atom_site_label
_atom_site_type_symbol
_atom_site_fract_x
_atom_site_fract_y
_atom_site_fract_z
_atom_site_charge
Sm	Sm	0.82726 0.63680 0.36747 1.60200
O 	O 	0.75020 0.61090 0.26460 -0.50200
O 	O 	0.72160 0.56860 0.14560 -0.47400
O 	O 	0.93480 0.61100 0.36550 -0.50800
O 	O 	0.01860 0.57080 0.30510 -0.52900
N 	N 	0.86460 0.57980 0.24210 -0.17700
C 	C 	0.76130 0.58290 0.19820 0.38100
C 	C 	0.82580 0.56280 0.18250 -0.08200
C 	C 	0.84620 0.53110 0.11620 0.00700
H 	H 	0.81930 0.52150 0.07420 0.01600
C 	C 	0.90700 0.51340 0.11210 -0.09800
H 	H 	0.92080 0.49040 0.06800 0.04000
C 	C 	0.94720 0.52950 0.17210 0.01000
H 	H 	0.98840 0.51770 0.17010 0.00400
C 	C 	0.92450 0.56370 0.23540 -0.09400
C 	C 	0.96300 0.58260 0.30670 0.38900
Sm	Sm	0.32726 0.13680 0.86747 1.60200
O 	O 	0.25020 0.11090 0.76460 -0.50200
O 	O 	0.22160 0.06860 0.64560 -0.47300
O 	O 	0.43480 0.11100 0.86550 -0.50700
O 	O 	0.51860 0.07080 0.80510 -0.52800
N 	N 	0.36460 0.07980 0.74210 -0.17600
C 	C 	0.26130 0.08290 0.69820 0.38200
C 	C 	0.32580 0.06280 0.68250 -0.08100
C 	C 	0.34620 0.03110 0.61620 0.00800
H 	H 	0.31930 0.02150 0.57420 0.01600
C 	C 	0.40700 0.01340 0.61210 -0.09700
H 	H 	0.42080 0.99040 0.56800 0.04100
C 	C 	0.44720 0.02950 0.67210 0.01100
H 	H 	0.48840 0.01770 0.67010 0.00500
C 	C 	0.42450 0.06370 0.73540 -0.09300
C 	C 	0.46300 0.08260 0.80670 0.39000
Sm	Sm	0.67274 0.36320 0.86747 1.60300
O 	O 	0.74980 0.38910 0.76460 -0.50100
O 	O 	0.77840 0.43140 0.64560 -0.47300
O 	O 	0.56520 0.38900 0.86550 -0.50700
O 	O 	0.48140 0.42920 0.80510 -0.52700
N 	N 	0.63540 0.42020 0.74210 -0.17600
C 	C 	0.73870 0.41710 0.69820 0.38200
C 	C 	0.67420 0.43720 0.68250 -0.08100
C 	C 	0.65380 0.46890 0.61620 0.00800
H 	H 	0.68070 0.47850 0.57420 0.01700
C 	C 	0.59300 0.48660 0.61210 -0.09700
H 	H 	0.57920 0.50960 0.56800 0.04200
C 	C 	0.55280 0.47050 0.67210 0.01100
H 	H 	0.51160 0.48230 0.67010 0.00500
C 	C 	0.57550 0.43630 0.73540 -0.09300
C 	C 	0.53700 0.41740 0.80670 0.39000
Sm	Sm	0.17274 0.86320 0.36747 1.60300
O 	O 	0.24980 0.88910 0.26460 -0.50100
O 	O 	0.27840 0.93140 0.14560 -0.47300
O 	O 	0.06520 0.88900 0.36550 -0.50700
O 	O 	0.98140 0.92920 0.30510 -0.52800
N 	N 	0.13540 0.92020 0.24210 -0.17600
C 	C 	0.23870 0.91710 0.19820 0.38200
C 	C 	0.17420 0.93720 0.18250 -0.08100
C 	C 	0.15380 0.96890 0.11620 0.00700
H 	H 	0.18070 0.97850 0.07420 0.01700
C 	C 	0.09300 0.98660 0.11210 -0.09600
H 	H 	0.07920 0.00960 0.06800 0.04000
C 	C 	0.05280 0.97050 0.17210 0.01000
H 	H 	0.01160 0.98230 0.17010 0.00500
C 	C 	0.07550 0.93630 0.23540 -0.09300
C 	C 	0.03700 0.91740 0.30670 0.39000
Sm	Sm	0.11320 0.07726 0.61747 1.60300
O 	O 	0.13910 0.00020 0.51460 -0.50100
O 	O 	0.18140 0.97160 0.39560 -0.47300
O 	O 	0.13900 0.18480 0.61550 -0.50700
O 	O 	0.17920 0.26860 0.55510 -0.52700
N 	N 	0.17020 0.11460 0.49210 -0.17600
C 	C 	0.16710 0.01130 0.44820 0.38200
C 	C 	0.18720 0.07580 0.43250 -0.08100
C 	C 	0.21890 0.09620 0.36620 0.00800
H 	H 	0.22850 0.06930 0.32420 0.01600
C 	C 	0.23660 0.15700 0.36210 -0.09700
H 	H 	0.25960 0.17080 0.31800 0.04100
C 	C 	0.22050 0.19720 0.42210 0.01100
H 	H 	0.23230 0.23840 0.42010 0.00500
C 	C 	0.18630 0.17450 0.48540 -0.09300
C 	C 	0.16740 0.21300 0.55670 0.39000
Sm	Sm	0.61320 0.57726 0.11747 1.60300
O 	O 	0.63910 0.50020 0.01460 -0.50100
O 	O 	0.68140 0.47160 0.89560 -0.47300
O 	O 	0.63900 0.68480 0.11550 -0.50700
O 	O 	0.67920 0.76860 0.05510 -0.52800
N 	N 	0.67020 0.61460 0.99210 -0.17600
C 	C 	0.66710 0.51130 0.94820 0.38200
C 	C 	0.68720 0.57580 0.93250 -0.08100
C 	C 	0.71890 0.59620 0.86620 0.00800
H 	H 	0.72850 0.56930 0.82420 0.01700
C 	C 	0.73660 0.65700 0.86210 -0.09700
H 	H 	0.75960 0.67080 0.81800 0.04200
C 	C 	0.72050 0.69720 0.92210 0.01100
H 	H 	0.73230 0.73840 0.92010 0.00500
C 	C 	0.68630 0.67450 0.98540 -0.09300
C 	C 	0.66740 0.71300 0.05670 0.39000
Sm	Sm	0.38680 0.92274 0.11747 1.60300
O 	O 	0.36090 0.99980 0.01460 -0.50000
O 	O 	0.31860 0.02840 0.89560 -0.47300
O 	O 	0.36100 0.81520 0.11550 -0.50700
O 	O 	0.32080 0.73140 0.05510 -0.52800
N 	N 	0.32980 0.88540 0.99210 -0.17600
C 	C 	0.33290 0.98870 0.94820 0.38100
C 	C 	0.31280 0.92420 0.93250 -0.08100
C 	C 	0.28110 0.90380 0.86620 0.00700
H 	H 	0.27150 0.93070 0.82420 0.01600
C 	C 	0.26340 0.84300 0.86210 -0.09700
H 	H 	0.24040 0.82920 0.81800 0.04200
C 	C 	0.27950 0.80280 0.92210 0.01100
H 	H 	0.26770 0.76160 0.92010 0.00500
C 	C 	0.31370 0.82550 0.98540 -0.09300
C 	C 	0.33260 0.78700 0.05670 0.39000
Sm	Sm	0.88680 0.42274 0.61747 1.60300
O 	O 	0.86090 0.49980 0.51460 -0.50100
O 	O 	0.81860 0.52840 0.39560 -0.47300
O 	O 	0.86100 0.31520 0.61550 -0.50700
O 	O 	0.82080 0.23140 0.55510 -0.52700
N 	N 	0.82980 0.38540 0.49210 -0.17600
C 	C 	0.83290 0.48870 0.44820 0.38200
C 	C 	0.81280 0.42420 0.43250 -0.08100
C 	C 	0.78110 0.40380 0.36620 0.00800
H 	H 	0.77150 0.43070 0.32420 0.01700
C 	C 	0.76340 0.34300 0.36210 -0.09700
H 	H 	0.74040 0.32920 0.31800 0.04200
C 	C 	0.77950 0.30280 0.42210 0.01100
H 	H 	0.76770 0.26160 0.42010 0.00500
C 	C 	0.81370 0.32550 0.48540 -0.09300
C 	C 	0.83260 0.28700 0.55670 0.39000
Sm	Sm	0.17274 0.36320 0.63253 1.60300
O 	O 	0.24980 0.38910 0.73540 -0.50100
O 	O 	0.27840 0.43140 0.85440 -0.47300
O 	O 	0.06520 0.38900 0.63450 -0.50700
O 	O 	0.98140 0.42920 0.69490 -0.52800
N 	N 	0.13540 0.42020 0.75790 -0.17600
C 	C 	0.23870 0.41710 0.80180 0.38200
C 	C 	0.17420 0.43720 0.81750 -0.08100
C 	C 	0.15380 0.46890 0.88380 0.00800
H 	H 	0.18070 0.47850 0.92580 0.01700
C 	C 	0.09300 0.48660 0.88790 -0.09700
H 	H 	0.07920 0.50960 0.93200 0.04100
C 	C 	0.05280 0.47050 0.82790 0.01100
H 	H 	0.01160 0.48230 0.82990 0.00500
C 	C 	0.07550 0.43630 0.76460 -0.09300
C 	C 	0.03700 0.41740 0.69330 0.39000
Sm	Sm	0.67274 0.86320 0.13253 1.60300
O 	O 	0.74980 0.88910 0.23540 -0.50100
O 	O 	0.77840 0.93140 0.35440 -0.47300
O 	O 	0.56520 0.88900 0.13450 -0.50700
O 	O 	0.48140 0.92920 0.19490 -0.52800
N 	N 	0.63540 0.92020 0.25790 -0.17600
C 	C 	0.73870 0.91710 0.30180 0.38200
C 	C 	0.67420 0.93720 0.31750 -0.08100
C 	C 	0.65380 0.96890 0.38380 0.00800
H 	H 	0.68070 0.97850 0.42580 0.01600
C 	C 	0.59300 0.98660 0.38790 -0.09700
H 	H 	0.57920 0.00960 0.43200 0.04100
C 	C 	0.55280 0.97050 0.32790 0.01100
H 	H 	0.51160 0.98230 0.32990 0.00500
C 	C 	0.57550 0.93630 0.26460 -0.09300
C 	C 	0.53700 0.91740 0.19330 0.39000
Sm	Sm	0.32726 0.63680 0.13253 1.60300
O 	O 	0.25020 0.61090 0.23540 -0.50100
O 	O 	0.22160 0.56860 0.35440 -0.47300
O 	O 	0.43480 0.61100 0.13450 -0.50700
O 	O 	0.51860 0.57080 0.19490 -0.52700
N 	N 	0.36460 0.57980 0.25790 -0.17600
C 	C 	0.26130 0.58290 0.30180 0.38200
C 	C 	0.32580 0.56280 0.31750 -0.08100
C 	C 	0.34620 0.53110 0.38380 0.00800
H 	H 	0.31930 0.52150 0.42580 0.01700
C 	C 	0.40700 0.51340 0.38790 -0.09700
H 	H 	0.42080 0.49040 0.43200 0.04200
C 	C 	0.44720 0.52950 0.32790 0.01100
H 	H 	0.48840 0.51770 0.32990 0.00500
C 	C 	0.42450 0.56370 0.26460 -0.09300
C 	C 	0.46300 0.58260 0.19330 0.39000
Sm	Sm	0.82726 0.13680 0.63253 1.60300
O 	O 	0.75020 0.11090 0.73540 -0.50100
O 	O 	0.72160 0.06860 0.85440 -0.47300
O 	O 	0.93480 0.11100 0.63450 -0.50700
O 	O 	0.01860 0.07080 0.69490 -0.52800
N 	N 	0.86460 0.07980 0.75790 -0.17600
C 	C 	0.76130 0.08290 0.80180 0.38200
C 	C 	0.82580 0.06280 0.81750 -0.08100
C 	C 	0.84620 0.03110 0.88380 0.00700
H 	H 	0.81930 0.02150 0.92580 0.01700
C 	C 	0.90700 0.01340 0.88790 -0.09600
H 	H 	0.92080 0.99040 0.93200 0.04000
C 	C 	0.94720 0.02950 0.82790 0.01000
H 	H 	0.98840 0.01770 0.82990 0.00500
C 	C 	0.92450 0.06370 0.76460 -0.09300
C 	C 	0.96300 0.08260 0.69330 0.39000
Sm	Sm	0.88680 0.92274 0.38253 1.60300
O 	O 	0.86090 0.99980 0.48540 -0.50100
O 	O 	0.81860 0.02840 0.60440 -0.47300
O 	O 	0.86100 0.81520 0.38450 -0.50700
O 	O 	0.82080 0.73140 0.44490 -0.52700
N 	N 	0.82980 0.88540 0.50790 -0.17600
C 	C 	0.83290 0.98870 0.55180 0.38200
C 	C 	0.81280 0.92420 0.56750 -0.08100
C 	C 	0.78110 0.90380 0.63380 0.00800
H 	H 	0.77150 0.93070 0.67580 0.01600
C 	C 	0.76340 0.84300 0.63790 -0.09700
H 	H 	0.74040 0.82920 0.68200 0.04100
C 	C 	0.77950 0.80280 0.57790 0.01100
H 	H 	0.76770 0.76160 0.57990 0.00500
C 	C 	0.81370 0.82550 0.51460 -0.09300
C 	C 	0.83260 0.78700 0.44330 0.39000
Sm	Sm	0.38680 0.42274 0.88253 1.60300
O 	O 	0.36090 0.49980 0.98540 -0.50100
O 	O 	0.31860 0.52840 0.10440 -0.47300
O 	O 	0.36100 0.31520 0.88450 -0.50700
O 	O 	0.32080 0.23140 0.94490 -0.52800
N 	N 	0.32980 0.38540 0.00790 -0.17600
C 	C 	0.33290 0.48870 0.05180 0.38200
C 	C 	0.31280 0.42420 0.06750 -0.08100
C 	C 	0.28110 0.40380 0.13380 0.00800
H 	H 	0.27150 0.43070 0.17580 0.01700
C 	C 	0.26340 0.34300 0.13790 -0.09700
H 	H 	0.24040 0.32920 0.18200 0.04200
C 	C 	0.27950 0.30280 0.07790 0.01100
H 	H 	0.26770 0.26160 0.07990 0.00500
C 	C 	0.31370 0.32550 0.01460 -0.09300
C 	C 	0.33260 0.28700 0.94330 0.39000
Sm	Sm	0.61320 0.07726 0.88253 1.60300
O 	O 	0.63910 0.00020 0.98540 -0.50000
O 	O 	0.68140 0.97160 0.10440 -0.47300
O 	O 	0.63900 0.18480 0.88450 -0.50700
O 	O 	0.67920 0.26860 0.94490 -0.52800
N 	N 	0.67020 0.11460 0.00790 -0.17600
C 	C 	0.66710 0.01130 0.05180 0.38100
C 	C 	0.68720 0.07580 0.06750 -0.08100
C 	C 	0.71890 0.09620 0.13380 0.00700
H 	H 	0.72850 0.06930 0.17580 0.01600
C 	C 	0.73660 0.15700 0.13790 -0.09700
H 	H 	0.75960 0.17080 0.18200 0.04200
C 	C 	0.72050 0.19720 0.07790 0.01100
H 	H 	0.73230 0.23840 0.07990 0.00500
C 	C 	0.68630 0.17450 0.01460 -0.09300
C 	C 	0.66740 0.21300 0.94330 0.39000
Sm	Sm	0.11320 0.57726 0.38253 1.60300
O 	O 	0.13910 0.50020 0.48540 -0.50100
O 	O 	0.18140 0.47160 0.60440 -0.47300
O 	O 	0.13900 0.68480 0.38450 -0.50700
O 	O 	0.17920 0.76860 0.44490 -0.52700
N 	N 	0.17020 0.61460 0.50790 -0.17600
C 	C 	0.16710 0.51130 0.55180 0.38200
C 	C 	0.18720 0.57580 0.56750 -0.08100
C 	C 	0.21890 0.59620 0.63380 0.00800
H 	H 	0.22850 0.56930 0.67580 0.01700
C 	C 	0.23660 0.65700 0.63790 -0.09700
H 	H 	0.25960 0.67080 0.68200 0.04200
C 	C 	0.22050 0.69720 0.57790 0.01100
H 	H 	0.23230 0.73840 0.57990 0.00500
C 	C 	0.18630 0.67450 0.51460 -0.09300
C 	C 	0.16740 0.71300 0.44330 0.39000
