data_crystal

_cell_length_a 9.57400
_cell_length_b 22.54700
_cell_length_c 10.12200
_cell_angle_alpha 90.00000
_cell_angle_beta  102.04000
_cell_angle_gamma 90.00000

_symmetry_space_group_name_	'P 1'
_symmetry_space_group_name_H-M	'P 1'

loop_
_symmetry_equiv_pos_as_xyz
  x,y,z

loop_
_atom_site_label
_atom_site_type_symbol
_atom_site_fract_x
_atom_site_fract_y
_atom_site_fract_z
_atom_site_charge
Eu	Eu	0.74915 0.72216 0.95684 1.76600
Eu	Eu	0.28188 0.56499 0.14376 1.92600
N 	N 	0.22720 0.49221 0.35820 -0.19400
N 	N 	0.40180 0.58492 0.37860 -0.23300
N 	N 	0.46540 0.58658 0.60030 -0.19800
H 	H 	0.47554 0.57161 0.67975 0.15400
O 	O 	0.93250 0.66083 0.89450 -0.41600
O 	O 	0.96530 0.71058 0.13910 -0.40800
O 	O 	0.16790 0.65797 0.20950 -0.38300
O 	O 	0.15110 0.62078 0.95270 -0.39600
O 	O 	0.39950 0.56390 0.95120 -0.39000
O 	O 	0.52990 0.50961 0.83540 -0.41700
O 	O 	0.17830 0.48098 0.00370 -0.41000
O 	O 	0.97570 0.44898 0.86740 -0.41400
O 	O 	0.47820 0.63990 0.18190 -0.44200
O 	O 	0.62380 0.70400 0.31170 -0.50100
O 	O 	0.72050 0.70621 0.61390 -0.52800
O 	O 	0.63290 0.66118 0.77540 -0.47200
C 	C 	0.04780 0.65027 0.97500 0.26500
C 	C 	0.06270 0.67565 0.12200 0.23800
C 	C 	0.04380 0.47986 0.96180 0.25900
C 	C 	0.47860 0.52144 0.93870 0.25700
C 	C 	0.53950 0.66089 0.29760 0.38200
C 	C 	0.64080 0.66910 0.65410 0.41700
C 	C 	0.50230 0.62899 0.41420 -0.05500
C 	C 	0.54400 0.63103 0.55420 -0.03500
C 	C 	0.38220 0.56007 0.49250 0.11400
C 	C 	0.27850 0.51114 0.48730 0.03900
C 	C 	0.23730 0.48710 0.59950 -0.10000
H 	H 	0.27315 0.50214 0.68772 0.07800
C 	C 	0.14030 0.43950 0.57720 0.02500
H 	H 	0.10811 0.42161 0.65042 0.02200
C 	C 	0.09210 0.41900 0.44540 -0.11700
H 	H 	0.02983 0.38576 0.42861 0.06800
C 	C 	0.13460 0.44680 0.34090 0.08600
H 	H 	0.09700 0.43336 0.25154 0.01000
Eu	Eu	0.25085 0.22216 0.54316 1.77300
Eu	Eu	0.71812 0.06499 0.35624 1.92300
N 	N 	0.77280 0.99221 0.14180 -0.19100
N 	N 	0.59820 0.08492 0.12140 -0.23200
N 	N 	0.53460 0.08658 0.89970 -0.19800
H 	H 	0.52446 0.07161 0.82025 0.15400
O 	O 	0.06750 0.16083 0.60550 -0.41200
O 	O 	0.03470 0.21058 0.36090 -0.41300
O 	O 	0.83210 0.15797 0.29050 -0.38400
O 	O 	0.84890 0.12078 0.54730 -0.39500
O 	O 	0.60050 0.06390 0.54880 -0.39000
O 	O 	0.47010 0.00961 0.66460 -0.41600
O 	O 	0.82170 0.98098 0.49630 -0.40700
O 	O 	0.02430 0.94898 0.63260 -0.41300
O 	O 	0.52180 0.13990 0.31810 -0.44300
O 	O 	0.37620 0.20400 0.18830 -0.50200
O 	O 	0.27950 0.20621 0.88610 -0.52500
O 	O 	0.36710 0.16118 0.72460 -0.47200
C 	C 	0.95220 0.15027 0.52500 0.25800
C 	C 	0.93730 0.17565 0.37800 0.24300
C 	C 	0.95620 0.97986 0.53820 0.25500
C 	C 	0.52140 0.02144 0.56130 0.25600
C 	C 	0.46050 0.16089 0.20240 0.38300
C 	C 	0.35920 0.16910 0.84590 0.41500
C 	C 	0.49770 0.12899 0.08580 -0.05800
C 	C 	0.45600 0.13103 0.94580 -0.03000
C 	C 	0.61780 0.06007 0.00750 0.11300
C 	C 	0.72150 0.01114 0.01270 0.03600
C 	C 	0.76270 0.98710 0.90050 -0.09700
H 	H 	0.72685 0.00214 0.81228 0.07700
C 	C 	0.85970 0.93950 0.92280 0.01400
H 	H 	0.89189 0.92161 0.84958 0.02500
C 	C 	0.90790 0.91900 0.05460 -0.10500
H 	H 	0.97017 0.88576 0.07139 0.06600
C 	C 	0.86540 0.94680 0.15910 0.08100
H 	H 	0.90300 0.93336 0.24846 0.01300
Eu	Eu	0.25085 0.27784 0.04316 1.76700
Eu	Eu	0.71812 0.43501 0.85624 1.92700
N 	N 	0.77280 0.50779 0.64180 -0.19400
N 	N 	0.59820 0.41508 0.62140 -0.23300
N 	N 	0.53460 0.41342 0.39970 -0.19800
H 	H 	0.52446 0.42839 0.32025 0.15400
O 	O 	0.06750 0.33917 0.10550 -0.41600
O 	O 	0.03470 0.28942 0.86090 -0.40800
O 	O 	0.83210 0.34203 0.79050 -0.38300
O 	O 	0.84890 0.37922 0.04730 -0.39600
O 	O 	0.60050 0.43610 0.04880 -0.39000
O 	O 	0.47010 0.49039 0.16460 -0.41700
O 	O 	0.82170 0.51902 0.99630 -0.41000
O 	O 	0.02430 0.55102 0.13260 -0.41400
O 	O 	0.52180 0.36010 0.81810 -0.44200
O 	O 	0.37620 0.29600 0.68830 -0.50100
O 	O 	0.27950 0.29379 0.38610 -0.52800
O 	O 	0.36710 0.33882 0.22460 -0.47200
C 	C 	0.95220 0.34973 0.02500 0.26500
C 	C 	0.93730 0.32435 0.87800 0.23800
C 	C 	0.95620 0.52014 0.03820 0.25900
C 	C 	0.52140 0.47856 0.06130 0.25700
C 	C 	0.46050 0.33911 0.70240 0.38200
C 	C 	0.35920 0.33090 0.34590 0.41700
C 	C 	0.49770 0.37101 0.58580 -0.05500
C 	C 	0.45600 0.36897 0.44580 -0.03500
C 	C 	0.61780 0.43993 0.50750 0.11400
C 	C 	0.72150 0.48886 0.51270 0.03900
C 	C 	0.76270 0.51290 0.40050 -0.10000
H 	H 	0.72685 0.49786 0.31228 0.07800
C 	C 	0.85970 0.56050 0.42280 0.02500
H 	H 	0.89189 0.57839 0.34958 0.02200
C 	C 	0.90790 0.58100 0.55460 -0.11700
H 	H 	0.97017 0.61424 0.57139 0.06800
C 	C 	0.86540 0.55320 0.65910 0.08600
H 	H 	0.90300 0.56664 0.74846 0.01000
Eu	Eu	0.74915 0.77784 0.45684 1.77300
Eu	Eu	0.28188 0.93501 0.64376 1.92300
N 	N 	0.22720 0.00779 0.85820 -0.19100
N 	N 	0.40180 0.91508 0.87860 -0.23200
N 	N 	0.46540 0.91342 0.10030 -0.19800
H 	H 	0.47554 0.92839 0.17975 0.15400
O 	O 	0.93250 0.83917 0.39450 -0.41200
O 	O 	0.96530 0.78942 0.63910 -0.41300
O 	O 	0.16790 0.84203 0.70950 -0.38400
O 	O 	0.15110 0.87922 0.45270 -0.39500
O 	O 	0.39950 0.93610 0.45120 -0.39000
O 	O 	0.52990 0.99039 0.33540 -0.41600
O 	O 	0.17830 0.01902 0.50370 -0.40700
O 	O 	0.97570 0.05102 0.36740 -0.41300
O 	O 	0.47820 0.86010 0.68190 -0.44300
O 	O 	0.62380 0.79600 0.81170 -0.50200
O 	O 	0.72050 0.79379 0.11390 -0.52500
O 	O 	0.63290 0.83882 0.27540 -0.47200
C 	C 	0.04780 0.84973 0.47500 0.25800
C 	C 	0.06270 0.82435 0.62200 0.24300
C 	C 	0.04380 0.02014 0.46180 0.25500
C 	C 	0.47860 0.97856 0.43870 0.25600
C 	C 	0.53950 0.83911 0.79760 0.38300
C 	C 	0.64080 0.83090 0.15410 0.41500
C 	C 	0.50230 0.87101 0.91420 -0.05800
C 	C 	0.54400 0.86897 0.05420 -0.03000
C 	C 	0.38220 0.93993 0.99250 0.11300
C 	C 	0.27850 0.98886 0.98730 0.03600
C 	C 	0.23730 0.01290 0.09950 -0.09700
H 	H 	0.27315 0.99786 0.18772 0.07700
C 	C 	0.14030 0.06050 0.07720 0.01400
H 	H 	0.10811 0.07839 0.15042 0.02500
C 	C 	0.09210 0.08100 0.94540 -0.10500
H 	H 	0.02983 0.11424 0.92861 0.06600
C 	C 	0.13460 0.05320 0.84090 0.08100
H 	H 	0.09700 0.06664 0.75154 0.01300
