data_crystal

_cell_length_a 9.59000
_cell_length_b 22.62100
_cell_length_c 10.12900
_cell_angle_alpha 90.00000
_cell_angle_beta  101.61000
_cell_angle_gamma 90.00000

_symmetry_space_group_name_	'P 1'
_symmetry_space_group_name_H-M	'P 1'

loop_
_symmetry_equiv_pos_as_xyz
  x,y,z

loop_
_atom_site_label
_atom_site_type_symbol
_atom_site_fract_x
_atom_site_fract_y
_atom_site_fract_z
_atom_site_charge
Sm	Sm	0.24947 0.27703 0.04694 1.84000
Sm	Sm	0.72018 0.43443 0.85643 2.02500
N 	N 	0.59890 0.41469 0.62070 -0.23800
N 	N 	0.53390 0.41381 0.40080 -0.20000
H 	H 	0.52324 0.42261 0.31665 0.15400
N 	N 	0.77420 0.50658 0.64220 -0.20300
O 	O 	0.06500 0.33834 0.10940 -0.42700
O 	O 	0.03330 0.28809 0.86570 -0.42200
O 	O 	0.83350 0.34115 0.79550 -0.40200
O 	O 	0.85050 0.38014 0.04940 -0.40700
O 	O 	0.52360 0.35958 0.81700 -0.46400
O 	O 	0.37800 0.29633 0.68960 -0.52400
O 	O 	0.27890 0.29513 0.38880 -0.53800
O 	O 	0.36820 0.33901 0.22740 -0.48400
O 	O 	0.59860 0.43630 0.04960 -0.40000
O 	O 	0.46820 0.49065 0.16370 -0.42800
O 	O 	0.97860 0.44933 0.86820 -0.43000
O 	O 	0.17740 0.48099 0.00400 -0.42500
C 	C 	0.45730 0.36966 0.44680 -0.03500
C 	C 	0.49960 0.37089 0.58620 -0.06200
C 	C 	0.61870 0.43971 0.50800 0.11600
C 	C 	0.72130 0.48841 0.51430 0.03900
C 	C 	0.76160 0.51294 0.40110 -0.10300
H 	H 	0.72438 0.49833 0.31318 0.07800
C 	C 	0.85860 0.55970 0.42190 0.03000
H 	H 	0.88890 0.57780 0.34778 0.01700
C 	C 	0.90980 0.57925 0.55160 -0.12200
H 	H 	0.97429 0.61156 0.56760 0.06800
C 	C 	0.86670 0.55152 0.65770 0.08900
H 	H 	0.90464 0.56503 0.74644 0.00600
C 	C 	0.36060 0.33164 0.34840 0.41700
C 	C 	0.46250 0.33891 0.70310 0.40200
C 	C 	0.51980 0.47870 0.06100 0.26000
C 	C 	0.04460 0.47983 0.96230 0.26900
C 	C 	0.95230 0.34923 0.02760 0.26200
C 	C 	0.93760 0.32376 0.88260 0.24100
Sm	Sm	0.75053 0.77703 0.45306 1.84600
Sm	Sm	0.27982 0.93443 0.64357 2.02200
N 	N 	0.40110 0.91469 0.87930 -0.23800
N 	N 	0.46610 0.91381 0.09920 -0.20000
H 	H 	0.47676 0.92261 0.18335 0.15400
N 	N 	0.22580 0.00658 0.85780 -0.19900
O 	O 	0.93500 0.83834 0.39060 -0.42300
O 	O 	0.96670 0.78809 0.63430 -0.42800
O 	O 	0.16650 0.84115 0.70450 -0.40300
O 	O 	0.14950 0.88014 0.45060 -0.40600
O 	O 	0.47640 0.85958 0.68300 -0.46400
O 	O 	0.62200 0.79633 0.81040 -0.52500
O 	O 	0.72110 0.79513 0.11120 -0.53500
O 	O 	0.63180 0.83901 0.27260 -0.48400
O 	O 	0.40140 0.93630 0.45040 -0.40100
O 	O 	0.53180 0.99065 0.33630 -0.42700
O 	O 	0.02140 0.94933 0.63180 -0.42800
O 	O 	0.82260 0.98099 0.49600 -0.42200
C 	C 	0.54270 0.86966 0.05320 -0.03100
C 	C 	0.50040 0.87089 0.91380 -0.06600
C 	C 	0.38130 0.93971 0.99200 0.11500
C 	C 	0.27870 0.98841 0.98570 0.03500
C 	C 	0.23840 0.01294 0.09890 -0.09900
H 	H 	0.27562 0.99833 0.18682 0.07700
C 	C 	0.14140 0.05970 0.07810 0.01700
H 	H 	0.11110 0.07780 0.15222 0.02000
C 	C 	0.09020 0.07925 0.94840 -0.10800
H 	H 	0.02571 0.11156 0.93240 0.06500
C 	C 	0.13330 0.05152 0.84230 0.08400
H 	H 	0.09536 0.06503 0.75356 0.00900
C 	C 	0.63940 0.83164 0.15160 0.41500
C 	C 	0.53750 0.83891 0.79690 0.40300
C 	C 	0.48020 0.97870 0.43900 0.25900
C 	C 	0.95540 0.97983 0.53770 0.26500
C 	C 	0.04770 0.84923 0.47240 0.25500
C 	C 	0.06240 0.82376 0.61740 0.24700
Sm	Sm	0.75053 0.72297 0.95306 1.84000
Sm	Sm	0.27982 0.56557 0.14357 2.02500
N 	N 	0.40110 0.58531 0.37930 -0.23800
N 	N 	0.46610 0.58619 0.59920 -0.20000
H 	H 	0.47676 0.57739 0.68335 0.15400
N 	N 	0.22580 0.49342 0.35780 -0.20300
O 	O 	0.93500 0.66166 0.89060 -0.42700
O 	O 	0.96670 0.71191 0.13430 -0.42200
O 	O 	0.16650 0.65885 0.20450 -0.40200
O 	O 	0.14950 0.61986 0.95060 -0.40700
O 	O 	0.47640 0.64042 0.18300 -0.46400
O 	O 	0.62200 0.70367 0.31040 -0.52400
O 	O 	0.72110 0.70487 0.61120 -0.53800
O 	O 	0.63180 0.66099 0.77260 -0.48400
O 	O 	0.40140 0.56370 0.95040 -0.40000
O 	O 	0.53180 0.50935 0.83630 -0.42800
O 	O 	0.02140 0.55067 0.13180 -0.43000
O 	O 	0.82260 0.51901 0.99600 -0.42500
C 	C 	0.54270 0.63034 0.55320 -0.03500
C 	C 	0.50040 0.62911 0.41380 -0.06200
C 	C 	0.38130 0.56029 0.49200 0.11600
C 	C 	0.27870 0.51159 0.48570 0.03900
C 	C 	0.23840 0.48706 0.59890 -0.10300
H 	H 	0.27562 0.50167 0.68682 0.07800
C 	C 	0.14140 0.44030 0.57810 0.03000
H 	H 	0.11110 0.42220 0.65222 0.01700
C 	C 	0.09020 0.42075 0.44840 -0.12200
H 	H 	0.02571 0.38844 0.43240 0.06800
C 	C 	0.13330 0.44848 0.34230 0.08900
H 	H 	0.09536 0.43497 0.25356 0.00600
C 	C 	0.63940 0.66836 0.65160 0.41700
C 	C 	0.53750 0.66109 0.29690 0.40200
C 	C 	0.48020 0.52130 0.93900 0.26000
C 	C 	0.95540 0.52017 0.03770 0.26900
C 	C 	0.04770 0.65077 0.97240 0.26200
C 	C 	0.06240 0.67624 0.11740 0.24100
Sm	Sm	0.24947 0.22297 0.54694 1.84600
Sm	Sm	0.72018 0.06557 0.35643 2.02200
N 	N 	0.59890 0.08531 0.12070 -0.23800
N 	N 	0.53390 0.08619 0.90080 -0.20000
H 	H 	0.52324 0.07739 0.81665 0.15400
N 	N 	0.77420 0.99342 0.14220 -0.19900
O 	O 	0.06500 0.16166 0.60940 -0.42300
O 	O 	0.03330 0.21191 0.36570 -0.42800
O 	O 	0.83350 0.15885 0.29550 -0.40300
O 	O 	0.85050 0.11986 0.54940 -0.40600
O 	O 	0.52360 0.14042 0.31700 -0.46400
O 	O 	0.37800 0.20367 0.18960 -0.52500
O 	O 	0.27890 0.20487 0.88880 -0.53500
O 	O 	0.36820 0.16099 0.72740 -0.48400
O 	O 	0.59860 0.06370 0.54960 -0.40100
O 	O 	0.46820 0.00935 0.66370 -0.42700
O 	O 	0.97860 0.05067 0.36820 -0.42800
O 	O 	0.17740 0.01901 0.50400 -0.42200
C 	C 	0.45730 0.13034 0.94680 -0.03100
C 	C 	0.49960 0.12911 0.08620 -0.06600
C 	C 	0.61870 0.06029 0.00800 0.11500
C 	C 	0.72130 0.01159 0.01430 0.03500
C 	C 	0.76160 0.98706 0.90110 -0.09900
H 	H 	0.72438 0.00167 0.81318 0.07700
C 	C 	0.85860 0.94030 0.92190 0.01700
H 	H 	0.88890 0.92220 0.84778 0.02000
C 	C 	0.90980 0.92075 0.05160 -0.10800
H 	H 	0.97429 0.88844 0.06760 0.06500
C 	C 	0.86670 0.94848 0.15770 0.08400
H 	H 	0.90464 0.93497 0.24644 0.00900
C 	C 	0.36060 0.16836 0.84840 0.41500
C 	C 	0.46250 0.16109 0.20310 0.40300
C 	C 	0.51980 0.02130 0.56100 0.25900
C 	C 	0.04460 0.02017 0.46230 0.26500
C 	C 	0.95230 0.15077 0.52760 0.25500
C 	C 	0.93760 0.17624 0.38260 0.24700
