data_crystal

_cell_length_a 9.42800
_cell_length_b 22.41500
_cell_length_c 10.05100
_cell_angle_alpha 90.00000
_cell_angle_beta  102.12000
_cell_angle_gamma 90.00000

_symmetry_space_group_name_	'P 1'
_symmetry_space_group_name_H-M	'P 1'

loop_
_symmetry_equiv_pos_as_xyz
  x,y,z

loop_
_atom_site_label
_atom_site_type_symbol
_atom_site_fract_x
_atom_site_fract_y
_atom_site_fract_z
_atom_site_charge
Dy	Dy	0.25050 0.27717 0.04663 1.65200
Dy	Dy	0.71833 0.43461 0.85831 1.79300
N 	N 	0.59830 0.41520 0.62540 -0.22300
N 	N 	0.53410 0.41369 0.40250 -0.20100
H 	H 	0.52406 0.42668 0.32141 0.16100
N 	N 	0.77660 0.50743 0.64830 -0.18700
O 	O 	0.06770 0.33781 0.10940 -0.39900
O 	O 	0.03430 0.28800 0.86350 -0.38600
O 	O 	0.83030 0.34248 0.79130 -0.36600
O 	O 	0.84900 0.38065 0.04880 -0.37800
O 	O 	0.52420 0.35985 0.82310 -0.42400
O 	O 	0.37760 0.29458 0.69370 -0.48100
O 	O 	0.27710 0.29313 0.39140 -0.51000
O 	O 	0.36510 0.33741 0.22730 -0.45600
O 	O 	0.60130 0.43610 0.05090 -0.37300
O 	O 	0.46950 0.49149 0.16570 -0.40400
O 	O 	0.97690 0.44787 0.86870 -0.39900
O 	O 	0.18080 0.48171 0.00470 -0.39800
C 	C 	0.45600 0.36928 0.44880 -0.02900
C 	C 	0.49800 0.37080 0.58940 -0.04900
C 	C 	0.61930 0.44017 0.51170 0.11900
C 	C 	0.72350 0.48952 0.51850 0.04300
C 	C 	0.76490 0.51421 0.40510 -0.10100
H 	H 	0.72757 0.49935 0.31608 0.08100
C 	C 	0.86330 0.56168 0.42720 0.02900
H 	H 	0.89464 0.57994 0.35309 0.02400
C 	C 	0.91440 0.58159 0.55880 -0.11600
H 	H 	0.97965 0.61435 0.57603 0.07400
C 	C 	0.86930 0.55318 0.66540 0.08600
H 	H 	0.90647 0.56700 0.75531 0.01600
C 	C 	0.35780 0.33023 0.34970 0.41500
C 	C 	0.46170 0.33826 0.70680 0.37700
C 	C 	0.52090 0.47858 0.06200 0.26000
C 	C 	0.04520 0.47976 0.96250 0.26200
C 	C 	0.95300 0.34932 0.02630 0.25900
C 	C 	0.93680 0.32420 0.88010 0.23200
Dy	Dy	0.74950 0.77717 0.45337 1.65700
Dy	Dy	0.28167 0.93461 0.64169 1.78900
N 	N 	0.40170 0.91520 0.87460 -0.22400
N 	N 	0.46590 0.91369 0.09750 -0.20200
H 	H 	0.47594 0.92668 0.17859 0.16000
N 	N 	0.22340 0.00743 0.85170 -0.18400
O 	O 	0.93230 0.83781 0.39060 -0.39500
O 	O 	0.96570 0.78800 0.63650 -0.39100
O 	O 	0.16970 0.84248 0.70870 -0.36700
O 	O 	0.15100 0.88065 0.45120 -0.37800
O 	O 	0.47580 0.85985 0.67690 -0.42400
O 	O 	0.62240 0.79458 0.80630 -0.48100
O 	O 	0.72290 0.79313 0.10860 -0.50800
O 	O 	0.63490 0.83741 0.27270 -0.45600
O 	O 	0.39870 0.93610 0.44910 -0.37300
O 	O 	0.53050 0.99149 0.33430 -0.40300
O 	O 	0.02310 0.94787 0.63130 -0.39800
O 	O 	0.81920 0.98171 0.49530 -0.39600
C 	C 	0.54400 0.86928 0.05120 -0.02400
C 	C 	0.50200 0.87080 0.91060 -0.05200
C 	C 	0.38070 0.94017 0.98830 0.11800
C 	C 	0.27650 0.98952 0.98150 0.03900
C 	C 	0.23510 0.01421 0.09490 -0.09800
H 	H 	0.27243 0.99935 0.18392 0.08000
C 	C 	0.13670 0.06168 0.07280 0.01800
H 	H 	0.10536 0.07994 0.14691 0.02700
C 	C 	0.08560 0.08159 0.94120 -0.10400
H 	H 	0.02035 0.11435 0.92397 0.07200
C 	C 	0.13070 0.05318 0.83460 0.08200
H 	H 	0.09353 0.06700 0.74469 0.01900
C 	C 	0.64220 0.83023 0.15030 0.41300
C 	C 	0.53830 0.83826 0.79320 0.37800
C 	C 	0.47910 0.97858 0.43800 0.25900
C 	C 	0.95480 0.97976 0.53750 0.25800
C 	C 	0.04700 0.84932 0.47370 0.25200
C 	C 	0.06320 0.82420 0.61990 0.23700
Dy	Dy	0.74950 0.72283 0.95337 1.65100
Dy	Dy	0.28167 0.56539 0.14169 1.79200
N 	N 	0.40170 0.58480 0.37460 -0.22400
N 	N 	0.46590 0.58631 0.59750 -0.20200
H 	H 	0.47594 0.57332 0.67859 0.16000
N 	N 	0.22340 0.49257 0.35170 -0.18800
O 	O 	0.93230 0.66219 0.89060 -0.39900
O 	O 	0.96570 0.71200 0.13650 -0.38600
O 	O 	0.16970 0.65752 0.20870 -0.36600
O 	O 	0.15100 0.61935 0.95120 -0.37800
O 	O 	0.47580 0.64015 0.17690 -0.42400
O 	O 	0.62240 0.70542 0.30630 -0.48100
O 	O 	0.72290 0.70687 0.60860 -0.51000
O 	O 	0.63490 0.66259 0.77270 -0.45600
O 	O 	0.39870 0.56390 0.94910 -0.37300
O 	O 	0.53050 0.50851 0.83430 -0.40400
O 	O 	0.02310 0.55213 0.13130 -0.39900
O 	O 	0.81920 0.51829 0.99530 -0.39800
C 	C 	0.54400 0.63072 0.55120 -0.02900
C 	C 	0.50200 0.62920 0.41060 -0.04900
C 	C 	0.38070 0.55983 0.48830 0.11900
C 	C 	0.27650 0.51048 0.48150 0.04300
C 	C 	0.23510 0.48579 0.59490 -0.10100
H 	H 	0.27243 0.50065 0.68392 0.08100
C 	C 	0.13670 0.43832 0.57280 0.02900
H 	H 	0.10536 0.42006 0.64691 0.02400
C 	C 	0.08560 0.41841 0.44120 -0.11600
H 	H 	0.02035 0.38565 0.42397 0.07400
C 	C 	0.13070 0.44682 0.33460 0.08600
H 	H 	0.09353 0.43300 0.24469 0.01600
C 	C 	0.64220 0.66977 0.65030 0.41500
C 	C 	0.53830 0.66174 0.29320 0.37700
C 	C 	0.47910 0.52142 0.93800 0.26000
C 	C 	0.95480 0.52024 0.03750 0.26200
C 	C 	0.04700 0.65068 0.97370 0.25900
C 	C 	0.06320 0.67580 0.11990 0.23200
Dy	Dy	0.25050 0.22283 0.54663 1.65700
Dy	Dy	0.71833 0.06539 0.35831 1.78900
N 	N 	0.59830 0.08480 0.12540 -0.22400
N 	N 	0.53410 0.08631 0.90250 -0.20200
H 	H 	0.52406 0.07332 0.82141 0.16000
N 	N 	0.77660 0.99257 0.14830 -0.18400
O 	O 	0.06770 0.16219 0.60940 -0.39500
O 	O 	0.03430 0.21200 0.36350 -0.39100
O 	O 	0.83030 0.15752 0.29130 -0.36700
O 	O 	0.84900 0.11935 0.54880 -0.37800
O 	O 	0.52420 0.14015 0.32310 -0.42400
O 	O 	0.37760 0.20542 0.19370 -0.48100
O 	O 	0.27710 0.20687 0.89140 -0.50800
O 	O 	0.36510 0.16259 0.72730 -0.45600
O 	O 	0.60130 0.06390 0.55090 -0.37300
O 	O 	0.46950 0.00851 0.66570 -0.40300
O 	O 	0.97690 0.05213 0.36870 -0.39800
O 	O 	0.18080 0.01829 0.50470 -0.39600
C 	C 	0.45600 0.13072 0.94880 -0.02400
C 	C 	0.49800 0.12920 0.08940 -0.05200
C 	C 	0.61930 0.05983 0.01170 0.11800
C 	C 	0.72350 0.01048 0.01850 0.03900
C 	C 	0.76490 0.98579 0.90510 -0.09800
H 	H 	0.72757 0.00065 0.81608 0.08000
C 	C 	0.86330 0.93832 0.92720 0.01800
H 	H 	0.89464 0.92006 0.85309 0.02700
C 	C 	0.91440 0.91841 0.05880 -0.10400
H 	H 	0.97965 0.88565 0.07603 0.07200
C 	C 	0.86930 0.94682 0.16540 0.08200
H 	H 	0.90647 0.93300 0.25531 0.01900
C 	C 	0.35780 0.16977 0.84970 0.41300
C 	C 	0.46170 0.16174 0.20680 0.37800
C 	C 	0.52090 0.02142 0.56200 0.25900
C 	C 	0.04520 0.02024 0.46250 0.25800
C 	C 	0.95300 0.15068 0.52630 0.25200
C 	C 	0.93680 0.17580 0.38010 0.23700
