data_crystal

_cell_length_a 9.42990
_cell_length_b 22.32720
_cell_length_c 10.08740
_cell_angle_alpha 90.00000
_cell_angle_beta  102.81700
_cell_angle_gamma 90.00000

_symmetry_space_group_name_	'P 1'
_symmetry_space_group_name_H-M	'P 1'

loop_
_symmetry_equiv_pos_as_xyz
  x,y,z

loop_
_atom_site_label
_atom_site_type_symbol
_atom_site_fract_x
_atom_site_fract_y
_atom_site_fract_z
_atom_site_charge
Ho	Ho	0.24816 0.27630 0.05136 1.61800
Ho	Ho	0.71783 0.43411 0.86187 1.75600
N 	N 	0.59940 0.41501 0.62880 -0.22000
N 	N 	0.53300 0.41311 0.40680 -0.20100
H 	H 	0.51086 0.42573 0.32514 0.15900
N 	N 	0.77600 0.50796 0.64930 -0.18500
O 	O 	0.06680 0.33687 0.11300 -0.40100
O 	O 	0.03030 0.28609 0.86980 -0.38300
O 	O 	0.82760 0.34113 0.79750 -0.36300
O 	O 	0.84980 0.38077 0.05100 -0.38200
O 	O 	0.52340 0.36042 0.82460 -0.42700
O 	O 	0.37990 0.29485 0.69640 -0.48300
O 	O 	0.60170 0.43635 0.05260 -0.36500
O 	O 	0.27400 0.29305 0.39540 -0.50400
O 	O 	0.36590 0.33549 0.23280 -0.45400
O 	O 	0.46820 0.49163 0.16320 -0.40300
O 	O 	0.97480 0.44747 0.87040 -0.39900
O 	O 	0.18020 0.48200 0.00160 -0.39500
C 	C 	0.45480 0.36851 0.45230 -0.02900
C 	C 	0.49810 0.37054 0.59280 -0.05500
C 	C 	0.61900 0.43976 0.51480 0.12100
C 	C 	0.72210 0.48906 0.51970 0.04900
C 	C 	0.76320 0.51220 0.40680 -0.11800
H 	H 	0.72622 0.49687 0.32037 0.09100
C 	C 	0.86310 0.55980 0.42760 0.04800
H 	H 	0.89377 0.57708 0.35483 0.01900
C 	C 	0.91440 0.58040 0.55790 -0.13800
H 	H 	0.97848 0.61259 0.57395 0.08500
C 	C 	0.87080 0.55340 0.66380 0.09900
H 	H 	0.90938 0.56741 0.75116 0.01200
C 	C 	0.35700 0.32910 0.35370 0.41700
C 	C 	0.46310 0.33827 0.70920 0.39700
C 	C 	0.52030 0.47913 0.06200 0.26200
C 	C 	0.04420 0.47967 0.96200 0.26600
C 	C 	0.95230 0.34887 0.03040 0.27000
C 	C 	0.93420 0.32279 0.88550 0.23600
Ho	Ho	0.75184 0.77630 0.44864 1.62200
Ho	Ho	0.28217 0.93411 0.63813 1.75200
N 	N 	0.40060 0.91501 0.87120 -0.22000
N 	N 	0.46700 0.91311 0.09320 -0.20200
H 	H 	0.48914 0.92573 0.17486 0.15900
N 	N 	0.22400 0.00796 0.85070 -0.18200
O 	O 	0.93320 0.83687 0.38700 -0.39700
O 	O 	0.96970 0.78609 0.63020 -0.38800
O 	O 	0.17240 0.84113 0.70250 -0.36400
O 	O 	0.15020 0.88077 0.44900 -0.38100
O 	O 	0.47660 0.86042 0.67540 -0.42700
O 	O 	0.62010 0.79485 0.80360 -0.48400
O 	O 	0.39830 0.93635 0.44740 -0.36500
O 	O 	0.72600 0.79305 0.10460 -0.50100
O 	O 	0.63410 0.83549 0.26720 -0.45400
O 	O 	0.53180 0.99163 0.33680 -0.40200
O 	O 	0.02520 0.94747 0.62960 -0.39800
O 	O 	0.81980 0.98200 0.49840 -0.39200
C 	C 	0.54520 0.86851 0.04770 -0.02400
C 	C 	0.50190 0.87054 0.90720 -0.05800
C 	C 	0.38100 0.93976 0.98520 0.12100
C 	C 	0.27790 0.98906 0.98030 0.04500
C 	C 	0.23680 0.01220 0.09320 -0.11300
H 	H 	0.27378 0.99687 0.17963 0.09000
C 	C 	0.13690 0.05980 0.07240 0.03500
H 	H 	0.10623 0.07708 0.14517 0.02200
C 	C 	0.08560 0.08040 0.94210 -0.12500
H 	H 	0.02152 0.11259 0.92605 0.08200
C 	C 	0.12920 0.05340 0.83620 0.09400
H 	H 	0.09062 0.06741 0.74884 0.01500
C 	C 	0.64300 0.82910 0.14630 0.41500
C 	C 	0.53690 0.83827 0.79080 0.39800
C 	C 	0.47970 0.97913 0.43800 0.26100
C 	C 	0.95580 0.97967 0.53800 0.26300
C 	C 	0.04770 0.84887 0.46960 0.26400
C 	C 	0.06580 0.82279 0.61450 0.24100
Ho	Ho	0.75184 0.72370 0.94864 1.61700
Ho	Ho	0.28217 0.56589 0.13813 1.75500
N 	N 	0.40060 0.58499 0.37120 -0.22100
N 	N 	0.46700 0.58689 0.59320 -0.20200
H 	H 	0.48914 0.57427 0.67486 0.15900
N 	N 	0.22400 0.49204 0.35070 -0.18500
O 	O 	0.93320 0.66313 0.88700 -0.40100
O 	O 	0.96970 0.71391 0.13020 -0.38300
O 	O 	0.17240 0.65887 0.20250 -0.36300
O 	O 	0.15020 0.61923 0.94900 -0.38200
O 	O 	0.47660 0.63958 0.17540 -0.42700
O 	O 	0.62010 0.70515 0.30360 -0.48300
O 	O 	0.39830 0.56365 0.94740 -0.36500
O 	O 	0.72600 0.70695 0.60460 -0.50400
O 	O 	0.63410 0.66451 0.76720 -0.45400
O 	O 	0.53180 0.50837 0.83680 -0.40300
O 	O 	0.02520 0.55253 0.12960 -0.39900
O 	O 	0.81980 0.51800 0.99840 -0.39500
C 	C 	0.54520 0.63149 0.54770 -0.02900
C 	C 	0.50190 0.62946 0.40720 -0.05500
C 	C 	0.38100 0.56024 0.48520 0.12100
C 	C 	0.27790 0.51094 0.48030 0.04900
C 	C 	0.23680 0.48780 0.59320 -0.11800
H 	H 	0.27378 0.50313 0.67963 0.09100
C 	C 	0.13690 0.44020 0.57240 0.04800
H 	H 	0.10623 0.42292 0.64517 0.01900
C 	C 	0.08560 0.41960 0.44210 -0.13800
H 	H 	0.02152 0.38741 0.42605 0.08500
C 	C 	0.12920 0.44660 0.33620 0.09900
H 	H 	0.09062 0.43259 0.24884 0.01200
C 	C 	0.64300 0.67090 0.64630 0.41700
C 	C 	0.53690 0.66173 0.29080 0.39700
C 	C 	0.47970 0.52087 0.93800 0.26200
C 	C 	0.95580 0.52033 0.03800 0.26600
C 	C 	0.04770 0.65113 0.96960 0.27000
C 	C 	0.06580 0.67721 0.11450 0.23600
Ho	Ho	0.24816 0.22370 0.55136 1.62200
Ho	Ho	0.71783 0.06589 0.36187 1.75200
N 	N 	0.59940 0.08499 0.12880 -0.22000
N 	N 	0.53300 0.08689 0.90680 -0.20200
H 	H 	0.51086 0.07427 0.82514 0.15900
N 	N 	0.77600 0.99204 0.14930 -0.18200
O 	O 	0.06680 0.16313 0.61300 -0.39700
O 	O 	0.03030 0.21391 0.36980 -0.38800
O 	O 	0.82760 0.15887 0.29750 -0.36400
O 	O 	0.84980 0.11923 0.55100 -0.38100
O 	O 	0.52340 0.13958 0.32460 -0.42700
O 	O 	0.37990 0.20515 0.19640 -0.48400
O 	O 	0.60170 0.06365 0.55260 -0.36500
O 	O 	0.27400 0.20695 0.89540 -0.50100
O 	O 	0.36590 0.16451 0.73280 -0.45400
O 	O 	0.46820 0.00837 0.66320 -0.40200
O 	O 	0.97480 0.05253 0.37040 -0.39800
O 	O 	0.18020 0.01800 0.50160 -0.39200
C 	C 	0.45480 0.13149 0.95230 -0.02400
C 	C 	0.49810 0.12946 0.09280 -0.05800
C 	C 	0.61900 0.06024 0.01480 0.12100
C 	C 	0.72210 0.01094 0.01970 0.04500
C 	C 	0.76320 0.98780 0.90680 -0.11300
H 	H 	0.72622 0.00313 0.82037 0.09000
C 	C 	0.86310 0.94020 0.92760 0.03500
H 	H 	0.89377 0.92292 0.85483 0.02200
C 	C 	0.91440 0.91960 0.05790 -0.12500
H 	H 	0.97848 0.88741 0.07395 0.08200
C 	C 	0.87080 0.94660 0.16380 0.09400
H 	H 	0.90938 0.93259 0.25116 0.01500
C 	C 	0.35700 0.17090 0.85370 0.41500
C 	C 	0.46310 0.16173 0.20920 0.39800
C 	C 	0.52030 0.02087 0.56200 0.26100
C 	C 	0.04420 0.02033 0.46200 0.26300
C 	C 	0.95230 0.15113 0.53040 0.26400
C 	C 	0.93420 0.17721 0.38550 0.24100
