data_crystal

_cell_length_a 9.40560
_cell_length_b 22.31520
_cell_length_c 10.08200
_cell_angle_alpha 90.00000
_cell_angle_beta  102.96000
_cell_angle_gamma 90.00000

_symmetry_space_group_name_	'P 1'
_symmetry_space_group_name_H-M	'P 1'

loop_
_symmetry_equiv_pos_as_xyz
  x,y,z

loop_
_atom_site_label
_atom_site_type_symbol
_atom_site_fract_x
_atom_site_fract_y
_atom_site_fract_z
_atom_site_charge
Er	Er	0.24787 0.27613 0.05256 1.57800
Er	Er	0.71757 0.43395 0.86311 1.70800
N 	N 	0.59980 0.41516 0.62970 -0.21600
N 	N 	0.53290 0.41262 0.40720 -0.19800
H 	H 	0.51867 0.42217 0.32273 0.15900
N 	N 	0.77660 0.50850 0.65050 -0.18100
O 	O 	0.06640 0.33652 0.11430 -0.39100
O 	O 	0.02940 0.28574 0.87080 -0.37600
O 	O 	0.82730 0.34105 0.79840 -0.36000
O 	O 	0.84990 0.38093 0.05220 -0.37300
O 	O 	0.52330 0.36042 0.82680 -0.41700
O 	O 	0.60190 0.43630 0.05390 -0.36100
O 	O 	0.38010 0.29478 0.69770 -0.47100
O 	O 	0.27310 0.29258 0.39660 -0.49700
O 	O 	0.36460 0.33489 0.23360 -0.45000
O 	O 	0.46890 0.49216 0.16300 -0.40100
O 	O 	0.97430 0.44671 0.87080 -0.39400
O 	O 	0.18090 0.48236 0.00100 -0.39000
C 	C 	0.45370 0.36820 0.45340 -0.03100
C 	C 	0.49910 0.37050 0.59440 -0.05100
C 	C 	0.61870 0.44000 0.51610 0.12100
C 	C 	0.72280 0.48920 0.52110 0.05000
C 	C 	0.76510 0.51200 0.40770 -0.11800
H 	H 	0.72912 0.49606 0.32148 0.09100
C 	C 	0.86360 0.55980 0.42770 0.04900
H 	H 	0.89376 0.57735 0.35497 0.01900
C 	C 	0.91490 0.58020 0.55960 -0.14100
H 	H 	0.97928 0.61238 0.57601 0.08700
C 	C 	0.87170 0.55350 0.66490 0.10400
H 	H 	0.91080 0.56747 0.75239 0.01200
C 	C 	0.35580 0.32880 0.35470 0.41700
C 	C 	0.46330 0.33850 0.71040 0.38800
C 	C 	0.52060 0.47930 0.06340 0.26800
C 	C 	0.04440 0.47960 0.96130 0.26500
C 	C 	0.95180 0.34820 0.03110 0.26400
C 	C 	0.93330 0.32290 0.88570 0.24100
Er	Er	0.75213 0.77613 0.44744 1.58200
Er	Er	0.28243 0.93395 0.63689 1.70400
N 	N 	0.40020 0.91516 0.87030 -0.21700
N 	N 	0.46710 0.91262 0.09280 -0.19800
H 	H 	0.48133 0.92217 0.17727 0.15800
N 	N 	0.22340 0.00850 0.84950 -0.17800
O 	O 	0.93360 0.83652 0.38570 -0.38900
O 	O 	0.97060 0.78574 0.62920 -0.38200
O 	O 	0.17270 0.84105 0.70160 -0.36100
O 	O 	0.15010 0.88093 0.44780 -0.37300
O 	O 	0.47670 0.86042 0.67320 -0.41800
O 	O 	0.39810 0.93630 0.44610 -0.36100
O 	O 	0.61990 0.79478 0.80230 -0.47200
O 	O 	0.72690 0.79258 0.10340 -0.49500
O 	O 	0.63540 0.83489 0.26640 -0.45000
O 	O 	0.53110 0.99216 0.33700 -0.40000
O 	O 	0.02570 0.94671 0.62920 -0.39300
O 	O 	0.81910 0.98236 0.49900 -0.38800
C 	C 	0.54630 0.86820 0.04660 -0.02600
C 	C 	0.50090 0.87050 0.90560 -0.05400
C 	C 	0.38130 0.94000 0.98390 0.12100
C 	C 	0.27720 0.98920 0.97890 0.04600
C 	C 	0.23490 0.01200 0.09230 -0.11400
H 	H 	0.27088 0.99606 0.17852 0.09000
C 	C 	0.13640 0.05980 0.07230 0.03700
H 	H 	0.10624 0.07735 0.14503 0.02200
C 	C 	0.08510 0.08020 0.94040 -0.12700
H 	H 	0.02072 0.11238 0.92399 0.08500
C 	C 	0.12830 0.05350 0.83510 0.09800
H 	H 	0.08920 0.06747 0.74761 0.01500
C 	C 	0.64420 0.82880 0.14530 0.41600
C 	C 	0.53670 0.83850 0.78960 0.38900
C 	C 	0.47940 0.97930 0.43660 0.26700
C 	C 	0.95560 0.97960 0.53870 0.26200
C 	C 	0.04820 0.84820 0.46890 0.25800
C 	C 	0.06670 0.82290 0.61430 0.24600
Er	Er	0.75213 0.72387 0.94744 1.57700
Er	Er	0.28243 0.56605 0.13689 1.70700
N 	N 	0.40020 0.58484 0.37030 -0.21700
N 	N 	0.46710 0.58738 0.59280 -0.19900
H 	H 	0.48133 0.57783 0.67727 0.15800
N 	N 	0.22340 0.49150 0.34950 -0.18200
O 	O 	0.93360 0.66348 0.88570 -0.39200
O 	O 	0.97060 0.71426 0.12920 -0.37700
O 	O 	0.17270 0.65895 0.20160 -0.36000
O 	O 	0.15010 0.61907 0.94780 -0.37300
O 	O 	0.47670 0.63958 0.17320 -0.41700
O 	O 	0.39810 0.56370 0.94610 -0.36100
O 	O 	0.61990 0.70522 0.30230 -0.47100
O 	O 	0.72690 0.70742 0.60340 -0.49700
O 	O 	0.63540 0.66511 0.76640 -0.45000
O 	O 	0.53110 0.50784 0.83700 -0.40100
O 	O 	0.02570 0.55329 0.12920 -0.39400
O 	O 	0.81910 0.51764 0.99900 -0.39000
C 	C 	0.54630 0.63180 0.54660 -0.03100
C 	C 	0.50090 0.62950 0.40560 -0.05100
C 	C 	0.38130 0.56000 0.48390 0.12100
C 	C 	0.27720 0.51080 0.47890 0.05000
C 	C 	0.23490 0.48800 0.59230 -0.11800
H 	H 	0.27088 0.50394 0.67852 0.09100
C 	C 	0.13640 0.44020 0.57230 0.04900
H 	H 	0.10624 0.42265 0.64503 0.01900
C 	C 	0.08510 0.41980 0.44040 -0.14100
H 	H 	0.02072 0.38762 0.42399 0.08700
C 	C 	0.12830 0.44650 0.33510 0.10400
H 	H 	0.08920 0.43253 0.24761 0.01200
C 	C 	0.64420 0.67120 0.64530 0.41700
C 	C 	0.53670 0.66150 0.28960 0.38800
C 	C 	0.47940 0.52070 0.93660 0.26800
C 	C 	0.95560 0.52040 0.03870 0.26500
C 	C 	0.04820 0.65180 0.96890 0.26400
C 	C 	0.06670 0.67710 0.11430 0.24100
Er	Er	0.24787 0.22387 0.55256 1.58200
Er	Er	0.71757 0.06605 0.36311 1.70400
N 	N 	0.59980 0.08484 0.12970 -0.21700
N 	N 	0.53290 0.08738 0.90720 -0.19800
H 	H 	0.51867 0.07783 0.82273 0.15800
N 	N 	0.77660 0.99150 0.15050 -0.17800
O 	O 	0.06640 0.16348 0.61430 -0.38900
O 	O 	0.02940 0.21426 0.37080 -0.38200
O 	O 	0.82730 0.15895 0.29840 -0.36100
O 	O 	0.84990 0.11907 0.55220 -0.37300
O 	O 	0.52330 0.13958 0.32680 -0.41800
O 	O 	0.60190 0.06370 0.55390 -0.36100
O 	O 	0.38010 0.20522 0.19770 -0.47200
O 	O 	0.27310 0.20742 0.89660 -0.49500
O 	O 	0.36460 0.16511 0.73360 -0.45000
O 	O 	0.46890 0.00784 0.66300 -0.40000
O 	O 	0.97430 0.05329 0.37080 -0.39300
O 	O 	0.18090 0.01764 0.50100 -0.38800
C 	C 	0.45370 0.13180 0.95340 -0.02600
C 	C 	0.49910 0.12950 0.09440 -0.05400
C 	C 	0.61870 0.06000 0.01610 0.12100
C 	C 	0.72280 0.01080 0.02110 0.04600
C 	C 	0.76510 0.98800 0.90770 -0.11400
H 	H 	0.72912 0.00394 0.82148 0.09000
C 	C 	0.86360 0.94020 0.92770 0.03700
H 	H 	0.89376 0.92265 0.85497 0.02200
C 	C 	0.91490 0.91980 0.05960 -0.12700
H 	H 	0.97928 0.88762 0.07601 0.08500
C 	C 	0.87170 0.94650 0.16490 0.09800
H 	H 	0.91080 0.93253 0.25239 0.01500
C 	C 	0.35580 0.17120 0.85470 0.41600
C 	C 	0.46330 0.16150 0.21040 0.38900
C 	C 	0.52060 0.02070 0.56340 0.26700
C 	C 	0.04440 0.02040 0.46130 0.26200
C 	C 	0.95180 0.15180 0.53110 0.25800
C 	C 	0.93330 0.17710 0.38570 0.24600
