data_crystal

_cell_length_a 9.52610
_cell_length_b 22.47290
_cell_length_c 10.12160
_cell_angle_alpha 90.00000
_cell_angle_beta  102.26300
_cell_angle_gamma 90.00000

_symmetry_space_group_name_	'P 1'
_symmetry_space_group_name_H-M	'P 1'

loop_
_symmetry_equiv_pos_as_xyz
  x,y,z

loop_
_atom_site_label
_atom_site_type_symbol
_atom_site_fract_x
_atom_site_fract_y
_atom_site_fract_z
_atom_site_charge
Gd	Gd	0.71895 0.43454 0.85846 1.56500
Gd	Gd	0.24923 0.27679 0.04843 1.44700
N 	N 	0.59910 0.41480 0.62390 -0.20500
N 	N 	0.53340 0.41373 0.40390 -0.19700
H 	H 	0.49162 0.41047 0.31994 0.16100
N 	N 	0.77450 0.50730 0.64540 -0.17800
O 	O 	0.06560 0.33787 0.11020 -0.36500
O 	O 	0.03170 0.28740 0.86720 -0.35600
O 	O 	0.83130 0.34137 0.79570 -0.33900
O 	O 	0.84940 0.38033 0.04940 -0.34700
O 	O 	0.52290 0.36023 0.81970 -0.39200
O 	O 	0.37970 0.29574 0.69200 -0.44400
O 	O 	0.27700 0.29424 0.39100 -0.45900
O 	O 	0.36750 0.33745 0.22980 -0.42200
O 	O 	0.60090 0.43641 0.05050 -0.33700
O 	O 	0.46880 0.49088 0.16320 -0.36700
O 	O 	0.97680 0.44861 0.86880 -0.37100
O 	O 	0.17820 0.48116 0.00320 -0.36600
C 	C 	0.45530 0.36923 0.44920 -0.04400
C 	C 	0.49880 0.37095 0.58840 -0.03500
C 	C 	0.61740 0.43997 0.51090 0.13000
C 	C 	0.72190 0.48852 0.51690 0.05200
C 	C 	0.76160 0.51290 0.40480 -0.11500
H 	H 	0.72376 0.49845 0.31851 0.09400
C 	C 	0.86030 0.55980 0.42490 0.04700
H 	H 	0.89043 0.57724 0.35241 0.02200
C 	C 	0.91140 0.57940 0.55490 -0.13400
H 	H 	0.97565 0.61108 0.57093 0.08600
C 	C 	0.86810 0.55240 0.66100 0.09400
H 	H 	0.90559 0.56613 0.74800 0.01500
C 	C 	0.35850 0.33058 0.35060 0.39400
C 	C 	0.46280 0.33865 0.70540 0.37300
C 	C 	0.51980 0.47909 0.06180 0.25200
C 	C 	0.04460 0.47944 0.96230 0.26000
C 	C 	0.95230 0.34939 0.02730 0.25000
C 	C 	0.93590 0.32359 0.88390 0.23400
Gd	Gd	0.28105 0.93454 0.64154 1.56100
Gd	Gd	0.75077 0.77679 0.45157 1.45000
N 	N 	0.40090 0.91480 0.87610 -0.20600
N 	N 	0.46660 0.91373 0.09610 -0.19700
H 	H 	0.50838 0.91047 0.18006 0.16100
N 	N 	0.22550 0.00730 0.85460 -0.17500
O 	O 	0.93440 0.83787 0.38980 -0.36200
O 	O 	0.96830 0.78740 0.63280 -0.36000
O 	O 	0.16870 0.84137 0.70430 -0.33900
O 	O 	0.15060 0.88033 0.45060 -0.34600
O 	O 	0.47710 0.86023 0.68030 -0.39200
O 	O 	0.62030 0.79574 0.80800 -0.44500
O 	O 	0.72300 0.79424 0.10900 -0.45700
O 	O 	0.63250 0.83745 0.27020 -0.42200
O 	O 	0.39910 0.93641 0.44950 -0.33700
O 	O 	0.53120 0.99088 0.33680 -0.36700
O 	O 	0.02320 0.94861 0.63120 -0.37000
O 	O 	0.82180 0.98116 0.49680 -0.36400
C 	C 	0.54470 0.86923 0.05080 -0.04100
C 	C 	0.50120 0.87095 0.91160 -0.03800
C 	C 	0.38260 0.93997 0.98910 0.12900
C 	C 	0.27810 0.98852 0.98310 0.04800
C 	C 	0.23840 0.01290 0.09520 -0.11200
H 	H 	0.27624 0.99845 0.18149 0.09300
C 	C 	0.13970 0.05980 0.07510 0.03600
H 	H 	0.10957 0.07724 0.14759 0.02500
C 	C 	0.08860 0.07940 0.94510 -0.12100
H 	H 	0.02435 0.11108 0.92907 0.08300
C 	C 	0.13190 0.05240 0.83900 0.08900
H 	H 	0.09441 0.06613 0.75200 0.01800
C 	C 	0.64150 0.83058 0.14940 0.39200
C 	C 	0.53720 0.83865 0.79460 0.37400
C 	C 	0.48020 0.97909 0.43820 0.25100
C 	C 	0.95540 0.97944 0.53770 0.25700
C 	C 	0.04770 0.84939 0.47270 0.24500
C 	C 	0.06410 0.82359 0.61610 0.23800
Gd	Gd	0.28105 0.56546 0.14154 1.56400
Gd	Gd	0.75077 0.72321 0.95157 1.44600
N 	N 	0.40090 0.58520 0.37610 -0.20600
N 	N 	0.46660 0.58627 0.59610 -0.19800
H 	H 	0.50838 0.58953 0.68006 0.16100
N 	N 	0.22550 0.49270 0.35460 -0.17800
O 	O 	0.93440 0.66213 0.88980 -0.36500
O 	O 	0.96830 0.71260 0.13280 -0.35600
O 	O 	0.16870 0.65863 0.20430 -0.33900
O 	O 	0.15060 0.61967 0.95060 -0.34700
O 	O 	0.47710 0.63977 0.18030 -0.39200
O 	O 	0.62030 0.70426 0.30800 -0.44400
O 	O 	0.72300 0.70576 0.60900 -0.45900
O 	O 	0.63250 0.66255 0.77020 -0.42200
O 	O 	0.39910 0.56359 0.94950 -0.33700
O 	O 	0.53120 0.50912 0.83680 -0.36700
O 	O 	0.02320 0.55139 0.13120 -0.37100
O 	O 	0.82180 0.51884 0.99680 -0.36600
C 	C 	0.54470 0.63077 0.55080 -0.04400
C 	C 	0.50120 0.62905 0.41160 -0.03500
C 	C 	0.38260 0.56003 0.48910 0.13000
C 	C 	0.27810 0.51148 0.48310 0.05200
C 	C 	0.23840 0.48710 0.59520 -0.11500
H 	H 	0.27624 0.50155 0.68149 0.09400
C 	C 	0.13970 0.44020 0.57510 0.04700
H 	H 	0.10957 0.42276 0.64759 0.02200
C 	C 	0.08860 0.42060 0.44510 -0.13400
H 	H 	0.02435 0.38892 0.42907 0.08600
C 	C 	0.13190 0.44760 0.33900 0.09400
H 	H 	0.09441 0.43387 0.25200 0.01500
C 	C 	0.64150 0.66942 0.64940 0.39400
C 	C 	0.53720 0.66135 0.29460 0.37300
C 	C 	0.48020 0.52091 0.93820 0.25200
C 	C 	0.95540 0.52056 0.03770 0.26000
C 	C 	0.04770 0.65061 0.97270 0.25000
C 	C 	0.06410 0.67641 0.11610 0.23400
Gd	Gd	0.71895 0.06546 0.35846 1.56100
Gd	Gd	0.24923 0.22321 0.54843 1.45000
N 	N 	0.59910 0.08520 0.12390 -0.20600
N 	N 	0.53340 0.08627 0.90390 -0.19700
H 	H 	0.49162 0.08953 0.81994 0.16100
N 	N 	0.77450 0.99270 0.14540 -0.17500
O 	O 	0.06560 0.16213 0.61020 -0.36200
O 	O 	0.03170 0.21260 0.36720 -0.36000
O 	O 	0.83130 0.15863 0.29570 -0.33900
O 	O 	0.84940 0.11967 0.54940 -0.34600
O 	O 	0.52290 0.13977 0.31970 -0.39200
O 	O 	0.37970 0.20426 0.19200 -0.44500
O 	O 	0.27700 0.20576 0.89100 -0.45700
O 	O 	0.36750 0.16255 0.72980 -0.42200
O 	O 	0.60090 0.06359 0.55050 -0.33700
O 	O 	0.46880 0.00912 0.66320 -0.36700
O 	O 	0.97680 0.05139 0.36880 -0.37000
O 	O 	0.17820 0.01884 0.50320 -0.36400
C 	C 	0.45530 0.13077 0.94920 -0.04100
C 	C 	0.49880 0.12905 0.08840 -0.03800
C 	C 	0.61740 0.06003 0.01090 0.12900
C 	C 	0.72190 0.01148 0.01690 0.04800
C 	C 	0.76160 0.98710 0.90480 -0.11200
H 	H 	0.72376 0.00155 0.81851 0.09300
C 	C 	0.86030 0.94020 0.92490 0.03600
H 	H 	0.89043 0.92276 0.85241 0.02500
C 	C 	0.91140 0.92060 0.05490 -0.12100
H 	H 	0.97565 0.88892 0.07093 0.08300
C 	C 	0.86810 0.94760 0.16100 0.08900
H 	H 	0.90559 0.93387 0.24800 0.01800
C 	C 	0.35850 0.16942 0.85060 0.39200
C 	C 	0.46280 0.16135 0.20540 0.37400
C 	C 	0.51980 0.02091 0.56180 0.25100
C 	C 	0.04460 0.02056 0.46230 0.25700
C 	C 	0.95230 0.15061 0.52730 0.24500
C 	C 	0.93590 0.17641 0.38390 0.23800
