data_crystal

_cell_length_a 9.49160
_cell_length_b 22.41310
_cell_length_c 10.10840
_cell_angle_alpha 90.00000
_cell_angle_beta  102.50000
_cell_angle_gamma 90.00000

_symmetry_space_group_name_	'P 1'
_symmetry_space_group_name_H-M	'P 1'

loop_
_symmetry_equiv_pos_as_xyz
  x,y,z

loop_
_atom_site_label
_atom_site_type_symbol
_atom_site_fract_x
_atom_site_fract_y
_atom_site_fract_z
_atom_site_charge
Tb	Tb	0.71840 0.43434 0.85995 1.85200
Tb	Tb	0.24869 0.27656 0.04949 1.69800
N 	N 	0.59950 0.41505 0.62610 -0.22700
N 	N 	0.53270 0.41333 0.40470 -0.19800
H 	H 	0.52723 0.42256 0.32118 0.15600
N 	N 	0.77500 0.50784 0.64610 -0.19200
O 	O 	0.06640 0.33749 0.11130 -0.41000
O 	O 	0.03120 0.28688 0.86830 -0.39600
O 	O 	0.82950 0.34106 0.79660 -0.37600
O 	O 	0.85070 0.38060 0.05040 -0.39100
O 	O 	0.52300 0.36048 0.82180 -0.44100
O 	O 	0.37940 0.29552 0.69350 -0.50000
O 	O 	0.27560 0.29407 0.39280 -0.51900
O 	O 	0.36630 0.33668 0.23100 -0.46600
O 	O 	0.60170 0.43646 0.05210 -0.37800
O 	O 	0.46900 0.49137 0.16340 -0.41100
O 	O 	0.97600 0.44801 0.86970 -0.40900
O 	O 	0.17850 0.48189 0.00200 -0.40700
C 	C 	0.45500 0.36906 0.45070 -0.03300
C 	C 	0.49900 0.37105 0.59010 -0.05400
C 	C 	0.61840 0.43977 0.51190 0.11800
C 	C 	0.72150 0.48878 0.51740 0.04900
C 	C 	0.76350 0.51230 0.40550 -0.12100
H 	H 	0.72747 0.49715 0.31908 0.08900
C 	C 	0.86170 0.55950 0.42650 0.05200
H 	H 	0.89227 0.57687 0.35401 0.01400
C 	C 	0.91250 0.57990 0.55650 -0.14600
H 	H 	0.97602 0.61198 0.57268 0.08400
C 	C 	0.86900 0.55250 0.66150 0.10600
H 	H 	0.90732 0.56601 0.74895 0.00600
C 	C 	0.35720 0.33021 0.35200 0.42300
C 	C 	0.46200 0.33872 0.70680 0.40000
C 	C 	0.52020 0.47895 0.06170 0.26000
C 	C 	0.04420 0.47999 0.96200 0.26800
C 	C 	0.95260 0.34885 0.02920 0.26800
C 	C 	0.93510 0.32319 0.88440 0.23700
Tb	Tb	0.28160 0.93434 0.64005 1.84700
Tb	Tb	0.75131 0.77656 0.45051 1.70200
N 	N 	0.40050 0.91505 0.87390 -0.22700
N 	N 	0.46730 0.91333 0.09530 -0.19900
H 	H 	0.47277 0.92256 0.17882 0.15500
N 	N 	0.22500 0.00784 0.85390 -0.18900
O 	O 	0.93360 0.83749 0.38870 -0.40700
O 	O 	0.96880 0.78688 0.63170 -0.40200
O 	O 	0.17050 0.84106 0.70340 -0.37700
O 	O 	0.14930 0.88060 0.44960 -0.39000
O 	O 	0.47700 0.86048 0.67820 -0.44200
O 	O 	0.62060 0.79552 0.80650 -0.50100
O 	O 	0.72440 0.79407 0.10720 -0.51600
O 	O 	0.63370 0.83668 0.26900 -0.46600
O 	O 	0.39830 0.93646 0.44790 -0.37800
O 	O 	0.53100 0.99137 0.33660 -0.41100
O 	O 	0.02400 0.94801 0.63030 -0.40800
O 	O 	0.82150 0.98189 0.49800 -0.40500
C 	C 	0.54500 0.86906 0.04930 -0.02900
C 	C 	0.50100 0.87105 0.90990 -0.05800
C 	C 	0.38160 0.93977 0.98810 0.11700
C 	C 	0.27850 0.98878 0.98260 0.04500
C 	C 	0.23650 0.01230 0.09450 -0.11700
H 	H 	0.27253 0.99715 0.18092 0.08800
C 	C 	0.13830 0.05950 0.07350 0.03900
H 	H 	0.10773 0.07687 0.14599 0.01800
C 	C 	0.08750 0.07990 0.94350 -0.13100
H 	H 	0.02398 0.11198 0.92732 0.08100
C 	C 	0.13100 0.05250 0.83850 0.10000
H 	H 	0.09268 0.06601 0.75105 0.00900
C 	C 	0.64280 0.83021 0.14800 0.42200
C 	C 	0.53800 0.83872 0.79320 0.40100
C 	C 	0.47980 0.97895 0.43830 0.26000
C 	C 	0.95580 0.97999 0.53800 0.26400
C 	C 	0.04740 0.84885 0.47080 0.26200
C 	C 	0.06490 0.82319 0.61560 0.24200
Tb	Tb	0.28160 0.56566 0.14005 1.85100
Tb	Tb	0.75131 0.72344 0.95051 1.69700
N 	N 	0.40050 0.58495 0.37390 -0.22800
N 	N 	0.46730 0.58667 0.59530 -0.19900
H 	H 	0.47277 0.57744 0.67882 0.15500
N 	N 	0.22500 0.49216 0.35390 -0.19300
O 	O 	0.93360 0.66251 0.88870 -0.41100
O 	O 	0.96880 0.71312 0.13170 -0.39700
O 	O 	0.17050 0.65894 0.20340 -0.37600
O 	O 	0.14930 0.61940 0.94960 -0.39100
O 	O 	0.47700 0.63952 0.17820 -0.44100
O 	O 	0.62060 0.70448 0.30650 -0.50000
O 	O 	0.72440 0.70593 0.60720 -0.51900
O 	O 	0.63370 0.66332 0.76900 -0.46600
O 	O 	0.39830 0.56354 0.94790 -0.37800
O 	O 	0.53100 0.50863 0.83660 -0.41100
O 	O 	0.02400 0.55199 0.13030 -0.40900
O 	O 	0.82150 0.51811 0.99800 -0.40700
C 	C 	0.54500 0.63094 0.54930 -0.03300
C 	C 	0.50100 0.62895 0.40990 -0.05400
C 	C 	0.38160 0.56023 0.48810 0.11800
C 	C 	0.27850 0.51122 0.48260 0.04900
C 	C 	0.23650 0.48770 0.59450 -0.12100
H 	H 	0.27253 0.50285 0.68092 0.08900
C 	C 	0.13830 0.44050 0.57350 0.05200
H 	H 	0.10773 0.42313 0.64599 0.01400
C 	C 	0.08750 0.42010 0.44350 -0.14600
H 	H 	0.02398 0.38802 0.42732 0.08400
C 	C 	0.13100 0.44750 0.33850 0.10600
H 	H 	0.09268 0.43399 0.25105 0.00600
C 	C 	0.64280 0.66979 0.64800 0.42300
C 	C 	0.53800 0.66128 0.29320 0.40000
C 	C 	0.47980 0.52105 0.93830 0.26000
C 	C 	0.95580 0.52001 0.03800 0.26800
C 	C 	0.04740 0.65115 0.97080 0.26800
C 	C 	0.06490 0.67681 0.11560 0.23700
Tb	Tb	0.71840 0.06566 0.35995 1.84700
Tb	Tb	0.24869 0.22344 0.54949 1.70200
N 	N 	0.59950 0.08495 0.12610 -0.22700
N 	N 	0.53270 0.08667 0.90470 -0.19900
H 	H 	0.52723 0.07744 0.82118 0.15500
N 	N 	0.77500 0.99216 0.14610 -0.18900
O 	O 	0.06640 0.16251 0.61130 -0.40700
O 	O 	0.03120 0.21312 0.36830 -0.40200
O 	O 	0.82950 0.15894 0.29660 -0.37700
O 	O 	0.85070 0.11940 0.55040 -0.39000
O 	O 	0.52300 0.13952 0.32180 -0.44200
O 	O 	0.37940 0.20448 0.19350 -0.50100
O 	O 	0.27560 0.20593 0.89280 -0.51600
O 	O 	0.36630 0.16332 0.73100 -0.46600
O 	O 	0.60170 0.06354 0.55210 -0.37800
O 	O 	0.46900 0.00863 0.66340 -0.41100
O 	O 	0.97600 0.05199 0.36970 -0.40800
O 	O 	0.17850 0.01811 0.50200 -0.40500
C 	C 	0.45500 0.13094 0.95070 -0.02900
C 	C 	0.49900 0.12895 0.09010 -0.05800
C 	C 	0.61840 0.06023 0.01190 0.11700
C 	C 	0.72150 0.01122 0.01740 0.04500
C 	C 	0.76350 0.98770 0.90550 -0.11700
H 	H 	0.72747 0.00285 0.81908 0.08800
C 	C 	0.86170 0.94050 0.92650 0.03900
H 	H 	0.89227 0.92313 0.85401 0.01800
C 	C 	0.91250 0.92010 0.05650 -0.13100
H 	H 	0.97602 0.88802 0.07268 0.08100
C 	C 	0.86900 0.94750 0.16150 0.10000
H 	H 	0.90732 0.93399 0.24895 0.00900
C 	C 	0.35720 0.16979 0.85200 0.42200
C 	C 	0.46200 0.16128 0.20680 0.40100
C 	C 	0.52020 0.02105 0.56170 0.26000
C 	C 	0.04420 0.02001 0.46200 0.26400
C 	C 	0.95260 0.15115 0.52920 0.26200
C 	C 	0.93510 0.17681 0.38440 0.24200
