data_crystal

_cell_length_a 10.21200
_cell_length_b 21.28800
_cell_length_c 7.90500
_cell_angle_alpha 90.00000
_cell_angle_beta  98.85100
_cell_angle_gamma 90.00000

_symmetry_space_group_name_	'P 1'
_symmetry_space_group_name_H-M	'P 1'

loop_
_symmetry_equiv_pos_as_xyz
  x,y,z

loop_
_atom_site_label
_atom_site_type_symbol
_atom_site_fract_x
_atom_site_fract_y
_atom_site_fract_z
_atom_site_charge
Pr	Pr	0.01055 0.21505 0.00493 2.07900
O 	O 	0.87090 0.24050 0.24850 -0.56900
O 	O 	0.24640 0.31010 0.47030 -0.38200
O 	O 	0.77550 0.18380 0.03380 -0.37000
F 	F 	0.58940 0.12270 0.24160 -0.31000
C 	C 	0.76910 0.21670 0.16170 0.48700
O 	O 	0.15220 0.24200 0.28290 -0.56700
F 	F 	0.66600 0.33880 0.17750 -0.35000
C 	C 	0.25290 0.27200 0.35700 0.48000
O 	O 	0.98980 0.13280 0.79110 -0.44400
F 	F 	0.43190 0.36440 0.27250 -0.30200
F 	F 	0.35630 0.14780 0.33780 -0.34100
F 	F 	0.23020 0.05900 0.61230 -0.32200
C 	C 	0.63630 0.23010 0.21160 -0.23300
C 	C 	0.55200 0.18290 0.25030 0.31800
C 	C 	0.00030 0.06020 0.56670 -0.23400
C 	C 	0.38740 0.25660 0.30600 -0.22400
C 	C 	0.00070 0.12720 0.63640 0.55400
C 	C 	0.43100 0.19630 0.29480 0.28700
C 	C 	0.59110 0.29200 0.22160 0.29600
O 	O 	0.01450 0.16980 0.53070 -0.46900
C 	C 	0.11750 0.02960 0.55780 0.30700
F 	F 	0.76930 0.05920 0.51550 -0.31400
C 	C 	0.88310 0.02990 0.50840 0.32000
C 	C 	0.47060 0.30360 0.26760 0.29100
Pr	Pr	0.98945 0.71505 0.49507 2.08700
O 	O 	0.12910 0.74050 0.25150 -0.57000
O 	O 	0.75360 0.81010 0.02970 -0.37700
O 	O 	0.22450 0.68380 0.46620 -0.37100
F 	F 	0.41060 0.62270 0.25840 -0.31000
C 	C 	0.23090 0.71670 0.33830 0.48700
O 	O 	0.84780 0.74200 0.21710 -0.56100
F 	F 	0.33400 0.83880 0.32250 -0.35000
C 	C 	0.74710 0.77200 0.14300 0.47900
O 	O 	0.01020 0.63280 0.70890 -0.43800
F 	F 	0.56810 0.86440 0.22750 -0.30100
F 	F 	0.64370 0.64780 0.16220 -0.33800
F 	F 	0.76980 0.55900 0.88770 -0.32300
C 	C 	0.36370 0.73010 0.28840 -0.23300
C 	C 	0.44800 0.68290 0.24970 0.32000
C 	C 	0.99970 0.56020 0.93330 -0.23700
C 	C 	0.61260 0.75660 0.19400 -0.22100
C 	C 	0.99930 0.62720 0.86360 0.54800
C 	C 	0.56900 0.69630 0.20520 0.28800
C 	C 	0.40890 0.79200 0.27840 0.29700
O 	O 	0.98550 0.66980 0.96930 -0.47300
C 	C 	0.88250 0.52960 0.94220 0.30600
F 	F 	0.23070 0.55920 0.98450 -0.31500
C 	C 	0.11690 0.52990 0.99160 0.32600
C 	C 	0.52940 0.80360 0.23240 0.29100
Pr	Pr	0.98945 0.78495 0.99507 2.08000
O 	O 	0.12910 0.75950 0.75150 -0.56800
O 	O 	0.75360 0.68990 0.52970 -0.38200
O 	O 	0.22450 0.81620 0.96620 -0.37000
F 	F 	0.41060 0.87730 0.75840 -0.31000
C 	C 	0.23090 0.78330 0.83830 0.48700
O 	O 	0.84780 0.75800 0.71710 -0.56700
F 	F 	0.33400 0.66120 0.82250 -0.35000
C 	C 	0.74710 0.72800 0.64300 0.48000
O 	O 	0.01020 0.86720 0.20890 -0.44400
F 	F 	0.56810 0.63560 0.72750 -0.30200
F 	F 	0.64370 0.85220 0.66220 -0.34100
F 	F 	0.76980 0.94100 0.38770 -0.32200
C 	C 	0.36370 0.76990 0.78840 -0.23300
C 	C 	0.44800 0.81710 0.74970 0.31800
C 	C 	0.99970 0.93980 0.43330 -0.23400
C 	C 	0.61260 0.74340 0.69400 -0.22400
C 	C 	0.99930 0.87280 0.36360 0.55400
C 	C 	0.56900 0.80370 0.70520 0.28700
C 	C 	0.40890 0.70800 0.77840 0.29600
O 	O 	0.98550 0.83020 0.46930 -0.46900
C 	C 	0.88250 0.97040 0.44220 0.30700
F 	F 	0.23070 0.94080 0.48450 -0.31400
C 	C 	0.11690 0.97010 0.49160 0.32000
C 	C 	0.52940 0.69640 0.73240 0.29100
Pr	Pr	0.01055 0.28495 0.50493 2.08700
O 	O 	0.87090 0.25950 0.74850 -0.57000
O 	O 	0.24640 0.18990 0.97030 -0.37700
O 	O 	0.77550 0.31620 0.53380 -0.37100
F 	F 	0.58940 0.37730 0.74160 -0.31000
C 	C 	0.76910 0.28330 0.66170 0.48700
O 	O 	0.15220 0.25800 0.78290 -0.56100
F 	F 	0.66600 0.16120 0.67750 -0.35000
C 	C 	0.25290 0.22800 0.85700 0.47900
O 	O 	0.98980 0.36720 0.29110 -0.43800
F 	F 	0.43190 0.13560 0.77250 -0.30100
F 	F 	0.35630 0.35220 0.83780 -0.33800
F 	F 	0.23020 0.44100 0.11230 -0.32300
C 	C 	0.63630 0.26990 0.71160 -0.23300
C 	C 	0.55200 0.31710 0.75030 0.32000
C 	C 	0.00030 0.43980 0.06670 -0.23700
C 	C 	0.38740 0.24340 0.80600 -0.22100
C 	C 	0.00070 0.37280 0.13640 0.54800
C 	C 	0.43100 0.30370 0.79480 0.28800
C 	C 	0.59110 0.20800 0.72160 0.29700
O 	O 	0.01450 0.33020 0.03070 -0.47300
C 	C 	0.11750 0.47040 0.05780 0.30600
F 	F 	0.76930 0.44080 0.01550 -0.31500
C 	C 	0.88310 0.47010 0.00840 0.32600
C 	C 	0.47060 0.19640 0.76760 0.29100
