data_crystal

_cell_length_a 9.59400
_cell_length_b 22.78900
_cell_length_c 10.14600
_cell_angle_alpha 90.00000
_cell_angle_beta  101.32000
_cell_angle_gamma 90.00000

_symmetry_space_group_name_	'P 1'
_symmetry_space_group_name_H-M	'P 1'

loop_
_symmetry_equiv_pos_as_xyz
  x,y,z

loop_
_atom_site_label
_atom_site_type_symbol
_atom_site_fract_x
_atom_site_fract_y
_atom_site_fract_z
_atom_site_charge
Nd	Nd	0.25464 0.27797 0.03910 1.98600
Nd	Nd	0.71997 0.43537 0.85184 2.22600
N 	N 	0.59760 0.41577 0.61560 -0.25500
N 	N 	0.53390 0.41565 0.39530 -0.20100
H 	H 	0.51980 0.42750 0.31340 0.15300
N 	N 	0.77200 0.50723 0.63840 -0.21500
O 	O 	0.06800 0.34014 0.10130 -0.44400
O 	O 	0.03830 0.29070 0.85670 -0.44300
O 	O 	0.83700 0.34288 0.78710 -0.42200
O 	O 	0.84950 0.37893 0.04370 -0.42700
O 	O 	0.52230 0.36028 0.81170 -0.48900
O 	O 	0.37880 0.29698 0.68330 -0.55100
O 	O 	0.28220 0.29621 0.38150 -0.56400
O 	O 	0.37400 0.34038 0.22160 -0.50400
O 	O 	0.59800 0.43609 0.04510 -0.43100
O 	O 	0.47090 0.48992 0.16420 -0.45300
O 	O 	0.98010 0.45067 0.86580 -0.45300
O 	O 	0.17820 0.48015 0.00660 -0.44700
C 	C 	0.45710 0.37123 0.44200 -0.03800
C 	C 	0.49830 0.37218 0.58030 -0.06800
C 	C 	0.61750 0.44125 0.50370 0.11200
C 	C 	0.71950 0.48964 0.50980 0.03400
C 	C 	0.76070 0.51467 0.39810 -0.09900
H 	H 	0.72410 0.50050 0.31010 0.07200
C 	C 	0.85750 0.56132 0.41920 0.02200
H 	H 	0.88810 0.57950 0.34550 0.01500
C 	C 	0.90770 0.58043 0.54900 -0.11600
H 	H 	0.97180 0.61260 0.56530 0.06000
C 	C 	0.86410 0.55237 0.65580 0.08200
H 	H 	0.90080 0.56560 0.74460 0.00200
C 	C 	0.36320 0.33302 0.34180 0.42100
C 	C 	0.46170 0.33953 0.69630 0.40300
C 	C 	0.52020 0.47836 0.06050 0.26600
C 	C 	0.04520 0.47999 0.96170 0.27000
C 	C 	0.95420 0.34982 0.02040 0.25900
C 	C 	0.94100 0.32542 0.87500 0.23600
Nd	Nd	0.74536 0.77797 0.46090 1.99200
Nd	Nd	0.28003 0.93537 0.64816 2.22100
N 	N 	0.40240 0.91577 0.88440 -0.25400
N 	N 	0.46610 0.91565 0.10470 -0.20100
H 	H 	0.48020 0.92750 0.18660 0.15400
N 	N 	0.22800 0.00723 0.86160 -0.21000
O 	O 	0.93200 0.84014 0.39870 -0.43900
O 	O 	0.96170 0.79070 0.64330 -0.44900
O 	O 	0.16300 0.84288 0.71290 -0.42300
O 	O 	0.15050 0.87893 0.45630 -0.42600
O 	O 	0.47770 0.86028 0.68830 -0.48900
O 	O 	0.62120 0.79698 0.81670 -0.55200
O 	O 	0.71780 0.79621 0.11850 -0.56100
O 	O 	0.62600 0.84038 0.27840 -0.50400
O 	O 	0.40200 0.93609 0.45490 -0.43100
O 	O 	0.52910 0.98992 0.33580 -0.45200
O 	O 	0.01990 0.95067 0.63420 -0.45100
O 	O 	0.82180 0.98015 0.49340 -0.44400
C 	C 	0.54290 0.87123 0.05800 -0.03300
C 	C 	0.50170 0.87218 0.91970 -0.07200
C 	C 	0.38250 0.94125 0.99630 0.11200
C 	C 	0.28050 0.98964 0.99020 0.02900
C 	C 	0.23930 0.01467 0.10190 -0.09300
H 	H 	0.27590 0.00050 0.18990 0.06900
C 	C 	0.14250 0.06132 0.08080 0.00700
H 	H 	0.11190 0.07950 0.15450 0.01900
C 	C 	0.09230 0.08043 0.95100 -0.10000
H 	H 	0.02820 0.11260 0.93470 0.05700
C 	C 	0.13590 0.05237 0.84420 0.07600
H 	H 	0.09920 0.06560 0.75540 0.00500
C 	C 	0.63680 0.83302 0.15820 0.41900
C 	C 	0.53830 0.83953 0.80370 0.40400
C 	C 	0.47980 0.97836 0.43950 0.26500
C 	C 	0.95480 0.97999 0.53830 0.26500
C 	C 	0.04580 0.84982 0.47960 0.25000
C 	C 	0.05900 0.82542 0.62500 0.24200
Nd	Nd	0.74536 0.72203 0.96090 1.98500
Nd	Nd	0.28003 0.56463 0.14816 2.22500
N 	N 	0.40240 0.58423 0.38440 -0.25500
N 	N 	0.46610 0.58435 0.60470 -0.20100
H 	H 	0.48020 0.57250 0.68660 0.15300
N 	N 	0.22800 0.49277 0.36160 -0.21500
O 	O 	0.93200 0.65986 0.89870 -0.44400
O 	O 	0.96170 0.70930 0.14330 -0.44300
O 	O 	0.16300 0.65712 0.21290 -0.42200
O 	O 	0.15050 0.62107 0.95630 -0.42700
O 	O 	0.47770 0.63972 0.18830 -0.48900
O 	O 	0.62120 0.70302 0.31670 -0.55100
O 	O 	0.71780 0.70379 0.61850 -0.56400
O 	O 	0.62600 0.65962 0.77840 -0.50400
O 	O 	0.40200 0.56391 0.95490 -0.43100
O 	O 	0.52910 0.51008 0.83580 -0.45300
O 	O 	0.01990 0.54933 0.13420 -0.45300
O 	O 	0.82180 0.51985 0.99340 -0.44700
C 	C 	0.54290 0.62877 0.55800 -0.03800
C 	C 	0.50170 0.62782 0.41970 -0.06800
C 	C 	0.38250 0.55875 0.49630 0.11200
C 	C 	0.28050 0.51036 0.49020 0.03400
C 	C 	0.23930 0.48533 0.60190 -0.09900
H 	H 	0.27590 0.49950 0.68990 0.07200
C 	C 	0.14250 0.43868 0.58080 0.02200
H 	H 	0.11190 0.42050 0.65450 0.01500
C 	C 	0.09230 0.41957 0.45100 -0.11600
H 	H 	0.02820 0.38740 0.43470 0.06000
C 	C 	0.13590 0.44763 0.34420 0.08200
H 	H 	0.09920 0.43440 0.25540 0.00200
C 	C 	0.63680 0.66698 0.65820 0.42100
C 	C 	0.53830 0.66047 0.30370 0.40300
C 	C 	0.47980 0.52164 0.93950 0.26600
C 	C 	0.95480 0.52001 0.03830 0.27000
C 	C 	0.04580 0.65018 0.97960 0.25900
C 	C 	0.05900 0.67458 0.12500 0.23600
Nd	Nd	0.25464 0.22203 0.53910 1.99200
Nd	Nd	0.71997 0.06463 0.35184 2.22100
N 	N 	0.59760 0.08423 0.11560 -0.25400
N 	N 	0.53390 0.08435 0.89530 -0.20100
H 	H 	0.51980 0.07250 0.81340 0.15400
N 	N 	0.77200 0.99277 0.13840 -0.21000
O 	O 	0.06800 0.15986 0.60130 -0.43900
O 	O 	0.03830 0.20930 0.35670 -0.44900
O 	O 	0.83700 0.15712 0.28710 -0.42300
O 	O 	0.84950 0.12107 0.54370 -0.42600
O 	O 	0.52230 0.13972 0.31170 -0.48900
O 	O 	0.37880 0.20302 0.18330 -0.55200
O 	O 	0.28220 0.20379 0.88150 -0.56100
O 	O 	0.37400 0.15962 0.72160 -0.50400
O 	O 	0.59800 0.06391 0.54510 -0.43100
O 	O 	0.47090 0.01008 0.66420 -0.45200
O 	O 	0.98010 0.04933 0.36580 -0.45100
O 	O 	0.17820 0.01985 0.50660 -0.44400
C 	C 	0.45710 0.12877 0.94200 -0.03300
C 	C 	0.49830 0.12782 0.08030 -0.07200
C 	C 	0.61750 0.05875 0.00370 0.11200
C 	C 	0.71950 0.01036 0.00980 0.02900
C 	C 	0.76070 0.98533 0.89810 -0.09300
H 	H 	0.72410 0.99950 0.81010 0.06900
C 	C 	0.85750 0.93868 0.91920 0.00700
H 	H 	0.88810 0.92050 0.84550 0.01900
C 	C 	0.90770 0.91957 0.04900 -0.10000
H 	H 	0.97180 0.88740 0.06530 0.05700
C 	C 	0.86410 0.94763 0.15580 0.07600
H 	H 	0.90080 0.93440 0.24460 0.00500
C 	C 	0.36320 0.16698 0.84180 0.41900
C 	C 	0.46170 0.16047 0.19630 0.40400
C 	C 	0.52020 0.02164 0.56050 0.26500
C 	C 	0.04520 0.02001 0.46170 0.26500
C 	C 	0.95420 0.15018 0.52040 0.25000
C 	C 	0.94100 0.17458 0.37500 0.24200
