data_crystal

_cell_length_a 12.62200
_cell_length_b 8.11570
_cell_length_c 23.63400
_cell_angle_alpha 90.00000
_cell_angle_beta  105.34000
_cell_angle_gamma 90.00000

_symmetry_space_group_name_	'P 1'
_symmetry_space_group_name_H-M	'P 1'

loop_
_symmetry_equiv_pos_as_xyz
  x,y,z

loop_
_atom_site_label
_atom_site_type_symbol
_atom_site_fract_x
_atom_site_fract_y
_atom_site_fract_z
_atom_site_charge
Bi	Bi	0.40646 0.17291 0.13163 1.84500
Sm	Sm	0.09413 0.99898 0.88543 1.80100
O 	O 	0.33050 0.09240 0.02658 -0.52300
O 	O 	0.21080 0.90480 0.97881 -0.47700
O 	O 	0.59360 0.10090 0.16033 -0.52600
O 	O 	0.72340 0.98750 0.12525 -0.50100
O 	O 	0.48920 0.29910 0.22986 -0.52000
O 	O 	0.54870 0.25920 0.32678 -0.50800
O 	O 	0.22120 0.07040 0.12060 -0.53100
O 	O 	0.09560 0.04570 0.17155 -0.49200
N 	N 	0.44000 0.88050 0.10891 -0.13300
N 	N 	0.38730 0.99930 0.21460 -0.12700
C 	C 	0.34650 0.81490 0.06240 -0.33600
H 	H 	0.29160 0.76670 0.08070 0.10300
H 	H 	0.37320 0.72600 0.04100 0.11300
C 	C 	0.29220 0.94750 0.01937 0.44000
C 	C 	0.54110 0.88870 0.08854 -0.38200
H 	H 	0.52270 0.93130 0.04790 0.11200
H 	H 	0.57160 0.77630 0.08830 0.13100
C 	C 	0.62720 0.99890 0.12751 0.47800
C 	C 	0.46060 0.77840 0.16322 -0.08800
H 	H 	0.53670 0.79680 0.18730 0.04400
H 	H 	0.45280 0.66030 0.15240 0.01600
C 	C 	0.38040 0.82200 0.19889 -0.10700
H 	H 	0.30470 0.79560 0.17590 0.03500
H 	H 	0.39700 0.75480 0.23510 0.05200
C 	C 	0.47800 0.02890 0.26754 -0.39800
H 	H 	0.54350 0.96600 0.26450 0.15700
H 	H 	0.45640 0.98860 0.30240 0.15900
C 	C 	0.50690 0.21040 0.27532 0.48900
C 	C 	0.28240 0.05390 0.22539 -0.36000
H 	H 	0.29150 0.16560 0.24290 0.09200
H 	H 	0.26160 0.97800 0.25340 0.11600
C 	C 	0.19200 0.05640 0.16790 0.42900
N 	N 	0.56710 0.84110 0.42340 0.99800
O 	O 	0.61290 0.81500 0.38340 -0.01600
O 	O 	0.50860 0.72800 0.43460 -1.46600
O 	O 	0.57590 0.97320 0.44880 -4.46300
O 	O 	0.13780 0.70100 0.88290 -0.16400
O 	O 	0.98800 0.82820 0.94500 0.32100
O 	O 	0.54840 0.00100 0.46110 3.84700
Bi	Bi	0.09354 0.67291 0.36837 1.84400
Sm	Sm	0.40587 0.49898 0.61457 1.78400
O 	O 	0.16950 0.59240 0.47342 -0.53000
O 	O 	0.28920 0.40480 0.52119 -0.48300
O 	O 	0.90640 0.60090 0.33967 -0.51300
O 	O 	0.77660 0.48750 0.37475 -0.49600
O 	O 	0.01080 0.79910 0.27014 -0.52400
O 	O 	0.95130 0.75920 0.17322 -0.50500
O 	O 	0.27880 0.57040 0.37940 -0.56500
O 	O 	0.40440 0.54570 0.32845 -0.50400
N 	N 	0.06000 0.38050 0.39109 -0.13400
N 	N 	0.11270 0.49930 0.28540 -0.13400
C 	C 	0.15350 0.31490 0.43760 -0.32900
H 	H 	0.20840 0.26670 0.41930 0.08700
H 	H 	0.12680 0.22600 0.45900 0.11800
C 	C 	0.20780 0.44750 0.48063 0.43100
C 	C 	0.95890 0.38870 0.41146 -0.38200
H 	H 	0.97730 0.43130 0.45210 0.11400
H 	H 	0.92840 0.27630 0.41170 0.13400
C 	C 	0.87280 0.49890 0.37249 0.47000
C 	C 	0.03940 0.27840 0.33678 -0.08400
H 	H 	0.96330 0.29680 0.31270 0.03900
H 	H 	0.04720 0.16030 0.34760 0.01400
C 	C 	0.11960 0.32200 0.30111 -0.10400
H 	H 	0.19530 0.29560 0.32410 0.02700
H 	H 	0.10300 0.25480 0.26490 0.05100
C 	C 	0.02200 0.52890 0.23246 -0.37300
H 	H 	0.95650 0.46600 0.23550 0.13900
H 	H 	0.04360 0.48860 0.19760 0.14900
C 	C 	0.99310 0.71040 0.22468 0.48900
C 	C 	0.21760 0.55390 0.27461 -0.35400
H 	H 	0.20850 0.66560 0.25710 0.09200
H 	H 	0.23840 0.47800 0.24660 0.11700
C 	C 	0.30800 0.55640 0.33210 0.42600
N 	N 	0.93290 0.34110 0.07660 0.48300
O 	O 	0.88710 0.31500 0.11660 -0.11200
O 	O 	0.99140 0.22800 0.06540 -0.75700
O 	O 	0.92410 0.47320 0.05120 -2.17700
O 	O 	0.36220 0.20100 0.61710 -0.26500
O 	O 	0.51200 0.32820 0.55500 0.84900
O 	O 	0.95160 0.50100 0.03890 1.80700
Bi	Bi	0.59354 0.82709 0.86837 1.84600
Sm	Sm	0.90587 0.00102 0.11457 1.80200
O 	O 	0.66950 0.90760 0.97342 -0.52300
O 	O 	0.78920 0.09520 0.02119 -0.47700
O 	O 	0.40640 0.89910 0.83967 -0.52600
O 	O 	0.27660 0.01250 0.87475 -0.50100
O 	O 	0.51080 0.70090 0.77014 -0.52000
O 	O 	0.45130 0.74080 0.67322 -0.50800
O 	O 	0.77880 0.92960 0.87940 -0.53100
O 	O 	0.90440 0.95430 0.82845 -0.49200
N 	N 	0.56000 0.11950 0.89109 -0.13300
N 	N 	0.61270 0.00070 0.78540 -0.12700
C 	C 	0.65350 0.18510 0.93760 -0.33600
H 	H 	0.70840 0.23330 0.91930 0.10300
H 	H 	0.62680 0.27400 0.95900 0.11300
C 	C 	0.70780 0.05250 0.98063 0.44000
C 	C 	0.45890 0.11130 0.91146 -0.38200
H 	H 	0.47730 0.06870 0.95210 0.11200
H 	H 	0.42840 0.22370 0.91170 0.13100
C 	C 	0.37280 0.00110 0.87249 0.47800
C 	C 	0.53940 0.22160 0.83678 -0.08800
H 	H 	0.46330 0.20320 0.81270 0.04400
H 	H 	0.54720 0.33970 0.84760 0.01600
C 	C 	0.61960 0.17800 0.80111 -0.10700
H 	H 	0.69530 0.20440 0.82410 0.03500
H 	H 	0.60300 0.24520 0.76490 0.05200
C 	C 	0.52200 0.97110 0.73246 -0.39800
H 	H 	0.45650 0.03400 0.73550 0.15700
H 	H 	0.54360 0.01140 0.69760 0.15900
C 	C 	0.49310 0.78960 0.72468 0.48900
C 	C 	0.71760 0.94610 0.77461 -0.36000
H 	H 	0.70850 0.83440 0.75710 0.09200
H 	H 	0.73840 0.02200 0.74660 0.11600
C 	C 	0.80800 0.94360 0.83210 0.42900
N 	N 	0.43290 0.15890 0.57660 0.99800
O 	O 	0.38710 0.18500 0.61660 -0.01600
O 	O 	0.49140 0.27200 0.56540 -1.46600
O 	O 	0.42410 0.02680 0.55120 -4.46300
O 	O 	0.86220 0.29900 0.11710 -0.16400
O 	O 	0.01200 0.17180 0.05500 0.32100
O 	O 	0.45160 0.99900 0.53890 3.84700
Bi	Bi	0.90646 0.32709 0.63163 1.84400
Sm	Sm	0.59413 0.50102 0.38543 1.78400
O 	O 	0.83050 0.40760 0.52658 -0.53000
O 	O 	0.71080 0.59520 0.47881 -0.48300
O 	O 	0.09360 0.39910 0.66033 -0.51300
O 	O 	0.22340 0.51250 0.62525 -0.49600
O 	O 	0.98920 0.20090 0.72986 -0.52400
O 	O 	0.04870 0.24080 0.82678 -0.50500
O 	O 	0.72120 0.42960 0.62060 -0.56500
O 	O 	0.59560 0.45430 0.67155 -0.50400
N 	N 	0.94000 0.61950 0.60891 -0.13400
N 	N 	0.88730 0.50070 0.71460 -0.13400
C 	C 	0.84650 0.68510 0.56240 -0.32900
H 	H 	0.79160 0.73330 0.58070 0.08700
H 	H 	0.87320 0.77400 0.54100 0.11800
C 	C 	0.79220 0.55250 0.51937 0.43100
C 	C 	0.04110 0.61130 0.58854 -0.38200
H 	H 	0.02270 0.56870 0.54790 0.11400
H 	H 	0.07160 0.72370 0.58830 0.13400
C 	C 	0.12720 0.50110 0.62751 0.47000
C 	C 	0.96060 0.72160 0.66322 -0.08400
H 	H 	0.03670 0.70320 0.68730 0.03900
H 	H 	0.95280 0.83970 0.65240 0.01400
C 	C 	0.88040 0.67800 0.69889 -0.10400
H 	H 	0.80470 0.70440 0.67590 0.02700
H 	H 	0.89700 0.74520 0.73510 0.05100
C 	C 	0.97800 0.47110 0.76754 -0.37300
H 	H 	0.04350 0.53400 0.76450 0.13900
H 	H 	0.95640 0.51140 0.80240 0.14900
C 	C 	0.00690 0.28960 0.77532 0.48900
C 	C 	0.78240 0.44610 0.72539 -0.35400
H 	H 	0.79150 0.33440 0.74290 0.09200
H 	H 	0.76160 0.52200 0.75340 0.11700
C 	C 	0.69200 0.44360 0.66790 0.42600
N 	N 	0.06710 0.65890 0.92340 0.48300
O 	O 	0.11290 0.68500 0.88340 -0.11200
O 	O 	0.00860 0.77200 0.93460 -0.75700
O 	O 	0.07590 0.52680 0.94880 -2.17700
O 	O 	0.63780 0.79900 0.38290 -0.26500
O 	O 	0.48800 0.67180 0.44500 0.84900
O 	O 	0.04840 0.49900 0.96110 1.80700
