data_crystal

_cell_length_a 10.17900
_cell_length_b 10.91840
_cell_length_c 13.87040
_cell_angle_alpha 78.68200
_cell_angle_beta  79.27100
_cell_angle_gamma 86.07900

_symmetry_space_group_name_	'P 1'
_symmetry_space_group_name_H-M	'P 1'

loop_
_symmetry_equiv_pos_as_xyz
  x,y,z

loop_
_atom_site_label
_atom_site_type_symbol
_atom_site_fract_x
_atom_site_fract_y
_atom_site_fract_z
_atom_site_charge
Eu	Eu	0.68011 0.07666 0.70336 1.85600
Eu	Eu	0.31989 0.92334 0.29664 1.84600
Mn	Mn	-0.00000 0.50000 0.50000 1.22100
H 	H 	0.17340 0.08680 0.72150 0.02200
H 	H 	0.91170 0.15290 0.96050 0.05900
H 	H 	0.30590 0.14690 0.96270 0.08900
H 	H 	0.98790 0.16640 0.28100 0.06600
H 	H 	0.96530 0.24790 0.42530 -0.02700
H 	H 	0.98510 0.58880 0.27260 -0.01000
H 	H 	0.99090 0.51870 0.12500 0.11100
H 	H 	0.67040 0.33090 0.84670 0.06600
H 	H 	0.65230 0.66810 0.92290 0.10000
H 	H 	0.71440 0.63910 0.63310 0.02100
H 	H 	0.65600 0.22580 0.14690 0.06500
H 	H 	0.64600 0.11770 0.30970 0.01400
H 	H 	0.63740 0.42590 0.41080 0.01600
H 	H 	0.64400 0.54340 0.25440 0.07900
H 	H 	0.12290 0.15820 0.11590 0.14800
H 	H 	0.61920 0.35360 0.01690 0.14000
H 	H 	0.82660 0.91320 0.27850 0.09500
H 	H 	0.08830 0.84710 0.03950 0.15400
H 	H 	0.69410 0.85310 0.03730 0.13100
H 	H 	0.01210 0.83360 0.71900 0.05200
H 	H 	0.03470 0.75210 0.57470 -0.04000
H 	H 	0.01490 0.41120 0.72740 -0.02600
H 	H 	0.00910 0.48130 0.87500 0.09800
H 	H 	0.32960 0.66910 0.15330 0.05700
H 	H 	0.34770 0.33190 0.07710 0.09200
H 	H 	0.28560 0.36090 0.36690 0.01200
H 	H 	0.34400 0.77420 0.85310 0.06400
H 	H 	0.35400 0.88230 0.69030 0.01400
H 	H 	0.36260 0.57410 0.58920 0.01500
H 	H 	0.35600 0.45660 0.74560 0.07800
H 	H 	0.87710 0.84180 0.88410 0.16300
H 	H 	0.38080 0.64640 0.98310 0.14000
C 	C 	0.40490 0.09910 0.78580 0.31200
C 	C 	0.26200 0.11450 0.83310 -0.07300
C 	C 	0.15640 0.10410 0.78570 0.03800
C 	C 	0.02730 0.11900 0.83220 -0.15300
C 	C 	0.99960 0.14550 0.92800 0.03900
C 	C 	0.10610 0.16080 0.97480 0.07000
C 	C 	0.23570 0.14170 0.92940 -0.05700
C 	C 	0.90790 0.10680 0.78440 0.35600
C 	C 	0.99610 0.29390 0.08890 0.23600
C 	C 	0.99120 0.33390 0.18660 0.02000
C 	C 	0.98510 0.25240 0.27770 -0.09800
C 	C 	0.97470 0.30240 0.36400 0.07100
C 	C 	0.98400 0.50330 0.27430 0.07500
C 	C 	0.98910 0.46190 0.18470 -0.10000
C 	C 	0.72810 0.39490 0.64700 0.46000
C 	C 	0.70000 0.47190 0.72690 -0.12400
C 	C 	0.67700 0.41720 0.82820 -0.05500
C 	C 	0.66360 0.48940 0.90150 0.13500
C 	C 	0.66430 0.61870 0.87420 -0.08900
C 	C 	0.68310 0.67470 0.77260 -0.06000
C 	C 	0.70130 0.60140 0.70020 0.03200
C 	C 	0.68720 0.81070 0.74750 0.31800
C 	C 	0.66660 0.48090 0.07930 0.22600
C 	C 	0.65180 0.39770 0.18120 0.00800
C 	C 	0.65210 0.26890 0.19900 -0.08800
C 	C 	0.64630 0.20450 0.29770 0.05700
C 	C 	0.64080 0.38550 0.35720 0.05900
C 	C 	0.64530 0.45670 0.26340 -0.09000
C 	C 	0.59510 0.90090 0.21420 0.27000
C 	C 	0.73800 0.88550 0.16690 0.05000
C 	C 	0.84360 0.89590 0.21430 -0.14300
C 	C 	0.97270 0.88100 0.16780 0.13200
C 	C 	0.00040 0.85450 0.07200 -0.29500
C 	C 	0.89390 0.83920 0.02520 0.25800
C 	C 	0.76430 0.85830 0.07060 -0.19400
C 	C 	0.09210 0.89320 0.21560 0.21400
C 	C 	0.00390 0.70610 0.91110 0.18200
C 	C 	0.00880 0.66610 0.81340 0.01800
C 	C 	0.01490 0.74760 0.72230 -0.11200
C 	C 	0.02530 0.69760 0.63600 0.06200
C 	C 	0.01600 0.49670 0.72570 0.06500
C 	C 	0.01090 0.53810 0.81530 -0.11100
C 	C 	0.27190 0.60510 0.35300 0.46000
C 	C 	0.30000 0.52810 0.27310 -0.14000
C 	C 	0.32300 0.58280 0.17180 -0.04900
C 	C 	0.33640 0.51060 0.09850 0.10900
C 	C 	0.33570 0.38130 0.12580 -0.08300
C 	C 	0.31690 0.32530 0.22740 -0.07500
C 	C 	0.29870 0.39860 0.29980 0.03300
C 	C 	0.31280 0.18930 0.25250 0.31600
C 	C 	0.33340 0.51910 0.92070 0.22400
C 	C 	0.34820 0.60230 0.81880 0.00800
C 	C 	0.34790 0.73110 0.80100 -0.08800
C 	C 	0.35370 0.79550 0.70230 0.05700
C 	C 	0.35920 0.61450 0.64280 0.05900
C 	C 	0.35470 0.54330 0.73660 -0.09100
N 	N 	0.08190 0.19790 0.06970 -0.24900
N 	N 	0.97770 0.42560 0.36270 -0.24100
N 	N 	0.64560 0.42920 0.00280 -0.24000
N 	N 	0.64120 0.26130 0.37470 -0.13800
N 	N 	0.91810 0.80210 0.93030 -0.23600
N 	N 	0.02230 0.57440 0.63730 -0.25400
N 	N 	0.35440 0.57080 0.99720 -0.23100
N 	N 	0.35880 0.73870 0.62530 -0.13900
O 	O 	0.43790 0.09880 0.69200 -0.41100
O 	O 	0.49450 0.08600 0.83790 -0.40300
O 	O 	0.92750 0.09480 0.69210 -0.42200
O 	O 	0.79450 0.11130 0.83370 -0.41700
O 	O 	0.92380 0.34730 0.03140 -0.22100
O 	O 	0.67860 0.28790 0.66650 -0.52800
O 	O 	0.80060 0.43740 0.56660 -0.49400
O 	O 	0.67410 0.86930 0.66100 -0.43100
O 	O 	0.70420 0.87370 0.81090 -0.40800
O 	O 	0.69420 0.58830 0.07130 -0.23200
O 	O 	0.56210 0.90120 0.30800 -0.39700
O 	O 	0.50550 0.91400 0.16210 -0.39300
O 	O 	0.07250 0.90520 0.30790 -0.41900
O 	O 	0.20550 0.88870 0.16630 -0.38700
O 	O 	0.07620 0.65270 0.96860 -0.22400
O 	O 	0.32140 0.71210 0.33350 -0.53000
O 	O 	0.19940 0.56260 0.43340 -0.51100
O 	O 	0.32590 0.13070 0.33900 -0.44000
O 	O 	0.29580 0.12630 0.18910 -0.41500
O 	O 	0.30580 0.41170 0.92870 -0.23100
