data_crystal

_cell_length_a 10.14800
_cell_length_b 10.88450
_cell_length_c 13.82610
_cell_angle_alpha 78.76000
_cell_angle_beta  79.30500
_cell_angle_gamma 86.22200

_symmetry_space_group_name_	'P 1'
_symmetry_space_group_name_H-M	'P 1'

loop_
_symmetry_equiv_pos_as_xyz
  x,y,z

loop_
_atom_site_label
_atom_site_type_symbol
_atom_site_fract_x
_atom_site_fract_y
_atom_site_fract_z
_atom_site_charge
Gd	Gd	0.67955 0.07683 0.20374 1.48700
Gd	Gd	0.32045 0.92317 0.79626 1.54400
Mn	Mn	-0.00000 0.50000 -0.00000 1.18200
H 	H 	0.65280 0.66890 0.42250 0.10100
H 	H 	0.67180 0.33060 0.34730 0.07200
H 	H 	0.71590 0.63970 0.13280 0.01600
H 	H 	0.64440 0.54430 0.75390 0.08300
H 	H 	0.63430 0.42750 0.91110 0.04700
H 	H 	0.64810 0.11850 0.80900 0.02800
H 	H 	0.65490 0.22560 0.64930 0.06500
H 	H 	0.17490 0.08560 0.21940 0.04000
H 	H 	0.91310 0.15880 0.45860 0.16600
H 	H 	0.30660 0.14850 0.46140 0.11600
H 	H 	0.98990 0.51920 0.62640 0.11800
H 	H 	0.98280 0.58780 0.77260 -0.00300
H 	H 	0.96910 0.24760 0.92390 0.00500
H 	H 	0.98700 0.16730 0.78020 0.08100
H 	H 	0.62100 0.35380 0.51700 0.14100
H 	H 	0.12420 0.15840 0.61570 0.15400
H 	H 	0.34720 0.33110 0.57750 0.10200
H 	H 	0.32820 0.66940 0.65270 0.07300
H 	H 	0.28410 0.36030 0.86720 0.03700
H 	H 	0.35560 0.45570 0.24610 0.07700
H 	H 	0.36570 0.57250 0.08890 -0.00600
H 	H 	0.35190 0.88150 0.19100 0.01100
H 	H 	0.34510 0.77440 0.35070 0.06800
H 	H 	0.82510 0.91440 0.78060 0.07900
H 	H 	0.08690 0.84120 0.54140 0.04800
H 	H 	0.69340 0.85150 0.53860 0.11000
H 	H 	0.01010 0.48080 0.37360 0.10100
H 	H 	0.01720 0.41220 0.22740 -0.03700
H 	H 	0.03090 0.75240 0.07610 -0.06300
H 	H 	0.01300 0.83270 0.21980 0.05800
H 	H 	0.37900 0.64620 0.48300 0.14100
H 	H 	0.87580 0.84160 0.38430 0.16200
C 	C 	0.68610 0.81340 0.24720 0.32000
C 	C 	0.68340 0.67450 0.27320 -0.05200
C 	C 	0.66460 0.61920 0.37380 -0.09100
C 	C 	0.66310 0.49000 0.40180 0.13600
C 	C 	0.67720 0.41720 0.32870 -0.06200
C 	C 	0.69930 0.47220 0.22760 -0.11400
C 	C 	0.70180 0.60200 0.20020 0.02800
C 	C 	0.72900 0.39450 0.14820 0.43500
C 	C 	0.66680 0.48110 0.57990 0.22900
C 	C 	0.65300 0.39890 0.68200 0.00600
C 	C 	0.64540 0.45730 0.76310 -0.08200
C 	C 	0.63940 0.38650 0.85740 0.05500
C 	C 	0.64700 0.20560 0.79760 0.06000
C 	C 	0.65210 0.26910 0.70130 -0.08600
C 	C 	0.40550 0.09770 0.28480 0.29300
C 	C 	0.26230 0.11340 0.33210 -0.01400
C 	C 	0.15790 0.10280 0.28400 -0.04700
C 	C 	0.02620 0.11800 0.33250 -0.03600
C 	C 	0.00100 0.14780 0.42690 -0.22400
C 	C 	0.10600 0.16140 0.47430 0.19400
C 	C 	0.23600 0.14220 0.42840 -0.14100
C 	C 	0.90850 0.10630 0.28390 0.32100
C 	C 	0.99590 0.29260 0.58930 0.25000
C 	C 	0.99190 0.33490 0.68660 0.02800
C 	C 	0.98850 0.46180 0.68600 -0.10800
C 	C 	0.98310 0.50200 0.77420 0.08700
C 	C 	0.97660 0.30280 0.86270 0.08200
C 	C 	0.98540 0.25350 0.77700 -0.10100
C 	C 	0.31390 0.18660 0.75280 0.30300
C 	C 	0.31660 0.32550 0.72680 -0.04700
C 	C 	0.33540 0.38080 0.62620 -0.11000
C 	C 	0.33690 0.51000 0.59820 0.13500
C 	C 	0.32280 0.58280 0.67130 -0.08000
C 	C 	0.30070 0.52780 0.77240 -0.10300
C 	C 	0.29820 0.39800 0.79980 0.00100
C 	C 	0.27100 0.60550 0.85180 0.42100
C 	C 	0.33320 0.51890 0.42010 0.22500
C 	C 	0.34700 0.60110 0.31800 0.01100
C 	C 	0.35460 0.54270 0.23690 -0.09800
C 	C 	0.36060 0.61350 0.14260 0.06100
C 	C 	0.35300 0.79440 0.20240 0.06100
C 	C 	0.34790 0.73090 0.29870 -0.09400
C 	C 	0.59450 0.90230 0.71520 0.29000
C 	C 	0.73770 0.88660 0.66790 -0.00900
C 	C 	0.84210 0.89720 0.71600 -0.05600
C 	C 	0.97380 0.88200 0.66750 0.00900
C 	C 	0.99900 0.85220 0.57310 -0.03500
C 	C 	0.89400 0.83860 0.52570 0.14700
C 	C 	0.76400 0.85780 0.57160 -0.11400
C 	C 	0.09150 0.89370 0.71610 0.23800
C 	C 	0.00410 0.70740 0.41070 0.15700
C 	C 	0.00810 0.66510 0.31340 0.03600
C 	C 	0.01150 0.53820 0.31400 -0.13300
C 	C 	0.01690 0.49800 0.22580 0.07800
C 	C 	0.02340 0.69720 0.13730 0.07800
C 	C 	0.01460 0.74650 0.22300 -0.13700
N 	N 	0.64650 0.43000 0.50310 -0.23800
N 	N 	0.64060 0.26110 0.87570 -0.11400
N 	N 	0.08230 0.19780 0.56960 -0.28000
N 	N 	0.97810 0.42500 0.86280 -0.22400
N 	N 	0.35350 0.57000 0.49690 -0.24000
N 	N 	0.35940 0.73890 0.12430 -0.14900
N 	N 	0.91770 0.80220 0.43040 -0.21000
N 	N 	0.02190 0.57500 0.13720 -0.27400
O 	O 	0.67290 0.86950 0.16110 -0.40100
O 	O 	0.70410 0.87490 0.31070 -0.37100
O 	O 	0.80050 0.43740 0.06690 -0.50900
O 	O 	0.67840 0.28760 0.16700 -0.47700
O 	O 	0.69440 0.58910 0.57100 -0.22700
O 	O 	0.43860 0.09740 0.19240 -0.38700
O 	O 	0.49600 0.08580 0.33730 -0.35900
O 	O 	0.92530 0.09320 0.19290 -0.38800
O 	O 	0.79210 0.11120 0.33370 -0.36400
O 	O 	0.92450 0.34750 0.53060 -0.21600
O 	O 	0.32710 0.13050 0.83890 -0.38200
O 	O 	0.29590 0.12510 0.68930 -0.38300
O 	O 	0.19950 0.56260 0.93310 -0.45000
O 	O 	0.32160 0.71240 0.83300 -0.45200
O 	O 	0.30560 0.41090 0.42900 -0.23500
O 	O 	0.56140 0.90260 0.80760 -0.35400
O 	O 	0.50400 0.91420 0.66270 -0.36000
O 	O 	0.07470 0.90680 0.80710 -0.38000
O 	O 	0.20790 0.88880 0.66630 -0.35600
O 	O 	0.07550 0.65250 0.46940 -0.22500
