data_crystal

_cell_length_a 14.74880
_cell_length_b 10.74340
_cell_length_c 28.87740
_cell_angle_alpha 90.00000
_cell_angle_beta  90.00000
_cell_angle_gamma 90.00000

_symmetry_space_group_name_	'P 1'
_symmetry_space_group_name_H-M	'P 1'

loop_
_symmetry_equiv_pos_as_xyz
  x,y,z

loop_
_atom_site_label
_atom_site_type_symbol
_atom_site_fract_x
_atom_site_fract_y
_atom_site_fract_z
_atom_site_charge
O 	O 	0.65590 0.25180 0.31899 -0.46400
O 	O 	0.65470 0.39380 0.26314 -0.48000
C 	C 	0.56060 0.42620 0.32743 -0.10200
C 	C 	0.62950 0.35150 0.30069 0.39400
C 	C 	0.55940 0.42440 0.37539 -0.04100
H 	H 	0.59870 0.37190 0.39130 0.05000
C 	C 	0.44880 0.41480 0.47561 0.08100
C 	C 	0.40130 0.30480 0.44870 -0.52800
H 	H 	0.33730 0.32060 0.44670 0.17100
H 	H 	0.41140 0.22810 0.46490 0.16700
H 	H 	0.42620 0.29890 0.41810 0.18500
O 	O 	0.15590 0.75180 0.81899 -0.46400
O 	O 	0.15470 0.89380 0.76314 -0.47900
C 	C 	0.06060 0.92620 0.82743 -0.10200
C 	C 	0.12950 0.85150 0.80069 0.39400
C 	C 	0.05940 0.92440 0.87539 -0.04100
H 	H 	0.09870 0.87190 0.89130 0.05000
C 	C 	0.94880 0.91480 0.97561 0.08000
C 	C 	0.90130 0.80480 0.94870 -0.52700
H 	H 	0.83730 0.82060 0.94670 0.17000
H 	H 	0.91140 0.72810 0.96490 0.16700
H 	H 	0.92620 0.79890 0.91810 0.18400
O 	O 	0.84410 0.25180 0.68101 -0.46400
O 	O 	0.84530 0.39380 0.73686 -0.48000
C 	C 	0.93940 0.42620 0.67257 -0.10200
C 	C 	0.87050 0.35150 0.69931 0.39400
C 	C 	0.94060 0.42440 0.62461 -0.04200
H 	H 	0.90130 0.37190 0.60870 0.05100
C 	C 	0.05120 0.41480 0.52439 0.08100
C 	C 	0.09870 0.30480 0.55130 -0.52800
H 	H 	0.16270 0.32060 0.55330 0.17100
H 	H 	0.08860 0.22810 0.53510 0.16700
H 	H 	0.07380 0.29890 0.58190 0.18500
O 	O 	0.34410 0.75180 0.18101 -0.46400
O 	O 	0.34530 0.89380 0.23686 -0.48000
C 	C 	0.43940 0.92620 0.17257 -0.10200
C 	C 	0.37050 0.85150 0.19931 0.39400
C 	C 	0.44060 0.92440 0.12461 -0.04200
H 	H 	0.40130 0.87190 0.10870 0.05100
C 	C 	0.55120 0.91480 0.02439 0.08000
C 	C 	0.59870 0.80480 0.05130 -0.52800
H 	H 	0.66270 0.82060 0.05330 0.17000
H 	H 	0.58860 0.72810 0.03510 0.16700
H 	H 	0.57380 0.79890 0.08190 0.18400
O 	O 	0.15590 0.74820 0.68101 -0.46400
O 	O 	0.15470 0.60620 0.73686 -0.48000
C 	C 	0.06060 0.57380 0.67257 -0.10200
C 	C 	0.12950 0.64850 0.69931 0.39400
C 	C 	0.05940 0.57560 0.62461 -0.04100
H 	H 	0.09870 0.62810 0.60870 0.05100
C 	C 	0.94880 0.58520 0.52439 0.08000
C 	C 	0.90130 0.69520 0.55130 -0.52800
H 	H 	0.83730 0.67940 0.55330 0.17000
H 	H 	0.91140 0.77190 0.53510 0.16700
H 	H 	0.92620 0.70110 0.58190 0.18400
O 	O 	0.65590 0.24820 0.18101 -0.46400
O 	O 	0.65470 0.10620 0.23686 -0.47900
C 	C 	0.56060 0.07380 0.17257 -0.10200
C 	C 	0.62950 0.14850 0.19931 0.39400
C 	C 	0.55940 0.07560 0.12461 -0.04100
H 	H 	0.59870 0.12810 0.10870 0.05100
C 	C 	0.44880 0.08520 0.02439 0.08100
C 	C 	0.40130 0.19520 0.05130 -0.52800
H 	H 	0.33730 0.17940 0.05330 0.17100
H 	H 	0.41140 0.27190 0.03510 0.16700
H 	H 	0.42620 0.20110 0.08190 0.18500
O 	O 	0.34410 0.74820 0.31899 -0.46400
O 	O 	0.34530 0.60620 0.26314 -0.48000
C 	C 	0.43940 0.57380 0.32743 -0.10200
C 	C 	0.37050 0.64850 0.30069 0.39400
C 	C 	0.44060 0.57560 0.37539 -0.04100
H 	H 	0.40130 0.62810 0.39130 0.05000
C 	C 	0.55120 0.58520 0.47561 0.08100
C 	C 	0.59870 0.69520 0.44870 -0.52800
H 	H 	0.66270 0.67940 0.44670 0.17100
H 	H 	0.58860 0.77190 0.46490 0.16700
H 	H 	0.57380 0.70110 0.41810 0.18500
O 	O 	0.84410 0.24820 0.81899 -0.46400
O 	O 	0.84530 0.10620 0.76314 -0.47900
C 	C 	0.93940 0.07380 0.82743 -0.10200
C 	C 	0.87050 0.14850 0.80069 0.39400
C 	C 	0.94060 0.07560 0.87539 -0.04100
H 	H 	0.90130 0.12810 0.89130 0.05000
C 	C 	0.05120 0.08520 0.97561 0.08100
C 	C 	0.09870 0.19520 0.94870 -0.52800
H 	H 	0.16270 0.17940 0.94670 0.17000
H 	H 	0.08860 0.27190 0.96490 0.16700
H 	H 	0.07380 0.20110 0.91810 0.18500
O 	O 	0.34410 0.74820 0.68101 -0.46400
O 	O 	0.34530 0.60620 0.73686 -0.48000
C 	C 	0.43940 0.57380 0.67257 -0.10200
C 	C 	0.37050 0.64850 0.69931 0.39400
C 	C 	0.44060 0.57560 0.62461 -0.04100
H 	H 	0.40130 0.62810 0.60870 0.05000
C 	C 	0.55120 0.58520 0.52439 0.08100
C 	C 	0.59870 0.69520 0.55130 -0.52800
H 	H 	0.66270 0.67940 0.55330 0.17100
H 	H 	0.58860 0.77190 0.53510 0.16700
H 	H 	0.57380 0.70110 0.58190 0.18500
O 	O 	0.84410 0.24820 0.18101 -0.46400
O 	O 	0.84530 0.10620 0.23686 -0.47900
C 	C 	0.93940 0.07380 0.17257 -0.10200
C 	C 	0.87050 0.14850 0.19931 0.39400
C 	C 	0.94060 0.07560 0.12461 -0.04100
H 	H 	0.90130 0.12810 0.10870 0.05000
C 	C 	0.05120 0.08520 0.02439 0.08100
C 	C 	0.09870 0.19520 0.05130 -0.52800
H 	H 	0.16270 0.17940 0.05330 0.17000
H 	H 	0.08860 0.27190 0.03510 0.16700
H 	H 	0.07380 0.20110 0.08190 0.18500
O 	O 	0.15590 0.74820 0.31899 -0.46400
O 	O 	0.15470 0.60620 0.26314 -0.48000
C 	C 	0.06060 0.57380 0.32743 -0.10200
C 	C 	0.12950 0.64850 0.30069 0.39400
C 	C 	0.05940 0.57560 0.37539 -0.04100
H 	H 	0.09870 0.62810 0.39130 0.05100
C 	C 	0.94880 0.58520 0.47561 0.08000
C 	C 	0.90130 0.69520 0.44870 -0.52800
H 	H 	0.83730 0.67940 0.44670 0.17000
H 	H 	0.91140 0.77190 0.46490 0.16700
H 	H 	0.92620 0.70110 0.41810 0.18400
O 	O 	0.65590 0.24820 0.81899 -0.46400
O 	O 	0.65470 0.10620 0.76314 -0.47900
C 	C 	0.56060 0.07380 0.82743 -0.10200
C 	C 	0.62950 0.14850 0.80069 0.39400
C 	C 	0.55940 0.07560 0.87539 -0.04100
H 	H 	0.59870 0.12810 0.89130 0.05100
C 	C 	0.44880 0.08520 0.97561 0.08100
C 	C 	0.40130 0.19520 0.94870 -0.52800
H 	H 	0.33730 0.17940 0.94670 0.17100
H 	H 	0.41140 0.27190 0.96490 0.16700
H 	H 	0.42620 0.20110 0.91810 0.18500
O 	O 	0.84410 0.25180 0.31899 -0.46400
O 	O 	0.84530 0.39380 0.26314 -0.48000
C 	C 	0.93940 0.42620 0.32743 -0.10200
C 	C 	0.87050 0.35150 0.30069 0.39400
C 	C 	0.94060 0.42440 0.37539 -0.04200
H 	H 	0.90130 0.37190 0.39130 0.05100
C 	C 	0.05120 0.41480 0.47561 0.08100
C 	C 	0.09870 0.30480 0.44870 -0.52800
H 	H 	0.16270 0.32060 0.44670 0.17100
H 	H 	0.08860 0.22810 0.46490 0.16700
H 	H 	0.07380 0.29890 0.41810 0.18500
O 	O 	0.34410 0.75180 0.81899 -0.46400
O 	O 	0.34530 0.89380 0.76314 -0.48000
C 	C 	0.43940 0.92620 0.82743 -0.10200
C 	C 	0.37050 0.85150 0.80069 0.39400
C 	C 	0.44060 0.92440 0.87539 -0.04200
H 	H 	0.40130 0.87190 0.89130 0.05100
C 	C 	0.55120 0.91480 0.97561 0.08000
C 	C 	0.59870 0.80480 0.94870 -0.52800
H 	H 	0.66270 0.82060 0.94670 0.17000
H 	H 	0.58860 0.72810 0.96490 0.16700
H 	H 	0.57380 0.79890 0.91810 0.18400
O 	O 	0.65590 0.25180 0.68101 -0.46400
O 	O 	0.65470 0.39380 0.73686 -0.48000
C 	C 	0.56060 0.42620 0.67257 -0.10200
C 	C 	0.62950 0.35150 0.69931 0.39400
C 	C 	0.55940 0.42440 0.62461 -0.04100
H 	H 	0.59870 0.37190 0.60870 0.05000
C 	C 	0.44880 0.41480 0.52439 0.08100
C 	C 	0.40130 0.30480 0.55130 -0.52800
H 	H 	0.33730 0.32060 0.55330 0.17100
H 	H 	0.41140 0.22810 0.53510 0.16700
H 	H 	0.42620 0.29890 0.58190 0.18500
O 	O 	0.15590 0.75180 0.18101 -0.46400
O 	O 	0.15470 0.89380 0.23686 -0.47900
C 	C 	0.06060 0.92620 0.17257 -0.10200
C 	C 	0.12950 0.85150 0.19931 0.39400
C 	C 	0.05940 0.92440 0.12461 -0.04100
H 	H 	0.09870 0.87190 0.10870 0.05000
C 	C 	0.94880 0.91480 0.02439 0.08000
C 	C 	0.90130 0.80480 0.05130 -0.52700
H 	H 	0.83730 0.82060 0.05330 0.17000
H 	H 	0.91140 0.72810 0.03510 0.16700
H 	H 	0.92620 0.79890 0.08190 0.18400
Co	Co	0.75000 0.15388 0.28526 1.13700
Co	Co	0.25000 0.65388 0.78526 1.13700
Co	Co	0.75000 0.15388 0.71474 1.13700
Co	Co	0.25000 0.65388 0.21474 1.13700
Co	Co	0.25000 0.84612 0.71474 1.13700
Co	Co	0.75000 0.34612 0.21474 1.13700
Co	Co	0.25000 0.84612 0.28526 1.13700
Co	Co	0.75000 0.34612 0.78526 1.13700
C 	C 	0.50000 0.50000 0.30370 0.03300
H 	H 	0.50000 0.50000 0.27150 0.03300
C 	C 	0.50000 0.50000 0.40000 0.02700
C 	C 	0.50000 0.50000 0.45190 -0.09400
C 	C 	0.00000 0.00000 0.80370 0.03200
H 	H 	-0.00000 0.00000 0.77150 0.03300
C 	C 	0.00000 0.00000 0.90000 0.02500
C 	C 	0.00000 0.00000 0.95190 -0.09300
C 	C 	0.00000 0.50000 0.69630 0.03300
H 	H 	0.00000 0.50000 0.72850 0.03200
C 	C 	-0.00000 0.50000 0.60000 0.02700
C 	C 	0.00000 0.50000 0.54810 -0.09400
C 	C 	0.50000 0.00000 0.19630 0.03300
H 	H 	0.50000 0.00000 0.22850 0.03200
C 	C 	0.50000 0.00000 0.10000 0.02700
C 	C 	0.50000 0.00000 0.04810 -0.09400
C 	C 	0.50000 0.50000 0.69630 0.03300
H 	H 	0.50000 0.50000 0.72850 0.03300
C 	C 	0.50000 0.50000 0.60000 0.02700
C 	C 	0.50000 0.50000 0.54810 -0.09400
C 	C 	-0.00000 0.00000 0.19630 0.03200
H 	H 	0.00000 0.00000 0.22850 0.03300
C 	C 	-0.00000 0.00000 0.10000 0.02500
C 	C 	0.00000 0.00000 0.04810 -0.09300
C 	C 	-0.00000 0.50000 0.30370 0.03300
H 	H 	0.00000 0.50000 0.27150 0.03200
C 	C 	0.00000 0.50000 0.40000 0.02700
C 	C 	0.00000 0.50000 0.45190 -0.09400
C 	C 	0.50000 0.00000 0.80370 0.03300
H 	H 	0.50000 0.00000 0.77150 0.03200
C 	C 	0.50000 0.00000 0.90000 0.02700
C 	C 	0.50000 0.00000 0.95190 -0.09400
