data_crystal

_cell_length_a 19.40320
_cell_length_b 19.40320
_cell_length_c 26.78700
_cell_angle_alpha 90.00000
_cell_angle_beta  90.00000
_cell_angle_gamma 90.00000

_symmetry_space_group_name_	'P 1'
_symmetry_space_group_name_H-M	'P 1'

loop_
_symmetry_equiv_pos_as_xyz
  x,y,z

loop_
_atom_site_label
_atom_site_type_symbol
_atom_site_fract_x
_atom_site_fract_y
_atom_site_fract_z
_atom_site_charge
O 	O 	0.44850 0.44730 0.43200 -0.48900
O 	O 	0.31360 0.31050 0.30890 -0.49500
O 	O 	0.38700 0.51120 0.48390 -0.49800
O 	O 	0.20290 0.33480 0.29570 -0.47800
C 	C 	0.21280 0.45150 0.35630 -0.03500
H 	H 	0.17210 0.44520 0.33850 0.04900
C 	C 	0.16510 0.61670 0.35390 0.08800
C 	C 	0.21860 0.50810 0.38750 0.02100
C 	C 	0.16350 0.56360 0.38820 -0.10000
C 	C 	0.27590 0.51510 0.41750 -0.04200
H 	H 	0.27870 0.55110 0.44040 0.04800
C 	C 	0.26490 0.40460 0.35060 -0.10800
C 	C 	0.10920 0.55920 0.42370 0.09400
C 	C 	0.33130 0.46630 0.41320 -0.11000
C 	C 	0.32660 0.41310 0.38040 0.03600
H 	H 	0.36300 0.38230 0.37710 0.03300
C 	C 	0.25860 0.34470 0.31600 0.40400
C 	C 	0.22550 0.61830 0.31680 -0.54600
H 	H 	0.21110 0.59900 0.28560 0.17800
H 	H 	0.26320 0.59190 0.33000 0.18900
H 	H 	0.24000 0.66510 0.31180 0.16600
C 	C 	0.10830 0.50070 0.46040 -0.56500
H 	H 	0.11430 0.51850 0.49360 0.17800
H 	H 	0.14510 0.46930 0.45280 0.19600
H 	H 	0.06500 0.47700 0.45830 0.17700
C 	C 	0.39350 0.47560 0.44630 0.41500
O 	O 	0.05150 0.05270 0.43200 -0.49000
O 	O 	0.18640 0.18950 0.30890 -0.49500
O 	O 	0.11300 0.98880 0.48390 -0.49700
O 	O 	0.29710 0.16520 0.29570 -0.47800
C 	C 	0.28720 0.04850 0.35630 -0.03700
H 	H 	0.32790 0.05480 0.33850 0.04900
C 	C 	0.33490 0.88330 0.35390 0.08700
C 	C 	0.28140 0.99190 0.38750 0.02200
C 	C 	0.33650 0.93640 0.38820 -0.09800
C 	C 	0.22410 0.98490 0.41750 -0.04100
H 	H 	0.22130 0.94890 0.44040 0.04800
C 	C 	0.23510 0.09540 0.35060 -0.10700
C 	C 	0.39080 0.94080 0.42370 0.09100
C 	C 	0.16870 0.03370 0.41320 -0.11100
C 	C 	0.17340 0.08690 0.38040 0.03600
H 	H 	0.13700 0.11770 0.37710 0.03300
C 	C 	0.24140 0.15530 0.31600 0.40300
C 	C 	0.27450 0.88170 0.31680 -0.54600
H 	H 	0.28890 0.90100 0.28560 0.17900
H 	H 	0.23680 0.90810 0.33000 0.19000
H 	H 	0.26000 0.83490 0.31180 0.16600
C 	C 	0.39170 0.99930 0.46040 -0.55700
H 	H 	0.38570 0.98150 0.49360 0.17600
H 	H 	0.35490 0.03070 0.45280 0.19300
H 	H 	0.43500 0.02300 0.45830 0.17400
C 	C 	0.10650 0.02440 0.44630 0.41400
O 	O 	0.05270 0.44850 0.93200 -0.49000
O 	O 	0.18950 0.31360 0.80890 -0.49500
O 	O 	0.98880 0.38700 0.98390 -0.49400
O 	O 	0.16520 0.20290 0.79570 -0.47800
C 	C 	0.04850 0.21280 0.85630 -0.03900
H 	H 	0.05480 0.17210 0.83850 0.05000
C 	C 	0.88330 0.16510 0.85390 0.08800
C 	C 	0.99190 0.21860 0.88750 0.02400
C 	C 	0.93640 0.16350 0.88820 -0.09700
C 	C 	0.98490 0.27590 0.91750 -0.03900
H 	H 	0.94890 0.27870 0.94040 0.04800
C 	C 	0.09540 0.26490 0.85060 -0.10700
C 	C 	0.94080 0.10920 0.92370 0.08800
C 	C 	0.03370 0.33130 0.91320 -0.11300
C 	C 	0.08690 0.32660 0.88040 0.03600
H 	H 	0.11770 0.36300 0.87710 0.03300
C 	C 	0.15530 0.25860 0.81600 0.40300
C 	C 	0.88170 0.22550 0.81680 -0.54600
H 	H 	0.90100 0.21110 0.78560 0.17900
H 	H 	0.90810 0.26320 0.83000 0.19000
H 	H 	0.83490 0.24000 0.81180 0.16600
C 	C 	0.99930 0.10830 0.96040 -0.52800
H 	H 	0.98150 0.11430 0.99360 0.17000
H 	H 	0.03070 0.14510 0.95280 0.18300
H 	H 	0.02300 0.06500 0.95830 0.16300
C 	C 	0.02440 0.39350 0.94630 0.41100
O 	O 	0.44730 0.05150 0.93200 -0.48800
O 	O 	0.31050 0.18640 0.80890 -0.49500
O 	O 	0.51120 0.11300 0.98390 -0.49700
O 	O 	0.33480 0.29710 0.79570 -0.47800
C 	C 	0.45150 0.28720 0.85630 -0.03500
H 	H 	0.44520 0.32790 0.83850 0.04900
C 	C 	0.61670 0.33490 0.85390 0.08800
C 	C 	0.50810 0.28140 0.88750 0.02100
C 	C 	0.56360 0.33650 0.88820 -0.09900
C 	C 	0.51510 0.22410 0.91750 -0.04200
H 	H 	0.55110 0.22130 0.94040 0.04900
C 	C 	0.40460 0.23510 0.85060 -0.10700
C 	C 	0.55920 0.39080 0.92370 0.09300
C 	C 	0.46630 0.16870 0.91320 -0.11000
C 	C 	0.41310 0.17340 0.88040 0.03600
H 	H 	0.38230 0.13700 0.87710 0.03400
C 	C 	0.34470 0.24140 0.81600 0.40400
C 	C 	0.61830 0.27450 0.81680 -0.54600
H 	H 	0.59900 0.28890 0.78560 0.17800
H 	H 	0.59190 0.23680 0.83000 0.18900
H 	H 	0.66510 0.26000 0.81180 0.16600
C 	C 	0.50070 0.39170 0.96040 -0.56400
H 	H 	0.51850 0.38570 0.99360 0.17800
H 	H 	0.46930 0.35490 0.95280 0.19600
H 	H 	0.47700 0.43500 0.95830 0.17600
C 	C 	0.47560 0.10650 0.94630 0.41500
O 	O 	0.05150 0.44730 0.06800 -0.48800
O 	O 	0.18640 0.31050 0.19110 -0.49500
O 	O 	0.11300 0.51120 0.01610 -0.49700
O 	O 	0.29710 0.33480 0.20430 -0.47800
C 	C 	0.28720 0.45150 0.14370 -0.03500
H 	H 	0.32790 0.44520 0.16150 0.04900
C 	C 	0.33490 0.61670 0.14610 0.08800
C 	C 	0.28140 0.50810 0.11250 0.02100
C 	C 	0.33650 0.56360 0.11180 -0.09900
C 	C 	0.22410 0.51510 0.08250 -0.04200
H 	H 	0.22130 0.55110 0.05960 0.04900
C 	C 	0.23510 0.40460 0.14940 -0.10700
C 	C 	0.39080 0.55920 0.07630 0.09300
C 	C 	0.16870 0.46630 0.08680 -0.11000
C 	C 	0.17340 0.41310 0.11960 0.03600
H 	H 	0.13700 0.38230 0.12290 0.03400
C 	C 	0.24140 0.34470 0.18400 0.40400
C 	C 	0.27450 0.61830 0.18320 -0.54600
H 	H 	0.28890 0.59900 0.21440 0.17800
H 	H 	0.23680 0.59190 0.17000 0.18900
H 	H 	0.26000 0.66510 0.18820 0.16600
C 	C 	0.39170 0.50070 0.03960 -0.56400
H 	H 	0.38570 0.51850 0.00640 0.17800
H 	H 	0.35490 0.46930 0.04720 0.19600
H 	H 	0.43500 0.47700 0.04170 0.17600
C 	C 	0.10650 0.47560 0.05370 0.41500
O 	O 	0.44850 0.05270 0.06800 -0.49000
O 	O 	0.31360 0.18950 0.19110 -0.49500
O 	O 	0.38700 0.98880 0.01610 -0.49400
O 	O 	0.20290 0.16520 0.20430 -0.47800
C 	C 	0.21280 0.04850 0.14370 -0.03900
H 	H 	0.17210 0.05480 0.16150 0.05000
C 	C 	0.16510 0.88330 0.14610 0.08800
C 	C 	0.21860 0.99190 0.11250 0.02400
C 	C 	0.16350 0.93640 0.11180 -0.09700
C 	C 	0.27590 0.98490 0.08250 -0.03900
H 	H 	0.27870 0.94890 0.05960 0.04800
C 	C 	0.26490 0.09540 0.14940 -0.10700
C 	C 	0.10920 0.94080 0.07630 0.08800
C 	C 	0.33130 0.03370 0.08680 -0.11300
C 	C 	0.32660 0.08690 0.11960 0.03600
H 	H 	0.36300 0.11770 0.12290 0.03300
C 	C 	0.25860 0.15530 0.18400 0.40300
C 	C 	0.22550 0.88170 0.18320 -0.54600
H 	H 	0.21110 0.90100 0.21440 0.17900
H 	H 	0.26320 0.90810 0.17000 0.19000
H 	H 	0.24000 0.83490 0.18820 0.16600
C 	C 	0.10830 0.99930 0.03960 -0.52800
H 	H 	0.11430 0.98150 0.00640 0.17000
H 	H 	0.14510 0.03070 0.04720 0.18300
H 	H 	0.06500 0.02300 0.04170 0.16300
C 	C 	0.39350 0.02440 0.05370 0.41100
O 	O 	0.44730 0.44850 0.56800 -0.48900
O 	O 	0.31050 0.31360 0.69110 -0.49500
O 	O 	0.51120 0.38700 0.51610 -0.49800
O 	O 	0.33480 0.20290 0.70430 -0.47800
C 	C 	0.45150 0.21280 0.64370 -0.03500
H 	H 	0.44520 0.17210 0.66150 0.04900
C 	C 	0.61670 0.16510 0.64610 0.08800
C 	C 	0.50810 0.21860 0.61250 0.02100
C 	C 	0.56360 0.16350 0.61180 -0.10000
C 	C 	0.51510 0.27590 0.58250 -0.04200
H 	H 	0.55110 0.27870 0.55960 0.04800
C 	C 	0.40460 0.26490 0.64940 -0.10800
C 	C 	0.55920 0.10920 0.57630 0.09400
C 	C 	0.46630 0.33130 0.58680 -0.11000
C 	C 	0.41310 0.32660 0.61960 0.03600
H 	H 	0.38230 0.36300 0.62290 0.03300
C 	C 	0.34470 0.25860 0.68400 0.40400
C 	C 	0.61830 0.22550 0.68320 -0.54600
H 	H 	0.59900 0.21110 0.71440 0.17800
H 	H 	0.59190 0.26320 0.67000 0.18900
H 	H 	0.66510 0.24000 0.68820 0.16600
C 	C 	0.50070 0.10830 0.53960 -0.56500
H 	H 	0.51850 0.11430 0.50640 0.17800
H 	H 	0.46930 0.14510 0.54720 0.19600
H 	H 	0.47700 0.06500 0.54170 0.17700
C 	C 	0.47560 0.39350 0.55370 0.41500
O 	O 	0.05270 0.05150 0.56800 -0.49000
O 	O 	0.18950 0.18640 0.69110 -0.49500
O 	O 	0.98880 0.11300 0.51610 -0.49700
O 	O 	0.16520 0.29710 0.70430 -0.47800
C 	C 	0.04850 0.28720 0.64370 -0.03700
H 	H 	0.05480 0.32790 0.66150 0.04900
C 	C 	0.88330 0.33490 0.64610 0.08700
C 	C 	0.99190 0.28140 0.61250 0.02200
C 	C 	0.93640 0.33650 0.61180 -0.09800
C 	C 	0.98490 0.22410 0.58250 -0.04100
H 	H 	0.94890 0.22130 0.55960 0.04800
C 	C 	0.09540 0.23510 0.64940 -0.10700
C 	C 	0.94080 0.39080 0.57630 0.09100
C 	C 	0.03370 0.16870 0.58680 -0.11100
C 	C 	0.08690 0.17340 0.61960 0.03600
H 	H 	0.11770 0.13700 0.62290 0.03300
C 	C 	0.15530 0.24140 0.68400 0.40300
C 	C 	0.88170 0.27450 0.68320 -0.54600
H 	H 	0.90100 0.28890 0.71440 0.17900
H 	H 	0.90810 0.23680 0.67000 0.19000
H 	H 	0.83490 0.26000 0.68820 0.16600
C 	C 	0.99930 0.39170 0.53960 -0.55700
H 	H 	0.98150 0.38570 0.50640 0.17600
H 	H 	0.03070 0.35490 0.54720 0.19300
H 	H 	0.02300 0.43500 0.54170 0.17400
C 	C 	0.02440 0.10650 0.55370 0.41400
O 	O 	0.55150 0.55270 0.56800 -0.48900
O 	O 	0.68640 0.68950 0.69110 -0.49500
O 	O 	0.61300 0.48880 0.51610 -0.49800
O 	O 	0.79710 0.66520 0.70430 -0.47800
C 	C 	0.78720 0.54850 0.64370 -0.03500
H 	H 	0.82790 0.55480 0.66150 0.04900
C 	C 	0.83490 0.38330 0.64610 0.08800
C 	C 	0.78140 0.49190 0.61250 0.02100
C 	C 	0.83650 0.43640 0.61180 -0.10000
C 	C 	0.72410 0.48490 0.58250 -0.04200
H 	H 	0.72130 0.44890 0.55960 0.04800
C 	C 	0.73510 0.59540 0.64940 -0.10800
C 	C 	0.89080 0.44080 0.57630 0.09400
C 	C 	0.66870 0.53370 0.58680 -0.11000
C 	C 	0.67340 0.58690 0.61960 0.03600
H 	H 	0.63700 0.61770 0.62290 0.03300
C 	C 	0.74140 0.65530 0.68400 0.40400
C 	C 	0.77450 0.38170 0.68320 -0.54600
H 	H 	0.78890 0.40100 0.71440 0.17800
H 	H 	0.73680 0.40810 0.67000 0.18900
H 	H 	0.76000 0.33490 0.68820 0.16600
C 	C 	0.89170 0.49930 0.53960 -0.56500
H 	H 	0.88570 0.48150 0.50640 0.17800
H 	H 	0.85490 0.53070 0.54720 0.19600
H 	H 	0.93500 0.52300 0.54170 0.17700
C 	C 	0.60650 0.52440 0.55370 0.41500
O 	O 	0.94850 0.94730 0.56800 -0.49000
O 	O 	0.81360 0.81050 0.69110 -0.49500
O 	O 	0.88700 0.01120 0.51610 -0.49700
O 	O 	0.70290 0.83480 0.70430 -0.47800
C 	C 	0.71280 0.95150 0.64370 -0.03700
H 	H 	0.67210 0.94520 0.66150 0.04900
C 	C 	0.66510 0.11670 0.64610 0.08700
C 	C 	0.71860 0.00810 0.61250 0.02200
C 	C 	0.66350 0.06360 0.61180 -0.09800
C 	C 	0.77590 0.01510 0.58250 -0.04100
H 	H 	0.77870 0.05110 0.55960 0.04800
C 	C 	0.76490 0.90460 0.64940 -0.10700
C 	C 	0.60920 0.05920 0.57630 0.09100
C 	C 	0.83130 0.96630 0.58680 -0.11100
C 	C 	0.82660 0.91310 0.61960 0.03600
H 	H 	0.86300 0.88230 0.62290 0.03300
C 	C 	0.75860 0.84470 0.68400 0.40300
C 	C 	0.72550 0.11830 0.68320 -0.54600
H 	H 	0.71110 0.09900 0.71440 0.17900
H 	H 	0.76320 0.09190 0.67000 0.19000
H 	H 	0.74000 0.16510 0.68820 0.16600
C 	C 	0.60830 0.00070 0.53960 -0.55700
H 	H 	0.61430 0.01850 0.50640 0.17600
H 	H 	0.64510 0.96930 0.54720 0.19300
H 	H 	0.56500 0.97700 0.54170 0.17400
C 	C 	0.89350 0.97560 0.55370 0.41400
O 	O 	0.94730 0.55150 0.06800 -0.49000
O 	O 	0.81050 0.68640 0.19110 -0.49500
O 	O 	0.01120 0.61300 0.01610 -0.49400
O 	O 	0.83480 0.79710 0.20430 -0.47800
C 	C 	0.95150 0.78720 0.14370 -0.03900
H 	H 	0.94520 0.82790 0.16150 0.05000
C 	C 	0.11670 0.83490 0.14610 0.08800
C 	C 	0.00810 0.78140 0.11250 0.02400
C 	C 	0.06360 0.83650 0.11180 -0.09700
C 	C 	0.01510 0.72410 0.08250 -0.03900
H 	H 	0.05110 0.72130 0.05960 0.04800
C 	C 	0.90460 0.73510 0.14940 -0.10700
C 	C 	0.05920 0.89080 0.07630 0.08800
C 	C 	0.96630 0.66870 0.08680 -0.11300
C 	C 	0.91310 0.67340 0.11960 0.03600
H 	H 	0.88230 0.63700 0.12290 0.03300
C 	C 	0.84470 0.74140 0.18400 0.40300
C 	C 	0.11830 0.77450 0.18320 -0.54600
H 	H 	0.09900 0.78890 0.21440 0.17900
H 	H 	0.09190 0.73680 0.17000 0.19000
H 	H 	0.16510 0.76000 0.18820 0.16600
C 	C 	0.00070 0.89170 0.03960 -0.52800
H 	H 	0.01850 0.88570 0.00640 0.17000
H 	H 	0.96930 0.85490 0.04720 0.18300
H 	H 	0.97700 0.93500 0.04170 0.16300
C 	C 	0.97560 0.60650 0.05370 0.41100
O 	O 	0.55270 0.94850 0.06800 -0.48800
O 	O 	0.68950 0.81360 0.19110 -0.49500
O 	O 	0.48880 0.88700 0.01610 -0.49700
O 	O 	0.66520 0.70290 0.20430 -0.47800
C 	C 	0.54850 0.71280 0.14370 -0.03500
H 	H 	0.55480 0.67210 0.16150 0.04900
C 	C 	0.38330 0.66510 0.14610 0.08800
C 	C 	0.49190 0.71860 0.11250 0.02100
C 	C 	0.43640 0.66350 0.11180 -0.09900
C 	C 	0.48490 0.77590 0.08250 -0.04200
H 	H 	0.44890 0.77870 0.05960 0.04900
C 	C 	0.59540 0.76490 0.14940 -0.10700
C 	C 	0.44080 0.60920 0.07630 0.09300
C 	C 	0.53370 0.83130 0.08680 -0.11000
C 	C 	0.58690 0.82660 0.11960 0.03600
H 	H 	0.61770 0.86300 0.12290 0.03400
C 	C 	0.65530 0.75860 0.18400 0.40400
C 	C 	0.38170 0.72550 0.18320 -0.54600
H 	H 	0.40100 0.71110 0.21440 0.17800
H 	H 	0.40810 0.76320 0.17000 0.18900
H 	H 	0.33490 0.74000 0.18820 0.16600
C 	C 	0.49930 0.60830 0.03960 -0.56400
H 	H 	0.48150 0.61430 0.00640 0.17800
H 	H 	0.53070 0.64510 0.04720 0.19600
H 	H 	0.52300 0.56500 0.04170 0.17600
C 	C 	0.52440 0.89350 0.05370 0.41500
O 	O 	0.94850 0.55270 0.93200 -0.48800
O 	O 	0.81360 0.68950 0.80890 -0.49500
O 	O 	0.88700 0.48880 0.98390 -0.49700
O 	O 	0.70290 0.66520 0.79570 -0.47800
C 	C 	0.71280 0.54850 0.85630 -0.03500
H 	H 	0.67210 0.55480 0.83850 0.04900
C 	C 	0.66510 0.38330 0.85390 0.08800
C 	C 	0.71860 0.49190 0.88750 0.02100
C 	C 	0.66350 0.43640 0.88820 -0.09900
C 	C 	0.77590 0.48490 0.91750 -0.04200
H 	H 	0.77870 0.44890 0.94040 0.04900
C 	C 	0.76490 0.59540 0.85060 -0.10700
C 	C 	0.60920 0.44080 0.92370 0.09300
C 	C 	0.83130 0.53370 0.91320 -0.11000
C 	C 	0.82660 0.58690 0.88040 0.03600
H 	H 	0.86300 0.61770 0.87710 0.03400
C 	C 	0.75860 0.65530 0.81600 0.40400
C 	C 	0.72550 0.38170 0.81680 -0.54600
H 	H 	0.71110 0.40100 0.78560 0.17800
H 	H 	0.76320 0.40810 0.83000 0.18900
H 	H 	0.74000 0.33490 0.81180 0.16600
C 	C 	0.60830 0.49930 0.96040 -0.56400
H 	H 	0.61430 0.48150 0.99360 0.17800
H 	H 	0.64510 0.53070 0.95280 0.19600
H 	H 	0.56500 0.52300 0.95830 0.17600
C 	C 	0.89350 0.52440 0.94630 0.41500
O 	O 	0.55150 0.94730 0.93200 -0.49000
O 	O 	0.68640 0.81050 0.80890 -0.49500
O 	O 	0.61300 0.01120 0.98390 -0.49400
O 	O 	0.79710 0.83480 0.79570 -0.47800
C 	C 	0.78720 0.95150 0.85630 -0.03900
H 	H 	0.82790 0.94520 0.83850 0.05000
C 	C 	0.83490 0.11670 0.85390 0.08800
C 	C 	0.78140 0.00810 0.88750 0.02400
C 	C 	0.83650 0.06360 0.88820 -0.09700
C 	C 	0.72410 0.01510 0.91750 -0.03900
H 	H 	0.72130 0.05110 0.94040 0.04800
C 	C 	0.73510 0.90460 0.85060 -0.10700
C 	C 	0.89080 0.05920 0.92370 0.08800
C 	C 	0.66870 0.96630 0.91320 -0.11300
C 	C 	0.67340 0.91310 0.88040 0.03600
H 	H 	0.63700 0.88230 0.87710 0.03300
C 	C 	0.74140 0.84470 0.81600 0.40300
C 	C 	0.77450 0.11830 0.81680 -0.54600
H 	H 	0.78890 0.09900 0.78560 0.17900
H 	H 	0.73680 0.09190 0.83000 0.19000
H 	H 	0.76000 0.16510 0.81180 0.16600
C 	C 	0.89170 0.00070 0.96040 -0.52800
H 	H 	0.88570 0.01850 0.99360 0.17000
H 	H 	0.85490 0.96930 0.95280 0.18300
H 	H 	0.93500 0.97700 0.95830 0.16300
C 	C 	0.60650 0.97560 0.94630 0.41100
O 	O 	0.55270 0.55150 0.43200 -0.48900
O 	O 	0.68950 0.68640 0.30890 -0.49500
O 	O 	0.48880 0.61300 0.48390 -0.49800
O 	O 	0.66520 0.79710 0.29570 -0.47800
C 	C 	0.54850 0.78720 0.35630 -0.03500
H 	H 	0.55480 0.82790 0.33850 0.04900
C 	C 	0.38330 0.83490 0.35390 0.08800
C 	C 	0.49190 0.78140 0.38750 0.02100
C 	C 	0.43640 0.83650 0.38820 -0.10000
C 	C 	0.48490 0.72410 0.41750 -0.04200
H 	H 	0.44890 0.72130 0.44040 0.04800
C 	C 	0.59540 0.73510 0.35060 -0.10800
C 	C 	0.44080 0.89080 0.42370 0.09400
C 	C 	0.53370 0.66870 0.41320 -0.11000
C 	C 	0.58690 0.67340 0.38040 0.03600
H 	H 	0.61770 0.63700 0.37710 0.03300
C 	C 	0.65530 0.74140 0.31600 0.40400
C 	C 	0.38170 0.77450 0.31680 -0.54600
H 	H 	0.40100 0.78890 0.28560 0.17800
H 	H 	0.40810 0.73680 0.33000 0.18900
H 	H 	0.33490 0.76000 0.31180 0.16600
C 	C 	0.49930 0.89170 0.46040 -0.56500
H 	H 	0.48150 0.88570 0.49360 0.17800
H 	H 	0.53070 0.85490 0.45280 0.19600
H 	H 	0.52300 0.93500 0.45830 0.17700
C 	C 	0.52440 0.60650 0.44630 0.41500
O 	O 	0.94730 0.94850 0.43200 -0.49000
O 	O 	0.81050 0.81360 0.30890 -0.49500
O 	O 	0.01120 0.88700 0.48390 -0.49700
O 	O 	0.83480 0.70290 0.29570 -0.47800
C 	C 	0.95150 0.71280 0.35630 -0.03700
H 	H 	0.94520 0.67210 0.33850 0.04900
C 	C 	0.11670 0.66510 0.35390 0.08700
C 	C 	0.00810 0.71860 0.38750 0.02200
C 	C 	0.06360 0.66350 0.38820 -0.09800
C 	C 	0.01510 0.77590 0.41750 -0.04100
H 	H 	0.05110 0.77870 0.44040 0.04800
C 	C 	0.90460 0.76490 0.35060 -0.10700
C 	C 	0.05920 0.60920 0.42370 0.09100
C 	C 	0.96630 0.83130 0.41320 -0.11100
C 	C 	0.91310 0.82660 0.38040 0.03600
H 	H 	0.88230 0.86300 0.37710 0.03300
C 	C 	0.84470 0.75860 0.31600 0.40300
C 	C 	0.11830 0.72550 0.31680 -0.54600
H 	H 	0.09900 0.71110 0.28560 0.17900
H 	H 	0.09190 0.76320 0.33000 0.19000
H 	H 	0.16510 0.74000 0.31180 0.16600
C 	C 	0.00070 0.60830 0.46040 -0.55700
H 	H 	0.01850 0.61430 0.49360 0.17600
H 	H 	0.96930 0.64510 0.45280 0.19300
H 	H 	0.97700 0.56500 0.45830 0.17400
C 	C 	0.97560 0.89350 0.44630 0.41400
Zn	Zn	0.54185 0.45815 0.46478 1.19600
Zn	Zn	0.95815 0.04185 0.46478 1.19600
Zn	Zn	0.04185 0.54185 0.96478 1.19500
Zn	Zn	0.45815 0.95815 0.96478 1.19500
Zn	Zn	0.95815 0.45815 0.03522 1.19500
Zn	Zn	0.54185 0.04185 0.03522 1.19500
Zn	Zn	0.45815 0.54185 0.53522 1.19600
Zn	Zn	0.04185 0.95815 0.53522 1.19600
Zn	Zn	0.32637 0.25000 0.25000 1.19100
Zn	Zn	0.17363 0.25000 0.25000 1.19100
Zn	Zn	0.25000 0.32637 0.75000 1.19100
Zn	Zn	0.25000 0.17363 0.75000 1.19100
Zn	Zn	0.67363 0.75000 0.75000 1.19100
Zn	Zn	0.82637 0.75000 0.75000 1.19100
Zn	Zn	0.75000 0.67363 0.25000 1.19100
Zn	Zn	0.75000 0.82637 0.25000 1.19100
