data_crystal

_cell_length_a 14.39290
_cell_length_b 17.85160
_cell_length_c 26.71110
_cell_angle_alpha 90.00000
_cell_angle_beta  90.00000
_cell_angle_gamma 90.00000

_symmetry_space_group_name_	'P 1'
_symmetry_space_group_name_H-M	'P 1'

loop_
_symmetry_equiv_pos_as_xyz
  x,y,z

loop_
_atom_site_label
_atom_site_type_symbol
_atom_site_fract_x
_atom_site_fract_y
_atom_site_fract_z
_atom_site_charge
Zn	Zn	0.56416 0.47132 0.70404 1.24400
Zn	Zn	0.75417 0.53592 0.34199 1.24400
Zn	Zn	0.86657 0.45782 0.44410 1.24000
O 	O 	0.54260 0.49660 0.63409 -0.42300
O 	O 	0.49120 0.38450 0.61425 -0.26700
O 	O 	0.66560 0.49590 0.39668 -0.45100
O 	O 	0.80420 0.43680 0.32442 -0.47200
O 	O 	0.88220 0.38760 0.38887 -0.47900
O 	O 	0.74120 0.47530 0.46711 -0.47700
O 	O 	0.91930 0.40130 0.49837 -0.41200
O 	O 	0.05780 0.42000 0.46580 -0.28100
O 	O 	0.08270 0.44710 0.57753 -0.46800
O 	O 	0.20080 0.38480 0.61193 -0.45900
O 	O 	0.94630 0.43349 0.24126 -0.39800
O 	O 	0.81340 0.40380 0.20426 -0.26400
O 	O 	0.48060 0.39065 0.73022 -0.41200
O 	O 	0.35560 0.44775 0.70171 -0.44800
O 	O 	0.16050 0.42250 0.71520 -0.43900
O 	O 	0.17430 0.40210 0.79566 -0.39900
C 	C 	0.50950 0.45070 0.60410 0.34600
C 	C 	0.50130 0.47720 0.55040 -0.02700
C 	C 	0.57930 0.47490 0.52131 0.01000
H 	H 	0.63460 0.45910 0.53590 0.06400
C 	C 	0.58040 0.49500 0.47105 -0.06800
C 	C 	0.66900 0.48800 0.44238 0.41500
C 	C 	0.85100 0.38740 0.34508 0.42700
C 	C 	0.00530 0.38710 0.49390 0.31900
C 	C 	0.03750 0.31770 0.52140 -0.00600
C 	C 	0.09610 0.31750 0.56182 -0.07700
C 	C 	0.13020 0.38840 0.58530 0.38800
C 	C 	0.86870 0.31800 0.31526 -0.09200
C 	C 	0.87470 0.31830 0.26298 0.00800
C 	C 	0.87630 0.39070 0.23377 0.30600
C 	C 	0.39620 0.39010 0.71842 0.37600
C 	C 	0.34340 0.31840 0.72577 -0.08300
C 	C 	0.25190 0.31780 0.74116 -0.05000
C 	C 	0.19310 0.38690 0.75098 0.34500
Zn	Zn	0.93584 0.52868 0.20404 1.24500
Zn	Zn	0.74583 0.46408 0.84199 1.24500
Zn	Zn	0.63343 0.54218 0.94410 1.24100
O 	O 	0.95740 0.50340 0.13409 -0.42200
O 	O 	0.00880 0.61550 0.11425 -0.26300
O 	O 	0.83440 0.50410 0.89668 -0.45000
O 	O 	0.69580 0.56320 0.82442 -0.47100
O 	O 	0.61780 0.61240 0.88887 -0.47800
O 	O 	0.75880 0.52470 0.96711 -0.47500
O 	O 	0.58070 0.59870 0.99837 -0.41200
O 	O 	0.44220 0.58000 0.96580 -0.28200
O 	O 	0.41730 0.55290 0.07753 -0.46800
O 	O 	0.29920 0.61520 0.11193 -0.45900
O 	O 	0.55370 0.56651 0.74126 -0.39800
O 	O 	0.68660 0.59620 0.70426 -0.26400
O 	O 	0.01940 0.60935 0.23022 -0.41100
O 	O 	0.14440 0.55225 0.20171 -0.44800
O 	O 	0.33950 0.57750 0.21520 -0.43900
O 	O 	0.32570 0.59790 0.29566 -0.39900
C 	C 	0.99050 0.54930 0.10410 0.34300
C 	C 	0.99870 0.52280 0.05040 -0.02900
C 	C 	0.92070 0.52510 0.02131 0.00600
H 	H 	0.86540 0.54090 0.03590 0.06500
C 	C 	0.91960 0.50500 0.97105 -0.06400
C 	C 	0.83100 0.51200 0.94238 0.41300
C 	C 	0.64900 0.61260 0.84508 0.42700
C 	C 	0.49470 0.61290 0.99390 0.32100
C 	C 	0.46250 0.68230 0.02140 -0.00800
C 	C 	0.40390 0.68250 0.06182 -0.07500
C 	C 	0.36980 0.61160 0.08530 0.38700
C 	C 	0.63130 0.68200 0.81526 -0.09200
C 	C 	0.62530 0.68170 0.76298 0.00900
C 	C 	0.62370 0.60930 0.73377 0.30600
C 	C 	0.10380 0.60990 0.21842 0.37600
C 	C 	0.15660 0.68160 0.22577 -0.08300
C 	C 	0.24810 0.68220 0.24116 -0.04900
C 	C 	0.30690 0.61310 0.25098 0.34500
Zn	Zn	0.43584 0.97132 0.29596 1.24500
Zn	Zn	0.24583 0.03592 0.65801 1.24500
Zn	Zn	0.13343 0.95782 0.55590 1.24200
O 	O 	0.45740 0.99660 0.36591 -0.42200
O 	O 	0.50880 0.88450 0.38575 -0.26600
O 	O 	0.33440 0.99590 0.60332 -0.44900
O 	O 	0.19580 0.93680 0.67558 -0.47000
O 	O 	0.11780 0.88760 0.61113 -0.47800
O 	O 	0.25880 0.97530 0.53289 -0.47500
O 	O 	0.08070 0.90130 0.50163 -0.40900
O 	O 	0.94220 0.92000 0.53420 -0.28100
O 	O 	0.91730 0.94710 0.42247 -0.46900
O 	O 	0.79920 0.88480 0.38807 -0.45900
O 	O 	0.05370 0.93349 0.75874 -0.39600
O 	O 	0.18660 0.90380 0.79574 -0.26300
O 	O 	0.51940 0.89065 0.26978 -0.41200
O 	O 	0.64440 0.94775 0.29829 -0.44900
O 	O 	0.83950 0.92250 0.28480 -0.44000
O 	O 	0.82570 0.90210 0.20434 -0.40000
C 	C 	0.49050 0.95070 0.39590 0.34600
C 	C 	0.49870 0.97720 0.44960 -0.02800
C 	C 	0.42070 0.97490 0.47869 0.01000
H 	H 	0.36540 0.95910 0.46410 0.06500
C 	C 	0.41960 0.99500 0.52895 -0.06800
C 	C 	0.33100 0.98800 0.55762 0.41400
C 	C 	0.14900 0.88740 0.65492 0.42700
C 	C 	0.99470 0.88710 0.50610 0.31600
C 	C 	0.96250 0.81770 0.47860 -0.00600
C 	C 	0.90390 0.81750 0.43818 -0.07700
C 	C 	0.86980 0.88840 0.41470 0.38800
C 	C 	0.13130 0.81800 0.68474 -0.09200
C 	C 	0.12530 0.81830 0.73702 0.00900
C 	C 	0.12370 0.89070 0.76623 0.30600
C 	C 	0.60380 0.89010 0.28158 0.37600
C 	C 	0.65660 0.81840 0.27423 -0.08300
C 	C 	0.74810 0.81780 0.25884 -0.05000
C 	C 	0.80690 0.88690 0.24902 0.34500
Zn	Zn	0.06416 0.02868 0.79596 1.24400
Zn	Zn	0.25417 0.96408 0.15801 1.24500
Zn	Zn	0.36657 0.04218 0.05590 1.24100
O 	O 	0.04260 0.00340 0.86591 -0.42300
O 	O 	0.99120 0.11550 0.88575 -0.26100
O 	O 	0.16560 0.00410 0.10332 -0.44900
O 	O 	0.30420 0.06320 0.17558 -0.47100
O 	O 	0.38220 0.11240 0.11113 -0.47800
O 	O 	0.24120 0.02470 0.03289 -0.47500
O 	O 	0.41930 0.09870 0.00163 -0.41200
O 	O 	0.55780 0.08000 0.03420 -0.28100
O 	O 	0.58270 0.05290 0.92247 -0.46800
O 	O 	0.70080 0.11520 0.88807 -0.45900
O 	O 	0.44630 0.06651 0.25874 -0.39700
O 	O 	0.31340 0.09620 0.29574 -0.26400
O 	O 	0.98060 0.10935 0.76978 -0.41000
O 	O 	0.85560 0.05225 0.79829 -0.44700
O 	O 	0.66050 0.07750 0.78480 -0.43900
O 	O 	0.67430 0.09790 0.70434 -0.39800
C 	C 	0.00950 0.04930 0.89590 0.34100
C 	C 	0.00130 0.02280 0.94960 -0.03100
C 	C 	0.07930 0.02510 0.97869 0.00400
H 	H 	0.13460 0.04090 0.96410 0.06500
C 	C 	0.08040 0.00500 0.02895 -0.06100
C 	C 	0.16900 0.01200 0.05762 0.41300
C 	C 	0.35100 0.11260 0.15492 0.42700
C 	C 	0.50530 0.11290 0.00610 0.32100
C 	C 	0.53750 0.18230 0.97860 -0.00900
C 	C 	0.59610 0.18250 0.93818 -0.07500
C 	C 	0.63020 0.11160 0.91470 0.38700
C 	C 	0.36870 0.18200 0.18474 -0.09200
C 	C 	0.37470 0.18170 0.23702 0.00900
C 	C 	0.37630 0.10930 0.26623 0.30600
C 	C 	0.89620 0.10990 0.78158 0.37600
C 	C 	0.84340 0.18160 0.77423 -0.08300
C 	C 	0.75190 0.18220 0.75884 -0.04900
C 	C 	0.69310 0.11310 0.74902 0.34500
Zn	Zn	0.43584 0.52868 0.29596 1.24500
Zn	Zn	0.24583 0.46408 0.65801 1.24500
Zn	Zn	0.13343 0.54218 0.55590 1.24100
O 	O 	0.45740 0.50340 0.36591 -0.42200
O 	O 	0.50880 0.61550 0.38575 -0.26600
O 	O 	0.33440 0.50410 0.60332 -0.45000
O 	O 	0.19580 0.56320 0.67558 -0.47100
O 	O 	0.11780 0.61240 0.61113 -0.47800
O 	O 	0.25880 0.52470 0.53289 -0.47600
O 	O 	0.08070 0.59870 0.50163 -0.41100
O 	O 	0.94220 0.58000 0.53420 -0.28100
O 	O 	0.91730 0.55290 0.42247 -0.46800
O 	O 	0.79920 0.61520 0.38807 -0.45900
O 	O 	0.05370 0.56651 0.75874 -0.39800
O 	O 	0.18660 0.59620 0.79574 -0.26400
O 	O 	0.51940 0.60935 0.26978 -0.41200
O 	O 	0.64440 0.55225 0.29829 -0.44800
O 	O 	0.83950 0.57750 0.28480 -0.43900
O 	O 	0.82570 0.59790 0.20434 -0.39900
C 	C 	0.49050 0.54930 0.39590 0.34600
C 	C 	0.49870 0.52280 0.44960 -0.02700
C 	C 	0.42070 0.52510 0.47869 0.01000
H 	H 	0.36540 0.54090 0.46410 0.06400
C 	C 	0.41960 0.50500 0.52895 -0.06800
C 	C 	0.33100 0.51200 0.55762 0.41500
C 	C 	0.14900 0.61260 0.65492 0.42700
C 	C 	0.99470 0.61290 0.50610 0.31900
C 	C 	0.96250 0.68230 0.47860 -0.00600
C 	C 	0.90390 0.68250 0.43818 -0.07700
C 	C 	0.86980 0.61160 0.41470 0.38800
C 	C 	0.13130 0.68200 0.68474 -0.09200
C 	C 	0.12530 0.68170 0.73702 0.00800
C 	C 	0.12370 0.60930 0.76623 0.30600
C 	C 	0.60380 0.60990 0.28158 0.37600
C 	C 	0.65660 0.68160 0.27423 -0.08300
C 	C 	0.74810 0.68220 0.25884 -0.05000
C 	C 	0.80690 0.61310 0.24902 0.34500
Zn	Zn	0.06416 0.47132 0.79596 1.24500
Zn	Zn	0.25417 0.53592 0.15801 1.24500
Zn	Zn	0.36657 0.45782 0.05590 1.24100
O 	O 	0.04260 0.49660 0.86591 -0.42200
O 	O 	0.99120 0.38450 0.88575 -0.26300
O 	O 	0.16560 0.49590 0.10332 -0.45000
O 	O 	0.30420 0.43680 0.17558 -0.47100
O 	O 	0.38220 0.38760 0.11113 -0.47800
O 	O 	0.24120 0.47530 0.03289 -0.47500
O 	O 	0.41930 0.40130 0.00163 -0.41200
O 	O 	0.55780 0.42000 0.03420 -0.28200
O 	O 	0.58270 0.44710 0.92247 -0.46800
O 	O 	0.70080 0.38480 0.88807 -0.45900
O 	O 	0.44630 0.43349 0.25874 -0.39800
O 	O 	0.31340 0.40380 0.29574 -0.26400
O 	O 	0.98060 0.39065 0.76978 -0.41100
O 	O 	0.85560 0.44775 0.79829 -0.44800
O 	O 	0.66050 0.42250 0.78480 -0.43900
O 	O 	0.67430 0.40210 0.70434 -0.39900
C 	C 	0.00950 0.45070 0.89590 0.34300
C 	C 	0.00130 0.47720 0.94960 -0.02900
C 	C 	0.07930 0.47490 0.97869 0.00600
H 	H 	0.13460 0.45910 0.96410 0.06500
C 	C 	0.08040 0.49500 0.02895 -0.06400
C 	C 	0.16900 0.48800 0.05762 0.41300
C 	C 	0.35100 0.38740 0.15492 0.42700
C 	C 	0.50530 0.38710 0.00610 0.32100
C 	C 	0.53750 0.31770 0.97860 -0.00800
C 	C 	0.59610 0.31750 0.93818 -0.07500
C 	C 	0.63020 0.38840 0.91470 0.38700
C 	C 	0.36870 0.31800 0.18474 -0.09200
C 	C 	0.37470 0.31830 0.23702 0.00900
C 	C 	0.37630 0.39070 0.26623 0.30600
C 	C 	0.89620 0.39010 0.78158 0.37600
C 	C 	0.84340 0.31840 0.77423 -0.08300
C 	C 	0.75190 0.31780 0.75884 -0.04900
C 	C 	0.69310 0.38690 0.74902 0.34500
Zn	Zn	0.56416 0.02868 0.70404 1.24500
Zn	Zn	0.75417 0.96408 0.34199 1.24500
Zn	Zn	0.86657 0.04218 0.44410 1.24200
O 	O 	0.54260 0.00340 0.63409 -0.42200
O 	O 	0.49120 0.11550 0.61425 -0.26600
O 	O 	0.66560 0.00410 0.39668 -0.44900
O 	O 	0.80420 0.06320 0.32442 -0.47000
O 	O 	0.88220 0.11240 0.38887 -0.47800
O 	O 	0.74120 0.02470 0.46711 -0.47500
O 	O 	0.91930 0.09870 0.49837 -0.40900
O 	O 	0.05780 0.08000 0.46580 -0.28100
O 	O 	0.08270 0.05290 0.57753 -0.46900
O 	O 	0.20080 0.11520 0.61193 -0.45900
O 	O 	0.94630 0.06651 0.24126 -0.39600
O 	O 	0.81340 0.09620 0.20426 -0.26300
O 	O 	0.48060 0.10935 0.73022 -0.41200
O 	O 	0.35560 0.05225 0.70171 -0.44900
O 	O 	0.16050 0.07750 0.71520 -0.44000
O 	O 	0.17430 0.09790 0.79566 -0.40000
C 	C 	0.50950 0.04930 0.60410 0.34600
C 	C 	0.50130 0.02280 0.55040 -0.02800
C 	C 	0.57930 0.02510 0.52131 0.01000
H 	H 	0.63460 0.04090 0.53590 0.06500
C 	C 	0.58040 0.00500 0.47105 -0.06800
C 	C 	0.66900 0.01200 0.44238 0.41400
C 	C 	0.85100 0.11260 0.34508 0.42700
C 	C 	0.00530 0.11290 0.49390 0.31600
C 	C 	0.03750 0.18230 0.52140 -0.00600
C 	C 	0.09610 0.18250 0.56182 -0.07700
C 	C 	0.13020 0.11160 0.58530 0.38800
C 	C 	0.86870 0.18200 0.31526 -0.09200
C 	C 	0.87470 0.18170 0.26298 0.00900
C 	C 	0.87630 0.10930 0.23377 0.30600
C 	C 	0.39620 0.10990 0.71842 0.37600
C 	C 	0.34340 0.18160 0.72577 -0.08300
C 	C 	0.25190 0.18220 0.74116 -0.05000
C 	C 	0.19310 0.11310 0.75098 0.34500
Zn	Zn	0.93584 0.97132 0.20404 1.24400
Zn	Zn	0.74583 0.03592 0.84199 1.24500
Zn	Zn	0.63343 0.95782 0.94410 1.24100
O 	O 	0.95740 0.99660 0.13409 -0.42300
O 	O 	0.00880 0.88450 0.11425 -0.26100
O 	O 	0.83440 0.99590 0.89668 -0.44900
O 	O 	0.69580 0.93680 0.82442 -0.47100
O 	O 	0.61780 0.88760 0.88887 -0.47800
O 	O 	0.75880 0.97530 0.96711 -0.47500
O 	O 	0.58070 0.90130 0.99837 -0.41200
O 	O 	0.44220 0.92000 0.96580 -0.28100
O 	O 	0.41730 0.94710 0.07753 -0.46800
O 	O 	0.29920 0.88480 0.11193 -0.45900
O 	O 	0.55370 0.93349 0.74126 -0.39700
O 	O 	0.68660 0.90380 0.70426 -0.26400
O 	O 	0.01940 0.89065 0.23022 -0.41000
O 	O 	0.14440 0.94775 0.20171 -0.44700
O 	O 	0.33950 0.92250 0.21520 -0.43900
O 	O 	0.32570 0.90210 0.29566 -0.39800
C 	C 	0.99050 0.95070 0.10410 0.34100
C 	C 	0.99870 0.97720 0.05040 -0.03100
C 	C 	0.92070 0.97490 0.02131 0.00400
H 	H 	0.86540 0.95910 0.03590 0.06500
C 	C 	0.91960 0.99500 0.97105 -0.06100
C 	C 	0.83100 0.98800 0.94238 0.41300
C 	C 	0.64900 0.88740 0.84508 0.42700
C 	C 	0.49470 0.88710 0.99390 0.32100
C 	C 	0.46250 0.81770 0.02140 -0.00900
C 	C 	0.40390 0.81750 0.06182 -0.07500
C 	C 	0.36980 0.88840 0.08530 0.38700
C 	C 	0.63130 0.81800 0.81526 -0.09200
C 	C 	0.62530 0.81830 0.76298 0.00900
C 	C 	0.62370 0.89070 0.73377 0.30600
C 	C 	0.10380 0.89010 0.21842 0.37600
C 	C 	0.15660 0.81840 0.22577 -0.08300
C 	C 	0.24810 0.81780 0.24116 -0.04900
C 	C 	0.30690 0.88690 0.25098 0.34500
C 	C 	0.12550 0.25000 0.58210 0.03700
H 	H 	0.16520 0.25000 0.60960 0.05700
C 	C 	0.00870 0.25000 0.50110 -0.02900
H 	H 	0.96940 0.25000 0.47350 0.06500
C 	C 	0.87950 0.25000 0.23740 -0.03800
H 	H 	0.88590 0.25000 0.20280 0.07500
C 	C 	0.86690 0.25000 0.34020 0.05200
H 	H 	0.86440 0.25000 0.37500 0.04200
C 	C 	0.20700 0.25000 0.74990 0.00700
H 	H 	0.14620 0.25000 0.76180 0.05700
C 	C 	0.38980 0.25000 0.71970 0.03900
H 	H 	0.45260 0.25000 0.71140 0.05500
C 	C 	0.37450 0.75000 0.08210 0.03500
H 	H 	0.33480 0.75000 0.10960 0.05800
C 	C 	0.49130 0.75000 0.00110 -0.02600
H 	H 	0.53060 0.75000 0.97350 0.06400
C 	C 	0.62050 0.75000 0.73740 -0.03800
H 	H 	0.61410 0.75000 0.70280 0.07500
C 	C 	0.63310 0.75000 0.84020 0.05200
H 	H 	0.63560 0.75000 0.87500 0.04200
C 	C 	0.29300 0.75000 0.24990 0.00700
H 	H 	0.35380 0.75000 0.26180 0.05800
C 	C 	0.11020 0.75000 0.21970 0.03900
H 	H 	0.04740 0.75000 0.21140 0.05600
C 	C 	0.87450 0.75000 0.41790 0.03700
H 	H 	0.83480 0.75000 0.39040 0.05700
C 	C 	0.99130 0.75000 0.49890 -0.02900
H 	H 	0.03060 0.75000 0.52650 0.06500
C 	C 	0.12050 0.75000 0.76260 -0.03800
H 	H 	0.11410 0.75000 0.79720 0.07500
C 	C 	0.13310 0.75000 0.65980 0.05200
H 	H 	0.13560 0.75000 0.62500 0.04200
C 	C 	0.79300 0.75000 0.25010 0.00700
H 	H 	0.85380 0.75000 0.23820 0.05700
C 	C 	0.61020 0.75000 0.28030 0.03900
H 	H 	0.54740 0.75000 0.28860 0.05500
C 	C 	0.62550 0.25000 0.91790 0.03500
H 	H 	0.66520 0.25000 0.89040 0.05800
C 	C 	0.50870 0.25000 0.99890 -0.02600
H 	H 	0.46940 0.25000 0.02650 0.06400
C 	C 	0.37950 0.25000 0.26260 -0.03800
H 	H 	0.38590 0.25000 0.29720 0.07500
C 	C 	0.36690 0.25000 0.15980 0.05200
H 	H 	0.36440 0.25000 0.12500 0.04200
C 	C 	0.70700 0.25000 0.75010 0.00700
H 	H 	0.64620 0.25000 0.73820 0.05800
C 	C 	0.88980 0.25000 0.78030 0.03900
H 	H 	0.95260 0.25000 0.78860 0.05600
