data_crystal

_cell_length_a 17.04970
_cell_length_b 17.04970
_cell_length_c 24.90800
_cell_angle_alpha 120.07140
_cell_angle_beta  120.07140
_cell_angle_gamma 50.59760

_symmetry_space_group_name_	'P 1'
_symmetry_space_group_name_H-M	'P 1'

loop_
_symmetry_equiv_pos_as_xyz
  x,y,z

loop_
_atom_site_label
_atom_site_type_symbol
_atom_site_fract_x
_atom_site_fract_y
_atom_site_fract_z
_atom_site_charge
O 	O 	0.53154 0.19274 0.14680 -0.46600
O 	O 	0.69492 0.07652 0.10970 -0.46400
O 	O 	0.44680 0.49000 0.17450 -0.27700
O 	O 	0.53593 0.22413 0.06140 -0.43200
O 	O 	0.39062 0.16822 0.02920 -0.58500
O 	O 	0.60028 0.97988 0.09770 -0.54600
O 	O 	0.60042 0.01662 0.98000 -0.56800
O 	O 	0.77290 0.87530 0.05290 -0.36200
O 	O 	0.72169 0.11149 0.02130 -0.45500
O 	O 	0.42129 0.19249 0.94010 -0.35300
O 	O 	0.35250 0.37870 0.10650 -0.43000
O 	O 	0.41654 0.13514 0.13870 -0.36600
O 	O 	0.71470 0.05930 0.22340 -0.50200
O 	O 	0.79990 0.83530 0.16140 -0.33700
O 	O 	0.80020 0.89060 0.95530 -0.30600
O 	O 	0.59560 0.07640 0.88980 -0.35700
O 	O 	0.22860 0.34100 0.97510 -0.32400
O 	O 	0.22600 0.30940 0.09250 -0.35100
O 	O 	0.59310 0.98490 0.21150 -0.31300
O 	O 	0.37190 0.34170 0.20820 -0.36200
O 	O 	0.53250 0.19730 0.26100 -0.36300
O 	O 	0.42430 0.37430 0.32580 -0.41900
O 	O 	0.53970 0.35070 0.27710 -0.45800
O 	O 	0.64500 0.26360 0.17840 -0.45900
O 	O 	0.88770 0.93810 0.17530 -0.36100
O 	O 	0.89070 0.96270 0.08450 -0.33200
O 	O 	0.04960 0.91260 0.17580 -0.45200
O 	O 	0.37342 0.39902 0.01300 -0.33900
O 	O 	0.41360 0.46160 0.96360 -0.43700
O 	O 	0.53979 0.27859 0.97570 -0.36100
O 	O 	0.52243 0.43483 0.07360 -0.42200
O 	O 	0.89520 0.09340 0.19450 -0.29500
P 	P 	0.60321 0.19223 0.12555 0.52500
P 	P 	0.46291 0.39241 0.00625 0.49000
P 	P 	0.46913 0.31755 0.26889 0.54200
P 	P 	0.93071 0.97691 0.15769 0.57300
Mo	Mo	0.35405 0.26769 0.11144 1.18100
Mo	Mo	0.57973 0.06705 0.18489 1.16600
Mo	Mo	0.35602 0.29486 0.01822 1.17400
Mo	Mo	0.58378 0.13044 0.96514 1.18900
Mo	Mo	0.74899 0.98077 0.01788 1.18500
Mo	Mo	0.74723 0.94621 0.14469 1.19400
N 	N 	0.31700 0.62060 0.40130 -0.25400
N 	N 	0.16030 0.75250 0.38030 -0.19200
H 	H 	0.09300 0.79200 0.37430 0.14500
N 	N 	0.28140 0.84020 0.27090 -0.27400
N 	N 	0.44660 0.77580 0.28400 -0.22000
H 	H 	0.51200 0.72980 0.28520 0.16700
C 	C 	0.21460 0.64420 0.37200 0.09600
H 	H 	0.18790 0.59950 0.35180 0.01500
C 	C 	0.32370 0.70130 0.41060 0.00900
H 	H 	0.38650 0.69870 0.42310 0.04900
C 	C 	0.22190 0.79050 0.39860 0.02200
H 	H 	0.20270 0.85730 0.40230 0.05400
C 	C 	0.36930 0.75690 0.26200 0.16300
H 	H 	0.37860 0.68960 0.24200 -0.03400
C 	C 	0.29460 0.92400 0.29510 0.00200
H 	H 	0.24250 0.99490 0.30380 0.06300
C 	C 	0.40020 0.88440 0.30440 0.05200
H 	H 	0.43250 0.92290 0.32080 0.06200
Na	Na	0.72543 0.21023 0.29401 0.58800
Zn	Zn	0.43896 0.47748 0.40729 1.22400
O 	O 	0.80726 0.46846 0.35320 -0.45900
O 	O 	0.92348 0.30508 0.39030 -0.42400
O 	O 	0.51000 0.55320 0.32550 -0.27500
O 	O 	0.77587 0.46407 0.43860 -0.42200
O 	O 	0.83178 0.60938 0.47080 -0.56300
O 	O 	0.02012 0.39972 0.40230 -0.57900
O 	O 	0.98338 0.39958 0.52000 -0.54200
O 	O 	0.12470 0.22710 0.44710 -0.36700
O 	O 	0.88851 0.27831 0.47870 -0.42000
O 	O 	0.80751 0.57871 0.55990 -0.35900
O 	O 	0.62130 0.64750 0.39350 -0.42600
O 	O 	0.86486 0.58346 0.36130 -0.33900
O 	O 	0.94070 0.28530 0.27660 -0.47400
O 	O 	0.16470 0.20010 0.33860 -0.36200
O 	O 	0.10940 0.19980 0.54470 -0.35700
O 	O 	0.92360 0.40440 0.61020 -0.34100
O 	O 	0.65900 0.77140 0.52490 -0.32800
O 	O 	0.69060 0.77400 0.40750 -0.33200
O 	O 	0.01510 0.40690 0.28850 -0.35900
O 	O 	0.65830 0.62810 0.29180 -0.35900
O 	O 	0.80270 0.46750 0.23900 -0.35300
O 	O 	0.62570 0.57570 0.17420 -0.41600
O 	O 	0.64930 0.46030 0.22290 -0.45900
O 	O 	0.73640 0.35500 0.32160 -0.45800
O 	O 	0.06190 0.11230 0.32470 -0.39000
O 	O 	0.03730 0.10930 0.41550 -0.35400
O 	O 	0.08740 0.95040 0.32420 -0.41000
O 	O 	0.60098 0.62658 0.48700 -0.32900
O 	O 	0.53840 0.58640 0.53640 -0.45700
O 	O 	0.72141 0.46021 0.52430 -0.38300
O 	O 	0.56517 0.47757 0.42640 -0.42300
O 	O 	0.90660 0.10480 0.30550 -0.26200
P 	P 	0.80777 0.39679 0.37445 0.52300
P 	P 	0.60759 0.53709 0.49375 0.52500
P 	P 	0.68245 0.53087 0.23111 0.54100
P 	P 	0.02309 0.06929 0.34231 0.47700
Mo	Mo	0.73231 0.64595 0.38856 1.18200
Mo	Mo	0.93295 0.42027 0.31511 1.19700
Mo	Mo	0.70514 0.64398 0.48178 1.18500
Mo	Mo	0.86956 0.41622 0.53486 1.18400
Mo	Mo	0.01923 0.25101 0.48212 1.16400
Mo	Mo	0.05379 0.25277 0.35531 1.17100
N 	N 	0.37940 0.68300 0.09870 -0.25500
N 	N 	0.24750 0.83970 0.11970 -0.19400
H 	H 	0.20800 0.90700 0.12570 0.14700
N 	N 	0.15980 0.71860 0.22910 -0.27800
N 	N 	0.22420 0.55340 0.21600 -0.22000
H 	H 	0.27020 0.48800 0.21480 0.16500
C 	C 	0.35580 0.78540 0.12800 0.09500
H 	H 	0.40050 0.81210 0.14820 0.01800
C 	C 	0.29870 0.67630 0.08940 0.00200
H 	H 	0.30130 0.61350 0.07690 0.04500
C 	C 	0.20950 0.77810 0.10140 0.02100
H 	H 	0.14270 0.79730 0.09770 0.04200
C 	C 	0.24310 0.63070 0.23800 0.16100
H 	H 	0.31040 0.62140 0.25800 -0.03300
C 	C 	0.07600 0.70540 0.20490 -0.00200
H 	H 	0.00510 0.75750 0.19620 0.04100
C 	C 	0.11560 0.59980 0.19560 0.04400
H 	H 	0.07710 0.56750 0.17920 0.04900
Na	Na	0.78977 0.27457 0.20599 0.58800
Zn	Zn	0.52252 0.56104 0.09271 1.22300
O 	O 	0.46846 0.80726 0.85320 -0.45800
O 	O 	0.30508 0.92348 0.89030 -0.42100
O 	O 	0.55320 0.51000 0.82550 -0.27500
O 	O 	0.46407 0.77587 0.93860 -0.41300
O 	O 	0.60938 0.83178 0.97080 -0.54900
O 	O 	0.39972 0.02012 0.90230 -0.57500
O 	O 	0.39958 0.98338 0.02000 -0.55600
O 	O 	0.22710 0.12470 0.94710 -0.35700
O 	O 	0.27831 0.88851 0.97870 -0.40400
O 	O 	0.57871 0.80751 0.05990 -0.37000
O 	O 	0.64750 0.62130 0.89350 -0.42400
O 	O 	0.58346 0.86486 0.86130 -0.33700
O 	O 	0.28530 0.94070 0.77660 -0.47200
O 	O 	0.20010 0.16470 0.83860 -0.36100
O 	O 	0.19980 0.10940 0.04470 -0.37000
O 	O 	0.40440 0.92360 0.11020 -0.34300
O 	O 	0.77140 0.65900 0.02490 -0.34700
O 	O 	0.77400 0.69060 0.90750 -0.32500
O 	O 	0.40690 0.01510 0.78850 -0.35900
O 	O 	0.62810 0.65830 0.79180 -0.35900
O 	O 	0.46750 0.80270 0.73900 -0.35200
O 	O 	0.57570 0.62570 0.67420 -0.41400
O 	O 	0.46030 0.64930 0.72290 -0.45800
O 	O 	0.35500 0.73640 0.82160 -0.45700
O 	O 	0.11230 0.06190 0.82470 -0.39000
O 	O 	0.10930 0.03730 0.91550 -0.34900
O 	O 	0.95040 0.08740 0.82420 -0.40900
O 	O 	0.62658 0.60098 0.98700 -0.32300
O 	O 	0.58640 0.53840 0.03640 -0.48000
O 	O 	0.46021 0.72141 0.02430 -0.40600
O 	O 	0.47757 0.56517 0.92640 -0.42400
O 	O 	0.10480 0.90660 0.80550 -0.26000
P 	P 	0.39679 0.80777 0.87445 0.52300
P 	P 	0.53709 0.60759 0.99375 0.56100
P 	P 	0.53087 0.68245 0.73111 0.54100
P 	P 	0.06929 0.02309 0.84231 0.47600
Mo	Mo	0.64595 0.73231 0.88856 1.18200
Mo	Mo	0.42027 0.93295 0.81511 1.19800
Mo	Mo	0.64398 0.70514 0.98178 1.19600
Mo	Mo	0.41622 0.86956 0.03486 1.17500
Mo	Mo	0.25101 0.01923 0.98212 1.17500
Mo	Mo	0.25277 0.05379 0.85531 1.17100
N 	N 	0.68300 0.37940 0.59870 -0.25400
N 	N 	0.83970 0.24750 0.61970 -0.19400
H 	H 	0.90700 0.20800 0.62570 0.15000
N 	N 	0.71860 0.15980 0.72910 -0.27800
N 	N 	0.55340 0.22420 0.71600 -0.22000
H 	H 	0.48800 0.27020 0.71480 0.16500
C 	C 	0.78540 0.35580 0.62800 0.09700
H 	H 	0.81210 0.40050 0.64820 0.01800
C 	C 	0.67630 0.29870 0.58940 0.00500
H 	H 	0.61350 0.30130 0.57690 0.04700
C 	C 	0.77810 0.20950 0.60140 0.02400
H 	H 	0.79730 0.14270 0.59770 0.04400
C 	C 	0.63070 0.24310 0.73800 0.16200
H 	H 	0.62140 0.31040 0.75800 -0.03300
C 	C 	0.70540 0.07600 0.70490 -0.00100
H 	H 	0.75750 0.00510 0.69620 0.04100
C 	C 	0.59980 0.11560 0.69560 0.04400
H 	H 	0.56750 0.07710 0.67920 0.05000
Na	Na	0.27457 0.78977 0.70599 0.58800
Zn	Zn	0.56104 0.52252 0.59271 1.22500
O 	O 	0.19274 0.53154 0.64680 -0.46500
O 	O 	0.07652 0.69492 0.60970 -0.46100
O 	O 	0.49000 0.44680 0.67450 -0.27500
O 	O 	0.22413 0.53593 0.56140 -0.42400
O 	O 	0.16822 0.39062 0.52920 -0.57500
O 	O 	0.97988 0.60028 0.59770 -0.54200
O 	O 	0.01662 0.60042 0.48000 -0.58200
O 	O 	0.87530 0.77290 0.55290 -0.35000
O 	O 	0.11149 0.72169 0.52130 -0.44100
O 	O 	0.19249 0.42129 0.44010 -0.36300
O 	O 	0.37870 0.35250 0.60650 -0.42800
O 	O 	0.13514 0.41654 0.63870 -0.36500
O 	O 	0.05930 0.71470 0.72340 -0.50200
O 	O 	0.83530 0.79990 0.66140 -0.33500
O 	O 	0.89060 0.80020 0.45530 -0.32300
O 	O 	0.07640 0.59560 0.38980 -0.35900
O 	O 	0.34100 0.22860 0.47510 -0.34200
O 	O 	0.30940 0.22600 0.59250 -0.34500
O 	O 	0.98490 0.59310 0.71150 -0.31100
O 	O 	0.34170 0.37190 0.70820 -0.36200
O 	O 	0.19730 0.53250 0.76100 -0.36100
O 	O 	0.37430 0.42430 0.82580 -0.41800
O 	O 	0.35070 0.53970 0.77710 -0.45800
O 	O 	0.26360 0.64500 0.67840 -0.45900
O 	O 	0.93810 0.88770 0.67530 -0.36000
O 	O 	0.96270 0.89070 0.58450 -0.32600
O 	O 	0.91260 0.04960 0.67580 -0.45200
O 	O 	0.39902 0.37342 0.51300 -0.33300
O 	O 	0.46160 0.41360 0.46360 -0.46100
O 	O 	0.27859 0.53979 0.47570 -0.38300
O 	O 	0.43483 0.52243 0.57360 -0.42300
O 	O 	0.09340 0.89520 0.69450 -0.29500
P 	P 	0.19223 0.60321 0.62555 0.52500
P 	P 	0.39241 0.46291 0.50625 0.52500
P 	P 	0.31755 0.46913 0.76889 0.54200
P 	P 	0.97691 0.93071 0.65769 0.57400
Mo	Mo	0.26769 0.35405 0.61144 1.18100
Mo	Mo	0.06705 0.57973 0.68489 1.16500
Mo	Mo	0.29486 0.35602 0.51822 1.18500
Mo	Mo	0.13044 0.58378 0.46514 1.18100
Mo	Mo	0.98077 0.74899 0.51788 1.19800
Mo	Mo	0.94621 0.74723 0.64469 1.19400
N 	N 	0.62060 0.31700 0.90130 -0.25200
N 	N 	0.75250 0.16030 0.88030 -0.19200
H 	H 	0.79200 0.09300 0.87430 0.14700
N 	N 	0.84020 0.28140 0.77090 -0.27400
N 	N 	0.77580 0.44660 0.78400 -0.22000
H 	H 	0.72980 0.51200 0.78520 0.16700
C 	C 	0.64420 0.21460 0.87200 0.09800
H 	H 	0.59950 0.18790 0.85180 0.01500
C 	C 	0.70130 0.32370 0.91060 0.01100
H 	H 	0.69870 0.38650 0.92310 0.05200
C 	C 	0.79050 0.22190 0.89860 0.02500
H 	H 	0.85730 0.20270 0.90230 0.05600
C 	C 	0.75690 0.36930 0.76200 0.16400
H 	H 	0.68960 0.37860 0.74200 -0.03400
C 	C 	0.92400 0.29460 0.79510 0.00300
H 	H 	0.99490 0.24250 0.80380 0.06300
C 	C 	0.88440 0.40020 0.80440 0.05200
H 	H 	0.92290 0.43250 0.82080 0.06400
Na	Na	0.21023 0.72543 0.79401 0.58800
Zn	Zn	0.47748 0.43896 0.90729 1.22600
Mn	Mn	0.50000 0.00000 -0.00000 1.29700
Mn	Mn	-0.00000 0.50000 0.50000 1.30700
Mn	Mn	0.58248 0.41752 0.25000 1.30500
Zn	Zn	0.14334 0.85666 0.25000 1.21300
Mn	Mn	0.41752 0.58248 0.75000 1.30500
Zn	Zn	0.85666 0.14334 0.75000 1.21300
