data_crystal

_cell_length_a 29.75600
_cell_length_b 29.00000
_cell_length_c 7.62620
_cell_angle_alpha 90.00000
_cell_angle_beta  90.00000
_cell_angle_gamma 90.00000

_symmetry_space_group_name_	'P 1'
_symmetry_space_group_name_H-M	'P 1'

loop_
_symmetry_equiv_pos_as_xyz
  x,y,z

loop_
_atom_site_label
_atom_site_type_symbol
_atom_site_fract_x
_atom_site_fract_y
_atom_site_fract_z
_atom_site_charge
C 	C 	0.93270 0.10310 0.89770 0.10300
H 	H 	0.94290 0.11560 0.00580 -0.04100
C 	C 	0.90180 0.06750 0.90260 -0.17900
H 	H 	0.89240 0.05530 0.01230 0.09100
C 	C 	0.76950 0.93600 0.90900 -0.05800
H 	H 	0.78140 0.94590 0.01820 0.05300
C 	C 	0.73460 0.90360 0.90200 -0.04900
H 	H 	0.72280 0.89160 0.00870 0.04700
C 	C 	0.56730 0.74310 0.88700 0.18000
H 	H 	0.55470 0.73380 0.99600 -0.07000
C 	C 	0.60280 0.77360 0.89600 -0.28600
H 	H 	0.61600 0.78170 0.00540 0.12200
C 	C 	0.43270 0.60310 0.89770 0.10200
H 	H 	0.44290 0.61560 0.00580 -0.04600
C 	C 	0.40180 0.56750 0.90260 -0.18100
H 	H 	0.39240 0.55530 0.01230 0.09000
C 	C 	0.26950 0.43600 0.90900 -0.05900
H 	H 	0.28140 0.44590 0.01820 0.05300
C 	C 	0.23460 0.40360 0.90200 -0.04900
H 	H 	0.22280 0.39160 0.00870 0.04600
C 	C 	0.06730 0.24310 0.88700 0.18000
H 	H 	0.05470 0.23380 0.99600 -0.07500
C 	C 	0.10280 0.27360 0.89600 -0.28900
H 	H 	0.11600 0.28170 0.00540 0.12200
C 	C 	0.06730 0.10310 0.60230 0.09900
H 	H 	0.05710 0.11560 0.49420 -0.04900
C 	C 	0.09820 0.06750 0.59740 -0.18200
H 	H 	0.10760 0.05530 0.48770 0.09000
C 	C 	0.23050 0.93600 0.59100 -0.05800
H 	H 	0.21860 0.94590 0.48180 0.05300
C 	C 	0.26540 0.90360 0.59800 -0.04900
H 	H 	0.27720 0.89160 0.49130 0.04700
C 	C 	0.43270 0.74310 0.61300 0.18100
H 	H 	0.44530 0.73380 0.50400 -0.07100
C 	C 	0.39720 0.77360 0.60400 -0.28700
H 	H 	0.38400 0.78170 0.49460 0.12300
C 	C 	0.56730 0.60310 0.60230 0.10100
H 	H 	0.55710 0.61560 0.49420 -0.04600
C 	C 	0.59820 0.56750 0.59740 -0.18100
H 	H 	0.60760 0.55530 0.48770 0.09000
C 	C 	0.73050 0.43600 0.59100 -0.05800
H 	H 	0.71860 0.44590 0.48180 0.05300
C 	C 	0.76540 0.40360 0.59800 -0.04900
H 	H 	0.77720 0.39160 0.49130 0.04800
C 	C 	0.93270 0.24310 0.61300 0.18100
H 	H 	0.94530 0.23380 0.50400 -0.06500
C 	C 	0.89720 0.27360 0.60400 -0.28400
H 	H 	0.88400 0.28170 0.49460 0.12400
C 	C 	0.93270 0.10310 0.60230 0.10300
H 	H 	0.94290 0.11560 0.49420 -0.04100
C 	C 	0.90180 0.06750 0.59740 -0.17900
H 	H 	0.89240 0.05530 0.48770 0.09100
C 	C 	0.76950 0.93600 0.59100 -0.05800
H 	H 	0.78140 0.94590 0.48180 0.05300
C 	C 	0.73460 0.90360 0.59800 -0.04900
H 	H 	0.72280 0.89160 0.49130 0.04700
C 	C 	0.56730 0.74310 0.61300 0.18100
H 	H 	0.55470 0.73380 0.50400 -0.07100
C 	C 	0.60280 0.77360 0.60400 -0.28700
H 	H 	0.61600 0.78170 0.49460 0.12300
C 	C 	0.43270 0.60310 0.60230 0.10100
H 	H 	0.44290 0.61560 0.49420 -0.04600
C 	C 	0.40180 0.56750 0.59740 -0.18100
H 	H 	0.39240 0.55530 0.48770 0.09000
C 	C 	0.26950 0.43600 0.59100 -0.05900
H 	H 	0.28140 0.44590 0.48180 0.05300
C 	C 	0.23460 0.40360 0.59800 -0.04900
H 	H 	0.22280 0.39160 0.49130 0.04600
C 	C 	0.06730 0.24310 0.61300 0.18000
H 	H 	0.05470 0.23380 0.50400 -0.07500
C 	C 	0.10280 0.27360 0.60400 -0.29000
H 	H 	0.11600 0.28170 0.49460 0.12200
C 	C 	0.06730 0.10310 0.89770 0.10000
H 	H 	0.05710 0.11560 0.00580 -0.05000
C 	C 	0.09820 0.06750 0.90260 -0.18200
H 	H 	0.10760 0.05530 0.01230 0.08900
C 	C 	0.23050 0.93600 0.90900 -0.05800
H 	H 	0.21860 0.94590 0.01820 0.05300
C 	C 	0.26540 0.90360 0.90200 -0.04900
H 	H 	0.27720 0.89160 0.00870 0.04700
C 	C 	0.43270 0.74310 0.88700 0.18000
H 	H 	0.44530 0.73380 0.99600 -0.07000
C 	C 	0.39720 0.77360 0.89600 -0.28600
H 	H 	0.38400 0.78170 0.00540 0.12200
C 	C 	0.56730 0.60310 0.89770 0.10200
H 	H 	0.55710 0.61560 0.00580 -0.04600
C 	C 	0.59820 0.56750 0.90260 -0.18100
H 	H 	0.60760 0.55530 0.01230 0.09000
C 	C 	0.73050 0.43600 0.90900 -0.05800
H 	H 	0.71860 0.44590 0.01820 0.05300
C 	C 	0.76540 0.40360 0.90200 -0.04900
H 	H 	0.77720 0.39160 0.00870 0.04700
C 	C 	0.93270 0.24310 0.88700 0.18100
H 	H 	0.94530 0.23380 0.99600 -0.06500
C 	C 	0.89720 0.27360 0.89600 -0.28300
H 	H 	0.88400 0.28170 0.00540 0.12300
Zn	Zn	0.50000 0.67302 0.75000 1.15000
Zn	Zn	0.00000 0.17302 0.75000 1.14200
C 	C 	0.65200 0.82490 0.75000 -0.10800
N 	N 	0.54970 0.72610 0.75000 -0.32600
C 	C 	0.88470 0.04970 0.75000 0.12400
C 	C 	0.82090 0.98710 0.75000 -0.00300
C 	C 	0.61780 0.79090 0.75000 0.23700
C 	C 	0.78680 0.95360 0.75000 0.01900
C 	C 	0.71770 0.88930 0.75000 0.01200
C 	C 	0.68000 0.85770 0.75000 0.01900
C 	C 	0.84990 0.01480 0.75000 -0.06900
N 	N 	0.94900 0.12080 0.75000 -0.27900
C 	C 	0.15200 0.32490 0.75000 -0.11000
N 	N 	0.04970 0.22610 0.75000 -0.33000
C 	C 	0.38470 0.54970 0.75000 0.12300
C 	C 	0.32090 0.48710 0.75000 -0.00300
C 	C 	0.11780 0.29090 0.75000 0.23700
C 	C 	0.28680 0.45360 0.75000 0.01900
C 	C 	0.21770 0.38930 0.75000 0.01100
C 	C 	0.18000 0.35770 0.75000 0.01800
C 	C 	0.34990 0.51480 0.75000 -0.07000
N 	N 	0.44900 0.62080 0.75000 -0.28500
C 	C 	0.34800 0.82490 0.75000 -0.10800
N 	N 	0.45030 0.72610 0.75000 -0.32600
C 	C 	0.11530 0.04970 0.75000 0.12300
C 	C 	0.17910 0.98710 0.75000 -0.00300
C 	C 	0.38220 0.79090 0.75000 0.23700
C 	C 	0.21320 0.95360 0.75000 0.01800
C 	C 	0.28230 0.88930 0.75000 0.01200
C 	C 	0.32000 0.85770 0.75000 0.01900
C 	C 	0.15010 0.01480 0.75000 -0.07100
N 	N 	0.05100 0.12080 0.75000 -0.28900
C 	C 	0.84800 0.32490 0.75000 -0.10600
N 	N 	0.95030 0.22610 0.75000 -0.32000
C 	C 	0.61530 0.54970 0.75000 0.12300
C 	C 	0.67910 0.48710 0.75000 -0.00300
C 	C 	0.88220 0.29090 0.75000 0.23700
C 	C 	0.71320 0.45360 0.75000 0.01800
C 	C 	0.78230 0.38930 0.75000 0.01300
C 	C 	0.82000 0.35770 0.75000 0.02000
C 	C 	0.65010 0.51480 0.75000 -0.07000
N 	N 	0.55100 0.62080 0.75000 -0.28500
C 	C 	0.06730 0.89690 0.39770 0.09900
H 	H 	0.05710 0.88440 0.50580 -0.04900
C 	C 	0.09820 0.93250 0.40260 -0.18200
H 	H 	0.10760 0.94470 0.51230 0.09000
C 	C 	0.23050 0.06400 0.40900 -0.05800
H 	H 	0.21860 0.05410 0.51820 0.05300
C 	C 	0.26540 0.09640 0.40200 -0.04900
H 	H 	0.27720 0.10840 0.50870 0.04700
C 	C 	0.43270 0.25690 0.38700 0.18100
H 	H 	0.44530 0.26620 0.49600 -0.07100
C 	C 	0.39720 0.22640 0.39600 -0.28700
H 	H 	0.38400 0.21830 0.50540 0.12300
C 	C 	0.56730 0.39690 0.39770 0.10100
H 	H 	0.55710 0.38440 0.50580 -0.04600
C 	C 	0.59820 0.43250 0.40260 -0.18100
H 	H 	0.60760 0.44470 0.51230 0.09000
C 	C 	0.73050 0.56400 0.40900 -0.05800
H 	H 	0.71860 0.55410 0.51820 0.05300
C 	C 	0.76540 0.59640 0.40200 -0.04900
H 	H 	0.77720 0.60840 0.50870 0.04800
C 	C 	0.93270 0.75690 0.38700 0.18100
H 	H 	0.94530 0.76620 0.49600 -0.06500
C 	C 	0.89720 0.72640 0.39600 -0.28400
H 	H 	0.88400 0.71830 0.50540 0.12400
C 	C 	0.93270 0.89690 0.10230 0.10300
H 	H 	0.94290 0.88440 0.99420 -0.04100
C 	C 	0.90180 0.93250 0.09740 -0.17900
H 	H 	0.89240 0.94470 0.98770 0.09100
C 	C 	0.76950 0.06400 0.09100 -0.05800
H 	H 	0.78140 0.05410 0.98180 0.05300
C 	C 	0.73460 0.09640 0.09800 -0.04900
H 	H 	0.72280 0.10840 0.99130 0.04700
C 	C 	0.56730 0.25690 0.11300 0.18000
H 	H 	0.55470 0.26620 0.00400 -0.07000
C 	C 	0.60280 0.22640 0.10400 -0.28600
H 	H 	0.61600 0.21830 0.99460 0.12200
C 	C 	0.43270 0.39690 0.10230 0.10200
H 	H 	0.44290 0.38440 0.99420 -0.04600
C 	C 	0.40180 0.43250 0.09740 -0.18100
H 	H 	0.39240 0.44470 0.98770 0.09000
C 	C 	0.26950 0.56400 0.09100 -0.05900
H 	H 	0.28140 0.55410 0.98180 0.05300
C 	C 	0.23460 0.59640 0.09800 -0.04900
H 	H 	0.22280 0.60840 0.99130 0.04600
C 	C 	0.06730 0.75690 0.11300 0.18000
H 	H 	0.05470 0.76620 0.00400 -0.07500
C 	C 	0.10280 0.72640 0.10400 -0.28900
H 	H 	0.11600 0.71830 0.99460 0.12200
C 	C 	0.06730 0.89690 0.10230 0.10000
H 	H 	0.05710 0.88440 0.99420 -0.05000
C 	C 	0.09820 0.93250 0.09740 -0.18200
H 	H 	0.10760 0.94470 0.98770 0.08900
C 	C 	0.23050 0.06400 0.09100 -0.05800
H 	H 	0.21860 0.05410 0.98180 0.05300
C 	C 	0.26540 0.09640 0.09800 -0.04900
H 	H 	0.27720 0.10840 0.99130 0.04700
C 	C 	0.43270 0.25690 0.11300 0.18000
H 	H 	0.44530 0.26620 0.00400 -0.07000
C 	C 	0.39720 0.22640 0.10400 -0.28600
H 	H 	0.38400 0.21830 0.99460 0.12200
C 	C 	0.56730 0.39690 0.10230 0.10200
H 	H 	0.55710 0.38440 0.99420 -0.04600
C 	C 	0.59820 0.43250 0.09740 -0.18100
H 	H 	0.60760 0.44470 0.98770 0.09000
C 	C 	0.73050 0.56400 0.09100 -0.05800
H 	H 	0.71860 0.55410 0.98180 0.05300
C 	C 	0.76540 0.59640 0.09800 -0.04900
H 	H 	0.77720 0.60840 0.99130 0.04700
C 	C 	0.93270 0.75690 0.11300 0.18100
H 	H 	0.94530 0.76620 0.00400 -0.06500
C 	C 	0.89720 0.72640 0.10400 -0.28300
H 	H 	0.88400 0.71830 0.99460 0.12300
C 	C 	0.93270 0.89690 0.39770 0.10300
H 	H 	0.94290 0.88440 0.50580 -0.04100
C 	C 	0.90180 0.93250 0.40260 -0.17900
H 	H 	0.89240 0.94470 0.51230 0.09100
C 	C 	0.76950 0.06400 0.40900 -0.05800
H 	H 	0.78140 0.05410 0.51820 0.05300
C 	C 	0.73460 0.09640 0.40200 -0.04900
H 	H 	0.72280 0.10840 0.50870 0.04700
C 	C 	0.56730 0.25690 0.38700 0.18100
H 	H 	0.55470 0.26620 0.49600 -0.07100
C 	C 	0.60280 0.22640 0.39600 -0.28700
H 	H 	0.61600 0.21830 0.50540 0.12300
C 	C 	0.43270 0.39690 0.39770 0.10100
H 	H 	0.44290 0.38440 0.50580 -0.04600
C 	C 	0.40180 0.43250 0.40260 -0.18100
H 	H 	0.39240 0.44470 0.51230 0.09000
C 	C 	0.26950 0.56400 0.40900 -0.05900
H 	H 	0.28140 0.55410 0.51820 0.05300
C 	C 	0.23460 0.59640 0.40200 -0.04900
H 	H 	0.22280 0.60840 0.50870 0.04600
C 	C 	0.06730 0.75690 0.38700 0.18000
H 	H 	0.05470 0.76620 0.49600 -0.07500
C 	C 	0.10280 0.72640 0.39600 -0.29000
H 	H 	0.11600 0.71830 0.50540 0.12200
Zn	Zn	0.50000 0.32698 0.25000 1.15000
Zn	Zn	0.00000 0.82698 0.25000 1.14200
C 	C 	0.34800 0.17510 0.25000 -0.10800
N 	N 	0.45030 0.27390 0.25000 -0.32600
C 	C 	0.11530 0.95030 0.25000 0.12300
C 	C 	0.17910 0.01290 0.25000 -0.00300
C 	C 	0.38220 0.20910 0.25000 0.23700
C 	C 	0.21320 0.04640 0.25000 0.01800
C 	C 	0.28230 0.11070 0.25000 0.01200
C 	C 	0.32000 0.14230 0.25000 0.01900
C 	C 	0.15010 0.98520 0.25000 -0.07100
N 	N 	0.05100 0.87920 0.25000 -0.28900
C 	C 	0.84800 0.67510 0.25000 -0.10600
N 	N 	0.95030 0.77390 0.25000 -0.32000
C 	C 	0.61530 0.45030 0.25000 0.12300
C 	C 	0.67910 0.51290 0.25000 -0.00300
C 	C 	0.88220 0.70910 0.25000 0.23700
C 	C 	0.71320 0.54640 0.25000 0.01800
C 	C 	0.78230 0.61070 0.25000 0.01300
C 	C 	0.82000 0.64230 0.25000 0.02000
C 	C 	0.65010 0.48520 0.25000 -0.07000
N 	N 	0.55100 0.37920 0.25000 -0.28500
C 	C 	0.65200 0.17510 0.25000 -0.10800
N 	N 	0.54970 0.27390 0.25000 -0.32600
C 	C 	0.88470 0.95030 0.25000 0.12400
C 	C 	0.82090 0.01290 0.25000 -0.00300
C 	C 	0.61780 0.20910 0.25000 0.23700
C 	C 	0.78680 0.04640 0.25000 0.01900
C 	C 	0.71770 0.11070 0.25000 0.01200
C 	C 	0.68000 0.14230 0.25000 0.01900
C 	C 	0.84990 0.98520 0.25000 -0.06900
N 	N 	0.94900 0.87920 0.25000 -0.27900
C 	C 	0.15200 0.67510 0.25000 -0.11000
N 	N 	0.04970 0.77390 0.25000 -0.33000
C 	C 	0.38470 0.45030 0.25000 0.12300
C 	C 	0.32090 0.51290 0.25000 -0.00300
C 	C 	0.11780 0.70910 0.25000 0.23700
C 	C 	0.28680 0.54640 0.25000 0.01900
C 	C 	0.21770 0.61070 0.25000 0.01100
C 	C 	0.18000 0.64230 0.25000 0.01800
C 	C 	0.34990 0.48520 0.25000 -0.07000
N 	N 	0.44900 0.37920 0.25000 -0.28500
