data_crystal

_cell_length_a 7.88490
_cell_length_b 36.83280
_cell_length_c 26.76560
_cell_angle_alpha 90.00000
_cell_angle_beta  90.00000
_cell_angle_gamma 90.00000

_symmetry_space_group_name_	'P 1'
_symmetry_space_group_name_H-M	'P 1'

loop_
_symmetry_equiv_pos_as_xyz
  x,y,z

loop_
_atom_site_label
_atom_site_type_symbol
_atom_site_fract_x
_atom_site_fract_y
_atom_site_fract_z
_atom_site_charge
Zn	Zn	0.86761 0.20475 0.13361 1.25200
F 	F 	0.86570 0.12807 0.98747 -0.44200
F 	F 	0.06910 0.14840 0.94362 -0.42500
F 	F 	0.86100 0.12251 0.90763 -0.39200
F 	F 	0.37790 0.33225 0.76384 -0.41100
F 	F 	0.58540 0.32216 0.71340 -0.43400
F 	F 	0.63360 0.33457 0.79030 -0.40000
F 	F 	0.89570 0.12190 0.24015 -0.41800
F 	F 	0.16150 0.11809 0.22430 -0.38500
F 	F 	0.03500 0.07635 0.26734 -0.40000
O 	O 	0.78990 0.21544 0.06640 -0.40200
O 	O 	0.00940 0.18668 0.03393 -0.20300
O 	O 	0.29520 0.28299 0.68615 -0.37800
O 	O 	0.44100 0.23839 0.65078 -0.42600
O 	O 	0.96990 0.15683 0.14667 -0.33200
O 	O 	0.71230 0.14195 0.12192 -0.20600
C 	C 	0.87140 0.20118 0.03092 0.28800
C 	C 	0.78910 0.20499 0.98005 0.07800
C 	C 	0.80880 0.18073 0.94015 -0.14200
C 	C 	0.74080 0.18875 0.89355 0.04200
H 	H 	0.75540 0.17200 0.86690 0.12700
C 	C 	0.65140 0.22086 0.88506 0.01100
C 	C 	0.62880 0.24442 0.92540 -0.01300
H 	H 	0.56640 0.26620 0.92070 0.07500
C 	C 	0.69470 0.23675 0.97180 -0.05400
H 	H 	0.67620 0.25320 0.99860 0.10600
C 	C 	0.90110 0.14540 0.94540 0.88300
C 	C 	0.58770 0.23012 0.83463 0.03700
C 	C 	0.58260 0.26609 0.81932 0.00400
H 	H 	0.61970 0.28450 0.84170 0.09800
C 	C 	0.52490 0.27601 0.77221 -0.11200
C 	C 	0.47260 0.24934 0.73891 -0.01700
C 	C 	0.48080 0.21355 0.75350 0.00400
H 	H 	0.44970 0.19510 0.73040 0.11200
C 	C 	0.53300 0.20369 0.80085 -0.03000
H 	H 	0.53170 0.17890 0.81050 0.15600
C 	C 	0.52910 0.31584 0.75958 0.84400
C 	C 	0.40090 0.25726 0.68783 0.39200
C 	C 	0.85890 0.13420 0.13620 0.30800
C 	C 	0.90590 0.09406 0.13910 0.09500
C 	C 	0.98150 0.07772 0.18130 -0.12900
C 	C 	0.01810 0.04087 0.18010 0.05900
H 	H 	0.06930 0.02960 0.20820 0.10900
C 	C 	0.98000 0.02014 0.13740 0.02200
C 	C 	0.91850 0.03734 0.09650 0.00500
H 	H 	0.90210 0.02400 0.06650 0.08900
C 	C 	0.87960 0.07362 0.09760 -0.05600
H 	H 	0.83310 0.08470 0.06860 0.14000
C 	C 	0.01600 0.09835 0.22800 0.86900
Zn	Zn	0.86761 0.70475 0.63361 1.25200
F 	F 	0.86570 0.62807 0.48747 -0.45200
F 	F 	0.06910 0.64840 0.44362 -0.42900
F 	F 	0.86100 0.62251 0.40763 -0.39400
F 	F 	0.37790 0.83225 0.26384 -0.41100
F 	F 	0.58540 0.82216 0.21340 -0.43500
F 	F 	0.63360 0.83457 0.29030 -0.40100
F 	F 	0.89570 0.62190 0.74015 -0.41800
F 	F 	0.16150 0.61809 0.72430 -0.38400
F 	F 	0.03500 0.57635 0.76734 -0.39800
O 	O 	0.78990 0.71544 0.56640 -0.40100
O 	O 	0.00940 0.68668 0.53393 -0.19800
O 	O 	0.29520 0.78299 0.18615 -0.37800
O 	O 	0.44100 0.73839 0.15078 -0.42800
O 	O 	0.96990 0.65683 0.64667 -0.33100
O 	O 	0.71230 0.64195 0.62192 -0.20300
C 	C 	0.87140 0.70118 0.53092 0.31400
C 	C 	0.78910 0.70499 0.48005 0.04900
C 	C 	0.80880 0.68073 0.44015 -0.13400
C 	C 	0.74080 0.68875 0.39355 0.03400
H 	H 	0.75540 0.67200 0.36690 0.12900
C 	C 	0.65140 0.72086 0.38506 0.01800
C 	C 	0.62880 0.74442 0.42540 -0.02500
H 	H 	0.56640 0.76620 0.42070 0.07800
C 	C 	0.69470 0.73675 0.47180 -0.03900
H 	H 	0.67620 0.75320 0.49860 0.09300
C 	C 	0.90110 0.64540 0.44540 0.87900
C 	C 	0.58770 0.73012 0.33463 0.03300
C 	C 	0.58260 0.76609 0.31932 0.00700
H 	H 	0.61970 0.78450 0.34170 0.09600
C 	C 	0.52490 0.77601 0.27221 -0.11300
C 	C 	0.47260 0.74934 0.23891 -0.01600
C 	C 	0.48080 0.71355 0.25350 0.00200
H 	H 	0.44970 0.69510 0.23040 0.11200
C 	C 	0.53300 0.70369 0.30085 -0.02700
H 	H 	0.53170 0.67890 0.31050 0.15500
C 	C 	0.52910 0.81584 0.25958 0.84500
C 	C 	0.40090 0.75726 0.18783 0.39200
C 	C 	0.85890 0.63420 0.63620 0.30800
C 	C 	0.90590 0.59406 0.63910 0.09700
C 	C 	0.98150 0.57772 0.68130 -0.12900
C 	C 	0.01810 0.54087 0.68010 0.06000
H 	H 	0.06930 0.52960 0.70820 0.10900
C 	C 	0.98000 0.52014 0.63740 0.02200
C 	C 	0.91850 0.53734 0.59650 0.00700
H 	H 	0.90210 0.52400 0.56650 0.09300
C 	C 	0.87960 0.57362 0.59760 -0.05600
H 	H 	0.83310 0.58470 0.56860 0.14500
C 	C 	0.01600 0.59835 0.72800 0.86900
Zn	Zn	0.13239 0.79525 0.13361 1.25100
F 	F 	0.13430 0.87193 0.98747 -0.44300
F 	F 	0.93090 0.85160 0.94362 -0.42500
F 	F 	0.13900 0.87749 0.90763 -0.39200
F 	F 	0.62210 0.66775 0.76384 -0.41100
F 	F 	0.41460 0.67784 0.71340 -0.43400
F 	F 	0.36640 0.66543 0.79030 -0.40000
F 	F 	0.10430 0.87810 0.24015 -0.41800
F 	F 	0.83850 0.88191 0.22430 -0.38500
F 	F 	0.96500 0.92365 0.26734 -0.40000
O 	O 	0.21010 0.78456 0.06640 -0.40200
O 	O 	0.99060 0.81332 0.03393 -0.20300
O 	O 	0.70480 0.71701 0.68615 -0.37800
O 	O 	0.55900 0.76161 0.65078 -0.42600
O 	O 	0.03010 0.84317 0.14667 -0.33200
O 	O 	0.28770 0.85805 0.12192 -0.20600
C 	C 	0.12860 0.79882 0.03092 0.28800
C 	C 	0.21090 0.79501 0.98005 0.07800
C 	C 	0.19120 0.81927 0.94015 -0.14200
C 	C 	0.25920 0.81125 0.89355 0.04200
H 	H 	0.24460 0.82800 0.86690 0.12700
C 	C 	0.34860 0.77914 0.88506 0.01100
C 	C 	0.37120 0.75558 0.92540 -0.01300
H 	H 	0.43360 0.73380 0.92070 0.07500
C 	C 	0.30530 0.76325 0.97180 -0.05400
H 	H 	0.32380 0.74680 0.99860 0.10600
C 	C 	0.09890 0.85460 0.94540 0.88300
C 	C 	0.41230 0.76988 0.83463 0.03700
C 	C 	0.41740 0.73391 0.81932 0.00400
H 	H 	0.38030 0.71550 0.84170 0.09800
C 	C 	0.47510 0.72399 0.77221 -0.11200
C 	C 	0.52740 0.75066 0.73891 -0.01700
C 	C 	0.51920 0.78645 0.75350 0.00400
H 	H 	0.55030 0.80490 0.73040 0.11200
C 	C 	0.46700 0.79631 0.80085 -0.03000
H 	H 	0.46830 0.82110 0.81050 0.15600
C 	C 	0.47090 0.68416 0.75958 0.84400
C 	C 	0.59910 0.74274 0.68783 0.39200
C 	C 	0.14110 0.86580 0.13620 0.30800
C 	C 	0.09410 0.90594 0.13910 0.09500
C 	C 	0.01850 0.92228 0.18130 -0.12900
C 	C 	0.98190 0.95913 0.18010 0.05900
H 	H 	0.93070 0.97040 0.20820 0.10900
C 	C 	0.02000 0.97986 0.13740 0.02200
C 	C 	0.08150 0.96266 0.09650 0.00500
H 	H 	0.09790 0.97600 0.06650 0.08900
C 	C 	0.12040 0.92638 0.09760 -0.05600
H 	H 	0.16690 0.91530 0.06860 0.14000
C 	C 	0.98400 0.90165 0.22800 0.86900
Zn	Zn	0.13239 0.29525 0.63361 1.25200
F 	F 	0.13430 0.37193 0.48747 -0.45200
F 	F 	0.93090 0.35160 0.44362 -0.42900
F 	F 	0.13900 0.37749 0.40763 -0.39400
F 	F 	0.62210 0.16775 0.26384 -0.41100
F 	F 	0.41460 0.17784 0.21340 -0.43500
F 	F 	0.36640 0.16543 0.29030 -0.40100
F 	F 	0.10430 0.37810 0.74015 -0.41800
F 	F 	0.83850 0.38191 0.72430 -0.38400
F 	F 	0.96500 0.42365 0.76734 -0.39800
O 	O 	0.21010 0.28456 0.56640 -0.40100
O 	O 	0.99060 0.31332 0.53393 -0.19800
O 	O 	0.70480 0.21701 0.18615 -0.37800
O 	O 	0.55900 0.26161 0.15078 -0.42800
O 	O 	0.03010 0.34317 0.64667 -0.33100
O 	O 	0.28770 0.35805 0.62192 -0.20300
C 	C 	0.12860 0.29882 0.53092 0.31400
C 	C 	0.21090 0.29501 0.48005 0.04900
C 	C 	0.19120 0.31927 0.44015 -0.13400
C 	C 	0.25920 0.31125 0.39355 0.03400
H 	H 	0.24460 0.32800 0.36690 0.12900
C 	C 	0.34860 0.27914 0.38506 0.01800
C 	C 	0.37120 0.25558 0.42540 -0.02500
H 	H 	0.43360 0.23380 0.42070 0.07800
C 	C 	0.30530 0.26325 0.47180 -0.03900
H 	H 	0.32380 0.24680 0.49860 0.09300
C 	C 	0.09890 0.35460 0.44540 0.87900
C 	C 	0.41230 0.26988 0.33463 0.03300
C 	C 	0.41740 0.23391 0.31932 0.00700
H 	H 	0.38030 0.21550 0.34170 0.09600
C 	C 	0.47510 0.22399 0.27221 -0.11300
C 	C 	0.52740 0.25066 0.23891 -0.01600
C 	C 	0.51920 0.28645 0.25350 0.00200
H 	H 	0.55030 0.30490 0.23040 0.11200
C 	C 	0.46700 0.29631 0.30085 -0.02700
H 	H 	0.46830 0.32110 0.31050 0.15500
C 	C 	0.47090 0.18416 0.25958 0.84500
C 	C 	0.59910 0.24274 0.18783 0.39200
C 	C 	0.14110 0.36580 0.63620 0.30800
C 	C 	0.09410 0.40594 0.63910 0.09700
C 	C 	0.01850 0.42228 0.68130 -0.12900
C 	C 	0.98190 0.45913 0.68010 0.06000
H 	H 	0.93070 0.47040 0.70820 0.10900
C 	C 	0.02000 0.47986 0.63740 0.02200
C 	C 	0.08150 0.46266 0.59650 0.00700
H 	H 	0.09790 0.47600 0.56650 0.09300
C 	C 	0.12040 0.42638 0.59760 -0.05600
H 	H 	0.16690 0.41530 0.56860 0.14500
C 	C 	0.98400 0.40165 0.72800 0.86900
Zn	Zn	0.36761 0.29525 0.13361 1.25100
F 	F 	0.36570 0.37193 0.98747 -0.44300
F 	F 	0.56910 0.35160 0.94362 -0.42500
F 	F 	0.36100 0.37749 0.90763 -0.39200
F 	F 	0.87790 0.16775 0.76384 -0.41100
F 	F 	0.08540 0.17784 0.71340 -0.43400
F 	F 	0.13360 0.16543 0.79030 -0.40000
F 	F 	0.39570 0.37810 0.24015 -0.41800
F 	F 	0.66150 0.38191 0.22430 -0.38500
F 	F 	0.53500 0.42365 0.26734 -0.40000
O 	O 	0.28990 0.28456 0.06640 -0.40200
O 	O 	0.50940 0.31332 0.03393 -0.20500
O 	O 	0.79520 0.21701 0.68615 -0.37700
O 	O 	0.94100 0.26161 0.65078 -0.42500
O 	O 	0.46990 0.34317 0.14667 -0.33100
O 	O 	0.21230 0.35805 0.12192 -0.20600
C 	C 	0.37140 0.29882 0.03092 0.29000
C 	C 	0.28910 0.29501 0.98005 0.07700
C 	C 	0.30880 0.31927 0.94015 -0.14200
C 	C 	0.24080 0.31125 0.89355 0.04200
H 	H 	0.25540 0.32800 0.86690 0.12700
C 	C 	0.15140 0.27914 0.88506 0.01100
C 	C 	0.12880 0.25558 0.92540 -0.01300
H 	H 	0.06640 0.23380 0.92070 0.07600
C 	C 	0.19470 0.26325 0.97180 -0.05300
H 	H 	0.17620 0.24680 0.99860 0.10600
C 	C 	0.40110 0.35460 0.94540 0.88400
C 	C 	0.08770 0.26988 0.83463 0.03700
C 	C 	0.08260 0.23391 0.81932 0.00500
H 	H 	0.11970 0.21550 0.84170 0.09800
C 	C 	0.02490 0.22399 0.77221 -0.11300
C 	C 	0.97260 0.25066 0.73891 -0.01600
C 	C 	0.98080 0.28645 0.75350 0.00400
H 	H 	0.94970 0.30490 0.73040 0.11200
C 	C 	0.03300 0.29631 0.80085 -0.03000
H 	H 	0.03170 0.32110 0.81050 0.15700
C 	C 	0.02910 0.18416 0.75958 0.84400
C 	C 	0.90090 0.24274 0.68783 0.39200
C 	C 	0.35890 0.36580 0.13620 0.30800
C 	C 	0.40590 0.40594 0.13910 0.09500
C 	C 	0.48150 0.42228 0.18130 -0.12700
C 	C 	0.51810 0.45913 0.18010 0.05700
H 	H 	0.56930 0.47040 0.20820 0.10900
C 	C 	0.48000 0.47986 0.13740 0.02200
C 	C 	0.41850 0.46266 0.09650 0.00500
H 	H 	0.40210 0.47600 0.06650 0.08900
C 	C 	0.37960 0.42638 0.09760 -0.05500
H 	H 	0.33310 0.41530 0.06860 0.14000
C 	C 	0.51600 0.40165 0.22800 0.86700
Zn	Zn	0.36761 0.79525 0.63361 1.25200
F 	F 	0.36570 0.87193 0.48747 -0.45200
F 	F 	0.56910 0.85160 0.44362 -0.42900
F 	F 	0.36100 0.87749 0.40763 -0.39400
F 	F 	0.87790 0.66775 0.26384 -0.41100
F 	F 	0.08540 0.67784 0.21340 -0.43500
F 	F 	0.13360 0.66543 0.29030 -0.40100
F 	F 	0.39570 0.87810 0.74015 -0.41700
F 	F 	0.66150 0.88191 0.72430 -0.38400
F 	F 	0.53500 0.92365 0.76734 -0.39800
O 	O 	0.28990 0.78456 0.56640 -0.40100
O 	O 	0.50940 0.81332 0.53393 -0.20100
O 	O 	0.79520 0.71701 0.18615 -0.37800
O 	O 	0.94100 0.76161 0.15078 -0.42700
O 	O 	0.46990 0.84317 0.64667 -0.33000
O 	O 	0.21230 0.85805 0.62192 -0.20300
C 	C 	0.37140 0.79882 0.53092 0.31700
C 	C 	0.28910 0.79501 0.48005 0.04800
C 	C 	0.30880 0.81927 0.44015 -0.13300
C 	C 	0.24080 0.81125 0.39355 0.03400
H 	H 	0.25540 0.82800 0.36690 0.13000
C 	C 	0.15140 0.77914 0.38506 0.01800
C 	C 	0.12880 0.75558 0.42540 -0.02500
H 	H 	0.06640 0.73380 0.42070 0.07900
C 	C 	0.19470 0.76325 0.47180 -0.03800
H 	H 	0.17620 0.74680 0.49860 0.09300
C 	C 	0.40110 0.85460 0.44540 0.88000
C 	C 	0.08770 0.76988 0.33463 0.03300
C 	C 	0.08260 0.73391 0.31932 0.00700
H 	H 	0.11970 0.71550 0.34170 0.09600
C 	C 	0.02490 0.72399 0.27221 -0.11400
C 	C 	0.97260 0.75066 0.23891 -0.01500
C 	C 	0.98080 0.78645 0.25350 0.00300
H 	H 	0.94970 0.80490 0.23040 0.11200
C 	C 	0.03300 0.79631 0.30085 -0.02800
H 	H 	0.03170 0.82110 0.31050 0.15500
C 	C 	0.02910 0.68416 0.25958 0.84400
C 	C 	0.90090 0.74274 0.18783 0.39200
C 	C 	0.35890 0.86580 0.63620 0.30800
C 	C 	0.40590 0.90594 0.63910 0.09700
C 	C 	0.48150 0.92228 0.68130 -0.12700
C 	C 	0.51810 0.95913 0.68010 0.05700
H 	H 	0.56930 0.97040 0.70820 0.11000
C 	C 	0.48000 0.97986 0.63740 0.02300
C 	C 	0.41850 0.96266 0.59650 0.00600
H 	H 	0.40210 0.97600 0.56650 0.09300
C 	C 	0.37960 0.92638 0.59760 -0.05500
H 	H 	0.33310 0.91530 0.56860 0.14500
C 	C 	0.51600 0.90165 0.72800 0.86700
Zn	Zn	0.63239 0.70475 0.13361 1.25100
F 	F 	0.63430 0.62807 0.98747 -0.44300
F 	F 	0.43090 0.64840 0.94362 -0.42500
F 	F 	0.63900 0.62251 0.90763 -0.39200
F 	F 	0.12210 0.83225 0.76384 -0.41100
F 	F 	0.91460 0.82216 0.71340 -0.43400
F 	F 	0.86640 0.83457 0.79030 -0.40000
F 	F 	0.60430 0.62190 0.24015 -0.41800
F 	F 	0.33850 0.61809 0.22430 -0.38500
F 	F 	0.46500 0.57635 0.26734 -0.40000
O 	O 	0.71010 0.71544 0.06640 -0.40200
O 	O 	0.49060 0.68668 0.03393 -0.20500
O 	O 	0.20480 0.78299 0.68615 -0.37700
O 	O 	0.05900 0.73839 0.65078 -0.42500
O 	O 	0.53010 0.65683 0.14667 -0.33100
O 	O 	0.78770 0.64195 0.12192 -0.20600
C 	C 	0.62860 0.70118 0.03092 0.29000
C 	C 	0.71090 0.70499 0.98005 0.07700
C 	C 	0.69120 0.68073 0.94015 -0.14200
C 	C 	0.75920 0.68875 0.89355 0.04200
H 	H 	0.74460 0.67200 0.86690 0.12700
C 	C 	0.84860 0.72086 0.88506 0.01100
C 	C 	0.87120 0.74442 0.92540 -0.01300
H 	H 	0.93360 0.76620 0.92070 0.07600
C 	C 	0.80530 0.73675 0.97180 -0.05300
H 	H 	0.82380 0.75320 0.99860 0.10600
C 	C 	0.59890 0.64540 0.94540 0.88400
C 	C 	0.91230 0.73012 0.83463 0.03700
C 	C 	0.91740 0.76609 0.81932 0.00500
H 	H 	0.88030 0.78450 0.84170 0.09800
C 	C 	0.97510 0.77601 0.77221 -0.11300
C 	C 	0.02740 0.74934 0.73891 -0.01600
C 	C 	0.01920 0.71355 0.75350 0.00400
H 	H 	0.05030 0.69510 0.73040 0.11200
C 	C 	0.96700 0.70369 0.80085 -0.03000
H 	H 	0.96830 0.67890 0.81050 0.15700
C 	C 	0.97090 0.81584 0.75958 0.84400
C 	C 	0.09910 0.75726 0.68783 0.39200
C 	C 	0.64110 0.63420 0.13620 0.30800
C 	C 	0.59410 0.59406 0.13910 0.09500
C 	C 	0.51850 0.57772 0.18130 -0.12700
C 	C 	0.48190 0.54087 0.18010 0.05700
H 	H 	0.43070 0.52960 0.20820 0.10900
C 	C 	0.52000 0.52014 0.13740 0.02200
C 	C 	0.58150 0.53734 0.09650 0.00500
H 	H 	0.59790 0.52400 0.06650 0.08900
C 	C 	0.62040 0.57362 0.09760 -0.05500
H 	H 	0.66690 0.58470 0.06860 0.14000
C 	C 	0.48400 0.59835 0.22800 0.86700
Zn	Zn	0.63239 0.20475 0.63361 1.25200
F 	F 	0.63430 0.12807 0.48747 -0.45200
F 	F 	0.43090 0.14840 0.44362 -0.42900
F 	F 	0.63900 0.12251 0.40763 -0.39400
F 	F 	0.12210 0.33225 0.26384 -0.41100
F 	F 	0.91460 0.32216 0.21340 -0.43500
F 	F 	0.86640 0.33457 0.29030 -0.40100
F 	F 	0.60430 0.12190 0.74015 -0.41700
F 	F 	0.33850 0.11809 0.72430 -0.38400
F 	F 	0.46500 0.07635 0.76734 -0.39800
O 	O 	0.71010 0.21544 0.56640 -0.40100
O 	O 	0.49060 0.18668 0.53393 -0.20100
O 	O 	0.20480 0.28299 0.18615 -0.37800
O 	O 	0.05900 0.23839 0.15078 -0.42700
O 	O 	0.53010 0.15683 0.64667 -0.33000
O 	O 	0.78770 0.14195 0.62192 -0.20300
C 	C 	0.62860 0.20118 0.53092 0.31700
C 	C 	0.71090 0.20499 0.48005 0.04800
C 	C 	0.69120 0.18073 0.44015 -0.13300
C 	C 	0.75920 0.18875 0.39355 0.03400
H 	H 	0.74460 0.17200 0.36690 0.13000
C 	C 	0.84860 0.22086 0.38506 0.01800
C 	C 	0.87120 0.24442 0.42540 -0.02500
H 	H 	0.93360 0.26620 0.42070 0.07900
C 	C 	0.80530 0.23675 0.47180 -0.03800
H 	H 	0.82380 0.25320 0.49860 0.09300
C 	C 	0.59890 0.14540 0.44540 0.88000
C 	C 	0.91230 0.23012 0.33463 0.03300
C 	C 	0.91740 0.26609 0.31932 0.00700
H 	H 	0.88030 0.28450 0.34170 0.09600
C 	C 	0.97510 0.27601 0.27221 -0.11400
C 	C 	0.02740 0.24934 0.23891 -0.01500
C 	C 	0.01920 0.21355 0.25350 0.00300
H 	H 	0.05030 0.19510 0.23040 0.11200
C 	C 	0.96700 0.20369 0.30085 -0.02800
H 	H 	0.96830 0.17890 0.31050 0.15500
C 	C 	0.97090 0.31584 0.25958 0.84400
C 	C 	0.09910 0.25726 0.18783 0.39200
C 	C 	0.64110 0.13420 0.63620 0.30800
C 	C 	0.59410 0.09406 0.63910 0.09700
C 	C 	0.51850 0.07772 0.68130 -0.12700
C 	C 	0.48190 0.04087 0.68010 0.05700
H 	H 	0.43070 0.02960 0.70820 0.11000
C 	C 	0.52000 0.02014 0.63740 0.02300
C 	C 	0.58150 0.03734 0.59650 0.00600
H 	H 	0.59790 0.02400 0.56650 0.09300
C 	C 	0.62040 0.07362 0.59760 -0.05500
H 	H 	0.66690 0.08470 0.56860 0.14500
C 	C 	0.48400 0.09835 0.72800 0.86700
