data_crystal

_cell_length_a 29.93410
_cell_length_b 28.03900
_cell_length_c 7.92330
_cell_angle_alpha 90.00000
_cell_angle_beta  90.00000
_cell_angle_gamma 90.00000

_symmetry_space_group_name_	'P 1'
_symmetry_space_group_name_H-M	'P 1'

loop_
_symmetry_equiv_pos_as_xyz
  x,y,z

loop_
_atom_site_label
_atom_site_type_symbol
_atom_site_fract_x
_atom_site_fract_y
_atom_site_fract_z
_atom_site_charge
C 	C 	0.56700 0.24230 0.88450 0.16900
H 	H 	0.55740 0.22920 0.98890 -0.05300
C 	C 	0.59990 0.27620 0.89010 -0.26800
H 	H 	0.61170 0.28600 0.99570 0.11900
C 	C 	0.73640 0.40480 0.89920 -0.04100
H 	H 	0.72590 0.39190 0.00270 0.04500
C 	C 	0.77110 0.43760 0.90040 -0.06400
H 	H 	0.78280 0.44860 0.00470 0.05500
C 	C 	0.90350 0.57190 0.89540 -0.19500
H 	H 	0.89360 0.56000 0.00130 0.09700
C 	C 	0.93530 0.60680 0.89000 0.11900
H 	H 	0.94640 0.61860 0.99430 -0.03200
C 	C 	0.06700 0.74230 0.88450 0.16700
H 	H 	0.05740 0.72920 0.98890 -0.05600
C 	C 	0.09990 0.77620 0.89010 -0.26900
H 	H 	0.11170 0.78600 0.99570 0.11800
C 	C 	0.23640 0.90480 0.89920 -0.04100
H 	H 	0.22590 0.89190 0.00270 0.04400
C 	C 	0.27110 0.93760 0.90040 -0.06500
H 	H 	0.28280 0.94860 0.00470 0.05500
C 	C 	0.40350 0.07190 0.89540 -0.19600
H 	H 	0.39360 0.06000 0.00130 0.09700
C 	C 	0.43530 0.10680 0.89000 0.11800
H 	H 	0.44640 0.11860 0.99430 -0.03600
C 	C 	0.43300 0.24230 0.61550 0.16800
H 	H 	0.44260 0.22920 0.51110 -0.05400
C 	C 	0.40010 0.27620 0.60990 -0.26800
H 	H 	0.38830 0.28600 0.50430 0.11900
C 	C 	0.26360 0.40480 0.60080 -0.04100
H 	H 	0.27410 0.39190 0.49730 0.04500
C 	C 	0.22890 0.43760 0.59960 -0.06400
H 	H 	0.21720 0.44860 0.49530 0.05500
C 	C 	0.09650 0.57190 0.60460 -0.19800
H 	H 	0.10640 0.56000 0.49870 0.09600
C 	C 	0.06470 0.60680 0.61000 0.11700
H 	H 	0.05360 0.61860 0.50570 -0.03900
C 	C 	0.93300 0.74230 0.61550 0.16900
H 	H 	0.94260 0.72920 0.51110 -0.05000
C 	C 	0.90010 0.77620 0.60990 -0.26600
H 	H 	0.88830 0.78600 0.50430 0.12000
C 	C 	0.76360 0.90480 0.60080 -0.04100
H 	H 	0.77410 0.89190 0.49730 0.04500
C 	C 	0.72890 0.93760 0.59960 -0.06400
H 	H 	0.71720 0.94860 0.49530 0.05500
C 	C 	0.59650 0.07190 0.60460 -0.19700
H 	H 	0.60640 0.06000 0.49870 0.09700
C 	C 	0.56470 0.10680 0.61000 0.11800
H 	H 	0.55360 0.11860 0.50570 -0.03600
C 	C 	0.56700 0.24230 0.61550 0.16800
H 	H 	0.55740 0.22920 0.51110 -0.05400
C 	C 	0.59990 0.27620 0.60990 -0.26800
H 	H 	0.61170 0.28600 0.50430 0.11900
C 	C 	0.73640 0.40480 0.60080 -0.04100
H 	H 	0.72590 0.39190 0.49730 0.04500
C 	C 	0.77110 0.43760 0.59960 -0.06400
H 	H 	0.78280 0.44860 0.49530 0.05500
C 	C 	0.90350 0.57190 0.60460 -0.19500
H 	H 	0.89360 0.56000 0.49870 0.09700
C 	C 	0.93530 0.60680 0.61000 0.11900
H 	H 	0.94640 0.61860 0.50570 -0.03200
C 	C 	0.06700 0.74230 0.61550 0.16700
H 	H 	0.05740 0.72920 0.51110 -0.05700
C 	C 	0.09990 0.77620 0.60990 -0.27000
H 	H 	0.11170 0.78600 0.50430 0.11800
C 	C 	0.23640 0.90480 0.60080 -0.04100
H 	H 	0.22590 0.89190 0.49730 0.04400
C 	C 	0.27110 0.93760 0.59960 -0.06500
H 	H 	0.28280 0.94860 0.49530 0.05500
C 	C 	0.40350 0.07190 0.60460 -0.19600
H 	H 	0.39360 0.06000 0.49870 0.09700
C 	C 	0.43530 0.10680 0.61000 0.11800
H 	H 	0.44640 0.11860 0.50570 -0.03600
C 	C 	0.43300 0.24230 0.88450 0.16800
H 	H 	0.44260 0.22920 0.98890 -0.05400
C 	C 	0.40010 0.27620 0.89010 -0.26800
H 	H 	0.38830 0.28600 0.99570 0.11900
C 	C 	0.26360 0.40480 0.89920 -0.04100
H 	H 	0.27410 0.39190 0.00270 0.04500
C 	C 	0.22890 0.43760 0.90040 -0.06400
H 	H 	0.21720 0.44860 0.00470 0.05500
C 	C 	0.09650 0.57190 0.89540 -0.19800
H 	H 	0.10640 0.56000 0.00130 0.09600
C 	C 	0.06470 0.60680 0.89000 0.11700
H 	H 	0.05360 0.61860 0.99430 -0.03900
C 	C 	0.93300 0.74230 0.88450 0.16900
H 	H 	0.94260 0.72920 0.98890 -0.05000
C 	C 	0.90010 0.77620 0.89010 -0.26600
H 	H 	0.88830 0.78600 0.99570 0.12000
C 	C 	0.76360 0.90480 0.89920 -0.04100
H 	H 	0.77410 0.89190 0.00270 0.04500
C 	C 	0.72890 0.93760 0.90040 -0.06400
H 	H 	0.71720 0.94860 0.00470 0.05500
C 	C 	0.59650 0.07190 0.89540 -0.19600
H 	H 	0.60640 0.06000 0.00130 0.09700
C 	C 	0.56470 0.10680 0.89000 0.11800
H 	H 	0.55360 0.11860 0.99430 -0.03600
Cu	Cu	0.50000 0.17641 0.75000 0.85300
Cu	Cu	0.00000 0.67641 0.75000 0.84500
N 	N 	0.54803 0.22690 0.75000 -0.28300
N 	N 	0.95164 0.62508 0.75000 -0.25100
C 	C 	0.61500 0.29500 0.75000 0.22100
C 	C 	0.65050 0.32860 0.75000 -0.10600
C 	C 	0.68180 0.35700 0.75000 0.02400
C 	C 	0.71710 0.39080 0.75000 0.00300
C 	C 	0.78870 0.45430 0.75000 0.02400
C 	C 	0.82310 0.48830 0.75000 -0.00400
C 	C 	0.85260 0.51830 0.75000 -0.07500
C 	C 	0.88570 0.55400 0.75000 0.14100
N 	N 	0.04803 0.72690 0.75000 -0.28500
N 	N 	0.45164 0.12508 0.75000 -0.25600
C 	C 	0.11500 0.79500 0.75000 0.22000
C 	C 	0.15050 0.82860 0.75000 -0.10700
C 	C 	0.18180 0.85700 0.75000 0.02400
C 	C 	0.21710 0.89080 0.75000 0.00200
C 	C 	0.28870 0.95430 0.75000 0.02400
C 	C 	0.32310 0.98830 0.75000 -0.00400
C 	C 	0.35260 0.01830 0.75000 -0.07600
C 	C 	0.38570 0.05400 0.75000 0.14100
N 	N 	0.45197 0.22690 0.75000 -0.28300
N 	N 	0.04836 0.62508 0.75000 -0.25800
C 	C 	0.38500 0.29500 0.75000 0.22100
C 	C 	0.34950 0.32860 0.75000 -0.10600
C 	C 	0.31820 0.35700 0.75000 0.02400
C 	C 	0.28290 0.39080 0.75000 0.00300
C 	C 	0.21130 0.45430 0.75000 0.02400
C 	C 	0.17690 0.48830 0.75000 -0.00400
C 	C 	0.14740 0.51830 0.75000 -0.07700
C 	C 	0.11430 0.55400 0.75000 0.14100
N 	N 	0.95197 0.72690 0.75000 -0.27800
N 	N 	0.54836 0.12508 0.75000 -0.25600
C 	C 	0.88500 0.79500 0.75000 0.22100
C 	C 	0.84950 0.82860 0.75000 -0.10400
C 	C 	0.81820 0.85700 0.75000 0.02500
C 	C 	0.78290 0.89080 0.75000 0.00400
C 	C 	0.71130 0.95430 0.75000 0.02400
C 	C 	0.67690 0.98830 0.75000 -0.00300
C 	C 	0.64740 0.01830 0.75000 -0.07600
C 	C 	0.61430 0.05400 0.75000 0.14100
C 	C 	0.43300 0.75770 0.38450 0.16800
H 	H 	0.44260 0.77080 0.48890 -0.05400
C 	C 	0.40010 0.72380 0.39010 -0.26800
H 	H 	0.38830 0.71400 0.49570 0.11900
C 	C 	0.26360 0.59520 0.39920 -0.04100
H 	H 	0.27410 0.60810 0.50270 0.04500
C 	C 	0.22890 0.56240 0.40040 -0.06400
H 	H 	0.21720 0.55140 0.50470 0.05500
C 	C 	0.09650 0.42810 0.39540 -0.19800
H 	H 	0.10640 0.44000 0.50130 0.09600
C 	C 	0.06470 0.39320 0.39000 0.11700
H 	H 	0.05360 0.38140 0.49430 -0.03900
C 	C 	0.93300 0.25770 0.38450 0.16900
H 	H 	0.94260 0.27080 0.48890 -0.05000
C 	C 	0.90010 0.22380 0.39010 -0.26600
H 	H 	0.88830 0.21400 0.49570 0.12000
C 	C 	0.76360 0.09520 0.39920 -0.04100
H 	H 	0.77410 0.10810 0.50270 0.04500
C 	C 	0.72890 0.06240 0.40040 -0.06400
H 	H 	0.71720 0.05140 0.50470 0.05500
C 	C 	0.59650 0.92810 0.39540 -0.19700
H 	H 	0.60640 0.94000 0.50130 0.09700
C 	C 	0.56470 0.89320 0.39000 0.11800
H 	H 	0.55360 0.88140 0.49430 -0.03600
C 	C 	0.56700 0.75770 0.11550 0.16800
H 	H 	0.55740 0.77080 0.01110 -0.05400
C 	C 	0.59990 0.72380 0.10990 -0.26800
H 	H 	0.61170 0.71400 0.00430 0.11900
C 	C 	0.73640 0.59520 0.10080 -0.04100
H 	H 	0.72590 0.60810 0.99730 0.04500
C 	C 	0.77110 0.56240 0.09960 -0.06400
H 	H 	0.78280 0.55140 0.99530 0.05500
C 	C 	0.90350 0.42810 0.10460 -0.19500
H 	H 	0.89360 0.44000 0.99870 0.09700
C 	C 	0.93530 0.39320 0.11000 0.11900
H 	H 	0.94640 0.38140 0.00570 -0.03200
C 	C 	0.06700 0.25770 0.11550 0.16700
H 	H 	0.05740 0.27080 0.01110 -0.05600
C 	C 	0.09990 0.22380 0.10990 -0.26900
H 	H 	0.11170 0.21400 0.00430 0.11800
C 	C 	0.23640 0.09520 0.10080 -0.04100
H 	H 	0.22590 0.10810 0.99730 0.04400
C 	C 	0.27110 0.06240 0.09960 -0.06500
H 	H 	0.28280 0.05140 0.99530 0.05500
C 	C 	0.40350 0.92810 0.10460 -0.19600
H 	H 	0.39360 0.94000 0.99870 0.09700
C 	C 	0.43530 0.89320 0.11000 0.11800
H 	H 	0.44640 0.88140 0.00570 -0.03600
C 	C 	0.43300 0.75770 0.11550 0.16800
H 	H 	0.44260 0.77080 0.01110 -0.05400
C 	C 	0.40010 0.72380 0.10990 -0.26800
H 	H 	0.38830 0.71400 0.00430 0.11900
C 	C 	0.26360 0.59520 0.10080 -0.04100
H 	H 	0.27410 0.60810 0.99730 0.04500
C 	C 	0.22890 0.56240 0.09960 -0.06400
H 	H 	0.21720 0.55140 0.99530 0.05500
C 	C 	0.09650 0.42810 0.10460 -0.19800
H 	H 	0.10640 0.44000 0.99870 0.09600
C 	C 	0.06470 0.39320 0.11000 0.11700
H 	H 	0.05360 0.38140 0.00570 -0.03900
C 	C 	0.93300 0.25770 0.11550 0.16900
H 	H 	0.94260 0.27080 0.01110 -0.05000
C 	C 	0.90010 0.22380 0.10990 -0.26600
H 	H 	0.88830 0.21400 0.00430 0.12000
C 	C 	0.76360 0.09520 0.10080 -0.04100
H 	H 	0.77410 0.10810 0.99730 0.04500
C 	C 	0.72890 0.06240 0.09960 -0.06400
H 	H 	0.71720 0.05140 0.99530 0.05500
C 	C 	0.59650 0.92810 0.10460 -0.19600
H 	H 	0.60640 0.94000 0.99870 0.09700
C 	C 	0.56470 0.89320 0.11000 0.11800
H 	H 	0.55360 0.88140 0.00570 -0.03600
C 	C 	0.56700 0.75770 0.38450 0.16800
H 	H 	0.55740 0.77080 0.48890 -0.05400
C 	C 	0.59990 0.72380 0.39010 -0.26800
H 	H 	0.61170 0.71400 0.49570 0.11900
C 	C 	0.73640 0.59520 0.39920 -0.04100
H 	H 	0.72590 0.60810 0.50270 0.04500
C 	C 	0.77110 0.56240 0.40040 -0.06400
H 	H 	0.78280 0.55140 0.50470 0.05500
C 	C 	0.90350 0.42810 0.39540 -0.19500
H 	H 	0.89360 0.44000 0.50130 0.09700
C 	C 	0.93530 0.39320 0.39000 0.11900
H 	H 	0.94640 0.38140 0.49430 -0.03200
C 	C 	0.06700 0.25770 0.38450 0.16700
H 	H 	0.05740 0.27080 0.48890 -0.05700
C 	C 	0.09990 0.22380 0.39010 -0.27000
H 	H 	0.11170 0.21400 0.49570 0.11800
C 	C 	0.23640 0.09520 0.39920 -0.04100
H 	H 	0.22590 0.10810 0.50270 0.04400
C 	C 	0.27110 0.06240 0.40040 -0.06500
H 	H 	0.28280 0.05140 0.50470 0.05500
C 	C 	0.40350 0.92810 0.39540 -0.19600
H 	H 	0.39360 0.94000 0.50130 0.09700
C 	C 	0.43530 0.89320 0.39000 0.11800
H 	H 	0.44640 0.88140 0.49430 -0.03600
Cu	Cu	0.50000 0.82359 0.25000 0.85300
Cu	Cu	0.00000 0.32359 0.25000 0.84500
N 	N 	0.45197 0.77310 0.25000 -0.28300
N 	N 	0.04836 0.37492 0.25000 -0.25800
C 	C 	0.38500 0.70500 0.25000 0.22100
C 	C 	0.34950 0.67140 0.25000 -0.10600
C 	C 	0.31820 0.64300 0.25000 0.02400
C 	C 	0.28290 0.60920 0.25000 0.00300
C 	C 	0.21130 0.54570 0.25000 0.02400
C 	C 	0.17690 0.51170 0.25000 -0.00400
C 	C 	0.14740 0.48170 0.25000 -0.07700
C 	C 	0.11430 0.44600 0.25000 0.14100
N 	N 	0.95197 0.27310 0.25000 -0.27800
N 	N 	0.54836 0.87492 0.25000 -0.25600
C 	C 	0.88500 0.20500 0.25000 0.22100
C 	C 	0.84950 0.17140 0.25000 -0.10400
C 	C 	0.81820 0.14300 0.25000 0.02500
C 	C 	0.78290 0.10920 0.25000 0.00400
C 	C 	0.71130 0.04570 0.25000 0.02400
C 	C 	0.67690 0.01170 0.25000 -0.00300
C 	C 	0.64740 0.98170 0.25000 -0.07600
C 	C 	0.61430 0.94600 0.25000 0.14100
N 	N 	0.54803 0.77310 0.25000 -0.28300
N 	N 	0.95164 0.37492 0.25000 -0.25100
C 	C 	0.61500 0.70500 0.25000 0.22100
C 	C 	0.65050 0.67140 0.25000 -0.10600
C 	C 	0.68180 0.64300 0.25000 0.02400
C 	C 	0.71710 0.60920 0.25000 0.00300
C 	C 	0.78870 0.54570 0.25000 0.02400
C 	C 	0.82310 0.51170 0.25000 -0.00400
C 	C 	0.85260 0.48170 0.25000 -0.07500
C 	C 	0.88570 0.44600 0.25000 0.14100
N 	N 	0.04803 0.27310 0.25000 -0.28500
N 	N 	0.45164 0.87492 0.25000 -0.25600
C 	C 	0.11500 0.20500 0.25000 0.22000
C 	C 	0.15050 0.17140 0.25000 -0.10700
C 	C 	0.18180 0.14300 0.25000 0.02400
C 	C 	0.21710 0.10920 0.25000 0.00200
C 	C 	0.28870 0.04570 0.25000 0.02400
C 	C 	0.32310 0.01170 0.25000 -0.00400
C 	C 	0.35260 0.98170 0.25000 -0.07600
C 	C 	0.38570 0.94600 0.25000 0.14100
