data_crystal

_cell_length_a 16.25640
_cell_length_b 18.02580
_cell_length_c 19.60930
_cell_angle_alpha 90.00000
_cell_angle_beta  90.00000
_cell_angle_gamma 90.00000

_symmetry_space_group_name_	'P 1'
_symmetry_space_group_name_H-M	'P 1'

loop_
_symmetry_equiv_pos_as_xyz
  x,y,z

loop_
_atom_site_label
_atom_site_type_symbol
_atom_site_fract_x
_atom_site_fract_y
_atom_site_fract_z
_atom_site_charge
Ag	Ag	0.38237 0.06845 0.60587 0.44500
Ag	Ag	0.46669 0.03135 0.46400 0.33800
Ag	Ag	0.61176 0.95092 0.50015 0.35400
Ag	Ag	0.58808 0.88647 0.64490 0.44500
Ag	Ag	0.41625 0.88551 0.55355 0.42500
Ag	Ag	0.40709 0.94684 0.70747 0.44700
Ag	Ag	0.53720 0.04575 0.72291 0.39100
Ag	Ag	0.59148 0.09084 0.57799 0.44300
Ag	Ag	0.10902 0.40834 0.85788 0.42200
Ag	Ag	0.38659 0.08515 0.32828 0.43800
Ag	Ag	0.35462 0.07236 0.81717 0.47000
Ag	Ag	0.64268 0.08139 0.37320 0.47100
Ag	Ag	0.61763 0.93155 0.10587 0.44400
Ag	Ag	0.53331 0.96865 0.96400 0.34500
Ag	Ag	0.38824 0.04908 0.00015 0.34900
Ag	Ag	0.41192 0.11353 0.14490 0.44500
Ag	Ag	0.58375 0.11449 0.05355 0.42300
Ag	Ag	0.59291 0.05316 0.20747 0.44800
Ag	Ag	0.46280 0.95425 0.22291 0.39100
Ag	Ag	0.40852 0.90916 0.07799 0.44000
Ag	Ag	0.89098 0.59166 0.35788 0.41900
Ag	Ag	0.61341 0.91485 0.82828 0.43900
Ag	Ag	0.64538 0.92764 0.31717 0.46800
Ag	Ag	0.35732 0.91861 0.87320 0.47200
Ag	Ag	0.88237 0.43155 0.60587 0.44500
Ag	Ag	0.96669 0.46865 0.46400 0.33900
Ag	Ag	0.11176 0.54908 0.50015 0.35400
Ag	Ag	0.08808 0.61353 0.64490 0.44600
Ag	Ag	0.91625 0.61449 0.55355 0.42700
Ag	Ag	0.90709 0.55316 0.70747 0.44900
Ag	Ag	0.03720 0.45425 0.72291 0.39100
Ag	Ag	0.09148 0.40916 0.57799 0.44300
Ag	Ag	0.60902 0.09166 0.85788 0.42200
Ag	Ag	0.88659 0.41485 0.32828 0.43800
Ag	Ag	0.85462 0.42764 0.81717 0.46900
Ag	Ag	0.14268 0.41861 0.37320 0.47100
Ag	Ag	0.11763 0.56845 0.10587 0.44300
Ag	Ag	0.03331 0.53135 0.96400 0.34600
Ag	Ag	0.88824 0.45092 0.00015 0.34900
Ag	Ag	0.91192 0.38647 0.14490 0.44500
Ag	Ag	0.08375 0.38551 0.05355 0.42300
Ag	Ag	0.09291 0.44684 0.20747 0.44800
Ag	Ag	0.96280 0.54575 0.22291 0.39100
Ag	Ag	0.90852 0.59084 0.07799 0.43900
Ag	Ag	0.39098 0.90834 0.35788 0.41900
Ag	Ag	0.11341 0.58515 0.82828 0.43900
Ag	Ag	0.14538 0.57236 0.31717 0.46800
Ag	Ag	0.85732 0.58139 0.87320 0.47200
H 	H 	0.33630 0.24170 0.62730 0.16900
H 	H 	0.29430 0.29650 0.67220 0.17900
H 	H 	0.24230 0.16310 0.92540 -0.00700
H 	H 	0.17750 0.27530 0.93810 -0.01500
H 	H 	0.22240 0.32210 0.74920 -0.01500
H 	H 	0.66130 0.24940 0.56660 0.22300
H 	H 	0.70120 0.30470 0.52090 0.19300
H 	H 	0.75610 0.16460 0.26870 0.06800
H 	H 	0.82670 0.27130 0.25330 0.04300
H 	H 	0.77520 0.33120 0.43860 -0.03700
H 	H 	0.98670 0.87960 0.58240 0.24400
H 	H 	0.89690 0.89590 0.58140 0.18800
H 	H 	0.71740 0.63600 0.56540 0.03300
H 	H 	0.61860 0.71760 0.59770 0.06700
H 	H 	0.78620 0.86940 0.63040 0.00800
H 	H 	0.66370 0.75830 0.12730 0.16700
H 	H 	0.70570 0.70350 0.17220 0.17700
H 	H 	0.75770 0.83690 0.42540 -0.01100
H 	H 	0.82250 0.72470 0.43810 -0.01900
H 	H 	0.77760 0.67790 0.24920 -0.01500
H 	H 	0.33870 0.75060 0.06660 0.22300
H 	H 	0.29880 0.69530 0.02090 0.19000
H 	H 	0.24390 0.83540 0.76870 0.06800
H 	H 	0.17330 0.72870 0.75330 0.04300
H 	H 	0.22480 0.66880 0.93860 -0.03300
H 	H 	0.01330 0.12040 0.08240 0.24200
H 	H 	0.10310 0.10410 0.08140 0.18600
H 	H 	0.28260 0.36400 0.06540 0.03200
H 	H 	0.38140 0.28240 0.09770 0.06600
H 	H 	0.21380 0.13060 0.13040 0.00700
H 	H 	0.83630 0.25830 0.62730 0.16800
H 	H 	0.79430 0.20350 0.67220 0.17900
H 	H 	0.74230 0.33690 0.92540 -0.00700
H 	H 	0.67750 0.22470 0.93810 -0.01400
H 	H 	0.72240 0.17790 0.74920 -0.01500
H 	H 	0.16130 0.25060 0.56660 0.22300
H 	H 	0.20120 0.19530 0.52090 0.19300
H 	H 	0.25610 0.33540 0.26870 0.06800
H 	H 	0.32670 0.22870 0.25330 0.04300
H 	H 	0.27520 0.16880 0.43860 -0.03700
H 	H 	0.48670 0.62040 0.58240 0.24400
H 	H 	0.39690 0.60410 0.58140 0.18800
H 	H 	0.21740 0.86400 0.56540 0.03300
H 	H 	0.11860 0.78240 0.59770 0.06700
H 	H 	0.28620 0.63060 0.63040 0.00800
H 	H 	0.16370 0.74170 0.12730 0.16600
H 	H 	0.20570 0.79650 0.17220 0.17700
H 	H 	0.25770 0.66310 0.42540 -0.01100
H 	H 	0.32250 0.77530 0.43810 -0.01900
H 	H 	0.27760 0.82210 0.24920 -0.01500
H 	H 	0.83870 0.74940 0.06660 0.22300
H 	H 	0.79880 0.80470 0.02090 0.19100
H 	H 	0.74390 0.66460 0.76870 0.06800
H 	H 	0.67330 0.77130 0.75330 0.04300
H 	H 	0.72480 0.83120 0.93860 -0.03400
H 	H 	0.51330 0.37960 0.08240 0.24200
H 	H 	0.60310 0.39590 0.08140 0.18600
H 	H 	0.78260 0.13600 0.06540 0.03100
H 	H 	0.88140 0.21760 0.09770 0.06600
H 	H 	0.71380 0.36940 0.13040 0.00700
C 	C 	0.49100 0.98270 0.62650 -0.35200
C 	C 	0.51620 0.98340 0.56870 -0.40300
C 	C 	0.47640 0.99770 0.34260 -0.36500
C 	C 	0.54940 0.00500 0.34220 -0.31600
C 	C 	0.24040 0.19590 0.88880 0.01600
C 	C 	0.20010 0.26320 0.89590 0.03900
C 	C 	0.22750 0.29060 0.78660 0.07600
C 	C 	0.26960 0.22660 0.77970 -0.01400
C 	C 	0.30920 0.20300 0.71400 0.30100
C 	C 	0.76030 0.19760 0.30500 0.03900
C 	C 	0.80230 0.26220 0.29530 0.06400
C 	C 	0.77210 0.29710 0.40310 0.08900
C 	C 	0.72880 0.23200 0.41370 -0.04200
C 	C 	0.68920 0.21040 0.48040 0.33200
C 	C 	0.73310 0.68350 0.57860 0.01300
C 	C 	0.67320 0.73290 0.59780 0.00500
C 	C 	0.77100 0.82180 0.61700 0.02900
C 	C 	0.83070 0.77140 0.59760 -0.02900
C 	C 	0.92040 0.79270 0.59070 0.30000
C 	C 	0.46330 0.79410 0.74780 0.08600
C 	C 	0.45870 0.71680 0.77900 0.88500
C 	C 	0.23030 0.98570 0.67520 0.17400
C 	C 	0.13360 0.97770 0.68140 0.88900
C 	C 	0.55740 0.21560 0.68910 0.11700
C 	C 	0.55450 0.30160 0.70170 0.90700
C 	C 	0.50900 0.01730 0.12650 -0.35100
C 	C 	0.48380 0.01660 0.06870 -0.40800
C 	C 	0.52360 0.00230 0.84260 -0.36000
C 	C 	0.45060 0.99500 0.84220 -0.31800
C 	C 	0.75960 0.80410 0.38880 0.01500
C 	C 	0.79990 0.73680 0.39590 0.03800
C 	C 	0.77250 0.70940 0.28660 0.07500
C 	C 	0.73040 0.77340 0.27970 -0.01400
C 	C 	0.69080 0.79700 0.21400 0.30000
C 	C 	0.23970 0.80240 0.80500 0.03900
C 	C 	0.19770 0.73780 0.79530 0.06400
C 	C 	0.22790 0.70290 0.90310 0.09100
C 	C 	0.27120 0.76800 0.91370 -0.04200
C 	C 	0.31080 0.78960 0.98040 0.34300
C 	C 	0.26690 0.31650 0.07860 0.01200
C 	C 	0.32680 0.26710 0.09780 0.00400
C 	C 	0.22900 0.17820 0.11700 0.02700
C 	C 	0.16930 0.22860 0.09760 -0.03000
C 	C 	0.07960 0.20730 0.09070 0.29800
C 	C 	0.53670 0.20590 0.24780 0.08600
C 	C 	0.54130 0.28320 0.27900 0.88500
C 	C 	0.76970 0.01430 0.17520 0.17400
C 	C 	0.86640 0.02230 0.18140 0.89000
C 	C 	0.44260 0.78440 0.18910 0.11700
C 	C 	0.44550 0.69840 0.20170 0.90700
C 	C 	0.99100 0.51730 0.62650 -0.35100
C 	C 	0.01620 0.51660 0.56870 -0.40300
C 	C 	0.97640 0.50230 0.34260 -0.36600
C 	C 	0.04940 0.49500 0.34220 -0.31600
C 	C 	0.74040 0.30410 0.88880 0.01600
C 	C 	0.70010 0.23680 0.89590 0.03900
C 	C 	0.72750 0.20940 0.78660 0.07600
C 	C 	0.76960 0.27340 0.77970 -0.01400
C 	C 	0.80920 0.29700 0.71400 0.30100
C 	C 	0.26030 0.30240 0.30500 0.03900
C 	C 	0.30230 0.23780 0.29530 0.06400
C 	C 	0.27210 0.20290 0.40310 0.08900
C 	C 	0.22880 0.26800 0.41370 -0.04200
C 	C 	0.18920 0.28960 0.48040 0.33200
C 	C 	0.23310 0.81650 0.57860 0.01300
C 	C 	0.17320 0.76710 0.59780 0.00500
C 	C 	0.27100 0.67820 0.61700 0.02900
C 	C 	0.33070 0.72860 0.59760 -0.02900
C 	C 	0.42040 0.70730 0.59070 0.30000
C 	C 	0.96330 0.70590 0.74780 0.08700
C 	C 	0.95870 0.78320 0.77900 0.88600
C 	C 	0.73030 0.51430 0.67520 0.17600
C 	C 	0.63360 0.52230 0.68140 0.89300
C 	C 	0.05740 0.28440 0.68910 0.11700
C 	C 	0.05450 0.19840 0.70170 0.90800
C 	C 	0.00900 0.48270 0.12650 -0.35100
C 	C 	0.98380 0.48340 0.06870 -0.40800
C 	C 	0.02360 0.49770 0.84260 -0.36500
C 	C 	0.95060 0.50500 0.84220 -0.31400
C 	C 	0.25960 0.69590 0.38880 0.01500
C 	C 	0.29990 0.76320 0.39590 0.03800
C 	C 	0.27250 0.79060 0.28660 0.07500
C 	C 	0.23040 0.72660 0.27970 -0.01400
C 	C 	0.19080 0.70300 0.21400 0.30000
C 	C 	0.73970 0.69760 0.80500 0.03900
C 	C 	0.69770 0.76220 0.79530 0.06400
C 	C 	0.72790 0.79710 0.90310 0.09100
C 	C 	0.77120 0.73200 0.91370 -0.04200
C 	C 	0.81080 0.71040 0.98040 0.34300
C 	C 	0.76690 0.18350 0.07860 0.01200
C 	C 	0.82680 0.23290 0.09780 0.00400
C 	C 	0.72900 0.32180 0.11700 0.02700
C 	C 	0.66930 0.27140 0.09760 -0.03000
C 	C 	0.57960 0.29270 0.09070 0.29800
C 	C 	0.03670 0.29410 0.24780 0.08600
C 	C 	0.04130 0.21680 0.27900 0.88600
C 	C 	0.26970 0.48570 0.17520 0.17600
C 	C 	0.36640 0.47770 0.18140 0.89300
C 	C 	0.94260 0.71560 0.18910 0.11700
C 	C 	0.94550 0.80160 0.20170 0.90800
N 	N 	0.27610 0.17810 0.83070 -0.14000
N 	N 	0.19260 0.31000 0.84630 -0.18600
N 	N 	0.31380 0.25280 0.66560 -0.34900
N 	N 	0.72480 0.17920 0.36420 -0.12800
N 	N 	0.80920 0.31300 0.34520 -0.18000
N 	N 	0.68320 0.26050 0.52800 -0.39200
N 	N 	0.81280 0.70080 0.57810 -0.15800
N 	N 	0.69110 0.80250 0.61660 -0.17700
N 	N 	0.93660 0.86450 0.58400 -0.36600
N 	N 	0.72390 0.82190 0.33070 -0.14100
N 	N 	0.80740 0.69000 0.34630 -0.18700
N 	N 	0.68620 0.74720 0.16560 -0.34900
N 	N 	0.27520 0.82080 0.86420 -0.12700
N 	N 	0.19080 0.68700 0.84520 -0.17900
N 	N 	0.31680 0.73950 0.02800 -0.39900
N 	N 	0.18720 0.29920 0.07810 -0.16000
N 	N 	0.30890 0.19750 0.11660 -0.17700
N 	N 	0.06340 0.13550 0.08400 -0.36500
N 	N 	0.77610 0.32190 0.83070 -0.14000
N 	N 	0.69260 0.19000 0.84630 -0.18600
N 	N 	0.81380 0.24720 0.66560 -0.34900
N 	N 	0.22480 0.32080 0.36420 -0.12800
N 	N 	0.30920 0.18700 0.34520 -0.18000
N 	N 	0.18320 0.23950 0.52800 -0.39200
N 	N 	0.31280 0.79920 0.57810 -0.15900
N 	N 	0.19110 0.69750 0.61660 -0.17700
N 	N 	0.43660 0.63550 0.58400 -0.36600
N 	N 	0.22390 0.67810 0.33070 -0.14100
N 	N 	0.30740 0.81000 0.34630 -0.18700
N 	N 	0.18620 0.75280 0.16560 -0.34900
N 	N 	0.77520 0.67920 0.86420 -0.12700
N 	N 	0.69080 0.81300 0.84520 -0.17900
N 	N 	0.81680 0.76050 0.02800 -0.39900
N 	N 	0.68720 0.20080 0.07810 -0.16000
N 	N 	0.80890 0.30250 0.11660 -0.17700
N 	N 	0.56340 0.36450 0.08400 -0.36500
O 	O 	0.33640 0.13800 0.70770 -0.35900
O 	O 	0.66520 0.14820 0.48770 -0.42700
O 	O 	0.97420 0.74600 0.59470 -0.32400
O 	O 	0.39870 0.82640 0.73960 -0.26500
O 	O 	0.53740 0.81860 0.74180 -0.29800
O 	O 	0.25180 0.01060 0.62210 -0.28400
O 	O 	0.27100 0.96410 0.72480 -0.31000
O 	O 	0.59190 0.19940 0.63360 -0.29700
O 	O 	0.52550 0.17440 0.73150 -0.31000
O 	O 	0.66360 0.86200 0.20770 -0.35900
O 	O 	0.33480 0.85180 0.98770 -0.42400
O 	O 	0.02580 0.25400 0.09470 -0.32600
O 	O 	0.60130 0.17360 0.23960 -0.26500
O 	O 	0.46260 0.18140 0.24180 -0.29800
O 	O 	0.74820 0.98940 0.12210 -0.28500
O 	O 	0.72900 0.03590 0.22480 -0.31000
O 	O 	0.40810 0.80060 0.13360 -0.29900
O 	O 	0.47450 0.82560 0.23150 -0.31100
O 	O 	0.83640 0.36200 0.70770 -0.35900
O 	O 	0.16520 0.35180 0.48770 -0.42700
O 	O 	0.47420 0.75400 0.59470 -0.32400
O 	O 	0.89870 0.67360 0.73960 -0.26500
O 	O 	0.03740 0.68140 0.74180 -0.29900
O 	O 	0.75180 0.48940 0.62210 -0.28600
O 	O 	0.77100 0.53590 0.72480 -0.31000
O 	O 	0.09190 0.30060 0.63360 -0.29700
O 	O 	0.02550 0.32560 0.73150 -0.31000
O 	O 	0.16360 0.63800 0.20770 -0.36000
O 	O 	0.83480 0.64820 0.98770 -0.42300
O 	O 	0.52580 0.24600 0.09470 -0.32600
O 	O 	0.10130 0.32640 0.23960 -0.26500
O 	O 	0.96260 0.31860 0.24180 -0.29900
O 	O 	0.24820 0.51060 0.12210 -0.28800
O 	O 	0.22900 0.46410 0.22480 -0.31100
O 	O 	0.90810 0.69940 0.13360 -0.29900
O 	O 	0.97450 0.67440 0.23150 -0.31100
F 	F 	0.39860 0.68020 0.75030 -0.48900
F 	F 	0.43130 0.71840 0.84180 -0.49900
F 	F 	0.52550 0.67870 0.78450 -0.46400
F 	F 	0.09200 0.00790 0.63470 -0.47000
F 	F 	0.11490 0.90520 0.67950 -0.47000
F 	F 	0.10490 0.00560 0.73630 -0.44200
F 	F 	0.49130 0.32930 0.68810 -0.55900
F 	F 	0.62190 0.33680 0.67370 -0.44300
F 	F 	0.58040 0.31550 0.76650 -0.46000
F 	F 	0.60140 0.31980 0.25030 -0.49000
F 	F 	0.56870 0.28160 0.34180 -0.50100
F 	F 	0.47450 0.32130 0.28450 -0.46500
F 	F 	0.90800 0.99210 0.13470 -0.47200
F 	F 	0.88510 0.09480 0.17950 -0.47100
F 	F 	0.89510 0.99440 0.23630 -0.44400
F 	F 	0.50870 0.67070 0.18810 -0.56100
F 	F 	0.37810 0.66320 0.17370 -0.44400
F 	F 	0.41960 0.68450 0.26650 -0.46100
F 	F 	0.89860 0.81980 0.75030 -0.48900
F 	F 	0.93130 0.78160 0.84180 -0.49900
F 	F 	0.02550 0.82130 0.78450 -0.46600
F 	F 	0.59200 0.49210 0.63470 -0.47200
F 	F 	0.61490 0.59480 0.67950 -0.47000
F 	F 	0.60490 0.49440 0.73630 -0.44400
F 	F 	0.99130 0.17070 0.68810 -0.56000
F 	F 	0.12190 0.16320 0.67370 -0.44300
F 	F 	0.08040 0.18450 0.76650 -0.46000
F 	F 	0.10140 0.18020 0.25030 -0.49000
F 	F 	0.06870 0.21840 0.34180 -0.50100
F 	F 	0.97450 0.17870 0.28450 -0.46600
F 	F 	0.40800 0.50790 0.13470 -0.47400
F 	F 	0.38510 0.40520 0.17950 -0.47100
F 	F 	0.39510 0.50560 0.23630 -0.44500
F 	F 	0.00870 0.82930 0.18810 -0.56200
F 	F 	0.87810 0.83680 0.17370 -0.44400
F 	F 	0.91960 0.81550 0.26650 -0.46100
