data_crystal

_cell_length_a 6.15100
_cell_length_b 11.70600
_cell_length_c 14.06300
_cell_angle_alpha 92.25500
_cell_angle_beta  90.00000
_cell_angle_gamma 90.00000

_symmetry_space_group_name_	'P 1'
_symmetry_space_group_name_H-M	'P 1'

loop_
_symmetry_equiv_pos_as_xyz
  x,y,z

loop_
_atom_site_label
_atom_site_type_symbol
_atom_site_fract_x
_atom_site_fract_y
_atom_site_fract_z
_atom_site_charge
Er	Er	0.50667 0.84627 0.24583 1.74600
Er	Er	0.00667 0.65373 0.25417 1.73700
Er	Er	0.49333 0.15373 0.75417 1.74500
Er	Er	0.99333 0.34627 0.74583 1.73600
H 	H 	0.78310 0.96510 0.59780 0.01000
H 	H 	0.21600 0.11800 0.97680 0.00500
H 	H 	0.22200 0.76600 0.38000 0.40800
H 	H 	0.28310 0.53490 0.90220 0.00900
H 	H 	0.71600 0.38200 0.52320 0.00500
H 	H 	0.72200 0.73400 0.12000 0.40800
H 	H 	0.21690 0.03490 0.40220 0.01000
H 	H 	0.78400 0.88200 0.02320 0.00500
H 	H 	0.77800 0.23400 0.62000 0.40800
H 	H 	0.71690 0.46510 0.09780 0.00900
H 	H 	0.28400 0.61800 0.47680 0.00500
H 	H 	0.27800 0.26600 0.88000 0.40800
C 	C 	0.82320 0.84080 0.43460 0.37600
C 	C 	0.65270 0.92520 0.46960 -0.07600
C 	C 	0.66610 0.98050 0.55840 0.06900
C 	C 	0.17790 0.01780 0.14490 0.35700
C 	C 	0.34620 0.00780 0.06680 -0.07000
C 	C 	0.33420 0.06990 0.98520 0.08400
C 	C 	0.32320 0.65920 0.06540 0.37700
C 	C 	0.15270 0.57480 0.03040 -0.08200
C 	C 	0.16610 0.51950 0.94160 0.07400
C 	C 	0.67790 0.48220 0.35510 0.35400
C 	C 	0.84620 0.49220 0.43320 -0.06600
C 	C 	0.83420 0.43010 0.51480 0.08200
C 	C 	0.17680 0.15920 0.56540 0.37600
C 	C 	0.34730 0.07480 0.53040 -0.07600
C 	C 	0.33390 0.01950 0.44160 0.06900
C 	C 	0.82210 0.98220 0.85510 0.35700
C 	C 	0.65380 0.99220 0.93320 -0.07000
C 	C 	0.66580 0.93010 0.01480 0.08400
C 	C 	0.67680 0.34080 0.93460 0.37700
C 	C 	0.84730 0.42520 0.96960 -0.08200
C 	C 	0.83390 0.48050 0.05840 0.07400
C 	C 	0.32210 0.51780 0.64490 0.35400
C 	C 	0.15380 0.50780 0.56680 -0.06600
C 	C 	0.16580 0.56990 0.48520 0.08200
N 	N 	0.48430 0.94500 0.41140 -0.19600
N 	N 	0.51320 0.93730 0.08100 -0.19100
N 	N 	0.98430 0.55500 0.08860 -0.19200
N 	N 	0.01320 0.56270 0.41900 -0.19200
N 	N 	0.51570 0.05500 0.58860 -0.19600
N 	N 	0.48680 0.06270 0.91900 -0.19100
N 	N 	0.01570 0.44500 0.91140 -0.19200
N 	N 	0.98680 0.43730 0.58100 -0.19200
O 	O 	0.78330 0.78890 0.35460 -0.54600
O 	O 	0.98440 0.82790 0.48340 -0.32100
O 	O 	0.21490 0.96210 0.21800 -0.47900
O 	O 	0.01840 0.07960 0.13110 -0.28000
O 	O 	0.27000 0.74670 0.32896 -0.89300
O 	O 	0.28330 0.71110 0.14540 -0.54900
O 	O 	0.48440 0.67210 0.01660 -0.32300
O 	O 	0.71490 0.53790 0.28200 -0.47500
O 	O 	0.51840 0.42040 0.36890 -0.27800
O 	O 	0.77000 0.75330 0.17104 -0.89100
O 	O 	0.21670 0.21110 0.64540 -0.54600
O 	O 	0.01560 0.17210 0.51660 -0.32100
O 	O 	0.78510 0.03790 0.78200 -0.47900
O 	O 	0.98160 0.92040 0.86890 -0.28000
O 	O 	0.73000 0.25330 0.67104 -0.89300
O 	O 	0.71670 0.28890 0.85460 -0.54900
O 	O 	0.51560 0.32790 0.98340 -0.32300
O 	O 	0.28510 0.46210 0.71800 -0.47500
O 	O 	0.48160 0.57960 0.63110 -0.27800
O 	O 	0.23000 0.24670 0.82896 -0.89100
