data_crystal

_cell_length_a 11.34240
_cell_length_b 15.45160
_cell_length_c 51.31900
_cell_angle_alpha 90.00000
_cell_angle_beta  90.00000
_cell_angle_gamma 96.00900

_symmetry_space_group_name_	'P 1'
_symmetry_space_group_name_H-M	'P 1'

loop_
_symmetry_equiv_pos_as_xyz
  x,y,z

loop_
_atom_site_label
_atom_site_type_symbol
_atom_site_fract_x
_atom_site_fract_y
_atom_site_fract_z
_atom_site_charge
Ag	Ag	0.44718 0.20761 0.85795 0.44000
Ag	Ag	0.27669 0.18281 0.80886 0.49700
Ag	Ag	0.30747 0.99611 0.80448 0.45200
Ag	Ag	0.45895 0.02203 0.85330 0.37200
Ag	Ag	0.30027 0.11155 0.89440 0.43100
Ag	Ag	0.03418 0.10701 0.83787 0.46300
Ag	Ag	0.12004 0.93726 0.84192 0.40700
Ag	Ag	0.36198 0.87571 0.88394 0.38900
Ag	Ag	0.17227 0.06979 0.94128 0.49700
Ag	Ag	0.01151 0.02210 0.89066 0.39900
Ag	Ag	0.02334 0.83479 0.88730 0.46500
Ag	Ag	0.16202 0.86692 0.94199 0.49600
Ag	Ag	0.39969 0.98379 0.93171 0.43600
Ag	Ag	0.80286 0.12774 0.91602 0.52900
Ag	Ag	0.74297 0.00764 0.87138 0.41400
Ag	Ag	0.76130 0.29103 0.87464 0.55400
Ag	Ag	0.76248 0.17255 0.83258 0.48300
Ag	Ag	0.60987 0.89566 0.82888 0.50400
Ag	Ag	0.68680 0.75503 0.87958 0.54600
Ag	Ag	0.67259 0.87709 0.92099 0.48800
Ag	Ag	0.05282 0.79239 0.35795 0.44400
Ag	Ag	0.22331 0.81719 0.30886 0.49900
Ag	Ag	0.19253 0.00389 0.30448 0.45200
Ag	Ag	0.04105 0.97797 0.35330 0.37700
Ag	Ag	0.19973 0.88845 0.39440 0.43200
Ag	Ag	0.46582 0.89299 0.33787 0.46800
Ag	Ag	0.37996 0.06274 0.34192 0.40800
Ag	Ag	0.13802 0.12429 0.38394 0.39100
Ag	Ag	0.32773 0.93021 0.44128 0.49800
Ag	Ag	0.48849 0.97790 0.39066 0.40400
Ag	Ag	0.47666 0.16521 0.38730 0.46800
Ag	Ag	0.33798 0.13308 0.44199 0.49600
Ag	Ag	0.10031 0.01621 0.43171 0.43700
Ag	Ag	0.69714 0.87226 0.41602 0.52800
Ag	Ag	0.75703 0.99236 0.37138 0.41200
Ag	Ag	0.73870 0.70897 0.37464 0.55300
Ag	Ag	0.73752 0.82745 0.33258 0.48100
Ag	Ag	0.89013 0.10434 0.32888 0.50200
Ag	Ag	0.81320 0.24497 0.37958 0.54500
Ag	Ag	0.82741 0.12291 0.42099 0.48800
Ag	Ag	0.55282 0.79239 0.14205 0.44100
Ag	Ag	0.72331 0.81719 0.19114 0.49800
Ag	Ag	0.69253 0.00389 0.19552 0.45200
Ag	Ag	0.54105 0.97797 0.14670 0.37200
Ag	Ag	0.69973 0.88845 0.10560 0.43100
Ag	Ag	0.96582 0.89299 0.16213 0.46300
Ag	Ag	0.87996 0.06274 0.15808 0.40700
Ag	Ag	0.63802 0.12429 0.11606 0.38900
Ag	Ag	0.82773 0.93021 0.05872 0.49700
Ag	Ag	0.98849 0.97790 0.10934 0.39900
Ag	Ag	0.97666 0.16521 0.11270 0.46500
Ag	Ag	0.83798 0.13308 0.05801 0.49600
Ag	Ag	0.60031 0.01621 0.06829 0.43600
Ag	Ag	0.19714 0.87226 0.08398 0.52900
Ag	Ag	0.25703 0.99236 0.12862 0.41400
Ag	Ag	0.23870 0.70897 0.12536 0.55400
Ag	Ag	0.23752 0.82745 0.16742 0.48300
Ag	Ag	0.39013 0.10434 0.17112 0.50400
Ag	Ag	0.31320 0.24497 0.12042 0.54600
Ag	Ag	0.32741 0.12291 0.07901 0.48800
Ag	Ag	0.94718 0.20761 0.64205 0.44400
Ag	Ag	0.77669 0.18281 0.69114 0.49900
Ag	Ag	0.80747 0.99611 0.69552 0.45200
Ag	Ag	0.95895 0.02203 0.64670 0.37700
Ag	Ag	0.80027 0.11155 0.60560 0.43200
Ag	Ag	0.53418 0.10701 0.66213 0.46800
Ag	Ag	0.62004 0.93726 0.65808 0.40800
Ag	Ag	0.86198 0.87571 0.61606 0.39100
Ag	Ag	0.67227 0.06979 0.55872 0.49800
Ag	Ag	0.51151 0.02210 0.60934 0.40400
Ag	Ag	0.52334 0.83479 0.61270 0.46800
Ag	Ag	0.66202 0.86692 0.55801 0.49600
Ag	Ag	0.89969 0.98379 0.56829 0.43700
Ag	Ag	0.30286 0.12774 0.58398 0.52800
Ag	Ag	0.24297 0.00764 0.62862 0.41200
Ag	Ag	0.26130 0.29103 0.62536 0.55300
Ag	Ag	0.26248 0.17255 0.66742 0.48100
Ag	Ag	0.10987 0.89566 0.67112 0.50200
Ag	Ag	0.18680 0.75503 0.62042 0.54500
Ag	Ag	0.17259 0.87709 0.57901 0.48800
H 	H 	0.87670 0.00920 0.75380 0.04800
H 	H 	0.58550 0.88840 0.72820 0.06600
H 	H 	0.52460 0.85910 0.76980 0.05500
H 	H 	0.58450 0.12520 0.74130 0.02300
H 	H 	0.89450 0.25850 0.73980 0.06300
H 	H 	0.90480 0.25280 0.78350 0.09900
H 	H 	0.92460 0.94320 0.00220 0.03500
H 	H 	0.61490 0.82890 0.02110 0.09800
H 	H 	0.56540 0.81530 0.97690 0.05200
H 	H 	0.63150 0.07200 0.00730 0.02700
H 	H 	0.94200 0.20820 0.00910 0.10200
H 	H 	0.94720 0.20780 0.96520 0.10500
H 	H 	0.33560 0.54870 0.87220 0.26100
H 	H 	0.41120 0.47550 0.87140 0.23800
H 	H 	0.56690 0.42180 0.87460 0.02500
H 	H 	0.90800 0.47480 0.87900 0.14000
H 	H 	0.88600 0.62070 0.87950 0.06900
H 	H 	0.62330 0.99080 0.25380 0.04400
H 	H 	0.91450 0.11160 0.22820 0.06400
H 	H 	0.97540 0.14090 0.26980 0.05200
H 	H 	0.91550 0.87480 0.24130 0.01900
H 	H 	0.60550 0.74150 0.23980 0.06100
H 	H 	0.59520 0.74720 0.28350 0.09400
H 	H 	0.57540 0.05680 0.50220 0.03600
H 	H 	0.88510 0.17110 0.52110 0.09900
H 	H 	0.93460 0.18470 0.47690 0.05200
H 	H 	0.86850 0.92800 0.50730 0.02700
H 	H 	0.55800 0.79180 0.50910 0.10300
H 	H 	0.55280 0.79220 0.46520 0.10400
H 	H 	0.16440 0.45130 0.37220 0.26100
H 	H 	0.08880 0.52450 0.37140 0.23900
H 	H 	0.93310 0.57820 0.37460 0.02400
H 	H 	0.59200 0.52520 0.37900 0.13800
H 	H 	0.61400 0.37930 0.37950 0.06800
H 	H 	0.12330 0.99080 0.24620 0.04800
H 	H 	0.41450 0.11160 0.27180 0.06600
H 	H 	0.47540 0.14090 0.23020 0.05500
H 	H 	0.41550 0.87480 0.25870 0.02300
H 	H 	0.10550 0.74150 0.26020 0.06300
H 	H 	0.09520 0.74720 0.21650 0.09900
H 	H 	0.07540 0.05680 0.99780 0.03500
H 	H 	0.38510 0.17110 0.97890 0.09800
H 	H 	0.43460 0.18470 0.02310 0.05200
H 	H 	0.36850 0.92800 0.99270 0.02700
H 	H 	0.05800 0.79180 0.99090 0.10200
H 	H 	0.05280 0.79220 0.03480 0.10500
H 	H 	0.66440 0.45130 0.12780 0.26100
H 	H 	0.58880 0.52450 0.12860 0.23800
H 	H 	0.43310 0.57820 0.12540 0.02500
H 	H 	0.09200 0.52520 0.12100 0.14000
H 	H 	0.11400 0.37930 0.12050 0.06900
H 	H 	0.37670 0.00920 0.74620 0.04400
H 	H 	0.08550 0.88840 0.77180 0.06400
H 	H 	0.02460 0.85910 0.73020 0.05200
H 	H 	0.08450 0.12520 0.75870 0.01900
H 	H 	0.39450 0.25850 0.76020 0.06100
H 	H 	0.40480 0.25280 0.71650 0.09400
H 	H 	0.42460 0.94320 0.49780 0.03600
H 	H 	0.11490 0.82890 0.47890 0.09900
H 	H 	0.06540 0.81530 0.52310 0.05200
H 	H 	0.13150 0.07200 0.49270 0.02700
H 	H 	0.44200 0.20820 0.49090 0.10300
H 	H 	0.44720 0.20780 0.53480 0.10400
H 	H 	0.83560 0.54870 0.62780 0.26100
H 	H 	0.91120 0.47550 0.62860 0.23900
H 	H 	0.06690 0.42180 0.62540 0.02400
H 	H 	0.40800 0.47480 0.62100 0.13800
H 	H 	0.38600 0.62070 0.62050 0.06800
C 	C 	0.31200 0.10280 0.84750 -0.32900
C 	C 	0.22500 0.06250 0.83930 -0.33600
C 	C 	0.23710 0.97200 0.91030 -0.37700
C 	C 	0.15190 0.93730 0.89960 -0.32100
C 	C 	0.89770 0.11250 0.87540 -0.29400
C 	C 	0.83220 0.16900 0.87140 -0.25000
C 	C 	0.61650 0.87870 0.88130 -0.26900
C 	C 	0.55610 0.92470 0.86950 -0.36100
C 	C 	0.10970 0.24290 0.91340 0.30600
C 	C 	0.05520 0.32850 0.91280 0.29700
C 	C 	0.12380 0.39970 0.92860 0.84900
C 	C 	0.09270 0.30960 0.82370 0.30800
C 	C 	0.05940 0.40270 0.82230 0.30500
C 	C 	0.08100 0.44140 0.79530 0.84500
C 	C 	0.51150 0.24400 0.91800 0.30500
C 	C 	0.57610 0.29730 0.93973 0.30200
C 	C 	0.51520 0.37710 0.94720 0.83200
C 	C 	0.91730 0.72830 0.93580 0.30700
C 	C 	0.84180 0.65000 0.94740 0.31400
C 	C 	0.85870 0.63060 0.97610 0.84900
C 	C 	0.92850 0.78660 0.83080 0.32900
C 	C 	0.85400 0.71420 0.81580 0.31800
C 	C 	0.87890 0.70790 0.78690 0.84700
C 	C 	0.85170 0.98880 0.80480 0.32700
C 	C 	0.77060 0.95720 0.78210 0.00800
C 	C 	0.80410 0.97680 0.75670 0.04100
C 	C 	0.63520 0.90780 0.74190 0.03200
C 	C 	0.59870 0.88940 0.76690 0.03800
C 	C 	0.56020 0.09840 0.79250 0.32500
C 	C 	0.65600 0.14710 0.77650 -0.05600
C 	C 	0.65220 0.15100 0.74960 0.06500
C 	C 	0.83220 0.22840 0.74890 0.03900
C 	C 	0.83830 0.22560 0.77510 0.01300
C 	C 	0.90660 0.95610 0.95220 0.31700
C 	C 	0.81920 0.91370 0.97180 -0.02800
C 	C 	0.84900 0.91900 0.99760 0.06000
C 	C 	0.66910 0.85140 0.00860 0.03900
C 	C 	0.63870 0.84300 0.98180 0.06000
C 	C 	0.59920 0.05640 0.95670 0.34700
C 	C 	0.70130 0.10120 0.97260 -0.00600
C 	C 	0.69790 0.09970 0.99900 0.05100
C 	C 	0.87900 0.17890 0.00010 0.02800
C 	C 	0.88170 0.17940 0.97370 0.04500
C 	C 	0.50110 0.58680 0.87490 0.33800
C 	C 	0.62170 0.55010 0.87560 0.01500
C 	C 	0.63400 0.46180 0.87540 0.09100
C 	C 	0.83220 0.49250 0.87810 0.06800
C 	C 	0.81890 0.58070 0.87850 0.10400
C 	C 	0.18800 0.89720 0.34750 -0.32800
C 	C 	0.27500 0.93750 0.33930 -0.33400
C 	C 	0.26290 0.02800 0.41030 -0.37800
C 	C 	0.34810 0.06270 0.39960 -0.32000
C 	C 	0.60230 0.88750 0.37540 -0.30000
C 	C 	0.66780 0.83100 0.37140 -0.25000
C 	C 	0.88350 0.12130 0.38130 -0.26900
C 	C 	0.94390 0.07530 0.36950 -0.36600
C 	C 	0.39030 0.75710 0.41340 0.30500
C 	C 	0.44480 0.67150 0.41280 0.30200
C 	C 	0.37620 0.60030 0.42860 0.84800
C 	C 	0.40730 0.69040 0.32370 0.30500
C 	C 	0.44060 0.59730 0.32230 0.31600
C 	C 	0.41900 0.55860 0.29530 0.84200
C 	C 	0.98850 0.75600 0.41800 0.29700
C 	C 	0.92390 0.70270 0.43973 0.30600
C 	C 	0.98480 0.62290 0.44720 0.82500
C 	C 	0.58270 0.27170 0.43580 0.30300
C 	C 	0.65820 0.35000 0.44740 0.31500
C 	C 	0.64130 0.36940 0.47610 0.84800
C 	C 	0.57150 0.21340 0.33080 0.31800
C 	C 	0.64600 0.28580 0.31580 0.32100
C 	C 	0.62110 0.29210 0.28690 0.84500
C 	C 	0.64830 0.01120 0.30480 0.33100
C 	C 	0.72940 0.04280 0.28210 0.00600
C 	C 	0.69590 0.02320 0.25670 0.04500
C 	C 	0.86480 0.09220 0.24190 0.03200
C 	C 	0.90130 0.11060 0.26690 0.03700
C 	C 	0.93980 0.90160 0.29250 0.30900
C 	C 	0.84400 0.85290 0.27650 -0.05400
C 	C 	0.84780 0.84900 0.24960 0.06200
C 	C 	0.66780 0.77160 0.24890 0.03800
C 	C 	0.66170 0.77440 0.27510 0.01200
C 	C 	0.59340 0.04390 0.45220 0.31500
C 	C 	0.68080 0.08630 0.47180 -0.02700
C 	C 	0.65100 0.08100 0.49760 0.06000
C 	C 	0.83090 0.14860 0.50860 0.03900
C 	C 	0.86130 0.15700 0.48180 0.06100
C 	C 	0.90080 0.94360 0.45670 0.34800
C 	C 	0.79870 0.89880 0.47260 -0.00700
C 	C 	0.80210 0.90030 0.49900 0.05000
C 	C 	0.62100 0.82110 0.50010 0.02800
C 	C 	0.61830 0.82060 0.47370 0.04500
C 	C 	0.99890 0.41320 0.37490 0.32100
C 	C 	0.87830 0.44990 0.37560 0.01800
C 	C 	0.86600 0.53820 0.37540 0.08900
C 	C 	0.66780 0.50750 0.37810 0.06700
C 	C 	0.68110 0.41930 0.37850 0.10400
C 	C 	0.68800 0.89720 0.15250 -0.32900
C 	C 	0.77500 0.93750 0.16070 -0.33600
C 	C 	0.76290 0.02800 0.08970 -0.37700
C 	C 	0.84810 0.06270 0.10040 -0.32100
C 	C 	0.10230 0.88750 0.12460 -0.29400
C 	C 	0.16780 0.83100 0.12860 -0.25000
C 	C 	0.38350 0.12130 0.11870 -0.26900
C 	C 	0.44390 0.07530 0.13050 -0.36100
C 	C 	0.89030 0.75710 0.08660 0.30600
C 	C 	0.94480 0.67150 0.08720 0.29700
C 	C 	0.87620 0.60030 0.07140 0.84900
C 	C 	0.90730 0.69040 0.17630 0.30800
C 	C 	0.94060 0.59730 0.17770 0.30500
C 	C 	0.91900 0.55860 0.20470 0.84500
C 	C 	0.48850 0.75600 0.08200 0.30500
C 	C 	0.42390 0.70270 0.06027 0.30200
C 	C 	0.48480 0.62290 0.05280 0.83200
C 	C 	0.08270 0.27170 0.06420 0.30700
C 	C 	0.15820 0.35000 0.05260 0.31400
C 	C 	0.14130 0.36940 0.02390 0.84900
C 	C 	0.07150 0.21340 0.16920 0.32900
C 	C 	0.14600 0.28580 0.18420 0.31800
C 	C 	0.12110 0.29210 0.21310 0.84700
C 	C 	0.14830 0.01120 0.19520 0.32700
C 	C 	0.22940 0.04280 0.21790 0.00800
C 	C 	0.19590 0.02320 0.24330 0.04100
C 	C 	0.36480 0.09220 0.25810 0.03200
C 	C 	0.40130 0.11060 0.23310 0.03800
C 	C 	0.43980 0.90160 0.20750 0.32500
C 	C 	0.34400 0.85290 0.22350 -0.05600
C 	C 	0.34780 0.84900 0.25040 0.06500
C 	C 	0.16780 0.77160 0.25110 0.03900
C 	C 	0.16170 0.77440 0.22490 0.01300
C 	C 	0.09340 0.04390 0.04780 0.31700
C 	C 	0.18080 0.08630 0.02820 -0.02800
C 	C 	0.15100 0.08100 0.00240 0.06000
C 	C 	0.33090 0.14860 0.99140 0.03900
C 	C 	0.36130 0.15700 0.01820 0.06000
C 	C 	0.40080 0.94360 0.04330 0.34700
C 	C 	0.29870 0.89880 0.02740 -0.00600
C 	C 	0.30210 0.90030 0.00100 0.05100
C 	C 	0.12100 0.82110 0.99990 0.02800
C 	C 	0.11830 0.82060 0.02630 0.04500
C 	C 	0.49890 0.41320 0.12510 0.33800
C 	C 	0.37830 0.44990 0.12440 0.01500
C 	C 	0.36600 0.53820 0.12460 0.09100
C 	C 	0.16780 0.50750 0.12190 0.06800
C 	C 	0.18110 0.41930 0.12150 0.10400
C 	C 	0.81200 0.10280 0.65250 -0.32800
C 	C 	0.72500 0.06250 0.66070 -0.33400
C 	C 	0.73710 0.97200 0.58970 -0.37800
C 	C 	0.65190 0.93730 0.60040 -0.32000
C 	C 	0.39770 0.11250 0.62460 -0.30000
C 	C 	0.33220 0.16900 0.62860 -0.25000
C 	C 	0.11650 0.87870 0.61870 -0.26900
C 	C 	0.05610 0.92470 0.63050 -0.36600
C 	C 	0.60970 0.24290 0.58660 0.30500
C 	C 	0.55520 0.32850 0.58720 0.30200
C 	C 	0.62380 0.39970 0.57140 0.84800
C 	C 	0.59270 0.30960 0.67630 0.30500
C 	C 	0.55940 0.40270 0.67770 0.31600
C 	C 	0.58100 0.44140 0.70470 0.84200
C 	C 	0.01150 0.24400 0.58200 0.29700
C 	C 	0.07610 0.29730 0.56027 0.30600
C 	C 	0.01520 0.37710 0.55280 0.82500
C 	C 	0.41730 0.72830 0.56420 0.30300
C 	C 	0.34180 0.65000 0.55260 0.31500
C 	C 	0.35870 0.63060 0.52390 0.84800
C 	C 	0.42850 0.78660 0.66920 0.31800
C 	C 	0.35400 0.71420 0.68420 0.32100
C 	C 	0.37890 0.70790 0.71310 0.84500
C 	C 	0.35170 0.98880 0.69520 0.33100
C 	C 	0.27060 0.95720 0.71790 0.00600
C 	C 	0.30410 0.97680 0.74330 0.04500
C 	C 	0.13520 0.90780 0.75810 0.03200
C 	C 	0.09870 0.88940 0.73310 0.03700
C 	C 	0.06020 0.09840 0.70750 0.30900
C 	C 	0.15600 0.14710 0.72350 -0.05400
C 	C 	0.15220 0.15100 0.75040 0.06200
C 	C 	0.33220 0.22840 0.75110 0.03800
C 	C 	0.33830 0.22560 0.72490 0.01200
C 	C 	0.40660 0.95610 0.54780 0.31500
C 	C 	0.31920 0.91370 0.52820 -0.02700
C 	C 	0.34900 0.91900 0.50240 0.06000
C 	C 	0.16910 0.85140 0.49140 0.03900
C 	C 	0.13870 0.84300 0.51820 0.06100
C 	C 	0.09920 0.05640 0.54330 0.34800
C 	C 	0.20130 0.10120 0.52740 -0.00700
C 	C 	0.19790 0.09970 0.50100 0.05000
C 	C 	0.37900 0.17890 0.49990 0.02800
C 	C 	0.38170 0.17940 0.52630 0.04500
C 	C 	0.00110 0.58680 0.62510 0.32100
C 	C 	0.12170 0.55010 0.62440 0.01800
C 	C 	0.13400 0.46180 0.62460 0.08900
C 	C 	0.33220 0.49250 0.62190 0.06700
C 	C 	0.31890 0.58070 0.62150 0.10400
N 	N 	0.66870 0.91450 0.78730 -0.13100
N 	N 	0.73680 0.95140 0.73640 -0.15900
N 	N 	0.75140 0.18470 0.78920 -0.13400
N 	N 	0.73800 0.18880 0.73500 -0.16100
N 	N 	0.71530 0.87500 0.96400 -0.13700
N 	N 	0.77340 0.89060 0.01620 -0.14200
N 	N 	0.79360 0.14070 0.95970 -0.11600
N 	N 	0.78840 0.13740 0.01360 -0.15300
N 	N 	0.71350 0.60920 0.87750 -0.11000
N 	N 	0.74130 0.43350 0.87640 -0.12200
N 	N 	0.40460 0.53030 0.87260 -0.37400
N 	N 	0.83130 0.08550 0.28730 -0.13100
N 	N 	0.76320 0.04860 0.23640 -0.16000
N 	N 	0.74860 0.81530 0.28920 -0.13500
N 	N 	0.76200 0.81120 0.23500 -0.16200
N 	N 	0.78470 0.12500 0.46400 -0.13700
N 	N 	0.72660 0.10940 0.51620 -0.14200
N 	N 	0.70640 0.85930 0.45970 -0.11600
N 	N 	0.71160 0.86260 0.51360 -0.15300
N 	N 	0.78650 0.39080 0.37750 -0.11100
N 	N 	0.75870 0.56650 0.37640 -0.12200
N 	N 	0.09540 0.46970 0.37260 -0.36800
N 	N 	0.33130 0.08550 0.21270 -0.13100
N 	N 	0.26320 0.04860 0.26360 -0.15900
N 	N 	0.24860 0.81530 0.21080 -0.13400
N 	N 	0.26200 0.81120 0.26500 -0.16100
N 	N 	0.28470 0.12500 0.03600 -0.13700
N 	N 	0.22660 0.10940 0.98380 -0.14200
N 	N 	0.20640 0.85930 0.04030 -0.11600
N 	N 	0.21160 0.86260 0.98640 -0.15300
N 	N 	0.28650 0.39080 0.12250 -0.11000
N 	N 	0.25870 0.56650 0.12360 -0.12200
N 	N 	0.59540 0.46970 0.12740 -0.37400
N 	N 	0.16870 0.91450 0.71270 -0.13100
N 	N 	0.23680 0.95140 0.76360 -0.16000
N 	N 	0.25140 0.18470 0.71080 -0.13500
N 	N 	0.23800 0.18880 0.76500 -0.16200
N 	N 	0.21530 0.87500 0.53600 -0.13700
N 	N 	0.27340 0.89060 0.48380 -0.14200
N 	N 	0.29360 0.14070 0.54030 -0.11600
N 	N 	0.28840 0.13740 0.48640 -0.15300
N 	N 	0.21350 0.60920 0.62250 -0.11100
N 	N 	0.24130 0.43350 0.62360 -0.12200
N 	N 	0.90460 0.53030 0.62740 -0.36800
O 	O 	0.19010 0.23520 0.89650 -0.28800
O 	O 	0.07260 0.18970 0.92900 -0.32500
O 	O 	0.01290 0.25010 0.82220 -0.32400
O 	O 	0.20320 0.30670 0.82620 -0.26600
O 	O 	0.42410 0.19400 0.92570 -0.30800
O 	O 	0.55350 0.25450 0.89580 -0.37400
O 	O 	0.00500 0.76130 0.94880 -0.27200
O 	O 	0.88780 0.74880 0.91350 -0.32700
O 	O 	0.89750 0.78360 0.85440 -0.35200
O 	O 	0.01400 0.83170 0.82140 -0.32300
O 	O 	0.82450 0.96030 0.82640 -0.41100
O 	O 	0.94060 0.04070 0.79910 -0.34500
O 	O 	0.58430 0.08720 0.81654 -0.46600
O 	O 	0.46960 0.07050 0.78131 -0.37000
O 	O 	0.87170 0.96010 0.92842 -0.43200
O 	O 	0.00660 0.98370 0.96003 -0.36600
O 	O 	0.61300 0.05190 0.93235 -0.42500
O 	O 	0.51070 0.02600 0.96797 -0.34200
O 	O 	0.49670 0.66420 0.87660 -0.31700
O 	O 	0.30990 0.76480 0.39650 -0.28600
O 	O 	0.42740 0.81030 0.42900 -0.32200
O 	O 	0.48710 0.74990 0.32220 -0.31700
O 	O 	0.29680 0.69330 0.32620 -0.26400
O 	O 	0.07590 0.80600 0.42570 -0.30200
O 	O 	0.94650 0.74550 0.39580 -0.37500
O 	O 	0.49500 0.23870 0.44880 -0.26800
O 	O 	0.61220 0.25120 0.41350 -0.32800
O 	O 	0.60250 0.21640 0.35440 -0.35100
O 	O 	0.48600 0.16830 0.32140 -0.31100
O 	O 	0.67550 0.03970 0.32640 -0.41300
O 	O 	0.55940 0.95930 0.29910 -0.35200
O 	O 	0.91570 0.91280 0.31654 -0.46600
O 	O 	0.03040 0.92950 0.28131 -0.35600
O 	O 	0.62830 0.03990 0.42842 -0.43200
O 	O 	0.49340 0.01630 0.46003 -0.36500
O 	O 	0.88700 0.94810 0.43235 -0.42700
O 	O 	0.98930 0.97400 0.46797 -0.34400
O 	O 	0.00330 0.33580 0.37660 -0.30500
O 	O 	0.80990 0.76480 0.10350 -0.28800
O 	O 	0.92740 0.81030 0.07100 -0.32500
O 	O 	0.98710 0.74990 0.17780 -0.32400
O 	O 	0.79680 0.69330 0.17380 -0.26600
O 	O 	0.57590 0.80600 0.07430 -0.30800
O 	O 	0.44650 0.74550 0.10420 -0.37400
O 	O 	0.99500 0.23870 0.05120 -0.27200
O 	O 	0.11220 0.25120 0.08650 -0.32700
O 	O 	0.10250 0.21640 0.14560 -0.35200
O 	O 	0.98600 0.16830 0.17860 -0.32300
O 	O 	0.17550 0.03970 0.17360 -0.41100
O 	O 	0.05940 0.95930 0.20090 -0.34500
O 	O 	0.41570 0.91280 0.18346 -0.46600
O 	O 	0.53040 0.92950 0.21869 -0.37000
O 	O 	0.12830 0.03990 0.07158 -0.43200
O 	O 	0.99340 0.01630 0.03997 -0.36600
O 	O 	0.38700 0.94810 0.06765 -0.42500
O 	O 	0.48930 0.97400 0.03203 -0.34200
O 	O 	0.50330 0.33580 0.12340 -0.31700
O 	O 	0.69010 0.23520 0.60350 -0.28600
O 	O 	0.57260 0.18970 0.57100 -0.32200
O 	O 	0.51290 0.25010 0.67780 -0.31700
O 	O 	0.70320 0.30670 0.67380 -0.26400
O 	O 	0.92410 0.19400 0.57430 -0.30200
O 	O 	0.05350 0.25450 0.60420 -0.37500
O 	O 	0.50500 0.76130 0.55120 -0.26800
O 	O 	0.38780 0.74880 0.58650 -0.32800
O 	O 	0.39750 0.78360 0.64560 -0.35100
O 	O 	0.51400 0.83170 0.67860 -0.31100
O 	O 	0.32450 0.96030 0.67360 -0.41300
O 	O 	0.44060 0.04070 0.70090 -0.35200
O 	O 	0.08430 0.08720 0.68346 -0.46600
O 	O 	0.96960 0.07050 0.71869 -0.35600
O 	O 	0.37170 0.96010 0.57158 -0.43200
O 	O 	0.50660 0.98370 0.53997 -0.36500
O 	O 	0.11300 0.05190 0.56765 -0.42700
O 	O 	0.01070 0.02600 0.53203 -0.34400
O 	O 	0.99670 0.66420 0.62340 -0.30500
F 	F 	0.04970 0.35870 0.88880 -0.38200
F 	F 	0.94450 0.32010 0.92190 -0.37100
F 	F 	0.07050 0.47130 0.92780 -0.37500
F 	F 	0.13200 0.37540 0.95300 -0.37400
F 	F 	0.23110 0.41500 0.91860 -0.41200
F 	F 	0.94600 0.40530 0.82810 -0.37100
F 	F 	0.12330 0.45760 0.83830 -0.34700
F 	F 	0.19210 0.44440 0.78810 -0.42700
F 	F 	0.05000 0.52070 0.79310 -0.35500
F 	F 	0.01600 0.39210 0.77870 -0.45400
F 	F 	0.68600 0.32570 0.93298 -0.35900
F 	F 	0.58300 0.25160 0.96161 -0.37400
F 	F 	0.49130 0.42330 0.92650 -0.42100
F 	F 	0.41180 0.35590 0.95840 -0.37500
F 	F 	0.57850 0.42930 0.96340 -0.32600
F 	F 	0.86000 0.57410 0.93580 -0.30600
F 	F 	0.72850 0.66230 0.94430 -0.37000
F 	F 	0.78040 0.56420 0.98230 -0.31400
F 	F 	0.83770 0.70510 0.98710 -0.44300
F 	F 	0.96790 0.61020 0.97980 -0.37500
F 	F 	0.87000 0.63210 0.82380 -0.33100
F 	F 	0.73970 0.72700 0.81800 -0.40700
F 	F 	0.80160 0.64550 0.77750 -0.37100
F 	F 	0.85920 0.78990 0.78290 -0.48900
F 	F 	0.98950 0.68890 0.78420 -0.40200
F 	F 	0.45030 0.64130 0.38880 -0.38000
F 	F 	0.55550 0.67990 0.42190 -0.37500
F 	F 	0.42950 0.52870 0.42780 -0.37300
F 	F 	0.36800 0.62460 0.45300 -0.37300
F 	F 	0.26890 0.58500 0.41860 -0.41100
F 	F 	0.55400 0.59470 0.32810 -0.37900
F 	F 	0.37670 0.54240 0.33830 -0.34600
F 	F 	0.30790 0.55560 0.28810 -0.42500
F 	F 	0.45000 0.47930 0.29310 -0.35000
F 	F 	0.48400 0.60790 0.27870 -0.44900
F 	F 	0.81400 0.67430 0.43298 -0.36000
F 	F 	0.91700 0.74840 0.46161 -0.37500
F 	F 	0.00870 0.57670 0.42650 -0.41600
F 	F 	0.08820 0.64410 0.45840 -0.37200
F 	F 	0.92150 0.57070 0.46340 -0.32600
F 	F 	0.64000 0.42590 0.43580 -0.30700
F 	F 	0.77150 0.33770 0.44430 -0.37000
F 	F 	0.71960 0.43580 0.48230 -0.31400
F 	F 	0.66230 0.29490 0.48710 -0.44200
F 	F 	0.53210 0.38980 0.47980 -0.37400
F 	F 	0.63000 0.36790 0.32380 -0.33400
F 	F 	0.76030 0.27300 0.31800 -0.40800
F 	F 	0.69840 0.35450 0.27750 -0.37400
F 	F 	0.64080 0.21010 0.28290 -0.49100
F 	F 	0.51050 0.31110 0.28420 -0.40600
F 	F 	0.95030 0.64130 0.11120 -0.38200
F 	F 	0.05550 0.67990 0.07810 -0.37100
F 	F 	0.92950 0.52870 0.07220 -0.37500
F 	F 	0.86800 0.62460 0.04700 -0.37400
F 	F 	0.76890 0.58500 0.08140 -0.41200
F 	F 	0.05400 0.59470 0.17190 -0.37100
F 	F 	0.87670 0.54240 0.16170 -0.34700
F 	F 	0.80790 0.55560 0.21190 -0.42700
F 	F 	0.95000 0.47930 0.20690 -0.35500
F 	F 	0.98400 0.60790 0.22130 -0.45400
F 	F 	0.31400 0.67430 0.06702 -0.35900
F 	F 	0.41700 0.74840 0.03839 -0.37400
F 	F 	0.50870 0.57670 0.07350 -0.42100
F 	F 	0.58820 0.64410 0.04160 -0.37500
F 	F 	0.42150 0.57070 0.03660 -0.32600
F 	F 	0.14000 0.42590 0.06420 -0.30600
F 	F 	0.27150 0.33770 0.05570 -0.37000
F 	F 	0.21960 0.43580 0.01770 -0.31400
F 	F 	0.16230 0.29490 0.01290 -0.44300
F 	F 	0.03210 0.38980 0.02020 -0.37500
F 	F 	0.13000 0.36790 0.17620 -0.33100
F 	F 	0.26030 0.27300 0.18200 -0.40700
F 	F 	0.19840 0.35450 0.22250 -0.37100
F 	F 	0.14080 0.21010 0.21710 -0.48900
F 	F 	0.01050 0.31110 0.21580 -0.40200
F 	F 	0.54970 0.35870 0.61120 -0.38000
F 	F 	0.44450 0.32010 0.57810 -0.37500
F 	F 	0.57050 0.47130 0.57220 -0.37300
F 	F 	0.63200 0.37540 0.54700 -0.37300
F 	F 	0.73110 0.41500 0.58140 -0.41100
F 	F 	0.44600 0.40530 0.67190 -0.37900
F 	F 	0.62330 0.45760 0.66170 -0.34600
F 	F 	0.69210 0.44440 0.71190 -0.42500
F 	F 	0.55000 0.52070 0.70690 -0.35000
F 	F 	0.51600 0.39210 0.72130 -0.44900
F 	F 	0.18600 0.32570 0.56702 -0.36000
F 	F 	0.08300 0.25160 0.53839 -0.37500
F 	F 	0.99130 0.42330 0.57350 -0.41600
F 	F 	0.91180 0.35590 0.54160 -0.37200
F 	F 	0.07850 0.42930 0.53660 -0.32600
F 	F 	0.36000 0.57410 0.56420 -0.30700
F 	F 	0.22850 0.66230 0.55570 -0.37000
F 	F 	0.28040 0.56420 0.51770 -0.31400
F 	F 	0.33770 0.70510 0.51290 -0.44200
F 	F 	0.46790 0.61020 0.52020 -0.37400
F 	F 	0.37000 0.63210 0.67620 -0.33400
F 	F 	0.23970 0.72700 0.68200 -0.40800
F 	F 	0.30160 0.64550 0.72250 -0.37400
F 	F 	0.35920 0.78990 0.71710 -0.49100
F 	F 	0.48950 0.68890 0.71580 -0.40600
