data_crystal

_cell_length_a 9.71030
_cell_length_b 9.71030
_cell_length_c 6.85530
_cell_angle_alpha 90.00000
_cell_angle_beta  90.00000
_cell_angle_gamma 90.00000

_symmetry_space_group_name_	'P 1'
_symmetry_space_group_name_H-M	'P 1'

loop_
_symmetry_equiv_pos_as_xyz
  x,y,z

loop_
_atom_site_label
_atom_site_type_symbol
_atom_site_fract_x
_atom_site_fract_y
_atom_site_fract_z
_atom_site_charge
C 	C 	0.53543 0.06574 0.16440 0.00200
H 	H 	0.55840 0.11060 0.28320 -0.00400
C 	C 	0.96457 0.43426 0.16440 0.00200
H 	H 	0.94160 0.38940 0.28320 -0.00400
C 	C 	0.43426 0.53543 0.16440 0.00200
H 	H 	0.38940 0.55840 0.28320 -0.00400
C 	C 	0.06574 0.96457 0.16440 0.00300
H 	H 	0.11060 0.94160 0.28320 -0.00300
C 	C 	0.46457 0.56574 0.83560 0.00400
H 	H 	0.44160 0.61060 0.71680 -0.00300
C 	C 	0.03543 0.93426 0.83560 0.00300
H 	H 	0.05840 0.88940 0.71680 -0.00300
C 	C 	0.56574 0.03543 0.83560 0.00300
H 	H 	0.61060 0.05840 0.71680 -0.00300
C 	C 	0.93426 0.46457 0.83560 0.00400
H 	H 	0.88940 0.44160 0.71680 -0.00300
C 	C 	0.46457 0.93426 0.83560 0.00400
H 	H 	0.44160 0.88940 0.71680 -0.00300
C 	C 	0.03543 0.56574 0.83560 0.00300
H 	H 	0.05840 0.61060 0.71680 -0.00300
C 	C 	0.56574 0.46457 0.83560 0.00400
H 	H 	0.61060 0.44160 0.71680 -0.00300
C 	C 	0.93426 0.03543 0.83560 0.00300
H 	H 	0.88940 0.05840 0.71680 -0.00300
C 	C 	0.53543 0.43426 0.16440 0.00300
H 	H 	0.55840 0.38940 0.28320 -0.00300
C 	C 	0.96457 0.06574 0.16440 0.00300
H 	H 	0.94160 0.11060 0.28320 -0.00300
C 	C 	0.43426 0.96457 0.16440 0.00300
H 	H 	0.38940 0.94160 0.28320 -0.00300
C 	C 	0.06574 0.53543 0.16440 0.00300
H 	H 	0.11060 0.55840 0.28320 -0.00300
Cu	Cu	0.75000 0.25000 -0.00000 0.84500
Cu	Cu	0.25000 0.75000 -0.00000 0.84500
N 	N 	0.60128 0.10128 -0.00000 -0.21100
N 	N 	0.89872 0.39872 -0.00000 -0.21100
N 	N 	0.39872 0.60128 -0.00000 -0.21100
N 	N 	0.10128 0.89872 -0.00000 -0.21100
N 	N 	0.39872 0.89872 -0.00000 -0.21100
N 	N 	0.10128 0.60128 -0.00000 -0.21100
N 	N 	0.60128 0.39872 -0.00000 -0.21100
N 	N 	0.89872 0.10128 -0.00000 -0.21100
