data_crystal

_cell_length_a 13.52740
_cell_length_b 13.52740
_cell_length_c 19.26450
_cell_angle_alpha 90.00000
_cell_angle_beta  90.00000
_cell_angle_gamma 120.00000

_symmetry_space_group_name_	'P 1'
_symmetry_space_group_name_H-M	'P 1'

loop_
_symmetry_equiv_pos_as_xyz
  x,y,z

loop_
_atom_site_label
_atom_site_type_symbol
_atom_site_fract_x
_atom_site_fract_y
_atom_site_fract_z
_atom_site_charge
Fe	Fe	0.85560 0.56550 0.45037 1.27900
P 	P 	0.96350 0.81210 0.37120 0.60800
P 	P 	0.63210 0.50510 0.54390 0.52900
O 	O 	0.88090 0.68600 0.38310 -0.33700
O 	O 	0.08120 0.82490 0.34750 -0.22600
O 	O 	0.92340 0.85970 0.31280 -0.25300
O 	O 	0.98360 0.87480 0.44020 -0.27900
O 	O 	0.71350 0.56410 0.48370 -0.38000
O 	O 	0.70250 0.49500 0.60660 -0.14000
O 	O 	0.00590 0.58000 0.42890 -0.44000
O 	O 	0.83920 0.45720 0.52730 -0.33200
O 	O 	0.77220 0.44320 0.38620 -0.35300
Fe	Fe	0.43450 0.29010 0.45037 1.24500
P 	P 	0.18790 0.15140 0.37120 0.52500
P 	P 	0.49490 0.12700 0.54390 0.52600
O 	O 	0.31400 0.19490 0.38310 -0.37100
O 	O 	0.17510 0.25630 0.34750 -0.20400
O 	O 	0.14030 0.06370 0.31280 -0.40500
O 	O 	0.12520 0.10880 0.44020 -0.44400
O 	O 	0.43590 0.14940 0.48370 -0.41200
O 	O 	0.50500 0.20750 0.60660 -0.15800
O 	O 	0.42000 0.42590 0.42890 -0.36200
O 	O 	0.54280 0.38200 0.52730 -0.35500
O 	O 	0.55680 0.32900 0.38620 -0.37700
Fe	Fe	0.70990 0.14440 0.45037 1.22000
P 	P 	0.84860 0.03650 0.37120 0.44900
P 	P 	0.87300 0.36790 0.54390 0.53300
O 	O 	0.80510 0.11910 0.38310 -0.35100
O 	O 	0.74370 0.91880 0.34750 -0.09700
O 	O 	0.93630 0.07660 0.31280 -0.27800
O 	O 	0.89120 0.01640 0.44020 -0.37200
O 	O 	0.85060 0.28650 0.48370 -0.35800
O 	O 	0.79250 0.29750 0.60660 -0.14600
O 	O 	0.57410 0.99410 0.42890 -0.28300
O 	O 	0.61800 0.16080 0.52730 -0.37700
O 	O 	0.67100 0.22780 0.38620 -0.38600
Fe	Fe	0.56550 0.85560 0.04963 1.26900
P 	P 	0.81210 0.96350 0.12880 0.60700
P 	P 	0.50510 0.63210 0.95610 0.55300
O 	O 	0.68600 0.88090 0.11690 -0.33900
O 	O 	0.82490 0.08120 0.15250 -0.22700
O 	O 	0.85970 0.92340 0.18720 -0.25400
O 	O 	0.87480 0.98360 0.05980 -0.28800
O 	O 	0.56410 0.71350 0.01630 -0.40600
O 	O 	0.49500 0.70250 0.89340 -0.14000
O 	O 	0.58000 0.00590 0.07110 -0.44300
O 	O 	0.45720 0.83920 0.97270 -0.31700
O 	O 	0.44320 0.77220 0.11380 -0.35700
Fe	Fe	0.29010 0.43450 0.04963 1.23600
P 	P 	0.15140 0.18790 0.12880 0.52500
P 	P 	0.12700 0.49490 0.95610 0.55300
O 	O 	0.19490 0.31400 0.11690 -0.37300
O 	O 	0.25630 0.17510 0.15250 -0.20600
O 	O 	0.06370 0.14030 0.18720 -0.40600
O 	O 	0.10880 0.12520 0.05980 -0.45300
O 	O 	0.14940 0.43590 0.01630 -0.44000
O 	O 	0.20750 0.50500 0.89340 -0.15700
O 	O 	0.42590 0.42000 0.07110 -0.36700
O 	O 	0.38200 0.54280 0.97270 -0.34000
O 	O 	0.32900 0.55680 0.11380 -0.38100
Fe	Fe	0.14440 0.70990 0.04963 1.21000
P 	P 	0.03650 0.84860 0.12880 0.44800
P 	P 	0.36790 0.87300 0.95610 0.55900
O 	O 	0.11910 0.80510 0.11690 -0.35400
O 	O 	0.91880 0.74370 0.15250 -0.09900
O 	O 	0.07660 0.93630 0.18720 -0.27900
O 	O 	0.01640 0.89120 0.05980 -0.38200
O 	O 	0.28650 0.85060 0.01630 -0.38500
O 	O 	0.29750 0.79250 0.89340 -0.14500
O 	O 	0.99410 0.57410 0.07110 -0.28700
O 	O 	0.16080 0.61800 0.97270 -0.36100
O 	O 	0.22780 0.67100 0.11380 -0.39000
Fe	Fe	0.14440 0.43450 0.54963 1.21700
P 	P 	0.03650 0.18790 0.62880 0.44200
P 	P 	0.36790 0.49490 0.45610 0.53000
O 	O 	0.11910 0.31400 0.61690 -0.37000
O 	O 	0.91880 0.17510 0.65250 -0.11700
O 	O 	0.07660 0.14030 0.68720 -0.37500
O 	O 	0.01640 0.12520 0.55980 -0.45600
O 	O 	0.28650 0.43590 0.51630 -0.38700
O 	O 	0.29750 0.50500 0.39340 -0.15600
O 	O 	0.99410 0.42000 0.57110 -0.28200
O 	O 	0.16080 0.54280 0.47270 -0.37800
O 	O 	0.22780 0.55680 0.61380 -0.39100
Fe	Fe	0.56550 0.70990 0.54963 1.25000
P 	P 	0.81210 0.84860 0.62880 0.53000
P 	P 	0.50510 0.87300 0.45610 0.53300
O 	O 	0.68600 0.80510 0.61690 -0.33600
O 	O 	0.82490 0.74370 0.65250 -0.15000
O 	O 	0.85970 0.93630 0.68720 -0.22600
O 	O 	0.87480 0.89120 0.55980 -0.29100
O 	O 	0.56410 0.85060 0.51630 -0.35500
O 	O 	0.49500 0.79250 0.39340 -0.13900
O 	O 	0.58000 0.57410 0.57110 -0.36100
O 	O 	0.45720 0.61800 0.47270 -0.35400
O 	O 	0.44320 0.67100 0.61380 -0.36700
Fe	Fe	0.29010 0.85560 0.54963 1.27700
P 	P 	0.15140 0.96350 0.62880 0.61400
P 	P 	0.12700 0.63210 0.45610 0.52600
O 	O 	0.19490 0.88090 0.61690 -0.35300
O 	O 	0.25630 0.08120 0.65250 -0.26100
O 	O 	0.06370 0.92340 0.68720 -0.33600
O 	O 	0.10880 0.98360 0.55980 -0.34700
O 	O 	0.14940 0.71350 0.51630 -0.40700
O 	O 	0.20750 0.70250 0.39340 -0.14900
O 	O 	0.42590 0.00590 0.57110 -0.44200
O 	O 	0.38200 0.83920 0.47270 -0.33100
O 	O 	0.32900 0.77220 0.61380 -0.35800
Fe	Fe	0.43450 0.14440 0.95037 1.22600
P 	P 	0.18790 0.03650 0.87120 0.44000
P 	P 	0.49490 0.36790 0.04390 0.50600
O 	O 	0.31400 0.11910 0.88310 -0.36700
O 	O 	0.17510 0.91880 0.84750 -0.11200
O 	O 	0.14030 0.07660 0.81280 -0.37400
O 	O 	0.12520 0.01640 0.94020 -0.43700
O 	O 	0.43590 0.28650 0.98370 -0.35900
O 	O 	0.50500 0.29750 0.10660 -0.15600
O 	O 	0.42000 0.99410 0.92890 -0.27700
O 	O 	0.54280 0.16080 0.02730 -0.39100
O 	O 	0.55680 0.22780 0.88620 -0.38800
Fe	Fe	0.70990 0.56550 0.95037 1.25900
P 	P 	0.84860 0.81210 0.87120 0.53000
P 	P 	0.87300 0.50510 0.04390 0.51100
O 	O 	0.80510 0.68600 0.88310 -0.33400
O 	O 	0.74370 0.82490 0.84750 -0.14700
O 	O 	0.93630 0.85970 0.81280 -0.22700
O 	O 	0.89120 0.87480 0.94020 -0.27700
O 	O 	0.85060 0.56410 0.98370 -0.33200
O 	O 	0.79250 0.49500 0.10660 -0.13900
O 	O 	0.57410 0.58000 0.92890 -0.35600
O 	O 	0.61800 0.45720 0.02730 -0.36700
O 	O 	0.67100 0.44320 0.88620 -0.36400
Fe	Fe	0.85560 0.29010 0.95037 1.28400
P 	P 	0.96350 0.15140 0.87120 0.61000
P 	P 	0.63210 0.12700 0.04390 0.50400
O 	O 	0.88090 0.19490 0.88310 -0.35200
O 	O 	0.08120 0.25630 0.84750 -0.25500
O 	O 	0.92340 0.06370 0.81280 -0.33800
O 	O 	0.98360 0.10880 0.94020 -0.33500
O 	O 	0.71350 0.14940 0.98370 -0.38200
O 	O 	0.70250 0.20750 0.10660 -0.14900
O 	O 	0.00590 0.42590 0.92890 -0.43500
O 	O 	0.83920 0.38200 0.02730 -0.34400
O 	O 	0.77220 0.32900 0.88620 -0.35600
Fe	Fe	-0.00000 0.00000 0.25000 1.12200
Fe	Fe	-0.00000 0.00000 0.75000 1.12300
Fe	Fe	-0.00000 0.00000 0.50000 1.14800
Fe	Fe	-0.00000 0.00000 -0.00000 1.13100
P 	P 	0.66667 0.33333 0.36250 0.56300
O 	O 	0.66667 0.33333 0.28180 -0.14000
P 	P 	0.33333 0.66667 0.13750 0.56100
O 	O 	0.33333 0.66667 0.21820 -0.14000
P 	P 	0.33333 0.66667 0.63750 0.56300
O 	O 	0.33333 0.66667 0.71820 -0.14000
P 	P 	0.66667 0.33333 0.86250 0.56400
O 	O 	0.66667 0.33333 0.78180 -0.14100
