data_crystal

_cell_length_a 7.72860
_cell_length_b 7.58740
_cell_length_c 17.98160
_cell_angle_alpha 90.00000
_cell_angle_beta  98.21400
_cell_angle_gamma 90.00000

_symmetry_space_group_name_	'P 1'
_symmetry_space_group_name_H-M	'P 1'

loop_
_symmetry_equiv_pos_as_xyz
  x,y,z

loop_
_atom_site_label
_atom_site_type_symbol
_atom_site_fract_x
_atom_site_fract_y
_atom_site_fract_z
_atom_site_charge
Fe	Fe	0.62459 0.93867 0.36313 1.19500
Fe	Fe	0.72445 0.81528 0.69250 1.19800
P 	P 	0.55016 0.07134 0.19010 0.57400
H 	H 	0.65800 0.14030 0.20110 -0.15400
O 	O 	0.42310 0.17970 0.13555 -0.40000
O 	O 	0.20770 0.65380 0.12343 -0.34100
O 	O 	0.59340 0.96140 0.59293 -0.45800
O 	O 	0.47900 0.04550 0.26443 -0.53300
O 	O 	0.29890 0.09090 0.51394 -0.31900
O 	O 	0.15490 0.35920 0.20149 -0.41600
O 	O 	0.59730 0.90110 0.15513 -0.40700
O 	O 	0.89770 0.47170 0.22425 -0.34700
O 	O 	0.94760 0.75290 0.14086 -0.31100
C 	C 	0.03690 0.47530 0.19630 0.23800
C 	C 	0.06680 0.64120 0.14950 0.23000
C 	C 	0.58640 0.96180 0.52180 0.25200
Fe	Fe	0.37541 0.43867 0.13687 1.19400
Fe	Fe	0.27555 0.31528 0.80750 1.19700
P 	P 	0.44984 0.57134 0.30990 0.57300
H 	H 	0.34200 0.64030 0.29890 -0.15500
O 	O 	0.57690 0.67970 0.36445 -0.40000
O 	O 	0.79230 0.15380 0.37657 -0.34100
O 	O 	0.40660 0.46140 0.90707 -0.45800
O 	O 	0.52100 0.54550 0.23557 -0.53300
O 	O 	0.70110 0.59090 0.98606 -0.31900
O 	O 	0.84510 0.85920 0.29851 -0.41400
O 	O 	0.40270 0.40110 0.34487 -0.40600
O 	O 	0.10230 0.97170 0.27575 -0.34400
O 	O 	0.05240 0.25290 0.35914 -0.31200
C 	C 	0.96310 0.97530 0.30370 0.23200
C 	C 	0.93320 0.14120 0.35050 0.23400
C 	C 	0.41360 0.46180 0.97820 0.25200
Fe	Fe	0.37541 0.06133 0.63687 1.19400
Fe	Fe	0.27555 0.18472 0.30750 1.19700
P 	P 	0.44984 0.92866 0.80990 0.57400
H 	H 	0.34200 0.85970 0.79890 -0.15400
O 	O 	0.57690 0.82030 0.86445 -0.40000
O 	O 	0.79230 0.34620 0.87657 -0.34100
O 	O 	0.40660 0.03860 0.40707 -0.45800
O 	O 	0.52100 0.95450 0.73557 -0.53300
O 	O 	0.70110 0.90910 0.48606 -0.31900
O 	O 	0.84510 0.64080 0.79851 -0.41600
O 	O 	0.40270 0.09890 0.84487 -0.40700
O 	O 	0.10230 0.52830 0.77575 -0.34700
O 	O 	0.05240 0.24710 0.85914 -0.31100
C 	C 	0.96310 0.52470 0.80370 0.23800
C 	C 	0.93320 0.35880 0.85050 0.23000
C 	C 	0.41360 0.03820 0.47820 0.25200
Fe	Fe	0.62459 0.56133 0.86313 1.19400
Fe	Fe	0.72445 0.68472 0.19250 1.19700
P 	P 	0.55016 0.42866 0.69010 0.57300
H 	H 	0.65800 0.35970 0.70110 -0.15500
O 	O 	0.42310 0.32030 0.63555 -0.40000
O 	O 	0.20770 0.84620 0.62343 -0.34100
O 	O 	0.59340 0.53860 0.09293 -0.45800
O 	O 	0.47900 0.45450 0.76443 -0.53300
O 	O 	0.29890 0.40910 0.01394 -0.31900
O 	O 	0.15490 0.14080 0.70149 -0.41400
O 	O 	0.59730 0.59890 0.65513 -0.40600
O 	O 	0.89770 0.02830 0.72425 -0.34400
O 	O 	0.94760 0.74710 0.64086 -0.31200
C 	C 	0.03690 0.02470 0.69630 0.23200
C 	C 	0.06680 0.85880 0.64950 0.23400
C 	C 	0.58640 0.53820 0.02180 0.25200
