data_crystal

_cell_length_a 17.39800
_cell_length_b 17.39800
_cell_length_c 8.08080
_cell_angle_alpha 90.00000
_cell_angle_beta  90.00000
_cell_angle_gamma 90.00000

_symmetry_space_group_name_	'P 1'
_symmetry_space_group_name_H-M	'P 1'

loop_
_symmetry_equiv_pos_as_xyz
  x,y,z

loop_
_atom_site_label
_atom_site_type_symbol
_atom_site_fract_x
_atom_site_fract_y
_atom_site_fract_z
_atom_site_charge
N 	N 	0.90690 0.99880 0.15620 -0.20000
N 	N 	0.59170 0.00270 0.10130 -0.30900
C 	C 	0.90580 0.94720 0.27530 0.06900
H 	H 	0.93820 0.90480 0.26730 -0.00100
C 	C 	0.85890 0.95350 0.41030 -0.08700
H 	H 	0.86530 0.92050 0.49970 0.06900
C 	C 	0.80010 0.01050 0.41460 0.04100
C 	C 	0.80480 0.06240 0.28510 -0.13600
H 	H 	0.77110 0.10380 0.28210 0.06600
C 	C 	0.85820 0.05420 0.16070 0.03300
H 	H 	0.85900 0.09040 0.07610 -0.01300
C 	C 	0.74610 0.02110 0.54970 -0.10900
H 	H 	0.71190 0.06210 0.54200 0.05200
C 	C 	0.74180 0.97810 0.67970 -0.08600
H 	H 	0.77180 0.93390 0.67680 0.06100
C 	C 	0.69640 0.98870 0.83140 0.23300
C 	C 	0.69610 0.93630 0.95710 -0.24700
H 	H 	0.72920 0.89430 0.95520 0.11500
C 	C 	0.64620 0.94690 0.08570 0.16400
H 	H 	0.64990 0.91210 0.17260 -0.03900
C 	C 	0.60130 0.05590 0.98500 0.17000
H 	H 	0.57080 0.09970 0.99110 -0.04500
C 	C 	0.65300 0.05120 0.85470 -0.31600
H 	H 	0.65750 0.09240 0.78200 0.13200
N 	N 	0.40690 0.49880 0.65620 -0.26400
N 	N 	0.09170 0.50270 0.60130 -0.26000
C 	C 	0.40580 0.44720 0.77530 0.12100
H 	H 	0.43820 0.40480 0.76730 -0.03200
C 	C 	0.35890 0.45350 0.91030 -0.20600
H 	H 	0.36530 0.42050 0.99970 0.10700
C 	C 	0.30010 0.51050 0.91460 0.16000
C 	C 	0.30480 0.56240 0.78510 -0.22000
H 	H 	0.27110 0.60380 0.78210 0.10200
C 	C 	0.35820 0.55420 0.66070 0.13600
H 	H 	0.35900 0.59040 0.57610 -0.04100
C 	C 	0.24610 0.52110 0.04970 -0.13500
H 	H 	0.21190 0.56210 0.04200 0.06300
C 	C 	0.24180 0.47810 0.17970 -0.07900
H 	H 	0.27180 0.43390 0.17680 0.04500
C 	C 	0.19640 0.48870 0.33140 0.12900
C 	C 	0.19610 0.43630 0.45710 -0.19700
H 	H 	0.22920 0.39430 0.45520 0.08900
C 	C 	0.14620 0.44690 0.58570 0.09800
H 	H 	0.14990 0.41210 0.67260 -0.02200
C 	C 	0.10130 0.55590 0.48500 0.10200
H 	H 	0.07080 0.59970 0.49110 -0.03300
C 	C 	0.15300 0.55120 0.35470 -0.19800
H 	H 	0.15750 0.59240 0.28200 0.09400
N 	N 	0.09310 0.00120 0.15620 -0.31700
N 	N 	0.40830 0.99730 0.10130 -0.21000
C 	C 	0.09420 0.05280 0.27530 0.14600
H 	H 	0.06180 0.09520 0.26730 -0.06000
C 	C 	0.14110 0.04650 0.41030 -0.29100
H 	H 	0.13470 0.07950 0.49970 0.11900
C 	C 	0.19990 0.98950 0.41460 0.20700
C 	C 	0.19520 0.93760 0.28510 -0.26800
H 	H 	0.22890 0.89620 0.28210 0.11600
C 	C 	0.14180 0.94580 0.16070 0.21500
H 	H 	0.14100 0.90960 0.07610 -0.06800
C 	C 	0.25390 0.97890 0.54970 -0.07800
H 	H 	0.28810 0.93790 0.54200 0.05800
C 	C 	0.25820 0.02190 0.67970 -0.11200
H 	H 	0.22820 0.06610 0.67680 0.05300
C 	C 	0.30360 0.01130 0.83140 0.03400
C 	C 	0.30390 0.06370 0.95710 -0.09300
H 	H 	0.27080 0.10570 0.95520 0.05600
C 	C 	0.35380 0.05310 0.08570 -0.02300
H 	H 	0.35010 0.08790 0.17260 0.00900
C 	C 	0.39870 0.94410 0.98500 0.07800
H 	H 	0.42920 0.90030 0.99110 -0.00700
C 	C 	0.34700 0.94880 0.85470 -0.08400
H 	H 	0.34250 0.90760 0.78200 0.06500
N 	N 	0.59310 0.50120 0.65620 -0.26400
N 	N 	0.90830 0.49730 0.60130 -0.24400
C 	C 	0.59420 0.55280 0.77530 0.12100
H 	H 	0.56180 0.59520 0.76730 -0.03300
C 	C 	0.64110 0.54650 0.91030 -0.20600
H 	H 	0.63470 0.57950 0.99970 0.10700
C 	C 	0.69990 0.48950 0.91460 0.16000
C 	C 	0.69520 0.43760 0.78510 -0.22100
H 	H 	0.72890 0.39620 0.78210 0.10300
C 	C 	0.64180 0.44580 0.66070 0.13700
H 	H 	0.64100 0.40960 0.57610 -0.04100
C 	C 	0.75390 0.47890 0.04970 -0.13600
H 	H 	0.78810 0.43790 0.04200 0.06500
C 	C 	0.75820 0.52190 0.17970 -0.07700
H 	H 	0.72820 0.56610 0.17680 0.04600
C 	C 	0.80360 0.51130 0.33140 0.12800
C 	C 	0.80390 0.56370 0.45710 -0.19300
H 	H 	0.77080 0.60570 0.45520 0.08900
C 	C 	0.85380 0.55310 0.58570 0.10100
H 	H 	0.85010 0.58790 0.67260 -0.01800
C 	C 	0.89870 0.44410 0.48500 0.10500
H 	H 	0.92920 0.40030 0.49110 -0.01300
C 	C 	0.84700 0.44880 0.35470 -0.18900
H 	H 	0.84250 0.40760 0.28200 0.09400
N 	N 	0.99880 0.09310 0.84380 -0.20300
N 	N 	0.00270 0.40830 0.89870 -0.29900
C 	C 	0.94720 0.09420 0.72470 0.06200
H 	H 	0.90480 0.06180 0.73270 -0.01700
C 	C 	0.95350 0.14110 0.58970 -0.08500
H 	H 	0.92050 0.13470 0.50030 0.06300
C 	C 	0.01050 0.19990 0.58540 0.03300
C 	C 	0.06240 0.19520 0.71490 -0.13100
H 	H 	0.10380 0.22890 0.71790 0.06700
C 	C 	0.05420 0.14180 0.83930 0.02600
H 	H 	0.09040 0.14100 0.92390 -0.00500
C 	C 	0.02110 0.25390 0.45030 -0.10000
H 	H 	0.06210 0.28810 0.45800 0.04700
C 	C 	0.97810 0.25820 0.32030 -0.10300
H 	H 	0.93390 0.22820 0.32320 0.06500
C 	C 	0.98870 0.30360 0.16860 0.26000
C 	C 	0.93630 0.30390 0.04290 -0.31700
H 	H 	0.89430 0.27080 0.04480 0.12900
C 	C 	0.94690 0.35380 0.91430 0.23100
H 	H 	0.91210 0.35010 0.82740 -0.05700
C 	C 	0.05590 0.39870 0.01500 0.13900
H 	H 	0.09970 0.42920 0.00890 -0.04500
C 	C 	0.05120 0.34700 0.14530 -0.32900
H 	H 	0.09240 0.34250 0.21800 0.13400
N 	N 	0.49880 0.59310 0.34380 -0.25400
N 	N 	0.50270 0.90830 0.39870 -0.25100
C 	C 	0.44720 0.59420 0.22470 0.09200
H 	H 	0.40480 0.56180 0.23270 -0.02600
C 	C 	0.45350 0.64110 0.08970 -0.16400
H 	H 	0.42050 0.63470 0.00030 0.07700
C 	C 	0.51050 0.69990 0.08540 0.07900
C 	C 	0.56240 0.69520 0.21490 -0.17500
H 	H 	0.60380 0.72890 0.21790 0.08100
C 	C 	0.55420 0.64180 0.33930 0.10700
H 	H 	0.59040 0.64100 0.42390 -0.03100
C 	C 	0.52110 0.75390 0.95030 -0.04000
H 	H 	0.56210 0.78810 0.95800 0.04200
C 	C 	0.47810 0.75820 0.82030 -0.14000
H 	H 	0.43390 0.72820 0.82320 0.07500
C 	C 	0.48870 0.80360 0.66860 0.16700
C 	C 	0.43630 0.80390 0.54290 -0.21900
H 	H 	0.39430 0.77080 0.54480 0.09900
C 	C 	0.44690 0.85380 0.41430 0.11500
H 	H 	0.41210 0.85010 0.32740 -0.02700
C 	C 	0.55590 0.89870 0.51500 0.11900
H 	H 	0.59970 0.92920 0.50890 -0.01800
C 	C 	0.55120 0.84700 0.64530 -0.21600
H 	H 	0.59240 0.84250 0.71800 0.10600
N 	N 	0.00120 0.90690 0.84380 -0.29000
N 	N 	0.99730 0.59170 0.89870 -0.20600
C 	C 	0.05280 0.90580 0.72470 0.14700
H 	H 	0.09520 0.93820 0.73270 -0.03100
C 	C 	0.04650 0.85890 0.58970 -0.26900
H 	H 	0.07950 0.86530 0.50030 0.11700
C 	C 	0.98950 0.80010 0.58540 0.19000
C 	C 	0.93760 0.80480 0.71490 -0.24800
H 	H 	0.89620 0.77110 0.71790 0.11300
C 	C 	0.94580 0.85820 0.83930 0.20800
H 	H 	0.90960 0.85900 0.92390 -0.05100
C 	C 	0.97890 0.74610 0.45030 -0.05500
H 	H 	0.93790 0.71190 0.45800 0.05000
C 	C 	0.02190 0.74180 0.32030 -0.14000
H 	H 	0.06610 0.77180 0.32320 0.06300
C 	C 	0.01130 0.69640 0.16860 0.06800
C 	C 	0.06370 0.69610 0.04290 -0.17700
H 	H 	0.10570 0.72920 0.04480 0.07700
C 	C 	0.05310 0.64620 0.91430 0.05600
H 	H 	0.08790 0.64990 0.82740 -0.01100
C 	C 	0.94410 0.60130 0.01500 0.05500
H 	H 	0.90030 0.57080 0.00890 -0.00800
C 	C 	0.94880 0.65300 0.14530 -0.10100
H 	H 	0.90760 0.65750 0.21800 0.06900
N 	N 	0.50120 0.40690 0.34380 -0.25300
N 	N 	0.49730 0.09170 0.39870 -0.26700
C 	C 	0.55280 0.40580 0.22470 0.09000
H 	H 	0.59520 0.43820 0.23270 -0.02600
C 	C 	0.54650 0.35890 0.08970 -0.16000
H 	H 	0.57950 0.36530 0.00030 0.07600
C 	C 	0.48950 0.30010 0.08540 0.07300
C 	C 	0.43760 0.30480 0.21490 -0.17100
H 	H 	0.39620 0.27110 0.21790 0.07700
C 	C 	0.44580 0.35820 0.33930 0.10500
H 	H 	0.40960 0.35900 0.42390 -0.03100
C 	C 	0.47890 0.24610 0.95030 -0.03300
H 	H 	0.43790 0.21190 0.95800 0.03800
C 	C 	0.52190 0.24180 0.82030 -0.14600
H 	H 	0.56610 0.27180 0.82320 0.07600
C 	C 	0.51130 0.19640 0.66860 0.17000
C 	C 	0.56370 0.19610 0.54290 -0.22600
H 	H 	0.60570 0.22920 0.54480 0.10000
C 	C 	0.55310 0.14620 0.41430 0.11300
H 	H 	0.58790 0.14990 0.32740 -0.03100
C 	C 	0.44410 0.10130 0.51500 0.11600
H 	H 	0.40030 0.07080 0.50890 -0.03900
C 	C 	0.44880 0.15300 0.64530 -0.22600
H 	H 	0.40760 0.15750 0.71800 0.10600
Cu	Cu	-0.00000 0.00000 -0.00000 0.80500
Cu	Cu	0.50000 0.50000 0.50000 0.85100
Cu	Cu	0.50000 0.00000 0.25000 0.83900
Cu	Cu	0.00000 0.50000 0.75000 0.84300
