data_crystal

_cell_length_a 9.07600
_cell_length_b 9.86700
_cell_length_c 16.30300
_cell_angle_alpha 103.34900
_cell_angle_beta  104.11000
_cell_angle_gamma 98.52600

_symmetry_space_group_name_	'P 1'
_symmetry_space_group_name_H-M	'P 1'

loop_
_symmetry_equiv_pos_as_xyz
  x,y,z

loop_
_atom_site_label
_atom_site_type_symbol
_atom_site_fract_x
_atom_site_fract_y
_atom_site_fract_z
_atom_site_charge
La	La	0.69213 0.45144 0.59811 1.60500
La	La	0.84842 0.42670 0.86433 1.65600
O 	O 	0.69810 0.21530 0.74280 -0.47100
O 	O 	0.53320 0.25800 0.63250 -0.49000
O 	O 	0.76210 0.72530 0.64299 -0.42500
O 	O 	0.55950 0.64200 0.52672 -0.52200
O 	O 	0.75840 0.24400 0.94335 -0.41300
O 	O 	0.58330 0.35710 0.88980 -0.43000
O 	O 	0.10820 0.42690 0.97591 -0.54900
O 	O 	0.04460 0.26080 0.85126 -0.41200
O 	O 	0.68180 0.55210 0.77780 -0.53100
O 	O 	0.48600 0.54710 0.66773 -0.42900
O 	O 	0.92420 0.44450 0.72570 -0.55300
O 	O 	0.00210 0.54170 0.63185 -0.43300
C 	C 	0.57180 0.18370 0.68330 0.53600
C 	C 	0.45830 0.04840 0.67220 -0.64300
H 	H 	0.37740 0.02750 0.61690 0.20900
H 	H 	0.40950 0.06310 0.71930 0.22300
C 	C 	0.53340 0.92090 0.67280 0.41500
H 	H 	0.60930 0.93860 0.72960 -0.08700
H 	H 	0.45430 0.83740 0.66490 -0.10700
C 	C 	0.61300 0.89140 0.60100 -0.62800
H 	H 	0.54590 0.89730 0.54630 0.19100
H 	H 	0.70870 0.96250 0.61680 0.21900
C 	C 	0.64860 0.74550 0.58880 0.50500
C 	C 	0.61770 0.25720 0.91980 0.44500
C 	C 	0.49250 0.14360 0.92560 -0.55500
H 	H 	0.51250 0.14170 0.98650 0.18400
H 	H 	0.50050 0.05170 0.89170 0.18900
C 	C 	0.32570 0.16240 0.89290 0.35500
H 	H 	0.31140 0.18440 0.83690 -0.07000
H 	H 	0.25350 0.07340 0.88350 -0.07800
C 	C 	0.28890 0.28000 0.95750 -0.57900
H 	H 	0.28740 0.24970 0.00990 0.17700
H 	H 	0.37260 0.36360 0.97470 0.19900
C 	C 	0.13850 0.32220 0.92490 0.48100
C 	C 	0.55000 0.57870 0.74890 0.52400
C 	C 	0.47420 0.65300 0.81330 -0.62400
H 	H 	0.53390 0.75010 0.84040 0.20100
H 	H 	0.47950 0.60560 0.85950 0.20300
C 	C 	0.30510 0.65790 0.77450 0.40200
H 	H 	0.29530 0.69260 0.72280 -0.07900
H 	H 	0.27250 0.72330 0.81730 -0.10800
C 	C 	0.19980 0.50920 0.74900 -0.61700
H 	H 	0.24220 0.44200 0.71290 0.22400
H 	H 	0.20110 0.48040 0.80210 0.19900
C 	C 	0.03420 0.50100 0.69980 0.49500
La	La	0.30787 0.54856 0.40189 1.60400
La	La	0.15158 0.57330 0.13567 1.65500
O 	O 	0.30190 0.78470 0.25720 -0.47200
O 	O 	0.46680 0.74200 0.36750 -0.49100
O 	O 	0.23790 0.27470 0.35701 -0.42600
O 	O 	0.44050 0.35800 0.47328 -0.52300
O 	O 	0.24160 0.75600 0.05665 -0.41400
O 	O 	0.41670 0.64290 0.11020 -0.43100
O 	O 	0.89180 0.57310 0.02409 -0.54900
O 	O 	0.95540 0.73920 0.14874 -0.41200
O 	O 	0.31820 0.44790 0.22220 -0.53100
O 	O 	0.51400 0.45290 0.33227 -0.42900
O 	O 	0.07580 0.55550 0.27430 -0.55300
O 	O 	0.99790 0.45830 0.36815 -0.43300
C 	C 	0.42820 0.81630 0.31670 0.53600
C 	C 	0.54170 0.95160 0.32780 -0.64300
H 	H 	0.62260 0.97250 0.38310 0.20900
H 	H 	0.59050 0.93690 0.28070 0.22300
C 	C 	0.46660 0.07910 0.32720 0.41500
H 	H 	0.39070 0.06140 0.27040 -0.08700
H 	H 	0.54570 0.16260 0.33510 -0.10700
C 	C 	0.38700 0.10860 0.39900 -0.62800
H 	H 	0.45410 0.10270 0.45370 0.19100
H 	H 	0.29130 0.03750 0.38320 0.21900
C 	C 	0.35140 0.25450 0.41120 0.50500
C 	C 	0.38230 0.74280 0.08020 0.44500
C 	C 	0.50750 0.85640 0.07440 -0.55500
H 	H 	0.48750 0.85830 0.01350 0.18400
H 	H 	0.49950 0.94830 0.10830 0.18900
C 	C 	0.67430 0.83760 0.10710 0.35500
H 	H 	0.68860 0.81560 0.16310 -0.07000
H 	H 	0.74650 0.92660 0.11650 -0.07800
C 	C 	0.71110 0.72000 0.04250 -0.57900
H 	H 	0.71260 0.75030 0.99010 0.17700
H 	H 	0.62740 0.63640 0.02530 0.19900
C 	C 	0.86150 0.67780 0.07510 0.48100
C 	C 	0.45000 0.42130 0.25110 0.52400
C 	C 	0.52580 0.34700 0.18670 -0.62400
H 	H 	0.46610 0.24990 0.15960 0.20100
H 	H 	0.52050 0.39440 0.14050 0.20300
C 	C 	0.69490 0.34210 0.22550 0.40200
H 	H 	0.70470 0.30740 0.27720 -0.07900
H 	H 	0.72750 0.27670 0.18270 -0.10800
C 	C 	0.80020 0.49080 0.25100 -0.61700
H 	H 	0.75780 0.55800 0.28710 0.22400
H 	H 	0.79890 0.51960 0.19790 0.19900
C 	C 	0.96580 0.49900 0.30020 0.49500
