data_crystal

_cell_length_a 18.61800
_cell_length_b 11.25900
_cell_length_c 19.86000
_cell_angle_alpha 90.00000
_cell_angle_beta  114.96000
_cell_angle_gamma 90.00000

_symmetry_space_group_name_	'P 1'
_symmetry_space_group_name_H-M	'P 1'

loop_
_symmetry_equiv_pos_as_xyz
  x,y,z

loop_
_atom_site_label
_atom_site_type_symbol
_atom_site_fract_x
_atom_site_fract_y
_atom_site_fract_z
_atom_site_charge
Ni	Ni	0.42077 0.55016 0.04874 1.11300
O 	O 	0.37210 0.55426 0.93806 -0.43300
O 	O 	0.46003 0.44311 0.91572 -0.44300
O 	O 	0.30982 0.45463 0.56227 -0.35000
O 	O 	0.42838 0.45053 0.65604 -0.37400
O 	O 	0.10746 0.58890 0.74605 -0.43800
O 	O 	0.07839 0.55920 0.62639 -0.29300
C 	C 	0.34216 0.50240 0.81462 -0.13700
C 	C 	0.37109 0.47640 0.76221 0.04600
H 	H 	0.42520 0.45540 0.77780 0.04400
C 	C 	0.32036 0.48120 0.68634 -0.10100
C 	C 	0.23987 0.50880 0.66370 0.04700
H 	H 	0.20530 0.51020 0.61230 0.04000
C 	C 	0.20990 0.53440 0.71635 -0.12700
C 	C 	0.26245 0.53180 0.79138 0.06500
H 	H 	0.24340 0.55060 0.82760 0.03100
C 	C 	0.39654 0.49960 0.89566 0.38700
C 	C 	0.35470 0.46040 0.63226 0.29300
C 	C 	0.12580 0.56280 0.69415 0.35600
N 	N 	0.41878 0.36560 0.05052 -0.22300
N 	N 	0.42062 0.73410 0.04829 -0.21100
C 	C 	0.36300 0.30280 0.99468 0.07400
H 	H 	0.32310 0.34520 0.95520 0.00500
C 	C 	0.36140 0.18130 0.99232 -0.12600
H 	H 	0.32100 0.14130 0.95190 0.06700
C 	C 	0.41950 0.11590 0.04982 0.05700
C 	C 	0.47540 0.17950 0.10688 -0.12600
H 	H 	0.51580 0.13940 0.14720 0.06900
C 	C 	0.47240 0.30370 0.10533 0.07700
H 	H 	0.51100 0.34590 0.14590 0.00400
C 	C 	0.48280 0.79800 0.08910 0.03700
H 	H 	0.53030 0.75750 0.11930 0.02000
C 	C 	0.48340 0.91960 0.09060 -0.03600
H 	H 	0.53070 0.95910 0.12240 0.03600
C 	C 	0.35410 0.91840 0.00290 -0.03700
H 	H 	0.30710 0.95730 0.97010 0.03500
C 	C 	0.35750 0.79470 0.00480 0.02000
H 	H 	0.31180 0.75180 0.97300 0.01800
C 	C 	0.41990 0.98550 0.04919 0.02900
C 	C 	0.93400 0.34310 0.71450 0.08700
H 	H 	0.88610 0.38580 0.68880 -0.00500
C 	C 	0.93110 0.22240 0.71270 -0.07000
H 	H 	0.88200 0.18320 0.68600 0.05400
C 	C 	0.93700 0.83930 0.70850 0.08100
H 	H 	0.89000 0.79780 0.67800 -0.00400
C 	C 	0.93520 0.96150 0.70680 -0.06400
H 	H 	0.88820 0.00170 0.67510 0.05100
C 	C 	0.45220 0.79750 0.11010 0.00300
H 	H 	0.47410 0.75510 0.15570 0.02900
C 	C 	0.45590 0.91800 0.11380 -0.06500
H 	H 	0.48300 0.95640 0.16040 0.04500
C 	C 	0.39600 0.92220 0.98570 -0.06900
H 	H 	0.38050 0.96290 0.93980 0.04700
C 	C 	0.39200 0.80110 0.98590 0.01600
H 	H 	0.36880 0.76150 0.93940 0.02600
C 	C 	0.99540 0.33590 0.80540 0.02600
H 	H 	0.99150 0.37670 0.84560 0.02700
C 	C 	0.99590 0.21550 0.80770 -0.02600
H 	H 	0.99350 0.17430 0.84840 0.04600
C 	C 	0.98850 0.83630 0.80200 0.03900
H 	H 	0.97910 0.79420 0.83900 0.01500
C 	C 	0.98980 0.95520 0.80350 -0.03300
H 	H 	0.98350 0.99440 0.84300 0.04600
Ni	Ni	0.57923 0.55016 0.45126 1.11400
O 	O 	0.62790 0.55426 0.56194 -0.43000
O 	O 	0.53997 0.44311 0.58428 -0.44200
O 	O 	0.69018 0.45463 0.93773 -0.34500
O 	O 	0.57162 0.45053 0.84396 -0.37200
O 	O 	0.89254 0.58890 0.75395 -0.42300
O 	O 	0.92161 0.55920 0.87361 -0.27300
C 	C 	0.65784 0.50240 0.68538 -0.13300
C 	C 	0.62891 0.47640 0.73779 0.04400
H 	H 	0.57480 0.45540 0.72220 0.04600
C 	C 	0.67964 0.48120 0.81366 -0.09600
C 	C 	0.76013 0.50880 0.83630 0.04300
H 	H 	0.79470 0.51020 0.88770 0.04600
C 	C 	0.79010 0.53440 0.78365 -0.12000
C 	C 	0.73755 0.53180 0.70862 0.06000
H 	H 	0.75660 0.55060 0.67240 0.03400
C 	C 	0.60346 0.49960 0.60434 0.38600
C 	C 	0.64530 0.46040 0.86774 0.29200
C 	C 	0.87420 0.56280 0.80585 0.34900
N 	N 	0.58122 0.36560 0.44948 -0.22400
N 	N 	0.57938 0.73410 0.45171 -0.21100
C 	C 	0.63700 0.30280 0.50532 0.07500
H 	H 	0.67690 0.34520 0.54480 0.00600
C 	C 	0.63860 0.18130 0.50768 -0.12300
H 	H 	0.67900 0.14130 0.54810 0.06800
C 	C 	0.58050 0.11590 0.45018 0.05500
C 	C 	0.52460 0.17950 0.39312 -0.12500
H 	H 	0.48420 0.13940 0.35280 0.06900
C 	C 	0.52760 0.30370 0.39467 0.07600
H 	H 	0.48900 0.34590 0.35410 0.00400
C 	C 	0.51720 0.79800 0.41090 0.03200
H 	H 	0.46970 0.75750 0.38070 0.02100
C 	C 	0.51660 0.91960 0.40940 -0.04000
H 	H 	0.46930 0.95910 0.37760 0.03700
C 	C 	0.64590 0.91840 0.49710 -0.04600
H 	H 	0.69290 0.95730 0.52990 0.04100
C 	C 	0.64250 0.79470 0.49520 0.01700
H 	H 	0.68820 0.75180 0.52700 0.02200
C 	C 	0.58010 0.98550 0.45081 0.03000
C 	C 	0.06600 0.34310 0.78550 0.05000
H 	H 	0.11390 0.38580 0.81120 -0.00000
C 	C 	0.06890 0.22240 0.78730 -0.10200
H 	H 	0.11800 0.18320 0.81400 0.05800
C 	C 	0.06300 0.83930 0.79150 0.04300
H 	H 	0.11000 0.79780 0.82200 -0.00000
C 	C 	0.06480 0.96150 0.79320 -0.10000
H 	H 	0.11180 0.00170 0.82490 0.05400
C 	C 	0.54780 0.79750 0.38990 0.00800
H 	H 	0.52590 0.75510 0.34430 0.02800
C 	C 	0.54410 0.91800 0.38620 -0.06100
H 	H 	0.51700 0.95640 0.33960 0.04400
C 	C 	0.60400 0.92220 0.51430 -0.06100
H 	H 	0.61950 0.96290 0.56020 0.04500
C 	C 	0.60800 0.80110 0.51410 0.02000
H 	H 	0.63120 0.76150 0.56060 0.02500
C 	C 	0.00460 0.33590 0.69460 -0.01300
H 	H 	0.00850 0.37670 0.65440 0.02500
C 	C 	0.00410 0.21550 0.69230 -0.05900
H 	H 	0.00650 0.17430 0.65160 0.04200
C 	C 	0.01150 0.83630 0.69800 0.00200
H 	H 	0.02090 0.79420 0.66100 0.01300
C 	C 	0.01020 0.95520 0.69650 -0.07000
H 	H 	0.01650 0.99440 0.65700 0.04500
Ni	Ni	0.57923 0.44984 0.95126 1.11300
O 	O 	0.62790 0.44574 0.06194 -0.42900
O 	O 	0.53997 0.55689 0.08428 -0.44100
O 	O 	0.69018 0.54537 0.43773 -0.34500
O 	O 	0.57162 0.54947 0.34396 -0.37200
O 	O 	0.89254 0.41110 0.25395 -0.42300
O 	O 	0.92161 0.44080 0.37361 -0.27200
C 	C 	0.65784 0.49760 0.18538 -0.13300
C 	C 	0.62891 0.52360 0.23779 0.04400
H 	H 	0.57480 0.54460 0.22220 0.04600
C 	C 	0.67964 0.51880 0.31366 -0.09600
C 	C 	0.76013 0.49120 0.33630 0.04300
H 	H 	0.79470 0.48980 0.38770 0.04700
C 	C 	0.79010 0.46560 0.28365 -0.12000
C 	C 	0.73755 0.46820 0.20862 0.06000
H 	H 	0.75660 0.44940 0.17240 0.03400
C 	C 	0.60346 0.50040 0.10434 0.38600
C 	C 	0.64530 0.53960 0.36774 0.29200
C 	C 	0.87420 0.43720 0.30585 0.34900
N 	N 	0.58122 0.63440 0.94948 -0.22400
N 	N 	0.57938 0.26590 0.95171 -0.21100
C 	C 	0.63700 0.69720 0.00532 0.07600
H 	H 	0.67690 0.65480 0.04480 0.00600
C 	C 	0.63860 0.81870 0.00768 -0.12100
H 	H 	0.67900 0.85870 0.04810 0.06700
C 	C 	0.58050 0.88410 0.95018 0.05400
C 	C 	0.52460 0.82050 0.89312 -0.12500
H 	H 	0.48420 0.86060 0.85280 0.06900
C 	C 	0.52760 0.69630 0.89467 0.07600
H 	H 	0.48900 0.65410 0.85410 0.00400
C 	C 	0.51720 0.20200 0.91090 0.02700
H 	H 	0.46970 0.24250 0.88070 0.02200
C 	C 	0.51660 0.08040 0.90940 -0.04500
H 	H 	0.46930 0.04090 0.87760 0.03800
C 	C 	0.64590 0.08160 0.99710 -0.05800
H 	H 	0.69290 0.04270 0.02990 0.04600
C 	C 	0.64250 0.20530 0.99520 0.01100
H 	H 	0.68820 0.24820 0.02700 0.02500
C 	C 	0.58010 0.01450 0.95081 0.02900
C 	C 	0.06600 0.65690 0.28550 0.05000
H 	H 	0.11390 0.61420 0.31120 -0.00000
C 	C 	0.06890 0.77760 0.28730 -0.10200
H 	H 	0.11800 0.81680 0.31400 0.05800
C 	C 	0.06300 0.16070 0.29150 0.04300
H 	H 	0.11000 0.20220 0.32200 -0.00000
C 	C 	0.06480 0.03850 0.29320 -0.10100
H 	H 	0.11180 0.99830 0.32490 0.05500
C 	C 	0.54780 0.20250 0.88990 0.01300
H 	H 	0.52590 0.24490 0.84430 0.02600
C 	C 	0.54410 0.08200 0.88620 -0.05700
H 	H 	0.51700 0.04360 0.83960 0.04200
C 	C 	0.60400 0.07780 0.01430 -0.04900
H 	H 	0.61950 0.03710 0.06020 0.04200
C 	C 	0.60800 0.19890 0.01410 0.02600
H 	H 	0.63120 0.23850 0.06060 0.02300
C 	C 	0.00460 0.66410 0.19460 -0.01300
H 	H 	0.00850 0.62330 0.15440 0.02500
C 	C 	0.00410 0.78450 0.19230 -0.05900
H 	H 	0.00650 0.82570 0.15160 0.04200
C 	C 	0.01150 0.16370 0.19800 0.00200
H 	H 	0.02090 0.20580 0.16100 0.01300
C 	C 	0.01020 0.04480 0.19650 -0.07000
H 	H 	0.01650 0.00560 0.15700 0.04500
Ni	Ni	0.42077 0.44984 0.54874 1.11300
O 	O 	0.37210 0.44574 0.43806 -0.43100
O 	O 	0.46003 0.55689 0.41572 -0.44200
O 	O 	0.30982 0.54537 0.06227 -0.34800
O 	O 	0.42838 0.54947 0.15604 -0.37300
O 	O 	0.10746 0.41110 0.24605 -0.43700
O 	O 	0.07839 0.44080 0.12639 -0.29200
C 	C 	0.34216 0.49760 0.31462 -0.13600
C 	C 	0.37109 0.52360 0.26221 0.04600
H 	H 	0.42520 0.54460 0.27780 0.04500
C 	C 	0.32036 0.51880 0.18634 -0.10000
C 	C 	0.23987 0.49120 0.16370 0.04700
H 	H 	0.20530 0.48980 0.11230 0.04000
C 	C 	0.20990 0.46560 0.21635 -0.12700
C 	C 	0.26245 0.46820 0.29138 0.06500
H 	H 	0.24340 0.44940 0.32760 0.03100
C 	C 	0.39654 0.50040 0.39566 0.38700
C 	C 	0.35470 0.53960 0.13226 0.29300
C 	C 	0.12580 0.43720 0.19415 0.35600
N 	N 	0.41878 0.63440 0.55052 -0.22400
N 	N 	0.42062 0.26590 0.54829 -0.21100
C 	C 	0.36300 0.69720 0.49468 0.07400
H 	H 	0.32310 0.65480 0.45520 0.00500
C 	C 	0.36140 0.81870 0.49232 -0.12300
H 	H 	0.32100 0.85870 0.45190 0.06600
C 	C 	0.41950 0.88410 0.54982 0.05400
C 	C 	0.47540 0.82050 0.60688 -0.12500
H 	H 	0.51580 0.86060 0.64720 0.06900
C 	C 	0.47240 0.69630 0.60533 0.07600
H 	H 	0.51100 0.65410 0.64590 0.00400
C 	C 	0.48280 0.20200 0.58910 0.03400
H 	H 	0.53030 0.24250 0.61930 0.02100
C 	C 	0.48340 0.08040 0.59060 -0.03900
H 	H 	0.53070 0.04090 0.62240 0.03700
C 	C 	0.35410 0.08160 0.50290 -0.04700
H 	H 	0.30710 0.04270 0.47010 0.03900
C 	C 	0.35750 0.20530 0.50480 0.01600
H 	H 	0.31180 0.24820 0.47300 0.02000
C 	C 	0.41990 0.01450 0.54919 0.02900
C 	C 	0.93400 0.65690 0.21450 0.08700
H 	H 	0.88610 0.61420 0.18880 -0.00500
C 	C 	0.93110 0.77760 0.21270 -0.07000
H 	H 	0.88200 0.81680 0.18600 0.05400
C 	C 	0.93700 0.16070 0.20850 0.08100
H 	H 	0.89000 0.20220 0.17800 -0.00400
C 	C 	0.93520 0.03850 0.20680 -0.06400
H 	H 	0.88820 0.99830 0.17510 0.05100
C 	C 	0.45220 0.20250 0.61010 0.00700
H 	H 	0.47410 0.24490 0.65570 0.02800
C 	C 	0.45590 0.08200 0.61380 -0.06200
H 	H 	0.48300 0.04360 0.66040 0.04400
C 	C 	0.39600 0.07780 0.48570 -0.06000
H 	H 	0.38050 0.03710 0.43980 0.04500
C 	C 	0.39200 0.19890 0.48590 0.02000
H 	H 	0.36880 0.23850 0.43940 0.02500
C 	C 	0.99540 0.66410 0.30540 0.02600
H 	H 	0.99150 0.62330 0.34560 0.02700
C 	C 	0.99590 0.78450 0.30770 -0.02600
H 	H 	0.99350 0.82570 0.34840 0.04600
C 	C 	0.98850 0.16370 0.30200 0.03900
H 	H 	0.97910 0.20580 0.33900 0.01500
C 	C 	0.98980 0.04480 0.30350 -0.03300
H 	H 	0.98350 0.00560 0.34300 0.04600
Ni	Ni	0.00000 0.59049 0.75000 1.05100
N 	N 	0.00000 0.40410 0.75000 -0.26000
N 	N 	0.00000 0.77590 0.75000 -0.26300
C 	C 	0.00000 0.15540 0.75000 0.02000
C 	C 	0.00000 0.02410 0.75000 0.02700
Ni	Ni	0.00000 0.40951 0.25000 1.05100
N 	N 	0.00000 0.59590 0.25000 -0.26000
N 	N 	-0.00000 0.22410 0.25000 -0.26300
C 	C 	0.00000 0.84460 0.25000 0.02000
C 	C 	0.00000 0.97590 0.25000 0.02800
