data_crystal

_cell_length_a 20.39500
_cell_length_b 6.94100
_cell_length_c 20.07000
_cell_angle_alpha 90.00000
_cell_angle_beta  119.18000
_cell_angle_gamma 90.00000

_symmetry_space_group_name_	'P 1'
_symmetry_space_group_name_H-M	'P 1'

loop_
_symmetry_equiv_pos_as_xyz
  x,y,z

loop_
_atom_site_label
_atom_site_type_symbol
_atom_site_fract_x
_atom_site_fract_y
_atom_site_fract_z
_atom_site_charge
Ni	Ni	0.42071 0.51044 0.13041 1.11800
O 	O 	0.43400 0.48880 0.53290 -0.36200
O 	O 	0.32180 0.48420 0.52110 -0.35400
C 	C 	0.36480 0.48480 0.49120 0.30200
C 	C 	0.33140 0.48250 0.40510 -0.10100
C 	C 	0.37810 0.49320 0.37430 0.05500
H 	H 	0.43100 0.50090 0.40620 0.04800
C 	C 	0.25590 0.46500 0.36130 0.05400
H 	H 	0.22550 0.45570 0.38500 0.04000
O 	O 	0.36460 0.50670 0.18820 -0.42600
O 	O 	0.46520 0.51140 0.30350 -0.45600
O 	O 	0.10690 0.40400 0.27530 -0.44300
O 	O 	0.10540 0.45770 0.16570 -0.28700
C 	C 	0.39720 0.50530 0.26130 0.40800
C 	C 	0.34660 0.49270 0.29510 -0.14300
C 	C 	0.26870 0.47660 0.24910 0.07300
H 	H 	0.24760 0.47670 0.19510 0.03500
C 	C 	0.22170 0.46030 0.28100 -0.12800
C 	C 	0.13920 0.43960 0.23730 0.36300
C 	C 	0.47990 0.10780 0.14210 0.01100
H 	H 	0.52370 0.17440 0.14970 0.03300
N 	N 	0.41960 0.21120 0.13110 -0.19700
N 	N 	0.42110 0.80590 0.13240 -0.19700
C 	C 	0.48070 0.91450 0.14290 0.01000
H 	H 	0.52520 0.85060 0.15110 0.03500
C 	C 	0.36350 0.91360 0.12680 0.00600
H 	H 	0.32090 0.84900 0.12340 0.03700
C 	C 	0.36310 0.10650 0.12570 0.01900
H 	H 	0.31990 0.17150 0.12070 0.03300
C 	C 	0.05540 0.00210 0.30770 -0.00400
H 	H 	0.09500 0.06830 0.34930 0.02100
C 	C 	0.05360 0.80120 0.30560 0.00800
H 	H 	0.09360 0.73510 0.34680 0.01800
Ni	Ni	0.57929 0.51044 0.36959 1.11800
O 	O 	0.56600 0.48880 0.96710 -0.36700
O 	O 	0.67820 0.48420 0.97890 -0.35500
C 	C 	0.63520 0.48480 0.00880 0.31100
C 	C 	0.66860 0.48250 0.09490 -0.09900
C 	C 	0.62190 0.49320 0.12570 0.05400
H 	H 	0.56900 0.50090 0.09380 0.04900
C 	C 	0.74410 0.46500 0.13870 0.05100
H 	H 	0.77450 0.45570 0.11500 0.04500
O 	O 	0.63540 0.50670 0.31180 -0.42400
O 	O 	0.53480 0.51140 0.19650 -0.45500
O 	O 	0.89310 0.40400 0.22470 -0.41700
O 	O 	0.89460 0.45770 0.33430 -0.25600
C 	C 	0.60280 0.50530 0.23870 0.40700
C 	C 	0.65340 0.49270 0.20490 -0.14000
C 	C 	0.73130 0.47660 0.25090 0.06900
H 	H 	0.75240 0.47670 0.30490 0.04000
C 	C 	0.77830 0.46030 0.21900 -0.11900
C 	C 	0.86080 0.43960 0.26270 0.35700
C 	C 	0.52010 0.10780 0.35790 0.01100
H 	H 	0.47630 0.17440 0.35030 0.03200
N 	N 	0.58040 0.21120 0.36890 -0.19700
N 	N 	0.57890 0.80590 0.36760 -0.19600
C 	C 	0.51930 0.91450 0.35710 0.01000
H 	H 	0.47480 0.85060 0.34890 0.03400
C 	C 	0.63650 0.91360 0.37320 0.00600
H 	H 	0.67910 0.84900 0.37660 0.04000
C 	C 	0.63690 0.10650 0.37430 0.01900
H 	H 	0.68010 0.17150 0.37930 0.03500
C 	C 	0.94460 0.00210 0.19230 0.04300
H 	H 	0.90500 0.06830 0.15070 0.02100
C 	C 	0.94640 0.80120 0.19440 0.06200
H 	H 	0.90640 0.73510 0.15320 0.01500
Ni	Ni	0.57929 0.48956 0.86959 1.11800
O 	O 	0.56600 0.51120 0.46710 -0.36100
O 	O 	0.67820 0.51580 0.47890 -0.34900
C 	C 	0.63520 0.51520 0.50880 0.30000
C 	C 	0.66860 0.51750 0.59490 -0.09600
C 	C 	0.62190 0.50680 0.62570 0.05200
H 	H 	0.56900 0.49910 0.59380 0.04900
C 	C 	0.74410 0.53500 0.63870 0.04900
H 	H 	0.77450 0.54430 0.61500 0.04500
O 	O 	0.63540 0.49330 0.81180 -0.42400
O 	O 	0.53480 0.48860 0.69650 -0.45500
O 	O 	0.89310 0.59600 0.72470 -0.41600
O 	O 	0.89460 0.54230 0.83430 -0.25700
C 	C 	0.60280 0.49470 0.73870 0.40700
C 	C 	0.65340 0.50730 0.70490 -0.13900
C 	C 	0.73130 0.52340 0.75090 0.06800
H 	H 	0.75240 0.52330 0.80490 0.04000
C 	C 	0.77830 0.53970 0.71900 -0.11800
C 	C 	0.86080 0.56040 0.76270 0.35700
C 	C 	0.52010 0.89220 0.85790 0.01000
H 	H 	0.47630 0.82560 0.85030 0.03200
N 	N 	0.58040 0.78880 0.86890 -0.19700
N 	N 	0.57890 0.19410 0.86760 -0.19700
C 	C 	0.51930 0.08550 0.85710 0.00900
H 	H 	0.47480 0.14940 0.84890 0.03400
C 	C 	0.63650 0.08640 0.87320 0.00600
H 	H 	0.67910 0.15100 0.87660 0.04000
C 	C 	0.63690 0.89350 0.87430 0.01800
H 	H 	0.68010 0.82850 0.87930 0.03500
C 	C 	0.94460 0.99790 0.69230 0.04400
H 	H 	0.90500 0.93170 0.65070 0.02000
C 	C 	0.94640 0.19880 0.69440 0.06300
H 	H 	0.90640 0.26490 0.65320 0.01400
Ni	Ni	0.42071 0.48956 0.63041 1.11800
O 	O 	0.43400 0.51120 0.03290 -0.35500
O 	O 	0.32180 0.51580 0.02110 -0.34700
C 	C 	0.36480 0.51520 0.99120 0.28900
C 	C 	0.33140 0.51750 0.90510 -0.09700
C 	C 	0.37810 0.50680 0.87430 0.05200
H 	H 	0.43100 0.49910 0.90620 0.04800
C 	C 	0.25590 0.53500 0.86130 0.05200
H 	H 	0.22550 0.54430 0.88500 0.04000
O 	O 	0.36460 0.49330 0.68820 -0.42600
O 	O 	0.46520 0.48860 0.80350 -0.45600
O 	O 	0.10690 0.59600 0.77530 -0.44400
O 	O 	0.10540 0.54230 0.66570 -0.28900
C 	C 	0.39720 0.49470 0.76130 0.40700
C 	C 	0.34660 0.50730 0.79510 -0.14200
C 	C 	0.26870 0.52340 0.74910 0.07200
H 	H 	0.24760 0.52330 0.69510 0.03400
C 	C 	0.22170 0.53970 0.78100 -0.12800
C 	C 	0.13920 0.56040 0.73730 0.36300
C 	C 	0.47990 0.89220 0.64210 0.01100
H 	H 	0.52370 0.82560 0.64970 0.03200
N 	N 	0.41960 0.78880 0.63110 -0.19700
N 	N 	0.42110 0.19410 0.63240 -0.19700
C 	C 	0.48070 0.08550 0.64290 0.01000
H 	H 	0.52520 0.14940 0.65110 0.03500
C 	C 	0.36350 0.08640 0.62680 0.00600
H 	H 	0.32090 0.15100 0.62340 0.03700
C 	C 	0.36310 0.89350 0.62570 0.01800
H 	H 	0.31990 0.82850 0.62070 0.03200
C 	C 	0.05540 0.99790 0.80770 -0.00400
H 	H 	0.09500 0.93170 0.84930 0.02100
C 	C 	0.05360 0.19880 0.80560 0.00800
H 	H 	0.09360 0.26490 0.84680 0.01700
Ni	Ni	-0.00000 0.40230 0.25000 1.06000
N 	N 	-0.00000 0.10020 0.25000 -0.23500
N 	N 	-0.00000 0.69290 0.25000 -0.25100
Ni	Ni	0.00000 0.59770 0.75000 1.05900
N 	N 	0.00000 0.89980 0.75000 -0.23600
N 	N 	0.00000 0.30710 0.75000 -0.25100
