data_crystal

_cell_length_a 6.64250
_cell_length_b 16.38700
_cell_length_c 13.36790
_cell_angle_alpha 90.00000
_cell_angle_beta  90.00000
_cell_angle_gamma 90.00000

_symmetry_space_group_name_	'P 1'
_symmetry_space_group_name_H-M	'P 1'

loop_
_symmetry_equiv_pos_as_xyz
  x,y,z

loop_
_atom_site_label
_atom_site_type_symbol
_atom_site_fract_x
_atom_site_fract_y
_atom_site_fract_z
_atom_site_charge
C 	C 	0.18443 0.53400 0.53270 0.11800
O 	O 	0.16190 0.66567 0.65930 -0.66000
N 	N 	0.36900 0.43200 0.43500 -0.05800
C 	C 	0.68443 0.03400 0.03270 0.11800
O 	O 	0.66190 0.16567 0.15930 -0.66000
N 	N 	0.86900 0.93200 0.93500 -0.05700
C 	C 	0.81557 0.96600 0.53270 0.11900
O 	O 	0.83810 0.83433 0.65930 -0.65900
N 	N 	0.63100 0.06800 0.43500 -0.05800
C 	C 	0.31557 0.46600 0.03270 0.11800
O 	O 	0.33810 0.33433 0.15930 -0.66100
N 	N 	0.13100 0.56800 0.93500 -0.05900
C 	C 	0.81557 0.03400 0.46730 0.11800
O 	O 	0.83810 0.16567 0.34070 -0.66000
N 	N 	0.63100 0.93200 0.56500 -0.05900
C 	C 	0.31557 0.53400 0.96730 0.11700
O 	O 	0.33810 0.66567 0.84070 -0.66100
N 	N 	0.13100 0.43200 0.06500 -0.05900
C 	C 	0.18443 0.46600 0.46730 0.11700
O 	O 	0.16190 0.33433 0.34070 -0.66100
N 	N 	0.36900 0.56800 0.56500 -0.05900
C 	C 	0.68443 0.96600 0.96730 0.11700
O 	O 	0.66190 0.83433 0.84070 -0.66100
N 	N 	0.86900 0.06800 0.06500 -0.05800
C 	C 	0.81557 0.46600 0.46730 0.11800
O 	O 	0.83810 0.33433 0.34070 -0.66000
N 	N 	0.63100 0.56800 0.56500 -0.05900
C 	C 	0.31557 0.96600 0.96730 0.11700
O 	O 	0.33810 0.83433 0.84070 -0.66100
N 	N 	0.13100 0.06800 0.06500 -0.05900
C 	C 	0.18443 0.03400 0.46730 0.11700
O 	O 	0.16190 0.16567 0.34070 -0.66100
N 	N 	0.36900 0.93200 0.56500 -0.05900
C 	C 	0.68443 0.53400 0.96730 0.11700
O 	O 	0.66190 0.66567 0.84070 -0.66100
N 	N 	0.86900 0.43200 0.06500 -0.05800
C 	C 	0.18443 0.96600 0.53270 0.11700
O 	O 	0.16190 0.83433 0.65930 -0.66100
N 	N 	0.36900 0.06800 0.43500 -0.05900
C 	C 	0.68443 0.46600 0.03270 0.11700
O 	O 	0.66190 0.33433 0.15930 -0.66100
N 	N 	0.86900 0.56800 0.93500 -0.05800
C 	C 	0.81557 0.53400 0.53270 0.11800
O 	O 	0.83810 0.66567 0.65930 -0.66000
N 	N 	0.63100 0.43200 0.43500 -0.05900
C 	C 	0.31557 0.03400 0.03270 0.11700
O 	O 	0.33810 0.16567 0.15930 -0.66100
N 	N 	0.13100 0.93200 0.93500 -0.05900
Al	Al	0.25000 0.25000 0.25000 2.39900
Al	Al	0.75000 0.25000 0.25000 2.39900
Al	Al	0.75000 0.75000 0.75000 2.39900
Al	Al	0.25000 0.75000 0.75000 2.39900
O 	O 	0.00000 0.25000 0.18840 -0.83500
O 	O 	0.50000 0.75000 0.68840 -0.83400
O 	O 	0.00000 0.75000 0.81160 -0.83500
O 	O 	0.50000 0.25000 0.31160 -0.83400
C 	C 	0.00000 0.56800 0.56530 -0.21800
C 	C 	-0.00000 0.63590 0.63060 0.63800
C 	C 	0.50000 0.06800 0.06530 -0.21700
C 	C 	0.50000 0.13590 0.13060 0.63900
C 	C 	-0.00000 0.93200 0.56530 -0.21800
C 	C 	-0.00000 0.86410 0.63060 0.63800
C 	C 	0.50000 0.43200 0.06530 -0.21700
C 	C 	0.50000 0.36410 0.13060 0.63900
C 	C 	-0.00000 0.06800 0.43470 -0.21800
C 	C 	0.00000 0.13590 0.36940 0.63800
C 	C 	0.50000 0.56800 0.93470 -0.21700
C 	C 	0.50000 0.63590 0.86940 0.63900
C 	C 	-0.00000 0.43200 0.43470 -0.21800
C 	C 	-0.00000 0.36410 0.36940 0.63800
C 	C 	0.50000 0.93200 0.93470 -0.21700
C 	C 	0.50000 0.86410 0.86940 0.63900
