data_crystal

_cell_length_a 20.43750
_cell_length_b 7.84960
_cell_length_c 6.59340
_cell_angle_alpha 90.00000
_cell_angle_beta  111.80100
_cell_angle_gamma 90.00000

_symmetry_space_group_name_	'P 1'
_symmetry_space_group_name_H-M	'P 1'

loop_
_symmetry_equiv_pos_as_xyz
  x,y,z

loop_
_atom_site_label
_atom_site_type_symbol
_atom_site_fract_x
_atom_site_fract_y
_atom_site_fract_z
_atom_site_charge
Al	Al	-0.00000 0.00000 -0.00000 2.36400
C 	C 	0.17955 0.76771 0.46013 -0.16300
C 	C 	0.20641 0.70650 0.30465 0.13300
C 	C 	0.27883 0.66656 0.36956 0.08400
C 	C 	0.32438 0.68783 0.58994 -0.18100
C 	C 	0.29751 0.74905 0.74542 0.15800
C 	C 	0.22510 0.78899 0.68051 0.15300
C 	C 	0.10713 0.80770 0.39522 0.56500
O 	O 	0.06716 0.78900 0.20182 -0.52400
O 	O 	0.08356 0.86140 0.53165 -0.54600
C 	C 	0.39679 0.64790 0.65485 0.64100
O 	O 	0.42037 0.59420 0.51842 -0.71600
O 	O 	0.43676 0.66660 0.84825 -0.60000
N 	N 	0.16086 0.68523 0.08427 -0.08700
O 	O 	0.00260 0.88970 0.73900 -0.76700
Al	Al	0.50000 0.50000 -0.00000 2.39200
C 	C 	0.67955 0.26771 0.46013 -0.22000
C 	C 	0.70641 0.20650 0.30465 0.08300
C 	C 	0.77883 0.16656 0.36956 -0.04400
C 	C 	0.82438 0.18783 0.58994 -0.20100
C 	C 	0.79751 0.24905 0.74542 0.05800
C 	C 	0.72510 0.28899 0.68051 0.05400
C 	C 	0.60713 0.30770 0.39522 0.53200
O 	O 	0.56716 0.28900 0.20182 -0.59100
O 	O 	0.58356 0.36140 0.53165 -0.64900
C 	C 	0.89679 0.14790 0.65485 0.58400
O 	O 	0.92037 0.09420 0.51842 -0.78300
O 	O 	0.93676 0.16660 0.84825 -0.61200
N 	N 	0.66086 0.18523 0.08427 -0.17100
O 	O 	0.50260 0.38970 0.73900 -0.85300
Al	Al	0.00000 0.00000 0.50000 2.36500
C 	C 	0.17955 0.23229 0.96013 -0.12300
C 	C 	0.20641 0.29350 0.80465 0.04000
C 	C 	0.27883 0.33344 0.86956 0.14600
C 	C 	0.32438 0.31217 0.08994 -0.33800
C 	C 	0.29751 0.25095 0.24542 0.07200
C 	C 	0.22510 0.21101 0.18051 -0.10200
C 	C 	0.10713 0.19230 0.89522 0.59800
O 	O 	0.06716 0.21100 0.70182 -0.64000
O 	O 	0.08356 0.13860 0.03165 -0.83600
C 	C 	0.39679 0.35210 0.15485 0.66200
O 	O 	0.42037 0.40580 0.01842 -0.81400
O 	O 	0.43676 0.33340 0.34825 -0.73500
N 	N 	0.16086 0.31477 0.58427 -0.10500
O 	O 	0.00260 0.11030 0.23900 -1.12100
Al	Al	0.50000 0.50000 0.50000 2.39700
C 	C 	0.67955 0.73229 0.96013 -0.06300
C 	C 	0.70641 0.79350 0.80465 0.09500
C 	C 	0.77883 0.83344 0.86956 0.27000
C 	C 	0.82438 0.81217 0.08994 -0.27200
C 	C 	0.79751 0.75095 0.24542 0.19100
C 	C 	0.72510 0.71101 0.18051 0.00700
C 	C 	0.60713 0.69230 0.89522 0.61700
O 	O 	0.56716 0.71100 0.70182 -0.48500
O 	O 	0.58356 0.63860 0.03165 -0.68000
C 	C 	0.89679 0.85210 0.15485 0.66300
O 	O 	0.92037 0.90580 0.01842 -0.55900
O 	O 	0.93676 0.83340 0.34825 -0.50700
N 	N 	0.66086 0.81477 0.58427 -0.00500
O 	O 	0.50260 0.61030 0.23900 -0.83100
