data_crystal

_cell_length_a 10.31870
_cell_length_b 13.66510
_cell_length_c 16.14190
_cell_angle_alpha 102.04700
_cell_angle_beta  108.58000
_cell_angle_gamma 99.14700

_symmetry_space_group_name_	'P 1'
_symmetry_space_group_name_H-M	'P 1'

loop_
_symmetry_equiv_pos_as_xyz
  x,y,z

loop_
_atom_site_label
_atom_site_type_symbol
_atom_site_fract_x
_atom_site_fract_y
_atom_site_fract_z
_atom_site_charge
Zn	Zn	0.71330 0.25236 0.23993 1.20800
Zn	Zn	0.52480 0.20680 0.87462 1.18300
P 	P 	0.46310 0.24439 0.05976 0.64200
P 	P 	0.62010 0.01914 0.17377 0.52000
O 	O 	0.34930 0.30860 0.03950 -0.81600
H 	H 	0.36050 0.35920 0.05740 0.54200
O 	O 	0.55320 0.28470 0.16030 -0.49500
O 	O 	0.38110 0.13290 0.03310 -0.29500
O 	O 	0.55290 0.26010 0.00230 -0.50100
O 	O 	0.68610 0.02690 0.09990 -0.25400
O 	O 	0.46180 0.01990 0.13420 -0.42700
H 	H 	0.43680 0.06460 0.09760 0.23900
O 	O 	0.62430 0.91850 0.19790 -0.45700
O 	O 	0.70260 0.11410 0.25360 -0.45300
N 	N 	0.87950 0.30390 0.20830 -0.27400
N 	N 	0.01530 0.41160 0.16760 -0.12900
N 	N 	0.72270 0.19690 0.88930 -0.27600
N 	N 	0.93400 0.17050 0.95500 -0.12700
N 	N 	0.74290 0.34610 0.36180 -0.27100
N 	N 	0.73410 0.47840 0.46510 -0.12800
C 	C 	0.88650 0.38140 0.17280 0.08400
H 	H 	0.81080 0.41290 0.15300 -0.01900
C 	C 	0.04810 0.49370 0.12440 -0.04000
H 	H 	0.15150 0.52160 0.14770 0.02800
H 	H 	0.00540 0.55070 0.14210 0.04000
C 	C 	0.99420 0.45520 0.02100 -0.09800
H 	H 	0.89460 0.41610 0.99800 0.04600
H 	H 	0.04980 0.40780 0.00270 0.05700
C 	C 	0.09660 0.34880 0.20280 0.04400
C 	C 	0.01230 0.28090 0.22830 0.05300
C 	C 	0.05990 0.20270 0.26360 -0.11000
H 	H 	0.00100 0.15540 0.27980 0.06200
C 	C 	0.19620 0.19730 0.27410 -0.01300
H 	H 	0.23240 0.14550 0.29840 0.03400
C 	C 	0.28310 0.26700 0.24940 -0.03800
H 	H 	0.37610 0.26060 0.25650 0.04000
C 	C 	0.23540 0.34500 0.21470 -0.07100
H 	H 	0.29470 0.39350 0.19980 0.04500
C 	C 	0.80620 0.17250 0.95790 0.09500
H 	H 	0.77840 0.15750 0.00550 0.00200
C 	C 	0.05110 0.14870 0.02160 -0.05000
H 	H 	0.04090 0.16570 0.08160 0.05900
H 	H 	0.14030 0.19400 0.02730 0.08600
C 	C 	0.06030 0.03700 0.99740 -0.09800
H 	H 	0.06110 0.01780 0.93500 0.08100
H 	H 	0.15020 0.03040 0.03950 0.08600
C 	C 	0.93540 0.19590 0.87630 0.07000
C 	C 	0.04030 0.20740 0.83990 -0.10500
H 	H 	0.13040 0.19580 0.86800 0.07900
C 	C 	0.00530 0.23680 0.76020 -0.01000
H 	H 	0.07430 0.24700 0.73340 0.02100
C 	C 	0.87160 0.25200 0.71740 -0.04200
H 	H 	0.85190 0.27050 0.66190 0.04300
C 	C 	0.76770 0.24080 0.75430 -0.08600
H 	H 	0.67760 0.25200 0.72590 0.02100
C 	C 	0.80190 0.21200 0.83530 0.02800
C 	C 	0.67970 0.42080 0.37670 0.08400
H 	H 	0.60460 0.43310 0.33100 -0.01600
C 	C 	0.68610 0.56610 0.50510 -0.03700
H 	H 	0.65160 0.60290 0.45890 0.03400
H 	H 	0.76670 0.61480 0.55670 0.04100
C 	C 	0.56840 0.53120 0.53860 -0.09600
H 	H 	0.60010 0.48880 0.58040 0.05600
H 	H 	0.55010 0.59270 0.57350 0.05600
C 	C 	0.84130 0.43770 0.51020 0.05800
C 	C 	0.93680 0.46860 0.60010 -0.08900
H 	H 	0.93200 0.52490 0.64400 0.05900
C 	C 	0.03850 0.41370 0.62220 -0.02700
H 	H 	0.10600 0.43320 0.68250 0.02400
C 	C 	0.04400 0.33060 0.55800 -0.01900
H 	H 	0.11520 0.29460 0.57570 0.02500
C 	C 	0.94780 0.29830 0.46830 -0.10100
H 	H 	0.95130 0.24090 0.42490 0.04900
C 	C 	0.84680 0.35430 0.44580 0.04600
Zn	Zn	0.28670 0.74764 0.76007 1.20700
Zn	Zn	0.47520 0.79320 0.12538 1.18200
P 	P 	0.53690 0.75561 0.94024 0.64100
P 	P 	0.37990 0.98086 0.82623 0.51900
O 	O 	0.65070 0.69140 0.96050 -0.81600
H 	H 	0.63950 0.64080 0.94260 0.54200
O 	O 	0.44680 0.71530 0.83970 -0.49500
O 	O 	0.61890 0.86710 0.96690 -0.29500
O 	O 	0.44710 0.73990 0.99770 -0.50100
O 	O 	0.31390 0.97310 0.90010 -0.25400
O 	O 	0.53820 0.98010 0.86580 -0.42700
H 	H 	0.56320 0.93540 0.90240 0.23900
O 	O 	0.37570 0.08150 0.80210 -0.45700
O 	O 	0.29740 0.88590 0.74640 -0.45300
N 	N 	0.12050 0.69610 0.79170 -0.27400
N 	N 	0.98470 0.58840 0.83240 -0.12900
N 	N 	0.27730 0.80310 0.11070 -0.27600
N 	N 	0.06600 0.82950 0.04500 -0.12700
N 	N 	0.25710 0.65390 0.63820 -0.27100
N 	N 	0.26590 0.52160 0.53490 -0.12800
C 	C 	0.11350 0.61860 0.82720 0.08400
H 	H 	0.18920 0.58710 0.84700 -0.01900
C 	C 	0.95190 0.50630 0.87560 -0.04000
H 	H 	0.84850 0.47840 0.85230 0.02800
H 	H 	0.99460 0.44930 0.85790 0.04000
C 	C 	0.00580 0.54480 0.97900 -0.09800
H 	H 	0.10540 0.58390 0.00200 0.04600
H 	H 	0.95020 0.59220 0.99730 0.05700
C 	C 	0.90340 0.65120 0.79720 0.04400
C 	C 	0.98770 0.71910 0.77170 0.05300
C 	C 	0.94010 0.79730 0.73640 -0.11000
H 	H 	0.99900 0.84460 0.72020 0.06200
C 	C 	0.80380 0.80270 0.72590 -0.01300
H 	H 	0.76760 0.85450 0.70160 0.03400
C 	C 	0.71690 0.73300 0.75060 -0.03800
H 	H 	0.62390 0.73940 0.74350 0.04000
C 	C 	0.76460 0.65500 0.78530 -0.07100
H 	H 	0.70530 0.60650 0.80020 0.04500
C 	C 	0.19380 0.82750 0.04210 0.09500
H 	H 	0.22160 0.84250 0.99450 0.00200
C 	C 	0.94890 0.85130 0.97840 -0.05000
H 	H 	0.95910 0.83430 0.91840 0.05900
H 	H 	0.85970 0.80600 0.97270 0.08600
C 	C 	0.93970 0.96300 0.00260 -0.09800
H 	H 	0.93890 0.98220 0.06500 0.08100
H 	H 	0.84980 0.96960 0.96050 0.08600
C 	C 	0.06460 0.80410 0.12370 0.07000
C 	C 	0.95970 0.79260 0.16010 -0.10500
H 	H 	0.86960 0.80420 0.13200 0.07900
C 	C 	0.99470 0.76320 0.23980 -0.01000
H 	H 	0.92570 0.75300 0.26660 0.02100
C 	C 	0.12840 0.74800 0.28260 -0.04200
H 	H 	0.14810 0.72950 0.33810 0.04300
C 	C 	0.23230 0.75920 0.24570 -0.08600
H 	H 	0.32240 0.74800 0.27410 0.02100
C 	C 	0.19810 0.78800 0.16470 0.02800
C 	C 	0.32030 0.57920 0.62330 0.08400
H 	H 	0.39540 0.56690 0.66900 -0.01600
C 	C 	0.31390 0.43390 0.49490 -0.03700
H 	H 	0.34840 0.39710 0.54110 0.03400
H 	H 	0.23330 0.38520 0.44330 0.04100
C 	C 	0.43160 0.46880 0.46140 -0.09600
H 	H 	0.39990 0.51120 0.41960 0.05600
H 	H 	0.44990 0.40730 0.42650 0.05600
C 	C 	0.15870 0.56230 0.48980 0.05800
C 	C 	0.06320 0.53140 0.39990 -0.08900
H 	H 	0.06800 0.47510 0.35600 0.05900
C 	C 	0.96150 0.58630 0.37780 -0.02700
H 	H 	0.89400 0.56680 0.31750 0.02400
C 	C 	0.95600 0.66940 0.44200 -0.01900
H 	H 	0.88480 0.70540 0.42430 0.02500
C 	C 	0.05220 0.70170 0.53170 -0.10100
H 	H 	0.04870 0.75910 0.57510 0.04900
C 	C 	0.15320 0.64570 0.55420 0.04600
