data_crystal

_cell_length_a 6.96760
_cell_length_b 17.41130
_cell_length_c 18.62780
_cell_angle_alpha 90.00000
_cell_angle_beta  90.00000
_cell_angle_gamma 90.00000

_symmetry_space_group_name_	'P 1'
_symmetry_space_group_name_H-M	'P 1'

loop_
_symmetry_equiv_pos_as_xyz
  x,y,z

loop_
_atom_site_label
_atom_site_type_symbol
_atom_site_fract_x
_atom_site_fract_y
_atom_site_fract_z
_atom_site_charge
C 	C 	0.91200 0.60467 0.58988 0.09000
H 	H 	0.78550 0.58910 0.60220 -0.01700
C 	C 	0.21870 0.60726 0.57936 0.08700
H 	H 	0.35050 0.59380 0.58300 -0.01800
C 	C 	0.08920 0.38850 0.90535 0.08900
H 	H 	0.21370 0.40120 0.88830 -0.02000
C 	C 	0.78350 0.39117 0.92435 0.08600
H 	H 	0.65230 0.40600 0.92300 -0.02100
C 	C 	0.90540 0.49362 0.84150 -0.05700
H 	H 	0.99680 0.53430 0.85580 0.04400
H 	H 	0.77380 0.51450 0.84610 0.04200
C 	C 	0.94140 0.47178 0.76488 -0.04600
H 	H 	0.87440 0.42920 0.74510 0.04000
C 	C 	0.06270 0.50963 0.72430 -0.04400
H 	H 	0.13730 0.54930 0.74540 0.04100
C 	C 	0.08820 0.49296 0.64656 -0.05700
H 	H 	0.21550 0.46930 0.63830 0.04200
H 	H 	0.98850 0.45640 0.63030 0.04300
N 	N 	0.95660 0.66796 0.55518 -0.21700
N 	N 	0.07280 0.56555 0.60518 -0.13300
N 	N 	0.04760 0.33036 0.94788 -0.22300
N 	N 	0.92720 0.42696 0.88995 -0.13200
N 	N 	0.15230 0.66991 0.54815 -0.22000
N 	N 	0.85300 0.33250 0.96015 -0.22600
Cu	Cu	0.70779 0.25064 0.00822 0.82800
C 	C 	0.58800 0.39533 0.08988 0.08900
H 	H 	0.71450 0.41090 0.10220 -0.01700
C 	C 	0.28130 0.39274 0.07936 0.08700
H 	H 	0.14950 0.40620 0.08300 -0.01800
C 	C 	0.41080 0.61150 0.40535 0.09000
H 	H 	0.28630 0.59880 0.38830 -0.02000
C 	C 	0.71650 0.60883 0.42435 0.08600
H 	H 	0.84770 0.59400 0.42300 -0.02100
C 	C 	0.59460 0.50638 0.34150 -0.05700
H 	H 	0.50320 0.46570 0.35580 0.04300
H 	H 	0.72620 0.48550 0.34610 0.04200
C 	C 	0.55860 0.52822 0.26488 -0.04600
H 	H 	0.62560 0.57080 0.24510 0.04000
C 	C 	0.43730 0.49037 0.22430 -0.04300
H 	H 	0.36270 0.45070 0.24540 0.04000
C 	C 	0.41180 0.50704 0.14656 -0.05800
H 	H 	0.28450 0.53070 0.13830 0.04300
H 	H 	0.51150 0.54360 0.13030 0.04400
N 	N 	0.54340 0.33204 0.05518 -0.21600
N 	N 	0.42720 0.43445 0.10518 -0.13300
N 	N 	0.45240 0.66964 0.44788 -0.22200
N 	N 	0.57280 0.57304 0.38995 -0.13300
N 	N 	0.34770 0.33009 0.04815 -0.22000
N 	N 	0.64700 0.66750 0.46015 -0.22700
Cu	Cu	0.79221 0.74936 0.50822 0.82800
C 	C 	0.08800 0.10467 0.91012 0.08800
H 	H 	0.21450 0.08910 0.89780 -0.01700
C 	C 	0.78130 0.10726 0.92064 0.08700
H 	H 	0.64950 0.09380 0.91700 -0.01900
C 	C 	0.91080 0.88850 0.59465 0.08900
H 	H 	0.78630 0.90120 0.61170 -0.02000
C 	C 	0.21650 0.89117 0.57565 0.08600
H 	H 	0.34770 0.90600 0.57700 -0.02100
C 	C 	0.09460 0.99362 0.65850 -0.05500
H 	H 	0.00320 0.03430 0.64420 0.04300
H 	H 	0.22620 0.01450 0.65390 0.04100
C 	C 	0.05860 0.97178 0.73512 -0.04700
H 	H 	0.12560 0.92920 0.75490 0.04000
C 	C 	0.93730 0.00963 0.77570 -0.04200
H 	H 	0.86270 0.04930 0.75460 0.04000
C 	C 	0.91180 0.99296 0.85344 -0.05800
H 	H 	0.78450 0.96930 0.86170 0.04300
H 	H 	0.01150 0.95640 0.86970 0.04300
N 	N 	0.04340 0.16796 0.94482 -0.21700
N 	N 	0.92720 0.06555 0.89482 -0.13200
N 	N 	0.95240 0.83036 0.55212 -0.22200
N 	N 	0.07280 0.92696 0.61005 -0.13300
N 	N 	0.84770 0.16991 0.95185 -0.22000
N 	N 	0.14700 0.83250 0.53985 -0.22600
Cu	Cu	0.29221 0.75064 0.49178 0.82900
C 	C 	0.41200 0.89533 0.41012 0.08900
H 	H 	0.28550 0.91090 0.39780 -0.01700
C 	C 	0.71870 0.89274 0.42064 0.08700
H 	H 	0.85050 0.90620 0.41700 -0.01900
C 	C 	0.58920 0.11150 0.09465 0.09000
H 	H 	0.71370 0.09880 0.11170 -0.02000
C 	C 	0.28350 0.10883 0.07565 0.08600
H 	H 	0.15230 0.09400 0.07700 -0.02100
C 	C 	0.40540 0.00638 0.15850 -0.05700
H 	H 	0.49680 0.96570 0.14420 0.04300
H 	H 	0.27380 0.98550 0.15390 0.04200
C 	C 	0.44140 0.02822 0.23512 -0.04600
H 	H 	0.37440 0.07080 0.25490 0.04000
C 	C 	0.56270 0.99037 0.27570 -0.04400
H 	H 	0.63730 0.95070 0.25460 0.04000
C 	C 	0.58820 0.00704 0.35344 -0.05800
H 	H 	0.71550 0.03070 0.36170 0.04200
H 	H 	0.48850 0.04360 0.36970 0.04300
N 	N 	0.45660 0.83204 0.44482 -0.21600
N 	N 	0.57280 0.93445 0.39482 -0.13300
N 	N 	0.54760 0.16964 0.05212 -0.22200
N 	N 	0.42720 0.07304 0.11005 -0.13300
N 	N 	0.65230 0.83009 0.45185 -0.22000
N 	N 	0.35300 0.16750 0.03985 -0.22600
Cu	Cu	0.20779 0.24936 0.99178 0.82800
