data_crystal

_cell_length_a 14.68200
_cell_length_b 24.56900
_cell_length_c 22.39900
_cell_angle_alpha 90.00000
_cell_angle_beta  90.00000
_cell_angle_gamma 90.00000

_symmetry_space_group_name_	'P 1'
_symmetry_space_group_name_H-M	'P 1'

loop_
_symmetry_equiv_pos_as_xyz
  x,y,z

loop_
_atom_site_label
_atom_site_type_symbol
_atom_site_fract_x
_atom_site_fract_y
_atom_site_fract_z
_atom_site_charge
Cu	Cu	0.59238 0.59124 0.85203 0.85100
Cu	Cu	0.60520 0.52206 0.98199 0.89700
Cu	Cu	0.59300 0.65928 0.98320 0.90800
Cu	Cu	0.40762 0.90876 0.85203 0.85000
Cu	Cu	0.39480 0.97794 0.98199 0.89400
Cu	Cu	0.40700 0.84072 0.98320 0.90700
Cu	Cu	0.09238 0.90876 0.64797 0.84400
Cu	Cu	0.10520 0.97794 0.51801 0.89100
Cu	Cu	0.09300 0.84072 0.51680 0.90200
Cu	Cu	0.90762 0.59124 0.64797 0.85700
Cu	Cu	0.89480 0.52206 0.51801 0.90000
Cu	Cu	0.90700 0.65928 0.51680 0.91200
Cu	Cu	0.40762 0.40876 0.14797 0.85000
Cu	Cu	0.39480 0.47794 0.01801 0.89500
Cu	Cu	0.40700 0.34072 0.01680 0.90700
Cu	Cu	0.59238 0.09124 0.14797 0.85100
Cu	Cu	0.60520 0.02206 0.01801 0.89500
Cu	Cu	0.59300 0.15928 0.01680 0.90700
Cu	Cu	0.90762 0.09124 0.35203 0.85500
Cu	Cu	0.89480 0.02206 0.48199 0.89700
Cu	Cu	0.90700 0.15928 0.48320 0.91100
Cu	Cu	0.09238 0.40876 0.35203 0.84400
Cu	Cu	0.10520 0.47794 0.48199 0.89100
Cu	Cu	0.09300 0.34072 0.48320 0.90100
H 	H 	0.61620 0.77970 0.92150 0.02500
H 	H 	0.61670 0.48330 0.76920 -0.02800
H 	H 	0.61460 0.51140 0.12630 0.00700
H 	H 	0.61820 0.69760 0.77110 -0.03200
H 	H 	0.61240 0.67000 0.12550 0.00900
H 	H 	0.61850 0.40150 0.91910 0.02600
H 	H 	0.60160 0.37160 0.76370 0.05900
H 	H 	0.63060 0.34220 0.82320 0.08200
H 	H 	0.78250 0.37520 0.80770 0.04800
H 	H 	0.60400 0.62210 0.23240 0.06900
H 	H 	0.60020 0.55820 0.23120 0.06500
H 	H 	0.76010 0.58500 0.19750 0.03200
H 	H 	0.78600 0.80690 0.80590 0.05000
H 	H 	0.60200 0.81140 0.76780 0.04600
H 	H 	0.63580 0.83980 0.82660 0.06800
H 	H 	0.38380 0.72030 0.92150 0.02400
H 	H 	0.38330 0.01670 0.76920 -0.02900
H 	H 	0.38540 0.98860 0.12630 0.00500
H 	H 	0.38180 0.80240 0.77110 -0.03300
H 	H 	0.38760 0.83000 0.12550 0.00600
H 	H 	0.38150 0.09850 0.91910 0.02600
H 	H 	0.39840 0.12840 0.76370 0.05900
H 	H 	0.36940 0.15780 0.82320 0.08200
H 	H 	0.21750 0.12480 0.80770 0.04200
H 	H 	0.39600 0.87790 0.23240 0.04000
H 	H 	0.39980 0.94180 0.23120 0.03600
H 	H 	0.23990 0.91500 0.19750 0.07600
H 	H 	0.21400 0.69310 0.80590 0.04100
H 	H 	0.39800 0.68860 0.76780 0.04800
H 	H 	0.36420 0.66020 0.82660 0.06900
H 	H 	0.11620 0.72030 0.57850 0.02300
H 	H 	0.11670 0.01670 0.73080 -0.03100
H 	H 	0.11460 0.98860 0.37370 0.00400
H 	H 	0.11820 0.80240 0.72890 -0.03600
H 	H 	0.11240 0.83000 0.37450 0.00600
H 	H 	0.11850 0.09850 0.58090 0.02500
H 	H 	0.10160 0.12840 0.73630 0.05300
H 	H 	0.13060 0.15780 0.67680 0.07800
H 	H 	0.28250 0.12480 0.69230 0.04600
H 	H 	0.10400 0.87790 0.26760 0.06200
H 	H 	0.10020 0.94180 0.26880 0.05700
H 	H 	0.26010 0.91500 0.30250 0.03000
H 	H 	0.28600 0.69310 0.69410 0.04700
H 	H 	0.10200 0.68860 0.73220 0.03900
H 	H 	0.13580 0.66020 0.67340 0.06400
H 	H 	0.88380 0.77970 0.57850 0.02600
H 	H 	0.88330 0.48330 0.73080 -0.02500
H 	H 	0.88540 0.51140 0.37370 0.00700
H 	H 	0.88180 0.69760 0.72890 -0.02900
H 	H 	0.88760 0.67000 0.37450 0.01100
H 	H 	0.88150 0.40150 0.58090 0.02700
H 	H 	0.89840 0.37160 0.73630 0.06600
H 	H 	0.86940 0.34220 0.67680 0.08500
H 	H 	0.71750 0.37520 0.69230 0.04400
H 	H 	0.89600 0.62210 0.26760 0.04700
H 	H 	0.89980 0.55820 0.26880 0.04300
H 	H 	0.73990 0.58500 0.30250 0.07700
H 	H 	0.71400 0.80690 0.69410 0.04400
H 	H 	0.89800 0.81140 0.73220 0.05400
H 	H 	0.86420 0.83980 0.67340 0.07300
H 	H 	0.38380 0.22030 0.07850 0.02400
H 	H 	0.38330 0.51670 0.23080 -0.02800
H 	H 	0.38540 0.48860 0.87370 0.00500
H 	H 	0.38180 0.30240 0.22890 -0.03300
H 	H 	0.38760 0.33000 0.87450 0.00600
H 	H 	0.38150 0.59850 0.08090 0.02500
H 	H 	0.39840 0.62840 0.23630 0.06000
H 	H 	0.36940 0.65780 0.17680 0.08200
H 	H 	0.21750 0.62480 0.19230 0.04100
H 	H 	0.39600 0.37790 0.76760 0.04100
H 	H 	0.39980 0.44180 0.76880 0.03600
H 	H 	0.23990 0.41500 0.80250 0.07400
H 	H 	0.21400 0.19310 0.19410 0.04200
H 	H 	0.39800 0.18860 0.23220 0.04800
H 	H 	0.36420 0.16020 0.17340 0.06800
H 	H 	0.61620 0.27970 0.07850 0.02500
H 	H 	0.61670 0.98330 0.23080 -0.02800
H 	H 	0.61460 0.01140 0.87370 0.00800
H 	H 	0.61820 0.19760 0.22890 -0.03200
H 	H 	0.61240 0.17000 0.87450 0.00900
H 	H 	0.61850 0.90150 0.08090 0.02700
H 	H 	0.60160 0.87160 0.23630 0.05900
H 	H 	0.63060 0.84220 0.17680 0.08200
H 	H 	0.78250 0.87520 0.19230 0.04900
H 	H 	0.60400 0.12210 0.76760 0.06800
H 	H 	0.60020 0.05820 0.76880 0.06400
H 	H 	0.76010 0.08500 0.80250 0.03400
H 	H 	0.78600 0.30690 0.19410 0.04900
H 	H 	0.60200 0.31140 0.23220 0.04600
H 	H 	0.63580 0.33980 0.17340 0.06800
H 	H 	0.88380 0.27970 0.42150 0.02600
H 	H 	0.88330 0.98330 0.26920 -0.02500
H 	H 	0.88540 0.01140 0.62630 0.00700
H 	H 	0.88180 0.19760 0.27110 -0.02900
H 	H 	0.88760 0.17000 0.62550 0.01100
H 	H 	0.88150 0.90150 0.41910 0.02700
H 	H 	0.89840 0.87160 0.26370 0.06600
H 	H 	0.86940 0.84220 0.32320 0.08600
H 	H 	0.71750 0.87520 0.30770 0.04400
H 	H 	0.89600 0.12210 0.73240 0.04800
H 	H 	0.89980 0.05820 0.73120 0.04300
H 	H 	0.73990 0.08500 0.69750 0.07500
H 	H 	0.71400 0.30690 0.30590 0.04400
H 	H 	0.89800 0.31140 0.26780 0.05400
H 	H 	0.86420 0.33980 0.32660 0.07200
H 	H 	0.11620 0.22030 0.42150 0.02300
H 	H 	0.11670 0.51670 0.26920 -0.03100
H 	H 	0.11460 0.48860 0.62630 0.00500
H 	H 	0.11820 0.30240 0.27110 -0.03600
H 	H 	0.11240 0.33000 0.62550 0.00600
H 	H 	0.11850 0.59850 0.41910 0.02400
H 	H 	0.10160 0.62840 0.26370 0.05200
H 	H 	0.13060 0.65780 0.32320 0.07700
H 	H 	0.28250 0.62480 0.30770 0.04600
H 	H 	0.10400 0.37790 0.73240 0.06100
H 	H 	0.10020 0.44180 0.73120 0.05700
H 	H 	0.26010 0.41500 0.69750 0.03200
H 	H 	0.28600 0.19310 0.30590 0.04700
H 	H 	0.10200 0.18860 0.26780 0.04000
H 	H 	0.13580 0.16020 0.32660 0.06500
C 	C 	0.61440 0.75150 0.89370 0.09200
C 	C 	0.61430 0.47490 0.80960 0.09200
C 	C 	0.61620 0.54740 0.11330 0.10000
C 	C 	0.61520 0.70620 0.81150 0.09800
C 	C 	0.61460 0.63380 0.11330 0.11000
C 	C 	0.61540 0.42980 0.89160 0.08600
C 	C 	0.64150 0.37380 0.79820 -0.08200
C 	C 	0.73730 0.37460 0.77860 -0.03800
C 	C 	0.63190 0.58970 0.21560 -0.11900
C 	C 	0.72670 0.58750 0.23260 0.04300
C 	C 	0.73900 0.80750 0.77800 -0.04200
C 	C 	0.64430 0.80840 0.80090 -0.07300
C 	C 	0.38560 0.74850 0.89370 0.09000
C 	C 	0.38570 0.02510 0.80960 0.09300
C 	C 	0.38380 0.95260 0.11330 0.10200
C 	C 	0.38480 0.79380 0.81150 0.09600
C 	C 	0.38540 0.86620 0.11330 0.11300
C 	C 	0.38460 0.07020 0.89160 0.08400
C 	C 	0.35850 0.12620 0.79820 -0.08500
C 	C 	0.26270 0.12540 0.77860 -0.03400
C 	C 	0.36810 0.91030 0.21560 -0.01400
C 	C 	0.27330 0.91250 0.23260 -0.13000
C 	C 	0.26100 0.69250 0.77800 -0.03500
C 	C 	0.35570 0.69160 0.80090 -0.07900
C 	C 	0.11440 0.74850 0.60630 0.08600
C 	C 	0.11430 0.02510 0.69040 0.09100
C 	C 	0.11620 0.95260 0.38670 0.09500
C 	C 	0.11520 0.79380 0.68850 0.09300
C 	C 	0.11460 0.86620 0.38670 0.10400
C 	C 	0.11540 0.07020 0.60840 0.08100
C 	C 	0.14150 0.12620 0.70180 -0.08000
C 	C 	0.23730 0.12540 0.72140 -0.04000
C 	C 	0.13190 0.91030 0.28440 -0.11500
C 	C 	0.22670 0.91250 0.26740 0.04000
C 	C 	0.23900 0.69250 0.72200 -0.04400
C 	C 	0.14430 0.69160 0.69910 -0.07100
C 	C 	0.88560 0.75150 0.60630 0.09500
C 	C 	0.88570 0.47490 0.69040 0.09500
C 	C 	0.88380 0.54740 0.38670 0.10700
C 	C 	0.88480 0.70620 0.68850 0.10100
C 	C 	0.88540 0.63380 0.38670 0.11700
C 	C 	0.88460 0.42980 0.60840 0.08900
C 	C 	0.85850 0.37380 0.70180 -0.08700
C 	C 	0.76270 0.37460 0.72140 -0.03200
C 	C 	0.86810 0.58970 0.28440 -0.01700
C 	C 	0.77330 0.58750 0.26740 -0.12800
C 	C 	0.76100 0.80750 0.72200 -0.03300
C 	C 	0.85570 0.80840 0.69910 -0.08000
C 	C 	0.38560 0.24850 0.10630 0.09000
C 	C 	0.38570 0.52510 0.19040 0.09000
C 	C 	0.38380 0.45260 0.88670 0.10200
C 	C 	0.38480 0.29380 0.18850 0.09600
C 	C 	0.38540 0.36620 0.88670 0.11300
C 	C 	0.38460 0.57020 0.10840 0.08400
C 	C 	0.35850 0.62620 0.20180 -0.08600
C 	C 	0.26270 0.62540 0.22140 -0.03400
C 	C 	0.36810 0.41030 0.78440 -0.01700
C 	C 	0.27330 0.41250 0.76740 -0.12400
C 	C 	0.26100 0.19250 0.22200 -0.03500
C 	C 	0.35570 0.19160 0.19910 -0.07800
C 	C 	0.61440 0.25150 0.10630 0.09200
C 	C 	0.61430 0.97490 0.19040 0.09500
C 	C 	0.61620 0.04740 0.88670 0.10000
C 	C 	0.61520 0.20620 0.18850 0.09800
C 	C 	0.61460 0.13380 0.88670 0.11000
C 	C 	0.61540 0.92980 0.10840 0.08600
C 	C 	0.64150 0.87380 0.20180 -0.08200
C 	C 	0.73730 0.87460 0.22140 -0.03900
C 	C 	0.63190 0.08970 0.78440 -0.11500
C 	C 	0.72670 0.08750 0.76740 0.03600
C 	C 	0.73900 0.30750 0.22200 -0.04200
C 	C 	0.64430 0.30840 0.19910 -0.07300
C 	C 	0.88560 0.25150 0.39370 0.09500
C 	C 	0.88570 0.97490 0.30960 0.09800
C 	C 	0.88380 0.04740 0.61330 0.10700
C 	C 	0.88480 0.20620 0.31150 0.10000
C 	C 	0.88540 0.13380 0.61330 0.11700
C 	C 	0.88460 0.92980 0.39160 0.08900
C 	C 	0.85850 0.87380 0.29820 -0.08800
C 	C 	0.76270 0.87460 0.27860 -0.03200
C 	C 	0.86810 0.08970 0.71560 -0.02100
C 	C 	0.77330 0.08750 0.73260 -0.12100
C 	C 	0.76100 0.30750 0.27800 -0.03400
C 	C 	0.85570 0.30840 0.30090 -0.08000
C 	C 	0.11440 0.24850 0.39370 0.08700
C 	C 	0.11430 0.52510 0.30960 0.08800
C 	C 	0.11620 0.45260 0.61330 0.09500
C 	C 	0.11520 0.29380 0.31150 0.09300
C 	C 	0.11460 0.36620 0.61330 0.10500
C 	C 	0.11540 0.57020 0.39160 0.08100
C 	C 	0.14150 0.62620 0.29820 -0.07900
C 	C 	0.23730 0.62540 0.27860 -0.04100
C 	C 	0.13190 0.41030 0.71560 -0.11100
C 	C 	0.22670 0.41250 0.73260 0.03400
C 	C 	0.23900 0.19250 0.27800 -0.04300
C 	C 	0.14430 0.19160 0.30090 -0.07100
S 	S 	0.40686 0.59090 0.94439 0.74600
S 	S 	0.59314 0.90910 0.94439 0.74500
S 	S 	0.90686 0.90910 0.55561 0.74100
S 	S 	0.09314 0.59090 0.55561 0.74900
S 	S 	0.59314 0.40910 0.05561 0.74500
S 	S 	0.40686 0.09090 0.05561 0.74600
S 	S 	0.09314 0.09090 0.44439 0.74900
S 	S 	0.90686 0.40910 0.44439 0.74100
S 	S 	0.50000 0.75000 0.06351 0.72400
S 	S 	-0.00000 0.75000 0.43649 0.65100
S 	S 	0.50000 0.25000 0.93649 0.72400
S 	S 	-0.00000 0.25000 0.56351 0.65700
N 	N 	0.61190 0.56220 0.05760 -0.20100
N 	N 	0.60070 0.69930 0.90660 -0.18900
N 	N 	0.60320 0.48260 0.90500 -0.19400
N 	N 	0.60960 0.61740 0.05920 -0.19300
N 	N 	0.60140 0.67250 0.85320 -0.21700
N 	N 	0.62510 0.75740 0.83540 -0.12800
N 	N 	0.60260 0.51050 0.85210 -0.21600
N 	N 	0.62260 0.42450 0.83220 -0.12300
N 	N 	0.62350 0.59090 0.14980 -0.12500
N 	N 	0.38810 0.93780 0.05760 -0.20200
N 	N 	0.39930 0.80070 0.90660 -0.19000
N 	N 	0.39680 0.01740 0.90500 -0.19300
N 	N 	0.39040 0.88260 0.05920 -0.19500
N 	N 	0.39860 0.82750 0.85320 -0.21800
N 	N 	0.37490 0.74260 0.83540 -0.12700
N 	N 	0.39740 0.98950 0.85210 -0.21900
N 	N 	0.37740 0.07550 0.83220 -0.12300
N 	N 	0.37650 0.90910 0.14980 -0.14000
N 	N 	0.11190 0.93780 0.44240 -0.20400
N 	N 	0.10070 0.80070 0.59340 -0.19300
N 	N 	0.10320 0.01740 0.59500 -0.19600
N 	N 	0.10960 0.88260 0.44080 -0.19700
N 	N 	0.10140 0.82750 0.64680 -0.22100
N 	N 	0.12510 0.74260 0.66460 -0.12900
N 	N 	0.10260 0.98950 0.64790 -0.22300
N 	N 	0.12260 0.07550 0.66780 -0.12500
N 	N 	0.12350 0.90910 0.35020 -0.12700
N 	N 	0.88810 0.56220 0.44240 -0.20000
N 	N 	0.89930 0.69930 0.59340 -0.18600
N 	N 	0.89680 0.48260 0.59500 -0.19100
N 	N 	0.89040 0.61740 0.44080 -0.19200
N 	N 	0.89860 0.67250 0.64680 -0.21300
N 	N 	0.87490 0.75740 0.66460 -0.12500
N 	N 	0.89740 0.51050 0.64790 -0.21300
N 	N 	0.87740 0.42450 0.66780 -0.12100
N 	N 	0.87650 0.59090 0.35020 -0.13800
N 	N 	0.38810 0.43780 0.94240 -0.20300
N 	N 	0.39930 0.30070 0.09340 -0.19000
N 	N 	0.39680 0.51740 0.09500 -0.19500
N 	N 	0.39040 0.38260 0.94080 -0.19500
N 	N 	0.39860 0.32750 0.14680 -0.21700
N 	N 	0.37490 0.24260 0.16460 -0.12700
N 	N 	0.39740 0.48950 0.14790 -0.21700
N 	N 	0.37740 0.57550 0.16780 -0.12200
N 	N 	0.37650 0.40910 0.85020 -0.14000
N 	N 	0.61190 0.06220 0.94240 -0.20000
N 	N 	0.60070 0.19930 0.09340 -0.18900
N 	N 	0.60320 0.98260 0.09500 -0.19200
N 	N 	0.60960 0.11740 0.94080 -0.19300
N 	N 	0.60140 0.17250 0.14680 -0.21700
N 	N 	0.62510 0.25740 0.16460 -0.12800
N 	N 	0.60260 0.01050 0.14790 -0.21800
N 	N 	0.62260 0.92450 0.16780 -0.12300
N 	N 	0.62350 0.09090 0.85020 -0.12600
N 	N 	0.88810 0.06220 0.55760 -0.20000
N 	N 	0.89930 0.19930 0.40660 -0.18700
N 	N 	0.89680 0.98260 0.40500 -0.19000
N 	N 	0.89040 0.11740 0.55920 -0.19200
N 	N 	0.89860 0.17250 0.35320 -0.21400
N 	N 	0.87490 0.25740 0.33540 -0.12500
N 	N 	0.89740 0.01050 0.35210 -0.21500
N 	N 	0.87740 0.92450 0.33220 -0.12100
N 	N 	0.87650 0.09090 0.64980 -0.13800
N 	N 	0.11190 0.43780 0.55760 -0.20400
N 	N 	0.10070 0.30070 0.40660 -0.19300
N 	N 	0.10320 0.51740 0.40500 -0.19700
N 	N 	0.10960 0.38260 0.55920 -0.19600
N 	N 	0.10140 0.32750 0.35320 -0.22100
N 	N 	0.12510 0.24260 0.33540 -0.12900
N 	N 	0.10260 0.48950 0.35210 -0.22000
N 	N 	0.12260 0.57550 0.33220 -0.12500
N 	N 	0.12350 0.40910 0.64980 -0.12800
O 	O 	0.44220 0.54290 0.97650 -0.50800
O 	O 	0.44350 0.63970 0.97370 -0.38900
O 	O 	0.43970 0.58730 0.88360 -0.42000
O 	O 	0.30890 0.59060 0.94780 -0.32800
O 	O 	0.63050 0.59130 0.93800 -0.53800
O 	O 	0.57120 0.72730 0.02470 -0.42600
O 	O 	0.54150 0.79350 0.09930 -0.29900
O 	O 	0.55780 0.95710 0.97650 -0.50700
O 	O 	0.55650 0.86030 0.97370 -0.38800
O 	O 	0.56030 0.91270 0.88360 -0.41900
O 	O 	0.69110 0.90940 0.94780 -0.32100
O 	O 	0.36950 0.90870 0.93800 -0.54300
O 	O 	0.42880 0.77270 0.02470 -0.42800
O 	O 	0.45850 0.70650 0.09930 -0.30000
O 	O 	0.94220 0.95710 0.52350 -0.49500
O 	O 	0.94350 0.86030 0.52630 -0.37600
O 	O 	0.93970 0.91270 0.61640 -0.40700
O 	O 	0.80890 0.90940 0.55220 -0.32300
O 	O 	0.13050 0.90870 0.56200 -0.54600
O 	O 	0.07120 0.77270 0.47530 -0.42000
O 	O 	0.04150 0.70650 0.40070 -0.29500
O 	O 	0.05780 0.54290 0.52350 -0.51800
O 	O 	0.05650 0.63970 0.52630 -0.39900
O 	O 	0.06030 0.58730 0.61640 -0.43100
O 	O 	0.19110 0.59060 0.55220 -0.32500
O 	O 	0.86950 0.59130 0.56200 -0.53600
O 	O 	0.92880 0.72730 0.47530 -0.39800
O 	O 	0.95850 0.79350 0.40070 -0.26500
O 	O 	0.55780 0.45710 0.02350 -0.50700
O 	O 	0.55650 0.36030 0.02630 -0.38800
O 	O 	0.56030 0.41270 0.11640 -0.41900
O 	O 	0.69110 0.40940 0.05220 -0.32100
O 	O 	0.36950 0.40870 0.06200 -0.54200
O 	O 	0.42880 0.27270 0.97530 -0.42800
O 	O 	0.45850 0.20650 0.90070 -0.30000
O 	O 	0.44220 0.04290 0.02350 -0.50800
O 	O 	0.44350 0.13970 0.02630 -0.38900
O 	O 	0.43970 0.08730 0.11640 -0.42000
O 	O 	0.30890 0.09060 0.05220 -0.32800
O 	O 	0.63050 0.09130 0.06200 -0.53900
O 	O 	0.57120 0.22730 0.97530 -0.42600
O 	O 	0.54150 0.29350 0.90070 -0.29900
O 	O 	0.05780 0.04290 0.47650 -0.51700
O 	O 	0.05650 0.13970 0.47370 -0.39800
O 	O 	0.06030 0.08730 0.38360 -0.43000
O 	O 	0.19110 0.09060 0.44780 -0.32500
O 	O 	0.86950 0.09130 0.43800 -0.53600
O 	O 	0.92880 0.22730 0.52470 -0.40000
O 	O 	0.95850 0.29350 0.59930 -0.26800
O 	O 	0.94220 0.45710 0.47650 -0.49600
O 	O 	0.94350 0.36030 0.47370 -0.37700
O 	O 	0.93970 0.41270 0.38360 -0.40800
O 	O 	0.80890 0.40940 0.44780 -0.32400
O 	O 	0.13050 0.40870 0.43800 -0.54500
O 	O 	0.07120 0.27270 0.52470 -0.42100
O 	O 	0.04150 0.20650 0.59930 -0.29500
