data_crystal

_cell_length_a 8.90300
_cell_length_b 12.37220
_cell_length_c 12.37220
_cell_angle_alpha 93.09490
_cell_angle_beta  110.84400
_cell_angle_gamma 110.84400

_symmetry_space_group_name_	'P 1'
_symmetry_space_group_name_H-M	'P 1'

loop_
_symmetry_equiv_pos_as_xyz
  x,y,z

loop_
_atom_site_label
_atom_site_type_symbol
_atom_site_fract_x
_atom_site_fract_y
_atom_site_fract_z
_atom_site_charge
Na	Na	0.16750 0.30291 0.47895 0.59500
Na	Na	0.18300 0.57290 0.58922 0.59200
Na	Na	0.66750 0.47895 0.30291 0.59800
Na	Na	0.68300 0.58922 0.57290 0.59600
H 	H 	0.02200 0.42400 0.36400 0.31200
H 	H 	0.15700 0.49200 0.35200 0.37000
H 	H 	0.09100 0.37500 0.68500 0.34500
H 	H 	0.93800 0.32400 0.59800 0.30700
H 	H 	0.45400 0.46700 0.68900 0.25500
H 	H 	0.51500 0.39000 0.63800 0.27000
H 	H 	0.52200 0.36400 0.42400 0.32900
H 	H 	0.65700 0.35200 0.49200 0.37400
H 	H 	0.59100 0.68500 0.37500 0.33700
H 	H 	0.43800 0.59800 0.32400 0.26400
H 	H 	0.95400 0.68900 0.46700 0.24900
H 	H 	0.01500 0.63800 0.39000 0.22400
C 	C 	0.49880 0.04370 0.60170 0.01200
C 	C 	0.59170 0.17510 0.60430 0.29200
C 	C 	0.38770 0.84340 0.49540 -0.02600
C 	C 	0.53180 0.80700 0.56900 0.29400
C 	C 	0.32340 0.99720 0.38880 0.03800
C 	C 	0.13560 0.93800 0.38240 -0.01800
C 	C 	0.00450 0.96610 0.28150 -0.00500
C 	C 	0.00930 0.92650 0.16470 0.00300
C 	C 	0.19240 0.98830 0.16890 0.00000
C 	C 	0.33170 0.96530 0.27090 0.04400
C 	C 	0.53980 0.96130 0.18610 0.00700
C 	C 	0.55450 0.84690 0.21610 0.27800
C 	C 	0.55150 0.15230 0.25990 -0.00700
C 	C 	0.74710 0.23200 0.30380 0.31100
C 	C 	0.99880 0.60170 0.04370 0.06500
C 	C 	0.09170 0.60430 0.17510 0.24500
C 	C 	0.88770 0.49540 0.84340 0.02300
C 	C 	0.03180 0.56900 0.80700 0.20000
C 	C 	0.82340 0.38880 0.99720 0.04200
C 	C 	0.63560 0.38240 0.93800 -0.01100
C 	C 	0.50450 0.28150 0.96610 0.01100
C 	C 	0.50930 0.16470 0.92650 0.01400
C 	C 	0.69240 0.16890 0.98830 0.01000
C 	C 	0.83170 0.27090 0.96530 0.07300
C 	C 	0.03980 0.18610 0.96130 -0.01400
C 	C 	0.05450 0.21610 0.84690 0.27700
C 	C 	0.05150 0.25990 0.15230 -0.02800
C 	C 	0.24710 0.30380 0.23200 0.31900
N 	N 	0.45490 0.97040 0.48760 -0.08200
N 	N 	0.51430 0.02830 0.27590 -0.07100
N 	N 	0.95490 0.48760 0.97040 -0.08400
N 	N 	0.01430 0.27590 0.02830 -0.08400
O 	O 	0.69300 0.20250 0.55090 -0.25300
O 	O 	0.56070 0.24620 0.65980 -0.27200
O 	O 	0.68740 0.87270 0.59490 -0.21000
O 	O 	0.48110 0.70880 0.59920 -0.31000
O 	O 	0.60110 0.83990 0.32490 -0.22500
O 	O 	0.53160 0.77100 0.13480 -0.20300
O 	O 	0.85880 0.19400 0.35880 -0.25400
O 	O 	0.78090 0.33380 0.28020 -0.30800
O 	O 	0.13160 0.46690 0.40530 -0.76400
O 	O 	0.05510 0.37400 0.61440 -0.71100
O 	O 	0.46550 0.44250 0.62490 -0.60900
O 	O 	0.19300 0.55090 0.20250 -0.25300
O 	O 	0.06070 0.65980 0.24620 -0.27100
O 	O 	0.18740 0.59490 0.87270 -0.20900
O 	O 	0.98110 0.59920 0.70880 -0.25400
O 	O 	0.10110 0.32490 0.83990 -0.24600
O 	O 	0.03160 0.13480 0.77100 -0.22500
O 	O 	0.35880 0.35880 0.19400 -0.27700
O 	O 	0.28090 0.28020 0.33380 -0.33100
O 	O 	0.63160 0.40530 0.46690 -0.76400
O 	O 	0.55510 0.61440 0.37400 -0.65200
O 	O 	0.96550 0.62490 0.44250 -0.54400
