data_crystal

_cell_length_a 20.15000
_cell_length_b 10.29900
_cell_length_c 17.84900
_cell_angle_alpha 90.00000
_cell_angle_beta  99.88000
_cell_angle_gamma 90.00000

_symmetry_space_group_name_	'P 1'
_symmetry_space_group_name_H-M	'P 1'

loop_
_symmetry_equiv_pos_as_xyz
  x,y,z

loop_
_atom_site_label
_atom_site_type_symbol
_atom_site_fract_x
_atom_site_fract_y
_atom_site_fract_z
_atom_site_charge
Cd	Cd	0.41123 0.99375 0.10976 1.16000
Cd	Cd	0.18192 0.99113 0.87252 1.15100
Cd	Cd	0.64734 0.01604 0.33694 1.17200
Cd	Cd	0.25967 0.01729 0.35607 1.16600
C 	C 	0.48304 0.98330 0.02263 -0.22800
N 	N 	0.31663 0.99050 0.01420 -0.20400
C 	C 	0.27138 0.99440 0.96583 -0.25400
N 	N 	0.40068 0.77190 0.12438 -0.20700
C 	C 	0.37559 0.67480 0.12665 -0.28000
N 	N 	0.40206 0.21780 0.10985 -0.18900
C 	C 	0.37681 0.31170 0.11607 -0.27100
N 	N 	0.50527 0.00350 0.21080 -0.18300
C 	C 	0.55109 0.00580 0.25717 -0.23900
N 	N 	0.34475 0.00580 0.21058 -0.17000
C 	C 	0.31763 0.01460 0.26187 -0.25000
C 	C 	0.23149 0.98800 0.76878 -0.24900
C 	C 	0.26692 0.99460 0.72705 -0.25900
C 	C 	0.66538 0.01140 0.46186 -0.23800
C 	C 	0.68377 0.01220 0.52746 -0.25800
N 	N 	0.67044 0.24070 0.34129 -0.19900
C 	C 	0.69711 0.33820 0.34634 -0.26700
N 	N 	0.65373 0.76860 0.34792 -0.18300
C 	C 	0.68867 0.68390 0.35151 -0.28400
Cd	Cd	0.91123 0.49375 0.10976 1.17200
Cd	Cd	0.68192 0.49113 0.87252 1.15800
Cd	Cd	0.14734 0.51604 0.33694 1.16200
Cd	Cd	0.75967 0.51729 0.35607 1.15700
C 	C 	0.98304 0.48330 0.02263 -0.21200
N 	N 	0.81663 0.49050 0.01420 -0.19700
C 	C 	0.77138 0.49440 0.96583 -0.23200
N 	N 	0.90068 0.27190 0.12438 -0.20400
C 	C 	0.87559 0.17480 0.12665 -0.24700
N 	N 	0.90206 0.71780 0.10985 -0.19700
C 	C 	0.87681 0.81170 0.11607 -0.27900
N 	N 	0.00527 0.50350 0.21080 -0.19300
C 	C 	0.05109 0.50580 0.25717 -0.25800
N 	N 	0.84475 0.50580 0.21058 -0.18100
C 	C 	0.81763 0.51460 0.26187 -0.26800
C 	C 	0.73149 0.48800 0.76878 -0.24400
C 	C 	0.76692 0.49460 0.72705 -0.23300
C 	C 	0.16538 0.51140 0.46186 -0.25300
C 	C 	0.18377 0.51220 0.52746 -0.27100
N 	N 	0.17044 0.74070 0.34129 -0.20000
C 	C 	0.19711 0.83820 0.34634 -0.29500
N 	N 	0.15373 0.26860 0.34792 -0.17200
C 	C 	0.18867 0.18390 0.35151 -0.26600
Cd	Cd	0.58877 0.99375 0.89024 1.15900
Cd	Cd	0.81808 0.99113 0.12748 1.15000
Cd	Cd	0.35266 0.01604 0.66306 1.17200
Cd	Cd	0.74033 0.01729 0.64393 1.16600
C 	C 	0.51696 0.98330 0.97737 -0.22800
N 	N 	0.68337 0.99050 0.98580 -0.20400
C 	C 	0.72862 0.99440 0.03417 -0.25400
N 	N 	0.59932 0.77190 0.87562 -0.20700
C 	C 	0.62441 0.67480 0.87335 -0.28000
N 	N 	0.59794 0.21780 0.89015 -0.18900
C 	C 	0.62319 0.31170 0.88393 -0.27100
N 	N 	0.49473 0.00350 0.78920 -0.18300
C 	C 	0.44891 0.00580 0.74283 -0.23900
N 	N 	0.65525 0.00580 0.78942 -0.17000
C 	C 	0.68237 0.01460 0.73813 -0.25000
C 	C 	0.76851 0.98800 0.23122 -0.24900
C 	C 	0.73308 0.99460 0.27295 -0.25900
C 	C 	0.33462 0.01140 0.53814 -0.23800
C 	C 	0.31623 0.01220 0.47254 -0.25800
N 	N 	0.32956 0.24070 0.65871 -0.19900
C 	C 	0.30289 0.33820 0.65366 -0.26700
N 	N 	0.34627 0.76860 0.65208 -0.18300
C 	C 	0.31133 0.68390 0.64849 -0.28400
Cd	Cd	0.08877 0.49375 0.89024 1.17200
Cd	Cd	0.31808 0.49113 0.12748 1.15800
Cd	Cd	0.85266 0.51604 0.66306 1.16200
Cd	Cd	0.24033 0.51729 0.64393 1.15700
C 	C 	0.01696 0.48330 0.97737 -0.21200
N 	N 	0.18337 0.49050 0.98580 -0.19700
C 	C 	0.22862 0.49440 0.03417 -0.23200
N 	N 	0.09932 0.27190 0.87562 -0.20400
C 	C 	0.12441 0.17480 0.87335 -0.24700
N 	N 	0.09794 0.71780 0.89015 -0.19700
C 	C 	0.12319 0.81170 0.88393 -0.27900
N 	N 	0.99473 0.50350 0.78920 -0.19300
C 	C 	0.94891 0.50580 0.74283 -0.25800
N 	N 	0.15525 0.50580 0.78942 -0.18100
C 	C 	0.18237 0.51460 0.73813 -0.26800
C 	C 	0.26851 0.48800 0.23122 -0.24400
C 	C 	0.23308 0.49460 0.27295 -0.23300
C 	C 	0.83462 0.51140 0.53814 -0.25300
C 	C 	0.81623 0.51220 0.47254 -0.27100
N 	N 	0.82956 0.74070 0.65871 -0.20000
C 	C 	0.80289 0.83820 0.65366 -0.29500
N 	N 	0.84627 0.26860 0.65208 -0.17200
C 	C 	0.81133 0.18390 0.64849 -0.26600
Cd	Cd	0.55061 0.48934 0.15509 1.16800
C 	C 	0.50452 0.49910 0.03160 -0.23100
C 	C 	0.50246 0.46430 0.25566 -0.30600
N 	N 	0.47745 0.44020 0.30259 -0.09200
N 	N 	0.57940 0.27130 0.13240 -0.32700
C 	C 	0.64620 0.26140 0.12690 -0.01200
C 	C 	0.67555 0.37610 0.09720 -0.12400
N 	N 	0.66304 0.49530 0.13778 -0.22900
C 	C 	0.67260 0.62030 0.10040 -0.10600
C 	C 	0.64680 0.73170 0.13850 -0.05800
N 	N 	0.57618 0.71450 0.14962 -0.31700
H 	H 	0.57065 0.22060 0.17060 0.07100
H 	H 	0.55408 0.24310 0.08890 0.08200
H 	H 	0.65170 0.18820 0.09440 0.00800
H 	H 	0.67140 0.24250 0.17700 -0.01100
H 	H 	0.65676 0.38590 0.04372 0.01900
H 	H 	0.72376 0.36360 0.10140 0.03800
H 	H 	0.68989 0.49440 0.18431 0.03500
H 	H 	0.72024 0.63300 0.10000 0.02800
H 	H 	0.64969 0.61690 0.04800 0.01200
H 	H 	0.64980 0.80920 0.10840 0.00700
H 	H 	0.67520 0.74470 0.18760 -0.00400
H 	H 	0.54816 0.75190 0.11094 0.06900
H 	H 	0.57020 0.75340 0.19311 0.05900
Cd	Cd	0.44939 0.48934 0.84491 1.16800
C 	C 	0.49548 0.49910 0.96840 -0.23100
C 	C 	0.49754 0.46430 0.74434 -0.30600
N 	N 	0.52255 0.44020 0.69741 -0.09200
N 	N 	0.42060 0.27130 0.86760 -0.32700
C 	C 	0.35380 0.26140 0.87310 -0.01200
C 	C 	0.32445 0.37610 0.90280 -0.12400
N 	N 	0.33696 0.49530 0.86222 -0.22900
C 	C 	0.32740 0.62030 0.89960 -0.10600
C 	C 	0.35320 0.73170 0.86150 -0.05800
N 	N 	0.42382 0.71450 0.85038 -0.31700
H 	H 	0.42935 0.22060 0.82940 0.07100
H 	H 	0.44592 0.24310 0.91110 0.08200
H 	H 	0.34830 0.18820 0.90560 0.00800
H 	H 	0.32860 0.24250 0.82300 -0.01100
H 	H 	0.34324 0.38590 0.95628 0.01900
H 	H 	0.27624 0.36360 0.89860 0.03800
H 	H 	0.31011 0.49440 0.81569 0.03500
H 	H 	0.27976 0.63300 0.90000 0.02800
H 	H 	0.35031 0.61690 0.95200 0.01200
H 	H 	0.35020 0.80920 0.89160 0.00700
H 	H 	0.32480 0.74470 0.81240 -0.00400
H 	H 	0.45184 0.75190 0.88906 0.06900
H 	H 	0.42980 0.75340 0.80689 0.05900
Cd	Cd	0.05061 0.98934 0.15509 1.16100
C 	C 	0.00452 0.99910 0.03160 -0.24500
C 	C 	0.00246 0.96430 0.25566 -0.32000
N 	N 	0.97745 0.94020 0.30259 -0.09500
N 	N 	0.07940 0.77130 0.13240 -0.32700
C 	C 	0.14620 0.76140 0.12690 -0.00500
C 	C 	0.17555 0.87610 0.09720 -0.12600
N 	N 	0.16304 0.99530 0.13778 -0.24600
C 	C 	0.17260 0.12030 0.10040 -0.06700
C 	C 	0.14680 0.23170 0.13850 -0.06900
N 	N 	0.07618 0.21450 0.14962 -0.31100
H 	H 	0.07065 0.72060 0.17060 0.06600
H 	H 	0.05408 0.74310 0.08890 0.07500
H 	H 	0.15170 0.68820 0.09440 -0.00600
H 	H 	0.17140 0.74250 0.17700 -0.02100
H 	H 	0.15676 0.88590 0.04372 0.01300
H 	H 	0.22376 0.86360 0.10140 0.03000
H 	H 	0.18989 0.99440 0.18431 0.02200
H 	H 	0.22024 0.13300 0.10000 0.02700
H 	H 	0.14969 0.11690 0.04800 0.01500
H 	H 	0.14980 0.30920 0.10840 0.01400
H 	H 	0.17520 0.24470 0.18760 0.00500
H 	H 	0.04816 0.25190 0.11094 0.07700
H 	H 	0.07020 0.25340 0.19311 0.07100
Cd	Cd	0.94939 0.98934 0.84491 1.16100
C 	C 	0.99548 0.99910 0.96840 -0.24500
C 	C 	0.99754 0.96430 0.74434 -0.32000
N 	N 	0.02255 0.94020 0.69741 -0.09500
N 	N 	0.92060 0.77130 0.86760 -0.32700
C 	C 	0.85380 0.76140 0.87310 -0.00500
C 	C 	0.82445 0.87610 0.90280 -0.12600
N 	N 	0.83696 0.99530 0.86222 -0.24600
C 	C 	0.82740 0.12030 0.89960 -0.06700
C 	C 	0.85320 0.23170 0.86150 -0.06900
N 	N 	0.92382 0.21450 0.85038 -0.31100
H 	H 	0.92935 0.72060 0.82940 0.06600
H 	H 	0.94592 0.74310 0.91110 0.07500
H 	H 	0.84830 0.68820 0.90560 -0.00600
H 	H 	0.82860 0.74250 0.82300 -0.02100
H 	H 	0.84324 0.88590 0.95628 0.01300
H 	H 	0.77624 0.86360 0.89860 0.03000
H 	H 	0.81011 0.99440 0.81569 0.02200
H 	H 	0.77976 0.13300 0.90000 0.02700
H 	H 	0.85031 0.11690 0.95200 0.01500
H 	H 	0.85020 0.30920 0.89160 0.01400
H 	H 	0.82480 0.24470 0.81240 0.00500
H 	H 	0.95184 0.25190 0.88906 0.07700
H 	H 	0.92980 0.25340 0.80689 0.07100
