data_crystal

_cell_length_a 9.11800
_cell_length_b 9.16100
_cell_length_c 9.33500
_cell_angle_alpha 85.98000
_cell_angle_beta  77.45000
_cell_angle_gamma 89.01000

_symmetry_space_group_name_	'P 1'
_symmetry_space_group_name_H-M	'P 1'

loop_
_symmetry_equiv_pos_as_xyz
  x,y,z

loop_
_atom_site_label
_atom_site_type_symbol
_atom_site_fract_x
_atom_site_fract_y
_atom_site_fract_z
_atom_site_charge
P 	P 	0.38120 0.18560 0.90040 0.84300
P 	P 	0.83000 0.35450 0.85670 0.71400
P 	P 	0.62760 0.37930 0.32380 0.81100
F 	F 	0.98710 0.39240 0.08220 -0.92600
O 	O 	0.77440 0.20220 0.92760 -0.73100
O 	O 	0.45750 0.18840 0.03060 -0.80700
O 	O 	0.35290 0.02690 0.87350 -0.74300
O 	O 	0.48680 0.24940 0.76110 -0.80900
O 	O 	0.23390 0.26480 0.93060 -0.64100
O 	O 	0.76470 0.46920 0.96220 -0.67900
O 	O 	0.77490 0.37840 0.71210 -0.71500
O 	O 	0.00110 0.35540 0.81190 -0.54300
O 	O 	0.74600 0.49190 0.25830 -0.69300
O 	O 	0.64760 0.32460 0.47690 -0.72500
O 	O 	0.63730 0.24490 0.23480 -0.75300
O 	O 	0.47070 0.44690 0.33870 -0.80200
Al	Al	0.62960 0.15720 0.07910 2.39700
Al	Al	0.13450 0.43770 0.91480 2.40400
Al	Al	0.60620 0.37860 0.65600 2.39800
P 	P 	0.61880 0.81440 0.09960 0.84300
P 	P 	0.17000 0.64550 0.14330 0.71400
P 	P 	0.37240 0.62070 0.67620 0.81100
F 	F 	0.01290 0.60760 0.91780 -0.92600
O 	O 	0.22560 0.79780 0.07240 -0.73100
O 	O 	0.54250 0.81160 0.96940 -0.80700
O 	O 	0.64710 0.97310 0.12650 -0.74300
O 	O 	0.51320 0.75060 0.23890 -0.80900
O 	O 	0.76610 0.73520 0.06940 -0.64100
O 	O 	0.23530 0.53080 0.03780 -0.67900
O 	O 	0.22510 0.62160 0.28790 -0.71500
O 	O 	0.99890 0.64460 0.18810 -0.54300
O 	O 	0.25400 0.50810 0.74170 -0.69300
O 	O 	0.35240 0.67540 0.52310 -0.72500
O 	O 	0.36270 0.75510 0.76520 -0.75300
O 	O 	0.52930 0.55310 0.66130 -0.80200
Al	Al	0.37040 0.84280 0.92090 2.39700
Al	Al	0.86550 0.56230 0.08520 2.40400
Al	Al	0.39380 0.62140 0.34400 2.39800
