data_crystal

_cell_length_a 12.10000
_cell_length_b 27.18500
_cell_length_c 20.60500
_cell_angle_alpha 90.00000
_cell_angle_beta  90.00000
_cell_angle_gamma 90.00000

_symmetry_space_group_name_	'P 1'
_symmetry_space_group_name_H-M	'P 1'

loop_
_symmetry_equiv_pos_as_xyz
  x,y,z

loop_
_atom_site_label
_atom_site_type_symbol
_atom_site_fract_x
_atom_site_fract_y
_atom_site_fract_z
_atom_site_charge
Tb	Tb	0.88911 0.42857 0.97775 1.85200
Tb	Tb	0.61089 0.07143 0.97775 1.86000
Tb	Tb	0.38911 0.57143 0.52225 1.86800
Tb	Tb	0.11089 0.92857 0.52225 1.86600
Tb	Tb	0.11089 0.57143 0.02225 1.85300
Tb	Tb	0.38911 0.92857 0.02225 1.86100
Tb	Tb	0.61089 0.42857 0.47775 1.86800
Tb	Tb	0.88911 0.07143 0.47775 1.86600
P 	P 	0.87820 0.10794 0.90405 0.23100
P 	P 	0.62180 0.39206 0.90405 0.23400
P 	P 	0.37820 0.89206 0.59595 0.23400
P 	P 	0.12180 0.60794 0.59595 0.23500
P 	P 	0.12180 0.89206 0.09595 0.23100
P 	P 	0.37820 0.60794 0.09595 0.23400
P 	P 	0.62180 0.10794 0.40405 0.23400
P 	P 	0.87820 0.39206 0.40405 0.23500
H 	H 	0.07950 0.16040 0.92860 0.07100
H 	H 	0.26300 0.13620 0.94950 0.02100
H 	H 	0.16510 0.99560 0.96290 0.01300
H 	H 	0.98590 0.01930 0.94140 0.05900
H 	H 	0.04230 0.08970 0.80700 0.05300
H 	H 	0.03860 0.07900 0.69430 0.04800
H 	H 	0.70460 0.08320 0.69770 0.04900
H 	H 	0.71170 0.09160 0.81140 0.02900
H 	H 	0.88290 0.19520 0.81920 0.04800
H 	H 	0.89270 0.27950 0.83820 0.05100
H 	H 	0.88750 0.25300 0.03190 0.06200
H 	H 	0.86710 0.16850 0.01200 0.05500
H 	H 	0.42050 0.33960 0.92860 0.07100
H 	H 	0.23700 0.36380 0.94950 0.02000
H 	H 	0.33490 0.50440 0.96290 0.00800
H 	H 	0.51410 0.48070 0.94140 0.07000
H 	H 	0.45770 0.41030 0.80700 0.04800
H 	H 	0.46140 0.42100 0.69430 0.04500
H 	H 	0.79540 0.41680 0.69770 0.04900
H 	H 	0.78830 0.40840 0.81140 0.02800
H 	H 	0.61710 0.30480 0.81920 0.04800
H 	H 	0.60730 0.22050 0.83820 0.05100
H 	H 	0.61250 0.24700 0.03190 0.05800
H 	H 	0.63290 0.33150 0.01200 0.05100
H 	H 	0.57950 0.83960 0.57140 0.07100
H 	H 	0.76300 0.86380 0.55050 0.01900
H 	H 	0.66510 0.00440 0.53710 0.00600
H 	H 	0.48590 0.98070 0.55860 0.07000
H 	H 	0.54230 0.91030 0.69300 0.04800
H 	H 	0.53860 0.92100 0.80570 0.04500
H 	H 	0.20460 0.91680 0.80230 0.04900
H 	H 	0.21170 0.90840 0.68860 0.02900
H 	H 	0.38290 0.80480 0.68080 0.04800
H 	H 	0.39270 0.72050 0.66180 0.05100
H 	H 	0.38750 0.74700 0.46810 0.05600
H 	H 	0.36710 0.83150 0.48800 0.04900
H 	H 	0.92050 0.66040 0.57140 0.07100
H 	H 	0.73700 0.63620 0.55050 0.01900
H 	H 	0.83490 0.49560 0.53710 0.00600
H 	H 	0.01410 0.51930 0.55860 0.07100
H 	H 	0.95770 0.58970 0.69300 0.04600
H 	H 	0.96140 0.57900 0.80570 0.04100
H 	H 	0.29540 0.58320 0.80230 0.04800
H 	H 	0.28830 0.59160 0.68860 0.02900
H 	H 	0.11710 0.69520 0.68080 0.04800
H 	H 	0.10730 0.77950 0.66180 0.05100
H 	H 	0.11250 0.75300 0.46810 0.05600
H 	H 	0.13290 0.66850 0.48800 0.04900
H 	H 	0.92050 0.83960 0.07140 0.07100
H 	H 	0.73700 0.86380 0.05050 0.02100
H 	H 	0.83490 0.00440 0.03710 0.01300
H 	H 	0.01410 0.98070 0.05860 0.05900
H 	H 	0.95770 0.91030 0.19300 0.05300
H 	H 	0.96140 0.92100 0.30570 0.04800
H 	H 	0.29540 0.91680 0.30230 0.04900
H 	H 	0.28830 0.90840 0.18860 0.02900
H 	H 	0.11710 0.80480 0.18080 0.04800
H 	H 	0.10730 0.72050 0.16180 0.05100
H 	H 	0.11250 0.74700 0.96810 0.06200
H 	H 	0.13290 0.83150 0.98800 0.05500
H 	H 	0.57950 0.66040 0.07140 0.07100
H 	H 	0.76300 0.63620 0.05050 0.02000
H 	H 	0.66510 0.49560 0.03710 0.00800
H 	H 	0.48590 0.51930 0.05860 0.07000
H 	H 	0.54230 0.58970 0.19300 0.04800
H 	H 	0.53860 0.57900 0.30570 0.04500
H 	H 	0.20460 0.58320 0.30230 0.04900
H 	H 	0.21170 0.59160 0.18860 0.02800
H 	H 	0.38290 0.69520 0.18080 0.04800
H 	H 	0.39270 0.77950 0.16180 0.05100
H 	H 	0.38750 0.75300 0.96810 0.05800
H 	H 	0.36710 0.66850 0.98800 0.05100
H 	H 	0.42050 0.16040 0.42860 0.07100
H 	H 	0.23700 0.13620 0.44950 0.01900
H 	H 	0.33490 0.99560 0.46290 0.00600
H 	H 	0.51410 0.01930 0.44140 0.07000
H 	H 	0.45770 0.08970 0.30700 0.04800
H 	H 	0.46140 0.07900 0.19430 0.04500
H 	H 	0.79540 0.08320 0.19770 0.04900
H 	H 	0.78830 0.09160 0.31140 0.02900
H 	H 	0.61710 0.19520 0.31920 0.04800
H 	H 	0.60730 0.27950 0.33820 0.05100
H 	H 	0.61250 0.25300 0.53190 0.05600
H 	H 	0.63290 0.16850 0.51200 0.04900
H 	H 	0.07950 0.33960 0.42860 0.07100
H 	H 	0.26300 0.36380 0.44950 0.01900
H 	H 	0.16510 0.50440 0.46290 0.00600
H 	H 	0.98590 0.48070 0.44140 0.07100
H 	H 	0.04230 0.41030 0.30700 0.04600
H 	H 	0.03860 0.42100 0.19430 0.04100
H 	H 	0.70460 0.41680 0.19770 0.04800
H 	H 	0.71170 0.40840 0.31140 0.02900
H 	H 	0.88290 0.30480 0.31920 0.04800
H 	H 	0.89270 0.22050 0.33820 0.05100
H 	H 	0.88750 0.24700 0.53190 0.05600
H 	H 	0.86710 0.33150 0.51200 0.04900
C 	C 	0.01560 0.09150 0.92910 0.01000
C 	C 	0.09690 0.12660 0.93430 -0.10900
C 	C 	0.20590 0.11230 0.94810 0.07500
C 	C 	0.22980 0.06500 0.95920 -0.18500
C 	C 	0.14800 0.02920 0.95580 0.06500
C 	C 	0.04260 0.04350 0.94200 -0.09300
C 	C 	0.34710 0.05080 0.97460 0.50500
C 	C 	0.87480 0.09610 0.81800 -0.03800
C 	C 	0.97380 0.08950 0.78440 -0.05900
C 	C 	0.97130 0.08270 0.71760 -0.01600
C 	C 	0.87070 0.08110 0.68450 -0.06200
C 	C 	0.77390 0.08480 0.71930 -0.02300
C 	C 	0.77840 0.09100 0.78710 -0.03600
C 	C 	0.86910 0.07430 0.61310 0.29800
C 	C 	0.87350 0.17250 0.91440 -0.04100
C 	C 	0.88210 0.20700 0.86260 -0.04300
C 	C 	0.88940 0.25700 0.87350 -0.02100
C 	C 	0.89180 0.27360 0.93700 -0.04700
C 	C 	0.88490 0.24110 0.98860 -0.02900
C 	C 	0.87410 0.19060 0.97650 -0.04300
C 	C 	0.89870 0.32810 0.94920 0.28000
C 	C 	0.48440 0.40850 0.92910 0.01100
C 	C 	0.40310 0.37340 0.93430 -0.11200
C 	C 	0.29410 0.38770 0.94810 0.07800
C 	C 	0.27020 0.43500 0.95920 -0.18900
C 	C 	0.35200 0.47080 0.95580 0.07500
C 	C 	0.45740 0.45650 0.94200 -0.10900
C 	C 	0.15290 0.44920 0.97460 0.50500
C 	C 	0.62520 0.40390 0.81800 -0.04000
C 	C 	0.52620 0.41050 0.78440 -0.05100
C 	C 	0.52870 0.41730 0.71760 -0.01400
C 	C 	0.62930 0.41890 0.68450 -0.06300
C 	C 	0.72610 0.41520 0.71930 -0.02300
C 	C 	0.72160 0.40900 0.78710 -0.03400
C 	C 	0.63090 0.42570 0.61310 0.29800
C 	C 	0.62650 0.32750 0.91440 -0.04100
C 	C 	0.61790 0.29300 0.86260 -0.04300
C 	C 	0.61060 0.24300 0.87350 -0.02000
C 	C 	0.60820 0.22640 0.93700 -0.04800
C 	C 	0.61510 0.25890 0.98860 -0.02500
C 	C 	0.62590 0.30940 0.97650 -0.03900
C 	C 	0.60130 0.17190 0.94920 0.28500
C 	C 	0.51560 0.90850 0.57090 0.01300
C 	C 	0.59690 0.87340 0.56570 -0.11400
C 	C 	0.70590 0.88770 0.55190 0.08000
C 	C 	0.72980 0.93500 0.54080 -0.19200
C 	C 	0.64800 0.97080 0.54420 0.07800
C 	C 	0.54260 0.95650 0.55800 -0.11100
C 	C 	0.84710 0.94920 0.52540 0.50800
C 	C 	0.37480 0.90390 0.68200 -0.04000
C 	C 	0.47380 0.91050 0.71560 -0.05100
C 	C 	0.47130 0.91730 0.78240 -0.01400
C 	C 	0.37070 0.91890 0.81550 -0.06200
C 	C 	0.27390 0.91520 0.78070 -0.02400
C 	C 	0.27840 0.90900 0.71290 -0.03400
C 	C 	0.36910 0.92570 0.88690 0.29800
C 	C 	0.37350 0.82750 0.58560 -0.04100
C 	C 	0.38210 0.79300 0.63740 -0.04300
C 	C 	0.38940 0.74300 0.62650 -0.01900
C 	C 	0.39180 0.72640 0.56300 -0.05000
C 	C 	0.38490 0.75890 0.51140 -0.02100
C 	C 	0.37410 0.80940 0.52350 -0.03700
C 	C 	0.39870 0.67190 0.55080 0.28800
C 	C 	0.98440 0.59150 0.57090 0.01200
C 	C 	0.90310 0.62660 0.56570 -0.11300
C 	C 	0.79410 0.61230 0.55190 0.08000
C 	C 	0.77020 0.56500 0.54080 -0.19200
C 	C 	0.85200 0.52920 0.54420 0.07700
C 	C 	0.95740 0.54350 0.55800 -0.11200
C 	C 	0.65290 0.55080 0.52540 0.50800
C 	C 	0.12520 0.59610 0.68200 -0.04000
C 	C 	0.02620 0.58950 0.71560 -0.05100
C 	C 	0.02870 0.58270 0.78240 -0.00800
C 	C 	0.12930 0.58110 0.81550 -0.06400
C 	C 	0.22610 0.58480 0.78070 -0.02200
C 	C 	0.22160 0.59100 0.71290 -0.03500
C 	C 	0.13090 0.57430 0.88690 0.29900
C 	C 	0.12650 0.67250 0.58560 -0.04100
C 	C 	0.11790 0.70700 0.63740 -0.04300
C 	C 	0.11060 0.75700 0.62650 -0.01900
C 	C 	0.10820 0.77360 0.56300 -0.05000
C 	C 	0.11510 0.74110 0.51140 -0.02100
C 	C 	0.12590 0.69060 0.52350 -0.03700
C 	C 	0.10130 0.82810 0.55080 0.28800
C 	C 	0.98440 0.90850 0.07090 0.01000
C 	C 	0.90310 0.87340 0.06570 -0.10900
C 	C 	0.79410 0.88770 0.05190 0.07500
C 	C 	0.77020 0.93500 0.04080 -0.18500
C 	C 	0.85200 0.97080 0.04420 0.06500
C 	C 	0.95740 0.95650 0.05800 -0.09300
C 	C 	0.65290 0.94920 0.02540 0.50500
C 	C 	0.12520 0.90390 0.18200 -0.03800
C 	C 	0.02620 0.91050 0.21560 -0.05900
C 	C 	0.02870 0.91730 0.28240 -0.01600
C 	C 	0.12930 0.91890 0.31550 -0.06200
C 	C 	0.22610 0.91520 0.28070 -0.02300
C 	C 	0.22160 0.90900 0.21290 -0.03600
C 	C 	0.13090 0.92570 0.38690 0.29800
C 	C 	0.12650 0.82750 0.08560 -0.04100
C 	C 	0.11790 0.79300 0.13740 -0.04300
C 	C 	0.11060 0.74300 0.12650 -0.02100
C 	C 	0.10820 0.72640 0.06300 -0.04700
C 	C 	0.11510 0.75890 0.01140 -0.02900
C 	C 	0.12590 0.80940 0.02350 -0.04300
C 	C 	0.10130 0.67190 0.05080 0.28000
C 	C 	0.51560 0.59150 0.07090 0.01100
C 	C 	0.59690 0.62660 0.06570 -0.11200
C 	C 	0.70590 0.61230 0.05190 0.07800
C 	C 	0.72980 0.56500 0.04080 -0.18900
C 	C 	0.64800 0.52920 0.04420 0.07500
C 	C 	0.54260 0.54350 0.05800 -0.10900
C 	C 	0.84710 0.55080 0.02540 0.50500
C 	C 	0.37480 0.59610 0.18200 -0.04000
C 	C 	0.47380 0.58950 0.21560 -0.05100
C 	C 	0.47130 0.58270 0.28240 -0.01400
C 	C 	0.37070 0.58110 0.31550 -0.06300
C 	C 	0.27390 0.58480 0.28070 -0.02300
C 	C 	0.27840 0.59100 0.21290 -0.03400
C 	C 	0.36910 0.57430 0.38690 0.29800
C 	C 	0.37350 0.67250 0.08560 -0.04100
C 	C 	0.38210 0.70700 0.13740 -0.04300
C 	C 	0.38940 0.75700 0.12650 -0.02000
C 	C 	0.39180 0.77360 0.06300 -0.04800
C 	C 	0.38490 0.74110 0.01140 -0.02500
C 	C 	0.37410 0.69060 0.02350 -0.03900
C 	C 	0.39870 0.82810 0.05080 0.28500
C 	C 	0.48440 0.09150 0.42910 0.01300
C 	C 	0.40310 0.12660 0.43430 -0.11400
C 	C 	0.29410 0.11230 0.44810 0.08000
C 	C 	0.27020 0.06500 0.45920 -0.19200
C 	C 	0.35200 0.02920 0.45580 0.07800
C 	C 	0.45740 0.04350 0.44200 -0.11100
C 	C 	0.15290 0.05080 0.47460 0.50800
C 	C 	0.62520 0.09610 0.31800 -0.04000
C 	C 	0.52620 0.08950 0.28440 -0.05100
C 	C 	0.52870 0.08270 0.21760 -0.01400
C 	C 	0.62930 0.08110 0.18450 -0.06200
C 	C 	0.72610 0.08480 0.21930 -0.02400
C 	C 	0.72160 0.09100 0.28710 -0.03400
C 	C 	0.63090 0.07430 0.11310 0.29800
C 	C 	0.62650 0.17250 0.41440 -0.04100
C 	C 	0.61790 0.20700 0.36260 -0.04300
C 	C 	0.61060 0.25700 0.37350 -0.01900
C 	C 	0.60820 0.27360 0.43700 -0.05000
C 	C 	0.61510 0.24110 0.48860 -0.02100
C 	C 	0.62590 0.19060 0.47650 -0.03700
C 	C 	0.60130 0.32810 0.44920 0.28800
C 	C 	0.01560 0.40850 0.42910 0.01200
C 	C 	0.09690 0.37340 0.43430 -0.11300
C 	C 	0.20590 0.38770 0.44810 0.08000
C 	C 	0.22980 0.43500 0.45920 -0.19200
C 	C 	0.14800 0.47080 0.45580 0.07700
C 	C 	0.04260 0.45650 0.44200 -0.11200
C 	C 	0.34710 0.44920 0.47460 0.50800
C 	C 	0.87480 0.40390 0.31800 -0.04000
C 	C 	0.97380 0.41050 0.28440 -0.05100
C 	C 	0.97130 0.41730 0.21760 -0.00800
C 	C 	0.87070 0.41890 0.18450 -0.06400
C 	C 	0.77390 0.41520 0.21930 -0.02200
C 	C 	0.77840 0.40900 0.28710 -0.03500
C 	C 	0.86910 0.42570 0.11310 0.29900
C 	C 	0.87350 0.32750 0.41440 -0.04100
C 	C 	0.88210 0.29300 0.36260 -0.04300
C 	C 	0.88940 0.24300 0.37350 -0.01900
C 	C 	0.89180 0.22640 0.43700 -0.05000
C 	C 	0.88490 0.25890 0.48860 -0.02100
C 	C 	0.87410 0.30940 0.47650 -0.03700
C 	C 	0.89870 0.17190 0.44920 0.28800
O 	O 	0.79210 0.07980 0.94080 -0.42100
O 	O 	0.42050 0.08240 0.96400 -0.50100
O 	O 	0.36550 0.00960 0.99760 -0.56400
O 	O 	0.96320 0.06520 0.58650 -0.40200
O 	O 	0.78270 0.07900 0.58050 -0.37900
O 	O 	0.90180 0.35900 0.90200 -0.39400
O 	O 	0.89800 0.34340 0.00780 -0.38200
O 	O 	0.70790 0.42020 0.94080 -0.42000
O 	O 	0.07950 0.41760 0.96400 -0.49800
O 	O 	0.13450 0.49040 0.99760 -0.56100
O 	O 	0.53680 0.43480 0.58650 -0.40100
O 	O 	0.71730 0.42100 0.58050 -0.38000
O 	O 	0.59820 0.14100 0.90200 -0.39400
O 	O 	0.60200 0.15660 0.00780 -0.38600
O 	O 	0.29210 0.92020 0.55920 -0.42000
O 	O 	0.92050 0.91760 0.53600 -0.50200
O 	O 	0.86550 0.99040 0.50240 -0.56500
O 	O 	0.46320 0.93480 0.91350 -0.39900
O 	O 	0.28270 0.92100 0.91950 -0.37800
O 	O 	0.40180 0.64100 0.59800 -0.39500
O 	O 	0.39800 0.65660 0.49220 -0.38900
O 	O 	0.20790 0.57980 0.55920 -0.42100
O 	O 	0.57950 0.58240 0.53600 -0.50200
O 	O 	0.63450 0.50960 0.50240 -0.56600
O 	O 	0.03680 0.56520 0.91350 -0.39800
O 	O 	0.21730 0.57900 0.91950 -0.37800
O 	O 	0.09820 0.85900 0.59800 -0.39500
O 	O 	0.10200 0.84340 0.49220 -0.38900
O 	O 	0.20790 0.92020 0.05920 -0.42100
O 	O 	0.57950 0.91760 0.03600 -0.50100
O 	O 	0.63450 0.99040 0.00240 -0.56400
O 	O 	0.03680 0.93480 0.41350 -0.40200
O 	O 	0.21730 0.92100 0.41950 -0.37900
O 	O 	0.09820 0.64100 0.09800 -0.39400
O 	O 	0.10200 0.65660 0.99220 -0.38200
O 	O 	0.29210 0.57980 0.05920 -0.42000
O 	O 	0.92050 0.58240 0.03600 -0.49800
O 	O 	0.86550 0.50960 0.00240 -0.56100
O 	O 	0.46320 0.56520 0.41350 -0.40100
O 	O 	0.28270 0.57900 0.41950 -0.38000
O 	O 	0.40180 0.85900 0.09800 -0.39400
O 	O 	0.39800 0.84340 0.99220 -0.38600
O 	O 	0.70790 0.07980 0.44080 -0.42000
O 	O 	0.07950 0.08240 0.46400 -0.50200
O 	O 	0.13450 0.00960 0.49760 -0.56500
O 	O 	0.53680 0.06520 0.08650 -0.39900
O 	O 	0.71730 0.07900 0.08050 -0.37800
O 	O 	0.59820 0.35900 0.40200 -0.39500
O 	O 	0.60200 0.34340 0.50780 -0.38900
O 	O 	0.79210 0.42020 0.44080 -0.42100
O 	O 	0.42050 0.41760 0.46400 -0.50200
O 	O 	0.36550 0.49040 0.49760 -0.56600
O 	O 	0.96320 0.43480 0.08650 -0.39800
O 	O 	0.78270 0.42100 0.08050 -0.37800
O 	O 	0.90180 0.14100 0.40200 -0.39500
O 	O 	0.89800 0.15660 0.50780 -0.38900
