data_crystal

_cell_length_a 21.89300
_cell_length_b 21.89300
_cell_length_c 7.18120
_cell_angle_alpha 90.00000
_cell_angle_beta  90.00000
_cell_angle_gamma 90.00000

_symmetry_space_group_name_	'P 1'
_symmetry_space_group_name_H-M	'P 1'

loop_
_symmetry_equiv_pos_as_xyz
  x,y,z

loop_
_atom_site_label
_atom_site_type_symbol
_atom_site_fract_x
_atom_site_fract_y
_atom_site_fract_z
_atom_site_charge
H 	H 	0.73360 0.05330 0.51150 0.05000
H 	H 	0.83550 0.10480 0.95880 0.06100
H 	H 	0.86730 0.05270 0.69440 0.05800
C 	C 	0.76240 0.13170 0.26060 0.51000
C 	C 	0.77140 0.06430 0.25550 -0.13200
C 	C 	0.74870 0.03210 0.40910 -0.00900
C 	C 	0.79880 0.03350 0.10380 -0.06300
C 	C 	0.82990 0.06270 0.95320 0.09200
C 	C 	0.85250 0.03120 0.79670 -0.05000
O 	O 	0.75770 0.15740 0.40540 -0.60400
O 	O 	0.75950 0.15740 0.10340 -0.63600
H 	H 	0.81650 0.68350 0.25450 0.19500
H 	H 	0.26640 0.94670 0.51150 0.05100
H 	H 	0.16450 0.89520 0.95880 0.06200
H 	H 	0.13270 0.94730 0.69440 0.05900
C 	C 	0.23760 0.86830 0.26060 0.51100
C 	C 	0.22860 0.93570 0.25550 -0.13100
C 	C 	0.25130 0.96790 0.40910 -0.00800
C 	C 	0.20120 0.96650 0.10380 -0.06200
C 	C 	0.17010 0.93730 0.95320 0.09300
C 	C 	0.14750 0.96880 0.79670 -0.04900
O 	O 	0.24230 0.84260 0.40540 -0.60300
O 	O 	0.24050 0.84260 0.10340 -0.63500
H 	H 	0.44670 0.23360 0.51150 0.05100
H 	H 	0.39520 0.33550 0.95880 0.06100
H 	H 	0.44730 0.36730 0.69440 0.05900
C 	C 	0.36830 0.26240 0.26060 0.51100
C 	C 	0.43570 0.27140 0.25550 -0.13100
C 	C 	0.46790 0.24870 0.40910 -0.00800
C 	C 	0.46650 0.29880 0.10380 -0.06200
C 	C 	0.43730 0.32990 0.95320 0.09400
C 	C 	0.46880 0.35250 0.79670 -0.04900
O 	O 	0.34260 0.25770 0.40540 -0.60300
O 	O 	0.34260 0.25950 0.10340 -0.63500
H 	H 	0.81650 0.31650 0.25450 0.19600
H 	H 	0.55330 0.76640 0.51150 0.05100
H 	H 	0.60480 0.66450 0.95880 0.06100
H 	H 	0.55270 0.63270 0.69440 0.05900
C 	C 	0.63170 0.73760 0.26060 0.51100
C 	C 	0.56430 0.72860 0.25550 -0.13100
C 	C 	0.53210 0.75130 0.40910 -0.00800
C 	C 	0.53350 0.70120 0.10380 -0.06200
C 	C 	0.56270 0.67010 0.95320 0.09400
C 	C 	0.53120 0.64750 0.79670 -0.04900
O 	O 	0.65740 0.74230 0.40540 -0.60300
O 	O 	0.65740 0.74050 0.10340 -0.63500
H 	H 	0.18350 0.68350 0.25450 0.19600
H 	H 	0.76640 0.55330 0.48850 0.02800
H 	H 	0.66450 0.60480 0.04120 0.07900
H 	H 	0.63270 0.55270 0.30560 0.02600
C 	C 	0.73760 0.63170 0.73940 0.53300
C 	C 	0.72860 0.56430 0.74450 -0.17800
C 	C 	0.75130 0.53210 0.59090 0.01200
C 	C 	0.70120 0.53350 0.89620 0.18800
C 	C 	0.67010 0.56270 0.04680 -0.26600
C 	C 	0.64750 0.53120 0.20330 -0.00000
O 	O 	0.74230 0.65740 0.59460 -0.60500
O 	O 	0.74050 0.65740 0.89660 -0.51700
H 	H 	0.23360 0.44670 0.48850 0.02800
H 	H 	0.33550 0.39520 0.04120 0.07900
H 	H 	0.36730 0.44730 0.30560 0.02600
C 	C 	0.26240 0.36830 0.73940 0.53300
C 	C 	0.27140 0.43570 0.74450 -0.17800
C 	C 	0.24870 0.46790 0.59090 0.01200
C 	C 	0.29880 0.46650 0.89620 0.18800
C 	C 	0.32990 0.43730 0.04680 -0.26600
C 	C 	0.35250 0.46880 0.20330 -0.00000
O 	O 	0.25770 0.34260 0.59460 -0.60500
O 	O 	0.25950 0.34260 0.89660 -0.51700
H 	H 	0.05330 0.73360 0.48850 0.02800
H 	H 	0.10480 0.83550 0.04120 0.07900
H 	H 	0.05270 0.86730 0.30560 0.02700
C 	C 	0.13170 0.76240 0.73940 0.53300
C 	C 	0.06430 0.77140 0.74450 -0.17800
C 	C 	0.03210 0.74870 0.59090 0.01200
C 	C 	0.03350 0.79880 0.89620 0.18700
C 	C 	0.06270 0.82990 0.04680 -0.26500
C 	C 	0.03120 0.85250 0.20330 -0.00100
O 	O 	0.15740 0.75770 0.59460 -0.60500
O 	O 	0.15740 0.75950 0.89660 -0.51700
H 	H 	0.68350 0.81650 0.74550 0.23800
H 	H 	0.94670 0.26640 0.48850 0.02800
H 	H 	0.89520 0.16450 0.04120 0.07900
H 	H 	0.94730 0.13270 0.30560 0.02700
C 	C 	0.86830 0.23760 0.73940 0.53300
C 	C 	0.93570 0.22860 0.74450 -0.17800
C 	C 	0.96790 0.25130 0.59090 0.01200
C 	C 	0.96650 0.20120 0.89620 0.18700
C 	C 	0.93730 0.17010 0.04680 -0.26500
C 	C 	0.96880 0.14750 0.20330 -0.00100
O 	O 	0.84260 0.24230 0.59460 -0.60500
O 	O 	0.84260 0.24050 0.89660 -0.51700
H 	H 	0.31650 0.18350 0.74550 0.23800
H 	H 	0.76640 0.44670 0.48850 0.02800
H 	H 	0.66450 0.39520 0.04120 0.07900
H 	H 	0.63270 0.44730 0.30560 0.02600
C 	C 	0.73760 0.36830 0.73940 0.53300
C 	C 	0.72860 0.43570 0.74450 -0.17800
C 	C 	0.75130 0.46790 0.59090 0.01200
C 	C 	0.70120 0.46650 0.89620 0.18800
C 	C 	0.67010 0.43730 0.04680 -0.26600
C 	C 	0.64750 0.46880 0.20330 -0.00000
O 	O 	0.74230 0.34260 0.59460 -0.60500
O 	O 	0.74050 0.34260 0.89660 -0.51700
H 	H 	0.23360 0.55330 0.48850 0.02800
H 	H 	0.33550 0.60480 0.04120 0.07900
H 	H 	0.36730 0.55270 0.30560 0.02600
C 	C 	0.26240 0.63170 0.73940 0.53300
C 	C 	0.27140 0.56430 0.74450 -0.17800
C 	C 	0.24870 0.53210 0.59090 0.01200
C 	C 	0.29880 0.53350 0.89620 0.18800
C 	C 	0.32990 0.56270 0.04680 -0.26600
C 	C 	0.35250 0.53120 0.20330 -0.00000
O 	O 	0.25770 0.65740 0.59460 -0.60500
O 	O 	0.25950 0.65740 0.89660 -0.51700
H 	H 	0.05330 0.26640 0.48850 0.02800
H 	H 	0.10480 0.16450 0.04120 0.07900
H 	H 	0.05270 0.13270 0.30560 0.02700
C 	C 	0.13170 0.23760 0.73940 0.53300
C 	C 	0.06430 0.22860 0.74450 -0.17800
C 	C 	0.03210 0.25130 0.59090 0.01200
C 	C 	0.03350 0.20120 0.89620 0.18700
C 	C 	0.06270 0.17010 0.04680 -0.26500
C 	C 	0.03120 0.14750 0.20330 -0.00100
O 	O 	0.15740 0.24230 0.59460 -0.60500
O 	O 	0.15740 0.24050 0.89660 -0.51700
H 	H 	0.68350 0.18350 0.74550 0.23800
H 	H 	0.94670 0.73360 0.48850 0.02800
H 	H 	0.89520 0.83550 0.04120 0.07900
H 	H 	0.94730 0.86730 0.30560 0.02700
C 	C 	0.86830 0.76240 0.73940 0.53300
C 	C 	0.93570 0.77140 0.74450 -0.17800
C 	C 	0.96790 0.74870 0.59090 0.01200
C 	C 	0.96650 0.79880 0.89620 0.18700
C 	C 	0.93730 0.82990 0.04680 -0.26500
C 	C 	0.96880 0.85250 0.20330 -0.00100
O 	O 	0.84260 0.75770 0.59460 -0.60500
O 	O 	0.84260 0.75950 0.89660 -0.51700
H 	H 	0.31650 0.81650 0.74550 0.23800
H 	H 	0.73360 0.94670 0.51150 0.05100
H 	H 	0.83550 0.89520 0.95880 0.06200
H 	H 	0.86730 0.94730 0.69440 0.05900
C 	C 	0.76240 0.86830 0.26060 0.51100
C 	C 	0.77140 0.93570 0.25550 -0.13100
C 	C 	0.74870 0.96790 0.40910 -0.00800
C 	C 	0.79880 0.96650 0.10380 -0.06200
C 	C 	0.82990 0.93730 0.95320 0.09300
C 	C 	0.85250 0.96880 0.79670 -0.04900
O 	O 	0.75770 0.84260 0.40540 -0.60300
O 	O 	0.75950 0.84260 0.10340 -0.63500
H 	H 	0.26640 0.05330 0.51150 0.05100
H 	H 	0.16450 0.10480 0.95880 0.06200
H 	H 	0.13270 0.05270 0.69440 0.05900
C 	C 	0.23760 0.13170 0.26060 0.51100
C 	C 	0.22860 0.06430 0.25550 -0.13100
C 	C 	0.25130 0.03210 0.40910 -0.00800
C 	C 	0.20120 0.03350 0.10380 -0.06200
C 	C 	0.17010 0.06270 0.95320 0.09300
C 	C 	0.14750 0.03120 0.79670 -0.04900
O 	O 	0.24230 0.15740 0.40540 -0.60300
O 	O 	0.24050 0.15740 0.10340 -0.63500
H 	H 	0.44670 0.76640 0.51150 0.05100
H 	H 	0.39520 0.66450 0.95880 0.06100
H 	H 	0.44730 0.63270 0.69440 0.05900
C 	C 	0.36830 0.73760 0.26060 0.51100
C 	C 	0.43570 0.72860 0.25550 -0.13100
C 	C 	0.46790 0.75130 0.40910 -0.00800
C 	C 	0.46650 0.70120 0.10380 -0.06200
C 	C 	0.43730 0.67010 0.95320 0.09400
C 	C 	0.46880 0.64750 0.79670 -0.04900
O 	O 	0.34260 0.74230 0.40540 -0.60300
O 	O 	0.34260 0.74050 0.10340 -0.63500
H 	H 	0.55330 0.23360 0.51150 0.05100
H 	H 	0.60480 0.33550 0.95880 0.06100
H 	H 	0.55270 0.36730 0.69440 0.05900
C 	C 	0.63170 0.26240 0.26060 0.51100
C 	C 	0.56430 0.27140 0.25550 -0.13100
C 	C 	0.53210 0.24870 0.40910 -0.00800
C 	C 	0.53350 0.29880 0.10380 -0.06200
C 	C 	0.56270 0.32990 0.95320 0.09400
C 	C 	0.53120 0.35250 0.79670 -0.04900
O 	O 	0.65740 0.25770 0.40540 -0.60300
O 	O 	0.65740 0.25950 0.10340 -0.63500
H 	H 	0.18350 0.31650 0.25450 0.19600
In	In	0.75000 0.25000 -0.00000 1.97500
In	In	0.25000 0.75000 -0.00000 1.97500
In	In	0.25000 0.25000 -0.00000 1.97500
In	In	0.75000 0.75000 -0.00000 1.97500
In	In	0.75000 0.25000 0.50000 2.02100
In	In	0.25000 0.75000 0.50000 2.02100
In	In	0.25000 0.25000 0.50000 2.02100
In	In	0.75000 0.75000 0.50000 2.02100
O 	O 	0.78420 0.28420 0.25450 -0.82700
O 	O 	0.21580 0.71580 0.25450 -0.82700
O 	O 	0.21580 0.28420 0.25450 -0.82700
O 	O 	0.78420 0.71580 0.25450 -0.82700
O 	O 	0.71580 0.78420 0.74550 -0.77600
O 	O 	0.28420 0.21580 0.74550 -0.77600
O 	O 	0.28420 0.78420 0.74550 -0.77600
O 	O 	0.71580 0.21580 0.74550 -0.77600
