data_crystal

_cell_length_a 15.58640
_cell_length_b 25.47500
_cell_length_c 17.03010
_cell_angle_alpha 98.42800
_cell_angle_beta  90.00000
_cell_angle_gamma 90.00000

_symmetry_space_group_name_	'P 1'
_symmetry_space_group_name_H-M	'P 1'

loop_
_symmetry_equiv_pos_as_xyz
  x,y,z

loop_
_atom_site_label
_atom_site_type_symbol
_atom_site_fract_x
_atom_site_fract_y
_atom_site_fract_z
_atom_site_charge
Sm	Sm	0.29514 0.25036 0.96244 2.03800
Sm	Sm	0.17593 0.24829 0.18493 2.07200
Sm	Sm	0.79514 0.74964 0.53756 2.04000
Sm	Sm	0.67593 0.75171 0.31507 2.07200
Sm	Sm	0.70486 0.74964 0.03756 2.03800
Sm	Sm	0.82407 0.75171 0.81507 2.07200
Sm	Sm	0.20486 0.25036 0.46244 2.04000
Sm	Sm	0.32407 0.24829 0.68493 2.07200
H 	H 	0.99570 0.38490 0.11330 -0.00700
H 	H 	0.93980 0.46340 0.09330 0.08900
H 	H 	0.16280 0.38760 0.93330 0.01700
H 	H 	0.34850 0.12630 0.23750 0.01100
H 	H 	0.42390 0.05080 0.26120 0.07200
H 	H 	0.47940 0.12620 0.03180 0.01300
H 	H 	0.50150 0.99760 0.28050 0.07200
H 	H 	0.55730 0.91450 0.29620 0.00600
H 	H 	0.64230 0.89480 0.06890 0.00900
H 	H 	0.13250 0.08600 0.87680 -0.00400
H 	H 	0.05400 0.00890 0.88300 0.08800
H 	H 	0.07500 0.12970 0.10480 -0.02900
H 	H 	0.35200 0.40410 0.27830 0.01100
H 	H 	0.44100 0.47820 0.28050 0.08100
H 	H 	0.40760 0.36290 0.04550 -0.02200
H 	H 	0.48870 0.54680 0.27330 0.08700
H 	H 	0.55330 0.62580 0.26640 -0.01200
H 	H 	0.63680 0.57420 0.04880 0.01400
H 	H 	0.49570 0.61510 0.38670 -0.00500
H 	H 	0.43980 0.53660 0.40670 0.08800
H 	H 	0.66280 0.61240 0.56670 0.01600
H 	H 	0.84850 0.87370 0.26250 0.01100
H 	H 	0.92390 0.94920 0.23880 0.07100
H 	H 	0.97940 0.87380 0.46820 0.01200
H 	H 	0.00150 0.00240 0.21950 0.07400
H 	H 	0.05730 0.08550 0.20380 0.00600
H 	H 	0.14230 0.10520 0.43110 0.01000
H 	H 	0.63250 0.91400 0.62320 -0.00400
H 	H 	0.55400 0.99110 0.61700 0.08900
H 	H 	0.57500 0.87030 0.39520 -0.02800
H 	H 	0.85200 0.59590 0.22170 0.01100
H 	H 	0.94100 0.52180 0.21950 0.08100
H 	H 	0.90760 0.63710 0.45450 -0.02200
H 	H 	0.98870 0.45320 0.22670 0.08600
H 	H 	0.05330 0.37420 0.23360 -0.01100
H 	H 	0.13680 0.42580 0.45120 0.01400
H 	H 	0.00430 0.61510 0.88670 -0.00700
H 	H 	0.06020 0.53660 0.90670 0.08900
H 	H 	0.83720 0.61240 0.06670 0.01700
H 	H 	0.65150 0.87370 0.76250 0.01100
H 	H 	0.57610 0.94920 0.73880 0.07200
H 	H 	0.52060 0.87380 0.96820 0.01300
H 	H 	0.49850 0.00240 0.71950 0.07200
H 	H 	0.44270 0.08550 0.70380 0.00600
H 	H 	0.35770 0.10520 0.93110 0.00900
H 	H 	0.86750 0.91400 0.12320 -0.00400
H 	H 	0.94600 0.99110 0.11700 0.08800
H 	H 	0.92500 0.87030 0.89520 -0.02900
H 	H 	0.64800 0.59590 0.72170 0.01100
H 	H 	0.55900 0.52180 0.71950 0.08100
H 	H 	0.59240 0.63710 0.95450 -0.02200
H 	H 	0.51130 0.45320 0.72670 0.08700
H 	H 	0.44670 0.37420 0.73360 -0.01200
H 	H 	0.36320 0.42580 0.95120 0.01400
H 	H 	0.50430 0.38490 0.61330 -0.00500
H 	H 	0.56020 0.46340 0.59330 0.08800
H 	H 	0.33720 0.38760 0.43330 0.01600
H 	H 	0.15150 0.12630 0.73750 0.01100
H 	H 	0.07610 0.05080 0.76120 0.07100
H 	H 	0.02060 0.12620 0.53180 0.01200
H 	H 	0.99850 0.99760 0.78050 0.07400
H 	H 	0.94270 0.91450 0.79620 0.00600
H 	H 	0.85770 0.89480 0.56890 0.01000
H 	H 	0.36750 0.08600 0.37680 -0.00400
H 	H 	0.44600 0.00890 0.38300 0.08900
H 	H 	0.42500 0.12970 0.60480 -0.02800
H 	H 	0.14800 0.40410 0.77830 0.01100
H 	H 	0.05900 0.47820 0.78050 0.08100
H 	H 	0.09240 0.36290 0.54550 -0.02200
H 	H 	0.01130 0.54680 0.77330 0.08600
H 	H 	0.94670 0.62580 0.76640 -0.01100
H 	H 	0.86320 0.57420 0.54880 0.01400
C 	C 	0.12470 0.32540 0.04270 0.50300
C 	C 	0.08640 0.37780 0.02790 -0.19100
C 	C 	0.01930 0.40220 0.07250 0.11500
C 	C 	0.98620 0.44860 0.06120 -0.16700
C 	C 	0.01780 0.47440 0.00490 0.08300
C 	C 	0.11800 0.40340 0.96630 0.09600
C 	C 	0.35290 0.17910 0.11530 0.49100
C 	C 	0.40680 0.13340 0.13240 -0.18600
C 	C 	0.39040 0.11100 0.20060 0.08800
C 	C 	0.43520 0.06610 0.21470 -0.13100
C 	C 	0.49640 0.04360 0.16060 0.07300
C 	C 	0.46810 0.11090 0.07840 0.10200
C 	C 	0.63280 0.84220 0.19420 0.54300
C 	C 	0.53880 0.99550 0.16540 0.07700
C 	C 	0.53010 0.97670 0.23750 -0.13800
C 	C 	0.56320 0.92740 0.24690 0.09700
C 	C 	0.60510 0.89680 0.18400 -0.21000
C 	C 	0.61370 0.91560 0.11180 0.11500
C 	C 	0.16670 0.16530 0.99450 0.49100
C 	C 	0.11520 0.11540 0.99270 -0.23100
C 	C 	0.10700 0.07970 0.92530 0.12600
C 	C 	0.06000 0.03410 0.92950 -0.17200
C 	C 	0.02500 0.02450 0.99540 0.09600
C 	C 	0.07300 0.10410 0.05820 0.15000
C 	C 	0.31250 0.32930 0.15790 0.47500
C 	C 	0.37050 0.37570 0.16150 -0.20700
C 	C 	0.38100 0.41060 0.23130 0.10500
C 	C 	0.43220 0.45470 0.23250 -0.15200
C 	C 	0.47020 0.46410 0.16420 0.08600
C 	C 	0.41400 0.38640 0.09400 0.12200
C 	C 	0.52080 0.51340 0.16340 0.09100
C 	C 	0.51790 0.55230 0.22620 -0.17800
C 	C 	0.55600 0.59860 0.22180 0.13900
C 	C 	0.59890 0.60840 0.15600 -0.22000
C 	C 	0.60500 0.56840 0.09430 0.11800
C 	C 	0.63530 0.66200 0.15030 0.49700
C 	C 	0.62470 0.67460 0.45730 0.50100
C 	C 	0.58640 0.62220 0.47210 -0.19000
C 	C 	0.51930 0.59780 0.42750 0.11000
C 	C 	0.48620 0.55140 0.43880 -0.16200
C 	C 	0.51780 0.52560 0.49510 0.08100
C 	C 	0.61800 0.59660 0.53370 0.09700
C 	C 	0.85290 0.82090 0.38470 0.49100
C 	C 	0.90680 0.86660 0.36760 -0.18500
C 	C 	0.89040 0.88900 0.29940 0.08600
C 	C 	0.93520 0.93390 0.28530 -0.12900
C 	C 	0.99640 0.95640 0.33940 0.06900
C 	C 	0.96810 0.88910 0.42160 0.10100
C 	C 	0.13280 0.15780 0.30580 0.54300
C 	C 	0.03880 0.00450 0.33460 0.08100
C 	C 	0.03010 0.02330 0.26250 -0.13900
C 	C 	0.06320 0.07260 0.25310 0.09800
C 	C 	0.10510 0.10320 0.31600 -0.21100
C 	C 	0.11370 0.08440 0.38820 0.11500
C 	C 	0.66670 0.83470 0.50550 0.49300
C 	C 	0.61520 0.88460 0.50730 -0.22900
C 	C 	0.60700 0.92030 0.57470 0.12500
C 	C 	0.56000 0.96590 0.57050 -0.17200
C 	C 	0.52500 0.97550 0.50460 0.09800
C 	C 	0.57300 0.89590 0.44180 0.14700
C 	C 	0.81250 0.67070 0.34210 0.47500
C 	C 	0.87050 0.62430 0.33850 -0.20700
C 	C 	0.88100 0.58940 0.26870 0.10500
C 	C 	0.93220 0.54530 0.26750 -0.15200
C 	C 	0.97020 0.53590 0.33580 0.08600
C 	C 	0.91400 0.61360 0.40600 0.12200
C 	C 	0.02080 0.48660 0.33660 0.09100
C 	C 	0.01790 0.44770 0.27380 -0.17700
C 	C 	0.05600 0.40140 0.27820 0.13800
C 	C 	0.09890 0.39160 0.34400 -0.22000
C 	C 	0.10500 0.43160 0.40570 0.11700
C 	C 	0.13530 0.33800 0.34970 0.49700
C 	C 	0.87530 0.67460 0.95730 0.50300
C 	C 	0.91360 0.62220 0.97210 -0.19100
C 	C 	0.98070 0.59780 0.92750 0.11500
C 	C 	0.01380 0.55140 0.93880 -0.16700
C 	C 	0.98220 0.52560 0.99510 0.08300
C 	C 	0.88200 0.59660 0.03370 0.09600
C 	C 	0.64710 0.82090 0.88470 0.49100
C 	C 	0.59320 0.86660 0.86760 -0.18600
C 	C 	0.60960 0.88900 0.79940 0.08800
C 	C 	0.56480 0.93390 0.78530 -0.13100
C 	C 	0.50360 0.95640 0.83940 0.07300
C 	C 	0.53190 0.88910 0.92160 0.10200
C 	C 	0.36720 0.15780 0.80580 0.54300
C 	C 	0.46120 0.00450 0.83460 0.07700
C 	C 	0.46990 0.02330 0.76250 -0.13800
C 	C 	0.43680 0.07260 0.75310 0.09700
C 	C 	0.39490 0.10320 0.81600 -0.21000
C 	C 	0.38630 0.08440 0.88820 0.11500
C 	C 	0.83330 0.83470 0.00550 0.49100
C 	C 	0.88480 0.88460 0.00730 -0.23100
C 	C 	0.89300 0.92030 0.07470 0.12600
C 	C 	0.94000 0.96590 0.07050 -0.17200
C 	C 	0.97500 0.97550 0.00460 0.09600
C 	C 	0.92700 0.89590 0.94180 0.15000
C 	C 	0.68750 0.67070 0.84210 0.47500
C 	C 	0.62950 0.62430 0.83850 -0.20700
C 	C 	0.61900 0.58940 0.76870 0.10500
C 	C 	0.56780 0.54530 0.76750 -0.15200
C 	C 	0.52980 0.53590 0.83580 0.08600
C 	C 	0.58600 0.61360 0.90600 0.12200
C 	C 	0.47920 0.48660 0.83660 0.09100
C 	C 	0.48210 0.44770 0.77380 -0.17800
C 	C 	0.44400 0.40140 0.77820 0.13900
C 	C 	0.40110 0.39160 0.84400 -0.22000
C 	C 	0.39500 0.43160 0.90570 0.11800
C 	C 	0.36470 0.33800 0.84970 0.49700
C 	C 	0.37530 0.32540 0.54270 0.50100
C 	C 	0.41360 0.37780 0.52790 -0.19000
C 	C 	0.48070 0.40220 0.57250 0.11000
C 	C 	0.51380 0.44860 0.56120 -0.16200
C 	C 	0.48220 0.47440 0.50490 0.08100
C 	C 	0.38200 0.40340 0.46630 0.09700
C 	C 	0.14710 0.17910 0.61530 0.49100
C 	C 	0.09320 0.13340 0.63240 -0.18500
C 	C 	0.10960 0.11100 0.70060 0.08600
C 	C 	0.06480 0.06610 0.71470 -0.12900
C 	C 	0.00360 0.04360 0.66060 0.06900
C 	C 	0.03190 0.11090 0.57840 0.10100
C 	C 	0.86720 0.84220 0.69420 0.54300
C 	C 	0.96120 0.99550 0.66540 0.08100
C 	C 	0.96990 0.97670 0.73750 -0.13900
C 	C 	0.93680 0.92740 0.74690 0.09800
C 	C 	0.89490 0.89680 0.68400 -0.21100
C 	C 	0.88630 0.91560 0.61180 0.11500
C 	C 	0.33330 0.16530 0.49450 0.49300
C 	C 	0.38480 0.11540 0.49270 -0.22900
C 	C 	0.39300 0.07970 0.42530 0.12500
C 	C 	0.44000 0.03410 0.42950 -0.17200
C 	C 	0.47500 0.02450 0.49540 0.09800
C 	C 	0.42700 0.10410 0.55820 0.14700
C 	C 	0.18750 0.32930 0.65790 0.47500
C 	C 	0.12950 0.37570 0.66150 -0.20700
C 	C 	0.11900 0.41060 0.73130 0.10500
C 	C 	0.06780 0.45470 0.73250 -0.15200
C 	C 	0.02980 0.46410 0.66420 0.08600
C 	C 	0.08600 0.38640 0.59400 0.12200
C 	C 	0.97920 0.51340 0.66340 0.09100
C 	C 	0.98210 0.55230 0.72620 -0.17700
C 	C 	0.94400 0.59860 0.72180 0.13800
C 	C 	0.90110 0.60840 0.65600 -0.22000
C 	C 	0.89500 0.56840 0.59430 0.11700
C 	C 	0.86470 0.66200 0.65030 0.49700
N 	N 	0.08400 0.45210 0.95320 -0.13200
N 	N 	0.51290 0.06610 0.09250 -0.11800
N 	N 	0.58060 0.96500 0.10250 -0.12200
N 	N 	0.03000 0.05980 0.06100 -0.15400
N 	N 	0.46450 0.42990 0.09640 -0.13300
N 	N 	0.56600 0.51880 0.09500 -0.12400
N 	N 	0.58400 0.54790 0.54680 -0.13100
N 	N 	0.01290 0.93390 0.40750 -0.11700
N 	N 	0.08060 0.03500 0.39750 -0.12200
N 	N 	0.53000 0.94020 0.43900 -0.15500
N 	N 	0.96450 0.57010 0.40360 -0.13300
N 	N 	0.06600 0.48120 0.40500 -0.12400
N 	N 	0.91600 0.54790 0.04680 -0.13200
N 	N 	0.48710 0.93390 0.90750 -0.11800
N 	N 	0.41940 0.03500 0.89750 -0.12200
N 	N 	0.97000 0.94020 0.93900 -0.15400
N 	N 	0.53550 0.57010 0.90360 -0.13300
N 	N 	0.43400 0.48120 0.90500 -0.12400
N 	N 	0.41600 0.45210 0.45320 -0.13100
N 	N 	0.98710 0.06610 0.59250 -0.11700
N 	N 	0.91940 0.96500 0.60250 -0.12200
N 	N 	0.47000 0.05980 0.56100 -0.15500
N 	N 	0.03550 0.42990 0.59640 -0.13300
N 	N 	0.93400 0.51880 0.59500 -0.12400
O 	O 	0.16560 0.30030 0.98580 -0.53100
O 	O 	0.11370 0.31330 0.11000 -0.52500
O 	O 	0.35650 0.18890 0.04520 -0.50400
O 	O 	0.30900 0.20310 0.17110 -0.53300
O 	O 	0.63260 0.80910 0.13360 -0.58900
O 	O 	0.65110 0.83320 0.26150 -0.55200
O 	O 	0.20240 0.17360 0.93190 -0.50400
O 	O 	0.17190 0.19730 0.05800 -0.59500
O 	O 	0.30010 0.30040 0.09310 -0.58100
O 	O 	0.27460 0.32210 0.22080 -0.49400
O 	O 	0.67720 0.66770 0.08930 -0.52800
O 	O 	0.61590 0.69860 0.20570 -0.58400
O 	O 	0.66560 0.69970 0.51420 -0.52900
O 	O 	0.61370 0.68670 0.39000 -0.52500
O 	O 	0.85650 0.81110 0.45480 -0.50500
O 	O 	0.80900 0.79690 0.32890 -0.53300
O 	O 	0.13260 0.19090 0.36640 -0.59000
O 	O 	0.15110 0.16680 0.23850 -0.55200
O 	O 	0.70240 0.82640 0.56810 -0.50400
O 	O 	0.67190 0.80270 0.44200 -0.59700
O 	O 	0.80010 0.69960 0.40690 -0.58100
O 	O 	0.77460 0.67790 0.27920 -0.49400
O 	O 	0.17720 0.33230 0.41070 -0.52800
O 	O 	0.11590 0.30140 0.29430 -0.58400
O 	O 	0.83440 0.69970 0.01420 -0.53100
O 	O 	0.88630 0.68670 0.89000 -0.52500
O 	O 	0.64350 0.81110 0.95480 -0.50400
O 	O 	0.69100 0.79690 0.82890 -0.53300
O 	O 	0.36740 0.19090 0.86640 -0.58900
O 	O 	0.34890 0.16680 0.73850 -0.55200
O 	O 	0.79760 0.82640 0.06810 -0.50400
O 	O 	0.82810 0.80270 0.94200 -0.59500
O 	O 	0.69990 0.69960 0.90690 -0.58100
O 	O 	0.72540 0.67790 0.77920 -0.49400
O 	O 	0.32280 0.33230 0.91070 -0.52800
O 	O 	0.38410 0.30140 0.79430 -0.58400
O 	O 	0.33440 0.30030 0.48580 -0.52900
O 	O 	0.38630 0.31330 0.61000 -0.52500
O 	O 	0.14350 0.18890 0.54520 -0.50500
O 	O 	0.19100 0.20310 0.67110 -0.53300
O 	O 	0.86740 0.80910 0.63360 -0.59000
O 	O 	0.84890 0.83320 0.76150 -0.55200
O 	O 	0.29760 0.17360 0.43190 -0.50400
O 	O 	0.32810 0.19730 0.55800 -0.59700
O 	O 	0.19990 0.30040 0.59310 -0.58100
O 	O 	0.22540 0.32210 0.72080 -0.49400
O 	O 	0.82280 0.66770 0.58930 -0.52800
O 	O 	0.88410 0.69860 0.70570 -0.58400
