data_crystal

_cell_length_a 21.24590
_cell_length_b 21.24590
_cell_length_c 21.24590
_cell_angle_alpha 102.03300
_cell_angle_beta  102.03300
_cell_angle_gamma 102.03300

_symmetry_space_group_name_	'P 1'
_symmetry_space_group_name_H-M	'P 1'

loop_
_symmetry_equiv_pos_as_xyz
  x,y,z

loop_
_atom_site_label
_atom_site_type_symbol
_atom_site_fract_x
_atom_site_fract_y
_atom_site_fract_z
_atom_site_charge
Zn	Zn	0.67018 0.76066 0.76872 1.21000
Zn	Zn	0.76872 0.67018 0.76066 1.21000
Zn	Zn	0.32982 0.23128 0.23934 1.21100
Zn	Zn	0.36042 0.36042 0.36042 1.21900
Zn	Zn	0.76066 0.76872 0.67018 1.21100
Zn	Zn	0.23934 0.32982 0.23128 1.21100
Zn	Zn	0.23128 0.23934 0.32982 1.21100
Zn	Zn	0.63958 0.63958 0.63958 1.21900
H 	H 	0.40360 0.88800 0.36900 0.04400
H 	H 	0.42500 0.61600 0.58190 0.02100
H 	H 	0.51980 0.24290 0.24120 0.01900
H 	H 	0.59380 0.62860 0.22110 0.04000
H 	H 	0.58190 0.42500 0.61600 0.02100
H 	H 	0.23100 0.95250 0.38590 0.06600
H 	H 	0.14250 0.83520 0.69350 0.12100
H 	H 	0.63090 0.25460 0.23750 0.07900
H 	H 	0.74540 0.36910 0.76250 0.07900
H 	H 	0.36910 0.76250 0.74540 0.07900
H 	H 	0.38400 0.57500 0.41810 0.02100
H 	H 	0.59640 0.63100 0.11200 0.04400
H 	H 	0.67980 0.34780 0.05730 0.04000
H 	H 	0.30650 0.16480 0.85750 0.12100
H 	H 	0.38590 0.23100 0.95250 0.06600
H 	H 	0.95250 0.38590 0.23100 0.06600
H 	H 	0.61600 0.58190 0.42500 0.02100
H 	H 	0.61960 0.57010 0.31380 0.08000
H 	H 	0.23440 0.05460 0.80880 0.03800
H 	H 	0.80880 0.23440 0.05460 0.03800
H 	H 	0.95010 0.28760 0.37520 0.06600
H 	H 	0.62860 0.22110 0.59380 0.04000
H 	H 	0.24120 0.51980 0.24290 0.01900
H 	H 	0.68050 0.32030 0.83180 0.12200
H 	H 	0.83520 0.69350 0.14250 0.12100
H 	H 	0.32020 0.94270 0.65220 0.04000
H 	H 	0.34780 0.05730 0.67980 0.04000
H 	H 	0.94270 0.65220 0.32020 0.04000
H 	H 	0.94540 0.76560 0.19120 0.03800
H 	H 	0.42990 0.38040 0.68620 0.08000
H 	H 	0.88800 0.36900 0.40360 0.04400
H 	H 	0.61410 0.04750 0.76900 0.06600
H 	H 	0.36900 0.40360 0.88800 0.04400
H 	H 	0.19120 0.94540 0.76560 0.03800
H 	H 	0.63320 0.94430 0.77630 0.03500
H 	H 	0.37520 0.95010 0.28760 0.06600
H 	H 	0.22110 0.59380 0.62860 0.04000
H 	H 	0.57010 0.31380 0.61960 0.08000
H 	H 	0.36680 0.22370 0.05570 0.03500
H 	H 	0.94660 0.63210 0.73130 0.03800
H 	H 	0.40620 0.77890 0.37140 0.04000
H 	H 	0.16480 0.85750 0.30650 0.12100
H 	H 	0.22370 0.05570 0.36680 0.03500
H 	H 	0.94430 0.77630 0.63320 0.03500
H 	H 	0.23750 0.63090 0.25460 0.07900
H 	H 	0.26870 0.36790 0.05340 0.03800
H 	H 	0.41810 0.38400 0.57500 0.02100
H 	H 	0.25460 0.23750 0.63090 0.07900
H 	H 	0.57500 0.41810 0.38400 0.02100
H 	H 	0.11200 0.59640 0.63100 0.04400
H 	H 	0.16820 0.67970 0.31950 0.12200
H 	H 	0.38040 0.68620 0.42990 0.08000
H 	H 	0.85750 0.30650 0.16480 0.12100
H 	H 	0.67970 0.31950 0.16820 0.12200
H 	H 	0.04990 0.62480 0.71240 0.06600
H 	H 	0.24290 0.24120 0.51980 0.01900
H 	H 	0.63210 0.73130 0.94660 0.03800
H 	H 	0.83180 0.68050 0.32030 0.12200
H 	H 	0.63100 0.11200 0.59640 0.04400
H 	H 	0.76560 0.19120 0.94540 0.03800
H 	H 	0.48020 0.75880 0.75710 0.01900
H 	H 	0.37140 0.40620 0.77890 0.04000
H 	H 	0.76250 0.74540 0.36910 0.07900
H 	H 	0.05340 0.26870 0.36790 0.03800
H 	H 	0.73130 0.94660 0.63210 0.03800
H 	H 	0.05460 0.80880 0.23440 0.03800
H 	H 	0.68620 0.42990 0.38040 0.08000
H 	H 	0.77630 0.63320 0.94430 0.03500
H 	H 	0.32030 0.83180 0.68050 0.12200
H 	H 	0.31950 0.16820 0.67970 0.12200
H 	H 	0.05730 0.67980 0.34780 0.04000
H 	H 	0.75880 0.75710 0.48020 0.01900
H 	H 	0.77890 0.37140 0.40620 0.04000
H 	H 	0.75710 0.48020 0.75880 0.01900
H 	H 	0.69350 0.14250 0.83520 0.12100
H 	H 	0.04750 0.76900 0.61410 0.06600
H 	H 	0.65220 0.32020 0.94270 0.04000
H 	H 	0.62480 0.71240 0.04990 0.06600
H 	H 	0.31380 0.61960 0.57010 0.08000
H 	H 	0.28760 0.37520 0.95010 0.06600
H 	H 	0.76900 0.61410 0.04750 0.06600
H 	H 	0.05570 0.36680 0.22370 0.03500
H 	H 	0.36790 0.05340 0.26870 0.03800
H 	H 	0.71240 0.04990 0.62480 0.06600
C 	C 	0.24460 0.75540 0.67120 0.06800
C 	C 	0.68310 0.30080 0.96570 -0.03600
C 	C 	0.85430 0.35880 0.36320 -0.04500
C 	C 	0.69320 0.23770 0.85670 0.14300
C 	C 	0.31300 0.53700 0.32940 -0.15600
C 	C 	0.75690 0.67270 0.17980 0.05800
C 	C 	0.74130 0.63800 0.02700 -0.11000
C 	C 	0.68610 0.68190 0.53570 0.45300
C 	C 	0.31810 0.31390 0.46430 0.45300
C 	C 	0.67060 0.46300 0.68700 -0.15600
C 	C 	0.96570 0.74550 0.64920 0.02300
C 	C 	0.38490 0.35420 0.58640 0.07400
C 	C 	0.64800 0.60810 0.34760 -0.14400
C 	C 	0.32730 0.24310 0.82020 0.05800
C 	C 	0.76230 0.30680 0.14330 0.14300
C 	C 	0.66900 0.34330 0.30870 0.09400
C 	C 	0.38050 0.73270 0.71220 -0.14300
C 	C 	0.64920 0.96570 0.74550 0.02300
C 	C 	0.75540 0.67120 0.24460 0.06800
C 	C 	0.69960 0.86770 0.70610 0.31600
C 	C 	0.35080 0.25450 0.03430 0.02300
C 	C 	0.67270 0.17980 0.75690 0.05800
C 	C 	0.70760 0.96710 0.65990 0.01800
C 	C 	0.32880 0.24460 0.75540 0.06800
C 	C 	0.34760 0.64800 0.60810 -0.14400
C 	C 	0.24310 0.82020 0.32730 0.05800
C 	C 	0.41360 0.64580 0.61510 0.07400
C 	C 	0.02840 0.65550 0.69630 -0.10700
C 	C 	0.05840 0.69630 0.66150 0.06500
C 	C 	0.96570 0.68310 0.30080 -0.03600
C 	C 	0.93580 0.70490 0.68400 -0.08100
C 	C 	0.67120 0.24460 0.75540 0.06800
C 	C 	0.74550 0.64920 0.96570 0.02300
C 	C 	0.26000 0.69460 0.65480 -0.05500
C 	C 	0.68400 0.93580 0.70490 -0.08100
C 	C 	0.58640 0.38490 0.35420 0.07400
C 	C 	0.13040 0.69770 0.65770 -0.03800
C 	C 	0.74000 0.34520 0.30540 -0.05500
C 	C 	0.96710 0.65990 0.70760 0.01800
C 	C 	0.34330 0.30870 0.66900 0.09400
C 	C 	0.14570 0.63680 0.64120 -0.04500
C 	C 	0.03200 0.77240 0.24780 -0.03500
C 	C 	0.44650 0.73050 0.71920 0.07100
C 	C 	0.39190 0.35200 0.65240 -0.14400
C 	C 	0.31390 0.46430 0.31810 0.45300
C 	C 	0.14330 0.76230 0.30680 0.14300
C 	C 	0.65670 0.33100 0.69130 0.09400
C 	C 	0.33850 0.30370 0.94160 0.06500
C 	C 	0.65770 0.13040 0.69770 -0.03800
C 	C 	0.74180 0.28970 0.06990 -0.03600
C 	C 	0.30540 0.74000 0.34520 -0.05500
C 	C 	0.93010 0.71030 0.25820 -0.03600
C 	C 	0.25450 0.03430 0.35080 0.02300
C 	C 	0.70610 0.69960 0.86770 0.31600
C 	C 	0.17980 0.75690 0.67270 0.05800
C 	C 	0.36320 0.85430 0.35880 -0.04500
C 	C 	0.26950 0.55350 0.28080 0.07100
C 	C 	0.25870 0.97300 0.36200 -0.11000
C 	C 	0.36200 0.25870 0.97300 -0.11000
C 	C 	0.53570 0.68610 0.68190 0.45300
C 	C 	0.36020 0.36460 0.78940 -0.03000
C 	C 	0.29390 0.13230 0.30040 0.31600
C 	C 	0.53700 0.32940 0.31300 -0.15600
C 	C 	0.94160 0.33850 0.30370 0.06500
C 	C 	0.24780 0.03200 0.77240 -0.03500
C 	C 	0.60810 0.34760 0.64800 -0.14400
C 	C 	0.69460 0.65480 0.26000 -0.05500
C 	C 	0.13230 0.30040 0.29390 0.31600
C 	C 	0.30370 0.94160 0.33850 0.06500
C 	C 	0.02700 0.74130 0.63800 -0.11000
C 	C 	0.30040 0.29390 0.13230 0.31600
C 	C 	0.35420 0.58640 0.38490 0.07400
C 	C 	0.69630 0.02840 0.65550 -0.10700
C 	C 	0.30680 0.14330 0.76230 0.14300
C 	C 	0.28080 0.26950 0.55350 0.07100
C 	C 	0.03430 0.35080 0.25450 0.02300
C 	C 	0.68700 0.67060 0.46300 -0.15600
C 	C 	0.46430 0.31810 0.31390 0.45300
C 	C 	0.73050 0.71920 0.44650 0.07100
C 	C 	0.64580 0.61510 0.41360 0.07400
C 	C 	0.63680 0.64120 0.14570 -0.04500
C 	C 	0.21060 0.63540 0.63980 -0.03000
C 	C 	0.61510 0.41360 0.64580 0.07400
C 	C 	0.96800 0.75220 0.22760 -0.03500
C 	C 	0.29240 0.34010 0.03290 0.01800
C 	C 	0.22760 0.96800 0.75220 -0.03500
C 	C 	0.66150 0.05840 0.69630 0.06500
C 	C 	0.65480 0.26000 0.69460 -0.05500
C 	C 	0.25820 0.93010 0.71030 -0.03600
C 	C 	0.23770 0.85670 0.69320 0.14300
C 	C 	0.03290 0.29240 0.34010 0.01800
C 	C 	0.30870 0.66900 0.34330 0.09400
C 	C 	0.86960 0.34230 0.30230 -0.03800
C 	C 	0.69130 0.65670 0.33100 0.09400
C 	C 	0.30370 0.34450 0.97160 -0.10700
C 	C 	0.64120 0.14570 0.63680 -0.04500
C 	C 	0.69630 0.66150 0.05840 0.06500
C 	C 	0.34450 0.97160 0.30370 -0.10700
C 	C 	0.32940 0.31300 0.53700 -0.15600
C 	C 	0.73270 0.71220 0.38050 -0.14300
C 	C 	0.69770 0.65770 0.13040 -0.03800
C 	C 	0.55350 0.28080 0.26950 0.07100
C 	C 	0.61950 0.28780 0.26730 -0.14300
C 	C 	0.70490 0.68400 0.93580 -0.08100
C 	C 	0.46300 0.68700 0.67060 -0.15600
C 	C 	0.85670 0.69320 0.23770 0.14300
C 	C 	0.33100 0.69130 0.65670 0.09400
C 	C 	0.30080 0.96570 0.68310 -0.03600
C 	C 	0.71030 0.25820 0.93010 -0.03600
C 	C 	0.63800 0.02700 0.74130 -0.11000
C 	C 	0.97300 0.36200 0.25870 -0.11000
C 	C 	0.36460 0.78940 0.36020 -0.03000
C 	C 	0.65550 0.69630 0.02840 -0.10700
C 	C 	0.78940 0.36020 0.36460 -0.03000
C 	C 	0.63980 0.21060 0.63540 -0.03000
C 	C 	0.06420 0.31600 0.29510 -0.08100
C 	C 	0.34520 0.30540 0.74000 -0.05500
C 	C 	0.63540 0.63980 0.21060 -0.03000
C 	C 	0.34010 0.03290 0.29240 0.01800
C 	C 	0.82020 0.32730 0.24310 0.05800
C 	C 	0.77240 0.24780 0.03200 -0.03500
C 	C 	0.69920 0.31690 0.03430 -0.03600
C 	C 	0.75220 0.22760 0.96800 -0.03500
C 	C 	0.71920 0.44650 0.73050 0.07100
C 	C 	0.29510 0.06420 0.31600 -0.08100
C 	C 	0.65240 0.39190 0.35200 -0.14400
C 	C 	0.35200 0.65240 0.39190 -0.14400
C 	C 	0.31690 0.03430 0.69920 -0.03600
C 	C 	0.97160 0.30370 0.34450 -0.10700
C 	C 	0.86770 0.70610 0.69960 0.31600
C 	C 	0.24460 0.75540 0.32880 0.06800
C 	C 	0.28780 0.26730 0.61950 -0.14300
C 	C 	0.71220 0.38050 0.73270 -0.14300
C 	C 	0.68190 0.53570 0.68610 0.45300
C 	C 	0.26730 0.61950 0.28780 -0.14300
C 	C 	0.03430 0.69920 0.31690 -0.03600
C 	C 	0.65990 0.70760 0.96710 0.01800
C 	C 	0.35880 0.36320 0.85430 -0.04500
C 	C 	0.06990 0.74180 0.28970 -0.03600
C 	C 	0.30230 0.86960 0.34230 -0.03800
C 	C 	0.28970 0.06990 0.74180 -0.03600
C 	C 	0.31600 0.29510 0.06420 -0.08100
C 	C 	0.75540 0.32880 0.24460 0.06800
C 	C 	0.34230 0.30230 0.86960 -0.03800
N 	N 	0.17940 0.82270 0.31200 -0.21600
N 	N 	0.17730 0.82060 0.68800 -0.21600
N 	N 	0.68140 0.27850 0.81810 -0.21700
N 	N 	0.31200 0.17940 0.82270 -0.21600
N 	N 	0.68800 0.17730 0.82060 -0.21600
N 	N 	0.72150 0.31860 0.18190 -0.21700
N 	N 	0.27850 0.81810 0.68140 -0.21700
N 	N 	0.82060 0.68800 0.17730 -0.21600
N 	N 	0.82270 0.31200 0.17940 -0.21600
N 	N 	0.31860 0.18190 0.72150 -0.21700
N 	N 	0.18190 0.72150 0.31860 -0.21700
N 	N 	0.81810 0.68140 0.27850 -0.21700
O 	O 	0.75580 0.67660 0.84790 -0.48600
O 	O 	0.42670 0.26640 0.27960 -0.53300
O 	O 	0.27960 0.42670 0.26640 -0.53300
O 	O 	0.45060 0.36510 0.34990 -0.50600
O 	O 	0.25900 0.32230 0.14890 -0.51300
O 	O 	0.65010 0.63490 0.54940 -0.50600
O 	O 	0.72040 0.73360 0.57330 -0.53300
O 	O 	0.14890 0.25900 0.32230 -0.51300
O 	O 	0.34990 0.45060 0.36510 -0.50600
O 	O 	0.54940 0.65010 0.63490 -0.50600
O 	O 	0.67770 0.74100 0.85110 -0.51300
O 	O 	0.57330 0.72040 0.73360 -0.53300
O 	O 	0.73360 0.57330 0.72040 -0.53300
O 	O 	0.36510 0.34990 0.45060 -0.50600
O 	O 	0.84790 0.75580 0.67660 -0.48600
O 	O 	0.15210 0.32340 0.24420 -0.48600
O 	O 	0.32340 0.24420 0.15210 -0.48600
O 	O 	0.63490 0.54940 0.65010 -0.50600
O 	O 	0.67660 0.84790 0.75580 -0.48600
O 	O 	0.74100 0.85110 0.67770 -0.51300
O 	O 	0.70777 0.70777 0.70777 -0.96600
O 	O 	0.24420 0.15210 0.32340 -0.48600
O 	O 	0.29223 0.29223 0.29223 -0.96600
O 	O 	0.26640 0.27960 0.42670 -0.53300
O 	O 	0.32230 0.14890 0.25900 -0.51300
O 	O 	0.85110 0.67770 0.74100 -0.51300
