data_crystal

_cell_length_a 12.15800
_cell_length_b 10.94300
_cell_length_c 16.94400
_cell_angle_alpha 90.00000
_cell_angle_beta  93.54800
_cell_angle_gamma 90.00000

_symmetry_space_group_name_	'P 1'
_symmetry_space_group_name_H-M	'P 1'

loop_
_symmetry_equiv_pos_as_xyz
  x,y,z

loop_
_atom_site_label
_atom_site_type_symbol
_atom_site_fract_x
_atom_site_fract_y
_atom_site_fract_z
_atom_site_charge
Pt	Pt	0.00956 0.94740 0.16827 0.40300
O 	O 	0.87380 0.07920 0.31119 -0.21400
O 	O 	0.14940 0.07820 0.01203 -0.30300
O 	O 	0.94870 0.16700 0.02778 -0.27300
O 	O 	0.22530 0.25890 0.03920 -0.27700
O 	O 	0.01530 0.34630 0.06810 -0.27000
N 	N 	0.89310 0.07360 0.17860 -0.18400
N 	N 	0.12000 0.81530 0.14720 -0.16300
N 	N 	0.90540 0.80580 0.15200 -0.17800
C 	C 	0.22620 0.83390 0.13700 0.08200
C 	C 	0.29310 0.74040 0.11380 -0.14400
C 	C 	0.24870 0.62440 0.10210 0.04000
C 	C 	0.13890 0.60560 0.11170 -0.12800
C 	C 	0.07490 0.70290 0.13360 0.04000
C 	C 	0.95530 0.69630 0.13930 0.10800
C 	C 	0.89310 0.59100 0.12990 -0.18000
C 	C 	0.78110 0.59820 0.13360 0.09600
C 	C 	0.73210 0.70920 0.14710 -0.17600
C 	C 	0.79590 0.81110 0.15530 0.11300
C 	C 	0.84790 0.11620 0.23980 -0.13800
C 	C 	0.75820 0.21310 0.23130 1.06100
C 	C 	0.66140 0.17120 0.27670 -1.58900
C 	C 	0.80560 0.33300 0.26600 -1.59800
C 	C 	0.71990 0.23540 0.14410 -1.57500
C 	C 	0.14520 0.19260 0.03190 0.21900
C 	C 	0.02970 0.24240 0.04520 0.18100
H 	H 	0.86870 0.10520 0.13450 0.10000
H 	H 	0.25600 0.91140 0.14560 0.00200
H 	H 	0.36710 0.75480 0.10620 0.05700
H 	H 	0.29320 0.56000 0.08780 -0.00500
H 	H 	0.10790 0.52860 0.10360 0.07600
H 	H 	0.92690 0.51640 0.12130 0.09900
H 	H 	0.73810 0.52820 0.12690 -0.03700
H 	H 	0.65630 0.71440 0.15050 0.07300
H 	H 	0.76250 0.88610 0.16340 -0.01500
H 	H 	0.63460 0.09450 0.25580 0.47200
H 	H 	0.60360 0.23100 0.27150 0.46300
H 	H 	0.68460 0.16150 0.33150 0.50900
H 	H 	0.75160 0.39670 0.25880 0.49400
H 	H 	0.87040 0.35490 0.23960 0.50600
H 	H 	0.82450 0.32240 0.32150 0.52300
H 	H 	0.69370 0.16020 0.12070 0.47800
H 	H 	0.78070 0.26530 0.11610 0.50400
H 	H 	0.66170 0.29470 0.14130 0.47400
Pt	Pt	0.99044 0.94740 0.33173 0.44200
O 	O 	0.12620 0.07920 0.18881 -0.22200
O 	O 	0.85060 0.07820 0.48797 -0.28700
O 	O 	0.05130 0.16700 0.47222 -0.31300
O 	O 	0.77470 0.25890 0.46080 -0.26800
O 	O 	0.98470 0.34630 0.43190 -0.25900
N 	N 	0.10690 0.07360 0.32140 -0.19900
N 	N 	0.88000 0.81530 0.35280 -0.17300
N 	N 	0.09460 0.80580 0.34800 -0.17600
C 	C 	0.77380 0.83390 0.36300 0.09700
C 	C 	0.70690 0.74040 0.38620 -0.16300
C 	C 	0.75130 0.62440 0.39790 0.07000
C 	C 	0.86110 0.60560 0.38830 -0.16300
C 	C 	0.92510 0.70290 0.36640 0.10400
C 	C 	0.04470 0.69630 0.36070 0.04500
C 	C 	0.10690 0.59100 0.37010 -0.13500
C 	C 	0.21890 0.59820 0.36640 0.06400
C 	C 	0.26790 0.70920 0.35290 -0.15100
C 	C 	0.20410 0.81110 0.34470 0.10200
C 	C 	0.15210 0.11620 0.26020 -0.13800
C 	C 	0.24180 0.21310 0.26870 1.04900
C 	C 	0.33860 0.17120 0.22330 -1.57400
C 	C 	0.19440 0.33300 0.23400 -1.57600
C 	C 	0.28010 0.23540 0.35590 -1.56400
C 	C 	0.85480 0.19260 0.46810 0.20800
C 	C 	0.97030 0.24240 0.45480 0.23400
H 	H 	0.13130 0.10520 0.36550 0.09800
H 	H 	0.74400 0.91140 0.35440 -0.00300
H 	H 	0.63290 0.75480 0.39380 0.06600
H 	H 	0.70680 0.56000 0.41220 -0.01300
H 	H 	0.89210 0.52860 0.39640 0.10000
H 	H 	0.07310 0.51640 0.37870 0.07100
H 	H 	0.26190 0.52820 0.37310 -0.02400
H 	H 	0.34370 0.71440 0.34950 0.06600
H 	H 	0.23750 0.88610 0.33660 -0.01000
H 	H 	0.36540 0.09450 0.24420 0.46800
H 	H 	0.39640 0.23100 0.22850 0.45800
H 	H 	0.31540 0.16150 0.16850 0.50300
H 	H 	0.24840 0.39670 0.24120 0.48700
H 	H 	0.12960 0.35490 0.26040 0.49000
H 	H 	0.17550 0.32240 0.17850 0.51400
H 	H 	0.30630 0.16020 0.37930 0.47700
H 	H 	0.21930 0.26530 0.38390 0.50000
H 	H 	0.33830 0.29470 0.35870 0.47200
Pt	Pt	0.99044 0.05260 0.83173 0.39700
O 	O 	0.12620 0.92080 0.68881 -0.18700
O 	O 	0.85060 0.92180 0.98797 -0.25200
O 	O 	0.05130 0.83300 0.97222 -0.28600
O 	O 	0.77470 0.74110 0.96080 -0.26000
O 	O 	0.98470 0.65370 0.93190 -0.25600
N 	N 	0.10690 0.92640 0.82140 -0.17200
N 	N 	0.88000 0.18470 0.85280 -0.17500
N 	N 	0.09460 0.19420 0.84800 -0.17800
C 	C 	0.77380 0.16610 0.86300 0.09800
C 	C 	0.70690 0.25960 0.88620 -0.16700
C 	C 	0.75130 0.37560 0.89790 0.07300
C 	C 	0.86110 0.39440 0.88830 -0.16300
C 	C 	0.92510 0.29710 0.86640 0.10600
C 	C 	0.04470 0.30370 0.86070 0.04800
C 	C 	0.10690 0.40900 0.87010 -0.13600
C 	C 	0.21890 0.40180 0.86640 0.06900
C 	C 	0.26790 0.29080 0.85290 -0.15600
C 	C 	0.20410 0.18890 0.84470 0.10700
C 	C 	0.15210 0.88380 0.76020 -0.15200
C 	C 	0.24180 0.78690 0.76870 1.10400
C 	C 	0.33860 0.82880 0.72330 -1.65700
C 	C 	0.19440 0.66700 0.73400 -1.63300
C 	C 	0.28010 0.76460 0.85590 -1.64100
C 	C 	0.85480 0.80740 0.96810 0.20700
C 	C 	0.97030 0.75760 0.95480 0.23000
H 	H 	0.13130 0.89480 0.86550 0.10500
H 	H 	0.74400 0.08860 0.85440 -0.02400
H 	H 	0.63290 0.24520 0.89380 0.06300
H 	H 	0.70680 0.44000 0.91220 -0.01200
H 	H 	0.89210 0.47140 0.89640 0.10100
H 	H 	0.07310 0.48360 0.87870 0.07300
H 	H 	0.26190 0.47180 0.87310 -0.02500
H 	H 	0.34370 0.28560 0.84950 0.06400
H 	H 	0.23750 0.11390 0.83660 -0.02800
H 	H 	0.36540 0.90550 0.74420 0.50800
H 	H 	0.39640 0.76900 0.72850 0.48500
H 	H 	0.31540 0.83850 0.66850 0.53600
H 	H 	0.24840 0.60330 0.74120 0.50300
H 	H 	0.12960 0.64510 0.76040 0.50700
H 	H 	0.17550 0.67760 0.67850 0.53100
H 	H 	0.30630 0.83980 0.87930 0.51300
H 	H 	0.21930 0.73470 0.88390 0.52600
H 	H 	0.33830 0.70530 0.85870 0.49800
Pt	Pt	0.00956 0.05260 0.66827 0.35100
O 	O 	0.87380 0.92080 0.81119 -0.18400
O 	O 	0.14940 0.92180 0.51203 -0.26900
O 	O 	0.94870 0.83300 0.52778 -0.26100
O 	O 	0.22530 0.74110 0.53920 -0.26700
O 	O 	0.01530 0.65370 0.56810 -0.26800
N 	N 	0.89310 0.92640 0.67860 -0.16100
N 	N 	0.12000 0.18470 0.64720 -0.16600
N 	N 	0.90540 0.19420 0.65200 -0.17800
C 	C 	0.22620 0.16610 0.63700 0.08400
C 	C 	0.29310 0.25960 0.61380 -0.14800
C 	C 	0.24870 0.37560 0.60210 0.04300
C 	C 	0.13890 0.39440 0.61170 -0.12700
C 	C 	0.07490 0.29710 0.63360 0.04200
C 	C 	0.95530 0.30370 0.63930 0.11100
C 	C 	0.89310 0.40900 0.62990 -0.18000
C 	C 	0.78110 0.40180 0.63360 0.09900
C 	C 	0.73210 0.29080 0.64710 -0.17900
C 	C 	0.79590 0.18890 0.65530 0.11800
C 	C 	0.84790 0.88380 0.73980 -0.15100
C 	C 	0.75820 0.78690 0.73130 1.11300
C 	C 	0.66140 0.82880 0.77670 -1.66700
C 	C 	0.80560 0.66700 0.76600 -1.65000
C 	C 	0.71990 0.76460 0.64410 -1.64600
C 	C 	0.14520 0.80740 0.53190 0.21400
C 	C 	0.02970 0.75760 0.54520 0.18800
H 	H 	0.86870 0.89480 0.63450 0.10400
H 	H 	0.25600 0.08860 0.64560 -0.02000
H 	H 	0.36710 0.24520 0.60620 0.05400
H 	H 	0.29320 0.44000 0.58780 -0.00400
H 	H 	0.10790 0.47140 0.60360 0.07800
H 	H 	0.92690 0.48360 0.62130 0.10000
H 	H 	0.73810 0.47180 0.62690 -0.03700
H 	H 	0.65630 0.28560 0.65050 0.07100
H 	H 	0.76250 0.11390 0.66340 -0.03200
H 	H 	0.63460 0.90550 0.75580 0.51000
H 	H 	0.60360 0.76900 0.77150 0.48800
H 	H 	0.68460 0.83850 0.83150 0.54000
H 	H 	0.75160 0.60330 0.75880 0.50900
H 	H 	0.87040 0.64510 0.73960 0.52000
H 	H 	0.82450 0.67760 0.82150 0.53800
H 	H 	0.69370 0.83980 0.62070 0.51200
H 	H 	0.78070 0.73470 0.61610 0.52800
H 	H 	0.66170 0.70530 0.64130 0.49800
Pt	Pt	-0.00000 0.00000 -0.00000 0.38700
Pt	Pt	0.00000 0.00000 0.50000 0.40300
