data_crystal

_cell_length_a 18.71990
_cell_length_b 9.69010
_cell_length_c 23.74540
_cell_angle_alpha 90.00000
_cell_angle_beta  101.18500
_cell_angle_gamma 90.00000

_symmetry_space_group_name_	'P 1'
_symmetry_space_group_name_H-M	'P 1'

loop_
_symmetry_equiv_pos_as_xyz
  x,y,z

loop_
_atom_site_label
_atom_site_type_symbol
_atom_site_fract_x
_atom_site_fract_y
_atom_site_fract_z
_atom_site_charge
Pt	Pt	0.66401 0.81175 0.96874 0.37200
Pt	Pt	0.82723 0.81373 0.97813 0.37200
N 	N 	0.69060 0.97440 0.02220 -0.20200
N 	N 	0.81120 0.98860 0.02009 -0.20000
H 	H 	0.84960 0.04240 0.02920 0.07900
N 	N 	0.67560 0.93220 0.90196 -0.20900
N 	N 	0.79601 0.91180 0.90178 -0.20900
H 	H 	0.82940 0.92170 0.88060 0.08200
H 	H 	0.65570 0.00890 0.03800 0.08100
H 	H 	0.63520 0.97170 0.88400 0.08600
N 	N 	0.62950 0.64530 0.92128 -0.17100
N 	N 	0.64180 0.68750 0.03069 -0.17100
N 	N 	0.85470 0.64120 0.94197 -0.17100
N 	N 	0.86620 0.70710 0.04885 -0.17300
C 	C 	0.62440 0.63390 0.86380 0.05600
H 	H 	0.64030 0.70800 0.84310 -0.00800
C 	C 	0.59660 0.51690 0.83500 -0.12900
H 	H 	0.59400 0.51100 0.79470 0.04800
C 	C 	0.84700 0.61750 0.88470 0.05500
H 	H 	0.82290 0.68430 0.85840 -0.01200
C 	C 	0.87300 0.49980 0.86380 -0.13000
H 	H 	0.86810 0.48650 0.82360 0.04600
C 	C 	0.90630 0.40130 0.90140 0.02800
H 	H 	0.92390 0.31850 0.88760 0.00000
C 	C 	0.91370 0.42420 0.95940 -0.12000
H 	H 	0.93650 0.35680 0.98600 0.05100
C 	C 	0.88810 0.54500 0.97900 0.05000
C 	C 	0.89370 0.58100 0.04000 0.05300
C 	C 	0.92400 0.49600 0.08500 -0.12400
H 	H 	0.94300 0.40830 0.07780 0.05300
C 	C 	0.57280 0.40960 0.86320 0.02900
H 	H 	0.55310 0.32920 0.84300 -0.00600
C 	C 	0.57800 0.42040 0.92200 -0.12100
H 	H 	0.56260 0.34630 0.94300 0.05200
C 	C 	0.60580 0.54040 0.95020 0.05100
C 	C 	0.61180 0.56350 0.01230 0.04900
C 	C 	0.58880 0.47190 0.04910 -0.12100
H 	H 	0.56670 0.38710 0.03520 0.05300
C 	C 	0.59850 0.50520 0.10680 0.02600
H 	H 	0.58390 0.44260 0.13320 0.00400
C 	C 	0.86840 0.74860 0.10290 0.06000
H 	H 	0.84890 0.83630 0.10970 -0.00800
C 	C 	0.89840 0.66650 0.14950 -0.13100
H 	H 	0.89940 0.69810 0.18750 0.05300
C 	C 	0.92640 0.54020 0.14030 0.03200
H 	H 	0.94730 0.48350 0.17190 -0.00300
C 	C 	0.75160 0.28570 0.02850 -0.82700
H 	H 	0.75470 0.37350 0.04930 0.26400
H 	H 	0.70440 0.27930 0.00220 0.25600
H 	H 	0.79080 0.28070 0.00650 0.25500
C 	C 	0.70020 0.17220 0.10700 -0.81400
H 	H 	0.70380 0.09050 0.13170 0.24400
H 	H 	0.65230 0.17400 0.08150 0.24400
H 	H 	0.70640 0.25550 0.13080 0.24800
C 	C 	0.72900 0.05510 0.82960 0.44800
C 	C 	0.65180 0.09560 0.80270 -0.75900
H 	H 	0.62380 0.01270 0.78900 0.22800
H 	H 	0.65250 0.15810 0.77040 0.22900
H 	H 	0.62910 0.14220 0.83140 0.22900
C 	C 	0.76490 0.98220 0.78510 -0.72900
H 	H 	0.74020 0.89430 0.77430 0.21600
H 	H 	0.81630 0.96490 0.80150 0.21600
H 	H 	0.76130 0.04080 0.75100 0.21900
C 	C 	0.77400 0.18610 0.85180 -0.72500
H 	H 	0.78210 0.24130 0.81910 0.21900
H 	H 	0.82100 0.15820 0.87490 0.22300
H 	H 	0.74710 0.24100 0.87550 0.22500
C 	C 	0.73290 0.96060 0.88130 -0.00400
C 	C 	0.75360 0.03250 0.03540 -0.02500
C 	C 	0.75930 0.16650 0.07120 0.52100
C 	C 	0.65020 0.72000 0.08620 0.05600
H 	H 	0.67090 0.80650 0.09920 -0.00700
C 	C 	0.62920 0.62930 0.12540 -0.12500
H 	H 	0.63610 0.65330 0.16490 0.05100
C 	C 	0.83280 0.17670 0.11140 -0.80600
H 	H 	0.83340 0.25750 0.13630 0.24600
H 	H 	0.87120 0.18590 0.08880 0.24100
H 	H 	0.84130 0.09310 0.13500 0.24300
Pt	Pt	0.83599 0.31175 0.53126 0.37100
Pt	Pt	0.67277 0.31373 0.52187 0.37200
N 	N 	0.80940 0.47440 0.47780 -0.20600
N 	N 	0.68880 0.48860 0.47991 -0.20500
H 	H 	0.65040 0.54240 0.47080 0.08000
N 	N 	0.82440 0.43220 0.59804 -0.20900
N 	N 	0.70399 0.41180 0.59822 -0.20900
H 	H 	0.67060 0.42170 0.61940 0.08100
H 	H 	0.84430 0.50890 0.46200 0.08300
H 	H 	0.86480 0.47170 0.61600 0.08600
N 	N 	0.87050 0.14530 0.57872 -0.17100
N 	N 	0.85820 0.18750 0.46931 -0.17000
N 	N 	0.64530 0.14120 0.55803 -0.17100
N 	N 	0.63380 0.20710 0.45115 -0.17300
C 	C 	0.87560 0.13390 0.63620 0.05700
H 	H 	0.85970 0.20800 0.65690 -0.00800
C 	C 	0.90340 0.01690 0.66500 -0.13300
H 	H 	0.90600 0.01100 0.70530 0.04900
C 	C 	0.65300 0.11750 0.61530 0.05300
H 	H 	0.67710 0.18430 0.64160 -0.01100
C 	C 	0.62700 0.99980 0.63620 -0.12800
H 	H 	0.63190 0.98650 0.67640 0.04500
C 	C 	0.59370 0.90130 0.59860 0.02700
H 	H 	0.57610 0.81850 0.61240 0.00100
C 	C 	0.58630 0.92420 0.54060 -0.11900
H 	H 	0.56350 0.85680 0.51400 0.05100
C 	C 	0.61190 0.04500 0.52100 0.05000
C 	C 	0.60630 0.08100 0.46000 0.05100
C 	C 	0.57600 0.99600 0.41500 -0.12300
H 	H 	0.55700 0.90830 0.42220 0.05300
C 	C 	0.92720 0.90960 0.63680 0.03200
H 	H 	0.94690 0.82920 0.65700 -0.00700
C 	C 	0.92200 0.92040 0.57800 -0.12100
H 	H 	0.93740 0.84630 0.55700 0.05300
C 	C 	0.89420 0.04040 0.54980 0.05100
C 	C 	0.88820 0.06350 0.48770 0.04500
C 	C 	0.91120 0.97190 0.45090 -0.11200
H 	H 	0.93330 0.88710 0.46480 0.05100
C 	C 	0.90150 0.00520 0.39320 0.01700
H 	H 	0.91610 0.94260 0.36680 0.00800
C 	C 	0.63160 0.24860 0.39710 0.05900
H 	H 	0.65110 0.33630 0.39030 -0.00800
C 	C 	0.60160 0.16650 0.35050 -0.13000
H 	H 	0.60060 0.19810 0.31250 0.05300
C 	C 	0.57360 0.04020 0.35970 0.03100
H 	H 	0.55270 0.98350 0.32810 -0.00300
C 	C 	0.74840 0.78570 0.47150 -0.82500
H 	H 	0.74530 0.87350 0.45070 0.26400
H 	H 	0.79560 0.77930 0.49780 0.25600
H 	H 	0.70920 0.78070 0.49350 0.25400
C 	C 	0.79980 0.67220 0.39300 -0.81300
H 	H 	0.79620 0.59050 0.36830 0.24400
H 	H 	0.84770 0.67400 0.41850 0.24400
H 	H 	0.79360 0.75550 0.36920 0.24800
C 	C 	0.77100 0.55510 0.67040 0.45400
C 	C 	0.84820 0.59560 0.69730 -0.76400
H 	H 	0.87620 0.51270 0.71100 0.23000
H 	H 	0.84750 0.65810 0.72960 0.23100
H 	H 	0.87090 0.64220 0.66860 0.23000
C 	C 	0.73510 0.48220 0.71490 -0.73700
H 	H 	0.75980 0.39430 0.72570 0.21800
H 	H 	0.68370 0.46490 0.69850 0.21900
H 	H 	0.73870 0.54080 0.74900 0.22200
C 	C 	0.72600 0.68610 0.64820 -0.72900
H 	H 	0.71790 0.74130 0.68090 0.22100
H 	H 	0.67900 0.65820 0.62510 0.22400
H 	H 	0.75290 0.74100 0.62450 0.22600
C 	C 	0.76710 0.46060 0.61870 -0.00600
C 	C 	0.74640 0.53250 0.46460 -0.02100
C 	C 	0.74070 0.66650 0.42880 0.51900
C 	C 	0.84980 0.22000 0.41380 0.05300
H 	H 	0.82910 0.30650 0.40080 -0.00700
C 	C 	0.87080 0.12930 0.37460 -0.11900
H 	H 	0.86390 0.15330 0.33510 0.04900
C 	C 	0.66720 0.67670 0.38860 -0.80500
H 	H 	0.66660 0.75750 0.36370 0.24500
H 	H 	0.62880 0.68590 0.41120 0.24100
H 	H 	0.65870 0.59310 0.36500 0.24300
Pt	Pt	0.33599 0.18825 0.03126 0.37100
Pt	Pt	0.17277 0.18627 0.02187 0.37100
N 	N 	0.30940 0.02560 0.97780 -0.20300
N 	N 	0.18880 0.01140 0.97991 -0.20100
H 	H 	0.15040 0.95760 0.97080 0.07800
N 	N 	0.32440 0.06780 0.09804 -0.21000
N 	N 	0.20399 0.08820 0.09822 -0.21000
H 	H 	0.17060 0.07830 0.11940 0.08100
H 	H 	0.34430 0.99110 0.96200 0.08100
H 	H 	0.36480 0.02830 0.11600 0.08600
N 	N 	0.37050 0.35470 0.07872 -0.17100
N 	N 	0.35820 0.31250 0.96931 -0.17100
N 	N 	0.14530 0.35880 0.05803 -0.17100
N 	N 	0.13380 0.29290 0.95115 -0.17300
C 	C 	0.37560 0.36610 0.13620 0.05600
H 	H 	0.35970 0.29200 0.15690 -0.00800
C 	C 	0.40340 0.48310 0.16500 -0.12900
H 	H 	0.40600 0.48900 0.20530 0.04800
C 	C 	0.15300 0.38250 0.11530 0.05500
H 	H 	0.17710 0.31570 0.14160 -0.01200
C 	C 	0.12700 0.50020 0.13620 -0.13000
H 	H 	0.13190 0.51350 0.17640 0.04600
C 	C 	0.09370 0.59870 0.09860 0.02800
H 	H 	0.07610 0.68150 0.11240 0.00000
C 	C 	0.08630 0.57580 0.04060 -0.12000
H 	H 	0.06350 0.64320 0.01400 0.05100
C 	C 	0.11190 0.45500 0.02100 0.05000
C 	C 	0.10630 0.41900 0.96000 0.05300
C 	C 	0.07600 0.50400 0.91500 -0.12400
H 	H 	0.05700 0.59170 0.92220 0.05300
C 	C 	0.42720 0.59040 0.13680 0.02900
H 	H 	0.44690 0.67080 0.15700 -0.00600
C 	C 	0.42200 0.57960 0.07800 -0.12100
H 	H 	0.43740 0.65370 0.05700 0.05200
C 	C 	0.39420 0.45960 0.04980 0.05100
C 	C 	0.38820 0.43650 0.98770 0.04900
C 	C 	0.41120 0.52810 0.95090 -0.12100
H 	H 	0.43330 0.61290 0.96480 0.05300
C 	C 	0.40150 0.49480 0.89320 0.02600
H 	H 	0.41610 0.55740 0.86680 0.00400
C 	C 	0.13160 0.25140 0.89710 0.06000
H 	H 	0.15110 0.16370 0.89030 -0.00800
C 	C 	0.10160 0.33350 0.85050 -0.13100
H 	H 	0.10060 0.30190 0.81250 0.05300
C 	C 	0.07360 0.45980 0.85970 0.03200
H 	H 	0.05270 0.51650 0.82810 -0.00300
C 	C 	0.24840 0.71430 0.97150 -0.82700
H 	H 	0.24530 0.62650 0.95070 0.26400
H 	H 	0.29560 0.72070 0.99780 0.25600
H 	H 	0.20920 0.71930 0.99350 0.25500
C 	C 	0.29980 0.82780 0.89300 -0.81400
H 	H 	0.29620 0.90950 0.86830 0.24400
H 	H 	0.34770 0.82600 0.91850 0.24400
H 	H 	0.29360 0.74450 0.86920 0.24800
C 	C 	0.27100 0.94490 0.17040 0.44800
C 	C 	0.34820 0.90440 0.19730 -0.75900
H 	H 	0.37620 0.98730 0.21100 0.22800
H 	H 	0.34750 0.84190 0.22960 0.22900
H 	H 	0.37090 0.85780 0.16860 0.22900
C 	C 	0.23510 0.01780 0.21490 -0.72900
H 	H 	0.25980 0.10570 0.22570 0.21600
H 	H 	0.18370 0.03510 0.19850 0.21600
H 	H 	0.23870 0.95920 0.24900 0.21900
C 	C 	0.22600 0.81390 0.14820 -0.72500
H 	H 	0.21790 0.75870 0.18090 0.21900
H 	H 	0.17900 0.84180 0.12510 0.22300
H 	H 	0.25290 0.75900 0.12450 0.22500
C 	C 	0.26710 0.03940 0.11870 -0.00400
C 	C 	0.24640 0.96750 0.96460 -0.02500
C 	C 	0.24070 0.83350 0.92880 0.52100
C 	C 	0.34980 0.28000 0.91380 0.05600
H 	H 	0.32910 0.19350 0.90080 -0.00700
C 	C 	0.37080 0.37070 0.87460 -0.12500
H 	H 	0.36390 0.34670 0.83510 0.05100
C 	C 	0.16720 0.82330 0.88860 -0.80600
H 	H 	0.16660 0.74250 0.86370 0.24600
H 	H 	0.12880 0.81410 0.91120 0.24100
H 	H 	0.15870 0.90690 0.86500 0.24300
Pt	Pt	0.16401 0.68825 0.46874 0.37100
Pt	Pt	0.32723 0.68627 0.47813 0.37200
N 	N 	0.19060 0.52560 0.52220 -0.20600
N 	N 	0.31120 0.51140 0.52009 -0.20500
H 	H 	0.34960 0.45760 0.52920 0.08000
N 	N 	0.17560 0.56780 0.40196 -0.20900
N 	N 	0.29601 0.58820 0.40178 -0.20900
H 	H 	0.32940 0.57830 0.38060 0.08100
H 	H 	0.15570 0.49110 0.53800 0.08300
H 	H 	0.13520 0.52830 0.38400 0.08600
N 	N 	0.12950 0.85470 0.42128 -0.17100
N 	N 	0.14180 0.81250 0.53069 -0.17000
N 	N 	0.35470 0.85880 0.44197 -0.17100
N 	N 	0.36620 0.79290 0.54885 -0.17300
C 	C 	0.12440 0.86610 0.36380 0.05700
H 	H 	0.14030 0.79200 0.34310 -0.00800
C 	C 	0.09660 0.98310 0.33500 -0.13300
H 	H 	0.09400 0.98900 0.29470 0.04900
C 	C 	0.34700 0.88250 0.38470 0.05300
H 	H 	0.32290 0.81570 0.35840 -0.01100
C 	C 	0.37300 0.00020 0.36380 -0.12800
H 	H 	0.36810 0.01350 0.32360 0.04500
C 	C 	0.40630 0.09870 0.40140 0.02700
H 	H 	0.42390 0.18150 0.38760 0.00100
C 	C 	0.41370 0.07580 0.45940 -0.11900
H 	H 	0.43650 0.14320 0.48600 0.05100
C 	C 	0.38810 0.95500 0.47900 0.05000
C 	C 	0.39370 0.91900 0.54000 0.05100
C 	C 	0.42400 0.00400 0.58500 -0.12300
H 	H 	0.44300 0.09170 0.57780 0.05300
C 	C 	0.07280 0.09040 0.36320 0.03200
H 	H 	0.05310 0.17080 0.34300 -0.00700
C 	C 	0.07800 0.07960 0.42200 -0.12100
H 	H 	0.06260 0.15370 0.44300 0.05300
C 	C 	0.10580 0.95960 0.45020 0.05100
C 	C 	0.11180 0.93650 0.51230 0.04500
C 	C 	0.08880 0.02810 0.54910 -0.11200
H 	H 	0.06670 0.11290 0.53520 0.05100
C 	C 	0.09850 0.99480 0.60680 0.01700
H 	H 	0.08390 0.05740 0.63320 0.00800
C 	C 	0.36840 0.75140 0.60290 0.05900
H 	H 	0.34890 0.66370 0.60970 -0.00800
C 	C 	0.39840 0.83350 0.64950 -0.13000
H 	H 	0.39940 0.80190 0.68750 0.05300
C 	C 	0.42640 0.95980 0.64030 0.03100
H 	H 	0.44730 0.01650 0.67190 -0.00300
C 	C 	0.25160 0.21430 0.52850 -0.82500
H 	H 	0.25470 0.12650 0.54930 0.26400
H 	H 	0.20440 0.22070 0.50220 0.25600
H 	H 	0.29080 0.21930 0.50650 0.25400
C 	C 	0.20020 0.32780 0.60700 -0.81300
H 	H 	0.20380 0.40950 0.63170 0.24400
H 	H 	0.15230 0.32600 0.58150 0.24400
H 	H 	0.20640 0.24450 0.63080 0.24800
C 	C 	0.22900 0.44490 0.32960 0.45400
C 	C 	0.15180 0.40440 0.30270 -0.76400
H 	H 	0.12380 0.48730 0.28900 0.23000
H 	H 	0.15250 0.34190 0.27040 0.23100
H 	H 	0.12910 0.35780 0.33140 0.23000
C 	C 	0.26490 0.51780 0.28510 -0.73700
H 	H 	0.24020 0.60570 0.27430 0.21800
H 	H 	0.31630 0.53510 0.30150 0.21900
H 	H 	0.26130 0.45920 0.25100 0.22200
C 	C 	0.27400 0.31390 0.35180 -0.72900
H 	H 	0.28210 0.25870 0.31910 0.22100
H 	H 	0.32100 0.34180 0.37490 0.22400
H 	H 	0.24710 0.25900 0.37550 0.22600
C 	C 	0.23290 0.53940 0.38130 -0.00600
C 	C 	0.25360 0.46750 0.53540 -0.02100
C 	C 	0.25930 0.33350 0.57120 0.51900
C 	C 	0.15020 0.78000 0.58620 0.05300
H 	H 	0.17090 0.69350 0.59920 -0.00700
C 	C 	0.12920 0.87070 0.62540 -0.11900
H 	H 	0.13610 0.84670 0.66490 0.04900
C 	C 	0.33280 0.32330 0.61140 -0.80500
H 	H 	0.33340 0.24250 0.63630 0.24500
H 	H 	0.37120 0.31410 0.58880 0.24100
H 	H 	0.34130 0.40690 0.63500 0.24300
