data_crystal

_cell_length_a 11.88190
_cell_length_b 5.55550
_cell_length_c 22.64110
_cell_angle_alpha 90.00000
_cell_angle_beta  101.30200
_cell_angle_gamma 90.00000

_symmetry_space_group_name_	'P 1'
_symmetry_space_group_name_H-M	'P 1'

loop_
_symmetry_equiv_pos_as_xyz
  x,y,z

loop_
_atom_site_label
_atom_site_type_symbol
_atom_site_fract_x
_atom_site_fract_y
_atom_site_fract_z
_atom_site_charge
Ca	Ca	0.10216 0.73476 0.04209 1.51700
S 	S 	0.39234 0.52469 0.10458 0.30100
O 	O 	0.90738 0.59270 0.02680 -0.57500
O 	O 	0.38235 0.96160 0.38006 -0.46000
O 	O 	0.37900 0.26740 0.09805 -0.24100
O 	O 	0.86789 0.98380 0.02963 -0.49700
O 	O 	0.30944 0.68290 0.06774 -0.35900
O 	O 	0.39372 0.56610 0.39920 -0.49000
C 	C 	0.39875 0.69640 0.30054 -0.13600
C 	C 	0.39781 0.59780 0.18083 -0.00700
C 	C 	0.52786 0.60150 0.08913 0.00400
C 	C 	0.73430 0.70870 0.05665 -0.13500
C 	C 	0.44349 0.47920 0.28465 0.03600
H 	H 	0.47330 0.36480 0.31490 0.02000
C 	C 	0.84398 0.76680 0.03573 0.41500
C 	C 	0.71987 0.48720 0.08301 0.03400
H 	H 	0.78060 0.37310 0.08940 0.02400
C 	C 	0.35538 0.86500 0.25628 0.03800
H 	H 	0.32690 0.01440 0.26760 0.03200
C 	C 	0.39155 0.74570 0.36557 0.44100
C 	C 	0.61600 0.43340 0.09995 -0.07600
H 	H 	0.60570 0.28400 0.11860 0.06400
C 	C 	0.44452 0.43020 0.22446 -0.07600
H 	H 	0.47660 0.28440 0.21330 0.06400
C 	C 	0.54223 0.82610 0.06440 -0.08500
H 	H 	0.48200 0.94140 0.05860 0.08400
C 	C 	0.35342 0.81670 0.19571 -0.08100
H 	H 	0.32270 0.93000 0.16540 0.07300
C 	C 	0.64667 0.87790 0.04840 0.04600
H 	H 	0.65820 0.03060 0.03160 0.02700
Ca	Ca	0.39784 0.23476 0.45791 1.51800
S 	S 	0.10766 0.02469 0.39542 0.30300
O 	O 	0.59262 0.09270 0.47320 -0.57700
O 	O 	0.11765 0.46160 0.11994 -0.46100
O 	O 	0.12100 0.76740 0.40195 -0.24100
O 	O 	0.63211 0.48380 0.47037 -0.49900
O 	O 	0.19056 0.18290 0.43226 -0.35800
O 	O 	0.10628 0.06610 0.10080 -0.49100
C 	C 	0.10125 0.19640 0.19946 -0.13500
C 	C 	0.10219 0.09780 0.31917 -0.00900
C 	C 	0.97214 0.10150 0.41087 -0.00100
C 	C 	0.76570 0.20870 0.44335 -0.13500
C 	C 	0.05651 0.97920 0.21535 0.03400
H 	H 	0.02670 0.86480 0.18510 0.02000
C 	C 	0.65602 0.26680 0.46427 0.41500
C 	C 	0.78013 0.98720 0.41699 0.03300
H 	H 	0.71940 0.87310 0.41060 0.02400
C 	C 	0.14462 0.36500 0.24372 0.03500
H 	H 	0.17310 0.51440 0.23240 0.03400
C 	C 	0.10845 0.24570 0.13443 0.44000
C 	C 	0.88400 0.93340 0.40005 -0.07100
H 	H 	0.89430 0.78400 0.38140 0.06400
C 	C 	0.05548 0.93020 0.27554 -0.07500
H 	H 	0.02340 0.78440 0.28670 0.06400
C 	C 	0.95777 0.32610 0.43560 -0.08200
H 	H 	0.01800 0.44140 0.44140 0.08300
C 	C 	0.14658 0.31670 0.30429 -0.08000
H 	H 	0.17730 0.43000 0.33460 0.07300
C 	C 	0.85333 0.37790 0.45160 0.04400
H 	H 	0.84180 0.53060 0.46840 0.02900
Ca	Ca	0.89784 0.26524 0.95791 1.51700
S 	S 	0.60766 0.47531 0.89542 0.30100
O 	O 	0.09262 0.40730 0.97320 -0.57500
O 	O 	0.61765 0.03840 0.61994 -0.46000
O 	O 	0.62100 0.73260 0.90195 -0.24100
O 	O 	0.13211 0.01620 0.97037 -0.49700
O 	O 	0.69056 0.31710 0.93226 -0.35900
O 	O 	0.60628 0.43390 0.60080 -0.49000
C 	C 	0.60125 0.30360 0.69946 -0.13600
C 	C 	0.60219 0.40220 0.81917 -0.00700
C 	C 	0.47214 0.39850 0.91087 0.00400
C 	C 	0.26570 0.29130 0.94335 -0.13500
C 	C 	0.55651 0.52080 0.71535 0.03600
H 	H 	0.52670 0.63520 0.68510 0.02000
C 	C 	0.15602 0.23320 0.96427 0.41500
C 	C 	0.28013 0.51280 0.91699 0.03400
H 	H 	0.21940 0.62690 0.91060 0.02400
C 	C 	0.64462 0.13500 0.74372 0.03800
H 	H 	0.67310 0.98560 0.73240 0.03200
C 	C 	0.60845 0.25430 0.63443 0.44100
C 	C 	0.38400 0.56660 0.90005 -0.07600
H 	H 	0.39430 0.71600 0.88140 0.06400
C 	C 	0.55548 0.56980 0.77554 -0.07600
H 	H 	0.52340 0.71560 0.78670 0.06400
C 	C 	0.45777 0.17390 0.93560 -0.08500
H 	H 	0.51800 0.05860 0.94140 0.08400
C 	C 	0.64658 0.18330 0.80429 -0.08100
H 	H 	0.67730 0.07000 0.83460 0.07300
C 	C 	0.35333 0.12210 0.95160 0.04600
H 	H 	0.34180 0.96940 0.96840 0.02700
Ca	Ca	0.60216 0.76524 0.54209 1.51800
S 	S 	0.89234 0.97531 0.60458 0.30300
O 	O 	0.40738 0.90730 0.52680 -0.57700
O 	O 	0.88235 0.53840 0.88006 -0.46100
O 	O 	0.87900 0.23260 0.59805 -0.24100
O 	O 	0.36789 0.51620 0.52963 -0.49900
O 	O 	0.80944 0.81710 0.56774 -0.35800
O 	O 	0.89372 0.93390 0.89920 -0.49100
C 	C 	0.89875 0.80360 0.80054 -0.13500
C 	C 	0.89781 0.90220 0.68083 -0.00900
C 	C 	0.02786 0.89850 0.58913 -0.00100
C 	C 	0.23430 0.79130 0.55665 -0.13500
C 	C 	0.94349 0.02080 0.78465 0.03400
H 	H 	0.97330 0.13520 0.81490 0.02000
C 	C 	0.34398 0.73320 0.53573 0.41500
C 	C 	0.21987 0.01280 0.58301 0.03300
H 	H 	0.28060 0.12690 0.58940 0.02400
C 	C 	0.85538 0.63500 0.75628 0.03500
H 	H 	0.82690 0.48560 0.76760 0.03400
C 	C 	0.89155 0.75430 0.86557 0.44000
C 	C 	0.11600 0.06660 0.59995 -0.07100
H 	H 	0.10570 0.21600 0.61860 0.06400
C 	C 	0.94452 0.06980 0.72446 -0.07500
H 	H 	0.97660 0.21560 0.71330 0.06400
C 	C 	0.04223 0.67390 0.56440 -0.08200
H 	H 	0.98200 0.55860 0.55860 0.08300
C 	C 	0.85342 0.68330 0.69571 -0.08000
H 	H 	0.82270 0.57000 0.66540 0.07300
C 	C 	0.14667 0.62210 0.54840 0.04400
H 	H 	0.15820 0.46940 0.53160 0.02900
