data_crystal

_cell_length_a 14.40340
_cell_length_b 14.40340
_cell_length_c 15.87900
_cell_angle_alpha 65.47200
_cell_angle_beta  65.47200
_cell_angle_gamma 67.93510

_symmetry_space_group_name_	'P 1'
_symmetry_space_group_name_H-M	'P 1'

loop_
_symmetry_equiv_pos_as_xyz
  x,y,z

loop_
_atom_site_label
_atom_site_type_symbol
_atom_site_fract_x
_atom_site_fract_y
_atom_site_fract_z
_atom_site_charge
Cu	Cu	0.91566 0.44804 0.32481 0.80400
Cu	Cu	0.44804 0.91566 0.82481 0.80400
Cu	Cu	0.38510 0.09002 0.05236 0.80500
Cu	Cu	0.08434 0.55196 0.67519 0.80500
Cu	Cu	0.73070 0.26930 0.75000 0.80200
Cu	Cu	0.55196 0.08434 0.17519 0.80500
Cu	Cu	0.93908 0.06092 0.25000 0.81600
Cu	Cu	0.06092 0.93908 0.75000 0.81600
Cu	Cu	0.02285 0.83339 0.01037 0.80100
Cu	Cu	0.26930 0.73070 0.25000 0.80200
Cu	Cu	0.16661 0.97715 0.48963 0.80400
Cu	Cu	0.83339 0.02285 0.51037 0.80400
Cu	Cu	0.97715 0.16661 0.98963 0.80100
Cu	Cu	0.90998 0.61490 0.44764 0.80500
Cu	Cu	0.09002 0.38510 0.55236 0.80500
Cu	Cu	0.61490 0.90998 0.94764 0.80500
H 	H 	0.96060 0.40320 0.96630 0.11100
H 	H 	0.20600 0.27380 0.37830 0.11100
H 	H 	0.48750 0.27510 0.78050 0.10200
H 	H 	0.19680 0.92760 0.27370 0.02600
H 	H 	0.88110 0.96890 0.69960 0.03800
H 	H 	0.03110 0.11890 0.80040 0.03700
H 	H 	0.08740 0.30740 0.37670 0.09500
H 	H 	0.27510 0.48750 0.28050 0.10100
H 	H 	0.16220 0.19600 0.36440 0.12700
H 	H 	0.66740 0.96520 0.34490 0.12300
H 	H 	0.27380 0.20600 0.87830 0.11000
H 	H 	0.18370 0.88010 0.06520 0.06500
H 	H 	0.23750 0.76310 0.43910 0.04600
H 	H 	0.00890 0.74230 0.86310 0.10600
H 	H 	0.91900 0.37120 0.14540 0.11200
H 	H 	0.07240 0.80320 0.22630 0.02300
H 	H 	0.25770 0.99110 0.63690 0.10700
H 	H 	0.51250 0.72490 0.21950 0.10200
H 	H 	0.46610 0.04770 0.38850 0.11500
H 	H 	0.56890 0.17270 0.75250 0.10900
H 	H 	0.04770 0.46610 0.88850 0.11100
H 	H 	0.19600 0.16220 0.86440 0.12600
H 	H 	0.45580 0.16480 0.83130 0.09500
H 	H 	0.91260 0.69260 0.62330 0.09500
H 	H 	0.80320 0.07240 0.72630 0.02600
H 	H 	0.30740 0.08740 0.87670 0.09400
H 	H 	0.88010 0.18370 0.56520 0.06500
H 	H 	0.08300 0.34560 0.94970 0.12600
H 	H 	0.59680 0.03940 0.53370 0.11900
H 	H 	0.34560 0.08300 0.44970 0.12900
H 	H 	0.99110 0.25770 0.13690 0.10600
H 	H 	0.17270 0.56890 0.25250 0.10900
H 	H 	0.16480 0.45580 0.33130 0.09400
H 	H 	0.11990 0.81630 0.43480 0.06500
H 	H 	0.72620 0.79400 0.12170 0.11000
H 	H 	0.54420 0.83520 0.16870 0.09500
H 	H 	0.76250 0.23690 0.56090 0.04600
H 	H 	0.83520 0.54420 0.66870 0.09400
H 	H 	0.81630 0.11990 0.93480 0.06500
H 	H 	0.82730 0.43110 0.74750 0.10900
H 	H 	0.03940 0.59680 0.03370 0.11100
H 	H 	0.53390 0.95230 0.61150 0.11500
H 	H 	0.92760 0.19680 0.77370 0.02300
H 	H 	0.69260 0.91260 0.12330 0.09400
H 	H 	0.96890 0.88110 0.19960 0.03700
H 	H 	0.91700 0.65440 0.05030 0.12600
H 	H 	0.79400 0.72620 0.62170 0.11100
H 	H 	0.11890 0.03110 0.30040 0.03800
H 	H 	0.23690 0.76250 0.06090 0.04700
H 	H 	0.72490 0.51250 0.71950 0.10100
H 	H 	0.08100 0.62880 0.85460 0.11200
H 	H 	0.96520 0.66740 0.84490 0.11800
H 	H 	0.80400 0.83780 0.13560 0.12600
H 	H 	0.76310 0.23750 0.93910 0.04700
H 	H 	0.40320 0.96060 0.46630 0.11900
H 	H 	0.03480 0.33260 0.15510 0.11800
H 	H 	0.37120 0.91900 0.64540 0.11400
H 	H 	0.43110 0.82730 0.24750 0.10900
H 	H 	0.95230 0.53390 0.11150 0.11100
H 	H 	0.65440 0.91700 0.55030 0.12900
H 	H 	0.33260 0.03480 0.65510 0.12300
H 	H 	0.83780 0.80400 0.63560 0.12700
H 	H 	0.62880 0.08100 0.35460 0.11400
H 	H 	0.74230 0.00890 0.36310 0.10700
C 	C 	0.96880 0.63660 0.15870 0.17800
C 	C 	0.16200 0.66000 0.45820 0.13600
C 	C 	0.14400 0.24820 0.39670 -0.50100
C 	C 	0.80130 0.48630 0.69460 -0.49300
C 	C 	0.82640 0.44180 0.61510 0.14100
C 	C 	0.81370 0.99530 0.74530 -0.28200
C 	C 	0.82660 0.94860 0.84450 0.12700
C 	C 	0.10850 0.19950 0.50320 0.18300
C 	C 	0.17360 0.55820 0.38490 0.14100
C 	C 	0.44180 0.82640 0.11510 0.14100
C 	C 	0.97210 0.31030 0.16930 -0.50300
C 	C 	0.94860 0.82660 0.34450 0.12700
C 	C 	0.89150 0.80050 0.49680 0.18300
C 	C 	0.26300 0.92840 0.77680 0.17500
C 	C 	0.96940 0.60260 0.08200 -0.51000
C 	C 	0.31030 0.97210 0.66930 -0.51300
C 	C 	0.24820 0.14400 0.89670 -0.49600
C 	C 	0.18630 0.00470 0.25470 -0.28200
C 	C 	0.19870 0.51370 0.30540 -0.49300
C 	C 	0.68970 0.02790 0.33070 -0.51300
C 	C 	0.16430 0.75490 0.47100 -0.33000
C 	C 	0.12980 0.76140 0.57170 0.13200
C 	C 	0.48630 0.80130 0.19460 -0.49400
C 	C 	0.51370 0.19870 0.80540 -0.49400
C 	C 	0.36340 0.03120 0.34130 0.18200
C 	C 	0.97660 0.72800 0.22990 0.12200
C 	C 	0.66000 0.16200 0.95820 0.13600
C 	C 	0.75490 0.16430 0.97100 -0.33400
C 	C 	0.00470 0.18630 0.75470 -0.27800
C 	C 	0.19950 0.10850 0.00320 0.18000
C 	C 	0.63660 0.96880 0.65870 0.18200
C 	C 	0.83570 0.24510 0.52900 -0.33000
C 	C 	0.02790 0.68970 0.83070 -0.50300
C 	C 	0.05140 0.17340 0.65550 0.12700
C 	C 	0.02340 0.27200 0.77010 0.12200
C 	C 	0.83800 0.34000 0.54180 0.13600
C 	C 	0.75180 0.85600 0.10330 -0.49600
C 	C 	0.24510 0.83570 0.02900 -0.33400
C 	C 	0.03060 0.39740 0.91800 -0.51000
C 	C 	0.72800 0.97660 0.72990 0.12200
C 	C 	0.17340 0.05140 0.15550 0.12700
C 	C 	0.99530 0.81370 0.24530 -0.27800
C 	C 	0.80050 0.89150 0.99680 0.18000
C 	C 	0.87020 0.23860 0.42830 0.13200
C 	C 	0.55820 0.17360 0.88490 0.14100
C 	C 	0.60260 0.96940 0.58200 -0.52800
C 	C 	0.92840 0.26300 0.27680 0.17300
C 	C 	0.73700 0.07160 0.22320 0.17500
C 	C 	0.76140 0.12980 0.07170 0.13600
C 	C 	0.85600 0.75180 0.60330 -0.50100
C 	C 	0.27200 0.02340 0.27010 0.12200
C 	C 	0.34000 0.83800 0.04180 0.13600
C 	C 	0.07160 0.73700 0.72320 0.17300
C 	C 	0.23860 0.87020 0.92830 0.13600
C 	C 	0.39740 0.03060 0.41800 -0.52800
C 	C 	0.03120 0.36340 0.84130 0.17800
N 	N 	0.83260 0.08800 0.18300 -0.25500
N 	N 	0.35010 0.80370 0.13240 -0.31700
N 	N 	0.48640 0.86820 0.02140 -0.29200
N 	N 	0.91200 0.16740 0.31700 -0.25500
N 	N 	0.13180 0.51360 0.47860 -0.29100
N 	N 	0.51360 0.13180 0.97860 -0.29200
N 	N 	0.12550 0.84870 0.58350 -0.26400
N 	N 	0.16740 0.91200 0.81700 -0.25500
N 	N 	0.90140 0.89740 0.95530 -0.25500
N 	N 	0.24960 0.07780 0.06890 -0.30000
N 	N 	0.75040 0.92220 0.93110 -0.30000
N 	N 	0.93560 0.91680 0.35520 -0.23800
N 	N 	0.90420 0.31180 0.34210 -0.30600
N 	N 	0.68820 0.09580 0.15790 -0.30700
N 	N 	0.09860 0.10260 0.04470 -0.25500
N 	N 	0.80370 0.35010 0.63240 -0.31700
N 	N 	0.64320 0.94820 0.79970 -0.24000
N 	N 	0.86820 0.48640 0.52140 -0.29100
N 	N 	0.94820 0.64320 0.29970 -0.24000
N 	N 	0.41650 0.05570 0.24760 -0.27800
N 	N 	0.08320 0.06440 0.14480 -0.23900
N 	N 	0.58350 0.94430 0.75240 -0.27800
N 	N 	0.64990 0.19630 0.86760 -0.31700
N 	N 	0.84870 0.12550 0.08350 -0.26300
N 	N 	0.87670 0.41950 0.47420 -0.25000
N 	N 	0.05180 0.35680 0.70030 -0.24000
N 	N 	0.92220 0.75040 0.43110 -0.30000
N 	N 	0.01040 0.27200 0.86000 -0.29700
N 	N 	0.31180 0.90420 0.84210 -0.30700
N 	N 	0.35680 0.05180 0.20030 -0.24000
N 	N 	0.87450 0.15130 0.41650 -0.26400
N 	N 	0.10260 0.09860 0.54470 -0.25400
N 	N 	0.98960 0.72800 0.14000 -0.29700
N 	N 	0.05570 0.41650 0.74760 -0.27700
N 	N 	0.58050 0.12330 0.02580 -0.24800
N 	N 	0.08800 0.83260 0.68300 -0.25500
N 	N 	0.12330 0.58050 0.52580 -0.25000
N 	N 	0.15130 0.87450 0.91650 -0.26300
N 	N 	0.41950 0.87670 0.97420 -0.24800
N 	N 	0.09580 0.68820 0.65790 -0.30600
N 	N 	0.72800 0.98960 0.64000 -0.29900
N 	N 	0.89740 0.90140 0.45530 -0.25400
N 	N 	0.91680 0.93560 0.85520 -0.23900
N 	N 	0.94430 0.58350 0.25240 -0.27700
N 	N 	0.06440 0.08320 0.64480 -0.23800
N 	N 	0.19630 0.64990 0.36760 -0.31700
N 	N 	0.27200 0.01040 0.36000 -0.29900
N 	N 	0.07780 0.24960 0.56890 -0.30000
