data_crystal

_cell_length_a 8.88900
_cell_length_b 5.11400
_cell_length_c 16.29100
_cell_angle_alpha 90.00000
_cell_angle_beta  100.39600
_cell_angle_gamma 90.00000

_symmetry_space_group_name_	'P 1'
_symmetry_space_group_name_H-M	'P 1'

loop_
_symmetry_equiv_pos_as_xyz
  x,y,z

loop_
_atom_site_label
_atom_site_type_symbol
_atom_site_fract_x
_atom_site_fract_y
_atom_site_fract_z
_atom_site_charge
O 	O 	0.15790 0.26980 0.05353 -0.46900
N 	N 	0.03130 0.86750 0.13140 -0.34400
C 	C 	0.20520 0.24010 0.13600 0.13600
C 	C 	0.14490 0.03890 0.18040 -0.07300
C 	C 	0.19270 0.00810 0.26560 -0.10800
C 	C 	0.30100 0.17420 0.31060 -0.05800
C 	C 	0.36260 0.37550 0.26780 -0.00300
C 	C 	0.31500 0.40520 0.18200 -0.15500
H 	H 	0.93330 0.87810 0.15190 0.16200
H 	H 	0.06720 0.68400 0.13590 0.05500
H 	H 	0.15060 0.87110 0.29370 0.05000
H 	H 	0.33290 0.15230 0.36900 0.01700
H 	H 	0.43670 0.49120 0.29750 0.02600
H 	H 	0.35820 0.54110 0.15390 0.07500
O 	O 	0.84210 0.73020 0.94647 -0.31700
N 	N 	0.96870 0.13250 0.86860 -0.19800
C 	C 	0.79480 0.75990 0.86400 0.15300
C 	C 	0.85510 0.96110 0.81960 -0.00300
C 	C 	0.80730 0.99190 0.73440 0.04300
C 	C 	0.69900 0.82580 0.68940 -0.11400
C 	C 	0.63740 0.62450 0.73220 0.03900
C 	C 	0.68500 0.59480 0.81800 -0.15400
H 	H 	0.06670 0.12190 0.84810 -0.01600
H 	H 	0.93280 0.31600 0.86410 0.10000
H 	H 	0.84940 0.12890 0.70630 0.00900
H 	H 	0.66710 0.84770 0.63100 0.06000
H 	H 	0.56330 0.50880 0.70250 0.01100
H 	H 	0.64180 0.45890 0.84610 0.08500
Fe	Fe	-0.00000 0.00000 -0.00000 0.97900
O 	O 	0.84210 0.76980 0.44647 -0.35000
N 	N 	0.96870 0.36750 0.36860 -0.19700
C 	C 	0.79480 0.74010 0.36400 0.11000
C 	C 	0.85510 0.53890 0.31960 0.00400
C 	C 	0.80730 0.50810 0.23440 -0.05400
C 	C 	0.69900 0.67420 0.18940 -0.04100
C 	C 	0.63740 0.87550 0.23220 -0.04000
C 	C 	0.68500 0.90520 0.31800 -0.04800
H 	H 	0.06670 0.37810 0.34810 -0.01900
H 	H 	0.93280 0.18400 0.36410 0.08300
H 	H 	0.84940 0.37110 0.20630 0.05300
H 	H 	0.66710 0.65230 0.13100 0.01700
H 	H 	0.56330 0.99120 0.20250 0.05000
H 	H 	0.64180 0.04110 0.34610 0.02200
O 	O 	0.15790 0.23020 0.55353 -0.46000
N 	N 	0.03130 0.63250 0.63140 -0.35700
C 	C 	0.20520 0.25990 0.63600 0.18200
C 	C 	0.14490 0.46110 0.68040 -0.08500
C 	C 	0.19270 0.49190 0.76560 0.00400
C 	C 	0.30100 0.32580 0.81060 -0.13800
C 	C 	0.36260 0.12450 0.76780 0.08200
C 	C 	0.31500 0.09480 0.68200 -0.26300
H 	H 	0.93330 0.62190 0.65190 0.16100
H 	H 	0.06720 0.81600 0.63590 0.06900
H 	H 	0.15060 0.62890 0.79370 0.00200
H 	H 	0.33290 0.34770 0.86900 0.06600
H 	H 	0.43670 0.00880 0.79750 -0.01300
H 	H 	0.35820 0.95890 0.65390 0.13700
Fe	Fe	0.00000 0.50000 0.50000 1.03500
