data_crystal

_cell_length_a 15.10290
_cell_length_b 13.25350
_cell_length_c 18.03300
_cell_angle_alpha 90.00000
_cell_angle_beta  94.44000
_cell_angle_gamma 90.00000

_symmetry_space_group_name_	'P 1'
_symmetry_space_group_name_H-M	'P 1'

loop_
_symmetry_equiv_pos_as_xyz
  x,y,z

loop_
_atom_site_label
_atom_site_type_symbol
_atom_site_fract_x
_atom_site_fract_y
_atom_site_fract_z
_atom_site_charge
W 	W 	0.20361 0.05886 0.91272 0.90100
W 	W 	0.37881 0.98070 0.83359 0.99000
W 	W 	0.17776 0.91786 0.76298 0.97500
W 	W 	0.43292 0.09135 0.65478 1.26200
W 	W 	0.23616 0.02426 0.58246 0.95600
W 	W 	0.30227 0.25858 0.57150 1.23700
W 	W 	0.03571 0.11293 0.66729 0.98800
W 	W 	0.10465 0.35039 0.66204 0.99800
W 	W 	0.05421 0.25005 0.81842 0.90100
W 	W 	0.27710 0.32508 0.90181 0.98100
W 	W 	0.33034 0.41715 0.74157 0.98600
W 	W 	0.45694 0.24560 0.82704 0.95200
Zn	Zn	0.24891 0.17048 0.74514 1.23100
Zn	Zn	0.59965 0.94393 0.56020 1.19700
Zn	Zn	0.09687 0.89858 0.05808 1.11800
O 	O 	0.31580 0.98710 0.92390 -0.42000
O 	O 	0.14900 0.93590 0.86350 -0.42500
O 	O 	0.10300 0.13550 0.86980 -0.45300
O 	O 	0.25990 0.18360 0.92990 -0.45500
O 	O 	0.25130 0.05240 0.80490 -0.56200
O 	O 	0.29830 0.87440 0.79820 -0.41700
O 	O 	0.40950 0.99710 0.73260 -0.47100
O 	O 	0.42680 0.10990 0.85650 -0.46300
O 	O 	0.22580 0.93930 0.66770 -0.44500
O 	O 	0.08060 0.00580 0.72810 -0.46000
O 	O 	0.53160 0.04460 0.62840 -0.55100
O 	O 	0.36430 0.99880 0.59000 -0.43500
O 	O 	0.42160 0.19590 0.57980 -0.44700
O 	O 	0.46730 0.19160 0.72730 -0.46900
O 	O 	0.29840 0.13810 0.65390 -0.62000
O 	O 	0.25600 0.14420 0.51760 -0.43200
O 	O 	0.12280 0.08280 0.60010 -0.46100
O 	O 	0.32460 0.33650 0.49720 -0.53700
O 	O 	0.18730 0.29930 0.59390 -0.47900
O 	O 	0.34700 0.34740 0.65270 -0.47200
O 	O 	0.02360 0.24620 0.62040 -0.42500
O 	O 	0.97820 0.16150 0.75370 -0.41600
O 	O 	0.13040 0.21360 0.72730 -0.56500
O 	O 	0.15750 0.32410 0.85940 -0.46200
O 	O 	0.03770 0.36150 0.74770 -0.44200
O 	O 	0.20280 0.41250 0.71290 -0.46300
O 	O 	0.40160 0.29640 0.91520 -0.43100
O 	O 	0.31710 0.26970 0.79470 -0.56900
O 	O 	0.44820 0.38180 0.77880 -0.41400
O 	O 	0.29830 0.44050 0.84530 -0.43200
C 	C 	0.65290 0.89930 0.72490 -0.03700
H 	H 	0.59160 0.89960 0.72690 0.01900
C 	C 	0.70610 0.88290 0.79260 0.09100
C 	C 	0.79510 0.89130 0.78660 -0.06100
C 	C 	0.83150 0.91190 0.71620 -0.07500
H 	H 	0.89230 0.91680 0.71210 0.04400
C 	C 	0.77100 0.92390 0.65540 0.04400
H 	H 	0.79240 0.93950 0.60980 -0.00900
C 	C 	0.86230 0.88450 0.85140 0.10200
C 	C 	0.88290 0.79690 0.89650 -0.19400
H 	H 	0.85310 0.73650 0.88610 0.07000
C 	C 	0.94700 0.80260 0.95560 0.11400
H 	H 	0.95830 0.74530 0.98450 -0.07300
C 	C 	0.97320 0.97020 0.93040 0.08700
H 	H 	0.00350 0.02980 0.94270 -0.06200
C 	C 	0.91070 0.96870 0.87110 -0.16700
H 	H 	0.90080 0.02720 0.84330 0.08900
C 	C 	0.15620 0.95430 0.21670 -0.04700
H 	H 	0.09540 0.96420 0.21790 -0.00000
C 	C 	0.20840 0.96620 0.28340 0.10000
C 	C 	0.30210 0.96210 0.27830 -0.06500
C 	C 	0.33330 0.94130 0.20660 -0.07200
H 	H 	0.39370 0.93350 0.20160 0.05300
C 	C 	0.27450 0.93320 0.14640 0.01700
H 	H 	0.29550 0.92950 0.09930 -0.02100
C 	C 	0.36350 0.96630 0.34400 0.10900
C 	C 	0.41100 0.88510 0.36890 -0.17400
H 	H 	0.40340 0.82500 0.34250 0.09900
C 	C 	0.47450 0.88630 0.43570 0.13100
H 	H 	0.49760 0.82500 0.45320 -0.03100
C 	C 	0.44890 0.05490 0.44980 0.04600
H 	H 	0.46030 0.11360 0.47720 0.01500
C 	C 	0.38040 0.05270 0.38530 -0.14800
H 	H 	0.34850 0.11100 0.37270 0.07800
C 	C 	0.73800 0.05550 0.47420 0.09900
H 	H 	0.76890 0.99670 0.46480 -0.01900
C 	C 	0.69530 0.20630 0.46860 -0.01200
H 	H 	0.68920 0.27450 0.45700 0.02400
C 	C 	0.64380 0.15380 0.51060 -0.00100
H 	H 	0.59530 0.17960 0.53320 0.02400
C 	C 	0.83140 0.15980 0.40220 -0.10300
H 	H 	0.81930 0.21710 0.36960 0.04900
H 	H 	0.83880 0.10090 0.37140 0.03900
C 	C 	0.91930 0.17910 0.45170 0.05500
H 	H 	0.92840 0.12640 0.48960 -0.00200
C 	C 	0.05120 0.27110 0.42400 -0.13600
H 	H 	0.08100 0.29880 0.38280 0.05900
H 	H 	0.09500 0.25570 0.46460 0.08300
C 	C 	0.97780 0.34620 0.44970 0.03100
H 	H 	0.00400 0.39750 0.48280 -0.00900
H 	H 	0.94640 0.37880 0.40720 -0.00600
N 	N 	0.91910 0.28200 0.48770 -0.25500
H 	H 	0.86380 0.30770 0.48420 0.10100
H 	H 	0.93790 0.27720 0.53620 0.13000
C 	C 	0.23680 0.78280 0.97610 0.11000
H 	H 	0.25890 0.84150 0.95620 -0.02100
C 	C 	0.22390 0.63010 0.00410 -0.02400
H 	H 	0.23280 0.56090 0.00920 0.02000
C 	C 	0.16770 0.68430 0.03620 0.00800
H 	H 	0.12710 0.65820 0.06730 -0.01800
C 	C 	0.34050 0.67330 0.91800 -0.14400
H 	H 	0.34650 0.72710 0.88230 0.07200
H 	H 	0.33050 0.61060 0.89100 0.07900
C 	C 	0.42480 0.66570 0.97030 0.09700
H 	H 	0.41040 0.69590 0.01750 -0.01000
C 	C 	0.56650 0.63230 0.91510 -0.06900
H 	H 	0.57270 0.64210 0.86250 0.03900
H 	H 	0.62500 0.63040 0.94150 0.04500
C 	C 	0.51450 0.53750 0.92900 -0.04500
H 	H 	0.55550 0.48380 0.94430 0.03400
H 	H 	0.48200 0.51690 0.88290 0.04100
C 	C 	0.44970 0.55220 0.98810 -0.16600
H 	H 	0.47780 0.54380 0.03790 0.06800
H 	H 	0.39880 0.50770 0.98100 0.06300
N 	N 	0.68530 0.91440 0.65860 -0.22200
N 	N 	0.99210 0.88340 0.97250 -0.30500
N 	N 	0.66660 0.87530 0.85740 -0.29400
H 	H 	0.69840 0.87570 0.89910 0.12200
H 	H 	0.60980 0.87020 0.85690 0.11800
N 	N 	0.18520 0.93040 0.15290 -0.26700
N 	N 	0.49780 0.96120 0.46850 -0.25500
N 	N 	0.17320 0.99030 0.34670 -0.30400
H 	H 	0.11680 0.99890 0.34710 0.13000
H 	H 	0.20690 0.99720 0.38700 0.13700
N 	N 	0.67210 0.05730 0.51580 -0.25400
N 	N 	0.75770 0.14420 0.44590 -0.12200
C 	C 	0.99900 0.18140 0.40110 -0.10400
H 	H 	0.03470 0.12080 0.40820 0.04000
H 	H 	0.97760 0.18600 0.34910 0.04000
N 	N 	0.17390 0.78320 0.01980 -0.29500
N 	N 	0.26740 0.69380 0.96170 -0.11400
N 	N 	0.50510 0.71960 0.94800 -0.24600
H 	H 	0.53390 0.75010 0.98750 0.12700
H 	H 	0.49030 0.76640 0.91310 0.09200
W 	W 	0.79639 0.55886 0.08728 0.90800
W 	W 	0.62119 0.48070 0.16641 0.98300
W 	W 	0.82224 0.41786 0.23702 0.96900
W 	W 	0.56708 0.59135 0.34522 1.26700
W 	W 	0.76384 0.52426 0.41754 0.96300
W 	W 	0.69773 0.75858 0.42850 1.23700
W 	W 	0.96429 0.61293 0.33271 0.98800
W 	W 	0.89535 0.85039 0.33796 0.99800
W 	W 	0.94579 0.75005 0.18158 0.90100
W 	W 	0.72290 0.82508 0.09819 0.98200
W 	W 	0.66966 0.91715 0.25843 0.98700
W 	W 	0.54306 0.74560 0.17296 0.95200
Zn	Zn	0.75109 0.67048 0.25486 1.23100
Zn	Zn	0.40035 0.44393 0.43980 1.19600
Zn	Zn	0.90313 0.39858 0.94192 1.11800
O 	O 	0.68420 0.48710 0.07610 -0.42300
O 	O 	0.85100 0.43590 0.13650 -0.42900
O 	O 	0.89700 0.63550 0.13020 -0.45300
O 	O 	0.74010 0.68360 0.07010 -0.45600
O 	O 	0.74870 0.55240 0.19510 -0.55900
O 	O 	0.70170 0.37440 0.20180 -0.41600
O 	O 	0.59050 0.49710 0.26740 -0.47300
O 	O 	0.57320 0.60990 0.14350 -0.46000
O 	O 	0.77420 0.43930 0.33230 -0.44800
O 	O 	0.91940 0.50580 0.27190 -0.45700
O 	O 	0.46840 0.54460 0.37160 -0.55000
O 	O 	0.63570 0.49880 0.41000 -0.43900
O 	O 	0.57840 0.69590 0.42020 -0.44800
O 	O 	0.53270 0.69160 0.27270 -0.46900
O 	O 	0.70160 0.63810 0.34610 -0.62000
O 	O 	0.74400 0.64420 0.48240 -0.43200
O 	O 	0.87720 0.58280 0.39990 -0.46200
O 	O 	0.67540 0.83650 0.50280 -0.53600
O 	O 	0.81270 0.79930 0.40610 -0.47900
O 	O 	0.65300 0.84740 0.34730 -0.47200
O 	O 	0.97640 0.74620 0.37960 -0.42500
O 	O 	0.02180 0.66150 0.24630 -0.41500
O 	O 	0.86960 0.71360 0.27270 -0.56500
O 	O 	0.84250 0.82410 0.14060 -0.46200
O 	O 	0.96230 0.86150 0.25230 -0.44200
O 	O 	0.79720 0.91250 0.28710 -0.46300
O 	O 	0.59840 0.79640 0.08480 -0.43100
O 	O 	0.68290 0.76970 0.20530 -0.56900
O 	O 	0.55180 0.88180 0.22120 -0.41400
O 	O 	0.70170 0.94050 0.15470 -0.43100
C 	C 	0.34710 0.39930 0.27510 -0.03800
H 	H 	0.40840 0.39960 0.27310 0.01900
C 	C 	0.29390 0.38290 0.20740 0.09000
C 	C 	0.20490 0.39130 0.21340 -0.06300
C 	C 	0.16850 0.41190 0.28380 -0.07500
H 	H 	0.10770 0.41680 0.28790 0.04300
C 	C 	0.22900 0.42390 0.34460 0.04300
H 	H 	0.20760 0.43950 0.39020 -0.00900
C 	C 	0.13770 0.38450 0.14860 0.10400
C 	C 	0.11710 0.29690 0.10350 -0.19500
H 	H 	0.14690 0.23650 0.11390 0.07000
C 	C 	0.05300 0.30260 0.04440 0.11500
H 	H 	0.04170 0.24530 0.01550 -0.07300
C 	C 	0.02680 0.47020 0.06960 0.08200
H 	H 	0.99650 0.52980 0.05730 -0.05800
C 	C 	0.08930 0.46870 0.12890 -0.17300
H 	H 	0.09920 0.52720 0.15670 0.09300
C 	C 	0.84380 0.45430 0.78330 -0.04600
H 	H 	0.90460 0.46420 0.78210 -0.00100
C 	C 	0.79160 0.46620 0.71660 0.09800
C 	C 	0.69790 0.46210 0.72170 -0.06400
C 	C 	0.66670 0.44130 0.79340 -0.07300
H 	H 	0.60630 0.43350 0.79840 0.05400
C 	C 	0.72550 0.43320 0.85360 0.01700
H 	H 	0.70450 0.42950 0.90070 -0.02100
C 	C 	0.63650 0.46630 0.65600 0.10500
C 	C 	0.58900 0.38510 0.63110 -0.17300
H 	H 	0.59660 0.32500 0.65750 0.09800
C 	C 	0.52550 0.38630 0.56430 0.13000
H 	H 	0.50240 0.32500 0.54680 -0.03000
C 	C 	0.55110 0.55490 0.55020 0.04700
H 	H 	0.53970 0.61360 0.52280 0.01400
C 	C 	0.61960 0.55270 0.61470 -0.14300
H 	H 	0.65150 0.61100 0.62730 0.07700
C 	C 	0.26200 0.55550 0.52580 0.10400
H 	H 	0.23110 0.49670 0.53520 -0.02300
C 	C 	0.30470 0.70630 0.53140 -0.01200
H 	H 	0.31080 0.77450 0.54300 0.02400
C 	C 	0.35620 0.65380 0.48940 -0.00100
H 	H 	0.40470 0.67960 0.46680 0.02500
C 	C 	0.16860 0.65980 0.59780 -0.10200
H 	H 	0.18070 0.71710 0.63040 0.04800
H 	H 	0.16120 0.60090 0.62860 0.03900
C 	C 	0.08070 0.67910 0.54830 0.05300
H 	H 	0.07160 0.62640 0.51040 -0.00100
C 	C 	0.94880 0.77110 0.57600 -0.14200
H 	H 	0.91900 0.79880 0.61720 0.06100
H 	H 	0.90500 0.75570 0.53540 0.08500
C 	C 	0.02220 0.84620 0.55030 0.03700
H 	H 	0.99600 0.89750 0.51720 -0.01100
H 	H 	0.05360 0.87880 0.59280 -0.00600
N 	N 	0.08090 0.78200 0.51230 -0.25600
H 	H 	0.13620 0.80770 0.51580 0.10200
H 	H 	0.06210 0.77720 0.46380 0.13100
C 	C 	0.76320 0.28280 0.02390 0.10900
H 	H 	0.74110 0.34150 0.04380 -0.02100
C 	C 	0.77610 0.13010 0.99590 -0.02400
H 	H 	0.76720 0.06090 0.99080 0.01800
C 	C 	0.83230 0.18430 0.96380 0.00800
H 	H 	0.87290 0.15820 0.93270 -0.01900
C 	C 	0.65950 0.17330 0.08200 -0.14300
H 	H 	0.65350 0.22710 0.11770 0.07100
H 	H 	0.66950 0.11060 0.10900 0.07800
C 	C 	0.57520 0.16570 0.02970 0.09500
H 	H 	0.58960 0.19590 0.98250 -0.01000
C 	C 	0.43350 0.13230 0.08490 -0.06500
H 	H 	0.42730 0.14210 0.13750 0.03800
H 	H 	0.37500 0.13040 0.05850 0.04300
C 	C 	0.48550 0.03750 0.07100 -0.05300
H 	H 	0.44450 0.98380 0.05570 0.03700
H 	H 	0.51800 0.01690 0.11710 0.04300
C 	C 	0.55030 0.05220 0.01190 -0.15700
H 	H 	0.52220 0.04380 0.96210 0.06300
H 	H 	0.60120 0.00770 0.01900 0.06000
N 	N 	0.31470 0.41440 0.34140 -0.22200
N 	N 	0.00790 0.38340 0.02750 -0.30500
N 	N 	0.33340 0.37530 0.14260 -0.29400
H 	H 	0.30160 0.37570 0.10090 0.12100
H 	H 	0.39020 0.37020 0.14310 0.11800
N 	N 	0.81480 0.43040 0.84710 -0.26700
N 	N 	0.50220 0.46120 0.53150 -0.25600
N 	N 	0.82680 0.49030 0.65330 -0.30300
H 	H 	0.88320 0.49890 0.65290 0.12900
H 	H 	0.79310 0.49720 0.61300 0.13600
N 	N 	0.32790 0.55730 0.48420 -0.25400
N 	N 	0.24230 0.64420 0.55410 -0.12300
C 	C 	0.00100 0.68140 0.59890 -0.09900
H 	H 	0.96530 0.62080 0.59180 0.03900
H 	H 	0.02240 0.68600 0.65090 0.03900
N 	N 	0.82610 0.28320 0.98020 -0.29500
N 	N 	0.73260 0.19380 0.03830 -0.11400
N 	N 	0.49490 0.21960 0.05200 -0.24600
H 	H 	0.46610 0.25010 0.01250 0.12600
H 	H 	0.50970 0.26640 0.08690 0.09200
