data_crystal

_cell_length_a 11.61930
_cell_length_b 5.56670
_cell_length_c 22.93120
_cell_angle_alpha 90.00000
_cell_angle_beta  100.89700
_cell_angle_gamma 90.00000

_symmetry_space_group_name_	'P 1'
_symmetry_space_group_name_H-M	'P 1'

loop_
_symmetry_equiv_pos_as_xyz
  x,y,z

loop_
_atom_site_label
_atom_site_type_symbol
_atom_site_fract_x
_atom_site_fract_y
_atom_site_fract_z
_atom_site_charge
C 	C 	0.49320 0.25860 0.26200 0.44100
C 	C 	0.39980 0.21110 0.29910 -0.13200
C 	C 	0.31210 0.37890 0.30010 0.03700
H 	H 	0.31420 0.52870 0.28040 0.03300
C 	C 	0.22080 0.32820 0.32990 -0.08200
H 	H 	0.15970 0.44130 0.33040 0.07500
C 	C 	0.22090 0.10960 0.35890 -0.00700
C 	C 	0.31090 0.94130 0.36030 -0.07400
H 	H 	0.31100 0.79580 0.38200 0.06400
C 	C 	0.40020 0.99120 0.32930 0.03300
H 	H 	0.46090 0.87770 0.32860 0.02000
C 	C 	0.14900 0.11190 0.47020 0.00600
C 	C 	0.11940 0.33400 0.49010 -0.08200
H 	H 	0.08030 0.45020 0.46300 0.08300
C 	C 	0.14820 0.38370 0.55080 0.04100
H 	H 	0.12980 0.53610 0.56520 0.02900
C 	C 	0.20360 0.21140 0.59000 -0.12800
C 	C 	0.23670 0.99050 0.56930 0.02800
H 	H 	0.27750 0.87590 0.59620 0.02500
C 	C 	0.20950 0.93980 0.50880 -0.07500
H 	H 	0.23170 0.79100 0.49390 0.06400
C 	C 	0.22750 0.26240 0.65570 0.41000
O 	O 	0.51240 0.47550 0.25221 -0.46600
O 	O 	0.54090 0.08080 0.24372 -0.48100
O 	O 	0.00540 0.19580 0.37124 -0.35400
O 	O 	0.08660 0.77960 0.39054 -0.23900
O 	O 	0.23710 0.47680 0.67265 -0.50900
O 	O 	0.24060 0.08500 0.69066 -0.57200
S 	S 	0.10323 0.03640 0.39414 0.29800
Ca	Ca	0.63720 0.74331 0.22117 1.51800
C 	C 	0.00680 0.75860 0.23800 0.43400
C 	C 	0.10020 0.71110 0.20090 -0.13000
C 	C 	0.18790 0.87890 0.19990 0.03400
H 	H 	0.18580 0.02870 0.21960 0.03400
C 	C 	0.27920 0.82820 0.17010 -0.08100
H 	H 	0.34030 0.94130 0.16960 0.07500
C 	C 	0.27910 0.60960 0.14110 -0.00800
C 	C 	0.18910 0.44130 0.13970 -0.07300
H 	H 	0.18900 0.29580 0.11800 0.06400
C 	C 	0.09980 0.49120 0.17070 0.03000
H 	H 	0.03910 0.37770 0.17140 0.02000
C 	C 	0.35100 0.61190 0.02980 0.00300
C 	C 	0.38060 0.83400 0.00990 -0.08200
H 	H 	0.41970 0.95020 0.03700 0.08300
C 	C 	0.35180 0.88370 0.94920 0.04000
H 	H 	0.37020 0.03610 0.93480 0.03000
C 	C 	0.29640 0.71140 0.91000 -0.13000
C 	C 	0.26330 0.49050 0.93070 0.03000
H 	H 	0.22250 0.37590 0.90380 0.02500
C 	C 	0.29050 0.43980 0.99120 -0.07300
H 	H 	0.26830 0.29100 0.00610 0.06400
C 	C 	0.27250 0.76240 0.84430 0.41000
O 	O 	0.98760 0.97550 0.24779 -0.46100
O 	O 	0.95910 0.58080 0.25628 -0.47800
O 	O 	0.49460 0.69580 0.12876 -0.35400
O 	O 	0.41340 0.27960 0.10946 -0.23800
O 	O 	0.26290 0.97680 0.82735 -0.51100
O 	O 	0.25940 0.58500 0.80934 -0.57400
S 	S 	0.39677 0.53640 0.10586 0.29700
Ca	Ca	0.86280 0.24331 0.27883 1.51700
C 	C 	0.50680 0.74140 0.73800 0.44000
C 	C 	0.60020 0.78890 0.70090 -0.13300
C 	C 	0.68790 0.62110 0.69990 0.03700
H 	H 	0.68580 0.47130 0.71960 0.03300
C 	C 	0.77920 0.67180 0.67010 -0.08200
H 	H 	0.84030 0.55870 0.66960 0.07500
C 	C 	0.77910 0.89040 0.64110 -0.00700
C 	C 	0.68910 0.05870 0.63970 -0.07400
H 	H 	0.68900 0.20420 0.61800 0.06400
C 	C 	0.59980 0.00880 0.67070 0.03300
H 	H 	0.53910 0.12230 0.67140 0.02000
C 	C 	0.85100 0.88810 0.52980 0.00600
C 	C 	0.88060 0.66600 0.50990 -0.08200
H 	H 	0.91970 0.54980 0.53700 0.08300
C 	C 	0.85180 0.61630 0.44920 0.04100
H 	H 	0.87020 0.46390 0.43480 0.02900
C 	C 	0.79640 0.78860 0.41000 -0.12800
C 	C 	0.76330 0.00950 0.43070 0.02800
H 	H 	0.72250 0.12410 0.40380 0.02500
C 	C 	0.79050 0.06020 0.49120 -0.07500
H 	H 	0.76830 0.20900 0.50610 0.06400
C 	C 	0.77250 0.73760 0.34430 0.41000
O 	O 	0.48760 0.52450 0.74779 -0.46600
O 	O 	0.45910 0.91920 0.75628 -0.48100
O 	O 	0.99460 0.80420 0.62876 -0.35400
O 	O 	0.91340 0.22040 0.60946 -0.23900
O 	O 	0.76290 0.52320 0.32735 -0.50900
O 	O 	0.75940 0.91500 0.30934 -0.57200
S 	S 	0.89677 0.96360 0.60586 0.29800
Ca	Ca	0.36280 0.25669 0.77883 1.51800
C 	C 	0.99320 0.24140 0.76200 0.43400
C 	C 	0.89980 0.28890 0.79910 -0.13000
C 	C 	0.81210 0.12110 0.80010 0.03400
H 	H 	0.81420 0.97130 0.78040 0.03400
C 	C 	0.72080 0.17180 0.82990 -0.08100
H 	H 	0.65970 0.05870 0.83040 0.07500
C 	C 	0.72090 0.39040 0.85890 -0.00800
C 	C 	0.81090 0.55870 0.86030 -0.07300
H 	H 	0.81100 0.70420 0.88200 0.06400
C 	C 	0.90020 0.50880 0.82930 0.03000
H 	H 	0.96090 0.62230 0.82860 0.02000
C 	C 	0.64900 0.38810 0.97020 0.00300
C 	C 	0.61940 0.16600 0.99010 -0.08200
H 	H 	0.58030 0.04980 0.96300 0.08300
C 	C 	0.64820 0.11630 0.05080 0.04000
H 	H 	0.62980 0.96390 0.06520 0.03000
C 	C 	0.70360 0.28860 0.09000 -0.13000
C 	C 	0.73670 0.50950 0.06930 0.03000
H 	H 	0.77750 0.62410 0.09620 0.02500
C 	C 	0.70950 0.56020 0.00880 -0.07300
H 	H 	0.73170 0.70900 0.99390 0.06400
C 	C 	0.72750 0.23760 0.15570 0.41000
O 	O 	0.01240 0.02450 0.75221 -0.46100
O 	O 	0.04090 0.41920 0.74372 -0.47800
O 	O 	0.50540 0.30420 0.87124 -0.35400
O 	O 	0.58660 0.72040 0.89054 -0.23800
O 	O 	0.73710 0.02320 0.17265 -0.51100
O 	O 	0.74060 0.41500 0.19066 -0.57400
S 	S 	0.60323 0.46360 0.89414 0.29700
Ca	Ca	0.13720 0.75669 0.72117 1.51700
