data_crystal

_cell_length_a 8.73000
_cell_length_b 18.33000
_cell_length_c 9.31000
_cell_angle_alpha 90.00000
_cell_angle_beta  105.80000
_cell_angle_gamma 90.00000

_symmetry_space_group_name_	'P 1'
_symmetry_space_group_name_H-M	'P 1'

loop_
_symmetry_equiv_pos_as_xyz
  x,y,z

loop_
_atom_site_label
_atom_site_type_symbol
_atom_site_fract_x
_atom_site_fract_y
_atom_site_fract_z
_atom_site_charge
C 	C 	0.75300 0.04400 0.44100 0.58900
C 	C 	0.57300 0.08100 0.40900 -0.06500
C 	C 	0.29700 0.06200 0.08100 0.46900
C 	C 	0.48700 0.08800 0.11600 -0.03200
C 	C 	0.15100 0.88100 0.05000 0.49200
C 	C 	0.21900 0.81900 0.17700 -0.08600
Nd	Nd	0.00800 0.97600 0.78200 2.22200
N 	N 	0.53400 0.12800 0.26800 -0.08000
O 	O 	0.77300 0.00900 0.56600 -0.55100
O 	O 	0.82200 0.05000 0.35800 -0.72500
O 	O 	0.25600 0.03300 0.95000 -0.49000
O 	O 	0.22700 0.07800 0.16700 -0.54900
O 	O 	0.08600 0.93600 0.08300 -0.67100
O 	O 	0.17000 0.87000 0.92900 -0.49100
C 	C 	0.24700 0.54400 0.55900 0.59200
C 	C 	0.42700 0.58100 0.59100 -0.06600
C 	C 	0.70300 0.56200 0.91900 0.47900
C 	C 	0.51300 0.58800 0.88400 -0.03100
C 	C 	0.84900 0.38100 0.95000 0.48900
C 	C 	0.78100 0.31900 0.82300 -0.08600
Nd	Nd	0.99200 0.47600 0.21800 2.24600
N 	N 	0.46600 0.62800 0.73200 -0.08000
O 	O 	0.22700 0.50900 0.43400 -0.55500
O 	O 	0.17800 0.55000 0.64200 -0.72800
O 	O 	0.74400 0.53300 0.05000 -0.50200
O 	O 	0.77300 0.57800 0.83300 -0.55500
O 	O 	0.91400 0.43600 0.91700 -0.67500
O 	O 	0.83000 0.37000 0.07100 -0.48900
C 	C 	0.24700 0.95600 0.55900 0.58900
C 	C 	0.42700 0.91900 0.59100 -0.06500
C 	C 	0.70300 0.93800 0.91900 0.46900
C 	C 	0.51300 0.91200 0.88400 -0.03200
C 	C 	0.84900 0.11900 0.95000 0.49200
C 	C 	0.78100 0.18100 0.82300 -0.08600
Nd	Nd	0.99200 0.02400 0.21800 2.22200
N 	N 	0.46600 0.87200 0.73200 -0.08000
O 	O 	0.22700 0.99100 0.43400 -0.55100
O 	O 	0.17800 0.95000 0.64200 -0.72500
O 	O 	0.74400 0.96700 0.05000 -0.49000
O 	O 	0.77300 0.92200 0.83300 -0.54900
O 	O 	0.91400 0.06400 0.91700 -0.67100
O 	O 	0.83000 0.13000 0.07100 -0.49100
C 	C 	0.75300 0.45600 0.44100 0.59200
C 	C 	0.57300 0.41900 0.40900 -0.06600
C 	C 	0.29700 0.43800 0.08100 0.47900
C 	C 	0.48700 0.41200 0.11600 -0.03100
C 	C 	0.15100 0.61900 0.05000 0.48900
C 	C 	0.21900 0.68100 0.17700 -0.08600
Nd	Nd	0.00800 0.52400 0.78200 2.24600
N 	N 	0.53400 0.37200 0.26800 -0.08000
O 	O 	0.77300 0.49100 0.56600 -0.55500
O 	O 	0.82200 0.45000 0.35800 -0.72800
O 	O 	0.25600 0.46700 0.95000 -0.50200
O 	O 	0.22700 0.42200 0.16700 -0.55500
O 	O 	0.08600 0.56400 0.08300 -0.67500
O 	O 	0.17000 0.63000 0.92900 -0.48900
N 	N 	0.21800 0.75000 0.08700 -0.07100
N 	N 	0.78200 0.25000 0.91300 -0.07100
