data_crystal

_cell_length_a 13.07350
_cell_length_b 13.08280
_cell_length_c 15.65840
_cell_angle_alpha 82.74100
_cell_angle_beta  68.05900
_cell_angle_gamma 84.18800

_symmetry_space_group_name_	'P 1'
_symmetry_space_group_name_H-M	'P 1'

loop_
_symmetry_equiv_pos_as_xyz
  x,y,z

loop_
_atom_site_label
_atom_site_type_symbol
_atom_site_fract_x
_atom_site_fract_y
_atom_site_fract_z
_atom_site_charge
Zn	Zn	0.92263 0.69994 0.83111 1.21600
Zn	Zn	0.03486 0.69837 0.62769 1.21900
O 	O 	0.94410 0.85120 0.78470 -0.47100
O 	O 	0.02070 0.85250 0.63150 -0.46100
O 	O 	0.93690 0.54380 0.81580 -0.45900
O 	O 	0.02860 0.54350 0.66400 -0.46000
O 	O 	0.78970 0.70970 0.79320 -0.46600
O 	O 	0.87310 0.70060 0.64140 -0.47300
O 	O 	0.08040 0.68610 0.82750 -0.45700
O 	O 	0.16110 0.69600 0.67390 -0.46700
N 	N 	0.85100 0.68220 0.97200 -0.26600
N 	N 	0.12500 0.68390 0.49230 -0.26000
C 	C 	0.75340 0.72210 0.02340 0.11000
H 	H 	0.71530 0.77180 0.99460 -0.01700
C 	C 	0.70400 0.69420 0.11850 -0.18700
H 	H 	0.63470 0.72600 0.15330 0.09000
C 	C 	0.75630 0.62050 0.16150 0.15200
C 	C 	0.85860 0.58200 0.10820 -0.19300
H 	H 	0.89950 0.53370 0.13540 0.10800
C 	C 	0.90160 0.61320 0.01580 0.11400
H 	H 	0.97210 0.58400 0.98040 -0.01200
C 	C 	0.70940 0.57820 0.25940 -0.12900
H 	H 	0.75870 0.54100 0.28540 0.08100
C 	C 	0.60600 0.58810 0.31280 -0.01800
H 	H 	0.55790 0.62870 0.28730 0.03500
C 	C 	0.44250 0.55730 0.45190 -0.05700
H 	H 	0.40170 0.59690 0.41890 0.05300
C 	C 	0.55620 0.54220 0.40910 0.02500
C 	C 	0.61250 0.48380 0.45900 -0.05600
H 	H 	0.69030 0.47180 0.43140 0.05500
C 	C 	0.18840 0.75730 0.43670 0.10300
H 	H 	0.18450 0.82210 0.45950 -0.00700
C 	C 	0.25880 0.74340 0.34820 -0.17500
H 	H 	0.30290 0.79780 0.31140 0.09000
C 	C 	0.26600 0.65030 0.31240 0.12800
C 	C 	0.19960 0.57300 0.37050 -0.16600
H 	H 	0.20130 0.50770 0.34930 0.09500
C 	C 	0.13190 0.59310 0.45860 0.09200
H 	H 	0.08770 0.53990 0.49770 -0.00200
C 	C 	0.34480 0.63150 0.21960 -0.11200
H 	H 	0.40360 0.67630 0.19120 0.06500
C 	C 	0.33910 0.55650 0.17300 -0.03500
H 	H 	0.27630 0.51620 0.19960 0.04900
C 	C 	0.52760 0.56530 0.04960 -0.05600
H 	H 	0.54710 0.61030 0.08340 0.05000
C 	C 	0.42090 0.52980 0.08360 0.03000
C 	C 	0.39490 0.46470 0.03310 -0.06100
H 	H 	0.32280 0.43990 0.05530 0.05500
C 	C 	0.98630 0.89530 0.70480 0.38900
C 	C 	0.99430 0.01000 0.69610 -0.08600
C 	C 	0.95400 0.06220 0.77240 -0.03000
H 	H 	0.91930 0.02540 0.83110 0.05600
C 	C 	0.96200 0.16980 0.76710 0.02600
C 	C 	0.01630 0.22350 0.67960 0.02400
C 	C 	0.05630 0.16780 0.60050 -0.08700
H 	H 	0.09110 0.20310 0.54120 0.06300
C 	C 	0.04550 0.06420 0.60840 0.01600
H 	H 	0.07260 0.02810 0.55460 0.04200
C 	C 	0.91660 0.22600 0.84520 -0.08700
H 	H 	0.88000 0.19050 0.90410 0.06100
C 	C 	0.92380 0.32970 0.83840 0.01900
H 	H 	0.89190 0.36590 0.89210 0.03600
C 	C 	0.97860 0.38370 0.75170 -0.09100
C 	C 	0.02370 0.33090 0.67440 -0.02700
H 	H 	0.06050 0.36760 0.61610 0.05400
C 	C 	0.98200 0.49930 0.74330 0.37700
C 	C 	0.78990 0.70650 0.71250 0.38900
C 	C 	0.67890 0.70690 0.70440 -0.09700
C 	C 	0.67090 0.70810 0.61760 0.02300
H 	H 	0.73590 0.70960 0.56340 0.03300
C 	C 	0.57020 0.70700 0.61040 -0.09000
H 	H 	0.56600 0.70980 0.55090 0.06500
C 	C 	0.47240 0.70180 0.68940 0.02600
C 	C 	0.48010 0.69740 0.77770 0.02400
C 	C 	0.58520 0.70110 0.78260 -0.02700
H 	H 	0.59120 0.69960 0.84140 0.05500
C 	C 	0.36690 0.70090 0.68360 -0.02800
H 	H 	0.36070 0.70660 0.62460 0.05600
C 	C 	0.27420 0.69210 0.76150 -0.09100
C 	C 	0.28310 0.68410 0.84890 0.02100
H 	H 	0.21860 0.67650 0.90310 0.03800
C 	C 	0.38280 0.68700 0.85690 -0.08700
H 	H 	0.38700 0.68200 0.91660 0.06400
C 	C 	0.16360 0.69170 0.75380 0.38200
Zn	Zn	0.07737 0.30006 0.16889 1.21500
Zn	Zn	0.96514 0.30163 0.37231 1.21800
O 	O 	0.05590 0.14880 0.21530 -0.47200
O 	O 	0.97930 0.14750 0.36850 -0.46200
O 	O 	0.06310 0.45620 0.18420 -0.46000
O 	O 	0.97140 0.45650 0.33600 -0.46100
O 	O 	0.21030 0.29030 0.20680 -0.46600
O 	O 	0.12690 0.29940 0.35860 -0.47300
O 	O 	0.91960 0.31390 0.17250 -0.45700
O 	O 	0.83890 0.30400 0.32610 -0.46700
N 	N 	0.14900 0.31780 0.02800 -0.26600
N 	N 	0.87500 0.31610 0.50770 -0.26000
C 	C 	0.24660 0.27790 0.97660 0.11000
H 	H 	0.28470 0.22820 0.00540 -0.01700
C 	C 	0.29600 0.30580 0.88150 -0.18700
H 	H 	0.36530 0.27400 0.84670 0.09000
C 	C 	0.24370 0.37950 0.83850 0.15200
C 	C 	0.14140 0.41800 0.89180 -0.19300
H 	H 	0.10050 0.46630 0.86460 0.10800
C 	C 	0.09840 0.38680 0.98420 0.11400
H 	H 	0.02790 0.41600 0.01960 -0.01200
C 	C 	0.29060 0.42180 0.74060 -0.12900
H 	H 	0.24130 0.45900 0.71460 0.08100
C 	C 	0.39400 0.41190 0.68720 -0.01800
H 	H 	0.44210 0.37130 0.71270 0.03500
C 	C 	0.55750 0.44270 0.54810 -0.05700
H 	H 	0.59830 0.40310 0.58110 0.05300
C 	C 	0.44380 0.45780 0.59090 0.02500
C 	C 	0.38750 0.51620 0.54100 -0.05600
H 	H 	0.30970 0.52820 0.56860 0.05500
C 	C 	0.81160 0.24270 0.56330 0.10300
H 	H 	0.81550 0.17790 0.54050 -0.00700
C 	C 	0.74120 0.25660 0.65180 -0.17500
H 	H 	0.69710 0.20220 0.68860 0.09000
C 	C 	0.73400 0.34970 0.68760 0.12800
C 	C 	0.80040 0.42700 0.62950 -0.16600
H 	H 	0.79870 0.49230 0.65070 0.09500
C 	C 	0.86810 0.40690 0.54140 0.09200
H 	H 	0.91230 0.46010 0.50230 -0.00200
C 	C 	0.65520 0.36850 0.78040 -0.11200
H 	H 	0.59640 0.32370 0.80880 0.06500
C 	C 	0.66090 0.44350 0.82700 -0.03500
H 	H 	0.72370 0.48380 0.80040 0.04900
C 	C 	0.47240 0.43470 0.95040 -0.05600
H 	H 	0.45290 0.38970 0.91660 0.05000
C 	C 	0.57910 0.47020 0.91640 0.03000
C 	C 	0.60510 0.53530 0.96690 -0.06100
H 	H 	0.67720 0.56010 0.94470 0.05500
C 	C 	0.01370 0.10470 0.29520 0.38900
C 	C 	0.00570 0.99000 0.30390 -0.08600
C 	C 	0.04600 0.93780 0.22760 -0.03000
H 	H 	0.08070 0.97460 0.16890 0.05600
C 	C 	0.03800 0.83020 0.23290 0.02600
C 	C 	0.98370 0.77650 0.32040 0.02400
C 	C 	0.94370 0.83220 0.39950 -0.08700
H 	H 	0.90890 0.79690 0.45880 0.06300
C 	C 	0.95450 0.93580 0.39160 0.01600
H 	H 	0.92740 0.97190 0.44540 0.04200
C 	C 	0.08340 0.77400 0.15480 -0.08700
H 	H 	0.12000 0.80950 0.09590 0.06100
C 	C 	0.07620 0.67030 0.16160 0.01900
H 	H 	0.10810 0.63410 0.10790 0.03600
C 	C 	0.02140 0.61630 0.24830 -0.09100
C 	C 	0.97630 0.66910 0.32560 -0.02700
H 	H 	0.93950 0.63240 0.38390 0.05400
C 	C 	0.01800 0.50070 0.25670 0.37700
C 	C 	0.21010 0.29350 0.28750 0.38900
C 	C 	0.32110 0.29310 0.29560 -0.09700
C 	C 	0.32910 0.29190 0.38240 0.02300
H 	H 	0.26410 0.29040 0.43660 0.03300
C 	C 	0.42980 0.29300 0.38960 -0.09000
H 	H 	0.43400 0.29020 0.44910 0.06500
C 	C 	0.52760 0.29820 0.31060 0.02600
C 	C 	0.51990 0.30260 0.22230 0.02400
C 	C 	0.41480 0.29890 0.21740 -0.02700
H 	H 	0.40880 0.30040 0.15860 0.05500
C 	C 	0.63310 0.29910 0.31640 -0.02800
H 	H 	0.63930 0.29340 0.37540 0.05600
C 	C 	0.72580 0.30790 0.23850 -0.09100
C 	C 	0.71690 0.31590 0.15110 0.02100
H 	H 	0.78140 0.32350 0.09690 0.03800
C 	C 	0.61720 0.31300 0.14310 -0.08700
H 	H 	0.61300 0.31800 0.08340 0.06400
C 	C 	0.83640 0.30830 0.24620 0.38200
