data_crystal

_cell_length_a 17.45400
_cell_length_b 13.62000
_cell_length_c 19.53900
_cell_angle_alpha 90.00000
_cell_angle_beta  94.06400
_cell_angle_gamma 90.00000

_symmetry_space_group_name_	'P 1'
_symmetry_space_group_name_H-M	'P 1'

loop_
_symmetry_equiv_pos_as_xyz
  x,y,z

loop_
_atom_site_label
_atom_site_type_symbol
_atom_site_fract_x
_atom_site_fract_y
_atom_site_fract_z
_atom_site_charge
Tb	Tb	0.38744 0.98420 0.95177 1.78100
Tb	Tb	0.88916 0.53258 0.03414 1.80700
N 	N 	0.38770 0.30750 0.85730 -0.18100
N 	N 	0.91360 0.16510 0.17250 -0.18700
N 	N 	0.08990 0.71140 0.22460 0.00700
O 	O 	0.45240 0.83380 0.93900 -0.48300
O 	O 	0.56340 0.88160 0.98860 -0.54100
O 	O 	0.78760 0.65170 0.99460 -0.40600
O 	O 	0.76690 0.49890 0.96760 -0.42700
O 	O 	0.28390 0.86840 0.97290 -0.41600
O 	O 	0.26620 0.02120 0.00160 -0.41500
O 	O 	0.97120 0.66590 0.04030 -0.51800
O 	O 	0.08340 0.62240 0.99980 -0.52300
O 	O 	0.41260 0.92590 0.06300 -0.48000
O 	O 	0.52080 0.97000 0.12130 -0.55000
O 	O 	0.52840 0.98280 0.37210 -0.54600
O 	O 	0.42270 0.94880 0.42420 -0.55000
C 	C 	0.52240 0.81940 0.95850 0.49700
C 	C 	0.74320 0.57940 0.97390 0.33200
C 	C 	0.55460 0.72160 0.94400 -0.18500
C 	C 	0.63120 0.70260 0.96230 0.07800
H 	H 	0.66240 0.74980 0.98450 0.01200
C 	C 	0.66210 0.60500 0.94540 -0.11900
C 	C 	0.61320 0.53470 0.92410 0.04000
H 	H 	0.63260 0.47230 0.91710 0.02600
C 	C 	0.53510 0.54930 0.91200 -0.10100
C 	C 	0.50720 0.64490 0.92160 0.07100
H 	H 	0.45510 0.65690 0.91250 0.01200
C 	C 	0.48290 0.47080 0.88950 0.15700
C 	C 	0.51070 0.37940 0.86650 -0.19700
H 	H 	0.56320 0.37010 0.86380 0.10100
C 	C 	0.46050 0.30460 0.84840 0.12600
H 	H 	0.47990 0.24860 0.82860 -0.00800
C 	C 	0.36140 0.39000 0.86840 0.15500
H 	H 	0.30840 0.39860 0.86320 -0.05200
C 	C 	0.40690 0.47120 0.88860 -0.22900
H 	H 	0.38270 0.52820 0.90200 0.10000
C 	C 	0.24370 0.93160 0.99780 0.33500
C 	C 	0.03960 0.68490 0.02750 0.50200
C 	C 	0.16770 0.90690 0.02330 -0.13900
C 	C 	0.13940 0.81040 0.01790 0.11600
H 	H 	0.17050 0.76270 0.99990 0.00500
C 	C 	0.06790 0.78230 0.03760 -0.22300
C 	C 	0.02590 0.85280 0.07130 0.09100
H 	H 	0.97870 0.83540 0.08700 -0.00400
C 	C 	0.05330 0.95030 0.08240 -0.13000
C 	C 	0.12730 0.97320 0.06030 0.05800
H 	H 	0.14880 0.03420 0.07100 0.02000
C 	C 	0.01100 0.02380 0.12070 0.22400
C 	C 	0.94550 0.00360 0.14840 -0.27300
H 	H 	0.92960 0.93860 0.14990 0.11900
C 	C 	0.89890 0.07660 0.17580 0.17400
H 	H 	0.85540 0.05720 0.19710 -0.04400
C 	C 	0.97410 0.18780 0.14100 0.17900
H 	H 	0.98610 0.25360 0.13490 -0.03100
C 	C 	0.01940 0.11930 0.11710 -0.27500
H 	H 	0.06190 0.14160 0.09550 0.12800
C 	C 	0.45440 0.94030 0.11910 0.52000
C 	C 	0.46280 0.95070 0.37690 0.53900
C 	C 	0.41910 0.91530 0.18150 -0.23700
C 	C 	0.45360 0.94370 0.24350 0.15000
H 	H 	0.50040 0.97660 0.24520 -0.01300
C 	C 	0.41890 0.92360 0.30420 -0.19900
C 	C 	0.34940 0.88030 0.30180 0.11300
H 	H 	0.32620 0.87100 0.34270 0.00400
C 	C 	0.31340 0.85070 0.24480 -0.14200
C 	C 	0.34730 0.87100 0.18110 0.10200
H 	H 	0.32110 0.85430 0.13970 0.00800
C 	C 	0.23280 0.80350 0.23900 0.19700
C 	C 	0.17180 0.83920 0.27300 -0.26000
H 	H 	0.17850 0.89430 0.30100 0.12800
C 	C 	0.10090 0.79350 0.26580 0.23200
H 	H 	0.06020 0.81830 0.28880 -0.04900
C 	C 	0.15070 0.67550 0.19000 0.16400
H 	H 	0.14400 0.62050 0.16210 -0.02000
C 	C 	0.22130 0.72170 0.19700 -0.23500
H 	H 	0.26160 0.69770 0.17330 0.11800
C 	C 	0.23330 0.73890 0.29400 -0.09900
C 	C 	0.16940 0.68200 0.30550 0.04300
C 	C 	0.10370 0.75500 0.20650 -0.22300
C 	C 	0.16760 0.81200 0.19510 0.05000
H 	H 	0.27730 0.73340 0.32360 0.07000
H 	H 	0.17030 0.63940 0.34250 0.02600
H 	H 	0.05980 0.76090 0.17680 0.10300
H 	H 	0.16670 0.85470 0.15810 0.01800
N 	N 	0.10430 0.69100 0.26140 -0.13200
Tb	Tb	0.11256 0.48420 0.54823 1.78800
Tb	Tb	0.61084 0.03258 0.46586 1.80600
N 	N 	0.11230 0.80750 0.64270 -0.17900
N 	N 	0.58640 0.66510 0.32750 -0.18400
N 	N 	0.41010 0.21140 0.27540 0.00700
O 	O 	0.04760 0.33380 0.56100 -0.48100
O 	O 	0.93660 0.38160 0.51140 -0.54000
O 	O 	0.71240 0.15170 0.50540 -0.40500
O 	O 	0.73310 0.99890 0.53240 -0.42500
O 	O 	0.21610 0.36840 0.52710 -0.41700
O 	O 	0.23380 0.52120 0.49840 -0.41800
O 	O 	0.52880 0.16590 0.45970 -0.51600
O 	O 	0.41660 0.12240 0.50020 -0.51900
O 	O 	0.08740 0.42590 0.43700 -0.48300
O 	O 	0.97920 0.47000 0.37870 -0.55400
O 	O 	0.97160 0.48280 0.12790 -0.54900
O 	O 	0.07730 0.44880 0.07580 -0.55000
C 	C 	0.97760 0.31940 0.54150 0.49400
C 	C 	0.75680 0.07940 0.52610 0.32800
C 	C 	0.94540 0.22160 0.55600 -0.18000
C 	C 	0.86880 0.20260 0.53770 0.07300
H 	H 	0.83760 0.24980 0.51550 0.01400
C 	C 	0.83790 0.10500 0.55460 -0.11300
C 	C 	0.88680 0.03470 0.57590 0.02900
H 	H 	0.86740 0.97230 0.58290 0.03100
C 	C 	0.96490 0.04930 0.58800 -0.09100
C 	C 	0.99280 0.14490 0.57840 0.06000
H 	H 	0.04490 0.15690 0.58750 0.01800
C 	C 	0.01710 0.97080 0.61050 0.14600
C 	C 	0.98930 0.87940 0.63350 -0.18300
H 	H 	0.93680 0.87010 0.63620 0.09700
C 	C 	0.03950 0.80460 0.65160 0.11600
H 	H 	0.02010 0.74860 0.67140 -0.00600
C 	C 	0.13860 0.89000 0.63160 0.15300
H 	H 	0.19160 0.89860 0.63680 -0.05200
C 	C 	0.09310 0.97120 0.61140 -0.22800
H 	H 	0.11730 0.02820 0.59800 0.10300
C 	C 	0.25630 0.43160 0.50220 0.34100
C 	C 	0.46040 0.18490 0.47250 0.49700
C 	C 	0.33230 0.40690 0.47670 -0.14000
C 	C 	0.36060 0.31040 0.48210 0.10800
H 	H 	0.32950 0.26270 0.50010 0.01000
C 	C 	0.43210 0.28230 0.46240 -0.21800
C 	C 	0.47410 0.35280 0.42870 0.08700
H 	H 	0.52130 0.33540 0.41300 -0.00300
C 	C 	0.44670 0.45030 0.41760 -0.12200
C 	C 	0.37270 0.47320 0.43970 0.05300
H 	H 	0.35120 0.53420 0.42900 0.02200
C 	C 	0.48900 0.52380 0.37930 0.20800
C 	C 	0.55450 0.50360 0.35160 -0.24700
H 	H 	0.57040 0.43860 0.35010 0.10700
C 	C 	0.60110 0.57660 0.32420 0.16300
H 	H 	0.64460 0.55720 0.30290 -0.03900
C 	C 	0.52590 0.68780 0.35900 0.18000
H 	H 	0.51390 0.75360 0.36510 -0.03000
C 	C 	0.48060 0.61930 0.38290 -0.27000
H 	H 	0.43810 0.64160 0.40450 0.12700
C 	C 	0.04560 0.44030 0.38090 0.52300
C 	C 	0.03720 0.45070 0.12310 0.54200
C 	C 	0.08090 0.41530 0.31850 -0.24000
C 	C 	0.04640 0.44370 0.25650 0.15500
H 	H 	0.99960 0.47660 0.25480 -0.01700
C 	C 	0.08110 0.42360 0.19580 -0.20200
C 	C 	0.15060 0.38030 0.19820 0.11600
H 	H 	0.17380 0.37100 0.15730 0.00300
C 	C 	0.18660 0.35070 0.25520 -0.14400
C 	C 	0.15270 0.37100 0.31890 0.10500
H 	H 	0.17890 0.35430 0.36030 0.00700
C 	C 	0.26720 0.30350 0.26100 0.19800
C 	C 	0.32820 0.33920 0.22700 -0.26000
H 	H 	0.32150 0.39430 0.19900 0.12800
C 	C 	0.39910 0.29350 0.23420 0.23300
H 	H 	0.43980 0.31830 0.21120 -0.04900
C 	C 	0.34930 0.17550 0.31000 0.16400
H 	H 	0.35600 0.12050 0.33790 -0.02000
C 	C 	0.27870 0.22170 0.30300 -0.23500
H 	H 	0.23840 0.19770 0.32670 0.11800
C 	C 	0.26670 0.23890 0.20600 -0.10000
C 	C 	0.33060 0.18200 0.19450 0.04300
C 	C 	0.39630 0.25500 0.29350 -0.22300
C 	C 	0.33240 0.31200 0.30490 0.05000
H 	H 	0.22270 0.23340 0.17640 0.07000
H 	H 	0.32970 0.13940 0.15750 0.02600
H 	H 	0.44020 0.26090 0.32320 0.10300
H 	H 	0.33330 0.35470 0.34190 0.01800
N 	N 	0.39570 0.19100 0.23860 -0.13200
Tb	Tb	0.61256 0.01580 0.04823 1.78100
Tb	Tb	0.11084 0.46742 0.96586 1.80700
N 	N 	0.61230 0.69250 0.14270 -0.18100
N 	N 	0.08640 0.83490 0.82750 -0.18700
N 	N 	0.91010 0.28860 0.77540 0.00700
O 	O 	0.54760 0.16620 0.06100 -0.48300
O 	O 	0.43660 0.11840 0.01140 -0.54100
O 	O 	0.21240 0.34830 0.00540 -0.40600
O 	O 	0.23310 0.50110 0.03240 -0.42700
O 	O 	0.71610 0.13160 0.02710 -0.41600
O 	O 	0.73380 0.97880 0.99840 -0.41500
O 	O 	0.02880 0.33410 0.95970 -0.51800
O 	O 	0.91660 0.37760 0.00020 -0.52300
O 	O 	0.58740 0.07410 0.93700 -0.48000
O 	O 	0.47920 0.03000 0.87870 -0.55000
O 	O 	0.47160 0.01720 0.62790 -0.54600
O 	O 	0.57730 0.05120 0.57580 -0.55000
C 	C 	0.47760 0.18060 0.04150 0.49700
C 	C 	0.25680 0.42060 0.02610 0.33200
C 	C 	0.44540 0.27840 0.05600 -0.18500
C 	C 	0.36880 0.29740 0.03770 0.07800
H 	H 	0.33760 0.25020 0.01550 0.01200
C 	C 	0.33790 0.39500 0.05460 -0.11900
C 	C 	0.38680 0.46530 0.07590 0.04000
H 	H 	0.36740 0.52770 0.08290 0.02600
C 	C 	0.46490 0.45070 0.08800 -0.10100
C 	C 	0.49280 0.35510 0.07840 0.07100
H 	H 	0.54490 0.34310 0.08750 0.01200
C 	C 	0.51710 0.52920 0.11050 0.15700
C 	C 	0.48930 0.62060 0.13350 -0.19700
H 	H 	0.43680 0.62990 0.13620 0.10100
C 	C 	0.53950 0.69540 0.15160 0.12600
H 	H 	0.52010 0.75140 0.17140 -0.00800
C 	C 	0.63860 0.61000 0.13160 0.15500
H 	H 	0.69160 0.60140 0.13680 -0.05200
C 	C 	0.59310 0.52880 0.11140 -0.22900
H 	H 	0.61730 0.47180 0.09800 0.10000
C 	C 	0.75630 0.06840 0.00220 0.33500
C 	C 	0.96040 0.31510 0.97250 0.50200
C 	C 	0.83230 0.09310 0.97670 -0.13900
C 	C 	0.86060 0.18960 0.98210 0.11600
H 	H 	0.82950 0.23730 0.00010 0.00500
C 	C 	0.93210 0.21770 0.96240 -0.22300
C 	C 	0.97410 0.14720 0.92870 0.09100
H 	H 	0.02130 0.16460 0.91300 -0.00400
C 	C 	0.94670 0.04970 0.91760 -0.13000
C 	C 	0.87270 0.02680 0.93970 0.05800
H 	H 	0.85120 0.96580 0.92900 0.02000
C 	C 	0.98900 0.97620 0.87930 0.22400
C 	C 	0.05450 0.99640 0.85160 -0.27300
H 	H 	0.07040 0.06140 0.85010 0.11900
C 	C 	0.10110 0.92340 0.82420 0.17400
H 	H 	0.14460 0.94280 0.80290 -0.04400
C 	C 	0.02590 0.81220 0.85900 0.17900
H 	H 	0.01390 0.74640 0.86510 -0.03100
C 	C 	0.98060 0.88070 0.88290 -0.27500
H 	H 	0.93810 0.85840 0.90450 0.12800
C 	C 	0.54560 0.05970 0.88090 0.52000
C 	C 	0.53720 0.04930 0.62310 0.53900
C 	C 	0.58090 0.08470 0.81850 -0.23700
C 	C 	0.54640 0.05630 0.75650 0.15000
H 	H 	0.49960 0.02340 0.75480 -0.01300
C 	C 	0.58110 0.07640 0.69580 -0.19900
C 	C 	0.65060 0.11970 0.69820 0.11300
H 	H 	0.67380 0.12900 0.65730 0.00400
C 	C 	0.68660 0.14930 0.75520 -0.14200
C 	C 	0.65270 0.12900 0.81890 0.10200
H 	H 	0.67890 0.14570 0.86030 0.00800
C 	C 	0.76720 0.19650 0.76100 0.19700
C 	C 	0.82820 0.16080 0.72700 -0.26000
H 	H 	0.82150 0.10570 0.69900 0.12800
C 	C 	0.89910 0.20650 0.73420 0.23200
H 	H 	0.93980 0.18170 0.71120 -0.04900
C 	C 	0.84930 0.32450 0.81000 0.16400
H 	H 	0.85600 0.37950 0.83790 -0.02000
C 	C 	0.77870 0.27830 0.80300 -0.23500
H 	H 	0.73840 0.30230 0.82670 0.11800
C 	C 	0.76670 0.26110 0.70600 -0.09900
C 	C 	0.83060 0.31800 0.69450 0.04300
C 	C 	0.89630 0.24500 0.79350 -0.22300
C 	C 	0.83240 0.18800 0.80490 0.05000
H 	H 	0.72270 0.26660 0.67640 0.07000
H 	H 	0.82970 0.36060 0.65750 0.02600
H 	H 	0.94020 0.23910 0.82320 0.10300
H 	H 	0.83330 0.14530 0.84190 0.01800
N 	N 	0.89570 0.30900 0.73860 -0.13200
Tb	Tb	0.88744 0.51580 0.45177 1.78800
Tb	Tb	0.38916 0.96742 0.53414 1.80600
N 	N 	0.88770 0.19250 0.35730 -0.17900
N 	N 	0.41360 0.33490 0.67250 -0.18400
N 	N 	0.58990 0.78860 0.72460 0.00700
O 	O 	0.95240 0.66620 0.43900 -0.48100
O 	O 	0.06340 0.61840 0.48860 -0.54000
O 	O 	0.28760 0.84830 0.49460 -0.40500
O 	O 	0.26690 0.00110 0.46760 -0.42500
O 	O 	0.78390 0.63160 0.47290 -0.41700
O 	O 	0.76620 0.47880 0.50160 -0.41800
O 	O 	0.47120 0.83410 0.54030 -0.51600
O 	O 	0.58340 0.87760 0.49980 -0.51900
O 	O 	0.91260 0.57410 0.56300 -0.48300
O 	O 	0.02080 0.53000 0.62130 -0.55400
O 	O 	0.02840 0.51720 0.87210 -0.54900
O 	O 	0.92270 0.55120 0.92420 -0.55000
C 	C 	0.02240 0.68060 0.45850 0.49400
C 	C 	0.24320 0.92060 0.47390 0.32800
C 	C 	0.05460 0.77840 0.44400 -0.18000
C 	C 	0.13120 0.79740 0.46230 0.07300
H 	H 	0.16240 0.75020 0.48450 0.01400
C 	C 	0.16210 0.89500 0.44540 -0.11300
C 	C 	0.11320 0.96530 0.42410 0.02900
H 	H 	0.13260 0.02770 0.41710 0.03100
C 	C 	0.03510 0.95070 0.41200 -0.09100
C 	C 	0.00720 0.85510 0.42160 0.06000
H 	H 	0.95510 0.84310 0.41250 0.01800
C 	C 	0.98290 0.02920 0.38950 0.14600
C 	C 	0.01070 0.12060 0.36650 -0.18300
H 	H 	0.06320 0.12990 0.36380 0.09700
C 	C 	0.96050 0.19540 0.34840 0.11600
H 	H 	0.97990 0.25140 0.32860 -0.00600
C 	C 	0.86140 0.11000 0.36840 0.15300
H 	H 	0.80840 0.10140 0.36320 -0.05200
C 	C 	0.90690 0.02880 0.38860 -0.22800
H 	H 	0.88270 0.97180 0.40200 0.10300
C 	C 	0.74370 0.56840 0.49780 0.34100
C 	C 	0.53960 0.81510 0.52750 0.49700
C 	C 	0.66770 0.59310 0.52330 -0.14000
C 	C 	0.63940 0.68960 0.51790 0.10800
H 	H 	0.67050 0.73730 0.49990 0.01000
C 	C 	0.56790 0.71770 0.53760 -0.21800
C 	C 	0.52590 0.64720 0.57130 0.08700
H 	H 	0.47870 0.66460 0.58700 -0.00300
C 	C 	0.55330 0.54970 0.58240 -0.12200
C 	C 	0.62730 0.52680 0.56030 0.05300
H 	H 	0.64880 0.46580 0.57100 0.02200
C 	C 	0.51100 0.47620 0.62070 0.20800
C 	C 	0.44550 0.49640 0.64840 -0.24700
H 	H 	0.42960 0.56140 0.64990 0.10700
C 	C 	0.39890 0.42340 0.67580 0.16300
H 	H 	0.35540 0.44280 0.69710 -0.03900
C 	C 	0.47410 0.31220 0.64100 0.18000
H 	H 	0.48610 0.24640 0.63490 -0.03000
C 	C 	0.51940 0.38070 0.61710 -0.27000
H 	H 	0.56190 0.35840 0.59550 0.12700
C 	C 	0.95440 0.55970 0.61910 0.52300
C 	C 	0.96280 0.54930 0.87690 0.54200
C 	C 	0.91910 0.58470 0.68150 -0.24000
C 	C 	0.95360 0.55630 0.74350 0.15500
H 	H 	0.00040 0.52340 0.74520 -0.01700
C 	C 	0.91890 0.57640 0.80420 -0.20200
C 	C 	0.84940 0.61970 0.80180 0.11600
H 	H 	0.82620 0.62900 0.84270 0.00300
C 	C 	0.81340 0.64930 0.74480 -0.14400
C 	C 	0.84730 0.62900 0.68110 0.10500
H 	H 	0.82110 0.64570 0.63970 0.00700
C 	C 	0.73280 0.69650 0.73900 0.19800
C 	C 	0.67180 0.66080 0.77300 -0.26000
H 	H 	0.67850 0.60570 0.80100 0.12800
C 	C 	0.60090 0.70650 0.76580 0.23300
H 	H 	0.56020 0.68170 0.78880 -0.04900
C 	C 	0.65070 0.82450 0.69000 0.16400
H 	H 	0.64400 0.87950 0.66210 -0.02000
C 	C 	0.72130 0.77830 0.69700 -0.23500
H 	H 	0.76160 0.80230 0.67330 0.11800
C 	C 	0.73330 0.76110 0.79400 -0.10000
C 	C 	0.66940 0.81800 0.80550 0.04300
C 	C 	0.60370 0.74500 0.70650 -0.22300
C 	C 	0.66760 0.68800 0.69510 0.05000
H 	H 	0.77730 0.76660 0.82360 0.07000
H 	H 	0.67030 0.86060 0.84250 0.02600
H 	H 	0.55980 0.73910 0.67680 0.10300
H 	H 	0.66670 0.64530 0.65810 0.01800
N 	N 	0.60430 0.80900 0.76140 -0.13200
