data_crystal

_cell_length_a 13.56090
_cell_length_b 17.04310
_cell_length_c 13.44250
_cell_angle_alpha 90.00000
_cell_angle_beta  90.93100
_cell_angle_gamma 90.00000

_symmetry_space_group_name_	'P 1'
_symmetry_space_group_name_H-M	'P 1'

loop_
_symmetry_equiv_pos_as_xyz
  x,y,z

loop_
_atom_site_label
_atom_site_type_symbol
_atom_site_fract_x
_atom_site_fract_y
_atom_site_fract_z
_atom_site_charge
P 	P 	0.60410 0.57179 0.89644 0.60200
H 	H 	0.50700 0.55950 0.93110 -0.01100
P 	P 	0.77393 0.56689 0.17188 0.53500
H 	H 	0.69300 0.51700 0.13580 -0.04100
P 	P 	0.74153 0.65801 0.54145 0.60100
H 	H 	0.83600 0.64210 0.57000 -0.04100
P 	P 	0.90124 0.42242 0.39240 0.57700
H 	H 	-0.00000 0.43180 0.42590 -0.00800
P 	P 	0.75330 0.34236 0.03547 0.61000
H 	H 	0.65500 0.35970 0.04980 -0.03200
P 	P 	0.61694 0.39599 0.34890 0.57900
H 	H 	0.62120 0.38000 0.24800 -0.02700
P 	P 	0.89021 0.58727 0.86442 0.60500
H 	H 	0.87510 0.61400 0.76700 -0.04000
P 	P 	0.72398 0.45042 0.65426 0.57300
H 	H 	0.80500 0.50000 0.63070 -0.05000
Be	Be	0.74740 0.53730 0.38130 1.48100
Be	Be	0.75300 0.45220 0.86860 1.48100
Be	Be	0.75150 0.66870 0.00080 1.48200
Be	Be	0.59910 0.58710 0.67500 1.48100
Be	Be	0.89690 0.42950 0.17020 1.48100
Be	Be	0.75400 0.33050 0.49220 1.48200
O 	O 	0.64700 0.63400 0.96130 -0.56000
O 	O 	0.65500 0.49400 0.90600 -0.61500
O 	O 	0.59230 0.60078 0.79220 -0.59200
O 	O 	0.77280 0.64234 0.11320 -0.52800
O 	O 	0.75510 0.58833 0.27960 -0.51900
O 	O 	0.86940 0.52222 0.16000 -0.55300
O 	O 	0.73940 0.73786 0.49680 -0.53800
O 	O 	0.71110 0.59853 0.46420 -0.55400
O 	O 	0.67770 0.65200 0.63250 -0.53800
O 	O 	0.86050 0.35460 0.45030 -0.54900
O 	O 	0.90630 0.40186 0.28440 -0.57700
O 	O 	0.85070 0.49895 0.41320 -0.60600
O 	O 	0.81000 0.37740 0.11990 -0.56700
O 	O 	0.76390 0.25543 0.04180 -0.52700
O 	O 	0.78000 0.37376 0.93460 -0.53600
O 	O 	0.67390 0.33151 0.40180 -0.54100
O 	O 	0.65890 0.47617 0.36370 -0.58800
O 	O 	0.50860 0.39387 0.37640 -0.51100
O 	O 	0.84300 0.64480 0.93220 -0.55800
O 	O 	0.84860 0.50650 0.87020 -0.59800
O 	O 	0.00030 0.58743 0.88510 -0.52800
O 	O 	0.63030 0.49873 0.64870 -0.56200
O 	O 	0.71900 0.38566 0.57980 -0.55000
O 	O 	0.74170 0.41642 0.75720 -0.53400
P 	P 	0.39590 0.07179 0.60356 0.60400
H 	H 	0.49300 0.05950 0.56890 -0.01000
P 	P 	0.22607 0.06689 0.32812 0.53600
H 	H 	0.30700 0.01700 0.36420 -0.03800
P 	P 	0.25847 0.15801 0.95855 0.59300
H 	H 	0.16400 0.14210 0.93000 -0.04000
P 	P 	0.09876 0.92242 0.10760 0.57900
H 	H 	-0.00000 0.93180 0.07410 -0.00700
P 	P 	0.24670 0.84236 0.46453 0.61000
H 	H 	0.34500 0.85970 0.45020 -0.03300
P 	P 	0.38306 0.89599 0.15110 0.57900
H 	H 	0.37880 0.88000 0.25200 -0.02700
P 	P 	0.10979 0.08727 0.63558 0.60400
H 	H 	0.12490 0.11400 0.73300 -0.04000
P 	P 	0.27602 0.95042 0.84574 0.57500
H 	H 	0.19500 0.00000 0.86930 -0.05200
Be	Be	0.25260 0.03730 0.11870 1.48100
Be	Be	0.24700 0.95220 0.63140 1.48100
Be	Be	0.24850 0.16870 0.49920 1.48200
Be	Be	0.40090 0.08710 0.82500 1.48100
Be	Be	0.10310 0.92950 0.32980 1.48100
Be	Be	0.24600 0.83050 0.00780 1.48200
O 	O 	0.35300 0.13400 0.53870 -0.56100
O 	O 	0.34500 0.99400 0.59400 -0.61700
O 	O 	0.40770 0.10078 0.70780 -0.59200
O 	O 	0.22720 0.14234 0.38680 -0.52500
O 	O 	0.24490 0.08833 0.22040 -0.51600
O 	O 	0.13060 0.02222 0.34000 -0.54900
O 	O 	0.26060 0.23786 0.00320 -0.53100
O 	O 	0.28890 0.09853 0.03580 -0.54600
O 	O 	0.32230 0.15200 0.86750 -0.53800
O 	O 	0.13950 0.85460 0.04970 -0.54900
O 	O 	0.09370 0.90186 0.21560 -0.57700
O 	O 	0.14930 0.99895 0.08680 -0.60900
O 	O 	0.19000 0.87740 0.38010 -0.56800
O 	O 	0.23610 0.75543 0.45820 -0.52800
O 	O 	0.22000 0.87376 0.56540 -0.53600
O 	O 	0.32610 0.83151 0.09820 -0.54200
O 	O 	0.34110 0.97617 0.13630 -0.59200
O 	O 	0.49140 0.89387 0.12360 -0.51300
O 	O 	0.15700 0.14480 0.56780 -0.55900
O 	O 	0.15140 0.00650 0.62980 -0.59800
O 	O 	0.99970 0.08743 0.61490 -0.52600
O 	O 	0.36970 0.99873 0.85130 -0.56100
O 	O 	0.28100 0.88566 0.92020 -0.54800
O 	O 	0.25830 0.91642 0.74280 -0.53400
P 	P 	0.39590 0.42821 0.10356 0.60300
H 	H 	0.49300 0.44050 0.06890 -0.01000
P 	P 	0.22607 0.43311 0.82812 0.53600
H 	H 	0.30700 0.48300 0.86420 -0.04000
P 	P 	0.25847 0.34199 0.45855 0.60200
H 	H 	0.16400 0.35790 0.43000 -0.04000
P 	P 	0.09876 0.57758 0.60760 0.57900
H 	H 	-0.00000 0.56820 0.57410 -0.00700
P 	P 	0.24670 0.65764 0.96453 0.61000
H 	H 	0.34500 0.64030 0.95020 -0.03200
P 	P 	0.38306 0.60401 0.65110 0.57900
H 	H 	0.37880 0.62000 0.75200 -0.02700
P 	P 	0.10979 0.41273 0.13558 0.60700
H 	H 	0.12490 0.38600 0.23300 -0.04000
P 	P 	0.27602 0.54958 0.34574 0.57300
H 	H 	0.19500 0.50000 0.36930 -0.05000
Be	Be	0.25260 0.46270 0.61870 1.48100
Be	Be	0.24700 0.54780 0.13140 1.48100
Be	Be	0.24850 0.33130 0.99920 1.48200
Be	Be	0.40090 0.41290 0.32500 1.48100
Be	Be	0.10310 0.57050 0.82980 1.48100
Be	Be	0.24600 0.66950 0.50780 1.48200
O 	O 	0.35300 0.36600 0.03870 -0.56000
O 	O 	0.34500 0.50600 0.09400 -0.61500
O 	O 	0.40770 0.39922 0.20780 -0.59200
O 	O 	0.22720 0.35766 0.88680 -0.52700
O 	O 	0.24490 0.41167 0.72040 -0.51900
O 	O 	0.13060 0.47778 0.84000 -0.55200
O 	O 	0.26060 0.26214 0.50320 -0.53700
O 	O 	0.28890 0.40147 0.53580 -0.55400
O 	O 	0.32230 0.34800 0.36750 -0.53800
O 	O 	0.13950 0.64540 0.54970 -0.54800
O 	O 	0.09370 0.59814 0.71560 -0.57700
O 	O 	0.14930 0.50105 0.58680 -0.60600
O 	O 	0.19000 0.62260 0.88010 -0.56700
O 	O 	0.23610 0.74457 0.95820 -0.52700
O 	O 	0.22000 0.62624 0.06540 -0.53500
O 	O 	0.32610 0.66849 0.59820 -0.54100
O 	O 	0.34110 0.52383 0.63630 -0.58800
O 	O 	0.49140 0.60613 0.62360 -0.51100
O 	O 	0.15700 0.35520 0.06780 -0.55800
O 	O 	0.15140 0.49350 0.12980 -0.59800
O 	O 	0.99970 0.41257 0.11490 -0.53000
O 	O 	0.36970 0.50127 0.35130 -0.56200
O 	O 	0.28100 0.61434 0.42020 -0.55000
O 	O 	0.25830 0.58358 0.24280 -0.53400
P 	P 	0.60410 0.92821 0.39644 0.59900
H 	H 	0.50700 0.94050 0.43110 -0.01100
P 	P 	0.77393 0.93311 0.67188 0.53600
H 	H 	0.69300 0.98300 0.63580 -0.04100
P 	P 	0.74153 0.84199 0.04145 0.59300
H 	H 	0.83600 0.85790 0.07000 -0.04200
P 	P 	0.90124 0.07758 0.89240 0.58100
H 	H 	0.00000 0.06820 0.92590 -0.01000
P 	P 	0.75330 0.15764 0.53547 0.61000
H 	H 	0.65500 0.14030 0.54980 -0.03200
P 	P 	0.61694 0.10401 0.84890 0.57900
H 	H 	0.62120 0.12000 0.74800 -0.02700
P 	P 	0.89021 0.91273 0.36442 0.60200
H 	H 	0.87510 0.88600 0.26700 -0.04200
P 	P 	0.72398 0.04958 0.15426 0.57400
H 	H 	0.80500 0.00000 0.13070 -0.04700
Be	Be	0.74740 0.96270 0.88130 1.48100
Be	Be	0.75300 0.04780 0.36860 1.48100
Be	Be	0.75150 0.83130 0.50080 1.48200
Be	Be	0.59910 0.91290 0.17500 1.48000
Be	Be	0.89690 0.07050 0.67020 1.48100
Be	Be	0.75400 0.16950 0.99220 1.48200
O 	O 	0.64700 0.86600 0.46130 -0.56100
O 	O 	0.65500 0.00600 0.40600 -0.61100
O 	O 	0.59230 0.89922 0.29220 -0.59300
O 	O 	0.77280 0.85766 0.61320 -0.52600
O 	O 	0.75510 0.91167 0.77960 -0.51800
O 	O 	0.86940 0.97778 0.66000 -0.55300
O 	O 	0.73940 0.76214 0.99680 -0.53100
O 	O 	0.71110 0.90147 0.96420 -0.54900
O 	O 	0.67770 0.84800 0.13250 -0.53900
O 	O 	0.86050 0.14540 0.95030 -0.54900
O 	O 	0.90630 0.09814 0.78440 -0.57600
O 	O 	0.85070 0.00105 0.91320 -0.60600
O 	O 	0.81000 0.12260 0.61990 -0.56600
O 	O 	0.76390 0.24457 0.54180 -0.52800
O 	O 	0.78000 0.12624 0.43460 -0.53500
O 	O 	0.67390 0.16849 0.90180 -0.54200
O 	O 	0.65890 0.02383 0.86370 -0.58900
O 	O 	0.50860 0.10613 0.87640 -0.51200
O 	O 	0.84300 0.85520 0.43220 -0.56000
O 	O 	0.84860 0.99350 0.37020 -0.60200
O 	O 	0.00030 0.91257 0.38510 -0.52600
O 	O 	0.63030 0.00127 0.14870 -0.55800
O 	O 	0.71900 0.11434 0.07980 -0.54800
O 	O 	0.74170 0.08358 0.25720 -0.53300
