data_crystal

_cell_length_a 31.11000
_cell_length_b 11.54400
_cell_length_c 22.58300
_cell_angle_alpha 90.00000
_cell_angle_beta  112.41900
_cell_angle_gamma 90.00000

_symmetry_space_group_name_	'P 1'
_symmetry_space_group_name_H-M	'P 1'

loop_
_symmetry_equiv_pos_as_xyz
  x,y,z

loop_
_atom_site_label
_atom_site_type_symbol
_atom_site_fract_x
_atom_site_fract_y
_atom_site_fract_z
_atom_site_charge
Bi	Bi	0.62947 0.58191 0.90211 1.86700
Bi	Bi	0.54713 0.07801 0.89702 1.85000
O 	O 	0.55890 0.46140 0.88140 -0.39200
O 	O 	0.64620 0.37500 0.91480 -0.41600
O 	O 	0.53080 0.28280 0.87940 -0.43200
O 	O 	0.61800 0.19800 0.91520 -0.37800
O 	O 	0.55760 0.70190 0.85620 -0.38800
O 	O 	0.64450 0.78480 0.91520 -0.42800
O 	O 	0.52860 0.88150 0.85220 -0.41100
O 	O 	0.61640 0.95850 0.92170 -0.40200
O 	O 	0.61310 0.60910 0.99530 -0.41100
O 	O 	0.69950 0.58230 0.99500 -0.40700
O 	O 	0.64230 0.58900 0.10100 -0.21200
O 	O 	0.72900 0.57910 0.10170 -0.19400
O 	O 	0.55890 0.08470 0.79940 -0.39500
O 	O 	0.52540 0.08690 0.69270 -0.42600
C 	C 	0.56320 0.35410 0.88710 0.22500
C 	C 	0.61340 0.30460 0.90760 0.21600
C 	C 	0.56090 0.81020 0.86740 0.21000
C 	C 	0.61200 0.85300 0.90480 0.23700
C 	C 	0.64650 0.59650 0.04870 0.21400
C 	C 	0.69570 0.58690 0.04860 0.22100
C 	C 	0.52430 0.08610 0.74800 0.24400
Bi	Bi	0.37053 0.58191 0.59789 1.86800
Bi	Bi	0.45287 0.07801 0.60298 1.85200
O 	O 	0.44110 0.46140 0.61860 -0.39100
O 	O 	0.35380 0.37500 0.58520 -0.41500
O 	O 	0.46920 0.28280 0.62060 -0.43000
O 	O 	0.38200 0.19800 0.58480 -0.37600
O 	O 	0.44240 0.70190 0.64380 -0.38700
O 	O 	0.35550 0.78480 0.58480 -0.42700
O 	O 	0.47140 0.88150 0.64780 -0.41200
O 	O 	0.38360 0.95850 0.57830 -0.40300
O 	O 	0.38690 0.60910 0.50470 -0.41100
O 	O 	0.30050 0.58230 0.50500 -0.40800
O 	O 	0.35770 0.58900 0.39900 -0.21200
O 	O 	0.27100 0.57910 0.39830 -0.19400
O 	O 	0.44110 0.08470 0.70060 -0.39500
O 	O 	0.47460 0.08690 0.80730 -0.42600
C 	C 	0.43680 0.35410 0.61290 0.22500
C 	C 	0.38660 0.30460 0.59240 0.21600
C 	C 	0.43910 0.81020 0.63260 0.21000
C 	C 	0.38800 0.85300 0.59520 0.23700
C 	C 	0.35350 0.59650 0.45130 0.21500
C 	C 	0.30430 0.58690 0.45140 0.22200
C 	C 	0.47570 0.08610 0.75200 0.24400
Bi	Bi	0.12947 0.08191 0.90211 1.86700
Bi	Bi	0.04713 0.57801 0.89702 1.85200
O 	O 	0.05890 0.96140 0.88140 -0.39000
O 	O 	0.14620 0.87500 0.91480 -0.41300
O 	O 	0.03080 0.78280 0.87940 -0.43000
O 	O 	0.11800 0.69800 0.91520 -0.37600
O 	O 	0.05760 0.20190 0.85620 -0.38800
O 	O 	0.14450 0.28480 0.91520 -0.42800
O 	O 	0.02860 0.38150 0.85220 -0.41300
O 	O 	0.11640 0.45850 0.92170 -0.40400
O 	O 	0.11310 0.10910 0.99530 -0.41500
O 	O 	0.19950 0.08230 0.99500 -0.41200
O 	O 	0.14230 0.08900 0.10100 -0.21200
O 	O 	0.22900 0.07910 0.10170 -0.19400
O 	O 	0.05890 0.58470 0.79940 -0.39400
O 	O 	0.02540 0.58690 0.69270 -0.42500
C 	C 	0.06320 0.85410 0.88710 0.22500
C 	C 	0.11340 0.80460 0.90760 0.21600
C 	C 	0.06090 0.31020 0.86740 0.21000
C 	C 	0.11200 0.35300 0.90480 0.23700
C 	C 	0.14650 0.09650 0.04870 0.21800
C 	C 	0.19570 0.08690 0.04860 0.22500
C 	C 	0.02430 0.58610 0.74800 0.24400
Bi	Bi	0.87053 0.08191 0.59789 1.86700
Bi	Bi	0.95287 0.57801 0.60298 1.85200
O 	O 	0.94110 0.96140 0.61860 -0.39100
O 	O 	0.85380 0.87500 0.58520 -0.41400
O 	O 	0.96920 0.78280 0.62060 -0.43000
O 	O 	0.88200 0.69800 0.58480 -0.37600
O 	O 	0.94240 0.20190 0.64380 -0.38800
O 	O 	0.85550 0.28480 0.58480 -0.42700
O 	O 	0.97140 0.38150 0.64780 -0.41200
O 	O 	0.88360 0.45850 0.57830 -0.40400
O 	O 	0.88690 0.10910 0.50470 -0.41100
O 	O 	0.80050 0.08230 0.50500 -0.40800
O 	O 	0.85770 0.08900 0.39900 -0.21200
O 	O 	0.77100 0.07910 0.39830 -0.19400
O 	O 	0.94110 0.58470 0.70060 -0.39400
O 	O 	0.97460 0.58690 0.80730 -0.42500
C 	C 	0.93680 0.85410 0.61290 0.22500
C 	C 	0.88660 0.80460 0.59240 0.21600
C 	C 	0.93910 0.31020 0.63260 0.21000
C 	C 	0.88800 0.35300 0.59520 0.23700
C 	C 	0.85350 0.09650 0.45130 0.21500
C 	C 	0.80430 0.08690 0.45140 0.22200
C 	C 	0.97570 0.58610 0.75200 0.24400
Bi	Bi	0.37053 0.41809 0.09789 1.86800
Bi	Bi	0.45287 0.92199 0.10298 1.85100
O 	O 	0.44110 0.53860 0.11860 -0.39100
O 	O 	0.35380 0.62500 0.08520 -0.41500
O 	O 	0.46920 0.71720 0.12060 -0.43100
O 	O 	0.38200 0.80200 0.08480 -0.37700
O 	O 	0.44240 0.29810 0.14380 -0.38700
O 	O 	0.35550 0.21520 0.08480 -0.42700
O 	O 	0.47140 0.11850 0.14780 -0.41100
O 	O 	0.38360 0.04150 0.07830 -0.40200
O 	O 	0.38690 0.39090 0.00470 -0.41100
O 	O 	0.30050 0.41770 0.00500 -0.40700
O 	O 	0.35770 0.41100 0.89900 -0.21200
O 	O 	0.27100 0.42090 0.89830 -0.19400
O 	O 	0.44110 0.91530 0.20060 -0.39500
O 	O 	0.47460 0.91310 0.30730 -0.42600
C 	C 	0.43680 0.64590 0.11290 0.22500
C 	C 	0.38660 0.69540 0.09240 0.21600
C 	C 	0.43910 0.18980 0.13260 0.21000
C 	C 	0.38800 0.14700 0.09520 0.23700
C 	C 	0.35350 0.40350 0.95130 0.21400
C 	C 	0.30430 0.41310 0.95140 0.22100
C 	C 	0.47570 0.91390 0.25200 0.24400
Bi	Bi	0.62947 0.41809 0.40211 1.86800
Bi	Bi	0.54713 0.92199 0.39702 1.85200
O 	O 	0.55890 0.53860 0.38140 -0.39100
O 	O 	0.64620 0.62500 0.41480 -0.41500
O 	O 	0.53080 0.71720 0.37940 -0.43000
O 	O 	0.61800 0.80200 0.41520 -0.37600
O 	O 	0.55760 0.29810 0.35620 -0.38700
O 	O 	0.64450 0.21520 0.41520 -0.42700
O 	O 	0.52860 0.11850 0.35220 -0.41200
O 	O 	0.61640 0.04150 0.42170 -0.40300
O 	O 	0.61310 0.39090 0.49530 -0.41100
O 	O 	0.69950 0.41770 0.49500 -0.40800
O 	O 	0.64230 0.41100 0.60100 -0.21200
O 	O 	0.72900 0.42090 0.60170 -0.19400
O 	O 	0.55890 0.91530 0.29940 -0.39500
O 	O 	0.52540 0.91310 0.19270 -0.42600
C 	C 	0.56320 0.64590 0.38710 0.22500
C 	C 	0.61340 0.69540 0.40760 0.21600
C 	C 	0.56090 0.18980 0.36740 0.21000
C 	C 	0.61200 0.14700 0.40480 0.23700
C 	C 	0.64650 0.40350 0.54870 0.21500
C 	C 	0.69570 0.41310 0.54860 0.22200
C 	C 	0.52430 0.91390 0.24800 0.24400
Bi	Bi	0.87053 0.91809 0.09789 1.86700
Bi	Bi	0.95287 0.42199 0.10298 1.85200
O 	O 	0.94110 0.03860 0.11860 -0.39000
O 	O 	0.85380 0.12500 0.08520 -0.41300
O 	O 	0.96920 0.21720 0.12060 -0.43000
O 	O 	0.88200 0.30200 0.08480 -0.37600
O 	O 	0.94240 0.79810 0.14380 -0.38800
O 	O 	0.85550 0.71520 0.08480 -0.42800
O 	O 	0.97140 0.61850 0.14780 -0.41300
O 	O 	0.88360 0.54150 0.07830 -0.40400
O 	O 	0.88690 0.89090 0.00470 -0.41500
O 	O 	0.80050 0.91770 0.00500 -0.41200
O 	O 	0.85770 0.91100 0.89900 -0.21200
O 	O 	0.77100 0.92090 0.89830 -0.19400
O 	O 	0.94110 0.41530 0.20060 -0.39400
O 	O 	0.97460 0.41310 0.30730 -0.42500
C 	C 	0.93680 0.14590 0.11290 0.22500
C 	C 	0.88660 0.19540 0.09240 0.21600
C 	C 	0.93910 0.68980 0.13260 0.21000
C 	C 	0.88800 0.64700 0.09520 0.23700
C 	C 	0.85350 0.90350 0.95130 0.21800
C 	C 	0.80430 0.91310 0.95140 0.22500
C 	C 	0.97570 0.41390 0.25200 0.24400
Bi	Bi	0.12947 0.91809 0.40211 1.86700
Bi	Bi	0.04713 0.42199 0.39702 1.85200
O 	O 	0.05890 0.03860 0.38140 -0.39100
O 	O 	0.14620 0.12500 0.41480 -0.41400
O 	O 	0.03080 0.21720 0.37940 -0.43000
O 	O 	0.11800 0.30200 0.41520 -0.37600
O 	O 	0.05760 0.79810 0.35620 -0.38800
O 	O 	0.14450 0.71520 0.41520 -0.42700
O 	O 	0.02860 0.61850 0.35220 -0.41200
O 	O 	0.11640 0.54150 0.42170 -0.40400
O 	O 	0.11310 0.89090 0.49530 -0.41100
O 	O 	0.19950 0.91770 0.49500 -0.40800
O 	O 	0.14230 0.91100 0.60100 -0.21200
O 	O 	0.22900 0.92090 0.60170 -0.19400
O 	O 	0.05890 0.41530 0.29940 -0.39400
O 	O 	0.02540 0.41310 0.19270 -0.42500
C 	C 	0.06320 0.14590 0.38710 0.22500
C 	C 	0.11340 0.19540 0.40760 0.21600
C 	C 	0.06090 0.68980 0.36740 0.21000
C 	C 	0.11200 0.64700 0.40480 0.23700
C 	C 	0.14650 0.90350 0.54870 0.21500
C 	C 	0.19570 0.91310 0.54860 0.22200
C 	C 	0.02430 0.41390 0.24800 0.24400
