data_crystal

_cell_length_a 14.74600
_cell_length_b 11.03800
_cell_length_c 12.30600
_cell_angle_alpha 90.00000
_cell_angle_beta  90.00000
_cell_angle_gamma 90.00000

_symmetry_space_group_name_	'P 1'
_symmetry_space_group_name_H-M	'P 1'

loop_
_symmetry_equiv_pos_as_xyz
  x,y,z

loop_
_atom_site_label
_atom_site_type_symbol
_atom_site_fract_x
_atom_site_fract_y
_atom_site_fract_z
_atom_site_charge
O 	O 	0.23880 0.90810 0.36850 -0.19600
O 	O 	0.11830 0.83540 0.45000 -0.30800
O 	O 	0.20930 0.83740 0.35150 -0.39500
O 	O 	0.13760 0.90700 0.48330 -0.25600
C 	C 	0.02030 0.04120 0.34190 0.12400
H 	H 	0.00230 0.03590 0.41410 0.03100
C 	C 	0.96850 0.11020 0.26900 -0.16000
H 	H 	0.91720 0.15110 0.29300 0.11600
C 	C 	0.99410 0.11670 0.16230 0.09600
C 	C 	0.09660 0.98190 0.30900 -0.20500
C 	C 	0.12050 0.98690 0.20190 0.13200
H 	H 	0.17120 0.94450 0.17780 0.00600
C 	C 	0.07060 0.05350 0.12950 -0.17500
H 	H 	0.08840 0.05650 0.05710 0.09500
C 	C 	0.15300 0.90460 0.38430 0.56400
C 	C 	0.84850 0.19280 0.08280 -0.11300
H 	H 	0.81710 0.15690 0.13980 0.09000
C 	C 	0.94180 0.18880 0.08120 0.03400
O 	O 	0.26120 0.59190 0.36850 -0.19500
O 	O 	0.38170 0.66460 0.45000 -0.30800
O 	O 	0.29070 0.66260 0.35150 -0.39500
O 	O 	0.36240 0.59300 0.48330 -0.25600
C 	C 	0.47970 0.45880 0.34190 0.12800
H 	H 	0.49770 0.46410 0.41410 0.03100
C 	C 	0.53150 0.38980 0.26900 -0.16200
H 	H 	0.58280 0.34890 0.29300 0.11600
C 	C 	0.50590 0.38330 0.16230 0.09400
C 	C 	0.40340 0.51810 0.30900 -0.20600
C 	C 	0.37950 0.51310 0.20190 0.13000
H 	H 	0.32880 0.55550 0.17780 0.00700
C 	C 	0.42940 0.44650 0.12950 -0.17200
H 	H 	0.41160 0.44350 0.05710 0.09400
C 	C 	0.34700 0.59540 0.38430 0.56500
C 	C 	0.65150 0.30720 0.08280 -0.11400
H 	H 	0.68290 0.34310 0.13980 0.09100
C 	C 	0.55820 0.31120 0.08120 0.03500
O 	O 	0.26120 0.90810 0.63150 -0.19500
O 	O 	0.38170 0.83540 0.55000 -0.30800
O 	O 	0.29070 0.83740 0.64850 -0.39500
O 	O 	0.36240 0.90700 0.51670 -0.25600
C 	C 	0.47970 0.04120 0.65810 0.12800
H 	H 	0.49770 0.03590 0.58590 0.03100
C 	C 	0.53150 0.11020 0.73100 -0.16200
H 	H 	0.58280 0.15110 0.70700 0.11700
C 	C 	0.50590 0.11670 0.83770 0.09400
C 	C 	0.40340 0.98190 0.69100 -0.20600
C 	C 	0.37950 0.98690 0.79810 0.13100
H 	H 	0.32880 0.94450 0.82220 0.00700
C 	C 	0.42940 0.05350 0.87050 -0.17200
H 	H 	0.41160 0.05650 0.94290 0.09600
C 	C 	0.34700 0.90460 0.61570 0.56500
C 	C 	0.65150 0.19280 0.91720 -0.11200
H 	H 	0.68290 0.15690 0.86020 0.09000
C 	C 	0.55820 0.18880 0.91880 0.03700
O 	O 	0.23880 0.59190 0.63150 -0.19500
O 	O 	0.11830 0.66460 0.55000 -0.30800
O 	O 	0.20930 0.66260 0.64850 -0.39500
O 	O 	0.13760 0.59300 0.51670 -0.25600
C 	C 	0.02030 0.45880 0.65810 0.12800
H 	H 	0.00230 0.46410 0.58590 0.03100
C 	C 	0.96850 0.38980 0.73100 -0.16200
H 	H 	0.91720 0.34890 0.70700 0.11700
C 	C 	0.99410 0.38330 0.83770 0.09500
C 	C 	0.09660 0.51810 0.69100 -0.20700
C 	C 	0.12050 0.51310 0.79810 0.13100
H 	H 	0.17120 0.55550 0.82220 0.00700
C 	C 	0.07060 0.44650 0.87050 -0.17300
H 	H 	0.08840 0.44350 0.94290 0.09600
C 	C 	0.15300 0.59540 0.61570 0.56500
C 	C 	0.84850 0.30720 0.91720 -0.11000
H 	H 	0.81710 0.34310 0.86020 0.09000
C 	C 	0.94180 0.31120 0.91880 0.03600
In	In	0.25000 0.75000 0.50000 2.03200
C 	C 	0.80090 0.25000 -0.00000 0.04700
C 	C 	0.98790 0.25000 -0.00000 -0.10200
H 	H 	0.05090 0.25000 -0.00000 0.06800
C 	C 	0.69910 0.25000 -0.00000 0.04800
C 	C 	0.51210 0.25000 -0.00000 -0.10500
H 	H 	0.44910 0.25000 -0.00000 0.06900
O 	O 	0.76120 0.09190 0.63150 -0.19500
O 	O 	0.88170 0.16460 0.55000 -0.30800
O 	O 	0.79070 0.16260 0.64850 -0.39500
O 	O 	0.86240 0.09300 0.51670 -0.25600
C 	C 	0.97970 0.95880 0.65810 0.12500
H 	H 	0.99770 0.96410 0.58590 0.03100
C 	C 	0.03150 0.88980 0.73100 -0.16000
H 	H 	0.08280 0.84890 0.70700 0.11600
C 	C 	0.00590 0.88330 0.83770 0.09600
C 	C 	0.90340 0.01810 0.69100 -0.20500
C 	C 	0.87950 0.01310 0.79810 0.13200
H 	H 	0.82880 0.05550 0.82220 0.00700
C 	C 	0.92940 0.94650 0.87050 -0.17500
H 	H 	0.91160 0.94350 0.94290 0.09700
C 	C 	0.84700 0.09540 0.61570 0.56400
C 	C 	0.15150 0.80720 0.91720 -0.11000
H 	H 	0.18290 0.84310 0.86020 0.09000
C 	C 	0.05820 0.81120 0.91880 0.03500
O 	O 	0.73880 0.40810 0.63150 -0.19500
O 	O 	0.61830 0.33540 0.55000 -0.30800
O 	O 	0.70930 0.33740 0.64850 -0.39500
O 	O 	0.63760 0.40700 0.51670 -0.25600
C 	C 	0.52030 0.54120 0.65810 0.12800
H 	H 	0.50230 0.53590 0.58590 0.03100
C 	C 	0.46850 0.61020 0.73100 -0.16200
H 	H 	0.41720 0.65110 0.70700 0.11700
C 	C 	0.49410 0.61670 0.83770 0.09400
C 	C 	0.59660 0.48190 0.69100 -0.20600
C 	C 	0.62050 0.48690 0.79810 0.13000
H 	H 	0.67120 0.44450 0.82220 0.00700
C 	C 	0.57060 0.55350 0.87050 -0.17200
H 	H 	0.58840 0.55650 0.94290 0.09600
C 	C 	0.65300 0.40460 0.61570 0.56500
C 	C 	0.34850 0.69280 0.91720 -0.11200
H 	H 	0.31710 0.65690 0.86020 0.09000
C 	C 	0.44180 0.68880 0.91880 0.03700
O 	O 	0.73880 0.09190 0.36850 -0.19500
O 	O 	0.61830 0.16460 0.45000 -0.30800
O 	O 	0.70930 0.16260 0.35150 -0.39500
O 	O 	0.63760 0.09300 0.48330 -0.25600
C 	C 	0.52030 0.95880 0.34190 0.12700
H 	H 	0.50230 0.96410 0.41410 0.03100
C 	C 	0.46850 0.88980 0.26900 -0.16200
H 	H 	0.41720 0.84890 0.29300 0.11600
C 	C 	0.49410 0.88330 0.16230 0.09400
C 	C 	0.59660 0.01810 0.30900 -0.20600
C 	C 	0.62050 0.01310 0.20190 0.13000
H 	H 	0.67120 0.05550 0.17780 0.00700
C 	C 	0.57060 0.94650 0.12950 -0.17200
H 	H 	0.58840 0.94350 0.05710 0.09400
C 	C 	0.65300 0.09540 0.38430 0.56500
C 	C 	0.34850 0.80720 0.08280 -0.11400
H 	H 	0.31710 0.84310 0.13980 0.09100
C 	C 	0.44180 0.81120 0.08120 0.03500
O 	O 	0.76120 0.40810 0.36850 -0.19500
O 	O 	0.88170 0.33540 0.45000 -0.30800
O 	O 	0.79070 0.33740 0.35150 -0.39500
O 	O 	0.86240 0.40700 0.48330 -0.25600
C 	C 	0.97970 0.54120 0.34190 0.12800
H 	H 	0.99770 0.53590 0.41410 0.03100
C 	C 	0.03150 0.61020 0.26900 -0.16200
H 	H 	0.08280 0.65110 0.29300 0.11700
C 	C 	0.00590 0.61670 0.16230 0.09500
C 	C 	0.90340 0.48190 0.30900 -0.20700
C 	C 	0.87950 0.48690 0.20190 0.13000
H 	H 	0.82880 0.44450 0.17780 0.00700
C 	C 	0.92940 0.55350 0.12950 -0.17300
H 	H 	0.91160 0.55650 0.05710 0.09500
C 	C 	0.84700 0.40460 0.38430 0.56500
C 	C 	0.15150 0.69280 0.08280 -0.11300
H 	H 	0.18290 0.65690 0.13980 0.09000
C 	C 	0.05820 0.68880 0.08120 0.03400
In	In	0.75000 0.25000 0.50000 2.03200
C 	C 	0.19910 0.75000 -0.00000 0.04700
C 	C 	0.01210 0.75000 -0.00000 -0.10200
H 	H 	0.94910 0.75000 -0.00000 0.06800
C 	C 	0.30090 0.75000 -0.00000 0.04800
C 	C 	0.48790 0.75000 -0.00000 -0.10500
H 	H 	0.55090 0.75000 -0.00000 0.06900
