data_crystal

_cell_length_a 8.78200
_cell_length_b 14.94170
_cell_length_c 15.49430
_cell_angle_alpha 90.00000
_cell_angle_beta  92.94000
_cell_angle_gamma 90.00000

_symmetry_space_group_name_	'P 1'
_symmetry_space_group_name_H-M	'P 1'

loop_
_symmetry_equiv_pos_as_xyz
  x,y,z

loop_
_atom_site_label
_atom_site_type_symbol
_atom_site_fract_x
_atom_site_fract_y
_atom_site_fract_z
_atom_site_charge
Zn	Zn	0.65033 0.61909 0.01032 1.23700
P 	P 	0.78990 0.72018 0.85023 0.46900
P 	P 	0.66127 0.58030 0.58375 0.44700
O 	O 	0.78060 0.64760 0.91643 -0.45600
O 	O 	0.81500 0.81290 0.88448 -0.41800
O 	O 	0.72500 0.49922 0.54044 -0.41200
O 	O 	0.56130 0.63797 0.52414 -0.45700
O 	O 	0.65500 0.72223 0.78397 -0.42200
O 	O 	0.58450 0.55504 0.66609 -0.46700
H 	H 	0.91000 0.69900 0.80700 0.00900
H 	H 	0.78200 0.63030 0.60720 -0.00100
Zn	Zn	0.15033 0.11909 0.01032 1.21600
P 	P 	0.28990 0.22018 0.85023 0.46600
P 	P 	0.16127 0.08030 0.58375 0.44500
O 	O 	0.28060 0.14760 0.91643 -0.49300
O 	O 	0.31500 0.31290 0.88448 -0.45400
O 	O 	0.22500 0.99922 0.54044 -0.45100
O 	O 	0.06130 0.13797 0.52414 -0.52300
O 	O 	0.15500 0.22223 0.78397 -0.46400
O 	O 	0.08450 0.05504 0.66609 -0.51300
H 	H 	0.41000 0.19900 0.80700 -0.02800
H 	H 	0.28200 0.13030 0.60720 -0.02800
Zn	Zn	0.34967 0.61909 0.48968 1.23000
P 	P 	0.21010 0.72018 0.64977 0.46600
P 	P 	0.33873 0.58030 0.91625 0.44500
O 	O 	0.21940 0.64760 0.58357 -0.49700
O 	O 	0.18500 0.81290 0.61552 -0.46700
O 	O 	0.27500 0.49922 0.95956 -0.45600
O 	O 	0.43870 0.63797 0.97586 -0.47300
O 	O 	0.34500 0.72223 0.71603 -0.43500
O 	O 	0.41550 0.55504 0.83391 -0.47600
H 	H 	0.09000 0.69900 0.69300 -0.06500
H 	H 	0.21800 0.63030 0.89280 -0.04800
Zn	Zn	0.84967 0.11909 0.48968 1.25300
P 	P 	0.71010 0.22018 0.64977 0.46900
P 	P 	0.83873 0.08030 0.91625 0.44800
O 	O 	0.71940 0.14760 0.58357 -0.45700
O 	O 	0.68500 0.31290 0.61552 -0.43100
O 	O 	0.77500 0.99922 0.95956 -0.42100
O 	O 	0.93870 0.13797 0.97586 -0.40600
O 	O 	0.84500 0.22223 0.71603 -0.37900
O 	O 	0.91550 0.05504 0.83391 -0.41600
H 	H 	0.59000 0.19900 0.69300 -0.02800
H 	H 	0.71800 0.13030 0.89280 -0.01900
Zn	Zn	0.34967 0.38091 0.98968 1.22800
P 	P 	0.21010 0.27982 0.14977 0.46600
P 	P 	0.33873 0.41970 0.41625 0.44500
O 	O 	0.21940 0.35240 0.08357 -0.49200
O 	O 	0.18500 0.18710 0.11552 -0.46500
O 	O 	0.27500 0.50078 0.45956 -0.45300
O 	O 	0.43870 0.36203 0.47586 -0.46900
O 	O 	0.34500 0.27777 0.21603 -0.43400
O 	O 	0.41550 0.44496 0.33391 -0.47500
H 	H 	0.09000 0.30100 0.19300 -0.06400
H 	H 	0.21800 0.36970 0.39280 -0.04700
Zn	Zn	0.84967 0.88091 0.98968 1.24900
P 	P 	0.71010 0.77982 0.14977 0.46900
P 	P 	0.83873 0.91970 0.41625 0.44700
O 	O 	0.71940 0.85240 0.08357 -0.45200
O 	O 	0.68500 0.68710 0.11552 -0.42800
O 	O 	0.77500 0.00078 0.45956 -0.41600
O 	O 	0.93870 0.86203 0.47586 -0.40100
O 	O 	0.84500 0.77777 0.21603 -0.37700
O 	O 	0.91550 0.94496 0.33391 -0.41500
H 	H 	0.59000 0.80100 0.19300 -0.02700
H 	H 	0.71800 0.86970 0.39280 -0.01800
Zn	Zn	0.65033 0.38091 0.51032 1.23500
P 	P 	0.78990 0.27982 0.35023 0.47000
P 	P 	0.66127 0.41970 0.08375 0.44700
O 	O 	0.78060 0.35240 0.41643 -0.45100
O 	O 	0.81500 0.18710 0.38448 -0.41500
O 	O 	0.72500 0.50078 0.04044 -0.40800
O 	O 	0.56130 0.36203 0.02414 -0.45100
O 	O 	0.65500 0.27777 0.28397 -0.42100
O 	O 	0.58450 0.44496 0.16609 -0.46600
H 	H 	0.91000 0.30100 0.30700 0.01000
H 	H 	0.78200 0.36970 0.10720 0.00100
Zn	Zn	0.15033 0.88091 0.51032 1.21200
P 	P 	0.28990 0.77982 0.35023 0.46600
P 	P 	0.16127 0.91970 0.08375 0.44600
O 	O 	0.28060 0.85240 0.41643 -0.49000
O 	O 	0.31500 0.68710 0.38448 -0.45200
O 	O 	0.22500 0.00078 0.04044 -0.44800
O 	O 	0.06130 0.86203 0.02414 -0.51600
O 	O 	0.15500 0.77777 0.28397 -0.46300
O 	O 	0.08450 0.94496 0.16609 -0.51100
H 	H 	0.41000 0.80100 0.30700 -0.02700
H 	H 	0.28200 0.86970 0.10720 -0.02600
Zn	Zn	0.50000 0.63203 0.75000 1.23000
Zn	Zn	0.00000 0.13203 0.75000 1.19400
Zn	Zn	0.50000 0.36797 0.25000 1.23000
Zn	Zn	0.00000 0.86797 0.25000 1.19400
