data_crystal

_cell_length_a 12.65830
_cell_length_b 15.54090
_cell_length_c 16.40940
_cell_angle_alpha 108.44600
_cell_angle_beta  98.65100
_cell_angle_gamma 109.52600

_symmetry_space_group_name_	'P 1'
_symmetry_space_group_name_H-M	'P 1'

loop_
_symmetry_equiv_pos_as_xyz
  x,y,z

loop_
_atom_site_label
_atom_site_type_symbol
_atom_site_fract_x
_atom_site_fract_y
_atom_site_fract_z
_atom_site_charge
Mn	Mn	0.50000 0.50000 0.50000 1.33100
Cu	Cu	0.80860 0.62928 0.57839 0.93600
Cu	Cu	0.19140 0.37072 0.42161 0.94300
Cu	Cu	1.00000 0.50000 0.50000 0.86200
H 	H 	0.24850 0.60770 0.91080 0.12000
H 	H 	0.54930 0.79820 0.02720 0.03900
H 	H 	0.66830 0.88330 0.09970 0.04100
H 	H 	0.81440 0.86480 0.81340 -0.03700
H 	H 	0.59200 0.05510 0.13530 0.03900
H 	H 	0.67300 0.03200 0.20340 0.04000
H 	H 	0.46850 0.77890 0.14710 0.03700
H 	H 	0.45340 0.86910 0.21850 0.04800
H 	H 	0.82960 0.81360 0.42630 -0.01700
H 	H 	0.79780 0.90270 0.34010 0.13400
H 	H 	0.22040 0.86860 0.95220 0.10800
H 	H 	0.78630 0.95110 0.94430 0.14900
H 	H 	0.11390 0.53350 0.77100 0.01400
H 	H 	0.41600 0.91960 0.02010 0.05300
H 	H 	0.36180 0.91570 0.10190 0.05200
H 	H 	0.46200 0.75240 0.87490 0.15700
H 	H 	0.48650 0.66850 0.74000 -0.02700
H 	H 	0.78110 0.36320 0.34800 -0.02900
H 	H 	0.46600 0.11770 0.37110 0.12300
H 	H 	0.53870 0.28410 0.47390 -0.00300
H 	H 	0.48500 0.64740 0.34580 -0.00700
H 	H 	0.71180 0.20340 0.24560 0.12400
H 	H 	0.45410 0.73280 0.25750 0.13500
H 	H 	0.06270 0.77880 0.80580 0.03900
H 	H 	0.75150 0.39230 0.08920 0.13700
H 	H 	0.45070 0.20180 0.97280 0.04000
H 	H 	0.33170 0.11670 0.90030 0.04500
H 	H 	0.18560 0.13520 0.18660 -0.02300
H 	H 	0.40800 0.94490 0.86470 0.03800
H 	H 	0.32700 0.96800 0.79660 0.04400
H 	H 	0.53150 0.22110 0.85290 0.03400
H 	H 	0.54660 0.13090 0.78150 0.04100
H 	H 	0.17040 0.18640 0.57370 -0.00600
H 	H 	0.20220 0.09730 0.65990 0.14300
H 	H 	0.77960 0.13140 0.04780 0.11600
H 	H 	0.21370 0.04890 0.05570 0.15300
H 	H 	0.88610 0.46650 0.22900 -0.02900
H 	H 	0.58400 0.08040 0.97990 0.04700
H 	H 	0.63820 0.08430 0.89810 0.04200
H 	H 	0.53800 0.24760 0.12510 0.15400
H 	H 	0.51350 0.33150 0.26000 -0.02400
H 	H 	0.21890 0.63680 0.65200 -0.02400
H 	H 	0.53400 0.88230 0.62890 0.12200
H 	H 	0.46130 0.71590 0.52610 -0.00200
H 	H 	0.51500 0.35260 0.65420 -0.00900
H 	H 	0.28820 0.79660 0.75440 0.12700
H 	H 	0.54590 0.26720 0.74250 0.13000
H 	H 	0.93730 0.22120 0.19420 -0.00800
C 	C 	0.21570 0.64580 0.88910 -0.22300
C 	C 	0.66750 0.69360 0.67980 0.43500
C 	C 	0.98570 0.60710 0.68300 0.35200
C 	C 	0.65270 0.75380 0.76550 -0.26900
C 	C 	0.52230 0.90770 0.12030 0.01200
C 	C 	0.59180 0.87080 0.06160 0.02300
C 	C 	0.74130 0.84040 0.82530 0.23400
C 	C 	0.59120 0.01800 0.17450 0.01900
C 	C 	0.50510 0.85140 0.18280 0.02700
C 	C 	0.71140 0.44420 0.48560 0.41500
C 	C 	0.75270 0.79600 0.39170 0.17100
C 	C 	0.73340 0.84880 0.33960 -0.28100
C 	C 	0.25200 0.74510 0.94040 0.23800
C 	C 	0.19910 0.80070 0.91590 -0.19600
C 	C 	0.62500 0.82420 0.28870 0.30600
C 	C 	0.72330 0.89160 0.90270 -0.34700
C 	C 	0.13380 0.60090 0.80780 0.11100
C 	C 	0.40560 0.88790 0.06370 0.00700
C 	C 	0.53470 0.77710 0.86270 -0.33700
C 	C 	0.55070 0.72580 0.78340 0.23700
C 	C 	0.71670 0.31450 0.35390 0.16900
C 	C 	0.66030 0.71910 0.39250 -0.22900
C 	C 	0.08380 0.65060 0.78180 -0.10700
C 	C 	0.62280 0.86330 0.92340 0.35200
C 	C 	0.67710 0.66120 0.44660 0.44400
C 	C 	0.67230 0.34530 0.42200 -0.24100
C 	C 	0.53030 0.16730 0.36620 -0.22900
C 	C 	0.57420 0.26740 0.42760 0.13000
C 	C 	0.58370 0.14210 0.29720 0.27000
C 	C 	0.55030 0.69850 0.34360 0.17600
C 	C 	0.67620 0.21820 0.29220 -0.27400
C 	C 	0.53110 0.74940 0.29120 -0.28600
C 	C 	0.10520 0.74690 0.82800 0.06000
C 	C 	0.78430 0.35420 0.11090 -0.29200
C 	C 	0.33250 0.30640 0.32020 0.43200
C 	C 	0.01430 0.39290 0.31700 0.51400
C 	C 	0.34730 0.24620 0.23450 -0.25900
C 	C 	0.47770 0.09230 0.87970 -0.00100
C 	C 	0.40820 0.12920 0.93840 0.02500
C 	C 	0.25870 0.15960 0.17470 0.22900
C 	C 	0.40880 0.98200 0.82550 0.03100
C 	C 	0.49490 0.14860 0.81720 0.03400
C 	C 	0.28860 0.55580 0.51440 0.41400
C 	C 	0.24730 0.20400 0.60830 0.17100
C 	C 	0.26660 0.15120 0.66040 -0.27800
C 	C 	0.74800 0.25490 0.05960 0.27300
C 	C 	0.80090 0.19930 0.08410 -0.24700
C 	C 	0.37500 0.17580 0.71130 0.30600
C 	C 	0.27670 0.10840 0.09730 -0.33800
C 	C 	0.86620 0.39910 0.19220 0.20700
C 	C 	0.59440 0.11210 0.93630 0.02000
C 	C 	0.46530 0.22290 0.13730 -0.33000
C 	C 	0.44930 0.27420 0.21660 0.23000
C 	C 	0.28330 0.68550 0.64610 0.17100
C 	C 	0.33970 0.28090 0.60750 -0.22400
C 	C 	0.91620 0.34940 0.21820 -0.23800
C 	C 	0.37720 0.13670 0.07660 0.34600
C 	C 	0.32290 0.33880 0.55340 0.44200
C 	C 	0.32770 0.65470 0.57800 -0.23400
C 	C 	0.46970 0.83270 0.63380 -0.22600
C 	C 	0.42580 0.73260 0.57240 0.13100
C 	C 	0.41630 0.85790 0.70280 0.27200
C 	C 	0.44970 0.30150 0.65640 0.17400
C 	C 	0.32380 0.78180 0.70780 -0.26900
C 	C 	0.46890 0.25060 0.70880 -0.28400
C 	C 	0.89480 0.25310 0.17200 0.12600
O 	O 	0.65100 0.46580 0.53640 -0.47000
O 	O 	0.34280 0.78330 0.01770 -0.23700
O 	O 	0.92460 0.64090 0.67590 -0.46700
O 	O 	0.57640 0.62010 0.62600 -0.45200
O 	O 	0.76880 0.71610 0.67000 -0.41100
O 	O 	0.59000 0.58740 0.43710 -0.46100
O 	O 	0.00710 0.53130 0.62710 -0.36900
O 	O 	0.77800 0.68770 0.49490 -0.43400
O 	O 	0.61720 0.87900 0.24040 -0.25500
O 	O 	0.53490 0.04680 0.24070 -0.24700
O 	O 	0.80520 0.50640 0.48620 -0.47700
O 	O 	0.61050 0.91940 0.00100 -0.27300
O 	O 	0.34900 0.53420 0.46360 -0.46600
O 	O 	0.65720 0.21670 0.98230 -0.24900
O 	O 	0.07540 0.35910 0.32410 -0.49900
O 	O 	0.42360 0.37990 0.37400 -0.44900
O 	O 	0.23120 0.28390 0.33000 -0.39800
O 	O 	0.41000 0.41260 0.56290 -0.46100
O 	O 	0.99290 0.46870 0.37290 -0.45600
O 	O 	0.22200 0.31230 0.50510 -0.42400
O 	O 	0.38280 0.12100 0.75960 -0.25500
O 	O 	0.46510 0.95320 0.75930 -0.24500
O 	O 	0.19480 0.49360 0.51380 -0.46400
O 	O 	0.38950 0.08060 0.99900 -0.27000
