data_crystal

_cell_length_a 12.65940
_cell_length_b 15.02710
_cell_length_c 17.03170
_cell_angle_alpha 108.00900
_cell_angle_beta  101.05000
_cell_angle_gamma 106.05000

_symmetry_space_group_name_	'P 1'
_symmetry_space_group_name_H-M	'P 1'

loop_
_symmetry_equiv_pos_as_xyz
  x,y,z

loop_
_atom_site_label
_atom_site_type_symbol
_atom_site_fract_x
_atom_site_fract_y
_atom_site_fract_z
_atom_site_charge
Mn	Mn	0.50000 0.50000 0.50000 1.31400
Co	Co	0.21509 0.37245 0.41478 1.17800
Co	Co	0.78491 0.62755 0.58522 1.18300
Co	Co	0.00000 0.50000 0.50000 1.10100
H 	H 	0.21750 0.64270 0.66390 -0.02900
H 	H 	0.30130 0.80610 0.76790 0.12800
H 	H 	0.54130 0.86650 0.64610 0.13100
H 	H 	0.45680 0.70240 0.54230 -0.01400
H 	H 	0.18190 0.18290 0.57020 -0.01600
H 	H 	0.21530 0.11240 0.67200 0.12500
H 	H 	0.56040 0.12350 0.78250 0.05000
H 	H 	0.55480 0.22320 0.84950 0.04200
H 	H 	0.66170 0.08470 0.89820 0.05200
H 	H 	0.61320 0.08060 0.97810 0.05300
H 	H 	0.75610 0.39340 0.09230 0.13200
H 	H 	0.88020 0.45770 0.23290 -0.00600
H 	H 	0.93720 0.19790 0.18770 0.01000
H 	H 	0.79880 0.12680 0.04830 0.12500
H 	H 	0.36000 0.13590 0.90480 0.04300
H 	H 	0.48050 0.22050 0.96910 0.04200
H 	H 	0.55840 0.24930 0.72720 0.12900
H 	H 	0.52360 0.32770 0.63090 -0.00900
H 	H 	0.53490 0.38220 0.24080 -0.00100
H 	H 	0.55770 0.28700 0.11080 0.12500
H 	H 	0.26240 0.06370 0.06900 0.11500
H 	H 	0.23720 0.16000 0.19480 -0.00600
H 	H 	0.35090 0.97640 0.80740 0.04200
H 	H 	0.43230 0.95410 0.87790 0.04600
H 	H 	0.78250 0.35730 0.33610 -0.02500
H 	H 	0.69870 0.19390 0.23210 0.13000
H 	H 	0.45870 0.13350 0.35390 0.12800
H 	H 	0.54320 0.29760 0.45770 -0.01100
H 	H 	0.81810 0.81710 0.42980 -0.00000
H 	H 	0.78470 0.88760 0.32800 0.13800
H 	H 	0.43960 0.87650 0.21750 0.04100
H 	H 	0.44520 0.77680 0.15050 0.03600
H 	H 	0.33830 0.91530 0.10180 0.04000
H 	H 	0.38680 0.91940 0.02190 0.04700
H 	H 	0.24390 0.60660 0.90770 0.11900
H 	H 	0.11980 0.54230 0.76710 -0.00700
H 	H 	0.06280 0.80210 0.81230 -0.01000
H 	H 	0.20120 0.87320 0.95170 0.10900
H 	H 	0.64000 0.86410 0.09520 0.04700
H 	H 	0.51950 0.77950 0.03090 0.04300
H 	H 	0.44160 0.75070 0.27280 0.12100
H 	H 	0.47640 0.67230 0.36910 -0.01400
H 	H 	0.46510 0.61780 0.75920 -0.00100
H 	H 	0.44230 0.71300 0.88920 0.12400
H 	H 	0.73760 0.93630 0.93100 0.12100
H 	H 	0.76280 0.84000 0.80520 0.00800
H 	H 	0.64910 0.02360 0.19260 0.04700
H 	H 	0.56770 0.04590 0.12210 0.04600
C 	C 	0.32570 0.65610 0.59310 -0.24700
C 	C 	0.28320 0.68820 0.65970 0.16400
C 	C 	0.33280 0.78550 0.72200 -0.27500
C 	C 	0.47500 0.82070 0.64940 -0.25100
C 	C 	0.42500 0.72360 0.58780 0.15000
C 	C 	0.50080 0.09930 0.88310 0.02200
C 	C 	0.35010 0.26470 0.59170 -0.22100
C 	C 	0.25870 0.19850 0.60350 0.15900
C 	C 	0.27840 0.15520 0.66270 -0.26600
C 	C 	0.38990 0.17440 0.70850 0.28300
C 	C 	0.51470 0.14980 0.81850 0.01400
C 	C 	0.61990 0.11390 0.93650 0.00000
C 	C 	0.76250 0.25330 0.06020 0.27700
C 	C 	0.78950 0.35240 0.11280 -0.26100
C 	C 	0.86520 0.39100 0.19530 0.16200
C 	C 	0.91930 0.33390 0.22360 -0.21600
C 	C 	0.89740 0.23640 0.16900 0.14800
C 	C 	0.81610 0.19410 0.08560 -0.25400
C 	C 	0.43770 0.14730 0.94060 0.01000
C 	C 	0.48150 0.23720 0.69640 -0.27000
C 	C 	0.46030 0.28290 0.63840 0.16500
C 	C 	0.36900 0.34240 0.31240 0.40700
C 	C 	0.38530 0.28150 0.23010 -0.19200
C 	C 	0.47870 0.31770 0.20540 0.14200
C 	C 	0.49290 0.26110 0.12840 -0.24800
C 	C 	0.41160 0.16760 0.07880 0.25800
C 	C 	0.31720 0.12910 0.10360 -0.24500
C 	C 	0.30290 0.18560 0.17820 0.13900
C 	C 	0.42800 0.85120 0.71630 0.28000
C 	C 	0.43190 0.98770 0.83620 0.00700
C 	C 	0.99910 0.37630 0.31580 0.49700
C 	C 	0.27310 0.55290 0.52950 0.40300
C 	C 	0.32820 0.31450 0.53130 0.42700
C 	C 	0.67430 0.34390 0.40690 -0.23700
C 	C 	0.71680 0.31180 0.34030 0.16600
C 	C 	0.66720 0.21450 0.27800 -0.26900
C 	C 	0.52500 0.17930 0.35060 -0.24600
C 	C 	0.57500 0.27640 0.41220 0.14900
C 	C 	0.49920 0.90070 0.11690 0.00700
C 	C 	0.64990 0.73530 0.40830 -0.21500
C 	C 	0.74130 0.80150 0.39650 0.15900
C 	C 	0.72160 0.84480 0.33730 -0.26100
C 	C 	0.61010 0.82560 0.29150 0.28400
C 	C 	0.48530 0.85020 0.18150 0.02400
C 	C 	0.38010 0.88610 0.06350 0.01000
C 	C 	0.23750 0.74670 0.93980 0.25800
C 	C 	0.21050 0.64760 0.88720 -0.24900
C 	C 	0.13480 0.60900 0.80470 0.12900
C 	C 	0.08070 0.66610 0.77640 -0.18500
C 	C 	0.10260 0.76360 0.83100 0.11200
C 	C 	0.18390 0.80590 0.91440 -0.24400
C 	C 	0.56230 0.85270 0.05940 0.01600
C 	C 	0.51850 0.76280 0.30360 -0.26900
C 	C 	0.53970 0.71710 0.36160 0.16100
C 	C 	0.63100 0.65760 0.68760 0.40800
C 	C 	0.61470 0.71850 0.76990 -0.18500
C 	C 	0.52130 0.68230 0.79460 0.14200
C 	C 	0.50710 0.73890 0.87160 -0.24500
C 	C 	0.58840 0.83240 0.92120 0.25900
C 	C 	0.68280 0.87090 0.89640 -0.23800
C 	C 	0.69710 0.81440 0.82180 0.14000
C 	C 	0.57200 0.14880 0.28370 0.28000
C 	C 	0.56810 0.01230 0.16380 0.02100
C 	C 	0.00090 0.62370 0.68420 0.35200
C 	C 	0.72690 0.44710 0.47050 0.40200
C 	C 	0.67180 0.68550 0.46870 0.42500
O 	O 	0.32669 0.51762 0.47773 -0.55400
O 	O 	0.41270 0.36751 0.51779 -0.47900
O 	O 	0.99270 0.45240 0.36718 -0.45800
O 	O 	0.40110 0.12780 0.76533 -0.24700
O 	O 	0.68120 0.22100 0.98226 -0.24400
O 	O 	0.06210 0.32990 0.33283 -0.53600
O 	O 	0.22500 0.30150 0.49594 -0.45700
O 	O 	0.45280 0.42122 0.36482 -0.45200
O 	O 	0.27400 0.30766 0.32415 -0.46600
O 	O 	0.17608 0.49543 0.52516 -0.50800
O 	O 	0.42690 0.10590 0.00461 -0.23800
O 	O 	0.48500 0.94807 0.77302 -0.24300
O 	O 	0.67331 0.48238 0.52227 -0.54600
O 	O 	0.58730 0.63249 0.48221 -0.47900
O 	O 	0.00730 0.54760 0.63282 -0.46500
O 	O 	0.59890 0.87220 0.23467 -0.24600
O 	O 	0.31880 0.77900 0.01774 -0.24700
O 	O 	0.93790 0.67010 0.66717 -0.41400
O 	O 	0.77500 0.69850 0.50406 -0.44300
O 	O 	0.54720 0.57878 0.63518 -0.45000
O 	O 	0.72600 0.69234 0.67585 -0.45500
O 	O 	0.82392 0.50457 0.47484 -0.48200
O 	O 	0.57310 0.89410 0.99539 -0.24100
O 	O 	0.51500 0.05193 0.22698 -0.24100
