data_crystal

_cell_length_a 9.26710
_cell_length_b 17.11980
_cell_length_c 24.84160
_cell_angle_alpha 90.00000
_cell_angle_beta  90.00000
_cell_angle_gamma 90.00000

_symmetry_space_group_name_	'P 1'
_symmetry_space_group_name_H-M	'P 1'

loop_
_symmetry_equiv_pos_as_xyz
  x,y,z

loop_
_atom_site_label
_atom_site_type_symbol
_atom_site_fract_x
_atom_site_fract_y
_atom_site_fract_z
_atom_site_charge
Zn	Zn	0.18146 0.19998 0.24912 1.21000
P 	P 	0.84496 0.14213 0.24568 0.57000
O 	O 	0.97660 0.19137 0.25523 -0.51400
O 	O 	0.83830 0.07109 0.28521 -0.39600
O 	O 	0.85470 0.09978 0.19075 -0.36300
O 	O 	0.71010 0.18986 0.25091 -0.48100
N 	N 	0.26490 0.14324 0.31314 -0.26900
N 	N 	0.27780 0.14707 0.18615 -0.27700
C 	C 	0.18030 0.11500 0.35272 0.07500
C 	C 	0.23430 0.07510 0.39655 -0.12900
C 	C 	0.38310 0.06461 0.40120 0.06200
C 	C 	0.46960 0.09200 0.35976 -0.10500
C 	C 	0.40840 0.13080 0.31696 0.06200
C 	C 	0.44430 0.02808 0.45067 -0.00900
C 	C 	0.25020 0.07240 0.17506 0.08000
C 	C 	0.31150 0.03400 0.13242 -0.12500
C 	C 	0.40410 0.07252 0.09881 0.07500
C 	C 	0.43650 0.14990 0.11092 -0.13500
C 	C 	0.37120 0.18480 0.15425 0.07700
C 	C 	0.46100 0.03498 0.04895 -0.01600
H 	H 	0.17370 0.05920 0.42600 0.06600
H 	H 	0.57990 0.09060 0.36170 0.06400
H 	H 	0.46410 0.15660 0.28870 -0.00900
H 	H 	0.07960 0.11920 0.34840 -0.01400
H 	H 	0.17900 0.04910 0.20150 0.01000
H 	H 	0.30720 0.97670 0.12770 0.08700
H 	H 	0.49220 0.18040 0.08500 0.06700
H 	H 	0.39540 0.23490 0.16470 -0.02100
H 	H 	0.83950 0.09150 0.31730 0.21100
H 	H 	0.87910 0.13130 0.16020 0.16000
Zn	Zn	0.81854 0.80002 0.24912 1.21100
P 	P 	0.15504 0.85787 0.24568 0.57100
O 	O 	0.02340 0.80863 0.25523 -0.51300
O 	O 	0.16170 0.92891 0.28521 -0.39500
O 	O 	0.14530 0.90022 0.19075 -0.36300
O 	O 	0.28990 0.81014 0.25091 -0.48100
N 	N 	0.73510 0.85676 0.31314 -0.26900
N 	N 	0.72220 0.85293 0.18615 -0.27700
C 	C 	0.81970 0.88500 0.35272 0.07500
C 	C 	0.76570 0.92490 0.39655 -0.12900
C 	C 	0.61690 0.93539 0.40120 0.06200
C 	C 	0.53040 0.90800 0.35976 -0.10500
C 	C 	0.59160 0.86920 0.31696 0.06200
C 	C 	0.55570 0.97192 0.45067 -0.00900
C 	C 	0.74980 0.92760 0.17506 0.08000
C 	C 	0.68850 0.96600 0.13242 -0.12500
C 	C 	0.59590 0.92748 0.09881 0.07500
C 	C 	0.56350 0.85010 0.11092 -0.13500
C 	C 	0.62880 0.81520 0.15425 0.07700
C 	C 	0.53900 0.96502 0.04895 -0.01600
H 	H 	0.82630 0.94080 0.42600 0.06600
H 	H 	0.42010 0.90940 0.36170 0.06400
H 	H 	0.53590 0.84340 0.28870 -0.00900
H 	H 	0.92040 0.88080 0.34840 -0.01400
H 	H 	0.82100 0.95090 0.20150 0.01000
H 	H 	0.69280 0.02330 0.12770 0.08700
H 	H 	0.50780 0.81960 0.08500 0.06700
H 	H 	0.60460 0.76510 0.16470 -0.02100
H 	H 	0.16050 0.90850 0.31730 0.21100
H 	H 	0.12090 0.86870 0.16020 0.16000
Zn	Zn	0.31854 0.69998 0.25088 1.21100
P 	P 	0.65504 0.64213 0.25432 0.57100
O 	O 	0.52340 0.69137 0.24477 -0.51300
O 	O 	0.66170 0.57109 0.21479 -0.39600
O 	O 	0.64530 0.59978 0.30925 -0.36400
O 	O 	0.78990 0.68986 0.24909 -0.48200
N 	N 	0.23510 0.64324 0.18686 -0.26900
N 	N 	0.22220 0.64707 0.31385 -0.27700
C 	C 	0.31970 0.61500 0.14728 0.07600
C 	C 	0.26570 0.57510 0.10345 -0.12900
C 	C 	0.11690 0.56461 0.09880 0.06200
C 	C 	0.03040 0.59200 0.14024 -0.10400
C 	C 	0.09160 0.63080 0.18304 0.06100
C 	C 	0.05570 0.52808 0.04933 -0.00900
C 	C 	0.24980 0.57240 0.32494 0.07900
C 	C 	0.18850 0.53400 0.36758 -0.12200
C 	C 	0.09590 0.57252 0.40119 0.07400
C 	C 	0.06350 0.64990 0.38908 -0.13400
C 	C 	0.12880 0.68480 0.34575 0.07700
C 	C 	0.03900 0.53498 0.45105 -0.01600
H 	H 	0.32630 0.55920 0.07400 0.06700
H 	H 	0.92010 0.59060 0.13830 0.06300
H 	H 	0.03590 0.65660 0.21130 -0.00900
H 	H 	0.42040 0.61920 0.15160 -0.01300
H 	H 	0.32100 0.54910 0.29850 0.01100
H 	H 	0.19280 0.47670 0.37230 0.08600
H 	H 	0.00780 0.68040 0.41500 0.06700
H 	H 	0.10460 0.73490 0.33530 -0.02100
H 	H 	0.66050 0.59150 0.18270 0.21100
H 	H 	0.62090 0.63130 0.33980 0.16000
Zn	Zn	0.68146 0.30002 0.25088 1.21100
P 	P 	0.34496 0.35787 0.25432 0.57100
O 	O 	0.47660 0.30863 0.24477 -0.51300
O 	O 	0.33830 0.42891 0.21479 -0.39600
O 	O 	0.35470 0.40022 0.30925 -0.36400
O 	O 	0.21010 0.31014 0.24909 -0.48200
N 	N 	0.76490 0.35676 0.18686 -0.26900
N 	N 	0.77780 0.35293 0.31385 -0.27700
C 	C 	0.68030 0.38500 0.14728 0.07600
C 	C 	0.73430 0.42490 0.10345 -0.12900
C 	C 	0.88310 0.43539 0.09880 0.06200
C 	C 	0.96960 0.40800 0.14024 -0.10400
C 	C 	0.90840 0.36920 0.18304 0.06100
C 	C 	0.94430 0.47192 0.04933 -0.00900
C 	C 	0.75020 0.42760 0.32494 0.07900
C 	C 	0.81150 0.46600 0.36758 -0.12200
C 	C 	0.90410 0.42748 0.40119 0.07400
C 	C 	0.93650 0.35010 0.38908 -0.13400
C 	C 	0.87120 0.31520 0.34575 0.07700
C 	C 	0.96100 0.46502 0.45105 -0.01600
H 	H 	0.67370 0.44080 0.07400 0.06700
H 	H 	0.07990 0.40940 0.13830 0.06300
H 	H 	0.96410 0.34340 0.21130 -0.00900
H 	H 	0.57960 0.38080 0.15160 -0.01300
H 	H 	0.67900 0.45090 0.29850 0.01100
H 	H 	0.80720 0.52330 0.37230 0.08600
H 	H 	0.99220 0.31960 0.41500 0.06700
H 	H 	0.89540 0.26510 0.33530 -0.02100
H 	H 	0.33950 0.40850 0.18270 0.21100
H 	H 	0.37910 0.36870 0.33980 0.16000
Zn	Zn	0.81854 0.80002 0.75088 1.21100
P 	P 	0.15504 0.85787 0.75432 0.57100
O 	O 	0.02340 0.80863 0.74477 -0.51300
O 	O 	0.16170 0.92891 0.71479 -0.39500
O 	O 	0.14530 0.90022 0.80925 -0.36300
O 	O 	0.28990 0.81014 0.74909 -0.48100
N 	N 	0.73510 0.85676 0.68686 -0.26900
N 	N 	0.72220 0.85293 0.81385 -0.27700
C 	C 	0.81970 0.88500 0.64728 0.07500
C 	C 	0.76570 0.92490 0.60345 -0.12900
C 	C 	0.61690 0.93539 0.59880 0.06200
C 	C 	0.53040 0.90800 0.64024 -0.10500
C 	C 	0.59160 0.86920 0.68304 0.06200
C 	C 	0.55570 0.97192 0.54933 -0.00900
C 	C 	0.74980 0.92760 0.82494 0.08000
C 	C 	0.68850 0.96600 0.86758 -0.12500
C 	C 	0.59590 0.92748 0.90119 0.07500
C 	C 	0.56350 0.85010 0.88908 -0.13500
C 	C 	0.62880 0.81520 0.84575 0.07700
C 	C 	0.53900 0.96502 0.95105 -0.01800
H 	H 	0.82630 0.94080 0.57400 0.06600
H 	H 	0.42010 0.90940 0.63830 0.06400
H 	H 	0.53590 0.84340 0.71130 -0.00900
H 	H 	0.92040 0.88080 0.65160 -0.01400
H 	H 	0.82100 0.95090 0.79850 0.01000
H 	H 	0.69280 0.02330 0.87230 0.08700
H 	H 	0.50780 0.81960 0.91500 0.06600
H 	H 	0.60460 0.76510 0.83530 -0.02100
H 	H 	0.16050 0.90850 0.68270 0.21100
H 	H 	0.12090 0.86870 0.83980 0.16000
Zn	Zn	0.18146 0.19998 0.75088 1.21100
P 	P 	0.84496 0.14213 0.75432 0.57100
O 	O 	0.97660 0.19137 0.74477 -0.51300
O 	O 	0.83830 0.07109 0.71479 -0.39500
O 	O 	0.85470 0.09978 0.80925 -0.36300
O 	O 	0.71010 0.18986 0.74909 -0.48100
N 	N 	0.26490 0.14324 0.68686 -0.26900
N 	N 	0.27780 0.14707 0.81385 -0.27700
C 	C 	0.18030 0.11500 0.64728 0.07500
C 	C 	0.23430 0.07510 0.60345 -0.12900
C 	C 	0.38310 0.06461 0.59880 0.06200
C 	C 	0.46960 0.09200 0.64024 -0.10500
C 	C 	0.40840 0.13080 0.68304 0.06200
C 	C 	0.44430 0.02808 0.54933 -0.00900
C 	C 	0.25020 0.07240 0.82494 0.08000
C 	C 	0.31150 0.03400 0.86758 -0.12500
C 	C 	0.40410 0.07252 0.90119 0.07500
C 	C 	0.43650 0.14990 0.88908 -0.13500
C 	C 	0.37120 0.18480 0.84575 0.07700
C 	C 	0.46100 0.03498 0.95105 -0.01800
H 	H 	0.17370 0.05920 0.57400 0.06600
H 	H 	0.57990 0.09060 0.63830 0.06400
H 	H 	0.46410 0.15660 0.71130 -0.00900
H 	H 	0.07960 0.11920 0.65160 -0.01400
H 	H 	0.17900 0.04910 0.79850 0.01000
H 	H 	0.30720 0.97670 0.87230 0.08700
H 	H 	0.49220 0.18040 0.91500 0.06600
H 	H 	0.39540 0.23490 0.83530 -0.02100
H 	H 	0.83950 0.09150 0.68270 0.21100
H 	H 	0.87910 0.13130 0.83980 0.16000
Zn	Zn	0.68146 0.30002 0.74912 1.21100
P 	P 	0.34496 0.35787 0.74568 0.57100
O 	O 	0.47660 0.30863 0.75523 -0.51300
O 	O 	0.33830 0.42891 0.78521 -0.39600
O 	O 	0.35470 0.40022 0.69075 -0.36400
O 	O 	0.21010 0.31014 0.75091 -0.48200
N 	N 	0.76490 0.35676 0.81314 -0.26900
N 	N 	0.77780 0.35293 0.68615 -0.27700
C 	C 	0.68030 0.38500 0.85272 0.07500
C 	C 	0.73430 0.42490 0.89655 -0.12900
C 	C 	0.88310 0.43539 0.90120 0.06200
C 	C 	0.96960 0.40800 0.85976 -0.10400
C 	C 	0.90840 0.36920 0.81696 0.06100
C 	C 	0.94430 0.47192 0.95067 -0.01000
C 	C 	0.75020 0.42760 0.67506 0.07900
C 	C 	0.81150 0.46600 0.63242 -0.12200
C 	C 	0.90410 0.42748 0.59881 0.07400
C 	C 	0.93650 0.35010 0.61092 -0.13400
C 	C 	0.87120 0.31520 0.65425 0.07700
C 	C 	0.96100 0.46502 0.54895 -0.01600
H 	H 	0.67370 0.44080 0.92600 0.06600
H 	H 	0.07990 0.40940 0.86170 0.06300
H 	H 	0.96410 0.34340 0.78870 -0.00900
H 	H 	0.57960 0.38080 0.84840 -0.01300
H 	H 	0.67900 0.45090 0.70150 0.01100
H 	H 	0.80720 0.52330 0.62770 0.08600
H 	H 	0.99220 0.31960 0.58500 0.06700
H 	H 	0.89540 0.26510 0.66470 -0.02100
H 	H 	0.33950 0.40850 0.81730 0.21100
H 	H 	0.37910 0.36870 0.66020 0.16000
Zn	Zn	0.31854 0.69998 0.74912 1.21100
P 	P 	0.65504 0.64213 0.74568 0.57100
O 	O 	0.52340 0.69137 0.75523 -0.51300
O 	O 	0.66170 0.57109 0.78521 -0.39600
O 	O 	0.64530 0.59978 0.69075 -0.36400
O 	O 	0.78990 0.68986 0.75091 -0.48200
N 	N 	0.23510 0.64324 0.81314 -0.26900
N 	N 	0.22220 0.64707 0.68615 -0.27700
C 	C 	0.31970 0.61500 0.85272 0.07500
C 	C 	0.26570 0.57510 0.89655 -0.12900
C 	C 	0.11690 0.56461 0.90120 0.06200
C 	C 	0.03040 0.59200 0.85976 -0.10400
C 	C 	0.09160 0.63080 0.81696 0.06100
C 	C 	0.05570 0.52808 0.95067 -0.01000
C 	C 	0.24980 0.57240 0.67506 0.07900
C 	C 	0.18850 0.53400 0.63242 -0.12200
C 	C 	0.09590 0.57252 0.59881 0.07400
C 	C 	0.06350 0.64990 0.61092 -0.13400
C 	C 	0.12880 0.68480 0.65425 0.07700
C 	C 	0.03900 0.53498 0.54895 -0.01600
H 	H 	0.32630 0.55920 0.92600 0.06600
H 	H 	0.92010 0.59060 0.86170 0.06300
H 	H 	0.03590 0.65660 0.78870 -0.00900
H 	H 	0.42040 0.61920 0.84840 -0.01300
H 	H 	0.32100 0.54910 0.70150 0.01100
H 	H 	0.19280 0.47670 0.62770 0.08600
H 	H 	0.00780 0.68040 0.58500 0.06700
H 	H 	0.10460 0.73490 0.66470 -0.02100
H 	H 	0.66050 0.59150 0.81730 0.21100
H 	H 	0.62090 0.63130 0.66020 0.16000
C 	C 	0.39080 0.05330 0.50000 -0.08100
H 	H 	0.32660 0.09140 0.50000 0.05800
C 	C 	0.60920 0.94670 0.50000 -0.08100
H 	H 	0.67340 0.90860 0.50000 0.05800
C 	C 	0.10920 0.55330 -0.00000 -0.07900
H 	H 	0.17340 0.59140 -0.00000 0.05800
C 	C 	0.89080 0.44670 -0.00000 -0.07900
H 	H 	0.82660 0.40860 -0.00000 0.05800
C 	C 	0.42240 0.06830 -0.00000 -0.05600
H 	H 	0.36420 0.11380 -0.00000 0.04800
C 	C 	0.57760 0.93170 -0.00000 -0.05600
H 	H 	0.63580 0.88620 -0.00000 0.04800
C 	C 	0.07760 0.56830 0.50000 -0.05900
H 	H 	0.13580 0.61380 0.50000 0.04900
C 	C 	0.92240 0.43170 0.50000 -0.05900
H 	H 	0.86420 0.38620 0.50000 0.04900
