data_crystal

_cell_length_a 16.81300
_cell_length_b 12.98600
_cell_length_c 11.84500
_cell_angle_alpha 90.00000
_cell_angle_beta  107.64000
_cell_angle_gamma 90.00000

_symmetry_space_group_name_	'P 1'
_symmetry_space_group_name_H-M	'P 1'

loop_
_symmetry_equiv_pos_as_xyz
  x,y,z

loop_
_atom_site_label
_atom_site_type_symbol
_atom_site_fract_x
_atom_site_fract_y
_atom_site_fract_z
_atom_site_charge
N 	N 	0.03937 0.04708 0.18322 -0.22400
N 	N 	0.87830 0.06535 0.97930 -0.15500
N 	N 	0.77408 0.11142 0.04560 -0.16600
N 	N 	0.61268 0.25049 0.36864 -0.14000
N 	N 	0.55015 0.35903 0.45705 -0.23300
C 	C 	0.85656 0.12110 0.05760 0.04200
H 	H 	0.89320 0.16220 0.11440 0.03000
C 	C 	0.65523 0.21380 0.28850 0.08500
C 	C 	0.73304 0.14850 0.12720 0.07400
C 	C 	0.66259 0.09780 0.13620 -0.07800
H 	H 	0.64140 0.04190 0.08730 0.02400
C 	C 	0.57890 0.19380 0.44040 0.00200
H 	H 	0.58110 0.12260 0.44960 0.01000
C 	C 	0.59334 0.34910 0.38180 0.09900
H 	H 	0.60860 0.40390 0.34230 -0.00800
C 	C 	0.62395 0.13010 0.21700 -0.09000
H 	H 	0.57700 0.09570 0.22350 0.04600
C 	C 	0.54197 0.26110 0.49480 0.00300
H 	H 	0.51490 0.24370 0.55000 0.01600
C 	C 	0.80568 0.01900 0.91180 -0.16000
H 	H 	0.80190 0.97530 0.84820 0.12800
C 	C 	0.74119 0.04570 0.95040 0.12600
H 	H 	0.68600 0.02460 0.91970 -0.02400
C 	C 	0.72636 0.26230 0.28160 -0.08200
H 	H 	0.74840 0.31720 0.33170 0.06400
C 	C 	0.76516 0.22980 0.20030 -0.07300
H 	H 	0.81300 0.26300 0.19540 0.06300
N 	N 	0.53937 0.54708 0.18322 -0.19900
N 	N 	0.37830 0.56535 0.97930 -0.18700
N 	N 	0.27408 0.61142 0.04560 -0.15600
N 	N 	0.11268 0.75049 0.36864 -0.13800
N 	N 	0.05015 0.85903 0.45705 -0.22800
C 	C 	0.35656 0.62110 0.05760 0.04100
H 	H 	0.39320 0.66220 0.11440 0.01100
C 	C 	0.15523 0.71380 0.28850 0.08100
C 	C 	0.23304 0.64850 0.12720 0.07400
C 	C 	0.16259 0.59780 0.13620 -0.08500
H 	H 	0.14140 0.54190 0.08730 0.03300
C 	C 	0.07890 0.69380 0.44040 -0.01000
H 	H 	0.08110 0.62260 0.44960 0.01600
C 	C 	0.09334 0.84910 0.38180 0.09000
H 	H 	0.10860 0.90390 0.34230 0.01200
C 	C 	0.12395 0.63010 0.21700 -0.08500
H 	H 	0.07700 0.59570 0.22350 0.03500
C 	C 	0.04197 0.76110 0.49480 -0.00200
H 	H 	0.01490 0.74370 0.55000 -0.00100
C 	C 	0.30568 0.51900 0.91180 -0.01900
H 	H 	0.30190 0.47530 0.84820 0.03900
C 	C 	0.24119 0.54570 0.95040 0.06300
H 	H 	0.18600 0.52460 0.91970 0.01300
C 	C 	0.22636 0.76230 0.28160 -0.08200
H 	H 	0.24840 0.81720 0.33170 0.07300
C 	C 	0.26516 0.72980 0.20030 -0.07400
H 	H 	0.31300 0.76300 0.19540 0.06100
N 	N 	0.96063 0.04708 0.31678 -0.14700
N 	N 	0.12170 0.06535 0.52070 -0.22500
N 	N 	0.22592 0.11142 0.45440 -0.14900
N 	N 	0.38732 0.25049 0.13136 -0.15000
N 	N 	0.44985 0.35903 0.04295 -0.22400
C 	C 	0.14344 0.12110 0.44240 0.09400
H 	H 	0.10680 0.16220 0.38560 -0.02100
C 	C 	0.34477 0.21380 0.21150 0.08000
C 	C 	0.26696 0.14850 0.37280 0.08200
C 	C 	0.33741 0.09780 0.36380 -0.08000
H 	H 	0.35860 0.04190 0.41270 0.03900
C 	C 	0.42110 0.19380 0.05960 0.05700
H 	H 	0.41890 0.12260 0.05040 -0.02400
C 	C 	0.40666 0.34910 0.11820 0.09300
H 	H 	0.39140 0.40390 0.15770 -0.01000
C 	C 	0.37605 0.13010 0.28300 -0.08500
H 	H 	0.42300 0.09570 0.27650 0.04500
C 	C 	0.45803 0.26110 0.00520 -0.12100
H 	H 	0.48510 0.24370 0.95000 0.09200
C 	C 	0.19432 0.01900 0.58820 -0.16200
H 	H 	0.19810 0.97530 0.65180 0.12400
C 	C 	0.25881 0.04570 0.54960 0.07100
H 	H 	0.31400 0.02460 0.58030 -0.01700
C 	C 	0.27364 0.26230 0.21840 -0.08300
H 	H 	0.25160 0.31720 0.16830 0.05300
C 	C 	0.23484 0.22980 0.29970 -0.07400
H 	H 	0.18700 0.26300 0.30460 0.05300
N 	N 	0.46063 0.54708 0.31678 -0.19400
N 	N 	0.62170 0.56535 0.52070 -0.22900
N 	N 	0.72592 0.61142 0.45440 -0.13500
N 	N 	0.88732 0.75049 0.13136 -0.14600
N 	N 	0.94985 0.85903 0.04295 -0.19000
C 	C 	0.64344 0.62110 0.44240 0.10000
H 	H 	0.60680 0.66220 0.38560 -0.00500
C 	C 	0.84477 0.71380 0.21150 0.10100
C 	C 	0.76696 0.64850 0.37280 0.08400
C 	C 	0.83741 0.59780 0.36380 -0.06500
H 	H 	0.85860 0.54190 0.41270 0.06100
C 	C 	0.92110 0.69380 0.05960 0.06400
H 	H 	0.91890 0.62260 0.05040 0.00500
C 	C 	0.90666 0.84910 0.11820 0.11000
H 	H 	0.89140 0.90390 0.15770 0.01900
C 	C 	0.87605 0.63010 0.28300 -0.08300
H 	H 	0.92300 0.59570 0.27650 0.07900
C 	C 	0.95803 0.76110 0.00520 -0.09600
H 	H 	0.98510 0.74370 0.95000 0.11300
C 	C 	0.69432 0.51900 0.58820 -0.00000
H 	H 	0.69810 0.47530 0.65180 0.02700
C 	C 	0.75881 0.54570 0.54960 0.00100
H 	H 	0.81400 0.52460 0.58030 0.03500
C 	C 	0.77364 0.76230 0.21840 -0.08700
H 	H 	0.75160 0.81720 0.16830 0.06700
C 	C 	0.73484 0.72980 0.29970 -0.06800
H 	H 	0.68700 0.76300 0.30460 0.06000
N 	N 	0.96063 0.95292 0.81678 -0.11200
N 	N 	0.12170 0.93465 0.02070 -0.28200
N 	N 	0.22592 0.88858 0.95440 -0.10600
N 	N 	0.38732 0.74951 0.63136 -0.13500
N 	N 	0.44985 0.64097 0.54295 -0.23400
C 	C 	0.14344 0.87890 0.94240 0.16100
H 	H 	0.10680 0.83780 0.88560 -0.03100
C 	C 	0.34477 0.78620 0.71150 0.08800
C 	C 	0.26696 0.85150 0.87280 0.10100
C 	C 	0.33741 0.90220 0.86380 -0.07900
H 	H 	0.35860 0.95810 0.91270 0.08800
C 	C 	0.42110 0.80620 0.55960 -0.00200
H 	H 	0.41890 0.87740 0.55040 0.04300
C 	C 	0.40666 0.65090 0.61820 0.10000
H 	H 	0.39140 0.59610 0.65770 -0.00700
C 	C 	0.37605 0.86990 0.78300 -0.06600
H 	H 	0.42300 0.90430 0.77650 0.06800
C 	C 	0.45803 0.73890 0.50520 0.01100
H 	H 	0.48510 0.75630 0.45000 0.02000
C 	C 	0.19432 0.98100 0.08820 0.18000
H 	H 	0.19810 0.02470 0.15180 -0.08400
C 	C 	0.25881 0.95430 0.04960 -0.13000
H 	H 	0.31400 0.97540 0.08030 0.08700
C 	C 	0.27364 0.73770 0.71840 -0.07400
H 	H 	0.25160 0.68280 0.66830 0.06100
C 	C 	0.23484 0.77020 0.79970 -0.07600
H 	H 	0.18700 0.73700 0.80460 0.06000
N 	N 	0.46063 0.45292 0.81678 -0.18400
N 	N 	0.62170 0.43465 0.02070 -0.26500
N 	N 	0.72592 0.38858 0.95440 -0.11700
N 	N 	0.88732 0.24951 0.63136 -0.13700
N 	N 	0.94985 0.14097 0.54295 -0.22000
C 	C 	0.64344 0.37890 0.94240 0.15900
H 	H 	0.60680 0.33780 0.88560 -0.02000
C 	C 	0.84477 0.28620 0.71150 0.09400
C 	C 	0.76696 0.35150 0.87280 0.09900
C 	C 	0.83741 0.40220 0.86380 -0.07100
H 	H 	0.85860 0.45810 0.91270 0.07800
C 	C 	0.92110 0.30620 0.55960 0.01200
H 	H 	0.91890 0.37740 0.55040 0.03600
C 	C 	0.90666 0.15090 0.61820 0.11000
H 	H 	0.89140 0.09610 0.65770 -0.01600
C 	C 	0.87605 0.36990 0.78300 -0.07200
H 	H 	0.92300 0.40430 0.77650 0.07900
C 	C 	0.95803 0.23890 0.50520 0.01600
H 	H 	0.98510 0.25630 0.45000 0.04300
C 	C 	0.69432 0.48100 0.08820 0.01400
H 	H 	0.69810 0.52470 0.15180 0.01700
C 	C 	0.75881 0.45430 0.04960 -0.05800
H 	H 	0.81400 0.47540 0.08030 0.04500
C 	C 	0.77364 0.23770 0.71840 -0.07500
H 	H 	0.75160 0.18280 0.66830 0.05300
C 	C 	0.73484 0.27020 0.79970 -0.07500
H 	H 	0.68700 0.23700 0.80460 0.06100
N 	N 	0.03937 0.95292 0.68322 -0.18100
N 	N 	0.87830 0.93465 0.47930 -0.21800
N 	N 	0.77408 0.88858 0.54560 -0.12400
N 	N 	0.61268 0.74951 0.86864 -0.12600
N 	N 	0.55015 0.64097 0.95705 -0.23800
C 	C 	0.85656 0.87890 0.55760 0.10800
H 	H 	0.89320 0.83780 0.61440 0.01600
C 	C 	0.65523 0.78620 0.78850 0.09100
C 	C 	0.73304 0.85150 0.62720 0.09300
C 	C 	0.66259 0.90220 0.63620 -0.07800
H 	H 	0.64140 0.95810 0.58730 0.07200
C 	C 	0.57890 0.80620 0.94040 -0.05400
H 	H 	0.58110 0.87740 0.94960 0.07400
C 	C 	0.59334 0.65090 0.88180 0.10500
H 	H 	0.60860 0.59610 0.84230 -0.00400
C 	C 	0.62395 0.86990 0.71700 -0.07200
H 	H 	0.57700 0.90430 0.72350 0.06800
C 	C 	0.54197 0.73890 0.99480 0.12800
H 	H 	0.51490 0.75630 0.05000 -0.05100
C 	C 	0.80568 0.98100 0.41180 0.14600
H 	H 	0.80190 0.02470 0.34820 -0.05900
C 	C 	0.74119 0.95430 0.45040 -0.06200
H 	H 	0.68600 0.97540 0.41970 0.07100
C 	C 	0.72636 0.73770 0.78160 -0.07400
H 	H 	0.74840 0.68280 0.83170 0.07100
C 	C 	0.76516 0.77020 0.70030 -0.07500
H 	H 	0.81300 0.73700 0.69540 0.07000
N 	N 	0.53937 0.45292 0.68322 -0.19400
N 	N 	0.37830 0.43465 0.47930 -0.22900
N 	N 	0.27408 0.38858 0.54560 -0.13800
N 	N 	0.11268 0.24951 0.86864 -0.12800
N 	N 	0.05015 0.14097 0.95705 -0.25800
C 	C 	0.35656 0.37890 0.55760 0.10100
H 	H 	0.39320 0.33780 0.61440 -0.00600
C 	C 	0.15523 0.28620 0.78850 0.07300
C 	C 	0.23304 0.35150 0.62720 0.09000
C 	C 	0.16259 0.40220 0.63620 -0.09200
H 	H 	0.14140 0.45810 0.58730 0.05100
C 	C 	0.07890 0.30620 0.94040 -0.07100
H 	H 	0.08110 0.37740 0.94960 0.05200
C 	C 	0.09334 0.15090 0.88180 0.09000
H 	H 	0.10860 0.09610 0.84230 -0.02600
C 	C 	0.12395 0.36990 0.71700 -0.07400
H 	H 	0.07700 0.40430 0.72350 0.03500
C 	C 	0.04197 0.23890 0.99480 0.12700
H 	H 	0.01490 0.25630 0.05000 -0.08400
C 	C 	0.30568 0.48100 0.41180 -0.00400
H 	H 	0.30190 0.52470 0.34820 0.02800
C 	C 	0.24119 0.45430 0.45040 0.00300
H 	H 	0.18600 0.47540 0.41970 0.02200
C 	C 	0.22636 0.23770 0.78160 -0.06900
H 	H 	0.24840 0.18280 0.83170 0.05900
C 	C 	0.26516 0.27020 0.70030 -0.08000
H 	H 	0.31300 0.23700 0.69540 0.06200
Co	Co	-0.00000 0.00000 -0.00000 1.03600
Co	Co	0.50000 0.50000 -0.00000 1.09900
Co	Co	0.00000 -0.00000 0.50000 1.05600
Co	Co	0.50000 0.50000 0.50000 1.12000
N 	N 	0.00000 0.04610 0.25000 -0.11500
N 	N 	0.50000 0.54610 0.25000 -0.04900
N 	N 	0.00000 0.95390 0.75000 -0.08700
N 	N 	0.50000 0.45390 0.75000 -0.04700
