data_crystal

_cell_length_a 11.49920
_cell_length_b 11.49920
_cell_length_c 12.73410
_cell_angle_alpha 90.00000
_cell_angle_beta  90.00000
_cell_angle_gamma 90.00000

_symmetry_space_group_name_	'P 1'
_symmetry_space_group_name_H-M	'P 1'

loop_
_symmetry_equiv_pos_as_xyz
  x,y,z

loop_
_atom_site_label
_atom_site_type_symbol
_atom_site_fract_x
_atom_site_fract_y
_atom_site_fract_z
_atom_site_charge
N 	N 	0.69870 0.50050 0.82100 -0.20700
N 	N 	0.79280 0.70290 0.91100 -0.19200
N 	N 	0.39660 0.50570 0.08550 -0.13600
C 	C 	0.78990 0.55560 0.78070 0.00100
H 	H 	0.82380 0.52570 0.72020 0.00900
C 	C 	0.83740 0.65640 0.82490 0.00800
H 	H 	0.90130 0.69130 0.79320 0.02100
C 	C 	0.69900 0.64880 0.95280 0.06800
C 	C 	0.54900 0.65250 0.09090 0.05000
C 	C 	0.49630 0.54990 0.04340 -0.04100
C 	C 	0.35530 0.41040 0.04330 -0.05900
H 	H 	0.37770 0.28790 0.92920 0.00900
N 	N 	0.30130 0.49950 0.32100 -0.21200
N 	N 	0.20720 0.29710 0.41100 -0.19200
N 	N 	0.60340 0.49430 0.58550 -0.15100
C 	C 	0.21010 0.44440 0.28070 0.00100
H 	H 	0.17620 0.47430 0.22020 0.00700
C 	C 	0.16260 0.34360 0.32490 0.00300
H 	H 	0.09870 0.30870 0.29320 0.01900
C 	C 	0.30100 0.35120 0.45280 0.01400
C 	C 	0.45100 0.34750 0.59090 0.02800
C 	C 	0.50370 0.45010 0.54340 0.01600
C 	C 	0.64470 0.58960 0.54330 0.00700
H 	H 	0.62230 0.71210 0.42920 0.02400
N 	N 	0.99950 0.19870 0.57100 -0.21200
N 	N 	0.79710 0.29280 0.66100 -0.19200
N 	N 	0.99430 0.89660 0.83550 -0.14600
C 	C 	0.94440 0.28990 0.53070 0.00300
H 	H 	0.97430 0.32380 0.47020 0.00800
C 	C 	0.84360 0.33740 0.57490 0.00400
H 	H 	0.80870 0.40130 0.54320 0.02000
C 	C 	0.85120 0.19900 0.70280 0.01500
C 	C 	0.84750 0.04900 0.84090 0.03100
C 	C 	0.95010 0.99630 0.79340 0.02200
C 	C 	0.08960 0.85530 0.79330 0.00800
H 	H 	0.21210 0.87770 0.67920 0.02500
N 	N 	0.00050 0.80130 0.07100 -0.20300
N 	N 	0.20290 0.70720 0.16100 -0.19900
N 	N 	0.00570 0.10340 0.33550 -0.15100
C 	C 	0.05560 0.71010 0.03070 -0.07300
H 	H 	0.02570 0.67620 0.97020 0.05800
C 	C 	0.15640 0.66260 0.07490 0.03500
H 	H 	0.19130 0.59870 0.04320 0.00200
C 	C 	0.14880 0.80100 0.20280 0.01600
C 	C 	0.15250 0.95100 0.34090 0.03000
C 	C 	0.04990 0.00370 0.29340 0.01300
C 	C 	0.91040 0.14470 0.29330 0.00400
H 	H 	0.78790 0.12230 0.17920 0.01800
N 	N 	0.80130 0.00050 0.92900 -0.21600
N 	N 	0.70720 0.20290 0.83900 -0.18400
N 	N 	0.10340 0.00570 0.66450 -0.15300
C 	C 	0.71010 0.05560 0.96930 0.08700
H 	H 	0.67620 0.02570 0.02980 -0.04400
C 	C 	0.66260 0.15640 0.92510 -0.03100
H 	H 	0.59870 0.19130 0.95680 0.04200
C 	C 	0.80100 0.14880 0.79720 0.01400
C 	C 	0.95100 0.15250 0.65910 0.03100
C 	C 	0.00370 0.04990 0.70660 0.01000
C 	C 	0.14470 0.91040 0.70670 0.01400
H 	H 	0.12230 0.78790 0.82080 0.03100
N 	N 	0.19870 0.99950 0.42900 -0.21100
N 	N 	0.29280 0.79710 0.33900 -0.19200
N 	N 	0.89660 0.99430 0.16450 -0.15500
C 	C 	0.28990 0.94440 0.46930 0.00200
H 	H 	0.32380 0.97430 0.52980 0.01000
C 	C 	0.33740 0.84360 0.42510 0.00400
H 	H 	0.40130 0.80870 0.45680 0.02100
C 	C 	0.19900 0.85120 0.29720 0.01300
C 	C 	0.04900 0.84750 0.15910 0.02800
C 	C 	0.99630 0.95010 0.20660 0.00800
C 	C 	0.85530 0.08960 0.20670 0.00600
H 	H 	0.87770 0.21210 0.32080 0.02300
N 	N 	0.50050 0.69870 0.17900 -0.21700
N 	N 	0.70290 0.79280 0.08900 -0.18900
N 	N 	0.50570 0.39660 0.91450 -0.16700
C 	C 	0.55560 0.78990 0.21930 0.00300
H 	H 	0.52570 0.82380 0.27980 0.00800
C 	C 	0.65640 0.83740 0.17510 -0.00000
H 	H 	0.69130 0.90130 0.20680 0.02100
C 	C 	0.64880 0.69900 0.04720 -0.03700
C 	C 	0.65250 0.54900 0.90910 0.00400
C 	C 	0.54990 0.49630 0.95660 0.07300
C 	C 	0.41040 0.35530 0.95670 0.07400
H 	H 	0.28790 0.37770 0.07080 0.04000
N 	N 	0.49950 0.30130 0.67900 -0.21200
N 	N 	0.29710 0.20720 0.58900 -0.19200
N 	N 	0.49430 0.60340 0.41450 -0.15100
C 	C 	0.44440 0.21010 0.71930 0.00300
H 	H 	0.47430 0.17620 0.77980 0.01100
C 	C 	0.34360 0.16260 0.67510 0.00500
H 	H 	0.30870 0.09870 0.70680 0.02200
C 	C 	0.35120 0.30100 0.54720 0.01500
C 	C 	0.34750 0.45100 0.40910 0.02700
C 	C 	0.45010 0.50370 0.45660 0.01500
C 	C 	0.58960 0.64470 0.45670 0.00700
H 	H 	0.71210 0.62230 0.57080 0.02500
Cu	Cu	0.64734 0.35266 0.75000 0.86100
Cu	Cu	0.35266 0.64734 0.25000 0.86000
Cu	Cu	0.14734 0.14734 0.50000 0.85900
Cu	Cu	0.85266 0.85266 -0.00000 0.84300
