data_crystal

_cell_length_a 13.04900
_cell_length_b 13.90090
_cell_length_c 13.90090
_cell_angle_alpha 90.00000
_cell_angle_beta  90.00000
_cell_angle_gamma 90.00000

_symmetry_space_group_name_	'P 1'
_symmetry_space_group_name_H-M	'P 1'

loop_
_symmetry_equiv_pos_as_xyz
  x,y,z

loop_
_atom_site_label
_atom_site_type_symbol
_atom_site_fract_x
_atom_site_fract_y
_atom_site_fract_z
_atom_site_charge
Gd	Gd	0.88382 0.71308 0.21307 1.14200
Gd	Gd	0.88382 0.28692 0.78693 1.15900
Gd	Gd	0.11618 0.21307 0.28692 1.10400
Gd	Gd	0.11618 0.78693 0.71308 1.19500
H 	H 	0.76590 0.83890 0.66030 -0.00100
H 	H 	0.61020 0.77810 0.71960 0.15700
H 	H 	0.45820 0.83990 0.66090 0.02500
H 	H 	0.55240 0.81650 0.31850 0.11500
H 	H 	0.76590 0.16110 0.33970 -0.01300
H 	H 	0.61020 0.22190 0.28040 0.14300
H 	H 	0.45820 0.16010 0.33910 0.02200
H 	H 	0.55240 0.18350 0.68150 0.10800
H 	H 	0.23410 0.66030 0.16110 -0.00700
H 	H 	0.38980 0.71960 0.22190 0.14800
H 	H 	0.54180 0.66090 0.16010 0.02200
H 	H 	0.44760 0.31850 0.18350 0.10600
H 	H 	0.23410 0.33970 0.83890 -0.00700
H 	H 	0.38980 0.28040 0.77810 0.15200
H 	H 	0.54180 0.33910 0.83990 0.02500
H 	H 	0.44760 0.68150 0.81650 0.11700
Ru	Ru	0.83030 0.00000 0.50000 0.86200
Ru	Ru	0.39232 0.00000 0.50000 0.88700
Ru	Ru	0.16970 0.50000 -0.00000 0.86200
Ru	Ru	0.60768 0.50000 -0.00000 0.88700
C 	C 	0.61230 0.96230 0.53720 0.19300
C 	C 	0.70270 0.86290 0.63620 0.16900
C 	C 	0.61070 0.82690 0.67180 -0.11200
C 	C 	0.52130 0.86350 0.63620 0.20000
C 	C 	0.84170 0.89880 0.39450 -0.05300
C 	C 	0.93340 0.92520 0.57390 -0.08200
C 	C 	0.37710 0.10370 0.60240 -0.09200
C 	C 	0.71430 0.57210 0.06670 -0.14700
C 	C 	0.65990 0.71200 0.33650 0.02900
C 	C 	0.61420 0.79130 0.29250 -0.03300
C 	C 	0.65670 0.83460 0.21160 0.01700
C 	C 	0.60070 0.66530 0.42150 0.81700
C 	C 	0.59810 0.91840 0.16480 0.90300
C 	C 	0.61230 0.03770 0.46280 0.01500
C 	C 	0.70270 0.13710 0.36380 0.14000
C 	C 	0.61070 0.17310 0.32820 -0.11200
C 	C 	0.52130 0.13650 0.36380 0.17200
C 	C 	0.84170 0.10120 0.60550 -0.12600
C 	C 	0.93340 0.07480 0.42610 -0.17600
C 	C 	0.37710 0.89630 0.39760 -0.02000
C 	C 	0.71430 0.42790 0.93330 -0.05400
C 	C 	0.65990 0.28800 0.66350 0.02700
C 	C 	0.61420 0.20870 0.70750 -0.03300
C 	C 	0.65670 0.16540 0.78840 0.01000
C 	C 	0.60070 0.33470 0.57850 0.81800
C 	C 	0.59810 0.08160 0.83520 0.90700
C 	C 	0.38770 0.53720 0.03770 0.01500
C 	C 	0.29730 0.63620 0.13710 0.14200
C 	C 	0.38930 0.67180 0.17310 -0.11100
C 	C 	0.47870 0.63620 0.13650 0.17300
C 	C 	0.15830 0.39450 0.10120 -0.13000
C 	C 	0.06660 0.57390 0.07480 -0.17300
C 	C 	0.62290 0.60240 0.89630 -0.01800
C 	C 	0.28570 0.06670 0.42790 -0.14900
C 	C 	0.34010 0.33650 0.28800 0.02500
C 	C 	0.38580 0.29250 0.20870 -0.03000
C 	C 	0.34330 0.21160 0.16540 0.00200
C 	C 	0.39930 0.42150 0.33470 0.81800
C 	C 	0.40190 0.16480 0.08160 0.91100
C 	C 	0.38770 0.46280 0.96230 0.19300
C 	C 	0.29730 0.36380 0.86290 0.16700
C 	C 	0.38930 0.32820 0.82690 -0.11400
C 	C 	0.47870 0.36380 0.86350 0.19900
C 	C 	0.15830 0.60550 0.89880 -0.04900
C 	C 	0.06660 0.42610 0.92520 -0.08600
C 	C 	0.62290 0.39760 0.10370 -0.09500
C 	C 	0.28570 0.93330 0.57210 -0.05200
C 	C 	0.34010 0.66350 0.71200 0.03100
C 	C 	0.38580 0.70750 0.79130 -0.03500
C 	C 	0.34330 0.78840 0.83460 0.02500
C 	C 	0.39930 0.57850 0.66530 0.81700
C 	C 	0.40190 0.83520 0.91840 0.89900
N 	N 	0.70300 0.93110 0.56810 -0.20800
N 	N 	0.51920 0.93170 0.56740 -0.19300
N 	N 	0.77610 0.61680 0.10590 -0.15700
N 	N 	0.85950 0.84460 0.33530 -0.16600
N 	N 	0.99020 0.88250 0.62000 -0.18400
N 	N 	0.35650 0.15890 0.66150 -0.03700
N 	N 	0.70300 0.06890 0.43190 -0.21300
N 	N 	0.51920 0.06830 0.43260 -0.20000
N 	N 	0.77610 0.38320 0.89410 -0.15700
N 	N 	0.85950 0.15540 0.66470 -0.16300
N 	N 	0.99020 0.11750 0.38000 -0.18600
N 	N 	0.35650 0.84110 0.33850 -0.04100
N 	N 	0.29700 0.56810 0.06890 -0.21200
N 	N 	0.48080 0.56740 0.06830 -0.20000
N 	N 	0.22390 0.10590 0.38320 -0.15600
N 	N 	0.14050 0.33530 0.15540 -0.16300
N 	N 	0.00980 0.62000 0.11750 -0.18400
N 	N 	0.64350 0.66150 0.84110 -0.03600
N 	N 	0.29700 0.43190 0.93110 -0.20800
N 	N 	0.48080 0.43260 0.93170 -0.19300
N 	N 	0.22390 0.89410 0.61680 -0.15700
N 	N 	0.14050 0.66470 0.84460 -0.16600
N 	N 	0.00980 0.38000 0.88250 -0.18600
N 	N 	0.64350 0.33850 0.15890 -0.04200
O 	O 	0.74130 0.66830 0.31550 -0.24000
O 	O 	0.73940 0.81420 0.16950 -0.23500
O 	O 	0.74130 0.33170 0.68450 -0.24100
O 	O 	0.73940 0.18580 0.83050 -0.22800
O 	O 	0.25870 0.31550 0.33170 -0.23600
O 	O 	0.26060 0.16950 0.18580 -0.24700
O 	O 	0.25870 0.68450 0.66830 -0.24500
O 	O 	0.26060 0.83050 0.81420 -0.21700
F 	F 	0.66180 0.66370 0.50330 -0.41400
F 	F 	0.52180 0.71310 0.45270 -0.46000
F 	F 	0.58630 0.57120 0.41540 -0.35800
F 	F 	0.50630 0.88380 0.13510 -0.41300
F 	F 	0.64490 0.95800 0.09910 -0.45200
F 	F 	0.57390 0.98290 0.23380 -0.43700
F 	F 	0.66180 0.33630 0.49670 -0.41400
F 	F 	0.52180 0.28690 0.54730 -0.46000
F 	F 	0.58630 0.42880 0.58460 -0.35700
F 	F 	0.50630 0.11620 0.86490 -0.40100
F 	F 	0.64490 0.04200 0.90090 -0.46400
F 	F 	0.57390 0.01710 0.76620 -0.50200
F 	F 	0.33820 0.50330 0.33630 -0.41300
F 	F 	0.47820 0.45270 0.28690 -0.46000
F 	F 	0.41370 0.41540 0.42880 -0.35800
F 	F 	0.49370 0.13510 0.11620 -0.44000
F 	F 	0.35510 0.09910 0.04200 -0.51000
F 	F 	0.42610 0.23380 0.01710 -0.50800
F 	F 	0.33820 0.49670 0.66370 -0.41400
F 	F 	0.47820 0.54730 0.71310 -0.46000
F 	F 	0.41370 0.58460 0.57120 -0.35800
F 	F 	0.49370 0.86490 0.88380 -0.37500
F 	F 	0.35510 0.90090 0.95800 -0.40600
F 	F 	0.42610 0.76620 0.98290 -0.43100
