data_crystal

_cell_length_a 15.11290
_cell_length_b 12.49660
_cell_length_c 16.84800
_cell_angle_alpha 90.00000
_cell_angle_beta  90.00000
_cell_angle_gamma 90.00000

_symmetry_space_group_name_	'P 1'
_symmetry_space_group_name_H-M	'P 1'

loop_
_symmetry_equiv_pos_as_xyz
  x,y,z

loop_
_atom_site_label
_atom_site_type_symbol
_atom_site_fract_x
_atom_site_fract_y
_atom_site_fract_z
_atom_site_charge
Cd	Cd	0.10359 0.01264 0.42593 1.24200
O 	O 	0.20860 0.86510 0.45120 -0.33700
O 	O 	0.20300 0.00680 0.52570 -0.38500
O 	O 	0.48070 0.62430 0.50560 -0.43700
O 	O 	0.49800 0.58470 0.63300 -0.38300
O 	O 	0.40470 0.84880 0.83440 -0.35600
O 	O 	0.32550 0.98720 0.79790 -0.34100
C 	C 	0.23200 0.91580 0.51020 0.32800
C 	C 	0.29760 0.86710 0.56660 -0.08300
C 	C 	0.34790 0.77920 0.54590 0.04500
H 	H 	0.34430 0.75230 0.49450 0.03600
C 	C 	0.46430 0.63970 0.57750 0.33600
C 	C 	0.40450 0.72960 0.60090 -0.09300
C 	C 	0.40750 0.76900 0.67830 0.03400
H 	H 	0.44360 0.73600 0.71570 0.06200
C 	C 	0.36180 0.90060 0.78380 0.31200
C 	C 	0.35710 0.85720 0.70000 -0.07200
C 	C 	0.30390 0.90690 0.64390 0.02800
H 	H 	0.27200 0.96770 0.65790 0.06300
Cd	Cd	0.39641 0.98736 0.92593 1.23800
O 	O 	0.29140 0.13490 0.95120 -0.33000
O 	O 	0.29700 0.99320 0.02570 -0.37300
O 	O 	0.01930 0.37570 0.00560 -0.43600
O 	O 	0.00200 0.41530 0.13300 -0.38100
O 	O 	0.09530 0.15120 0.33440 -0.35400
O 	O 	0.17450 0.01280 0.29790 -0.33800
C 	C 	0.26800 0.08420 0.01020 0.30900
C 	C 	0.20240 0.13290 0.06660 -0.07600
C 	C 	0.15210 0.22080 0.04590 0.03700
H 	H 	0.15570 0.24770 0.99450 0.03900
C 	C 	0.03570 0.36030 0.07750 0.33500
C 	C 	0.09550 0.27040 0.10090 -0.08900
C 	C 	0.09250 0.23100 0.17830 0.03100
H 	H 	0.05640 0.26400 0.21570 0.06300
C 	C 	0.13820 0.09940 0.28380 0.31100
C 	C 	0.14290 0.14280 0.20000 -0.06800
C 	C 	0.19610 0.09310 0.14390 0.02200
H 	H 	0.22800 0.03230 0.15790 0.06400
Cd	Cd	0.89641 0.51264 0.07407 1.24000
O 	O 	0.79140 0.36510 0.04880 -0.34600
O 	O 	0.79700 0.50680 0.97430 -0.38800
O 	O 	0.51930 0.12430 0.99440 -0.43500
O 	O 	0.50200 0.08470 0.86700 -0.38000
O 	O 	0.59530 0.34880 0.66560 -0.35400
O 	O 	0.67450 0.48720 0.70210 -0.33800
C 	C 	0.76800 0.41580 0.98980 0.33800
C 	C 	0.70240 0.36710 0.93340 -0.09200
C 	C 	0.65210 0.27920 0.95410 0.06200
H 	H 	0.65570 0.25230 0.00550 0.02500
C 	C 	0.53570 0.13970 0.92250 0.33800
C 	C 	0.59550 0.22960 0.89910 -0.10000
C 	C 	0.59250 0.26900 0.82170 0.03900
H 	H 	0.55640 0.23600 0.78430 0.06100
C 	C 	0.63820 0.40060 0.71620 0.31300
C 	C 	0.64290 0.35720 0.80000 -0.07500
C 	C 	0.69610 0.40690 0.85610 0.03300
H 	H 	0.72800 0.46770 0.84210 0.06100
Cd	Cd	0.60359 0.48736 0.57407 1.24100
O 	O 	0.70860 0.63490 0.54880 -0.33900
O 	O 	0.70300 0.49320 0.47430 -0.38700
O 	O 	0.98070 0.87570 0.49440 -0.43800
O 	O 	0.99800 0.91530 0.36700 -0.38200
O 	O 	0.90470 0.65120 0.16560 -0.35500
O 	O 	0.82550 0.51280 0.20210 -0.33900
C 	C 	0.73200 0.58420 0.48980 0.32800
C 	C 	0.79760 0.63290 0.43340 -0.08300
C 	C 	0.84790 0.72080 0.45410 0.04500
H 	H 	0.84430 0.74770 0.50550 0.03500
C 	C 	0.96430 0.86030 0.42250 0.33600
C 	C 	0.90450 0.77040 0.39910 -0.09300
C 	C 	0.90750 0.73100 0.32170 0.03400
H 	H 	0.94360 0.76400 0.28430 0.06200
C 	C 	0.86180 0.59940 0.21620 0.31200
C 	C 	0.85710 0.64280 0.30000 -0.07100
C 	C 	0.80390 0.59310 0.35610 0.02800
H 	H 	0.77200 0.53230 0.34210 0.06300
Cd	Cd	0.89641 0.98736 0.57407 1.24100
O 	O 	0.79140 0.13490 0.54880 -0.33800
O 	O 	0.79700 0.99320 0.47430 -0.38600
O 	O 	0.51930 0.37570 0.49440 -0.43800
O 	O 	0.50200 0.41530 0.36700 -0.38300
O 	O 	0.59530 0.15120 0.16560 -0.35600
O 	O 	0.67450 0.01280 0.20210 -0.34100
C 	C 	0.76800 0.08420 0.48980 0.32800
C 	C 	0.70240 0.13290 0.43340 -0.08300
C 	C 	0.65210 0.22080 0.45410 0.04500
H 	H 	0.65570 0.24770 0.50550 0.03600
C 	C 	0.53570 0.36030 0.42250 0.33600
C 	C 	0.59550 0.27040 0.39910 -0.09300
C 	C 	0.59250 0.23100 0.32170 0.03400
H 	H 	0.55640 0.26400 0.28430 0.06200
C 	C 	0.63820 0.09940 0.21620 0.31200
C 	C 	0.64290 0.14280 0.30000 -0.07200
C 	C 	0.69610 0.09310 0.35610 0.02800
H 	H 	0.72800 0.03230 0.34210 0.06300
Cd	Cd	0.60359 0.01264 0.07407 1.23800
O 	O 	0.70860 0.86510 0.04880 -0.33000
O 	O 	0.70300 0.00680 0.97430 -0.37300
O 	O 	0.98070 0.62430 0.99440 -0.43600
O 	O 	0.99800 0.58470 0.86700 -0.38100
O 	O 	0.90470 0.84880 0.66560 -0.35400
O 	O 	0.82550 0.98720 0.70210 -0.33800
C 	C 	0.73200 0.91580 0.98980 0.30900
C 	C 	0.79760 0.86710 0.93340 -0.07600
C 	C 	0.84790 0.77920 0.95410 0.03700
H 	H 	0.84430 0.75230 0.00550 0.03900
C 	C 	0.96430 0.63970 0.92250 0.33500
C 	C 	0.90450 0.72960 0.89910 -0.08900
C 	C 	0.90750 0.76900 0.82170 0.03100
H 	H 	0.94360 0.73600 0.78430 0.06300
C 	C 	0.86180 0.90060 0.71620 0.31100
C 	C 	0.85710 0.85720 0.80000 -0.06800
C 	C 	0.80390 0.90690 0.85610 0.02200
H 	H 	0.77200 0.96770 0.84210 0.06400
Cd	Cd	0.10359 0.48736 0.92593 1.24000
O 	O 	0.20860 0.63490 0.95120 -0.34600
O 	O 	0.20300 0.49320 0.02570 -0.38800
O 	O 	0.48070 0.87570 0.00560 -0.43500
O 	O 	0.49800 0.91530 0.13300 -0.38000
O 	O 	0.40470 0.65120 0.33440 -0.35400
O 	O 	0.32550 0.51280 0.29790 -0.33800
C 	C 	0.23200 0.58420 0.01020 0.33800
C 	C 	0.29760 0.63290 0.06660 -0.09200
C 	C 	0.34790 0.72080 0.04590 0.06200
H 	H 	0.34430 0.74770 0.99450 0.02500
C 	C 	0.46430 0.86030 0.07750 0.33800
C 	C 	0.40450 0.77040 0.10090 -0.10000
C 	C 	0.40750 0.73100 0.17830 0.03900
H 	H 	0.44360 0.76400 0.21570 0.06100
C 	C 	0.36180 0.59940 0.28380 0.31300
C 	C 	0.35710 0.64280 0.20000 -0.07500
C 	C 	0.30390 0.59310 0.14390 0.03300
H 	H 	0.27200 0.53230 0.15790 0.06100
Cd	Cd	0.39641 0.51264 0.42593 1.24100
O 	O 	0.29140 0.36510 0.45120 -0.33900
O 	O 	0.29700 0.50680 0.52570 -0.38700
O 	O 	0.01930 0.12430 0.50560 -0.43800
O 	O 	0.00200 0.08470 0.63300 -0.38200
O 	O 	0.09530 0.34880 0.83440 -0.35500
O 	O 	0.17450 0.48720 0.79790 -0.33900
C 	C 	0.26800 0.41580 0.51020 0.32800
C 	C 	0.20240 0.36710 0.56660 -0.08300
C 	C 	0.15210 0.27920 0.54590 0.04500
H 	H 	0.15570 0.25230 0.49450 0.03500
C 	C 	0.03570 0.13970 0.57750 0.33600
C 	C 	0.09550 0.22960 0.60090 -0.09300
C 	C 	0.09250 0.26900 0.67830 0.03400
H 	H 	0.05640 0.23600 0.71570 0.06200
C 	C 	0.13820 0.40060 0.78380 0.31200
C 	C 	0.14290 0.35720 0.70000 -0.07100
C 	C 	0.19610 0.40690 0.64390 0.02800
H 	H 	0.22800 0.46770 0.65790 0.06300
