data_crystal

_cell_length_a 13.71950
_cell_length_b 13.69980
_cell_length_c 18.12470
_cell_angle_alpha 77.63400
_cell_angle_beta  77.22500
_cell_angle_gamma 63.56200

_symmetry_space_group_name_	'P 1'
_symmetry_space_group_name_H-M	'P 1'

loop_
_symmetry_equiv_pos_as_xyz
  x,y,z

loop_
_atom_site_label
_atom_site_type_symbol
_atom_site_fract_x
_atom_site_fract_y
_atom_site_fract_z
_atom_site_charge
Co	Co	0.96921 0.21290 0.12336 1.11600
S 	S 	0.15360 0.82179 0.13762 -0.06300
S 	S 	0.73376 0.58891 0.08803 -0.07800
N 	N 	0.99970 0.25790 0.99910 -0.23000
N 	N 	0.94990 0.16380 0.24820 -0.25400
N 	N 	0.81600 0.20180 0.11940 -0.25500
N 	N 	0.12400 0.22350 0.13090 -0.28600
N 	N 	0.05730 0.04800 0.10910 -0.26200
N 	N 	0.88010 0.37750 0.13750 -0.26400
C 	C 	0.09590 0.20180 0.95980 0.02600
H 	H 	0.14490 0.13630 0.98330 0.00000
C 	C 	0.12510 0.23850 0.88460 -0.04900
H 	H 	0.19470 0.19860 0.85980 0.04300
C 	C 	0.05810 0.32760 0.84720 0.01400
C 	C 	0.95680 0.38740 0.88690 -0.07000
H 	H 	0.90560 0.45170 0.86390 0.04200
C 	C 	0.93650 0.34850 0.95900 0.03500
H 	H 	0.86870 0.39030 0.98510 -0.00100
C 	C 	0.04060 0.18420 0.95010 0.01500
H 	H 	0.04610 0.11350 0.96890 0.01000
C 	C 	0.07580 0.20630 0.87230 -0.06400
H 	H 	0.10650 0.15350 0.83920 0.04800
C 	C 	0.02310 0.38420 0.89360 -0.05400
H 	H 	0.01210 0.45720 0.87810 0.04500
C 	C 	0.99600 0.35530 0.96910 0.02900
H 	H 	0.97350 0.40790 0.00160 -0.00200
C 	C 	0.09360 0.36420 0.76780 0.10700
H 	H 	0.06510 0.34040 0.73670 0.00800
C 	C 	0.95290 0.06520 0.27950 0.11100
H 	H 	0.94870 0.02160 0.24850 -0.02400
C 	C 	0.96180 0.02470 0.35550 -0.20500
H 	H 	0.96310 0.95570 0.37530 0.10500
C 	C 	0.96900 0.08950 0.40200 0.14900
C 	C 	0.96070 0.19130 0.37130 -0.22200
H 	H 	0.96180 0.23810 0.40110 0.10000
C 	C 	0.95070 0.22390 0.29660 0.12600
H 	H 	0.94360 0.29490 0.27710 -0.03000
C 	C 	0.98800 0.04960 0.48260 -0.09400
H 	H 	0.98190 0.10130 0.51130 0.06200
C 	C 	0.81080 0.13860 0.07630 0.11100
H 	H 	0.87430 0.09960 0.04490 -0.02500
C 	C 	0.71620 0.12720 0.07520 -0.19100
H 	H 	0.71660 0.08020 0.04480 0.09300
C 	C 	0.62140 0.18660 0.12000 0.12400
C 	C 	0.62610 0.25050 0.16410 -0.19800
H 	H 	0.56330 0.29110 0.19540 0.09800
C 	C 	0.72230 0.25590 0.16320 0.11400
H 	H 	0.72340 0.30020 0.19510 -0.02200
C 	C 	0.51780 0.17750 0.11930 -0.03800
H 	H 	0.52470 0.11650 0.10030 0.03900
C 	C 	0.21710 0.14030 0.13440 0.18800
H 	H 	0.21820 0.07200 0.13440 -0.04900
C 	C 	0.31550 0.14160 0.13810 -0.30800
H 	H 	0.37900 0.07660 0.14100 0.13700
C 	C 	0.31830 0.23620 0.13760 0.26000
C 	C 	0.22340 0.32220 0.13950 -0.31100
H 	H 	0.21940 0.38980 0.14550 0.13100
C 	C 	0.13040 0.31360 0.13280 0.19200
H 	H 	0.06660 0.37830 0.12930 -0.05200
C 	C 	0.42160 0.24340 0.14170 -0.17400
H 	H 	0.41450 0.30270 0.16300 0.09000
C 	C 	0.09720 0.95490 0.12090 0.09700
C 	C 	0.81900 0.46540 0.11900 0.08700
Co	Co	0.28713 0.53075 0.37657 1.11900
S 	S 	0.67838 0.34610 0.36235 -0.06500
S 	S 	0.91119 0.76622 0.41188 -0.07000
N 	N 	0.24210 0.50010 0.50080 -0.25000
N 	N 	0.33550 0.55020 0.25180 -0.25300
N 	N 	0.29880 0.68390 0.38050 -0.25300
N 	N 	0.27690 0.37600 0.36930 -0.28900
N 	N 	0.45200 0.44240 0.39130 -0.26500
N 	N 	0.12250 0.61980 0.36270 -0.26200
C 	C 	0.29700 0.40420 0.53890 -0.01600
H 	H 	0.36220 0.35480 0.51470 0.01400
C 	C 	0.25960 0.37490 0.61480 -0.05500
H 	H 	0.29840 0.30480 0.63890 0.05200
C 	C 	0.17230 0.44250 0.65270 0.19800
C 	C 	0.11220 0.54420 0.61210 -0.16200
H 	H 	0.04710 0.59510 0.63520 0.07500
C 	C 	0.15130 0.56510 0.53990 0.12200
H 	H 	0.11040 0.63290 0.51400 -0.03400
C 	C 	0.31370 0.45950 0.55010 0.10800
H 	H 	0.38270 0.45920 0.53170 -0.02000
C 	C 	0.29640 0.41800 0.62590 -0.15600
H 	H 	0.35130 0.37960 0.65680 0.08000
C 	C 	0.11600 0.47650 0.60710 -0.09300
H 	H 	0.04350 0.48570 0.62280 0.06900
C 	C 	0.14520 0.50520 0.53100 -0.00600
H 	H 	0.09210 0.52990 0.49900 0.01000
C 	C 	0.13620 0.40450 0.73310 -0.28000
H 	H 	0.16510 0.42770 0.76430 0.11900
C 	C 	0.43470 0.54720 0.22050 0.10600
H 	H 	0.47810 0.55130 0.25150 -0.02200
C 	C 	0.47540 0.53810 0.14390 -0.19900
H 	H 	0.54430 0.53700 0.12380 0.10100
C 	C 	0.41090 0.53050 0.09810 0.15200
C 	C 	0.30930 0.53960 0.12870 -0.22600
H 	H 	0.26270 0.53920 0.09870 0.10300
C 	C 	0.27590 0.54910 0.20330 0.12900
H 	H 	0.20500 0.55550 0.22280 -0.03000
C 	C 	0.45030 0.51210 0.01720 -0.09300
H 	H 	0.39880 0.51840 0.98860 0.06200
C 	C 	0.36130 0.68950 0.42400 0.10900
H 	H 	0.39920 0.62670 0.45580 -0.02200
C 	C 	0.37270 0.78400 0.42440 -0.18700
H 	H 	0.41990 0.78420 0.45410 0.09200
C 	C 	0.31330 0.87840 0.38000 0.11900
C 	C 	0.24990 0.87390 0.33560 -0.19400
H 	H 	0.21010 0.93610 0.30420 0.09600
C 	C 	0.24460 0.77720 0.33710 0.11100
H 	H 	0.20010 0.77550 0.30580 -0.02100
C 	C 	0.32230 0.98270 0.38020 -0.03000
H 	H 	0.38340 0.97580 0.39870 0.03700
C 	C 	0.18670 0.36990 0.36620 0.19100
H 	H 	0.12260 0.43450 0.36740 -0.05300
C 	C 	0.17760 0.27570 0.36130 -0.31900
H 	H 	0.10980 0.27890 0.35730 0.13400
C 	C 	0.26410 0.18170 0.36210 0.27400
C 	C 	0.35840 0.18490 0.36090 -0.32000
H 	H 	0.42360 0.12160 0.35690 0.14100
C 	C 	0.35980 0.28300 0.36570 0.19500
H 	H 	0.42800 0.28160 0.36630 -0.05300
C 	C 	0.25690 0.07870 0.35850 -0.18500
H 	H 	0.19750 0.08560 0.33790 0.09500
C 	C 	0.54520 0.40260 0.37900 0.10000
C 	C 	0.03470 0.68150 0.38130 0.09200
Co	Co	0.03079 0.78710 0.87664 1.11700
S 	S 	0.84640 0.17821 0.86238 -0.06200
S 	S 	0.26624 0.41109 0.91197 -0.07800
N 	N 	0.00030 0.74210 0.00090 -0.23000
N 	N 	0.05010 0.83620 0.75180 -0.25400
N 	N 	0.18400 0.79820 0.88060 -0.25500
N 	N 	0.87600 0.77650 0.86910 -0.28600
N 	N 	0.94270 0.95200 0.89090 -0.26200
N 	N 	0.11990 0.62250 0.86250 -0.26400
C 	C 	0.90410 0.79820 0.04020 0.02600
H 	H 	0.85510 0.86370 0.01670 0.00000
C 	C 	0.87490 0.76150 0.11540 -0.04900
H 	H 	0.80530 0.80140 0.14020 0.04300
C 	C 	0.94190 0.67240 0.15280 0.01400
C 	C 	0.04320 0.61260 0.11310 -0.07000
H 	H 	0.09440 0.54830 0.13610 0.04200
C 	C 	0.06350 0.65150 0.04100 0.03500
H 	H 	0.13130 0.60970 0.01490 -0.00100
C 	C 	0.95940 0.81580 0.04990 0.01500
H 	H 	0.95390 0.88650 0.03110 0.01000
C 	C 	0.92420 0.79370 0.12770 -0.06400
H 	H 	0.89350 0.84650 0.16080 0.04800
C 	C 	0.97690 0.61580 0.10640 -0.05400
H 	H 	0.98790 0.54280 0.12190 0.04500
C 	C 	0.00400 0.64470 0.03090 0.02900
H 	H 	0.02650 0.59210 0.99840 -0.00200
C 	C 	0.90640 0.63580 0.23220 0.10700
H 	H 	0.93490 0.65960 0.26330 0.00800
C 	C 	0.04710 0.93480 0.72050 0.11100
H 	H 	0.05130 0.97840 0.75150 -0.02400
C 	C 	0.03820 0.97530 0.64450 -0.20500
H 	H 	0.03690 0.04430 0.62470 0.10500
C 	C 	0.03100 0.91050 0.59800 0.14900
C 	C 	0.03930 0.80870 0.62870 -0.22200
H 	H 	0.03820 0.76190 0.59890 0.10000
C 	C 	0.04930 0.77610 0.70340 0.12600
H 	H 	0.05640 0.70510 0.72290 -0.03000
C 	C 	0.01200 0.95040 0.51740 -0.09400
H 	H 	0.01810 0.89870 0.48870 0.06200
C 	C 	0.18920 0.86140 0.92370 0.11100
H 	H 	0.12570 0.90040 0.95510 -0.02500
C 	C 	0.28380 0.87280 0.92480 -0.19100
H 	H 	0.28340 0.91980 0.95520 0.09300
C 	C 	0.37860 0.81340 0.88000 0.12400
C 	C 	0.37390 0.74950 0.83590 -0.19800
H 	H 	0.43670 0.70890 0.80460 0.09800
C 	C 	0.27770 0.74410 0.83680 0.11400
H 	H 	0.27660 0.69980 0.80490 -0.02200
C 	C 	0.48220 0.82250 0.88070 -0.03800
H 	H 	0.47530 0.88350 0.89970 0.03900
C 	C 	0.78290 0.85970 0.86560 0.18800
H 	H 	0.78180 0.92800 0.86560 -0.04900
C 	C 	0.68450 0.85840 0.86190 -0.30800
H 	H 	0.62100 0.92340 0.85900 0.13700
C 	C 	0.68170 0.76380 0.86240 0.26000
C 	C 	0.77660 0.67780 0.86050 -0.31100
H 	H 	0.78060 0.61020 0.85450 0.13100
C 	C 	0.86960 0.68640 0.86720 0.19200
H 	H 	0.93340 0.62170 0.87070 -0.05200
C 	C 	0.57840 0.75660 0.85830 -0.17400
H 	H 	0.58550 0.69730 0.83700 0.09000
C 	C 	0.90280 0.04510 0.87910 0.09700
C 	C 	0.18100 0.53460 0.88100 0.08700
Co	Co	0.71287 0.46925 0.62343 1.11900
S 	S 	0.32162 0.65390 0.63765 -0.06500
S 	S 	0.08881 0.23378 0.58812 -0.07000
N 	N 	0.75790 0.49990 0.49920 -0.25000
N 	N 	0.66450 0.44980 0.74820 -0.25300
N 	N 	0.70120 0.31610 0.61950 -0.25300
N 	N 	0.72310 0.62400 0.63070 -0.28900
N 	N 	0.54800 0.55760 0.60870 -0.26500
N 	N 	0.87750 0.38020 0.63730 -0.26200
C 	C 	0.70300 0.59580 0.46110 -0.01600
H 	H 	0.63780 0.64520 0.48530 0.01400
C 	C 	0.74040 0.62510 0.38520 -0.05500
H 	H 	0.70160 0.69520 0.36110 0.05200
C 	C 	0.82770 0.55750 0.34730 0.19800
C 	C 	0.88780 0.45580 0.38790 -0.16200
H 	H 	0.95290 0.40490 0.36480 0.07500
C 	C 	0.84870 0.43490 0.46010 0.12200
H 	H 	0.88960 0.36710 0.48600 -0.03400
C 	C 	0.68630 0.54050 0.44990 0.10800
H 	H 	0.61730 0.54080 0.46830 -0.02000
C 	C 	0.70360 0.58200 0.37410 -0.15600
H 	H 	0.64870 0.62040 0.34320 0.08000
C 	C 	0.88400 0.52350 0.39290 -0.09300
H 	H 	0.95650 0.51430 0.37720 0.06900
C 	C 	0.85480 0.49480 0.46900 -0.00600
H 	H 	0.90790 0.47010 0.50100 0.01000
C 	C 	0.86380 0.59550 0.26690 -0.28000
H 	H 	0.83490 0.57230 0.23570 0.11900
C 	C 	0.56530 0.45280 0.77950 0.10600
H 	H 	0.52190 0.44870 0.74850 -0.02200
C 	C 	0.52460 0.46190 0.85610 -0.19900
H 	H 	0.45570 0.46300 0.87620 0.10100
C 	C 	0.58910 0.46950 0.90190 0.15200
C 	C 	0.69070 0.46040 0.87130 -0.22600
H 	H 	0.73730 0.46080 0.90130 0.10300
C 	C 	0.72410 0.45090 0.79670 0.12900
H 	H 	0.79500 0.44450 0.77720 -0.03000
C 	C 	0.54970 0.48790 0.98280 -0.09300
H 	H 	0.60120 0.48160 0.01140 0.06200
C 	C 	0.63870 0.31050 0.57600 0.10900
H 	H 	0.60080 0.37330 0.54420 -0.02200
C 	C 	0.62730 0.21600 0.57560 -0.18700
H 	H 	0.58010 0.21580 0.54590 0.09200
C 	C 	0.68670 0.12160 0.62000 0.11900
C 	C 	0.75010 0.12610 0.66440 -0.19400
H 	H 	0.78990 0.06390 0.69580 0.09600
C 	C 	0.75540 0.22280 0.66290 0.11100
H 	H 	0.79990 0.22450 0.69420 -0.02100
C 	C 	0.67770 0.01730 0.61980 -0.03000
H 	H 	0.61660 0.02420 0.60130 0.03700
C 	C 	0.81330 0.63010 0.63380 0.19100
H 	H 	0.87740 0.56550 0.63260 -0.05300
C 	C 	0.82240 0.72430 0.63870 -0.31900
H 	H 	0.89020 0.72110 0.64270 0.13400
C 	C 	0.73590 0.81830 0.63790 0.27400
C 	C 	0.64160 0.81510 0.63910 -0.32000
H 	H 	0.57640 0.87840 0.64310 0.14100
C 	C 	0.64020 0.71700 0.63430 0.19500
H 	H 	0.57200 0.71840 0.63370 -0.05300
C 	C 	0.74310 0.92130 0.64150 -0.18500
H 	H 	0.80250 0.91440 0.66210 0.09500
C 	C 	0.45480 0.59740 0.62100 0.10000
C 	C 	0.96530 0.31850 0.61870 0.09200
