data_crystal

_cell_length_a 10.81110
_cell_length_b 10.84750
_cell_length_c 14.02100
_cell_angle_alpha 87.53100
_cell_angle_beta  89.03900
_cell_angle_gamma 85.99700

_symmetry_space_group_name_	'P 1'
_symmetry_space_group_name_H-M	'P 1'

loop_
_symmetry_equiv_pos_as_xyz
  x,y,z

loop_
_atom_site_label
_atom_site_type_symbol
_atom_site_fract_x
_atom_site_fract_y
_atom_site_fract_z
_atom_site_charge
Cu	Cu	0.77571 0.65211 0.38626 0.91700
Cu	Cu	0.77908 0.66322 0.19738 0.91700
H 	H 	0.76930 0.25480 0.43440 0.04900
H 	H 	0.76450 0.04300 0.43290 0.05800
H 	H 	0.78450 0.05870 0.14730 0.05600
H 	H 	0.78870 0.27180 0.14790 0.05200
H 	H 	0.38170 0.63980 0.43570 0.05500
H 	H 	0.16810 0.63340 0.43540 0.05900
H 	H 	0.17330 0.67530 0.14770 0.05400
H 	H 	0.38610 0.68100 0.14870 0.05400
H 	H 	0.59540 0.66260 0.55890 0.01600
H 	H 	0.59090 0.66990 0.72220 0.08000
H 	H 	0.96270 0.66050 0.71480 0.08100
H 	H 	0.95590 0.65540 0.55300 0.01900
H 	H 	0.94720 0.58890 0.02780 0.01200
H 	H 	0.95160 0.58450 0.86450 0.08500
H 	H 	0.61250 0.75990 0.86420 0.08000
H 	H 	0.61710 0.75470 0.02740 0.01400
C 	C 	0.78010 0.42420 0.29260 0.35200
C 	C 	0.54340 0.66330 0.29249 0.34700
C 	C 	0.77210 0.89110 0.28960 0.35700
C 	C 	0.01110 0.65170 0.29101 0.34300
C 	C 	0.77640 0.28590 0.29160 -0.07500
C 	C 	0.77120 0.21570 0.37580 -0.01400
C 	C 	0.76880 0.08930 0.37490 -0.02100
C 	C 	0.77240 0.02980 0.29010 -0.06500
C 	C 	0.78050 0.09860 0.20560 -0.02100
C 	C 	0.78280 0.22570 0.20590 -0.01800
C 	C 	0.40550 0.66140 0.29206 -0.06800
C 	C 	0.33930 0.64710 0.37750 -0.01500
C 	C 	0.21220 0.64350 0.37760 -0.02100
C 	C 	0.14890 0.65510 0.29089 -0.06400
C 	C 	0.21530 0.66850 0.20600 -0.01900
C 	C 	0.34210 0.67170 0.20660 -0.01600
C 	C 	0.67090 0.66220 0.59120 0.08000
C 	C 	0.66740 0.66630 0.68920 -0.12400
C 	C 	0.77690 0.66520 0.73913 0.05700
C 	C 	0.88560 0.66100 0.68470 -0.12400
C 	C 	0.88090 0.65780 0.58790 0.08200
C 	C 	0.87700 0.62140 0.99400 0.07700
C 	C 	0.88080 0.61850 0.89620 -0.13100
C 	C 	0.77770 0.66700 0.84450 0.06200
C 	C 	0.68140 0.72100 0.89600 -0.13100
C 	C 	0.68540 0.71840 0.99390 0.08100
N 	N 	0.77560 0.65780 0.54001 -0.19100
N 	N 	0.78000 0.66740 0.04380 -0.19000
O 	O 	0.78220 0.47137 0.37188 -0.40200
O 	O 	0.78050 0.48162 0.21319 -0.40200
O 	O 	0.59585 0.65590 0.37240 -0.39700
O 	O 	0.59867 0.67110 0.21306 -0.39800
O 	O 	0.76810 0.83414 0.36859 -0.39700
O 	O 	0.77530 0.84310 0.21015 -0.39700
O 	O 	0.95592 0.64880 0.37061 -0.39800
O 	O 	0.95955 0.65300 0.21133 -0.39900
Cu	Cu	0.22429 0.34789 0.61374 0.91800
Cu	Cu	0.22092 0.33678 0.80262 0.91800
H 	H 	0.23070 0.74520 0.56560 0.05000
H 	H 	0.23550 0.95700 0.56710 0.05900
H 	H 	0.21550 0.94130 0.85270 0.05600
H 	H 	0.21130 0.72820 0.85210 0.05200
H 	H 	0.61830 0.36020 0.56430 0.05500
H 	H 	0.83190 0.36660 0.56460 0.05900
H 	H 	0.82670 0.32470 0.85230 0.05400
H 	H 	0.61390 0.31900 0.85130 0.05400
H 	H 	0.40460 0.33740 0.44110 0.01600
H 	H 	0.40910 0.33010 0.27780 0.08000
H 	H 	0.03730 0.33950 0.28520 0.08100
H 	H 	0.04410 0.34460 0.44700 0.01900
H 	H 	0.05280 0.41110 0.97220 0.01200
H 	H 	0.04840 0.41550 0.13550 0.08500
H 	H 	0.38750 0.24010 0.13580 0.08000
H 	H 	0.38290 0.24530 0.97260 0.01400
C 	C 	0.21990 0.57580 0.70740 0.35200
C 	C 	0.45660 0.33670 0.70751 0.34700
C 	C 	0.22790 0.10890 0.71040 0.35700
C 	C 	0.98890 0.34830 0.70899 0.34300
C 	C 	0.22360 0.71410 0.70840 -0.07500
C 	C 	0.22880 0.78430 0.62420 -0.01400
C 	C 	0.23120 0.91070 0.62510 -0.02100
C 	C 	0.22760 0.97020 0.70990 -0.06500
C 	C 	0.21950 0.90140 0.79440 -0.02100
C 	C 	0.21720 0.77430 0.79410 -0.01800
C 	C 	0.59450 0.33860 0.70794 -0.06800
C 	C 	0.66070 0.35290 0.62250 -0.01500
C 	C 	0.78780 0.35650 0.62240 -0.02100
C 	C 	0.85110 0.34490 0.70911 -0.06400
C 	C 	0.78470 0.33150 0.79400 -0.01900
C 	C 	0.65790 0.32830 0.79340 -0.01600
C 	C 	0.32910 0.33780 0.40880 0.08000
C 	C 	0.33260 0.33370 0.31080 -0.12400
C 	C 	0.22310 0.33480 0.26087 0.05700
C 	C 	0.11440 0.33900 0.31530 -0.12400
C 	C 	0.11910 0.34220 0.41210 0.08200
C 	C 	0.12300 0.37860 0.00600 0.07700
C 	C 	0.11920 0.38150 0.10380 -0.13100
C 	C 	0.22230 0.33300 0.15550 0.06200
C 	C 	0.31860 0.27900 0.10400 -0.13100
C 	C 	0.31460 0.28160 0.00610 0.08100
N 	N 	0.22440 0.34220 0.45999 -0.19100
N 	N 	0.22000 0.33260 0.95620 -0.19000
O 	O 	0.21780 0.52863 0.62812 -0.40200
O 	O 	0.21950 0.51838 0.78681 -0.40200
O 	O 	0.40415 0.34410 0.62760 -0.39700
O 	O 	0.40133 0.32890 0.78694 -0.39800
O 	O 	0.23190 0.16586 0.63141 -0.39700
O 	O 	0.22470 0.15690 0.78985 -0.39700
O 	O 	0.04408 0.35120 0.62939 -0.39800
O 	O 	0.04045 0.34700 0.78867 -0.39900
