data_crystal

_cell_length_a 10.80600
_cell_length_b 10.83400
_cell_length_c 16.27000
_cell_angle_alpha 90.49200
_cell_angle_beta  97.15400
_cell_angle_gamma 90.85500

_symmetry_space_group_name_	'P 1'
_symmetry_space_group_name_H-M	'P 1'

loop_
_symmetry_equiv_pos_as_xyz
  x,y,z

loop_
_atom_site_label
_atom_site_type_symbol
_atom_site_fract_x
_atom_site_fract_y
_atom_site_fract_z
_atom_site_charge
Cu	Cu	0.31628 0.84051 0.77723 0.91700
Cu	Cu	0.28423 0.83782 0.61278 0.91700
H 	H 	0.50330 0.88940 0.93520 0.00000
H 	H 	0.51580 0.88590 0.07740 0.10000
H 	H 	0.16610 0.75390 0.05450 0.09200
H 	H 	0.16670 0.75190 0.91380 0.00700
H 	H 	0.66770 0.83650 0.57100 0.05500
H 	H 	0.88000 0.83320 0.56840 0.05600
H 	H 	0.71840 0.84470 0.82010 0.05500
H 	H 	0.93230 0.84340 0.81840 0.05300
H 	H 	0.27340 0.22910 0.57310 0.05100
H 	H 	0.17170 0.80770 0.18630 0.05900
H 	H 	0.31660 0.45080 0.81980 0.05600
H 	H 	0.31690 0.23660 0.82160 0.05000
H 	H 	0.44540 0.84400 0.33490 0.09600
H 	H 	0.42330 0.84590 0.20350 0.07100
H 	H 	0.27720 0.44200 0.57210 0.05700
H 	H 	0.08450 0.83020 0.45560 0.00800
H 	H 	0.07170 0.82140 0.31370 0.09500
H 	H 	0.44750 0.85130 0.47560 0.00900
C 	C 	0.43260 0.86430 0.95950 0.10700
C 	C 	0.44040 0.86340 0.04510 -0.18000
C 	C 	0.33860 0.82990 0.08300 0.13300
C 	C 	0.23590 0.78480 0.03170 -0.17100
C 	C 	0.23620 0.78540 0.94750 0.09600
C 	C 	0.72170 0.83790 0.62100 -0.01800
C 	C 	0.67280 0.84140 0.69600 -0.06300
C 	C 	0.84780 0.83630 0.61940 -0.01700
C 	C 	0.30080 0.60510 0.69450 0.35100
C 	C 	0.29890 0.46770 0.69500 -0.06700
C 	C 	0.75140 0.84300 0.76930 -0.02000
C 	C 	0.92880 0.83920 0.69300 -0.06700
C 	C 	0.87870 0.84210 0.76820 -0.01800
C 	C 	0.06610 0.83700 0.69210 0.34400
C 	C 	0.28360 0.27340 0.62350 -0.01700
C 	C 	0.29640 0.21110 0.69680 -0.07300
C 	C 	0.25080 0.82210 0.21620 -0.07700
C 	C 	0.30930 0.40590 0.76970 -0.02000
C 	C 	0.29930 0.07230 0.69770 0.34500
C 	C 	0.53360 0.84230 0.69720 0.34700
C 	C 	0.30880 0.27810 0.77080 -0.01900
C 	C 	0.36990 0.83980 0.35790 -0.16400
C 	C 	0.34400 0.83370 0.17330 -0.09300
C 	C 	0.28540 0.40070 0.62300 -0.01900
C 	C 	0.15840 0.83170 0.43070 0.10200
C 	C 	0.15040 0.82660 0.34560 -0.16700
C 	C 	0.25730 0.82930 0.30680 0.12300
C 	C 	0.37030 0.84400 0.44210 0.10100
N 	N 	0.26740 0.83840 0.47900 -0.19900
N 	N 	0.33190 0.83190 0.91080 -0.20100
O 	O 	0.10550 0.83190 0.62239 -0.39400
O 	O 	0.31170 0.65970 0.76327 -0.39700
O 	O 	0.28980 0.65590 0.62514 -0.39200
O 	O 	0.31660 0.02130 0.76738 -0.39800
O 	O 	0.13360 0.84080 0.76099 -0.40000
O 	O 	0.28360 0.01790 0.62917 -0.40100
O 	O 	0.49470 0.84260 0.76682 -0.39900
O 	O 	0.46700 0.84340 0.62837 -0.40200
Cu	Cu	0.68372 0.15949 0.22277 0.91700
Cu	Cu	0.71577 0.16218 0.38722 0.91700
H 	H 	0.49670 0.11060 0.06480 0.00000
H 	H 	0.48420 0.11410 0.92260 0.10000
H 	H 	0.83390 0.24610 0.94550 0.09200
H 	H 	0.83330 0.24810 0.08620 0.00700
H 	H 	0.33230 0.16350 0.42900 0.05500
H 	H 	0.12000 0.16680 0.43160 0.05600
H 	H 	0.28160 0.15530 0.17990 0.05500
H 	H 	0.06770 0.15660 0.18160 0.05300
H 	H 	0.72660 0.77090 0.42690 0.05100
H 	H 	0.82830 0.19230 0.81370 0.05900
H 	H 	0.68340 0.54920 0.18020 0.05600
H 	H 	0.68310 0.76340 0.17840 0.05000
H 	H 	0.55460 0.15600 0.66510 0.09600
H 	H 	0.57670 0.15410 0.79650 0.07100
H 	H 	0.72280 0.55800 0.42790 0.05700
H 	H 	0.91550 0.16980 0.54440 0.00800
H 	H 	0.92830 0.17860 0.68630 0.09500
H 	H 	0.55250 0.14870 0.52440 0.00900
C 	C 	0.56740 0.13570 0.04050 0.10700
C 	C 	0.55960 0.13660 0.95490 -0.18000
C 	C 	0.66140 0.17010 0.91700 0.13300
C 	C 	0.76410 0.21520 0.96830 -0.17100
C 	C 	0.76380 0.21460 0.05250 0.09600
C 	C 	0.27830 0.16210 0.37900 -0.01800
C 	C 	0.32720 0.15860 0.30400 -0.06300
C 	C 	0.15220 0.16370 0.38060 -0.01700
C 	C 	0.69920 0.39490 0.30550 0.35100
C 	C 	0.70110 0.53230 0.30500 -0.06700
C 	C 	0.24860 0.15700 0.23070 -0.02000
C 	C 	0.07120 0.16080 0.30700 -0.06700
C 	C 	0.12130 0.15790 0.23180 -0.01800
C 	C 	0.93390 0.16300 0.30790 0.34400
C 	C 	0.71640 0.72660 0.37650 -0.01700
C 	C 	0.70360 0.78890 0.30320 -0.07300
C 	C 	0.74920 0.17790 0.78380 -0.07700
C 	C 	0.69070 0.59410 0.23030 -0.02000
C 	C 	0.70070 0.92770 0.30230 0.34500
C 	C 	0.46640 0.15770 0.30280 0.34700
C 	C 	0.69120 0.72190 0.22920 -0.01900
C 	C 	0.63010 0.16020 0.64210 -0.16400
C 	C 	0.65600 0.16630 0.82670 -0.09300
C 	C 	0.71460 0.59930 0.37700 -0.01900
C 	C 	0.84160 0.16830 0.56930 0.10200
C 	C 	0.84960 0.17340 0.65440 -0.16700
C 	C 	0.74270 0.17070 0.69320 0.12300
C 	C 	0.62970 0.15600 0.55790 0.10100
N 	N 	0.73260 0.16160 0.52100 -0.19900
N 	N 	0.66810 0.16810 0.08920 -0.20100
O 	O 	0.89450 0.16810 0.37761 -0.39400
O 	O 	0.68830 0.34030 0.23673 -0.39700
O 	O 	0.71020 0.34410 0.37486 -0.39200
O 	O 	0.68340 0.97870 0.23262 -0.39800
O 	O 	0.86640 0.15920 0.23901 -0.40000
O 	O 	0.71640 0.98210 0.37083 -0.40100
O 	O 	0.50530 0.15740 0.23318 -0.39900
O 	O 	0.53300 0.15660 0.37163 -0.40200
