data_crystal

_cell_length_a 10.80440
_cell_length_b 14.05300
_cell_length_c 21.67800
_cell_angle_alpha 89.87800
_cell_angle_beta  83.36300
_cell_angle_gamma 88.98100

_symmetry_space_group_name_	'P 1'
_symmetry_space_group_name_H-M	'P 1'

loop_
_symmetry_equiv_pos_as_xyz
  x,y,z

loop_
_atom_site_label
_atom_site_type_symbol
_atom_site_fract_x
_atom_site_fract_y
_atom_site_fract_z
_atom_site_charge
Cu	Cu	0.71846 0.29889 0.67165 0.91500
Cu	Cu	0.72322 0.10993 0.67164 0.91400
Cu	Cu	0.73297 0.29646 0.17047 0.91700
Cu	Cu	0.73731 0.10729 0.17126 0.91500
H 	H 	0.77230 0.34390 0.86380 0.05100
H 	H 	0.78640 0.34300 0.96990 0.05200
H 	H 	0.68070 0.07180 0.97930 0.05800
H 	H 	0.66870 0.07150 0.87410 0.05100
H 	H 	0.32690 0.05950 0.68650 0.05900
H 	H 	0.11320 0.06010 0.68550 0.05600
H 	H 	0.11450 0.34380 0.65590 0.05600
H 	H 	0.32800 0.34390 0.65860 0.05300
H 	H 	0.79780 0.07640 0.47150 0.06000
H 	H 	0.78870 0.07310 0.36620 0.04900
H 	H 	0.68490 0.34760 0.36970 0.05000
H 	H 	0.68450 0.34770 0.47700 0.05500
H 	H 	0.34110 0.05630 0.18890 0.05900
H 	H 	0.12960 0.05480 0.18290 0.05700
H 	H 	0.12900 0.33760 0.15140 0.05200
H 	H 	0.34120 0.33950 0.15570 0.05600
H 	H 	0.90580 0.93710 0.66280 0.01500
H 	H 	0.91180 0.77360 0.66280 0.08000
H 	H 	0.53790 0.77900 0.66930 0.08300
H 	H 	0.54420 0.94200 0.67150 0.02100
H 	H 	0.89300 0.45940 0.11940 0.00700
H 	H 	0.90250 0.62240 0.11610 0.08000
H 	H 	0.56950 0.63250 0.22140 0.09300
H 	H 	0.57430 0.46860 0.22240 0.01100
H 	H 	0.55750 0.93970 0.17480 0.01900
H 	H 	0.55140 0.77660 0.17400 0.08200
H 	H 	0.92570 0.77070 0.15890 0.07700
H 	H 	0.91960 0.93450 0.16100 0.01900
H 	H 	0.57480 0.46860 0.62470 0.00900
H 	H 	0.57420 0.63140 0.61900 0.07900
H 	H 	0.86900 0.62820 0.71760 0.08200
H 	H 	0.85690 0.46520 0.72090 0.01000
C 	C 	0.71280 0.20650 0.78883 0.34100
C 	C 	0.48690 0.20160 0.67432 0.34200
C 	C 	0.73420 0.21040 0.55425 0.34000
C 	C 	0.95430 0.20190 0.66857 0.34100
C 	C 	0.72930 0.20580 0.28786 0.34400
C 	C 	0.50050 0.20040 0.17544 0.34200
C 	C 	0.74070 0.20710 0.05361 0.34300
C 	C 	0.96940 0.19600 0.16573 0.34000
C 	C 	0.71970 0.20720 0.85755 -0.07000
C 	C 	0.75420 0.28820 0.88696 -0.02100
C 	C 	0.76200 0.28760 0.95062 -0.01700
C 	C 	0.73510 0.20860 0.98548 -0.06500
C 	C 	0.69980 0.12720 0.95601 -0.02000
C 	C 	0.69260 0.12720 0.89322 -0.01600
C 	C 	0.34900 0.20120 0.67234 -0.06400
C 	C 	0.28400 0.11690 0.68043 -0.01800
C 	C 	0.15700 0.11720 0.67952 -0.01900
C 	C 	0.09260 0.20210 0.66981 -0.06300
C 	C 	0.15750 0.28650 0.66209 -0.01900
C 	C 	0.28450 0.28650 0.66354 -0.01800
C 	C 	0.73610 0.21130 0.48521 -0.06000
C 	C 	0.77100 0.13100 0.45138 -0.02400
C 	C 	0.76710 0.12960 0.38827 -0.01100
C 	C 	0.73260 0.20870 0.35674 -0.07400
C 	C 	0.70460 0.29130 0.39024 -0.01700
C 	C 	0.70540 0.29140 0.45447 -0.02200
C 	C 	0.36340 0.19850 0.17292 -0.06400
C 	C 	0.29840 0.11310 0.18111 -0.01900
C 	C 	0.17260 0.11230 0.17780 -0.01800
C 	C 	0.10790 0.19630 0.16695 -0.06400
C 	C 	0.17210 0.28080 0.15884 -0.02000
C 	C 	0.29840 0.28190 0.16157 -0.01900
C 	C 	0.83030 0.90440 0.66466 0.07800
C 	C 	0.83480 0.80620 0.66435 -0.12300
C 	C 	0.72470 0.75580 0.66636 0.05700
C 	C 	0.61490 0.80930 0.66847 -0.12300
C 	C 	0.61970 0.90720 0.66940 0.08000
C 	C 	0.82730 0.49520 0.14079 0.09000
C 	C 	0.83350 0.59290 0.13818 -0.13600
C 	C 	0.73690 0.64760 0.16844 0.06500
C 	C 	0.63760 0.59890 0.20038 -0.13600
C 	C 	0.64120 0.50080 0.20057 0.08600
C 	C 	0.63310 0.90490 0.17162 0.07900
C 	C 	0.62870 0.80680 0.17130 -0.12100
C 	C 	0.73710 0.75320 0.16701 0.05400
C 	C 	0.84860 0.80360 0.16250 -0.11900
C 	C 	0.84410 0.90170 0.16346 0.07600
C 	C 	0.63510 0.50190 0.64350 0.08300
C 	C 	0.63400 0.59930 0.63990 -0.12800
C 	C 	0.72330 0.65080 0.66775 0.06000
C 	C 	0.80730 0.59760 0.69810 -0.13100
C 	C 	0.80000 0.49980 0.69950 0.08500
N 	N 	0.72460 0.95524 0.66749 -0.19000
N 	N 	0.73510 0.44931 0.17132 -0.19500
N 	N 	0.73830 0.95232 0.16771 -0.18900
N 	N 	0.71700 0.45228 0.67214 -0.19400
O 	O 	0.72030 0.28564 0.76179 -0.39900
O 	O 	0.70021 0.12729 0.76380 -0.39500
O 	O 	0.53635 0.28073 0.68051 -0.40100
O 	O 	0.54342 0.12198 0.67016 -0.39600
O 	O 	0.71886 0.28962 0.58157 -0.39100
O 	O 	0.74690 0.13116 0.58017 -0.38900
O 	O 	0.90066 0.28110 0.66225 -0.39400
O 	O 	0.90141 0.12246 0.67383 -0.39900
O 	O 	0.71561 0.28464 0.26114 -0.39600
O 	O 	0.73970 0.12626 0.26207 -0.39800
O 	O 	0.55240 0.27963 0.17153 -0.39600
O 	O 	0.55595 0.12097 0.18122 -0.39600
O 	O 	0.74970 0.28660 0.07971 -0.39000
O 	O 	0.73500 0.12780 0.08057 -0.39100
O 	O 	0.91385 0.27580 0.16937 -0.39800
O 	O 	0.91793 0.11654 0.16210 -0.39500
Cu	Cu	0.28154 0.70111 0.32835 0.91600
Cu	Cu	0.27678 0.89007 0.32836 0.91500
Cu	Cu	0.26703 0.70354 0.82953 0.91800
Cu	Cu	0.26269 0.89271 0.82874 0.91600
H 	H 	0.22770 0.65610 0.13620 0.05200
H 	H 	0.21360 0.65700 0.03010 0.05300
H 	H 	0.31930 0.92820 0.02070 0.05800
H 	H 	0.33130 0.92850 0.12590 0.05100
H 	H 	0.67310 0.94050 0.31350 0.05900
H 	H 	0.88680 0.93990 0.31450 0.05600
H 	H 	0.88550 0.65620 0.34410 0.05600
H 	H 	0.67200 0.65610 0.34140 0.05300
H 	H 	0.20220 0.92360 0.52850 0.06000
H 	H 	0.21130 0.92690 0.63380 0.04900
H 	H 	0.31510 0.65240 0.63030 0.05000
H 	H 	0.31550 0.65230 0.52300 0.05500
H 	H 	0.65890 0.94370 0.81110 0.05900
H 	H 	0.87040 0.94520 0.81710 0.05700
H 	H 	0.87100 0.66240 0.84860 0.05200
H 	H 	0.65880 0.66050 0.84430 0.05600
H 	H 	0.09420 0.06290 0.33720 0.01500
H 	H 	0.08820 0.22640 0.33720 0.08000
H 	H 	0.46210 0.22100 0.33070 0.08300
H 	H 	0.45580 0.05800 0.32850 0.02100
H 	H 	0.10700 0.54060 0.88060 0.00700
H 	H 	0.09750 0.37760 0.88390 0.08000
H 	H 	0.43050 0.36750 0.77860 0.09300
H 	H 	0.42570 0.53140 0.77760 0.01100
H 	H 	0.44250 0.06030 0.82520 0.01900
H 	H 	0.44860 0.22340 0.82600 0.08200
H 	H 	0.07430 0.22930 0.84110 0.07700
H 	H 	0.08040 0.06550 0.83900 0.01900
H 	H 	0.42520 0.53140 0.37530 0.00900
H 	H 	0.42580 0.36860 0.38100 0.07900
H 	H 	0.13100 0.37180 0.28240 0.08200
H 	H 	0.14310 0.53480 0.27910 0.01000
C 	C 	0.28720 0.79350 0.21117 0.34100
C 	C 	0.51310 0.79840 0.32568 0.34200
C 	C 	0.26580 0.78960 0.44575 0.34000
C 	C 	0.04570 0.79810 0.33143 0.34100
C 	C 	0.27070 0.79420 0.71214 0.34400
C 	C 	0.49950 0.79960 0.82456 0.34200
C 	C 	0.25930 0.79290 0.94639 0.34300
C 	C 	0.03060 0.80400 0.83427 0.34000
C 	C 	0.28030 0.79280 0.14245 -0.07000
C 	C 	0.24580 0.71180 0.11304 -0.02100
C 	C 	0.23800 0.71240 0.04938 -0.01700
C 	C 	0.26490 0.79140 0.01452 -0.06500
C 	C 	0.30020 0.87280 0.04399 -0.02000
C 	C 	0.30740 0.87280 0.10678 -0.01600
C 	C 	0.65100 0.79880 0.32766 -0.06400
C 	C 	0.71600 0.88310 0.31957 -0.01800
C 	C 	0.84300 0.88280 0.32048 -0.01900
C 	C 	0.90740 0.79790 0.33019 -0.06300
C 	C 	0.84250 0.71350 0.33791 -0.01900
C 	C 	0.71550 0.71350 0.33646 -0.01800
C 	C 	0.26390 0.78870 0.51479 -0.06000
C 	C 	0.22900 0.86900 0.54862 -0.02400
C 	C 	0.23290 0.87040 0.61173 -0.01100
C 	C 	0.26740 0.79130 0.64326 -0.07400
C 	C 	0.29540 0.70870 0.60976 -0.01700
C 	C 	0.29460 0.70860 0.54553 -0.02200
C 	C 	0.63660 0.80150 0.82708 -0.06400
C 	C 	0.70160 0.88690 0.81889 -0.01900
C 	C 	0.82740 0.88770 0.82220 -0.01800
C 	C 	0.89210 0.80370 0.83305 -0.06400
C 	C 	0.82790 0.71920 0.84116 -0.02000
C 	C 	0.70160 0.71810 0.83843 -0.01900
C 	C 	0.16970 0.09560 0.33534 0.07800
C 	C 	0.16520 0.19380 0.33565 -0.12300
C 	C 	0.27530 0.24420 0.33364 0.05700
C 	C 	0.38510 0.19070 0.33153 -0.12300
C 	C 	0.38030 0.09280 0.33060 0.08000
C 	C 	0.17270 0.50480 0.85921 0.09000
C 	C 	0.16650 0.40710 0.86182 -0.13600
C 	C 	0.26310 0.35240 0.83156 0.06500
C 	C 	0.36240 0.40110 0.79962 -0.13600
C 	C 	0.35880 0.49920 0.79943 0.08600
C 	C 	0.36690 0.09510 0.82838 0.07900
C 	C 	0.37130 0.19320 0.82870 -0.12100
C 	C 	0.26290 0.24680 0.83299 0.05400
C 	C 	0.15140 0.19640 0.83750 -0.11900
C 	C 	0.15590 0.09830 0.83654 0.07600
C 	C 	0.36490 0.49810 0.35650 0.08300
C 	C 	0.36600 0.40070 0.36010 -0.12800
C 	C 	0.27670 0.34920 0.33225 0.06000
C 	C 	0.19270 0.40240 0.30190 -0.13100
C 	C 	0.20000 0.50020 0.30050 0.08500
N 	N 	0.27540 0.04476 0.33251 -0.19000
N 	N 	0.26490 0.55069 0.82868 -0.19500
N 	N 	0.26170 0.04768 0.83229 -0.18900
N 	N 	0.28300 0.54772 0.32786 -0.19400
O 	O 	0.27970 0.71436 0.23821 -0.39900
O 	O 	0.29979 0.87271 0.23620 -0.39500
O 	O 	0.46365 0.71927 0.31949 -0.40100
O 	O 	0.45658 0.87802 0.32984 -0.39600
O 	O 	0.28114 0.71038 0.41843 -0.39100
O 	O 	0.25310 0.86884 0.41983 -0.38900
O 	O 	0.09934 0.71890 0.33775 -0.39400
O 	O 	0.09859 0.87754 0.32617 -0.39900
O 	O 	0.28439 0.71536 0.73886 -0.39600
O 	O 	0.26030 0.87374 0.73793 -0.39800
O 	O 	0.44760 0.72037 0.82847 -0.39600
O 	O 	0.44405 0.87903 0.81878 -0.39600
O 	O 	0.25030 0.71340 0.92029 -0.39000
O 	O 	0.26500 0.87220 0.91943 -0.39100
O 	O 	0.08615 0.72420 0.83063 -0.39800
O 	O 	0.08207 0.88346 0.83790 -0.39500
