data_crystal

_cell_length_a 7.77600
_cell_length_b 16.05300
_cell_length_c 36.00900
_cell_angle_alpha 90.00000
_cell_angle_beta  90.00000
_cell_angle_gamma 95.23400

_symmetry_space_group_name_	'P 1'
_symmetry_space_group_name_H-M	'P 1'

loop_
_symmetry_equiv_pos_as_xyz
  x,y,z

loop_
_atom_site_label
_atom_site_type_symbol
_atom_site_fract_x
_atom_site_fract_y
_atom_site_fract_z
_atom_site_charge
Cd	Cd	0.85959 0.62404 0.86789 1.15300
Cd	Cd	0.36166 0.61115 0.86967 1.14800
Cd	Cd	0.14041 0.87596 0.36789 1.15300
Cd	Cd	0.63834 0.88885 0.36967 1.14900
Cd	Cd	0.14041 0.37596 0.13211 1.15400
Cd	Cd	0.63834 0.38885 0.13033 1.14900
Cd	Cd	0.85959 0.12404 0.63211 1.15300
Cd	Cd	0.36166 0.11115 0.63033 1.14900
H 	H 	0.89410 0.41240 0.06370 -0.07000
H 	H 	0.37110 0.24770 0.07290 0.02700
H 	H 	0.45710 0.17280 0.02190 0.02700
H 	H 	0.31460 0.17700 0.96550 0.03100
H 	H 	0.07970 0.25610 0.95850 0.06000
H 	H 	0.03000 0.40940 0.95080 0.12100
H 	H 	0.85380 0.46760 0.90880 -0.09400
H 	H 	0.62820 0.36570 0.02030 0.10100
H 	H 	0.45310 0.42890 0.97860 -0.00400
H 	H 	0.55980 0.99090 0.69080 -0.04000
H 	H 	0.10150 0.16760 0.69930 -0.00200
H 	H 	0.91660 0.15830 0.74970 0.04400
H 	H 	0.96100 0.07170 0.79950 0.02300
H 	H 	0.19000 0.98790 0.79950 0.06400
H 	H 	0.25780 0.86560 0.77880 0.11000
H 	H 	0.37310 0.77120 0.81770 -0.07200
H 	H 	0.84530 0.83860 0.77680 -0.01200
H 	H 	0.73550 0.94270 0.74170 0.09700
H 	H 	0.10590 0.08760 0.56370 -0.07100
H 	H 	0.62890 0.25230 0.57290 0.02800
H 	H 	0.54290 0.32720 0.52190 0.02700
H 	H 	0.68540 0.32300 0.46550 0.03100
H 	H 	0.92030 0.24390 0.45850 0.06000
H 	H 	0.97000 0.09060 0.45080 0.11900
H 	H 	0.14620 0.03240 0.40880 -0.09300
H 	H 	0.37180 0.13430 0.52030 0.10100
H 	H 	0.54690 0.07110 0.47860 -0.00300
H 	H 	0.44020 0.50910 0.19080 -0.04100
H 	H 	0.89850 0.33240 0.19930 -0.00300
H 	H 	0.08340 0.34170 0.24970 0.04600
H 	H 	0.03900 0.42830 0.29950 0.02500
H 	H 	0.81000 0.51210 0.29950 0.06400
H 	H 	0.74220 0.63440 0.27880 0.11000
H 	H 	0.62690 0.72880 0.31770 -0.07200
H 	H 	0.15470 0.66140 0.27680 -0.01200
H 	H 	0.26450 0.55730 0.24170 0.09700
H 	H 	0.10590 0.58760 0.93630 -0.07000
H 	H 	0.62890 0.75230 0.92710 0.02700
H 	H 	0.54290 0.82720 0.97810 0.02700
H 	H 	0.68540 0.82300 0.03450 0.03100
H 	H 	0.92030 0.74390 0.04150 0.06000
H 	H 	0.97000 0.59060 0.04920 0.12100
H 	H 	0.14620 0.53240 0.09120 -0.09400
H 	H 	0.37180 0.63430 0.97970 0.10100
H 	H 	0.54690 0.57110 0.02140 -0.00400
H 	H 	0.44020 0.00910 0.30920 -0.04000
H 	H 	0.89850 0.83240 0.30070 -0.00200
H 	H 	0.08340 0.84170 0.25030 0.04400
H 	H 	0.03900 0.92830 0.20050 0.02300
H 	H 	0.81000 0.01210 0.20050 0.06400
H 	H 	0.74220 0.13440 0.22120 0.11000
H 	H 	0.62690 0.22880 0.18230 -0.07200
H 	H 	0.15470 0.16140 0.22320 -0.01200
H 	H 	0.26450 0.05730 0.25830 0.09700
H 	H 	0.89410 0.91240 0.43630 -0.07100
H 	H 	0.37110 0.74770 0.42710 0.02800
H 	H 	0.45710 0.67280 0.47810 0.02700
H 	H 	0.31460 0.67700 0.53450 0.03100
H 	H 	0.07970 0.75610 0.54150 0.06000
H 	H 	0.03000 0.90940 0.54920 0.11900
H 	H 	0.85380 0.96760 0.59120 -0.09300
H 	H 	0.62820 0.86570 0.47970 0.10100
H 	H 	0.45310 0.92890 0.52140 -0.00300
H 	H 	0.55980 0.49090 0.80920 -0.04100
H 	H 	0.10150 0.66760 0.80070 -0.00300
H 	H 	0.91660 0.65830 0.75030 0.04600
H 	H 	0.96100 0.57170 0.70050 0.02500
H 	H 	0.19000 0.48790 0.70050 0.06400
H 	H 	0.25780 0.36560 0.72120 0.11000
H 	H 	0.37310 0.27120 0.68230 -0.07200
H 	H 	0.84530 0.33860 0.72320 -0.01200
H 	H 	0.73550 0.44270 0.75830 0.09700
C 	C 	0.96950 0.37750 0.05304 0.08000
C 	C 	0.17720 0.29830 0.04548 0.04000
C 	C 	0.31460 0.25000 0.05019 -0.10600
C 	C 	0.36440 0.20520 0.01968 -0.03100
C 	C 	0.27790 0.20770 0.98543 -0.02600
C 	C 	0.13920 0.25520 0.98084 -0.09900
C 	C 	0.09360 0.30110 0.01126 0.06000
C 	C 	0.84710 0.38450 0.98989 0.19800
C 	C 	0.91450 0.41390 0.95643 -0.26100
C 	C 	0.80990 0.44960 0.93171 0.17000
C 	C 	0.67380 0.38820 0.99821 -0.22300
C 	C 	0.56940 0.42600 0.97325 0.14000
C 	C 	0.63760 0.45920 0.94047 -0.21900
C 	C 	0.53590 0.50920 0.91488 0.37200
C 	C 	0.46700 0.00970 0.70365 0.08900
C 	C 	0.24990 0.07780 0.71814 0.00400
C 	C 	0.11680 0.13060 0.71866 -0.09600
C 	C 	0.00930 0.12560 0.74909 -0.04600
C 	C 	0.03530 0.07250 0.77926 -0.00900
C 	C 	0.16930 0.02170 0.77932 -0.11400
C 	C 	0.27170 0.02360 0.74766 0.07100
C 	C 	0.48740 0.91620 0.75797 0.18400
C 	C 	0.37660 0.86230 0.77964 -0.24000
C 	C 	0.44530 0.80470 0.80210 0.15400
C 	C 	0.62150 0.79610 0.80181 -0.21100
C 	C 	0.72840 0.84640 0.77813 0.12800
C 	C 	0.66300 0.90790 0.75664 -0.22400
C 	C 	0.69240 0.73390 0.82720 0.37900
C 	C 	0.03050 0.12250 0.55304 0.08100
C 	C 	0.82280 0.20170 0.54548 0.04000
C 	C 	0.68540 0.25000 0.55019 -0.10700
C 	C 	0.63560 0.29480 0.51968 -0.03100
C 	C 	0.72210 0.29230 0.48543 -0.02700
C 	C 	0.86080 0.24480 0.48084 -0.09800
C 	C 	0.90640 0.19890 0.51126 0.05900
C 	C 	0.15290 0.11550 0.48989 0.19600
C 	C 	0.08550 0.08610 0.45643 -0.25700
C 	C 	0.19010 0.05040 0.43171 0.16800
C 	C 	0.32620 0.11180 0.49821 -0.22100
C 	C 	0.43060 0.07400 0.47325 0.13900
C 	C 	0.36240 0.04080 0.44047 -0.21700
C 	C 	0.46410 0.99080 0.41488 0.37100
C 	C 	0.53300 0.49030 0.20365 0.09000
C 	C 	0.75010 0.42220 0.21814 0.00300
C 	C 	0.88320 0.36940 0.21866 -0.09500
C 	C 	0.99070 0.37440 0.24909 -0.04800
C 	C 	0.96470 0.42750 0.27926 -0.01000
C 	C 	0.83070 0.47830 0.27932 -0.11400
C 	C 	0.72830 0.47640 0.24766 0.07100
C 	C 	0.51260 0.58380 0.25797 0.18400
C 	C 	0.62340 0.63770 0.27964 -0.24100
C 	C 	0.55470 0.69530 0.30210 0.15500
C 	C 	0.37850 0.70390 0.30181 -0.21200
C 	C 	0.27160 0.65360 0.27813 0.12800
C 	C 	0.33700 0.59210 0.25664 -0.22500
C 	C 	0.30760 0.76610 0.32720 0.37900
C 	C 	0.03050 0.62250 0.94696 0.08000
C 	C 	0.82280 0.70170 0.95452 0.04000
C 	C 	0.68540 0.75000 0.94981 -0.10600
C 	C 	0.63560 0.79480 0.98032 -0.03100
C 	C 	0.72210 0.79230 0.01457 -0.02600
C 	C 	0.86080 0.74480 0.01916 -0.09900
C 	C 	0.90640 0.69890 0.98874 0.06000
C 	C 	0.15290 0.61550 0.01011 0.19800
C 	C 	0.08550 0.58610 0.04357 -0.26100
C 	C 	0.19010 0.55040 0.06829 0.17000
C 	C 	0.32620 0.61180 0.00179 -0.22300
C 	C 	0.43060 0.57400 0.02675 0.14000
C 	C 	0.36240 0.54080 0.05953 -0.21900
C 	C 	0.46410 0.49080 0.08512 0.37200
C 	C 	0.53300 0.99030 0.29635 0.08900
C 	C 	0.75010 0.92220 0.28186 0.00400
C 	C 	0.88320 0.86940 0.28134 -0.09600
C 	C 	0.99070 0.87440 0.25091 -0.04600
C 	C 	0.96470 0.92750 0.22074 -0.00900
C 	C 	0.83070 0.97830 0.22068 -0.11400
C 	C 	0.72830 0.97640 0.25234 0.07100
C 	C 	0.51260 0.08380 0.24203 0.18400
C 	C 	0.62340 0.13770 0.22036 -0.24000
C 	C 	0.55470 0.19530 0.19790 0.15400
C 	C 	0.37850 0.20390 0.19819 -0.21100
C 	C 	0.27160 0.15360 0.22187 0.12800
C 	C 	0.33700 0.09210 0.24336 -0.22400
C 	C 	0.30760 0.26610 0.17280 0.37900
C 	C 	0.96950 0.87750 0.44696 0.08100
C 	C 	0.17720 0.79830 0.45452 0.04000
C 	C 	0.31460 0.75000 0.44981 -0.10700
C 	C 	0.36440 0.70520 0.48032 -0.03100
C 	C 	0.27790 0.70770 0.51457 -0.02700
C 	C 	0.13920 0.75520 0.51916 -0.09800
C 	C 	0.09360 0.80110 0.48874 0.05900
C 	C 	0.84710 0.88450 0.51011 0.19600
C 	C 	0.91450 0.91390 0.54357 -0.25700
C 	C 	0.80990 0.94960 0.56829 0.16800
C 	C 	0.67380 0.88820 0.50179 -0.22100
C 	C 	0.56940 0.92600 0.52675 0.13900
C 	C 	0.63760 0.95920 0.55953 -0.21700
C 	C 	0.53590 0.00920 0.58512 0.37100
C 	C 	0.46700 0.50970 0.79635 0.09000
C 	C 	0.24990 0.57780 0.78186 0.00300
C 	C 	0.11680 0.63060 0.78134 -0.09500
C 	C 	0.00930 0.62560 0.75091 -0.04800
C 	C 	0.03530 0.57250 0.72074 -0.01000
C 	C 	0.16930 0.52170 0.72068 -0.11400
C 	C 	0.27170 0.52360 0.75234 0.07100
C 	C 	0.48740 0.41620 0.74203 0.18400
C 	C 	0.37660 0.36230 0.72036 -0.24100
C 	C 	0.44530 0.30470 0.69790 0.15500
C 	C 	0.62150 0.29610 0.69819 -0.21200
C 	C 	0.72840 0.34640 0.72187 0.12800
C 	C 	0.66300 0.40790 0.74336 -0.22500
C 	C 	0.69240 0.23390 0.67280 0.37900
N 	N 	0.09530 0.34700 0.07128 -0.28000
N 	N 	0.96040 0.35310 0.01679 -0.16500
N 	N 	0.37250 0.06740 0.69087 -0.26600
N 	N 	0.41430 0.98050 0.73771 -0.16700
N 	N 	0.90470 0.15300 0.57128 -0.28100
N 	N 	0.03960 0.14690 0.51679 -0.16400
N 	N 	0.62750 0.43260 0.19087 -0.26700
N 	N 	0.58570 0.51950 0.23771 -0.16800
N 	N 	0.90470 0.65300 0.92872 -0.28000
N 	N 	0.03960 0.64690 0.98321 -0.16500
N 	N 	0.62750 0.93260 0.30913 -0.26600
N 	N 	0.58570 0.01950 0.26229 -0.16700
N 	N 	0.09530 0.84700 0.42872 -0.28100
N 	N 	0.96040 0.85310 0.48321 -0.16400
N 	N 	0.37250 0.56740 0.80913 -0.26700
N 	N 	0.41430 0.48050 0.76229 -0.16800
O 	O 	0.38410 0.52200 0.92340 -0.43300
O 	O 	0.60540 0.53880 0.88496 -0.55300
O 	O 	0.84010 0.71230 0.82026 -0.47500
O 	O 	0.60590 0.70650 0.85530 -0.53700
O 	O 	0.61590 0.97800 0.42340 -0.43200
O 	O 	0.39460 0.96120 0.38496 -0.55300
O 	O 	0.15990 0.78770 0.32026 -0.47500
O 	O 	0.39410 0.79350 0.35530 -0.53700
O 	O 	0.61590 0.47800 0.07660 -0.43300
O 	O 	0.39460 0.46120 0.11504 -0.55300
O 	O 	0.15990 0.28770 0.17974 -0.47500
O 	O 	0.39410 0.29350 0.14470 -0.53700
O 	O 	0.38410 0.02200 0.57660 -0.43200
O 	O 	0.60540 0.03880 0.61504 -0.55300
O 	O 	0.84010 0.21230 0.67974 -0.47500
O 	O 	0.60590 0.20650 0.64470 -0.53700
