data_crystal

_cell_length_a 7.17900
_cell_length_b 14.63400
_cell_length_c 22.13400
_cell_angle_alpha 90.00000
_cell_angle_beta  91.12100
_cell_angle_gamma 90.00000

_symmetry_space_group_name_	'P 1'
_symmetry_space_group_name_H-M	'P 1'

loop_
_symmetry_equiv_pos_as_xyz
  x,y,z

loop_
_atom_site_label
_atom_site_type_symbol
_atom_site_fract_x
_atom_site_fract_y
_atom_site_fract_z
_atom_site_charge
Co	Co	0.75210 0.52840 0.76213 1.10100
Co	Co	0.74790 0.02840 0.73787 1.08300
Co	Co	0.24790 0.47160 0.23787 1.09600
Co	Co	0.25210 0.97160 0.26213 1.11500
Co	Co	0.50000 0.50000 0.50000 1.07100
Co	Co	-0.00000 0.00000 -0.00000 1.02400
H 	H 	0.67650 0.48610 0.62870 -0.03900
H 	H 	0.79210 0.71980 0.70000 -0.00400
H 	H 	0.74860 0.79150 0.60650 0.07700
H 	H 	0.62080 0.70410 0.52830 -0.00900
H 	H 	0.82350 0.98610 0.87130 0.02100
H 	H 	0.70790 0.21980 0.80000 -0.00800
H 	H 	0.75140 0.29150 0.89350 0.07300
H 	H 	0.87920 0.20410 0.97170 0.00900
H 	H 	0.32350 0.51390 0.37130 -0.04100
H 	H 	0.20790 0.28020 0.30000 -0.01700
H 	H 	0.25140 0.20850 0.39350 0.05900
H 	H 	0.37920 0.29590 0.47170 -0.01100
H 	H 	0.17650 0.01390 0.12870 -0.09800
H 	H 	0.29210 0.78020 0.20000 -0.01300
H 	H 	0.24860 0.70850 0.10650 0.06300
H 	H 	0.12080 0.79590 0.02830 -0.02600
W 	W 	0.24022 0.28497 0.67749 0.51500
W 	W 	0.25978 0.78497 0.82251 0.53000
W 	W 	0.75978 0.71503 0.32251 0.52200
W 	W 	0.74022 0.21503 0.17749 0.50800
C 	C 	0.45000 0.37490 0.71340 -0.02900
C 	C 	0.32600 0.37800 0.60820 -0.02900
C 	C 	0.27300 0.20210 0.59830 -0.05600
C 	C 	0.45600 0.18760 0.69720 -0.02600
C 	C 	0.24800 0.26760 0.77310 -0.06000
C 	C 	0.07400 0.39460 0.71180 -0.05900
C 	C 	0.99500 0.29830 0.62560 -0.03600
C 	C 	0.06000 0.17130 0.69900 -0.05800
C 	C 	0.68100 0.55080 0.62570 0.11500
C 	C 	0.73800 0.68570 0.66770 0.07900
C 	C 	0.71700 0.72900 0.61240 -0.14000
C 	C 	0.65800 0.67600 0.56530 0.07500
C 	C 	0.05000 0.87490 0.78660 -0.05800
C 	C 	0.17400 0.87800 0.89180 -0.01800
C 	C 	0.22700 0.70210 0.90170 -0.04300
C 	C 	0.04400 0.68760 0.80280 -0.05500
C 	C 	0.25200 0.76760 0.72690 -0.05800
C 	C 	0.42600 0.89460 0.78820 -0.01400
C 	C 	0.50500 0.79830 0.87440 -0.05700
C 	C 	0.44000 0.67130 0.80100 -0.01600
C 	C 	0.81900 0.05080 0.87430 0.04100
C 	C 	0.76200 0.18570 0.83230 0.07700
C 	C 	0.78300 0.22900 0.88760 -0.13100
C 	C 	0.84200 0.17600 0.93470 0.07100
C 	C 	0.55000 0.62510 0.28660 -0.03300
C 	C 	0.67400 0.62200 0.39180 -0.01800
C 	C 	0.72700 0.79790 0.40170 -0.03600
C 	C 	0.54400 0.81240 0.30280 -0.02100
C 	C 	0.75200 0.73240 0.22690 -0.05400
C 	C 	0.92600 0.60540 0.28820 0.01500
C 	C 	0.00500 0.70170 0.37440 -0.09200
C 	C 	0.94000 0.82870 0.30100 0.02200
C 	C 	0.31900 0.44920 0.37430 0.11100
C 	C 	0.26200 0.31430 0.33230 0.07400
C 	C 	0.28300 0.27100 0.38760 -0.14200
C 	C 	0.34200 0.32400 0.43470 0.06700
C 	C 	0.95000 0.12510 0.21340 -0.00300
C 	C 	0.82600 0.12200 0.10820 -0.02900
C 	C 	0.77300 0.29790 0.09830 -0.04800
C 	C 	0.95600 0.31240 0.19720 0.00700
C 	C 	0.74800 0.23240 0.27310 -0.05600
C 	C 	0.57400 0.10540 0.21180 -0.02600
C 	C 	0.49500 0.20170 0.12560 -0.07100
C 	C 	0.56000 0.32870 0.19900 -0.01700
C 	C 	0.18100 0.94920 0.12570 0.18800
C 	C 	0.23800 0.81430 0.16770 0.07700
C 	C 	0.21700 0.77100 0.11240 -0.15000
C 	C 	0.15800 0.82400 0.06530 0.07300
N 	N 	0.55700 0.42900 0.73150 -0.23000
N 	N 	0.38200 0.42120 0.56930 -0.24600
N 	N 	0.28300 0.16250 0.55380 -0.11000
N 	N 	0.56200 0.13060 0.70840 -0.23900
N 	N 	0.25200 0.25440 0.82480 -0.10500
N 	N 	0.97900 0.44820 0.72960 -0.20400
N 	N 	0.85900 0.31200 0.59210 -0.11100
N 	N 	0.96300 0.11080 0.70880 -0.22000
N 	N 	0.63600 0.58460 0.57110 -0.25800
N 	N 	0.72700 0.59430 0.67400 -0.24600
N 	N 	0.94300 0.92900 0.76850 -0.19400
N 	N 	0.11800 0.92120 0.93070 -0.22500
N 	N 	0.21700 0.66250 0.94620 -0.09200
N 	N 	0.93800 0.63060 0.79160 -0.20700
N 	N 	0.24800 0.75440 0.67520 -0.10300
N 	N 	0.52100 0.94820 0.77040 -0.21700
N 	N 	0.64100 0.81200 0.90790 -0.09300
N 	N 	0.53700 0.61080 0.79120 -0.23700
N 	N 	0.86400 0.08460 0.92890 -0.23600
N 	N 	0.77300 0.09430 0.82600 -0.23800
N 	N 	0.44300 0.57100 0.26850 -0.23100
N 	N 	0.61800 0.57880 0.43070 -0.24400
N 	N 	0.71700 0.83750 0.44620 -0.09300
N 	N 	0.43800 0.86940 0.29160 -0.22800
N 	N 	0.74800 0.74560 0.17520 -0.09700
N 	N 	0.02100 0.55180 0.27040 -0.25800
N 	N 	0.14100 0.68800 0.40790 -0.10900
N 	N 	0.03700 0.88920 0.29120 -0.25500
N 	N 	0.36400 0.41540 0.42890 -0.25900
N 	N 	0.27300 0.40570 0.32600 -0.24900
N 	N 	0.05700 0.07100 0.23150 -0.26700
N 	N 	0.88200 0.07880 0.06930 -0.24900
N 	N 	0.78300 0.33750 0.05380 -0.11000
N 	N 	0.06200 0.36940 0.20840 -0.25900
N 	N 	0.75200 0.24560 0.32480 -0.10000
N 	N 	0.47900 0.05180 0.22960 -0.24600
N 	N 	0.35900 0.18800 0.09210 -0.12400
N 	N 	0.46300 0.38920 0.20880 -0.24100
N 	N 	0.13600 0.91540 0.07110 -0.26800
N 	N 	0.22700 0.90570 0.17400 -0.25600
