data_crystal

_cell_length_a 19.93600
_cell_length_b 10.25100
_cell_length_c 17.91000
_cell_angle_alpha 90.00000
_cell_angle_beta  94.73400
_cell_angle_gamma 90.00000

_symmetry_space_group_name_	'P 1'
_symmetry_space_group_name_H-M	'P 1'

loop_
_symmetry_equiv_pos_as_xyz
  x,y,z

loop_
_atom_site_label
_atom_site_type_symbol
_atom_site_fract_x
_atom_site_fract_y
_atom_site_fract_z
_atom_site_charge
Co	Co	0.85554 0.25313 0.93508 1.19200
Co	Co	0.75209 0.45256 0.83525 1.19700
O 	O 	0.77057 0.25610 0.98789 -0.43100
O 	O 	0.69552 0.36530 0.91091 -0.41400
O 	O 	0.70467 0.11280 0.23735 -0.38800
O 	O 	0.59436 0.11660 0.25543 -0.29100
O 	O 	0.48205 0.35560 0.03765 -0.25500
O 	O 	0.41492 0.45580 0.14499 -0.48900
O 	O 	0.31088 0.38370 0.15873 -0.41500
O 	O 	0.90395 0.12060 0.00233 -0.37800
O 	O 	0.83788 0.03270 0.91195 -0.32400
O 	O 	0.81129 0.55050 0.91540 -0.41900
O 	O 	0.89248 0.42600 0.97355 -0.41600
O 	O 	0.03797 0.75180 0.12392 -0.36000
O 	O 	0.17173 0.69120 0.17075 -0.53100
O 	O 	0.16099 0.51780 0.24049 -0.36100
C 	C 	0.71398 0.30620 0.97030 0.34500
C 	C 	0.66187 0.29160 0.02730 0.00100
C 	C 	0.59636 0.33450 0.00790 -0.16200
H 	H 	0.58550 0.37590 0.96230 0.14100
C 	C 	0.54762 0.31420 0.05790 0.22900
C 	C 	0.56315 0.25390 0.12630 -0.16300
H 	H 	0.52990 0.24160 0.15900 0.12400
C 	C 	0.62873 0.21160 0.14600 0.00600
C 	C 	0.67840 0.23000 0.09530 -0.05800
H 	H 	0.72210 0.20090 0.10730 0.08200
C 	C 	0.64421 0.14050 0.21900 0.32000
C 	C 	0.43423 0.25790 0.03590 0.29800
C 	C 	0.44270 0.14710 0.99280 -0.28400
H 	H 	0.48230 0.13600 0.96950 0.14500
C 	C 	0.39290 0.05380 0.98460 0.17600
H 	H 	0.39980 0.97840 0.95730 -0.02000
C 	C 	0.33280 0.07130 0.01650 -0.22400
H 	H 	0.29850 0.00990 0.00930 0.12600
C 	C 	0.32424 0.18110 0.05940 0.16100
H 	H 	0.28350 0.19370 0.08020 0.00200
C 	C 	0.37536 0.27400 0.07220 -0.24100
C 	C 	0.36532 0.37970 0.12820 0.47800
C 	C 	0.87883 0.02030 0.96770 0.26100
C 	C 	0.90295 0.88990 0.99600 0.01900
C 	C 	0.95606 0.88220 0.05070 -0.17600
H 	H 	0.97560 0.95750 0.07170 0.11800
C 	C 	0.97956 0.76020 0.07380 0.22400
C 	C 	0.95113 0.64620 0.04490 -0.16500
H 	H 	0.96780 0.56540 0.06120 0.11700
C 	C 	0.89708 0.65470 0.99090 -0.00300
C 	C 	0.87384 0.77620 0.96620 -0.06900
H 	H 	0.83830 0.78150 0.92930 0.08500
C 	C 	0.86415 0.53450 0.95710 0.33800
C 	C 	0.02929 0.75040 0.20060 0.29500
C 	C 	0.97593 0.81210 0.23050 -0.28500
H 	H 	0.94430 0.85740 0.19940 0.15300
C 	C 	0.96995 0.80590 0.30710 0.17500
H 	H 	0.93380 0.84660 0.32700 -0.01500
C 	C 	0.01670 0.74030 0.35430 -0.21900
H 	H 	0.01220 0.73700 0.40550 0.12700
C 	C 	0.07138 0.67840 0.32370 0.14600
H 	H 	0.10310 0.63360 0.35490 0.00500
C 	C 	0.07813 0.68420 0.24690 -0.23500
C 	C 	0.13912 0.62450 0.21780 0.39000
H 	H 	0.41600 0.50600 0.18400 0.31500
Co	Co	0.14446 0.75313 0.56492 1.19100
Co	Co	0.24791 0.95256 0.66475 1.19600
O 	O 	0.22943 0.75610 0.51211 -0.43000
O 	O 	0.30448 0.86530 0.58909 -0.41400
O 	O 	0.29533 0.61280 0.26265 -0.38800
O 	O 	0.40564 0.61660 0.24457 -0.29100
O 	O 	0.51795 0.85560 0.46235 -0.25500
O 	O 	0.58508 0.95580 0.35501 -0.48900
O 	O 	0.68912 0.88370 0.34127 -0.41500
O 	O 	0.09605 0.62060 0.49767 -0.38100
O 	O 	0.16212 0.53270 0.58805 -0.32400
O 	O 	0.18871 0.05050 0.58460 -0.41900
O 	O 	0.10752 0.92600 0.52645 -0.41500
O 	O 	0.96203 0.25180 0.37608 -0.35900
O 	O 	0.82827 0.19120 0.32925 -0.53100
O 	O 	0.83901 0.01780 0.25951 -0.36100
C 	C 	0.28602 0.80620 0.52970 0.34500
C 	C 	0.33813 0.79160 0.47270 0.00100
C 	C 	0.40364 0.83450 0.49210 -0.16300
H 	H 	0.41450 0.87590 0.53770 0.14100
C 	C 	0.45238 0.81420 0.44210 0.22900
C 	C 	0.43685 0.75390 0.37370 -0.16300
H 	H 	0.47010 0.74160 0.34100 0.12400
C 	C 	0.37127 0.71160 0.35400 0.00600
C 	C 	0.32160 0.73000 0.40470 -0.05700
H 	H 	0.27790 0.70090 0.39270 0.08200
C 	C 	0.35579 0.64050 0.28100 0.32000
C 	C 	0.56577 0.75790 0.46410 0.29800
C 	C 	0.55730 0.64710 0.50720 -0.28500
H 	H 	0.51770 0.63600 0.53050 0.14600
C 	C 	0.60710 0.55380 0.51540 0.17800
H 	H 	0.60020 0.47840 0.54270 -0.02100
C 	C 	0.66720 0.57130 0.48350 -0.22600
H 	H 	0.70150 0.50990 0.49070 0.12700
C 	C 	0.67576 0.68110 0.44060 0.16200
H 	H 	0.71650 0.69370 0.41980 0.00200
C 	C 	0.62464 0.77400 0.42780 -0.24100
C 	C 	0.63468 0.87970 0.37180 0.47900
C 	C 	0.12117 0.52030 0.53230 0.26300
C 	C 	0.09705 0.38990 0.50400 0.02000
C 	C 	0.04394 0.38220 0.44930 -0.17700
H 	H 	0.02440 0.45750 0.42830 0.11800
C 	C 	0.02044 0.26020 0.42620 0.22300
C 	C 	0.04887 0.14620 0.45510 -0.16700
H 	H 	0.03220 0.06540 0.43880 0.11700
C 	C 	0.10292 0.15470 0.50910 -0.00100
C 	C 	0.12616 0.27620 0.53380 -0.06900
H 	H 	0.16170 0.28150 0.57070 0.08500
C 	C 	0.13585 0.03450 0.54290 0.33700
C 	C 	0.97071 0.25040 0.29940 0.29600
C 	C 	0.02407 0.31210 0.26950 -0.28600
H 	H 	0.05570 0.35740 0.30060 0.15300
C 	C 	0.03005 0.30590 0.19290 0.17200
H 	H 	0.06620 0.34660 0.17300 -0.01400
C 	C 	0.98330 0.24030 0.14570 -0.21500
H 	H 	0.98780 0.23700 0.09450 0.12600
C 	C 	0.92862 0.17840 0.17630 0.14500
H 	H 	0.89690 0.13360 0.14510 0.00600
C 	C 	0.92187 0.18420 0.25310 -0.23500
C 	C 	0.86088 0.12450 0.28220 0.39000
H 	H 	0.58400 0.00600 0.31600 0.31500
Co	Co	0.14446 0.74687 0.06492 1.19100
Co	Co	0.24791 0.54744 0.16475 1.19600
O 	O 	0.22943 0.74390 0.01211 -0.43100
O 	O 	0.30448 0.63470 0.08909 -0.41400
O 	O 	0.29533 0.88720 0.76265 -0.38800
O 	O 	0.40564 0.88340 0.74457 -0.29100
O 	O 	0.51795 0.64440 0.96235 -0.25500
O 	O 	0.58508 0.54420 0.85501 -0.48900
O 	O 	0.68912 0.61630 0.84127 -0.41500
O 	O 	0.09605 0.87940 0.99767 -0.37800
O 	O 	0.16212 0.96730 0.08805 -0.32400
O 	O 	0.18871 0.44950 0.08460 -0.41900
O 	O 	0.10752 0.57400 0.02645 -0.41600
O 	O 	0.96203 0.24820 0.87608 -0.36000
O 	O 	0.82827 0.30880 0.82925 -0.53100
O 	O 	0.83901 0.48220 0.75951 -0.36100
C 	C 	0.28602 0.69380 0.02970 0.34500
C 	C 	0.33813 0.70840 0.97270 0.00100
C 	C 	0.40364 0.66550 0.99210 -0.16200
H 	H 	0.41450 0.62410 0.03770 0.14100
C 	C 	0.45238 0.68580 0.94210 0.22900
C 	C 	0.43685 0.74610 0.87370 -0.16300
H 	H 	0.47010 0.75840 0.84100 0.12400
C 	C 	0.37127 0.78840 0.85400 0.00600
C 	C 	0.32160 0.77000 0.90470 -0.05800
H 	H 	0.27790 0.79910 0.89270 0.08200
C 	C 	0.35579 0.85950 0.78100 0.32000
C 	C 	0.56577 0.74210 0.96410 0.29800
C 	C 	0.55730 0.85290 0.00720 -0.28400
H 	H 	0.51770 0.86400 0.03050 0.14500
C 	C 	0.60710 0.94620 0.01540 0.17600
H 	H 	0.60020 0.02160 0.04270 -0.02000
C 	C 	0.66720 0.92870 0.98350 -0.22400
H 	H 	0.70150 0.99010 0.99070 0.12600
C 	C 	0.67576 0.81890 0.94060 0.16100
H 	H 	0.71650 0.80630 0.91980 0.00200
C 	C 	0.62464 0.72600 0.92780 -0.24100
C 	C 	0.63468 0.62030 0.87180 0.47800
C 	C 	0.12117 0.97970 0.03230 0.26100
C 	C 	0.09705 0.11010 0.00400 0.01900
C 	C 	0.04394 0.11780 0.94930 -0.17600
H 	H 	0.02440 0.04250 0.92830 0.11800
C 	C 	0.02044 0.23980 0.92620 0.22400
C 	C 	0.04887 0.35380 0.95510 -0.16500
H 	H 	0.03220 0.43460 0.93880 0.11700
C 	C 	0.10292 0.34530 0.00910 -0.00300
C 	C 	0.12616 0.22380 0.03380 -0.06900
H 	H 	0.16170 0.21850 0.07070 0.08500
C 	C 	0.13585 0.46550 0.04290 0.33800
C 	C 	0.97071 0.24960 0.79940 0.29500
C 	C 	0.02407 0.18790 0.76950 -0.28500
H 	H 	0.05570 0.14260 0.80060 0.15300
C 	C 	0.03005 0.19410 0.69290 0.17500
H 	H 	0.06620 0.15340 0.67300 -0.01500
C 	C 	0.98330 0.25970 0.64570 -0.21900
H 	H 	0.98780 0.26300 0.59450 0.12700
C 	C 	0.92862 0.32160 0.67630 0.14600
H 	H 	0.89690 0.36640 0.64510 0.00500
C 	C 	0.92187 0.31580 0.75310 -0.23500
C 	C 	0.86088 0.37550 0.78220 0.39000
H 	H 	0.58400 0.49400 0.81600 0.31500
Co	Co	0.85554 0.24687 0.43508 1.19100
Co	Co	0.75209 0.04744 0.33525 1.19600
O 	O 	0.77057 0.24390 0.48789 -0.43000
O 	O 	0.69552 0.13470 0.41091 -0.41400
O 	O 	0.70467 0.38720 0.73735 -0.38800
O 	O 	0.59436 0.38340 0.75543 -0.29100
O 	O 	0.48205 0.14440 0.53765 -0.25500
O 	O 	0.41492 0.04420 0.64499 -0.48900
O 	O 	0.31088 0.11630 0.65873 -0.41500
O 	O 	0.90395 0.37940 0.50233 -0.38100
O 	O 	0.83788 0.46730 0.41195 -0.32400
O 	O 	0.81129 0.94950 0.41540 -0.41900
O 	O 	0.89248 0.07400 0.47355 -0.41500
O 	O 	0.03797 0.74820 0.62392 -0.35900
O 	O 	0.17173 0.80880 0.67075 -0.53100
O 	O 	0.16099 0.98220 0.74049 -0.36100
C 	C 	0.71398 0.19380 0.47030 0.34500
C 	C 	0.66187 0.20840 0.52730 0.00100
C 	C 	0.59636 0.16550 0.50790 -0.16300
H 	H 	0.58550 0.12410 0.46230 0.14100
C 	C 	0.54762 0.18580 0.55790 0.22900
C 	C 	0.56315 0.24610 0.62630 -0.16300
H 	H 	0.52990 0.25840 0.65900 0.12400
C 	C 	0.62873 0.28840 0.64600 0.00600
C 	C 	0.67840 0.27000 0.59530 -0.05700
H 	H 	0.72210 0.29910 0.60730 0.08200
C 	C 	0.64421 0.35950 0.71900 0.32000
C 	C 	0.43423 0.24210 0.53590 0.29800
C 	C 	0.44270 0.35290 0.49280 -0.28500
H 	H 	0.48230 0.36400 0.46950 0.14600
C 	C 	0.39290 0.44620 0.48460 0.17800
H 	H 	0.39980 0.52160 0.45730 -0.02100
C 	C 	0.33280 0.42870 0.51650 -0.22600
H 	H 	0.29850 0.49010 0.50930 0.12700
C 	C 	0.32424 0.31890 0.55940 0.16200
H 	H 	0.28350 0.30630 0.58020 0.00200
C 	C 	0.37536 0.22600 0.57220 -0.24100
C 	C 	0.36532 0.12030 0.62820 0.47900
C 	C 	0.87883 0.47970 0.46770 0.26300
C 	C 	0.90295 0.61010 0.49600 0.02000
C 	C 	0.95606 0.61780 0.55070 -0.17700
H 	H 	0.97560 0.54250 0.57170 0.11800
C 	C 	0.97956 0.73980 0.57380 0.22300
C 	C 	0.95113 0.85380 0.54490 -0.16700
H 	H 	0.96780 0.93460 0.56120 0.11700
C 	C 	0.89708 0.84530 0.49090 -0.00100
C 	C 	0.87384 0.72380 0.46620 -0.06900
H 	H 	0.83830 0.71850 0.42930 0.08500
C 	C 	0.86415 0.96550 0.45710 0.33700
C 	C 	0.02929 0.74960 0.70060 0.29600
C 	C 	0.97593 0.68790 0.73050 -0.28600
H 	H 	0.94430 0.64260 0.69940 0.15300
C 	C 	0.96995 0.69410 0.80710 0.17200
H 	H 	0.93380 0.65340 0.82700 -0.01400
C 	C 	0.01670 0.75970 0.85430 -0.21500
H 	H 	0.01220 0.76300 0.90550 0.12600
C 	C 	0.07138 0.82160 0.82370 0.14500
H 	H 	0.10310 0.86640 0.85490 0.00600
C 	C 	0.07813 0.81580 0.74690 -0.23500
C 	C 	0.13912 0.87550 0.71780 0.39000
H 	H 	0.41600 0.99400 0.68400 0.31500
