data_crystal

_cell_length_a 16.34170
_cell_length_b 16.34170
_cell_length_c 16.34170
_cell_angle_alpha 90.00000
_cell_angle_beta  90.00000
_cell_angle_gamma 90.00000

_symmetry_space_group_name_	'P 1'
_symmetry_space_group_name_H-M	'P 1'

loop_
_symmetry_equiv_pos_as_xyz
  x,y,z

loop_
_atom_site_label
_atom_site_type_symbol
_atom_site_fract_x
_atom_site_fract_y
_atom_site_fract_z
_atom_site_charge
N 	N 	0.58357 0.68576 0.31171 -0.23800
C 	C 	0.60638 0.70817 0.38841 0.09600
H 	H 	0.57866 0.75168 0.41519 0.00300
N 	N 	0.91643 0.81424 0.31171 -0.22000
C 	C 	0.89362 0.79183 0.38841 0.10400
H 	H 	0.92134 0.74832 0.41519 0.01700
N 	N 	0.91643 0.68576 0.18829 -0.22100
C 	C 	0.89362 0.70817 0.11159 0.09700
H 	H 	0.92134 0.75168 0.08481 0.01100
N 	N 	0.58357 0.81424 0.18829 -0.23800
C 	C 	0.60638 0.79183 0.11159 0.09500
H 	H 	0.57866 0.74832 0.08481 -0.00800
N 	N 	0.31171 0.58357 0.68576 -0.23800
C 	C 	0.38841 0.60638 0.70817 0.09600
H 	H 	0.41519 0.57866 0.75168 0.00300
N 	N 	0.31171 0.91643 0.81424 -0.22000
C 	C 	0.38841 0.89362 0.79183 0.10400
H 	H 	0.41519 0.92134 0.74832 0.01700
N 	N 	0.18829 0.91643 0.68576 -0.22100
C 	C 	0.11159 0.89362 0.70817 0.09700
H 	H 	0.08481 0.92134 0.75168 0.01100
N 	N 	0.18829 0.58357 0.81424 -0.23800
C 	C 	0.11159 0.60638 0.79183 0.09500
H 	H 	0.08481 0.57866 0.74832 -0.00800
N 	N 	0.68576 0.31171 0.58357 -0.23800
C 	C 	0.70817 0.38841 0.60638 0.09600
H 	H 	0.75168 0.41519 0.57866 0.00300
N 	N 	0.81424 0.31171 0.91643 -0.22000
C 	C 	0.79183 0.38841 0.89362 0.10400
H 	H 	0.74832 0.41519 0.92134 0.01700
N 	N 	0.68576 0.18829 0.91643 -0.22100
C 	C 	0.70817 0.11159 0.89362 0.09700
H 	H 	0.75168 0.08481 0.92134 0.01100
N 	N 	0.81424 0.18829 0.58357 -0.23800
C 	C 	0.79183 0.11159 0.60638 0.09500
H 	H 	0.74832 0.08481 0.57866 -0.00800
N 	N 	0.18576 0.08357 0.68829 -0.24600
C 	C 	0.20817 0.10638 0.61159 0.08700
H 	H 	0.25168 0.07866 0.58481 -0.01500
N 	N 	0.31424 0.41643 0.68829 -0.23800
C 	C 	0.29183 0.39362 0.61159 0.09500
H 	H 	0.24832 0.42134 0.58481 -0.00400
N 	N 	0.18576 0.41643 0.81171 -0.23800
C 	C 	0.20817 0.39362 0.88841 0.09600
H 	H 	0.25168 0.42134 0.91519 0.00700
N 	N 	0.31424 0.08357 0.81171 -0.24500
C 	C 	0.29183 0.10638 0.88841 0.09400
H 	H 	0.24832 0.07866 0.91519 -0.00900
N 	N 	0.08357 0.81171 0.31424 -0.24500
C 	C 	0.10638 0.88841 0.29183 0.09400
H 	H 	0.07866 0.91519 0.24832 -0.00900
N 	N 	0.41643 0.81171 0.18576 -0.23800
C 	C 	0.39362 0.88841 0.20817 0.09600
H 	H 	0.42134 0.91519 0.25168 0.00700
N 	N 	0.41643 0.68829 0.31424 -0.23800
C 	C 	0.39362 0.61159 0.29183 0.09500
H 	H 	0.42134 0.58481 0.24832 -0.00400
N 	N 	0.08357 0.68829 0.18576 -0.24600
C 	C 	0.10638 0.61159 0.20817 0.08700
H 	H 	0.07866 0.58481 0.25168 -0.01500
N 	N 	0.81171 0.18576 0.41643 -0.23800
C 	C 	0.88841 0.20817 0.39362 0.09600
H 	H 	0.91519 0.25168 0.42134 0.00700
N 	N 	0.81171 0.31424 0.08357 -0.24500
C 	C 	0.88841 0.29183 0.10638 0.09400
H 	H 	0.91519 0.24832 0.07866 -0.00900
N 	N 	0.68829 0.18576 0.08357 -0.24600
C 	C 	0.61159 0.20817 0.10638 0.08700
H 	H 	0.58481 0.25168 0.07866 -0.01500
N 	N 	0.68829 0.31424 0.41643 -0.23800
C 	C 	0.61159 0.29183 0.39362 0.09500
H 	H 	0.58481 0.24832 0.42134 -0.00400
N 	N 	0.41643 0.31424 0.68829 -0.23800
C 	C 	0.39362 0.29183 0.61159 0.09500
H 	H 	0.42134 0.24832 0.58481 -0.00400
N 	N 	0.08357 0.18576 0.68829 -0.24600
C 	C 	0.10638 0.20817 0.61159 0.08700
H 	H 	0.07866 0.25168 0.58481 -0.01500
N 	N 	0.08357 0.31424 0.81171 -0.24500
C 	C 	0.10638 0.29183 0.88841 0.09400
H 	H 	0.07866 0.24832 0.91519 -0.00900
N 	N 	0.41643 0.18576 0.81171 -0.23800
C 	C 	0.39362 0.20817 0.88841 0.09600
H 	H 	0.42134 0.25168 0.91519 0.00700
N 	N 	0.68829 0.41643 0.31424 -0.23800
C 	C 	0.61159 0.39362 0.29183 0.09500
H 	H 	0.58481 0.42134 0.24832 -0.00400
N 	N 	0.68829 0.08357 0.18576 -0.24600
C 	C 	0.61159 0.10638 0.20817 0.08700
H 	H 	0.58481 0.07866 0.25168 -0.01500
N 	N 	0.81171 0.08357 0.31424 -0.24500
C 	C 	0.88841 0.10638 0.29183 0.09400
H 	H 	0.91519 0.07866 0.24832 -0.00900
N 	N 	0.81171 0.41643 0.18576 -0.23800
C 	C 	0.88841 0.39362 0.20817 0.09600
H 	H 	0.91519 0.42134 0.25168 0.00700
N 	N 	0.31424 0.68829 0.41643 -0.23800
C 	C 	0.29183 0.61159 0.39362 0.09500
H 	H 	0.24832 0.58481 0.42134 -0.00400
N 	N 	0.18576 0.68829 0.08357 -0.24600
C 	C 	0.20817 0.61159 0.10638 0.08700
H 	H 	0.25168 0.58481 0.07866 -0.01500
N 	N 	0.31424 0.81171 0.08357 -0.24500
C 	C 	0.29183 0.88841 0.10638 0.09400
H 	H 	0.24832 0.91519 0.07866 -0.00900
N 	N 	0.18576 0.81171 0.41643 -0.23800
C 	C 	0.20817 0.88841 0.39362 0.09600
H 	H 	0.25168 0.91519 0.42134 0.00700
N 	N 	0.81424 0.91643 0.31171 -0.22000
C 	C 	0.79183 0.89362 0.38841 0.10400
H 	H 	0.74832 0.92134 0.41519 0.01700
N 	N 	0.68576 0.58357 0.31171 -0.23800
C 	C 	0.70817 0.60638 0.38841 0.09600
H 	H 	0.75168 0.57866 0.41519 0.00300
N 	N 	0.81424 0.58357 0.18829 -0.23800
C 	C 	0.79183 0.60638 0.11159 0.09500
H 	H 	0.74832 0.57866 0.08481 -0.00800
N 	N 	0.68576 0.91643 0.18829 -0.22100
C 	C 	0.70817 0.89362 0.11159 0.09700
H 	H 	0.75168 0.92134 0.08481 0.01100
N 	N 	0.91643 0.18829 0.68576 -0.22100
C 	C 	0.89362 0.11159 0.70817 0.09700
H 	H 	0.92134 0.08481 0.75168 0.01100
N 	N 	0.58357 0.18829 0.81424 -0.23800
C 	C 	0.60638 0.11159 0.79183 0.09500
H 	H 	0.57866 0.08481 0.74832 -0.00800
N 	N 	0.58357 0.31171 0.68576 -0.23800
C 	C 	0.60638 0.38841 0.70817 0.09600
H 	H 	0.57866 0.41519 0.75168 0.00300
N 	N 	0.91643 0.31171 0.81424 -0.22000
C 	C 	0.89362 0.38841 0.79183 0.10400
H 	H 	0.92134 0.41519 0.74832 0.01700
N 	N 	0.18829 0.81424 0.58357 -0.23800
C 	C 	0.11159 0.79183 0.60638 0.09500
H 	H 	0.08481 0.74832 0.57866 -0.00800
N 	N 	0.18829 0.68576 0.91643 -0.22100
C 	C 	0.11159 0.70817 0.89362 0.09700
H 	H 	0.08481 0.75168 0.92134 0.01100
N 	N 	0.31171 0.81424 0.91643 -0.22000
C 	C 	0.38841 0.79183 0.89362 0.10400
H 	H 	0.41519 0.74832 0.92134 0.01700
N 	N 	0.31171 0.68576 0.58357 -0.23800
C 	C 	0.38841 0.70817 0.60638 0.09600
H 	H 	0.41519 0.75168 0.57866 0.00300
Pd	Pd	0.50000 0.75000 0.25000 0.78000
Pd	Pd	-0.00000 0.75000 0.25000 0.74500
Pd	Pd	0.25000 0.50000 0.75000 0.78000
Pd	Pd	0.25000 0.00000 0.75000 0.74500
Pd	Pd	0.75000 0.25000 0.50000 0.78000
Pd	Pd	0.75000 0.25000 -0.00000 0.74500
Pd	Pd	0.50000 0.25000 0.75000 0.78000
Pd	Pd	-0.00000 0.25000 0.75000 0.74500
Pd	Pd	0.75000 0.50000 0.25000 0.78000
Pd	Pd	0.75000 -0.00000 0.25000 0.74500
Pd	Pd	0.25000 0.75000 0.50000 0.78000
Pd	Pd	0.25000 0.75000 -0.00000 0.74500
C 	C 	0.62354 0.62354 0.27313 0.25400
C 	C 	0.66841 0.66841 0.42699 -0.15900
O 	O 	0.60291 0.60291 0.20242 -0.28600
H 	H 	0.68409 0.68409 0.48073 0.09000
C 	C 	0.87646 0.87646 0.27313 0.26100
C 	C 	0.83160 0.83160 0.42699 -0.15300
O 	O 	0.89710 0.89710 0.20242 -0.25200
H 	H 	0.81592 0.81592 0.48073 0.09600
C 	C 	0.87646 0.62354 0.22687 0.25500
C 	C 	0.83160 0.66841 0.07301 -0.15900
O 	O 	0.89710 0.60291 0.29758 -0.26400
H 	H 	0.81592 0.68409 0.01927 0.07800
C 	C 	0.62354 0.87646 0.22687 0.25500
C 	C 	0.66841 0.83160 0.07301 -0.15900
O 	O 	0.60291 0.89710 0.29758 -0.26400
H 	H 	0.68409 0.81592 0.01927 0.07800
C 	C 	0.27313 0.62354 0.62354 0.25400
C 	C 	0.42699 0.66841 0.66841 -0.15900
O 	O 	0.20242 0.60291 0.60291 -0.28600
H 	H 	0.48073 0.68409 0.68409 0.09000
C 	C 	0.27313 0.87646 0.87646 0.26100
C 	C 	0.42699 0.83160 0.83160 -0.15300
O 	O 	0.20242 0.89710 0.89710 -0.25200
H 	H 	0.48073 0.81592 0.81592 0.09600
C 	C 	0.22687 0.87646 0.62354 0.25500
C 	C 	0.07301 0.83160 0.66841 -0.15900
O 	O 	0.29758 0.89710 0.60291 -0.26400
H 	H 	0.01927 0.81592 0.68409 0.07800
C 	C 	0.22687 0.62354 0.87646 0.25500
C 	C 	0.07301 0.66841 0.83160 -0.15900
O 	O 	0.29758 0.60291 0.89710 -0.26400
H 	H 	0.01927 0.68409 0.81592 0.07800
C 	C 	0.62354 0.27313 0.62354 0.25400
C 	C 	0.66841 0.42699 0.66841 -0.15900
O 	O 	0.60291 0.20242 0.60291 -0.28600
H 	H 	0.68409 0.48073 0.68409 0.09000
C 	C 	0.87646 0.27313 0.87646 0.26100
C 	C 	0.83160 0.42699 0.83160 -0.15300
O 	O 	0.89710 0.20242 0.89710 -0.25200
H 	H 	0.81592 0.48073 0.81592 0.09600
C 	C 	0.62354 0.22687 0.87646 0.25500
C 	C 	0.66841 0.07301 0.83160 -0.15900
O 	O 	0.60291 0.29758 0.89710 -0.26400
H 	H 	0.68409 0.01927 0.81592 0.07800
C 	C 	0.87646 0.22687 0.62354 0.25500
C 	C 	0.83160 0.07301 0.66841 -0.15900
O 	O 	0.89710 0.29758 0.60291 -0.26400
H 	H 	0.81592 0.01927 0.68409 0.07800
C 	C 	0.12354 0.12354 0.72687 0.24500
C 	C 	0.16841 0.16841 0.57301 -0.16600
O 	O 	0.10291 0.10291 0.79758 -0.30200
H 	H 	0.18409 0.18409 0.51927 0.07000
C 	C 	0.37646 0.37646 0.72687 0.25200
C 	C 	0.33159 0.33159 0.57301 -0.16000
O 	O 	0.39710 0.39710 0.79758 -0.27500
H 	H 	0.31592 0.31592 0.51927 0.07700
C 	C 	0.12354 0.37646 0.77313 0.25200
C 	C 	0.16841 0.33159 0.92699 -0.16000
O 	O 	0.10291 0.39710 0.70242 -0.29400
H 	H 	0.18409 0.31592 0.98073 0.08900
C 	C 	0.37646 0.12354 0.77313 0.25200
C 	C 	0.33159 0.16841 0.92699 -0.16000
O 	O 	0.39710 0.10291 0.70242 -0.29400
H 	H 	0.31592 0.18409 0.98073 0.08900
C 	C 	0.12354 0.77313 0.37646 0.25200
C 	C 	0.16841 0.92699 0.33159 -0.16000
O 	O 	0.10291 0.70242 0.39710 -0.29400
H 	H 	0.18409 0.98073 0.31592 0.08900
C 	C 	0.37646 0.77313 0.12354 0.25200
C 	C 	0.33159 0.92699 0.16841 -0.16000
O 	O 	0.39710 0.70242 0.10291 -0.29400
H 	H 	0.31592 0.98073 0.18409 0.08900
C 	C 	0.37646 0.72687 0.37646 0.25200
C 	C 	0.33159 0.57301 0.33159 -0.16000
O 	O 	0.39710 0.79758 0.39710 -0.27500
H 	H 	0.31592 0.51927 0.31592 0.07700
C 	C 	0.12354 0.72687 0.12354 0.24500
C 	C 	0.16841 0.57301 0.16841 -0.16600
O 	O 	0.10291 0.79758 0.10291 -0.30200
H 	H 	0.18409 0.51927 0.18409 0.07000
C 	C 	0.77313 0.12354 0.37646 0.25200
C 	C 	0.92699 0.16841 0.33159 -0.16000
O 	O 	0.70242 0.10291 0.39710 -0.29400
H 	H 	0.98073 0.18409 0.31592 0.08900
C 	C 	0.77313 0.37646 0.12354 0.25200
C 	C 	0.92699 0.33159 0.16841 -0.16000
O 	O 	0.70242 0.39710 0.10291 -0.29400
H 	H 	0.98073 0.31592 0.18409 0.08900
C 	C 	0.72687 0.12354 0.12354 0.24500
C 	C 	0.57301 0.16841 0.16841 -0.16600
O 	O 	0.79758 0.10291 0.10291 -0.30200
H 	H 	0.51927 0.18409 0.18409 0.07000
C 	C 	0.72687 0.37646 0.37646 0.25200
C 	C 	0.57301 0.33159 0.33159 -0.16000
O 	O 	0.79758 0.39710 0.39710 -0.27500
H 	H 	0.51927 0.31592 0.31592 0.07700
