data_crystal

_cell_length_a 4.70940
_cell_length_b 11.28240
_cell_length_c 20.24670
_cell_angle_alpha 90.00000
_cell_angle_beta  90.00000
_cell_angle_gamma 98.82700

_symmetry_space_group_name_	'P 1'
_symmetry_space_group_name_H-M	'P 1'

loop_
_symmetry_equiv_pos_as_xyz
  x,y,z

loop_
_atom_site_label
_atom_site_type_symbol
_atom_site_fract_x
_atom_site_fract_y
_atom_site_fract_z
_atom_site_charge
Cu	Cu	0.32420 0.44490 0.66250 0.91700
Cu	Cu	0.67580 0.05510 0.16250 0.91600
Cu	Cu	0.67580 0.55510 0.33750 0.91800
Cu	Cu	0.32420 0.94490 0.83750 0.91700
H 	H 	0.28000 0.41700 0.90950 0.04400
H 	H 	0.47600 0.50500 0.81130 0.06500
H 	H 	0.53900 0.32000 0.55080 0.03800
H 	H 	0.32300 0.64500 0.55990 0.03900
H 	H 	0.72000 0.08300 0.40950 0.04400
H 	H 	0.52400 0.99500 0.31130 0.06700
H 	H 	0.46100 0.18000 0.05080 0.03800
H 	H 	0.67700 0.85500 0.05990 0.03800
H 	H 	0.72000 0.58300 0.09050 0.04400
H 	H 	0.52400 0.49500 0.18870 0.06500
H 	H 	0.46100 0.68000 0.44920 0.03800
H 	H 	0.67700 0.35500 0.44010 0.03900
H 	H 	0.28000 0.91700 0.59050 0.04400
H 	H 	0.47600 0.00500 0.68870 0.06700
H 	H 	0.53900 0.82000 0.94920 0.03800
H 	H 	0.32300 0.14500 0.94010 0.03800
C 	C 	0.08800 0.27370 0.75300 -0.02700
C 	C 	0.98300 0.22050 0.81090 0.01600
C 	C 	0.24300 0.37300 0.86790 0.03500
C 	C 	0.35400 0.42900 0.81110 0.01100
C 	C 	0.02000 0.22170 0.68410 0.31000
C 	C 	0.78400 0.10520 0.81850 0.33600
C 	C 	0.51600 0.39640 0.53100 0.01800
C 	C 	0.39200 0.58200 0.53560 0.01500
C 	C 	0.91200 0.22630 0.25300 -0.02600
C 	C 	0.01700 0.27950 0.31090 0.01500
C 	C 	0.75700 0.12700 0.36790 0.03600
C 	C 	0.64600 0.07100 0.31110 0.00900
C 	C 	0.98000 0.27830 0.18410 0.31100
C 	C 	0.21600 0.39480 0.31850 0.33600
C 	C 	0.48400 0.10360 0.03100 0.01500
C 	C 	0.60800 0.91800 0.03560 0.01900
C 	C 	0.91200 0.72630 0.24700 -0.02700
C 	C 	0.01700 0.77950 0.18910 0.01600
C 	C 	0.75700 0.62700 0.13210 0.03500
C 	C 	0.64600 0.57100 0.18890 0.01100
C 	C 	0.98000 0.77830 0.31590 0.31000
C 	C 	0.21600 0.89480 0.18150 0.33600
C 	C 	0.48400 0.60360 0.46900 0.01800
C 	C 	0.60800 0.41800 0.46440 0.01500
C 	C 	0.08800 0.77370 0.74700 -0.02600
C 	C 	0.98300 0.72050 0.68910 0.01500
C 	C 	0.24300 0.87300 0.63210 0.03600
C 	C 	0.35400 0.92900 0.68890 0.00900
C 	C 	0.02000 0.72170 0.81590 0.31100
C 	C 	0.78400 0.60520 0.68150 0.33600
C 	C 	0.51600 0.89640 0.96900 0.01500
C 	C 	0.39200 0.08200 0.96440 0.01900
N 	N 	0.26800 0.37740 0.75310 -0.17700
N 	N 	0.08000 0.26800 0.86800 -0.10500
N 	N 	0.42600 0.48070 0.56590 -0.18600
N 	N 	0.73200 0.12260 0.25310 -0.17700
N 	N 	0.92000 0.23200 0.36800 -0.10500
N 	N 	0.57400 0.01930 0.06590 -0.18700
N 	N 	0.73200 0.62260 0.24690 -0.17700
N 	N 	0.92000 0.73200 0.13200 -0.10500
N 	N 	0.57400 0.51930 0.43410 -0.18600
N 	N 	0.26800 0.87740 0.74690 -0.17700
N 	N 	0.08000 0.76800 0.63200 -0.10500
N 	N 	0.42600 0.98070 0.93410 -0.18700
O 	O 	0.14900 0.28160 0.63920 -0.37500
O 	O 	0.87300 0.12360 0.67860 -0.23800
O 	O 	0.52500 0.10800 0.80750 -0.36100
O 	O 	0.88400 0.01360 0.83140 -0.37500
O 	O 	0.85100 0.21840 0.13920 -0.37500
O 	O 	0.12700 0.37640 0.17860 -0.23800
O 	O 	0.47500 0.39200 0.30750 -0.36100
O 	O 	0.11600 0.48640 0.33140 -0.37600
O 	O 	0.85100 0.71840 0.36080 -0.37500
O 	O 	0.12700 0.87640 0.32140 -0.23800
O 	O 	0.47500 0.89200 0.19250 -0.36100
O 	O 	0.11600 0.98640 0.16860 -0.37500
O 	O 	0.14900 0.78160 0.86080 -0.37500
O 	O 	0.87300 0.62360 0.82140 -0.23800
O 	O 	0.52500 0.60800 0.69250 -0.36100
O 	O 	0.88400 0.51360 0.66860 -0.37600
