data_crystal

_cell_length_a 22.09300
_cell_length_b 13.90400
_cell_length_c 14.23000
_cell_angle_alpha 90.00000
_cell_angle_beta  98.43100
_cell_angle_gamma 90.00000

_symmetry_space_group_name_	'P 1'
_symmetry_space_group_name_H-M	'P 1'

loop_
_symmetry_equiv_pos_as_xyz
  x,y,z

loop_
_atom_site_label
_atom_site_type_symbol
_atom_site_fract_x
_atom_site_fract_y
_atom_site_fract_z
_atom_site_charge
Ga	Ga	0.41649 0.59588 0.49217 2.08700
Ga	Ga	0.33742 0.70145 0.08604 2.08200
Ga	Ga	0.25552 0.61060 0.43993 2.08700
Ga	Ga	0.33987 0.39777 0.30601 2.08000
P 	P 	0.44220 0.38044 0.48348 0.68800
P 	P 	0.26344 0.89052 0.05925 0.68900
P 	P 	0.34371 0.61853 0.29360 0.67600
P 	P 	0.32839 0.71385 0.60949 0.67300
F 	F 	0.33218 0.53482 0.46955 -0.90500
O 	O 	0.27130 0.66090 0.56170 -0.66300
O 	O 	0.28570 0.99420 0.06900 -0.57900
O 	O 	0.38581 0.68510 0.56850 -0.62600
O 	O 	0.22416 0.86160 0.13440 -0.70500
O 	O 	0.40329 0.62110 0.36310 -0.62300
O 	O 	0.44238 0.47600 0.53640 -0.66900
O 	O 	0.32838 0.51680 0.25440 -0.69000
O 	O 	0.35423 0.68410 0.21140 -0.62600
O 	O 	0.22850 0.87190 0.95950 -0.66900
O 	O 	0.32175 0.82980 0.07250 -0.61100
O 	O 	0.40443 0.30550 0.52860 -0.65300
O 	O 	0.28954 0.65830 0.33780 -0.62700
O 	O 	0.41419 0.39160 0.37880 -0.68600
O 	O 	0.32024 0.82280 0.59500 -0.54600
O 	O 	0.50646 0.34180 0.48760 -0.55400
O 	O 	0.33800 0.69440 0.71610 -0.63300
Ga	Ga	0.91649 0.09588 0.49217 2.08800
Ga	Ga	0.83742 0.20145 0.08604 2.08300
Ga	Ga	0.75552 0.11060 0.43993 2.08800
Ga	Ga	0.83987 0.89777 0.30601 2.08100
P 	P 	0.94220 0.88044 0.48348 0.68800
P 	P 	0.76344 0.39052 0.05925 0.69400
P 	P 	0.84371 0.11853 0.29360 0.67600
P 	P 	0.82839 0.21385 0.60949 0.67300
F 	F 	0.83218 0.03482 0.46955 -0.90600
O 	O 	0.77130 0.16090 0.56170 -0.66300
O 	O 	0.78570 0.49420 0.06900 -0.57700
O 	O 	0.88581 0.18510 0.56850 -0.62700
O 	O 	0.72416 0.36160 0.13440 -0.70500
O 	O 	0.90329 0.12110 0.36310 -0.62300
O 	O 	0.94238 0.97600 0.53640 -0.67100
O 	O 	0.82838 0.01680 0.25440 -0.69000
O 	O 	0.85423 0.18410 0.21140 -0.62600
O 	O 	0.72850 0.37190 0.95950 -0.67400
O 	O 	0.82175 0.32980 0.07250 -0.61000
O 	O 	0.90443 0.80550 0.52860 -0.65300
O 	O 	0.78954 0.15830 0.33780 -0.62700
O 	O 	0.91419 0.89160 0.37880 -0.68600
O 	O 	0.82024 0.32280 0.59500 -0.54600
O 	O 	0.00646 0.84180 0.48760 -0.55600
O 	O 	0.83800 0.19440 0.71610 -0.63400
Ga	Ga	0.58351 0.59588 0.00783 2.08900
Ga	Ga	0.66258 0.70145 0.41396 2.08300
Ga	Ga	0.74448 0.61060 0.06007 2.08800
Ga	Ga	0.66013 0.39777 0.19399 2.08100
P 	P 	0.55780 0.38044 0.01652 0.69000
P 	P 	0.73656 0.89052 0.44075 0.69200
P 	P 	0.65629 0.61853 0.20640 0.67600
P 	P 	0.67161 0.71385 0.89051 0.67300
F 	F 	0.66782 0.53482 0.03045 -0.90400
O 	O 	0.72870 0.66090 0.93830 -0.66500
O 	O 	0.71430 0.99420 0.43100 -0.57900
O 	O 	0.61419 0.68510 0.93150 -0.62700
O 	O 	0.77584 0.86160 0.36560 -0.70500
O 	O 	0.59671 0.62110 0.13690 -0.62200
O 	O 	0.55762 0.47600 0.96360 -0.67000
O 	O 	0.67162 0.51680 0.24560 -0.68900
O 	O 	0.64577 0.68410 0.28860 -0.62600
O 	O 	0.77150 0.87190 0.54050 -0.67200
O 	O 	0.67825 0.82980 0.42750 -0.61100
O 	O 	0.59557 0.30550 0.97140 -0.65300
O 	O 	0.71046 0.65830 0.16220 -0.62700
O 	O 	0.58581 0.39160 0.12120 -0.68600
O 	O 	0.67976 0.82280 0.90500 -0.54600
O 	O 	0.49354 0.34180 0.01240 -0.55400
O 	O 	0.66200 0.69440 0.78390 -0.63300
Ga	Ga	0.08351 0.09588 0.00783 2.08700
Ga	Ga	0.16258 0.20145 0.41396 2.08300
Ga	Ga	0.24448 0.11060 0.06007 2.08800
Ga	Ga	0.16013 0.89777 0.19399 2.08100
P 	P 	0.05780 0.88044 0.01652 0.67400
P 	P 	0.23656 0.39052 0.44075 0.69100
P 	P 	0.15629 0.11853 0.20640 0.67600
P 	P 	0.17161 0.21385 0.89051 0.67300
F 	F 	0.16782 0.03482 0.03045 -0.90700
O 	O 	0.22870 0.16090 0.93830 -0.66100
O 	O 	0.21430 0.49420 0.43100 -0.57900
O 	O 	0.11419 0.18510 0.93150 -0.62400
O 	O 	0.27584 0.36160 0.36560 -0.70500
O 	O 	0.09671 0.12110 0.13690 -0.62500
O 	O 	0.05762 0.97600 0.96360 -0.66300
O 	O 	0.17162 0.01680 0.24560 -0.69000
O 	O 	0.14577 0.18410 0.28860 -0.62700
O 	O 	0.27150 0.37190 0.54050 -0.67200
O 	O 	0.17825 0.32980 0.42750 -0.61200
O 	O 	0.09557 0.80550 0.97140 -0.64700
O 	O 	0.21046 0.15830 0.16220 -0.62800
O 	O 	0.08581 0.89160 0.12120 -0.68700
O 	O 	0.17976 0.32280 0.90500 -0.54500
O 	O 	0.99354 0.84180 0.01240 -0.54700
O 	O 	0.16200 0.19440 0.78390 -0.63300
Ga	Ga	0.58351 0.40412 0.50783 2.08800
Ga	Ga	0.66258 0.29855 0.91396 2.08300
Ga	Ga	0.74448 0.38940 0.56007 2.08800
Ga	Ga	0.66013 0.60223 0.69399 2.08100
P 	P 	0.55780 0.61956 0.51652 0.68800
P 	P 	0.73656 0.10948 0.94075 0.68900
P 	P 	0.65629 0.38147 0.70640 0.67600
P 	P 	0.67161 0.28615 0.39051 0.67300
F 	F 	0.66782 0.46518 0.53045 -0.90500
O 	O 	0.72870 0.33910 0.43830 -0.66300
O 	O 	0.71430 0.00580 0.93100 -0.57900
O 	O 	0.61419 0.31490 0.43150 -0.62600
O 	O 	0.77584 0.13840 0.86560 -0.70500
O 	O 	0.59671 0.37890 0.63690 -0.62300
O 	O 	0.55762 0.52400 0.46360 -0.66900
O 	O 	0.67162 0.48320 0.74560 -0.69000
O 	O 	0.64577 0.31590 0.78860 -0.62600
O 	O 	0.77150 0.12810 0.04050 -0.66900
O 	O 	0.67825 0.17020 0.92750 -0.61100
O 	O 	0.59557 0.69450 0.47140 -0.65300
O 	O 	0.71046 0.34170 0.66220 -0.62700
O 	O 	0.58581 0.60840 0.62120 -0.68600
O 	O 	0.67976 0.17720 0.40500 -0.54600
O 	O 	0.49354 0.65820 0.51240 -0.55400
O 	O 	0.66200 0.30560 0.28390 -0.63300
Ga	Ga	0.08351 0.90412 0.50783 2.08800
Ga	Ga	0.16258 0.79855 0.91396 2.08300
Ga	Ga	0.24448 0.88940 0.56007 2.08800
Ga	Ga	0.16013 0.10223 0.69399 2.08100
P 	P 	0.05780 0.11956 0.51652 0.68800
P 	P 	0.23656 0.60948 0.94075 0.69400
P 	P 	0.15629 0.88147 0.70640 0.67600
P 	P 	0.17161 0.78615 0.39051 0.67300
F 	F 	0.16782 0.96518 0.53045 -0.90600
O 	O 	0.22870 0.83910 0.43830 -0.66300
O 	O 	0.21430 0.50580 0.93100 -0.57700
O 	O 	0.11419 0.81490 0.43150 -0.62700
O 	O 	0.27584 0.63840 0.86560 -0.70500
O 	O 	0.09671 0.87890 0.63690 -0.62300
O 	O 	0.05762 0.02400 0.46360 -0.67100
O 	O 	0.17162 0.98320 0.74560 -0.69000
O 	O 	0.14577 0.81590 0.78860 -0.62600
O 	O 	0.27150 0.62810 0.04050 -0.67400
O 	O 	0.17825 0.67020 0.92750 -0.61000
O 	O 	0.09557 0.19450 0.47140 -0.65300
O 	O 	0.21046 0.84170 0.66220 -0.62700
O 	O 	0.08581 0.10840 0.62120 -0.68600
O 	O 	0.17976 0.67720 0.40500 -0.54600
O 	O 	0.99354 0.15820 0.51240 -0.55600
O 	O 	0.16200 0.80560 0.28390 -0.63400
Ga	Ga	0.41649 0.40412 0.99217 2.08900
Ga	Ga	0.33742 0.29855 0.58604 2.08300
Ga	Ga	0.25552 0.38940 0.93993 2.08800
Ga	Ga	0.33987 0.60223 0.80601 2.08100
P 	P 	0.44220 0.61956 0.98348 0.69000
P 	P 	0.26344 0.10948 0.55925 0.69200
P 	P 	0.34371 0.38147 0.79360 0.67600
P 	P 	0.32839 0.28615 0.10949 0.67300
F 	F 	0.33218 0.46518 0.96955 -0.90400
O 	O 	0.27130 0.33910 0.06170 -0.66500
O 	O 	0.28570 0.00580 0.56900 -0.57900
O 	O 	0.38581 0.31490 0.06850 -0.62700
O 	O 	0.22416 0.13840 0.63440 -0.70500
O 	O 	0.40329 0.37890 0.86310 -0.62200
O 	O 	0.44238 0.52400 0.03640 -0.67000
O 	O 	0.32838 0.48320 0.75440 -0.68900
O 	O 	0.35423 0.31590 0.71140 -0.62600
O 	O 	0.22850 0.12810 0.45950 -0.67200
O 	O 	0.32175 0.17020 0.57250 -0.61100
O 	O 	0.40443 0.69450 0.02860 -0.65300
O 	O 	0.28954 0.34170 0.83780 -0.62700
O 	O 	0.41419 0.60840 0.87880 -0.68600
O 	O 	0.32024 0.17720 0.09500 -0.54600
O 	O 	0.50646 0.65820 0.98760 -0.55400
O 	O 	0.33800 0.30560 0.21610 -0.63300
Ga	Ga	0.91649 0.90412 0.99217 2.08700
Ga	Ga	0.83742 0.79855 0.58604 2.08300
Ga	Ga	0.75552 0.88940 0.93993 2.08800
Ga	Ga	0.83987 0.10223 0.80601 2.08100
P 	P 	0.94220 0.11956 0.98348 0.67400
P 	P 	0.76344 0.60948 0.55925 0.69100
P 	P 	0.84371 0.88147 0.79360 0.67600
P 	P 	0.82839 0.78615 0.10949 0.67300
F 	F 	0.83218 0.96518 0.96955 -0.90700
O 	O 	0.77130 0.83910 0.06170 -0.66100
O 	O 	0.78570 0.50580 0.56900 -0.57900
O 	O 	0.88581 0.81490 0.06850 -0.62400
O 	O 	0.72416 0.63840 0.63440 -0.70500
O 	O 	0.90329 0.87890 0.86310 -0.62500
O 	O 	0.94238 0.02400 0.03640 -0.66300
O 	O 	0.82838 0.98320 0.75440 -0.69000
O 	O 	0.85423 0.81590 0.71140 -0.62700
O 	O 	0.72850 0.62810 0.45950 -0.67200
O 	O 	0.82175 0.67020 0.57250 -0.61200
O 	O 	0.90443 0.19450 0.02860 -0.64700
O 	O 	0.78954 0.84170 0.83780 -0.62800
O 	O 	0.91419 0.10840 0.87880 -0.68700
O 	O 	0.82024 0.67720 0.09500 -0.54500
O 	O 	0.00646 0.15820 0.98760 -0.54700
O 	O 	0.83800 0.80560 0.21610 -0.63300
