data_crystal

_cell_length_a 20.14010
_cell_length_b 20.14010
_cell_length_c 20.14010
_cell_angle_alpha 90.00000
_cell_angle_beta  90.00000
_cell_angle_gamma 90.00000

_symmetry_space_group_name_	'P 1'
_symmetry_space_group_name_H-M	'P 1'

loop_
_symmetry_equiv_pos_as_xyz
  x,y,z

loop_
_atom_site_label
_atom_site_type_symbol
_atom_site_fract_x
_atom_site_fract_y
_atom_site_fract_z
_atom_site_charge
O 	O 	0.95380 0.53860 0.09420 -0.54300
O 	O 	0.87100 0.47800 0.12460 -0.50500
C 	C 	0.90510 0.52690 0.12970 0.51500
C 	C 	0.85570 0.55910 0.18300 -0.14300
C 	C 	0.88210 0.61640 0.21110 0.08800
H 	H 	0.92120 0.63440 0.19440 -0.04500
C 	C 	0.85010 0.64670 0.26420 -0.03000
C 	C 	0.79160 0.61980 0.28920 0.01000
C 	C 	0.76520 0.56250 0.26100 -0.13500
H 	H 	0.72610 0.54450 0.27770 0.09700
C 	C 	0.79720 0.53220 0.20790 0.14500
H 	H 	0.77950 0.49400 0.18910 0.00100
C 	C 	0.89630 0.58270 0.18010 -0.18900
C 	C 	0.93980 0.63600 0.18440 0.16200
H 	H 	0.97460 0.63990 0.15420 -0.01700
C 	C 	0.93140 0.68360 0.23360 -0.19400
H 	H 	0.96050 0.71930 0.23640 0.04900
C 	C 	0.87940 0.67790 0.27860 0.17900
C 	C 	0.83580 0.62460 0.27440 -0.16400
C 	C 	0.84420 0.57690 0.22510 0.21100
H 	H 	0.81510 0.54120 0.22230 -0.09000
O 	O 	0.54620 0.46140 0.59420 -0.54400
O 	O 	0.62900 0.52200 0.62460 -0.50700
C 	C 	0.59490 0.47310 0.62970 0.51500
C 	C 	0.64430 0.44090 0.68300 -0.13900
C 	C 	0.61790 0.38360 0.71110 0.09400
H 	H 	0.57880 0.36560 0.69440 -0.04400
C 	C 	0.64990 0.35330 0.76420 -0.03300
C 	C 	0.70840 0.38020 0.78920 0.01900
C 	C 	0.73480 0.43750 0.76100 -0.14000
H 	H 	0.77390 0.45550 0.77770 0.09600
C 	C 	0.70280 0.46780 0.70790 0.14500
H 	H 	0.72050 0.50600 0.68910 0.00100
C 	C 	0.60370 0.41730 0.68010 -0.19800
C 	C 	0.56020 0.36400 0.68440 0.15800
H 	H 	0.52540 0.36010 0.65420 -0.01700
C 	C 	0.56860 0.31640 0.73360 -0.20000
H 	H 	0.53950 0.28070 0.73640 0.04900
C 	C 	0.62060 0.32210 0.77860 0.18700
C 	C 	0.66420 0.37540 0.77440 -0.17200
C 	C 	0.65580 0.42310 0.72510 0.20900
H 	H 	0.68490 0.45880 0.72230 -0.09000
O 	O 	0.04620 0.03860 0.40580 -0.54400
O 	O 	0.12900 0.97800 0.37540 -0.50500
C 	C 	0.09490 0.02690 0.37030 0.51400
C 	C 	0.14430 0.05910 0.31700 -0.15600
C 	C 	0.11790 0.11640 0.28890 0.07900
H 	H 	0.07880 0.13440 0.30560 -0.04700
C 	C 	0.14990 0.14670 0.23580 -0.03600
C 	C 	0.20840 0.11980 0.21080 0.01400
C 	C 	0.23480 0.06250 0.23900 -0.13800
H 	H 	0.27390 0.04450 0.22230 0.09600
C 	C 	0.20280 0.03220 0.29210 0.13700
H 	H 	0.22050 0.99400 0.31090 0.00400
C 	C 	0.10370 0.08270 0.31990 -0.17900
C 	C 	0.06020 0.13600 0.31560 0.16400
H 	H 	0.02540 0.13990 0.34580 -0.01900
C 	C 	0.06860 0.18360 0.26640 -0.19600
H 	H 	0.03950 0.21930 0.26360 0.04800
C 	C 	0.12060 0.17790 0.22140 0.18300
C 	C 	0.16420 0.12460 0.22560 -0.16400
C 	C 	0.15580 0.07690 0.27490 0.22200
H 	H 	0.18490 0.04120 0.27770 -0.08600
O 	O 	0.45380 0.96140 0.90580 -0.54300
O 	O 	0.37100 0.02200 0.87540 -0.50300
C 	C 	0.40510 0.97310 0.87030 0.51200
C 	C 	0.35570 0.94090 0.81700 -0.18500
C 	C 	0.38210 0.88360 0.78890 0.05400
H 	H 	0.42120 0.86560 0.80560 -0.05300
C 	C 	0.35010 0.85330 0.73580 -0.04400
C 	C 	0.29160 0.88020 0.71080 0.01200
C 	C 	0.26520 0.93750 0.73900 -0.13800
H 	H 	0.22610 0.95550 0.72230 0.09700
C 	C 	0.29720 0.96780 0.79210 0.12300
H 	H 	0.27950 0.00600 0.81090 0.00900
C 	C 	0.39630 0.91730 0.81990 -0.14800
C 	C 	0.43980 0.86400 0.81560 0.17400
H 	H 	0.47460 0.86010 0.84580 -0.02400
C 	C 	0.43140 0.81640 0.76640 -0.19500
H 	H 	0.46050 0.78070 0.76360 0.04800
C 	C 	0.37940 0.82210 0.72140 0.18700
C 	C 	0.33580 0.87540 0.72560 -0.15600
C 	C 	0.34420 0.92310 0.77490 0.24500
H 	H 	0.31510 0.95880 0.77770 -0.07800
O 	O 	0.09420 0.95380 0.53860 -0.54400
O 	O 	0.12460 0.87100 0.47800 -0.50600
C 	C 	0.12970 0.90510 0.52690 0.51400
C 	C 	0.18300 0.85570 0.55910 -0.14400
C 	C 	0.21110 0.88210 0.61640 0.08700
H 	H 	0.19440 0.92120 0.63440 -0.04600
C 	C 	0.26420 0.85010 0.64670 -0.03100
C 	C 	0.28920 0.79160 0.61980 0.00900
C 	C 	0.26100 0.76520 0.56250 -0.13600
H 	H 	0.27770 0.72610 0.54450 0.09600
C 	C 	0.20790 0.79720 0.53220 0.14400
H 	H 	0.18910 0.77950 0.49400 -0.00000
C 	C 	0.18010 0.89630 0.58270 -0.19000
C 	C 	0.18440 0.93980 0.63600 0.16100
H 	H 	0.15420 0.97460 0.63990 -0.01800
C 	C 	0.23360 0.93140 0.68360 -0.19500
H 	H 	0.23640 0.96050 0.71930 0.04800
C 	C 	0.27860 0.87940 0.67790 0.17800
C 	C 	0.27440 0.83580 0.62460 -0.16400
C 	C 	0.22510 0.84420 0.57690 0.21100
H 	H 	0.22230 0.81510 0.54120 -0.09000
O 	O 	0.59420 0.54620 0.46140 -0.54400
O 	O 	0.62460 0.62900 0.52200 -0.50700
C 	C 	0.62970 0.59490 0.47310 0.51500
C 	C 	0.68300 0.64430 0.44090 -0.13900
C 	C 	0.71110 0.61790 0.38360 0.09400
H 	H 	0.69440 0.57880 0.36560 -0.04400
C 	C 	0.76420 0.64990 0.35330 -0.03300
C 	C 	0.78920 0.70840 0.38020 0.01900
C 	C 	0.76100 0.73480 0.43750 -0.14000
H 	H 	0.77770 0.77390 0.45550 0.09600
C 	C 	0.70790 0.70280 0.46780 0.14500
H 	H 	0.68910 0.72050 0.50600 0.00100
C 	C 	0.68010 0.60370 0.41730 -0.19800
C 	C 	0.68440 0.56020 0.36400 0.15800
H 	H 	0.65420 0.52540 0.36010 -0.01700
C 	C 	0.73360 0.56860 0.31640 -0.20000
H 	H 	0.73640 0.53950 0.28070 0.04900
C 	C 	0.77860 0.62060 0.32210 0.18700
C 	C 	0.77440 0.66420 0.37540 -0.17200
C 	C 	0.72510 0.65580 0.42310 0.20900
H 	H 	0.72230 0.68490 0.45880 -0.09000
O 	O 	0.40580 0.04620 0.03860 -0.54400
O 	O 	0.37540 0.12900 0.97800 -0.50500
C 	C 	0.37030 0.09490 0.02690 0.51400
C 	C 	0.31700 0.14430 0.05910 -0.15600
C 	C 	0.28890 0.11790 0.11640 0.07900
H 	H 	0.30560 0.07880 0.13440 -0.04700
C 	C 	0.23580 0.14990 0.14670 -0.03600
C 	C 	0.21080 0.20840 0.11980 0.01400
C 	C 	0.23900 0.23480 0.06250 -0.13800
H 	H 	0.22230 0.27390 0.04450 0.09600
C 	C 	0.29210 0.20280 0.03220 0.13700
H 	H 	0.31090 0.22050 0.99400 0.00400
C 	C 	0.31990 0.10370 0.08270 -0.17900
C 	C 	0.31560 0.06020 0.13600 0.16400
H 	H 	0.34580 0.02540 0.13990 -0.01900
C 	C 	0.26640 0.06860 0.18360 -0.19600
H 	H 	0.26360 0.03950 0.21930 0.04800
C 	C 	0.22140 0.12060 0.17790 0.18300
C 	C 	0.22560 0.16420 0.12460 -0.16400
C 	C 	0.27490 0.15580 0.07690 0.22200
H 	H 	0.27770 0.18490 0.04120 -0.08600
O 	O 	0.90580 0.45380 0.96140 -0.54300
O 	O 	0.87540 0.37100 0.02200 -0.50300
C 	C 	0.87030 0.40510 0.97310 0.51200
C 	C 	0.81700 0.35570 0.94090 -0.18500
C 	C 	0.78890 0.38210 0.88360 0.05400
H 	H 	0.80560 0.42120 0.86560 -0.05300
C 	C 	0.73580 0.35010 0.85330 -0.04400
C 	C 	0.71080 0.29160 0.88020 0.01200
C 	C 	0.73900 0.26520 0.93750 -0.13800
H 	H 	0.72230 0.22610 0.95550 0.09700
C 	C 	0.79210 0.29720 0.96780 0.12300
H 	H 	0.81090 0.27950 0.00600 0.00900
C 	C 	0.81990 0.39630 0.91730 -0.14800
C 	C 	0.81560 0.43980 0.86400 0.17400
H 	H 	0.84580 0.47460 0.86010 -0.02400
C 	C 	0.76640 0.43140 0.81640 -0.19500
H 	H 	0.76360 0.46050 0.78070 0.04800
C 	C 	0.72140 0.37940 0.82210 0.18700
C 	C 	0.72560 0.33580 0.87540 -0.15600
C 	C 	0.77490 0.34420 0.92310 0.24500
H 	H 	0.77770 0.31510 0.95880 -0.07800
O 	O 	0.53860 0.09420 0.95380 -0.54400
O 	O 	0.47800 0.12460 0.87100 -0.50600
C 	C 	0.52690 0.12970 0.90510 0.51400
C 	C 	0.55910 0.18300 0.85570 -0.14400
C 	C 	0.61640 0.21110 0.88210 0.08700
H 	H 	0.63440 0.19440 0.92120 -0.04600
C 	C 	0.64670 0.26420 0.85010 -0.03100
C 	C 	0.61980 0.28920 0.79160 0.00900
C 	C 	0.56250 0.26100 0.76520 -0.13600
H 	H 	0.54450 0.27770 0.72610 0.09600
C 	C 	0.53220 0.20790 0.79720 0.14400
H 	H 	0.49400 0.18910 0.77950 -0.00000
C 	C 	0.58270 0.18010 0.89630 -0.19000
C 	C 	0.63600 0.18440 0.93980 0.16100
H 	H 	0.63990 0.15420 0.97460 -0.01800
C 	C 	0.68360 0.23360 0.93140 -0.19500
H 	H 	0.71930 0.23640 0.96050 0.04800
C 	C 	0.67790 0.27860 0.87940 0.17800
C 	C 	0.62460 0.27440 0.83580 -0.16400
C 	C 	0.57690 0.22510 0.84420 0.21100
H 	H 	0.54120 0.22230 0.81510 -0.09000
O 	O 	0.46140 0.59420 0.54620 -0.54400
O 	O 	0.52200 0.62460 0.62900 -0.50700
C 	C 	0.47310 0.62970 0.59490 0.51500
C 	C 	0.44090 0.68300 0.64430 -0.13900
C 	C 	0.38360 0.71110 0.61790 0.09400
H 	H 	0.36560 0.69440 0.57880 -0.04400
C 	C 	0.35330 0.76420 0.64990 -0.03300
C 	C 	0.38020 0.78920 0.70840 0.01900
C 	C 	0.43750 0.76100 0.73480 -0.14000
H 	H 	0.45550 0.77770 0.77390 0.09600
C 	C 	0.46780 0.70790 0.70280 0.14500
H 	H 	0.50600 0.68910 0.72050 0.00100
C 	C 	0.41730 0.68010 0.60370 -0.19800
C 	C 	0.36400 0.68440 0.56020 0.15800
H 	H 	0.36010 0.65420 0.52540 -0.01700
C 	C 	0.31640 0.73360 0.56860 -0.20000
H 	H 	0.28070 0.73640 0.53950 0.04900
C 	C 	0.32210 0.77860 0.62060 0.18700
C 	C 	0.37540 0.77440 0.66420 -0.17200
C 	C 	0.42310 0.72510 0.65580 0.20900
H 	H 	0.45880 0.72230 0.68490 -0.09000
O 	O 	0.03860 0.40580 0.04620 -0.54400
O 	O 	0.97800 0.37540 0.12900 -0.50500
C 	C 	0.02690 0.37030 0.09490 0.51400
C 	C 	0.05910 0.31700 0.14430 -0.15600
C 	C 	0.11640 0.28890 0.11790 0.07900
H 	H 	0.13440 0.30560 0.07880 -0.04700
C 	C 	0.14670 0.23580 0.14990 -0.03600
C 	C 	0.11980 0.21080 0.20840 0.01400
C 	C 	0.06250 0.23900 0.23480 -0.13800
H 	H 	0.04450 0.22230 0.27390 0.09600
C 	C 	0.03220 0.29210 0.20280 0.13700
H 	H 	0.99400 0.31090 0.22050 0.00400
C 	C 	0.08270 0.31990 0.10370 -0.17900
C 	C 	0.13600 0.31560 0.06020 0.16400
H 	H 	0.13990 0.34580 0.02540 -0.01900
C 	C 	0.18360 0.26640 0.06860 -0.19600
H 	H 	0.21930 0.26360 0.03950 0.04800
C 	C 	0.17790 0.22140 0.12060 0.18300
C 	C 	0.12460 0.22560 0.16420 -0.16400
C 	C 	0.07690 0.27490 0.15580 0.22200
H 	H 	0.04120 0.27770 0.18490 -0.08600
O 	O 	0.96140 0.90580 0.45380 -0.54300
O 	O 	0.02200 0.87540 0.37100 -0.50300
C 	C 	0.97310 0.87030 0.40510 0.51200
C 	C 	0.94090 0.81700 0.35570 -0.18500
C 	C 	0.88360 0.78890 0.38210 0.05400
H 	H 	0.86560 0.80560 0.42120 -0.05300
C 	C 	0.85330 0.73580 0.35010 -0.04400
C 	C 	0.88020 0.71080 0.29160 0.01200
C 	C 	0.93750 0.73900 0.26520 -0.13800
H 	H 	0.95550 0.72230 0.22610 0.09700
C 	C 	0.96780 0.79210 0.29720 0.12300
H 	H 	0.00600 0.81090 0.27950 0.00900
C 	C 	0.91730 0.81990 0.39630 -0.14800
C 	C 	0.86400 0.81560 0.43980 0.17400
H 	H 	0.86010 0.84580 0.47460 -0.02400
C 	C 	0.81640 0.76640 0.43140 -0.19500
H 	H 	0.78070 0.76360 0.46050 0.04800
C 	C 	0.82210 0.72140 0.37940 0.18700
C 	C 	0.87540 0.72560 0.33580 -0.15600
C 	C 	0.92310 0.77490 0.34420 0.24500
H 	H 	0.95880 0.77770 0.31510 -0.07800
O 	O 	0.78860 0.70380 0.65580 -0.54400
O 	O 	0.72800 0.62100 0.62540 -0.50300
C 	C 	0.77690 0.65510 0.62030 0.51100
C 	C 	0.80910 0.60570 0.56700 -0.18300
C 	C 	0.86640 0.63210 0.53890 0.06000
H 	H 	0.88440 0.67120 0.55560 -0.05100
C 	C 	0.89670 0.60010 0.48580 -0.04900
C 	C 	0.86980 0.54160 0.46080 0.02300
C 	C 	0.81250 0.51520 0.48900 -0.14300
H 	H 	0.79450 0.47610 0.47230 0.09700
C 	C 	0.78220 0.54720 0.54210 0.12300
H 	H 	0.74400 0.52950 0.56090 0.00900
C 	C 	0.83270 0.64630 0.56990 -0.15300
C 	C 	0.88600 0.68980 0.56560 0.17100
H 	H 	0.88990 0.72460 0.59580 -0.02300
C 	C 	0.93360 0.68140 0.51640 -0.19900
H 	H 	0.96930 0.71050 0.51360 0.04800
C 	C 	0.92790 0.62940 0.47140 0.19600
C 	C 	0.87460 0.58580 0.47560 -0.16200
C 	C 	0.82690 0.59420 0.52490 0.24400
H 	H 	0.79120 0.56510 0.52770 -0.07800
O 	O 	0.71140 0.29620 0.15580 -0.54400
O 	O 	0.77200 0.37900 0.12540 -0.51100
C 	C 	0.72310 0.34490 0.12030 0.52000
C 	C 	0.69090 0.39430 0.06700 -0.09100
C 	C 	0.63360 0.36790 0.03890 0.13100
H 	H 	0.61560 0.32880 0.05560 -0.03500
C 	C 	0.60330 0.39990 0.98580 -0.01700
C 	C 	0.63020 0.45840 0.96080 0.01800
C 	C 	0.68750 0.48480 0.98900 -0.13700
H 	H 	0.70550 0.52390 0.97230 0.09600
C 	C 	0.71780 0.45280 0.04210 0.16900
H 	H 	0.75600 0.47050 0.06090 -0.01000
C 	C 	0.66730 0.35370 0.06990 -0.24800
C 	C 	0.61400 0.31020 0.06560 0.14200
H 	H 	0.61010 0.27540 0.09580 -0.01000
C 	C 	0.56640 0.31860 0.01640 -0.20200
H 	H 	0.53070 0.28950 0.01360 0.04900
C 	C 	0.57210 0.37060 0.97140 0.17800
C 	C 	0.62540 0.41420 0.97560 -0.18200
C 	C 	0.67310 0.40580 0.02490 0.17000
H 	H 	0.70880 0.43490 0.02770 -0.10400
O 	O 	0.28860 0.79620 0.34420 -0.54400
O 	O 	0.22800 0.87900 0.37460 -0.50100
C 	C 	0.27690 0.84490 0.37970 0.50800
C 	C 	0.30910 0.89430 0.43300 -0.19100
C 	C 	0.36640 0.86790 0.46110 0.04600
H 	H 	0.38440 0.82880 0.44440 -0.05500
C 	C 	0.39670 0.89990 0.51420 -0.04200
C 	C 	0.36980 0.95840 0.53920 0.00100
C 	C 	0.31250 0.98480 0.51100 -0.13300
H 	H 	0.29450 0.02390 0.52770 0.09600
C 	C 	0.28220 0.95280 0.45790 0.12300
H 	H 	0.24400 0.97050 0.43910 0.00900
C 	C 	0.33270 0.85370 0.43010 -0.13800
C 	C 	0.38600 0.81020 0.43440 0.17800
H 	H 	0.38990 0.77540 0.40420 -0.02600
C 	C 	0.43360 0.81860 0.48360 -0.19000
H 	H 	0.46930 0.78950 0.48640 0.04700
C 	C 	0.42790 0.87060 0.52860 0.17600
C 	C 	0.37460 0.91420 0.52440 -0.14600
C 	C 	0.32690 0.90580 0.47510 0.24800
H 	H 	0.29120 0.93490 0.47230 -0.07900
O 	O 	0.21140 0.20380 0.84420 -0.54400
O 	O 	0.27200 0.12100 0.87460 -0.50500
C 	C 	0.22310 0.15510 0.87970 0.51300
C 	C 	0.19090 0.10570 0.93300 -0.15100
C 	C 	0.13360 0.13210 0.96110 0.08100
H 	H 	0.11560 0.17120 0.94440 -0.04600
C 	C 	0.10330 0.10010 0.01420 -0.03400
C 	C 	0.13020 0.04160 0.03920 0.01400
C 	C 	0.18750 0.01520 0.01100 -0.13500
H 	H 	0.20550 0.97610 0.02770 0.09500
C 	C 	0.21780 0.04720 0.95790 0.14100
H 	H 	0.25600 0.02950 0.93910 0.00200
C 	C 	0.16730 0.14630 0.93010 -0.18300
C 	C 	0.11400 0.18980 0.93440 0.16300
H 	H 	0.11010 0.22460 0.90420 -0.01900
C 	C 	0.06640 0.18140 0.98360 -0.19900
H 	H 	0.03070 0.21050 0.98640 0.04800
C 	C 	0.07210 0.12940 0.02860 0.18300
C 	C 	0.12540 0.08580 0.02440 -0.16400
C 	C 	0.17310 0.09420 0.97510 0.21800
H 	H 	0.20880 0.06510 0.97230 -0.08900
O 	O 	0.20380 0.84420 0.21140 -0.54400
O 	O 	0.12100 0.87460 0.27200 -0.50500
C 	C 	0.15510 0.87970 0.22310 0.51300
C 	C 	0.10570 0.93300 0.19090 -0.15100
C 	C 	0.13210 0.96110 0.13360 0.08100
H 	H 	0.17120 0.94440 0.11560 -0.04600
C 	C 	0.10010 0.01420 0.10330 -0.03400
C 	C 	0.04160 0.03920 0.13020 0.01400
C 	C 	0.01520 0.01100 0.18750 -0.13500
H 	H 	0.97610 0.02770 0.20550 0.09500
C 	C 	0.04720 0.95790 0.21780 0.14100
H 	H 	0.02950 0.93910 0.25600 0.00200
C 	C 	0.14630 0.93010 0.16730 -0.18300
C 	C 	0.18980 0.93440 0.11400 0.16300
H 	H 	0.22460 0.90420 0.11010 -0.01900
C 	C 	0.18140 0.98360 0.06640 -0.19900
H 	H 	0.21050 0.98640 0.03070 0.04800
C 	C 	0.12940 0.02860 0.07210 0.18300
C 	C 	0.08580 0.02440 0.12540 -0.16400
C 	C 	0.09420 0.97510 0.17310 0.21800
H 	H 	0.06510 0.97230 0.20880 -0.08900
O 	O 	0.79620 0.34420 0.28860 -0.54400
O 	O 	0.87900 0.37460 0.22800 -0.50100
C 	C 	0.84490 0.37970 0.27690 0.50800
C 	C 	0.89430 0.43300 0.30910 -0.19100
C 	C 	0.86790 0.46110 0.36640 0.04600
H 	H 	0.82880 0.44440 0.38440 -0.05500
C 	C 	0.89990 0.51420 0.39670 -0.04200
C 	C 	0.95840 0.53920 0.36980 0.00100
C 	C 	0.98480 0.51100 0.31250 -0.13300
H 	H 	0.02390 0.52770 0.29450 0.09600
C 	C 	0.95280 0.45790 0.28220 0.12300
H 	H 	0.97050 0.43910 0.24400 0.00900
C 	C 	0.85370 0.43010 0.33270 -0.13800
C 	C 	0.81020 0.43440 0.38600 0.17800
H 	H 	0.77540 0.40420 0.38990 -0.02600
C 	C 	0.81860 0.48360 0.43360 -0.19000
H 	H 	0.78950 0.48640 0.46930 0.04700
C 	C 	0.87060 0.52860 0.42790 0.17600
C 	C 	0.91420 0.52440 0.37460 -0.14600
C 	C 	0.90580 0.47510 0.32690 0.24800
H 	H 	0.93490 0.47230 0.29120 -0.07900
O 	O 	0.29620 0.15580 0.71140 -0.54400
O 	O 	0.37900 0.12540 0.77200 -0.51100
C 	C 	0.34490 0.12030 0.72310 0.52000
C 	C 	0.39430 0.06700 0.69090 -0.09100
C 	C 	0.36790 0.03890 0.63360 0.13100
H 	H 	0.32880 0.05560 0.61560 -0.03500
C 	C 	0.39990 0.98580 0.60330 -0.01700
C 	C 	0.45840 0.96080 0.63020 0.01800
C 	C 	0.48480 0.98900 0.68750 -0.13700
H 	H 	0.52390 0.97230 0.70550 0.09600
C 	C 	0.45280 0.04210 0.71780 0.16900
H 	H 	0.47050 0.06090 0.75600 -0.01000
C 	C 	0.35370 0.06990 0.66730 -0.24800
C 	C 	0.31020 0.06560 0.61400 0.14200
H 	H 	0.27540 0.09580 0.61010 -0.01000
C 	C 	0.31860 0.01640 0.56640 -0.20200
H 	H 	0.28950 0.01360 0.53070 0.04900
C 	C 	0.37060 0.97140 0.57210 0.17800
C 	C 	0.41420 0.97560 0.62540 -0.18200
C 	C 	0.40580 0.02490 0.67310 0.17000
H 	H 	0.43490 0.02770 0.70880 -0.10400
O 	O 	0.70380 0.65580 0.78860 -0.54400
O 	O 	0.62100 0.62540 0.72800 -0.50300
C 	C 	0.65510 0.62030 0.77690 0.51100
C 	C 	0.60570 0.56700 0.80910 -0.18300
C 	C 	0.63210 0.53890 0.86640 0.06000
H 	H 	0.67120 0.55560 0.88440 -0.05100
C 	C 	0.60010 0.48580 0.89670 -0.04900
C 	C 	0.54160 0.46080 0.86980 0.02300
C 	C 	0.51520 0.48900 0.81250 -0.14300
H 	H 	0.47610 0.47230 0.79450 0.09700
C 	C 	0.54720 0.54210 0.78220 0.12300
H 	H 	0.52950 0.56090 0.74400 0.00900
C 	C 	0.64630 0.56990 0.83270 -0.15300
C 	C 	0.68980 0.56560 0.88600 0.17100
H 	H 	0.72460 0.59580 0.88990 -0.02300
C 	C 	0.68140 0.51640 0.93360 -0.19900
H 	H 	0.71050 0.51360 0.96930 0.04800
C 	C 	0.62940 0.47140 0.92790 0.19600
C 	C 	0.58580 0.47560 0.87460 -0.16200
C 	C 	0.59420 0.52490 0.82690 0.24400
H 	H 	0.56510 0.52770 0.79120 -0.07800
O 	O 	0.34420 0.28860 0.79620 -0.54400
O 	O 	0.37460 0.22800 0.87900 -0.50100
C 	C 	0.37970 0.27690 0.84490 0.50800
C 	C 	0.43300 0.30910 0.89430 -0.19100
C 	C 	0.46110 0.36640 0.86790 0.04600
H 	H 	0.44440 0.38440 0.82880 -0.05500
C 	C 	0.51420 0.39670 0.89990 -0.04200
C 	C 	0.53920 0.36980 0.95840 0.00100
C 	C 	0.51100 0.31250 0.98480 -0.13300
H 	H 	0.52770 0.29450 0.02390 0.09600
C 	C 	0.45790 0.28220 0.95280 0.12300
H 	H 	0.43910 0.24400 0.97050 0.00900
C 	C 	0.43010 0.33270 0.85370 -0.13800
C 	C 	0.43440 0.38600 0.81020 0.17800
H 	H 	0.40420 0.38990 0.77540 -0.02600
C 	C 	0.48360 0.43360 0.81860 -0.19000
H 	H 	0.48640 0.46930 0.78950 0.04700
C 	C 	0.52860 0.42790 0.87060 0.17600
C 	C 	0.52440 0.37460 0.91420 -0.14600
C 	C 	0.47510 0.32690 0.90580 0.24800
H 	H 	0.47230 0.29120 0.93490 -0.07900
O 	O 	0.84420 0.21140 0.20380 -0.54400
O 	O 	0.87460 0.27200 0.12100 -0.50500
C 	C 	0.87970 0.22310 0.15510 0.51300
C 	C 	0.93300 0.19090 0.10570 -0.15100
C 	C 	0.96110 0.13360 0.13210 0.08100
H 	H 	0.94440 0.11560 0.17120 -0.04600
C 	C 	0.01420 0.10330 0.10010 -0.03400
C 	C 	0.03920 0.13020 0.04160 0.01400
C 	C 	0.01100 0.18750 0.01520 -0.13500
H 	H 	0.02770 0.20550 0.97610 0.09500
C 	C 	0.95790 0.21780 0.04720 0.14100
H 	H 	0.93910 0.25600 0.02950 0.00200
C 	C 	0.93010 0.16730 0.14630 -0.18300
C 	C 	0.93440 0.11400 0.18980 0.16300
H 	H 	0.90420 0.11010 0.22460 -0.01900
C 	C 	0.98360 0.06640 0.18140 -0.19900
H 	H 	0.98640 0.03070 0.21050 0.04800
C 	C 	0.02860 0.07210 0.12940 0.18300
C 	C 	0.02440 0.12540 0.08580 -0.16400
C 	C 	0.97510 0.17310 0.09420 0.21800
H 	H 	0.97230 0.20880 0.06510 -0.08900
O 	O 	0.65580 0.78860 0.70380 -0.54400
O 	O 	0.62540 0.72800 0.62100 -0.50300
C 	C 	0.62030 0.77690 0.65510 0.51100
C 	C 	0.56700 0.80910 0.60570 -0.18300
C 	C 	0.53890 0.86640 0.63210 0.06000
H 	H 	0.55560 0.88440 0.67120 -0.05100
C 	C 	0.48580 0.89670 0.60010 -0.04900
C 	C 	0.46080 0.86980 0.54160 0.02300
C 	C 	0.48900 0.81250 0.51520 -0.14300
H 	H 	0.47230 0.79450 0.47610 0.09700
C 	C 	0.54210 0.78220 0.54720 0.12300
H 	H 	0.56090 0.74400 0.52950 0.00900
C 	C 	0.56990 0.83270 0.64630 -0.15300
C 	C 	0.56560 0.88600 0.68980 0.17100
H 	H 	0.59580 0.88990 0.72460 -0.02300
C 	C 	0.51640 0.93360 0.68140 -0.19900
H 	H 	0.51360 0.96930 0.71050 0.04800
C 	C 	0.47140 0.92790 0.62940 0.19600
C 	C 	0.47560 0.87460 0.58580 -0.16200
C 	C 	0.52490 0.82690 0.59420 0.24400
H 	H 	0.52770 0.79120 0.56510 -0.07800
O 	O 	0.15580 0.71140 0.29620 -0.54400
O 	O 	0.12540 0.77200 0.37900 -0.51100
C 	C 	0.12030 0.72310 0.34490 0.52000
C 	C 	0.06700 0.69090 0.39430 -0.09100
C 	C 	0.03890 0.63360 0.36790 0.13100
H 	H 	0.05560 0.61560 0.32880 -0.03500
C 	C 	0.98580 0.60330 0.39990 -0.01700
C 	C 	0.96080 0.63020 0.45840 0.01800
C 	C 	0.98900 0.68750 0.48480 -0.13700
H 	H 	0.97230 0.70550 0.52390 0.09600
C 	C 	0.04210 0.71780 0.45280 0.16900
H 	H 	0.06090 0.75600 0.47050 -0.01000
C 	C 	0.06990 0.66730 0.35370 -0.24800
C 	C 	0.06560 0.61400 0.31020 0.14200
H 	H 	0.09580 0.61010 0.27540 -0.01000
C 	C 	0.01640 0.56640 0.31860 -0.20200
H 	H 	0.01360 0.53070 0.28950 0.04900
C 	C 	0.97140 0.57210 0.37060 0.17800
C 	C 	0.97560 0.62540 0.41420 -0.18200
C 	C 	0.02490 0.67310 0.40580 0.17000
H 	H 	0.02770 0.70880 0.43490 -0.10400
Zn	Zn	0.87500 0.37500 0.12500 1.25500
Zn	Zn	0.62500 0.62500 0.62500 1.25500
Zn	Zn	0.12500 0.87500 0.37500 1.25500
Zn	Zn	0.37500 0.12500 0.87500 1.25500
Zn	Zn	0.97477 0.47477 0.02523 1.20400
Zn	Zn	0.52523 0.52523 0.52523 1.20400
Zn	Zn	0.02523 0.97477 0.47477 1.20400
Zn	Zn	0.47477 0.02523 0.97477 1.20400
Zn	Zn	0.72477 0.72477 0.72477 1.20400
Zn	Zn	0.77523 0.27523 0.22477 1.20400
Zn	Zn	0.22477 0.77523 0.27523 1.20400
Zn	Zn	0.27523 0.22477 0.77523 1.20400
