data_crystal

_cell_length_a 20.48700
_cell_length_b 20.48700
_cell_length_c 20.48700
_cell_angle_alpha 90.00000
_cell_angle_beta  90.00000
_cell_angle_gamma 90.00000

_symmetry_space_group_name_	'P 1'
_symmetry_space_group_name_H-M	'P 1'

loop_
_symmetry_equiv_pos_as_xyz
  x,y,z

loop_
_atom_site_label
_atom_site_type_symbol
_atom_site_fract_x
_atom_site_fract_y
_atom_site_fract_z
_atom_site_charge
Cd	Cd	0.12500 0.62500 0.87500 1.25800
Cd	Cd	0.37500 0.37500 0.37500 1.25800
Cd	Cd	0.87500 0.12500 0.62500 1.25800
Cd	Cd	0.62500 0.87500 0.12500 1.25700
Cd	Cd	0.02422 0.52422 0.97578 1.19400
Cd	Cd	0.47578 0.47578 0.47578 1.19400
Cd	Cd	0.97578 0.02422 0.52422 1.19400
Cd	Cd	0.52422 0.97578 0.02422 1.19400
Cd	Cd	0.27422 0.27422 0.27422 1.19400
Cd	Cd	0.22578 0.72578 0.77422 1.19400
Cd	Cd	0.77422 0.22578 0.72578 1.19400
Cd	Cd	0.72578 0.77422 0.22578 1.19400
H 	H 	0.07500 0.35990 0.80200 0.01200
H 	H 	0.26430 0.45570 0.72290 0.08100
H 	H 	0.20840 0.50350 0.80900 0.01100
H 	H 	0.42500 0.64010 0.30200 0.01200
H 	H 	0.23570 0.54430 0.22290 0.08100
H 	H 	0.29160 0.49650 0.30900 0.01100
H 	H 	0.92500 0.85990 0.69800 0.01100
H 	H 	0.73570 0.95570 0.77710 0.08100
H 	H 	0.79160 0.00350 0.69100 0.01000
H 	H 	0.57500 0.14010 0.19800 0.01100
H 	H 	0.76430 0.04430 0.27710 0.08100
H 	H 	0.70840 0.99650 0.19100 0.00900
H 	H 	0.80200 0.07500 0.35990 0.01200
H 	H 	0.72290 0.26430 0.45570 0.08100
H 	H 	0.80900 0.20840 0.50350 0.01100
H 	H 	0.30200 0.42500 0.64010 0.01200
H 	H 	0.22290 0.23570 0.54430 0.08100
H 	H 	0.30900 0.29160 0.49650 0.01100
H 	H 	0.69800 0.92500 0.85990 0.01100
H 	H 	0.77710 0.73570 0.95570 0.08100
H 	H 	0.69100 0.79160 0.00350 0.01000
H 	H 	0.19800 0.57500 0.14010 0.01100
H 	H 	0.27710 0.76430 0.04430 0.08100
H 	H 	0.19100 0.70840 0.99650 0.00900
H 	H 	0.35990 0.80200 0.07500 0.01200
H 	H 	0.45570 0.72290 0.26430 0.08100
H 	H 	0.50350 0.80900 0.20840 0.01100
H 	H 	0.64010 0.30200 0.42500 0.01200
H 	H 	0.54430 0.22290 0.23570 0.08100
H 	H 	0.49650 0.30900 0.29160 0.01100
H 	H 	0.85990 0.69800 0.92500 0.01100
H 	H 	0.95570 0.77710 0.73570 0.08100
H 	H 	0.00350 0.69100 0.79160 0.01000
H 	H 	0.14010 0.19800 0.57500 0.01100
H 	H 	0.04430 0.27710 0.76430 0.08100
H 	H 	0.99650 0.19100 0.70840 0.00900
H 	H 	0.10990 0.32500 0.44800 0.01200
H 	H 	0.20570 0.51430 0.52710 0.08000
H 	H 	0.25350 0.45840 0.44100 0.01100
H 	H 	0.39010 0.67500 0.94800 0.01200
H 	H 	0.29430 0.48570 0.02710 0.08000
H 	H 	0.24650 0.54160 0.94100 0.01200
H 	H 	0.60990 0.17500 0.55200 0.01200
H 	H 	0.70570 0.98570 0.47290 0.08000
H 	H 	0.75350 0.04160 0.55900 0.01100
H 	H 	0.89010 0.82500 0.05200 0.01400
H 	H 	0.79430 0.01430 0.97290 0.07700
H 	H 	0.74650 0.95840 0.05900 0.01300
H 	H 	0.82500 0.05200 0.89010 0.01400
H 	H 	0.01430 0.97290 0.79430 0.07700
H 	H 	0.95840 0.05900 0.74650 0.01300
H 	H 	0.17500 0.55200 0.60990 0.01200
H 	H 	0.98570 0.47290 0.70570 0.08000
H 	H 	0.04160 0.55900 0.75350 0.01100
H 	H 	0.67500 0.94800 0.39010 0.01200
H 	H 	0.48570 0.02710 0.29430 0.08000
H 	H 	0.54160 0.94100 0.24650 0.01200
H 	H 	0.32500 0.44800 0.10990 0.01200
H 	H 	0.51430 0.52710 0.20570 0.08000
H 	H 	0.45840 0.44100 0.25350 0.01100
H 	H 	0.55200 0.60990 0.17500 0.01200
H 	H 	0.47290 0.70570 0.98570 0.08000
H 	H 	0.55900 0.75350 0.04160 0.01100
H 	H 	0.05200 0.89010 0.82500 0.01400
H 	H 	0.97290 0.79430 0.01430 0.07700
H 	H 	0.05900 0.74650 0.95840 0.01300
H 	H 	0.44800 0.10990 0.32500 0.01200
H 	H 	0.52710 0.20570 0.51430 0.08000
H 	H 	0.44100 0.25350 0.45840 0.01100
H 	H 	0.94800 0.39010 0.67500 0.01200
H 	H 	0.02710 0.29430 0.48570 0.08000
H 	H 	0.94100 0.24650 0.54160 0.01200
C 	C 	0.10010 0.46790 0.86650 0.45000
C 	C 	0.13610 0.43640 0.81400 -0.17900
C 	C 	0.11290 0.37910 0.78610 0.05400
C 	C 	0.14650 0.35050 0.73450 -0.07800
C 	C 	0.20320 0.37920 0.71080 0.08600
C 	C 	0.22640 0.43650 0.73870 -0.15100
C 	C 	0.19290 0.46510 0.79030 0.08600
C 	C 	0.39990 0.53210 0.36650 0.45000
C 	C 	0.36390 0.56360 0.31400 -0.17900
C 	C 	0.38710 0.62090 0.28610 0.05400
C 	C 	0.35350 0.64950 0.23450 -0.07800
C 	C 	0.29680 0.62080 0.21080 0.08600
C 	C 	0.27360 0.56350 0.23870 -0.15100
C 	C 	0.30710 0.53490 0.29030 0.08600
C 	C 	0.89990 0.96790 0.63350 0.45100
C 	C 	0.86390 0.93640 0.68600 -0.17900
C 	C 	0.88710 0.87910 0.71390 0.05500
C 	C 	0.85350 0.85050 0.76550 -0.07900
C 	C 	0.79680 0.87920 0.78920 0.08600
C 	C 	0.77360 0.93650 0.76130 -0.15200
C 	C 	0.80710 0.96510 0.70970 0.08700
C 	C 	0.60010 0.03210 0.13350 0.45200
C 	C 	0.63610 0.06360 0.18600 -0.18000
C 	C 	0.61290 0.12090 0.21390 0.05500
C 	C 	0.64650 0.14950 0.26550 -0.07900
C 	C 	0.70320 0.12080 0.28920 0.08600
C 	C 	0.72640 0.06350 0.26130 -0.15300
C 	C 	0.69290 0.03490 0.20970 0.08800
C 	C 	0.86650 0.10010 0.46790 0.45000
C 	C 	0.81400 0.13610 0.43640 -0.17900
C 	C 	0.78610 0.11290 0.37910 0.05400
C 	C 	0.73450 0.14650 0.35050 -0.07800
C 	C 	0.71080 0.20320 0.37920 0.08600
C 	C 	0.73870 0.22640 0.43650 -0.15100
C 	C 	0.79030 0.19290 0.46510 0.08600
C 	C 	0.36650 0.39990 0.53210 0.45000
C 	C 	0.31400 0.36390 0.56360 -0.17900
C 	C 	0.28610 0.38710 0.62090 0.05400
C 	C 	0.23450 0.35350 0.64950 -0.07800
C 	C 	0.21080 0.29680 0.62080 0.08600
C 	C 	0.23870 0.27360 0.56350 -0.15100
C 	C 	0.29030 0.30710 0.53490 0.08600
C 	C 	0.63350 0.89990 0.96790 0.45100
C 	C 	0.68600 0.86390 0.93640 -0.17900
C 	C 	0.71390 0.88710 0.87910 0.05500
C 	C 	0.76550 0.85350 0.85050 -0.07900
C 	C 	0.78920 0.79680 0.87920 0.08600
C 	C 	0.76130 0.77360 0.93650 -0.15200
C 	C 	0.70970 0.80710 0.96510 0.08700
C 	C 	0.13350 0.60010 0.03210 0.45200
C 	C 	0.18600 0.63610 0.06360 -0.18000
C 	C 	0.21390 0.61290 0.12090 0.05500
C 	C 	0.26550 0.64650 0.14950 -0.07900
C 	C 	0.28920 0.70320 0.12080 0.08600
C 	C 	0.26130 0.72640 0.06350 -0.15300
C 	C 	0.20970 0.69290 0.03490 0.08800
C 	C 	0.46790 0.86650 0.10010 0.45000
C 	C 	0.43640 0.81400 0.13610 -0.17900
C 	C 	0.37910 0.78610 0.11290 0.05400
C 	C 	0.35050 0.73450 0.14650 -0.07800
C 	C 	0.37920 0.71080 0.20320 0.08600
C 	C 	0.43650 0.73870 0.22640 -0.15100
C 	C 	0.46510 0.79030 0.19290 0.08600
C 	C 	0.53210 0.36650 0.39990 0.45000
C 	C 	0.56360 0.31400 0.36390 -0.17900
C 	C 	0.62090 0.28610 0.38710 0.05400
C 	C 	0.64950 0.23450 0.35350 -0.07800
C 	C 	0.62080 0.21080 0.29680 0.08600
C 	C 	0.56350 0.23870 0.27360 -0.15100
C 	C 	0.53490 0.29030 0.30710 0.08600
C 	C 	0.96790 0.63350 0.89990 0.45100
C 	C 	0.93640 0.68600 0.86390 -0.17900
C 	C 	0.87910 0.71390 0.88710 0.05500
C 	C 	0.85050 0.76550 0.85350 -0.07900
C 	C 	0.87920 0.78920 0.79680 0.08600
C 	C 	0.93650 0.76130 0.77360 -0.15200
C 	C 	0.96510 0.70970 0.80710 0.08700
C 	C 	0.03210 0.13350 0.60010 0.45200
C 	C 	0.06360 0.18600 0.63610 -0.18000
C 	C 	0.12090 0.21390 0.61290 0.05500
C 	C 	0.14950 0.26550 0.64650 -0.07900
C 	C 	0.12080 0.28920 0.70320 0.08600
C 	C 	0.06350 0.26130 0.72640 -0.15300
C 	C 	0.03490 0.20970 0.69290 0.08800
C 	C 	0.21790 0.35010 0.38350 0.45000
C 	C 	0.18640 0.38610 0.43600 -0.17800
C 	C 	0.12910 0.36290 0.46390 0.05300
C 	C 	0.10050 0.39650 0.51550 -0.07700
C 	C 	0.12920 0.45320 0.53920 0.08500
C 	C 	0.18650 0.47640 0.51130 -0.15100
C 	C 	0.21510 0.44290 0.45970 0.08500
C 	C 	0.28210 0.64990 0.88350 0.44900
C 	C 	0.31360 0.61390 0.93600 -0.17700
C 	C 	0.37090 0.63710 0.96390 0.05200
C 	C 	0.39950 0.60350 0.01550 -0.07600
C 	C 	0.37080 0.54680 0.03920 0.08400
C 	C 	0.31350 0.52360 0.01130 -0.14800
C 	C 	0.28490 0.55710 0.95970 0.08300
C 	C 	0.71790 0.14990 0.61650 0.45000
C 	C 	0.68640 0.11390 0.56400 -0.17800
C 	C 	0.62910 0.13710 0.53610 0.05300
C 	C 	0.60050 0.10350 0.48450 -0.07700
C 	C 	0.62920 0.04680 0.46080 0.08400
C 	C 	0.68650 0.02360 0.48870 -0.15000
C 	C 	0.71510 0.05710 0.54030 0.08500
C 	C 	0.78210 0.85010 0.11650 0.44800
C 	C 	0.81360 0.88610 0.06400 -0.17400
C 	C 	0.87090 0.86290 0.03610 0.04800
C 	C 	0.89950 0.89650 0.98450 -0.07100
C 	C 	0.87080 0.95320 0.96080 0.07900
C 	C 	0.81350 0.97640 0.98870 -0.14200
C 	C 	0.78490 0.94290 0.04030 0.07800
C 	C 	0.85010 0.11650 0.78210 0.44800
C 	C 	0.88610 0.06400 0.81360 -0.17400
C 	C 	0.86290 0.03610 0.87090 0.04800
C 	C 	0.89650 0.98450 0.89950 -0.07100
C 	C 	0.95320 0.96080 0.87080 0.07900
C 	C 	0.97640 0.98870 0.81350 -0.14200
C 	C 	0.94290 0.04030 0.78490 0.07800
C 	C 	0.14990 0.61650 0.71790 0.45000
C 	C 	0.11390 0.56400 0.68640 -0.17800
C 	C 	0.13710 0.53610 0.62910 0.05300
C 	C 	0.10350 0.48450 0.60050 -0.07700
C 	C 	0.04680 0.46080 0.62920 0.08400
C 	C 	0.02360 0.48870 0.68650 -0.15000
C 	C 	0.05710 0.54030 0.71510 0.08500
C 	C 	0.64990 0.88350 0.28210 0.44900
C 	C 	0.61390 0.93600 0.31360 -0.17700
C 	C 	0.63710 0.96390 0.37090 0.05200
C 	C 	0.60350 0.01550 0.39950 -0.07600
C 	C 	0.54680 0.03920 0.37080 0.08400
C 	C 	0.52360 0.01130 0.31350 -0.14800
C 	C 	0.55710 0.95970 0.28490 0.08300
C 	C 	0.35010 0.38350 0.21790 0.45000
C 	C 	0.38610 0.43600 0.18640 -0.17800
C 	C 	0.36290 0.46390 0.12910 0.05300
C 	C 	0.39650 0.51550 0.10050 -0.07700
C 	C 	0.45320 0.53920 0.12920 0.08500
C 	C 	0.47640 0.51130 0.18650 -0.15100
C 	C 	0.44290 0.45970 0.21510 0.08500
C 	C 	0.61650 0.71790 0.14990 0.45000
C 	C 	0.56400 0.68640 0.11390 -0.17800
C 	C 	0.53610 0.62910 0.13710 0.05300
C 	C 	0.48450 0.60050 0.10350 -0.07700
C 	C 	0.46080 0.62920 0.04680 0.08400
C 	C 	0.48870 0.68650 0.02360 -0.15000
C 	C 	0.54030 0.71510 0.05710 0.08500
C 	C 	0.11650 0.78210 0.85010 0.44800
C 	C 	0.06400 0.81360 0.88610 -0.17400
C 	C 	0.03610 0.87090 0.86290 0.04800
C 	C 	0.98450 0.89950 0.89650 -0.07100
C 	C 	0.96080 0.87080 0.95320 0.07900
C 	C 	0.98870 0.81350 0.97640 -0.14200
C 	C 	0.04030 0.78490 0.94290 0.07800
C 	C 	0.38350 0.21790 0.35010 0.45000
C 	C 	0.43600 0.18640 0.38610 -0.17800
C 	C 	0.46390 0.12910 0.36290 0.05300
C 	C 	0.51550 0.10050 0.39650 -0.07700
C 	C 	0.53920 0.12920 0.45320 0.08500
C 	C 	0.51130 0.18650 0.47640 -0.15100
C 	C 	0.45970 0.21510 0.44290 0.08500
C 	C 	0.88350 0.28210 0.64990 0.44900
C 	C 	0.93600 0.31360 0.61390 -0.17700
C 	C 	0.96390 0.37090 0.63710 0.05200
C 	C 	0.01550 0.39950 0.60350 -0.07600
C 	C 	0.03920 0.37080 0.54680 0.08400
C 	C 	0.01130 0.31350 0.52360 -0.14800
C 	C 	0.95970 0.28490 0.55710 0.08300
O 	O 	0.05170 0.45240 0.89820 -0.48600
O 	O 	0.12960 0.51700 0.88330 -0.49200
O 	O 	0.44830 0.54760 0.39820 -0.48600
O 	O 	0.37040 0.48300 0.38330 -0.49200
O 	O 	0.94830 0.95240 0.60180 -0.48600
O 	O 	0.87040 0.01700 0.61670 -0.49300
O 	O 	0.55170 0.04760 0.10180 -0.48600
O 	O 	0.62960 0.98300 0.11670 -0.49400
O 	O 	0.89820 0.05170 0.45240 -0.48600
O 	O 	0.88330 0.12960 0.51700 -0.49200
O 	O 	0.39820 0.44830 0.54760 -0.48600
O 	O 	0.38330 0.37040 0.48300 -0.49200
O 	O 	0.60180 0.94830 0.95240 -0.48600
O 	O 	0.61670 0.87040 0.01700 -0.49300
O 	O 	0.10180 0.55170 0.04760 -0.48600
O 	O 	0.11670 0.62960 0.98300 -0.49400
O 	O 	0.45240 0.89820 0.05170 -0.48600
O 	O 	0.51700 0.88330 0.12960 -0.49200
O 	O 	0.54760 0.39820 0.44830 -0.48600
O 	O 	0.48300 0.38330 0.37040 -0.49200
O 	O 	0.95240 0.60180 0.94830 -0.48600
O 	O 	0.01700 0.61670 0.87040 -0.49300
O 	O 	0.04760 0.10180 0.55170 -0.48600
O 	O 	0.98300 0.11670 0.62960 -0.49400
O 	O 	0.20240 0.30170 0.35180 -0.48600
O 	O 	0.26700 0.37960 0.36670 -0.49200
O 	O 	0.29760 0.69830 0.85180 -0.48600
O 	O 	0.23300 0.62040 0.86670 -0.49200
O 	O 	0.70240 0.19830 0.64820 -0.48600
O 	O 	0.76700 0.12040 0.63330 -0.49200
O 	O 	0.79760 0.80170 0.14820 -0.48600
O 	O 	0.73300 0.87960 0.13330 -0.49200
O 	O 	0.80170 0.14820 0.79760 -0.48600
O 	O 	0.87960 0.13330 0.73300 -0.49200
O 	O 	0.19830 0.64820 0.70240 -0.48600
O 	O 	0.12040 0.63330 0.76700 -0.49200
O 	O 	0.69830 0.85180 0.29760 -0.48600
O 	O 	0.62040 0.86670 0.23300 -0.49200
O 	O 	0.30170 0.35180 0.20240 -0.48600
O 	O 	0.37960 0.36670 0.26700 -0.49200
O 	O 	0.64820 0.70240 0.19830 -0.48600
O 	O 	0.63330 0.76700 0.12040 -0.49200
O 	O 	0.14820 0.79760 0.80170 -0.48600
O 	O 	0.13330 0.73300 0.87960 -0.49200
O 	O 	0.35180 0.20240 0.30170 -0.48600
O 	O 	0.36670 0.26700 0.37960 -0.49200
O 	O 	0.85180 0.29760 0.69830 -0.48600
O 	O 	0.86670 0.23300 0.62040 -0.49200
