data_crystal

_cell_length_a 8.72190
_cell_length_b 17.35250
_cell_length_c 12.27190
_cell_angle_alpha 90.00000
_cell_angle_beta  92.45700
_cell_angle_gamma 90.00000

_symmetry_space_group_name_	'P 1'
_symmetry_space_group_name_H-M	'P 1'

loop_
_symmetry_equiv_pos_as_xyz
  x,y,z

loop_
_atom_site_label
_atom_site_type_symbol
_atom_site_fract_x
_atom_site_fract_y
_atom_site_fract_z
_atom_site_charge
C 	C 	0.82460 0.26870 0.57940 0.10000
C 	C 	0.34880 0.19050 0.41950 0.09400
C 	C 	0.02770 0.07220 0.76260 0.06700
C 	C 	0.86260 0.13500 0.23910 0.09300
N 	N 	0.88190 0.21680 0.54150 -0.28100
N 	N 	0.23980 0.16560 0.45090 -0.29400
N 	N 	0.05710 0.09090 0.67770 -0.30100
N 	N 	0.92070 0.11410 0.32000 -0.29500
S 	S 	0.74180 0.34510 0.63344 -0.07900
S 	S 	0.50850 0.22741 0.37570 -0.09300
S 	S 	0.98860 0.03876 0.88470 -0.05400
S 	S 	0.77510 0.16629 0.12600 -0.07600
Cd	Cd	0.01620 0.11203 0.49525 1.14200
Hg	Hg	0.50522 0.34171 0.50450 -0.01700
C 	C 	0.32460 0.23130 0.07940 0.10000
C 	C 	0.84880 0.30950 0.91950 0.09500
C 	C 	0.52770 0.42780 0.26260 0.07000
C 	C 	0.36260 0.36500 0.73910 0.09100
N 	N 	0.38190 0.28320 0.04150 -0.28200
N 	N 	0.73980 0.33440 0.95090 -0.29400
N 	N 	0.55710 0.40910 0.17770 -0.30100
N 	N 	0.42070 0.38590 0.82000 -0.29600
S 	S 	0.24180 0.15490 0.13344 -0.08000
S 	S 	0.00850 0.27259 0.87570 -0.09500
S 	S 	0.48860 0.46124 0.38470 -0.05700
S 	S 	0.27510 0.33371 0.62600 -0.07900
Cd	Cd	0.51620 0.38797 0.99525 1.14300
Hg	Hg	0.00522 0.15829 0.00450 -0.01900
C 	C 	0.67540 0.76870 0.92060 0.10000
C 	C 	0.15120 0.69050 0.08050 0.09500
C 	C 	0.47230 0.57220 0.73740 0.07000
C 	C 	0.63740 0.63500 0.26090 0.09100
N 	N 	0.61810 0.71680 0.95850 -0.28200
N 	N 	0.26020 0.66560 0.04910 -0.29400
N 	N 	0.44290 0.59090 0.82230 -0.30100
N 	N 	0.57930 0.61410 0.18000 -0.29600
S 	S 	0.75820 0.84510 0.86656 -0.08000
S 	S 	0.99150 0.72741 0.12430 -0.09500
S 	S 	0.51140 0.53876 0.61530 -0.05700
S 	S 	0.72490 0.66629 0.37400 -0.07900
Cd	Cd	0.48380 0.61203 0.00475 1.14300
Hg	Hg	0.99478 0.84171 0.99550 -0.01900
C 	C 	0.17540 0.73130 0.42060 0.09900
C 	C 	0.65120 0.80950 0.58050 0.09300
C 	C 	0.97230 0.92780 0.23740 0.06600
C 	C 	0.13740 0.86500 0.76090 0.09200
N 	N 	0.11810 0.78320 0.45850 -0.28100
N 	N 	0.76020 0.83440 0.54910 -0.29400
N 	N 	0.94290 0.90910 0.32230 -0.30100
N 	N 	0.07930 0.88590 0.68000 -0.29500
S 	S 	0.25820 0.65490 0.36656 -0.07900
S 	S 	0.49150 0.77259 0.62430 -0.09300
S 	S 	0.01140 0.96124 0.11530 -0.05400
S 	S 	0.22490 0.83371 0.87400 -0.07600
Cd	Cd	0.98380 0.88797 0.50475 1.14200
Hg	Hg	0.49478 0.65829 0.49550 -0.01700
