data_crystal

_cell_length_a 9.20210
_cell_length_b 9.20210
_cell_length_c 14.19730
_cell_angle_alpha 79.83900
_cell_angle_beta  79.83930
_cell_angle_gamma 117.10600

_symmetry_space_group_name_	'P 1'
_symmetry_space_group_name_H-M	'P 1'

loop_
_symmetry_equiv_pos_as_xyz
  x,y,z

loop_
_atom_site_label
_atom_site_type_symbol
_atom_site_fract_x
_atom_site_fract_y
_atom_site_fract_z
_atom_site_charge
Er	Er	0.00868 0.75868 0.98264 1.65200
Er	Er	0.24132 0.99132 0.51736 1.67300
Er	Er	0.99132 0.24132 0.01736 1.65100
Er	Er	0.75868 0.00868 0.48264 1.67200
H 	H 	0.39490 0.81690 0.06960 0.08800
H 	H 	0.53550 0.61350 0.06960 0.09000
H 	H 	0.18310 0.60510 0.43040 0.08700
H 	H 	0.38650 0.46450 0.43040 0.08900
H 	H 	0.60510 0.18310 0.93040 0.08800
H 	H 	0.46450 0.38650 0.93040 0.09000
H 	H 	0.81690 0.39490 0.56960 0.08700
H 	H 	0.61350 0.53550 0.56960 0.08900
C 	C 	0.24006 0.57206 0.05948 0.41900
C 	C 	0.39742 0.71822 0.06556 -0.14400
C 	C 	0.70046 0.86846 0.05948 0.43300
C 	C 	0.53702 0.71622 0.06556 -0.15500
C 	C 	0.42794 0.75994 0.44052 0.42200
C 	C 	0.28178 0.60258 0.43444 -0.14700
C 	C 	0.13154 0.29954 0.44052 0.43100
C 	C 	0.28378 0.46298 0.43444 -0.15300
C 	C 	0.75994 0.42794 0.94052 0.41900
C 	C 	0.60258 0.28178 0.93444 -0.14400
C 	C 	0.29954 0.13154 0.94052 0.43300
C 	C 	0.46298 0.28378 0.93444 -0.15500
C 	C 	0.57206 0.24006 0.55948 0.42200
C 	C 	0.71822 0.39742 0.56556 -0.14700
C 	C 	0.86846 0.70046 0.55948 0.43100
C 	C 	0.71622 0.53702 0.56556 -0.15300
C 	C 	0.07560 0.92440 0.75000 0.27000
C 	C 	0.17440 0.82560 0.75000 0.26800
C 	C 	0.92440 0.07560 0.25000 0.27000
C 	C 	0.82560 0.17440 0.25000 0.26800
O 	O 	0.13198 0.60682 0.03480 -0.51000
O 	O 	0.22029 0.42449 0.07462 -0.42500
O 	O 	0.00701 0.92683 0.83336 -0.38500
O 	O 	0.83322 0.85838 0.03480 -0.51500
O 	O 	0.70509 0.00089 0.07462 -0.44100
O 	O 	0.15963 0.73981 0.83336 -0.37800
O 	O 	0.39318 0.86802 0.46520 -0.51900
O 	O 	0.57551 0.77971 0.42538 -0.43000
O 	O 	0.07317 0.99299 0.66664 -0.38500
O 	O 	0.14162 0.16678 0.46520 -0.51700
O 	O 	0.99911 0.29491 0.42538 -0.43900
O 	O 	0.26019 0.84037 0.66664 -0.37800
O 	O 	0.86802 0.39318 0.96520 -0.51000
O 	O 	0.77971 0.57551 0.92538 -0.42500
O 	O 	0.99299 0.07317 0.16664 -0.38500
O 	O 	0.16678 0.14162 0.96520 -0.51500
O 	O 	0.29491 0.99911 0.92538 -0.44100
O 	O 	0.84037 0.26019 0.16664 -0.37800
O 	O 	0.60682 0.13198 0.53480 -0.51900
O 	O 	0.42449 0.22029 0.57462 -0.43000
O 	O 	0.92683 0.00701 0.33336 -0.38500
O 	O 	0.85838 0.83322 0.53480 -0.51700
O 	O 	0.00089 0.70509 0.57462 -0.43900
O 	O 	0.73981 0.15963 0.33336 -0.37800
