data_crystal

_cell_length_a 9.57000
_cell_length_b 23.28800
_cell_length_c 24.20700
_cell_angle_alpha 105.70500
_cell_angle_beta  90.00000
_cell_angle_gamma 90.00000

_symmetry_space_group_name_	'P 1'
_symmetry_space_group_name_H-M	'P 1'

loop_
_symmetry_equiv_pos_as_xyz
  x,y,z

loop_
_atom_site_label
_atom_site_type_symbol
_atom_site_fract_x
_atom_site_fract_y
_atom_site_fract_z
_atom_site_charge
Cu	Cu	0.95725 0.73774 0.51721 0.91300
Cu	Cu	0.56352 0.73809 0.42458 0.90900
Cu	Cu	0.35362 0.72604 0.62030 0.89600
Cu	Cu	0.45725 0.26226 0.98279 0.91200
Cu	Cu	0.06352 0.26191 0.07542 0.90800
Cu	Cu	0.85362 0.27396 0.87970 0.89600
Cu	Cu	0.04275 0.26226 0.48279 0.91200
Cu	Cu	0.43648 0.26191 0.57542 0.90800
Cu	Cu	0.64638 0.27396 0.37970 0.89600
Cu	Cu	0.54275 0.73774 0.01721 0.91200
Cu	Cu	0.93648 0.73809 0.92458 0.90800
Cu	Cu	0.14638 0.72604 0.12030 0.89600
P 	P 	0.81930 0.81077 0.43598 0.42000
P 	P 	0.29410 0.78364 0.48521 0.39600
P 	P 	0.08150 0.66162 0.59655 0.41100
P 	P 	0.60300 0.68956 0.54498 0.40400
P 	P 	0.31930 0.18923 0.06402 0.42000
P 	P 	0.79410 0.21636 0.01479 0.39600
P 	P 	0.58150 0.33838 0.90345 0.41100
P 	P 	0.10300 0.31044 0.95502 0.40300
P 	P 	0.18070 0.18923 0.56402 0.42000
P 	P 	0.70590 0.21636 0.51479 0.39600
P 	P 	0.91850 0.33838 0.40345 0.41100
P 	P 	0.39700 0.31044 0.45502 0.40400
P 	P 	0.68070 0.81077 0.93598 0.42000
P 	P 	0.20590 0.78364 0.98521 0.39600
P 	P 	0.41850 0.66162 0.09655 0.41100
P 	P 	0.89700 0.68956 0.04498 0.40300
H 	H 	0.70770 0.82660 0.52630 0.09700
H 	H 	0.70190 0.88660 0.50580 0.10900
H 	H 	0.41170 0.87200 0.53190 0.10800
H 	H 	0.48340 0.81620 0.54770 0.09800
H 	H 	0.58540 0.86510 0.40220 0.05800
H 	H 	0.43210 0.83780 0.40080 0.04900
H 	H 	0.41940 0.94000 0.42050 0.05200
H 	H 	0.35850 0.91860 0.47270 0.06400
H 	H 	0.62600 0.97070 0.47650 0.05700
H 	H 	0.54380 0.95770 0.52940 0.05200
H 	H 	0.18970 0.58970 0.52090 0.10900
H 	H 	0.19690 0.65390 0.50870 0.09400
H 	H 	0.40590 0.66200 0.48760 0.09700
H 	H 	0.48480 0.60390 0.49490 0.11000
H 	H 	0.34150 0.60340 0.62910 0.03700
H 	H 	0.49240 0.59730 0.60010 0.05500
H 	H 	0.38890 0.50420 0.58470 0.05000
H 	H 	0.25610 0.52550 0.55610 0.05300
H 	H 	0.38820 0.52460 0.47400 0.05700
H 	H 	0.38260 0.46030 0.48580 0.06500
H 	H 	0.89550 0.60640 0.47960 0.01000
H 	H 	0.92260 0.52460 0.40420 0.09400
H 	H 	0.10400 0.63100 0.31740 0.08400
H 	H 	0.07340 0.71010 0.39710 0.02500
H 	H 	0.25550 0.34350 0.15600 0.01200
H 	H 	0.25420 0.44040 0.21650 0.08800
H 	H 	0.86480 0.46380 0.16660 0.09000
H 	H 	0.87370 0.36960 0.10740 -0.00400
H 	H 	0.95000 0.48750 0.29810 0.08100
H 	H 	0.11420 0.48920 0.30930 0.08000
H 	H 	0.98400 0.54710 0.23140 0.06900
H 	H 	0.14980 0.54370 0.24070 0.06900
H 	H 	0.83330 0.76820 0.63790 0.02400
H 	H 	0.79240 0.84980 0.71400 0.08300
H 	H 	0.94420 0.95380 0.61800 0.07900
H 	H 	0.01150 0.86920 0.54860 0.02400
H 	H 	0.68800 0.15820 0.86180 0.00100
H 	H 	0.72780 0.05820 0.81450 0.08900
H 	H 	0.06870 0.10450 0.74370 0.09200
H 	H 	0.04020 0.19990 0.79740 -0.01200
H 	H 	0.98900 0.98640 0.76580 0.07400
H 	H 	0.99930 0.00640 0.70760 0.07300
H 	H 	0.75690 0.95880 0.74930 0.06100
H 	H 	0.74270 0.99250 0.69990 0.06600
H 	H 	0.20770 0.17340 0.97370 0.09600
H 	H 	0.20190 0.11340 0.99420 0.10800
H 	H 	0.91170 0.12800 0.96810 0.10800
H 	H 	0.98340 0.18380 0.95230 0.09800
H 	H 	0.08540 0.13490 0.09780 0.05800
H 	H 	0.93210 0.16220 0.09920 0.04800
H 	H 	0.91940 0.06000 0.07950 0.05200
H 	H 	0.85850 0.08140 0.02730 0.06400
H 	H 	0.12600 0.02930 0.02350 0.05700
H 	H 	0.04380 0.04230 0.97060 0.05100
H 	H 	0.68970 0.41030 0.97910 0.10900
H 	H 	0.69690 0.34610 0.99130 0.09400
H 	H 	0.90590 0.33800 0.01240 0.09700
H 	H 	0.98480 0.39610 0.00510 0.10900
H 	H 	0.84150 0.39660 0.87090 0.03700
H 	H 	0.99240 0.40270 0.89990 0.05500
H 	H 	0.88890 0.49580 0.91530 0.05000
H 	H 	0.75610 0.47450 0.94390 0.05300
H 	H 	0.88820 0.47540 0.02600 0.05600
H 	H 	0.88260 0.53970 0.01420 0.06500
H 	H 	0.39550 0.39360 0.02040 0.01000
H 	H 	0.42260 0.47540 0.09580 0.09500
H 	H 	0.60400 0.36900 0.18260 0.08400
H 	H 	0.57340 0.28990 0.10290 0.02500
H 	H 	0.75550 0.65650 0.34400 0.01200
H 	H 	0.75420 0.55960 0.28350 0.08800
H 	H 	0.36480 0.53620 0.33340 0.09000
H 	H 	0.37370 0.63040 0.39260 -0.00400
H 	H 	0.45000 0.51250 0.20190 0.08000
H 	H 	0.61420 0.51080 0.19070 0.08000
H 	H 	0.48400 0.45290 0.26860 0.06900
H 	H 	0.64980 0.45630 0.25930 0.06900
H 	H 	0.33330 0.23180 0.86210 0.02400
H 	H 	0.29240 0.15020 0.78600 0.08300
H 	H 	0.44420 0.04620 0.88200 0.07900
H 	H 	0.51150 0.13080 0.95140 0.02400
H 	H 	0.18800 0.84180 0.63820 0.00100
H 	H 	0.22780 0.94180 0.68550 0.08900
H 	H 	0.56870 0.89550 0.75630 0.09200
H 	H 	0.54020 0.80010 0.70260 -0.01200
H 	H 	0.48900 0.01360 0.73420 0.07300
H 	H 	0.49930 0.99360 0.79240 0.07300
H 	H 	0.25690 0.04120 0.75070 0.06100
H 	H 	0.24270 0.00750 0.80010 0.06600
H 	H 	0.29230 0.17340 0.47370 0.09700
H 	H 	0.29810 0.11340 0.49420 0.10900
H 	H 	0.58830 0.12800 0.46810 0.10800
H 	H 	0.51660 0.18380 0.45230 0.09800
H 	H 	0.41460 0.13490 0.59780 0.05800
H 	H 	0.56790 0.16220 0.59920 0.04900
H 	H 	0.58060 0.06000 0.57950 0.05200
H 	H 	0.64150 0.08140 0.52730 0.06400
H 	H 	0.37400 0.02930 0.52350 0.05700
H 	H 	0.45620 0.04230 0.47060 0.05200
H 	H 	0.81030 0.41030 0.47910 0.10900
H 	H 	0.80310 0.34610 0.49130 0.09400
H 	H 	0.59410 0.33800 0.51240 0.09700
H 	H 	0.51520 0.39610 0.50510 0.11000
H 	H 	0.65850 0.39660 0.37090 0.03700
H 	H 	0.50760 0.40270 0.39990 0.05500
H 	H 	0.61110 0.49580 0.41530 0.05000
H 	H 	0.74390 0.47450 0.44390 0.05300
H 	H 	0.61180 0.47540 0.52600 0.05700
H 	H 	0.61740 0.53970 0.51420 0.06500
H 	H 	0.10450 0.39360 0.52040 0.01000
H 	H 	0.07740 0.47540 0.59580 0.09400
H 	H 	0.89600 0.36900 0.68260 0.08400
H 	H 	0.92660 0.28990 0.60290 0.02500
H 	H 	0.74450 0.65650 0.84400 0.01200
H 	H 	0.74580 0.55960 0.78350 0.08800
H 	H 	0.13520 0.53620 0.83340 0.09000
H 	H 	0.12630 0.63040 0.89260 -0.00400
H 	H 	0.05000 0.51250 0.70190 0.08100
H 	H 	0.88580 0.51080 0.69070 0.08000
H 	H 	0.01600 0.45290 0.76860 0.06900
H 	H 	0.85020 0.45630 0.75930 0.06900
H 	H 	0.16670 0.23180 0.36210 0.02400
H 	H 	0.20760 0.15020 0.28600 0.08300
H 	H 	0.05580 0.04620 0.38200 0.07900
H 	H 	0.98850 0.13080 0.45140 0.02400
H 	H 	0.31200 0.84180 0.13820 0.00100
H 	H 	0.27220 0.94180 0.18550 0.08900
H 	H 	0.93130 0.89550 0.25630 0.09200
H 	H 	0.95980 0.80010 0.20260 -0.01200
H 	H 	0.01100 0.01360 0.23420 0.07400
H 	H 	0.00070 0.99360 0.29240 0.07300
H 	H 	0.24310 0.04120 0.25070 0.06100
H 	H 	0.25730 0.00750 0.30010 0.06600
H 	H 	0.79230 0.82660 0.02630 0.09600
H 	H 	0.79810 0.88660 0.00580 0.10800
H 	H 	0.08830 0.87200 0.03190 0.10800
H 	H 	0.01660 0.81620 0.04770 0.09800
H 	H 	0.91460 0.86510 0.90220 0.05800
H 	H 	0.06790 0.83780 0.90080 0.04800
H 	H 	0.08060 0.94000 0.92050 0.05200
H 	H 	0.14150 0.91860 0.97270 0.06400
H 	H 	0.87400 0.97070 0.97650 0.05700
H 	H 	0.95620 0.95770 0.02940 0.05100
H 	H 	0.31030 0.58970 0.02090 0.10900
H 	H 	0.30310 0.65390 0.00870 0.09400
H 	H 	0.09410 0.66200 0.98760 0.09700
H 	H 	0.01520 0.60390 0.99490 0.10900
H 	H 	0.15850 0.60340 0.12910 0.03700
H 	H 	0.00760 0.59730 0.10010 0.05500
H 	H 	0.11110 0.50420 0.08470 0.05000
H 	H 	0.24390 0.52550 0.05610 0.05300
H 	H 	0.11180 0.52460 0.97400 0.05600
H 	H 	0.11740 0.46030 0.98580 0.06500
H 	H 	0.60450 0.60640 0.97960 0.01000
H 	H 	0.57740 0.52460 0.90420 0.09500
H 	H 	0.39600 0.63100 0.81740 0.08400
H 	H 	0.42660 0.71010 0.89710 0.02500
H 	H 	0.24450 0.34350 0.65600 0.01200
H 	H 	0.24580 0.44040 0.71650 0.08800
H 	H 	0.63520 0.46380 0.66660 0.09000
H 	H 	0.62630 0.36960 0.60740 -0.00400
H 	H 	0.55000 0.48750 0.79810 0.08000
H 	H 	0.38580 0.48920 0.80930 0.08000
H 	H 	0.51600 0.54710 0.73140 0.06900
H 	H 	0.35020 0.54370 0.74070 0.06900
H 	H 	0.66670 0.76820 0.13790 0.02400
H 	H 	0.70760 0.84980 0.21400 0.08300
H 	H 	0.55580 0.95380 0.11800 0.07900
H 	H 	0.48850 0.86920 0.04860 0.02400
H 	H 	0.81200 0.15820 0.36180 0.00100
H 	H 	0.77220 0.05820 0.31450 0.08900
H 	H 	0.43130 0.10450 0.24370 0.09200
H 	H 	0.45980 0.19990 0.29740 -0.01200
H 	H 	0.51100 0.98640 0.26580 0.07300
H 	H 	0.50070 0.00640 0.20760 0.07300
H 	H 	0.74310 0.95880 0.24930 0.06100
H 	H 	0.75730 0.99250 0.19990 0.06600
C 	C 	0.69180 0.84270 0.49300 -0.24100
C 	C 	0.44240 0.83020 0.51610 -0.24000
C 	C 	0.50410 0.86160 0.42640 -0.08500
C 	C 	0.44600 0.92340 0.45250 -0.08000
C 	C 	0.53210 0.96940 0.49330 -0.09100
C 	C 	0.20790 0.63260 0.53860 -0.23900
C 	C 	0.45320 0.64450 0.51560 -0.25100
C 	C 	0.39100 0.59390 0.59180 -0.08100
C 	C 	0.35900 0.52920 0.55960 -0.07900
C 	C 	0.41980 0.50130 0.50040 -0.09500
C 	C 	0.93880 0.61160 0.44590 0.09800
C 	C 	0.95460 0.56220 0.40100 -0.18000
C 	C 	0.01630 0.56630 0.35090 0.12500
C 	C 	0.06080 0.62470 0.35070 -0.15800
C 	C 	0.04160 0.67170 0.39810 0.08300
C 	C 	0.17490 0.36780 0.15810 0.08400
C 	C 	0.17360 0.42600 0.19420 -0.17700
C 	C 	0.06390 0.46190 0.19840 0.14000
C 	C 	0.94620 0.44010 0.16510 -0.19100
C 	C 	0.95300 0.38380 0.13070 0.10600
C 	C 	0.03460 0.51250 0.30070 -0.16400
C 	C 	0.06010 0.52260 0.24110 -0.16000
C 	C 	0.85930 0.80640 0.63430 0.08200
C 	C 	0.82850 0.85500 0.67910 -0.15100
C 	C 	0.85100 0.91230 0.67270 0.10500
C 	C 	0.92190 0.91570 0.62290 -0.14800
C 	C 	0.96000 0.86530 0.58090 0.06100
C 	C 	0.76890 0.14740 0.83850 0.09900
C 	C 	0.79160 0.08750 0.80930 -0.18400
C 	C 	0.90240 0.07020 0.77360 0.14500
C 	C 	0.99120 0.11410 0.76910 -0.19100
C 	C 	0.97190 0.17110 0.79990 0.10800
C 	C 	0.93750 0.00580 0.74030 -0.16900
C 	C 	0.80670 0.96910 0.71740 -0.13700
C 	C 	0.19180 0.15730 0.00700 -0.23800
C 	C 	0.94240 0.16980 0.98390 -0.24000
C 	C 	0.00410 0.13840 0.07360 -0.08500
C 	C 	0.94600 0.07660 0.04750 -0.08100
C 	C 	0.03210 0.03060 0.00670 -0.09000
C 	C 	0.70790 0.36740 0.96140 -0.23900
C 	C 	0.95320 0.35550 0.98440 -0.25000
C 	C 	0.89100 0.40610 0.90820 -0.08000
C 	C 	0.85900 0.47080 0.94040 -0.07900
C 	C 	0.91980 0.49870 0.99960 -0.09400
C 	C 	0.43880 0.38840 0.05410 0.09800
C 	C 	0.45460 0.43780 0.09900 -0.18000
C 	C 	0.51630 0.43370 0.14910 0.12500
C 	C 	0.56080 0.37530 0.14930 -0.15800
C 	C 	0.54160 0.32830 0.10190 0.08300
C 	C 	0.67490 0.63220 0.34190 0.08400
C 	C 	0.67360 0.57400 0.30580 -0.17700
C 	C 	0.56390 0.53810 0.30160 0.14000
C 	C 	0.44620 0.55990 0.33490 -0.19100
C 	C 	0.45300 0.61620 0.36930 0.10600
C 	C 	0.53460 0.48750 0.19930 -0.16400
C 	C 	0.56010 0.47740 0.25890 -0.16000
C 	C 	0.35930 0.19360 0.86570 0.08200
C 	C 	0.32850 0.14500 0.82090 -0.15200
C 	C 	0.35100 0.08770 0.82730 0.10500
C 	C 	0.42190 0.08430 0.87710 -0.14800
C 	C 	0.46000 0.13470 0.91910 0.06100
C 	C 	0.26890 0.85260 0.66150 0.09900
C 	C 	0.29160 0.91250 0.69070 -0.18400
C 	C 	0.40240 0.92980 0.72640 0.14500
C 	C 	0.49120 0.88590 0.73090 -0.19100
C 	C 	0.47190 0.82890 0.70010 0.10700
C 	C 	0.43750 0.99420 0.75970 -0.16800
C 	C 	0.30670 0.03090 0.78260 -0.13800
C 	C 	0.30820 0.15730 0.50700 -0.24100
C 	C 	0.55760 0.16980 0.48390 -0.24000
C 	C 	0.49590 0.13840 0.57360 -0.08500
C 	C 	0.55400 0.07660 0.54750 -0.08000
C 	C 	0.46790 0.03060 0.50670 -0.09100
C 	C 	0.79210 0.36740 0.46140 -0.23900
C 	C 	0.54680 0.35550 0.48440 -0.25100
C 	C 	0.60900 0.40610 0.40820 -0.08100
C 	C 	0.64100 0.47080 0.44040 -0.07900
C 	C 	0.58020 0.49870 0.49960 -0.09500
C 	C 	0.06120 0.38840 0.55410 0.09800
C 	C 	0.04540 0.43780 0.59900 -0.18000
C 	C 	0.98370 0.43370 0.64910 0.12500
C 	C 	0.93920 0.37530 0.64930 -0.15800
C 	C 	0.95840 0.32830 0.60190 0.08300
C 	C 	0.82510 0.63220 0.84190 0.08400
C 	C 	0.82640 0.57400 0.80580 -0.17700
C 	C 	0.93610 0.53810 0.80160 0.14000
C 	C 	0.05380 0.55990 0.83490 -0.19100
C 	C 	0.04700 0.61620 0.86930 0.10600
C 	C 	0.96540 0.48750 0.69930 -0.16400
C 	C 	0.93990 0.47740 0.75890 -0.16000
C 	C 	0.14070 0.19360 0.36570 0.08200
C 	C 	0.17150 0.14500 0.32090 -0.15100
C 	C 	0.14900 0.08770 0.32730 0.10500
C 	C 	0.07810 0.08430 0.37710 -0.14800
C 	C 	0.04000 0.13470 0.41910 0.06100
C 	C 	0.23110 0.85260 0.16150 0.09900
C 	C 	0.20840 0.91250 0.19070 -0.18400
C 	C 	0.09760 0.92980 0.22640 0.14500
C 	C 	0.00880 0.88590 0.23090 -0.19100
C 	C 	0.02810 0.82890 0.20010 0.10800
C 	C 	0.06250 0.99420 0.25970 -0.16900
C 	C 	0.19330 0.03090 0.28260 -0.13700
C 	C 	0.80820 0.84270 0.99300 -0.23800
C 	C 	0.05760 0.83020 0.01610 -0.24000
C 	C 	0.99590 0.86160 0.92640 -0.08500
C 	C 	0.05400 0.92340 0.95250 -0.08100
C 	C 	0.96790 0.96940 0.99330 -0.09000
C 	C 	0.29210 0.63260 0.03860 -0.23900
C 	C 	0.04680 0.64450 0.01560 -0.25000
C 	C 	0.10900 0.59390 0.09180 -0.08000
C 	C 	0.14100 0.52920 0.05960 -0.07900
C 	C 	0.08020 0.50130 0.00040 -0.09400
C 	C 	0.56120 0.61160 0.94590 0.09800
C 	C 	0.54540 0.56220 0.90100 -0.18000
C 	C 	0.48370 0.56630 0.85090 0.12500
C 	C 	0.43920 0.62470 0.85070 -0.15800
C 	C 	0.45840 0.67170 0.89810 0.08300
C 	C 	0.32510 0.36780 0.65810 0.08400
C 	C 	0.32640 0.42600 0.69420 -0.17700
C 	C 	0.43610 0.46190 0.69840 0.14000
C 	C 	0.55380 0.44010 0.66510 -0.19100
C 	C 	0.54700 0.38380 0.63070 0.10600
C 	C 	0.46540 0.51250 0.80070 -0.16400
C 	C 	0.43990 0.52260 0.74110 -0.16000
C 	C 	0.64070 0.80640 0.13430 0.08200
C 	C 	0.67150 0.85500 0.17910 -0.15200
C 	C 	0.64900 0.91230 0.17270 0.10500
C 	C 	0.57810 0.91570 0.12290 -0.14800
C 	C 	0.54000 0.86530 0.08090 0.06100
C 	C 	0.73110 0.14740 0.33850 0.09900
C 	C 	0.70840 0.08750 0.30930 -0.18400
C 	C 	0.59760 0.07020 0.27360 0.14500
C 	C 	0.50880 0.11410 0.26910 -0.19100
C 	C 	0.52810 0.17110 0.29990 0.10700
C 	C 	0.56250 0.00580 0.24030 -0.16800
C 	C 	0.69330 0.96910 0.21740 -0.13800
N 	N 	0.55060 0.82660 0.46940 -0.12500
N 	N 	0.35180 0.64050 0.56120 -0.12100
N 	N 	0.97880 0.66590 0.44670 -0.21800
N 	N 	0.05980 0.34650 0.12630 -0.22600
N 	N 	0.92450 0.80910 0.58510 -0.21000
N 	N 	0.85990 0.18930 0.83420 -0.23300
N 	N 	0.05060 0.17340 0.03060 -0.12500
N 	N 	0.85180 0.35950 0.93880 -0.12100
N 	N 	0.47880 0.33410 0.05330 -0.21800
N 	N 	0.55980 0.65350 0.37370 -0.22600
N 	N 	0.42450 0.19090 0.91490 -0.21000
N 	N 	0.35990 0.81070 0.66580 -0.23300
N 	N 	0.44940 0.17340 0.53060 -0.12500
N 	N 	0.64820 0.35950 0.43880 -0.12100
N 	N 	0.02120 0.33410 0.55330 -0.21800
N 	N 	0.94020 0.65350 0.87370 -0.22600
N 	N 	0.07550 0.19090 0.41490 -0.21000
N 	N 	0.14010 0.81070 0.16580 -0.23300
N 	N 	0.94940 0.82660 0.96940 -0.12500
N 	N 	0.14820 0.64050 0.06120 -0.12100
N 	N 	0.52120 0.66590 0.94670 -0.21800
N 	N 	0.44020 0.34650 0.62630 -0.22600
N 	N 	0.57550 0.80910 0.08510 -0.21000
N 	N 	0.64010 0.18930 0.33420 -0.23300
O 	O 	0.73930 0.75800 0.39630 -0.37300
O 	O 	0.94350 0.79070 0.46640 -0.34500
O 	O 	0.86980 0.85460 0.40560 -0.22500
O 	O 	0.36460 0.73300 0.43730 -0.37300
O 	O 	0.21300 0.76320 0.52880 -0.34000
O 	O 	0.19880 0.82120 0.45430 -0.20800
O 	O 	0.16230 0.71530 0.63670 -0.37600
O 	O 	0.95590 0.68340 0.56650 -0.34000
O 	O 	0.03880 0.61540 0.62500 -0.23500
O 	O 	0.54280 0.73660 0.59680 -0.38100
O 	O 	0.70640 0.64660 0.56600 -0.21600
O 	O 	0.67040 0.71350 0.50020 -0.36700
O 	O 	0.23930 0.24200 0.10370 -0.37300
O 	O 	0.44350 0.20930 0.03360 -0.34500
O 	O 	0.36980 0.14540 0.09440 -0.22500
O 	O 	0.86460 0.26700 0.06270 -0.37300
O 	O 	0.71300 0.23680 0.97120 -0.34100
O 	O 	0.69880 0.17880 0.04570 -0.20800
O 	O 	0.66230 0.28470 0.86330 -0.37600
O 	O 	0.45590 0.31660 0.93350 -0.34000
O 	O 	0.53880 0.38460 0.87500 -0.23500
O 	O 	0.04280 0.26340 0.90320 -0.38100
O 	O 	0.20640 0.35340 0.93400 -0.21600
O 	O 	0.17040 0.28650 0.99980 -0.36700
O 	O 	0.26070 0.24200 0.60370 -0.37300
O 	O 	0.05650 0.20930 0.53360 -0.34500
O 	O 	0.13020 0.14540 0.59440 -0.22500
O 	O 	0.63540 0.26700 0.56270 -0.37300
O 	O 	0.78700 0.23680 0.47120 -0.34000
O 	O 	0.80120 0.17880 0.54570 -0.20800
O 	O 	0.83770 0.28470 0.36330 -0.37600
O 	O 	0.04410 0.31660 0.43350 -0.34000
O 	O 	0.96120 0.38460 0.37500 -0.23500
O 	O 	0.45720 0.26340 0.40320 -0.38100
O 	O 	0.29360 0.35340 0.43400 -0.21600
O 	O 	0.32960 0.28650 0.49980 -0.36700
O 	O 	0.76070 0.75800 0.89630 -0.37300
O 	O 	0.55650 0.79070 0.96640 -0.34500
O 	O 	0.63020 0.85460 0.90560 -0.22500
O 	O 	0.13540 0.73300 0.93730 -0.37300
O 	O 	0.28700 0.76320 0.02880 -0.34100
O 	O 	0.30120 0.82120 0.95430 -0.20800
O 	O 	0.33770 0.71530 0.13670 -0.37600
O 	O 	0.54410 0.68340 0.06650 -0.34000
O 	O 	0.46120 0.61540 0.12500 -0.23500
O 	O 	0.95720 0.73660 0.09680 -0.38100
O 	O 	0.79360 0.64660 0.06600 -0.21600
O 	O 	0.82960 0.71350 0.00020 -0.36700
