data_crystal

_cell_length_a 10.54070
_cell_length_b 11.82660
_cell_length_c 14.11220
_cell_angle_alpha 106.87800
_cell_angle_beta  102.41100
_cell_angle_gamma 111.01100

_symmetry_space_group_name_	'P 1'
_symmetry_space_group_name_H-M	'P 1'

loop_
_symmetry_equiv_pos_as_xyz
  x,y,z

loop_
_atom_site_label
_atom_site_type_symbol
_atom_site_fract_x
_atom_site_fract_y
_atom_site_fract_z
_atom_site_charge
Co	Co	0.80670 0.50859 0.78733 1.20600
Co	Co	0.54880 0.76918 0.30993 1.22000
Co	Co	0.19330 0.49141 0.21267 1.20600
Co	Co	0.45120 0.23082 0.69007 1.22000
H 	H 	0.87800 0.82210 0.38570 0.00400
H 	H 	0.05460 0.80620 0.31950 0.08400
H 	H 	0.00250 0.72930 0.13770 0.02700
H 	H 	0.59340 0.66730 0.10080 0.02400
H 	H 	0.73260 0.99400 0.25010 -0.00400
H 	H 	0.84640 0.22040 0.31310 0.09000
H 	H 	0.83350 0.34630 0.46680 0.01300
H 	H 	0.61540 0.01200 0.49470 0.01500
H 	H 	0.97620 0.81000 0.86420 0.00000
H 	H 	0.00100 0.97760 0.80750 0.08400
H 	H 	0.86020 0.92790 0.63650 0.02100
H 	H 	0.69340 0.54630 0.58690 0.02100
H 	H 	0.07450 0.54230 0.70900 0.00200
H 	H 	0.31760 0.60540 0.77770 0.07600
H 	H 	0.43270 0.67980 0.95990 0.02900
H 	H 	0.04540 0.60400 0.98790 0.01600
H 	H 	0.58140 0.48140 0.78840 1.48400
H 	H 	0.52650 0.44830 0.69000 0.95900
H 	H 	0.12200 0.17790 0.61430 0.00500
H 	H 	0.94540 0.19380 0.68050 0.08500
H 	H 	0.99750 0.27070 0.86230 0.02700
H 	H 	0.40660 0.33270 0.89920 0.02400
H 	H 	0.26740 0.00600 0.74990 -0.00400
H 	H 	0.15360 0.77960 0.68690 0.09000
H 	H 	0.16650 0.65370 0.53320 0.01300
H 	H 	0.38460 0.98800 0.50530 0.01500
H 	H 	0.02380 0.19000 0.13580 0.00000
H 	H 	0.99900 0.02240 0.19250 0.08400
H 	H 	0.13980 0.07210 0.36350 0.02100
H 	H 	0.30660 0.45370 0.41310 0.02100
H 	H 	0.92550 0.45770 0.29100 0.00200
H 	H 	0.68240 0.39460 0.22230 0.07600
H 	H 	0.56730 0.32020 0.04010 0.02900
H 	H 	0.95460 0.39600 0.01210 0.01600
H 	H 	0.41860 0.51860 0.21160 1.48400
H 	H 	0.47350 0.55170 0.31000 0.95900
C 	C 	0.85460 0.78740 0.31260 0.07700
C 	C 	0.96200 0.77970 0.27340 -0.13700
C 	C 	0.93080 0.73260 0.16550 0.06800
C 	C 	0.79060 0.69040 0.09940 -0.13200
C 	C 	0.68840 0.69810 0.14540 0.07400
C 	C 	0.74210 0.63380 0.98010 0.37200
C 	C 	0.73100 0.04370 0.31400 0.09600
C 	C 	0.79730 0.17960 0.35050 -0.15900
C 	C 	0.79070 0.25450 0.44210 0.09200
C 	C 	0.71950 0.19150 0.49680 -0.15800
C 	C 	0.66060 0.05490 0.45670 0.10000
C 	C 	0.69890 0.26580 0.59410 0.40500
C 	C 	0.92160 0.78910 0.79490 0.07600
C 	C 	0.93620 0.89050 0.76170 -0.14100
C 	C 	0.85380 0.86100 0.66000 0.07100
C 	C 	0.76140 0.73010 0.59350 -0.13600
C 	C 	0.75480 0.63440 0.63210 0.07800
C 	C 	0.66640 0.69040 0.48090 0.38500
C 	C 	0.11860 0.56970 0.78160 0.08400
C 	C 	0.26450 0.60800 0.82240 -0.13800
C 	C 	0.33300 0.65090 0.93080 0.06800
C 	C 	0.24950 0.64950 0.99430 -0.14100
C 	C 	0.10220 0.60710 0.94570 0.08900
C 	C 	0.30650 0.68180 0.11090 0.38100
C 	C 	0.14540 0.21260 0.68740 0.07700
C 	C 	0.03800 0.22030 0.72660 -0.13700
C 	C 	0.06920 0.26740 0.83450 0.06800
C 	C 	0.20940 0.30960 0.90060 -0.13200
C 	C 	0.31160 0.30190 0.85460 0.07400
C 	C 	0.25790 0.36620 0.01990 0.37200
C 	C 	0.26900 0.95630 0.68600 0.09600
C 	C 	0.20270 0.82040 0.64950 -0.15900
C 	C 	0.20930 0.74550 0.55790 0.09200
C 	C 	0.28050 0.80850 0.50320 -0.15800
C 	C 	0.33940 0.94510 0.54330 0.10000
C 	C 	0.30110 0.73420 0.40590 0.40500
C 	C 	0.07840 0.21090 0.20510 0.07600
C 	C 	0.06380 0.10950 0.23830 -0.14100
C 	C 	0.14620 0.13900 0.34000 0.07100
C 	C 	0.23860 0.26990 0.40650 -0.13600
C 	C 	0.24520 0.36560 0.36790 0.07800
C 	C 	0.33360 0.30960 0.51910 0.38500
C 	C 	0.88140 0.43030 0.21840 0.08400
C 	C 	0.73550 0.39200 0.17760 -0.13800
C 	C 	0.66700 0.34910 0.06920 0.06800
C 	C 	0.75050 0.35050 0.00570 -0.14100
C 	C 	0.89780 0.39290 0.05430 0.08900
C 	C 	0.69350 0.31820 0.88910 0.38100
N 	N 	0.71860 0.74710 0.25007 -0.22200
N 	N 	0.66480 0.98120 0.36687 -0.22800
N 	N 	0.83250 0.66240 0.73170 -0.23000
N 	N 	0.03660 0.57030 0.84250 -0.22500
N 	N 	0.28140 0.25290 0.74993 -0.22200
N 	N 	0.33520 0.01880 0.63313 -0.22800
N 	N 	0.16750 0.33760 0.26830 -0.23000
N 	N 	0.96340 0.42970 0.15750 -0.22500
O 	O 	0.83700 0.63530 0.93974 -0.43300
O 	O 	0.60960 0.58670 0.92987 -0.40800
O 	O 	0.78270 0.38760 0.64073 -0.41200
O 	O 	0.60020 0.20010 0.61958 -0.39500
O 	O 	0.66650 0.78310 0.45485 -0.41800
O 	O 	0.59600 0.57020 0.42350 -0.39600
O 	O 	0.21480 0.63490 0.14962 -0.40200
O 	O 	0.44140 0.75160 0.16033 -0.40500
O 	O 	0.57400 0.44140 0.74252 -2.57200
O 	O 	0.16300 0.36470 0.06026 -0.43300
O 	O 	0.39040 0.41330 0.07013 -0.40800
O 	O 	0.21730 0.61240 0.35927 -0.41200
O 	O 	0.39980 0.79990 0.38042 -0.39500
O 	O 	0.33350 0.21690 0.54515 -0.41800
O 	O 	0.40400 0.42980 0.57650 -0.39600
O 	O 	0.78520 0.36510 0.85038 -0.40200
O 	O 	0.55860 0.24840 0.83967 -0.40500
O 	O 	0.42600 0.55860 0.25748 -2.57200
