data_crystal

_cell_length_a 10.66710
_cell_length_b 12.00630
_cell_length_c 14.06580
_cell_angle_alpha 106.71800
_cell_angle_beta  102.27900
_cell_angle_gamma 111.19000

_symmetry_space_group_name_	'P 1'
_symmetry_space_group_name_H-M	'P 1'

loop_
_symmetry_equiv_pos_as_xyz
  x,y,z

loop_
_atom_site_label
_atom_site_type_symbol
_atom_site_fract_x
_atom_site_fract_y
_atom_site_fract_z
_atom_site_charge
Co	Co	0.80651 0.50421 0.78597 1.18600
Co	Co	0.54787 0.76829 0.30975 1.18500
Co	Co	0.19349 0.49579 0.21403 1.18600
Co	Co	0.45213 0.23171 0.69025 1.18500
H 	H 	0.52300 0.44600 0.68600 0.43100
H 	H 	0.57500 0.47600 0.79300 0.61700
H 	H 	0.97460 0.79930 0.85900 -0.00000
H 	H 	0.87770 0.83320 0.38590 0.00500
H 	H 	0.05440 0.82240 0.32130 0.08300
H 	H 	0.00250 0.73660 0.13890 0.02800
H 	H 	0.59370 0.66040 0.09960 0.02600
H 	H 	0.72870 0.98880 0.24930 -0.00100
H 	H 	0.84010 0.21190 0.30890 0.08600
H 	H 	0.83660 0.33820 0.46720 0.01800
H 	H 	0.61950 0.01000 0.49880 0.01700
H 	H 	0.69770 0.53790 0.58070 0.02100
H 	H 	0.00340 0.96380 0.80080 0.08400
H 	H 	0.87030 0.91360 0.62770 0.02000
H 	H 	0.06670 0.53330 0.70600 0.00300
H 	H 	0.30620 0.58650 0.77010 0.08700
H 	H 	0.42400 0.66230 0.95300 0.03200
H 	H 	0.04770 0.60490 0.98920 0.01800
H 	H 	0.47700 0.55400 0.31400 0.43000
H 	H 	0.42500 0.52400 0.20700 0.61600
H 	H 	0.02540 0.20070 0.14100 -0.00000
H 	H 	0.12230 0.16680 0.61410 0.00500
H 	H 	0.94560 0.17760 0.67870 0.08300
H 	H 	0.99750 0.26340 0.86110 0.02800
H 	H 	0.40630 0.33960 0.90040 0.02600
H 	H 	0.27130 0.01120 0.75070 -0.00100
H 	H 	0.15990 0.78810 0.69110 0.08600
H 	H 	0.16340 0.66180 0.53280 0.01800
H 	H 	0.38050 0.99000 0.50120 0.01700
H 	H 	0.30230 0.46210 0.41930 0.02100
H 	H 	0.99660 0.03620 0.19920 0.08400
H 	H 	0.12970 0.08640 0.37230 0.02000
H 	H 	0.93330 0.46670 0.29400 0.00300
H 	H 	0.69380 0.41350 0.22990 0.08700
H 	H 	0.57600 0.33770 0.04700 0.03200
H 	H 	0.95230 0.39510 0.01080 0.01800
C 	C 	0.92230 0.77840 0.78910 0.08000
C 	C 	0.85430 0.79570 0.31290 0.07500
C 	C 	0.96160 0.79070 0.27450 -0.13100
C 	C 	0.93090 0.73870 0.16620 0.06200
C 	C 	0.79010 0.68960 0.09950 -0.12300
C 	C 	0.68830 0.69550 0.14471 0.07300
C 	C 	0.74180 0.62780 0.97994 0.35500
C 	C 	0.72870 0.03860 0.31360 0.08400
C 	C 	0.79460 0.17270 0.34840 -0.14500
C 	C 	0.79210 0.24770 0.44230 0.07900
C 	C 	0.72240 0.18640 0.49888 -0.14700
C 	C 	0.66310 0.05150 0.45969 0.09200
C 	C 	0.69980 0.26130 0.59430 0.39500
C 	C 	0.75840 0.62480 0.62559 0.08200
C 	C 	0.93960 0.87790 0.75510 -0.14200
C 	C 	0.86070 0.84790 0.65230 0.07100
C 	C 	0.76740 0.71960 0.58580 -0.13000
C 	C 	0.66920 0.68200 0.47560 0.36200
C 	C 	0.11200 0.56020 0.77850 0.08400
C 	C 	0.25610 0.59320 0.81650 -0.13700
C 	C 	0.32610 0.63700 0.92530 0.06800
C 	C 	0.24690 0.64220 0.99119 -0.13500
C 	C 	0.10160 0.60370 0.94528 0.08500
C 	C 	0.30700 0.67860 0.10914 0.37000
C 	C 	0.07770 0.22160 0.21090 0.08000
C 	C 	0.14570 0.20430 0.68710 0.07500
C 	C 	0.03840 0.20930 0.72550 -0.13100
C 	C 	0.06910 0.26130 0.83380 0.06200
C 	C 	0.20990 0.31040 0.90050 -0.12300
C 	C 	0.31170 0.30450 0.85529 0.07300
C 	C 	0.25820 0.37220 0.02006 0.35500
C 	C 	0.27130 0.96140 0.68640 0.08400
C 	C 	0.20540 0.82730 0.65160 -0.14500
C 	C 	0.20790 0.75230 0.55770 0.07900
C 	C 	0.27760 0.81360 0.50112 -0.14700
C 	C 	0.33690 0.94850 0.54031 0.09200
C 	C 	0.30020 0.73870 0.40570 0.39500
C 	C 	0.24160 0.37520 0.37441 0.08200
C 	C 	0.06040 0.12210 0.24490 -0.14200
C 	C 	0.13930 0.15210 0.34770 0.07100
C 	C 	0.23260 0.28040 0.41420 -0.13000
C 	C 	0.33080 0.31800 0.52440 0.36200
C 	C 	0.88800 0.43980 0.22150 0.08400
C 	C 	0.74390 0.40680 0.18350 -0.13700
C 	C 	0.67390 0.36300 0.07470 0.06800
C 	C 	0.75310 0.35780 0.00881 -0.13500
C 	C 	0.89840 0.39630 0.05472 0.08500
C 	C 	0.69300 0.32140 0.89086 0.37000
N 	N 	0.71750 0.74860 0.24944 -0.22100
N 	N 	0.66490 0.97720 0.36866 -0.22500
N 	N 	0.83390 0.65330 0.72631 -0.22900
N 	N 	0.03420 0.56510 0.84138 -0.22500
N 	N 	0.28250 0.25140 0.75056 -0.22100
N 	N 	0.33510 0.02280 0.63134 -0.22500
N 	N 	0.16610 0.34670 0.27369 -0.22900
N 	N 	0.96580 0.43490 0.15862 -0.22500
O 	O 	0.83667 0.63066 0.93920 -0.40900
O 	O 	0.60944 0.57540 0.93019 -0.34200
O 	O 	0.78341 0.38149 0.64037 -0.42400
O 	O 	0.59703 0.19768 0.61732 -0.40900
O 	O 	0.66540 0.77491 0.45201 -0.41100
O 	O 	0.59740 0.56360 0.41703 -0.33600
O 	O 	0.21720 0.63790 0.15104 -0.41300
O 	O 	0.44152 0.74653 0.15672 -0.41000
O 	O 	0.57605 0.43856 0.74178 -1.21800
O 	O 	0.16333 0.36934 0.06080 -0.40900
O 	O 	0.39056 0.42460 0.06981 -0.34200
O 	O 	0.21659 0.61851 0.35963 -0.42400
O 	O 	0.40297 0.80232 0.38268 -0.40900
O 	O 	0.33460 0.22509 0.54799 -0.41100
O 	O 	0.40260 0.43640 0.58297 -0.33600
O 	O 	0.78280 0.36210 0.84896 -0.41300
O 	O 	0.55848 0.25347 0.84328 -0.41000
O 	O 	0.42395 0.56144 0.25822 -1.21800
