data_crystal

_cell_length_a 10.87550
_cell_length_b 19.12900
_cell_length_c 19.37650
_cell_angle_alpha 90.00000
_cell_angle_beta  98.74500
_cell_angle_gamma 90.00000

_symmetry_space_group_name_	'P 1'
_symmetry_space_group_name_H-M	'P 1'

loop_
_symmetry_equiv_pos_as_xyz
  x,y,z

loop_
_atom_site_label
_atom_site_type_symbol
_atom_site_fract_x
_atom_site_fract_y
_atom_site_fract_z
_atom_site_charge
Eu	Eu	0.41420 0.62517 0.14254 1.65500
Eu	Eu	0.95155 0.62865 0.29777 1.15800
Eu	Eu	0.58580 0.12517 0.35746 1.65500
Eu	Eu	0.04845 0.12865 0.20223 1.15300
Eu	Eu	0.58580 0.37483 0.85746 1.65500
Eu	Eu	0.04845 0.37135 0.70223 1.15800
Eu	Eu	0.41420 0.87483 0.64254 1.65500
Eu	Eu	0.95155 0.87135 0.79777 1.15300
H 	H 	0.32480 0.49750 0.00750 0.04900
H 	H 	0.98510 0.47410 0.11580 0.01800
H 	H 	0.11760 0.38050 0.92460 0.23100
H 	H 	0.25920 0.40300 0.93290 0.21600
H 	H 	0.21760 0.34180 0.97950 0.22000
H 	H 	0.39820 0.78910 0.05010 0.06100
H 	H 	0.79600 0.81160 0.15970 0.00600
H 	H 	0.54690 0.91420 0.97640 0.17800
H 	H 	0.41210 0.89590 0.99250 0.18000
H 	H 	0.49480 0.95180 0.03870 0.17900
H 	H 	0.23750 0.68870 0.03770 0.23900
H 	H 	0.67520 0.99750 0.49250 0.05000
H 	H 	0.01490 0.97410 0.38420 0.02300
H 	H 	0.88240 0.88050 0.57540 0.23000
H 	H 	0.74080 0.90300 0.56710 0.21500
H 	H 	0.78240 0.84180 0.52050 0.22000
H 	H 	0.60180 0.28910 0.44990 0.06100
H 	H 	0.20400 0.31160 0.34030 0.00600
H 	H 	0.45310 0.41420 0.52360 0.18500
H 	H 	0.58790 0.39590 0.50750 0.18700
H 	H 	0.50520 0.45180 0.46130 0.18400
H 	H 	0.76250 0.18870 0.46230 0.23900
H 	H 	0.67520 0.50250 0.99250 0.05000
H 	H 	0.01490 0.52590 0.88420 0.01900
H 	H 	0.88240 0.61950 0.07540 0.23100
H 	H 	0.74080 0.59700 0.06710 0.21600
H 	H 	0.78240 0.65820 0.02050 0.22000
H 	H 	0.60180 0.21090 0.94990 0.06100
H 	H 	0.20400 0.18840 0.84030 0.00600
H 	H 	0.45310 0.08580 0.02360 0.17800
H 	H 	0.58790 0.10410 0.00750 0.18000
H 	H 	0.50520 0.04820 0.96130 0.17900
H 	H 	0.76250 0.31130 0.96230 0.23900
H 	H 	0.32480 0.00250 0.50750 0.05000
H 	H 	0.98510 0.02590 0.61580 0.02300
H 	H 	0.11760 0.11950 0.42460 0.23000
H 	H 	0.25920 0.09700 0.43290 0.21500
H 	H 	0.21760 0.15820 0.47950 0.22000
H 	H 	0.39820 0.71090 0.55010 0.06100
H 	H 	0.79600 0.68840 0.65970 0.00600
H 	H 	0.54690 0.58580 0.47640 0.18500
H 	H 	0.41210 0.60410 0.49250 0.18700
H 	H 	0.49480 0.54820 0.53870 0.18400
H 	H 	0.23750 0.81130 0.53770 0.23900
W 	W 	0.53698 0.33744 0.14545 0.52100
W 	W 	0.46302 0.83744 0.35455 0.52100
W 	W 	0.46302 0.66256 0.85455 0.52100
W 	W 	0.53698 0.16256 0.64545 0.52100
C 	C 	0.25630 0.49246 0.03135 -0.10400
C 	C 	0.17210 0.43842 0.01209 0.23500
C 	C 	0.05570 0.47752 0.09340 0.06600
C 	C 	0.14110 0.53011 0.11305 -0.09300
C 	C 	0.19350 0.38630 0.95740 -0.65700
C 	C 	0.12820 0.58044 0.17118 0.38100
C 	C 	0.48120 0.79225 0.07220 -0.09100
C 	C 	0.54980 0.85185 0.06157 0.22000
C 	C 	0.71460 0.80724 0.13556 0.06700
C 	C 	0.64800 0.74707 0.14355 -0.10100
C 	C 	0.49620 0.90840 0.01310 -0.58600
C 	C 	0.70220 0.68592 0.18552 0.39300
C 	C 	0.51620 0.44847 0.13092 -0.02900
C 	C 	0.46270 0.63634 0.96239 -0.02800
C 	C 	0.44250 0.75600 0.27806 -0.02600
C 	C 	0.35390 0.35630 0.17144 -0.05700
C 	C 	0.72670 0.37221 0.16301 -0.06200
C 	C 	0.56700 0.38587 0.24873 -0.04500
C 	C 	0.64810 0.25669 0.10538 -0.05400
C 	C 	0.40480 0.26235 0.09173 -0.05600
C 	C 	0.74370 0.99246 0.46865 -0.10600
C 	C 	0.82790 0.93842 0.48791 0.23500
C 	C 	0.94430 0.97752 0.40660 0.05700
C 	C 	0.85890 0.03011 0.38695 -0.08800
C 	C 	0.80650 0.88630 0.54260 -0.65800
C 	C 	0.87180 0.08044 0.32882 0.37900
C 	C 	0.51880 0.29225 0.42780 -0.09400
C 	C 	0.45020 0.35185 0.43843 0.22500
C 	C 	0.28540 0.30724 0.36444 0.06800
C 	C 	0.35200 0.24707 0.35645 -0.10100
C 	C 	0.50380 0.40840 0.48690 -0.60600
C 	C 	0.29780 0.18592 0.31448 0.39300
C 	C 	0.48380 0.94847 0.36908 -0.02800
C 	C 	0.53730 0.13634 0.53761 -0.02700
C 	C 	0.55750 0.25600 0.22194 -0.02600
C 	C 	0.64610 0.85630 0.32856 -0.05700
C 	C 	0.27330 0.87221 0.33699 -0.06200
C 	C 	0.43300 0.88587 0.25127 -0.04500
C 	C 	0.35190 0.75669 0.39462 -0.05400
C 	C 	0.59520 0.76235 0.40827 -0.05500
C 	C 	0.74370 0.50754 0.96865 -0.10400
C 	C 	0.82790 0.56158 0.98791 0.23500
C 	C 	0.94430 0.52248 0.90660 0.06600
C 	C 	0.85890 0.46989 0.88695 -0.09300
C 	C 	0.80650 0.61370 0.04260 -0.65700
C 	C 	0.87180 0.41956 0.82882 0.38100
C 	C 	0.51880 0.20775 0.92780 -0.09100
C 	C 	0.45020 0.14815 0.93843 0.22000
C 	C 	0.28540 0.19276 0.86444 0.06700
C 	C 	0.35200 0.25293 0.85645 -0.10100
C 	C 	0.50380 0.09160 0.98690 -0.58600
C 	C 	0.29780 0.31408 0.81448 0.39300
C 	C 	0.48380 0.55153 0.86908 -0.02900
C 	C 	0.53730 0.36366 0.03761 -0.02800
C 	C 	0.55750 0.24400 0.72194 -0.02600
C 	C 	0.64610 0.64370 0.82856 -0.05700
C 	C 	0.27330 0.62779 0.83699 -0.06200
C 	C 	0.43300 0.61413 0.75127 -0.04500
C 	C 	0.35190 0.74331 0.89462 -0.05400
C 	C 	0.59520 0.73765 0.90827 -0.05600
C 	C 	0.25630 0.00754 0.53135 -0.10600
C 	C 	0.17210 0.06158 0.51209 0.23500
C 	C 	0.05570 0.02248 0.59340 0.05700
C 	C 	0.14110 0.96989 0.61305 -0.08800
C 	C 	0.19350 0.11370 0.45740 -0.65800
C 	C 	0.12820 0.91956 0.67118 0.37900
C 	C 	0.48120 0.70775 0.57220 -0.09400
C 	C 	0.54980 0.64815 0.56157 0.22500
C 	C 	0.71460 0.69276 0.63556 0.06800
C 	C 	0.64800 0.75293 0.64355 -0.10100
C 	C 	0.49620 0.59160 0.51310 -0.60600
C 	C 	0.70220 0.81408 0.68552 0.39300
C 	C 	0.51620 0.05153 0.63092 -0.02800
C 	C 	0.46270 0.86366 0.46239 -0.02700
C 	C 	0.44250 0.74400 0.77806 -0.02600
C 	C 	0.35390 0.14370 0.67144 -0.05700
C 	C 	0.72670 0.12779 0.66301 -0.06200
C 	C 	0.56700 0.11413 0.74873 -0.04500
C 	C 	0.64810 0.24331 0.60538 -0.05400
C 	C 	0.40480 0.23765 0.59173 -0.05500
N 	N 	0.24300 0.53739 0.08239 -0.15800
N 	N 	0.07060 0.43139 0.04347 -0.16100
N 	N 	0.52920 0.74002 0.11241 -0.14900
N 	N 	0.66570 0.85978 0.09414 -0.17200
N 	N 	0.50740 0.50839 0.12643 -0.22500
N 	N 	0.45370 0.62366 0.01957 -0.22400
N 	N 	0.42470 0.71243 0.23668 -0.21800
N 	N 	0.25680 0.36506 0.18729 -0.10800
N 	N 	0.82810 0.39260 0.17278 -0.11200
N 	N 	0.58190 0.41423 0.30165 -0.12000
N 	N 	0.70960 0.21503 0.08512 -0.14200
N 	N 	0.33300 0.22239 0.06622 -0.13000
N 	N 	0.75700 0.03739 0.41761 -0.15800
N 	N 	0.92940 0.93139 0.45653 -0.15900
N 	N 	0.47080 0.24002 0.38759 -0.14800
N 	N 	0.33430 0.35978 0.40586 -0.17300
N 	N 	0.49260 0.00839 0.37357 -0.22500
N 	N 	0.54630 0.12366 0.48043 -0.22400
N 	N 	0.57530 0.21243 0.26332 -0.21800
N 	N 	0.74320 0.86506 0.31271 -0.10800
N 	N 	0.17190 0.89260 0.32722 -0.11200
N 	N 	0.41810 0.91423 0.19835 -0.12000
N 	N 	0.29040 0.71503 0.41488 -0.14200
N 	N 	0.66700 0.72239 0.43378 -0.12900
N 	N 	0.75700 0.46261 0.91761 -0.15800
N 	N 	0.92940 0.56861 0.95653 -0.16100
N 	N 	0.47080 0.25998 0.88759 -0.14900
N 	N 	0.33430 0.14022 0.90586 -0.17200
N 	N 	0.49260 0.49161 0.87357 -0.22500
N 	N 	0.54630 0.37634 0.98043 -0.22400
N 	N 	0.57530 0.28757 0.76332 -0.21800
N 	N 	0.74320 0.63494 0.81271 -0.10800
N 	N 	0.17190 0.60740 0.82722 -0.11200
N 	N 	0.41810 0.58577 0.69835 -0.12000
N 	N 	0.29040 0.78497 0.91488 -0.14200
N 	N 	0.66700 0.77761 0.93378 -0.13000
N 	N 	0.24300 0.96261 0.58239 -0.15800
N 	N 	0.07060 0.06861 0.54347 -0.15900
N 	N 	0.52920 0.75998 0.61241 -0.14800
N 	N 	0.66570 0.64022 0.59414 -0.17300
N 	N 	0.50740 0.99161 0.62643 -0.22500
N 	N 	0.45370 0.87634 0.51957 -0.22400
N 	N 	0.42470 0.78757 0.73668 -0.21800
N 	N 	0.25680 0.13494 0.68729 -0.10800
N 	N 	0.82810 0.10740 0.67278 -0.11200
N 	N 	0.58190 0.08577 0.80165 -0.12000
N 	N 	0.70960 0.28497 0.58512 -0.14200
N 	N 	0.33300 0.27761 0.56622 -0.12900
O 	O 	0.02720 0.58243 0.19468 -0.44400
O 	O 	0.22220 0.61739 0.19215 -0.46700
O 	O 	0.81230 0.69098 0.21603 -0.46100
O 	O 	0.63450 0.63260 0.18570 -0.49100
O 	O 	0.25410 0.70192 0.07885 -0.50200
O 	O 	0.97280 0.08243 0.30532 -0.44200
O 	O 	0.77780 0.11739 0.30785 -0.46700
O 	O 	0.18770 0.19098 0.28397 -0.46100
O 	O 	0.36550 0.13260 0.31430 -0.49100
O 	O 	0.74590 0.20192 0.42115 -0.50300
O 	O 	0.97280 0.41757 0.80532 -0.44400
O 	O 	0.77780 0.38261 0.80785 -0.46700
O 	O 	0.18770 0.30902 0.78397 -0.46100
O 	O 	0.36550 0.36740 0.81430 -0.49100
O 	O 	0.74590 0.29808 0.92115 -0.50200
O 	O 	0.02720 0.91757 0.69468 -0.44200
O 	O 	0.22220 0.88261 0.69215 -0.46700
O 	O 	0.81230 0.80902 0.71603 -0.46100
O 	O 	0.63450 0.86740 0.68570 -0.49100
O 	O 	0.25410 0.79808 0.57885 -0.50300
