data_crystal

_cell_length_a 10.92210
_cell_length_b 19.26600
_cell_length_c 19.45370
_cell_angle_alpha 90.00000
_cell_angle_beta  98.38500
_cell_angle_gamma 90.00000

_symmetry_space_group_name_	'P 1'
_symmetry_space_group_name_H-M	'P 1'

loop_
_symmetry_equiv_pos_as_xyz
  x,y,z

loop_
_atom_site_label
_atom_site_type_symbol
_atom_site_fract_x
_atom_site_fract_y
_atom_site_fract_z
_atom_site_charge
Nd	Nd	0.58499 0.37486 0.85784 1.70100
N 	N 	0.75710 0.46377 0.91766 -0.17100
C 	C 	0.74430 0.50920 0.96830 -0.10000
H 	H 	0.67560 0.50490 0.99200 0.04500
C 	C 	0.82860 0.56240 0.98720 0.22600
N 	N 	0.92990 0.56840 0.95600 -0.16400
C 	C 	0.94580 0.52250 0.90630 0.07100
H 	H 	0.01650 0.52560 0.88410 0.01300
C 	C 	0.85950 0.47040 0.88690 -0.10800
C 	C 	0.80740 0.61470 0.04110 -0.63000
H 	H 	0.87110 0.61000 0.08110 0.21400
H 	H 	0.72690 0.60690 0.05510 0.20300
H 	H 	0.81040 0.66100 0.02190 0.20500
C 	C 	0.87230 0.42010 0.82940 0.38400
O 	O 	0.97330 0.41804 0.80584 -0.46500
O 	O 	0.77940 0.38367 0.80802 -0.51900
N 	N 	0.46800 0.25919 0.88886 -0.17100
C 	C 	0.51550 0.20780 0.92910 -0.08000
H 	H 	0.59760 0.21150 0.95130 0.02000
C 	C 	0.44770 0.14800 0.93980 0.20100
N 	N 	0.33310 0.13990 0.90670 -0.17400
C 	C 	0.28460 0.19200 0.86590 0.06500
H 	H 	0.20350 0.18770 0.84230 -0.00200
C 	C 	0.35100 0.25210 0.85750 -0.10300
C 	C 	0.50120 0.09240 0.98830 -0.55500
H 	H 	0.44760 0.08460 0.02320 0.16300
H 	H 	0.58250 0.10650 0.01090 0.16400
H 	H 	0.50850 0.04980 0.96260 0.16400
C 	C 	0.29680 0.31220 0.81500 0.39300
O 	O 	0.18810 0.30659 0.78336 -0.48000
O 	O 	0.36370 0.36547 0.81437 -0.50600
N 	N 	0.48870 0.49207 0.87334 -0.23200
N 	N 	0.54480 0.37689 0.98200 -0.24200
N 	N 	0.57660 0.28650 0.76310 -0.24200
Nd	Nd	0.04936 0.37088 0.70113 1.24900
W 	W 	0.46159 0.66178 0.85331 0.52100
C 	C 	0.48060 0.55160 0.86800 -0.03200
C 	C 	0.53670 0.36410 0.03930 -0.03200
C 	C 	0.55890 0.24280 0.72250 -0.03500
C 	C 	0.64520 0.64290 0.82800 -0.05900
N 	N 	0.74230 0.63440 0.81240 -0.11200
C 	C 	0.27240 0.62730 0.83650 -0.07000
N 	N 	0.17100 0.60780 0.82670 -0.11900
C 	C 	0.43120 0.61380 0.75040 -0.05500
N 	N 	0.41480 0.58600 0.69760 -0.12900
C 	C 	0.35060 0.74200 0.89400 -0.05900
N 	N 	0.29000 0.78280 0.91490 -0.15500
C 	C 	0.59150 0.73720 0.90570 -0.05800
N 	N 	0.66130 0.77790 0.93100 -0.13600
Nd	Nd	0.41501 0.87486 0.64216 1.69900
N 	N 	0.24290 0.96377 0.58234 -0.17200
C 	C 	0.25570 0.00920 0.53170 -0.10200
H 	H 	0.32440 0.00490 0.50800 0.04400
C 	C 	0.17140 0.06240 0.51280 0.22600
N 	N 	0.07010 0.06840 0.54400 -0.16400
C 	C 	0.05420 0.02250 0.59370 0.06200
H 	H 	0.98350 0.02560 0.61590 0.01700
C 	C 	0.14050 0.97040 0.61310 -0.10400
C 	C 	0.19260 0.11470 0.45890 -0.63200
H 	H 	0.12890 0.11000 0.41890 0.21300
H 	H 	0.27310 0.10690 0.44490 0.20300
H 	H 	0.18960 0.16100 0.47810 0.20500
C 	C 	0.12770 0.92010 0.67060 0.38200
O 	O 	0.02670 0.91804 0.69416 -0.46300
O 	O 	0.22060 0.88367 0.69198 -0.51900
N 	N 	0.53200 0.75919 0.61114 -0.17000
C 	C 	0.48450 0.70780 0.57090 -0.08300
H 	H 	0.40240 0.71150 0.54870 0.02100
C 	C 	0.55230 0.64800 0.56020 0.20600
N 	N 	0.66690 0.63990 0.59330 -0.17500
C 	C 	0.71540 0.69200 0.63410 0.06500
H 	H 	0.79650 0.68770 0.65770 -0.00200
C 	C 	0.64900 0.75210 0.64250 -0.10300
C 	C 	0.49880 0.59240 0.51170 -0.57300
H 	H 	0.55240 0.58460 0.47680 0.17000
H 	H 	0.41750 0.60650 0.48910 0.17100
H 	H 	0.49150 0.54980 0.53740 0.16800
C 	C 	0.70320 0.81220 0.68500 0.39300
O 	O 	0.81190 0.80659 0.71664 -0.47900
O 	O 	0.63630 0.86547 0.68563 -0.50600
N 	N 	0.51130 0.99207 0.62666 -0.23300
N 	N 	0.45520 0.87689 0.51800 -0.24200
N 	N 	0.42340 0.78650 0.73690 -0.24200
Nd	Nd	0.95064 0.87088 0.79887 1.24300
W 	W 	0.53841 0.16178 0.64669 0.52000
C 	C 	0.51940 0.05160 0.63200 -0.03100
C 	C 	0.46330 0.86410 0.46070 -0.03100
C 	C 	0.44110 0.74280 0.77750 -0.03500
C 	C 	0.35480 0.14290 0.67200 -0.05900
N 	N 	0.25770 0.13440 0.68760 -0.11200
C 	C 	0.72760 0.12730 0.66350 -0.07000
N 	N 	0.82900 0.10780 0.67330 -0.11800
C 	C 	0.56880 0.11380 0.74960 -0.05400
N 	N 	0.58520 0.08600 0.80240 -0.12900
C 	C 	0.64940 0.24200 0.60600 -0.05900
N 	N 	0.71000 0.28280 0.58510 -0.15500
C 	C 	0.40850 0.23720 0.59430 -0.05800
N 	N 	0.33870 0.27790 0.56900 -0.13500
Nd	Nd	0.41501 0.62514 0.14216 1.70000
N 	N 	0.24290 0.53623 0.08234 -0.17200
C 	C 	0.25570 0.49080 0.03170 -0.10100
H 	H 	0.32440 0.49510 0.00800 0.04400
C 	C 	0.17140 0.43760 0.01280 0.22500
N 	N 	0.07010 0.43160 0.04400 -0.16500
C 	C 	0.05420 0.47750 0.09370 0.07000
H 	H 	0.98350 0.47440 0.11590 0.01200
C 	C 	0.14050 0.52960 0.11310 -0.10900
C 	C 	0.19260 0.38530 0.95890 -0.63100
H 	H 	0.12890 0.39000 0.91890 0.21400
H 	H 	0.27310 0.39310 0.94490 0.20300
H 	H 	0.18960 0.33900 0.97810 0.20500
C 	C 	0.12770 0.57990 0.17060 0.38400
O 	O 	0.02670 0.58196 0.19416 -0.46500
O 	O 	0.22060 0.61633 0.19198 -0.51900
N 	N 	0.53200 0.74081 0.11114 -0.17100
C 	C 	0.48450 0.79220 0.07090 -0.08000
H 	H 	0.40240 0.78850 0.04870 0.02000
C 	C 	0.55230 0.85200 0.06020 0.20100
N 	N 	0.66690 0.86010 0.09330 -0.17400
C 	C 	0.71540 0.80800 0.13410 0.06500
H 	H 	0.79650 0.81230 0.15770 -0.00200
C 	C 	0.64900 0.74790 0.14250 -0.10300
C 	C 	0.49880 0.90760 0.01170 -0.55500
H 	H 	0.55240 0.91540 0.97680 0.16300
H 	H 	0.41750 0.89350 0.98910 0.16400
H 	H 	0.49150 0.95020 0.03740 0.16400
C 	C 	0.70320 0.68780 0.18500 0.39300
O 	O 	0.81190 0.69341 0.21664 -0.48000
O 	O 	0.63630 0.63453 0.18563 -0.50600
N 	N 	0.51130 0.50793 0.12666 -0.23200
N 	N 	0.45520 0.62311 0.01800 -0.24200
N 	N 	0.42340 0.71350 0.23690 -0.24200
Nd	Nd	0.95064 0.62912 0.29887 1.24900
W 	W 	0.53841 0.33822 0.14669 0.52100
C 	C 	0.51940 0.44840 0.13200 -0.03200
C 	C 	0.46330 0.63590 0.96070 -0.03200
C 	C 	0.44110 0.75720 0.27750 -0.03500
C 	C 	0.35480 0.35710 0.17200 -0.05900
N 	N 	0.25770 0.36560 0.18760 -0.11200
C 	C 	0.72760 0.37270 0.16350 -0.07000
N 	N 	0.82900 0.39220 0.17330 -0.11900
C 	C 	0.56880 0.38620 0.24960 -0.05500
N 	N 	0.58520 0.41400 0.30240 -0.12900
C 	C 	0.64940 0.25800 0.10600 -0.05900
N 	N 	0.71000 0.21720 0.08510 -0.15500
C 	C 	0.40850 0.26280 0.09430 -0.05800
N 	N 	0.33870 0.22210 0.06900 -0.13600
Nd	Nd	0.58499 0.12514 0.35784 1.69900
N 	N 	0.75710 0.03623 0.41766 -0.17200
C 	C 	0.74430 0.99080 0.46830 -0.10200
H 	H 	0.67560 0.99510 0.49200 0.04400
C 	C 	0.82860 0.93760 0.48720 0.22600
N 	N 	0.92990 0.93160 0.45600 -0.16400
C 	C 	0.94580 0.97750 0.40630 0.06200
H 	H 	0.01650 0.97440 0.38410 0.01700
C 	C 	0.85950 0.02960 0.38690 -0.10400
C 	C 	0.80740 0.88530 0.54110 -0.63200
H 	H 	0.87110 0.89000 0.58110 0.21300
H 	H 	0.72690 0.89310 0.55510 0.20300
H 	H 	0.81040 0.83900 0.52190 0.20500
C 	C 	0.87230 0.07990 0.32940 0.38200
O 	O 	0.97330 0.08196 0.30584 -0.46300
O 	O 	0.77940 0.11633 0.30802 -0.51900
N 	N 	0.46800 0.24081 0.38886 -0.17000
C 	C 	0.51550 0.29220 0.42910 -0.08300
H 	H 	0.59760 0.28850 0.45130 0.02100
C 	C 	0.44770 0.35200 0.43980 0.20600
N 	N 	0.33310 0.36010 0.40670 -0.17500
C 	C 	0.28460 0.30800 0.36590 0.06500
H 	H 	0.20350 0.31230 0.34230 -0.00200
C 	C 	0.35100 0.24790 0.35750 -0.10300
C 	C 	0.50120 0.40760 0.48830 -0.57300
H 	H 	0.44760 0.41540 0.52320 0.17000
H 	H 	0.58250 0.39350 0.51090 0.17100
H 	H 	0.50850 0.45020 0.46260 0.16800
C 	C 	0.29680 0.18780 0.31500 0.39300
O 	O 	0.18810 0.19341 0.28336 -0.47900
O 	O 	0.36370 0.13453 0.31437 -0.50600
N 	N 	0.48870 0.00793 0.37334 -0.23300
N 	N 	0.54480 0.12311 0.48200 -0.24200
N 	N 	0.57660 0.21350 0.26310 -0.24200
Nd	Nd	0.04936 0.12912 0.20113 1.24300
W 	W 	0.46159 0.83822 0.35331 0.52000
C 	C 	0.48060 0.94840 0.36800 -0.03100
C 	C 	0.53670 0.13590 0.53930 -0.03100
C 	C 	0.55890 0.25720 0.22250 -0.03500
C 	C 	0.64520 0.85710 0.32800 -0.05900
N 	N 	0.74230 0.86560 0.31240 -0.11200
C 	C 	0.27240 0.87270 0.33650 -0.07000
N 	N 	0.17100 0.89220 0.32670 -0.11800
C 	C 	0.43120 0.88620 0.25040 -0.05400
N 	N 	0.41480 0.91400 0.19760 -0.12900
C 	C 	0.35060 0.75800 0.39400 -0.05900
N 	N 	0.29000 0.71720 0.41490 -0.15500
C 	C 	0.59150 0.76280 0.40570 -0.05800
N 	N 	0.66130 0.72210 0.43100 -0.13500
