data_crystal

_cell_length_a 8.46200
_cell_length_b 9.72100
_cell_length_c 17.26600
_cell_angle_alpha 90.00000
_cell_angle_beta  90.00000
_cell_angle_gamma 112.17000

_symmetry_space_group_name_	'P 1'
_symmetry_space_group_name_H-M	'P 1'

loop_
_symmetry_equiv_pos_as_xyz
  x,y,z

loop_
_atom_site_label
_atom_site_type_symbol
_atom_site_fract_x
_atom_site_fract_y
_atom_site_fract_z
_atom_site_charge
Dy	Dy	0.84353 0.52470 0.74222 1.75700
Dy	Dy	0.15647 0.97530 0.24222 1.73500
Dy	Dy	0.15647 0.47530 0.25778 1.76100
Dy	Dy	0.84353 0.02470 0.75778 1.73500
C 	C 	0.90500 0.52400 0.90210 0.32000
C 	C 	0.94400 0.52900 0.98630 -0.10000
C 	C 	0.13000 0.86700 0.78750 0.47400
C 	C 	0.31400 0.96200 0.78440 -0.13400
C 	C 	0.37500 0.10500 0.80200 -0.12900
C 	C 	0.56000 0.20100 0.79050 0.46100
C 	C 	0.09500 0.97600 0.40210 0.31700
C 	C 	0.05600 0.97100 0.48630 -0.11600
C 	C 	0.87000 0.63300 0.28750 0.47600
C 	C 	0.68600 0.53800 0.28440 -0.13700
C 	C 	0.62500 0.39500 0.30200 -0.12600
C 	C 	0.44000 0.29900 0.29050 0.46100
C 	C 	0.09500 0.47600 0.09790 0.32000
C 	C 	0.05600 0.47100 0.01370 -0.09900
C 	C 	0.87000 0.13300 0.21250 0.47500
C 	C 	0.68600 0.03800 0.21560 -0.13300
C 	C 	0.62500 0.89500 0.19800 -0.12900
C 	C 	0.44000 0.79900 0.20950 0.46100
C 	C 	0.90500 0.02400 0.59790 0.28900
C 	C 	0.94400 0.02900 0.51370 -0.03700
C 	C 	0.13000 0.36700 0.71250 0.47600
C 	C 	0.31400 0.46200 0.71560 -0.13700
C 	C 	0.37500 0.60500 0.69800 -0.12600
C 	C 	0.56000 0.70100 0.70950 0.46000
O 	O 	0.96300 0.45370 0.85560 -0.40900
O 	O 	0.81300 0.59140 0.87810 -0.37800
O 	O 	0.09000 0.73300 0.76920 -0.48600
O 	O 	0.02510 0.92410 0.80610 -0.53100
O 	O 	0.66100 0.14300 0.77100 -0.55500
O 	O 	0.60100 0.33830 0.79790 -0.47900
O 	O 	0.03700 0.04630 0.35560 -0.39100
O 	O 	0.18700 0.90860 0.37810 -0.37700
O 	O 	0.91000 0.76700 0.26920 -0.48100
O 	O 	0.97490 0.57590 0.30610 -0.53200
O 	O 	0.33900 0.35700 0.27100 -0.55400
O 	O 	0.39900 0.16170 0.29790 -0.47200
O 	O 	0.03700 0.54630 0.14440 -0.40900
O 	O 	0.18700 0.40860 0.12190 -0.37800
O 	O 	0.91000 0.26700 0.23080 -0.48600
O 	O 	0.97490 0.07590 0.19390 -0.53100
O 	O 	0.33900 0.85700 0.22900 -0.55500
O 	O 	0.39900 0.66170 0.20210 -0.47900
O 	O 	0.96300 0.95370 0.64440 -0.38900
O 	O 	0.81300 0.09140 0.62190 -0.36700
O 	O 	0.09000 0.23300 0.73080 -0.48100
O 	O 	0.02510 0.42410 0.69390 -0.53100
O 	O 	0.66100 0.64300 0.72900 -0.55400
O 	O 	0.60100 0.83830 0.70210 -0.47300
H 	H 	0.87965 0.58184 0.02839 0.06500
H 	H 	0.41075 0.91243 0.76614 0.06500
H 	H 	0.28660 0.15826 0.82654 0.06200
H 	H 	0.12035 0.91816 0.52839 0.06500
H 	H 	0.58925 0.58757 0.26614 0.06500
H 	H 	0.71340 0.34174 0.32654 0.06200
H 	H 	0.12035 0.41816 0.97161 0.06500
H 	H 	0.58925 0.08757 0.23386 0.06600
H 	H 	0.71340 0.84174 0.17346 0.06200
H 	H 	0.41075 0.41243 0.73386 0.06500
H 	H 	0.28660 0.65826 0.67346 0.06100
