data_crystal

_cell_length_a 14.22600
_cell_length_b 15.11700
_cell_length_c 17.55700
_cell_angle_alpha 90.00000
_cell_angle_beta  90.00000
_cell_angle_gamma 90.00000

_symmetry_space_group_name_	'P 1'
_symmetry_space_group_name_H-M	'P 1'

loop_
_symmetry_equiv_pos_as_xyz
  x,y,z

loop_
_atom_site_label
_atom_site_type_symbol
_atom_site_fract_x
_atom_site_fract_y
_atom_site_fract_z
_atom_site_charge
Zn	Zn	0.05320 0.72420 0.34100 1.28700
Al	Al	0.94470 0.40220 0.43770 2.39400
Al	Al	0.07660 0.10450 0.43060 2.39600
Al	Al	0.71110 0.65970 0.46220 2.39800
P 	P 	0.05010 0.90480 0.42620 0.68700
P 	P 	0.91500 0.60020 0.42500 0.76000
P 	P 	0.06080 0.72930 0.15880 0.77000
P 	P 	0.21480 0.66080 0.45060 0.74900
O 	O 	0.04320 0.00010 0.39750 -0.72800
O 	O 	0.94470 0.50840 0.39940 -0.78000
O 	O 	0.05230 0.83940 0.35700 -0.47900
O 	O 	0.05580 0.82850 0.13710 -0.78700
O 	O 	0.95060 0.67030 0.37030 -0.51800
O 	O 	0.97210 0.68310 0.12910 -0.79200
O 	O 	0.30300 0.60630 0.42700 -0.74300
O 	O 	0.80630 0.60530 0.43510 -0.80900
O 	O 	0.95730 0.61680 0.50490 -0.82700
O 	O 	0.96410 0.88260 0.47530 -0.77400
O 	O 	0.16170 0.60580 0.51020 -0.77000
O 	O 	0.07220 0.71580 0.24260 -0.48800
O 	O 	0.15140 0.67150 0.38170 -0.53200
O 	O 	0.24730 0.74630 0.48640 -0.79800
O 	O 	0.13970 0.89980 0.47700 -0.83000
O 	O 	0.14960 0.69360 0.11810 -0.80200
Zn	Zn	0.44680 0.27580 0.84100 1.28900
Al	Al	0.55530 0.59780 0.93770 2.39500
Al	Al	0.42340 0.89550 0.93060 2.39700
Al	Al	0.78890 0.34030 0.96220 2.39900
P 	P 	0.44990 0.09520 0.92620 0.71000
P 	P 	0.58500 0.39980 0.92500 0.76100
P 	P 	0.43920 0.27070 0.65880 0.78000
P 	P 	0.28520 0.33920 0.95060 0.75200
O 	O 	0.45680 0.99990 0.89750 -0.74200
O 	O 	0.55530 0.49160 0.89940 -0.78000
O 	O 	0.44770 0.16060 0.85700 -0.47600
O 	O 	0.44420 0.17150 0.63710 -0.78000
O 	O 	0.54940 0.32970 0.87030 -0.52300
O 	O 	0.52790 0.31690 0.62910 -0.80300
O 	O 	0.19700 0.39370 0.92700 -0.74100
O 	O 	0.69370 0.39470 0.93510 -0.81100
O 	O 	0.54270 0.38320 0.00490 -0.82800
O 	O 	0.53590 0.11740 0.97530 -0.78600
O 	O 	0.33830 0.39420 0.01020 -0.77200
O 	O 	0.42780 0.28420 0.74260 -0.48500
O 	O 	0.34860 0.32850 0.88170 -0.53000
O 	O 	0.25270 0.25370 0.98640 -0.79400
O 	O 	0.36030 0.10020 0.97700 -0.82500
O 	O 	0.35040 0.30640 0.61810 -0.80000
Zn	Zn	0.94680 0.22420 0.15900 1.28800
Al	Al	0.05530 0.90220 0.06230 2.39400
Al	Al	0.92340 0.60450 0.06940 2.39700
Al	Al	0.28890 0.15970 0.03780 2.39900
P 	P 	0.94990 0.40480 0.07380 0.71100
P 	P 	0.08500 0.10020 0.07500 0.75600
P 	P 	0.93920 0.22930 0.34120 0.77400
P 	P 	0.78520 0.16080 0.04940 0.75300
O 	O 	0.95680 0.50010 0.10250 -0.73700
O 	O 	0.05530 0.00840 0.10060 -0.77500
O 	O 	0.94770 0.33940 0.14300 -0.47600
O 	O 	0.94420 0.32850 0.36290 -0.78000
O 	O 	0.04940 0.17030 0.12970 -0.52100
O 	O 	0.02790 0.18310 0.37090 -0.79700
O 	O 	0.69700 0.10630 0.07300 -0.74500
O 	O 	0.19370 0.10530 0.06490 -0.80900
O 	O 	0.04270 0.11680 0.99510 -0.81500
O 	O 	0.03590 0.38260 0.02470 -0.79000
O 	O 	0.83830 0.10580 0.98980 -0.77900
O 	O 	0.92780 0.21580 0.25740 -0.48700
O 	O 	0.84860 0.17150 0.11830 -0.53300
O 	O 	0.75270 0.24630 0.01360 -0.79600
O 	O 	0.86030 0.39980 0.02300 -0.82600
O 	O 	0.85040 0.19360 0.38190 -0.80200
Zn	Zn	0.55320 0.77580 0.65900 1.28900
Al	Al	0.44470 0.09780 0.56230 2.39500
Al	Al	0.57660 0.39550 0.56940 2.39700
Al	Al	0.21110 0.84030 0.53780 2.39900
P 	P 	0.55010 0.59520 0.57380 0.70800
P 	P 	0.41500 0.89980 0.57500 0.76100
P 	P 	0.56080 0.77070 0.84120 0.78000
P 	P 	0.71480 0.83920 0.54940 0.75000
O 	O 	0.54320 0.49990 0.60250 -0.73900
O 	O 	0.44470 0.99160 0.60060 -0.78100
O 	O 	0.55230 0.66060 0.64300 -0.47600
O 	O 	0.55580 0.67150 0.86290 -0.78000
O 	O 	0.45060 0.82970 0.62970 -0.52300
O 	O 	0.47210 0.81690 0.87090 -0.80300
O 	O 	0.80300 0.89370 0.57300 -0.74100
O 	O 	0.30630 0.89470 0.56490 -0.81200
O 	O 	0.45730 0.88320 0.49510 -0.82900
O 	O 	0.46410 0.61740 0.52470 -0.78500
O 	O 	0.66170 0.89420 0.48980 -0.76800
O 	O 	0.57220 0.78420 0.75740 -0.48600
O 	O 	0.65140 0.82850 0.61830 -0.53000
O 	O 	0.74730 0.75370 0.51360 -0.79700
O 	O 	0.63970 0.60020 0.52300 -0.82800
O 	O 	0.64960 0.80640 0.88190 -0.80100
Zn	Zn	0.94680 0.27580 0.65900 1.28800
Al	Al	0.05530 0.59780 0.56230 2.39500
Al	Al	0.92340 0.89550 0.56940 2.39700
Al	Al	0.28890 0.34030 0.53780 2.39900
P 	P 	0.94990 0.09520 0.57380 0.68800
P 	P 	0.08500 0.39980 0.57500 0.76100
P 	P 	0.93920 0.27070 0.84120 0.77100
P 	P 	0.78520 0.33920 0.54940 0.75000
O 	O 	0.95680 0.99990 0.60250 -0.72700
O 	O 	0.05530 0.49160 0.60060 -0.77900
O 	O 	0.94770 0.16060 0.64300 -0.47900
O 	O 	0.94420 0.17150 0.86290 -0.78700
O 	O 	0.04940 0.32970 0.62970 -0.51800
O 	O 	0.02790 0.31690 0.87090 -0.79200
O 	O 	0.69700 0.39370 0.57300 -0.74300
O 	O 	0.19370 0.39470 0.56490 -0.80900
O 	O 	0.04270 0.38320 0.49510 -0.82700
O 	O 	0.03590 0.11740 0.52470 -0.77400
O 	O 	0.83830 0.39420 0.48980 -0.77000
O 	O 	0.92780 0.28420 0.75740 -0.48800
O 	O 	0.84860 0.32850 0.61830 -0.53200
O 	O 	0.75270 0.25370 0.51360 -0.79800
O 	O 	0.86030 0.10020 0.52300 -0.83000
O 	O 	0.85040 0.30640 0.88190 -0.80200
Zn	Zn	0.55320 0.72420 0.15900 1.28900
Al	Al	0.44470 0.40220 0.06230 2.39500
Al	Al	0.57660 0.10450 0.06940 2.39700
Al	Al	0.21110 0.65970 0.03780 2.39900
P 	P 	0.55010 0.90480 0.07380 0.71000
P 	P 	0.41500 0.60020 0.07500 0.76100
P 	P 	0.56080 0.72930 0.34120 0.78000
P 	P 	0.71480 0.66080 0.04940 0.75200
O 	O 	0.54320 0.00010 0.10250 -0.74200
O 	O 	0.44470 0.50840 0.10060 -0.78000
O 	O 	0.55230 0.83940 0.14300 -0.47600
O 	O 	0.55580 0.82850 0.36290 -0.78000
O 	O 	0.45060 0.67030 0.12970 -0.52300
O 	O 	0.47210 0.68310 0.37090 -0.80300
O 	O 	0.80300 0.60630 0.07300 -0.74100
O 	O 	0.30630 0.60530 0.06490 -0.81100
O 	O 	0.45730 0.61680 0.99510 -0.82800
O 	O 	0.46410 0.88260 0.02470 -0.78600
O 	O 	0.66170 0.60580 0.98980 -0.77200
O 	O 	0.57220 0.71580 0.25740 -0.48500
O 	O 	0.65140 0.67150 0.11830 -0.53000
O 	O 	0.74730 0.74630 0.01360 -0.79400
O 	O 	0.63970 0.89980 0.02300 -0.82500
O 	O 	0.64960 0.69360 0.38190 -0.80000
Zn	Zn	0.05320 0.77580 0.84100 1.28800
Al	Al	0.94470 0.09780 0.93770 2.39400
Al	Al	0.07660 0.39550 0.93060 2.39700
Al	Al	0.71110 0.84030 0.96220 2.39900
P 	P 	0.05010 0.59520 0.92620 0.71100
P 	P 	0.91500 0.89980 0.92500 0.75600
P 	P 	0.06080 0.77070 0.65880 0.77400
P 	P 	0.21480 0.83920 0.95060 0.75300
O 	O 	0.04320 0.49990 0.89750 -0.73700
O 	O 	0.94470 0.99160 0.89940 -0.77500
O 	O 	0.05230 0.66060 0.85700 -0.47600
O 	O 	0.05580 0.67150 0.63710 -0.78000
O 	O 	0.95060 0.82970 0.87030 -0.52100
O 	O 	0.97210 0.81690 0.62910 -0.79700
O 	O 	0.30300 0.89370 0.92700 -0.74500
O 	O 	0.80630 0.89470 0.93510 -0.80900
O 	O 	0.95730 0.88320 0.00490 -0.81500
O 	O 	0.96410 0.61740 0.97530 -0.79000
O 	O 	0.16170 0.89420 0.01020 -0.77900
O 	O 	0.07220 0.78420 0.74260 -0.48700
O 	O 	0.15140 0.82850 0.88170 -0.53300
O 	O 	0.24730 0.75370 0.98640 -0.79600
O 	O 	0.13970 0.60020 0.97700 -0.82600
O 	O 	0.14960 0.80640 0.61810 -0.80200
Zn	Zn	0.44680 0.22420 0.34100 1.28900
Al	Al	0.55530 0.90220 0.43770 2.39500
Al	Al	0.42340 0.60450 0.43060 2.39700
Al	Al	0.78890 0.15970 0.46220 2.39900
P 	P 	0.44990 0.40480 0.42620 0.70800
P 	P 	0.58500 0.10020 0.42500 0.76100
P 	P 	0.43920 0.22930 0.15880 0.78000
P 	P 	0.28520 0.16080 0.45060 0.75000
O 	O 	0.45680 0.50010 0.39750 -0.73900
O 	O 	0.55530 0.00840 0.39940 -0.78100
O 	O 	0.44770 0.33940 0.35700 -0.47600
O 	O 	0.44420 0.32850 0.13710 -0.78000
O 	O 	0.54940 0.17030 0.37030 -0.52300
O 	O 	0.52790 0.18310 0.12910 -0.80300
O 	O 	0.19700 0.10630 0.42700 -0.74100
O 	O 	0.69370 0.10530 0.43510 -0.81200
O 	O 	0.54270 0.11680 0.50490 -0.82900
O 	O 	0.53590 0.38260 0.47530 -0.78500
O 	O 	0.33830 0.10580 0.51020 -0.76800
O 	O 	0.42780 0.21580 0.24260 -0.48600
O 	O 	0.34860 0.17150 0.38170 -0.53000
O 	O 	0.25270 0.24630 0.48640 -0.79700
O 	O 	0.36030 0.39980 0.47700 -0.82800
O 	O 	0.35040 0.19360 0.11810 -0.80100
