data_crystal

_cell_length_a 19.75950
_cell_length_b 17.51760
_cell_length_c 22.16100
_cell_angle_alpha 90.00000
_cell_angle_beta  109.78600
_cell_angle_gamma 90.00000

_symmetry_space_group_name_	'P 1'
_symmetry_space_group_name_H-M	'P 1'

loop_
_symmetry_equiv_pos_as_xyz
  x,y,z

loop_
_atom_site_label
_atom_site_type_symbol
_atom_site_fract_x
_atom_site_fract_y
_atom_site_fract_z
_atom_site_charge
Cu	Cu	0.86724 0.82068 0.16592 0.84900
C 	C 	0.70980 0.09670 0.31732 -0.13900
H 	H 	0.72960 0.05670 0.34540 0.07000
C 	C 	0.68460 0.16070 0.33900 0.07400
H 	H 	0.68840 0.16270 0.38190 -0.02400
N 	N 	0.65490 0.22034 0.30140 -0.24200
C 	C 	0.64870 0.21450 0.24002 0.07600
H 	H 	0.62590 0.25380 0.21250 -0.01200
C 	C 	0.67430 0.15310 0.21470 -0.13800
H 	H 	0.67040 0.15290 0.17170 0.07200
C 	C 	0.70600 0.09160 0.25420 0.05200
C 	C 	0.73860 0.02690 0.23086 0.05500
C 	C 	0.77660 0.03960 0.18960 -0.14000
H 	H 	0.77920 0.08850 0.17420 0.06900
C 	C 	0.81050 0.97990 0.17150 0.05500
H 	H 	0.83690 0.99040 0.14490 -0.03100
N 	N 	0.80773 0.90758 0.18988 -0.24200
C 	C 	0.76870 0.89570 0.22786 0.07200
H 	H 	0.76430 0.84580 0.24030 -0.01700
C 	C 	0.73450 0.95260 0.25000 -0.14400
H 	H 	0.70920 0.94090 0.27730 0.07300
C 	C 	0.40560 0.49940 0.89100 -0.14400
H 	H 	0.36790 0.52280 0.90010 0.07300
C 	C 	0.33980 0.39310 0.04030 0.06700
H 	H 	0.29480 0.40320 0.04320 -0.02300
C 	C 	0.35560 0.42240 0.98900 -0.13600
C 	C 	0.42140 0.40790 0.98208 0.04900
C 	C 	0.44070 0.43850 0.92743 0.06200
C 	C 	0.49540 0.40650 0.91010 -0.14300
H 	H 	0.52170 0.36580 0.93350 0.07200
C 	C 	0.44910 0.33670 0.07880 0.06700
H 	H 	0.48200 0.30670 0.10970 -0.00800
C 	C 	0.46870 0.36300 0.02920 -0.13200
C 	C 	0.51120 0.43440 0.85830 0.07800
N 	N 	0.47711 0.49392 0.82322 -0.26200
H 	H 	0.51370 0.35090 0.02700 0.07000
C 	C 	0.42570 0.52580 0.84130 0.08400
N 	N 	0.38600 0.35070 0.08621 -0.25000
H 	H 	0.40210 0.56850 0.81890 -0.02200
H 	H 	0.54730 0.41070 0.84710 -0.03000
H 	H 	0.32180 0.45220 0.95870 0.06800
Cu	Cu	0.36724 0.32068 0.16592 0.84900
C 	C 	0.20980 0.59670 0.31732 -0.13800
H 	H 	0.22960 0.55670 0.34540 0.07000
C 	C 	0.18460 0.66070 0.33900 0.07300
H 	H 	0.18840 0.66270 0.38190 -0.02400
N 	N 	0.15490 0.72034 0.30140 -0.24200
C 	C 	0.14870 0.71450 0.24002 0.07600
H 	H 	0.12590 0.75380 0.21250 -0.01300
C 	C 	0.17430 0.65310 0.21470 -0.13800
H 	H 	0.17040 0.65290 0.17170 0.07100
C 	C 	0.20600 0.59160 0.25420 0.05200
C 	C 	0.23860 0.52690 0.23086 0.05400
C 	C 	0.27660 0.53960 0.18960 -0.14200
H 	H 	0.27920 0.58850 0.17420 0.07000
C 	C 	0.31050 0.47990 0.17150 0.05700
H 	H 	0.33690 0.49040 0.14490 -0.03100
N 	N 	0.30773 0.40758 0.18988 -0.24300
C 	C 	0.26870 0.39570 0.22786 0.07100
H 	H 	0.26430 0.34580 0.24030 -0.01700
C 	C 	0.23450 0.45260 0.25000 -0.14200
H 	H 	0.20920 0.44090 0.27730 0.07300
C 	C 	0.90560 0.99940 0.89100 -0.13100
H 	H 	0.86790 0.02280 0.90010 0.06800
C 	C 	0.83980 0.89310 0.04030 0.06500
H 	H 	0.79480 0.90320 0.04320 -0.02200
C 	C 	0.85560 0.92240 0.98900 -0.13500
C 	C 	0.92140 0.90790 0.98208 0.05400
C 	C 	0.94070 0.93850 0.92743 0.05100
C 	C 	0.99540 0.90650 0.91010 -0.12300
H 	H 	0.02170 0.86580 0.93350 0.06400
C 	C 	0.94910 0.83670 0.07880 0.06600
H 	H 	0.98200 0.80670 0.10970 -0.00700
C 	C 	0.96870 0.86300 0.02920 -0.13100
C 	C 	0.01120 0.93440 0.85830 0.06200
N 	N 	0.97711 0.99392 0.82322 -0.25500
H 	H 	0.01370 0.85090 0.02700 0.06700
C 	C 	0.92570 0.02580 0.84130 0.07500
N 	N 	0.88600 0.85070 0.08621 -0.25000
H 	H 	0.90210 0.06850 0.81890 -0.01900
H 	H 	0.04730 0.91070 0.84710 -0.02500
H 	H 	0.82180 0.95220 0.95870 0.06800
Cu	Cu	0.13276 0.82068 0.33408 0.84900
C 	C 	0.29020 0.09670 0.18268 -0.13800
H 	H 	0.27040 0.05670 0.15460 0.07100
C 	C 	0.31540 0.16070 0.16100 0.07400
H 	H 	0.31160 0.16270 0.11810 -0.02400
N 	N 	0.34510 0.22034 0.19860 -0.24200
C 	C 	0.35130 0.21450 0.25998 0.07600
H 	H 	0.37410 0.25380 0.28750 -0.01200
C 	C 	0.32570 0.15310 0.28530 -0.13800
H 	H 	0.32960 0.15290 0.32830 0.07200
C 	C 	0.29400 0.09160 0.24580 0.05200
C 	C 	0.26140 0.02690 0.26914 0.05500
C 	C 	0.22340 0.03960 0.31040 -0.14200
H 	H 	0.22080 0.08850 0.32580 0.06900
C 	C 	0.18950 0.97990 0.32850 0.05600
H 	H 	0.16310 0.99040 0.35510 -0.03100
N 	N 	0.19227 0.90758 0.31012 -0.24300
C 	C 	0.23130 0.89570 0.27214 0.07200
H 	H 	0.23570 0.84580 0.25970 -0.01700
C 	C 	0.26550 0.95260 0.25000 -0.14400
H 	H 	0.29080 0.94090 0.22270 0.07300
C 	C 	0.59440 0.49940 0.60900 -0.14400
H 	H 	0.63210 0.52280 0.59990 0.07400
C 	C 	0.66020 0.39310 0.45970 0.06600
H 	H 	0.70520 0.40320 0.45680 -0.02200
C 	C 	0.64440 0.42240 0.51100 -0.13500
C 	C 	0.57860 0.40790 0.51792 0.04900
C 	C 	0.55930 0.43850 0.57257 0.06200
C 	C 	0.50460 0.40650 0.58990 -0.14300
H 	H 	0.47830 0.36580 0.56650 0.07200
C 	C 	0.55090 0.33670 0.42120 0.06700
H 	H 	0.51800 0.30670 0.39030 -0.00800
C 	C 	0.53130 0.36300 0.47080 -0.13200
C 	C 	0.48880 0.43440 0.64170 0.07800
N 	N 	0.52289 0.49392 0.67678 -0.26200
H 	H 	0.48630 0.35090 0.47300 0.07000
C 	C 	0.57430 0.52580 0.65870 0.08400
N 	N 	0.61400 0.35070 0.41379 -0.25000
H 	H 	0.59790 0.56850 0.68110 -0.02200
H 	H 	0.45270 0.41070 0.65290 -0.03000
H 	H 	0.67820 0.45220 0.54130 0.06800
Cu	Cu	0.63276 0.32068 0.33408 0.84900
C 	C 	0.79020 0.59670 0.18268 -0.13800
H 	H 	0.77040 0.55670 0.15460 0.07100
C 	C 	0.81540 0.66070 0.16100 0.07400
H 	H 	0.81160 0.66270 0.11810 -0.02400
N 	N 	0.84510 0.72034 0.19860 -0.24200
C 	C 	0.85130 0.71450 0.25998 0.07600
H 	H 	0.87410 0.75380 0.28750 -0.01200
C 	C 	0.82570 0.65310 0.28530 -0.13800
H 	H 	0.82960 0.65290 0.32830 0.07200
C 	C 	0.79400 0.59160 0.24580 0.05200
C 	C 	0.76140 0.52690 0.26914 0.05500
C 	C 	0.72340 0.53960 0.31040 -0.14200
H 	H 	0.72080 0.58850 0.32580 0.07000
C 	C 	0.68950 0.47990 0.32850 0.05700
H 	H 	0.66310 0.49040 0.35510 -0.03100
N 	N 	0.69227 0.40758 0.31012 -0.24300
C 	C 	0.73130 0.39570 0.27214 0.07200
H 	H 	0.73570 0.34580 0.25970 -0.01700
C 	C 	0.76550 0.45260 0.25000 -0.14200
H 	H 	0.79080 0.44090 0.22270 0.07300
C 	C 	0.09440 0.99940 0.60900 -0.14500
H 	H 	0.13210 0.02280 0.59990 0.07300
C 	C 	0.16020 0.89310 0.45970 0.06700
H 	H 	0.20520 0.90320 0.45680 -0.02300
C 	C 	0.14440 0.92240 0.51100 -0.13600
C 	C 	0.07860 0.90790 0.51792 0.04900
C 	C 	0.05930 0.93850 0.57257 0.06500
C 	C 	0.00460 0.90650 0.58990 -0.15800
H 	H 	0.97830 0.86580 0.56650 0.07900
C 	C 	0.05090 0.83670 0.42120 0.07000
H 	H 	0.01800 0.80670 0.39030 -0.01000
C 	C 	0.03130 0.86300 0.47080 -0.13900
C 	C 	0.98880 0.93440 0.64170 0.09000
N 	N 	0.02289 0.99392 0.67678 -0.26400
H 	H 	0.98630 0.85090 0.47300 0.07400
C 	C 	0.07430 0.02580 0.65870 0.08300
N 	N 	0.11400 0.85070 0.41379 -0.25100
H 	H 	0.09790 0.06850 0.68110 -0.02300
H 	H 	0.95270 0.91070 0.65290 -0.03400
H 	H 	0.17820 0.95220 0.54130 0.06800
Cl	Cl	0.50000 0.66573 0.75000 -0.69600
Cl	Cl	0.00000 0.16573 0.75000 -0.69800
Cu	Cu	0.50000 0.53255 0.75000 0.84000
Cu	Cu	0.00000 0.03255 0.75000 0.83900
Cu	Cu	0.13276 0.17932 0.83408 0.84900
C 	C 	0.29020 0.90330 0.68268 -0.13800
H 	H 	0.27040 0.94330 0.65460 0.07100
C 	C 	0.31540 0.83930 0.66100 0.07400
H 	H 	0.31160 0.83730 0.61810 -0.02400
N 	N 	0.34510 0.77966 0.69860 -0.24200
C 	C 	0.35130 0.78550 0.75998 0.07600
H 	H 	0.37410 0.74620 0.78750 -0.01200
C 	C 	0.32570 0.84690 0.78530 -0.13800
H 	H 	0.32960 0.84710 0.82830 0.07200
C 	C 	0.29400 0.90840 0.74580 0.05200
C 	C 	0.26140 0.97310 0.76914 0.05500
C 	C 	0.22340 0.96040 0.81040 -0.14000
H 	H 	0.22080 0.91150 0.82580 0.06900
C 	C 	0.18950 0.02010 0.82850 0.05500
H 	H 	0.16310 0.00960 0.85510 -0.03100
N 	N 	0.19227 0.09242 0.81012 -0.24300
C 	C 	0.23130 0.10430 0.77214 0.07200
H 	H 	0.23570 0.15420 0.75970 -0.01700
C 	C 	0.26550 0.04740 0.75000 -0.14400
H 	H 	0.29080 0.05910 0.72270 0.07300
C 	C 	0.59440 0.50060 0.10900 -0.14400
H 	H 	0.63210 0.47720 0.09990 0.07400
C 	C 	0.66020 0.60690 0.95970 0.06700
H 	H 	0.70520 0.59680 0.95680 -0.02200
C 	C 	0.64440 0.57760 0.01100 -0.13500
C 	C 	0.57860 0.59210 0.01792 0.04900
C 	C 	0.55930 0.56150 0.07257 0.06200
C 	C 	0.50460 0.59350 0.08990 -0.14300
H 	H 	0.47830 0.63420 0.06650 0.07200
C 	C 	0.55090 0.66330 0.92120 0.06700
H 	H 	0.51800 0.69330 0.89030 -0.00800
C 	C 	0.53130 0.63700 0.97080 -0.13200
C 	C 	0.48880 0.56560 0.14170 0.07800
N 	N 	0.52289 0.50608 0.17678 -0.26200
H 	H 	0.48630 0.64910 0.97300 0.07000
C 	C 	0.57430 0.47420 0.15870 0.08400
N 	N 	0.61400 0.64930 0.91379 -0.25000
H 	H 	0.59790 0.43150 0.18110 -0.02200
H 	H 	0.45270 0.58930 0.15290 -0.03100
H 	H 	0.67820 0.54780 0.04130 0.06800
Cu	Cu	0.63276 0.67932 0.83408 0.84900
C 	C 	0.79020 0.40330 0.68268 -0.13800
H 	H 	0.77040 0.44330 0.65460 0.07100
C 	C 	0.81540 0.33930 0.66100 0.07400
H 	H 	0.81160 0.33730 0.61810 -0.02400
N 	N 	0.84510 0.27966 0.69860 -0.24200
C 	C 	0.85130 0.28550 0.75998 0.07600
H 	H 	0.87410 0.24620 0.78750 -0.01200
C 	C 	0.82570 0.34690 0.78530 -0.13800
H 	H 	0.82960 0.34710 0.82830 0.07200
C 	C 	0.79400 0.40840 0.74580 0.05200
C 	C 	0.76140 0.47310 0.76914 0.05500
C 	C 	0.72340 0.46040 0.81040 -0.14200
H 	H 	0.72080 0.41150 0.82580 0.07000
C 	C 	0.68950 0.52010 0.82850 0.05700
H 	H 	0.66310 0.50960 0.85510 -0.03100
N 	N 	0.69227 0.59242 0.81012 -0.24300
C 	C 	0.73130 0.60430 0.77214 0.07200
H 	H 	0.73570 0.65420 0.75970 -0.01700
C 	C 	0.76550 0.54740 0.75000 -0.14200
H 	H 	0.79080 0.55910 0.72270 0.07300
C 	C 	0.09440 0.00060 0.10900 -0.14100
H 	H 	0.13210 0.97720 0.09990 0.07100
C 	C 	0.16020 0.10690 0.95970 0.06400
H 	H 	0.20520 0.09680 0.95680 -0.02200
C 	C 	0.14440 0.07760 0.01100 -0.13400
C 	C 	0.07860 0.09210 0.01792 0.05300
C 	C 	0.05930 0.06150 0.07257 0.06300
C 	C 	0.00460 0.09350 0.08990 -0.15600
H 	H 	0.97830 0.13420 0.06650 0.07900
C 	C 	0.05090 0.16330 0.92120 0.07200
H 	H 	0.01800 0.19330 0.89030 -0.01100
C 	C 	0.03130 0.13700 0.97080 -0.14400
C 	C 	0.98880 0.06560 0.14170 0.09000
N 	N 	0.02289 0.00608 0.17678 -0.26400
H 	H 	0.98630 0.14910 0.97300 0.07600
C 	C 	0.07430 0.97420 0.15870 0.08000
N 	N 	0.11400 0.14930 0.91379 -0.25100
H 	H 	0.09790 0.93150 0.18110 -0.02200
H 	H 	0.95270 0.08930 0.15290 -0.03400
H 	H 	0.17820 0.04780 0.04130 0.06800
Cu	Cu	0.86724 0.17932 0.66592 0.85000
C 	C 	0.70980 0.90330 0.81732 -0.13800
H 	H 	0.72960 0.94330 0.84540 0.07100
C 	C 	0.68460 0.83930 0.83900 0.07400
H 	H 	0.68840 0.83730 0.88190 -0.02400
N 	N 	0.65490 0.77966 0.80140 -0.24200
C 	C 	0.64870 0.78550 0.74002 0.07600
H 	H 	0.62590 0.74620 0.71250 -0.01200
C 	C 	0.67430 0.84690 0.71470 -0.13800
H 	H 	0.67040 0.84710 0.67170 0.07200
C 	C 	0.70600 0.90840 0.75420 0.05200
C 	C 	0.73860 0.97310 0.73086 0.05500
C 	C 	0.77660 0.96040 0.68960 -0.14200
H 	H 	0.77920 0.91150 0.67420 0.07000
C 	C 	0.81050 0.02010 0.67150 0.05600
H 	H 	0.83690 0.00960 0.64490 -0.03100
N 	N 	0.80773 0.09242 0.68988 -0.24300
C 	C 	0.76870 0.10430 0.72786 0.07200
H 	H 	0.76430 0.15420 0.74030 -0.01700
C 	C 	0.73450 0.04740 0.75000 -0.14400
H 	H 	0.70920 0.05910 0.77730 0.07300
C 	C 	0.40560 0.50060 0.39100 -0.14400
H 	H 	0.36790 0.47720 0.40010 0.07300
C 	C 	0.33980 0.60690 0.54030 0.06600
H 	H 	0.29480 0.59680 0.54320 -0.02300
C 	C 	0.35560 0.57760 0.48900 -0.13500
C 	C 	0.42140 0.59210 0.48208 0.04900
C 	C 	0.44070 0.56150 0.42743 0.06100
C 	C 	0.49540 0.59350 0.41010 -0.14300
H 	H 	0.52170 0.63420 0.43350 0.07200
C 	C 	0.44910 0.66330 0.57880 0.06700
H 	H 	0.48200 0.69330 0.60970 -0.00800
C 	C 	0.46870 0.63700 0.52920 -0.13200
C 	C 	0.51120 0.56560 0.35830 0.07800
N 	N 	0.47711 0.50608 0.32322 -0.26200
H 	H 	0.51370 0.64910 0.52700 0.07000
C 	C 	0.42570 0.47420 0.34130 0.08400
N 	N 	0.38600 0.64930 0.58621 -0.25000
H 	H 	0.40210 0.43150 0.31890 -0.02200
H 	H 	0.54730 0.58930 0.34710 -0.03000
H 	H 	0.32180 0.54780 0.45870 0.06800
Cu	Cu	0.36724 0.67932 0.66592 0.84900
C 	C 	0.20980 0.40330 0.81732 -0.13800
H 	H 	0.22960 0.44330 0.84540 0.07000
C 	C 	0.18460 0.33930 0.83900 0.07300
H 	H 	0.18840 0.33730 0.88190 -0.02400
N 	N 	0.15490 0.27966 0.80140 -0.24200
C 	C 	0.14870 0.28550 0.74002 0.07500
H 	H 	0.12590 0.24620 0.71250 -0.01300
C 	C 	0.17430 0.34690 0.71470 -0.13800
H 	H 	0.17040 0.34710 0.67170 0.07100
C 	C 	0.20600 0.40840 0.75420 0.05200
C 	C 	0.23860 0.47310 0.73086 0.05400
C 	C 	0.27660 0.46040 0.68960 -0.14200
H 	H 	0.27920 0.41150 0.67420 0.07000
C 	C 	0.31050 0.52010 0.67150 0.05700
H 	H 	0.33690 0.50960 0.64490 -0.03100
N 	N 	0.30773 0.59242 0.68988 -0.24300
C 	C 	0.26870 0.60430 0.72786 0.07100
H 	H 	0.26430 0.65420 0.74030 -0.01700
C 	C 	0.23450 0.54740 0.75000 -0.14200
H 	H 	0.20920 0.55910 0.77730 0.07300
C 	C 	0.90560 0.00060 0.39100 -0.13500
H 	H 	0.86790 0.97720 0.40010 0.07000
C 	C 	0.83980 0.10690 0.54030 0.06700
H 	H 	0.79480 0.09680 0.54320 -0.02300
C 	C 	0.85560 0.07760 0.48900 -0.13600
C 	C 	0.92140 0.09210 0.48208 0.05100
C 	C 	0.94070 0.06150 0.42743 0.05300
C 	C 	0.99540 0.09350 0.41010 -0.12400
H 	H 	0.02170 0.13420 0.43350 0.06400
C 	C 	0.94910 0.16330 0.57880 0.06400
H 	H 	0.98200 0.19330 0.60970 -0.00600
C 	C 	0.96870 0.13700 0.52920 -0.12600
C 	C 	0.01120 0.06560 0.35830 0.06200
N 	N 	0.97711 0.00608 0.32322 -0.25500
H 	H 	0.01370 0.14910 0.52700 0.06600
C 	C 	0.92570 0.97420 0.34130 0.07800
N 	N 	0.88600 0.14930 0.58621 -0.24900
H 	H 	0.90210 0.93150 0.31890 -0.02000
H 	H 	0.04730 0.08930 0.34710 -0.02600
H 	H 	0.82180 0.04780 0.45870 0.06800
Cl	Cl	0.50000 0.33427 0.25000 -0.69600
Cl	Cl	0.00000 0.83427 0.25000 -0.69800
Cu	Cu	0.50000 0.46745 0.25000 0.84000
Cu	Cu	0.00000 0.96745 0.25000 0.83900
