data_crystal

_cell_length_a 19.74800
_cell_length_b 17.49400
_cell_length_c 22.16000
_cell_angle_alpha 90.00000
_cell_angle_beta  109.83000
_cell_angle_gamma 90.00000

_symmetry_space_group_name_	'P 1'
_symmetry_space_group_name_H-M	'P 1'

loop_
_symmetry_equiv_pos_as_xyz
  x,y,z

loop_
_atom_site_label
_atom_site_type_symbol
_atom_site_fract_x
_atom_site_fract_y
_atom_site_fract_z
_atom_site_charge
Cu	Cu	0.13266 0.82063 0.33404 0.84800
N 	N 	0.15507 0.72043 0.30149 -0.24800
N 	N 	0.02252 0.99372 0.67653 -0.27000
C 	C 	0.20633 0.59223 0.25420 0.10300
C 	C 	0.17420 0.65294 0.21447 -0.17000
H 	H 	0.16980 0.65230 0.17140 0.08700
N 	N 	0.30780 0.40774 0.18978 -0.21900
C 	C 	0.26878 0.39500 0.22801 0.00600
H 	H 	0.26450 0.34490 0.24030 0.00900
N 	N 	0.11413 0.85060 0.41390 -0.24700
C 	C 	0.05916 0.93854 0.57265 0.05900
C 	C 	0.27720 0.54070 0.18994 -0.02400
C 	C 	0.14870 0.71409 0.23952 0.09000
H 	H 	0.12580 0.75330 0.21180 -0.01700
C 	C 	0.23455 0.45198 0.25026 -0.02000
C 	C 	0.23876 0.52706 0.23087 -0.03400
C 	C 	0.07440 0.02640 0.65878 0.08400
H 	H 	0.09820 0.06890 0.68150 -0.02100
C 	C 	0.18470 0.66040 0.33924 0.09000
H 	H 	0.18850 0.66230 0.38220 -0.02800
C 	C 	0.07841 0.90792 0.51767 0.04800
C 	C 	0.09415 0.00000 0.60851 -0.13600
H 	H 	0.13130 0.02370 0.59880 0.07400
C 	C 	0.20950 0.59650 0.31735 -0.16900
H 	H 	0.22860 0.55600 0.34510 0.08500
C 	C 	0.05050 0.83600 0.42050 0.06100
H 	H 	0.01770 0.80590 0.38960 -0.00700
C 	C 	0.98950 0.93420 0.64230 0.09400
H 	H 	0.95390 0.91000 0.65400 -0.03500
C 	C 	0.03082 0.86320 0.47090 -0.13300
H 	H 	0.98580 0.85140 0.47320 0.07200
C 	C 	0.16073 0.89370 0.46014 0.06000
H 	H 	0.20580 0.90380 0.45740 -0.02000
C 	C 	0.00460 0.90570 0.59025 -0.15900
H 	H 	0.97840 0.86470 0.56710 0.08000
C 	C 	0.14433 0.92320 0.51116 -0.13200
H 	H 	0.17770 0.95360 0.54130 0.06600
C 	C 	0.31100 0.48020 0.17139 -0.00700
H 	H 	0.33740 0.49050 0.14470 -0.00700
Cu	Cu	0.63266 0.32063 0.33404 0.85000
N 	N 	0.65507 0.22043 0.30149 -0.24700
N 	N 	0.52252 0.49372 0.67653 -0.26100
C 	C 	0.70633 0.09223 0.25420 0.10300
C 	C 	0.67420 0.15294 0.21447 -0.16800
H 	H 	0.66980 0.15230 0.17140 0.08700
N 	N 	0.80780 0.90774 0.18978 -0.21800
C 	C 	0.76878 0.89500 0.22801 0.00700
H 	H 	0.76450 0.84490 0.24030 0.00800
N 	N 	0.61413 0.35060 0.41390 -0.24600
C 	C 	0.55916 0.43854 0.57265 0.06300
C 	C 	0.77720 0.04070 0.18994 -0.01600
C 	C 	0.64870 0.21409 0.23952 0.09100
H 	H 	0.62580 0.25330 0.21180 -0.01600
C 	C 	0.73455 0.95198 0.25026 -0.02900
C 	C 	0.73876 0.02706 0.23087 -0.02700
C 	C 	0.57440 0.52640 0.65878 0.07900
H 	H 	0.59820 0.56890 0.68150 -0.02000
C 	C 	0.68470 0.16040 0.33924 0.09000
H 	H 	0.68850 0.16230 0.38220 -0.02800
C 	C 	0.57841 0.40792 0.51767 0.04600
C 	C 	0.59415 0.50000 0.60851 -0.14200
H 	H 	0.63130 0.52370 0.59880 0.07400
C 	C 	0.70950 0.09650 0.31735 -0.16800
H 	H 	0.72860 0.05600 0.34510 0.08700
C 	C 	0.55050 0.33600 0.42050 0.05800
H 	H 	0.51770 0.30590 0.38960 -0.00500
C 	C 	0.48950 0.43420 0.64230 0.08400
H 	H 	0.45390 0.41000 0.65400 -0.03100
C 	C 	0.53082 0.36320 0.47090 -0.12500
H 	H 	0.48580 0.35140 0.47320 0.06800
C 	C 	0.66073 0.39370 0.46014 0.06000
H 	H 	0.70580 0.40380 0.45740 -0.01800
C 	C 	0.50460 0.40570 0.59025 -0.14600
H 	H 	0.47840 0.36470 0.56710 0.07500
C 	C 	0.64433 0.42320 0.51116 -0.13000
H 	H 	0.67770 0.45360 0.54130 0.06700
C 	C 	0.81100 0.98020 0.17139 -0.01800
H 	H 	0.83740 0.99050 0.14470 -0.00600
Cu	Cu	0.86734 0.82063 0.16596 0.85000
N 	N 	0.84493 0.72043 0.19851 -0.24700
N 	N 	0.97748 0.99372 0.82347 -0.26000
C 	C 	0.79367 0.59223 0.24580 0.10400
C 	C 	0.82580 0.65294 0.28553 -0.16900
H 	H 	0.83020 0.65230 0.32860 0.08700
N 	N 	0.69220 0.40774 0.31022 -0.21900
C 	C 	0.73122 0.39500 0.27199 0.00600
H 	H 	0.73550 0.34490 0.25970 0.00900
N 	N 	0.88587 0.85060 0.08610 -0.24600
C 	C 	0.94084 0.93854 0.92735 0.04700
C 	C 	0.72280 0.54070 0.31006 -0.02400
C 	C 	0.85130 0.71409 0.26048 0.09100
H 	H 	0.87420 0.75330 0.28820 -0.01600
C 	C 	0.76545 0.45198 0.24974 -0.01900
C 	C 	0.76124 0.52706 0.26913 -0.03400
C 	C 	0.92560 0.02640 0.84122 0.07900
H 	H 	0.90180 0.06890 0.81850 -0.01900
C 	C 	0.81530 0.66040 0.16076 0.09000
H 	H 	0.81150 0.66230 0.11780 -0.02800
C 	C 	0.92159 0.90792 0.98233 0.05100
C 	C 	0.90585 0.00000 0.89149 -0.12700
H 	H 	0.86870 0.02370 0.90120 0.07100
C 	C 	0.79050 0.59650 0.18265 -0.16900
H 	H 	0.77140 0.55600 0.15490 0.08500
C 	C 	0.94950 0.83600 0.07950 0.05700
H 	H 	0.98230 0.80590 0.11040 -0.00400
C 	C 	0.01050 0.93420 0.85770 0.06600
H 	H 	0.04610 0.91000 0.84600 -0.02700
C 	C 	0.96918 0.86320 0.02910 -0.12400
H 	H 	0.01420 0.85140 0.02680 0.06600
C 	C 	0.83927 0.89370 0.03986 0.05800
H 	H 	0.79420 0.90380 0.04260 -0.01900
C 	C 	0.99540 0.90570 0.90975 -0.12500
H 	H 	0.02160 0.86470 0.93290 0.06500
C 	C 	0.85567 0.92320 0.98884 -0.13100
H 	H 	0.82230 0.95360 0.95870 0.06600
C 	C 	0.68900 0.48020 0.32861 -0.00700
H 	H 	0.66260 0.49050 0.35530 -0.00700
Cu	Cu	0.36734 0.32063 0.16596 0.85000
N 	N 	0.34493 0.22043 0.19851 -0.24700
N 	N 	0.47748 0.49372 0.82347 -0.26100
C 	C 	0.29367 0.09223 0.24580 0.10300
C 	C 	0.32580 0.15294 0.28553 -0.16800
H 	H 	0.33020 0.15230 0.32860 0.08700
N 	N 	0.19220 0.90774 0.31022 -0.21900
C 	C 	0.23122 0.89500 0.27199 0.00800
H 	H 	0.23550 0.84490 0.25970 0.00700
N 	N 	0.38587 0.35060 0.08610 -0.24600
C 	C 	0.44084 0.43854 0.92735 0.06300
C 	C 	0.22280 0.04070 0.31006 -0.01700
C 	C 	0.35130 0.21409 0.26048 0.09000
H 	H 	0.37420 0.25330 0.28820 -0.01600
C 	C 	0.26545 0.95198 0.24974 -0.02900
C 	C 	0.26124 0.02706 0.26913 -0.02700
C 	C 	0.42560 0.52640 0.84122 0.07900
H 	H 	0.40180 0.56890 0.81850 -0.02000
C 	C 	0.31530 0.16040 0.16076 0.09000
H 	H 	0.31150 0.16230 0.11780 -0.02800
C 	C 	0.42159 0.40792 0.98233 0.04600
C 	C 	0.40585 0.50000 0.89149 -0.14200
H 	H 	0.36870 0.52370 0.90120 0.07400
C 	C 	0.29050 0.09650 0.18265 -0.16800
H 	H 	0.27140 0.05600 0.15490 0.08700
C 	C 	0.44950 0.33600 0.07950 0.05800
H 	H 	0.48230 0.30590 0.11040 -0.00500
C 	C 	0.51050 0.43420 0.85770 0.08400
H 	H 	0.54610 0.41000 0.84600 -0.03100
C 	C 	0.46918 0.36320 0.02910 -0.12400
H 	H 	0.51420 0.35140 0.02680 0.06800
C 	C 	0.33927 0.39370 0.03986 0.06000
H 	H 	0.29420 0.40380 0.04260 -0.01900
C 	C 	0.49540 0.40570 0.90975 -0.14600
H 	H 	0.52160 0.36470 0.93290 0.07500
C 	C 	0.35567 0.42320 0.98884 -0.13000
H 	H 	0.32230 0.45360 0.95870 0.06700
C 	C 	0.18900 0.98020 0.32861 -0.01700
H 	H 	0.16260 0.99050 0.35530 -0.00600
Cu	Cu	0.00000 0.03269 0.75000 0.84200
Cl	Cl	0.00000 0.16589 0.75000 -0.69800
Cu	Cu	0.50000 0.53269 0.75000 0.84100
Cl	Cl	0.50000 0.66589 0.75000 -0.69700
Cu	Cu	0.86734 0.17937 0.66596 0.85000
N 	N 	0.84493 0.27957 0.69851 -0.24700
N 	N 	0.97748 0.00628 0.32347 -0.24400
C 	C 	0.79367 0.40777 0.74580 0.10400
C 	C 	0.82580 0.34706 0.78553 -0.16900
H 	H 	0.83020 0.34770 0.82860 0.08700
N 	N 	0.69220 0.59226 0.81022 -0.21900
C 	C 	0.73122 0.60500 0.77199 0.00600
H 	H 	0.73550 0.65510 0.75970 0.00900
N 	N 	0.88587 0.14940 0.58610 -0.24700
C 	C 	0.94084 0.06146 0.42735 0.03500
C 	C 	0.72280 0.45930 0.81006 -0.02300
C 	C 	0.85130 0.28591 0.76048 0.09100
H 	H 	0.87420 0.24670 0.78820 -0.01600
C 	C 	0.76545 0.54802 0.74974 -0.02000
C 	C 	0.76124 0.47294 0.76913 -0.03400
C 	C 	0.92560 0.97360 0.34122 0.03900
H 	H 	0.90180 0.93110 0.31850 -0.00700
C 	C 	0.81530 0.33960 0.66076 0.09000
H 	H 	0.81150 0.33770 0.61780 -0.02800
C 	C 	0.92159 0.09208 0.48233 0.05900
C 	C 	0.90585 -0.00000 0.39149 -0.09000
H 	H 	0.86870 0.97630 0.40120 0.05100
C 	C 	0.79050 0.40350 0.68265 -0.16900
H 	H 	0.77140 0.44400 0.65490 0.08500
C 	C 	0.94950 0.16400 0.57950 0.06000
H 	H 	0.98230 0.19410 0.61040 -0.00400
C 	C 	0.01050 0.06580 0.35770 0.06100
H 	H 	0.04610 0.09000 0.34600 -0.02300
C 	C 	0.96918 0.13680 0.52910 -0.12600
H 	H 	0.01420 0.14860 0.52680 0.06700
C 	C 	0.83927 0.10630 0.53986 0.06400
H 	H 	0.79420 0.09620 0.54260 -0.01900
C 	C 	0.99540 0.09430 0.40975 -0.11300
H 	H 	0.02160 0.13530 0.43290 0.06100
C 	C 	0.85567 0.07680 0.48884 -0.13700
H 	H 	0.82230 0.04640 0.45870 0.07200
C 	C 	0.68900 0.51980 0.82861 -0.00700
H 	H 	0.66260 0.50950 0.85530 -0.00700
Cu	Cu	0.36734 0.67937 0.66596 0.84900
N 	N 	0.34493 0.77957 0.69851 -0.24700
N 	N 	0.47748 0.50628 0.32347 -0.26100
C 	C 	0.29367 0.90777 0.74580 0.10500
C 	C 	0.32580 0.84706 0.78553 -0.17000
H 	H 	0.33020 0.84770 0.82860 0.08700
N 	N 	0.19220 0.09226 0.81022 -0.21900
C 	C 	0.23122 0.10500 0.77199 0.00400
H 	H 	0.23550 0.15510 0.75970 0.00900
N 	N 	0.38587 0.64940 0.58610 -0.24600
C 	C 	0.44084 0.56146 0.42735 0.06300
C 	C 	0.22280 0.95930 0.81006 -0.03000
C 	C 	0.35130 0.78591 0.76048 0.09100
H 	H 	0.37420 0.74670 0.78820 -0.01700
C 	C 	0.26545 0.04802 0.74974 -0.01300
C 	C 	0.26124 0.97294 0.76913 -0.04000
C 	C 	0.42560 0.47360 0.34122 0.07900
H 	H 	0.40180 0.43110 0.31850 -0.02000
C 	C 	0.31530 0.83960 0.66076 0.09000
H 	H 	0.31150 0.83770 0.61780 -0.02900
C 	C 	0.42159 0.59208 0.48233 0.04600
C 	C 	0.40585 0.50000 0.39149 -0.14200
H 	H 	0.36870 0.47630 0.40120 0.07400
C 	C 	0.29050 0.90350 0.68265 -0.17000
H 	H 	0.27140 0.94400 0.65490 0.08400
C 	C 	0.44950 0.66400 0.57950 0.05800
H 	H 	0.48230 0.69410 0.61040 -0.00500
C 	C 	0.51050 0.56580 0.35770 0.08400
H 	H 	0.54610 0.59000 0.34600 -0.03100
C 	C 	0.46918 0.63680 0.52910 -0.12500
H 	H 	0.51420 0.64860 0.52680 0.06800
C 	C 	0.33927 0.60630 0.53986 0.05900
H 	H 	0.29420 0.59620 0.54260 -0.01900
C 	C 	0.49540 0.59430 0.40975 -0.14600
H 	H 	0.52160 0.63530 0.43290 0.07400
C 	C 	0.35567 0.57680 0.48884 -0.13000
H 	H 	0.32230 0.54640 0.45870 0.06700
C 	C 	0.18900 0.01980 0.82861 0.00000
H 	H 	0.16260 0.00950 0.85530 -0.00800
Cu	Cu	0.13266 0.17937 0.83404 0.85000
N 	N 	0.15507 0.27957 0.80149 -0.24700
N 	N 	0.02252 0.00628 0.17653 -0.25200
C 	C 	0.20633 0.40777 0.75420 0.10400
C 	C 	0.17420 0.34706 0.71447 -0.16900
H 	H 	0.16980 0.34770 0.67140 0.08700
N 	N 	0.30780 0.59226 0.68978 -0.21900
C 	C 	0.26878 0.60500 0.72801 0.00600
H 	H 	0.26450 0.65510 0.74030 0.00800
N 	N 	0.11413 0.14940 0.91390 -0.24800
C 	C 	0.05916 0.06146 0.07265 0.04500
C 	C 	0.27720 0.45930 0.68994 -0.02400
C 	C 	0.14870 0.28591 0.73952 0.09000
H 	H 	0.12580 0.24670 0.71180 -0.01600
C 	C 	0.23455 0.54802 0.75026 -0.02000
C 	C 	0.23876 0.47294 0.73087 -0.03400
C 	C 	0.07440 0.97360 0.15878 0.04200
H 	H 	0.09820 0.93110 0.18150 -0.00800
C 	C 	0.18470 0.33960 0.83924 0.09000
H 	H 	0.18850 0.33770 0.88220 -0.02800
C 	C 	0.07841 0.09208 0.01767 0.06100
C 	C 	0.09415 0.00000 0.10851 -0.09700
H 	H 	0.13130 0.97630 0.09880 0.05200
C 	C 	0.20950 0.40350 0.81735 -0.16900
H 	H 	0.22860 0.44400 0.84510 0.08500
C 	C 	0.05050 0.16400 0.92050 0.06700
H 	H 	0.01770 0.19410 0.88960 -0.00900
C 	C 	0.98950 0.06580 0.14230 0.08800
H 	H 	0.95390 0.09000 0.15400 -0.03000
C 	C 	0.03082 0.13680 0.97090 -0.14300
H 	H 	0.98580 0.14860 0.97320 0.07700
C 	C 	0.16073 0.10630 0.96014 0.06300
H 	H 	0.20580 0.09620 0.95740 -0.01900
C 	C 	0.00460 0.09430 0.09025 -0.14400
H 	H 	0.97840 0.13530 0.06710 0.07600
C 	C 	0.14433 0.07680 0.01116 -0.13600
H 	H 	0.17770 0.04640 0.04130 0.07100
C 	C 	0.31100 0.51980 0.67139 -0.00700
H 	H 	0.33740 0.50950 0.64470 -0.00700
Cu	Cu	0.63266 0.67937 0.83404 0.84900
N 	N 	0.65507 0.77957 0.80149 -0.24700
N 	N 	0.52252 0.50628 0.17653 -0.26100
C 	C 	0.70633 0.90777 0.75420 0.10500
C 	C 	0.67420 0.84706 0.71447 -0.17000
H 	H 	0.66980 0.84770 0.67140 0.08700
N 	N 	0.80780 0.09226 0.68978 -0.21900
C 	C 	0.76878 0.10500 0.72801 0.00400
H 	H 	0.76450 0.15510 0.74030 0.01000
N 	N 	0.61413 0.64940 0.91390 -0.24600
C 	C 	0.55916 0.56146 0.07265 0.06300
C 	C 	0.77720 0.95930 0.68994 -0.03000
C 	C 	0.64870 0.78591 0.73952 0.09100
H 	H 	0.62580 0.74670 0.71180 -0.01700
C 	C 	0.73455 0.04802 0.75026 -0.01200
C 	C 	0.73876 0.97294 0.73087 -0.04000
C 	C 	0.57440 0.47360 0.15878 0.07900
H 	H 	0.59820 0.43110 0.18150 -0.02000
C 	C 	0.68470 0.83960 0.83924 0.09000
H 	H 	0.68850 0.83770 0.88220 -0.02900
C 	C 	0.57841 0.59208 0.01767 0.04600
C 	C 	0.59415 0.50000 0.10851 -0.14200
H 	H 	0.63130 0.47630 0.09880 0.07400
C 	C 	0.70950 0.90350 0.81735 -0.17000
H 	H 	0.72860 0.94400 0.84510 0.08400
C 	C 	0.55050 0.66400 0.92050 0.05800
H 	H 	0.51770 0.69410 0.88960 -0.00500
C 	C 	0.48950 0.56580 0.14230 0.08400
H 	H 	0.45390 0.59000 0.15400 -0.03200
C 	C 	0.53082 0.63680 0.97090 -0.12400
H 	H 	0.48580 0.64860 0.97320 0.06800
C 	C 	0.66073 0.60630 0.96014 0.06000
H 	H 	0.70580 0.59620 0.95740 -0.01900
C 	C 	0.50460 0.59430 0.09025 -0.14600
H 	H 	0.47840 0.63530 0.06710 0.07400
C 	C 	0.64433 0.57680 0.01116 -0.13000
H 	H 	0.67770 0.54640 0.04130 0.06700
C 	C 	0.81100 0.01980 0.67139 0.00100
H 	H 	0.83740 0.00950 0.64470 -0.00700
Cu	Cu	0.00000 0.96731 0.25000 0.83600
Cl	Cl	-0.00000 0.83411 0.25000 -0.69900
Cu	Cu	0.50000 0.46731 0.25000 0.84000
Cl	Cl	0.50000 0.33411 0.25000 -0.69600
