data_crystal

_cell_length_a 18.11360
_cell_length_b 18.11360
_cell_length_c 13.18660
_cell_angle_alpha 90.00000
_cell_angle_beta  90.00000
_cell_angle_gamma 90.00000

_symmetry_space_group_name_	'P 1'
_symmetry_space_group_name_H-M	'P 1'

loop_
_symmetry_equiv_pos_as_xyz
  x,y,z

loop_
_atom_site_label
_atom_site_type_symbol
_atom_site_fract_x
_atom_site_fract_y
_atom_site_fract_z
_atom_site_charge
N 	N 	0.01891 0.58931 0.41410 -0.19200
N 	N 	0.02308 0.58717 0.30950 -0.19200
N 	N 	0.02861 0.69986 0.35920 -0.10700
N 	N 	0.07792 0.88557 0.38730 -0.10700
N 	N 	0.01221 0.89098 0.33260 -0.22100
N 	N 	0.03465 0.77625 0.35840 -0.13100
C 	C 	0.02170 0.65759 0.44280 0.10000
H 	H 	0.02000 0.67470 0.51120 0.01100
C 	C 	0.03010 0.65493 0.27780 0.09800
H 	H 	0.03490 0.67000 0.20870 -0.00200
C 	C 	0.09040 0.81570 0.40050 0.09500
H 	H 	0.13120 0.79540 0.43700 0.01400
C 	C 	0.98700 0.82450 0.31640 0.18200
H 	H 	0.94340 0.81230 0.27930 0.00800
N 	N 	0.48109 0.91069 0.41410 -0.17600
N 	N 	0.47692 0.91283 0.30950 -0.17500
N 	N 	0.47139 0.80014 0.35920 -0.10600
N 	N 	0.42208 0.61443 0.38730 -0.10800
N 	N 	0.48779 0.60902 0.33260 -0.18800
N 	N 	0.46535 0.72375 0.35840 -0.10500
C 	C 	0.47830 0.84241 0.44280 0.10700
H 	H 	0.48000 0.82530 0.51120 0.01900
C 	C 	0.46990 0.84507 0.27780 0.10500
H 	H 	0.46510 0.83000 0.20870 0.00500
C 	C 	0.40960 0.68430 0.40050 0.09700
H 	H 	0.36880 0.70460 0.43700 0.01400
C 	C 	0.51300 0.67550 0.31640 0.09900
H 	H 	0.55660 0.68770 0.27930 0.02500
N 	N 	0.91069 0.01891 0.91410 -0.18200
N 	N 	0.91283 0.02308 0.80950 -0.17700
N 	N 	0.80014 0.02861 0.85920 -0.11700
N 	N 	0.61443 0.07792 0.88730 -0.10500
N 	N 	0.60902 0.01221 0.83260 -0.22400
N 	N 	0.72375 0.03465 0.85840 -0.12700
C 	C 	0.84241 0.02170 0.94280 0.17200
H 	H 	0.82530 0.02000 0.01120 -0.03800
C 	C 	0.84507 0.03010 0.77780 0.10100
H 	H 	0.83000 0.03490 0.70870 0.00400
C 	C 	0.68430 0.09040 0.90050 0.10000
H 	H 	0.70460 0.13120 0.93700 0.02400
C 	C 	0.67550 0.98700 0.81640 0.18400
H 	H 	0.68770 0.94340 0.77930 0.01100
N 	N 	0.58931 0.48109 0.91410 -0.18900
N 	N 	0.58717 0.47692 0.80950 -0.18600
N 	N 	0.69986 0.47139 0.85920 -0.11500
N 	N 	0.88557 0.42208 0.88730 -0.09800
N 	N 	0.89098 0.48779 0.83260 -0.18200
N 	N 	0.77625 0.46535 0.85840 -0.10100
C 	C 	0.65759 0.47830 0.94280 0.17600
H 	H 	0.67470 0.48000 0.01120 -0.03000
C 	C 	0.65493 0.46990 0.77780 0.10600
H 	H 	0.67000 0.46510 0.70870 0.00600
C 	C 	0.81570 0.40960 0.90050 0.10200
H 	H 	0.79540 0.36880 0.93700 0.02500
C 	C 	0.82450 0.51300 0.81640 0.10300
H 	H 	0.81230 0.55660 0.77930 0.02800
N 	N 	0.98109 0.08931 0.08590 -0.17300
N 	N 	0.97692 0.08717 0.19050 -0.19200
N 	N 	0.97139 0.19986 0.14080 -0.09500
N 	N 	0.92208 0.38557 0.11270 -0.11000
N 	N 	0.98779 0.39098 0.16740 -0.14500
N 	N 	0.96535 0.27625 0.14160 -0.07600
C 	C 	0.97830 0.15759 0.05720 0.04300
H 	H 	0.98000 0.17470 0.98880 0.07400
C 	C 	0.96990 0.15493 0.22220 0.10700
H 	H 	0.96510 0.17000 0.29130 0.01000
C 	C 	0.90960 0.31570 0.09950 0.09600
H 	H 	0.86880 0.29540 0.06300 0.00400
C 	C 	0.01300 0.32450 0.18360 -0.00500
H 	H 	0.05660 0.31230 0.22070 0.04100
N 	N 	0.51891 0.41069 0.08590 -0.18000
N 	N 	0.52308 0.41283 0.19050 -0.18800
N 	N 	0.52861 0.30014 0.14080 -0.09700
N 	N 	0.57792 0.11443 0.11270 -0.11900
N 	N 	0.51221 0.10902 0.16740 -0.19500
N 	N 	0.53465 0.22375 0.14160 -0.10900
C 	C 	0.52170 0.34241 0.05720 0.03200
H 	H 	0.52000 0.32530 0.98880 0.06700
C 	C 	0.53010 0.34507 0.22220 0.10100
H 	H 	0.53490 0.33000 0.29130 0.00600
C 	C 	0.59040 0.18430 0.09950 0.09200
H 	H 	0.63120 0.20460 0.06300 0.00300
C 	C 	0.48700 0.17550 0.18360 0.09400
H 	H 	0.44340 0.18770 0.22070 0.02000
N 	N 	0.08931 0.51891 0.58590 -0.19300
N 	N 	0.08717 0.52308 0.69050 -0.19700
N 	N 	0.19986 0.52861 0.64080 -0.10600
N 	N 	0.38557 0.57792 0.61270 -0.10800
N 	N 	0.39098 0.51221 0.66740 -0.18800
N 	N 	0.27625 0.53465 0.64160 -0.10500
C 	C 	0.15759 0.52170 0.55720 0.10400
H 	H 	0.17470 0.52000 0.48880 0.01700
C 	C 	0.15493 0.53010 0.72220 0.10100
H 	H 	0.17000 0.53490 0.79130 0.00800
C 	C 	0.31570 0.59040 0.59950 0.09800
H 	H 	0.29540 0.63120 0.56300 0.01400
C 	C 	0.32450 0.48700 0.68360 0.09900
H 	H 	0.31230 0.44340 0.72070 0.02400
N 	N 	0.41069 0.98109 0.58590 -0.17600
N 	N 	0.41283 0.97692 0.69050 -0.18100
N 	N 	0.30014 0.97139 0.64080 -0.10400
N 	N 	0.11443 0.92208 0.61270 -0.10700
N 	N 	0.10902 0.98779 0.66740 -0.14500
N 	N 	0.22375 0.96535 0.64160 -0.07200
C 	C 	0.34241 0.97830 0.55720 0.11200
H 	H 	0.32530 0.98000 0.48880 0.02600
C 	C 	0.34507 0.96990 0.72220 0.11100
H 	H 	0.33000 0.96510 0.79130 0.01600
C 	C 	0.18430 0.90960 0.59950 0.10000
H 	H 	0.20460 0.86880 0.56300 0.01400
C 	C 	0.17550 0.01300 0.68360 -0.00100
H 	H 	0.18770 0.05660 0.72070 0.04500
N 	N 	0.98109 0.41069 0.58590 -0.17600
N 	N 	0.97692 0.41283 0.69050 -0.18100
N 	N 	0.97139 0.30014 0.64080 -0.10400
N 	N 	0.92208 0.11443 0.61270 -0.10700
N 	N 	0.98779 0.10902 0.66740 -0.14500
N 	N 	0.96535 0.22375 0.64160 -0.07200
C 	C 	0.97830 0.34241 0.55720 0.11200
H 	H 	0.98000 0.32530 0.48880 0.02600
C 	C 	0.96990 0.34507 0.72220 0.11100
H 	H 	0.96510 0.33000 0.79130 0.01600
C 	C 	0.90960 0.18430 0.59950 0.10000
H 	H 	0.86880 0.20460 0.56300 0.01400
C 	C 	0.01300 0.17550 0.68360 -0.00100
H 	H 	0.05660 0.18770 0.72070 0.04500
N 	N 	0.51891 0.08931 0.58590 -0.19300
N 	N 	0.52308 0.08717 0.69050 -0.19700
N 	N 	0.52861 0.19986 0.64080 -0.10600
N 	N 	0.57792 0.38557 0.61270 -0.10800
N 	N 	0.51221 0.39098 0.66740 -0.18800
N 	N 	0.53465 0.27625 0.64160 -0.10500
C 	C 	0.52170 0.15759 0.55720 0.10400
H 	H 	0.52000 0.17470 0.48880 0.01700
C 	C 	0.53010 0.15493 0.72220 0.10100
H 	H 	0.53490 0.17000 0.79130 0.00800
C 	C 	0.59040 0.31570 0.59950 0.09800
H 	H 	0.63120 0.29540 0.56300 0.01400
C 	C 	0.48700 0.32450 0.68360 0.09900
H 	H 	0.44340 0.31230 0.72070 0.02400
N 	N 	0.08931 0.98109 0.08590 -0.17300
N 	N 	0.08717 0.97692 0.19050 -0.19200
N 	N 	0.19986 0.97139 0.14080 -0.09500
N 	N 	0.38557 0.92208 0.11270 -0.11000
N 	N 	0.39098 0.98779 0.16740 -0.14500
N 	N 	0.27625 0.96535 0.14160 -0.07600
C 	C 	0.15759 0.97830 0.05720 0.04300
H 	H 	0.17470 0.98000 0.98880 0.07400
C 	C 	0.15493 0.96990 0.22220 0.10700
H 	H 	0.17000 0.96510 0.29130 0.01000
C 	C 	0.31570 0.90960 0.09950 0.09600
H 	H 	0.29540 0.86880 0.06300 0.00400
C 	C 	0.32450 0.01300 0.18360 -0.00500
H 	H 	0.31230 0.05660 0.22070 0.04100
N 	N 	0.41069 0.51891 0.08590 -0.18000
N 	N 	0.41283 0.52308 0.19050 -0.18800
N 	N 	0.30014 0.52861 0.14080 -0.09700
N 	N 	0.11443 0.57792 0.11270 -0.11900
N 	N 	0.10902 0.51221 0.16740 -0.19500
N 	N 	0.22375 0.53465 0.14160 -0.10900
C 	C 	0.34241 0.52170 0.05720 0.03200
H 	H 	0.32530 0.52000 0.98880 0.06700
C 	C 	0.34507 0.53010 0.22220 0.10100
H 	H 	0.33000 0.53490 0.29130 0.00600
C 	C 	0.18430 0.59040 0.09950 0.09200
H 	H 	0.20460 0.63120 0.06300 0.00300
C 	C 	0.17550 0.48700 0.18360 0.09400
H 	H 	0.18770 0.44340 0.22070 0.02000
N 	N 	0.01891 0.91069 0.91410 -0.18200
N 	N 	0.02308 0.91283 0.80950 -0.17700
N 	N 	0.02861 0.80014 0.85920 -0.11700
N 	N 	0.07792 0.61443 0.88730 -0.10500
N 	N 	0.01221 0.60902 0.83260 -0.22400
N 	N 	0.03465 0.72375 0.85840 -0.12700
C 	C 	0.02170 0.84241 0.94280 0.17200
H 	H 	0.02000 0.82530 0.01120 -0.03800
C 	C 	0.03010 0.84507 0.77780 0.10100
H 	H 	0.03490 0.83000 0.70870 0.00400
C 	C 	0.09040 0.68430 0.90050 0.10000
H 	H 	0.13120 0.70460 0.93700 0.02400
C 	C 	0.98700 0.67550 0.81640 0.18400
H 	H 	0.94340 0.68770 0.77930 0.01100
N 	N 	0.48109 0.58931 0.91410 -0.18900
N 	N 	0.47692 0.58717 0.80950 -0.18600
N 	N 	0.47139 0.69986 0.85920 -0.11500
N 	N 	0.42208 0.88557 0.88730 -0.09800
N 	N 	0.48779 0.89098 0.83260 -0.18200
N 	N 	0.46535 0.77625 0.85840 -0.10100
C 	C 	0.47830 0.65759 0.94280 0.17600
H 	H 	0.48000 0.67470 0.01120 -0.03000
C 	C 	0.46990 0.65493 0.77780 0.10600
H 	H 	0.46510 0.67000 0.70870 0.00600
C 	C 	0.40960 0.81570 0.90050 0.10200
H 	H 	0.36880 0.79540 0.93700 0.02500
C 	C 	0.51300 0.82450 0.81640 0.10300
H 	H 	0.55660 0.81230 0.77930 0.02800
N 	N 	0.91069 0.48109 0.41410 -0.17600
N 	N 	0.91283 0.47692 0.30950 -0.17500
N 	N 	0.80014 0.47139 0.35920 -0.10600
N 	N 	0.61443 0.42208 0.38730 -0.10800
N 	N 	0.60902 0.48779 0.33260 -0.18800
N 	N 	0.72375 0.46535 0.35840 -0.10500
C 	C 	0.84241 0.47830 0.44280 0.10700
H 	H 	0.82530 0.48000 0.51120 0.01900
C 	C 	0.84507 0.46990 0.27780 0.10500
H 	H 	0.83000 0.46510 0.20870 0.00500
C 	C 	0.68430 0.40960 0.40050 0.09700
H 	H 	0.70460 0.36880 0.43700 0.01400
C 	C 	0.67550 0.51300 0.31640 0.09900
H 	H 	0.68770 0.55660 0.27930 0.02500
N 	N 	0.58931 0.01891 0.41410 -0.19300
N 	N 	0.58717 0.02308 0.30950 -0.19300
N 	N 	0.69986 0.02861 0.35920 -0.10800
N 	N 	0.88557 0.07792 0.38730 -0.10800
N 	N 	0.89098 0.01221 0.33260 -0.22200
N 	N 	0.77625 0.03465 0.35840 -0.13200
C 	C 	0.65759 0.02170 0.44280 0.09900
H 	H 	0.67470 0.02000 0.51120 0.01000
C 	C 	0.65493 0.03010 0.27780 0.09700
H 	H 	0.67000 0.03490 0.20870 -0.00300
C 	C 	0.81570 0.09040 0.40050 0.09500
H 	H 	0.79540 0.13120 0.43700 0.01400
C 	C 	0.82450 0.98700 0.31640 0.18200
H 	H 	0.81230 0.94340 0.27930 0.00800
Cu	Cu	0.01194 0.48806 0.23450 0.86200
Cl	Cl	0.08012 0.41988 0.37630 -0.52600
Cu	Cu	0.48806 0.01194 0.23450 0.86200
Cl	Cl	0.41988 0.08012 0.37630 -0.52600
Cu	Cu	0.01194 0.01194 0.73450 0.84700
Cl	Cl	0.08012 0.08012 0.87630 -0.52600
Cu	Cu	0.48806 0.48806 0.73450 0.88000
Cl	Cl	0.41988 0.41988 0.87630 -0.48700
Cu	Cu	0.98806 0.98806 0.26550 0.90700
Cl	Cl	0.91988 0.91988 0.12370 -0.46900
Cu	Cu	0.51194 0.51194 0.26550 0.87900
Cl	Cl	0.58012 0.58012 0.12370 -0.51400
Cu	Cu	0.98806 0.51194 0.76550 0.89700
Cl	Cl	0.91988 0.58012 0.62370 -0.47700
Cu	Cu	0.51194 0.98806 0.76550 0.89700
Cl	Cl	0.58012 0.91988 0.62370 -0.47700
Cu	Cu	0.00000 0.50000 0.50000 0.87900
Cu	Cu	0.50000 0.00000 0.50000 0.87900
Cu	Cu	-0.00000 0.00000 -0.00000 0.83800
Cu	Cu	0.50000 0.50000 -0.00000 0.88100
