data_crystal

_cell_length_a 10.82500
_cell_length_b 11.14960
_cell_length_c 11.14960
_cell_angle_alpha 103.00400
_cell_angle_beta  102.28600
_cell_angle_gamma 77.71400

_symmetry_space_group_name_	'P 1'
_symmetry_space_group_name_H-M	'P 1'

loop_
_symmetry_equiv_pos_as_xyz
  x,y,z

loop_
_atom_site_label
_atom_site_type_symbol
_atom_site_fract_x
_atom_site_fract_y
_atom_site_fract_z
_atom_site_charge
Co	Co	0.44988 0.06087 0.87890 1.17600
Co	Co	0.05012 0.87891 0.06088 1.17300
Co	Co	0.75000 0.09516 0.09516 1.19200
Co	Co	0.55012 0.93912 0.12110 1.17500
Co	Co	0.25000 0.90484 0.90484 1.19200
Co	Co	0.94988 0.12110 0.93913 1.17200
H 	H 	0.47980 0.83220 0.90180 0.35700
H 	H 	0.52200 0.31470 0.83690 0.02100
H 	H 	0.02020 0.90180 0.83220 0.35700
H 	H 	0.47800 0.68530 0.16310 0.02100
H 	H 	0.45420 0.51570 0.85490 0.04500
H 	H 	0.02200 0.16310 0.68530 0.03100
H 	H 	0.97980 0.09820 0.16780 0.35700
H 	H 	0.52020 0.16780 0.09820 0.35700
H 	H 	0.13430 0.45020 0.95940 0.05500
H 	H 	0.54580 0.48430 0.14510 0.04500
H 	H 	0.95420 0.14510 0.48430 0.04200
H 	H 	0.97800 0.83690 0.31470 0.03100
H 	H 	0.63430 0.04060 0.54980 0.05400
H 	H 	0.86570 0.54980 0.04060 0.05500
H 	H 	0.04580 0.85490 0.51570 0.04200
H 	H 	0.36570 0.95940 0.45020 0.05400
C 	C 	0.78760 0.57446 0.06752 0.01200
C 	C 	0.22050 0.91163 0.51037 -0.07900
C 	C 	0.60440 0.53497 0.13003 -0.02000
C 	C 	0.72930 0.06604 0.35026 0.35900
C 	C 	0.23380 0.91482 0.29994 -0.07000
C 	C 	0.71240 0.06752 0.57446 0.01300
C 	C 	0.27070 0.93396 0.64974 0.35900
C 	C 	0.10440 0.86997 0.46503 -0.01400
C 	C 	0.77950 0.08837 0.48963 -0.07900
C 	C 	0.94370 0.14361 0.66203 0.00200
C 	C 	0.55630 0.66203 0.14361 0.01700
C 	C 	0.26620 0.29994 0.91482 -0.06800
C 	C 	0.05630 0.85639 0.33797 0.00200
C 	C 	0.77070 0.35026 0.06604 0.36600
C 	C 	0.20060 0.20144 0.93480 0.37800
C 	C 	0.29940 0.93480 0.20144 0.37900
C 	C 	0.76620 0.08518 0.70006 -0.07000
C 	C 	0.21240 0.42554 0.93248 0.01200
C 	C 	0.39560 0.46503 0.86997 -0.02000
C 	C 	0.22930 0.64974 0.93396 0.36600
C 	C 	0.27950 0.51037 0.91163 -0.07700
C 	C 	0.73380 0.70006 0.08518 -0.06800
C 	C 	0.44370 0.33797 0.85639 0.01700
C 	C 	0.28760 0.93248 0.42554 0.01300
C 	C 	0.89560 0.13003 0.53497 -0.01400
C 	C 	0.79940 0.79856 0.06520 0.37800
C 	C 	0.70060 0.06520 0.79856 0.37900
C 	C 	0.72050 0.48963 0.08837 -0.07700
N 	N 	0.88129 0.12080 0.74354 -0.18800
N 	N 	0.61871 0.74354 0.12080 -0.18900
N 	N 	0.38129 0.25646 0.87920 -0.18900
N 	N 	0.11871 0.87920 0.25646 -0.18800
O 	O 	0.15064 0.69015 0.00795 -0.40400
O 	O 	0.84936 0.30985 0.99205 -0.40400
O 	O 	0.26758 0.09377 0.93025 -0.55100
O 	O 	0.65064 0.99205 0.30985 -0.39600
O 	O 	0.94815 0.06183 0.10349 -0.85300
O 	O 	0.27303 0.71205 0.87869 -0.43000
O 	O 	0.76758 0.06975 0.90623 -0.55600
O 	O 	0.44815 0.89651 0.93817 -0.85500
O 	O 	0.08789 0.23081 0.95187 -0.42200
O 	O 	0.77303 0.12131 0.28795 -0.42900
O 	O 	0.91211 0.76919 0.04813 -0.42200
O 	O 	0.73242 0.90623 0.06975 -0.55100
O 	O 	0.34936 0.00795 0.69015 -0.39600
O 	O 	0.22697 0.87869 0.71205 -0.42900
O 	O 	0.05185 0.93817 0.89651 -0.85300
O 	O 	0.72697 0.28795 0.12131 -0.43000
O 	O 	0.23242 0.93025 0.09377 -0.55600
O 	O 	0.55185 0.10349 0.06183 -0.85500
O 	O 	0.41211 0.95187 0.23081 -0.42700
O 	O 	0.58789 0.04813 0.76919 -0.42700
