data_crystal

_cell_length_a 8.75770
_cell_length_b 8.75770
_cell_length_c 11.95800
_cell_angle_alpha 90.00000
_cell_angle_beta  90.00000
_cell_angle_gamma 101.79000

_symmetry_space_group_name_	'P 1'
_symmetry_space_group_name_H-M	'P 1'

loop_
_symmetry_equiv_pos_as_xyz
  x,y,z

loop_
_atom_site_label
_atom_site_type_symbol
_atom_site_fract_x
_atom_site_fract_y
_atom_site_fract_z
_atom_site_charge
Co	Co	0.11673 0.11673 -0.00000 1.10800
Co	Co	0.88327 0.88327 0.50000 1.12800
Co	Co	0.10513 0.89487 0.25000 1.12000
Co	Co	0.89487 0.10513 0.75000 1.12600
H 	H 	0.48800 0.14000 0.29600 0.09000
H 	H 	0.71900 0.11900 0.19000 -0.00800
H 	H 	0.48160 0.14040 0.90500 -0.02900
H 	H 	0.51200 0.86000 0.79600 0.08300
H 	H 	0.28100 0.88100 0.69000 0.01000
H 	H 	0.51840 0.85960 0.40500 0.00100
H 	H 	0.86000 0.51200 0.20400 0.07500
H 	H 	0.88100 0.28100 0.31000 0.01400
H 	H 	0.85960 0.51840 0.59500 0.00500
H 	H 	0.14000 0.48800 0.70400 0.06000
H 	H 	0.11900 0.71900 0.81000 0.04500
H 	H 	0.14040 0.48160 0.09500 0.05300
C 	C 	0.35713 0.14637 0.15276 0.10200
C 	C 	0.49206 0.14014 0.21310 -0.18200
C 	C 	0.62439 0.12781 0.15410 0.14400
C 	C 	0.62348 0.13086 0.03705 -0.27700
C 	C 	0.48519 0.13763 0.98370 0.22800
C 	C 	0.76776 0.12528 0.97166 0.49700
C 	C 	0.64287 0.85363 0.65276 0.08900
C 	C 	0.50794 0.85986 0.71310 -0.14600
C 	C 	0.37561 0.87219 0.65410 0.08800
C 	C 	0.37652 0.86914 0.53705 -0.16800
C 	C 	0.51481 0.86237 0.48370 0.11300
C 	C 	0.23224 0.87472 0.47166 0.41300
C 	C 	0.85363 0.64287 0.34724 0.08700
C 	C 	0.85986 0.50794 0.28690 -0.14400
C 	C 	0.87219 0.37561 0.34590 0.08300
C 	C 	0.86914 0.37652 0.46295 -0.16400
C 	C 	0.86237 0.51481 0.51630 0.11100
C 	C 	0.87472 0.23224 0.52834 0.41000
C 	C 	0.14637 0.35713 0.84724 0.06600
C 	C 	0.14014 0.49206 0.78690 -0.08500
C 	C 	0.12781 0.62439 0.84590 -0.00900
C 	C 	0.13086 0.62348 0.96295 0.01100
C 	C 	0.13763 0.48519 0.01630 -0.05700
C 	C 	0.12528 0.76776 0.02834 0.25900
S 	S 	0.17399 0.15643 0.21082 -0.39800
S 	S 	0.82601 0.84357 0.71082 -0.39000
S 	S 	0.84357 0.82601 0.28918 -0.39400
S 	S 	0.15643 0.17399 0.78918 -0.37300
N 	N 	0.35412 0.14152 0.03997 -0.29400
N 	N 	0.64588 0.85848 0.53997 -0.25500
N 	N 	0.85848 0.64588 0.46003 -0.25300
N 	N 	0.14152 0.35412 0.96003 -0.19500
O 	O 	0.88069 0.09235 0.02224 -0.52500
O 	O 	0.23837 0.84279 0.36824 -0.48000
O 	O 	0.11931 0.90765 0.52224 -0.48900
O 	O 	0.76163 0.15721 0.86824 -0.49200
O 	O 	0.90765 0.11931 0.47776 -0.48300
O 	O 	0.15721 0.76163 0.13176 -0.44800
O 	O 	0.09235 0.88069 0.97776 -0.40700
O 	O 	0.84279 0.23837 0.63176 -0.47400
