data_crystal

_cell_length_a 10.76700
_cell_length_b 14.34500
_cell_length_c 17.04900
_cell_angle_alpha 90.00000
_cell_angle_beta  106.51800
_cell_angle_gamma 90.00000

_symmetry_space_group_name_	'P 1'
_symmetry_space_group_name_H-M	'P 1'

loop_
_symmetry_equiv_pos_as_xyz
  x,y,z

loop_
_atom_site_label
_atom_site_type_symbol
_atom_site_fract_x
_atom_site_fract_y
_atom_site_fract_z
_atom_site_charge
Co	Co	0.44691 0.47348 0.40550 1.17300
Co	Co	0.05309 0.97348 0.09450 1.17300
Co	Co	0.55309 0.52652 0.59450 1.17300
Co	Co	0.24914 0.90868 0.99926 1.18400
Co	Co	0.94817 0.52842 0.40701 1.17400
Co	Co	0.44817 0.97158 0.90701 1.17100
Co	Co	0.74914 0.59132 0.49926 1.18800
Co	Co	0.75086 0.09132 0.00074 1.18500
Co	Co	0.55183 0.02842 0.09299 1.17100
Co	Co	0.25086 0.40868 0.50074 1.18800
Co	Co	0.94691 0.02652 0.90550 1.17400
Co	Co	0.05183 0.47158 0.59299 1.17400
H 	H 	0.01520 0.86680 0.96750 0.31500
H 	H 	0.86700 0.28950 0.74350 0.05400
H 	H 	0.48480 0.36680 0.53250 0.31500
H 	H 	0.07000 0.18710 0.34280 0.06100
H 	H 	0.93000 0.81290 0.65720 0.06100
H 	H 	0.43000 0.68710 0.15720 0.05700
H 	H 	0.01410 0.93190 0.75150 0.00900
H 	H 	0.98590 0.06810 0.24850 0.00900
H 	H 	0.13300 0.71050 0.25650 0.05400
H 	H 	0.02300 0.36790 0.46870 0.33000
H 	H 	0.04960 0.70140 0.82730 0.05800
H 	H 	0.48590 0.43190 0.74850 0.02000
H 	H 	0.52940 0.08020 0.76330 0.01500
H 	H 	0.47700 0.86790 0.03130 0.33000
H 	H 	0.98480 0.13320 0.03250 0.31500
H 	H 	0.54960 0.79860 0.32730 0.05900
H 	H 	0.52300 0.13210 0.96870 0.33000
H 	H 	0.47060 0.91980 0.23670 0.01500
H 	H 	0.63300 0.78950 0.75650 0.05600
H 	H 	0.36700 0.21050 0.24350 0.05600
H 	H 	0.97060 0.58020 0.73670 0.01600
H 	H 	0.51410 0.56810 0.25150 0.02000
H 	H 	0.97700 0.63210 0.53130 0.33000
H 	H 	0.13000 0.20480 0.74830 0.05800
H 	H 	0.37000 0.70480 0.75170 0.05700
H 	H 	0.02940 0.41980 0.26330 0.01600
H 	H 	0.51520 0.63320 0.46750 0.31500
H 	H 	0.45040 0.20140 0.67270 0.05900
H 	H 	0.63000 0.29520 0.24830 0.05700
H 	H 	0.87000 0.79520 0.25170 0.05800
H 	H 	0.95040 0.29860 0.17270 0.05800
H 	H 	0.57000 0.31290 0.84280 0.05700
C 	C 	0.30410 0.56373 0.63948 0.37800
C 	C 	0.76350 0.89072 0.80588 -0.06600
C 	C 	0.77530 0.78591 0.69951 -0.06000
C 	C 	0.06380 0.09705 0.24873 0.04700
C 	C 	0.59830 0.82135 0.29391 -0.04700
C 	C 	0.19590 0.06373 0.86052 0.37700
C 	C 	0.76610 0.69948 0.35299 0.34200
C 	C 	0.44800 0.10537 0.76022 0.03500
C 	C 	0.22470 0.21409 0.30049 -0.06000
C 	C 	0.61200 0.33085 0.80383 -0.04200
C 	C 	0.55200 0.89463 0.23978 0.03500
C 	C 	0.26610 0.80052 0.85299 0.34200
C 	C 	0.23390 0.30052 0.64701 0.34200
C 	C 	0.72470 0.28591 0.80049 -0.06400
C 	C 	0.23650 0.10928 0.19412 -0.06600
C 	C 	0.78940 0.31682 0.74565 0.00700
C 	C 	0.27360 0.29591 0.35707 0.34200
C 	C 	0.78200 0.28240 0.20294 -0.06000
C 	C 	0.23640 0.60619 0.69671 -0.06300
C 	C 	0.90170 0.32135 0.20609 -0.04500
C 	C 	0.11200 0.16915 0.30383 -0.05000
C 	C 	0.28960 0.68012 0.74843 0.00100
C 	C 	0.71040 0.31988 0.25157 0.00100
C 	C 	0.80200 0.43153 0.63481 0.38100
C 	C 	0.72640 0.70409 0.64293 0.34200
C 	C 	0.28940 0.18318 0.24565 0.00300
C 	C 	0.05200 0.60537 0.73978 0.03200
C 	C 	0.28200 0.21760 0.70294 -0.05800
C 	C 	0.27530 0.71409 0.19951 -0.06400
C 	C 	0.09830 0.67865 0.79391 -0.04500
C 	C 	0.19800 0.56847 0.36519 0.38100
C 	C 	0.43620 0.59705 0.25127 0.03100
C 	C 	0.71800 0.78240 0.29706 -0.05800
C 	C 	0.56380 0.40295 0.74873 0.03100
C 	C 	0.88800 0.83085 0.69617 -0.05000
C 	C 	0.73640 0.89381 0.19671 -0.06100
C 	C 	0.22640 0.79591 0.14293 0.34300
C 	C 	0.38800 0.66915 0.19617 -0.04200
C 	C 	0.93620 0.90295 0.75127 0.04700
C 	C 	0.78960 0.81988 0.24843 -0.00000
C 	C 	0.21800 0.71760 0.79706 -0.06000
C 	C 	0.73390 0.19948 0.14701 0.34200
C 	C 	0.73650 0.39072 0.69412 -0.06800
C 	C 	0.26360 0.10619 0.80329 -0.06100
C 	C 	0.80410 0.93627 0.13948 0.37700
C 	C 	0.77360 0.20409 0.85707 0.34300
C 	C 	0.26350 0.60928 0.30588 -0.06800
C 	C 	0.94800 0.39463 0.26022 0.03200
C 	C 	0.30200 0.06847 0.13481 0.38000
C 	C 	0.71060 0.81682 0.75435 0.00300
C 	C 	0.21060 0.68318 0.25435 0.00700
C 	C 	0.69590 0.43627 0.36052 0.37800
C 	C 	0.21040 0.18012 0.75157 -0.00000
C 	C 	0.76360 0.39381 0.30329 -0.06300
C 	C 	0.40170 0.17865 0.70609 -0.04700
C 	C 	0.69800 0.93153 0.86519 0.38000
N 	N 	0.61854 0.92988 0.19157 -0.19000
N 	N 	0.38146 0.07012 0.80843 -0.19000
N 	N 	0.37611 0.56841 0.30582 -0.19000
N 	N 	0.62389 0.43159 0.69418 -0.19000
N 	N 	0.87611 0.93159 0.80582 -0.19200
N 	N 	0.11854 0.57012 0.69157 -0.19100
N 	N 	0.88146 0.42988 0.30843 -0.19100
N 	N 	0.12389 0.06841 0.19418 -0.19200
O 	O 	0.84754 0.14663 0.83672 -0.38900
O 	O 	0.26587 0.51110 0.41571 -0.56200
O 	O 	0.26587 0.79946 0.08059 -0.42100
O 	O 	0.23413 0.01110 0.08429 -0.56100
O 	O 	0.55211 0.08033 0.97915 -0.82900
O 	O 	0.65246 0.64663 0.66328 -0.38700
O 	O 	0.76587 0.70054 0.58059 -0.42100
O 	O 	0.84384 0.64411 0.33450 -0.39000
O 	O 	0.34384 0.85589 0.83450 -0.39200
O 	O 	0.94789 0.58033 0.52085 -0.83200
O 	O 	0.76587 0.98890 0.91571 -0.56100
O 	O 	0.15616 0.35589 0.66550 -0.39000
O 	O 	0.58476 0.90941 0.85963 -0.43200
O 	O 	0.73547 0.98737 0.08457 -0.55200
O 	O 	0.57877 0.41840 0.34986 -0.42500
O 	O 	0.22096 0.80556 0.91322 -0.42700
O 	O 	0.91524 0.40941 0.64037 -0.43200
O 	O 	0.08476 0.59059 0.35963 -0.43200
O 	O 	0.73413 0.48890 0.58429 -0.56200
O 	O 	0.95299 0.08130 0.02097 -0.80900
O 	O 	0.41524 0.09059 0.14037 -0.43200
O 	O 	0.72096 0.69444 0.41322 -0.42500
O 	O 	0.73413 0.20054 0.91941 -0.42100
O 	O 	0.92123 0.91840 0.15014 -0.41900
O 	O 	0.23413 0.29946 0.41941 -0.42100
O 	O 	0.42123 0.58160 0.65014 -0.42500
O 	O 	0.77904 0.19444 0.08678 -0.42700
O 	O 	0.45299 0.41870 0.52097 -0.80500
O 	O 	0.15246 0.85337 0.16328 -0.38900
O 	O 	0.54701 0.58130 0.47903 -0.80500
O 	O 	0.07877 0.08160 0.84986 -0.41900
O 	O 	0.44789 0.91967 0.02085 -0.82900
O 	O 	0.65616 0.14411 0.16550 -0.39200
O 	O 	0.23547 0.51263 0.58457 -0.55800
O 	O 	0.34754 0.35337 0.33672 -0.38700
O 	O 	0.05211 0.41967 0.47915 -0.83200
O 	O 	0.26453 0.01263 0.91543 -0.55200
O 	O 	0.04701 0.91870 0.97903 -0.80900
O 	O 	0.27904 0.30556 0.58678 -0.42500
O 	O 	0.76453 0.48737 0.41543 -0.55800
