data_crystal

_cell_length_a 10.77380
_cell_length_b 11.14820
_cell_length_c 11.14820
_cell_angle_alpha 99.98660
_cell_angle_beta  102.48800
_cell_angle_gamma 77.51250

_symmetry_space_group_name_	'P 1'
_symmetry_space_group_name_H-M	'P 1'

loop_
_symmetry_equiv_pos_as_xyz
  x,y,z

loop_
_atom_site_label
_atom_site_type_symbol
_atom_site_fract_x
_atom_site_fract_y
_atom_site_fract_z
_atom_site_charge
Co	Co	0.05241 0.93389 0.12107 1.16900
Co	Co	0.44759 0.12107 0.93389 1.17200
Co	Co	0.94759 0.06611 0.87893 1.16900
Co	Co	0.55241 0.87893 0.06611 1.17200
Co	Co	0.25000 0.09148 0.09148 1.18900
Co	Co	0.75000 0.90852 0.90852 1.18900
H 	H 	0.01900 0.16600 0.09800 0.32000
H 	H 	0.36100 0.54780 0.04020 0.06600
H 	H 	0.06100 0.47300 0.13700 0.06500
H 	H 	0.97900 0.68600 0.17400 0.02200
H 	H 	0.48100 0.09800 0.16600 0.32000
H 	H 	0.13900 0.04020 0.54780 0.06800
H 	H 	0.43900 0.13700 0.47300 0.06700
H 	H 	0.52100 0.17400 0.68600 0.01400
H 	H 	0.98100 0.83400 0.90200 0.32000
H 	H 	0.63900 0.45220 0.95980 0.06600
H 	H 	0.93900 0.52700 0.86300 0.06500
H 	H 	0.02100 0.31400 0.82600 0.02200
H 	H 	0.51900 0.90200 0.83400 0.32000
H 	H 	0.86100 0.95980 0.45220 0.06800
H 	H 	0.56100 0.86300 0.52700 0.06700
H 	H 	0.47900 0.82600 0.31400 0.01400
C 	C 	0.23670 0.69671 0.08807 -0.05700
C 	C 	0.28940 0.57178 0.06586 -0.02000
C 	C 	0.22120 0.48568 0.08276 -0.05000
C 	C 	0.10520 0.52817 0.12463 -0.05900
C 	C 	0.05830 0.65461 0.14259 0.03200
C 	C 	0.30300 0.79661 0.07117 0.37600
C 	C 	0.26980 0.34709 0.05763 0.34100
C 	C 	0.26330 0.08807 0.69671 -0.05400
C 	C 	0.21060 0.06586 0.57178 -0.02100
C 	C 	0.27880 0.08276 0.48568 -0.04800
C 	C 	0.39480 0.12463 0.52817 -0.06500
C 	C 	0.44170 0.14259 0.65461 0.04400
C 	C 	0.19700 0.07117 0.79661 0.37500
C 	C 	0.23020 0.05763 0.34709 0.34700
C 	C 	0.76330 0.30329 0.91193 -0.05700
C 	C 	0.71060 0.42822 0.93414 -0.02000
C 	C 	0.77880 0.51432 0.91724 -0.05000
C 	C 	0.89480 0.47183 0.87537 -0.05900
C 	C 	0.94170 0.34539 0.85741 0.03200
C 	C 	0.69700 0.20339 0.92883 0.37600
C 	C 	0.73020 0.65291 0.94237 0.34100
C 	C 	0.73670 0.91193 0.30329 -0.05400
C 	C 	0.78940 0.93414 0.42822 -0.02100
C 	C 	0.72120 0.91724 0.51432 -0.04800
C 	C 	0.60520 0.87537 0.47183 -0.06500
C 	C 	0.55830 0.85741 0.34539 0.04400
C 	C 	0.80300 0.92883 0.20339 0.37500
C 	C 	0.76980 0.94237 0.65291 0.34700
N 	N 	0.12150 0.73805 0.12337 -0.19400
N 	N 	0.37850 0.12337 0.73805 -0.19500
N 	N 	0.87850 0.26195 0.87663 -0.19400
N 	N 	0.62150 0.87663 0.26195 -0.19500
O 	O 	0.23473 0.90379 0.07225 -0.56000
O 	O 	0.41813 0.76902 0.05980 -0.42800
O 	O 	0.34556 0.30997 0.98177 -0.38600
O 	O 	0.22770 0.28154 0.11410 -0.42400
O 	O 	0.05017 0.10137 0.05985 -0.81400
O 	O 	0.26527 0.07225 0.90379 -0.55600
O 	O 	0.08187 0.05980 0.76902 -0.42300
O 	O 	0.15444 0.98177 0.30997 -0.39300
O 	O 	0.27230 0.11410 0.28154 -0.42500
O 	O 	0.44983 0.05985 0.10137 -0.81500
O 	O 	0.76527 0.09621 0.92775 -0.56000
O 	O 	0.58187 0.23098 0.94020 -0.42800
O 	O 	0.65444 0.69003 0.01823 -0.38600
O 	O 	0.77230 0.71846 0.88590 -0.42400
O 	O 	0.94983 0.89863 0.94015 -0.81400
O 	O 	0.73473 0.92775 0.09621 -0.55600
O 	O 	0.91813 0.94020 0.23098 -0.42300
O 	O 	0.84556 0.01823 0.69003 -0.39300
O 	O 	0.72770 0.88590 0.71846 -0.42500
O 	O 	0.55017 0.94015 0.89863 -0.81500
