data_crystal

_cell_length_a 12.96000
_cell_length_b 21.18930
_cell_length_c 21.18930
_cell_angle_alpha 84.40150
_cell_angle_beta  72.19290
_cell_angle_gamma 72.19280

_symmetry_space_group_name_	'P 1'
_symmetry_space_group_name_H-M	'P 1'

loop_
_symmetry_equiv_pos_as_xyz
  x,y,z

loop_
_atom_site_label
_atom_site_type_symbol
_atom_site_fract_x
_atom_site_fract_y
_atom_site_fract_z
_atom_site_charge
Li	Li	0.95310 0.51415 0.04885 0.56000
Li	Li	0.19317 0.95404 0.52242 0.55900
Li	Li	0.79796 0.00637 0.56331 0.55500
Li	Li	0.94690 0.30490 0.97870 0.54200
Li	Li	0.51610 0.48585 0.95115 0.55900
Li	Li	0.66963 0.04596 0.47758 0.55900
Li	Li	0.36764 0.99363 0.43669 0.55500
Li	Li	0.23050 0.69510 0.02130 0.54100
Li	Li	0.01610 0.95115 0.48585 0.55800
Li	Li	0.16963 0.47758 0.04596 0.55800
Li	Li	0.86764 0.43669 0.99363 0.55400
Li	Li	0.73050 0.02130 0.69510 0.54100
Li	Li	0.45310 0.04885 0.51415 0.55800
Li	Li	0.69317 0.52242 0.95404 0.55800
Li	Li	0.29796 0.56331 0.00637 0.55400
Li	Li	0.44690 0.97870 0.30490 0.54100
H 	H 	0.08070 0.57200 0.94080 0.01900
H 	H 	0.17320 0.65210 0.89490 0.06900
H 	H 	0.95570 0.72240 0.78440 0.08200
H 	H 	0.86600 0.64260 0.83020 0.01600
H 	H 	0.86160 0.91560 0.75020 -0.04100
H 	H 	0.92470 0.84040 0.82880 0.08600
H 	H 	0.23310 0.77000 0.69240 0.09300
H 	H 	0.17100 0.84800 0.61620 0.00900
H 	H 	0.26720 0.77340 0.79020 0.09700
H 	H 	0.23730 0.74080 0.86240 0.08600
H 	H 	0.28310 0.69540 0.79780 0.10300
H 	H 	0.01290 0.07070 0.55850 0.01600
H 	H 	0.84060 0.12700 0.63240 0.06800
H 	H 	0.98910 0.25490 0.67170 0.08900
H 	H 	0.16270 0.19620 0.60040 0.01600
H 	H 	0.90640 0.27230 0.86770 -0.04500
H 	H 	0.91480 0.20880 0.78140 0.09800
H 	H 	0.64450 0.34430 0.74710 0.10500
H 	H 	0.62920 0.40490 0.83710 0.00300
H 	H 	0.59350 0.42800 0.05920 0.01400
H 	H 	0.72020 0.34790 0.10510 0.07300
H 	H 	0.46250 0.27760 0.21560 0.08600
H 	H 	0.33880 0.35740 0.16980 0.01100
H 	H 	0.52740 0.08440 0.24980 -0.03800
H 	H 	0.59390 0.15960 0.17120 0.08600
H 	H 	0.69550 0.23000 0.30760 0.09200
H 	H 	0.63520 0.15200 0.38380 0.01200
H 	H 	0.83080 0.22660 0.20980 0.09900
H 	H 	0.84050 0.25920 0.13760 0.08800
H 	H 	0.77630 0.30460 0.20220 0.10400
H 	H 	0.64210 0.92930 0.44150 0.01300
H 	H 	0.60000 0.87300 0.36760 0.07300
H 	H 	0.91570 0.74510 0.32830 0.09400
H 	H 	0.95930 0.80380 0.39960 0.01400
H 	H 	0.04640 0.72770 0.13230 -0.05500
H 	H 	0.90500 0.79120 0.21860 0.10200
H 	H 	0.73590 0.65570 0.25290 0.10600
H 	H 	0.87120 0.59510 0.16290 0.00400
H 	H 	0.09350 0.05920 0.42800 0.01800
H 	H 	0.22020 0.10510 0.34790 0.06900
H 	H 	0.96250 0.21560 0.27760 0.08300
H 	H 	0.83880 0.16980 0.35740 0.01500
H 	H 	0.02740 0.24980 0.08440 -0.03900
H 	H 	0.09390 0.17120 0.15960 0.08400
H 	H 	0.19550 0.30760 0.23000 0.09100
H 	H 	0.13520 0.38380 0.15200 0.01300
H 	H 	0.33080 0.20980 0.22660 0.09700
H 	H 	0.34050 0.13760 0.25920 0.08600
H 	H 	0.27630 0.20220 0.30460 0.10300
H 	H 	0.14210 0.44150 0.92930 0.01200
H 	H 	0.10000 0.36760 0.87300 0.07100
H 	H 	0.41570 0.32830 0.74510 0.09300
H 	H 	0.45930 0.39960 0.80380 0.01200
H 	H 	0.54640 0.13230 0.72770 -0.04500
H 	H 	0.40500 0.21860 0.79120 0.09800
H 	H 	0.23590 0.25290 0.65570 0.10400
H 	H 	0.37120 0.16290 0.59510 0.00300
H 	H 	0.58070 0.94080 0.57200 0.01400
H 	H 	0.67320 0.89490 0.65210 0.07300
H 	H 	0.45570 0.78440 0.72240 0.08600
H 	H 	0.36600 0.83020 0.64260 0.01100
H 	H 	0.36160 0.75020 0.91560 -0.03800
H 	H 	0.42470 0.82880 0.84040 0.08500
H 	H 	0.73310 0.69240 0.77000 0.09200
H 	H 	0.67100 0.61620 0.84800 0.01300
H 	H 	0.76720 0.79020 0.77340 0.09800
H 	H 	0.73730 0.86240 0.74080 0.08600
H 	H 	0.78310 0.79780 0.69540 0.10400
H 	H 	0.51290 0.55850 0.07070 0.01200
H 	H 	0.34060 0.63240 0.12700 0.07200
H 	H 	0.48910 0.67170 0.25490 0.09300
H 	H 	0.66270 0.60040 0.19620 0.01200
H 	H 	0.40640 0.86770 0.27230 -0.04600
H 	H 	0.41480 0.78140 0.20880 0.09800
H 	H 	0.14450 0.74710 0.34430 0.10300
H 	H 	0.12920 0.83710 0.40490 0.00200
C 	C 	0.90638 0.54673 0.91817 0.36600
C 	C 	0.96553 0.59810 0.88888 -0.13700
C 	C 	0.05530 0.60251 0.90893 0.05500
C 	C 	0.10886 0.65126 0.88280 -0.14700
C 	C 	0.06797 0.69898 0.83866 0.12200
C 	C 	0.98017 0.69297 0.81725 -0.15300
C 	C 	0.92862 0.64445 0.84349 0.07000
C 	C 	0.97112 0.93532 0.62320 0.43400
C 	C 	0.01131 0.88942 0.67528 -0.20600
C 	C 	0.93674 0.88663 0.73889 0.11400
C 	C 	0.97372 0.84119 0.78517 -0.18900
C 	C 	0.08255 0.79687 0.76763 0.14200
C 	C 	0.15839 0.79933 0.70409 -0.18100
C 	C 	0.12079 0.84580 0.65922 0.10300
C 	C 	0.23650 0.73911 0.81649 -0.24600
C 	C 	0.21731 0.08845 0.52951 0.36700
C 	C 	0.10477 0.12713 0.57301 -0.14500
C 	C 	0.00860 0.10775 0.58217 0.06200
C 	C 	0.90539 0.14184 0.62558 -0.15300
C 	C 	0.89695 0.19725 0.65885 0.14300
C 	C 	0.99372 0.21708 0.64908 -0.16200
C 	C 	0.09725 0.18220 0.60650 0.06900
C 	C 	0.76221 0.39053 0.91359 0.43100
C 	C 	0.76708 0.34590 0.86084 -0.21200
C 	C 	0.85199 0.28737 0.84385 0.13600
C 	C 	0.85768 0.25012 0.79132 -0.22200
C 	C 	0.78431 0.27069 0.75329 0.18400
C 	C 	0.69824 0.32906 0.77126 -0.20700
C 	C 	0.68994 0.36541 0.82491 0.12300
C 	C 	0.68930 0.24480 0.67840 0.01200
C 	C 	0.37128 0.45327 0.08183 0.37000
C 	C 	0.45251 0.40190 0.11112 -0.15200
C 	C 	0.56674 0.39749 0.09107 0.07200
C 	C 	0.64292 0.34874 0.11720 -0.15800
C 	C 	0.60561 0.30102 0.16134 0.13600
C 	C 	0.49039 0.30703 0.18275 -0.17000
C 	C 	0.41656 0.35555 0.15651 0.08200
C 	C 	0.52964 0.06468 0.37680 0.41600
C 	C 	0.57601 0.11058 0.32472 -0.18700
C 	C 	0.56226 0.11337 0.26111 0.10000
C 	C 	0.60008 0.15881 0.21483 -0.19100
C 	C 	0.64705 0.20313 0.23237 0.14600
C 	C 	0.66181 0.20067 0.29591 -0.17700
C 	C 	0.62581 0.15420 0.34078 0.09500
C 	C 	0.79210 0.26089 0.18351 -0.24800
C 	C 	0.83527 0.91155 0.47049 0.37000
C 	C 	0.80491 0.87287 0.42699 -0.15300
C 	C 	0.69852 0.89225 0.41783 0.07700
C 	C 	0.67281 0.85816 0.37442 -0.16700
C 	C 	0.75305 0.80275 0.34115 0.15100
C 	C 	0.85988 0.78292 0.35092 -0.17600
C 	C 	0.88595 0.81780 0.39350 0.08400
C 	C 	0.06633 0.60947 0.08641 0.42700
C 	C 	0.97382 0.65410 0.13916 -0.21200
C 	C 	0.98321 0.71263 0.15615 0.15100
C 	C 	0.89912 0.74988 0.20868 -0.23000
C 	C 	0.80829 0.72931 0.24671 0.18800
C 	C 	0.79856 0.67094 0.22874 -0.20900
C 	C 	0.88026 0.63459 0.17509 0.12500
C 	C 	0.61250 0.75520 0.32160 0.01100
C 	C 	0.87128 0.08183 0.45327 0.36600
C 	C 	0.95251 0.11112 0.40190 -0.13800
C 	C 	0.06674 0.09107 0.39749 0.05700
C 	C 	0.14292 0.11720 0.34874 -0.14800
C 	C 	0.10561 0.16134 0.30102 0.12300
C 	C 	0.99039 0.18275 0.30703 -0.15400
C 	C 	0.91656 0.15651 0.35555 0.07100
C 	C 	0.02964 0.37680 0.06468 0.40800
C 	C 	0.07601 0.32472 0.11058 -0.18500
C 	C 	0.06226 0.26111 0.11337 0.09700
C 	C 	0.10008 0.21483 0.15881 -0.19000
C 	C 	0.14705 0.23237 0.20313 0.14300
C 	C 	0.16181 0.29591 0.20067 -0.17600
C 	C 	0.12581 0.34078 0.15420 0.09300
C 	C 	0.29210 0.18351 0.26089 -0.24600
C 	C 	0.33527 0.47049 0.91155 0.37000
C 	C 	0.30491 0.42699 0.87287 -0.15400
C 	C 	0.19852 0.41783 0.89225 0.07700
C 	C 	0.17281 0.37442 0.85816 -0.16700
C 	C 	0.25305 0.34115 0.80275 0.15000
C 	C 	0.35988 0.35092 0.78292 -0.17700
C 	C 	0.38595 0.39350 0.81780 0.08400
C 	C 	0.56633 0.08641 0.60947 0.43100
C 	C 	0.47382 0.13916 0.65410 -0.21300
C 	C 	0.48321 0.15615 0.71263 0.13600
C 	C 	0.39912 0.20868 0.74988 -0.22300
C 	C 	0.30829 0.24671 0.72931 0.18400
C 	C 	0.29856 0.22874 0.67094 -0.20700
C 	C 	0.38026 0.17509 0.63459 0.12300
C 	C 	0.11250 0.32160 0.75520 0.00900
C 	C 	0.40638 0.91817 0.54673 0.37000
C 	C 	0.46553 0.88888 0.59810 -0.15100
C 	C 	0.55530 0.90893 0.60251 0.07200
C 	C 	0.60886 0.88280 0.65126 -0.15800
C 	C 	0.56797 0.83866 0.69898 0.13600
C 	C 	0.48017 0.81725 0.69297 -0.17000
C 	C 	0.42862 0.84349 0.64445 0.08200
C 	C 	0.47112 0.62320 0.93532 0.41600
C 	C 	0.51131 0.67528 0.88942 -0.18700
C 	C 	0.43674 0.73889 0.88663 0.10000
C 	C 	0.47372 0.78517 0.84119 -0.19100
C 	C 	0.58255 0.76763 0.79687 0.14600
C 	C 	0.65839 0.70409 0.79933 -0.17700
C 	C 	0.62079 0.65922 0.84580 0.09500
C 	C 	0.73650 0.81649 0.73911 -0.24600
C 	C 	0.71731 0.52951 0.08845 0.37000
C 	C 	0.60477 0.57301 0.12713 -0.15300
C 	C 	0.50860 0.58217 0.10775 0.07700
C 	C 	0.40539 0.62558 0.14184 -0.16700
C 	C 	0.39695 0.65885 0.19725 0.15100
C 	C 	0.49372 0.64908 0.21708 -0.17600
C 	C 	0.59725 0.60650 0.18220 0.08400
C 	C 	0.26221 0.91359 0.39053 0.43100
C 	C 	0.26708 0.86084 0.34590 -0.21400
C 	C 	0.35199 0.84385 0.28737 0.13600
C 	C 	0.35768 0.79132 0.25012 -0.22300
C 	C 	0.28431 0.75329 0.27069 0.18400
C 	C 	0.19824 0.77126 0.32906 -0.20800
C 	C 	0.18994 0.82491 0.36541 0.12300
C 	C 	0.18930 0.67840 0.24480 0.00900
N 	N 	0.11878 0.75047 0.81501 -0.12900
N 	N 	0.79188 0.23392 0.70052 -0.16800
N 	N 	0.68426 0.24953 0.18499 -0.13000
N 	N 	0.72632 0.76608 0.29948 -0.17000
N 	N 	0.18426 0.18499 0.24953 -0.12900
N 	N 	0.22632 0.29948 0.76608 -0.16900
N 	N 	0.61878 0.81501 0.75047 -0.13000
N 	N 	0.29188 0.70052 0.23392 -0.16900
O 	O 	0.94165 0.50739 0.96123 -0.43100
O 	O 	0.82401 0.54535 0.89931 -0.36600
O 	O 	0.04628 0.94187 0.57101 -0.45300
O 	O 	0.86676 0.96309 0.63385 -0.48100
O 	O 	0.21954 0.03911 0.49935 -0.43400
O 	O 	0.30245 0.10726 0.52514 -0.36500
O 	O 	0.84303 0.37679 0.93835 -0.47700
O 	O 	0.67697 0.44014 0.92906 -0.44800
O 	O 	0.41027 0.49261 0.03877 -0.43500
O 	O 	0.26867 0.45465 0.10069 -0.36800
O 	O 	0.55916 0.05813 0.42899 -0.44500
O 	O 	0.46370 0.03691 0.36615 -0.47800
O 	O 	0.75800 0.96089 0.50065 -0.43400
O 	O 	0.93485 0.89274 0.47486 -0.36300
O 	O 	0.15817 0.62321 0.06165 -0.47800
O 	O 	0.04617 0.55986 0.07094 -0.45000
O 	O 	0.91027 0.03877 0.49261 -0.43200
O 	O 	0.76867 0.10069 0.45465 -0.36600
O 	O 	0.05916 0.42899 0.05813 -0.44400
O 	O 	0.96370 0.36615 0.03691 -0.47000
O 	O 	0.25800 0.50065 0.96089 -0.43500
O 	O 	0.43485 0.47486 0.89274 -0.36600
O 	O 	0.65817 0.06165 0.62321 -0.47700
O 	O 	0.54617 0.07094 0.55986 -0.44800
O 	O 	0.44165 0.96123 0.50739 -0.43400
O 	O 	0.32401 0.89931 0.54535 -0.36700
O 	O 	0.54628 0.57101 0.94187 -0.44400
O 	O 	0.36676 0.63385 0.96309 -0.47700
O 	O 	0.71954 0.49935 0.03911 -0.43500
O 	O 	0.80245 0.52514 0.10726 -0.36400
O 	O 	0.34303 0.93835 0.37679 -0.47800
O 	O 	0.17697 0.92906 0.44014 -0.44900
