data_crystal

_cell_length_a 12.91500
_cell_length_b 21.26420
_cell_length_c 21.26420
_cell_angle_alpha 84.67580
_cell_angle_beta  72.32130
_cell_angle_gamma 72.32130

_symmetry_space_group_name_	'P 1'
_symmetry_space_group_name_H-M	'P 1'

loop_
_symmetry_equiv_pos_as_xyz
  x,y,z

loop_
_atom_site_label
_atom_site_type_symbol
_atom_site_fract_x
_atom_site_fract_y
_atom_site_fract_z
_atom_site_charge
Li	Li	0.91520 0.00405 0.56175 0.55300
Li	Li	0.76195 0.51755 0.04915 0.55800
Li	Li	0.58797 0.47783 0.04443 0.55700
Li	Li	0.05020 0.30590 0.99050 0.54100
Li	Li	0.48100 0.99595 0.43825 0.55300
Li	Li	0.32865 0.48245 0.95085 0.55800
Li	Li	0.11023 0.52217 0.95557 0.55700
Li	Li	0.34660 0.69410 0.00950 0.54000
Li	Li	0.98100 0.43825 0.99595 0.55300
Li	Li	0.82865 0.95085 0.48245 0.55800
Li	Li	0.61023 0.95557 0.52217 0.55700
Li	Li	0.84660 0.00950 0.69410 0.54200
Li	Li	0.41520 0.56175 0.00405 0.55400
Li	Li	0.26195 0.04915 0.51755 0.55900
Li	Li	0.08797 0.04443 0.47783 0.55800
Li	Li	0.55020 0.99050 0.30590 0.54200
H 	H 	0.60730 0.38980 0.15280 0.01000
H 	H 	0.54130 0.31880 0.23680 0.10200
H 	H 	0.84430 0.17980 0.17200 0.09100
H 	H 	0.91170 0.25190 0.09030 -0.04000
H 	H 	0.69150 0.06460 0.42920 0.01300
H 	H 	0.60320 0.10940 0.34900 0.07700
H 	H 	0.82160 0.22060 0.28500 0.09500
H 	H 	0.91270 0.17140 0.36180 0.01100
H 	H 	0.11910 0.80380 0.39620 0.01300
H 	H 	0.29160 0.74960 0.31940 0.09300
H 	H 	0.44500 0.86690 0.37230 0.08100
H 	H 	0.27130 0.92800 0.44000 0.01400
H 	H 	0.63620 0.58870 0.17090 0.00400
H 	H 	0.62390 0.65290 0.25590 0.10500
H 	H 	0.36850 0.79500 0.21360 0.09700
H 	H 	0.38110 0.73160 0.12540 -0.03900
H 	H 	0.14990 0.61020 0.84720 0.01000
H 	H 	0.09690 0.68120 0.76320 0.10200
H 	H 	0.19610 0.82020 0.82800 0.09100
H 	H 	0.25390 0.74810 0.90970 -0.04000
H 	H 	0.18530 0.93540 0.57080 0.01300
H 	H 	0.06160 0.89060 0.65100 0.07600
H 	H 	0.32720 0.77940 0.71500 0.09500
H 	H 	0.44590 0.82860 0.63820 0.01100
H 	H 	0.31910 0.19620 0.60380 0.01300
H 	H 	0.36060 0.25040 0.68060 0.09300
H 	H 	0.68420 0.13310 0.62770 0.08100
H 	H 	0.63930 0.07200 0.56000 0.01400
H 	H 	0.39580 0.41130 0.82910 0.00400
H 	H 	0.53270 0.34710 0.74410 0.10500
H 	H 	0.37710 0.20500 0.78640 0.09700
H 	H 	0.23810 0.26840 0.87460 -0.03900
H 	H 	0.64990 0.84720 0.61020 0.01000
H 	H 	0.59690 0.76320 0.68120 0.10200
H 	H 	0.69610 0.82800 0.82020 0.09100
H 	H 	0.75390 0.90970 0.74810 -0.04000
H 	H 	0.68530 0.57080 0.93540 0.01300
H 	H 	0.56160 0.65100 0.89060 0.07700
H 	H 	0.82720 0.71500 0.77940 0.09500
H 	H 	0.94590 0.63820 0.82860 0.01100
H 	H 	0.81910 0.60380 0.19620 0.01400
H 	H 	0.86060 0.68060 0.25040 0.09200
H 	H 	0.18420 0.62770 0.13310 0.08100
H 	H 	0.13930 0.56000 0.07200 0.01400
H 	H 	0.89580 0.82910 0.41130 0.00400
H 	H 	0.03270 0.74410 0.34710 0.10500
H 	H 	0.87710 0.78640 0.20500 0.09700
H 	H 	0.73810 0.87460 0.26840 -0.03900
H 	H 	0.10730 0.15280 0.38980 0.01000
H 	H 	0.04130 0.23680 0.31880 0.10200
H 	H 	0.34430 0.17200 0.17980 0.09100
H 	H 	0.41170 0.09030 0.25190 -0.04000
H 	H 	0.19150 0.42920 0.06460 0.01300
H 	H 	0.10320 0.34900 0.10940 0.07700
H 	H 	0.32160 0.28500 0.22060 0.09500
H 	H 	0.41270 0.36180 0.17140 0.01100
H 	H 	0.61910 0.39620 0.80380 0.01300
H 	H 	0.79160 0.31940 0.74960 0.09300
H 	H 	0.94500 0.37230 0.86690 0.08200
H 	H 	0.77130 0.44000 0.92800 0.01400
H 	H 	0.13620 0.17090 0.58870 0.00400
H 	H 	0.12390 0.25590 0.65290 0.10500
H 	H 	0.86850 0.21360 0.79500 0.09800
H 	H 	0.88110 0.12540 0.73160 -0.03900
C 	C 	0.80701 0.37937 0.06921 0.41800
C 	C 	0.76647 0.32929 0.11617 -0.19900
C 	C 	0.65670 0.34749 0.15791 0.10800
C 	C 	0.61620 0.30505 0.20775 -0.19300
C 	C 	0.68680 0.24380 0.21320 0.16700
C 	C 	0.79700 0.22323 0.16877 -0.20000
C 	C 	0.83740 0.26590 0.12010 0.11800
C 	C 	0.87460 0.08133 0.45367 0.36900
C 	C 	0.81353 0.11173 0.40401 -0.15600
C 	C 	0.71960 0.09554 0.39886 0.07900
C 	C 	0.66570 0.12264 0.35156 -0.16800
C 	C 	0.70330 0.17002 0.30698 0.15200
C 	C 	0.79580 0.18783 0.31337 -0.18200
C 	C 	0.84910 0.15897 0.35963 0.09200
C 	C 	0.54140 0.18610 0.26410 0.00500
C 	C 	0.06508 0.91188 0.46756 0.37200
C 	C 	0.17675 0.87206 0.42444 -0.15100
C 	C 	0.18423 0.81837 0.38977 0.08300
C 	C 	0.28834 0.78496 0.34496 -0.17500
C 	C 	0.38591 0.80289 0.33769 0.15200
C 	C 	0.37817 0.85523 0.37523 -0.16900
C 	C 	0.27530 0.89090 0.41670 0.07500
C 	C 	0.51624 0.60995 0.08517 0.42500
C 	C 	0.51127 0.65373 0.13753 -0.20700
C 	C 	0.58219 0.63101 0.17841 0.12000
C 	C 	0.57446 0.66934 0.22914 -0.20600
C 	C 	0.49652 0.73118 0.24218 0.18300
C 	C 	0.42441 0.75329 0.20429 -0.21900
C 	C 	0.43151 0.71519 0.15159 0.12700
C 	C 	0.59570 0.76910 0.30630 0.01300
C 	C 	0.25559 0.62063 0.93079 0.41800
C 	C 	0.21193 0.67071 0.88383 -0.19900
C 	C 	0.16210 0.65251 0.84209 0.10800
C 	C 	0.12900 0.69495 0.79225 -0.19300
C 	C 	0.14380 0.75620 0.78680 0.16600
C 	C 	0.18900 0.77677 0.83123 -0.20000
C 	C 	0.22340 0.73410 0.87990 0.11700
C 	C 	0.40960 0.91867 0.54633 0.36900
C 	C 	0.32927 0.88827 0.59599 -0.15600
C 	C 	0.21400 0.90446 0.60114 0.07900
C 	C 	0.13990 0.87736 0.64844 -0.16800
C 	C 	0.18030 0.82998 0.69302 0.15200
C 	C 	0.29700 0.81217 0.68663 -0.18200
C 	C 	0.36770 0.84103 0.64037 0.09200
C 	C 	0.99160 0.81390 0.73590 0.00600
C 	C 	0.44452 0.08812 0.53244 0.37200
C 	C 	0.47325 0.12794 0.57556 -0.15100
C 	C 	0.39237 0.18163 0.61023 0.08300
C 	C 	0.41826 0.21504 0.65504 -0.17500
C 	C 	0.52649 0.19711 0.66231 0.15200
C 	C 	0.60863 0.14477 0.62477 -0.16800
C 	C 	0.58290 0.10910 0.58330 0.07500
C 	C 	0.21136 0.39005 0.91483 0.42500
C 	C 	0.30253 0.34627 0.86247 -0.20700
C 	C 	0.39161 0.36899 0.82159 0.12000
C 	C 	0.47294 0.33066 0.77086 -0.20600
C 	C 	0.46988 0.26882 0.75782 0.18300
C 	C 	0.38199 0.24671 0.79571 -0.21900
C 	C 	0.29829 0.28481 0.84841 0.12700
C 	C 	0.67110 0.23090 0.69370 0.01300
C 	C 	0.75559 0.93079 0.62063 0.41800
C 	C 	0.71193 0.88383 0.67071 -0.19900
C 	C 	0.66210 0.84209 0.65251 0.10800
C 	C 	0.62900 0.79225 0.69495 -0.19300
C 	C 	0.64380 0.78680 0.75620 0.16700
C 	C 	0.68900 0.83123 0.77677 -0.20000
C 	C 	0.72340 0.87990 0.73410 0.11800
C 	C 	0.90960 0.54633 0.91867 0.36900
C 	C 	0.82927 0.59599 0.88827 -0.15600
C 	C 	0.71400 0.60114 0.90446 0.07900
C 	C 	0.63990 0.64844 0.87736 -0.16800
C 	C 	0.68030 0.69302 0.82998 0.15200
C 	C 	0.79700 0.68663 0.81217 -0.18200
C 	C 	0.86770 0.64037 0.84103 0.09200
C 	C 	0.49160 0.73590 0.81390 0.00500
C 	C 	0.94452 0.53244 0.08812 0.37200
C 	C 	0.97325 0.57556 0.12794 -0.15100
C 	C 	0.89237 0.61023 0.18163 0.08200
C 	C 	0.91826 0.65504 0.21504 -0.17400
C 	C 	0.02649 0.66231 0.19711 0.15100
C 	C 	0.10863 0.62477 0.14477 -0.16800
C 	C 	0.08290 0.58330 0.10910 0.07400
C 	C 	0.71136 0.91483 0.39005 0.42500
C 	C 	0.80253 0.86247 0.34627 -0.20700
C 	C 	0.89161 0.82159 0.36899 0.12000
C 	C 	0.97294 0.77086 0.33066 -0.20500
C 	C 	0.96988 0.75782 0.26882 0.18200
C 	C 	0.88199 0.79571 0.24671 -0.21900
C 	C 	0.79829 0.84841 0.28481 0.12700
C 	C 	0.17110 0.69370 0.23090 0.01300
C 	C 	0.30701 0.06921 0.37937 0.41800
C 	C 	0.26647 0.11617 0.32929 -0.19900
C 	C 	0.15670 0.15791 0.34749 0.10800
C 	C 	0.11620 0.20775 0.30505 -0.19300
C 	C 	0.18680 0.21320 0.24380 0.16600
C 	C 	0.29700 0.16877 0.22323 -0.20000
C 	C 	0.33740 0.12010 0.26590 0.11700
C 	C 	0.37460 0.45367 0.08133 0.36900
C 	C 	0.31353 0.40401 0.11173 -0.15600
C 	C 	0.21960 0.39886 0.09554 0.07900
C 	C 	0.16570 0.35156 0.12264 -0.16800
C 	C 	0.20330 0.30698 0.17002 0.15200
C 	C 	0.29580 0.31337 0.18783 -0.18200
C 	C 	0.34910 0.35963 0.15897 0.09200
C 	C 	0.04140 0.26410 0.18610 0.00500
C 	C 	0.56508 0.46756 0.91188 0.37200
C 	C 	0.67675 0.42444 0.87206 -0.15100
C 	C 	0.68423 0.38977 0.81837 0.08300
C 	C 	0.78834 0.34496 0.78496 -0.17500
C 	C 	0.88591 0.33769 0.80289 0.15200
C 	C 	0.87817 0.37523 0.85523 -0.16800
C 	C 	0.77530 0.41670 0.89090 0.07500
C 	C 	0.01624 0.08517 0.60995 0.42500
C 	C 	0.01127 0.13753 0.65373 -0.20700
C 	C 	0.08219 0.17841 0.63101 0.12100
C 	C 	0.07446 0.22914 0.66934 -0.20600
C 	C 	0.99652 0.24218 0.73118 0.18300
C 	C 	0.92441 0.20429 0.75329 -0.21900
C 	C 	0.93151 0.15159 0.71519 0.12800
C 	C 	0.09570 0.30630 0.76910 0.01300
N 	N 	0.64840 0.19707 0.25973 -0.16400
N 	N 	0.49152 0.76868 0.29448 -0.16800
N 	N 	0.10520 0.80293 0.74027 -0.16400
N 	N 	0.55468 0.23132 0.70552 -0.16800
N 	N 	0.60520 0.74027 0.80293 -0.16400
N 	N 	0.05468 0.70552 0.23132 -0.16800
N 	N 	0.14840 0.25973 0.19707 -0.16400
N 	N 	0.99152 0.29448 0.76868 -0.16800
O 	O 	0.73389 0.43116 0.05926 -0.43900
O 	O 	0.91229 0.36898 0.04224 -0.47500
O 	O 	0.83770 0.03783 0.49177 -0.43000
O 	O 	0.95837 0.09896 0.45470 -0.36900
O 	O 	0.06321 0.95985 0.49849 -0.44100
O 	O 	0.97876 0.89323 0.47125 -0.36400
O 	O 	0.60172 0.56023 0.06933 -0.44900
O 	O 	0.43564 0.62421 0.05971 -0.47100
O 	O 	0.22431 0.56884 0.94074 -0.43900
O 	O 	0.32351 0.63102 0.95776 -0.47500
O 	O 	0.36730 0.96217 0.50823 -0.43000
O 	O 	0.51203 0.90104 0.54530 -0.36900
O 	O 	0.52155 0.04015 0.50151 -0.44100
O 	O 	0.34324 0.10677 0.52875 -0.36400
O 	O 	0.23128 0.43977 0.93067 -0.44900
O 	O 	0.11956 0.37579 0.94029 -0.47100
O 	O 	0.72431 0.94074 0.56884 -0.43900
O 	O 	0.82351 0.95776 0.63102 -0.47500
O 	O 	0.86730 0.50823 0.96217 -0.43000
O 	O 	0.01203 0.54530 0.90104 -0.37000
O 	O 	0.02155 0.50151 0.04015 -0.44100
O 	O 	0.84324 0.52875 0.10677 -0.36400
O 	O 	0.73128 0.93067 0.43977 -0.44900
O 	O 	0.61956 0.94029 0.37579 -0.47100
O 	O 	0.23389 0.05926 0.43116 -0.43900
O 	O 	0.41229 0.04224 0.36898 -0.47500
O 	O 	0.33770 0.49177 0.03783 -0.43000
O 	O 	0.45837 0.45470 0.09896 -0.36900
O 	O 	0.56321 0.49849 0.95985 -0.44100
O 	O 	0.47876 0.47125 0.89323 -0.36400
O 	O 	0.10172 0.06933 0.56023 -0.44900
O 	O 	0.93564 0.05971 0.62421 -0.47100
