data_crystal

_cell_length_a 11.65540
_cell_length_b 13.40450
_cell_length_c 20.67970
_cell_angle_alpha 89.14100
_cell_angle_beta  76.43900
_cell_angle_gamma 67.33200

_symmetry_space_group_name_	'P 1'
_symmetry_space_group_name_H-M	'P 1'

loop_
_symmetry_equiv_pos_as_xyz
  x,y,z

loop_
_atom_site_label
_atom_site_type_symbol
_atom_site_fract_x
_atom_site_fract_y
_atom_site_fract_z
_atom_site_charge
Mo	Mo	0.54561 0.54779 0.32775 1.18200
Mo	Mo	0.24697 0.69742 0.61991 1.18500
Mo	Mo	0.27321 0.73129 0.44659 1.17400
Mo	Mo	0.50094 0.76416 0.52492 1.17700
Mo	Mo	0.29466 0.46387 0.40893 1.26300
Mo	Mo	0.76982 0.55529 0.41578 1.17500
O 	O 	0.41770 0.48350 0.34300 -0.47100
O 	O 	0.38680 0.79300 0.47160 -0.50200
O 	O 	0.41120 0.67800 0.36730 -0.49300
O 	O 	0.36270 0.76250 0.59930 -0.49100
O 	O 	0.59790 0.48180 0.43280 -0.33200
O 	O 	0.19550 0.44710 0.36640 -0.54300
O 	O 	0.20000 0.47010 0.50000 -0.47700
O 	O 	0.66480 0.39740 0.32550 -0.48200
O 	O 	0.60420 0.67800 0.58500 -0.46900
O 	O 	0.66780 0.58820 0.35030 -0.48900
O 	O 	0.17240 0.59000 0.60990 -0.48300
O 	O 	0.21880 0.62280 0.42750 -0.52600
O 	O 	0.19790 0.74110 0.53730 -0.49000
O 	O 	0.64580 0.70220 0.45610 -0.48900
O 	O 	0.43360 0.54570 0.44490 -0.32900
O 	O 	0.41350 0.43350 0.49300 -0.33200
O 	O 	0.58790 0.38100 0.48400 -0.32700
Cu	Cu	0.98722 0.18932 0.78099 0.85000
Cu	Cu	0.79281 0.35418 0.10793 0.82200
Cu	Cu	0.03400 0.69168 0.37258 0.82400
Cu	Cu	0.62875 0.97869 0.65466 0.81800
Cu	Cu	0.18503 0.43489 0.26498 0.86300
N 	N 	0.87990 0.38240 0.17270 -0.23800
N 	N 	0.61780 0.35730 0.14920 -0.23500
N 	N 	0.72830 0.04590 0.69500 -0.23200
N 	N 	0.04050 0.41590 0.24340 -0.23100
C 	C 	0.74860 0.17890 0.75940 -0.02300
H 	H 	0.70790 0.24480 0.78530 0.01500
C 	C 	0.93550 0.20360 0.99000 -0.01200
H 	H 	0.95360 0.15130 0.02040 -0.01100
N 	N 	0.87500 0.12530 0.75040 -0.21900
C 	C 	0.03960 0.31750 0.23320 -0.02000
H 	H 	0.09500 0.25810 0.24960 -0.01500
C 	C 	0.95900 0.30260 0.19910 -0.00700
H 	H 	0.95990 0.23340 0.19430 -0.02100
C 	C 	0.95360 0.49790 0.22080 -0.02100
H 	H 	0.94690 0.56830 0.22880 0.00200
C 	C 	0.92510 0.02980 0.71460 -0.02300
H 	H 	0.01210 0.98750 0.70870 -0.01600
C 	C 	0.51710 0.41330 0.12400 -0.01200
H 	H 	0.53130 0.44210 0.08320 -0.00800
C 	C 	0.89770 0.34560 0.89880 -0.00700
H 	H 	0.88710 0.39740 0.86780 0.01200
C 	C 	0.87530 0.48190 0.18670 -0.00800
H 	H 	0.81630 0.54170 0.17250 -0.01900
C 	C 	0.67690 0.13970 0.73150 -0.00800
H 	H 	0.58930 0.18040 0.73850 -0.00800
C 	C 	0.85630 0.37960 0.96580 -0.00700
H 	H 	0.81580 0.45350 0.97880 -0.01300
C 	C 	0.85400 0.99150 0.68610 -0.01900
H 	H 	0.89440 0.92580 0.65990 -0.01300
C 	C 	0.59150 0.31380 0.20550 -0.00700
H 	H 	0.65870 0.27210 0.22390 -0.00500
N 	N 	0.87260 0.30920 0.01300 -0.23700
C 	C 	0.97350 0.17140 0.92290 -0.00700
H 	H 	0.01560 0.09770 0.90940 -0.00900
N 	N 	0.95240 0.24090 0.87680 -0.21800
N 	N 	0.17500 0.12320 0.73060 -0.23500
N 	N 	0.92430 0.77070 0.45590 -0.24600
N 	N 	0.44270 0.03590 0.67860 -0.23800
N 	N 	0.75260 0.88480 0.57420 -0.24100
N 	N 	0.36780 0.38800 0.21550 -0.21700
C 	C 	0.46770 0.32810 0.23820 -0.00200
H 	H 	0.45440 0.29450 0.27730 0.00600
C 	C 	0.36880 0.13840 0.67160 -0.03000
H 	H 	0.40740 0.18230 0.64900 0.01100
C 	C 	0.23660 0.18150 0.69680 0.00500
H 	H 	0.18940 0.25290 0.69010 -0.03700
C 	C 	0.24900 0.02110 0.73730 0.01100
H 	H 	0.21060 0.97760 0.76070 -0.02100
C 	C 	0.83140 0.78170 0.57150 0.01000
H 	H 	0.82860 0.74640 0.61050 -0.01300
C 	C 	0.91790 0.72400 0.51330 -0.02300
H 	H 	0.97190 0.65200 0.51430 0.01600
C 	C 	0.39630 0.42870 0.15640 -0.01000
H 	H 	0.32960 0.46900 0.13740 0.00700
C 	C 	0.37770 0.97790 0.71160 -0.03600
H 	H 	0.42350 0.90540 0.71680 -0.00300
C 	C 	0.76280 0.93140 0.51680 -0.02000
H 	H 	0.71180 0.00440 0.51640 -0.02600
C 	C 	0.84650 0.87490 0.45830 -0.01900
H 	H 	0.84890 0.91030 0.41930 -0.01800
Cl	Cl	0.12100 0.63810 0.26854 -0.78200
Mo	Mo	0.45439 0.45221 0.67225 1.18300
Mo	Mo	0.75303 0.30258 0.38009 1.18600
Mo	Mo	0.72679 0.26871 0.55341 1.17400
Mo	Mo	0.49906 0.23584 0.47508 1.17700
Mo	Mo	0.70534 0.53613 0.59107 1.26300
Mo	Mo	0.23018 0.44471 0.58422 1.17500
O 	O 	0.58230 0.51650 0.65700 -0.47100
O 	O 	0.61320 0.20700 0.52840 -0.50200
O 	O 	0.58880 0.32200 0.63270 -0.49300
O 	O 	0.63730 0.23750 0.40070 -0.49100
O 	O 	0.40210 0.51820 0.56720 -0.33200
O 	O 	0.80450 0.55290 0.63360 -0.54300
O 	O 	0.80000 0.52990 0.50000 -0.47700
O 	O 	0.33520 0.60260 0.67450 -0.48200
O 	O 	0.39580 0.32200 0.41500 -0.46900
O 	O 	0.33220 0.41180 0.64970 -0.48900
O 	O 	0.82760 0.41000 0.39010 -0.48300
O 	O 	0.78120 0.37720 0.57250 -0.52600
O 	O 	0.80210 0.25890 0.46270 -0.49000
O 	O 	0.35420 0.29780 0.54390 -0.48900
O 	O 	0.56640 0.45430 0.55510 -0.32900
O 	O 	0.58650 0.56650 0.50700 -0.33200
O 	O 	0.41210 0.61900 0.51600 -0.32700
Cu	Cu	0.01278 0.81068 0.21901 0.85000
Cu	Cu	0.20719 0.64582 0.89207 0.82200
Cu	Cu	0.96600 0.30832 0.62742 0.82400
Cu	Cu	0.37125 0.02131 0.34534 0.81800
Cu	Cu	0.81497 0.56511 0.73502 0.86300
N 	N 	0.12010 0.61760 0.82730 -0.23800
N 	N 	0.38220 0.64270 0.85080 -0.23500
N 	N 	0.27170 0.95410 0.30500 -0.23200
N 	N 	0.95950 0.58410 0.75660 -0.23100
C 	C 	0.25140 0.82110 0.24060 -0.02300
H 	H 	0.29210 0.75520 0.21470 0.01500
C 	C 	0.06450 0.79640 0.01000 -0.01200
H 	H 	0.04640 0.84870 0.97960 -0.01100
N 	N 	0.12500 0.87470 0.24960 -0.21900
C 	C 	0.96040 0.68250 0.76680 -0.02000
H 	H 	0.90500 0.74190 0.75040 -0.01500
C 	C 	0.04100 0.69740 0.80090 -0.00700
H 	H 	0.04010 0.76660 0.80570 -0.02100
C 	C 	0.04640 0.50210 0.77920 -0.02100
H 	H 	0.05310 0.43170 0.77120 0.00200
C 	C 	0.07490 0.97020 0.28540 -0.02300
H 	H 	0.98790 0.01250 0.29130 -0.01600
C 	C 	0.48290 0.58670 0.87600 -0.01200
H 	H 	0.46870 0.55790 0.91680 -0.00800
C 	C 	0.10230 0.65440 0.10120 -0.00700
H 	H 	0.11290 0.60260 0.13220 0.01200
C 	C 	0.12470 0.51810 0.81330 -0.00800
H 	H 	0.18370 0.45830 0.82750 -0.01900
C 	C 	0.32310 0.86030 0.26850 -0.00800
H 	H 	0.41070 0.81960 0.26150 -0.00800
C 	C 	0.14370 0.62040 0.03420 -0.00700
H 	H 	0.18420 0.54650 0.02120 -0.01300
C 	C 	0.14600 0.00850 0.31390 -0.01900
H 	H 	0.10560 0.07420 0.34010 -0.01300
C 	C 	0.40850 0.68620 0.79450 -0.00700
H 	H 	0.34130 0.72790 0.77610 -0.00500
N 	N 	0.12740 0.69080 0.98700 -0.23700
C 	C 	0.02650 0.82860 0.07710 -0.00700
H 	H 	0.98440 0.90230 0.09060 -0.00900
N 	N 	0.04760 0.75910 0.12320 -0.21800
N 	N 	0.82500 0.87680 0.26940 -0.23500
N 	N 	0.07570 0.22930 0.54410 -0.24600
N 	N 	0.55730 0.96410 0.32140 -0.23800
N 	N 	0.24740 0.11520 0.42580 -0.24100
N 	N 	0.63220 0.61200 0.78450 -0.21700
C 	C 	0.53230 0.67190 0.76180 -0.00200
H 	H 	0.54560 0.70550 0.72270 0.00600
C 	C 	0.63120 0.86160 0.32840 -0.03000
H 	H 	0.59260 0.81770 0.35100 0.01100
C 	C 	0.76340 0.81850 0.30320 0.00500
H 	H 	0.81060 0.74710 0.30990 -0.03700
C 	C 	0.75100 0.97890 0.26270 0.01100
H 	H 	0.78940 0.02240 0.23930 -0.02100
C 	C 	0.16860 0.21830 0.42850 0.01000
H 	H 	0.17140 0.25360 0.38950 -0.01300
C 	C 	0.08210 0.27600 0.48670 -0.02300
H 	H 	0.02810 0.34800 0.48570 0.01600
C 	C 	0.60370 0.57130 0.84360 -0.01000
H 	H 	0.67040 0.53100 0.86260 0.00700
C 	C 	0.62230 0.02210 0.28840 -0.03600
H 	H 	0.57650 0.09460 0.28320 -0.00300
C 	C 	0.23720 0.06860 0.48320 -0.02000
H 	H 	0.28820 0.99560 0.48360 -0.02600
C 	C 	0.15350 0.12510 0.54170 -0.01900
H 	H 	0.15110 0.08970 0.58070 -0.01800
Cl	Cl	0.87900 0.36190 0.73146 -0.78200
P 	P 	0.50000 0.50000 0.50000 0.88400
