data_crystal

_cell_length_a 8.95900
_cell_length_b 8.95900
_cell_length_c 21.76400
_cell_angle_alpha 90.00000
_cell_angle_beta  90.00000
_cell_angle_gamma 120.00000

_symmetry_space_group_name_	'P 1'
_symmetry_space_group_name_H-M	'P 1'

loop_
_symmetry_equiv_pos_as_xyz
  x,y,z

loop_
_atom_site_label
_atom_site_type_symbol
_atom_site_fract_x
_atom_site_fract_y
_atom_site_fract_z
_atom_site_charge
Rb	Rb	-0.00000 -0.00000 0.50000 0.61700
Rb	Rb	0.66667 0.33333 0.83333 0.66500
Rb	Rb	0.33333 0.66667 0.16667 0.65900
Cr	Cr	0.33333 0.66667 0.66667 1.47400
Cr	Cr	-0.00000 0.00000 -0.00000 1.37400
Cr	Cr	0.66667 0.33333 0.33333 1.47400
C 	C 	0.22470 0.77530 0.61150 -0.25500
N 	N 	0.16370 0.83630 0.58000 -0.09000
C 	C 	0.89137 0.10863 0.94483 -0.20400
N 	N 	0.83037 0.16963 0.91333 -0.09900
C 	C 	0.55803 0.44197 0.27817 -0.26000
N 	N 	0.49703 0.50297 0.24667 -0.09900
C 	C 	0.22470 0.44940 0.61150 -0.27600
N 	N 	0.16370 0.32740 0.58000 -0.12400
C 	C 	0.89137 0.78273 0.94483 -0.12000
N 	N 	0.83037 0.66073 0.91333 -0.09500
C 	C 	0.55803 0.11607 0.27817 -0.36400
N 	N 	0.49703 0.99407 0.24667 -0.01400
C 	C 	0.55060 0.77530 0.61150 -0.23800
N 	N 	0.67260 0.83630 0.58000 -0.06200
C 	C 	0.21727 0.10863 0.94483 -0.28800
N 	N 	0.33927 0.16963 0.91333 -0.10200
C 	C 	0.88393 0.44197 0.27817 -0.16700
N 	N 	0.00593 0.50297 0.24667 -0.17300
C 	C 	0.77530 0.22470 0.38850 -0.25900
N 	N 	0.83630 0.16370 0.42000 -0.09400
C 	C 	0.44197 0.55803 0.72183 -0.25700
N 	N 	0.50297 0.49703 0.75333 -0.09500
C 	C 	0.10863 0.89137 0.05517 -0.26400
N 	N 	0.16963 0.83037 0.08667 -0.10400
C 	C 	0.44940 0.22470 0.38850 -0.27700
N 	N 	0.32740 0.16370 0.42000 -0.12400
C 	C 	0.11607 0.55803 0.72183 -0.34800
N 	N 	0.99407 0.49703 0.75333 -0.02100
C 	C 	0.78273 0.89137 0.05517 -0.18800
N 	N 	0.66073 0.83037 0.08667 -0.10100
C 	C 	0.77530 0.55060 0.38850 -0.23900
N 	N 	0.83630 0.67260 0.42000 -0.06200
C 	C 	0.44197 0.88393 0.72183 -0.15300
N 	N 	0.50297 0.00593 0.75333 -0.17800
C 	C 	0.10863 0.21727 0.05517 -0.36200
N 	N 	0.16963 0.33927 0.08667 -0.10700
