data_crystal

_cell_length_a 11.26680
_cell_length_b 13.36040
_cell_length_c 26.28200
_cell_angle_alpha 90.00000
_cell_angle_beta  90.00000
_cell_angle_gamma 90.00000

_symmetry_space_group_name_	'P 1'
_symmetry_space_group_name_H-M	'P 1'

loop_
_symmetry_equiv_pos_as_xyz
  x,y,z

loop_
_atom_site_label
_atom_site_type_symbol
_atom_site_fract_x
_atom_site_fract_y
_atom_site_fract_z
_atom_site_charge
La	La	0.97221 0.65859 0.21852 1.59600
La	La	0.47221 0.84141 0.28148 1.59700
La	La	0.52779 0.65859 0.78148 1.60000
La	La	0.02779 0.84141 0.71852 1.59400
La	La	0.02779 0.34141 0.78148 1.59800
La	La	0.52779 0.15859 0.71852 1.59900
La	La	0.47221 0.34141 0.21852 1.59600
La	La	0.97221 0.15859 0.28148 1.59200
La	La	0.25000 0.48870 -0.00000 1.41300
La	La	0.75000 0.01130 0.50000 1.47900
La	La	0.75000 0.51130 -0.00000 1.41100
La	La	0.25000 0.98870 0.50000 1.47900
P 	P 	0.13990 0.81630 0.31108 0.41400
P 	P 	0.29460 0.70750 0.08599 0.40300
P 	P 	0.63990 0.68370 0.18892 0.41400
P 	P 	0.79460 0.79250 0.41401 0.40400
P 	P 	0.36010 0.81630 0.68892 0.41400
P 	P 	0.20540 0.70750 0.91401 0.40300
P 	P 	0.86010 0.68370 0.81108 0.41400
P 	P 	0.70540 0.79250 0.58599 0.40400
P 	P 	0.86010 0.18370 0.68892 0.41400
P 	P 	0.70540 0.29250 0.91401 0.40300
P 	P 	0.36010 0.31630 0.81108 0.41400
P 	P 	0.20540 0.20750 0.58599 0.40400
P 	P 	0.63990 0.18370 0.31108 0.41400
P 	P 	0.79460 0.29250 0.08599 0.40300
P 	P 	0.13990 0.31630 0.18892 0.41400
P 	P 	0.29460 0.20750 0.41401 0.40400
C 	C 	0.06100 0.91060 0.27460 -0.12400
C 	C 	0.92730 0.90620 0.27650 0.34200
C 	C 	0.20240 0.64790 0.13360 -0.09400
C 	C 	0.09530 0.60040 0.10910 0.39800
C 	C 	0.56100 0.58940 0.22540 -0.12300
C 	C 	0.42730 0.59380 0.22350 0.34200
C 	C 	0.70240 0.85210 0.36640 -0.09200
C 	C 	0.59530 0.89960 0.39090 0.39700
C 	C 	0.43900 0.91060 0.72540 -0.12200
C 	C 	0.57270 0.90620 0.72350 0.34200
C 	C 	0.29760 0.64790 0.86640 -0.08700
C 	C 	0.40470 0.60040 0.89090 0.39200
C 	C 	0.93900 0.58940 0.77460 -0.11900
C 	C 	0.07270 0.59380 0.77650 0.33700
C 	C 	0.79760 0.85210 0.63360 -0.09400
C 	C 	0.90470 0.89960 0.60910 0.40400
C 	C 	0.93900 0.08940 0.72540 -0.12200
C 	C 	0.07270 0.09380 0.72350 0.34300
C 	C 	0.79760 0.35210 0.86640 -0.08700
C 	C 	0.90470 0.39960 0.89090 0.39400
C 	C 	0.43900 0.41060 0.77460 -0.12300
C 	C 	0.57270 0.40620 0.77650 0.34100
C 	C 	0.29760 0.14790 0.63360 -0.09300
C 	C 	0.40470 0.10040 0.60910 0.39700
C 	C 	0.56100 0.08940 0.27460 -0.12400
C 	C 	0.42730 0.09380 0.27650 0.34100
C 	C 	0.70240 0.35210 0.13360 -0.09400
C 	C 	0.59530 0.39960 0.10910 0.39600
C 	C 	0.06100 0.41060 0.22540 -0.11900
C 	C 	0.92730 0.40620 0.22350 0.33800
C 	C 	0.20240 0.14790 0.36640 -0.09400
C 	C 	0.09530 0.10040 0.39090 0.40400
O 	O 	0.13080 0.71600 0.28290 -0.36300
O 	O 	0.08300 0.81170 0.36430 -0.21800
O 	O 	0.26960 0.85130 0.31530 -0.35600
O 	O 	0.13100 0.99690 0.26970 -0.21200
O 	O 	0.87960 0.82380 0.26960 -0.34900
O 	O 	0.87350 0.98260 0.28970 -0.34400
O 	O 	0.34830 0.62520 0.05200 -0.36800
O 	O 	0.21570 0.77880 0.05480 -0.24200
O 	O 	0.39300 0.76620 0.11400 -0.20200
O 	O 	0.20610 0.69820 0.18030 -0.19800
O 	O 	0.11380 0.54560 0.07190 -0.44000
O 	O 	0.99920 0.61110 0.13120 -0.44600
O 	O 	0.63080 0.78400 0.21710 -0.36500
O 	O 	0.58300 0.68830 0.13570 -0.22300
O 	O 	0.76960 0.64870 0.18470 -0.35800
O 	O 	0.63100 0.50310 0.23030 -0.21000
O 	O 	0.37960 0.67620 0.23040 -0.34900
O 	O 	0.37350 0.51740 0.21030 -0.34500
O 	O 	0.84830 0.87480 0.44800 -0.35300
O 	O 	0.71570 0.72120 0.44520 -0.21800
O 	O 	0.89300 0.73380 0.38600 -0.19400
O 	O 	0.70610 0.80180 0.31970 -0.19700
O 	O 	0.61380 0.95440 0.42810 -0.43300
O 	O 	0.49920 0.88890 0.36880 -0.44100
O 	O 	0.36920 0.71600 0.71710 -0.36300
O 	O 	0.41700 0.81170 0.63570 -0.21800
O 	O 	0.23040 0.85130 0.68470 -0.35600
O 	O 	0.36900 0.99690 0.73030 -0.21000
O 	O 	0.62040 0.82380 0.73040 -0.34800
O 	O 	0.62650 0.98260 0.71030 -0.34300
O 	O 	0.15170 0.62520 0.94800 -0.32000
O 	O 	0.28430 0.77880 0.94520 -0.18900
O 	O 	0.10700 0.76620 0.88600 -0.18700
O 	O 	0.29390 0.69820 0.81970 -0.19700
O 	O 	0.38620 0.54560 0.92810 -0.40100
O 	O 	0.50080 0.61110 0.86880 -0.43000
O 	O 	0.86920 0.78400 0.78290 -0.35800
O 	O 	0.91700 0.68830 0.86430 -0.20600
O 	O 	0.73040 0.64870 0.81530 -0.35200
O 	O 	0.86900 0.50310 0.76970 -0.21000
O 	O 	0.12040 0.67620 0.76960 -0.34800
O 	O 	0.12650 0.51740 0.78970 -0.34300
O 	O 	0.65170 0.87480 0.55200 -0.35400
O 	O 	0.78430 0.72120 0.55480 -0.21800
O 	O 	0.60700 0.73380 0.61400 -0.19500
O 	O 	0.79390 0.80180 0.68030 -0.19600
O 	O 	0.88620 0.95440 0.57190 -0.43300
O 	O 	0.00080 0.88890 0.63120 -0.44700
O 	O 	0.86920 0.28400 0.71710 -0.36200
O 	O 	0.91700 0.18830 0.63570 -0.21900
O 	O 	0.73040 0.14870 0.68470 -0.35600
O 	O 	0.86900 0.00310 0.73030 -0.20900
O 	O 	0.12040 0.17620 0.73040 -0.34800
O 	O 	0.12650 0.01740 0.71030 -0.34300
O 	O 	0.65170 0.37480 0.94800 -0.31800
O 	O 	0.78430 0.22120 0.94520 -0.18900
O 	O 	0.60700 0.23380 0.88600 -0.18500
O 	O 	0.79390 0.30180 0.81970 -0.19700
O 	O 	0.88620 0.45440 0.92810 -0.40100
O 	O 	0.00080 0.38890 0.86880 -0.43300
O 	O 	0.36920 0.21600 0.78290 -0.36000
O 	O 	0.41700 0.31170 0.86430 -0.20800
O 	O 	0.23040 0.35130 0.81530 -0.35200
O 	O 	0.36900 0.49690 0.76970 -0.21000
O 	O 	0.62040 0.32380 0.76960 -0.34800
O 	O 	0.62650 0.48260 0.78970 -0.34400
O 	O 	0.15170 0.12520 0.55200 -0.35300
O 	O 	0.28430 0.27880 0.55480 -0.21800
O 	O 	0.10700 0.26620 0.61400 -0.19500
O 	O 	0.29390 0.19820 0.68030 -0.19700
O 	O 	0.38620 0.04560 0.57190 -0.43300
O 	O 	0.50080 0.11110 0.63120 -0.44100
O 	O 	0.63080 0.28400 0.28290 -0.36300
O 	O 	0.58300 0.18830 0.36430 -0.21800
O 	O 	0.76960 0.14870 0.31530 -0.35600
O 	O 	0.63100 0.00310 0.26970 -0.21200
O 	O 	0.37960 0.17620 0.26960 -0.34900
O 	O 	0.37350 0.01740 0.28970 -0.34400
O 	O 	0.84830 0.37480 0.05200 -0.36900
O 	O 	0.71570 0.22120 0.05480 -0.24200
O 	O 	0.89300 0.23380 0.11400 -0.20400
O 	O 	0.70610 0.30180 0.18030 -0.19800
O 	O 	0.61380 0.45440 0.07190 -0.44100
O 	O 	0.49920 0.38890 0.13120 -0.44400
O 	O 	0.13080 0.21600 0.21710 -0.36300
O 	O 	0.08300 0.31170 0.13570 -0.22100
O 	O 	0.26960 0.35130 0.18470 -0.35700
O 	O 	0.13100 0.49690 0.23030 -0.21000
O 	O 	0.87960 0.32380 0.23040 -0.34900
O 	O 	0.87350 0.48260 0.21030 -0.34400
O 	O 	0.34830 0.12520 0.44800 -0.35400
O 	O 	0.21570 0.27880 0.44520 -0.21800
O 	O 	0.39300 0.26620 0.38600 -0.19500
O 	O 	0.20610 0.19820 0.31970 -0.19600
O 	O 	0.11380 0.04560 0.42810 -0.43300
O 	O 	0.99920 0.11110 0.36880 -0.44600
