data_crystal

_cell_length_a 24.72930
_cell_length_b 8.94420
_cell_length_c 9.98060
_cell_angle_alpha 90.00000
_cell_angle_beta  90.00000
_cell_angle_gamma 90.00000

_symmetry_space_group_name_	'P 1'
_symmetry_space_group_name_H-M	'P 1'

loop_
_symmetry_equiv_pos_as_xyz
  x,y,z

loop_
_atom_site_label
_atom_site_type_symbol
_atom_site_fract_x
_atom_site_fract_y
_atom_site_fract_z
_atom_site_charge
Al	Al	0.38530 0.87281 0.78295 2.39600
Al	Al	0.23054 0.16923 0.48198 2.38900
P 	P 	0.33884 0.95504 0.51124 0.73700
P 	P 	0.30274 0.61277 0.79440 0.73100
O 	O 	0.50550 0.63800 0.62940 -0.23700
O 	O 	0.45127 0.84020 0.73910 -0.71900
O 	O 	0.35446 0.98060 0.65940 -0.75600
O 	O 	0.28918 0.04310 0.47710 -0.78100
O 	O 	0.38686 0.01690 0.42790 -0.71200
O 	O 	0.33198 0.78900 0.48530 -0.67500
O 	O 	0.35686 0.69570 0.81170 -0.73500
O 	O 	0.30724 0.47180 0.87680 -0.61900
O 	O 	0.29549 0.57610 0.64610 -0.63800
O 	O 	0.25649 0.71710 0.83720 -0.72500
Al	Al	0.11470 0.62719 0.28295 2.39700
Al	Al	0.26946 0.33077 0.98198 2.38900
P 	P 	0.16116 0.54496 0.01124 0.73700
P 	P 	0.19726 0.88723 0.29440 0.73100
O 	O 	0.99450 0.86200 0.12940 -0.19400
O 	O 	0.04873 0.65980 0.23910 -0.72300
O 	O 	0.14554 0.51940 0.15940 -0.75800
O 	O 	0.21082 0.45690 0.97710 -0.77900
O 	O 	0.11314 0.48310 0.92790 -0.71600
O 	O 	0.16802 0.71100 0.98530 -0.67600
O 	O 	0.14314 0.80430 0.31170 -0.73800
O 	O 	0.19276 0.02820 0.37680 -0.62200
O 	O 	0.20451 0.92390 0.14610 -0.63900
O 	O 	0.24351 0.78290 0.33720 -0.72500
Al	Al	0.61470 0.87281 0.71705 2.39700
Al	Al	0.76946 0.16923 0.01802 2.38900
P 	P 	0.66116 0.95504 0.98876 0.74000
P 	P 	0.69726 0.61277 0.70560 0.73100
O 	O 	0.49450 0.63800 0.87060 -0.23600
O 	O 	0.54873 0.84020 0.76090 -0.71900
O 	O 	0.64554 0.98060 0.84060 -0.75600
O 	O 	0.71082 0.04310 0.02290 -0.78200
O 	O 	0.61314 0.01690 0.07210 -0.71300
O 	O 	0.66802 0.78900 0.01470 -0.67500
O 	O 	0.64314 0.69570 0.68830 -0.73500
O 	O 	0.69276 0.47180 0.62320 -0.61900
O 	O 	0.70451 0.57610 0.85390 -0.63600
O 	O 	0.74351 0.71710 0.66280 -0.72500
Al	Al	0.88530 0.62719 0.21705 2.39700
Al	Al	0.73054 0.33077 0.51802 2.38900
P 	P 	0.83884 0.54496 0.48876 0.73700
P 	P 	0.80274 0.88723 0.20560 0.73100
O 	O 	0.00550 0.86200 0.37060 -0.25100
O 	O 	0.95127 0.65980 0.26090 -0.68600
O 	O 	0.85446 0.51940 0.34060 -0.75300
O 	O 	0.78918 0.45690 0.52290 -0.78100
O 	O 	0.88686 0.48310 0.57210 -0.70500
O 	O 	0.83198 0.71100 0.51470 -0.67200
O 	O 	0.85686 0.80430 0.18830 -0.73200
O 	O 	0.80724 0.02820 0.12320 -0.61900
O 	O 	0.79549 0.92390 0.35390 -0.63700
O 	O 	0.75649 0.78290 0.16280 -0.72500
Al	Al	0.61470 0.12719 0.21705 2.39700
Al	Al	0.76946 0.83077 0.51802 2.38900
P 	P 	0.66116 0.04496 0.48876 0.73700
P 	P 	0.69726 0.38723 0.20560 0.73100
O 	O 	0.49450 0.36200 0.37060 -0.23700
O 	O 	0.54873 0.15980 0.26090 -0.71900
O 	O 	0.64554 0.01940 0.34060 -0.75600
O 	O 	0.71082 0.95690 0.52290 -0.78100
O 	O 	0.61314 0.98310 0.57210 -0.71200
O 	O 	0.66802 0.21100 0.51470 -0.67400
O 	O 	0.64314 0.30430 0.18830 -0.73500
O 	O 	0.69276 0.52820 0.12320 -0.61900
O 	O 	0.70451 0.42390 0.35390 -0.63800
O 	O 	0.74351 0.28290 0.16280 -0.72500
Al	Al	0.88530 0.37281 0.71705 2.39700
Al	Al	0.73054 0.66923 0.01802 2.38900
P 	P 	0.83884 0.45504 0.98876 0.74100
P 	P 	0.80274 0.11277 0.70560 0.73100
O 	O 	0.00550 0.13800 0.87060 -0.24900
O 	O 	0.95127 0.34020 0.76090 -0.68600
O 	O 	0.85446 0.48060 0.84060 -0.75300
O 	O 	0.78918 0.54310 0.02290 -0.78100
O 	O 	0.88686 0.51690 0.07210 -0.70600
O 	O 	0.83198 0.28900 0.01470 -0.67300
O 	O 	0.85686 0.19570 0.68830 -0.73200
O 	O 	0.80724 0.97180 0.62320 -0.61900
O 	O 	0.79549 0.07610 0.85390 -0.63500
O 	O 	0.75649 0.21710 0.66280 -0.72500
Al	Al	0.38530 0.12719 0.28295 2.39700
Al	Al	0.23054 0.83077 0.98198 2.38900
P 	P 	0.33884 0.04496 0.01124 0.73600
P 	P 	0.30274 0.38723 0.29440 0.73100
O 	O 	0.50550 0.36200 0.12940 -0.23700
O 	O 	0.45127 0.15980 0.23910 -0.71900
O 	O 	0.35446 0.01940 0.15940 -0.75600
O 	O 	0.28918 0.95690 0.97710 -0.78000
O 	O 	0.38686 0.98310 0.92790 -0.71100
O 	O 	0.33198 0.21100 0.98530 -0.67200
O 	O 	0.35686 0.30430 0.31170 -0.73500
O 	O 	0.30724 0.52820 0.37680 -0.61900
O 	O 	0.29549 0.42390 0.14610 -0.63800
O 	O 	0.25649 0.28290 0.33720 -0.72600
Al	Al	0.11470 0.37281 0.78295 2.39700
Al	Al	0.26946 0.66923 0.48198 2.38900
P 	P 	0.16116 0.45504 0.51124 0.73700
P 	P 	0.19726 0.11277 0.79440 0.73100
O 	O 	0.99450 0.13800 0.62940 -0.19400
O 	O 	0.04873 0.34020 0.73910 -0.72300
O 	O 	0.14554 0.48060 0.65940 -0.75800
O 	O 	0.21082 0.54310 0.47710 -0.78100
O 	O 	0.11314 0.51690 0.42790 -0.71700
O 	O 	0.16802 0.28900 0.48530 -0.67700
O 	O 	0.14314 0.19570 0.81170 -0.73800
O 	O 	0.19276 0.97180 0.87680 -0.62200
O 	O 	0.20451 0.07610 0.64610 -0.63900
O 	O 	0.24351 0.21710 0.83720 -0.72500
P 	P 	0.50000 0.73550 0.75000 0.68200
P 	P 	-0.00000 0.76450 0.25000 0.62200
P 	P 	0.50000 0.26450 0.25000 0.68200
P 	P 	0.00000 0.23550 0.75000 0.62300
