data_crystal

_cell_length_a 12.56400
_cell_length_b 16.58100
_cell_length_c 16.58100
_cell_angle_alpha 66.15230
_cell_angle_beta  75.36990
_cell_angle_gamma 104.63000

_symmetry_space_group_name_	'P 1'
_symmetry_space_group_name_H-M	'P 1'

loop_
_symmetry_equiv_pos_as_xyz
  x,y,z

loop_
_atom_site_label
_atom_site_type_symbol
_atom_site_fract_x
_atom_site_fract_y
_atom_site_fract_z
_atom_site_charge
Ba	Ba	0.70493 0.40986 0.29507 2.04100
Ba	Ba	-0.00000 0.29507 0.29507 1.81200
Ba	Ba	0.29507 0.29507 0.40986 2.01000
Ba	Ba	0.29507 0.59014 0.70493 2.03700
Ba	Ba	-0.00000 0.70493 0.70493 1.84900
Ba	Ba	0.70493 0.70493 0.59014 2.06900
Cu	Cu	0.89257 0.62747 0.37253 0.93700
Cu	Cu	0.26510 0.37253 -0.00000 0.87200
Cu	Cu	0.26510 0.00000 0.62747 0.87700
Cu	Cu	0.73490 0.00000 0.37253 0.89000
Cu	Cu	0.73490 0.62747 -0.00000 0.87800
Cu	Cu	0.10743 0.37253 0.62747 0.87500
H 	H 	0.53300 0.45690 0.19090 0.38200
H 	H 	0.49990 0.36840 0.21070 0.40300
H 	H 	0.72390 0.19090 0.35220 0.38100
H 	H 	0.71060 0.21070 0.42090 0.39900
H 	H 	0.07610 0.35220 0.45690 0.35100
H 	H 	0.13150 0.42090 0.36840 0.39200
H 	H 	0.27610 0.35220 0.19090 0.37900
H 	H 	0.28940 0.42090 0.21070 0.39700
H 	H 	0.92390 0.45690 0.35220 0.41000
H 	H 	0.86850 0.36840 0.42090 0.41600
H 	H 	0.46700 0.19090 0.45690 0.38200
H 	H 	0.50010 0.21070 0.36840 0.40300
H 	H 	0.46700 0.54310 0.80910 0.39300
H 	H 	0.50010 0.63160 0.78930 0.41500
H 	H 	0.27610 0.80910 0.64780 0.38800
H 	H 	0.28940 0.78930 0.57910 0.40700
H 	H 	0.92390 0.64780 0.54310 0.41200
H 	H 	0.86850 0.57910 0.63160 0.41700
H 	H 	0.72390 0.64780 0.80910 0.39200
H 	H 	0.71060 0.57910 0.78930 0.41100
H 	H 	0.07610 0.54310 0.64780 0.35200
H 	H 	0.13150 0.63160 0.57910 0.39200
H 	H 	0.53300 0.80910 0.54310 0.39200
H 	H 	0.49990 0.78930 0.63160 0.41400
C 	C 	0.11855 0.70250 0.38745 0.36900
C 	C 	0.69318 0.59579 0.31545 0.37100
C 	C 	0.50600 0.38745 0.91005 0.43400
C 	C 	0.00863 0.31545 0.08876 0.17200
C 	C 	0.41605 0.91005 0.70250 0.34300
C 	C 	0.09739 0.08876 0.59579 0.28100
C 	C 	0.49400 0.91005 0.38745 0.41400
C 	C 	0.99137 0.08876 0.31545 0.57300
C 	C 	0.58395 0.70250 0.91005 0.44000
C 	C 	0.90261 0.59579 0.08876 0.37400
C 	C 	0.88145 0.38745 0.70250 0.36300
C 	C 	0.30682 0.31545 0.59579 0.37400
C 	C 	0.88145 0.29750 0.61255 0.35800
C 	C 	0.30682 0.40421 0.68455 0.37900
C 	C 	0.49400 0.61255 0.08995 0.36700
C 	C 	0.99137 0.68455 0.91124 0.54400
C 	C 	0.58395 0.08995 0.29750 0.36200
C 	C 	0.90261 0.91124 0.40421 0.52900
C 	C 	0.50600 0.08995 0.61255 0.28700
C 	C 	0.00863 0.91124 0.68455 0.23300
C 	C 	0.41605 0.29750 0.08995 0.36400
C 	C 	0.09739 0.40421 0.91124 0.33800
C 	C 	0.11855 0.61255 0.29750 0.36600
C 	C 	0.69318 0.68455 0.40421 0.37400
C 	C 	0.31502 0.73068 0.26932 0.05300
C 	C 	0.18196 0.70899 0.29101 -0.21800
C 	C 	0.16970 0.79020 0.20980 0.00500
C 	C 	0.68742 0.68883 0.31117 -0.21800
C 	C 	0.57374 0.69891 0.30109 0.04100
C 	C 	0.79714 0.77571 0.22429 0.03700
C 	C 	0.58434 0.26932 -0.00000 0.02000
C 	C 	0.47297 0.29101 -0.00000 -0.26200
C 	C 	0.37950 0.20980 -0.00000 -0.02700
C 	C 	0.99859 0.31117 -0.00000 -0.04400
C 	C 	0.87483 0.30109 -0.00000 -0.00500
C 	C 	0.02143 0.22429 -0.00000 -0.14000
C 	C 	0.58434 -0.00000 0.73068 -0.01100
C 	C 	0.47297 1.00000 0.70899 -0.06600
C 	C 	0.37950 0.00000 0.79020 -0.03900
C 	C 	0.99859 -0.00000 0.68883 -0.09000
C 	C 	0.87483 -0.00000 0.69891 0.02200
C 	C 	0.02143 1.00000 0.77571 0.00200
C 	C 	0.41566 0.00000 0.26932 0.01700
C 	C 	0.52703 0.00000 0.29101 -0.24700
C 	C 	0.62050 0.00000 0.20980 -0.00600
C 	C 	0.00141 -0.00000 0.31117 -0.46700
C 	C 	0.12517 -0.00000 0.30109 0.02400
C 	C 	0.97857 0.00000 0.22429 0.09500
C 	C 	0.41566 0.73068 -0.00000 0.02800
C 	C 	0.52703 0.70899 -0.00000 -0.27000
C 	C 	0.62050 0.79020 -0.00000 0.01500
C 	C 	0.00141 0.68883 1.00000 -0.23200
C 	C 	0.12517 0.69891 -0.00000 -0.05300
C 	C 	0.97857 0.77571 -0.00000 0.03300
C 	C 	0.68498 0.26932 0.73068 0.06100
C 	C 	0.81804 0.29101 0.70899 -0.21000
C 	C 	0.83030 0.20980 0.79020 0.06400
C 	C 	0.31258 0.31117 0.68883 -0.21700
C 	C 	0.42626 0.30109 0.69891 0.04300
C 	C 	0.20286 0.22429 0.77571 0.00700
O 	O 	0.00545 0.68454 0.41491 -0.51400
O 	O 	0.78827 0.58148 0.31641 -0.50900
O 	O 	0.17649 0.71704 0.43355 -0.35100
O 	O 	0.51077 0.40032 0.23635 -1.04700
O 	O 	0.60732 0.53724 0.31702 -0.45300
O 	O 	0.42036 0.41491 0.90055 -0.44600
O 	O 	0.10468 0.31641 0.10211 -0.48600
O 	O 	0.61004 0.43355 0.84941 -0.34000
O 	O 	0.74712 0.23635 0.36333 -1.01600
O 	O 	0.92434 0.31702 0.14574 -0.33300
O 	O 	0.32091 0.90055 0.68454 -0.43100
O 	O 	0.20679 0.10211 0.58148 -0.51200
O 	O 	0.45945 0.84941 0.71704 -0.31600
O 	O 	0.11045 0.36333 0.40032 -1.02400
O 	O 	0.07008 0.14574 0.53724 -0.45700
O 	O 	0.57964 0.90055 0.41491 -0.44800
O 	O 	0.89532 0.10211 0.31641 -0.54400
O 	O 	0.38996 0.84941 0.43355 -0.34600
O 	O 	0.25288 0.36333 0.23635 -1.02800
O 	O 	0.07566 0.14574 0.31702 -0.54200
O 	O 	0.67909 0.68454 0.90055 -0.43600
O 	O 	0.79321 0.58148 0.10211 -0.53100
O 	O 	0.54055 0.71704 0.84941 -0.34000
O 	O 	0.88955 0.40032 0.36333 -1.02500
O 	O 	0.92992 0.53724 0.14574 -0.42400
O 	O 	0.99455 0.41491 0.68454 -0.40000
O 	O 	0.21173 0.31641 0.58148 -0.53400
O 	O 	0.82351 0.43355 0.71704 -0.32000
O 	O 	0.48923 0.23635 0.40032 -1.04600
O 	O 	0.39268 0.31702 0.53724 -0.45400
O 	O 	0.99455 0.31546 0.58509 -0.40400
O 	O 	0.21173 0.41852 0.68359 -0.53300
O 	O 	0.82351 0.28296 0.56645 -0.32800
O 	O 	0.48923 0.59968 0.76365 -1.05700
O 	O 	0.39268 0.46276 0.68298 -0.45400
O 	O 	0.57964 0.58509 0.09945 -0.47400
O 	O 	0.89532 0.68359 0.89789 -0.49400
O 	O 	0.38996 0.56645 0.15059 -0.35100
O 	O 	0.25288 0.76365 0.63667 -1.03700
O 	O 	0.07566 0.68298 0.85426 -0.51200
O 	O 	0.67909 0.09945 0.31546 -0.46300
O 	O 	0.79321 0.89789 0.41852 -0.53300
O 	O 	0.54055 0.15059 0.28296 -0.34900
O 	O 	0.88955 0.63667 0.59968 -1.02700
O 	O 	0.92992 0.85426 0.46276 -0.44400
O 	O 	0.42036 0.09945 0.58509 -0.45400
O 	O 	0.10468 0.89789 0.68359 -0.46900
O 	O 	0.61004 0.15059 0.56645 -0.32300
O 	O 	0.74712 0.63667 0.76365 -1.02500
O 	O 	0.92434 0.85426 0.68298 -0.32600
O 	O 	0.32091 0.31546 0.09945 -0.47600
O 	O 	0.20679 0.41852 0.89789 -0.48000
O 	O 	0.45945 0.28296 0.15059 -0.35000
O 	O 	0.11045 0.59968 0.63667 -1.02700
O 	O 	0.07008 0.46276 0.85426 -0.44700
O 	O 	0.00545 0.58509 0.31546 -0.51500
O 	O 	0.78827 0.68359 0.41852 -0.51000
O 	O 	0.17649 0.56645 0.28296 -0.35600
O 	O 	0.51077 0.76365 0.59968 -1.05600
O 	O 	0.60732 0.68298 0.46276 -0.45400
