data_crystal

_cell_length_a 11.95800
_cell_length_b 11.95800
_cell_length_c 25.03500
_cell_angle_alpha 90.00000
_cell_angle_beta  90.00000
_cell_angle_gamma 120.00000

_symmetry_space_group_name_	'P 1'
_symmetry_space_group_name_H-M	'P 1'

loop_
_symmetry_equiv_pos_as_xyz
  x,y,z

loop_
_atom_site_label
_atom_site_type_symbol
_atom_site_fract_x
_atom_site_fract_y
_atom_site_fract_z
_atom_site_charge
H 	H 	0.05530 0.14890 0.12920 -0.03200
N 	N 	0.19940 0.33570 0.11330 -0.07300
C 	C 	0.17990 0.30710 0.02750 -0.02200
H 	H 	0.19470 0.32120 0.99020 0.02500
C 	C 	0.23980 0.40070 0.06570 0.01200
H 	H 	0.29670 0.49050 0.06040 0.01600
C 	C 	0.24130 0.39120 0.16710 -0.04700
H 	H 	0.31060 0.37520 0.17960 0.03700
H 	H 	0.16780 0.34810 0.19220 0.02600
C 	C 	0.29030 0.53440 0.16690 0.00200
H 	H 	0.72197 0.48223 0.46253 -0.01500
N 	N 	0.86607 0.66903 0.44663 -0.06700
C 	C 	0.84657 0.64043 0.36083 0.00300
H 	H 	0.86137 0.65453 0.32353 0.01200
C 	C 	0.90647 0.73403 0.39903 0.00400
H 	H 	0.96337 0.82383 0.39373 0.03500
C 	C 	0.90797 0.72453 0.50043 -0.04600
H 	H 	0.97727 0.70853 0.51293 0.06600
H 	H 	0.83447 0.68143 0.52553 0.02900
C 	C 	0.95697 0.86773 0.50023 -0.01200
H 	H 	0.38863 0.81557 0.79587 -0.01600
N 	N 	0.53273 0.00237 0.77997 -0.07800
C 	C 	0.51323 0.97377 0.69417 0.01600
H 	H 	0.52803 0.98787 0.65687 0.00900
C 	C 	0.57313 0.06737 0.73237 -0.02100
H 	H 	0.63003 0.15717 0.72707 0.03000
C 	C 	0.57463 0.05787 0.83377 -0.04700
H 	H 	0.64393 0.04187 0.84627 0.03600
H 	H 	0.50113 0.01477 0.85887 0.02600
C 	C 	0.62363 0.20107 0.83357 0.00300
H 	H 	0.85110 0.90640 0.12920 -0.02100
N 	N 	0.66430 0.86370 0.11330 -0.07200
C 	C 	0.69290 0.87280 0.02750 -0.01900
H 	H 	0.67880 0.87350 0.99020 0.03200
C 	C 	0.59930 0.83910 0.06570 0.01600
H 	H 	0.50950 0.80620 0.06040 0.01700
C 	C 	0.60880 0.85010 0.16710 -0.04900
H 	H 	0.62480 0.93540 0.17960 0.04300
H 	H 	0.65190 0.81970 0.19220 0.03000
C 	C 	0.46560 0.75590 0.16690 0.00300
H 	H 	0.51777 0.23973 0.46253 -0.01600
N 	N 	0.33097 0.19703 0.44663 -0.07200
C 	C 	0.35957 0.20613 0.36083 0.00100
H 	H 	0.34547 0.20683 0.32353 0.00600
C 	C 	0.26597 0.17243 0.39903 0.00500
H 	H 	0.17617 0.13953 0.39373 0.01500
C 	C 	0.27547 0.18343 0.50043 -0.03800
H 	H 	0.29147 0.26873 0.51293 0.03600
H 	H 	0.31857 0.15303 0.52553 0.02500
C 	C 	0.13227 0.08923 0.50023 -0.02400
H 	H 	0.18443 0.57307 0.79587 -0.01100
N 	N 	0.99763 0.53037 0.77997 -0.06300
C 	C 	0.02623 0.53947 0.69417 -0.01900
H 	H 	0.01213 0.54017 0.65687 0.01000
C 	C 	0.93263 0.50577 0.73237 0.01600
H 	H 	0.84283 0.47287 0.72707 0.02100
C 	C 	0.94213 0.51677 0.83377 -0.05000
H 	H 	0.95813 0.60207 0.84627 0.04400
H 	H 	0.98523 0.48637 0.85887 0.03200
C 	C 	0.79893 0.42257 0.83357 0.00300
H 	H 	0.09360 0.94470 0.12920 0.03200
N 	N 	0.13630 0.80060 0.11330 -0.06600
C 	C 	0.12720 0.82010 0.02750 -0.02900
H 	H 	0.12650 0.80530 0.99020 0.02200
C 	C 	0.16090 0.76020 0.06570 -0.02700
H 	H 	0.19380 0.70330 0.06040 0.02700
C 	C 	0.14990 0.75870 0.16710 -0.04800
H 	H 	0.06460 0.68940 0.17960 0.03800
H 	H 	0.18030 0.83220 0.19220 0.02800
C 	C 	0.24410 0.70970 0.16690 0.00200
H 	H 	0.76027 0.27803 0.46253 0.00800
N 	N 	0.80297 0.13393 0.44663 -0.07000
C 	C 	0.79387 0.15343 0.36083 -0.01100
H 	H 	0.79317 0.13863 0.32353 0.00900
C 	C 	0.82757 0.09353 0.39903 -0.02900
H 	H 	0.86047 0.03663 0.39373 0.02700
C 	C 	0.81657 0.09203 0.50043 -0.05900
H 	H 	0.73127 0.02273 0.51293 0.01500
H 	H 	0.84697 0.16553 0.52553 0.03100
C 	C 	0.91077 0.04303 0.50023 0.04200
H 	H 	0.42693 0.61137 0.79587 0.00500
N 	N 	0.46963 0.46727 0.77997 -0.06900
C 	C 	0.46053 0.48677 0.69417 -0.00500
H 	H 	0.45983 0.47197 0.65687 0.00900
C 	C 	0.49423 0.42687 0.73237 -0.01500
H 	H 	0.52713 0.36997 0.72707 0.02700
C 	C 	0.48323 0.42537 0.83377 -0.04800
H 	H 	0.39793 0.35607 0.84627 0.03900
H 	H 	0.51363 0.49887 0.85887 0.02800
C 	C 	0.57743 0.37637 0.83357 0.00300
H 	H 	0.14890 0.05530 0.87080 -0.03300
N 	N 	0.33570 0.19940 0.88670 -0.07200
C 	C 	0.30710 0.17990 0.97250 0.02200
H 	H 	0.32120 0.19470 0.00980 -0.01000
C 	C 	0.40070 0.23980 0.93430 -0.00300
H 	H 	0.49050 0.29670 0.93960 0.02800
C 	C 	0.39120 0.24130 0.83290 -0.04700
H 	H 	0.37520 0.31060 0.82040 0.03700
H 	H 	0.34810 0.16780 0.80780 0.02600
C 	C 	0.53440 0.29030 0.83310 0.00200
H 	H 	0.81557 0.38863 0.20413 -0.01700
N 	N 	0.00237 0.53273 0.22003 -0.07800
C 	C 	0.97377 0.51323 0.30583 0.01600
H 	H 	0.98787 0.52803 0.34313 0.00900
C 	C 	0.06737 0.57313 0.26763 -0.02100
H 	H 	0.15717 0.63003 0.27293 0.03000
C 	C 	0.05787 0.57463 0.16623 -0.04600
H 	H 	0.04187 0.64393 0.15373 0.03500
H 	H 	0.01477 0.50113 0.14113 0.02400
C 	C 	0.20107 0.62363 0.16643 0.00200
H 	H 	0.48223 0.72197 0.53747 -0.01600
N 	N 	0.66903 0.86607 0.55337 -0.06700
C 	C 	0.64043 0.84657 0.63917 0.00300
H 	H 	0.65453 0.86137 0.67647 0.01200
C 	C 	0.73403 0.90647 0.60097 0.00400
H 	H 	0.82383 0.96337 0.60627 0.03500
C 	C 	0.72453 0.90797 0.49957 -0.04700
H 	H 	0.70853 0.97727 0.48707 0.06700
H 	H 	0.68143 0.83447 0.47447 0.02900
C 	C 	0.86773 0.95697 0.49977 -0.01100
H 	H 	0.90640 0.85110 0.87080 -0.01900
N 	N 	0.86370 0.66430 0.88670 -0.07000
C 	C 	0.87280 0.69290 0.97250 0.02300
H 	H 	0.87350 0.67880 0.00980 -0.00100
C 	C 	0.83910 0.59930 0.93430 0.00000
H 	H 	0.80620 0.50950 0.93960 0.02900
C 	C 	0.85010 0.60880 0.83290 -0.04900
H 	H 	0.93540 0.62480 0.82040 0.04300
H 	H 	0.81970 0.65190 0.80780 0.03000
C 	C 	0.75590 0.46560 0.83310 0.00300
H 	H 	0.57307 0.18443 0.20413 -0.01200
N 	N 	0.53037 0.99763 0.22003 -0.06200
C 	C 	0.53947 0.02623 0.30583 -0.02000
H 	H 	0.54017 0.01213 0.34313 0.01000
C 	C 	0.50577 0.93263 0.26763 0.01700
H 	H 	0.47287 0.84283 0.27293 0.02100
C 	C 	0.51677 0.94213 0.16623 -0.04900
H 	H 	0.60207 0.95813 0.15373 0.04300
H 	H 	0.48637 0.98523 0.14113 0.03100
C 	C 	0.42257 0.79893 0.16643 0.00200
H 	H 	0.23973 0.51777 0.53747 -0.01600
N 	N 	0.19703 0.33097 0.55337 -0.07200
C 	C 	0.20613 0.35957 0.63917 0.00100
H 	H 	0.20683 0.34547 0.67647 0.00600
C 	C 	0.17243 0.26597 0.60097 0.00400
H 	H 	0.13953 0.17617 0.60627 0.01500
C 	C 	0.18343 0.27547 0.49957 -0.03900
H 	H 	0.26873 0.29147 0.48707 0.03600
H 	H 	0.15303 0.31857 0.47447 0.02500
C 	C 	0.08923 0.13227 0.49977 -0.02200
H 	H 	0.94470 0.09360 0.87080 0.03100
N 	N 	0.80060 0.13630 0.88670 -0.06500
C 	C 	0.82010 0.12720 0.97250 0.01400
H 	H 	0.80530 0.12650 0.00980 -0.01300
C 	C 	0.76020 0.16090 0.93430 -0.03900
H 	H 	0.70330 0.19380 0.93960 0.03800
C 	C 	0.75870 0.14990 0.83290 -0.04800
H 	H 	0.68940 0.06460 0.82040 0.03700
H 	H 	0.83220 0.18030 0.80780 0.02800
C 	C 	0.70970 0.24410 0.83310 0.00200
H 	H 	0.61137 0.42693 0.20413 0.00500
N 	N 	0.46727 0.46963 0.22003 -0.06900
C 	C 	0.48677 0.46053 0.30583 -0.00500
H 	H 	0.47197 0.45983 0.34313 0.00900
C 	C 	0.42687 0.49423 0.26763 -0.01500
H 	H 	0.36997 0.52713 0.27293 0.02700
C 	C 	0.42537 0.48323 0.16623 -0.04700
H 	H 	0.35607 0.39793 0.15373 0.03700
H 	H 	0.49887 0.51363 0.14113 0.02700
C 	C 	0.37637 0.57743 0.16643 0.00200
H 	H 	0.27803 0.76027 0.53747 0.00800
N 	N 	0.13393 0.80297 0.55337 -0.07000
C 	C 	0.15343 0.79387 0.63917 -0.01100
H 	H 	0.13863 0.79317 0.67647 0.00900
C 	C 	0.09353 0.82757 0.60097 -0.02900
H 	H 	0.03663 0.86047 0.60627 0.02700
C 	C 	0.09203 0.81657 0.49957 -0.06000
H 	H 	0.02273 0.73127 0.48707 0.01600
H 	H 	0.16553 0.84697 0.47447 0.03100
C 	C 	0.04303 0.91077 0.49977 0.04400
H 	H 	0.94470 0.85110 0.87080 0.01800
N 	N 	0.80060 0.66430 0.88670 -0.06600
C 	C 	0.82010 0.69290 0.97250 0.01700
H 	H 	0.80530 0.67880 0.00980 -0.00500
C 	C 	0.76020 0.59930 0.93430 -0.02400
H 	H 	0.70330 0.50950 0.93960 0.03500
C 	C 	0.75870 0.60880 0.83290 -0.04900
H 	H 	0.68940 0.62480 0.82040 0.04100
H 	H 	0.83220 0.65190 0.80780 0.03000
C 	C 	0.70970 0.46560 0.83310 0.00200
H 	H 	0.61137 0.18443 0.20413 0.00200
N 	N 	0.46727 0.99763 0.22003 -0.06100
C 	C 	0.48677 0.02623 0.30583 -0.02100
H 	H 	0.47197 0.01213 0.34313 0.00900
C 	C 	0.42687 0.93263 0.26763 0.01000
H 	H 	0.36997 0.84283 0.27293 0.02200
C 	C 	0.42537 0.94213 0.16623 -0.04900
H 	H 	0.35607 0.95813 0.15373 0.04300
H 	H 	0.49887 0.98523 0.14113 0.03100
C 	C 	0.37637 0.79893 0.16643 0.00200
H 	H 	0.27803 0.51777 0.53747 -0.00000
N 	N 	0.13393 0.33097 0.55337 -0.07200
C 	C 	0.15343 0.35957 0.63917 -0.00800
H 	H 	0.13863 0.34547 0.67647 0.00600
C 	C 	0.09353 0.26597 0.60097 -0.01800
H 	H 	0.03663 0.17617 0.60627 0.01600
C 	C 	0.09203 0.27547 0.49957 -0.05400
H 	H 	0.02273 0.29147 0.48707 0.01200
H 	H 	0.16553 0.31857 0.47447 0.02800
C 	C 	0.04303 0.13227 0.49977 0.02200
H 	H 	0.14890 0.09360 0.87080 0.00400
N 	N 	0.33570 0.13630 0.88670 -0.06800
C 	C 	0.30710 0.12720 0.97250 0.01600
H 	H 	0.32120 0.12650 0.00980 -0.01500
C 	C 	0.40070 0.16090 0.93430 -0.02800
H 	H 	0.49050 0.19380 0.93960 0.03400
C 	C 	0.39120 0.14990 0.83290 -0.04700
H 	H 	0.37520 0.06460 0.82040 0.03500
H 	H 	0.34810 0.18030 0.80780 0.02600
C 	C 	0.53440 0.24410 0.83310 0.00200
H 	H 	0.81557 0.42693 0.20413 -0.00500
N 	N 	0.00237 0.46963 0.22003 -0.07700
C 	C 	0.97377 0.46053 0.30583 0.01200
H 	H 	0.98787 0.45983 0.34313 0.00900
C 	C 	0.06737 0.49423 0.26763 -0.02900
H 	H 	0.15717 0.52713 0.27293 0.03100
C 	C 	0.05787 0.48323 0.16623 -0.04600
H 	H 	0.04187 0.39793 0.15373 0.03400
H 	H 	0.01477 0.51363 0.14113 0.02400
C 	C 	0.20107 0.57743 0.16643 0.00200
H 	H 	0.48223 0.76027 0.53747 0.00000
N 	N 	0.66903 0.80297 0.55337 -0.06900
C 	C 	0.64043 0.79387 0.63917 -0.00500
H 	H 	0.65453 0.79317 0.67647 0.01200
C 	C 	0.73403 0.82757 0.60097 -0.01700
H 	H 	0.82383 0.86047 0.60627 0.03600
C 	C 	0.72453 0.81657 0.49957 -0.05300
H 	H 	0.70853 0.73127 0.48707 0.04100
H 	H 	0.68143 0.84697 0.47447 0.03000
C 	C 	0.86773 0.91077 0.49977 0.02300
H 	H 	0.90640 0.05530 0.87080 -0.04500
N 	N 	0.86370 0.19940 0.88670 -0.07300
C 	C 	0.87280 0.17990 0.97250 0.02600
H 	H 	0.87350 0.19470 0.00980 -0.00300
C 	C 	0.83910 0.23980 0.93430 0.01100
H 	H 	0.80620 0.29670 0.93960 0.02600
C 	C 	0.85010 0.24130 0.83290 -0.04800
H 	H 	0.93540 0.31060 0.82040 0.04100
H 	H 	0.81970 0.16780 0.80780 0.02900
C 	C 	0.75590 0.29030 0.83310 0.00300
H 	H 	0.57307 0.38863 0.20413 -0.02100
N 	N 	0.53037 0.53273 0.22003 -0.07100
C 	C 	0.53947 0.51323 0.30583 0.00000
H 	H 	0.54017 0.52803 0.34313 0.00900
C 	C 	0.50577 0.57313 0.26763 0.00200
H 	H 	0.47287 0.63003 0.27293 0.02500
C 	C 	0.51677 0.57463 0.16623 -0.04700
H 	H 	0.60207 0.64393 0.15373 0.03900
H 	H 	0.48637 0.50113 0.14113 0.02800
C 	C 	0.42257 0.62363 0.16643 0.00200
H 	H 	0.23973 0.72197 0.53747 -0.02400
N 	N 	0.19703 0.86607 0.55337 -0.06900
C 	C 	0.20613 0.84657 0.63917 0.00600
H 	H 	0.20683 0.86137 0.67647 0.00900
C 	C 	0.17243 0.90647 0.60097 0.01500
H 	H 	0.13953 0.96337 0.60627 0.02600
C 	C 	0.18343 0.90797 0.49957 -0.03700
H 	H 	0.26873 0.97727 0.48707 0.06600
H 	H 	0.15303 0.83447 0.47447 0.02600
C 	C 	0.08923 0.95697 0.49977 -0.03600
H 	H 	0.85110 0.94470 0.12920 0.01900
N 	N 	0.66430 0.80060 0.11330 -0.06700
C 	C 	0.69290 0.82010 0.02750 -0.02500
H 	H 	0.67880 0.80530 0.99020 0.02800
C 	C 	0.59930 0.76020 0.06570 -0.01300
H 	H 	0.50950 0.70330 0.06040 0.02400
C 	C 	0.60880 0.75870 0.16710 -0.04900
H 	H 	0.62480 0.68940 0.17960 0.04100
H 	H 	0.65190 0.83220 0.19220 0.03000
C 	C 	0.46560 0.70970 0.16690 0.00300
H 	H 	0.51777 0.27803 0.46253 -0.00000
N 	N 	0.33097 0.13393 0.44663 -0.07200
C 	C 	0.35957 0.15343 0.36083 -0.00900
H 	H 	0.34547 0.13863 0.32353 0.00600
C 	C 	0.26597 0.09353 0.39903 -0.01900
H 	H 	0.17617 0.03663 0.39373 0.01600
C 	C 	0.27547 0.09203 0.50043 -0.05400
H 	H 	0.29147 0.02273 0.51293 0.01100
H 	H 	0.31857 0.16553 0.52553 0.02800
C 	C 	0.13227 0.04303 0.50023 0.02100
H 	H 	0.18443 0.61137 0.79587 0.00200
N 	N 	0.99763 0.46727 0.77997 -0.06200
C 	C 	0.02623 0.48677 0.69417 -0.02000
H 	H 	0.01213 0.47197 0.65687 0.00900
C 	C 	0.93263 0.42687 0.73237 0.00800
H 	H 	0.84283 0.36997 0.72707 0.02200
C 	C 	0.94213 0.42537 0.83377 -0.05000
H 	H 	0.95813 0.35607 0.84627 0.04400
H 	H 	0.98523 0.49887 0.85887 0.03200
C 	C 	0.79893 0.37637 0.83357 0.00300
H 	H 	0.09360 0.14890 0.12920 0.00200
N 	N 	0.13630 0.33570 0.11330 -0.07000
C 	C 	0.12720 0.30710 0.02750 -0.02900
H 	H 	0.12650 0.32120 0.99020 0.02100
C 	C 	0.16090 0.40070 0.06570 -0.01400
H 	H 	0.19380 0.49050 0.06040 0.02300
C 	C 	0.14990 0.39120 0.16710 -0.04700
H 	H 	0.06460 0.37520 0.17960 0.03500
H 	H 	0.18030 0.34810 0.19220 0.02600
C 	C 	0.24410 0.53440 0.16690 0.00200
H 	H 	0.76027 0.48223 0.46253 0.00000
N 	N 	0.80297 0.66903 0.44663 -0.06900
C 	C 	0.79387 0.64043 0.36083 -0.00500
H 	H 	0.79317 0.65453 0.32353 0.01200
C 	C 	0.82757 0.73403 0.39903 -0.01600
H 	H 	0.86047 0.82383 0.39373 0.03600
C 	C 	0.81657 0.72453 0.50043 -0.05200
H 	H 	0.73127 0.70853 0.51293 0.04100
H 	H 	0.84697 0.68143 0.52553 0.03000
C 	C 	0.91077 0.86773 0.50023 0.02000
H 	H 	0.42693 0.81557 0.79587 -0.00500
N 	N 	0.46963 0.00237 0.77997 -0.07700
C 	C 	0.46053 0.97377 0.69417 0.01300
H 	H 	0.45983 0.98787 0.65687 0.00900
C 	C 	0.49423 0.06737 0.73237 -0.02900
H 	H 	0.52713 0.15717 0.72707 0.03100
C 	C 	0.48323 0.05787 0.83377 -0.04600
H 	H 	0.39793 0.04187 0.84627 0.03500
H 	H 	0.51363 0.01477 0.85887 0.02500
C 	C 	0.57743 0.20107 0.83357 0.00300
H 	H 	0.05530 0.90640 0.12920 -0.04600
N 	N 	0.19940 0.86370 0.11330 -0.07500
C 	C 	0.17990 0.87280 0.02750 -0.01700
H 	H 	0.19470 0.87350 0.99020 0.03100
C 	C 	0.23980 0.83910 0.06570 0.02700
H 	H 	0.29670 0.80620 0.06040 0.01400
C 	C 	0.24130 0.85010 0.16710 -0.04800
H 	H 	0.31060 0.93540 0.17960 0.04100
H 	H 	0.16780 0.81970 0.19220 0.02900
C 	C 	0.29030 0.75590 0.16690 0.00300
H 	H 	0.72197 0.23973 0.46253 -0.02400
N 	N 	0.86607 0.19703 0.44663 -0.06900
C 	C 	0.84657 0.20613 0.36083 0.00600
H 	H 	0.86137 0.20683 0.32353 0.00900
C 	C 	0.90647 0.17243 0.39903 0.01600
H 	H 	0.96337 0.13953 0.39373 0.02500
C 	C 	0.90797 0.18343 0.50043 -0.03600
H 	H 	0.97727 0.26873 0.51293 0.06400
H 	H 	0.83447 0.15303 0.52553 0.02500
C 	C 	0.95697 0.08923 0.50023 -0.03800
H 	H 	0.38863 0.57307 0.79587 -0.02000
N 	N 	0.53273 0.53037 0.77997 -0.07100
C 	C 	0.51323 0.53947 0.69417 0.00000
H 	H 	0.52803 0.54017 0.65687 0.00900
C 	C 	0.57313 0.50577 0.73237 0.00100
H 	H 	0.63003 0.47287 0.72707 0.02500
C 	C 	0.57463 0.51677 0.83377 -0.04800
H 	H 	0.64393 0.60207 0.84627 0.04100
H 	H 	0.50113 0.48637 0.85887 0.02900
C 	C 	0.62363 0.42257 0.83357 0.00300
Cd	Cd	-0.00000 0.00000 -0.00000 1.16600
Cd	Cd	0.66667 0.33333 0.33333 1.19200
Cd	Cd	0.33333 0.66667 0.66667 1.19200
N 	N 	0.09435 0.18870 0.05070 -0.24100
C 	C 	0.10540 0.21080 0.10280 0.09100
N 	N 	0.76102 0.52203 0.38403 -0.23400
C 	C 	0.77207 0.54413 0.43613 0.09700
N 	N 	0.42768 0.85537 0.71737 -0.24100
C 	C 	0.43873 0.87747 0.76947 0.12600
N 	N 	0.81130 0.90565 0.05070 -0.21900
C 	C 	0.78920 0.89460 0.10280 0.10000
N 	N 	0.47797 0.23898 0.38403 -0.23400
C 	C 	0.45587 0.22793 0.43613 0.09300
N 	N 	0.14463 0.57232 0.71737 -0.22700
C 	C 	0.12253 0.56127 0.76947 0.06400
N 	N 	0.09435 0.90565 0.05070 -0.22900
C 	C 	0.10540 0.89460 0.10280 0.09600
N 	N 	0.76102 0.23898 0.38403 -0.23400
C 	C 	0.77207 0.22793 0.43613 0.09500
N 	N 	0.42768 0.57232 0.71737 -0.23400
C 	C 	0.43873 0.56127 0.76947 0.09500
N 	N 	0.18870 0.09435 0.94930 -0.24300
C 	C 	0.21080 0.10540 0.89720 0.09000
N 	N 	0.85537 0.42768 0.28263 -0.24100
C 	C 	0.87747 0.43873 0.23053 0.12600
N 	N 	0.52203 0.76102 0.61597 -0.23400
C 	C 	0.54413 0.77207 0.56387 0.09700
N 	N 	0.90565 0.81130 0.94930 -0.22200
C 	C 	0.89460 0.78920 0.89720 0.09900
N 	N 	0.57232 0.14463 0.28263 -0.22600
C 	C 	0.56127 0.12253 0.23053 0.06200
N 	N 	0.23898 0.47797 0.61597 -0.23400
C 	C 	0.22793 0.45587 0.56387 0.09300
N 	N 	0.90565 0.09435 0.94930 -0.23200
C 	C 	0.89460 0.10540 0.89720 0.09500
N 	N 	0.57232 0.42768 0.28263 -0.23400
C 	C 	0.56127 0.43873 0.23053 0.09500
N 	N 	0.23898 0.76102 0.61597 -0.23400
C 	C 	0.22793 0.77207 0.56387 0.09500
