data_crystal

_cell_length_a 14.76600
_cell_length_b 17.64090
_cell_length_c 17.64090
_cell_angle_alpha 79.91230
_cell_angle_beta  65.25910
_cell_angle_gamma 65.25900

_symmetry_space_group_name_	'P 1'
_symmetry_space_group_name_H-M	'P 1'

loop_
_symmetry_equiv_pos_as_xyz
  x,y,z

loop_
_atom_site_label
_atom_site_type_symbol
_atom_site_fract_x
_atom_site_fract_y
_atom_site_fract_z
_atom_site_charge
Cd	Cd	0.53773 0.58280 0.42678 1.20200
Cd	Cd	0.04731 0.91720 0.07322 1.19500
Cd	Cd	0.96451 0.57322 0.08280 1.20400
Cd	Cd	0.12053 0.92678 0.41720 1.19900
Cd	Cd	0.46227 0.41720 0.57322 1.20100
Cd	Cd	0.95269 0.08280 0.92678 1.20100
Cd	Cd	0.03549 0.42678 0.91720 1.19900
Cd	Cd	0.87947 0.07322 0.58280 1.20200
H 	H 	0.67380 0.43080 0.16860 0.30500
H 	H 	0.74800 0.74840 0.21940 0.03000
H 	H 	0.75980 0.85130 0.27990 0.06400
H 	H 	0.77810 0.58790 0.41150 0.04900
H 	H 	0.78080 0.86930 0.52590 0.04200
H 	H 	0.82420 0.73310 0.57590 0.06300
H 	H 	0.78860 0.63420 0.53020 0.05600
H 	H 	0.77240 0.89560 0.39140 0.06600
H 	H 	0.77320 0.06920 0.33140 0.30400
H 	H 	0.21580 0.75160 0.28060 0.02900
H 	H 	0.39100 0.64870 0.22010 0.06400
H 	H 	0.27750 0.91210 0.08850 0.04500
H 	H 	0.67600 0.63070 0.97410 0.04500
H 	H 	0.63320 0.76690 0.92410 0.06000
H 	H 	0.45300 0.86580 0.96980 0.05500
H 	H 	0.55940 0.60440 0.10860 0.06400
H 	H 	0.84240 0.83140 0.93080 0.30700
H 	H 	0.96740 0.78060 0.24840 0.05500
H 	H 	0.03970 0.72010 0.35130 0.05200
H 	H 	0.18960 0.58850 0.08790 0.05300
H 	H 	0.30670 0.47410 0.36930 0.04200
H 	H 	0.40010 0.42410 0.23310 0.05800
H 	H 	0.31880 0.46980 0.13420 0.05800
H 	H 	0.16380 0.60860 0.39560 0.06100
H 	H 	0.10460 0.66860 0.56920 0.30600
H 	H 	0.49640 0.71940 0.25160 0.03000
H 	H 	0.61110 0.77990 0.14870 0.06300
H 	H 	0.36600 0.91150 0.41210 0.04800
H 	H 	0.65010 0.02590 0.13070 0.04400
H 	H 	0.55730 0.07590 0.26690 0.05800
H 	H 	0.42280 0.03020 0.36580 0.05600
H 	H 	0.66800 0.89140 0.10440 0.06300
H 	H 	0.32620 0.56920 0.83140 0.30500
H 	H 	0.25200 0.25160 0.78060 0.02900
H 	H 	0.24020 0.14870 0.72010 0.06400
H 	H 	0.22190 0.41210 0.58850 0.04800
H 	H 	0.21920 0.13070 0.47410 0.04000
H 	H 	0.17580 0.26690 0.42410 0.05900
H 	H 	0.21140 0.36580 0.46980 0.05400
H 	H 	0.22760 0.10440 0.60860 0.06500
H 	H 	0.22680 0.93080 0.66860 0.30500
H 	H 	0.78420 0.24840 0.71940 0.02900
H 	H 	0.60900 0.35130 0.77990 0.06400
H 	H 	0.72250 0.08790 0.91150 0.04500
H 	H 	0.32400 0.36930 0.02590 0.04100
H 	H 	0.36680 0.23310 0.07590 0.06000
H 	H 	0.54700 0.13420 0.03020 0.05500
H 	H 	0.44060 0.39560 0.89140 0.06500
H 	H 	0.15760 0.16860 0.06920 0.30600
H 	H 	0.03260 0.21940 0.75160 0.01600
H 	H 	0.96030 0.27990 0.64870 0.07100
H 	H 	0.81040 0.41150 0.91210 0.04600
H 	H 	0.69330 0.52590 0.63070 0.03900
H 	H 	0.59990 0.57590 0.76690 0.06200
H 	H 	0.68120 0.53020 0.86580 0.05400
H 	H 	0.83620 0.39140 0.60440 0.06800
H 	H 	0.89540 0.33140 0.43080 0.30500
H 	H 	0.50360 0.28060 0.74840 0.03000
H 	H 	0.38890 0.22010 0.85130 0.06300
H 	H 	0.63400 0.08850 0.58790 0.04800
H 	H 	0.34990 0.97410 0.86930 0.04700
H 	H 	0.44270 0.92410 0.73310 0.05700
H 	H 	0.57720 0.96980 0.63420 0.05700
H 	H 	0.33200 0.10860 0.89560 0.06200
C 	C 	0.75180 0.59910 0.26690 0.10600
C 	C 	0.68440 0.51870 0.24730 -0.06300
C 	C 	0.61030 0.47660 0.26860 0.34500
C 	C 	0.77130 0.52170 0.17430 -0.04500
C 	C 	0.82090 0.47770 0.09450 0.33000
C 	C 	0.76340 0.65840 0.30780 -0.05900
C 	C 	0.75620 0.73740 0.27020 -0.02900
C 	C 	0.78070 0.70130 0.42250 0.02300
C 	C 	0.76660 0.78160 0.38620 0.03500
C 	C 	0.76070 0.80070 0.30650 -0.08400
C 	C 	0.77470 0.63920 0.38560 -0.08900
C 	C 	0.78520 0.82770 0.49710 -0.01500
C 	C 	0.80300 0.74610 0.53090 -0.03600
C 	C 	0.79040 0.68310 0.50090 -0.06800
C 	C 	0.77440 0.84530 0.41910 -0.08300
C 	C 	0.11780 0.90090 0.23310 0.10300
C 	C 	0.95040 0.98130 0.25270 -0.05200
C 	C 	0.85550 0.02340 0.23140 0.34100
C 	C 	0.96730 0.97830 0.32570 -0.03200
C 	C 	0.89310 0.02230 0.40550 0.32400
C 	C 	0.22960 0.84160 0.19220 -0.06200
C 	C 	0.26380 0.76260 0.22980 -0.02900
C 	C 	0.40450 0.79870 0.07750 0.01600
C 	C 	0.43440 0.71840 0.11380 0.03500
C 	C 	0.36790 0.69930 0.19350 -0.08600
C 	C 	0.29950 0.86080 0.11440 -0.08800
C 	C 	0.61000 0.67230 0.00290 -0.02600
C 	C 	0.58000 0.75390 0.96910 -0.03200
C 	C 	0.47440 0.81690 0.99910 -0.06500
C 	C 	0.53880 0.65470 0.08090 -0.08100
C 	C 	0.01870 0.73310 0.09910 0.07600
C 	C 	0.93170 0.75270 0.01870 -0.06300
C 	C 	0.87890 0.73140 0.97660 0.34800
C 	C 	0.94560 0.82570 0.02170 -0.04800
C 	C 	0.91540 0.90550 0.97770 0.33400
C 	C 	0.07120 0.69220 0.15840 -0.03700
C 	C 	0.02640 0.72980 0.23740 -0.07500
C 	C 	0.20320 0.57750 0.20130 0.03400
C 	C 	0.15280 0.61380 0.28160 0.01900
C 	C 	0.06720 0.69350 0.30070 -0.06000
C 	C 	0.16030 0.61440 0.13920 -0.10700
C 	C 	0.28230 0.50290 0.32770 -0.02400
C 	C 	0.33390 0.46910 0.24610 -0.03000
C 	C 	0.29130 0.49910 0.18310 -0.07900
C 	C 	0.19350 0.58090 0.34530 -0.07500
C 	C 	0.35090 0.76690 0.40090 0.10500
C 	C 	0.20310 0.74730 0.48130 -0.06400
C 	C 	0.08690 0.76860 0.52340 0.34600
C 	C 	0.29300 0.67430 0.47830 -0.04600
C 	C 	0.29860 0.59450 0.52230 0.33000
C 	C 	0.42180 0.80780 0.34160 -0.06000
C 	C 	0.49360 0.77020 0.26260 -0.03100
C 	C 	0.48200 0.92250 0.29870 0.02100
C 	C 	0.54820 0.88620 0.21840 0.03200
C 	C 	0.56140 0.80650 0.19930 -0.08400
C 	C 	0.41390 0.88560 0.36080 -0.09000
C 	C 	0.61290 0.99710 0.17230 -0.02700
C 	C 	0.54910 0.03090 0.25390 -0.03100
C 	C 	0.47350 0.00090 0.31690 -0.07100
C 	C 	0.61970 0.91910 0.15470 -0.08000
C 	C 	0.24820 0.40090 0.73310 0.10500
C 	C 	0.31560 0.48130 0.75270 -0.06300
C 	C 	0.38970 0.52340 0.73140 0.34500
C 	C 	0.22870 0.47830 0.82570 -0.04700
C 	C 	0.17910 0.52230 0.90550 0.33100
C 	C 	0.23660 0.34160 0.69220 -0.06100
C 	C 	0.24380 0.26260 0.72980 -0.03000
C 	C 	0.21930 0.29870 0.57750 0.02000
C 	C 	0.23340 0.21840 0.61380 0.03500
C 	C 	0.23930 0.19930 0.69350 -0.08500
C 	C 	0.22530 0.36080 0.61440 -0.09000
C 	C 	0.21480 0.17230 0.50290 -0.01700
C 	C 	0.19700 0.25390 0.46910 -0.03800
C 	C 	0.20960 0.31690 0.49910 -0.07000
C 	C 	0.22560 0.15470 0.58090 -0.08500
C 	C 	0.88220 0.09910 0.76690 0.10600
C 	C 	0.04960 0.01870 0.74730 -0.06700
C 	C 	0.14450 0.97660 0.76860 0.34400
C 	C 	0.03270 0.02170 0.67430 -0.04800
C 	C 	0.10690 0.97770 0.59450 0.32800
C 	C 	0.77040 0.15840 0.80780 -0.06200
C 	C 	0.73620 0.23740 0.77020 -0.02900
C 	C 	0.59550 0.20130 0.92250 0.01700
C 	C 	0.56560 0.28160 0.88620 0.03600
C 	C 	0.63210 0.30070 0.80650 -0.08600
C 	C 	0.70050 0.13920 0.88560 -0.08700
C 	C 	0.39000 0.32770 0.99710 -0.02000
C 	C 	0.42000 0.24610 0.03090 -0.03600
C 	C 	0.52560 0.18310 0.00090 -0.06500
C 	C 	0.46120 0.34530 0.91910 -0.08400
C 	C 	0.98130 0.26690 0.90090 0.11600
C 	C 	0.06830 0.24730 0.98130 -0.06400
C 	C 	0.12110 0.26860 0.02340 0.34600
C 	C 	0.05440 0.17430 0.97830 -0.05500
C 	C 	0.08460 0.09450 0.02230 0.33400
C 	C 	0.92880 0.30780 0.84160 -0.07100
C 	C 	0.97360 0.27020 0.76260 -0.00500
C 	C 	0.79680 0.42250 0.79870 0.01500
C 	C 	0.84720 0.38620 0.71840 0.04400
C 	C 	0.93280 0.30650 0.69930 -0.09800
C 	C 	0.83970 0.38560 0.86080 -0.08100
C 	C 	0.71770 0.49710 0.67230 -0.01200
C 	C 	0.66610 0.53090 0.75390 -0.04100
C 	C 	0.70870 0.50090 0.81690 -0.06400
C 	C 	0.80650 0.41910 0.65470 -0.08900
C 	C 	0.64910 0.23310 0.59910 0.10500
C 	C 	0.79690 0.25270 0.51870 -0.06200
C 	C 	0.91310 0.23140 0.47660 0.34400
C 	C 	0.70700 0.32570 0.52170 -0.04600
C 	C 	0.70140 0.40550 0.47770 0.33000
C 	C 	0.57820 0.19220 0.65840 -0.05900
C 	C 	0.50640 0.22980 0.73740 -0.03100
C 	C 	0.51800 0.07750 0.70130 0.02100
C 	C 	0.45180 0.11380 0.78160 0.03100
C 	C 	0.43860 0.19350 0.80070 -0.08300
C 	C 	0.58610 0.11440 0.63920 -0.09000
C 	C 	0.38710 0.00290 0.82770 -0.03200
C 	C 	0.45090 0.96910 0.74610 -0.02700
C 	C 	0.52650 0.99910 0.68310 -0.07100
C 	C 	0.38030 0.08090 0.84530 -0.07700
N 	N 	0.67140 0.56950 0.30590 -0.23700
N 	N 	0.81160 0.57240 0.18840 -0.23200
N 	N 	0.04680 0.93050 0.19410 -0.24600
N 	N 	0.07240 0.92760 0.31160 -0.24100
N 	N 	0.97730 0.69410 0.06950 -0.22600
N 	N 	1.00000 0.81160 0.07240 -0.22000
N 	N 	0.24090 0.80590 0.43050 -0.23700
N 	N 	0.38400 0.68840 0.42760 -0.23300
N 	N 	0.32860 0.43050 0.69410 -0.23700
N 	N 	0.18840 0.42760 0.81160 -0.23300
N 	N 	0.95320 0.06950 0.80590 -0.23500
N 	N 	0.92760 0.07240 0.68840 -0.23000
N 	N 	0.02270 0.30590 0.93050 -0.24200
N 	N 	1.00000 0.18840 0.92760 -0.23000
N 	N 	0.75910 0.19410 0.56950 -0.23700
N 	N 	0.61600 0.31160 0.57240 -0.23300
O 	O 	0.53700 0.48490 0.33830 -0.36500
O 	O 	0.62380 0.42880 0.21200 -0.46700
O 	O 	0.90270 0.48780 0.04120 -0.51100
O 	O 	0.78130 0.43100 0.08360 -0.30600
O 	O 	0.86020 0.01510 0.16170 -0.36200
O 	O 	0.76460 0.07120 0.28800 -0.46500
O 	O 	0.93170 0.01220 0.45880 -0.51000
O 	O 	0.79590 0.06900 0.41640 -0.30700
O 	O 	0.87530 0.66170 0.98490 -0.36300
O 	O 	0.83580 0.78800 0.92880 -0.46500
O 	O 	0.94390 0.95880 0.98780 -0.50700
O 	O 	0.86490 0.91640 0.93100 -0.30400
O 	O 	0.02190 0.83830 0.51510 -0.37100
O 	O 	0.05260 0.71200 0.57120 -0.47200
O 	O 	0.39050 0.54120 0.51220 -0.51500
O 	O 	0.21230 0.58360 0.56900 -0.30900
O 	O 	0.46300 0.51510 0.66170 -0.36600
O 	O 	0.37620 0.57120 0.78800 -0.46700
O 	O 	0.09730 0.51220 0.95880 -0.51900
O 	O 	0.21870 0.56900 0.91640 -0.30900
O 	O 	0.13980 0.98490 0.83830 -0.36800
O 	O 	0.23540 0.92880 0.71200 -0.46700
O 	O 	0.06830 0.98780 0.54120 -0.52000
O 	O 	0.20410 0.93100 0.58360 -0.30900
O 	O 	0.12470 0.33830 0.01510 -0.36700
O 	O 	0.16420 0.21200 0.07120 -0.46800
O 	O 	0.05610 0.04120 0.01220 -0.51600
O 	O 	0.13510 0.08360 0.06900 -0.30800
O 	O 	0.97810 0.16170 0.48490 -0.36200
O 	O 	0.94740 0.28800 0.42880 -0.46300
O 	O 	0.60950 0.45880 0.48780 -0.51500
O 	O 	0.78770 0.41640 0.43100 -0.30700
