data_crystal

_cell_length_a 6.95700
_cell_length_b 15.25880
_cell_length_c 15.25880
_cell_angle_alpha 84.75870
_cell_angle_beta  76.82260
_cell_angle_gamma 76.82260

_symmetry_space_group_name_	'P 1'
_symmetry_space_group_name_H-M	'P 1'

loop_
_symmetry_equiv_pos_as_xyz
  x,y,z

loop_
_atom_site_label
_atom_site_type_symbol
_atom_site_fract_x
_atom_site_fract_y
_atom_site_fract_z
_atom_site_charge
V 	V 	0.50000 0.00000 -0.00000 1.73300
V 	V 	-0.00000 0.00000 -0.00000 1.69700
C 	C 	0.58460 0.69400 0.00400 0.01600
C 	C 	0.63700 0.59500 0.00300 -0.02800
C 	C 	0.91540 0.99600 0.30600 0.06700
C 	C 	0.86300 0.99700 0.40500 0.05300
C 	C 	0.78260 0.30600 0.99600 0.00600
C 	C 	0.73500 0.40500 0.99700 -0.04800
C 	C 	0.71740 0.00400 0.69400 0.01500
C 	C 	0.76500 0.00300 0.59500 -0.07600
C 	C 	0.41540 0.30600 0.99600 -0.00600
C 	C 	0.36300 0.40500 0.99700 -0.05900
C 	C 	0.08460 0.00400 0.69400 -0.06000
C 	C 	0.13700 0.00300 0.59500 -0.14400
C 	C 	0.21740 0.69400 0.00400 0.00300
C 	C 	0.26500 0.59500 0.00300 -0.04100
C 	C 	0.28260 0.99600 0.30600 -0.00600
C 	C 	0.23500 0.99700 0.40500 -0.01200
C 	C 	0.33200 0.84400 0.99200 0.48800
C 	C 	0.37900 0.74100 0.00100 -0.20000
C 	C 	0.47400 0.55000 0.00200 -0.15300
C 	C 	0.16800 0.00800 0.15600 0.17200
C 	C 	0.12100 0.99900 0.25900 0.00300
C 	C 	0.02600 0.99800 0.45000 -0.01000
C 	C 	0.66800 0.15600 0.00800 0.16200
C 	C 	0.62100 0.25900 0.99900 0.07800
C 	C 	0.52600 0.45000 0.99800 0.18200
C 	C 	0.83200 0.99200 0.84400 0.47100
C 	C 	0.87900 0.00100 0.74100 -0.11900
C 	C 	0.97400 0.00200 0.55000 0.04100
O 	O 	0.48750 0.88450 0.98650 -0.38200
O 	O 	0.01250 0.01350 0.11550 -0.62900
O 	O 	0.85850 0.11550 0.01350 -0.53400
O 	O 	0.64150 0.98650 0.88450 -0.37900
O 	O 	0.51250 0.11550 0.01350 -0.58200
O 	O 	0.98750 0.98650 0.88450 -0.32900
O 	O 	0.14150 0.88450 0.98650 -0.41200
O 	O 	0.35850 0.01350 0.11550 -0.58500
O 	O 	0.75000 0.96200 0.03800 -0.51200
O 	O 	0.25000 0.03800 0.96200 -0.57400
H 	H 	0.70443 0.73296 0.00709 0.03400
H 	H 	0.79862 0.55739 0.00303 -0.00000
H 	H 	0.79557 0.99291 0.26704 0.09000
H 	H 	0.70138 0.99697 0.44261 0.07500
H 	H 	0.94448 0.26704 0.99291 0.11000
H 	H 	0.85904 0.44261 0.99697 0.11300
H 	H 	0.55552 0.00709 0.73296 0.01100
H 	H 	0.64096 0.00303 0.55739 -0.00800
H 	H 	0.29557 0.26704 0.99291 0.06800
H 	H 	0.20138 0.44261 0.99697 0.07500
H 	H 	0.20443 0.00709 0.73296 0.01100
H 	H 	0.29862 0.00303 0.55739 -0.00200
H 	H 	0.05552 0.73296 0.00709 -0.01200
H 	H 	0.14096 0.55739 0.00303 -0.04300
H 	H 	0.44448 0.99291 0.26704 0.09000
H 	H 	0.35904 0.99697 0.44261 0.08100
