data_crystal

_cell_length_a 18.50000
_cell_length_b 24.70690
_cell_length_c 24.70690
_cell_angle_alpha 67.63160
_cell_angle_beta  68.01340
_cell_angle_gamma 68.01340

_symmetry_space_group_name_	'P 1'
_symmetry_space_group_name_H-M	'P 1'

loop_
_symmetry_equiv_pos_as_xyz
  x,y,z

loop_
_atom_site_label
_atom_site_type_symbol
_atom_site_fract_x
_atom_site_fract_y
_atom_site_fract_z
_atom_site_charge
Cu	Cu	0.14548 0.52073 0.94439 0.91000
Cu	Cu	0.02873 0.50039 0.04767 0.92700
Cu	Cu	0.61060 0.47927 0.05561 0.91000
Cu	Cu	0.57679 0.49961 0.95233 0.92700
Cu	Cu	0.61060 0.05561 0.47927 0.91000
Cu	Cu	0.57679 0.95233 0.49961 0.92700
Cu	Cu	0.14548 0.94439 0.52073 0.91000
Cu	Cu	0.02873 0.04767 0.50039 0.92700
Cu	Cu	0.27929 0.82943 0.82943 0.90600
Cu	Cu	0.20929 0.90175 0.90175 0.91500
Cu	Cu	0.93815 0.17057 0.17057 0.90600
Cu	Cu	0.01279 0.09825 0.09825 0.91500
H 	H 	0.43210 0.68950 0.93790 0.04800
H 	H 	0.53840 0.66590 0.06290 0.04600
H 	H 	0.37280 0.81970 0.01530 0.04500
H 	H 	0.34260 0.82000 0.11000 0.07800
H 	H 	0.56800 0.74840 0.18160 0.04000
H 	H 	0.56440 0.72010 0.10590 0.05800
H 	H 	0.00270 0.83520 0.00380 0.04800
H 	H 	0.92740 0.68380 0.05460 0.04700
H 	H 	0.14210 0.69750 0.92730 0.04700
H 	H 	0.78770 0.77370 0.05370 0.06300
H 	H 	0.66920 0.82230 0.11190 0.03900
H 	H 	0.92650 0.83710 0.09850 0.07900
H 	H 	0.00660 0.54890 0.82470 0.05400
H 	H 	0.79280 0.53570 0.82510 0.05000
H 	H 	0.84480 0.50130 0.98170 0.05300
H 	H 	0.93300 0.64880 0.73900 0.07700
H 	H 	0.91450 0.53630 0.62750 0.04200
H 	H 	0.91630 0.49730 0.72650 0.05800
H 	H 	0.05950 0.31050 0.06210 0.04900
H 	H 	0.26720 0.33410 0.93710 0.04700
H 	H 	0.20780 0.18030 0.98470 0.04500
H 	H 	0.27260 0.18000 0.89000 0.07800
H 	H 	0.49800 0.25160 0.81840 0.04000
H 	H 	0.39040 0.27990 0.89410 0.05800
H 	H 	0.84170 0.16480 0.99620 0.04800
H 	H 	0.66580 0.31620 0.94540 0.04700
H 	H 	0.76690 0.30250 0.07270 0.04700
H 	H 	0.61510 0.22630 0.94630 0.06300
H 	H 	0.60340 0.17770 0.88810 0.03900
H 	H 	0.86210 0.16290 0.90150 0.07900
H 	H 	0.38020 0.45110 0.17530 0.05400
H 	H 	0.15360 0.46430 0.17490 0.05000
H 	H 	0.32780 0.49870 0.01830 0.05300
H 	H 	0.32080 0.35120 0.26100 0.07700
H 	H 	0.07830 0.46370 0.37250 0.04200
H 	H 	0.14010 0.50270 0.27350 0.05800
H 	H 	0.05950 0.06210 0.31050 0.04900
H 	H 	0.26720 0.93710 0.33410 0.04700
H 	H 	0.20780 0.98470 0.18030 0.04500
H 	H 	0.27260 0.89000 0.18000 0.07800
H 	H 	0.49800 0.81840 0.25160 0.04000
H 	H 	0.39040 0.89410 0.27990 0.05800
H 	H 	0.84170 0.99620 0.16480 0.04800
H 	H 	0.66580 0.94540 0.31620 0.04700
H 	H 	0.76690 0.07270 0.30250 0.04700
H 	H 	0.61510 0.94630 0.22630 0.06300
H 	H 	0.60340 0.88810 0.17770 0.03900
H 	H 	0.86210 0.90150 0.16290 0.07900
H 	H 	0.38020 0.17530 0.45110 0.05400
H 	H 	0.15360 0.17490 0.46430 0.05000
H 	H 	0.32780 0.01830 0.49870 0.05300
H 	H 	0.32080 0.26100 0.35120 0.07700
H 	H 	0.07830 0.37250 0.46370 0.04200
H 	H 	0.14010 0.27350 0.50270 0.05800
H 	H 	0.43210 0.93790 0.68950 0.04900
H 	H 	0.53840 0.06290 0.66590 0.04700
H 	H 	0.37280 0.01530 0.81970 0.04500
H 	H 	0.34260 0.11000 0.82000 0.07800
H 	H 	0.56800 0.18160 0.74840 0.04000
H 	H 	0.56440 0.10590 0.72010 0.05800
H 	H 	0.00270 0.00380 0.83520 0.04800
H 	H 	0.92740 0.05460 0.68380 0.04700
H 	H 	0.14210 0.92730 0.69750 0.04700
H 	H 	0.78770 0.05370 0.77370 0.06300
H 	H 	0.66920 0.11190 0.82230 0.03900
H 	H 	0.92650 0.09850 0.83710 0.07900
H 	H 	0.00660 0.82470 0.54890 0.05400
H 	H 	0.79280 0.82510 0.53570 0.05000
H 	H 	0.84480 0.98170 0.50130 0.05300
H 	H 	0.93300 0.73900 0.64880 0.07700
H 	H 	0.91450 0.62750 0.53630 0.04200
H 	H 	0.91630 0.72650 0.49730 0.05800
H 	H 	0.25220 0.96560 0.96560 0.03700
H 	H 	0.03000 0.96940 0.96940 0.03600
H 	H 	0.18340 0.03440 0.03440 0.03700
H 	H 	0.96880 0.03060 0.03060 0.03600
C 	C 	0.33785 0.79858 0.93102 0.36400
C 	C 	0.39307 0.76042 0.97030 -0.09800
C 	C 	0.43742 0.70326 0.96684 0.03800
C 	C 	0.48971 0.66326 0.00192 -0.08000
C 	C 	0.49856 0.68873 0.04115 -0.00500
C 	C 	0.45106 0.74592 0.04916 -0.03100
C 	C 	0.40258 0.77970 0.01234 0.00700
C 	C 	0.53531 0.60093 0.00085 0.30300
C 	C 	0.45157 0.76330 0.09856 0.06100
C 	C 	0.38930 0.80546 0.12434 -0.12500
C 	C 	0.52106 0.76502 0.16726 -0.02900
C 	C 	0.51640 0.74730 0.12290 -0.07800
C 	C 	0.14399 0.80347 0.92577 0.37100
C 	C 	0.08113 0.76937 0.96205 -0.09600
C 	C 	0.00953 0.79632 0.00070 -0.00100
C 	C 	0.94949 0.76736 0.03386 -0.02400
C 	C 	0.96511 0.70692 0.02966 0.00100
C 	C 	0.03518 0.68256 0.98928 -0.10700
C 	C 	0.09435 0.71410 0.95480 0.04900
C 	C 	0.04685 0.61903 0.98947 0.42100
C 	C 	0.86817 0.80010 0.06856 0.05600
C 	C 	0.79088 0.79735 0.07489 -0.08500
C 	C 	0.72006 0.82588 0.10900 -0.02200
C 	C 	0.87546 0.83472 0.10056 -0.12700
C 	C 	0.99557 0.51981 0.94041 0.34100
C 	C 	0.93599 0.52385 0.91137 -0.08100
C 	C 	0.95579 0.54048 0.84714 -0.01600
C 	C 	0.90292 0.54542 0.81394 -0.01400
C 	C 	0.82869 0.53361 0.84541 -0.01600
C 	C 	0.80910 0.51839 0.90881 -0.08600
C 	C 	0.86152 0.51327 0.93849 0.03700
C 	C 	0.72635 0.50696 0.93974 0.35100
C 	C 	0.92316 0.56893 0.74585 0.05000
C 	C 	0.92975 0.62590 0.71710 -0.11800
C 	C 	0.91955 0.55994 0.64796 -0.03500
C 	C 	0.91934 0.53815 0.70737 -0.07100
C 	C 	0.06745 0.20142 0.06898 0.36400
C 	C 	0.12379 0.23958 0.02970 -0.09800
C 	C 	0.10752 0.29674 0.03316 0.03800
C 	C 	0.15489 0.33674 0.99808 -0.08000
C 	C 	0.22844 0.31127 0.95885 -0.00500
C 	C 	0.24614 0.25408 0.95084 -0.03100
C 	C 	0.19462 0.22030 0.98766 0.00700
C 	C 	0.13709 0.39907 0.99915 0.30300
C 	C 	0.31343 0.23670 0.90144 0.06100
C 	C 	0.31910 0.19454 0.87566 -0.12500
C 	C 	0.45334 0.23498 0.83274 -0.02900
C 	C 	0.38660 0.25270 0.87710 -0.07800
C 	C 	0.87323 0.19653 0.07423 0.37100
C 	C 	0.81255 0.23063 0.03795 -0.09600
C 	C 	0.80655 0.20368 0.99930 -0.00000
C 	C 	0.75071 0.23264 0.96614 -0.02400
C 	C 	0.70169 0.29308 0.97034 0.00100
C 	C 	0.70702 0.31744 0.01072 -0.10600
C 	C 	0.76325 0.28590 0.04520 0.04900
C 	C 	0.65535 0.38097 0.01053 0.42100
C 	C 	0.73683 0.19990 0.93144 0.05600
C 	C 	0.66312 0.20265 0.92511 -0.08500
C 	C 	0.65494 0.17412 0.89100 -0.02200
C 	C 	0.81074 0.16528 0.89944 -0.12700
C 	C 	0.45579 0.48019 0.05959 0.34100
C 	C 	0.37121 0.47615 0.08863 -0.08100
C 	C 	0.34341 0.45952 0.15286 -0.01600
C 	C 	0.26228 0.45458 0.18606 -0.01400
C 	C 	0.20771 0.46639 0.15459 -0.01600
C 	C 	0.23630 0.48161 0.09119 -0.08600
C 	C 	0.31328 0.48673 0.06151 0.03700
C 	C 	0.17305 0.49304 0.06026 0.35100
C 	C 	0.23794 0.43107 0.25415 0.05000
C 	C 	0.27275 0.37410 0.28290 -0.11800
C 	C 	0.12745 0.44006 0.35204 -0.03500
C 	C 	0.16486 0.46185 0.29263 -0.07100
C 	C 	0.06745 0.06898 0.20142 0.36400
C 	C 	0.12379 0.02970 0.23958 -0.09800
C 	C 	0.10752 0.03316 0.29674 0.03800
C 	C 	0.15489 0.99808 0.33674 -0.08000
C 	C 	0.22844 0.95885 0.31127 -0.00500
C 	C 	0.24614 0.95084 0.25408 -0.03100
C 	C 	0.19462 0.98766 0.22030 0.00700
C 	C 	0.13709 0.99915 0.39907 0.30300
C 	C 	0.31343 0.90144 0.23670 0.06100
C 	C 	0.31910 0.87566 0.19454 -0.12500
C 	C 	0.45334 0.83274 0.23498 -0.02900
C 	C 	0.38660 0.87710 0.25270 -0.07800
C 	C 	0.87323 0.07423 0.19653 0.37100
C 	C 	0.81255 0.03795 0.23063 -0.09600
C 	C 	0.80655 0.99930 0.20368 -0.00000
C 	C 	0.75071 0.96614 0.23264 -0.02400
C 	C 	0.70169 0.97034 0.29308 0.00100
C 	C 	0.70702 0.01072 0.31744 -0.10600
C 	C 	0.76325 0.04520 0.28590 0.04900
C 	C 	0.65535 0.01053 0.38097 0.42100
C 	C 	0.73683 0.93144 0.19990 0.05600
C 	C 	0.66312 0.92511 0.20265 -0.08500
C 	C 	0.65494 0.89100 0.17412 -0.02200
C 	C 	0.81074 0.89944 0.16528 -0.12700
C 	C 	0.45579 0.05959 0.48019 0.34100
C 	C 	0.37121 0.08863 0.47615 -0.08100
C 	C 	0.34341 0.15286 0.45952 -0.01600
C 	C 	0.26228 0.18606 0.45458 -0.01400
C 	C 	0.20771 0.15459 0.46639 -0.01600
C 	C 	0.23630 0.09119 0.48161 -0.08600
C 	C 	0.31328 0.06151 0.48673 0.03700
C 	C 	0.17305 0.06026 0.49304 0.35100
C 	C 	0.23794 0.25415 0.43107 0.05000
C 	C 	0.27275 0.28290 0.37410 -0.11800
C 	C 	0.12745 0.35204 0.44006 -0.03500
C 	C 	0.16486 0.29263 0.46185 -0.07100
C 	C 	0.33785 0.93102 0.79858 0.36400
C 	C 	0.39307 0.97030 0.76042 -0.09800
C 	C 	0.43742 0.96684 0.70326 0.03800
C 	C 	0.48971 0.00192 0.66326 -0.08000
C 	C 	0.49856 0.04115 0.68873 -0.00500
C 	C 	0.45106 0.04916 0.74592 -0.03100
C 	C 	0.40258 0.01234 0.77970 0.00700
C 	C 	0.53531 0.00085 0.60093 0.30300
C 	C 	0.45157 0.09856 0.76330 0.06100
C 	C 	0.38930 0.12434 0.80546 -0.12500
C 	C 	0.52106 0.16726 0.76502 -0.02900
C 	C 	0.51640 0.12290 0.74730 -0.07800
C 	C 	0.14399 0.92577 0.80347 0.37100
C 	C 	0.08113 0.96205 0.76937 -0.09600
C 	C 	0.00953 0.00070 0.79632 -0.00100
C 	C 	0.94949 0.03386 0.76736 -0.02400
C 	C 	0.96511 0.02966 0.70692 0.00100
C 	C 	0.03518 0.98928 0.68256 -0.10700
C 	C 	0.09435 0.95480 0.71410 0.04900
C 	C 	0.04685 0.98947 0.61903 0.42100
C 	C 	0.86817 0.06856 0.80010 0.05600
C 	C 	0.79088 0.07489 0.79735 -0.08500
C 	C 	0.72006 0.10900 0.82588 -0.02200
C 	C 	0.87546 0.10056 0.83472 -0.12700
C 	C 	0.99557 0.94041 0.51981 0.34100
C 	C 	0.93599 0.91137 0.52385 -0.08100
C 	C 	0.95579 0.84714 0.54048 -0.01600
C 	C 	0.90292 0.81394 0.54542 -0.01400
C 	C 	0.82869 0.84541 0.53361 -0.01600
C 	C 	0.80910 0.90881 0.51839 -0.08600
C 	C 	0.86152 0.93849 0.51327 0.03700
C 	C 	0.72635 0.93974 0.50696 0.35100
C 	C 	0.92316 0.74585 0.56893 0.05000
C 	C 	0.92975 0.71710 0.62590 -0.11800
C 	C 	0.91955 0.64796 0.55994 -0.03500
C 	C 	0.91934 0.70737 0.53815 -0.07100
C 	C 	0.93211 0.65329 0.65329 0.06400
C 	C 	0.92745 0.61855 0.61855 -0.00200
C 	C 	0.19480 0.97910 0.97910 0.00600
C 	C 	0.06245 0.98195 0.98195 0.00700
C 	C 	0.23869 0.34671 0.34671 0.06400
C 	C 	0.16455 0.38145 0.38145 -0.00200
C 	C 	0.15300 0.02090 0.02090 0.00600
C 	C 	0.02635 0.01805 0.01805 0.00600
C 	C 	0.38340 0.83102 0.16898 0.07400
C 	C 	0.45390 0.80880 0.19120 -0.00900
C 	C 	0.72660 0.86060 0.13940 -0.01800
C 	C 	0.80270 0.86480 0.13520 0.08100
C 	C 	0.38340 0.16898 0.83102 0.07400
C 	C 	0.45390 0.19120 0.80880 -0.00900
C 	C 	0.72660 0.13940 0.86060 -0.01800
C 	C 	0.80270 0.13520 0.86480 0.08100
N 	N 	0.14626 0.96171 0.96171 -0.15700
N 	N 	0.06968 0.03829 0.03829 -0.15600
O 	O 	0.56261 0.56535 0.04583 -0.39000
O 	O 	0.53211 0.58430 0.95540 -0.36200
O 	O 	0.28739 0.84630 0.94686 -0.39500
O 	O 	0.34699 0.78574 0.88516 -0.41600
O 	O 	0.13822 0.84565 0.94533 -0.39900
O 	O 	0.19848 0.78446 0.88498 -0.41400
O 	O 	0.00595 0.58731 0.03005 -0.44000
O 	O 	0.10132 0.60624 0.94592 -0.42700
O 	O 	0.06541 0.52852 0.90910 -0.40500
O 	O 	0.96247 0.51391 0.99641 -0.39700
O 	O 	0.67163 0.51205 0.91971 -0.46200
O 	O 	0.71509 0.49204 0.00006 -0.38100
O 	O 	0.17379 0.43465 0.95417 -0.39000
O 	O 	0.07181 0.41570 0.04460 -0.36200
O 	O 	0.08055 0.15370 0.05314 -0.39500
O 	O 	0.01789 0.21426 0.11484 -0.41600
O 	O 	0.92920 0.15435 0.05467 -0.39800
O 	O 	0.86792 0.21554 0.11502 -0.41400
O 	O 	0.62331 0.41269 0.96995 -0.44000
O 	O 	0.65348 0.39376 0.05408 -0.42600
O 	O 	0.50303 0.47148 0.09090 -0.40400
O 	O 	0.47279 0.48609 0.00359 -0.39700
O 	O 	0.10339 0.48795 0.08029 -0.46200
O 	O 	0.20719 0.50796 0.99994 -0.38100
O 	O 	0.17379 0.95417 0.43465 -0.39000
O 	O 	0.07181 0.04460 0.41570 -0.36200
O 	O 	0.08055 0.05314 0.15370 -0.39500
O 	O 	0.01789 0.11484 0.21426 -0.41600
O 	O 	0.92920 0.05467 0.15435 -0.39800
O 	O 	0.86792 0.11502 0.21554 -0.41400
O 	O 	0.62331 0.96995 0.41269 -0.44000
O 	O 	0.65348 0.05408 0.39376 -0.42600
O 	O 	0.50303 0.09090 0.47148 -0.40400
O 	O 	0.47279 0.00359 0.48609 -0.39700
O 	O 	0.10339 0.08029 0.48795 -0.46200
O 	O 	0.20719 0.99994 0.50796 -0.38100
O 	O 	0.56261 0.04583 0.56535 -0.39000
O 	O 	0.53211 0.95540 0.58430 -0.36200
O 	O 	0.28739 0.94686 0.84630 -0.39500
O 	O 	0.34699 0.88516 0.78574 -0.41600
O 	O 	0.13822 0.94533 0.84565 -0.39900
O 	O 	0.19848 0.88498 0.78446 -0.41400
O 	O 	0.00595 0.03005 0.58731 -0.44000
O 	O 	0.10132 0.94592 0.60624 -0.42700
O 	O 	0.06541 0.90910 0.52852 -0.40500
O 	O 	0.96247 0.99641 0.51391 -0.39700
O 	O 	0.67163 0.91971 0.51205 -0.46200
O 	O 	0.71509 0.00006 0.49204 -0.38100
