data_crystal

_cell_length_a 18.41300
_cell_length_b 24.67000
_cell_length_c 24.67000
_cell_angle_alpha 67.87800
_cell_angle_beta  68.08770
_cell_angle_gamma 68.08770

_symmetry_space_group_name_	'P 1'
_symmetry_space_group_name_H-M	'P 1'

loop_
_symmetry_equiv_pos_as_xyz
  x,y,z

loop_
_atom_site_label
_atom_site_type_symbol
_atom_site_fract_x
_atom_site_fract_y
_atom_site_fract_z
_atom_site_charge
Cu	Cu	0.89631 0.49721 0.95617 0.90600
Cu	Cu	0.77839 0.47778 0.05933 0.90500
Cu	Cu	0.34969 0.50279 0.04383 0.90600
Cu	Cu	0.31549 0.52222 0.94067 0.90600
Cu	Cu	0.34969 0.04383 0.50279 0.90600
Cu	Cu	0.31550 0.94067 0.52221 0.90600
Cu	Cu	0.89631 0.95617 0.49721 0.90600
Cu	Cu	0.77838 0.05933 0.47779 0.90500
Cu	Cu	0.90818 0.89926 0.89926 0.90400
Cu	Cu	0.98166 0.82671 0.82671 0.90100
Cu	Cu	0.70670 0.10074 0.10074 0.90400
Cu	Cu	0.63508 0.17329 0.17329 0.90300
H 	H 	0.08410 0.83960 0.99460 0.04100
H 	H 	0.27020 0.69610 0.04170 0.04100
H 	H 	0.16370 0.69840 0.92460 0.04400
H 	H 	0.06610 0.84260 0.09060 0.08500
H 	H 	0.31910 0.82430 0.10530 0.03400
H 	H 	0.30890 0.77840 0.04420 0.06900
H 	H 	0.71340 0.81890 0.01710 0.04700
H 	H 	0.66000 0.65960 0.07500 0.04600
H 	H 	0.85710 0.68670 0.93510 0.05000
H 	H 	0.52810 0.71890 0.10550 0.06500
H 	H 	0.41540 0.75590 0.17610 0.03400
H 	H 	0.65160 0.81670 0.11490 0.08300
H 	H 	0.77720 0.52570 0.82570 0.04600
H 	H 	0.55100 0.55230 0.81630 0.04400
H 	H 	0.59510 0.49900 0.98020 0.04900
H 	H 	0.61530 0.64730 0.73730 0.09200
H 	H 	0.84120 0.53480 0.62700 0.02400
H 	H 	0.79090 0.49270 0.72550 0.07400
H 	H 	0.91830 0.16040 0.00540 0.03900
H 	H 	0.00800 0.30390 0.95830 0.04900
H 	H 	0.78670 0.30160 0.07540 0.04400
H 	H 	0.99930 0.15740 0.90940 0.07700
H 	H 	0.24870 0.17570 0.89470 0.03400
H 	H 	0.13150 0.22160 0.95580 0.07000
H 	H 	0.54940 0.18110 0.98290 0.04700
H 	H 	0.39460 0.34040 0.92500 0.04600
H 	H 	0.47890 0.31330 0.06490 0.05100
H 	H 	0.35250 0.28110 0.89450 0.06600
H 	H 	0.34740 0.24410 0.82390 0.03400
H 	H 	0.58320 0.18330 0.88510 0.08300
H 	H 	0.12860 0.47430 0.17430 0.04800
H 	H 	0.91960 0.44770 0.18370 0.04600
H 	H 	0.07430 0.50100 0.01980 0.04900
H 	H 	0.99990 0.35270 0.26270 0.07800
H 	H 	0.00300 0.46520 0.37300 0.02700
H 	H 	0.00910 0.50730 0.27450 0.07200
H 	H 	0.91830 0.00540 0.16040 0.03900
H 	H 	0.00800 0.95830 0.30390 0.04900
H 	H 	0.78670 0.07540 0.30160 0.04400
H 	H 	0.99930 0.90940 0.15740 0.07700
H 	H 	0.24870 0.89470 0.17570 0.03400
H 	H 	0.13150 0.95580 0.22160 0.07000
H 	H 	0.54940 0.98290 0.18110 0.04700
H 	H 	0.39460 0.92500 0.34040 0.04600
H 	H 	0.47890 0.06490 0.31330 0.05100
H 	H 	0.35250 0.89450 0.28110 0.06600
H 	H 	0.34740 0.82390 0.24410 0.03400
H 	H 	0.58320 0.88510 0.18330 0.08300
H 	H 	0.12860 0.17430 0.47430 0.04800
H 	H 	0.91960 0.18370 0.44770 0.04600
H 	H 	0.07430 0.01980 0.50100 0.04900
H 	H 	0.99990 0.26270 0.35270 0.07800
H 	H 	0.00300 0.37300 0.46520 0.02700
H 	H 	0.00910 0.27450 0.50730 0.07200
H 	H 	0.08410 0.99460 0.83960 0.04100
H 	H 	0.27020 0.04170 0.69610 0.04100
H 	H 	0.16370 0.92460 0.69840 0.04400
H 	H 	0.06610 0.09060 0.84260 0.08500
H 	H 	0.31910 0.10530 0.82430 0.03400
H 	H 	0.30890 0.04420 0.77840 0.06900
H 	H 	0.71340 0.01710 0.81890 0.04700
H 	H 	0.66000 0.07500 0.65960 0.04600
H 	H 	0.85710 0.93510 0.68670 0.05000
H 	H 	0.52810 0.10550 0.71890 0.06500
H 	H 	0.41540 0.17610 0.75590 0.03400
H 	H 	0.65160 0.11490 0.81670 0.08300
H 	H 	0.77720 0.82570 0.52570 0.04500
H 	H 	0.55100 0.81630 0.55230 0.04400
H 	H 	0.59510 0.98020 0.49900 0.04900
H 	H 	0.61530 0.73730 0.64730 0.09200
H 	H 	0.84120 0.62700 0.53480 0.02400
H 	H 	0.79090 0.72550 0.49270 0.07400
C 	C 	0.04798 0.80238 0.92416 0.38700
C 	C 	0.11229 0.77195 0.95661 -0.11300
C 	C 	0.12003 0.80091 0.99157 0.01600
C 	C 	0.17908 0.77439 0.02199 -0.04000
C 	C 	0.23117 0.71575 0.01893 0.01200
C 	C 	0.22507 0.68757 0.98325 -0.10600
C 	C 	0.16633 0.71695 0.95109 0.05400
C 	C 	0.27376 0.62345 0.98431 0.37600
C 	C 	0.18716 0.80480 0.06208 0.08000
C 	C 	0.11742 0.83968 0.09374 -0.14900
C 	C 	0.26719 0.83012 0.10120 -0.00400
C 	C 	0.26074 0.80145 0.06635 -0.10500
C 	C 	0.85071 0.79836 0.92886 0.34800
C 	C 	0.79363 0.75871 0.96965 -0.08200
C 	C 	0.72535 0.77900 0.01408 -0.00300
C 	C 	0.67427 0.74269 0.05399 -0.03100
C 	C 	0.69398 0.68531 0.04821 0.00200
C 	C 	0.76088 0.66355 0.00525 -0.08900
C 	C 	0.81105 0.70105 0.96527 0.02900
C 	C 	0.78608 0.59813 0.00373 0.36700
C 	C 	0.60158 0.76556 0.10190 0.07600
C 	C 	0.52980 0.74751 0.12179 -0.09800
C 	C 	0.46247 0.76961 0.16359 -0.01100
C 	C 	0.60275 0.80550 0.12648 -0.14600
C 	C 	0.75021 0.50092 0.94420 0.36900
C 	C 	0.69398 0.51277 0.90725 -0.09700
C 	C 	0.72146 0.52700 0.84492 0.01000
C 	C 	0.66896 0.54320 0.80942 -0.04400
C 	C 	0.58761 0.54177 0.83975 0.00900
C 	C 	0.55856 0.52533 0.90373 -0.10200
C 	C 	0.61272 0.51063 0.93703 0.04100
C 	C 	0.47535 0.52226 0.93536 0.35700
C 	C 	0.69552 0.56697 0.74311 0.09400
C 	C 	0.66195 0.62408 0.71436 -0.16600
C 	C 	0.79456 0.55860 0.64948 0.02100
C 	C 	0.76528 0.53350 0.70734 -0.12200
C 	C 	0.77452 0.19762 0.07584 0.38000
C 	C 	0.84085 0.22805 0.04339 -0.11000
C 	C 	0.91251 0.19909 0.00843 0.01400
C 	C 	0.97546 0.22561 0.97801 -0.04000
C 	C 	0.96585 0.28425 0.98107 0.00100
C 	C 	0.89589 0.31243 0.01675 -0.10200
C 	C 	0.83437 0.28305 0.04891 0.05000
C 	C 	0.88152 0.37655 0.01569 0.37400
C 	C 	0.05404 0.19520 0.93792 0.08100
C 	C 	0.05084 0.16032 0.90626 -0.14100
C 	C 	0.19851 0.16988 0.89880 -0.00400
C 	C 	0.12854 0.19855 0.93365 -0.10500
C 	C 	0.57793 0.20164 0.07114 0.34800
C 	C 	0.52199 0.24129 0.03035 -0.08100
C 	C 	0.51843 0.22100 0.98592 -0.00400
C 	C 	0.47095 0.25731 0.94601 -0.03100
C 	C 	0.42750 0.31469 0.95179 0.00100
C 	C 	0.42968 0.33645 0.99475 -0.08800
C 	C 	0.47737 0.29895 0.03473 0.02900
C 	C 	0.38794 0.40187 0.99627 0.36600
C 	C 	0.46904 0.23444 0.89810 0.07500
C 	C 	0.39910 0.25249 0.87821 -0.09800
C 	C 	0.39567 0.23039 0.83641 -0.01100
C 	C 	0.53473 0.19450 0.87352 -0.14600
C 	C 	0.19533 0.49908 0.05580 0.36900
C 	C 	0.11400 0.48723 0.09275 -0.09500
C 	C 	0.09338 0.47300 0.15508 0.00500
C 	C 	0.02158 0.45680 0.19058 -0.03100
C 	C 	0.96913 0.45823 0.16025 -0.00000
C 	C 	0.98762 0.47467 0.09627 -0.10500
C 	C 	0.06038 0.48937 0.06297 0.04600
C 	C 	0.93297 0.47774 0.06464 0.35700
C 	C 	0.00560 0.43303 0.25689 0.07900
C 	C 	0.00039 0.37592 0.28564 -0.13400
C 	C 	0.00264 0.44140 0.35052 0.01800
C 	C 	0.00612 0.46650 0.29266 -0.11200
C 	C 	0.77452 0.07584 0.19762 0.38000
C 	C 	0.84085 0.04339 0.22805 -0.11000
C 	C 	0.91251 0.00843 0.19909 0.01400
C 	C 	0.97546 0.97801 0.22561 -0.04000
C 	C 	0.96585 0.98107 0.28425 0.00100
C 	C 	0.89589 0.01675 0.31243 -0.10200
C 	C 	0.83437 0.04891 0.28305 0.05000
C 	C 	0.88152 0.01569 0.37655 0.37400
C 	C 	0.05404 0.93792 0.19520 0.08100
C 	C 	0.05084 0.90626 0.16032 -0.14100
C 	C 	0.19851 0.89880 0.16988 -0.00400
C 	C 	0.12854 0.93365 0.19855 -0.10500
C 	C 	0.57793 0.07114 0.20164 0.34800
C 	C 	0.52199 0.03035 0.24129 -0.08100
C 	C 	0.51843 0.98592 0.22100 -0.00400
C 	C 	0.47095 0.94601 0.25731 -0.03100
C 	C 	0.42750 0.95179 0.31469 0.00100
C 	C 	0.42968 0.99475 0.33645 -0.08800
C 	C 	0.47737 0.03473 0.29895 0.02900
C 	C 	0.38794 0.99627 0.40187 0.36600
C 	C 	0.46904 0.89810 0.23444 0.07500
C 	C 	0.39910 0.87821 0.25249 -0.09800
C 	C 	0.39567 0.83641 0.23039 -0.01100
C 	C 	0.53473 0.87352 0.19450 -0.14600
C 	C 	0.19533 0.05580 0.49908 0.36900
C 	C 	0.11400 0.09275 0.48723 -0.09500
C 	C 	0.09338 0.15508 0.47300 0.00500
C 	C 	0.02158 0.19058 0.45680 -0.03100
C 	C 	0.96913 0.16025 0.45823 -0.00000
C 	C 	0.98762 0.09627 0.47467 -0.10500
C 	C 	0.06038 0.06297 0.48937 0.04600
C 	C 	0.93297 0.06464 0.47774 0.35700
C 	C 	0.00560 0.25689 0.43303 0.07900
C 	C 	0.00039 0.28564 0.37592 -0.13400
C 	C 	0.00264 0.35052 0.44140 0.01800
C 	C 	0.00612 0.29266 0.46650 -0.11200
C 	C 	0.04798 0.92416 0.80238 0.38700
C 	C 	0.11229 0.95661 0.77195 -0.11300
C 	C 	0.12003 0.99157 0.80091 0.01600
C 	C 	0.17908 0.02199 0.77439 -0.04000
C 	C 	0.23117 0.01893 0.71575 0.01200
C 	C 	0.22507 0.98325 0.68757 -0.10600
C 	C 	0.16633 0.95109 0.71695 0.05400
C 	C 	0.27376 0.98431 0.62345 0.37600
C 	C 	0.18716 0.06208 0.80480 0.08000
C 	C 	0.11742 0.09374 0.83968 -0.14900
C 	C 	0.26719 0.10120 0.83012 -0.00400
C 	C 	0.26074 0.06635 0.80145 -0.10500
C 	C 	0.85071 0.92886 0.79836 0.34800
C 	C 	0.79363 0.96965 0.75871 -0.08200
C 	C 	0.72535 0.01408 0.77900 -0.00300
C 	C 	0.67427 0.05399 0.74269 -0.03100
C 	C 	0.69398 0.04821 0.68531 0.00200
C 	C 	0.76088 0.00525 0.66355 -0.08900
C 	C 	0.81105 0.96527 0.70105 0.02900
C 	C 	0.78608 0.00373 0.59813 0.36700
C 	C 	0.60158 0.10190 0.76556 0.07600
C 	C 	0.52980 0.12179 0.74751 -0.09800
C 	C 	0.46247 0.16359 0.76961 -0.01100
C 	C 	0.60275 0.12648 0.80550 -0.14600
C 	C 	0.75021 0.94420 0.50092 0.36900
C 	C 	0.69398 0.90725 0.51277 -0.09700
C 	C 	0.72146 0.84492 0.52700 0.01000
C 	C 	0.66896 0.80942 0.54320 -0.04400
C 	C 	0.58761 0.83975 0.54177 0.00900
C 	C 	0.55856 0.90373 0.52533 -0.10200
C 	C 	0.61272 0.93703 0.51063 0.04100
C 	C 	0.47535 0.93536 0.52226 0.35700
C 	C 	0.69552 0.74311 0.56697 0.09400
C 	C 	0.66195 0.71436 0.62408 -0.16600
C 	C 	0.79456 0.64948 0.55860 0.02100
C 	C 	0.76528 0.70734 0.53350 -0.12200
C 	C 	0.69201 0.65179 0.65179 0.11700
C 	C 	0.76052 0.61878 0.61878 -0.06100
C 	C 	0.99559 0.34821 0.34821 0.08900
C 	C 	0.99808 0.38122 0.38122 -0.05700
C 	C 	0.11980 0.87040 0.12960 0.10000
C 	C 	0.19770 0.86856 0.13144 -0.03400
C 	C 	0.46250 0.81203 0.18797 -0.02900
C 	C 	0.53490 0.83141 0.16859 0.09400
C 	C 	0.11980 0.12960 0.87040 0.10000
C 	C 	0.19770 0.13144 0.86856 -0.03400
C 	C 	0.46250 0.18797 0.81203 -0.02900
C 	C 	0.53490 0.16859 0.83141 0.09400
O 	O 	0.30495 0.59186 0.02650 -0.41400
O 	O 	0.27667 0.60667 0.94083 -0.41200
O 	O 	0.99144 0.84297 0.94253 -0.42500
O 	O 	0.05508 0.78282 0.88134 -0.40100
O 	O 	0.83904 0.84539 0.94429 -0.40500
O 	O 	0.90279 0.78277 0.88325 -0.41000
O 	O 	0.74490 0.56519 0.04633 -0.41200
O 	O 	0.84564 0.58204 0.96200 -0.40800
O 	O 	0.81923 0.50657 0.91503 -0.41700
O 	O 	0.72124 0.48912 0.00148 -0.40900
O 	O 	0.42952 0.52870 0.90440 -0.39800
O 	O 	0.45514 0.51369 0.99235 -0.40500
O 	O 	0.92331 0.40814 0.97350 -0.41500
O 	O 	0.82417 0.39333 0.05917 -0.41200
O 	O 	0.77694 0.15703 0.05747 -0.41900
O 	O 	0.71924 0.21718 0.11866 -0.40200
O 	O 	0.62872 0.15461 0.05571 -0.40500
O 	O 	0.56881 0.21723 0.11675 -0.40800
O 	O 	0.35642 0.43481 0.95367 -0.41200
O 	O 	0.38968 0.41796 0.03800 -0.40700
O 	O 	0.24083 0.49343 0.08497 -0.41700
O 	O 	0.21184 0.51088 0.99852 -0.40900
O 	O 	0.86262 0.47130 0.09560 -0.39800
O 	O 	0.96118 0.48631 0.00765 -0.40700
O 	O 	0.92331 0.97350 0.40814 -0.41500
O 	O 	0.82417 0.05917 0.39333 -0.41200
O 	O 	0.77694 0.05747 0.15703 -0.41900
O 	O 	0.71924 0.11866 0.21718 -0.40200
O 	O 	0.62872 0.05571 0.15461 -0.40500
O 	O 	0.56881 0.11675 0.21723 -0.40800
O 	O 	0.35642 0.95367 0.43481 -0.41200
O 	O 	0.38968 0.03800 0.41796 -0.40700
O 	O 	0.24083 0.08497 0.49343 -0.41700
O 	O 	0.21184 0.99852 0.51088 -0.40800
O 	O 	0.86262 0.09560 0.47130 -0.39800
O 	O 	0.96118 0.00765 0.48631 -0.40700
O 	O 	0.30495 0.02650 0.59186 -0.41400
O 	O 	0.27667 0.94083 0.60667 -0.41200
O 	O 	0.99144 0.94253 0.84297 -0.42500
O 	O 	0.05508 0.88134 0.78282 -0.40100
O 	O 	0.83904 0.94429 0.84539 -0.40500
O 	O 	0.90279 0.88325 0.78277 -0.41000
O 	O 	0.74490 0.04633 0.56519 -0.41200
O 	O 	0.84564 0.96200 0.58204 -0.40800
O 	O 	0.81923 0.91503 0.50657 -0.41700
O 	O 	0.72124 0.00148 0.48912 -0.40900
O 	O 	0.42952 0.90440 0.52870 -0.39800
O 	O 	0.45514 0.99235 0.51369 -0.40500
