data_crystal

_cell_length_a 10.90970
_cell_length_b 10.90970
_cell_length_c 19.51000
_cell_angle_alpha 75.46870
_cell_angle_beta  75.46870
_cell_angle_gamma 64.10820

_symmetry_space_group_name_	'P 1'
_symmetry_space_group_name_H-M	'P 1'

loop_
_symmetry_equiv_pos_as_xyz
  x,y,z

loop_
_atom_site_label
_atom_site_type_symbol
_atom_site_fract_x
_atom_site_fract_y
_atom_site_fract_z
_atom_site_charge
Dy	Dy	0.75382 0.09646 0.08305 1.66600
Dy	Dy	0.90354 0.24618 0.41695 1.67100
Dy	Dy	0.24618 0.90354 0.91695 1.66600
Dy	Dy	0.09646 0.75382 0.58305 1.67100
H 	H 	0.33120 0.09980 0.03170 0.01600
H 	H 	0.29770 0.18810 0.22380 0.02800
H 	H 	0.98080 0.15720 0.17230 0.01500
H 	H 	0.90020 0.66880 0.46830 0.01500
H 	H 	0.81190 0.70230 0.27620 0.02700
H 	H 	0.84280 0.01920 0.32770 0.00800
H 	H 	0.66880 0.90020 0.96830 0.01600
H 	H 	0.70230 0.81190 0.77620 0.02800
H 	H 	0.01920 0.84280 0.82770 0.01500
H 	H 	0.09980 0.33120 0.53170 0.01500
H 	H 	0.18810 0.29770 0.72380 0.02700
H 	H 	0.15720 0.98080 0.67230 0.00800
C 	C 	0.08620 0.09320 0.04380 0.46900
C 	C 	0.14960 0.12180 0.09510 -0.20700
C 	C 	0.28080 0.11820 0.07670 0.11000
C 	C 	0.33760 0.14160 0.12480 -0.16500
C 	C 	0.25990 0.17110 0.19130 0.08500
C 	C 	0.12880 0.17540 0.20970 -0.14700
C 	C 	0.07080 0.15220 0.16090 0.09700
C 	C 	0.48440 0.13040 0.10620 0.39300
C 	C 	0.04600 0.20200 0.28290 0.36300
C 	C 	0.90680 0.91380 0.45620 0.48300
C 	C 	0.87820 0.85040 0.40490 -0.21600
C 	C 	0.88180 0.71920 0.42330 0.11700
C 	C 	0.85840 0.66240 0.37520 -0.16900
C 	C 	0.82890 0.74010 0.30870 0.09100
C 	C 	0.82460 0.87120 0.29030 -0.15300
C 	C 	0.84780 0.92920 0.33910 0.11100
C 	C 	0.86960 0.51560 0.39380 0.39500
C 	C 	0.79800 0.95400 0.21710 0.37000
C 	C 	0.91380 0.90680 0.95620 0.46900
C 	C 	0.85040 0.87820 0.90490 -0.20700
C 	C 	0.71920 0.88180 0.92330 0.11000
C 	C 	0.66240 0.85840 0.87520 -0.16500
C 	C 	0.74010 0.82890 0.80870 0.08500
C 	C 	0.87120 0.82460 0.79030 -0.14700
C 	C 	0.92920 0.84780 0.83910 0.09700
C 	C 	0.51560 0.86960 0.89380 0.39300
C 	C 	0.95400 0.79800 0.71710 0.36300
C 	C 	0.09320 0.08620 0.54380 0.48300
C 	C 	0.12180 0.14960 0.59510 -0.21600
C 	C 	0.11820 0.28080 0.57670 0.11700
C 	C 	0.14160 0.33760 0.62480 -0.16900
C 	C 	0.17110 0.25990 0.69130 0.09100
C 	C 	0.17540 0.12880 0.70970 -0.15300
C 	C 	0.15220 0.07080 0.66090 0.11100
C 	C 	0.13040 0.48440 0.60620 0.39500
C 	C 	0.20200 0.04600 0.78290 0.37000
O 	O 	0.15090 0.08150 0.98160 -0.48100
O 	O 	0.55410 0.09970 0.05090 -0.45600
O 	O 	0.52850 0.15910 0.15100 -0.44200
O 	O 	0.10500 0.20500 0.32910 -0.40600
O 	O 	0.92520 0.21680 0.29520 -0.41300
O 	O 	0.97270 0.08190 0.06540 -0.52900
O 	O 	0.91850 0.84910 0.51840 -0.49100
O 	O 	0.90030 0.44590 0.44910 -0.45700
O 	O 	0.84090 0.47150 0.34900 -0.44200
O 	O 	0.79500 0.89500 0.17090 -0.40600
O 	O 	0.78320 0.07480 0.20480 -0.41600
O 	O 	0.91810 0.02730 0.43460 -0.53400
O 	O 	0.84910 0.91850 0.01840 -0.48100
O 	O 	0.44590 0.90030 0.94910 -0.45600
O 	O 	0.47150 0.84090 0.84900 -0.44200
O 	O 	0.89500 0.79500 0.67090 -0.40600
O 	O 	0.07480 0.78320 0.70480 -0.41300
O 	O 	0.02730 0.91810 0.93460 -0.52900
O 	O 	0.08150 0.15090 0.48160 -0.49100
O 	O 	0.09970 0.55410 0.55090 -0.45700
O 	O 	0.15910 0.52850 0.65100 -0.44200
O 	O 	0.20500 0.10500 0.82910 -0.40600
O 	O 	0.21680 0.92520 0.79520 -0.41600
O 	O 	0.08190 0.97270 0.56540 -0.53400
