data_crystal

_cell_length_a 10.83080
_cell_length_b 10.83080
_cell_length_c 19.55700
_cell_angle_alpha 75.69250
_cell_angle_beta  75.69250
_cell_angle_gamma 64.70670

_symmetry_space_group_name_	'P 1'
_symmetry_space_group_name_H-M	'P 1'

loop_
_symmetry_equiv_pos_as_xyz
  x,y,z

loop_
_atom_site_label
_atom_site_type_symbol
_atom_site_fract_x
_atom_site_fract_y
_atom_site_fract_z
_atom_site_charge
Yb	Yb	0.59575 0.25461 0.08293 1.50000
Yb	Yb	0.74539 0.40425 0.41707 1.50000
Yb	Yb	0.40425 0.74539 0.91707 1.50000
Yb	Yb	0.25461 0.59575 0.58293 1.50000
H 	H 	0.51400 0.34400 0.32700 0.02200
H 	H 	0.22300 0.31300 0.28400 -0.01000
H 	H 	0.17400 0.40000 0.47100 0.03300
H 	H 	0.65600 0.48600 0.17300 0.02200
H 	H 	0.68700 0.77700 0.21600 -0.01100
H 	H 	0.60000 0.82600 0.02900 0.03200
H 	H 	0.48600 0.65600 0.67300 0.02200
H 	H 	0.77700 0.68700 0.71600 -0.01000
H 	H 	0.82600 0.60000 0.52900 0.03300
H 	H 	0.34400 0.51400 0.82700 0.02200
H 	H 	0.31300 0.22300 0.78400 -0.01100
H 	H 	0.40000 0.17400 0.97100 0.03200
C 	C 	0.45400 0.29500 0.21720 0.33900
C 	C 	0.37430 0.32070 0.28920 -0.15200
C 	C 	0.43020 0.34720 0.33830 0.08800
C 	C 	0.35320 0.37740 0.40560 -0.17400
C 	C 	0.22060 0.38220 0.42270 0.09100
C 	C 	0.16360 0.35520 0.37480 -0.15600
C 	C 	0.24110 0.32590 0.30810 0.13400
C 	C 	0.01700 0.36620 0.39270 0.34000
C 	C 	0.41530 0.40830 0.45670 0.41800
C 	C 	0.70500 0.54600 0.28280 0.33900
C 	C 	0.67930 0.62570 0.21080 -0.15300
C 	C 	0.65280 0.56980 0.16170 0.08900
C 	C 	0.62260 0.64680 0.09440 -0.17500
C 	C 	0.61780 0.77940 0.07730 0.09100
C 	C 	0.64480 0.83640 0.12520 -0.15600
C 	C 	0.67410 0.75890 0.19190 0.13600
C 	C 	0.63380 0.98300 0.10730 0.33600
C 	C 	0.59170 0.58470 0.04330 0.41700
C 	C 	0.54600 0.70500 0.78280 0.33900
C 	C 	0.62570 0.67930 0.71080 -0.15200
C 	C 	0.56980 0.65280 0.66170 0.08800
C 	C 	0.64680 0.62260 0.59440 -0.17400
C 	C 	0.77940 0.61780 0.57730 0.09100
C 	C 	0.83640 0.64480 0.62520 -0.15600
C 	C 	0.75890 0.67410 0.69190 0.13400
C 	C 	0.98300 0.63380 0.60730 0.34000
C 	C 	0.58470 0.59170 0.54330 0.41800
C 	C 	0.29500 0.45400 0.71720 0.33900
C 	C 	0.32070 0.37430 0.78920 -0.15300
C 	C 	0.34720 0.43020 0.83830 0.08900
C 	C 	0.37740 0.35320 0.90560 -0.17500
C 	C 	0.38220 0.22060 0.92270 0.09100
C 	C 	0.35520 0.16360 0.87480 -0.15600
C 	C 	0.32590 0.24110 0.80810 0.13600
C 	C 	0.36620 0.01700 0.89270 0.33600
C 	C 	0.40830 0.41530 0.95670 0.41700
O 	O 	0.57890 0.28110 0.20290 -0.37600
O 	O 	0.39650 0.28950 0.17020 -0.37100
O 	O 	0.97110 0.32790 0.35120 -0.39500
O 	O 	0.93980 0.41120 0.44660 -0.40700
O 	O 	0.52860 0.42140 0.43320 -0.48300
O 	O 	0.34990 0.41970 0.51820 -0.44100
O 	O 	0.71890 0.42110 0.29710 -0.37600
O 	O 	0.71050 0.60350 0.32980 -0.37100
O 	O 	0.67210 0.02890 0.14880 -0.39300
O 	O 	0.58880 0.06020 0.05340 -0.40500
O 	O 	0.57860 0.47140 0.06680 -0.48200
O 	O 	0.58030 0.65010 0.98180 -0.44000
O 	O 	0.42110 0.71890 0.79710 -0.37600
O 	O 	0.60350 0.71050 0.82980 -0.37100
O 	O 	0.02890 0.67210 0.64880 -0.39500
O 	O 	0.06020 0.58880 0.55340 -0.40700
O 	O 	0.47140 0.57860 0.56680 -0.48300
O 	O 	0.65010 0.58030 0.48180 -0.44100
O 	O 	0.28110 0.57890 0.70290 -0.37600
O 	O 	0.28950 0.39650 0.67020 -0.37100
O 	O 	0.32790 0.97110 0.85120 -0.39300
O 	O 	0.41120 0.93980 0.94660 -0.40500
O 	O 	0.42140 0.52860 0.93320 -0.48200
O 	O 	0.41970 0.34990 0.01820 -0.44000
