data_crystal

_cell_length_a 23.71510
_cell_length_b 23.71510
_cell_length_c 23.71510
_cell_angle_alpha 109.47100
_cell_angle_beta  109.47100
_cell_angle_gamma 109.47100

_symmetry_space_group_name_	'P 1'
_symmetry_space_group_name_H-M	'P 1'

loop_
_symmetry_equiv_pos_as_xyz
  x,y,z

loop_
_atom_site_label
_atom_site_type_symbol
_atom_site_fract_x
_atom_site_fract_y
_atom_site_fract_z
_atom_site_charge
Co	Co	0.44512 0.55914 0.00426 1.18800
Co	Co	0.55488 0.44086 0.99574 1.18300
Co	Co	0.44512 0.44085 0.88598 1.18500
Co	Co	0.55488 0.55915 0.11402 1.18600
Co	Co	0.88598 0.44512 0.44086 1.18600
Co	Co	0.11402 0.55488 0.55914 1.18500
Co	Co	0.00427 0.44513 0.55915 1.18300
Co	Co	0.99573 0.55487 0.44085 1.18700
Co	Co	0.44086 0.99574 0.55488 1.18200
Co	Co	0.55914 0.00426 0.44512 1.18700
Co	Co	0.55914 0.11402 0.55487 1.18500
Co	Co	0.44086 0.88598 0.44513 1.18400
Co	Co	0.50000 0.66879 0.16879 1.17400
Co	Co	0.50000 0.33121 0.83121 1.17400
Co	Co	0.83121 0.50000 0.33121 1.17400
Co	Co	0.16879 0.50000 0.66879 1.17400
Co	Co	0.33121 0.83121 0.50000 1.17400
Co	Co	0.66879 0.16879 0.50000 1.17400
H 	H 	0.50620 0.88800 0.90680 0.06500
H 	H 	0.54020 0.81730 0.94030 0.07400
H 	H 	0.51220 0.72530 0.95890 0.02200
H 	H 	0.51450 0.83710 0.12960 0.02300
H 	H 	0.54370 0.93070 0.11280 0.07500
H 	H 	0.98120 0.59940 0.09320 0.05200
H 	H 	0.87700 0.59990 0.05970 0.07700
H 	H 	0.76640 0.55330 0.04110 0.01800
H 	H 	0.70750 0.38490 0.87040 0.01900
H 	H 	0.81790 0.43090 0.88720 0.08100
H 	H 	0.01880 0.11200 0.61820 0.07400
H 	H 	0.12300 0.18270 0.72290 0.06800
H 	H 	0.23360 0.27470 0.78690 0.02300
H 	H 	0.29250 0.16290 0.67740 0.02600
H 	H 	0.18210 0.06930 0.61300 0.07500
H 	H 	0.49380 0.40060 0.38180 0.06400
H 	H 	0.45980 0.40010 0.27710 0.07400
H 	H 	0.48780 0.44670 0.21310 0.02200
H 	H 	0.48550 0.61510 0.32260 0.02200
H 	H 	0.45630 0.56910 0.38700 0.07700
H 	H 	0.61820 0.01880 0.11200 0.06300
H 	H 	0.72290 0.12300 0.18270 0.07500
H 	H 	0.78690 0.23360 0.27470 0.02200
H 	H 	0.67740 0.29250 0.16290 0.02300
H 	H 	0.61300 0.18210 0.06930 0.07900
H 	H 	0.38180 0.49380 0.40060 0.06400
H 	H 	0.27710 0.45980 0.40010 0.07300
H 	H 	0.21310 0.48780 0.44670 0.02100
H 	H 	0.32260 0.48550 0.61510 0.02200
H 	H 	0.38700 0.45630 0.56910 0.07700
H 	H 	0.90680 0.50620 0.88800 0.05300
H 	H 	0.94030 0.54020 0.81730 0.07600
H 	H 	0.95890 0.51220 0.72530 0.01700
H 	H 	0.12960 0.51450 0.83710 0.01800
H 	H 	0.11280 0.54370 0.93070 0.07900
H 	H 	0.09320 0.98120 0.59940 0.07500
H 	H 	0.05970 0.87700 0.59990 0.06900
H 	H 	0.04110 0.76640 0.55330 0.02500
H 	H 	0.87040 0.70750 0.38490 0.02700
H 	H 	0.88720 0.81790 0.43090 0.07300
H 	H 	0.59940 0.09320 0.98120 0.06300
H 	H 	0.59990 0.05970 0.87700 0.07200
H 	H 	0.55330 0.04110 0.76640 0.02000
H 	H 	0.38490 0.87040 0.70750 0.02100
H 	H 	0.43090 0.88720 0.81790 0.07700
H 	H 	0.88800 0.90680 0.50620 0.07400
H 	H 	0.81730 0.94030 0.54020 0.07000
H 	H 	0.72530 0.95890 0.51220 0.02500
H 	H 	0.83710 0.12960 0.51450 0.02700
H 	H 	0.93070 0.11280 0.54370 0.07500
H 	H 	0.40060 0.38180 0.49380 0.06400
H 	H 	0.40010 0.27710 0.45980 0.07400
H 	H 	0.44670 0.21310 0.48780 0.02200
H 	H 	0.61510 0.32260 0.48550 0.02300
H 	H 	0.56910 0.38700 0.45630 0.07700
H 	H 	0.11200 0.61820 0.01880 0.05400
H 	H 	0.18270 0.72290 0.12300 0.07800
H 	H 	0.27470 0.78690 0.23360 0.01800
H 	H 	0.16290 0.67740 0.29250 0.01900
H 	H 	0.06930 0.61300 0.18210 0.07900
H 	H 	0.49380 0.11200 0.09320 0.06200
H 	H 	0.45980 0.18270 0.05970 0.07300
H 	H 	0.48780 0.27470 0.04110 0.02000
H 	H 	0.48550 0.16290 0.87040 0.02200
H 	H 	0.45630 0.06930 0.88720 0.07900
H 	H 	0.01880 0.40060 0.90680 0.07500
H 	H 	0.12300 0.40010 0.94030 0.06900
H 	H 	0.23360 0.44670 0.95890 0.02500
H 	H 	0.29250 0.61510 0.12960 0.02600
H 	H 	0.18210 0.56910 0.11280 0.07300
H 	H 	0.98120 0.88800 0.38180 0.05400
H 	H 	0.87700 0.81730 0.27710 0.07800
H 	H 	0.76640 0.72530 0.21310 0.01900
H 	H 	0.70750 0.83710 0.32260 0.01900
H 	H 	0.81790 0.93070 0.38700 0.07900
H 	H 	0.50620 0.59940 0.61820 0.06400
H 	H 	0.54020 0.59990 0.72290 0.07300
H 	H 	0.51220 0.55330 0.78690 0.02100
H 	H 	0.51450 0.38490 0.67740 0.02300
H 	H 	0.54370 0.43090 0.61300 0.07700
H 	H 	0.38180 0.98120 0.88800 0.06400
H 	H 	0.27710 0.87700 0.81730 0.07200
H 	H 	0.21310 0.76640 0.72530 0.02000
H 	H 	0.32260 0.70750 0.83710 0.02200
H 	H 	0.38700 0.81790 0.93070 0.07500
H 	H 	0.61820 0.50620 0.59940 0.06400
H 	H 	0.72290 0.54020 0.59990 0.07300
H 	H 	0.78690 0.51220 0.55330 0.02200
H 	H 	0.67740 0.51450 0.38490 0.02300
H 	H 	0.61300 0.54370 0.43090 0.07700
H 	H 	0.09320 0.49380 0.11200 0.07500
H 	H 	0.05970 0.45980 0.18270 0.07000
H 	H 	0.04110 0.48780 0.27470 0.02500
H 	H 	0.87040 0.48550 0.16290 0.02700
H 	H 	0.88720 0.45630 0.06930 0.07500
H 	H 	0.90680 0.01880 0.40060 0.05300
H 	H 	0.94030 0.12300 0.40010 0.07800
H 	H 	0.95890 0.23360 0.44670 0.01800
H 	H 	0.12960 0.29250 0.61510 0.01800
H 	H 	0.11280 0.18210 0.56910 0.08100
H 	H 	0.40060 0.90680 0.01880 0.06400
H 	H 	0.40010 0.94030 0.12300 0.07500
H 	H 	0.44670 0.95890 0.23360 0.02200
H 	H 	0.61510 0.12960 0.29250 0.02400
H 	H 	0.56910 0.11280 0.18210 0.07700
H 	H 	0.11200 0.09320 0.49380 0.05300
H 	H 	0.18270 0.05970 0.45980 0.07700
H 	H 	0.27470 0.04110 0.48780 0.01700
H 	H 	0.16290 0.87040 0.48550 0.01800
H 	H 	0.06930 0.88720 0.45630 0.07900
H 	H 	0.59940 0.61820 0.50620 0.06400
H 	H 	0.59990 0.72290 0.54020 0.07300
H 	H 	0.55330 0.78690 0.51220 0.02000
H 	H 	0.38490 0.67740 0.51450 0.02200
H 	H 	0.43090 0.61300 0.54370 0.07700
H 	H 	0.88800 0.38180 0.98120 0.07400
H 	H 	0.81730 0.27710 0.87700 0.06900
H 	H 	0.72530 0.21310 0.76640 0.02400
H 	H 	0.83710 0.32260 0.70750 0.02600
H 	H 	0.93070 0.38700 0.81790 0.07500
C 	C 	0.53455 0.93299 0.94404 -0.10200
C 	C 	0.56152 0.94361 0.01229 0.02900
C 	C 	0.54439 0.88472 0.02423 0.06000
C 	C 	0.53525 0.82162 0.97855 -0.13100
C 	C 	0.51929 0.76688 0.99005 0.04600
C 	C 	0.51360 0.77332 0.04832 -0.12800
C 	C 	0.52081 0.83376 0.09221 0.05700
C 	C 	0.53732 0.88965 0.08155 -0.12700
C 	C 	0.49884 0.71422 0.06232 0.39500
C 	C 	0.98895 0.59051 0.05596 -0.05200
C 	C 	0.93132 0.54923 0.98771 -0.00100
C 	C 	0.86049 0.52016 0.97577 0.06100
C 	C 	0.84307 0.55670 0.02145 -0.12800
C 	C 	0.77683 0.52924 0.00995 0.07400
C 	C 	0.72500 0.46528 0.95168 -0.15400
C 	C 	0.74155 0.42860 0.90779 0.07000
C 	C 	0.80810 0.45577 0.91845 -0.13900
C 	C 	0.65190 0.43652 0.93768 0.40200
C 	C 	0.01105 0.06701 0.60156 -0.13000
C 	C 	0.06868 0.05639 0.61791 0.06200
C 	C 	0.13951 0.11528 0.65967 0.03700
C 	C 	0.15693 0.17838 0.71363 -0.11300
C 	C 	0.22317 0.23312 0.75241 0.04800
C 	C 	0.27500 0.22668 0.74028 -0.13200
C 	C 	0.25845 0.16624 0.68705 0.05200
C 	C 	0.19190 0.11035 0.64767 -0.11600
C 	C 	0.34810 0.28578 0.78462 0.39600
C 	C 	0.46545 0.40949 0.39844 -0.09500
C 	C 	0.43848 0.45077 0.38209 0.03000
C 	C 	0.45561 0.47984 0.34033 0.05300
C 	C 	0.46475 0.44330 0.28637 -0.12400
C 	C 	0.48071 0.47076 0.24759 0.05600
C 	C 	0.48640 0.53472 0.25972 -0.13800
C 	C 	0.47919 0.57140 0.31295 0.06000
C 	C 	0.46268 0.54423 0.35233 -0.12700
C 	C 	0.50116 0.56348 0.21538 0.39800
C 	C 	0.60156 0.01105 0.06701 -0.08600
C 	C 	0.61791 0.06868 0.05639 0.03600
C 	C 	0.65967 0.13951 0.11528 0.05300
C 	C 	0.71363 0.15693 0.17838 -0.12300
C 	C 	0.75241 0.22317 0.23312 0.05600
C 	C 	0.74028 0.27500 0.22668 -0.13700
C 	C 	0.68705 0.25845 0.16624 0.06000
C 	C 	0.64767 0.19190 0.11035 -0.12600
C 	C 	0.78462 0.34810 0.28578 0.39800
C 	C 	0.39844 0.46545 0.40949 -0.09500
C 	C 	0.38209 0.43848 0.45077 0.03000
C 	C 	0.34033 0.45561 0.47984 0.05300
C 	C 	0.28637 0.46475 0.44330 -0.12500
C 	C 	0.24759 0.48071 0.47076 0.05600
C 	C 	0.25972 0.48640 0.53472 -0.13800
C 	C 	0.31295 0.47919 0.57140 0.06000
C 	C 	0.35233 0.46268 0.54423 -0.12800
C 	C 	0.21538 0.50116 0.56348 0.39800
C 	C 	0.94404 0.53455 0.93299 -0.06100
C 	C 	0.01229 0.56152 0.94361 -0.00700
C 	C 	0.02423 0.54439 0.88472 0.06100
C 	C 	0.97855 0.53525 0.82162 -0.12900
C 	C 	0.99005 0.51929 0.76688 0.07400
C 	C 	0.04832 0.51360 0.77332 -0.15400
C 	C 	0.09221 0.52081 0.83376 0.07000
C 	C 	0.08155 0.53732 0.88965 -0.14000
C 	C 	0.06232 0.49884 0.71422 0.40200
C 	C 	0.05596 0.98895 0.59051 -0.13700
C 	C 	0.98771 0.93132 0.54923 0.06100
C 	C 	0.97577 0.86049 0.52016 0.04500
C 	C 	0.02145 0.84307 0.55670 -0.12000
C 	C 	0.00995 0.77683 0.52924 0.03800
C 	C 	0.95168 0.72500 0.46528 -0.12200
C 	C 	0.90779 0.74155 0.42860 0.04900
C 	C 	0.91845 0.80810 0.45577 -0.11600
C 	C 	0.93768 0.65190 0.43652 0.39300
C 	C 	0.59051 0.05596 0.98895 -0.09600
C 	C 	0.54923 0.98771 0.93132 0.02600
C 	C 	0.52016 0.97577 0.86049 0.04600
C 	C 	0.55670 0.02145 0.84307 -0.11800
C 	C 	0.52924 0.00995 0.77683 0.06600
C 	C 	0.46528 0.95168 0.72500 -0.14800
C 	C 	0.42860 0.90779 0.74155 0.06200
C 	C 	0.45577 0.91845 0.80810 -0.12800
C 	C 	0.43652 0.93768 0.65190 0.40000
C 	C 	0.93299 0.94404 0.53455 -0.12900
C 	C 	0.94361 0.01229 0.56152 0.06600
C 	C 	0.88472 0.02423 0.54439 0.04500
C 	C 	0.82162 0.97855 0.53525 -0.11900
C 	C 	0.76688 0.99005 0.51929 0.03800
C 	C 	0.77332 0.04832 0.51360 -0.12200
C 	C 	0.83376 0.09221 0.52081 0.04900
C 	C 	0.88965 0.08155 0.53732 -0.11500
C 	C 	0.71422 0.06232 0.49884 0.39300
C 	C 	0.40949 0.39844 0.46545 -0.09500
C 	C 	0.45077 0.38209 0.43848 0.03000
C 	C 	0.47984 0.34033 0.45561 0.05300
C 	C 	0.44330 0.28637 0.46475 -0.12400
C 	C 	0.47076 0.24759 0.48071 0.05600
C 	C 	0.53472 0.25972 0.48640 -0.13700
C 	C 	0.57140 0.31295 0.47919 0.06000
C 	C 	0.54423 0.35233 0.46268 -0.12700
C 	C 	0.56348 0.21538 0.50116 0.39800
C 	C 	0.06701 0.60156 0.01105 -0.06000
C 	C 	0.05639 0.61791 0.06868 -0.00300
C 	C 	0.11528 0.65967 0.13951 0.06900
C 	C 	0.17838 0.71363 0.15693 -0.13600
C 	C 	0.23312 0.75241 0.22317 0.06400
C 	C 	0.22668 0.74028 0.27500 -0.14400
C 	C 	0.16624 0.68705 0.25845 0.06800
C 	C 	0.11035 0.64767 0.19190 -0.13900
C 	C 	0.28578 0.78462 0.34810 0.40000
C 	C 	0.46545 0.06701 0.05596 -0.08700
C 	C 	0.43848 0.05639 0.98771 0.03100
C 	C 	0.45561 0.11528 0.97577 0.04600
C 	C 	0.46475 0.17838 0.02145 -0.11700
C 	C 	0.48071 0.23312 0.00995 0.06600
C 	C 	0.48640 0.22668 0.95168 -0.14800
C 	C 	0.47919 0.16624 0.90779 0.06300
C 	C 	0.46268 0.11035 0.91845 -0.12700
C 	C 	0.50116 0.28578 0.93768 0.40000
C 	C 	0.01105 0.40949 0.94404 -0.13700
C 	C 	0.06868 0.45077 0.01229 0.06100
C 	C 	0.13951 0.47984 0.02423 0.04500
C 	C 	0.15693 0.44330 0.97855 -0.12000
C 	C 	0.22317 0.47076 0.99005 0.03800
C 	C 	0.27500 0.53472 0.04832 -0.12200
C 	C 	0.25845 0.57140 0.09221 0.04900
C 	C 	0.19190 0.54423 0.08155 -0.11600
C 	C 	0.34810 0.56348 0.06232 0.39300
C 	C 	0.98895 0.93299 0.39844 -0.06000
C 	C 	0.93132 0.94361 0.38209 -0.00300
C 	C 	0.86049 0.88472 0.34033 0.06900
C 	C 	0.84307 0.82162 0.28637 -0.13500
C 	C 	0.77683 0.76688 0.24759 0.06400
C 	C 	0.72500 0.77332 0.25972 -0.14300
C 	C 	0.74155 0.83376 0.31295 0.06700
C 	C 	0.80810 0.88965 0.35233 -0.13900
C 	C 	0.65190 0.71422 0.21538 0.40000
C 	C 	0.53455 0.59051 0.60156 -0.09500
C 	C 	0.56152 0.54923 0.61791 0.03000
C 	C 	0.54439 0.52016 0.65967 0.05300
C 	C 	0.53525 0.55670 0.71363 -0.12400
C 	C 	0.51929 0.52924 0.75241 0.05600
C 	C 	0.51360 0.46528 0.74028 -0.13800
C 	C 	0.52081 0.42860 0.68705 0.06000
C 	C 	0.53732 0.45577 0.64767 -0.12700
C 	C 	0.49884 0.43652 0.78462 0.39800
C 	C 	0.39844 0.98895 0.93299 -0.10300
C 	C 	0.38209 0.93132 0.94361 0.02400
C 	C 	0.34033 0.86049 0.88472 0.05300
C 	C 	0.28637 0.84307 0.82162 -0.12500
C 	C 	0.24759 0.77683 0.76688 0.05600
C 	C 	0.25972 0.72500 0.77332 -0.13900
C 	C 	0.31295 0.74155 0.83376 0.06000
C 	C 	0.35233 0.80810 0.88965 -0.12800
C 	C 	0.21538 0.65190 0.71422 0.39800
C 	C 	0.60156 0.53455 0.59051 -0.09500
C 	C 	0.61791 0.56152 0.54923 0.03000
C 	C 	0.65967 0.54439 0.52016 0.05300
C 	C 	0.71363 0.53525 0.55670 -0.12400
C 	C 	0.75241 0.51929 0.52924 0.05600
C 	C 	0.74028 0.51360 0.46528 -0.13700
C 	C 	0.68705 0.52081 0.42860 0.06000
C 	C 	0.64767 0.53732 0.45577 -0.12700
C 	C 	0.78462 0.49884 0.43652 0.39800
C 	C 	0.05596 0.46545 0.06701 -0.12900
C 	C 	0.98771 0.43848 0.05639 0.06700
C 	C 	0.97577 0.45561 0.11528 0.04500
C 	C 	0.02145 0.46475 0.17838 -0.11900
C 	C 	0.00995 0.48071 0.23312 0.03800
C 	C 	0.95168 0.48640 0.22668 -0.12100
C 	C 	0.90779 0.47919 0.16624 0.05000
C 	C 	0.91845 0.46268 0.11035 -0.11500
C 	C 	0.93768 0.50116 0.28578 0.39300
C 	C 	0.94404 0.01105 0.40949 -0.05200
C 	C 	0.01229 0.06868 0.45077 -0.00100
C 	C 	0.02423 0.13951 0.47984 0.06200
C 	C 	0.97855 0.15693 0.44330 -0.12800
C 	C 	0.99005 0.22317 0.47076 0.07400
C 	C 	0.04832 0.27500 0.53472 -0.15400
C 	C 	0.09221 0.25845 0.57140 0.07000
C 	C 	0.08155 0.19190 0.54423 -0.13900
C 	C 	0.06232 0.34810 0.56348 0.40200
C 	C 	0.40949 0.94404 0.01105 -0.09300
C 	C 	0.45077 0.01229 0.06868 0.03400
C 	C 	0.47984 0.02423 0.13951 0.06000
C 	C 	0.44330 0.97855 0.15693 -0.13000
C 	C 	0.47076 0.99005 0.22317 0.04600
C 	C 	0.53472 0.04832 0.27500 -0.12700
C 	C 	0.57140 0.09221 0.25845 0.05700
C 	C 	0.54423 0.08155 0.19190 -0.12600
C 	C 	0.56348 0.06232 0.34810 0.39500
C 	C 	0.06701 0.05596 0.46545 -0.06100
C 	C 	0.05639 0.98771 0.43848 -0.00700
C 	C 	0.11528 0.97577 0.45561 0.06100
C 	C 	0.17838 0.02145 0.46475 -0.12900
C 	C 	0.23312 0.00995 0.48071 0.07400
C 	C 	0.22668 0.95168 0.48640 -0.15400
C 	C 	0.16624 0.90779 0.47919 0.07000
C 	C 	0.11035 0.91845 0.46268 -0.14000
C 	C 	0.28578 0.93768 0.50116 0.40200
C 	C 	0.59051 0.60156 0.53455 -0.09500
C 	C 	0.54923 0.61791 0.56152 0.03000
C 	C 	0.52016 0.65967 0.54439 0.05300
C 	C 	0.55670 0.71363 0.53525 -0.12500
C 	C 	0.52924 0.75241 0.51929 0.05600
C 	C 	0.46528 0.74028 0.51360 -0.13800
C 	C 	0.42860 0.68705 0.52081 0.06000
C 	C 	0.45577 0.64767 0.53732 -0.12800
C 	C 	0.43652 0.78462 0.49884 0.39800
C 	C 	0.93299 0.39844 0.98895 -0.13000
C 	C 	0.94361 0.38209 0.93132 0.06300
C 	C 	0.88472 0.34033 0.86049 0.03700
C 	C 	0.82162 0.28637 0.84307 -0.11300
C 	C 	0.76688 0.24759 0.77683 0.04800
C 	C 	0.77332 0.25972 0.72500 -0.13100
C 	C 	0.83376 0.31295 0.74155 0.05200
C 	C 	0.88965 0.35233 0.80810 -0.11500
C 	C 	0.71422 0.21538 0.65190 0.39600
O 	O 	0.50004 0.72459 0.11715 -0.44100
O 	O 	0.48193 0.65593 0.01448 -0.43600
O 	O 	0.60744 0.38289 0.88285 -0.44300
O 	O 	0.64145 0.46745 0.98552 -0.44400
O 	O 	0.39256 0.27541 0.77545 -0.44100
O 	O 	0.35855 0.34407 0.82600 -0.44000
O 	O 	0.49996 0.61711 0.22455 -0.44200
O 	O 	0.51807 0.53255 0.17400 -0.43900
O 	O 	0.77545 0.39256 0.27541 -0.44100
O 	O 	0.82600 0.35855 0.34407 -0.43900
O 	O 	0.22455 0.49996 0.61711 -0.44200
O 	O 	0.17400 0.51807 0.53255 -0.44100
O 	O 	0.11715 0.50004 0.72459 -0.44400
O 	O 	0.01448 0.48193 0.65593 -0.44400
O 	O 	0.88285 0.60744 0.38289 -0.44000
O 	O 	0.98552 0.64145 0.46745 -0.43600
O 	O 	0.38289 0.88285 0.60744 -0.44300
O 	O 	0.46745 0.98552 0.64145 -0.44400
O 	O 	0.72459 0.11715 0.50004 -0.44000
O 	O 	0.65593 0.01448 0.48193 -0.43600
O 	O 	0.61711 0.22455 0.49996 -0.44200
O 	O 	0.53255 0.17400 0.51807 -0.43900
O 	O 	0.27541 0.77545 0.39256 -0.44300
O 	O 	0.34407 0.82600 0.35855 -0.44100
O 	O 	0.49996 0.27541 0.88285 -0.44300
O 	O 	0.51807 0.34407 0.98552 -0.44400
O 	O 	0.39256 0.61711 0.11715 -0.44100
O 	O 	0.35855 0.53255 0.01448 -0.43600
O 	O 	0.60744 0.72459 0.22455 -0.44300
O 	O 	0.64145 0.65593 0.17400 -0.44000
O 	O 	0.50004 0.38289 0.77545 -0.44200
O 	O 	0.48193 0.46745 0.82600 -0.44100
O 	O 	0.22455 0.60744 0.72459 -0.44300
O 	O 	0.17400 0.64145 0.65593 -0.44100
O 	O 	0.77545 0.50004 0.38289 -0.44200
O 	O 	0.82600 0.48193 0.46745 -0.43900
O 	O 	0.88285 0.49996 0.27541 -0.44000
O 	O 	0.98552 0.51807 0.34407 -0.43500
O 	O 	0.11715 0.39256 0.61711 -0.44400
O 	O 	0.01448 0.35855 0.53255 -0.44400
O 	O 	0.61711 0.11715 0.39256 -0.44100
O 	O 	0.53255 0.01448 0.35855 -0.43600
O 	O 	0.27541 0.88285 0.49996 -0.44400
O 	O 	0.34407 0.98552 0.51807 -0.44400
O 	O 	0.38289 0.77545 0.50004 -0.44200
O 	O 	0.46745 0.82600 0.48193 -0.44100
O 	O 	0.72459 0.22455 0.60744 -0.44100
O 	O 	0.65593 0.17400 0.64145 -0.43900
O 	O 	0.50000 0.58965 0.08965 -0.72800
O 	O 	0.50000 0.41035 0.91035 -0.72900
O 	O 	0.91035 0.50000 0.41035 -0.72800
O 	O 	0.08965 0.50000 0.58965 -0.73000
O 	O 	0.41035 0.91035 0.50000 -0.73000
O 	O 	0.58965 0.08965 0.50000 -0.72800
O 	O 	0.39889 0.50000 0.89889 -0.46300
O 	O 	0.60111 0.50000 0.10111 -0.45500
O 	O 	0.89889 0.39889 0.50000 -0.45500
O 	O 	0.10111 0.60111 0.50000 -0.46300
O 	O 	0.50000 0.10111 0.60111 -0.45500
O 	O 	0.50000 0.89889 0.39889 -0.46200
O 	O 	0.50000 0.50000 -0.00000 -0.62000
O 	O 	1.00000 0.50000 0.50000 -0.62000
O 	O 	0.50000 0.00000 0.50000 -0.62000
