data_crystal

_cell_length_a 17.41300
_cell_length_b 24.92400
_cell_length_c 22.27900
_cell_angle_alpha 90.00000
_cell_angle_beta  90.00000
_cell_angle_gamma 90.00000

_symmetry_space_group_name_	'P 1'
_symmetry_space_group_name_H-M	'P 1'

loop_
_symmetry_equiv_pos_as_xyz
  x,y,z

loop_
_atom_site_label
_atom_site_type_symbol
_atom_site_fract_x
_atom_site_fract_y
_atom_site_fract_z
_atom_site_charge
C 	C 	0.00340 0.51114 0.10464 0.05100
C 	C 	0.93325 0.53048 0.08572 -0.12000
H 	H 	0.88880 0.51770 0.10390 0.07500
C 	C 	0.92691 0.56721 0.04183 0.05500
C 	C 	0.99225 0.58809 0.01611 -0.11400
H 	H 	0.98800 0.61450 0.98680 0.06900
C 	C 	0.06417 0.57026 0.03338 0.04500
C 	C 	0.06982 0.53171 0.07772 -0.11400
H 	H 	0.11780 0.51940 0.08970 0.07100
C 	C 	0.01042 0.47002 0.15288 0.03900
C 	C 	0.06081 0.42727 0.14761 -0.10900
H 	H 	0.09130 0.42460 0.11340 0.07000
C 	C 	0.06721 0.38810 0.19214 0.03800
H 	H 	0.10190 0.36000 0.18790 0.03000
C 	C 	0.02134 0.39168 0.24253 -0.10800
C 	C 	0.96908 0.43574 0.24947 0.02900
H 	H 	0.94010 0.43980 0.28420 0.03800
C 	C 	0.96332 0.47236 0.20215 -0.10100
H 	H 	0.92630 0.49920 0.20410 0.06700
C 	C 	0.02732 0.35069 0.29318 0.39800
C 	C 	0.85003 0.58582 0.01945 0.04000
C 	C 	0.78769 0.55139 0.02071 -0.11100
H 	H 	0.79370 0.51640 0.03450 0.07300
C 	C 	0.71542 0.56909 0.00124 0.04300
H 	H 	0.67370 0.54580 0.00300 0.03500
C 	C 	0.70513 0.62058 0.97940 -0.12500
C 	C 	0.76708 0.65471 0.97856 0.04800
H 	H 	0.76100 0.68940 0.96410 0.02900
C 	C 	0.83734 0.63852 0.99861 -0.11500
H 	H 	0.87790 0.66280 0.99850 0.06900
C 	C 	0.62655 0.63914 0.95890 0.39500
C 	C 	0.13611 0.59122 0.00367 0.05400
C 	C 	0.13598 0.61471 0.94745 -0.13200
H 	H 	0.09050 0.61530 0.92560 0.07900
C 	C 	0.20009 0.63693 0.92308 0.06900
H 	H 	0.19740 0.65180 0.88480 0.01900
C 	C 	0.26886 0.63803 0.95360 -0.14500
C 	C 	0.27056 0.61412 0.01032 0.06200
H 	H 	0.31660 0.61240 0.03140 0.02300
C 	C 	0.20506 0.59319 0.03519 -0.12700
H 	H 	0.20680 0.57990 0.07420 0.07500
C 	C 	0.33791 0.66379 0.92586 0.41000
Co	Co	0.99745 0.32186 0.42149 1.16600
O 	O 	0.06380 0.30960 0.28024 -0.43400
O 	O 	0.99614 0.36300 0.34122 -0.43000
O 	O 	0.57132 0.61230 0.96910 -0.38600
O 	O 	0.62218 0.68078 0.93260 -0.42800
O 	O 	0.32932 0.69167 0.88178 -0.47200
O 	O 	0.40187 0.65575 0.95347 -0.46500
C 	C 	0.49660 0.48886 0.60464 0.05200
C 	C 	0.56675 0.46952 0.58572 -0.12400
H 	H 	0.61120 0.48230 0.60390 0.07500
C 	C 	0.57309 0.43279 0.54183 0.05700
C 	C 	0.50775 0.41191 0.51611 -0.11900
H 	H 	0.51200 0.38550 0.48680 0.07100
C 	C 	0.43583 0.42974 0.53338 0.04800
C 	C 	0.43018 0.46829 0.57772 -0.11600
H 	H 	0.38220 0.48060 0.58970 0.07200
C 	C 	0.48958 0.52998 0.65288 0.03800
C 	C 	0.43919 0.57273 0.64761 -0.10800
H 	H 	0.40870 0.57540 0.61340 0.07000
C 	C 	0.43279 0.61190 0.69214 0.03700
H 	H 	0.39810 0.64000 0.68790 0.03000
C 	C 	0.47866 0.60832 0.74253 -0.10800
C 	C 	0.53092 0.56426 0.74947 0.02900
H 	H 	0.55990 0.56020 0.78420 0.03800
C 	C 	0.53668 0.52764 0.70215 -0.10100
H 	H 	0.57370 0.50080 0.70410 0.06700
C 	C 	0.47268 0.64931 0.79318 0.39800
C 	C 	0.64997 0.41418 0.51945 0.03700
C 	C 	0.71231 0.44861 0.52071 -0.10900
H 	H 	0.70630 0.48360 0.53450 0.07200
C 	C 	0.78458 0.43091 0.50124 0.04100
H 	H 	0.82630 0.45420 0.50300 0.03500
C 	C 	0.79487 0.37942 0.47940 -0.12300
C 	C 	0.73292 0.34529 0.47856 0.04700
H 	H 	0.73900 0.31060 0.46410 0.03000
C 	C 	0.66266 0.36148 0.49861 -0.11200
H 	H 	0.62210 0.33720 0.49850 0.06800
C 	C 	0.87345 0.36086 0.45890 0.39400
C 	C 	0.36389 0.40878 0.50367 0.05400
C 	C 	0.36402 0.38529 0.44745 -0.13300
H 	H 	0.40950 0.38470 0.42560 0.07900
C 	C 	0.29991 0.36307 0.42308 0.07000
H 	H 	0.30260 0.34820 0.38480 0.01900
C 	C 	0.23114 0.36197 0.45360 -0.14600
C 	C 	0.22944 0.38588 0.51032 0.06300
H 	H 	0.18340 0.38760 0.53140 0.02300
C 	C 	0.29494 0.40681 0.53519 -0.12700
H 	H 	0.29320 0.42010 0.57420 0.07500
C 	C 	0.16209 0.33621 0.42586 0.41100
Co	Co	0.50255 0.67814 0.92149 1.16600
O 	O 	0.43620 0.69040 0.78024 -0.43400
O 	O 	0.50386 0.63700 0.84122 -0.43000
O 	O 	0.92868 0.38770 0.46910 -0.38600
O 	O 	0.87782 0.31922 0.43260 -0.42800
O 	O 	0.17068 0.30833 0.38178 -0.47200
O 	O 	0.09813 0.34425 0.45347 -0.46500
C 	C 	0.00340 0.98886 0.10464 0.04300
C 	C 	0.93325 0.96952 0.08572 -0.11500
H 	H 	0.88880 0.98230 0.10390 0.07200
C 	C 	0.92691 0.93279 0.04183 0.05100
C 	C 	0.99225 0.91191 0.01611 -0.11000
H 	H 	0.98800 0.88550 0.98680 0.06800
C 	C 	0.06417 0.92974 0.03338 0.04100
C 	C 	0.06982 0.96829 0.07772 -0.11000
H 	H 	0.11780 0.98060 0.08970 0.06900
C 	C 	0.01042 0.02998 0.15288 0.04500
C 	C 	0.06081 0.07273 0.14761 -0.11200
H 	H 	0.09130 0.07540 0.11340 0.07200
C 	C 	0.06721 0.11190 0.19214 0.04000
H 	H 	0.10190 0.14000 0.18790 0.02900
C 	C 	0.02134 0.10832 0.24253 -0.10900
C 	C 	0.96908 0.06426 0.24947 0.03100
H 	H 	0.94010 0.06020 0.28420 0.03700
C 	C 	0.96332 0.02764 0.20215 -0.10600
H 	H 	0.92630 0.00080 0.20410 0.06900
C 	C 	0.02732 0.14931 0.29318 0.39900
C 	C 	0.85003 0.91418 0.01945 0.04100
C 	C 	0.78769 0.94861 0.02071 -0.11200
H 	H 	0.79370 0.98360 0.03450 0.07300
C 	C 	0.71542 0.93091 0.00124 0.04400
H 	H 	0.67370 0.95420 0.00300 0.03400
C 	C 	0.70513 0.87942 0.97940 -0.12500
C 	C 	0.76708 0.84529 0.97856 0.04900
H 	H 	0.76100 0.81060 0.96410 0.02900
C 	C 	0.83734 0.86148 0.99861 -0.11500
H 	H 	0.87790 0.83720 0.99850 0.06900
C 	C 	0.62655 0.86086 0.95890 0.39500
C 	C 	0.13611 0.90878 0.00367 0.05500
C 	C 	0.13598 0.88529 0.94745 -0.13200
H 	H 	0.09050 0.88470 0.92560 0.07900
C 	C 	0.20009 0.86307 0.92308 0.07000
H 	H 	0.19740 0.84820 0.88480 0.01900
C 	C 	0.26886 0.86197 0.95360 -0.14500
C 	C 	0.27056 0.88588 0.01032 0.06200
H 	H 	0.31660 0.88760 0.03140 0.02300
C 	C 	0.20506 0.90681 0.03519 -0.12800
H 	H 	0.20680 0.92010 0.07420 0.07500
C 	C 	0.33791 0.83621 0.92586 0.41000
Co	Co	0.99745 0.17814 0.42149 1.16600
O 	O 	0.06380 0.19040 0.28024 -0.43500
O 	O 	0.99614 0.13700 0.34122 -0.43100
O 	O 	0.57132 0.88770 0.96910 -0.38600
O 	O 	0.62218 0.81922 0.93260 -0.42800
O 	O 	0.32932 0.80833 0.88178 -0.47200
O 	O 	0.40187 0.84425 0.95347 -0.46500
C 	C 	0.49660 0.01114 0.60464 0.05200
C 	C 	0.56675 0.03048 0.58572 -0.12400
H 	H 	0.61120 0.01770 0.60390 0.07400
C 	C 	0.57309 0.06721 0.54183 0.05700
C 	C 	0.50775 0.08809 0.51611 -0.11800
H 	H 	0.51200 0.11450 0.48680 0.07000
C 	C 	0.43583 0.07026 0.53338 0.04800
C 	C 	0.43018 0.03171 0.57772 -0.11600
H 	H 	0.38220 0.01940 0.58970 0.07200
C 	C 	0.48958 0.97002 0.65288 0.03800
C 	C 	0.43919 0.92727 0.64761 -0.10800
H 	H 	0.40870 0.92460 0.61340 0.07000
C 	C 	0.43279 0.88810 0.69214 0.03700
H 	H 	0.39810 0.86000 0.68790 0.03000
C 	C 	0.47866 0.89168 0.74253 -0.10800
C 	C 	0.53092 0.93574 0.74947 0.02900
H 	H 	0.55990 0.93980 0.78420 0.03800
C 	C 	0.53668 0.97236 0.70215 -0.10100
H 	H 	0.57370 0.99920 0.70410 0.06700
C 	C 	0.47268 0.85069 0.79318 0.39800
C 	C 	0.64997 0.08582 0.51945 0.03700
C 	C 	0.71231 0.05139 0.52071 -0.11000
H 	H 	0.70630 0.01640 0.53450 0.07200
C 	C 	0.78458 0.06909 0.50124 0.04100
H 	H 	0.82630 0.04580 0.50300 0.03500
C 	C 	0.79487 0.12058 0.47940 -0.12300
C 	C 	0.73292 0.15471 0.47856 0.04700
H 	H 	0.73900 0.18940 0.46410 0.03000
C 	C 	0.66266 0.13852 0.49861 -0.11200
H 	H 	0.62210 0.16280 0.49850 0.06800
C 	C 	0.87345 0.13914 0.45890 0.39400
C 	C 	0.36389 0.09122 0.50367 0.05400
C 	C 	0.36402 0.11471 0.44745 -0.13300
H 	H 	0.40950 0.11530 0.42560 0.07900
C 	C 	0.29991 0.13693 0.42308 0.07000
H 	H 	0.30260 0.15180 0.38480 0.01900
C 	C 	0.23114 0.13803 0.45360 -0.14600
C 	C 	0.22944 0.11412 0.51032 0.06300
H 	H 	0.18340 0.11240 0.53140 0.02300
C 	C 	0.29494 0.09319 0.53519 -0.12700
H 	H 	0.29320 0.07990 0.57420 0.07500
C 	C 	0.16209 0.16379 0.42586 0.41100
Co	Co	0.50255 0.82186 0.92149 1.16600
O 	O 	0.43620 0.80960 0.78024 -0.43400
O 	O 	0.50386 0.86300 0.84122 -0.43000
O 	O 	0.92868 0.11230 0.46910 -0.38600
O 	O 	0.87782 0.18078 0.43260 -0.42800
O 	O 	0.17068 0.19167 0.38178 -0.47200
O 	O 	0.09813 0.15575 0.45347 -0.46400
Co	Co	0.11314 0.25000 0.33366 1.16800
O 	O 	0.01109 0.25000 0.38421 -0.61700
Co	Co	0.38686 0.75000 0.83366 1.16800
O 	O 	0.48891 0.75000 0.88421 -0.61700
C 	C 	0.99660 0.01114 0.89536 0.04300
C 	C 	0.06675 0.03048 0.91428 -0.11500
H 	H 	0.11120 0.01770 0.89610 0.07200
C 	C 	0.07309 0.06721 0.95817 0.05100
C 	C 	0.00775 0.08809 0.98389 -0.11000
H 	H 	0.01200 0.11450 0.01320 0.06800
C 	C 	0.93583 0.07026 0.96662 0.04100
C 	C 	0.93018 0.03171 0.92228 -0.11000
H 	H 	0.88220 0.01940 0.91030 0.06900
C 	C 	0.98958 0.97002 0.84712 0.04500
C 	C 	0.93919 0.92727 0.85239 -0.11200
H 	H 	0.90870 0.92460 0.88660 0.07200
C 	C 	0.93279 0.88810 0.80786 0.04000
H 	H 	0.89810 0.86000 0.81210 0.02900
C 	C 	0.97866 0.89168 0.75747 -0.10900
C 	C 	0.03092 0.93574 0.75053 0.03100
H 	H 	0.05990 0.93980 0.71580 0.03700
C 	C 	0.03668 0.97236 0.79785 -0.10600
H 	H 	0.07370 0.99920 0.79590 0.06900
C 	C 	0.97268 0.85069 0.70682 0.39900
C 	C 	0.14997 0.08582 0.98055 0.04100
C 	C 	0.21231 0.05139 0.97929 -0.11200
H 	H 	0.20630 0.01640 0.96550 0.07300
C 	C 	0.28458 0.06909 0.99876 0.04400
H 	H 	0.32630 0.04580 0.99700 0.03400
C 	C 	0.29487 0.12058 0.02060 -0.12500
C 	C 	0.23292 0.15471 0.02144 0.04900
H 	H 	0.23900 0.18940 0.03590 0.02900
C 	C 	0.16266 0.13852 0.00139 -0.11500
H 	H 	0.12210 0.16280 0.00150 0.06900
C 	C 	0.37345 0.13914 0.04110 0.39500
C 	C 	0.86389 0.09122 0.99633 0.05500
C 	C 	0.86402 0.11471 0.05255 -0.13200
H 	H 	0.90950 0.11530 0.07440 0.07900
C 	C 	0.79991 0.13693 0.07692 0.07000
H 	H 	0.80260 0.15180 0.11520 0.01900
C 	C 	0.73114 0.13803 0.04640 -0.14500
C 	C 	0.72944 0.11412 0.98968 0.06200
H 	H 	0.68340 0.11240 0.96860 0.02300
C 	C 	0.79494 0.09319 0.96481 -0.12800
H 	H 	0.79320 0.07990 0.92580 0.07500
C 	C 	0.66209 0.16379 0.07414 0.41000
Co	Co	0.00255 0.82186 0.57851 1.16600
O 	O 	0.93620 0.80960 0.71976 -0.43500
O 	O 	0.00386 0.86300 0.65878 -0.43100
O 	O 	0.42868 0.11230 0.03090 -0.38600
O 	O 	0.37782 0.18078 0.06740 -0.42800
O 	O 	0.67068 0.19167 0.11822 -0.47200
O 	O 	0.59813 0.15575 0.04653 -0.46500
C 	C 	0.50340 0.98886 0.39536 0.05200
C 	C 	0.43325 0.96952 0.41428 -0.12400
H 	H 	0.38880 0.98230 0.39610 0.07400
C 	C 	0.42691 0.93279 0.45817 0.05700
C 	C 	0.49225 0.91191 0.48389 -0.11800
H 	H 	0.48800 0.88550 0.51320 0.07000
C 	C 	0.56417 0.92974 0.46662 0.04800
C 	C 	0.56982 0.96829 0.42228 -0.11600
H 	H 	0.61780 0.98060 0.41030 0.07200
C 	C 	0.51042 0.02998 0.34712 0.03800
C 	C 	0.56081 0.07273 0.35239 -0.10800
H 	H 	0.59130 0.07540 0.38660 0.07000
C 	C 	0.56721 0.11190 0.30786 0.03700
H 	H 	0.60190 0.14000 0.31210 0.03000
C 	C 	0.52134 0.10832 0.25747 -0.10800
C 	C 	0.46908 0.06426 0.25053 0.02900
H 	H 	0.44010 0.06020 0.21580 0.03800
C 	C 	0.46332 0.02764 0.29785 -0.10100
H 	H 	0.42630 0.00080 0.29590 0.06700
C 	C 	0.52732 0.14931 0.20682 0.39800
C 	C 	0.35003 0.91418 0.48055 0.03700
C 	C 	0.28769 0.94861 0.47929 -0.11000
H 	H 	0.29370 0.98360 0.46550 0.07200
C 	C 	0.21542 0.93091 0.49876 0.04100
H 	H 	0.17370 0.95420 0.49700 0.03500
C 	C 	0.20513 0.87942 0.52060 -0.12300
C 	C 	0.26708 0.84529 0.52144 0.04700
H 	H 	0.26100 0.81060 0.53590 0.03000
C 	C 	0.33734 0.86148 0.50139 -0.11200
H 	H 	0.37790 0.83720 0.50150 0.06800
C 	C 	0.12655 0.86086 0.54110 0.39400
C 	C 	0.63611 0.90878 0.49633 0.05400
C 	C 	0.63598 0.88529 0.55255 -0.13300
H 	H 	0.59050 0.88470 0.57440 0.07900
C 	C 	0.70009 0.86307 0.57692 0.07000
H 	H 	0.69740 0.84820 0.61520 0.01900
C 	C 	0.76886 0.86197 0.54640 -0.14600
C 	C 	0.77056 0.88588 0.48968 0.06300
H 	H 	0.81660 0.88760 0.46860 0.02300
C 	C 	0.70506 0.90681 0.46481 -0.12700
H 	H 	0.70680 0.92010 0.42580 0.07500
C 	C 	0.83791 0.83621 0.57414 0.41100
Co	Co	0.49745 0.17814 0.07851 1.16600
O 	O 	0.56380 0.19040 0.21976 -0.43400
O 	O 	0.49614 0.13700 0.15878 -0.43000
O 	O 	0.07132 0.88770 0.53090 -0.38600
O 	O 	0.12218 0.81922 0.56740 -0.42800
O 	O 	0.82932 0.80833 0.61822 -0.47200
O 	O 	0.90187 0.84425 0.54653 -0.46400
C 	C 	0.99660 0.48886 0.89536 0.05000
C 	C 	0.06675 0.46952 0.91428 -0.12100
H 	H 	0.11120 0.48230 0.89610 0.07400
C 	C 	0.07309 0.43279 0.95817 0.05400
C 	C 	0.00775 0.41191 0.98389 -0.11400
H 	H 	0.01200 0.38550 0.01320 0.06900
C 	C 	0.93583 0.42974 0.96662 0.04500
C 	C 	0.93018 0.46829 0.92228 -0.11400
H 	H 	0.88220 0.48060 0.91030 0.07100
C 	C 	0.98958 0.52998 0.84712 0.03900
C 	C 	0.93919 0.57273 0.85239 -0.10900
H 	H 	0.90870 0.57540 0.88660 0.07000
C 	C 	0.93279 0.61190 0.80786 0.03800
H 	H 	0.89810 0.64000 0.81210 0.03000
C 	C 	0.97866 0.60832 0.75747 -0.10800
C 	C 	0.03092 0.56426 0.75053 0.02900
H 	H 	0.05990 0.56020 0.71580 0.03800
C 	C 	0.03668 0.52764 0.79785 -0.10100
H 	H 	0.07370 0.50080 0.79590 0.06700
C 	C 	0.97268 0.64931 0.70682 0.39800
C 	C 	0.14997 0.41418 0.98055 0.04000
C 	C 	0.21231 0.44861 0.97929 -0.11100
H 	H 	0.20630 0.48360 0.96550 0.07300
C 	C 	0.28458 0.43091 0.99876 0.04300
H 	H 	0.32630 0.45420 0.99700 0.03500
C 	C 	0.29487 0.37942 0.02060 -0.12500
C 	C 	0.23292 0.34529 0.02144 0.04800
H 	H 	0.23900 0.31060 0.03590 0.02900
C 	C 	0.16266 0.36148 0.00139 -0.11500
H 	H 	0.12210 0.33720 0.00150 0.06900
C 	C 	0.37345 0.36086 0.04110 0.39500
C 	C 	0.86389 0.40878 0.99633 0.05400
C 	C 	0.86402 0.38529 0.05255 -0.13200
H 	H 	0.90950 0.38470 0.07440 0.07900
C 	C 	0.79991 0.36307 0.07692 0.06900
H 	H 	0.80260 0.34820 0.11520 0.01900
C 	C 	0.73114 0.36197 0.04640 -0.14500
C 	C 	0.72944 0.38588 0.98968 0.06200
H 	H 	0.68340 0.38760 0.96860 0.02300
C 	C 	0.79494 0.40681 0.96481 -0.12700
H 	H 	0.79320 0.42010 0.92580 0.07500
C 	C 	0.66209 0.33621 0.07414 0.41000
Co	Co	0.00255 0.67814 0.57851 1.16600
O 	O 	0.93620 0.69040 0.71976 -0.43400
O 	O 	0.00386 0.63700 0.65878 -0.43000
O 	O 	0.42868 0.38770 0.03090 -0.38600
O 	O 	0.37782 0.31922 0.06740 -0.42800
O 	O 	0.67068 0.30833 0.11822 -0.47200
O 	O 	0.59813 0.34425 0.04653 -0.46500
C 	C 	0.50340 0.51114 0.39536 0.05200
C 	C 	0.43325 0.53048 0.41428 -0.12400
H 	H 	0.38880 0.51770 0.39610 0.07500
C 	C 	0.42691 0.56721 0.45817 0.05700
C 	C 	0.49225 0.58809 0.48389 -0.11900
H 	H 	0.48800 0.61450 0.51320 0.07100
C 	C 	0.56417 0.57026 0.46662 0.04800
C 	C 	0.56982 0.53171 0.42228 -0.11600
H 	H 	0.61780 0.51940 0.41030 0.07200
C 	C 	0.51042 0.47002 0.34712 0.03800
C 	C 	0.56081 0.42727 0.35239 -0.10800
H 	H 	0.59130 0.42460 0.38660 0.07000
C 	C 	0.56721 0.38810 0.30786 0.03700
H 	H 	0.60190 0.36000 0.31210 0.03000
C 	C 	0.52134 0.39168 0.25747 -0.10800
C 	C 	0.46908 0.43574 0.25053 0.02900
H 	H 	0.44010 0.43980 0.21580 0.03800
C 	C 	0.46332 0.47236 0.29785 -0.10100
H 	H 	0.42630 0.49920 0.29590 0.06700
C 	C 	0.52732 0.35069 0.20682 0.39800
C 	C 	0.35003 0.58582 0.48055 0.03700
C 	C 	0.28769 0.55139 0.47929 -0.10900
H 	H 	0.29370 0.51640 0.46550 0.07200
C 	C 	0.21542 0.56909 0.49876 0.04100
H 	H 	0.17370 0.54580 0.49700 0.03500
C 	C 	0.20513 0.62058 0.52060 -0.12300
C 	C 	0.26708 0.65471 0.52144 0.04700
H 	H 	0.26100 0.68940 0.53590 0.03000
C 	C 	0.33734 0.63852 0.50139 -0.11200
H 	H 	0.37790 0.66280 0.50150 0.06800
C 	C 	0.12655 0.63914 0.54110 0.39400
C 	C 	0.63611 0.59122 0.49633 0.05400
C 	C 	0.63598 0.61471 0.55255 -0.13300
H 	H 	0.59050 0.61530 0.57440 0.07900
C 	C 	0.70009 0.63693 0.57692 0.07000
H 	H 	0.69740 0.65180 0.61520 0.01900
C 	C 	0.76886 0.63803 0.54640 -0.14600
C 	C 	0.77056 0.61412 0.48968 0.06300
H 	H 	0.81660 0.61240 0.46860 0.02300
C 	C 	0.70506 0.59319 0.46481 -0.12700
H 	H 	0.70680 0.57990 0.42580 0.07500
C 	C 	0.83791 0.66379 0.57414 0.41100
Co	Co	0.49745 0.32186 0.07851 1.16600
O 	O 	0.56380 0.30960 0.21976 -0.43400
O 	O 	0.49614 0.36300 0.15878 -0.43000
O 	O 	0.07132 0.61230 0.53090 -0.38600
O 	O 	0.12218 0.68078 0.56740 -0.42800
O 	O 	0.82932 0.69167 0.61822 -0.47200
O 	O 	0.90187 0.65575 0.54653 -0.46500
Co	Co	0.88686 0.75000 0.66634 1.16800
O 	O 	0.98891 0.75000 0.61579 -0.61700
Co	Co	0.61314 0.25000 0.16634 1.16800
O 	O 	0.51109 0.25000 0.11579 -0.61700
