data_crystal

_cell_length_a 11.38060
_cell_length_b 9.84510
_cell_length_c 18.38830
_cell_angle_alpha 90.00000
_cell_angle_beta  126.90900
_cell_angle_gamma 90.00000

_symmetry_space_group_name_	'P 1'
_symmetry_space_group_name_H-M	'P 1'

loop_
_symmetry_equiv_pos_as_xyz
  x,y,z

loop_
_atom_site_label
_atom_site_type_symbol
_atom_site_fract_x
_atom_site_fract_y
_atom_site_fract_z
_atom_site_charge
Fe	Fe	0.37754 0.08403 0.13308 1.17100
Fe	Fe	0.42651 0.10380 0.68738 1.18200
O 	O 	0.43540 0.20580 0.24569 -0.56700
O 	O 	0.55050 0.06830 0.36690 -0.47600
O 	O 	0.59100 0.00150 0.21935 -0.67800
O 	O 	0.67830 0.00160 0.13836 -0.55100
O 	O 	0.45440 0.26180 0.10717 -0.56600
O 	O 	0.48250 0.21030 0.00019 -0.48500
O 	O 	0.34550 0.92010 0.19594 -0.52400
O 	O 	0.10380 0.89680 0.12060 -0.47100
O 	O 	0.33670 0.97500 0.02309 -0.58400
O 	O 	0.11490 0.89230 0.96720 -0.45600
O 	O 	0.15940 0.15680 0.05986 -0.60000
O 	O 	0.20100 0.38000 0.09198 -0.47600
C 	C 	0.49560 0.17780 0.32910 0.48700
H 	H 	0.49810 0.24820 0.36530 -0.11500
C 	C 	0.69340 0.99010 0.21070 0.72500
H 	H 	0.78930 0.97130 0.26400 -0.13900
C 	C 	0.47400 0.29170 0.04790 0.49600
H 	H 	0.48300 0.38530 0.03960 -0.12300
C 	C 	0.23230 0.87260 0.18490 0.49900
H 	H 	0.24800 0.81270 0.23050 -0.12700
C 	C 	0.22420 0.89980 0.96930 0.60900
H 	H 	0.22590 0.84510 0.92740 -0.13500
C 	C 	0.11870 0.28220 0.05100 0.47200
H 	H 	0.01650 0.30070 0.00920 -0.16600
Fe	Fe	0.62246 0.58403 0.36692 1.20000
Fe	Fe	0.57349 0.60380 0.81262 1.21400
O 	O 	0.56460 0.70580 0.25431 -0.55200
O 	O 	0.44950 0.56830 0.13310 -0.46200
O 	O 	0.40900 0.50150 0.28065 -0.56200
O 	O 	0.32170 0.50160 0.36164 -0.44900
O 	O 	0.54560 0.76180 0.39283 -0.54300
O 	O 	0.51750 0.71030 0.49981 -0.42400
O 	O 	0.65450 0.42010 0.30406 -0.54100
O 	O 	0.89620 0.39680 0.37940 -0.38200
O 	O 	0.66330 0.47500 0.47691 -0.53800
O 	O 	0.88510 0.39230 0.53280 -0.38900
O 	O 	0.84060 0.65680 0.44014 -0.49200
O 	O 	0.79900 0.88000 0.40802 -0.38000
C 	C 	0.50440 0.67780 0.17090 0.48700
H 	H 	0.50190 0.74820 0.13470 -0.11800
C 	C 	0.30660 0.49010 0.28930 0.48900
H 	H 	0.21070 0.47130 0.23600 -0.13000
C 	C 	0.52600 0.79170 0.45210 0.48400
H 	H 	0.51700 0.88530 0.46040 -0.07500
C 	C 	0.76770 0.37260 0.31510 0.48100
H 	H 	0.75200 0.31270 0.26950 -0.10600
C 	C 	0.77580 0.39980 0.53070 0.47700
H 	H 	0.77410 0.34510 0.57260 -0.08200
C 	C 	0.88130 0.78220 0.44900 0.43600
H 	H 	0.98350 0.80070 0.49080 -0.02000
Fe	Fe	0.62246 0.91597 0.86692 1.22500
Fe	Fe	0.57349 0.89620 0.31262 1.24200
O 	O 	0.56460 0.79420 0.75431 -0.54300
O 	O 	0.44950 0.93170 0.63310 -0.40300
O 	O 	0.40900 0.99850 0.78065 -0.42400
O 	O 	0.32170 0.99840 0.86164 -0.28300
O 	O 	0.54560 0.73820 0.89283 -0.53300
O 	O 	0.51750 0.78970 0.99981 -0.35900
O 	O 	0.65450 0.07990 0.80406 -0.56500
O 	O 	0.89620 0.10320 0.87940 -0.36100
O 	O 	0.66330 0.02500 0.97691 -0.47200
O 	O 	0.88510 0.10770 0.03280 -0.39200
O 	O 	0.84060 0.84320 0.94014 -0.44000
O 	O 	0.79900 0.62000 0.90802 -0.38500
C 	C 	0.50440 0.82220 0.67090 0.47600
H 	H 	0.50190 0.75180 0.63470 -0.10100
C 	C 	0.30660 0.00990 0.78930 0.22600
H 	H 	0.21070 0.02870 0.73600 -0.06000
C 	C 	0.52600 0.70830 0.95210 0.46900
H 	H 	0.51700 0.61470 0.96040 -0.07000
C 	C 	0.76770 0.12740 0.81510 0.48000
H 	H 	0.75200 0.18730 0.76950 -0.09900
C 	C 	0.77580 0.10020 0.03070 0.34300
H 	H 	0.77410 0.15490 0.07260 -0.05000
C 	C 	0.88130 0.71780 0.94900 0.42700
H 	H 	0.98350 0.69930 0.99080 -0.00100
Fe	Fe	0.37754 0.41597 0.63308 1.19900
Fe	Fe	0.42651 0.39620 0.18738 1.21000
O 	O 	0.43540 0.29420 0.74569 -0.55500
O 	O 	0.55050 0.43170 0.86690 -0.41600
O 	O 	0.59100 0.49850 0.71935 -0.54600
O 	O 	0.67830 0.49840 0.63836 -0.41400
O 	O 	0.45440 0.23820 0.60717 -0.56100
O 	O 	0.48250 0.28970 0.50019 -0.44400
O 	O 	0.34550 0.57990 0.69594 -0.55700
O 	O 	0.10380 0.60320 0.62060 -0.48600
O 	O 	0.33670 0.52500 0.52309 -0.55800
O 	O 	0.11490 0.60770 0.46720 -0.49600
O 	O 	0.15940 0.34320 0.55986 -0.56600
O 	O 	0.20100 0.12000 0.59198 -0.48500
C 	C 	0.49560 0.32220 0.82910 0.47600
H 	H 	0.49810 0.25180 0.86530 -0.09500
C 	C 	0.69340 0.50990 0.71070 0.47400
H 	H 	0.78930 0.52870 0.76400 -0.07200
C 	C 	0.47400 0.20830 0.54790 0.49000
H 	H 	0.48300 0.11470 0.53960 -0.12200
C 	C 	0.23230 0.62740 0.68490 0.51000
H 	H 	0.24800 0.68730 0.73050 -0.12500
C 	C 	0.22420 0.60020 0.46930 0.50500
H 	H 	0.22590 0.65490 0.42740 -0.11600
C 	C 	0.11870 0.21780 0.55100 0.47100
H 	H 	0.01650 0.19930 0.50920 -0.15100
Fe	Fe	0.50000 0.00000 -0.00000 1.14700
Fe	Fe	0.50000 0.50000 0.50000 1.22900
Fe	Fe	-0.00000 0.00000 -0.00000 1.09900
Fe	Fe	0.00000 0.50000 0.50000 1.18300
