data_crystal

_cell_length_a 11.41980
_cell_length_b 9.89790
_cell_length_c 18.43920
_cell_angle_alpha 90.00000
_cell_angle_beta  126.85300
_cell_angle_gamma 90.00000

_symmetry_space_group_name_	'P 1'
_symmetry_space_group_name_H-M	'P 1'

loop_
_symmetry_equiv_pos_as_xyz
  x,y,z

loop_
_atom_site_label
_atom_site_type_symbol
_atom_site_fract_x
_atom_site_fract_y
_atom_site_fract_z
_atom_site_charge
Fe	Fe	0.37725 0.08216 0.13297 1.13900
Fe	Fe	0.42781 0.10670 0.68833 1.19200
O 	O 	0.43710 0.20280 0.24630 -0.58200
O 	O 	0.54970 0.06430 0.36579 -0.51100
O 	O 	0.58950 0.99840 0.21840 -0.49500
O 	O 	0.67630 0.99990 0.13793 -0.36700
O 	O 	0.45470 0.25940 0.10745 -0.58900
O 	O 	0.48430 0.20980 0.00171 -0.49800
O 	O 	0.34530 0.91860 0.19548 -0.52700
O 	O 	0.10470 0.89450 0.11953 -0.46800
O 	O 	0.33650 0.97540 0.02278 -0.56800
O 	O 	0.11470 0.89550 0.96580 -0.44700
O 	O 	0.15970 0.15580 0.06076 -0.61100
O 	O 	0.20330 0.37700 0.09432 -0.47900
C 	C 	0.49620 0.17350 0.32920 0.51300
H 	H 	0.49870 0.24130 0.36490 -0.13200
C 	C 	0.69130 0.98650 0.20960 0.48000
H 	H 	0.78440 0.96590 0.26130 -0.06800
C 	C 	0.47420 0.28940 0.04920 0.52900
H 	H 	0.48170 0.38080 0.04100 -0.14000
C 	C 	0.23190 0.87030 0.18290 0.53100
H 	H 	0.24680 0.81010 0.22650 -0.14100
C 	C 	0.22390 0.90290 0.96830 0.63300
H 	H 	0.22490 0.85100 0.92670 -0.13400
C 	C 	0.11960 0.28030 0.05320 0.49200
H 	H 	0.02000 0.29870 0.01380 -0.17700
Fe	Fe	0.62275 0.58216 0.36703 1.20100
Fe	Fe	0.57219 0.60670 0.81167 1.21600
O 	O 	0.56290 0.70280 0.25370 -0.56000
O 	O 	0.45030 0.56430 0.13421 -0.47000
O 	O 	0.41050 0.49840 0.28160 -0.56600
O 	O 	0.32370 0.49990 0.36207 -0.45800
O 	O 	0.54530 0.75940 0.39255 -0.54800
O 	O 	0.51570 0.70980 0.49829 -0.42700
O 	O 	0.65470 0.41860 0.30452 -0.55300
O 	O 	0.89530 0.39450 0.38047 -0.40000
O 	O 	0.66350 0.47540 0.47722 -0.54500
O 	O 	0.88530 0.39550 0.53420 -0.39900
O 	O 	0.84030 0.65580 0.43924 -0.49300
O 	O 	0.79670 0.87700 0.40568 -0.37800
C 	C 	0.50380 0.67350 0.17080 0.51200
H 	H 	0.50130 0.74130 0.13510 -0.13700
C 	C 	0.30870 0.48650 0.29040 0.51600
H 	H 	0.21560 0.46590 0.23870 -0.14400
C 	C 	0.52580 0.78940 0.45080 0.51400
H 	H 	0.51830 0.88080 0.45900 -0.08000
C 	C 	0.76810 0.37030 0.31710 0.51200
H 	H 	0.75320 0.31010 0.27350 -0.13100
C 	C 	0.77610 0.40290 0.53170 0.50300
H 	H 	0.77510 0.35100 0.57330 -0.09700
C 	C 	0.88040 0.78030 0.44680 0.44700
H 	H 	0.98000 0.79870 0.48620 -0.02600
Fe	Fe	0.62275 0.91784 0.86703 1.25600
Fe	Fe	0.57219 0.89330 0.31167 1.23800
O 	O 	0.56290 0.79720 0.75370 -0.53200
O 	O 	0.45030 0.93570 0.63421 -0.38500
O 	O 	0.41050 0.00160 0.78160 -0.60700
O 	O 	0.32370 0.00010 0.86207 -0.46900
O 	O 	0.54530 0.74060 0.89255 -0.53200
O 	O 	0.51570 0.79020 0.99829 -0.35800
O 	O 	0.65470 0.08140 0.80452 -0.57400
O 	O 	0.89530 0.10550 0.88047 -0.37700
O 	O 	0.66350 0.02460 0.97722 -0.48100
O 	O 	0.88530 0.10450 0.03420 -0.40800
O 	O 	0.84030 0.84420 0.93924 -0.42800
O 	O 	0.79670 0.62300 0.90568 -0.38600
C 	C 	0.50380 0.82650 0.67080 0.49700
H 	H 	0.50130 0.75870 0.63510 -0.11000
C 	C 	0.30870 0.01350 0.79040 0.51900
H 	H 	0.21560 0.03410 0.73870 -0.15500
C 	C 	0.52580 0.71060 0.95080 0.50400
H 	H 	0.51830 0.61920 0.95900 -0.08600
C 	C 	0.76810 0.12970 0.81710 0.50400
H 	H 	0.75320 0.18990 0.77350 -0.11400
C 	C 	0.77610 0.09710 0.03170 0.34400
H 	H 	0.77510 0.14900 0.07330 -0.07200
C 	C 	0.88040 0.71970 0.94680 0.43500
H 	H 	0.98000 0.70130 0.98620 -0.01000
Fe	Fe	0.37725 0.41784 0.63297 1.19900
Fe	Fe	0.42781 0.39330 0.18833 1.21200
O 	O 	0.43710 0.29720 0.74630 -0.55200
O 	O 	0.54970 0.43570 0.86579 -0.42200
O 	O 	0.58950 0.50160 0.71840 -0.54900
O 	O 	0.67630 0.50010 0.63793 -0.42100
O 	O 	0.45470 0.24060 0.60745 -0.57700
O 	O 	0.48430 0.29020 0.50171 -0.45600
O 	O 	0.34530 0.58140 0.69548 -0.56300
O 	O 	0.10470 0.60550 0.61953 -0.49100
O 	O 	0.33650 0.52460 0.52278 -0.56600
O 	O 	0.11470 0.60450 0.46580 -0.50100
O 	O 	0.15970 0.34420 0.56076 -0.56800
O 	O 	0.20330 0.12300 0.59432 -0.48900
C 	C 	0.49620 0.32650 0.82920 0.49600
H 	H 	0.49870 0.25870 0.86490 -0.10000
C 	C 	0.69130 0.51350 0.70960 0.49800
H 	H 	0.78440 0.53410 0.76130 -0.08500
C 	C 	0.47420 0.21060 0.54920 0.53000
H 	H 	0.48170 0.11920 0.54100 -0.14900
C 	C 	0.23190 0.62970 0.68290 0.54000
H 	H 	0.24680 0.68990 0.72650 -0.13100
C 	C 	0.22390 0.59710 0.46830 0.53300
H 	H 	0.22490 0.64900 0.42670 -0.13000
C 	C 	0.11960 0.21970 0.55320 0.48900
H 	H 	0.02000 0.20130 0.51380 -0.16600
Fe	Fe	0.50000 0.00000 -0.00000 1.12500
Fe	Fe	0.50000 0.50000 0.50000 1.23100
Fe	Fe	-0.00000 0.00000 -0.00000 1.08100
Fe	Fe	-0.00000 0.50000 0.50000 1.18500
