data_crystal

_cell_length_a 11.35940
_cell_length_b 9.81770
_cell_length_c 18.37240
_cell_angle_alpha 90.00000
_cell_angle_beta  126.93100
_cell_angle_gamma 90.00000

_symmetry_space_group_name_	'P 1'
_symmetry_space_group_name_H-M	'P 1'

loop_
_symmetry_equiv_pos_as_xyz
  x,y,z

loop_
_atom_site_label
_atom_site_type_symbol
_atom_site_fract_x
_atom_site_fract_y
_atom_site_fract_z
_atom_site_charge
Fe	Fe	0.37769 0.08495 0.13311 1.16600
Fe	Fe	0.42585 0.10227 0.68692 1.18000
O 	O 	0.43470 0.20720 0.24557 -0.57000
O 	O 	0.55070 0.07030 0.36766 -0.47600
O 	O 	0.59210 0.00320 0.22000 -0.68000
O 	O 	0.67940 0.00300 0.13866 -0.55100
O 	O 	0.45440 0.26300 0.10685 -0.53000
O 	O 	0.48130 0.21120 0.99907 -0.33800
O 	O 	0.34610 0.92130 0.19641 -0.51300
O 	O 	0.10220 0.89850 0.12094 -0.45600
O 	O 	0.33730 0.97540 0.02366 -0.56600
O 	O 	0.11490 0.89020 0.96761 -0.45000
O 	O 	0.15890 0.15780 0.05939 -0.60100
O 	O 	0.19960 0.38170 0.09078 -0.47200
C 	C 	0.49490 0.17980 0.32880 0.48800
H 	H 	0.49700 0.25090 0.36460 -0.11600
C 	C 	0.69520 0.99110 0.21130 0.72800
H 	H 	0.79130 0.97140 0.26460 -0.13700
C 	C 	0.47310 0.29290 0.04680 0.34700
H 	H 	0.48140 0.38680 0.03810 -0.07600
C 	C 	0.23260 0.87430 0.18640 0.47300
H 	H 	0.24870 0.81570 0.23270 -0.11800
C 	C 	0.22510 0.89760 0.97010 0.57800
H 	H 	0.22830 0.84130 0.92930 -0.12100
C 	C 	0.11680 0.28310 0.04950 0.46800
H 	H 	0.01440 0.30110 0.00730 -0.16500
Fe	Fe	0.62231 0.58495 0.36689 1.19900
Fe	Fe	0.57415 0.60227 0.81308 1.21400
O 	O 	0.56530 0.70720 0.25443 -0.55200
O 	O 	0.44930 0.57030 0.13234 -0.45600
O 	O 	0.40790 0.50320 0.28000 -0.55800
O 	O 	0.32060 0.50300 0.36134 -0.44600
O 	O 	0.54560 0.76300 0.39315 -0.54000
O 	O 	0.51870 0.71120 0.50093 -0.42200
O 	O 	0.65390 0.42130 0.30359 -0.53500
O 	O 	0.89780 0.39850 0.37906 -0.37000
O 	O 	0.66270 0.47540 0.47634 -0.53400
O 	O 	0.88510 0.39020 0.53239 -0.38300
O 	O 	0.84110 0.65780 0.44061 -0.49000
O 	O 	0.80040 0.88170 0.40922 -0.37500
C 	C 	0.50510 0.67980 0.17120 0.48300
H 	H 	0.50300 0.75090 0.13540 -0.10700
C 	C 	0.30480 0.49110 0.28870 0.48000
H 	H 	0.20870 0.47140 0.23540 -0.12600
C 	C 	0.52690 0.79290 0.45320 0.47800
H 	H 	0.51860 0.88680 0.46190 -0.07100
C 	C 	0.76740 0.37430 0.31360 0.45800
H 	H 	0.75130 0.31570 0.26730 -0.09900
C 	C 	0.77490 0.39760 0.52990 0.46300
H 	H 	0.77170 0.34130 0.57070 -0.07900
C 	C 	0.88320 0.78310 0.45050 0.43300
H 	H 	0.98560 0.80110 0.49270 -0.01800
Fe	Fe	0.62231 0.91505 0.86689 1.22700
Fe	Fe	0.57415 0.89773 0.31308 1.24200
O 	O 	0.56530 0.79280 0.75443 -0.54400
O 	O 	0.44930 0.92970 0.63234 -0.40000
O 	O 	0.40790 0.99680 0.78000 -0.42000
O 	O 	0.32060 0.99700 0.86134 -0.28400
O 	O 	0.54560 0.73700 0.89315 -0.56100
O 	O 	0.51870 0.78880 0.00093 -0.49200
O 	O 	0.65390 0.07870 0.80359 -0.56000
O 	O 	0.89780 0.10150 0.87906 -0.35400
O 	O 	0.66270 0.02460 0.97634 -0.47800
O 	O 	0.88510 0.10980 0.03239 -0.38700
O 	O 	0.84110 0.84220 0.94061 -0.44000
O 	O 	0.80040 0.61830 0.90922 -0.38200
C 	C 	0.50510 0.82020 0.67120 0.47600
H 	H 	0.50300 0.74910 0.63540 -0.10100
C 	C 	0.30480 0.00890 0.78870 0.21700
H 	H 	0.20870 0.02860 0.73540 -0.05900
C 	C 	0.52690 0.70710 0.95320 0.59500
H 	H 	0.51860 0.61320 0.96190 -0.11000
C 	C 	0.76740 0.12570 0.81360 0.45800
H 	H 	0.75130 0.18430 0.76730 -0.09400
C 	C 	0.77490 0.10240 0.02990 0.34100
H 	H 	0.77170 0.15870 0.07070 -0.05400
C 	C 	0.88320 0.71690 0.95050 0.42500
H 	H 	0.98560 0.69890 0.99270 -0.00200
Fe	Fe	0.37769 0.41505 0.63311 1.19800
Fe	Fe	0.42585 0.39773 0.18692 1.20800
O 	O 	0.43470 0.29280 0.74557 -0.56000
O 	O 	0.55070 0.42970 0.86766 -0.41900
O 	O 	0.59210 0.49680 0.72000 -0.54200
O 	O 	0.67940 0.49700 0.63866 -0.41100
O 	O 	0.45440 0.23700 0.60685 -0.55800
O 	O 	0.48130 0.28880 0.49907 -0.44300
O 	O 	0.34610 0.57870 0.69641 -0.55000
O 	O 	0.10220 0.60150 0.62094 -0.47600
O 	O 	0.33730 0.52460 0.52366 -0.55400
O 	O 	0.11490 0.60980 0.46761 -0.49000
O 	O 	0.15890 0.34220 0.55939 -0.56600
O 	O 	0.19960 0.11830 0.59078 -0.48300
C 	C 	0.49490 0.32020 0.82880 0.48100
H 	H 	0.49700 0.24910 0.86460 -0.10700
C 	C 	0.69520 0.50890 0.71130 0.46600
H 	H 	0.79130 0.52860 0.76460 -0.06900
C 	C 	0.47310 0.20710 0.54680 0.48500
H 	H 	0.48140 0.11320 0.53810 -0.12100
C 	C 	0.23260 0.62570 0.68640 0.48400
H 	H 	0.24870 0.68430 0.73270 -0.11700
C 	C 	0.22510 0.60240 0.47010 0.49000
H 	H 	0.22830 0.65870 0.42930 -0.11100
C 	C 	0.11680 0.21690 0.54950 0.46700
H 	H 	0.01440 0.19890 0.50730 -0.15300
Fe	Fe	0.50000 0.00000 -0.00000 1.14600
Fe	Fe	0.50000 0.50000 0.50000 1.22800
Fe	Fe	-0.00000 0.00000 -0.00000 1.09800
Fe	Fe	-0.00000 0.50000 0.50000 1.18100
