data_crystal

_cell_length_a 5.74670
_cell_length_b 17.96310
_cell_length_c 20.39440
_cell_angle_alpha 90.00000
_cell_angle_beta  90.00000
_cell_angle_gamma 90.00000

_symmetry_space_group_name_	'P 1'
_symmetry_space_group_name_H-M	'P 1'

loop_
_symmetry_equiv_pos_as_xyz
  x,y,z

loop_
_atom_site_label
_atom_site_type_symbol
_atom_site_fract_x
_atom_site_fract_y
_atom_site_fract_z
_atom_site_charge
Cu	Cu	0.14423 0.99617 0.70849 0.91100
Cu	Cu	0.35577 0.00383 0.20849 0.91200
Cu	Cu	0.64423 0.50383 0.29151 0.91200
Cu	Cu	0.85577 0.49617 0.79151 0.91200
H 	H 	0.97200 0.13320 0.06540 0.11100
H 	H 	0.47200 0.36680 0.93460 0.11700
H 	H 	0.29780 0.16520 0.27610 0.07100
H 	H 	0.08720 0.71680 0.73910 0.06800
H 	H 	0.41280 0.28320 0.23910 0.06900
H 	H 	0.20220 0.83480 0.77610 0.07000
H 	H 	0.70220 0.66520 0.22390 0.07000
H 	H 	0.68980 0.93840 0.94250 0.28600
H 	H 	0.82630 0.27950 0.66520 0.08100
H 	H 	0.00350 0.65840 0.14270 0.07600
H 	H 	0.37100 0.37600 0.12860 0.10900
H 	H 	0.99650 0.15840 0.35730 0.07600
H 	H 	0.23870 0.55490 0.19480 0.02800
H 	H 	0.17370 0.77950 0.83480 0.08100
H 	H 	0.11460 0.46400 0.37360 0.02400
H 	H 	0.31020 0.43840 0.55750 0.28600
H 	H 	0.35260 0.14140 0.77510 0.01800
H 	H 	0.07140 0.34750 0.85550 0.03200
H 	H 	0.91150 0.23660 0.33310 0.07300
H 	H 	0.52800 0.86680 0.56540 0.11700
H 	H 	0.32680 0.73960 0.70810 0.07700
H 	H 	0.81020 0.06160 0.44250 0.28600
H 	H 	0.14740 0.85860 0.27510 0.01800
H 	H 	0.32630 0.22050 0.33480 0.08000
H 	H 	0.91280 0.21680 0.76090 0.06800
H 	H 	0.61460 0.03600 0.62640 0.02400
H 	H 	0.92860 0.84750 0.64450 0.03200
H 	H 	0.67320 0.23960 0.79190 0.07700
H 	H 	0.12900 0.62400 0.62860 0.10800
H 	H 	0.64740 0.64140 0.72490 0.01800
H 	H 	0.18980 0.56160 0.05750 0.28600
H 	H 	0.42860 0.65250 0.35550 0.03100
H 	H 	0.76130 0.05490 0.30520 0.02700
H 	H 	0.57140 0.15250 0.14450 0.03100
H 	H 	0.82680 0.76040 0.29190 0.07800
H 	H 	0.58720 0.78320 0.26090 0.06900
H 	H 	0.50350 0.84160 0.85730 0.07500
H 	H 	0.58850 0.76340 0.83310 0.07200
H 	H 	0.87100 0.12400 0.87140 0.10800
H 	H 	0.85260 0.35860 0.22490 0.01800
H 	H 	0.02800 0.63320 0.43460 0.11000
H 	H 	0.88540 0.96400 0.12640 0.02400
H 	H 	0.08850 0.73660 0.16690 0.07300
H 	H 	0.67370 0.72050 0.16520 0.08100
H 	H 	0.49650 0.34160 0.64270 0.07500
H 	H 	0.73870 0.94510 0.80520 0.02700
H 	H 	0.41150 0.26340 0.66690 0.07200
H 	H 	0.26130 0.44510 0.69480 0.02700
H 	H 	0.62900 0.87600 0.37140 0.10900
H 	H 	0.38540 0.53600 0.87360 0.02400
H 	H 	0.79780 0.33480 0.72390 0.07000
H 	H 	0.17320 0.26040 0.20810 0.07800
C 	C 	0.05260 0.60643 0.59151 -0.10000
C 	C 	0.51280 0.80910 0.81936 -0.05300
C 	C 	0.11610 0.05116 0.90293 0.01500
C 	C 	0.26670 0.97377 0.45924 -0.06100
C 	C 	0.39540 0.96024 0.95558 0.38800
C 	C 	0.30040 0.03224 0.08203 0.29100
C 	C 	0.05160 0.87352 0.24079 0.09700
C 	C 	0.60520 0.86528 0.46933 0.15200
C 	C 	0.24290 0.41079 0.72854 0.08200
C 	C 	0.83940 0.51853 0.66372 0.28500
C 	C 	0.76790 0.70912 0.20339 -0.09500
C 	C 	0.33940 0.98147 0.33628 0.28500
C 	C 	0.17880 0.05796 0.02018 0.01500
C 	C 	0.19960 0.96776 0.58203 0.28900
C 	C 	0.90580 0.92974 0.16010 0.09000
C 	C 	0.85790 0.85670 0.68474 0.09000
C 	C 	0.23330 0.02623 0.95924 -0.05600
C 	C 	0.88390 0.55116 0.59707 0.01600
C 	C 	0.60460 0.46024 0.54442 0.39100
C 	C 	0.98720 0.19090 0.31936 -0.05500
C 	C 	0.59420 0.07026 0.66010 0.08900
C 	C 	0.25710 0.58921 0.22854 0.08200
C 	C 	0.16060 0.01853 0.83628 0.28700
C 	C 	0.66060 0.48147 0.16372 0.28500
C 	C 	0.82120 0.55796 0.47982 0.01800
C 	C 	0.44740 0.39357 0.09151 -0.10000
C 	C 	0.75030 0.22641 0.75121 -0.05400
C 	C 	0.73210 0.29088 0.70339 -0.09600
C 	C 	0.32120 0.94204 0.52018 0.02200
C 	C 	0.94740 0.10643 0.90849 -0.10000
C 	C 	0.50860 0.38770 0.97500 -0.10400
C 	C 	0.35790 0.64330 0.31526 0.09000
C 	C 	0.69960 0.53224 0.41797 0.29200
C 	C 	0.24970 0.72641 0.74879 -0.05400
C 	C 	0.26790 0.79088 0.79661 -0.09600
C 	C 	0.55260 0.89357 0.40849 -0.10000
C 	C 	0.14210 0.35670 0.81526 0.09000
C 	C 	0.25030 0.27359 0.24879 -0.05500
C 	C 	0.67880 0.44204 0.97982 0.02100
C 	C 	0.73330 0.47377 0.04076 -0.06100
C 	C 	0.89480 0.13472 0.96933 0.14500
C 	C 	0.75710 0.91079 0.77146 0.08200
C 	C 	0.39480 0.36528 0.03067 0.15100
C 	C 	0.49140 0.88770 0.52500 -0.10500
C 	C 	0.74290 0.08921 0.27146 0.08200
C 	C 	0.64210 0.14330 0.18474 0.09000
C 	C 	0.99140 0.61230 0.47500 -0.09300
C 	C 	0.00860 0.11230 0.02500 -0.09200
C 	C 	0.40580 0.57026 0.83990 0.08900
C 	C 	0.94840 0.37352 0.25921 0.09700
C 	C 	0.80040 0.46776 0.91797 0.29100
C 	C 	0.55160 0.62648 0.75921 0.09900
C 	C 	0.10460 0.03976 0.45558 0.38900
C 	C 	0.01280 0.69090 0.18064 -0.05400
C 	C 	0.44840 0.12648 0.74079 0.09900
C 	C 	0.74970 0.77359 0.25121 -0.05500
C 	C 	0.76670 0.52623 0.54076 -0.06000
C 	C 	0.61610 0.44884 0.09707 0.01400
C 	C 	0.10520 0.63472 0.53067 0.14500
C 	C 	0.38390 0.94884 0.40293 0.01500
C 	C 	0.09420 0.42974 0.33990 0.08900
C 	C 	0.23210 0.20912 0.29661 -0.09400
C 	C 	0.89540 0.53976 0.04442 0.38800
C 	C 	0.48720 0.30910 0.68064 -0.05300
N 	N 	0.09290 0.93107 0.20135 -0.21500
N 	N 	0.14370 0.34094 0.27577 -0.08500
N 	N 	0.59290 0.56893 0.79865 -0.21500
N 	N 	0.85630 0.84094 0.22423 -0.08500
N 	N 	0.11080 0.42110 0.78148 -0.21600
N 	N 	0.20270 0.31146 0.02616 -0.01200
N 	N 	0.38920 0.57890 0.28148 -0.21700
N 	N 	0.15650 0.65491 0.23080 -0.08700
N 	N 	0.29730 0.68854 0.52616 -0.01000
N 	N 	0.27970 0.30861 0.78665 -0.08700
N 	N 	0.65650 0.84509 0.76920 -0.08700
N 	N 	0.40710 0.06893 0.70135 -0.21500
N 	N 	0.22030 0.69139 0.28665 -0.08800
N 	N 	0.25800 0.62383 0.82793 -0.09400
N 	N 	0.90710 0.43107 0.29865 -0.21500
N 	N 	0.79730 0.81146 0.47384 -0.01100
N 	N 	0.72030 0.80861 0.71335 -0.08700
N 	N 	0.84350 0.15491 0.26920 -0.08700
N 	N 	0.75800 0.87617 0.17207 -0.09400
N 	N 	0.35630 0.65906 0.77577 -0.08600
N 	N 	0.88920 0.92110 0.71852 -0.21600
N 	N 	0.70270 0.18854 0.97384 -0.01000
N 	N 	0.24200 0.37617 0.32793 -0.09400
N 	N 	0.74200 0.12383 0.67207 -0.09400
N 	N 	0.77970 0.19139 0.21335 -0.08800
N 	N 	0.64370 0.15906 0.72423 -0.08600
N 	N 	0.61080 0.07890 0.21852 -0.21700
N 	N 	0.34350 0.34509 0.73080 -0.08700
O 	O 	0.04280 0.01388 0.57933 -0.27300
O 	O 	0.37610 0.70241 0.47180 -0.09600
O 	O 	0.22220 0.05970 0.13547 -0.36900
O 	O 	0.45720 0.98612 0.07933 -0.27200
O 	O 	0.62800 0.21599 0.92360 -0.10500
O 	O 	0.17580 0.10288 0.46332 -0.26500
O 	O 	0.45840 0.95346 0.28904 -0.36500
O 	O 	0.12390 0.29759 0.97180 -0.09400
O 	O 	0.32420 0.89712 0.96332 -0.26500
O 	O 	0.61250 0.97677 0.94387 -0.45500
O 	O 	0.12800 0.28401 0.07640 -0.10300
O 	O 	0.72220 0.44030 0.86453 -0.37000
O 	O 	0.11250 0.52323 0.05613 -0.45300
O 	O 	0.95840 0.54654 0.71096 -0.36500
O 	O 	0.80130 0.53235 0.17106 -0.28800
O 	O 	0.87610 0.79759 0.52820 -0.09400
O 	O 	0.37200 0.71599 0.57640 -0.10500
O 	O 	0.04160 0.04654 0.78904 -0.36500
O 	O 	0.77780 0.55970 0.36453 -0.36900
O 	O 	0.19870 0.03235 0.32894 -0.28900
O 	O 	0.27780 0.94030 0.63547 -0.36900
O 	O 	0.82420 0.60288 0.03668 -0.26400
O 	O 	0.95720 0.51388 0.92067 -0.27400
O 	O 	0.54280 0.48612 0.42067 -0.27300
O 	O 	0.67580 0.39712 0.53668 -0.26500
O 	O 	0.62390 0.20241 0.02820 -0.09700
O 	O 	0.54160 0.45346 0.21096 -0.36600
O 	O 	0.30130 0.96765 0.82894 -0.29000
O 	O 	0.38750 0.47677 0.55613 -0.45600
O 	O 	0.69870 0.46765 0.67106 -0.28800
O 	O 	0.88750 0.02323 0.44387 -0.45400
O 	O 	0.87200 0.78401 0.42360 -0.10300
