data_crystal

_cell_length_a 10.69740
_cell_length_b 37.26800
_cell_length_c 9.40580
_cell_angle_alpha 90.00000
_cell_angle_beta  101.26300
_cell_angle_gamma 90.00000

_symmetry_space_group_name_	'P 1'
_symmetry_space_group_name_H-M	'P 1'

loop_
_symmetry_equiv_pos_as_xyz
  x,y,z

loop_
_atom_site_label
_atom_site_type_symbol
_atom_site_fract_x
_atom_site_fract_y
_atom_site_fract_z
_atom_site_charge
Cd	Cd	0.85184 0.63296 0.25834 1.13300
C 	C 	0.82830 0.71215 0.40940 -0.00400
H 	H 	0.75580 0.71740 0.34040 0.00400
C 	C 	0.88560 0.73492 0.51460 0.00200
H 	H 	0.86010 0.75820 0.53080 0.03200
C 	C 	0.98800 0.68405 0.53050 0.08600
H 	H 	0.04780 0.66630 0.56250 -0.04000
C 	C 	0.07860 0.73028 0.71260 0.11700
C 	C 	0.09780 0.76694 0.73070 -0.12300
H 	H 	0.04880 0.78300 0.66730 0.05800
C 	C 	0.19000 0.77948 0.84360 -0.01100
H 	H 	0.20090 0.80410 0.85700 0.01100
C 	C 	0.26700 0.75606 0.93770 -0.01100
C 	C 	0.24310 0.71961 0.92080 -0.01000
H 	H 	0.29120 0.70350 0.98470 0.02300
C 	C 	0.14960 0.70681 0.81120 -0.12300
H 	H 	0.13380 0.68230 0.80300 0.06400
C 	C 	0.69940 0.81716 0.48760 0.08200
H 	H 	0.63390 0.81260 0.53720 -0.03100
C 	C 	0.87840 0.83304 0.43740 -0.00900
H 	H 	0.96140 0.84150 0.44790 -0.00200
C 	C 	0.80750 0.82093 0.31300 -0.00600
H 	H 	0.83140 0.81990 0.22320 0.02600
C 	C 	0.58560 0.79616 0.24420 0.11400
C 	C 	0.54150 0.81486 0.11820 -0.12800
H 	H 	0.58140 0.83590 0.09830 0.05400
C 	C 	0.43720 0.80183 0.02150 -0.01700
H 	H 	0.40630 0.81470 0.93710 0.01600
C 	C 	0.37690 0.76995 0.04690 -0.01100
C 	C 	0.42750 0.75116 0.17260 -0.01000
H 	H 	0.39230 0.72920 0.19070 0.02800
C 	C 	0.52980 0.76479 0.27140 -0.13200
H 	H 	0.56060 0.75240 0.35690 0.07500
C 	C 	0.74600 0.55392 0.10890 -0.01100
H 	H 	0.69010 0.55060 0.17200 -0.00800
C 	C 	0.75740 0.53179 0.99840 -0.00100
H 	H 	0.71260 0.51060 0.97300 0.01900
C 	C 	0.88920 0.57666 0.00660 0.08900
H 	H 	0.95250 0.59160 0.98490 -0.04000
C 	C 	0.89080 0.53312 0.80680 0.13200
C 	C 	0.90700 0.55564 0.69910 -0.16500
H 	H 	0.88930 0.57990 0.70580 0.06300
C 	C 	0.94970 0.54291 0.57950 0.01100
H 	H 	0.96030 0.55890 0.50680 -0.02200
C 	C 	0.97740 0.50684 0.56450 -0.03400
C 	C 	0.95700 0.48433 0.67460 0.01100
H 	H 	0.97180 0.45990 0.66730 -0.00400
C 	C 	0.91510 0.49714 0.79590 -0.15400
H 	H 	0.90370 0.48150 0.86930 0.07900
N 	N 	0.89280 0.68040 0.41960 -0.26900
N 	N 	0.98840 0.71691 0.59240 -0.14300
N 	N 	0.81030 0.83103 0.54710 -0.25100
N 	N 	0.69270 0.81033 0.34430 -0.14300
N 	N 	0.82940 0.58211 0.11390 -0.26700
N 	N 	0.84730 0.54649 0.93100 -0.14900
Cd	Cd	0.14816 0.13296 0.24166 1.13300
C 	C 	0.17170 0.21215 0.09060 -0.00700
H 	H 	0.24420 0.21740 0.15960 0.00400
C 	C 	0.11440 0.23492 0.98540 0.00400
H 	H 	0.13990 0.25820 0.96920 0.03100
C 	C 	0.01200 0.18405 0.96950 0.08800
H 	H 	0.95220 0.16630 0.93750 -0.04100
C 	C 	0.92140 0.23028 0.78740 0.11700
C 	C 	0.90220 0.26694 0.76930 -0.12200
H 	H 	0.95120 0.28300 0.83270 0.05800
C 	C 	0.81000 0.27948 0.65640 -0.01100
H 	H 	0.79910 0.30410 0.64300 0.01100
C 	C 	0.73300 0.25606 0.56230 -0.00900
C 	C 	0.75690 0.21961 0.57920 -0.01000
H 	H 	0.70880 0.20350 0.51530 0.02300
C 	C 	0.85040 0.20681 0.68880 -0.12300
H 	H 	0.86620 0.18230 0.69700 0.06400
C 	C 	0.30060 0.31716 0.01240 0.07900
H 	H 	0.36610 0.31260 0.96280 -0.02900
C 	C 	0.12160 0.33304 0.06260 -0.01000
H 	H 	0.03860 0.34150 0.05210 -0.00200
C 	C 	0.19250 0.32093 0.18700 -0.00500
H 	H 	0.16860 0.31990 0.27680 0.02600
C 	C 	0.41440 0.29616 0.25580 0.11300
C 	C 	0.45850 0.31486 0.38180 -0.12600
H 	H 	0.41860 0.33590 0.40170 0.05300
C 	C 	0.56280 0.30183 0.47850 -0.02000
H 	H 	0.59370 0.31470 0.56290 0.01800
C 	C 	0.62310 0.26995 0.45310 -0.01100
C 	C 	0.57250 0.25116 0.32740 -0.01100
H 	H 	0.60770 0.22920 0.30930 0.02800
C 	C 	0.47020 0.26479 0.22860 -0.13100
H 	H 	0.43940 0.25240 0.14310 0.07500
C 	C 	0.25400 0.05392 0.39110 -0.01100
H 	H 	0.30990 0.05060 0.32800 -0.00800
C 	C 	0.24260 0.03179 0.50160 0.00000
H 	H 	0.28740 0.01060 0.52700 0.01900
C 	C 	0.11080 0.07666 0.49340 0.08700
H 	H 	0.04750 0.09160 0.51510 -0.03900
C 	C 	0.10920 0.03312 0.69320 0.13200
C 	C 	0.09300 0.05564 0.80090 -0.16500
H 	H 	0.11070 0.07990 0.79420 0.06300
C 	C 	0.05030 0.04291 0.92050 0.01100
H 	H 	0.03970 0.05890 0.99320 -0.02200
C 	C 	0.02260 0.00684 0.93550 -0.03400
C 	C 	0.04300 0.98433 0.82540 0.01100
H 	H 	0.02820 0.95990 0.83270 -0.00400
C 	C 	0.08490 0.99714 0.70410 -0.15400
H 	H 	0.09630 0.98150 0.63070 0.07900
N 	N 	0.10720 0.18040 0.08040 -0.27000
N 	N 	0.01160 0.21691 0.90760 -0.14300
N 	N 	0.18970 0.33103 0.95290 -0.25000
N 	N 	0.30730 0.31033 0.15570 -0.14300
N 	N 	0.17060 0.08211 0.38610 -0.26700
N 	N 	0.15270 0.04649 0.56900 -0.14900
Cd	Cd	0.14816 0.36704 0.74166 1.13300
C 	C 	0.17170 0.28785 0.59060 -0.00400
H 	H 	0.24420 0.28260 0.65960 0.00400
C 	C 	0.11440 0.26508 0.48540 0.00200
H 	H 	0.13990 0.24180 0.46920 0.03200
C 	C 	0.01200 0.31595 0.46950 0.08600
H 	H 	0.95220 0.33370 0.43750 -0.04000
C 	C 	0.92140 0.26972 0.28740 0.11700
C 	C 	0.90220 0.23306 0.26930 -0.12300
H 	H 	0.95120 0.21700 0.33270 0.05800
C 	C 	0.81000 0.22052 0.15640 -0.01100
H 	H 	0.79910 0.19590 0.14300 0.01100
C 	C 	0.73300 0.24394 0.06230 -0.01100
C 	C 	0.75690 0.28039 0.07920 -0.01000
H 	H 	0.70880 0.29650 0.01530 0.02300
C 	C 	0.85040 0.29319 0.18880 -0.12300
H 	H 	0.86620 0.31770 0.19700 0.06400
C 	C 	0.30060 0.18284 0.51240 0.08200
H 	H 	0.36610 0.18740 0.46280 -0.03100
C 	C 	0.12160 0.16696 0.56260 -0.00900
H 	H 	0.03860 0.15850 0.55210 -0.00200
C 	C 	0.19250 0.17907 0.68700 -0.00600
H 	H 	0.16860 0.18010 0.77680 0.02600
C 	C 	0.41440 0.20384 0.75580 0.11400
C 	C 	0.45850 0.18514 0.88180 -0.12800
H 	H 	0.41860 0.16410 0.90170 0.05400
C 	C 	0.56280 0.19817 0.97850 -0.01700
H 	H 	0.59370 0.18530 0.06290 0.01600
C 	C 	0.62310 0.23005 0.95310 -0.01100
C 	C 	0.57250 0.24884 0.82740 -0.01000
H 	H 	0.60770 0.27080 0.80930 0.02800
C 	C 	0.47020 0.23521 0.72860 -0.13200
H 	H 	0.43940 0.24760 0.64310 0.07500
C 	C 	0.25400 0.44608 0.89110 -0.01100
H 	H 	0.30990 0.44940 0.82800 -0.00800
C 	C 	0.24260 0.46821 0.00160 -0.00100
H 	H 	0.28740 0.48940 0.02700 0.01900
C 	C 	0.11080 0.42334 0.99340 0.08900
H 	H 	0.04750 0.40840 0.01510 -0.04000
C 	C 	0.10920 0.46688 0.19320 0.13200
C 	C 	0.09300 0.44436 0.30090 -0.16500
H 	H 	0.11070 0.42010 0.29420 0.06300
C 	C 	0.05030 0.45709 0.42050 0.01100
H 	H 	0.03970 0.44110 0.49320 -0.02200
C 	C 	0.02260 0.49316 0.43550 -0.03400
C 	C 	0.04300 0.51567 0.32540 0.01100
H 	H 	0.02820 0.54010 0.33270 -0.00400
C 	C 	0.08490 0.50286 0.20410 -0.15400
H 	H 	0.09630 0.51850 0.13070 0.07900
N 	N 	0.10720 0.31960 0.58040 -0.26900
N 	N 	0.01160 0.28309 0.40760 -0.14300
N 	N 	0.18970 0.16897 0.45290 -0.25100
N 	N 	0.30730 0.18967 0.65570 -0.14300
N 	N 	0.17060 0.41789 0.88610 -0.26700
N 	N 	0.15270 0.45351 0.06900 -0.14900
Cd	Cd	0.85184 0.86704 0.75834 1.13300
C 	C 	0.82830 0.78785 0.90940 -0.00700
H 	H 	0.75580 0.78260 0.84040 0.00400
C 	C 	0.88560 0.76508 0.01460 0.00400
H 	H 	0.86010 0.74180 0.03080 0.03100
C 	C 	0.98800 0.81595 0.03050 0.08800
H 	H 	0.04780 0.83370 0.06250 -0.04100
C 	C 	0.07860 0.76972 0.21260 0.11700
C 	C 	0.09780 0.73306 0.23070 -0.12200
H 	H 	0.04880 0.71700 0.16730 0.05800
C 	C 	0.19000 0.72052 0.34360 -0.01100
H 	H 	0.20090 0.69590 0.35700 0.01100
C 	C 	0.26700 0.74394 0.43770 -0.00900
C 	C 	0.24310 0.78039 0.42080 -0.01000
H 	H 	0.29120 0.79650 0.48470 0.02300
C 	C 	0.14960 0.79319 0.31120 -0.12300
H 	H 	0.13380 0.81770 0.30300 0.06400
C 	C 	0.69940 0.68284 0.98760 0.07900
H 	H 	0.63390 0.68740 0.03720 -0.02900
C 	C 	0.87840 0.66696 0.93740 -0.01000
H 	H 	0.96140 0.65850 0.94790 -0.00200
C 	C 	0.80750 0.67907 0.81300 -0.00500
H 	H 	0.83140 0.68010 0.72320 0.02600
C 	C 	0.58560 0.70384 0.74420 0.11300
C 	C 	0.54150 0.68514 0.61820 -0.12600
H 	H 	0.58140 0.66410 0.59830 0.05300
C 	C 	0.43720 0.69817 0.52150 -0.02000
H 	H 	0.40630 0.68530 0.43710 0.01800
C 	C 	0.37690 0.73005 0.54690 -0.01100
C 	C 	0.42750 0.74884 0.67260 -0.01100
H 	H 	0.39230 0.77080 0.69070 0.02800
C 	C 	0.52980 0.73521 0.77140 -0.13100
H 	H 	0.56060 0.74760 0.85690 0.07500
C 	C 	0.74600 0.94608 0.60890 -0.01100
H 	H 	0.69010 0.94940 0.67200 -0.00800
C 	C 	0.75740 0.96821 0.49840 0.00000
H 	H 	0.71260 0.98940 0.47300 0.01900
C 	C 	0.88920 0.92334 0.50660 0.08700
H 	H 	0.95250 0.90840 0.48490 -0.03900
C 	C 	0.89080 0.96688 0.30680 0.13200
C 	C 	0.90700 0.94436 0.19910 -0.16500
H 	H 	0.88930 0.92010 0.20580 0.06300
C 	C 	0.94970 0.95709 0.07950 0.01100
H 	H 	0.96030 0.94110 0.00680 -0.02200
C 	C 	0.97740 0.99316 0.06450 -0.03400
C 	C 	0.95700 0.01567 0.17460 0.01100
H 	H 	0.97180 0.04010 0.16730 -0.00400
C 	C 	0.91510 0.00286 0.29590 -0.15400
H 	H 	0.90370 0.01850 0.36930 0.07900
N 	N 	0.89280 0.81960 0.91960 -0.27000
N 	N 	0.98840 0.78309 0.09240 -0.14300
N 	N 	0.81030 0.66897 0.04710 -0.25000
N 	N 	0.69270 0.68967 0.84430 -0.14300
N 	N 	0.82940 0.91789 0.61390 -0.26700
N 	N 	0.84730 0.95351 0.43100 -0.14900
