data_crystal

_cell_length_a 14.71000
_cell_length_b 15.09100
_cell_length_c 15.09100
_cell_angle_alpha 120.00000
_cell_angle_beta  90.00000
_cell_angle_gamma 90.00000

_symmetry_space_group_name_	'P 1'
_symmetry_space_group_name_H-M	'P 1'

loop_
_symmetry_equiv_pos_as_xyz
  x,y,z

loop_
_atom_site_label
_atom_site_type_symbol
_atom_site_fract_x
_atom_site_fract_y
_atom_site_fract_z
_atom_site_charge
Nd	Nd	0.75000 0.33333 0.66666 2.49000
Nd	Nd	0.75000 0.66667 0.33334 2.49000
Nd	Nd	0.25000 0.66667 0.33334 2.46300
Nd	Nd	0.25000 0.33333 0.66666 2.46300
Cu	Cu	0.50000 0.50000 -0.00000 0.91400
Cu	Cu	0.50000 0.50000 0.50000 0.95000
Cu	Cu	0.50000 0.00000 0.50000 0.91400
Cu	Cu	-0.00000 0.50000 -0.00000 0.85600
Cu	Cu	-0.00000 0.00000 0.50000 0.85600
Cu	Cu	-0.00000 0.50000 0.50000 0.89100
C 	C 	0.70100 0.58700 0.85560 0.07600
C 	C 	0.64060 0.51480 0.87170 0.36300
C 	C 	0.70100 0.26860 0.41300 0.02000
C 	C 	0.64060 0.35690 0.48520 0.37300
C 	C 	0.70100 0.14440 0.73140 0.02800
C 	C 	0.64060 0.12830 0.64310 0.37300
C 	C 	0.70100 0.41300 0.14440 0.00700
C 	C 	0.64060 0.48520 0.12830 0.37500
C 	C 	0.70100 0.73140 0.58700 0.06200
C 	C 	0.64060 0.64310 0.51480 0.36800
C 	C 	0.70100 0.85560 0.26860 0.05500
C 	C 	0.64060 0.87170 0.35690 0.36500
C 	C 	0.79900 0.73140 0.14440 0.04300
C 	C 	0.85940 0.64310 0.12830 0.36700
C 	C 	0.79900 0.85560 0.58700 0.09000
C 	C 	0.85940 0.87170 0.51480 0.35700
C 	C 	0.79900 0.41300 0.26860 0.03500
C 	C 	0.85940 0.48520 0.35690 0.36700
C 	C 	0.79900 0.26860 0.85560 0.06900
C 	C 	0.85940 0.35690 0.87170 0.35900
C 	C 	0.79900 0.14440 0.41300 0.02200
C 	C 	0.85940 0.12830 0.48520 0.36900
C 	C 	0.79900 0.58700 0.73140 0.07700
C 	C 	0.85940 0.51480 0.64310 0.36200
C 	C 	0.29900 0.41300 0.14440 -0.00800
C 	C 	0.35940 0.48520 0.12830 0.37800
C 	C 	0.29900 0.73140 0.58700 0.04700
C 	C 	0.35940 0.64310 0.51480 0.37100
C 	C 	0.29900 0.85560 0.26860 0.04000
C 	C 	0.35940 0.87170 0.35690 0.36800
C 	C 	0.29900 0.58700 0.85560 0.06100
C 	C 	0.35940 0.51480 0.87170 0.36500
C 	C 	0.29900 0.26860 0.41300 0.00500
C 	C 	0.35940 0.35690 0.48520 0.37600
C 	C 	0.29900 0.14440 0.73140 0.01300
C 	C 	0.35940 0.12830 0.64310 0.37600
C 	C 	0.20100 0.26860 0.85560 0.02800
C 	C 	0.14060 0.35690 0.87170 0.36800
C 	C 	0.20100 0.14440 0.41300 -0.02100
C 	C 	0.14060 0.12830 0.48520 0.37900
C 	C 	0.20100 0.58700 0.73140 0.03500
C 	C 	0.14060 0.51480 0.64310 0.37200
C 	C 	0.20100 0.73140 0.14440 0.00100
C 	C 	0.14060 0.64310 0.12830 0.37600
C 	C 	0.20100 0.85560 0.58700 0.04900
C 	C 	0.14060 0.87170 0.51480 0.36600
C 	C 	0.20100 0.41300 0.26860 -0.00800
C 	C 	0.14060 0.48520 0.35690 0.37700
O 	O 	0.64080 0.42150 0.80640 -0.47600
O 	O 	0.59250 0.55680 0.95030 -0.33800
O 	O 	0.64080 0.38490 0.57850 -0.49100
O 	O 	0.59250 0.39350 0.44320 -0.39200
O 	O 	0.64080 0.19360 0.61510 -0.49800
O 	O 	0.59250 0.04970 0.60650 -0.41100
O 	O 	0.64080 0.57850 0.19360 -0.50000
O 	O 	0.59250 0.44320 0.04970 -0.41800
O 	O 	0.64080 0.61510 0.42150 -0.48800
O 	O 	0.59250 0.60650 0.55680 -0.37800
O 	O 	0.64080 0.80640 0.38490 -0.47800
O 	O 	0.59250 0.95030 0.39350 -0.34500
O 	O 	0.85920 0.61510 0.19360 -0.46800
O 	O 	0.90750 0.60650 0.04970 -0.35200
O 	O 	0.85920 0.80640 0.42150 -0.44700
O 	O 	0.90750 0.95030 0.55680 -0.28100
O 	O 	0.85920 0.57850 0.38490 -0.46200
O 	O 	0.90750 0.44320 0.39350 -0.33300
O 	O 	0.85920 0.38490 0.80640 -0.44900
O 	O 	0.90750 0.39350 0.95030 -0.28800
O 	O 	0.85920 0.19360 0.57850 -0.47000
O 	O 	0.90750 0.04970 0.44320 -0.35900
O 	O 	0.85920 0.42150 0.61510 -0.45900
O 	O 	0.90750 0.55680 0.60650 -0.31900
O 	O 	0.35920 0.57850 0.19360 -0.49800
O 	O 	0.40750 0.44320 0.04970 -0.42000
O 	O 	0.35920 0.61510 0.42150 -0.48600
O 	O 	0.40750 0.60650 0.55680 -0.38000
O 	O 	0.35920 0.80640 0.38490 -0.47600
O 	O 	0.40750 0.95030 0.39350 -0.34600
O 	O 	0.35920 0.42150 0.80640 -0.47400
O 	O 	0.40750 0.55680 0.95030 -0.33900
O 	O 	0.35920 0.38490 0.57850 -0.48900
O 	O 	0.40750 0.39350 0.44320 -0.39400
O 	O 	0.35920 0.19360 0.61510 -0.49600
O 	O 	0.40750 0.04970 0.60650 -0.41300
O 	O 	0.14080 0.38490 0.80640 -0.49800
O 	O 	0.09250 0.39350 0.95030 -0.38000
O 	O 	0.14080 0.19360 0.57850 -0.52000
O 	O 	0.09250 0.04970 0.44320 -0.45400
O 	O 	0.14080 0.42150 0.61510 -0.50900
O 	O 	0.09250 0.55680 0.60650 -0.41400
O 	O 	0.14080 0.61510 0.19360 -0.51800
O 	O 	0.09250 0.60650 0.04970 -0.44700
O 	O 	0.14080 0.80640 0.42150 -0.49600
O 	O 	0.09250 0.95030 0.55680 -0.37300
O 	O 	0.14080 0.57850 0.38490 -0.51200
O 	O 	0.09250 0.44320 0.39350 -0.42800
O 	O 	0.75000 0.52620 0.76310 -0.36600
O 	O 	0.75000 0.23690 0.47380 -0.35900
O 	O 	0.75000 0.23690 0.76310 -0.36200
O 	O 	0.75000 0.47380 0.23690 -0.35900
O 	O 	0.75000 0.76310 0.52620 -0.36600
O 	O 	0.75000 0.76310 0.23690 -0.36300
O 	O 	0.25000 0.47380 0.23690 -0.35400
O 	O 	0.25000 0.76310 0.52620 -0.36200
O 	O 	0.25000 0.76310 0.23690 -0.35800
O 	O 	0.25000 0.52620 0.76310 -0.36200
O 	O 	0.25000 0.23690 0.47380 -0.35400
O 	O 	0.25000 0.23690 0.76310 -0.35800
