data_crystal

_cell_length_a 14.51600
_cell_length_b 14.51600
_cell_length_c 15.27900
_cell_angle_alpha 90.00000
_cell_angle_beta  90.00000
_cell_angle_gamma 120.00000

_symmetry_space_group_name_	'P 1'
_symmetry_space_group_name_H-M	'P 1'

loop_
_symmetry_equiv_pos_as_xyz
  x,y,z

loop_
_atom_site_label
_atom_site_type_symbol
_atom_site_fract_x
_atom_site_fract_y
_atom_site_fract_z
_atom_site_charge
Er	Er	0.66667 0.33334 0.75000 1.90800
Er	Er	0.33333 0.66666 0.75000 1.92900
Er	Er	0.33333 0.66666 0.25000 1.91600
Er	Er	0.66667 0.33334 0.25000 1.89500
Cu	Cu	0.50000 0.50000 0.50000 0.95100
Cu	Cu	1.00000 0.50000 0.50000 0.90500
Cu	Cu	0.50000 0.00000 0.50000 0.90600
Cu	Cu	1.00000 0.50000 -0.00000 0.84800
Cu	Cu	0.50000 0.50000 -0.00000 0.89300
Cu	Cu	0.50000 0.00000 -0.00000 0.84800
C 	C 	0.73710 0.58870 0.69430 0.03300
C 	C 	0.64590 0.51370 0.63810 0.36200
C 	C 	0.85160 0.26290 0.69430 -0.01000
C 	C 	0.86780 0.35410 0.63810 0.36800
C 	C 	0.41130 0.14840 0.69430 0.01900
C 	C 	0.48630 0.13220 0.63810 0.36400
C 	C 	0.26290 0.41130 0.69430 0.05200
C 	C 	0.35410 0.48630 0.63810 0.36200
C 	C 	0.14840 0.73710 0.69430 0.09500
C 	C 	0.13220 0.64590 0.63810 0.35100
C 	C 	0.58870 0.85160 0.69430 0.06600
C 	C 	0.51370 0.86780 0.63810 0.35500
C 	C 	0.14840 0.41130 0.80570 0.08300
C 	C 	0.13220 0.48630 0.86190 0.34900
C 	C 	0.58870 0.73710 0.80570 0.06800
C 	C 	0.51370 0.64590 0.86190 0.35500
C 	C 	0.26290 0.85160 0.80570 0.11100
C 	C 	0.35410 0.86780 0.86190 0.34500
C 	C 	0.85160 0.58870 0.80570 0.03600
C 	C 	0.86780 0.51370 0.86190 0.35700
C 	C 	0.41130 0.26290 0.80570 0.05000
C 	C 	0.48630 0.35410 0.86190 0.35500
C 	C 	0.73710 0.14840 0.80570 0.00800
C 	C 	0.64590 0.13220 0.86190 0.36100
C 	C 	0.26290 0.41130 0.30570 0.04000
C 	C 	0.35410 0.48630 0.36190 0.36500
C 	C 	0.14840 0.73710 0.30570 0.08500
C 	C 	0.13220 0.64590 0.36190 0.35400
C 	C 	0.58870 0.85160 0.30570 0.05500
C 	C 	0.51370 0.86780 0.36190 0.35800
C 	C 	0.73710 0.58870 0.30570 0.02100
C 	C 	0.64590 0.51370 0.36190 0.36400
C 	C 	0.85160 0.26290 0.30570 -0.02300
C 	C 	0.86780 0.35410 0.36190 0.37100
C 	C 	0.41130 0.14840 0.30570 0.00700
C 	C 	0.48630 0.13220 0.36190 0.36600
C 	C 	0.85160 0.58870 0.19430 -0.00800
C 	C 	0.86780 0.51370 0.13810 0.36700
C 	C 	0.41130 0.26290 0.19430 0.00600
C 	C 	0.48630 0.35410 0.13810 0.36500
C 	C 	0.73710 0.14840 0.19430 -0.03700
C 	C 	0.64590 0.13220 0.13810 0.37200
C 	C 	0.14840 0.41130 0.19430 0.04100
C 	C 	0.13220 0.48630 0.13810 0.35900
C 	C 	0.58870 0.73710 0.19430 0.02600
C 	C 	0.51370 0.64590 0.13810 0.36600
C 	C 	0.26290 0.85160 0.19430 0.07100
C 	C 	0.35410 0.86780 0.13810 0.35500
O 	O 	0.61250 0.41560 0.64470 -0.42100
O 	O 	0.61090 0.55690 0.58860 -0.38000
O 	O 	0.80310 0.38750 0.64470 -0.43400
O 	O 	0.94600 0.38910 0.58860 -0.42200
O 	O 	0.58440 0.19690 0.64470 -0.43200
O 	O 	0.44310 0.05400 0.58860 -0.41200
O 	O 	0.38750 0.58440 0.64470 -0.42000
O 	O 	0.38910 0.44310 0.58860 -0.37600
O 	O 	0.19690 0.61250 0.64470 -0.40200
O 	O 	0.05400 0.61090 0.58860 -0.31700
O 	O 	0.41560 0.80310 0.64470 -0.40400
O 	O 	0.55690 0.94600 0.58860 -0.32700
O 	O 	0.19690 0.58440 0.85530 -0.37900
O 	O 	0.05400 0.44310 0.91140 -0.26800
O 	O 	0.41560 0.61250 0.85530 -0.39400
O 	O 	0.55690 0.61090 0.91140 -0.31600
O 	O 	0.38750 0.80310 0.85530 -0.37700
O 	O 	0.38910 0.94600 0.91140 -0.25900
O 	O 	0.80310 0.41560 0.85530 -0.40500
O 	O 	0.94600 0.55690 0.91140 -0.35000
O 	O 	0.58440 0.38750 0.85530 -0.39400
O 	O 	0.44310 0.38910 0.91140 -0.31900
O 	O 	0.61250 0.19690 0.85530 -0.40700
O 	O 	0.61090 0.05400 0.91140 -0.36000
O 	O 	0.38750 0.58440 0.35530 -0.41900
O 	O 	0.38910 0.44310 0.41140 -0.37800
O 	O 	0.19690 0.61250 0.35530 -0.40100
O 	O 	0.05400 0.61090 0.41140 -0.31700
O 	O 	0.41560 0.80310 0.35530 -0.40300
O 	O 	0.55690 0.94600 0.41140 -0.32700
O 	O 	0.61250 0.41560 0.35530 -0.42000
O 	O 	0.61090 0.55690 0.41140 -0.38200
O 	O 	0.80310 0.38750 0.35530 -0.43400
O 	O 	0.94600 0.38910 0.41140 -0.42300
O 	O 	0.58440 0.19690 0.35530 -0.43200
O 	O 	0.44310 0.05400 0.41140 -0.41300
O 	O 	0.80310 0.41560 0.14470 -0.45100
O 	O 	0.94600 0.55690 0.08860 -0.44900
O 	O 	0.58440 0.38750 0.14470 -0.44000
O 	O 	0.44310 0.38910 0.08860 -0.41700
O 	O 	0.61250 0.19690 0.14470 -0.45300
O 	O 	0.61090 0.05400 0.08860 -0.45900
O 	O 	0.19690 0.58440 0.14470 -0.42300
O 	O 	0.05400 0.44310 0.08860 -0.36200
O 	O 	0.41560 0.61250 0.14470 -0.43900
O 	O 	0.55690 0.61090 0.08860 -0.41300
O 	O 	0.38750 0.80310 0.14470 -0.42100
O 	O 	0.38910 0.94600 0.08860 -0.35100
O 	O 	0.76280 0.52560 0.75000 -0.31200
O 	O 	0.76280 0.23720 0.75000 -0.30700
O 	O 	0.47440 0.23720 0.75000 -0.31200
O 	O 	0.23720 0.47440 0.75000 -0.31600
O 	O 	0.23720 0.76280 0.75000 -0.32100
O 	O 	0.52560 0.76280 0.75000 -0.31600
O 	O 	0.23720 0.47440 0.25000 -0.31100
O 	O 	0.23720 0.76280 0.25000 -0.31600
O 	O 	0.52560 0.76280 0.25000 -0.31100
O 	O 	0.76280 0.52560 0.25000 -0.30700
O 	O 	0.76280 0.23720 0.25000 -0.30200
O 	O 	0.47440 0.23720 0.25000 -0.30700
