data_crystal

_cell_length_a 15.87600
_cell_length_b 23.56200
_cell_length_c 12.51400
_cell_angle_alpha 90.00000
_cell_angle_beta  117.77000
_cell_angle_gamma 90.00000

_symmetry_space_group_name_	'P 1'
_symmetry_space_group_name_H-M	'P 1'

loop_
_symmetry_equiv_pos_as_xyz
  x,y,z

loop_
_atom_site_label
_atom_site_type_symbol
_atom_site_fract_x
_atom_site_fract_y
_atom_site_fract_z
_atom_site_charge
C 	C 	0.04190 0.57380 0.12190 0.09900
H 	H 	0.07130 0.56020 0.20070 -0.00200
C 	C 	0.08860 0.61400 0.08570 -0.15100
C 	C 	0.04790 0.63430 0.96800 0.09600
H 	H 	0.07940 0.66100 0.94490 0.00000
C 	C 	0.95090 0.55400 0.04010 -0.21200
H 	H 	0.91890 0.52790 0.06380 0.12500
C 	C 	0.90990 0.57480 0.92220 0.19700
C 	C 	0.95940 0.61400 0.88600 -0.20700
H 	H 	0.93220 0.62610 0.80620 0.10400
N 	N 	0.81860 0.55820 0.83170 -0.23500
H 	H 	0.80770 0.56380 0.75850 0.14500
C 	C 	0.74630 0.53470 0.84480 0.13900
O 	O 	0.58020 0.51930 0.73030 -0.53500
O 	O 	0.74780 0.52090 0.94170 -0.32000
C 	C 	0.65530 0.52780 0.72140 0.33100
O 	O 	0.66730 0.53130 0.62930 -0.42400
Ca	Ca	0.91691 0.00424 0.57367 1.50900
S 	S 	0.19910 0.64370 0.18600 0.22100
O 	O 	0.25640 0.59730 0.26210 -0.34400
O 	O 	0.23660 0.67820 0.11980 0.14900
O 	O 	0.02390 0.84910 0.61950 -0.23300
O 	O 	0.10440 0.89070 0.41260 -0.33000
O 	O 	0.02480 0.93690 0.54160 -0.48500
C 	C 	0.08260 0.85870 0.47420 0.16000
N 	N 	0.08930 0.80090 0.47810 -0.23800
H 	H 	0.07400 0.78420 0.52760 0.15100
C 	C 	0.13750 0.70710 0.44600 -0.19400
H 	H 	0.13190 0.69420 0.51270 0.10800
C 	C 	0.11870 0.76460 0.41030 0.19600
C 	C 	0.16450 0.66960 0.38060 0.09700
H 	H 	0.17750 0.63170 0.40360 0.00800
C 	C 	0.03980 0.88380 0.55320 0.26400
C 	C 	0.17140 0.68990 0.28070 -0.16000
C 	C 	0.12720 0.78450 0.31020 -0.20300
H 	H 	0.11560 0.82240 0.28760 0.12800
C 	C 	0.15330 0.74640 0.24410 0.10800
H 	H 	0.15840 0.75880 0.17690 0.00200
S 	S 	0.20280 0.62990 0.22400 0.32300
O 	O 	0.24800 0.58150 0.30400 0.03300
O 	O 	0.25100 0.65830 0.16300 -0.42200
C 	C 	0.54190 0.07380 0.12190 0.09100
H 	H 	0.57130 0.06020 0.20070 0.00200
C 	C 	0.58860 0.11400 0.08570 -0.14800
C 	C 	0.54790 0.13430 0.96800 0.09900
H 	H 	0.57940 0.16100 0.94490 0.00100
C 	C 	0.45090 0.05400 0.04010 -0.19500
H 	H 	0.41890 0.02790 0.06380 0.12300
C 	C 	0.40990 0.07480 0.92220 0.18900
C 	C 	0.45940 0.11400 0.88600 -0.20700
H 	H 	0.43220 0.12610 0.80620 0.10400
N 	N 	0.31860 0.05820 0.83170 -0.23400
H 	H 	0.30770 0.06380 0.75850 0.14400
C 	C 	0.24630 0.03470 0.84480 0.13800
O 	O 	0.08020 0.01930 0.73030 -0.53600
O 	O 	0.24780 0.02090 0.94170 -0.32200
C 	C 	0.15530 0.02780 0.72140 0.33100
O 	O 	0.16730 0.03130 0.62930 -0.42400
Ca	Ca	0.41691 0.50424 0.57367 1.50800
S 	S 	0.69910 0.14370 0.18600 0.22100
O 	O 	0.75640 0.09730 0.26210 -0.34300
O 	O 	0.73660 0.17820 0.11980 0.14800
O 	O 	0.52390 0.34910 0.61950 -0.23300
O 	O 	0.60440 0.39070 0.41260 -0.33000
O 	O 	0.52480 0.43690 0.54160 -0.48600
C 	C 	0.58260 0.35870 0.47420 0.16000
N 	N 	0.58930 0.30090 0.47810 -0.23800
H 	H 	0.57400 0.28420 0.52760 0.15100
C 	C 	0.63750 0.20710 0.44600 -0.19400
H 	H 	0.63190 0.19420 0.51270 0.10700
C 	C 	0.61870 0.26460 0.41030 0.19500
C 	C 	0.66450 0.16960 0.38060 0.09600
H 	H 	0.67750 0.13170 0.40360 0.00800
C 	C 	0.53980 0.38380 0.55320 0.26400
C 	C 	0.67140 0.18990 0.28070 -0.16000
C 	C 	0.62720 0.28450 0.31020 -0.20300
H 	H 	0.61560 0.32240 0.28760 0.12800
C 	C 	0.65330 0.24640 0.24410 0.10700
H 	H 	0.65840 0.25880 0.17690 0.00200
S 	S 	0.70280 0.12990 0.22400 0.32200
O 	O 	0.74800 0.08150 0.30400 0.03300
O 	O 	0.75100 0.15830 0.16300 -0.42100
C 	C 	0.95810 0.57380 0.37810 0.09400
H 	H 	0.92870 0.56020 0.29930 0.00000
C 	C 	0.91140 0.61400 0.41430 -0.15300
C 	C 	0.95210 0.63430 0.53200 0.10400
H 	H 	0.92060 0.66100 0.55510 -0.00000
C 	C 	0.04910 0.55400 0.45990 -0.20000
H 	H 	0.08110 0.52790 0.43620 0.12400
C 	C 	0.09010 0.57480 0.57780 0.19400
C 	C 	0.04060 0.61400 0.61400 -0.21200
H 	H 	0.06780 0.62610 0.69380 0.10500
N 	N 	0.18140 0.55820 0.66830 -0.23400
H 	H 	0.19230 0.56380 0.74150 0.14400
C 	C 	0.25370 0.53470 0.65520 0.13800
O 	O 	0.41980 0.51930 0.76970 -0.53500
O 	O 	0.25220 0.52090 0.55830 -0.32100
C 	C 	0.34470 0.52780 0.77860 0.33100
O 	O 	0.33270 0.53130 0.87070 -0.42500
Ca	Ca	0.08309 0.00424 0.92633 1.50800
S 	S 	0.80090 0.64370 0.31400 0.22200
O 	O 	0.74360 0.59730 0.23790 -0.34500
O 	O 	0.76340 0.67820 0.38020 0.15000
O 	O 	0.97610 0.84910 0.88050 -0.23300
O 	O 	0.89560 0.89070 0.08740 -0.33100
O 	O 	0.97520 0.93690 0.95840 -0.48500
C 	C 	0.91740 0.85870 0.02580 0.15600
N 	N 	0.91070 0.80090 0.02190 -0.24200
H 	H 	0.92600 0.78420 0.97240 0.15500
C 	C 	0.86250 0.70710 0.05400 -0.20500
H 	H 	0.86810 0.69420 0.98730 0.11300
C 	C 	0.88130 0.76460 0.08970 0.19900
C 	C 	0.83550 0.66960 0.11940 0.10200
H 	H 	0.82250 0.63170 0.09640 0.00600
C 	C 	0.96020 0.88380 0.94680 0.26700
C 	C 	0.82860 0.68990 0.21930 -0.16300
C 	C 	0.87280 0.78450 0.18980 -0.20600
H 	H 	0.88440 0.82240 0.21240 0.12900
C 	C 	0.84670 0.74640 0.25590 0.11000
H 	H 	0.84160 0.75880 0.32310 0.00000
S 	S 	0.79720 0.62990 0.27600 0.32400
O 	O 	0.75200 0.58150 0.19600 0.03300
O 	O 	0.74900 0.65830 0.33700 -0.42300
C 	C 	0.45810 0.07380 0.37810 0.09500
H 	H 	0.42870 0.06020 0.29930 0.00100
C 	C 	0.41140 0.11400 0.41430 -0.15200
C 	C 	0.45210 0.13430 0.53200 0.10400
H 	H 	0.42060 0.16100 0.55510 -0.00000
C 	C 	0.54910 0.05400 0.45990 -0.20200
H 	H 	0.58110 0.02790 0.43620 0.12400
C 	C 	0.59010 0.07480 0.57780 0.19400
C 	C 	0.54060 0.11400 0.61400 -0.21200
H 	H 	0.56780 0.12610 0.69380 0.10500
N 	N 	0.68140 0.05820 0.66830 -0.23500
H 	H 	0.69230 0.06380 0.74150 0.14500
C 	C 	0.75370 0.03470 0.65520 0.13900
O 	O 	0.91980 0.01930 0.76970 -0.53400
O 	O 	0.75220 0.02090 0.55830 -0.32000
C 	C 	0.84470 0.02780 0.77860 0.33100
O 	O 	0.83270 0.03130 0.87070 -0.42400
Ca	Ca	0.58309 0.50424 0.92633 1.50800
S 	S 	0.30090 0.14370 0.31400 0.22100
O 	O 	0.24360 0.09730 0.23790 -0.34500
O 	O 	0.26340 0.17820 0.38020 0.14900
O 	O 	0.47610 0.34910 0.88050 -0.23300
O 	O 	0.39560 0.39070 0.08740 -0.33000
O 	O 	0.47520 0.43690 0.95840 -0.48600
C 	C 	0.41740 0.35870 0.02580 0.16100
N 	N 	0.41070 0.30090 0.02190 -0.23700
H 	H 	0.42600 0.28420 0.97240 0.15000
C 	C 	0.36250 0.20710 0.05400 -0.18700
H 	H 	0.36810 0.19420 0.98730 0.10400
C 	C 	0.38130 0.26460 0.08970 0.19300
C 	C 	0.33550 0.16960 0.11940 0.09300
H 	H 	0.32250 0.13170 0.09640 0.01000
C 	C 	0.46020 0.38380 0.94680 0.26300
C 	C 	0.32860 0.18990 0.21930 -0.15800
C 	C 	0.37280 0.28450 0.18980 -0.20100
H 	H 	0.38440 0.32240 0.21240 0.12800
C 	C 	0.34670 0.24640 0.25590 0.10600
H 	H 	0.34160 0.25880 0.32310 0.00200
S 	S 	0.29720 0.12990 0.27600 0.32300
O 	O 	0.25200 0.08150 0.19600 0.03400
O 	O 	0.24900 0.15830 0.33700 -0.42200
C 	C 	0.95810 0.42620 0.87810 0.10000
H 	H 	0.92870 0.43980 0.79930 -0.00100
C 	C 	0.91140 0.38600 0.91430 -0.15000
C 	C 	0.95210 0.36570 0.03200 0.09700
H 	H 	0.92060 0.33900 0.05510 0.00100
C 	C 	0.04910 0.44600 0.95990 -0.21100
H 	H 	0.08110 0.47210 0.93620 0.12600
C 	C 	0.09010 0.42520 0.07780 0.19800
C 	C 	0.04060 0.38600 0.11400 -0.20700
H 	H 	0.06780 0.37390 0.19380 0.10400
N 	N 	0.18140 0.44180 0.16830 -0.23500
H 	H 	0.19230 0.43620 0.24150 0.14500
C 	C 	0.25370 0.46530 0.15520 0.13900
O 	O 	0.41980 0.48070 0.26970 -0.53500
O 	O 	0.25220 0.47910 0.05830 -0.32000
C 	C 	0.34470 0.47220 0.27860 0.33100
O 	O 	0.33270 0.46870 0.37070 -0.42400
Ca	Ca	0.08309 0.99576 0.42633 1.50900
S 	S 	0.80090 0.35630 0.81400 0.22100
O 	O 	0.74360 0.40270 0.73790 -0.34400
O 	O 	0.76340 0.32180 0.88020 0.14900
O 	O 	0.97610 0.15090 0.38050 -0.23300
O 	O 	0.89560 0.10930 0.58740 -0.33000
O 	O 	0.97520 0.06310 0.45840 -0.48500
C 	C 	0.91740 0.14130 0.52580 0.16000
N 	N 	0.91070 0.19910 0.52190 -0.23800
H 	H 	0.92600 0.21580 0.47240 0.15100
C 	C 	0.86250 0.29290 0.55400 -0.19400
H 	H 	0.86810 0.30580 0.48730 0.10800
C 	C 	0.88130 0.23540 0.58970 0.19600
C 	C 	0.83550 0.33040 0.61940 0.09700
H 	H 	0.82250 0.36830 0.59640 0.00800
C 	C 	0.96020 0.11620 0.44680 0.26400
C 	C 	0.82860 0.31010 0.71930 -0.16000
C 	C 	0.87280 0.21550 0.68980 -0.20300
H 	H 	0.88440 0.17760 0.71240 0.12800
C 	C 	0.84670 0.25360 0.75590 0.10800
H 	H 	0.84160 0.24120 0.82310 0.00200
S 	S 	0.79720 0.37010 0.77600 0.32300
O 	O 	0.75200 0.41850 0.69600 0.03300
O 	O 	0.74900 0.34170 0.83700 -0.42200
C 	C 	0.45810 0.92620 0.87810 0.09100
H 	H 	0.42870 0.93980 0.79930 0.00200
C 	C 	0.41140 0.88600 0.91430 -0.14800
C 	C 	0.45210 0.86570 0.03200 0.09900
H 	H 	0.42060 0.83900 0.05510 0.00100
C 	C 	0.54910 0.94600 0.95990 -0.19500
H 	H 	0.58110 0.97210 0.93620 0.12300
C 	C 	0.59010 0.92520 0.07780 0.18900
C 	C 	0.54060 0.88600 0.11400 -0.20700
H 	H 	0.56780 0.87390 0.19380 0.10400
N 	N 	0.68140 0.94180 0.16830 -0.23400
H 	H 	0.69230 0.93620 0.24150 0.14400
C 	C 	0.75370 0.96530 0.15520 0.13800
O 	O 	0.91980 0.98070 0.26970 -0.53600
O 	O 	0.75220 0.97910 0.05830 -0.32200
C 	C 	0.84470 0.97220 0.27860 0.33100
O 	O 	0.83270 0.96870 0.37070 -0.42400
Ca	Ca	0.58309 0.49576 0.42633 1.50800
S 	S 	0.30090 0.85630 0.81400 0.22100
O 	O 	0.24360 0.90270 0.73790 -0.34300
O 	O 	0.26340 0.82180 0.88020 0.14800
O 	O 	0.47610 0.65090 0.38050 -0.23300
O 	O 	0.39560 0.60930 0.58740 -0.33000
O 	O 	0.47520 0.56310 0.45840 -0.48600
C 	C 	0.41740 0.64130 0.52580 0.16000
N 	N 	0.41070 0.69910 0.52190 -0.23800
H 	H 	0.42600 0.71580 0.47240 0.15100
C 	C 	0.36250 0.79290 0.55400 -0.19400
H 	H 	0.36810 0.80580 0.48730 0.10700
C 	C 	0.38130 0.73540 0.58970 0.19500
C 	C 	0.33550 0.83040 0.61940 0.09600
H 	H 	0.32250 0.86830 0.59640 0.00800
C 	C 	0.46020 0.61620 0.44680 0.26400
C 	C 	0.32860 0.81010 0.71930 -0.16000
C 	C 	0.37280 0.71550 0.68980 -0.20300
H 	H 	0.38440 0.67760 0.71240 0.12800
C 	C 	0.34670 0.75360 0.75590 0.10700
H 	H 	0.34160 0.74120 0.82310 0.00200
S 	S 	0.29720 0.87010 0.77600 0.32200
O 	O 	0.25200 0.91850 0.69600 0.03300
O 	O 	0.24900 0.84170 0.83700 -0.42100
C 	C 	0.04190 0.42620 0.62190 0.09400
H 	H 	0.07130 0.43980 0.70070 0.00000
C 	C 	0.08860 0.38600 0.58570 -0.15300
C 	C 	0.04790 0.36570 0.46800 0.10400
H 	H 	0.07940 0.33900 0.44490 -0.00000
C 	C 	0.95090 0.44600 0.54010 -0.20000
H 	H 	0.91890 0.47210 0.56380 0.12400
C 	C 	0.90990 0.42520 0.42220 0.19400
C 	C 	0.95940 0.38600 0.38600 -0.21200
H 	H 	0.93220 0.37390 0.30620 0.10500
N 	N 	0.81860 0.44180 0.33170 -0.23400
H 	H 	0.80770 0.43620 0.25850 0.14400
C 	C 	0.74630 0.46530 0.34480 0.13800
O 	O 	0.58020 0.48070 0.23030 -0.53500
O 	O 	0.74780 0.47910 0.44170 -0.32100
C 	C 	0.65530 0.47220 0.22140 0.33100
O 	O 	0.66730 0.46870 0.12930 -0.42500
Ca	Ca	0.91691 0.99576 0.07367 1.50800
S 	S 	0.19910 0.35630 0.68600 0.22200
O 	O 	0.25640 0.40270 0.76210 -0.34500
O 	O 	0.23660 0.32180 0.61980 0.15000
O 	O 	0.02390 0.15090 0.11950 -0.23300
O 	O 	0.10440 0.10930 0.91260 -0.33100
O 	O 	0.02480 0.06310 0.04160 -0.48500
C 	C 	0.08260 0.14130 0.97420 0.15600
N 	N 	0.08930 0.19910 0.97810 -0.24200
H 	H 	0.07400 0.21580 0.02760 0.15500
C 	C 	0.13750 0.29290 0.94600 -0.20500
H 	H 	0.13190 0.30580 0.01270 0.11300
C 	C 	0.11870 0.23540 0.91030 0.19900
C 	C 	0.16450 0.33040 0.88060 0.10200
H 	H 	0.17750 0.36830 0.90360 0.00600
C 	C 	0.03980 0.11620 0.05320 0.26700
C 	C 	0.17140 0.31010 0.78070 -0.16300
C 	C 	0.12720 0.21550 0.81020 -0.20600
H 	H 	0.11560 0.17760 0.78760 0.12900
C 	C 	0.15330 0.25360 0.74410 0.11000
H 	H 	0.15840 0.24120 0.67690 0.00000
S 	S 	0.20280 0.37010 0.72400 0.32400
O 	O 	0.24800 0.41850 0.80400 0.03300
O 	O 	0.25100 0.34170 0.66300 -0.42300
C 	C 	0.54190 0.92620 0.62190 0.09500
H 	H 	0.57130 0.93980 0.70070 0.00100
C 	C 	0.58860 0.88600 0.58570 -0.15200
C 	C 	0.54790 0.86570 0.46800 0.10400
H 	H 	0.57940 0.83900 0.44490 -0.00000
C 	C 	0.45090 0.94600 0.54010 -0.20200
H 	H 	0.41890 0.97210 0.56380 0.12400
C 	C 	0.40990 0.92520 0.42220 0.19400
C 	C 	0.45940 0.88600 0.38600 -0.21200
H 	H 	0.43220 0.87390 0.30620 0.10500
N 	N 	0.31860 0.94180 0.33170 -0.23500
H 	H 	0.30770 0.93620 0.25850 0.14500
C 	C 	0.24630 0.96530 0.34480 0.13900
O 	O 	0.08020 0.98070 0.23030 -0.53400
O 	O 	0.24780 0.97910 0.44170 -0.32000
C 	C 	0.15530 0.97220 0.22140 0.33100
O 	O 	0.16730 0.96870 0.12930 -0.42400
Ca	Ca	0.41691 0.49576 0.07367 1.50800
S 	S 	0.69910 0.85630 0.68600 0.22100
O 	O 	0.75640 0.90270 0.76210 -0.34500
O 	O 	0.73660 0.82180 0.61980 0.14900
O 	O 	0.52390 0.65090 0.11950 -0.23300
O 	O 	0.60440 0.60930 0.91260 -0.33000
O 	O 	0.52480 0.56310 0.04160 -0.48600
C 	C 	0.58260 0.64130 0.97420 0.16100
N 	N 	0.58930 0.69910 0.97810 -0.23700
H 	H 	0.57400 0.71580 0.02760 0.15000
C 	C 	0.63750 0.79290 0.94600 -0.18700
H 	H 	0.63190 0.80580 0.01270 0.10400
C 	C 	0.61870 0.73540 0.91030 0.19300
C 	C 	0.66450 0.83040 0.88060 0.09300
H 	H 	0.67750 0.86830 0.90360 0.01000
C 	C 	0.53980 0.61620 0.05320 0.26300
C 	C 	0.67140 0.81010 0.78070 -0.15800
C 	C 	0.62720 0.71550 0.81020 -0.20100
H 	H 	0.61560 0.67760 0.78760 0.12800
C 	C 	0.65330 0.75360 0.74410 0.10600
H 	H 	0.65840 0.74120 0.67690 0.00200
S 	S 	0.70280 0.87010 0.72400 0.32300
O 	O 	0.74800 0.91850 0.80400 0.03400
O 	O 	0.75100 0.84170 0.66300 -0.42200
