data_crystal

_cell_length_a 10.44100
_cell_length_b 10.44100
_cell_length_c 14.13000
_cell_angle_alpha 83.11080
_cell_angle_beta  83.11080
_cell_angle_gamma 85.61420

_symmetry_space_group_name_	'P 1'
_symmetry_space_group_name_H-M	'P 1'

loop_
_symmetry_equiv_pos_as_xyz
  x,y,z

loop_
_atom_site_label
_atom_site_type_symbol
_atom_site_fract_x
_atom_site_fract_y
_atom_site_fract_z
_atom_site_charge
Eu	Eu	0.76630 0.23370 0.75000 1.61600
Eu	Eu	0.23370 0.76630 0.25000 1.61600
H 	H 	0.17650 0.28290 0.96950 0.22700
H 	H 	0.73770 0.80410 0.90870 0.02400
H 	H 	0.68280 0.64640 0.91160 0.02800
H 	H 	0.88300 0.56100 0.85310 0.03700
H 	H 	0.86900 0.71540 0.78780 0.03500
H 	H 	0.18950 0.68990 0.83360 0.03000
H 	H 	0.08140 0.65320 0.75690 0.03600
H 	H 	0.21060 0.46460 0.80030 0.05800
H 	H 	0.04960 0.44460 0.85400 0.06200
H 	H 	0.27320 0.51960 0.94530 0.02500
H 	H 	0.11460 0.50320 0.99930 0.03900
H 	H 	0.67110 0.69030 0.16100 0.00700
H 	H 	0.57650 0.68210 0.06910 0.01400
H 	H 	0.63240 0.90500 0.00710 0.11400
H 	H 	0.70840 0.91000 0.11080 0.10200
H 	H 	0.91430 0.88230 0.91350 0.01200
H 	H 	0.03140 0.87600 0.81320 0.00400
H 	H 	0.11690 0.96770 0.93440 0.06900
H 	H 	0.20080 0.81860 0.91720 0.08000
H 	H 	0.71710 0.82350 0.53050 0.22800
H 	H 	0.19590 0.26230 0.59130 0.02400
H 	H 	0.35360 0.31720 0.58840 0.02900
H 	H 	0.43900 0.11700 0.64690 0.03900
H 	H 	0.28460 0.13100 0.71220 0.03500
H 	H 	0.31010 0.81050 0.66640 0.03000
H 	H 	0.34680 0.91860 0.74310 0.03600
H 	H 	0.53540 0.78940 0.69970 0.05700
H 	H 	0.55540 0.95040 0.64600 0.06200
H 	H 	0.48040 0.72680 0.55470 0.02500
H 	H 	0.49680 0.88540 0.50070 0.03800
H 	H 	0.30970 0.32890 0.33900 0.00700
H 	H 	0.31790 0.42350 0.43090 0.01400
H 	H 	0.09500 0.36760 0.49290 0.11600
H 	H 	0.09000 0.29160 0.38920 0.10300
H 	H 	0.11770 0.08570 0.58650 0.01200
H 	H 	0.12400 0.96860 0.68680 0.00400
H 	H 	0.03230 0.88310 0.56560 0.06800
H 	H 	0.18140 0.79920 0.58280 0.08100
H 	H 	0.82350 0.71710 0.03050 0.22800
H 	H 	0.26230 0.19590 0.09130 0.02500
H 	H 	0.31720 0.35360 0.08840 0.02900
H 	H 	0.11700 0.43900 0.14690 0.03800
H 	H 	0.13100 0.28460 0.21220 0.03500
H 	H 	0.81050 0.31010 0.16640 0.03000
H 	H 	0.91860 0.34680 0.24310 0.03600
H 	H 	0.78940 0.53540 0.19970 0.05800
H 	H 	0.95040 0.55540 0.14600 0.06200
H 	H 	0.72680 0.48040 0.05470 0.02500
H 	H 	0.88540 0.49680 0.00070 0.03900
H 	H 	0.32890 0.30970 0.83900 0.00700
H 	H 	0.42350 0.31790 0.93090 0.01400
H 	H 	0.36760 0.09500 0.99290 0.11400
H 	H 	0.29160 0.09000 0.88920 0.10200
H 	H 	0.08570 0.11770 0.08650 0.01200
H 	H 	0.96860 0.12400 0.18680 0.00400
H 	H 	0.88310 0.03230 0.06560 0.06900
H 	H 	0.79920 0.18140 0.08280 0.08000
H 	H 	0.28290 0.17650 0.46950 0.22800
H 	H 	0.80410 0.73770 0.40870 0.02400
H 	H 	0.64640 0.68280 0.41160 0.02900
H 	H 	0.56100 0.88300 0.35310 0.03900
H 	H 	0.71540 0.86900 0.28780 0.03500
H 	H 	0.68990 0.18950 0.33360 0.03000
H 	H 	0.65320 0.08140 0.25690 0.03600
H 	H 	0.46460 0.21060 0.30030 0.05700
H 	H 	0.44460 0.04960 0.35400 0.06200
H 	H 	0.51960 0.27320 0.44530 0.02500
H 	H 	0.50320 0.11460 0.49930 0.03800
H 	H 	0.69030 0.67110 0.66100 0.00700
H 	H 	0.68210 0.57650 0.56910 0.01400
H 	H 	0.90500 0.63240 0.50710 0.11600
H 	H 	0.91000 0.70840 0.61080 0.10300
H 	H 	0.88230 0.91430 0.41350 0.01200
H 	H 	0.87600 0.03140 0.31320 0.00400
H 	H 	0.96770 0.11690 0.43440 0.06800
H 	H 	0.81860 0.20080 0.41720 0.08100
C 	C 	0.24300 0.30100 0.07600 -0.01000
C 	C 	0.12300 0.33900 0.14500 -0.05500
C 	C 	0.89600 0.36200 0.17400 -0.01800
C 	C 	0.86300 0.50500 0.14900 -0.11100
C 	C 	0.81100 0.52900 0.05500 0.01300
C 	C 	0.34000 0.28000 0.91100 0.07700
C 	C 	0.36300 0.13300 0.92100 -0.30100
C 	C 	0.49100 0.09500 0.86500 0.42200
C 	C 	0.00200 0.83600 0.88100 0.02100
C 	C 	0.10500 0.86500 0.94200 -0.20100
C 	C 	0.08100 0.82900 0.05000 0.29500
C 	C 	0.69900 0.75700 0.42400 -0.01000
C 	C 	0.66100 0.87700 0.35500 -0.05500
C 	C 	0.63800 0.10400 0.32600 -0.01900
C 	C 	0.49500 0.13700 0.35100 -0.11100
C 	C 	0.47100 0.18900 0.44500 0.01300
C 	C 	0.72000 0.66000 0.58900 0.07700
C 	C 	0.86700 0.63700 0.57900 -0.30300
C 	C 	0.90500 0.50900 0.63500 0.42500
C 	C 	0.16400 0.99800 0.61900 0.01900
C 	C 	0.13500 0.89500 0.55800 -0.20500
C 	C 	0.17100 0.91900 0.45000 0.30200
C 	C 	0.75700 0.69900 0.92400 -0.01000
C 	C 	0.87700 0.66100 0.85500 -0.05500
C 	C 	0.10400 0.63800 0.82600 -0.01800
C 	C 	0.13700 0.49500 0.85100 -0.11100
C 	C 	0.18900 0.47100 0.94500 0.01300
C 	C 	0.66000 0.72000 0.08900 0.07700
C 	C 	0.63700 0.86700 0.07900 -0.30100
C 	C 	0.50900 0.90500 0.13500 0.42200
C 	C 	0.99800 0.16400 0.11900 0.02100
C 	C 	0.89500 0.13500 0.05800 -0.20100
C 	C 	0.91900 0.17100 0.95000 0.29500
C 	C 	0.30100 0.24300 0.57600 -0.01000
C 	C 	0.33900 0.12300 0.64500 -0.05500
C 	C 	0.36200 0.89600 0.67400 -0.01900
C 	C 	0.50500 0.86300 0.64900 -0.11100
C 	C 	0.52900 0.81100 0.55500 0.01300
C 	C 	0.28000 0.34000 0.41100 0.07700
C 	C 	0.13300 0.36300 0.42100 -0.30300
C 	C 	0.09500 0.49100 0.36500 0.42500
C 	C 	0.83600 0.00200 0.38100 0.01900
C 	C 	0.86500 0.10500 0.44200 -0.20500
C 	C 	0.82900 0.08100 0.55000 0.30200
N 	N 	0.22370 0.32770 0.97400 -0.28000
N 	N 	0.00400 0.30800 0.11300 -0.10400
N 	N 	0.67230 0.77630 0.52600 -0.28100
N 	N 	0.69200 0.99600 0.38700 -0.10300
N 	N 	0.77630 0.67230 0.02600 -0.28000
N 	N 	0.99600 0.69200 0.88700 -0.10400
N 	N 	0.32770 0.22370 0.47400 -0.28100
N 	N 	0.30800 0.00400 0.61300 -0.10300
O 	O 	0.47780 0.02380 0.13600 -0.32200
O 	O 	0.55800 0.18400 0.82300 -0.49400
O 	O 	0.96590 0.80190 0.08640 -0.29600
O 	O 	0.18600 0.77600 0.09200 -0.44800
O 	O 	0.97620 0.52220 0.36400 -0.32500
O 	O 	0.81600 0.44200 0.67700 -0.49400
O 	O 	0.19810 0.03410 0.41360 -0.29900
O 	O 	0.22400 0.81400 0.40800 -0.44800
O 	O 	0.52220 0.97620 0.86400 -0.32200
O 	O 	0.44200 0.81600 0.17700 -0.49400
O 	O 	0.03410 0.19810 0.91360 -0.29600
O 	O 	0.81400 0.22400 0.90800 -0.44800
O 	O 	0.02380 0.47780 0.63600 -0.32500
O 	O 	0.18400 0.55800 0.32300 -0.49400
O 	O 	0.80190 0.96590 0.58640 -0.29900
O 	O 	0.77600 0.18600 0.59200 -0.44800
