data_crystal

_cell_length_a 10.45620
_cell_length_b 10.45620
_cell_length_c 14.26400
_cell_angle_alpha 83.32130
_cell_angle_beta  83.32130
_cell_angle_gamma 85.32590

_symmetry_space_group_name_	'P 1'
_symmetry_space_group_name_H-M	'P 1'

loop_
_symmetry_equiv_pos_as_xyz
  x,y,z

loop_
_atom_site_label
_atom_site_type_symbol
_atom_site_fract_x
_atom_site_fract_y
_atom_site_fract_z
_atom_site_charge
Gd	Gd	0.22880 0.77120 0.25000 1.28200
Gd	Gd	0.77120 0.22880 0.75000 1.28200
H 	H 	0.29020 0.16800 0.45960 0.20100
H 	H 	0.80410 0.73770 0.40870 0.03500
H 	H 	0.64640 0.68280 0.41160 0.02600
H 	H 	0.56100 0.88300 0.35310 0.03300
H 	H 	0.71540 0.86900 0.28780 0.03700
H 	H 	0.68990 0.18950 0.33360 0.02800
H 	H 	0.65320 0.08140 0.25690 0.03600
H 	H 	0.46460 0.21060 0.30030 0.05200
H 	H 	0.44460 0.04960 0.35400 0.05400
H 	H 	0.51960 0.27320 0.44530 0.02100
H 	H 	0.50320 0.11460 0.49930 0.03200
H 	H 	0.69030 0.67110 0.66100 0.01200
H 	H 	0.68210 0.57650 0.56910 0.01400
H 	H 	0.90500 0.63240 0.50710 0.11300
H 	H 	0.91000 0.70840 0.61080 0.09700
H 	H 	0.88230 0.91430 0.41350 0.03300
H 	H 	0.87600 0.03140 0.31320 0.01300
H 	H 	0.96770 0.11690 0.43440 0.09800
H 	H 	0.81860 0.20080 0.41720 0.08300
H 	H 	0.83200 0.70980 0.04040 0.20100
H 	H 	0.26230 0.19590 0.09130 0.03500
H 	H 	0.31720 0.35360 0.08840 0.02700
H 	H 	0.11700 0.43900 0.14690 0.03200
H 	H 	0.13100 0.28460 0.21220 0.03700
H 	H 	0.81050 0.31010 0.16640 0.02700
H 	H 	0.91860 0.34680 0.24310 0.03600
H 	H 	0.78940 0.53540 0.19970 0.05200
H 	H 	0.95040 0.55540 0.14600 0.05500
H 	H 	0.72680 0.48040 0.05470 0.02100
H 	H 	0.88540 0.49680 0.00070 0.03300
H 	H 	0.32890 0.30970 0.83900 0.01200
H 	H 	0.42350 0.31790 0.93090 0.01400
H 	H 	0.36760 0.09500 0.99290 0.11200
H 	H 	0.29160 0.09000 0.88920 0.09700
H 	H 	0.08570 0.11770 0.08650 0.03200
H 	H 	0.96860 0.12400 0.18680 0.01200
H 	H 	0.88310 0.03230 0.06560 0.09800
H 	H 	0.79920 0.18140 0.08280 0.08300
H 	H 	0.70980 0.83200 0.54040 0.20100
H 	H 	0.19590 0.26230 0.59130 0.03500
H 	H 	0.35360 0.31720 0.58840 0.02600
H 	H 	0.43900 0.11700 0.64690 0.03300
H 	H 	0.28460 0.13100 0.71220 0.03700
H 	H 	0.31010 0.81050 0.66640 0.02800
H 	H 	0.34680 0.91860 0.74310 0.03600
H 	H 	0.53540 0.78940 0.69970 0.05200
H 	H 	0.55540 0.95040 0.64600 0.05400
H 	H 	0.48040 0.72680 0.55470 0.02100
H 	H 	0.49680 0.88540 0.50070 0.03200
H 	H 	0.30970 0.32890 0.33900 0.01200
H 	H 	0.31790 0.42350 0.43090 0.01400
H 	H 	0.09500 0.36760 0.49290 0.11300
H 	H 	0.09000 0.29160 0.38920 0.09700
H 	H 	0.11770 0.08570 0.58650 0.03300
H 	H 	0.12400 0.96860 0.68680 0.01300
H 	H 	0.03230 0.88310 0.56560 0.09800
H 	H 	0.18140 0.79920 0.58280 0.08300
H 	H 	0.16800 0.29020 0.95960 0.20100
H 	H 	0.73770 0.80410 0.90870 0.03500
H 	H 	0.68280 0.64640 0.91160 0.02700
H 	H 	0.88300 0.56100 0.85310 0.03200
H 	H 	0.86900 0.71540 0.78780 0.03700
H 	H 	0.18950 0.68990 0.83360 0.02700
H 	H 	0.08140 0.65320 0.75690 0.03600
H 	H 	0.21060 0.46460 0.80030 0.05200
H 	H 	0.04960 0.44460 0.85400 0.05500
H 	H 	0.27320 0.51960 0.94530 0.02100
H 	H 	0.11460 0.50320 0.99930 0.03300
H 	H 	0.67110 0.69030 0.16100 0.01200
H 	H 	0.57650 0.68210 0.06910 0.01400
H 	H 	0.63240 0.90500 0.00710 0.11200
H 	H 	0.70840 0.91000 0.11080 0.09700
H 	H 	0.91430 0.88230 0.91350 0.03200
H 	H 	0.03140 0.87600 0.81320 0.01200
H 	H 	0.11690 0.96770 0.93440 0.09800
H 	H 	0.20080 0.81860 0.91720 0.08300
C 	C 	0.29700 0.24100 0.57420 -0.00800
C 	C 	0.33600 0.12400 0.64280 -0.04900
C 	C 	0.35960 0.89360 0.67110 -0.02300
C 	C 	0.50200 0.86400 0.64780 -0.09900
C 	C 	0.53210 0.81070 0.55400 0.00200
C 	C 	0.28000 0.34200 0.41190 0.06700
C 	C 	0.13600 0.36400 0.42100 -0.27400
C 	C 	0.10000 0.49200 0.36500 0.39400
C 	C 	0.83740 0.00540 0.38660 0.03200
C 	C 	0.86300 0.10900 0.44600 -0.24300
C 	C 	0.82160 0.08360 0.55300 0.40400
C 	C 	0.75900 0.70300 0.92580 -0.00900
C 	C 	0.87600 0.66400 0.85720 -0.04900
C 	C 	0.10640 0.64040 0.82890 -0.02100
C 	C 	0.13600 0.49800 0.85220 -0.10000
C 	C 	0.18930 0.46790 0.94600 0.00200
C 	C 	0.65800 0.72000 0.08810 0.06700
C 	C 	0.63600 0.86400 0.07900 -0.27300
C 	C 	0.50800 0.90000 0.13500 0.39300
C 	C 	0.99460 0.16260 0.11340 0.03500
C 	C 	0.89100 0.13700 0.05400 -0.23900
C 	C 	0.91640 0.17840 0.94700 0.39800
C 	C 	0.70300 0.75900 0.42580 -0.00800
C 	C 	0.66400 0.87600 0.35720 -0.04900
C 	C 	0.64040 0.10640 0.32890 -0.02300
C 	C 	0.49800 0.13600 0.35220 -0.09900
C 	C 	0.46790 0.18930 0.44600 0.00200
C 	C 	0.72000 0.65800 0.58810 0.06700
C 	C 	0.86400 0.63600 0.57900 -0.27400
C 	C 	0.90000 0.50800 0.63500 0.39400
C 	C 	0.16260 0.99460 0.61340 0.03200
C 	C 	0.13700 0.89100 0.55400 -0.24300
C 	C 	0.17840 0.91640 0.44700 0.40400
C 	C 	0.24100 0.29700 0.07420 -0.00900
C 	C 	0.12400 0.33600 0.14280 -0.04900
C 	C 	0.89360 0.35960 0.17110 -0.02100
C 	C 	0.86400 0.50200 0.14780 -0.10000
C 	C 	0.81070 0.53210 0.05400 0.00200
C 	C 	0.34200 0.28000 0.91190 0.06700
C 	C 	0.36400 0.13600 0.92100 -0.27300
C 	C 	0.49200 0.10000 0.86500 0.39300
C 	C 	0.00540 0.83740 0.88660 0.03500
C 	C 	0.10900 0.86300 0.94600 -0.23900
C 	C 	0.08360 0.82160 0.05300 0.39800
N 	N 	0.32700 0.22140 0.47280 -0.24900
N 	N 	0.30420 0.00280 0.61060 -0.10800
N 	N 	0.77860 0.67300 0.02720 -0.24900
N 	N 	0.99720 0.69580 0.88940 -0.10900
N 	N 	0.67300 0.77860 0.52720 -0.24900
N 	N 	0.69580 0.99720 0.38940 -0.10800
N 	N 	0.22140 0.32700 0.97280 -0.24900
N 	N 	0.00280 0.30420 0.11060 -0.10900
O 	O 	0.02080 0.47700 0.63640 -0.30100
O 	O 	0.18680 0.55680 0.32150 -0.43900
O 	O 	0.80170 0.97170 0.58710 -0.32500
O 	O 	0.86200 0.15800 0.60000 -0.44100
O 	O 	0.52300 0.97920 0.86360 -0.30000
O 	O 	0.44320 0.81320 0.17850 -0.43900
O 	O 	0.02830 0.19830 0.91290 -0.32300
O 	O 	0.84200 0.13800 0.90000 -0.44000
O 	O 	0.97920 0.52300 0.36360 -0.30100
O 	O 	0.81320 0.44320 0.67850 -0.43900
O 	O 	0.19830 0.02830 0.41290 -0.32500
O 	O 	0.13800 0.84200 0.40000 -0.44100
O 	O 	0.47700 0.02080 0.13640 -0.30000
O 	O 	0.55680 0.18680 0.82150 -0.43900
O 	O 	0.97170 0.80170 0.08710 -0.32300
O 	O 	0.15800 0.86200 0.10000 -0.44000
