data_crystal

_cell_length_a 16.76500
_cell_length_b 28.41900
_cell_length_c 11.63600
_cell_angle_alpha 90.00000
_cell_angle_beta  99.94000
_cell_angle_gamma 90.00000

_symmetry_space_group_name_	'P 1'
_symmetry_space_group_name_H-M	'P 1'

loop_
_symmetry_equiv_pos_as_xyz
  x,y,z

loop_
_atom_site_label
_atom_site_type_symbol
_atom_site_fract_x
_atom_site_fract_y
_atom_site_fract_z
_atom_site_charge
Zn	Zn	0.98804 0.64012 0.60118 1.31900
O 	O 	0.46870 0.20472 0.65670 -0.44900
O 	O 	0.90140 0.60216 0.64820 -0.38600
O 	O 	0.90010 0.62677 0.82880 -0.41200
C 	C 	0.87080 0.60478 0.73760 0.42100
C 	C 	0.79200 0.57974 0.73840 -0.13000
C 	C 	0.75500 0.58060 0.83430 0.06200
H 	H 	0.77840 0.59810 0.90130 0.01800
C 	C 	0.68240 0.55575 0.83410 -0.14000
H 	H 	0.65640 0.55720 0.90040 0.07500
C 	C 	0.64870 0.52944 0.73920 0.09500
C 	C 	0.68530 0.52880 0.64330 -0.14500
H 	H 	0.66200 0.51110 0.57680 0.07900
C 	C 	0.75590 0.55370 0.64200 0.07700
H 	H 	0.78030 0.55310 0.57410 0.02900
C 	C 	0.57130 0.50320 0.74150 -0.04600
C 	C 	0.48500 0.60508 0.84770 -0.08200
H 	H 	0.47430 0.58850 0.91440 0.05600
C 	C 	0.48550 0.65370 0.84830 -0.00800
H 	H 	0.47600 0.67030 0.91550 0.02900
C 	C 	0.57120 0.45346 0.74200 -0.00000
C 	C 	0.64640 0.42719 0.72980 0.03300
C 	C 	0.71390 0.43030 0.81530 -0.06800
H 	H 	0.71310 0.45020 0.88060 0.05500
C 	C 	0.78340 0.40450 0.80730 -0.02600
H 	H 	0.82960 0.40680 0.86700 0.07100
C 	C 	0.78490 0.37560 0.71300 -0.06700
H 	H 	0.83190 0.35750 0.70830 0.04800
C 	C 	0.71890 0.37290 0.62570 -0.01300
H 	H 	0.72110 0.35360 0.55970 0.03700
C 	C 	0.64790 0.39832 0.63230 -0.07900
H 	H 	0.60190 0.39600 0.57220 0.05800
C 	C 	0.45300 0.35133 0.66110 -0.13700
H 	H 	0.41990 0.36780 0.59960 0.07600
C 	C 	0.45330 0.30293 0.66020 0.06400
H 	H 	0.42130 0.28650 0.59760 0.02000
Cl	Cl	0.98750 0.63717 0.41030 -0.82100
O 	O 	0.00810 0.57250 0.52440 -0.46500
N 	N 	0.98590 0.51980 0.37080 -0.16400
C 	C 	0.01710 0.56230 0.42840 0.54200
C 	C 	0.07740 0.58010 0.35700 -0.84500
H 	H 	0.11640 0.55520 0.34930 0.39300
H 	H 	0.10600 0.60730 0.39650 0.29100
H 	H 	0.04910 0.58950 0.28000 0.33700
C 	C 	0.92890 0.49630 0.43700 -0.15500
H 	H 	0.87700 0.51300 0.42390 0.11500
H 	H 	0.95170 0.49650 0.52030 0.17600
H 	H 	0.92030 0.46370 0.41010 0.14500
H 	H 	0.03820 0.53020 0.22980 -1.02000
H 	H 	0.02250 0.47670 0.25030 -0.84100
H 	H 	0.95090 0.50930 0.19380 -0.91400
O 	O 	0.94510 0.66710 0.44550 -0.77200
H 	H 	0.97090 0.66590 0.38980 0.76200
H 	H 	0.89570 0.67130 0.41980 0.34100
Zn	Zn	0.48804 0.14012 0.60118 1.28800
O 	O 	0.96870 0.70472 0.65670 -0.31700
O 	O 	0.40140 0.10216 0.64820 -0.44600
O 	O 	0.40010 0.12677 0.82880 -0.46800
C 	C 	0.37080 0.10478 0.73760 0.41800
C 	C 	0.29200 0.07974 0.73840 -0.14300
C 	C 	0.25500 0.08060 0.83430 0.06000
H 	H 	0.27840 0.09810 0.90130 0.01400
C 	C 	0.18240 0.05575 0.83410 -0.13500
H 	H 	0.15640 0.05720 0.90040 0.06300
C 	C 	0.14870 0.02944 0.73920 0.08200
C 	C 	0.18530 0.02880 0.64330 -0.14000
H 	H 	0.16200 0.01110 0.57680 0.07000
C 	C 	0.25590 0.05370 0.64200 0.06700
H 	H 	0.28030 0.05310 0.57410 0.02000
C 	C 	0.07130 0.00320 0.74150 -0.02900
C 	C 	0.98500 0.10508 0.84770 -0.00800
H 	H 	0.97430 0.08850 0.91440 0.07600
C 	C 	0.98550 0.15370 0.84830 0.21200
H 	H 	0.97600 0.17030 0.91550 -0.00800
C 	C 	0.07120 0.95346 0.74200 0.00300
C 	C 	0.14640 0.92719 0.72980 0.01700
C 	C 	0.21390 0.93030 0.81530 -0.05800
H 	H 	0.21310 0.95020 0.88060 0.04600
C 	C 	0.28340 0.90450 0.80730 -0.04400
H 	H 	0.32960 0.90680 0.86700 0.06300
C 	C 	0.28490 0.87560 0.71300 -0.05200
H 	H 	0.33190 0.85750 0.70830 0.03200
C 	C 	0.21890 0.87290 0.62570 -0.03500
H 	H 	0.22110 0.85360 0.55970 0.03000
C 	C 	0.14790 0.89832 0.63230 -0.06300
H 	H 	0.10190 0.89600 0.57220 0.02200
C 	C 	0.95300 0.85133 0.66110 0.00300
H 	H 	0.91990 0.86780 0.59960 0.05400
C 	C 	0.95330 0.80293 0.66020 0.18700
H 	H 	0.92130 0.78650 0.59760 0.00300
Cl	Cl	0.48750 0.13717 0.41030 -0.98300
O 	O 	0.50810 0.07250 0.52440 -0.41600
N 	N 	0.48590 0.01980 0.37080 -0.21000
C 	C 	0.51710 0.06230 0.42840 0.59700
C 	C 	0.57740 0.08010 0.35700 -0.90800
H 	H 	0.61640 0.05520 0.34930 0.33600
H 	H 	0.60600 0.10730 0.39650 0.33700
H 	H 	0.54910 0.08950 0.28000 0.35600
C 	C 	0.42890 0.99630 0.43700 -0.25700
H 	H 	0.37700 0.01300 0.42390 0.12200
H 	H 	0.45170 0.99650 0.52030 0.14300
H 	H 	0.42030 0.96370 0.41010 0.15400
H 	H 	0.53820 0.03020 0.22980 -0.35300
H 	H 	0.52250 0.97670 0.25030 -0.25700
H 	H 	0.45090 0.00930 0.19380 -0.34400
O 	O 	0.44510 0.16710 0.44550 -0.76100
H 	H 	0.47090 0.16590 0.38980 0.79200
H 	H 	0.39570 0.17130 0.41980 0.32500
Zn	Zn	0.01196 0.64012 0.89882 1.25800
O 	O 	0.53130 0.20472 0.84330 -0.44800
O 	O 	0.09860 0.60216 0.85180 -0.45200
O 	O 	0.09990 0.62677 0.67120 -0.51000
C 	C 	0.12920 0.60478 0.76240 0.45500
C 	C 	0.20800 0.57974 0.76160 -0.15000
C 	C 	0.24500 0.58060 0.66570 0.08000
H 	H 	0.22160 0.59810 0.59870 0.01000
C 	C 	0.31760 0.55575 0.66590 -0.15000
H 	H 	0.34360 0.55720 0.59960 0.08000
C 	C 	0.35130 0.52944 0.76080 0.10400
C 	C 	0.31470 0.52880 0.85670 -0.15600
H 	H 	0.33800 0.51110 0.92320 0.08200
C 	C 	0.24410 0.55370 0.85800 0.09400
H 	H 	0.21970 0.55310 0.92590 0.02000
C 	C 	0.42870 0.50320 0.75850 -0.04800
C 	C 	0.51500 0.60508 0.65230 -0.08200
H 	H 	0.52570 0.58850 0.58560 0.05700
C 	C 	0.51450 0.65370 0.65170 -0.00800
H 	H 	0.52400 0.67030 0.58450 0.03100
C 	C 	0.42880 0.45346 0.75800 0.00100
C 	C 	0.35360 0.42719 0.77020 0.03200
C 	C 	0.28610 0.43030 0.68470 -0.06700
H 	H 	0.28690 0.45020 0.61940 0.05600
C 	C 	0.21660 0.40450 0.69270 -0.02600
H 	H 	0.17040 0.40680 0.63300 0.06400
C 	C 	0.21510 0.37560 0.78700 -0.05900
H 	H 	0.16810 0.35750 0.79170 0.02700
C 	C 	0.28110 0.37290 0.87430 -0.01900
H 	H 	0.27890 0.35360 0.94030 0.02800
C 	C 	0.35210 0.39832 0.86770 -0.07800
H 	H 	0.39810 0.39600 0.92780 0.05500
C 	C 	0.54700 0.35133 0.83890 -0.13700
H 	H 	0.58010 0.36780 0.90040 0.07700
C 	C 	0.54670 0.30293 0.83980 0.06400
H 	H 	0.57870 0.28650 0.90240 0.02100
Cl	Cl	0.01250 0.63717 0.08970 -1.14200
O 	O 	0.99190 0.57250 0.97560 -0.39300
N 	N 	0.01410 0.51980 0.12920 -0.36400
C 	C 	0.98290 0.56230 0.07160 0.85900
C 	C 	0.92260 0.58010 0.14300 -1.09400
H 	H 	0.88360 0.55520 0.15070 0.46400
H 	H 	0.89400 0.60730 0.10350 0.40700
H 	H 	0.95090 0.58950 0.22000 0.50200
C 	C 	0.07110 0.49630 0.06300 -0.06900
H 	H 	0.12300 0.51300 0.07610 0.08500
H 	H 	0.04830 0.49650 0.97970 0.06300
H 	H 	0.07970 0.46370 0.08990 0.11800
H 	H 	0.96180 0.53020 0.27020 -0.98100
H 	H 	0.97750 0.47670 0.24970 -0.59000
H 	H 	0.04910 0.50930 0.30620 -0.95800
O 	O 	0.05490 0.66710 0.05450 -0.74600
H 	H 	0.02910 0.66590 0.11020 0.82300
H 	H 	0.10430 0.67130 0.08020 0.31400
Zn	Zn	0.51196 0.14012 0.89882 1.28700
O 	O 	0.03130 0.70472 0.84330 -0.44800
O 	O 	0.59860 0.10216 0.85180 -0.44500
O 	O 	0.59990 0.12677 0.67120 -0.46400
C 	C 	0.62920 0.10478 0.76240 0.41800
C 	C 	0.70800 0.07974 0.76160 -0.13700
C 	C 	0.74500 0.08060 0.66570 0.06000
H 	H 	0.72160 0.09810 0.59870 0.02100
C 	C 	0.81760 0.05575 0.66590 -0.11800
H 	H 	0.84360 0.05720 0.59960 0.09000
C 	C 	0.85130 0.02944 0.76080 0.07200
C 	C 	0.81470 0.02880 0.85670 -0.12900
H 	H 	0.83800 0.01110 0.92320 0.08100
C 	C 	0.74410 0.05370 0.85800 0.06400
H 	H 	0.71970 0.05310 0.92590 0.02200
C 	C 	0.92870 0.00320 0.75850 0.07500
C 	C 	0.01500 0.10508 0.65230 -0.13900
H 	H 	0.02570 0.08850 0.58560 0.05500
C 	C 	0.01450 0.15370 0.65170 0.07500
H 	H 	0.02400 0.17030 0.58450 -0.01700
C 	C 	0.92880 0.95346 0.75800 0.10600
C 	C 	0.85360 0.92719 0.77020 0.01800
C 	C 	0.78610 0.93030 0.68470 -0.05400
H 	H 	0.78690 0.95020 0.61940 0.05000
C 	C 	0.71660 0.90450 0.69270 -0.04000
H 	H 	0.67040 0.90680 0.63300 0.06400
C 	C 	0.71510 0.87560 0.78700 -0.05300
H 	H 	0.66810 0.85750 0.79170 0.03600
C 	C 	0.78110 0.87290 0.87430 -0.01900
H 	H 	0.77890 0.85360 0.94030 0.04600
C 	C 	0.85210 0.89832 0.86770 -0.06000
H 	H 	0.89810 0.89600 0.92780 0.09400
C 	C 	0.04700 0.85133 0.83890 -0.12700
H 	H 	0.08010 0.86780 0.90040 0.06600
C 	C 	0.04670 0.80293 0.83980 0.06500
H 	H 	0.07870 0.78650 0.90240 0.01300
Cl	Cl	0.51250 0.13717 0.08970 -0.98200
O 	O 	0.49190 0.07250 0.97560 -0.42000
N 	N 	0.51410 0.01980 0.12920 -0.21300
C 	C 	0.48290 0.06230 0.07160 0.60200
C 	C 	0.42260 0.08010 0.14300 -0.91200
H 	H 	0.38360 0.05520 0.15070 0.33800
H 	H 	0.39400 0.10730 0.10350 0.33800
H 	H 	0.45090 0.08950 0.22000 0.35700
C 	C 	0.57110 0.99630 0.06300 -0.24000
H 	H 	0.62300 0.01300 0.07610 0.11700
H 	H 	0.54830 0.99650 0.97970 0.13500
H 	H 	0.57970 0.96370 0.08990 0.14900
H 	H 	0.46180 0.03020 0.27020 -0.35300
H 	H 	0.47750 0.97670 0.24970 -0.25700
H 	H 	0.54910 0.00930 0.30620 -0.34400
O 	O 	0.55490 0.16710 0.05450 -0.76100
H 	H 	0.52910 0.16590 0.11020 0.79200
H 	H 	0.60430 0.17130 0.08020 0.32900
C 	C 	0.50000 0.52710 0.75000 0.00100
C 	C 	0.50000 0.57970 0.75000 0.03600
C 	C 	0.50000 0.67850 0.75000 -0.06300
H 	H 	0.50000 0.71200 0.75000 0.04200
C 	C 	0.50000 0.42930 0.75000 -0.04300
C 	C 	0.50000 0.37650 0.75000 0.08700
C 	C 	0.50000 0.27800 0.75000 -0.13600
C 	C 	0.50000 0.22530 0.75000 0.38400
C 	C 	0.00000 0.02710 0.75000 -0.13300
C 	C 	0.00000 0.07970 0.75000 -0.04300
C 	C 	0.00000 0.17850 0.75000 -0.31300
H 	H 	0.00000 0.21200 0.75000 0.08200
C 	C 	0.00000 0.92930 0.75000 -0.15400
C 	C 	0.00000 0.87650 0.75000 -0.04400
C 	C 	0.00000 0.77800 0.75000 -0.25200
C 	C 	0.00000 0.72530 0.75000 0.24800
C 	C 	0.00000 0.50779 0.25000 4.46800
C 	C 	0.50000 0.00779 0.25000 1.69300
Zn	Zn	0.01196 0.35988 0.39882 1.26100
O 	O 	0.53130 0.79528 0.34330 -0.44700
O 	O 	0.09860 0.39784 0.35180 -0.45000
O 	O 	0.09990 0.37323 0.17120 -0.50700
C 	C 	0.12920 0.39522 0.26240 0.45300
C 	C 	0.20800 0.42026 0.26160 -0.14900
C 	C 	0.24500 0.41940 0.16570 0.07900
H 	H 	0.22160 0.40190 0.09870 0.01200
C 	C 	0.31760 0.44425 0.16590 -0.14900
H 	H 	0.34360 0.44280 0.09960 0.08200
C 	C 	0.35130 0.47056 0.26080 0.10300
C 	C 	0.31470 0.47120 0.35670 -0.15500
H 	H 	0.33800 0.48890 0.42320 0.08300
C 	C 	0.24410 0.44630 0.35800 0.09200
H 	H 	0.21970 0.44690 0.42590 0.02200
C 	C 	0.42870 0.49680 0.25850 -0.04800
C 	C 	0.51500 0.39492 0.15230 -0.08200
H 	H 	0.52570 0.41150 0.08560 0.05800
C 	C 	0.51450 0.34630 0.15170 -0.00700
H 	H 	0.52400 0.32970 0.08450 0.03200
C 	C 	0.42880 0.54654 0.25800 0.00100
C 	C 	0.35360 0.57281 0.27020 0.03300
C 	C 	0.28610 0.56970 0.18470 -0.06700
H 	H 	0.28690 0.54980 0.11940 0.05700
C 	C 	0.21660 0.59550 0.19270 -0.02600
H 	H 	0.17040 0.59320 0.13300 0.06500
C 	C 	0.21510 0.62440 0.28700 -0.05900
H 	H 	0.16810 0.64250 0.29170 0.02800
C 	C 	0.28110 0.62710 0.37430 -0.01800
H 	H 	0.27890 0.64640 0.44030 0.02900
C 	C 	0.35210 0.60168 0.36770 -0.07700
H 	H 	0.39810 0.60400 0.42780 0.05600
C 	C 	0.54700 0.64867 0.33890 -0.13600
H 	H 	0.58010 0.63220 0.40040 0.07700
C 	C 	0.54670 0.69707 0.33980 0.06400
H 	H 	0.57870 0.71350 0.40240 0.02200
Cl	Cl	0.01250 0.36283 0.58970 -1.15300
O 	O 	0.99190 0.42750 0.47560 -0.39800
N 	N 	0.01410 0.48020 0.62920 -0.36900
C 	C 	0.98290 0.43770 0.57160 0.87500
C 	C 	0.92260 0.41990 0.64300 -1.10600
H 	H 	0.88360 0.44480 0.65070 0.47100
H 	H 	0.89400 0.39270 0.60350 0.41100
H 	H 	0.95090 0.41050 0.72000 0.51000
C 	C 	0.07110 0.50370 0.56300 -0.08900
H 	H 	0.12300 0.48700 0.57610 0.08900
H 	H 	0.04830 0.50350 0.47970 0.07200
H 	H 	0.07970 0.53630 0.58990 0.12300
H 	H 	0.96180 0.46980 0.77020 -1.00900
H 	H 	0.97750 0.52330 0.74970 -0.60600
H 	H 	0.04910 0.49070 0.80620 -0.98400
O 	O 	0.05490 0.33290 0.55450 -0.74900
H 	H 	0.02910 0.33410 0.61020 0.82600
H 	H 	0.10430 0.32870 0.58020 0.31300
Zn	Zn	0.51196 0.85988 0.39882 1.28800
O 	O 	0.03130 0.29528 0.34330 -0.44600
O 	O 	0.59860 0.89784 0.35180 -0.44400
O 	O 	0.59990 0.87323 0.17120 -0.46300
C 	C 	0.62920 0.89522 0.26240 0.41800
C 	C 	0.70800 0.92026 0.26160 -0.13700
C 	C 	0.74500 0.91940 0.16570 0.06000
H 	H 	0.72160 0.90190 0.09870 0.02200
C 	C 	0.81760 0.94425 0.16590 -0.11900
H 	H 	0.84360 0.94280 0.09960 0.08900
C 	C 	0.85130 0.97056 0.26080 0.07300
C 	C 	0.81470 0.97120 0.35670 -0.13000
H 	H 	0.83800 0.98890 0.42320 0.08200
C 	C 	0.74410 0.94630 0.35800 0.06500
H 	H 	0.71970 0.94690 0.42590 0.02200
C 	C 	0.92870 0.99680 0.25850 0.07000
C 	C 	0.01500 0.89492 0.15230 -0.13700
H 	H 	0.02570 0.91150 0.08560 0.05700
C 	C 	0.01450 0.84630 0.15170 0.07300
H 	H 	0.02400 0.82970 0.08450 -0.01300
C 	C 	0.92880 0.04654 0.25800 0.10300
C 	C 	0.85360 0.07281 0.27020 0.01900
C 	C 	0.78610 0.06970 0.18470 -0.05500
H 	H 	0.78690 0.04980 0.11940 0.05000
C 	C 	0.71660 0.09550 0.19270 -0.04000
H 	H 	0.67040 0.09320 0.13300 0.06400
C 	C 	0.71510 0.12440 0.28700 -0.05400
H 	H 	0.66810 0.14250 0.29170 0.03700
C 	C 	0.78110 0.12710 0.37430 -0.01800
H 	H 	0.77890 0.14640 0.44030 0.04700
C 	C 	0.85210 0.10168 0.36770 -0.06100
H 	H 	0.89810 0.10400 0.42780 0.09500
C 	C 	0.04700 0.14867 0.33890 -0.12700
H 	H 	0.08010 0.13220 0.40040 0.06800
C 	C 	0.04670 0.19707 0.33980 0.06500
H 	H 	0.07870 0.21350 0.40240 0.01500
Cl	Cl	0.51250 0.86283 0.58970 -0.98400
O 	O 	0.49190 0.92750 0.47560 -0.41600
N 	N 	0.51410 0.98020 0.62920 -0.21100
C 	C 	0.48290 0.93770 0.57160 0.59800
C 	C 	0.42260 0.91990 0.64300 -0.90800
H 	H 	0.38360 0.94480 0.65070 0.33600
H 	H 	0.39400 0.89270 0.60350 0.33600
H 	H 	0.45090 0.91050 0.72000 0.35600
C 	C 	0.57110 0.00370 0.56300 -0.25300
H 	H 	0.62300 0.98700 0.57610 0.12000
H 	H 	0.54830 0.00350 0.47970 0.14200
H 	H 	0.57970 0.03630 0.58990 0.15300
H 	H 	0.46180 0.96980 0.77020 -0.35600
H 	H 	0.47750 0.02330 0.74970 -0.25900
H 	H 	0.54910 0.99070 0.80620 -0.34700
O 	O 	0.55490 0.83290 0.55450 -0.76200
H 	H 	0.52910 0.83410 0.61020 0.79300
H 	H 	0.60430 0.82870 0.58020 0.32900
Zn	Zn	0.98804 0.35988 0.10118 1.31800
O 	O 	0.46870 0.79528 0.15670 -0.44700
O 	O 	0.90140 0.39784 0.14820 -0.38800
O 	O 	0.90010 0.37323 0.32880 -0.41100
C 	C 	0.87080 0.39522 0.23760 0.42200
C 	C 	0.79200 0.42026 0.23840 -0.13000
C 	C 	0.75500 0.41940 0.33430 0.06400
H 	H 	0.77840 0.40190 0.40130 0.01900
C 	C 	0.68240 0.44425 0.33410 -0.14000
H 	H 	0.65640 0.44280 0.40040 0.07700
C 	C 	0.64870 0.47056 0.23920 0.09500
C 	C 	0.68530 0.47120 0.14330 -0.14600
H 	H 	0.66200 0.48890 0.07680 0.07900
C 	C 	0.75590 0.44630 0.14200 0.07700
H 	H 	0.78030 0.44690 0.07410 0.02800
C 	C 	0.57130 0.49680 0.24150 -0.04500
C 	C 	0.48500 0.39492 0.34770 -0.08200
H 	H 	0.47430 0.41150 0.41440 0.05700
C 	C 	0.48550 0.34630 0.34830 -0.00800
H 	H 	0.47600 0.32970 0.41550 0.03100
C 	C 	0.57120 0.54654 0.24200 -0.00000
C 	C 	0.64640 0.57281 0.22980 0.03400
C 	C 	0.71390 0.56970 0.31530 -0.06800
H 	H 	0.71310 0.54980 0.38060 0.05600
C 	C 	0.78340 0.59550 0.30730 -0.02600
H 	H 	0.82960 0.59320 0.36700 0.07100
C 	C 	0.78490 0.62440 0.21300 -0.06700
H 	H 	0.83190 0.64250 0.20830 0.04800
C 	C 	0.71890 0.62710 0.12570 -0.01300
H 	H 	0.72110 0.64640 0.05970 0.03700
C 	C 	0.64790 0.60168 0.13230 -0.07900
H 	H 	0.60190 0.60400 0.07220 0.05900
C 	C 	0.45300 0.64867 0.16110 -0.13700
H 	H 	0.41990 0.63220 0.09960 0.07800
C 	C 	0.45330 0.69707 0.16020 0.06400
H 	H 	0.42130 0.71350 0.09760 0.02100
Cl	Cl	0.98750 0.36283 0.91030 -0.81900
O 	O 	0.00810 0.42750 0.02440 -0.45200
N 	N 	0.98590 0.48020 0.87080 -0.16200
C 	C 	0.01710 0.43770 0.92840 0.52600
C 	C 	0.07740 0.41990 0.85700 -0.82900
H 	H 	0.11640 0.44480 0.84930 0.39100
H 	H 	0.10600 0.39270 0.89650 0.28400
H 	H 	0.04910 0.41050 0.78000 0.33300
C 	C 	0.92890 0.50370 0.93700 -0.14300
H 	H 	0.87700 0.48700 0.92390 0.11200
H 	H 	0.95170 0.50350 0.02030 0.16900
H 	H 	0.92030 0.53630 0.91010 0.14200
H 	H 	0.03820 0.46980 0.72980 -1.04900
H 	H 	0.02250 0.52330 0.75030 -0.86600
H 	H 	0.95090 0.49070 0.69380 -0.93900
O 	O 	0.94510 0.33290 0.94550 -0.77400
H 	H 	0.97090 0.33410 0.88980 0.76200
H 	H 	0.89570 0.32870 0.91980 0.34200
Zn	Zn	0.48804 0.85988 0.10118 1.28900
O 	O 	0.96870 0.29528 0.15670 -0.32200
O 	O 	0.40140 0.89784 0.14820 -0.44500
O 	O 	0.40010 0.87323 0.32880 -0.46700
C 	C 	0.37080 0.89522 0.23760 0.41800
C 	C 	0.29200 0.92026 0.23840 -0.14200
C 	C 	0.25500 0.91940 0.33430 0.06000
H 	H 	0.27840 0.90190 0.40130 0.01500
C 	C 	0.18240 0.94425 0.33410 -0.13500
H 	H 	0.15640 0.94280 0.40040 0.06600
C 	C 	0.14870 0.97056 0.23920 0.08300
C 	C 	0.18530 0.97120 0.14330 -0.14000
H 	H 	0.16200 0.98890 0.07680 0.07200
C 	C 	0.25590 0.94630 0.14200 0.06800
H 	H 	0.28030 0.94690 0.07410 0.02200
C 	C 	0.07130 0.99680 0.24150 -0.03000
C 	C 	0.98500 0.89492 0.34770 -0.01000
H 	H 	0.97430 0.91150 0.41440 0.07700
C 	C 	0.98550 0.84630 0.34830 0.20500
H 	H 	0.97600 0.82970 0.41550 -0.00500
C 	C 	0.07120 0.04654 0.24200 0.00500
C 	C 	0.14640 0.07281 0.22980 0.01800
C 	C 	0.21390 0.06970 0.31530 -0.05800
H 	H 	0.21310 0.04980 0.38060 0.04800
C 	C 	0.28340 0.09550 0.30730 -0.04300
H 	H 	0.32960 0.09320 0.36700 0.06400
C 	C 	0.28490 0.12440 0.21300 -0.05200
H 	H 	0.33190 0.14250 0.20830 0.03300
C 	C 	0.21890 0.12710 0.12570 -0.03400
H 	H 	0.22110 0.14640 0.05970 0.03100
C 	C 	0.14790 0.10168 0.13230 -0.06300
H 	H 	0.10190 0.10400 0.07220 0.02400
C 	C 	0.95300 0.14867 0.16110 -0.00300
H 	H 	0.91990 0.13220 0.09960 0.05500
C 	C 	0.95330 0.19707 0.16020 0.18200
H 	H 	0.92130 0.21350 0.09760 0.00400
Cl	Cl	0.48750 0.86283 0.91030 -0.98500
O 	O 	0.50810 0.92750 0.02440 -0.41000
N 	N 	0.48590 0.98020 0.87080 -0.20900
C 	C 	0.51710 0.93770 0.92840 0.59100
C 	C 	0.57740 0.91990 0.85700 -0.90100
H 	H 	0.61640 0.94480 0.84930 0.33400
H 	H 	0.60600 0.89270 0.89650 0.33500
H 	H 	0.54910 0.91050 0.78000 0.35400
C 	C 	0.42890 0.00370 0.93700 -0.26000
H 	H 	0.37700 0.98700 0.92390 0.12100
H 	H 	0.45170 0.00350 0.02030 0.14600
H 	H 	0.42030 0.03630 0.91010 0.15500
H 	H 	0.53820 0.96980 0.72980 -0.35600
H 	H 	0.52250 0.02330 0.75030 -0.25900
H 	H 	0.45090 0.99070 0.69380 -0.34700
O 	O 	0.44510 0.83290 0.94550 -0.76300
H 	H 	0.47090 0.83410 0.88980 0.79400
H 	H 	0.39570 0.82870 0.91980 0.32500
C 	C 	0.50000 0.47290 0.25000 0.00200
C 	C 	0.50000 0.42030 0.25000 0.03600
C 	C 	0.50000 0.32150 0.25000 -0.06200
H 	H 	0.50000 0.28800 0.25000 0.04300
C 	C 	0.50000 0.57070 0.25000 -0.04300
C 	C 	0.50000 0.62350 0.25000 0.08800
C 	C 	0.50000 0.72200 0.25000 -0.13500
C 	C 	0.50000 0.77470 0.25000 0.38400
C 	C 	0.00000 0.97290 0.25000 -0.12700
C 	C 	0.00000 0.92030 0.25000 -0.04000
C 	C 	0.00000 0.82150 0.25000 -0.30400
H 	H 	-0.00000 0.78800 0.25000 0.08100
C 	C 	0.00000 0.07070 0.25000 -0.14900
C 	C 	0.00000 0.12350 0.25000 -0.03800
C 	C 	0.00000 0.22200 0.25000 -0.24600
C 	C 	0.00000 0.27470 0.25000 0.25400
C 	C 	0.00000 0.49221 0.75000 4.59100
C 	C 	0.50000 0.99221 0.75000 1.70700
