data_crystal

_cell_length_a 16.15960
_cell_length_b 16.15960
_cell_length_c 31.23270
_cell_angle_alpha 99.95500
_cell_angle_beta  99.95500
_cell_angle_gamma 96.31440

_symmetry_space_group_name_	'P 1'
_symmetry_space_group_name_H-M	'P 1'

loop_
_symmetry_equiv_pos_as_xyz
  x,y,z

loop_
_atom_site_label
_atom_site_type_symbol
_atom_site_fract_x
_atom_site_fract_y
_atom_site_fract_z
_atom_site_charge
Sm	Sm	0.31521 0.85602 0.80073 2.04300
Sm	Sm	0.13728 0.51744 0.58687 1.82900
Sm	Sm	0.14398 0.68479 0.69927 2.04300
Sm	Sm	0.48256 0.86272 0.91313 1.82900
Sm	Sm	0.68479 0.14398 0.19927 2.04300
Sm	Sm	0.86272 0.48256 0.41313 1.82900
Sm	Sm	0.85602 0.31521 0.30073 2.04300
Sm	Sm	0.51744 0.13728 0.08687 1.82900
H 	H 	0.52100 0.12920 0.43060 0.06700
H 	H 	0.43560 0.18280 0.48420 0.06200
H 	H 	0.48630 0.22090 0.66350 0.05900
H 	H 	0.54790 0.13610 0.71570 0.06400
H 	H 	0.70200 0.85480 0.69420 0.06000
H 	H 	0.79050 0.80250 0.64090 0.05800
H 	H 	0.86770 0.89490 0.49460 0.05900
H 	H 	0.80120 0.97480 0.44080 0.05700
H 	H 	0.61040 0.06200 0.54580 0.14100
H 	H 	0.67170 0.98630 0.59510 0.14200
H 	H 	0.49980 0.31240 0.54730 0.07500
H 	H 	0.40350 0.41190 0.55130 0.03400
H 	H 	0.25790 0.25670 0.60730 0.03300
H 	H 	0.35280 0.15800 0.60130 0.07500
H 	H 	0.53310 0.86310 0.69130 0.09000
H 	H 	0.49700 0.83100 0.75600 -0.00200
H 	H 	0.64010 0.05210 0.82480 0.00600
H 	H 	0.67380 0.08440 0.75940 0.10600
H 	H 	0.95010 0.91610 0.60980 0.09800
H 	H 	0.04450 0.81870 0.62210 -0.02000
H 	H 	0.87460 0.62980 0.54240 -0.01400
H 	H 	0.78090 0.72550 0.52900 0.09900
H 	H 	0.77540 0.16340 0.44690 0.10600
H 	H 	0.79040 0.20100 0.37990 -0.02400
H 	H 	0.59170 0.02070 0.31620 -0.00500
H 	H 	0.57770 0.98370 0.38340 0.10800
H 	H 	0.90530 0.08110 0.83460 0.05800
H 	H 	0.81850 0.14090 0.88700 0.06400
H 	H 	0.59140 0.35560 0.88610 0.06100
H 	H 	0.53600 0.44580 0.83310 0.06200
H 	H 	0.02790 0.13550 0.79960 0.09800
H 	H 	0.12700 0.04180 0.79830 -0.00900
H 	H 	0.58540 0.14800 0.87150 0.09900
H 	H 	0.55110 0.12390 0.93820 -0.01000
H 	H 	0.74660 0.29660 0.00450 -0.00400
H 	H 	0.78460 0.31860 0.93880 0.11100
H 	H 	0.60360 0.57840 0.79080 0.09100
H 	H 	0.50330 0.67610 0.79040 -0.00100
H 	H 	0.87080 0.47900 0.06940 0.06800
H 	H 	0.81720 0.56440 0.01580 0.06300
H 	H 	0.77910 0.51370 0.83650 0.06000
H 	H 	0.86390 0.45210 0.78430 0.06500
H 	H 	0.14520 0.29800 0.80580 0.06100
H 	H 	0.19750 0.20950 0.85910 0.05900
H 	H 	0.10510 0.13230 0.00540 0.06000
H 	H 	0.02520 0.19880 0.05920 0.05800
H 	H 	0.93800 0.38960 0.95420 0.14200
H 	H 	0.01370 0.32830 0.90490 0.14300
H 	H 	0.68760 0.50020 0.95270 0.07500
H 	H 	0.58810 0.59650 0.94870 0.03500
H 	H 	0.74330 0.74210 0.89270 0.03400
H 	H 	0.84200 0.64720 0.89870 0.07600
H 	H 	0.13690 0.46690 0.80870 0.09000
H 	H 	0.16900 0.50300 0.74400 -0.00200
H 	H 	0.94790 0.35990 0.67520 0.00600
H 	H 	0.91560 0.32620 0.74060 0.10600
H 	H 	0.08390 0.04990 0.89020 0.09800
H 	H 	0.18130 0.95550 0.87790 -0.02000
H 	H 	0.37020 0.12540 0.95760 -0.01400
H 	H 	0.27450 0.21910 0.97100 0.09900
H 	H 	0.83660 0.22460 0.05310 0.10600
H 	H 	0.79900 0.20960 0.12010 -0.02400
H 	H 	0.97930 0.40830 0.18380 -0.00500
H 	H 	0.01630 0.42230 0.11660 0.10700
H 	H 	0.91890 0.09470 0.66540 0.05800
H 	H 	0.85910 0.18150 0.61300 0.06400
H 	H 	0.64440 0.40860 0.61390 0.06100
H 	H 	0.55420 0.46400 0.66690 0.06200
H 	H 	0.86450 0.97210 0.70040 0.09800
H 	H 	0.95820 0.87300 0.70170 -0.00900
H 	H 	0.85200 0.41460 0.62850 0.09900
H 	H 	0.87610 0.44890 0.56180 -0.01000
H 	H 	0.70340 0.25340 0.49550 -0.00400
H 	H 	0.68140 0.21540 0.56120 0.11100
H 	H 	0.42160 0.39640 0.70920 0.09100
H 	H 	0.32390 0.49670 0.70960 -0.00100
H 	H 	0.47900 0.87080 0.56940 0.06800
H 	H 	0.56440 0.81720 0.51580 0.06300
H 	H 	0.51370 0.77910 0.33650 0.06000
H 	H 	0.45210 0.86390 0.28430 0.06500
H 	H 	0.29800 0.14520 0.30580 0.06100
H 	H 	0.20950 0.19750 0.35910 0.05900
H 	H 	0.13230 0.10510 0.50540 0.06000
H 	H 	0.19880 0.02520 0.55920 0.05800
H 	H 	0.38960 0.93800 0.45420 0.14200
H 	H 	0.32830 0.01370 0.40490 0.14300
H 	H 	0.50020 0.68760 0.45270 0.07600
H 	H 	0.59650 0.58810 0.44870 0.03500
H 	H 	0.74210 0.74330 0.39270 0.03400
H 	H 	0.64720 0.84200 0.39870 0.07600
H 	H 	0.46690 0.13690 0.30870 0.09000
H 	H 	0.50300 0.16900 0.24400 -0.00200
H 	H 	0.35990 0.94790 0.17520 0.00600
H 	H 	0.32620 0.91560 0.24060 0.10600
H 	H 	0.04990 0.08390 0.39020 0.09800
H 	H 	0.95550 0.18130 0.37790 -0.02000
H 	H 	0.12540 0.37020 0.45760 -0.01400
H 	H 	0.21910 0.27450 0.47100 0.09900
H 	H 	0.22460 0.83660 0.55310 0.10600
H 	H 	0.20960 0.79900 0.62010 -0.02400
H 	H 	0.40830 0.97930 0.68380 -0.00500
H 	H 	0.42230 0.01630 0.61660 0.10800
H 	H 	0.09470 0.91890 0.16540 0.05800
H 	H 	0.18150 0.85910 0.11300 0.06400
H 	H 	0.40860 0.64440 0.11390 0.06100
H 	H 	0.46400 0.55420 0.16690 0.06200
H 	H 	0.97210 0.86450 0.20040 0.09800
H 	H 	0.87300 0.95820 0.20170 -0.00900
H 	H 	0.41460 0.85200 0.12850 0.09900
H 	H 	0.44890 0.87610 0.06180 -0.01000
H 	H 	0.25340 0.70340 0.99550 -0.00400
H 	H 	0.21540 0.68140 0.06120 0.11100
H 	H 	0.39640 0.42160 0.20920 0.09100
H 	H 	0.49670 0.32390 0.20960 -0.00100
H 	H 	0.12920 0.52100 0.93060 0.06800
H 	H 	0.18280 0.43560 0.98420 0.06300
H 	H 	0.22090 0.48630 0.16350 0.06000
H 	H 	0.13610 0.54790 0.21570 0.06500
H 	H 	0.85480 0.70200 0.19420 0.06100
H 	H 	0.80250 0.79050 0.14090 0.05900
H 	H 	0.89490 0.86770 0.99460 0.06000
H 	H 	0.97480 0.80120 0.94080 0.05800
H 	H 	0.06200 0.61040 0.04580 0.14200
H 	H 	0.98630 0.67170 0.09510 0.14300
H 	H 	0.31240 0.49980 0.04730 0.07500
H 	H 	0.41190 0.40350 0.05130 0.03500
H 	H 	0.25670 0.25790 0.10730 0.03400
H 	H 	0.15800 0.35280 0.10130 0.07600
H 	H 	0.86310 0.53310 0.19130 0.09000
H 	H 	0.83100 0.49700 0.25600 -0.00200
H 	H 	0.05210 0.64010 0.32480 0.00600
H 	H 	0.08440 0.67380 0.25940 0.10600
H 	H 	0.91610 0.95010 0.10980 0.09800
H 	H 	0.81870 0.04450 0.12210 -0.02000
H 	H 	0.62980 0.87460 0.04240 -0.01400
H 	H 	0.72550 0.78090 0.02900 0.09900
H 	H 	0.16340 0.77540 0.94690 0.10600
H 	H 	0.20100 0.79040 0.87990 -0.02400
H 	H 	0.02070 0.59170 0.81620 -0.00500
H 	H 	0.98370 0.57770 0.88340 0.10700
H 	H 	0.08110 0.90530 0.33460 0.05800
H 	H 	0.14090 0.81850 0.38700 0.06400
H 	H 	0.35560 0.59140 0.38610 0.06100
H 	H 	0.44580 0.53600 0.33310 0.06200
H 	H 	0.13550 0.02790 0.29960 0.09800
H 	H 	0.04180 0.12700 0.29830 -0.00900
H 	H 	0.14800 0.58540 0.37150 0.09900
H 	H 	0.12390 0.55110 0.43820 -0.01000
H 	H 	0.29660 0.74660 0.50450 -0.00400
H 	H 	0.31860 0.78460 0.43880 0.11100
H 	H 	0.57840 0.60360 0.29080 0.09100
H 	H 	0.67610 0.50330 0.29040 -0.00100
C 	C 	0.59210 0.08250 0.48330 0.13400
C 	C 	0.52890 0.12390 0.46090 -0.08500
C 	C 	0.48310 0.15370 0.49000 -0.07600
C 	C 	0.51860 0.13380 0.53210 0.12300
C 	C 	0.49840 0.16460 0.57300 -0.11600
C 	C 	0.53230 0.14110 0.61310 0.10100
C 	C 	0.51600 0.17440 0.65650 -0.07200
C 	C 	0.54960 0.12840 0.68500 -0.07700
C 	C 	0.58880 0.06520 0.66040 0.11200
C 	C 	0.62180 0.99760 0.67519 -0.12400
C 	C 	0.66870 0.94250 0.65230 0.12300
C 	C 	0.70840 0.87520 0.66807 -0.08700
C 	C 	0.75630 0.84630 0.63895 -0.08700
C 	C 	0.74520 0.89500 0.60411 0.12900
C 	C 	0.78780 0.88740 0.56850 -0.13400
C 	C 	0.77540 0.93000 0.53310 0.11400
C 	C 	0.82080 0.92460 0.49720 -0.08200
C 	C 	0.78530 0.96870 0.46810 -0.07700
C 	C 	0.71760 0.00540 0.48657 0.11000
C 	C 	0.66030 0.05110 0.46558 -0.13500
C 	C 	0.43560 0.22580 0.57510 0.10100
C 	C 	0.45070 0.30130 0.55940 -0.12500
C 	C 	0.39320 0.36060 0.56180 0.02100
C 	C 	0.31950 0.34330 0.57990 -0.08100
C 	C 	0.30640 0.26860 0.59480 0.02800
C 	C 	0.36390 0.20990 0.59160 -0.13100
C 	C 	0.25590 0.40510 0.58300 0.26100
C 	C 	0.60550 0.97730 0.71861 0.13100
C 	C 	0.55370 0.90210 0.71860 -0.17300
C 	C 	0.53180 0.88280 0.75670 0.10100
C 	C 	0.56240 0.94160 0.79699 -0.18400
C 	C 	0.61670 0.01450 0.79740 0.09700
C 	C 	0.63780 0.03340 0.75860 -0.18000
C 	C 	0.53300 0.92600 0.83786 0.40500
C 	C 	0.85420 0.82880 0.57041 0.14400
C 	C 	0.93400 0.85780 0.59670 -0.20000
C 	C 	0.99010 0.79950 0.60370 0.12100
C 	C 	0.96870 0.71510 0.58454 -0.21600
C 	C 	0.88970 0.68790 0.55650 0.11800
C 	C 	0.83380 0.74420 0.54900 -0.20100
C 	C 	0.02670 0.65170 0.59400 0.43700
C 	C 	0.67240 0.07060 0.42177 0.15400
C 	C 	0.73760 0.13520 0.42040 -0.20000
C 	C 	0.74650 0.15750 0.38060 0.14800
C 	C 	0.69120 0.11620 0.34131 -0.24100
C 	C 	0.62860 0.05040 0.34270 0.13800
C 	C 	0.62030 0.02870 0.38280 -0.21000
C 	C 	0.69950 0.14170 0.29920 0.50400
C 	C 	0.84590 0.15230 0.78952 0.10200
C 	C 	0.86580 0.11940 0.82940 -0.07300
C 	C 	0.81880 0.15240 0.85820 -0.08000
C 	C 	0.76880 0.20880 0.83698 0.11300
C 	C 	0.70860 0.25220 0.85491 -0.12200
C 	C 	0.66090 0.30730 0.83601 0.11300
C 	C 	0.60420 0.35660 0.85770 -0.07900
C 	C 	0.57310 0.40510 0.82810 -0.08300
C 	C 	0.60560 0.38420 0.78870 0.11100
C 	C 	0.01440 0.08280 0.77910 -0.18700
C 	C 	0.07310 0.02690 0.77900 0.11600
C 	C 	0.68990 0.23610 0.89880 0.15400
C 	C 	0.61930 0.17830 0.89880 -0.19900
C 	C 	0.59820 0.16480 0.93850 0.13800
C 	C 	0.64580 0.21100 0.97860 -0.23200
C 	C 	0.71300 0.26560 0.97730 0.13800
C 	C 	0.73620 0.27900 0.93810 -0.21200
C 	C 	0.63400 0.21160 0.02470 0.48300
C 	C 	0.54720 0.56140 0.77440 -0.17200
C 	C 	0.48680 0.61960 0.77390 0.10200
C 	C 	0.91750 0.40790 0.01670 0.13400
C 	C 	0.87610 0.47110 0.03910 -0.08500
C 	C 	0.84630 0.51690 0.01000 -0.07600
C 	C 	0.86620 0.48140 0.96790 0.12300
C 	C 	0.83540 0.50160 0.92700 -0.11600
C 	C 	0.85890 0.46770 0.88690 0.10100
C 	C 	0.82560 0.48400 0.84350 -0.07200
C 	C 	0.87160 0.45040 0.81500 -0.07700
C 	C 	0.93480 0.41120 0.83960 0.11200
C 	C 	0.00240 0.37820 0.82481 -0.12400
C 	C 	0.05750 0.33130 0.84770 0.12300
C 	C 	0.12480 0.29160 0.83193 -0.08700
C 	C 	0.15370 0.24370 0.86105 -0.08700
C 	C 	0.10500 0.25480 0.89589 0.12900
C 	C 	0.11260 0.21220 0.93150 -0.13400
C 	C 	0.07000 0.22460 0.96690 0.11400
C 	C 	0.07540 0.17920 0.00280 -0.08300
C 	C 	0.03130 0.21470 0.03190 -0.07700
C 	C 	0.99460 0.28240 0.01343 0.11000
C 	C 	0.94890 0.33970 0.03442 -0.13500
C 	C 	0.77420 0.56440 0.92490 0.10100
C 	C 	0.69870 0.54930 0.94060 -0.12500
C 	C 	0.63940 0.60680 0.93820 0.02100
C 	C 	0.65670 0.68050 0.92010 -0.08100
C 	C 	0.73140 0.69360 0.90520 0.02800
C 	C 	0.79010 0.63610 0.90840 -0.13100
C 	C 	0.59490 0.74410 0.91700 0.26100
C 	C 	0.02270 0.39450 0.78139 0.13100
C 	C 	0.09790 0.44630 0.78140 -0.17300
C 	C 	0.11720 0.46820 0.74330 0.10100
C 	C 	0.05840 0.43760 0.70301 -0.18400
C 	C 	0.98550 0.38330 0.70260 0.09700
C 	C 	0.96660 0.36220 0.74140 -0.18000
C 	C 	0.07400 0.46700 0.66214 0.40500
C 	C 	0.17120 0.14580 0.92959 0.14400
C 	C 	0.14220 0.06600 0.90330 -0.20000
C 	C 	0.20050 0.00990 0.89630 0.12100
C 	C 	0.28490 0.03130 0.91546 -0.21600
C 	C 	0.31210 0.11030 0.94350 0.11800
C 	C 	0.25580 0.16620 0.95100 -0.20100
C 	C 	0.34830 0.97330 0.90600 0.43700
C 	C 	0.92940 0.32760 0.07823 0.15400
C 	C 	0.86480 0.26240 0.07960 -0.20000
C 	C 	0.84250 0.25350 0.11940 0.14800
C 	C 	0.88380 0.30880 0.15869 -0.24100
C 	C 	0.94960 0.37140 0.15730 0.13800
C 	C 	0.97130 0.37970 0.11720 -0.21000
C 	C 	0.85830 0.30050 0.20080 0.50400
C 	C 	0.84770 0.15410 0.71048 0.10200
C 	C 	0.88060 0.13420 0.67060 -0.07300
C 	C 	0.84760 0.18120 0.64180 -0.08000
C 	C 	0.79120 0.23120 0.66302 0.11300
C 	C 	0.74780 0.29140 0.64509 -0.12200
C 	C 	0.69270 0.33910 0.66399 0.11300
C 	C 	0.64340 0.39580 0.64230 -0.07900
C 	C 	0.59490 0.42690 0.67190 -0.08300
C 	C 	0.61580 0.39440 0.71130 0.11100
C 	C 	0.91720 0.98560 0.72090 -0.18700
C 	C 	0.97310 0.92690 0.72100 0.11600
C 	C 	0.76390 0.31010 0.60120 0.15400
C 	C 	0.82170 0.38070 0.60120 -0.19900
C 	C 	0.83520 0.40180 0.56150 0.13800
C 	C 	0.78900 0.35420 0.52140 -0.23200
C 	C 	0.73440 0.28700 0.52270 0.13800
C 	C 	0.72100 0.26380 0.56190 -0.21200
C 	C 	0.78840 0.36600 0.47530 0.48300
C 	C 	0.43860 0.45280 0.72560 -0.17200
C 	C 	0.38040 0.51320 0.72610 0.10200
C 	C 	0.40790 0.91750 0.51670 0.13400
C 	C 	0.47110 0.87610 0.53910 -0.08500
C 	C 	0.51690 0.84630 0.51000 -0.07600
C 	C 	0.48140 0.86620 0.46790 0.12300
C 	C 	0.50160 0.83540 0.42700 -0.11600
C 	C 	0.46770 0.85890 0.38690 0.10100
C 	C 	0.48400 0.82560 0.34350 -0.07200
C 	C 	0.45040 0.87160 0.31500 -0.07700
C 	C 	0.41120 0.93480 0.33960 0.11200
C 	C 	0.37820 0.00240 0.32481 -0.12400
C 	C 	0.33130 0.05750 0.34770 0.12300
C 	C 	0.29160 0.12480 0.33193 -0.08700
C 	C 	0.24370 0.15370 0.36105 -0.08700
C 	C 	0.25480 0.10500 0.39589 0.12900
C 	C 	0.21220 0.11260 0.43150 -0.13400
C 	C 	0.22460 0.07000 0.46690 0.11400
C 	C 	0.17920 0.07540 0.50280 -0.08200
C 	C 	0.21470 0.03130 0.53190 -0.07700
C 	C 	0.28240 0.99460 0.51343 0.11000
C 	C 	0.33970 0.94890 0.53442 -0.13500
C 	C 	0.56440 0.77420 0.42490 0.10100
C 	C 	0.54930 0.69870 0.44060 -0.12500
C 	C 	0.60680 0.63940 0.43820 0.02100
C 	C 	0.68050 0.65670 0.42010 -0.08100
C 	C 	0.69360 0.73140 0.40520 0.02800
C 	C 	0.63610 0.79010 0.40840 -0.13100
C 	C 	0.74410 0.59490 0.41700 0.26100
C 	C 	0.39450 0.02270 0.28139 0.13100
C 	C 	0.44630 0.09790 0.28140 -0.17300
C 	C 	0.46820 0.11720 0.24330 0.10100
C 	C 	0.43760 0.05840 0.20301 -0.18400
C 	C 	0.38330 0.98550 0.20260 0.09700
C 	C 	0.36220 0.96660 0.24140 -0.18000
C 	C 	0.46700 0.07400 0.16214 0.40500
C 	C 	0.14580 0.17120 0.42959 0.14400
C 	C 	0.06600 0.14220 0.40330 -0.20000
C 	C 	0.00990 0.20050 0.39630 0.12100
C 	C 	0.03130 0.28490 0.41546 -0.21600
C 	C 	0.11030 0.31210 0.44350 0.11800
C 	C 	0.16620 0.25580 0.45100 -0.20100
C 	C 	0.97330 0.34830 0.40600 0.43700
C 	C 	0.32760 0.92940 0.57823 0.15400
C 	C 	0.26240 0.86480 0.57960 -0.20000
C 	C 	0.25350 0.84250 0.61940 0.14800
C 	C 	0.30880 0.88380 0.65869 -0.24100
C 	C 	0.37140 0.94960 0.65730 0.13800
C 	C 	0.37970 0.97130 0.61720 -0.21000
C 	C 	0.30050 0.85830 0.70080 0.50400
C 	C 	0.15410 0.84770 0.21048 0.10200
C 	C 	0.13420 0.88060 0.17060 -0.07300
C 	C 	0.18120 0.84760 0.14180 -0.08000
C 	C 	0.23120 0.79120 0.16302 0.11300
C 	C 	0.29140 0.74780 0.14509 -0.12200
C 	C 	0.33910 0.69270 0.16399 0.11300
C 	C 	0.39580 0.64340 0.14230 -0.07900
C 	C 	0.42690 0.59490 0.17190 -0.08300
C 	C 	0.39440 0.61580 0.21130 0.11100
C 	C 	0.98560 0.91720 0.22090 -0.18700
C 	C 	0.92690 0.97310 0.22100 0.11600
C 	C 	0.31010 0.76390 0.10120 0.15400
C 	C 	0.38070 0.82170 0.10120 -0.19900
C 	C 	0.40180 0.83520 0.06150 0.13800
C 	C 	0.35420 0.78900 0.02140 -0.23200
C 	C 	0.28700 0.73440 0.02270 0.13800
C 	C 	0.26380 0.72100 0.06190 -0.21200
C 	C 	0.36600 0.78840 0.97530 0.48300
C 	C 	0.45280 0.43860 0.22560 -0.17200
C 	C 	0.51320 0.38040 0.22610 0.10200
C 	C 	0.08250 0.59210 0.98330 0.13400
C 	C 	0.12390 0.52890 0.96090 -0.08500
C 	C 	0.15370 0.48310 0.99000 -0.07600
C 	C 	0.13380 0.51860 0.03210 0.12300
C 	C 	0.16460 0.49840 0.07300 -0.11600
C 	C 	0.14110 0.53230 0.11310 0.10100
C 	C 	0.17440 0.51600 0.15650 -0.07200
C 	C 	0.12840 0.54960 0.18500 -0.07700
C 	C 	0.06520 0.58880 0.16040 0.11200
C 	C 	0.99760 0.62180 0.17519 -0.12400
C 	C 	0.94250 0.66870 0.15230 0.12300
C 	C 	0.87520 0.70840 0.16807 -0.08700
C 	C 	0.84630 0.75630 0.13895 -0.08700
C 	C 	0.89500 0.74520 0.10411 0.12900
C 	C 	0.88740 0.78780 0.06850 -0.13400
C 	C 	0.93000 0.77540 0.03310 0.11400
C 	C 	0.92460 0.82080 0.99720 -0.08300
C 	C 	0.96870 0.78530 0.96810 -0.07700
C 	C 	0.00540 0.71760 0.98657 0.11000
C 	C 	0.05110 0.66030 0.96558 -0.13500
C 	C 	0.22580 0.43560 0.07510 0.10100
C 	C 	0.30130 0.45070 0.05940 -0.12500
C 	C 	0.36060 0.39320 0.06180 0.02100
C 	C 	0.34330 0.31950 0.07990 -0.08100
C 	C 	0.26860 0.30640 0.09480 0.02800
C 	C 	0.20990 0.36390 0.09160 -0.13100
C 	C 	0.40510 0.25590 0.08300 0.26100
C 	C 	0.97730 0.60550 0.21861 0.13100
C 	C 	0.90210 0.55370 0.21860 -0.17300
C 	C 	0.88280 0.53180 0.25670 0.10100
C 	C 	0.94160 0.56240 0.29699 -0.18400
C 	C 	0.01450 0.61670 0.29740 0.09700
C 	C 	0.03340 0.63780 0.25860 -0.18000
C 	C 	0.92600 0.53300 0.33786 0.40500
C 	C 	0.82880 0.85420 0.07041 0.14400
C 	C 	0.85780 0.93400 0.09670 -0.20000
C 	C 	0.79950 0.99010 0.10370 0.12100
C 	C 	0.71510 0.96870 0.08454 -0.21600
C 	C 	0.68790 0.88970 0.05650 0.11800
C 	C 	0.74420 0.83380 0.04900 -0.20100
C 	C 	0.65170 0.02670 0.09400 0.43700
C 	C 	0.07060 0.67240 0.92177 0.15400
C 	C 	0.13520 0.73760 0.92040 -0.20000
C 	C 	0.15750 0.74650 0.88060 0.14800
C 	C 	0.11620 0.69120 0.84131 -0.24100
C 	C 	0.05040 0.62860 0.84270 0.13800
C 	C 	0.02870 0.62030 0.88280 -0.21000
C 	C 	0.14170 0.69950 0.79920 0.50400
C 	C 	0.15230 0.84590 0.28952 0.10200
C 	C 	0.11940 0.86580 0.32940 -0.07300
C 	C 	0.15240 0.81880 0.35820 -0.08000
C 	C 	0.20880 0.76880 0.33698 0.11300
C 	C 	0.25220 0.70860 0.35491 -0.12200
C 	C 	0.30730 0.66090 0.33601 0.11300
C 	C 	0.35660 0.60420 0.35770 -0.07900
C 	C 	0.40510 0.57310 0.32810 -0.08300
C 	C 	0.38420 0.60560 0.28870 0.11100
C 	C 	0.08280 0.01440 0.27910 -0.18700
C 	C 	0.02690 0.07310 0.27900 0.11600
C 	C 	0.23610 0.68990 0.39880 0.15400
C 	C 	0.17830 0.61930 0.39880 -0.19900
C 	C 	0.16480 0.59820 0.43850 0.13800
C 	C 	0.21100 0.64580 0.47860 -0.23200
C 	C 	0.26560 0.71300 0.47730 0.13800
C 	C 	0.27900 0.73620 0.43810 -0.21200
C 	C 	0.21160 0.63400 0.52470 0.48300
C 	C 	0.56140 0.54720 0.27440 -0.17200
C 	C 	0.61960 0.48680 0.27390 0.10200
C 	C 	0.58410 0.41590 0.75000 -0.11300
C 	C 	0.87380 0.12620 0.75000 -0.11200
C 	C 	0.93570 0.06430 0.75000 0.13400
C 	C 	0.05250 0.94750 0.75000 -0.21400
C 	C 	0.11480 0.88520 0.75000 0.50600
C 	C 	0.52130 0.47870 0.75000 0.12100
C 	C 	0.40470 0.59530 0.75000 -0.21200
C 	C 	0.34320 0.65680 0.75000 0.48400
C 	C 	0.41590 0.58410 0.25000 -0.11300
C 	C 	0.12620 0.87380 0.25000 -0.11200
C 	C 	0.06430 0.93570 0.25000 0.13400
C 	C 	0.94750 0.05250 0.25000 -0.21400
C 	C 	0.88520 0.11480 0.25000 0.50600
C 	C 	0.47870 0.52130 0.25000 0.12100
C 	C 	0.59530 0.40470 0.25000 -0.21200
C 	C 	0.65680 0.34320 0.25000 0.48400
N 	N 	0.58176 0.08604 0.52596 -0.22500
N 	N 	0.58213 0.07927 0.61770 -0.14400
N 	N 	0.68998 0.95142 0.61206 -0.22100
N 	N 	0.71515 0.98165 0.52649 -0.14500
N 	N 	0.78692 0.20828 0.79567 -0.12400
N 	N 	0.65893 0.32527 0.79435 -0.12400
N 	N 	0.91396 0.41824 0.97404 -0.22500
N 	N 	0.92073 0.41787 0.88230 -0.14400
N 	N 	0.04858 0.31002 0.88794 -0.22100
N 	N 	0.01835 0.28485 0.97351 -0.14500
N 	N 	0.79172 0.21308 0.70433 -0.12400
N 	N 	0.67473 0.34107 0.70565 -0.12400
N 	N 	0.41824 0.91396 0.47404 -0.22500
N 	N 	0.41787 0.92073 0.38230 -0.14400
N 	N 	0.31002 0.04858 0.38794 -0.22100
N 	N 	0.28485 0.01835 0.47351 -0.14500
N 	N 	0.21308 0.79172 0.20433 -0.12400
N 	N 	0.34107 0.67473 0.20565 -0.12400
N 	N 	0.08604 0.58176 0.02596 -0.22500
N 	N 	0.07927 0.58213 0.11770 -0.14400
N 	N 	0.95142 0.68998 0.11206 -0.22100
N 	N 	0.98165 0.71515 0.02649 -0.14500
N 	N 	0.20828 0.78692 0.29567 -0.12400
N 	N 	0.32527 0.65893 0.29435 -0.12400
O 	O 	0.26810 0.47090 0.56380 -0.39600
O 	O 	0.20030 0.39390 0.60510 -0.41700
O 	O 	0.46387 0.87365 0.83351 -0.63700
O 	O 	0.57249 0.96251 0.87532 -0.41700
O 	O 	0.00466 0.57734 0.57385 -0.48300
O 	O 	0.09624 0.67596 0.62149 -0.60500
O 	O 	0.75131 0.20569 0.29873 -0.60900
O 	O 	0.65163 0.09897 0.26413 -0.52200
O 	O 	0.18682 0.90898 0.77466 -0.53700
O 	O 	0.66820 0.26440 0.05770 -0.34900
O 	O 	0.59130 0.15070 0.03200 -0.53900
O 	O 	0.36909 0.73181 0.77160 -0.53000
O 	O 	0.52910 0.73190 0.93620 -0.39600
O 	O 	0.60610 0.79970 0.89490 -0.41700
O 	O 	0.12635 0.53613 0.66649 -0.63700
O 	O 	0.03749 0.42751 0.62468 -0.41700
O 	O 	0.42266 0.99534 0.92615 -0.48300
O 	O 	0.32404 0.90376 0.87851 -0.60500
O 	O 	0.79431 0.24869 0.20127 -0.60900
O 	O 	0.90103 0.34837 0.23587 -0.52200
O 	O 	0.09102 0.81318 0.72534 -0.53700
O 	O 	0.73560 0.33180 0.44230 -0.34900
O 	O 	0.84930 0.40870 0.46800 -0.53900
O 	O 	0.26819 0.63091 0.72840 -0.53000
O 	O 	0.73190 0.52910 0.43620 -0.39600
O 	O 	0.79970 0.60610 0.39490 -0.41700
O 	O 	0.53613 0.12635 0.16649 -0.63700
O 	O 	0.42751 0.03749 0.12468 -0.41700
O 	O 	0.99534 0.42266 0.42615 -0.48300
O 	O 	0.90376 0.32404 0.37851 -0.60500
O 	O 	0.24869 0.79431 0.70127 -0.60900
O 	O 	0.34837 0.90103 0.73587 -0.52200
O 	O 	0.81318 0.09102 0.22534 -0.53700
O 	O 	0.33180 0.73560 0.94230 -0.34900
O 	O 	0.40870 0.84930 0.96800 -0.53900
O 	O 	0.63091 0.26819 0.22840 -0.53000
O 	O 	0.47090 0.26810 0.06380 -0.39600
O 	O 	0.39390 0.20030 0.10510 -0.41700
O 	O 	0.87365 0.46387 0.33351 -0.63700
O 	O 	0.96251 0.57249 0.37532 -0.41700
O 	O 	0.57734 0.00466 0.07385 -0.48300
O 	O 	0.67596 0.09624 0.12149 -0.60500
O 	O 	0.20569 0.75131 0.79873 -0.60900
O 	O 	0.09897 0.65163 0.76413 -0.52200
O 	O 	0.90898 0.18682 0.27466 -0.53700
O 	O 	0.26440 0.66820 0.55770 -0.34900
O 	O 	0.15070 0.59130 0.53200 -0.53900
O 	O 	0.73181 0.36909 0.27160 -0.53000
