data_crystal

_cell_length_a 9.42170
_cell_length_b 22.14110
_cell_length_c 26.34000
_cell_angle_alpha 90.00000
_cell_angle_beta  90.00000
_cell_angle_gamma 90.00000

_symmetry_space_group_name_	'P 1'
_symmetry_space_group_name_H-M	'P 1'

loop_
_symmetry_equiv_pos_as_xyz
  x,y,z

loop_
_atom_site_label
_atom_site_type_symbol
_atom_site_fract_x
_atom_site_fract_y
_atom_site_fract_z
_atom_site_charge
Er	Er	0.75000 0.00000 0.48619 1.60000
Er	Er	0.75000 0.50000 0.01381 1.73600
Er	Er	0.25000 0.00000 0.51381 1.60100
Er	Er	0.25000 0.50000 0.98619 1.73500
H 	H 	0.86870 0.89050 0.11120 0.08300
H 	H 	0.91120 0.81310 0.04460 0.05600
H 	H 	0.86070 0.80650 0.84320 0.05700
H 	H 	0.81520 0.88200 0.77690 0.08000
H 	H 	0.58560 0.94140 0.14210 0.08400
H 	H 	0.58450 0.94390 0.22990 0.01800
H 	H 	0.69920 0.75480 0.96950 0.10100
H 	H 	0.76220 0.65530 0.98220 -0.00100
H 	H 	0.15330 0.69280 0.93080 0.00100
H 	H 	0.08780 0.79290 0.91630 0.10000
H 	H 	0.90920 0.05990 0.74680 0.08400
H 	H 	0.90770 0.06050 0.65870 0.01700
H 	H 	0.63130 0.10950 0.11120 0.06400
H 	H 	0.58880 0.18690 0.04460 0.05900
H 	H 	0.63930 0.19350 0.84320 0.06000
H 	H 	0.68480 0.11800 0.77690 0.06500
H 	H 	0.91440 0.05860 0.14210 0.08800
H 	H 	0.91550 0.05610 0.22990 0.02000
H 	H 	0.80080 0.24520 0.96950 0.10300
H 	H 	0.73780 0.34470 0.98220 -0.00300
H 	H 	0.34670 0.30720 0.93080 -0.00200
H 	H 	0.41220 0.20710 0.91630 0.10000
H 	H 	0.59080 0.94010 0.74680 0.08500
H 	H 	0.59230 0.93950 0.65870 0.01500
H 	H 	0.63130 0.39050 0.38880 0.06300
H 	H 	0.58880 0.31310 0.45540 0.06000
H 	H 	0.63930 0.30650 0.65680 0.06200
H 	H 	0.68480 0.38200 0.72310 0.06200
H 	H 	0.91440 0.44140 0.35790 0.09100
H 	H 	0.91550 0.44390 0.27010 0.02600
H 	H 	0.80080 0.25480 0.53050 0.10100
H 	H 	0.73780 0.15530 0.51780 -0.00000
H 	H 	0.34670 0.19280 0.56920 0.00000
H 	H 	0.41220 0.29290 0.58370 0.09900
H 	H 	0.59080 0.55990 0.75320 0.08900
H 	H 	0.59230 0.56050 0.84130 0.02200
H 	H 	0.86870 0.60950 0.38880 0.06400
H 	H 	0.91120 0.68690 0.45540 0.06100
H 	H 	0.86070 0.69350 0.65680 0.06300
H 	H 	0.81520 0.61800 0.72310 0.06200
H 	H 	0.58560 0.55860 0.35790 0.09100
H 	H 	0.58450 0.55610 0.27010 0.02600
H 	H 	0.69920 0.74520 0.53050 0.10000
H 	H 	0.76220 0.84470 0.51780 0.00400
H 	H 	0.15330 0.80720 0.56920 0.00600
H 	H 	0.08780 0.70710 0.58370 0.09700
H 	H 	0.90920 0.44010 0.75320 0.08900
H 	H 	0.90770 0.43950 0.84130 0.02300
H 	H 	0.13130 0.10950 0.88880 0.06400
H 	H 	0.08880 0.18690 0.95540 0.05900
H 	H 	0.13930 0.19350 0.15680 0.06100
H 	H 	0.18480 0.11800 0.22310 0.06500
H 	H 	0.41440 0.05860 0.85790 0.08800
H 	H 	0.41550 0.05610 0.77010 0.02000
H 	H 	0.30080 0.24520 0.03050 0.10200
H 	H 	0.23780 0.34470 0.01780 -0.00300
H 	H 	0.84670 0.30720 0.06920 -0.00100
H 	H 	0.91220 0.20710 0.08370 0.10000
H 	H 	0.09080 0.94010 0.25320 0.08500
H 	H 	0.09230 0.93950 0.34130 0.01500
H 	H 	0.36870 0.89050 0.88880 0.08300
H 	H 	0.41120 0.81310 0.95540 0.05500
H 	H 	0.36070 0.80650 0.15680 0.05700
H 	H 	0.31520 0.88200 0.22310 0.08000
H 	H 	0.08560 0.94140 0.85790 0.08400
H 	H 	0.08450 0.94390 0.77010 0.01700
H 	H 	0.19920 0.75480 0.03050 0.10200
H 	H 	0.26220 0.65530 0.01780 -0.00300
H 	H 	0.65330 0.69280 0.06920 -0.00100
H 	H 	0.58780 0.79290 0.08370 0.10000
H 	H 	0.40920 0.05990 0.25320 0.08300
H 	H 	0.40770 0.06050 0.34130 0.01700
H 	H 	0.36870 0.60950 0.61120 0.06400
H 	H 	0.41120 0.68690 0.54460 0.06100
H 	H 	0.36070 0.69350 0.34320 0.06300
H 	H 	0.31520 0.61800 0.27690 0.06200
H 	H 	0.08560 0.55860 0.64210 0.09100
H 	H 	0.08450 0.55610 0.72990 0.02500
H 	H 	0.19920 0.74520 0.46950 0.10000
H 	H 	0.26220 0.84470 0.48220 0.00300
H 	H 	0.65330 0.80720 0.43080 0.00500
H 	H 	0.58780 0.70710 0.41630 0.09800
H 	H 	0.40920 0.44010 0.24680 0.08900
H 	H 	0.40770 0.43950 0.15870 0.02200
H 	H 	0.13130 0.39050 0.61120 0.06300
H 	H 	0.08880 0.31310 0.54460 0.06000
H 	H 	0.13930 0.30650 0.34320 0.06200
H 	H 	0.18480 0.38200 0.27690 0.06200
H 	H 	0.41440 0.44140 0.64210 0.09100
H 	H 	0.41550 0.44390 0.72990 0.02600
H 	H 	0.30080 0.25480 0.46950 0.10100
H 	H 	0.23780 0.15530 0.48220 -0.00000
H 	H 	0.84670 0.19280 0.43080 0.00000
H 	H 	0.91220 0.29290 0.41630 0.09900
H 	H 	0.09080 0.55990 0.24680 0.08900
H 	H 	0.09230 0.56050 0.15870 0.02200
C 	C 	0.79490 0.94710 0.05128 0.19200
C 	C 	0.85180 0.89500 0.07586 -0.10600
C 	C 	0.87720 0.85310 0.03948 -0.06200
C 	C 	0.84280 0.88070 0.99167 0.11600
C 	C 	0.85060 0.85066 0.94448 -0.11400
C 	C 	0.82370 0.87770 0.89722 0.11000
C 	C 	0.83750 0.84780 0.84855 -0.06300
C 	C 	0.81180 0.88880 0.81251 -0.10800
C 	C 	0.77770 0.94540 0.83731 0.18400
C 	C 	0.65270 0.96570 0.15960 -0.09300
C 	C 	0.65330 0.96680 0.21190 0.12600
C 	C 	0.88850 0.78640 0.94590 0.14800
C 	C 	0.79410 0.74290 0.96250 -0.19800
C 	C 	0.83020 0.68320 0.96960 0.13500
C 	C 	0.96490 0.66450 0.95836 -0.21800
C 	C 	0.05990 0.70560 0.93910 0.12200
C 	C 	0.02210 0.76580 0.93140 -0.19700
C 	C 	0.01110 0.60180 0.97050 0.50300
C 	C 	0.84330 0.03520 0.72907 -0.15400
C 	C 	0.84280 0.03550 0.67655 0.07900
C 	C 	0.70510 0.05290 0.05128 0.12400
C 	C 	0.64820 0.10500 0.07586 -0.08600
C 	C 	0.62280 0.14690 0.03948 -0.07600
C 	C 	0.65720 0.11930 0.99167 0.11400
C 	C 	0.64940 0.14934 0.94448 -0.12300
C 	C 	0.67630 0.12230 0.89722 0.11000
C 	C 	0.66250 0.15220 0.84855 -0.07700
C 	C 	0.68820 0.11120 0.81251 -0.08700
C 	C 	0.72230 0.05460 0.83731 0.12000
C 	C 	0.84730 0.03430 0.15960 -0.15200
C 	C 	0.84670 0.03320 0.21190 0.06500
C 	C 	0.61150 0.21360 0.94590 0.14900
C 	C 	0.70590 0.25710 0.96250 -0.20300
C 	C 	0.66980 0.31680 0.96960 0.14100
C 	C 	0.53510 0.33550 0.95836 -0.22900
C 	C 	0.44010 0.29440 0.93910 0.13100
C 	C 	0.47790 0.23420 0.93140 -0.19900
C 	C 	0.48890 0.39820 0.97050 0.51300
C 	C 	0.65670 0.96480 0.72907 -0.09200
C 	C 	0.65720 0.96450 0.67655 0.14100
C 	C 	0.70510 0.44710 0.44872 0.11500
C 	C 	0.64820 0.39500 0.42414 -0.07700
C 	C 	0.62280 0.35310 0.46052 -0.07800
C 	C 	0.65720 0.38070 0.50833 0.11600
C 	C 	0.64940 0.35066 0.55552 -0.12000
C 	C 	0.67630 0.37770 0.60278 0.11200
C 	C 	0.66250 0.34780 0.65145 -0.08100
C 	C 	0.68820 0.38880 0.68749 -0.07800
C 	C 	0.72230 0.44540 0.66269 0.10700
C 	C 	0.84730 0.46570 0.34040 -0.14900
C 	C 	0.84670 0.46680 0.28810 0.05900
C 	C 	0.61150 0.28640 0.55410 0.14600
C 	C 	0.70590 0.24290 0.53750 -0.19900
C 	C 	0.66980 0.18320 0.53040 0.13500
C 	C 	0.53510 0.16450 0.54164 -0.22200
C 	C 	0.44010 0.20560 0.56090 0.12500
C 	C 	0.47790 0.26580 0.56860 -0.19500
C 	C 	0.48890 0.10180 0.52950 0.50000
C 	C 	0.65670 0.53520 0.77093 -0.15300
C 	C 	0.65720 0.53550 0.82345 0.07600
C 	C 	0.79490 0.55290 0.44872 0.11500
C 	C 	0.85180 0.60500 0.42414 -0.07600
C 	C 	0.87720 0.64690 0.46052 -0.07800
C 	C 	0.84280 0.61930 0.50833 0.11600
C 	C 	0.85060 0.64934 0.55552 -0.11900
C 	C 	0.82370 0.62230 0.60278 0.11200
C 	C 	0.83750 0.65220 0.65145 -0.08100
C 	C 	0.81180 0.61120 0.68749 -0.07700
C 	C 	0.77770 0.55460 0.66269 0.10700
C 	C 	0.65270 0.53430 0.34040 -0.14900
C 	C 	0.65330 0.53320 0.28810 0.05900
C 	C 	0.88850 0.71360 0.55410 0.14400
C 	C 	0.79410 0.75710 0.53750 -0.19300
C 	C 	0.83020 0.81680 0.53040 0.12700
C 	C 	0.96490 0.83550 0.54164 -0.20400
C 	C 	0.05990 0.79440 0.56090 0.11500
C 	C 	0.02210 0.73420 0.56860 -0.19000
C 	C 	0.01110 0.89820 0.52950 0.48500
C 	C 	0.84330 0.46480 0.77093 -0.15300
C 	C 	0.84280 0.46450 0.82345 0.07600
C 	C 	0.20510 0.05290 0.94872 0.12400
C 	C 	0.14820 0.10500 0.92414 -0.08600
C 	C 	0.12280 0.14690 0.96052 -0.07700
C 	C 	0.15720 0.11930 0.00833 0.11600
C 	C 	0.14940 0.14934 0.05552 -0.12300
C 	C 	0.17630 0.12230 0.10278 0.11000
C 	C 	0.16250 0.15220 0.15145 -0.07700
C 	C 	0.18820 0.11120 0.18749 -0.08700
C 	C 	0.22230 0.05460 0.16269 0.12000
C 	C 	0.34730 0.03430 0.84040 -0.15200
C 	C 	0.34670 0.03320 0.78810 0.06500
C 	C 	0.11150 0.21360 0.05410 0.15000
C 	C 	0.20590 0.25710 0.03750 -0.20200
C 	C 	0.16980 0.31680 0.03040 0.13900
C 	C 	0.03510 0.33550 0.04164 -0.22500
C 	C 	0.94010 0.29440 0.06090 0.12800
C 	C 	0.97790 0.23420 0.06860 -0.19900
C 	C 	0.98890 0.39820 0.02950 0.50900
C 	C 	0.15670 0.96480 0.27093 -0.09300
C 	C 	0.15720 0.96450 0.32345 0.14000
C 	C 	0.29490 0.94710 0.94872 0.19100
C 	C 	0.35180 0.89500 0.92414 -0.10700
C 	C 	0.37720 0.85310 0.96052 -0.06100
C 	C 	0.34280 0.88070 0.00833 0.11400
C 	C 	0.35060 0.85066 0.05552 -0.11400
C 	C 	0.32370 0.87770 0.10278 0.10900
C 	C 	0.33750 0.84780 0.15145 -0.06400
C 	C 	0.31180 0.88880 0.18749 -0.10800
C 	C 	0.27770 0.94540 0.16269 0.18300
C 	C 	0.15270 0.96570 0.84040 -0.09400
C 	C 	0.15330 0.96680 0.78810 0.12500
C 	C 	0.38850 0.78640 0.05410 0.14600
C 	C 	0.29410 0.74290 0.03750 -0.20100
C 	C 	0.33020 0.68320 0.03040 0.13900
C 	C 	0.46490 0.66450 0.04164 -0.22800
C 	C 	0.55990 0.70560 0.06090 0.12900
C 	C 	0.52210 0.76580 0.06860 -0.19600
C 	C 	0.51110 0.60180 0.02950 0.51200
C 	C 	0.34330 0.03520 0.27093 -0.15500
C 	C 	0.34280 0.03550 0.32345 0.07900
C 	C 	0.29490 0.55290 0.55128 0.11500
C 	C 	0.35180 0.60500 0.57586 -0.07700
C 	C 	0.37720 0.64690 0.53948 -0.07800
C 	C 	0.34280 0.61930 0.49167 0.11600
C 	C 	0.35060 0.64934 0.44448 -0.11900
C 	C 	0.32370 0.62230 0.39722 0.11100
C 	C 	0.33750 0.65220 0.34855 -0.08100
C 	C 	0.31180 0.61120 0.31251 -0.07800
C 	C 	0.27770 0.55460 0.33731 0.10700
C 	C 	0.15270 0.53430 0.65960 -0.15000
C 	C 	0.15330 0.53320 0.71190 0.05900
C 	C 	0.38850 0.71360 0.44590 0.14300
C 	C 	0.29410 0.75710 0.46250 -0.19400
C 	C 	0.33020 0.81680 0.46960 0.13000
C 	C 	0.46490 0.83550 0.45836 -0.21100
C 	C 	0.55990 0.79440 0.43910 0.12000
C 	C 	0.52210 0.73420 0.43140 -0.19000
C 	C 	0.51110 0.89820 0.47050 0.49100
C 	C 	0.34330 0.46480 0.22907 -0.15300
C 	C 	0.34280 0.46450 0.17655 0.07600
C 	C 	0.20510 0.44710 0.55128 0.11500
C 	C 	0.14820 0.39500 0.57586 -0.07700
C 	C 	0.12280 0.35310 0.53948 -0.07800
C 	C 	0.15720 0.38070 0.49167 0.11600
C 	C 	0.14940 0.35066 0.44448 -0.12000
C 	C 	0.17630 0.37770 0.39722 0.11200
C 	C 	0.16250 0.34780 0.34855 -0.08100
C 	C 	0.18820 0.38880 0.31251 -0.07800
C 	C 	0.22230 0.44540 0.33731 0.10700
C 	C 	0.34730 0.46570 0.65960 -0.15000
C 	C 	0.34670 0.46680 0.71190 0.05900
C 	C 	0.11150 0.28640 0.44590 0.14600
C 	C 	0.20590 0.24290 0.46250 -0.19900
C 	C 	0.16980 0.18320 0.46960 0.13500
C 	C 	0.03510 0.16450 0.45836 -0.22100
C 	C 	0.94010 0.20560 0.43910 0.12500
C 	C 	0.97790 0.26580 0.43140 -0.19500
C 	C 	0.98890 0.10180 0.47050 0.50000
C 	C 	0.15670 0.53520 0.22907 -0.15300
C 	C 	0.15720 0.53550 0.17655 0.07600
C 	C 	0.75000 0.00000 0.07620 -0.16700
C 	C 	0.75000 0.00000 0.81270 -0.17500
C 	C 	0.75000 0.00000 0.13250 0.06300
C 	C 	0.75000 0.00000 0.23860 -0.17400
C 	C 	0.75000 0.00000 0.29740 0.25500
C 	C 	0.75000 0.00000 0.75590 0.06600
C 	C 	0.75000 0.00000 0.65000 -0.18100
C 	C 	0.75000 0.00000 0.59291 0.26300
C 	C 	0.75000 0.50000 0.42380 -0.10200
C 	C 	0.75000 0.50000 0.68730 -0.10800
C 	C 	0.75000 0.50000 0.36750 0.11400
C 	C 	0.75000 0.50000 0.26140 -0.11500
C 	C 	0.75000 0.50000 0.20260 0.32300
C 	C 	0.75000 0.50000 0.74410 0.12000
C 	C 	0.75000 0.50000 0.85000 -0.12300
C 	C 	0.75000 0.50000 0.90709 0.32600
C 	C 	0.25000 0.00000 0.92380 -0.16700
C 	C 	0.25000 0.00000 0.18730 -0.17400
C 	C 	0.25000 0.00000 0.86750 0.06400
C 	C 	0.25000 0.00000 0.76140 -0.17400
C 	C 	0.25000 0.00000 0.70260 0.25600
C 	C 	0.25000 0.00000 0.24410 0.06700
C 	C 	0.25000 0.00000 0.35000 -0.18000
C 	C 	0.25000 0.00000 0.40709 0.26400
C 	C 	0.25000 0.50000 0.57620 -0.10200
C 	C 	0.25000 0.50000 0.31270 -0.10800
C 	C 	0.25000 0.50000 0.63250 0.11400
C 	C 	0.25000 0.50000 0.73860 -0.11500
C 	C 	0.25000 0.50000 0.79740 0.32300
C 	C 	0.25000 0.50000 0.25590 0.12000
C 	C 	0.25000 0.50000 0.15000 -0.12300
C 	C 	0.25000 0.50000 0.09291 0.32600
N 	N 	0.79130 0.93775 0.99982 -0.11500
N 	N 	0.78690 0.93671 0.88881 -0.11700
N 	N 	0.70870 0.06225 0.99982 -0.13200
N 	N 	0.71310 0.06329 0.88881 -0.13400
N 	N 	0.70870 0.43775 0.50018 -0.11800
N 	N 	0.71310 0.43671 0.61119 -0.12100
N 	N 	0.79130 0.56225 0.50018 -0.11800
N 	N 	0.78690 0.56329 0.61119 -0.12100
N 	N 	0.20870 0.06225 0.00018 -0.13200
N 	N 	0.21310 0.06329 0.11119 -0.13400
N 	N 	0.29130 0.93775 0.00018 -0.11500
N 	N 	0.28690 0.93671 0.11119 -0.11700
N 	N 	0.29130 0.56225 0.49982 -0.11900
N 	N 	0.28690 0.56329 0.38881 -0.12100
N 	N 	0.20870 0.43775 0.49982 -0.11900
N 	N 	0.21310 0.43671 0.38881 -0.12100
O 	O 	0.84250 0.02960 0.31921 -0.26300
O 	O 	0.92180 0.56607 0.98915 -0.51500
O 	O 	0.13710 0.58774 0.96235 -0.50100
O 	O 	0.83390 0.03485 0.56916 -0.36800
O 	O 	0.65750 0.97040 0.31921 -0.19000
O 	O 	0.57820 0.43393 0.98915 -0.51900
O 	O 	0.36290 0.41226 0.96235 -0.50400
O 	O 	0.66610 0.96515 0.56916 -0.30600
O 	O 	0.65750 0.52960 0.18079 -0.26500
O 	O 	0.57820 0.06607 0.51085 -0.51100
O 	O 	0.36290 0.08774 0.53765 -0.49200
O 	O 	0.66610 0.53485 0.93084 -0.38200
O 	O 	0.84250 0.47040 0.18079 -0.26500
O 	O 	0.92180 0.93393 0.51085 -0.46600
O 	O 	0.13710 0.91226 0.53765 -0.46200
O 	O 	0.83390 0.46515 0.93084 -0.38200
O 	O 	0.15750 0.97040 0.68079 -0.19200
O 	O 	0.07820 0.43393 0.01085 -0.51700
O 	O 	0.86290 0.41226 0.03765 -0.50300
O 	O 	0.16610 0.96515 0.43084 -0.30700
O 	O 	0.34250 0.02960 0.68079 -0.26300
O 	O 	0.42180 0.56607 0.01085 -0.51900
O 	O 	0.63710 0.58774 0.03765 -0.50300
O 	O 	0.33390 0.03485 0.43084 -0.36800
O 	O 	0.34250 0.47040 0.81921 -0.26500
O 	O 	0.42180 0.93393 0.48915 -0.46900
O 	O 	0.63710 0.91226 0.46235 -0.46300
O 	O 	0.33390 0.46515 0.06916 -0.38200
O 	O 	0.15750 0.52960 0.81921 -0.26500
O 	O 	0.07820 0.06607 0.48915 -0.51100
O 	O 	0.86290 0.08774 0.46235 -0.49200
O 	O 	0.16610 0.53485 0.06916 -0.38200
