data_crystal

_cell_length_a 8.51750
_cell_length_b 28.17450
_cell_length_c 21.42170
_cell_angle_alpha 90.00000
_cell_angle_beta  97.10260
_cell_angle_gamma 90.00000

_symmetry_space_group_name_	'P 1'
_symmetry_space_group_name_H-M	'P 1'

loop_
_symmetry_equiv_pos_as_xyz
  x,y,z

loop_
_atom_site_label
_atom_site_type_symbol
_atom_site_fract_x
_atom_site_fract_y
_atom_site_fract_z
_atom_site_charge
Er	Er	0.29497 0.05831 0.00644 1.60100
C 	C 	0.69640 0.94465 0.52510 0.12000
C 	C 	0.60970 0.91610 0.56610 -0.07900
H 	H 	0.58820 0.88300 0.56260 0.05900
C 	C 	0.56630 0.94586 0.61020 -0.09400
H 	H 	0.50710 0.93760 0.64340 0.06600
C 	C 	0.62520 0.99228 0.59800 0.12800
C 	C 	0.61460 0.03280 0.63660 -0.14400
C 	C 	0.65620 0.07873 0.62010 0.12700
C 	C 	0.65920 0.12053 0.65890 -0.09100
H 	H 	0.64530 0.12130 0.70220 0.06200
C 	C 	0.68500 0.15810 0.62350 -0.07800
H 	H 	0.69070 0.19030 0.63670 0.06200
C 	C 	0.70280 0.14016 0.56070 0.12300
C 	C 	0.71910 0.16860 0.50780 -0.13200
C 	C 	0.75210 0.15069 0.44930 0.12100
C 	C 	0.76990 0.17965 0.39470 -0.08100
H 	H 	0.75230 0.21290 0.39070 0.06300
C 	C 	0.81640 0.15038 0.35060 -0.08600
H 	H 	0.83570 0.15930 0.30950 0.06400
C 	C 	0.83150 0.10328 0.37680 0.11900
C 	C 	0.88590 0.06300 0.34770 -0.13000
C 	C 	0.88940 0.01669 0.37300 0.12000
C 	C 	0.95980 0.97540 0.34770 -0.07800
H 	H 	0.01720 0.97500 0.31240 0.05900
C 	C 	0.92980 0.93760 0.38300 -0.08700
H 	H 	0.96250 0.90580 0.37730 0.06400
C 	C 	0.83890 0.95458 0.43070 0.12000
C 	C 	0.77230 0.92671 0.47520 -0.12500
N 	N 	0.69710 0.99062 0.54432 -0.21700
H 	H 	0.73650 0.01490 0.52560 0.11400
N 	N 	0.68900 0.09221 0.56132 -0.21700
H 	H 	0.69920 0.07300 0.52960 0.11300
N 	N 	0.78780 0.10481 0.43632 -0.21600
H 	H 	0.78350 0.08040 0.46170 0.11200
N 	N 	0.82120 0.00297 0.42461 -0.21500
H 	H 	0.77440 0.02170 0.44950 0.11300
C 	C 	0.56660 0.02560 0.70050 0.15500
C 	C 	0.45270 0.05415 0.72340 -0.20100
H 	H 	0.39520 0.07630 0.69610 0.09700
C 	C 	0.42210 0.05078 0.78510 0.12600
H 	H 	0.34730 0.07140 0.80040 -0.01000
C 	C 	0.50080 0.01714 0.82460 -0.22600
C 	C 	0.60530 0.98640 0.80120 0.13700
H 	H 	0.65330 0.96170 0.82700 -0.01300
C 	C 	0.64030 0.99150 0.74030 -0.20900
H 	H 	0.71650 0.97110 0.72540 0.10500
C 	C 	0.47610 0.01510 0.89280 0.49400
O 	O 	0.39600 0.04689 0.91406 -0.51500
O 	O 	0.53800 0.98077 0.92567 -0.52900
C 	C 	0.69590 0.22037 0.51380 0.12600
C 	C 	0.55510 0.24110 0.48130 -0.15700
H 	H 	0.48070 0.22240 0.45540 0.08800
C 	C 	0.53080 0.28950 0.48880 0.08600
H 	H 	0.43780 0.30390 0.46800 0.01800
C 	C 	0.63900 0.31710 0.52600 -0.15400
C 	C 	0.77410 0.29720 0.55580 0.09100
H 	H 	0.85040 0.31650 0.57990 0.01800
C 	C 	0.80010 0.24880 0.55080 -0.16500
H 	H 	0.89180 0.23500 0.57350 0.09400
C 	C 	0.60810 0.37000 0.53010 0.41000
O 	O 	0.72270 0.39603 0.54980 -0.29700
O 	O 	0.46900 0.38404 0.51210 -0.47200
C 	C 	0.93780 0.06925 0.28420 0.11700
C 	C 	0.87450 0.04110 0.23440 -0.16100
H 	H 	0.79380 0.01900 0.24080 0.08900
C 	C 	0.92520 0.04415 0.17550 0.07800
H 	H 	0.88140 0.02390 0.14250 0.00300
C 	C 	0.04140 0.07729 0.16510 -0.12700
C 	C 	0.10380 0.10708 0.21370 0.05500
H 	H 	0.18010 0.13030 0.20630 0.02600
C 	C 	0.05440 0.10289 0.27340 -0.14900
H 	H 	0.09950 0.12270 0.30670 0.08100
C 	C 	0.11240 0.07665 0.10440 0.33700
O 	O 	0.08490 0.04123 0.06764 -0.44100
O 	O 	0.21250 0.10733 0.09229 -0.39900
C 	C 	0.78450 0.87390 0.47030 0.11300
C 	C 	0.85340 0.84730 0.52220 -0.14700
H 	H 	0.89330 0.86300 0.56010 0.08500
C 	C 	0.86340 0.79830 0.51830 0.06000
H 	H 	0.91070 0.78070 0.55350 0.02200
C 	C 	0.80410 0.77460 0.46290 -0.13600
C 	C 	0.73630 0.80040 0.41190 0.06800
H 	H 	0.69640 0.78460 0.37410 0.02900
C 	C 	0.72590 0.84960 0.41560 -0.14800
H 	H 	0.67810 0.86700 0.38020 0.08000
C 	C 	0.82120 0.72190 0.46120 0.37800
O 	O 	0.87030 0.69841 0.50684 -0.30300
O 	O 	0.77280 0.70320 0.40494 -0.46400
H 	H 	0.78740 0.67370 0.40620 0.29200
Er	Er	0.70503 0.55831 0.49356 1.60200
C 	C 	0.30360 0.44465 0.97490 0.12200
C 	C 	0.39030 0.41610 0.93390 -0.07800
H 	H 	0.41180 0.38300 0.93740 0.06100
C 	C 	0.43370 0.44586 0.88980 -0.09300
H 	H 	0.49290 0.43760 0.85660 0.06700
C 	C 	0.37480 0.49228 0.90200 0.12900
C 	C 	0.38540 0.53280 0.86340 -0.14400
C 	C 	0.34380 0.57873 0.87990 0.12700
C 	C 	0.34080 0.62053 0.84110 -0.09100
H 	H 	0.35470 0.62130 0.79780 0.06200
C 	C 	0.31500 0.65810 0.87650 -0.07800
H 	H 	0.30930 0.69030 0.86330 0.06200
C 	C 	0.29720 0.64016 0.93930 0.12300
C 	C 	0.28090 0.66860 0.99220 -0.13100
C 	C 	0.24790 0.65069 0.05070 0.12100
C 	C 	0.23010 0.67965 0.10530 -0.08100
H 	H 	0.24770 0.71290 0.10930 0.06200
C 	C 	0.18360 0.65038 0.14940 -0.08600
H 	H 	0.16430 0.65930 0.19050 0.06400
C 	C 	0.16850 0.60328 0.12320 0.11900
C 	C 	0.11410 0.56300 0.15230 -0.13000
C 	C 	0.11060 0.51669 0.12700 0.12100
C 	C 	0.04020 0.47540 0.15230 -0.08100
H 	H 	0.98280 0.47500 0.18760 0.06000
C 	C 	0.07020 0.43760 0.11700 -0.08600
H 	H 	0.03750 0.40580 0.12270 0.06300
C 	C 	0.16110 0.45458 0.06930 0.11900
C 	C 	0.22770 0.42671 0.02480 -0.12600
N 	N 	0.30290 0.49062 0.95568 -0.21800
H 	H 	0.26350 0.51490 0.97440 0.11400
N 	N 	0.31100 0.59221 0.93868 -0.21700
H 	H 	0.30080 0.57300 0.97040 0.11300
N 	N 	0.21220 0.60481 0.06368 -0.21600
H 	H 	0.21650 0.58040 0.03830 0.11200
N 	N 	0.17880 0.50297 0.07539 -0.21500
H 	H 	0.22560 0.52170 0.05050 0.11200
C 	C 	0.43340 0.52560 0.79950 0.15500
C 	C 	0.54730 0.55415 0.77660 -0.20200
H 	H 	0.60480 0.57630 0.80390 0.09700
C 	C 	0.57790 0.55078 0.71490 0.12700
H 	H 	0.65270 0.57140 0.69960 -0.01000
C 	C 	0.49920 0.51714 0.67540 -0.22700
C 	C 	0.39470 0.48640 0.69880 0.13800
H 	H 	0.34670 0.46170 0.67300 -0.01300
C 	C 	0.35970 0.49150 0.75970 -0.20900
H 	H 	0.28350 0.47110 0.77460 0.10500
C 	C 	0.52390 0.51510 0.60720 0.49400
O 	O 	0.60400 0.54689 0.58594 -0.51600
O 	O 	0.46200 0.48077 0.57433 -0.52800
C 	C 	0.30410 0.72037 0.98620 0.12600
C 	C 	0.44490 0.74110 0.01870 -0.15700
H 	H 	0.51930 0.72240 0.04460 0.08800
C 	C 	0.46920 0.78950 0.01120 0.08700
H 	H 	0.56220 0.80390 0.03200 0.01800
C 	C 	0.36100 0.81710 0.97400 -0.15500
C 	C 	0.22590 0.79720 0.94420 0.09200
H 	H 	0.14960 0.81650 0.92010 0.01800
C 	C 	0.19990 0.74880 0.94920 -0.16500
H 	H 	0.10820 0.73500 0.92650 0.09500
C 	C 	0.39190 0.87000 0.96990 0.41000
O 	O 	0.27730 0.89603 0.95020 -0.29700
O 	O 	0.53100 0.88404 0.98790 -0.47200
C 	C 	0.06220 0.56925 0.21580 0.11500
C 	C 	0.12550 0.54110 0.26560 -0.15900
H 	H 	0.20620 0.51900 0.25920 0.08900
C 	C 	0.07480 0.54415 0.32450 0.07600
H 	H 	0.11860 0.52390 0.35750 0.00300
C 	C 	0.95860 0.57729 0.33490 -0.12500
C 	C 	0.89620 0.60708 0.28630 0.05400
H 	H 	0.81990 0.63030 0.29370 0.02600
C 	C 	0.94560 0.60289 0.22660 -0.14700
H 	H 	0.90050 0.62270 0.19330 0.08000
C 	C 	0.88760 0.57665 0.39560 0.33700
O 	O 	0.91510 0.54123 0.43236 -0.44000
O 	O 	0.78750 0.60733 0.40771 -0.39900
C 	C 	0.21550 0.37390 0.02970 0.11200
C 	C 	0.14660 0.34730 0.97780 -0.14600
H 	H 	0.10670 0.36300 0.93990 0.08500
C 	C 	0.13660 0.29830 0.98170 0.06100
H 	H 	0.08930 0.28070 0.94650 0.02200
C 	C 	0.19590 0.27460 0.03710 -0.13600
C 	C 	0.26370 0.30040 0.08810 0.06800
H 	H 	0.30360 0.28460 0.12590 0.02900
C 	C 	0.27410 0.34960 0.08440 -0.14800
H 	H 	0.32190 0.36700 0.11980 0.08000
C 	C 	0.17880 0.22190 0.03880 0.37600
O 	O 	0.12970 0.19841 0.99316 -0.30200
O 	O 	0.22720 0.20320 0.09506 -0.46400
H 	H 	0.21260 0.17370 0.09380 0.29200
Er	Er	0.70503 0.94169 0.99356 1.60200
C 	C 	0.30360 0.05535 0.47490 0.12100
C 	C 	0.39030 0.08390 0.43390 -0.07800
H 	H 	0.41180 0.11700 0.43740 0.06000
C 	C 	0.43370 0.05414 0.38980 -0.09300
H 	H 	0.49290 0.06240 0.35660 0.06700
C 	C 	0.37480 0.00772 0.40200 0.12800
C 	C 	0.38540 0.96720 0.36340 -0.14400
C 	C 	0.34380 0.92127 0.37990 0.12700
C 	C 	0.34080 0.87947 0.34110 -0.09100
H 	H 	0.35470 0.87870 0.29780 0.06200
C 	C 	0.31500 0.84190 0.37650 -0.07800
H 	H 	0.30930 0.80970 0.36330 0.06200
C 	C 	0.29720 0.85984 0.43930 0.12300
C 	C 	0.28090 0.83140 0.49220 -0.13200
C 	C 	0.24790 0.84931 0.55070 0.12100
C 	C 	0.23010 0.82035 0.60530 -0.08100
H 	H 	0.24770 0.78710 0.60930 0.06300
C 	C 	0.18360 0.84962 0.64940 -0.08600
H 	H 	0.16430 0.84070 0.69050 0.06400
C 	C 	0.16850 0.89672 0.62320 0.11900
C 	C 	0.11410 0.93700 0.65230 -0.13000
C 	C 	0.11060 0.98331 0.62700 0.12000
C 	C 	0.04020 0.02460 0.65230 -0.07800
H 	H 	0.98280 0.02500 0.68760 0.05900
C 	C 	0.07020 0.06240 0.61700 -0.08700
H 	H 	0.03750 0.09420 0.62270 0.06400
C 	C 	0.16110 0.04542 0.56930 0.12000
C 	C 	0.22770 0.07329 0.52480 -0.12500
N 	N 	0.30290 0.00938 0.45568 -0.21700
H 	H 	0.26350 0.98510 0.47440 0.11400
N 	N 	0.31100 0.90779 0.43868 -0.21700
H 	H 	0.30080 0.92700 0.47040 0.11300
N 	N 	0.21220 0.89519 0.56368 -0.21600
H 	H 	0.21650 0.91960 0.53830 0.11200
N 	N 	0.17880 0.99703 0.57539 -0.21500
H 	H 	0.22560 0.97830 0.55050 0.11300
C 	C 	0.43340 0.97440 0.29950 0.15500
C 	C 	0.54730 0.94585 0.27660 -0.20100
H 	H 	0.60480 0.92370 0.30390 0.09700
C 	C 	0.57790 0.94922 0.21490 0.12600
H 	H 	0.65270 0.92860 0.19960 -0.01000
C 	C 	0.49920 0.98286 0.17540 -0.22600
C 	C 	0.39470 0.01360 0.19880 0.13700
H 	H 	0.34670 0.03830 0.17300 -0.01300
C 	C 	0.35970 0.00850 0.25970 -0.20900
H 	H 	0.28350 0.02890 0.27460 0.10500
C 	C 	0.52390 0.98490 0.10720 0.49400
O 	O 	0.60400 0.95311 0.08594 -0.51500
O 	O 	0.46200 0.01923 0.07433 -0.52900
C 	C 	0.30410 0.77963 0.48620 0.12600
C 	C 	0.44490 0.75890 0.51870 -0.15700
H 	H 	0.51930 0.77760 0.54460 0.08800
C 	C 	0.46920 0.71050 0.51120 0.08600
H 	H 	0.56220 0.69610 0.53200 0.01800
C 	C 	0.36100 0.68290 0.47400 -0.15400
C 	C 	0.22590 0.70280 0.44420 0.09100
H 	H 	0.14960 0.68350 0.42010 0.01800
C 	C 	0.19990 0.75120 0.44920 -0.16500
H 	H 	0.10820 0.76500 0.42650 0.09400
C 	C 	0.39190 0.63000 0.46990 0.41000
O 	O 	0.27730 0.60397 0.45020 -0.29700
O 	O 	0.53100 0.61596 0.48790 -0.47200
C 	C 	0.06220 0.93075 0.71580 0.11700
C 	C 	0.12550 0.95890 0.76560 -0.16100
H 	H 	0.20620 0.98100 0.75920 0.08900
C 	C 	0.07480 0.95585 0.82450 0.07800
H 	H 	0.11860 0.97610 0.85750 0.00300
C 	C 	0.95860 0.92271 0.83490 -0.12700
C 	C 	0.89620 0.89292 0.78630 0.05500
H 	H 	0.81990 0.86970 0.79370 0.02600
C 	C 	0.94560 0.89711 0.72660 -0.14900
H 	H 	0.90050 0.87730 0.69330 0.08100
C 	C 	0.88760 0.92335 0.89560 0.33700
O 	O 	0.91510 0.95877 0.93236 -0.44100
O 	O 	0.78750 0.89267 0.90771 -0.39900
C 	C 	0.21550 0.12610 0.52970 0.11300
C 	C 	0.14660 0.15270 0.47780 -0.14700
H 	H 	0.10670 0.13700 0.43990 0.08500
C 	C 	0.13660 0.20170 0.48170 0.06000
H 	H 	0.08930 0.21930 0.44650 0.02200
C 	C 	0.19590 0.22540 0.53710 -0.13600
C 	C 	0.26370 0.19960 0.58810 0.06800
H 	H 	0.30360 0.21540 0.62590 0.02900
C 	C 	0.27410 0.15040 0.58440 -0.14800
H 	H 	0.32190 0.13300 0.61980 0.08000
C 	C 	0.17880 0.27810 0.53880 0.37800
O 	O 	0.12970 0.30159 0.49316 -0.30300
O 	O 	0.22720 0.29680 0.59506 -0.46400
H 	H 	0.21260 0.32630 0.59380 0.29200
Er	Er	0.29497 0.44169 0.50644 1.60200
C 	C 	0.69640 0.55535 0.02510 0.12200
C 	C 	0.60970 0.58390 0.06610 -0.07800
H 	H 	0.58820 0.61700 0.06260 0.06100
C 	C 	0.56630 0.55414 0.11020 -0.09300
H 	H 	0.50710 0.56240 0.14340 0.06700
C 	C 	0.62520 0.50772 0.09800 0.12900
C 	C 	0.61460 0.46720 0.13660 -0.14400
C 	C 	0.65620 0.42127 0.12010 0.12700
C 	C 	0.65920 0.37947 0.15890 -0.09100
H 	H 	0.64530 0.37870 0.20220 0.06200
C 	C 	0.68500 0.34190 0.12350 -0.07800
H 	H 	0.69070 0.30970 0.13670 0.06200
C 	C 	0.70280 0.35984 0.06070 0.12300
C 	C 	0.71910 0.33140 0.00780 -0.13100
C 	C 	0.75210 0.34931 0.94930 0.12100
C 	C 	0.76990 0.32035 0.89470 -0.08100
H 	H 	0.75230 0.28710 0.89070 0.06200
C 	C 	0.81640 0.34962 0.85060 -0.08600
H 	H 	0.83570 0.34070 0.80950 0.06400
C 	C 	0.83150 0.39672 0.87680 0.11900
C 	C 	0.88590 0.43700 0.84770 -0.13000
C 	C 	0.88940 0.48331 0.87300 0.12100
C 	C 	0.95980 0.52460 0.84770 -0.08100
H 	H 	0.01720 0.52500 0.81240 0.06000
C 	C 	0.92980 0.56240 0.88300 -0.08600
H 	H 	0.96250 0.59420 0.87730 0.06300
C 	C 	0.83890 0.54542 0.93070 0.11900
C 	C 	0.77230 0.57329 0.97520 -0.12600
N 	N 	0.69710 0.50938 0.04432 -0.21800
H 	H 	0.73650 0.48510 0.02560 0.11400
N 	N 	0.68900 0.40779 0.06132 -0.21700
H 	H 	0.69920 0.42700 0.02960 0.11300
N 	N 	0.78780 0.39519 0.93632 -0.21600
H 	H 	0.78350 0.41960 0.96170 0.11200
N 	N 	0.82120 0.49703 0.92461 -0.21500
H 	H 	0.77440 0.47830 0.94950 0.11200
C 	C 	0.56660 0.47440 0.20050 0.15500
C 	C 	0.45270 0.44585 0.22340 -0.20200
H 	H 	0.39520 0.42370 0.19610 0.09700
C 	C 	0.42210 0.44922 0.28510 0.12700
H 	H 	0.34730 0.42860 0.30040 -0.01000
C 	C 	0.50080 0.48286 0.32460 -0.22700
C 	C 	0.60530 0.51360 0.30120 0.13800
H 	H 	0.65330 0.53830 0.32700 -0.01300
C 	C 	0.64030 0.50850 0.24030 -0.20900
H 	H 	0.71650 0.52890 0.22540 0.10500
C 	C 	0.47610 0.48490 0.39280 0.49400
O 	O 	0.39600 0.45311 0.41406 -0.51600
O 	O 	0.53800 0.51923 0.42567 -0.52800
C 	C 	0.69590 0.27963 0.01380 0.12600
C 	C 	0.55510 0.25890 0.98130 -0.15700
H 	H 	0.48070 0.27760 0.95540 0.08800
C 	C 	0.53080 0.21050 0.98880 0.08700
H 	H 	0.43780 0.19610 0.96800 0.01800
C 	C 	0.63900 0.18290 0.02600 -0.15500
C 	C 	0.77410 0.20280 0.05580 0.09200
H 	H 	0.85040 0.18350 0.07990 0.01800
C 	C 	0.80010 0.25120 0.05080 -0.16500
H 	H 	0.89180 0.26500 0.07350 0.09500
C 	C 	0.60810 0.13000 0.03010 0.41000
O 	O 	0.72270 0.10397 0.04980 -0.29700
O 	O 	0.46900 0.11596 0.01210 -0.47200
C 	C 	0.93780 0.43075 0.78420 0.11500
C 	C 	0.87450 0.45890 0.73440 -0.15900
H 	H 	0.79380 0.48100 0.74080 0.08900
C 	C 	0.92520 0.45585 0.67550 0.07600
H 	H 	0.88140 0.47610 0.64250 0.00300
C 	C 	0.04140 0.42271 0.66510 -0.12500
C 	C 	0.10380 0.39292 0.71370 0.05400
H 	H 	0.18010 0.36970 0.70630 0.02600
C 	C 	0.05440 0.39711 0.77340 -0.14700
H 	H 	0.09950 0.37730 0.80670 0.08000
C 	C 	0.11240 0.42335 0.60440 0.33700
O 	O 	0.08490 0.45877 0.56764 -0.44000
O 	O 	0.21250 0.39267 0.59229 -0.39900
C 	C 	0.78450 0.62610 0.97030 0.11200
C 	C 	0.85340 0.65270 0.02220 -0.14600
H 	H 	0.89330 0.63700 0.06010 0.08500
C 	C 	0.86340 0.70170 0.01830 0.06100
H 	H 	0.91070 0.71930 0.05350 0.02200
C 	C 	0.80410 0.72540 0.96290 -0.13600
C 	C 	0.73630 0.69960 0.91190 0.06800
H 	H 	0.69640 0.71540 0.87410 0.02900
C 	C 	0.72590 0.65040 0.91560 -0.14800
H 	H 	0.67810 0.63300 0.88020 0.08000
C 	C 	0.82120 0.77810 0.96120 0.37600
O 	O 	0.87030 0.80159 0.00684 -0.30200
O 	O 	0.77280 0.79680 0.90494 -0.46400
H 	H 	0.78740 0.82630 0.90620 0.29200
