data_crystal

_cell_length_a 22.00000
_cell_length_b 15.00000
_cell_length_c 24.00000
_cell_angle_alpha 90.00000
_cell_angle_beta  90.00000
_cell_angle_gamma 90.00000

_symmetry_space_group_name_	'P 1'
_symmetry_space_group_name_H-M	'P 1'

loop_
_symmetry_equiv_pos_as_xyz
  x,y,z

loop_
_atom_site_label
_atom_site_type_symbol
_atom_site_fract_x
_atom_site_fract_y
_atom_site_fract_z
_atom_site_charge
N 	N 	0.90730 0.50330 0.98620 -0.21800
N 	N 	0.82040 0.47950 0.93980 -0.10800
N 	N 	0.51710 0.27540 0.97420 -0.09200
N 	N 	0.49680 0.13430 0.97740 -0.23300
C 	C 	0.87970 0.45490 0.94780 0.07800
H 	H 	0.89860 0.40900 0.92820 -0.01500
C 	C 	0.78100 0.44320 0.90000 -0.11200
H 	H 	0.79900 0.38920 0.88500 0.06100
H 	H 	0.77640 0.48520 0.86960 0.06300
C 	C 	0.86540 0.56270 0.00460 -0.05800
H 	H 	0.87160 0.60430 0.03280 0.02400
C 	C 	0.81280 0.55180 0.97550 0.03500
H 	H 	0.77790 0.58650 0.97880 0.02400
C 	C 	0.60450 0.37940 0.96760 0.04400
C 	C 	0.52030 0.19890 0.00610 0.03000
H 	H 	0.53640 0.19450 0.04180 -0.01700
C 	C 	0.48940 0.25280 0.92630 -0.02200
H 	H 	0.47960 0.29060 0.89700 0.03600
C 	C 	0.54310 0.35980 0.99430 -0.07100
H 	H 	0.54790 0.35690 0.03440 0.03100
H 	H 	0.51520 0.40810 0.98600 0.05500
C 	C 	0.61650 0.46290 0.94750 -0.06200
H 	H 	0.58640 0.50640 0.94860 0.04900
C 	C 	0.71870 0.42130 0.92370 0.06400
C 	C 	0.67400 0.48360 0.92520 -0.07900
H 	H 	0.68140 0.54050 0.91140 0.05600
C 	C 	0.70660 0.33750 0.94360 -0.07800
H 	H 	0.73650 0.29370 0.94240 0.05600
C 	C 	0.65010 0.31770 0.96540 -0.05800
H 	H 	0.64290 0.26070 0.97900 0.05600
C 	C 	0.47890 0.16740 0.92920 0.02800
H 	H 	0.46110 0.13400 0.90100 -0.01300
N 	N 	0.40730 0.99670 0.01380 -0.24500
N 	N 	0.32040 0.02050 0.06020 -0.11000
N 	N 	0.01710 0.22460 0.02580 -0.13400
N 	N 	0.99680 0.36570 0.02260 -0.24100
C 	C 	0.37970 0.04510 0.05220 0.03000
H 	H 	0.39860 0.09100 0.07180 -0.01700
C 	C 	0.28100 0.05680 0.10000 -0.11900
H 	H 	0.29900 0.11080 0.11500 0.05700
H 	H 	0.27640 0.01480 0.13040 0.05100
C 	C 	0.36540 0.93730 0.99540 0.07600
H 	H 	0.37160 0.89570 0.96720 -0.00800
C 	C 	0.31280 0.94820 0.02450 -0.03600
H 	H 	0.27790 0.91350 0.02120 0.04400
C 	C 	0.10450 0.12060 0.03240 0.07500
C 	C 	0.02030 0.30110 0.99390 0.08500
H 	H 	0.03640 0.30550 0.95820 -0.03100
C 	C 	0.98940 0.24720 0.07370 0.02300
H 	H 	0.97960 0.20940 0.10300 0.02600
C 	C 	0.04310 0.14020 0.00570 -0.17100
H 	H 	0.04790 0.14310 0.96560 0.08300
H 	H 	0.01520 0.09190 0.01400 0.05000
C 	C 	0.11650 0.03710 0.05250 -0.13100
H 	H 	0.08640 0.99360 0.05140 0.08100
C 	C 	0.21870 0.07870 0.07630 0.06200
C 	C 	0.17400 0.01640 0.07480 -0.11700
H 	H 	0.18140 0.95950 0.08860 0.08400
C 	C 	0.20660 0.16250 0.05640 -0.07300
H 	H 	0.23650 0.20630 0.05760 0.04600
C 	C 	0.15010 0.18230 0.03460 -0.08700
H 	H 	0.14290 0.23930 0.02100 0.05100
C 	C 	0.97890 0.33260 0.07080 0.00700
H 	H 	0.96110 0.36600 0.09900 0.00200
N 	N 	0.09270 0.49670 0.01380 -0.28000
N 	N 	0.17960 0.52050 0.06020 -0.09800
N 	N 	0.48290 0.72460 0.02580 -0.11200
N 	N 	0.50320 0.86570 0.02260 -0.26800
C 	C 	0.12030 0.54510 0.05220 0.06900
H 	H 	0.10140 0.59100 0.07180 -0.03100
C 	C 	0.21900 0.55680 0.10000 -0.10900
H 	H 	0.20100 0.61080 0.11500 0.05600
H 	H 	0.22360 0.51480 0.13040 0.05700
C 	C 	0.13460 0.43730 0.99540 0.09000
H 	H 	0.12840 0.39570 0.96720 -0.02100
C 	C 	0.18720 0.44820 0.02450 -0.08300
H 	H 	0.22210 0.41350 0.02120 0.05200
C 	C 	0.39550 0.62060 0.03240 0.07900
C 	C 	0.47970 0.80110 0.99390 0.12900
H 	H 	0.46360 0.80550 0.95820 -0.03500
C 	C 	0.51060 0.74720 0.07370 -0.03100
H 	H 	0.52040 0.70940 0.10300 0.04000
C 	C 	0.45690 0.64020 0.00570 -0.17900
H 	H 	0.45210 0.64310 0.96560 0.09600
H 	H 	0.48480 0.59190 0.01400 0.07300
C 	C 	0.38350 0.53710 0.05250 -0.09400
H 	H 	0.41360 0.49360 0.05140 0.05200
C 	C 	0.28130 0.57870 0.07630 0.04600
C 	C 	0.32600 0.51640 0.07480 -0.06100
H 	H 	0.31860 0.45950 0.08860 0.04400
C 	C 	0.29340 0.66250 0.05640 -0.06000
H 	H 	0.26350 0.70630 0.05760 0.04500
C 	C 	0.34990 0.68230 0.03460 -0.09000
H 	H 	0.35710 0.73930 0.02100 0.05700
C 	C 	0.52110 0.83260 0.07080 0.03100
H 	H 	0.53890 0.86600 0.09900 -0.00500
N 	N 	0.59270 0.00330 0.98620 -0.25000
N 	N 	0.67960 0.97950 0.93980 -0.09800
N 	N 	0.98290 0.77540 0.97420 -0.07200
N 	N 	0.00320 0.63430 0.97740 -0.26100
C 	C 	0.62030 0.95490 0.94780 0.11400
H 	H 	0.60140 0.90900 0.92820 -0.02900
C 	C 	0.71900 0.94320 0.90000 -0.10200
H 	H 	0.70100 0.88920 0.88500 0.06000
H 	H 	0.72360 0.98520 0.86960 0.06900
C 	C 	0.63460 0.06270 0.00460 -0.05300
H 	H 	0.62840 0.10430 0.03280 0.01300
C 	C 	0.68720 0.05180 0.97550 -0.00400
H 	H 	0.72210 0.08650 0.97880 0.03000
C 	C 	0.89550 0.87940 0.96760 0.05200
C 	C 	0.97970 0.69890 0.00610 0.07900
H 	H 	0.96360 0.69450 0.04180 -0.02200
C 	C 	0.01060 0.75280 0.92630 -0.07600
H 	H 	0.02040 0.79060 0.89700 0.05000
C 	C 	0.95690 0.85980 0.99430 -0.08600
H 	H 	0.95210 0.85690 0.03440 0.04700
H 	H 	0.98480 0.90810 0.98600 0.08000
C 	C 	0.88350 0.96290 0.94750 -0.03100
H 	H 	0.91360 0.00640 0.94860 0.02300
C 	C 	0.78130 0.92130 0.92370 0.04700
C 	C 	0.82600 0.98360 0.92520 -0.02400
H 	H 	0.81860 0.04050 0.91140 0.01700
C 	C 	0.79340 0.83750 0.94360 -0.06300
H 	H 	0.76350 0.79370 0.94240 0.05400
C 	C 	0.84990 0.81770 0.96540 -0.06400
H 	H 	0.85710 0.76070 0.97900 0.06200
C 	C 	0.02110 0.66740 0.92920 0.05100
H 	H 	0.03890 0.63400 0.90100 -0.02100
Ni	Ni	0.00000 0.50000 -0.00000 0.99200
Ni	Ni	0.50000 0.00000 -0.00000 0.99400
N 	N 	0.59270 0.99670 0.48620 -0.22400
N 	N 	0.67960 0.02050 0.43980 -0.11700
N 	N 	0.98290 0.22460 0.47420 -0.08200
N 	N 	0.00320 0.36570 0.47740 -0.28600
C 	C 	0.62030 0.04510 0.44780 0.03400
H 	H 	0.60140 0.09100 0.42820 -0.01500
C 	C 	0.71900 0.05680 0.40000 -0.11400
H 	H 	0.70100 0.11080 0.38500 0.05700
H 	H 	0.72360 0.01480 0.36960 0.05100
C 	C 	0.63460 0.93730 0.50460 0.00400
H 	H 	0.62840 0.89570 0.53280 0.01000
C 	C 	0.68720 0.94820 0.47550 0.01800
H 	H 	0.72210 0.91350 0.47880 0.03200
C 	C 	0.89550 0.12060 0.46760 0.08900
C 	C 	0.97970 0.30110 0.50610 0.12500
H 	H 	0.96360 0.30550 0.54180 -0.03500
C 	C 	0.01060 0.24720 0.42630 -0.08500
H 	H 	0.02040 0.20940 0.39700 0.04300
C 	C 	0.95690 0.14020 0.49430 -0.14500
H 	H 	0.95210 0.14310 0.53440 0.07100
H 	H 	0.98480 0.09190 0.48600 0.07500
C 	C 	0.88350 0.03710 0.44750 -0.13200
H 	H 	0.91360 0.99360 0.44860 0.10000
C 	C 	0.78130 0.07870 0.42370 0.05900
C 	C 	0.82600 0.01640 0.42520 -0.10500
H 	H 	0.81860 0.95950 0.41140 0.08700
C 	C 	0.79340 0.16250 0.44360 -0.06400
H 	H 	0.76350 0.20630 0.44240 0.04800
C 	C 	0.84990 0.18230 0.46540 -0.08800
H 	H 	0.85710 0.23930 0.47900 0.06200
C 	C 	0.02110 0.33260 0.42920 0.05000
H 	H 	0.03890 0.36600 0.40100 -0.02600
N 	N 	0.09270 0.50330 0.51380 -0.25700
N 	N 	0.17960 0.47950 0.56020 -0.10500
N 	N 	0.48290 0.27540 0.52580 -0.10300
N 	N 	0.50320 0.13430 0.52260 -0.25800
C 	C 	0.12030 0.45490 0.55220 0.07100
H 	H 	0.10140 0.40900 0.57180 -0.03100
C 	C 	0.21900 0.44320 0.60000 -0.10800
H 	H 	0.20100 0.38920 0.61500 0.05400
H 	H 	0.22360 0.48520 0.63040 0.05800
C 	C 	0.13460 0.56270 0.49540 0.01200
H 	H 	0.12840 0.60430 0.46720 -0.00100
C 	C 	0.18720 0.55180 0.52450 -0.02400
H 	H 	0.22210 0.58650 0.52120 0.03800
C 	C 	0.39550 0.37940 0.53240 0.06300
C 	C 	0.47970 0.19890 0.49390 0.08000
H 	H 	0.46360 0.19450 0.45820 -0.03000
C 	C 	0.51060 0.25280 0.57370 -0.02900
H 	H 	0.52040 0.29060 0.60300 0.03700
C 	C 	0.45690 0.35980 0.50570 -0.12600
H 	H 	0.45210 0.35690 0.46560 0.06300
H 	H 	0.48480 0.40810 0.51400 0.06400
C 	C 	0.38350 0.46290 0.55250 -0.08000
H 	H 	0.41360 0.50640 0.55140 0.05100
C 	C 	0.28130 0.42130 0.57630 0.05100
C 	C 	0.32600 0.48360 0.57480 -0.06800
H 	H 	0.31860 0.54050 0.58860 0.05000
C 	C 	0.29340 0.33750 0.55640 -0.06700
H 	H 	0.26350 0.29370 0.55760 0.04600
C 	C 	0.34990 0.31770 0.53460 -0.07800
H 	H 	0.35710 0.26070 0.52100 0.05600
C 	C 	0.52110 0.16740 0.57080 0.02800
H 	H 	0.53890 0.13400 0.59900 -0.01600
N 	N 	0.40730 0.00330 0.51380 -0.27800
N 	N 	0.32040 0.97950 0.56020 -0.09000
N 	N 	0.01710 0.77540 0.52580 -0.12400
N 	N 	0.99680 0.63430 0.52260 -0.21900
C 	C 	0.37970 0.95490 0.55220 0.11300
H 	H 	0.39860 0.90900 0.57180 -0.03100
C 	C 	0.28100 0.94320 0.60000 -0.10800
H 	H 	0.29900 0.88920 0.61500 0.06000
H 	H 	0.27640 0.98520 0.63040 0.06900
C 	C 	0.36540 0.06270 0.49540 0.02600
H 	H 	0.37160 0.10430 0.46720 -0.00800
C 	C 	0.31280 0.05180 0.52450 -0.06500
H 	H 	0.27790 0.08650 0.52120 0.04300
C 	C 	0.10450 0.87940 0.53240 0.03400
C 	C 	0.02030 0.69890 0.49390 0.03600
H 	H 	0.03640 0.69450 0.45820 -0.01800
C 	C 	0.98940 0.75280 0.57370 0.03100
H 	H 	0.97960 0.79060 0.60300 0.03300
C 	C 	0.04310 0.85980 0.50570 -0.10600
H 	H 	0.04790 0.85690 0.46560 0.05600
H 	H 	0.01520 0.90810 0.51400 0.05400
C 	C 	0.11650 0.96290 0.55250 -0.02500
H 	H 	0.08640 0.00640 0.55140 0.00100
C 	C 	0.21870 0.92130 0.57630 0.05100
C 	C 	0.17400 0.98360 0.57480 -0.03500
H 	H 	0.18140 0.04050 0.58860 0.01300
C 	C 	0.20660 0.83750 0.55640 -0.07400
H 	H 	0.23650 0.79370 0.55760 0.05300
C 	C 	0.15010 0.81770 0.53460 -0.06100
H 	H 	0.14290 0.76070 0.52100 0.05100
C 	C 	0.97890 0.66740 0.57080 0.00900
H 	H 	0.96110 0.63400 0.59900 0.00600
N 	N 	0.90730 0.49670 0.48620 -0.24400
N 	N 	0.82040 0.52050 0.43980 -0.10200
N 	N 	0.51710 0.72460 0.47420 -0.10300
N 	N 	0.49680 0.86570 0.47740 -0.24700
C 	C 	0.87970 0.54510 0.44780 0.07500
H 	H 	0.89860 0.59100 0.42820 -0.01500
C 	C 	0.78100 0.55680 0.40000 -0.11400
H 	H 	0.79900 0.61080 0.38500 0.06300
H 	H 	0.77640 0.51480 0.36960 0.06300
C 	C 	0.86540 0.43730 0.50460 0.01700
H 	H 	0.87160 0.39570 0.53280 0.00300
C 	C 	0.81280 0.44820 0.47550 -0.02200
H 	H 	0.77790 0.41350 0.47880 0.03800
C 	C 	0.60450 0.62060 0.46760 0.06100
C 	C 	0.52030 0.80110 0.50610 0.08100
H 	H 	0.53640 0.80550 0.54180 -0.02400
C 	C 	0.48940 0.74720 0.42630 -0.02500
H 	H 	0.47960 0.70940 0.39700 0.03900
C 	C 	0.54310 0.64020 0.49430 -0.12500
H 	H 	0.54790 0.64310 0.53440 0.06500
H 	H 	0.51520 0.59190 0.48600 0.06400
C 	C 	0.61650 0.53710 0.44750 -0.07600
H 	H 	0.58640 0.49360 0.44860 0.04900
C 	C 	0.71870 0.57870 0.42370 0.05900
C 	C 	0.67400 0.51640 0.42520 -0.07200
H 	H 	0.68140 0.45950 0.41140 0.05000
C 	C 	0.70660 0.66250 0.44360 -0.07100
H 	H 	0.73650 0.70630 0.44240 0.05500
C 	C 	0.65010 0.68230 0.46540 -0.07100
H 	H 	0.64290 0.73930 0.47900 0.05700
C 	C 	0.47890 0.83260 0.42920 0.03000
H 	H 	0.46110 0.86600 0.40100 -0.00300
Ni	Ni	0.50000 -0.00000 0.50000 1.00400
Ni	Ni	-0.00000 0.50000 0.50000 1.00200
