data_crystal

_cell_length_a 22.02400
_cell_length_b 15.06500
_cell_length_c 24.12000
_cell_angle_alpha 90.00000
_cell_angle_beta  90.00000
_cell_angle_gamma 90.00000

_symmetry_space_group_name_	'P 1'
_symmetry_space_group_name_H-M	'P 1'

loop_
_symmetry_equiv_pos_as_xyz
  x,y,z

loop_
_atom_site_label
_atom_site_type_symbol
_atom_site_fract_x
_atom_site_fract_y
_atom_site_fract_z
_atom_site_charge
N 	N 	0.40670 0.00350 0.48630 -0.28400
N 	N 	0.32070 0.98070 0.43950 -0.08800
N 	N 	0.99670 0.63560 0.47890 -0.22200
N 	N 	0.01750 0.77720 0.47630 -0.12500
C 	C 	0.17380 0.98310 0.42490 -0.03600
H 	H 	0.18130 0.03950 0.41080 0.01100
C 	C 	0.10410 0.88180 0.46890 0.03000
C 	C 	0.98830 0.75540 0.42800 0.03700
H 	H 	0.97820 0.79410 0.39940 0.03100
C 	C 	0.02050 0.70240 0.50700 0.03700
H 	H 	0.03680 0.69850 0.54250 -0.01800
C 	C 	0.11630 0.96400 0.44850 -0.02200
H 	H 	0.08660 0.00760 0.44990 -0.00200
C 	C 	0.37890 0.95410 0.44770 0.10700
H 	H 	0.39720 0.90750 0.42880 -0.03100
C 	C 	0.04330 0.86120 0.49480 -0.10200
H 	H 	0.04790 0.85960 0.53480 0.05500
H 	H 	0.01520 0.90870 0.48600 0.05300
C 	C 	0.21740 0.92100 0.42270 0.05200
C 	C 	0.97720 0.66960 0.42960 -0.00800
H 	H 	0.95880 0.63720 0.40150 0.01000
C 	C 	0.14910 0.81700 0.46650 -0.05600
H 	H 	0.14150 0.76030 0.48050 0.04800
C 	C 	0.20500 0.83630 0.44330 -0.07700
H 	H 	0.23460 0.79250 0.44140 0.05300
C 	C 	0.27940 0.94300 0.39820 -0.11500
H 	H 	0.29720 0.88880 0.38330 0.06000
H 	H 	0.27450 0.98430 0.36790 0.06900
C 	C 	0.31190 0.05300 0.47550 -0.07200
H 	H 	0.27690 0.08710 0.47940 0.04500
C 	C 	0.36410 0.06300 0.50270 0.03300
H 	H 	0.37060 0.10610 0.52980 -0.01100
N 	N 	0.90670 0.49650 0.51370 -0.25100
N 	N 	0.82070 0.51930 0.56050 -0.10000
N 	N 	0.49670 0.86440 0.52110 -0.24800
N 	N 	0.51750 0.72280 0.52370 -0.10600
C 	C 	0.67380 0.51690 0.57510 -0.07900
H 	H 	0.68130 0.46050 0.58920 0.05400
C 	C 	0.60410 0.61820 0.53110 0.05500
C 	C 	0.48830 0.74460 0.57200 -0.01500
H 	H 	0.47820 0.70590 0.60060 0.03500
C 	C 	0.52050 0.79760 0.49300 0.08100
H 	H 	0.53680 0.80150 0.45750 -0.02400
C 	C 	0.61630 0.53600 0.55150 -0.07200
H 	H 	0.58660 0.49240 0.55010 0.04800
C 	C 	0.87890 0.54590 0.55230 0.07100
H 	H 	0.89720 0.59250 0.57120 -0.01400
C 	C 	0.54330 0.63880 0.50520 -0.11900
H 	H 	0.54790 0.64040 0.46520 0.06200
H 	H 	0.51520 0.59130 0.51400 0.06200
C 	C 	0.71740 0.57900 0.57730 0.06600
C 	C 	0.47720 0.83040 0.57040 0.01000
H 	H 	0.45880 0.86280 0.59850 0.00300
C 	C 	0.64910 0.68300 0.53350 -0.06200
H 	H 	0.64150 0.73970 0.51950 0.05400
C 	C 	0.70500 0.66370 0.55670 -0.07700
H 	H 	0.73460 0.70750 0.55860 0.05700
C 	C 	0.77940 0.55700 0.60180 -0.12700
H 	H 	0.79720 0.61120 0.61670 0.06800
H 	H 	0.77450 0.51570 0.63210 0.06800
C 	C 	0.81190 0.44700 0.52450 -0.02900
H 	H 	0.77690 0.41290 0.52060 0.04000
C 	C 	0.86410 0.43700 0.49730 0.02400
H 	H 	0.87060 0.39390 0.47020 -0.00100
N 	N 	0.59330 0.99650 0.51370 -0.23000
N 	N 	0.67930 0.01930 0.56050 -0.11500
N 	N 	0.00330 0.36440 0.52110 -0.28500
N 	N 	0.98250 0.22280 0.52370 -0.08700
C 	C 	0.82620 0.01690 0.57510 -0.11400
H 	H 	0.81870 0.96050 0.58920 0.09200
C 	C 	0.89590 0.11820 0.53110 0.08300
C 	C 	0.01170 0.24460 0.57200 -0.07100
H 	H 	0.02180 0.20590 0.60060 0.03800
C 	C 	0.97950 0.29760 0.49300 0.12400
H 	H 	0.96320 0.30150 0.45750 -0.03500
C 	C 	0.88370 0.03600 0.55150 -0.12900
H 	H 	0.91340 0.99240 0.55010 0.10000
C 	C 	0.62110 0.04590 0.55230 0.02900
H 	H 	0.60280 0.09250 0.57120 -0.01400
C 	C 	0.95670 0.13880 0.50520 -0.13900
H 	H 	0.95210 0.14040 0.46520 0.06800
H 	H 	0.98480 0.09130 0.51400 0.07300
C 	C 	0.78260 0.07900 0.57730 0.06900
C 	C 	0.02280 0.33040 0.57040 0.02400
H 	H 	0.04120 0.36280 0.59850 -0.01700
C 	C 	0.85090 0.18300 0.53350 -0.07800
H 	H 	0.85850 0.23970 0.51950 0.05800
C 	C 	0.79500 0.16370 0.55670 -0.07200
H 	H 	0.76540 0.20750 0.55860 0.05100
C 	C 	0.72060 0.05700 0.60180 -0.12900
H 	H 	0.70280 0.11120 0.61670 0.06300
H 	H 	0.72550 0.01570 0.63210 0.05800
C 	C 	0.68810 0.94700 0.52450 0.01300
H 	H 	0.72310 0.91290 0.52060 0.03400
C 	C 	0.63590 0.93700 0.49730 0.01000
H 	H 	0.62940 0.89390 0.47020 0.00700
N 	N 	0.09330 0.50350 0.48630 -0.26400
N 	N 	0.17930 0.48070 0.43950 -0.10400
N 	N 	0.50330 0.13560 0.47890 -0.25900
N 	N 	0.48250 0.27720 0.47630 -0.10600
C 	C 	0.32620 0.48310 0.42490 -0.07200
H 	H 	0.31870 0.53950 0.41080 0.05000
C 	C 	0.39590 0.38180 0.46890 0.05800
C 	C 	0.51170 0.25540 0.42800 -0.01900
H 	H 	0.52180 0.29410 0.39940 0.03200
C 	C 	0.47950 0.20240 0.50700 0.07900
H 	H 	0.46320 0.19850 0.54250 -0.02900
C 	C 	0.38370 0.46400 0.44850 -0.07900
H 	H 	0.41340 0.50760 0.44990 0.05000
C 	C 	0.12110 0.45410 0.44770 0.06600
H 	H 	0.10280 0.40750 0.42880 -0.03100
C 	C 	0.45670 0.36120 0.49480 -0.12200
H 	H 	0.45210 0.35960 0.53480 0.06200
H 	H 	0.48480 0.40870 0.48600 0.06300
C 	C 	0.28260 0.42100 0.42270 0.05500
C 	C 	0.52280 0.16960 0.42960 0.00600
H 	H 	0.54120 0.13720 0.40150 -0.01100
C 	C 	0.35090 0.31700 0.46650 -0.07100
H 	H 	0.35850 0.26030 0.48050 0.05300
C 	C 	0.29500 0.33630 0.44330 -0.07200
H 	H 	0.26540 0.29250 0.44140 0.04700
C 	C 	0.22060 0.44300 0.39820 -0.11700
H 	H 	0.20280 0.38880 0.38330 0.05500
H 	H 	0.22550 0.48430 0.36790 0.05800
C 	C 	0.18810 0.55300 0.47550 -0.03100
H 	H 	0.22310 0.58710 0.47940 0.04000
C 	C 	0.13590 0.56300 0.50270 0.01900
H 	H 	0.12940 0.60610 0.52980 -0.00400
Co	Co	0.50000 0.00000 0.50000 1.06200
Co	Co	-0.00000 0.50000 0.50000 1.06000
N 	N 	0.09330 0.49650 0.98630 -0.23800
N 	N 	0.17930 0.51930 0.93950 -0.11000
N 	N 	0.50330 0.86440 0.97890 -0.22700
N 	N 	0.48250 0.72280 0.97630 -0.09600
C 	C 	0.32620 0.51690 0.92490 -0.08100
H 	H 	0.31870 0.46050 0.91080 0.05400
C 	C 	0.39590 0.61820 0.96890 0.04300
C 	C 	0.51170 0.74460 0.92800 -0.01000
H 	H 	0.52180 0.70590 0.89940 0.03600
C 	C 	0.47950 0.79760 0.00700 0.03600
H 	H 	0.46320 0.80150 0.04250 -0.01400
C 	C 	0.38370 0.53600 0.94850 -0.06300
H 	H 	0.41340 0.49240 0.94990 0.04800
C 	C 	0.12110 0.54590 0.94770 0.07000
H 	H 	0.10280 0.59250 0.92880 -0.02600
C 	C 	0.45670 0.63880 0.99480 -0.07200
H 	H 	0.45210 0.64040 0.03480 0.03300
H 	H 	0.48480 0.59130 0.98600 0.05500
C 	C 	0.28260 0.57900 0.92270 0.06500
C 	C 	0.52280 0.83040 0.92960 0.01100
H 	H 	0.54120 0.86280 0.90150 0.00600
C 	C 	0.35090 0.68300 0.96650 -0.05400
H 	H 	0.35850 0.73970 0.98050 0.05600
C 	C 	0.29500 0.66370 0.94330 -0.07900
H 	H 	0.26540 0.70750 0.94140 0.05700
C 	C 	0.22060 0.55700 0.89820 -0.12000
H 	H 	0.20280 0.61120 0.88330 0.06100
H 	H 	0.22550 0.51570 0.86790 0.06100
C 	C 	0.18810 0.44700 0.97550 0.02900
H 	H 	0.22310 0.41290 0.97940 0.02200
C 	C 	0.13590 0.43700 0.00270 -0.05900
H 	H 	0.12940 0.39390 0.02980 0.01400
N 	N 	0.59330 0.00350 0.01370 -0.30700
N 	N 	0.67930 0.98070 0.06050 -0.08200
N 	N 	0.00330 0.63560 0.02110 -0.30300
N 	N 	0.98250 0.77720 0.02370 -0.09500
C 	C 	0.82620 0.98310 0.07510 -0.01300
H 	H 	0.81870 0.03950 0.08920 0.00900
C 	C 	0.89590 0.88180 0.03110 0.07200
C 	C 	0.01170 0.75540 0.07200 -0.07500
H 	H 	0.02180 0.79410 0.10060 0.04500
C 	C 	0.97950 0.70240 0.99300 0.16700
H 	H 	0.96320 0.69850 0.95750 -0.04100
C 	C 	0.88370 0.96400 0.05150 -0.04800
H 	H 	0.91340 0.00760 0.05010 0.02000
C 	C 	0.62110 0.95410 0.05230 0.10500
H 	H 	0.60280 0.90750 0.07120 -0.03200
C 	C 	0.95670 0.86120 0.00520 -0.17200
H 	H 	0.95210 0.85960 0.96520 0.10100
H 	H 	0.98480 0.90870 0.01400 0.09400
C 	C 	0.78260 0.92100 0.07730 0.04000
C 	C 	0.02280 0.66960 0.07040 0.02500
H 	H 	0.04120 0.63720 0.09850 -0.02000
C 	C 	0.85090 0.81700 0.03350 -0.08000
H 	H 	0.85850 0.76030 0.01950 0.05600
C 	C 	0.79500 0.83630 0.05670 -0.05700
H 	H 	0.76540 0.79250 0.05860 0.04700
C 	C 	0.72060 0.94300 0.10180 -0.11300
H 	H 	0.70280 0.88880 0.11670 0.06100
H 	H 	0.72550 0.98430 0.13210 0.07300
C 	C 	0.68810 0.05300 0.02450 -0.12900
H 	H 	0.72310 0.08710 0.02060 0.06400
C 	C 	0.63590 0.06300 0.99730 0.10900
H 	H 	0.62940 0.10610 0.97020 -0.02900
N 	N 	0.90670 0.50350 0.01370 -0.27200
N 	N 	0.82070 0.48070 0.06050 -0.09400
N 	N 	0.49670 0.13560 0.02110 -0.27900
N 	N 	0.51750 0.27720 0.02370 -0.11600
C 	C 	0.67380 0.48310 0.07510 -0.07000
H 	H 	0.68130 0.53950 0.08920 0.05000
C 	C 	0.60410 0.38180 0.03110 0.07000
C 	C 	0.48830 0.25540 0.07200 -0.02500
H 	H 	0.47820 0.29410 0.10060 0.03200
C 	C 	0.52050 0.20240 0.99300 0.12600
H 	H 	0.53680 0.19850 0.95750 -0.03900
C 	C 	0.61630 0.46400 0.05150 -0.08800
H 	H 	0.58660 0.50760 0.05010 0.05100
C 	C 	0.87890 0.45410 0.05230 0.06700
H 	H 	0.89720 0.40750 0.07120 -0.01800
C 	C 	0.54330 0.36120 0.00520 -0.16800
H 	H 	0.54790 0.35960 0.96520 0.09100
H 	H 	0.51520 0.40870 0.01400 0.07000
C 	C 	0.71740 0.42100 0.07730 0.05600
C 	C 	0.47720 0.16960 0.07040 0.00500
H 	H 	0.45880 0.13720 0.09850 -0.01400
C 	C 	0.64910 0.31700 0.03350 -0.07900
H 	H 	0.64150 0.26030 0.01950 0.05100
C 	C 	0.70500 0.33630 0.05670 -0.07000
H 	H 	0.73460 0.29250 0.05860 0.04700
C 	C 	0.77940 0.44300 0.10180 -0.12400
H 	H 	0.79720 0.38880 0.11670 0.06200
H 	H 	0.77450 0.48430 0.13210 0.06600
C 	C 	0.81190 0.55300 0.02450 -0.08300
H 	H 	0.77690 0.58710 0.02060 0.05600
C 	C 	0.86410 0.56300 0.99730 0.09500
H 	H 	0.87060 0.60610 0.97020 -0.01600
N 	N 	0.40670 0.99650 0.98630 -0.20700
N 	N 	0.32070 0.01930 0.93950 -0.12100
N 	N 	0.99670 0.36440 0.97890 -0.20100
N 	N 	0.01750 0.22280 0.97630 -0.11500
C 	C 	0.17380 0.01690 0.92490 -0.13800
H 	H 	0.18130 0.96050 0.91080 0.09400
C 	C 	0.10410 0.11820 0.96890 0.03800
C 	C 	0.98830 0.24460 0.92800 0.03800
H 	H 	0.97820 0.20590 0.89940 0.02400
C 	C 	0.02050 0.29760 0.00700 -0.01100
H 	H 	0.03680 0.30150 0.04250 -0.01000
C 	C 	0.11630 0.03600 0.94850 -0.09800
H 	H 	0.08660 0.99240 0.94990 0.07600
C 	C 	0.37890 0.04590 0.94770 0.03300
H 	H 	0.39720 0.09250 0.92880 -0.01300
C 	C 	0.04330 0.13880 0.99480 -0.06000
H 	H 	0.04790 0.14040 0.03480 0.01700
H 	H 	0.01520 0.09130 0.98600 0.03100
C 	C 	0.21740 0.07900 0.92270 0.08200
C 	C 	0.97720 0.33040 0.92960 -0.00800
H 	H 	0.95880 0.36280 0.90150 0.01200
C 	C 	0.14910 0.18300 0.96650 -0.05100
H 	H 	0.14150 0.23970 0.98050 0.05100
C 	C 	0.20500 0.16370 0.94330 -0.09300
H 	H 	0.23460 0.20750 0.94140 0.05800
C 	C 	0.27940 0.05700 0.89820 -0.13200
H 	H 	0.29720 0.11120 0.88330 0.06200
H 	H 	0.27450 0.01570 0.86790 0.05500
C 	C 	0.31190 0.94700 0.97550 0.06700
H 	H 	0.27690 0.91290 0.97940 0.01700
C 	C 	0.36410 0.93700 0.00270 -0.06400
H 	H 	0.37060 0.89390 0.02980 0.02400
Co	Co	-0.00000 0.50000 -0.00000 1.05100
Co	Co	0.50000 0.00000 -0.00000 1.05300
