data_crystal

_cell_length_a 14.60310
_cell_length_b 14.60310
_cell_length_c 18.80400
_cell_angle_alpha 90.66430
_cell_angle_beta  90.66430
_cell_angle_gamma 90.67420

_symmetry_space_group_name_	'P 1'
_symmetry_space_group_name_H-M	'P 1'

loop_
_symmetry_equiv_pos_as_xyz
  x,y,z

loop_
_atom_site_label
_atom_site_type_symbol
_atom_site_fract_x
_atom_site_fract_y
_atom_site_fract_z
_atom_site_charge
Cu	Cu	0.52508 0.54806 0.44468 0.90700
Cu	Cu	0.54806 0.52508 0.94468 0.90700
Cu	Cu	0.45194 0.47492 0.05532 0.90600
Cu	Cu	0.47492 0.45194 0.55532 0.90600
H 	H 	0.86480 0.88860 0.19340 -0.00200
H 	H 	0.82080 0.43060 0.01850 0.01400
H 	H 	0.17920 0.56940 0.98150 0.01400
H 	H 	0.09480 0.87900 0.83590 0.00900
H 	H 	0.76620 0.67500 0.53070 0.01100
H 	H 	0.96690 0.98110 0.64550 0.21100
H 	H 	0.56060 0.08460 0.23900 -0.04600
H 	H 	0.99940 0.58340 0.68740 -0.04700
H 	H 	0.08460 0.97600 0.17370 0.21000
H 	H 	0.44840 0.92580 0.21140 0.19200
H 	H 	0.08460 0.56060 0.73900 -0.04600
H 	H 	0.35160 0.70980 0.85690 0.02100
H 	H 	0.68480 0.54080 0.70410 0.00800
H 	H 	0.91540 0.02400 0.82630 0.21000
H 	H 	0.41660 0.00060 0.81260 -0.04600
H 	H 	0.88130 0.74870 0.59890 0.08800
H 	H 	0.97600 0.08460 0.67370 0.21100
H 	H 	0.58340 0.99940 0.18740 -0.04600
H 	H 	0.77160 0.22500 0.20370 0.08200
H 	H 	0.96450 0.44610 0.79130 0.20200
H 	H 	0.12100 0.90520 0.66410 0.00900
H 	H 	0.03550 0.55390 0.20870 0.20200
H 	H 	0.45920 0.31520 0.79590 0.00800
H 	H 	0.23380 0.32500 0.46930 0.01100
H 	H 	0.80110 0.61130 0.77070 0.10000
H 	H 	0.58550 0.97210 0.77310 0.18300
H 	H 	0.61130 0.80110 0.27070 0.10000
H 	H 	0.97750 0.10950 0.80340 0.20800
H 	H 	0.13520 0.11140 0.80660 -0.00200
H 	H 	0.94590 0.36490 0.07710 0.09500
H 	H 	0.03310 0.01890 0.35450 0.21100
H 	H 	0.88860 0.86480 0.69340 -0.00200
H 	H 	0.02250 0.89050 0.19660 0.20800
H 	H 	0.36490 0.94590 0.57710 0.09600
H 	H 	0.22500 0.77160 0.70370 0.08200
H 	H 	0.19890 0.38870 0.22930 0.10000
H 	H 	0.97210 0.58550 0.27310 0.18400
H 	H 	0.11870 0.25130 0.40110 0.08800
H 	H 	0.63510 0.05410 0.42290 0.09600
H 	H 	0.31520 0.45920 0.29590 0.00800
H 	H 	0.29020 0.64840 0.64310 0.02100
H 	H 	0.64840 0.29020 0.14310 0.02100
H 	H 	0.32500 0.23380 0.96930 0.01100
H 	H 	0.87900 0.09480 0.33590 0.00900
H 	H 	0.77500 0.22840 0.29630 0.08200
H 	H 	0.56940 0.17920 0.48150 0.01400
H 	H 	0.98110 0.96690 0.14550 0.20900
H 	H 	0.91540 0.43940 0.26100 -0.04600
H 	H 	0.55390 0.03550 0.70870 0.20100
H 	H 	0.55160 0.07420 0.78860 0.19200
H 	H 	0.67500 0.76620 0.03070 0.01100
H 	H 	0.43060 0.82080 0.51850 0.01400
H 	H 	0.90520 0.12100 0.16410 0.00900
H 	H 	0.02790 0.41450 0.72690 0.18400
H 	H 	0.11140 0.13520 0.30660 -0.00200
H 	H 	0.89050 0.02250 0.69660 0.20800
H 	H 	0.38870 0.19890 0.72930 0.10000
H 	H 	0.01890 0.03310 0.85450 0.20900
H 	H 	0.05410 0.63510 0.92290 0.09500
H 	H 	0.22840 0.77500 0.79630 0.08200
H 	H 	0.41450 0.02790 0.22690 0.18300
H 	H 	0.92580 0.44840 0.71140 0.19300
H 	H 	0.02400 0.91540 0.32630 0.21100
H 	H 	0.54080 0.68480 0.20410 0.00800
H 	H 	0.70980 0.35160 0.35690 0.02100
H 	H 	0.10950 0.97750 0.30340 0.20800
H 	H 	0.74870 0.88130 0.09890 0.08800
H 	H 	0.25130 0.11870 0.90110 0.08800
H 	H 	0.43940 0.91540 0.76100 -0.04600
H 	H 	0.44610 0.96450 0.29130 0.20100
H 	H 	0.07420 0.55160 0.28860 0.19300
H 	H 	0.00060 0.41660 0.31260 -0.04700
C 	C 	0.99050 0.00950 0.25000 0.34700
C 	C 	0.45730 0.98030 0.24170 -0.56500
C 	C 	0.69840 0.98240 0.27920 0.20500
C 	C 	0.36011 0.58119 0.95580 0.38900
C 	C 	0.58119 0.36011 0.45580 0.39100
C 	C 	0.78180 0.26720 0.16650 -0.15900
C 	C 	0.01710 0.55830 0.73420 0.28200
C 	C 	0.41651 0.27531 0.81790 0.09600
C 	C 	0.07840 0.25900 0.26700 -0.14600
C 	C 	0.30835 0.14867 0.80850 0.15600
C 	C 	0.97750 0.04390 0.81420 -0.65600
C 	C 	0.87290 0.29230 0.14490 0.13900
C 	C 	0.80990 0.39010 0.05670 0.07900
C 	C 	0.19010 0.60990 0.94330 0.07900
C 	C 	0.27531 0.41651 0.31790 0.09600
C 	C 	0.29320 0.15908 0.87870 -0.18500
C 	C 	0.29090 0.69270 0.86950 0.07300
C 	C 	0.27935 0.62795 0.92380 -0.14500
C 	C 	0.16490 0.07050 0.77490 0.05900
C 	C 	0.22778 0.33732 0.42000 0.09200
C 	C 	0.15630 0.94770 0.69170 0.05200
C 	C 	0.05230 0.84370 0.80830 0.05100
C 	C 	0.73280 0.21820 0.33350 -0.15900
C 	C 	0.77222 0.66268 0.58000 0.09200
C 	C 	0.21820 0.73280 0.83350 -0.15900
C 	C 	0.72469 0.58349 0.68210 0.09600
C 	C 	0.54270 0.01970 0.75830 -0.56500
C 	C 	0.35010 0.88550 0.59170 -0.17100
C 	C 	0.44099 0.36249 0.93188 0.39400
C 	C 	0.92950 0.83510 0.72510 0.05900
C 	C 	0.98030 0.45730 0.74170 -0.56700
C 	C 	0.11450 0.64990 0.90830 -0.17200
C 	C 	0.98290 0.44170 0.26580 0.28200
C 	C 	0.33732 0.22778 0.92000 0.09200
C 	C 	0.11250 0.00590 0.73870 -0.15200
C 	C 	0.64990 0.11450 0.40830 -0.17100
C 	C 	0.88550 0.35010 0.09170 -0.17200
C 	C 	0.74100 0.92160 0.23300 -0.14500
C 	C 	0.29230 0.87290 0.64490 0.13900
C 	C 	0.99410 0.88750 0.76130 -0.15100
C 	C 	0.01760 0.30160 0.22080 0.20700
C 	C 	0.25900 0.07840 0.76700 -0.14500
C 	C 	0.60990 0.19010 0.44330 0.07900
C 	C 	0.41881 0.63989 0.54420 0.39100
C 	C 	0.58349 0.72469 0.18210 0.09600
C 	C 	0.07050 0.16490 0.27490 0.05900
C 	C 	0.84092 0.70680 0.62130 -0.18500
C 	C 	0.72065 0.37205 0.07620 -0.14500
C 	C 	0.28584 0.39814 0.38828 -0.16100
C 	C 	0.94770 0.15630 0.19170 0.05100
C 	C 	0.84370 0.05230 0.30830 0.05200
C 	C 	0.37370 0.20670 0.77800 -0.18300
C 	C 	0.12710 0.70770 0.85510 0.13900
C 	C 	0.15908 0.29320 0.37870 -0.18500
C 	C 	0.20670 0.37370 0.27800 -0.18300
C 	C 	0.30730 0.70910 0.63050 0.07300
C 	C 	0.55901 0.63751 0.06812 0.39400
C 	C 	0.00950 0.99050 0.75000 0.34700
C 	C 	0.69165 0.85133 0.19150 0.15600
C 	C 	0.62795 0.27935 0.42380 -0.14500
C 	C 	0.37205 0.72065 0.57620 -0.14500
C 	C 	0.04980 0.74960 0.81600 -0.13400
C 	C 	0.00590 0.11250 0.23870 -0.15100
C 	C 	0.66268 0.77222 0.08000 0.09200
C 	C 	0.95020 0.25040 0.18400 -0.13400
C 	C 	0.95610 0.02250 0.68580 -0.65900
C 	C 	0.88750 0.99410 0.26130 -0.15200
C 	C 	0.62630 0.79330 0.22200 -0.18300
C 	C 	0.79330 0.62630 0.72200 -0.18300
C 	C 	0.71416 0.60186 0.61172 -0.16100
C 	C 	0.04390 0.97750 0.31420 -0.65900
C 	C 	0.70770 0.12710 0.35510 0.13900
C 	C 	0.98240 0.69840 0.77920 0.20700
C 	C 	0.14867 0.30835 0.30850 0.15700
C 	C 	0.60186 0.71416 0.11172 -0.16100
C 	C 	0.63989 0.41881 0.04420 0.38900
C 	C 	0.69270 0.29090 0.36950 0.07300
C 	C 	0.25040 0.95020 0.68400 -0.13400
C 	C 	0.85133 0.69165 0.69150 0.15700
C 	C 	0.92160 0.74100 0.73300 -0.14600
C 	C 	0.44170 0.98290 0.76580 0.28100
C 	C 	0.36249 0.44099 0.43188 0.39400
C 	C 	0.39814 0.28584 0.88828 -0.16100
C 	C 	0.39010 0.80990 0.55670 0.07900
C 	C 	0.83510 0.92950 0.22510 0.05900
C 	C 	0.02250 0.95610 0.18580 -0.65600
C 	C 	0.01970 0.54270 0.25830 -0.56700
C 	C 	0.30160 0.01760 0.72080 0.20500
C 	C 	0.74960 0.04980 0.31600 -0.13400
C 	C 	0.70680 0.84092 0.12130 -0.18500
C 	C 	0.63751 0.55901 0.56812 0.39400
C 	C 	0.55830 0.01710 0.23420 0.28100
C 	C 	0.70910 0.30730 0.13050 0.07300
C 	C 	0.26720 0.78180 0.66650 -0.15900
O 	O 	0.50102 0.58728 0.09885 -0.41800
O 	O 	0.43253 0.58481 0.92064 -0.42100
O 	O 	0.49898 0.41272 0.90115 -0.41800
O 	O 	0.02202 0.39326 0.21254 -0.29400
O 	O 	0.54424 0.35044 0.51418 -0.41800
O 	O 	0.58346 0.62828 0.00593 -0.42800
O 	O 	0.58481 0.43253 0.42064 -0.42100
O 	O 	0.35044 0.54424 0.01418 -0.41700
O 	O 	0.39326 0.02202 0.71254 -0.29400
O 	O 	0.41272 0.49898 0.40115 -0.41800
O 	O 	0.41654 0.37172 0.99407 -0.42800
O 	O 	0.41519 0.56747 0.57936 -0.42100
O 	O 	0.64956 0.45576 0.98582 -0.41700
O 	O 	0.37172 0.41654 0.49407 -0.42800
O 	O 	0.56747 0.41519 0.07936 -0.42100
O 	O 	0.45576 0.64956 0.48582 -0.41800
O 	O 	0.97798 0.60674 0.78746 -0.29400
O 	O 	0.62828 0.58346 0.50593 -0.42800
O 	O 	0.60674 0.97798 0.28746 -0.29400
O 	O 	0.58728 0.50102 0.59885 -0.41800
