data_crystal

_cell_length_a 17.85900
_cell_length_b 17.08600
_cell_length_c 7.93780
_cell_angle_alpha 90.00000
_cell_angle_beta  111.57700
_cell_angle_gamma 90.00000

_symmetry_space_group_name_	'P 1'
_symmetry_space_group_name_H-M	'P 1'

loop_
_symmetry_equiv_pos_as_xyz
  x,y,z

loop_
_atom_site_label
_atom_site_type_symbol
_atom_site_fract_x
_atom_site_fract_y
_atom_site_fract_z
_atom_site_charge
O 	O 	0.32340 0.19050 0.20800 -0.34300
O 	O 	0.25940 0.09270 0.01600 -0.26500
O 	O 	0.42980 0.07450 0.39100 0.25100
O 	O 	0.24280 0.07100 0.06900 -0.06000
O 	O 	0.31630 0.17110 0.16600 -0.00700
C 	C 	0.31300 0.12290 0.16700 0.08100
C 	C 	0.37080 0.05900 0.28800 -0.05500
C 	C 	0.44920 0.09820 0.39400 -0.47100
H 	H 	0.45370 0.15410 0.38890 0.20000
C 	C 	0.51850 0.05180 0.50900 0.01700
H 	H 	0.56810 0.07730 0.57890 0.07100
C 	C 	0.49040 0.02590 0.48660 0.01800
C 	C 	0.56100 0.06170 0.58440 0.03100
H 	H 	0.56550 0.11760 0.57960 0.00100
C 	C 	0.37410 0.98130 0.30870 -0.45300
H 	H 	0.32450 0.95580 0.23840 0.13300
C 	C 	0.36700 0.03700 0.26900 -0.04100
H 	H 	0.37940 0.00130 0.19050 0.16900
H 	H 	0.34030 0.00930 0.33630 0.21200
C 	C 	0.30500 0.10110 0.15500 0.14800
N 	N 	0.16060 0.23910 0.09430 -0.30500
C 	C 	0.17040 0.25780 0.26210 0.16100
H 	H 	0.22140 0.27330 0.33920 -0.03500
C 	C 	0.10940 0.25570 0.33070 -0.26000
H 	H 	0.11960 0.26960 0.45040 0.12700
C 	C 	0.03420 0.23280 0.21960 0.20100
C 	C 	0.02430 0.21230 0.04400 -0.46700
H 	H 	0.97440 0.19560 0.96360 0.23200
C 	C 	0.08890 0.21700 0.98920 0.34100
H 	H 	0.08080 0.20360 0.87020 -0.09300
O 	O 	0.82340 0.69050 0.20800 -0.34300
O 	O 	0.75940 0.59270 0.01600 -0.26600
O 	O 	0.92980 0.57450 0.39100 0.24900
O 	O 	0.74280 0.57100 0.06900 -0.05700
O 	O 	0.81630 0.67110 0.16600 -0.00600
C 	C 	0.81300 0.62290 0.16700 0.08000
C 	C 	0.87080 0.55900 0.28800 -0.05200
C 	C 	0.94920 0.59820 0.39400 -0.43900
H 	H 	0.95370 0.65410 0.38890 0.19500
C 	C 	0.01850 0.55180 0.50900 0.10100
H 	H 	0.06810 0.57730 0.57890 0.02700
C 	C 	0.99040 0.52590 0.48660 -0.10700
C 	C 	0.06100 0.56170 0.58440 0.03800
H 	H 	0.06550 0.61760 0.57960 0.00900
C 	C 	0.87410 0.48130 0.30870 -0.45900
H 	H 	0.82450 0.45580 0.23840 0.13200
C 	C 	0.86700 0.53700 0.26900 -0.04300
H 	H 	0.87940 0.50130 0.19050 0.17700
H 	H 	0.84030 0.50930 0.33630 0.21900
C 	C 	0.80500 0.60110 0.15500 0.14700
N 	N 	0.66060 0.73910 0.09430 -0.29800
C 	C 	0.67040 0.75780 0.26210 0.15600
H 	H 	0.72140 0.77330 0.33920 -0.03300
C 	C 	0.60940 0.75570 0.33070 -0.25000
H 	H 	0.61960 0.76960 0.45040 0.12600
C 	C 	0.53420 0.73280 0.21960 0.19400
C 	C 	0.52430 0.71230 0.04400 -0.41000
H 	H 	0.47440 0.69560 0.96360 0.19900
C 	C 	0.58890 0.71700 0.98920 0.31500
H 	H 	0.58080 0.70360 0.87020 -0.08000
O 	O 	0.67660 0.19050 0.29200 -0.32400
O 	O 	0.74060 0.09270 0.48400 -0.23800
O 	O 	0.57020 0.07450 0.10900 0.25400
O 	O 	0.75720 0.07100 0.43100 -0.06900
O 	O 	0.68370 0.17110 0.33400 -0.02700
C 	C 	0.68700 0.12290 0.33300 0.07300
C 	C 	0.62920 0.05900 0.21200 -0.05200
C 	C 	0.55080 0.09820 0.10600 -0.53100
H 	H 	0.54630 0.15410 0.11110 0.21100
C 	C 	0.48150 0.05180 0.99100 -0.12000
H 	H 	0.43190 0.07730 0.92110 0.12600
C 	C 	0.50960 0.02590 0.01340 0.23200
C 	C 	0.43900 0.06170 0.91560 0.02900
H 	H 	0.43450 0.11760 0.92040 -0.00200
C 	C 	0.62590 0.98130 0.19130 -0.49300
H 	H 	0.67550 0.95580 0.26160 0.14600
C 	C 	0.63300 0.03700 0.23100 -0.04100
H 	H 	0.62060 0.00130 0.30950 0.18200
H 	H 	0.65970 0.00930 0.16370 0.21500
C 	C 	0.69500 0.10110 0.34500 0.15700
N 	N 	0.83940 0.23910 0.40570 -0.21700
C 	C 	0.82960 0.25780 0.23790 0.06800
H 	H 	0.77860 0.27330 0.16080 -0.01100
C 	C 	0.89060 0.25570 0.16930 -0.10400
H 	H 	0.88040 0.26960 0.04960 0.06000
C 	C 	0.96580 0.23280 0.28040 -0.01000
C 	C 	0.97570 0.21230 0.45600 -0.05800
H 	H 	0.02560 0.19560 0.53640 0.03800
C 	C 	0.91110 0.21700 0.51080 0.06000
H 	H 	0.91920 0.20360 0.62980 0.00600
O 	O 	0.17660 0.69050 0.29200 -0.32200
O 	O 	0.24060 0.59270 0.48400 -0.23600
O 	O 	0.07020 0.57450 0.10900 0.24800
O 	O 	0.25720 0.57100 0.43100 -0.07200
O 	O 	0.18370 0.67110 0.33400 -0.02900
C 	C 	0.18700 0.62290 0.33300 0.07000
C 	C 	0.12920 0.55900 0.21200 -0.04700
C 	C 	0.05080 0.59820 0.10600 -0.55300
H 	H 	0.04630 0.65410 0.11110 0.21200
C 	C 	0.98150 0.55180 0.99100 -0.17900
H 	H 	0.93190 0.57730 0.92110 0.14600
C 	C 	0.00960 0.52590 0.01340 0.33800
C 	C 	0.93900 0.56170 0.91560 0.02700
H 	H 	0.93450 0.61760 0.92040 -0.00300
C 	C 	0.12590 0.48130 0.19130 -0.53600
H 	H 	0.17550 0.45580 0.26160 0.15400
C 	C 	0.13300 0.53700 0.23100 -0.04000
H 	H 	0.12060 0.50130 0.30950 0.19000
H 	H 	0.15970 0.50930 0.16370 0.23000
C 	C 	0.19500 0.60110 0.34500 0.15700
N 	N 	0.33940 0.73910 0.40570 -0.22400
C 	C 	0.32960 0.75780 0.23790 0.07400
H 	H 	0.27860 0.77330 0.16080 -0.01300
C 	C 	0.39060 0.75570 0.16930 -0.11300
H 	H 	0.38040 0.76960 0.04960 0.06200
C 	C 	0.46580 0.73280 0.28040 -0.00200
C 	C 	0.47570 0.71230 0.45600 -0.11600
H 	H 	0.52560 0.69560 0.53640 0.07300
C 	C 	0.41110 0.71700 0.51080 0.08600
H 	H 	0.41920 0.70360 0.62980 -0.00700
O 	O 	0.67660 0.80950 0.79200 -0.31900
O 	O 	0.74060 0.90730 0.98400 -0.22000
O 	O 	0.57020 0.92550 0.60900 0.24600
O 	O 	0.75720 0.92900 0.93100 -0.06300
O 	O 	0.68370 0.82890 0.83400 -0.01500
C 	C 	0.68700 0.87710 0.83300 0.07100
C 	C 	0.62920 0.94100 0.71200 -0.04600
C 	C 	0.55080 0.90180 0.60600 -0.46600
H 	H 	0.54630 0.84590 0.61110 0.19800
C 	C 	0.48150 0.94820 0.49100 0.03300
H 	H 	0.43190 0.92270 0.42110 0.04200
C 	C 	0.50960 0.97410 0.51340 0.00700
C 	C 	0.43900 0.93830 0.41560 0.04200
H 	H 	0.43450 0.88240 0.42040 0.00900
C 	C 	0.62590 0.01870 0.69130 -0.51600
H 	H 	0.67550 0.04420 0.76160 0.15400
C 	C 	0.63300 0.96300 0.73100 -0.04000
H 	H 	0.62060 0.99870 0.80950 0.19700
H 	H 	0.65970 0.99070 0.66370 0.23700
C 	C 	0.69500 0.89890 0.84500 0.15300
N 	N 	0.83940 0.76090 0.90570 -0.15600
C 	C 	0.82960 0.74220 0.73790 0.04100
H 	H 	0.77860 0.72670 0.66080 0.01100
C 	C 	0.89060 0.74430 0.66930 -0.05600
H 	H 	0.88040 0.73040 0.54960 0.06000
C 	C 	0.96580 0.76720 0.78040 -0.05700
C 	C 	0.97570 0.78770 0.95600 0.14400
H 	H 	0.02560 0.80440 0.03640 -0.05800
C 	C 	0.91110 0.78300 0.01080 -0.11900
H 	H 	0.91920 0.79640 0.12980 0.06100
O 	O 	0.17660 0.30950 0.79200 -0.31900
O 	O 	0.24060 0.40730 0.98400 -0.22000
O 	O 	0.07020 0.42550 0.60900 0.24700
O 	O 	0.25720 0.42900 0.93100 -0.06600
O 	O 	0.18370 0.32890 0.83400 -0.01600
C 	C 	0.18700 0.37710 0.83300 0.07100
C 	C 	0.12920 0.44100 0.71200 -0.04800
C 	C 	0.05080 0.40180 0.60600 -0.49700
H 	H 	0.04630 0.34590 0.61110 0.20300
C 	C 	0.98150 0.44820 0.49100 -0.05000
H 	H 	0.93190 0.42270 0.42110 0.08500
C 	C 	0.00960 0.47410 0.51340 0.13100
C 	C 	0.93900 0.43830 0.41560 0.03500
H 	H 	0.93450 0.38240 0.42040 0.00100
C 	C 	0.12590 0.51870 0.69130 -0.51500
H 	H 	0.17550 0.54420 0.76160 0.15500
C 	C 	0.13300 0.46300 0.73100 -0.03800
H 	H 	0.12060 0.49870 0.80950 0.19100
H 	H 	0.15970 0.49070 0.66370 0.23200
C 	C 	0.19500 0.39890 0.84500 0.15400
N 	N 	0.33940 0.26090 0.90570 -0.16100
C 	C 	0.32960 0.24220 0.73790 0.04500
H 	H 	0.27860 0.22670 0.66080 0.00900
C 	C 	0.39060 0.24430 0.66930 -0.06200
H 	H 	0.38040 0.23040 0.54960 0.06000
C 	C 	0.46580 0.26720 0.78040 -0.05500
C 	C 	0.47570 0.28770 0.95600 0.09500
H 	H 	0.52560 0.30440 0.03640 -0.02900
C 	C 	0.41110 0.28300 0.01080 -0.10000
H 	H 	0.41920 0.29640 0.12980 0.04900
O 	O 	0.32340 0.80950 0.70800 -0.34200
O 	O 	0.25940 0.90730 0.51600 -0.25200
O 	O 	0.42980 0.92550 0.89100 0.24500
O 	O 	0.24280 0.92900 0.56900 -0.05200
O 	O 	0.31630 0.82890 0.66600 0.00200
C 	C 	0.31300 0.87710 0.66700 0.07900
C 	C 	0.37080 0.94100 0.78800 -0.05000
C 	C 	0.44920 0.90180 0.89400 -0.40900
H 	H 	0.45370 0.84590 0.88890 0.18900
C 	C 	0.51850 0.94820 0.00900 0.15600
H 	H 	0.56810 0.92270 0.07890 -0.00900
C 	C 	0.49040 0.97410 0.98660 -0.19700
C 	C 	0.56100 0.93830 0.08440 0.04600
H 	H 	0.56550 0.88240 0.07960 0.01200
C 	C 	0.37410 0.01870 0.80870 -0.47400
H 	H 	0.32450 0.04420 0.73840 0.14100
C 	C 	0.36700 0.96300 0.76900 -0.04100
H 	H 	0.37940 0.99870 0.69050 0.18400
H 	H 	0.34030 0.99070 0.83630 0.23400
C 	C 	0.30500 0.89890 0.65500 0.14600
N 	N 	0.16060 0.76090 0.59430 -0.24700
C 	C 	0.17040 0.74220 0.76210 0.13300
H 	H 	0.22140 0.72670 0.83920 -0.01400
C 	C 	0.10940 0.74430 0.83070 -0.21000
H 	H 	0.11960 0.73040 0.95040 0.12500
C 	C 	0.03420 0.76720 0.71960 0.14900
C 	C 	0.02430 0.78770 0.54400 -0.26100
H 	H 	0.97440 0.80440 0.46360 0.13400
C 	C 	0.08890 0.78300 0.48920 0.15900
H 	H 	0.08080 0.79640 0.37020 -0.03900
O 	O 	0.82340 0.30950 0.70800 -0.34500
O 	O 	0.75940 0.40730 0.51600 -0.25400
O 	O 	0.92980 0.42550 0.89100 0.24800
O 	O 	0.74280 0.42900 0.56900 -0.04900
O 	O 	0.81630 0.32890 0.66600 0.00500
C 	C 	0.81300 0.37710 0.66700 0.08200
C 	C 	0.87080 0.44100 0.78800 -0.05400
C 	C 	0.94920 0.40180 0.89400 -0.38300
H 	H 	0.95370 0.34590 0.88890 0.18600
C 	C 	0.01850 0.44820 0.00900 0.23100
H 	H 	0.06810 0.42270 0.07890 -0.03400
C 	C 	0.99040 0.47410 0.98660 -0.31400
C 	C 	0.06100 0.43830 0.08440 0.04600
H 	H 	0.06550 0.38240 0.07960 0.01400
C 	C 	0.87410 0.51870 0.80870 -0.43700
H 	H 	0.82450 0.54420 0.73840 0.13300
C 	C 	0.86700 0.46300 0.76900 -0.04100
H 	H 	0.87940 0.49870 0.69050 0.17800
H 	H 	0.84030 0.49070 0.83630 0.22200
C 	C 	0.80500 0.39890 0.65500 0.14600
N 	N 	0.66060 0.26090 0.59430 -0.24100
C 	C 	0.67040 0.24220 0.76210 0.12800
H 	H 	0.72140 0.22670 0.83920 -0.01200
C 	C 	0.60940 0.24430 0.83070 -0.20200
H 	H 	0.61960 0.23040 0.95040 0.12500
C 	C 	0.53420 0.26720 0.71960 0.14600
C 	C 	0.52430 0.28770 0.54400 -0.20400
H 	H 	0.47440 0.30440 0.46360 0.10000
C 	C 	0.58890 0.28300 0.48920 0.13400
H 	H 	0.58080 0.29640 0.37020 -0.02600
Cu	Cu	0.25000 0.25000 -0.00000 0.88600
Cu	Cu	0.75000 0.25000 0.50000 0.90300
Cu	Cu	0.75000 0.75000 -0.00000 0.88600
Cu	Cu	0.25000 0.75000 0.50000 0.90300
