data_crystal

_cell_length_a 9.34100
_cell_length_b 11.57260
_cell_length_c 17.39540
_cell_angle_alpha 105.01900
_cell_angle_beta  90.00000
_cell_angle_gamma 113.80200

_symmetry_space_group_name_	'P 1'
_symmetry_space_group_name_H-M	'P 1'

loop_
_symmetry_equiv_pos_as_xyz
  x,y,z

loop_
_atom_site_label
_atom_site_type_symbol
_atom_site_fract_x
_atom_site_fract_y
_atom_site_fract_z
_atom_site_charge
Ce	Ce	0.66987 0.97240 0.92695 2.15800
Ce	Ce	0.69747 0.02760 0.57305 2.16200
Ce	Ce	0.33013 0.02760 0.07305 2.15700
Ce	Ce	0.30253 0.97240 0.42695 2.16100
Cu	Cu	0.09456 0.32992 0.13590 0.84500
Cu	Cu	0.76464 0.67008 0.36410 0.84700
Cu	Cu	0.90544 0.67008 0.86410 0.84500
Cu	Cu	0.23536 0.32992 0.63590 0.84700
H 	H 	0.55980 0.19720 0.77960 0.06500
H 	H 	0.50050 0.29760 0.69160 -0.01400
H 	H 	0.09130 0.23080 0.76830 0.01000
H 	H 	0.14080 0.13460 0.85660 0.06300
H 	H 	0.18490 0.71960 0.05490 0.04000
H 	H 	0.08240 0.56380 0.12120 -0.00600
H 	H 	0.28940 0.35800 0.00230 0.00300
H 	H 	0.38980 0.50280 0.92840 0.05900
H 	H 	0.36260 0.80280 0.72040 0.06200
H 	H 	0.20290 0.70240 0.80840 -0.01200
H 	H 	0.86050 0.76920 0.73170 0.01800
H 	H 	0.00620 0.86540 0.64340 0.05800
H 	H 	0.46530 0.28040 0.44510 0.04000
H 	H 	0.51860 0.43620 0.37880 -0.00600
H 	H 	0.93140 0.64200 0.49770 0.00200
H 	H 	0.88700 0.49720 0.57160 0.05900
H 	H 	0.44020 0.80280 0.22040 0.06500
H 	H 	0.49950 0.70240 0.30840 -0.01400
H 	H 	0.90870 0.76920 0.23170 0.01000
H 	H 	0.85920 0.86540 0.14340 0.06300
H 	H 	0.81510 0.28040 0.94510 0.04000
H 	H 	0.91760 0.43620 0.87880 -0.00600
H 	H 	0.71060 0.64200 0.99770 0.00300
H 	H 	0.61020 0.49720 0.07160 0.05900
H 	H 	0.63740 0.19720 0.27960 0.06200
H 	H 	0.79710 0.29760 0.19160 -0.01200
H 	H 	0.13950 0.23080 0.26830 0.01800
H 	H 	0.99380 0.13460 0.35660 0.05800
H 	H 	0.53470 0.71960 0.55490 0.04000
H 	H 	0.48140 0.56380 0.62120 -0.00600
H 	H 	0.06860 0.35800 0.50230 0.00200
H 	H 	0.11300 0.50280 0.42840 0.05900
C 	C 	0.39690 0.08180 0.88140 0.41200
C 	C 	0.35110 0.14860 0.82630 -0.05400
C 	C 	0.46270 0.20140 0.77720 -0.06200
C 	C 	0.42670 0.26140 0.72410 0.03600
C 	C 	0.18600 0.22200 0.76970 0.03300
C 	C 	0.21510 0.16420 0.82240 -0.05100
C 	C 	0.39190 0.74380 0.95000 0.33100
C 	C 	0.30440 0.63080 0.98600 -0.06100
C 	C 	0.20840 0.64680 0.04310 -0.06000
C 	C 	0.14820 0.55240 0.08270 0.03500
C 	C 	0.26670 0.43140 0.01340 0.05000
C 	C 	0.33060 0.51920 0.96920 -0.06500
C 	C 	0.98020 0.92860 0.97620 0.21500
C 	C 	0.70180 0.91980 0.73060 0.24600
C 	C 	0.31510 0.91820 0.61860 0.41600
C 	C 	0.20250 0.85140 0.67370 -0.06400
C 	C 	0.26130 0.79860 0.72280 -0.05500
C 	C 	0.16530 0.73860 0.77590 0.03200
C 	C 	0.96400 0.77800 0.73030 0.01000
C 	C 	0.05090 0.83580 0.67760 -0.03000
C 	C 	0.64810 0.25620 0.55000 0.33100
C 	C 	0.67360 0.36920 0.51400 -0.06000
C 	C 	0.56160 0.35320 0.45690 -0.06000
C 	C 	0.59580 0.44760 0.41730 0.03600
C 	C 	0.83530 0.56860 0.48660 0.05400
C 	C 	0.81140 0.48080 0.53080 -0.06900
C 	C 	0.05160 0.07140 0.52380 0.21900
C 	C 	0.78200 0.08020 0.76940 0.25500
C 	C 	0.60310 0.91820 0.11860 0.41200
C 	C 	0.64890 0.85140 0.17370 -0.05400
C 	C 	0.53730 0.79860 0.22280 -0.06200
C 	C 	0.57330 0.73860 0.27590 0.03600
C 	C 	0.81400 0.77800 0.23030 0.03300
C 	C 	0.78490 0.83580 0.17760 -0.05100
C 	C 	0.60810 0.25620 0.05000 0.33100
C 	C 	0.69560 0.36920 0.01400 -0.06100
C 	C 	0.79160 0.35320 0.95690 -0.06000
C 	C 	0.85180 0.44760 0.91730 0.03500
C 	C 	0.73330 0.56860 0.98660 0.05000
C 	C 	0.66940 0.48080 0.03080 -0.06500
C 	C 	0.01980 0.07140 0.02380 0.21500
C 	C 	0.29820 0.08020 0.26940 0.24600
C 	C 	0.68490 0.08180 0.38140 0.41600
C 	C 	0.79750 0.14860 0.32630 -0.06400
C 	C 	0.73870 0.20140 0.27720 -0.05500
C 	C 	0.83470 0.26140 0.22410 0.03200
C 	C 	0.03600 0.22200 0.26970 0.01000
C 	C 	0.94910 0.16420 0.32240 -0.03000
C 	C 	0.35190 0.74380 0.45000 0.33100
C 	C 	0.32640 0.63080 0.48600 -0.06000
C 	C 	0.43840 0.64680 0.54310 -0.06000
C 	C 	0.40420 0.55240 0.58270 0.03600
C 	C 	0.16470 0.43140 0.51340 0.05400
C 	C 	0.18860 0.51920 0.46920 -0.06900
C 	C 	0.94840 0.92860 0.47620 0.21900
C 	C 	0.21800 0.91980 0.23060 0.25500
N 	N 	0.28840 0.26680 0.71980 -0.24100
N 	N 	0.17700 0.44400 0.06980 -0.24800
N 	N 	0.02160 0.73320 0.78020 -0.23300
N 	N 	0.73300 0.55600 0.43020 -0.24800
N 	N 	0.71160 0.73320 0.28020 -0.24100
N 	N 	0.82300 0.55600 0.93020 -0.24800
N 	N 	0.97840 0.26680 0.21980 -0.23300
N 	N 	0.26700 0.44400 0.56980 -0.24800
O 	O 	0.49090 0.03680 0.86490 -0.51600
O 	O 	0.31690 0.07860 0.94310 -0.46700
O 	O 	0.48700 0.72800 0.90050 -0.43800
O 	O 	0.37380 0.84900 0.97220 -0.57000
O 	O 	0.86240 0.87180 0.92370 -0.48000
O 	O 	0.06750 0.87720 0.99600 -0.44200
O 	O 	0.65260 0.85580 0.77970 -0.42000
O 	O 	0.70760 0.88240 0.65740 -0.41500
O 	O 	0.45410 0.96320 0.63510 -0.51900
O 	O 	0.23830 0.92140 0.55690 -0.46900
O 	O 	0.75900 0.27200 0.59950 -0.43700
O 	O 	0.52480 0.15100 0.52780 -0.57000
O 	O 	0.99060 0.12820 0.57630 -0.47400
O 	O 	0.19030 0.12280 0.50400 -0.45100
O 	O 	0.79680 0.14420 0.72030 -0.42000
O 	O 	0.82520 0.11760 0.84260 -0.41400
O 	O 	0.50910 0.96320 0.13510 -0.51600
O 	O 	0.68310 0.92140 0.05690 -0.46700
O 	O 	0.51300 0.27200 0.09950 -0.43800
O 	O 	0.62620 0.15100 0.02780 -0.57000
O 	O 	0.13760 0.12820 0.07630 -0.48000
O 	O 	0.93250 0.12280 0.00400 -0.44200
O 	O 	0.34740 0.14420 0.22030 -0.42000
O 	O 	0.29240 0.11760 0.34260 -0.41500
O 	O 	0.54590 0.03680 0.36490 -0.51900
O 	O 	0.76170 0.07860 0.44310 -0.46900
O 	O 	0.24100 0.72800 0.40050 -0.43700
O 	O 	0.47520 0.84900 0.47220 -0.57000
O 	O 	0.00940 0.87180 0.42370 -0.47400
O 	O 	0.80970 0.87720 0.49600 -0.45100
O 	O 	0.20320 0.85580 0.27970 -0.42000
O 	O 	0.17480 0.88240 0.15740 -0.41400
