data_crystal

_cell_length_a 9.39390
_cell_length_b 11.51860
_cell_length_c 17.55350
_cell_angle_alpha 105.28900
_cell_angle_beta  90.00000
_cell_angle_gamma 114.06500

_symmetry_space_group_name_	'P 1'
_symmetry_space_group_name_H-M	'P 1'

loop_
_symmetry_equiv_pos_as_xyz
  x,y,z

loop_
_atom_site_label
_atom_site_type_symbol
_atom_site_fract_x
_atom_site_fract_y
_atom_site_fract_z
_atom_site_charge
La	La	0.66858 0.97134 0.92668 1.68700
La	La	0.69724 0.02866 0.57332 1.69600
La	La	0.33142 0.02866 0.07332 1.68600
La	La	0.30276 0.97134 0.42668 1.69500
Cu	Cu	0.09512 0.33006 0.13784 0.84400
Cu	Cu	0.76506 0.66994 0.36216 0.84500
Cu	Cu	0.90488 0.66994 0.86216 0.84400
Cu	Cu	0.23494 0.33006 0.63784 0.84500
H 	H 	0.55710 0.19520 0.77850 0.06600
H 	H 	0.49810 0.29300 0.69230 -0.01500
H 	H 	0.09290 0.23160 0.76820 0.00600
H 	H 	0.14300 0.13660 0.85890 0.06400
H 	H 	0.17820 0.71520 0.05150 0.04400
H 	H 	0.08270 0.56520 0.12300 -0.00700
H 	H 	0.27930 0.34960 0.00230 0.00900
H 	H 	0.38710 0.49800 0.92990 0.05400
H 	H 	0.36190 0.80480 0.72150 0.06400
H 	H 	0.20510 0.70700 0.80770 -0.01300
H 	H 	0.86130 0.76840 0.73180 0.01200
H 	H 	0.00640 0.86340 0.64110 0.06000
H 	H 	0.46300 0.28480 0.44850 0.04300
H 	H 	0.51750 0.43480 0.37700 -0.00700
H 	H 	0.92970 0.65040 0.49770 0.00700
H 	H 	0.88910 0.50200 0.57010 0.05400
H 	H 	0.44290 0.80480 0.22150 0.06600
H 	H 	0.50190 0.70700 0.30770 -0.01500
H 	H 	0.90710 0.76840 0.23180 0.00600
H 	H 	0.85700 0.86340 0.14110 0.06400
H 	H 	0.82180 0.28480 0.94850 0.04400
H 	H 	0.91730 0.43480 0.87700 -0.00700
H 	H 	0.72070 0.65040 0.99770 0.00900
H 	H 	0.61290 0.50200 0.07010 0.05400
H 	H 	0.63810 0.19520 0.27850 0.06400
H 	H 	0.79490 0.29300 0.19230 -0.01300
H 	H 	0.13870 0.23160 0.26820 0.01200
H 	H 	0.99360 0.13660 0.35890 0.06000
H 	H 	0.53700 0.71520 0.55150 0.04300
H 	H 	0.48250 0.56520 0.62300 -0.00700
H 	H 	0.07030 0.34960 0.50230 0.00700
H 	H 	0.11090 0.49800 0.42990 0.05400
C 	C 	0.38939 0.08558 0.88368 0.36900
C 	C 	0.35456 0.15212 0.82739 -0.04900
C 	C 	0.46120 0.20100 0.77730 -0.06600
C 	C 	0.42430 0.25860 0.72520 0.04000
C 	C 	0.18720 0.22340 0.76990 0.03700
C 	C 	0.21610 0.16560 0.82460 -0.06000
C 	C 	0.39009 0.73778 0.94854 0.32500
C 	C 	0.30368 0.62896 0.98639 -0.06900
C 	C 	0.20511 0.64382 0.04220 -0.05400
C 	C 	0.14630 0.55200 0.08410 0.03500
C 	C 	0.26210 0.42600 0.01390 0.03500
C 	C 	0.32759 0.51518 0.97010 -0.05400
C 	C 	0.98029 0.92698 0.97621 0.22800
C 	C 	0.70600 0.92400 0.73177 0.22400
C 	C 	0.30381 0.91442 0.61632 0.37300
C 	C 	0.20244 0.84788 0.67261 -0.05700
C 	C 	0.26020 0.79900 0.72270 -0.05900
C 	C 	0.16570 0.74140 0.77480 0.03700
C 	C 	0.96380 0.77660 0.73010 0.01800
C 	C 	0.05050 0.83440 0.67540 -0.04300
C 	C 	0.65231 0.26222 0.55146 0.32500
C 	C 	0.67472 0.37104 0.51361 -0.06900
C 	C 	0.56129 0.35618 0.45780 -0.05300
C 	C 	0.59430 0.44800 0.41590 0.03500
C 	C 	0.83610 0.57400 0.48610 0.03900
C 	C 	0.81241 0.48482 0.52990 -0.05700
C 	C 	0.05331 0.07302 0.52379 0.23300
C 	C 	0.78200 0.07600 0.76823 0.23400
C 	C 	0.61061 0.91442 0.11632 0.36900
C 	C 	0.64544 0.84788 0.17261 -0.04900
C 	C 	0.53880 0.79900 0.22270 -0.06600
C 	C 	0.57570 0.74140 0.27480 0.04000
C 	C 	0.81280 0.77660 0.23010 0.03700
C 	C 	0.78390 0.83440 0.17540 -0.06000
C 	C 	0.60991 0.26222 0.05146 0.32500
C 	C 	0.69632 0.37104 0.01361 -0.06900
C 	C 	0.79489 0.35618 0.95780 -0.05400
C 	C 	0.85370 0.44800 0.91590 0.03500
C 	C 	0.73790 0.57400 0.98610 0.03500
C 	C 	0.67241 0.48482 0.02990 -0.05400
C 	C 	0.01971 0.07302 0.02379 0.22800
C 	C 	0.29400 0.07600 0.26823 0.22400
C 	C 	0.69619 0.08558 0.38368 0.37300
C 	C 	0.79756 0.15212 0.32739 -0.05700
C 	C 	0.73980 0.20100 0.27730 -0.05900
C 	C 	0.83430 0.25860 0.22520 0.03700
C 	C 	0.03620 0.22340 0.26990 0.01800
C 	C 	0.94950 0.16560 0.32460 -0.04300
C 	C 	0.34769 0.73778 0.44854 0.32500
C 	C 	0.32528 0.62896 0.48639 -0.06900
C 	C 	0.43871 0.64382 0.54220 -0.05300
C 	C 	0.40570 0.55200 0.58410 0.03500
C 	C 	0.16390 0.42600 0.51390 0.03900
C 	C 	0.18759 0.51518 0.47010 -0.05700
C 	C 	0.94669 0.92698 0.47621 0.23300
C 	C 	0.21800 0.92400 0.23177 0.23400
N 	N 	0.28773 0.26746 0.71982 -0.24600
N 	N 	0.17592 0.44524 0.07185 -0.24400
N 	N 	0.02027 0.73254 0.78018 -0.23900
N 	N 	0.73068 0.55476 0.42815 -0.24400
N 	N 	0.71227 0.73254 0.28018 -0.24600
N 	N 	0.82408 0.55476 0.92815 -0.24400
N 	N 	0.97973 0.26746 0.21982 -0.23900
N 	N 	0.26932 0.44524 0.57185 -0.24400
O 	O 	0.48925 0.03970 0.86598 -0.41700
O 	O 	0.31772 0.08264 0.94366 -0.40700
O 	O 	0.48219 0.72158 0.89999 -0.38800
O 	O 	0.37424 0.84548 0.97092 -0.46700
O 	O 	0.86530 0.86960 0.92299 -0.42900
O 	O 	0.06556 0.87692 0.99512 -0.39500
O 	O 	0.65377 0.85574 0.77914 -0.35800
O 	O 	0.70607 0.88174 0.65847 -0.35200
O 	O 	0.44955 0.96030 0.63402 -0.42000
O 	O 	0.23508 0.91736 0.55634 -0.40900
O 	O 	0.76061 0.27842 0.60001 -0.38800
O 	O 	0.52876 0.15452 0.52908 -0.46800
O 	O 	0.99570 0.13040 0.57701 -0.42400
O 	O 	0.18864 0.12308 0.50488 -0.40500
O 	O 	0.79803 0.14426 0.72086 -0.35900
O 	O 	0.82433 0.11826 0.84153 -0.35000
O 	O 	0.51075 0.96030 0.13402 -0.41700
O 	O 	0.68228 0.91736 0.05634 -0.40700
O 	O 	0.51781 0.27842 0.10001 -0.38800
O 	O 	0.62576 0.15452 0.02908 -0.46700
O 	O 	0.13470 0.13040 0.07701 -0.42900
O 	O 	0.93444 0.12308 0.00488 -0.39500
O 	O 	0.34623 0.14426 0.22086 -0.35800
O 	O 	0.29393 0.11826 0.34153 -0.35200
O 	O 	0.55045 0.03970 0.36598 -0.42000
O 	O 	0.76492 0.08264 0.44366 -0.40900
O 	O 	0.23939 0.72158 0.39999 -0.38800
O 	O 	0.47124 0.84548 0.47092 -0.46800
O 	O 	0.00430 0.86960 0.42299 -0.42400
O 	O 	0.81136 0.87692 0.49512 -0.40500
O 	O 	0.20197 0.85574 0.27914 -0.35900
O 	O 	0.17567 0.88174 0.15847 -0.35000
