data_crystal

_cell_length_a 11.45450
_cell_length_b 11.45450
_cell_length_c 15.07770
_cell_angle_alpha 109.62100
_cell_angle_beta  109.62100
_cell_angle_gamma 96.58340

_symmetry_space_group_name_	'P 1'
_symmetry_space_group_name_H-M	'P 1'

loop_
_symmetry_equiv_pos_as_xyz
  x,y,z

loop_
_atom_site_label
_atom_site_type_symbol
_atom_site_fract_x
_atom_site_fract_y
_atom_site_fract_z
_atom_site_charge
Cd	Cd	0.26684 0.00398 0.28620 1.23800
Cd	Cd	0.73316 0.99602 0.71380 1.23800
Cd	Cd	0.00398 0.26684 0.78620 1.23700
Cd	Cd	0.99602 0.73316 0.21380 1.23700
H 	H 	0.11620 0.83900 0.92070 0.12500
H 	H 	0.75480 0.55840 0.85670 0.13300
H 	H 	0.98430 0.48750 0.69600 0.09500
H 	H 	0.83900 0.11620 0.42070 0.12700
H 	H 	0.55840 0.75480 0.35670 0.13200
H 	H 	0.67780 0.66280 0.12700 0.09700
H 	H 	0.88380 0.16100 0.07930 0.12500
H 	H 	0.24520 0.44160 0.14330 0.13300
H 	H 	0.93160 0.81640 0.40940 0.04200
H 	H 	0.18360 0.06840 0.09060 0.04300
H 	H 	0.33720 0.32220 0.37300 0.09800
H 	H 	0.81640 0.93160 0.90940 0.04300
H 	H 	0.01570 0.51250 0.30400 0.09500
H 	H 	0.47670 0.89490 0.51910 0.03800
H 	H 	0.16100 0.88380 0.57930 0.12700
H 	H 	0.48750 0.98430 0.19600 0.09400
H 	H 	0.10510 0.52330 0.98090 0.03600
H 	H 	0.44160 0.24520 0.64330 0.13200
H 	H 	0.32220 0.33720 0.87300 0.09700
H 	H 	0.00220 0.94860 0.19310 0.46600
H 	H 	0.52330 0.10510 0.48090 0.03800
H 	H 	0.06840 0.18360 0.59060 0.04200
H 	H 	0.51250 0.01570 0.80400 0.09400
H 	H 	0.66280 0.67780 0.62700 0.09800
H 	H 	0.89490 0.47670 0.01910 0.03600
H 	H 	0.05140 0.99780 0.30690 0.46500
H 	H 	0.99780 0.05140 0.80690 0.46600
H 	H 	0.94860 0.00220 0.69310 0.46500
C 	C 	0.78610 0.84610 0.86330 0.02900
C 	C 	0.16480 0.77000 0.08400 0.36100
C 	C 	0.70090 0.59870 0.73050 0.21700
C 	C 	0.84610 0.78610 0.36330 0.03000
C 	C 	0.14790 0.20750 0.98230 0.32100
C 	C 	0.56120 0.09020 0.43370 0.03800
C 	C 	0.95620 0.32860 0.20360 0.21300
C 	C 	0.59870 0.70090 0.23050 0.21600
C 	C 	0.53960 0.01860 0.26580 -0.06700
C 	C 	0.32860 0.95620 0.70360 0.21300
C 	C 	0.29910 0.40130 0.26950 0.21700
C 	C 	0.09610 0.75030 0.89900 -0.11600
C 	C 	0.90980 0.43880 0.06630 0.04000
C 	C 	0.24830 0.20690 0.59760 -0.01900
C 	C 	0.21390 0.15390 0.13670 0.02900
C 	C 	0.46040 0.98140 0.73420 -0.06700
C 	C 	0.69730 0.69610 0.19720 -0.06300
C 	C 	0.24960 0.37560 0.16630 -0.12600
C 	C 	0.90390 0.24970 0.10100 -0.11600
C 	C 	0.20690 0.24830 0.09760 -0.01500
C 	C 	0.30640 0.88160 0.53030 -0.03100
C 	C 	0.30270 0.30390 0.80280 -0.06300
C 	C 	0.88160 0.30640 0.03030 -0.03700
C 	C 	0.77000 0.16480 0.58400 0.35600
C 	C 	0.24970 0.90390 0.60100 -0.11800
C 	C 	0.75170 0.79310 0.40240 -0.01900
C 	C 	0.40130 0.29910 0.76950 0.21600
C 	C 	0.11840 0.69360 0.96970 -0.03700
C 	C 	0.69360 0.11840 0.46970 -0.03100
C 	C 	0.20750 0.14790 0.48230 0.32400
C 	C 	0.15390 0.21390 0.63670 0.03000
C 	C 	0.85210 0.79250 0.01770 0.32100
C 	C 	0.62440 0.75040 0.33370 -0.12500
C 	C 	0.23000 0.83520 0.41600 0.35600
C 	C 	0.75030 0.09610 0.39900 -0.11800
C 	C 	0.79310 0.75170 0.90240 -0.01500
C 	C 	0.67140 0.04380 0.29640 0.21300
C 	C 	0.01860 0.53960 0.76580 -0.06800
C 	C 	0.79250 0.85210 0.51770 0.32400
C 	C 	0.98140 0.46040 0.23420 -0.06800
C 	C 	0.09020 0.56120 0.93370 0.04000
C 	C 	0.83520 0.23000 0.91600 0.36100
C 	C 	0.04380 0.67140 0.79640 0.21300
C 	C 	0.69610 0.69730 0.69720 -0.06400
C 	C 	0.43880 0.90980 0.56630 0.03800
C 	C 	0.37560 0.24960 0.66630 -0.12500
C 	C 	0.30390 0.30270 0.30280 -0.06400
C 	C 	0.75040 0.62440 0.83370 -0.12600
N 	N 	0.48520 0.04200 0.33280 -0.18400
N 	N 	0.95800 0.51480 0.16720 -0.18400
N 	N 	0.82000 0.73840 0.26340 -0.17400
N 	N 	0.26160 0.18000 0.23660 -0.17300
N 	N 	0.73840 0.82000 0.76340 -0.17300
N 	N 	0.51480 0.95800 0.66720 -0.18400
N 	N 	0.18000 0.26160 0.73660 -0.17400
N 	N 	0.04200 0.48520 0.83280 -0.18400
Cl	Cl	0.73281 0.00415 0.20284 -0.31600
Cl	Cl	0.64702 0.44142 0.63980 -0.32200
Cl	Cl	0.00415 0.73281 0.70284 -0.31600
Cl	Cl	0.26719 0.99585 0.79716 -0.31600
Cl	Cl	0.35298 0.55858 0.36020 -0.32200
Cl	Cl	0.55858 0.35298 0.86020 -0.32200
Cl	Cl	0.99585 0.26719 0.29716 -0.31600
Cl	Cl	0.44142 0.64702 0.13980 -0.32200
O 	O 	0.71181 0.13779 0.63400 -0.39900
O 	O 	0.89320 0.91100 0.07060 -0.30000
O 	O 	0.88440 0.22560 0.61920 -0.39100
O 	O 	0.91100 0.89320 0.57060 -0.30000
O 	O 	0.28819 0.86221 0.36600 -0.39900
O 	O 	0.70531 0.85549 0.55040 -0.37300
O 	O 	0.05100 0.94900 0.25000 -1.05600
O 	O 	0.11560 0.77440 0.38080 -0.39100
O 	O 	0.13779 0.71181 0.13400 -0.39900
O 	O 	0.14451 0.29469 0.94960 -0.37400
O 	O 	0.08900 0.10680 0.42940 -0.30000
O 	O 	0.10680 0.08900 0.92940 -0.30000
O 	O 	0.22560 0.88440 0.11920 -0.39200
O 	O 	0.77440 0.11560 0.88080 -0.39200
O 	O 	0.85549 0.70531 0.05040 -0.37400
O 	O 	0.29469 0.14451 0.44960 -0.37300
O 	O 	0.94900 0.05100 0.75000 -1.05600
O 	O 	0.86221 0.28819 0.86600 -0.39900
