data_crystal

_cell_length_a 18.70280
_cell_length_b 18.70280
_cell_length_c 18.20280
_cell_angle_alpha 90.00000
_cell_angle_beta  90.00000
_cell_angle_gamma 90.00000

_symmetry_space_group_name_	'P 1'
_symmetry_space_group_name_H-M	'P 1'

loop_
_symmetry_equiv_pos_as_xyz
  x,y,z

loop_
_atom_site_label
_atom_site_type_symbol
_atom_site_fract_x
_atom_site_fract_y
_atom_site_fract_z
_atom_site_charge
O 	O 	0.22590 0.14420 0.42680 -0.95700
C 	C 	0.19291 0.28122 0.28426 0.33600
N 	N 	0.13742 0.31587 0.31910 0.66900
H 	H 	0.15308 0.30609 0.30927 -0.78400
O 	O 	0.72590 0.64420 0.92680 -0.72900
C 	C 	0.69291 0.78122 0.78426 0.28600
N 	N 	0.63742 0.81587 0.81910 0.63000
H 	H 	0.65308 0.80609 0.80927 -0.68300
O 	O 	0.77410 0.85580 0.42680 -0.98500
C 	C 	0.80709 0.71878 0.28426 0.34600
N 	N 	0.86258 0.68413 0.31910 0.69800
H 	H 	0.84692 0.69391 0.30927 -0.84700
O 	O 	0.27410 0.35580 0.92680 -0.71800
C 	C 	0.30709 0.21878 0.78426 0.28600
N 	N 	0.36258 0.18413 0.81910 0.60100
H 	H 	0.34692 0.19391 0.80927 -0.63300
O 	O 	0.85580 0.22590 0.42680 -0.98100
C 	C 	0.71878 0.19291 0.28426 0.33400
N 	N 	0.68413 0.13742 0.31910 0.66900
H 	H 	0.69391 0.15308 0.30927 -0.79100
O 	O 	0.35580 0.72590 0.92680 -0.72700
C 	C 	0.21878 0.69291 0.78426 0.28400
N 	N 	0.18413 0.63742 0.81910 0.60400
H 	H 	0.19391 0.65308 0.80927 -0.64000
O 	O 	0.14420 0.77410 0.42680 -0.96300
C 	C 	0.28122 0.80709 0.28426 0.34500
N 	N 	0.31587 0.86258 0.31910 0.69600
H 	H 	0.30609 0.84692 0.30927 -0.84200
O 	O 	0.64420 0.27410 0.92680 -0.72200
C 	C 	0.78122 0.30709 0.78426 0.28700
N 	N 	0.81587 0.36258 0.81910 0.62500
H 	H 	0.80609 0.34692 0.80927 -0.67700
O 	O 	0.77410 0.14420 0.57320 -0.95200
C 	C 	0.80709 0.28122 0.71574 0.36900
N 	N 	0.86258 0.31587 0.68090 0.63400
H 	H 	0.84692 0.30609 0.69073 -0.75200
O 	O 	0.27410 0.64420 0.07320 -1.03700
C 	C 	0.30709 0.78122 0.21574 0.34300
N 	N 	0.36258 0.81587 0.18090 0.69100
H 	H 	0.34692 0.80609 0.19073 -0.83600
O 	O 	0.22590 0.85580 0.57320 -0.96900
C 	C 	0.19291 0.71878 0.71574 0.35800
N 	N 	0.13742 0.68413 0.68090 0.60600
H 	H 	0.15308 0.69391 0.69073 -0.70000
O 	O 	0.72590 0.35580 0.07320 -1.04300
C 	C 	0.69291 0.21878 0.21574 0.34000
N 	N 	0.63742 0.18413 0.18090 0.67100
H 	H 	0.65308 0.19391 0.19073 -0.79900
O 	O 	0.14420 0.22590 0.57320 -0.94700
C 	C 	0.28122 0.19291 0.71574 0.35900
N 	N 	0.31587 0.13742 0.68090 0.60500
H 	H 	0.30609 0.15308 0.69073 -0.69500
O 	O 	0.64420 0.72590 0.07320 -1.04600
C 	C 	0.78122 0.69291 0.21574 0.34100
N 	N 	0.81587 0.63742 0.18090 0.69500
H 	H 	0.80609 0.65308 0.19073 -0.84300
O 	O 	0.85580 0.77410 0.57320 -0.97500
C 	C 	0.71878 0.80709 0.71574 0.36900
N 	N 	0.68413 0.86258 0.68090 0.63500
H 	H 	0.69391 0.84692 0.69073 -0.75700
O 	O 	0.35580 0.27410 0.07320 -1.03400
C 	C 	0.21878 0.30709 0.21574 0.34100
N 	N 	0.18413 0.36258 0.18090 0.66700
H 	H 	0.19391 0.34692 0.19073 -0.79300
O 	O 	0.77410 0.85580 0.57320 -0.97500
C 	C 	0.80709 0.71878 0.71574 0.36900
N 	N 	0.86258 0.68413 0.68090 0.63500
H 	H 	0.84692 0.69391 0.69073 -0.75700
O 	O 	0.27410 0.35580 0.07320 -1.03400
C 	C 	0.30709 0.21878 0.21574 0.34100
N 	N 	0.36258 0.18413 0.18090 0.66700
H 	H 	0.34692 0.19391 0.19073 -0.79300
O 	O 	0.22590 0.14420 0.57320 -0.94700
C 	C 	0.19291 0.28122 0.71574 0.35900
N 	N 	0.13742 0.31587 0.68090 0.60500
H 	H 	0.15308 0.30609 0.69073 -0.69500
O 	O 	0.72590 0.64420 0.07320 -1.04600
C 	C 	0.69291 0.78122 0.21574 0.34100
N 	N 	0.63742 0.81587 0.18090 0.69500
H 	H 	0.65308 0.80609 0.19073 -0.84300
O 	O 	0.14420 0.77410 0.57320 -0.95200
C 	C 	0.28122 0.80709 0.71574 0.36900
N 	N 	0.31587 0.86258 0.68090 0.63400
H 	H 	0.30609 0.84692 0.69073 -0.75200
O 	O 	0.64420 0.27410 0.07320 -1.03700
C 	C 	0.78122 0.30709 0.21574 0.34300
N 	N 	0.81587 0.36258 0.18090 0.69100
H 	H 	0.80609 0.34692 0.19073 -0.83600
O 	O 	0.85580 0.22590 0.57320 -0.96900
C 	C 	0.71878 0.19291 0.71574 0.35800
N 	N 	0.68413 0.13742 0.68090 0.60600
H 	H 	0.69391 0.15308 0.69073 -0.70000
O 	O 	0.35580 0.72590 0.07320 -1.04300
C 	C 	0.21878 0.69291 0.21574 0.34000
N 	N 	0.18413 0.63742 0.18090 0.67100
H 	H 	0.19391 0.65308 0.19073 -0.79900
O 	O 	0.22590 0.85580 0.42680 -0.98100
C 	C 	0.19291 0.71878 0.28426 0.33400
N 	N 	0.13742 0.68413 0.31910 0.66900
H 	H 	0.15308 0.69391 0.30927 -0.79100
O 	O 	0.72590 0.35580 0.92680 -0.72700
C 	C 	0.69291 0.21878 0.78426 0.28400
N 	N 	0.63742 0.18413 0.81910 0.60400
H 	H 	0.65308 0.19391 0.80927 -0.64000
O 	O 	0.77410 0.14420 0.42680 -0.96300
C 	C 	0.80709 0.28122 0.28426 0.34500
N 	N 	0.86258 0.31587 0.31910 0.69600
H 	H 	0.84692 0.30609 0.30927 -0.84200
O 	O 	0.27410 0.64420 0.92680 -0.72200
C 	C 	0.30709 0.78122 0.78426 0.28700
N 	N 	0.36258 0.81587 0.81910 0.62500
H 	H 	0.34692 0.80609 0.80927 -0.67700
O 	O 	0.85580 0.77410 0.42680 -0.98600
C 	C 	0.71878 0.80709 0.28426 0.34500
N 	N 	0.68413 0.86258 0.31910 0.69800
H 	H 	0.69391 0.84692 0.30927 -0.84700
O 	O 	0.35580 0.27410 0.92680 -0.71800
C 	C 	0.21878 0.30709 0.78426 0.28600
N 	N 	0.18413 0.36258 0.81910 0.60100
H 	H 	0.19391 0.34692 0.80927 -0.63300
O 	O 	0.14420 0.22590 0.42680 -0.95800
C 	C 	0.28122 0.19291 0.28426 0.33500
N 	N 	0.31587 0.13742 0.31910 0.66800
H 	H 	0.30609 0.15308 0.30927 -0.78500
O 	O 	0.64420 0.72590 0.92680 -0.73000
C 	C 	0.78122 0.69291 0.78426 0.28500
N 	N 	0.81587 0.63742 0.81910 0.62900
H 	H 	0.80609 0.65308 0.80927 -0.68400
Ti	Ti	0.20830 0.07400 0.50000 3.10800
O 	O 	0.31110 0.05800 0.50000 -0.84100
C 	C 	0.46333 0.06514 0.50000 0.26600
N 	N 	0.42348 0.12294 0.50000 0.47000
H 	H 	0.43430 0.10725 0.50000 -0.56500
Ti	Ti	0.70830 0.57400 -0.00000 3.07700
O 	O 	0.81110 0.55800 -0.00000 -0.98500
C 	C 	0.96333 0.56514 -0.00000 0.18700
N 	N 	0.92348 0.62294 -0.00000 0.59900
H 	H 	0.93430 0.60725 -0.00000 -0.78300
Ti	Ti	0.79170 0.92600 0.50000 3.10100
O 	O 	0.68890 0.94200 0.50000 -0.92300
C 	C 	0.53667 0.93486 0.50000 0.20700
N 	N 	0.57652 0.87706 0.50000 0.51300
H 	H 	0.56570 0.89275 0.50000 -0.61300
Ti	Ti	0.29170 0.42600 -0.00000 3.07700
O 	O 	0.18890 0.44200 -0.00000 -0.97600
C 	C 	0.03667 0.43486 -0.00000 0.35300
N 	N 	0.07652 0.37706 -0.00000 0.44900
H 	H 	0.06570 0.39275 -0.00000 -0.62400
Ti	Ti	0.92600 0.20830 0.50000 3.10100
O 	O 	0.94200 0.31110 0.50000 -0.92300
C 	C 	0.93486 0.46333 0.50000 0.20700
N 	N 	0.87706 0.42348 0.50000 0.51300
H 	H 	0.89275 0.43430 0.50000 -0.61200
Ti	Ti	0.42600 0.70830 -0.00000 3.07700
O 	O 	0.44200 0.81110 -0.00000 -0.98200
C 	C 	0.43486 0.96333 -0.00000 0.18500
N 	N 	0.37706 0.92348 -0.00000 0.59400
H 	H 	0.39275 0.93430 -0.00000 -0.77100
Ti	Ti	0.07400 0.79170 0.50000 3.10800
O 	O 	0.05800 0.68890 0.50000 -0.84100
C 	C 	0.06514 0.53667 0.50000 0.26600
N 	N 	0.12294 0.57652 0.50000 0.47000
H 	H 	0.10725 0.56570 0.50000 -0.56500
Ti	Ti	0.57400 0.29170 -0.00000 3.07700
O 	O 	0.55800 0.18890 -0.00000 -0.97900
C 	C 	0.56514 0.03667 -0.00000 0.35500
N 	N 	0.62294 0.07652 -0.00000 0.45400
H 	H 	0.60725 0.06570 -0.00000 -0.63500
Ti	Ti	0.79170 0.07400 0.50000 3.10800
O 	O 	0.68890 0.05800 0.50000 -0.84100
C 	C 	0.53667 0.06514 0.50000 0.26600
N 	N 	0.57652 0.12294 0.50000 0.47000
H 	H 	0.56570 0.10725 0.50000 -0.56500
Ti	Ti	0.29170 0.57400 -0.00000 3.07700
O 	O 	0.18890 0.55800 -0.00000 -0.97900
C 	C 	0.03667 0.56514 -0.00000 0.35500
N 	N 	0.07652 0.62294 -0.00000 0.45400
H 	H 	0.06570 0.60725 -0.00000 -0.63500
Ti	Ti	0.20830 0.92600 0.50000 3.10100
O 	O 	0.31110 0.94200 0.50000 -0.92300
C 	C 	0.46333 0.93486 0.50000 0.20700
N 	N 	0.42348 0.87706 0.50000 0.51300
H 	H 	0.43430 0.89275 0.50000 -0.61200
Ti	Ti	0.70830 0.42600 -0.00000 3.07700
O 	O 	0.81110 0.44200 -0.00000 -0.98200
C 	C 	0.96333 0.43486 -0.00000 0.18500
N 	N 	0.92348 0.37706 -0.00000 0.59400
H 	H 	0.93430 0.39275 -0.00000 -0.77100
Ti	Ti	0.07400 0.20830 0.50000 3.10800
O 	O 	0.05800 0.31110 0.50000 -0.84100
C 	C 	0.06514 0.46333 0.50000 0.26600
N 	N 	0.12294 0.42348 0.50000 0.47000
H 	H 	0.10725 0.43430 0.50000 -0.56500
Ti	Ti	0.57400 0.70830 -0.00000 3.07700
O 	O 	0.55800 0.81110 -0.00000 -0.98500
C 	C 	0.56514 0.96333 -0.00000 0.18700
N 	N 	0.62294 0.92348 -0.00000 0.59900
H 	H 	0.60725 0.93430 -0.00000 -0.78300
Ti	Ti	0.92600 0.79170 0.50000 3.10100
O 	O 	0.94200 0.68890 0.50000 -0.92300
C 	C 	0.93486 0.53667 0.50000 0.20700
N 	N 	0.87706 0.57652 0.50000 0.51300
H 	H 	0.89275 0.56570 0.50000 -0.61300
Ti	Ti	0.42600 0.29170 -0.00000 3.07700
O 	O 	0.44200 0.18890 -0.00000 -0.97600
C 	C 	0.43486 0.03667 -0.00000 0.35300
N 	N 	0.37706 0.07652 -0.00000 0.44900
H 	H 	0.39275 0.06570 -0.00000 -0.62400
O 	O 	0.18190 -0.00000 0.42650 -0.96500
O 	O 	0.68190 0.50000 0.92650 -0.75600
O 	O 	0.81810 -0.00000 0.42650 -0.98500
O 	O 	0.31810 0.50000 0.92650 -0.75300
O 	O 	0.00000 0.18190 0.42650 -0.96500
O 	O 	0.50000 0.68190 0.92650 -0.75600
O 	O 	-0.00000 0.81810 0.42650 -0.98500
O 	O 	0.50000 0.31810 0.92650 -0.75300
O 	O 	0.81810 0.00000 0.57350 -0.95500
O 	O 	0.31810 0.50000 0.07350 -1.06400
O 	O 	0.18190 0.00000 0.57350 -0.93600
O 	O 	0.68190 0.50000 0.07350 -1.06600
O 	O 	0.00000 0.18190 0.57350 -0.93600
O 	O 	0.50000 0.68190 0.07350 -1.06600
O 	O 	0.00000 0.81810 0.57350 -0.95500
O 	O 	0.50000 0.31810 0.07350 -1.06400
C 	C 	0.19400 0.19400 0.40230 0.85900
C 	C 	0.22250 0.22250 0.32090 -0.38400
C 	C 	0.69400 0.69400 0.90230 0.79300
C 	C 	0.72250 0.72250 0.82090 -0.28700
C 	C 	0.80600 0.80600 0.40230 0.86200
C 	C 	0.77750 0.77750 0.32090 -0.42000
C 	C 	0.30600 0.30600 0.90230 0.79500
C 	C 	0.27750 0.27750 0.82090 -0.26700
C 	C 	0.80600 0.19400 0.40230 0.86100
C 	C 	0.77750 0.22250 0.32090 -0.40200
C 	C 	0.30600 0.69400 0.90230 0.79400
C 	C 	0.27750 0.72250 0.82090 -0.27700
C 	C 	0.19400 0.80600 0.40230 0.86100
C 	C 	0.22250 0.77750 0.32090 -0.40200
C 	C 	0.69400 0.30600 0.90230 0.79400
C 	C 	0.72250 0.27750 0.82090 -0.27700
C 	C 	0.80600 0.19400 0.59770 0.86700
C 	C 	0.77750 0.22250 0.67910 -0.38200
C 	C 	0.30600 0.69400 0.09770 0.86400
C 	C 	0.27750 0.72250 0.17910 -0.41300
C 	C 	0.19400 0.80600 0.59770 0.86700
C 	C 	0.22250 0.77750 0.67910 -0.38200
C 	C 	0.69400 0.30600 0.09770 0.86400
C 	C 	0.72250 0.27750 0.17910 -0.41300
C 	C 	0.19400 0.19400 0.59770 0.86500
C 	C 	0.22250 0.22250 0.67910 -0.36300
C 	C 	0.69400 0.69400 0.09770 0.86300
C 	C 	0.72250 0.72250 0.17910 -0.42300
C 	C 	0.80600 0.80600 0.59770 0.86900
C 	C 	0.77750 0.77750 0.67910 -0.40000
C 	C 	0.30600 0.30600 0.09770 0.86500
C 	C 	0.27750 0.27750 0.17910 -0.40300
C 	C 	0.42650 -0.00000 0.50000 -0.31300
C 	C 	0.35070 -0.00000 0.50000 0.68300
C 	C 	0.92650 0.50000 -0.00000 -0.44300
C 	C 	0.85070 0.50000 -0.00000 0.59400
C 	C 	0.57350 -0.00000 0.50000 -0.31300
C 	C 	0.64930 -0.00000 0.50000 0.68200
C 	C 	0.07350 0.50000 -0.00000 -0.49700
C 	C 	0.14930 0.50000 -0.00000 0.62700
C 	C 	0.00000 0.42650 0.50000 -0.31300
C 	C 	-0.00000 0.35070 0.50000 0.68300
C 	C 	0.50000 0.92650 -0.00000 -0.44300
C 	C 	0.50000 0.85070 -0.00000 0.59400
C 	C 	-0.00000 0.57350 0.50000 -0.31300
C 	C 	0.00000 0.64930 0.50000 0.68200
C 	C 	0.50000 0.07350 -0.00000 -0.49700
C 	C 	0.50000 0.14930 -0.00000 0.62700
O 	O 	0.10740 0.10740 0.50000 -0.96500
O 	O 	0.60740 0.60740 -0.00000 -1.19800
O 	O 	0.89260 0.89260 0.50000 -1.05600
O 	O 	0.39260 0.39260 -0.00000 -1.19900
O 	O 	0.89260 0.10740 0.50000 -1.01000
O 	O 	0.39260 0.60740 -0.00000 -1.19900
O 	O 	0.10740 0.89260 0.50000 -1.01000
O 	O 	0.60740 0.39260 -0.00000 -1.19900
