data_crystal

_cell_length_a 8.27280
_cell_length_b 8.27280
_cell_length_c 15.24900
_cell_angle_alpha 88.81990
_cell_angle_beta  88.81990
_cell_angle_gamma 86.47340

_symmetry_space_group_name_	'P 1'
_symmetry_space_group_name_H-M	'P 1'

loop_
_symmetry_equiv_pos_as_xyz
  x,y,z

loop_
_atom_site_label
_atom_site_type_symbol
_atom_site_fract_x
_atom_site_fract_y
_atom_site_fract_z
_atom_site_charge
Cd	Cd	0.50000 0.00000 0.50000 1.07600
Cd	Cd	-0.00000 0.50000 -0.00000 1.04400
Cd	Cd	0.48895 0.51105 0.25000 1.14400
Cd	Cd	0.51105 0.48895 0.75000 1.15100
C 	C 	0.48000 0.71820 0.33900 -0.30700
C 	C 	0.49480 0.29920 0.34120 -0.34700
C 	C 	0.28180 0.52000 0.16100 -0.36200
C 	C 	0.70080 0.50520 0.15880 -0.31700
C 	C 	0.52000 0.28180 0.66100 -0.33400
C 	C 	0.50520 0.70080 0.65880 -0.28700
C 	C 	0.71820 0.48000 0.83900 -0.27900
C 	C 	0.29920 0.49480 0.84120 -0.31600
N 	N 	0.47570 0.81210 0.39200 -0.21100
N 	N 	0.50030 0.19990 0.39260 -0.26200
N 	N 	0.18790 0.52430 0.10800 -0.27700
N 	N 	0.80010 0.49970 0.10740 -0.22800
N 	N 	0.52430 0.18790 0.60800 -0.26000
N 	N 	0.49970 0.80010 0.60740 -0.21000
N 	N 	0.81210 0.47570 0.89200 -0.18600
N 	N 	0.19990 0.50030 0.89260 -0.23200
