data_crystal

_cell_length_a 18.83220
_cell_length_b 18.83220
_cell_length_c 18.83220
_cell_angle_alpha 60.00000
_cell_angle_beta  60.00000
_cell_angle_gamma 60.00000

_symmetry_space_group_name_	'P 1'
_symmetry_space_group_name_H-M	'P 1'

loop_
_symmetry_equiv_pos_as_xyz
  x,y,z

loop_
_atom_site_label
_atom_site_type_symbol
_atom_site_fract_x
_atom_site_fract_y
_atom_site_fract_z
_atom_site_charge
Fe	Fe	0.57936 0.42064 -0.00000 0.99300
Fe	Fe	0.42064 0.57936 -0.00000 0.99300
Fe	Fe	-0.00000 -0.00000 0.57936 0.85000
Fe	Fe	-0.00000 -0.00000 0.42064 0.82800
Fe	Fe	0.57936 0.00000 -0.00000 0.85000
Fe	Fe	0.42064 0.00000 -0.00000 0.82800
Fe	Fe	0.00000 0.57936 0.42064 0.99300
Fe	Fe	0.00000 0.42064 0.57936 0.99300
Fe	Fe	0.57936 -0.00000 0.42064 0.99300
Fe	Fe	0.42064 -0.00000 0.57936 0.99300
Fe	Fe	0.00000 0.42064 -0.00000 0.82800
Fe	Fe	0.00000 0.57936 -0.00000 0.85000
H 	H 	0.26800 0.50400 0.96000 0.05200
H 	H 	0.50400 0.26800 0.26800 -0.01300
H 	H 	0.96000 0.26800 0.26800 0.02600
H 	H 	0.26800 0.96000 0.50400 0.05200
H 	H 	0.26800 0.96000 0.26800 0.02600
H 	H 	0.50400 0.26800 0.96000 0.05200
H 	H 	0.96000 0.26800 0.50400 0.05200
H 	H 	0.26800 0.50400 0.26800 -0.01300
H 	H 	0.26800 0.26800 0.50400 -0.01300
H 	H 	0.50400 0.96000 0.26800 0.05200
H 	H 	0.96000 0.50400 0.26800 0.05200
H 	H 	0.26800 0.26800 0.96000 0.02600
H 	H 	0.49600 0.73200 0.04000 0.00600
H 	H 	0.73200 0.49600 0.73200 0.06600
H 	H 	0.73200 0.04000 0.73200 0.03700
H 	H 	0.04000 0.73200 0.49600 0.00600
H 	H 	0.04000 0.73200 0.73200 0.03700
H 	H 	0.73200 0.49600 0.04000 0.00600
H 	H 	0.73200 0.04000 0.49600 0.00600
H 	H 	0.49600 0.73200 0.73200 0.06600
H 	H 	0.73200 0.73200 0.49600 0.06600
H 	H 	0.04000 0.49600 0.73200 0.00600
H 	H 	0.49600 0.04000 0.73200 0.00600
H 	H 	0.73200 0.73200 0.04000 0.03700
C 	C 	0.43070 0.43070 0.97350 0.41000
C 	C 	0.38630 0.38630 0.96898 -0.13500
C 	C 	0.43070 0.43070 0.16510 0.44600
C 	C 	0.38630 0.38630 0.25842 -0.22700
C 	C 	0.97350 0.16510 0.43070 0.41100
C 	C 	0.96898 0.25842 0.38630 -0.15300
C 	C 	0.16510 0.97350 0.43070 0.41100
C 	C 	0.25842 0.96898 0.38630 -0.15300
C 	C 	0.43070 0.97350 0.16510 0.41100
C 	C 	0.38630 0.96898 0.25842 -0.15300
C 	C 	0.43070 0.16510 0.97350 0.41100
C 	C 	0.38630 0.25842 0.96898 -0.15300
C 	C 	0.97350 0.43070 0.43070 0.41000
C 	C 	0.96898 0.38630 0.38630 -0.13500
C 	C 	0.16510 0.43070 0.43070 0.44600
C 	C 	0.25842 0.38630 0.38630 -0.22700
C 	C 	0.43070 0.16510 0.43070 0.44600
C 	C 	0.38630 0.25842 0.38630 -0.22700
C 	C 	0.43070 0.97350 0.43070 0.41000
C 	C 	0.38630 0.96898 0.38630 -0.13500
C 	C 	0.97350 0.43070 0.16510 0.41100
C 	C 	0.96898 0.38630 0.25842 -0.15300
C 	C 	0.16510 0.43070 0.97350 0.41100
C 	C 	0.25842 0.38630 0.96898 -0.15300
C 	C 	0.56930 0.56930 0.02650 0.44500
C 	C 	0.61370 0.61370 0.03102 -0.20400
C 	C 	0.56930 0.56930 0.83490 0.41100
C 	C 	0.61370 0.61370 0.74158 -0.12100
C 	C 	0.83490 0.02650 0.56930 0.41100
C 	C 	0.74158 0.03102 0.61370 -0.17400
C 	C 	0.02650 0.83490 0.56930 0.41100
C 	C 	0.03102 0.74158 0.61370 -0.17400
C 	C 	0.02650 0.56930 0.83490 0.41100
C 	C 	0.03102 0.61370 0.74158 -0.17400
C 	C 	0.83490 0.56930 0.02650 0.41100
C 	C 	0.74158 0.61370 0.03102 -0.17400
C 	C 	0.56930 0.02650 0.56930 0.44500
C 	C 	0.61370 0.03102 0.61370 -0.20400
C 	C 	0.56930 0.83490 0.56930 0.41100
C 	C 	0.61370 0.74158 0.61370 -0.12100
C 	C 	0.83490 0.56930 0.56930 0.41100
C 	C 	0.74158 0.61370 0.61370 -0.12100
C 	C 	0.02650 0.56930 0.56930 0.44500
C 	C 	0.03102 0.61370 0.61370 -0.20400
C 	C 	0.56930 0.02650 0.83490 0.41100
C 	C 	0.61370 0.03102 0.74158 -0.17400
C 	C 	0.56930 0.83490 0.02650 0.41100
C 	C 	0.61370 0.74158 0.03102 -0.17400
C 	C 	0.30130 0.42874 0.96866 0.10700
C 	C 	0.42874 0.30130 0.30130 0.10200
C 	C 	0.96866 0.30130 0.30130 0.10200
C 	C 	0.30130 0.96866 0.42874 0.10700
C 	C 	0.30130 0.96866 0.30130 0.10200
C 	C 	0.42874 0.30130 0.96866 0.10700
C 	C 	0.96866 0.30130 0.42874 0.10700
C 	C 	0.30130 0.42874 0.30130 0.10200
C 	C 	0.30130 0.30130 0.42874 0.10200
C 	C 	0.42874 0.96866 0.30130 0.10700
C 	C 	0.96866 0.42874 0.30130 0.10700
C 	C 	0.30130 0.30130 0.96866 0.10200
C 	C 	0.57126 0.69870 0.03134 0.10000
C 	C 	0.69870 0.57126 0.69870 0.11300
C 	C 	0.69870 0.03134 0.69870 0.10200
C 	C 	0.03134 0.69870 0.57126 0.10000
C 	C 	0.03134 0.69870 0.69870 0.10200
C 	C 	0.69870 0.57126 0.03134 0.10000
C 	C 	0.69870 0.03134 0.57126 0.10000
C 	C 	0.57126 0.69870 0.69870 0.11300
C 	C 	0.69870 0.69870 0.57126 0.11300
C 	C 	0.03134 0.57126 0.69870 0.10000
C 	C 	0.57126 0.03134 0.69870 0.10000
C 	C 	0.69870 0.69870 0.03134 0.10200
O 	O 	0.50458 0.38830 0.97852 -0.33900
O 	O 	0.38830 0.50458 0.12860 -0.55300
O 	O 	0.97852 0.12860 0.50458 -0.38500
O 	O 	0.12860 0.97852 0.38830 -0.40600
O 	O 	0.50458 0.97852 0.12860 -0.38500
O 	O 	0.38830 0.12860 0.97852 -0.40600
O 	O 	0.97852 0.50458 0.38830 -0.33900
O 	O 	0.12860 0.38830 0.50458 -0.55300
O 	O 	0.50458 0.12860 0.38830 -0.55300
O 	O 	0.38830 0.97852 0.50458 -0.33900
O 	O 	0.97852 0.38830 0.12860 -0.40600
O 	O 	0.12860 0.50458 0.97852 -0.38500
O 	O 	0.61170 0.49542 0.02148 -0.54100
O 	O 	0.49542 0.61170 0.87140 -0.33000
O 	O 	0.87140 0.02148 0.49542 -0.42000
O 	O 	0.02148 0.87140 0.61170 -0.39800
O 	O 	0.02148 0.49542 0.87140 -0.42000
O 	O 	0.87140 0.61170 0.02148 -0.39800
O 	O 	0.49542 0.02148 0.61170 -0.54100
O 	O 	0.61170 0.87140 0.49542 -0.33000
O 	O 	0.87140 0.49542 0.61170 -0.33000
O 	O 	0.02148 0.61170 0.49542 -0.54100
O 	O 	0.61170 0.02148 0.87140 -0.39800
O 	O 	0.49542 0.87140 0.02148 -0.42000
O 	O 	0.49542 0.61170 0.02148 -0.54100
O 	O 	0.61170 0.49542 0.87140 -0.33000
O 	O 	0.02148 0.87140 0.49542 -0.42000
O 	O 	0.87140 0.02148 0.61170 -0.39800
O 	O 	0.49542 0.02148 0.87140 -0.42000
O 	O 	0.61170 0.87140 0.02148 -0.39800
O 	O 	0.02148 0.49542 0.61170 -0.54100
O 	O 	0.87140 0.61170 0.49542 -0.33000
O 	O 	0.49542 0.87140 0.61170 -0.33000
O 	O 	0.61170 0.02148 0.49542 -0.54100
O 	O 	0.02148 0.61170 0.87140 -0.39800
O 	O 	0.87140 0.49542 0.02148 -0.42000
O 	O 	0.38830 0.50458 0.97852 -0.33900
O 	O 	0.50458 0.38830 0.12860 -0.55300
O 	O 	0.12860 0.97852 0.50458 -0.38500
O 	O 	0.97852 0.12860 0.38830 -0.40600
O 	O 	0.97852 0.50458 0.12860 -0.38500
O 	O 	0.12860 0.38830 0.97852 -0.40600
O 	O 	0.50458 0.97852 0.38830 -0.33900
O 	O 	0.38830 0.12860 0.50458 -0.55300
O 	O 	0.12860 0.50458 0.38830 -0.55300
O 	O 	0.97852 0.38830 0.50458 -0.33900
O 	O 	0.38830 0.97852 0.12860 -0.40600
O 	O 	0.50458 0.12860 0.97852 -0.38500
