data_crystal

_cell_length_a 12.89760
_cell_length_b 11.53970
_cell_length_c 17.39860
_cell_angle_alpha 90.00000
_cell_angle_beta  110.13800
_cell_angle_gamma 90.00000

_symmetry_space_group_name_	'P 1'
_symmetry_space_group_name_H-M	'P 1'

loop_
_symmetry_equiv_pos_as_xyz
  x,y,z

loop_
_atom_site_label
_atom_site_type_symbol
_atom_site_fract_x
_atom_site_fract_y
_atom_site_fract_z
_atom_site_charge
N 	N 	0.89160 0.50950 0.06320 -0.24500
N 	N 	0.10200 0.39380 0.09030 -0.27000
C 	C 	0.79430 0.57050 0.04100 0.06100
C 	C 	0.74110 0.55120 0.10060 -0.06200
H 	H 	0.67290 0.58340 0.09980 0.05100
C 	C 	0.80710 0.47840 0.15830 -0.07700
H 	H 	0.79390 0.45000 0.20530 0.06800
C 	C 	0.90130 0.45240 0.13410 0.10500
C 	C 	0.98640 0.37290 0.17530 -0.07700
C 	C 	0.07810 0.34660 0.15410 0.02500
C 	C 	0.16200 0.26180 0.19610 -0.05400
H 	H 	0.16470 0.21670 0.24250 0.03400
C 	C 	0.23560 0.25950 0.15620 -0.10200
H 	H 	0.30020 0.21290 0.16960 0.05900
C 	C 	0.19730 0.34160 0.08900 0.11100
C 	C 	0.75300 0.64060 0.97000 -0.09500
C 	C 	0.97370 0.31320 0.24800 0.20400
C 	C 	0.03220 0.34470 0.32710 -0.24500
H 	H 	0.08810 0.40230 0.33770 0.10300
C 	C 	0.01010 0.29280 0.39140 0.03000
H 	H 	0.04980 0.31640 0.44600 0.01700
N 	N 	0.93310 0.20940 0.37770 -0.05700
O 	O 	0.90890 0.16260 0.43940 -0.24300
C 	C 	0.87800 0.17300 0.30160 0.09400
H 	H 	0.82530 0.11240 0.29270 0.00300
C 	C 	0.89760 0.22340 0.23580 -0.18300
H 	H 	0.85880 0.19660 0.18190 0.10500
C 	C 	0.64570 0.69870 0.95780 0.17600
C 	C 	0.55260 0.66960 0.89260 -0.17500
H 	H 	0.55750 0.61440 0.85350 0.09700
C 	C 	0.45160 0.72100 0.88410 0.10300
H 	H 	0.38790 0.70110 0.83880 0.01600
N 	N 	0.44360 0.79750 0.93860 -0.07100
O 	O 	0.34580 0.83880 0.93290 -0.10500
C 	C 	0.53430 0.83110 0.00010 0.06100
H 	H 	0.52750 0.88910 0.03680 0.03200
C 	C 	0.63600 0.78500 0.01170 -0.20700
H 	H 	0.69910 0.81090 0.05540 0.10400
N 	N 	0.10840 0.49050 0.93680 -0.26900
N 	N 	0.89800 0.60620 0.90970 -0.24500
C 	C 	0.20570 0.42950 0.95900 0.15800
C 	C 	0.25890 0.44880 0.89940 -0.09300
H 	H 	0.32710 0.41660 0.90020 0.07500
C 	C 	0.19290 0.52160 0.84170 -0.07300
H 	H 	0.20610 0.55000 0.79470 0.06100
C 	C 	0.09870 0.54760 0.86590 0.11600
C 	C 	0.01360 0.62710 0.82470 -0.19800
C 	C 	0.92190 0.65340 0.84590 0.19200
C 	C 	0.83800 0.73820 0.80390 -0.10100
H 	H 	0.83530 0.78330 0.75750 0.08800
C 	C 	0.76440 0.74050 0.84380 -0.05100
H 	H 	0.69980 0.78710 0.83040 0.06600
C 	C 	0.80270 0.65840 0.91100 0.10200
C 	C 	0.24700 0.35940 0.03000 -0.18700
C 	C 	0.02630 0.68680 0.75200 0.06300
C 	C 	0.96780 0.65530 0.67290 -0.08200
H 	H 	0.91190 0.59770 0.66230 0.07500
C 	C 	0.98990 0.70720 0.60860 0.10900
H 	H 	0.95020 0.68360 0.55400 0.02300
N 	N 	0.06690 0.79060 0.62230 -0.10900
O 	O 	0.09110 0.83740 0.56060 -0.25800
C 	C 	0.12200 0.82700 0.69840 0.05200
H 	H 	0.17470 0.88760 0.70730 0.03700
C 	C 	0.10240 0.77660 0.76420 -0.13800
H 	H 	0.14120 0.80340 0.81810 0.09800
C 	C 	0.35430 0.30130 0.04220 0.08900
C 	C 	0.44740 0.33040 0.10740 -0.15500
H 	H 	0.44250 0.38560 0.14650 0.08500
C 	C 	0.54840 0.27900 0.11590 0.06700
H 	H 	0.61210 0.29890 0.16120 0.02100
N 	N 	0.55640 0.20250 0.06140 -0.10700
O 	O 	0.65420 0.16120 0.06710 -0.14900
C 	C 	0.46570 0.16890 0.99990 0.10800
H 	H 	0.47250 0.11090 0.96320 0.01600
C 	C 	0.36400 0.21500 0.98830 -0.11900
H 	H 	0.30090 0.18910 0.94460 0.07500
Zn	Zn	0.00000 0.50000 -0.00000 1.17000
N 	N 	0.10840 0.00950 0.43680 -0.30500
N 	N 	0.89800 0.89380 0.40970 -0.24600
C 	C 	0.20570 0.07050 0.45900 0.12400
C 	C 	0.25890 0.05120 0.39940 -0.16900
H 	H 	0.32710 0.08340 0.40020 0.08100
C 	C 	0.19290 0.97840 0.34170 0.00100
H 	H 	0.20610 0.95000 0.29470 0.04500
C 	C 	0.09870 0.95240 0.36590 0.14000
C 	C 	0.01360 0.87290 0.32470 -0.20300
C 	C 	0.92190 0.84660 0.34590 0.19700
C 	C 	0.83800 0.76180 0.30390 -0.10600
H 	H 	0.83530 0.71670 0.25750 0.08200
C 	C 	0.76440 0.75950 0.34380 -0.05500
H 	H 	0.69980 0.71290 0.33040 0.05700
C 	C 	0.80270 0.84160 0.41100 0.10400
C 	C 	0.24700 0.14060 0.53000 -0.15800
C 	C 	0.02630 0.81320 0.25200 0.06500
C 	C 	0.96780 0.84470 0.17290 -0.08400
H 	H 	0.91190 0.90230 0.16230 0.08200
C 	C 	0.98990 0.79280 0.10860 0.11000
H 	H 	0.95020 0.81640 0.05400 0.01700
N 	N 	0.06690 0.70940 0.12230 -0.11000
O 	O 	0.09110 0.66260 0.06060 -0.28700
C 	C 	0.12200 0.67300 0.19840 0.04700
H 	H 	0.17470 0.61240 0.20730 0.02300
C 	C 	0.10240 0.72340 0.26420 -0.14400
H 	H 	0.14120 0.69660 0.31810 0.09000
C 	C 	0.35430 0.19870 0.54220 0.13500
C 	C 	0.44740 0.16960 0.60740 -0.16900
H 	H 	0.44250 0.11440 0.64650 0.08500
C 	C 	0.54840 0.22100 0.61590 0.08200
H 	H 	0.61210 0.20110 0.66120 0.01600
N 	N 	0.55640 0.29750 0.56140 -0.09000
O 	O 	0.65420 0.33880 0.56710 -0.12700
C 	C 	0.46570 0.33110 0.49990 0.08500
H 	H 	0.47250 0.38910 0.46320 0.02300
C 	C 	0.36400 0.28500 0.48830 -0.16800
H 	H 	0.30090 0.31090 0.44460 0.08900
N 	N 	0.89160 0.99050 0.56320 -0.21100
N 	N 	0.10200 0.10620 0.59030 -0.26800
C 	C 	0.79430 0.92950 0.54100 0.09500
C 	C 	0.74110 0.94880 0.60060 0.01000
H 	H 	0.67290 0.91660 0.59980 0.04600
C 	C 	0.80710 0.02160 0.65830 -0.14800
H 	H 	0.79390 0.05000 0.70530 0.08300
C 	C 	0.90130 0.04760 0.63410 0.08400
C 	C 	0.98640 0.12710 0.67530 -0.07300
C 	C 	0.07810 0.15340 0.65410 0.02200
C 	C 	0.16200 0.23820 0.69610 -0.04900
H 	H 	0.16470 0.28330 0.74250 0.04100
C 	C 	0.23560 0.24050 0.65620 -0.09700
H 	H 	0.30020 0.28710 0.66960 0.06800
C 	C 	0.19730 0.15840 0.58900 0.10800
C 	C 	0.75300 0.85940 0.47000 -0.12200
C 	C 	0.97370 0.18680 0.74800 0.20000
C 	C 	0.03220 0.15530 0.82710 -0.24200
H 	H 	0.08810 0.09770 0.83770 0.09500
C 	C 	0.01010 0.20720 0.89140 0.03200
H 	H 	0.04980 0.18360 0.94600 0.02300
N 	N 	0.93310 0.29060 0.87770 -0.05700
O 	O 	0.90890 0.33740 0.93940 -0.21800
C 	C 	0.87800 0.32700 0.80160 0.09700
H 	H 	0.82530 0.38760 0.79270 0.01500
C 	C 	0.89760 0.27660 0.73580 -0.17800
H 	H 	0.85880 0.30340 0.68190 0.11200
C 	C 	0.64570 0.80130 0.45780 0.12900
C 	C 	0.55260 0.83040 0.39260 -0.16000
H 	H 	0.55750 0.88560 0.35350 0.09700
C 	C 	0.45160 0.77900 0.38410 0.08800
H 	H 	0.38790 0.79890 0.33880 0.02100
N 	N 	0.44360 0.70250 0.43860 -0.08800
O 	O 	0.34580 0.66120 0.43290 -0.12800
C 	C 	0.53430 0.66890 0.50010 0.08700
H 	H 	0.52750 0.61090 0.53680 0.02500
C 	C 	0.63600 0.71500 0.51170 -0.15900
H 	H 	0.69910 0.68910 0.55540 0.09100
Zn	Zn	0.00000 0.00000 0.50000 1.16700
