data_crystal

_cell_length_a 10.04300
_cell_length_b 10.04300
_cell_length_c 13.82800
_cell_angle_alpha 90.00000
_cell_angle_beta  90.00000
_cell_angle_gamma 90.00000

_symmetry_space_group_name_	'P 1'
_symmetry_space_group_name_H-M	'P 1'

loop_
_symmetry_equiv_pos_as_xyz
  x,y,z

loop_
_atom_site_label
_atom_site_type_symbol
_atom_site_fract_x
_atom_site_fract_y
_atom_site_fract_z
_atom_site_charge
O 	O 	0.06010 0.23660 0.75700 -0.57500
O 	O 	0.16360 0.98930 0.07610 -0.65000
O 	O 	0.43990 0.26340 0.75700 -0.52300
O 	O 	0.33640 0.51070 0.07610 -0.76900
O 	O 	0.26340 0.06010 0.25700 -0.61800
O 	O 	0.51070 0.16360 0.57610 -0.68300
O 	O 	0.23660 0.43990 0.25700 -0.54700
O 	O 	0.98930 0.33640 0.57610 -0.51800
O 	O 	0.93990 0.73660 0.74300 -0.46900
O 	O 	0.83640 0.48930 0.42390 -0.58200
O 	O 	0.56010 0.76340 0.74300 -0.53000
O 	O 	0.66360 0.01070 0.42390 -0.74100
O 	O 	0.73660 0.56010 0.24300 -0.55200
O 	O 	0.48930 0.66360 0.92390 -0.49200
O 	O 	0.76340 0.93990 0.24300 -0.50400
O 	O 	0.01070 0.83640 0.92390 -0.56400
O 	O 	0.93990 0.76340 0.24300 -0.50400
O 	O 	0.83640 0.01070 0.92390 -0.56400
O 	O 	0.56010 0.73660 0.24300 -0.55200
O 	O 	0.66360 0.48930 0.92390 -0.49200
O 	O 	0.73660 0.93990 0.74300 -0.46900
O 	O 	0.48930 0.83640 0.42390 -0.58200
O 	O 	0.76340 0.56010 0.74300 -0.53000
O 	O 	0.01070 0.66360 0.42390 -0.74100
O 	O 	0.06010 0.26340 0.25700 -0.61800
O 	O 	0.16360 0.51070 0.57610 -0.68300
O 	O 	0.43990 0.23660 0.25700 -0.54700
O 	O 	0.33640 0.98930 0.57610 -0.51800
O 	O 	0.26340 0.43990 0.75700 -0.52300
O 	O 	0.51070 0.33640 0.07610 -0.76900
O 	O 	0.23660 0.06010 0.75700 -0.57400
O 	O 	0.98930 0.16360 0.07610 -0.65000
Ga	Ga	-0.00000 0.00000 -0.00000 1.94000
Ga	Ga	0.50000 0.50000 -0.00000 2.01800
Ga	Ga	0.50000 0.00000 0.50000 2.04300
Ga	Ga	-0.00000 0.50000 0.50000 2.04300
Ga	Ga	0.87640 0.87640 0.82208 2.11400
P 	P 	0.09760 0.09760 0.79170 0.41400
O 	O 	0.09990 0.09990 0.90430 -0.47400
O 	O 	0.99670 0.99670 0.75550 -0.23000
Ga	Ga	0.62360 0.62360 0.82208 2.09400
P 	P 	0.40240 0.40240 0.79170 0.66200
O 	O 	0.40010 0.40010 0.90430 -0.39800
O 	O 	0.50330 0.50330 0.75550 -0.51600
Ga	Ga	0.62360 0.87640 0.32208 2.10500
P 	P 	0.40240 0.09760 0.29170 0.53500
O 	O 	0.40010 0.09990 0.40430 -0.57300
O 	O 	0.50330 0.99670 0.25550 -0.38800
Ga	Ga	0.87640 0.62360 0.32208 2.10500
P 	P 	0.09760 0.40240 0.29170 0.53500
O 	O 	0.09990 0.40010 0.40430 -0.57300
O 	O 	0.99670 0.50330 0.25550 -0.38800
Ga	Ga	0.12360 0.37640 0.67792 2.08000
P 	P 	0.90240 0.59760 0.70830 0.79400
O 	O 	0.90010 0.59990 0.59570 -0.46400
O 	O 	0.00330 0.49670 0.74450 -0.65100
Ga	Ga	0.37640 0.12360 0.67792 2.08000
P 	P 	0.59760 0.90240 0.70830 0.79400
O 	O 	0.59990 0.90010 0.59570 -0.46400
O 	O 	0.49670 0.00330 0.74450 -0.65100
Ga	Ga	0.37640 0.37640 0.17792 2.09100
P 	P 	0.59760 0.59760 0.20830 0.67300
O 	O 	0.59990 0.59990 0.09570 -0.62400
O 	O 	0.49670 0.49670 0.24450 -0.53200
Ga	Ga	0.12360 0.12360 0.17792 2.06600
P 	P 	0.90240 0.90240 0.20830 0.93200
O 	O 	0.90010 0.90010 0.09570 -0.52800
O 	O 	0.00330 0.00330 0.24450 -0.85200
F 	F 	0.75000 0.75000 0.88720 -0.69700
F 	F 	0.75000 0.75000 0.38720 -0.74800
F 	F 	0.25000 0.25000 0.61280 -0.83700
F 	F 	0.25000 0.25000 0.11280 -0.89700
