data_crystal

_cell_length_a 15.22900
_cell_length_b 8.79600
_cell_length_c 38.65000
_cell_angle_alpha 90.00000
_cell_angle_beta  89.97700
_cell_angle_gamma 90.00000

_symmetry_space_group_name_	'P 1'
_symmetry_space_group_name_H-M	'P 1'

loop_
_symmetry_equiv_pos_as_xyz
  x,y,z

loop_
_atom_site_label
_atom_site_type_symbol
_atom_site_fract_x
_atom_site_fract_y
_atom_site_fract_z
_atom_site_charge
Zn	Zn	0.76003 0.90840 0.24968 1.05200
Zn	Zn	0.59590 0.22460 0.25247 0.75000
Zn	Zn	0.75849 0.50520 0.25120 1.26300
Zn	Zn	0.55433 0.20940 0.25598 0.82600
Co	Co	0.24218 0.48250 0.04862 1.17200
C 	C 	0.32190 0.25110 0.09469 0.02900
H 	H 	0.29540 0.16810 0.08290 0.01400
C 	C 	0.36720 0.23840 0.12490 -0.04600
H 	H 	0.37750 0.14630 0.13710 0.04200
C 	C 	0.39550 0.37970 0.13510 -0.09700
H 	H 	0.42700 0.40540 0.15550 0.05900
C 	C 	0.36710 0.47930 0.10823 0.10900
C 	C 	0.38730 0.63440 0.10443 -0.14800
C 	C 	0.36270 0.72110 0.07560 0.10800
C 	C 	0.39070 0.87000 0.06741 -0.10300
H 	H 	0.42660 0.93370 0.08130 0.06500
C 	C 	0.35550 0.90600 0.03495 -0.04400
H 	H 	0.36360 0.99770 0.02240 0.04200
C 	C 	0.30540 0.77770 0.02463 0.02600
H 	H 	0.27370 0.77110 0.00350 0.01300
C 	C 	0.43780 0.70590 0.13264 0.14200
C 	C 	0.40020 0.82300 0.15140 -0.18200
H 	H 	0.34300 0.85780 0.14570 0.09100
C 	C 	0.44650 0.89070 0.17890 0.10300
H 	H 	0.41920 0.96880 0.19210 -0.00100
C 	C 	0.53000 0.84610 0.18710 -0.18800
C 	C 	0.56910 0.73180 0.16720 0.09400
H 	H 	0.62790 0.70230 0.17190 0.01900
C 	C 	0.52310 0.66000 0.14030 -0.17900
H 	H 	0.55000 0.58050 0.12750 0.08900
C 	C 	0.58270 0.92450 0.21490 0.48100
C 	C 	0.89980 0.13900 0.51631 0.02900
H 	H 	0.92900 0.14550 0.53800 0.01200
C 	C 	0.93770 0.18330 0.48360 -0.04300
H 	H 	0.99460 0.22350 0.47960 0.04700
C 	C 	0.87370 0.15470 0.45960 -0.09900
H 	H 	0.87810 0.17510 0.43550 0.06600
C 	C 	0.80100 0.09110 0.47605 0.10300
C 	C 	0.72220 0.03320 0.46149 -0.14000
C 	C 	0.65710 0.95790 0.47999 0.10300
C 	C 	0.58060 0.88480 0.46519 -0.09300
H 	H 	0.56360 0.88320 0.44160 0.06400
C 	C 	0.53820 0.81870 0.49245 -0.04500
H 	H 	0.48620 0.75920 0.49130 0.04800
C 	C 	0.58590 0.85500 0.52277 0.03100
H 	H 	0.56880 0.82430 0.54540 0.01100
C 	C 	0.71030 0.05160 0.42350 0.12400
C 	C 	0.76740 0.98290 0.40049 -0.16300
H 	H 	0.81540 0.92480 0.40900 0.08300
C 	C 	0.75540 0.99810 0.36563 0.06500
H 	H 	0.79490 0.94940 0.35010 0.02400
C 	C 	0.68630 0.08380 0.35250 -0.12800
C 	C 	0.62760 0.15620 0.37480 0.06100
H 	H 	0.58030 0.21510 0.36610 0.02500
C 	C 	0.64030 0.13970 0.41020 -0.15300
H 	H 	0.60130 0.18860 0.42570 0.08200
C 	C 	0.67480 0.09390 0.31320 0.40100
C 	C 	0.18200 0.18120 0.02530 0.02700
H 	H 	0.21510 0.18730 0.00450 0.01300
C 	C 	0.13310 0.05280 0.03550 -0.03800
H 	H 	0.12600 0.96070 0.02300 0.03900
C 	C 	0.09840 0.08710 0.06660 -0.10500
H 	H 	0.06260 0.02240 0.08030 0.06700
C 	C 	0.12510 0.23850 0.07530 0.11300
C 	C 	0.10360 0.32250 0.10470 -0.15500
C 	C 	0.12480 0.47460 0.11020 0.11700
C 	C 	0.09800 0.57130 0.13730 -0.10100
H 	H 	0.06590 0.54200 0.15730 0.07300
C 	C 	0.12650 0.71380 0.12970 -0.04000
H 	H 	0.11720 0.80330 0.14300 0.04600
C 	C 	0.17200 0.70260 0.09843 0.03300
H 	H 	0.19870 0.78610 0.08690 0.01100
C 	C 	0.05290 0.24360 0.13250 0.14200
C 	C 	0.09050 0.13030 0.15190 -0.17800
H 	H 	0.14860 0.09890 0.14660 0.09100
C 	C 	0.04710 0.06030 0.17880 0.09500
H 	H 	0.07500 0.98340 0.19210 0.01700
C 	C 	0.96250 0.10420 0.18600 -0.15100
C 	C 	0.92210 0.21900 0.16700 0.08400
H 	H 	0.86420 0.25140 0.17250 0.03500
C 	C 	0.96710 0.28490 0.14000 -0.17400
H 	H 	0.93900 0.36010 0.12630 0.09500
C 	C 	0.91370 0.02410 0.21470 0.41300
N 	N 	0.31930 0.39590 0.08365 -0.25200
N 	N 	0.30850 0.66690 0.04854 -0.25900
N 	N 	0.81860 0.08800 0.51203 -0.25600
N 	N 	0.65750 0.93730 0.51595 -0.25600
N 	N 	0.17610 0.29260 0.04834 -0.25600
N 	N 	0.17330 0.56160 0.08695 -0.25600
O 	O 	0.54450 0.02740 0.23210 -0.59000
O 	O 	0.66030 0.88550 0.21810 -0.54700
O 	O 	0.60440 0.16620 0.30346 -0.51100
O 	O 	0.73230 0.03240 0.29540 -0.49000
O 	O 	0.95620 0.93070 0.23319 -0.54400
O 	O 	0.83380 0.05200 0.21740 -0.46300
O 	O 	0.72160 0.11200 0.24390 -1.33900
O 	O 	0.81390 0.72500 0.26340 1.02300
O 	O 	0.70870 0.29500 0.23280 -1.45600
O 	O 	0.42240 0.19200 0.27170 -0.46400
H 	H 	0.40900 0.09930 0.27350 0.23700
Zn	Zn	0.73997 0.40840 0.25032 1.05200
Zn	Zn	0.90410 0.72460 0.24753 0.74900
Zn	Zn	0.74151 0.00520 0.24880 1.26300
Zn	Zn	0.94567 0.70940 0.24402 0.82500
Co	Co	0.25782 0.98250 0.45138 1.17100
C 	C 	0.17810 0.75110 0.40531 0.02900
H 	H 	0.20460 0.66810 0.41710 0.01300
C 	C 	0.13280 0.73840 0.37510 -0.04700
H 	H 	0.12250 0.64630 0.36290 0.04100
C 	C 	0.10450 0.87970 0.36490 -0.09500
H 	H 	0.07300 0.90540 0.34450 0.05700
C 	C 	0.13290 0.97930 0.39177 0.10400
C 	C 	0.11270 0.13440 0.39557 -0.14300
C 	C 	0.13730 0.22110 0.42440 0.10700
C 	C 	0.10930 0.37000 0.43259 -0.10200
H 	H 	0.07340 0.43370 0.41870 0.06500
C 	C 	0.14450 0.40600 0.46505 -0.04400
H 	H 	0.13640 0.49770 0.47760 0.04300
C 	C 	0.19460 0.27770 0.47537 0.02700
H 	H 	0.22630 0.27110 0.49650 0.01200
C 	C 	0.06220 0.20590 0.36736 0.14300
C 	C 	0.09980 0.32300 0.34860 -0.18200
H 	H 	0.15700 0.35780 0.35430 0.09200
C 	C 	0.05350 0.39070 0.32110 0.10500
H 	H 	0.08080 0.46880 0.30790 -0.00000
C 	C 	0.97000 0.34610 0.31290 -0.18900
C 	C 	0.93090 0.23180 0.33280 0.09600
H 	H 	0.87210 0.20230 0.32810 0.01900
C 	C 	0.97690 0.16000 0.35970 -0.17900
H 	H 	0.95000 0.08050 0.37250 0.09000
C 	C 	0.91730 0.42450 0.28510 0.48800
C 	C 	0.60020 0.63900 0.98369 0.03000
H 	H 	0.57100 0.64550 0.96200 0.01200
C 	C 	0.56230 0.68330 0.01640 -0.04300
H 	H 	0.50540 0.72350 0.02040 0.04800
C 	C 	0.62630 0.65470 0.04040 -0.09900
H 	H 	0.62190 0.67510 0.06450 0.06600
C 	C 	0.69900 0.59110 0.02395 0.10300
C 	C 	0.77780 0.53320 0.03851 -0.14100
C 	C 	0.84290 0.45790 0.02001 0.10400
C 	C 	0.91940 0.38480 0.03481 -0.09300
H 	H 	0.93640 0.38320 0.05840 0.06500
C 	C 	0.96180 0.31870 0.00755 -0.04600
H 	H 	0.01380 0.25920 0.00870 0.04800
C 	C 	0.91410 0.35500 0.97723 0.03100
H 	H 	0.93120 0.32430 0.95460 0.01000
C 	C 	0.78970 0.55160 0.07650 0.12200
C 	C 	0.73260 0.48290 0.09951 -0.16300
H 	H 	0.68460 0.42480 0.09100 0.08400
C 	C 	0.74460 0.49810 0.13437 0.07200
H 	H 	0.70510 0.44940 0.14990 0.02300
C 	C 	0.81370 0.58380 0.14750 -0.13400
C 	C 	0.87240 0.65620 0.12520 0.06300
H 	H 	0.91970 0.71510 0.13390 0.02300
C 	C 	0.85970 0.63970 0.08980 -0.15400
H 	H 	0.89870 0.68860 0.07430 0.08200
C 	C 	0.82520 0.59390 0.18680 0.40300
C 	C 	0.31800 0.68120 0.47470 0.02900
H 	H 	0.28490 0.68730 0.49550 0.01200
C 	C 	0.36690 0.55280 0.46450 -0.04300
H 	H 	0.37400 0.46070 0.47700 0.04200
C 	C 	0.40160 0.58710 0.43340 -0.10100
H 	H 	0.43740 0.52240 0.41970 0.06500
C 	C 	0.37490 0.73850 0.42470 0.11000
C 	C 	0.39640 0.82250 0.39530 -0.14900
C 	C 	0.37520 0.97460 0.38980 0.10600
C 	C 	0.40200 0.07130 0.36270 -0.09100
H 	H 	0.43410 0.04200 0.34270 0.07100
C 	C 	0.37350 0.21380 0.37030 -0.04400
H 	H 	0.38280 0.30330 0.35700 0.04900
C 	C 	0.32800 0.20260 0.40157 0.03600
H 	H 	0.30130 0.28610 0.41310 0.01000
C 	C 	0.44710 0.74360 0.36750 0.13100
C 	C 	0.40950 0.63030 0.34810 -0.16500
H 	H 	0.35140 0.59890 0.35340 0.08500
C 	C 	0.45290 0.56030 0.32120 0.07400
H 	H 	0.42500 0.48340 0.30790 0.02700
C 	C 	0.53750 0.60420 0.31400 -0.13900
C 	C 	0.57790 0.71900 0.33300 0.07400
H 	H 	0.63580 0.75140 0.32750 0.03700
C 	C 	0.53290 0.78490 0.36000 -0.16500
H 	H 	0.56100 0.86010 0.37370 0.09100
C 	C 	0.58630 0.52410 0.28530 0.40300
N 	N 	0.18070 0.89590 0.41635 -0.25200
N 	N 	0.19150 0.16690 0.45146 -0.25800
N 	N 	0.68140 0.58800 0.98797 -0.25600
N 	N 	0.84250 0.43730 0.98405 -0.25600
N 	N 	0.32390 0.79260 0.45166 -0.25600
N 	N 	0.32670 0.06160 0.41305 -0.25300
O 	O 	0.95550 0.52740 0.26790 -0.59600
O 	O 	0.83970 0.38550 0.28190 -0.54700
O 	O 	0.89560 0.66620 0.19654 -0.51200
O 	O 	0.76770 0.53240 0.20460 -0.49300
O 	O 	0.54380 0.43070 0.26681 -0.53800
O 	O 	0.66620 0.55200 0.28260 -0.46200
O 	O 	0.77840 0.61200 0.25610 -1.34100
O 	O 	0.68610 0.22500 0.23660 1.02100
O 	O 	0.79130 0.79500 0.26720 -1.45800
O 	O 	0.07760 0.69200 0.22830 -0.46400
H 	H 	0.09100 0.59930 0.22650 0.23600
Zn	Zn	0.23997 0.09160 0.75032 1.05100
Zn	Zn	0.40410 0.77540 0.74753 0.74900
Zn	Zn	0.24151 0.49480 0.74880 1.26200
Zn	Zn	0.44567 0.79060 0.74402 0.82500
Co	Co	0.75782 0.51750 0.95138 1.17200
C 	C 	0.67810 0.74890 0.90531 0.02900
H 	H 	0.70460 0.83190 0.91710 0.01400
C 	C 	0.63280 0.76160 0.87510 -0.04600
H 	H 	0.62250 0.85370 0.86290 0.04200
C 	C 	0.60450 0.62030 0.86490 -0.09700
H 	H 	0.57300 0.59460 0.84450 0.05900
C 	C 	0.63290 0.52070 0.89177 0.10900
C 	C 	0.61270 0.36560 0.89557 -0.14800
C 	C 	0.63730 0.27890 0.92440 0.10800
C 	C 	0.60930 0.13000 0.93259 -0.10300
H 	H 	0.57340 0.06630 0.91870 0.06500
C 	C 	0.64450 0.09400 0.96505 -0.04400
H 	H 	0.63640 0.00230 0.97760 0.04200
C 	C 	0.69460 0.22230 0.97537 0.02600
H 	H 	0.72630 0.22890 0.99650 0.01300
C 	C 	0.56220 0.29410 0.86736 0.14200
C 	C 	0.59980 0.17700 0.84860 -0.18200
H 	H 	0.65700 0.14220 0.85430 0.09100
C 	C 	0.55350 0.10930 0.82110 0.10300
H 	H 	0.58080 0.03120 0.80790 -0.00100
C 	C 	0.47000 0.15390 0.81290 -0.18800
C 	C 	0.43090 0.26820 0.83280 0.09400
H 	H 	0.37210 0.29770 0.82810 0.01900
C 	C 	0.47690 0.34000 0.85970 -0.17900
H 	H 	0.45000 0.41950 0.87250 0.08900
C 	C 	0.41730 0.07550 0.78510 0.48100
C 	C 	0.10020 0.86100 0.48369 0.02900
H 	H 	0.07100 0.85450 0.46200 0.01200
C 	C 	0.06230 0.81670 0.51640 -0.04300
H 	H 	0.00540 0.77650 0.52040 0.04700
C 	C 	0.12630 0.84530 0.54040 -0.09900
H 	H 	0.12190 0.82490 0.56450 0.06600
C 	C 	0.19900 0.90890 0.52395 0.10300
C 	C 	0.27780 0.96680 0.53851 -0.14000
C 	C 	0.34290 0.04210 0.52001 0.10300
C 	C 	0.41940 0.11520 0.53481 -0.09300
H 	H 	0.43640 0.11680 0.55840 0.06400
C 	C 	0.46180 0.18130 0.50755 -0.04500
H 	H 	0.51380 0.24080 0.50870 0.04800
C 	C 	0.41410 0.14500 0.47723 0.03100
H 	H 	0.43120 0.17570 0.45460 0.01100
C 	C 	0.28970 0.94840 0.57650 0.12400
C 	C 	0.23260 0.01710 0.59951 -0.16300
H 	H 	0.18460 0.07520 0.59100 0.08300
C 	C 	0.24460 0.00190 0.63437 0.06500
H 	H 	0.20510 0.05060 0.64990 0.02400
C 	C 	0.31370 0.91620 0.64750 -0.12800
C 	C 	0.37240 0.84380 0.62520 0.06100
H 	H 	0.41970 0.78490 0.63390 0.02500
C 	C 	0.35970 0.86030 0.58980 -0.15300
H 	H 	0.39870 0.81140 0.57430 0.08200
C 	C 	0.32520 0.90610 0.68680 0.40100
C 	C 	0.81800 0.81880 0.97470 0.02700
H 	H 	0.78490 0.81270 0.99550 0.01300
C 	C 	0.86690 0.94720 0.96450 -0.03800
H 	H 	0.87400 0.03930 0.97700 0.03900
C 	C 	0.90160 0.91290 0.93340 -0.10500
H 	H 	0.93740 0.97760 0.91970 0.06700
C 	C 	0.87490 0.76150 0.92470 0.11300
C 	C 	0.89640 0.67750 0.89530 -0.15500
C 	C 	0.87520 0.52540 0.88980 0.11700
C 	C 	0.90200 0.42870 0.86270 -0.10100
H 	H 	0.93410 0.45800 0.84270 0.07300
C 	C 	0.87350 0.28620 0.87030 -0.04000
H 	H 	0.88280 0.19670 0.85700 0.04600
C 	C 	0.82800 0.29740 0.90157 0.03300
H 	H 	0.80130 0.21390 0.91310 0.01100
C 	C 	0.94710 0.75640 0.86750 0.14200
C 	C 	0.90950 0.86970 0.84810 -0.17800
H 	H 	0.85140 0.90110 0.85340 0.09100
C 	C 	0.95290 0.93970 0.82120 0.09500
H 	H 	0.92500 0.01660 0.80790 0.01700
C 	C 	0.03750 0.89580 0.81400 -0.15100
C 	C 	0.07790 0.78100 0.83300 0.08400
H 	H 	0.13580 0.74860 0.82750 0.03500
C 	C 	0.03290 0.71510 0.86000 -0.17400
H 	H 	0.06100 0.63990 0.87370 0.09500
C 	C 	0.08630 0.97590 0.78530 0.41300
N 	N 	0.68070 0.60410 0.91635 -0.25200
N 	N 	0.69150 0.33310 0.95146 -0.25900
N 	N 	0.18140 0.91200 0.48797 -0.25600
N 	N 	0.34250 0.06270 0.48405 -0.25600
N 	N 	0.82390 0.70740 0.95166 -0.25600
N 	N 	0.82670 0.43840 0.91305 -0.25600
O 	O 	0.45550 0.97260 0.76790 -0.59000
O 	O 	0.33970 0.11450 0.78190 -0.54700
O 	O 	0.39560 0.83380 0.69654 -0.51100
O 	O 	0.26770 0.96760 0.70460 -0.49000
O 	O 	0.04380 0.06930 0.76681 -0.54400
O 	O 	0.16620 0.94800 0.78260 -0.46300
O 	O 	0.27840 0.88800 0.75610 -1.33900
O 	O 	0.18610 0.27500 0.73660 1.02300
O 	O 	0.29130 0.70500 0.76720 -1.45600
O 	O 	0.57760 0.80800 0.72830 -0.46400
H 	H 	0.59100 0.90070 0.72650 0.23700
Zn	Zn	0.26003 0.59160 0.74968 1.05200
Zn	Zn	0.09590 0.27540 0.75247 0.74900
Zn	Zn	0.25849 0.99480 0.75120 1.26300
Zn	Zn	0.05433 0.29060 0.75598 0.82500
Co	Co	0.74218 0.01750 0.54862 1.17100
C 	C 	0.82190 0.24890 0.59469 0.02900
H 	H 	0.79540 0.33190 0.58290 0.01300
C 	C 	0.86720 0.26160 0.62490 -0.04700
H 	H 	0.87750 0.35370 0.63710 0.04100
C 	C 	0.89550 0.12030 0.63510 -0.09500
H 	H 	0.92700 0.09460 0.65550 0.05700
C 	C 	0.86710 0.02070 0.60823 0.10400
C 	C 	0.88730 0.86560 0.60443 -0.14300
C 	C 	0.86270 0.77890 0.57560 0.10700
C 	C 	0.89070 0.63000 0.56741 -0.10200
H 	H 	0.92660 0.56630 0.58130 0.06500
C 	C 	0.85550 0.59400 0.53495 -0.04400
H 	H 	0.86360 0.50230 0.52240 0.04300
C 	C 	0.80540 0.72230 0.52463 0.02700
H 	H 	0.77370 0.72890 0.50350 0.01200
C 	C 	0.93780 0.79410 0.63264 0.14300
C 	C 	0.90020 0.67700 0.65140 -0.18200
H 	H 	0.84300 0.64220 0.64570 0.09200
C 	C 	0.94650 0.60930 0.67890 0.10500
H 	H 	0.91920 0.53120 0.69210 -0.00000
C 	C 	0.03000 0.65390 0.68710 -0.18900
C 	C 	0.06910 0.76820 0.66720 0.09600
H 	H 	0.12790 0.79770 0.67190 0.01900
C 	C 	0.02310 0.84000 0.64030 -0.17900
H 	H 	0.05000 0.91950 0.62750 0.09000
C 	C 	0.08270 0.57550 0.71490 0.48800
C 	C 	0.39980 0.36100 0.01631 0.03000
H 	H 	0.42900 0.35450 0.03800 0.01200
C 	C 	0.43770 0.31670 0.98360 -0.04300
H 	H 	0.49460 0.27650 0.97960 0.04800
C 	C 	0.37370 0.34530 0.95960 -0.09900
H 	H 	0.37810 0.32490 0.93550 0.06600
C 	C 	0.30100 0.40890 0.97605 0.10300
C 	C 	0.22220 0.46680 0.96149 -0.14100
C 	C 	0.15710 0.54210 0.97999 0.10400
C 	C 	0.08060 0.61520 0.96519 -0.09300
H 	H 	0.06360 0.61680 0.94160 0.06500
C 	C 	0.03820 0.68130 0.99245 -0.04600
H 	H 	0.98620 0.74080 0.99130 0.04800
C 	C 	0.08590 0.64500 0.02277 0.03100
H 	H 	0.06880 0.67570 0.04540 0.01000
C 	C 	0.21030 0.44840 0.92350 0.12200
C 	C 	0.26740 0.51710 0.90049 -0.16300
H 	H 	0.31540 0.57520 0.90900 0.08400
C 	C 	0.25540 0.50190 0.86563 0.07200
H 	H 	0.29490 0.55060 0.85010 0.02300
C 	C 	0.18630 0.41620 0.85250 -0.13400
C 	C 	0.12760 0.34380 0.87480 0.06300
H 	H 	0.08030 0.28490 0.86610 0.02300
C 	C 	0.14030 0.36030 0.91020 -0.15400
H 	H 	0.10130 0.31140 0.92570 0.08200
C 	C 	0.17480 0.40610 0.81320 0.40300
C 	C 	0.68200 0.31880 0.52530 0.02900
H 	H 	0.71510 0.31270 0.50450 0.01200
C 	C 	0.63310 0.44720 0.53550 -0.04300
H 	H 	0.62600 0.53930 0.52300 0.04200
C 	C 	0.59840 0.41290 0.56660 -0.10100
H 	H 	0.56260 0.47760 0.58030 0.06500
C 	C 	0.62510 0.26150 0.57530 0.11000
C 	C 	0.60360 0.17750 0.60470 -0.14900
C 	C 	0.62480 0.02540 0.61020 0.10600
C 	C 	0.59800 0.92870 0.63730 -0.09100
H 	H 	0.56590 0.95800 0.65730 0.07100
C 	C 	0.62650 0.78620 0.62970 -0.04400
H 	H 	0.61720 0.69670 0.64300 0.04900
C 	C 	0.67200 0.79740 0.59843 0.03600
H 	H 	0.69870 0.71390 0.58690 0.01000
C 	C 	0.55290 0.25640 0.63250 0.13100
C 	C 	0.59050 0.36970 0.65190 -0.16500
H 	H 	0.64860 0.40110 0.64660 0.08500
C 	C 	0.54710 0.43970 0.67880 0.07400
H 	H 	0.57500 0.51660 0.69210 0.02700
C 	C 	0.46250 0.39580 0.68600 -0.13900
C 	C 	0.42210 0.28100 0.66700 0.07400
H 	H 	0.36420 0.24860 0.67250 0.03700
C 	C 	0.46710 0.21510 0.64000 -0.16500
H 	H 	0.43900 0.13990 0.62630 0.09100
C 	C 	0.41370 0.47590 0.71470 0.40300
N 	N 	0.81930 0.10410 0.58365 -0.25200
N 	N 	0.80850 0.83310 0.54854 -0.25800
N 	N 	0.31860 0.41200 0.01203 -0.25600
N 	N 	0.15750 0.56270 0.01595 -0.25600
N 	N 	0.67610 0.20740 0.54834 -0.25600
N 	N 	0.67330 0.93840 0.58695 -0.25300
O 	O 	0.04450 0.47260 0.73210 -0.59600
O 	O 	0.16030 0.61450 0.71810 -0.54700
O 	O 	0.10440 0.33380 0.80346 -0.51200
O 	O 	0.23230 0.46760 0.79540 -0.49300
O 	O 	0.45620 0.56930 0.73319 -0.53800
O 	O 	0.33380 0.44800 0.71740 -0.46200
O 	O 	0.22160 0.38800 0.74390 -1.34100
O 	O 	0.31390 0.77500 0.76340 1.02100
O 	O 	0.20870 0.20500 0.73280 -1.45800
O 	O 	0.92240 0.30800 0.77170 -0.46400
H 	H 	0.90900 0.40070 0.77350 0.23600
