data_crystal

_cell_length_a 13.73600
_cell_length_b 13.73600
_cell_length_c 15.17000
_cell_angle_alpha 90.00000
_cell_angle_beta  90.00000
_cell_angle_gamma 120.00000

_symmetry_space_group_name_	'P 1'
_symmetry_space_group_name_H-M	'P 1'

loop_
_symmetry_equiv_pos_as_xyz
  x,y,z

loop_
_atom_site_label
_atom_site_type_symbol
_atom_site_fract_x
_atom_site_fract_y
_atom_site_fract_z
_atom_site_charge
Al	Al	0.99687 0.22868 0.10029 2.41000
Si	Si	0.22862 0.23197 0.10520 3.56200
O 	O 	0.12340 0.24000 0.12820 -1.53200
O 	O 	0.32510 0.31370 0.16720 -1.44700
O 	O 	0.20200 0.10960 0.11950 -1.53100
O 	O 	0.26520 0.26920 0.00870 -1.51700
P 	P 	0.89864 0.33668 0.22813 0.77000
Al	Al	0.66354 0.56201 0.43362 2.40700
Si	Si	0.89529 0.56530 0.43853 3.55900
O 	O 	0.79007 0.57333 0.46153 -1.47100
O 	O 	0.99177 0.64703 0.50053 -1.38000
O 	O 	0.86867 0.44293 0.45283 -1.50600
O 	O 	0.93187 0.60253 0.34203 -1.49600
P 	P 	0.56530 0.67002 0.56147 0.77200
Al	Al	0.33020 0.89535 0.76696 2.40700
Si	Si	0.56195 0.89864 0.77187 3.56800
O 	O 	0.45673 0.90667 0.79487 -1.49900
O 	O 	0.65843 0.98037 0.83387 -1.47600
O 	O 	0.53533 0.77627 0.78617 -1.54300
O 	O 	0.59853 0.93587 0.67537 -1.53700
P 	P 	0.23197 0.00335 0.89480 0.92500
Al	Al	0.77132 0.76819 0.10029 2.40600
Si	Si	0.76803 0.99665 0.10520 3.04200
O 	O 	0.76000 0.88340 0.12820 -1.39000
O 	O 	0.68630 0.01140 0.16720 -1.25300
O 	O 	0.89040 0.09240 0.11950 -1.33400
O 	O 	0.73080 0.99600 0.00870 -1.44100
P 	P 	0.66332 0.56195 0.22813 0.77100
Al	Al	0.43799 0.10152 0.43362 2.41100
Si	Si	0.43470 0.32998 0.43853 3.55500
O 	O 	0.42667 0.21673 0.46153 -1.45500
O 	O 	0.35297 0.34473 0.50053 -1.43500
O 	O 	0.55707 0.42573 0.45283 -1.53200
O 	O 	0.39747 0.32933 0.34203 -1.51200
P 	P 	0.32998 0.89529 0.56147 0.77000
Al	Al	0.10465 0.43486 0.76696 2.40800
Si	Si	0.10136 0.66332 0.77187 3.56200
O 	O 	0.09333 0.55007 0.79487 -1.49800
O 	O 	0.01963 0.67807 0.83387 -1.48600
O 	O 	0.22373 0.75907 0.78617 -1.54800
O 	O 	0.06413 0.66267 0.67537 -1.54800
P 	P 	0.99665 0.22862 0.89480 0.92600
Al	Al	0.23181 0.00313 0.10029 2.41000
Si	Si	0.00335 0.77138 0.10520 3.04400
O 	O 	0.11660 0.87660 0.12820 -1.45100
O 	O 	0.98860 0.67490 0.16720 -1.26300
O 	O 	0.90760 0.79800 0.11950 -1.38100
O 	O 	0.00400 0.73480 0.00870 -1.45000
P 	P 	0.43805 0.10136 0.22813 0.77000
Al	Al	0.89848 0.33646 0.43362 2.41100
Si	Si	0.67002 0.10471 0.43853 3.55800
O 	O 	0.78327 0.20993 0.46153 -1.44000
O 	O 	0.65527 0.00823 0.50053 -1.36100
O 	O 	0.57427 0.13133 0.45283 -1.50600
O 	O 	0.67067 0.06813 0.34203 -1.48300
P 	P 	0.10471 0.43470 0.56147 0.77000
Al	Al	0.56514 0.66980 0.76696 2.40800
Si	Si	0.33668 0.43805 0.77187 3.55900
O 	O 	0.44993 0.54327 0.79487 -1.47800
O 	O 	0.32193 0.34157 0.83387 -1.43200
O 	O 	0.24093 0.46467 0.78617 -1.54400
O 	O 	0.33733 0.40147 0.67537 -1.50200
P 	P 	0.77138 0.76803 0.89480 0.77100
Al	Al	0.00313 0.77132 0.89971 2.40100
O 	O 	0.87660 0.76000 0.87180 -0.72600
O 	O 	0.67490 0.68630 0.83280 -0.73300
O 	O 	0.79800 0.89040 0.88050 -0.85900
O 	O 	0.73480 0.73080 0.99130 -0.80800
Al	Al	0.66980 0.10465 0.23304 2.40600
O 	O 	0.54327 0.09333 0.20513 -0.76100
O 	O 	0.34157 0.01963 0.16613 -0.71100
O 	O 	0.46467 0.22373 0.21383 -0.84500
O 	O 	0.40147 0.06413 0.32463 -0.78600
Al	Al	0.33646 0.43799 0.56638 2.40600
O 	O 	0.20993 0.42667 0.53847 -0.78400
O 	O 	0.00823 0.35297 0.49947 -0.79700
O 	O 	0.13133 0.55707 0.54717 -0.87900
O 	O 	0.06813 0.39747 0.65797 -0.82700
Al	Al	0.22868 0.23181 0.89971 2.40700
O 	O 	0.24000 0.11660 0.87180 -0.77200
O 	O 	0.31370 0.98860 0.83280 -0.83800
O 	O 	0.10960 0.90760 0.88050 -0.96500
O 	O 	0.26920 0.00400 0.99130 -0.78600
Al	Al	0.89535 0.56514 0.23304 2.40600
O 	O 	0.90667 0.44993 0.20513 -0.76100
O 	O 	0.98037 0.32193 0.16613 -0.70000
O 	O 	0.77627 0.24093 0.21383 -0.83900
O 	O 	0.93587 0.33733 0.32463 -0.77500
Al	Al	0.56201 0.89848 0.56638 2.40300
O 	O 	0.57333 0.78327 0.53847 -0.79900
O 	O 	0.64703 0.65527 0.49947 -0.74200
O 	O 	0.44293 0.57427 0.54717 -0.85300
O 	O 	0.60253 0.67067 0.65797 -0.80900
Al	Al	0.76819 0.99687 0.89971 2.40200
O 	O 	0.88340 0.12340 0.87180 -0.70600
O 	O 	0.01140 0.32510 0.83280 -0.82900
O 	O 	0.09240 0.20200 0.88050 -0.91600
O 	O 	0.99600 0.26520 0.99130 -0.77200
Al	Al	0.43486 0.33020 0.23304 2.40600
O 	O 	0.55007 0.45673 0.20513 -0.77800
O 	O 	0.67807 0.65843 0.16613 -0.74900
O 	O 	0.75907 0.53533 0.21383 -0.84300
O 	O 	0.66267 0.59853 0.32463 -0.81900
Al	Al	0.10152 0.66354 0.56638 2.40300
O 	O 	0.21673 0.79007 0.53847 -0.81400
O 	O 	0.34473 0.99177 0.49947 -0.81500
O 	O 	0.42573 0.86867 0.54717 -0.87900
O 	O 	0.32933 0.93187 0.65797 -0.83900
