data_crystal

_cell_length_a 7.48100
_cell_length_b 8.33600
_cell_length_c 10.42000
_cell_angle_alpha 93.56000
_cell_angle_beta  105.39000
_cell_angle_gamma 109.35000

_symmetry_space_group_name_	'P 1'
_symmetry_space_group_name_H-M	'P 1'

loop_
_symmetry_equiv_pos_as_xyz
  x,y,z

loop_
_atom_site_label
_atom_site_type_symbol
_atom_site_fract_x
_atom_site_fract_y
_atom_site_fract_z
_atom_site_charge
Ba	Ba	0.31265 0.55941 0.62745 1.86900
Ba	Ba	0.68735 0.44059 0.37255 1.86900
H 	H 	0.81410 0.05960 0.19650 -0.03000
H 	H 	0.81210 0.10350 0.81360 -0.02000
H 	H 	0.23850 0.45230 0.11990 -0.04600
H 	H 	0.46890 0.70660 0.99190 0.30600
H 	H 	0.18590 0.94040 0.80350 -0.03000
H 	H 	0.18790 0.89650 0.18640 -0.02000
H 	H 	0.76150 0.54770 0.88010 -0.04600
H 	H 	0.53110 0.29340 0.00810 0.30600
C 	C 	0.03760 0.26890 0.18070 -0.24600
C 	C 	0.87050 0.11740 0.13520 0.14100
C 	C 	0.78850 0.05320 0.99740 -0.20600
C 	C 	0.86990 0.14420 0.90570 0.13000
C 	C 	0.03670 0.29540 0.95100 -0.19100
C 	C 	0.12310 0.35480 0.08880 0.14700
C 	C 	0.12410 0.33910 0.33020 0.44600
C 	C 	0.61770 0.88920 0.94130 0.47400
C 	C 	0.12090 0.38890 0.84900 0.37900
C 	C 	0.96240 0.73110 0.81930 -0.24600
C 	C 	0.12950 0.88260 0.86480 0.14100
C 	C 	0.21150 0.94680 0.00260 -0.20600
C 	C 	0.13010 0.85580 0.09430 0.13000
C 	C 	0.96330 0.70460 0.04900 -0.19100
C 	C 	0.87690 0.64520 0.91120 0.14700
C 	C 	0.87590 0.66090 0.66980 0.44600
C 	C 	0.38230 0.11080 0.05870 0.47400
C 	C 	0.87910 0.61110 0.15100 0.37900
O 	O 	0.31100 0.40720 0.37700 -0.62700
O 	O 	0.00740 0.32590 0.39940 -0.59300
O 	O 	0.55840 0.79800 0.03090 -0.53900
O 	O 	0.53790 0.84290 0.81930 -0.49700
O 	O 	0.02380 0.34020 0.72720 -0.46500
O 	O 	0.28670 0.51110 0.89010 -0.43200
O 	O 	0.68900 0.59280 0.62300 -0.62700
O 	O 	0.99260 0.67410 0.60060 -0.59300
O 	O 	0.44160 0.20200 0.96910 -0.53900
O 	O 	0.46210 0.15710 0.18070 -0.49700
O 	O 	0.97620 0.65980 0.27280 -0.46500
O 	O 	0.71330 0.48890 0.10990 -0.43200
