data_crystal

_cell_length_a 9.16250
_cell_length_b 11.08900
_cell_length_c 12.90650
_cell_angle_alpha 115.37100
_cell_angle_beta  96.59300
_cell_angle_gamma 95.17700

_symmetry_space_group_name_	'P 1'
_symmetry_space_group_name_H-M	'P 1'

loop_
_symmetry_equiv_pos_as_xyz
  x,y,z

loop_
_atom_site_label
_atom_site_type_symbol
_atom_site_fract_x
_atom_site_fract_y
_atom_site_fract_z
_atom_site_charge
Ba	Ba	0.37211 0.37248 0.81297 1.87200
Ba	Ba	0.12786 0.62750 0.68713 1.87400
Ba	Ba	0.87214 0.37250 0.31287 1.87400
Ba	Ba	0.62789 0.62752 0.18703 1.87200
H 	H 	0.58780 0.80120 0.52810 -0.04100
H 	H 	0.80060 0.18960 0.69960 -0.02700
H 	H 	0.91480 0.19880 0.97410 -0.03400
H 	H 	0.46010 0.12190 0.91720 -0.04300
H 	H 	0.41220 0.19880 0.47190 -0.04100
H 	H 	0.83270 0.02100 0.13920 0.21100
H 	H 	0.08520 0.80120 0.02590 -0.03400
H 	H 	0.16730 0.97900 0.86080 0.21100
H 	H 	0.69880 0.81170 0.80210 -0.02100
H 	H 	0.96290 0.12120 0.41700 -0.05000
H 	H 	0.33420 0.01680 0.63960 0.22900
H 	H 	0.53990 0.87810 0.08280 -0.04300
H 	H 	0.30120 0.18830 0.19790 -0.02100
H 	H 	0.66580 0.98320 0.36040 0.22900
H 	H 	0.19940 0.81040 0.30040 -0.02700
H 	H 	0.03710 0.87880 0.58300 -0.05000
C 	C 	0.53540 0.05970 0.64340 0.45600
C 	C 	0.44620 0.91080 0.08940 0.15300
C 	C 	0.08050 0.15090 0.69140 0.38400
C 	C 	0.82370 0.13600 0.94210 0.15700
C 	C 	0.80330 0.09430 0.66130 0.15200
C 	C 	0.96730 0.94230 0.85740 0.45200
C 	C 	0.94360 0.91170 0.59010 0.16700
C 	C 	0.44180 0.04820 0.14410 -0.19800
C 	C 	0.91950 0.84910 0.30860 0.38400
C 	C 	0.32220 0.13460 0.44090 0.17600
C 	C 	0.18860 0.18000 0.45540 -0.26800
C 	C 	0.06170 0.95070 0.35530 -0.20900
C 	C 	0.69520 0.90660 0.84270 0.13400
C 	C 	0.46460 0.94030 0.35660 0.45600
C 	C 	0.41770 0.84860 0.80880 0.37900
C 	C 	0.32700 0.99690 0.38130 -0.23700
C 	C 	0.30480 0.09340 0.15730 0.13400
C 	C 	0.03270 0.05770 0.14260 0.45200
C 	C 	0.17250 0.00210 0.11850 -0.22100
C 	C 	0.31570 0.66920 0.97750 0.45300
C 	C 	0.31270 0.81920 0.04350 -0.25100
C 	C 	0.68730 0.18080 0.95650 -0.25100
C 	C 	0.55820 0.95180 0.85590 -0.19800
C 	C 	0.55380 0.08920 0.91060 0.15300
C 	C 	0.81140 0.82000 0.54460 -0.26800
C 	C 	0.82750 0.99790 0.88150 -0.22100
C 	C 	0.17630 0.86400 0.05790 0.15700
C 	C 	0.58230 0.15140 0.19120 0.37900
C 	C 	0.19670 0.90570 0.33870 0.15200
C 	C 	0.67780 0.86540 0.55910 0.17600
C 	C 	0.68430 0.33080 0.02250 0.45300
C 	C 	0.18180 0.32920 0.52190 0.45300
C 	C 	0.67300 0.00310 0.61870 -0.23700
C 	C 	0.93830 0.04930 0.64470 -0.20900
C 	C 	0.81820 0.67080 0.47810 0.45300
C 	C 	0.05640 0.08830 0.40990 0.16700
O 	O 	0.58740 0.03100 0.38590 -0.44200
O 	O 	0.91300 0.97000 0.11440 -0.42800
O 	O 	0.43130 0.72710 0.77250 -0.46700
O 	O 	0.56870 0.27290 0.22750 -0.46700
O 	O 	0.46760 0.81920 0.31200 -0.49000
O 	O 	0.03040 0.17980 0.18700 -0.48600
O 	O 	0.92130 0.62340 0.51320 -0.63200
O 	O 	0.70540 0.11010 0.19330 -0.43400
O 	O 	0.42030 0.62330 0.01290 -0.63100
O 	O 	0.41260 0.96900 0.61410 -0.44200
O 	O 	0.20380 0.11000 0.69190 -0.43100
O 	O 	0.79620 0.89000 0.30810 -0.43100
O 	O 	0.96960 0.82020 0.81300 -0.48600
O 	O 	0.28230 0.39920 0.60930 -0.59400
O 	O 	0.29460 0.88990 0.80670 -0.43400
O 	O 	0.08700 0.03000 0.88560 -0.42800
O 	O 	0.93140 0.72680 0.27140 -0.46700
O 	O 	0.57970 0.37670 0.98710 -0.63100
O 	O 	0.07870 0.37660 0.48680 -0.63200
O 	O 	0.06860 0.27320 0.72860 -0.46700
O 	O 	0.21720 0.60090 0.89060 -0.60000
O 	O 	0.53240 0.18080 0.68800 -0.49000
O 	O 	0.78280 0.39910 0.10940 -0.60000
O 	O 	0.71770 0.60080 0.39070 -0.59400
