data_crystal

_cell_length_a 7.26600
_cell_length_b 8.36800
_cell_length_c 10.16300
_cell_angle_alpha 94.81000
_cell_angle_beta  105.18000
_cell_angle_gamma 109.18000

_symmetry_space_group_name_	'P 1'
_symmetry_space_group_name_H-M	'P 1'

loop_
_symmetry_equiv_pos_as_xyz
  x,y,z

loop_
_atom_site_label
_atom_site_type_symbol
_atom_site_fract_x
_atom_site_fract_y
_atom_site_fract_z
_atom_site_charge
Sr	Sr	0.31040 0.55235 0.62482 1.51600
Sr	Sr	0.68960 0.44765 0.37518 1.51600
H 	H 	0.80880 0.06250 0.19490 0.00900
H 	H 	0.80150 0.09310 0.80220 0.01300
H 	H 	0.23540 0.45500 0.11440 -0.00600
H 	H 	0.54200 0.69200 0.00500 0.30000
H 	H 	0.19120 0.93750 0.80510 0.00900
H 	H 	0.19850 0.90690 0.19780 0.01300
H 	H 	0.76460 0.54500 0.88560 -0.00600
H 	H 	0.45800 0.30800 0.99500 0.30000
C 	C 	0.03670 0.27280 0.17870 -0.18500
C 	C 	0.86660 0.11810 0.13190 0.10400
C 	C 	0.78470 0.04830 0.99070 -0.15900
C 	C 	0.86320 0.13690 0.89670 0.09400
C 	C 	0.03450 0.29210 0.94090 -0.14200
C 	C 	0.11940 0.35480 0.08260 0.09500
C 	C 	0.12600 0.34710 0.33170 0.40900
C 	C 	0.61270 0.88140 0.93370 0.44200
C 	C 	0.12060 0.38190 0.83660 0.33500
C 	C 	0.96330 0.72720 0.82130 -0.18500
C 	C 	0.13340 0.88190 0.86810 0.10400
C 	C 	0.21530 0.95170 0.00930 -0.15900
C 	C 	0.13680 0.86310 0.10330 0.09400
C 	C 	0.96550 0.70790 0.05910 -0.14200
C 	C 	0.88060 0.64520 0.91740 0.09500
C 	C 	0.87400 0.65290 0.66830 0.40900
C 	C 	0.38730 0.11860 0.06630 0.44200
C 	C 	0.87940 0.61810 0.16340 0.33500
O 	O 	0.31650 0.40920 0.37850 -0.55600
O 	O 	0.00410 0.34290 0.40040 -0.52500
O 	O 	0.55440 0.79200 0.02700 -0.50500
O 	O 	0.53220 0.82770 0.80920 -0.44600
O 	O 	0.02270 0.33380 0.71160 -0.40700
O 	O 	0.29420 0.50720 0.87900 -0.38600
O 	O 	0.68350 0.59080 0.62150 -0.55600
O 	O 	0.99590 0.65710 0.59960 -0.52500
O 	O 	0.44560 0.20800 0.97300 -0.50500
O 	O 	0.46780 0.17230 0.19080 -0.44600
O 	O 	0.97730 0.66620 0.28840 -0.40700
O 	O 	0.70580 0.49280 0.12100 -0.38600
