data_crystal

_cell_length_a 8.77940
_cell_length_b 12.40110
_cell_length_c 24.89710
_cell_angle_alpha 90.00000
_cell_angle_beta  90.00000
_cell_angle_gamma 92.26200

_symmetry_space_group_name_	'P 1'
_symmetry_space_group_name_H-M	'P 1'

loop_
_symmetry_equiv_pos_as_xyz
  x,y,z

loop_
_atom_site_label
_atom_site_type_symbol
_atom_site_fract_x
_atom_site_fract_y
_atom_site_fract_z
_atom_site_charge
La	La	0.24525 0.99796 0.99154 1.59300
La	La	0.25475 0.00204 0.49154 1.59800
La	La	0.75475 0.00204 0.00846 1.59400
La	La	0.74525 0.99796 0.50846 1.59900
H 	H 	0.41050 0.84560 0.82340 0.13700
H 	H 	0.33110 0.94550 0.79790 0.13500
H 	H 	0.09720 0.71450 0.85330 0.05600
H 	H 	0.90290 0.56680 0.69400 0.08900
H 	H 	0.54810 0.27520 0.70560 0.04200
H 	H 	0.62720 0.36990 0.78370 0.07200
H 	H 	0.89750 0.59790 0.85560 0.08400
H 	H 	0.51810 0.32750 0.86820 0.04900
H 	H 	0.37500 0.27790 0.96140 0.13600
H 	H 	0.44520 0.33530 0.01320 0.13900
H 	H 	0.39740 0.27310 0.56840 0.14800
H 	H 	0.38300 0.20080 0.62080 0.12000
H 	H 	0.08950 0.15440 0.32340 0.13700
H 	H 	0.16890 0.05450 0.29790 0.13400
H 	H 	0.40280 0.28550 0.35330 0.05600
H 	H 	0.59710 0.43320 0.19400 0.08900
H 	H 	0.95190 0.72480 0.20560 0.04100
H 	H 	0.87280 0.63010 0.28370 0.07200
H 	H 	0.60250 0.40210 0.35560 0.08400
H 	H 	0.98190 0.67250 0.36820 0.04800
H 	H 	0.12500 0.72210 0.46140 0.13600
H 	H 	0.05480 0.66470 0.51320 0.14000
H 	H 	0.10260 0.72690 0.06840 0.14500
H 	H 	0.11700 0.79920 0.12080 0.11800
H 	H 	0.58950 0.15440 0.17660 0.13700
H 	H 	0.66890 0.05450 0.20210 0.13500
H 	H 	0.90280 0.28550 0.14670 0.05600
H 	H 	0.09710 0.43320 0.30600 0.08900
H 	H 	0.45190 0.72480 0.29440 0.04200
H 	H 	0.37280 0.63010 0.21630 0.07200
H 	H 	0.10250 0.40210 0.14440 0.08400
H 	H 	0.48190 0.67250 0.13180 0.04900
H 	H 	0.62500 0.72210 0.03860 0.13600
H 	H 	0.55480 0.66470 0.98680 0.13900
H 	H 	0.60260 0.72690 0.43160 0.14800
H 	H 	0.61700 0.79920 0.37920 0.12000
H 	H 	0.91050 0.84560 0.67660 0.13700
H 	H 	0.83110 0.94550 0.70210 0.13400
H 	H 	0.59720 0.71450 0.64670 0.05600
H 	H 	0.40290 0.56680 0.80600 0.08900
H 	H 	0.04810 0.27520 0.79440 0.04100
H 	H 	0.12720 0.36990 0.71630 0.07200
H 	H 	0.39750 0.59790 0.64440 0.08400
H 	H 	0.01810 0.32750 0.63180 0.04800
H 	H 	0.87500 0.27790 0.53860 0.13600
H 	H 	0.94520 0.33530 0.48680 0.14000
H 	H 	0.89740 0.27310 0.93160 0.14500
H 	H 	0.88300 0.20080 0.87920 0.11800
C 	C 	0.27280 0.92090 0.87642 0.38500
C 	C 	0.31390 0.88230 0.82100 -0.28300
C 	C 	0.03510 0.68290 0.77360 0.04400
C 	C 	0.10900 0.73170 0.81670 -0.01500
C 	C 	0.91870 0.59460 0.77480 0.06700
C 	C 	0.86460 0.54450 0.72760 -0.11200
C 	C 	0.75210 0.46050 0.73120 0.06000
C 	C 	0.68360 0.41060 0.68260 0.03800
C 	C 	0.58370 0.32160 0.67800 -0.01500
C 	C 	0.69940 0.42770 0.78140 -0.11900
C 	C 	0.75100 0.47860 0.82850 0.06300
C 	C 	0.86160 0.56270 0.82440 -0.11100
C 	C 	0.68960 0.44600 0.88050 0.03800
C 	C 	0.57500 0.37080 0.89250 -0.01900
C 	C 	0.55960 0.19910 0.99185 0.41000
C 	C 	0.47050 0.29900 0.97960 -0.30200
C 	C 	0.55230 0.15290 0.57000 0.40800
C 	C 	0.45570 0.23660 0.59610 -0.30300
C 	C 	0.22720 0.07910 0.37642 0.38400
C 	C 	0.18610 0.11770 0.32100 -0.28200
C 	C 	0.46490 0.31710 0.27360 0.04500
C 	C 	0.39100 0.26830 0.31670 -0.01600
C 	C 	0.58130 0.40540 0.27480 0.06600
C 	C 	0.63540 0.45550 0.22760 -0.11200
C 	C 	0.74790 0.53950 0.23120 0.05900
C 	C 	0.81640 0.58940 0.18260 0.03700
C 	C 	0.91630 0.67840 0.17800 -0.01500
C 	C 	0.80060 0.57230 0.28140 -0.11900
C 	C 	0.74900 0.52140 0.32850 0.06300
C 	C 	0.63840 0.43730 0.32440 -0.11100
C 	C 	0.81040 0.55400 0.38050 0.03800
C 	C 	0.92500 0.62920 0.39250 -0.01900
C 	C 	0.94040 0.80090 0.49185 0.40400
C 	C 	0.02950 0.70100 0.47960 -0.30000
C 	C 	0.94770 0.84710 0.07000 0.39500
C 	C 	0.04430 0.76340 0.09610 -0.29000
C 	C 	0.72720 0.07910 0.12358 0.38500
C 	C 	0.68610 0.11770 0.17900 -0.28300
C 	C 	0.96490 0.31710 0.22640 0.04400
C 	C 	0.89100 0.26830 0.18330 -0.01500
C 	C 	0.08130 0.40540 0.22520 0.06700
C 	C 	0.13540 0.45550 0.27240 -0.11200
C 	C 	0.24790 0.53950 0.26880 0.06000
C 	C 	0.31640 0.58940 0.31740 0.03800
C 	C 	0.41630 0.67840 0.32200 -0.01500
C 	C 	0.30060 0.57230 0.21860 -0.11900
C 	C 	0.24900 0.52140 0.17150 0.06300
C 	C 	0.13840 0.43730 0.17560 -0.11100
C 	C 	0.31040 0.55400 0.11950 0.03800
C 	C 	0.42500 0.62920 0.10750 -0.01900
C 	C 	0.44040 0.80090 0.00815 0.41000
C 	C 	0.52950 0.70100 0.02040 -0.30200
C 	C 	0.44770 0.84710 0.43000 0.40800
C 	C 	0.54430 0.76340 0.40390 -0.30300
C 	C 	0.77280 0.92090 0.62358 0.38400
C 	C 	0.81390 0.88230 0.67900 -0.28200
C 	C 	0.53510 0.68290 0.72640 0.04500
C 	C 	0.60900 0.73170 0.68330 -0.01600
C 	C 	0.41870 0.59460 0.72520 0.06600
C 	C 	0.36460 0.54450 0.77240 -0.11200
C 	C 	0.25210 0.46050 0.76880 0.05900
C 	C 	0.18360 0.41060 0.81740 0.03700
C 	C 	0.08370 0.32160 0.82200 -0.01500
C 	C 	0.19940 0.42770 0.71860 -0.11900
C 	C 	0.25100 0.47860 0.67150 0.06300
C 	C 	0.36160 0.56270 0.67560 -0.11100
C 	C 	0.18960 0.44600 0.61950 0.03800
C 	C 	0.07500 0.37080 0.60750 -0.01900
C 	C 	0.05960 0.19910 0.50815 0.40400
C 	C 	0.97050 0.29900 0.52040 -0.30000
C 	C 	0.05230 0.15290 0.93000 0.39500
C 	C 	0.95570 0.23660 0.90390 -0.29000
N 	N 	0.20190 0.80940 0.79500 -0.03400
N 	N 	0.19030 0.80880 0.74145 -0.05400
N 	N 	0.08890 0.73230 0.72837 -0.08100
N 	N 	0.70490 0.45300 0.63293 -0.07400
N 	N 	0.62270 0.39480 0.59802 -0.04300
N 	N 	0.54940 0.31660 0.62563 -0.03100
N 	N 	0.56140 0.37240 0.94556 -0.02900
N 	N 	0.66190 0.44440 0.96805 -0.04000
N 	N 	0.73910 0.48990 0.92794 -0.07600
N 	N 	0.29810 0.19060 0.29500 -0.03400
N 	N 	0.30970 0.19120 0.24145 -0.05400
N 	N 	0.41110 0.26770 0.22837 -0.08100
N 	N 	0.79510 0.54700 0.13293 -0.07500
N 	N 	0.87730 0.60520 0.09802 -0.04400
N 	N 	0.95060 0.68340 0.12563 -0.03500
N 	N 	0.93860 0.62760 0.44556 -0.03000
N 	N 	0.83810 0.55560 0.46805 -0.04000
N 	N 	0.76090 0.51010 0.42794 -0.07600
N 	N 	0.79810 0.19060 0.20500 -0.03400
N 	N 	0.80970 0.19120 0.25855 -0.05400
N 	N 	0.91110 0.26770 0.27163 -0.08100
N 	N 	0.29510 0.54700 0.36707 -0.07400
N 	N 	0.37730 0.60520 0.40198 -0.04300
N 	N 	0.45060 0.68340 0.37437 -0.03100
N 	N 	0.43860 0.62760 0.05444 -0.02900
N 	N 	0.33810 0.55560 0.03195 -0.04000
N 	N 	0.26090 0.51010 0.07206 -0.07600
N 	N 	0.70190 0.80940 0.70500 -0.03400
N 	N 	0.69030 0.80880 0.75855 -0.05400
N 	N 	0.58890 0.73230 0.77163 -0.08100
N 	N 	0.20490 0.45300 0.86707 -0.07500
N 	N 	0.12270 0.39480 0.90198 -0.04400
N 	N 	0.04940 0.31660 0.87437 -0.03500
N 	N 	0.06140 0.37240 0.55444 -0.03000
N 	N 	0.16190 0.44440 0.53195 -0.04000
N 	N 	0.23910 0.48990 0.57206 -0.07600
O 	O 	0.38100 0.96890 0.90138 -0.39400
O 	O 	0.14270 0.90820 0.89650 -0.36700
O 	O 	0.70110 0.20620 0.99758 -0.39000
O 	O 	0.48630 0.10910 0.99636 -0.50700
O 	O 	0.69170 0.15160 0.57794 -0.38300
O 	O 	0.48360 0.08380 0.53884 -0.52900
O 	O 	0.11900 0.03110 0.40138 -0.39500
O 	O 	0.35730 0.09180 0.39650 -0.36500
O 	O 	0.79890 0.79380 0.49758 -0.39200
O 	O 	0.01370 0.89090 0.49636 -0.50600
O 	O 	0.80830 0.84840 0.07794 -0.38100
O 	O 	0.01640 0.91620 0.03884 -0.52000
O 	O 	0.61900 0.03110 0.09862 -0.39400
O 	O 	0.85730 0.09180 0.10350 -0.36700
O 	O 	0.29890 0.79380 0.00242 -0.39000
O 	O 	0.51370 0.89090 0.00364 -0.50700
O 	O 	0.30830 0.84840 0.42206 -0.38300
O 	O 	0.51640 0.91620 0.46116 -0.52900
O 	O 	0.88100 0.96890 0.59862 -0.39500
O 	O 	0.64270 0.90820 0.60350 -0.36500
O 	O 	0.20110 0.20620 0.50242 -0.39200
O 	O 	0.98630 0.10910 0.50364 -0.50600
O 	O 	0.19170 0.15160 0.92206 -0.38100
O 	O 	0.98360 0.08380 0.96116 -0.52000
