data_crystal

_cell_length_a 10.14300
_cell_length_b 10.25700
_cell_length_c 15.50000
_cell_angle_alpha 86.98200
_cell_angle_beta  73.52000
_cell_angle_gamma 81.22900

_symmetry_space_group_name_	'P 1'
_symmetry_space_group_name_H-M	'P 1'

loop_
_symmetry_equiv_pos_as_xyz
  x,y,z

loop_
_atom_site_label
_atom_site_type_symbol
_atom_site_fract_x
_atom_site_fract_y
_atom_site_fract_z
_atom_site_charge
Zn	Zn	0.48645 0.24757 0.15729 1.22300
Zn	Zn	0.45532 0.23912 0.93405 1.23400
Zn	Zn	0.45758 0.77761 0.30037 1.22500
Zn	Zn	0.45864 0.07837 0.39344 1.22600
P 	P 	0.58510 0.50795 0.19815 0.45500
P 	P 	0.64020 0.95420 0.20262 0.45900
P 	P 	0.64800 0.16340 0.48638 0.42800
O 	O 	0.54720 0.30000 0.02870 -0.66600
O 	O 	0.53030 0.57390 0.12220 -0.57500
O 	O 	0.53060 0.37830 0.22660 -0.43400
O 	O 	0.54780 0.59700 0.27950 -0.42300
O 	O 	0.26730 0.29050 0.01660 -0.50900
O 	O 	0.28880 0.48800 0.06420 -0.47600
O 	O 	0.61370 0.83710 0.15930 -0.53500
O 	O 	0.61360 0.08390 0.15670 -0.48800
O 	O 	0.54990 0.94620 0.30110 -0.60800
O 	O 	0.33700 0.84510 0.12570 -0.48900
O 	O 	0.27680 0.82610 0.27620 -0.49000
O 	O 	0.33350 0.20210 0.34100 -0.49700
O 	O 	0.29170 0.21660 0.20810 -0.48100
O 	O 	0.65170 0.01730 0.51020 -0.50800
O 	O 	0.55860 0.20600 0.42340 -0.42900
O 	O 	0.60660 0.25190 0.56780 -0.41300
C 	C 	0.77300 0.47530 0.15930 -0.08200
C 	C 	0.83900 0.36230 0.10990 -0.02800
H 	H 	0.78650 0.30160 0.09890 0.01900
C 	C 	0.98250 0.34000 0.07730 -0.02500
H 	H 	0.02510 0.26430 0.04440 0.03900
C 	C 	0.06360 0.42800 0.09290 -0.07900
C 	C 	0.99940 0.53830 0.14270 -0.02600
H 	H 	0.05280 0.59760 0.15450 0.05400
C 	C 	0.85560 0.56240 0.17560 -0.02200
H 	H 	0.81390 0.63780 0.20910 0.04000
C 	C 	0.21970 0.40140 0.05510 0.36600
C 	C 	0.81890 0.92850 0.20600 -0.07100
C 	C 	0.92360 0.94510 0.12770 -0.03600
H 	H 	0.90040 0.97280 0.07510 0.02500
C 	C 	0.06310 0.92090 0.12700 -0.00500
H 	H 	0.13180 0.93320 0.07410 0.02500
C 	C 	0.09910 0.87990 0.20220 -0.08900
C 	C 	0.99540 0.86370 0.28200 -0.01500
H 	H 	0.01890 0.83710 0.33470 0.05100
C 	C 	0.85710 0.88780 0.28160 -0.02800
H 	H 	0.78850 0.87580 0.33460 0.03300
C 	C 	0.25100 0.84610 0.20120 0.39700
C 	C 	0.25330 0.20340 0.29190 0.38700
C 	C 	0.10170 0.19590 0.33860 -0.10900
C 	C 	0.00480 0.21920 0.29120 0.01800
H 	H 	0.03220 0.23820 0.22990 0.04600
C 	C 	0.86410 0.21430 0.33560 -0.05500
H 	H 	0.79750 0.23210 0.30420 0.06400
C 	C 	0.82540 0.18260 0.42660 -0.02000
C 	C 	0.92500 0.15860 0.47310 -0.05700
H 	H 	0.89890 0.13740 0.53410 0.05700
C 	C 	0.06320 0.16610 0.42940 0.01500
H 	H 	0.12960 0.15120 0.46100 0.02600
Zn	Zn	0.51355 0.75243 0.84271 1.22400
Zn	Zn	0.54468 0.76088 0.06595 1.19600
Zn	Zn	0.54242 0.22239 0.69963 1.22500
Zn	Zn	0.54136 0.92163 0.60656 1.22800
P 	P 	0.41490 0.49205 0.80185 0.45700
P 	P 	0.35980 0.04580 0.79738 0.45600
P 	P 	0.35200 0.83660 0.51362 0.42800
O 	O 	0.45280 0.70000 0.97130 -0.58900
O 	O 	0.46970 0.42610 0.87780 -0.53600
O 	O 	0.46940 0.62170 0.77340 -0.43300
O 	O 	0.45220 0.40300 0.72050 -0.42300
O 	O 	0.73270 0.70950 0.98340 -0.44000
O 	O 	0.71120 0.51200 0.93580 -0.42600
O 	O 	0.38630 0.16290 0.84070 -0.51000
O 	O 	0.38640 0.91610 0.84330 -0.46500
O 	O 	0.45010 0.05380 0.69890 -0.61000
O 	O 	0.66300 0.15490 0.87430 -0.45300
O 	O 	0.72320 0.17390 0.72380 -0.48700
O 	O 	0.66650 0.79790 0.65900 -0.49600
O 	O 	0.70830 0.78340 0.79190 -0.47500
O 	O 	0.34830 0.98270 0.48980 -0.50400
O 	O 	0.44140 0.79400 0.57660 -0.42800
O 	O 	0.39340 0.74810 0.43220 -0.41300
C 	C 	0.22700 0.52470 0.84070 -0.07600
C 	C 	0.16100 0.63770 0.89010 0.00100
H 	H 	0.21350 0.69840 0.90110 0.03000
C 	C 	0.01750 0.66000 0.92270 -0.03100
H 	H 	0.97490 0.73570 0.95560 0.07600
C 	C 	0.93640 0.57200 0.90710 -0.04100
C 	C 	0.00060 0.46170 0.85730 -0.03200
H 	H 	0.94720 0.40240 0.84550 0.06700
C 	C 	0.14440 0.43760 0.82440 0.00100
H 	H 	0.18610 0.36220 0.79090 0.03800
C 	C 	0.78030 0.59860 0.94490 0.36100
C 	C 	0.18110 0.07150 0.79400 -0.06300
C 	C 	0.07640 0.05490 0.87230 -0.03200
H 	H 	0.09960 0.02720 0.92490 0.06200
C 	C 	0.93690 0.07910 0.87300 -0.00400
H 	H 	0.86820 0.06680 0.92590 0.06000
C 	C 	0.90090 0.12010 0.79780 -0.07900
C 	C 	0.00460 0.13630 0.71800 -0.01900
H 	H 	0.98110 0.16290 0.66530 0.05100
C 	C 	0.14290 0.11220 0.71840 -0.02900
H 	H 	0.21150 0.12420 0.66540 0.03300
C 	C 	0.74900 0.15390 0.79880 0.38900
C 	C 	0.74670 0.79660 0.70810 0.38600
C 	C 	0.89830 0.80410 0.66140 -0.10600
C 	C 	0.99520 0.78080 0.70880 0.01600
H 	H 	0.96780 0.76180 0.77010 0.04700
C 	C 	0.13590 0.78570 0.66440 -0.05300
H 	H 	0.20250 0.76790 0.69580 0.06300
C 	C 	0.17460 0.81740 0.57340 -0.02100
C 	C 	0.07500 0.84140 0.52690 -0.05500
H 	H 	0.10110 0.86260 0.46590 0.05800
C 	C 	0.93680 0.83390 0.57060 0.01300
H 	H 	0.87040 0.84880 0.53900 0.02800
Zn	Zn	0.50000 0.50000 -0.00000 1.19100
