data_crystal

_cell_length_a 21.53500
_cell_length_b 9.02800
_cell_length_c 12.18600
_cell_angle_alpha 90.00000
_cell_angle_beta  90.00000
_cell_angle_gamma 90.00000

_symmetry_space_group_name_	'P 1'
_symmetry_space_group_name_H-M	'P 1'

loop_
_symmetry_equiv_pos_as_xyz
  x,y,z

loop_
_atom_site_label
_atom_site_type_symbol
_atom_site_fract_x
_atom_site_fract_y
_atom_site_fract_z
_atom_site_charge
C 	C 	0.99570 0.79490 0.79670 -0.06300
C 	C 	0.00680 0.95600 0.75460 0.44400
C 	C 	0.03630 0.63270 0.93720 0.03900
C 	C 	0.08100 0.64600 0.03630 0.29600
C 	C 	0.94260 0.77590 0.96750 0.00200
C 	C 	0.91530 0.93640 0.98190 0.31900
C 	C 	0.25470 0.26030 0.36160 -0.08000
C 	C 	0.25000 0.41280 0.42440 0.45500
C 	C 	0.24020 0.14150 0.19050 -0.07900
C 	C 	0.17190 0.16110 0.15680 0.43100
C 	C 	0.32940 0.30560 0.21840 -0.07600
C 	C 	0.34440 0.46590 0.19410 0.36000
Dy	Dy	0.06120 0.99870 -0.00000 1.50500
Dy	Dy	0.19550 0.49940 0.18660 1.66500
N 	N 	0.00410 0.77720 0.91290 -0.15100
N 	N 	0.26250 0.27640 0.24600 -0.14600
O 	O 	0.04150 0.03740 0.81320 -0.41800
O 	O 	0.98340 0.99480 0.67000 -0.47000
O 	O 	0.08890 0.77410 0.07480 -0.46400
O 	O 	0.10800 0.53100 0.06250 -0.44000
O 	O 	0.95300 0.04560 0.97970 -0.34200
O 	O 	0.85840 0.94550 0.99120 -0.20300
O 	O 	0.22690 0.51580 0.37480 -0.48600
O 	O 	0.27020 0.41060 0.51980 -0.47900
O 	O 	0.14500 0.27230 0.17960 -0.49300
O 	O 	0.14910 0.04960 0.10670 -0.46100
O 	O 	0.30190 0.55700 0.18500 -0.44700
O 	O 	0.39970 0.49880 0.18110 -0.27800
C 	C 	0.00430 0.20510 0.29670 -0.06000
C 	C 	0.99320 0.04400 0.25460 0.41900
C 	C 	0.96370 0.36730 0.43720 -0.06400
C 	C 	0.91900 0.35400 0.53630 0.39400
C 	C 	0.05740 0.22410 0.46750 -0.03500
C 	C 	0.08470 0.06360 0.48190 0.32700
C 	C 	0.74530 0.73970 0.86160 -0.06900
C 	C 	0.75000 0.58720 0.92440 0.57000
C 	C 	0.75980 0.85850 0.69050 -0.05300
C 	C 	0.82810 0.83890 0.65680 0.43700
C 	C 	0.67060 0.69440 0.71840 -0.04100
C 	C 	0.65560 0.53410 0.69410 0.35900
Dy	Dy	0.93880 0.00130 0.50000 1.69800
Dy	Dy	0.80450 0.50060 0.68660 1.69400
N 	N 	0.99590 0.22280 0.41290 -0.16900
N 	N 	0.73750 0.72360 0.74600 -0.15300
O 	O 	0.95850 0.96260 0.31320 -0.46800
O 	O 	0.01660 0.00520 0.17000 -0.45900
O 	O 	0.91110 0.22590 0.57480 -0.48400
O 	O 	0.89200 0.46900 0.56250 -0.44400
O 	O 	0.04700 0.95440 0.47970 -0.39900
O 	O 	0.14160 0.05450 0.49120 -0.24300
O 	O 	0.77310 0.48420 0.87480 -0.49600
O 	O 	0.72980 0.58940 0.01980 -0.57000
O 	O 	0.85500 0.72770 0.67960 -0.49300
O 	O 	0.85090 0.95040 0.60670 -0.46300
O 	O 	0.69810 0.44300 0.68500 -0.42800
O 	O 	0.60030 0.50120 0.68110 -0.24700
C 	C 	0.49570 0.20510 0.79670 -0.06500
C 	C 	0.50680 0.04400 0.75460 0.45400
C 	C 	0.53630 0.36730 0.93720 0.03700
C 	C 	0.58100 0.35400 0.03630 0.29500
C 	C 	0.44260 0.22410 0.96750 0.00500
C 	C 	0.41530 0.06360 0.98190 0.31400
C 	C 	0.75470 0.73970 0.36160 -0.08000
C 	C 	0.75000 0.58720 0.42440 0.45500
C 	C 	0.74020 0.85850 0.19050 -0.07900
C 	C 	0.67190 0.83890 0.15680 0.43200
C 	C 	0.82940 0.69440 0.21840 -0.07600
C 	C 	0.84440 0.53410 0.19410 0.36000
Dy	Dy	0.56120 0.00130 -0.00000 1.51800
Dy	Dy	0.69550 0.50060 0.18660 1.66500
N 	N 	0.50410 0.22280 0.91290 -0.15200
N 	N 	0.76250 0.72360 0.24600 -0.14600
O 	O 	0.54150 0.96260 0.81320 -0.42900
O 	O 	0.48340 0.00520 0.67000 -0.47600
O 	O 	0.58890 0.22590 0.07480 -0.46400
O 	O 	0.60800 0.46900 0.06250 -0.44100
O 	O 	0.45300 0.95440 0.97970 -0.33500
O 	O 	0.35840 0.05450 0.99120 -0.20200
O 	O 	0.72690 0.48420 0.37480 -0.48600
O 	O 	0.77020 0.58940 0.51980 -0.47800
O 	O 	0.64500 0.72770 0.17960 -0.49300
O 	O 	0.64910 0.95040 0.10670 -0.46500
O 	O 	0.80190 0.44300 0.18500 -0.44700
O 	O 	0.89970 0.50120 0.18110 -0.27900
C 	C 	0.50430 0.79490 0.29670 -0.07900
C 	C 	0.49320 0.95600 0.25460 0.45100
C 	C 	0.46370 0.63270 0.43720 -0.06200
C 	C 	0.41900 0.64600 0.53630 0.39500
C 	C 	0.55740 0.77590 0.46750 -0.04000
C 	C 	0.58470 0.93640 0.48190 0.32100
C 	C 	0.24530 0.26030 0.86160 -0.06800
C 	C 	0.25000 0.41280 0.92440 0.57000
C 	C 	0.25980 0.14150 0.69050 -0.05300
C 	C 	0.32810 0.16110 0.65680 0.43700
C 	C 	0.17060 0.30560 0.71840 -0.04100
C 	C 	0.15560 0.46590 0.69410 0.35900
Dy	Dy	0.43880 0.99870 0.50000 1.71400
Dy	Dy	0.30450 0.49940 0.68660 1.69500
N 	N 	0.49590 0.77720 0.41290 -0.16100
N 	N 	0.23750 0.27640 0.74600 -0.15300
O 	O 	0.45850 0.03740 0.31320 -0.48100
O 	O 	0.51660 0.99480 0.17000 -0.47900
O 	O 	0.41110 0.77410 0.57480 -0.48400
O 	O 	0.39200 0.53100 0.56250 -0.44400
O 	O 	0.54700 0.04560 0.47970 -0.39700
O 	O 	0.64160 0.94550 0.49120 -0.24200
O 	O 	0.27310 0.51580 0.87480 -0.49600
O 	O 	0.22980 0.41060 0.01980 -0.57100
O 	O 	0.35500 0.27230 0.67960 -0.49400
O 	O 	0.35090 0.04960 0.60670 -0.46600
O 	O 	0.19810 0.55700 0.68500 -0.42800
O 	O 	0.10030 0.49880 0.68110 -0.24500
