data_crystal

_cell_length_a 11.51200
_cell_length_b 14.78000
_cell_length_c 15.17460
_cell_angle_alpha 119.14400
_cell_angle_beta  105.96800
_cell_angle_gamma 90.00000

_symmetry_space_group_name_	'P 1'
_symmetry_space_group_name_H-M	'P 1'

loop_
_symmetry_equiv_pos_as_xyz
  x,y,z

loop_
_atom_site_label
_atom_site_type_symbol
_atom_site_fract_x
_atom_site_fract_y
_atom_site_fract_z
_atom_site_charge
Cu	Cu	0.50000 1.00000 0.50000 0.84800
Cu	Cu	0.50000 0.50000 0.50000 0.88300
Cu	Cu	0.00000 1.00000 0.50000 0.78800
Cu	Cu	0.00000 0.50000 0.50000 0.82400
Cu	Cu	-0.00000 0.76450 -0.00000 0.76800
Cu	Cu	-0.00000 0.23550 -0.00000 0.78100
H 	H 	0.50400 0.15680 0.72680 0.00100
H 	H 	0.36450 0.22170 0.81800 0.11900
H 	H 	0.16000 0.15570 0.72740 -0.04100
H 	H 	0.23810 0.98310 0.46720 -0.14500
H 	H 	0.49600 0.43000 0.27320 -0.01500
H 	H 	0.63550 0.40370 0.18200 0.09200
H 	H 	0.84000 0.42830 0.27260 0.01900
H 	H 	0.76190 0.51590 0.53280 -0.02200
H 	H 	0.49600 0.84320 0.27320 -0.02000
H 	H 	0.63550 0.77830 0.18200 0.08000
H 	H 	0.84000 0.84430 0.27260 0.01500
H 	H 	0.76190 0.01690 0.53280 0.09300
H 	H 	0.50400 0.57000 0.72680 -0.00700
H 	H 	0.36450 0.59630 0.81800 0.10700
H 	H 	0.16000 0.57170 0.72740 -0.04800
H 	H 	0.23810 0.48410 0.46720 -0.03100
W 	W 	0.20064 0.15035 0.30070 0.54800
W 	W 	0.79936 0.84965 0.69930 0.47200
W 	W 	0.14186 0.63832 0.27664 0.43600
W 	W 	0.85814 0.36168 0.72336 0.57800
C 	C 	0.33160 0.07060 0.35620 0.00400
C 	C 	0.11630 0.99482 0.17264 -0.14200
C 	C 	0.08270 0.08019 0.34738 -0.02700
C 	C 	0.09300 0.69755 0.16890 -0.07100
C 	C 	0.29030 0.76832 0.35964 -0.02100
C 	C 	0.07920 0.78049 0.37498 -0.06400
C 	C 	0.42070 0.13310 0.69100 0.13700
C 	C 	0.33850 0.17130 0.74620 -0.19700
C 	C 	0.21710 0.13250 0.69140 0.13400
C 	C 	0.26430 0.03111 0.53982 0.27600
C 	C 	0.66840 0.71440 0.64380 -0.01000
C 	C 	0.88370 0.82218 0.82736 -0.00700
C 	C 	0.91730 0.73281 0.65262 -0.00200
C 	C 	0.90700 0.52865 0.83110 0.03100
C 	C 	0.70970 0.40868 0.64036 -0.02800
C 	C 	0.92080 0.40551 0.62502 0.02500
C 	C 	0.57930 0.44210 0.30900 0.11500
C 	C 	0.66150 0.42510 0.25380 -0.16900
C 	C 	0.78290 0.44110 0.30860 0.12000
C 	C 	0.73570 0.49129 0.46018 0.12100
C 	C 	0.66840 0.92940 0.64380 -0.03700
C 	C 	0.88370 0.00518 0.82736 0.09500
C 	C 	0.91730 0.91981 0.65262 -0.03100
C 	C 	0.90700 0.30245 0.83110 0.03700
C 	C 	0.70970 0.23168 0.64036 -0.02500
C 	C 	0.92080 0.21951 0.62502 0.02800
C 	C 	0.57930 0.86690 0.30900 0.09400
C 	C 	0.66150 0.82870 0.25380 -0.15900
C 	C 	0.78290 0.86750 0.30860 0.10000
C 	C 	0.73570 0.96889 0.46018 -0.03500
C 	C 	0.33160 0.28560 0.35620 -0.02300
C 	C 	0.11630 0.17782 0.17264 -0.03600
C 	C 	0.08270 0.26719 0.34738 -0.05600
C 	C 	0.09300 0.47135 0.16890 -0.06600
C 	C 	0.29030 0.59132 0.35964 -0.01700
C 	C 	0.07920 0.59449 0.37498 -0.06000
C 	C 	0.42070 0.55790 0.69100 0.11700
C 	C 	0.33850 0.57490 0.74620 -0.18800
C 	C 	0.21710 0.55890 0.69140 0.11500
C 	C 	0.26430 0.50871 0.53982 0.11500
C 	C 	0.31580 0.09900 0.19800 -0.02200
C 	C 	0.25730 0.23630 0.47260 -0.05000
C 	C 	0.68420 0.90100 0.80200 -0.04200
C 	C 	0.74270 0.76370 0.52740 -0.02800
C 	C 	0.26650 0.59280 0.18560 -0.04500
C 	C 	0.94270 0.60550 0.21100 0.10000
C 	C 	0.73350 0.40720 0.81440 -0.02800
C 	C 	0.05730 0.39450 0.78900 -0.16500
N 	N 	0.40000 0.03378 0.39336 -0.17500
N 	N 	0.07300 0.91168 0.10576 -0.24900
N 	N 	0.02750 0.04018 0.37416 -0.17000
N 	N 	0.06480 0.72506 0.10952 -0.25500
N 	N 	0.36850 0.83664 0.40268 -0.17600
N 	N 	0.04740 0.85765 0.42210 -0.24100
N 	N 	0.38330 0.06306 0.58752 -0.24300
N 	N 	0.17890 0.06226 0.58772 -0.25900
N 	N 	0.60000 0.64042 0.60664 -0.20600
N 	N 	0.92700 0.80592 0.89424 -0.15600
N 	N 	0.97250 0.66602 0.62584 -0.12300
N 	N 	0.93520 0.61554 0.89048 -0.15500
N 	N 	0.63150 0.43396 0.59732 -0.15900
N 	N 	0.95260 0.43555 0.57790 -0.15600
N 	N 	0.61670 0.47554 0.41248 -0.23400
N 	N 	0.82110 0.47454 0.41228 -0.20400
N 	N 	0.60000 0.96622 0.60664 -0.22400
N 	N 	0.92700 0.08832 0.89424 -0.15700
N 	N 	0.97250 0.95982 0.62584 -0.14000
N 	N 	0.93520 0.27494 0.89048 -0.15000
N 	N 	0.63150 0.16336 0.59732 -0.14400
N 	N 	0.95260 0.14235 0.57790 -0.13800
N 	N 	0.61670 0.93694 0.41248 -0.21700
N 	N 	0.82110 0.93774 0.41228 -0.18900
N 	N 	0.40000 0.35958 0.39336 -0.20300
N 	N 	0.07300 0.19408 0.10576 -0.24800
N 	N 	0.02750 0.33398 0.37416 -0.19600
N 	N 	0.06480 0.38446 0.10952 -0.24900
N 	N 	0.36850 0.56604 0.40268 -0.16700
N 	N 	0.04740 0.56445 0.42210 -0.23100
N 	N 	0.38330 0.52446 0.58752 -0.23600
N 	N 	0.17890 0.52546 0.58772 -0.25300
N 	N 	0.37610 0.07340 0.14680 -0.09500
N 	N 	0.28770 0.28200 0.56400 -0.09200
N 	N 	0.62390 0.92660 0.85320 -0.09700
N 	N 	0.71230 0.71800 0.43600 -0.08300
N 	N 	0.33250 0.56840 0.13680 -0.11100
N 	N 	0.83980 0.58780 0.17560 -0.11700
N 	N 	0.66750 0.43160 0.86320 -0.06900
N 	N 	0.16020 0.41220 0.82440 -0.06900
