data_crystal

_cell_length_a 11.51600
_cell_length_b 14.77760
_cell_length_c 15.27490
_cell_angle_alpha 118.92900
_cell_angle_beta  106.29200
_cell_angle_gamma 90.00000

_symmetry_space_group_name_	'P 1'
_symmetry_space_group_name_H-M	'P 1'

loop_
_symmetry_equiv_pos_as_xyz
  x,y,z

loop_
_atom_site_label
_atom_site_type_symbol
_atom_site_fract_x
_atom_site_fract_y
_atom_site_fract_z
_atom_site_charge
Cu	Cu	0.50000 0.50000 0.50000 0.88100
Cu	Cu	0.50000 1.00000 0.50000 0.85000
Cu	Cu	0.00000 0.50000 0.50000 0.82300
Cu	Cu	0.00000 1.00000 0.50000 0.79200
Cu	Cu	0.00000 0.26424 -0.00000 0.77900
Cu	Cu	-0.00000 0.73576 -0.00000 0.77100
H 	H 	0.50600 0.65740 0.72540 -0.00600
H 	H 	0.36690 0.71860 0.81740 0.10200
H 	H 	0.16090 0.65390 0.72620 -0.04600
H 	H 	0.23730 0.48540 0.46800 -0.03100
H 	H 	0.49400 0.93200 0.27460 -0.02400
H 	H 	0.63310 0.90120 0.18260 0.07300
H 	H 	0.83910 0.92770 0.27380 0.01000
H 	H 	0.76270 0.01740 0.53200 0.08500
H 	H 	0.49400 0.34260 0.27460 -0.01300
H 	H 	0.63310 0.28140 0.18260 0.09300
H 	H 	0.83910 0.34610 0.27380 0.01900
H 	H 	0.76270 0.51460 0.53200 -0.02200
H 	H 	0.50600 0.06800 0.72540 0.00700
H 	H 	0.36690 0.09880 0.81740 0.12200
H 	H 	0.16090 0.07230 0.72620 -0.03300
H 	H 	0.23730 0.98260 0.46800 -0.13600
W 	W 	0.19848 0.65051 0.30102 0.50300
W 	W 	0.80152 0.34949 0.69898 0.51500
W 	W 	0.14018 0.13842 0.27684 0.47900
W 	W 	0.85982 0.86158 0.72316 0.54000
C 	C 	0.33020 0.57058 0.35696 -0.01600
C 	C 	0.11420 0.49496 0.17292 -0.05100
C 	C 	0.08070 0.57975 0.34710 -0.05600
C 	C 	0.08960 0.19655 0.16810 -0.05900
C 	C 	0.28880 0.26831 0.35902 -0.02300
C 	C 	0.07800 0.28045 0.37410 -0.06300
C 	C 	0.42260 0.63316 0.69012 0.11300
C 	C 	0.34030 0.66974 0.74548 -0.18100
C 	C 	0.21800 0.63137 0.69074 0.11200
C 	C 	0.26430 0.53248 0.54036 0.11600
C 	C 	0.66980 0.21362 0.64304 -0.00800
C 	C 	0.88580 0.32204 0.82708 0.01300
C 	C 	0.91930 0.23265 0.65290 0.00100
C 	C 	0.91040 0.02845 0.83190 0.10600
C 	C 	0.71120 0.90929 0.64098 -0.05100
C 	C 	0.92200 0.90635 0.62590 0.00300
C 	C 	0.57740 0.94304 0.30988 0.09200
C 	C 	0.65970 0.92426 0.25452 -0.15800
C 	C 	0.78200 0.94063 0.30926 0.09500
C 	C 	0.73570 0.99212 0.45964 -0.02400
C 	C 	0.66980 0.42942 0.64304 -0.01400
C 	C 	0.88580 0.50504 0.82708 0.01000
C 	C 	0.91930 0.42025 0.65290 -0.00300
C 	C 	0.91040 0.80345 0.83190 0.02800
C 	C 	0.71120 0.73169 0.64098 -0.02700
C 	C 	0.92200 0.71955 0.62590 0.02800
C 	C 	0.57740 0.36684 0.30988 0.11200
C 	C 	0.65970 0.33026 0.25452 -0.16500
C 	C 	0.78200 0.36863 0.30926 0.11700
C 	C 	0.73570 0.46752 0.45964 0.12000
C 	C 	0.33020 0.78638 0.35696 -0.02300
C 	C 	0.11420 0.67796 0.17292 -0.05400
C 	C 	0.08070 0.76735 0.34710 -0.06100
C 	C 	0.08960 0.97155 0.16810 -0.14000
C 	C 	0.28880 0.09071 0.35902 0.00100
C 	C 	0.07800 0.09365 0.37410 -0.03800
C 	C 	0.42260 0.05696 0.69012 0.13300
C 	C 	0.34030 0.07574 0.74548 -0.18600
C 	C 	0.21800 0.05937 0.69074 0.13300
C 	C 	0.26430 0.00788 0.54036 0.26300
C 	C 	0.31140 0.59980 0.19960 -0.05000
C 	C 	0.25600 0.73600 0.47200 -0.05100
C 	C 	0.68860 0.40020 0.80040 -0.02600
C 	C 	0.74400 0.26400 0.52800 -0.02600
C 	C 	0.26470 0.09280 0.18560 -0.02000
C 	C 	0.94210 0.10570 0.21140 0.11200
C 	C 	0.73530 0.90720 0.81440 -0.04800
C 	C 	0.05790 0.89430 0.78860 -0.19000
N 	N 	0.39980 0.53419 0.39372 -0.20500
N 	N 	0.07100 0.41179 0.10698 -0.25200
N 	N 	0.02530 0.53946 0.37332 -0.19700
N 	N 	0.06150 0.22396 0.10872 -0.24600
N 	N 	0.36770 0.33739 0.40238 -0.16400
N 	N 	0.04750 0.35798 0.42230 -0.22700
N 	N 	0.38460 0.56387 0.58754 -0.23500
N 	N 	0.18000 0.56259 0.58780 -0.25200
N 	N 	0.60020 0.14047 0.60628 -0.18600
N 	N 	0.92900 0.30481 0.89302 -0.15000
N 	N 	0.97470 0.16614 0.62668 -0.10800
N 	N 	0.93850 0.11524 0.89128 -0.16200
N 	N 	0.63230 0.93501 0.59762 -0.17700
N 	N 	0.95250 0.93568 0.57770 -0.17400
N 	N 	0.61540 0.97633 0.41246 -0.22000
N 	N 	0.82000 0.97479 0.41220 -0.19100
N 	N 	0.60020 0.46581 0.60628 -0.20400
N 	N 	0.92900 0.58821 0.89302 -0.15300
N 	N 	0.97470 0.46054 0.62668 -0.12000
N 	N 	0.93850 0.77604 0.89128 -0.15900
N 	N 	0.63230 0.66261 0.59762 -0.16200
N 	N 	0.95250 0.64202 0.57770 -0.15900
N 	N 	0.61540 0.43613 0.41246 -0.23300
N 	N 	0.82000 0.43741 0.41220 -0.20500
N 	N 	0.39980 0.85953 0.39372 -0.21400
N 	N 	0.07100 0.69519 0.10698 -0.25500
N 	N 	0.02530 0.83386 0.37332 -0.20400
N 	N 	0.06150 0.88476 0.10872 -0.24300
N 	N 	0.36770 0.06499 0.40238 -0.14300
N 	N 	0.04750 0.06432 0.42230 -0.20300
N 	N 	0.38460 0.02367 0.58754 -0.24000
N 	N 	0.18000 0.02521 0.58780 -0.25700
N 	N 	0.36930 0.57250 0.14500 -0.11300
N 	N 	0.28710 0.78118 0.56236 -0.10500
N 	N 	0.63070 0.42750 0.85500 -0.07600
N 	N 	0.71290 0.21882 0.43764 -0.07100
N 	N 	0.33240 0.06970 0.13940 -0.09300
N 	N 	0.83730 0.08890 0.17780 -0.09600
N 	N 	0.66760 0.93030 0.86060 -0.08900
N 	N 	0.16270 0.91110 0.82220 -0.08600
