data_crystal

_cell_length_a 7.28300
_cell_length_b 7.28300
_cell_length_c 8.22400
_cell_angle_alpha 90.00000
_cell_angle_beta  90.00000
_cell_angle_gamma 120.00000

_symmetry_space_group_name_	'P 1'
_symmetry_space_group_name_H-M	'P 1'

loop_
_symmetry_equiv_pos_as_xyz
  x,y,z

loop_
_atom_site_label
_atom_site_type_symbol
_atom_site_fract_x
_atom_site_fract_y
_atom_site_fract_z
_atom_site_charge
O 	O 	0.89048 0.31001 0.89430 -0.29000
O 	O 	0.68999 0.58047 0.89430 -0.31000
O 	O 	0.41953 0.10952 0.89430 -0.32200
O 	O 	0.10952 0.68999 0.39430 -0.40800
O 	O 	0.31001 0.41953 0.39430 -0.44100
O 	O 	0.58047 0.89048 0.39430 -0.35000
O 	O 	0.31001 0.89048 0.10570 -0.34000
O 	O 	0.58047 0.68999 0.10570 -0.38700
O 	O 	0.10952 0.41953 0.10570 -0.40700
O 	O 	0.68999 0.10952 0.60570 -0.40100
O 	O 	0.41953 0.31001 0.60570 -0.43400
O 	O 	0.89048 0.58047 0.60570 -0.36200
Mg	Mg	0.66667 0.33333 0.75000 1.47700
Mg	Mg	0.33333 0.66667 0.25000 1.47600
C 	C 	-0.00000 0.43983 -0.00000 0.23300
H 	H 	0.00000 0.58700 -0.00000 -0.04900
C 	C 	0.56017 0.56017 -0.00000 0.29400
H 	H 	0.41300 0.41300 -0.00000 -0.06100
C 	C 	0.43983 0.00000 -0.00000 0.19900
H 	H 	0.58700 0.00000 -0.00000 -0.05000
C 	C 	0.00000 0.56017 0.50000 0.35400
H 	H 	0.00000 0.41300 0.50000 -0.06000
C 	C 	0.43983 0.43983 0.50000 0.42400
H 	H 	0.58700 0.58700 0.50000 -0.05100
C 	C 	0.56017 0.00000 0.50000 0.32500
H 	H 	0.41300 0.00000 0.50000 -0.05900
