data_crystal

_cell_length_a 7.27290
_cell_length_b 7.27290
_cell_length_c 8.20990
_cell_angle_alpha 90.00000
_cell_angle_beta  90.00000
_cell_angle_gamma 120.00000

_symmetry_space_group_name_	'P 1'
_symmetry_space_group_name_H-M	'P 1'

loop_
_symmetry_equiv_pos_as_xyz
  x,y,z

loop_
_atom_site_label
_atom_site_type_symbol
_atom_site_fract_x
_atom_site_fract_y
_atom_site_fract_z
_atom_site_charge
O 	O 	0.89064 0.31027 0.89405 -0.29000
O 	O 	0.68973 0.58037 0.89405 -0.31700
O 	O 	0.41963 0.10936 0.89405 -0.32400
O 	O 	0.10936 0.68973 0.39405 -0.42500
O 	O 	0.31027 0.41963 0.39405 -0.46400
O 	O 	0.58037 0.89064 0.39405 -0.36000
O 	O 	0.31027 0.89064 0.10595 -0.34300
O 	O 	0.58037 0.68973 0.10595 -0.39900
O 	O 	0.10936 0.41963 0.10595 -0.41700
O 	O 	0.68973 0.10936 0.60595 -0.41600
O 	O 	0.41963 0.31027 0.60595 -0.45600
O 	O 	0.89064 0.58037 0.60595 -0.37300
Mg	Mg	0.66667 0.33333 0.75000 1.47900
Mg	Mg	0.33333 0.66667 0.25000 1.47800
C 	C 	-0.00000 0.43970 -0.00000 0.28200
H 	H 	-0.00000 0.56760 -0.00000 -0.08700
C 	C 	0.56030 0.56030 -0.00000 0.36400
H 	H 	0.43240 0.43240 -0.00000 -0.11000
C 	C 	0.43970 0.00000 -0.00000 0.23900
H 	H 	0.56760 0.00000 -0.00000 -0.08200
C 	C 	0.00000 0.56030 0.50000 0.43900
H 	H 	0.00000 0.43240 0.50000 -0.11800
C 	C 	0.43970 0.43970 0.50000 0.53000
H 	H 	0.56760 0.56760 0.50000 -0.12100
C 	C 	0.56030 -0.00000 0.50000 0.40300
H 	H 	0.43240 -0.00000 0.50000 -0.11200
