data_crystal

_cell_length_a 7.28350
_cell_length_b 7.28350
_cell_length_c 8.21720
_cell_angle_alpha 90.00000
_cell_angle_beta  90.00000
_cell_angle_gamma 120.00000

_symmetry_space_group_name_	'P 1'
_symmetry_space_group_name_H-M	'P 1'

loop_
_symmetry_equiv_pos_as_xyz
  x,y,z

loop_
_atom_site_label
_atom_site_type_symbol
_atom_site_fract_x
_atom_site_fract_y
_atom_site_fract_z
_atom_site_charge
O 	O 	0.89071 0.31048 0.89425 -0.28900
O 	O 	0.68952 0.58023 0.89425 -0.31700
O 	O 	0.41977 0.10929 0.89425 -0.32500
O 	O 	0.10929 0.68952 0.39425 -0.42700
O 	O 	0.31048 0.41977 0.39425 -0.46700
O 	O 	0.58023 0.89071 0.39425 -0.36100
O 	O 	0.31048 0.89071 0.10575 -0.34400
O 	O 	0.58023 0.68952 0.10575 -0.40100
O 	O 	0.10929 0.41977 0.10575 -0.41800
O 	O 	0.68952 0.10929 0.60575 -0.41800
O 	O 	0.41977 0.31048 0.60575 -0.45900
O 	O 	0.89071 0.58023 0.60575 -0.37500
Mg	Mg	0.66667 0.33333 0.75000 1.47900
Mg	Mg	0.33333 0.66667 0.25000 1.47800
C 	C 	-0.00000 0.43900 -0.00000 0.28500
H 	H 	0.00000 0.56670 -0.00000 -0.08900
C 	C 	0.56100 0.56100 -0.00000 0.36900
H 	H 	0.43330 0.43330 -0.00000 -0.11200
C 	C 	0.43900 0.00000 -0.00000 0.24200
H 	H 	0.56670 0.00000 -0.00000 -0.08400
C 	C 	-0.00000 0.56100 0.50000 0.44500
H 	H 	0.00000 0.43330 0.50000 -0.12000
C 	C 	0.43900 0.43900 0.50000 0.53700
H 	H 	0.56670 0.56670 0.50000 -0.12300
C 	C 	0.56100 0.00000 0.50000 0.40800
H 	H 	0.43330 0.00000 0.50000 -0.11400
