data_crystal

_cell_length_a 7.26380
_cell_length_b 7.26380
_cell_length_c 8.20980
_cell_angle_alpha 90.00000
_cell_angle_beta  90.00000
_cell_angle_gamma 120.00000

_symmetry_space_group_name_	'P 1'
_symmetry_space_group_name_H-M	'P 1'

loop_
_symmetry_equiv_pos_as_xyz
  x,y,z

loop_
_atom_site_label
_atom_site_type_symbol
_atom_site_fract_x
_atom_site_fract_y
_atom_site_fract_z
_atom_site_charge
O 	O 	0.89072 0.31019 0.89399 -0.28900
O 	O 	0.68981 0.58053 0.89399 -0.31600
O 	O 	0.41947 0.10928 0.89399 -0.32400
O 	O 	0.10928 0.68981 0.39399 -0.42400
O 	O 	0.31019 0.41947 0.39399 -0.46300
O 	O 	0.58053 0.89072 0.39399 -0.35900
O 	O 	0.31019 0.89072 0.10601 -0.34300
O 	O 	0.58053 0.68981 0.10601 -0.39900
O 	O 	0.10928 0.41947 0.10601 -0.41700
O 	O 	0.68981 0.10928 0.60601 -0.41500
O 	O 	0.41947 0.31019 0.60601 -0.45600
O 	O 	0.89072 0.58053 0.60601 -0.37300
Mg	Mg	0.66667 0.33333 0.75000 1.47900
Mg	Mg	0.33333 0.66667 0.25000 1.47800
C 	C 	0.00000 0.44000 -0.00000 0.28100
H 	H 	-0.00000 0.56810 -0.00000 -0.08700
C 	C 	0.56000 0.56000 -0.00000 0.36200
H 	H 	0.43190 0.43190 -0.00000 -0.10900
C 	C 	0.44000 0.00000 -0.00000 0.23800
H 	H 	0.56810 0.00000 -0.00000 -0.08200
C 	C 	0.00000 0.56000 0.50000 0.43800
H 	H 	0.00000 0.43190 0.50000 -0.11700
C 	C 	0.44000 0.44000 0.50000 0.52700
H 	H 	0.56810 0.56810 0.50000 -0.12000
C 	C 	0.56000 -0.00000 0.50000 0.40100
H 	H 	0.43190 -0.00000 0.50000 -0.11100
