data_crystal

_cell_length_a 7.27740
_cell_length_b 7.27740
_cell_length_c 8.20940
_cell_angle_alpha 90.00000
_cell_angle_beta  90.00000
_cell_angle_gamma 120.00000

_symmetry_space_group_name_	'P 1'
_symmetry_space_group_name_H-M	'P 1'

loop_
_symmetry_equiv_pos_as_xyz
  x,y,z

loop_
_atom_site_label
_atom_site_type_symbol
_atom_site_fract_x
_atom_site_fract_y
_atom_site_fract_z
_atom_site_charge
O 	O 	0.89066 0.31033 0.89413 -0.29100
O 	O 	0.68967 0.58033 0.89413 -0.31700
O 	O 	0.41967 0.10934 0.89413 -0.32400
O 	O 	0.10934 0.68967 0.39413 -0.42500
O 	O 	0.31033 0.41967 0.39413 -0.46500
O 	O 	0.58033 0.89066 0.39413 -0.36000
O 	O 	0.31033 0.89066 0.10587 -0.34300
O 	O 	0.58033 0.68967 0.10587 -0.40000
O 	O 	0.10934 0.41967 0.10587 -0.41800
O 	O 	0.68967 0.10934 0.60587 -0.41600
O 	O 	0.41967 0.31033 0.60587 -0.45700
O 	O 	0.89066 0.58033 0.60587 -0.37400
Mg	Mg	0.66667 0.33333 0.75000 1.47900
Mg	Mg	0.33333 0.66667 0.25000 1.47800
C 	C 	0.00000 0.43950 -0.00000 0.28300
H 	H 	0.00000 0.56730 -0.00000 -0.08800
C 	C 	0.56050 0.56050 -0.00000 0.36600
H 	H 	0.43270 0.43270 -0.00000 -0.11000
C 	C 	0.43950 0.00000 -0.00000 0.24000
H 	H 	0.56730 0.00000 -0.00000 -0.08300
C 	C 	0.00000 0.56050 0.50000 0.44200
H 	H 	0.00000 0.43270 0.50000 -0.11900
C 	C 	0.43950 0.43950 0.50000 0.53200
H 	H 	0.56730 0.56730 0.50000 -0.12200
C 	C 	0.56050 0.00000 0.50000 0.40500
H 	H 	0.43270 0.00000 0.50000 -0.11300
