data_crystal

_cell_length_a 12.56930
_cell_length_b 12.56930
_cell_length_c 8.22160
_cell_angle_alpha 90.00000
_cell_angle_beta  90.00000
_cell_angle_gamma 120.00000

_symmetry_space_group_name_	'P 1'
_symmetry_space_group_name_H-M	'P 1'

loop_
_symmetry_equiv_pos_as_xyz
  x,y,z

loop_
_atom_site_label
_atom_site_type_symbol
_atom_site_fract_x
_atom_site_fract_y
_atom_site_fract_z
_atom_site_charge
Mg	Mg	0.33431 0.33230 0.58747 1.48000
O 	O 	0.42331 0.26452 0.44207 -0.46100
O 	O 	0.42420 0.15567 0.22998 -0.55400
O 	O 	0.40028 0.48903 0.44095 -0.46100
O 	O 	0.50766 0.59967 0.22888 -0.55500
O 	O 	0.17606 0.24059 0.44463 -0.46000
O 	O 	0.06923 0.24535 0.23241 -0.54800
C 	C 	0.37303 0.18661 0.33390 0.52700
H 	H 	0.28680 0.14650 0.32980 -0.15900
C 	C 	0.47645 0.51604 0.32990 0.52800
H 	H 	0.51440 0.46810 0.32150 -0.16000
C 	C 	0.14338 0.29332 0.34660 0.52300
H 	H 	0.17820 0.37860 0.35960 -0.14600
Mg	Mg	0.66770 0.00201 0.58747 1.47800
O 	O 	0.73548 0.15879 0.44207 -0.46500
O 	O 	0.84433 0.26853 0.22998 -0.55200
O 	O 	0.51097 0.91125 0.44095 -0.46300
O 	O 	0.40033 0.90799 0.22888 -0.55800
O 	O 	0.75941 0.93547 0.44463 -0.45600
O 	O 	0.75465 0.82388 0.23241 -0.55100
C 	C 	0.81339 0.18642 0.33390 0.52800
H 	H 	0.85350 0.14030 0.32980 -0.16000
C 	C 	0.48396 0.96041 0.32990 0.54900
H 	H 	0.53190 0.04630 0.32150 -0.17200
C 	C 	0.70668 0.85006 0.34660 0.52300
H 	H 	0.62140 0.79960 0.35960 -0.14700
Mg	Mg	0.99799 0.66569 0.58747 1.47800
O 	O 	0.84121 0.57669 0.44207 -0.46400
O 	O 	0.73147 0.57580 0.22998 -0.55300
O 	O 	0.08875 0.59972 0.44095 -0.46300
O 	O 	0.09201 0.49234 0.22888 -0.55800
O 	O 	0.06453 0.82394 0.44463 -0.45200
O 	O 	0.17612 0.93077 0.23241 -0.54500
C 	C 	0.81358 0.62697 0.33390 0.52800
H 	H 	0.85970 0.71320 0.32980 -0.15900
C 	C 	0.03959 0.52355 0.32990 0.54900
H 	H 	0.95370 0.48560 0.32150 -0.17200
C 	C 	0.14994 0.85662 0.34660 0.52200
H 	H 	0.20040 0.82180 0.35960 -0.14500
Mg	Mg	0.66569 0.66770 0.08747 1.45100
O 	O 	0.57669 0.73548 0.94207 -0.31100
O 	O 	0.57580 0.84433 0.72998 -0.40800
O 	O 	0.59972 0.51097 0.94095 -0.31200
O 	O 	0.49234 0.40033 0.72888 -0.41400
O 	O 	0.82394 0.75941 0.94463 -0.31300
O 	O 	0.93077 0.75465 0.73241 -0.41800
C 	C 	0.62697 0.81339 0.83390 0.46800
H 	H 	0.71320 0.85350 0.82980 -0.07700
C 	C 	0.52355 0.48396 0.82990 0.46900
H 	H 	0.48560 0.53190 0.82150 -0.08100
C 	C 	0.85662 0.70668 0.84660 0.46500
H 	H 	0.82180 0.62140 0.85960 -0.07000
Mg	Mg	0.33230 0.99799 0.08747 1.45200
O 	O 	0.26452 0.84121 0.94207 -0.30800
O 	O 	0.15567 0.73147 0.72998 -0.40700
O 	O 	0.48903 0.08875 0.94095 -0.30900
O 	O 	0.59967 0.09201 0.72888 -0.40900
O 	O 	0.24059 0.06453 0.94463 -0.31900
O 	O 	0.24535 0.17612 0.73241 -0.41400
C 	C 	0.18661 0.81358 0.83390 0.46700
H 	H 	0.14650 0.85970 0.82980 -0.07300
C 	C 	0.51604 0.03959 0.82990 0.43600
H 	H 	0.46810 0.95370 0.82150 -0.06200
C 	C 	0.29332 0.14994 0.84660 0.46700
H 	H 	0.37860 0.20040 0.85960 -0.07000
Mg	Mg	0.00201 0.33431 0.08747 1.45200
O 	O 	0.15879 0.42331 0.94207 -0.30900
O 	O 	0.26853 0.42420 0.72998 -0.41100
O 	O 	0.91125 0.40028 0.94095 -0.31000
O 	O 	0.90799 0.50766 0.72888 -0.40900
O 	O 	0.93547 0.17606 0.94463 -0.32700
O 	O 	0.82388 0.06923 0.73241 -0.42300
C 	C 	0.18642 0.37303 0.83390 0.46800
H 	H 	0.14030 0.28680 0.82980 -0.07700
C 	C 	0.96041 0.47645 0.82990 0.43700
H 	H 	0.04630 0.51440 0.82150 -0.06200
C 	C 	0.85006 0.14338 0.84660 0.46900
H 	H 	0.79960 0.17820 0.85960 -0.07200
