data_crystal

_cell_length_a 7.26800
_cell_length_b 7.26800
_cell_length_c 8.21040
_cell_angle_alpha 90.00000
_cell_angle_beta  90.00000
_cell_angle_gamma 120.00000

_symmetry_space_group_name_	'P 1'
_symmetry_space_group_name_H-M	'P 1'

loop_
_symmetry_equiv_pos_as_xyz
  x,y,z

loop_
_atom_site_label
_atom_site_type_symbol
_atom_site_fract_x
_atom_site_fract_y
_atom_site_fract_z
_atom_site_charge
O 	O 	0.89065 0.31022 0.89405 -0.28900
O 	O 	0.68978 0.58043 0.89405 -0.31600
O 	O 	0.41957 0.10935 0.89405 -0.32400
O 	O 	0.10935 0.68978 0.39405 -0.42400
O 	O 	0.31022 0.41957 0.39405 -0.46400
O 	O 	0.58043 0.89065 0.39405 -0.36000
O 	O 	0.31022 0.89065 0.10595 -0.34300
O 	O 	0.58043 0.68978 0.10595 -0.39900
O 	O 	0.10935 0.41957 0.10595 -0.41700
O 	O 	0.68978 0.10935 0.60595 -0.41500
O 	O 	0.41957 0.31022 0.60595 -0.45600
O 	O 	0.89065 0.58043 0.60595 -0.37300
Mg	Mg	0.66667 0.33333 0.75000 1.47900
Mg	Mg	0.33333 0.66667 0.25000 1.47800
C 	C 	-0.00000 0.43990 -0.00000 0.28100
H 	H 	-0.00000 0.56790 -0.00000 -0.08700
C 	C 	0.56010 0.56010 -0.00000 0.36300
H 	H 	0.43210 0.43210 -0.00000 -0.10900
C 	C 	0.43990 0.00000 -0.00000 0.23900
H 	H 	0.56790 0.00000 -0.00000 -0.08200
C 	C 	0.00000 0.56010 0.50000 0.43800
H 	H 	0.00000 0.43210 0.50000 -0.11800
C 	C 	0.43990 0.43990 0.50000 0.52800
H 	H 	0.56790 0.56790 0.50000 -0.12000
C 	C 	0.56010 0.00000 0.50000 0.40200
H 	H 	0.43210 0.00000 0.50000 -0.11200
