data_crystal

_cell_length_a 17.22700
_cell_length_b 23.59440
_cell_length_c 23.72710
_cell_angle_alpha 90.00000
_cell_angle_beta  90.00000
_cell_angle_gamma 90.00000

_symmetry_space_group_name_	'P 1'
_symmetry_space_group_name_H-M	'P 1'

loop_
_symmetry_equiv_pos_as_xyz
  x,y,z

loop_
_atom_site_label
_atom_site_type_symbol
_atom_site_fract_x
_atom_site_fract_y
_atom_site_fract_z
_atom_site_charge
Zn	Zn	0.50037 0.32867 0.61003 1.25200
C 	C 	0.65880 0.33330 0.59110 0.39500
C 	C 	0.72940 0.35530 0.56140 -0.12300
C 	C 	0.80040 0.35860 0.58960 0.03900
H 	H 	0.80400 0.34620 0.62710 0.02900
C 	C 	0.86480 0.37990 0.56320 -0.10300
H 	H 	0.91150 0.38260 0.58350 0.06600
C 	C 	0.86350 0.39740 0.50830 0.01600
C 	C 	0.79220 0.39510 0.48030 -0.10400
H 	H 	0.78900 0.40710 0.44260 0.06200
C 	C 	0.72540 0.37510 0.50750 0.03600
H 	H 	0.67760 0.37530 0.48850 0.03800
C 	C 	0.93420 0.41890 0.47890 0.08800
C 	C 	0.00740 0.40080 0.49680 -0.19400
H 	H 	0.01130 0.37410 0.52600 0.09800
C 	C 	0.07500 0.42190 0.47160 0.20300
C 	C 	0.06810 0.45870 0.42610 -0.20000
H 	H 	0.11310 0.47120 0.40750 0.10200
C 	C 	0.99520 0.47760 0.40750 0.09200
C 	C 	0.92960 0.45710 0.43480 -0.15200
H 	H 	0.88050 0.46950 0.42290 0.07500
C 	C 	0.98880 0.51870 0.36100 0.01400
C 	C 	0.93390 0.56100 0.36230 -0.09000
H 	H 	0.89970 0.56280 0.39310 0.05500
C 	C 	0.92720 0.60130 0.32000 0.02300
H 	H 	0.88990 0.63030 0.32250 0.03000
C 	C 	0.97690 0.59790 0.27340 -0.10800
C 	C 	0.03090 0.55470 0.27140 0.03500
H 	H 	0.06330 0.55120 0.23970 0.03600
C 	C 	0.03800 0.51680 0.31460 -0.09100
H 	H 	0.07690 0.48900 0.31300 0.06400
C 	C 	0.96860 0.64160 0.22690 0.37800
C 	C 	0.15640 0.41410 0.49360 -0.08700
C 	C 	0.21650 0.45300 0.49150 0.13500
H 	H 	0.20750 0.48850 0.47470 0.39500
C 	C 	0.28950 0.44140 0.51320 0.19100
H 	H 	0.32860 0.46910 0.51220 -0.10600
C 	C 	0.30450 0.38890 0.53630 -0.20600
C 	C 	0.24710 0.34860 0.53330 -0.36200
H 	H 	0.25810 0.31180 0.54600 0.16100
C 	C 	0.17300 0.36010 0.51230 0.11100
H 	H 	0.13520 0.33140 0.51080 -0.18900
C 	C 	0.38530 0.37590 0.55940 -0.09800
O 	O 	0.66720 0.31090 0.63782 -0.47600
O 	O 	0.59460 0.33940 0.56577 -0.46300
O 	O 	0.93330 0.68640 0.23765 -0.46400
O 	O 	0.00010 0.62730 0.18013 -0.45600
O 	O 	0.43260 0.41410 0.56610 -0.12400
O 	O 	0.39800 0.32510 0.57200 -0.57800
C 	C 	0.14820 0.39480 0.49360 -0.22800
C 	C 	0.21220 0.43000 0.49300 0.40800
H 	H 	0.20750 0.46570 0.47590 -0.57800
C 	C 	0.28290 0.41530 0.51650 -0.43200
H 	H 	0.32610 0.43920 0.51200 0.17900
C 	C 	0.29000 0.36550 0.54630 0.43100
C 	C 	0.22490 0.33190 0.55010 -0.12300
H 	H 	0.22830 0.29770 0.57040 0.01400
C 	C 	0.15460 0.34600 0.52520 0.26700
H 	H 	0.11130 0.32230 0.52990 0.05000
C 	C 	0.36040 0.34830 0.57750 0.70400
O 	O 	0.42450 0.36900 0.56090 -0.15600
O 	O 	0.35660 0.31710 0.61940 -0.31400
Zn	Zn	0.99963 0.67133 0.11003 1.25200
C 	C 	0.84120 0.66670 0.09110 0.39300
C 	C 	0.77060 0.64470 0.06140 -0.11500
C 	C 	0.69960 0.64140 0.08960 0.03000
H 	H 	0.69600 0.65380 0.12710 0.03100
C 	C 	0.63520 0.62010 0.06320 -0.09400
H 	H 	0.58850 0.61740 0.08350 0.06300
C 	C 	0.63650 0.60260 0.00830 0.00500
C 	C 	0.70780 0.60490 0.98030 -0.09000
H 	H 	0.71100 0.59290 0.94260 0.05800
C 	C 	0.77460 0.62490 0.00750 0.01900
H 	H 	0.82240 0.62470 0.98850 0.04600
C 	C 	0.56580 0.58110 0.97890 0.09500
C 	C 	0.49260 0.59920 0.99680 -0.20100
H 	H 	0.48870 0.62590 0.02600 0.10000
C 	C 	0.42500 0.57810 0.97160 0.20900
C 	C 	0.43190 0.54130 0.92610 -0.20500
H 	H 	0.38690 0.52880 0.90750 0.10300
C 	C 	0.50480 0.52240 0.90750 0.09600
C 	C 	0.57040 0.54290 0.93480 -0.15700
H 	H 	0.61950 0.53050 0.92290 0.07700
C 	C 	0.51120 0.48130 0.86100 0.01300
C 	C 	0.56610 0.43900 0.86230 -0.08800
H 	H 	0.60030 0.43720 0.89310 0.05400
C 	C 	0.57280 0.39870 0.82000 0.02200
H 	H 	0.61010 0.36970 0.82250 0.03000
C 	C 	0.52310 0.40210 0.77340 -0.10600
C 	C 	0.46910 0.44530 0.77140 0.03100
H 	H 	0.43670 0.44880 0.73970 0.03600
C 	C 	0.46200 0.48320 0.81460 -0.09100
H 	H 	0.42310 0.51100 0.81300 0.06300
C 	C 	0.53140 0.35840 0.72690 0.38100
C 	C 	0.34360 0.58590 0.99360 -0.09200
C 	C 	0.28350 0.54700 0.99150 0.13500
H 	H 	0.29250 0.51150 0.97470 0.40100
C 	C 	0.21050 0.55860 0.01320 0.18500
H 	H 	0.17140 0.53090 0.01220 -0.10500
C 	C 	0.19550 0.61110 0.03630 -0.20200
C 	C 	0.25290 0.65140 0.03330 -0.36600
H 	H 	0.24190 0.68820 0.04600 0.16400
C 	C 	0.32700 0.63990 0.01230 0.11600
H 	H 	0.36480 0.66860 0.01080 -0.19500
C 	C 	0.11470 0.62410 0.05940 -0.09800
O 	O 	0.83280 0.68910 0.13782 -0.47500
O 	O 	0.90540 0.66060 0.06577 -0.46400
O 	O 	0.56670 0.31360 0.73765 -0.46400
O 	O 	0.49990 0.37270 0.68013 -0.46000
O 	O 	0.06740 0.58590 0.06610 -0.12300
O 	O 	0.10200 0.67490 0.07200 -0.57600
C 	C 	0.35180 0.60520 0.99360 -0.23400
C 	C 	0.28780 0.57000 0.99300 0.41900
H 	H 	0.29250 0.53430 0.97590 -0.58800
C 	C 	0.21710 0.58470 0.01650 -0.43600
H 	H 	0.17390 0.56080 0.01200 0.18400
C 	C 	0.21000 0.63450 0.04630 0.43200
C 	C 	0.27510 0.66810 0.05010 -0.12500
H 	H 	0.27170 0.70230 0.07040 0.01400
C 	C 	0.34540 0.65400 0.02520 0.27200
H 	H 	0.38870 0.67770 0.02990 0.05100
C 	C 	0.13960 0.65170 0.07750 0.70000
O 	O 	0.07550 0.63100 0.06090 -0.15500
O 	O 	0.14340 0.68290 0.11940 -0.31300
Zn	Zn	0.50037 0.17133 0.61003 1.25300
C 	C 	0.65880 0.16670 0.59110 0.39600
C 	C 	0.72940 0.14470 0.56140 -0.12200
C 	C 	0.80040 0.14140 0.58960 0.03800
H 	H 	0.80400 0.15380 0.62710 0.02900
C 	C 	0.86480 0.12010 0.56320 -0.10100
H 	H 	0.91150 0.11740 0.58350 0.06600
C 	C 	0.86350 0.10260 0.50830 0.01400
C 	C 	0.79220 0.10490 0.48030 -0.10200
H 	H 	0.78900 0.09290 0.44260 0.06200
C 	C 	0.72540 0.12490 0.50750 0.03400
H 	H 	0.67760 0.12470 0.48850 0.03900
C 	C 	0.93420 0.08110 0.47890 0.09400
C 	C 	0.00740 0.09920 0.49680 -0.20000
H 	H 	0.01130 0.12590 0.52600 0.09900
C 	C 	0.07500 0.07810 0.47160 0.20600
C 	C 	0.06810 0.04130 0.42610 -0.20900
H 	H 	0.11310 0.02880 0.40750 0.10400
C 	C 	0.99520 0.02240 0.40750 0.10400
C 	C 	0.92960 0.04290 0.43480 -0.15900
H 	H 	0.88050 0.03050 0.42290 0.07800
C 	C 	0.98880 0.98130 0.36100 0.00100
C 	C 	0.93390 0.93900 0.36230 -0.08100
H 	H 	0.89970 0.93720 0.39310 0.05100
C 	C 	0.92720 0.89870 0.32000 0.01700
H 	H 	0.88990 0.86970 0.32250 0.03200
C 	C 	0.97690 0.90210 0.27340 -0.10500
C 	C 	0.03090 0.94530 0.27140 0.02800
H 	H 	0.06330 0.94880 0.23970 0.03900
C 	C 	0.03800 0.98320 0.31460 -0.07600
H 	H 	0.07690 0.01100 0.31300 0.05700
C 	C 	0.96860 0.85840 0.22690 0.37500
C 	C 	0.15640 0.08590 0.49360 -0.08600
C 	C 	0.21650 0.04700 0.49150 0.13600
H 	H 	0.20750 0.01150 0.47470 0.39000
C 	C 	0.28950 0.05860 0.51320 0.19400
H 	H 	0.32860 0.03090 0.51220 -0.10500
C 	C 	0.30450 0.11110 0.53630 -0.20600
C 	C 	0.24710 0.15140 0.53330 -0.36200
H 	H 	0.25810 0.18820 0.54600 0.16000
C 	C 	0.17300 0.13990 0.51230 0.10800
H 	H 	0.13520 0.16860 0.51080 -0.18800
C 	C 	0.38530 0.12410 0.55940 -0.09700
O 	O 	0.66720 0.18910 0.63782 -0.47600
O 	O 	0.59460 0.16060 0.56577 -0.46200
O 	O 	0.93330 0.81360 0.23765 -0.46300
O 	O 	0.00010 0.87270 0.18013 -0.45400
O 	O 	0.43260 0.08590 0.56610 -0.12400
O 	O 	0.39800 0.17490 0.57200 -0.57800
C 	C 	0.14820 0.10520 0.49360 -0.22600
C 	C 	0.21220 0.07000 0.49300 0.40100
H 	H 	0.20750 0.03430 0.47590 -0.57200
C 	C 	0.28290 0.08470 0.51650 -0.43000
H 	H 	0.32610 0.06080 0.51200 0.17700
C 	C 	0.29000 0.13450 0.54630 0.42800
C 	C 	0.22490 0.16810 0.55010 -0.11900
H 	H 	0.22830 0.20230 0.57040 0.01300
C 	C 	0.15460 0.15400 0.52520 0.26700
H 	H 	0.11130 0.17770 0.52990 0.04900
C 	C 	0.36040 0.15170 0.57750 0.70400
O 	O 	0.42450 0.13100 0.56090 -0.15600
O 	O 	0.35660 0.18290 0.61940 -0.31400
Zn	Zn	0.99963 0.82867 0.11003 1.25200
C 	C 	0.84120 0.83330 0.09110 0.39400
C 	C 	0.77060 0.85530 0.06140 -0.11600
C 	C 	0.69960 0.85860 0.08960 0.03100
H 	H 	0.69600 0.84620 0.12710 0.03100
C 	C 	0.63520 0.87990 0.06320 -0.09500
H 	H 	0.58850 0.88260 0.08350 0.06300
C 	C 	0.63650 0.89740 0.00830 0.00700
C 	C 	0.70780 0.89510 0.98030 -0.09200
H 	H 	0.71100 0.90710 0.94260 0.05800
C 	C 	0.77460 0.87510 0.00750 0.02100
H 	H 	0.82240 0.87530 0.98850 0.04500
C 	C 	0.56580 0.91890 0.97890 0.09400
C 	C 	0.49260 0.90080 0.99680 -0.20000
H 	H 	0.48870 0.87410 0.02600 0.10000
C 	C 	0.42500 0.92190 0.97160 0.20800
C 	C 	0.43190 0.95870 0.92610 -0.20500
H 	H 	0.38690 0.97120 0.90750 0.10300
C 	C 	0.50480 0.97760 0.90750 0.09500
C 	C 	0.57040 0.95710 0.93480 -0.15600
H 	H 	0.61950 0.96950 0.92290 0.07600
C 	C 	0.51120 0.01870 0.86100 0.01400
C 	C 	0.56610 0.06100 0.86230 -0.08900
H 	H 	0.60030 0.06280 0.89310 0.05500
C 	C 	0.57280 0.10130 0.82000 0.02300
H 	H 	0.61010 0.13030 0.82250 0.03000
C 	C 	0.52310 0.09790 0.77340 -0.10600
C 	C 	0.46910 0.05470 0.77140 0.03200
H 	H 	0.43670 0.05120 0.73970 0.03600
C 	C 	0.46200 0.01680 0.81460 -0.09100
H 	H 	0.42310 0.98900 0.81300 0.06400
C 	C 	0.53140 0.14160 0.72690 0.38100
C 	C 	0.34360 0.91410 0.99360 -0.09200
C 	C 	0.28350 0.95300 0.99150 0.13500
H 	H 	0.29250 0.98850 0.97470 0.40200
C 	C 	0.21050 0.94140 0.01320 0.18500
H 	H 	0.17140 0.96910 0.01220 -0.10500
C 	C 	0.19550 0.88890 0.03630 -0.20100
C 	C 	0.25290 0.84860 0.03330 -0.36600
H 	H 	0.24190 0.81180 0.04600 0.16400
C 	C 	0.32700 0.86010 0.01230 0.11600
H 	H 	0.36480 0.83140 0.01080 -0.19500
C 	C 	0.11470 0.87590 0.05940 -0.09800
O 	O 	0.83280 0.81090 0.13782 -0.47600
O 	O 	0.90540 0.83940 0.06577 -0.46400
O 	O 	0.56670 0.18640 0.73765 -0.46400
O 	O 	0.49990 0.12730 0.68013 -0.46000
O 	O 	0.06740 0.91410 0.06610 -0.12300
O 	O 	0.10200 0.82510 0.07200 -0.57500
C 	C 	0.35180 0.89480 0.99360 -0.23400
C 	C 	0.28780 0.93000 0.99300 0.42000
H 	H 	0.29250 0.96570 0.97590 -0.58900
C 	C 	0.21710 0.91530 0.01650 -0.43500
H 	H 	0.17390 0.93920 0.01200 0.18400
C 	C 	0.21000 0.86550 0.04630 0.43200
C 	C 	0.27510 0.83190 0.05010 -0.12500
H 	H 	0.27170 0.79770 0.07040 0.01400
C 	C 	0.34540 0.84600 0.02520 0.27200
H 	H 	0.38870 0.82230 0.02990 0.05100
C 	C 	0.13960 0.84830 0.07750 0.69900
O 	O 	0.07550 0.86900 0.06090 -0.15500
O 	O 	0.14340 0.81710 0.11940 -0.31300
Zn	Zn	0.88824 0.75000 0.18756 1.21800
Zn	Zn	0.61176 0.25000 0.68756 1.21800
O 	O 	0.50700 0.25000 0.63990 -0.84000
H 	H 	0.47280 0.25000 0.66520 0.28900
O 	O 	0.99300 0.75000 0.13990 -0.84600
H 	H 	0.02720 0.75000 0.16520 0.29400
Zn	Zn	0.49963 0.82867 0.38997 1.25300
C 	C 	0.34120 0.83330 0.40890 0.39600
C 	C 	0.27060 0.85530 0.43860 -0.12200
C 	C 	0.19960 0.85860 0.41040 0.03800
H 	H 	0.19600 0.84620 0.37290 0.02900
C 	C 	0.13520 0.87990 0.43680 -0.10100
H 	H 	0.08850 0.88260 0.41650 0.06600
C 	C 	0.13650 0.89740 0.49170 0.01400
C 	C 	0.20780 0.89510 0.51970 -0.10200
H 	H 	0.21100 0.90710 0.55740 0.06200
C 	C 	0.27460 0.87510 0.49250 0.03400
H 	H 	0.32240 0.87530 0.51150 0.03900
C 	C 	0.06580 0.91890 0.52110 0.09400
C 	C 	0.99260 0.90080 0.50320 -0.20000
H 	H 	0.98870 0.87410 0.47400 0.09900
C 	C 	0.92500 0.92190 0.52840 0.20600
C 	C 	0.93190 0.95870 0.57390 -0.20900
H 	H 	0.88690 0.97120 0.59250 0.10400
C 	C 	0.00480 0.97760 0.59250 0.10400
C 	C 	0.07040 0.95710 0.56520 -0.15900
H 	H 	0.11950 0.96950 0.57710 0.07800
C 	C 	0.01120 0.01870 0.63900 0.00100
C 	C 	0.06610 0.06100 0.63770 -0.08100
H 	H 	0.10030 0.06280 0.60690 0.05100
C 	C 	0.07280 0.10130 0.68000 0.01700
H 	H 	0.11010 0.13030 0.67750 0.03200
C 	C 	0.02310 0.09790 0.72660 -0.10500
C 	C 	0.96910 0.05470 0.72860 0.02800
H 	H 	0.93670 0.05120 0.76030 0.03900
C 	C 	0.96200 0.01680 0.68540 -0.07600
H 	H 	0.92310 0.98900 0.68700 0.05700
C 	C 	0.03140 0.14160 0.77310 0.37500
C 	C 	0.84360 0.91410 0.50640 -0.08600
C 	C 	0.78350 0.95300 0.50850 0.13600
H 	H 	0.79250 0.98850 0.52530 0.39000
C 	C 	0.71050 0.94140 0.48680 0.19400
H 	H 	0.67140 0.96910 0.48780 -0.10500
C 	C 	0.69550 0.88890 0.46370 -0.20600
C 	C 	0.75290 0.84860 0.46670 -0.36200
H 	H 	0.74190 0.81180 0.45400 0.16000
C 	C 	0.82700 0.86010 0.48770 0.10800
H 	H 	0.86480 0.83140 0.48920 -0.18800
C 	C 	0.61470 0.87590 0.44060 -0.09700
O 	O 	0.33280 0.81090 0.36218 -0.47600
O 	O 	0.40540 0.83940 0.43423 -0.46200
O 	O 	0.06670 0.18640 0.76235 -0.46300
O 	O 	0.99990 0.12730 0.81987 -0.45400
O 	O 	0.56740 0.91410 0.43390 -0.12400
O 	O 	0.60200 0.82510 0.42800 -0.57800
C 	C 	0.85180 0.89480 0.50640 -0.22600
C 	C 	0.78780 0.93000 0.50700 0.40100
H 	H 	0.79250 0.96570 0.52410 -0.57200
C 	C 	0.71710 0.91530 0.48350 -0.43000
H 	H 	0.67390 0.93920 0.48800 0.17700
C 	C 	0.71000 0.86550 0.45370 0.42800
C 	C 	0.77510 0.83190 0.44990 -0.11900
H 	H 	0.77170 0.79770 0.42960 0.01300
C 	C 	0.84540 0.84600 0.47480 0.26700
H 	H 	0.88870 0.82230 0.47010 0.04900
C 	C 	0.63960 0.84830 0.42250 0.70400
O 	O 	0.57550 0.86900 0.43910 -0.15600
O 	O 	0.64340 0.81710 0.38060 -0.31400
Zn	Zn	0.00037 0.17133 0.88997 1.25200
C 	C 	0.15880 0.16670 0.90890 0.39400
C 	C 	0.22940 0.14470 0.93860 -0.11600
C 	C 	0.30040 0.14140 0.91040 0.03100
H 	H 	0.30400 0.15380 0.87290 0.03100
C 	C 	0.36480 0.12010 0.93680 -0.09500
H 	H 	0.41150 0.11740 0.91650 0.06300
C 	C 	0.36350 0.10260 0.99170 0.00700
C 	C 	0.29220 0.10490 0.01970 -0.09200
H 	H 	0.28900 0.09290 0.05740 0.05800
C 	C 	0.22540 0.12490 0.99250 0.02100
H 	H 	0.17760 0.12470 0.01150 0.04500
C 	C 	0.43420 0.08110 0.02110 0.09400
C 	C 	0.50740 0.09920 0.00320 -0.20000
H 	H 	0.51130 0.12590 0.97400 0.10000
C 	C 	0.57500 0.07810 0.02840 0.20800
C 	C 	0.56810 0.04130 0.07390 -0.20500
H 	H 	0.61310 0.02880 0.09250 0.10300
C 	C 	0.49520 0.02240 0.09250 0.09500
C 	C 	0.42960 0.04290 0.06520 -0.15600
H 	H 	0.38050 0.03050 0.07710 0.07600
C 	C 	0.48880 0.98130 0.13900 0.01400
C 	C 	0.43390 0.93900 0.13770 -0.08900
H 	H 	0.39970 0.93720 0.10690 0.05500
C 	C 	0.42720 0.89870 0.18000 0.02300
H 	H 	0.38990 0.86970 0.17750 0.03000
C 	C 	0.47690 0.90210 0.22660 -0.10600
C 	C 	0.53090 0.94530 0.22860 0.03200
H 	H 	0.56330 0.94880 0.26030 0.03600
C 	C 	0.53800 0.98320 0.18540 -0.09100
H 	H 	0.57690 0.01100 0.18700 0.06400
C 	C 	0.46860 0.85840 0.27310 0.38100
C 	C 	0.65640 0.08590 0.00640 -0.09200
C 	C 	0.71650 0.04700 0.00850 0.13500
H 	H 	0.70750 0.01150 0.02530 0.40200
C 	C 	0.78950 0.05860 0.98680 0.18500
H 	H 	0.82860 0.03090 0.98780 -0.10500
C 	C 	0.80450 0.11110 0.96370 -0.20100
C 	C 	0.74710 0.15140 0.96670 -0.36600
H 	H 	0.75810 0.18820 0.95400 0.16400
C 	C 	0.67300 0.13990 0.98770 0.11600
H 	H 	0.63520 0.16860 0.98920 -0.19500
C 	C 	0.88530 0.12410 0.94060 -0.09800
O 	O 	0.16720 0.18910 0.86218 -0.47600
O 	O 	0.09460 0.16060 0.93423 -0.46400
O 	O 	0.43330 0.81360 0.26235 -0.46400
O 	O 	0.50010 0.87270 0.31987 -0.46000
O 	O 	0.93260 0.08590 0.93390 -0.12300
O 	O 	0.89800 0.17490 0.92800 -0.57500
C 	C 	0.64820 0.10520 0.00640 -0.23400
C 	C 	0.71220 0.07000 0.00700 0.42000
H 	H 	0.70750 0.03430 0.02410 -0.58900
C 	C 	0.78290 0.08470 0.98350 -0.43500
H 	H 	0.82610 0.06080 0.98800 0.18400
C 	C 	0.79000 0.13450 0.95370 0.43200
C 	C 	0.72490 0.16810 0.94990 -0.12500
H 	H 	0.72830 0.20230 0.92960 0.01400
C 	C 	0.65460 0.15400 0.97480 0.27200
H 	H 	0.61130 0.17770 0.97010 0.05100
C 	C 	0.86040 0.15170 0.92250 0.69900
O 	O 	0.92450 0.13100 0.93910 -0.15500
O 	O 	0.85660 0.18290 0.88060 -0.31300
Zn	Zn	0.49963 0.67133 0.38997 1.25300
C 	C 	0.34120 0.66670 0.40890 0.39600
C 	C 	0.27060 0.64470 0.43860 -0.12300
C 	C 	0.19960 0.64140 0.41040 0.03900
H 	H 	0.19600 0.65380 0.37290 0.02900
C 	C 	0.13520 0.62010 0.43680 -0.10300
H 	H 	0.08850 0.61740 0.41650 0.06600
C 	C 	0.13650 0.60260 0.49170 0.01600
C 	C 	0.20780 0.60490 0.51970 -0.10400
H 	H 	0.21100 0.59290 0.55740 0.06200
C 	C 	0.27460 0.62490 0.49250 0.03600
H 	H 	0.32240 0.62470 0.51150 0.03800
C 	C 	0.06580 0.58110 0.52110 0.08800
C 	C 	0.99260 0.59920 0.50320 -0.19400
H 	H 	0.98870 0.62590 0.47400 0.09800
C 	C 	0.92500 0.57810 0.52840 0.20300
C 	C 	0.93190 0.54130 0.57390 -0.20000
H 	H 	0.88690 0.52880 0.59250 0.10200
C 	C 	0.00480 0.52240 0.59250 0.09200
C 	C 	0.07040 0.54290 0.56520 -0.15200
H 	H 	0.11950 0.53050 0.57710 0.07500
C 	C 	0.01120 0.48130 0.63900 0.01400
C 	C 	0.06610 0.43900 0.63770 -0.09000
H 	H 	0.10030 0.43720 0.60690 0.05500
C 	C 	0.07280 0.39870 0.68000 0.02300
H 	H 	0.11010 0.36970 0.67750 0.03000
C 	C 	0.02310 0.40210 0.72660 -0.10800
C 	C 	0.96910 0.44530 0.72860 0.03500
H 	H 	0.93670 0.44880 0.76030 0.03600
C 	C 	0.96200 0.48320 0.68540 -0.09100
H 	H 	0.92310 0.51100 0.68700 0.06400
C 	C 	0.03140 0.35840 0.77310 0.37800
C 	C 	0.84360 0.58590 0.50640 -0.08700
C 	C 	0.78350 0.54700 0.50850 0.13500
H 	H 	0.79250 0.51150 0.52530 0.39500
C 	C 	0.71050 0.55860 0.48680 0.19100
H 	H 	0.67140 0.53090 0.48780 -0.10600
C 	C 	0.69550 0.61110 0.46370 -0.20600
C 	C 	0.75290 0.65140 0.46670 -0.36200
H 	H 	0.74190 0.68820 0.45400 0.16100
C 	C 	0.82700 0.63990 0.48770 0.11100
H 	H 	0.86480 0.66860 0.48920 -0.18900
C 	C 	0.61470 0.62410 0.44060 -0.09800
O 	O 	0.33280 0.68910 0.36218 -0.47600
O 	O 	0.40540 0.66060 0.43423 -0.46300
O 	O 	0.06670 0.31360 0.76235 -0.46400
O 	O 	0.99990 0.37270 0.81987 -0.45600
O 	O 	0.56740 0.58590 0.43390 -0.12400
O 	O 	0.60200 0.67490 0.42800 -0.57800
C 	C 	0.85180 0.60520 0.50640 -0.22800
C 	C 	0.78780 0.57000 0.50700 0.40800
H 	H 	0.79250 0.53430 0.52410 -0.57800
C 	C 	0.71710 0.58470 0.48350 -0.43200
H 	H 	0.67390 0.56080 0.48800 0.17900
C 	C 	0.71000 0.63450 0.45370 0.43100
C 	C 	0.77510 0.66810 0.44990 -0.12300
H 	H 	0.77170 0.70230 0.42960 0.01400
C 	C 	0.84540 0.65400 0.47480 0.26700
H 	H 	0.88870 0.67770 0.47010 0.05000
C 	C 	0.63960 0.65170 0.42250 0.70400
O 	O 	0.57550 0.63100 0.43910 -0.15600
O 	O 	0.64340 0.68290 0.38060 -0.31400
Zn	Zn	0.00037 0.32867 0.88997 1.25200
C 	C 	0.15880 0.33330 0.90890 0.39300
C 	C 	0.22940 0.35530 0.93860 -0.11500
C 	C 	0.30040 0.35860 0.91040 0.03000
H 	H 	0.30400 0.34620 0.87290 0.03100
C 	C 	0.36480 0.37990 0.93680 -0.09400
H 	H 	0.41150 0.38260 0.91650 0.06300
C 	C 	0.36350 0.39740 0.99170 0.00500
C 	C 	0.29220 0.39510 0.01970 -0.09000
H 	H 	0.28900 0.40710 0.05740 0.05800
C 	C 	0.22540 0.37510 0.99250 0.01900
H 	H 	0.17760 0.37530 0.01150 0.04600
C 	C 	0.43420 0.41890 0.02110 0.09500
C 	C 	0.50740 0.40080 0.00320 -0.20100
H 	H 	0.51130 0.37410 0.97400 0.10000
C 	C 	0.57500 0.42190 0.02840 0.20900
C 	C 	0.56810 0.45870 0.07390 -0.20500
H 	H 	0.61310 0.47120 0.09250 0.10300
C 	C 	0.49520 0.47760 0.09250 0.09600
C 	C 	0.42960 0.45710 0.06520 -0.15700
H 	H 	0.38050 0.46950 0.07710 0.07700
C 	C 	0.48880 0.51870 0.13900 0.01300
C 	C 	0.43390 0.56100 0.13770 -0.08800
H 	H 	0.39970 0.56280 0.10690 0.05400
C 	C 	0.42720 0.60130 0.18000 0.02200
H 	H 	0.38990 0.63030 0.17750 0.03000
C 	C 	0.47690 0.59790 0.22660 -0.10600
C 	C 	0.53090 0.55470 0.22860 0.03100
H 	H 	0.56330 0.55120 0.26030 0.03600
C 	C 	0.53800 0.51680 0.18540 -0.09100
H 	H 	0.57690 0.48900 0.18700 0.06300
C 	C 	0.46860 0.64160 0.27310 0.38100
C 	C 	0.65640 0.41410 0.00640 -0.09200
C 	C 	0.71650 0.45300 0.00850 0.13500
H 	H 	0.70750 0.48850 0.02530 0.40100
C 	C 	0.78950 0.44140 0.98680 0.18500
H 	H 	0.82860 0.46910 0.98780 -0.10500
C 	C 	0.80450 0.38890 0.96370 -0.20200
C 	C 	0.74710 0.34860 0.96670 -0.36600
H 	H 	0.75810 0.31180 0.95400 0.16400
C 	C 	0.67300 0.36010 0.98770 0.11600
H 	H 	0.63520 0.33140 0.98920 -0.19500
C 	C 	0.88530 0.37590 0.94060 -0.09800
O 	O 	0.16720 0.31090 0.86218 -0.47500
O 	O 	0.09460 0.33940 0.93423 -0.46400
O 	O 	0.43330 0.68640 0.26235 -0.46400
O 	O 	0.50010 0.62730 0.31987 -0.46000
O 	O 	0.93260 0.41410 0.93390 -0.12300
O 	O 	0.89800 0.32510 0.92800 -0.57600
C 	C 	0.64820 0.39480 0.00640 -0.23400
C 	C 	0.71220 0.43000 0.00700 0.41900
H 	H 	0.70750 0.46570 0.02410 -0.58800
C 	C 	0.78290 0.41530 0.98350 -0.43600
H 	H 	0.82610 0.43920 0.98800 0.18400
C 	C 	0.79000 0.36550 0.95370 0.43200
C 	C 	0.72490 0.33190 0.94990 -0.12500
H 	H 	0.72830 0.29770 0.92960 0.01400
C 	C 	0.65460 0.34600 0.97480 0.27200
H 	H 	0.61130 0.32230 0.97010 0.05100
C 	C 	0.86040 0.34830 0.92250 0.70000
O 	O 	0.92450 0.36900 0.93910 -0.15500
O 	O 	0.85660 0.31710 0.88060 -0.31300
Zn	Zn	0.11176 0.25000 0.81244 1.21800
Zn	Zn	0.38824 0.75000 0.31244 1.21800
O 	O 	0.49300 0.75000 0.36010 -0.84000
H 	H 	0.52720 0.75000 0.33480 0.28900
O 	O 	0.00700 0.25000 0.86010 -0.84600
H 	H 	0.97280 0.25000 0.83480 0.29400
