data_crystal

_cell_length_a 26.87000
_cell_length_b 12.31600
_cell_length_c 21.46800
_cell_angle_alpha 90.00000
_cell_angle_beta  90.00000
_cell_angle_gamma 90.00000

_symmetry_space_group_name_	'P 1'
_symmetry_space_group_name_H-M	'P 1'

loop_
_symmetry_equiv_pos_as_xyz
  x,y,z

loop_
_atom_site_label
_atom_site_type_symbol
_atom_site_fract_x
_atom_site_fract_y
_atom_site_fract_z
_atom_site_charge
Ag	Ag	0.77426 0.90506 0.24578 0.56200
S 	S 	0.55127 0.26610 0.31858 0.04100
S 	S 	0.55258 0.28850 0.18219 -0.06000
S 	S 	0.56247 0.55140 0.19672 -0.02100
S 	S 	0.56417 0.52810 0.33315 0.10300
S 	S 	0.58253 0.05390 0.16245 -0.16500
S 	S 	0.58168 0.02790 0.31248 -0.10800
S 	S 	0.59267 0.78800 0.20267 -0.03000
S 	S 	0.59283 0.76000 0.35476 0.05200
F 	F 	0.49450 0.36240 0.45000 -0.47200
O 	O 	0.52040 0.13170 0.44360 -0.26700
N 	N 	0.71700 0.01280 0.19210 -0.22000
N 	N 	0.69030 0.26670 0.30360 -0.21300
N 	N 	0.69640 0.54840 0.20410 -0.21900
N 	N 	0.72550 0.79410 0.30760 -0.20200
C 	C 	0.55720 0.35410 0.25460 0.00200
C 	C 	0.57190 0.16320 0.21280 0.00600
C 	C 	0.57200 0.15340 0.27530 -0.02600
C 	C 	0.56230 0.46310 0.26050 -0.02400
C 	C 	0.58310 0.66390 0.24060 0.00500
C 	C 	0.58350 0.65300 0.30250 -0.03200
C 	C 	0.62070 0.11290 0.10120 0.01400
C 	C 	0.67030 0.15610 0.12560 -0.29100
C 	C 	0.69690 0.07590 0.16310 0.14700
C 	C 	0.62240 0.06110 0.37710 -0.06000
C 	C 	0.67600 0.08140 0.35840 -0.23900
C 	C 	0.68350 0.18590 0.32660 0.14500
C 	C 	0.62670 0.75060 0.13320 -0.03700
C 	C 	0.68100 0.72610 0.14230 -0.26100
C 	C 	0.68980 0.62510 0.17760 0.14300
C 	C 	0.63560 0.70120 0.41030 -0.11700
C 	C 	0.68310 0.65670 0.38130 -0.21000
C 	C 	0.70730 0.73510 0.34050 0.13000
H 	H 	0.62720 0.05870 0.07070 -0.00700
H 	H 	0.60280 0.17100 0.08260 -0.00200
H 	H 	0.69050 0.17590 0.09110 0.10200
H 	H 	0.66400 0.21840 0.15050 0.11300
H 	H 	0.61010 0.12470 0.39680 0.07500
H 	H 	0.62180 0.00240 0.40580 0.04300
H 	H 	0.69600 0.08030 0.39490 0.09300
H 	H 	0.68620 0.02480 0.33120 0.09300
H 	H 	0.61140 0.68770 0.11610 0.03300
H 	H 	0.62410 0.80890 0.10440 0.02800
H 	H 	0.69630 0.71940 0.10260 0.09900
H 	H 	0.69580 0.78480 0.16430 0.10600
H 	H 	0.64450 0.75560 0.43960 0.08000
H 	H 	0.61910 0.64350 0.43110 0.10700
H 	H 	0.70560 0.63770 0.41380 0.08500
H 	H 	0.67510 0.59370 0.35780 0.09100
Ag	Ag	0.22574 0.09494 0.24578 0.53200
S 	S 	0.44873 0.73390 0.31858 0.04700
S 	S 	0.44742 0.71150 0.18219 -0.05400
S 	S 	0.43753 0.44860 0.19672 -0.02200
S 	S 	0.43583 0.47190 0.33315 0.10400
S 	S 	0.41747 0.94610 0.16245 -0.12000
S 	S 	0.41832 0.97210 0.31248 -0.06100
S 	S 	0.40733 0.21200 0.20267 -0.06400
S 	S 	0.40717 0.24000 0.35476 0.02500
F 	F 	0.50550 0.63760 0.45000 -0.47200
O 	O 	0.47960 0.86830 0.44360 -0.25200
N 	N 	0.28300 0.98720 0.19210 -0.19900
N 	N 	0.30970 0.73330 0.30360 -0.21300
N 	N 	0.30360 0.45160 0.20410 -0.21800
N 	N 	0.27450 0.20590 0.30760 -0.21200
C 	C 	0.44280 0.64590 0.25460 0.00100
C 	C 	0.42810 0.83680 0.21280 0.00400
C 	C 	0.42800 0.84660 0.27530 -0.02900
C 	C 	0.43770 0.53690 0.26050 -0.02400
C 	C 	0.41690 0.33610 0.24060 0.00900
C 	C 	0.41650 0.34700 0.30250 -0.02900
C 	C 	0.37930 0.88710 0.10120 -0.00900
C 	C 	0.32970 0.84390 0.12560 -0.27400
C 	C 	0.30310 0.92410 0.16310 0.15000
C 	C 	0.37760 0.93890 0.37710 -0.07500
C 	C 	0.32400 0.91860 0.35840 -0.24200
C 	C 	0.31650 0.81410 0.32660 0.14800
C 	C 	0.37330 0.24940 0.13320 -0.02600
C 	C 	0.31900 0.27390 0.14230 -0.26100
C 	C 	0.31020 0.37490 0.17760 0.14100
C 	C 	0.36440 0.29880 0.41030 -0.10400
C 	C 	0.31690 0.34330 0.38130 -0.21800
C 	C 	0.29270 0.26490 0.34050 0.12400
H 	H 	0.37280 0.94130 0.07070 0.01300
H 	H 	0.39720 0.82900 0.08260 0.00800
H 	H 	0.30950 0.82410 0.09110 0.09900
H 	H 	0.33600 0.78160 0.15050 0.10800
H 	H 	0.38990 0.87530 0.39680 0.08100
H 	H 	0.37820 0.99760 0.40580 0.06500
H 	H 	0.30400 0.91970 0.39490 0.10200
H 	H 	0.31380 0.97520 0.33120 0.10800
H 	H 	0.38860 0.31230 0.11610 0.02800
H 	H 	0.37590 0.19110 0.10440 0.01000
H 	H 	0.30370 0.28060 0.10260 0.09200
H 	H 	0.30420 0.21520 0.16430 0.09400
H 	H 	0.35550 0.24440 0.43960 0.06600
H 	H 	0.38090 0.35650 0.43110 0.10300
H 	H 	0.29440 0.36230 0.41380 0.08600
H 	H 	0.32490 0.40630 0.35780 0.09400
Ag	Ag	0.72574 0.40506 0.25422 0.54800
S 	S 	0.94873 0.76610 0.18142 0.06500
S 	S 	0.94742 0.78850 0.31781 -0.02900
S 	S 	0.93753 0.05140 0.30328 -0.04900
S 	S 	0.93583 0.02810 0.16685 0.06800
S 	S 	0.91747 0.55390 0.33755 -0.13200
S 	S 	0.91832 0.52790 0.18752 -0.07800
S 	S 	0.90733 0.28800 0.29733 -0.03800
S 	S 	0.90717 0.26000 0.14524 0.04400
F 	F 	0.00550 0.86240 0.05000 -0.49400
O 	O 	0.97960 0.63170 0.05640 -0.22000
N 	N 	0.78300 0.51280 0.30790 -0.21000
N 	N 	0.80970 0.76670 0.19640 -0.21000
N 	N 	0.80360 0.04840 0.29590 -0.22700
N 	N 	0.77450 0.29410 0.19240 -0.20600
C 	C 	0.94280 0.85410 0.24540 -0.01200
C 	C 	0.92810 0.66320 0.28720 0.00300
C 	C 	0.92800 0.65340 0.22470 -0.02800
C 	C 	0.93770 0.96310 0.23950 0.03200
C 	C 	0.91690 0.16390 0.25940 0.01000
C 	C 	0.91650 0.15300 0.19750 -0.02600
C 	C 	0.87930 0.61290 0.39880 -0.00500
C 	C 	0.82970 0.65610 0.37440 -0.28200
C 	C 	0.80310 0.57590 0.33690 0.14900
C 	C 	0.87760 0.56110 0.12290 -0.07000
C 	C 	0.82400 0.58140 0.14160 -0.23700
C 	C 	0.81650 0.68590 0.17340 0.14600
C 	C 	0.87330 0.25060 0.36680 -0.03700
C 	C 	0.81900 0.22610 0.35770 -0.25900
C 	C 	0.81020 0.12510 0.32240 0.14000
C 	C 	0.86440 0.20120 0.08970 -0.11400
C 	C 	0.81690 0.15670 0.11870 -0.20600
C 	C 	0.79270 0.23510 0.15950 0.12200
H 	H 	0.87280 0.55870 0.42930 0.01000
H 	H 	0.89720 0.67100 0.41740 0.01300
H 	H 	0.80950 0.67590 0.40890 0.10600
H 	H 	0.83600 0.71840 0.34950 0.11400
H 	H 	0.88990 0.62470 0.10320 0.07800
H 	H 	0.87820 0.50240 0.09420 0.05300
H 	H 	0.80400 0.58030 0.10510 0.09500
H 	H 	0.81380 0.52480 0.16880 0.09800
H 	H 	0.88860 0.18770 0.38390 0.03500
H 	H 	0.87590 0.30890 0.39560 0.02400
H 	H 	0.80370 0.21940 0.39740 0.09600
H 	H 	0.80420 0.28480 0.33570 0.10000
H 	H 	0.85550 0.25560 0.06040 0.07000
H 	H 	0.88090 0.14350 0.06890 0.10100
H 	H 	0.79440 0.13770 0.08620 0.07700
H 	H 	0.82490 0.09370 0.14220 0.08400
Ag	Ag	0.27426 0.59494 0.25422 0.54800
S 	S 	0.05127 0.23390 0.18142 0.02100
S 	S 	0.05258 0.21150 0.31781 -0.08000
S 	S 	0.06247 0.94860 0.30328 0.01500
S 	S 	0.06417 0.97190 0.16685 0.14100
S 	S 	0.08253 0.44610 0.33755 -0.15000
S 	S 	0.08168 0.47210 0.18752 -0.09400
S 	S 	0.09267 0.71200 0.29733 -0.05200
S 	S 	0.09283 0.74000 0.14524 0.03100
F 	F 	0.99450 0.13760 0.05000 -0.44800
O 	O 	0.02040 0.36830 0.05640 -0.29600
N 	N 	0.21700 0.48720 0.30790 -0.20900
N 	N 	0.19030 0.23330 0.19640 -0.21700
N 	N 	0.19640 0.95160 0.29590 -0.20900
N 	N 	0.22550 0.70590 0.19240 -0.20800
C 	C 	0.05720 0.14590 0.24540 0.01500
C 	C 	0.07190 0.33680 0.28720 0.00600
C 	C 	0.07200 0.34660 0.22470 -0.02600
C 	C 	0.06230 0.03690 0.23950 -0.08400
C 	C 	0.08310 0.83610 0.25940 0.00300
C 	C 	0.08350 0.84700 0.19750 -0.03400
C 	C 	0.12070 0.38710 0.39880 0.00400
C 	C 	0.17030 0.34390 0.37440 -0.28200
C 	C 	0.19690 0.42410 0.33690 0.14900
C 	C 	0.12240 0.43890 0.12290 -0.06200
C 	C 	0.17600 0.41860 0.14160 -0.24200
C 	C 	0.18350 0.31410 0.17340 0.14400
C 	C 	0.12670 0.74940 0.36680 -0.02900
C 	C 	0.18100 0.77390 0.35770 -0.26400
C 	C 	0.18980 0.87490 0.32240 0.14700
C 	C 	0.13560 0.79880 0.08970 -0.10000
C 	C 	0.18310 0.84330 0.11870 -0.22400
C 	C 	0.20730 0.76490 0.15950 0.13100
H 	H 	0.12720 0.44130 0.42930 0.00400
H 	H 	0.10280 0.32900 0.41740 0.00200
H 	H 	0.19050 0.32410 0.40890 0.10000
H 	H 	0.16400 0.28160 0.34950 0.10800
H 	H 	0.11010 0.37530 0.10320 0.07400
H 	H 	0.12180 0.49760 0.09420 0.04900
H 	H 	0.19600 0.41970 0.10510 0.09400
H 	H 	0.18620 0.47520 0.16880 0.10000
H 	H 	0.11140 0.81230 0.38390 0.03200
H 	H 	0.12410 0.69110 0.39560 0.02000
H 	H 	0.19630 0.78060 0.39740 0.10100
H 	H 	0.19580 0.71520 0.33570 0.10200
H 	H 	0.14450 0.74440 0.06040 0.06600
H 	H 	0.11910 0.85650 0.06890 0.10000
H 	H 	0.20560 0.86230 0.08620 0.08900
H 	H 	0.17510 0.90630 0.14220 0.10000
Ag	Ag	0.22574 0.09494 0.75422 0.53200
S 	S 	0.44873 0.73390 0.68142 0.04700
S 	S 	0.44742 0.71150 0.81781 -0.04800
S 	S 	0.43753 0.44860 0.80328 -0.01700
S 	S 	0.43583 0.47190 0.66685 0.10400
S 	S 	0.41747 0.94610 0.83755 -0.11500
S 	S 	0.41832 0.97210 0.68752 -0.06100
S 	S 	0.40733 0.21200 0.79733 -0.06100
S 	S 	0.40717 0.24000 0.64524 0.02500
F 	F 	0.50550 0.63760 0.55000 -0.47200
O 	O 	0.47960 0.86830 0.55640 -0.25200
N 	N 	0.28300 0.98720 0.80790 -0.19800
N 	N 	0.30970 0.73330 0.69640 -0.21300
N 	N 	0.30360 0.45160 0.79590 -0.21800
N 	N 	0.27450 0.20590 0.69240 -0.21200
C 	C 	0.44280 0.64590 0.74540 -0.00000
C 	C 	0.42810 0.83680 0.78720 0.00200
C 	C 	0.42800 0.84660 0.72470 -0.02800
C 	C 	0.43770 0.53690 0.73950 -0.02400
C 	C 	0.41690 0.33610 0.75940 0.00800
C 	C 	0.41650 0.34700 0.69750 -0.02900
C 	C 	0.37930 0.88710 0.89880 -0.01600
C 	C 	0.32970 0.84390 0.87440 -0.27300
C 	C 	0.30310 0.92410 0.83690 0.15100
C 	C 	0.37760 0.93890 0.62290 -0.07400
C 	C 	0.32400 0.91860 0.64160 -0.24200
C 	C 	0.31650 0.81410 0.67340 0.14800
C 	C 	0.37330 0.24940 0.86680 -0.02900
C 	C 	0.31900 0.27390 0.85770 -0.26200
C 	C 	0.31020 0.37490 0.82240 0.14400
C 	C 	0.36440 0.29880 0.58970 -0.10400
C 	C 	0.31690 0.34330 0.61870 -0.21800
C 	C 	0.29270 0.26490 0.65950 0.12400
H 	H 	0.37280 0.94130 0.92930 0.02300
H 	H 	0.39720 0.82900 0.91740 0.01700
H 	H 	0.30950 0.82410 0.90890 0.10500
H 	H 	0.33600 0.78160 0.84950 0.10900
H 	H 	0.38990 0.87530 0.60320 0.08100
H 	H 	0.37820 0.99760 0.59420 0.06500
H 	H 	0.30400 0.91970 0.60510 0.10200
H 	H 	0.31380 0.97520 0.66880 0.10800
H 	H 	0.38860 0.31230 0.88390 0.03400
H 	H 	0.37590 0.19110 0.89560 0.01600
H 	H 	0.30370 0.28060 0.89740 0.09800
H 	H 	0.30420 0.21520 0.83570 0.09600
H 	H 	0.35550 0.24440 0.56040 0.06600
H 	H 	0.38090 0.35650 0.56890 0.10300
H 	H 	0.29440 0.36230 0.58620 0.08600
H 	H 	0.32490 0.40630 0.64220 0.09400
Ag	Ag	0.77426 0.90506 0.75422 0.56400
S 	S 	0.55127 0.26610 0.68142 0.04200
S 	S 	0.55258 0.28850 0.81781 -0.05300
S 	S 	0.56247 0.55140 0.80328 -0.01500
S 	S 	0.56417 0.52810 0.66685 0.10400
S 	S 	0.58253 0.05390 0.83755 -0.15900
S 	S 	0.58168 0.02790 0.68752 -0.10800
S 	S 	0.59267 0.78800 0.79733 -0.02700
S 	S 	0.59283 0.76000 0.64524 0.05300
F 	F 	0.49450 0.36240 0.55000 -0.47200
O 	O 	0.52040 0.13170 0.55640 -0.26700
N 	N 	0.71700 0.01280 0.80790 -0.22000
N 	N 	0.69030 0.26670 0.69640 -0.21300
N 	N 	0.69640 0.54840 0.79590 -0.21800
N 	N 	0.72550 0.79410 0.69240 -0.20200
C 	C 	0.55720 0.35410 0.74540 0.00200
C 	C 	0.57190 0.16320 0.78720 0.00400
C 	C 	0.57200 0.15340 0.72470 -0.02600
C 	C 	0.56230 0.46310 0.73950 -0.02500
C 	C 	0.58310 0.66390 0.75940 0.00400
C 	C 	0.58350 0.65300 0.69750 -0.03100
C 	C 	0.62070 0.11290 0.89880 0.00700
C 	C 	0.67030 0.15610 0.87440 -0.28900
C 	C 	0.69690 0.07590 0.83690 0.14900
C 	C 	0.62240 0.06110 0.62290 -0.06000
C 	C 	0.67600 0.08140 0.64160 -0.23900
C 	C 	0.68350 0.18590 0.67340 0.14500
C 	C 	0.62670 0.75060 0.86680 -0.04000
C 	C 	0.68100 0.72610 0.85770 -0.26300
C 	C 	0.68980 0.62510 0.82240 0.14600
C 	C 	0.63560 0.70120 0.58970 -0.11700
C 	C 	0.68310 0.65670 0.61870 -0.21000
C 	C 	0.70730 0.73510 0.65950 0.13000
H 	H 	0.62720 0.05870 0.92930 0.00300
H 	H 	0.60280 0.17100 0.91740 0.00700
H 	H 	0.69050 0.17590 0.90890 0.10700
H 	H 	0.66400 0.21840 0.84950 0.11400
H 	H 	0.61010 0.12470 0.60320 0.07500
H 	H 	0.62180 0.00240 0.59420 0.04300
H 	H 	0.69600 0.08030 0.60510 0.09300
H 	H 	0.68620 0.02480 0.66880 0.09300
H 	H 	0.61140 0.68770 0.88390 0.03900
H 	H 	0.62410 0.80890 0.89560 0.03400
H 	H 	0.69630 0.71940 0.89740 0.10500
H 	H 	0.69580 0.78480 0.83570 0.10700
H 	H 	0.64450 0.75560 0.56040 0.08000
H 	H 	0.61910 0.64350 0.56890 0.10700
H 	H 	0.70560 0.63770 0.58620 0.08500
H 	H 	0.67510 0.59370 0.64220 0.09100
Ag	Ag	0.27426 0.59494 0.74578 0.54900
S 	S 	0.05127 0.23390 0.81858 0.02400
S 	S 	0.05258 0.21150 0.68219 -0.08000
S 	S 	0.06247 0.94860 0.69672 0.01500
S 	S 	0.06417 0.97190 0.83315 0.14500
S 	S 	0.08253 0.44610 0.66245 -0.15000
S 	S 	0.08168 0.47210 0.81248 -0.09200
S 	S 	0.09267 0.71200 0.70267 -0.05300
S 	S 	0.09283 0.74000 0.85476 0.03700
F 	F 	0.99450 0.13760 0.95000 -0.43500
O 	O 	0.02040 0.36830 0.94360 -0.28200
N 	N 	0.21700 0.48720 0.69210 -0.20900
N 	N 	0.19030 0.23330 0.80360 -0.21600
N 	N 	0.19640 0.95160 0.70410 -0.20900
N 	N 	0.22550 0.70590 0.80760 -0.20800
C 	C 	0.05720 0.14590 0.75460 0.01500
C 	C 	0.07190 0.33680 0.71280 0.00600
C 	C 	0.07200 0.34660 0.77530 -0.02700
C 	C 	0.06230 0.03690 0.76050 -0.08500
C 	C 	0.08310 0.83610 0.74060 0.00300
C 	C 	0.08350 0.84700 0.80250 -0.03600
C 	C 	0.12070 0.38710 0.60120 0.00400
C 	C 	0.17030 0.34390 0.62560 -0.28200
C 	C 	0.19690 0.42410 0.66310 0.14900
C 	C 	0.12240 0.43890 0.87710 -0.06500
C 	C 	0.17600 0.41860 0.85840 -0.24200
C 	C 	0.18350 0.31410 0.82660 0.14700
C 	C 	0.12670 0.74940 0.63320 -0.02900
C 	C 	0.18100 0.77390 0.64230 -0.26400
C 	C 	0.18980 0.87490 0.67760 0.14700
C 	C 	0.13560 0.79880 0.91030 -0.10900
C 	C 	0.18310 0.84330 0.88130 -0.22200
C 	C 	0.20730 0.76490 0.84050 0.13300
H 	H 	0.12720 0.44130 0.57070 0.00400
H 	H 	0.10280 0.32900 0.58260 0.00200
H 	H 	0.19050 0.32410 0.59110 0.10000
H 	H 	0.16400 0.28160 0.65050 0.10800
H 	H 	0.11010 0.37530 0.89680 0.07900
H 	H 	0.12180 0.49760 0.90580 0.05500
H 	H 	0.19600 0.41970 0.89490 0.09900
H 	H 	0.18620 0.47520 0.83120 0.10100
H 	H 	0.11140 0.81230 0.61610 0.03200
H 	H 	0.12410 0.69110 0.60440 0.01900
H 	H 	0.19630 0.78060 0.60260 0.10100
H 	H 	0.19580 0.71520 0.66430 0.10200
H 	H 	0.14450 0.74440 0.93960 0.07700
H 	H 	0.11910 0.85650 0.93110 0.11000
H 	H 	0.20560 0.86230 0.91380 0.09400
H 	H 	0.17510 0.90630 0.85780 0.10000
Ag	Ag	0.72574 0.40506 0.74578 0.54800
S 	S 	0.94873 0.76610 0.81858 0.06800
S 	S 	0.94742 0.78850 0.68219 -0.02900
S 	S 	0.93753 0.05140 0.69672 -0.04900
S 	S 	0.93583 0.02810 0.83315 0.07200
S 	S 	0.91747 0.55390 0.66245 -0.13200
S 	S 	0.91832 0.52790 0.81248 -0.07600
S 	S 	0.90733 0.28800 0.70267 -0.03800
S 	S 	0.90717 0.26000 0.85476 0.05000
F 	F 	0.00550 0.86240 0.95000 -0.48100
O 	O 	0.97960 0.63170 0.94360 -0.20600
N 	N 	0.78300 0.51280 0.69210 -0.21000
N 	N 	0.80970 0.76670 0.80360 -0.20900
N 	N 	0.80360 0.04840 0.70410 -0.22700
N 	N 	0.77450 0.29410 0.80760 -0.20600
C 	C 	0.94280 0.85410 0.75460 -0.01200
C 	C 	0.92810 0.66320 0.71280 0.00300
C 	C 	0.92800 0.65340 0.77530 -0.02900
C 	C 	0.93770 0.96310 0.76050 0.03200
C 	C 	0.91690 0.16390 0.74060 0.01000
C 	C 	0.91650 0.15300 0.80250 -0.02800
C 	C 	0.87930 0.61290 0.60120 -0.00500
C 	C 	0.82970 0.65610 0.62560 -0.28200
C 	C 	0.80310 0.57590 0.66310 0.14900
C 	C 	0.87760 0.56110 0.87710 -0.07400
C 	C 	0.82400 0.58140 0.85840 -0.23800
C 	C 	0.81650 0.68590 0.82660 0.14900
C 	C 	0.87330 0.25060 0.63320 -0.03700
C 	C 	0.81900 0.22610 0.64230 -0.25900
C 	C 	0.81020 0.12510 0.67760 0.14000
C 	C 	0.86440 0.20120 0.91030 -0.12300
C 	C 	0.81690 0.15670 0.88130 -0.20300
C 	C 	0.79270 0.23510 0.84050 0.12400
H 	H 	0.87280 0.55870 0.57070 0.01000
H 	H 	0.89720 0.67100 0.58260 0.01300
H 	H 	0.80950 0.67590 0.59110 0.10600
H 	H 	0.83600 0.71840 0.65050 0.11400
H 	H 	0.88990 0.62470 0.89680 0.08400
H 	H 	0.87820 0.50240 0.90580 0.06000
H 	H 	0.80400 0.58030 0.89490 0.10000
H 	H 	0.81380 0.52480 0.83120 0.09900
H 	H 	0.88860 0.18770 0.61610 0.03500
H 	H 	0.87590 0.30890 0.60440 0.02400
H 	H 	0.80370 0.21940 0.60260 0.09600
H 	H 	0.80420 0.28480 0.66430 0.10000
H 	H 	0.85550 0.25560 0.93960 0.08200
H 	H 	0.88090 0.14350 0.93110 0.11200
H 	H 	0.79440 0.13770 0.91380 0.08200
H 	H 	0.82490 0.09370 0.85780 0.08500
Ag	Ag	0.50000 -0.00000 0.11794 0.45300
Ag	Ag	0.50000 0.00000 0.36794 0.53700
Ag	Ag	-0.00000 0.50000 0.38206 0.45900
Ag	Ag	0.00000 0.50000 0.13206 0.54100
Ag	Ag	0.50000 0.00000 0.88206 0.45800
Ag	Ag	0.50000 -0.00000 0.63206 0.53700
Ag	Ag	0.00000 0.50000 0.61794 0.45900
Ag	Ag	0.00000 0.50000 0.86794 0.54200
S 	S 	0.49667 0.16870 0.50000 0.34400
F 	F 	0.56050 0.32790 0.50000 -0.47200
O 	O 	0.44330 0.16240 0.50000 -0.23500
C 	C 	0.51150 0.31400 0.50000 0.82000
S 	S 	0.50333 0.83130 0.50000 0.34500
F 	F 	0.43950 0.67210 0.50000 -0.47200
O 	O 	0.55670 0.83760 0.50000 -0.21600
C 	C 	0.48850 0.68600 0.50000 0.82000
S 	S 	0.00333 0.66870 -0.00000 0.22700
F 	F 	0.93950 0.82790 -0.00000 -0.47700
O 	O 	0.05670 0.66240 -0.00000 -0.21300
C 	C 	0.98850 0.81400 -0.00000 0.87400
S 	S 	0.99667 0.33130 -0.00000 0.42100
F 	F 	0.06050 0.17210 -0.00000 -0.47700
O 	O 	0.94330 0.33760 -0.00000 -0.24600
C 	C 	0.01150 0.18600 -0.00000 0.73700
