data_crystal

_cell_length_a 13.71000
_cell_length_b 14.75300
_cell_length_c 20.02700
_cell_angle_alpha 90.00000
_cell_angle_beta  107.96900
_cell_angle_gamma 90.00000

_symmetry_space_group_name_	'P 1'
_symmetry_space_group_name_H-M	'P 1'

loop_
_symmetry_equiv_pos_as_xyz
  x,y,z

loop_
_atom_site_label
_atom_site_type_symbol
_atom_site_fract_x
_atom_site_fract_y
_atom_site_fract_z
_atom_site_charge
Zn	Zn	0.40155 0.97480 0.43787 1.23300
Zn	Zn	0.64838 0.90111 0.44715 1.23200
P 	P 	0.72426 0.97341 0.30400 0.21100
O 	O 	0.67001 0.95921 0.35710 -0.37700
O 	O 	0.45182 0.31415 0.11301 -0.47600
C 	C 	0.70116 0.88159 0.24157 0.00100
C 	C 	0.86040 0.98347 0.34254 -0.01800
O 	O 	0.21072 0.06765 0.49370 -0.47100
O 	O 	0.63642 0.58086 0.12536 -0.47200
C 	C 	0.67840 0.07458 0.25363 0.00400
O 	O 	0.60718 0.35672 0.10874 -0.48100
O 	O 	0.24359 0.95582 0.42823 -0.43300
C 	C 	0.59390 0.22473 0.17097 -0.12600
C 	C 	0.54690 0.30510 0.12709 0.41500
O 	O 	0.62840 0.67218 0.03597 -0.46000
C 	C 	0.53190 0.16520 0.19400 0.03800
H 	H 	0.46170 0.17550 0.18190 0.02800
C 	C 	0.69750 0.20650 0.18880 0.03900
H 	H 	0.73980 0.24480 0.17320 0.03300
H 	H 	0.56700 0.05130 0.43500 0.30300
O 	O 	0.56004 0.00525 0.45858 -0.87100
C 	C 	0.07100 0.99850 0.41064 -0.09700
C 	C 	0.57440 0.09110 0.23450 -0.09100
H 	H 	0.53220 0.05170 0.24930 0.06600
C 	C 	0.18540 0.00760 0.44694 0.38400
C 	C 	0.67220 0.80000 0.26099 -0.08600
H 	H 	0.66520 0.79270 0.30540 0.06100
C 	C 	0.89860 0.04780 0.39450 -0.06400
H 	H 	0.85330 0.08620 0.40700 0.05500
C 	C 	0.00190 0.05600 0.42765 0.01100
H 	H 	0.02590 0.10030 0.46180 0.04200
C 	C 	0.73930 0.13220 0.22940 -0.09500
H 	H 	0.80920 0.12080 0.24060 0.06300
C 	C 	0.71260 0.89130 0.17612 -0.09100
H 	H 	0.73330 0.94660 0.16280 0.06200
C 	C 	0.65310 0.72740 0.21437 0.03300
H 	H 	0.63330 0.67190 0.22800 0.03000
C 	C 	0.69310 0.81840 0.12984 0.03600
H 	H 	0.70060 0.82540 0.08550 0.02900
C 	C 	0.03410 0.93400 0.36060 0.01700
H 	H 	0.07960 0.89450 0.34940 0.04000
C 	C 	0.92980 0.92600 0.32580 -0.07500
H 	H 	0.90630 0.88210 0.29130 0.05700
C 	C 	0.66290 0.73670 0.14880 -0.12000
C 	C 	0.64050 0.65730 0.09895 0.39000
Zn	Zn	0.59845 0.47480 0.06213 1.23200
Zn	Zn	0.35162 0.40111 0.05285 1.23100
P 	P 	0.27574 0.47341 0.19600 0.20900
O 	O 	0.32999 0.45921 0.14290 -0.37800
O 	O 	0.54818 0.81415 0.38699 -0.47700
C 	C 	0.29884 0.38159 0.25843 -0.00000
C 	C 	0.13960 0.48347 0.15746 -0.01300
O 	O 	0.78928 0.56765 0.00630 -0.47200
O 	O 	0.36358 0.08086 0.37464 -0.47200
C 	C 	0.32160 0.57458 0.24637 0.00300
O 	O 	0.39282 0.85672 0.39126 -0.48100
O 	O 	0.75641 0.45582 0.07177 -0.43500
C 	C 	0.40610 0.72473 0.32903 -0.12500
C 	C 	0.45310 0.80510 0.37291 0.41500
O 	O 	0.37160 0.17218 0.46403 -0.46000
C 	C 	0.46810 0.66520 0.30600 0.03700
H 	H 	0.53830 0.67550 0.31810 0.02800
C 	C 	0.30250 0.70650 0.31120 0.03900
H 	H 	0.26020 0.74480 0.32680 0.03300
H 	H 	0.43300 0.55130 0.06500 0.30300
O 	O 	0.43996 0.50525 0.04142 -0.87200
C 	C 	0.92900 0.49850 0.08936 -0.10500
C 	C 	0.42560 0.59110 0.26550 -0.09100
H 	H 	0.46780 0.55170 0.25070 0.06600
C 	C 	0.81460 0.50760 0.05306 0.38800
C 	C 	0.32780 0.30000 0.23901 -0.08700
H 	H 	0.33480 0.29270 0.19460 0.06100
C 	C 	0.10140 0.54780 0.10550 -0.07500
H 	H 	0.14670 0.58620 0.09300 0.05800
C 	C 	0.99810 0.55600 0.07235 0.02300
H 	H 	0.97410 0.60030 0.03820 0.03900
C 	C 	0.26070 0.63220 0.27060 -0.09500
H 	H 	0.19080 0.62080 0.25940 0.06300
C 	C 	0.28740 0.39130 0.32388 -0.09200
H 	H 	0.26670 0.44660 0.33720 0.06200
C 	C 	0.34690 0.22740 0.28563 0.03300
H 	H 	0.36670 0.17190 0.27200 0.03000
C 	C 	0.30690 0.31840 0.37016 0.03600
H 	H 	0.29940 0.32540 0.41450 0.02800
C 	C 	0.96590 0.43400 0.13940 0.02400
H 	H 	0.92040 0.39450 0.15060 0.03800
C 	C 	0.07020 0.42600 0.17420 -0.08200
H 	H 	0.09370 0.38210 0.20870 0.05900
C 	C 	0.33710 0.23670 0.35120 -0.12100
C 	C 	0.35950 0.15730 0.40105 0.39000
Zn	Zn	0.59845 0.02520 0.56213 1.23200
Zn	Zn	0.35162 0.09889 0.55285 1.23100
P 	P 	0.27574 0.02659 0.69600 0.21000
O 	O 	0.32999 0.04079 0.64290 -0.37800
O 	O 	0.54818 0.68585 0.88699 -0.47700
C 	C 	0.29884 0.11841 0.75843 -0.00000
C 	C 	0.13960 0.01653 0.65746 -0.01900
O 	O 	0.78928 0.93235 0.50630 -0.47200
O 	O 	0.36358 0.41914 0.87464 -0.47200
C 	C 	0.32160 0.92542 0.74637 0.00400
O 	O 	0.39282 0.64328 0.89126 -0.48100
O 	O 	0.75641 0.04418 0.57177 -0.43300
C 	C 	0.40610 0.77527 0.82903 -0.12600
C 	C 	0.45310 0.69490 0.87291 0.41500
O 	O 	0.37160 0.32782 0.96403 -0.46000
C 	C 	0.46810 0.83480 0.80600 0.03800
H 	H 	0.53830 0.82450 0.81810 0.02800
C 	C 	0.30250 0.79350 0.81120 0.03900
H 	H 	0.26020 0.75520 0.82680 0.03300
H 	H 	0.43300 0.94870 0.56500 0.30300
O 	O 	0.43996 0.99475 0.54142 -0.87100
C 	C 	0.92900 0.00150 0.58936 -0.09700
C 	C 	0.42560 0.90890 0.76550 -0.09100
H 	H 	0.46780 0.94830 0.75070 0.06600
C 	C 	0.81460 0.99240 0.55306 0.38400
C 	C 	0.32780 0.20000 0.73901 -0.08600
H 	H 	0.33480 0.20730 0.69460 0.06100
C 	C 	0.10140 0.95220 0.60550 -0.06400
H 	H 	0.14670 0.91380 0.59300 0.05500
C 	C 	0.99810 0.94400 0.57235 0.01100
H 	H 	0.97410 0.89970 0.53820 0.04200
C 	C 	0.26070 0.86780 0.77060 -0.09500
H 	H 	0.19080 0.87920 0.75940 0.06300
C 	C 	0.28740 0.10870 0.82388 -0.09100
H 	H 	0.26670 0.05340 0.83720 0.06200
C 	C 	0.34690 0.27260 0.78563 0.03300
H 	H 	0.36670 0.32810 0.77200 0.03000
C 	C 	0.30690 0.18160 0.87016 0.03600
H 	H 	0.29940 0.17460 0.91450 0.02900
C 	C 	0.96590 0.06600 0.63940 0.01700
H 	H 	0.92040 0.10550 0.65060 0.04000
C 	C 	0.07020 0.07400 0.67420 -0.07500
H 	H 	0.09370 0.11790 0.70870 0.05700
C 	C 	0.33710 0.26330 0.85120 -0.12000
C 	C 	0.35950 0.34270 0.90105 0.39000
Zn	Zn	0.40155 0.52520 0.93787 1.23200
Zn	Zn	0.64838 0.59889 0.94715 1.23100
P 	P 	0.72426 0.52659 0.80400 0.20900
O 	O 	0.67001 0.54079 0.85710 -0.37800
O 	O 	0.45182 0.18585 0.61301 -0.47700
C 	C 	0.70116 0.61841 0.74157 -0.00000
C 	C 	0.86040 0.51653 0.84254 -0.01300
O 	O 	0.21072 0.43235 0.99370 -0.47200
O 	O 	0.63642 0.91914 0.62536 -0.47200
C 	C 	0.67840 0.42542 0.75363 0.00300
O 	O 	0.60718 0.14328 0.60874 -0.48100
O 	O 	0.24359 0.54418 0.92823 -0.43500
C 	C 	0.59390 0.27527 0.67097 -0.12500
C 	C 	0.54690 0.19490 0.62709 0.41500
O 	O 	0.62840 0.82782 0.53597 -0.46000
C 	C 	0.53190 0.33480 0.69400 0.03700
H 	H 	0.46170 0.32450 0.68190 0.02800
C 	C 	0.69750 0.29350 0.68880 0.03900
H 	H 	0.73980 0.25520 0.67320 0.03300
H 	H 	0.56700 0.44870 0.93500 0.30300
O 	O 	0.56004 0.49475 0.95858 -0.87200
C 	C 	0.07100 0.50150 0.91064 -0.10500
C 	C 	0.57440 0.40890 0.73450 -0.09100
H 	H 	0.53220 0.44830 0.74930 0.06600
C 	C 	0.18540 0.49240 0.94694 0.38800
C 	C 	0.67220 0.70000 0.76099 -0.08700
H 	H 	0.66520 0.70730 0.80540 0.06100
C 	C 	0.89860 0.45220 0.89450 -0.07500
H 	H 	0.85330 0.41380 0.90700 0.05800
C 	C 	0.00190 0.44400 0.92765 0.02300
H 	H 	0.02590 0.39970 0.96180 0.03900
C 	C 	0.73930 0.36780 0.72940 -0.09500
H 	H 	0.80920 0.37920 0.74060 0.06300
C 	C 	0.71260 0.60870 0.67612 -0.09200
H 	H 	0.73330 0.55340 0.66280 0.06200
C 	C 	0.65310 0.77260 0.71437 0.03300
H 	H 	0.63330 0.82810 0.72800 0.03000
C 	C 	0.69310 0.68160 0.62984 0.03600
H 	H 	0.70060 0.67460 0.58550 0.02800
C 	C 	0.03410 0.56600 0.86060 0.02400
H 	H 	0.07960 0.60550 0.84940 0.03800
C 	C 	0.92980 0.57400 0.82580 -0.08200
H 	H 	0.90630 0.61790 0.79130 0.05900
C 	C 	0.66290 0.76330 0.64880 -0.12100
C 	C 	0.64050 0.84270 0.59895 0.39000
