data_crystal

_cell_length_a 11.45270
_cell_length_b 11.62390
_cell_length_c 11.77540
_cell_angle_alpha 64.82500
_cell_angle_beta  81.40600
_cell_angle_gamma 72.31600

_symmetry_space_group_name_	'P 1'
_symmetry_space_group_name_H-M	'P 1'

loop_
_symmetry_equiv_pos_as_xyz
  x,y,z

loop_
_atom_site_label
_atom_site_type_symbol
_atom_site_fract_x
_atom_site_fract_y
_atom_site_fract_z
_atom_site_charge
Co	Co	-0.00000 0.00000 -0.00000 0.96100
Co	Co	0.00000 0.00000 0.50000 1.04400
Co	Co	-0.00000 0.50000 0.50000 1.07200
H 	H 	0.56160 0.56490 0.65410 0.07600
H 	H 	0.22120 0.00080 0.30880 -0.23200
H 	H 	0.15890 0.18060 0.98670 -0.01900
H 	H 	0.36160 0.59810 0.62550 0.11300
H 	H 	0.83160 0.27530 0.37100 0.05900
H 	H 	0.64910 0.81270 0.01800 0.06100
H 	H 	0.73740 0.18740 0.96120 0.03400
H 	H 	0.41760 0.87940 0.29650 0.17000
H 	H 	0.46140 0.80860 0.03020 0.07600
H 	H 	0.23310 0.52710 0.34020 -0.02000
H 	H 	0.35090 0.18730 0.98200 0.09600
H 	H 	0.58240 0.12060 0.70350 0.00600
H 	H 	0.77880 0.99920 0.69120 0.22300
H 	H 	0.79580 0.62660 0.29530 0.03800
H 	H 	0.76690 0.47290 0.65980 0.03000
H 	H 	0.53860 0.19140 0.96980 0.07700
H 	H 	0.43840 0.43510 0.34590 0.08100
H 	H 	0.63840 0.40190 0.37450 0.05200
H 	H 	0.20420 0.37340 0.70470 -0.03500
H 	H 	0.84110 0.81940 0.01330 0.03800
H 	H 	0.26260 0.81260 0.03880 -0.02800
H 	H 	0.16840 0.72470 0.62900 -0.02400
H 	H 	0.40940 0.27770 0.71920 0.08900
H 	H 	0.59060 0.72230 0.28080 0.06300
C 	C 	0.26910 0.47410 0.41790 0.09400
C 	C 	0.45110 0.34290 0.53240 0.10300
C 	C 	0.37510 0.32750 0.64030 -0.17400
C 	C 	0.03860 0.96740 0.76770 0.47600
C 	C 	0.40140 0.88660 0.02070 -0.16700
C 	C 	0.71850 0.10990 0.97540 0.07500
C 	C 	0.56420 0.00110 0.99760 0.01600
C 	C 	0.24990 0.91920 0.37420 0.41200
C 	C 	0.96140 0.03260 0.23230 0.19000
C 	C 	0.63100 0.15280 0.63290 0.04400
C 	C 	0.39300 0.41970 0.42080 -0.17300
C 	C 	0.01920 0.11070 0.73020 -0.30000
C 	C 	0.54890 0.65710 0.46760 0.00600
C 	C 	0.95110 0.75210 0.51420 0.31000
C 	C 	0.66400 0.89070 0.00830 -0.10700
C 	C 	0.97910 0.77980 0.37970 0.05700
C 	C 	0.75010 0.08080 0.62580 -0.20000
C 	C 	0.78030 0.24230 0.43870 0.03500
C 	C 	0.59860 0.11340 0.97930 -0.10600
C 	C 	0.25160 0.38450 0.63130 0.09500
C 	C 	0.02090 0.22020 0.62030 -0.14400
C 	C 	0.98080 0.88930 0.26980 0.18300
C 	C 	0.28150 0.89010 0.02460 0.09800
C 	C 	0.43580 0.99890 0.00240 0.09200
C 	C 	0.73090 0.52590 0.58210 0.06700
C 	C 	0.60700 0.58030 0.57920 -0.08700
C 	C 	0.36900 0.84720 0.36710 -0.33900
C 	C 	0.77880 0.89540 0.00500 0.07000
C 	C 	0.04890 0.24790 0.48580 0.31000
C 	C 	0.58370 0.27130 0.53690 -0.03900
C 	C 	0.62490 0.67250 0.35970 -0.09200
C 	C 	0.21970 0.75770 0.56130 0.13600
C 	C 	0.74840 0.61550 0.36870 0.06700
C 	C 	0.66390 0.31880 0.43900 -0.05800
C 	C 	0.22120 0.10460 0.99500 0.09600
C 	C 	0.41630 0.72870 0.46310 0.17700
C 	C 	0.33610 0.68120 0.56100 -0.22000
C 	C 	0.33600 0.10930 0.99170 -0.17100
N 	N 	0.99560 0.32490 0.65230 -0.05300
N 	N 	0.81090 0.00290 0.99050 -0.17900
N 	N 	0.18910 0.99710 0.00950 -0.23600
N 	N 	0.02410 0.71580 0.22510 -0.09300
N 	N 	0.19650 0.45530 0.52120 -0.25400
N 	N 	0.00440 0.67510 0.34770 -0.28300
N 	N 	0.82670 0.12350 0.52820 -0.13800
N 	N 	0.99000 0.15390 0.82440 -0.02400
N 	N 	0.17330 0.87650 0.47180 -0.28500
N 	N 	0.01000 0.84610 0.17560 -0.27900
N 	N 	0.97590 0.28420 0.77490 -0.00700
N 	N 	0.80350 0.54470 0.47880 -0.18300
O 	O 	0.04620 0.92210 0.68710 -0.41300
O 	O 	0.95100 0.10390 0.11660 -0.34300
O 	O 	0.04900 0.89610 0.88340 -0.37700
O 	O 	0.95540 0.63440 0.58600 -0.29300
O 	O 	0.92060 0.84510 0.55090 -0.26600
O 	O 	0.04460 0.36560 0.41400 -0.45800
O 	O 	0.95380 0.07790 0.31290 -0.31400
O 	O 	0.07940 0.15490 0.44910 -0.45500
