data_crystal

_cell_length_a 9.84170
_cell_length_b 10.62020
_cell_length_c 10.62020
_cell_angle_alpha 120.00000
_cell_angle_beta  90.00000
_cell_angle_gamma 90.00000

_symmetry_space_group_name_	'P 1'
_symmetry_space_group_name_H-M	'P 1'

loop_
_symmetry_equiv_pos_as_xyz
  x,y,z

loop_
_atom_site_label
_atom_site_type_symbol
_atom_site_fract_x
_atom_site_fract_y
_atom_site_fract_z
_atom_site_charge
Sr	Sr	0.50010 0.68830 0.45365 1.51000
Sr	Sr	0.16677 0.76535 0.31170 1.50900
Sr	Sr	0.83343 0.54635 0.23465 1.50200
H 	H 	0.23090 0.45040 0.98450 0.06200
H 	H 	0.16180 0.25080 0.77030 0.04700
H 	H 	0.52720 0.06970 0.72790 0.00500
H 	H 	0.59550 0.26930 0.94260 0.04200
H 	H 	0.89757 0.53410 0.54960 0.01500
H 	H 	0.82847 0.51950 0.74920 0.08500
H 	H 	0.19387 0.65820 0.93030 0.04700
H 	H 	0.26217 0.67330 0.73070 -0.00600
H 	H 	0.56423 0.01550 0.46590 0.05400
H 	H 	0.49513 0.22970 0.48050 0.04000
H 	H 	0.86053 0.27210 0.34180 -0.01500
H 	H 	0.92883 0.05740 0.32670 0.01500
C 	C 	0.46180 0.51040 0.12910 0.33600
C 	C 	0.41880 0.38070 0.98570 -0.03200
C 	C 	0.29100 0.37380 0.93320 -0.05800
C 	C 	0.24940 0.25410 0.80440 0.02000
C 	C 	0.33780 0.13870 0.72560 -0.12600
C 	C 	0.28820 0.00940 0.58740 0.41900
C 	C 	0.46690 0.14610 0.77910 0.02400
C 	C 	0.50800 0.26570 0.90790 -0.05300
C 	C 	0.12847 0.61870 0.48960 0.40300
C 	C 	0.08547 0.60500 0.61930 -0.09600
C 	C 	0.95767 0.55940 0.62620 -0.02400
C 	C 	0.91607 0.55030 0.74590 -0.15200
C 	C 	0.00447 0.58690 0.86130 0.06500
C 	C 	0.95487 0.57800 0.99060 0.26000
C 	C 	0.13357 0.63300 0.85390 -0.10200
C 	C 	0.17467 0.64220 0.73430 0.03800
C 	C 	0.79513 0.87090 0.38130 0.34700
C 	C 	0.75213 0.01430 0.39500 -0.05900
C 	C 	0.62433 0.06680 0.44060 -0.05100
C 	C 	0.58273 0.19560 0.44970 -0.00100
C 	C 	0.67113 0.27440 0.41310 -0.11800
C 	C 	0.62153 0.41260 0.42200 0.35400
C 	C 	0.80023 0.22090 0.36700 -0.00000
C 	C 	0.84133 0.09210 0.35780 -0.04600
O 	O 	0.37490 0.60760 0.20050 -0.56700
O 	O 	0.57940 0.51450 0.17380 -0.54800
O 	O 	0.16640 0.00380 0.55360 -0.40500
O 	O 	0.37350 0.91350 0.50700 -0.60100
O 	O 	0.04157 0.59290 0.39240 -0.54200
O 	O 	0.24607 0.65930 0.48550 -0.54400
O 	O 	0.83307 0.54980 0.99620 -0.39300
O 	O 	0.04017 0.59350 0.08650 -0.52900
O 	O 	0.70823 0.79950 0.40710 -0.57200
O 	O 	0.91273 0.82620 0.34070 -0.57800
O 	O 	0.49973 0.44640 0.45020 -0.42900
O 	O 	0.70683 0.49300 0.40650 -0.55200
