data_crystal

_cell_length_a 9.80600
_cell_length_b 10.59900
_cell_length_c 10.59900
_cell_angle_alpha 120.00000
_cell_angle_beta  90.00000
_cell_angle_gamma 90.00000

_symmetry_space_group_name_	'P 1'
_symmetry_space_group_name_H-M	'P 1'

loop_
_symmetry_equiv_pos_as_xyz
  x,y,z

loop_
_atom_site_label
_atom_site_type_symbol
_atom_site_fract_x
_atom_site_fract_y
_atom_site_fract_z
_atom_site_charge
Sr	Sr	0.12349 0.68831 0.23478 1.49100
Sr	Sr	0.45682 0.54647 0.31169 1.51200
Sr	Sr	0.79016 0.76522 0.45353 1.51100
H 	H 	0.52077 0.52780 0.98260 0.05800
H 	H 	0.45037 0.51460 0.76890 0.03200
H 	H 	0.81477 0.66600 0.73150 0.00500
H 	H 	0.88577 0.67820 0.94580 0.05000
H 	H 	0.85410 0.45480 0.47220 -0.07400
H 	H 	0.78370 0.25430 0.48540 0.13400
H 	H 	0.14810 0.06550 0.33400 0.10300
H 	H 	0.21910 0.26760 0.32180 -0.07300
H 	H 	0.18744 0.01740 0.54520 0.04300
H 	H 	0.11704 0.23110 0.74570 0.01200
H 	H 	0.48144 0.26850 0.93450 0.00600
H 	H 	0.55244 0.05420 0.73240 0.05300
C 	C 	0.75300 0.61610 0.12870 0.33300
C 	C 	0.70950 0.60340 0.98560 -0.03600
C 	C 	0.58000 0.55530 0.93210 -0.06200
C 	C 	0.53770 0.54760 0.80410 0.00700
C 	C 	0.62530 0.58900 0.72730 -0.11600
C 	C 	0.57520 0.57970 0.58820 0.34900
C 	C 	0.75580 0.63800 0.78170 0.01000
C 	C 	0.79850 0.64540 0.91010 -0.05000
C 	C 	0.08633 0.51260 0.38390 0.35900
C 	C 	0.04283 0.38220 0.39660 -0.37000
C 	C 	0.91333 0.37680 0.44470 0.30800
C 	C 	0.87103 0.25650 0.45240 -0.26300
C 	C 	0.95863 0.13830 0.41100 0.16800
C 	C 	0.90853 0.00850 0.42030 0.32400
C 	C 	0.08913 0.14370 0.36200 -0.34100
C 	C 	0.13183 0.26470 0.35460 0.21900
C 	C 	0.41967 0.87130 0.48740 0.32100
C 	C 	0.37617 0.01440 0.61780 -0.02400
C 	C 	0.24667 0.06790 0.62320 -0.07500
C 	C 	0.20437 0.19590 0.74350 0.02600
C 	C 	0.29197 0.27270 0.86170 -0.14200
C 	C 	0.24187 0.41180 0.99150 0.42500
C 	C 	0.42247 0.21830 0.85630 0.03200
C 	C 	0.46517 0.08990 0.73530 -0.06300
O 	O 	0.87100 0.65930 0.17470 -0.52300
O 	O 	0.66640 0.58740 0.19940 -0.55600
O 	O 	0.45240 0.55680 0.55760 -0.43200
O 	O 	0.66192 0.59340 0.50650 -0.53500
O 	O 	0.20433 0.51540 0.34070 -0.55100
O 	O 	0.99973 0.61200 0.41260 -0.48500
O 	O 	0.78573 0.00080 0.44320 -0.39000
O 	O 	0.99525 0.91310 0.40660 -0.53800
O 	O 	0.53767 0.82530 0.48460 -0.54300
O 	O 	0.33307 0.80060 0.38800 -0.58100
O 	O 	0.11907 0.44240 0.99920 -0.45600
O 	O 	0.32859 0.49350 0.08690 -0.61200
