data_crystal

_cell_length_a 9.82890
_cell_length_b 10.61230
_cell_length_c 10.61230
_cell_angle_alpha 120.00000
_cell_angle_beta  90.00000
_cell_angle_gamma 90.00000

_symmetry_space_group_name_	'P 1'
_symmetry_space_group_name_H-M	'P 1'

loop_
_symmetry_equiv_pos_as_xyz
  x,y,z

loop_
_atom_site_label
_atom_site_type_symbol
_atom_site_fract_x
_atom_site_fract_y
_atom_site_fract_z
_atom_site_charge
Sr	Sr	0.16665 0.90139 0.02178 1.40500
Sr	Sr	0.83332 0.12039 0.09861 1.47600
Sr	Sr	0.49998 0.97822 0.87961 1.47800
H 	H 	0.89670 0.13300 0.78440 -0.07800
H 	H 	0.82790 0.14810 0.58440 0.18500
H 	H 	0.19330 0.00740 0.40220 0.25100
H 	H 	0.26230 0.99250 0.60180 -0.53700
H 	H 	0.56337 0.65140 0.86700 -0.10800
H 	H 	0.49457 0.43630 0.85190 0.18400
H 	H 	0.85997 0.39480 0.99260 0.25300
H 	H 	0.92897 0.60930 0.00750 -0.56400
H 	H 	0.23003 0.21560 0.34860 0.00300
H 	H 	0.16123 0.41560 0.56370 0.05200
H 	H 	0.52663 0.59780 0.60520 -0.01000
H 	H 	0.59563 0.39820 0.39070 -0.03800
C 	C 	0.12830 0.04910 0.84420 0.54400
C 	C 	0.08620 0.06190 0.71410 -0.47300
C 	C 	0.95680 0.10780 0.70770 0.32100
C 	C 	0.91560 0.11680 0.58750 -0.40900
C 	C 	0.00330 0.07980 0.47200 0.32800
C 	C 	0.95430 0.08850 0.34230 0.14600
C 	C 	0.13330 0.03300 0.47900 -0.61300
C 	C 	0.17480 0.02400 0.59850 0.90100
C 	C 	0.79497 0.79510 0.95090 0.58400
C 	C 	0.75287 0.65220 0.93810 -0.57800
C 	C 	0.62347 0.59990 0.89220 0.38100
C 	C 	0.58227 0.47070 0.88320 -0.37900
C 	C 	0.66997 0.39220 0.92020 0.27000
C 	C 	0.62097 0.25380 0.91150 0.22100
C 	C 	0.79997 0.44600 0.96700 -0.61400
C 	C 	0.84147 0.57450 0.97600 0.91400
C 	C 	0.46163 0.15580 0.20490 0.41100
C 	C 	0.41953 0.28590 0.34780 -0.17100
C 	C 	0.29013 0.29230 0.40010 0.00700
C 	C 	0.24893 0.41250 0.52930 -0.06200
C 	C 	0.33663 0.52800 0.60780 -0.08900
C 	C 	0.28763 0.65770 0.74620 0.32800
C 	C 	0.46663 0.52100 0.55400 -0.06500
C 	C 	0.50813 0.40150 0.42550 0.01100
O 	O 	0.04150 0.07470 0.94180 -0.43900
O 	O 	0.24610 0.00710 0.84760 -0.40800
O 	O 	0.83190 0.11460 0.33590 -0.38900
O 	O 	0.03960 0.07410 0.24700 -0.48100
O 	O 	0.70817 0.86710 0.92530 -0.66300
O 	O 	0.91277 0.84050 0.99290 -0.59900
O 	O 	0.49857 0.22130 0.88540 -0.30700
O 	O 	0.70627 0.17290 0.92590 -0.39600
O 	O 	0.37483 0.05820 0.13290 -0.59700
O 	O 	0.57943 0.15240 0.15950 -0.60900
O 	O 	0.16523 0.66410 0.77870 -0.42500
O 	O 	0.37293 0.75300 0.82710 -0.55300
