data_crystal

_cell_length_a 9.87310
_cell_length_b 10.63960
_cell_length_c 10.63960
_cell_angle_alpha 120.00000
_cell_angle_beta  90.00000
_cell_angle_gamma 90.00000

_symmetry_space_group_name_	'P 1'
_symmetry_space_group_name_H-M	'P 1'

loop_
_symmetry_equiv_pos_as_xyz
  x,y,z

loop_
_atom_site_label
_atom_site_type_symbol
_atom_site_fract_x
_atom_site_fract_y
_atom_site_fract_z
_atom_site_charge
Sr	Sr	0.86320 0.76565 0.45368 1.51000
Sr	Sr	0.52987 0.68803 0.23435 1.50600
Sr	Sr	0.19653 0.54632 0.31197 1.50600
H 	H 	0.76860 0.67390 0.94350 0.06500
H 	H 	0.83560 0.65390 0.72610 -0.04400
H 	H 	0.20040 0.52070 0.77030 0.00100
H 	H 	0.13310 0.53570 0.98410 0.09300
H 	H 	0.43527 0.26960 0.32610 -0.00100
H 	H 	0.50227 0.07220 0.34610 0.01600
H 	H 	0.86707 0.24960 0.47930 0.06000
H 	H 	0.79977 0.44840 0.46430 0.02000
H 	H 	0.10193 0.05650 0.73040 0.02800
H 	H 	0.16893 0.27390 0.92780 0.00100
H 	H 	0.53373 0.22970 0.75040 0.03900
H 	H 	0.46643 0.01590 0.55160 0.05400
C 	C 	0.90200 0.61930 0.12840 0.31300
C 	C 	0.94370 0.60480 0.98740 0.05900
C 	C 	0.85560 0.64170 0.90870 -0.14300
C 	C 	0.89640 0.63080 0.77820 0.13900
C 	C 	0.02490 0.58670 0.72550 -0.22800
C 	C 	0.07280 0.57730 0.58640 0.34500
C 	C 	0.11290 0.55110 0.80440 0.10300
C 	C 	0.07220 0.56020 0.93310 -0.19400
C 	C 	0.56867 0.50910 0.38070 0.41900
C 	C 	0.61037 0.38260 0.39520 -0.14700
C 	C 	0.52227 0.26700 0.35830 0.01200
C 	C 	0.56307 0.14740 0.36920 -0.03200
C 	C 	0.69157 0.13880 0.41330 -0.09600
C 	C 	0.73947 0.00910 0.42270 0.41000
C 	C 	0.77957 0.25330 0.44890 -0.03600
C 	C 	0.73887 0.37290 0.43980 0.00900
C 	C 	0.23533 0.87160 0.49090 0.35500
C 	C 	0.27703 0.01260 0.61740 -0.06000
C 	C 	0.18893 0.09130 0.73300 -0.04100
C 	C 	0.22973 0.22180 0.85260 0.01500
C 	C 	0.35823 0.27450 0.86120 -0.13000
C 	C 	0.40613 0.41360 0.99090 0.42500
C 	C 	0.44623 0.19560 0.74670 0.01400
C 	C 	0.40553 0.06690 0.62710 -0.04900
O 	O 	0.78490 0.65830 0.17290 -0.53400
O 	O 	0.98850 0.59470 0.20100 -0.53300
O 	O 	0.98940 0.59520 0.50810 -0.51400
O 	O 	0.19520 0.55010 0.55350 -0.43400
O 	O 	0.45157 0.51460 0.34170 -0.54900
O 	O 	0.65517 0.60630 0.40530 -0.56900
O 	O 	0.65607 0.91290 0.40480 -0.60400
O 	O 	0.86187 0.00340 0.44990 -0.40900
O 	O 	0.11823 0.82710 0.48540 -0.56200
O 	O 	0.32183 0.79900 0.39370 -0.57100
O 	O 	0.32273 0.49190 0.08710 -0.61300
O 	O 	0.52853 0.44650 0.99660 -0.42400
