data_crystal

_cell_length_a 7.87500
_cell_length_b 13.89800
_cell_length_c 13.91000
_cell_angle_alpha 107.62400
_cell_angle_beta  97.41600
_cell_angle_gamma 97.31000

_symmetry_space_group_name_	'P 1'
_symmetry_space_group_name_H-M	'P 1'

loop_
_symmetry_equiv_pos_as_xyz
  x,y,z

loop_
_atom_site_label
_atom_site_type_symbol
_atom_site_fract_x
_atom_site_fract_y
_atom_site_fract_z
_atom_site_charge
Sr	Sr	0.95328 0.37371 0.87354 1.51500
Sr	Sr	0.39481 0.29660 0.79673 1.48600
Sr	Sr	0.04672 0.62629 0.12646 1.51600
Sr	Sr	0.60519 0.70340 0.20327 1.48700
Zn	Zn	0.00120 0.24082 0.25914 1.21200
Zn	Zn	0.99880 0.75918 0.74086 1.21200
H 	H 	0.72000 0.82400 0.97500 0.00100
H 	H 	0.39410 0.59800 0.90250 0.04600
H 	H 	0.42770 0.22650 0.25810 0.03600
H 	H 	0.28000 0.17600 0.02500 0.00100
H 	H 	0.26330 0.53000 0.66150 0.00600
H 	H 	0.73200 0.55490 0.63690 -0.00500
H 	H 	0.36510 0.02430 0.06170 0.08400
H 	H 	0.26950 0.86250 0.94600 -0.01100
H 	H 	0.63490 0.97570 0.93830 0.08400
H 	H 	0.73050 0.13750 0.05400 -0.01100
H 	H 	0.57230 0.77350 0.74190 0.03600
H 	H 	0.65410 0.29430 0.19320 0.04500
H 	H 	0.73670 0.47000 0.33850 0.00600
H 	H 	0.36170 0.56260 0.52240 0.07800
H 	H 	0.26800 0.44510 0.36310 -0.00500
H 	H 	0.63830 0.43740 0.47760 0.07800
H 	H 	0.60590 0.40200 0.09750 0.04600
H 	H 	0.34590 0.70570 0.80680 0.04500
C 	C 	0.64950 0.60120 0.89500 -0.08000
C 	C 	0.87900 0.24730 0.44910 0.30900
C 	C 	0.91250 0.92030 0.09570 -0.14000
C 	C 	0.78510 0.64180 0.85610 -0.07900
C 	C 	0.51510 0.37480 0.12350 -0.04500
C 	C 	0.71900 0.98630 0.99580 -0.16200
C 	C 	0.40840 0.26970 0.21970 0.01200
C 	C 	0.97260 0.82700 0.11110 0.38300
C 	C 	0.21490 0.35820 0.14390 -0.07900
C 	C 	0.28100 0.01370 0.00420 -0.16200
C 	C 	0.97490 0.61170 0.32740 0.38500
C 	C 	0.21800 0.48660 0.59520 0.04600
C 	C 	0.78200 0.51340 0.40480 0.04600
C 	C 	0.48490 0.62520 0.87650 -0.04500
C 	C 	0.02740 0.17300 0.88890 0.38300
C 	C 	0.59160 0.73030 0.78030 0.01200
C 	C 	0.72000 0.49550 0.48700 -0.14000
C 	C 	0.45600 0.68970 0.81910 -0.06500
C 	C 	0.87970 0.94910 0.74760 0.28300
C 	C 	0.97050 0.62680 0.87360 0.40500
C 	C 	0.28000 0.50450 0.51300 -0.14000
C 	C 	0.02510 0.38830 0.67260 0.38500
C 	C 	0.78400 0.90630 0.01350 0.06800
C 	C 	0.02950 0.37320 0.12640 0.40500
C 	C 	0.67300 0.52640 0.95200 0.19500
C 	C 	0.21600 0.09370 0.98650 0.06800
C 	C 	0.02520 0.33790 0.47900 -0.00500
C 	C 	0.97360 0.02020 0.16190 0.01800
C 	C 	0.12030 0.05090 0.25240 0.28300
C 	C 	0.97480 0.66210 0.52100 -0.00500
C 	C 	0.22200 0.91740 0.93610 0.09800
C 	C 	0.22000 0.43550 0.41800 0.09300
C 	C 	0.02640 0.97980 0.83810 0.01800
C 	C 	0.35050 0.39880 0.10500 -0.08000
C 	C 	0.32700 0.47360 0.04800 0.19500
C 	C 	0.54400 0.31030 0.18090 -0.06500
C 	C 	0.08750 0.07970 0.90430 -0.14000
C 	C 	0.12100 0.75270 0.55090 0.30900
C 	C 	0.77800 0.08260 0.06390 0.09800
C 	C 	0.78000 0.56450 0.58200 0.09300
C 	C 	0.08730 0.40340 0.57840 -0.11700
C 	C 	0.91270 0.59660 0.42160 -0.11700
N 	N 	0.75620 0.70640 0.79880 -0.17900
N 	N 	0.90570 0.09970 0.14550 -0.23700
N 	N 	0.24380 0.29360 0.20120 -0.17900
N 	N 	0.09600 0.35500 0.40060 -0.23100
N 	N 	0.90400 0.64500 0.59940 -0.23100
N 	N 	0.09430 0.90030 0.85450 -0.23700
O 	O 	0.87100 0.64730 0.27560 -0.57200
O 	O 	0.33830 0.58240 0.08050 -0.51800
O 	O 	0.18770 0.77310 0.48250 -0.28400
O 	O 	0.86920 0.77450 0.14620 -0.57500
O 	O 	0.12900 0.35270 0.72440 -0.57200
O 	O 	0.83170 0.20460 0.35480 -0.40800
O 	O 	0.81130 0.01710 0.72630 -0.27500
O 	O 	0.16690 0.14540 0.29800 -0.40000
O 	O 	0.10720 0.58110 0.29950 -0.42400
O 	O 	0.10710 0.79980 0.08050 -0.42200
O 	O 	0.99900 0.57310 0.92640 -0.54200
O 	O 	0.29630 0.44320 0.94320 -0.43000
O 	O 	0.16830 0.79540 0.64520 -0.40800
O 	O 	0.00100 0.42690 0.07360 -0.54200
O 	O 	0.70370 0.55680 0.05680 -0.43000
O 	O 	0.89290 0.20020 0.91950 -0.42200
O 	O 	0.89280 0.41890 0.70050 -0.42400
O 	O 	0.93630 0.33640 0.17760 -0.45900
O 	O 	0.06370 0.66360 0.82240 -0.45900
O 	O 	0.18870 0.98290 0.27370 -0.27500
O 	O 	0.83310 0.85460 0.70200 -0.40000
O 	O 	0.13080 0.22550 0.85380 -0.57500
O 	O 	0.66170 0.41760 0.91950 -0.51800
O 	O 	0.81230 0.22690 0.51750 -0.28400
