data_crystal

_cell_length_a 13.73930
_cell_length_b 13.73930
_cell_length_c 37.22810
_cell_angle_alpha 90.00000
_cell_angle_beta  90.00000
_cell_angle_gamma 90.00000

_symmetry_space_group_name_	'P 1'
_symmetry_space_group_name_H-M	'P 1'

loop_
_symmetry_equiv_pos_as_xyz
  x,y,z

loop_
_atom_site_label
_atom_site_type_symbol
_atom_site_fract_x
_atom_site_fract_y
_atom_site_fract_z
_atom_site_charge
In	In	0.56080 0.21039 0.41707 1.99700
O 	O 	0.61330 0.25040 0.36128 -0.46600
O 	O 	0.71800 0.23220 0.40360 -0.48700
O 	O 	0.61880 0.07850 0.44720 -0.50700
O 	O 	0.55300 0.05670 0.39540 -0.51400
O 	O 	0.41980 0.17940 0.44860 -0.44900
O 	O 	0.41270 0.22480 0.39290 -0.48400
O 	O 	0.03630 0.00780 0.36820 -0.30200
O 	O 	0.07390 0.92700 0.41670 -0.30800
O 	O 	0.59600 0.29450 0.46938 -0.44200
O 	O 	0.54090 0.37440 0.42450 -0.44200
C 	C 	0.77900 0.28520 0.34640 -0.14400
C 	C 	0.77580 0.39510 0.33680 0.75100
C 	C 	0.87860 0.41480 0.32400 -0.50100
H 	H 	0.88060 0.39850 0.29840 0.17900
C 	C 	0.95150 0.34680 0.34310 0.14300
H 	H 	0.99650 0.31750 0.32620 -0.03200
H 	H 	0.98790 0.38100 0.36150 -0.02100
C 	C 	0.88310 0.27050 0.35960 -0.18300
H 	H 	0.90520 0.20580 0.35300 0.08600
H 	H 	0.88490 0.27550 0.38550 0.08600
C 	C 	0.75900 0.26600 0.30660 -0.37100
H 	H 	0.75520 0.19760 0.30240 0.14000
H 	H 	0.81170 0.29300 0.29250 0.10900
H 	H 	0.69930 0.29680 0.29980 0.12400
C 	C 	0.69900 0.41870 0.30900 -1.26800
H 	H 	0.69880 0.48750 0.30450 0.41400
H 	H 	0.63630 0.39920 0.31790 0.42000
H 	H 	0.71300 0.38440 0.28720 0.38700
C 	C 	0.74390 0.45470 0.36860 -1.29700
H 	H 	0.78920 0.44580 0.38800 0.42300
H 	H 	0.68030 0.43410 0.37610 0.42900
H 	H 	0.74190 0.52230 0.36210 0.42000
C 	C 	0.69970 0.25470 0.37170 0.32200
C 	C 	0.59520 0.02300 0.42280 0.44200
C 	C 	0.25930 0.18970 0.42380 -0.18500
C 	C 	0.22150 0.10650 0.40100 0.78500
C 	C 	0.11630 0.09460 0.41300 -0.50600
H 	H 	0.08010 0.14770 0.40160 0.17700
C 	C 	0.11910 0.11790 0.45150 0.12300
H 	H 	0.12750 0.05980 0.46600 -0.00800
H 	H 	0.06090 0.15200 0.45910 -0.01800
C 	C 	0.21010 0.18450 0.45310 -0.12200
H 	H 	0.18940 0.24960 0.45970 0.07000
H 	H 	0.25270 0.16090 0.47200 0.07400
C 	C 	0.21200 0.27900 0.40610 -0.28400
H 	H 	0.14270 0.27460 0.40820 0.09000
H 	H 	0.22990 0.28130 0.38120 0.09100
H 	H 	0.23440 0.33710 0.41790 0.11000
C 	C 	0.21700 0.13000 0.36100 -1.29600
H 	H 	0.28110 0.14100 0.35200 0.43100
H 	H 	0.17830 0.18810 0.35750 0.40100
H 	H 	0.18710 0.07710 0.34840 0.43200
C 	C 	0.28650 0.02160 0.40330 -1.35600
H 	H 	0.28760 0.99790 0.42760 0.43400
H 	H 	0.35110 0.04020 0.39620 0.43600
H 	H 	0.26320 0.97120 0.38760 0.43100
C 	C 	0.37250 0.20060 0.42060 0.33300
C 	C 	0.07240 0.00100 0.39850 0.43600
C 	C 	0.55680 0.46340 0.47910 -0.09500
C 	C 	0.63300 0.47000 0.50790 0.00100
C 	C 	0.55900 0.55830 0.45920 0.01200
C 	C 	0.48530 0.44230 0.50960 0.03800
C 	C 	0.47900 0.36670 0.53850 -0.02200
C 	C 	0.56790 0.37290 0.45660 0.33400
In	In	0.43920 0.78961 0.91707 1.99800
O 	O 	0.38670 0.74960 0.86128 -0.46500
O 	O 	0.28200 0.76780 0.90360 -0.48600
O 	O 	0.38120 0.92150 0.94720 -0.50600
O 	O 	0.44700 0.94330 0.89540 -0.51300
O 	O 	0.58020 0.82060 0.94860 -0.44800
O 	O 	0.58730 0.77520 0.89290 -0.48300
O 	O 	0.96370 0.99220 0.86820 -0.30200
O 	O 	0.92610 0.07300 0.91670 -0.30800
O 	O 	0.40400 0.70550 0.96938 -0.44200
O 	O 	0.45910 0.62560 0.92450 -0.44200
C 	C 	0.22100 0.71480 0.84640 -0.14400
C 	C 	0.22420 0.60490 0.83680 0.75100
C 	C 	0.12140 0.58520 0.82400 -0.50100
H 	H 	0.11940 0.60150 0.79840 0.17900
C 	C 	0.04850 0.65320 0.84310 0.14300
H 	H 	0.00350 0.68250 0.82620 -0.03200
H 	H 	0.01210 0.61900 0.86150 -0.02100
C 	C 	0.11690 0.72950 0.85960 -0.18300
H 	H 	0.09480 0.79420 0.85300 0.08600
H 	H 	0.11510 0.72450 0.88550 0.08600
C 	C 	0.24100 0.73400 0.80660 -0.37100
H 	H 	0.24480 0.80240 0.80240 0.14000
H 	H 	0.18830 0.70700 0.79250 0.10900
H 	H 	0.30070 0.70320 0.79980 0.12400
C 	C 	0.30100 0.58130 0.80900 -1.26800
H 	H 	0.30120 0.51250 0.80450 0.41400
H 	H 	0.36370 0.60080 0.81790 0.42000
H 	H 	0.28700 0.61560 0.78720 0.38700
C 	C 	0.25610 0.54530 0.86860 -1.29700
H 	H 	0.21080 0.55420 0.88800 0.42300
H 	H 	0.31970 0.56590 0.87610 0.42900
H 	H 	0.25810 0.47770 0.86210 0.42000
C 	C 	0.30030 0.74530 0.87170 0.32200
C 	C 	0.40480 0.97700 0.92280 0.44200
C 	C 	0.74070 0.81030 0.92380 -0.18500
C 	C 	0.77850 0.89350 0.90100 0.78500
C 	C 	0.88370 0.90540 0.91300 -0.50600
H 	H 	0.91990 0.85230 0.90160 0.17700
C 	C 	0.88090 0.88210 0.95150 0.12300
H 	H 	0.87250 0.94020 0.96600 -0.00800
H 	H 	0.93910 0.84800 0.95910 -0.01800
C 	C 	0.78990 0.81550 0.95310 -0.12200
H 	H 	0.81060 0.75040 0.95970 0.07000
H 	H 	0.74730 0.83910 0.97200 0.07400
C 	C 	0.78800 0.72100 0.90610 -0.28400
H 	H 	0.85730 0.72540 0.90820 0.09000
H 	H 	0.77010 0.71870 0.88120 0.09100
H 	H 	0.76560 0.66290 0.91790 0.11000
C 	C 	0.78300 0.87000 0.86100 -1.29700
H 	H 	0.71890 0.85900 0.85200 0.43100
H 	H 	0.82170 0.81190 0.85750 0.40100
H 	H 	0.81290 0.92290 0.84840 0.43200
C 	C 	0.71350 0.97840 0.90330 -1.35700
H 	H 	0.71240 0.00210 0.92760 0.43500
H 	H 	0.64890 0.95980 0.89620 0.43600
H 	H 	0.73680 0.02880 0.88760 0.43200
C 	C 	0.62750 0.79940 0.92060 0.33300
C 	C 	0.92760 0.99900 0.89850 0.43600
C 	C 	0.44320 0.53660 0.97910 -0.09500
C 	C 	0.36700 0.53000 0.00790 0.00100
C 	C 	0.44100 0.44170 0.95920 0.01200
C 	C 	0.51470 0.55770 0.00960 0.03800
C 	C 	0.52100 0.63330 0.03850 -0.02300
C 	C 	0.43210 0.62710 0.95660 0.33400
In	In	0.28961 0.06080 0.16707 1.99800
O 	O 	0.24960 0.11330 0.11128 -0.46600
O 	O 	0.26780 0.21800 0.15360 -0.48600
O 	O 	0.42150 0.11880 0.19720 -0.50600
O 	O 	0.44330 0.05300 0.14540 -0.51400
O 	O 	0.32060 0.91980 0.19860 -0.44800
O 	O 	0.27520 0.91270 0.14290 -0.48300
O 	O 	0.49220 0.53630 0.11820 -0.30400
O 	O 	0.57300 0.57390 0.16670 -0.30600
O 	O 	0.20550 0.09600 0.21938 -0.44100
O 	O 	0.12560 0.04090 0.17450 -0.44200
C 	C 	0.21480 0.27900 0.09640 -0.14400
C 	C 	0.10490 0.27580 0.08680 0.75000
C 	C 	0.08520 0.37860 0.07400 -0.50100
H 	H 	0.10150 0.38060 0.04840 0.17800
C 	C 	0.15320 0.45150 0.09310 0.14300
H 	H 	0.18250 0.49650 0.07620 -0.03100
H 	H 	0.11900 0.48790 0.11150 -0.02000
C 	C 	0.22950 0.38310 0.10960 -0.18400
H 	H 	0.29420 0.40520 0.10300 0.08700
H 	H 	0.22450 0.38490 0.13550 0.08700
C 	C 	0.23400 0.25900 0.05660 -0.37100
H 	H 	0.30240 0.25520 0.05240 0.14000
H 	H 	0.20700 0.31170 0.04250 0.10900
H 	H 	0.20320 0.19930 0.04980 0.12400
C 	C 	0.08130 0.19900 0.05900 -1.26500
H 	H 	0.01250 0.19880 0.05450 0.41300
H 	H 	0.10080 0.13630 0.06790 0.41900
H 	H 	0.11560 0.21300 0.03720 0.38600
C 	C 	0.04530 0.24390 0.11860 -1.29600
H 	H 	0.05420 0.28920 0.13800 0.42300
H 	H 	0.06590 0.18030 0.12610 0.42900
H 	H 	0.97770 0.24190 0.11210 0.42000
C 	C 	0.24530 0.19970 0.12170 0.32200
C 	C 	0.47700 0.09520 0.17280 0.44100
C 	C 	0.31030 0.75930 0.17380 -0.19100
C 	C 	0.39350 0.72150 0.15100 0.79700
C 	C 	0.40540 0.61630 0.16300 -0.51000
H 	H 	0.35230 0.58010 0.15160 0.17800
C 	C 	0.38210 0.61910 0.20150 0.12300
H 	H 	0.44020 0.62750 0.21600 -0.00900
H 	H 	0.34800 0.56090 0.20910 -0.01900
C 	C 	0.31550 0.71010 0.20310 -0.11900
H 	H 	0.25040 0.68940 0.20970 0.07000
H 	H 	0.33910 0.75270 0.22200 0.07300
C 	C 	0.22100 0.71200 0.15610 -0.27800
H 	H 	0.22540 0.64270 0.15820 0.08800
H 	H 	0.21870 0.72990 0.13120 0.08900
H 	H 	0.16290 0.73440 0.16790 0.10800
C 	C 	0.37000 0.71700 0.11100 -1.30700
H 	H 	0.35900 0.78110 0.10200 0.43500
H 	H 	0.31190 0.67830 0.10750 0.40400
H 	H 	0.42290 0.68710 0.09840 0.43400
C 	C 	0.47840 0.78650 0.15330 -1.38400
H 	H 	0.50210 0.78760 0.17760 0.44400
H 	H 	0.45980 0.85110 0.14620 0.44400
H 	H 	0.52880 0.76320 0.13760 0.44100
C 	C 	0.29940 0.87250 0.17060 0.33500
C 	C 	0.49900 0.57240 0.14850 0.43300
C 	C 	0.03660 0.05680 0.22910 -0.09300
C 	C 	0.03000 0.13300 0.25790 0.00300
C 	C 	0.94170 0.05900 0.20920 0.00800
C 	C 	0.05770 0.98530 0.25960 0.03700
C 	C 	0.13330 0.97900 0.28850 -0.02200
C 	C 	0.12710 0.06790 0.20660 0.33400
In	In	0.71039 0.93920 0.66707 1.99800
O 	O 	0.75040 0.88670 0.61128 -0.46600
O 	O 	0.73220 0.78200 0.65360 -0.48600
O 	O 	0.57850 0.88120 0.69720 -0.50600
O 	O 	0.55670 0.94700 0.64540 -0.51400
O 	O 	0.67940 0.08020 0.69860 -0.44800
O 	O 	0.72480 0.08730 0.64290 -0.48300
O 	O 	0.50780 0.46370 0.61820 -0.30400
O 	O 	0.42700 0.42610 0.66670 -0.30600
O 	O 	0.79450 0.90400 0.71938 -0.44100
O 	O 	0.87440 0.95910 0.67450 -0.44200
C 	C 	0.78520 0.72100 0.59640 -0.14400
C 	C 	0.89510 0.72420 0.58680 0.75000
C 	C 	0.91480 0.62140 0.57400 -0.50100
H 	H 	0.89850 0.61940 0.54840 0.17800
C 	C 	0.84680 0.54850 0.59310 0.14300
H 	H 	0.81750 0.50350 0.57620 -0.03100
H 	H 	0.88100 0.51210 0.61150 -0.02000
C 	C 	0.77050 0.61690 0.60960 -0.18400
H 	H 	0.70580 0.59480 0.60300 0.08700
H 	H 	0.77550 0.61510 0.63550 0.08700
C 	C 	0.76600 0.74100 0.55660 -0.37100
H 	H 	0.69760 0.74480 0.55240 0.14000
H 	H 	0.79300 0.68830 0.54250 0.10900
H 	H 	0.79680 0.80070 0.54980 0.12400
C 	C 	0.91870 0.80100 0.55900 -1.26500
H 	H 	0.98750 0.80120 0.55450 0.41300
H 	H 	0.89920 0.86370 0.56790 0.41900
H 	H 	0.88440 0.78700 0.53720 0.38600
C 	C 	0.95470 0.75610 0.61860 -1.29600
H 	H 	0.94580 0.71080 0.63800 0.42300
H 	H 	0.93410 0.81970 0.62610 0.42900
H 	H 	0.02230 0.75810 0.61210 0.42000
C 	C 	0.75470 0.80030 0.62170 0.32200
C 	C 	0.52300 0.90480 0.67280 0.44100
C 	C 	0.68970 0.24070 0.67380 -0.19100
C 	C 	0.60650 0.27850 0.65100 0.79700
C 	C 	0.59460 0.38370 0.66300 -0.51000
H 	H 	0.64770 0.41990 0.65160 0.17800
C 	C 	0.61790 0.38090 0.70150 0.12300
H 	H 	0.55980 0.37250 0.71600 -0.00900
H 	H 	0.65200 0.43910 0.70910 -0.01900
C 	C 	0.68450 0.28990 0.70310 -0.11900
H 	H 	0.74960 0.31060 0.70970 0.07000
H 	H 	0.66090 0.24730 0.72200 0.07300
C 	C 	0.77900 0.28800 0.65610 -0.27800
H 	H 	0.77460 0.35730 0.65820 0.08800
H 	H 	0.78130 0.27010 0.63120 0.08900
H 	H 	0.83710 0.26560 0.66790 0.10800
C 	C 	0.63000 0.28300 0.61100 -1.30700
H 	H 	0.64100 0.21890 0.60200 0.43500
H 	H 	0.68810 0.32170 0.60750 0.40400
H 	H 	0.57710 0.31290 0.59840 0.43400
C 	C 	0.52160 0.21350 0.65330 -1.38400
H 	H 	0.49790 0.21240 0.67760 0.44400
H 	H 	0.54020 0.14890 0.64620 0.44400
H 	H 	0.47120 0.23680 0.63760 0.44100
C 	C 	0.70060 0.12750 0.67060 0.33500
C 	C 	0.50100 0.42760 0.64850 0.43300
C 	C 	0.96340 0.94320 0.72910 -0.09300
C 	C 	0.97000 0.86700 0.75790 0.00300
C 	C 	0.05830 0.94100 0.70920 0.00800
C 	C 	0.94230 0.01470 0.75960 0.03700
C 	C 	0.86670 0.02100 0.78850 -0.02200
C 	C 	0.87290 0.93210 0.70660 0.33400
In	In	0.93920 0.71039 0.33293 1.99800
O 	O 	0.88670 0.75040 0.38872 -0.46600
O 	O 	0.78200 0.73220 0.34640 -0.48600
O 	O 	0.88120 0.57850 0.30280 -0.50600
O 	O 	0.94700 0.55670 0.35460 -0.51400
O 	O 	0.08020 0.67940 0.30140 -0.44800
O 	O 	0.08730 0.72480 0.35710 -0.48300
O 	O 	0.46370 0.50780 0.38180 -0.30400
O 	O 	0.42610 0.42700 0.33330 -0.30600
O 	O 	0.90400 0.79450 0.28062 -0.44100
O 	O 	0.95910 0.87440 0.32550 -0.44200
C 	C 	0.72100 0.78520 0.40360 -0.14400
C 	C 	0.72420 0.89510 0.41320 0.75000
C 	C 	0.62140 0.91480 0.42600 -0.50100
H 	H 	0.61940 0.89850 0.45160 0.17800
C 	C 	0.54850 0.84680 0.40690 0.14300
H 	H 	0.50350 0.81750 0.42380 -0.03100
H 	H 	0.51210 0.88100 0.38850 -0.02000
C 	C 	0.61690 0.77050 0.39040 -0.18400
H 	H 	0.59480 0.70580 0.39700 0.08700
H 	H 	0.61510 0.77550 0.36450 0.08700
C 	C 	0.74100 0.76600 0.44340 -0.37100
H 	H 	0.74480 0.69760 0.44760 0.14000
H 	H 	0.68830 0.79300 0.45750 0.10900
H 	H 	0.80070 0.79680 0.45020 0.12400
C 	C 	0.80100 0.91870 0.44100 -1.26500
H 	H 	0.80120 0.98750 0.44550 0.41300
H 	H 	0.86370 0.89920 0.43210 0.41900
H 	H 	0.78700 0.88440 0.46280 0.38600
C 	C 	0.75610 0.95470 0.38140 -1.29600
H 	H 	0.71080 0.94580 0.36200 0.42300
H 	H 	0.81970 0.93410 0.37390 0.42900
H 	H 	0.75810 0.02230 0.38790 0.42000
C 	C 	0.80030 0.75470 0.37830 0.32200
C 	C 	0.90480 0.52300 0.32720 0.44100
C 	C 	0.24070 0.68970 0.32620 -0.19100
C 	C 	0.27850 0.60650 0.34900 0.79700
C 	C 	0.38370 0.59460 0.33700 -0.51000
H 	H 	0.41990 0.64770 0.34840 0.17800
C 	C 	0.38090 0.61790 0.29850 0.12300
H 	H 	0.37250 0.55980 0.28400 -0.00900
H 	H 	0.43910 0.65200 0.29090 -0.01900
C 	C 	0.28990 0.68450 0.29690 -0.11900
H 	H 	0.31060 0.74960 0.29030 0.07000
H 	H 	0.24730 0.66090 0.27800 0.07300
C 	C 	0.28800 0.77900 0.34390 -0.27800
H 	H 	0.35730 0.77460 0.34180 0.08800
H 	H 	0.27010 0.78130 0.36880 0.08900
H 	H 	0.26560 0.83710 0.33210 0.10800
C 	C 	0.28300 0.63000 0.38900 -1.30700
H 	H 	0.21890 0.64100 0.39800 0.43500
H 	H 	0.32170 0.68810 0.39250 0.40400
H 	H 	0.31290 0.57710 0.40160 0.43400
C 	C 	0.21350 0.52160 0.34670 -1.38400
H 	H 	0.21240 0.49790 0.32240 0.44400
H 	H 	0.14890 0.54020 0.35380 0.44400
H 	H 	0.23680 0.47120 0.36240 0.44100
C 	C 	0.12750 0.70060 0.32940 0.33500
C 	C 	0.42760 0.50100 0.35150 0.43300
C 	C 	0.94320 0.96340 0.27090 -0.09300
C 	C 	0.86700 0.97000 0.24210 0.00300
C 	C 	0.94100 0.05830 0.29080 0.00800
C 	C 	0.01470 0.94230 0.24040 0.03700
C 	C 	0.02100 0.86670 0.21150 -0.02200
C 	C 	0.93210 0.87290 0.29340 0.33400
In	In	0.06080 0.28961 0.83293 1.99800
O 	O 	0.11330 0.24960 0.88872 -0.46600
O 	O 	0.21800 0.26780 0.84640 -0.48600
O 	O 	0.11880 0.42150 0.80280 -0.50600
O 	O 	0.05300 0.44330 0.85460 -0.51400
O 	O 	0.91980 0.32060 0.80140 -0.44800
O 	O 	0.91270 0.27520 0.85710 -0.48300
O 	O 	0.53630 0.49220 0.88180 -0.30400
O 	O 	0.57390 0.57300 0.83330 -0.30600
O 	O 	0.09600 0.20550 0.78062 -0.44100
O 	O 	0.04090 0.12560 0.82550 -0.44200
C 	C 	0.27900 0.21480 0.90360 -0.14400
C 	C 	0.27580 0.10490 0.91320 0.75000
C 	C 	0.37860 0.08520 0.92600 -0.50100
H 	H 	0.38060 0.10150 0.95160 0.17800
C 	C 	0.45150 0.15320 0.90690 0.14300
H 	H 	0.49650 0.18250 0.92380 -0.03100
H 	H 	0.48790 0.11900 0.88850 -0.02000
C 	C 	0.38310 0.22950 0.89040 -0.18400
H 	H 	0.40520 0.29420 0.89700 0.08700
H 	H 	0.38490 0.22450 0.86450 0.08700
C 	C 	0.25900 0.23400 0.94340 -0.37100
H 	H 	0.25520 0.30240 0.94760 0.14000
H 	H 	0.31170 0.20700 0.95750 0.10900
H 	H 	0.19930 0.20320 0.95020 0.12400
C 	C 	0.19900 0.08130 0.94100 -1.26500
H 	H 	0.19880 0.01250 0.94550 0.41300
H 	H 	0.13630 0.10080 0.93210 0.41900
H 	H 	0.21300 0.11560 0.96280 0.38600
C 	C 	0.24390 0.04530 0.88140 -1.29600
H 	H 	0.28920 0.05420 0.86200 0.42300
H 	H 	0.18030 0.06590 0.87390 0.42900
H 	H 	0.24190 0.97770 0.88790 0.42000
C 	C 	0.19970 0.24530 0.87830 0.32200
C 	C 	0.09520 0.47700 0.82720 0.44100
C 	C 	0.75930 0.31030 0.82620 -0.19100
C 	C 	0.72150 0.39350 0.84900 0.79700
C 	C 	0.61630 0.40540 0.83700 -0.51000
H 	H 	0.58010 0.35230 0.84840 0.17800
C 	C 	0.61910 0.38210 0.79850 0.12300
H 	H 	0.62750 0.44020 0.78400 -0.00900
H 	H 	0.56090 0.34800 0.79090 -0.01900
C 	C 	0.71010 0.31550 0.79690 -0.11900
H 	H 	0.68940 0.25040 0.79030 0.07000
H 	H 	0.75270 0.33910 0.77800 0.07300
C 	C 	0.71200 0.22100 0.84390 -0.27800
H 	H 	0.64270 0.22540 0.84180 0.08800
H 	H 	0.72990 0.21870 0.86880 0.08900
H 	H 	0.73440 0.16290 0.83210 0.10800
C 	C 	0.71700 0.37000 0.88900 -1.30700
H 	H 	0.78110 0.35900 0.89800 0.43500
H 	H 	0.67830 0.31190 0.89250 0.40400
H 	H 	0.68710 0.42290 0.90160 0.43400
C 	C 	0.78650 0.47840 0.84670 -1.38400
H 	H 	0.78760 0.50210 0.82240 0.44400
H 	H 	0.85110 0.45980 0.85380 0.44400
H 	H 	0.76320 0.52880 0.86240 0.44100
C 	C 	0.87250 0.29940 0.82940 0.33500
C 	C 	0.57240 0.49900 0.85150 0.43300
C 	C 	0.05680 0.03660 0.77090 -0.09300
C 	C 	0.13300 0.03000 0.74210 0.00300
C 	C 	0.05900 0.94170 0.79080 0.00800
C 	C 	0.98530 0.05770 0.74040 0.03700
C 	C 	0.97900 0.13330 0.71150 -0.02200
C 	C 	0.06790 0.12710 0.79340 0.33400
In	In	0.21039 0.56080 0.58293 1.99800
O 	O 	0.25040 0.61330 0.63872 -0.46500
O 	O 	0.23220 0.71800 0.59640 -0.48600
O 	O 	0.07850 0.61880 0.55280 -0.50600
O 	O 	0.05670 0.55300 0.60460 -0.51300
O 	O 	0.17940 0.41980 0.55140 -0.44800
O 	O 	0.22480 0.41270 0.60710 -0.48300
O 	O 	0.00780 0.03630 0.63180 -0.30200
O 	O 	0.92700 0.07390 0.58330 -0.30800
O 	O 	0.29450 0.59600 0.53062 -0.44200
O 	O 	0.37440 0.54090 0.57550 -0.44200
C 	C 	0.28520 0.77900 0.65360 -0.14400
C 	C 	0.39510 0.77580 0.66320 0.75100
C 	C 	0.41480 0.87860 0.67600 -0.50100
H 	H 	0.39850 0.88060 0.70160 0.17900
C 	C 	0.34680 0.95150 0.65690 0.14300
H 	H 	0.31750 0.99650 0.67380 -0.03200
H 	H 	0.38100 0.98790 0.63850 -0.02100
C 	C 	0.27050 0.88310 0.64040 -0.18300
H 	H 	0.20580 0.90520 0.64700 0.08600
H 	H 	0.27550 0.88490 0.61450 0.08600
C 	C 	0.26600 0.75900 0.69340 -0.37100
H 	H 	0.19760 0.75520 0.69760 0.14000
H 	H 	0.29300 0.81170 0.70750 0.10900
H 	H 	0.29680 0.69930 0.70020 0.12400
C 	C 	0.41870 0.69900 0.69100 -1.26800
H 	H 	0.48750 0.69880 0.69550 0.41400
H 	H 	0.39920 0.63630 0.68210 0.42000
H 	H 	0.38440 0.71300 0.71280 0.38700
C 	C 	0.45470 0.74390 0.63140 -1.29700
H 	H 	0.44580 0.78920 0.61200 0.42300
H 	H 	0.43410 0.68030 0.62390 0.42900
H 	H 	0.52230 0.74190 0.63790 0.42000
C 	C 	0.25470 0.69970 0.62830 0.32200
C 	C 	0.02300 0.59520 0.57720 0.44200
C 	C 	0.18970 0.25930 0.57620 -0.18500
C 	C 	0.10650 0.22150 0.59900 0.78500
C 	C 	0.09460 0.11630 0.58700 -0.50600
H 	H 	0.14770 0.08010 0.59840 0.17700
C 	C 	0.11790 0.11910 0.54850 0.12300
H 	H 	0.05980 0.12750 0.53400 -0.00800
H 	H 	0.15200 0.06090 0.54090 -0.01800
C 	C 	0.18450 0.21010 0.54690 -0.12200
H 	H 	0.24960 0.18940 0.54030 0.07000
H 	H 	0.16090 0.25270 0.52800 0.07400
C 	C 	0.27900 0.21200 0.59390 -0.28400
H 	H 	0.27460 0.14270 0.59180 0.09000
H 	H 	0.28130 0.22990 0.61880 0.09100
H 	H 	0.33710 0.23440 0.58210 0.11000
C 	C 	0.13000 0.21700 0.63900 -1.29600
H 	H 	0.14100 0.28110 0.64800 0.43100
H 	H 	0.18810 0.17830 0.64250 0.40100
H 	H 	0.07710 0.18710 0.65160 0.43200
C 	C 	0.02160 0.28650 0.59670 -1.35600
H 	H 	0.99790 0.28760 0.57240 0.43400
H 	H 	0.04020 0.35110 0.60380 0.43600
H 	H 	0.97120 0.26320 0.61240 0.43100
C 	C 	0.20060 0.37250 0.57940 0.33300
C 	C 	0.00100 0.07240 0.60150 0.43600
C 	C 	0.46340 0.55680 0.52090 -0.09500
C 	C 	0.47000 0.63300 0.49210 0.00100
C 	C 	0.55830 0.55900 0.54080 0.01200
C 	C 	0.44230 0.48530 0.49040 0.03800
C 	C 	0.36670 0.47900 0.46150 -0.02200
C 	C 	0.37290 0.56790 0.54340 0.33400
In	In	0.78961 0.43920 0.08293 1.99800
O 	O 	0.74960 0.38670 0.13872 -0.46500
O 	O 	0.76780 0.28200 0.09640 -0.48600
O 	O 	0.92150 0.38120 0.05280 -0.50600
O 	O 	0.94330 0.44700 0.10460 -0.51300
O 	O 	0.82060 0.58020 0.05140 -0.44800
O 	O 	0.77520 0.58730 0.10710 -0.48300
O 	O 	0.99220 0.96370 0.13180 -0.30200
O 	O 	0.07300 0.92610 0.08330 -0.30800
O 	O 	0.70550 0.40400 0.03062 -0.44200
O 	O 	0.62560 0.45910 0.07550 -0.44200
C 	C 	0.71480 0.22100 0.15360 -0.14400
C 	C 	0.60490 0.22420 0.16320 0.75100
C 	C 	0.58520 0.12140 0.17600 -0.50100
H 	H 	0.60150 0.11940 0.20160 0.17900
C 	C 	0.65320 0.04850 0.15690 0.14300
H 	H 	0.68250 0.00350 0.17380 -0.03200
H 	H 	0.61900 0.01210 0.13850 -0.02100
C 	C 	0.72950 0.11690 0.14040 -0.18300
H 	H 	0.79420 0.09480 0.14700 0.08600
H 	H 	0.72450 0.11510 0.11450 0.08600
C 	C 	0.73400 0.24100 0.19340 -0.37100
H 	H 	0.80240 0.24480 0.19760 0.14000
H 	H 	0.70700 0.18830 0.20750 0.10900
H 	H 	0.70320 0.30070 0.20020 0.12400
C 	C 	0.58130 0.30100 0.19100 -1.26800
H 	H 	0.51250 0.30120 0.19550 0.41400
H 	H 	0.60080 0.36370 0.18210 0.42000
H 	H 	0.61560 0.28700 0.21280 0.38700
C 	C 	0.54530 0.25610 0.13140 -1.29700
H 	H 	0.55420 0.21080 0.11200 0.42300
H 	H 	0.56590 0.31970 0.12390 0.42900
H 	H 	0.47770 0.25810 0.13790 0.42000
C 	C 	0.74530 0.30030 0.12830 0.32200
C 	C 	0.97700 0.40480 0.07720 0.44200
C 	C 	0.81030 0.74070 0.07620 -0.18500
C 	C 	0.89350 0.77850 0.09900 0.78500
C 	C 	0.90540 0.88370 0.08700 -0.50600
H 	H 	0.85230 0.91990 0.09840 0.17700
C 	C 	0.88210 0.88090 0.04850 0.12300
H 	H 	0.94020 0.87250 0.03400 -0.00800
H 	H 	0.84800 0.93910 0.04090 -0.01800
C 	C 	0.81550 0.78990 0.04690 -0.12200
H 	H 	0.75040 0.81060 0.04030 0.07000
H 	H 	0.83910 0.74730 0.02800 0.07400
C 	C 	0.72100 0.78800 0.09390 -0.28400
H 	H 	0.72540 0.85730 0.09180 0.09000
H 	H 	0.71870 0.77010 0.11880 0.09100
H 	H 	0.66290 0.76560 0.08210 0.11000
C 	C 	0.87000 0.78300 0.13900 -1.29700
H 	H 	0.85900 0.71890 0.14800 0.43100
H 	H 	0.81190 0.82170 0.14250 0.40100
H 	H 	0.92290 0.81290 0.15160 0.43200
C 	C 	0.97840 0.71350 0.09670 -1.35700
H 	H 	0.00210 0.71240 0.07240 0.43500
H 	H 	0.95980 0.64890 0.10380 0.43600
H 	H 	0.02880 0.73680 0.11240 0.43200
C 	C 	0.79940 0.62750 0.07940 0.33300
C 	C 	0.99900 0.92760 0.10150 0.43600
C 	C 	0.53660 0.44320 0.02090 -0.09500
C 	C 	0.53000 0.36700 0.99210 0.00100
C 	C 	0.44170 0.44100 0.04080 0.01200
C 	C 	0.55770 0.51470 0.99040 0.03800
C 	C 	0.63330 0.52100 0.96150 -0.02200
C 	C 	0.62710 0.43210 0.04340 0.33400
C 	C 	0.39450 0.39450 0.50000 -0.01300
C 	C 	0.60550 0.60550 -0.00000 -0.01300
C 	C 	0.10550 0.89450 0.25000 -0.01300
C 	C 	0.89450 0.10550 0.75000 -0.01300
