data_crystal

_cell_length_a 22.74800
_cell_length_b 15.84660
_cell_length_c 15.11260
_cell_angle_alpha 90.00000
_cell_angle_beta  90.00000
_cell_angle_gamma 90.00000

_symmetry_space_group_name_	'P 1'
_symmetry_space_group_name_H-M	'P 1'

loop_
_symmetry_equiv_pos_as_xyz
  x,y,z

loop_
_atom_site_label
_atom_site_type_symbol
_atom_site_fract_x
_atom_site_fract_y
_atom_site_fract_z
_atom_site_charge
In	In	0.17101 0.60203 0.86692 1.99500
O 	O 	0.13170 0.70150 0.77310 -0.42500
O 	O 	0.11024 0.67140 0.96150 -0.41100
O 	O 	0.70119 0.96020 0.85510 -0.39700
O 	O 	0.73672 0.80200 0.42360 -0.43100
O 	O 	0.14635 0.57190 0.72570 -0.43000
O 	O 	0.07655 0.55890 0.89430 -0.43500
O 	O 	0.76090 0.87560 0.30890 -0.46000
O 	O 	0.70414 0.02570 0.98340 -0.43000
O 	O 	0.01125 0.71820 0.39150 -0.28300
O 	O 	0.84266 0.69020 0.08320 -0.27900
C 	C 	0.00920 0.63750 0.98280 -0.04400
C 	C 	0.83600 0.79130 0.37420 -0.17200
C 	C 	0.87760 0.81440 0.30970 0.13900
H 	H 	0.86600 0.84670 0.26140 0.00100
C 	C 	0.77540 0.82400 0.36870 0.34900
C 	C 	0.09770 0.66650 0.62730 -0.15700
C 	C 	0.07470 0.74590 0.61220 0.14500
H 	H 	0.07960 0.78790 0.65460 0.01000
C 	C 	0.03790 0.70060 0.47210 0.30300
C 	C 	0.99460 0.71870 0.01310 -0.01400
H 	H 	0.02260 0.76140 0.01040 0.06600
C 	C 	0.06190 0.62250 0.48330 -0.27100
H 	H 	0.05820 0.58180 0.43930 0.16100
C 	C 	0.04450 0.76400 0.53490 -0.26800
H 	H 	0.02890 0.81750 0.52520 0.14500
C 	C 	0.09230 0.60400 0.56250 0.13700
H 	H 	0.10860 0.55080 0.57140 0.01700
C 	C 	0.95320 0.74240 0.38970 0.26700
C 	C 	0.96660 0.57470 0.98850 0.08000
H 	H 	0.97560 0.52040 0.96960 0.01900
C 	C 	0.12650 0.64580 0.71280 0.32300
C 	C 	0.85340 0.74400 0.44470 0.13600
H 	H 	0.82590 0.72780 0.48690 0.01000
C 	C 	0.89800 0.67290 0.04950 0.23900
C 	C 	0.91090 0.59180 0.02190 -0.23200
H 	H 	0.88280 0.54940 0.02570 0.12300
C 	C 	0.74850 0.88890 0.97350 -0.09600
C 	C 	0.77770 0.83240 0.91990 0.08800
H 	H 	0.77500 0.83860 0.85890 0.02800
C 	C 	0.94020 0.73620 0.04640 -0.18100
H 	H 	0.93140 0.79010 0.06690 0.09900
C 	C 	0.81050 0.76740 0.95340 -0.19000
H 	H 	0.83110 0.73140 0.91590 0.11600
C 	C 	0.91260 0.71910 0.45470 -0.25200
H 	H 	0.92440 0.68770 0.50360 0.12400
C 	C 	0.93550 0.78950 0.31730 -0.25200
H 	H 	0.96260 0.80440 0.27400 0.13400
C 	C 	0.78220 0.81030 0.10100 -0.20600
H 	H 	0.78310 0.80180 0.16180 0.13200
C 	C 	0.81240 0.75640 0.04530 0.22900
C 	C 	0.75050 0.87700 0.06610 0.06100
H 	H 	0.73060 0.91390 0.10350 0.04100
C 	C 	0.71640 0.96220 0.93660 0.30400
C 	C 	0.06800 0.62040 0.94440 0.30100
In	In	0.67101 0.10203 0.86692 1.99600
O 	O 	0.63170 0.20150 0.77310 -0.42600
O 	O 	0.61024 0.17140 0.96150 -0.42100
O 	O 	0.20119 0.46020 0.85510 -0.39600
O 	O 	0.23672 0.30200 0.42360 -0.43100
O 	O 	0.64635 0.07190 0.72570 -0.43200
O 	O 	0.57655 0.05890 0.89430 -0.44800
O 	O 	0.26090 0.37560 0.30890 -0.46000
O 	O 	0.20414 0.52570 0.98340 -0.42800
O 	O 	0.51125 0.21820 0.39150 -0.30400
O 	O 	0.34266 0.19020 0.08320 -0.29300
C 	C 	0.50920 0.13750 0.98280 -0.15300
C 	C 	0.33600 0.29130 0.37420 -0.18200
C 	C 	0.37760 0.31440 0.30970 0.15400
H 	H 	0.36600 0.34670 0.26140 -0.00300
C 	C 	0.27540 0.32400 0.36870 0.35300
C 	C 	0.59770 0.16650 0.62730 -0.16100
C 	C 	0.57470 0.24590 0.61220 0.14600
H 	H 	0.57960 0.28790 0.65460 0.00700
C 	C 	0.53790 0.20060 0.47210 0.30500
C 	C 	0.49460 0.21870 0.01310 0.12600
H 	H 	0.52260 0.26140 0.01040 0.00600
C 	C 	0.56190 0.12250 0.48330 -0.27600
H 	H 	0.55820 0.08180 0.43930 0.16100
C 	C 	0.54450 0.26400 0.53490 -0.27400
H 	H 	0.52890 0.31750 0.52520 0.14100
C 	C 	0.59230 0.10400 0.56250 0.13900
H 	H 	0.60860 0.05080 0.57140 0.01400
C 	C 	0.45320 0.24240 0.38970 0.29900
C 	C 	0.46660 0.07470 0.98850 0.17700
H 	H 	0.47560 0.02040 0.96960 -0.00800
C 	C 	0.62650 0.14580 0.71280 0.32300
C 	C 	0.35340 0.24400 0.44470 0.15100
H 	H 	0.32590 0.22780 0.48690 0.00600
C 	C 	0.39800 0.17290 0.04950 0.29800
C 	C 	0.41090 0.09180 0.02190 -0.30300
H 	H 	0.38280 0.04940 0.02570 0.14900
C 	C 	0.24850 0.38890 0.97350 -0.09700
C 	C 	0.27770 0.33240 0.91990 0.09300
H 	H 	0.27500 0.33860 0.85890 0.02800
C 	C 	0.44020 0.23620 0.04640 -0.27300
H 	H 	0.43140 0.29010 0.06690 0.13400
C 	C 	0.31050 0.26740 0.95340 -0.19600
H 	H 	0.33110 0.23140 0.91590 0.11900
C 	C 	0.41260 0.21910 0.45470 -0.27000
H 	H 	0.42440 0.18770 0.50360 0.13500
C 	C 	0.43550 0.28950 0.31730 -0.27100
H 	H 	0.46260 0.30440 0.27400 0.14600
C 	C 	0.28220 0.31030 0.10100 -0.21000
H 	H 	0.28310 0.30180 0.16180 0.13500
C 	C 	0.31240 0.25640 0.04530 0.23600
C 	C 	0.25050 0.37700 0.06610 0.06500
H 	H 	0.23060 0.41390 0.10350 0.04000
C 	C 	0.21640 0.46220 0.93660 0.30300
C 	C 	0.56800 0.12040 0.94440 0.33700
In	In	0.17101 0.39797 0.36692 1.99600
O 	O 	0.13170 0.29850 0.27310 -0.42700
O 	O 	0.11024 0.32860 0.46150 -0.41800
O 	O 	0.70119 0.03980 0.35510 -0.40400
O 	O 	0.73672 0.19800 0.92360 -0.42500
O 	O 	0.14635 0.42810 0.22570 -0.43200
O 	O 	0.07655 0.44110 0.39430 -0.43800
O 	O 	0.76090 0.12440 0.80890 -0.45700
O 	O 	0.70414 0.97430 0.48340 -0.44000
O 	O 	0.01125 0.28180 0.89150 -0.27500
O 	O 	0.84266 0.30980 0.58320 -0.29000
C 	C 	0.00920 0.36250 0.48280 -0.06300
C 	C 	0.83600 0.20870 0.87420 -0.14800
C 	C 	0.87760 0.18560 0.80970 0.11700
H 	H 	0.86600 0.15330 0.76140 0.01000
C 	C 	0.77540 0.17600 0.86870 0.34000
C 	C 	0.09770 0.33350 0.12730 -0.15400
C 	C 	0.07470 0.25410 0.11220 0.14900
H 	H 	0.07960 0.21210 0.15460 0.00500
C 	C 	0.03790 0.29940 0.97210 0.31900
C 	C 	0.99460 0.28130 0.51310 0.01600
H 	H 	0.02260 0.23860 0.51040 0.06400
C 	C 	0.06190 0.37750 0.98330 -0.24300
H 	H 	0.05820 0.41820 0.93930 0.15500
C 	C 	0.04450 0.23600 0.03490 -0.29500
H 	H 	0.02890 0.18250 0.02520 0.14600
C 	C 	0.09230 0.39600 0.06250 0.10600
H 	H 	0.10860 0.44920 0.07140 0.02000
C 	C 	0.95320 0.25760 0.88970 0.24100
C 	C 	0.96660 0.42530 0.48850 0.05300
H 	H 	0.97560 0.47960 0.46960 0.02300
C 	C 	0.12650 0.35420 0.21280 0.32100
C 	C 	0.85340 0.25600 0.94470 0.09800
H 	H 	0.82590 0.27220 0.98690 0.02800
C 	C 	0.89800 0.32710 0.54950 0.24200
C 	C 	0.91090 0.40820 0.52190 -0.20400
H 	H 	0.88280 0.45060 0.52570 0.12000
C 	C 	0.74850 0.11110 0.47350 -0.16000
C 	C 	0.77770 0.16760 0.41990 0.14700
H 	H 	0.77500 0.16140 0.35890 0.00500
C 	C 	0.94020 0.26380 0.54640 -0.19000
H 	H 	0.93140 0.20990 0.56690 0.10500
C 	C 	0.81050 0.23260 0.45340 -0.26800
H 	H 	0.83110 0.26860 0.41590 0.13600
C 	C 	0.91260 0.28090 0.95470 -0.18700
H 	H 	0.92440 0.31230 0.00360 0.08500
C 	C 	0.93550 0.21050 0.81730 -0.22800
H 	H 	0.96260 0.19560 0.77400 0.12800
C 	C 	0.78220 0.18970 0.60100 -0.26300
H 	H 	0.78310 0.19820 0.66180 0.15300
C 	C 	0.81240 0.24360 0.54530 0.29000
C 	C 	0.75050 0.12300 0.56610 0.13600
H 	H 	0.73060 0.08610 0.60350 0.02000
C 	C 	0.71640 0.03780 0.43660 0.32100
C 	C 	0.06800 0.37960 0.44440 0.30400
In	In	0.67101 0.89797 0.36692 1.99600
O 	O 	0.63170 0.79850 0.27310 -0.42800
O 	O 	0.61024 0.82860 0.46150 -0.42800
O 	O 	0.20119 0.53980 0.35510 -0.40400
O 	O 	0.23672 0.69800 0.92360 -0.42500
O 	O 	0.64635 0.92810 0.22570 -0.43300
O 	O 	0.57655 0.94110 0.39430 -0.45100
O 	O 	0.26090 0.62440 0.80890 -0.45700
O 	O 	0.20414 0.47430 0.48340 -0.44100
O 	O 	0.51125 0.78180 0.89150 -0.29600
O 	O 	0.34266 0.80980 0.58320 -0.30400
C 	C 	0.50920 0.86250 0.48280 -0.17300
C 	C 	0.33600 0.70870 0.87420 -0.15700
C 	C 	0.37760 0.68560 0.80970 0.13200
H 	H 	0.36600 0.65330 0.76140 0.00600
C 	C 	0.27540 0.67600 0.86870 0.34400
C 	C 	0.59770 0.83350 0.12730 -0.15800
C 	C 	0.57470 0.75410 0.11220 0.15000
H 	H 	0.57960 0.71210 0.15460 0.00200
C 	C 	0.53790 0.79940 0.97210 0.32200
C 	C 	0.49460 0.78130 0.51310 0.15800
H 	H 	0.52260 0.73860 0.51040 0.00200
C 	C 	0.56190 0.87750 0.98330 -0.24800
H 	H 	0.55820 0.91820 0.93930 0.15500
C 	C 	0.54450 0.73600 0.03490 -0.30100
H 	H 	0.52890 0.68250 0.02520 0.14300
C 	C 	0.59230 0.89600 0.06250 0.10700
H 	H 	0.60860 0.94920 0.07140 0.01800
C 	C 	0.45320 0.75760 0.88970 0.27300
C 	C 	0.46660 0.92530 0.48850 0.15300
H 	H 	0.47560 0.97960 0.46960 -0.00400
C 	C 	0.62650 0.85420 0.21280 0.32100
C 	C 	0.35340 0.75600 0.94470 0.11200
H 	H 	0.32590 0.77220 0.98690 0.02500
C 	C 	0.39800 0.82710 0.54950 0.30300
C 	C 	0.41090 0.90820 0.52190 -0.27600
H 	H 	0.38280 0.95060 0.52570 0.14700
C 	C 	0.24850 0.61110 0.47350 -0.16200
C 	C 	0.27770 0.66760 0.41990 0.15200
H 	H 	0.27500 0.66140 0.35890 0.00400
C 	C 	0.44020 0.76380 0.54640 -0.28300
H 	H 	0.43140 0.70990 0.56690 0.14100
C 	C 	0.31050 0.73260 0.45340 -0.27300
H 	H 	0.33110 0.76860 0.41590 0.13900
C 	C 	0.41260 0.78090 0.95470 -0.20200
H 	H 	0.42440 0.81230 0.00360 0.09500
C 	C 	0.43550 0.71050 0.81730 -0.24600
H 	H 	0.46260 0.69560 0.77400 0.14000
C 	C 	0.28220 0.68970 0.60100 -0.26700
H 	H 	0.28310 0.69820 0.66180 0.15500
C 	C 	0.31240 0.74360 0.54530 0.29700
C 	C 	0.25050 0.62300 0.56610 0.14000
H 	H 	0.23060 0.58610 0.60350 0.01900
C 	C 	0.21640 0.53780 0.43660 0.32300
C 	C 	0.56800 0.87960 0.44440 0.34100
