data_crystal

_cell_length_a 13.75480
_cell_length_b 13.75480
_cell_length_c 38.16120
_cell_angle_alpha 90.00000
_cell_angle_beta  90.00000
_cell_angle_gamma 90.00000

_symmetry_space_group_name_	'P 1'
_symmetry_space_group_name_H-M	'P 1'

loop_
_symmetry_equiv_pos_as_xyz
  x,y,z

loop_
_atom_site_label
_atom_site_type_symbol
_atom_site_fract_x
_atom_site_fract_y
_atom_site_fract_z
_atom_site_charge
In	In	0.28660 0.94973 0.08505 1.99800
O 	O 	0.41750 0.89300 0.05660 -0.46100
O 	O 	0.43880 0.95420 0.10880 -0.47100
O 	O 	0.73780 0.60830 0.11210 -0.41100
O 	O 	0.76770 0.71200 0.15440 -0.43900
O 	O 	0.31540 0.08900 0.05650 -0.45300
O 	O 	0.26920 0.09630 0.11130 -0.43300
O 	O 	0.53000 0.46700 0.07470 -0.28100
O 	O 	0.48890 0.46710 0.13020 -0.27200
O 	O 	0.20790 0.90970 0.03240 -0.42300
O 	O 	0.12450 0.96890 0.07430 -0.43800
C 	C 	0.57680 0.88670 0.07950 -0.28000
H 	H 	0.59470 0.88290 0.05460 0.11700
C 	C 	0.59910 0.79040 0.09570 0.26800
C 	C 	0.71330 0.77780 0.09950 0.04900
C 	C 	0.71650 0.88290 0.11780 -0.21100
H 	H 	0.78300 0.90640 0.11790 0.09900
H 	H 	0.69550 0.87670 0.14200 0.10100
C 	C 	0.64550 0.96450 0.09740 0.01300
H 	H 	0.61100 0.00650 0.11360 0.02800
H 	H 	0.68100 0.00330 0.08040 0.02000
C 	C 	0.74510 0.76230 0.06280 -0.56700
H 	H 	0.72890 0.69740 0.05560 0.21500
H 	H 	0.81410 0.77160 0.06120 0.19900
H 	H 	0.71280 0.80810 0.04780 0.19300
C 	C 	0.53950 0.75190 0.12450 -0.84900
H 	H 	0.55290 0.78780 0.14550 0.29100
H 	H 	0.55480 0.68460 0.12810 0.30200
H 	H 	0.47190 0.75830 0.11870 0.29400
C 	C 	0.47370 0.91750 0.08130 0.36100
C 	C 	0.74320 0.69910 0.12410 0.23000
C 	C 	0.29180 0.24530 0.08240 0.01700
C 	C 	0.38390 0.29600 0.10140 0.24700
C 	C 	0.38340 0.39910 0.08980 -0.26700
H 	H 	0.33340 0.43190 0.10380 0.11000
C 	C 	0.34800 0.40280 0.05150 0.03200
H 	H 	0.40160 0.41450 0.03550 0.03600
H 	H 	0.29910 0.45270 0.04830 0.01800
C 	C 	0.30440 0.29920 0.04630 -0.19400
H 	H 	0.34700 0.26140 0.03130 0.09600
H 	H 	0.24170 0.30440 0.03490 0.09400
C 	C 	0.19090 0.28350 0.09900 -0.49100
H 	H 	0.18240 0.25600 0.12190 0.18300
H 	H 	0.13780 0.26400 0.08420 0.18200
H 	H 	0.19230 0.35310 0.10070 0.17100
C 	C 	0.47160 0.23790 0.09480 -0.79000
H 	H 	0.46120 0.17230 0.10250 0.26900
H 	H 	0.52540 0.26560 0.10730 0.26900
H 	H 	0.48550 0.23790 0.07010 0.27300
C 	C 	0.29010 0.13410 0.08270 0.27200
C 	C 	0.48070 0.44920 0.09890 0.39400
C 	C 	0.04430 0.94120 0.02000 -0.12000
C 	C 	0.05900 0.89400 0.98030 0.02300
C 	C 	0.95200 0.93900 0.04110 0.01800
C 	C 	0.12760 0.93780 0.04330 0.34700
In	In	0.71340 0.05027 0.58505 1.99700
O 	O 	0.58250 0.10700 0.55660 -0.46200
O 	O 	0.56120 0.04580 0.60880 -0.47200
O 	O 	0.26220 0.39170 0.61210 -0.41200
O 	O 	0.23230 0.28800 0.65440 -0.44000
O 	O 	0.68460 0.91100 0.55650 -0.45400
O 	O 	0.73080 0.90370 0.61130 -0.43400
O 	O 	0.47000 0.53300 0.57470 -0.28200
O 	O 	0.51110 0.53290 0.63020 -0.27300
O 	O 	0.79210 0.09030 0.53240 -0.42400
O 	O 	0.87550 0.03110 0.57430 -0.43900
C 	C 	0.42320 0.11330 0.57950 -0.28000
H 	H 	0.40530 0.11710 0.55460 0.11700
C 	C 	0.40090 0.20960 0.59570 0.26800
C 	C 	0.28670 0.22220 0.59950 0.04900
C 	C 	0.28350 0.11710 0.61780 -0.21100
H 	H 	0.21700 0.09360 0.61790 0.09900
H 	H 	0.30450 0.12330 0.64200 0.10100
C 	C 	0.35450 0.03550 0.59740 0.01300
H 	H 	0.38900 0.99350 0.61360 0.02800
H 	H 	0.31900 0.99670 0.58040 0.02000
C 	C 	0.25490 0.23770 0.56280 -0.56800
H 	H 	0.27110 0.30260 0.55560 0.21500
H 	H 	0.18590 0.22840 0.56120 0.19900
H 	H 	0.28720 0.19190 0.54780 0.19300
C 	C 	0.46050 0.24810 0.62450 -0.84900
H 	H 	0.44710 0.21220 0.64550 0.29100
H 	H 	0.44520 0.31540 0.62810 0.30200
H 	H 	0.52810 0.24170 0.61870 0.29400
C 	C 	0.52630 0.08250 0.58130 0.36100
C 	C 	0.25680 0.30090 0.62410 0.23000
C 	C 	0.70820 0.75470 0.58240 0.01700
C 	C 	0.61610 0.70400 0.60140 0.24700
C 	C 	0.61660 0.60090 0.58980 -0.26700
H 	H 	0.66660 0.56810 0.60380 0.11000
C 	C 	0.65200 0.59720 0.55150 0.03200
H 	H 	0.59840 0.58550 0.53550 0.03600
H 	H 	0.70090 0.54730 0.54830 0.01800
C 	C 	0.69560 0.70080 0.54630 -0.19400
H 	H 	0.65300 0.73860 0.53130 0.09600
H 	H 	0.75830 0.69560 0.53490 0.09400
C 	C 	0.80910 0.71650 0.59900 -0.49100
H 	H 	0.81760 0.74400 0.62190 0.18300
H 	H 	0.86220 0.73600 0.58420 0.18200
H 	H 	0.80770 0.64690 0.60070 0.17100
C 	C 	0.52840 0.76210 0.59480 -0.79000
H 	H 	0.53880 0.82770 0.60250 0.26900
H 	H 	0.47460 0.73440 0.60730 0.26900
H 	H 	0.51450 0.76210 0.57010 0.27300
C 	C 	0.70990 0.86590 0.58270 0.27200
C 	C 	0.51930 0.55080 0.59890 0.39400
C 	C 	0.95570 0.05880 0.52000 -0.11900
C 	C 	0.94100 0.10600 0.48030 0.02200
C 	C 	0.04800 0.06100 0.54110 0.01800
C 	C 	0.87240 0.06220 0.54330 0.34700
In	In	0.55027 0.78660 0.83505 1.99800
O 	O 	0.60700 0.91750 0.80660 -0.46200
O 	O 	0.54580 0.93880 0.85880 -0.47200
O 	O 	0.89170 0.23780 0.86210 -0.41200
O 	O 	0.78800 0.26770 0.90440 -0.43900
O 	O 	0.41100 0.81540 0.80650 -0.45500
O 	O 	0.40370 0.76920 0.86130 -0.43500
O 	O 	0.03300 0.03000 0.82470 -0.28000
O 	O 	0.03290 0.98890 0.88020 -0.27200
O 	O 	0.59030 0.70790 0.78240 -0.42300
O 	O 	0.53110 0.62450 0.82430 -0.43800
C 	C 	0.61330 0.07680 0.82950 -0.28100
H 	H 	0.61710 0.09470 0.80460 0.11700
C 	C 	0.70960 0.09910 0.84570 0.26800
C 	C 	0.72220 0.21330 0.84950 0.05000
C 	C 	0.61710 0.21650 0.86780 -0.21400
H 	H 	0.59360 0.28300 0.86790 0.10000
H 	H 	0.62330 0.19550 0.89200 0.10200
C 	C 	0.53550 0.14550 0.84740 0.02100
H 	H 	0.49350 0.11100 0.86360 0.02500
H 	H 	0.49670 0.18100 0.83040 0.01700
C 	C 	0.73770 0.24510 0.81280 -0.56900
H 	H 	0.80260 0.22890 0.80560 0.21500
H 	H 	0.72840 0.31410 0.81120 0.20000
H 	H 	0.69190 0.21280 0.79780 0.19400
C 	C 	0.74810 0.03950 0.87450 -0.84700
H 	H 	0.71220 0.05290 0.89550 0.29000
H 	H 	0.81540 0.05480 0.87810 0.30100
H 	H 	0.74170 0.97190 0.86870 0.29300
C 	C 	0.58250 0.97370 0.83130 0.36200
C 	C 	0.80090 0.24320 0.87410 0.22900
C 	C 	0.25470 0.79180 0.83240 0.01700
C 	C 	0.20400 0.88390 0.85140 0.24800
C 	C 	0.10090 0.88340 0.83980 -0.26700
H 	H 	0.06810 0.83340 0.85380 0.11000
C 	C 	0.09720 0.84800 0.80150 0.03200
H 	H 	0.08550 0.90160 0.78550 0.03600
H 	H 	0.04730 0.79910 0.79830 0.01800
C 	C 	0.20080 0.80440 0.79630 -0.19400
H 	H 	0.23860 0.84700 0.78130 0.09600
H 	H 	0.19560 0.74170 0.78490 0.09400
C 	C 	0.21650 0.69090 0.84900 -0.49000
H 	H 	0.24400 0.68240 0.87190 0.18300
H 	H 	0.23600 0.63780 0.83420 0.18100
H 	H 	0.14690 0.69230 0.85070 0.17000
C 	C 	0.26210 0.97160 0.84480 -0.79600
H 	H 	0.32770 0.96120 0.85250 0.27100
H 	H 	0.23440 0.02540 0.85730 0.27200
H 	H 	0.26210 0.98550 0.82010 0.27500
C 	C 	0.36590 0.79010 0.83270 0.27300
C 	C 	0.05080 0.98070 0.84890 0.39200
C 	C 	0.55880 0.54430 0.77000 -0.11800
C 	C 	0.60600 0.55900 0.73030 0.02200
C 	C 	0.56100 0.45200 0.79110 0.02000
C 	C 	0.56220 0.62760 0.79330 0.34600
In	In	0.44973 0.21340 0.33505 1.99800
O 	O 	0.39300 0.08250 0.30660 -0.46200
O 	O 	0.45420 0.06120 0.35880 -0.47200
O 	O 	0.10830 0.76220 0.36210 -0.41200
O 	O 	0.21200 0.73230 0.40440 -0.43900
O 	O 	0.58900 0.18460 0.30650 -0.45500
O 	O 	0.59630 0.23080 0.36130 -0.43600
O 	O 	0.96700 0.97000 0.32470 -0.28000
O 	O 	0.96710 0.01110 0.38020 -0.27200
O 	O 	0.40970 0.29210 0.28240 -0.42300
O 	O 	0.46890 0.37550 0.32430 -0.43800
C 	C 	0.38670 0.92320 0.32950 -0.28100
H 	H 	0.38290 0.90530 0.30460 0.11700
C 	C 	0.29040 0.90090 0.34570 0.26800
C 	C 	0.27780 0.78670 0.34950 0.05000
C 	C 	0.38290 0.78350 0.36780 -0.21400
H 	H 	0.40640 0.71700 0.36790 0.10000
H 	H 	0.37670 0.80450 0.39200 0.10200
C 	C 	0.46450 0.85450 0.34740 0.02100
H 	H 	0.50650 0.88900 0.36360 0.02500
H 	H 	0.50330 0.81900 0.33040 0.01700
C 	C 	0.26230 0.75490 0.31280 -0.56900
H 	H 	0.19740 0.77110 0.30560 0.21500
H 	H 	0.27160 0.68590 0.31120 0.20000
H 	H 	0.30810 0.78720 0.29780 0.19400
C 	C 	0.25190 0.96050 0.37450 -0.84600
H 	H 	0.28780 0.94710 0.39550 0.29000
H 	H 	0.18460 0.94520 0.37810 0.30100
H 	H 	0.25830 0.02810 0.36870 0.29300
C 	C 	0.41750 0.02630 0.33130 0.36200
C 	C 	0.19910 0.75680 0.37410 0.22900
C 	C 	0.74530 0.20820 0.33240 0.01700
C 	C 	0.79600 0.11610 0.35140 0.24800
C 	C 	0.89910 0.11660 0.33980 -0.26700
H 	H 	0.93190 0.16660 0.35380 0.11000
C 	C 	0.90280 0.15200 0.30150 0.03200
H 	H 	0.91450 0.09840 0.28550 0.03600
H 	H 	0.95270 0.20090 0.29830 0.01800
C 	C 	0.79920 0.19560 0.29630 -0.19400
H 	H 	0.76140 0.15300 0.28130 0.09600
H 	H 	0.80440 0.25830 0.28490 0.09400
C 	C 	0.78350 0.30910 0.34900 -0.49000
H 	H 	0.75600 0.31760 0.37190 0.18300
H 	H 	0.76400 0.36220 0.33420 0.18100
H 	H 	0.85310 0.30770 0.35070 0.17000
C 	C 	0.73790 0.02840 0.34480 -0.79600
H 	H 	0.67230 0.03880 0.35250 0.27100
H 	H 	0.76560 0.97460 0.35730 0.27200
H 	H 	0.73790 0.01450 0.32010 0.27500
C 	C 	0.63410 0.20990 0.33270 0.27300
C 	C 	0.94920 0.01930 0.34890 0.39200
C 	C 	0.44120 0.45570 0.27000 -0.11800
C 	C 	0.39400 0.44100 0.23030 0.02200
C 	C 	0.43900 0.54800 0.29110 0.02000
C 	C 	0.43780 0.37240 0.29330 0.34600
In	In	0.21340 0.44973 0.66495 1.99800
O 	O 	0.08250 0.39300 0.69340 -0.46200
O 	O 	0.06120 0.45420 0.64120 -0.47200
O 	O 	0.76220 0.10830 0.63790 -0.41200
O 	O 	0.73230 0.21200 0.59560 -0.43900
O 	O 	0.18460 0.58900 0.69350 -0.45500
O 	O 	0.23080 0.59630 0.63870 -0.43600
O 	O 	0.97000 0.96700 0.67530 -0.28000
O 	O 	0.01110 0.96710 0.61980 -0.27200
O 	O 	0.29210 0.40970 0.71760 -0.42300
O 	O 	0.37550 0.46890 0.67570 -0.43800
C 	C 	0.92320 0.38670 0.67050 -0.28100
H 	H 	0.90530 0.38290 0.69540 0.11700
C 	C 	0.90090 0.29040 0.65430 0.26800
C 	C 	0.78670 0.27780 0.65050 0.05000
C 	C 	0.78350 0.38290 0.63220 -0.21400
H 	H 	0.71700 0.40640 0.63210 0.10000
H 	H 	0.80450 0.37670 0.60800 0.10200
C 	C 	0.85450 0.46450 0.65260 0.02100
H 	H 	0.88900 0.50650 0.63640 0.02500
H 	H 	0.81900 0.50330 0.66960 0.01700
C 	C 	0.75490 0.26230 0.68720 -0.56900
H 	H 	0.77110 0.19740 0.69440 0.21500
H 	H 	0.68590 0.27160 0.68880 0.20000
H 	H 	0.78720 0.30810 0.70220 0.19400
C 	C 	0.96050 0.25190 0.62550 -0.84600
H 	H 	0.94710 0.28780 0.60450 0.29000
H 	H 	0.94520 0.18460 0.62190 0.30100
H 	H 	0.02810 0.25830 0.63130 0.29300
C 	C 	0.02630 0.41750 0.66870 0.36200
C 	C 	0.75680 0.19910 0.62590 0.22900
C 	C 	0.20820 0.74530 0.66760 0.01700
C 	C 	0.11610 0.79600 0.64860 0.24800
C 	C 	0.11660 0.89910 0.66020 -0.26700
H 	H 	0.16660 0.93190 0.64620 0.11000
C 	C 	0.15200 0.90280 0.69850 0.03200
H 	H 	0.09840 0.91450 0.71450 0.03600
H 	H 	0.20090 0.95270 0.70170 0.01800
C 	C 	0.19560 0.79920 0.70370 -0.19400
H 	H 	0.15300 0.76140 0.71870 0.09600
H 	H 	0.25830 0.80440 0.71510 0.09400
C 	C 	0.30910 0.78350 0.65100 -0.49000
H 	H 	0.31760 0.75600 0.62810 0.18300
H 	H 	0.36220 0.76400 0.66580 0.18100
H 	H 	0.30770 0.85310 0.64930 0.17000
C 	C 	0.02840 0.73790 0.65520 -0.79600
H 	H 	0.03880 0.67230 0.64750 0.27100
H 	H 	0.97460 0.76560 0.64270 0.27200
H 	H 	0.01450 0.73790 0.67990 0.27500
C 	C 	0.20990 0.63410 0.66730 0.27300
C 	C 	0.01930 0.94920 0.65110 0.39200
C 	C 	0.45570 0.44120 0.73000 -0.11800
C 	C 	0.44100 0.39400 0.76970 0.02200
C 	C 	0.54800 0.43900 0.70890 0.02000
C 	C 	0.37240 0.43780 0.70670 0.34600
In	In	0.78660 0.55027 0.16495 1.99800
O 	O 	0.91750 0.60700 0.19340 -0.46200
O 	O 	0.93880 0.54580 0.14120 -0.47200
O 	O 	0.23780 0.89170 0.13790 -0.41200
O 	O 	0.26770 0.78800 0.09560 -0.43900
O 	O 	0.81540 0.41100 0.19350 -0.45500
O 	O 	0.76920 0.40370 0.13870 -0.43600
O 	O 	0.03000 0.03300 0.17530 -0.28000
O 	O 	0.98890 0.03290 0.11980 -0.27200
O 	O 	0.70790 0.59030 0.21760 -0.42300
O 	O 	0.62450 0.53110 0.17570 -0.43800
C 	C 	0.07680 0.61330 0.17050 -0.28100
H 	H 	0.09470 0.61710 0.19540 0.11700
C 	C 	0.09910 0.70960 0.15430 0.26800
C 	C 	0.21330 0.72220 0.15050 0.05000
C 	C 	0.21650 0.61710 0.13220 -0.21400
H 	H 	0.28300 0.59360 0.13210 0.10000
H 	H 	0.19550 0.62330 0.10800 0.10200
C 	C 	0.14550 0.53550 0.15260 0.02100
H 	H 	0.11100 0.49350 0.13640 0.02500
H 	H 	0.18100 0.49670 0.16960 0.01700
C 	C 	0.24510 0.73770 0.18720 -0.56900
H 	H 	0.22890 0.80260 0.19440 0.21500
H 	H 	0.31410 0.72840 0.18880 0.20000
H 	H 	0.21280 0.69190 0.20220 0.19400
C 	C 	0.03950 0.74810 0.12550 -0.84700
H 	H 	0.05290 0.71220 0.10450 0.29000
H 	H 	0.05480 0.81540 0.12190 0.30100
H 	H 	0.97190 0.74170 0.13130 0.29300
C 	C 	0.97370 0.58250 0.16870 0.36200
C 	C 	0.24320 0.80090 0.12590 0.22900
C 	C 	0.79180 0.25470 0.16760 0.01700
C 	C 	0.88390 0.20400 0.14860 0.24800
C 	C 	0.88340 0.10090 0.16020 -0.26700
H 	H 	0.83340 0.06810 0.14620 0.11000
C 	C 	0.84800 0.09720 0.19850 0.03200
H 	H 	0.90160 0.08550 0.21450 0.03600
H 	H 	0.79910 0.04730 0.20170 0.01800
C 	C 	0.80440 0.20080 0.20370 -0.19400
H 	H 	0.84700 0.23860 0.21870 0.09600
H 	H 	0.74170 0.19560 0.21510 0.09400
C 	C 	0.69090 0.21650 0.15100 -0.49000
H 	H 	0.68240 0.24400 0.12810 0.18300
H 	H 	0.63780 0.23600 0.16580 0.18100
H 	H 	0.69230 0.14690 0.14930 0.17000
C 	C 	0.97160 0.26210 0.15520 -0.79600
H 	H 	0.96120 0.32770 0.14750 0.27100
H 	H 	0.02540 0.23440 0.14270 0.27200
H 	H 	0.98550 0.26210 0.17990 0.27500
C 	C 	0.79010 0.36590 0.16730 0.27300
C 	C 	0.98070 0.05080 0.15110 0.39200
C 	C 	0.54430 0.55880 0.23000 -0.11800
C 	C 	0.55900 0.60600 0.26970 0.02200
C 	C 	0.45200 0.56100 0.20890 0.02000
C 	C 	0.62760 0.56220 0.20670 0.34600
In	In	0.94973 0.28660 0.91495 1.99700
O 	O 	0.89300 0.41750 0.94340 -0.46200
O 	O 	0.95420 0.43880 0.89120 -0.47200
O 	O 	0.60830 0.73780 0.88790 -0.41200
O 	O 	0.71200 0.76770 0.84560 -0.44000
O 	O 	0.08900 0.31540 0.94350 -0.45400
O 	O 	0.09630 0.26920 0.88870 -0.43400
O 	O 	0.46700 0.53000 0.92530 -0.28200
O 	O 	0.46710 0.48890 0.86980 -0.27300
O 	O 	0.90970 0.20790 0.96760 -0.42400
O 	O 	0.96890 0.12450 0.92570 -0.43900
C 	C 	0.88670 0.57680 0.92050 -0.28000
H 	H 	0.88290 0.59470 0.94540 0.11700
C 	C 	0.79040 0.59910 0.90430 0.26800
C 	C 	0.77780 0.71330 0.90050 0.04900
C 	C 	0.88290 0.71650 0.88220 -0.21100
H 	H 	0.90640 0.78300 0.88210 0.09900
H 	H 	0.87670 0.69550 0.85800 0.10100
C 	C 	0.96450 0.64550 0.90260 0.01300
H 	H 	0.00650 0.61100 0.88640 0.02800
H 	H 	0.00330 0.68100 0.91960 0.02000
C 	C 	0.76230 0.74510 0.93720 -0.56800
H 	H 	0.69740 0.72890 0.94440 0.21500
H 	H 	0.77160 0.81410 0.93880 0.19900
H 	H 	0.80810 0.71280 0.95220 0.19300
C 	C 	0.75190 0.53950 0.87550 -0.84900
H 	H 	0.78780 0.55290 0.85450 0.29100
H 	H 	0.68460 0.55480 0.87190 0.30200
H 	H 	0.75830 0.47190 0.88130 0.29400
C 	C 	0.91750 0.47370 0.91870 0.36100
C 	C 	0.69910 0.74320 0.87590 0.23000
C 	C 	0.24530 0.29180 0.91760 0.01700
C 	C 	0.29600 0.38390 0.89860 0.24700
C 	C 	0.39910 0.38340 0.91020 -0.26700
H 	H 	0.43190 0.33340 0.89620 0.11000
C 	C 	0.40280 0.34800 0.94850 0.03200
H 	H 	0.41450 0.40160 0.96450 0.03600
H 	H 	0.45270 0.29910 0.95170 0.01800
C 	C 	0.29920 0.30440 0.95370 -0.19400
H 	H 	0.26140 0.34700 0.96870 0.09600
H 	H 	0.30440 0.24170 0.96510 0.09500
C 	C 	0.28350 0.19090 0.90100 -0.49100
H 	H 	0.25600 0.18240 0.87810 0.18300
H 	H 	0.26400 0.13780 0.91580 0.18200
H 	H 	0.35310 0.19230 0.89930 0.17100
C 	C 	0.23790 0.47160 0.90520 -0.79000
H 	H 	0.17230 0.46120 0.89750 0.26900
H 	H 	0.26560 0.52540 0.89270 0.26900
H 	H 	0.23790 0.48550 0.92990 0.27300
C 	C 	0.13410 0.29010 0.91730 0.27200
C 	C 	0.44920 0.48070 0.90110 0.39400
C 	C 	0.94120 0.04430 0.98000 -0.11900
C 	C 	0.89400 0.05900 0.01970 0.02200
C 	C 	0.93900 0.95200 0.95890 0.01800
C 	C 	0.93780 0.12760 0.95670 0.34700
In	In	0.05027 0.71340 0.41495 1.99700
O 	O 	0.10700 0.58250 0.44340 -0.46200
O 	O 	0.04580 0.56120 0.39120 -0.47200
O 	O 	0.39170 0.26220 0.38790 -0.41200
O 	O 	0.28800 0.23230 0.34560 -0.44000
O 	O 	0.91100 0.68460 0.44350 -0.45400
O 	O 	0.90370 0.73080 0.38870 -0.43400
O 	O 	0.53300 0.47000 0.42530 -0.28200
O 	O 	0.53290 0.51110 0.36980 -0.27300
O 	O 	0.09030 0.79210 0.46760 -0.42400
O 	O 	0.03110 0.87550 0.42570 -0.43900
C 	C 	0.11330 0.42320 0.42050 -0.28000
H 	H 	0.11710 0.40530 0.44540 0.11700
C 	C 	0.20960 0.40090 0.40430 0.26800
C 	C 	0.22220 0.28670 0.40050 0.04900
C 	C 	0.11710 0.28350 0.38220 -0.21100
H 	H 	0.09360 0.21700 0.38210 0.09900
H 	H 	0.12330 0.30450 0.35800 0.10100
C 	C 	0.03550 0.35450 0.40260 0.01300
H 	H 	0.99350 0.38900 0.38640 0.02800
H 	H 	0.99670 0.31900 0.41960 0.02000
C 	C 	0.23770 0.25490 0.43720 -0.56800
H 	H 	0.30260 0.27110 0.44440 0.21500
H 	H 	0.22840 0.18590 0.43880 0.19900
H 	H 	0.19190 0.28720 0.45220 0.19300
C 	C 	0.24810 0.46050 0.37550 -0.84900
H 	H 	0.21220 0.44710 0.35450 0.29100
H 	H 	0.31540 0.44520 0.37190 0.30200
H 	H 	0.24170 0.52810 0.38130 0.29400
C 	C 	0.08250 0.52630 0.41870 0.36100
C 	C 	0.30090 0.25680 0.37590 0.23000
C 	C 	0.75470 0.70820 0.41760 0.01700
C 	C 	0.70400 0.61610 0.39860 0.24700
C 	C 	0.60090 0.61660 0.41020 -0.26700
H 	H 	0.56810 0.66660 0.39620 0.11000
C 	C 	0.59720 0.65200 0.44850 0.03200
H 	H 	0.58550 0.59840 0.46450 0.03600
H 	H 	0.54730 0.70090 0.45170 0.01800
C 	C 	0.70080 0.69560 0.45370 -0.19400
H 	H 	0.73860 0.65300 0.46870 0.09600
H 	H 	0.69560 0.75830 0.46510 0.09400
C 	C 	0.71650 0.80910 0.40100 -0.49100
H 	H 	0.74400 0.81760 0.37810 0.18300
H 	H 	0.73600 0.86220 0.41580 0.18200
H 	H 	0.64690 0.80770 0.39930 0.17100
C 	C 	0.76210 0.52840 0.40520 -0.79000
H 	H 	0.82770 0.53880 0.39750 0.26900
H 	H 	0.73440 0.47460 0.39270 0.26900
H 	H 	0.76210 0.51450 0.42990 0.27300
C 	C 	0.86590 0.70990 0.41730 0.27200
C 	C 	0.55080 0.51930 0.40110 0.39400
C 	C 	0.05880 0.95570 0.48000 -0.11900
C 	C 	0.10600 0.94100 0.51970 0.02200
C 	C 	0.06100 0.04800 0.45890 0.01800
C 	C 	0.06220 0.87240 0.45670 0.34700
C 	C 	0.03600 0.03600 -0.00000 0.08900
C 	C 	0.09800 0.09800 -0.00000 -0.03000
C 	C 	0.96400 0.96400 0.50000 0.08900
C 	C 	0.90200 0.90200 0.50000 -0.03000
C 	C 	0.46400 0.53600 0.75000 0.08400
C 	C 	0.40200 0.59800 0.75000 -0.02900
C 	C 	0.53600 0.46400 0.25000 0.08400
C 	C 	0.59800 0.40200 0.25000 -0.02900
