data_crystal

_cell_length_a 10.74900
_cell_length_b 18.05800
_cell_length_c 18.05800
_cell_angle_alpha 90.00000
_cell_angle_beta  90.00000
_cell_angle_gamma 90.00000

_symmetry_space_group_name_	'P 1'
_symmetry_space_group_name_H-M	'P 1'

loop_
_symmetry_equiv_pos_as_xyz
  x,y,z

loop_
_atom_site_label
_atom_site_type_symbol
_atom_site_fract_x
_atom_site_fract_y
_atom_site_fract_z
_atom_site_charge
O 	O 	0.16970 0.09930 0.32010 -0.48400
O 	O 	0.97150 0.07390 0.30760 -0.45000
O 	O 	0.28460 0.94670 0.32550 -0.33700
O 	O 	0.08700 0.92890 0.34700 -0.39400
C 	C 	0.02560 0.18530 0.37430 -0.09900
C 	C 	0.13090 0.20750 0.42670 0.00900
C 	C 	0.89760 0.19430 0.40740 0.02200
C 	C 	0.96160 0.24670 0.32410 -0.08400
C 	C 	0.95920 0.24100 0.25320 0.06400
C 	C 	0.83180 0.22850 0.29980 0.02100
C 	C 	0.05480 0.11510 0.33280 0.30600
C 	C 	0.23020 0.87420 0.43440 -0.06900
C 	C 	0.12000 0.83450 0.46880 0.04000
C 	C 	0.29010 0.92620 0.49730 -0.00000
C 	C 	0.42400 0.94750 0.48600 0.07700
C 	C 	0.21510 0.99890 0.50720 0.04400
C 	C 	0.33990 0.81970 0.41760 0.03900
C 	C 	0.20030 0.91830 0.36470 0.29400
O 	O 	0.66970 0.59930 0.82010 -0.43700
O 	O 	0.47150 0.57390 0.80760 -0.39600
O 	O 	0.78460 0.44670 0.82550 -0.40000
O 	O 	0.58700 0.42890 0.84700 -0.44700
C 	C 	0.52560 0.68530 0.87430 -0.09400
C 	C 	0.63090 0.70750 0.92670 0.04000
C 	C 	0.39760 0.69430 0.90740 0.04600
C 	C 	0.46160 0.74670 0.82410 -0.08300
C 	C 	0.45920 0.74100 0.75320 0.06100
C 	C 	0.33180 0.72850 0.79980 0.04100
C 	C 	0.55480 0.61510 0.83280 0.30800
C 	C 	0.73020 0.37420 0.93440 -0.08100
C 	C 	0.62000 0.33450 0.96880 0.03400
C 	C 	0.79010 0.42620 0.99730 0.01800
C 	C 	0.92400 0.44750 0.98600 0.02600
C 	C 	0.71510 0.49890 0.00720 0.00000
C 	C 	0.83990 0.31970 0.91760 0.02800
C 	C 	0.70030 0.41830 0.86470 0.30600
O 	O 	0.33030 0.90070 0.82010 -0.38000
O 	O 	0.52850 0.92610 0.80760 -0.32900
O 	O 	0.21540 0.05330 0.82550 -0.45200
O 	O 	0.41300 0.07110 0.84700 -0.48700
C 	C 	0.47440 0.81470 0.87430 -0.07500
C 	C 	0.36910 0.79250 0.92670 0.06400
C 	C 	0.60240 0.80570 0.90740 0.05100
C 	C 	0.53840 0.75330 0.82410 0.11700
C 	C 	0.54080 0.75900 0.75320 -0.05500
C 	C 	0.66820 0.77150 0.79980 0.02700
C 	C 	0.44520 0.88490 0.83280 0.30400
C 	C 	0.26980 0.12580 0.93440 -0.09700
C 	C 	0.38000 0.16550 0.96880 0.03600
C 	C 	0.20990 0.07380 0.99730 0.03700
C 	C 	0.07600 0.05250 0.98600 -0.02400
C 	C 	0.28490 0.00110 0.00720 -0.04100
C 	C 	0.16010 0.18030 0.91760 0.03100
C 	C 	0.29970 0.08170 0.86470 0.32000
O 	O 	0.83030 0.40070 0.32010 -0.43800
O 	O 	0.02850 0.42610 0.30760 -0.39400
O 	O 	0.71540 0.55330 0.32550 -0.39900
O 	O 	0.91300 0.57110 0.34700 -0.44800
C 	C 	0.97440 0.31470 0.37430 -0.07900
C 	C 	0.86910 0.29250 0.42670 0.03300
C 	C 	0.10240 0.30570 0.40740 0.02500
C 	C 	0.03840 0.25330 0.32410 0.13300
C 	C 	0.04080 0.25900 0.25320 -0.06700
C 	C 	0.16820 0.27150 0.29980 0.00700
C 	C 	0.94520 0.38490 0.33280 0.30500
C 	C 	0.76980 0.62580 0.43440 -0.08500
C 	C 	0.88000 0.66550 0.46880 0.04100
C 	C 	0.70990 0.57380 0.49730 0.02100
C 	C 	0.57600 0.55250 0.48600 0.02500
C 	C 	0.78490 0.50110 0.50720 0.00200
C 	C 	0.66010 0.68030 0.41760 0.04300
C 	C 	0.79970 0.58170 0.36470 0.31000
O 	O 	0.83030 0.59930 0.17990 -0.43600
O 	O 	0.02850 0.57390 0.19240 -0.39500
O 	O 	0.71540 0.44670 0.17450 -0.40000
O 	O 	0.91300 0.42890 0.15300 -0.44700
C 	C 	0.97440 0.68530 0.12570 -0.09800
C 	C 	0.86910 0.70750 0.07330 0.04000
C 	C 	0.10240 0.69430 0.09260 0.05100
C 	C 	0.03840 0.74670 0.17590 -0.11400
C 	C 	0.04080 0.74100 0.24680 0.08900
C 	C 	0.16820 0.72850 0.20020 0.04200
C 	C 	0.94520 0.61510 0.16720 0.30700
C 	C 	0.76980 0.37420 0.06560 -0.08100
C 	C 	0.88000 0.33450 0.03120 0.03400
C 	C 	0.70990 0.42620 0.00270 0.02100
C 	C 	0.57600 0.44750 0.01400 0.02600
C 	C 	0.78490 0.49890 0.99280 0.00300
C 	C 	0.66010 0.31970 0.08240 0.02700
C 	C 	0.79970 0.41830 0.13530 0.30600
O 	O 	0.33030 0.09930 0.67990 -0.48400
O 	O 	0.52850 0.07390 0.69240 -0.45200
O 	O 	0.21540 0.94670 0.67450 -0.33700
O 	O 	0.41300 0.92890 0.65300 -0.39500
C 	C 	0.47440 0.18530 0.62570 -0.09800
C 	C 	0.36910 0.20750 0.57330 0.00900
C 	C 	0.60240 0.19430 0.59260 0.02000
C 	C 	0.53840 0.24670 0.67590 -0.07600
C 	C 	0.54080 0.24100 0.74680 0.05600
C 	C 	0.66820 0.22850 0.70020 0.02100
C 	C 	0.44520 0.11510 0.66720 0.30800
C 	C 	0.26980 0.87420 0.56560 -0.06900
C 	C 	0.38000 0.83450 0.53120 0.04000
C 	C 	0.20990 0.92620 0.50270 0.00200
C 	C 	0.07600 0.94750 0.51400 0.07700
C 	C 	0.28490 0.99890 0.49280 0.04700
C 	C 	0.16010 0.81970 0.58240 0.03900
C 	C 	0.29970 0.91830 0.63530 0.29400
O 	O 	0.66970 0.40070 0.67990 -0.43800
O 	O 	0.47150 0.42610 0.69240 -0.39400
O 	O 	0.78460 0.55330 0.67450 -0.40000
O 	O 	0.58700 0.57110 0.65300 -0.44700
C 	C 	0.52560 0.31470 0.62570 -0.08000
C 	C 	0.63090 0.29250 0.57330 0.03300
C 	C 	0.39760 0.30570 0.59260 0.02600
C 	C 	0.46160 0.25330 0.67590 0.12600
C 	C 	0.45920 0.25900 0.74680 -0.06100
C 	C 	0.33180 0.27150 0.70020 0.00700
C 	C 	0.55480 0.38490 0.66720 0.30600
C 	C 	0.73020 0.62580 0.56560 -0.08500
C 	C 	0.62000 0.66550 0.53120 0.04200
C 	C 	0.79010 0.57380 0.50270 0.01900
C 	C 	0.92400 0.55250 0.51400 0.02400
C 	C 	0.71510 0.50110 0.49280 -0.00100
C 	C 	0.83990 0.68030 0.58240 0.04200
C 	C 	0.70030 0.58170 0.63530 0.30900
O 	O 	0.16970 0.90070 0.17990 -0.38000
O 	O 	0.97150 0.92610 0.19240 -0.33300
O 	O 	0.28460 0.05330 0.17450 -0.45200
O 	O 	0.08700 0.07110 0.15300 -0.48700
C 	C 	0.02560 0.81470 0.12570 -0.07100
C 	C 	0.13090 0.79250 0.07330 0.06400
C 	C 	0.89760 0.80570 0.09260 0.04600
C 	C 	0.96160 0.75330 0.17590 0.14800
C 	C 	0.95920 0.75900 0.24680 -0.08400
C 	C 	0.83180 0.77150 0.20020 0.02600
C 	C 	0.05480 0.88490 0.16720 0.30800
C 	C 	0.23020 0.12580 0.06560 -0.09700
C 	C 	0.12000 0.16550 0.03120 0.03600
C 	C 	0.29010 0.07380 0.00270 0.03800
C 	C 	0.42400 0.05250 0.01400 -0.02400
C 	C 	0.21510 0.00110 0.99280 -0.04100
C 	C 	0.33990 0.18030 0.08240 0.03100
C 	C 	0.20030 0.08170 0.13530 0.32000
In	In	0.12858 0.00000 0.25000 1.95400
In	In	0.37142 0.00000 0.75000 1.95400
In	In	0.87142 0.50000 0.25000 1.99400
In	In	0.62858 0.50000 0.75000 1.99400
