data_crystal

_cell_length_a 17.04050
_cell_length_b 13.62950
_cell_length_c 7.46170
_cell_angle_alpha 90.00000
_cell_angle_beta  90.00000
_cell_angle_gamma 90.00000

_symmetry_space_group_name_	'P 1'
_symmetry_space_group_name_H-M	'P 1'

loop_
_symmetry_equiv_pos_as_xyz
  x,y,z

loop_
_atom_site_label
_atom_site_type_symbol
_atom_site_fract_x
_atom_site_fract_y
_atom_site_fract_z
_atom_site_charge
C 	C 	0.61150 0.46900 0.78400 -0.74200
H 	H 	0.63880 0.41260 0.73890 0.21000
H 	H 	0.56260 0.44870 0.83670 0.21200
H 	H 	0.64310 0.50050 0.87400 0.19900
C 	C 	0.59650 0.53680 0.64000 0.24700
C 	C 	0.53320 0.53590 0.51400 -0.17100
C 	C 	0.54410 0.61260 0.40100 0.28100
C 	C 	0.49990 0.64970 0.24400 -0.78500
H 	H 	0.51970 0.71300 0.21020 0.25200
H 	H 	0.44530 0.65500 0.27400 0.24200
H 	H 	0.50590 0.60500 0.14520 0.24800
N 	N 	0.64370 0.61370 0.59870 -0.24600
N 	N 	0.61140 0.65610 0.45300 -0.21500
H 	H 	0.63160 0.70580 0.39930 0.09400
C 	C 	0.11150 0.96900 0.28400 -0.72300
H 	H 	0.13880 0.91260 0.23890 0.21700
H 	H 	0.06260 0.94870 0.33670 0.22200
H 	H 	0.14310 0.00050 0.37400 0.20500
C 	C 	0.09650 0.03680 0.14000 0.23500
C 	C 	0.03320 0.03590 0.01400 -0.11300
C 	C 	0.04410 0.11260 0.90100 0.17400
C 	C 	0.99990 0.14970 0.74400 -0.59000
H 	H 	0.01970 0.21300 0.71020 0.18200
H 	H 	0.94530 0.15500 0.77400 0.17500
H 	H 	0.00590 0.10500 0.64520 0.17500
N 	N 	0.14370 0.11370 0.09870 -0.22700
N 	N 	0.11140 0.15610 0.95300 -0.21300
H 	H 	0.13160 0.20580 0.89930 0.08000
C 	C 	0.38850 0.53100 0.78400 -0.74100
H 	H 	0.36120 0.58740 0.73890 0.21100
H 	H 	0.43740 0.55130 0.83670 0.21300
H 	H 	0.35690 0.49950 0.87400 0.20000
C 	C 	0.40350 0.46320 0.64000 0.24700
C 	C 	0.46680 0.46410 0.51400 -0.17100
C 	C 	0.45590 0.38740 0.40100 0.28100
C 	C 	0.50010 0.35030 0.24400 -0.78500
H 	H 	0.48030 0.28700 0.21020 0.25200
H 	H 	0.55470 0.34500 0.27400 0.24200
H 	H 	0.49410 0.39500 0.14520 0.24800
N 	N 	0.35630 0.38630 0.59870 -0.24600
N 	N 	0.38860 0.34390 0.45300 -0.21500
H 	H 	0.36840 0.29420 0.39930 0.09400
C 	C 	0.88850 0.03100 0.28400 -0.72300
H 	H 	0.86120 0.08740 0.23890 0.21700
H 	H 	0.93740 0.05130 0.33670 0.22200
H 	H 	0.85690 0.99950 0.37400 0.20500
C 	C 	0.90350 0.96320 0.14000 0.23500
C 	C 	0.96680 0.96410 0.01400 -0.11300
C 	C 	0.95590 0.88740 0.90100 0.17400
C 	C 	0.00010 0.85030 0.74400 -0.59000
H 	H 	0.98030 0.78700 0.71020 0.18200
H 	H 	0.05470 0.84500 0.77400 0.17500
H 	H 	0.99410 0.89500 0.64520 0.17500
N 	N 	0.85630 0.88630 0.09870 -0.22700
N 	N 	0.88860 0.84390 0.95300 -0.21300
H 	H 	0.86840 0.79420 0.89930 0.08000
C 	C 	0.11150 0.53100 0.78400 -0.74400
H 	H 	0.13880 0.58740 0.73890 0.21300
H 	H 	0.06260 0.55130 0.83670 0.21500
H 	H 	0.14310 0.49950 0.87400 0.20200
C 	C 	0.09650 0.46320 0.64000 0.24800
C 	C 	0.03320 0.46410 0.51400 -0.16700
C 	C 	0.04410 0.38740 0.40100 0.27000
C 	C 	0.99990 0.35030 0.24400 -0.75200
H 	H 	0.01970 0.28700 0.21020 0.24100
H 	H 	0.94530 0.34500 0.27400 0.23400
H 	H 	0.00590 0.39500 0.14520 0.23700
N 	N 	0.14370 0.38630 0.59870 -0.24600
N 	N 	0.11140 0.34390 0.45300 -0.21300
H 	H 	0.13160 0.29420 0.39930 0.09400
C 	C 	0.61150 0.03100 0.28400 -0.75900
H 	H 	0.63880 0.08740 0.23890 0.22600
H 	H 	0.56260 0.05130 0.33670 0.22800
H 	H 	0.64310 0.99950 0.37400 0.21700
C 	C 	0.59650 0.96320 0.14000 0.25000
C 	C 	0.53320 0.96410 0.01400 -0.12200
C 	C 	0.54410 0.88740 0.90100 0.20100
C 	C 	0.49990 0.85030 0.74400 -0.67400
H 	H 	0.51970 0.78700 0.71020 0.20900
H 	H 	0.44530 0.84500 0.77400 0.19700
H 	H 	0.50590 0.89500 0.64520 0.20300
N 	N 	0.64370 0.88630 0.09870 -0.23000
N 	N 	0.61140 0.84390 0.95300 -0.21900
H 	H 	0.63160 0.79420 0.89930 0.08200
C 	C 	0.88850 0.46900 0.78400 -0.74400
H 	H 	0.86120 0.41260 0.73890 0.21300
H 	H 	0.93740 0.44870 0.83670 0.21500
H 	H 	0.85690 0.50050 0.87400 0.20200
C 	C 	0.90350 0.53680 0.64000 0.24800
C 	C 	0.96680 0.53590 0.51400 -0.16700
C 	C 	0.95590 0.61260 0.40100 0.27000
C 	C 	0.00010 0.64970 0.24400 -0.75200
H 	H 	0.98030 0.71300 0.21020 0.24100
H 	H 	0.05470 0.65500 0.27400 0.23400
H 	H 	0.99410 0.60500 0.14520 0.23700
N 	N 	0.85630 0.61370 0.59870 -0.24600
N 	N 	0.88860 0.65610 0.45300 -0.21300
H 	H 	0.86840 0.70580 0.39930 0.09400
C 	C 	0.38850 0.96900 0.28400 -0.75900
H 	H 	0.36120 0.91260 0.23890 0.22600
H 	H 	0.43740 0.94870 0.33670 0.22800
H 	H 	0.35690 0.00050 0.37400 0.21700
C 	C 	0.40350 0.03680 0.14000 0.25000
C 	C 	0.46680 0.03590 0.01400 -0.12200
C 	C 	0.45590 0.11260 0.90100 0.20100
C 	C 	0.50010 0.14970 0.74400 -0.67400
H 	H 	0.48030 0.21300 0.71020 0.20900
H 	H 	0.55470 0.15500 0.77400 0.19700
H 	H 	0.49410 0.10500 0.64520 0.20300
N 	N 	0.35630 0.11370 0.09870 -0.23000
N 	N 	0.38860 0.15610 0.95300 -0.21900
H 	H 	0.36840 0.20580 0.89930 0.08200
Cu	Cu	0.75000 0.64830 0.68530 0.83200
I 	I 	0.75000 0.84344 0.54650 -0.49800
Cu	Cu	0.25000 0.14830 0.18530 0.84200
I 	I 	0.25000 0.34344 0.04650 -0.44400
Cu	Cu	0.25000 0.35170 0.68530 0.83200
I 	I 	0.25000 0.15656 0.54650 -0.49800
Cu	Cu	0.75000 0.85170 0.18530 0.84200
I 	I 	0.75000 0.65656 0.04650 -0.44400
