data_crystal

_cell_length_a 9.29500
_cell_length_b 9.29500
_cell_length_c 17.68900
_cell_angle_alpha 90.00000
_cell_angle_beta  90.00000
_cell_angle_gamma 120.00000

_symmetry_space_group_name_	'P 1'
_symmetry_space_group_name_H-M	'P 1'

loop_
_symmetry_equiv_pos_as_xyz
  x,y,z

loop_
_atom_site_label
_atom_site_type_symbol
_atom_site_fract_x
_atom_site_fract_y
_atom_site_fract_z
_atom_site_charge
Eu	Eu	-0.00000 0.00000 -0.00000 1.50100
Eu	Eu	-0.00000 0.00000 0.50000 1.57100
La	La	0.33333 0.66666 0.75000 1.64700
La	La	0.66667 0.33334 0.25000 1.64500
H 	H 	0.57300 0.59840 0.91720 0.11800
H 	H 	0.50900 0.67630 0.97560 0.12200
H 	H 	0.02540 0.42700 0.91720 0.05200
H 	H 	0.16730 0.49100 0.97560 0.08400
H 	H 	0.40160 0.97460 0.91720 0.10400
H 	H 	0.32370 0.83270 0.97560 0.08300
H 	H 	0.57300 0.59840 0.58280 0.12700
H 	H 	0.50900 0.67630 0.52440 0.12500
H 	H 	0.02540 0.42700 0.58280 0.06300
H 	H 	0.16730 0.49100 0.52440 0.08800
H 	H 	0.40160 0.97460 0.58280 0.11400
H 	H 	0.32370 0.83270 0.52440 0.08600
H 	H 	0.97460 0.40160 0.08280 0.09900
H 	H 	0.83270 0.32370 0.02440 0.06800
H 	H 	0.59840 0.57300 0.08280 0.11400
H 	H 	0.67630 0.50900 0.02440 0.11000
H 	H 	0.42700 0.02540 0.08280 0.05500
H 	H 	0.49100 0.16730 0.02440 0.07700
H 	H 	0.97460 0.40160 0.41720 0.11200
H 	H 	0.83270 0.32370 0.47560 0.08400
H 	H 	0.59840 0.57300 0.41720 0.12600
H 	H 	0.67630 0.50900 0.47560 0.12600
H 	H 	0.42700 0.02540 0.41720 0.06600
H 	H 	0.49100 0.16730 0.47560 0.09200
C 	C 	0.65560 0.83980 0.89500 0.43800
C 	C 	0.60280 0.69440 0.94690 -0.22900
C 	C 	0.18420 0.34440 0.89500 0.41100
C 	C 	0.09160 0.39720 0.94690 -0.16300
C 	C 	0.16020 0.81580 0.89500 0.41400
C 	C 	0.30560 0.90840 0.94690 -0.07600
C 	C 	0.65560 0.83980 0.60500 0.45300
C 	C 	0.60280 0.69440 0.55310 -0.28600
C 	C 	0.18420 0.34440 0.60500 0.42800
C 	C 	0.09160 0.39720 0.55310 -0.22700
C 	C 	0.16020 0.81580 0.60500 0.43000
C 	C 	0.30560 0.90840 0.55310 -0.13500
C 	C 	0.81580 0.16020 0.10500 0.41400
C 	C 	0.90840 0.30560 0.05310 -0.09200
C 	C 	0.83980 0.65560 0.10500 0.44200
C 	C 	0.69440 0.60280 0.05310 -0.26300
C 	C 	0.34440 0.18420 0.10500 0.42000
C 	C 	0.39720 0.09160 0.05310 -0.21100
C 	C 	0.81580 0.16020 0.39500 0.42600
C 	C 	0.90840 0.30560 0.44690 -0.11800
C 	C 	0.83980 0.65560 0.39500 0.45300
C 	C 	0.69440 0.60280 0.44690 -0.28600
C 	C 	0.34440 0.18420 0.39500 0.43100
C 	C 	0.39720 0.09160 0.44690 -0.23400
O 	O 	0.55840 0.82670 0.84430 -0.41500
O 	O 	0.79380 0.96650 0.90680 -0.27500
O 	O 	0.26830 0.44160 0.84430 -0.45300
O 	O 	0.17270 0.20620 0.90680 -0.42300
O 	O 	0.17330 0.73170 0.84430 -0.44800
O 	O 	0.03350 0.82730 0.90680 -0.39100
O 	O 	0.55840 0.82670 0.65570 -0.42200
O 	O 	0.79380 0.96650 0.59320 -0.30000
O 	O 	0.26830 0.44160 0.65570 -0.46000
O 	O 	0.17270 0.20620 0.59320 -0.45200
O 	O 	0.17330 0.73170 0.65570 -0.45500
O 	O 	0.03350 0.82730 0.59320 -0.41900
O 	O 	0.73170 0.17330 0.15570 -0.45000
O 	O 	0.82730 0.03350 0.09320 -0.40400
O 	O 	0.82670 0.55840 0.15570 -0.42000
O 	O 	0.96650 0.79380 0.09320 -0.29400
O 	O 	0.44160 0.26830 0.15570 -0.46000
O 	O 	0.20620 0.17270 0.09320 -0.45000
O 	O 	0.73170 0.17330 0.34430 -0.45300
O 	O 	0.82730 0.03350 0.40680 -0.41100
O 	O 	0.82670 0.55840 0.34430 -0.42200
O 	O 	0.96650 0.79380 0.40680 -0.30000
O 	O 	0.44160 0.26830 0.34430 -0.46300
O 	O 	0.20620 0.17270 0.40680 -0.45600
O 	O 	0.73230 0.73230 -0.00000 -0.16600
O 	O 	0.00000 0.26770 -0.00000 -0.35100
O 	O 	0.26770 0.00000 -0.00000 -0.33900
O 	O 	0.73230 0.73230 0.50000 -0.13100
O 	O 	-0.00000 0.26770 0.50000 -0.31300
O 	O 	0.26770 0.00000 0.50000 -0.30300
