data_crystal

_cell_length_a 36.70600
_cell_length_b 6.99450
_cell_length_c 6.18810
_cell_angle_alpha 90.00000
_cell_angle_beta  97.42000
_cell_angle_gamma 90.00000

_symmetry_space_group_name_	'P 1'
_symmetry_space_group_name_H-M	'P 1'

loop_
_symmetry_equiv_pos_as_xyz
  x,y,z

loop_
_atom_site_label
_atom_site_type_symbol
_atom_site_fract_x
_atom_site_fract_y
_atom_site_fract_z
_atom_site_charge
O 	O 	0.34670 0.44310 0.51500 -0.23200
O 	O 	0.20030 0.19010 0.21200 -0.43200
O 	O 	0.22436 0.34710 0.62360 -0.59600
C 	C 	0.44890 0.43090 0.30680 0.00100
H 	H 	0.47010 0.38600 0.40310 -0.03100
C 	C 	0.41470 0.42700 0.37280 -0.04500
H 	H 	0.41180 0.38620 0.51900 0.03700
C 	C 	0.38450 0.48100 0.23140 -0.00500
C 	C 	0.38880 0.55040 0.02710 -0.07900
H 	H 	0.36810 0.60370 0.93390 0.08600
C 	C 	0.42290 0.54280 0.95810 0.03000
H 	H 	0.42540 0.56820 0.80700 -0.01700
C 	C 	0.17490 0.48500 0.76270 0.01400
C 	C 	0.14330 0.55840 0.63850 -0.76500
H 	H 	0.14490 0.62000 0.50160 0.25500
C 	C 	0.10970 0.54050 0.71630 -0.39200
H 	H 	0.08770 0.58000 0.62740 0.12000
C 	C 	0.10790 0.46560 0.92250 0.10100
H 	H 	0.08470 0.45630 0.97680 0.02300
C 	C 	0.13960 0.40430 0.04970 -0.09400
H 	H 	0.13830 0.35500 0.19320 0.06400
C 	C 	0.17310 0.41420 0.96980 -0.06400
C 	C 	0.20670 0.35400 0.13100 0.29600
O 	O 	0.84670 0.94310 0.51500 -0.37800
O 	O 	0.70030 0.69010 0.21200 -0.41800
O 	O 	0.72436 0.84710 0.62360 -0.60700
C 	C 	0.94890 0.93090 0.30680 -0.44800
H 	H 	0.97010 0.88600 0.40310 0.07800
C 	C 	0.91470 0.92700 0.37280 -0.29400
H 	H 	0.91180 0.88620 0.51900 0.10400
C 	C 	0.88450 0.98100 0.23140 0.33200
C 	C 	0.88880 0.05040 0.02710 -1.46900
H 	H 	0.86810 0.10370 0.93390 0.50100
C 	C 	0.92290 0.04280 0.95810 -1.03200
H 	H 	0.92540 0.06820 0.80700 0.34900
C 	C 	0.67490 0.98500 0.76270 -0.05800
C 	C 	0.64330 0.05840 0.63850 0.04700
H 	H 	0.64490 0.12000 0.50160 0.00200
C 	C 	0.60970 0.04050 0.71630 -0.01200
H 	H 	0.58770 0.08000 0.62740 0.01400
C 	C 	0.60790 0.96560 0.92250 0.00500
H 	H 	0.58470 0.95630 0.97680 0.02000
C 	C 	0.63960 0.90430 0.04970 -0.06600
H 	H 	0.63830 0.85500 0.19320 0.04500
C 	C 	0.67310 0.91420 0.96980 0.00600
C 	C 	0.70670 0.85400 0.13100 0.25800
O 	O 	0.65330 0.44310 0.48500 -0.23400
O 	O 	0.79970 0.19010 0.78800 -0.43400
O 	O 	0.77564 0.34710 0.37640 -0.59300
C 	C 	0.55110 0.43090 0.69320 -0.00200
H 	H 	0.52990 0.38600 0.59690 -0.02900
C 	C 	0.58530 0.42700 0.62720 -0.03200
H 	H 	0.58820 0.38620 0.48100 0.03000
C 	C 	0.61550 0.48100 0.76860 -0.02500
C 	C 	0.61120 0.55040 0.97290 -0.00700
H 	H 	0.63190 0.60370 0.06610 0.04200
C 	C 	0.57710 0.54280 0.04190 -0.02300
H 	H 	0.57460 0.56820 0.19300 -0.00300
C 	C 	0.82510 0.48500 0.23730 0.02900
C 	C 	0.85670 0.55840 0.36150 -0.74300
H 	H 	0.85510 0.62000 0.49840 0.25000
C 	C 	0.89030 0.54050 0.28370 -0.35600
H 	H 	0.91230 0.58000 0.37260 0.10900
C 	C 	0.89210 0.46560 0.07750 0.05500
H 	H 	0.91530 0.45630 0.02320 0.02800
C 	C 	0.86040 0.40430 0.95030 -0.01300
H 	H 	0.86170 0.35500 0.80680 0.03900
C 	C 	0.82690 0.41420 0.03020 -0.12700
C 	C 	0.79330 0.35400 0.86900 0.33600
O 	O 	0.15330 0.94310 0.48500 -0.38200
O 	O 	0.29970 0.69010 0.78800 -0.42000
O 	O 	0.27564 0.84710 0.37640 -0.60600
C 	C 	0.05110 0.93090 0.69320 -0.47100
H 	H 	0.02990 0.88600 0.59690 0.08200
C 	C 	0.08530 0.92700 0.62720 -0.28600
H 	H 	0.08820 0.88620 0.48100 0.09800
C 	C 	0.11550 0.98100 0.76860 0.32800
C 	C 	0.11120 0.05040 0.97290 -1.45800
H 	H 	0.13190 0.10370 0.06610 0.47400
C 	C 	0.07710 0.04280 0.04190 -1.10200
H 	H 	0.07460 0.06820 0.19300 0.36600
C 	C 	0.32510 0.98500 0.23730 -0.03600
C 	C 	0.35670 0.05840 0.36150 0.01500
H 	H 	0.35510 0.12000 0.49840 0.01400
C 	C 	0.39030 0.04050 0.28370 0.00300
H 	H 	0.41230 0.08000 0.37260 0.00800
C 	C 	0.39210 0.96560 0.07750 -0.04200
H 	H 	0.41530 0.95630 0.02320 0.03000
C 	C 	0.36040 0.90430 0.95030 -0.00200
H 	H 	0.36170 0.85500 0.80680 0.02600
C 	C 	0.32690 0.91420 0.03020 -0.04800
C 	C 	0.29330 0.85400 0.86900 0.29200
O 	O 	0.65330 0.55690 0.48500 -0.23300
O 	O 	0.79970 0.80990 0.78800 -0.43500
O 	O 	0.77564 0.65290 0.37640 -0.58900
C 	C 	0.55110 0.56910 0.69320 0.00700
H 	H 	0.52990 0.61400 0.59690 -0.03100
C 	C 	0.58530 0.57300 0.62720 -0.03300
H 	H 	0.58820 0.61380 0.48100 0.03100
C 	C 	0.61550 0.51900 0.76860 -0.02900
C 	C 	0.61120 0.44960 0.97290 0.00800
H 	H 	0.63190 0.39630 0.06610 0.03700
C 	C 	0.57710 0.45720 0.04190 -0.01500
H 	H 	0.57460 0.43180 0.19300 -0.00600
C 	C 	0.82510 0.51500 0.23730 -0.12500
C 	C 	0.85670 0.44160 0.36150 0.72400
H 	H 	0.85510 0.38000 0.49840 -0.21100
C 	C 	0.89030 0.45950 0.28370 0.31400
H 	H 	0.91230 0.42000 0.37260 -0.07600
C 	C 	0.89210 0.53440 0.07750 -0.11500
H 	H 	0.91530 0.54370 0.02320 -0.01300
C 	C 	0.86040 0.59570 0.95030 0.02600
H 	H 	0.86170 0.64500 0.80680 0.00900
C 	C 	0.82690 0.58580 0.03020 0.00800
C 	C 	0.79330 0.64600 0.86900 0.30600
O 	O 	0.15330 0.05690 0.48500 -0.12600
O 	O 	0.29970 0.30990 0.78800 -0.42400
O 	O 	0.27564 0.15290 0.37640 -0.59100
C 	C 	0.05110 0.06910 0.69320 0.43300
H 	H 	0.02990 0.11400 0.59690 -0.14100
C 	C 	0.08530 0.07300 0.62720 0.25100
H 	H 	0.08820 0.11380 0.48100 -0.05100
C 	C 	0.11550 0.01900 0.76860 -0.42500
C 	C 	0.11120 0.94960 0.97290 1.48500
H 	H 	0.13190 0.89630 0.06610 -0.40500
C 	C 	0.07710 0.95720 0.04190 1.02700
H 	H 	0.07460 0.93180 0.19300 -0.36800
C 	C 	0.32510 0.01500 0.23730 -0.07100
C 	C 	0.35670 0.94160 0.36150 -0.02500
H 	H 	0.35510 0.88000 0.49840 0.02500
C 	C 	0.39030 0.95950 0.28370 -0.04900
H 	H 	0.41230 0.92000 0.37260 0.02800
C 	C 	0.39210 0.03440 0.07750 -0.01000
H 	H 	0.41530 0.04370 0.02320 -0.01500
C 	C 	0.36040 0.09570 0.95030 0.00300
H 	H 	0.36170 0.14500 0.80680 0.02600
C 	C 	0.32690 0.08580 0.03020 -0.05100
C 	C 	0.29330 0.14600 0.86900 0.31900
O 	O 	0.34670 0.55690 0.51500 -0.23100
O 	O 	0.20030 0.80990 0.21200 -0.43200
O 	O 	0.22436 0.65290 0.62360 -0.59200
C 	C 	0.44890 0.56910 0.30680 0.01300
H 	H 	0.47010 0.61400 0.40310 -0.03300
C 	C 	0.41470 0.57300 0.37280 -0.04600
H 	H 	0.41180 0.61380 0.51900 0.03800
C 	C 	0.38450 0.51900 0.23140 -0.01000
C 	C 	0.38880 0.44960 0.02710 -0.05700
H 	H 	0.36810 0.39630 0.93390 0.07900
C 	C 	0.42290 0.45720 0.95810 0.04000
H 	H 	0.42540 0.43180 0.80700 -0.02000
C 	C 	0.17490 0.51500 0.76270 -0.14900
C 	C 	0.14330 0.44160 0.63850 0.78100
H 	H 	0.14490 0.38000 0.50160 -0.23100
C 	C 	0.10970 0.45950 0.71630 0.31300
H 	H 	0.08770 0.42000 0.62740 -0.07500
C 	C 	0.10790 0.53440 0.92250 -0.07500
H 	H 	0.08470 0.54370 0.97680 -0.02000
C 	C 	0.13960 0.59570 0.04970 -0.04600
H 	H 	0.13830 0.64500 0.19320 0.03000
C 	C 	0.17310 0.58580 0.96980 0.07200
C 	C 	0.20670 0.64600 0.13100 0.26600
O 	O 	0.84670 0.05690 0.51500 -0.12500
O 	O 	0.70030 0.30990 0.21200 -0.42100
O 	O 	0.72436 0.15290 0.62360 -0.59300
C 	C 	0.94890 0.06910 0.30680 0.42100
H 	H 	0.97010 0.11400 0.40310 -0.13400
C 	C 	0.91470 0.07300 0.37280 0.23500
H 	H 	0.91180 0.11380 0.51900 -0.04300
C 	C 	0.88450 0.01900 0.23140 -0.39000
C 	C 	0.88880 0.94960 0.02710 1.35900
H 	H 	0.86810 0.89630 0.93390 -0.34700
C 	C 	0.92290 0.95720 0.95810 1.06600
H 	H 	0.92540 0.93180 0.80700 -0.37700
C 	C 	0.67490 0.01500 0.76270 -0.08800
C 	C 	0.64330 0.94160 0.63850 -0.02200
H 	H 	0.64490 0.88000 0.50160 0.02200
C 	C 	0.60970 0.95950 0.71630 -0.07100
H 	H 	0.58770 0.92000 0.62740 0.03600
C 	C 	0.60790 0.03440 0.92250 0.02700
H 	H 	0.58470 0.04370 0.97680 -0.01500
C 	C 	0.63960 0.09570 0.04970 -0.08400
H 	H 	0.63830 0.14500 0.19320 0.05200
C 	C 	0.67310 0.08580 0.96980 0.02100
C 	C 	0.70670 0.14600 0.13100 0.27600
Tb	Tb	0.28010 0.50000 0.47873 2.00700
O 	O 	0.31930 0.50000 0.19370 -0.41100
O 	O 	0.23290 0.50000 0.16270 -0.48600
N 	N 	0.45310 0.50000 0.09960 -0.27400
C 	C 	0.34860 0.50000 0.31900 0.32100
C 	C 	0.20970 0.50000 0.66700 0.49300
Tb	Tb	0.78010 0.00000 0.47873 2.07800
O 	O 	0.81930 0.00000 0.19370 -0.41700
O 	O 	0.73290 0.00000 0.16270 -0.47200
N 	N 	0.95310 0.00000 0.09960 -0.22400
C 	C 	0.84860 0.00000 0.31900 0.39800
C 	C 	0.70970 0.00000 0.66700 0.51800
Tb	Tb	0.71990 0.50000 0.52127 2.00900
O 	O 	0.68070 0.50000 0.80630 -0.40300
O 	O 	0.76710 0.50000 0.83730 -0.49300
N 	N 	0.54690 0.50000 0.90040 -0.23700
C 	C 	0.65140 0.50000 0.68100 0.33800
C 	C 	0.79030 0.50000 0.33300 0.47400
Tb	Tb	0.21990 0.00000 0.52127 2.08200
O 	O 	0.18070 0.00000 0.80630 -0.40800
O 	O 	0.26710 0.00000 0.83730 -0.47700
N 	N 	0.04690 0.00000 0.90040 -0.18800
C 	C 	0.15140 0.00000 0.68100 0.41600
C 	C 	0.29030 0.00000 0.33300 0.50000
Cu	Cu	0.50000 0.50000 -0.00000 0.79000
Cu	Cu	-0.00000 0.00000 -0.00000 0.80800
