data_crystal

_cell_length_a 13.87000
_cell_length_b 13.87000
_cell_length_c 15.22200
_cell_angle_alpha 90.00000
_cell_angle_beta  90.00000
_cell_angle_gamma 120.00000

_symmetry_space_group_name_	'P 1'
_symmetry_space_group_name_H-M	'P 1'

loop_
_symmetry_equiv_pos_as_xyz
  x,y,z

loop_
_atom_site_label
_atom_site_type_symbol
_atom_site_fract_x
_atom_site_fract_y
_atom_site_fract_z
_atom_site_charge
Al	Al	0.56603 0.67507 0.26611 2.38600
P 	P 	0.56852 0.67509 0.05768 0.83200
O 	O 	0.60300 0.67610 0.15120 -0.82400
O 	O 	0.64820 0.66250 0.99760 -0.74900
O 	O 	0.44990 0.58200 0.04360 -0.86900
O 	O 	0.57660 0.78380 0.03560 -0.78400
Al	Al	0.23270 0.00840 0.59944 2.38700
P 	P 	0.23519 0.00842 0.39101 0.83800
O 	O 	0.26967 0.00943 0.48453 -0.82300
O 	O 	0.31487 0.99583 0.33093 -0.75100
O 	O 	0.11657 0.91533 0.37693 -0.87000
O 	O 	0.24327 0.11713 0.36893 -0.78000
Al	Al	0.89936 0.34174 0.93278 2.38600
P 	P 	0.90185 0.34176 0.72435 0.83400
O 	O 	0.93633 0.34277 0.81787 -0.82600
O 	O 	0.98153 0.32917 0.66427 -0.75000
O 	O 	0.78323 0.24867 0.71027 -0.86700
O 	O 	0.90993 0.45047 0.70227 -0.78000
Al	Al	0.32493 0.89096 0.26611 2.38700
P 	P 	0.32491 0.89343 0.05768 0.82400
O 	O 	0.32390 0.92690 0.15120 -0.82400
O 	O 	0.33750 0.98570 0.99760 -0.73500
O 	O 	0.41800 0.86790 0.04360 -0.86900
O 	O 	0.21620 0.79280 0.03560 -0.78400
Al	Al	0.99160 0.22429 0.59944 2.38700
P 	P 	0.99158 0.22676 0.39101 0.83800
O 	O 	0.99057 0.26023 0.48453 -0.82300
O 	O 	0.00417 0.31903 0.33093 -0.75100
O 	O 	0.08467 0.20123 0.37693 -0.86900
O 	O 	0.88287 0.12613 0.36893 -0.77800
Al	Al	0.65826 0.55763 0.93278 2.38700
P 	P 	0.65824 0.56010 0.72435 0.83300
O 	O 	0.65723 0.59357 0.81787 -0.82300
O 	O 	0.67083 0.65237 0.66427 -0.74800
O 	O 	0.75133 0.53457 0.71027 -0.86700
O 	O 	0.54953 0.45947 0.70227 -0.78000
Al	Al	0.10904 0.43397 0.26611 2.38700
P 	P 	0.10657 0.43148 0.05768 0.82800
O 	O 	0.07310 0.39700 0.15120 -0.82400
O 	O 	0.01430 0.35180 0.99760 -0.74100
O 	O 	0.13210 0.55010 0.04360 -0.86900
O 	O 	0.20720 0.42340 0.03560 -0.78100
Al	Al	0.77571 0.76730 0.59944 2.38700
P 	P 	0.77324 0.76481 0.39101 0.83300
O 	O 	0.73977 0.73033 0.48453 -0.82300
O 	O 	0.68097 0.68513 0.33093 -0.74800
O 	O 	0.79877 0.88343 0.37693 -0.86700
O 	O 	0.87387 0.75673 0.36893 -0.77900
Al	Al	0.44237 0.10064 0.93278 2.38600
P 	P 	0.43990 0.09815 0.72435 0.83400
O 	O 	0.40643 0.06367 0.81787 -0.82500
O 	O 	0.34763 0.01847 0.66427 -0.74900
O 	O 	0.46543 0.21677 0.71027 -0.86700
O 	O 	0.54053 0.09007 0.70227 -0.78000
Al	Al	0.43397 0.32493 0.73389 2.38700
P 	P 	0.43148 0.32491 0.94232 0.83300
O 	O 	0.39700 0.32390 0.84880 -0.82300
O 	O 	0.35180 0.33750 0.00240 -0.74800
O 	O 	0.55010 0.41800 0.95640 -0.86800
O 	O 	0.42340 0.21620 0.96440 -0.78300
Al	Al	0.10064 0.65826 0.06722 2.38600
P 	P 	0.09815 0.65824 0.27565 0.83400
O 	O 	0.06367 0.65723 0.18213 -0.82600
O 	O 	0.01847 0.67083 0.33573 -0.75000
O 	O 	0.21677 0.75133 0.28973 -0.86700
O 	O 	0.09007 0.54953 0.29773 -0.78000
Al	Al	0.76730 0.99160 0.40056 2.38700
P 	P 	0.76481 0.99158 0.60899 0.83800
O 	O 	0.73033 0.99057 0.51547 -0.82300
O 	O 	0.68513 0.00417 0.66907 -0.75100
O 	O 	0.88343 0.08467 0.62307 -0.87000
O 	O 	0.75673 0.88287 0.63107 -0.78000
Al	Al	0.67507 0.10904 0.73389 2.38700
P 	P 	0.67509 0.10657 0.94232 0.82400
O 	O 	0.67610 0.07310 0.84880 -0.82400
O 	O 	0.66250 0.01430 0.00240 -0.73500
O 	O 	0.58200 0.13210 0.95640 -0.86900
O 	O 	0.78380 0.20720 0.96440 -0.78400
Al	Al	0.34174 0.44237 0.06722 2.38700
P 	P 	0.34176 0.43990 0.27565 0.83300
O 	O 	0.34277 0.40643 0.18213 -0.82300
O 	O 	0.32917 0.34763 0.33573 -0.74800
O 	O 	0.24867 0.46543 0.28973 -0.86700
O 	O 	0.45047 0.54053 0.29773 -0.78000
Al	Al	0.00840 0.77571 0.40056 2.38700
P 	P 	0.00842 0.77324 0.60899 0.83800
O 	O 	0.00943 0.73977 0.51547 -0.82300
O 	O 	0.99583 0.68097 0.66907 -0.75100
O 	O 	0.91533 0.79877 0.62307 -0.86900
O 	O 	0.11713 0.87387 0.63107 -0.77800
Al	Al	0.89096 0.56603 0.73389 2.38700
P 	P 	0.89343 0.56852 0.94232 0.82800
O 	O 	0.92690 0.60300 0.84880 -0.82400
O 	O 	0.98570 0.64820 0.00240 -0.74100
O 	O 	0.86790 0.44990 0.95640 -0.86900
O 	O 	0.79280 0.57660 0.96440 -0.78100
Al	Al	0.55763 0.89936 0.06722 2.38600
P 	P 	0.56010 0.90185 0.27565 0.83400
O 	O 	0.59357 0.93633 0.18213 -0.82500
O 	O 	0.65237 0.98153 0.33573 -0.74900
O 	O 	0.53457 0.78323 0.28973 -0.86700
O 	O 	0.45947 0.90993 0.29773 -0.78000
Al	Al	0.22429 0.23270 0.40056 2.38700
P 	P 	0.22676 0.23519 0.60899 0.83300
O 	O 	0.26023 0.26967 0.51547 -0.82300
O 	O 	0.31903 0.31487 0.66907 -0.74800
O 	O 	0.20123 0.11657 0.62307 -0.86700
O 	O 	0.12613 0.24327 0.63107 -0.77900
