data_crystal

_cell_length_a 9.84420
_cell_length_b 10.87950
_cell_length_c 29.22880
_cell_angle_alpha 90.00000
_cell_angle_beta  90.00000
_cell_angle_gamma 92.17700

_symmetry_space_group_name_	'P 1'
_symmetry_space_group_name_H-M	'P 1'

loop_
_symmetry_equiv_pos_as_xyz
  x,y,z

loop_
_atom_site_label
_atom_site_type_symbol
_atom_site_fract_x
_atom_site_fract_y
_atom_site_fract_z
_atom_site_charge
Er	Er	0.54517 0.04156 0.91851 1.72100
Er	Er	0.54026 0.26342 0.74846 1.53000
Er	Er	0.45483 0.45844 0.41851 1.72700
Er	Er	0.45974 0.23658 0.24846 1.53400
Er	Er	0.45483 0.95844 0.08149 1.72200
Er	Er	0.45974 0.73658 0.25154 1.53100
Er	Er	0.54517 0.54156 0.58149 1.72700
Er	Er	0.54026 0.76342 0.75154 1.53400
H 	H 	0.86590 0.89320 0.71320 0.01500
H 	H 	0.09400 0.84510 0.70930 0.05500
H 	H 	0.22000 0.16260 0.89300 0.02000
H 	H 	0.98670 0.16450 0.90760 0.05600
H 	H 	0.94310 0.68940 0.98260 0.04500
H 	H 	0.17520 0.73540 0.98720 0.03400
H 	H 	0.13410 0.60680 0.21320 0.01200
H 	H 	0.90600 0.65490 0.20930 0.05500
H 	H 	0.78000 0.33740 0.39300 0.01900
H 	H 	0.01330 0.33550 0.40760 0.06100
H 	H 	0.05690 0.81060 0.48260 0.04600
H 	H 	0.82480 0.76460 0.48720 0.03300
H 	H 	0.13410 0.10680 0.28680 0.01500
H 	H 	0.90600 0.15490 0.29070 0.05500
H 	H 	0.78000 0.83740 0.10700 0.02000
H 	H 	0.01330 0.83550 0.09240 0.05600
H 	H 	0.05690 0.31060 0.01740 0.04500
H 	H 	0.82480 0.26460 0.01280 0.03400
H 	H 	0.86590 0.39320 0.78680 0.01200
H 	H 	0.09400 0.34510 0.79070 0.05500
H 	H 	0.22000 0.66260 0.60700 0.01900
H 	H 	0.98670 0.66450 0.59240 0.06100
H 	H 	0.94310 0.18940 0.51740 0.04600
H 	H 	0.17520 0.23540 0.51280 0.03300
C 	C 	0.92480 0.08740 0.84871 -0.08300
C 	C 	0.96910 0.03230 0.80702 0.04700
C 	C 	0.87900 0.99050 0.77145 -0.13900
C 	C 	0.92600 0.92200 0.73567 0.01400
C 	C 	0.06450 0.89500 0.73282 -0.03700
C 	C 	0.15700 0.94140 0.76429 -0.08600
C 	C 	0.11190 0.01680 0.80113 0.06900
C 	C 	0.20540 0.07510 0.83274 -0.16000
C 	C 	0.15870 0.12850 0.87188 0.03000
C 	C 	0.01730 0.13170 0.88026 -0.03700
C 	C 	0.78110 0.07910 0.86496 0.32400
C 	C 	0.73300 0.02910 0.76708 0.45600
C 	C 	0.35350 0.09910 0.82227 0.49000
C 	C 	0.29820 0.89530 0.76138 0.33900
C 	C 	0.88160 0.86130 0.98931 -0.11300
C 	C 	0.97380 0.77060 0.98633 -0.01600
C 	C 	0.11410 0.79840 0.98888 -0.00100
C 	C 	0.16140 0.91690 0.99382 -0.13400
C 	C 	0.92820 0.98580 0.99883 0.06500
C 	C 	0.73700 0.82710 0.97647 0.40100
C 	C 	0.31120 0.94080 0.98583 0.42800
C 	C 	0.07520 0.41260 0.34871 -0.08200
C 	C 	0.03090 0.46770 0.30702 0.05900
C 	C 	0.12100 0.50950 0.27145 -0.15500
C 	C 	0.07400 0.57800 0.23567 0.01800
C 	C 	0.93550 0.60500 0.23282 -0.03700
C 	C 	0.84300 0.55860 0.26429 -0.08700
C 	C 	0.88810 0.48320 0.30113 0.06700
C 	C 	0.79460 0.42490 0.33274 -0.16000
C 	C 	0.84130 0.37150 0.37188 0.03400
C 	C 	0.98270 0.36830 0.38026 -0.04600
C 	C 	0.21890 0.42090 0.36496 0.33000
C 	C 	0.26700 0.47090 0.26708 0.47200
C 	C 	0.64650 0.40090 0.32227 0.49100
C 	C 	0.70180 0.60470 0.26138 0.33900
C 	C 	0.11840 0.63870 0.48931 -0.11200
C 	C 	0.02620 0.72940 0.48633 -0.02100
C 	C 	0.88590 0.70160 0.48888 0.00400
C 	C 	0.83860 0.58310 0.49382 -0.13300
C 	C 	0.07180 0.51420 0.49883 0.06200
C 	C 	0.26300 0.67290 0.47647 0.40100
C 	C 	0.68880 0.55920 0.48583 0.42600
C 	C 	0.07520 0.91260 0.15129 -0.08300
C 	C 	0.03090 0.96770 0.19298 0.04700
C 	C 	0.12100 0.00950 0.22855 -0.13900
C 	C 	0.07400 0.07800 0.26433 0.01400
C 	C 	0.93550 0.10500 0.26718 -0.03700
C 	C 	0.84300 0.05860 0.23571 -0.08600
C 	C 	0.88810 0.98320 0.19887 0.06900
C 	C 	0.79460 0.92490 0.16726 -0.16000
C 	C 	0.84130 0.87150 0.12812 0.03000
C 	C 	0.98270 0.86830 0.11974 -0.03700
C 	C 	0.21890 0.92090 0.13504 0.32400
C 	C 	0.26700 0.97090 0.23292 0.45600
C 	C 	0.64650 0.90090 0.17773 0.49000
C 	C 	0.70180 0.10470 0.23862 0.33900
C 	C 	0.11840 0.13870 0.01069 -0.11300
C 	C 	0.02620 0.22940 0.01367 -0.01600
C 	C 	0.88590 0.20160 0.01112 -0.00100
C 	C 	0.83860 0.08310 0.00618 -0.13400
C 	C 	0.07180 0.01420 0.00117 0.06500
C 	C 	0.26300 0.17290 0.02353 0.40100
C 	C 	0.68880 0.05920 0.01417 0.42800
C 	C 	0.92480 0.58740 0.65129 -0.08200
C 	C 	0.96910 0.53230 0.69298 0.05900
C 	C 	0.87900 0.49050 0.72855 -0.15500
C 	C 	0.92600 0.42200 0.76433 0.01800
C 	C 	0.06450 0.39500 0.76718 -0.03700
C 	C 	0.15700 0.44140 0.73571 -0.08700
C 	C 	0.11190 0.51680 0.69887 0.06700
C 	C 	0.20540 0.57510 0.66726 -0.16000
C 	C 	0.15870 0.62850 0.62812 0.03400
C 	C 	0.01730 0.63170 0.61974 -0.04600
C 	C 	0.78110 0.57910 0.63504 0.33000
C 	C 	0.73300 0.52910 0.73292 0.47200
C 	C 	0.35350 0.59910 0.67773 0.49100
C 	C 	0.29820 0.39530 0.73862 0.33900
C 	C 	0.88160 0.36130 0.51069 -0.11200
C 	C 	0.97380 0.27060 0.51367 -0.02100
C 	C 	0.11410 0.29840 0.51112 0.00400
C 	C 	0.16140 0.41690 0.50618 -0.13300
C 	C 	0.92820 0.48580 0.50117 0.06200
C 	C 	0.73700 0.32710 0.52353 0.40100
C 	C 	0.31120 0.44080 0.51417 0.42600
O 	O 	0.71210 0.14070 0.77251 -0.49000
O 	O 	0.64360 0.95070 0.75494 -0.51700
O 	O 	0.70790 0.98440 0.85831 -0.39400
O 	O 	0.73590 0.16420 0.89045 -0.40500
O 	O 	0.38390 0.13040 0.78221 -0.48100
O 	O 	0.43780 0.09630 0.85442 -0.53400
O 	O 	0.35540 0.88870 0.72276 -0.38600
O 	O 	0.35540 0.85400 0.79630 -0.40300
O 	O 	0.67760 0.89930 0.94987 -0.47400
O 	O 	0.68540 0.72740 0.99068 -0.28400
O 	O 	0.39400 0.88380 0.00988 -0.47700
O 	O 	0.34140 0.01410 0.95385 -0.49100
O 	O 	0.28790 0.35930 0.27251 -0.49300
O 	O 	0.35640 0.54930 0.25494 -0.52500
O 	O 	0.29210 0.51560 0.35831 -0.40100
O 	O 	0.26410 0.33580 0.39045 -0.40600
O 	O 	0.61610 0.36960 0.28221 -0.48000
O 	O 	0.56220 0.40370 0.35442 -0.53400
O 	O 	0.64460 0.61130 0.22276 -0.38600
O 	O 	0.64460 0.64600 0.29630 -0.40300
O 	O 	0.32240 0.60070 0.44987 -0.47600
O 	O 	0.31460 0.77260 0.49068 -0.28500
O 	O 	0.60600 0.61620 0.50988 -0.47600
O 	O 	0.65860 0.48590 0.45385 -0.49000
O 	O 	0.28790 0.85930 0.22749 -0.49000
O 	O 	0.35640 0.04930 0.24506 -0.51700
O 	O 	0.29210 0.01560 0.14169 -0.39400
O 	O 	0.26410 0.83580 0.10955 -0.40500
O 	O 	0.61610 0.86960 0.21779 -0.48100
O 	O 	0.56220 0.90370 0.14558 -0.53400
O 	O 	0.64460 0.11130 0.27724 -0.38600
O 	O 	0.64460 0.14600 0.20370 -0.40300
O 	O 	0.32240 0.10070 0.05013 -0.47400
O 	O 	0.31460 0.27260 0.00932 -0.28400
O 	O 	0.60600 0.11620 0.99012 -0.47700
O 	O 	0.65860 0.98590 0.04615 -0.49100
O 	O 	0.71210 0.64070 0.72749 -0.49300
O 	O 	0.64360 0.45070 0.74506 -0.52500
O 	O 	0.70790 0.48440 0.64169 -0.40100
O 	O 	0.73590 0.66420 0.60955 -0.40600
O 	O 	0.38390 0.63040 0.71779 -0.48000
O 	O 	0.43780 0.59630 0.64558 -0.53400
O 	O 	0.35540 0.38870 0.77724 -0.38600
O 	O 	0.35540 0.35400 0.70370 -0.40300
O 	O 	0.67760 0.39930 0.55013 -0.47600
O 	O 	0.68540 0.22740 0.50932 -0.28500
O 	O 	0.39400 0.38380 0.49012 -0.47600
O 	O 	0.34140 0.51410 0.54615 -0.49000
