data_crystal

_cell_length_a 10.33140
_cell_length_b 12.31960
_cell_length_c 19.04200
_cell_angle_alpha 106.78500
_cell_angle_beta  93.69400
_cell_angle_gamma 94.28400

_symmetry_space_group_name_	'P 1'
_symmetry_space_group_name_H-M	'P 1'

loop_
_symmetry_equiv_pos_as_xyz
  x,y,z

loop_
_atom_site_label
_atom_site_type_symbol
_atom_site_fract_x
_atom_site_fract_y
_atom_site_fract_z
_atom_site_charge
Cu	Cu	0.10869 0.47926 0.22495 0.91900
Cu	Cu	0.34595 0.54578 0.28994 0.92000
Cu	Cu	0.58850 0.20678 0.39764 0.88800
Cu	Cu	0.88105 0.83383 0.03246 0.89200
O 	O 	0.16940 0.32780 0.19270 -0.40000
O 	O 	0.74800 0.29870 0.43700 -0.40100
O 	O 	0.71770 0.74410 0.99110 -0.37400
O 	O 	0.37340 0.57220 0.19680 -0.40400
O 	O 	0.08430 0.63970 0.26330 -0.39000
O 	O 	0.08250 0.45770 0.32100 -0.39600
O 	O 	0.28560 0.70000 0.31940 -0.38100
O 	O 	0.28630 0.50460 0.37380 -0.39400
N 	N 	0.38300 0.42720 0.62080 -0.05600
O 	O 	0.04250 0.92760 0.07010 -0.40400
O 	O 	0.43220 0.10700 0.35740 -0.41000
O 	O 	0.17860 0.50860 0.13480 -0.38000
O 	O 	0.73370 0.73040 0.10460 -0.30000
N 	N 	0.09580 0.55690 0.81000 -0.13800
N 	N 	0.28330 0.34750 0.59270 -0.09600
O 	O 	0.29130 0.22590 0.34000 -0.27900
O 	O 	0.37440 0.38520 0.24120 -0.39300
N 	N 	0.78680 0.96810 0.08220 -0.16700
N 	N 	0.26480 0.57080 0.88340 -0.09100
N 	N 	0.68970 0.08160 0.33190 -0.15800
N 	N 	0.85310 0.99120 0.29860 -0.09200
C 	C 	0.06030 0.31600 0.53850 -0.08500
H 	H 	0.03700 0.28140 0.57390 0.08600
C 	C 	0.46330 0.64260 0.96390 -0.09000
H 	H 	0.50070 0.66310 0.92590 0.09000
C 	C 	0.33700 0.59200 0.95360 0.11500
N 	N 	0.13540 0.57760 0.87940 -0.04800
N 	N 	0.81730 0.08590 0.34540 -0.05100
N 	N 	0.45600 0.38890 0.66510 -0.13700
C 	C 	0.18710 0.36060 0.53880 0.09900
N 	N 	0.65880 0.95830 0.07860 -0.04900
N 	N 	0.62350 0.05650 0.11840 -0.09100
C 	C 	0.29030 0.25900 0.62010 0.00500
H 	H 	0.23250 0.19360 0.60970 0.04100
O 	O 	0.80550 0.20990 0.51950 -0.26800
C 	C 	0.17010 0.46360 0.37150 0.34700
C 	C 	0.53310 0.66250 0.03110 -0.02300
C 	C 	0.27710 0.56290 0.00960 -0.07400
H 	H 	0.19160 0.52950 0.00180 0.08500
C 	C 	0.22970 0.10570 0.13380 -0.01900
H 	H 	0.14210 0.11760 0.13660 0.05200
C 	C 	0.82980 0.27230 0.48100 0.32000
C 	C 	0.22530 0.41220 0.48650 -0.07000
H 	H 	0.31100 0.44220 0.48790 0.07800
C 	C 	0.96740 0.32400 0.48370 -0.03000
C 	C 	0.08410 0.05750 0.31730 -0.07200
H 	H 	0.06360 0.13060 0.31980 0.08500
C 	C 	0.98610 0.96800 0.30340 0.08900
C 	C 	0.47460 0.63430 0.08760 -0.02400
H 	H 	0.52140 0.64900 0.13330 0.07100
C 	C 	0.39360 0.98170 0.09180 -0.07800
H 	H 	0.41780 0.91040 0.06710 0.09000
C 	C 	0.29340 0.55240 0.14090 0.33900
C 	C 	0.31880 0.13310 0.34300 0.32900
C 	C 	0.40180 0.28700 0.66670 0.01400
H 	H 	0.43470 0.24300 0.69470 0.03700
C 	C 	0.00390 0.37260 0.43140 -0.01500
H 	H 	0.94230 0.37590 0.39440 0.06800
C 	C 	0.13220 0.41760 0.43220 -0.03800
C 	C 	0.21200 0.03580 0.32740 -0.04500
C 	C 	0.30680 0.54560 0.81580 0.00700
H 	H 	0.39160 0.53580 0.80320 0.04700
O 	O 	0.19140 0.81420 0.02070 -0.26800
C 	C 	0.64490 0.98540 0.27840 0.01900
H 	H 	0.55850 0.96320 0.25970 0.03700
C 	C 	0.19810 0.53750 0.77000 0.02100
H 	H 	0.19510 0.52120 0.71900 0.04200
C 	C 	0.67110 0.71440 0.04410 0.29200
C 	C 	0.17400 0.71660 0.29680 0.33600
C 	C 	0.48770 0.07350 0.12520 0.10200
C 	C 	0.74930 0.92640 0.25640 -0.00300
H 	H 	0.74900 0.85690 0.22030 0.05500
C 	C 	0.14330 0.83680 0.30570 -0.04100
C 	C 	0.01440 0.85870 0.29570 -0.06600
H 	H 	0.94790 0.79950 0.28390 0.07600
C 	C 	0.24200 0.92630 0.32250 -0.00500
H 	H 	0.32820 0.91250 0.33040 0.06100
C 	C 	0.34760 0.58480 0.07740 -0.03500
C 	C 	0.32320 0.19490 0.16710 -0.04300
C 	C 	0.15990 0.90430 0.05930 0.31500
C 	C 	0.28620 0.31130 0.20430 0.35100
C 	C 	0.26250 0.00080 0.09690 -0.04500
C 	C 	0.45510 0.17740 0.16370 -0.08200
H 	H 	0.51930 0.23590 0.18750 0.07300
C 	C 	0.72970 0.13040 0.14890 0.01100
H 	H 	0.73160 0.20460 0.17960 0.03800
C 	C 	0.83230 0.07280 0.12510 0.02800
H 	H 	0.91960 0.10080 0.13650 0.03100
Cu	Cu	0.89131 0.52074 0.77505 0.91800
Cu	Cu	0.65405 0.45422 0.71006 0.91900
Cu	Cu	0.41150 0.79322 0.60236 0.88700
Cu	Cu	0.11895 0.16617 0.96754 0.89100
O 	O 	0.83060 0.67220 0.80730 -0.40000
O 	O 	0.25200 0.70130 0.56300 -0.40100
O 	O 	0.28230 0.25590 0.00890 -0.37400
O 	O 	0.62660 0.42780 0.80320 -0.40400
O 	O 	0.91570 0.36030 0.73670 -0.39000
O 	O 	0.91750 0.54230 0.67900 -0.39600
O 	O 	0.71440 0.30000 0.68060 -0.38100
O 	O 	0.71370 0.49540 0.62620 -0.39400
N 	N 	0.61700 0.57280 0.37920 -0.05600
O 	O 	0.95750 0.07240 0.92990 -0.40400
O 	O 	0.56780 0.89300 0.64260 -0.41000
O 	O 	0.82140 0.49140 0.86520 -0.38000
O 	O 	0.26630 0.26960 0.89540 -0.30000
N 	N 	0.90420 0.44310 0.19000 -0.13800
N 	N 	0.71670 0.65250 0.40730 -0.09600
O 	O 	0.70870 0.77410 0.66000 -0.27900
O 	O 	0.62560 0.61480 0.75880 -0.39300
N 	N 	0.21320 0.03190 0.91780 -0.16700
N 	N 	0.73520 0.42920 0.11660 -0.09100
N 	N 	0.31030 0.91840 0.66810 -0.15800
N 	N 	0.14690 0.00880 0.70140 -0.09200
C 	C 	0.93970 0.68400 0.46150 -0.08500
H 	H 	0.96300 0.71860 0.42610 0.08600
C 	C 	0.53670 0.35740 0.03610 -0.09000
H 	H 	0.49930 0.33690 0.07410 0.09000
C 	C 	0.66300 0.40800 0.04640 0.11500
N 	N 	0.86460 0.42240 0.12060 -0.04800
N 	N 	0.18270 0.91410 0.65460 -0.05100
N 	N 	0.54400 0.61110 0.33490 -0.13700
C 	C 	0.81290 0.63940 0.46120 0.09900
N 	N 	0.34120 0.04170 0.92140 -0.04900
N 	N 	0.37650 0.94350 0.88160 -0.09100
C 	C 	0.70970 0.74100 0.37990 0.00500
H 	H 	0.76750 0.80640 0.39030 0.04100
O 	O 	0.19450 0.79010 0.48050 -0.26800
C 	C 	0.82990 0.53640 0.62850 0.34700
C 	C 	0.46690 0.33750 0.96890 -0.02300
C 	C 	0.72290 0.43710 0.99040 -0.07400
H 	H 	0.80840 0.47050 0.99820 0.08500
C 	C 	0.77030 0.89430 0.86620 -0.01900
H 	H 	0.85790 0.88240 0.86340 0.05200
C 	C 	0.17020 0.72770 0.51900 0.32000
C 	C 	0.77470 0.58780 0.51350 -0.07000
H 	H 	0.68900 0.55780 0.51210 0.07800
C 	C 	0.03260 0.67600 0.51630 -0.03000
C 	C 	0.91590 0.94250 0.68270 -0.07200
H 	H 	0.93640 0.86940 0.68020 0.08500
C 	C 	0.01390 0.03200 0.69660 0.08900
C 	C 	0.52540 0.36570 0.91240 -0.02400
H 	H 	0.47860 0.35100 0.86670 0.07100
C 	C 	0.60640 0.01830 0.90820 -0.07800
H 	H 	0.58220 0.08960 0.93290 0.09000
C 	C 	0.70660 0.44760 0.85910 0.33900
C 	C 	0.68120 0.86690 0.65700 0.32900
C 	C 	0.59820 0.71300 0.33330 0.01400
H 	H 	0.56530 0.75700 0.30530 0.03700
C 	C 	0.99610 0.62740 0.56860 -0.01500
H 	H 	0.05770 0.62410 0.60560 0.06800
C 	C 	0.86780 0.58240 0.56780 -0.03800
C 	C 	0.78800 0.96420 0.67260 -0.04500
C 	C 	0.69320 0.45440 0.18420 0.00700
H 	H 	0.60840 0.46420 0.19680 0.04700
O 	O 	0.80860 0.18580 0.97930 -0.26800
C 	C 	0.35510 0.01460 0.72160 0.01900
H 	H 	0.44150 0.03680 0.74030 0.03700
C 	C 	0.80190 0.46250 0.23000 0.02100
H 	H 	0.80490 0.47880 0.28100 0.04200
C 	C 	0.32890 0.28560 0.95590 0.29200
C 	C 	0.82600 0.28340 0.70320 0.33600
C 	C 	0.51230 0.92650 0.87480 0.10200
C 	C 	0.25070 0.07360 0.74360 -0.00300
H 	H 	0.25100 0.14310 0.77970 0.05500
C 	C 	0.85670 0.16320 0.69430 -0.04100
C 	C 	0.98560 0.14130 0.70430 -0.06600
H 	H 	0.05210 0.20050 0.71610 0.07600
C 	C 	0.75800 0.07370 0.67750 -0.00500
H 	H 	0.67180 0.08750 0.66960 0.06100
C 	C 	0.65240 0.41520 0.92260 -0.03500
C 	C 	0.67680 0.80510 0.83290 -0.04300
C 	C 	0.84010 0.09570 0.94070 0.31500
C 	C 	0.71380 0.68870 0.79570 0.35100
C 	C 	0.73750 0.99920 0.90310 -0.04500
C 	C 	0.54490 0.82260 0.83630 -0.08200
H 	H 	0.48070 0.76410 0.81250 0.07300
C 	C 	0.27030 0.86960 0.85110 0.01100
H 	H 	0.26840 0.79540 0.82040 0.03800
C 	C 	0.16770 0.92720 0.87490 0.02800
H 	H 	0.08040 0.89920 0.86350 0.03100
