data_crystal

_cell_length_a 15.25100
_cell_length_b 6.69900
_cell_length_c 14.38200
_cell_angle_alpha 90.00000
_cell_angle_beta  90.00000
_cell_angle_gamma 90.00000

_symmetry_space_group_name_	'P 1'
_symmetry_space_group_name_H-M	'P 1'

loop_
_symmetry_equiv_pos_as_xyz
  x,y,z

loop_
_atom_site_label
_atom_site_type_symbol
_atom_site_fract_x
_atom_site_fract_y
_atom_site_fract_z
_atom_site_charge
O 	O 	0.85330 0.08530 0.63750 -0.42700
O 	O 	0.70430 0.58300 0.74340 -0.38900
O 	O 	0.64670 0.91470 0.13750 -0.42800
O 	O 	0.79570 0.41700 0.24340 -0.39000
O 	O 	0.14670 0.58530 0.36250 -0.42900
O 	O 	0.29570 0.08300 0.25660 -0.39000
O 	O 	0.35330 0.41470 0.86250 -0.42900
O 	O 	0.20430 0.91700 0.75660 -0.39000
O 	O 	0.14670 0.91470 0.36250 -0.42800
O 	O 	0.29570 0.41700 0.25660 -0.39000
O 	O 	0.35330 0.08530 0.86250 -0.42800
O 	O 	0.20430 0.58300 0.75660 -0.39000
O 	O 	0.85330 0.41470 0.63750 -0.42900
O 	O 	0.70430 0.91700 0.74340 -0.39000
O 	O 	0.64670 0.58530 0.13750 -0.42900
O 	O 	0.79570 0.08300 0.24340 -0.39000
Gd	Gd	0.80109 0.75000 0.62073 1.41500
O 	O 	0.84940 0.75000 0.46300 -0.44500
O 	O 	0.89080 0.75000 0.75710 -0.40000
N 	N 	0.96550 0.75000 0.59540 -0.15000
C 	C 	0.92850 0.75000 0.43400 0.33800
Na	Na	0.73570 0.75000 0.31060 0.57400
C 	C 	0.97030 0.75000 0.76090 0.35700
C 	C 	0.99640 0.75000 0.50730 -0.02000
C 	C 	0.01970 0.75000 0.66790 -0.00600
O 	O 	0.94900 0.75000 0.35160 -0.26900
O 	O 	0.01940 0.75000 0.82990 -0.28800
C 	C 	0.08720 0.75000 0.49480 -0.04000
C 	C 	0.10650 0.75000 0.65260 -0.00200
N 	N 	0.14230 0.75000 0.56590 -0.11200
C 	C 	0.12850 0.75000 0.39940 0.38800
C 	C 	0.17300 0.75000 0.73000 0.29600
Gd	Gd	0.69891 0.25000 0.12073 1.41500
O 	O 	0.65060 0.25000 0.96300 -0.44500
O 	O 	0.60920 0.25000 0.25710 -0.40000
N 	N 	0.53450 0.25000 0.09540 -0.15000
C 	C 	0.57150 0.25000 0.93400 0.33800
Na	Na	0.76430 0.25000 0.81060 0.57500
C 	C 	0.52970 0.25000 0.26090 0.35900
C 	C 	0.50360 0.25000 0.00730 -0.02100
C 	C 	0.48030 0.25000 0.16790 -0.00700
O 	O 	0.55100 0.25000 0.85160 -0.26800
O 	O 	0.48060 0.25000 0.32990 -0.28900
C 	C 	0.41280 0.25000 0.99480 -0.03900
C 	C 	0.39350 0.25000 0.15260 -0.00200
N 	N 	0.35770 0.25000 0.06590 -0.11300
C 	C 	0.37150 0.25000 0.89940 0.38800
C 	C 	0.32700 0.25000 0.23000 0.29600
Gd	Gd	0.19891 0.25000 0.37927 1.41500
O 	O 	0.15060 0.25000 0.53700 -0.44500
O 	O 	0.10920 0.25000 0.24290 -0.40000
N 	N 	0.03450 0.25000 0.40460 -0.15000
C 	C 	0.07150 0.25000 0.56600 0.33800
Na	Na	0.26430 0.25000 0.68940 0.57400
C 	C 	0.02970 0.25000 0.23910 0.35700
C 	C 	0.00360 0.25000 0.49270 -0.02000
C 	C 	0.98030 0.25000 0.33210 -0.00600
O 	O 	0.05100 0.25000 0.64840 -0.26900
O 	O 	0.98060 0.25000 0.17010 -0.28800
C 	C 	0.91280 0.25000 0.50520 -0.04000
C 	C 	0.89350 0.25000 0.34740 -0.00200
N 	N 	0.85770 0.25000 0.43410 -0.11200
C 	C 	0.87150 0.25000 0.60060 0.38800
C 	C 	0.82700 0.25000 0.27000 0.29600
Gd	Gd	0.30109 0.75000 0.87927 1.41500
O 	O 	0.34940 0.75000 0.03700 -0.44500
O 	O 	0.39080 0.75000 0.74290 -0.40000
N 	N 	0.46550 0.75000 0.90460 -0.15000
C 	C 	0.42850 0.75000 0.06600 0.33800
Na	Na	0.23570 0.75000 0.18940 0.57500
C 	C 	0.47030 0.75000 0.73910 0.35900
C 	C 	0.49640 0.75000 0.99270 -0.02100
C 	C 	0.51970 0.75000 0.83210 -0.00700
O 	O 	0.44900 0.75000 0.14840 -0.26800
O 	O 	0.51940 0.75000 0.67010 -0.28900
C 	C 	0.58720 0.75000 0.00520 -0.03900
C 	C 	0.60650 0.75000 0.84740 -0.00200
N 	N 	0.64230 0.75000 0.93410 -0.11300
C 	C 	0.62850 0.75000 0.10060 0.38800
C 	C 	0.67300 0.75000 0.77000 0.29600
