data_crystal

_cell_length_a 15.14700
_cell_length_b 6.67630
_cell_length_c 14.37500
_cell_angle_alpha 90.00000
_cell_angle_beta  90.00000
_cell_angle_gamma 90.00000

_symmetry_space_group_name_	'P 1'
_symmetry_space_group_name_H-M	'P 1'

loop_
_symmetry_equiv_pos_as_xyz
  x,y,z

loop_
_atom_site_label
_atom_site_type_symbol
_atom_site_fract_x
_atom_site_fract_y
_atom_site_fract_z
_atom_site_charge
O 	O 	0.85190 0.08440 0.63700 -0.47700
O 	O 	0.70330 0.58400 0.74180 -0.43100
O 	O 	0.64810 0.91560 0.13700 -0.47600
O 	O 	0.79670 0.41600 0.24180 -0.43000
O 	O 	0.14810 0.58440 0.36300 -0.47700
O 	O 	0.29670 0.08400 0.25820 -0.43100
O 	O 	0.35190 0.41560 0.86300 -0.47700
O 	O 	0.20330 0.91600 0.75820 -0.43100
O 	O 	0.14810 0.91560 0.36300 -0.47600
O 	O 	0.29670 0.41600 0.25820 -0.43000
O 	O 	0.35190 0.08440 0.86300 -0.47600
O 	O 	0.20330 0.58400 0.75820 -0.43000
O 	O 	0.85190 0.41560 0.63700 -0.47700
O 	O 	0.70330 0.91600 0.74180 -0.43100
O 	O 	0.64810 0.58440 0.13700 -0.47700
O 	O 	0.79670 0.08400 0.24180 -0.43100
Tb	Tb	0.80031 0.75000 0.62023 1.66200
O 	O 	0.84730 0.75000 0.46330 -0.48700
O 	O 	0.88940 0.75000 0.75720 -0.43400
N 	N 	0.96470 0.75000 0.59480 -0.17000
C 	C 	0.92750 0.75000 0.43380 0.34600
Na	Na	0.73460 0.75000 0.31000 0.57300
C 	C 	0.96910 0.75000 0.75870 0.35700
C 	C 	0.99640 0.75000 0.50820 -0.01500
C 	C 	0.01790 0.75000 0.66700 -0.01100
O 	O 	0.94830 0.75000 0.35250 -0.27900
O 	O 	0.01850 0.75000 0.83000 -0.29100
C 	C 	0.08720 0.75000 0.49400 -0.05900
C 	C 	0.10660 0.75000 0.65270 -0.00300
N 	N 	0.14270 0.75000 0.56600 -0.11600
C 	C 	0.12960 0.75000 0.39940 0.42000
C 	C 	0.17670 0.75000 0.72980 0.32000
Tb	Tb	0.69969 0.25000 0.12023 1.66200
O 	O 	0.65270 0.25000 0.96330 -0.48600
O 	O 	0.61060 0.25000 0.25720 -0.43400
N 	N 	0.53530 0.25000 0.09480 -0.16900
C 	C 	0.57250 0.25000 0.93380 0.34700
Na	Na	0.76540 0.25000 0.81000 0.57300
C 	C 	0.53090 0.25000 0.25870 0.35900
C 	C 	0.50360 0.25000 0.00820 -0.01500
C 	C 	0.48210 0.25000 0.16700 -0.01200
O 	O 	0.55170 0.25000 0.85250 -0.27900
O 	O 	0.48150 0.25000 0.33000 -0.29200
C 	C 	0.41280 0.25000 0.99400 -0.05800
C 	C 	0.39340 0.25000 0.15270 -0.00300
N 	N 	0.35730 0.25000 0.06600 -0.11700
C 	C 	0.37040 0.25000 0.89940 0.42000
C 	C 	0.32330 0.25000 0.22980 0.32000
Tb	Tb	0.19969 0.25000 0.37977 1.66200
O 	O 	0.15270 0.25000 0.53670 -0.48700
O 	O 	0.11060 0.25000 0.24280 -0.43400
N 	N 	0.03530 0.25000 0.40520 -0.17000
C 	C 	0.07250 0.25000 0.56620 0.34600
Na	Na	0.26540 0.25000 0.69000 0.57300
C 	C 	0.03090 0.25000 0.24130 0.35700
C 	C 	0.00360 0.25000 0.49180 -0.01500
C 	C 	0.98210 0.25000 0.33300 -0.01100
O 	O 	0.05170 0.25000 0.64750 -0.27900
O 	O 	0.98150 0.25000 0.17000 -0.29100
C 	C 	0.91280 0.25000 0.50600 -0.05900
C 	C 	0.89340 0.25000 0.34730 -0.00300
N 	N 	0.85730 0.25000 0.43400 -0.11600
C 	C 	0.87040 0.25000 0.60060 0.42000
C 	C 	0.82330 0.25000 0.27020 0.32000
Tb	Tb	0.30031 0.75000 0.87977 1.66200
O 	O 	0.34730 0.75000 0.03670 -0.48600
O 	O 	0.38940 0.75000 0.74280 -0.43400
N 	N 	0.46470 0.75000 0.90520 -0.16900
C 	C 	0.42750 0.75000 0.06620 0.34700
Na	Na	0.23460 0.75000 0.19000 0.57300
C 	C 	0.46910 0.75000 0.74130 0.35900
C 	C 	0.49640 0.75000 0.99180 -0.01500
C 	C 	0.51790 0.75000 0.83300 -0.01200
O 	O 	0.44830 0.75000 0.14750 -0.27900
O 	O 	0.51850 0.75000 0.67000 -0.29200
C 	C 	0.58720 0.75000 0.00600 -0.05800
C 	C 	0.60660 0.75000 0.84730 -0.00300
N 	N 	0.64270 0.75000 0.93400 -0.11700
C 	C 	0.62960 0.75000 0.10060 0.42000
C 	C 	0.67670 0.75000 0.77020 0.32000
