data_crystal

_cell_length_a 16.13500
_cell_length_b 26.79200
_cell_length_c 18.63000
_cell_angle_alpha 90.00000
_cell_angle_beta  110.57000
_cell_angle_gamma 90.00000

_symmetry_space_group_name_	'P 1'
_symmetry_space_group_name_H-M	'P 1'

loop_
_symmetry_equiv_pos_as_xyz
  x,y,z

loop_
_atom_site_label
_atom_site_type_symbol
_atom_site_fract_x
_atom_site_fract_y
_atom_site_fract_z
_atom_site_charge
Ca	Ca	0.95226 0.43205 0.97084 1.51100
Ca	Ca	0.27871 0.93699 0.44478 1.50200
O 	O 	0.06307 0.49387 0.95642 -1.00500
H 	H 	0.11410 0.48170 0.97620 0.39800
H 	H 	0.05450 0.49730 0.90950 0.36000
O 	O 	0.85245 0.36484 0.90870 -0.45200
O 	O 	0.78752 0.41468 0.96482 -0.55900
O 	O 	0.02382 0.38481 0.89772 -0.46100
O 	O 	0.93898 0.32073 0.83680 -0.49900
H 	H 	0.91080 0.33340 0.86200 0.30000
O 	O 	0.24076 0.01694 0.48378 -0.46100
O 	O 	0.38053 0.99525 0.54573 -0.50800
O 	O 	0.37590 0.99385 0.38663 -0.52900
O 	O 	0.23427 0.97678 0.32494 -0.46000
O 	O 	0.97041 0.11738 0.58757 -0.41200
O 	O 	0.08430 0.07399 0.58407 -0.41800
O 	O 	0.50263 0.41519 0.99554 -0.47800
O 	O 	0.62665 0.37679 0.06676 -0.49900
C 	C 	0.45210 0.27240 0.78950 0.02500
C 	C 	0.37740 0.29126 0.80170 -0.09100
H 	H 	0.38360 0.31970 0.83360 0.06100
C 	C 	0.29420 0.26948 0.76840 0.03000
C 	C 	0.28660 0.22717 0.72320 -0.09700
H 	H 	0.23030 0.21210 0.69980 0.06500
C 	C 	0.36040 0.20651 0.71160 0.03400
C 	C 	0.44240 0.22993 0.74430 -0.09400
H 	H 	0.49260 0.21660 0.73570 0.06100
C 	C 	0.53890 0.29910 0.82360 0.06300
C 	C 	0.61840 0.27674 0.82700 -0.12900
H 	H 	0.61820 0.24380 0.80820 0.07200
C 	C 	0.69770 0.30259 0.85770 0.07700
H 	H 	0.75110 0.28740 0.85830 0.01900
C 	C 	0.70010 0.34999 0.88730 -0.17900
C 	C 	0.62100 0.37187 0.88400 0.07700
H 	H 	0.62130 0.40450 0.90390 -0.03200
C 	C 	0.54230 0.34685 0.85240 -0.13400
H 	H 	0.48880 0.36280 0.85030 0.07600
C 	C 	0.78480 0.37835 0.92270 0.39700
C 	C 	0.21740 0.29015 0.78530 0.05100
C 	C 	0.21560 0.34047 0.80450 -0.11600
H 	H 	0.26080 0.36220 0.80150 0.07200
C 	C 	0.14900 0.35922 0.82790 0.05500
H 	H 	0.14990 0.39320 0.84290 0.02000
C 	C 	0.08050 0.32774 0.82910 -0.14100
C 	C 	0.07910 0.27795 0.80560 0.06000
H 	H 	0.03120 0.25680 0.80420 0.03300
C 	C 	0.14730 0.25958 0.78450 -0.11800
H 	H 	0.14630 0.22570 0.76920 0.07500
C 	C 	0.01230 0.34747 0.85790 0.42700
C 	C 	0.35040 0.16058 0.66470 0.04400
C 	C 	0.27260 0.15167 0.60200 -0.10400
H 	H 	0.22670 0.17590 0.58820 0.06900
C 	C 	0.26180 0.10813 0.56020 0.04500
H 	H 	0.20870 0.10260 0.51790 0.02600
C 	C 	0.32830 0.07221 0.57960 -0.13100
C 	C 	0.40680 0.08100 0.64140 0.04000
H 	H 	0.45320 0.05710 0.65410 0.00700
C 	C 	0.41720 0.12438 0.68390 -0.10600
H 	H 	0.47010 0.12970 0.72650 0.06400
C 	C 	0.31560 0.02585 0.53350 0.32100
C 	C 	0.29530 0.12610 0.07650 0.06800
C 	C 	0.24140 0.11279 0.00280 -0.19700
H 	H 	0.20450 0.08420 0.99530 0.11100
C 	C 	0.24080 0.14091 0.93930 0.09100
C 	C 	0.29340 0.18259 0.95090 -0.10200
H 	H 	0.29410 0.20130 0.90780 0.07300
C 	C 	0.34610 0.19827 0.02470 0.03200
C 	C 	0.34730 0.16940 0.08690 -0.11900
H 	H 	0.38380 0.17910 0.13720 0.07400
C 	C 	0.29780 0.09477 0.14240 0.03100
C 	C 	0.37640 0.08721 0.20470 -0.11800
H 	H 	0.42910 0.10320 0.20500 0.06600
C 	C 	0.37920 0.05730 0.26550 0.06000
H 	H 	0.43320 0.05350 0.30750 0.00000
C 	C 	0.30360 0.03261 0.26580 -0.16900
C 	C 	0.22370 0.04046 0.20390 0.05600
H 	H 	0.17110 0.02450 0.20380 0.01300
C 	C 	0.22100 0.07063 0.14440 -0.11400
H 	H 	0.16640 0.07550 0.10340 0.05900
C 	C 	0.30410 0.99879 0.32980 0.41400
C 	C 	0.18890 0.12608 0.85940 0.01600
C 	C 	0.09750 0.13069 0.83060 -0.09700
H 	H 	0.06680 0.13980 0.86370 0.06600
C 	C 	0.05060 0.12196 0.75310 0.03100
H 	H 	0.98810 0.12550 0.73340 0.01300
C 	C 	0.09500 0.10815 0.70460 -0.10900
C 	C 	0.18520 0.10246 0.73360 0.01800
H 	H 	0.21550 0.09130 0.70110 0.03500
C 	C 	0.23240 0.11287 0.81010 -0.09000
H 	H 	0.29520 0.11090 0.82880 0.06200
C 	C 	0.04650 0.09917 0.62050 0.30800
C 	C 	0.39790 0.24495 0.03200 0.02500
C 	C 	0.35710 0.28630 0.98860 -0.09000
H 	H 	0.29630 0.28450 0.95730 0.07200
C 	C 	0.40340 0.32957 0.99040 0.07900
H 	H 	0.37420 0.35770 0.96140 0.01700
C 	C 	0.49360 0.33233 0.03500 -0.16400
C 	C 	0.53420 0.29118 0.07940 0.05700
H 	H 	0.59510 0.29290 0.11050 0.01800
C 	C 	0.48750 0.24818 0.07880 -0.11300
H 	H 	0.51580 0.22070 0.11000 0.06600
C 	C 	0.54460 0.37820 0.03240 0.39400
Ca	Ca	0.04774 0.93205 0.52916 1.51100
Ca	Ca	0.72129 0.43699 0.05522 1.50000
O 	O 	0.93693 0.99387 0.54358 -1.00600
H 	H 	0.88590 0.98170 0.52380 0.39600
H 	H 	0.94550 0.99730 0.59050 0.36700
O 	O 	0.14755 0.86484 0.59130 -0.45200
O 	O 	0.21248 0.91468 0.53518 -0.56200
O 	O 	0.97618 0.88481 0.60228 -0.46400
O 	O 	0.06102 0.82073 0.66320 -0.49000
H 	H 	0.08920 0.83340 0.63800 0.29800
O 	O 	0.75924 0.51694 0.01622 -0.48200
O 	O 	0.61947 0.49525 0.95427 -0.53300
O 	O 	0.62410 0.49385 0.11337 -0.53900
O 	O 	0.76573 0.47678 0.17506 -0.46500
O 	O 	0.02959 0.61738 0.91243 -0.39200
O 	O 	0.91570 0.57399 0.91593 -0.40600
O 	O 	0.49737 0.91519 0.50446 -0.49800
O 	O 	0.37335 0.87679 0.43324 -0.49800
C 	C 	0.54790 0.77240 0.71050 0.02400
C 	C 	0.62260 0.79126 0.69830 -0.09100
H 	H 	0.61640 0.81970 0.66640 0.06000
C 	C 	0.70580 0.76948 0.73160 0.03000
C 	C 	0.71340 0.72717 0.77680 -0.09600
H 	H 	0.76970 0.71210 0.80020 0.06600
C 	C 	0.63960 0.70651 0.78840 0.03200
C 	C 	0.55760 0.72993 0.75570 -0.09300
H 	H 	0.50740 0.71660 0.76430 0.06000
C 	C 	0.46110 0.79910 0.67640 0.06300
C 	C 	0.38160 0.77674 0.67300 -0.13100
H 	H 	0.38180 0.74380 0.69180 0.07200
C 	C 	0.30230 0.80259 0.64230 0.07700
H 	H 	0.24890 0.78740 0.64170 0.01900
C 	C 	0.29990 0.84999 0.61270 -0.18000
C 	C 	0.37900 0.87187 0.61600 0.07700
H 	H 	0.37870 0.90450 0.59610 -0.03300
C 	C 	0.45770 0.84685 0.64760 -0.13600
H 	H 	0.51120 0.86280 0.64970 0.07500
C 	C 	0.21520 0.87835 0.57730 0.39700
C 	C 	0.78260 0.79015 0.71470 0.05000
C 	C 	0.78440 0.84047 0.69550 -0.11500
H 	H 	0.73920 0.86220 0.69850 0.07200
C 	C 	0.85100 0.85922 0.67210 0.05200
H 	H 	0.85010 0.89320 0.65710 0.02100
C 	C 	0.91950 0.82774 0.67090 -0.14000
C 	C 	0.92090 0.77795 0.69440 0.05800
H 	H 	0.96880 0.75680 0.69580 0.03200
C 	C 	0.85270 0.75958 0.71550 -0.11800
H 	H 	0.85370 0.72570 0.73080 0.07500
C 	C 	0.98770 0.84747 0.64210 0.41900
C 	C 	0.64960 0.66058 0.83530 0.05000
C 	C 	0.72740 0.65167 0.89800 -0.11000
H 	H 	0.77330 0.67590 0.91180 0.07400
C 	C 	0.73820 0.60813 0.93980 0.05900
H 	H 	0.79130 0.60260 0.98210 0.03000
C 	C 	0.67170 0.57221 0.92040 -0.14500
C 	C 	0.59320 0.58100 0.85860 0.05300
H 	H 	0.54680 0.55710 0.84590 0.00800
C 	C 	0.58280 0.62438 0.81610 -0.11300
H 	H 	0.52990 0.62970 0.77350 0.06700
C 	C 	0.68440 0.52585 0.96650 0.37700
C 	C 	0.70470 0.62610 0.42350 0.03700
C 	C 	0.75860 0.61279 0.49720 -0.10300
H 	H 	0.79550 0.58420 0.50470 0.06500
C 	C 	0.75920 0.64091 0.56070 0.04200
C 	C 	0.70660 0.68259 0.54910 -0.10500
H 	H 	0.70590 0.70130 0.59220 0.07000
C 	C 	0.65390 0.69827 0.47530 0.03600
C 	C 	0.65270 0.66940 0.41310 -0.10000
H 	H 	0.61620 0.67910 0.36280 0.06800
C 	C 	0.70220 0.59477 0.35760 0.04600
C 	C 	0.62360 0.58721 0.29530 -0.11700
H 	H 	0.57090 0.60320 0.29500 0.07000
C 	C 	0.62080 0.55730 0.23450 0.05400
H 	H 	0.56680 0.55350 0.19250 0.00700
C 	C 	0.69640 0.53261 0.23420 -0.14200
C 	C 	0.77630 0.54046 0.29610 0.05000
H 	H 	0.82890 0.52450 0.29620 0.02300
C 	C 	0.77900 0.57063 0.35560 -0.11300
H 	H 	0.83360 0.57550 0.39660 0.06700
C 	C 	0.69590 0.49879 0.17020 0.38900
C 	C 	0.81110 0.62608 0.64060 0.03000
C 	C 	0.90250 0.63069 0.66940 -0.09600
H 	H 	0.93320 0.63980 0.63630 0.06200
C 	C 	0.94940 0.62196 0.74690 0.01400
H 	H 	0.01190 0.62550 0.76660 0.02600
C 	C 	0.90500 0.60815 0.79540 -0.09900
C 	C 	0.81480 0.60246 0.76640 0.01600
H 	H 	0.78450 0.59130 0.79890 0.03700
C 	C 	0.76760 0.61287 0.68990 -0.09500
H 	H 	0.70480 0.61090 0.67120 0.06400
C 	C 	0.95350 0.59917 0.87950 0.29500
C 	C 	0.60210 0.74495 0.46800 0.05300
C 	C 	0.64290 0.78630 0.51140 -0.11900
H 	H 	0.70370 0.78450 0.54270 0.07500
C 	C 	0.59660 0.82957 0.50960 0.06100
H 	H 	0.62580 0.85770 0.53860 0.01900
C 	C 	0.50640 0.83233 0.46500 -0.14800
C 	C 	0.46580 0.79118 0.42060 0.06100
H 	H 	0.40490 0.79290 0.38950 0.01900
C 	C 	0.51250 0.74818 0.42120 -0.12000
H 	H 	0.48420 0.72070 0.39000 0.07100
C 	C 	0.45540 0.87820 0.46760 0.41700
Ca	Ca	0.04774 0.56795 0.02916 1.50700
Ca	Ca	0.72129 0.06301 0.55522 1.50100
O 	O 	0.93693 0.50613 0.04358 -1.02200
H 	H 	0.88590 0.51830 0.02380 0.39200
H 	H 	0.94550 0.50270 0.09050 0.36300
O 	O 	0.14755 0.63516 0.09130 -0.46000
O 	O 	0.21248 0.58532 0.03518 -0.58000
O 	O 	0.97618 0.61519 0.10228 -0.47100
O 	O 	0.06102 0.67927 0.16320 -0.49600
H 	H 	0.08920 0.66660 0.13800 0.29700
O 	O 	0.75924 0.98306 0.51622 -0.45500
O 	O 	0.61947 0.00475 0.45427 -0.56000
O 	O 	0.62410 0.00615 0.61337 -0.53800
O 	O 	0.76573 0.02322 0.67506 -0.46700
O 	O 	0.02959 0.88262 0.41243 -0.40500
O 	O 	0.91570 0.92601 0.41593 -0.41100
O 	O 	0.49737 0.58481 0.00446 -0.52700
O 	O 	0.37335 0.62321 0.93324 -0.49800
C 	C 	0.54790 0.72760 0.21050 0.02100
C 	C 	0.62260 0.70874 0.19830 -0.09000
H 	H 	0.61640 0.68030 0.16640 0.05900
C 	C 	0.70580 0.73052 0.23160 0.02800
C 	C 	0.71340 0.77283 0.27680 -0.09500
H 	H 	0.76970 0.78790 0.30020 0.06400
C 	C 	0.63960 0.79349 0.28840 0.03000
C 	C 	0.55760 0.77007 0.25570 -0.09200
H 	H 	0.50740 0.78340 0.26430 0.06000
C 	C 	0.46110 0.70090 0.17640 0.06400
C 	C 	0.38160 0.72326 0.17300 -0.13500
H 	H 	0.38180 0.75620 0.19180 0.07200
C 	C 	0.30230 0.69741 0.14230 0.07900
H 	H 	0.24890 0.71260 0.14170 0.01600
C 	C 	0.29990 0.65001 0.11270 -0.18700
C 	C 	0.37900 0.62813 0.11600 0.07800
H 	H 	0.37870 0.59550 0.09610 -0.03800
C 	C 	0.45770 0.65315 0.14760 -0.14100
H 	H 	0.51120 0.63720 0.14970 0.07500
C 	C 	0.21520 0.62165 0.07730 0.39900
C 	C 	0.78260 0.70985 0.21470 0.05100
C 	C 	0.78440 0.65953 0.19550 -0.11800
H 	H 	0.73920 0.63780 0.19850 0.07200
C 	C 	0.85100 0.64078 0.17210 0.05300
H 	H 	0.85010 0.60680 0.15710 0.01700
C 	C 	0.91950 0.67226 0.17090 -0.14500
C 	C 	0.92090 0.72205 0.19440 0.06000
H 	H 	0.96880 0.74320 0.19580 0.03100
C 	C 	0.85270 0.74042 0.21550 -0.12100
H 	H 	0.85370 0.77430 0.23080 0.07500
C 	C 	0.98770 0.65253 0.14210 0.42200
C 	C 	0.64960 0.83942 0.33530 0.05000
C 	C 	0.72740 0.84833 0.39800 -0.11200
H 	H 	0.77330 0.82410 0.41180 0.07200
C 	C 	0.73820 0.89187 0.43980 0.05800
H 	H 	0.79130 0.89740 0.48210 0.02200
C 	C 	0.67170 0.92779 0.42040 -0.14700
C 	C 	0.59320 0.91900 0.35860 0.05400
H 	H 	0.54680 0.94290 0.34590 0.01200
C 	C 	0.58280 0.87562 0.31610 -0.11300
H 	H 	0.52990 0.87030 0.27350 0.06700
C 	C 	0.68440 0.97415 0.46650 0.37900
C 	C 	0.70470 0.87390 0.92350 0.01000
C 	C 	0.75860 0.88721 0.99720 -0.02100
H 	H 	0.79550 0.91580 0.00470 0.02600
C 	C 	0.75920 0.85909 0.06070 -0.00500
C 	C 	0.70660 0.81741 0.04910 -0.10500
H 	H 	0.70590 0.79870 0.09220 0.06800
C 	C 	0.65390 0.80173 0.97530 0.03900
C 	C 	0.65270 0.83060 0.91310 -0.08300
H 	H 	0.61620 0.82090 0.86280 0.06300
C 	C 	0.70220 0.90523 0.85760 0.05700
C 	C 	0.62360 0.91279 0.79530 -0.11300
H 	H 	0.57090 0.89680 0.79500 0.07100
C 	C 	0.62080 0.94270 0.73450 0.04300
H 	H 	0.56680 0.94650 0.69250 0.01700
C 	C 	0.69640 0.96739 0.73420 -0.11000
C 	C 	0.77630 0.95954 0.79610 0.04100
H 	H 	0.82890 0.97550 0.79620 0.03500
C 	C 	0.77900 0.92937 0.85560 -0.10800
H 	H 	0.83360 0.92450 0.89660 0.07300
C 	C 	0.69590 0.00121 0.67020 0.36000
C 	C 	0.81110 0.87392 0.14060 0.05600
C 	C 	0.90250 0.86931 0.16940 -0.11700
H 	H 	0.93320 0.86020 0.13630 0.06900
C 	C 	0.94940 0.87804 0.24690 0.03700
H 	H 	0.01190 0.87450 0.26660 0.01500
C 	C 	0.90500 0.89185 0.29540 -0.11200
C 	C 	0.81480 0.89754 0.26640 0.03200
H 	H 	0.78450 0.90870 0.29890 0.03300
C 	C 	0.76760 0.88713 0.18990 -0.11300
H 	H 	0.70480 0.88910 0.17120 0.07000
C 	C 	0.95350 0.90083 0.37950 0.30700
C 	C 	0.60210 0.75505 0.96800 0.08000
C 	C 	0.64290 0.71370 0.01140 -0.14700
H 	H 	0.70370 0.71550 0.04270 0.08000
C 	C 	0.59660 0.67043 0.00960 0.04600
H 	H 	0.62580 0.64230 0.03860 0.01800
C 	C 	0.50640 0.66767 0.96500 -0.13400
C 	C 	0.46580 0.70882 0.92060 0.06500
H 	H 	0.40490 0.70710 0.88950 0.02000
C 	C 	0.51250 0.75182 0.92120 -0.12600
H 	H 	0.48420 0.77930 0.89000 0.07600
C 	C 	0.45540 0.62180 0.96760 0.44200
Ca	Ca	0.95226 0.06795 0.47084 1.50800
Ca	Ca	0.27871 0.56301 0.94478 1.50500
O 	O 	0.06307 0.00613 0.45642 -1.02100
H 	H 	0.11410 0.01830 0.47620 0.39400
H 	H 	0.05450 0.00270 0.40950 0.35700
O 	O 	0.85245 0.13516 0.40870 -0.45900
O 	O 	0.78752 0.08532 0.46482 -0.57600
O 	O 	0.02382 0.11519 0.39772 -0.46800
O 	O 	0.93898 0.17927 0.33680 -0.49900
H 	H 	0.91080 0.16660 0.36200 0.29800
O 	O 	0.24076 0.48306 0.98378 -0.43200
O 	O 	0.38053 0.50475 0.04573 -0.53400
O 	O 	0.37590 0.50615 0.88663 -0.52800
O 	O 	0.23427 0.52322 0.82494 -0.46100
O 	O 	0.97041 0.38262 0.08757 -0.41500
O 	O 	0.08430 0.42601 0.08407 -0.42200
O 	O 	0.50263 0.08481 0.49554 -0.50600
O 	O 	0.62665 0.12321 0.56676 -0.50000
C 	C 	0.45210 0.22760 0.28950 0.02300
C 	C 	0.37740 0.20874 0.30170 -0.09100
H 	H 	0.38360 0.18030 0.33360 0.06000
C 	C 	0.29420 0.23052 0.26840 0.02800
C 	C 	0.28660 0.27283 0.22320 -0.09700
H 	H 	0.23030 0.28790 0.19980 0.06400
C 	C 	0.36040 0.29349 0.21160 0.03300
C 	C 	0.44240 0.27007 0.24430 -0.09400
H 	H 	0.49260 0.28340 0.23570 0.06000
C 	C 	0.53890 0.20090 0.32360 0.06300
C 	C 	0.61840 0.22326 0.32700 -0.13300
H 	H 	0.61820 0.25620 0.30820 0.07200
C 	C 	0.69770 0.19741 0.35770 0.07800
H 	H 	0.75110 0.21260 0.35830 0.01700
C 	C 	0.70010 0.15001 0.38730 -0.18600
C 	C 	0.62100 0.12813 0.38400 0.07800
H 	H 	0.62130 0.09550 0.40390 -0.03700
C 	C 	0.54230 0.15315 0.35240 -0.13900
H 	H 	0.48880 0.13720 0.35030 0.07500
C 	C 	0.78480 0.12165 0.42270 0.39800
C 	C 	0.21740 0.20985 0.28530 0.05100
C 	C 	0.21560 0.15953 0.30450 -0.11900
H 	H 	0.26080 0.13780 0.30150 0.07200
C 	C 	0.14900 0.14078 0.32790 0.05400
H 	H 	0.14990 0.10680 0.34290 0.01600
C 	C 	0.08050 0.17226 0.32910 -0.14500
C 	C 	0.07910 0.22205 0.30560 0.06000
H 	H 	0.03120 0.24320 0.30420 0.03100
C 	C 	0.14730 0.24042 0.28450 -0.12100
H 	H 	0.14630 0.27430 0.26920 0.07500
C 	C 	0.01230 0.15253 0.35790 0.42300
C 	C 	0.35040 0.33942 0.16470 0.04300
C 	C 	0.27260 0.34833 0.10200 -0.10700
H 	H 	0.22670 0.32410 0.08820 0.06500
C 	C 	0.26180 0.39187 0.06020 0.04300
H 	H 	0.20870 0.39740 0.01790 0.01800
C 	C 	0.32830 0.42779 0.07960 -0.13200
C 	C 	0.40680 0.41900 0.14140 0.03900
H 	H 	0.45320 0.44290 0.15410 0.01100
C 	C 	0.41720 0.37562 0.18390 -0.10600
H 	H 	0.47010 0.37030 0.22650 0.06400
C 	C 	0.31560 0.47415 0.03350 0.31800
C 	C 	0.29530 0.37390 0.57650 0.03600
C 	C 	0.24140 0.38721 0.50280 -0.10200
H 	H 	0.20450 0.41580 0.49530 0.06400
C 	C 	0.24080 0.35909 0.43930 0.03900
C 	C 	0.29340 0.31741 0.45090 -0.10300
H 	H 	0.29410 0.29870 0.40780 0.07000
C 	C 	0.34610 0.30173 0.52470 0.03500
C 	C 	0.34730 0.33060 0.58690 -0.09900
H 	H 	0.38380 0.32090 0.63720 0.06800
C 	C 	0.29780 0.40523 0.64240 0.04600
C 	C 	0.37640 0.41279 0.70470 -0.11600
H 	H 	0.42910 0.39680 0.70500 0.06900
C 	C 	0.37920 0.44270 0.76550 0.05200
H 	H 	0.43320 0.44650 0.80750 0.00900
C 	C 	0.30360 0.46739 0.76580 -0.13900
C 	C 	0.22370 0.45954 0.70390 0.04900
H 	H 	0.17110 0.47550 0.70380 0.02400
C 	C 	0.22100 0.42937 0.64440 -0.11200
H 	H 	0.16640 0.42450 0.60340 0.06700
C 	C 	0.30410 0.50121 0.82980 0.38700
C 	C 	0.18890 0.37392 0.35940 0.03700
C 	C 	0.09750 0.36931 0.33060 -0.10600
H 	H 	0.06680 0.36020 0.36370 0.06600
C 	C 	0.05060 0.37804 0.25310 0.03000
H 	H 	0.98810 0.37450 0.23340 0.01600
C 	C 	0.09500 0.39185 0.20460 -0.11100
C 	C 	0.18520 0.39754 0.23360 0.02400
H 	H 	0.21550 0.40870 0.20110 0.03400
C 	C 	0.23240 0.38713 0.31010 -0.10200
H 	H 	0.29520 0.38910 0.32880 0.06600
C 	C 	0.04650 0.40083 0.12050 0.30700
C 	C 	0.39790 0.25505 0.53200 0.05400
C 	C 	0.35710 0.21370 0.48860 -0.12100
H 	H 	0.29630 0.21550 0.45730 0.07600
C 	C 	0.40340 0.17043 0.49040 0.06400
H 	H 	0.37420 0.14230 0.46140 0.01600
C 	C 	0.49360 0.16767 0.53500 -0.15000
C 	C 	0.53420 0.20882 0.57940 0.06300
H 	H 	0.59510 0.20710 0.61050 0.01800
C 	C 	0.48750 0.25182 0.57880 -0.12100
H 	H 	0.51580 0.27930 0.61000 0.07100
C 	C 	0.54460 0.12180 0.53240 0.41900
Ca	Ca	0.50000 0.00000 0.50000 1.51100
Ca	Ca	0.50000 0.50000 -0.00000 1.51100
