data_crystal

_cell_length_a 8.44300
_cell_length_b 13.77900
_cell_length_c 10.17000
_cell_angle_alpha 90.00000
_cell_angle_beta  91.91000
_cell_angle_gamma 90.00000

_symmetry_space_group_name_	'P 1'
_symmetry_space_group_name_H-M	'P 1'

loop_
_symmetry_equiv_pos_as_xyz
  x,y,z

loop_
_atom_site_label
_atom_site_type_symbol
_atom_site_fract_x
_atom_site_fract_y
_atom_site_fract_z
_atom_site_charge
Zn	Zn	0.12110 0.92642 0.03960 1.20900
Zn	Zn	0.62280 0.36910 0.65040 1.25500
P 	P 	0.81060 0.80620 0.02850 0.40100
P 	P 	0.15030 0.11330 0.22580 0.45000
P 	P 	0.31090 0.72680 0.05910 0.45300
P 	P 	0.65390 0.53700 0.85990 0.59300
O 	O 	0.90410 0.89430 0.07450 -0.35000
O 	O 	0.75460 0.74650 0.14250 -0.37300
O 	O 	0.66180 0.84760 0.94980 -0.09800
O 	O 	0.90610 0.74600 0.93060 -0.07700
O 	O 	0.15680 0.94160 0.85300 -0.40500
O 	O 	0.99010 0.17000 0.21240 -0.08600
O 	O 	0.16730 0.05570 0.10290 -0.44300
O 	O 	0.28360 0.19100 0.22090 -0.17400
O 	O 	0.25780 0.82470 0.10740 -0.43900
O 	O 	0.40570 0.67220 0.16310 -0.40200
O 	O 	0.16240 0.66120 0.02830 -0.25300
O 	O 	0.40540 0.73560 0.93130 -0.14000
O 	O 	0.66370 0.54440 0.00610 -0.45600
O 	O 	0.49060 0.57450 0.80500 -0.19000
O 	O 	0.78500 0.60220 0.79690 -0.12900
O 	O 	0.67510 0.43540 0.81170 -0.37000
Zn	Zn	0.12110 0.07358 0.53960 1.22700
Zn	Zn	0.62280 0.63090 0.15040 1.24800
P 	P 	0.81060 0.19380 0.52850 0.50700
P 	P 	0.15030 0.88670 0.72580 0.44900
P 	P 	0.31090 0.27320 0.55910 0.51000
P 	P 	0.65390 0.46300 0.35990 0.53500
O 	O 	0.90410 0.10570 0.57450 -0.33300
O 	O 	0.75460 0.25350 0.64250 -0.36300
O 	O 	0.66180 0.15240 0.44980 -0.16700
O 	O 	0.90610 0.25400 0.43060 -0.14900
O 	O 	0.15680 0.05840 0.35300 -0.44300
O 	O 	0.99010 0.83000 0.71240 -0.06900
O 	O 	0.16730 0.94430 0.60290 -0.42100
O 	O 	0.28360 0.80900 0.72090 -0.15500
O 	O 	0.25780 0.17530 0.60740 -0.41800
O 	O 	0.40570 0.32780 0.66310 -0.38800
O 	O 	0.16240 0.33880 0.52830 -0.22000
O 	O 	0.40540 0.26440 0.43130 -0.20200
O 	O 	0.66370 0.45560 0.50610 -0.39000
O 	O 	0.49060 0.42550 0.30500 -0.20600
O 	O 	0.78500 0.39780 0.29690 -0.14300
O 	O 	0.67510 0.56460 0.31170 -0.38500
