data_crystal

_cell_length_a 8.45700
_cell_length_b 13.81200
_cell_length_c 10.18900
_cell_angle_alpha 90.00000
_cell_angle_beta  91.20000
_cell_angle_gamma 90.00000

_symmetry_space_group_name_	'P 1'
_symmetry_space_group_name_H-M	'P 1'

loop_
_symmetry_equiv_pos_as_xyz
  x,y,z

loop_
_atom_site_label
_atom_site_type_symbol
_atom_site_fract_x
_atom_site_fract_y
_atom_site_fract_z
_atom_site_charge
Zn	Zn	0.21635 0.57367 0.97524 1.18500
Zn	Zn	0.71798 0.86908 0.08593 1.27300
P 	P 	0.24516 0.61313 0.66127 0.60700
P 	P 	0.74904 0.03712 0.29524 0.60800
P 	P 	0.90554 0.69373 0.96407 0.36800
P 	P 	0.40634 0.77324 0.99437 0.35500
O 	O 	0.35290 0.67534 0.04230 -0.29500
O 	O 	0.00140 0.75428 0.86680 -0.35000
O 	O 	0.99840 0.60622 0.00990 -0.26800
O 	O 	0.25740 0.83941 0.96400 -0.38300
H 	H 	0.17000 0.81200 0.93000 0.21400
O 	O 	0.50080 0.82737 0.09920 -0.28800
O 	O 	0.77050 0.93575 0.24730 -0.37600
O 	O 	0.58600 0.07480 0.24100 -0.37400
H 	H 	0.54700 0.12900 0.27700 0.25200
O 	O 	0.85000 0.75455 0.07800 -0.30500
O 	O 	0.25380 0.55817 0.78760 -0.48800
O 	O 	0.50050 0.76504 0.86710 -0.33300
O 	O 	0.75810 0.65198 0.88500 -0.36500
H 	H 	0.67400 0.69200 0.88100 0.20400
O 	O 	0.37770 0.69120 0.65540 -0.37700
H 	H 	0.42600 0.72300 0.72200 0.25300
O 	O 	0.87840 0.10130 0.23260 -0.36500
H 	H 	0.93100 0.14900 0.27400 0.26600
O 	O 	0.75750 0.04476 0.44150 -0.43100
O 	O 	0.08600 0.66990 0.64780 -0.38500
H 	H 	0.04900 0.70100 0.71800 0.24200
O 	O 	0.26080 0.55504 0.53820 -0.41300
Zn	Zn	0.21635 0.42633 0.47524 1.24200
Zn	Zn	0.71798 0.13092 0.58593 1.24700
P 	P 	0.24516 0.38687 0.16127 0.60400
P 	P 	0.74904 0.96288 0.79524 0.61900
P 	P 	0.90554 0.30627 0.46407 0.55100
P 	P 	0.40634 0.22676 0.49437 0.54300
O 	O 	0.35290 0.32466 0.54230 -0.43900
O 	O 	0.00140 0.24572 0.36680 -0.35100
O 	O 	0.99840 0.39378 0.50990 -0.40400
O 	O 	0.25740 0.16059 0.46400 -0.37100
H 	H 	0.17000 0.18800 0.43000 0.23400
O 	O 	0.50080 0.17263 0.59920 -0.41100
O 	O 	0.77050 0.06425 0.74730 -0.42500
O 	O 	0.58600 0.92520 0.74100 -0.40100
H 	H 	0.54700 0.87100 0.77700 0.24600
O 	O 	0.85000 0.24545 0.57800 -0.42900
O 	O 	0.25380 0.44183 0.28760 -0.44400
O 	O 	0.50050 0.23496 0.36710 -0.33300
O 	O 	0.75810 0.34802 0.38500 -0.35400
H 	H 	0.67400 0.30800 0.38100 0.22600
O 	O 	0.37770 0.30880 0.15540 -0.35000
H 	H 	0.42600 0.27700 0.22200 0.25700
O 	O 	0.87840 0.89870 0.73260 -0.39200
H 	H 	0.93100 0.85100 0.77400 0.26200
O 	O 	0.75750 0.95524 0.94150 -0.49400
O 	O 	0.08600 0.33010 0.14780 -0.35700
H 	H 	0.04900 0.29900 0.21800 0.24600
O 	O 	0.26080 0.44496 0.03820 -0.35300
