data_crystal

_cell_length_a 24.56100
_cell_length_b 20.11800
_cell_length_c 8.08450
_cell_angle_alpha 90.00000
_cell_angle_beta  106.17600
_cell_angle_gamma 90.00000

_symmetry_space_group_name_	'P 1'
_symmetry_space_group_name_H-M	'P 1'

loop_
_symmetry_equiv_pos_as_xyz
  x,y,z

loop_
_atom_site_label
_atom_site_type_symbol
_atom_site_fract_x
_atom_site_fract_y
_atom_site_fract_z
_atom_site_charge
Cu	Cu	0.05033 0.41261 0.66673 0.73100
Cu	Cu	0.31566 0.68250 0.22036 0.82200
N 	N 	0.02036 0.33132 0.70770 -0.33400
N 	N 	0.08526 0.49170 0.63820 -0.34000
N 	N 	0.06304 0.55259 0.66550 -0.34200
N 	N 	0.27004 0.65980 0.39240 -0.26800
N 	N 	0.38690 0.64260 0.25630 -0.22300
C 	C 	0.26670 0.73570 0.05400 -0.23300
C 	C 	0.07400 0.25320 0.57990 -0.72900
H 	H 	0.08580 0.29390 0.53850 0.16400
H 	H 	0.05620 0.22520 0.48390 0.19100
H 	H 	0.10640 0.23080 0.65270 0.21200
C 	C 	0.03310 0.26820 0.67950 0.27000
C 	C 	0.04540 0.11640 0.73690 -0.28700
H 	H 	0.07790 0.13810 0.72810 0.09800
C 	C 	0.04320 0.04730 0.73670 0.11500
H 	H 	0.07490 0.02420 0.72620 -0.05600
C 	C 	0.16560 0.44480 0.55310 -0.74600
H 	H 	0.19870 0.43730 0.64790 0.22000
H 	H 	0.17700 0.45430 0.45120 0.23100
H 	H 	0.14220 0.40580 0.53450 0.17600
C 	C 	0.13300 0.50240 0.59330 0.25300
C 	C 	0.14239 0.57080 0.58660 -0.29700
C 	C 	0.09690 0.60030 0.63420 0.19100
C 	C 	0.08560 0.67180 0.66280 -0.62800
H 	H 	0.07660 0.69500 0.55490 0.16800
H 	H 	0.11860 0.69120 0.74040 0.15800
H 	H 	0.05420 0.67500 0.71160 0.11200
C 	C 	0.18720 0.60340 0.53110 0.19000
C 	C 	0.17850 0.66220 0.43990 -0.27100
H 	H 	0.14430 0.68470 0.42330 0.07600
C 	C 	0.21970 0.68810 0.37310 0.10900
H 	H 	0.21200 0.72750 0.31100 -0.05000
C 	C 	0.28010 0.60480 0.48930 0.10000
H 	H 	0.31570 0.58540 0.51060 -0.04600
C 	C 	0.24120 0.57530 0.55920 -0.24600
H 	H 	0.25070 0.53690 0.62490 0.08800
C 	C 	0.43090 0.62120 0.26050 -0.24200
Cu	Cu	0.94967 0.41261 0.83327 0.74800
Cu	Cu	0.68434 0.68250 0.27964 0.82100
N 	N 	0.97964 0.33132 0.79230 -0.30200
N 	N 	0.91474 0.49170 0.86180 -0.33300
N 	N 	0.93696 0.55259 0.83450 -0.32800
N 	N 	0.72996 0.65980 0.10760 -0.26900
N 	N 	0.61310 0.64260 0.24370 -0.22300
C 	C 	0.73330 0.73570 0.44600 -0.23400
C 	C 	0.92600 0.25320 0.92010 -0.81000
H 	H 	0.91420 0.29390 0.96150 0.19200
H 	H 	0.94380 0.22520 0.01610 0.23300
H 	H 	0.89360 0.23080 0.84730 0.23800
C 	C 	0.96690 0.26820 0.82050 0.33700
C 	C 	0.95460 0.11640 0.76310 -0.24500
H 	H 	0.92210 0.13810 0.77190 0.08900
C 	C 	0.95680 0.04730 0.76330 0.16500
H 	H 	0.92510 0.02420 0.77380 -0.06400
C 	C 	0.83440 0.44480 0.94690 -0.75500
H 	H 	0.80130 0.43730 0.85210 0.22200
H 	H 	0.82300 0.45430 0.04880 0.23500
H 	H 	0.85780 0.40580 0.96550 0.17900
C 	C 	0.86700 0.50240 0.90670 0.26000
C 	C 	0.85761 0.57080 0.91340 -0.30800
C 	C 	0.90310 0.60030 0.86580 0.21700
C 	C 	0.91440 0.67180 0.83720 -0.68500
H 	H 	0.92340 0.69500 0.94510 0.19900
H 	H 	0.88140 0.69120 0.75960 0.17700
H 	H 	0.94580 0.67500 0.78840 0.15200
C 	C 	0.81280 0.60340 0.96890 0.19500
C 	C 	0.82150 0.66220 0.06010 -0.27400
H 	H 	0.85570 0.68470 0.07670 0.07700
C 	C 	0.78030 0.68810 0.12690 0.11100
H 	H 	0.78800 0.72750 0.18900 -0.05100
C 	C 	0.71990 0.60480 0.01070 0.10400
H 	H 	0.68430 0.58540 0.98940 -0.04700
C 	C 	0.75880 0.57530 0.94080 -0.25100
H 	H 	0.74930 0.53690 0.87510 0.09000
C 	C 	0.56910 0.62120 0.23950 -0.24200
Cu	Cu	0.44967 0.08739 0.33327 0.73800
Cu	Cu	0.18434 0.81750 0.77964 0.82100
N 	N 	0.47964 0.16868 0.29230 -0.31300
N 	N 	0.41474 0.00830 0.36180 -0.33800
N 	N 	0.43696 0.94741 0.33450 -0.33900
N 	N 	0.22996 0.84020 0.60760 -0.26800
N 	N 	0.11310 0.85740 0.74370 -0.22200
C 	C 	0.23330 0.76430 0.94600 -0.23500
C 	C 	0.42600 0.24680 0.42010 -0.72400
H 	H 	0.41420 0.20610 0.46150 0.16500
H 	H 	0.44380 0.27480 0.51610 0.19600
H 	H 	0.39360 0.26920 0.34730 0.21000
C 	C 	0.46690 0.23180 0.32050 0.26600
C 	C 	0.45460 0.38360 0.26310 -0.30300
H 	H 	0.42210 0.36190 0.27190 0.10400
C 	C 	0.45680 0.45270 0.26330 0.13300
H 	H 	0.42510 0.47580 0.27380 -0.06000
C 	C 	0.33440 0.05520 0.44690 -0.74900
H 	H 	0.30130 0.06270 0.35210 0.22100
H 	H 	0.32300 0.04570 0.54880 0.23200
H 	H 	0.35780 0.09420 0.46550 0.17700
C 	C 	0.36700 0.99760 0.40670 0.25600
C 	C 	0.35761 0.92920 0.41340 -0.30200
C 	C 	0.40310 0.89970 0.36580 0.20400
C 	C 	0.41440 0.82820 0.33720 -0.65500
H 	H 	0.42340 0.80500 0.44510 0.18200
H 	H 	0.38140 0.80880 0.25960 0.16700
H 	H 	0.44580 0.82500 0.28840 0.13100
C 	C 	0.31280 0.89660 0.46890 0.19300
C 	C 	0.32150 0.83780 0.56010 -0.27300
H 	H 	0.35570 0.81530 0.57670 0.07700
C 	C 	0.28030 0.81190 0.62690 0.11000
H 	H 	0.28800 0.77250 0.68900 -0.05100
C 	C 	0.21990 0.89520 0.51070 0.10100
H 	H 	0.18430 0.91460 0.48940 -0.04600
C 	C 	0.25880 0.92470 0.44080 -0.24800
H 	H 	0.24930 0.96310 0.37510 0.08900
C 	C 	0.06910 0.87880 0.73950 -0.25300
Cu	Cu	0.55033 0.08739 0.16673 0.73800
Cu	Cu	0.81566 0.81750 0.72036 0.82100
N 	N 	0.52036 0.16868 0.20770 -0.31300
N 	N 	0.58526 0.00830 0.13820 -0.33700
N 	N 	0.56304 0.94741 0.16550 -0.33900
N 	N 	0.77004 0.84020 0.89240 -0.26700
N 	N 	0.88690 0.85740 0.75630 -0.22700
C 	C 	0.76670 0.76430 0.55400 -0.23500
C 	C 	0.57400 0.24680 0.07990 -0.72100
H 	H 	0.58580 0.20610 0.03850 0.16400
H 	H 	0.55620 0.27480 0.98390 0.19400
H 	H 	0.60640 0.26920 0.15270 0.20900
C 	C 	0.53310 0.23180 0.17950 0.26500
C 	C 	0.54540 0.38360 0.23690 -0.30300
H 	H 	0.57790 0.36190 0.22810 0.10400
C 	C 	0.54320 0.45270 0.23670 0.13300
H 	H 	0.57490 0.47580 0.22620 -0.06000
C 	C 	0.66560 0.05520 0.05310 -0.74300
H 	H 	0.69870 0.06270 0.14790 0.21900
H 	H 	0.67700 0.04570 0.95120 0.23000
H 	H 	0.64220 0.09420 0.03450 0.17600
C 	C 	0.63300 0.99760 0.09330 0.25400
C 	C 	0.64239 0.92920 0.08660 -0.30100
C 	C 	0.59690 0.89970 0.13420 0.20300
C 	C 	0.58560 0.82820 0.16280 -0.65500
H 	H 	0.57660 0.80500 0.05490 0.18200
H 	H 	0.61860 0.80880 0.24040 0.16700
H 	H 	0.55420 0.82500 0.21160 0.13100
C 	C 	0.68720 0.89660 0.03110 0.19200
C 	C 	0.67850 0.83780 0.93990 -0.27300
H 	H 	0.64430 0.81530 0.92330 0.07600
C 	C 	0.71970 0.81190 0.87310 0.10900
H 	H 	0.71200 0.77250 0.81100 -0.05100
C 	C 	0.78010 0.89520 0.98930 0.09700
H 	H 	0.81570 0.91460 0.01060 -0.04300
C 	C 	0.74120 0.92470 0.05920 -0.24400
H 	H 	0.75070 0.96310 0.12490 0.08800
C 	C 	0.93090 0.87880 0.76050 -0.21300
Cu	Cu	-0.00000 0.55415 0.75000 0.69300
Cu	Cu	0.00000 0.91049 0.75000 0.81300
N 	N 	0.00000 0.01280 0.75000 -0.31000
C 	C 	-0.00000 0.22580 0.75000 -0.35600
C 	C 	-0.00000 0.15180 0.75000 0.18700
Cu	Cu	0.50000 0.94585 0.25000 0.71300
Cu	Cu	0.50000 0.58951 0.25000 0.83100
N 	N 	0.50000 0.48720 0.25000 -0.28500
C 	C 	0.50000 0.27420 0.25000 -0.30500
C 	C 	0.50000 0.34820 0.25000 0.23800
Cu	Cu	0.55033 0.91261 0.66673 0.73800
Cu	Cu	0.81566 0.18250 0.22036 0.82100
N 	N 	0.52036 0.83132 0.70770 -0.31300
N 	N 	0.58526 0.99170 0.63820 -0.33800
N 	N 	0.56304 0.05259 0.66550 -0.33900
N 	N 	0.77004 0.15980 0.39240 -0.26800
N 	N 	0.88690 0.14260 0.25630 -0.22700
C 	C 	0.76670 0.23570 0.05400 -0.23300
C 	C 	0.57400 0.75320 0.57990 -0.72400
H 	H 	0.58580 0.79390 0.53850 0.16400
H 	H 	0.55620 0.72520 0.48390 0.19600
H 	H 	0.60640 0.73080 0.65270 0.21000
C 	C 	0.53310 0.76820 0.67950 0.26600
C 	C 	0.54540 0.61640 0.73690 -0.30300
H 	H 	0.57790 0.63810 0.72810 0.10400
C 	C 	0.54320 0.54730 0.73670 0.13300
H 	H 	0.57490 0.52420 0.72620 -0.06000
C 	C 	0.66560 0.94480 0.55310 -0.74900
H 	H 	0.69870 0.93730 0.64790 0.22100
H 	H 	0.67700 0.95430 0.45120 0.23200
H 	H 	0.64220 0.90580 0.53450 0.17700
C 	C 	0.63300 0.00240 0.59330 0.25600
C 	C 	0.64239 0.07080 0.58660 -0.30200
C 	C 	0.59690 0.10030 0.63420 0.20400
C 	C 	0.58560 0.17180 0.66280 -0.65500
H 	H 	0.57660 0.19500 0.55490 0.18200
H 	H 	0.61860 0.19120 0.74040 0.16700
H 	H 	0.55420 0.17500 0.71160 0.13100
C 	C 	0.68720 0.10340 0.53110 0.19300
C 	C 	0.67850 0.16220 0.43990 -0.27300
H 	H 	0.64430 0.18470 0.42330 0.07600
C 	C 	0.71970 0.18810 0.37310 0.11000
H 	H 	0.71200 0.22750 0.31100 -0.05100
C 	C 	0.78010 0.10480 0.48930 0.10100
H 	H 	0.81570 0.08540 0.51060 -0.04500
C 	C 	0.74120 0.07530 0.55920 -0.24700
H 	H 	0.75070 0.03690 0.62490 0.08900
C 	C 	0.93090 0.12120 0.26050 -0.21300
Cu	Cu	0.44967 0.91261 0.83327 0.73800
Cu	Cu	0.18434 0.18250 0.27964 0.82100
N 	N 	0.47964 0.83132 0.79230 -0.31300
N 	N 	0.41474 0.99170 0.86180 -0.33800
N 	N 	0.43696 0.05259 0.83450 -0.33900
N 	N 	0.22996 0.15980 0.10760 -0.26900
N 	N 	0.11310 0.14260 0.24370 -0.22200
C 	C 	0.23330 0.23570 0.44600 -0.23400
C 	C 	0.42600 0.75320 0.92010 -0.72500
H 	H 	0.41420 0.79390 0.96150 0.16500
H 	H 	0.44380 0.72520 0.01610 0.19600
H 	H 	0.39360 0.73080 0.84730 0.21000
C 	C 	0.46690 0.76820 0.82050 0.26600
C 	C 	0.45460 0.61640 0.76310 -0.30300
H 	H 	0.42210 0.63810 0.77190 0.10400
C 	C 	0.45680 0.54730 0.76330 0.13300
H 	H 	0.42510 0.52420 0.77380 -0.06000
C 	C 	0.33440 0.94480 0.94690 -0.74900
H 	H 	0.30130 0.93730 0.85210 0.22100
H 	H 	0.32300 0.95430 0.04880 0.23200
H 	H 	0.35780 0.90580 0.96550 0.17700
C 	C 	0.36700 0.00240 0.90670 0.25600
C 	C 	0.35761 0.07080 0.91340 -0.30200
C 	C 	0.40310 0.10030 0.86580 0.20300
C 	C 	0.41440 0.17180 0.83720 -0.65500
H 	H 	0.42340 0.19500 0.94510 0.18200
H 	H 	0.38140 0.19120 0.75960 0.16700
H 	H 	0.44580 0.17500 0.78840 0.13100
C 	C 	0.31280 0.10340 0.96890 0.19300
C 	C 	0.32150 0.16220 0.06010 -0.27300
H 	H 	0.35570 0.18470 0.07670 0.07700
C 	C 	0.28030 0.18810 0.12690 0.11000
H 	H 	0.28800 0.22750 0.18900 -0.05100
C 	C 	0.21990 0.10480 0.01070 0.10500
H 	H 	0.18430 0.08540 0.98940 -0.04800
C 	C 	0.25880 0.07530 0.94080 -0.25000
H 	H 	0.24930 0.03690 0.87510 0.08900
C 	C 	0.06910 0.12120 0.23950 -0.25200
Cu	Cu	0.94967 0.58739 0.33327 0.74900
Cu	Cu	0.68434 0.31750 0.77964 0.82100
N 	N 	0.97964 0.66868 0.29230 -0.30100
N 	N 	0.91474 0.50830 0.36180 -0.33300
N 	N 	0.93696 0.44741 0.33450 -0.32800
N 	N 	0.72996 0.34020 0.60760 -0.26900
N 	N 	0.61310 0.35740 0.74370 -0.22300
C 	C 	0.73330 0.26430 0.94600 -0.23600
C 	C 	0.92600 0.74680 0.42010 -0.80200
H 	H 	0.91420 0.70610 0.46150 0.19000
H 	H 	0.94380 0.77480 0.51610 0.22900
H 	H 	0.89360 0.76920 0.34730 0.23600
C 	C 	0.96690 0.73180 0.32050 0.33500
C 	C 	0.95460 0.88360 0.26310 -0.24400
H 	H 	0.92210 0.86190 0.27190 0.08900
C 	C 	0.95680 0.95270 0.26330 0.16500
H 	H 	0.92510 0.97580 0.27380 -0.06400
C 	C 	0.83440 0.55520 0.44690 -0.75100
H 	H 	0.80130 0.56270 0.35210 0.22100
H 	H 	0.82300 0.54570 0.54880 0.23300
H 	H 	0.85780 0.59420 0.46550 0.17800
C 	C 	0.86700 0.49760 0.40670 0.26000
C 	C 	0.85761 0.42920 0.41340 -0.30700
C 	C 	0.90310 0.39970 0.36580 0.21800
C 	C 	0.91440 0.32820 0.33720 -0.68700
H 	H 	0.92340 0.30500 0.44510 0.20000
H 	H 	0.88140 0.30880 0.25960 0.17700
H 	H 	0.94580 0.32500 0.28840 0.15300
C 	C 	0.81280 0.39660 0.46890 0.19600
C 	C 	0.82150 0.33780 0.56010 -0.27600
H 	H 	0.85570 0.31530 0.57670 0.07700
C 	C 	0.78030 0.31190 0.62690 0.11100
H 	H 	0.78800 0.27250 0.68900 -0.05200
C 	C 	0.71990 0.39520 0.51070 0.10200
H 	H 	0.68430 0.41460 0.48940 -0.04600
C 	C 	0.75880 0.42470 0.44080 -0.25000
H 	H 	0.74930 0.46310 0.37510 0.08900
C 	C 	0.56910 0.37880 0.73950 -0.24200
Cu	Cu	0.05033 0.58739 0.16673 0.73100
Cu	Cu	0.31566 0.31750 0.72036 0.82100
N 	N 	0.02036 0.66868 0.20770 -0.33400
N 	N 	0.08526 0.50830 0.13820 -0.34000
N 	N 	0.06304 0.44741 0.16550 -0.34200
N 	N 	0.27004 0.34020 0.89240 -0.26700
N 	N 	0.38690 0.35740 0.75630 -0.22300
C 	C 	0.26670 0.26430 0.55400 -0.23400
C 	C 	0.07400 0.74680 0.07990 -0.72100
H 	H 	0.08580 0.70610 0.03850 0.16200
H 	H 	0.05620 0.77480 0.98390 0.18800
H 	H 	0.10640 0.76920 0.15270 0.21000
C 	C 	0.03310 0.73180 0.17950 0.26800
C 	C 	0.04540 0.88360 0.23690 -0.28600
H 	H 	0.07790 0.86190 0.22810 0.09800
C 	C 	0.04320 0.95270 0.23670 0.11500
H 	H 	0.07490 0.97580 0.22620 -0.05500
C 	C 	0.16560 0.55520 0.05310 -0.74000
H 	H 	0.19870 0.56270 0.14790 0.21800
H 	H 	0.17700 0.54570 0.95120 0.22900
H 	H 	0.14220 0.59420 0.03450 0.17400
C 	C 	0.13300 0.49760 0.09330 0.25200
C 	C 	0.14239 0.42920 0.08660 -0.29600
C 	C 	0.09690 0.39970 0.13420 0.19200
C 	C 	0.08560 0.32820 0.16280 -0.62900
H 	H 	0.07660 0.30500 0.05490 0.16800
H 	H 	0.11860 0.30880 0.24040 0.15900
H 	H 	0.05420 0.32500 0.21160 0.11300
C 	C 	0.18720 0.39660 0.03110 0.19000
C 	C 	0.17850 0.33780 0.93990 -0.27200
H 	H 	0.14430 0.31530 0.92330 0.07600
C 	C 	0.21970 0.31190 0.87310 0.10900
H 	H 	0.21200 0.27250 0.81100 -0.05000
C 	C 	0.28010 0.39520 0.98930 0.09600
H 	H 	0.31570 0.41460 0.01060 -0.04400
C 	C 	0.24120 0.42470 0.05920 -0.24300
H 	H 	0.25070 0.46310 0.12490 0.08700
C 	C 	0.43090 0.37880 0.76050 -0.24200
Cu	Cu	0.50000 0.05415 0.75000 0.71300
Cu	Cu	0.50000 0.41049 0.75000 0.83100
N 	N 	0.50000 0.51280 0.75000 -0.28500
C 	C 	0.50000 0.72580 0.75000 -0.30600
C 	C 	0.50000 0.65180 0.75000 0.23800
Cu	Cu	0.00000 0.44585 0.25000 0.69300
Cu	Cu	0.00000 0.08951 0.25000 0.81400
N 	N 	0.00000 0.98720 0.25000 -0.30900
C 	C 	0.00000 0.77420 0.25000 -0.35300
C 	C 	0.00000 0.84820 0.25000 0.18700
