data_crystal

_cell_length_a 10.98000
_cell_length_b 13.02900
_cell_length_c 13.59900
_cell_angle_alpha 62.31200
_cell_angle_beta  70.92100
_cell_angle_gamma 72.95400

_symmetry_space_group_name_	'P 1'
_symmetry_space_group_name_H-M	'P 1'

loop_
_symmetry_equiv_pos_as_xyz
  x,y,z

loop_
_atom_site_label
_atom_site_type_symbol
_atom_site_fract_x
_atom_site_fract_y
_atom_site_fract_z
_atom_site_charge
Zn	Zn	0.88754 0.47444 0.64676 1.24100
U 	U 	0.57353 0.37904 0.14296 0.03700
U 	U 	0.67639 0.89669 0.47709 0.03600
U 	U 	0.67482 0.37505 0.51718 0.03200
P 	P 	0.71260 0.37370 0.90260 0.49300
P 	P 	0.67540 0.16060 0.40570 0.47700
P 	P 	0.61950 0.59540 0.58010 0.47500
P 	P 	0.98770 0.70190 0.46570 0.49700
O 	O 	0.66410 0.29360 0.86920 -0.15400
O 	O 	0.82590 0.42570 0.81090 -0.38100
O 	O 	0.59700 0.46380 0.92870 -0.14200
O 	O 	0.74590 0.29480 0.01970 -0.13400
O 	O 	0.55430 0.09770 0.45990 -0.12700
O 	O 	0.78910 0.05640 0.41730 -0.12700
O 	O 	0.68140 0.23840 0.28120 -0.13900
O 	O 	0.67310 0.22620 0.47270 -0.14200
O 	O 	0.73910 0.49290 0.58490 -0.36300
O 	O 	0.53490 0.56600 0.52950 -0.12800
O 	O 	0.66200 0.71380 0.49660 -0.16300
O 	O 	0.55740 0.59310 0.69720 -0.17500
O 	O 	0.94540 0.62260 0.59380 -0.38100
O 	O 	0.12620 0.72480 0.44320 -0.16400
O 	O 	0.98290 0.64240 0.39370 -0.43100
O 	O 	0.89340 0.81890 0.43710 -0.13700
Zn	Zn	0.11246 0.52556 0.35324 1.24100
U 	U 	0.42647 0.62096 0.85704 0.03700
U 	U 	0.32361 0.10331 0.52291 0.03600
U 	U 	0.32518 0.62495 0.48282 0.03200
P 	P 	0.28740 0.62630 0.09740 0.49300
P 	P 	0.32460 0.83940 0.59430 0.47700
P 	P 	0.38050 0.40460 0.41990 0.47500
P 	P 	0.01230 0.29810 0.53430 0.49700
O 	O 	0.33590 0.70640 0.13080 -0.15400
O 	O 	0.17410 0.57430 0.18910 -0.38100
O 	O 	0.40300 0.53620 0.07130 -0.14200
O 	O 	0.25410 0.70520 0.98030 -0.13400
O 	O 	0.44570 0.90230 0.54010 -0.12700
O 	O 	0.21090 0.94360 0.58270 -0.12700
O 	O 	0.31860 0.76160 0.71880 -0.13900
O 	O 	0.32690 0.77380 0.52730 -0.14200
O 	O 	0.26090 0.50710 0.41510 -0.36300
O 	O 	0.46510 0.43400 0.47050 -0.12800
O 	O 	0.33800 0.28620 0.50340 -0.16300
O 	O 	0.44260 0.40690 0.30280 -0.17500
O 	O 	0.05460 0.37740 0.40620 -0.38100
O 	O 	0.87380 0.27520 0.55680 -0.16400
O 	O 	0.01710 0.35760 0.60630 -0.43100
O 	O 	0.10660 0.18110 0.56290 -0.13700
