data_crystal

_cell_length_a 6.74740
_cell_length_b 15.05510
_cell_length_c 15.05510
_cell_angle_alpha 62.19120
_cell_angle_beta  81.40820
_cell_angle_gamma 98.59180

_symmetry_space_group_name_	'P 1'
_symmetry_space_group_name_H-M	'P 1'

loop_
_symmetry_equiv_pos_as_xyz
  x,y,z

loop_
_atom_site_label
_atom_site_type_symbol
_atom_site_fract_x
_atom_site_fract_y
_atom_site_fract_z
_atom_site_charge
Ni	Ni	0.38325 0.67936 0.58891 1.10600
Ni	Ni	0.97216 0.58891 0.73173 1.10500
Ni	Ni	0.70389 0.73173 0.67936 1.10600
Ni	Ni	0.61675 0.32064 0.41109 1.10600
Ni	Ni	0.02784 0.41109 0.26827 1.10500
Ni	Ni	0.29611 0.26827 0.32064 1.10600
H 	H 	0.69819 0.53715 0.44283 0.06900
H 	H 	0.14102 0.44283 0.02002 0.06800
H 	H 	0.16104 0.02002 0.53715 0.06900
H 	H 	0.30181 0.46285 0.55717 0.06900
H 	H 	0.85898 0.55717 0.97998 0.06800
H 	H 	0.83896 0.97998 0.46285 0.06900
C 	C 	0.75540 0.60580 0.57430 0.41600
C 	C 	0.88740 0.55590 0.53310 -0.18300
C 	C 	0.07620 0.53990 0.56360 0.17400
C 	C 	0.82200 0.52350 0.46650 -0.06400
C 	C 	0.32970 0.57430 0.81990 0.41500
C 	C 	0.42050 0.53310 0.91100 -0.18100
C 	C 	0.63980 0.56360 0.89650 0.17300
C 	C 	0.28850 0.46650 0.01000 -0.06400
C 	C 	0.14960 0.81990 0.60580 0.41700
C 	C 	0.33150 0.91100 0.55590 -0.18300
C 	C 	0.53630 0.89650 0.53990 0.17400
C 	C 	0.29850 0.01000 0.52350 -0.06400
C 	C 	0.24460 0.39420 0.42570 0.41600
C 	C 	0.11260 0.44410 0.46690 -0.18300
C 	C 	0.92380 0.46010 0.43640 0.17400
C 	C 	0.17800 0.47650 0.53350 -0.06400
C 	C 	0.67030 0.42570 0.18010 0.41500
C 	C 	0.57950 0.46690 0.08900 -0.18100
C 	C 	0.36020 0.43640 0.10350 0.17300
C 	C 	0.71150 0.53350 0.99000 -0.06400
C 	C 	0.85040 0.18010 0.39420 0.41700
C 	C 	0.66850 0.08900 0.44410 -0.18300
C 	C 	0.46370 0.10350 0.46010 0.17400
C 	C 	0.70150 0.99000 0.47650 -0.06400
O 	O 	0.59610 0.62750 0.53270 -0.42700
O 	O 	0.78620 0.64050 0.63030 -0.59700
O 	O 	0.13450 0.55470 0.63810 -0.49400
O 	O 	0.12880 0.53270 0.83980 -0.42600
O 	O 	0.41650 0.63030 0.72920 -0.59600
O 	O 	0.77260 0.63810 0.80720 -0.49500
O 	O 	0.96860 0.83980 0.62750 -0.42800
O 	O 	0.14570 0.72920 0.64050 -0.59600
O 	O 	0.57980 0.80720 0.55470 -0.49400
O 	O 	0.40390 0.37250 0.46730 -0.42700
O 	O 	0.21380 0.35950 0.36970 -0.59700
O 	O 	0.86550 0.44530 0.36190 -0.49400
O 	O 	0.87120 0.46730 0.16020 -0.42600
O 	O 	0.58350 0.36970 0.27080 -0.59600
O 	O 	0.22740 0.36190 0.19280 -0.49500
O 	O 	0.03140 0.16020 0.37250 -0.42800
O 	O 	0.85430 0.27080 0.35950 -0.59600
O 	O 	0.42020 0.19280 0.44530 -0.49400
