data_crystal

_cell_length_a 8.64820
_cell_length_b 10.32630
_cell_length_c 12.91970
_cell_angle_alpha 112.24800
_cell_angle_beta  108.03500
_cell_angle_gamma 93.59970

_symmetry_space_group_name_	'P 1'
_symmetry_space_group_name_H-M	'P 1'

loop_
_symmetry_equiv_pos_as_xyz
  x,y,z

loop_
_atom_site_label
_atom_site_type_symbol
_atom_site_fract_x
_atom_site_fract_y
_atom_site_fract_z
_atom_site_charge
Cd	Cd	0.95596 0.47052 0.21379 1.19300
Cd	Cd	0.30865 0.28980 0.31237 1.16300
Cd	Cd	0.24217 0.25673 0.78621 1.21300
Cd	Cd	0.49628 0.97743 0.68763 1.12000
H 	H 	0.15590 0.79090 0.45800 -0.03400
H 	H 	0.50370 0.61080 0.57820 -0.06500
H 	H 	0.07670 0.45970 0.98380 -0.00400
H 	H 	0.40020 0.23700 0.05720 -0.04200
H 	H 	0.88060 0.16430 0.39500 0.04000
H 	H 	0.71560 0.11090 0.28320 0.04800
H 	H 	0.00730 0.00400 0.27920 0.24000
H 	H 	0.84020 0.94930 0.16820 0.10200
H 	H 	0.87410 0.92680 0.38280 0.02200
H 	H 	0.70970 0.86970 0.27060 0.04200
H 	H 	0.19790 0.33290 0.54200 -0.02400
H 	H 	0.42550 0.03260 0.42180 -0.03400
H 	H 	0.59290 0.47590 0.01620 -0.04300
H 	H 	0.84300 0.17980 0.94280 -0.05200
H 	H 	0.98560 0.76930 0.60500 -0.04500
H 	H 	0.93240 0.82770 0.71680 -0.06800
H 	H 	0.22810 0.72480 0.72080 0.06200
H 	H 	0.17200 0.78110 0.83180 0.06100
H 	H 	0.99130 0.54400 0.61720 -0.01000
H 	H 	0.93910 0.59910 0.72940 -0.01500
C 	C 	0.21788 0.72268 0.46656 0.09300
C 	C 	0.40648 0.62568 0.53176 0.09200
C 	C 	0.14632 0.41372 0.02224 0.08300
C 	C 	0.32081 0.29351 0.06202 0.09700
C 	C 	0.89031 0.24341 0.27442 0.25100
C 	C 	0.83572 0.12872 0.30824 -0.07200
C 	C 	0.88731 0.98801 0.25502 -0.40400
C 	C 	0.82977 0.88397 0.29574 -0.12800
C 	C 	0.87489 0.73899 0.25258 0.29900
C 	C 	0.25132 0.25612 0.53344 0.09900
C 	C 	0.37472 0.09392 0.46824 0.10100
C 	C 	0.62408 0.39148 0.97776 0.12000
C 	C 	0.75879 0.23149 0.93798 0.10300
C 	C 	0.11589 0.96899 0.72558 0.06400
C 	C 	0.02748 0.82048 0.69176 0.06600
C 	C 	0.13229 0.73299 0.74498 -0.16100
C 	C 	0.03403 0.58823 0.70426 -0.01000
C 	C 	0.12231 0.48641 0.74742 0.28500
N 	N 	0.29420 0.52210 0.43560 -0.22500
N 	N 	0.16997 0.58637 0.39354 -0.20500
N 	N 	0.36624 0.75374 0.55528 -0.29700
N 	N 	0.27108 0.33978 0.15336 -0.24200
N 	N 	0.15652 0.41892 0.12724 -0.20400
N 	N 	0.24565 0.33595 0.97630 -0.24000
N 	N 	0.35860 0.08650 0.56440 -0.20500
N 	N 	0.27643 0.19283 0.60646 -0.21000
N 	N 	0.31096 0.19846 0.44472 -0.27800
N 	N 	0.61772 0.18642 0.84664 -0.23800
N 	N 	0.52928 0.29168 0.87276 -0.22200
N 	N 	0.76935 0.35965 0.02370 -0.27300
O 	O 	0.00407 0.23507 0.23214 -0.42300
O 	O 	0.81894 0.34674 0.29068 -0.41500
O 	O 	0.97800 0.71440 0.20120 -0.40900
O 	O 	0.80946 0.64656 0.27532 -0.41500
O 	O 	0.27193 0.00293 0.76786 -0.35100
O 	O 	0.02826 0.05606 0.70932 -0.26400
O 	O 	0.27680 0.51320 0.79880 -0.36200
O 	O 	0.03414 0.37124 0.72468 -0.37000
