data_crystal

_cell_length_a 11.52100
_cell_length_b 11.66370
_cell_length_c 11.85300
_cell_angle_alpha 92.92600
_cell_angle_beta  93.35000
_cell_angle_gamma 113.61900

_symmetry_space_group_name_	'P 1'
_symmetry_space_group_name_H-M	'P 1'

loop_
_symmetry_equiv_pos_as_xyz
  x,y,z

loop_
_atom_site_label
_atom_site_type_symbol
_atom_site_fract_x
_atom_site_fract_y
_atom_site_fract_z
_atom_site_charge
O 	O 	0.38620 0.00160 0.34780 -0.43700
O 	O 	0.41070 0.79630 0.46260 -0.42700
O 	O 	0.34990 0.99210 0.60750 -0.40600
C 	C 	0.33700 0.07510 0.31500 0.35400
C 	C 	0.33380 0.17610 0.38130 -0.43100
C 	C 	0.28430 0.25560 0.34070 0.33200
C 	C 	0.22940 0.23080 0.22940 -0.35500
C 	C 	0.22970 0.13270 0.16660 0.17800
N 	N 	0.28190 0.05490 0.20570 -0.20300
C 	C 	0.28420 0.36590 0.41300 -0.47600
C 	C 	0.28010 0.94850 0.12980 -0.10500
C 	C 	0.39560 0.97810 0.06400 0.15400
C 	C 	0.42020 0.06010 0.97980 -0.18700
C 	C 	0.47800 0.92020 0.08520 -0.16500
C 	C 	0.37530 0.72990 0.36910 0.42100
C 	C 	0.45380 0.68990 0.30520 -0.57600
C 	C 	0.41270 0.61530 0.20870 0.55300
C 	C 	0.28540 0.57670 0.16580 -0.48500
C 	C 	0.20890 0.61460 0.22750 0.24500
N 	N 	0.25180 0.68940 0.32540 -0.21000
C 	C 	0.49740 0.57060 0.14360 -1.06200
C 	C 	0.15900 0.71880 0.38830 -0.08500
C 	C 	0.07440 0.60480 0.44670 0.03400
C 	C 	0.12830 0.56040 0.53240 -0.06200
C 	C 	0.94810 0.54440 0.41510 -0.05200
C 	C 	0.29770 0.92140 0.68160 0.42400
C 	C 	0.32850 0.82210 0.71880 -0.55000
C 	C 	0.26880 0.74640 0.79990 0.57200
C 	C 	0.16840 0.76420 0.84700 -0.48900
C 	C 	0.13710 0.85780 0.81580 0.26400
N 	N 	0.20010 0.93630 0.73370 -0.19200
C 	C 	0.30810 0.64400 0.83700 -1.08500
C 	C 	0.16880 0.04110 0.70590 -0.04400
C 	C 	0.08140 0.01700 0.59940 -0.09600
C 	C 	0.05560 0.11550 0.55900 0.05100
C 	C 	0.02430 0.90290 0.53780 0.10500
H 	H 	0.36710 0.18970 0.45650 0.17200
H 	H 	0.19300 0.28200 0.19930 0.13600
H 	H 	0.19240 0.11680 0.09260 -0.05600
H 	H 	0.30200 0.43620 0.36800 0.16800
H 	H 	0.38420 0.38770 0.47530 0.08500
H 	H 	0.20230 0.34390 0.44150 0.17100
H 	H 	0.20520 0.92060 0.07640 0.06500
H 	H 	0.27210 0.87940 0.17530 0.08000
H 	H 	0.36810 0.10250 0.96640 0.07700
H 	H 	0.46490 0.86730 0.14370 0.09400
H 	H 	0.53890 0.71680 0.33160 0.22200
H 	H 	0.25440 0.52720 0.09780 0.16600
H 	H 	0.12380 0.58790 0.20130 -0.06800
H 	H 	0.52110 0.61730 0.07820 0.31200
H 	H 	0.45260 0.48300 0.11990 0.31100
H 	H 	0.57240 0.58320 0.19130 0.31800
H 	H 	0.10670 0.74360 0.33630 0.05500
H 	H 	0.20370 0.78850 0.44460 0.07300
H 	H 	0.21490 0.60040 0.55470 0.05300
H 	H 	0.91190 0.57370 0.35720 0.02500
H 	H 	0.39350 0.80820 0.68570 0.22000
H 	H 	0.12340 0.71130 0.89990 0.19100
H 	H 	0.07190 0.87060 0.84950 -0.05500
H 	H 	0.24560 0.56370 0.80640 0.33100
H 	H 	0.31480 0.64650 0.91830 0.33700
H 	H 	0.38900 0.65670 0.80990 0.33300
H 	H 	0.24710 0.11310 0.69760 0.03300
H 	H 	0.12910 0.06260 0.76880 0.02500
H 	H 	0.09270 0.19470 0.59790 -0.00500
H 	H 	0.03990 0.83550 0.56220 0.00100
O 	O 	0.61380 0.99840 0.65220 -0.38500
O 	O 	0.58930 0.20370 0.53740 -0.44500
O 	O 	0.65010 0.00790 0.39250 -0.46000
C 	C 	0.66300 0.92490 0.68500 0.36100
C 	C 	0.66620 0.82390 0.61870 -0.42300
C 	C 	0.71570 0.74440 0.65930 0.33400
C 	C 	0.77060 0.76920 0.77060 -0.34600
C 	C 	0.77030 0.86730 0.83340 0.18600
N 	N 	0.71810 0.94510 0.79430 -0.16800
C 	C 	0.71580 0.63410 0.58700 -0.47700
C 	C 	0.71990 0.05150 0.87020 -0.09600
C 	C 	0.60440 0.02190 0.93600 -0.04400
C 	C 	0.57980 0.93990 0.02020 0.05300
C 	C 	0.52200 0.07980 0.91480 0.00700
C 	C 	0.62470 0.27010 0.63090 0.41900
C 	C 	0.54620 0.31010 0.69480 -0.58700
C 	C 	0.58730 0.38470 0.79130 0.56900
C 	C 	0.71460 0.42330 0.83420 -0.49300
C 	C 	0.79110 0.38540 0.77250 0.25100
N 	N 	0.74820 0.31060 0.67460 -0.21200
C 	C 	0.50260 0.42940 0.85640 -1.09200
C 	C 	0.84100 0.28120 0.61170 -0.09600
C 	C 	0.92560 0.39520 0.55330 0.06600
C 	C 	0.87170 0.43960 0.46760 -0.09300
C 	C 	0.05190 0.45560 0.58490 -0.09200
C 	C 	0.70230 0.07860 0.31840 0.41300
C 	C 	0.67150 0.17790 0.28120 -0.55400
C 	C 	0.73120 0.25360 0.20010 0.55600
C 	C 	0.83160 0.23580 0.15300 -0.48300
C 	C 	0.86290 0.14220 0.18420 0.24500
N 	N 	0.79990 0.06370 0.26630 -0.21800
C 	C 	0.69190 0.35600 0.16300 -1.06100
C 	C 	0.83120 0.95890 0.29410 -0.09800
C 	C 	0.91860 0.98300 0.40060 0.18700
C 	C 	0.94440 0.88450 0.44100 -0.18900
C 	C 	0.97570 0.09710 0.46220 -0.22300
H 	H 	0.63290 0.81030 0.54350 0.17800
H 	H 	0.80700 0.71800 0.80070 0.14100
H 	H 	0.80760 0.88320 0.90740 -0.02800
H 	H 	0.69800 0.56380 0.63200 0.16900
H 	H 	0.61580 0.61230 0.52470 0.08600
H 	H 	0.79770 0.65610 0.55850 0.17300
H 	H 	0.79480 0.07940 0.92360 0.04900
H 	H 	0.72790 0.12060 0.82470 0.06500
H 	H 	0.63190 0.89750 0.03360 0.00600
H 	H 	0.53510 0.13270 0.85630 0.02400
H 	H 	0.46110 0.28320 0.66840 0.22200
H 	H 	0.74560 0.47280 0.90220 0.17700
H 	H 	0.87620 0.41210 0.79870 -0.06500
H 	H 	0.47890 0.38270 0.92180 0.32600
H 	H 	0.54740 0.51700 0.88010 0.32600
H 	H 	0.42760 0.41680 0.80870 0.32800
H 	H 	0.89330 0.25640 0.66370 0.05500
H 	H 	0.79630 0.21150 0.55540 0.06500
H 	H 	0.78510 0.39960 0.44530 0.06400
H 	H 	0.08810 0.42630 0.64280 0.03800
H 	H 	0.60650 0.19180 0.31430 0.21700
H 	H 	0.87660 0.28870 0.10010 0.18300
H 	H 	0.92810 0.12940 0.15050 -0.07000
H 	H 	0.75440 0.43630 0.19360 0.32300
H 	H 	0.68520 0.35350 0.08170 0.32100
H 	H 	0.61100 0.34330 0.19010 0.32200
H 	H 	0.75290 0.88690 0.30240 0.06400
H 	H 	0.87090 0.93740 0.23120 0.06300
H 	H 	0.90730 0.80530 0.40210 0.08100
H 	H 	0.96010 0.16450 0.43780 0.10600
Mn	Mn	0.50000 0.00000 0.50000 1.30200
