data_crystal

_cell_length_a 19.52400
_cell_length_b 10.04900
_cell_length_c 25.35900
_cell_angle_alpha 90.00000
_cell_angle_beta  95.40900
_cell_angle_gamma 90.00000

_symmetry_space_group_name_	'P 1'
_symmetry_space_group_name_H-M	'P 1'

loop_
_symmetry_equiv_pos_as_xyz
  x,y,z

loop_
_atom_site_label
_atom_site_type_symbol
_atom_site_fract_x
_atom_site_fract_y
_atom_site_fract_z
_atom_site_charge
Cd	Cd	0.58928 0.04870 0.98369 1.24000
O 	O 	0.68891 0.10720 0.94280 -0.54800
O 	O 	0.60674 0.01250 0.89424 -0.39100
O 	O 	0.02415 0.58320 0.54768 -0.47700
O 	O 	0.10823 0.66750 0.50662 -0.40700
O 	O 	0.07473 0.28240 0.53538 -0.47500
O 	O 	0.15180 0.14380 0.50677 -0.48000
C 	C 	0.66590 0.05980 0.89936 0.40300
C 	C 	0.70900 0.05200 0.85408 -0.18500
C 	C 	0.68640 0.98520 0.80831 0.10200
H 	H 	0.64270 0.94750 0.80440 0.01100
C 	C 	0.72920 0.97480 0.76830 -0.16300
H 	H 	0.71340 0.93030 0.73730 0.08500
C 	C 	0.79540 0.02860 0.77246 0.10200
C 	C 	0.81710 0.09750 0.81810 -0.17100
H 	H 	0.86040 0.13660 0.82180 0.09000
C 	C 	0.77360 0.10850 0.85890 0.10600
H 	H 	0.78860 0.15460 0.88960 -0.02900
C 	C 	0.84160 0.01470 0.72875 -0.03500
C 	C 	0.83350 0.91060 0.69230 -0.01900
H 	H 	0.79750 0.85090 0.69430 0.03300
C 	C 	0.87750 0.89410 0.65374 -0.08500
H 	H 	0.87160 0.82180 0.63080 0.04900
C 	C 	0.93110 0.98430 0.64821 0.04700
C 	C 	0.93600 0.08760 0.68380 -0.08600
H 	H 	0.97110 0.14920 0.68140 0.06200
C 	C 	0.89260 0.10640 0.72290 -0.01300
H 	H 	0.89770 0.18020 0.74500 0.03300
C 	C 	0.98130 0.96340 0.60852 -0.02500
C 	C 	0.99800 0.83560 0.59157 -0.01100
H 	H 	0.97660 0.76190 0.60490 0.03100
C 	C 	0.04610 0.81730 0.55509 -0.10500
C 	C 	0.07970 0.92590 0.53749 0.05200
H 	H 	0.11420 0.91340 0.51510 0.03900
C 	C 	0.06360 0.05390 0.55232 -0.11500
C 	C 	0.01490 0.07190 0.58816 0.00300
H 	H 	0.00450 0.15760 0.59880 0.04300
C 	C 	0.05990 0.68010 0.53544 0.33800
C 	C 	0.09930 0.17070 0.52976 0.39400
Cd	Cd	0.08928 0.54870 0.98369 1.24100
O 	O 	0.18891 0.60720 0.94280 -0.54800
O 	O 	0.10674 0.51250 0.89424 -0.39000
O 	O 	0.52415 0.08320 0.54768 -0.47700
O 	O 	0.60823 0.16750 0.50662 -0.40800
O 	O 	0.57473 0.78240 0.53538 -0.47500
O 	O 	0.65180 0.64380 0.50677 -0.48000
C 	C 	0.16590 0.55980 0.89936 0.40300
C 	C 	0.20900 0.55200 0.85408 -0.18400
C 	C 	0.18640 0.48520 0.80831 0.10000
H 	H 	0.14270 0.44750 0.80440 0.01100
C 	C 	0.22920 0.47480 0.76830 -0.16300
H 	H 	0.21340 0.43030 0.73730 0.08500
C 	C 	0.29540 0.52860 0.77246 0.10200
C 	C 	0.31710 0.59750 0.81810 -0.17100
H 	H 	0.36040 0.63660 0.82180 0.09000
C 	C 	0.27360 0.60850 0.85890 0.10600
H 	H 	0.28860 0.65460 0.88960 -0.02900
C 	C 	0.34160 0.51470 0.72875 -0.03200
C 	C 	0.33350 0.41060 0.69230 -0.02100
H 	H 	0.29750 0.35090 0.69430 0.03400
C 	C 	0.37750 0.39410 0.65374 -0.08300
H 	H 	0.37160 0.32180 0.63080 0.04800
C 	C 	0.43110 0.48430 0.64821 0.04500
C 	C 	0.43600 0.58760 0.68380 -0.08300
H 	H 	0.47110 0.64920 0.68140 0.06200
C 	C 	0.39260 0.60640 0.72290 -0.01500
H 	H 	0.39770 0.68020 0.74500 0.03400
C 	C 	0.48130 0.46340 0.60852 -0.02400
C 	C 	0.49800 0.33560 0.59157 -0.00900
H 	H 	0.47660 0.26190 0.60490 0.03100
C 	C 	0.54610 0.31730 0.55509 -0.10700
C 	C 	0.57970 0.42590 0.53749 0.05100
H 	H 	0.61420 0.41340 0.51510 0.03900
C 	C 	0.56360 0.55390 0.55232 -0.11400
C 	C 	0.51490 0.57190 0.58816 0.00100
H 	H 	0.50450 0.65760 0.59880 0.04300
C 	C 	0.55990 0.18010 0.53544 0.33900
C 	C 	0.59930 0.67070 0.52976 0.39300
Cd	Cd	0.41072 0.04870 0.51631 1.22500
O 	O 	0.31109 0.10720 0.55720 -0.56700
O 	O 	0.39326 0.01250 0.60576 -0.39800
O 	O 	0.97585 0.58320 0.95232 -0.46200
O 	O 	0.89177 0.66750 0.99338 -0.38200
O 	O 	0.92527 0.28240 0.96462 -0.45400
O 	O 	0.84820 0.14380 0.99323 -0.45400
C 	C 	0.33410 0.05980 0.60064 0.40800
C 	C 	0.29100 0.05200 0.64592 -0.19200
C 	C 	0.31360 0.98520 0.69169 0.10600
H 	H 	0.35730 0.94750 0.69560 0.00800
C 	C 	0.27080 0.97480 0.73170 -0.16700
H 	H 	0.28660 0.93030 0.76270 0.08700
C 	C 	0.20460 0.02860 0.72754 0.10600
C 	C 	0.18290 0.09750 0.68190 -0.17600
H 	H 	0.13960 0.13660 0.67820 0.09100
C 	C 	0.22640 0.10850 0.64110 0.11100
H 	H 	0.21140 0.15460 0.61040 -0.03300
C 	C 	0.15840 0.01470 0.77125 -0.03600
C 	C 	0.16650 0.91060 0.80770 -0.01600
H 	H 	0.20250 0.85090 0.80570 0.03300
C 	C 	0.12250 0.89410 0.84626 -0.08300
H 	H 	0.12840 0.82180 0.86920 0.05200
C 	C 	0.06890 0.98430 0.85179 0.04900
C 	C 	0.06400 0.08760 0.81620 -0.08600
H 	H 	0.02890 0.14920 0.81860 0.06300
C 	C 	0.10740 0.10640 0.77710 -0.01100
H 	H 	0.10230 0.18020 0.75500 0.03300
C 	C 	0.01870 0.96340 0.89148 -0.01600
C 	C 	0.00200 0.83560 0.90843 -0.01000
H 	H 	0.02340 0.76190 0.89510 0.03400
C 	C 	0.95390 0.81730 0.94491 -0.09400
C 	C 	0.92030 0.92590 0.96251 0.04800
H 	H 	0.88580 0.91340 0.98490 0.05100
C 	C 	0.93640 0.05390 0.94768 -0.10100
C 	C 	0.98510 0.07190 0.91184 -0.00200
H 	H 	0.99550 0.15760 0.90120 0.04800
C 	C 	0.94010 0.68010 0.96456 0.33700
C 	C 	0.90070 0.17070 0.97024 0.39100
Cd	Cd	0.91072 0.54870 0.51631 1.22500
O 	O 	0.81109 0.60720 0.55720 -0.56700
O 	O 	0.89326 0.51250 0.60576 -0.39800
O 	O 	0.47585 0.08320 0.95232 -0.46200
O 	O 	0.39177 0.16750 0.99338 -0.38300
O 	O 	0.42527 0.78240 0.96462 -0.45400
O 	O 	0.34820 0.64380 0.99323 -0.45500
C 	C 	0.83410 0.55980 0.60064 0.40800
C 	C 	0.79100 0.55200 0.64592 -0.19100
C 	C 	0.81360 0.48520 0.69169 0.10500
H 	H 	0.85730 0.44750 0.69560 0.00800
C 	C 	0.77080 0.47480 0.73170 -0.16700
H 	H 	0.78660 0.43030 0.76270 0.08700
C 	C 	0.70460 0.52860 0.72754 0.10500
C 	C 	0.68290 0.59750 0.68190 -0.17500
H 	H 	0.63960 0.63660 0.67820 0.09100
C 	C 	0.72640 0.60850 0.64110 0.11000
H 	H 	0.71140 0.65460 0.61040 -0.03300
C 	C 	0.65840 0.51470 0.77125 -0.03400
C 	C 	0.66650 0.41060 0.80770 -0.01900
H 	H 	0.70250 0.35090 0.80570 0.03400
C 	C 	0.62250 0.39410 0.84626 -0.08100
H 	H 	0.62840 0.32180 0.86920 0.05200
C 	C 	0.56890 0.48430 0.85179 0.04700
C 	C 	0.56400 0.58760 0.81620 -0.08300
H 	H 	0.52890 0.64920 0.81860 0.06300
C 	C 	0.60740 0.60640 0.77710 -0.01300
H 	H 	0.60230 0.68020 0.75500 0.03300
C 	C 	0.51870 0.46340 0.89148 -0.01600
C 	C 	0.50200 0.33560 0.90843 -0.01000
H 	H 	0.52340 0.26190 0.89510 0.03400
C 	C 	0.45390 0.31730 0.94491 -0.09300
C 	C 	0.42030 0.42590 0.96251 0.04700
H 	H 	0.38580 0.41340 0.98490 0.05100
C 	C 	0.43640 0.55390 0.94768 -0.09900
C 	C 	0.48510 0.57190 0.91184 -0.00000
H 	H 	0.49550 0.65760 0.90120 0.04800
C 	C 	0.44010 0.18010 0.96456 0.33800
C 	C 	0.40070 0.67070 0.97024 0.39000
Cd	Cd	0.41072 0.95130 0.01631 1.21000
O 	O 	0.31109 0.89280 0.05720 -0.58000
O 	O 	0.39326 0.98750 0.10576 -0.40400
O 	O 	0.97585 0.41680 0.45232 -0.47800
O 	O 	0.89177 0.33250 0.49338 -0.40800
O 	O 	0.92527 0.71760 0.46462 -0.47600
O 	O 	0.84820 0.85620 0.49323 -0.47900
C 	C 	0.33410 0.94020 0.10064 0.40900
C 	C 	0.29100 0.94800 0.14592 -0.19200
C 	C 	0.31360 0.01480 0.19169 0.10300
H 	H 	0.35730 0.05250 0.19560 0.00800
C 	C 	0.27080 0.02520 0.23170 -0.16900
H 	H 	0.28660 0.06970 0.26270 0.08700
C 	C 	0.20460 0.97140 0.22754 0.10600
C 	C 	0.18290 0.90250 0.18190 -0.17500
H 	H 	0.13960 0.86340 0.17820 0.09100
C 	C 	0.22640 0.89150 0.14110 0.11100
H 	H 	0.21140 0.84540 0.11040 -0.03500
C 	C 	0.15840 0.98530 0.27125 -0.03000
C 	C 	0.16650 0.08940 0.30770 -0.02600
H 	H 	0.20250 0.14910 0.30570 0.03500
C 	C 	0.12250 0.10590 0.34626 -0.07900
H 	H 	0.12840 0.17820 0.36920 0.04700
C 	C 	0.06890 0.01570 0.35179 0.04100
C 	C 	0.06400 0.91240 0.31620 -0.07800
H 	H 	0.02890 0.85080 0.31860 0.06100
C 	C 	0.10740 0.89360 0.27710 -0.01800
H 	H 	0.10230 0.81980 0.25500 0.03500
C 	C 	0.01870 0.03660 0.39148 -0.02100
C 	C 	0.00200 0.16440 0.40843 -0.00700
H 	H 	0.02340 0.23810 0.39510 0.03100
C 	C 	0.95390 0.18270 0.44491 -0.11000
C 	C 	0.92030 0.07410 0.46251 0.04900
H 	H 	0.88580 0.08660 0.48490 0.03900
C 	C 	0.93640 0.94610 0.44768 -0.11200
C 	C 	0.98510 0.92810 0.41184 -0.00200
H 	H 	0.99550 0.84240 0.40120 0.04300
C 	C 	0.94010 0.31990 0.46456 0.33900
C 	C 	0.90070 0.82930 0.47024 0.39300
Cd	Cd	0.91072 0.45130 0.01631 1.20900
O 	O 	0.81109 0.39280 0.05720 -0.58100
O 	O 	0.89326 0.48750 0.10576 -0.40600
O 	O 	0.47585 0.91680 0.45232 -0.47600
O 	O 	0.39177 0.83250 0.49338 -0.40700
O 	O 	0.42527 0.21760 0.46462 -0.47600
O 	O 	0.34820 0.35620 0.49323 -0.48000
C 	C 	0.83410 0.44020 0.10064 0.41100
C 	C 	0.79100 0.44800 0.14592 -0.19600
C 	C 	0.81360 0.51480 0.19169 0.10700
H 	H 	0.85730 0.55250 0.19560 0.00600
C 	C 	0.77080 0.52520 0.23170 -0.16900
H 	H 	0.78660 0.56970 0.26270 0.08700
C 	C 	0.70460 0.47140 0.22754 0.10700
C 	C 	0.68290 0.40250 0.18190 -0.17700
H 	H 	0.63960 0.36340 0.17820 0.09100
C 	C 	0.72640 0.39150 0.14110 0.11300
H 	H 	0.71140 0.34540 0.11040 -0.03500
C 	C 	0.65840 0.48530 0.27125 -0.03500
C 	C 	0.66650 0.58940 0.30770 -0.01900
H 	H 	0.70250 0.64910 0.30570 0.03300
C 	C 	0.62250 0.60590 0.34626 -0.08400
H 	H 	0.62840 0.67820 0.36920 0.04800
C 	C 	0.56890 0.51570 0.35179 0.04600
C 	C 	0.56400 0.41240 0.31620 -0.08500
H 	H 	0.52890 0.35080 0.31860 0.06200
C 	C 	0.60740 0.39360 0.27710 -0.01300
H 	H 	0.60230 0.31980 0.25500 0.03300
C 	C 	0.51870 0.53660 0.39148 -0.02400
C 	C 	0.50200 0.66440 0.40843 -0.00800
H 	H 	0.52340 0.73810 0.39510 0.03100
C 	C 	0.45390 0.68270 0.44491 -0.10700
C 	C 	0.42030 0.57410 0.46251 0.05100
H 	H 	0.38580 0.58660 0.48490 0.03900
C 	C 	0.43640 0.44610 0.44768 -0.11400
C 	C 	0.48510 0.42810 0.41184 0.00200
H 	H 	0.49550 0.34240 0.40120 0.04300
C 	C 	0.44010 0.81990 0.46456 0.33900
C 	C 	0.40070 0.32930 0.47024 0.39400
Cd	Cd	0.58928 0.95130 0.48369 1.22500
O 	O 	0.68891 0.89280 0.44280 -0.56600
O 	O 	0.60674 0.98750 0.39424 -0.39700
O 	O 	0.02415 0.41680 0.04768 -0.48800
O 	O 	0.10823 0.33250 0.00662 -0.43100
O 	O 	0.07473 0.71760 0.03538 -0.49400
O 	O 	0.15180 0.85620 0.00677 -0.49700
C 	C 	0.66590 0.94020 0.39936 0.40700
C 	C 	0.70900 0.94800 0.35408 -0.18700
C 	C 	0.68640 0.01480 0.30831 0.10100
H 	H 	0.64270 0.05250 0.30440 0.00900
C 	C 	0.72920 0.02520 0.26830 -0.16600
H 	H 	0.71340 0.06970 0.23730 0.08500
C 	C 	0.79540 0.97140 0.27246 0.10400
C 	C 	0.81710 0.90250 0.31810 -0.17300
H 	H 	0.86040 0.86340 0.32180 0.09000
C 	C 	0.77360 0.89150 0.35890 0.10800
H 	H 	0.78860 0.84540 0.38960 -0.03200
C 	C 	0.84160 0.98530 0.22875 -0.02900
C 	C 	0.83350 0.08940 0.19230 -0.02700
H 	H 	0.79750 0.14910 0.19430 0.03500
C 	C 	0.87750 0.10590 0.15374 -0.08100
H 	H 	0.87160 0.17820 0.13080 0.04400
C 	C 	0.93110 0.01570 0.14821 0.03900
C 	C 	0.93600 0.91240 0.18380 -0.08000
H 	H 	0.97110 0.85080 0.18140 0.05900
C 	C 	0.89260 0.89360 0.22290 -0.01900
H 	H 	0.89770 0.81980 0.24500 0.03400
C 	C 	0.98130 0.03660 0.10852 -0.03500
C 	C 	0.99800 0.16440 0.09157 -0.01500
H 	H 	0.97660 0.23810 0.10490 0.03000
C 	C 	0.04610 0.18270 0.05509 -0.11300
C 	C 	0.07970 0.07410 0.03749 0.05000
H 	H 	0.11420 0.08660 0.01510 0.03000
C 	C 	0.06360 0.94610 0.05232 -0.12500
C 	C 	0.01490 0.92810 0.08816 0.00800
H 	H 	0.00450 0.84240 0.09880 0.03800
C 	C 	0.05990 0.31990 0.03544 0.33800
C 	C 	0.09930 0.82930 0.02976 0.39500
Cd	Cd	0.08928 0.45130 0.48369 1.22500
O 	O 	0.18891 0.39280 0.44280 -0.56700
O 	O 	0.10674 0.48750 0.39424 -0.39700
O 	O 	0.52415 0.91680 0.04768 -0.49100
O 	O 	0.60823 0.83250 0.00662 -0.43200
O 	O 	0.57473 0.21760 0.03538 -0.49600
O 	O 	0.65180 0.35620 0.00677 -0.49900
C 	C 	0.16590 0.44020 0.39936 0.40800
C 	C 	0.20900 0.44800 0.35408 -0.19000
C 	C 	0.18640 0.51480 0.30831 0.10400
H 	H 	0.14270 0.55250 0.30440 0.00900
C 	C 	0.22920 0.52520 0.26830 -0.16600
H 	H 	0.21340 0.56970 0.23730 0.08600
C 	C 	0.29540 0.47140 0.27246 0.10400
C 	C 	0.31710 0.40250 0.31810 -0.17400
H 	H 	0.36040 0.36340 0.32180 0.09100
C 	C 	0.27360 0.39150 0.35890 0.11000
H 	H 	0.28860 0.34540 0.38960 -0.03300
C 	C 	0.34160 0.48530 0.22875 -0.03400
C 	C 	0.33350 0.58940 0.19230 -0.02100
H 	H 	0.29750 0.64910 0.19430 0.03300
C 	C 	0.37750 0.60590 0.15374 -0.08500
H 	H 	0.37160 0.67820 0.13080 0.04500
C 	C 	0.43110 0.51570 0.14821 0.04400
C 	C 	0.43600 0.41240 0.18380 -0.08500
H 	H 	0.47110 0.35080 0.18140 0.06200
C 	C 	0.39260 0.39360 0.22290 -0.01400
H 	H 	0.39770 0.31980 0.24500 0.03300
C 	C 	0.48130 0.53660 0.10852 -0.03200
C 	C 	0.49800 0.66440 0.09157 -0.00700
H 	H 	0.47660 0.73810 0.10490 0.02800
C 	C 	0.54610 0.68270 0.05509 -0.12100
C 	C 	0.57970 0.57410 0.03749 0.05400
H 	H 	0.61420 0.58660 0.01510 0.02800
C 	C 	0.56360 0.44610 0.05232 -0.12700
C 	C 	0.51490 0.42810 0.08816 0.00300
H 	H 	0.50450 0.34240 0.09880 0.03800
C 	C 	0.55990 0.81990 0.03544 0.34000
C 	C 	0.59930 0.32930 0.02976 0.39500
Cd	Cd	0.75000 0.25000 -0.00000 1.18400
Cd	Cd	0.25000 0.25000 0.50000 1.19900
Cd	Cd	0.25000 0.75000 -0.00000 1.18400
Cd	Cd	0.75000 0.75000 0.50000 1.19900
