data_crystal

_cell_length_a 43.52000
_cell_length_b 12.54600
_cell_length_c 21.89400
_cell_angle_alpha 90.00000
_cell_angle_beta  105.05300
_cell_angle_gamma 90.00000

_symmetry_space_group_name_	'P 1'
_symmetry_space_group_name_H-M	'P 1'

loop_
_symmetry_equiv_pos_as_xyz
  x,y,z

loop_
_atom_site_label
_atom_site_type_symbol
_atom_site_fract_x
_atom_site_fract_y
_atom_site_fract_z
_atom_site_charge
Ag	Ag	0.20464 0.88650 0.31717 0.51000
Ag	Ag	0.05220 0.65590 0.18960 0.51600
N 	N 	0.16350 0.78200 0.26360 -0.16900
C 	C 	0.14550 0.80300 0.20810 -0.01700
H 	H 	0.15380 0.84360 0.18060 0.01700
C 	C 	0.14970 0.72500 0.29390 -0.01100
H 	H 	0.16050 0.70390 0.33450 -0.00200
N 	N 	0.10180 0.72000 0.22340 -0.19300
C 	C 	0.03200 0.41700 0.21170 0.01500
H 	H 	0.04890 0.41940 0.24790 0.00500
N 	N 	0.02500 0.50700 0.18170 -0.17800
C 	C 	0.12160 0.69400 0.27200 0.03000
H 	H 	0.11470 0.64290 0.29630 -0.01200
C 	C 	0.01730 0.31400 0.19650 -0.01300
H 	H 	0.02470 0.25640 0.22270 0.01100
C 	C 	0.98470 0.40400 0.11440 -0.01700
H 	H 	0.96690 0.40540 0.08010 0.01200
C 	C 	0.11360 0.76800 0.18700 0.02800
H 	H 	0.10180 0.78160 0.14580 -0.01100
C 	C 	0.99940 0.49900 0.13000 -0.01100
H 	H 	0.99230 0.55860 0.10480 0.00700
N 	N 	0.99270 0.30200 0.14390 -0.17300
N 	N 	0.73480 0.40900 0.23670 -0.15000
C 	C 	0.74010 0.30400 0.21040 -0.03000
H 	H 	0.72800 0.24440 0.21480 0.02000
C 	C 	0.76480 0.29700 0.17780 -0.01300
H 	H 	0.77120 0.23250 0.16480 0.00700
N 	N 	0.77910 0.39600 0.16620 -0.17700
C 	C 	0.75010 0.49700 0.22660 -0.02700
H 	H 	0.74580 0.56410 0.24090 0.01800
C 	C 	0.77510 0.48000 0.19020 0.03800
H 	H 	0.78800 0.53760 0.18610 -0.01200
Ag	Ag	0.30920 0.13050 0.59642 0.51200
Ag	Ag	0.46558 0.34070 0.60932 0.51600
N 	N 	0.26340 0.08200 0.51160 -0.16800
N 	N 	0.35020 0.22300 0.58490 -0.18700
C 	C 	0.22970 0.93800 0.46590 -0.02000
H 	H 	0.22050 0.87410 0.47320 0.00900
C 	C 	0.36520 0.28500 0.62510 0.02900
H 	H 	0.35480 0.31110 0.65420 -0.01200
C 	C 	0.39520 0.31900 0.63120 -0.02200
H 	H 	0.40290 0.37270 0.66070 0.01200
C 	C 	0.24720 0.00300 0.51890 0.01200
H 	H 	0.24630 0.98440 0.55960 0.00800
C 	C 	0.37080 0.19300 0.55340 -0.01200
H 	H 	0.36360 0.13660 0.52560 0.00800
C 	C 	0.24370 0.05700 0.40100 -0.01800
H 	H 	0.24300 0.08340 0.36140 0.00900
N 	N 	0.41430 0.28300 0.59820 -0.17500
C 	C 	0.48790 0.68400 0.66910 0.01200
H 	H 	0.47830 0.73340 0.68950 0.00000
C 	C 	0.47320 0.58300 0.65680 -0.02100
H 	H 	0.45500 0.56800 0.67030 0.01200
N 	N 	0.22690 0.97100 0.40600 -0.17400
N 	N 	0.48540 0.50600 0.62530 -0.17500
C 	C 	0.50870 0.53800 0.60200 0.00700
H 	H 	0.51550 0.49230 0.57480 -0.00300
C 	C 	0.26300 0.11000 0.45580 0.00600
H 	H 	0.27570 0.16690 0.45000 0.00700
N 	N 	0.51420 0.71400 0.65410 -0.16700
C 	C 	0.40120 0.22800 0.55400 0.02300
H 	H 	0.41080 0.21070 0.52160 -0.01000
C 	C 	0.52420 0.63900 0.61600 -0.02900
H 	H 	0.54120 0.65570 0.59940 0.00600
Ag	Ag	0.80920 0.36950 0.09642 0.51200
Ag	Ag	0.96558 0.15930 0.10932 0.51600
N 	N 	0.76340 0.41800 0.01160 -0.16800
N 	N 	0.85020 0.27700 0.08490 -0.18700
C 	C 	0.72970 0.56200 0.96590 -0.02000
H 	H 	0.72050 0.62590 0.97320 0.00900
C 	C 	0.86520 0.21500 0.12510 0.02900
H 	H 	0.85480 0.18890 0.15420 -0.01200
C 	C 	0.89520 0.18100 0.13120 -0.02200
H 	H 	0.90290 0.12730 0.16070 0.01100
C 	C 	0.74720 0.49700 0.01890 0.01200
H 	H 	0.74630 0.51560 0.05960 0.00800
C 	C 	0.87080 0.30700 0.05340 -0.01200
H 	H 	0.86360 0.36340 0.02560 0.00800
C 	C 	0.74370 0.44300 0.90100 -0.01800
H 	H 	0.74300 0.41660 0.86140 0.00900
N 	N 	0.91430 0.21700 0.09820 -0.17500
C 	C 	0.98790 0.81600 0.16910 0.01200
H 	H 	0.97830 0.76660 0.18950 0.00000
C 	C 	0.97320 0.91700 0.15680 -0.02100
H 	H 	0.95500 0.93200 0.17030 0.01200
N 	N 	0.72690 0.52900 0.90600 -0.17400
N 	N 	0.98540 0.99400 0.12530 -0.17500
C 	C 	0.00870 0.96200 0.10200 0.00800
H 	H 	0.01550 0.00770 0.07480 -0.00400
C 	C 	0.76300 0.39000 0.95580 0.00600
H 	H 	0.77570 0.33310 0.95000 0.00700
N 	N 	0.01420 0.78600 0.15410 -0.16700
C 	C 	0.90120 0.27200 0.05400 0.02300
H 	H 	0.91080 0.28930 0.02160 -0.01000
C 	C 	0.02420 0.86100 0.11600 -0.02900
H 	H 	0.04120 0.84430 0.09940 0.00700
N 	N 	0.23480 0.09100 0.73670 -0.15000
C 	C 	0.24010 0.19600 0.71040 -0.03000
H 	H 	0.22800 0.25560 0.71480 0.02000
C 	C 	0.26480 0.20300 0.67780 -0.01300
H 	H 	0.27120 0.26750 0.66480 0.00700
N 	N 	0.27910 0.10400 0.66620 -0.17700
C 	C 	0.25010 0.00300 0.72660 -0.02600
H 	H 	0.24580 0.93590 0.74090 0.01800
C 	C 	0.27510 0.02000 0.69020 0.03800
H 	H 	0.28800 0.96240 0.68610 -0.01300
Ag	Ag	0.70464 0.61350 0.81717 0.50900
Ag	Ag	0.55220 0.84410 0.68960 0.51500
N 	N 	0.66350 0.71800 0.76360 -0.17000
C 	C 	0.64550 0.69700 0.70810 -0.01800
H 	H 	0.65380 0.65640 0.68060 0.01600
C 	C 	0.64970 0.77500 0.79390 -0.01200
H 	H 	0.66050 0.79610 0.83450 -0.00300
N 	N 	0.60180 0.78000 0.72340 -0.19400
C 	C 	0.53200 0.08300 0.71170 0.01400
H 	H 	0.54890 0.08060 0.74790 0.00400
N 	N 	0.52500 0.99300 0.68170 -0.17900
C 	C 	0.62160 0.80600 0.77200 0.02900
H 	H 	0.61470 0.85710 0.79630 -0.01300
C 	C 	0.51730 0.18600 0.69650 -0.01400
H 	H 	0.52470 0.24360 0.72270 0.01000
C 	C 	0.48470 0.09600 0.61440 -0.01800
H 	H 	0.46690 0.09460 0.58010 0.01200
C 	C 	0.61360 0.73200 0.68700 0.02800
H 	H 	0.60180 0.71840 0.64580 -0.01100
C 	C 	0.49940 0.00100 0.63000 -0.01000
H 	H 	0.49230 0.94140 0.60480 0.00700
N 	N 	0.49270 0.19800 0.64390 -0.17300
Ag	Ag	0.19080 0.63050 0.90358 0.51200
Ag	Ag	0.03442 0.84070 0.89068 0.51600
N 	N 	0.23660 0.58200 0.98840 -0.16800
N 	N 	0.14980 0.72300 0.91510 -0.18700
C 	C 	0.27030 0.43800 0.03410 -0.02000
H 	H 	0.27950 0.37410 0.02680 0.00900
C 	C 	0.13480 0.78500 0.87490 0.02900
H 	H 	0.14520 0.81110 0.84580 -0.01200
C 	C 	0.10480 0.81900 0.86880 -0.02200
H 	H 	0.09710 0.87270 0.83930 0.01100
C 	C 	0.25280 0.50300 0.98110 0.01200
H 	H 	0.25370 0.48440 0.94040 0.00800
C 	C 	0.12920 0.69300 0.94660 -0.01200
H 	H 	0.13640 0.63660 0.97440 0.00800
C 	C 	0.25630 0.55700 0.09900 -0.01800
H 	H 	0.25700 0.58340 0.13860 0.00900
N 	N 	0.08570 0.78300 0.90180 -0.17500
C 	C 	0.01210 0.18400 0.83090 0.01200
H 	H 	0.02170 0.23340 0.81050 0.00000
C 	C 	0.02680 0.08300 0.84320 -0.02100
H 	H 	0.04500 0.06800 0.82970 0.01200
N 	N 	0.27310 0.47100 0.09400 -0.17400
N 	N 	0.01460 0.00600 0.87470 -0.17500
C 	C 	0.99130 0.03800 0.89800 0.00800
H 	H 	0.98450 0.99230 0.92520 -0.00400
C 	C 	0.23700 0.61000 0.04420 0.00600
H 	H 	0.22430 0.66690 0.05000 0.00700
N 	N 	0.98580 0.21400 0.84590 -0.16700
C 	C 	0.09880 0.72800 0.94600 0.02300
H 	H 	0.08920 0.71070 0.97840 -0.01000
C 	C 	0.97580 0.13900 0.88400 -0.02900
H 	H 	0.95880 0.15570 0.90060 0.00700
N 	N 	0.76520 0.90900 0.26330 -0.15000
C 	C 	0.75990 0.80400 0.28960 -0.03000
H 	H 	0.77200 0.74440 0.28520 0.02000
C 	C 	0.73520 0.79700 0.32220 -0.01300
H 	H 	0.72880 0.73250 0.33520 0.00700
N 	N 	0.72090 0.89600 0.33380 -0.17700
C 	C 	0.74990 0.99700 0.27340 -0.02600
H 	H 	0.75420 0.06410 0.25910 0.01800
C 	C 	0.72490 0.98000 0.30980 0.03800
H 	H 	0.71200 0.03760 0.31390 -0.01300
Ag	Ag	0.29536 0.38650 0.18283 0.50900
Ag	Ag	0.44780 0.15590 0.31040 0.51500
N 	N 	0.33650 0.28200 0.23640 -0.17000
C 	C 	0.35450 0.30300 0.29190 -0.01800
H 	H 	0.34620 0.34360 0.31940 0.01600
C 	C 	0.35030 0.22500 0.20610 -0.01200
H 	H 	0.33950 0.20390 0.16550 -0.00300
N 	N 	0.39820 0.22000 0.27660 -0.19400
C 	C 	0.46800 0.91700 0.28830 0.01400
H 	H 	0.45110 0.91940 0.25210 0.00400
N 	N 	0.47500 0.00700 0.31830 -0.17900
C 	C 	0.37840 0.19400 0.22800 0.02900
H 	H 	0.38530 0.14290 0.20370 -0.01300
C 	C 	0.48270 0.81400 0.30350 -0.01400
H 	H 	0.47530 0.75640 0.27730 0.01000
C 	C 	0.51530 0.90400 0.38560 -0.01800
H 	H 	0.53310 0.90540 0.41990 0.01200
C 	C 	0.38640 0.26800 0.31300 0.02800
H 	H 	0.39820 0.28160 0.35420 -0.01100
C 	C 	0.50060 0.99900 0.37000 -0.01000
H 	H 	0.50770 0.05860 0.39520 0.00700
N 	N 	0.50730 0.80200 0.35610 -0.17300
Ag	Ag	0.79536 0.11350 0.68283 0.50900
Ag	Ag	0.94780 0.34410 0.81040 0.51500
N 	N 	0.83650 0.21800 0.73640 -0.17000
C 	C 	0.85450 0.19700 0.79190 -0.01800
H 	H 	0.84620 0.15640 0.81940 0.01600
C 	C 	0.85030 0.27500 0.70610 -0.01200
H 	H 	0.83950 0.29610 0.66550 -0.00300
N 	N 	0.89820 0.28000 0.77660 -0.19400
C 	C 	0.96800 0.58300 0.78830 0.01400
H 	H 	0.95110 0.58060 0.75210 0.00400
N 	N 	0.97500 0.49300 0.81830 -0.17900
C 	C 	0.87840 0.30600 0.72800 0.02900
H 	H 	0.88530 0.35710 0.70370 -0.01300
C 	C 	0.98270 0.68600 0.80350 -0.01400
H 	H 	0.97530 0.74360 0.77730 0.01000
C 	C 	0.01530 0.59600 0.88560 -0.01800
H 	H 	0.03310 0.59460 0.91990 0.01200
C 	C 	0.88640 0.23200 0.81300 0.02800
H 	H 	0.89820 0.21840 0.85420 -0.01100
C 	C 	0.00060 0.50100 0.87000 -0.01100
H 	H 	0.00770 0.44140 0.89520 0.00700
N 	N 	0.00730 0.69800 0.85610 -0.17300
N 	N 	0.26520 0.59100 0.76330 -0.15000
C 	C 	0.25990 0.69600 0.78960 -0.03000
H 	H 	0.27200 0.75560 0.78520 0.02000
C 	C 	0.23520 0.70300 0.82220 -0.01300
H 	H 	0.22880 0.76750 0.83520 0.00700
N 	N 	0.22090 0.60400 0.83380 -0.17700
C 	C 	0.24990 0.50300 0.77340 -0.02700
H 	H 	0.25420 0.43590 0.75910 0.01800
C 	C 	0.22490 0.52000 0.80980 0.03800
H 	H 	0.21200 0.46240 0.81390 -0.01200
Ag	Ag	0.69080 0.86950 0.40358 0.51200
Ag	Ag	0.53442 0.65930 0.39068 0.51600
N 	N 	0.73660 0.91800 0.48840 -0.16800
N 	N 	0.64980 0.77700 0.41510 -0.18700
C 	C 	0.77030 0.06200 0.53410 -0.02000
H 	H 	0.77950 0.12590 0.52680 0.00900
C 	C 	0.63480 0.71500 0.37490 0.02900
H 	H 	0.64520 0.68890 0.34580 -0.01200
C 	C 	0.60480 0.68100 0.36880 -0.02200
H 	H 	0.59710 0.62730 0.33930 0.01200
C 	C 	0.75280 0.99700 0.48110 0.01200
H 	H 	0.75370 0.01560 0.44040 0.00800
C 	C 	0.62920 0.80700 0.44660 -0.01200
H 	H 	0.63640 0.86340 0.47440 0.00800
C 	C 	0.75630 0.94300 0.59900 -0.01800
H 	H 	0.75700 0.91660 0.63860 0.00900
N 	N 	0.58570 0.71700 0.40180 -0.17500
C 	C 	0.51210 0.31600 0.33090 0.01200
H 	H 	0.52170 0.26660 0.31050 0.00000
C 	C 	0.52680 0.41700 0.34320 -0.02100
H 	H 	0.54500 0.43200 0.32970 0.01200
N 	N 	0.77310 0.02900 0.59400 -0.17400
N 	N 	0.51460 0.49400 0.37470 -0.17500
C 	C 	0.49130 0.46200 0.39800 0.00700
H 	H 	0.48450 0.50770 0.42520 -0.00300
C 	C 	0.73700 0.89000 0.54420 0.00600
H 	H 	0.72430 0.83310 0.55000 0.00700
N 	N 	0.48580 0.28600 0.34590 -0.16700
C 	C 	0.59880 0.77200 0.44600 0.02300
H 	H 	0.58920 0.78930 0.47840 -0.01000
C 	C 	0.47580 0.36100 0.38400 -0.02900
H 	H 	0.45880 0.34430 0.40060 0.00600
N 	N 	0.23480 0.90900 0.23670 -0.15000
C 	C 	0.24010 0.80400 0.21040 -0.03000
H 	H 	0.22800 0.74440 0.21480 0.02000
C 	C 	0.26480 0.79700 0.17780 -0.01300
H 	H 	0.27120 0.73250 0.16480 0.00700
N 	N 	0.27910 0.89600 0.16620 -0.17700
C 	C 	0.25010 0.99700 0.22660 -0.02600
H 	H 	0.24580 0.06410 0.24090 0.01800
C 	C 	0.27510 0.98000 0.19020 0.03800
H 	H 	0.28800 0.03760 0.18610 -0.01300
Ag	Ag	0.70464 0.38650 0.31717 0.50900
Ag	Ag	0.55220 0.15590 0.18960 0.51500
N 	N 	0.66350 0.28200 0.26360 -0.17000
C 	C 	0.64550 0.30300 0.20810 -0.01800
H 	H 	0.65380 0.34360 0.18060 0.01600
C 	C 	0.64970 0.22500 0.29390 -0.01200
H 	H 	0.66050 0.20390 0.33450 -0.00300
N 	N 	0.60180 0.22000 0.22340 -0.19400
C 	C 	0.53200 0.91700 0.21170 0.01500
H 	H 	0.54890 0.91940 0.24790 0.00400
N 	N 	0.52500 0.00700 0.18170 -0.18000
C 	C 	0.62160 0.19400 0.27200 0.02900
H 	H 	0.61470 0.14290 0.29630 -0.01300
C 	C 	0.51730 0.81400 0.19650 -0.01400
H 	H 	0.52470 0.75640 0.22270 0.01000
C 	C 	0.48470 0.90400 0.11440 -0.01900
H 	H 	0.46690 0.90540 0.08010 0.01200
C 	C 	0.61360 0.26800 0.18700 0.02800
H 	H 	0.60180 0.28160 0.14580 -0.01100
C 	C 	0.49940 0.99900 0.13000 -0.00900
H 	H 	0.49230 0.05860 0.10480 0.00700
N 	N 	0.49270 0.80200 0.14390 -0.17200
Ag	Ag	0.80920 0.63050 0.59642 0.51200
Ag	Ag	0.96558 0.84070 0.60932 0.51600
N 	N 	0.76340 0.58200 0.51160 -0.16800
N 	N 	0.85020 0.72300 0.58490 -0.18700
C 	C 	0.72970 0.43800 0.46590 -0.02000
H 	H 	0.72050 0.37410 0.47320 0.00900
C 	C 	0.86520 0.78500 0.62510 0.02900
H 	H 	0.85480 0.81110 0.65420 -0.01200
C 	C 	0.89520 0.81900 0.63120 -0.02200
H 	H 	0.90290 0.87270 0.66070 0.01100
C 	C 	0.74720 0.50300 0.51890 0.01200
H 	H 	0.74630 0.48440 0.55960 0.00800
C 	C 	0.87080 0.69300 0.55340 -0.01200
H 	H 	0.86360 0.63660 0.52560 0.00800
C 	C 	0.74370 0.55700 0.40100 -0.01800
H 	H 	0.74300 0.58340 0.36140 0.00900
N 	N 	0.91430 0.78300 0.59820 -0.17500
C 	C 	0.98790 0.18400 0.66910 0.01200
H 	H 	0.97830 0.23340 0.68950 0.00000
C 	C 	0.97320 0.08300 0.65680 -0.02100
H 	H 	0.95500 0.06800 0.67030 0.01200
N 	N 	0.72690 0.47100 0.40600 -0.17400
N 	N 	0.98540 0.00600 0.62530 -0.17500
C 	C 	0.00870 0.03800 0.60200 0.00700
H 	H 	0.01550 0.99230 0.57480 -0.00300
C 	C 	0.76300 0.61000 0.45580 0.00600
H 	H 	0.77570 0.66690 0.45000 0.00700
N 	N 	0.01420 0.21400 0.65410 -0.16700
C 	C 	0.90120 0.72800 0.55400 0.02300
H 	H 	0.91080 0.71070 0.52160 -0.01000
C 	C 	0.02420 0.13900 0.61600 -0.02900
H 	H 	0.04120 0.15570 0.59940 0.00600
Ag	Ag	0.30920 0.86950 0.09642 0.51200
Ag	Ag	0.46558 0.65930 0.10932 0.51600
N 	N 	0.26340 0.91800 0.01160 -0.16800
N 	N 	0.35020 0.77700 0.08490 -0.18700
C 	C 	0.22970 0.06200 0.96590 -0.02000
H 	H 	0.22050 0.12590 0.97320 0.01000
C 	C 	0.36520 0.71500 0.12510 0.02900
H 	H 	0.35480 0.68890 0.15420 -0.01200
C 	C 	0.39520 0.68100 0.13120 -0.02200
H 	H 	0.40290 0.62730 0.16070 0.01200
C 	C 	0.24720 0.99700 0.01890 0.01300
H 	H 	0.24630 0.01560 0.05960 0.00800
C 	C 	0.37080 0.80700 0.05340 -0.01200
H 	H 	0.36360 0.86340 0.02560 0.00800
C 	C 	0.24370 0.94300 0.90100 -0.01800
H 	H 	0.24300 0.91660 0.86140 0.00900
N 	N 	0.41430 0.71700 0.09820 -0.17500
C 	C 	0.48790 0.31600 0.16910 0.01200
H 	H 	0.47830 0.26660 0.18950 0.00000
C 	C 	0.47320 0.41700 0.15680 -0.02100
H 	H 	0.45500 0.43200 0.17030 0.01200
N 	N 	0.22690 0.02900 0.90600 -0.17400
N 	N 	0.48540 0.49400 0.12530 -0.17500
C 	C 	0.50870 0.46200 0.10200 0.00700
H 	H 	0.51550 0.50770 0.07480 -0.00300
C 	C 	0.26300 0.89000 0.95580 0.00500
H 	H 	0.27570 0.83310 0.95000 0.00700
N 	N 	0.51420 0.28600 0.15410 -0.16700
C 	C 	0.40120 0.77200 0.05400 0.02300
H 	H 	0.41080 0.78930 0.02160 -0.01000
C 	C 	0.52420 0.36100 0.11600 -0.02900
H 	H 	0.54120 0.34430 0.09940 0.00600
Ag	Ag	0.20464 0.11350 0.81717 0.50900
Ag	Ag	0.05220 0.34410 0.68960 0.51500
N 	N 	0.16350 0.21800 0.76360 -0.17000
C 	C 	0.14550 0.19700 0.70810 -0.01800
H 	H 	0.15380 0.15640 0.68060 0.01600
C 	C 	0.14970 0.27500 0.79390 -0.01200
H 	H 	0.16050 0.29610 0.83450 -0.00300
N 	N 	0.10180 0.28000 0.72340 -0.19400
C 	C 	0.03200 0.58300 0.71170 0.01400
H 	H 	0.04890 0.58060 0.74790 0.00400
N 	N 	0.02500 0.49300 0.68170 -0.17900
C 	C 	0.12160 0.30600 0.77200 0.02900
H 	H 	0.11470 0.35710 0.79630 -0.01300
C 	C 	0.01730 0.68600 0.69650 -0.01400
H 	H 	0.02470 0.74360 0.72270 0.01000
C 	C 	0.98470 0.59600 0.61440 -0.01800
H 	H 	0.96690 0.59460 0.58010 0.01200
C 	C 	0.11360 0.23200 0.68700 0.02800
H 	H 	0.10180 0.21840 0.64580 -0.01100
C 	C 	0.99940 0.50100 0.63000 -0.01000
H 	H 	0.99230 0.44140 0.60480 0.00700
N 	N 	0.99270 0.69800 0.64390 -0.17300
N 	N 	0.73480 0.59100 0.73670 -0.15000
C 	C 	0.74010 0.69600 0.71040 -0.03000
H 	H 	0.72800 0.75560 0.71480 0.02000
C 	C 	0.76480 0.70300 0.67780 -0.01300
H 	H 	0.77120 0.76750 0.66480 0.00700
N 	N 	0.77910 0.60400 0.66620 -0.17700
C 	C 	0.75010 0.50300 0.72660 -0.02700
H 	H 	0.74580 0.43590 0.74090 0.01800
C 	C 	0.77510 0.52000 0.69020 0.03800
H 	H 	0.78800 0.46240 0.68610 -0.01200
Ag	Ag	0.69080 0.13050 0.90358 0.51200
Ag	Ag	0.53442 0.34070 0.89068 0.51600
N 	N 	0.73660 0.08200 0.98840 -0.16800
N 	N 	0.64980 0.22300 0.91510 -0.18700
C 	C 	0.77030 0.93800 0.03410 -0.02000
H 	H 	0.77950 0.87410 0.02680 0.01000
C 	C 	0.63480 0.28500 0.87490 0.02900
H 	H 	0.64520 0.31110 0.84580 -0.01200
C 	C 	0.60480 0.31900 0.86880 -0.02200
H 	H 	0.59710 0.37270 0.83930 0.01200
C 	C 	0.75280 0.00300 0.98110 0.01300
H 	H 	0.75370 0.98440 0.94040 0.00800
C 	C 	0.62920 0.19300 0.94660 -0.01200
H 	H 	0.63640 0.13660 0.97440 0.00800
C 	C 	0.75630 0.05700 0.09900 -0.01800
H 	H 	0.75700 0.08340 0.13860 0.00900
N 	N 	0.58570 0.28300 0.90180 -0.17500
C 	C 	0.51210 0.68400 0.83090 0.01200
H 	H 	0.52170 0.73340 0.81050 0.00000
C 	C 	0.52680 0.58300 0.84320 -0.02100
H 	H 	0.54500 0.56800 0.82970 0.01200
N 	N 	0.77310 0.97100 0.09400 -0.17400
N 	N 	0.51460 0.50600 0.87470 -0.17500
C 	C 	0.49130 0.53800 0.89800 0.00700
H 	H 	0.48450 0.49230 0.92520 -0.00300
C 	C 	0.73700 0.11000 0.04420 0.00500
H 	H 	0.72430 0.16690 0.05000 0.00700
N 	N 	0.48580 0.71400 0.84590 -0.16700
C 	C 	0.59880 0.22800 0.94600 0.02300
H 	H 	0.58920 0.21070 0.97840 -0.01000
C 	C 	0.47580 0.63900 0.88400 -0.02900
H 	H 	0.45880 0.65570 0.90060 0.00600
Ag	Ag	0.79536 0.88650 0.18283 0.50900
Ag	Ag	0.94780 0.65590 0.31040 0.51500
N 	N 	0.83650 0.78200 0.23640 -0.17000
C 	C 	0.85450 0.80300 0.29190 -0.01800
H 	H 	0.84620 0.84360 0.31940 0.01600
C 	C 	0.85030 0.72500 0.20610 -0.01200
H 	H 	0.83950 0.70390 0.16550 -0.00300
N 	N 	0.89820 0.72000 0.27660 -0.19400
C 	C 	0.96800 0.41700 0.28830 0.01400
H 	H 	0.95110 0.41940 0.25210 0.00400
N 	N 	0.97500 0.50700 0.31830 -0.17900
C 	C 	0.87840 0.69400 0.22800 0.02900
H 	H 	0.88530 0.64290 0.20370 -0.01300
C 	C 	0.98270 0.31400 0.30350 -0.01400
H 	H 	0.97530 0.25640 0.27730 0.01000
C 	C 	0.01530 0.40400 0.38560 -0.01800
H 	H 	0.03310 0.40540 0.41990 0.01200
C 	C 	0.88640 0.76800 0.31300 0.02800
H 	H 	0.89820 0.78160 0.35420 -0.01100
C 	C 	0.00060 0.49900 0.37000 -0.01000
H 	H 	0.00770 0.55860 0.39520 0.00700
N 	N 	0.00730 0.30200 0.35610 -0.17300
N 	N 	0.26520 0.40900 0.26330 -0.15000
C 	C 	0.25990 0.30400 0.28960 -0.03000
H 	H 	0.27200 0.24440 0.28520 0.02000
C 	C 	0.23520 0.29700 0.32220 -0.01300
H 	H 	0.22880 0.23250 0.33520 0.00700
N 	N 	0.22090 0.39600 0.33380 -0.17700
C 	C 	0.24990 0.49700 0.27340 -0.02700
H 	H 	0.25420 0.56410 0.25910 0.01800
C 	C 	0.22490 0.48000 0.30980 0.03800
H 	H 	0.21200 0.53760 0.31390 -0.01200
N 	N 	0.76520 0.09100 0.76330 -0.15000
C 	C 	0.75990 0.19600 0.78960 -0.03000
H 	H 	0.77200 0.25560 0.78520 0.02000
C 	C 	0.73520 0.20300 0.82220 -0.01300
H 	H 	0.72880 0.26750 0.83520 0.00700
N 	N 	0.72090 0.10400 0.83380 -0.17700
C 	C 	0.74990 0.00300 0.77340 -0.02600
H 	H 	0.75420 0.93590 0.75910 0.01800
C 	C 	0.72490 0.02000 0.80980 0.03800
H 	H 	0.71200 0.96240 0.81390 -0.01300
Ag	Ag	0.29536 0.61350 0.68283 0.50900
Ag	Ag	0.44780 0.84410 0.81040 0.51500
N 	N 	0.33650 0.71800 0.73640 -0.17000
C 	C 	0.35450 0.69700 0.79190 -0.01800
H 	H 	0.34620 0.65640 0.81940 0.01600
C 	C 	0.35030 0.77500 0.70610 -0.01200
H 	H 	0.33950 0.79610 0.66550 -0.00300
N 	N 	0.39820 0.78000 0.77660 -0.19400
C 	C 	0.46800 0.08300 0.78830 0.01500
H 	H 	0.45110 0.08060 0.75210 0.00400
N 	N 	0.47500 0.99300 0.81830 -0.18000
C 	C 	0.37840 0.80600 0.72800 0.02900
H 	H 	0.38530 0.85710 0.70370 -0.01300
C 	C 	0.48270 0.18600 0.80350 -0.01400
H 	H 	0.47530 0.24360 0.77730 0.01000
C 	C 	0.51530 0.09600 0.88560 -0.01900
H 	H 	0.53310 0.09460 0.91990 0.01200
C 	C 	0.38640 0.73200 0.81300 0.02800
H 	H 	0.39820 0.71840 0.85420 -0.01100
C 	C 	0.50060 0.00100 0.87000 -0.00900
H 	H 	0.50770 0.94140 0.89520 0.00700
N 	N 	0.50730 0.19800 0.85610 -0.17200
Ag	Ag	0.19080 0.36950 0.40358 0.51200
Ag	Ag	0.03442 0.15930 0.39068 0.51600
N 	N 	0.23660 0.41800 0.48840 -0.16800
N 	N 	0.14980 0.27700 0.41510 -0.18700
C 	C 	0.27030 0.56200 0.53410 -0.02000
H 	H 	0.27950 0.62590 0.52680 0.00900
C 	C 	0.13480 0.21500 0.37490 0.02900
H 	H 	0.14520 0.18890 0.34580 -0.01200
C 	C 	0.10480 0.18100 0.36880 -0.02200
H 	H 	0.09710 0.12730 0.33930 0.01100
C 	C 	0.25280 0.49700 0.48110 0.01200
H 	H 	0.25370 0.51560 0.44040 0.00800
C 	C 	0.12920 0.30700 0.44660 -0.01200
H 	H 	0.13640 0.36340 0.47440 0.00800
C 	C 	0.25630 0.44300 0.59900 -0.01800
H 	H 	0.25700 0.41660 0.63860 0.00900
N 	N 	0.08570 0.21700 0.40180 -0.17500
C 	C 	0.01210 0.81600 0.33090 0.01200
H 	H 	0.02170 0.76660 0.31050 0.00000
C 	C 	0.02680 0.91700 0.34320 -0.02100
H 	H 	0.04500 0.93200 0.32970 0.01200
N 	N 	0.27310 0.52900 0.59400 -0.17400
N 	N 	0.01460 0.99400 0.37470 -0.17500
C 	C 	0.99130 0.96200 0.39800 0.00700
H 	H 	0.98450 0.00770 0.42520 -0.00300
C 	C 	0.23700 0.39000 0.54420 0.00600
H 	H 	0.22430 0.33310 0.55000 0.00700
N 	N 	0.98580 0.78600 0.34590 -0.16700
C 	C 	0.09880 0.27200 0.44600 0.02300
H 	H 	0.08920 0.28930 0.47840 -0.01000
C 	C 	0.97580 0.86100 0.38400 -0.02900
H 	H 	0.95880 0.84430 0.40060 0.00600
