data_crystal

_cell_length_a 15.36450
_cell_length_b 15.12750
_cell_length_c 8.31100
_cell_angle_alpha 90.00000
_cell_angle_beta  91.85000
_cell_angle_gamma 90.00000

_symmetry_space_group_name_	'P 1'
_symmetry_space_group_name_H-M	'P 1'

loop_
_symmetry_equiv_pos_as_xyz
  x,y,z

loop_
_atom_site_label
_atom_site_type_symbol
_atom_site_fract_x
_atom_site_fract_y
_atom_site_fract_z
_atom_site_charge
C 	C 	0.31891 0.08566 0.94850 0.03000
H 	H 	0.36540 0.11680 0.90750 0.01700
C 	C 	0.32046 0.99369 0.94180 -0.03200
C 	C 	0.24856 0.94827 0.99860 -0.03700
H 	H 	0.24690 0.88690 0.99390 0.04400
C 	C 	0.17920 0.99466 0.06240 -0.02400
C 	C 	0.18564 0.08643 0.06960 0.02000
H 	H 	0.14120 0.11800 0.11650 0.01800
C 	C 	0.39708 0.94669 0.87890 0.08800
C 	C 	0.44677 0.98402 0.75780 -0.14400
H 	H 	0.43170 0.03890 0.71490 0.09200
C 	C 	0.51850 0.93901 0.70210 0.06800
H 	H 	0.55100 0.96410 0.62140 0.02300
C 	C 	0.54262 0.85711 0.76450 -0.13500
C 	C 	0.49321 0.81980 0.88490 0.05600
H 	H 	0.50880 0.76510 0.92820 0.02100
C 	C 	0.42089 0.86391 0.94020 -0.13800
H 	H 	0.38780 0.83800 0.01930 0.08200
C 	C 	0.62220 0.80932 0.70910 0.36200
C 	C 	0.09982 0.94891 0.11730 0.08000
C 	C 	0.05087 0.98305 0.24230 -0.13000
H 	H 	0.06740 0.03580 0.29200 0.08400
C 	C 	0.97769 0.93819 0.29190 0.05600
H 	H 	0.94550 0.96120 0.37500 0.02700
C 	C 	0.95166 0.85921 0.21910 -0.12700
C 	C 	0.99998 0.82549 0.09450 0.05000
H 	H 	0.98310 0.77280 0.04500 0.02300
C 	C 	0.07309 0.86973 0.04340 -0.13000
H 	H 	0.10460 0.84670 0.95950 0.07900
C 	C 	0.87129 0.81102 0.27040 0.36000
N 	N 	0.25331 0.13139 0.01161 -0.24100
O 	O 	0.83227 0.84231 0.38890 -0.45400
O 	O 	0.84779 0.74259 0.19490 -0.42400
O 	O 	0.65994 0.84146 0.58970 -0.45300
O 	O 	0.64650 0.74045 0.78220 -0.43300
Zn	Zn	0.25410 0.26728 0.01296 1.22300
C 	C 	0.68109 0.58566 0.55150 0.02500
H 	H 	0.63460 0.61680 0.59250 0.01700
C 	C 	0.67954 0.49369 0.55820 -0.02900
C 	C 	0.75144 0.44827 0.50140 -0.03600
H 	H 	0.75310 0.38690 0.50610 0.04400
C 	C 	0.82080 0.49466 0.43760 -0.02800
C 	C 	0.81436 0.58643 0.43040 0.02400
H 	H 	0.85880 0.61800 0.38350 0.01700
C 	C 	0.60292 0.44669 0.62110 0.08600
C 	C 	0.55323 0.48402 0.74220 -0.14100
H 	H 	0.56830 0.53890 0.78510 0.09100
C 	C 	0.48150 0.43901 0.79790 0.06500
H 	H 	0.44900 0.46410 0.87860 0.02500
C 	C 	0.45738 0.35711 0.73550 -0.13300
C 	C 	0.50679 0.31980 0.61510 0.05300
H 	H 	0.49120 0.26510 0.57180 0.02200
C 	C 	0.57911 0.36391 0.55980 -0.13500
H 	H 	0.61220 0.33800 0.48070 0.08000
C 	C 	0.37780 0.30932 0.79090 0.36100
C 	C 	0.90018 0.44891 0.38270 0.08300
C 	C 	0.94913 0.48305 0.25770 -0.13600
H 	H 	0.93260 0.53580 0.20800 0.08800
C 	C 	0.02231 0.43819 0.20810 0.06000
H 	H 	0.05450 0.46120 0.12500 0.02600
C 	C 	0.04834 0.35921 0.28090 -0.13000
C 	C 	0.00002 0.32549 0.40550 0.05100
H 	H 	0.01690 0.27280 0.45500 0.02200
C 	C 	0.92691 0.36973 0.45660 -0.13200
H 	H 	0.89540 0.34670 0.54050 0.08000
C 	C 	0.12871 0.31102 0.22960 0.36000
N 	N 	0.74669 0.63139 0.48839 -0.24000
O 	O 	0.16773 0.34231 0.11110 -0.45400
O 	O 	0.15221 0.24259 0.30510 -0.42500
O 	O 	0.34006 0.34146 0.91030 -0.45200
O 	O 	0.35350 0.24045 0.71780 -0.43200
Zn	Zn	0.74590 0.76728 0.48704 1.22300
C 	C 	0.68109 0.91434 0.05150 0.02900
H 	H 	0.63460 0.88320 0.09250 0.01600
C 	C 	0.67954 0.00631 0.05820 -0.03200
C 	C 	0.75144 0.05173 0.00140 -0.03700
H 	H 	0.75310 0.11310 0.00610 0.04400
C 	C 	0.82080 0.00534 0.93760 -0.02400
C 	C 	0.81436 0.91357 0.93040 0.02000
H 	H 	0.85880 0.88200 0.88350 0.01800
C 	C 	0.60292 0.05331 0.12110 0.08800
C 	C 	0.55323 0.01598 0.24220 -0.14400
H 	H 	0.56830 0.96110 0.28510 0.09200
C 	C 	0.48150 0.06099 0.29790 0.06800
H 	H 	0.44900 0.03590 0.37860 0.02300
C 	C 	0.45738 0.14289 0.23550 -0.13500
C 	C 	0.50679 0.18020 0.11510 0.05600
H 	H 	0.49120 0.23490 0.07180 0.02100
C 	C 	0.57911 0.13609 0.05980 -0.13800
H 	H 	0.61220 0.16200 0.98070 0.08200
C 	C 	0.37780 0.19068 0.29090 0.36200
C 	C 	0.90018 0.05109 0.88270 0.08000
C 	C 	0.94913 0.01695 0.75770 -0.13000
H 	H 	0.93260 0.96420 0.70800 0.08400
C 	C 	0.02231 0.06181 0.70810 0.05600
H 	H 	0.05450 0.03880 0.62500 0.02700
C 	C 	0.04834 0.14079 0.78090 -0.12700
C 	C 	0.00002 0.17451 0.90550 0.05000
H 	H 	0.01690 0.22720 0.95500 0.02300
C 	C 	0.92691 0.13027 0.95660 -0.13000
H 	H 	0.89540 0.15330 0.04050 0.07900
C 	C 	0.12871 0.18898 0.72960 0.36000
N 	N 	0.74669 0.86861 0.98839 -0.24100
O 	O 	0.16773 0.15769 0.61110 -0.45400
O 	O 	0.15221 0.25741 0.80510 -0.42400
O 	O 	0.34006 0.15854 0.41030 -0.45300
O 	O 	0.35350 0.25955 0.21780 -0.43300
Zn	Zn	0.74590 0.73272 0.98704 1.22300
C 	C 	0.31891 0.41434 0.44850 0.02500
H 	H 	0.36540 0.38320 0.40750 0.01700
C 	C 	0.32046 0.50631 0.44180 -0.02900
C 	C 	0.24856 0.55173 0.49860 -0.03600
H 	H 	0.24690 0.61310 0.49390 0.04400
C 	C 	0.17920 0.50534 0.56240 -0.02800
C 	C 	0.18564 0.41357 0.56960 0.02400
H 	H 	0.14120 0.38200 0.61650 0.01700
C 	C 	0.39708 0.55331 0.37890 0.08600
C 	C 	0.44677 0.51598 0.25780 -0.14100
H 	H 	0.43170 0.46110 0.21490 0.09100
C 	C 	0.51850 0.56099 0.20210 0.06500
H 	H 	0.55100 0.53590 0.12140 0.02500
C 	C 	0.54262 0.64289 0.26450 -0.13300
C 	C 	0.49321 0.68020 0.38490 0.05300
H 	H 	0.50880 0.73490 0.42820 0.02200
C 	C 	0.42089 0.63609 0.44020 -0.13500
H 	H 	0.38780 0.66200 0.51930 0.08000
C 	C 	0.62220 0.69068 0.20910 0.36100
C 	C 	0.09982 0.55109 0.61730 0.08300
C 	C 	0.05087 0.51695 0.74230 -0.13600
H 	H 	0.06740 0.46420 0.79200 0.08800
C 	C 	0.97769 0.56181 0.79190 0.06000
H 	H 	0.94550 0.53880 0.87500 0.02600
C 	C 	0.95166 0.64079 0.71910 -0.13000
C 	C 	0.99998 0.67451 0.59450 0.05100
H 	H 	0.98310 0.72720 0.54500 0.02200
C 	C 	0.07309 0.63027 0.54340 -0.13200
H 	H 	0.10460 0.65330 0.45950 0.08000
C 	C 	0.87129 0.68898 0.77040 0.36000
N 	N 	0.25331 0.36861 0.51161 -0.24000
O 	O 	0.83227 0.65769 0.88890 -0.45400
O 	O 	0.84779 0.75741 0.69490 -0.42500
O 	O 	0.65994 0.65854 0.08970 -0.45200
O 	O 	0.64650 0.75955 0.28220 -0.43200
Zn	Zn	0.25410 0.23272 0.51296 1.22300
