data_crystal

_cell_length_a 9.32280
_cell_length_b 11.25200
_cell_length_c 18.82500
_cell_angle_alpha 79.40900
_cell_angle_beta  79.47900
_cell_angle_gamma 66.27500

_symmetry_space_group_name_	'P 1'
_symmetry_space_group_name_H-M	'P 1'

loop_
_symmetry_equiv_pos_as_xyz
  x,y,z

loop_
_atom_site_label
_atom_site_type_symbol
_atom_site_fract_x
_atom_site_fract_y
_atom_site_fract_z
_atom_site_charge
Ni	Ni	0.60585 0.31314 0.21663 1.03700
O 	O 	0.51880 0.27310 0.13380 -0.41100
O 	O 	0.15350 0.41200 0.57770 -0.38800
N 	N 	0.43240 0.50910 0.21280 -0.25200
N 	N 	0.00140 0.68370 0.50300 -0.23300
N 	N 	0.74880 0.38600 0.13600 -0.23600
O 	O 	0.50030 0.33870 0.56420 -0.23000
N 	N 	0.78820 0.12180 0.21830 -0.22400
C 	C 	0.00030 0.93340 0.50070 -0.02500
O 	O 	0.80540 0.53880 0.58160 -0.56200
O 	O 	0.48410 0.15290 0.55040 -0.24200
C 	C 	0.96200 0.92730 0.28080 -0.04800
H 	H 	0.99050 0.87770 0.32500 0.06100
C 	C 	0.42230 0.11380 0.78690 -0.27100
H 	H 	0.48250 0.04480 0.81810 0.14100
C 	C 	0.44670 0.23620 0.00140 0.17900
H 	H 	0.52610 0.26750 0.99870 -0.02000
C 	C 	0.40750 0.23140 0.13840 0.35200
C 	C 	0.46160 0.24280 0.58670 0.31700
C 	C 	0.99250 0.96090 0.15150 -0.00400
H 	H 	0.04260 0.93450 0.10640 0.02000
C 	C 	0.21670 0.68010 0.15830 -0.18500
H 	H 	0.15780 0.71190 0.11920 0.09500
O 	O 	0.32430 0.21120 0.19600 -0.29100
C 	C 	0.39080 0.22990 0.66540 -0.11500
C 	C 	0.04690 0.88200 0.21590 -0.04900
C 	C 	0.24110 0.31630 0.69310 0.04500
C 	C 	0.73790 0.40020 0.06490 0.07300
H 	H 	0.66150 0.37860 0.05100 0.00900
O 	O 	0.21540 0.17630 0.88380 -0.31900
C 	C 	0.37450 0.20580 0.06860 -0.20100
C 	C 	0.18090 0.75360 0.21520 0.12000
C 	C 	0.13220 0.70190 0.50150 0.05600
H 	H 	0.22660 0.62910 0.50100 0.03000
C 	C 	0.94720 0.47670 0.02770 0.05700
C 	C 	0.86700 0.07530 0.15590 0.02700
H 	H 	0.83300 0.12530 0.11250 0.02000
C 	C 	0.47880 0.12890 0.71280 0.11300
H 	H 	0.57690 0.07020 0.69540 0.00500
C 	C 	0.13800 0.82340 0.50050 -0.09300
H 	H 	0.23410 0.83070 0.49970 0.07800
O 	O 	0.00900 0.50420 0.67520 -0.29400
C 	C 	0.12720 0.42020 0.64360 0.29200
C 	C 	0.83470 0.04640 0.27980 0.04100
H 	H 	0.77950 0.07480 0.32390 -0.00300
C 	C 	0.28270 0.18050 0.94270 0.32300
C 	C 	0.19080 0.29880 0.76720 -0.22200
H 	H 	0.09340 0.35650 0.78610 0.12500
C 	C 	0.95790 0.46610 0.10010 -0.08500
H 	H 	0.03240 0.48860 0.11510 0.05200
C 	C 	0.40510 0.22170 0.93780 -0.31300
H 	H 	0.45830 0.23930 0.89280 0.14600
C 	C 	0.83180 0.44460 0.01060 -0.12500
H 	H 	0.81660 0.45290 0.96220 0.07500
C 	C 	0.27830 0.70420 0.26810 -0.18300
H 	H 	0.26260 0.75130 0.30650 0.10100
C 	C 	0.28210 0.19830 0.81270 0.28800
C 	C 	0.33890 0.56080 0.15960 0.10500
H 	H 	0.35830 0.51250 0.12140 -0.01200
C 	C 	0.25630 0.15550 0.07090 0.16200
H 	H 	0.20860 0.13060 0.11570 -0.01500
C 	C 	0.40040 0.58390 0.26460 0.11000
H 	H 	0.46530 0.55310 0.30150 -0.01700
C 	C 	0.86480 0.91380 0.50340 -0.07200
H 	H 	0.76830 0.98430 0.50590 0.07300
C 	C 	0.85690 0.42150 0.15170 0.06100
H 	H 	0.86650 0.41650 0.20060 -0.00300
C 	C 	0.21130 0.14310 0.00800 -0.30100
H 	H 	0.13380 0.11000 0.00980 0.14200
C 	C 	0.86930 0.78940 0.50250 0.07300
H 	H 	0.77520 0.77980 0.50160 0.03400
H 	H 	0.86480 0.53240 0.61250 0.27200
H 	H 	0.85450 0.47700 0.55550 0.13900
Ni	Ni	0.39415 0.68686 0.78337 1.03600
O 	O 	0.48120 0.72690 0.86620 -0.41100
O 	O 	0.84650 0.58800 0.42230 -0.37900
N 	N 	0.56760 0.49090 0.78720 -0.24300
N 	N 	0.99860 0.31630 0.49700 -0.23100
N 	N 	0.25120 0.61400 0.86400 -0.24700
O 	O 	0.49970 0.66130 0.43580 -0.23200
N 	N 	0.21180 0.87820 0.78170 -0.25500
C 	C 	0.99970 0.06660 0.49930 0.15000
O 	O 	0.19460 0.46120 0.41840 -0.55600
O 	O 	0.51590 0.84710 0.44960 -0.24500
C 	C 	0.03800 0.07270 0.71920 -0.17600
H 	H 	0.00950 0.12230 0.67500 0.09300
C 	C 	0.57770 0.88620 0.21310 -0.27500
H 	H 	0.51750 0.95520 0.18190 0.14000
C 	C 	0.55330 0.76380 0.99860 0.18100
H 	H 	0.47390 0.73250 0.00130 -0.02100
C 	C 	0.59250 0.76860 0.86160 0.35100
C 	C 	0.53840 0.75720 0.41330 0.31900
C 	C 	0.00750 0.03910 0.84850 -0.21000
H 	H 	0.95740 0.06550 0.89360 0.11600
C 	C 	0.78330 0.31990 0.84170 -0.13300
H 	H 	0.84220 0.28810 0.88080 0.08100
O 	O 	0.67570 0.78880 0.80400 -0.28500
C 	C 	0.60920 0.77010 0.33460 -0.12000
C 	C 	0.95310 0.11800 0.78410 0.12200
C 	C 	0.75890 0.68370 0.30690 0.05100
C 	C 	0.26210 0.59980 0.93510 0.08200
H 	H 	0.33850 0.62140 0.94900 0.00600
O 	O 	0.78460 0.82370 0.11620 -0.31500
C 	C 	0.62550 0.79420 0.93140 -0.19900
C 	C 	0.81910 0.24640 0.78480 0.04600
C 	C 	0.86780 0.29810 0.49850 0.11400
H 	H 	0.77340 0.37090 0.49900 0.01100
C 	C 	0.05280 0.52330 0.97230 0.07000
C 	C 	0.13300 0.92470 0.84410 0.12500
H 	H 	0.16700 0.87470 0.88750 -0.02000
C 	C 	0.52120 0.87110 0.28720 0.11700
H 	H 	0.42310 0.92980 0.30460 -0.00000
C 	C 	0.86200 0.17660 0.49950 -0.18900
H 	H 	0.76590 0.16930 0.50030 0.11700
O 	O 	0.99100 0.49580 0.32480 -0.27400
C 	C 	0.87280 0.57980 0.35640 0.29000
C 	C 	0.16530 0.95360 0.72020 0.09700
H 	H 	0.22050 0.92520 0.67610 -0.02600
C 	C 	0.71730 0.81950 0.05730 0.32400
C 	C 	0.80920 0.70120 0.23280 -0.22600
H 	H 	0.90660 0.64350 0.21390 0.13600
C 	C 	0.04210 0.53390 0.89990 -0.17600
H 	H 	0.96760 0.51140 0.88490 0.10800
C 	C 	0.59490 0.77830 0.06220 -0.31400
H 	H 	0.54170 0.76070 0.10720 0.14600
C 	C 	0.16820 0.55540 0.98940 -0.14100
H 	H 	0.18340 0.54710 0.03780 0.07700
C 	C 	0.72170 0.29580 0.73190 -0.12900
H 	H 	0.73740 0.24870 0.69350 0.08600
C 	C 	0.71790 0.80170 0.18730 0.29300
C 	C 	0.66110 0.43920 0.84040 0.08100
H 	H 	0.64170 0.48750 0.87860 -0.00300
C 	C 	0.74370 0.84450 0.92910 0.16400
H 	H 	0.79140 0.86940 0.88430 -0.00900
C 	C 	0.59960 0.41610 0.73540 0.08400
H 	H 	0.53470 0.44690 0.69850 -0.00800
C 	C 	0.13520 0.08620 0.49660 -0.20500
H 	H 	0.23170 0.01570 0.49410 0.12100
C 	C 	0.14310 0.57850 0.84830 0.10000
H 	H 	0.13350 0.58350 0.79940 -0.02300
C 	C 	0.78870 0.85690 0.99200 -0.29700
H 	H 	0.86620 0.89000 0.99020 0.14900
C 	C 	0.13070 0.21060 0.49750 0.09700
H 	H 	0.22480 0.22020 0.49840 0.02200
H 	H 	0.13520 0.46760 0.38750 0.25500
H 	H 	0.14550 0.52300 0.44450 0.13000
Ni	Ni	-0.00000 0.50000 0.50000 1.08000
