data_crystal

_cell_length_a 19.70200
_cell_length_b 18.11810
_cell_length_c 14.31850
_cell_angle_alpha 90.00000
_cell_angle_beta  97.58300
_cell_angle_gamma 90.00000

_symmetry_space_group_name_	'P 1'
_symmetry_space_group_name_H-M	'P 1'

loop_
_symmetry_equiv_pos_as_xyz
  x,y,z

loop_
_atom_site_label
_atom_site_type_symbol
_atom_site_fract_x
_atom_site_fract_y
_atom_site_fract_z
_atom_site_charge
Mn	Mn	0.24780 0.85554 0.05781 1.28900
Mn	Mn	0.29284 0.85659 0.39312 1.28800
Mn	Mn	0.27325 0.99025 0.22796 1.27000
C 	C 	0.82600 0.98060 0.91110 0.43600
C 	C 	0.88400 0.96200 0.98580 -0.25800
C 	C 	0.90720 0.01310 0.05370 0.22100
H 	H 	0.88580 0.05870 0.05510 -0.03900
C 	C 	0.91630 0.89390 0.98470 0.22300
H 	H 	0.90180 0.85960 0.93810 -0.03400
C 	C 	0.96320 0.99600 0.12040 -0.34800
H 	H 	0.97980 0.03060 0.16560 0.16600
C 	C 	0.97030 0.87790 0.05360 -0.35300
H 	H 	0.99100 0.83170 0.05500 0.16200
C 	C 	0.99300 0.92950 0.11920 0.36500
C 	C 	0.04870 0.86010 0.24790 0.25800
C 	C 	0.98840 0.84130 0.28210 -0.23900
H 	H 	0.94750 0.86490 0.26020 0.11900
C 	C 	0.11110 0.82720 0.28180 -0.18600
C 	C 	0.17330 0.85170 0.23690 0.43200
C 	C 	0.99070 0.78610 0.35030 0.10100
H 	H 	0.95060 0.77120 0.37260 -0.00400
C 	C 	0.11180 0.77430 0.35210 0.01400
C 	C 	0.17720 0.73670 0.39350 0.31400
C 	C 	0.05150 0.75410 0.38430 -0.13000
H 	H 	0.05230 0.71770 0.43030 0.08700
C 	C 	0.66570 0.97260 0.60000 0.41100
C 	C 	0.62170 0.95550 0.51210 -0.27000
C 	C 	0.58060 0.00830 0.46510 0.21900
H 	H 	0.58180 0.05630 0.48830 -0.03800
C 	C 	0.61910 0.88310 0.47500 0.20400
H 	H 	0.64770 0.84660 0.50400 -0.03200
C 	C 	0.53780 0.99170 0.38450 -0.34000
H 	H 	0.51060 0.02840 0.35350 0.16100
C 	C 	0.57350 0.86650 0.39440 -0.34600
H 	H 	0.56970 0.81830 0.37180 0.15300
C 	C 	0.53480 0.92120 0.34920 0.35300
C 	C 	0.49160 0.85250 0.20990 0.27400
C 	C 	0.55190 0.83210 0.17820 -0.26800
H 	H 	0.59310 0.85420 0.20240 0.12400
C 	C 	0.42900 0.82200 0.17320 -0.20300
C 	C 	0.36670 0.84710 0.21480 0.45100
C 	C 	0.55010 0.77840 0.11000 0.11900
H 	H 	0.59050 0.76370 0.08860 -0.01400
C 	C 	0.42890 0.76860 0.10190 0.01900
C 	C 	0.36280 0.73380 0.05730 0.33000
C 	C 	0.48970 0.74610 0.07330 -0.14500
H 	H 	0.48960 0.70880 0.02870 0.09700
O 	O 	0.78900 0.03510 0.92390 -0.56700
O 	O 	0.81380 0.94190 0.83830 -0.43300
O 	O 	0.05130 0.91660 0.18330 -0.31500
O 	O 	0.18230 0.82240 0.16180 -0.43900
O 	O 	0.20918 0.90300 0.27970 -0.56300
O 	O 	0.23355 0.76000 0.36940 -0.44500
O 	O 	0.17180 0.68560 0.45210 -0.42500
O 	O 	0.70320 0.92650 0.64450 -0.41600
O 	O 	0.66470 0.03750 0.63320 -0.56800
O 	O 	0.48720 0.91160 0.27090 -0.32400
O 	O 	0.35656 0.81920 0.28930 -0.44400
O 	O 	0.33151 0.89880 0.17140 -0.57800
O 	O 	0.30703 0.75780 0.08020 -0.45200
O 	O 	0.36810 0.68410 0.99850 -0.43500
Mn	Mn	0.75220 0.35554 0.44219 1.28800
Mn	Mn	0.70716 0.35659 0.10688 1.28700
Mn	Mn	0.72675 0.49025 0.27204 1.26900
C 	C 	0.17400 0.48060 0.58890 0.43600
C 	C 	0.11600 0.46200 0.51420 -0.26600
C 	C 	0.09280 0.51310 0.44630 0.23100
H 	H 	0.11420 0.55870 0.44490 -0.04400
C 	C 	0.08370 0.39390 0.51530 0.22900
H 	H 	0.09820 0.35960 0.56190 -0.03700
C 	C 	0.03680 0.49600 0.37960 -0.36200
H 	H 	0.02020 0.53060 0.33440 0.17100
C 	C 	0.02970 0.37790 0.44640 -0.36100
H 	H 	0.00900 0.33170 0.44500 0.16400
C 	C 	0.00700 0.42950 0.38080 0.36900
C 	C 	0.95130 0.36010 0.25210 0.26000
C 	C 	0.01160 0.34130 0.21790 -0.24200
H 	H 	0.05250 0.36490 0.23980 0.11900
C 	C 	0.88890 0.32720 0.21820 -0.18600
C 	C 	0.82670 0.35170 0.26310 0.43200
C 	C 	0.00930 0.28610 0.14970 0.10000
H 	H 	0.04940 0.27120 0.12740 -0.00400
C 	C 	0.88820 0.27430 0.14790 0.01400
C 	C 	0.82280 0.23670 0.10650 0.31400
C 	C 	0.94850 0.25410 0.11570 -0.12800
H 	H 	0.94770 0.21770 0.06970 0.08700
C 	C 	0.33430 0.47260 0.90000 0.41000
C 	C 	0.37830 0.45550 0.98790 -0.26900
C 	C 	0.41940 0.50830 0.03490 0.21900
H 	H 	0.41820 0.55630 0.01170 -0.03800
C 	C 	0.38090 0.38310 0.02500 0.20300
H 	H 	0.35230 0.34660 0.99600 -0.03100
C 	C 	0.46220 0.49170 0.11550 -0.34100
H 	H 	0.48940 0.52840 0.14650 0.16100
C 	C 	0.42650 0.36650 0.10560 -0.34500
H 	H 	0.43030 0.31830 0.12820 0.15300
C 	C 	0.46520 0.42120 0.15080 0.35300
C 	C 	0.50840 0.35250 0.29010 0.27400
C 	C 	0.44810 0.33210 0.32180 -0.26800
H 	H 	0.40690 0.35420 0.29760 0.12400
C 	C 	0.57100 0.32200 0.32680 -0.20300
C 	C 	0.63330 0.34710 0.28520 0.45100
C 	C 	0.44990 0.27840 0.39000 0.11900
H 	H 	0.40950 0.26370 0.41140 -0.01400
C 	C 	0.57110 0.26860 0.39810 0.01900
C 	C 	0.63720 0.23380 0.44270 0.33000
C 	C 	0.51030 0.24610 0.42670 -0.14500
H 	H 	0.51040 0.20880 0.47130 0.09700
O 	O 	0.21100 0.53510 0.57610 -0.56700
O 	O 	0.18620 0.44190 0.66170 -0.43300
O 	O 	0.94870 0.41660 0.31670 -0.31500
O 	O 	0.81770 0.32240 0.33820 -0.43900
O 	O 	0.79082 0.40300 0.22030 -0.56300
O 	O 	0.76645 0.26000 0.13060 -0.44500
O 	O 	0.82820 0.18560 0.04790 -0.42500
O 	O 	0.29680 0.42650 0.85550 -0.41500
O 	O 	0.33530 0.53750 0.86680 -0.56700
O 	O 	0.51280 0.41160 0.22910 -0.32400
O 	O 	0.64344 0.31920 0.21070 -0.44400
O 	O 	0.66849 0.39880 0.32860 -0.57800
O 	O 	0.69297 0.25780 0.41980 -0.45200
O 	O 	0.63190 0.18410 0.50150 -0.43600
Mn	Mn	0.75220 0.14446 0.94219 1.28800
Mn	Mn	0.70716 0.14341 0.60688 1.28700
Mn	Mn	0.72675 0.00975 0.77204 1.26900
C 	C 	0.17400 0.01940 0.08890 0.43500
C 	C 	0.11600 0.03800 0.01420 -0.25900
C 	C 	0.09280 0.98690 0.94630 0.22000
H 	H 	0.11420 0.94130 0.94490 -0.04000
C 	C 	0.08370 0.10610 0.01530 0.22200
H 	H 	0.09820 0.14040 0.06190 -0.03500
C 	C 	0.03680 0.00400 0.87960 -0.34900
H 	H 	0.02020 0.96940 0.83440 0.16600
C 	C 	0.02970 0.12210 0.94640 -0.35300
H 	H 	0.00900 0.16830 0.94500 0.16200
C 	C 	0.00700 0.07050 0.88080 0.36500
C 	C 	0.95130 0.13990 0.75210 0.25800
C 	C 	0.01160 0.15870 0.71790 -0.23900
H 	H 	0.05250 0.13510 0.73980 0.11900
C 	C 	0.88890 0.17280 0.71820 -0.18600
C 	C 	0.82670 0.14830 0.76310 0.43200
C 	C 	0.00930 0.21390 0.64970 0.10100
H 	H 	0.04940 0.22880 0.62740 -0.00400
C 	C 	0.88820 0.22570 0.64790 0.01400
C 	C 	0.82280 0.26330 0.60650 0.31400
C 	C 	0.94850 0.24590 0.61570 -0.13000
H 	H 	0.94770 0.28230 0.56970 0.08700
C 	C 	0.33430 0.02740 0.40000 0.41100
C 	C 	0.37830 0.04450 0.48790 -0.27000
C 	C 	0.41940 0.99170 0.53490 0.21900
H 	H 	0.41820 0.94370 0.51170 -0.03800
C 	C 	0.38090 0.11690 0.52500 0.20400
H 	H 	0.35230 0.15340 0.49600 -0.03200
C 	C 	0.46220 0.00830 0.61550 -0.34000
H 	H 	0.48940 0.97160 0.64650 0.16100
C 	C 	0.42650 0.13350 0.60560 -0.34600
H 	H 	0.43030 0.18170 0.62820 0.15300
C 	C 	0.46520 0.07880 0.65080 0.35300
C 	C 	0.50840 0.14750 0.79010 0.27400
C 	C 	0.44810 0.16790 0.82180 -0.26800
H 	H 	0.40690 0.14580 0.79760 0.12400
C 	C 	0.57100 0.17800 0.82680 -0.20300
C 	C 	0.63330 0.15290 0.78520 0.45100
C 	C 	0.44990 0.22160 0.89000 0.11900
H 	H 	0.40950 0.23630 0.91140 -0.01400
C 	C 	0.57110 0.23140 0.89810 0.01900
C 	C 	0.63720 0.26620 0.94270 0.33000
C 	C 	0.51030 0.25390 0.92670 -0.14500
H 	H 	0.51040 0.29120 0.97130 0.09700
O 	O 	0.21100 0.96490 0.07610 -0.56700
O 	O 	0.18620 0.05810 0.16170 -0.43300
O 	O 	0.94870 0.08340 0.81670 -0.31500
O 	O 	0.81770 0.17760 0.83820 -0.43900
O 	O 	0.79082 0.09700 0.72030 -0.56300
O 	O 	0.76645 0.24000 0.63060 -0.44500
O 	O 	0.82820 0.31440 0.54790 -0.42500
O 	O 	0.29680 0.07350 0.35550 -0.41600
O 	O 	0.33530 0.96250 0.36680 -0.56800
O 	O 	0.51280 0.08840 0.72910 -0.32400
O 	O 	0.64344 0.18080 0.71070 -0.44400
O 	O 	0.66849 0.10120 0.82860 -0.57800
O 	O 	0.69297 0.24220 0.91980 -0.45200
O 	O 	0.63190 0.31590 0.00150 -0.43500
Mn	Mn	0.24780 0.64446 0.55781 1.28800
Mn	Mn	0.29284 0.64341 0.89312 1.28700
Mn	Mn	0.27325 0.50975 0.72796 1.26900
C 	C 	0.82600 0.51940 0.41110 0.43600
C 	C 	0.88400 0.53800 0.48580 -0.26600
C 	C 	0.90720 0.48690 0.55370 0.23100
H 	H 	0.88580 0.44130 0.55510 -0.04400
C 	C 	0.91630 0.60610 0.48470 0.22900
H 	H 	0.90180 0.64040 0.43810 -0.03700
C 	C 	0.96320 0.50400 0.62040 -0.36200
H 	H 	0.97980 0.46940 0.66560 0.17100
C 	C 	0.97030 0.62210 0.55360 -0.36100
H 	H 	0.99100 0.66830 0.55500 0.16400
C 	C 	0.99300 0.57050 0.61920 0.36900
C 	C 	0.04870 0.63990 0.74790 0.26000
C 	C 	0.98840 0.65870 0.78210 -0.24200
H 	H 	0.94750 0.63510 0.76020 0.11900
C 	C 	0.11110 0.67280 0.78180 -0.18600
C 	C 	0.17330 0.64830 0.73690 0.43200
C 	C 	0.99070 0.71390 0.85030 0.10000
H 	H 	0.95060 0.72880 0.87260 -0.00400
C 	C 	0.11180 0.72570 0.85210 0.01400
C 	C 	0.17720 0.76330 0.89350 0.31400
C 	C 	0.05150 0.74590 0.88430 -0.12800
H 	H 	0.05230 0.78230 0.93030 0.08700
C 	C 	0.66570 0.52740 0.10000 0.41000
C 	C 	0.62170 0.54450 0.01210 -0.26900
C 	C 	0.58060 0.49170 0.96510 0.21900
H 	H 	0.58180 0.44370 0.98830 -0.03800
C 	C 	0.61910 0.61690 0.97500 0.20300
H 	H 	0.64770 0.65340 0.00400 -0.03100
C 	C 	0.53780 0.50830 0.88450 -0.34100
H 	H 	0.51060 0.47160 0.85350 0.16100
C 	C 	0.57350 0.63350 0.89440 -0.34500
H 	H 	0.56970 0.68170 0.87180 0.15300
C 	C 	0.53480 0.57880 0.84920 0.35300
C 	C 	0.49160 0.64750 0.70990 0.27400
C 	C 	0.55190 0.66790 0.67820 -0.26800
H 	H 	0.59310 0.64580 0.70240 0.12400
C 	C 	0.42900 0.67800 0.67320 -0.20300
C 	C 	0.36670 0.65290 0.71480 0.45100
C 	C 	0.55010 0.72160 0.61000 0.11900
H 	H 	0.59050 0.73630 0.58860 -0.01400
C 	C 	0.42890 0.73140 0.60190 0.01900
C 	C 	0.36280 0.76620 0.55730 0.33000
C 	C 	0.48970 0.75390 0.57330 -0.14500
H 	H 	0.48960 0.79120 0.52870 0.09700
O 	O 	0.78900 0.46490 0.42390 -0.56700
O 	O 	0.81380 0.55810 0.33830 -0.43300
O 	O 	0.05130 0.58340 0.68330 -0.31500
O 	O 	0.18230 0.67760 0.66180 -0.43900
O 	O 	0.20918 0.59700 0.77970 -0.56300
O 	O 	0.23355 0.74000 0.86940 -0.44500
O 	O 	0.17180 0.81440 0.95210 -0.42500
O 	O 	0.70320 0.57350 0.14450 -0.41500
O 	O 	0.66470 0.46250 0.13320 -0.56700
O 	O 	0.48720 0.58840 0.77090 -0.32400
O 	O 	0.35656 0.68080 0.78930 -0.44400
O 	O 	0.33151 0.60120 0.67140 -0.57800
O 	O 	0.30703 0.74220 0.58020 -0.45200
O 	O 	0.36810 0.81590 0.49850 -0.43600
