data_crystal

_cell_length_a 15.01400
_cell_length_b 20.22300
_cell_length_c 19.84300
_cell_angle_alpha 90.00000
_cell_angle_beta  90.00000
_cell_angle_gamma 90.00000

_symmetry_space_group_name_	'P 1'
_symmetry_space_group_name_H-M	'P 1'

loop_
_symmetry_equiv_pos_as_xyz
  x,y,z

loop_
_atom_site_label
_atom_site_type_symbol
_atom_site_fract_x
_atom_site_fract_y
_atom_site_fract_z
_atom_site_charge
Zn	Zn	0.32141 0.39760 0.62661 1.17700
Zn	Zn	0.27549 0.60370 0.41876 1.17500
N 	N 	0.27290 0.30670 0.61400 -0.31800
N 	N 	0.25840 0.46590 0.57450 -0.29300
N 	N 	0.23920 0.54720 0.49510 -0.29400
N 	N 	0.40810 0.60900 0.42890 -0.34200
N 	N 	0.55650 0.60510 0.41250 -0.35000
N 	N 	0.23930 0.56900 0.32960 -0.29900
N 	N 	0.19430 0.57080 0.22060 -0.29800
N 	N 	0.22350 0.69290 0.42080 -0.28900
H 	H 	0.38170 0.28180 0.71700 0.19100
C 	C 	0.21090 0.28390 0.56830 0.04000
C 	C 	0.15370 0.32040 0.52360 -0.10700
H 	H 	0.15450 0.36640 0.52190 0.04700
C 	C 	0.09740 0.28340 0.48320 -0.02300
H 	H 	0.05800 0.30540 0.45480 0.03200
C 	C 	0.29270 0.50020 0.52240 0.07500
H 	H 	0.34980 0.49210 0.50610 -0.04400
C 	C 	0.17470 0.49210 0.57950 0.04900
C 	C 	0.10860 0.47670 0.62810 -0.10600
H 	H 	0.11960 0.44640 0.66240 0.03300
C 	C 	0.02860 0.50790 0.62270 -0.02600
H 	H 	0.98270 0.49620 0.65190 0.02600
C 	C 	0.01360 0.55720 0.57450 -0.02300
H 	H 	0.95870 0.57840 0.57270 0.03200
C 	C 	0.07980 0.57440 0.52950 -0.10800
H 	H 	0.07010 0.60760 0.49800 0.05000
C 	C 	0.16180 0.54140 0.53190 0.04600
C 	C 	0.46170 0.57480 0.31970 -0.93600
H 	H 	0.51590 0.57760 0.29420 0.26600
H 	H 	0.41710 0.60220 0.29910 0.26900
H 	H 	0.44140 0.52980 0.32050 0.28400
C 	C 	0.47770 0.59720 0.38820 0.34800
C 	C 	0.44890 0.62850 0.48810 0.03300
C 	C 	0.41440 0.64670 0.54940 -0.11000
H 	H 	0.35320 0.64600 0.55650 0.03600
C 	C 	0.47050 0.66590 0.59980 -0.02300
H 	H 	0.44730 0.68010 0.64080 0.02900
C 	C 	0.56390 0.66430 0.59000 -0.03300
H 	H 	0.60190 0.67700 0.62470 0.03400
C 	C 	0.59910 0.64350 0.52840 -0.10500
H 	H 	0.66040 0.64050 0.52220 0.03500
C 	C 	0.54060 0.62760 0.47650 0.03400
C 	C 	0.22770 0.60480 0.27330 0.07300
H 	H 	0.24170 0.64950 0.27080 -0.06100
C 	C 	0.21470 0.50590 0.31190 0.03900
C 	C 	0.21370 0.44510 0.34690 -0.10900
H 	H 	0.23480 0.44280 0.39090 0.04100
C 	C 	0.18200 0.39030 0.31630 -0.02600
H 	H 	0.17950 0.35060 0.33990 0.03200
C 	C 	0.15370 0.39280 0.25090 -0.02000
H 	H 	0.13320 0.35400 0.23100 0.02800
C 	C 	0.15380 0.44870 0.21360 -0.11000
H 	H 	0.13500 0.44910 0.16900 0.04100
C 	C 	0.18390 0.50550 0.24600 0.03300
C 	C 	0.14380 0.71640 0.39260 0.04000
C 	C 	0.07270 0.67910 0.37000 -0.11800
H 	H 	0.07320 0.63310 0.37050 0.04000
C 	C 	0.99930 0.71580 0.34610 -0.03000
H 	H 	0.94960 0.69340 0.32990 0.01800
H 	H 	0.39800 0.20680 0.70110 -0.00700
H 	H 	0.44330 0.26140 0.65660 0.10800
Zn	Zn	0.17859 0.60240 0.12661 1.17600
Zn	Zn	0.22451 0.39630 0.91876 1.17400
N 	N 	0.22710 0.69330 0.11400 -0.31800
N 	N 	0.24160 0.53410 0.07450 -0.29300
N 	N 	0.26080 0.45280 0.99510 -0.29300
N 	N 	0.09190 0.39100 0.92890 -0.34200
N 	N 	0.94350 0.39490 0.91250 -0.35000
N 	N 	0.26070 0.43100 0.82960 -0.29900
N 	N 	0.30570 0.42920 0.72060 -0.29800
N 	N 	0.27650 0.30710 0.92080 -0.28900
H 	H 	0.11830 0.71820 0.21700 0.19100
C 	C 	0.28910 0.71610 0.06830 0.04000
C 	C 	0.34630 0.67960 0.02360 -0.10700
H 	H 	0.34550 0.63360 0.02190 0.04700
C 	C 	0.40260 0.71660 0.98320 -0.02200
H 	H 	0.44200 0.69460 0.95480 0.03200
C 	C 	0.20730 0.49980 0.02240 0.07500
H 	H 	0.15020 0.50790 0.00610 -0.04400
C 	C 	0.32530 0.50790 0.07950 0.04900
C 	C 	0.39140 0.52330 0.12810 -0.10500
H 	H 	0.38040 0.55360 0.16240 0.03300
C 	C 	0.47140 0.49210 0.12270 -0.02700
H 	H 	0.51730 0.50380 0.15190 0.02700
C 	C 	0.48640 0.44280 0.07450 -0.02200
H 	H 	0.54130 0.42160 0.07270 0.03200
C 	C 	0.42020 0.42560 0.02950 -0.10800
H 	H 	0.42990 0.39240 0.99800 0.05000
C 	C 	0.33820 0.45860 0.03190 0.04600
C 	C 	0.03830 0.42520 0.81970 -0.93300
H 	H 	0.98410 0.42240 0.79420 0.26500
H 	H 	0.08290 0.39780 0.79910 0.26800
H 	H 	0.05860 0.47020 0.82050 0.28400
C 	C 	0.02230 0.40280 0.88820 0.34800
C 	C 	0.05110 0.37150 0.98810 0.03500
C 	C 	0.08560 0.35330 0.04940 -0.11200
H 	H 	0.14680 0.35400 0.05650 0.03600
C 	C 	0.02950 0.33410 0.09980 -0.02200
H 	H 	0.05270 0.31990 0.14080 0.02800
C 	C 	0.93610 0.33570 0.09000 -0.03400
H 	H 	0.89810 0.32300 0.12470 0.03500
C 	C 	0.90090 0.35650 0.02840 -0.10100
H 	H 	0.83960 0.35950 0.02220 0.03400
C 	C 	0.95940 0.37240 0.97650 0.03100
C 	C 	0.27230 0.39520 0.77330 0.07300
H 	H 	0.25830 0.35050 0.77080 -0.06100
C 	C 	0.28530 0.49410 0.81190 0.03900
C 	C 	0.28630 0.55490 0.84690 -0.10900
H 	H 	0.26520 0.55720 0.89090 0.04200
C 	C 	0.31800 0.60970 0.81630 -0.02600
H 	H 	0.32050 0.64940 0.83990 0.03200
C 	C 	0.34630 0.60720 0.75090 -0.02000
H 	H 	0.36680 0.64600 0.73100 0.02800
C 	C 	0.34620 0.55130 0.71360 -0.11000
H 	H 	0.36500 0.55090 0.66900 0.04100
C 	C 	0.31610 0.49450 0.74600 0.03300
C 	C 	0.35620 0.28360 0.89260 0.04000
C 	C 	0.42730 0.32090 0.87000 -0.11700
H 	H 	0.42680 0.36690 0.87050 0.04000
C 	C 	0.50070 0.28420 0.84610 -0.03000
H 	H 	0.55040 0.30660 0.82990 0.01800
H 	H 	0.10200 0.79320 0.20110 -0.00700
H 	H 	0.05670 0.73860 0.15660 0.10800
Zn	Zn	0.67859 0.89760 0.37339 1.17600
Zn	Zn	0.72451 0.10370 0.58124 1.17400
N 	N 	0.72710 0.80670 0.38600 -0.31800
N 	N 	0.74160 0.96590 0.42550 -0.29300
N 	N 	0.76080 0.04720 0.50490 -0.29300
N 	N 	0.59190 0.10900 0.57110 -0.34200
N 	N 	0.44350 0.10510 0.58750 -0.35000
N 	N 	0.76070 0.06900 0.67040 -0.29900
N 	N 	0.80570 0.07080 0.77940 -0.29800
N 	N 	0.77650 0.19290 0.57920 -0.28900
H 	H 	0.61830 0.78180 0.28300 0.19100
C 	C 	0.78910 0.78390 0.43170 0.04000
C 	C 	0.84630 0.82040 0.47640 -0.10700
H 	H 	0.84550 0.86640 0.47810 0.04700
C 	C 	0.90260 0.78340 0.51680 -0.02300
H 	H 	0.94200 0.80540 0.54520 0.03200
C 	C 	0.70730 0.00020 0.47760 0.07500
H 	H 	0.65020 0.99210 0.49390 -0.04400
C 	C 	0.82530 0.99210 0.42050 0.05000
C 	C 	0.89140 0.97670 0.37190 -0.10600
H 	H 	0.88040 0.94640 0.33760 0.03400
C 	C 	0.97140 0.00790 0.37730 -0.02400
H 	H 	0.01730 0.99620 0.34810 0.02500
C 	C 	0.98640 0.05720 0.42550 -0.02500
H 	H 	0.04130 0.07840 0.42730 0.03400
C 	C 	0.92020 0.07440 0.47050 -0.10600
H 	H 	0.92990 0.10760 0.50200 0.04900
C 	C 	0.83820 0.04140 0.46810 0.04500
C 	C 	0.53830 0.07480 0.68030 -0.93500
H 	H 	0.48410 0.07760 0.70580 0.26600
H 	H 	0.58290 0.10220 0.70090 0.26800
H 	H 	0.55860 0.02980 0.67950 0.28400
C 	C 	0.52230 0.09720 0.61180 0.34800
C 	C 	0.55110 0.12850 0.51190 0.03300
C 	C 	0.58560 0.14670 0.45060 -0.11000
H 	H 	0.64680 0.14600 0.44350 0.03600
C 	C 	0.52950 0.16590 0.40020 -0.02300
H 	H 	0.55270 0.18010 0.35920 0.02900
C 	C 	0.43610 0.16430 0.41000 -0.03300
H 	H 	0.39810 0.17700 0.37530 0.03400
C 	C 	0.40090 0.14350 0.47160 -0.10500
H 	H 	0.33960 0.14050 0.47780 0.03500
C 	C 	0.45940 0.12760 0.52350 0.03400
C 	C 	0.77230 0.10480 0.72670 0.07300
H 	H 	0.75830 0.14950 0.72920 -0.06100
C 	C 	0.78530 0.00590 0.68810 0.03800
C 	C 	0.78630 0.94510 0.65310 -0.10900
H 	H 	0.76520 0.94280 0.60910 0.04100
C 	C 	0.81800 0.89030 0.68370 -0.02600
H 	H 	0.82050 0.85060 0.66010 0.03200
C 	C 	0.84630 0.89280 0.74910 -0.02100
H 	H 	0.86680 0.85400 0.76900 0.02900
C 	C 	0.84620 0.94870 0.78640 -0.10800
H 	H 	0.86500 0.94910 0.83100 0.04100
C 	C 	0.81610 0.00550 0.75400 0.03100
C 	C 	0.85620 0.21640 0.60740 0.04100
C 	C 	0.92730 0.17910 0.63000 -0.11800
H 	H 	0.92680 0.13310 0.62950 0.04000
C 	C 	0.00070 0.21580 0.65390 -0.02900
H 	H 	0.05040 0.19340 0.67010 0.01800
H 	H 	0.60200 0.70680 0.29890 -0.00700
H 	H 	0.55670 0.76140 0.34340 0.10800
Zn	Zn	0.82141 0.10240 0.87339 1.17500
Zn	Zn	0.77549 0.89630 0.08124 1.17400
N 	N 	0.77290 0.19330 0.88600 -0.31800
N 	N 	0.75840 0.03410 0.92550 -0.29400
N 	N 	0.73920 0.95280 0.00490 -0.29500
N 	N 	0.90810 0.89100 0.07110 -0.34200
N 	N 	0.05650 0.89490 0.08750 -0.35000
N 	N 	0.73930 0.93100 0.17040 -0.29900
N 	N 	0.69430 0.92920 0.27940 -0.29800
N 	N 	0.72350 0.80710 0.07920 -0.28900
H 	H 	0.88170 0.21820 0.78300 0.19100
C 	C 	0.71090 0.21610 0.93170 0.04000
C 	C 	0.65370 0.17960 0.97640 -0.10800
H 	H 	0.65450 0.13360 0.97810 0.04700
C 	C 	0.59740 0.21660 0.01680 -0.02100
H 	H 	0.55800 0.19460 0.04520 0.03200
C 	C 	0.79270 0.99980 0.97760 0.08100
H 	H 	0.84980 0.00790 0.99390 -0.04700
C 	C 	0.67470 0.00790 0.92050 0.04900
C 	C 	0.60860 0.02330 0.87190 -0.10900
H 	H 	0.61960 0.05360 0.83760 0.03400
C 	C 	0.52860 0.99210 0.87730 -0.02000
H 	H 	0.48270 0.00380 0.84810 0.02400
C 	C 	0.51360 0.94280 0.92550 -0.02600
H 	H 	0.45870 0.92160 0.92730 0.03400
C 	C 	0.57980 0.92560 0.97050 -0.10400
H 	H 	0.57010 0.89240 0.00200 0.04800
C 	C 	0.66180 0.95860 0.96810 0.04600
C 	C 	0.96170 0.92520 0.18030 -0.93100
H 	H 	0.01590 0.92240 0.20580 0.26400
H 	H 	0.91710 0.89780 0.20090 0.26700
H 	H 	0.94140 0.97020 0.17950 0.28300
C 	C 	0.97770 0.90280 0.11180 0.34800
C 	C 	0.94890 0.87150 0.01190 0.03600
C 	C 	0.91440 0.85330 0.95060 -0.11200
H 	H 	0.85320 0.85400 0.94350 0.03700
C 	C 	0.97050 0.83410 0.90020 -0.02100
H 	H 	0.94730 0.81990 0.85920 0.02800
C 	C 	0.06390 0.83570 0.91000 -0.03600
H 	H 	0.10190 0.82300 0.87530 0.03500
C 	C 	0.09910 0.85650 0.97160 -0.10000
H 	H 	0.16040 0.85950 0.97780 0.03400
C 	C 	0.04060 0.87240 0.02350 0.02900
C 	C 	0.72770 0.89520 0.22670 0.07300
H 	H 	0.74170 0.85050 0.22920 -0.06100
C 	C 	0.71470 0.99410 0.18810 0.03800
C 	C 	0.71370 0.05490 0.15310 -0.10900
H 	H 	0.73480 0.05720 0.10910 0.04100
C 	C 	0.68200 0.10970 0.18370 -0.02700
H 	H 	0.67950 0.14940 0.16010 0.03200
C 	C 	0.65370 0.10720 0.24910 -0.02000
H 	H 	0.63320 0.14600 0.26900 0.02800
C 	C 	0.65380 0.05130 0.28640 -0.11000
H 	H 	0.63500 0.05090 0.33100 0.04100
C 	C 	0.68390 0.99450 0.25400 0.03300
C 	C 	0.64380 0.78360 0.10740 0.04000
C 	C 	0.57270 0.82090 0.13000 -0.11700
H 	H 	0.57320 0.86690 0.12950 0.04000
C 	C 	0.49930 0.78420 0.15390 -0.03000
H 	H 	0.44960 0.80660 0.17010 0.01800
H 	H 	0.89800 0.29320 0.79890 -0.00700
H 	H 	0.94330 0.23860 0.84340 0.10800
Zn	Zn	0.67859 0.60240 0.37339 1.17600
Zn	Zn	0.72451 0.39630 0.58124 1.17400
N 	N 	0.72710 0.69330 0.38600 -0.31800
N 	N 	0.74160 0.53410 0.42550 -0.29300
N 	N 	0.76080 0.45280 0.50490 -0.29400
N 	N 	0.59190 0.39100 0.57110 -0.34200
N 	N 	0.44350 0.39490 0.58750 -0.35000
N 	N 	0.76070 0.43100 0.67040 -0.29900
N 	N 	0.80570 0.42920 0.77940 -0.29800
N 	N 	0.77650 0.30710 0.57920 -0.28900
H 	H 	0.61830 0.71820 0.28300 0.19100
C 	C 	0.78910 0.71610 0.43170 0.04000
C 	C 	0.84630 0.67960 0.47640 -0.10700
H 	H 	0.84550 0.63360 0.47810 0.04700
C 	C 	0.90260 0.71660 0.51680 -0.02300
H 	H 	0.94200 0.69460 0.54520 0.03200
C 	C 	0.70730 0.49980 0.47760 0.07500
H 	H 	0.65020 0.50790 0.49390 -0.04400
C 	C 	0.82530 0.50790 0.42050 0.04900
C 	C 	0.89140 0.52330 0.37190 -0.10600
H 	H 	0.88040 0.55360 0.33760 0.03300
C 	C 	0.97140 0.49210 0.37730 -0.02600
H 	H 	0.01730 0.50380 0.34810 0.02600
C 	C 	0.98640 0.44280 0.42550 -0.02300
H 	H 	0.04130 0.42160 0.42730 0.03200
C 	C 	0.92020 0.42560 0.47050 -0.10800
H 	H 	0.92990 0.39240 0.50200 0.05000
C 	C 	0.83820 0.45860 0.46810 0.04600
C 	C 	0.53830 0.42520 0.68030 -0.93600
H 	H 	0.48410 0.42240 0.70580 0.26600
H 	H 	0.58290 0.39780 0.70090 0.26900
H 	H 	0.55860 0.47020 0.67950 0.28400
C 	C 	0.52230 0.40280 0.61180 0.34800
C 	C 	0.55110 0.37150 0.51190 0.03300
C 	C 	0.58560 0.35330 0.45060 -0.11000
H 	H 	0.64680 0.35400 0.44350 0.03600
C 	C 	0.52950 0.33410 0.40020 -0.02300
H 	H 	0.55270 0.31990 0.35920 0.02900
C 	C 	0.43610 0.33570 0.41000 -0.03300
H 	H 	0.39810 0.32300 0.37530 0.03400
C 	C 	0.40090 0.35650 0.47160 -0.10500
H 	H 	0.33960 0.35950 0.47780 0.03500
C 	C 	0.45940 0.37240 0.52350 0.03400
C 	C 	0.77230 0.39520 0.72670 0.07300
H 	H 	0.75830 0.35050 0.72920 -0.06100
C 	C 	0.78530 0.49410 0.68810 0.03900
C 	C 	0.78630 0.55490 0.65310 -0.10900
H 	H 	0.76520 0.55720 0.60910 0.04100
C 	C 	0.81800 0.60970 0.68370 -0.02600
H 	H 	0.82050 0.64940 0.66010 0.03200
C 	C 	0.84630 0.60720 0.74910 -0.02000
H 	H 	0.86680 0.64600 0.76900 0.02800
C 	C 	0.84620 0.55130 0.78640 -0.11000
H 	H 	0.86500 0.55090 0.83100 0.04100
C 	C 	0.81610 0.49450 0.75400 0.03300
C 	C 	0.85620 0.28360 0.60740 0.04000
C 	C 	0.92730 0.32090 0.63000 -0.11800
H 	H 	0.92680 0.36690 0.62950 0.04000
C 	C 	0.00070 0.28420 0.65390 -0.03000
H 	H 	0.05040 0.30660 0.67010 0.01800
H 	H 	0.60200 0.79320 0.29890 -0.00700
H 	H 	0.55670 0.73860 0.34340 0.10800
Zn	Zn	0.82141 0.39760 0.87339 1.17600
Zn	Zn	0.77549 0.60370 0.08124 1.17400
N 	N 	0.77290 0.30670 0.88600 -0.31800
N 	N 	0.75840 0.46590 0.92550 -0.29300
N 	N 	0.73920 0.54720 0.00490 -0.29300
N 	N 	0.90810 0.60900 0.07110 -0.34200
N 	N 	0.05650 0.60510 0.08750 -0.35000
N 	N 	0.73930 0.56900 0.17040 -0.29900
N 	N 	0.69430 0.57080 0.27940 -0.29800
N 	N 	0.72350 0.69290 0.07920 -0.28900
H 	H 	0.88170 0.28180 0.78300 0.19100
C 	C 	0.71090 0.28390 0.93170 0.04000
C 	C 	0.65370 0.32040 0.97640 -0.10700
H 	H 	0.65450 0.36640 0.97810 0.04700
C 	C 	0.59740 0.28340 0.01680 -0.02200
H 	H 	0.55800 0.30540 0.04520 0.03200
C 	C 	0.79270 0.50020 0.97760 0.07500
H 	H 	0.84980 0.49210 0.99390 -0.04400
C 	C 	0.67470 0.49210 0.92050 0.04900
C 	C 	0.60860 0.47670 0.87190 -0.10500
H 	H 	0.61960 0.44640 0.83760 0.03300
C 	C 	0.52860 0.50790 0.87730 -0.02700
H 	H 	0.48270 0.49620 0.84810 0.02700
C 	C 	0.51360 0.55720 0.92550 -0.02200
H 	H 	0.45870 0.57840 0.92730 0.03200
C 	C 	0.57980 0.57440 0.97050 -0.10800
H 	H 	0.57010 0.60760 0.00200 0.05000
C 	C 	0.66180 0.54140 0.96810 0.04600
C 	C 	0.96170 0.57480 0.18030 -0.93300
H 	H 	0.01590 0.57760 0.20580 0.26500
H 	H 	0.91710 0.60220 0.20090 0.26800
H 	H 	0.94140 0.52980 0.17950 0.28400
C 	C 	0.97770 0.59720 0.11180 0.34800
C 	C 	0.94890 0.62850 0.01190 0.03500
C 	C 	0.91440 0.64670 0.95060 -0.11200
H 	H 	0.85320 0.64600 0.94350 0.03600
C 	C 	0.97050 0.66590 0.90020 -0.02200
H 	H 	0.94730 0.68010 0.85920 0.02800
C 	C 	0.06390 0.66430 0.91000 -0.03400
H 	H 	0.10190 0.67700 0.87530 0.03500
C 	C 	0.09910 0.64350 0.97160 -0.10100
H 	H 	0.16040 0.64050 0.97780 0.03400
C 	C 	0.04060 0.62760 0.02350 0.03100
C 	C 	0.72770 0.60480 0.22670 0.07300
H 	H 	0.74170 0.64950 0.22920 -0.06100
C 	C 	0.71470 0.50590 0.18810 0.03900
C 	C 	0.71370 0.44510 0.15310 -0.10900
H 	H 	0.73480 0.44280 0.10910 0.04200
C 	C 	0.68200 0.39030 0.18370 -0.02600
H 	H 	0.67950 0.35060 0.16010 0.03200
C 	C 	0.65370 0.39280 0.24910 -0.02000
H 	H 	0.63320 0.35400 0.26900 0.02800
C 	C 	0.65380 0.44870 0.28640 -0.11000
H 	H 	0.63500 0.44910 0.33100 0.04100
C 	C 	0.68390 0.50550 0.25400 0.03300
C 	C 	0.64380 0.71640 0.10740 0.04000
C 	C 	0.57270 0.67910 0.13000 -0.11700
H 	H 	0.57320 0.63310 0.12950 0.04000
C 	C 	0.49930 0.71580 0.15390 -0.03000
H 	H 	0.44960 0.69340 0.17010 0.01800
H 	H 	0.89800 0.20680 0.79890 -0.00700
H 	H 	0.94330 0.26140 0.84340 0.10800
Zn	Zn	0.32141 0.10240 0.62661 1.17600
Zn	Zn	0.27549 0.89630 0.41876 1.17400
N 	N 	0.27290 0.19330 0.61400 -0.31800
N 	N 	0.25840 0.03410 0.57450 -0.29300
N 	N 	0.23920 0.95280 0.49510 -0.29300
N 	N 	0.40810 0.89100 0.42890 -0.34200
N 	N 	0.55650 0.89490 0.41250 -0.35000
N 	N 	0.23930 0.93100 0.32960 -0.29900
N 	N 	0.19430 0.92920 0.22060 -0.29800
N 	N 	0.22350 0.80710 0.42080 -0.28900
H 	H 	0.38170 0.21820 0.71700 0.19100
C 	C 	0.21090 0.21610 0.56830 0.04000
C 	C 	0.15370 0.17960 0.52360 -0.10700
H 	H 	0.15450 0.13360 0.52190 0.04700
C 	C 	0.09740 0.21660 0.48320 -0.02300
H 	H 	0.05800 0.19460 0.45480 0.03200
C 	C 	0.29270 0.99980 0.52240 0.07500
H 	H 	0.34980 0.00790 0.50610 -0.04400
C 	C 	0.17470 0.00790 0.57950 0.05000
C 	C 	0.10860 0.02330 0.62810 -0.10600
H 	H 	0.11960 0.05360 0.66240 0.03400
C 	C 	0.02860 0.99210 0.62270 -0.02400
H 	H 	0.98270 0.00380 0.65190 0.02500
C 	C 	0.01360 0.94280 0.57450 -0.02500
H 	H 	0.95870 0.92160 0.57270 0.03400
C 	C 	0.07980 0.92560 0.52950 -0.10600
H 	H 	0.07010 0.89240 0.49800 0.04900
C 	C 	0.16180 0.95860 0.53190 0.04500
C 	C 	0.46170 0.92520 0.31970 -0.93500
H 	H 	0.51590 0.92240 0.29420 0.26600
H 	H 	0.41710 0.89780 0.29910 0.26800
H 	H 	0.44140 0.97020 0.32050 0.28400
C 	C 	0.47770 0.90280 0.38820 0.34800
C 	C 	0.44890 0.87150 0.48810 0.03300
C 	C 	0.41440 0.85330 0.54940 -0.11000
H 	H 	0.35320 0.85400 0.55650 0.03600
C 	C 	0.47050 0.83410 0.59980 -0.02300
H 	H 	0.44730 0.81990 0.64080 0.02900
C 	C 	0.56390 0.83570 0.59000 -0.03300
H 	H 	0.60190 0.82300 0.62470 0.03400
C 	C 	0.59910 0.85650 0.52840 -0.10500
H 	H 	0.66040 0.85950 0.52220 0.03500
C 	C 	0.54060 0.87240 0.47650 0.03400
C 	C 	0.22770 0.89520 0.27330 0.07300
H 	H 	0.24170 0.85050 0.27080 -0.06100
C 	C 	0.21470 0.99410 0.31190 0.03800
C 	C 	0.21370 0.05490 0.34690 -0.10900
H 	H 	0.23480 0.05720 0.39090 0.04100
C 	C 	0.18200 0.10970 0.31630 -0.02600
H 	H 	0.17950 0.14940 0.33990 0.03200
C 	C 	0.15370 0.10720 0.25090 -0.02100
H 	H 	0.13320 0.14600 0.23100 0.02900
C 	C 	0.15380 0.05130 0.21360 -0.10800
H 	H 	0.13500 0.05090 0.16900 0.04100
C 	C 	0.18390 0.99450 0.24600 0.03100
C 	C 	0.14380 0.78360 0.39260 0.04100
C 	C 	0.07270 0.82090 0.37000 -0.11800
H 	H 	0.07320 0.86690 0.37050 0.04000
C 	C 	0.99930 0.78420 0.34610 -0.02900
H 	H 	0.94960 0.80660 0.32990 0.01800
H 	H 	0.39800 0.29320 0.70110 -0.00700
H 	H 	0.44330 0.23860 0.65660 0.10800
Zn	Zn	0.17859 0.89760 0.12661 1.17500
Zn	Zn	0.22451 0.10370 0.91876 1.17400
N 	N 	0.22710 0.80670 0.11400 -0.31800
N 	N 	0.24160 0.96590 0.07450 -0.29400
N 	N 	0.26080 0.04720 0.99510 -0.29500
N 	N 	0.09190 0.10900 0.92890 -0.34200
N 	N 	0.94350 0.10510 0.91250 -0.35000
N 	N 	0.26070 0.06900 0.82960 -0.29900
N 	N 	0.30570 0.07080 0.72060 -0.29800
N 	N 	0.27650 0.19290 0.92080 -0.28900
H 	H 	0.11830 0.78180 0.21700 0.19100
C 	C 	0.28910 0.78390 0.06830 0.04000
C 	C 	0.34630 0.82040 0.02360 -0.10800
H 	H 	0.34550 0.86640 0.02190 0.04700
C 	C 	0.40260 0.78340 0.98320 -0.02100
H 	H 	0.44200 0.80540 0.95480 0.03200
C 	C 	0.20730 0.00020 0.02240 0.08100
H 	H 	0.15020 0.99210 0.00610 -0.04700
C 	C 	0.32530 0.99210 0.07950 0.04900
C 	C 	0.39140 0.97670 0.12810 -0.10900
H 	H 	0.38040 0.94640 0.16240 0.03400
C 	C 	0.47140 0.00790 0.12270 -0.02000
H 	H 	0.51730 0.99620 0.15190 0.02400
C 	C 	0.48640 0.05720 0.07450 -0.02600
H 	H 	0.54130 0.07840 0.07270 0.03400
C 	C 	0.42020 0.07440 0.02950 -0.10400
H 	H 	0.42990 0.10760 0.99800 0.04800
C 	C 	0.33820 0.04140 0.03190 0.04600
C 	C 	0.03830 0.07480 0.81970 -0.93100
H 	H 	0.98410 0.07760 0.79420 0.26400
H 	H 	0.08290 0.10220 0.79910 0.26700
H 	H 	0.05860 0.02980 0.82050 0.28300
C 	C 	0.02230 0.09720 0.88820 0.34800
C 	C 	0.05110 0.12850 0.98810 0.03600
C 	C 	0.08560 0.14670 0.04940 -0.11200
H 	H 	0.14680 0.14600 0.05650 0.03700
C 	C 	0.02950 0.16590 0.09980 -0.02100
H 	H 	0.05270 0.18010 0.14080 0.02800
C 	C 	0.93610 0.16430 0.09000 -0.03600
H 	H 	0.89810 0.17700 0.12470 0.03500
C 	C 	0.90090 0.14350 0.02840 -0.10000
H 	H 	0.83960 0.14050 0.02220 0.03400
C 	C 	0.95940 0.12760 0.97650 0.02900
C 	C 	0.27230 0.10480 0.77330 0.07300
H 	H 	0.25830 0.14950 0.77080 -0.06100
C 	C 	0.28530 0.00590 0.81190 0.03800
C 	C 	0.28630 0.94510 0.84690 -0.10900
H 	H 	0.26520 0.94280 0.89090 0.04100
C 	C 	0.31800 0.89030 0.81630 -0.02700
H 	H 	0.32050 0.85060 0.83990 0.03200
C 	C 	0.34630 0.89280 0.75090 -0.02000
H 	H 	0.36680 0.85400 0.73100 0.02800
C 	C 	0.34620 0.94870 0.71360 -0.11000
H 	H 	0.36500 0.94910 0.66900 0.04100
C 	C 	0.31610 0.00550 0.74600 0.03300
C 	C 	0.35620 0.21640 0.89260 0.04000
C 	C 	0.42730 0.17910 0.87000 -0.11700
H 	H 	0.42680 0.13310 0.87050 0.04000
C 	C 	0.50070 0.21580 0.84610 -0.03000
H 	H 	0.55040 0.19340 0.82990 0.01800
H 	H 	0.10200 0.70680 0.20110 -0.00700
H 	H 	0.05670 0.76140 0.15660 0.10800
C 	C 	0.39080 0.25000 0.68170 -0.71100
C 	C 	0.31090 0.25000 0.63500 0.23000
C 	C 	0.10920 0.75000 0.18170 -0.71000
C 	C 	0.18910 0.75000 0.13500 0.22900
C 	C 	0.60920 0.75000 0.31830 -0.71100
C 	C 	0.68910 0.75000 0.36500 0.23000
C 	C 	0.89080 0.25000 0.81830 -0.71000
C 	C 	0.81090 0.25000 0.86500 0.22900
C 	C 	0.26700 0.75000 0.43290 0.02500
C 	C 	0.23300 0.25000 0.93290 0.02500
C 	C 	0.73300 0.25000 0.56710 0.02500
C 	C 	0.76700 0.75000 0.06710 0.02500
