data_crystal

_cell_length_a 11.56180
_cell_length_b 11.84930
_cell_length_c 15.72060
_cell_angle_alpha 76.32500
_cell_angle_beta  71.24600
_cell_angle_gamma 65.33000

_symmetry_space_group_name_	'P 1'
_symmetry_space_group_name_H-M	'P 1'

loop_
_symmetry_equiv_pos_as_xyz
  x,y,z

loop_
_atom_site_label
_atom_site_type_symbol
_atom_site_fract_x
_atom_site_fract_y
_atom_site_fract_z
_atom_site_charge
Co	Co	0.50000 0.50000 -0.00000 1.08300
Co	Co	-0.00000 0.50000 -0.00000 1.08500
Co	Co	-0.00000 0.00000 -0.00000 1.01900
H 	H 	0.41210 0.55190 0.20260 -0.00600
H 	H 	0.95410 0.68650 0.55330 0.09600
H 	H 	0.38200 0.45090 0.34590 0.07500
H 	H 	0.32260 0.09990 0.37750 0.02100
H 	H 	0.15820 0.33790 0.14360 -0.01000
H 	H 	0.29950 0.80590 0.05700 -0.01800
H 	H 	0.15820 0.33120 0.29110 0.07500
H 	H 	0.12400 0.33040 0.84890 0.04500
H 	H 	0.13080 0.32630 0.70210 0.08900
H 	H 	0.90480 0.93950 0.34370 0.12600
H 	H 	0.98760 0.02130 0.80490 0.09300
H 	H 	0.45840 0.30440 0.46470 0.03800
H 	H 	0.37910 0.07710 0.74190 0.05600
H 	H 	0.01240 0.97870 0.19510 -0.08100
H 	H 	0.04590 0.31350 0.44670 -0.00700
H 	H 	0.61130 0.77830 0.38670 0.04200
H 	H 	0.02670 0.31370 0.59900 0.08800
H 	H 	0.48740 0.24740 0.10110 -0.04900
H 	H 	0.26820 0.03410 0.88880 0.04000
H 	H 	0.67740 0.90010 0.62250 0.06000
H 	H 	0.45680 0.13920 0.24220 0.05300
H 	H 	0.84180 0.66210 0.85640 0.04200
H 	H 	0.62090 0.92290 0.25810 0.09300
H 	H 	0.09520 0.06050 0.65630 0.01800
H 	H 	0.25750 0.01570 0.52600 0.02700
H 	H 	0.73180 0.96590 0.11120 -0.02100
H 	H 	0.61800 0.54910 0.65410 0.08100
H 	H 	0.51260 0.75260 0.89890 0.05200
H 	H 	0.58790 0.44810 0.79740 0.00700
H 	H 	0.54320 0.86080 0.75780 0.09700
H 	H 	0.84180 0.66880 0.70890 0.08100
H 	H 	0.87600 0.66960 0.15110 -0.02700
H 	H 	0.70050 0.19410 0.94300 0.00200
H 	H 	0.97330 0.68630 0.40100 0.00300
H 	H 	0.54160 0.69560 0.53530 0.04900
H 	H 	0.86920 0.67370 0.29790 0.07300
H 	H 	0.74250 0.98430 0.47400 0.05900
H 	H 	0.38870 0.22170 0.61330 0.04800
C 	C 	0.27100 0.49700 0.96500 0.30300
C 	C 	0.22920 0.62390 0.99350 0.07400
C 	C 	0.70160 0.93380 0.24680 -0.16500
C 	C 	0.75160 0.92380 0.31880 0.12600
C 	C 	0.93450 0.59940 0.17990 0.13800
C 	C 	0.31140 0.11460 0.58460 0.00600
C 	C 	0.88170 0.26670 0.00650 -0.08200
C 	C 	0.46530 0.28950 0.15190 0.06700
C 	C 	0.86780 0.94310 0.29680 -0.21600
C 	C 	0.44740 0.22410 0.23610 -0.14500
C 	C 	0.92950 0.60270 0.26800 -0.09000
C 	C 	0.97360 0.61060 0.53160 -0.15800
C 	C 	0.76830 0.95940 0.15920 0.10000
C 	C 	0.01310 0.50170 0.31310 0.04700
C 	C 	0.68860 0.88540 0.41540 -0.01900
C 	C 	0.42190 0.46670 0.21060 0.07900
C 	C 	0.99240 0.49980 0.59110 0.13400
C 	C 	0.72900 0.50300 0.03500 0.33900
C 	C 	0.25980 0.76530 0.03630 0.07600
C 	C 	0.74020 0.23470 0.96370 0.14600
C 	C 	0.98970 0.77160 0.97210 0.35300
C 	C 	0.41380 0.24850 0.47700 -0.03800
C 	C 	0.58620 0.75150 0.52300 -0.04400
C 	C 	0.13220 0.05690 0.70320 -0.04900
C 	C 	0.06840 0.03260 0.79220 -0.09500
C 	C 	0.98320 0.61090 0.44120 0.13500
C 	C 	0.59650 0.59320 0.70370 -0.13200
C 	C 	0.09880 0.40250 0.26380 -0.14800
C 	C 	0.01680 0.38910 0.55880 -0.22200
C 	C 	0.01030 0.22840 0.02790 0.24400
C 	C 	0.29550 0.07700 0.51390 -0.06700
C 	C 	0.98690 0.49830 0.68690 0.10500
C 	C 	0.93160 0.96740 0.20780 0.23600
C 	C 	0.61110 0.78290 0.59430 0.00300
C 	C 	0.07050 0.39730 0.73200 -0.18300
C 	C 	0.33400 0.12730 0.42530 -0.04100
C 	C 	0.90120 0.59750 0.73620 -0.12000
C 	C 	0.11830 0.73330 0.99350 0.00500
C 	C 	0.29840 0.06620 0.75320 -0.10300
C 	C 	0.58450 0.71910 0.68710 0.07700
C 	C 	0.57810 0.53330 0.78940 0.08500
C 	C 	0.53470 0.71050 0.84810 0.08400
C 	C 	0.24840 0.07620 0.68120 0.01400
C 	C 	0.55260 0.77590 0.76390 -0.12600
C 	C 	0.37340 0.19820 0.56540 -0.06800
C 	C 	0.06550 0.40060 0.82010 0.03500
C 	C 	0.41550 0.28090 0.31290 0.07200
C 	C 	0.70450 0.92300 0.48610 -0.02600
C 	C 	0.77080 0.37610 0.00650 -0.17600
C 	C 	0.90210 0.59300 0.82430 0.09200
C 	C 	0.09790 0.40700 0.17570 0.05800
C 	C 	0.23170 0.04060 0.84080 0.04700
C 	C 	0.00760 0.50020 0.40890 -0.15300
C 	C 	0.02640 0.38940 0.46840 0.07100
C 	C 	0.40350 0.40680 0.29630 -0.14100
C 	C 	0.66600 0.87270 0.57470 -0.04600
C 	C 	0.38890 0.21710 0.40570 -0.02400
C 	C 	0.62660 0.80180 0.43460 -0.02800
N 	N 	0.01600 0.50410 0.13240 -0.28600
N 	N 	0.68220 0.35450 0.97920 -0.12000
N 	N 	0.88300 0.97570 0.13890 -0.24000
N 	N 	0.31780 0.64550 0.02080 -0.31500
N 	N 	0.98400 0.49590 0.86760 -0.14000
N 	N 	0.11700 0.02430 0.86110 -0.18200
N 	N 	0.13990 0.82310 0.01990 -0.30000
N 	N 	0.45330 0.41100 0.13660 -0.24900
N 	N 	0.86010 0.17690 0.98010 -0.12500
N 	N 	0.54670 0.58900 0.86340 -0.19700
O 	O 	0.19460 0.46810 0.94220 -0.34500
O 	O 	0.05500 0.30610 0.03210 -0.43500
O 	O 	0.38950 0.42540 0.96290 -0.31900
O 	O 	0.94500 0.69390 0.96790 -0.29900
O 	O 	0.80540 0.53190 0.05780 -0.41000
O 	O 	0.07420 0.10980 0.03890 -0.45800
O 	O 	0.92580 0.89020 0.96110 -0.28100
O 	O 	0.61050 0.57460 0.03710 -0.44200
