data_crystal

_cell_length_a 11.47120
_cell_length_b 11.61470
_cell_length_c 19.87810
_cell_angle_alpha 81.15600
_cell_angle_beta  74.92100
_cell_angle_gamma 65.98700

_symmetry_space_group_name_	'P 1'
_symmetry_space_group_name_H-M	'P 1'

loop_
_symmetry_equiv_pos_as_xyz
  x,y,z

loop_
_atom_site_label
_atom_site_type_symbol
_atom_site_fract_x
_atom_site_fract_y
_atom_site_fract_z
_atom_site_charge
N 	N 	0.32210 0.64870 0.01290 -0.30200
N 	N 	0.14570 0.82610 0.01260 -0.29000
N 	N 	0.45470 0.42600 0.10690 -0.25100
N 	N 	0.10050 0.01770 0.89110 -0.18600
N 	N 	0.02510 0.52340 0.10050 -0.26900
O 	O 	0.39210 0.41950 0.96890 -0.33500
O 	O 	0.19500 0.45480 0.95500 -0.34600
O 	O 	0.95200 0.68700 0.96740 -0.33200
O 	O 	0.92360 0.88550 0.97190 -0.32000
C 	C 	0.27240 0.49000 0.97140 0.30300
C 	C 	0.23180 0.62150 0.99210 0.04900
C 	C 	0.12160 0.73160 0.99260 -0.00800
C 	C 	0.26560 0.77090 0.02490 0.09200
H 	H 	0.30680 0.81460 0.04070 -0.02100
C 	C 	0.99070 0.76820 0.97590 0.36200
C 	C 	0.42460 0.49380 0.15940 0.10400
H 	H 	0.41090 0.58050 0.15020 -0.01600
C 	C 	0.41120 0.44780 0.22790 -0.16100
H 	H 	0.38810 0.50280 0.26410 0.08200
C 	C 	0.43120 0.32220 0.24400 0.09300
C 	C 	0.46200 0.25030 0.18680 -0.15700
H 	H 	0.47560 0.16350 0.19410 0.06600
C 	C 	0.47270 0.30440 0.12020 0.08300
H 	H 	0.49370 0.25350 0.08230 -0.04300
C 	C 	0.41510 0.26880 0.31680 -0.04000
C 	C 	0.42730 0.32590 0.36810 -0.01400
H 	H 	0.44870 0.39850 0.35650 0.03200
C 	C 	0.40850 0.27870 0.43810 -0.08800
H 	H 	0.41940 0.31870 0.47300 0.05600
C 	C 	0.37450 0.17440 0.45680 0.04900
C 	C 	0.36540 0.11850 0.40450 -0.09500
H 	H 	0.34610 0.04480 0.41510 0.04600
C 	C 	0.38370 0.16620 0.33550 -0.01500
H 	H 	0.37390 0.12550 0.30060 0.01800
C 	C 	0.34330 0.13360 0.53200 -0.04700
C 	C 	0.37730 0.17500 0.58380 -0.00600
H 	H 	0.42750 0.22590 0.57030 0.02500
C 	C 	0.34070 0.14470 0.65350 -0.10600
H 	H 	0.36550 0.17470 0.68720 0.05900
C 	C 	0.26700 0.06990 0.67480 0.06500
C 	C 	0.23910 0.02580 0.62370 -0.18500
H 	H 	0.19250 0.97150 0.63710 0.11700
C 	C 	0.27530 0.05600 0.55330 0.02400
H 	H 	0.25310 0.02300 0.51980 0.00000
C 	C 	0.21350 0.04720 0.74920 -0.00400
C 	C 	0.27400 0.04420 0.80270 -0.09200
H 	H 	0.35510 0.05420 0.79130 0.05400
C 	C 	0.21680 0.02680 0.87190 0.04900
H 	H 	0.26210 0.02120 0.90680 0.03500
C 	C 	0.09030 0.04000 0.77210 -0.05300
H 	H 	0.04150 0.04510 0.73890 0.02400
C 	C 	0.03940 0.02550 0.84220 -0.05500
H 	H 	0.95560 0.02080 0.85590 0.07300
C 	C 	0.11560 0.43200 0.12940 0.05900
H 	H 	0.18080 0.36690 0.10100 -0.00800
C 	C 	0.12030 0.42630 0.19790 -0.11700
H 	H 	0.18570 0.35690 0.21600 0.06700
C 	C 	0.03050 0.52100 0.24100 0.00100
C 	C 	0.93890 0.61980 0.20860 -0.07500
H 	H 	0.87570 0.68930 0.23460 0.06500
C 	C 	0.94020 0.61640 0.14010 0.11800
H 	H 	0.87670 0.68450 0.11990 -0.01700
C 	C 	0.02720 0.51730 0.31610 0.01100
C 	C 	0.06390 0.40090 0.35430 -0.12700
H 	H 	0.09670 0.32500 0.33080 0.06300
C 	C 	0.05310 0.39480 0.42530 0.07700
H 	H 	0.07760 0.31480 0.45000 -0.00900
C 	C 	0.00720 0.50360 0.46130 -0.23600
C 	C 	0.98410 0.61070 0.42310 0.14400
H 	H 	0.95860 0.68660 0.44540 -0.01200
C 	C 	0.99560 0.61660 0.35150 -0.08600
H 	H 	0.97980 0.69640 0.32680 0.07200
N 	N 	0.67790 0.35130 0.98710 -0.14300
N 	N 	0.85430 0.17390 0.98740 -0.14300
N 	N 	0.54530 0.57400 0.89310 -0.20900
N 	N 	0.89950 0.98230 0.10890 -0.24900
N 	N 	0.97490 0.47660 0.89950 -0.16900
O 	O 	0.60790 0.58050 0.03110 -0.43400
O 	O 	0.80500 0.54520 0.04500 -0.40400
O 	O 	0.04800 0.31300 0.03260 -0.43400
O 	O 	0.07640 0.11450 0.02810 -0.45500
C 	C 	0.72760 0.51000 0.02860 0.32900
C 	C 	0.76820 0.37850 0.00790 -0.15300
C 	C 	0.87840 0.26840 0.00740 -0.08900
C 	C 	0.73440 0.22910 0.97510 0.14700
H 	H 	0.69320 0.18540 0.95930 0.00100
C 	C 	0.00930 0.23180 0.02410 0.28100
C 	C 	0.57540 0.50620 0.84060 0.10200
H 	H 	0.58910 0.41950 0.84980 -0.00200
C 	C 	0.58880 0.55220 0.77210 -0.14800
H 	H 	0.61190 0.49720 0.73590 0.08400
C 	C 	0.56880 0.67780 0.75600 0.08500
C 	C 	0.53800 0.74970 0.81320 -0.13800
H 	H 	0.52440 0.83650 0.80590 0.09100
C 	C 	0.52730 0.69560 0.87980 0.08900
H 	H 	0.50630 0.74650 0.91770 0.03700
C 	C 	0.58490 0.73120 0.68320 -0.00900
C 	C 	0.57270 0.67410 0.63190 -0.03700
H 	H 	0.55130 0.60150 0.64350 0.04300
C 	C 	0.59150 0.72130 0.56190 -0.04400
H 	H 	0.58060 0.68130 0.52700 0.04500
C 	C 	0.62550 0.82560 0.54320 0.00000
C 	C 	0.63460 0.88150 0.59550 -0.04300
H 	H 	0.65390 0.95520 0.58490 0.05400
C 	C 	0.61630 0.83380 0.66450 -0.03700
H 	H 	0.62610 0.87450 0.69940 0.05000
C 	C 	0.65670 0.86640 0.46800 0.07500
C 	C 	0.62270 0.82500 0.41620 -0.11000
H 	H 	0.57250 0.77410 0.42970 0.06800
C 	C 	0.65930 0.85530 0.34650 0.03200
H 	H 	0.63450 0.82530 0.31280 0.01900
C 	C 	0.73300 0.93010 0.32520 -0.09900
C 	C 	0.76090 0.97420 0.37630 0.11300
H 	H 	0.80750 0.02850 0.36290 -0.03500
C 	C 	0.72470 0.94400 0.44670 -0.14600
H 	H 	0.74690 0.97700 0.48020 0.09000
C 	C 	0.78650 0.95280 0.25080 0.15100
C 	C 	0.72600 0.95580 0.19730 -0.18100
H 	H 	0.64490 0.94580 0.20870 0.09500
C 	C 	0.78320 0.97320 0.12810 0.10900
H 	H 	0.73790 0.97880 0.09320 -0.02400
C 	C 	0.90970 0.96000 0.22790 -0.22100
H 	H 	0.95850 0.95490 0.26110 0.12500
C 	C 	0.96060 0.97450 0.15780 0.21800
H 	H 	0.04440 0.97920 0.14410 -0.07100
C 	C 	0.88440 0.56800 0.87060 0.11900
H 	H 	0.81920 0.63310 0.89900 0.02800
C 	C 	0.87970 0.57370 0.80210 -0.17500
H 	H 	0.81430 0.64310 0.78400 0.10000
C 	C 	0.96950 0.47900 0.75900 0.17400
C 	C 	0.06110 0.38020 0.79140 -0.21800
H 	H 	0.12430 0.31070 0.76540 0.10300
C 	C 	0.05980 0.38360 0.85990 0.07600
H 	H 	0.12330 0.31550 0.88010 0.02500
C 	C 	0.97280 0.48270 0.68390 -0.06400
C 	C 	0.93610 0.59910 0.64570 0.07700
H 	H 	0.90330 0.67500 0.66920 0.01300
C 	C 	0.94690 0.60520 0.57470 -0.20800
H 	H 	0.92240 0.68520 0.55000 0.11100
C 	C 	0.99280 0.49640 0.53870 0.28300
C 	C 	0.01590 0.38930 0.57690 -0.28200
H 	H 	0.04140 0.31340 0.55460 0.11600
C 	C 	0.00440 0.38340 0.64850 0.04000
H 	H 	0.02020 0.30360 0.67320 0.00600
Co	Co	0.50000 0.50000 -0.00000 1.09700
Co	Co	-0.00000 0.50000 -0.00000 1.10500
Co	Co	-0.00000 0.00000 -0.00000 1.05500
