data_crystal

_cell_length_a 9.43300
_cell_length_b 16.26400
_cell_length_c 24.12400
_cell_angle_alpha 108.31200
_cell_angle_beta  90.00000
_cell_angle_gamma 90.00000

_symmetry_space_group_name_	'P 1'
_symmetry_space_group_name_H-M	'P 1'

loop_
_symmetry_equiv_pos_as_xyz
  x,y,z

loop_
_atom_site_label
_atom_site_type_symbol
_atom_site_fract_x
_atom_site_fract_y
_atom_site_fract_z
_atom_site_charge
Ca	Ca	0.99415 0.50000 0.75000 1.51400
Ca	Ca	-0.00000 0.50000 0.50000 1.44500
Ca	Ca	-0.00000 0.00000 -0.00000 1.42700
Ca	Ca	-0.00000 0.50000 -0.00000 1.43500
Ca	Ca	0.00585 0.50000 0.25000 1.47800
Ca	Ca	-0.00000 0.00000 0.50000 1.43500
Ce	Ce	0.50883 0.70229 0.40331 2.14200
Ce	Ce	0.50883 0.29771 0.09669 2.13600
Ce	Ce	0.49117 0.29771 0.59669 2.14200
Ce	Ce	0.49117 0.70229 0.90331 2.14900
H 	H 	0.36700 0.57500 0.03300 -0.01600
H 	H 	0.58500 0.17200 0.81700 0.04200
H 	H 	0.13600 0.36300 0.69000 0.45800
H 	H 	0.28110 0.29020 0.30410 0.02000
H 	H 	0.47200 0.97600 0.36400 0.12300
H 	H 	0.00200 0.63000 0.29100 -0.05300
H 	H 	0.32100 0.90300 0.12700 0.04500
H 	H 	0.71100 0.63600 0.14300 0.03300
H 	H 	0.52800 0.02400 0.63600 -0.02100
H 	H 	0.58500 0.82800 0.68300 0.05000
H 	H 	0.47200 0.02400 0.13600 -0.02700
H 	H 	0.37000 0.97900 0.93400 0.10100
H 	H 	0.67900 0.09700 0.87300 0.02200
H 	H 	0.71890 0.70980 0.69590 0.06300
H 	H 	0.37000 0.02100 0.56600 -0.05900
H 	H 	0.28110 0.70980 0.19590 0.02200
H 	H 	0.37700 0.87500 0.74600 0.04800
H 	H 	0.53360 0.68210 0.09310 0.06500
H 	H 	0.37700 0.12500 0.75400 0.02600
H 	H 	0.28900 0.36400 0.85700 0.01100
H 	H 	0.99800 0.63000 0.79100 0.45400
H 	H 	0.62300 0.87500 0.24600 0.06600
H 	H 	0.67900 0.90300 0.62700 0.07300
H 	H 	0.63000 0.97900 0.43400 0.09300
H 	H 	0.13600 0.63700 0.81000 0.45700
H 	H 	0.63300 0.42500 0.96700 0.04000
H 	H 	0.46640 0.31790 0.90690 0.06000
H 	H 	0.71890 0.29020 0.80410 0.06200
H 	H 	0.46640 0.68210 0.59310 0.06000
H 	H 	0.86400 0.63700 0.31000 0.22400
H 	H 	0.32100 0.09700 0.37300 -0.01000
H 	H 	0.41500 0.17200 0.31700 0.03500
H 	H 	0.86400 0.36300 0.19000 0.22000
H 	H 	0.99800 0.37000 0.70900 0.45700
H 	H 	0.28900 0.63600 0.64300 0.00600
H 	H 	0.62300 0.12500 0.25400 0.04400
H 	H 	0.71100 0.36400 0.35700 0.03700
H 	H 	0.53360 0.31790 0.40690 0.06600
H 	H 	0.00200 0.37000 0.20900 -0.05900
H 	H 	0.63300 0.57500 0.53300 0.01900
H 	H 	0.36700 0.42500 0.46700 0.00500
H 	H 	0.52800 0.97600 0.86400 0.12200
H 	H 	0.63000 0.02100 0.06600 -0.06200
H 	H 	0.41500 0.82800 0.18300 0.04300
C 	C 	0.68840 0.83370 0.34080 0.30500
C 	C 	0.28650 0.52620 0.83800 0.36400
C 	C 	0.29480 0.36150 0.21640 0.37600
C 	C 	0.55930 0.79590 0.71140 -0.02900
C 	C 	0.53080 0.97300 0.60170 0.04200
C 	C 	0.38320 0.29480 0.23170 -0.07000
C 	C 	0.61680 0.70520 0.76830 -0.03900
C 	C 	0.35600 0.73320 0.22100 -0.00700
C 	C 	0.37710 0.40260 0.87230 0.02000
C 	C 	0.68840 0.16630 0.15920 0.31500
C 	C 	0.57940 0.10400 0.48890 -0.07100
C 	C 	0.42620 0.03110 0.94000 -0.10300
C 	C 	0.61150 0.83420 0.54270 -0.03300
C 	C 	0.55340 0.17110 0.25100 -0.01800
C 	C 	0.42750 0.20140 0.70430 -0.04200
C 	C 	0.38850 0.16580 0.45730 -0.08700
C 	C 	0.47210 0.62580 0.59460 -0.08600
C 	C 	0.55340 0.82890 0.24900 -0.02000
C 	C 	0.42310 0.57030 0.06340 0.02400
C 	C 	0.42010 0.48670 0.06650 -0.12500
C 	C 	0.64400 0.26680 0.77900 -0.01200
C 	C 	0.31300 0.88570 0.46370 0.41600
C 	C 	0.62290 0.59740 0.12770 0.02300
C 	C 	0.31360 0.42070 0.03360 0.40500
C 	C 	0.38850 0.83420 0.04270 -0.04100
C 	C 	0.31160 0.83370 0.84080 0.31700
C 	C 	0.62430 0.90460 0.59290 -0.05600
C 	C 	0.44660 0.82890 0.74900 -0.01900
C 	C 	0.52790 0.37420 0.40540 -0.08200
C 	C 	0.38770 0.48730 0.87150 -0.08300
C 	C 	0.42060 0.89600 0.51110 -0.11700
C 	C 	0.42750 0.79860 0.79570 -0.03000
C 	C 	0.57690 0.42970 0.93660 0.01000
C 	C 	0.53080 0.02700 0.89830 -0.14000
C 	C 	0.44070 0.20410 0.28860 -0.05100
C 	C 	0.68700 0.11430 0.53630 0.38700
C 	C 	0.57940 0.89600 0.01110 -0.17000
C 	C 	0.57380 0.03110 0.44000 -0.07100
C 	C 	0.61230 0.51270 0.12850 -0.08000
C 	C 	0.68640 0.57930 0.96640 0.39000
C 	C 	0.52790 0.62580 0.09460 -0.10100
C 	C 	0.28650 0.47380 0.66200 0.36300
C 	C 	0.61230 0.48730 0.37150 -0.07200
C 	C 	0.57690 0.57030 0.56340 0.01800
C 	C 	0.57380 0.96890 0.06000 0.10600
C 	C 	0.57990 0.51330 0.93350 -0.07400
C 	C 	0.68700 0.88570 0.96370 0.47200
C 	C 	0.71350 0.52620 0.33800 0.35600
C 	C 	0.44070 0.79590 0.21140 -0.04100
C 	C 	0.42010 0.51330 0.43350 -0.10700
C 	C 	0.38770 0.51270 0.62850 -0.09100
C 	C 	0.70640 0.24400 0.97070 0.38500
C 	C 	0.61150 0.16580 0.95730 -0.07400
C 	C 	0.47210 0.37420 0.90540 -0.06600
C 	C 	0.42060 0.10400 0.98890 -0.00900
C 	C 	0.68640 0.42070 0.53360 0.39300
C 	C 	0.61680 0.29480 0.73170 -0.04300
C 	C 	0.57990 0.48670 0.56650 -0.09200
C 	C 	0.42620 0.96890 0.56000 0.08400
C 	C 	0.44660 0.17110 0.75100 -0.01700
C 	C 	0.70640 0.75600 0.52930 0.29700
C 	C 	0.38320 0.70520 0.26830 -0.06500
C 	C 	0.37570 0.90460 0.09290 -0.06600
C 	C 	0.31300 0.11430 0.03630 0.32500
C 	C 	0.46920 0.02700 0.39830 -0.16500
C 	C 	0.42310 0.42970 0.43660 0.01600
C 	C 	0.29480 0.63850 0.28360 0.37700
C 	C 	0.35600 0.26680 0.27900 -0.00800
C 	C 	0.57250 0.79860 0.29570 -0.02500
C 	C 	0.55930 0.20410 0.78860 -0.03800
C 	C 	0.70520 0.36150 0.71640 0.37100
C 	C 	0.31360 0.57930 0.46640 0.40200
C 	C 	0.37710 0.59740 0.62770 0.02400
C 	C 	0.37570 0.09540 0.40710 0.02000
C 	C 	0.64400 0.73320 0.72100 -0.01100
C 	C 	0.62290 0.40260 0.37230 0.01900
C 	C 	0.71350 0.47380 0.16200 0.35600
C 	C 	0.29360 0.75600 0.02930 0.22000
C 	C 	0.29360 0.24400 0.47070 0.31100
C 	C 	0.46920 0.97300 0.10170 0.03200
C 	C 	0.31160 0.16630 0.65920 0.32800
C 	C 	0.70520 0.63850 0.78360 0.37200
C 	C 	0.57250 0.20140 0.20430 -0.03600
C 	C 	0.62430 0.09540 0.90710 0.02300
N 	N 	0.48610 0.54170 0.90220 -0.19000
N 	N 	0.48700 0.83050 0.00190 -0.20800
N 	N 	0.51060 0.26200 0.69440 -0.19700
N 	N 	0.51390 0.54170 0.40220 -0.19000
N 	N 	0.51300 0.83050 0.50190 -0.19400
N 	N 	0.48700 0.16950 0.49810 -0.19400
N 	N 	0.51390 0.45830 0.09780 -0.18900
N 	N 	0.51300 0.16950 0.99810 -0.18100
N 	N 	0.48940 0.26200 0.19440 -0.19800
N 	N 	0.51060 0.73800 0.80560 -0.19800
N 	N 	0.48610 0.45830 0.59780 -0.18900
N 	N 	0.48940 0.73800 0.30560 -0.19800
O 	O 	0.07670 0.65090 0.79070 -1.08000
O 	O 	0.21110 0.25000 0.43180 -0.35300
O 	O 	0.92330 0.65090 0.29070 -0.34100
O 	O 	0.77360 0.88550 0.33210 -0.22700
O 	O 	0.68560 0.19300 0.11465 -0.45700
O 	O 	0.79730 0.40070 0.75129 -0.42600
O 	O 	0.80910 0.51940 0.19075 -0.40700
O 	O 	0.80910 0.48060 0.30925 -0.40600
O 	O 	0.77360 0.11450 0.16790 -0.26700
O 	O 	0.69290 0.29920 0.02080 -0.52200
O 	O 	0.92330 0.34910 0.20930 -0.33800
O 	O 	0.78890 0.75000 0.56820 -0.25800
O 	O 	0.79730 0.59930 0.74871 -0.42500
O 	O 	0.32190 0.37240 0.16788 -0.50500
O 	O 	0.33170 0.34390 0.03490 -0.52800
O 	O 	0.19090 0.48060 0.80925 -0.49400
O 	O 	0.68560 0.80700 0.38535 -0.43500
O 	O 	0.33170 0.65610 0.46510 -0.50300
O 	O 	0.21780 0.94070 0.47140 -0.54400
O 	O 	0.30830 0.60500 0.84270 -0.52300
O 	O 	0.21760 0.44410 0.00709 -0.61600
O 	O 	0.22640 0.88550 0.83210 -0.29200
O 	O 	0.22640 0.11450 0.66790 -0.33700
O 	O 	0.20270 0.59930 0.24871 -0.47000
O 	O 	0.32770 0.82110 0.41858 -0.49400
O 	O 	0.20270 0.40070 0.25129 -0.47100
O 	O 	0.66830 0.65610 0.96510 -0.44300
O 	O 	0.21780 0.05930 0.02860 -0.61200
O 	O 	0.67230 0.82110 0.91858 -0.45800
O 	O 	0.30710 0.29920 0.52080 -0.49500
O 	O 	0.21110 0.75000 0.06820 -0.33200
O 	O 	0.69290 0.70080 0.47920 -0.44900
O 	O 	0.78220 0.94070 0.97140 -0.45000
O 	O 	0.67810 0.37240 0.66788 -0.47900
O 	O 	0.07670 0.34910 0.70930 -1.09000
O 	O 	0.78240 0.55590 0.99291 -0.47000
O 	O 	0.31440 0.80700 0.88535 -0.45800
O 	O 	0.21760 0.55590 0.49291 -0.58600
O 	O 	0.69170 0.60500 0.34270 -0.48100
O 	O 	0.30710 0.70080 0.97920 -0.41800
O 	O 	0.78890 0.25000 0.93180 -0.27600
O 	O 	0.78240 0.44410 0.50709 -0.50200
O 	O 	0.69170 0.39500 0.15730 -0.48300
O 	O 	0.67230 0.17890 0.58142 -0.46000
O 	O 	0.32770 0.17890 0.08142 -0.49600
O 	O 	0.32190 0.62760 0.33212 -0.50200
O 	O 	0.19090 0.51940 0.69075 -0.49700
O 	O 	0.67810 0.62760 0.83212 -0.47600
O 	O 	0.66830 0.34390 0.53490 -0.46700
O 	O 	0.30830 0.39500 0.65730 -0.52600
O 	O 	0.31440 0.19300 0.61465 -0.48300
O 	O 	0.78220 0.05930 0.52860 -0.51500
