data_crystal

_cell_length_a 10.17190
_cell_length_b 11.55570
_cell_length_c 15.20810
_cell_angle_alpha 106.02100
_cell_angle_beta  109.25100
_cell_angle_gamma 90.59700

_symmetry_space_group_name_	'P 1'
_symmetry_space_group_name_H-M	'P 1'

loop_
_symmetry_equiv_pos_as_xyz
  x,y,z

loop_
_atom_site_label
_atom_site_type_symbol
_atom_site_fract_x
_atom_site_fract_y
_atom_site_fract_z
_atom_site_charge
Ba	Ba	0.59341 0.75256 0.34017 1.92000
Ba	Ba	0.88854 0.32830 0.88423 1.81700
Ba	Ba	0.40660 0.24744 0.65983 1.92000
Ba	Ba	0.11146 0.67170 0.11577 1.81700
Ce	Ce	0.63582 0.79084 0.77042 2.13900
Ce	Ce	0.36418 0.20916 0.22958 2.13900
H 	H 	0.60610 0.90250 0.13750 0.00000
H 	H 	0.87820 0.42350 0.19980 0.01700
H 	H 	0.09950 0.87510 0.87540 0.03000
H 	H 	0.59100 0.20900 0.87900 0.43300
H 	H 	0.77030 0.50670 0.55130 0.03200
H 	H 	0.66700 0.43900 0.71200 0.36100
H 	H 	0.01020 0.71850 0.57630 0.04000
H 	H 	0.79210 0.05630 0.21720 0.06900
H 	H 	0.41200 0.87900 0.19700 0.40000
H 	H 	0.90050 0.12490 0.12460 0.03000
H 	H 	0.20790 0.94370 0.78280 0.06900
H 	H 	0.84290 0.15690 0.50890 0.02300
H 	H 	0.83590 0.38610 0.33160 0.05900
H 	H 	0.40900 0.79100 0.12100 0.43300
H 	H 	0.98980 0.28150 0.42370 0.04000
H 	H 	0.39390 0.09750 0.86250 0.00000
H 	H 	0.12180 0.57650 0.80020 0.01700
H 	H 	0.22970 0.49330 0.44870 0.03200
H 	H 	0.27500 0.65400 0.32600 0.35100
H 	H 	0.33300 0.56100 0.28800 0.36100
H 	H 	0.09240 0.63890 0.39820 0.07700
H 	H 	0.90760 0.36110 0.60180 0.07700
H 	H 	0.72500 0.34600 0.67400 0.35100
H 	H 	0.58800 0.12100 0.80300 0.40000
H 	H 	0.15710 0.84310 0.49110 0.02300
H 	H 	0.16410 0.61390 0.66840 0.05900
C 	C 	0.22940 0.19280 0.40331 0.35600
C 	C 	0.65260 0.92980 0.10240 0.02600
C 	C 	0.32380 0.81060 0.59570 -0.08200
C 	C 	0.79170 0.21720 0.48940 -0.00300
C 	C 	0.21870 0.99260 0.00480 -0.08700
C 	C 	0.94280 0.65650 0.78110 -0.09100
C 	C 	0.78130 0.00740 0.99520 -0.08700
C 	C 	0.84560 0.04580 0.92968 0.35100
C 	C 	0.37190 0.93870 0.66282 0.34500
C 	C 	0.15440 0.95420 0.07032 0.35100
C 	C 	0.82900 0.33880 0.54520 -0.11300
C 	C 	0.46360 0.52260 0.60662 0.35600
C 	C 	0.08610 0.64020 0.68380 -0.07800
C 	C 	0.63220 0.38860 0.43036 -0.07500
C 	C 	0.50020 0.22790 0.05450 0.33500
C 	C 	0.00540 0.29760 0.37110 0.00500
C 	C 	0.99460 0.70240 0.62890 0.00500
C 	C 	0.17100 0.66120 0.45480 -0.11300
C 	C 	0.67620 0.18940 0.40430 -0.08200
C 	C 	0.49980 0.77210 0.94550 0.33500
C 	C 	0.17250 0.93760 0.90490 0.02600
C 	C 	0.77060 0.80720 0.59669 0.35600
C 	C 	0.23740 0.97780 0.85010 -0.10000
C 	C 	0.25230 0.57460 0.48480 0.00400
C 	C 	0.87910 0.74060 0.65362 -0.06400
C 	C 	0.05720 0.34350 0.21890 -0.09100
C 	C 	0.06090 0.61730 0.76180 0.02400
C 	C 	0.38710 0.12120 0.99708 -0.08100
C 	C 	0.61290 0.87880 0.00292 -0.08100
C 	C 	0.36780 0.61140 0.56964 -0.07500
C 	C 	0.90250 0.63510 0.86349 0.38500
C 	C 	0.62810 0.06130 0.33718 0.34500
C 	C 	0.34740 0.07020 0.89760 0.02600
C 	C 	0.20830 0.78280 0.51060 -0.00300
C 	C 	0.53640 0.47740 0.39338 0.35600
C 	C 	0.12090 0.25940 0.34638 -0.06400
C 	C 	0.93910 0.38270 0.23820 0.02400
C 	C 	0.09750 0.36490 0.13651 0.38500
C 	C 	0.91390 0.35980 0.31620 -0.07800
C 	C 	0.76260 0.02220 0.14990 -0.10000
C 	C 	0.74770 0.42540 0.51520 0.00400
C 	C 	0.82750 0.06240 0.09510 0.02600
N 	N 	0.59810 0.27350 0.37548 -0.20300
N 	N 	0.67710 0.91700 0.94999 -0.19500
N 	N 	0.85460 0.71782 0.72887 -0.19600
N 	N 	0.32290 0.08300 0.05001 -0.19500
N 	N 	0.40190 0.72650 0.62452 -0.20300
N 	N 	0.13600 0.31010 0.72820 0.07200
N 	N 	0.86400 0.68990 0.27180 0.07200
N 	N 	0.14540 0.28218 0.27113 -0.19600
O 	O 	0.81100 0.97497 0.84312 -0.49100
O 	O 	0.77810 0.75227 0.22986 -0.29700
O 	O 	0.60700 0.19471 0.82852 -1.07600
O 	O 	0.30360 0.62761 0.28023 -0.98100
O 	O 	0.92400 0.14214 0.96319 -0.44800
O 	O 	0.39300 0.80529 0.17148 -1.07600
O 	O 	0.02700 0.42897 0.08844 -0.58100
O 	O 	0.48760 0.72517 0.85665 -0.46800
O 	O 	0.97300 0.57103 0.91156 -0.58100
O 	O 	0.30010 0.02050 0.64337 -0.43700
O 	O 	0.57590 0.56910 0.67785 -0.52400
O 	O 	0.56900 0.26211 0.01073 -0.35000
O 	O 	0.42410 0.43090 0.32215 -0.52400
O 	O 	0.21100 0.17026 0.47412 -0.42600
O 	O 	0.79711 0.68414 0.87636 -0.52200
O 	O 	0.51553 0.04739 0.26494 -0.53000
O 	O 	0.18900 0.02503 0.15688 -0.49100
O 	O 	0.69640 0.37239 0.71977 -0.98100
O 	O 	0.84460 0.65600 0.33823 -0.28800
O 	O 	0.69990 0.97950 0.35663 -0.43700
O 	O 	0.07600 0.85786 0.03681 -0.44800
O 	O 	0.96790 0.66159 0.24701 -0.30600
O 	O 	0.15540 0.34400 0.66177 -0.28800
O 	O 	0.33020 0.16596 0.37363 -0.50400
O 	O 	0.51240 0.27483 0.14335 -0.46800
O 	O 	0.48447 0.95261 0.73506 -0.53000
O 	O 	0.43100 0.73789 0.98927 -0.35000
O 	O 	0.20289 0.31586 0.12364 -0.52200
O 	O 	0.42570 0.41292 0.56598 -0.45600
O 	O 	0.22190 0.24773 0.77014 -0.29700
O 	O 	0.03210 0.33841 0.75299 -0.30600
O 	O 	0.78900 0.82974 0.52588 -0.42600
O 	O 	0.66980 0.83404 0.62637 -0.50400
O 	O 	0.57430 0.58708 0.43402 -0.45600
