data_crystal

_cell_length_a 12.62050
_cell_length_b 16.55830
_cell_length_c 16.55830
_cell_angle_alpha 66.22290
_cell_angle_beta  75.28210
_cell_angle_gamma 104.71800

_symmetry_space_group_name_	'P 1'
_symmetry_space_group_name_H-M	'P 1'

loop_
_symmetry_equiv_pos_as_xyz
  x,y,z

loop_
_atom_site_label
_atom_site_type_symbol
_atom_site_fract_x
_atom_site_fract_y
_atom_site_fract_z
_atom_site_charge
Ba	Ba	0.29397 0.29397 0.41206 2.02500
Ba	Ba	0.00000 0.70603 0.70603 1.89800
Ba	Ba	0.70603 0.41206 0.29397 2.04900
Ba	Ba	0.29397 0.58794 0.70603 2.03600
Ba	Ba	0.70603 0.70603 0.58794 2.05900
Ba	Ba	0.00000 0.29397 0.29397 1.89000
Co	Co	0.26836 0.38167 -0.00000 1.11800
Co	Co	0.73164 0.61833 -0.00000 1.12200
Co	Co	0.11331 0.38167 0.61833 1.11000
Co	Co	0.26836 0.00000 0.61833 1.12100
Co	Co	0.73164 0.00000 0.38167 1.12600
Co	Co	0.88669 0.61833 0.38167 1.15300
H 	H 	0.96410 0.93980 0.83500 0.19400
H 	H 	0.03590 0.83500 0.93980 -0.00300
H 	H 	0.13030 0.63060 0.58070 0.39500
H 	H 	0.21550 0.79890 0.14920 0.05200
H 	H 	0.52400 0.80400 0.54600 0.42100
H 	H 	0.41660 0.05190 0.79890 0.06500
H 	H 	0.97570 0.77480 0.06020 0.02700
H 	H 	0.79910 0.77480 0.16500 0.05300
H 	H 	0.52400 0.45400 0.19600 0.41700
H 	H 	0.36470 0.94810 0.85080 0.08700
H 	H 	0.28000 0.80400 0.65000 0.41800
H 	H 	0.55840 0.20070 0.04910 0.05600
H 	H 	0.60750 0.04910 0.75020 0.05700
H 	H 	0.93000 0.45400 0.35000 0.43700
H 	H 	0.20090 0.16500 0.77480 0.05300
H 	H 	0.58340 0.94810 0.20110 0.08300
H 	H 	0.79910 0.83500 0.22520 0.05500
H 	H 	0.39250 0.75020 0.04910 0.05900
H 	H 	0.71100 0.58070 0.78870 0.40700
H 	H 	0.78450 0.14920 0.79890 0.05500
H 	H 	0.36470 0.14920 0.05190 0.06200
H 	H 	0.86970 0.36940 0.41930 0.41400
H 	H 	0.41660 0.20110 0.94810 0.09200
H 	H 	0.97570 0.93980 0.22520 0.04000
H 	H 	0.35770 0.79930 0.24980 0.04700
H 	H 	0.60750 0.24980 0.95090 0.08900
H 	H 	0.86970 0.58070 0.63060 0.41400
H 	H 	0.78450 0.20110 0.85080 0.05900
H 	H 	0.44160 0.79930 0.95090 0.08900
H 	H 	0.47600 0.19600 0.45400 0.41600
H 	H 	0.07000 0.35000 0.45400 0.39200
H 	H 	0.28900 0.78870 0.58070 0.40500
H 	H 	0.63530 0.05190 0.14920 0.06100
H 	H 	0.03590 0.06020 0.16500 -0.03300
H 	H 	0.21550 0.85080 0.20110 0.05600
H 	H 	0.28000 0.35000 0.19600 0.41400
H 	H 	0.49970 0.36940 0.21130 0.40500
H 	H 	0.39250 0.95090 0.24980 0.07500
H 	H 	0.64230 0.20070 0.75020 0.04700
H 	H 	0.47600 0.54600 0.80400 0.42000
H 	H 	0.44160 0.04910 0.20070 0.05300
H 	H 	0.55840 0.95090 0.79930 0.07800
H 	H 	0.49970 0.78870 0.63060 0.41000
H 	H 	0.02430 0.22520 0.93980 0.13100
H 	H 	0.20090 0.22520 0.83500 0.05700
H 	H 	0.07000 0.54600 0.65000 0.39200
H 	H 	0.93000 0.65000 0.54600 0.43700
H 	H 	0.28900 0.41930 0.21130 0.40100
H 	H 	0.72000 0.65000 0.80400 0.41800
H 	H 	0.13030 0.41930 0.36940 0.39500
H 	H 	0.50030 0.21130 0.36940 0.40500
H 	H 	0.71100 0.21130 0.41930 0.40300
H 	H 	0.35770 0.75020 0.20070 0.04600
H 	H 	0.02430 0.06020 0.77480 0.11400
H 	H 	0.50030 0.63060 0.78870 0.41000
H 	H 	0.72000 0.19600 0.35000 0.41400
H 	H 	0.64230 0.24980 0.79930 0.04800
H 	H 	0.63530 0.85080 0.94810 0.10200
H 	H 	0.96410 0.16500 0.06020 0.16100
H 	H 	0.58340 0.79890 0.05190 0.07000
C 	C 	0.41555 0.73185 -0.00000 -0.13900
C 	C 	0.68905 0.59471 0.31476 0.37000
C 	C 	0.83260 0.21250 0.78750 -0.10300
C 	C 	0.12865 0.00000 0.29965 0.01700
C 	C 	0.79640 0.77565 0.22435 -0.09600
C 	C 	0.37990 0.00000 0.78750 -0.16600
C 	C 	0.58445 0.26815 -0.00000 -0.13300
C 	C 	0.41904 0.29908 0.09216 0.35100
C 	C 	0.00381 0.90947 0.68524 0.22600
C 	C 	0.47545 0.29155 -0.00000 -0.15000
C 	C 	0.11996 0.60876 0.29908 0.35900
C 	C 	0.90566 0.90947 0.40529 0.46900
C 	C 	0.97925 0.00000 0.22435 0.04200
C 	C 	0.68370 0.26815 0.73185 -0.07100
C 	C 	0.42830 0.29965 0.70035 0.01300
C 	C 	0.58445 0.00000 0.73185 -0.11500
C 	C 	0.58096 0.70092 0.90784 0.37600
C 	C 	0.00420 0.68910 -0.00000 -0.37500
C 	C 	0.62010 -0.00000 0.21250 -0.16800
C 	C 	0.52455 0.70845 -0.00000 -0.14600
C 	C 	0.00381 0.31476 0.09053 0.21900
C 	C 	0.57170 0.70035 0.29965 0.01300
C 	C 	0.87135 0.29965 -0.00000 -0.02300
C 	C 	0.02075 0.22435 -0.00000 -0.36400
C 	C 	0.18390 0.70845 0.29155 -0.15700
C 	C 	0.99580 0.31090 -0.00000 -0.01500
C 	C 	0.81610 0.29155 0.70845 -0.14900
C 	C 	0.31510 0.31090 0.68910 -0.18400
C 	C 	0.48880 0.60876 0.09216 0.35000
C 	C 	0.09434 0.40529 0.90947 0.31500
C 	C 	0.68905 0.68524 0.40529 0.37100
C 	C 	0.87135 0.00000 0.70035 -0.01700
C 	C 	0.41904 0.90784 0.70092 0.37200
C 	C 	0.31630 0.73185 0.26815 -0.07000
C 	C 	0.99619 0.09053 0.31476 0.52000
C 	C 	0.37990 0.21250 -0.00000 -0.18400
C 	C 	0.47545 0.00000 0.70845 -0.14900
C 	C 	0.11996 0.70092 0.39124 0.36000
C 	C 	0.00420 0.00000 0.31090 -0.37000
C 	C 	0.88004 0.39124 0.70092 0.35400
C 	C 	0.97925 0.77565 -0.00000 0.03200
C 	C 	0.51120 0.39124 0.90784 0.37700
C 	C 	0.31095 0.31476 0.59471 0.37300
C 	C 	0.99580 0.00000 0.68910 0.00300
C 	C 	0.58096 0.09216 0.29908 0.35100
C 	C 	0.90566 0.59471 0.09053 0.44800
C 	C 	0.12865 0.70035 -0.00000 0.01700
C 	C 	0.41555 0.00000 0.26815 -0.11900
C 	C 	0.88004 0.29908 0.60876 0.35200
C 	C 	0.20360 0.22435 0.77565 -0.12000
C 	C 	0.51120 0.09216 0.60876 0.35200
C 	C 	0.02075 0.00000 0.77565 -0.37200
C 	C 	0.31095 0.40529 0.68524 0.37300
C 	C 	0.52455 0.00000 0.29155 -0.15000
C 	C 	0.16740 0.78750 0.21250 -0.13100
C 	C 	0.48880 0.90784 0.39124 0.37100
C 	C 	0.68490 0.68910 0.31090 -0.18500
C 	C 	0.09434 0.09053 0.59471 0.28400
C 	C 	0.99619 0.68524 0.90947 0.55600
C 	C 	0.62010 0.78750 -0.00000 -0.18900
O 	O 	0.92053 0.31864 0.14505 -0.36800
O 	O 	0.21638 0.31514 0.58120 -0.57400
O 	O 	0.32502 0.89873 0.68347 -0.49900
O 	O 	0.61536 0.43580 0.85052 -0.35200
O 	O 	0.06558 0.14505 0.53631 -0.45100
O 	O 	0.57371 0.58220 0.10127 -0.50900
O 	O 	0.53412 0.71368 0.85052 -0.35400
O 	O 	0.79758 0.89634 0.41880 -0.58000
O 	O 	0.60189 0.68136 0.46369 -0.45600
O 	O 	0.10922 0.36119 0.40033 -1.07200
O 	O 	0.06558 0.46369 0.85495 -0.44900
O 	O 	0.93442 0.53631 0.14505 -0.45400
O 	O 	0.67498 0.10127 0.31653 -0.50400
O 	O 	0.39811 0.46369 0.68136 -0.45600
O 	O 	0.67498 0.68347 0.89873 -0.49100
O 	O 	0.25197 0.76152 0.63881 -1.08000
O 	O 	0.50955 0.76152 0.59967 -1.09500
O 	O 	0.09876 0.89634 0.68486 -0.52000
O 	O 	0.92053 0.85495 0.68136 -0.35800
O 	O 	0.53412 0.14948 0.28632 -0.35700
O 	O 	0.90124 0.68486 0.89634 -0.57200
O 	O 	0.82044 0.28632 0.56420 -0.34500
O 	O 	0.38464 0.85052 0.43580 -0.35700
O 	O 	0.50955 0.40033 0.23848 -1.09100
O 	O 	0.89078 0.40033 0.36119 -1.07700
O 	O 	0.17956 0.56420 0.28632 -0.36500
O 	O 	0.42629 0.10127 0.58220 -0.50900
O 	O 	0.99151 0.31653 0.58220 -0.46600
O 	O 	0.09876 0.31514 0.10366 -0.53200
O 	O 	0.46588 0.28632 0.14948 -0.35700
O 	O 	0.78362 0.68486 0.41880 -0.55900
O 	O 	0.38464 0.56420 0.14948 -0.35700
O 	O 	0.00849 0.58220 0.31653 -0.54400
O 	O 	0.07947 0.68136 0.85495 -0.52100
O 	O 	0.90124 0.10366 0.31514 -0.58300
O 	O 	0.60189 0.53631 0.31864 -0.45600
O 	O 	0.20242 0.10366 0.58120 -0.54500
O 	O 	0.99151 0.41780 0.68347 -0.46400
O 	O 	0.49045 0.59967 0.76152 -1.09500
O 	O 	0.93442 0.85495 0.46369 -0.45000
O 	O 	0.42629 0.41780 0.89873 -0.49800
O 	O 	0.39811 0.31864 0.53631 -0.45600
O 	O 	0.46588 0.85052 0.71368 -0.35400
O 	O 	0.89078 0.63881 0.59967 -1.07700
O 	O 	0.20242 0.41880 0.89634 -0.53700
O 	O 	0.21638 0.41880 0.68486 -0.57500
O 	O 	0.78362 0.58120 0.31514 -0.55800
O 	O 	0.61536 0.14948 0.56420 -0.35300
O 	O 	0.49045 0.23848 0.40033 -1.09100
O 	O 	0.32502 0.31653 0.10127 -0.51000
O 	O 	0.82044 0.43580 0.71368 -0.34300
O 	O 	0.74803 0.63881 0.76152 -1.07100
O 	O 	0.74803 0.23848 0.36119 -1.06800
O 	O 	0.25197 0.36119 0.23848 -1.07700
O 	O 	0.57371 0.89873 0.41780 -0.49900
O 	O 	0.07947 0.14505 0.31864 -0.51900
O 	O 	0.00849 0.68347 0.41780 -0.54400
O 	O 	0.79758 0.58120 0.10366 -0.59000
O 	O 	0.10922 0.59967 0.63881 -1.07200
O 	O 	0.17956 0.71368 0.43580 -0.36400
