data_crystal

_cell_length_a 14.60500
_cell_length_b 14.93100
_cell_length_c 16.94600
_cell_angle_alpha 112.16000
_cell_angle_beta  103.19800
_cell_angle_gamma 100.39000

_symmetry_space_group_name_	'P 1'
_symmetry_space_group_name_H-M	'P 1'

loop_
_symmetry_equiv_pos_as_xyz
  x,y,z

loop_
_atom_site_label
_atom_site_type_symbol
_atom_site_fract_x
_atom_site_fract_y
_atom_site_fract_z
_atom_site_charge
Cd	Cd	0.36024 0.44122 0.59463 1.20100
Cd	Cd	0.63976 0.55878 0.40537 1.20100
Cd	Cd	0.07268 0.12623 0.13401 1.20200
Cd	Cd	0.92732 0.87377 0.86599 1.20200
H 	H 	0.11960 0.46620 0.11740 0.10400
H 	H 	0.87440 0.12480 0.34590 0.03500
H 	H 	0.15120 0.34250 0.15800 -0.03800
H 	H 	0.73330 0.01130 0.65340 0.28500
H 	H 	0.69120 0.31480 0.89220 0.03800
H 	H 	0.12820 0.06450 0.43000 0.10100
H 	H 	0.91010 0.43590 0.94230 0.06600
H 	H 	0.52030 0.86520 0.18060 0.06000
H 	H 	0.91420 0.76800 0.34220 0.10300
H 	H 	0.27600 0.22360 0.05050 0.27900
H 	H 	0.90830 0.14600 0.97760 -0.01600
H 	H 	0.51060 0.00630 0.42860 0.06200
H 	H 	0.87020 0.26450 0.93190 0.10000
H 	H 	0.58340 0.72100 0.14420 0.06100
H 	H 	0.72400 0.77640 0.94950 0.27900
H 	H 	0.41810 0.96230 0.21400 0.04100
H 	H 	0.47160 0.14000 0.39940 0.09700
H 	H 	0.49070 0.52610 0.85080 0.18600
H 	H 	0.35770 0.17340 0.72460 0.06100
H 	H 	0.47970 0.13480 0.81940 0.06000
H 	H 	0.23180 0.61760 0.50520 0.28900
H 	H 	0.52840 0.86000 0.60060 0.09700
H 	H 	0.69980 0.95540 0.41790 0.04000
H 	H 	0.12290 0.93870 0.80910 -0.00900
H 	H 	0.20990 0.46320 0.88310 0.05400
H 	H 	0.99020 0.05740 0.57990 0.06600
H 	H 	0.24540 0.20370 0.45270 -0.01100
H 	H 	0.80020 0.63200 0.32860 -0.01000
H 	H 	0.81530 0.10540 0.45250 0.05700
H 	H 	0.84880 0.65750 0.84200 -0.03800
H 	H 	0.65360 0.55280 0.84860 0.06600
H 	H 	0.18310 0.76460 0.42780 0.08600
H 	H 	0.49630 0.83490 0.35260 0.09200
H 	H 	0.71980 0.31250 0.15480 0.04600
H 	H 	0.72030 0.05560 0.89690 0.04500
H 	H 	0.27120 0.82210 0.41080 0.09100
H 	H 	0.30880 0.68520 0.10780 0.03800
H 	H 	0.89800 0.49580 0.21280 0.03600
H 	H 	0.50370 0.16510 0.64740 0.09200
H 	H 	0.50930 0.47390 0.14920 0.18600
H 	H 	0.26670 0.98870 0.34660 0.28500
H 	H 	0.32360 0.43360 0.28600 0.02300
H 	H 	0.44120 0.29260 0.44370 -0.02000
H 	H 	0.09170 0.85400 0.02240 -0.01600
H 	H 	0.76820 0.38240 0.49480 0.28900
H 	H 	0.67640 0.56640 0.71400 0.02300
H 	H 	0.88040 0.53380 0.88260 0.10400
H 	H 	0.64230 0.82660 0.27540 0.06100
H 	H 	0.16030 0.31140 0.88950 0.05200
H 	H 	0.05100 0.60100 0.29850 0.07500
H 	H 	0.10200 0.50420 0.78720 0.03600
H 	H 	0.87710 0.06130 0.19090 -0.00900
H 	H 	0.81690 0.23540 0.57220 0.08600
H 	H 	0.12980 0.73550 0.06810 0.10000
H 	H 	0.30020 0.04460 0.58210 0.04000
H 	H 	0.55880 0.70740 0.55630 -0.02000
H 	H 	0.94900 0.39900 0.70150 0.07500
H 	H 	0.24370 0.82690 0.95760 0.05500
H 	H 	0.34810 0.53320 0.06440 0.06200
H 	H 	0.34640 0.44720 0.15140 0.06600
H 	H 	0.28020 0.68750 0.84520 0.04600
H 	H 	0.08990 0.56410 0.05770 0.06600
H 	H 	0.48940 0.99370 0.57140 0.06200
H 	H 	0.41660 0.27900 0.85580 0.06100
H 	H 	0.79010 0.53680 0.11690 0.05400
H 	H 	0.65190 0.46680 0.93560 0.06200
H 	H 	0.27970 0.94440 0.10310 0.04500
H 	H 	0.37810 0.33320 0.93460 0.09100
H 	H 	0.47180 0.31900 0.68530 -0.01100
H 	H 	0.75460 0.79630 0.54730 -0.01100
H 	H 	0.12560 0.87520 0.65410 0.03500
H 	H 	0.62190 0.66680 0.06540 0.09100
H 	H 	0.58190 0.03770 0.78600 0.04100
H 	H 	0.73640 0.25230 0.76630 0.07500
H 	H 	0.96650 0.85060 0.16060 0.03500
H 	H 	0.72880 0.17790 0.58920 0.09100
H 	H 	0.52820 0.68100 0.31470 -0.01100
H 	H 	0.87180 0.93550 0.57000 0.10100
H 	H 	0.18470 0.89460 0.54750 0.05700
H 	H 	0.19980 0.36800 0.67140 -0.01000
H 	H 	0.26360 0.74770 0.23370 0.07500
H 	H 	0.00980 0.94260 0.42010 0.06600
H 	H 	0.83970 0.68860 0.11050 0.05200
H 	H 	0.75630 0.17310 0.04240 0.05500
H 	H 	0.08580 0.23200 0.65780 0.10300
H 	H 	0.03350 0.14940 0.83940 0.03500
C 	C 	0.89810 0.10072 0.75215 -0.18600
C 	C 	0.30490 0.49259 0.30231 0.00600
C 	C 	0.71942 0.47215 0.62045 -0.17600
C 	C 	0.82700 0.06490 0.33070 -0.01600
C 	C 	0.98320 0.95410 0.46670 -0.09300
C 	C 	0.20740 0.94660 0.60570 -0.06000
C 	C 	0.99010 0.38000 0.73890 -0.09500
C 	C 	0.68750 0.88660 0.28760 -0.09400
C 	C 	0.47160 0.63570 0.93680 0.18300
C 	C 	0.09150 0.13150 0.54170 0.13500
C 	C 	0.14190 0.12540 0.48027 -0.18500
C 	C 	0.04530 0.71479 0.25980 0.04700
C 	C 	0.88260 0.67160 0.14840 -0.03800
C 	C 	0.16790 0.87416 0.30664 0.22300
C 	C 	0.09360 0.32670 0.11190 0.10600
C 	C 	0.04860 0.78862 0.99373 0.11500
C 	C 	0.51030 0.81090 0.39590 -0.17100
C 	C 	0.83210 0.12584 0.69336 0.22300
C 	C 	0.72090 0.31300 0.78221 -0.09300
C 	C 	0.85970 0.21637 0.68665 -0.07100
C 	C 	0.46450 0.85539 0.13518 -0.07000
C 	C 	0.27730 0.03670 0.62670 -0.00600
C 	C 	0.28100 0.10320 0.78339 0.05300
C 	C 	0.14730 0.41880 0.84800 -0.05600
C 	C 	0.30640 0.64960 0.14230 -0.01600
C 	C 	0.24900 0.61690 0.40278 0.22400
C 	C 	0.84610 0.94385 0.02236 0.39700
C 	C 	0.47090 0.17390 0.45790 -0.18200
C 	C 	0.28058 0.52785 0.37955 -0.17600
C 	C 	0.52910 0.82610 0.54210 -0.18200
C 	C 	0.86630 0.00528 0.76297 0.36500
C 	C 	0.16990 0.99900 0.82492 0.06700
C 	C 	0.20104 0.07304 0.91182 -0.21500
C 	C 	0.83010 0.00100 0.17508 0.06700
C 	C 	0.13370 0.99472 0.23703 0.36500
C 	C 	0.01680 0.04590 0.53330 -0.09300
C 	C 	0.59860 0.72423 0.09231 -0.08900
C 	C 	0.48970 0.18910 0.60410 -0.17100
C 	C 	0.88370 0.77580 0.38580 -0.18900
C 	C 	0.30236 0.54364 0.24668 -0.02200
C 	C 	0.55600 0.22098 0.95419 0.02300
C 	C 	0.21230 0.76460 0.38176 -0.10200
C 	C 	0.91810 0.55680 0.20980 -0.00400
C 	C 	0.99020 0.16662 0.80199 0.02800
C 	C 	0.08190 0.44320 0.79020 -0.00400
C 	C 	0.00990 0.62000 0.26110 -0.09500
C 	C 	0.61160 0.37324 0.13181 -0.14300
C 	C 	0.45260 0.26600 0.48540 0.10500
C 	C 	0.11740 0.32840 0.85160 -0.03800
C 	C 	0.29850 0.83280 0.00210 -0.06700
C 	C 	0.97050 0.45446 0.98614 -0.09000
C 	C 	0.71900 0.89680 0.21661 0.05300
C 	C 	0.40140 0.27577 0.90769 -0.08900
C 	C 	0.52960 0.71795 0.37330 0.09100
C 	C 	0.79310 0.98830 0.24071 -0.05000
C 	C 	0.95470 0.28521 0.74020 0.04700
C 	C 	0.75100 0.38310 0.59722 0.22400
C 	C 	0.70796 0.52423 0.55994 0.31500
C 	C 	0.00980 0.83338 0.19801 0.02800
C 	C 	0.75560 0.33109 0.64992 -0.06500
C 	C 	0.15390 0.05615 0.97764 0.39700
C 	C 	0.27509 0.16450 0.93572 0.24500
C 	C 	0.51170 0.86770 0.48280 0.12800
C 	C 	0.36370 0.55260 0.77150 0.32400
C 	C 	0.78770 0.23540 0.61824 -0.10200
C 	C 	0.90640 0.67330 0.88810 0.10600
C 	C 	0.72270 0.96330 0.37330 -0.00600
C 	C 	0.48830 0.13230 0.51720 0.12800
C 	C 	0.81380 0.69410 0.37740 0.10400
C 	C 	0.49660 0.28668 0.97605 -0.03500
C 	C 	0.29204 0.47577 0.44006 0.31500
C 	C 	0.85810 0.87460 0.51973 -0.18500
C 	C 	0.53550 0.14461 0.86482 -0.07000
C 	C 	0.72491 0.83550 0.06428 0.24500
C 	C 	0.27411 0.63427 0.27229 0.04600
C 	C 	0.67980 0.09640 0.91140 -0.03300
C 	C 	0.52840 0.36430 0.06320 0.18300
C 	C 	0.79896 0.92696 0.08818 -0.21500
C 	C 	0.99140 0.37973 0.01798 0.13900
C 	C 	0.69360 0.35040 0.85770 -0.01600
C 	C 	0.32940 0.50710 0.16816 -0.05100
C 	C 	0.11630 0.22420 0.61420 -0.18900
C 	C 	0.50040 0.02910 0.48420 -0.07600
C 	C 	0.07150 0.71770 0.02187 -0.19500
C 	C 	0.27910 0.68700 0.21779 -0.09300
C 	C 	0.50340 0.71332 0.02395 -0.03500
C 	C 	0.33410 0.69260 0.88997 -0.00700
C 	C 	0.92460 0.59860 0.91270 -0.18900
C 	C 	0.33090 0.55840 0.11640 -0.04700
C 	C 	0.18620 0.30590 0.62260 0.10400
C 	C 	0.07540 0.40140 0.08730 -0.18900
C 	C 	0.97790 0.73960 0.20130 -0.02900
C 	C 	0.59640 0.08580 0.84490 -0.02600
C 	C 	0.40360 0.91420 0.15510 -0.02600
C 	C 	0.78790 0.79017 0.50574 0.10100
C 	C 	0.44400 0.77902 0.04581 0.02300
C 	C 	0.64200 0.23195 0.02107 0.00700
C 	C 	0.24440 0.66891 0.35008 -0.06500
C 	C 	0.00860 0.62027 0.98202 0.13900
C 	C 	0.54740 0.73400 0.51460 0.10500
C 	C 	0.10190 0.89928 0.24785 -0.18600
C 	C 	0.92850 0.28230 0.97813 -0.19500
C 	C 	0.66590 0.30740 0.11003 -0.00700
C 	C 	0.02210 0.26040 0.79870 -0.02900
C 	C 	0.20690 0.01170 0.75929 -0.05000
C 	C 	0.17300 0.93510 0.66930 -0.01600
C 	C 	0.95140 0.21138 0.00627 0.11500
C 	C 	0.90850 0.86850 0.45830 0.13500
C 	C 	0.69764 0.45636 0.75332 -0.02200
C 	C 	0.70150 0.16720 0.99790 -0.06700
C 	C 	0.69510 0.50741 0.69769 0.00600
C 	C 	0.31860 0.17937 0.87509 -0.07500
C 	C 	0.32020 0.90360 0.08860 -0.03300
C 	C 	0.85270 0.58120 0.15200 -0.05600
C 	C 	0.79260 0.05340 0.39430 -0.06000
C 	C 	0.47040 0.28205 0.62670 0.09100
C 	C 	0.31250 0.11340 0.71240 -0.09400
C 	C 	0.67060 0.49290 0.83184 -0.05100
C 	C 	0.02950 0.54554 0.01386 -0.09000
C 	C 	0.63630 0.44740 0.22850 0.32400
C 	C 	0.14030 0.78363 0.31335 -0.07100
C 	C 	0.21210 0.20983 0.49426 0.10100
C 	C 	0.49960 0.97090 0.51580 -0.07600
C 	C 	0.72589 0.36573 0.72771 0.04600
C 	C 	0.66910 0.44160 0.88360 -0.04700
C 	C 	0.35800 0.76805 0.97893 0.00700
C 	C 	0.38840 0.62676 0.86819 -0.14300
C 	C 	0.68140 0.82063 0.12491 -0.07500
N 	N 	0.23510 0.30046 0.56451 -0.24600
N 	N 	0.03279 0.23290 0.07286 -0.25800
N 	N 	0.55016 0.68003 0.43281 -0.24500
N 	N 	0.76490 0.69954 0.43549 -0.24600
N 	N 	0.44984 0.31997 0.56719 -0.24500
N 	N 	0.96721 0.76710 0.92714 -0.25800
O 	O 	0.32577 0.40111 0.42048 -0.36900
O 	O 	0.81485 0.87327 0.94276 -0.44100
O 	O 	0.08885 0.97579 0.95361 -0.45700
O 	O 	0.41760 0.49423 0.75226 -0.41600
O 	O 	0.29580 0.55064 0.71102 -0.35800
O 	O 	0.25943 0.93931 0.35749 -0.44100
O 	O 	0.72973 0.48938 0.48819 -0.41200
O 	O 	0.47834 0.43369 0.08149 -0.29800
O 	O 	0.74057 0.06069 0.64251 -0.44100
O 	O 	0.22322 0.65275 0.47846 -0.43900
O 	O 	0.58240 0.50577 0.24774 -0.41600
O 	O 	0.78162 0.94437 0.71449 -0.32300
O 	O 	0.67423 0.59889 0.57952 -0.36900
O 	O 	0.18515 0.12673 0.05724 -0.44100
O 	O 	0.77678 0.34725 0.52154 -0.43900
O 	O 	0.70420 0.44936 0.28898 -0.35800
O 	O 	0.30524 0.24065 0.02008 -0.42600
O 	O 	0.69476 0.75935 0.97992 -0.42600
O 	O 	0.27027 0.51062 0.51181 -0.41200
O 	O 	0.52166 0.56631 0.91851 -0.29800
O 	O 	0.07303 0.00651 0.17916 -0.44400
O 	O 	0.21838 0.05563 0.28551 -0.32300
O 	O 	0.91115 0.02421 0.04639 -0.45700
O 	O 	0.92697 0.99349 0.82084 -0.44400
