data_crystal

_cell_length_a 13.45370
_cell_length_b 13.45370
_cell_length_c 27.32900
_cell_angle_alpha 90.00000
_cell_angle_beta  90.00000
_cell_angle_gamma 90.00000

_symmetry_space_group_name_	'P 1'
_symmetry_space_group_name_H-M	'P 1'

loop_
_symmetry_equiv_pos_as_xyz
  x,y,z

loop_
_atom_site_label
_atom_site_type_symbol
_atom_site_fract_x
_atom_site_fract_y
_atom_site_fract_z
_atom_site_charge
O 	O 	0.44540 0.13860 0.36757 -0.35200
Zn	Zn	0.52227 0.08925 0.44673 1.18500
N 	N 	0.51420 0.23290 0.46533 -0.28800
O 	O 	0.57510 0.04490 0.38345 -0.47300
C 	C 	0.51620 0.08460 0.35307 0.34100
C 	C 	0.53220 0.06770 0.29987 -0.16000
C 	C 	0.47920 0.12050 0.26433 0.40600
N 	N 	0.40610 0.18180 0.27610 0.45100
H 	H 	0.37180 0.21020 0.25350 -0.06200
H 	H 	0.39280 0.19320 0.30640 -0.01500
C 	C 	0.60350 0.99900 0.28475 -0.19300
H 	H 	0.64070 0.96560 0.30820 0.11600
N 	N 	0.47450 0.39220 0.46578 -0.25900
N 	N 	0.53750 0.37570 0.50438 -0.25200
C 	C 	0.46330 0.30630 0.44389 0.09900
H 	H 	0.42400 0.29730 0.41630 -0.01300
C 	C 	0.56020 0.28070 0.50279 0.07000
H 	H 	0.62000 0.25900 0.53000 -0.03600
H 	H 	0.43110 0.16650 0.27350 -0.55300
O 	O 	0.05460 0.36140 0.36757 -0.35300
Zn	Zn	0.97773 0.41075 0.44673 1.18400
N 	N 	0.98580 0.26710 0.46533 -0.29100
O 	O 	0.92490 0.45510 0.38345 -0.47300
C 	C 	0.98380 0.41540 0.35307 0.33800
C 	C 	0.96780 0.43230 0.29987 -0.16000
C 	C 	0.02080 0.37950 0.26433 0.40600
N 	N 	0.09390 0.31820 0.27610 0.45000
H 	H 	0.12820 0.28980 0.25350 -0.06300
H 	H 	0.10720 0.30680 0.30640 -0.01500
C 	C 	0.89650 0.50100 0.28475 -0.19500
H 	H 	0.85930 0.53440 0.30820 0.11500
N 	N 	0.02550 0.10780 0.46578 -0.25800
N 	N 	0.96250 0.12430 0.50438 -0.25500
C 	C 	0.03670 0.19370 0.44389 0.10200
H 	H 	0.07600 0.20270 0.41630 -0.01300
C 	C 	0.93980 0.21930 0.50279 0.06900
H 	H 	0.88000 0.24100 0.53000 -0.03600
H 	H 	0.06890 0.33350 0.27350 -0.55300
O 	O 	0.36140 0.44540 0.36757 -0.35300
Zn	Zn	0.41075 0.52227 0.44673 1.18400
N 	N 	0.26710 0.51420 0.46533 -0.28900
O 	O 	0.45510 0.57510 0.38345 -0.47300
C 	C 	0.41540 0.51620 0.35307 0.34000
C 	C 	0.43230 0.53220 0.29987 -0.16000
C 	C 	0.37950 0.47920 0.26433 0.40500
N 	N 	0.31820 0.40610 0.27610 0.45000
H 	H 	0.28980 0.37180 0.25350 -0.06300
H 	H 	0.30680 0.39280 0.30640 -0.01600
C 	C 	0.50100 0.60350 0.28475 -0.19500
H 	H 	0.53440 0.64070 0.30820 0.11500
N 	N 	0.10780 0.47450 0.46578 -0.26000
N 	N 	0.12430 0.53750 0.50438 -0.25300
C 	C 	0.19370 0.46330 0.44389 0.09900
H 	H 	0.20270 0.42400 0.41630 -0.01300
C 	C 	0.21930 0.56020 0.50279 0.07000
H 	H 	0.24100 0.62000 0.53000 -0.03600
H 	H 	0.33350 0.43110 0.27350 -0.55300
O 	O 	0.13860 0.05460 0.36757 -0.35000
Zn	Zn	0.08925 0.97773 0.44673 1.18400
N 	N 	0.23290 0.98580 0.46533 -0.29100
O 	O 	0.04490 0.92490 0.38345 -0.47400
C 	C 	0.08460 0.98380 0.35307 0.33700
C 	C 	0.06770 0.96780 0.29987 -0.16800
C 	C 	0.12050 0.02080 0.26433 0.40900
N 	N 	0.18180 0.09390 0.27610 0.44800
H 	H 	0.21020 0.12820 0.25350 -0.06200
H 	H 	0.19320 0.10720 0.30640 -0.01500
C 	C 	0.99900 0.89650 0.28475 -0.18800
H 	H 	0.96560 0.85930 0.30820 0.11400
N 	N 	0.39220 0.02550 0.46578 -0.26000
N 	N 	0.37570 0.96250 0.50438 -0.25400
C 	C 	0.30630 0.03670 0.44389 0.10200
H 	H 	0.29730 0.07600 0.41630 -0.01300
C 	C 	0.28070 0.93980 0.50279 0.06900
H 	H 	0.25900 0.88000 0.53000 -0.03600
H 	H 	0.16650 0.06890 0.27350 -0.55200
O 	O 	0.55460 0.63860 0.13243 -0.35300
Zn	Zn	0.47773 0.58925 0.05327 1.18400
N 	N 	0.48580 0.73290 0.03467 -0.28900
O 	O 	0.42490 0.54490 0.11655 -0.47300
C 	C 	0.48380 0.58460 0.14693 0.34000
C 	C 	0.46780 0.56770 0.20013 -0.16000
C 	C 	0.52080 0.62050 0.23567 0.40500
N 	N 	0.59390 0.68180 0.22390 0.45000
H 	H 	0.62820 0.71020 0.24650 -0.06300
H 	H 	0.60720 0.69320 0.19360 -0.01600
C 	C 	0.39650 0.49900 0.21525 -0.19500
H 	H 	0.35930 0.46560 0.19180 0.11500
N 	N 	0.52550 0.89220 0.03422 -0.25900
N 	N 	0.46250 0.87570 0.99562 -0.25400
C 	C 	0.53670 0.80630 0.05611 0.09900
H 	H 	0.57600 0.79730 0.08370 -0.01300
C 	C 	0.43980 0.78070 0.99721 0.06900
H 	H 	0.38000 0.75900 0.97000 -0.03600
H 	H 	0.56890 0.66650 0.22650 -0.55300
O 	O 	0.94540 0.86140 0.13243 -0.34900
Zn	Zn	0.02227 0.91075 0.05327 1.18300
N 	N 	0.01420 0.76710 0.03467 -0.29100
O 	O 	0.07510 0.95510 0.11655 -0.47400
C 	C 	0.01620 0.91540 0.14693 0.33600
C 	C 	0.03220 0.93230 0.20013 -0.16700
C 	C 	0.97920 0.87950 0.23567 0.40900
N 	N 	0.90610 0.81820 0.22390 0.44800
H 	H 	0.87180 0.78980 0.24650 -0.06200
H 	H 	0.89280 0.80680 0.19360 -0.01500
C 	C 	0.10350 0.00100 0.21525 -0.18900
H 	H 	0.14070 0.03440 0.19180 0.11400
N 	N 	0.97450 0.60780 0.03422 -0.26000
N 	N 	0.03750 0.62430 0.99562 -0.25400
C 	C 	0.96330 0.69370 0.05611 0.10300
H 	H 	0.92400 0.70270 0.08370 -0.01400
C 	C 	0.06020 0.71930 0.99721 0.07000
H 	H 	0.12000 0.74100 0.97000 -0.03600
H 	H 	0.93110 0.83350 0.22650 -0.55200
O 	O 	0.63860 0.94540 0.13243 -0.35200
Zn	Zn	0.58925 0.02227 0.05327 1.18400
N 	N 	0.73290 0.01420 0.03467 -0.29100
O 	O 	0.54490 0.07510 0.11655 -0.47300
C 	C 	0.58460 0.01620 0.14693 0.33800
C 	C 	0.56770 0.03220 0.20013 -0.16100
C 	C 	0.62050 0.97920 0.23567 0.40600
N 	N 	0.68180 0.90610 0.22390 0.44900
H 	H 	0.71020 0.87180 0.24650 -0.06200
H 	H 	0.69320 0.89280 0.19360 -0.01500
C 	C 	0.49900 0.10350 0.21525 -0.19500
H 	H 	0.46560 0.14070 0.19180 0.11500
N 	N 	0.89220 0.97450 0.03422 -0.25800
N 	N 	0.87570 0.03750 0.99562 -0.25500
C 	C 	0.80630 0.96330 0.05611 0.10300
H 	H 	0.79730 0.92400 0.08370 -0.01300
C 	C 	0.78070 0.06020 0.99721 0.07000
H 	H 	0.75900 0.12000 0.97000 -0.03600
H 	H 	0.66650 0.93110 0.22650 -0.55300
O 	O 	0.86140 0.55460 0.13243 -0.35300
Zn	Zn	0.91075 0.47773 0.05327 1.18400
N 	N 	0.76710 0.48580 0.03467 -0.28900
O 	O 	0.95510 0.42490 0.11655 -0.47300
C 	C 	0.91540 0.48380 0.14693 0.34000
C 	C 	0.93230 0.46780 0.20013 -0.16000
C 	C 	0.87950 0.52080 0.23567 0.40500
N 	N 	0.81820 0.59390 0.22390 0.45000
H 	H 	0.78980 0.62820 0.24650 -0.06300
H 	H 	0.80680 0.60720 0.19360 -0.01600
C 	C 	0.00100 0.39650 0.21525 -0.19500
H 	H 	0.03440 0.35930 0.19180 0.11500
N 	N 	0.60780 0.52550 0.03422 -0.26000
N 	N 	0.62430 0.46250 0.99562 -0.25300
C 	C 	0.69370 0.53670 0.05611 0.09900
H 	H 	0.70270 0.57600 0.08370 -0.01300
C 	C 	0.71930 0.43980 0.99721 0.06900
H 	H 	0.74100 0.38000 0.97000 -0.03600
H 	H 	0.83350 0.56890 0.22650 -0.55300
O 	O 	0.55460 0.86140 0.63243 -0.35300
Zn	Zn	0.47773 0.91075 0.55327 1.18400
N 	N 	0.48580 0.76710 0.53467 -0.28900
O 	O 	0.42490 0.95510 0.61655 -0.47400
C 	C 	0.48380 0.91540 0.64693 0.34000
C 	C 	0.46780 0.93230 0.70013 -0.16100
C 	C 	0.52080 0.87950 0.73567 0.40500
N 	N 	0.59390 0.81820 0.72390 0.45000
H 	H 	0.62820 0.78980 0.74650 -0.06300
H 	H 	0.60720 0.80680 0.69360 -0.01600
C 	C 	0.39650 0.00100 0.71525 -0.19400
H 	H 	0.35930 0.03440 0.69180 0.11500
N 	N 	0.52550 0.60780 0.53422 -0.26000
N 	N 	0.46250 0.62430 0.49562 -0.25300
C 	C 	0.53670 0.69370 0.55611 0.09900
H 	H 	0.57600 0.70270 0.58370 -0.01300
C 	C 	0.43980 0.71930 0.49721 0.07000
H 	H 	0.38000 0.74100 0.47000 -0.03600
H 	H 	0.56890 0.83350 0.72650 -0.55300
O 	O 	0.94540 0.63860 0.63243 -0.35300
Zn	Zn	0.02227 0.58925 0.55327 1.18400
N 	N 	0.01420 0.73290 0.53467 -0.29100
O 	O 	0.07510 0.54490 0.61655 -0.47300
C 	C 	0.01620 0.58460 0.64693 0.33800
C 	C 	0.03220 0.56770 0.70013 -0.16000
C 	C 	0.97920 0.62050 0.73567 0.40600
N 	N 	0.90610 0.68180 0.72390 0.45000
H 	H 	0.87180 0.71020 0.74650 -0.06300
H 	H 	0.89280 0.69320 0.69360 -0.01500
C 	C 	0.10350 0.49900 0.71525 -0.19500
H 	H 	0.14070 0.46560 0.69180 0.11500
N 	N 	0.97450 0.89220 0.53422 -0.25800
N 	N 	0.03750 0.87570 0.49562 -0.25500
C 	C 	0.96330 0.80630 0.55611 0.10200
H 	H 	0.92400 0.79730 0.58370 -0.01300
C 	C 	0.06020 0.78070 0.49721 0.06900
H 	H 	0.12000 0.75900 0.47000 -0.03600
H 	H 	0.93110 0.66650 0.72650 -0.55300
O 	O 	0.63860 0.55460 0.63243 -0.35300
Zn	Zn	0.58925 0.47773 0.55327 1.18400
N 	N 	0.73290 0.48580 0.53467 -0.28900
O 	O 	0.54490 0.42490 0.61655 -0.47300
C 	C 	0.58460 0.48380 0.64693 0.34000
C 	C 	0.56770 0.46780 0.70013 -0.16000
C 	C 	0.62050 0.52080 0.73567 0.40500
N 	N 	0.68180 0.59390 0.72390 0.45000
H 	H 	0.71020 0.62820 0.74650 -0.06300
H 	H 	0.69320 0.60720 0.69360 -0.01600
C 	C 	0.49900 0.39650 0.71525 -0.19500
H 	H 	0.46560 0.35930 0.69180 0.11500
N 	N 	0.89220 0.52550 0.53422 -0.26000
N 	N 	0.87570 0.46250 0.49562 -0.25300
C 	C 	0.80630 0.53670 0.55611 0.09900
H 	H 	0.79730 0.57600 0.58370 -0.01300
C 	C 	0.78070 0.43980 0.49721 0.07000
H 	H 	0.75900 0.38000 0.47000 -0.03600
H 	H 	0.66650 0.56890 0.72650 -0.55300
O 	O 	0.86140 0.94540 0.63243 -0.35000
Zn	Zn	0.91075 0.02227 0.55327 1.18400
N 	N 	0.76710 0.01420 0.53467 -0.29100
O 	O 	0.95510 0.07510 0.61655 -0.47400
C 	C 	0.91540 0.01620 0.64693 0.33700
C 	C 	0.93230 0.03220 0.70013 -0.16800
C 	C 	0.87950 0.97920 0.73567 0.40900
N 	N 	0.81820 0.90610 0.72390 0.44800
H 	H 	0.78980 0.87180 0.74650 -0.06200
H 	H 	0.80680 0.89280 0.69360 -0.01500
C 	C 	0.00100 0.10350 0.71525 -0.18800
H 	H 	0.03440 0.14070 0.69180 0.11400
N 	N 	0.60780 0.97450 0.53422 -0.26000
N 	N 	0.62430 0.03750 0.49562 -0.25400
C 	C 	0.69370 0.96330 0.55611 0.10200
H 	H 	0.70270 0.92400 0.58370 -0.01300
C 	C 	0.71930 0.06020 0.49721 0.06900
H 	H 	0.74100 0.12000 0.47000 -0.03600
H 	H 	0.83350 0.93110 0.72650 -0.55200
O 	O 	0.44540 0.36140 0.86757 -0.35300
Zn	Zn	0.52227 0.41075 0.94673 1.18400
N 	N 	0.51420 0.26710 0.96533 -0.28900
O 	O 	0.57510 0.45510 0.88345 -0.47300
C 	C 	0.51620 0.41540 0.85307 0.34000
C 	C 	0.53220 0.43230 0.79987 -0.16000
C 	C 	0.47920 0.37950 0.76433 0.40500
N 	N 	0.40610 0.31820 0.77610 0.45000
H 	H 	0.37180 0.28980 0.75350 -0.06300
H 	H 	0.39280 0.30680 0.80640 -0.01600
C 	C 	0.60350 0.50100 0.78475 -0.19500
H 	H 	0.64070 0.53440 0.80820 0.11500
N 	N 	0.47450 0.10780 0.96578 -0.25900
N 	N 	0.53750 0.12430 0.00438 -0.25400
C 	C 	0.46330 0.19370 0.94389 0.09900
H 	H 	0.42400 0.20270 0.91630 -0.01300
C 	C 	0.56020 0.21930 0.00279 0.06900
H 	H 	0.62000 0.24100 0.03000 -0.03600
H 	H 	0.43110 0.33350 0.77350 -0.55300
O 	O 	0.05460 0.13860 0.86757 -0.34900
Zn	Zn	0.97773 0.08925 0.94673 1.18300
N 	N 	0.98580 0.23290 0.96533 -0.29100
O 	O 	0.92490 0.04490 0.88345 -0.47400
C 	C 	0.98380 0.08460 0.85307 0.33600
C 	C 	0.96780 0.06770 0.79987 -0.16700
C 	C 	0.02080 0.12050 0.76433 0.40900
N 	N 	0.09390 0.18180 0.77610 0.44800
H 	H 	0.12820 0.21020 0.75350 -0.06200
H 	H 	0.10720 0.19320 0.80640 -0.01500
C 	C 	0.89650 0.99900 0.78475 -0.18900
H 	H 	0.85930 0.96560 0.80820 0.11400
N 	N 	0.02550 0.39220 0.96578 -0.26000
N 	N 	0.96250 0.37570 0.00438 -0.25400
C 	C 	0.03670 0.30630 0.94389 0.10300
H 	H 	0.07600 0.29730 0.91630 -0.01400
C 	C 	0.93980 0.28070 0.00279 0.07000
H 	H 	0.88000 0.25900 0.03000 -0.03600
H 	H 	0.06890 0.16650 0.77350 -0.55200
O 	O 	0.36140 0.05460 0.86757 -0.35200
Zn	Zn	0.41075 0.97773 0.94673 1.18400
N 	N 	0.26710 0.98580 0.96533 -0.29100
O 	O 	0.45510 0.92490 0.88345 -0.47300
C 	C 	0.41540 0.98380 0.85307 0.33800
C 	C 	0.43230 0.96780 0.79987 -0.16100
C 	C 	0.37950 0.02080 0.76433 0.40600
N 	N 	0.31820 0.09390 0.77610 0.44900
H 	H 	0.28980 0.12820 0.75350 -0.06200
H 	H 	0.30680 0.10720 0.80640 -0.01500
C 	C 	0.50100 0.89650 0.78475 -0.19500
H 	H 	0.53440 0.85930 0.80820 0.11500
N 	N 	0.10780 0.02550 0.96578 -0.25800
N 	N 	0.12430 0.96250 0.00438 -0.25500
C 	C 	0.19370 0.03670 0.94389 0.10300
H 	H 	0.20270 0.07600 0.91630 -0.01300
C 	C 	0.21930 0.93980 0.00279 0.07000
H 	H 	0.24100 0.88000 0.03000 -0.03600
H 	H 	0.33350 0.06890 0.77350 -0.55300
O 	O 	0.13860 0.44540 0.86757 -0.35300
Zn	Zn	0.08925 0.52227 0.94673 1.18400
N 	N 	0.23290 0.51420 0.96533 -0.28900
O 	O 	0.04490 0.57510 0.88345 -0.47300
C 	C 	0.08460 0.51620 0.85307 0.34000
C 	C 	0.06770 0.53220 0.79987 -0.16000
C 	C 	0.12050 0.47920 0.76433 0.40500
N 	N 	0.18180 0.40610 0.77610 0.45000
H 	H 	0.21020 0.37180 0.75350 -0.06300
H 	H 	0.19320 0.39280 0.80640 -0.01600
C 	C 	0.99900 0.60350 0.78475 -0.19500
H 	H 	0.96560 0.64070 0.80820 0.11500
N 	N 	0.39220 0.47450 0.96578 -0.26000
N 	N 	0.37570 0.53750 0.00438 -0.25300
C 	C 	0.30630 0.46330 0.94389 0.09900
H 	H 	0.29730 0.42400 0.91630 -0.01300
C 	C 	0.28070 0.56020 0.00279 0.06900
H 	H 	0.25900 0.62000 0.03000 -0.03600
H 	H 	0.16650 0.43110 0.77350 -0.55300
