data_crystal

_cell_length_a 15.05200
_cell_length_b 8.14700
_cell_length_c 16.16400
_cell_angle_alpha 90.00000
_cell_angle_beta  102.84300
_cell_angle_gamma 90.00000

_symmetry_space_group_name_	'P 1'
_symmetry_space_group_name_H-M	'P 1'

loop_
_symmetry_equiv_pos_as_xyz
  x,y,z

loop_
_atom_site_label
_atom_site_type_symbol
_atom_site_fract_x
_atom_site_fract_y
_atom_site_fract_z
_atom_site_charge
U 	U 	0.20398 0.13198 0.25807 0.08800
P 	P 	0.98413 0.98500 0.29926 0.38600
P 	P 	0.44147 0.99560 0.29744 0.39200
F 	F 	0.25340 0.87070 0.29880 -0.29600
O 	O 	0.08000 0.98740 0.28490 -0.13000
O 	O 	0.93280 0.14590 0.26020 -0.13600
O 	O 	0.92630 0.83910 0.26480 -0.18300
O 	O 	0.86750 0.80030 0.40600 -0.35800
H 	H 	0.87350 0.79310 0.35570 0.27800
O 	O 	0.36490 0.11670 0.26670 -0.12000
O 	O 	0.52880 0.04950 0.26700 -0.13900
O 	O 	0.42420 0.82000 0.26870 -0.13300
O 	O 	0.45400 0.29730 0.41800 -0.35100
H 	H 	0.42450 0.28490 0.36780 0.28000
C 	C 	0.99090 0.99350 0.41150 -0.06800
C 	C 	0.93360 0.90330 0.45110 0.23200
C 	C 	0.05760 0.08840 0.46270 -0.09300
H 	H 	0.09840 0.14940 0.43740 0.13200
C 	C 	0.47100 0.00000 0.41240 -0.04800
C 	C 	0.47560 0.14600 0.45490 0.22700
C 	C 	0.49480 0.85360 0.45650 -0.09200
H 	H 	0.49100 0.75300 0.42630 0.13600
U 	U 	0.29602 0.63198 0.24193 0.08700
P 	P 	0.51587 0.48500 0.20074 0.39000
P 	P 	0.05853 0.49560 0.20256 0.39900
F 	F 	0.24660 0.37070 0.20120 -0.29500
O 	O 	0.42000 0.48740 0.21510 -0.13100
O 	O 	0.56720 0.64590 0.23980 -0.14200
O 	O 	0.57370 0.33910 0.23520 -0.18200
O 	O 	0.63250 0.30030 0.09400 -0.35600
H 	H 	0.62650 0.29310 0.14430 0.27800
O 	O 	0.13510 0.61670 0.23330 -0.12300
O 	O 	0.97120 0.54950 0.23300 -0.14200
O 	O 	0.07580 0.32000 0.23130 -0.13300
O 	O 	0.04600 0.79730 0.08200 -0.35200
H 	H 	0.07550 0.78490 0.13220 0.28000
C 	C 	0.50910 0.49350 0.08850 -0.06200
C 	C 	0.56640 0.40330 0.04890 0.22900
C 	C 	0.44240 0.58840 0.03730 -0.09900
H 	H 	0.40160 0.64940 0.06260 0.13300
C 	C 	0.02900 0.50000 0.08760 -0.05500
C 	C 	0.02440 0.64600 0.04510 0.22800
C 	C 	0.00520 0.35360 0.04350 -0.08800
H 	H 	0.00900 0.25300 0.07370 0.13500
U 	U 	0.79602 0.86802 0.74193 0.08500
P 	P 	0.01587 0.01500 0.70074 0.38800
P 	P 	0.55853 0.00440 0.70256 0.40300
F 	F 	0.74660 0.12930 0.70120 -0.29400
O 	O 	0.92000 0.01260 0.71510 -0.12700
O 	O 	0.06720 0.85410 0.73980 -0.14100
O 	O 	0.07370 0.16090 0.73520 -0.18200
O 	O 	0.13250 0.19970 0.59400 -0.35600
H 	H 	0.12650 0.20690 0.64430 0.27700
O 	O 	0.63510 0.88330 0.73330 -0.12600
O 	O 	0.47120 0.95050 0.73300 -0.14600
O 	O 	0.57580 0.18000 0.73130 -0.13300
O 	O 	0.54600 0.70270 0.58200 -0.35200
H 	H 	0.57550 0.71510 0.63220 0.28000
C 	C 	0.00910 0.00650 0.58850 -0.05700
C 	C 	0.06640 0.09670 0.54890 0.22500
C 	C 	0.94240 0.91160 0.53730 -0.10600
H 	H 	0.90160 0.85060 0.56260 0.13500
C 	C 	0.52900 0.00000 0.58760 -0.05300
C 	C 	0.52440 0.85400 0.54510 0.22700
C 	C 	0.50520 0.14640 0.54350 -0.08500
H 	H 	0.50900 0.24700 0.57370 0.13500
U 	U 	0.70398 0.36802 0.75807 0.08700
P 	P 	0.48413 0.51500 0.79926 0.39000
P 	P 	0.94147 0.50440 0.79744 0.40000
F 	F 	0.75340 0.62930 0.79880 -0.29600
O 	O 	0.58000 0.51260 0.78490 -0.13100
O 	O 	0.43280 0.35410 0.76020 -0.14100
O 	O 	0.42630 0.66090 0.76480 -0.18300
O 	O 	0.36750 0.69970 0.90600 -0.35700
H 	H 	0.37350 0.70690 0.85570 0.27800
O 	O 	0.86490 0.38330 0.76670 -0.12300
O 	O 	0.02880 0.45050 0.76700 -0.14300
O 	O 	0.92420 0.68000 0.76870 -0.13400
O 	O 	0.95400 0.20270 0.91800 -0.35100
H 	H 	0.92450 0.21510 0.86780 0.28100
C 	C 	0.49090 0.50650 0.91150 -0.06200
C 	C 	0.43360 0.59670 0.95110 0.22900
C 	C 	0.55760 0.41160 0.96270 -0.10000
H 	H 	0.59840 0.35060 0.93740 0.13400
C 	C 	0.97100 0.50000 0.91240 -0.05600
C 	C 	0.97560 0.35400 0.95490 0.23000
C 	C 	0.99480 0.64640 0.95650 -0.08600
H 	H 	0.99100 0.74700 0.92630 0.13400
