data_crystal

_cell_length_a 15.95840
_cell_length_b 8.23760
_cell_length_c 16.25540
_cell_angle_alpha 90.00000
_cell_angle_beta  105.36800
_cell_angle_gamma 90.00000

_symmetry_space_group_name_	'P 1'
_symmetry_space_group_name_H-M	'P 1'

loop_
_symmetry_equiv_pos_as_xyz
  x,y,z

loop_
_atom_site_label
_atom_site_type_symbol
_atom_site_fract_x
_atom_site_fract_y
_atom_site_fract_z
_atom_site_charge
U 	U 	0.70752 0.12266 0.25869 0.08700
P 	P 	0.93245 0.98310 0.29639 0.39700
P 	P 	0.50345 0.97435 0.30373 0.39100
F 	F 	0.75471 0.85950 0.29813 -0.29400
O 	O 	0.85858 0.09990 0.26359 -0.12200
O 	O 	0.01350 0.03510 0.26553 -0.14300
O 	O 	0.91580 0.80710 0.26989 -0.13000
O 	O 	0.96518 0.28940 0.41138 -0.35200
H 	H 	0.93320 0.27510 0.36180 0.27800
O 	O 	0.59588 0.98280 0.29847 -0.13100
O 	O 	0.45434 0.13150 0.26040 -0.14100
O 	O 	0.45047 0.82780 0.26612 -0.18400
O 	O 	0.38225 0.79300 0.39616 -0.36000
H 	H 	0.39180 0.78470 0.34790 0.27800
C 	C 	0.96664 0.99340 0.41086 -0.05100
C 	C 	0.98000 0.14350 0.45310 0.23000
C 	C 	0.98670 0.85140 0.45880 -0.09200
H 	H 	0.97740 0.74930 0.43070 0.13700
C 	C 	0.50134 0.98400 0.41415 -0.06300
C 	C 	0.44160 0.89600 0.44580 0.23000
C 	C 	0.55920 0.08720 0.46950 -0.09700
H 	H 	0.60010 0.14740 0.44870 0.13100
U 	U 	0.79248 0.62266 0.24131 0.08800
P 	P 	0.56755 0.48310 0.20361 0.39900
P 	P 	0.99655 0.47435 0.19627 0.39100
F 	F 	0.74529 0.35950 0.20187 -0.29400
O 	O 	0.64142 0.59990 0.23641 -0.12300
O 	O 	0.48650 0.53510 0.23447 -0.14400
O 	O 	0.58420 0.30710 0.23011 -0.13000
O 	O 	0.53482 0.78940 0.08862 -0.35300
H 	H 	0.56680 0.77510 0.13820 0.27800
O 	O 	0.90412 0.48280 0.20153 -0.13100
O 	O 	0.04566 0.63150 0.23960 -0.14000
O 	O 	0.04953 0.32780 0.23388 -0.18400
O 	O 	0.11775 0.29300 0.10384 -0.36100
H 	H 	0.10820 0.28470 0.15210 0.27900
C 	C 	0.53336 0.49340 0.08914 -0.05100
C 	C 	0.52000 0.64350 0.04690 0.23000
C 	C 	0.51330 0.35140 0.04120 -0.09200
H 	H 	0.52260 0.24930 0.06930 0.13700
C 	C 	0.99866 0.48400 0.08585 -0.06400
C 	C 	0.05840 0.39600 0.05420 0.23300
C 	C 	0.94080 0.58720 0.03050 -0.09900
H 	H 	0.89990 0.64740 0.05130 0.13100
U 	U 	0.29248 0.87734 0.74131 0.08800
P 	P 	0.06755 0.01690 0.70361 0.39800
P 	P 	0.49655 0.02565 0.69627 0.39100
F 	F 	0.24529 0.14050 0.70187 -0.29400
O 	O 	0.14142 0.90010 0.73641 -0.12200
O 	O 	0.98650 0.96490 0.73447 -0.14300
O 	O 	0.08420 0.19290 0.73011 -0.13000
O 	O 	0.03482 0.71060 0.58862 -0.35200
H 	H 	0.06680 0.72490 0.63820 0.27800
O 	O 	0.40412 0.01720 0.70153 -0.13100
O 	O 	0.54566 0.86850 0.73960 -0.14100
O 	O 	0.54953 0.17220 0.73388 -0.18400
O 	O 	0.61775 0.20700 0.60384 -0.36000
H 	H 	0.60820 0.21530 0.65210 0.27800
C 	C 	0.03336 0.00660 0.58914 -0.05100
C 	C 	0.02000 0.85650 0.54690 0.23000
C 	C 	0.01330 0.14860 0.54120 -0.09200
H 	H 	0.02260 0.25070 0.56930 0.13700
C 	C 	0.49866 0.01600 0.58585 -0.06300
C 	C 	0.55840 0.10400 0.55420 0.23000
C 	C 	0.44080 0.91280 0.53050 -0.09700
H 	H 	0.39990 0.85260 0.55130 0.13100
U 	U 	0.20752 0.37734 0.75869 0.08800
P 	P 	0.43245 0.51690 0.79639 0.39900
P 	P 	0.00345 0.52565 0.80373 0.39100
F 	F 	0.25471 0.64050 0.79813 -0.29400
O 	O 	0.35858 0.40010 0.76359 -0.12300
O 	O 	0.51350 0.46490 0.76553 -0.14400
O 	O 	0.41580 0.69290 0.76989 -0.13000
O 	O 	0.46518 0.21060 0.91138 -0.35300
H 	H 	0.43320 0.22490 0.86180 0.27800
O 	O 	0.09588 0.51720 0.79847 -0.13100
O 	O 	0.95434 0.36850 0.76040 -0.14000
O 	O 	0.95047 0.67220 0.76612 -0.18400
O 	O 	0.88225 0.70700 0.89616 -0.36100
H 	H 	0.89180 0.71530 0.84790 0.27900
C 	C 	0.46664 0.50660 0.91086 -0.05100
C 	C 	0.48000 0.35650 0.95310 0.23000
C 	C 	0.48670 0.64860 0.95880 -0.09200
H 	H 	0.47740 0.75070 0.93070 0.13700
C 	C 	0.00134 0.51600 0.91415 -0.06400
C 	C 	0.94160 0.60400 0.94580 0.23300
C 	C 	0.05920 0.41280 0.96950 -0.09900
H 	H 	0.10010 0.35260 0.94870 0.13100
