data_crystal

_cell_length_a 20.44210
_cell_length_b 20.44210
_cell_length_c 20.44210
_cell_angle_alpha 90.00000
_cell_angle_beta  90.00000
_cell_angle_gamma 90.00000

_symmetry_space_group_name_	'P 1'
_symmetry_space_group_name_H-M	'P 1'

loop_
_symmetry_equiv_pos_as_xyz
  x,y,z

loop_
_atom_site_label
_atom_site_type_symbol
_atom_site_fract_x
_atom_site_fract_y
_atom_site_fract_z
_atom_site_charge
Zn	Zn	0.00000 0.00000 0.42764 1.12500
Zn	Zn	-0.00000 -0.00000 0.57236 1.12800
Zn	Zn	0.42764 0.00000 -0.00000 1.12600
Zn	Zn	0.57236 0.00000 -0.00000 1.12900
Zn	Zn	0.00000 0.42764 -0.00000 1.12600
Zn	Zn	-0.00000 0.57236 -0.00000 1.12900
Zn	Zn	0.33703 0.33703 0.33703 1.18800
Zn	Zn	0.23769 0.23769 0.23769 1.17800
Zn	Zn	0.66297 0.66297 0.33703 1.19000
Zn	Zn	0.76231 0.76231 0.23769 1.19500
Zn	Zn	0.66297 0.33703 0.66297 1.19000
Zn	Zn	0.76231 0.23769 0.76231 1.19500
Zn	Zn	0.33703 0.66297 0.66297 1.19000
Zn	Zn	0.23769 0.76231 0.76231 1.19500
Zn	Zn	0.33703 0.33703 0.66297 1.18900
Zn	Zn	0.23769 0.23769 0.76231 1.18700
Zn	Zn	0.66297 0.66297 0.66297 1.19100
Zn	Zn	0.76231 0.76231 0.76231 1.20300
Zn	Zn	0.33703 0.66297 0.33703 1.18900
Zn	Zn	0.23769 0.76231 0.23769 1.18700
Zn	Zn	0.66297 0.33703 0.33703 1.18900
Zn	Zn	0.76231 0.23769 0.23769 1.18700
O 	O 	0.28190 0.28190 0.38700 -0.60300
O 	O 	0.21700 0.21700 0.32790 -0.59900
O 	O 	0.06881 0.06881 0.44450 -0.56500
C 	C 	0.21160 0.21160 0.44140 -0.31800
C 	C 	0.23900 0.23900 0.37980 0.52300
C 	C 	0.16430 0.16430 0.44160 0.20200
H 	H 	0.14830 0.14830 0.40220 -0.05100
O 	O 	0.71810 0.71810 0.38700 -0.58600
O 	O 	0.78300 0.78300 0.32790 -0.55300
O 	O 	0.93119 0.93119 0.44450 -0.41300
C 	C 	0.78840 0.78840 0.44140 -0.25800
C 	C 	0.76100 0.76100 0.37980 0.51100
C 	C 	0.83570 0.83570 0.44160 0.16600
H 	H 	0.85170 0.85170 0.40220 0.00300
O 	O 	0.71810 0.28190 0.61300 -0.59300
O 	O 	0.78300 0.21700 0.67210 -0.56700
O 	O 	0.93119 0.06881 0.55550 -0.48200
C 	C 	0.78840 0.21160 0.55860 -0.28500
C 	C 	0.76100 0.23900 0.62020 0.51500
C 	C 	0.83570 0.16430 0.55840 0.18200
H 	H 	0.85170 0.14830 0.59780 -0.01800
O 	O 	0.28190 0.71810 0.61300 -0.59300
O 	O 	0.21700 0.78300 0.67210 -0.56700
O 	O 	0.06881 0.93119 0.55550 -0.48200
C 	C 	0.21160 0.78840 0.55860 -0.28500
C 	C 	0.23900 0.76100 0.62020 0.51500
C 	C 	0.16430 0.83570 0.55840 0.18200
H 	H 	0.14830 0.85170 0.59780 -0.01800
O 	O 	0.38700 0.28190 0.28190 -0.60300
O 	O 	0.32790 0.21700 0.21700 -0.59900
O 	O 	0.44450 0.06881 0.06881 -0.56500
C 	C 	0.44140 0.21160 0.21160 -0.31800
C 	C 	0.37980 0.23900 0.23900 0.52300
C 	C 	0.44160 0.16430 0.16430 0.20200
H 	H 	0.40220 0.14830 0.14830 -0.05100
O 	O 	0.38700 0.71810 0.71810 -0.58600
O 	O 	0.32790 0.78300 0.78300 -0.55300
O 	O 	0.44450 0.93119 0.93119 -0.41300
C 	C 	0.44140 0.78840 0.78840 -0.25800
C 	C 	0.37980 0.76100 0.76100 0.51100
C 	C 	0.44160 0.83570 0.83570 0.16600
H 	H 	0.40220 0.85170 0.85170 0.00300
O 	O 	0.61300 0.71810 0.28190 -0.59300
O 	O 	0.67210 0.78300 0.21700 -0.56700
O 	O 	0.55550 0.93119 0.06881 -0.48200
C 	C 	0.55860 0.78840 0.21160 -0.28500
C 	C 	0.62020 0.76100 0.23900 0.51500
C 	C 	0.55840 0.83570 0.16430 0.18200
H 	H 	0.59780 0.85170 0.14830 -0.01800
O 	O 	0.61300 0.28190 0.71810 -0.59300
O 	O 	0.67210 0.21700 0.78300 -0.56700
O 	O 	0.55550 0.06881 0.93119 -0.48200
C 	C 	0.55860 0.21160 0.78840 -0.28500
C 	C 	0.62020 0.23900 0.76100 0.51500
C 	C 	0.55840 0.16430 0.83570 0.18200
H 	H 	0.59780 0.14830 0.85170 -0.01800
O 	O 	0.28190 0.38700 0.28190 -0.60300
O 	O 	0.21700 0.32790 0.21700 -0.59900
O 	O 	0.06881 0.44450 0.06881 -0.56500
C 	C 	0.21160 0.44140 0.21160 -0.31800
C 	C 	0.23900 0.37980 0.23900 0.52300
C 	C 	0.16430 0.44160 0.16430 0.20200
H 	H 	0.14830 0.40220 0.14830 -0.05100
O 	O 	0.71810 0.38700 0.71810 -0.58600
O 	O 	0.78300 0.32790 0.78300 -0.55300
O 	O 	0.93119 0.44450 0.93119 -0.41300
C 	C 	0.78840 0.44140 0.78840 -0.25800
C 	C 	0.76100 0.37980 0.76100 0.51100
C 	C 	0.83570 0.44160 0.83570 0.16600
H 	H 	0.85170 0.40220 0.85170 0.00300
O 	O 	0.28190 0.61300 0.71810 -0.59300
O 	O 	0.21700 0.67210 0.78300 -0.56700
O 	O 	0.06881 0.55550 0.93119 -0.48200
C 	C 	0.21160 0.55860 0.78840 -0.28500
C 	C 	0.23900 0.62020 0.76100 0.51500
C 	C 	0.16430 0.55840 0.83570 0.18200
H 	H 	0.14830 0.59780 0.85170 -0.01800
O 	O 	0.71810 0.61300 0.28190 -0.59300
O 	O 	0.78300 0.67210 0.21700 -0.56700
O 	O 	0.93119 0.55550 0.06881 -0.48200
C 	C 	0.78840 0.55860 0.21160 -0.28500
C 	C 	0.76100 0.62020 0.23900 0.51500
C 	C 	0.83570 0.55840 0.16430 0.18200
H 	H 	0.85170 0.59780 0.14830 -0.01800
O 	O 	0.28190 0.28190 0.61300 -0.60200
O 	O 	0.21700 0.21700 0.67210 -0.59000
O 	O 	0.06881 0.06881 0.55550 -0.55900
C 	C 	0.21160 0.21160 0.55860 -0.31600
C 	C 	0.23900 0.23900 0.62020 0.52100
C 	C 	0.16430 0.16430 0.55840 0.20100
H 	H 	0.14830 0.14830 0.59780 -0.04600
O 	O 	0.71810 0.71810 0.61300 -0.58400
O 	O 	0.78300 0.78300 0.67210 -0.54600
O 	O 	0.93119 0.93119 0.55550 -0.40800
C 	C 	0.78840 0.78840 0.55860 -0.25600
C 	C 	0.76100 0.76100 0.62020 0.50900
C 	C 	0.83570 0.83570 0.55840 0.16400
H 	H 	0.85170 0.85170 0.59780 0.00800
O 	O 	0.28190 0.71810 0.38700 -0.59400
O 	O 	0.21700 0.78300 0.32790 -0.57600
O 	O 	0.06881 0.93119 0.44450 -0.48700
C 	C 	0.21160 0.78840 0.44140 -0.28800
C 	C 	0.23900 0.76100 0.37980 0.51700
C 	C 	0.16430 0.83570 0.44160 0.18300
H 	H 	0.14830 0.85170 0.40220 -0.02300
O 	O 	0.71810 0.28190 0.38700 -0.59400
O 	O 	0.78300 0.21700 0.32790 -0.57600
O 	O 	0.93119 0.06881 0.44450 -0.48700
C 	C 	0.78840 0.21160 0.44140 -0.28800
C 	C 	0.76100 0.23900 0.37980 0.51700
C 	C 	0.83570 0.16430 0.44160 0.18300
H 	H 	0.85170 0.14830 0.40220 -0.02300
O 	O 	0.28190 0.38700 0.71810 -0.59400
O 	O 	0.21700 0.32790 0.78300 -0.57600
O 	O 	0.06881 0.44450 0.93119 -0.48700
C 	C 	0.21160 0.44140 0.78840 -0.28800
C 	C 	0.23900 0.37980 0.76100 0.51700
C 	C 	0.16430 0.44160 0.83570 0.18300
H 	H 	0.14830 0.40220 0.85170 -0.02300
O 	O 	0.71810 0.38700 0.28190 -0.59400
O 	O 	0.78300 0.32790 0.21700 -0.57600
O 	O 	0.93119 0.44450 0.06881 -0.48700
C 	C 	0.78840 0.44140 0.21160 -0.28800
C 	C 	0.76100 0.37980 0.23900 0.51700
C 	C 	0.83570 0.44160 0.16430 0.18300
H 	H 	0.85170 0.40220 0.14830 -0.02300
O 	O 	0.71810 0.61300 0.71810 -0.58400
O 	O 	0.78300 0.67210 0.78300 -0.54600
O 	O 	0.93119 0.55550 0.93119 -0.40800
C 	C 	0.78840 0.55860 0.78840 -0.25600
C 	C 	0.76100 0.62020 0.76100 0.50900
C 	C 	0.83570 0.55840 0.83570 0.16400
H 	H 	0.85170 0.59780 0.85170 0.00800
O 	O 	0.28190 0.61300 0.28190 -0.60200
O 	O 	0.21700 0.67210 0.21700 -0.59000
O 	O 	0.06881 0.55550 0.06881 -0.55900
C 	C 	0.21160 0.55860 0.21160 -0.31600
C 	C 	0.23900 0.62020 0.23900 0.52100
C 	C 	0.16430 0.55840 0.16430 0.20100
H 	H 	0.14830 0.59780 0.14830 -0.04600
O 	O 	0.38700 0.28190 0.71810 -0.59400
O 	O 	0.32790 0.21700 0.78300 -0.57600
O 	O 	0.44450 0.06881 0.93119 -0.48700
C 	C 	0.44140 0.21160 0.78840 -0.28800
C 	C 	0.37980 0.23900 0.76100 0.51700
C 	C 	0.44160 0.16430 0.83570 0.18300
H 	H 	0.40220 0.14830 0.85170 -0.02300
O 	O 	0.38700 0.71810 0.28190 -0.59400
O 	O 	0.32790 0.78300 0.21700 -0.57600
O 	O 	0.44450 0.93119 0.06881 -0.48700
C 	C 	0.44140 0.78840 0.21160 -0.28800
C 	C 	0.37980 0.76100 0.23900 0.51700
C 	C 	0.44160 0.83570 0.16430 0.18300
H 	H 	0.40220 0.85170 0.14830 -0.02300
O 	O 	0.61300 0.28190 0.28190 -0.60200
O 	O 	0.67210 0.21700 0.21700 -0.59000
O 	O 	0.55550 0.06881 0.06881 -0.55900
C 	C 	0.55860 0.21160 0.21160 -0.31600
C 	C 	0.62020 0.23900 0.23900 0.52100
C 	C 	0.55840 0.16430 0.16430 0.20100
H 	H 	0.59780 0.14830 0.14830 -0.04600
O 	O 	0.61300 0.71810 0.71810 -0.58400
O 	O 	0.67210 0.78300 0.78300 -0.54600
O 	O 	0.55550 0.93119 0.93119 -0.40800
C 	C 	0.55860 0.78840 0.78840 -0.25600
C 	C 	0.62020 0.76100 0.76100 0.50900
C 	C 	0.55840 0.83570 0.83570 0.16400
H 	H 	0.59780 0.85170 0.85170 0.00800
C 	C 	0.23390 0.23390 0.50000 0.23300
H 	H 	0.26610 0.26610 0.50000 -0.05900
C 	C 	0.13990 0.13990 0.50000 -0.26900
C 	C 	0.08740 0.08740 0.50000 0.43800
C 	C 	0.76610 0.76610 0.50000 0.20000
H 	H 	0.73390 0.73390 0.50000 -0.03800
C 	C 	0.86010 0.86010 0.50000 -0.18400
C 	C 	0.91260 0.91260 0.50000 0.41600
C 	C 	0.76610 0.23390 0.50000 0.21600
H 	H 	0.73390 0.26610 0.50000 -0.04800
C 	C 	0.86010 0.13990 0.50000 -0.22600
C 	C 	0.91260 0.08740 0.50000 0.42700
C 	C 	0.23390 0.76610 0.50000 0.21600
H 	H 	0.26610 0.73390 0.50000 -0.04800
C 	C 	0.13990 0.86010 0.50000 -0.22600
C 	C 	0.08740 0.91260 0.50000 0.42700
C 	C 	0.50000 0.23390 0.23390 0.23300
H 	H 	0.50000 0.26610 0.26610 -0.05900
C 	C 	0.50000 0.13990 0.13990 -0.26900
C 	C 	0.50000 0.08740 0.08740 0.43800
C 	C 	0.50000 0.76610 0.76610 0.20000
H 	H 	0.50000 0.73390 0.73390 -0.03800
C 	C 	0.50000 0.86010 0.86010 -0.18400
C 	C 	0.50000 0.91260 0.91260 0.41600
C 	C 	0.50000 0.76610 0.23390 0.21600
H 	H 	0.50000 0.73390 0.26610 -0.04800
C 	C 	0.50000 0.86010 0.13990 -0.22600
C 	C 	0.50000 0.91260 0.08740 0.42700
C 	C 	0.50000 0.23390 0.76610 0.21600
H 	H 	0.50000 0.26610 0.73390 -0.04800
C 	C 	0.50000 0.13990 0.86010 -0.22600
C 	C 	0.50000 0.08740 0.91260 0.42700
C 	C 	0.23390 0.50000 0.23390 0.23300
H 	H 	0.26610 0.50000 0.26610 -0.05900
C 	C 	0.13990 0.50000 0.13990 -0.26900
C 	C 	0.08740 0.50000 0.08740 0.43800
C 	C 	0.76610 0.50000 0.76610 0.20000
H 	H 	0.73390 0.50000 0.73390 -0.03800
C 	C 	0.86010 0.50000 0.86010 -0.18400
C 	C 	0.91260 0.50000 0.91260 0.41600
C 	C 	0.23390 0.50000 0.76610 0.21600
H 	H 	0.26610 0.50000 0.73390 -0.04800
C 	C 	0.13990 0.50000 0.86010 -0.22600
C 	C 	0.08740 0.50000 0.91260 0.42700
C 	C 	0.76610 0.50000 0.23390 0.21600
H 	H 	0.73390 0.50000 0.26610 -0.04800
C 	C 	0.86010 0.50000 0.13990 -0.22600
C 	C 	0.91260 0.50000 0.08740 0.42700
