data_crystal

_cell_length_a 14.61160
_cell_length_b 15.56230
_cell_length_c 15.56230
_cell_angle_alpha 112.88700
_cell_angle_beta  95.87530
_cell_angle_gamma 95.87530

_symmetry_space_group_name_	'P 1'
_symmetry_space_group_name_H-M	'P 1'

loop_
_symmetry_equiv_pos_as_xyz
  x,y,z

loop_
_atom_site_label
_atom_site_type_symbol
_atom_site_fract_x
_atom_site_fract_y
_atom_site_fract_z
_atom_site_charge
Cu	Cu	0.48711 0.92203 0.92203 0.91200
Cu	Cu	0.00000 0.00000 0.50000 0.86100
Cu	Cu	0.51289 0.07797 0.07797 0.90100
Cu	Cu	0.00000 0.50000 -0.00000 0.86000
H 	H 	0.68910 0.00480 0.77440 0.07200
H 	H 	0.31090 0.99520 0.22560 0.09200
H 	H 	0.21140 0.51540 0.09660 0.03300
H 	H 	0.73070 0.01270 0.24070 0.04500
H 	H 	0.87600 0.80410 0.22410 0.08800
H 	H 	0.12400 0.19590 0.77590 0.07000
H 	H 	0.78860 0.48460 0.90340 0.03700
H 	H 	0.31090 0.22560 0.99520 0.09200
H 	H 	0.26930 0.98730 0.75930 0.10500
H 	H 	0.21140 0.09660 0.51540 0.03300
H 	H 	0.05580 0.30330 0.89130 -0.03100
H 	H 	0.26930 0.75930 0.98730 0.10500
H 	H 	0.05580 0.89130 0.30330 -0.03100
H 	H 	0.30600 0.04240 0.39380 0.03600
H 	H 	0.30600 0.39380 0.04240 0.03600
H 	H 	0.87600 0.22410 0.80410 0.08800
H 	H 	0.94420 0.69670 0.10870 0.02200
H 	H 	0.94420 0.10870 0.69670 0.02200
H 	H 	0.12400 0.77590 0.19590 0.07000
H 	H 	0.78860 0.90340 0.48460 0.03700
H 	H 	0.68910 0.77440 0.00480 0.07200
H 	H 	0.69400 0.95760 0.60620 0.04000
H 	H 	0.69400 0.60620 0.95760 0.04000
H 	H 	0.73070 0.24070 0.01270 0.04500
C 	C 	0.89340 0.65840 0.06460 0.12300
C 	C 	0.83230 0.82940 0.19700 -0.07100
C 	C 	0.10660 0.34160 0.93540 0.11800
C 	C 	0.78810 0.10580 0.77740 0.10200
C 	C 	0.25530 0.79280 0.04720 -0.08700
C 	C 	0.74470 0.95280 0.20720 0.03100
C 	C 	0.21190 0.22260 0.89420 0.11100
C 	C 	0.83230 0.19700 0.82940 -0.07100
C 	C 	0.16770 0.80300 0.17060 -0.10600
C 	C 	0.86630 0.97870 0.34550 0.36600
C 	C 	0.18720 0.75130 0.08190 -0.02000
C 	C 	0.72000 0.81090 0.06570 -0.07200
C 	C 	0.62360 0.93700 0.07460 0.34600
C 	C 	0.86630 0.34550 0.97870 0.36600
C 	C 	0.13370 0.65450 0.02130 0.29600
C 	C 	0.80780 0.95310 0.54330 0.03100
C 	C 	0.19220 0.45670 0.04690 -0.01100
C 	C 	0.10660 0.93540 0.34160 0.11800
C 	C 	0.78810 0.77740 0.10580 0.10200
C 	C 	0.81280 0.91810 0.24870 -0.05400
C 	C 	0.18720 0.08190 0.75130 -0.02000
C 	C 	0.16770 0.17060 0.80300 -0.10600
C 	C 	0.89340 0.06460 0.65840 0.12300
C 	C 	0.37640 0.92540 0.06300 0.32500
C 	C 	0.69750 0.89880 0.11600 -0.05800
C 	C 	0.19220 0.04690 0.45670 -0.01100
C 	C 	0.74470 0.20720 0.95280 0.03100
C 	C 	0.72000 0.06570 0.81090 -0.07200
C 	C 	0.75600 0.98130 0.60950 0.02200
C 	C 	0.69750 0.11600 0.89880 -0.05800
C 	C 	0.13370 0.02130 0.65450 0.29600
C 	C 	0.80780 0.54330 0.95310 0.03100
C 	C 	0.81280 0.24870 0.91810 -0.05400
C 	C 	0.30250 0.10120 0.88400 -0.01700
C 	C 	0.37640 0.06300 0.92540 0.32500
C 	C 	0.30250 0.88400 0.10120 -0.01700
C 	C 	0.25530 0.04720 0.79280 -0.08700
C 	C 	0.28000 0.18910 0.93430 -0.10300
C 	C 	0.21190 0.89420 0.22260 0.11100
C 	C 	0.62360 0.07460 0.93700 0.34600
C 	C 	0.24400 0.39050 0.01870 -0.01800
C 	C 	0.75600 0.60950 0.98130 0.02200
C 	C 	0.24400 0.01870 0.39050 -0.01800
C 	C 	0.28000 0.93430 0.18910 -0.10300
N 	N 	0.89510 0.57247 0.00733 -0.20500
N 	N 	0.81280 0.05442 0.68638 -0.14700
N 	N 	0.18720 0.31362 0.94558 -0.13700
N 	N 	0.18720 0.94558 0.31362 -0.13700
N 	N 	0.81280 0.68638 0.05442 -0.14700
N 	N 	0.10490 0.42753 0.99267 -0.21300
N 	N 	0.10490 0.99267 0.42753 -0.21300
N 	N 	0.89510 0.00733 0.57247 -0.20500
O 	O 	0.08460 0.61810 0.06430 -0.42100
O 	O 	0.85950 0.38330 0.06050 -0.28800
O 	O 	0.91540 0.93570 0.38190 -0.36100
O 	O 	0.39350 0.98238 0.87642 -0.37600
O 	O 	0.08460 0.06430 0.61810 -0.42100
O 	O 	0.39350 0.87642 0.98238 -0.37600
O 	O 	0.58460 0.88618 0.99202 -0.37800
O 	O 	0.41540 0.11382 0.00798 -0.41800
O 	O 	0.91540 0.38190 0.93570 -0.36100
O 	O 	0.41540 0.00798 0.11382 -0.41800
O 	O 	0.58460 0.99202 0.88618 -0.37800
O 	O 	0.60650 0.01762 0.12358 -0.41100
O 	O 	0.14050 0.93950 0.61670 -0.27500
O 	O 	0.60650 0.12358 0.01762 -0.41100
O 	O 	0.85950 0.06050 0.38330 -0.28800
O 	O 	0.14050 0.61670 0.93950 -0.27500
