data_crystal

_cell_length_a 14.12300
_cell_length_b 33.38000
_cell_length_c 16.83300
_cell_angle_alpha 90.00000
_cell_angle_beta  111.94300
_cell_angle_gamma 90.00000

_symmetry_space_group_name_	'P 1'
_symmetry_space_group_name_H-M	'P 1'

loop_
_symmetry_equiv_pos_as_xyz
  x,y,z

loop_
_atom_site_label
_atom_site_type_symbol
_atom_site_fract_x
_atom_site_fract_y
_atom_site_fract_z
_atom_site_charge
Zn	Zn	0.69052 0.94199 0.67795 1.23600
Zn	Zn	0.90514 0.91262 0.64925 1.23800
Zn	Zn	0.83236 0.63506 0.59789 1.23800
Zn	Zn	0.00422 0.71182 0.58505 1.22300
C 	C 	0.18940 0.72205 0.61180 0.32100
C 	C 	0.29710 0.73364 0.62840 -0.15300
C 	C 	0.34950 0.71109 0.59120 0.10600
H 	H 	0.31790 0.68890 0.55850 0.01000
C 	C 	0.44850 0.72030 0.60090 -0.18600
H 	H 	0.48270 0.70480 0.57420 0.11400
C 	C 	0.49630 0.75262 0.65030 0.13900
C 	C 	0.44360 0.77458 0.69100 -0.19100
H 	H 	0.47670 0.79560 0.72700 0.10600
C 	C 	0.34380 0.76605 0.67940 0.13000
C 	C 	0.29180 0.79280 0.72180 -0.05200
C 	C 	0.20080 0.81203 0.67430 0.03000
H 	H 	0.17000 0.80690 0.61590 0.03200
C 	C 	0.33580 0.80053 0.80810 0.03600
H 	H 	0.39680 0.78800 0.84070 0.03200
C 	C 	0.29090 0.82644 0.84690 -0.13300
C 	C 	0.33580 0.83251 0.94230 0.43000
C 	C 	0.20130 0.84586 0.79900 0.06800
H 	H 	0.17170 0.86380 0.82520 0.04200
C 	C 	0.15550 0.83851 0.71180 -0.11300
C 	C 	0.05640 0.85786 0.66030 0.36500
C 	C 	0.60030 0.76487 0.65850 -0.07600
C 	C 	0.62580 0.80511 0.66660 0.05000
H 	H 	0.57850 0.82380 0.66960 0.03200
C 	C 	0.72060 0.81800 0.67030 -0.15000
C 	C 	0.79300 0.79007 0.66950 0.08300
H 	H 	0.85780 0.79820 0.67420 0.03200
C 	C 	0.76690 0.74964 0.66170 -0.14300
C 	C 	0.67210 0.73778 0.65590 0.04500
H 	H 	0.65570 0.71070 0.65010 0.04300
C 	C 	0.74530 0.86153 0.67640 0.44800
C 	C 	0.84330 0.71911 0.65560 0.44400
C 	C 	0.11250 0.01794 0.25030 0.42800
C 	C 	0.06930 0.97908 0.20910 -0.12600
C 	C 	0.12820 0.95369 0.18030 0.05200
H 	H 	0.19420 0.96110 0.18690 0.05100
C 	C 	0.08950 0.91810 0.14260 -0.09400
C 	C 	0.99090 0.90700 0.13390 0.01200
H 	H 	0.96510 0.88240 0.10920 0.04300
C 	C 	0.93110 0.93182 0.16110 -0.05100
C 	C 	0.97270 0.96804 0.19990 0.02900
H 	H 	0.93400 0.98490 0.21970 0.04000
C 	C 	0.15240 0.88989 0.11140 0.35300
C 	C 	0.82570 0.92066 0.15210 0.11500
C 	C 	0.76310 0.89705 0.08400 -0.15800
H 	H 	0.78640 0.88890 0.04160 0.09500
C 	C 	0.66810 0.88584 0.07940 0.09300
H 	H 	0.62910 0.86870 0.03590 0.01400
C 	C 	0.62890 0.89984 0.13920 -0.16100
C 	C 	0.68710 0.92460 0.20560 0.12600
C 	C 	0.78610 0.93384 0.21170 -0.17300
H 	H 	0.82710 0.94940 0.25740 0.09900
C 	C 	0.52800 0.88250 0.13580 0.41300
C 	C 	0.65320 0.94112 0.27260 -0.04900
C 	C 	0.70940 0.93469 0.35830 0.02500
H 	H 	0.76790 0.91890 0.37420 0.04400
C 	C 	0.68010 0.95131 0.42110 -0.12900
C 	C 	0.59610 0.97640 0.39700 0.05900
H 	H 	0.57750 0.98860 0.43870 0.04500
C 	C 	0.53950 0.98349 0.31150 -0.10400
C 	C 	0.56860 0.96573 0.25070 0.01400
H 	H 	0.53030 0.97040 0.19310 0.06200
C 	C 	0.45030 0.01090 0.28480 0.36500
C 	C 	0.73890 0.94231 0.51340 0.43300
O 	O 	0.13380 0.70836 0.53890 -0.36600
O 	O 	0.15220 0.72641 0.66800 -0.38900
O 	O 	0.99750 0.84232 0.59580 -0.30900
O 	O 	0.03940 0.89096 0.69020 -0.44800
O 	O 	0.28580 0.85259 0.97550 -0.47600
O 	O 	0.42100 0.81733 0.98190 -0.51000
O 	O 	0.67450 0.88515 0.66990 -0.51000
O 	O 	0.83360 0.87144 0.68870 -0.51400
O 	O 	0.92130 0.73197 0.64890 -0.49400
O 	O 	0.82040 0.68327 0.65860 -0.49000
O 	O 	0.06450 0.03688 0.28720 -0.48700
O 	O 	0.19500 0.02894 0.24580 -0.50300
O 	O 	0.24110 0.90242 0.12170 -0.43000
O 	O 	0.11620 0.85787 0.08070 -0.29800
O 	O 	0.52910 0.84631 0.15570 -0.45200
O 	O 	0.45090 0.90205 0.11140 -0.44900
O 	O 	0.39490 0.01340 0.20960 -0.29100
O 	O 	0.43440 0.02835 0.34470 -0.44600
O 	O 	0.70410 0.95534 0.56590 -0.49000
O 	O 	0.81950 0.92345 0.53140 -0.49500
Zn	Zn	0.80948 0.44199 0.82205 1.23700
Zn	Zn	0.59486 0.41262 0.85075 1.23900
Zn	Zn	0.66764 0.13506 0.90211 1.23900
Zn	Zn	0.49578 0.21182 0.91495 1.22400
C 	C 	0.31060 0.22205 0.88820 0.32200
C 	C 	0.20290 0.23364 0.87160 -0.15300
C 	C 	0.15050 0.21109 0.90880 0.10800
H 	H 	0.18210 0.18890 0.94150 0.01000
C 	C 	0.05150 0.22030 0.89910 -0.18800
H 	H 	0.01730 0.20480 0.92580 0.11500
C 	C 	0.00370 0.25262 0.84970 0.14100
C 	C 	0.05640 0.27458 0.80900 -0.19300
H 	H 	0.02330 0.29560 0.77300 0.10700
C 	C 	0.15620 0.26605 0.82060 0.13100
C 	C 	0.20820 0.29280 0.77820 -0.05200
C 	C 	0.29920 0.31203 0.82570 0.03100
H 	H 	0.33000 0.30690 0.88410 0.03200
C 	C 	0.16420 0.30053 0.69190 0.03600
H 	H 	0.10320 0.28800 0.65930 0.03200
C 	C 	0.20910 0.32644 0.65310 -0.13300
C 	C 	0.16420 0.33251 0.55770 0.43000
C 	C 	0.29870 0.34586 0.70100 0.06900
H 	H 	0.32830 0.36380 0.67480 0.04200
C 	C 	0.34450 0.33851 0.78820 -0.11400
C 	C 	0.44360 0.35786 0.83970 0.36700
C 	C 	0.89970 0.26487 0.84150 -0.07900
C 	C 	0.87420 0.30511 0.83340 0.05100
H 	H 	0.92150 0.32380 0.83040 0.03100
C 	C 	0.77940 0.31800 0.82970 -0.15100
C 	C 	0.70700 0.29007 0.83050 0.08400
H 	H 	0.64220 0.29820 0.82580 0.03200
C 	C 	0.73310 0.24964 0.83830 -0.14400
C 	C 	0.82790 0.23778 0.84410 0.04600
H 	H 	0.84430 0.21070 0.84990 0.04300
C 	C 	0.75470 0.36153 0.82360 0.44800
C 	C 	0.65670 0.21911 0.84440 0.44500
C 	C 	0.38750 0.51794 0.24970 0.42800
C 	C 	0.43070 0.47908 0.29090 -0.12500
C 	C 	0.37180 0.45369 0.31970 0.05100
H 	H 	0.30580 0.46110 0.31310 0.05200
C 	C 	0.41050 0.41810 0.35740 -0.09200
C 	C 	0.50910 0.40700 0.36610 0.01100
H 	H 	0.53490 0.38240 0.39080 0.04300
C 	C 	0.56890 0.43182 0.33890 -0.05000
C 	C 	0.52730 0.46804 0.30010 0.02800
H 	H 	0.56600 0.48490 0.28030 0.04000
C 	C 	0.34760 0.38989 0.38860 0.35200
C 	C 	0.67430 0.42066 0.34790 0.11500
C 	C 	0.73690 0.39705 0.41600 -0.15800
H 	H 	0.71360 0.38890 0.45840 0.09500
C 	C 	0.83190 0.38584 0.42060 0.09300
H 	H 	0.87090 0.36870 0.46410 0.01400
C 	C 	0.87110 0.39984 0.36080 -0.16000
C 	C 	0.81290 0.42460 0.29440 0.12500
C 	C 	0.71390 0.43384 0.28830 -0.17200
H 	H 	0.67290 0.44940 0.24260 0.09900
C 	C 	0.97200 0.38250 0.36420 0.41200
C 	C 	0.84680 0.44112 0.22740 -0.04800
C 	C 	0.79060 0.43469 0.14170 0.02400
H 	H 	0.73210 0.41890 0.12580 0.04400
C 	C 	0.81990 0.45131 0.07890 -0.12800
C 	C 	0.90390 0.47640 0.10300 0.05800
H 	H 	0.92250 0.48860 0.06130 0.04500
C 	C 	0.96050 0.48349 0.18850 -0.10400
C 	C 	0.93140 0.46573 0.24930 0.01400
H 	H 	0.96970 0.47040 0.30690 0.06200
C 	C 	0.04970 0.51090 0.21520 0.36500
C 	C 	0.76110 0.44231 0.98660 0.43300
O 	O 	0.36620 0.20836 0.96110 -0.36600
O 	O 	0.34780 0.22641 0.83200 -0.38900
O 	O 	0.50250 0.34232 0.90420 -0.31000
O 	O 	0.46060 0.39096 0.80980 -0.44800
O 	O 	0.21420 0.35259 0.52450 -0.47600
O 	O 	0.07900 0.31733 0.51810 -0.51000
O 	O 	0.82550 0.38515 0.83010 -0.51100
O 	O 	0.66640 0.37144 0.81130 -0.51400
O 	O 	0.57870 0.23197 0.85110 -0.49400
O 	O 	0.67960 0.18327 0.84140 -0.49000
O 	O 	0.43550 0.53688 0.21280 -0.48700
O 	O 	0.30500 0.52894 0.25420 -0.50300
O 	O 	0.25890 0.40242 0.37830 -0.43000
O 	O 	0.38380 0.35787 0.41930 -0.29800
O 	O 	0.97090 0.34631 0.34430 -0.45200
O 	O 	0.04910 0.40205 0.38860 -0.44800
O 	O 	0.10510 0.51340 0.29040 -0.29100
O 	O 	0.06560 0.52835 0.15530 -0.44600
O 	O 	0.79590 0.45534 0.93410 -0.49000
O 	O 	0.68050 0.42345 0.96860 -0.49500
Zn	Zn	0.30948 0.05801 0.32205 1.23700
Zn	Zn	0.09486 0.08738 0.35075 1.23900
Zn	Zn	0.16764 0.36494 0.40211 1.23900
Zn	Zn	0.99578 0.28818 0.41495 1.22400
C 	C 	0.81060 0.27795 0.38820 0.32200
C 	C 	0.70290 0.26636 0.37160 -0.15200
C 	C 	0.65050 0.28891 0.40880 0.10600
H 	H 	0.68210 0.31110 0.44150 0.01000
C 	C 	0.55150 0.27970 0.39910 -0.18600
H 	H 	0.51730 0.29520 0.42580 0.11400
C 	C 	0.50370 0.24738 0.34970 0.13900
C 	C 	0.55640 0.22542 0.30900 -0.19100
H 	H 	0.52330 0.20440 0.27300 0.10600
C 	C 	0.65620 0.23395 0.32060 0.13000
C 	C 	0.70820 0.20720 0.27820 -0.05200
C 	C 	0.79920 0.18797 0.32570 0.03000
H 	H 	0.83000 0.19310 0.38410 0.03200
C 	C 	0.66420 0.19947 0.19190 0.03600
H 	H 	0.60320 0.21200 0.15930 0.03200
C 	C 	0.70910 0.17356 0.15310 -0.13300
C 	C 	0.66420 0.16749 0.05770 0.43000
C 	C 	0.79870 0.15414 0.20100 0.06800
H 	H 	0.82830 0.13620 0.17480 0.04200
C 	C 	0.84450 0.16149 0.28820 -0.11300
C 	C 	0.94360 0.14214 0.33970 0.36500
C 	C 	0.39970 0.23513 0.34150 -0.07600
C 	C 	0.37420 0.19489 0.33340 0.05000
H 	H 	0.42150 0.17620 0.33040 0.03200
C 	C 	0.27940 0.18200 0.32970 -0.15000
C 	C 	0.20700 0.20993 0.33050 0.08300
H 	H 	0.14220 0.20180 0.32580 0.03200
C 	C 	0.23310 0.25036 0.33830 -0.14300
C 	C 	0.32790 0.26222 0.34410 0.04500
H 	H 	0.34430 0.28930 0.34990 0.04300
C 	C 	0.25470 0.13847 0.32360 0.44800
C 	C 	0.15670 0.28089 0.34440 0.44400
C 	C 	0.88750 0.98206 0.74970 0.42800
C 	C 	0.93070 0.02092 0.79090 -0.12600
C 	C 	0.87180 0.04631 0.81970 0.05200
H 	H 	0.80580 0.03890 0.81310 0.05100
C 	C 	0.91050 0.08190 0.85740 -0.09400
C 	C 	0.00910 0.09300 0.86610 0.01200
H 	H 	0.03490 0.11760 0.89080 0.04300
C 	C 	0.06890 0.06818 0.83890 -0.05100
C 	C 	0.02730 0.03196 0.80010 0.02900
H 	H 	0.06600 0.01510 0.78030 0.04000
C 	C 	0.84760 0.11011 0.88860 0.35300
C 	C 	0.17430 0.07934 0.84790 0.11500
C 	C 	0.23690 0.10295 0.91600 -0.15800
H 	H 	0.21360 0.11110 0.95840 0.09500
C 	C 	0.33190 0.11416 0.92060 0.09300
H 	H 	0.37090 0.13130 0.96410 0.01400
C 	C 	0.37110 0.10016 0.86080 -0.16100
C 	C 	0.31290 0.07540 0.79440 0.12600
C 	C 	0.21390 0.06616 0.78830 -0.17300
H 	H 	0.17290 0.05060 0.74260 0.09900
C 	C 	0.47200 0.11750 0.86420 0.41300
C 	C 	0.34680 0.05888 0.72740 -0.04900
C 	C 	0.29060 0.06531 0.64170 0.02500
H 	H 	0.23210 0.08110 0.62580 0.04400
C 	C 	0.31990 0.04869 0.57890 -0.12900
C 	C 	0.40390 0.02360 0.60300 0.05900
H 	H 	0.42250 0.01140 0.56130 0.04500
C 	C 	0.46050 0.01651 0.68850 -0.10400
C 	C 	0.43140 0.03427 0.74930 0.01400
H 	H 	0.46970 0.02960 0.80690 0.06200
C 	C 	0.54970 0.98910 0.71520 0.36500
C 	C 	0.26110 0.05769 0.48660 0.43300
O 	O 	0.86620 0.29164 0.46110 -0.36600
O 	O 	0.84780 0.27359 0.33200 -0.38900
O 	O 	0.00250 0.15768 0.40420 -0.30900
O 	O 	0.96060 0.10904 0.30980 -0.44800
O 	O 	0.71420 0.14741 0.02450 -0.47600
O 	O 	0.57900 0.18267 0.01810 -0.51000
O 	O 	0.32550 0.11485 0.33010 -0.51000
O 	O 	0.16640 0.12856 0.31130 -0.51400
O 	O 	0.07870 0.26803 0.35110 -0.49400
O 	O 	0.17960 0.31673 0.34140 -0.49000
O 	O 	0.93550 0.96312 0.71280 -0.48700
O 	O 	0.80500 0.97106 0.75420 -0.50300
O 	O 	0.75890 0.09758 0.87830 -0.43000
O 	O 	0.88380 0.14213 0.91930 -0.29800
O 	O 	0.47090 0.15369 0.84430 -0.45200
O 	O 	0.54910 0.09795 0.88860 -0.44900
O 	O 	0.60510 0.98660 0.79040 -0.29100
O 	O 	0.56560 0.97165 0.65530 -0.44600
O 	O 	0.29590 0.04466 0.43410 -0.49000
O 	O 	0.18050 0.07655 0.46860 -0.49500
Zn	Zn	0.19052 0.55801 0.17795 1.23700
Zn	Zn	0.40514 0.58738 0.14925 1.23900
Zn	Zn	0.33236 0.86494 0.09789 1.23900
Zn	Zn	0.50422 0.78818 0.08505 1.22400
C 	C 	0.68940 0.77795 0.11180 0.32200
C 	C 	0.79710 0.76636 0.12840 -0.15300
C 	C 	0.84950 0.78891 0.09120 0.10800
H 	H 	0.81790 0.81110 0.05850 0.01000
C 	C 	0.94850 0.77970 0.10090 -0.18800
H 	H 	0.98270 0.79520 0.07420 0.11500
C 	C 	0.99630 0.74738 0.15030 0.14100
C 	C 	0.94360 0.72542 0.19100 -0.19300
H 	H 	0.97670 0.70440 0.22700 0.10700
C 	C 	0.84380 0.73395 0.17940 0.13100
C 	C 	0.79180 0.70720 0.22180 -0.05200
C 	C 	0.70080 0.68797 0.17430 0.03100
H 	H 	0.67000 0.69310 0.11590 0.03200
C 	C 	0.83580 0.69947 0.30810 0.03600
H 	H 	0.89680 0.71200 0.34070 0.03200
C 	C 	0.79090 0.67356 0.34690 -0.13300
C 	C 	0.83580 0.66749 0.44230 0.43000
C 	C 	0.70130 0.65414 0.29900 0.06900
H 	H 	0.67170 0.63620 0.32520 0.04200
C 	C 	0.65550 0.66149 0.21180 -0.11400
C 	C 	0.55640 0.64214 0.16030 0.36700
C 	C 	0.10030 0.73513 0.15850 -0.07900
C 	C 	0.12580 0.69489 0.16660 0.05100
H 	H 	0.07850 0.67620 0.16960 0.03100
C 	C 	0.22060 0.68200 0.17030 -0.15100
C 	C 	0.29300 0.70993 0.16950 0.08400
H 	H 	0.35780 0.70180 0.17420 0.03200
C 	C 	0.26690 0.75036 0.16170 -0.14400
C 	C 	0.17210 0.76222 0.15590 0.04600
H 	H 	0.15570 0.78930 0.15010 0.04300
C 	C 	0.24530 0.63847 0.17640 0.44800
C 	C 	0.34330 0.78089 0.15560 0.44500
C 	C 	0.61250 0.48206 0.75030 0.42800
C 	C 	0.56930 0.52092 0.70910 -0.12500
C 	C 	0.62820 0.54631 0.68030 0.05100
H 	H 	0.69420 0.53890 0.68690 0.05200
C 	C 	0.58950 0.58190 0.64260 -0.09200
C 	C 	0.49090 0.59300 0.63390 0.01100
H 	H 	0.46510 0.61760 0.60920 0.04300
C 	C 	0.43110 0.56818 0.66110 -0.05000
C 	C 	0.47270 0.53196 0.69990 0.02800
H 	H 	0.43400 0.51510 0.71970 0.04000
C 	C 	0.65240 0.61011 0.61140 0.35200
C 	C 	0.32570 0.57934 0.65210 0.11500
C 	C 	0.26310 0.60295 0.58400 -0.15800
H 	H 	0.28640 0.61110 0.54160 0.09500
C 	C 	0.16810 0.61416 0.57940 0.09300
H 	H 	0.12910 0.63130 0.53590 0.01400
C 	C 	0.12890 0.60016 0.63920 -0.16000
C 	C 	0.18710 0.57540 0.70560 0.12500
C 	C 	0.28610 0.56616 0.71170 -0.17200
H 	H 	0.32710 0.55060 0.75740 0.09900
C 	C 	0.02800 0.61750 0.63580 0.41200
C 	C 	0.15320 0.55888 0.77260 -0.04800
C 	C 	0.20940 0.56531 0.85830 0.02400
H 	H 	0.26790 0.58110 0.87420 0.04400
C 	C 	0.18010 0.54869 0.92110 -0.12800
C 	C 	0.09610 0.52360 0.89700 0.05800
H 	H 	0.07750 0.51140 0.93870 0.04500
C 	C 	0.03950 0.51651 0.81150 -0.10400
C 	C 	0.06860 0.53427 0.75070 0.01400
H 	H 	0.03030 0.52960 0.69310 0.06200
C 	C 	0.95030 0.48910 0.78480 0.36500
C 	C 	0.23890 0.55769 0.01340 0.43300
O 	O 	0.63380 0.79164 0.03890 -0.36600
O 	O 	0.65220 0.77359 0.16800 -0.38900
O 	O 	0.49750 0.65768 0.09580 -0.31000
O 	O 	0.53940 0.60904 0.19020 -0.44800
O 	O 	0.78580 0.64741 0.47550 -0.47600
O 	O 	0.92100 0.68267 0.48190 -0.51000
O 	O 	0.17450 0.61485 0.16990 -0.51100
O 	O 	0.33360 0.62856 0.18870 -0.51400
O 	O 	0.42130 0.76803 0.14890 -0.49400
O 	O 	0.32040 0.81673 0.15860 -0.49000
O 	O 	0.56450 0.46312 0.78720 -0.48700
O 	O 	0.69500 0.47106 0.74580 -0.50300
O 	O 	0.74110 0.59758 0.62170 -0.43000
O 	O 	0.61620 0.64213 0.58070 -0.29800
O 	O 	0.02910 0.65369 0.65570 -0.45200
O 	O 	0.95090 0.59795 0.61140 -0.44800
O 	O 	0.89490 0.48660 0.70960 -0.29100
O 	O 	0.93440 0.47165 0.84470 -0.44600
O 	O 	0.20410 0.54466 0.06590 -0.49000
O 	O 	0.31950 0.57655 0.03140 -0.49500
