data_crystal

_cell_length_a 7.67100
_cell_length_b 6.82000
_cell_length_c 25.65800
_cell_angle_alpha 90.00000
_cell_angle_beta  94.01100
_cell_angle_gamma 90.00000

_symmetry_space_group_name_	'P 1'
_symmetry_space_group_name_H-M	'P 1'

loop_
_symmetry_equiv_pos_as_xyz
  x,y,z

loop_
_atom_site_label
_atom_site_type_symbol
_atom_site_fract_x
_atom_site_fract_y
_atom_site_fract_z
_atom_site_charge
Eu	Eu	0.44730 0.53412 0.73131 1.33200
O 	O 	0.35000 0.64500 0.80800 -0.53000
O 	O 	0.53540 0.65100 0.64970 -0.50900
O 	O 	0.42870 0.45800 0.88140 -0.48200
H 	H 	0.46390 0.38130 0.86000 0.19400
C 	C 	0.59900 0.73700 0.51750 0.01400
H 	H 	0.54170 0.63020 0.50170 0.04100
C 	C 	0.27100 0.77200 0.89000 -0.16400
N 	N 	0.15200 0.07800 0.89360 -0.19000
C 	C 	0.70300 0.90800 0.59200 0.08200
H 	H 	0.72880 0.90840 0.62800 -0.02900
C 	C 	0.73300 0.07380 0.50770 0.10100
C 	C 	0.34700 0.61000 0.85620 0.34600
N 	N 	0.74600 0.07300 0.56380 -0.14500
C 	C 	0.23400 0.90700 0.97110 -0.01300
C 	C 	0.78300 0.22000 0.42620 0.04300
H 	H 	0.82040 0.32130 0.40530 -0.08400
C 	C 	0.10800 0.23500 0.97410 -0.09700
H 	H 	0.05800 0.34270 0.95640 0.05600
C 	C 	0.21600 0.94300 0.86900 0.12100
H 	H 	0.22740 0.96190 0.83350 -0.04600
C 	C 	0.66600 0.90900 0.48330 -0.04100
C 	C 	0.78100 0.23300 0.47920 -0.15900
H 	H 	0.81180 0.35030 0.49610 0.06800
C 	C 	0.25100 0.92700 0.03030 -0.03800
H 	H 	0.29840 0.82240 0.04980 0.06900
C 	C 	0.12900 0.24100 0.02730 0.00800
H 	H 	0.09450 0.35310 0.04450 0.04000
C 	C 	0.15700 0.07600 0.94560 0.10400
C 	C 	0.20000 0.08900 0.05640 -0.04100
H 	H 	0.21200 0.09530 0.09260 0.04400
C 	C 	0.62400 0.74700 0.56970 -0.16500
C 	C 	0.65900 0.88600 0.43090 -0.04700
H 	H 	0.61430 0.77520 0.41350 0.01400
C 	C 	0.28200 0.75800 0.94530 0.01200
H 	H 	0.32220 0.64470 0.96220 0.04500
K 	K 	0.93820 0.41410 0.84550 0.57700
O 	O 	0.51700 0.44100 0.58490 -0.32000
C 	C 	0.72600 0.04400 0.40680 -0.09600
H 	H 	0.73340 0.02910 0.37100 -0.01900
C 	C 	0.54500 0.59900 0.60410 0.43200
O 	O 	0.20200 0.34300 0.75600 -0.55600
H 	H 	0.17600 0.37710 0.79100 0.12200
H 	H 	0.23210 0.20660 0.75470 0.15300
O 	O 	0.35060 0.27200 0.66710 -0.41400
H 	H 	0.24910 0.31590 0.64630 0.16800
Eu	Eu	0.44730 0.46588 0.23131 1.33300
O 	O 	0.35000 0.35500 0.30800 -0.53000
O 	O 	0.53540 0.34900 0.14970 -0.50900
O 	O 	0.42870 0.54200 0.38140 -0.48200
H 	H 	0.46390 0.61870 0.36000 0.19400
C 	C 	0.59900 0.26300 0.01750 0.00300
H 	H 	0.54170 0.36980 0.00170 0.04300
C 	C 	0.27100 0.22800 0.39000 -0.16800
N 	N 	0.15200 0.92200 0.39360 -0.19200
C 	C 	0.70300 0.09200 0.09200 0.07800
H 	H 	0.72880 0.09160 0.12800 -0.02800
C 	C 	0.73300 0.92620 0.00770 0.08300
C 	C 	0.34700 0.39000 0.35620 0.34700
N 	N 	0.74600 0.92700 0.06380 -0.14100
C 	C 	0.23400 0.09300 0.47110 -0.02600
C 	C 	0.78300 0.78000 0.92620 0.02500
H 	H 	0.82040 0.67870 0.90530 -0.07800
C 	C 	0.10800 0.76500 0.47410 -0.11500
H 	H 	0.05800 0.65730 0.45640 0.06200
C 	C 	0.21600 0.05700 0.36900 0.12300
H 	H 	0.22740 0.03810 0.33350 -0.04700
C 	C 	0.66600 0.09100 0.98330 -0.02300
C 	C 	0.78100 0.76700 0.97920 -0.13900
H 	H 	0.81180 0.64970 0.99610 0.06300
C 	C 	0.25100 0.07300 0.53030 -0.02300
H 	H 	0.29840 0.17760 0.54980 0.06400
C 	C 	0.12900 0.75900 0.52730 0.02800
H 	H 	0.09450 0.64690 0.54450 0.03400
C 	C 	0.15700 0.92400 0.44560 0.11400
C 	C 	0.20000 0.91100 0.55640 -0.05700
H 	H 	0.21200 0.90470 0.59260 0.04900
C 	C 	0.62400 0.25300 0.06970 -0.15900
C 	C 	0.65900 0.11400 0.93090 -0.06600
H 	H 	0.61430 0.22480 0.91350 0.02100
C 	C 	0.28200 0.24200 0.44530 0.02000
H 	H 	0.32220 0.35530 0.46220 0.04100
K 	K 	0.93820 0.58590 0.34550 0.57700
O 	O 	0.51700 0.55900 0.08490 -0.32000
C 	C 	0.72600 0.95600 0.90680 -0.07700
H 	H 	0.73340 0.97090 0.87100 -0.02500
C 	C 	0.54500 0.40100 0.10410 0.43000
O 	O 	0.20200 0.65700 0.25600 -0.55600
H 	H 	0.17600 0.62290 0.29100 0.12200
H 	H 	0.23210 0.79340 0.25470 0.15300
O 	O 	0.35060 0.72800 0.16710 -0.41400
H 	H 	0.24910 0.68410 0.14630 0.16700
