data_crystal

_cell_length_a 14.11920
_cell_length_b 33.38900
_cell_length_c 16.93800
_cell_angle_alpha 90.00000
_cell_angle_beta  111.66400
_cell_angle_gamma 90.00000

_symmetry_space_group_name_	'P 1'
_symmetry_space_group_name_H-M	'P 1'

loop_
_symmetry_equiv_pos_as_xyz
  x,y,z

loop_
_atom_site_label
_atom_site_type_symbol
_atom_site_fract_x
_atom_site_fract_y
_atom_site_fract_z
_atom_site_charge
Zn	Zn	0.66439 0.13430 0.40264 1.24900
O 	O 	0.54300 0.09520 0.38600 -0.48300
Zn	Zn	0.49470 0.21115 0.41480 1.22500
Zn	Zn	0.31271 0.05949 0.82360 1.23500
Zn	Zn	0.09577 0.08720 0.85130 1.23200
O 	O 	0.58320 0.18490 0.51980 -0.52600
O 	O 	0.71190 0.14720 0.52480 -0.48300
O 	O 	0.96010 0.10930 0.80660 -0.44200
O 	O 	0.00010 0.15660 0.90540 -0.30400
O 	O 	0.84810 0.27600 0.83100 -0.41900
O 	O 	0.86170 0.29350 0.95410 -0.39500
O 	O 	0.33200 0.11740 0.86200 -0.13700
O 	O 	0.16510 0.12990 0.80940 -0.50300
O 	O 	0.07750 0.26940 0.85270 -0.48000
O 	O 	0.17730 0.31860 0.84080 -0.48400
O 	O 	0.75630 0.09690 0.38040 -0.41500
O 	O 	0.88260 0.14070 0.42520 -0.29300
O 	O 	0.79970 0.97290 0.24710 -0.49800
O 	O 	0.93360 0.96390 0.21110 -0.50000
O 	O 	0.48500 0.15040 0.36100 -0.33100
O 	O 	0.18260 0.07840 0.96910 -0.47200
O 	O 	0.30070 0.04650 0.93430 -0.47600
O 	O 	0.58400 0.97540 0.28600 -0.20600
O 	O 	0.56320 0.97180 0.15420 -0.44500
C 	C 	0.66460 0.16820 0.55830 0.47200
C 	C 	0.70780 0.17430 0.64890 -0.15800
C 	C 	0.66370 0.20020 0.69160 0.04800
H 	H 	0.60210 0.21260 0.66070 0.02900
C 	C 	0.70770 0.20760 0.77600 -0.05500
C 	C 	0.79910 0.18860 0.82430 0.02900
H 	H 	0.82900 0.19390 0.88220 0.03200
C 	C 	0.84610 0.16170 0.78670 -0.11400
C 	C 	0.80090 0.15490 0.70330 0.07900
H 	H 	0.83100 0.13640 0.67860 0.04100
C 	C 	0.94400 0.14170 0.83900 0.35500
C 	C 	0.65570 0.23490 0.81710 0.12200
C 	C 	0.70070 0.26840 0.86840 -0.15700
C 	C 	0.64570 0.29140 0.90250 0.10700
H 	H 	0.67660 0.31360 0.93480 0.01000
C 	C 	0.54710 0.28300 0.89120 -0.17400
H 	H 	0.51090 0.29960 0.91420 0.11100
C 	C 	0.50040 0.24820 0.84340 0.12200
C 	C 	0.55410 0.22620 0.80550 -0.17900
H 	H 	0.52200 0.20480 0.77080 0.10100
C 	C 	0.81000 0.27970 0.88400 0.37100
C 	C 	0.39530 0.23660 0.83620 -0.05900
C 	C 	0.37090 0.19560 0.82660 0.03900
H 	H 	0.41740 0.17710 0.82140 0.03600
C 	C 	0.27540 0.18300 0.82510 -0.14800
C 	C 	0.20540 0.21090 0.82720 0.08400
H 	H 	0.14180 0.20250 0.82520 0.03300
C 	C 	0.22790 0.25170 0.83220 -0.13500
C 	C 	0.32280 0.26480 0.83640 0.03000
H 	H 	0.33780 0.29200 0.83920 0.04700
C 	C 	0.15620 0.28300 0.84170 0.42900
C 	C 	0.25300 0.14000 0.82300 0.44400
C 	C 	0.84650 0.10970 0.38990 0.34200
C 	C 	0.90800 0.08180 0.35800 -0.09400
C 	C 	0.86680 0.04620 0.31530 0.05500
H 	H 	0.80010 0.03900 0.30650 0.05100
C 	C 	0.92610 0.02200 0.28630 -0.12800
C 	C 	0.02550 0.03290 0.29890 0.03800
H 	H 	0.06490 0.01560 0.28080 0.03700
C 	C 	0.06730 0.06790 0.33660 -0.07000
C 	C 	0.00680 0.09240 0.36800 0.02000
H 	H 	0.03400 0.11610 0.39610 0.03900
C 	C 	0.88360 0.98330 0.24220 0.44100
C 	C 	0.17270 0.07900 0.34890 0.15600
C 	C 	0.23500 0.10120 0.41720 -0.21700
H 	H 	0.21080 0.11080 0.45780 0.11600
C 	C 	0.33440 0.10910 0.42420 0.17800
H 	H 	0.37660 0.12330 0.47120 -0.02400
C 	C 	0.37220 0.09700 0.36570 -0.27600
C 	C 	0.31100 0.07550 0.29480 0.18600
C 	C 	0.21030 0.06720 0.28680 -0.21500
H 	H 	0.16760 0.05350 0.23900 0.11300
C 	C 	0.47900 0.11060 0.38400 0.60400
C 	C 	0.34580 0.05900 0.22770 -0.06600
C 	C 	0.29140 0.06630 0.14320 0.03800
H 	H 	0.23350 0.08230 0.12820 0.03900
C 	C 	0.32060 0.05040 0.07820 -0.13500
C 	C 	0.40350 0.02610 0.10130 0.06100
H 	H 	0.42380 0.01520 0.05950 0.04500
C 	C 	0.46020 0.01670 0.18860 -0.10400
C 	C 	0.43100 0.03450 0.25010 0.02800
H 	H 	0.46920 0.02990 0.30720 0.06300
C 	C 	0.26600 0.05870 0.98920 0.39800
C 	C 	0.54900 0.98890 0.21400 0.37900
O 	O 	0.55500 0.08310 0.43800 -0.04800
O 	O 	0.32100 0.11640 0.81800 -0.38700
O 	O 	0.50800 0.13100 0.34200 -0.21100
O 	O 	0.61200 0.99250 0.28900 -0.10100
Zn	Zn	0.83561 0.63430 0.09736 1.25000
O 	O 	0.95700 0.59520 0.11400 -0.47900
Zn	Zn	0.00530 0.71115 0.08520 1.22500
Zn	Zn	0.18729 0.55949 0.67640 1.23600
Zn	Zn	0.40423 0.58720 0.64870 1.23300
O 	O 	0.91680 0.68490 0.98020 -0.52500
O 	O 	0.78810 0.64720 0.97520 -0.48200
O 	O 	0.53990 0.60930 0.69340 -0.44100
O 	O 	0.49990 0.65660 0.59460 -0.30700
O 	O 	0.65190 0.77600 0.66900 -0.41700
O 	O 	0.63830 0.79350 0.54590 -0.39300
O 	O 	0.16800 0.61740 0.63800 -0.13600
O 	O 	0.33490 0.62990 0.69060 -0.50400
O 	O 	0.42250 0.76940 0.64730 -0.48100
O 	O 	0.32270 0.81860 0.65920 -0.48500
O 	O 	0.74370 0.59690 0.11960 -0.41400
O 	O 	0.61740 0.64070 0.07480 -0.29300
O 	O 	0.70030 0.47290 0.25290 -0.49800
O 	O 	0.56640 0.46390 0.28890 -0.50000
O 	O 	0.01500 0.65040 0.13900 -0.33600
O 	O 	0.31740 0.57840 0.53090 -0.47200
O 	O 	0.19930 0.54650 0.56570 -0.47600
O 	O 	0.91600 0.47540 0.21400 -0.20600
O 	O 	0.93680 0.47180 0.34580 -0.44500
C 	C 	0.83540 0.66820 0.94170 0.47200
C 	C 	0.79220 0.67430 0.85110 -0.15900
C 	C 	0.83630 0.70020 0.80840 0.04800
H 	H 	0.89790 0.71260 0.83930 0.02900
C 	C 	0.79230 0.70760 0.72400 -0.05600
C 	C 	0.70090 0.68860 0.67570 0.03000
H 	H 	0.67100 0.69390 0.61780 0.03200
C 	C 	0.65390 0.66170 0.71330 -0.11500
C 	C 	0.69910 0.65490 0.79670 0.08000
H 	H 	0.66900 0.63640 0.82140 0.04000
C 	C 	0.55600 0.64170 0.66100 0.36000
C 	C 	0.84430 0.73490 0.68290 0.12300
C 	C 	0.79930 0.76840 0.63160 -0.15700
C 	C 	0.85430 0.79140 0.59750 0.10800
H 	H 	0.82340 0.81360 0.56520 0.01000
C 	C 	0.95290 0.78300 0.60880 -0.17600
H 	H 	0.98910 0.79960 0.58580 0.11200
C 	C 	0.99960 0.74820 0.65660 0.12500
C 	C 	0.94590 0.72620 0.69450 -0.18100
H 	H 	0.97800 0.70480 0.72920 0.10200
C 	C 	0.69000 0.77970 0.61600 0.37100
C 	C 	0.10470 0.73660 0.66380 -0.06100
C 	C 	0.12910 0.69560 0.67340 0.04000
H 	H 	0.08260 0.67710 0.67860 0.03500
C 	C 	0.22460 0.68300 0.67490 -0.14900
C 	C 	0.29460 0.71090 0.67280 0.08500
H 	H 	0.35820 0.70250 0.67480 0.03200
C 	C 	0.27210 0.75170 0.66780 -0.13600
C 	C 	0.17720 0.76480 0.66360 0.03100
H 	H 	0.16220 0.79200 0.66080 0.04600
C 	C 	0.34380 0.78300 0.65830 0.42900
C 	C 	0.24700 0.64000 0.67700 0.44500
C 	C 	0.65350 0.60970 0.11010 0.34100
C 	C 	0.59200 0.58180 0.14200 -0.09400
C 	C 	0.63320 0.54620 0.18470 0.05500
H 	H 	0.69990 0.53900 0.19350 0.05100
C 	C 	0.57390 0.52200 0.21370 -0.12900
C 	C 	0.47450 0.53290 0.20110 0.03900
H 	H 	0.43510 0.51560 0.21920 0.03700
C 	C 	0.43270 0.56790 0.16340 -0.06900
C 	C 	0.49320 0.59240 0.13200 0.01900
H 	H 	0.46600 0.61610 0.10390 0.03900
C 	C 	0.61640 0.48330 0.25780 0.44200
C 	C 	0.32730 0.57900 0.15110 0.15500
C 	C 	0.26500 0.60120 0.08280 -0.21600
H 	H 	0.28920 0.61080 0.04220 0.11500
C 	C 	0.16560 0.60910 0.07580 0.17500
H 	H 	0.12340 0.62330 0.02880 -0.02300
C 	C 	0.12780 0.59700 0.13430 -0.27200
C 	C 	0.18900 0.57550 0.20520 0.18400
C 	C 	0.28970 0.56720 0.21320 -0.21400
H 	H 	0.33240 0.55350 0.26100 0.11300
C 	C 	0.02100 0.61060 0.11600 0.59600
C 	C 	0.15420 0.55900 0.27230 -0.06600
C 	C 	0.20860 0.56630 0.35680 0.03800
H 	H 	0.26650 0.58230 0.37180 0.03900
C 	C 	0.17940 0.55040 0.42180 -0.13500
C 	C 	0.09650 0.52610 0.39870 0.06100
H 	H 	0.07620 0.51520 0.44050 0.04500
C 	C 	0.03980 0.51670 0.31140 -0.10400
C 	C 	0.06900 0.53450 0.24990 0.02800
H 	H 	0.03080 0.52990 0.19280 0.06200
C 	C 	0.23400 0.55870 0.51080 0.39800
C 	C 	0.95100 0.48890 0.28600 0.38000
O 	O 	0.94500 0.58310 0.06200 -0.04700
O 	O 	0.17900 0.61640 0.68200 -0.38700
O 	O 	0.99200 0.63100 0.15800 -0.20200
O 	O 	0.88800 0.49250 0.21100 -0.10100
Zn	Zn	0.33561 0.86570 0.59736 1.25000
O 	O 	0.45700 0.90480 0.61400 -0.48200
Zn	Zn	0.50530 0.78885 0.58520 1.22600
Zn	Zn	0.68729 0.94051 0.17640 1.23600
Zn	Zn	0.90423 0.91280 0.14870 1.23300
O 	O 	0.41680 0.81510 0.48020 -0.52500
O 	O 	0.28810 0.85280 0.47520 -0.48200
O 	O 	0.03990 0.89070 0.19340 -0.44100
O 	O 	0.99990 0.84340 0.09460 -0.30300
O 	O 	0.15190 0.72400 0.16900 -0.41800
O 	O 	0.13830 0.70650 0.04590 -0.39400
O 	O 	0.66800 0.88260 0.13800 -0.13600
O 	O 	0.83490 0.87010 0.19060 -0.50300
O 	O 	0.92250 0.73060 0.14730 -0.48000
O 	O 	0.82270 0.68140 0.15920 -0.48400
O 	O 	0.24370 0.90310 0.61960 -0.41500
O 	O 	0.11740 0.85930 0.57480 -0.29300
O 	O 	0.20030 0.02710 0.75290 -0.49800
O 	O 	0.06640 0.03610 0.78890 -0.50000
O 	O 	0.51500 0.84960 0.63900 -0.33100
O 	O 	0.81740 0.92160 0.03090 -0.47200
O 	O 	0.69930 0.95350 0.06570 -0.47600
O 	O 	0.41600 0.02460 0.71400 -0.20600
O 	O 	0.43680 0.02820 0.84580 -0.44500
C 	C 	0.33540 0.83180 0.44170 0.47200
C 	C 	0.29220 0.82570 0.35110 -0.15800
C 	C 	0.33630 0.79980 0.30840 0.04800
H 	H 	0.39790 0.78740 0.33930 0.02900
C 	C 	0.29230 0.79240 0.22400 -0.05500
C 	C 	0.20090 0.81140 0.17570 0.02900
H 	H 	0.17100 0.80610 0.11780 0.03200
C 	C 	0.15390 0.83830 0.21330 -0.11400
C 	C 	0.19910 0.84510 0.29670 0.07900
H 	H 	0.16900 0.86360 0.32140 0.04100
C 	C 	0.05600 0.85830 0.16100 0.35500
C 	C 	0.34430 0.76510 0.18290 0.12200
C 	C 	0.29930 0.73160 0.13160 -0.15700
C 	C 	0.35430 0.70860 0.09750 0.10700
H 	H 	0.32340 0.68640 0.06520 0.01000
C 	C 	0.45290 0.71700 0.10880 -0.17400
H 	H 	0.48910 0.70040 0.08580 0.11100
C 	C 	0.49960 0.75180 0.15660 0.12200
C 	C 	0.44590 0.77380 0.19450 -0.17900
H 	H 	0.47800 0.79520 0.22920 0.10100
C 	C 	0.19000 0.72030 0.11600 0.37100
C 	C 	0.60470 0.76340 0.16380 -0.05900
C 	C 	0.62910 0.80440 0.17340 0.03900
H 	H 	0.58260 0.82290 0.17860 0.03600
C 	C 	0.72460 0.81700 0.17490 -0.14800
C 	C 	0.79460 0.78910 0.17280 0.08400
H 	H 	0.85820 0.79750 0.17480 0.03300
C 	C 	0.77210 0.74830 0.16780 -0.13500
C 	C 	0.67720 0.73520 0.16360 0.03000
H 	H 	0.66220 0.70800 0.16080 0.04700
C 	C 	0.84380 0.71700 0.15830 0.42900
C 	C 	0.74700 0.86000 0.17700 0.44400
C 	C 	0.15350 0.89030 0.61010 0.34200
C 	C 	0.09200 0.91820 0.64200 -0.09400
C 	C 	0.13320 0.95380 0.68470 0.05500
H 	H 	0.19990 0.96100 0.69350 0.05100
C 	C 	0.07390 0.97800 0.71370 -0.12800
C 	C 	0.97450 0.96710 0.70110 0.03800
H 	H 	0.93510 0.98440 0.71920 0.03700
C 	C 	0.93270 0.93210 0.66340 -0.07000
C 	C 	0.99320 0.90760 0.63200 0.02000
H 	H 	0.96600 0.88390 0.60390 0.03900
C 	C 	0.11640 0.01670 0.75780 0.44100
C 	C 	0.82730 0.92100 0.65110 0.15600
C 	C 	0.76500 0.89880 0.58280 -0.21700
H 	H 	0.78920 0.88920 0.54220 0.11600
C 	C 	0.66560 0.89090 0.57580 0.17800
H 	H 	0.62340 0.87670 0.52880 -0.02400
C 	C 	0.62780 0.90300 0.63430 -0.27600
C 	C 	0.68900 0.92450 0.70520 0.18600
C 	C 	0.78970 0.93280 0.71320 -0.21500
H 	H 	0.83240 0.94650 0.76100 0.11300
C 	C 	0.52100 0.88940 0.61600 0.60400
C 	C 	0.65420 0.94100 0.77230 -0.06600
C 	C 	0.70860 0.93370 0.85680 0.03800
H 	H 	0.76650 0.91770 0.87180 0.03900
C 	C 	0.67940 0.94960 0.92180 -0.13500
C 	C 	0.59650 0.97390 0.89870 0.06100
H 	H 	0.57620 0.98480 0.94050 0.04500
C 	C 	0.53980 0.98330 0.81140 -0.10400
C 	C 	0.56900 0.96550 0.74990 0.02800
H 	H 	0.53080 0.97010 0.69280 0.06300
C 	C 	0.73400 0.94130 0.01080 0.39800
C 	C 	0.45100 0.01110 0.78600 0.37900
O 	O 	0.44500 0.91690 0.56200 -0.04800
O 	O 	0.67900 0.88360 0.18200 -0.38700
O 	O 	0.49200 0.86900 0.65800 -0.21100
O 	O 	0.38800 0.00750 0.71100 -0.10100
Zn	Zn	0.16439 0.36570 0.90264 1.25000
O 	O 	0.04300 0.40480 0.88600 -0.47900
Zn	Zn	0.99470 0.28885 0.91480 1.22500
Zn	Zn	0.81271 0.44051 0.32360 1.23600
Zn	Zn	0.59577 0.41280 0.35130 1.23300
O 	O 	0.08320 0.31510 0.01980 -0.52500
O 	O 	0.21190 0.35280 0.02480 -0.48200
O 	O 	0.46010 0.39070 0.30660 -0.44100
O 	O 	0.50010 0.34340 0.40540 -0.30700
O 	O 	0.34810 0.22400 0.33100 -0.41700
O 	O 	0.36170 0.20650 0.45410 -0.39300
O 	O 	0.83200 0.38260 0.36200 -0.13600
O 	O 	0.66510 0.37010 0.30940 -0.50400
O 	O 	0.57750 0.23060 0.35270 -0.48100
O 	O 	0.67730 0.18140 0.34080 -0.48500
O 	O 	0.25630 0.40310 0.88040 -0.41400
O 	O 	0.38260 0.35930 0.92520 -0.29300
O 	O 	0.29970 0.52710 0.74710 -0.49800
O 	O 	0.43360 0.53610 0.71110 -0.50000
O 	O 	0.98500 0.34960 0.86100 -0.33600
O 	O 	0.68260 0.42160 0.46910 -0.47200
O 	O 	0.80070 0.45350 0.43430 -0.47600
O 	O 	0.08400 0.52460 0.78600 -0.20600
O 	O 	0.06320 0.52820 0.65420 -0.44500
C 	C 	0.16460 0.33180 0.05830 0.47200
C 	C 	0.20780 0.32570 0.14890 -0.15900
C 	C 	0.16370 0.29980 0.19160 0.04800
H 	H 	0.10210 0.28740 0.16070 0.02900
C 	C 	0.20770 0.29240 0.27600 -0.05600
C 	C 	0.29910 0.31140 0.32430 0.03000
H 	H 	0.32900 0.30610 0.38220 0.03200
C 	C 	0.34610 0.33830 0.28670 -0.11500
C 	C 	0.30090 0.34510 0.20330 0.08000
H 	H 	0.33100 0.36360 0.17860 0.04000
C 	C 	0.44400 0.35830 0.33900 0.36000
C 	C 	0.15570 0.26510 0.31710 0.12300
C 	C 	0.20070 0.23160 0.36840 -0.15700
C 	C 	0.14570 0.20860 0.40250 0.10800
H 	H 	0.17660 0.18640 0.43480 0.01000
C 	C 	0.04710 0.21700 0.39120 -0.17600
H 	H 	0.01090 0.20040 0.41420 0.11200
C 	C 	0.00040 0.25180 0.34340 0.12500
C 	C 	0.05410 0.27380 0.30550 -0.18100
H 	H 	0.02200 0.29520 0.27080 0.10200
C 	C 	0.31000 0.22030 0.38400 0.37100
C 	C 	0.89530 0.26340 0.33620 -0.06100
C 	C 	0.87090 0.30440 0.32660 0.04000
H 	H 	0.91740 0.32290 0.32140 0.03500
C 	C 	0.77540 0.31700 0.32510 -0.14900
C 	C 	0.70540 0.28910 0.32720 0.08500
H 	H 	0.64180 0.29750 0.32520 0.03200
C 	C 	0.72790 0.24830 0.33220 -0.13600
C 	C 	0.82280 0.23520 0.33640 0.03100
H 	H 	0.83780 0.20800 0.33920 0.04600
C 	C 	0.65620 0.21700 0.34170 0.42900
C 	C 	0.75300 0.36000 0.32300 0.44500
C 	C 	0.34650 0.39030 0.88990 0.34100
C 	C 	0.40800 0.41820 0.85800 -0.09400
C 	C 	0.36680 0.45380 0.81530 0.05500
H 	H 	0.30010 0.46100 0.80650 0.05100
C 	C 	0.42610 0.47800 0.78630 -0.12900
C 	C 	0.52550 0.46710 0.79890 0.03900
H 	H 	0.56490 0.48440 0.78080 0.03700
C 	C 	0.56730 0.43210 0.83660 -0.06900
C 	C 	0.50680 0.40760 0.86800 0.01900
H 	H 	0.53400 0.38390 0.89610 0.03900
C 	C 	0.38360 0.51670 0.74220 0.44200
C 	C 	0.67270 0.42100 0.84890 0.15500
C 	C 	0.73500 0.39880 0.91720 -0.21600
H 	H 	0.71080 0.38920 0.95780 0.11500
C 	C 	0.83440 0.39090 0.92420 0.17500
H 	H 	0.87660 0.37670 0.97120 -0.02300
C 	C 	0.87220 0.40300 0.86570 -0.27200
C 	C 	0.81100 0.42450 0.79480 0.18400
C 	C 	0.71030 0.43280 0.78680 -0.21400
H 	H 	0.66760 0.44650 0.73900 0.11300
C 	C 	0.97900 0.38940 0.88400 0.59600
C 	C 	0.84580 0.44100 0.72770 -0.06600
C 	C 	0.79140 0.43370 0.64320 0.03800
H 	H 	0.73350 0.41770 0.62820 0.03900
C 	C 	0.82060 0.44960 0.57820 -0.13500
C 	C 	0.90350 0.47390 0.60130 0.06100
H 	H 	0.92380 0.48480 0.55950 0.04500
C 	C 	0.96020 0.48330 0.68860 -0.10400
C 	C 	0.93100 0.46550 0.75010 0.02800
H 	H 	0.96920 0.47010 0.80720 0.06200
C 	C 	0.76600 0.44130 0.48920 0.39800
C 	C 	0.04900 0.51110 0.71400 0.38000
O 	O 	0.05500 0.41690 0.93800 -0.04700
O 	O 	0.82100 0.38360 0.31800 -0.38700
O 	O 	0.00800 0.36900 0.84200 -0.20200
O 	O 	0.11200 0.50750 0.78900 -0.10100
