data_crystal

_cell_length_a 28.04400
_cell_length_b 9.62620
_cell_length_c 8.25460
_cell_angle_alpha 90.00000
_cell_angle_beta  90.00000
_cell_angle_gamma 90.00000

_symmetry_space_group_name_	'P 1'
_symmetry_space_group_name_H-M	'P 1'

loop_
_symmetry_equiv_pos_as_xyz
  x,y,z

loop_
_atom_site_label
_atom_site_type_symbol
_atom_site_fract_x
_atom_site_fract_y
_atom_site_fract_z
_atom_site_charge
Eu	Eu	0.99623 0.41456 0.90702 1.98700
O 	O 	0.07212 0.47520 0.00050 -0.51600
O 	O 	0.06308 0.61050 0.21430 -0.54000
O 	O 	0.45088 0.88580 0.96560 -0.54400
O 	O 	0.45931 0.79580 0.21110 -0.54400
O 	O 	0.22818 0.77700 0.35010 -0.15900
O 	O 	0.30042 0.56220 0.31610 -0.15700
O 	O 	0.97706 0.41210 0.21260 -0.61200
O 	O 	0.92638 0.30480 0.05230 -0.46000
C 	C 	0.08804 0.55590 0.10600 0.48000
C 	C 	0.13999 0.59170 0.10330 -0.08800
C 	C 	0.16841 0.55480 0.97250 -0.00900
H 	H 	0.15580 0.50450 0.88650 0.03600
C 	C 	0.21595 0.59430 0.97240 -0.11200
H 	H 	0.23490 0.57040 0.88430 0.07200
C 	C 	0.23611 0.66770 0.09860 0.01900
C 	C 	0.20689 0.70210 0.23170 0.10200
C 	C 	0.15893 0.66590 0.23360 -0.07100
H 	H 	0.13970 0.69090 0.32060 0.07000
C 	C 	0.28735 0.70800 0.09670 0.03700
C 	C 	0.30460 0.79350 0.97840 -0.13200
H 	H 	0.28380 0.82730 0.90000 0.07400
C 	C 	0.35242 0.83160 0.97160 0.01500
H 	H 	0.36340 0.88940 0.88940 0.02100
C 	C 	0.38329 0.78250 0.08830 -0.11600
C 	C 	0.36676 0.69300 0.20690 -0.04000
H 	H 	0.38760 0.65860 0.28480 0.04200
C 	C 	0.31911 0.65470 0.20950 0.09100
C 	C 	0.43480 0.82470 0.08790 0.50000
C 	C 	0.20600 0.78320 0.50380 -0.23400
H 	H 	0.22480 0.83960 0.57530 0.11300
H 	H 	0.20330 0.69110 0.54750 0.11100
H 	H 	0.17480 0.82310 0.49280 0.11000
C 	C 	0.32740 0.51610 0.44440 -0.19900
H 	H 	0.30890 0.45290 0.50870 0.10200
H 	H 	0.33690 0.59390 0.50960 0.09100
H 	H 	0.35520 0.46940 0.40430 0.09200
C 	C 	0.93970 0.34190 0.18740 0.50300
H 	H 	0.92110 0.31690 0.27620 -0.14100
Eu	Eu	0.00377 0.58544 0.40702 2.04400
O 	O 	0.92788 0.52480 0.50050 -0.54300
O 	O 	0.93692 0.38950 0.71430 -0.54400
O 	O 	0.54912 0.11420 0.46560 -0.51600
O 	O 	0.54069 0.20420 0.71110 -0.54200
O 	O 	0.77182 0.22300 0.85010 -0.22300
O 	O 	0.69958 0.43780 0.81610 -0.09400
O 	O 	0.02294 0.58790 0.71260 -0.62700
O 	O 	0.07362 0.69520 0.55230 -0.49100
C 	C 	0.91196 0.44410 0.60600 0.48800
C 	C 	0.86001 0.40830 0.60330 -0.11800
C 	C 	0.83159 0.44520 0.47250 0.02000
H 	H 	0.84420 0.49550 0.38650 0.03500
C 	C 	0.78405 0.40570 0.47240 -0.07300
H 	H 	0.76510 0.42960 0.38430 0.06600
C 	C 	0.76389 0.33230 0.59860 -0.02400
C 	C 	0.79311 0.29790 0.73170 0.12900
C 	C 	0.84107 0.33410 0.73360 -0.07800
H 	H 	0.86030 0.30910 0.82060 0.06800
C 	C 	0.71265 0.29200 0.59670 0.03700
C 	C 	0.69540 0.20650 0.47840 -0.12200
H 	H 	0.71620 0.17270 0.40000 0.08300
C 	C 	0.64758 0.16840 0.47160 0.06000
H 	H 	0.63660 0.11060 0.38940 0.01500
C 	C 	0.61671 0.21750 0.58830 -0.15600
C 	C 	0.63324 0.30700 0.70690 -0.01200
H 	H 	0.61240 0.34140 0.78480 0.02400
C 	C 	0.68089 0.34530 0.70950 0.04900
C 	C 	0.56520 0.17530 0.58790 0.48000
C 	C 	0.79400 0.21680 0.00380 0.00800
H 	H 	0.77520 0.16040 0.07530 0.05600
H 	H 	0.79670 0.30890 0.04750 0.05000
H 	H 	0.82520 0.17690 0.99280 0.01600
C 	C 	0.67260 0.48390 0.94440 -0.52300
H 	H 	0.69110 0.54710 0.00870 0.21800
H 	H 	0.66310 0.40610 0.00960 0.21100
H 	H 	0.64480 0.53060 0.90430 0.17800
C 	C 	0.06030 0.65810 0.68740 0.50800
H 	H 	0.07890 0.68310 0.77620 -0.15400
Eu	Eu	0.49623 0.08544 0.90702 1.98400
O 	O 	0.57212 0.02480 0.00050 -0.50100
O 	O 	0.56308 0.88950 0.21430 -0.53700
O 	O 	0.95088 0.61420 0.96560 -0.54600
O 	O 	0.95931 0.70420 0.21110 -0.54500
O 	O 	0.72818 0.72300 0.35010 -0.15700
O 	O 	0.80042 0.93780 0.31610 -0.14300
O 	O 	0.47706 0.08790 0.21260 -0.60800
O 	O 	0.42638 0.19520 0.05230 -0.45900
C 	C 	0.58804 0.94410 0.10600 0.46300
C 	C 	0.63999 0.90830 0.10330 -0.08800
C 	C 	0.66841 0.94520 0.97250 -0.00900
H 	H 	0.65580 0.99550 0.88650 0.03500
C 	C 	0.71595 0.90570 0.97240 -0.10700
H 	H 	0.73490 0.92960 0.88430 0.07000
C 	C 	0.73611 0.83230 0.09860 0.01300
C 	C 	0.70689 0.79790 0.23170 0.10400
C 	C 	0.65893 0.83410 0.23360 -0.07400
H 	H 	0.63970 0.80910 0.32060 0.07100
C 	C 	0.78735 0.79200 0.09670 0.04200
C 	C 	0.80460 0.70650 0.97840 -0.13500
H 	H 	0.78380 0.67270 0.90000 0.07500
C 	C 	0.85242 0.66840 0.97160 0.01600
H 	H 	0.86340 0.61060 0.88940 0.02200
C 	C 	0.88329 0.71750 0.08830 -0.11700
C 	C 	0.86676 0.80700 0.20690 -0.03500
H 	H 	0.88760 0.84140 0.28480 0.03900
C 	C 	0.81911 0.84530 0.20950 0.08100
C 	C 	0.93480 0.67530 0.08790 0.50600
C 	C 	0.70600 0.71680 0.50380 -0.23700
H 	H 	0.72480 0.66040 0.57530 0.11500
H 	H 	0.70330 0.80890 0.54750 0.11100
H 	H 	0.67480 0.67690 0.49280 0.11200
C 	C 	0.82740 0.98390 0.44440 -0.27500
H 	H 	0.80890 0.04710 0.50870 0.12900
H 	H 	0.83690 0.90610 0.50960 0.11300
H 	H 	0.85520 0.03060 0.40430 0.12000
C 	C 	0.43970 0.15810 0.18740 0.50200
H 	H 	0.42110 0.18310 0.27620 -0.14000
Eu	Eu	0.50377 0.91456 0.40702 2.03500
O 	O 	0.42788 0.97520 0.50050 -0.55100
O 	O 	0.43692 0.11050 0.71430 -0.54500
O 	O 	0.04912 0.38580 0.46560 -0.52000
O 	O 	0.04069 0.29580 0.71110 -0.54300
O 	O 	0.27182 0.27700 0.85010 -0.22000
O 	O 	0.19958 0.06220 0.81610 -0.10500
O 	O 	0.52294 0.91210 0.71260 -0.62700
O 	O 	0.57362 0.80480 0.55230 -0.49000
C 	C 	0.41196 0.05590 0.60600 0.49800
C 	C 	0.36001 0.09170 0.60330 -0.12100
C 	C 	0.33159 0.05480 0.47250 0.02400
H 	H 	0.34420 0.00450 0.38650 0.03700
C 	C 	0.28405 0.09430 0.47240 -0.07500
H 	H 	0.26510 0.07040 0.38430 0.06900
C 	C 	0.26389 0.16770 0.59860 -0.02000
C 	C 	0.29311 0.20210 0.73170 0.12600
C 	C 	0.34107 0.16590 0.73360 -0.07400
H 	H 	0.36030 0.19090 0.82060 0.06700
C 	C 	0.21265 0.20800 0.59670 0.03400
C 	C 	0.19540 0.29350 0.47840 -0.11900
H 	H 	0.21620 0.32730 0.40000 0.08100
C 	C 	0.14758 0.33160 0.47160 0.05900
H 	H 	0.13660 0.38940 0.38940 0.01400
C 	C 	0.11671 0.28250 0.58830 -0.15400
C 	C 	0.13324 0.19300 0.70690 -0.01500
H 	H 	0.11240 0.15860 0.78480 0.02600
C 	C 	0.18089 0.15470 0.70950 0.05600
C 	C 	0.06520 0.32470 0.58790 0.48000
C 	C 	0.29400 0.28320 0.00380 -0.00300
H 	H 	0.27520 0.33960 0.07530 0.05700
H 	H 	0.29670 0.19110 0.04750 0.05500
H 	H 	0.32520 0.32310 0.99280 0.01900
C 	C 	0.17260 0.01610 0.94440 -0.46500
H 	H 	0.19110 0.95290 0.00870 0.19300
H 	H 	0.16310 0.09390 0.00960 0.19800
H 	H 	0.14480 0.96940 0.90430 0.15800
C 	C 	0.56030 0.84190 0.68740 0.50800
H 	H 	0.57890 0.81690 0.77620 -0.15400
