data_crystal

_cell_length_a 27.95100
_cell_length_b 9.61240
_cell_length_c 8.19370
_cell_angle_alpha 90.00000
_cell_angle_beta  90.00000
_cell_angle_gamma 90.00000

_symmetry_space_group_name_	'P 1'
_symmetry_space_group_name_H-M	'P 1'

loop_
_symmetry_equiv_pos_as_xyz
  x,y,z

loop_
_atom_site_label
_atom_site_type_symbol
_atom_site_fract_x
_atom_site_fract_y
_atom_site_fract_z
_atom_site_charge
Dy	Dy	0.00377 0.58480 0.09288 1.86400
O 	O 	0.92928 0.52300 0.99940 -0.49700
O 	O 	0.93764 0.38720 0.78290 -0.52400
O 	O 	0.54863 0.11040 0.03510 -0.52600
O 	O 	0.54097 0.20140 0.78550 -0.52100
O 	O 	0.77186 0.22100 0.64890 -0.15700
O 	O 	0.69966 0.43820 0.68460 -0.15600
O 	O 	0.02158 0.58780 0.78790 -0.58900
O 	O 	0.07243 0.69450 0.94800 -0.45300
C 	C 	0.91317 0.44100 0.89200 0.47100
C 	C 	0.86104 0.40510 0.89620 -0.08200
C 	C 	0.83282 0.44570 0.02990 -0.01400
H 	H 	0.84560 0.49770 0.11520 0.03900
C 	C 	0.78456 0.40440 0.02970 -0.10400
H 	H 	0.76560 0.42670 0.11920 0.07000
C 	C 	0.76428 0.33200 0.90170 0.01700
C 	C 	0.79350 0.29580 0.76990 0.10100
C 	C 	0.84133 0.33370 0.76830 -0.07200
H 	H 	0.86030 0.31030 0.67910 0.07300
C 	C 	0.71251 0.29380 0.90800 0.03300
C 	C 	0.69562 0.20610 0.02430 -0.12300
H 	H 	0.71670 0.17050 0.10170 0.07200
C 	C 	0.64743 0.16800 0.03080 0.00600
H 	H 	0.63630 0.11030 0.11370 0.02700
C 	C 	0.61657 0.21660 0.91320 -0.10100
C 	C 	0.63333 0.30620 0.79370 -0.05000
H 	H 	0.61250 0.34050 0.71500 0.05000
C 	C 	0.68070 0.34430 0.79160 0.09500
C 	C 	0.56468 0.17230 0.91250 0.48200
C 	C 	0.79380 0.21600 0.49330 -0.23900
H 	H 	0.77500 0.15940 0.42140 0.11600
H 	H 	0.82530 0.17680 0.50340 0.11200
H 	H 	0.79620 0.30850 0.44970 0.11300
C 	C 	0.67260 0.48170 0.55000 -0.21400
H 	H 	0.69090 0.54690 0.48680 0.10700
H 	H 	0.64370 0.52540 0.58740 0.09700
H 	H 	0.66470 0.40270 0.48370 0.09800
C 	C 	0.05930 0.65580 0.81340 0.50900
H 	H 	0.07830 0.67810 0.72410 -0.14000
Dy	Dy	0.99623 0.41520 0.59288 1.91400
O 	O 	0.07072 0.47700 0.49940 -0.52000
O 	O 	0.06236 0.61280 0.28290 -0.52600
O 	O 	0.45137 0.88960 0.53510 -0.50000
O 	O 	0.45903 0.79860 0.28550 -0.51900
O 	O 	0.22814 0.77900 0.14890 -0.21500
O 	O 	0.30034 0.56180 0.18460 -0.10500
O 	O 	0.97842 0.41220 0.28790 -0.60100
O 	O 	0.92757 0.30550 0.44800 -0.48200
C 	C 	0.08683 0.55900 0.39200 0.47800
C 	C 	0.13896 0.59490 0.39620 -0.10900
C 	C 	0.16718 0.55430 0.52990 0.01200
H 	H 	0.15440 0.50230 0.61520 0.03900
C 	C 	0.21544 0.59560 0.52970 -0.06800
H 	H 	0.23440 0.57330 0.61920 0.06400
C 	C 	0.23572 0.66800 0.40170 -0.02200
C 	C 	0.20650 0.70420 0.26990 0.12400
C 	C 	0.15867 0.66630 0.26830 -0.07800
H 	H 	0.13970 0.68970 0.17910 0.07100
C 	C 	0.28749 0.70620 0.40800 0.03000
C 	C 	0.30438 0.79390 0.52430 -0.11100
H 	H 	0.28330 0.82950 0.60170 0.07900
C 	C 	0.35257 0.83200 0.53080 0.04600
H 	H 	0.36370 0.88970 0.61370 0.02200
C 	C 	0.38343 0.78340 0.41320 -0.13600
C 	C 	0.36667 0.69380 0.29370 -0.02700
H 	H 	0.38750 0.65950 0.21500 0.03400
C 	C 	0.31930 0.65570 0.29160 0.06100
C 	C 	0.43532 0.82770 0.41250 0.46400
C 	C 	0.20620 0.78400 0.99330 -0.01800
H 	H 	0.22500 0.84060 0.92140 0.06300
H 	H 	0.17470 0.82320 0.00340 0.02700
H 	H 	0.20380 0.69150 0.94970 0.05700
C 	C 	0.32740 0.51830 0.05000 -0.49300
H 	H 	0.30910 0.45310 0.98680 0.20800
H 	H 	0.35630 0.47460 0.08740 0.17100
H 	H 	0.33530 0.59730 0.98370 0.20300
C 	C 	0.94070 0.34420 0.31340 0.51500
H 	H 	0.92170 0.32190 0.22410 -0.15200
Dy	Dy	0.50377 0.91520 0.09288 1.86100
O 	O 	0.42928 0.97700 0.99940 -0.48300
O 	O 	0.43764 0.11280 0.78290 -0.51900
O 	O 	0.04863 0.38960 0.03510 -0.52700
O 	O 	0.04097 0.29860 0.78550 -0.52100
O 	O 	0.27186 0.27900 0.64890 -0.15500
O 	O 	0.19966 0.06180 0.68460 -0.14500
O 	O 	0.52158 0.91220 0.78790 -0.58400
O 	O 	0.57243 0.80550 0.94800 -0.45200
C 	C 	0.41317 0.05900 0.89200 0.45600
C 	C 	0.36104 0.09490 0.89620 -0.08200
C 	C 	0.33282 0.05430 0.02990 -0.01400
H 	H 	0.34560 0.00230 0.11520 0.03900
C 	C 	0.28456 0.09560 0.02970 -0.10000
H 	H 	0.26560 0.07330 0.11920 0.06800
C 	C 	0.26428 0.16800 0.90170 0.01100
C 	C 	0.29350 0.20420 0.76990 0.10200
C 	C 	0.34133 0.16630 0.76830 -0.07400
H 	H 	0.36030 0.18970 0.67910 0.07400
C 	C 	0.21251 0.20620 0.90800 0.03700
C 	C 	0.19562 0.29390 0.02430 -0.12500
H 	H 	0.21670 0.32950 0.10170 0.07300
C 	C 	0.14743 0.33200 0.03080 0.00700
H 	H 	0.13630 0.38970 0.11370 0.02800
C 	C 	0.11657 0.28340 0.91320 -0.10100
C 	C 	0.13333 0.19380 0.79370 -0.04600
H 	H 	0.11250 0.15950 0.71500 0.04700
C 	C 	0.18070 0.15570 0.79160 0.08800
C 	C 	0.06468 0.32770 0.91250 0.48800
C 	C 	0.29380 0.28400 0.49330 -0.24100
H 	H 	0.27500 0.34060 0.42140 0.11800
H 	H 	0.32530 0.32320 0.50340 0.11400
H 	H 	0.29620 0.19150 0.44970 0.11300
C 	C 	0.17260 0.01830 0.55000 -0.27600
H 	H 	0.19090 0.95310 0.48680 0.12900
H 	H 	0.14370 0.97460 0.58740 0.12100
H 	H 	0.16470 0.09730 0.48370 0.11600
C 	C 	0.55930 0.84420 0.81340 0.50800
H 	H 	0.57830 0.82190 0.72410 -0.13900
Dy	Dy	0.49623 0.08480 0.59288 1.90700
O 	O 	0.57072 0.02300 0.49940 -0.52700
O 	O 	0.56236 0.88720 0.28290 -0.52700
O 	O 	0.95137 0.61040 0.53510 -0.50300
O 	O 	0.95903 0.70140 0.28550 -0.51900
O 	O 	0.72814 0.72100 0.14890 -0.21200
O 	O 	0.80034 0.93820 0.18460 -0.11300
O 	O 	0.47842 0.08780 0.28790 -0.60200
O 	O 	0.42757 0.19450 0.44800 -0.48100
C 	C 	0.58683 0.94100 0.39200 0.48700
C 	C 	0.63896 0.90510 0.39620 -0.11200
C 	C 	0.66718 0.94570 0.52990 0.01600
H 	H 	0.65440 0.99770 0.61520 0.04100
C 	C 	0.71544 0.90440 0.52970 -0.07000
H 	H 	0.73440 0.92670 0.61920 0.06700
C 	C 	0.73572 0.83200 0.40170 -0.01800
C 	C 	0.70650 0.79580 0.26990 0.12200
C 	C 	0.65867 0.83370 0.26830 -0.07400
H 	H 	0.63970 0.81030 0.17910 0.07000
C 	C 	0.78749 0.79380 0.40800 0.02800
C 	C 	0.80438 0.70610 0.52430 -0.10900
H 	H 	0.78330 0.67050 0.60170 0.07800
C 	C 	0.85257 0.66800 0.53080 0.04500
H 	H 	0.86370 0.61030 0.61370 0.02100
C 	C 	0.88343 0.71660 0.41320 -0.13500
C 	C 	0.86667 0.80620 0.29370 -0.02900
H 	H 	0.88750 0.84050 0.21500 0.03600
C 	C 	0.81930 0.84430 0.29160 0.06700
C 	C 	0.93532 0.67230 0.41250 0.46500
C 	C 	0.70620 0.71600 0.99330 -0.02900
H 	H 	0.72500 0.65940 0.92140 0.06500
H 	H 	0.67470 0.67680 0.00340 0.03000
H 	H 	0.70380 0.80850 0.94970 0.06200
C 	C 	0.82740 0.98170 0.05000 -0.44600
H 	H 	0.80910 0.04690 0.98680 0.18700
H 	H 	0.85630 0.02540 0.08740 0.15400
H 	H 	0.83530 0.90270 0.98370 0.19200
C 	C 	0.44070 0.15580 0.31340 0.51400
H 	H 	0.42170 0.17810 0.22410 -0.15200
