data_crystal

_cell_length_a 11.17530
_cell_length_b 27.60900
_cell_length_c 27.60900
_cell_angle_alpha 87.65260
_cell_angle_beta  78.32360
_cell_angle_gamma 78.32370

_symmetry_space_group_name_	'P 1'
_symmetry_space_group_name_H-M	'P 1'

loop_
_symmetry_equiv_pos_as_xyz
  x,y,z

loop_
_atom_site_label
_atom_site_type_symbol
_atom_site_fract_x
_atom_site_fract_y
_atom_site_fract_z
_atom_site_charge
Zn	Zn	0.39435 0.45855 0.45975 1.17700
Zn	Zn	0.31265 0.54145 0.54025 1.17700
Zn	Zn	0.10410 0.04025 0.95855 1.17800
Zn	Zn	0.10290 0.95975 0.04145 1.17900
Zn	Zn	0.93735 0.95975 0.95855 1.18700
Zn	Zn	0.85565 0.04025 0.04145 1.17200
Zn	Zn	0.14710 0.45855 0.54025 1.17700
Zn	Zn	0.14590 0.54145 0.45975 1.17700
Zn	Zn	0.41168 0.17664 -0.00000 1.21300
Zn	Zn	0.58832 0.82336 -0.00000 1.21200
Zn	Zn	0.66168 0.50000 0.67664 1.21700
Zn	Zn	0.83832 0.50000 0.32336 1.21700
Zn	Zn	0.41324 0.00000 0.17352 1.21100
Zn	Zn	0.58676 0.00000 0.82648 1.21100
Zn	Zn	0.83676 0.32648 0.50000 1.21700
Zn	Zn	0.66324 0.67352 0.50000 1.21600
H 	H 	0.41380 0.13470 0.09130 0.14900
H 	H 	0.44700 0.10170 0.13270 0.16600
H 	H 	0.22570 0.12890 0.96550 -0.01400
H 	H 	0.21800 0.97330 0.12950 -0.00900
H 	H 	0.57370 0.32680 0.32940 0.03600
H 	H 	0.55050 0.28910 0.25910 0.06100
H 	H 	0.20830 0.37350 0.26930 0.07700
H 	H 	0.23150 0.41110 0.33950 0.03700
H 	H 	0.47410 0.23880 0.22320 0.06200
H 	H 	0.46960 0.20200 0.14980 0.03600
H 	H 	0.24470 0.32480 0.11320 0.03200
H 	H 	0.24920 0.36170 0.18650 0.07500
H 	H 	0.03770 0.97430 0.29390 0.02900
H 	H 	0.93460 0.91990 0.34390 0.08400
H 	H 	0.21430 0.80690 0.29210 0.07100
H 	H 	0.31750 0.86140 0.24200 0.02900
H 	H 	0.63980 0.86530 0.90870 0.15100
H 	H 	0.68140 0.89830 0.86730 0.16900
H 	H 	0.32010 0.87110 0.03450 0.00400
H 	H 	0.32080 0.02670 0.87050 -0.05300
H 	H 	0.22990 0.67320 0.67060 0.03600
H 	H 	0.09870 0.71090 0.74090 0.06100
H 	H 	0.85110 0.62650 0.73070 0.07500
H 	H 	0.98210 0.58890 0.66050 0.04200
H 	H 	0.93610 0.76120 0.77680 0.06200
H 	H 	0.82140 0.79800 0.85020 0.03800
H 	H 	0.68270 0.67520 0.88680 0.03700
H 	H 	0.79740 0.63830 0.81350 0.07600
H 	H 	0.30590 0.02570 0.70610 0.02100
H 	H 	0.19840 0.08010 0.65610 0.07600
H 	H 	0.31330 0.19310 0.70790 0.07100
H 	H 	0.42090 0.13860 0.75800 0.02700
H 	H 	0.75510 0.40870 0.63470 0.15000
H 	H 	0.82970 0.36730 0.60170 0.16800
H 	H 	0.44120 0.53450 0.62890 -0.00500
H 	H 	0.59750 0.37050 0.47330 -0.03100
H 	H 	0.15310 0.17060 0.82680 0.03800
H 	H 	0.05960 0.24090 0.78910 0.06100
H 	H 	0.72760 0.23070 0.87350 0.07700
H 	H 	0.82100 0.16050 0.91110 0.04100
H 	H 	0.94730 0.27680 0.73880 0.06200
H 	H 	0.86940 0.35020 0.70200 0.03700
H 	H 	0.60790 0.38680 0.82480 0.03600
H 	H 	0.68570 0.31350 0.86170 0.07700
H 	H 	0.58160 0.20610 0.47430 0.02500
H 	H 	0.52850 0.15610 0.41990 0.07700
H 	H 	0.75640 0.20790 0.30690 0.07000
H 	H 	0.80950 0.25800 0.36140 0.02800
H 	H 	0.79850 0.59130 0.36530 0.15000
H 	H 	0.79870 0.63270 0.39830 0.16800
H 	H 	0.60460 0.46550 0.37110 -0.00500
H 	H 	0.44130 0.62950 0.52670 -0.03100
H 	H 	0.15050 0.82940 0.17320 0.03400
H 	H 	0.08960 0.75910 0.21090 0.06300
H 	H 	0.83180 0.76930 0.12650 0.07900
H 	H 	0.89260 0.83950 0.08890 0.03300
H 	H 	0.96290 0.72320 0.26120 0.06100
H 	H 	0.92160 0.64980 0.29800 0.03700
H 	H 	0.81950 0.61320 0.17520 0.03400
H 	H 	0.86090 0.68650 0.13830 0.07400
H 	H 	0.26200 0.79390 0.52570 0.02600
H 	H 	0.10450 0.84390 0.58010 0.08000
H 	H 	0.27120 0.79210 0.69310 0.07100
H 	H 	0.42890 0.74200 0.63860 0.02800
H 	H 	0.61020 0.59130 0.63470 0.15000
H 	H 	0.56860 0.63270 0.60170 0.16700
H 	H 	0.92990 0.46550 0.62890 -0.00500
H 	H 	0.92920 0.62950 0.47330 -0.03000
H 	H 	0.02010 0.82940 0.82680 0.03500
H 	H 	0.15130 0.75910 0.78910 0.06000
H 	H 	0.39890 0.76930 0.87350 0.07800
H 	H 	0.26790 0.83950 0.91110 0.04000
H 	H 	0.31390 0.72320 0.73880 0.06100
H 	H 	0.42860 0.64980 0.70200 0.03700
H 	H 	0.56730 0.61320 0.82480 0.03600
H 	H 	0.45260 0.68650 0.86170 0.07700
H 	H 	0.94410 0.79390 0.47430 0.02600
H 	H 	0.05160 0.84390 0.41990 0.08000
H 	H 	0.93670 0.79210 0.30690 0.07100
H 	H 	0.82910 0.74200 0.36140 0.02900
H 	H 	0.83620 0.40870 0.36530 0.15000
H 	H 	0.80300 0.36730 0.39830 0.16700
H 	H 	0.02430 0.53450 0.37110 -0.00500
H 	H 	0.03200 0.37050 0.52670 -0.03000
H 	H 	0.67630 0.17060 0.17320 0.03500
H 	H 	0.69950 0.24090 0.21090 0.06100
H 	H 	0.04170 0.23070 0.12650 0.07600
H 	H 	0.01850 0.16050 0.08890 0.03300
H 	H 	0.77590 0.27680 0.26120 0.06100
H 	H 	0.78040 0.35020 0.29800 0.03700
H 	H 	0.00530 0.38680 0.17520 0.03100
H 	H 	0.00080 0.31350 0.13830 0.07300
H 	H 	0.21230 0.20610 0.52570 0.02500
H 	H 	0.31540 0.15610 0.58010 0.07700
H 	H 	0.03570 0.20790 0.69310 0.06800
H 	H 	0.93250 0.25800 0.63860 0.03100
H 	H 	0.45150 0.13470 0.90870 0.15000
H 	H 	0.45130 0.10170 0.86730 0.16700
H 	H 	0.64540 0.12890 0.03450 0.00400
H 	H 	0.80870 0.97330 0.87050 -0.00800
H 	H 	0.09950 0.32680 0.67060 0.03500
H 	H 	0.16040 0.28910 0.74090 0.06100
H 	H 	0.41820 0.37350 0.73070 0.07800
H 	H 	0.35740 0.41110 0.66050 0.03700
H 	H 	0.28710 0.23880 0.77680 0.06100
H 	H 	0.32840 0.20200 0.85020 0.03700
H 	H 	0.43050 0.32480 0.88680 0.03700
H 	H 	0.38910 0.36170 0.81350 0.07600
H 	H 	0.98800 0.97430 0.70610 0.03000
H 	H 	0.14550 0.91990 0.65610 0.08100
H 	H 	0.97880 0.80690 0.70790 0.07000
H 	H 	0.82110 0.86140 0.75800 0.03000
H 	H 	0.49490 0.86530 0.09130 0.15000
H 	H 	0.42030 0.89830 0.13270 0.16800
H 	H 	0.80880 0.87110 0.96550 -0.01400
H 	H 	0.65250 0.02670 0.12950 -0.05200
H 	H 	0.09690 0.67320 0.32940 0.03500
H 	H 	0.19040 0.71090 0.25910 0.06100
H 	H 	0.52240 0.62650 0.26930 0.07800
H 	H 	0.42900 0.58890 0.33950 0.03700
H 	H 	0.30270 0.76120 0.22320 0.06200
H 	H 	0.38060 0.79800 0.14980 0.03600
H 	H 	0.64210 0.67520 0.11320 0.03200
H 	H 	0.56430 0.63830 0.18650 0.07600
H 	H 	0.66840 0.02570 0.29390 0.02100
H 	H 	0.72150 0.08010 0.34390 0.07700
H 	H 	0.49360 0.19310 0.29210 0.07100
H 	H 	0.44050 0.13860 0.24200 0.02700
C 	C 	0.23480 0.11120 0.99440 0.09900
C 	C 	0.21480 0.05410 0.04550 0.11400
C 	C 	0.23460 0.00070 0.11050 0.05800
C 	C 	0.33800 0.07330 0.09530 0.07600
C 	C 	0.28550 0.08510 0.05890 -0.02200
C 	C 	0.42850 0.39830 0.38530 0.36100
C 	C 	0.50050 0.33610 0.31730 0.03000
C 	C 	0.48660 0.31360 0.27520 -0.10000
C 	C 	0.37710 0.32760 0.25720 0.04400
C 	C 	0.28160 0.36410 0.28130 -0.10500
C 	C 	0.29540 0.38670 0.32350 0.03600
C 	C 	0.40490 0.37260 0.34140 -0.10100
C 	C 	0.42810 0.25610 0.20110 -0.10100
C 	C 	0.42550 0.23390 0.15710 0.03200
C 	C 	0.35680 0.25960 0.12420 -0.10400
C 	C 	0.29070 0.30760 0.13520 0.03400
C 	C 	0.29340 0.32970 0.17910 -0.10500
C 	C 	0.36200 0.30400 0.21220 0.04300
C 	C 	0.35420 0.23640 0.07540 0.35700
C 	C 	0.26360 0.95390 0.23050 0.39200
C 	C 	0.07280 0.94080 0.29360 0.06200
C 	C 	0.01130 0.90810 0.32350 -0.12300
C 	C 	0.06450 0.85800 0.32300 0.05200
C 	C 	0.17850 0.84050 0.29250 -0.11700
C 	C 	0.24070 0.87310 0.26250 0.05200
C 	C 	0.18780 0.92320 0.26300 -0.13200
C 	C 	0.34040 0.88880 0.00560 0.03000
C 	C 	0.31440 0.94590 0.95450 0.12400
C 	C 	0.34580 0.99930 0.88950 0.12900
C 	C 	0.50660 0.92670 0.90470 0.08400
C 	C 	0.42950 0.91490 0.94110 -0.01600
C 	C 	0.21210 0.60170 0.61470 0.36000
C 	C 	0.15390 0.66390 0.68270 0.02900
C 	C 	0.07540 0.68640 0.72480 -0.10000
C 	C 	0.96190 0.67240 0.74280 0.04400
C 	C 	0.92700 0.63590 0.71870 -0.09800
C 	C 	0.00560 0.61330 0.67650 0.02500
C 	C 	0.11890 0.62740 0.65860 -0.09800
C 	C 	0.88530 0.74390 0.79890 -0.09800
C 	C 	0.81650 0.76610 0.84290 0.03100
C 	C 	0.74060 0.74040 0.87580 -0.09900
C 	C 	0.73350 0.69240 0.86480 0.03300
C 	C 	0.80220 0.67030 0.82090 -0.10200
C 	C 	0.87820 0.69600 0.78780 0.04300
C 	C 	0.66600 0.76360 0.92460 0.35500
C 	C 	0.44800 0.04610 0.76950 0.39500
C 	C 	0.30720 0.05920 0.70640 0.06000
C 	C 	0.24290 0.09190 0.67650 -0.12300
C 	C 	0.24550 0.14200 0.67700 0.05100
C 	C 	0.31150 0.15950 0.70750 -0.11900
C 	C 	0.37630 0.12690 0.73750 0.05300
C 	C 	0.37400 0.07680 0.73700 -0.13800
C 	C 	0.47920 0.50560 0.61120 0.06600
C 	C 	0.51030 0.45450 0.55410 0.11800
C 	C 	0.59510 0.38950 0.50070 0.09200
C 	C 	0.68330 0.40470 0.57330 0.08000
C 	C 	0.59440 0.44110 0.58510 -0.01900
C 	C 	0.06380 0.11470 0.89830 0.35200
C 	C 	0.06780 0.18270 0.83610 0.02400
C 	C 	0.01180 0.22480 0.81360 -0.09900
C 	C 	0.88430 0.24280 0.82760 0.04500
C 	C 	0.81290 0.21870 0.86410 -0.10100
C 	C 	0.86890 0.17650 0.88670 0.03100
C 	C 	0.99630 0.15860 0.87260 -0.09200
C 	C 	0.87920 0.29890 0.75610 -0.09900
C 	C 	0.83260 0.34290 0.73390 0.03200
C 	C 	0.73100 0.37580 0.75960 -0.10100
C 	C 	0.67590 0.36480 0.80760 0.03400
C 	C 	0.72250 0.32090 0.82970 -0.10300
C 	C 	0.82420 0.28780 0.80400 0.04400
C 	C 	0.67960 0.42460 0.73640 0.35600
C 	C 	0.74410 0.26950 0.45390 0.39300
C 	C 	0.61640 0.20640 0.44080 0.05800
C 	C 	0.58480 0.17650 0.40810 -0.11900
C 	C 	0.63750 0.17700 0.35800 0.04900
C 	C 	0.72100 0.20750 0.34050 -0.11600
C 	C 	0.75320 0.23750 0.37310 0.05000
C 	C 	0.70080 0.23700 0.42320 -0.13400
C 	C 	0.59600 0.49440 0.38880 0.06600
C 	C 	0.51890 0.54550 0.44590 0.11800
C 	C 	0.48530 0.61050 0.49930 0.09200
C 	C 	0.66130 0.59530 0.42670 0.08000
C 	C 	0.62060 0.55890 0.41490 -0.01900
C 	C 	0.07680 0.88530 0.10170 0.36300
C 	C 	0.08660 0.81730 0.16390 0.03500
C 	C 	0.05020 0.77520 0.18640 -0.10600
C 	C 	0.95470 0.75720 0.17240 0.05000
C 	C 	0.89570 0.78130 0.13590 -0.11100
C 	C 	0.93210 0.82350 0.11330 0.04200
C 	C 	0.02750 0.84140 0.12740 -0.10700
C 	C 	0.93420 0.70110 0.24390 -0.09700
C 	C 	0.90940 0.65710 0.26610 0.03000
C 	C 	0.86640 0.62420 0.24040 -0.10000
C 	C 	0.84830 0.63520 0.19240 0.03200
C 	C 	0.87310 0.67910 0.17030 -0.10100
C 	C 	0.91600 0.71220 0.19600 0.04000
C 	C 	0.84060 0.57540 0.26360 0.35600
C 	C 	0.46750 0.73050 0.54610 0.39400
C 	C 	0.26360 0.79360 0.55920 0.06000
C 	C 	0.16940 0.82350 0.59190 -0.12100
C 	C 	0.17250 0.82300 0.64200 0.05200
C 	C 	0.26900 0.79250 0.65950 -0.11700
C 	C 	0.36380 0.76250 0.62690 0.05200
C 	C 	0.36100 0.76300 0.57680 -0.13400
C 	C 	0.90960 0.49440 0.61120 0.06600
C 	C 	0.93560 0.54550 0.55410 0.11900
C 	C 	0.90420 0.61050 0.50070 0.09300
C 	C 	0.74340 0.59530 0.57330 0.08000
C 	C 	0.82050 0.55890 0.58510 -0.01900
C 	C 	0.03790 0.88530 0.89830 0.35700
C 	C 	0.09610 0.81730 0.83610 0.02900
C 	C 	0.17460 0.77520 0.81360 -0.09800
C 	C 	0.28810 0.75720 0.82760 0.04300
C 	C 	0.32300 0.78130 0.86410 -0.10200
C 	C 	0.24440 0.82350 0.88670 0.03400
C 	C 	0.13110 0.84140 0.87260 -0.09800
C 	C 	0.36470 0.70110 0.75610 -0.09900
C 	C 	0.43350 0.65710 0.73390 0.03100
C 	C 	0.50940 0.62420 0.75960 -0.10100
C 	C 	0.51650 0.63520 0.80760 0.03400
C 	C 	0.44780 0.67910 0.82970 -0.10300
C 	C 	0.37180 0.71220 0.80400 0.04400
C 	C 	0.58400 0.57540 0.73640 0.35600
C 	C 	0.80200 0.73050 0.45390 0.39400
C 	C 	0.94280 0.79360 0.44080 0.06200
C 	C 	0.00710 0.82350 0.40810 -0.12200
C 	C 	0.00450 0.82300 0.35800 0.04800
C 	C 	0.93850 0.79250 0.34050 -0.11400
C 	C 	0.87370 0.76250 0.37310 0.05100
C 	C 	0.87600 0.76300 0.42320 -0.13400
C 	C 	0.01520 0.50560 0.38880 0.06300
C 	C 	0.03520 0.45450 0.44590 0.11500
C 	C 	0.01540 0.38950 0.49930 0.08900
C 	C 	0.91200 0.40470 0.42670 0.07900
C 	C 	0.96450 0.44110 0.41490 -0.01500
C 	C 	0.82150 0.11470 0.10170 0.36100
C 	C 	0.74950 0.18270 0.16390 0.03100
C 	C 	0.76340 0.22480 0.18640 -0.10100
C 	C 	0.87290 0.24280 0.17240 0.04400
C 	C 	0.96840 0.21870 0.13590 -0.10500
C 	C 	0.95460 0.17650 0.11330 0.03800
C 	C 	0.84510 0.15860 0.12740 -0.10400
C 	C 	0.82190 0.29890 0.24390 -0.09900
C 	C 	0.82450 0.34290 0.26610 0.03100
C 	C 	0.89320 0.37580 0.24040 -0.10200
C 	C 	0.95930 0.36480 0.19240 0.03600
C 	C 	0.95660 0.32090 0.17030 -0.10100
C 	C 	0.88800 0.28780 0.19600 0.04200
C 	C 	0.89580 0.42460 0.26360 0.35600
C 	C 	0.98640 0.26950 0.54610 0.39800
C 	C 	0.17720 0.20640 0.55920 0.05800
C 	C 	0.23870 0.17650 0.59190 -0.11900
C 	C 	0.18550 0.17700 0.64200 0.04700
C 	C 	0.07150 0.20750 0.65950 -0.11400
C 	C 	0.00930 0.23750 0.62690 0.04500
C 	C 	0.06220 0.23700 0.57680 -0.13500
C 	C 	0.65400 0.11120 0.00560 0.02900
C 	C 	0.73110 0.05410 0.95450 0.11600
C 	C 	0.76470 0.00070 0.88950 0.05800
C 	C 	0.58870 0.07330 0.90470 0.07600
C 	C 	0.62940 0.08510 0.94110 -0.01300
C 	C 	0.17320 0.39830 0.61470 0.36100
C 	C 	0.16340 0.33610 0.68270 0.03100
C 	C 	0.19980 0.31360 0.72480 -0.10100
C 	C 	0.29530 0.32760 0.74280 0.04500
C 	C 	0.35430 0.36410 0.71870 -0.10600
C 	C 	0.31790 0.38670 0.67650 0.03700
C 	C 	0.22250 0.37260 0.65860 -0.10200
C 	C 	0.31580 0.25610 0.79890 -0.09800
C 	C 	0.34060 0.23390 0.84290 0.03000
C 	C 	0.38360 0.25960 0.87580 -0.09900
C 	C 	0.40170 0.30760 0.86480 0.03200
C 	C 	0.37690 0.32970 0.82090 -0.10100
C 	C 	0.33400 0.30400 0.78780 0.04200
C 	C 	0.40940 0.23640 0.92460 0.35500
C 	C 	0.78250 0.95390 0.76950 0.39200
C 	C 	0.98640 0.94080 0.70640 0.06100
C 	C 	0.08060 0.90810 0.67650 -0.12000
C 	C 	0.07750 0.85800 0.67700 0.04800
C 	C 	0.98100 0.84050 0.70750 -0.11200
C 	C 	0.88620 0.87310 0.73750 0.04900
C 	C 	0.88900 0.92320 0.73700 -0.13000
C 	C 	0.77080 0.88880 0.99440 0.10500
C 	C 	0.73970 0.94590 0.04550 0.12100
C 	C 	0.65490 0.99930 0.11050 0.12600
C 	C 	0.56670 0.92670 0.09530 0.08500
C 	C 	0.65560 0.91490 0.05890 -0.02600
C 	C 	0.18620 0.60170 0.38530 0.36100
C 	C 	0.18220 0.66390 0.31730 0.03000
C 	C 	0.23820 0.68640 0.27520 -0.10000
C 	C 	0.36570 0.67240 0.25720 0.04400
C 	C 	0.43710 0.63590 0.28130 -0.10500
C 	C 	0.38110 0.61330 0.32350 0.03600
C 	C 	0.25370 0.62740 0.34140 -0.10200
C 	C 	0.37080 0.74390 0.20110 -0.10000
C 	C 	0.41740 0.76610 0.15710 0.03200
C 	C 	0.51900 0.74040 0.12420 -0.10400
C 	C 	0.57410 0.69240 0.13520 0.03400
C 	C 	0.52750 0.67030 0.17910 -0.10500
C 	C 	0.42580 0.69600 0.21220 0.04400
C 	C 	0.57040 0.76360 0.07540 0.35700
C 	C 	0.50590 0.04610 0.23050 0.39500
C 	C 	0.63360 0.05920 0.29360 0.06000
C 	C 	0.66520 0.09190 0.32350 -0.12200
C 	C 	0.61250 0.14200 0.32300 0.05100
C 	C 	0.52900 0.15950 0.29250 -0.11800
C 	C 	0.49680 0.12690 0.26250 0.05200
C 	C 	0.54920 0.07680 0.26300 -0.13700
N 	N 	0.18320 0.07180 0.00580 -0.31300
N 	N 	0.18340 0.01290 0.06990 -0.29500
N 	N 	0.30600 0.02730 0.12270 -0.25800
N 	N 	0.30410 0.12560 0.02720 -0.25000
N 	N 	0.40941 0.10799 0.10819 -0.30800
N 	N 	0.26080 0.92820 0.99420 -0.27800
N 	N 	0.26620 0.98710 0.93010 -0.29300
N 	N 	0.45600 0.97270 0.87730 -0.26200
N 	N 	0.45690 0.87440 0.97280 -0.22400
N 	N 	0.62559 0.89201 0.89181 -0.30800
N 	N 	0.43900 0.49420 0.57180 -0.29600
N 	N 	0.50330 0.43010 0.51290 -0.29400
N 	N 	0.67870 0.37730 0.52730 -0.26000
N 	N 	0.58130 0.47280 0.62560 -0.23800
N 	N 	0.76760 0.39181 0.60799 -0.30800
N 	N 	0.50500 0.50580 0.42820 -0.29600
N 	N 	0.44630 0.56990 0.48710 -0.29400
N 	N 	0.58330 0.62270 0.47270 -0.26000
N 	N 	0.67970 0.52720 0.37440 -0.23800
N 	N 	0.76740 0.60819 0.39201 -0.30800
N 	N 	0.98920 0.50580 0.57180 -0.29500
N 	N 	0.98380 0.56990 0.51290 -0.29400
N 	N 	0.79400 0.62270 0.52730 -0.26000
N 	N 	0.79310 0.52720 0.62560 -0.23800
N 	N 	0.62441 0.60819 0.60799 -0.30800
N 	N 	0.06680 0.49420 0.42820 -0.29600
N 	N 	0.06660 0.43010 0.48710 -0.29400
N 	N 	0.94400 0.37730 0.47270 -0.25900
N 	N 	0.94590 0.47280 0.37440 -0.23800
N 	N 	0.84059 0.39181 0.39201 -0.30700
N 	N 	0.74500 0.07180 0.99420 -0.28000
N 	N 	0.80370 0.01290 0.93010 -0.29100
N 	N 	0.66670 0.02730 0.87730 -0.25700
N 	N 	0.57030 0.12560 0.97280 -0.22500
N 	N 	0.48260 0.10799 0.89181 -0.30700
N 	N 	0.81100 0.92820 0.00580 -0.31100
N 	N 	0.74670 0.98710 0.06990 -0.29600
N 	N 	0.57130 0.97270 0.12270 -0.26200
N 	N 	0.66870 0.87440 0.02720 -0.25000
N 	N 	0.48240 0.89201 0.10819 -0.30800
O 	O 	0.53150 0.39020 0.39340 -0.36100
O 	O 	0.33730 0.43020 0.40640 -0.50100
O 	O 	0.44130 0.19990 0.05970 -0.47500
O 	O 	0.27150 0.25000 0.05320 -0.34600
O 	O 	0.34730 0.93970 0.19770 -0.47700
O 	O 	0.23670 0.99940 0.24200 -0.33900
O 	O 	0.31510 0.60980 0.60660 -0.36000
O 	O 	0.17390 0.56980 0.59360 -0.50100
O 	O 	0.70090 0.80010 0.94030 -0.46500
O 	O 	0.57470 0.75000 0.94680 -0.33400
O 	O 	0.48470 0.06030 0.80230 -0.48500
O 	O 	0.47810 0.00060 0.75800 -0.35800
O 	O 	0.17490 0.10660 0.89020 -0.35800
O 	O 	0.99370 0.09360 0.93020 -0.49400
O 	O 	0.75100 0.44030 0.69990 -0.47100
O 	O 	0.57470 0.44680 0.75000 -0.34000
O 	O 	0.79500 0.30230 0.43970 -0.48200
O 	O 	0.72870 0.25800 0.49940 -0.34900
O 	O 	0.17170 0.89340 0.10980 -0.36100
O 	O 	0.01750 0.90640 0.06980 -0.50200
O 	O 	0.89120 0.55970 0.30010 -0.47100
O 	O 	0.77150 0.55320 0.25000 -0.34100
O 	O 	0.53700 0.69770 0.56030 -0.48200
O 	O 	0.48610 0.74200 0.50060 -0.34800
O 	O 	0.93490 0.89340 0.89020 -0.35500
O 	O 	0.07610 0.90640 0.93020 -0.49400
O 	O 	0.54910 0.55970 0.69990 -0.47100
O 	O 	0.67530 0.55320 0.75000 -0.34000
O 	O 	0.76530 0.69770 0.43970 -0.48200
O 	O 	0.77190 0.74200 0.49940 -0.34800
O 	O 	0.71850 0.10660 0.10980 -0.36300
O 	O 	0.91270 0.09360 0.06980 -0.50400
O 	O 	0.80870 0.44030 0.30010 -0.47100
O 	O 	0.97850 0.44680 0.25000 -0.34100
O 	O 	0.90270 0.30230 0.56030 -0.48300
O 	O 	0.01330 0.25800 0.50060 -0.35200
O 	O 	0.07830 0.39020 0.60660 -0.36200
O 	O 	0.23250 0.43020 0.59360 -0.50100
O 	O 	0.35880 0.19990 0.94030 -0.46500
O 	O 	0.47850 0.25000 0.94680 -0.33400
O 	O 	0.71300 0.93970 0.80230 -0.47600
O 	O 	0.76390 0.99940 0.75800 -0.33800
O 	O 	0.07510 0.60980 0.39340 -0.36200
O 	O 	0.25630 0.56980 0.40640 -0.50100
O 	O 	0.49900 0.80010 0.05970 -0.47500
O 	O 	0.67530 0.75000 0.05320 -0.34600
O 	O 	0.45500 0.06030 0.19770 -0.48500
O 	O 	0.52130 0.00060 0.24200 -0.35700
O 	O 	0.25000 0.50000 0.50000 -0.97600
O 	O 	-0.00000 0.00000 -0.00000 -0.99800
