data_crystal

_cell_length_a 16.49800
_cell_length_b 13.10900
_cell_length_c 29.38100
_cell_angle_alpha 90.00000
_cell_angle_beta  90.00000
_cell_angle_gamma 90.00000

_symmetry_space_group_name_	'P 1'
_symmetry_space_group_name_H-M	'P 1'

loop_
_symmetry_equiv_pos_as_xyz
  x,y,z

loop_
_atom_site_label
_atom_site_type_symbol
_atom_site_fract_x
_atom_site_fract_y
_atom_site_fract_z
_atom_site_charge
Fe	Fe	0.84951 0.45793 0.55912 1.21400
C 	C 	0.94310 0.64890 0.52890 -0.00300
C 	C 	0.95120 0.76490 0.54240 -0.15200
H 	H 	0.90810 0.78280 0.56340 0.06600
H 	H 	0.00250 0.77560 0.55780 0.07300
C 	C 	0.94700 0.83070 0.50290 -0.02500
H 	H 	0.91330 0.88840 0.51130 0.01800
H 	H 	0.00110 0.85720 0.49790 0.02400
C 	C 	0.91860 0.79500 0.46050 -0.08200
H 	H 	0.96140 0.80790 0.43860 0.04400
H 	H 	0.87360 0.83860 0.45200 0.04700
C 	C 	0.89200 0.69060 0.45330 -0.13000
H 	H 	0.91470 0.66540 0.42500 0.06700
H 	H 	0.83340 0.68910 0.45060 0.07500
C 	C 	0.91950 0.61730 0.49420 0.05500
C 	C 	0.97140 0.59770 0.60665 0.03600
H 	H 	0.99680 0.66080 0.60920 0.02000
C 	C 	0.85600 0.47410 0.45577 0.04100
H 	H 	0.85910 0.51320 0.42940 0.01900
C 	C 	0.98690 0.52430 0.64151 -0.08000
C 	C 	0.04290 0.55030 0.67554 -0.00700
H 	H 	0.06400 0.61610 0.67630 0.02900
C 	C 	0.06700 0.48110 0.70749 -0.08900
C 	C 	0.03450 0.38380 0.70590 -0.11000
H 	H 	0.05070 0.33690 0.72780 0.07000
C 	C 	0.97960 0.35330 0.67370 0.12500
C 	C 	0.95410 0.42460 0.64084 0.10400
C 	C 	0.83660 0.36830 0.45047 -0.08300
C 	C 	0.82690 0.33040 0.40584 -0.00500
H 	H 	0.82830 0.37530 0.38140 0.04000
C 	C 	0.81530 0.22820 0.39800 -0.08100
C 	C 	0.81180 0.16150 0.43447 -0.10800
H 	H 	0.80260 0.09270 0.42880 0.07000
C 	C 	0.82150 0.19360 0.47919 0.11500
C 	C 	0.83340 0.29860 0.48728 0.10900
C 	C 	0.94610 0.24720 0.67120 -0.60300
H 	H 	0.96950 0.21220 0.64570 0.20400
H 	H 	0.88830 0.25010 0.66760 0.20400
H 	H 	0.95900 0.21120 0.69870 0.19700
C 	C 	0.81940 0.12130 0.51850 -0.57400
H 	H 	0.82660 0.15850 0.54640 0.20200
H 	H 	0.86210 0.07210 0.51530 0.18200
H 	H 	0.76800 0.08670 0.51910 0.17800
C 	C 	0.13130 0.50620 0.74130 0.37900
C 	C 	0.80950 0.18730 0.35011 0.41000
N 	N 	0.92480 0.58320 0.57166 -0.22400
N 	N 	0.86920 0.51950 0.49341 -0.22500
O 	O 	0.90150 0.39490 0.61007 -0.38600
O 	O 	0.84290 0.32750 0.52968 -0.38900
O 	O 	0.16410 0.59030 0.74195 -0.52500
O 	O 	0.15440 0.43790 0.76882 -0.46500
O 	O 	0.84040 0.23920 0.31960 -0.49100
O 	O 	0.77900 0.10010 0.34662 -0.49200
C 	C 	0.90160 0.66810 0.53930 0.02000
C 	C 	0.87130 0.63520 0.49700 -0.03800
Fe	Fe	0.65049 0.54207 0.55912 1.21500
C 	C 	0.55690 0.35110 0.52890 -0.00200
C 	C 	0.54880 0.23510 0.54240 -0.14800
H 	H 	0.59190 0.21720 0.56340 0.06300
H 	H 	0.49750 0.22440 0.55780 0.07300
C 	C 	0.55300 0.16930 0.50290 -0.03600
H 	H 	0.58670 0.11160 0.51130 0.01400
H 	H 	0.49890 0.14280 0.49790 0.02600
C 	C 	0.58140 0.20500 0.46050 -0.06900
H 	H 	0.53860 0.19210 0.43860 0.03700
H 	H 	0.62640 0.16140 0.45200 0.03900
C 	C 	0.60800 0.30940 0.45330 -0.13800
H 	H 	0.58530 0.33460 0.42500 0.06900
H 	H 	0.66660 0.31090 0.45060 0.07700
C 	C 	0.58050 0.38270 0.49420 0.05500
C 	C 	0.52860 0.40230 0.60665 0.03600
H 	H 	0.50320 0.33920 0.60920 0.01900
C 	C 	0.64400 0.52590 0.45577 0.03800
H 	H 	0.64090 0.48680 0.42940 0.01900
C 	C 	0.51310 0.47570 0.64151 -0.08000
C 	C 	0.45710 0.44970 0.67554 -0.00700
H 	H 	0.43600 0.38390 0.67630 0.02900
C 	C 	0.43300 0.51890 0.70749 -0.08800
C 	C 	0.46550 0.61620 0.70590 -0.11400
H 	H 	0.44930 0.66310 0.72780 0.07000
C 	C 	0.52040 0.64670 0.67370 0.13000
C 	C 	0.54590 0.57540 0.64084 0.10200
C 	C 	0.66340 0.63170 0.45047 -0.07600
C 	C 	0.67310 0.66960 0.40584 -0.01300
H 	H 	0.67170 0.62470 0.38140 0.04300
C 	C 	0.68470 0.77180 0.39800 -0.07100
C 	C 	0.68820 0.83850 0.43447 -0.12200
H 	H 	0.69740 0.90730 0.42880 0.08200
C 	C 	0.67850 0.80640 0.47919 0.13500
C 	C 	0.66660 0.70140 0.48728 0.10000
C 	C 	0.55390 0.75280 0.67120 -0.61700
H 	H 	0.53050 0.78780 0.64570 0.21100
H 	H 	0.61170 0.74990 0.66760 0.21100
H 	H 	0.54100 0.78880 0.69870 0.20400
C 	C 	0.68060 0.87870 0.51850 -0.61300
H 	H 	0.67340 0.84150 0.54640 0.21700
H 	H 	0.63790 0.92790 0.51530 0.20200
H 	H 	0.73200 0.91330 0.51910 0.19800
C 	C 	0.36870 0.49380 0.74130 0.37900
C 	C 	0.69050 0.81270 0.35011 0.40600
N 	N 	0.57520 0.41680 0.57166 -0.22400
N 	N 	0.63080 0.48050 0.49341 -0.22400
O 	O 	0.59850 0.60510 0.61007 -0.38600
O 	O 	0.65710 0.67250 0.52968 -0.38700
O 	O 	0.33590 0.40970 0.74195 -0.52500
O 	O 	0.34560 0.56210 0.76882 -0.46500
O 	O 	0.65960 0.76080 0.31960 -0.48800
O 	O 	0.72100 0.89990 0.34662 -0.48100
C 	C 	0.59840 0.33190 0.53930 0.01800
C 	C 	0.62870 0.36480 0.49700 -0.03600
Fe	Fe	0.65049 0.95793 0.94088 1.22300
C 	C 	0.55690 0.14890 0.97110 -0.00600
C 	C 	0.54880 0.26490 0.95760 -0.14200
H 	H 	0.59190 0.28280 0.93660 0.06200
H 	H 	0.49750 0.27560 0.94220 0.07100
C 	C 	0.55300 0.33070 0.99710 -0.04600
H 	H 	0.58670 0.38840 0.98870 0.02000
H 	H 	0.49890 0.35720 0.00210 0.03100
C 	C 	0.58140 0.29500 0.03950 -0.06100
H 	H 	0.53860 0.30790 0.06140 0.03600
H 	H 	0.62640 0.33860 0.04800 0.03900
C 	C 	0.60800 0.19060 0.04670 -0.14300
H 	H 	0.58530 0.16540 0.07500 0.07000
H 	H 	0.66660 0.18910 0.04940 0.07800
C 	C 	0.58050 0.11730 0.00580 0.05500
C 	C 	0.52860 0.09770 0.89335 0.03200
H 	H 	0.50320 0.16080 0.89080 0.02000
C 	C 	0.64400 0.97410 0.04423 0.08600
H 	H 	0.64090 0.01320 0.07060 -0.00600
C 	C 	0.51310 0.02430 0.85849 -0.08100
C 	C 	0.45710 0.05030 0.82446 -0.04100
H 	H 	0.43600 0.11610 0.82370 0.03900
C 	C 	0.43300 0.98110 0.79251 -0.04400
C 	C 	0.46550 0.88380 0.79410 -0.13400
H 	H 	0.44930 0.83690 0.77220 0.07800
C 	C 	0.52040 0.85330 0.82630 0.14000
C 	C 	0.54590 0.92460 0.85916 0.10800
C 	C 	0.66340 0.86830 0.04953 -0.09700
C 	C 	0.67310 0.83040 0.09416 0.00300
H 	H 	0.67170 0.87530 0.11860 0.04000
C 	C 	0.68470 0.72820 0.10200 -0.08200
C 	C 	0.68820 0.66150 0.06553 -0.10800
H 	H 	0.69740 0.59270 0.07120 0.07400
C 	C 	0.67850 0.69360 0.02081 0.11800
C 	C 	0.66660 0.79860 0.01272 0.11400
C 	C 	0.55390 0.74720 0.82880 -0.62400
H 	H 	0.53050 0.71220 0.85430 0.21200
H 	H 	0.61170 0.75010 0.83240 0.21300
H 	H 	0.54100 0.71120 0.80130 0.20500
C 	C 	0.68060 0.62130 0.98150 -0.58600
H 	H 	0.67340 0.65850 0.95360 0.20700
H 	H 	0.63790 0.57210 0.98470 0.18900
H 	H 	0.73200 0.58670 0.98090 0.18500
C 	C 	0.36870 0.00620 0.75870 0.34100
C 	C 	0.69050 0.68730 0.14989 0.41100
N 	N 	0.57520 0.08320 0.92834 -0.22600
N 	N 	0.63080 0.01950 0.00659 -0.24200
O 	O 	0.59850 0.89490 0.88993 -0.38400
O 	O 	0.65710 0.82750 0.97032 -0.38900
O 	O 	0.33590 0.09030 0.75805 -0.51700
O 	O 	0.34560 0.93790 0.73118 -0.44600
O 	O 	0.65960 0.73920 0.18040 -0.48900
O 	O 	0.72100 0.60010 0.15338 -0.48800
C 	C 	0.59840 0.16810 0.96070 0.01900
C 	C 	0.62870 0.13520 0.00300 -0.03400
Fe	Fe	0.84951 0.04207 0.94088 1.21000
C 	C 	0.94310 0.85110 0.97110 0.00300
C 	C 	0.95120 0.73510 0.95760 -0.14600
H 	H 	0.90810 0.71720 0.93660 0.06400
H 	H 	0.00250 0.72440 0.94220 0.07200
C 	C 	0.94700 0.66930 0.99710 -0.03400
H 	H 	0.91330 0.61160 0.98870 0.01700
H 	H 	0.00110 0.64280 0.00210 0.02600
C 	C 	0.91860 0.70500 0.03950 -0.07100
H 	H 	0.96140 0.69210 0.06140 0.03900
H 	H 	0.87360 0.66140 0.04800 0.04200
C 	C 	0.89200 0.80940 0.04670 -0.13700
H 	H 	0.91470 0.83460 0.07500 0.07000
H 	H 	0.83340 0.81090 0.04940 0.07800
C 	C 	0.91950 0.88270 0.00580 0.05300
C 	C 	0.97140 0.90230 0.89335 0.03500
H 	H 	0.99680 0.83920 0.89080 0.02000
C 	C 	0.85600 0.02590 0.04423 -0.01100
H 	H 	0.85910 0.98680 0.07060 0.04600
C 	C 	0.98690 0.97570 0.85849 -0.06700
C 	C 	0.04290 0.94970 0.82446 0.01100
H 	H 	0.06400 0.88390 0.82370 0.02300
C 	C 	0.06700 0.01890 0.79251 -0.12000
C 	C 	0.03450 0.11620 0.79410 -0.09600
H 	H 	0.05070 0.16310 0.77220 0.06400
C 	C 	0.97960 0.14670 0.82630 0.12000
C 	C 	0.95410 0.07540 0.85916 0.09000
C 	C 	0.83660 0.13170 0.04953 -0.06000
C 	C 	0.82690 0.16960 0.09416 -0.02200
H 	H 	0.82830 0.12470 0.11860 0.04300
C 	C 	0.81530 0.27180 0.10200 -0.07000
C 	C 	0.81180 0.33850 0.06553 -0.12100
H 	H 	0.80260 0.40730 0.07120 0.07900
C 	C 	0.82150 0.30640 0.02081 0.13200
C 	C 	0.83340 0.20140 0.01272 0.09400
C 	C 	0.94610 0.25280 0.82880 -0.60200
H 	H 	0.96950 0.28780 0.85430 0.20500
H 	H 	0.88830 0.24990 0.83240 0.20500
H 	H 	0.95900 0.28880 0.80130 0.19800
C 	C 	0.81940 0.37870 0.98150 -0.60200
H 	H 	0.82660 0.34150 0.95360 0.21200
H 	H 	0.86210 0.42790 0.98470 0.19400
H 	H 	0.76800 0.41330 0.98090 0.19000
C 	C 	0.13130 0.99380 0.75870 0.41000
C 	C 	0.80950 0.31270 0.14989 0.40600
N 	N 	0.92480 0.91680 0.92834 -0.22000
N 	N 	0.86920 0.98050 0.00659 -0.20600
O 	O 	0.90150 0.10510 0.88993 -0.38600
O 	O 	0.84290 0.17250 0.97032 -0.38700
O 	O 	0.16410 0.90970 0.75805 -0.53000
O 	O 	0.15440 0.06210 0.73118 -0.47900
O 	O 	0.84040 0.26080 0.18040 -0.49100
O 	O 	0.77900 0.39990 0.15338 -0.48700
C 	C 	0.90160 0.83190 0.96070 0.01500
C 	C 	0.87130 0.86480 0.00300 -0.03500
Fe	Fe	0.15049 0.54207 0.44088 1.21500
C 	C 	0.05690 0.35110 0.47110 -0.00300
C 	C 	0.04880 0.23510 0.45760 -0.15400
H 	H 	0.09190 0.21720 0.43660 0.06500
H 	H 	0.99750 0.22440 0.44220 0.07400
C 	C 	0.05300 0.16930 0.49710 -0.02300
H 	H 	0.08670 0.11160 0.48870 0.01100
H 	H 	0.99890 0.14280 0.50210 0.02100
C 	C 	0.08140 0.20500 0.53950 -0.08100
H 	H 	0.03860 0.19210 0.56140 0.04100
H 	H 	0.12640 0.16140 0.54800 0.04300
C 	C 	0.10800 0.30940 0.54670 -0.13100
H 	H 	0.08530 0.33460 0.57500 0.06600
H 	H 	0.16660 0.31090 0.54940 0.07500
C 	C 	0.08050 0.38270 0.50580 0.05500
C 	C 	0.02860 0.40230 0.39335 0.03700
H 	H 	0.00320 0.33920 0.39080 0.01800
C 	C 	0.14400 0.52590 0.54423 0.03800
H 	H 	0.14090 0.48680 0.57060 0.01900
C 	C 	0.01310 0.47570 0.35849 -0.08300
C 	C 	0.95710 0.44970 0.32446 -0.00400
H 	H 	0.93600 0.38390 0.32370 0.02700
C 	C 	0.93300 0.51890 0.29251 -0.09100
C 	C 	0.96550 0.61620 0.29410 -0.10800
H 	H 	0.94930 0.66310 0.27220 0.06900
C 	C 	0.02040 0.64670 0.32630 0.12400
C 	C 	0.04590 0.57540 0.35916 0.10500
C 	C 	0.16340 0.63170 0.54953 -0.07700
C 	C 	0.17310 0.66960 0.59416 -0.01200
H 	H 	0.17170 0.62470 0.61860 0.04200
C 	C 	0.18470 0.77180 0.60200 -0.07200
C 	C 	0.18820 0.83850 0.56553 -0.12000
H 	H 	0.19740 0.90730 0.57120 0.08100
C 	C 	0.17850 0.80640 0.52081 0.13300
C 	C 	0.16660 0.70140 0.51272 0.10100
C 	C 	0.05390 0.75280 0.32880 -0.60800
H 	H 	0.03050 0.78780 0.35430 0.20700
H 	H 	0.11170 0.74990 0.33240 0.20800
H 	H 	0.04100 0.78880 0.30130 0.20000
C 	C 	0.18060 0.87870 0.48150 -0.61000
H 	H 	0.17340 0.84150 0.45360 0.21500
H 	H 	0.13790 0.92790 0.48470 0.20000
H 	H 	0.23200 0.91330 0.48090 0.19600
C 	C 	0.86870 0.49380 0.25870 0.38000
C 	C 	0.19050 0.81270 0.64989 0.40600
N 	N 	0.07520 0.41680 0.42834 -0.22500
N 	N 	0.13080 0.48050 0.50659 -0.22400
O 	O 	0.09850 0.60510 0.38993 -0.38600
O 	O 	0.15710 0.67250 0.47032 -0.38700
O 	O 	0.83590 0.40970 0.25805 -0.52500
O 	O 	0.84560 0.56210 0.23118 -0.46500
O 	O 	0.15960 0.76080 0.68040 -0.48800
O 	O 	0.22100 0.89990 0.65338 -0.48200
C 	C 	0.09840 0.33190 0.46070 0.02100
C 	C 	0.12870 0.36480 0.50300 -0.03900
Fe	Fe	0.34951 0.45793 0.44088 1.21500
C 	C 	0.44310 0.64890 0.47110 -0.00200
C 	C 	0.45120 0.76490 0.45760 -0.14300
H 	H 	0.40810 0.78280 0.43660 0.06400
H 	H 	0.50250 0.77560 0.44220 0.07300
C 	C 	0.44700 0.83070 0.49710 -0.04600
H 	H 	0.41330 0.88840 0.48870 0.02300
H 	H 	0.50110 0.85720 0.50210 0.03200
C 	C 	0.41860 0.79500 0.53950 -0.06300
H 	H 	0.46140 0.80790 0.56140 0.03700
H 	H 	0.37360 0.83860 0.54800 0.04100
C 	C 	0.39200 0.69060 0.54670 -0.14200
H 	H 	0.41470 0.66540 0.57500 0.07000
H 	H 	0.33340 0.68910 0.54940 0.07900
C 	C 	0.41950 0.61730 0.50580 0.05400
C 	C 	0.47140 0.59770 0.39335 0.03600
H 	H 	0.49680 0.66080 0.39080 0.01900
C 	C 	0.35600 0.47410 0.54423 0.04100
H 	H 	0.35910 0.51320 0.57060 0.01800
C 	C 	0.48690 0.52430 0.35849 -0.08100
C 	C 	0.54290 0.55030 0.32446 -0.00600
H 	H 	0.56400 0.61610 0.32370 0.02900
C 	C 	0.56700 0.48110 0.29251 -0.08900
C 	C 	0.53450 0.38380 0.29410 -0.11100
H 	H 	0.55070 0.33690 0.27220 0.07000
C 	C 	0.47960 0.35330 0.32630 0.12600
C 	C 	0.45410 0.42460 0.35916 0.10400
C 	C 	0.33660 0.36830 0.54953 -0.08200
C 	C 	0.32690 0.33040 0.59416 -0.00600
H 	H 	0.32830 0.37530 0.61860 0.04000
C 	C 	0.31530 0.22820 0.60200 -0.08000
C 	C 	0.31180 0.16150 0.56553 -0.10900
H 	H 	0.30260 0.09270 0.57120 0.07100
C 	C 	0.32150 0.19360 0.52081 0.11700
C 	C 	0.33340 0.29860 0.51272 0.10800
C 	C 	0.44610 0.24720 0.32880 -0.60500
H 	H 	0.46950 0.21220 0.35430 0.20500
H 	H 	0.38830 0.25010 0.33240 0.20500
H 	H 	0.45900 0.21120 0.30130 0.19800
C 	C 	0.31940 0.12130 0.48150 -0.57700
H 	H 	0.32660 0.15850 0.45360 0.20300
H 	H 	0.36210 0.07210 0.48470 0.18300
H 	H 	0.26800 0.08670 0.48090 0.18000
C 	C 	0.63130 0.50620 0.25870 0.37900
C 	C 	0.30950 0.18730 0.64989 0.41000
N 	N 	0.42480 0.58320 0.42834 -0.22400
N 	N 	0.36920 0.51950 0.50659 -0.22500
O 	O 	0.40150 0.39490 0.38993 -0.38600
O 	O 	0.34290 0.32750 0.47032 -0.38900
O 	O 	0.66410 0.59030 0.25805 -0.52500
O 	O 	0.65440 0.43790 0.23118 -0.46500
O 	O 	0.34040 0.23920 0.68040 -0.49100
O 	O 	0.27900 0.10010 0.65338 -0.49100
C 	C 	0.40160 0.66810 0.46070 0.01700
C 	C 	0.37130 0.63520 0.50300 -0.03400
Fe	Fe	0.34951 0.04207 0.05912 1.21100
C 	C 	0.44310 0.85110 0.02890 0.00200
C 	C 	0.45120 0.73510 0.04240 -0.14900
H 	H 	0.40810 0.71720 0.06340 0.06500
H 	H 	0.50250 0.72440 0.05780 0.07400
C 	C 	0.44700 0.66930 0.00290 -0.03700
H 	H 	0.41330 0.61160 0.01130 0.01800
H 	H 	0.50110 0.64280 0.99790 0.02800
C 	C 	0.41860 0.70500 0.96050 -0.06900
H 	H 	0.46140 0.69210 0.93860 0.03800
H 	H 	0.37360 0.66140 0.95200 0.04100
C 	C 	0.39200 0.80940 0.95330 -0.13800
H 	H 	0.41470 0.83460 0.92500 0.06900
H 	H 	0.33340 0.81090 0.95060 0.07800
C 	C 	0.41950 0.88270 0.99420 0.05200
C 	C 	0.47140 0.90230 0.10665 0.04100
H 	H 	0.49680 0.83920 0.10920 0.01700
C 	C 	0.35600 0.02590 0.95577 -0.00100
H 	H 	0.35910 0.98680 0.92940 0.04100
C 	C 	0.48690 0.97570 0.14151 -0.08200
C 	C 	0.54290 0.94970 0.17554 0.03100
H 	H 	0.56400 0.88390 0.17630 0.01700
C 	C 	0.56700 0.01890 0.20749 -0.13600
C 	C 	0.53450 0.11620 0.20590 -0.08700
H 	H 	0.55070 0.16310 0.22780 0.06100
C 	C 	0.47960 0.14670 0.17370 0.11400
C 	C 	0.45410 0.07540 0.14084 0.10000
C 	C 	0.33660 0.13170 0.95047 -0.06400
C 	C 	0.32690 0.16960 0.90584 -0.01900
H 	H 	0.32830 0.12470 0.88140 0.04300
C 	C 	0.31530 0.27180 0.89800 -0.07100
C 	C 	0.31180 0.33850 0.93447 -0.12000
H 	H 	0.30260 0.40730 0.92880 0.07800
C 	C 	0.32150 0.30640 0.97919 0.13100
C 	C 	0.33340 0.20140 0.98728 0.09600
C 	C 	0.44610 0.25280 0.17120 -0.59500
H 	H 	0.46950 0.28780 0.14570 0.20300
H 	H 	0.38830 0.24990 0.16760 0.20300
H 	H 	0.45900 0.28880 0.19870 0.19600
C 	C 	0.31940 0.37870 0.01850 -0.60000
H 	H 	0.32660 0.34150 0.04640 0.21100
H 	H 	0.36210 0.42790 0.01530 0.19400
H 	H 	0.26800 0.41330 0.01910 0.19000
C 	C 	0.63130 0.99380 0.24130 0.42100
C 	C 	0.30950 0.31270 0.85011 0.40600
N 	N 	0.42480 0.91680 0.07166 -0.22200
N 	N 	0.36920 0.98050 0.99341 -0.21000
O 	O 	0.40150 0.10510 0.11007 -0.38700
O 	O 	0.34290 0.17250 0.02968 -0.38700
O 	O 	0.66410 0.90970 0.24195 -0.53300
O 	O 	0.65440 0.06210 0.26882 -0.48400
O 	O 	0.34040 0.26080 0.81960 -0.49100
O 	O 	0.27900 0.39990 0.84662 -0.48700
C 	C 	0.40160 0.83190 0.03930 0.01600
C 	C 	0.37130 0.86480 0.99700 -0.03400
Fe	Fe	0.15049 0.95793 0.05912 1.22100
C 	C 	0.05690 0.14890 0.02890 -0.00600
C 	C 	0.04880 0.26490 0.04240 -0.14000
H 	H 	0.09190 0.28280 0.06340 0.06100
H 	H 	0.99750 0.27560 0.05780 0.07000
C 	C 	0.05300 0.33070 0.00290 -0.04600
H 	H 	0.08670 0.38840 0.01130 0.02000
H 	H 	0.99890 0.35720 0.99790 0.03100
C 	C 	0.08140 0.29500 0.96050 -0.06100
H 	H 	0.03860 0.30790 0.93860 0.03600
H 	H 	0.12640 0.33860 0.95200 0.03900
C 	C 	0.10800 0.19060 0.95330 -0.14400
H 	H 	0.08530 0.16540 0.92500 0.07000
H 	H 	0.16660 0.18910 0.95060 0.07900
C 	C 	0.08050 0.11730 0.99420 0.05500
C 	C 	0.02860 0.09770 0.10665 0.02700
H 	H 	0.00320 0.16080 0.10920 0.02200
C 	C 	0.14400 0.97410 0.95577 0.07500
H 	H 	0.14090 0.01320 0.92940 -0.00000
C 	C 	0.01310 0.02430 0.14151 -0.07000
C 	C 	0.95710 0.05030 0.17554 -0.05500
H 	H 	0.93600 0.11610 0.17630 0.04400
C 	C 	0.93300 0.98110 0.20749 -0.03200
C 	C 	0.96550 0.88380 0.20590 -0.13700
H 	H 	0.94930 0.83690 0.22780 0.08000
C 	C 	0.02040 0.85330 0.17370 0.14000
C 	C 	0.04590 0.92460 0.14084 0.10100
C 	C 	0.16340 0.86830 0.95047 -0.09400
C 	C 	0.17310 0.83040 0.90584 0.00000
H 	H 	0.17170 0.87530 0.88140 0.04000
C 	C 	0.18470 0.72820 0.89800 -0.08100
C 	C 	0.18820 0.66150 0.93447 -0.10900
H 	H 	0.19740 0.59270 0.92880 0.07500
C 	C 	0.17850 0.69360 0.97919 0.12000
C 	C 	0.16660 0.79860 0.98728 0.11200
C 	C 	0.05390 0.74720 0.17120 -0.62500
H 	H 	0.03050 0.71220 0.14570 0.21100
H 	H 	0.11170 0.75010 0.16760 0.21200
H 	H 	0.04100 0.71120 0.19870 0.20500
C 	C 	0.18060 0.62130 0.01850 -0.58700
H 	H 	0.17340 0.65850 0.04640 0.20700
H 	H 	0.13790 0.57210 0.01530 0.19000
H 	H 	0.23200 0.58670 0.01910 0.18600
C 	C 	0.86870 0.00620 0.24130 0.33100
C 	C 	0.19050 0.68730 0.85011 0.41000
N 	N 	0.07520 0.08320 0.07166 -0.22500
N 	N 	0.13080 0.01950 0.99341 -0.23800
O 	O 	0.09850 0.89490 0.11007 -0.38300
O 	O 	0.15710 0.82750 0.02968 -0.38900
O 	O 	0.83590 0.09030 0.24195 -0.51500
O 	O 	0.84560 0.93790 0.26882 -0.44200
O 	O 	0.15960 0.73920 0.81960 -0.49000
O 	O 	0.22100 0.60010 0.84662 -0.48800
C 	C 	0.09840 0.16810 0.03930 0.01800
C 	C 	0.12870 0.13520 0.99700 -0.03500
Zn	Zn	0.25000 0.50000 0.80043 1.23800
Zn	Zn	0.25000 -0.00000 0.69957 1.23400
Zn	Zn	0.75000 0.50000 0.19957 1.23800
Zn	Zn	0.75000 0.00000 0.30043 1.23400
Zn	Zn	0.16108 0.75000 0.75000 1.20500
Zn	Zn	0.33892 0.25000 0.75000 1.20400
Zn	Zn	0.83892 0.25000 0.25000 1.20300
Zn	Zn	0.66108 0.75000 0.25000 1.20500
O 	O 	0.75000 0.50000 0.57327 -0.61500
O 	O 	0.75000 -0.00000 0.92673 -0.62400
O 	O 	0.25000 0.50000 0.42673 -0.61500
O 	O 	0.25000 0.00000 0.07327 -0.62200
