data_crystal

_cell_length_a 18.16670
_cell_length_b 12.51750
_cell_length_c 11.02100
_cell_angle_alpha 90.00000
_cell_angle_beta  102.67200
_cell_angle_gamma 90.00000

_symmetry_space_group_name_	'P 1'
_symmetry_space_group_name_H-M	'P 1'

loop_
_symmetry_equiv_pos_as_xyz
  x,y,z

loop_
_atom_site_label
_atom_site_type_symbol
_atom_site_fract_x
_atom_site_fract_y
_atom_site_fract_z
_atom_site_charge
Mg	Mg	0.08427 0.03632 0.04019 1.46600
N 	N 	0.18411 0.93187 0.11037 -0.20700
O 	O 	0.07527 0.98368 0.21889 -0.72300
O 	O 	0.13210 0.90995 0.39936 -0.53800
O 	O 	0.35482 0.66603 0.37018 -0.48900
O 	O 	0.41692 0.71139 0.22404 -0.51400
O 	O 	0.97919 0.08840 0.05421 -0.88400
H 	H 	0.96210 0.14900 0.02800 0.33800
C 	C 	0.18875 0.89201 0.22610 -0.09600
C 	C 	0.24513 0.82450 0.28380 0.01500
H 	H 	0.24610 0.80200 0.35500 0.05100
C 	C 	0.30073 0.79547 0.22180 -0.08500
C 	C 	0.29761 0.83820 0.10460 -0.04300
H 	H 	0.33350 0.82100 0.06100 0.05600
C 	C 	0.23857 0.90480 0.05240 0.04500
H 	H 	0.23220 0.93200 0.97100 0.00500
C 	C 	0.12693 0.93049 0.28760 0.45000
C 	C 	0.36331 0.71765 0.27750 0.41000
Mg	Mg	0.58427 0.53632 0.04019 1.47300
N 	N 	0.68411 0.43187 0.11037 -0.20600
O 	O 	0.57527 0.48368 0.21889 -0.67600
O 	O 	0.63210 0.40995 0.39936 -0.51100
O 	O 	0.85482 0.16603 0.37018 -0.46400
O 	O 	0.91692 0.21139 0.22404 -0.46500
O 	O 	0.47919 0.58840 0.05421 -0.96400
H 	H 	0.46210 0.64900 0.02800 0.33300
C 	C 	0.68875 0.39201 0.22610 -0.08000
C 	C 	0.74513 0.32450 0.28380 0.00600
H 	H 	0.74610 0.30200 0.35500 0.06300
C 	C 	0.80073 0.29547 0.22180 -0.06700
C 	C 	0.79761 0.33820 0.10460 -0.04500
H 	H 	0.83350 0.32100 0.06100 0.06800
C 	C 	0.73857 0.40480 0.05240 0.04500
H 	H 	0.73220 0.43200 0.97100 0.01300
C 	C 	0.62693 0.43049 0.28760 0.44200
C 	C 	0.86331 0.21765 0.27750 0.40400
Mg	Mg	0.91573 0.03632 0.45981 1.47800
N 	N 	0.81589 0.93187 0.38963 -0.20400
O 	O 	0.92473 0.98368 0.28111 -0.62000
O 	O 	0.86790 0.90995 0.10064 -0.48200
O 	O 	0.64518 0.66603 0.12982 -0.48100
O 	O 	0.58308 0.71139 0.27596 -0.51400
O 	O 	0.02081 0.08840 0.44579 -1.04200
H 	H 	0.03790 0.14900 0.47200 0.32700
C 	C 	0.81125 0.89201 0.27390 -0.07200
C 	C 	0.75487 0.82450 0.21620 0.00700
H 	H 	0.75390 0.80200 0.14500 0.06400
C 	C 	0.69927 0.79547 0.27820 -0.07700
C 	C 	0.70239 0.83820 0.39540 -0.04100
H 	H 	0.66650 0.82100 0.43900 0.05300
C 	C 	0.76143 0.90480 0.44760 0.03800
H 	H 	0.76780 0.93200 0.52900 0.01100
C 	C 	0.87307 0.93049 0.21240 0.43400
C 	C 	0.63669 0.71765 0.22250 0.40900
Mg	Mg	0.41573 0.53632 0.45981 1.47300
N 	N 	0.31589 0.43187 0.38963 -0.20300
O 	O 	0.42473 0.48368 0.28111 -0.67700
O 	O 	0.36790 0.40995 0.10064 -0.51600
O 	O 	0.14518 0.16603 0.12982 -0.51100
O 	O 	0.08308 0.21139 0.27596 -0.56100
O 	O 	0.52081 0.58840 0.44579 -0.96300
H 	H 	0.53790 0.64900 0.47200 0.33200
C 	C 	0.31125 0.39201 0.27390 -0.09400
C 	C 	0.25487 0.32450 0.21620 0.02300
H 	H 	0.25390 0.30200 0.14500 0.04600
C 	C 	0.19927 0.29547 0.27820 -0.10300
C 	C 	0.20239 0.33820 0.39540 -0.03000
H 	H 	0.16650 0.32100 0.43900 0.03700
C 	C 	0.26143 0.40480 0.44760 0.02300
H 	H 	0.26780 0.43200 0.52900 0.01100
C 	C 	0.37307 0.43049 0.21240 0.44500
C 	C 	0.13669 0.21765 0.22250 0.41600
Mg	Mg	0.91573 0.96368 0.95981 1.47700
N 	N 	0.81589 0.06813 0.88963 -0.20600
O 	O 	0.92473 0.01632 0.78111 -0.62200
O 	O 	0.86790 0.09005 0.60064 -0.48800
O 	O 	0.64518 0.33397 0.62982 -0.48200
O 	O 	0.58308 0.28861 0.77596 -0.51400
O 	O 	0.02081 0.91160 0.94579 -1.04200
H 	H 	0.03790 0.85100 0.97200 0.32700
C 	C 	0.81125 0.10799 0.77390 -0.07200
C 	C 	0.75487 0.17550 0.71620 0.00400
H 	H 	0.75390 0.19800 0.64500 0.06300
C 	C 	0.69927 0.20453 0.77820 -0.07500
C 	C 	0.70239 0.16180 0.89540 -0.04900
H 	H 	0.66650 0.17900 0.93900 0.05700
C 	C 	0.76143 0.09520 0.94760 0.05100
H 	H 	0.76780 0.06800 0.02900 0.00200
C 	C 	0.87307 0.06951 0.71240 0.43400
C 	C 	0.63669 0.28235 0.72250 0.40700
Mg	Mg	0.41573 0.46368 0.95981 1.47300
N 	N 	0.31589 0.56813 0.88963 -0.20400
O 	O 	0.42473 0.51632 0.78111 -0.67700
O 	O 	0.36790 0.59005 0.60064 -0.51500
O 	O 	0.14518 0.83397 0.62982 -0.50800
O 	O 	0.08308 0.78861 0.77596 -0.56000
O 	O 	0.52081 0.41160 0.94579 -0.96300
H 	H 	0.53790 0.35100 0.97200 0.33300
C 	C 	0.31125 0.60799 0.77390 -0.09300
C 	C 	0.25487 0.67550 0.71620 0.02100
H 	H 	0.25390 0.69800 0.64500 0.04900
C 	C 	0.19927 0.70453 0.77820 -0.10100
C 	C 	0.20239 0.66180 0.89540 -0.03300
H 	H 	0.16650 0.67900 0.93900 0.03800
C 	C 	0.26143 0.59520 0.94760 0.02600
H 	H 	0.26780 0.56800 0.02900 0.01000
C 	C 	0.37307 0.56951 0.71240 0.44400
C 	C 	0.13669 0.78235 0.72250 0.41400
Mg	Mg	0.08427 0.96368 0.54019 1.46800
N 	N 	0.18411 0.06813 0.61037 -0.20500
O 	O 	0.07527 0.01632 0.71889 -0.72100
O 	O 	0.13210 0.09005 0.89936 -0.53000
O 	O 	0.35482 0.33397 0.87018 -0.48600
O 	O 	0.41692 0.28861 0.72404 -0.51500
O 	O 	0.97919 0.91160 0.55421 -0.88300
H 	H 	0.96210 0.85100 0.52800 0.33800
C 	C 	0.18875 0.10799 0.72610 -0.09600
C 	C 	0.24513 0.17550 0.78380 0.01800
H 	H 	0.24610 0.19800 0.85500 0.05200
C 	C 	0.30073 0.20453 0.72180 -0.08800
C 	C 	0.29761 0.16180 0.60460 -0.03500
H 	H 	0.33350 0.17900 0.56100 0.05200
C 	C 	0.23857 0.09520 0.55240 0.03200
H 	H 	0.23220 0.06800 0.47100 0.01300
C 	C 	0.12693 0.06951 0.78760 0.45000
C 	C 	0.36331 0.28235 0.77750 0.41100
Mg	Mg	0.58427 0.46368 0.54019 1.47300
N 	N 	0.68411 0.56813 0.61037 -0.20600
O 	O 	0.57527 0.51632 0.71889 -0.67600
O 	O 	0.63210 0.59005 0.89936 -0.51300
O 	O 	0.85482 0.83397 0.87018 -0.46800
O 	O 	0.91692 0.78861 0.72404 -0.46700
O 	O 	0.47919 0.41160 0.55421 -0.96400
H 	H 	0.46210 0.35100 0.52800 0.33200
C 	C 	0.68875 0.60799 0.72610 -0.08200
C 	C 	0.74513 0.67550 0.78380 0.00800
H 	H 	0.74610 0.69800 0.85500 0.06000
C 	C 	0.80073 0.70453 0.72180 -0.07000
C 	C 	0.79761 0.66180 0.60460 -0.04200
H 	H 	0.83350 0.67900 0.56100 0.06700
C 	C 	0.73857 0.59520 0.55240 0.04300
H 	H 	0.73220 0.56800 0.47100 0.01500
C 	C 	0.62693 0.56951 0.78760 0.44200
C 	C 	0.86331 0.78235 0.77750 0.40500
Mg	Mg	0.00000 0.09915 0.25000 1.46300
Mg	Mg	0.50000 0.59915 0.25000 1.47700
Mg	Mg	0.00000 0.90085 0.75000 1.46300
Mg	Mg	0.50000 0.40085 0.75000 1.47700
