data_crystal

_cell_length_a 18.20400
_cell_length_b 12.38840
_cell_length_c 11.00140
_cell_angle_alpha 90.00000
_cell_angle_beta  102.36600
_cell_angle_gamma 90.00000

_symmetry_space_group_name_	'P 1'
_symmetry_space_group_name_H-M	'P 1'

loop_
_symmetry_equiv_pos_as_xyz
  x,y,z

loop_
_atom_site_label
_atom_site_type_symbol
_atom_site_fract_x
_atom_site_fract_y
_atom_site_fract_z
_atom_site_charge
N 	N 	0.81640 0.56780 0.38990 -0.20100
Mg	Mg	0.91703 0.46405 0.46041 1.48200
O 	O 	0.92470 0.51440 0.28050 -0.60500
O 	O 	0.86949 0.59120 0.10180 -0.48400
O 	O 	0.64534 0.83280 0.12830 -0.47300
O 	O 	0.58117 0.78210 0.27120 -0.50100
O 	O 	0.02100 0.41030 0.44540 -1.46900
H 	H 	0.03500 0.36600 0.48000 0.71600
C 	C 	0.81190 0.60700 0.27430 -0.08500
C 	C 	0.75490 0.67450 0.21570 0.02600
H 	H 	0.75800 0.70200 0.14300 0.05300
C 	C 	0.69960 0.70120 0.27770 -0.09400
C 	C 	0.70240 0.66000 0.39370 -0.01200
H 	H 	0.66100 0.67100 0.44000 0.03600
C 	C 	0.76200 0.59520 0.44740 0.01700
H 	H 	0.76500 0.57100 0.52300 0.02000
C 	C 	0.87420 0.56820 0.21240 0.43900
C 	C 	0.63630 0.77810 0.21940 0.40100
N 	N 	0.31640 0.06780 0.38990 -0.20000
Mg	Mg	0.41703 0.96405 0.46041 1.47800
O 	O 	0.42470 0.01440 0.28050 -0.65800
O 	O 	0.36949 0.09120 0.10180 -0.50800
O 	O 	0.14534 0.33280 0.12830 -0.49400
O 	O 	0.08117 0.28210 0.27120 -0.54800
O 	O 	0.52100 0.91030 0.44540 -1.37100
H 	H 	0.53500 0.86600 0.48000 0.70100
C 	C 	0.31190 0.10700 0.27430 -0.10100
C 	C 	0.25490 0.17450 0.21570 0.03500
H 	H 	0.25800 0.20200 0.14300 0.04300
C 	C 	0.19960 0.20120 0.27770 -0.11300
C 	C 	0.20240 0.16000 0.39370 -0.00500
H 	H 	0.16100 0.17100 0.44000 0.02000
C 	C 	0.26200 0.09520 0.44740 0.00500
H 	H 	0.26500 0.07100 0.52300 0.01800
C 	C 	0.37420 0.06820 0.21240 0.45000
C 	C 	0.13630 0.27810 0.21940 0.40600
N 	N 	0.18360 0.56780 0.11010 -0.20000
Mg	Mg	0.08297 0.46405 0.03959 1.47200
O 	O 	0.07530 0.51440 0.21950 -0.71200
O 	O 	0.13051 0.59120 0.39820 -0.53500
O 	O 	0.35466 0.83280 0.37170 -0.47600
O 	O 	0.41883 0.78210 0.22880 -0.50200
O 	O 	0.97900 0.41030 0.05460 -1.26300
H 	H 	0.96500 0.36600 0.02000 0.68400
C 	C 	0.18810 0.60700 0.22570 -0.11300
C 	C 	0.24510 0.67450 0.28430 0.04000
H 	H 	0.24200 0.70200 0.35700 0.03900
C 	C 	0.30040 0.70120 0.22230 -0.10800
C 	C 	0.29760 0.66000 0.10630 -0.00100
H 	H 	0.33900 0.67100 0.06000 0.03200
C 	C 	0.23800 0.59520 0.05260 -0.00400
H 	H 	0.23500 0.57100 0.97700 0.03100
C 	C 	0.12580 0.56820 0.28760 0.45800
C 	C 	0.36370 0.77810 0.28060 0.40400
N 	N 	0.68360 0.06780 0.11010 -0.20600
Mg	Mg	0.58297 0.96405 0.03959 1.47700
O 	O 	0.57530 0.01440 0.21950 -0.65500
O 	O 	0.63051 0.09120 0.39820 -0.50800
O 	O 	0.85466 0.33280 0.37170 -0.45000
O 	O 	0.91883 0.28210 0.22880 -0.44700
O 	O 	0.47900 0.91030 0.05460 -1.37300
H 	H 	0.46500 0.86600 0.02000 0.70000
C 	C 	0.68810 0.10700 0.22570 -0.08900
C 	C 	0.74510 0.17450 0.28430 0.02000
H 	H 	0.74200 0.20200 0.35700 0.05500
C 	C 	0.80040 0.20120 0.22230 -0.07400
C 	C 	0.79760 0.16000 0.10630 -0.03100
H 	H 	0.83900 0.17100 0.06000 0.05900
C 	C 	0.73800 0.09520 0.05260 0.05500
H 	H 	0.73500 0.07100 0.97700 0.00200
C 	C 	0.62580 0.06820 0.28760 0.44700
C 	C 	0.86370 0.27810 0.28060 0.39300
N 	N 	0.18360 0.43220 0.61010 -0.20100
Mg	Mg	0.08297 0.53595 0.53959 1.47300
O 	O 	0.07530 0.48560 0.71950 -0.71000
O 	O 	0.13051 0.40880 0.89820 -0.53400
O 	O 	0.35466 0.16720 0.87170 -0.47700
O 	O 	0.41883 0.21790 0.72880 -0.50200
O 	O 	0.97900 0.58970 0.55460 -1.26500
H 	H 	0.96500 0.63400 0.52000 0.68300
C 	C 	0.18810 0.39300 0.72570 -0.11100
C 	C 	0.24510 0.32550 0.78430 0.03700
H 	H 	0.24200 0.29800 0.85700 0.04000
C 	C 	0.30040 0.29880 0.72230 -0.10500
C 	C 	0.29760 0.34000 0.60630 -0.00600
H 	H 	0.33900 0.32900 0.56000 0.03500
C 	C 	0.23800 0.40480 0.55260 0.00900
H 	H 	0.23500 0.42900 0.47700 0.02300
C 	C 	0.12580 0.43180 0.78760 0.45700
C 	C 	0.36370 0.22190 0.78060 0.40300
N 	N 	0.68360 0.93220 0.61010 -0.20200
Mg	Mg	0.58297 0.03595 0.53959 1.47800
O 	O 	0.57530 0.98560 0.71950 -0.65700
O 	O 	0.63051 0.90880 0.89820 -0.50500
O 	O 	0.85466 0.66720 0.87170 -0.45100
O 	O 	0.91883 0.71790 0.72880 -0.45000
O 	O 	0.47900 0.08970 0.55460 -1.37100
H 	H 	0.46500 0.13400 0.52000 0.70100
C 	C 	0.68810 0.89300 0.72570 -0.09200
C 	C 	0.74510 0.82550 0.78430 0.02700
H 	H 	0.74200 0.79800 0.85700 0.05300
C 	C 	0.80040 0.79880 0.72230 -0.08300
C 	C 	0.79760 0.84000 0.60630 -0.01500
H 	H 	0.83900 0.82900 0.56000 0.05100
C 	C 	0.73800 0.90480 0.55260 0.02200
H 	H 	0.73500 0.92900 0.47700 0.02200
C 	C 	0.62580 0.93180 0.78760 0.44800
C 	C 	0.86370 0.72190 0.78060 0.39600
N 	N 	0.81640 0.43220 0.88990 -0.19900
Mg	Mg	0.91703 0.53595 0.96041 1.48300
O 	O 	0.92470 0.48560 0.78050 -0.60700
O 	O 	0.86949 0.40880 0.60180 -0.48500
O 	O 	0.64534 0.16720 0.62830 -0.47100
O 	O 	0.58117 0.21790 0.77120 -0.50200
O 	O 	0.02100 0.58970 0.94540 -1.46600
H 	H 	0.03500 0.63400 0.98000 0.71800
C 	C 	0.81190 0.39300 0.77430 -0.08700
C 	C 	0.75490 0.32550 0.71570 0.02800
H 	H 	0.75800 0.29800 0.64300 0.05200
C 	C 	0.69960 0.29880 0.77770 -0.09700
C 	C 	0.70240 0.34000 0.89370 -0.00600
H 	H 	0.66100 0.32900 0.94000 0.03300
C 	C 	0.76200 0.40480 0.94740 0.00300
H 	H 	0.76500 0.42900 0.02300 0.02800
C 	C 	0.87420 0.43180 0.71240 0.44000
C 	C 	0.63630 0.22190 0.71940 0.40100
N 	N 	0.31640 0.93220 0.88990 -0.20400
Mg	Mg	0.41703 0.03595 0.96041 1.47700
O 	O 	0.42470 0.98560 0.78050 -0.65600
O 	O 	0.36949 0.90880 0.60180 -0.51100
O 	O 	0.14534 0.66720 0.62830 -0.49300
O 	O 	0.08117 0.71790 0.77120 -0.54600
O 	O 	0.52100 0.08970 0.94540 -1.37300
H 	H 	0.53500 0.13400 0.98000 0.70000
C 	C 	0.31190 0.89300 0.77430 -0.09800
C 	C 	0.25490 0.82550 0.71570 0.02800
H 	H 	0.25800 0.79800 0.64300 0.04500
C 	C 	0.19960 0.79880 0.77770 -0.10400
C 	C 	0.20240 0.84000 0.89370 -0.02200
H 	H 	0.16100 0.82900 0.94000 0.02800
C 	C 	0.26200 0.90480 0.94740 0.03800
H 	H 	0.26500 0.92900 0.02300 -0.00100
C 	C 	0.37420 0.93180 0.71240 0.44800
C 	C 	0.13630 0.72190 0.71940 0.40200
Mg	Mg	0.00000 0.39659 0.25000 1.47100
Mg	Mg	0.50000 0.89659 0.25000 1.48400
Mg	Mg	-0.00000 0.60341 0.75000 1.47100
Mg	Mg	0.50000 0.10341 0.75000 1.48400
