data_crystal

_cell_length_a 17.99580
_cell_length_b 12.85310
_cell_length_c 11.03940
_cell_angle_alpha 90.00000
_cell_angle_beta  103.58800
_cell_angle_gamma 90.00000

_symmetry_space_group_name_	'P 1'
_symmetry_space_group_name_H-M	'P 1'

loop_
_symmetry_equiv_pos_as_xyz
  x,y,z

loop_
_atom_site_label
_atom_site_type_symbol
_atom_site_fract_x
_atom_site_fract_y
_atom_site_fract_z
_atom_site_charge
Mg	Mg	0.41464 0.53577 0.45809 1.47600
O 	O 	0.52131 0.58608 0.44628 -1.16000
H 	H 	0.53720 0.63620 0.47400 0.52100
O 	O 	0.36506 0.41384 0.09729 -0.51000
O 	O 	0.08303 0.20798 0.27519 -0.55900
O 	O 	0.14517 0.16520 0.12839 -0.50600
O 	O 	0.42330 0.48576 0.27891 -0.66200
C 	C 	0.30926 0.39449 0.27046 -0.10100
N 	N 	0.31386 0.43302 0.38578 -0.20200
C 	C 	0.13655 0.21628 0.22092 0.40900
C 	C 	0.25285 0.32559 0.21243 0.03800
H 	H 	0.25390 0.29940 0.13200 0.04000
C 	C 	0.19803 0.29536 0.27529 -0.11200
C 	C 	0.20159 0.33673 0.39237 -0.02100
H 	H 	0.16460 0.31940 0.43600 0.03000
C 	C 	0.37057 0.43374 0.20905 0.43700
C 	C 	0.26001 0.40442 0.44415 0.01400
H 	H 	0.26410 0.43410 0.52600 0.01300
Mg	Mg	0.91464 0.03577 0.45809 1.48000
O 	O 	0.02131 0.08608 0.44628 -1.25000
H 	H 	0.03720 0.13620 0.47400 0.52700
O 	O 	0.86506 0.91384 0.09729 -0.47700
O 	O 	0.58303 0.70798 0.27519 -0.51100
O 	O 	0.64517 0.66520 0.12839 -0.47700
O 	O 	0.92330 0.98576 0.27891 -0.60500
C 	C 	0.80926 0.89449 0.27046 -0.08200
N 	N 	0.81386 0.93302 0.38578 -0.20200
C 	C 	0.63655 0.71628 0.22092 0.40400
C 	C 	0.75285 0.82559 0.21243 0.03100
H 	H 	0.75390 0.79940 0.13200 0.05300
C 	C 	0.69803 0.79536 0.27529 -0.09000
C 	C 	0.70159 0.83673 0.39237 -0.02800
H 	H 	0.66460 0.81940 0.43600 0.04600
C 	C 	0.87057 0.93374 0.20905 0.42700
C 	C 	0.76001 0.90442 0.44415 0.02700
H 	H 	0.76410 0.93410 0.52600 0.01400
Mg	Mg	0.58536 0.53577 0.04191 1.47600
O 	O 	0.47869 0.58608 0.05372 -1.16200
H 	H 	0.46280 0.63620 0.02600 0.52200
O 	O 	0.63494 0.41384 0.40271 -0.50500
O 	O 	0.91697 0.20798 0.22481 -0.46200
O 	O 	0.85483 0.16520 0.37161 -0.45900
O 	O 	0.57670 0.48576 0.22109 -0.66100
C 	C 	0.69074 0.39449 0.22954 -0.09100
N 	N 	0.68614 0.43302 0.11422 -0.20400
C 	C 	0.86345 0.21628 0.27908 0.40000
C 	C 	0.74715 0.32559 0.28757 0.03100
H 	H 	0.74610 0.29940 0.36800 0.05100
C 	C 	0.80197 0.29536 0.22471 -0.08000
C 	C 	0.79841 0.33673 0.10763 -0.03200
H 	H 	0.83540 0.31940 0.06400 0.06100
C 	C 	0.62943 0.43374 0.29095 0.43500
C 	C 	0.73999 0.40442 0.05585 0.03600
H 	H 	0.73590 0.43410 0.97400 0.01700
Mg	Mg	0.08536 0.03577 0.04191 1.47000
O 	O 	0.97869 0.08608 0.05372 -1.07200
H 	H 	0.96280 0.13620 0.02600 0.51400
O 	O 	0.13494 0.91384 0.40271 -0.53000
O 	O 	0.41697 0.70798 0.22481 -0.51100
O 	O 	0.35483 0.66520 0.37161 -0.48300
O 	O 	0.07670 0.98576 0.22109 -0.70800
C 	C 	0.19074 0.89449 0.22954 -0.10500
N 	N 	0.18614 0.93302 0.11422 -0.20500
C 	C 	0.36345 0.71628 0.27908 0.40400
C 	C 	0.24715 0.82559 0.28757 0.03400
H 	H 	0.24610 0.79940 0.36800 0.04200
C 	C 	0.30197 0.79536 0.22471 -0.09600
C 	C 	0.29841 0.83673 0.10763 -0.03100
H 	H 	0.33540 0.81940 0.06400 0.04900
C 	C 	0.12943 0.93374 0.29095 0.44200
C 	C 	0.23999 0.90442 0.05585 0.03500
H 	H 	0.23590 0.93410 0.97400 0.00800
Mg	Mg	0.58536 0.46423 0.54191 1.47600
O 	O 	0.47869 0.41392 0.55372 -1.16200
H 	H 	0.46280 0.36380 0.52600 0.52100
O 	O 	0.63494 0.58616 0.90271 -0.50700
O 	O 	0.91697 0.79202 0.72481 -0.46400
O 	O 	0.85483 0.83480 0.87161 -0.46300
O 	O 	0.57670 0.51424 0.72109 -0.66100
C 	C 	0.69074 0.60551 0.72954 -0.09200
N 	N 	0.68614 0.56698 0.61422 -0.20400
C 	C 	0.86345 0.78372 0.77908 0.40100
C 	C 	0.74715 0.67441 0.78757 0.03200
H 	H 	0.74610 0.70060 0.86800 0.04900
C 	C 	0.80197 0.70464 0.72471 -0.08200
C 	C 	0.79841 0.66327 0.60763 -0.02900
H 	H 	0.83540 0.68060 0.56400 0.06000
C 	C 	0.62943 0.56626 0.79095 0.43600
C 	C 	0.73999 0.59558 0.55585 0.03200
H 	H 	0.73590 0.56590 0.47400 0.01900
Mg	Mg	0.08536 0.96423 0.54191 1.47000
O 	O 	0.97869 0.91392 0.55372 -1.07100
H 	H 	0.96280 0.86380 0.52600 0.51400
O 	O 	0.13494 0.08616 0.90271 -0.52400
O 	O 	0.41697 0.29202 0.72481 -0.51200
O 	O 	0.35483 0.33480 0.87161 -0.48200
O 	O 	0.07670 0.01424 0.72109 -0.70700
C 	C 	0.19074 0.10551 0.72954 -0.10500
N 	N 	0.18614 0.06698 0.61422 -0.20400
C 	C 	0.36345 0.28372 0.77908 0.40500
C 	C 	0.24715 0.17441 0.78757 0.03600
H 	H 	0.24610 0.20060 0.86800 0.04300
C 	C 	0.30197 0.20464 0.72471 -0.09900
C 	C 	0.29841 0.16327 0.60763 -0.02400
H 	H 	0.33540 0.18060 0.56400 0.04500
C 	C 	0.12943 0.06626 0.79095 0.44200
C 	C 	0.23999 0.09558 0.55585 0.02100
H 	H 	0.23590 0.06590 0.47400 0.01700
Mg	Mg	0.41464 0.46423 0.95809 1.47600
O 	O 	0.52131 0.41392 0.94628 -1.16200
H 	H 	0.53720 0.36380 0.97400 0.52100
O 	O 	0.36506 0.58616 0.59729 -0.50900
O 	O 	0.08303 0.79202 0.77519 -0.55800
O 	O 	0.14517 0.83480 0.62839 -0.50300
O 	O 	0.42330 0.51424 0.77891 -0.66200
C 	C 	0.30926 0.60551 0.77046 -0.10100
N 	N 	0.31386 0.56698 0.88578 -0.20300
C 	C 	0.13655 0.78372 0.72092 0.40800
C 	C 	0.25285 0.67441 0.71243 0.03700
H 	H 	0.25390 0.70060 0.63200 0.04100
C 	C 	0.19803 0.70464 0.77529 -0.11100
C 	C 	0.20159 0.66327 0.89237 -0.02200
H 	H 	0.16460 0.68060 0.93600 0.03000
C 	C 	0.37057 0.56626 0.70905 0.43600
C 	C 	0.26001 0.59558 0.94415 0.01500
H 	H 	0.26410 0.56590 0.02600 0.01300
Mg	Mg	0.91464 0.96423 0.95809 1.47900
O 	O 	0.02131 0.91392 0.94628 -1.25100
H 	H 	0.03720 0.86380 0.97400 0.52700
O 	O 	0.86506 0.08616 0.59729 -0.48300
O 	O 	0.58303 0.29202 0.77519 -0.51100
O 	O 	0.64517 0.33480 0.62839 -0.47800
O 	O 	0.92330 0.01424 0.77891 -0.60700
C 	C 	0.80926 0.10551 0.77046 -0.08300
N 	N 	0.81386 0.06698 0.88578 -0.20400
C 	C 	0.63655 0.28372 0.72092 0.40300
C 	C 	0.75285 0.17441 0.71243 0.03000
H 	H 	0.75390 0.20060 0.63200 0.05200
C 	C 	0.69803 0.20464 0.77529 -0.08900
C 	C 	0.70159 0.16327 0.89237 -0.03300
H 	H 	0.66460 0.18060 0.93600 0.04900
C 	C 	0.87057 0.06626 0.70905 0.42800
C 	C 	0.76001 0.09558 0.94415 0.03700
H 	H 	0.76410 0.06590 0.02600 0.00700
Mg	Mg	0.50000 0.59773 0.25000 1.48000
Mg	Mg	0.00000 0.09773 0.25000 1.46600
Mg	Mg	0.50000 0.40227 0.75000 1.48000
Mg	Mg	0.00000 0.90227 0.75000 1.46600
