data_crystal

_cell_length_a 9.37890
_cell_length_b 10.92470
_cell_length_c 18.89930
_cell_angle_alpha 104.85800
_cell_angle_beta  94.31400
_cell_angle_gamma 107.71400

_symmetry_space_group_name_	'P 1'
_symmetry_space_group_name_H-M	'P 1'

loop_
_symmetry_equiv_pos_as_xyz
  x,y,z

loop_
_atom_site_label
_atom_site_type_symbol
_atom_site_fract_x
_atom_site_fract_y
_atom_site_fract_z
_atom_site_charge
Zn	Zn	0.31589 0.03581 0.13786 1.23000
Zn	Zn	0.04421 0.36595 0.76793 1.16400
O 	O 	0.97270 0.99690 0.10852 -0.37000
O 	O 	0.21000 0.15280 0.03254 -0.46800
O 	O 	0.42690 0.13800 0.07846 -0.46300
O 	O 	0.17370 0.08060 0.20025 -0.45500
C 	C 	0.59180 0.30180 0.00147 -0.12600
H 	H 	0.64610 0.27850 0.03750 0.08100
C 	C 	0.34980 0.17440 0.03552 0.32900
C 	C 	0.58890 0.41710 0.90894 -0.06400
H 	H 	0.64130 0.47270 0.88130 0.06200
C 	C 	0.03100 0.03280 0.17492 0.26400
C 	C 	0.67120 0.38350 0.96123 0.08100
C 	C 	0.77740 0.00810 0.21318 -0.03800
H 	H 	0.74140 0.01250 0.16590 0.05800
C 	C 	0.35370 0.28750 0.93605 -0.02200
H 	H 	0.24590 0.25320 0.92680 0.06500
C 	C 	0.92760 0.01830 0.23127 -0.04400
C 	C 	0.43400 0.25460 0.98923 -0.00500
C 	C 	0.84030 0.43940 0.97810 -0.05400
C 	C 	0.68000 0.99150 0.26416 -0.04000
C 	C 	0.98150 0.01550 0.30125 -0.02400
H 	H 	0.08540 0.02640 0.31410 0.02400
C 	C 	0.43090 0.36990 0.89683 -0.04700
O 	O 	0.91070 0.15832 0.01810 -0.44700
O 	O 	0.78940 0.15586 0.91077 -0.48100
O 	O 	0.49750 0.04470 0.19886 -0.46500
O 	O 	0.19740 0.37030 0.84208 -0.49400
O 	O 	0.41740 0.91560 0.27200 -0.28100
C 	C 	0.93050 0.36470 0.99264 -0.00100
C 	C 	0.91240 0.57440 0.98486 0.07300
H 	H 	0.85370 0.62650 0.97400 0.02900
C 	C 	0.87120 0.21420 0.97411 0.38200
O 	O 	0.92650 0.73320 0.32803 -0.44500
C 	C 	0.34050 0.41040 0.84322 0.34900
O 	O 	0.40510 0.47720 0.80470 -0.29800
C 	C 	0.51820 0.98160 0.24468 0.37000
C 	C 	0.73260 0.98520 0.33414 -0.03000
H 	H 	0.66520 0.97310 0.36880 0.06700
C 	C 	0.88360 0.99670 0.35269 0.01000
C 	C 	0.94050 0.99470 0.42801 0.11500
C 	C 	0.08350 0.91980 0.51030 0.04700
H 	H 	0.14180 0.86490 0.51690 0.03700
C 	C 	0.02520 0.91080 0.43840 -0.12300
O 	O 	0.17260 0.79570 0.37184 -0.30200
C 	C 	0.04540 0.80650 0.37520 0.31500
Zn	Zn	0.68411 0.96419 0.86214 1.24600
Zn	Zn	0.95579 0.63405 0.23207 1.17500
O 	O 	0.02730 0.00310 0.89148 -0.50200
O 	O 	0.79000 0.84720 0.96746 -0.44800
O 	O 	0.57310 0.86200 0.92154 -0.46400
O 	O 	0.82630 0.91940 0.79975 -0.47700
C 	C 	0.40820 0.69820 0.99853 0.12100
H 	H 	0.35390 0.72150 0.96250 0.01700
C 	C 	0.65020 0.82560 0.96448 0.42600
C 	C 	0.41110 0.58290 0.09106 0.05300
H 	H 	0.35870 0.52730 0.11870 0.01700
C 	C 	0.96900 0.96720 0.82508 0.46300
C 	C 	0.32880 0.61650 0.03877 -0.11100
C 	C 	0.22260 0.99190 0.78682 0.10500
H 	H 	0.25860 0.98750 0.83410 0.03000
C 	C 	0.64630 0.71250 0.06395 0.09300
H 	H 	0.75410 0.74680 0.07320 0.02600
C 	C 	0.07240 0.98170 0.76873 -0.15700
C 	C 	0.56600 0.74540 0.01077 -0.19400
C 	C 	0.15970 0.56060 0.02190 0.12000
C 	C 	0.32000 0.00850 0.73584 -0.13400
C 	C 	0.01850 0.98450 0.69875 0.01100
H 	H 	0.91460 0.97360 0.68590 0.06100
C 	C 	0.56910 0.63010 0.10317 -0.13700
O 	O 	0.08930 0.84168 0.98190 -0.41100
O 	O 	0.21060 0.84414 0.08923 -0.47300
O 	O 	0.50250 0.95530 0.80114 -0.41200
O 	O 	0.80260 0.62970 0.15792 -0.49400
O 	O 	0.58260 0.08440 0.72800 -0.28200
C 	C 	0.06950 0.63530 0.00736 -0.21500
C 	C 	0.08760 0.42560 0.01514 -0.19000
H 	H 	0.14630 0.37350 0.02600 0.09400
C 	C 	0.12880 0.78580 0.02589 0.38200
O 	O 	0.07350 0.26680 0.67197 -0.48300
C 	C 	0.65950 0.58960 0.15678 0.37700
O 	O 	0.59490 0.52280 0.19530 -0.30800
C 	C 	0.48180 0.01840 0.75532 0.33300
C 	C 	0.26740 0.01480 0.66586 0.00100
H 	H 	0.33480 0.02690 0.63120 0.04700
C 	C 	0.11640 0.00330 0.64731 -0.02500
C 	C 	0.05950 0.00530 0.57199 -0.05000
C 	C 	0.91650 0.08020 0.48970 -0.11400
H 	H 	0.85820 0.13510 0.48310 0.07900
C 	C 	0.97480 0.08920 0.56160 -0.00500
O 	O 	0.82740 0.20430 0.62816 -0.30400
C 	C 	0.95460 0.19350 0.62480 0.32900
Zn	Zn	-0.00000 0.00000 -0.00000 1.21900
