data_crystal

_cell_length_a 12.02400
_cell_length_b 13.77300
_cell_length_c 15.85000
_cell_angle_alpha 90.00000
_cell_angle_beta  99.09300
_cell_angle_gamma 90.00000

_symmetry_space_group_name_	'P 1'
_symmetry_space_group_name_H-M	'P 1'

loop_
_symmetry_equiv_pos_as_xyz
  x,y,z

loop_
_atom_site_label
_atom_site_type_symbol
_atom_site_fract_x
_atom_site_fract_y
_atom_site_fract_z
_atom_site_charge
Zn	Zn	0.37139 0.21356 0.43228 1.23300
Zn	Zn	0.25255 0.10472 0.24010 1.19100
O 	O 	0.76037 0.64198 0.04370 -0.48900
O 	O 	0.83898 0.56893 0.16606 -0.49800
O 	O 	0.60148 0.55820 0.18146 -0.49000
O 	O 	0.49961 0.62851 0.06943 -0.46500
C 	C 	0.01950 0.51600 0.08625 -0.03400
H 	H 	0.03250 0.52700 0.14620 0.04600
C 	C 	0.41440 0.50830 0.14346 -0.12400
C 	C 	0.21840 0.46340 0.10284 -0.02500
C 	C 	0.10660 0.47850 0.04780 0.04200
C 	C 	0.91430 0.53800 0.04048 -0.11100
C 	C 	0.31150 0.51700 0.08819 0.00800
H 	H 	0.30550 0.55960 0.04050 0.04500
C 	C 	0.33010 0.38940 0.22512 -0.12200
C 	C 	0.83010 0.58530 0.08792 0.41000
C 	C 	0.22820 0.40010 0.17170 0.00000
H 	H 	0.16460 0.36390 0.18220 0.02000
O 	O 	0.27110 0.25210 0.29752 -0.52000
C 	C 	0.42280 0.44480 0.21283 0.06000
H 	H 	0.49150 0.43950 0.25140 0.03300
C 	C 	0.51260 0.56930 0.13116 0.41000
O 	O 	0.40170 0.20897 0.03841 -0.40900
O 	O 	0.35540 0.13990 0.15299 -0.42500
O 	O 	0.41960 0.32960 0.35939 -0.40300
C 	C 	0.33980 0.31970 0.29730 0.35100
C 	C 	0.33330 0.19530 0.08974 0.27400
Zn	Zn	0.62861 0.71356 0.06772 1.23200
Zn	Zn	0.74745 0.60472 0.25990 1.19000
O 	O 	0.23963 0.14198 0.45630 -0.49000
O 	O 	0.16102 0.06893 0.33394 -0.49900
O 	O 	0.39852 0.05820 0.31854 -0.49100
O 	O 	0.50039 0.12851 0.43057 -0.46600
C 	C 	0.98050 0.01600 0.41375 -0.03400
H 	H 	0.96750 0.02700 0.35380 0.04400
C 	C 	0.58560 0.00830 0.35654 -0.12400
C 	C 	0.78160 0.96340 0.39716 -0.02500
C 	C 	0.89340 0.97850 0.45220 0.04200
C 	C 	0.08570 0.03800 0.45952 -0.11200
C 	C 	0.68850 0.01700 0.41181 0.00800
H 	H 	0.69450 0.05960 0.45950 0.04500
C 	C 	0.66990 0.88940 0.27488 -0.12200
C 	C 	0.16990 0.08530 0.41208 0.41000
C 	C 	0.77180 0.90010 0.32830 0.00000
H 	H 	0.83540 0.86390 0.31780 0.02000
O 	O 	0.72890 0.75210 0.20248 -0.52000
C 	C 	0.57720 0.94480 0.28717 0.05900
H 	H 	0.50850 0.93950 0.24860 0.03300
C 	C 	0.48740 0.06930 0.36884 0.40900
O 	O 	0.59830 0.70897 0.46159 -0.40900
O 	O 	0.64460 0.63990 0.34701 -0.42500
O 	O 	0.58040 0.82960 0.14061 -0.40400
C 	C 	0.66020 0.81970 0.20270 0.35100
C 	C 	0.66670 0.69530 0.41026 0.27400
Zn	Zn	0.62861 0.78644 0.56772 1.23200
Zn	Zn	0.74745 0.89528 0.75990 1.19000
O 	O 	0.23963 0.35802 0.95630 -0.49000
O 	O 	0.16102 0.43107 0.83394 -0.49900
O 	O 	0.39852 0.44180 0.81854 -0.49100
O 	O 	0.50039 0.37149 0.93057 -0.46600
C 	C 	0.98050 0.48400 0.91375 -0.03500
H 	H 	0.96750 0.47300 0.85380 0.04500
C 	C 	0.58560 0.49170 0.85654 -0.12400
C 	C 	0.78160 0.53660 0.89716 -0.02500
C 	C 	0.89340 0.52150 0.95220 0.04200
C 	C 	0.08570 0.46200 0.95952 -0.11100
C 	C 	0.68850 0.48300 0.91181 0.00800
H 	H 	0.69450 0.44040 0.95950 0.04500
C 	C 	0.66990 0.61060 0.77488 -0.12200
C 	C 	0.16990 0.41470 0.91208 0.41000
C 	C 	0.77180 0.59990 0.82830 0.00000
H 	H 	0.83540 0.63610 0.81780 0.02000
O 	O 	0.72890 0.74790 0.70248 -0.52000
C 	C 	0.57720 0.55520 0.78717 0.06000
H 	H 	0.50850 0.56050 0.74860 0.03300
C 	C 	0.48740 0.43070 0.86884 0.41000
O 	O 	0.59830 0.79103 0.96159 -0.40900
O 	O 	0.64460 0.86010 0.84701 -0.42500
O 	O 	0.58040 0.67040 0.64061 -0.40300
C 	C 	0.66020 0.68030 0.70270 0.35100
C 	C 	0.66670 0.80470 0.91026 0.27400
Zn	Zn	0.37139 0.28644 0.93228 1.23200
Zn	Zn	0.25255 0.39528 0.74010 1.19000
O 	O 	0.76037 0.85802 0.54370 -0.49000
O 	O 	0.83898 0.93107 0.66606 -0.49900
O 	O 	0.60148 0.94180 0.68146 -0.49100
O 	O 	0.49961 0.87149 0.56943 -0.46600
C 	C 	0.01950 0.98400 0.58625 -0.03400
H 	H 	0.03250 0.97300 0.64620 0.04400
C 	C 	0.41440 0.99170 0.64346 -0.12400
C 	C 	0.21840 0.03660 0.60284 -0.02500
C 	C 	0.10660 0.02150 0.54780 0.04200
C 	C 	0.91430 0.96200 0.54048 -0.11200
C 	C 	0.31150 0.98300 0.58819 0.00800
H 	H 	0.30550 0.94040 0.54050 0.04500
C 	C 	0.33010 0.11060 0.72512 -0.12200
C 	C 	0.83010 0.91470 0.58792 0.41000
C 	C 	0.22820 0.09990 0.67170 0.00000
H 	H 	0.16460 0.13610 0.68220 0.02000
O 	O 	0.27110 0.24790 0.79752 -0.52000
C 	C 	0.42280 0.05520 0.71283 0.05900
H 	H 	0.49150 0.06050 0.75140 0.03300
C 	C 	0.51260 0.93070 0.63116 0.40900
O 	O 	0.40170 0.29103 0.53841 -0.40900
O 	O 	0.35540 0.36010 0.65299 -0.42500
O 	O 	0.41960 0.17040 0.85939 -0.40400
C 	C 	0.33980 0.18030 0.79730 0.35100
C 	C 	0.33330 0.30470 0.58974 0.27400
