data_crystal

_cell_length_a 12.33500
_cell_length_b 12.49650
_cell_length_c 18.18580
_cell_angle_alpha 80.36460
_cell_angle_beta  70.17580
_cell_angle_gamma 60.42660

_symmetry_space_group_name_	'P 1'
_symmetry_space_group_name_H-M	'P 1'

loop_
_symmetry_equiv_pos_as_xyz
  x,y,z

loop_
_atom_site_label
_atom_site_type_symbol
_atom_site_fract_x
_atom_site_fract_y
_atom_site_fract_z
_atom_site_charge
Zn	Zn	0.62500 0.25000 0.75000 1.14300
Zn	Zn	0.37500 0.75000 0.25000 1.14300
H 	H 	0.40660 0.30920 0.90300 0.00200
H 	H 	0.31770 0.62000 0.00120 0.04100
H 	H 	0.47640 0.64120 0.89240 0.04400
H 	H 	0.59550 0.49540 0.79560 -0.01800
H 	H 	0.27920 0.36060 0.04900 0.05500
H 	H 	0.19750 0.50520 0.06680 0.05200
H 	H 	0.09290 0.33220 0.07620 0.04100
H 	H 	0.00290 0.47320 0.10340 0.04300
H 	H 	0.01900 0.63220 0.01540 0.04200
H 	H 	0.11900 0.60040 0.92860 0.04100
H 	H 	0.69040 0.19080 0.90300 0.00200
H 	H 	0.68110 0.88000 0.00120 0.03900
H 	H 	0.63120 0.85880 0.89240 0.04400
H 	H 	0.60890 0.00460 0.79560 -0.01800
H 	H 	0.67180 0.13940 0.04900 0.05400
H 	H 	0.73570 0.99480 0.06680 0.05000
H 	H 	0.83090 0.16780 0.07620 0.04100
H 	H 	0.89370 0.02680 0.10340 0.04300
H 	H 	0.96560 0.86780 0.01540 0.04100
H 	H 	0.95240 0.89960 0.92860 0.04000
H 	H 	0.78420 0.30920 0.59700 0.00300
H 	H 	0.56230 0.62000 0.49880 0.04100
H 	H 	0.38240 0.64120 0.60760 0.04400
H 	H 	0.40910 0.49540 0.70440 -0.01700
H 	H 	0.86020 0.36060 0.45100 0.05500
H 	H 	0.79730 0.50520 0.43320 0.05200
H 	H 	0.07490 0.33220 0.42380 0.04100
H 	H 	0.02390 0.47320 0.39660 0.04300
H 	H 	0.84880 0.63220 0.48460 0.04200
H 	H 	0.78060 0.60040 0.57140 0.04100
H 	H 	0.61880 0.19080 0.59700 0.00300
H 	H 	0.93890 0.88000 0.49880 0.04100
H 	H 	0.01000 0.85880 0.60760 0.04400
H 	H 	0.88650 0.00460 0.70440 -0.01700
H 	H 	0.68880 0.13940 0.45100 0.05500
H 	H 	0.76950 0.99480 0.43320 0.05200
H 	H 	0.50130 0.16780 0.42380 0.04100
H 	H 	0.57950 0.02680 0.39660 0.04300
H 	H 	0.66660 0.86780 0.48460 0.04200
H 	H 	0.64800 0.89960 0.57140 0.04100
H 	H 	0.59340 0.69080 0.09700 0.00200
H 	H 	0.68230 0.38000 0.99880 0.04100
H 	H 	0.52360 0.35880 0.10760 0.04400
H 	H 	0.40450 0.50460 0.20440 -0.01800
H 	H 	0.72080 0.63940 0.95100 0.05500
H 	H 	0.80250 0.49480 0.93320 0.05200
H 	H 	0.90710 0.66780 0.92380 0.04100
H 	H 	0.99710 0.52680 0.89660 0.04300
H 	H 	0.98100 0.36780 0.98460 0.04200
H 	H 	0.88100 0.39960 0.07140 0.04100
H 	H 	0.30960 0.80920 0.09700 0.00200
H 	H 	0.31890 0.12000 0.99880 0.03900
H 	H 	0.36880 0.14120 0.10760 0.04400
H 	H 	0.39110 0.99540 0.20440 -0.01800
H 	H 	0.32820 0.86060 0.95100 0.05400
H 	H 	0.26430 0.00520 0.93320 0.05000
H 	H 	0.16910 0.83220 0.92380 0.04100
H 	H 	0.10630 0.97320 0.89660 0.04300
H 	H 	0.03440 0.13220 0.98460 0.04100
H 	H 	0.04760 0.10040 0.07140 0.04000
H 	H 	0.21580 0.69080 0.40300 0.00300
H 	H 	0.43770 0.38000 0.50120 0.04100
H 	H 	0.61760 0.35880 0.39240 0.04400
H 	H 	0.59090 0.50460 0.29560 -0.01700
H 	H 	0.13980 0.63940 0.54900 0.05500
H 	H 	0.20270 0.49480 0.56680 0.05200
H 	H 	0.92510 0.66780 0.57620 0.04100
H 	H 	0.97610 0.52680 0.60340 0.04300
H 	H 	0.15120 0.36780 0.51540 0.04200
H 	H 	0.21940 0.39960 0.42860 0.04100
H 	H 	0.38120 0.80920 0.40300 0.00300
H 	H 	0.06110 0.12000 0.50120 0.04100
H 	H 	0.99000 0.14120 0.39240 0.04400
H 	H 	0.11350 0.99540 0.29560 -0.01700
H 	H 	0.31120 0.86060 0.54900 0.05500
H 	H 	0.23050 0.00520 0.56680 0.05200
H 	H 	0.49870 0.83220 0.57620 0.04100
H 	H 	0.42050 0.97320 0.60340 0.04300
H 	H 	0.33340 0.13220 0.51540 0.04200
H 	H 	0.35200 0.10040 0.42860 0.04100
C 	C 	0.41952 0.37860 0.90116 -0.00800
C 	C 	0.34141 0.46260 0.96118 0.02200
C 	C 	0.36534 0.56200 0.95972 -0.05300
C 	C 	0.46037 0.57320 0.89606 -0.07200
C 	C 	0.53055 0.48640 0.83870 0.03500
C 	C 	0.23839 0.44260 0.02542 -0.10400
C 	C 	0.04392 0.41700 0.05836 -0.05900
C 	C 	0.06003 0.57520 0.97074 -0.04800
C 	C 	0.67932 0.12140 0.90116 -0.00700
C 	C 	0.69741 0.03740 0.96118 0.01900
C 	C 	0.67494 0.93800 0.95972 -0.04900
C 	C 	0.64357 0.92680 0.89606 -0.07300
C 	C 	0.63075 0.01360 0.83870 0.03500
C 	C 	0.73619 0.05740 0.02542 -0.10000
C 	C 	0.89772 0.08300 0.05836 -0.06000
C 	C 	0.96923 0.92480 0.97074 -0.04500
C 	C 	0.70188 0.37860 0.59884 -0.00900
C 	C 	0.69599 0.46260 0.53882 0.02300
C 	C 	0.57266 0.56200 0.54028 -0.05400
C 	C 	0.46643 0.57320 0.60394 -0.07200
C 	C 	0.48305 0.48640 0.66130 0.03500
C 	C 	0.81901 0.44260 0.47458 -0.10500
C 	C 	0.03908 0.41700 0.44164 -0.06000
C 	C 	0.86477 0.57520 0.52926 -0.04800
C 	C 	0.69928 0.12140 0.59884 -0.00900
C 	C 	0.76519 0.03740 0.53882 0.02300
C 	C 	0.88706 0.93800 0.54028 -0.05400
C 	C 	0.92963 0.92680 0.60394 -0.07200
C 	C 	0.85565 0.01360 0.66130 0.03400
C 	C 	0.70641 0.05740 0.47458 -0.10400
C 	C 	0.51928 0.08300 0.44164 -0.06000
C 	C 	0.60597 0.92480 0.52926 -0.04800
C 	C 	0.58048 0.62140 0.09884 -0.00800
C 	C 	0.65859 0.53740 0.03882 0.02200
C 	C 	0.63466 0.43800 0.04028 -0.05300
C 	C 	0.53963 0.42680 0.10394 -0.07200
C 	C 	0.46945 0.51360 0.16130 0.03500
C 	C 	0.76161 0.55740 0.97458 -0.10400
C 	C 	0.95608 0.58300 0.94164 -0.05900
C 	C 	0.93997 0.42480 0.02926 -0.04800
C 	C 	0.32068 0.87860 0.09884 -0.00700
C 	C 	0.30259 0.96260 0.03882 0.01900
C 	C 	0.32506 0.06200 0.04028 -0.04900
C 	C 	0.35643 0.07320 0.10394 -0.07300
C 	C 	0.36925 0.98640 0.16130 0.03500
C 	C 	0.26381 0.94260 0.97458 -0.10000
C 	C 	0.10228 0.91700 0.94164 -0.06000
C 	C 	0.03077 0.07520 0.02926 -0.04500
C 	C 	0.29812 0.62140 0.40116 -0.00900
C 	C 	0.30401 0.53740 0.46118 0.02300
C 	C 	0.42734 0.43800 0.45972 -0.05400
C 	C 	0.53357 0.42680 0.39606 -0.07200
C 	C 	0.51695 0.51360 0.33870 0.03500
C 	C 	0.18099 0.55740 0.52542 -0.10500
C 	C 	0.96092 0.58300 0.55836 -0.06000
C 	C 	0.13523 0.42480 0.47074 -0.04800
C 	C 	0.30072 0.87860 0.40116 -0.00900
C 	C 	0.23481 0.96260 0.46118 0.02300
C 	C 	0.11294 0.06200 0.45972 -0.05400
C 	C 	0.07037 0.07320 0.39606 -0.07200
C 	C 	0.14435 0.98640 0.33870 0.03400
C 	C 	0.29359 0.94260 0.52542 -0.10400
C 	C 	0.48072 0.91700 0.55836 -0.06000
C 	C 	0.39403 0.07520 0.47074 -0.04800
N 	N 	0.51243 0.38900 0.84034 -0.25200
N 	N 	0.13452 0.45140 0.99516 -0.08900
N 	N 	0.64723 0.11100 0.84034 -0.25200
N 	N 	0.87032 0.04860 0.99516 -0.09000
N 	N 	0.59857 0.38900 0.65966 -0.25200
N 	N 	0.91408 0.45140 0.50484 -0.08900
N 	N 	0.74177 0.11100 0.65966 -0.25200
N 	N 	0.58108 0.04860 0.50484 -0.08900
N 	N 	0.48757 0.61100 0.15966 -0.25200
N 	N 	0.86548 0.54860 0.00484 -0.08900
N 	N 	0.35277 0.88900 0.15966 -0.25200
N 	N 	0.12968 0.95140 0.00484 -0.09000
N 	N 	0.40143 0.61100 0.34034 -0.25200
N 	N 	0.08592 0.54860 0.49516 -0.08900
N 	N 	0.25823 0.88900 0.34034 -0.25200
N 	N 	0.41892 0.95140 0.49516 -0.08900
