data_crystal

_cell_length_a 13.02900
_cell_length_b 13.82800
_cell_length_c 28.02100
_cell_angle_alpha 75.72000
_cell_angle_beta  79.23000
_cell_angle_gamma 85.59000

_symmetry_space_group_name_	'P 1'
_symmetry_space_group_name_H-M	'P 1'

loop_
_symmetry_equiv_pos_as_xyz
  x,y,z

loop_
_atom_site_label
_atom_site_type_symbol
_atom_site_fract_x
_atom_site_fract_y
_atom_site_fract_z
_atom_site_charge
O 	O 	0.94580 0.93190 0.47203 -0.52800
O 	O 	0.79900 0.89960 0.52606 -0.45000
O 	O 	0.60040 0.56800 0.45629 -0.52500
O 	O 	0.62370 0.59070 0.52874 -0.51600
O 	O 	0.04550 0.88930 0.14445 -0.44200
O 	O 	0.93160 0.78600 0.14063 -0.43300
O 	O 	0.63930 0.51630 0.35791 -0.39500
O 	O 	0.59540 0.39210 0.42319 -0.40300
O 	O 	0.86900 0.13450 0.47604 -0.51100
O 	O 	0.01890 0.12660 0.42223 -0.44800
O 	O 	0.26090 0.65870 0.14699 -0.35000
O 	O 	0.32530 0.50800 0.14124 -0.49800
O 	O 	0.88930 0.98330 0.07775 -0.47400
O 	O 	0.87610 0.12770 0.02161 -0.49500
O 	O 	0.50410 0.35150 0.13867 -0.41200
O 	O 	0.61250 0.38680 0.06702 -0.41700
O 	O 	0.49040 0.69420 0.36318 -0.51700
O 	O 	0.44400 0.81450 0.40330 -0.33400
O 	O 	0.59700 0.57250 0.95454 -0.54100
O 	O 	0.61100 0.60680 0.02551 -0.56000
O 	O 	0.90120 0.96840 0.96693 -0.52300
O 	O 	0.89360 0.82710 0.02533 -0.48300
O 	O 	0.77840 0.93620 0.63536 -0.42000
O 	O 	0.91350 0.01790 0.63796 -0.44500
C 	C 	0.82520 0.82350 0.45730 -0.16300
C 	C 	0.75050 0.75240 0.48110 0.09800
H 	H 	0.72390 0.74500 0.51500 0.01300
C 	C 	0.71570 0.69290 0.45500 -0.18300
C 	C 	0.75200 0.70530 0.40430 0.05500
H 	H 	0.72590 0.66700 0.38650 0.01800
C 	C 	0.82890 0.77620 0.37930 -0.07900
C 	C 	0.86570 0.83330 0.40660 0.04100
H 	H 	0.91790 0.87860 0.39090 0.02200
C 	C 	0.86710 0.78820 0.32400 0.11400
C 	C 	0.96160 0.83190 0.30180 -0.15700
H 	H 	0.00270 0.85250 0.32100 0.08200
C 	C 	0.99490 0.84480 0.25020 0.09300
H 	H 	0.05830 0.87480 0.23530 0.00200
C 	C 	0.93630 0.81430 0.22120 -0.14800
C 	C 	0.84680 0.76410 0.24400 0.08300
H 	H 	0.80860 0.73860 0.22520 0.00900
C 	C 	0.81310 0.75140 0.29520 -0.17000
H 	H 	0.75230 0.71710 0.31020 0.09700
C 	C 	0.85930 0.88870 0.48670 0.41800
C 	C 	0.63990 0.61210 0.48170 0.47500
C 	C 	0.97280 0.83040 0.16530 0.37000
C 	C 	0.76620 0.38270 0.37490 -0.10000
C 	C 	0.79540 0.29810 0.40800 0.04600
H 	H 	0.74970 0.27130 0.43720 0.02400
C 	C 	0.89440 0.25260 0.39750 -0.13900
C 	C 	0.96130 0.29270 0.35340 0.01700
H 	H 	0.02620 0.26140 0.34610 0.03800
C 	C 	0.93340 0.37900 0.31960 -0.05800
C 	C 	0.83530 0.42280 0.33140 0.00300
H 	H 	0.81530 0.48050 0.30970 0.03800
C 	C 	0.01090 0.42620 0.27520 0.11200
C 	C 	0.01700 0.52880 0.25990 -0.18200
H 	H 	0.96800 0.56820 0.27590 0.09700
C 	C 	0.09340 0.57510 0.22150 0.09000
H 	H 	0.09530 0.64440 0.21230 0.00000
C 	C 	0.16770 0.51770 0.19660 -0.17700
C 	C 	0.15970 0.41520 0.21080 0.09000
H 	H 	0.20680 0.37560 0.19410 0.01100
C 	C 	0.08200 0.36940 0.25000 -0.17300
H 	H 	0.07860 0.30010 0.25900 0.09600
C 	C 	0.66070 0.43250 0.38590 0.31200
C 	C 	0.92980 0.16370 0.43480 0.43600
C 	C 	0.25640 0.56470 0.15860 0.39100
C 	C 	0.76250 0.10260 0.10010 -0.15400
C 	C 	0.71520 0.19630 0.08810 0.06000
H 	H 	0.73870 0.23960 0.05750 0.01300
C 	C 	0.63310 0.22690 0.12110 -0.11300
C 	C 	0.59910 0.16220 0.16670 0.01200
H 	H 	0.54520 0.18290 0.18920 0.03300
C 	C 	0.64360 0.06690 0.17960 -0.06300
C 	C 	0.72660 0.03830 0.14590 0.02200
H 	H 	0.75810 0.97520 0.15420 0.03800
C 	C 	0.60170 0.99550 0.22770 0.11100
C 	C 	0.59920 0.89540 0.22970 -0.16700
H 	H 	0.62430 0.87230 0.20100 0.08400
C 	C 	0.55920 0.82780 0.27420 0.08800
H 	H 	0.55890 0.76020 0.27490 -0.00100
C 	C 	0.52030 0.86040 0.31710 -0.16900
C 	C 	0.52150 0.96020 0.31560 0.09100
H 	H 	0.49570 0.98290 0.34430 0.00900
C 	C 	0.56100 0.02790 0.27140 -0.16600
H 	H 	0.56040 0.09550 0.27080 0.08800
C 	C 	0.84920 0.06840 0.06370 0.45100
C 	C 	0.58080 0.32760 0.10770 0.31700
C 	C 	0.48110 0.78430 0.36500 0.40600
C 	C 	0.69850 0.70790 0.95230 -0.21800
C 	C 	0.75180 0.75350 0.97920 0.12500
H 	H 	0.74560 0.72960 0.01370 -0.00600
C 	C 	0.81440 0.83490 0.95480 -0.19800
C 	C 	0.82370 0.86930 0.90390 0.07100
H 	H 	0.86340 0.92500 0.88790 0.01400
C 	C 	0.77560 0.82350 0.87550 -0.09700
C 	C 	0.71200 0.74190 0.89990 0.07400
H 	H 	0.67880 0.71050 0.88150 0.01300
C 	C 	0.79030 0.85900 0.81990 0.11700
C 	C 	0.71350 0.85100 0.79310 -0.16600
H 	H 	0.65050 0.82300 0.81020 0.09500
C 	C 	0.72780 0.88360 0.74150 0.07300
H 	H 	0.67430 0.87880 0.72450 0.01500
C 	C 	0.82210 0.92340 0.71530 -0.13600
C 	C 	0.89930 0.93080 0.74120 0.07000
H 	H 	0.96320 0.95650 0.72380 0.02200
C 	C 	0.88390 0.90040 0.79330 -0.16000
H 	H 	0.93660 0.90790 0.81030 0.09500
C 	C 	0.63040 0.62330 0.97900 0.52300
C 	C 	0.87270 0.88030 0.98490 0.47400
C 	C 	0.83940 0.96160 0.65910 0.35600
Eu	Eu	0.51687 0.48081 0.91415 1.71300
Eu	Eu	0.03079 0.87523 0.06044 1.82900
Eu	Eu	0.88013 0.02129 0.55403 1.81800
Eu	Eu	0.47153 0.53760 0.41498 1.68900
Tb	Tb	0.96921 0.12477 0.93955 1.71200
Tb	Tb	0.11987 0.97871 0.44597 1.69700
Tb	Tb	0.52847 0.46240 0.58502 1.57800
O 	O 	0.05420 0.06810 0.52797 -0.54200
O 	O 	0.20100 0.10040 0.47394 -0.43900
O 	O 	0.39960 0.43200 0.54371 -0.51400
O 	O 	0.37630 0.40930 0.47126 -0.53400
O 	O 	0.95450 0.11070 0.85555 -0.42700
O 	O 	0.06840 0.21400 0.85937 -0.41900
O 	O 	0.36070 0.48370 0.64209 -0.38200
O 	O 	0.40460 0.60790 0.57681 -0.39200
O 	O 	0.13100 0.86550 0.52396 -0.49400
O 	O 	0.98110 0.87340 0.57777 -0.45900
O 	O 	0.73910 0.34130 0.85301 -0.34700
O 	O 	0.67470 0.49200 0.85876 -0.49700
O 	O 	0.11070 0.01670 0.92225 -0.46200
O 	O 	0.12390 0.87230 0.97839 -0.51100
O 	O 	0.49590 0.64850 0.86133 -0.41200
O 	O 	0.38750 0.61320 0.93298 -0.41700
O 	O 	0.50960 0.30580 0.63682 -0.49700
O 	O 	0.55600 0.18550 0.59670 -0.33200
O 	O 	0.40300 0.42750 0.04546 -0.54100
O 	O 	0.38900 0.39320 0.97449 -0.55700
O 	O 	0.09880 0.03160 0.03307 -0.54000
O 	O 	0.10640 0.17290 0.97467 -0.46800
O 	O 	0.22160 0.06380 0.36464 -0.40600
O 	O 	0.08650 0.98210 0.36204 -0.42900
C 	C 	0.17480 0.17650 0.54270 -0.16800
C 	C 	0.24950 0.24760 0.51890 0.10000
H 	H 	0.27610 0.25500 0.48500 0.01200
C 	C 	0.28430 0.30710 0.54500 -0.18400
C 	C 	0.24800 0.29470 0.59570 0.05500
H 	H 	0.27410 0.33300 0.61350 0.01900
C 	C 	0.17110 0.22380 0.62070 -0.08100
C 	C 	0.13430 0.16670 0.59340 0.04400
H 	H 	0.08210 0.12140 0.60910 0.01800
C 	C 	0.13290 0.21180 0.67600 0.11500
C 	C 	0.03840 0.16810 0.69820 -0.16000
H 	H 	0.99730 0.14750 0.67900 0.08300
C 	C 	0.00510 0.15520 0.74980 0.08900
H 	H 	0.94170 0.12520 0.76470 0.00500
C 	C 	0.06370 0.18570 0.77880 -0.14600
C 	C 	0.15320 0.23590 0.75600 0.08100
H 	H 	0.19140 0.26140 0.77480 0.01000
C 	C 	0.18690 0.24860 0.70480 -0.17000
H 	H 	0.24770 0.28290 0.68980 0.09700
C 	C 	0.14070 0.11130 0.51330 0.42400
C 	C 	0.36010 0.38790 0.51830 0.47400
C 	C 	0.02720 0.16960 0.83470 0.36400
C 	C 	0.23380 0.61730 0.62510 -0.09800
C 	C 	0.20460 0.70190 0.59200 0.04300
H 	H 	0.25030 0.72870 0.56280 0.02500
C 	C 	0.10560 0.74740 0.60250 -0.13500
C 	C 	0.03870 0.70730 0.64660 0.01200
H 	H 	0.97380 0.73860 0.65390 0.04100
C 	C 	0.06660 0.62100 0.68040 -0.05700
C 	C 	0.16470 0.57720 0.66860 0.00200
H 	H 	0.18470 0.51950 0.69030 0.03800
C 	C 	0.98910 0.57380 0.72480 0.11100
C 	C 	0.98300 0.47120 0.74010 -0.17500
H 	H 	0.03200 0.43180 0.72410 0.09300
C 	C 	0.90660 0.42490 0.77850 0.08600
H 	H 	0.90470 0.35560 0.78770 0.00300
C 	C 	0.83230 0.48230 0.80340 -0.17400
C 	C 	0.84030 0.58480 0.78920 0.08800
H 	H 	0.79320 0.62440 0.80590 0.01200
C 	C 	0.91800 0.63060 0.75000 -0.17000
H 	H 	0.92140 0.69990 0.74100 0.09500
C 	C 	0.33930 0.56750 0.61410 0.31000
C 	C 	0.07020 0.83630 0.56520 0.43200
C 	C 	0.74360 0.43530 0.84140 0.39100
C 	C 	0.23750 0.89740 0.89990 -0.15500
C 	C 	0.28480 0.80370 0.91190 0.06100
H 	H 	0.26130 0.76040 0.94250 0.01100
C 	C 	0.36690 0.77310 0.87890 -0.11300
C 	C 	0.40090 0.83780 0.83330 0.01000
H 	H 	0.45480 0.81710 0.81080 0.03400
C 	C 	0.35640 0.93310 0.82040 -0.05800
C 	C 	0.27340 0.96170 0.85410 0.02400
H 	H 	0.24190 0.02480 0.84580 0.03600
C 	C 	0.39830 0.00450 0.77230 0.10200
C 	C 	0.40080 0.10460 0.77030 -0.15900
H 	H 	0.37570 0.12770 0.79900 0.08200
C 	C 	0.44080 0.17220 0.72580 0.08000
H 	H 	0.44110 0.23980 0.72510 0.00200
C 	C 	0.47970 0.13960 0.68290 -0.16100
C 	C 	0.47850 0.03980 0.68440 0.08100
H 	H 	0.50430 0.01710 0.65570 0.01100
C 	C 	0.43900 0.97210 0.72860 -0.15400
H 	H 	0.43960 0.90450 0.72920 0.08500
C 	C 	0.15080 0.93160 0.93630 0.45300
C 	C 	0.41920 0.67240 0.89230 0.31700
C 	C 	0.51890 0.21570 0.63500 0.39800
C 	C 	0.30150 0.29210 0.04770 -0.21600
C 	C 	0.24820 0.24650 0.02080 0.12000
H 	H 	0.25440 0.27040 0.98630 -0.00300
C 	C 	0.18560 0.16510 0.04520 -0.19900
C 	C 	0.17630 0.13070 0.09610 0.07200
H 	H 	0.13660 0.07500 0.11210 0.01100
C 	C 	0.22440 0.17650 0.12450 -0.09800
C 	C 	0.28800 0.25810 0.10010 0.07300
H 	H 	0.32120 0.28950 0.11850 0.01300
C 	C 	0.20970 0.14100 0.18010 0.11700
C 	C 	0.28650 0.14900 0.20690 -0.16600
H 	H 	0.34950 0.17700 0.18980 0.09400
C 	C 	0.27220 0.11640 0.25850 0.07200
H 	H 	0.32570 0.12120 0.27550 0.01500
C 	C 	0.17790 0.07660 0.28470 -0.13500
C 	C 	0.10070 0.06920 0.25880 0.06900
H 	H 	0.03680 0.04350 0.27620 0.02200
C 	C 	0.11610 0.09960 0.20670 -0.16000
H 	H 	0.06340 0.09210 0.18970 0.09400
C 	C 	0.36960 0.37670 0.02100 0.52000
C 	C 	0.12730 0.11970 0.01510 0.47500
C 	C 	0.16060 0.03840 0.34090 0.35200
Eu	Eu	0.48313 0.51919 0.08585 1.71100
