data_crystal

_cell_length_a 13.00600
_cell_length_b 13.82100
_cell_length_c 27.98200
_cell_angle_alpha 75.67000
_cell_angle_beta  79.35000
_cell_angle_gamma 85.62000

_symmetry_space_group_name_	'P 1'
_symmetry_space_group_name_H-M	'P 1'

loop_
_symmetry_equiv_pos_as_xyz
  x,y,z

loop_
_atom_site_label
_atom_site_type_symbol
_atom_site_fract_x
_atom_site_fract_y
_atom_site_fract_z
_atom_site_charge
Eu	Eu	0.88028 0.02118 0.55405 1.81800
Eu	Eu	0.47145 0.53782 0.41508 1.69500
Eu	Eu	0.03068 0.87524 0.06050 1.83300
Eu	Eu	0.51709 0.48078 0.91415 1.71300
O 	O 	0.94570 0.93200 0.47215 -0.53500
O 	O 	0.79910 0.89900 0.52589 -0.45300
O 	O 	0.59970 0.56730 0.45670 -0.52900
O 	O 	0.62380 0.59060 0.52878 -0.54300
O 	O 	0.04520 0.88960 0.14447 -0.44800
O 	O 	0.93130 0.78580 0.14087 -0.43300
O 	O 	0.63990 0.51690 0.35808 -0.39500
O 	O 	0.59550 0.39250 0.42354 -0.40400
O 	O 	0.86870 0.13510 0.47589 -0.51800
O 	O 	0.01880 0.12660 0.42246 -0.45400
O 	O 	0.25990 0.65930 0.14692 -0.35100
O 	O 	0.32570 0.50800 0.14153 -0.49100
O 	O 	0.88910 0.98360 0.07757 -0.47700
O 	O 	0.87590 0.12730 0.02152 -0.49600
O 	O 	0.50410 0.35110 0.13833 -0.41800
O 	O 	0.61240 0.38720 0.06681 -0.41600
O 	O 	0.49050 0.69420 0.36318 -0.51900
O 	O 	0.44390 0.81440 0.40300 -0.34100
O 	O 	0.59760 0.57200 0.95480 -0.54400
O 	O 	0.61130 0.60700 0.02558 -0.55800
O 	O 	0.90120 0.96790 0.96719 -0.52700
O 	O 	0.89380 0.82670 0.02536 -0.48600
O 	O 	0.77830 0.93540 0.63516 -0.42100
O 	O 	0.91300 0.01760 0.63837 -0.44500
C 	C 	0.82530 0.82290 0.45730 -0.16800
C 	C 	0.75070 0.75250 0.48150 0.10300
H 	H 	0.72430 0.74510 0.51540 0.01100
C 	C 	0.71580 0.69310 0.45490 -0.19100
C 	C 	0.75200 0.70580 0.40450 0.06300
H 	H 	0.72590 0.66710 0.38680 0.01500
C 	C 	0.82840 0.77660 0.37910 -0.08500
C 	C 	0.86560 0.83350 0.40670 0.04600
H 	H 	0.91780 0.87890 0.39110 0.01900
C 	C 	0.86610 0.78880 0.32440 0.11500
C 	C 	0.96210 0.83340 0.30120 -0.15800
H 	H 	0.00340 0.85510 0.32010 0.08200
C 	C 	0.99490 0.84490 0.25010 0.09700
H 	H 	0.05870 0.87400 0.23530 0.00100
C 	C 	0.93650 0.81480 0.22080 -0.15200
C 	C 	0.84670 0.76290 0.24430 0.08400
H 	H 	0.80920 0.73550 0.22590 0.00800
C 	C 	0.81280 0.75200 0.29520 -0.17100
H 	H 	0.75140 0.71840 0.31010 0.09700
C 	C 	0.85980 0.88870 0.48670 0.42600
C 	C 	0.64020 0.61260 0.48220 0.48200
C 	C 	0.97360 0.83050 0.16540 0.37400
C 	C 	0.76570 0.38350 0.37490 -0.10400
C 	C 	0.79570 0.29850 0.40780 0.04800
H 	H 	0.75010 0.27150 0.43710 0.02200
C 	C 	0.89440 0.25290 0.39730 -0.14000
C 	C 	0.96130 0.29310 0.35390 0.01900
H 	H 	0.02660 0.26230 0.34690 0.03800
C 	C 	0.93300 0.37930 0.32000 -0.06000
C 	C 	0.83530 0.42300 0.33150 0.00700
H 	H 	0.81550 0.48060 0.30950 0.03600
C 	C 	0.01100 0.42640 0.27530 0.11300
C 	C 	0.01660 0.52940 0.25990 -0.18200
H 	H 	0.96810 0.56890 0.27600 0.09700
C 	C 	0.09290 0.57500 0.22080 0.08900
H 	H 	0.09420 0.64430 0.21060 -0.00000
C 	C 	0.16700 0.51730 0.19710 -0.17400
C 	C 	0.15940 0.41470 0.21110 0.09300
H 	H 	0.20670 0.37500 0.19440 0.01000
C 	C 	0.08180 0.37000 0.24970 -0.17600
H 	H 	0.07760 0.30080 0.25850 0.09700
C 	C 	0.66110 0.43290 0.38570 0.31200
C 	C 	0.92960 0.16290 0.43530 0.44600
C 	C 	0.25590 0.56610 0.15900 0.38200
C 	C 	0.76200 0.10270 0.10010 -0.16000
C 	C 	0.71480 0.19690 0.08790 0.06400
H 	H 	0.73820 0.24040 0.05730 0.01100
C 	C 	0.63270 0.22680 0.12110 -0.11600
C 	C 	0.59830 0.16170 0.16660 0.01600
H 	H 	0.54390 0.18230 0.18890 0.03200
C 	C 	0.64290 0.06650 0.17970 -0.06900
C 	C 	0.72600 0.03870 0.14560 0.02800
H 	H 	0.75780 0.97560 0.15380 0.03600
C 	C 	0.60070 0.99610 0.22740 0.11800
C 	C 	0.59970 0.89490 0.22980 -0.17400
H 	H 	0.62660 0.87140 0.20150 0.08800
C 	C 	0.55910 0.82780 0.27400 0.09600
H 	H 	0.55840 0.76030 0.27470 -0.00400
C 	C 	0.51980 0.86010 0.31690 -0.17400
C 	C 	0.52130 0.96050 0.31560 0.09500
H 	H 	0.49590 0.98330 0.34430 0.00700
C 	C 	0.56100 0.02740 0.27100 -0.17200
H 	H 	0.56110 0.09500 0.27040 0.09000
C 	C 	0.84910 0.06840 0.06400 0.45700
C 	C 	0.58020 0.32800 0.10810 0.32100
C 	C 	0.48080 0.78480 0.36510 0.41300
C 	C 	0.70000 0.70800 0.95200 -0.22600
C 	C 	0.75180 0.75340 0.97900 0.13800
H 	H 	0.74470 0.72950 0.01360 -0.01000
C 	C 	0.81470 0.83440 0.95510 -0.21100
C 	C 	0.82360 0.87000 0.90400 0.08000
H 	H 	0.86260 0.92630 0.88820 0.01000
C 	C 	0.77540 0.82330 0.87540 -0.10800
C 	C 	0.71290 0.74270 0.89980 0.08600
H 	H 	0.67930 0.71140 0.88150 0.00900
C 	C 	0.79040 0.85890 0.82000 0.12900
C 	C 	0.71430 0.85090 0.79320 -0.17900
H 	H 	0.65120 0.82260 0.81020 0.09900
C 	C 	0.72840 0.88330 0.74180 0.08500
H 	H 	0.67490 0.87760 0.72490 0.01100
C 	C 	0.82170 0.92430 0.71540 -0.14400
C 	C 	0.89980 0.93160 0.74090 0.07800
H 	H 	0.96370 0.95750 0.72350 0.02000
C 	C 	0.88410 0.90010 0.79330 -0.16900
H 	H 	0.93700 0.90700 0.81030 0.09900
C 	C 	0.63040 0.62340 0.97890 0.52700
C 	C 	0.87300 0.88010 0.98470 0.48400
C 	C 	0.83870 0.96110 0.65930 0.35900
Tb	Tb	0.11972 0.97882 0.44595 1.70000
Tb	Tb	0.96932 0.12476 0.93950 1.71600
Eu	Eu	0.52855 0.46218 0.58492 1.69400
Eu	Eu	0.48291 0.51922 0.08585 1.71100
O 	O 	0.05430 0.06800 0.52785 -0.54800
O 	O 	0.20090 0.10100 0.47411 -0.44100
O 	O 	0.40030 0.43270 0.54330 -0.52900
O 	O 	0.37620 0.40940 0.47122 -0.54300
O 	O 	0.95480 0.11040 0.85553 -0.43200
O 	O 	0.06870 0.21420 0.85913 -0.41800
O 	O 	0.36010 0.48310 0.64192 -0.39500
O 	O 	0.40450 0.60750 0.57646 -0.40300
O 	O 	0.13130 0.86490 0.52411 -0.50100
O 	O 	0.98120 0.87340 0.57754 -0.46500
O 	O 	0.74010 0.34070 0.85308 -0.34800
O 	O 	0.67430 0.49200 0.85847 -0.49000
O 	O 	0.11090 0.01640 0.92243 -0.46500
O 	O 	0.12410 0.87270 0.97848 -0.51100
O 	O 	0.49590 0.64890 0.86167 -0.41800
O 	O 	0.38760 0.61280 0.93319 -0.41700
O 	O 	0.50950 0.30580 0.63682 -0.51900
O 	O 	0.55610 0.18560 0.59700 -0.34300
O 	O 	0.40240 0.42800 0.04520 -0.54400
O 	O 	0.38870 0.39300 0.97442 -0.55600
O 	O 	0.09880 0.03210 0.03281 -0.54400
O 	O 	0.10620 0.17330 0.97464 -0.47100
O 	O 	0.22170 0.06460 0.36484 -0.40700
O 	O 	0.08700 0.98240 0.36163 -0.42900
C 	C 	0.17470 0.17710 0.54270 -0.17400
C 	C 	0.24930 0.24750 0.51850 0.10500
H 	H 	0.27570 0.25490 0.48460 0.00900
C 	C 	0.28420 0.30690 0.54510 -0.19300
C 	C 	0.24800 0.29420 0.59550 0.06500
H 	H 	0.27410 0.33290 0.61320 0.01400
C 	C 	0.17160 0.22340 0.62090 -0.08700
C 	C 	0.13440 0.16650 0.59330 0.04900
H 	H 	0.08220 0.12110 0.60890 0.01600
C 	C 	0.13390 0.21120 0.67560 0.11600
C 	C 	0.03790 0.16660 0.69880 -0.16000
H 	H 	0.99660 0.14490 0.67990 0.08300
C 	C 	0.00510 0.15510 0.74990 0.09300
H 	H 	0.94130 0.12600 0.76470 0.00300
C 	C 	0.06350 0.18520 0.77920 -0.15000
C 	C 	0.15330 0.23710 0.75570 0.08300
H 	H 	0.19080 0.26450 0.77410 0.00900
C 	C 	0.18720 0.24800 0.70480 -0.17100
H 	H 	0.24860 0.28160 0.68990 0.09700
C 	C 	0.14020 0.11130 0.51330 0.43200
C 	C 	0.35980 0.38740 0.51780 0.48300
C 	C 	0.02640 0.16950 0.83460 0.36900
C 	C 	0.23430 0.61650 0.62510 -0.10300
C 	C 	0.20430 0.70150 0.59220 0.04600
H 	H 	0.24990 0.72850 0.56290 0.02400
C 	C 	0.10560 0.74710 0.60270 -0.13600
C 	C 	0.03870 0.70690 0.64610 0.01400
H 	H 	0.97340 0.73770 0.65310 0.04000
C 	C 	0.06700 0.62070 0.68000 -0.05900
C 	C 	0.16470 0.57700 0.66850 0.00500
H 	H 	0.18450 0.51940 0.69050 0.03700
C 	C 	0.98900 0.57360 0.72470 0.11100
C 	C 	0.98340 0.47060 0.74010 -0.17500
H 	H 	0.03190 0.43110 0.72400 0.09300
C 	C 	0.90710 0.42500 0.77920 0.08500
H 	H 	0.90580 0.35570 0.78940 0.00300
C 	C 	0.83300 0.48270 0.80290 -0.17100
C 	C 	0.84060 0.58530 0.78890 0.09100
H 	H 	0.79330 0.62500 0.80560 0.01100
C 	C 	0.91820 0.63000 0.75030 -0.17300
H 	H 	0.92240 0.69920 0.74150 0.09600
C 	C 	0.33890 0.56710 0.61430 0.31100
C 	C 	0.07040 0.83710 0.56470 0.44300
C 	C 	0.74410 0.43390 0.84100 0.38100
C 	C 	0.23800 0.89730 0.89990 -0.16100
C 	C 	0.28520 0.80310 0.91210 0.06500
H 	H 	0.26180 0.75960 0.94270 0.01000
C 	C 	0.36730 0.77320 0.87890 -0.11600
C 	C 	0.40170 0.83830 0.83340 0.01500
H 	H 	0.45610 0.81770 0.81110 0.03300
C 	C 	0.35710 0.93350 0.82030 -0.06500
C 	C 	0.27400 0.96130 0.85440 0.03000
H 	H 	0.24220 0.02440 0.84620 0.03400
C 	C 	0.39930 0.00390 0.77260 0.10900
C 	C 	0.40030 0.10510 0.77020 -0.16900
H 	H 	0.37340 0.12860 0.79850 0.08600
C 	C 	0.44090 0.17220 0.72600 0.09100
H 	H 	0.44160 0.23970 0.72530 -0.00300
C 	C 	0.48020 0.13990 0.68310 -0.17000
C 	C 	0.47870 0.03950 0.68440 0.08600
H 	H 	0.50410 0.01670 0.65570 0.00900
C 	C 	0.43900 0.97260 0.72900 -0.16100
H 	H 	0.43890 0.90500 0.72960 0.08700
C 	C 	0.15090 0.93160 0.93600 0.45900
C 	C 	0.41980 0.67200 0.89190 0.32100
C 	C 	0.51920 0.21520 0.63490 0.41200
C 	C 	0.30000 0.29200 0.04800 -0.22400
C 	C 	0.24820 0.24660 0.02100 0.13400
H 	H 	0.25530 0.27050 0.98640 -0.00700
C 	C 	0.18530 0.16560 0.04490 -0.21100
C 	C 	0.17640 0.13000 0.09600 0.08000
H 	H 	0.13740 0.07370 0.11180 0.00800
C 	C 	0.22460 0.17670 0.12460 -0.10800
C 	C 	0.28710 0.25730 0.10020 0.08400
H 	H 	0.32070 0.28860 0.11850 0.00900
C 	C 	0.20960 0.14110 0.18000 0.12800
C 	C 	0.28570 0.14910 0.20680 -0.17800
H 	H 	0.34880 0.17740 0.18980 0.09800
C 	C 	0.27160 0.11670 0.25820 0.08400
H 	H 	0.32510 0.12240 0.27510 0.01100
C 	C 	0.17830 0.07570 0.28460 -0.14300
C 	C 	0.10020 0.06840 0.25910 0.07600
H 	H 	0.03630 0.04250 0.27650 0.01900
C 	C 	0.11590 0.09990 0.20670 -0.16900
H 	H 	0.06300 0.09300 0.18970 0.09800
C 	C 	0.36960 0.37660 0.02110 0.52300
C 	C 	0.12700 0.11990 0.01530 0.48500
C 	C 	0.16130 0.03890 0.34070 0.35400
