data_crystal

_cell_length_a 12.95500
_cell_length_b 13.81400
_cell_length_c 27.96200
_cell_angle_alpha 75.69000
_cell_angle_beta  79.38000
_cell_angle_gamma 85.69000

_symmetry_space_group_name_	'P 1'
_symmetry_space_group_name_H-M	'P 1'

loop_
_symmetry_equiv_pos_as_xyz
  x,y,z

loop_
_atom_site_label
_atom_site_type_symbol
_atom_site_fract_x
_atom_site_fract_y
_atom_site_fract_z
_atom_site_charge
Eu	Eu	0.87991 0.02124 0.55384 1.84000
Eu	Eu	0.47109 0.53755 0.41492 1.71000
Eu	Eu	0.03100 0.87493 0.06034 1.85400
Eu	Eu	0.51626 0.48066 0.91420 1.72800
O 	O 	0.94680 0.93100 0.47167 -0.54500
O 	O 	0.79960 0.89970 0.52548 -0.45900
O 	O 	0.59930 0.56740 0.45588 -0.53600
O 	O 	0.62380 0.59010 0.52835 -0.52600
O 	O 	0.04570 0.88880 0.14407 -0.45100
O 	O 	0.93160 0.78480 0.14023 -0.43300
O 	O 	0.63830 0.51620 0.35775 -0.39900
O 	O 	0.59470 0.39160 0.42331 -0.40300
O 	O 	0.86820 0.13430 0.47582 -0.52000
O 	O 	0.01910 0.12580 0.42252 -0.46000
O 	O 	0.26040 0.65930 0.14674 -0.34500
O 	O 	0.32660 0.50770 0.14135 -0.47900
O 	O 	0.88960 0.98240 0.07775 -0.47600
O 	O 	0.87650 0.12690 0.02135 -0.50000
O 	O 	0.50560 0.35250 0.13861 -0.40300
O 	O 	0.61300 0.38740 0.06648 -0.40200
O 	O 	0.48980 0.69360 0.36325 -0.52200
O 	O 	0.44430 0.81430 0.40367 -0.33500
O 	O 	0.59680 0.57210 0.95425 -0.54500
O 	O 	0.61120 0.60720 0.02515 -0.54600
O 	O 	0.90060 0.96930 0.96644 -0.53100
O 	O 	0.89420 0.82730 0.02492 -0.49200
O 	O 	0.77900 0.93440 0.63488 -0.42600
O 	O 	0.91240 0.01850 0.63769 -0.45400
C 	C 	0.82560 0.82320 0.45700 -0.17200
C 	C 	0.75030 0.75300 0.48110 0.10300
H 	H 	0.72310 0.74650 0.51480 0.01100
C 	C 	0.71540 0.69210 0.45460 -0.19100
C 	C 	0.75240 0.70520 0.40420 0.06300
H 	H 	0.72660 0.66640 0.38640 0.01500
C 	C 	0.82910 0.77670 0.37870 -0.08400
C 	C 	0.86600 0.83390 0.40620 0.04700
H 	H 	0.91820 0.87960 0.39060 0.02000
C 	C 	0.86600 0.78830 0.32410 0.11300
C 	C 	0.96280 0.83190 0.30110 -0.15300
H 	H 	0.00500 0.85210 0.32020 0.08000
C 	C 	0.99580 0.84490 0.24930 0.09400
H 	H 	0.05940 0.87500 0.23430 0.00200
C 	C 	0.93710 0.81450 0.22060 -0.14900
C 	C 	0.84710 0.76250 0.24360 0.08200
H 	H 	0.80940 0.73560 0.22500 0.01000
C 	C 	0.81350 0.75070 0.29460 -0.16800
H 	H 	0.75270 0.71570 0.30950 0.09600
C 	C 	0.86070 0.88880 0.48610 0.43600
C 	C 	0.63950 0.61190 0.48150 0.48500
C 	C 	0.97370 0.83030 0.16490 0.37300
C 	C 	0.76500 0.38320 0.37420 -0.10300
C 	C 	0.79590 0.29830 0.40780 0.05100
H 	H 	0.75050 0.27240 0.43750 0.02300
C 	C 	0.89370 0.25160 0.39770 -0.14200
C 	C 	0.96120 0.29250 0.35360 0.01800
H 	H 	0.02670 0.26180 0.34650 0.03800
C 	C 	0.93270 0.37900 0.31960 -0.06000
C 	C 	0.83510 0.42250 0.33110 0.00700
H 	H 	0.81560 0.48040 0.30910 0.03700
C 	C 	0.01070 0.42610 0.27520 0.11000
C 	C 	0.01690 0.52930 0.25980 -0.17900
H 	H 	0.96830 0.56920 0.27580 0.09600
C 	C 	0.09450 0.57410 0.22100 0.08800
H 	H 	0.09690 0.64350 0.21130 0.00100
C 	C 	0.16810 0.51690 0.19670 -0.17200
C 	C 	0.16030 0.41440 0.21070 0.09000
H 	H 	0.20720 0.37470 0.19380 0.01200
C 	C 	0.08280 0.36960 0.24980 -0.17200
H 	H 	0.07960 0.30030 0.25900 0.09600
C 	C 	0.65990 0.43270 0.38540 0.31300
C 	C 	0.93040 0.16240 0.43510 0.45000
C 	C 	0.25690 0.56530 0.15840 0.38000
C 	C 	0.76250 0.10250 0.10010 -0.15400
C 	C 	0.71510 0.19730 0.08780 0.06000
H 	H 	0.73850 0.24070 0.05710 0.01200
C 	C 	0.63360 0.22690 0.12100 -0.11300
C 	C 	0.59920 0.16230 0.16690 0.01300
H 	H 	0.54490 0.18300 0.18930 0.03300
C 	C 	0.64430 0.06740 0.17990 -0.06400
C 	C 	0.72670 0.03790 0.14610 0.02300
H 	H 	0.75790 0.97450 0.15440 0.03700
C 	C 	0.60140 0.99610 0.22780 0.11700
C 	C 	0.59940 0.89570 0.22980 -0.17200
H 	H 	0.62530 0.87260 0.20120 0.08700
C 	C 	0.55910 0.82790 0.27430 0.09200
H 	H 	0.55820 0.76030 0.27490 -0.00200
C 	C 	0.52050 0.86020 0.31760 -0.17300
C 	C 	0.52250 0.96060 0.31530 0.10100
H 	H 	0.49640 0.98370 0.34390 0.00600
C 	C 	0.56220 0.02800 0.27170 -0.17600
H 	H 	0.56290 0.09540 0.27130 0.09200
C 	C 	0.84970 0.06840 0.06390 0.45100
C 	C 	0.58130 0.32780 0.10800 0.31500
C 	C 	0.48070 0.78380 0.36520 0.40800
C 	C 	0.69910 0.70780 0.95180 -0.22300
C 	C 	0.75200 0.75340 0.97880 0.13300
H 	H 	0.74580 0.72930 0.01330 -0.00700
C 	C 	0.81420 0.83490 0.95470 -0.20400
C 	C 	0.82290 0.87050 0.90360 0.07700
H 	H 	0.86170 0.92700 0.88770 0.01200
C 	C 	0.77480 0.82360 0.87500 -0.10900
C 	C 	0.71240 0.74270 0.89950 0.08500
H 	H 	0.67910 0.71110 0.88100 0.00900
C 	C 	0.78950 0.85860 0.81940 0.13500
C 	C 	0.71320 0.85170 0.79270 -0.18800
H 	H 	0.64940 0.82460 0.80980 0.10200
C 	C 	0.72770 0.88340 0.74160 0.09400
H 	H 	0.67390 0.87760 0.72460 0.00800
C 	C 	0.82200 0.92400 0.71480 -0.15200
C 	C 	0.89940 0.93130 0.74080 0.08800
H 	H 	0.96360 0.95750 0.72350 0.01600
C 	C 	0.88380 0.90030 0.79260 -0.17700
H 	H 	0.93690 0.90730 0.80970 0.10100
C 	C 	0.63030 0.62300 0.97870 0.52700
C 	C 	0.87370 0.88090 0.98450 0.48500
C 	C 	0.83920 0.96150 0.65860 0.37100
Tb	Tb	0.12009 0.97876 0.44616 1.71800
Tb	Tb	0.52891 0.46245 0.58508 1.59900
Tb	Tb	0.96900 0.12507 0.93966 1.73400
Tb	Tb	0.48374 0.51934 0.08580 1.61600
O 	O 	0.05320 0.06900 0.52833 -0.55800
O 	O 	0.20040 0.10030 0.47452 -0.44600
O 	O 	0.40070 0.43260 0.54412 -0.52100
O 	O 	0.37620 0.40990 0.47165 -0.54300
O 	O 	0.95430 0.11120 0.85593 -0.43500
O 	O 	0.06840 0.21520 0.85977 -0.41900
O 	O 	0.36170 0.48380 0.64225 -0.38700
O 	O 	0.40530 0.60840 0.57669 -0.39100
O 	O 	0.13180 0.86570 0.52418 -0.50300
O 	O 	0.98090 0.87420 0.57748 -0.47100
O 	O 	0.73960 0.34070 0.85326 -0.34700
O 	O 	0.67340 0.49230 0.85865 -0.49800
O 	O 	0.11040 0.01760 0.92225 -0.46400
O 	O 	0.12350 0.87310 0.97865 -0.51600
O 	O 	0.49440 0.64750 0.86139 -0.41700
O 	O 	0.38700 0.61260 0.93352 -0.41300
O 	O 	0.51020 0.30640 0.63675 -0.50100
O 	O 	0.55570 0.18570 0.59633 -0.33200
O 	O 	0.40320 0.42790 0.04575 -0.53000
O 	O 	0.38880 0.39280 0.97485 -0.56200
O 	O 	0.09940 0.03070 0.03356 -0.54900
O 	O 	0.10580 0.17270 0.97508 -0.47800
O 	O 	0.22100 0.06560 0.36512 -0.41200
O 	O 	0.08760 0.98150 0.36231 -0.43800
C 	C 	0.17440 0.17680 0.54300 -0.17700
C 	C 	0.24970 0.24700 0.51890 0.10600
H 	H 	0.27690 0.25350 0.48520 0.01000
C 	C 	0.28460 0.30790 0.54540 -0.19200
C 	C 	0.24760 0.29480 0.59580 0.06400
H 	H 	0.27340 0.33360 0.61360 0.01600
C 	C 	0.17090 0.22330 0.62130 -0.08600
C 	C 	0.13400 0.16610 0.59380 0.05000
H 	H 	0.08180 0.12040 0.60940 0.01700
C 	C 	0.13400 0.21170 0.67590 0.11400
C 	C 	0.03720 0.16810 0.69890 -0.15500
H 	H 	0.99500 0.14790 0.67980 0.08200
C 	C 	0.00420 0.15510 0.75070 0.09000
H 	H 	0.94060 0.12500 0.76570 0.00500
C 	C 	0.06290 0.18550 0.77940 -0.14800
C 	C 	0.15290 0.23750 0.75640 0.08100
H 	H 	0.19060 0.26440 0.77500 0.01000
C 	C 	0.18650 0.24930 0.70540 -0.16900
H 	H 	0.24730 0.28430 0.69050 0.09700
C 	C 	0.13930 0.11120 0.51390 0.44200
C 	C 	0.36050 0.38810 0.51850 0.48400
C 	C 	0.02630 0.16970 0.83510 0.36700
C 	C 	0.23500 0.61680 0.62580 -0.10300
C 	C 	0.20410 0.70170 0.59220 0.04800
H 	H 	0.24950 0.72760 0.56250 0.02400
C 	C 	0.10630 0.74840 0.60230 -0.13900
C 	C 	0.03880 0.70750 0.64640 0.01300
H 	H 	0.97330 0.73820 0.65350 0.04100
C 	C 	0.06730 0.62100 0.68040 -0.05900
C 	C 	0.16490 0.57750 0.66890 0.00700
H 	H 	0.18440 0.51960 0.69090 0.03700
C 	C 	0.98930 0.57390 0.72480 0.11000
C 	C 	0.98310 0.47070 0.74020 -0.17400
H 	H 	0.03170 0.43080 0.72420 0.09300
C 	C 	0.90550 0.42590 0.77900 0.08600
H 	H 	0.90310 0.35650 0.78870 0.00300
C 	C 	0.83190 0.48310 0.80330 -0.17300
C 	C 	0.83970 0.58560 0.78930 0.09100
H 	H 	0.79280 0.62530 0.80620 0.01100
C 	C 	0.91720 0.63040 0.75020 -0.17200
H 	H 	0.92040 0.69970 0.74100 0.09600
C 	C 	0.34010 0.56730 0.61460 0.31200
C 	C 	0.06960 0.83760 0.56490 0.44700
C 	C 	0.74310 0.43470 0.84160 0.38600
C 	C 	0.23750 0.89750 0.89990 -0.15500
C 	C 	0.28490 0.80270 0.91220 0.06000
H 	H 	0.26150 0.75930 0.94290 0.01200
C 	C 	0.36640 0.77310 0.87900 -0.11300
C 	C 	0.40080 0.83770 0.83310 0.01100
H 	H 	0.45510 0.81700 0.81070 0.03400
C 	C 	0.35570 0.93260 0.82010 -0.06000
C 	C 	0.27330 0.96210 0.85390 0.02400
H 	H 	0.24210 0.02550 0.84560 0.03600
C 	C 	0.39860 0.00390 0.77220 0.10600
C 	C 	0.40060 0.10430 0.77020 -0.16300
H 	H 	0.37470 0.12740 0.79880 0.08300
C 	C 	0.44090 0.17210 0.72570 0.08300
H 	H 	0.44180 0.23970 0.72510 0.00200
C 	C 	0.47950 0.13980 0.68240 -0.16500
C 	C 	0.47750 0.03940 0.68470 0.08900
H 	H 	0.50360 0.01630 0.65610 0.00800
C 	C 	0.43780 0.97200 0.72830 -0.16300
H 	H 	0.43710 0.90460 0.72870 0.08800
C 	C 	0.15030 0.93160 0.93610 0.45300
C 	C 	0.41870 0.67220 0.89200 0.31600
C 	C 	0.51930 0.21620 0.63480 0.39900
C 	C 	0.30090 0.29220 0.04820 -0.22200
C 	C 	0.24800 0.24660 0.02120 0.13000
H 	H 	0.25420 0.27070 0.98670 -0.00600
C 	C 	0.18580 0.16510 0.04530 -0.20600
C 	C 	0.17710 0.12950 0.09640 0.07800
H 	H 	0.13830 0.07300 0.11230 0.01000
C 	C 	0.22520 0.17640 0.12500 -0.10900
C 	C 	0.28760 0.25730 0.10050 0.08300
H 	H 	0.32090 0.28890 0.11900 0.01100
C 	C 	0.21050 0.14140 0.18060 0.13400
C 	C 	0.28680 0.14830 0.20730 -0.18700
H 	H 	0.35060 0.17540 0.19020 0.10200
C 	C 	0.27230 0.11660 0.25840 0.09300
H 	H 	0.32610 0.12240 0.27540 0.00800
C 	C 	0.17800 0.07600 0.28520 -0.15200
C 	C 	0.10060 0.06870 0.25920 0.08700
H 	H 	0.03640 0.04250 0.27650 0.01600
C 	C 	0.11620 0.09970 0.20740 -0.17600
H 	H 	0.06310 0.09270 0.19030 0.10000
C 	C 	0.36970 0.37700 0.02130 0.52300
C 	C 	0.12630 0.11910 0.01550 0.48800
C 	C 	0.16080 0.03850 0.34140 0.36600
