data_crystal

_cell_length_a 13.89500
_cell_length_b 26.90000
_cell_length_c 7.61300
_cell_angle_alpha 90.00000
_cell_angle_beta  90.00000
_cell_angle_gamma 91.06000

_symmetry_space_group_name_	'P 1'
_symmetry_space_group_name_H-M	'P 1'

loop_
_symmetry_equiv_pos_as_xyz
  x,y,z

loop_
_atom_site_label
_atom_site_type_symbol
_atom_site_fract_x
_atom_site_fract_y
_atom_site_fract_z
_atom_site_charge
Cd	Cd	0.26681 0.36989 0.38287 1.18400
Cd	Cd	0.19060 0.63635 0.37897 1.18300
Ni	Ni	0.19723 0.49967 0.87280 1.04500
Ni	Ni	0.99598 0.23630 0.26640 1.05600
N 	N 	0.22650 0.42210 0.14900 -0.18300
N 	N 	0.21060 0.42270 0.58680 -0.19600
N 	N 	0.13020 0.31940 0.38000 -0.18100
N 	N 	0.33460 0.31620 0.61200 -0.15600
N 	N 	0.32460 0.31170 0.17000 -0.20400
N 	N 	0.43070 0.39070 0.34700 -0.22700
N 	N 	0.20340 0.57520 0.16200 -0.18200
N 	N 	0.18650 0.58160 0.60500 -0.19900
N 	N 	0.85370 0.15840 0.14000 -0.18100
N 	N 	0.83370 0.29380 0.42700 -0.16300
N 	N 	0.16930 0.69290 0.14000 -0.20500
N 	N 	0.02250 0.63430 0.32260 -0.22600
C 	C 	0.21370 0.45090 0.04300 -0.25100
C 	C 	0.20100 0.45200 0.69600 -0.25600
C 	C 	0.07950 0.28780 0.33800 -0.22300
C 	C 	0.40040 0.29720 0.67100 -0.23700
C 	C 	0.19960 0.54700 0.05200 -0.25200
C 	C 	0.18780 0.55070 0.70500 -0.24800
C 	C 	0.90900 0.18730 0.18800 -0.23600
C 	C 	0.89330 0.27140 0.36200 -0.23900
C 	C 	0.42940 0.31660 0.16400 -0.05400
C 	C 	0.47030 0.36270 0.20000 0.01000
C 	C 	0.58140 0.36590 0.18800 -0.07500
C 	C 	0.06800 0.69610 0.10600 -0.05500
C 	C 	0.99980 0.66930 0.18600 0.01500
C 	C 	0.89570 0.67490 0.14000 -0.06800
Cd	Cd	0.23319 0.13011 0.88287 1.18200
Cd	Cd	0.30940 0.86365 0.87897 1.18100
Ni	Ni	0.30277 0.00033 0.37280 1.04700
Ni	Ni	0.50402 0.26370 0.76640 1.05800
N 	N 	0.27350 0.07790 0.64900 -0.18300
N 	N 	0.28940 0.07730 0.08680 -0.19600
N 	N 	0.36980 0.18060 0.88000 -0.18100
N 	N 	0.16540 0.18380 0.11200 -0.15500
N 	N 	0.17540 0.18830 0.67000 -0.20400
N 	N 	0.06930 0.10930 0.84700 -0.22800
N 	N 	0.29660 0.92480 0.66200 -0.18200
N 	N 	0.31350 0.91840 0.10500 -0.19800
N 	N 	0.64630 0.34160 0.64000 -0.18000
N 	N 	0.66630 0.20620 0.92700 -0.16200
N 	N 	0.33070 0.80710 0.64000 -0.20500
N 	N 	0.47750 0.86570 0.82260 -0.22800
C 	C 	0.28630 0.04910 0.54300 -0.25300
C 	C 	0.29900 0.04800 0.19600 -0.25400
C 	C 	0.42050 0.21220 0.83800 -0.22500
C 	C 	0.09960 0.20280 0.17100 -0.23400
C 	C 	0.30040 0.95300 0.55200 -0.25400
C 	C 	0.31220 0.94930 0.20500 -0.24600
C 	C 	0.59100 0.31270 0.68800 -0.23400
C 	C 	0.60670 0.22860 0.86200 -0.23800
C 	C 	0.07060 0.18340 0.66400 -0.05400
C 	C 	0.02970 0.13730 0.70000 0.00900
C 	C 	0.91860 0.13410 0.68800 -0.07100
C 	C 	0.43200 0.80390 0.60600 -0.06100
C 	C 	0.50020 0.83070 0.68600 0.02100
C 	C 	0.60430 0.82510 0.64000 -0.06700
Cd	Cd	0.73319 0.63011 0.61713 1.18300
Cd	Cd	0.80940 0.36365 0.62103 1.18200
Ni	Ni	0.80277 0.50033 0.12720 1.04500
Ni	Ni	0.00402 0.76370 0.73360 1.05600
N 	N 	0.77350 0.57790 0.85100 -0.18300
N 	N 	0.78940 0.57730 0.41320 -0.19600
N 	N 	0.86980 0.68060 0.62000 -0.18100
N 	N 	0.66540 0.68380 0.38800 -0.15600
N 	N 	0.67540 0.68830 0.83000 -0.20400
N 	N 	0.56930 0.60930 0.65300 -0.22700
N 	N 	0.79660 0.42480 0.83800 -0.18200
N 	N 	0.81350 0.41840 0.39500 -0.19900
N 	N 	0.14630 0.84160 0.86000 -0.18100
N 	N 	0.16630 0.70620 0.57300 -0.16300
N 	N 	0.83070 0.30710 0.86000 -0.20500
N 	N 	0.97750 0.36570 0.67740 -0.22600
C 	C 	0.78630 0.54910 0.95700 -0.25100
C 	C 	0.79900 0.54800 0.30400 -0.25600
C 	C 	0.92050 0.71220 0.66200 -0.22300
C 	C 	0.59960 0.70280 0.32900 -0.23700
C 	C 	0.80040 0.45300 0.94800 -0.25200
C 	C 	0.81220 0.44930 0.29500 -0.24800
C 	C 	0.09100 0.81270 0.81200 -0.23600
C 	C 	0.10670 0.72860 0.63800 -0.23900
C 	C 	0.57060 0.68340 0.83600 -0.05400
C 	C 	0.52970 0.63730 0.80000 0.01000
C 	C 	0.41860 0.63410 0.81200 -0.07500
C 	C 	0.93200 0.30390 0.89400 -0.05500
C 	C 	0.00020 0.33070 0.81400 0.01500
C 	C 	0.10430 0.32510 0.86000 -0.06800
Cd	Cd	0.76681 0.86989 0.11713 1.18200
Cd	Cd	0.69060 0.13635 0.12103 1.18100
Ni	Ni	0.69723 0.99967 0.62720 1.04700
Ni	Ni	0.49598 0.73630 0.23360 1.05800
N 	N 	0.72650 0.92210 0.35100 -0.18300
N 	N 	0.71060 0.92270 0.91320 -0.19600
N 	N 	0.63020 0.81940 0.12000 -0.18100
N 	N 	0.83460 0.81620 0.88800 -0.15500
N 	N 	0.82460 0.81170 0.33000 -0.20400
N 	N 	0.93070 0.89070 0.15300 -0.22800
N 	N 	0.70340 0.07520 0.33800 -0.18200
N 	N 	0.68650 0.08160 0.89500 -0.19800
N 	N 	0.35370 0.65840 0.36000 -0.18000
N 	N 	0.33370 0.79380 0.07300 -0.16200
N 	N 	0.66930 0.19290 0.36000 -0.20500
N 	N 	0.52250 0.13430 0.17740 -0.22800
C 	C 	0.71370 0.95090 0.45700 -0.25300
C 	C 	0.70100 0.95200 0.80400 -0.25400
C 	C 	0.57950 0.78780 0.16200 -0.22500
C 	C 	0.90040 0.79720 0.82900 -0.23400
C 	C 	0.69960 0.04700 0.44800 -0.25400
C 	C 	0.68780 0.05070 0.79500 -0.24600
C 	C 	0.40900 0.68730 0.31200 -0.23400
C 	C 	0.39330 0.77140 0.13800 -0.23800
C 	C 	0.92940 0.81660 0.33600 -0.05400
C 	C 	0.97030 0.86270 0.30000 0.00900
C 	C 	0.08140 0.86590 0.31200 -0.07100
C 	C 	0.56800 0.19610 0.39400 -0.06100
C 	C 	0.49980 0.16930 0.31400 0.02100
C 	C 	0.39570 0.17490 0.36000 -0.06700
