data_crystal

_cell_length_a 13.83800
_cell_length_b 26.89300
_cell_length_c 7.54300
_cell_angle_alpha 90.00000
_cell_angle_beta  90.00000
_cell_angle_gamma 90.92000

_symmetry_space_group_name_	'P 1'
_symmetry_space_group_name_H-M	'P 1'

loop_
_symmetry_equiv_pos_as_xyz
  x,y,z

loop_
_atom_site_label
_atom_site_type_symbol
_atom_site_fract_x
_atom_site_fract_y
_atom_site_fract_z
_atom_site_charge
Cd	Cd	0.26592 0.36960 0.37952 1.18400
Cd	Cd	0.19154 0.63703 0.37937 1.18400
Ni	Ni	0.19669 0.50006 0.87230 1.04500
Ni	Ni	0.99590 0.23606 0.26040 1.05900
N 	N 	0.22200 0.42150 0.14800 -0.18400
N 	N 	0.20970 0.42270 0.58700 -0.19400
N 	N 	0.13020 0.31840 0.37200 -0.18000
N 	N 	0.33420 0.31620 0.60200 -0.16300
N 	N 	0.32660 0.31390 0.15700 -0.20200
N 	N 	0.42880 0.39243 0.33800 -0.22800
N 	N 	0.20520 0.57570 0.16300 -0.18200
N 	N 	0.18610 0.58210 0.60400 -0.19900
N 	N 	0.85340 0.15790 0.13000 -0.18500
N 	N 	0.83210 0.29300 0.42000 -0.15800
N 	N 	0.16870 0.69440 0.14400 -0.20600
N 	N 	0.02380 0.63460 0.32600 -0.22700
C 	C 	0.21160 0.45060 0.04400 -0.24700
C 	C 	0.20100 0.45190 0.69400 -0.25200
C 	C 	0.07890 0.28690 0.33300 -0.22600
C 	C 	0.39920 0.29690 0.66400 -0.23300
C 	C 	0.20060 0.54770 0.05100 -0.25300
C 	C 	0.18830 0.55100 0.70400 -0.25000
C 	C 	0.90970 0.18680 0.18100 -0.23800
C 	C 	0.89400 0.27090 0.35800 -0.24600
C 	C 	0.42900 0.32120 0.14800 -0.05500
C 	C 	0.47000 0.36680 0.18900 0.01700
C 	C 	0.58000 0.37300 0.16700 -0.07700
C 	C 	0.06800 0.69710 0.11400 -0.05600
C 	C 	0.99910 0.66980 0.18700 0.01400
C 	C 	0.89440 0.67610 0.14700 -0.06800
Cd	Cd	0.23408 0.13040 0.87952 1.18300
Cd	Cd	0.30846 0.86297 0.87937 1.18300
Ni	Ni	0.30331 0.99994 0.37230 1.04600
Ni	Ni	0.50410 0.26394 0.76040 1.06000
N 	N 	0.27800 0.07850 0.64800 -0.18400
N 	N 	0.29030 0.07730 0.08700 -0.19300
N 	N 	0.36980 0.18160 0.87200 -0.18000
N 	N 	0.16580 0.18380 0.10200 -0.16200
N 	N 	0.17340 0.18610 0.65700 -0.20300
N 	N 	0.07120 0.10757 0.83800 -0.22900
N 	N 	0.29480 0.92430 0.66300 -0.18200
N 	N 	0.31390 0.91790 0.10400 -0.19800
N 	N 	0.64660 0.34210 0.63000 -0.18400
N 	N 	0.66790 0.20700 0.92000 -0.15700
N 	N 	0.33130 0.80560 0.64400 -0.20600
N 	N 	0.47620 0.86540 0.82600 -0.22900
C 	C 	0.28840 0.04940 0.54400 -0.24800
C 	C 	0.29900 0.04810 0.19400 -0.24900
C 	C 	0.42110 0.21310 0.83300 -0.22800
C 	C 	0.10080 0.20310 0.16400 -0.22900
C 	C 	0.29940 0.95230 0.55100 -0.25600
C 	C 	0.31170 0.94900 0.20400 -0.24800
C 	C 	0.59030 0.31320 0.68100 -0.23500
C 	C 	0.60600 0.22910 0.85800 -0.24500
C 	C 	0.07100 0.17880 0.64800 -0.05500
C 	C 	0.03000 0.13320 0.68900 0.01700
C 	C 	0.92000 0.12700 0.66700 -0.07500
C 	C 	0.43200 0.80290 0.61400 -0.06000
C 	C 	0.50090 0.83020 0.68700 0.01900
C 	C 	0.60560 0.82390 0.64700 -0.06700
Cd	Cd	0.73408 0.63040 0.62048 1.18400
Cd	Cd	0.80846 0.36297 0.62063 1.18400
Ni	Ni	0.80331 0.49994 0.12770 1.04500
Ni	Ni	0.00410 0.76394 0.73960 1.05900
N 	N 	0.77800 0.57850 0.85200 -0.18400
N 	N 	0.79030 0.57730 0.41300 -0.19400
N 	N 	0.86980 0.68160 0.62800 -0.18000
N 	N 	0.66580 0.68380 0.39800 -0.16300
N 	N 	0.67340 0.68610 0.84300 -0.20200
N 	N 	0.57120 0.60757 0.66200 -0.22800
N 	N 	0.79480 0.42430 0.83700 -0.18200
N 	N 	0.81390 0.41790 0.39600 -0.19900
N 	N 	0.14660 0.84210 0.87000 -0.18500
N 	N 	0.16790 0.70700 0.58000 -0.15800
N 	N 	0.83130 0.30560 0.85600 -0.20600
N 	N 	0.97620 0.36540 0.67400 -0.22700
C 	C 	0.78840 0.54940 0.95600 -0.24700
C 	C 	0.79900 0.54810 0.30600 -0.25200
C 	C 	0.92110 0.71310 0.66700 -0.22600
C 	C 	0.60080 0.70310 0.33600 -0.23300
C 	C 	0.79940 0.45230 0.94900 -0.25300
C 	C 	0.81170 0.44900 0.29600 -0.25000
C 	C 	0.09030 0.81320 0.81900 -0.23800
C 	C 	0.10600 0.72910 0.64200 -0.24600
C 	C 	0.57100 0.67880 0.85200 -0.05500
C 	C 	0.53000 0.63320 0.81100 0.01700
C 	C 	0.42000 0.62700 0.83300 -0.07700
C 	C 	0.93200 0.30290 0.88600 -0.05600
C 	C 	0.00090 0.33020 0.81300 0.01400
C 	C 	0.10560 0.32390 0.85300 -0.06800
Cd	Cd	0.76592 0.86960 0.12048 1.18300
Cd	Cd	0.69154 0.13703 0.12063 1.18300
Ni	Ni	0.69669 0.00006 0.62770 1.04600
Ni	Ni	0.49590 0.73606 0.23960 1.06000
N 	N 	0.72200 0.92150 0.35200 -0.18400
N 	N 	0.70970 0.92270 0.91300 -0.19300
N 	N 	0.63020 0.81840 0.12800 -0.18000
N 	N 	0.83420 0.81620 0.89800 -0.16200
N 	N 	0.82660 0.81390 0.34300 -0.20300
N 	N 	0.92880 0.89243 0.16200 -0.22900
N 	N 	0.70520 0.07570 0.33700 -0.18200
N 	N 	0.68610 0.08210 0.89600 -0.19800
N 	N 	0.35340 0.65790 0.37000 -0.18400
N 	N 	0.33210 0.79300 0.08000 -0.15700
N 	N 	0.66870 0.19440 0.35600 -0.20600
N 	N 	0.52380 0.13460 0.17400 -0.22900
C 	C 	0.71160 0.95060 0.45600 -0.24800
C 	C 	0.70100 0.95190 0.80600 -0.24900
C 	C 	0.57890 0.78690 0.16700 -0.22800
C 	C 	0.89920 0.79690 0.83600 -0.22900
C 	C 	0.70060 0.04770 0.44900 -0.25600
C 	C 	0.68830 0.05100 0.79600 -0.24800
C 	C 	0.40970 0.68680 0.31900 -0.23500
C 	C 	0.39400 0.77090 0.14200 -0.24500
C 	C 	0.92900 0.82120 0.35200 -0.05500
C 	C 	0.97000 0.86680 0.31100 0.01700
C 	C 	0.08000 0.87300 0.33300 -0.07500
C 	C 	0.56800 0.19710 0.38600 -0.06000
C 	C 	0.49910 0.16980 0.31300 0.01900
C 	C 	0.39440 0.17610 0.35300 -0.06700
