data_crystal

_cell_length_a 21.46000
_cell_length_b 24.19900
_cell_length_c 8.44900
_cell_angle_alpha 90.00000
_cell_angle_beta  90.00000
_cell_angle_gamma 90.00000

_symmetry_space_group_name_	'P 1'
_symmetry_space_group_name_H-M	'P 1'

loop_
_symmetry_equiv_pos_as_xyz
  x,y,z

loop_
_atom_site_label
_atom_site_type_symbol
_atom_site_fract_x
_atom_site_fract_y
_atom_site_fract_z
_atom_site_charge
Cu	Cu	0.91439 0.51842 0.33280 0.82100
O 	O 	0.79020 0.32360 0.75770 -0.36900
N 	N 	0.89450 0.44530 0.40730 -0.24500
N 	N 	0.86420 0.33960 0.50520 -0.22800
N 	N 	0.78770 0.41410 0.82100 -0.16000
C 	C 	0.84500 0.38460 0.58400 -0.04300
C 	C 	0.86120 0.43690 0.53600 0.03400
C 	C 	0.80430 0.37130 0.73200 0.20000
Cu	Cu	0.91439 0.01842 0.83280 0.81300
O 	O 	0.79020 0.82360 0.25770 -0.36600
N 	N 	0.89450 0.94530 0.90730 -0.26500
N 	N 	0.86420 0.83960 0.00520 -0.20800
N 	N 	0.78770 0.91410 0.32100 -0.15300
C 	C 	0.84500 0.88460 0.08400 -0.04700
C 	C 	0.86120 0.93690 0.03600 0.06800
C 	C 	0.80430 0.87130 0.23200 0.20700
C 	C 	0.83710 0.65090 0.07400 0.04100
C 	C 	0.85200 0.59830 0.13000 -0.00400
H 	H 	0.90160 0.71810 0.34890 -0.00800
H 	H 	0.81400 0.65570 0.97360 -0.05400
H 	H 	0.83570 0.56620 0.07390 0.00300
C 	C 	0.83710 0.15090 0.57400 -0.00800
C 	C 	0.85200 0.09830 0.63000 0.01600
H 	H 	0.90160 0.21810 0.84890 -0.01000
H 	H 	0.81400 0.15570 0.47360 -0.01700
H 	H 	0.83570 0.06620 0.57390 -0.01000
C 	C 	0.91290 0.90090 0.82400 0.00200
C 	C 	0.89800 0.84830 0.88000 -0.02000
H 	H 	0.84840 0.96810 0.09890 -0.01300
H 	H 	0.93600 0.90570 0.72360 -0.02400
H 	H 	0.91430 0.81620 0.82390 -0.00500
C 	C 	0.91290 0.40090 0.32400 -0.00500
C 	C 	0.89800 0.34830 0.38000 0.01600
H 	H 	0.84840 0.46810 0.59890 -0.01000
H 	H 	0.93600 0.40570 0.22360 -0.01600
H 	H 	0.91430 0.31620 0.32390 -0.00700
Cu	Cu	0.83561 0.76842 0.08280 0.82600
O 	O 	0.95980 0.57360 0.50770 -0.36700
N 	N 	0.85550 0.69530 0.15730 -0.25000
N 	N 	0.88580 0.58960 0.25520 -0.22200
N 	N 	0.96230 0.66410 0.57100 -0.15600
C 	C 	0.90500 0.63460 0.33400 -0.04300
C 	C 	0.88880 0.68690 0.28600 0.03800
C 	C 	0.94570 0.62130 0.48200 0.20300
Cu	Cu	0.83561 0.26842 0.58280 0.82100
O 	O 	0.95980 0.07360 0.00770 -0.32500
N 	N 	0.85550 0.19530 0.65730 -0.24300
N 	N 	0.88580 0.08960 0.75520 -0.23100
N 	N 	0.96230 0.16410 0.07100 -0.12800
C 	C 	0.90500 0.13460 0.83400 -0.03100
C 	C 	0.88880 0.18690 0.78600 0.02700
C 	C 	0.94570 0.12130 0.98200 0.14600
C 	C 	0.66290 0.34910 0.57400 -0.00800
C 	C 	0.64800 0.40170 0.63000 0.01600
H 	H 	0.59840 0.28190 0.84890 -0.01000
H 	H 	0.68600 0.34430 0.47360 -0.01700
H 	H 	0.66430 0.43380 0.57390 -0.01000
C 	C 	0.66290 0.84910 0.07400 0.04100
C 	C 	0.64800 0.90170 0.13000 -0.00400
H 	H 	0.59840 0.78190 0.34890 -0.00800
H 	H 	0.68600 0.84430 0.97360 -0.05400
H 	H 	0.66430 0.93380 0.07390 0.00300
Cu	Cu	0.58561 0.48158 0.83280 0.81400
O 	O 	0.70980 0.67640 0.25770 -0.36500
N 	N 	0.60550 0.55470 0.90730 -0.26500
N 	N 	0.63580 0.66040 0.00520 -0.20700
N 	N 	0.71230 0.58590 0.32100 -0.15300
C 	C 	0.65500 0.61540 0.08400 -0.04700
C 	C 	0.63880 0.56310 0.03600 0.06800
C 	C 	0.69570 0.62870 0.23200 0.20700
Cu	Cu	0.58561 0.98158 0.33280 0.82200
O 	O 	0.70980 0.17640 0.75770 -0.36800
N 	N 	0.60550 0.05470 0.40730 -0.24400
N 	N 	0.63580 0.16040 0.50520 -0.22700
N 	N 	0.71230 0.08590 0.82100 -0.15900
C 	C 	0.65500 0.11540 0.58400 -0.04200
C 	C 	0.63880 0.06310 0.53600 0.03500
C 	C 	0.69570 0.12870 0.73200 0.20100
Cu	Cu	0.66439 0.73158 0.08280 0.82600
O 	O 	0.54020 0.92640 0.50770 -0.36600
N 	N 	0.64450 0.80470 0.15730 -0.25000
N 	N 	0.61420 0.91040 0.25520 -0.22200
N 	N 	0.53770 0.83590 0.57100 -0.15600
C 	C 	0.59500 0.86540 0.33400 -0.04300
C 	C 	0.61120 0.81310 0.28600 0.03800
C 	C 	0.55430 0.87870 0.48200 0.20300
Cu	Cu	0.66439 0.23158 0.58280 0.82100
O 	O 	0.54020 0.42640 0.00770 -0.32400
N 	N 	0.64450 0.30470 0.65730 -0.24300
N 	N 	0.61420 0.41040 0.75520 -0.23100
N 	N 	0.53770 0.33590 0.07100 -0.12800
C 	C 	0.59500 0.36540 0.83400 -0.03000
C 	C 	0.61120 0.31310 0.78600 0.02700
C 	C 	0.55430 0.37870 0.98200 0.14500
C 	C 	0.58710 0.59910 0.82400 0.00200
C 	C 	0.60200 0.65170 0.88000 -0.02100
H 	H 	0.65160 0.53190 0.09890 -0.01300
H 	H 	0.56400 0.59430 0.72360 -0.02400
H 	H 	0.58570 0.68380 0.82390 -0.00500
C 	C 	0.58710 0.09910 0.32400 -0.00500
C 	C 	0.60200 0.15170 0.38000 0.01600
H 	H 	0.65160 0.03190 0.59890 -0.01000
H 	H 	0.56400 0.09430 0.22360 -0.01600
H 	H 	0.58570 0.18380 0.32390 -0.00700
Cu	Cu	0.41439 0.51842 0.83280 0.81400
O 	O 	0.29020 0.32360 0.25770 -0.36500
N 	N 	0.39450 0.44530 0.90730 -0.26500
N 	N 	0.36420 0.33960 0.00520 -0.20700
N 	N 	0.28770 0.41410 0.32100 -0.15300
C 	C 	0.34500 0.38460 0.08400 -0.04700
C 	C 	0.36120 0.43690 0.03600 0.06800
C 	C 	0.30430 0.37130 0.23200 0.20700
Cu	Cu	0.41439 0.01842 0.33280 0.82200
O 	O 	0.29020 0.82360 0.75770 -0.36800
N 	N 	0.39450 0.94530 0.40730 -0.24400
N 	N 	0.36420 0.83960 0.50520 -0.22700
N 	N 	0.28770 0.91410 0.82100 -0.15900
C 	C 	0.34500 0.88460 0.58400 -0.04200
C 	C 	0.36120 0.93690 0.53600 0.03500
C 	C 	0.30430 0.87130 0.73200 0.20100
C 	C 	0.33710 0.65090 0.57400 -0.00800
C 	C 	0.35200 0.59830 0.63000 0.01600
H 	H 	0.40160 0.71810 0.84890 -0.01000
H 	H 	0.31400 0.65570 0.47360 -0.01700
H 	H 	0.33570 0.56620 0.57390 -0.01000
C 	C 	0.33710 0.15090 0.07400 0.04100
C 	C 	0.35200 0.09830 0.13000 -0.00400
H 	H 	0.40160 0.21810 0.34890 -0.00800
H 	H 	0.31400 0.15570 0.97360 -0.05400
H 	H 	0.33570 0.06620 0.07390 0.00300
C 	C 	0.41290 0.90090 0.32400 -0.00500
C 	C 	0.39800 0.84830 0.38000 0.01600
H 	H 	0.34840 0.96810 0.59890 -0.01000
H 	H 	0.43600 0.90570 0.22360 -0.01600
H 	H 	0.41430 0.81620 0.32390 -0.00700
C 	C 	0.41290 0.40090 0.82400 0.00200
C 	C 	0.39800 0.34830 0.88000 -0.02100
H 	H 	0.34840 0.46810 0.09890 -0.01300
H 	H 	0.43600 0.40570 0.72360 -0.02400
H 	H 	0.41430 0.31620 0.82390 -0.00500
Cu	Cu	0.33561 0.76842 0.58280 0.82100
O 	O 	0.45980 0.57360 0.00770 -0.32400
N 	N 	0.35550 0.69530 0.65730 -0.24300
N 	N 	0.38580 0.58960 0.75520 -0.23100
N 	N 	0.46230 0.66410 0.07100 -0.12800
C 	C 	0.40500 0.63460 0.83400 -0.03000
C 	C 	0.38880 0.68690 0.78600 0.02700
C 	C 	0.44570 0.62130 0.98200 0.14500
Cu	Cu	0.33561 0.26842 0.08280 0.82600
O 	O 	0.45980 0.07360 0.50770 -0.36600
N 	N 	0.35550 0.19530 0.15730 -0.25000
N 	N 	0.38580 0.08960 0.25520 -0.22200
N 	N 	0.46230 0.16410 0.57100 -0.15600
C 	C 	0.40500 0.13460 0.33400 -0.04300
C 	C 	0.38880 0.18690 0.28600 0.03800
C 	C 	0.44570 0.12130 0.48200 0.20300
C 	C 	0.16290 0.34910 0.07400 0.04100
C 	C 	0.14800 0.40170 0.13000 -0.00400
H 	H 	0.09840 0.28190 0.34890 -0.00800
H 	H 	0.18600 0.34430 0.97360 -0.05400
H 	H 	0.16430 0.43380 0.07390 0.00300
C 	C 	0.16290 0.84910 0.57400 -0.00800
C 	C 	0.14800 0.90170 0.63000 0.01600
H 	H 	0.09840 0.78190 0.84890 -0.01000
H 	H 	0.18600 0.84430 0.47360 -0.01700
H 	H 	0.16430 0.93380 0.57390 -0.01000
Cu	Cu	0.08561 0.48158 0.33280 0.82200
O 	O 	0.20980 0.67640 0.75770 -0.36800
N 	N 	0.10550 0.55470 0.40730 -0.24400
N 	N 	0.13580 0.66040 0.50520 -0.22700
N 	N 	0.21230 0.58590 0.82100 -0.15900
C 	C 	0.15500 0.61540 0.58400 -0.04200
C 	C 	0.13880 0.56310 0.53600 0.03500
C 	C 	0.19570 0.62870 0.73200 0.20100
Cu	Cu	0.08561 0.98158 0.83280 0.81400
O 	O 	0.20980 0.17640 0.25770 -0.36500
N 	N 	0.10550 0.05470 0.90730 -0.26400
N 	N 	0.13580 0.16040 0.00520 -0.20700
N 	N 	0.21230 0.08590 0.32100 -0.15300
C 	C 	0.15500 0.11540 0.08400 -0.04700
C 	C 	0.13880 0.06310 0.03600 0.06800
C 	C 	0.19570 0.12870 0.23200 0.20700
Cu	Cu	0.16439 0.73158 0.58280 0.82100
O 	O 	0.04020 0.92640 0.00770 -0.32500
N 	N 	0.14450 0.80470 0.65730 -0.24300
N 	N 	0.11420 0.91040 0.75520 -0.23100
N 	N 	0.03770 0.83590 0.07100 -0.12800
C 	C 	0.09500 0.86540 0.83400 -0.03100
C 	C 	0.11120 0.81310 0.78600 0.02700
C 	C 	0.05430 0.87870 0.98200 0.14600
Cu	Cu	0.16439 0.23158 0.08280 0.82600
O 	O 	0.04020 0.42640 0.50770 -0.36700
N 	N 	0.14450 0.30470 0.15730 -0.25000
N 	N 	0.11420 0.41040 0.25520 -0.22200
N 	N 	0.03770 0.33590 0.57100 -0.15600
C 	C 	0.09500 0.36540 0.33400 -0.04300
C 	C 	0.11120 0.31310 0.28600 0.03800
C 	C 	0.05430 0.37870 0.48200 0.20300
C 	C 	0.08710 0.59910 0.32400 -0.00500
C 	C 	0.10200 0.65170 0.38000 0.01600
H 	H 	0.15160 0.53190 0.59890 -0.01000
H 	H 	0.06400 0.59430 0.22360 -0.01600
H 	H 	0.08570 0.68380 0.32390 -0.00700
C 	C 	0.08710 0.09910 0.82400 0.00200
C 	C 	0.10200 0.15170 0.88000 -0.02000
H 	H 	0.15160 0.03190 0.09890 -0.01300
H 	H 	0.06400 0.09430 0.72360 -0.02400
H 	H 	0.08570 0.18380 0.82390 -0.00500
