data_crystal

_cell_length_a 15.99810
_cell_length_b 15.99810
_cell_length_c 16.57610
_cell_angle_alpha 74.53330
_cell_angle_beta  74.53300
_cell_angle_gamma 116.57500

_symmetry_space_group_name_	'P 1'
_symmetry_space_group_name_H-M	'P 1'

loop_
_symmetry_equiv_pos_as_xyz
  x,y,z

loop_
_atom_site_label
_atom_site_type_symbol
_atom_site_fract_x
_atom_site_fract_y
_atom_site_fract_z
_atom_site_charge
Ni	Ni	0.50000 0.00000 -0.00000 0.99800
Ni	Ni	0.50000 0.50000 0.50000 1.05000
Ni	Ni	0.50000 0.00000 0.50000 1.01400
Ni	Ni	-0.00000 0.00000 -0.00000 0.99200
Mo	Mo	0.37500 0.12500 0.75000 1.06100
Mo	Mo	0.62500 0.87500 0.25000 1.08300
H 	H 	0.69630 0.21610 0.95600 -0.00000
H 	H 	0.81790 0.33050 0.81240 0.09300
H 	H 	0.73730 0.33670 0.77860 0.10200
H 	H 	0.81650 0.48450 0.79820 -0.00900
H 	H 	0.80790 0.42310 0.89420 -0.00100
H 	H 	0.64760 0.43100 0.86300 0.11500
H 	H 	0.69120 0.46480 0.93120 0.11300
H 	H 	0.52740 0.30220 0.00820 -0.05800
H 	H 	0.61260 0.29900 0.03540 -0.05500
H 	H 	0.54310 0.22530 0.91960 0.05500
H 	H 	0.64120 0.14500 0.83720 0.09800
H 	H 	0.69470 0.12110 0.88900 0.08200
H 	H 	0.50400 0.10800 0.08980 0.07000
H 	H 	0.43010 0.10210 0.05220 0.06600
H 	H 	0.67210 0.65230 0.54400 0.02200
H 	H 	0.64290 0.63030 0.68760 0.06400
H 	H 	0.61530 0.51590 0.72140 0.06900
H 	H 	0.78270 0.61470 0.70180 0.04400
H 	H 	0.81730 0.70210 0.60580 0.05400
H 	H 	0.79400 0.51060 0.63700 0.04100
H 	H 	0.89600 0.62240 0.56880 0.03600
H 	H 	0.81040 0.53560 0.49180 0.06800
H 	H 	0.83440 0.64800 0.46460 0.07200
H 	H 	0.64490 0.46270 0.58040 0.01900
H 	H 	0.48220 0.47840 0.66280 0.10400
H 	H 	0.51010 0.58370 0.61100 0.09600
H 	H 	0.69780 0.59380 0.41020 0.09800
H 	H 	0.65430 0.48230 0.44780 0.09300
H 	H 	0.28390 0.80370 0.54400 0.02800
H 	H 	0.16950 0.68210 0.68760 0.04700
H 	H 	0.16330 0.76270 0.72140 0.06100
H 	H 	0.01550 0.68350 0.70180 0.04700
H 	H 	0.07690 0.69210 0.60580 0.05300
H 	H 	0.06900 0.85240 0.63700 0.02800
H 	H 	0.03520 0.80880 0.56880 0.01400
H 	H 	0.19780 0.97260 0.49180 0.11300
H 	H 	0.20100 0.88740 0.46460 0.09600
H 	H 	0.27470 0.95690 0.58040 0.01900
H 	H 	0.35500 0.85880 0.66280 0.11800
H 	H 	0.37890 0.80530 0.61100 0.09600
H 	H 	0.39200 0.99600 0.41020 0.17600
H 	H 	0.39790 0.06990 0.44780 0.09100
H 	H 	0.84770 0.82790 0.95600 0.00600
H 	H 	0.86970 0.85710 0.81240 0.10900
H 	H 	0.98410 0.88470 0.77860 0.12700
H 	H 	0.88530 0.71730 0.79820 -0.00300
H 	H 	0.79790 0.68270 0.89420 0.00200
H 	H 	0.98940 0.70600 0.86300 0.11300
H 	H 	0.87760 0.60400 0.93120 0.10400
H 	H 	0.96440 0.68960 0.00820 -0.02800
H 	H 	0.85200 0.66560 0.03540 -0.03100
H 	H 	0.03730 0.85510 0.91960 0.05000
H 	H 	0.02160 0.01780 0.83720 0.02100
H 	H 	0.91630 0.98990 0.88900 0.11200
H 	H 	0.90620 0.80220 0.08980 0.09500
H 	H 	0.01770 0.84570 0.05220 0.08600
H 	H 	0.30370 0.78390 0.04400 0.03000
H 	H 	0.18210 0.66950 0.18760 0.03300
H 	H 	0.26270 0.66330 0.22140 0.04700
H 	H 	0.18350 0.51550 0.20180 0.07300
H 	H 	0.19210 0.57690 0.10580 0.07400
H 	H 	0.35240 0.56900 0.13700 -0.01700
H 	H 	0.30880 0.53520 0.06880 -0.03600
H 	H 	0.47260 0.69780 0.99180 0.16900
H 	H 	0.38740 0.70100 0.96460 0.16600
H 	H 	0.45690 0.77470 0.08040 -0.00700
H 	H 	0.35880 0.85500 0.16280 0.11200
H 	H 	0.30530 0.87890 0.11100 0.10700
H 	H 	0.49600 0.89200 0.91020 0.12100
H 	H 	0.56990 0.89790 0.94780 0.11900
H 	H 	0.32790 0.34770 0.45600 0.00700
H 	H 	0.35710 0.36970 0.31240 0.06000
H 	H 	0.38470 0.48410 0.27860 0.07700
H 	H 	0.21730 0.38530 0.29820 0.02300
H 	H 	0.18270 0.29790 0.39420 0.02200
H 	H 	0.20600 0.48940 0.36300 0.05200
H 	H 	0.10400 0.37760 0.43120 0.03500
H 	H 	0.18960 0.46440 0.50820 0.05200
H 	H 	0.16560 0.35200 0.53540 0.04800
H 	H 	0.35510 0.53730 0.41960 0.02600
H 	H 	0.51780 0.52160 0.33720 0.10300
H 	H 	0.48990 0.41630 0.38900 0.09000
H 	H 	0.30220 0.40620 0.58980 0.09300
H 	H 	0.34570 0.51770 0.55220 0.09200
H 	H 	0.71610 0.19630 0.45600 0.00200
H 	H 	0.83050 0.31790 0.31240 0.07600
H 	H 	0.83670 0.23730 0.27860 0.08600
H 	H 	0.98450 0.31650 0.29820 0.02100
H 	H 	0.92310 0.30790 0.39420 0.02400
H 	H 	0.93100 0.14760 0.36300 0.06500
H 	H 	0.96480 0.19120 0.43120 0.05800
H 	H 	0.80220 0.02740 0.50820 0.00900
H 	H 	0.79900 0.11260 0.53540 0.02500
H 	H 	0.72530 0.04310 0.41960 0.02600
H 	H 	0.64500 0.14120 0.33720 0.09000
H 	H 	0.62110 0.19470 0.38900 0.09000
H 	H 	0.60800 0.00400 0.58980 0.01700
H 	H 	0.60210 0.93010 0.55220 0.09600
H 	H 	0.15230 0.17210 0.04400 0.02400
H 	H 	0.13030 0.14290 0.18760 0.01000
H 	H 	0.01590 0.11530 0.22140 0.01400
H 	H 	0.11470 0.28270 0.20180 0.07600
H 	H 	0.20210 0.31730 0.10580 0.07900
H 	H 	0.01060 0.29400 0.13700 -0.03000
H 	H 	0.12240 0.39600 0.06880 -0.04200
H 	H 	0.03560 0.31040 0.99180 0.16500
H 	H 	0.14800 0.33440 0.96460 0.16700
H 	H 	0.96270 0.14490 0.08040 -0.00400
H 	H 	0.97840 0.98220 0.16280 0.19500
H 	H 	0.08370 0.01010 0.11100 0.07400
H 	H 	0.09380 0.19780 0.91020 0.09800
H 	H 	0.98230 0.15430 0.94780 0.10100
C 	C 	0.40757 0.05821 0.85772 -0.15600
C 	C 	0.27968 0.95548 0.80800 -0.04800
C 	C 	0.66780 0.22394 0.91106 0.08500
C 	C 	0.75375 0.32807 0.83124 -0.25500
C 	C 	0.77127 0.41985 0.85588 0.08400
C 	C 	0.67434 0.41406 0.90640 -0.29300
C 	C 	0.59253 0.30675 0.98492 0.16000
C 	C 	0.57233 0.21823 0.96404 -0.07900
C 	C 	0.41593 0.26529 0.64228 -0.12700
C 	C 	0.26348 0.08768 0.69200 -0.16300
C 	C 	0.63500 0.57886 0.58894 0.01000
C 	C 	0.65931 0.58499 0.66876 -0.14000
C 	C 	0.77573 0.62715 0.64412 -0.08400
C 	C 	0.82046 0.58074 0.59360 -0.05300
C 	C 	0.79167 0.57745 0.51508 -0.15800
C 	C 	0.68227 0.53637 0.53596 0.03000
C 	C 	0.44179 0.09243 0.64228 -0.15500
C 	C 	0.54452 0.22032 0.69200 -0.13500
C 	C 	0.27606 0.83220 0.58894 -0.02300
C 	C 	0.17193 0.74625 0.66876 -0.10700
C 	C 	0.08015 0.72873 0.64412 -0.12000
C 	C 	0.08594 0.82566 0.59360 0.00500
C 	C 	0.19325 0.90747 0.51508 -0.24200
C 	C 	0.28177 0.92767 0.53596 0.12800
C 	C 	0.23471 0.08407 0.85772 -0.14900
C 	C 	0.41232 0.23652 0.80800 -0.13100
C 	C 	0.92114 0.86500 0.91106 0.08800
C 	C 	0.91501 0.84069 0.83124 -0.25800
C 	C 	0.87285 0.72427 0.85588 0.07500
C 	C 	0.91926 0.67954 0.90640 -0.26200
C 	C 	0.92255 0.70833 0.98492 0.10600
C 	C 	0.96363 0.81773 0.96404 -0.04400
C 	C 	0.59243 0.94179 0.14228 -0.09600
C 	C 	0.72032 0.04452 0.19200 -0.22000
C 	C 	0.33220 0.77606 0.08894 -0.04200
C 	C 	0.24625 0.67193 0.16876 -0.06100
C 	C 	0.22873 0.58015 0.14412 -0.19900
C 	C 	0.32566 0.58594 0.09360 0.12900
C 	C 	0.40747 0.69325 0.01508 -0.41700
C 	C 	0.42767 0.78177 0.03596 0.11600
C 	C 	0.58407 0.73471 0.35772 -0.12700
C 	C 	0.73652 0.91232 0.30800 -0.09900
C 	C 	0.36500 0.42114 0.41106 0.02600
C 	C 	0.34069 0.41501 0.33124 -0.16600
C 	C 	0.22427 0.37285 0.35588 -0.04300
C 	C 	0.17954 0.41926 0.40640 -0.09300
C 	C 	0.20833 0.42255 0.48492 -0.12100
C 	C 	0.31773 0.46363 0.46404 0.00800
C 	C 	0.55821 0.90757 0.35772 -0.09800
C 	C 	0.45548 0.77968 0.30800 -0.12900
C 	C 	0.72394 0.16780 0.41106 0.05900
C 	C 	0.82807 0.25375 0.33124 -0.19900
C 	C 	0.91985 0.27127 0.35588 -0.00700
C 	C 	0.91406 0.17434 0.40640 -0.15100
C 	C 	0.80675 0.09253 0.48492 -0.04100
C 	C 	0.71823 0.07233 0.46404 -0.08600
C 	C 	0.76529 0.91593 0.14228 -0.10400
C 	C 	0.58768 0.76348 0.19200 -0.13300
C 	C 	0.07886 0.13500 0.08894 -0.05600
C 	C 	0.08499 0.15931 0.16876 -0.03700
C 	C 	0.12715 0.27573 0.14412 -0.22100
C 	C 	0.08074 0.32046 0.09360 0.14400
C 	C 	0.07745 0.29167 0.01508 -0.42600
C 	C 	0.03637 0.18227 0.03596 0.08800
N 	N 	0.42839 0.02577 0.91384 -0.20900
N 	N 	0.23562 0.86892 0.83868 -0.09500
N 	N 	0.64398 0.13246 0.89232 -0.34600
N 	N 	0.49396 0.11374 0.03828 -0.32900
N 	N 	0.43961 0.34223 0.58616 -0.20500
N 	N 	0.20760 0.07430 0.66132 -0.11000
N 	N 	0.52478 0.53630 0.60768 -0.34000
N 	N 	0.65202 0.53224 0.46172 -0.33900
N 	N 	0.47423 0.07161 0.58616 -0.21400
N 	N 	0.63108 0.26438 0.66132 -0.09100
N 	N 	0.36754 0.85602 0.60768 -0.32300
N 	N 	0.38626 0.00604 0.46172 -0.45000
N 	N 	0.15777 0.06039 0.91384 -0.20300
N 	N 	0.42570 0.29240 0.83868 -0.08700
N 	N 	0.96370 0.97522 0.89232 -0.26600
N 	N 	0.96776 0.84798 0.03828 -0.31000
N 	N 	0.57161 0.97423 0.08616 -0.18300
N 	N 	0.76438 0.13108 0.16132 -0.08400
N 	N 	0.35602 0.86754 0.10768 -0.32500
N 	N 	0.50604 0.88626 0.96172 -0.33500
N 	N 	0.56039 0.65777 0.41384 -0.20300
N 	N 	0.79240 0.92570 0.33868 -0.06900
N 	N 	0.47522 0.46370 0.39232 -0.34100
N 	N 	0.34798 0.46776 0.53828 -0.33400
N 	N 	0.52577 0.92839 0.41384 -0.18400
N 	N 	0.36892 0.73562 0.33868 -0.08800
N 	N 	0.63246 0.14398 0.39232 -0.35100
N 	N 	0.61374 0.99396 0.53828 -0.21800
N 	N 	0.84223 0.93961 0.08616 -0.18600
N 	N 	0.57430 0.70760 0.16132 -0.09200
N 	N 	0.03630 0.02478 0.10768 -0.41100
N 	N 	0.03224 0.15202 0.96172 -0.34800
