data_crystal

_cell_length_a 8.65380
_cell_length_b 14.41440
_cell_length_c 37.48840
_cell_angle_alpha 90.00000
_cell_angle_beta  90.00000
_cell_angle_gamma 90.00000

_symmetry_space_group_name_	'P 1'
_symmetry_space_group_name_H-M	'P 1'

loop_
_symmetry_equiv_pos_as_xyz
  x,y,z

loop_
_atom_site_label
_atom_site_type_symbol
_atom_site_fract_x
_atom_site_fract_y
_atom_site_fract_z
_atom_site_charge
Zn	Zn	0.06017 0.28394 0.14143 1.17000
O 	O 	0.12890 0.21802 0.18447 -0.52300
O 	O 	0.34314 0.18818 0.15502 -0.58400
N 	N 	0.03350 0.20111 0.09847 -0.30800
C 	C 	0.94130 0.03638 0.00502 -0.16300
H 	H 	0.84260 0.00600 0.00880 0.05900
H 	H 	0.92920 0.07850 0.98500 0.05800
C 	C 	0.92550 0.22362 0.07458 0.07600
H 	H 	0.86820 0.27730 0.07840 -0.05400
C 	C 	0.97910 0.09270 0.03782 0.12500
C 	C 	0.11530 0.12424 0.09204 0.08900
H 	H 	0.19060 0.10680 0.10840 -0.04000
C 	C 	0.09310 0.06961 0.06227 -0.20400
H 	H 	0.15430 0.01750 0.05860 0.07700
C 	C 	0.89450 0.17222 0.04487 -0.20800
H 	H 	0.81650 0.19060 0.02930 0.08000
C 	C 	0.33440 0.15620 0.21807 -0.32700
C 	C 	0.26640 0.18951 0.18370 0.44300
C 	C 	0.46180 0.09746 0.21819 0.30800
H 	H 	0.50550 0.07940 0.19660 -0.14600
C 	C 	0.66440 0.93730 0.28272 -1.41300
H 	H 	0.67230 0.97470 0.30380 0.41300
H 	H 	0.75040 0.89530 0.28160 0.40600
H 	H 	0.56980 0.90260 0.28330 0.41300
H 	H 	0.89910 0.01890 0.24650 0.15800
H 	H 	0.82000 0.08980 0.27240 0.17600
H 	H 	0.80540 0.10290 0.23110 0.15300
Zn	Zn	0.43983 0.78394 0.85857 1.16900
O 	O 	0.37110 0.71802 0.81553 -0.52500
O 	O 	0.15686 0.68818 0.84498 -0.58400
N 	N 	0.46650 0.70111 0.90153 -0.30800
C 	C 	0.55870 0.53638 0.99498 -0.16300
H 	H 	0.65740 0.50600 0.99120 0.05900
H 	H 	0.57080 0.57850 0.01500 0.05900
C 	C 	0.57450 0.72362 0.92542 0.07500
H 	H 	0.63180 0.77730 0.92160 -0.05400
C 	C 	0.52090 0.59270 0.96218 0.12400
C 	C 	0.38470 0.62424 0.90796 0.08800
H 	H 	0.30940 0.60680 0.89160 -0.04000
C 	C 	0.40690 0.56961 0.93773 -0.20300
H 	H 	0.34570 0.51750 0.94140 0.07700
C 	C 	0.60550 0.67222 0.95513 -0.20800
H 	H 	0.68350 0.69060 0.97070 0.08000
C 	C 	0.16560 0.65620 0.78193 -0.33000
C 	C 	0.23360 0.68951 0.81630 0.44400
C 	C 	0.03820 0.59746 0.78181 0.31200
H 	H 	0.99450 0.57940 0.80340 -0.14800
C 	C 	0.83560 0.43730 0.71728 -1.43100
H 	H 	0.82770 0.47470 0.69620 0.42000
H 	H 	0.74960 0.39530 0.71840 0.41100
H 	H 	0.93020 0.40260 0.71670 0.41800
H 	H 	0.60090 0.51890 0.75350 0.16000
H 	H 	0.68000 0.58980 0.72760 0.17800
H 	H 	0.69460 0.60290 0.76890 0.15500
Zn	Zn	0.93983 0.71606 0.64143 1.16900
O 	O 	0.87110 0.78198 0.68447 -0.52400
O 	O 	0.65686 0.81182 0.65502 -0.58400
N 	N 	0.96650 0.79889 0.59847 -0.30800
C 	C 	0.05870 0.96362 0.50502 -0.16400
H 	H 	0.15740 0.99400 0.50880 0.05900
H 	H 	0.07080 0.92150 0.48500 0.05900
C 	C 	0.07450 0.77638 0.57458 0.07600
H 	H 	0.13180 0.72270 0.57840 -0.05400
C 	C 	0.02090 0.90730 0.53782 0.12500
C 	C 	0.88470 0.87576 0.59204 0.08900
H 	H 	0.80940 0.89320 0.60840 -0.04000
C 	C 	0.90690 0.93039 0.56227 -0.20400
H 	H 	0.84570 0.98250 0.55860 0.07700
C 	C 	0.10550 0.82778 0.54487 -0.20800
H 	H 	0.18350 0.80940 0.52930 0.08000
C 	C 	0.66560 0.84380 0.71807 -0.32700
C 	C 	0.73360 0.81049 0.68370 0.44300
C 	C 	0.53820 0.90254 0.71819 0.30800
H 	H 	0.49450 0.92060 0.69660 -0.14600
C 	C 	0.33560 0.06270 0.78272 -1.41300
H 	H 	0.32770 0.02530 0.80380 0.41300
H 	H 	0.24960 0.10470 0.78160 0.40600
H 	H 	0.43020 0.09740 0.78330 0.41300
H 	H 	0.10090 0.98110 0.74650 0.15800
H 	H 	0.18000 0.91020 0.77240 0.17600
H 	H 	0.19460 0.89710 0.73110 0.15300
Zn	Zn	0.56017 0.21606 0.35857 1.16900
O 	O 	0.62890 0.28198 0.31553 -0.52500
O 	O 	0.84314 0.31182 0.34498 -0.58400
N 	N 	0.53350 0.29889 0.40153 -0.30800
C 	C 	0.44130 0.46362 0.49498 -0.16300
H 	H 	0.34260 0.49400 0.49120 0.05900
H 	H 	0.42920 0.42150 0.51500 0.05900
C 	C 	0.42550 0.27638 0.42542 0.07500
H 	H 	0.36820 0.22270 0.42160 -0.05400
C 	C 	0.47910 0.40730 0.46218 0.12400
C 	C 	0.61530 0.37576 0.40796 0.08800
H 	H 	0.69060 0.39320 0.39160 -0.04000
C 	C 	0.59310 0.43039 0.43773 -0.20300
H 	H 	0.65430 0.48250 0.44140 0.07700
C 	C 	0.39450 0.32778 0.45513 -0.20800
H 	H 	0.31650 0.30940 0.47070 0.08000
C 	C 	0.83440 0.34380 0.28193 -0.33000
C 	C 	0.76640 0.31049 0.31630 0.44400
C 	C 	0.96180 0.40254 0.28181 0.31200
H 	H 	0.00550 0.42060 0.30340 -0.14800
C 	C 	0.16440 0.56270 0.21728 -1.43100
H 	H 	0.17230 0.52530 0.19620 0.42000
H 	H 	0.25040 0.60470 0.21840 0.41100
H 	H 	0.06980 0.59740 0.21670 0.41800
H 	H 	0.39910 0.48110 0.25350 0.16000
H 	H 	0.32000 0.41020 0.22760 0.17800
H 	H 	0.30540 0.39710 0.26890 0.15500
Zn	Zn	0.93983 0.71606 0.85857 1.16900
O 	O 	0.87110 0.78198 0.81553 -0.52400
O 	O 	0.65686 0.81182 0.84498 -0.58400
N 	N 	0.96650 0.79889 0.90153 -0.30800
C 	C 	0.05870 0.96362 0.99498 -0.16300
H 	H 	0.15740 0.99400 0.99120 0.05900
H 	H 	0.07080 0.92150 0.01500 0.05800
C 	C 	0.07450 0.77638 0.92542 0.07600
H 	H 	0.13180 0.72270 0.92160 -0.05400
C 	C 	0.02090 0.90730 0.96218 0.12500
C 	C 	0.88470 0.87576 0.90796 0.08900
H 	H 	0.80940 0.89320 0.89160 -0.04000
C 	C 	0.90690 0.93039 0.93773 -0.20400
H 	H 	0.84570 0.98250 0.94140 0.07700
C 	C 	0.10550 0.82778 0.95513 -0.20800
H 	H 	0.18350 0.80940 0.97070 0.08000
C 	C 	0.66560 0.84380 0.78193 -0.32700
C 	C 	0.73360 0.81049 0.81630 0.44300
C 	C 	0.53820 0.90254 0.78181 0.30800
H 	H 	0.49450 0.92060 0.80340 -0.14600
C 	C 	0.33560 0.06270 0.71728 -1.41300
H 	H 	0.32770 0.02530 0.69620 0.41300
H 	H 	0.24960 0.10470 0.71840 0.40600
H 	H 	0.43020 0.09740 0.71670 0.41300
H 	H 	0.10090 0.98110 0.75350 0.15800
H 	H 	0.18000 0.91020 0.72760 0.17600
H 	H 	0.19460 0.89710 0.76890 0.15300
Zn	Zn	0.56017 0.21606 0.14143 1.16900
O 	O 	0.62890 0.28198 0.18447 -0.52500
O 	O 	0.84314 0.31182 0.15502 -0.58400
N 	N 	0.53350 0.29889 0.09847 -0.30800
C 	C 	0.44130 0.46362 0.00502 -0.16300
H 	H 	0.34260 0.49400 0.00880 0.05900
H 	H 	0.42920 0.42150 0.98500 0.05900
C 	C 	0.42550 0.27638 0.07458 0.07500
H 	H 	0.36820 0.22270 0.07840 -0.05400
C 	C 	0.47910 0.40730 0.03782 0.12400
C 	C 	0.61530 0.37576 0.09204 0.08800
H 	H 	0.69060 0.39320 0.10840 -0.04000
C 	C 	0.59310 0.43039 0.06227 -0.20300
H 	H 	0.65430 0.48250 0.05860 0.07700
C 	C 	0.39450 0.32778 0.04487 -0.20800
H 	H 	0.31650 0.30940 0.02930 0.08000
C 	C 	0.83440 0.34380 0.21807 -0.33000
C 	C 	0.76640 0.31049 0.18370 0.44400
C 	C 	0.96180 0.40254 0.21819 0.31200
H 	H 	0.00550 0.42060 0.19660 -0.14800
C 	C 	0.16440 0.56270 0.28272 -1.43100
H 	H 	0.17230 0.52530 0.30380 0.42000
H 	H 	0.25040 0.60470 0.28160 0.41100
H 	H 	0.06980 0.59740 0.28330 0.41800
H 	H 	0.39910 0.48110 0.24650 0.16000
H 	H 	0.32000 0.41020 0.27240 0.17800
H 	H 	0.30540 0.39710 0.23110 0.15500
Zn	Zn	0.06017 0.28394 0.35857 1.16900
O 	O 	0.12890 0.21802 0.31553 -0.52400
O 	O 	0.34314 0.18818 0.34498 -0.58400
N 	N 	0.03350 0.20111 0.40153 -0.30800
C 	C 	0.94130 0.03638 0.49498 -0.16400
H 	H 	0.84260 0.00600 0.49120 0.05900
H 	H 	0.92920 0.07850 0.51500 0.05900
C 	C 	0.92550 0.22362 0.42542 0.07600
H 	H 	0.86820 0.27730 0.42160 -0.05400
C 	C 	0.97910 0.09270 0.46218 0.12500
C 	C 	0.11530 0.12424 0.40796 0.08900
H 	H 	0.19060 0.10680 0.39160 -0.04000
C 	C 	0.09310 0.06961 0.43773 -0.20400
H 	H 	0.15430 0.01750 0.44140 0.07700
C 	C 	0.89450 0.17222 0.45513 -0.20800
H 	H 	0.81650 0.19060 0.47070 0.08000
C 	C 	0.33440 0.15620 0.28193 -0.32700
C 	C 	0.26640 0.18951 0.31630 0.44300
C 	C 	0.46180 0.09746 0.28181 0.30800
H 	H 	0.50550 0.07940 0.30340 -0.14600
C 	C 	0.66440 0.93730 0.21728 -1.41300
H 	H 	0.67230 0.97470 0.19620 0.41300
H 	H 	0.75040 0.89530 0.21840 0.40600
H 	H 	0.56980 0.90260 0.21670 0.41300
H 	H 	0.89910 0.01890 0.25350 0.15800
H 	H 	0.82000 0.08980 0.22760 0.17600
H 	H 	0.80540 0.10290 0.26890 0.15300
Zn	Zn	0.43983 0.78394 0.64143 1.16900
O 	O 	0.37110 0.71802 0.68447 -0.52500
O 	O 	0.15686 0.68818 0.65502 -0.58400
N 	N 	0.46650 0.70111 0.59847 -0.30800
C 	C 	0.55870 0.53638 0.50502 -0.16300
H 	H 	0.65740 0.50600 0.50880 0.05900
H 	H 	0.57080 0.57850 0.48500 0.05900
C 	C 	0.57450 0.72362 0.57458 0.07500
H 	H 	0.63180 0.77730 0.57840 -0.05400
C 	C 	0.52090 0.59270 0.53782 0.12400
C 	C 	0.38470 0.62424 0.59204 0.08800
H 	H 	0.30940 0.60680 0.60840 -0.04000
C 	C 	0.40690 0.56961 0.56227 -0.20300
H 	H 	0.34570 0.51750 0.55860 0.07700
C 	C 	0.60550 0.67222 0.54487 -0.20800
H 	H 	0.68350 0.69060 0.52930 0.08000
C 	C 	0.16560 0.65620 0.71807 -0.33000
C 	C 	0.23360 0.68951 0.68370 0.44400
C 	C 	0.03820 0.59746 0.71819 0.31200
H 	H 	0.99450 0.57940 0.69660 -0.14800
C 	C 	0.83560 0.43730 0.78272 -1.43100
H 	H 	0.82770 0.47470 0.80380 0.42000
H 	H 	0.74960 0.39530 0.78160 0.41100
H 	H 	0.93020 0.40260 0.78330 0.41800
H 	H 	0.60090 0.51890 0.74650 0.16000
H 	H 	0.68000 0.58980 0.77240 0.17800
H 	H 	0.69460 0.60290 0.73110 0.15500
C 	C 	0.26720 0.18380 0.25000 0.22600
H 	H 	0.17850 0.22020 0.25000 -0.03400
C 	C 	0.52540 0.06510 0.25000 -0.48600
C 	C 	0.66550 0.99970 0.25000 0.97600
C 	C 	0.81080 0.05820 0.25000 -1.14600
C 	C 	0.23280 0.68380 0.75000 0.22800
H 	H 	0.32150 0.72020 0.75000 -0.03500
C 	C 	0.97460 0.56510 0.75000 -0.49500
C 	C 	0.83450 0.49970 0.75000 0.99300
C 	C 	0.68920 0.55820 0.75000 -1.16200
C 	C 	0.73280 0.81620 0.75000 0.22600
H 	H 	0.82150 0.77980 0.75000 -0.03400
C 	C 	0.47460 0.93490 0.75000 -0.48600
C 	C 	0.33450 0.00030 0.75000 0.97600
C 	C 	0.18920 0.94180 0.75000 -1.14600
C 	C 	0.76720 0.31620 0.25000 0.22800
H 	H 	0.67850 0.27980 0.25000 -0.03500
C 	C 	0.02540 0.43490 0.25000 -0.49500
C 	C 	0.16550 0.50030 0.25000 0.99300
C 	C 	0.31080 0.44180 0.25000 -1.16200
