data_crystal

_cell_length_a 13.72500
_cell_length_b 14.07400
_cell_length_c 14.18700
_cell_angle_alpha 114.15000
_cell_angle_beta  114.20000
_cell_angle_gamma 98.24000

_symmetry_space_group_name_	'P 1'
_symmetry_space_group_name_H-M	'P 1'

loop_
_symmetry_equiv_pos_as_xyz
  x,y,z

loop_
_atom_site_label
_atom_site_type_symbol
_atom_site_fract_x
_atom_site_fract_y
_atom_site_fract_z
_atom_site_charge
Li	Li	0.18280 0.92590 0.85280 0.54400
Li	Li	0.91690 0.93800 0.50300 0.55300
Li	Li	0.96440 0.56670 0.45710 0.55900
Li	Li	0.08210 0.82550 0.59990 0.55600
Si	Si	0.32817 0.56007 0.09972 0.74700
O 	O 	0.16164 0.98305 0.74869 -0.46600
O 	O 	0.07863 0.03280 0.61576 -0.47100
O 	O 	0.91537 0.80409 0.50727 -0.44000
O 	O 	0.86907 0.64076 0.49754 -0.36100
O 	O 	0.14617 0.80051 0.49402 -0.34400
O 	O 	0.01805 0.62396 0.38121 -0.36000
O 	O 	0.09506 0.59376 0.60421 -0.42600
O 	O 	0.14772 0.77744 0.72450 -0.45100
C 	C 	0.26840 0.40377 0.99523 -0.24100
C 	C 	0.32397 0.33276 0.01843 0.04200
H 	H 	0.39320 0.36310 0.09360 -0.00000
C 	C 	0.27939 0.21876 0.93328 -0.04900
H 	H 	0.31640 0.17130 0.95160 0.02300
C 	C 	0.18045 0.17428 0.82117 -0.09900
C 	C 	0.12383 0.24329 0.79693 -0.05000
H 	H 	0.05560 0.21290 0.72100 0.04500
C 	C 	0.16660 0.35580 0.88305 0.04500
H 	H 	0.12620 0.40170 0.86600 0.00800
C 	C 	0.13762 0.05468 0.72255 0.37700
C 	C 	0.48492 0.60959 0.20959 -0.26500
C 	C 	0.57021 0.68177 0.21484 0.07200
H 	H 	0.54930 0.70680 0.15910 -0.00800
C 	C 	0.68628 0.71797 0.30091 -0.08400
H 	H 	0.74320 0.77000 0.30580 0.04500
C 	C 	0.71876 0.67817 0.37932 -0.05200
C 	C 	0.63498 0.60416 0.37373 -0.08100
H 	H 	0.65680 0.57480 0.42550 0.06200
C 	C 	0.51963 0.57314 0.29269 0.06700
H 	H 	0.46280 0.52630 0.29310 -0.01000
C 	C 	0.84402 0.71003 0.46765 0.33300
C 	C 	0.25693 0.60115 0.18970 -0.26700
C 	C 	0.31663 0.69995 0.30388 0.07600
H 	H 	0.39300 0.74530 0.33460 -0.01200
C 	C 	0.26616 0.73248 0.37241 -0.09400
H 	H 	0.30760 0.80070 0.44850 0.06400
C 	C 	0.15530 0.66642 0.33125 -0.02200
C 	C 	0.09525 0.56768 0.21852 -0.09600
H 	H 	0.01990 0.52130 0.18940 0.06800
C 	C 	0.14504 0.53662 0.14845 0.08000
H 	H 	0.10210 0.47010 0.07090 -0.01300
C 	C 	0.10194 0.69919 0.40781 0.31100
C 	C 	0.29549 0.61875 0.99817 -0.24600
C 	C 	0.31226 0.57423 0.90013 0.05300
H 	H 	0.35630 0.52800 0.89700 0.00200
C 	C 	0.26603 0.59625 0.80770 -0.05800
H 	H 	0.27560 0.56250 0.74050 0.05200
C 	C 	0.20551 0.66790 0.81335 -0.08900
C 	C 	0.19430 0.71869 0.91346 -0.05000
H 	H 	0.15770 0.77150 0.92060 0.00900
C 	C 	0.23658 0.69241 0.00329 0.04100
H 	H 	0.22520 0.72510 0.06940 -0.00300
C 	C 	0.14519 0.68146 0.70626 0.37500
Li	Li	0.81720 0.07410 0.14720 0.54300
Li	Li	0.08310 0.06200 0.49700 0.55200
Li	Li	0.03560 0.43330 0.54290 0.55900
Li	Li	0.91790 0.17450 0.40010 0.55600
Si	Si	0.67183 0.43993 0.90028 0.74700
O 	O 	0.83836 0.01695 0.25131 -0.46600
O 	O 	0.92137 0.96720 0.38424 -0.47100
O 	O 	0.08463 0.19591 0.49273 -0.44000
O 	O 	0.13093 0.35924 0.50246 -0.36100
O 	O 	0.85383 0.19949 0.50598 -0.34400
O 	O 	0.98195 0.37604 0.61879 -0.36000
O 	O 	0.90494 0.40624 0.39579 -0.42600
O 	O 	0.85228 0.22256 0.27550 -0.45100
C 	C 	0.73160 0.59623 0.00477 -0.24100
C 	C 	0.67603 0.66724 0.98157 0.04200
H 	H 	0.60680 0.63690 0.90640 -0.00000
C 	C 	0.72061 0.78124 0.06672 -0.04900
H 	H 	0.68360 0.82870 0.04840 0.02300
C 	C 	0.81955 0.82572 0.17883 -0.09900
C 	C 	0.87617 0.75671 0.20307 -0.05000
H 	H 	0.94440 0.78710 0.27900 0.04500
C 	C 	0.83340 0.64420 0.11695 0.04500
H 	H 	0.87380 0.59830 0.13400 0.00800
C 	C 	0.86238 0.94532 0.27745 0.37700
C 	C 	0.51508 0.39041 0.79041 -0.26500
C 	C 	0.42979 0.31823 0.78516 0.07200
H 	H 	0.45070 0.29320 0.84090 -0.00800
C 	C 	0.31372 0.28203 0.69909 -0.08400
H 	H 	0.25680 0.23000 0.69420 0.04500
C 	C 	0.28124 0.32183 0.62068 -0.05200
C 	C 	0.36502 0.39584 0.62627 -0.08100
H 	H 	0.34320 0.42520 0.57450 0.06200
C 	C 	0.48037 0.42686 0.70731 0.06700
H 	H 	0.53720 0.47370 0.70690 -0.01000
C 	C 	0.15598 0.28997 0.53235 0.33300
C 	C 	0.74307 0.39885 0.81030 -0.26700
C 	C 	0.68337 0.30005 0.69612 0.07600
H 	H 	0.60700 0.25470 0.66540 -0.01200
C 	C 	0.73384 0.26752 0.62759 -0.09400
H 	H 	0.69240 0.19930 0.55150 0.06400
C 	C 	0.84470 0.33358 0.66875 -0.02200
C 	C 	0.90475 0.43232 0.78148 -0.09600
H 	H 	0.98010 0.47870 0.81060 0.06800
C 	C 	0.85496 0.46338 0.85155 0.08000
H 	H 	0.89790 0.52990 0.92910 -0.01300
C 	C 	0.89806 0.30081 0.59219 0.31100
C 	C 	0.70451 0.38125 0.00183 -0.24600
C 	C 	0.68774 0.42577 0.09987 0.05300
H 	H 	0.64370 0.47200 0.10300 0.00200
C 	C 	0.73397 0.40375 0.19230 -0.05800
H 	H 	0.72440 0.43750 0.25950 0.05200
C 	C 	0.79449 0.33210 0.18665 -0.08900
C 	C 	0.80570 0.28131 0.08654 -0.05000
H 	H 	0.84230 0.22850 0.07940 0.00900
C 	C 	0.76342 0.30759 0.99671 0.04100
H 	H 	0.77480 0.27490 0.93060 -0.00300
C 	C 	0.85481 0.31854 0.29374 0.37500
