data_crystal

_cell_length_a 11.19180
_cell_length_b 11.19180
_cell_length_c 31.56100
_cell_angle_alpha 90.00000
_cell_angle_beta  90.00000
_cell_angle_gamma 90.00000

_symmetry_space_group_name_	'P 1'
_symmetry_space_group_name_H-M	'P 1'

loop_
_symmetry_equiv_pos_as_xyz
  x,y,z

loop_
_atom_site_label
_atom_site_type_symbol
_atom_site_fract_x
_atom_site_fract_y
_atom_site_fract_z
_atom_site_charge
O 	O 	0.09362 0.71579 0.17613 -0.24100
O 	O 	0.24233 0.82061 0.20618 -0.37700
O 	O 	0.85711 0.06167 0.04810 -0.21600
O 	O 	0.91525 0.87059 0.04521 -0.37100
O 	O 	0.28920 0.23950 0.16936 -0.17900
O 	O 	0.18000 0.32798 0.11923 -0.20500
C 	C 	0.04640 0.89850 0.11942 0.01000
H 	H 	0.01190 0.82410 0.11470 0.07200
C 	C 	0.01350 0.99500 0.09400 -0.04500
C 	C 	0.06460 0.10680 0.10104 0.00200
H 	H 	0.04120 0.17230 0.08490 0.07600
C 	C 	0.15160 0.11990 0.13271 -0.04300
C 	C 	0.18320 0.02230 0.15775 0.00800
H 	H 	0.24070 0.03150 0.17880 0.07300
C 	C 	0.13010 0.91190 0.15172 -0.05600
C 	C 	0.92230 0.97510 0.05977 0.31200
C 	C 	0.20700 0.24090 0.13934 0.28600
C 	C 	0.15800 0.80710 0.18004 0.32500
O 	O 	0.90638 0.28421 0.67613 -0.24200
O 	O 	0.75767 0.17939 0.70618 -0.37700
O 	O 	0.14289 0.93833 0.54810 -0.21200
O 	O 	0.08475 0.12941 0.54521 -0.36700
O 	O 	0.71080 0.76050 0.66936 -0.17800
O 	O 	0.82000 0.67202 0.61923 -0.20300
C 	C 	0.95360 0.10150 0.61942 0.00900
H 	H 	0.98810 0.17590 0.61470 0.07300
C 	C 	0.98650 0.00500 0.59400 -0.04200
C 	C 	0.93540 0.89320 0.60104 0.00100
H 	H 	0.95880 0.82770 0.58490 0.07800
C 	C 	0.84840 0.88010 0.63271 -0.04100
C 	C 	0.81680 0.97770 0.65775 0.00700
H 	H 	0.75930 0.96850 0.67880 0.07400
C 	C 	0.86990 0.08810 0.65172 -0.05400
C 	C 	0.07770 0.02490 0.55977 0.31200
C 	C 	0.79300 0.75910 0.63934 0.28500
C 	C 	0.84200 0.19290 0.68004 0.32500
O 	O 	0.78421 0.59362 0.92613 -0.23800
O 	O 	0.67939 0.74233 0.95618 -0.37000
O 	O 	0.43833 0.35711 0.79810 -0.21700
O 	O 	0.62941 0.41525 0.79521 -0.36800
O 	O 	0.26050 0.78920 0.91936 -0.17600
O 	O 	0.17202 0.68000 0.86923 -0.20200
C 	C 	0.60150 0.54640 0.86942 0.01400
H 	H 	0.67590 0.51190 0.86470 0.07100
C 	C 	0.50500 0.51350 0.84400 -0.05100
C 	C 	0.39320 0.56460 0.85104 0.00800
H 	H 	0.32770 0.54120 0.83490 0.07600
C 	C 	0.38010 0.65160 0.88271 -0.04400
C 	C 	0.47770 0.68320 0.90775 0.01200
H 	H 	0.46850 0.74070 0.92880 0.07500
C 	C 	0.58810 0.63010 0.90172 -0.05700
C 	C 	0.52490 0.42230 0.80977 0.32100
C 	C 	0.25910 0.70700 0.88934 0.28700
C 	C 	0.69290 0.65800 0.93004 0.32500
O 	O 	0.21579 0.40638 0.42613 -0.24200
O 	O 	0.32061 0.25767 0.45618 -0.37800
O 	O 	0.56167 0.64289 0.29810 -0.21700
O 	O 	0.37059 0.58475 0.29521 -0.36800
O 	O 	0.73950 0.21080 0.41936 -0.17900
O 	O 	0.82798 0.32000 0.36923 -0.20300
C 	C 	0.39850 0.45360 0.36942 0.01500
H 	H 	0.32410 0.48810 0.36470 0.07000
C 	C 	0.49500 0.48650 0.34400 -0.05200
C 	C 	0.60680 0.43540 0.35104 0.00900
H 	H 	0.67230 0.45880 0.33490 0.07600
C 	C 	0.61990 0.34840 0.38271 -0.04600
C 	C 	0.52230 0.31680 0.40775 0.01300
H 	H 	0.53150 0.25930 0.42880 0.07200
C 	C 	0.41190 0.36990 0.40172 -0.05900
C 	C 	0.47510 0.57770 0.30977 0.32200
C 	C 	0.74090 0.29300 0.38934 0.28700
C 	C 	0.30710 0.34200 0.43004 0.32600
O 	O 	0.40638 0.21579 0.57387 -0.24200
O 	O 	0.25767 0.32061 0.54382 -0.37800
O 	O 	0.64289 0.56167 0.70190 -0.21700
O 	O 	0.58475 0.37059 0.70479 -0.36800
O 	O 	0.21080 0.73950 0.58064 -0.17900
O 	O 	0.32000 0.82798 0.63077 -0.20300
C 	C 	0.45360 0.39850 0.63058 0.01500
H 	H 	0.48810 0.32410 0.63530 0.07000
C 	C 	0.48650 0.49500 0.65600 -0.05300
C 	C 	0.43540 0.60680 0.64896 0.00900
H 	H 	0.45880 0.67230 0.66510 0.07600
C 	C 	0.34840 0.61990 0.61729 -0.04600
C 	C 	0.31680 0.52230 0.59225 0.01300
H 	H 	0.25930 0.53150 0.57120 0.07200
C 	C 	0.36990 0.41190 0.59828 -0.05900
C 	C 	0.57770 0.47510 0.69023 0.32200
C 	C 	0.29300 0.74090 0.61066 0.28700
C 	C 	0.34200 0.30710 0.56996 0.32600
O 	O 	0.59362 0.78421 0.07387 -0.24600
O 	O 	0.74233 0.67939 0.04382 -0.38200
O 	O 	0.35711 0.43833 0.20190 -0.21700
O 	O 	0.41525 0.62941 0.20479 -0.36800
O 	O 	0.78920 0.26050 0.08064 -0.18100
O 	O 	0.68000 0.17202 0.13077 -0.20400
C 	C 	0.54640 0.60150 0.13058 0.01600
H 	H 	0.51190 0.67590 0.13530 0.06900
C 	C 	0.51350 0.50500 0.15600 -0.05400
C 	C 	0.56460 0.39320 0.14896 0.01000
H 	H 	0.54120 0.32770 0.16510 0.07600
C 	C 	0.65160 0.38010 0.11729 -0.04700
C 	C 	0.68320 0.47770 0.09225 0.01400
H 	H 	0.74070 0.46850 0.07120 0.07000
C 	C 	0.63010 0.58810 0.09828 -0.06200
C 	C 	0.42230 0.52490 0.19023 0.32200
C 	C 	0.70700 0.25910 0.11066 0.28700
C 	C 	0.65800 0.69290 0.06996 0.32700
O 	O 	0.71579 0.09362 0.82387 -0.24100
O 	O 	0.82061 0.24233 0.79382 -0.37700
O 	O 	0.06167 0.85711 0.95190 -0.20800
O 	O 	0.87059 0.91525 0.95479 -0.36000
O 	O 	0.23950 0.28920 0.83064 -0.17800
O 	O 	0.32798 0.18000 0.88077 -0.20100
C 	C 	0.89850 0.04640 0.88058 0.00800
H 	H 	0.82410 0.01190 0.88530 0.07400
C 	C 	0.99500 0.01350 0.90600 -0.04000
C 	C 	0.10680 0.06460 0.89896 -0.00000
H 	H 	0.17230 0.04120 0.91510 0.08000
C 	C 	0.11990 0.15160 0.86729 -0.03900
C 	C 	0.02230 0.18320 0.84225 0.00600
H 	H 	0.03150 0.24070 0.82120 0.07400
C 	C 	0.91190 0.13010 0.84828 -0.05200
C 	C 	0.97510 0.92230 0.94023 0.31200
C 	C 	0.24090 0.20700 0.86066 0.28500
C 	C 	0.80710 0.15800 0.81996 0.32500
O 	O 	0.28421 0.90638 0.32387 -0.24200
O 	O 	0.17939 0.75767 0.29382 -0.37700
O 	O 	0.93833 0.14289 0.45190 -0.21200
O 	O 	0.12941 0.08475 0.45479 -0.36700
O 	O 	0.76050 0.71080 0.33064 -0.17800
O 	O 	0.67202 0.82000 0.38077 -0.20300
C 	C 	0.10150 0.95360 0.38058 0.01000
H 	H 	0.17590 0.98810 0.38530 0.07300
C 	C 	0.00500 0.98650 0.40600 -0.04300
C 	C 	0.89320 0.93540 0.39896 0.00100
H 	H 	0.82770 0.95880 0.41510 0.07800
C 	C 	0.88010 0.84840 0.36729 -0.04100
C 	C 	0.97770 0.81680 0.34225 0.00700
H 	H 	0.96850 0.75930 0.32120 0.07400
C 	C 	0.08810 0.86990 0.34828 -0.05400
C 	C 	0.02490 0.07770 0.44023 0.31200
C 	C 	0.75910 0.79300 0.36066 0.28600
C 	C 	0.19290 0.84200 0.31996 0.32500
Ni	Ni	0.80066 0.80066 -0.00000 1.09900
Ni	Ni	0.19934 0.19934 0.50000 1.10600
Ni	Ni	0.69934 0.30066 0.75000 1.10600
Ni	Ni	0.30066 0.69934 0.25000 1.10600
