data_crystal

_cell_length_a 12.91450
_cell_length_b 12.91450
_cell_length_c 9.84820
_cell_angle_alpha 90.00000
_cell_angle_beta  90.00000
_cell_angle_gamma 90.00000

_symmetry_space_group_name_	'P 1'
_symmetry_space_group_name_H-M	'P 1'

loop_
_symmetry_equiv_pos_as_xyz
  x,y,z

loop_
_atom_site_label
_atom_site_type_symbol
_atom_site_fract_x
_atom_site_fract_y
_atom_site_fract_z
_atom_site_charge
O 	O 	0.25490 0.10950 0.25050 -0.31900
O 	O 	0.38830 0.11110 0.06990 -0.08500
F 	F 	0.10460 0.73630 0.28020 -0.34800
P 	P 	0.07235 0.82414 0.18370 0.62400
O 	O 	0.13810 0.91830 0.21410 -0.42200
O 	O 	0.08570 0.78940 0.03690 -0.40900
O 	O 	0.95720 0.84570 0.21460 -0.40800
Co	Co	0.13619 0.05480 0.13118 1.13900
O 	O 	0.74510 0.89050 0.25050 -0.32000
O 	O 	0.61170 0.88890 0.06990 -0.08600
F 	F 	0.89540 0.26370 0.28020 -0.34900
P 	P 	0.92765 0.17586 0.18370 0.62300
O 	O 	0.86190 0.08170 0.21410 -0.42200
O 	O 	0.91430 0.21060 0.03690 -0.40900
O 	O 	0.04280 0.15430 0.21460 -0.40800
Co	Co	0.86381 0.94520 0.13118 1.13900
O 	O 	0.10950 0.74510 0.74950 -0.32000
O 	O 	0.11110 0.61170 0.93010 -0.08600
F 	F 	0.73630 0.89540 0.71980 -0.34900
P 	P 	0.82414 0.92765 0.81630 0.62300
O 	O 	0.91830 0.86190 0.78590 -0.42200
O 	O 	0.78940 0.91430 0.96310 -0.40900
O 	O 	0.84570 0.04280 0.78540 -0.40800
Co	Co	0.05480 0.86381 0.86882 1.13900
O 	O 	0.89050 0.25490 0.74950 -0.32000
O 	O 	0.88890 0.38830 0.93010 -0.08600
F 	F 	0.26370 0.10460 0.71980 -0.34900
P 	P 	0.17586 0.07235 0.81630 0.62300
O 	O 	0.08170 0.13810 0.78590 -0.42200
O 	O 	0.21060 0.08570 0.96310 -0.40900
O 	O 	0.15430 0.95720 0.78540 -0.40800
Co	Co	0.94520 0.13619 0.86882 1.13900
O 	O 	0.75490 0.39050 0.75050 -0.32000
O 	O 	0.88830 0.38890 0.56990 -0.08600
F 	F 	0.60460 0.76370 0.78020 -0.34900
P 	P 	0.57235 0.67586 0.68370 0.62300
O 	O 	0.63810 0.58170 0.71410 -0.42200
O 	O 	0.58570 0.71060 0.53690 -0.40900
O 	O 	0.45720 0.65430 0.71460 -0.40800
Co	Co	0.63619 0.44520 0.63118 1.13900
O 	O 	0.24510 0.60950 0.75050 -0.32000
O 	O 	0.11170 0.61110 0.56990 -0.08600
F 	F 	0.39540 0.23630 0.78020 -0.34900
P 	P 	0.42765 0.32414 0.68370 0.62300
O 	O 	0.36190 0.41830 0.71410 -0.42200
O 	O 	0.41430 0.28940 0.53690 -0.40900
O 	O 	0.54280 0.34570 0.71460 -0.40800
Co	Co	0.36381 0.55480 0.63118 1.13900
O 	O 	0.60950 0.75490 0.24950 -0.32000
O 	O 	0.61110 0.88830 0.43010 -0.08600
F 	F 	0.23630 0.60460 0.21980 -0.34900
P 	P 	0.32414 0.57235 0.31630 0.62300
O 	O 	0.41830 0.63810 0.28590 -0.42200
O 	O 	0.28940 0.58570 0.46310 -0.40900
O 	O 	0.34570 0.45720 0.28540 -0.40800
Co	Co	0.55480 0.63619 0.36882 1.13900
O 	O 	0.39050 0.24510 0.24950 -0.32000
O 	O 	0.38890 0.11170 0.43010 -0.08600
F 	F 	0.76370 0.39540 0.21980 -0.34900
P 	P 	0.67586 0.42765 0.31630 0.62300
O 	O 	0.58170 0.36190 0.28590 -0.42200
O 	O 	0.71060 0.41430 0.46310 -0.40900
O 	O 	0.65430 0.54280 0.28540 -0.40800
Co	Co	0.44520 0.36381 0.36882 1.13900
P 	P 	0.36520 0.13480 0.25000 0.46300
P 	P 	0.63480 0.86520 0.25000 0.46300
P 	P 	0.13480 0.63480 0.75000 0.46300
P 	P 	0.86520 0.36520 0.75000 0.46300
