data_crystal

_cell_length_a 14.87370
_cell_length_b 9.68150
_cell_length_c 13.63540
_cell_angle_alpha 90.00000
_cell_angle_beta  90.00000
_cell_angle_gamma 90.00000

_symmetry_space_group_name_	'P 1'
_symmetry_space_group_name_H-M	'P 1'

loop_
_symmetry_equiv_pos_as_xyz
  x,y,z

loop_
_atom_site_label
_atom_site_type_symbol
_atom_site_fract_x
_atom_site_fract_y
_atom_site_fract_z
_atom_site_charge
O 	O 	0.10700 0.35330 0.65700 -0.43500
O 	O 	0.08550 0.19600 0.36860 -0.41600
O 	O 	0.60700 0.85330 0.65700 -0.41700
O 	O 	0.58550 0.69600 0.36860 -0.40900
O 	O 	0.89300 0.64670 0.15700 -0.34600
O 	O 	0.91450 0.80400 0.86860 -0.30500
O 	O 	0.39300 0.14670 0.15700 -0.42200
O 	O 	0.41450 0.30400 0.86860 -0.41200
O 	O 	0.89300 0.35330 0.84300 -0.34600
O 	O 	0.91450 0.19600 0.13140 -0.30500
O 	O 	0.39300 0.85330 0.84300 -0.42200
O 	O 	0.41450 0.69600 0.13140 -0.41200
O 	O 	0.10700 0.64670 0.34300 -0.43500
O 	O 	0.08550 0.80400 0.63140 -0.41600
O 	O 	0.60700 0.14670 0.34300 -0.41700
O 	O 	0.58550 0.30400 0.63140 -0.40900
O 	O 	0.89300 0.64670 0.34300 -0.34500
O 	O 	0.91450 0.80400 0.63140 -0.30200
O 	O 	0.39300 0.14670 0.34300 -0.42100
O 	O 	0.41450 0.30400 0.63140 -0.41200
O 	O 	0.10700 0.35330 0.84300 -0.43500
O 	O 	0.08550 0.19600 0.13140 -0.41700
O 	O 	0.60700 0.85330 0.84300 -0.41900
O 	O 	0.58550 0.69600 0.13140 -0.40900
O 	O 	0.10700 0.64670 0.15700 -0.43500
O 	O 	0.08550 0.80400 0.86860 -0.41700
O 	O 	0.60700 0.14670 0.15700 -0.41900
O 	O 	0.58550 0.30400 0.86860 -0.40900
O 	O 	0.89300 0.35330 0.65700 -0.34500
O 	O 	0.91450 0.19600 0.36860 -0.30200
O 	O 	0.39300 0.85330 0.65700 -0.42100
O 	O 	0.41450 0.69600 0.36860 -0.41200
Co	Co	0.12968 0.70928 0.75000 1.12400
P 	P 	0.16173 0.38156 0.75000 0.52000
O 	O 	0.19400 0.53290 0.75000 -0.43900
O 	O 	0.24300 0.28740 0.75000 -0.32700
Co	Co	0.62968 0.20928 0.75000 1.13500
P 	P 	0.66173 0.88156 0.75000 0.52100
O 	O 	0.69400 0.03290 0.75000 -0.42600
O 	O 	0.74300 0.78740 0.75000 -0.32000
Co	Co	0.87032 0.29072 0.25000 1.15200
P 	P 	0.83827 0.61844 0.25000 0.52200
O 	O 	0.80600 0.46710 0.25000 -0.41900
O 	O 	0.75700 0.71260 0.25000 -0.31500
Co	Co	0.37032 0.79072 0.25000 1.13300
P 	P 	0.33827 0.11844 0.25000 0.52000
O 	O 	0.30600 0.96710 0.25000 -0.43700
O 	O 	0.25700 0.21260 0.25000 -0.32800
Co	Co	0.87032 0.70928 0.75000 1.15200
P 	P 	0.83827 0.38156 0.75000 0.52200
O 	O 	0.80600 0.53290 0.75000 -0.41900
O 	O 	0.75700 0.28740 0.75000 -0.31500
Co	Co	0.37032 0.20928 0.75000 1.13300
P 	P 	0.33827 0.88156 0.75000 0.52000
O 	O 	0.30600 0.03290 0.75000 -0.43700
O 	O 	0.25700 0.78740 0.75000 -0.32800
Co	Co	0.12968 0.29072 0.25000 1.12400
P 	P 	0.16173 0.61844 0.25000 0.52000
O 	O 	0.19400 0.46710 0.25000 -0.43900
O 	O 	0.24300 0.71260 0.25000 -0.32700
Co	Co	0.62968 0.79072 0.25000 1.13500
P 	P 	0.66173 0.11844 0.25000 0.52100
O 	O 	0.69400 0.96710 0.25000 -0.42600
O 	O 	0.74300 0.21260 0.25000 -0.32000
Co	Co	0.00000 0.44880 0.61241 1.08400
P 	P 	0.00000 0.22600 0.42674 0.50800
O 	O 	0.00000 0.37570 0.46490 -0.60000
F 	F 	0.00000 0.12960 0.51770 -0.41600
Co	Co	0.50000 0.94880 0.61241 1.12300
P 	P 	0.50000 0.72600 0.42674 0.61200
O 	O 	0.50000 0.87570 0.46490 -0.57300
F 	F 	0.50000 0.62960 0.51770 -0.38500
Co	Co	-0.00000 0.55120 0.11241 1.08400
P 	P 	0.00000 0.77400 0.92674 0.50600
O 	O 	-0.00000 0.62430 0.96490 -0.60100
F 	F 	0.00000 0.87040 0.01770 -0.41200
Co	Co	0.50000 0.05120 0.11241 1.12100
P 	P 	0.50000 0.27400 0.92674 0.61300
O 	O 	0.50000 0.12430 0.96490 -0.57100
F 	F 	0.50000 0.37040 0.01770 -0.38700
Co	Co	0.00000 0.44880 0.88759 1.08400
P 	P 	0.00000 0.22600 0.07326 0.50600
O 	O 	0.00000 0.37570 0.03510 -0.60100
F 	F 	0.00000 0.12960 0.98230 -0.41200
Co	Co	0.50000 0.94880 0.88759 1.12100
P 	P 	0.50000 0.72600 0.07326 0.61300
O 	O 	0.50000 0.87570 0.03510 -0.57100
F 	F 	0.50000 0.62960 0.98230 -0.38700
Co	Co	0.00000 0.55120 0.38759 1.08400
P 	P 	0.00000 0.77400 0.57326 0.50800
O 	O 	0.00000 0.62430 0.53510 -0.60000
F 	F 	0.00000 0.87040 0.48230 -0.41600
Co	Co	0.50000 0.05120 0.38759 1.12300
P 	P 	0.50000 0.27400 0.57326 0.61200
O 	O 	0.50000 0.12430 0.53510 -0.57300
F 	F 	0.50000 0.37040 0.48230 -0.38500
