data_crystal

_cell_length_a 16.41700
_cell_length_b 16.41700
_cell_length_c 6.59800
_cell_angle_alpha 90.00000
_cell_angle_beta  90.00000
_cell_angle_gamma 90.00000

_symmetry_space_group_name_	'P 1'
_symmetry_space_group_name_H-M	'P 1'

loop_
_symmetry_equiv_pos_as_xyz
  x,y,z

loop_
_atom_site_label
_atom_site_type_symbol
_atom_site_fract_x
_atom_site_fract_y
_atom_site_fract_z
_atom_site_charge
N 	N 	0.17140 0.68652 0.31940 -0.24900
C 	C 	0.19755 0.62857 0.19480 0.08900
H 	H 	0.25340 0.62050 0.18390 -0.02400
C 	C 	0.14710 0.57980 0.08070 -0.16900
H 	H 	0.16900 0.53930 0.99840 0.07900
C 	C 	0.06430 0.59110 0.08910 0.08700
C 	C 	0.03691 0.65070 0.21510 -0.17400
H 	H 	0.98130 0.66030 0.22680 0.07500
C 	C 	0.09081 0.69683 0.32500 0.08700
H 	H 	0.07000 0.73760 0.40810 -0.02800
C 	C 	0.99660 0.54320 0.97400 0.00300
H 	H 	0.94230 0.56420 0.00750 0.01300
C 	C 	0.01790 0.55830 0.74200 -0.08600
H 	H 	0.07180 0.53860 0.71470 0.03400
H 	H 	0.01520 0.61560 0.71360 0.06300
H 	H 	0.97940 0.52990 0.65860 0.08300
C 	C 	0.02500 0.53100 0.93000 -0.02900
H 	H 	0.06930 0.50030 0.86530 0.02300
C 	C 	0.97900 0.57000 0.77500 -0.16000
H 	H 	0.95480 0.53020 0.68830 0.00100
H 	H 	0.01480 0.60440 0.69570 0.01100
H 	H 	0.93740 0.60330 0.83500 0.06200
N 	N 	0.32860 0.81348 0.31940 -0.25000
C 	C 	0.30245 0.87143 0.19480 0.08900
H 	H 	0.24660 0.87950 0.18390 -0.02500
C 	C 	0.35290 0.92020 0.08070 -0.17100
H 	H 	0.33100 0.96070 0.99840 0.07900
C 	C 	0.43570 0.90890 0.08910 0.08600
C 	C 	0.46309 0.84930 0.21510 -0.17500
H 	H 	0.51870 0.83970 0.22680 0.07600
C 	C 	0.40919 0.80317 0.32500 0.08800
H 	H 	0.43000 0.76240 0.40810 -0.02800
C 	C 	0.50340 0.95680 0.97400 0.00400
H 	H 	0.55770 0.93580 0.00750 0.01200
C 	C 	0.48210 0.94170 0.74200 -0.08700
H 	H 	0.42820 0.96140 0.71470 0.03400
H 	H 	0.48480 0.88440 0.71360 0.06300
H 	H 	0.52060 0.97010 0.65860 0.08300
C 	C 	0.47500 0.96900 0.93000 -0.02900
H 	H 	0.43070 0.99970 0.86530 0.02300
C 	C 	0.52100 0.93000 0.77500 -0.15900
H 	H 	0.54520 0.96980 0.68830 0.00100
H 	H 	0.48520 0.89560 0.69570 0.01100
H 	H 	0.56260 0.89670 0.83500 0.06200
N 	N 	0.81348 0.17140 0.31940 -0.25000
C 	C 	0.87143 0.19755 0.19480 0.08900
H 	H 	0.87950 0.25340 0.18390 -0.02500
C 	C 	0.92020 0.14710 0.08070 -0.17000
H 	H 	0.96070 0.16900 0.99840 0.07800
C 	C 	0.90890 0.06430 0.08910 0.08600
C 	C 	0.84930 0.03691 0.21510 -0.17300
H 	H 	0.83970 0.98130 0.22680 0.07500
C 	C 	0.80317 0.09081 0.32500 0.08700
H 	H 	0.76240 0.07000 0.40810 -0.02700
C 	C 	0.95680 0.99660 0.97400 0.00500
H 	H 	0.93580 0.94230 0.00750 0.01100
C 	C 	0.94170 0.01790 0.74200 -0.08800
H 	H 	0.96140 0.07180 0.71470 0.03400
H 	H 	0.88440 0.01520 0.71360 0.06400
H 	H 	0.97010 0.97940 0.65860 0.08500
C 	C 	0.96900 0.02500 0.93000 -0.03100
H 	H 	0.99970 0.06930 0.86530 0.02400
C 	C 	0.93000 0.97900 0.77500 -0.15800
H 	H 	0.96980 0.95480 0.68830 -0.00100
H 	H 	0.89560 0.01480 0.69570 0.01100
H 	H 	0.89670 0.93740 0.83500 0.06200
N 	N 	0.68652 0.32860 0.31940 -0.25000
C 	C 	0.62857 0.30245 0.19480 0.08900
H 	H 	0.62050 0.24660 0.18390 -0.02500
C 	C 	0.57980 0.35290 0.08070 -0.17000
H 	H 	0.53930 0.33100 0.99840 0.07800
C 	C 	0.59110 0.43570 0.08910 0.08600
C 	C 	0.65070 0.46309 0.21510 -0.17500
H 	H 	0.66030 0.51870 0.22680 0.07600
C 	C 	0.69683 0.40919 0.32500 0.08800
H 	H 	0.73760 0.43000 0.40810 -0.02800
C 	C 	0.54320 0.50340 0.97400 0.00400
H 	H 	0.56420 0.55770 0.00750 0.01300
C 	C 	0.55830 0.48210 0.74200 -0.08700
H 	H 	0.53860 0.42820 0.71470 0.03400
H 	H 	0.61560 0.48480 0.71360 0.06300
H 	H 	0.52990 0.52060 0.65860 0.08300
C 	C 	0.53100 0.47500 0.93000 -0.03000
H 	H 	0.50030 0.43070 0.86530 0.02300
C 	C 	0.57000 0.52100 0.77500 -0.15900
H 	H 	0.53020 0.54520 0.68830 0.00100
H 	H 	0.60440 0.48520 0.69570 0.01100
H 	H 	0.60330 0.56260 0.83500 0.06200
N 	N 	0.82860 0.31348 0.68060 -0.25000
C 	C 	0.80245 0.37143 0.80520 0.08800
H 	H 	0.74660 0.37950 0.81610 -0.02500
C 	C 	0.85290 0.42020 0.91930 -0.17000
H 	H 	0.83100 0.46070 0.00160 0.07800
C 	C 	0.93570 0.40890 0.91090 0.08600
C 	C 	0.96309 0.34930 0.78490 -0.17400
H 	H 	0.01870 0.33970 0.77320 0.07500
C 	C 	0.90919 0.30317 0.67500 0.08700
H 	H 	0.93000 0.26240 0.59190 -0.02800
C 	C 	0.00340 0.45680 0.02600 0.00300
H 	H 	0.05770 0.43580 0.99250 0.01300
C 	C 	0.98210 0.44170 0.25800 -0.08600
H 	H 	0.92820 0.46140 0.28530 0.03400
H 	H 	0.98480 0.38440 0.28640 0.06300
H 	H 	0.02060 0.47010 0.34140 0.08300
C 	C 	0.97500 0.46900 0.07000 -0.02900
H 	H 	0.93070 0.49970 0.13470 0.02300
C 	C 	0.02100 0.43000 0.22500 -0.16000
H 	H 	0.04520 0.46980 0.31170 0.00100
H 	H 	0.98520 0.39560 0.30430 0.01100
H 	H 	0.06260 0.39670 0.16500 0.06200
N 	N 	0.67140 0.18652 0.68060 -0.25000
C 	C 	0.69755 0.12857 0.80520 0.08900
H 	H 	0.75340 0.12050 0.81610 -0.02500
C 	C 	0.64710 0.07980 0.91930 -0.17100
H 	H 	0.66900 0.03930 0.00160 0.07900
C 	C 	0.56430 0.09110 0.91090 0.08600
C 	C 	0.53691 0.15070 0.78490 -0.17500
H 	H 	0.48130 0.16030 0.77320 0.07600
C 	C 	0.59081 0.19683 0.67500 0.08800
H 	H 	0.57000 0.23760 0.59190 -0.02800
C 	C 	0.49660 0.04320 0.02600 0.00400
H 	H 	0.44230 0.06420 0.99250 0.01200
C 	C 	0.51790 0.05830 0.25800 -0.08700
H 	H 	0.57180 0.03860 0.28530 0.03400
H 	H 	0.51520 0.11560 0.28640 0.06300
H 	H 	0.47940 0.02990 0.34140 0.08300
C 	C 	0.52500 0.03100 0.07000 -0.02900
H 	H 	0.56930 0.00030 0.13470 0.02300
C 	C 	0.47900 0.07000 0.22500 -0.15900
H 	H 	0.45480 0.03020 0.31170 0.00100
H 	H 	0.51480 0.10440 0.30430 0.01100
H 	H 	0.43740 0.10330 0.16500 0.06200
N 	N 	0.18652 0.82860 0.68060 -0.25000
C 	C 	0.12857 0.80245 0.80520 0.08900
H 	H 	0.12050 0.74660 0.81610 -0.02500
C 	C 	0.07980 0.85290 0.91930 -0.17000
H 	H 	0.03930 0.83100 0.00160 0.07800
C 	C 	0.09110 0.93570 0.91090 0.08600
C 	C 	0.15070 0.96309 0.78490 -0.17300
H 	H 	0.16030 0.01870 0.77320 0.07500
C 	C 	0.19683 0.90919 0.67500 0.08700
H 	H 	0.23760 0.93000 0.59190 -0.02700
C 	C 	0.04320 0.00340 0.02600 0.00500
H 	H 	0.06420 0.05770 0.99250 0.01100
C 	C 	0.05830 0.98210 0.25800 -0.08800
H 	H 	0.03860 0.92820 0.28530 0.03400
H 	H 	0.11560 0.98480 0.28640 0.06400
H 	H 	0.02990 0.02060 0.34140 0.08500
C 	C 	0.03100 0.97500 0.07000 -0.03100
H 	H 	0.00030 0.93070 0.13470 0.02400
C 	C 	0.07000 0.02100 0.22500 -0.15800
H 	H 	0.03020 0.04520 0.31170 -0.00100
H 	H 	0.10440 0.98520 0.30430 0.01100
H 	H 	0.10330 0.06260 0.16500 0.06200
N 	N 	0.31348 0.67140 0.68060 -0.25000
C 	C 	0.37143 0.69755 0.80520 0.08900
H 	H 	0.37950 0.75340 0.81610 -0.02500
C 	C 	0.42020 0.64710 0.91930 -0.17000
H 	H 	0.46070 0.66900 0.00160 0.07800
C 	C 	0.40890 0.56430 0.91090 0.08600
C 	C 	0.34930 0.53691 0.78490 -0.17500
H 	H 	0.33970 0.48130 0.77320 0.07600
C 	C 	0.30317 0.59081 0.67500 0.08800
H 	H 	0.26240 0.57000 0.59190 -0.02800
C 	C 	0.45680 0.49660 0.02600 0.00400
H 	H 	0.43580 0.44230 0.99250 0.01300
C 	C 	0.44170 0.51790 0.25800 -0.08700
H 	H 	0.46140 0.57180 0.28530 0.03400
H 	H 	0.38440 0.51520 0.28640 0.06300
H 	H 	0.47010 0.47940 0.34140 0.08300
C 	C 	0.46900 0.52500 0.07000 -0.03000
H 	H 	0.49970 0.56930 0.13470 0.02300
C 	C 	0.43000 0.47900 0.22500 -0.15900
H 	H 	0.46980 0.45480 0.31170 0.00100
H 	H 	0.39560 0.51480 0.30430 0.01100
H 	H 	0.39670 0.43740 0.16500 0.06200
Cu	Cu	0.25000 0.75000 0.50000 0.85000
Cu	Cu	0.75000 0.25000 0.50000 0.85000
