data_crystal

_cell_length_a 18.20400
_cell_length_b 12.83000
_cell_length_c 13.98700
_cell_angle_alpha 90.00000
_cell_angle_beta  99.26000
_cell_angle_gamma 90.00000

_symmetry_space_group_name_	'P 1'
_symmetry_space_group_name_H-M	'P 1'

loop_
_symmetry_equiv_pos_as_xyz
  x,y,z

loop_
_atom_site_label
_atom_site_type_symbol
_atom_site_fract_x
_atom_site_fract_y
_atom_site_fract_z
_atom_site_charge
Zn	Zn	0.73415 0.00994 0.28241 1.21600
O 	O 	0.65344 0.02486 0.17090 -0.56700
O 	O 	0.60373 0.07759 0.02299 -0.55600
C 	C 	0.65325 0.08210 0.09550 0.48000
C 	C 	0.71547 0.16020 0.09730 -0.52800
H 	H 	0.70820 0.21630 0.14150 0.18100
H 	H 	0.76240 0.12650 0.12220 0.17000
C 	C 	0.72025 0.20680 0.99740 0.14200
H 	H 	0.67170 0.23620 0.97010 0.03700
C 	C 	0.74056 0.12170 0.92940 0.25200
O 	O 	0.79358 0.06193 0.95648 -0.27300
O 	O 	0.70210 0.11738 0.84462 -0.42300
O 	O 	0.82612 0.96382 0.23342 -0.40700
O 	O 	0.89721 0.85783 0.16185 -0.37900
C 	C 	0.83551 0.89550 0.17000 0.43700
C 	C 	0.76770 0.86060 0.09820 -0.33600
H 	H 	0.72630 0.84930 0.13290 0.13000
H 	H 	0.75370 0.91600 0.05160 0.15300
C 	C 	0.78133 0.76020 0.04340 -0.09400
H 	H 	0.82860 0.76720 0.01890 0.08900
C 	C 	0.78686 0.66730 0.11180 0.29200
O 	O 	0.84151 0.60760 0.12016 -0.35300
O 	O 	0.73298 0.64904 0.15788 -0.40700
O 	O 	0.02600 0.00980 0.19450 -0.30600
O 	O 	0.04200 0.94400 0.13940 -0.19700
Zn	Zn	0.23415 0.50994 0.28241 1.23600
O 	O 	0.15344 0.52486 0.17090 -0.56200
O 	O 	0.10373 0.57759 0.02299 -0.57300
C 	C 	0.15325 0.58210 0.09550 0.48300
C 	C 	0.21547 0.66020 0.09730 -0.52000
H 	H 	0.20820 0.71630 0.14150 0.17400
H 	H 	0.26240 0.62650 0.12220 0.17400
C 	C 	0.22025 0.70680 0.99740 0.12900
H 	H 	0.17170 0.73620 0.97010 0.02700
C 	C 	0.24056 0.62170 0.92940 0.25400
O 	O 	0.29358 0.56193 0.95648 -0.26200
O 	O 	0.20210 0.61738 0.84462 -0.41700
O 	O 	0.32612 0.46382 0.23342 -0.46000
O 	O 	0.39721 0.35783 0.16185 -0.46300
C 	C 	0.33551 0.39550 0.17000 0.44000
C 	C 	0.26770 0.36060 0.09820 -0.32900
H 	H 	0.22630 0.34930 0.13290 0.10800
H 	H 	0.25370 0.41600 0.05160 0.12400
C 	C 	0.28133 0.26020 0.04340 -0.10900
H 	H 	0.32860 0.26720 0.01890 0.06900
C 	C 	0.28686 0.16730 0.11180 0.30300
O 	O 	0.34151 0.10760 0.12016 -0.41000
O 	O 	0.23298 0.14904 0.15788 -0.43900
O 	O 	0.52600 0.50980 0.19450 -0.14700
O 	O 	0.54200 0.44400 0.13940 -0.21400
Zn	Zn	0.26585 0.00994 0.21759 1.21500
O 	O 	0.34656 0.02486 0.32910 -0.55100
O 	O 	0.39627 0.07759 0.47701 -0.51800
C 	C 	0.34675 0.08210 0.40450 0.43900
C 	C 	0.28453 0.16020 0.40270 -0.37800
H 	H 	0.29180 0.21630 0.35850 0.13800
H 	H 	0.23760 0.12650 0.37780 0.12200
C 	C 	0.27975 0.20680 0.50260 -0.03900
H 	H 	0.32830 0.23620 0.52990 0.07100
C 	C 	0.25944 0.12170 0.57060 0.29600
O 	O 	0.20642 0.06193 0.54352 -0.33800
O 	O 	0.29790 0.11738 0.65538 -0.44500
O 	O 	0.17388 0.96382 0.26658 -0.44200
O 	O 	0.10279 0.85783 0.33815 -0.49900
C 	C 	0.16449 0.89550 0.33000 0.47500
C 	C 	0.23230 0.86060 0.40180 -0.40600
H 	H 	0.27370 0.84930 0.36710 0.15300
H 	H 	0.24630 0.91600 0.44840 0.18400
C 	C 	0.21867 0.76020 0.45660 -0.01400
H 	H 	0.17140 0.76720 0.48110 0.04900
C 	C 	0.21314 0.66730 0.38820 0.28000
O 	O 	0.15849 0.60760 0.37984 -0.39600
O 	O 	0.26702 0.64904 0.34212 -0.40200
O 	O 	0.97400 0.00980 0.30550 -0.11100
O 	O 	0.95800 0.94400 0.36060 -0.08000
Zn	Zn	0.76585 0.50994 0.21759 1.23800
O 	O 	0.84656 0.52486 0.32910 -0.48900
O 	O 	0.89627 0.57759 0.47701 -0.42900
C 	C 	0.84675 0.58210 0.40450 0.43400
C 	C 	0.78453 0.66020 0.40270 -0.37100
H 	H 	0.79180 0.71630 0.35850 0.14600
H 	H 	0.73760 0.62650 0.37780 0.13800
C 	C 	0.77975 0.70680 0.50260 -0.03600
H 	H 	0.82830 0.73620 0.52990 0.09100
C 	C 	0.75944 0.62170 0.57060 0.29000
O 	O 	0.70642 0.56193 0.54352 -0.29400
O 	O 	0.79790 0.61738 0.65538 -0.40200
O 	O 	0.67388 0.46382 0.26658 -0.46400
O 	O 	0.60279 0.35783 0.33815 -0.46400
C 	C 	0.66449 0.39550 0.33000 0.46200
C 	C 	0.73230 0.36060 0.40180 -0.39000
H 	H 	0.77370 0.34930 0.36710 0.14600
H 	H 	0.74630 0.41600 0.44840 0.16400
C 	C 	0.71867 0.26020 0.45660 -0.01800
H 	H 	0.67140 0.26720 0.48110 0.05900
C 	C 	0.71314 0.16730 0.38820 0.28200
O 	O 	0.65849 0.10760 0.37984 -0.39100
O 	O 	0.76702 0.14904 0.34212 -0.40600
O 	O 	0.47400 0.50980 0.30550 -0.14500
O 	O 	0.45800 0.44400 0.36060 -0.20300
Zn	Zn	0.26585 0.99006 0.71759 1.25600
O 	O 	0.34656 0.97514 0.82910 -0.48000
O 	O 	0.39627 0.92241 0.97701 -0.43700
C 	C 	0.34675 0.91790 0.90450 0.41200
C 	C 	0.28453 0.83980 0.90270 -0.26900
H 	H 	0.29180 0.78370 0.85850 0.11100
H 	H 	0.23760 0.87350 0.87780 0.11800
C 	C 	0.27975 0.79320 0.00260 -0.16600
H 	H 	0.32830 0.76380 0.02990 0.09400
C 	C 	0.25944 0.87830 0.07060 0.31800
O 	O 	0.20642 0.93807 0.04352 -0.30900
O 	O 	0.29790 0.88262 0.15538 -0.41100
O 	O 	0.17388 0.03618 0.76658 -0.50900
O 	O 	0.10279 0.14217 0.83815 -0.51500
C 	C 	0.16449 0.10450 0.83000 0.47600
C 	C 	0.23230 0.13940 0.90180 -0.42300
H 	H 	0.27370 0.15070 0.86710 0.14500
H 	H 	0.24630 0.08400 0.94840 0.16700
C 	C 	0.21867 0.23980 0.95660 0.04600
H 	H 	0.17140 0.23280 0.98110 0.04200
C 	C 	0.21314 0.33270 0.88820 0.27200
O 	O 	0.15849 0.39240 0.87984 -0.37900
O 	O 	0.26702 0.35096 0.84212 -0.39400
O 	O 	0.97400 0.99020 0.80550 0.02100
O 	O 	0.95800 0.05600 0.86060 -0.18400
Zn	Zn	0.76585 0.49006 0.71759 1.23800
O 	O 	0.84656 0.47514 0.82910 -0.47300
O 	O 	0.89627 0.42241 0.97701 -0.39400
C 	C 	0.84675 0.41790 0.90450 0.40000
C 	C 	0.78453 0.33980 0.90270 -0.24800
H 	H 	0.79180 0.28370 0.85850 0.11300
H 	H 	0.73760 0.37350 0.87780 0.10900
C 	C 	0.77975 0.29320 0.00260 -0.18600
H 	H 	0.82830 0.26380 0.02990 0.11100
C 	C 	0.75944 0.37830 0.07060 0.32300
O 	O 	0.70642 0.43807 0.04352 -0.32700
O 	O 	0.79790 0.38262 0.15538 -0.42100
O 	O 	0.67388 0.53618 0.76658 -0.46400
O 	O 	0.60279 0.64217 0.83815 -0.45700
C 	C 	0.66449 0.60450 0.83000 0.47600
C 	C 	0.73230 0.63940 0.90180 -0.42600
H 	H 	0.77370 0.65070 0.86710 0.16300
H 	H 	0.74630 0.58400 0.94840 0.19000
C 	C 	0.71867 0.73980 0.95660 0.04500
H 	H 	0.67140 0.73280 0.98110 0.06100
C 	C 	0.71314 0.83270 0.88820 0.26400
O 	O 	0.65849 0.89240 0.87984 -0.33300
O 	O 	0.76702 0.85096 0.84212 -0.36600
O 	O 	0.47400 0.49020 0.80550 -0.14200
O 	O 	0.45800 0.55600 0.86060 -0.19100
Zn	Zn	0.73415 0.99006 0.78241 1.25700
O 	O 	0.65344 0.97514 0.67090 -0.49500
O 	O 	0.60373 0.92241 0.52299 -0.47500
C 	C 	0.65325 0.91790 0.59550 0.45200
C 	C 	0.71547 0.83980 0.59730 -0.40500
H 	H 	0.70820 0.78370 0.64150 0.15100
H 	H 	0.76240 0.87350 0.62220 0.16500
C 	C 	0.72025 0.79320 0.49740 -0.00100
H 	H 	0.67170 0.76380 0.47010 0.06300
C 	C 	0.74056 0.87830 0.42940 0.27600
O 	O 	0.79358 0.93807 0.45648 -0.24700
O 	O 	0.70210 0.88262 0.34462 -0.39200
O 	O 	0.82612 0.03618 0.73342 -0.47400
O 	O 	0.89721 0.14217 0.66185 -0.39600
C 	C 	0.83551 0.10450 0.67000 0.43600
C 	C 	0.76770 0.13940 0.59820 -0.34700
H 	H 	0.72630 0.15070 0.63290 0.11800
H 	H 	0.75370 0.08400 0.55160 0.13100
C 	C 	0.78133 0.23980 0.54340 -0.04300
H 	H 	0.82860 0.23280 0.51890 0.08300
C 	C 	0.78686 0.33270 0.61180 0.28600
O 	O 	0.84151 0.39240 0.62016 -0.33900
O 	O 	0.73298 0.35096 0.65788 -0.40000
O 	O 	0.02600 0.99020 0.69450 -0.17000
O 	O 	0.04200 0.05600 0.63940 -0.30400
Zn	Zn	0.23415 0.49006 0.78241 1.23600
O 	O 	0.15344 0.47514 0.67090 -0.54800
O 	O 	0.10373 0.42241 0.52299 -0.54400
C 	C 	0.15325 0.41790 0.59550 0.45300
C 	C 	0.21547 0.33980 0.59730 -0.40800
H 	H 	0.20820 0.28370 0.64150 0.14300
H 	H 	0.26240 0.37350 0.62220 0.14800
C 	C 	0.22025 0.29320 0.49740 -0.00600
H 	H 	0.17170 0.26380 0.47010 0.04500
C 	C 	0.24056 0.37830 0.42940 0.28300
O 	O 	0.29358 0.43807 0.45648 -0.29300
O 	O 	0.20210 0.38262 0.34462 -0.43600
O 	O 	0.32612 0.53618 0.73342 -0.46000
O 	O 	0.39721 0.64217 0.66185 -0.45700
C 	C 	0.33551 0.60450 0.67000 0.45600
C 	C 	0.26770 0.63940 0.59820 -0.37000
H 	H 	0.22630 0.65070 0.63290 0.12700
H 	H 	0.25370 0.58400 0.55160 0.15300
C 	C 	0.28133 0.73980 0.54340 -0.03600
H 	H 	0.32860 0.73280 0.51890 0.07000
C 	C 	0.28686 0.83270 0.61180 0.28400
O 	O 	0.34151 0.89240 0.62016 -0.35000
O 	O 	0.23298 0.85096 0.65788 -0.39700
O 	O 	0.52600 0.49020 0.69450 -0.14400
O 	O 	0.54200 0.55600 0.63940 -0.20100
Zn	Zn	0.50000 0.00000 -0.00000 1.11100
Zn	Zn	-0.00000 0.50000 -0.00000 1.07500
Zn	Zn	0.50000 0.00000 0.50000 1.12600
Zn	Zn	0.00000 0.50000 0.50000 1.08900
Zn	Zn	0.00000 0.86350 0.25000 1.16000
Zn	Zn	0.50000 0.36350 0.25000 1.21100
Zn	Zn	0.00000 0.13650 0.75000 1.14800
Zn	Zn	0.50000 0.63650 0.75000 1.21500
