data_crystal

_cell_length_a 15.26140
_cell_length_b 15.26140
_cell_length_c 15.26140
_cell_angle_alpha 76.21590
_cell_angle_beta  76.21590
_cell_angle_gamma 76.21590

_symmetry_space_group_name_	'P 1'
_symmetry_space_group_name_H-M	'P 1'

loop_
_symmetry_equiv_pos_as_xyz
  x,y,z

loop_
_atom_site_label
_atom_site_type_symbol
_atom_site_fract_x
_atom_site_fract_y
_atom_site_fract_z
_atom_site_charge
Cu	Cu	0.57971 0.01224 0.01224 0.90200
Cu	Cu	0.01224 0.57971 0.01224 0.90200
Cu	Cu	0.01224 0.01224 0.57971 0.90200
Cu	Cu	0.98776 0.42029 0.98776 0.90200
Cu	Cu	0.42029 0.98776 0.98776 0.90200
Cu	Cu	0.98776 0.98776 0.42029 0.90200
H 	H 	0.51610 0.98900 0.30060 0.06100
H 	H 	0.30060 0.51610 0.98900 0.06100
H 	H 	0.98900 0.30060 0.51610 0.06100
H 	H 	0.01100 0.48390 0.69940 0.06100
H 	H 	0.48390 0.69940 0.01100 0.06100
H 	H 	0.69940 0.01100 0.48390 0.06100
H 	H 	0.48390 0.01100 0.69940 0.06100
H 	H 	0.69940 0.48390 0.01100 0.06100
H 	H 	0.01100 0.69940 0.48390 0.06100
H 	H 	0.98900 0.51610 0.30060 0.06100
H 	H 	0.51610 0.30060 0.98900 0.06100
H 	H 	0.30060 0.98900 0.51610 0.06100
H 	H 	0.26650 0.97570 0.26650 0.05400
H 	H 	0.26650 0.26650 0.97570 0.05400
H 	H 	0.97570 0.26650 0.26650 0.05400
H 	H 	0.02430 0.73350 0.73350 0.05400
H 	H 	0.73350 0.73350 0.02430 0.05400
H 	H 	0.73350 0.02430 0.73350 0.05400
C 	C 	0.39628 0.98262 0.26885 -0.07700
C 	C 	0.45368 0.98742 0.32500 -0.02700
C 	C 	0.43463 0.98297 0.16937 0.35500
C 	C 	0.26885 0.39628 0.98262 -0.07700
C 	C 	0.32500 0.45368 0.98742 -0.02700
C 	C 	0.16937 0.43463 0.98297 0.35500
C 	C 	0.98262 0.26885 0.39628 -0.07700
C 	C 	0.98742 0.32500 0.45368 -0.02700
C 	C 	0.98297 0.16937 0.43463 0.35500
C 	C 	0.01738 0.60372 0.73115 -0.07700
C 	C 	0.01258 0.54632 0.67500 -0.02700
C 	C 	0.01703 0.56537 0.83063 0.35500
C 	C 	0.60372 0.73115 0.01738 -0.07700
C 	C 	0.54632 0.67500 0.01258 -0.02700
C 	C 	0.56537 0.83063 0.01703 0.35500
C 	C 	0.73115 0.01738 0.60372 -0.07700
C 	C 	0.67500 0.01258 0.54632 -0.02700
C 	C 	0.83063 0.01703 0.56537 0.35500
C 	C 	0.60372 0.01738 0.73115 -0.07700
C 	C 	0.54632 0.01258 0.67500 -0.02700
C 	C 	0.56537 0.01703 0.83063 0.35500
C 	C 	0.73115 0.60372 0.01738 -0.07700
C 	C 	0.67500 0.54632 0.01258 -0.02700
C 	C 	0.83063 0.56537 0.01703 0.35500
C 	C 	0.01738 0.73115 0.60372 -0.07700
C 	C 	0.01258 0.67500 0.54632 -0.02700
C 	C 	0.01703 0.83063 0.56537 0.35500
C 	C 	0.98262 0.39628 0.26885 -0.07700
C 	C 	0.98742 0.45368 0.32500 -0.02700
C 	C 	0.98297 0.43463 0.16937 0.35500
C 	C 	0.39628 0.26885 0.98262 -0.07700
C 	C 	0.45368 0.32500 0.98742 -0.02700
C 	C 	0.43463 0.16937 0.98297 0.35500
C 	C 	0.26885 0.98262 0.39628 -0.07700
C 	C 	0.32500 0.98742 0.45368 -0.02700
C 	C 	0.16937 0.98297 0.43463 0.35500
C 	C 	0.47609 0.99749 0.47609 -0.01300
C 	C 	0.30473 0.97970 0.30473 0.02400
C 	C 	0.41845 0.98998 0.41845 0.01900
C 	C 	0.47609 0.47609 0.99749 -0.01300
C 	C 	0.30473 0.30473 0.97970 0.02400
C 	C 	0.41845 0.41845 0.98998 0.01900
C 	C 	0.99749 0.47609 0.47609 -0.01300
C 	C 	0.97970 0.30473 0.30473 0.02400
C 	C 	0.98998 0.41845 0.41845 0.01900
C 	C 	0.00251 0.52391 0.52391 -0.01300
C 	C 	0.02030 0.69527 0.69527 0.02400
C 	C 	0.01002 0.58155 0.58155 0.01900
C 	C 	0.52391 0.52391 0.00251 -0.01300
C 	C 	0.69527 0.69527 0.02030 0.02400
C 	C 	0.58155 0.58155 0.01002 0.01900
C 	C 	0.52391 0.00251 0.52391 -0.01300
C 	C 	0.69527 0.02030 0.69527 0.02400
C 	C 	0.58155 0.01002 0.58155 0.01900
O 	O 	0.51678 0.99496 0.14096 -0.40300
O 	O 	0.38217 0.97628 0.12052 -0.40200
O 	O 	0.14096 0.51678 0.99496 -0.40300
O 	O 	0.12052 0.38217 0.97628 -0.40200
O 	O 	0.99496 0.14096 0.51678 -0.40300
O 	O 	0.97628 0.12052 0.38217 -0.40200
O 	O 	0.00504 0.48322 0.85904 -0.40300
O 	O 	0.02372 0.61783 0.87948 -0.40200
O 	O 	0.48322 0.85904 0.00504 -0.40300
O 	O 	0.61783 0.87948 0.02372 -0.40200
O 	O 	0.85904 0.00504 0.48322 -0.40300
O 	O 	0.87948 0.02372 0.61783 -0.40200
O 	O 	0.48322 0.00504 0.85904 -0.40300
O 	O 	0.61783 0.02372 0.87948 -0.40200
O 	O 	0.85904 0.48322 0.00504 -0.40300
O 	O 	0.87948 0.61783 0.02372 -0.40200
O 	O 	0.00504 0.85904 0.48322 -0.40300
O 	O 	0.02372 0.87948 0.61783 -0.40200
O 	O 	0.99496 0.51678 0.14096 -0.40300
O 	O 	0.97628 0.38217 0.12052 -0.40200
O 	O 	0.51678 0.14096 0.99496 -0.40300
O 	O 	0.38217 0.12052 0.97628 -0.40200
O 	O 	0.14096 0.99496 0.51678 -0.40300
O 	O 	0.12052 0.97628 0.38217 -0.40200
