data_crystal

_cell_length_a 9.67840
_cell_length_b 11.05800
_cell_length_c 11.38500
_cell_angle_alpha 105.11000
_cell_angle_beta  90.23000
_cell_angle_gamma 113.98000

_symmetry_space_group_name_	'P 1'
_symmetry_space_group_name_H-M	'P 1'

loop_
_symmetry_equiv_pos_as_xyz
  x,y,z

loop_
_atom_site_label
_atom_site_type_symbol
_atom_site_fract_x
_atom_site_fract_y
_atom_site_fract_z
_atom_site_charge
C 	C 	0.77370 0.50300 0.39580 0.32200
C 	C 	0.63580 0.50630 0.45380 -0.06800
C 	C 	0.63790 0.61680 0.54950 -0.07400
C 	C 	0.77740 0.74870 0.60730 0.33600
C 	C 	0.49680 0.39100 0.40540 0.01100
H 	H 	0.49540 0.31810 0.34140 0.04200
C 	C 	0.75520 0.25170 0.48850 0.43300
C 	C 	0.62620 0.11850 0.49490 -0.12500
C 	C 	0.62170 0.98810 0.44140 -0.00000
C 	C 	0.75380 0.96990 0.38370 0.29000
C 	C 	0.50380 0.12890 0.55400 0.02700
H 	H 	0.50670 0.21560 0.59080 0.03900
C 	C 	0.81400 0.12810 0.10910 0.43500
C 	C 	0.65250 0.06350 0.04890 -0.10200
C 	C 	0.59610 0.93720 0.95730 -0.04800
C 	C 	0.70330 0.87530 0.90350 0.39900
C 	C 	0.55640 0.12670 0.09130 0.02700
H 	H 	0.59420 0.21110 0.15180 0.04100
Nd	Nd	0.02094 0.42555 0.32470 2.00800
Nd	Nd	0.00011 0.00530 0.74604 1.89900
O 	O 	0.90150 0.55600 0.46500 -0.50000
O 	O 	0.76090 0.44500 0.28510 -0.38300
O 	O 	0.88820 0.74870 0.66980 -0.48500
O 	O 	0.77830 0.85990 0.60020 -0.42500
O 	O 	0.81060 0.25760 0.39090 -0.46200
O 	O 	0.79020 0.35040 0.58670 -0.45700
O 	O 	0.88990 0.05310 0.43170 -0.37900
O 	O 	0.73150 0.87580 0.28520 -0.36800
O 	O 	0.88790 0.25730 0.13180 -0.49100
O 	O 	0.86500 0.04960 0.13380 -0.45100
O 	O 	0.67060 0.75300 0.89770 -0.29800
O 	O 	0.81880 0.95590 0.86540 -0.51800
Yb	Yb	0.97906 0.57445 0.67530 1.52500
Yb	Yb	0.99989 0.99470 0.25396 1.53400
C 	C 	0.22630 0.49700 0.60420 0.35300
C 	C 	0.36420 0.49370 0.54620 -0.08300
C 	C 	0.36210 0.38320 0.45050 -0.09400
C 	C 	0.22260 0.25130 0.39270 0.36600
C 	C 	0.50320 0.60900 0.59460 0.01100
H 	H 	0.50460 0.68190 0.65860 0.04400
C 	C 	0.24480 0.74830 0.51150 0.42400
C 	C 	0.37380 0.88150 0.50510 -0.05300
C 	C 	0.37830 0.01190 0.55860 -0.07400
C 	C 	0.24620 0.03010 0.61630 0.27200
C 	C 	0.49620 0.87110 0.44600 -0.02000
H 	H 	0.49330 0.78440 0.40920 0.05300
C 	C 	0.18600 0.87190 0.89090 0.44500
C 	C 	0.34750 0.93650 0.95110 -0.06600
C 	C 	0.40390 0.06280 0.04270 -0.08300
C 	C 	0.29670 0.12470 0.09650 0.36800
C 	C 	0.44360 0.87330 0.90870 -0.00400
H 	H 	0.40580 0.78890 0.84820 0.05100
O 	O 	0.09850 0.44400 0.53500 -0.57400
O 	O 	0.23910 0.55500 0.71490 -0.39000
O 	O 	0.11180 0.25130 0.33020 -0.58200
O 	O 	0.22170 0.14010 0.39980 -0.43000
O 	O 	0.18940 0.74240 0.60910 -0.43000
O 	O 	0.20980 0.64960 0.41330 -0.55300
O 	O 	0.11010 0.94690 0.56830 -0.43500
O 	O 	0.26850 0.12420 0.71480 -0.43400
O 	O 	0.11210 0.74270 0.86820 -0.47700
O 	O 	0.13500 0.95040 0.86620 -0.53700
O 	O 	0.32940 0.24700 0.10230 -0.31000
O 	O 	0.18120 0.04410 0.13460 -0.49200
