data_crystal

_cell_length_a 13.44180
_cell_length_b 13.44180
_cell_length_c 13.44180
_cell_angle_alpha 94.77470
_cell_angle_beta  117.28300
_cell_angle_gamma 117.28300

_symmetry_space_group_name_	'P 1'
_symmetry_space_group_name_H-M	'P 1'

loop_
_symmetry_equiv_pos_as_xyz
  x,y,z

loop_
_atom_site_label
_atom_site_type_symbol
_atom_site_fract_x
_atom_site_fract_y
_atom_site_fract_z
_atom_site_charge
La	La	0.73600 0.87500 0.11100 1.60700
La	La	0.26400 0.37500 0.13900 1.65000
La	La	0.76400 0.88900 0.62500 1.63700
La	La	0.23600 0.86100 0.12500 1.62000
H 	H 	0.11490 0.93280 0.35910 0.13900
H 	H 	0.10390 0.00210 0.44980 0.19200
H 	H 	0.54770 0.96960 0.81250 0.11300
H 	H 	0.47590 0.83170 0.74480 0.11200
H 	H 	0.88510 0.24420 0.81790 0.12500
H 	H 	0.89610 0.34590 0.89820 0.13000
H 	H 	0.45230 0.26480 0.42190 0.13400
H 	H 	0.52410 0.26890 0.35580 0.11700
H 	H 	0.57370 0.64090 0.75580 0.11100
H 	H 	0.55230 0.55020 0.65410 0.10600
H 	H 	0.15710 0.18750 0.73520 0.13400
H 	H 	0.08690 0.25520 0.73110 0.11700
H 	H 	0.42630 0.18210 0.06720 0.15600
H 	H 	0.44770 0.10180 0.99790 0.22000
H 	H 	0.84290 0.57810 0.03040 0.11300
H 	H 	0.91310 0.64420 0.16830 0.11100
H 	H 	0.07370 0.50580 0.89090 0.13200
H 	H 	0.05230 0.40410 0.80020 0.12000
H 	H 	0.65710 0.48520 0.43750 0.12800
H 	H 	0.58690 0.48110 0.50520 0.11900
H 	H 	0.92630 0.81720 0.43210 0.09000
H 	H 	0.94770 0.74790 0.35180 0.09600
H 	H 	0.34290 0.78040 0.82810 0.10700
H 	H 	0.41310 0.91830 0.89420 0.08400
H 	H 	0.38510 0.56790 0.49420 0.10200
H 	H 	0.39610 0.64820 0.59590 0.10300
H 	H 	0.95230 0.17190 0.51480 0.10900
H 	H 	0.02410 0.10580 0.51890 0.09900
H 	H 	0.61490 0.10910 0.18280 0.12500
H 	H 	0.60390 0.19980 0.25210 0.11800
H 	H 	0.04770 0.56250 0.21960 0.12200
H 	H 	0.97590 0.49480 0.08170 0.08900
C 	C 	0.08310 0.06180 0.30970 0.45000
C 	C 	0.06690 0.96660 0.36530 -0.38600
C 	C 	0.68330 0.92450 0.84260 0.43300
C 	C 	0.55110 0.89990 0.81980 -0.25700
C 	C 	0.91690 0.22660 0.97870 0.45200
C 	C 	0.93310 0.29840 0.89970 -0.26900
C 	C 	0.31670 0.15930 0.24120 0.43900
C 	C 	0.44890 0.26870 0.34880 -0.27200
C 	C 	0.75210 0.69030 0.77340 0.37300
C 	C 	0.60130 0.63470 0.70160 -0.21900
C 	C 	0.08190 0.15740 0.84070 0.43000
C 	C 	0.08010 0.18020 0.73130 -0.26400
C 	C 	0.24790 0.02130 0.93820 0.52600
C 	C 	0.39870 0.10030 0.03340 -0.45500
C 	C 	0.91810 0.75880 0.07550 0.42200
C 	C 	0.91990 0.65120 0.10010 -0.26900
C 	C 	0.25210 0.52340 0.94030 0.45800
C 	C 	0.10130 0.45160 0.88470 -0.26900
C 	C 	0.58190 0.59070 0.40740 0.44400
C 	C 	0.58010 0.48130 0.43020 -0.27300
C 	C 	0.74790 0.68820 0.27130 0.36700
C 	C 	0.89870 0.78340 0.35030 -0.22000
C 	C 	0.41810 0.82550 0.00880 0.35900
C 	C 	0.41990 0.85010 0.90120 -0.17300
C 	C 	0.41690 0.72870 0.47660 0.36800
C 	C 	0.43310 0.64970 0.54840 -0.21600
C 	C 	0.81670 0.99120 0.40930 0.36600
C 	C 	0.94890 0.09880 0.51870 -0.17600
C 	C 	0.58310 0.05970 0.31180 0.46300
C 	C 	0.56690 0.11530 0.21660 -0.28300
C 	C 	0.18330 0.59260 0.17450 0.42800
C 	C 	0.05110 0.56980 0.14990 -0.24800
O 	O 	0.19070 0.16110 0.37200 -0.29800
O 	O 	0.98740 0.02990 0.20290 -0.33800
O 	O 	0.75930 0.92130 0.94020 -0.36300
O 	O 	0.70390 0.94460 0.76430 -0.42900
O 	O 	0.80930 0.18130 0.97040 -0.26600
O 	O 	0.01260 0.21550 0.04250 -0.40700
O 	O 	0.24070 0.18090 0.16200 -0.38400
O 	O 	0.29610 0.06040 0.24070 -0.39000
O 	O 	0.78910 0.62800 0.81870 -0.26400
O 	O 	0.82700 0.79710 0.78450 -0.35300
O 	O 	0.98110 0.05980 0.81910 -0.33700
O 	O 	0.18030 0.23570 0.93960 -0.38200
O 	O 	0.21090 0.02960 0.83890 -0.30100
O 	O 	0.17300 0.95750 0.97010 -0.39000
O 	O 	0.01890 0.83800 0.07870 -0.39700
O 	O 	0.81970 0.75930 0.05540 -0.43400
O 	O 	0.28910 0.56870 0.87800 -0.28600
O 	O 	0.32700 0.53450 0.04710 -0.41300
O 	O 	0.48110 0.56910 0.30980 -0.38000
O 	O 	0.68030 0.68960 0.48570 -0.41700
O 	O 	0.71090 0.58890 0.27960 -0.29000
O 	O 	0.67300 0.72010 0.20750 -0.35400
O 	O 	0.51890 0.82870 0.08800 -0.37900
O 	O 	0.31970 0.80540 0.00930 -0.42600
O 	O 	0.30930 0.72040 0.43130 -0.28700
O 	O 	0.51260 0.79250 0.46550 -0.35500
O 	O 	0.74070 0.91200 0.43090 -0.37600
O 	O 	0.79610 0.99070 0.31040 -0.42500
O 	O 	0.69070 0.12200 0.41110 -0.28900
O 	O 	0.48740 0.95290 0.27990 -0.41700
O 	O 	0.25930 0.69020 0.17130 -0.38100
O 	O 	0.20390 0.51430 0.19460 -0.41800
O 	O 	0.92790 0.87500 0.30290 -0.17000
O 	O 	0.54020 0.87500 0.91520 -0.17400
O 	O 	0.07210 0.37500 0.94710 -0.13700
O 	O 	0.45980 0.37500 0.33480 -0.17100
O 	O 	0.57210 0.69710 0.62500 -0.18200
O 	O 	0.95980 0.08480 0.62500 -0.16600
O 	O 	0.42790 0.05290 0.12500 -0.11200
O 	O 	0.04020 0.66520 0.12500 -0.17800
