data_crystal

_cell_length_a 20.12300
_cell_length_b 20.12300
_cell_length_c 20.12300
_cell_angle_alpha 90.00000
_cell_angle_beta  90.00000
_cell_angle_gamma 90.00000

_symmetry_space_group_name_	'P 1'
_symmetry_space_group_name_H-M	'P 1'

loop_
_symmetry_equiv_pos_as_xyz
  x,y,z

loop_
_atom_site_label
_atom_site_type_symbol
_atom_site_fract_x
_atom_site_fract_y
_atom_site_fract_z
_atom_site_charge
Zn	Zn	0.35581 0.25061 0.23074 1.18700
O 	O 	0.44670 0.28270 0.24230 -0.46400
O 	O 	0.45320 0.20720 0.16380 -0.35400
C 	C 	0.47960 0.25000 0.19930 0.34100
C 	C 	0.59990 0.23180 0.15780 0.09400
H 	H 	0.59180 0.19730 0.12810 0.00100
C 	C 	0.55130 0.26340 0.19580 -0.14700
C 	C 	0.58720 0.31000 0.23190 0.09400
H 	H 	0.56900 0.33910 0.26280 0.00100
N 	N 	0.65100 0.30700 0.21610 -0.26500
N 	N 	0.65900 0.25760 0.16980 -0.26500
Zn	Zn	0.14419 0.74939 0.73074 1.18800
O 	O 	0.05330 0.71730 0.74230 -0.46300
O 	O 	0.04680 0.79280 0.66380 -0.35300
C 	C 	0.02040 0.75000 0.69930 0.34200
C 	C 	0.90010 0.76820 0.65780 0.09500
H 	H 	0.90820 0.80270 0.62810 0.00200
C 	C 	0.94870 0.73660 0.69580 -0.14600
C 	C 	0.91280 0.69000 0.73190 0.09500
H 	H 	0.93100 0.66090 0.76280 0.00100
N 	N 	0.84900 0.69300 0.71610 -0.26500
N 	N 	0.84100 0.74240 0.66980 -0.26500
Zn	Zn	0.64419 0.75061 0.26926 1.18800
O 	O 	0.55330 0.78270 0.25770 -0.46300
O 	O 	0.54680 0.70720 0.33620 -0.35300
C 	C 	0.52040 0.75000 0.30070 0.34200
C 	C 	0.40010 0.73180 0.34220 0.09500
H 	H 	0.40820 0.69730 0.37190 0.00200
C 	C 	0.44870 0.76340 0.30420 -0.14600
C 	C 	0.41280 0.81000 0.26810 0.09500
H 	H 	0.43100 0.83910 0.23720 0.00100
N 	N 	0.34900 0.80700 0.28390 -0.26500
N 	N 	0.34100 0.75760 0.33020 -0.26500
Zn	Zn	0.85581 0.24939 0.76926 1.18800
O 	O 	0.94670 0.21730 0.75770 -0.46300
O 	O 	0.95320 0.29280 0.83620 -0.35300
C 	C 	0.97960 0.25000 0.80070 0.34200
C 	C 	0.09990 0.26820 0.84220 0.09500
H 	H 	0.09180 0.30270 0.87190 0.00200
C 	C 	0.05130 0.23660 0.80420 -0.14600
C 	C 	0.08720 0.19000 0.76810 0.09500
H 	H 	0.06900 0.16090 0.73720 0.00100
N 	N 	0.15100 0.19300 0.78390 -0.26500
N 	N 	0.15900 0.24240 0.83020 -0.26500
Zn	Zn	0.23074 0.35581 0.25061 1.18800
O 	O 	0.24230 0.44670 0.28270 -0.46300
O 	O 	0.16380 0.45320 0.20720 -0.35300
C 	C 	0.19930 0.47960 0.25000 0.34200
C 	C 	0.15780 0.59990 0.23180 0.09500
H 	H 	0.12810 0.59180 0.19730 0.00200
C 	C 	0.19580 0.55130 0.26340 -0.14600
C 	C 	0.23190 0.58720 0.31000 0.09500
H 	H 	0.26280 0.56900 0.33910 0.00100
N 	N 	0.21610 0.65100 0.30700 -0.26500
N 	N 	0.16980 0.65900 0.25760 -0.26500
Zn	Zn	0.73074 0.14419 0.74939 1.18800
O 	O 	0.74230 0.05330 0.71730 -0.46300
O 	O 	0.66380 0.04680 0.79280 -0.35300
C 	C 	0.69930 0.02040 0.75000 0.34200
C 	C 	0.65780 0.90010 0.76820 0.09500
H 	H 	0.62810 0.90820 0.80270 0.00200
C 	C 	0.69580 0.94870 0.73660 -0.14600
C 	C 	0.73190 0.91280 0.69000 0.09500
H 	H 	0.76280 0.93100 0.66090 0.00100
N 	N 	0.71610 0.84900 0.69300 -0.26500
N 	N 	0.66980 0.84100 0.74240 -0.26500
Zn	Zn	0.26926 0.64419 0.75061 1.18800
O 	O 	0.25770 0.55330 0.78270 -0.46300
O 	O 	0.33620 0.54680 0.70720 -0.35300
C 	C 	0.30070 0.52040 0.75000 0.34200
C 	C 	0.34220 0.40010 0.73180 0.09500
H 	H 	0.37190 0.40820 0.69730 0.00200
C 	C 	0.30420 0.44870 0.76340 -0.14600
C 	C 	0.26810 0.41280 0.81000 0.09500
H 	H 	0.23720 0.43100 0.83910 0.00100
N 	N 	0.28390 0.34900 0.80700 -0.26500
N 	N 	0.33020 0.34100 0.75760 -0.26500
Zn	Zn	0.76926 0.85581 0.24939 1.18800
O 	O 	0.75770 0.94670 0.21730 -0.46300
O 	O 	0.83620 0.95320 0.29280 -0.35300
C 	C 	0.80070 0.97960 0.25000 0.34200
C 	C 	0.84220 0.09990 0.26820 0.09500
H 	H 	0.87190 0.09180 0.30270 0.00200
C 	C 	0.80420 0.05130 0.23660 -0.14600
C 	C 	0.76810 0.08720 0.19000 0.09500
H 	H 	0.73720 0.06900 0.16090 0.00100
N 	N 	0.78390 0.15100 0.19300 -0.26500
N 	N 	0.83020 0.15900 0.24240 -0.26500
Zn	Zn	0.25061 0.23074 0.35581 1.18800
O 	O 	0.28270 0.24230 0.44670 -0.46300
O 	O 	0.20720 0.16380 0.45320 -0.35300
C 	C 	0.25000 0.19930 0.47960 0.34200
C 	C 	0.23180 0.15780 0.59990 0.09500
H 	H 	0.19730 0.12810 0.59180 0.00200
C 	C 	0.26340 0.19580 0.55130 -0.14600
C 	C 	0.31000 0.23190 0.58720 0.09500
H 	H 	0.33910 0.26280 0.56900 0.00100
N 	N 	0.30700 0.21610 0.65100 -0.26500
N 	N 	0.25760 0.16980 0.65900 -0.26500
Zn	Zn	0.74939 0.73074 0.14419 1.18800
O 	O 	0.71730 0.74230 0.05330 -0.46300
O 	O 	0.79280 0.66380 0.04680 -0.35300
C 	C 	0.75000 0.69930 0.02040 0.34200
C 	C 	0.76820 0.65780 0.90010 0.09500
H 	H 	0.80270 0.62810 0.90820 0.00200
C 	C 	0.73660 0.69580 0.94870 -0.14600
C 	C 	0.69000 0.73190 0.91280 0.09500
H 	H 	0.66090 0.76280 0.93100 0.00100
N 	N 	0.69300 0.71610 0.84900 -0.26500
N 	N 	0.74240 0.66980 0.84100 -0.26500
Zn	Zn	0.75061 0.26926 0.64419 1.18800
O 	O 	0.78270 0.25770 0.55330 -0.46300
O 	O 	0.70720 0.33620 0.54680 -0.35300
C 	C 	0.75000 0.30070 0.52040 0.34200
C 	C 	0.73180 0.34220 0.40010 0.09500
H 	H 	0.69730 0.37190 0.40820 0.00200
C 	C 	0.76340 0.30420 0.44870 -0.14600
C 	C 	0.81000 0.26810 0.41280 0.09500
H 	H 	0.83910 0.23720 0.43100 0.00100
N 	N 	0.80700 0.28390 0.34900 -0.26500
N 	N 	0.75760 0.33020 0.34100 -0.26500
Zn	Zn	0.24939 0.76926 0.85581 1.18800
O 	O 	0.21730 0.75770 0.94670 -0.46300
O 	O 	0.29280 0.83620 0.95320 -0.35300
C 	C 	0.25000 0.80070 0.97960 0.34200
C 	C 	0.26820 0.84220 0.09990 0.09500
H 	H 	0.30270 0.87190 0.09180 0.00200
C 	C 	0.23660 0.80420 0.05130 -0.14600
C 	C 	0.19000 0.76810 0.08720 0.09500
H 	H 	0.16090 0.73720 0.06900 0.00100
N 	N 	0.19300 0.78390 0.15100 -0.26500
N 	N 	0.24240 0.83020 0.15900 -0.26500
Zn	Zn	0.64419 0.74939 0.76926 1.18800
O 	O 	0.55330 0.71730 0.75770 -0.46300
O 	O 	0.54680 0.79280 0.83620 -0.35300
C 	C 	0.52040 0.75000 0.80070 0.34200
C 	C 	0.40010 0.76820 0.84220 0.09500
H 	H 	0.40820 0.80270 0.87190 0.00200
C 	C 	0.44870 0.73660 0.80420 -0.14600
C 	C 	0.41280 0.69000 0.76810 0.09500
H 	H 	0.43100 0.66090 0.73720 0.00100
N 	N 	0.34900 0.69300 0.78390 -0.26500
N 	N 	0.34100 0.74240 0.83020 -0.26500
Zn	Zn	0.85581 0.25061 0.26926 1.18800
O 	O 	0.94670 0.28270 0.25770 -0.46300
O 	O 	0.95320 0.20720 0.33620 -0.35300
C 	C 	0.97960 0.25000 0.30070 0.34200
C 	C 	0.09990 0.23180 0.34220 0.09500
H 	H 	0.09180 0.19730 0.37190 0.00200
C 	C 	0.05130 0.26340 0.30420 -0.14600
C 	C 	0.08720 0.31000 0.26810 0.09500
H 	H 	0.06900 0.33910 0.23720 0.00100
N 	N 	0.15100 0.30700 0.28390 -0.26500
N 	N 	0.15900 0.25760 0.33020 -0.26500
Zn	Zn	0.35581 0.24939 0.73074 1.18800
O 	O 	0.44670 0.21730 0.74230 -0.46300
O 	O 	0.45320 0.29280 0.66380 -0.35300
C 	C 	0.47960 0.25000 0.69930 0.34200
C 	C 	0.59990 0.26820 0.65780 0.09500
H 	H 	0.59180 0.30270 0.62810 0.00200
C 	C 	0.55130 0.23660 0.69580 -0.14600
C 	C 	0.58720 0.19000 0.73190 0.09500
H 	H 	0.56900 0.16090 0.76280 0.00100
N 	N 	0.65100 0.19300 0.71610 -0.26500
N 	N 	0.65900 0.24240 0.66980 -0.26500
Zn	Zn	0.14419 0.75061 0.23074 1.18800
O 	O 	0.05330 0.78270 0.24230 -0.46300
O 	O 	0.04680 0.70720 0.16380 -0.35300
C 	C 	0.02040 0.75000 0.19930 0.34200
C 	C 	0.90010 0.73180 0.15780 0.09500
H 	H 	0.90820 0.69730 0.12810 0.00200
C 	C 	0.94870 0.76340 0.19580 -0.14600
C 	C 	0.91280 0.81000 0.23190 0.09500
H 	H 	0.93100 0.83910 0.26280 0.00100
N 	N 	0.84900 0.80700 0.21610 -0.26500
N 	N 	0.84100 0.75760 0.16980 -0.26500
Zn	Zn	0.76926 0.64419 0.74939 1.18800
O 	O 	0.75770 0.55330 0.71730 -0.46300
O 	O 	0.83620 0.54680 0.79280 -0.35300
C 	C 	0.80070 0.52040 0.75000 0.34200
C 	C 	0.84220 0.40010 0.76820 0.09500
H 	H 	0.87190 0.40820 0.80270 0.00200
C 	C 	0.80420 0.44870 0.73660 -0.14600
C 	C 	0.76810 0.41280 0.69000 0.09500
H 	H 	0.73720 0.43100 0.66090 0.00100
N 	N 	0.78390 0.34900 0.69300 -0.26500
N 	N 	0.83020 0.34100 0.74240 -0.26500
Zn	Zn	0.26926 0.85581 0.25061 1.18800
O 	O 	0.25770 0.94670 0.28270 -0.46300
O 	O 	0.33620 0.95320 0.20720 -0.35300
C 	C 	0.30070 0.97960 0.25000 0.34200
C 	C 	0.34220 0.09990 0.23180 0.09500
H 	H 	0.37190 0.09180 0.19730 0.00200
C 	C 	0.30420 0.05130 0.26340 -0.14600
C 	C 	0.26810 0.08720 0.31000 0.09500
H 	H 	0.23720 0.06900 0.33910 0.00100
N 	N 	0.28390 0.15100 0.30700 -0.26500
N 	N 	0.33020 0.15900 0.25760 -0.26500
Zn	Zn	0.73074 0.35581 0.24939 1.18800
O 	O 	0.74230 0.44670 0.21730 -0.46300
O 	O 	0.66380 0.45320 0.29280 -0.35300
C 	C 	0.69930 0.47960 0.25000 0.34200
C 	C 	0.65780 0.59990 0.26820 0.09500
H 	H 	0.62810 0.59180 0.30270 0.00200
C 	C 	0.69580 0.55130 0.23660 -0.14600
C 	C 	0.73190 0.58720 0.19000 0.09500
H 	H 	0.76280 0.56900 0.16090 0.00100
N 	N 	0.71610 0.65100 0.19300 -0.26500
N 	N 	0.66980 0.65900 0.24240 -0.26500
Zn	Zn	0.23074 0.14419 0.75061 1.18800
O 	O 	0.24230 0.05330 0.78270 -0.46300
O 	O 	0.16380 0.04680 0.70720 -0.35300
C 	C 	0.19930 0.02040 0.75000 0.34200
C 	C 	0.15780 0.90010 0.73180 0.09500
H 	H 	0.12810 0.90820 0.69730 0.00200
C 	C 	0.19580 0.94870 0.76340 -0.14600
C 	C 	0.23190 0.91280 0.81000 0.09500
H 	H 	0.26280 0.93100 0.83910 0.00100
N 	N 	0.21610 0.84900 0.80700 -0.26500
N 	N 	0.16980 0.84100 0.75760 -0.26500
Zn	Zn	0.74939 0.76926 0.64419 1.18800
O 	O 	0.71730 0.75770 0.55330 -0.46300
O 	O 	0.79280 0.83620 0.54680 -0.35300
C 	C 	0.75000 0.80070 0.52040 0.34200
C 	C 	0.76820 0.84220 0.40010 0.09500
H 	H 	0.80270 0.87190 0.40820 0.00200
C 	C 	0.73660 0.80420 0.44870 -0.14600
C 	C 	0.69000 0.76810 0.41280 0.09500
H 	H 	0.66090 0.73720 0.43100 0.00100
N 	N 	0.69300 0.78390 0.34900 -0.26500
N 	N 	0.74240 0.83020 0.34100 -0.26500
Zn	Zn	0.25061 0.26926 0.85581 1.18800
O 	O 	0.28270 0.25770 0.94670 -0.46300
O 	O 	0.20720 0.33620 0.95320 -0.35300
C 	C 	0.25000 0.30070 0.97960 0.34200
C 	C 	0.23180 0.34220 0.09990 0.09500
H 	H 	0.19730 0.37190 0.09180 0.00200
C 	C 	0.26340 0.30420 0.05130 -0.14600
C 	C 	0.31000 0.26810 0.08720 0.09500
H 	H 	0.33910 0.23720 0.06900 0.00100
N 	N 	0.30700 0.28390 0.15100 -0.26500
N 	N 	0.25760 0.33020 0.15900 -0.26500
Zn	Zn	0.24939 0.73074 0.35581 1.18800
O 	O 	0.21730 0.74230 0.44670 -0.46300
O 	O 	0.29280 0.66380 0.45320 -0.35300
C 	C 	0.25000 0.69930 0.47960 0.34200
C 	C 	0.26820 0.65780 0.59990 0.09500
H 	H 	0.30270 0.62810 0.59180 0.00200
C 	C 	0.23660 0.69580 0.55130 -0.14600
C 	C 	0.19000 0.73190 0.58720 0.09500
H 	H 	0.16090 0.76280 0.56900 0.00100
N 	N 	0.19300 0.71610 0.65100 -0.26500
N 	N 	0.24240 0.66980 0.65900 -0.26500
Zn	Zn	0.75061 0.23074 0.14419 1.18800
O 	O 	0.78270 0.24230 0.05330 -0.46300
O 	O 	0.70720 0.16380 0.04680 -0.35300
C 	C 	0.75000 0.19930 0.02040 0.34200
C 	C 	0.73180 0.15780 0.90010 0.09500
H 	H 	0.69730 0.12810 0.90820 0.00200
C 	C 	0.76340 0.19580 0.94870 -0.14600
C 	C 	0.81000 0.23190 0.91280 0.09500
H 	H 	0.83910 0.26280 0.93100 0.00100
N 	N 	0.80700 0.21610 0.84900 -0.26500
N 	N 	0.75760 0.16980 0.84100 -0.26500
O 	O 	0.30003 0.30003 0.30003 -0.69200
O 	O 	0.19997 0.69997 0.80003 -0.69200
O 	O 	0.69997 0.80003 0.19997 -0.69200
O 	O 	0.80003 0.19997 0.69997 -0.69200
O 	O 	0.69997 0.69997 0.69997 -0.69200
O 	O 	0.80003 0.30003 0.19997 -0.69200
O 	O 	0.30003 0.19997 0.80003 -0.69200
O 	O 	0.19997 0.80003 0.30003 -0.69200
