data_crystal

_cell_length_a 23.14420
_cell_length_b 23.14420
_cell_length_c 7.22330
_cell_angle_alpha 90.00000
_cell_angle_beta  90.00000
_cell_angle_gamma 120.00000

_symmetry_space_group_name_	'P 1'
_symmetry_space_group_name_H-M	'P 1'

loop_
_symmetry_equiv_pos_as_xyz
  x,y,z

loop_
_atom_site_label
_atom_site_type_symbol
_atom_site_fract_x
_atom_site_fract_y
_atom_site_fract_z
_atom_site_charge
Mg	Mg	0.28470 0.11930 0.92630 1.46600
Mg	Mg	0.28000 0.31490 0.33670 1.46800
O 	O 	0.29590 0.18450 0.15320 -0.79600
O 	O 	0.32070 0.22570 0.87320 -0.67600
O 	O 	0.31890 0.28730 0.11510 -0.74500
O 	O 	0.26600 0.23740 0.50350 -0.79000
O 	O 	0.18850 0.27660 0.17320 -0.52700
C 	C 	0.30460 0.23080 0.04230 0.57600
Mg	Mg	0.95137 0.45263 0.25963 1.46100
Mg	Mg	0.94667 0.64823 0.67003 1.47300
O 	O 	0.96257 0.51783 0.48653 -0.77000
O 	O 	0.98737 0.55903 0.20653 -0.70500
O 	O 	0.98557 0.62063 0.44843 -0.69100
O 	O 	0.93267 0.57073 0.83683 -0.73900
O 	O 	0.85517 0.60993 0.50653 -0.50300
C 	C 	0.97127 0.56413 0.37563 0.64000
Mg	Mg	0.61803 0.78597 0.59297 1.46100
Mg	Mg	0.61333 0.98157 0.00337 1.45100
O 	O 	0.62923 0.85117 0.81987 -0.78300
O 	O 	0.65403 0.89237 0.53987 -0.76500
O 	O 	0.65223 0.95397 0.78177 -0.79300
O 	O 	0.59933 0.90407 0.17017 -0.86000
O 	O 	0.52183 0.94327 0.83987 -0.55800
C 	C 	0.63793 0.89747 0.70897 0.65100
Mg	Mg	0.88070 0.16540 0.92630 1.46900
Mg	Mg	0.68510 0.96510 0.33670 1.45700
O 	O 	0.81550 0.11140 0.15320 -0.77800
O 	O 	0.77430 0.09500 0.87320 -0.65800
O 	O 	0.71270 0.03160 0.11510 -0.69200
O 	O 	0.76260 0.02860 0.50350 -0.72500
O 	O 	0.72340 0.91190 0.17320 -0.55800
C 	C 	0.76920 0.07380 0.04230 0.58700
Mg	Mg	0.54737 0.49873 0.25963 1.45700
Mg	Mg	0.35177 0.29843 0.67003 1.46900
O 	O 	0.48217 0.44473 0.48653 -0.80700
O 	O 	0.44097 0.42833 0.20653 -0.76200
O 	O 	0.37937 0.36493 0.44843 -0.74600
O 	O 	0.42927 0.36193 0.83683 -0.77100
O 	O 	0.39007 0.24523 0.50653 -0.50400
C 	C 	0.43587 0.40713 0.37563 0.65300
Mg	Mg	0.21403 0.83207 0.59297 1.46000
Mg	Mg	0.01843 0.63177 0.00337 1.45100
O 	O 	0.14883 0.77807 0.81987 -0.78700
O 	O 	0.10763 0.76167 0.53987 -0.77000
O 	O 	0.04603 0.69827 0.78177 -0.79500
O 	O 	0.09593 0.69527 0.17017 -0.86100
O 	O 	0.05673 0.57857 0.83987 -0.55700
C 	C 	0.10253 0.74047 0.70897 0.65000
Mg	Mg	0.83460 0.71530 0.92630 1.46700
Mg	Mg	0.03490 0.72000 0.33670 1.45600
O 	O 	0.88860 0.70410 0.15320 -0.79100
O 	O 	0.90500 0.67930 0.87320 -0.66200
O 	O 	0.96840 0.68110 0.11510 -0.69400
O 	O 	0.97140 0.73400 0.50350 -0.74100
O 	O 	0.08810 0.81150 0.17320 -0.58200
C 	C 	0.92620 0.69540 0.04230 0.58100
Mg	Mg	0.50127 0.04863 0.25963 1.46100
Mg	Mg	0.70157 0.05333 0.67003 1.47300
O 	O 	0.55527 0.03743 0.48653 -0.77000
O 	O 	0.57167 0.01263 0.20653 -0.70500
O 	O 	0.63507 0.01443 0.44843 -0.69100
O 	O 	0.63807 0.06733 0.83683 -0.74000
O 	O 	0.75477 0.14483 0.50653 -0.50300
C 	C 	0.59287 0.02873 0.37563 0.64000
Mg	Mg	0.16793 0.38197 0.59297 1.46100
Mg	Mg	0.36823 0.38667 0.00337 1.46300
O 	O 	0.22193 0.37077 0.81987 -0.77700
O 	O 	0.23833 0.34597 0.53987 -0.73500
O 	O 	0.30173 0.34777 0.78177 -0.72300
O 	O 	0.30473 0.40067 0.17017 -0.81700
O 	O 	0.42143 0.47817 0.83987 -0.48300
C 	C 	0.25953 0.36207 0.70897 0.64400
Mg	Mg	0.88070 0.71530 0.42630 1.46100
Mg	Mg	0.68510 0.72000 0.83670 1.47300
O 	O 	0.81550 0.70410 0.65320 -0.78700
O 	O 	0.77430 0.67930 0.37320 -0.73800
O 	O 	0.71270 0.68110 0.61510 -0.73400
O 	O 	0.76260 0.73400 0.00350 -0.82600
O 	O 	0.72340 0.81150 0.67320 -0.49500
C 	C 	0.76920 0.69540 0.54230 0.64900
Mg	Mg	0.54737 0.04863 0.75963 1.46500
Mg	Mg	0.35177 0.05333 0.17003 1.47100
O 	O 	0.48217 0.03743 0.98653 -0.73400
O 	O 	0.44097 0.01263 0.70653 -0.67300
O 	O 	0.37937 0.01443 0.94843 -0.65200
O 	O 	0.42927 0.06733 0.33683 -0.77300
O 	O 	0.39007 0.14483 0.00653 -0.53900
C 	C 	0.43587 0.02873 0.87563 0.63100
Mg	Mg	0.21403 0.38197 0.09297 1.45700
Mg	Mg	0.01843 0.38667 0.50337 1.45700
O 	O 	0.14883 0.37077 0.31987 -0.81800
O 	O 	0.10763 0.34597 0.03987 -0.80100
O 	O 	0.04603 0.34777 0.28177 -0.82300
O 	O 	0.09593 0.40067 0.67017 -0.82600
O 	O 	0.05673 0.47817 0.33987 -0.59500
C 	C 	0.10253 0.36207 0.20897 0.65700
Mg	Mg	0.83460 0.11930 0.42630 1.46300
Mg	Mg	0.03490 0.31490 0.83670 1.46100
O 	O 	0.88860 0.18450 0.65320 -0.77000
O 	O 	0.90500 0.22570 0.37320 -0.71800
O 	O 	0.96840 0.28730 0.61510 -0.68200
O 	O 	0.97140 0.23740 0.00350 -0.75900
O 	O 	0.08810 0.27660 0.67320 -0.52600
C 	C 	0.92620 0.23080 0.54230 0.65800
Mg	Mg	0.50127 0.45263 0.75963 1.46100
Mg	Mg	0.70157 0.64823 0.17003 1.46700
O 	O 	0.55527 0.51783 0.98653 -0.76900
O 	O 	0.57167 0.55903 0.70653 -0.73000
O 	O 	0.63507 0.62063 0.94843 -0.70600
O 	O 	0.63807 0.57073 0.33683 -0.80600
O 	O 	0.75477 0.60993 0.00653 -0.54100
C 	C 	0.59287 0.56413 0.87563 0.64400
Mg	Mg	0.16793 0.78597 0.09297 1.45700
Mg	Mg	0.36823 0.98157 0.50337 1.45700
O 	O 	0.22193 0.85117 0.31987 -0.82300
O 	O 	0.23833 0.89237 0.03987 -0.80700
O 	O 	0.30173 0.95397 0.28177 -0.82600
O 	O 	0.30473 0.90407 0.67017 -0.82600
O 	O 	0.42143 0.94327 0.33987 -0.59500
C 	C 	0.25953 0.89747 0.20897 0.65700
Mg	Mg	0.28470 0.16540 0.42630 1.46100
Mg	Mg	0.28000 0.96510 0.83670 1.46100
O 	O 	0.29590 0.11140 0.65320 -0.78300
O 	O 	0.32070 0.09500 0.37320 -0.72400
O 	O 	0.31890 0.03160 0.61510 -0.68300
O 	O 	0.26600 0.02860 0.00350 -0.77500
O 	O 	0.18850 0.91190 0.67320 -0.55000
C 	C 	0.30460 0.07380 0.54230 0.65300
Mg	Mg	0.95137 0.49873 0.75963 1.46500
Mg	Mg	0.94667 0.29843 0.17003 1.47100
O 	O 	0.96257 0.44473 0.98653 -0.73400
O 	O 	0.98737 0.42833 0.70653 -0.67400
O 	O 	0.98557 0.36493 0.94843 -0.65300
O 	O 	0.93267 0.36193 0.33683 -0.77300
O 	O 	0.85517 0.24523 0.00653 -0.53900
C 	C 	0.97127 0.40713 0.87563 0.63100
Mg	Mg	0.61803 0.83207 0.09297 1.45700
Mg	Mg	0.61333 0.63177 0.50337 1.46900
O 	O 	0.62923 0.77807 0.31987 -0.81100
O 	O 	0.65403 0.76167 0.03987 -0.77100
O 	O 	0.65223 0.69827 0.28177 -0.75300
O 	O 	0.59933 0.69527 0.67017 -0.78300
O 	O 	0.52183 0.57857 0.33987 -0.52000
C 	C 	0.63793 0.74047 0.20897 0.65000
