data_crystal

_cell_length_a 7.95100
_cell_length_b 16.81900
_cell_length_c 15.18900
_cell_angle_alpha 90.00000
_cell_angle_beta  104.29000
_cell_angle_gamma 90.00000

_symmetry_space_group_name_	'P 1'
_symmetry_space_group_name_H-M	'P 1'

loop_
_symmetry_equiv_pos_as_xyz
  x,y,z

loop_
_atom_site_label
_atom_site_type_symbol
_atom_site_fract_x
_atom_site_fract_y
_atom_site_fract_z
_atom_site_charge
Mo	Mo	0.18692 0.66443 0.33848 1.05100
Mn	Mn	0.32830 0.56050 0.69242 1.15700
N 	N 	0.27850 0.59340 0.54940 -0.26100
N 	N 	0.48090 0.53470 0.30850 -0.27600
N 	N 	0.10830 0.47640 0.67020 -0.26100
N 	N 	0.19470 0.83160 0.22910 -0.26700
N 	N 	0.99530 0.62900 0.12430 -0.28600
N 	N 	0.53740 0.76470 0.44120 -0.29900
N 	N 	0.93810 0.77890 0.42990 -0.28100
C 	C 	0.24870 0.61780 0.47620 -0.17200
C 	C 	0.37570 0.57920 0.31540 -0.20000
C 	C 	0.00610 0.42740 0.66480 -0.18700
C 	C 	0.19430 0.77120 0.26460 -0.22000
C 	C 	0.06400 0.64090 0.19900 -0.22200
C 	C 	0.41450 0.73010 0.40790 -0.19500
C 	C 	0.02000 0.73900 0.39490 -0.20400
Mn	Mn	0.77584 0.67735 0.01643 1.12000
Mo	Mo	0.81308 0.16443 0.16152 1.04900
Mn	Mn	0.67170 0.06050 0.80758 1.15400
N 	N 	0.72150 0.09340 0.95060 -0.26500
N 	N 	0.51910 0.03470 0.19150 -0.27500
N 	N 	0.89170 0.97640 0.82980 -0.26000
N 	N 	0.80530 0.33160 0.27090 -0.26700
N 	N 	0.00470 0.12900 0.37570 -0.28300
N 	N 	0.46260 0.26470 0.05880 -0.29800
N 	N 	0.06190 0.27890 0.07010 -0.27700
C 	C 	0.75130 0.11780 0.02380 -0.16600
C 	C 	0.62430 0.07920 0.18460 -0.20000
C 	C 	0.99390 0.92740 0.83520 -0.18300
C 	C 	0.80570 0.27120 0.23540 -0.22000
C 	C 	0.93600 0.14090 0.30100 -0.22600
C 	C 	0.58550 0.23010 0.09210 -0.19400
C 	C 	0.98000 0.23900 0.10510 -0.20600
Mn	Mn	0.22416 0.17735 0.48357 1.12100
Mo	Mo	0.81308 0.33557 0.66152 1.05000
Mn	Mn	0.67170 0.43950 0.30758 1.15600
N 	N 	0.72150 0.40660 0.45060 -0.26100
N 	N 	0.51910 0.46530 0.69150 -0.27600
N 	N 	0.89170 0.52360 0.32980 -0.26100
N 	N 	0.80530 0.16840 0.77090 -0.26700
N 	N 	0.00470 0.37100 0.87570 -0.28600
N 	N 	0.46260 0.23530 0.55880 -0.29900
N 	N 	0.06190 0.22110 0.57010 -0.28100
C 	C 	0.75130 0.38220 0.52380 -0.17200
C 	C 	0.62430 0.42080 0.68460 -0.20000
C 	C 	0.99390 0.57260 0.33520 -0.18700
C 	C 	0.80570 0.22880 0.73540 -0.22000
C 	C 	0.93600 0.35910 0.80100 -0.22200
C 	C 	0.58550 0.26990 0.59210 -0.19500
C 	C 	0.98000 0.26100 0.60510 -0.20400
Mn	Mn	0.22416 0.32265 0.98357 1.12000
Mo	Mo	0.18692 0.83557 0.83848 1.04900
Mn	Mn	0.32830 0.93950 0.19242 1.15400
N 	N 	0.27850 0.90660 0.04940 -0.26500
N 	N 	0.48090 0.96530 0.80850 -0.27500
N 	N 	0.10830 0.02360 0.17020 -0.26000
N 	N 	0.19470 0.66840 0.72910 -0.26700
N 	N 	0.99530 0.87100 0.62430 -0.28300
N 	N 	0.53740 0.73530 0.94120 -0.29800
N 	N 	0.93810 0.72110 0.92990 -0.27700
C 	C 	0.24870 0.88220 0.97620 -0.16600
C 	C 	0.37570 0.92080 0.81540 -0.20000
C 	C 	0.00610 0.07260 0.16480 -0.18300
C 	C 	0.19430 0.72880 0.76460 -0.22000
C 	C 	0.06400 0.85910 0.69900 -0.22600
C 	C 	0.41450 0.76990 0.90790 -0.19400
C 	C 	0.02000 0.76100 0.89490 -0.20600
Mn	Mn	0.77584 0.82265 0.51643 1.12100
