data_crystal

_cell_length_a 12.65390
_cell_length_b 12.65390
_cell_length_c 15.11510
_cell_angle_alpha 90.00000
_cell_angle_beta  90.00000
_cell_angle_gamma 120.00000

_symmetry_space_group_name_	'P 1'
_symmetry_space_group_name_H-M	'P 1'

loop_
_symmetry_equiv_pos_as_xyz
  x,y,z

loop_
_atom_site_label
_atom_site_type_symbol
_atom_site_fract_x
_atom_site_fract_y
_atom_site_fract_z
_atom_site_charge
Ti	Ti	0.52750 0.21230 0.35853 3.11300
Ti	Ti	0.49026 0.75639 0.81731 3.12400
O 	O 	0.43225 0.68870 0.70891 -0.75600
O 	O 	0.48479 0.31651 0.41903 -0.81800
O 	O 	0.61320 0.48320 0.46866 -0.74600
O 	O 	0.49798 0.62502 0.86057 -0.92900
O 	O 	0.56028 0.31810 0.25412 -0.84200
O 	O 	0.33190 0.49407 0.92108 -0.86400
O 	O 	0.52705 0.41053 0.32778 -0.90900
O 	O 	0.39440 0.50384 0.76780 -0.78800
C 	C 	0.50300 0.39620 0.47915 0.57100
C 	C 	0.43740 0.59610 0.72361 0.30200
C 	C 	0.40254 0.42000 0.52076 -0.14500
C 	C 	0.54032 0.60331 0.66622 -0.10700
C 	C 	0.41218 0.54752 0.52254 0.04400
C 	C 	0.53781 0.48142 0.65561 0.05200
C 	C 	0.52183 0.64615 0.57513 0.02300
C 	C 	0.42050 0.38448 0.61224 -0.00900
C 	C 	0.49477 0.43394 0.99883 -0.01300
C 	C 	0.47050 0.41238 0.16183 -0.16400
C 	C 	0.53724 0.40007 0.08186 0.05300
C 	C 	0.49814 0.54358 0.17193 -0.03800
C 	C 	0.47710 0.59594 0.08916 0.02200
C 	C 	0.52466 0.56616 0.00562 -0.12000
C 	C 	0.44351 0.56912 0.93002 0.57700
C 	C 	0.51332 0.38860 0.24951 0.47300
Ti	Ti	0.78770 0.31520 0.35853 3.11200
Ti	Ti	0.24361 0.73387 0.81731 3.12400
O 	O 	0.31130 0.74355 0.70891 -0.75400
O 	O 	0.68349 0.16828 0.41903 -0.81800
O 	O 	0.51680 0.13000 0.46866 -0.74500
O 	O 	0.37498 0.87296 0.86057 -0.92200
O 	O 	0.68190 0.24218 0.25412 -0.84400
O 	O 	0.50593 0.83783 0.92108 -0.85900
O 	O 	0.58947 0.11652 0.32778 -0.91700
O 	O 	0.49616 0.89056 0.76780 -0.77900
C 	C 	0.60380 0.10680 0.47915 0.54900
C 	C 	0.40390 0.84130 0.72361 0.29600
C 	C 	0.58000 0.98254 0.52076 -0.10800
C 	C 	0.39669 0.93701 0.66622 -0.08500
C 	C 	0.45248 0.86466 0.52254 0.04100
C 	C 	0.51858 0.05639 0.65561 0.03500
C 	C 	0.35385 0.87568 0.57513 0.03000
C 	C 	0.61552 0.03602 0.61224 -0.03600
C 	C 	0.56606 0.06083 0.99883 -0.04000
C 	C 	0.58762 0.05812 0.16183 -0.19300
C 	C 	0.59993 0.13717 0.08186 0.05700
C 	C 	0.45642 0.95456 0.17193 -0.00800
C 	C 	0.40406 0.88116 0.08916 0.01600
C 	C 	0.43384 0.95850 0.00562 -0.09100
C 	C 	0.43088 0.87439 0.93002 0.57300
C 	C 	0.61140 0.12472 0.24951 0.47400
Ti	Ti	0.68480 0.47250 0.35853 3.11200
Ti	Ti	0.26613 0.50974 0.81731 3.12300
O 	O 	0.25645 0.56775 0.70891 -0.75600
O 	O 	0.83172 0.51521 0.41903 -0.81400
O 	O 	0.87000 0.38680 0.46866 -0.74800
O 	O 	0.12704 0.50202 0.86057 -0.92500
O 	O 	0.75782 0.43972 0.25412 -0.84100
O 	O 	0.16217 0.66810 0.92108 -0.85600
O 	O 	0.88348 0.47295 0.32778 -0.91700
O 	O 	0.10944 0.60560 0.76780 -0.77700
C 	C 	0.89320 0.49700 0.47915 0.54900
C 	C 	0.15870 0.56260 0.72361 0.29600
C 	C 	0.01746 0.59746 0.52076 -0.10500
C 	C 	0.06299 0.45968 0.66622 -0.08700
C 	C 	0.13534 0.58782 0.52254 0.04300
C 	C 	0.94361 0.46219 0.65561 0.03400
C 	C 	0.12432 0.47817 0.57513 0.02500
C 	C 	0.96398 0.57950 0.61224 -0.03100
C 	C 	0.93917 0.50523 0.99883 -0.03700
C 	C 	0.94188 0.52950 0.16183 -0.18900
C 	C 	0.86283 0.46276 0.08186 0.05700
C 	C 	0.04544 0.50186 0.17193 -0.01100
C 	C 	0.11884 0.52290 0.08916 0.01600
C 	C 	0.04150 0.47534 0.00562 -0.09500
C 	C 	0.12561 0.55649 0.93002 0.57400
C 	C 	0.87528 0.48668 0.24951 0.47400
O 	O 	0.66667 0.33333 0.40397 -1.63400
O 	O 	0.33333 0.66667 0.84779 -1.69400
