data_crystal

_cell_length_a 10.48800
_cell_length_b 10.21200
_cell_length_c 11.27300
_cell_angle_alpha 90.00000
_cell_angle_beta  92.89000
_cell_angle_gamma 90.00000

_symmetry_space_group_name_	'P 1'
_symmetry_space_group_name_H-M	'P 1'

loop_
_symmetry_equiv_pos_as_xyz
  x,y,z

loop_
_atom_site_label
_atom_site_type_symbol
_atom_site_fract_x
_atom_site_fract_y
_atom_site_fract_z
_atom_site_charge
Cd	Cd	0.63410 0.13621 0.60660 1.15300
S 	S 	0.39839 0.14701 0.56416 -0.44600
N 	N 	0.29090 0.90660 0.57120 -0.26000
N 	N 	0.23660 0.82410 0.65190 -0.25600
N 	N 	0.31070 0.99950 0.74930 -0.29200
C 	C 	0.33380 0.01130 0.63240 0.08200
C 	C 	0.25090 0.88330 0.75560 0.06100
H 	H 	0.22260 0.84840 0.82580 -0.04200
Cd	Cd	0.13410 0.63621 0.60660 1.15500
S 	S 	0.89839 0.64701 0.56416 -0.44600
N 	N 	0.79090 0.40660 0.57120 -0.26100
N 	N 	0.73660 0.32410 0.65190 -0.25700
N 	N 	0.81070 0.49950 0.74930 -0.29500
C 	C 	0.83380 0.51130 0.63240 0.08600
C 	C 	0.75090 0.38330 0.75560 0.06000
H 	H 	0.72260 0.34840 0.82580 -0.04400
Cd	Cd	0.36590 0.13621 0.89340 1.15400
S 	S 	0.60161 0.14701 0.93584 -0.44900
N 	N 	0.70910 0.90660 0.92880 -0.25700
N 	N 	0.76340 0.82410 0.84810 -0.25700
N 	N 	0.68930 0.99950 0.75070 -0.29100
C 	C 	0.66620 0.01130 0.86760 0.07800
C 	C 	0.74910 0.88330 0.74440 0.06100
H 	H 	0.77740 0.84840 0.67420 -0.04300
Cd	Cd	0.86590 0.63621 0.89340 1.15400
S 	S 	0.10161 0.64701 0.93584 -0.44100
N 	N 	0.20910 0.40660 0.92880 -0.26100
N 	N 	0.26340 0.32410 0.84810 -0.25700
N 	N 	0.18930 0.49950 0.75070 -0.29400
C 	C 	0.16620 0.51130 0.86760 0.08600
C 	C 	0.24910 0.38330 0.74440 0.06100
H 	H 	0.27740 0.34840 0.67420 -0.04300
Cd	Cd	0.36590 0.86379 0.39340 1.15400
S 	S 	0.60161 0.85299 0.43584 -0.44500
N 	N 	0.70910 0.09340 0.42880 -0.26000
N 	N 	0.76340 0.17590 0.34810 -0.25600
N 	N 	0.68930 0.00050 0.25070 -0.29200
C 	C 	0.66620 0.98870 0.36760 0.08200
C 	C 	0.74910 0.11670 0.24440 0.06100
H 	H 	0.77740 0.15160 0.17420 -0.04200
Cd	Cd	0.86590 0.36379 0.39340 1.15500
S 	S 	0.10161 0.35299 0.43584 -0.44600
N 	N 	0.20910 0.59340 0.42880 -0.26100
N 	N 	0.26340 0.67590 0.34810 -0.25700
N 	N 	0.18930 0.50050 0.25070 -0.29500
C 	C 	0.16620 0.48870 0.36760 0.08600
C 	C 	0.24910 0.61670 0.24440 0.06000
H 	H 	0.27740 0.65160 0.17420 -0.04400
Cd	Cd	0.63410 0.86379 0.10660 1.15400
S 	S 	0.39839 0.85299 0.06416 -0.44900
N 	N 	0.29090 0.09340 0.07120 -0.25700
N 	N 	0.23660 0.17590 0.15190 -0.25700
N 	N 	0.31070 0.00050 0.24930 -0.29100
C 	C 	0.33380 0.98870 0.13240 0.07800
C 	C 	0.25090 0.11670 0.25560 0.06100
H 	H 	0.22260 0.15160 0.32580 -0.04300
Cd	Cd	0.13410 0.36379 0.10660 1.15400
S 	S 	0.89839 0.35299 0.06416 -0.44100
N 	N 	0.79090 0.59340 0.07120 -0.26100
N 	N 	0.73660 0.67590 0.15190 -0.25700
N 	N 	0.81070 0.50050 0.24930 -0.29400
C 	C 	0.83380 0.48870 0.13240 0.08600
C 	C 	0.75090 0.61670 0.25560 0.06100
H 	H 	0.72260 0.65160 0.32580 -0.04300
