data_crystal

_cell_length_a 14.96470
_cell_length_b 18.43300
_cell_length_c 17.25570
_cell_angle_alpha 90.00000
_cell_angle_beta  111.51700
_cell_angle_gamma 90.00000

_symmetry_space_group_name_	'P 1'
_symmetry_space_group_name_H-M	'P 1'

loop_
_symmetry_equiv_pos_as_xyz
  x,y,z

loop_
_atom_site_label
_atom_site_type_symbol
_atom_site_fract_x
_atom_site_fract_y
_atom_site_fract_z
_atom_site_charge
Cd	Cd	0.03938 0.25088 0.38962 1.20300
Cd	Cd	0.48154 0.98240 0.82811 1.09500
O 	O 	0.16060 0.15564 0.42990 -0.40000
O 	O 	0.03720 0.14825 0.31150 -0.40200
O 	O 	0.96280 0.91583 0.16710 -0.33700
O 	O 	0.06800 0.82596 0.19850 -0.43300
N 	N 	0.32330 0.00000 0.73430 -0.30500
N 	N 	0.91120 0.19720 0.42270 -0.23100
N 	N 	0.64620 0.49987 0.40160 -0.31100
N 	N 	0.11780 0.30690 0.51630 -0.24800
C 	C 	0.13790 0.04240 0.63170 0.18000
C 	C 	0.21780 0.06740 0.61820 -0.23700
H 	H 	0.21140 0.09950 0.57490 0.11900
C 	C 	0.30720 0.04390 0.66970 0.12300
H 	H 	0.36010 0.06000 0.65850 -0.07600
C 	C 	0.24560 0.97450 0.74530 0.11700
H 	H 	0.25410 0.94260 0.78920 -0.06800
C 	C 	0.15410 0.99250 0.69540 -0.23900
H 	H 	0.10230 0.97120 0.70420 0.11700
C 	C 	0.03990 0.06650 0.58250 -0.13300
H 	H 	0.98970 0.04040 0.58850 0.08500
C 	C 	0.01700 0.12140 0.53080 -0.06200
H 	H 	0.06730 0.14840 0.52630 0.02500
C 	C 	0.91920 0.14460 0.47920 0.10500
C 	C 	0.82310 0.21760 0.37350 0.06600
H 	H 	0.81730 0.25270 0.33320 -0.01100
C 	C 	0.74030 0.18960 0.37900 -0.15400
H 	H 	0.68030 0.20650 0.34440 0.04200
C 	C 	0.74810 0.13640 0.43630 0.06900
H 	H 	0.69340 0.11560 0.44050 -0.02000
C 	C 	0.83800 0.11400 0.48770 -0.15900
H 	H 	0.84470 0.07880 0.52800 0.09200
C 	C 	0.83600 0.45370 0.48660 0.16000
C 	C 	0.78540 0.43430 0.40390 -0.21300
H 	H 	0.81400 0.40520 0.37550 0.10400
C 	C 	0.69220 0.45870 0.36430 0.09900
H 	H 	0.65980 0.44580 0.30890 -0.07100
C 	C 	0.69460 0.51800 0.48040 0.12200
H 	H 	0.66380 0.54640 0.50760 -0.09900
C 	C 	0.78730 0.49710 0.52380 -0.23800
H 	H 	0.81800 0.51200 0.57870 0.11300
C 	C 	0.93480 0.43050 0.53260 -0.12500
H 	H 	0.96740 0.45360 0.58300 0.08400
C 	C 	0.98260 0.37980 0.50920 -0.06200
H 	H 	0.94960 0.35610 0.45930 0.02000
C 	C 	0.08160 0.35720 0.55400 0.10100
C 	C 	0.20960 0.28710 0.55330 0.05500
H 	H 	0.23410 0.25260 0.52700 -0.02300
C 	C 	0.27070 0.31530 0.62910 -0.14800
H 	H 	0.33460 0.30080 0.65260 0.03300
C 	C 	0.23350 0.36500 0.66800 0.05900
H 	H 	0.27150 0.38380 0.71960 -0.01800
C 	C 	0.13980 0.38680 0.63030 -0.15300
H 	H 	0.11490 0.42160 0.65570 0.08900
C 	C 	0.11480 0.12330 0.36420 0.31700
C 	C 	0.14840 0.05100 0.34640 -0.12900
C 	C 	0.08710 0.00640 0.28460 0.06000
H 	H 	0.02580 0.02290 0.25290 0.02700
C 	C 	0.11530 0.93780 0.26930 -0.14000
C 	C 	0.20860 0.91490 0.31430 0.05200
H 	H 	0.22930 0.86970 0.30390 0.00700
C 	C 	0.27070 0.96000 0.37490 -0.14600
H 	H 	0.33360 0.94510 0.40370 0.05200
C 	C 	0.24060 0.02610 0.39280 0.05500
H 	H 	0.28160 0.05430 0.43580 0.00600
C 	C 	0.04250 0.89040 0.20720 0.34900
Cd	Cd	0.96062 0.75088 0.11038 1.20100
Cd	Cd	0.51846 0.48240 0.67189 1.09700
O 	O 	0.83940 0.65564 0.07010 -0.40100
O 	O 	0.96280 0.64825 0.18850 -0.40100
O 	O 	0.03720 0.41583 0.33290 -0.32800
O 	O 	0.93200 0.32596 0.30150 -0.43100
N 	N 	0.67670 0.50000 0.76570 -0.30900
N 	N 	0.08880 0.69720 0.07730 -0.23100
N 	N 	0.35380 0.99987 0.09840 -0.32300
N 	N 	0.88220 0.80690 0.98370 -0.24600
C 	C 	0.86210 0.54240 0.86830 0.16100
C 	C 	0.78220 0.56740 0.88180 -0.22800
H 	H 	0.78860 0.59950 0.92510 0.11600
C 	C 	0.69280 0.54390 0.83030 0.11600
H 	H 	0.63990 0.56000 0.84150 -0.07600
C 	C 	0.75440 0.47450 0.75470 0.12000
H 	H 	0.74590 0.44260 0.71080 -0.06700
C 	C 	0.84590 0.49250 0.80460 -0.22200
H 	H 	0.89770 0.47120 0.79580 0.11400
C 	C 	0.96010 0.56650 0.91750 -0.11600
H 	H 	0.01030 0.54040 0.91150 0.07300
C 	C 	0.98300 0.62140 0.96920 -0.06900
H 	H 	0.93270 0.64840 0.97370 0.02800
C 	C 	0.08080 0.64460 0.02080 0.10500
C 	C 	0.17690 0.71760 0.12650 0.06700
H 	H 	0.18270 0.75270 0.16680 -0.01100
C 	C 	0.25970 0.68960 0.12100 -0.15600
H 	H 	0.31970 0.70650 0.15560 0.04200
C 	C 	0.25190 0.63640 0.06370 0.07000
H 	H 	0.30660 0.61560 0.05950 -0.02300
C 	C 	0.16200 0.61400 0.01230 -0.16400
H 	H 	0.15530 0.57880 0.97200 0.09200
C 	C 	0.16400 0.95370 0.01340 0.17900
C 	C 	0.21460 0.93430 0.09610 -0.22700
H 	H 	0.18600 0.90520 0.12450 0.10900
C 	C 	0.30780 0.95870 0.13570 0.10600
H 	H 	0.34020 0.94580 0.19110 -0.07500
C 	C 	0.30540 0.01800 0.01960 0.15100
H 	H 	0.33620 0.04640 0.99240 -0.10500
C 	C 	0.21270 0.99710 0.97620 -0.28100
H 	H 	0.18200 0.01200 0.92130 0.13400
C 	C 	0.06520 0.93050 0.96740 -0.13700
H 	H 	0.03260 0.95360 0.91700 0.08600
C 	C 	0.01740 0.87980 0.99080 -0.05700
H 	H 	0.05040 0.85610 0.04070 0.01800
C 	C 	0.91840 0.85720 0.94600 0.09900
C 	C 	0.79040 0.78710 0.94670 0.05400
H 	H 	0.76590 0.75260 0.97300 -0.02200
C 	C 	0.72930 0.81530 0.87090 -0.14800
H 	H 	0.66540 0.80080 0.84740 0.03200
C 	C 	0.76650 0.86500 0.83200 0.05700
H 	H 	0.72850 0.88380 0.78040 -0.01900
C 	C 	0.86020 0.88680 0.86970 -0.15200
H 	H 	0.88510 0.92160 0.84430 0.08700
C 	C 	0.88520 0.62330 0.13580 0.31000
C 	C 	0.85160 0.55100 0.15360 -0.11100
C 	C 	0.91290 0.50640 0.21540 0.03300
H 	H 	0.97420 0.52290 0.24710 0.03400
C 	C 	0.88470 0.43780 0.23070 -0.11600
C 	C 	0.79140 0.41490 0.18570 0.02800
H 	H 	0.77070 0.36970 0.19610 0.01500
C 	C 	0.72930 0.46000 0.12510 -0.11300
H 	H 	0.66640 0.44510 0.09630 0.04200
C 	C 	0.75940 0.52610 0.10720 0.02300
H 	H 	0.71840 0.55430 0.06420 0.01400
C 	C 	0.95750 0.39040 0.29280 0.33600
Cd	Cd	0.96062 0.74912 0.61038 1.20200
Cd	Cd	0.51846 0.01760 0.17189 1.09900
O 	O 	0.83940 0.84436 0.57010 -0.39600
O 	O 	0.96280 0.85175 0.68850 -0.39800
O 	O 	0.03720 0.08417 0.83290 -0.32600
O 	O 	0.93200 0.17404 0.80150 -0.42800
N 	N 	0.67670 0.00000 0.26570 -0.29800
N 	N 	0.08880 0.80280 0.57730 -0.23300
N 	N 	0.35380 0.50013 0.59840 -0.31100
N 	N 	0.88220 0.69310 0.48370 -0.24800
C 	C 	0.86210 0.95760 0.36830 0.13400
C 	C 	0.78220 0.93260 0.38180 -0.20900
H 	H 	0.78860 0.90050 0.42510 0.10700
C 	C 	0.69280 0.95610 0.33030 0.09400
H 	H 	0.63990 0.94000 0.34150 -0.07100
C 	C 	0.75440 0.02550 0.25470 0.10800
H 	H 	0.74590 0.05740 0.21080 -0.06200
C 	C 	0.84590 0.00750 0.30460 -0.19300
H 	H 	0.89770 0.02880 0.29580 0.10600
C 	C 	0.96010 0.93350 0.41750 -0.10800
H 	H 	0.01030 0.95960 0.41150 0.07000
C 	C 	0.98300 0.87860 0.46920 -0.08100
H 	H 	0.93270 0.85160 0.47370 0.03100
C 	C 	0.08080 0.85540 0.52080 0.11100
C 	C 	0.17690 0.78240 0.62650 0.06700
H 	H 	0.18270 0.74730 0.66680 -0.01200
C 	C 	0.25970 0.81040 0.62100 -0.15700
H 	H 	0.31970 0.79350 0.65560 0.04200
C 	C 	0.25190 0.86360 0.56370 0.07100
H 	H 	0.30660 0.88440 0.55950 -0.02400
C 	C 	0.16200 0.88600 0.51230 -0.16500
H 	H 	0.15530 0.92120 0.47200 0.09100
C 	C 	0.16400 0.54630 0.51340 0.16000
C 	C 	0.21460 0.56570 0.59610 -0.21300
H 	H 	0.18600 0.59480 0.62450 0.10400
C 	C 	0.30780 0.54130 0.63570 0.09900
H 	H 	0.34020 0.55420 0.69110 -0.07100
C 	C 	0.30540 0.48200 0.51960 0.12200
H 	H 	0.33620 0.45360 0.49240 -0.09900
C 	C 	0.21270 0.50290 0.47620 -0.23800
H 	H 	0.18200 0.48800 0.42130 0.11300
C 	C 	0.06520 0.56950 0.46740 -0.12500
H 	H 	0.03260 0.54640 0.41700 0.08400
C 	C 	0.01740 0.62020 0.49080 -0.06200
H 	H 	0.05040 0.64390 0.54070 0.02000
C 	C 	0.91840 0.64280 0.44600 0.10100
C 	C 	0.79040 0.71290 0.44670 0.05500
H 	H 	0.76590 0.74740 0.47300 -0.02300
C 	C 	0.72930 0.68470 0.37090 -0.14900
H 	H 	0.66540 0.69920 0.34740 0.03200
C 	C 	0.76650 0.63500 0.33200 0.05900
H 	H 	0.72850 0.61620 0.28040 -0.01800
C 	C 	0.86020 0.61320 0.36970 -0.15300
H 	H 	0.88510 0.57840 0.34430 0.08900
C 	C 	0.88520 0.87670 0.63580 0.29900
C 	C 	0.85160 0.94900 0.65360 -0.08400
C 	C 	0.91290 0.99360 0.71540 -0.00600
H 	H 	0.97420 0.97710 0.74710 0.04400
C 	C 	0.88470 0.06220 0.73070 -0.08200
C 	C 	0.79140 0.08510 0.68570 -0.00600
H 	H 	0.77070 0.13030 0.69610 0.02800
C 	C 	0.72930 0.04000 0.62510 -0.06500
H 	H 	0.66640 0.05490 0.59630 0.02800
C 	C 	0.75940 0.97390 0.60720 -0.02300
H 	H 	0.71840 0.94570 0.56420 0.02900
C 	C 	0.95750 0.10960 0.79280 0.33000
Cd	Cd	0.03938 0.24912 0.88962 1.20200
Cd	Cd	0.48154 0.51760 0.32811 1.09700
O 	O 	0.16060 0.34436 0.92990 -0.39700
O 	O 	0.03720 0.35175 0.81150 -0.40100
O 	O 	0.96280 0.58417 0.66710 -0.32800
O 	O 	0.06800 0.67404 0.69850 -0.43000
N 	N 	0.32330 0.50000 0.23430 -0.30900
N 	N 	0.91120 0.30280 0.92270 -0.23100
N 	N 	0.64620 0.00013 0.90160 -0.29900
N 	N 	0.11780 0.19310 0.01630 -0.25000
C 	C 	0.13790 0.45760 0.13170 0.15800
C 	C 	0.21780 0.43260 0.11820 -0.22600
H 	H 	0.21140 0.40050 0.07490 0.11400
C 	C 	0.30720 0.45610 0.16970 0.11500
H 	H 	0.36010 0.44000 0.15850 -0.07600
C 	C 	0.24560 0.52550 0.24530 0.11900
H 	H 	0.25410 0.55740 0.28920 -0.06700
C 	C 	0.15410 0.50750 0.19540 -0.22100
H 	H 	0.10230 0.52880 0.20420 0.11300
C 	C 	0.03990 0.43350 0.08250 -0.11200
H 	H 	0.98970 0.45960 0.08850 0.07100
C 	C 	0.01700 0.37860 0.03080 -0.07600
H 	H 	0.06730 0.35160 0.02630 0.02900
C 	C 	0.91920 0.35540 0.97920 0.10800
C 	C 	0.82310 0.28240 0.87350 0.06400
H 	H 	0.81730 0.24730 0.83320 -0.01100
C 	C 	0.74030 0.31040 0.87900 -0.15000
H 	H 	0.68030 0.29350 0.84440 0.04100
C 	C 	0.74810 0.36360 0.93630 0.06200
H 	H 	0.69340 0.38440 0.94050 -0.01800
C 	C 	0.83800 0.38600 0.98770 -0.15000
H 	H 	0.84470 0.42120 0.02800 0.08400
C 	C 	0.83600 0.04630 0.98660 0.15400
C 	C 	0.78540 0.06570 0.90390 -0.20400
H 	H 	0.81400 0.09480 0.87550 0.10200
C 	C 	0.69220 0.04130 0.86430 0.09600
H 	H 	0.65980 0.05420 0.80890 -0.06800
C 	C 	0.69460 0.98200 0.98040 0.09100
H 	H 	0.66380 0.95360 0.00760 -0.09300
C 	C 	0.78730 0.00290 0.02380 -0.20400
H 	H 	0.81800 0.98800 0.07870 0.09400
C 	C 	0.93480 0.06950 0.03260 -0.11700
H 	H 	0.96740 0.04640 0.08300 0.08300
C 	C 	0.98260 0.12020 0.00920 -0.08000
H 	H 	0.94960 0.14390 0.95930 0.03000
C 	C 	0.08160 0.14280 0.05400 0.10900
C 	C 	0.20960 0.21290 0.05330 0.05700
H 	H 	0.23410 0.24740 0.02700 -0.02400
C 	C 	0.27070 0.18470 0.12910 -0.15100
H 	H 	0.33460 0.19920 0.15260 0.03400
C 	C 	0.23350 0.13500 0.16800 0.06400
H 	H 	0.27150 0.11620 0.21960 -0.01800
C 	C 	0.13980 0.11320 0.13030 -0.15800
H 	H 	0.11490 0.07840 0.15570 0.09300
C 	C 	0.11480 0.37670 0.86420 0.30900
C 	C 	0.14840 0.44900 0.84640 -0.11000
C 	C 	0.08710 0.49360 0.78460 0.03300
H 	H 	0.02580 0.47710 0.75290 0.03400
C 	C 	0.11530 0.56220 0.76930 -0.11600
C 	C 	0.20860 0.58510 0.81430 0.02700
H 	H 	0.22930 0.63030 0.80390 0.01600
C 	C 	0.27070 0.54000 0.87490 -0.11200
H 	H 	0.33360 0.55490 0.90370 0.04300
C 	C 	0.24060 0.47390 0.89280 0.02200
H 	H 	0.28160 0.44570 0.93580 0.01600
C 	C 	0.04250 0.60960 0.70720 0.33600
