data_crystal

_cell_length_a 14.85500
_cell_length_b 18.34970
_cell_length_c 17.30740
_cell_angle_alpha 90.00000
_cell_angle_beta  109.78600
_cell_angle_gamma 90.00000

_symmetry_space_group_name_	'P 1'
_symmetry_space_group_name_H-M	'P 1'

loop_
_symmetry_equiv_pos_as_xyz
  x,y,z

loop_
_atom_site_label
_atom_site_type_symbol
_atom_site_fract_x
_atom_site_fract_y
_atom_site_fract_z
_atom_site_charge
Cd	Cd	0.96006 0.75173 0.10537 1.20300
Cd	Cd	0.51374 0.49090 0.66842 1.09800
O 	O 	0.97498 0.64952 0.19184 -0.38100
O 	O 	0.85238 0.65389 0.07730 -0.39600
O 	O 	0.04324 0.41291 0.33637 -0.31900
O 	O 	0.93333 0.32631 0.30939 -0.42100
O 	O 	0.64498 0.44485 0.09739 -0.44400
H 	H 	0.62570 0.41610 0.12460 0.22100
N 	N 	0.08613 0.69566 0.06806 -0.22900
N 	N 	0.67109 0.51058 0.75844 -0.30300
N 	N 	0.87886 0.80696 0.98197 -0.25100
N 	N 	0.34960 0.99633 0.09453 -0.31000
C 	C 	0.07680 0.64149 0.01349 0.10900
C 	C 	0.17480 0.71480 0.11580 0.06000
H 	H 	0.18150 0.75160 0.15420 -0.01100
C 	C 	0.25590 0.68260 0.11060 -0.14100
H 	H 	0.31610 0.69800 0.14420 0.04200
C 	C 	0.24670 0.62730 0.05480 0.05800
H 	H 	0.30040 0.60420 0.05020 0.00100
C 	C 	0.15680 0.60700 0.00620 -0.15000
H 	H 	0.14910 0.56980 0.96800 0.09000
C 	C 	0.97940 0.62163 0.96260 -0.07800
H 	H 	0.93070 0.65260 0.96460 0.03200
C 	C 	0.95390 0.56450 0.91460 -0.10300
H 	H 	0.00250 0.53340 0.91250 0.06900
C 	C 	0.85590 0.54517 0.86380 0.14500
C 	C 	0.77580 0.57842 0.87190 -0.20500
H 	H 	0.78220 0.61300 0.91270 0.10400
C 	C 	0.68610 0.55954 0.81868 0.10000
H 	H 	0.63320 0.58230 0.82520 -0.06900
C 	C 	0.74780 0.47620 0.75360 0.11200
H 	H 	0.73910 0.44040 0.71370 -0.06400
C 	C 	0.83900 0.49090 0.80440 -0.20700
H 	H 	0.89000 0.46430 0.79930 0.10800
C 	C 	0.91420 0.85772 0.94395 0.10600
C 	C 	0.78730 0.78630 0.94740 0.06300
H 	H 	0.76310 0.75140 0.97410 -0.02700
C 	C 	0.72780 0.81424 0.87460 -0.15600
H 	H 	0.66450 0.79910 0.85270 0.03800
C 	C 	0.76400 0.86520 0.83450 0.06400
H 	H 	0.72590 0.88420 0.78430 -0.01900
C 	C 	0.85680 0.88720 0.86960 -0.15700
H 	H 	0.88180 0.92220 0.84350 0.09000
C 	C 	0.01350 0.88087 0.98595 -0.06800
H 	H 	0.04630 0.85670 0.03460 0.02100
C 	C 	0.06160 0.93166 0.96307 -0.12600
H 	H 	0.03080 0.95570 0.91390 0.08300
C 	C 	0.16070 0.95342 0.00942 0.16900
C 	C 	0.20780 0.93262 0.09004 -0.22500
H 	H 	0.17700 0.90350 0.11730 0.10900
C 	C 	0.30020 0.95514 0.12943 0.11100
H 	H 	0.33000 0.94080 0.18370 -0.07500
C 	C 	0.30450 0.01703 0.01706 0.11600
H 	H 	0.33730 0.04600 0.99140 -0.09700
C 	C 	0.21150 0.99754 0.97340 -0.24200
H 	H 	0.18280 0.01390 0.91980 0.11500
C 	C 	0.89920 0.62285 0.14281 0.26600
C 	C 	0.86410 0.55077 0.16320 0.01600
C 	C 	0.92420 0.50639 0.22313 -0.08900
H 	H 	0.98590 0.52190 0.25290 0.07400
C 	C 	0.89250 0.43872 0.23886 0.01400
C 	C 	0.96250 0.38910 0.29936 0.29100
C 	C 	0.79880 0.41731 0.19811 -0.20900
H 	H 	0.77700 0.37250 0.20960 0.10000
C 	C 	0.73779 0.46323 0.14005 0.26100
C 	C 	0.77130 0.52932 0.12088 -0.20100
H 	H 	0.73140 0.55890 0.07980 0.11400
Cd	Cd	0.03994 0.25173 0.39463 1.20400
Cd	Cd	0.48626 0.99090 0.83158 1.09700
O 	O 	0.02502 0.14952 0.30816 -0.38000
O 	O 	0.14762 0.15389 0.42270 -0.39500
O 	O 	0.95676 0.91291 0.16363 -0.32200
O 	O 	0.06667 0.82631 0.19061 -0.42100
O 	O 	0.35502 0.94485 0.40261 -0.44500
H 	H 	0.37430 0.91610 0.37540 0.22200
N 	N 	0.91387 0.19566 0.43194 -0.23000
N 	N 	0.32891 0.01058 0.74156 -0.30300
N 	N 	0.12114 0.30696 0.51803 -0.25100
N 	N 	0.65040 0.49633 0.40547 -0.31000
C 	C 	0.92320 0.14149 0.48651 0.10900
C 	C 	0.82520 0.21480 0.38420 0.06100
H 	H 	0.81850 0.25160 0.34580 -0.01100
C 	C 	0.74410 0.18260 0.38940 -0.14300
H 	H 	0.68390 0.19800 0.35580 0.04200
C 	C 	0.75330 0.12730 0.44520 0.06100
H 	H 	0.69960 0.10420 0.44980 -0.00000
C 	C 	0.84320 0.10700 0.49380 -0.15500
H 	H 	0.85090 0.06980 0.53200 0.09300
C 	C 	0.02060 0.12163 0.53740 -0.07600
H 	H 	0.06930 0.15260 0.53540 0.03100
C 	C 	0.04610 0.06450 0.58540 -0.11200
H 	H 	0.99750 0.03340 0.58750 0.07400
C 	C 	0.14410 0.04517 0.63620 0.14700
C 	C 	0.22420 0.07842 0.62810 -0.20700
H 	H 	0.21780 0.11300 0.58730 0.10400
C 	C 	0.31390 0.05954 0.68132 0.10100
H 	H 	0.36680 0.08230 0.67480 -0.06900
C 	C 	0.25220 0.97620 0.74640 0.11200
H 	H 	0.26090 0.94040 0.78630 -0.06400
C 	C 	0.16100 0.99090 0.69560 -0.20800
H 	H 	0.11000 0.96430 0.70070 0.10800
C 	C 	0.08580 0.35772 0.55605 0.10200
C 	C 	0.21270 0.28630 0.55260 0.06200
H 	H 	0.23690 0.25140 0.52590 -0.02700
C 	C 	0.27220 0.31424 0.62540 -0.15500
H 	H 	0.33550 0.29910 0.64730 0.03800
C 	C 	0.23600 0.36520 0.66550 0.06200
H 	H 	0.27410 0.38420 0.71570 -0.01800
C 	C 	0.14320 0.38720 0.63040 -0.15500
H 	H 	0.11820 0.42220 0.65650 0.09000
C 	C 	0.98650 0.38087 0.51405 -0.06100
H 	H 	0.95370 0.35670 0.46540 0.01600
C 	C 	0.93840 0.43166 0.53693 -0.12300
H 	H 	0.96920 0.45570 0.58610 0.08300
C 	C 	0.83930 0.45342 0.49058 0.16100
C 	C 	0.79220 0.43262 0.40996 -0.22100
H 	H 	0.82300 0.40350 0.38270 0.10800
C 	C 	0.69980 0.45514 0.37057 0.10800
H 	H 	0.67000 0.44080 0.31630 -0.07400
C 	C 	0.69550 0.51703 0.48294 0.11500
H 	H 	0.66270 0.54600 0.50860 -0.09700
C 	C 	0.78850 0.49754 0.52660 -0.23300
H 	H 	0.81720 0.51390 0.58020 0.11200
C 	C 	0.10080 0.12285 0.35719 0.26500
C 	C 	0.13590 0.05077 0.33680 0.01900
C 	C 	0.07580 0.00639 0.27687 -0.09400
H 	H 	0.01410 0.02190 0.24710 0.07600
C 	C 	0.10750 0.93872 0.26114 0.01800
C 	C 	0.03750 0.88910 0.20064 0.29400
C 	C 	0.20120 0.91731 0.30189 -0.21200
H 	H 	0.22300 0.87250 0.29040 0.10100
C 	C 	0.26221 0.96323 0.35995 0.26500
C 	C 	0.22870 0.02932 0.37912 -0.20500
H 	H 	0.26860 0.05890 0.42020 0.11600
Cd	Cd	0.03994 0.24827 0.89463 1.20300
Cd	Cd	0.48626 0.50910 0.33158 1.09800
O 	O 	0.02502 0.35048 0.80816 -0.38100
O 	O 	0.14762 0.34611 0.92270 -0.39600
O 	O 	0.95676 0.58709 0.66363 -0.31900
O 	O 	0.06667 0.67369 0.69061 -0.42100
O 	O 	0.35502 0.55515 0.90261 -0.44400
H 	H 	0.37430 0.58390 0.87540 0.22100
N 	N 	0.91387 0.30434 0.93194 -0.22900
N 	N 	0.32891 0.48942 0.24156 -0.30300
N 	N 	0.12114 0.19304 0.01803 -0.25100
N 	N 	0.65040 0.00367 0.90547 -0.31000
C 	C 	0.92320 0.35851 0.98651 0.10900
C 	C 	0.82520 0.28520 0.88420 0.06000
H 	H 	0.81850 0.24840 0.84580 -0.01100
C 	C 	0.74410 0.31740 0.88940 -0.14100
H 	H 	0.68390 0.30200 0.85580 0.04200
C 	C 	0.75330 0.37270 0.94520 0.05800
H 	H 	0.69960 0.39580 0.94980 0.00100
C 	C 	0.84320 0.39300 0.99380 -0.15000
H 	H 	0.85090 0.43020 0.03200 0.09000
C 	C 	0.02060 0.37837 0.03740 -0.07800
H 	H 	0.06930 0.34740 0.03540 0.03200
C 	C 	0.04610 0.43550 0.08540 -0.10300
H 	H 	0.99750 0.46660 0.08750 0.06900
C 	C 	0.14410 0.45483 0.13620 0.14500
C 	C 	0.22420 0.42158 0.12810 -0.20500
H 	H 	0.21780 0.38700 0.08730 0.10400
C 	C 	0.31390 0.44046 0.18132 0.10000
H 	H 	0.36680 0.41770 0.17480 -0.06900
C 	C 	0.25220 0.52380 0.24640 0.11200
H 	H 	0.26090 0.55960 0.28630 -0.06400
C 	C 	0.16100 0.50910 0.19560 -0.20700
H 	H 	0.11000 0.53570 0.20070 0.10800
C 	C 	0.08580 0.14228 0.05605 0.10600
C 	C 	0.21270 0.21370 0.05260 0.06300
H 	H 	0.23690 0.24860 0.02590 -0.02700
C 	C 	0.27220 0.18576 0.12540 -0.15600
H 	H 	0.33550 0.20090 0.14730 0.03800
C 	C 	0.23600 0.13480 0.16550 0.06400
H 	H 	0.27410 0.11580 0.21570 -0.01900
C 	C 	0.14320 0.11280 0.13040 -0.15700
H 	H 	0.11820 0.07780 0.15650 0.09000
C 	C 	0.98650 0.11913 0.01405 -0.06800
H 	H 	0.95370 0.14330 0.96540 0.02100
C 	C 	0.93840 0.06834 0.03693 -0.12600
H 	H 	0.96920 0.04430 0.08610 0.08300
C 	C 	0.83930 0.04658 0.99058 0.16900
C 	C 	0.79220 0.06738 0.90996 -0.22500
H 	H 	0.82300 0.09650 0.88270 0.10900
C 	C 	0.69980 0.04486 0.87057 0.11100
H 	H 	0.67000 0.05920 0.81630 -0.07500
C 	C 	0.69550 0.98297 0.98294 0.11600
H 	H 	0.66270 0.95400 0.00860 -0.09700
C 	C 	0.78850 0.00246 0.02660 -0.24200
H 	H 	0.81720 0.98610 0.08020 0.11500
C 	C 	0.10080 0.37715 0.85719 0.26600
C 	C 	0.13590 0.44923 0.83680 0.01600
C 	C 	0.07580 0.49361 0.77687 -0.08900
H 	H 	0.01410 0.47810 0.74710 0.07400
C 	C 	0.10750 0.56128 0.76114 0.01400
C 	C 	0.03750 0.61090 0.70064 0.29100
C 	C 	0.20120 0.58269 0.80189 -0.20900
H 	H 	0.22300 0.62750 0.79040 0.10000
C 	C 	0.26221 0.53677 0.85995 0.26100
C 	C 	0.22870 0.47068 0.87912 -0.20100
H 	H 	0.26860 0.44110 0.92020 0.11400
Cd	Cd	0.96006 0.74827 0.60537 1.20400
Cd	Cd	0.51374 0.00910 0.16842 1.09700
O 	O 	0.97498 0.85048 0.69184 -0.38000
O 	O 	0.85238 0.84611 0.57730 -0.39500
O 	O 	0.04324 0.08709 0.83637 -0.32200
O 	O 	0.93333 0.17369 0.80939 -0.42100
O 	O 	0.64498 0.05515 0.59739 -0.44500
H 	H 	0.62570 0.08390 0.62460 0.22200
N 	N 	0.08613 0.80434 0.56806 -0.23000
N 	N 	0.67109 0.98942 0.25844 -0.30300
N 	N 	0.87886 0.69304 0.48197 -0.25100
N 	N 	0.34960 0.50367 0.59453 -0.31000
C 	C 	0.07680 0.85851 0.51349 0.10900
C 	C 	0.17480 0.78520 0.61580 0.06100
H 	H 	0.18150 0.74840 0.65420 -0.01100
C 	C 	0.25590 0.81740 0.61060 -0.14300
H 	H 	0.31610 0.80200 0.64420 0.04200
C 	C 	0.24670 0.87270 0.55480 0.06100
H 	H 	0.30040 0.89580 0.55020 -0.00000
C 	C 	0.15680 0.89300 0.50620 -0.15500
H 	H 	0.14910 0.93020 0.46800 0.09300
C 	C 	0.97940 0.87837 0.46260 -0.07600
H 	H 	0.93070 0.84740 0.46460 0.03100
C 	C 	0.95390 0.93550 0.41460 -0.11200
H 	H 	0.00250 0.96660 0.41250 0.07400
C 	C 	0.85590 0.95483 0.36380 0.14700
C 	C 	0.77580 0.92158 0.37190 -0.20700
H 	H 	0.78220 0.88700 0.41270 0.10400
C 	C 	0.68610 0.94046 0.31868 0.10100
H 	H 	0.63320 0.91770 0.32520 -0.06900
C 	C 	0.74780 0.02380 0.25360 0.11200
H 	H 	0.73910 0.05960 0.21370 -0.06400
C 	C 	0.83900 0.00910 0.30440 -0.20800
H 	H 	0.89000 0.03570 0.29930 0.10800
C 	C 	0.91420 0.64228 0.44395 0.10200
C 	C 	0.78730 0.71370 0.44740 0.06200
H 	H 	0.76310 0.74860 0.47410 -0.02700
C 	C 	0.72780 0.68576 0.37460 -0.15500
H 	H 	0.66450 0.70090 0.35270 0.03800
C 	C 	0.76400 0.63480 0.33450 0.06200
H 	H 	0.72590 0.61580 0.28430 -0.01800
C 	C 	0.85680 0.61280 0.36960 -0.15500
H 	H 	0.88180 0.57780 0.34350 0.09000
C 	C 	0.01350 0.61913 0.48595 -0.06100
H 	H 	0.04630 0.64330 0.53460 0.01600
C 	C 	0.06160 0.56834 0.46307 -0.12300
H 	H 	0.03080 0.54430 0.41390 0.08300
C 	C 	0.16070 0.54658 0.50942 0.16100
C 	C 	0.20780 0.56738 0.59004 -0.22100
H 	H 	0.17700 0.59650 0.61730 0.10800
C 	C 	0.30020 0.54486 0.62943 0.10800
H 	H 	0.33000 0.55920 0.68370 -0.07400
C 	C 	0.30450 0.48297 0.51706 0.11500
H 	H 	0.33730 0.45400 0.49140 -0.09700
C 	C 	0.21150 0.50246 0.47340 -0.23300
H 	H 	0.18280 0.48610 0.41980 0.11200
C 	C 	0.89920 0.87715 0.64281 0.26500
C 	C 	0.86410 0.94923 0.66320 0.01900
C 	C 	0.92420 0.99361 0.72313 -0.09400
H 	H 	0.98590 0.97810 0.75290 0.07600
C 	C 	0.89250 0.06128 0.73886 0.01800
C 	C 	0.96250 0.11090 0.79936 0.29400
C 	C 	0.79880 0.08269 0.69811 -0.21200
H 	H 	0.77700 0.12750 0.70960 0.10100
C 	C 	0.73779 0.03677 0.64005 0.26500
C 	C 	0.77130 0.97068 0.62088 -0.20500
H 	H 	0.73140 0.94110 0.57980 0.11600
