data_crystal

_cell_length_a 13.13900
_cell_length_b 14.86500
_cell_length_c 14.86500
_cell_angle_alpha 90.00000
_cell_angle_beta  90.00000
_cell_angle_gamma 90.00000

_symmetry_space_group_name_	'P 1'
_symmetry_space_group_name_H-M	'P 1'

loop_
_symmetry_equiv_pos_as_xyz
  x,y,z

loop_
_atom_site_label
_atom_site_type_symbol
_atom_site_fract_x
_atom_site_fract_y
_atom_site_fract_z
_atom_site_charge
Cd	Cd	0.50000 0.73053 0.73053 1.21900
H 	H 	0.41870 0.95350 0.68700 0.04100
H 	H 	0.26990 0.99460 0.59690 0.03200
H 	H 	0.29940 0.72820 0.59580 -0.00700
H 	H 	0.19620 0.95040 0.43960 0.08200
H 	H 	0.05560 0.93120 0.34490 0.04700
H 	H 	0.96630 0.72070 0.49380 0.07500
H 	H 	0.10890 0.73720 0.58620 0.06900
H 	H 	0.45660 0.52450 0.70130 0.00300
H 	H 	0.45900 0.40320 0.59270 0.08800
H 	H 	0.58130 0.68700 0.95350 0.04300
H 	H 	0.73010 0.59690 0.99460 0.02900
H 	H 	0.70060 0.59580 0.72820 -0.00900
H 	H 	0.80380 0.43960 0.95040 0.12500
H 	H 	0.94440 0.34490 0.93120 -0.00200
H 	H 	0.03370 0.49380 0.72070 -0.03500
H 	H 	0.89110 0.58620 0.73720 0.13000
H 	H 	0.54340 0.70130 0.52450 0.00300
H 	H 	0.54100 0.59270 0.40320 0.08800
H 	H 	0.50000 0.44590 0.44590 0.01600
C 	C 	0.37610 0.91360 0.65700 -0.00600
C 	C 	0.29390 0.93680 0.60770 0.00900
C 	C 	0.31120 0.78870 0.60730 0.09400
C 	C 	0.16410 0.84590 0.52130 0.11000
C 	C 	0.15020 0.90400 0.44990 -0.11700
C 	C 	0.06600 0.89230 0.39300 -0.02200
C 	C 	0.99840 0.82250 0.40890 -0.02400
C 	C 	0.01320 0.76600 0.48200 -0.06100
C 	C 	0.09780 0.77630 0.53840 -0.10100
C 	C 	0.90810 0.80740 0.34820 0.28100
C 	C 	0.47500 0.53640 0.64200 0.06800
C 	C 	0.47400 0.46230 0.57750 -0.12300
C 	C 	0.62390 0.65700 0.91360 -0.00900
C 	C 	0.70610 0.60770 0.93680 0.01600
C 	C 	0.68880 0.60730 0.78870 0.09900
C 	C 	0.83590 0.52130 0.84590 0.20900
C 	C 	0.84980 0.44990 0.90400 -0.24000
C 	C 	0.93400 0.39300 0.89230 0.15800
C 	C 	0.00160 0.40890 0.82250 -0.22500
C 	C 	0.98680 0.48200 0.76600 0.19700
C 	C 	0.90220 0.53840 0.77630 -0.25600
C 	C 	0.09190 0.34820 0.80740 0.34600
C 	C 	0.52500 0.64200 0.53640 0.06800
C 	C 	0.52600 0.57750 0.46230 -0.12300
C 	C 	0.50000 0.49010 0.49010 0.04900
N 	N 	0.38720 0.81990 0.65580 -0.22300
N 	N 	0.25270 0.85720 0.57660 -0.13900
N 	N 	0.61280 0.65580 0.81990 -0.22300
N 	N 	0.74730 0.57660 0.85720 -0.15500
N 	N 	0.50000 0.61980 0.61980 -0.22700
O 	O 	0.89870 0.85940 0.28200 -0.34900
O 	O 	0.84750 0.74460 0.36480 -0.36100
O 	O 	0.10130 0.28200 0.85940 -0.37300
O 	O 	0.15250 0.36480 0.74460 -0.38000
Cd	Cd	0.00000 0.26947 0.26947 1.21400
H 	H 	0.91870 0.04650 0.31300 0.04700
H 	H 	0.76990 0.00540 0.40310 0.03100
H 	H 	0.79940 0.27180 0.40420 -0.00600
H 	H 	0.69620 0.04960 0.56040 0.10500
H 	H 	0.55560 0.06880 0.65510 0.02200
H 	H 	0.46630 0.27930 0.50620 0.01700
H 	H 	0.60890 0.26280 0.41380 0.10000
H 	H 	0.95660 0.47550 0.29870 0.00300
H 	H 	0.95900 0.59680 0.40730 0.07900
H 	H 	0.08130 0.31300 0.04650 0.03900
H 	H 	0.23010 0.40310 0.00540 0.03000
H 	H 	0.20060 0.40420 0.27180 -0.01000
H 	H 	0.30380 0.56040 0.04960 0.10400
H 	H 	0.44440 0.65510 0.06880 0.02200
H 	H 	0.53370 0.50620 0.27930 0.01700
H 	H 	0.39110 0.41380 0.26280 0.10000
H 	H 	0.04340 0.29870 0.47550 0.00400
H 	H 	0.04100 0.40730 0.59680 0.08100
H 	H 	0.00000 0.55410 0.55410 0.02300
C 	C 	0.87610 0.08640 0.34300 -0.00500
C 	C 	0.79390 0.06320 0.39230 0.01400
C 	C 	0.81120 0.21130 0.39270 0.09900
C 	C 	0.66410 0.15410 0.47870 0.16300
C 	C 	0.65020 0.09600 0.55010 -0.18100
C 	C 	0.56600 0.10770 0.60700 0.07200
C 	C 	0.49840 0.17750 0.59110 -0.12900
C 	C 	0.51320 0.23400 0.51800 0.07300
C 	C 	0.59780 0.22370 0.46160 -0.18200
C 	C 	0.40810 0.19260 0.65180 0.31500
C 	C 	0.97500 0.46360 0.35800 0.08000
C 	C 	0.97400 0.53770 0.42250 -0.09100
C 	C 	0.12390 0.34300 0.08640 -0.01000
C 	C 	0.20610 0.39230 0.06320 0.01100
C 	C 	0.18880 0.39270 0.21130 0.09500
C 	C 	0.33590 0.47870 0.15410 0.16000
C 	C 	0.34980 0.55010 0.09600 -0.18200
C 	C 	0.43400 0.60700 0.10770 0.07100
C 	C 	0.50160 0.59110 0.17750 -0.12900
C 	C 	0.48680 0.51800 0.23400 0.07200
C 	C 	0.40220 0.46160 0.22370 -0.18200
C 	C 	0.59190 0.65180 0.19260 0.31500
C 	C 	0.02500 0.35800 0.46360 0.05700
C 	C 	0.02600 0.42250 0.53770 -0.10900
C 	C 	-0.00000 0.50990 0.50990 0.01000
N 	N 	0.88720 0.18010 0.34420 -0.21800
N 	N 	0.75270 0.14280 0.42340 -0.14700
N 	N 	0.11280 0.34420 0.18010 -0.22600
N 	N 	0.24730 0.42340 0.14280 -0.14700
N 	N 	0.00000 0.38020 0.38020 -0.23700
O 	O 	0.39870 0.14060 0.71800 -0.36200
O 	O 	0.34750 0.25540 0.63520 -0.37100
O 	O 	0.60130 0.71800 0.14060 -0.36200
O 	O 	0.65250 0.63520 0.25540 -0.37200
Cd	Cd	0.75000 0.76947 0.23053 1.22000
H 	H 	0.66870 0.81300 0.45350 0.04300
H 	H 	0.51990 0.90310 0.49460 0.03100
H 	H 	0.54940 0.90420 0.22820 -0.00900
H 	H 	0.44620 0.06040 0.45040 0.10500
H 	H 	0.30560 0.15510 0.43120 0.02100
H 	H 	0.21630 0.00620 0.22070 0.01500
H 	H 	0.35890 0.91380 0.23720 0.10000
H 	H 	0.70660 0.79870 0.02450 0.00300
H 	H 	0.70900 0.90730 0.90320 0.08700
H 	H 	0.83130 0.54650 0.18700 0.04200
H 	H 	0.98010 0.50540 0.09690 0.03800
H 	H 	0.95060 0.77180 0.09580 -0.00300
H 	H 	0.05380 0.54960 0.93960 0.09100
H 	H 	0.19440 0.56880 0.84490 0.02600
H 	H 	0.28370 0.77930 0.99380 0.02100
H 	H 	0.14110 0.76280 0.08620 0.09000
H 	H 	0.79340 0.97550 0.20130 0.00400
H 	H 	0.79100 0.09680 0.09270 0.08600
H 	H 	0.75000 0.05410 0.94590 0.01900
C 	C 	0.62610 0.84300 0.41360 -0.00700
C 	C 	0.54390 0.89230 0.43680 0.01300
C 	C 	0.56120 0.89270 0.28870 0.09700
C 	C 	0.41410 0.97870 0.34590 0.16200
C 	C 	0.40020 0.05010 0.40400 -0.18200
C 	C 	0.31600 0.10700 0.39230 0.07300
C 	C 	0.24840 0.09110 0.32250 -0.13100
C 	C 	0.26320 0.01800 0.26600 0.07500
C 	C 	0.34780 0.96160 0.27630 -0.18400
C 	C 	0.15810 0.15180 0.30740 0.31600
C 	C 	0.72500 0.85800 0.03640 0.06700
C 	C 	0.72400 0.92250 0.96230 -0.11900
C 	C 	0.87390 0.58640 0.15700 -0.00500
C 	C 	0.95610 0.56320 0.10770 0.01300
C 	C 	0.93880 0.71130 0.10730 0.09800
C 	C 	0.08590 0.65410 0.02130 0.13200
C 	C 	0.09980 0.59600 0.94990 -0.16200
C 	C 	0.18400 0.60770 0.89300 0.05700
C 	C 	0.25160 0.67750 0.90890 -0.12100
C 	C 	0.23680 0.73400 0.98200 0.06200
C 	C 	0.15220 0.72370 0.03840 -0.16800
C 	C 	0.34190 0.69260 0.84820 0.31200
C 	C 	0.77500 0.96360 0.14200 0.06500
C 	C 	0.77600 0.03770 0.07750 -0.11400
C 	C 	0.75000 0.00990 0.99010 0.04200
N 	N 	0.63720 0.84420 0.31990 -0.22300
N 	N 	0.50270 0.92340 0.35720 -0.14700
N 	N 	0.86280 0.68010 0.15580 -0.22300
N 	N 	0.99730 0.64280 0.07660 -0.13300
N 	N 	0.75000 0.88020 0.11980 -0.22600
O 	O 	0.14870 0.21800 0.35940 -0.36400
O 	O 	0.09750 0.13520 0.24460 -0.37800
O 	O 	0.35130 0.64060 0.78200 -0.36100
O 	O 	0.40250 0.75540 0.86480 -0.37100
Cd	Cd	0.25000 0.23053 0.76947 1.22000
H 	H 	0.16870 0.18700 0.54650 0.04300
H 	H 	0.01990 0.09690 0.50540 0.02500
H 	H 	0.04940 0.09580 0.77180 -0.01300
H 	H 	0.94620 0.93960 0.54960 0.11700
H 	H 	0.80560 0.84490 0.56880 0.01800
H 	H 	0.71630 0.99380 0.77930 0.01300
H 	H 	0.85890 0.08620 0.76280 0.10900
H 	H 	0.20660 0.20130 0.97550 0.00300
H 	H 	0.20900 0.09270 0.09680 0.08600
H 	H 	0.33130 0.45350 0.81300 0.04300
H 	H 	0.48010 0.49460 0.90310 0.03100
H 	H 	0.45060 0.22820 0.90420 -0.00800
H 	H 	0.55380 0.45040 0.06040 0.10400
H 	H 	0.69440 0.43120 0.15510 0.02200
H 	H 	0.78370 0.22070 0.00620 0.01900
H 	H 	0.64110 0.23720 0.91380 0.10100
H 	H 	0.29340 0.02450 0.79870 0.00400
H 	H 	0.29100 0.90320 0.90730 0.08500
H 	H 	0.25000 0.94590 0.05410 0.01700
C 	C 	0.12610 0.15700 0.58640 -0.00900
C 	C 	0.04390 0.10770 0.56320 0.01300
C 	C 	0.06120 0.10730 0.71130 0.09600
C 	C 	0.91410 0.02130 0.65410 0.18700
C 	C 	0.90020 0.94990 0.59600 -0.19600
C 	C 	0.81600 0.89300 0.60770 0.08500
C 	C 	0.74840 0.90890 0.67750 -0.13700
C 	C 	0.76320 0.98200 0.73400 0.08400
C 	C 	0.84780 0.03840 0.72370 -0.19600
C 	C 	0.65810 0.84820 0.69260 0.31800
C 	C 	0.22500 0.14200 0.96360 0.06500
C 	C 	0.22400 0.07750 0.03770 -0.12100
C 	C 	0.37390 0.41360 0.84300 -0.00700
C 	C 	0.45610 0.43680 0.89230 0.01300
C 	C 	0.43880 0.28870 0.89270 0.09700
C 	C 	0.58590 0.34590 0.97870 0.16100
C 	C 	0.59980 0.40400 0.05010 -0.18000
C 	C 	0.68400 0.39230 0.10700 0.07000
C 	C 	0.75160 0.32250 0.09110 -0.12800
C 	C 	0.73680 0.26600 0.01800 0.07400
C 	C 	0.65220 0.27630 0.96160 -0.18400
C 	C 	0.84190 0.30740 0.15180 0.31400
C 	C 	0.27500 0.03640 0.85800 0.06400
C 	C 	0.27600 0.96230 0.92250 -0.11800
C 	C 	0.25000 0.99010 0.00990 0.04100
N 	N 	0.13720 0.15580 0.68010 -0.22300
N 	N 	0.00270 0.07660 0.64280 -0.15900
N 	N 	0.36280 0.31990 0.84420 -0.22300
N 	N 	0.49730 0.35720 0.92340 -0.14700
N 	N 	0.25000 0.11980 0.88020 -0.22600
O 	O 	0.64870 0.78200 0.64060 -0.36200
O 	O 	0.59750 0.86480 0.75540 -0.37200
O 	O 	0.85130 0.35940 0.21800 -0.35700
O 	O 	0.90250 0.24460 0.13520 -0.36200
