data_crystal

_cell_length_a 15.00500
_cell_length_b 8.34100
_cell_length_c 29.27200
_cell_angle_alpha 90.00000
_cell_angle_beta  101.16700
_cell_angle_gamma 90.00000

_symmetry_space_group_name_	'P 1'
_symmetry_space_group_name_H-M	'P 1'

loop_
_symmetry_equiv_pos_as_xyz
  x,y,z

loop_
_atom_site_label
_atom_site_type_symbol
_atom_site_fract_x
_atom_site_fract_y
_atom_site_fract_z
_atom_site_charge
Tb	Tb	0.55869 0.77495 0.51458 1.92300
Cu	Cu	0.63880 0.17930 0.22028 0.73200
Cu	Cu	0.57850 0.88864 0.25173 0.71900
Cu	Cu	0.63676 0.89350 0.17395 0.72000
Cu	Cu	0.48204 0.05050 0.18221 0.71700
I 	I 	0.76113 0.94298 0.25564 -0.74700
I 	I 	0.60034 0.17308 0.12677 -0.55700
I 	I 	0.47761 0.73974 0.17403 -0.59300
I 	I 	0.50540 0.17230 0.26870 -0.57800
O 	O 	0.44530 0.79840 0.44708 -0.50000
O 	O 	0.37240 0.03290 0.43399 -0.51700
O 	O 	0.57360 0.55130 0.46964 -0.52200
O 	O 	0.46810 0.39420 0.42673 -0.50200
O 	O 	0.33790 0.10560 0.52805 -0.47600
O 	O 	0.43600 0.90400 0.53662 -0.52500
N 	N 	0.13901 0.65510 0.34900 -0.20400
C 	C 	0.20992 0.56400 0.37362 -0.00800
H 	H 	0.20550 0.45040 0.37380 0.01500
C 	C 	0.28738 0.63910 0.39802 -0.00800
H 	H 	0.33590 0.57690 0.41490 0.02600
C 	C 	0.29393 0.80540 0.39781 -0.10300
C 	C 	0.22301 0.89650 0.37319 -0.00600
H 	H 	0.22750 0.01010 0.37300 0.04900
C 	C 	0.14555 0.82140 0.34878 -0.00500
H 	H 	0.09710 0.88360 0.33200 0.02800
C 	C 	0.37820 0.88470 0.42887 0.45400
N 	N 	0.56758 0.74150 0.30562 -0.21000
C 	C 	0.63230 0.75470 0.34641 -0.01400
H 	H 	0.68500 0.81830 0.34700 0.02100
C 	C 	0.61988 0.67490 0.38639 -0.01300
H 	H 	0.66410 0.68400 0.41430 0.04500
C 	C 	0.54273 0.58190 0.38559 -0.09400
C 	C 	0.47801 0.56860 0.34479 -0.00800
H 	H 	0.42530 0.50500 0.34420 0.05100
C 	C 	0.49043 0.64840 0.30481 -0.00100
H 	H 	0.44620 0.63940 0.27690 0.02400
C 	C 	0.52710 0.50410 0.43100 0.42500
N 	N 	0.20979 0.74120 0.63570 -0.20800
C 	C 	0.16975 0.86150 0.60575 0.00100
H 	H 	0.10830 0.89090 0.60500 0.02900
C 	C 	0.21958 0.93870 0.57689 -0.02200
H 	H 	0.19220 0.02090 0.55640 0.05900
C 	C 	0.30945 0.89560 0.57798 -0.09200
C 	C 	0.34950 0.77530 0.60792 -0.01500
H 	H 	0.41090 0.74580 0.60870 0.05100
C 	C 	0.29966 0.69810 0.63678 -0.01200
H 	H 	0.32700 0.61580 0.65720 0.02300
C 	C 	0.36510 0.97290 0.54494 0.42000
Tb	Tb	0.94131 0.27495 0.98542 1.91800
Cu	Cu	0.86120 0.67930 0.27972 0.73300
Cu	Cu	0.92150 0.38864 0.24827 0.71900
Cu	Cu	0.86324 0.39350 0.32605 0.72000
Cu	Cu	0.01796 0.55050 0.31779 0.71800
I 	I 	0.73887 0.44298 0.24436 -0.74900
I 	I 	0.89966 0.67308 0.37323 -0.55500
I 	I 	0.02239 0.23974 0.32597 -0.59200
I 	I 	0.99460 0.67230 0.23130 -0.57500
O 	O 	0.05470 0.29840 0.05292 -0.49900
O 	O 	0.12760 0.53290 0.06601 -0.51800
O 	O 	0.92640 0.05130 0.03036 -0.52100
O 	O 	0.03190 0.89420 0.07327 -0.50400
O 	O 	0.16210 0.60560 0.97195 -0.47600
O 	O 	0.06400 0.40400 0.96338 -0.52200
N 	N 	0.36099 0.15510 0.15100 -0.20400
C 	C 	0.29008 0.06400 0.12638 -0.00600
H 	H 	0.29450 0.95040 0.12620 0.01400
C 	C 	0.21262 0.13910 0.10198 -0.00900
H 	H 	0.16410 0.07690 0.08510 0.02700
C 	C 	0.20607 0.30540 0.10219 -0.10300
C 	C 	0.27699 0.39650 0.12681 -0.00300
H 	H 	0.27250 0.51010 0.12700 0.04800
C 	C 	0.35445 0.32140 0.15122 -0.00600
H 	H 	0.40290 0.38360 0.16800 0.02900
C 	C 	0.12180 0.38470 0.07113 0.45400
N 	N 	0.93242 0.24150 0.19438 -0.21000
C 	C 	0.86770 0.25470 0.15359 -0.01400
H 	H 	0.81500 0.31830 0.15300 0.02100
C 	C 	0.88012 0.17490 0.11361 -0.01200
H 	H 	0.83590 0.18400 0.08570 0.04500
C 	C 	0.95727 0.08190 0.11441 -0.09700
C 	C 	0.02199 0.06860 0.15521 -0.00600
H 	H 	0.07470 0.00500 0.15580 0.05100
C 	C 	0.00957 0.14840 0.19519 -0.00100
H 	H 	0.05380 0.13940 0.22310 0.02400
C 	C 	0.97290 0.00410 0.06900 0.42700
N 	N 	0.29021 0.24120 0.86430 -0.20700
C 	C 	0.33025 0.36150 0.89425 -0.00100
H 	H 	0.39170 0.39090 0.89500 0.03000
C 	C 	0.28042 0.43870 0.92311 -0.01600
H 	H 	0.30780 0.52090 0.94360 0.05600
C 	C 	0.19055 0.39560 0.92202 -0.09300
C 	C 	0.15050 0.27530 0.89208 -0.01400
H 	H 	0.08910 0.24580 0.89130 0.05100
C 	C 	0.20034 0.19810 0.86322 -0.01300
H 	H 	0.17300 0.11580 0.84280 0.02400
C 	C 	0.13490 0.47290 0.95506 0.42200
Tb	Tb	0.44131 0.22505 0.48542 1.92400
Cu	Cu	0.36120 0.82070 0.77972 0.73300
Cu	Cu	0.42150 0.11136 0.74827 0.72000
Cu	Cu	0.36324 0.10650 0.82605 0.72100
Cu	Cu	0.51796 0.94950 0.81779 0.71800
I 	I 	0.23887 0.05702 0.74436 -0.74600
I 	I 	0.39966 0.82692 0.87323 -0.55700
I 	I 	0.52239 0.26026 0.82597 -0.59300
I 	I 	0.49460 0.82770 0.73130 -0.57800
O 	O 	0.55470 0.20160 0.55292 -0.50000
O 	O 	0.62760 0.96710 0.56601 -0.51700
O 	O 	0.42640 0.44870 0.53036 -0.52200
O 	O 	0.53190 0.60580 0.57327 -0.50200
O 	O 	0.66210 0.89440 0.47195 -0.47600
O 	O 	0.56400 0.09600 0.46338 -0.52500
N 	N 	0.86099 0.34490 0.65100 -0.20400
C 	C 	0.79008 0.43600 0.62638 -0.00800
H 	H 	0.79450 0.54960 0.62620 0.01500
C 	C 	0.71262 0.36090 0.60198 -0.00800
H 	H 	0.66410 0.42310 0.58510 0.02600
C 	C 	0.70607 0.19460 0.60219 -0.10300
C 	C 	0.77699 0.10350 0.62681 -0.00600
H 	H 	0.77250 0.98990 0.62700 0.04900
C 	C 	0.85445 0.17860 0.65122 -0.00500
H 	H 	0.90290 0.11640 0.66800 0.02800
C 	C 	0.62180 0.11530 0.57113 0.45400
N 	N 	0.43242 0.25850 0.69438 -0.21000
C 	C 	0.36770 0.24530 0.65359 -0.01400
H 	H 	0.31500 0.18170 0.65300 0.02100
C 	C 	0.38012 0.32510 0.61361 -0.01300
H 	H 	0.33590 0.31600 0.58570 0.04500
C 	C 	0.45727 0.41810 0.61441 -0.09400
C 	C 	0.52199 0.43140 0.65521 -0.00800
H 	H 	0.57470 0.49500 0.65580 0.05100
C 	C 	0.50957 0.35160 0.69519 -0.00100
H 	H 	0.55380 0.36060 0.72310 0.02400
C 	C 	0.47290 0.49590 0.56900 0.42500
N 	N 	0.79021 0.25880 0.36430 -0.20800
C 	C 	0.83025 0.13850 0.39425 0.00100
H 	H 	0.89170 0.10910 0.39500 0.02900
C 	C 	0.78042 0.06130 0.42311 -0.02200
H 	H 	0.80780 0.97910 0.44360 0.05900
C 	C 	0.69055 0.10440 0.42202 -0.09200
C 	C 	0.65050 0.22470 0.39208 -0.01500
H 	H 	0.58910 0.25420 0.39130 0.05100
C 	C 	0.70034 0.30190 0.36322 -0.01200
H 	H 	0.67300 0.38420 0.34280 0.02300
C 	C 	0.63490 0.02710 0.45506 0.42000
Tb	Tb	0.05869 0.72505 0.01458 1.91800
Cu	Cu	0.13880 0.32070 0.72028 0.73300
Cu	Cu	0.07850 0.61136 0.75173 0.71900
Cu	Cu	0.13676 0.60650 0.67395 0.72000
Cu	Cu	0.98204 0.44950 0.68221 0.71800
I 	I 	0.26113 0.55702 0.75564 -0.74900
I 	I 	0.10034 0.32692 0.62677 -0.55500
I 	I 	0.97761 0.76026 0.67403 -0.59200
I 	I 	0.00540 0.32770 0.76870 -0.57500
O 	O 	0.94530 0.70160 0.94708 -0.49900
O 	O 	0.87240 0.46710 0.93399 -0.51800
O 	O 	0.07360 0.94870 0.96964 -0.52100
O 	O 	0.96810 0.10580 0.92673 -0.50400
O 	O 	0.83790 0.39440 0.02805 -0.47600
O 	O 	0.93600 0.59600 0.03662 -0.52200
N 	N 	0.63901 0.84490 0.84900 -0.20400
C 	C 	0.70992 0.93600 0.87362 -0.00600
H 	H 	0.70550 0.04960 0.87380 0.01400
C 	C 	0.78738 0.86090 0.89802 -0.00900
H 	H 	0.83590 0.92310 0.91490 0.02700
C 	C 	0.79393 0.69460 0.89781 -0.10300
C 	C 	0.72301 0.60350 0.87319 -0.00300
H 	H 	0.72750 0.48990 0.87300 0.04800
C 	C 	0.64555 0.67860 0.84878 -0.00600
H 	H 	0.59710 0.61640 0.83200 0.02900
C 	C 	0.87820 0.61530 0.92887 0.45400
N 	N 	0.06758 0.75850 0.80562 -0.21000
C 	C 	0.13230 0.74530 0.84641 -0.01400
H 	H 	0.18500 0.68170 0.84700 0.02100
C 	C 	0.11988 0.82510 0.88639 -0.01200
H 	H 	0.16410 0.81600 0.91430 0.04500
C 	C 	0.04273 0.91810 0.88559 -0.09700
C 	C 	0.97801 0.93140 0.84479 -0.00600
H 	H 	0.92530 0.99500 0.84420 0.05100
C 	C 	0.99043 0.85160 0.80481 -0.00100
H 	H 	0.94620 0.86060 0.77690 0.02400
C 	C 	0.02710 0.99590 0.93100 0.42700
N 	N 	0.70979 0.75880 0.13570 -0.20700
C 	C 	0.66975 0.63850 0.10575 -0.00100
H 	H 	0.60830 0.60910 0.10500 0.03000
C 	C 	0.71958 0.56130 0.07689 -0.01600
H 	H 	0.69220 0.47910 0.05640 0.05600
C 	C 	0.80945 0.60440 0.07798 -0.09300
C 	C 	0.84950 0.72470 0.10792 -0.01400
H 	H 	0.91090 0.75420 0.10870 0.05100
C 	C 	0.79966 0.80190 0.13678 -0.01300
H 	H 	0.82700 0.88420 0.15720 0.02400
C 	C 	0.86510 0.52710 0.04494 0.42200
