data_crystal

_cell_length_a 15.31800
_cell_length_b 8.05460
_cell_length_c 29.44400
_cell_angle_alpha 90.00000
_cell_angle_beta  99.92000
_cell_angle_gamma 90.00000

_symmetry_space_group_name_	'P 1'
_symmetry_space_group_name_H-M	'P 1'

loop_
_symmetry_equiv_pos_as_xyz
  x,y,z

loop_
_atom_site_label
_atom_site_type_symbol
_atom_site_fract_x
_atom_site_fract_y
_atom_site_fract_z
_atom_site_charge
Tb	Tb	0.04775 0.74556 0.50960 1.86500
Cu	Cu	0.57051 0.57790 0.75201 0.72900
Cu	Cu	0.64402 0.30580 0.71545 0.74000
Cu	Cu	0.49341 0.42770 0.67191 0.73300
Cu	Cu	0.64929 0.62310 0.68094 0.73300
I 	I 	0.62658 0.33490 0.62510 -0.56100
I 	I 	0.74951 0.54561 0.76144 -0.76700
I 	I 	0.50263 0.27190 0.75243 -0.58400
I 	I 	0.49067 0.75368 0.67525 -0.60000
O 	O 	0.97390 0.49550 0.54270 -0.55200
O 	O 	0.14660 0.94790 0.54770 -0.48800
O 	O 	0.96110 0.88760 0.55140 -0.52300
O 	O 	0.88500 0.12220 0.54740 -0.50500
O 	O 	0.07770 0.62600 0.58990 -0.40700
O 	O 	0.08210 0.20000 0.54350 -0.49900
N 	N 	0.73070 0.74780 0.64480 -0.21100
N 	N 	0.95530 0.22300 0.69620 -0.22200
N 	N 	0.38170 0.32250 0.63550 -0.21400
C 	C 	0.01760 0.51780 0.58350 0.35900
C 	C 	0.84190 0.90350 0.59230 -0.11800
C 	C 	0.99710 0.41630 0.62310 -0.07500
C 	C 	0.91040 0.35730 0.62250 -0.02800
H 	H 	0.86450 0.38100 0.59720 0.04300
C 	C 	0.90000 0.97980 0.56170 0.47600
C 	C 	0.03750 0.28310 0.69620 0.03000
H 	H 	0.08260 0.25720 0.72160 0.01100
C 	C 	0.23050 0.17760 0.58490 -0.09200
C 	C 	0.05960 0.38030 0.66120 -0.02800
H 	H 	0.11820 0.42230 0.66350 0.05600
C 	C 	0.37980 0.16170 0.62460 0.01600
H 	H 	0.43130 0.09670 0.63460 0.02400
C 	C 	0.89320 0.26430 0.65940 0.01500
H 	H 	0.83430 0.22700 0.65900 0.01200
C 	C 	0.30570 0.08530 0.59920 -0.01800
H 	H 	0.30690 0.97060 0.59190 0.04900
C 	C 	0.30800 0.40980 0.62260 0.01400
H 	H 	0.30760 0.52320 0.63140 0.01200
C 	C 	0.75390 0.94860 0.58890 -0.01000
H 	H 	0.73010 0.03480 0.56850 0.04800
C 	C 	0.70070 0.86790 0.61540 0.01100
H 	H 	0.64030 0.89970 0.61230 0.02000
C 	C 	0.23080 0.34300 0.59660 -0.02500
H 	H 	0.17990 0.41020 0.58720 0.03500
C 	C 	0.14570 0.10030 0.55550 0.44600
C 	C 	0.87350 0.78030 0.62360 -0.01400
H 	H 	0.93360 0.74590 0.62720 0.05200
C 	C 	0.81640 0.70730 0.64980 -0.00600
H 	H 	0.83920 0.62580 0.67200 0.01400
Tb	Tb	0.45225 0.24556 0.99040 1.86900
Cu	Cu	0.92949 0.07790 0.74799 0.72900
Cu	Cu	0.85598 0.80580 0.78455 0.74100
Cu	Cu	0.00659 0.92770 0.82809 0.73100
Cu	Cu	0.85071 0.12310 0.81906 0.73200
I 	I 	0.87342 0.83490 0.87490 -0.55700
I 	I 	0.75049 0.04561 0.73856 -0.77000
I 	I 	0.99737 0.77190 0.74757 -0.58100
I 	I 	0.00933 0.25368 0.82475 -0.59800
O 	O 	0.52610 0.99550 0.95730 -0.55100
O 	O 	0.35340 0.44790 0.95230 -0.48500
O 	O 	0.53890 0.38760 0.94860 -0.52400
O 	O 	0.61500 0.62220 0.95260 -0.50100
O 	O 	0.42230 0.12600 0.91010 -0.40500
O 	O 	0.41790 0.70000 0.95650 -0.49900
N 	N 	0.76930 0.24780 0.85520 -0.21200
N 	N 	0.54470 0.72300 0.80380 -0.22000
N 	N 	0.11830 0.82250 0.86450 -0.21500
C 	C 	0.48240 0.01780 0.91650 0.35600
C 	C 	0.65810 0.40350 0.90770 -0.11500
C 	C 	0.50290 0.91630 0.87690 -0.07200
C 	C 	0.58960 0.85730 0.87750 -0.02800
H 	H 	0.63550 0.88100 0.90280 0.04300
C 	C 	0.60000 0.47980 0.93830 0.47100
C 	C 	0.46250 0.78310 0.80380 0.02800
H 	H 	0.41740 0.75720 0.77840 0.01100
C 	C 	0.26950 0.67760 0.91510 -0.09100
C 	C 	0.44040 0.88030 0.83880 -0.02900
H 	H 	0.38180 0.92230 0.83650 0.05600
C 	C 	0.12020 0.66170 0.87540 0.01800
H 	H 	0.06870 0.59670 0.86540 0.02300
C 	C 	0.60680 0.76430 0.84060 0.01600
H 	H 	0.66570 0.72700 0.84100 0.01200
C 	C 	0.19430 0.58530 0.90080 -0.02100
H 	H 	0.19310 0.47060 0.90810 0.05100
C 	C 	0.19200 0.90980 0.87740 0.01100
H 	H 	0.19240 0.02320 0.86860 0.01400
C 	C 	0.74610 0.44860 0.91110 -0.01700
H 	H 	0.76990 0.53480 0.93150 0.05200
C 	C 	0.79930 0.36790 0.88460 0.01400
H 	H 	0.85970 0.39970 0.88770 0.01900
C 	C 	0.26920 0.84300 0.90340 -0.02500
H 	H 	0.32010 0.91020 0.91280 0.03500
C 	C 	0.35430 0.60030 0.94450 0.44300
C 	C 	0.62650 0.28030 0.87640 -0.01600
H 	H 	0.56640 0.24590 0.87280 0.05200
C 	C 	0.68360 0.20730 0.85020 -0.00600
H 	H 	0.66080 0.12580 0.82800 0.01400
Tb	Tb	0.95225 0.25444 0.49040 1.86600
Cu	Cu	0.42949 0.42210 0.24799 0.73000
Cu	Cu	0.35598 0.69420 0.28455 0.74000
Cu	Cu	0.50659 0.57230 0.32809 0.73300
Cu	Cu	0.35071 0.37690 0.31906 0.73300
I 	I 	0.37342 0.66510 0.37490 -0.56100
I 	I 	0.25049 0.45439 0.23856 -0.76700
I 	I 	0.49737 0.72810 0.24757 -0.58400
I 	I 	0.50933 0.24632 0.32475 -0.60000
O 	O 	0.02610 0.50450 0.45730 -0.55200
O 	O 	0.85340 0.05210 0.45230 -0.48800
O 	O 	0.03890 0.11240 0.44860 -0.52300
O 	O 	0.11500 0.87780 0.45260 -0.50500
O 	O 	0.92230 0.37400 0.41010 -0.40700
O 	O 	0.91790 0.80000 0.45650 -0.49900
N 	N 	0.26930 0.25220 0.35520 -0.21100
N 	N 	0.04470 0.77700 0.30380 -0.22200
N 	N 	0.61830 0.67750 0.36450 -0.21400
C 	C 	0.98240 0.48220 0.41650 0.35900
C 	C 	0.15810 0.09650 0.40770 -0.11800
C 	C 	0.00290 0.58370 0.37690 -0.07500
C 	C 	0.08960 0.64270 0.37750 -0.02800
H 	H 	0.13550 0.61900 0.40280 0.04300
C 	C 	0.10000 0.02020 0.43830 0.47600
C 	C 	0.96250 0.71690 0.30380 0.03000
H 	H 	0.91740 0.74280 0.27840 0.01100
C 	C 	0.76950 0.82240 0.41510 -0.09200
C 	C 	0.94040 0.61970 0.33880 -0.02800
H 	H 	0.88180 0.57770 0.33650 0.05600
C 	C 	0.62020 0.83830 0.37540 0.01600
H 	H 	0.56870 0.90330 0.36540 0.02400
C 	C 	0.10680 0.73570 0.34060 0.01500
H 	H 	0.16570 0.77300 0.34100 0.01200
C 	C 	0.69430 0.91470 0.40080 -0.01800
H 	H 	0.69310 0.02940 0.40810 0.04900
C 	C 	0.69200 0.59020 0.37740 0.01400
H 	H 	0.69240 0.47680 0.36860 0.01200
C 	C 	0.24610 0.05140 0.41110 -0.01000
H 	H 	0.26990 0.96520 0.43150 0.04800
C 	C 	0.29930 0.13210 0.38460 0.01100
H 	H 	0.35970 0.10030 0.38770 0.02000
C 	C 	0.76920 0.65700 0.40340 -0.02500
H 	H 	0.82010 0.58980 0.41280 0.03500
C 	C 	0.85430 0.89970 0.44450 0.44600
C 	C 	0.12650 0.21970 0.37640 -0.01400
H 	H 	0.06640 0.25410 0.37280 0.05200
C 	C 	0.18360 0.29270 0.35020 -0.00600
H 	H 	0.16080 0.37420 0.32800 0.01400
Tb	Tb	0.54775 0.75444 0.00960 1.86900
Cu	Cu	0.07051 0.92210 0.25201 0.72900
Cu	Cu	0.14402 0.19420 0.21545 0.74100
Cu	Cu	0.99341 0.07230 0.17191 0.73100
Cu	Cu	0.14929 0.87690 0.18094 0.73200
I 	I 	0.12658 0.16510 0.12510 -0.55700
I 	I 	0.24951 0.95439 0.26144 -0.77000
I 	I 	0.00263 0.22810 0.25243 -0.58100
I 	I 	0.99067 0.74632 0.17525 -0.59800
O 	O 	0.47390 0.00450 0.04270 -0.55100
O 	O 	0.64660 0.55210 0.04770 -0.48500
O 	O 	0.46110 0.61240 0.05140 -0.52400
O 	O 	0.38500 0.37780 0.04740 -0.50100
O 	O 	0.57770 0.87400 0.08990 -0.40500
O 	O 	0.58210 0.30000 0.04350 -0.49900
N 	N 	0.23070 0.75220 0.14480 -0.21200
N 	N 	0.45530 0.27700 0.19620 -0.22000
N 	N 	0.88170 0.17750 0.13550 -0.21500
C 	C 	0.51760 0.98220 0.08350 0.35600
C 	C 	0.34190 0.59650 0.09230 -0.11500
C 	C 	0.49710 0.08370 0.12310 -0.07200
C 	C 	0.41040 0.14270 0.12250 -0.02800
H 	H 	0.36450 0.11900 0.09720 0.04300
C 	C 	0.40000 0.52020 0.06170 0.47100
C 	C 	0.53750 0.21690 0.19620 0.02800
H 	H 	0.58260 0.24280 0.22160 0.01100
C 	C 	0.73050 0.32240 0.08490 -0.09100
C 	C 	0.55960 0.11970 0.16120 -0.02900
H 	H 	0.61820 0.07770 0.16350 0.05600
C 	C 	0.87980 0.33830 0.12460 0.01800
H 	H 	0.93130 0.40330 0.13460 0.02300
C 	C 	0.39320 0.23570 0.15940 0.01600
H 	H 	0.33430 0.27300 0.15900 0.01200
C 	C 	0.80570 0.41470 0.09920 -0.02100
H 	H 	0.80690 0.52940 0.09190 0.05100
C 	C 	0.80800 0.09020 0.12260 0.01100
H 	H 	0.80760 0.97680 0.13140 0.01400
C 	C 	0.25390 0.55140 0.08890 -0.01700
H 	H 	0.23010 0.46520 0.06850 0.05200
C 	C 	0.20070 0.63210 0.11540 0.01400
H 	H 	0.14030 0.60030 0.11230 0.01900
C 	C 	0.73080 0.15700 0.09660 -0.02500
H 	H 	0.67990 0.08980 0.08720 0.03500
C 	C 	0.64570 0.39970 0.05550 0.44300
C 	C 	0.37350 0.71970 0.12360 -0.01600
H 	H 	0.43360 0.75410 0.12720 0.05200
C 	C 	0.31640 0.79270 0.14980 -0.00600
H 	H 	0.33920 0.87420 0.17200 0.01400
