data_crystal

_cell_length_a 10.23000
_cell_length_b 11.83900
_cell_length_c 26.07100
_cell_angle_alpha 90.00000
_cell_angle_beta  90.58900
_cell_angle_gamma 90.00000

_symmetry_space_group_name_	'P 1'
_symmetry_space_group_name_H-M	'P 1'

loop_
_symmetry_equiv_pos_as_xyz
  x,y,z

loop_
_atom_site_label
_atom_site_type_symbol
_atom_site_fract_x
_atom_site_fract_y
_atom_site_fract_z
_atom_site_charge
Ag	Ag	0.84141 0.96958 0.95522 0.50700
Ag	Ag	0.34141 0.53042 0.45522 0.50800
H 	H 	0.55640 0.22200 0.31750 0.22400
H 	H 	0.81030 0.95460 0.33110 0.04600
H 	H 	0.73520 0.79380 0.37130 0.04500
H 	H 	0.36780 0.89430 0.34460 0.04000
H 	H 	0.44110 0.05390 0.30410 0.05200
H 	H 	0.86000 0.27140 0.25110 0.06200
H 	H 	0.01910 0.37970 0.28950 0.04400
H 	H 	0.93300 0.23610 0.42540 0.03300
H 	H 	0.77170 0.12970 0.38520 0.04700
H 	H 	0.53600 0.16840 0.20400 0.07300
H 	H 	0.56550 0.11340 0.12030 0.03600
H 	H 	0.90630 0.96740 0.15890 0.03100
H 	H 	0.87670 0.02510 0.24360 0.05900
H 	H 	0.05640 0.27800 0.81750 0.22600
H 	H 	0.31030 0.54540 0.83110 0.04500
H 	H 	0.23520 0.70620 0.87130 0.04800
H 	H 	0.86780 0.60570 0.84460 0.04300
H 	H 	0.94110 0.44610 0.80410 0.05000
H 	H 	0.36000 0.22860 0.75110 0.06200
H 	H 	0.51910 0.12030 0.78950 0.04700
H 	H 	0.43300 0.26390 0.92540 0.03500
H 	H 	0.27170 0.37030 0.88520 0.04700
H 	H 	0.03600 0.33160 0.70400 0.07300
H 	H 	0.06550 0.38660 0.62030 0.03600
H 	H 	0.40630 0.53260 0.65890 0.03000
H 	H 	0.37670 0.47490 0.74360 0.05900
C 	C 	0.68140 0.13320 0.28910 0.09200
C 	C 	0.63560 0.02690 0.31420 -0.01000
C 	C 	0.72070 0.94380 0.33410 -0.05100
C 	C 	0.67620 0.84630 0.35810 -0.04700
C 	C 	0.54270 0.82860 0.36190 -0.01800
C 	C 	0.45730 0.90660 0.34190 -0.04600
C 	C 	0.50140 0.00340 0.31800 -0.05400
C 	C 	0.48940 0.73260 0.38790 0.06700
C 	C 	0.80100 0.19030 0.31430 0.00700
C 	C 	0.87490 0.26500 0.28620 -0.05700
C 	C 	0.96990 0.33000 0.30900 -0.03200
C 	C 	0.99280 0.32080 0.36290 -0.02100
C 	C 	0.91830 0.24440 0.39030 -0.03500
C 	C 	0.82180 0.17980 0.36620 -0.06700
C 	C 	0.08810 0.38980 0.38870 0.06700
C 	C 	0.70510 0.10270 0.23240 0.02900
C 	C 	0.61070 0.12850 0.19500 -0.06800
C 	C 	0.62790 0.09520 0.14520 -0.02800
C 	C 	0.73740 0.03480 0.13180 -0.02600
C 	C 	0.83210 0.00780 0.16800 -0.02200
C 	C 	0.81400 0.04280 0.21880 -0.07300
C 	C 	0.75630 0.00020 0.07870 0.06200
C 	C 	0.18140 0.36680 0.78910 0.09400
C 	C 	0.13560 0.47310 0.81420 -0.01400
C 	C 	0.22070 0.55620 0.83410 -0.04700
C 	C 	0.17620 0.65370 0.85810 -0.05200
C 	C 	0.04270 0.67140 0.86190 -0.01100
C 	C 	0.95730 0.59340 0.84190 -0.05500
C 	C 	0.00140 0.49660 0.81800 -0.04600
C 	C 	0.98940 0.76740 0.88790 0.06400
C 	C 	0.30100 0.30970 0.81430 0.00600
C 	C 	0.37490 0.23500 0.78620 -0.05500
C 	C 	0.46990 0.17000 0.80900 -0.03500
C 	C 	0.49280 0.17920 0.86290 -0.02100
C 	C 	0.41830 0.25560 0.89030 -0.03600
C 	C 	0.32180 0.32020 0.86620 -0.06600
C 	C 	0.58810 0.11020 0.88870 0.06700
C 	C 	0.20510 0.39730 0.73240 0.02900
C 	C 	0.11070 0.37150 0.69500 -0.06800
C 	C 	0.12790 0.40480 0.64520 -0.02700
C 	C 	0.23740 0.46520 0.63180 -0.02600
C 	C 	0.33210 0.49220 0.66800 -0.02100
C 	C 	0.31400 0.45720 0.71880 -0.07400
C 	C 	0.25630 0.49980 0.57870 0.06300
N 	N 	0.77230 0.97480 0.03679 -0.20500
N 	N 	0.15610 0.45420 0.40770 -0.18600
N 	N 	0.44610 0.65680 0.40900 -0.20500
N 	N 	0.27230 0.52520 0.53679 -0.20600
N 	N 	0.65610 0.04580 0.90770 -0.18600
N 	N 	0.94610 0.84320 0.90900 -0.20500
O 	O 	0.57870 0.21520 0.28780 -0.37900
O 	O 	0.07870 0.28480 0.78780 -0.37900
Ag	Ag	0.65859 0.46958 0.54478 0.50900
Ag	Ag	0.15859 0.03042 0.04478 0.50800
H 	H 	0.94360 0.72200 0.18250 0.22600
H 	H 	0.68970 0.45460 0.16890 0.04500
H 	H 	0.76480 0.29380 0.12870 0.04800
H 	H 	0.13220 0.39430 0.15540 0.04300
H 	H 	0.05890 0.55390 0.19590 0.05000
H 	H 	0.64000 0.77140 0.24890 0.06200
H 	H 	0.48090 0.87970 0.21050 0.04700
H 	H 	0.56700 0.73610 0.07460 0.03500
H 	H 	0.72830 0.62970 0.11480 0.04700
H 	H 	0.96400 0.66840 0.29600 0.07300
H 	H 	0.93450 0.61340 0.37970 0.03600
H 	H 	0.59370 0.46740 0.34110 0.03000
H 	H 	0.62330 0.52510 0.25640 0.05900
H 	H 	0.44360 0.77800 0.68250 0.22500
H 	H 	0.18970 0.04540 0.66890 0.04700
H 	H 	0.26480 0.20620 0.62870 0.04600
H 	H 	0.63220 0.10570 0.65540 0.04100
H 	H 	0.55890 0.94610 0.69590 0.05300
H 	H 	0.14000 0.72860 0.74890 0.06300
H 	H 	0.98090 0.62030 0.71050 0.04500
H 	H 	0.06700 0.76390 0.57460 0.03400
H 	H 	0.22830 0.87030 0.61480 0.04700
H 	H 	0.46400 0.83160 0.79600 0.07300
H 	H 	0.43450 0.88660 0.87970 0.03600
H 	H 	0.09370 0.03260 0.84110 0.03100
H 	H 	0.12330 0.97490 0.75640 0.05900
C 	C 	0.81860 0.63320 0.21090 0.09400
C 	C 	0.86440 0.52690 0.18580 -0.01400
C 	C 	0.77930 0.44380 0.16590 -0.04700
C 	C 	0.82380 0.34630 0.14190 -0.05200
C 	C 	0.95730 0.32860 0.13810 -0.01100
C 	C 	0.04270 0.40660 0.15810 -0.05500
C 	C 	0.99860 0.50340 0.18200 -0.04600
C 	C 	0.01060 0.23260 0.11210 0.06400
C 	C 	0.69900 0.69030 0.18570 0.00600
C 	C 	0.62510 0.76500 0.21380 -0.05500
C 	C 	0.53010 0.83000 0.19100 -0.03500
C 	C 	0.50720 0.82080 0.13710 -0.02100
C 	C 	0.58170 0.74440 0.10970 -0.03600
C 	C 	0.67820 0.67980 0.13380 -0.06600
C 	C 	0.41190 0.88980 0.11130 0.06700
C 	C 	0.79490 0.60270 0.26760 0.02900
C 	C 	0.88930 0.62850 0.30500 -0.06800
C 	C 	0.87210 0.59520 0.35480 -0.02700
C 	C 	0.76260 0.53480 0.36820 -0.02600
C 	C 	0.66790 0.50780 0.33200 -0.02100
C 	C 	0.68600 0.54280 0.28120 -0.07400
C 	C 	0.74370 0.50020 0.42130 0.06300
C 	C 	0.31860 0.86680 0.71090 0.09200
C 	C 	0.36440 0.97310 0.68580 -0.01000
C 	C 	0.27930 0.05620 0.66590 -0.05100
C 	C 	0.32380 0.15370 0.64190 -0.04700
C 	C 	0.45730 0.17140 0.63810 -0.01800
C 	C 	0.54270 0.09340 0.65810 -0.04600
C 	C 	0.49860 0.99660 0.68200 -0.05400
C 	C 	0.51060 0.26740 0.61210 0.06700
C 	C 	0.19900 0.80970 0.68570 0.00700
C 	C 	0.12510 0.73500 0.71380 -0.05700
C 	C 	0.03010 0.67000 0.69100 -0.03200
C 	C 	0.00720 0.67920 0.63710 -0.02100
C 	C 	0.08170 0.75560 0.60970 -0.03500
C 	C 	0.17820 0.82020 0.63380 -0.06700
C 	C 	0.91190 0.61020 0.61130 0.06700
C 	C 	0.29490 0.89730 0.76760 0.02900
C 	C 	0.38930 0.87150 0.80500 -0.06800
C 	C 	0.37210 0.90480 0.85480 -0.02800
C 	C 	0.26260 0.96520 0.86820 -0.02600
C 	C 	0.16790 0.99220 0.83200 -0.02200
C 	C 	0.18600 0.95720 0.78120 -0.07300
C 	C 	0.24370 0.99980 0.92130 0.06200
N 	N 	0.72770 0.47480 0.46321 -0.20600
N 	N 	0.34390 0.95420 0.09230 -0.18600
N 	N 	0.05390 0.15680 0.09100 -0.20500
N 	N 	0.22770 0.02520 0.96321 -0.20500
N 	N 	0.84390 0.54580 0.59230 -0.18600
N 	N 	0.55390 0.34320 0.59100 -0.20500
O 	O 	0.92130 0.71520 0.21220 -0.37900
O 	O 	0.42130 0.78480 0.71220 -0.37900
