data_crystal

_cell_length_a 7.07600
_cell_length_b 12.81400
_cell_length_c 13.48300
_cell_angle_alpha 90.00000
_cell_angle_beta  104.18800
_cell_angle_gamma 90.00000

_symmetry_space_group_name_	'P 1'
_symmetry_space_group_name_H-M	'P 1'

loop_
_symmetry_equiv_pos_as_xyz
  x,y,z

loop_
_atom_site_label
_atom_site_type_symbol
_atom_site_fract_x
_atom_site_fract_y
_atom_site_fract_z
_atom_site_charge
Gd	Gd	0.38396 0.57040 0.70122 1.47500
Gd	Gd	0.11604 0.07040 0.29878 1.46400
Gd	Gd	0.61604 0.42960 0.29878 1.47500
Gd	Gd	0.88396 0.92960 0.70122 1.46400
H 	H 	0.29610 0.93490 0.94770 0.02200
H 	H 	0.43470 0.96190 0.11960 0.07200
H 	H 	0.53230 0.82120 0.22730 0.02100
H 	H 	0.37360 0.62590 0.98800 0.02800
H 	H 	0.20390 0.43490 0.05230 0.02100
H 	H 	0.06530 0.46190 0.88040 0.07400
H 	H 	0.96770 0.32120 0.77270 0.02100
H 	H 	0.12640 0.12590 0.01200 0.02100
H 	H 	0.70390 0.06510 0.05230 0.02300
H 	H 	0.56530 0.03810 0.88040 0.07300
H 	H 	0.46770 0.17880 0.77270 0.02100
H 	H 	0.62640 0.37410 0.01200 0.02800
H 	H 	0.79610 0.56510 0.94770 0.02100
H 	H 	0.93470 0.53810 0.11960 0.07400
H 	H 	0.03230 0.67880 0.22730 0.02100
H 	H 	0.87360 0.87410 0.98800 0.02100
C 	C 	0.23050 0.75920 0.83950 0.45700
C 	C 	0.32050 0.77650 0.94970 -0.17400
C 	C 	0.33880 0.87820 0.99040 0.07200
C 	C 	0.41980 0.89440 0.09350 -0.12000
C 	C 	0.47860 0.81020 0.15790 0.05000
C 	C 	0.45750 0.70840 0.11870 -0.11900
C 	C 	0.38240 0.69320 0.01450 0.08400
C 	C 	0.51540 0.61600 0.18570 0.31500
C 	C 	0.39320 0.48530 0.47600 0.24600
C 	C 	0.26950 0.25920 0.16050 0.45900
C 	C 	0.17950 0.27650 0.05030 -0.18200
C 	C 	0.16120 0.37820 0.00960 0.07700
C 	C 	0.08020 0.39440 0.90650 -0.12400
C 	C 	0.02140 0.31020 0.84210 0.05300
C 	C 	0.04250 0.20840 0.88130 -0.12600
C 	C 	0.11760 0.19320 0.98550 0.09500
C 	C 	0.98460 0.11600 0.81430 0.31900
C 	C 	0.10680 0.98530 0.52400 0.25000
C 	C 	0.76950 0.24080 0.16050 0.45700
C 	C 	0.67950 0.22350 0.05030 -0.17400
C 	C 	0.66120 0.12180 0.00960 0.07200
C 	C 	0.58020 0.10560 0.90650 -0.12000
C 	C 	0.52140 0.18980 0.84210 0.05000
C 	C 	0.54250 0.29160 0.88130 -0.11900
C 	C 	0.61760 0.30680 0.98550 0.08400
C 	C 	0.48460 0.38400 0.81430 0.31500
C 	C 	0.60680 0.51470 0.52400 0.24600
C 	C 	0.73050 0.74080 0.83950 0.45900
C 	C 	0.82050 0.72350 0.94970 -0.18200
C 	C 	0.83880 0.62180 0.99040 0.07700
C 	C 	0.91980 0.60560 0.09350 -0.12400
C 	C 	0.97860 0.68980 0.15790 0.05300
C 	C 	0.95750 0.79160 0.11870 -0.12600
C 	C 	0.88240 0.80680 0.01450 0.09500
C 	C 	0.01540 0.88400 0.18570 0.31900
C 	C 	0.89320 0.01470 0.47600 0.25000
O 	O 	0.23540 0.66910 0.80340 -0.47400
O 	O 	0.65280 0.66550 0.78450 -0.45800
O 	O 	0.56260 0.62390 0.28370 -0.35800
O 	O 	0.51610 0.52710 0.14610 -0.38200
O 	O 	0.27110 0.50370 0.52590 -0.38500
O 	O 	0.64030 0.55460 0.61210 -0.37300
O 	O 	0.26460 0.16910 0.19660 -0.47500
O 	O 	0.84720 0.16550 0.21550 -0.45400
O 	O 	0.93740 0.12390 0.71630 -0.35600
O 	O 	0.98390 0.02710 0.85390 -0.37800
O 	O 	0.22890 0.00370 0.47410 -0.38800
O 	O 	0.85970 0.05460 0.38790 -0.37100
O 	O 	0.76460 0.33090 0.19660 -0.47400
O 	O 	0.34720 0.33450 0.21550 -0.45800
O 	O 	0.43740 0.37610 0.71630 -0.35800
O 	O 	0.48390 0.47290 0.85390 -0.38200
O 	O 	0.72890 0.49630 0.47410 -0.38500
O 	O 	0.35970 0.44540 0.38790 -0.37300
O 	O 	0.73540 0.83090 0.80340 -0.47500
O 	O 	0.15280 0.83450 0.78450 -0.45400
O 	O 	0.06260 0.87610 0.28370 -0.35600
O 	O 	0.01610 0.97290 0.14610 -0.37800
O 	O 	0.77110 0.99630 0.52590 -0.38800
O 	O 	0.14030 0.94540 0.61210 -0.37100
