data_crystal

_cell_length_a 12.38470
_cell_length_b 28.86000
_cell_length_c 5.37300
_cell_angle_alpha 90.00000
_cell_angle_beta  90.00000
_cell_angle_gamma 90.00000

_symmetry_space_group_name_	'P 1'
_symmetry_space_group_name_H-M	'P 1'

loop_
_symmetry_equiv_pos_as_xyz
  x,y,z

loop_
_atom_site_label
_atom_site_type_symbol
_atom_site_fract_x
_atom_site_fract_y
_atom_site_fract_z
_atom_site_charge
O 	O 	0.36660 0.70690 0.57200 -0.58200
H 	H 	0.33730 0.68330 0.53390 0.24600
O 	O 	0.37100 0.70980 0.91900 -0.61800
H 	H 	0.34180 0.68620 0.95770 0.25300
O 	O 	0.25020 0.78530 0.41900 -0.54100
H 	H 	0.25000 0.81300 0.41940 0.19600
C 	C 	0.47890 0.95160 0.54100 -0.02400
H 	H 	0.43320 0.95560 0.69320 -0.22700
C 	C 	0.42200 0.97320 0.35200 -0.56500
H 	H 	0.34920 0.95910 0.34060 0.23400
H 	H 	0.45940 0.96760 0.19220 0.17300
C 	C 	0.59000 0.97410 0.61000 0.62900
H 	H 	0.35680 0.96800 0.47580 -0.17200
H 	H 	0.38160 0.95990 0.76530 -0.06300
O 	O 	0.86660 0.20690 0.07200 -0.58100
H 	H 	0.83730 0.18330 0.03390 0.24000
O 	O 	0.87100 0.20980 0.41900 -0.59400
H 	H 	0.84180 0.18620 0.45770 0.25900
O 	O 	0.75020 0.28530 0.91900 -0.53000
H 	H 	0.75000 0.31300 0.91940 0.20300
C 	C 	0.97890 0.45160 0.04100 -0.10000
H 	H 	0.93320 0.45560 0.19320 -0.25100
C 	C 	0.92200 0.47320 0.85200 -0.62300
H 	H 	0.84920 0.45910 0.84060 0.27100
H 	H 	0.95940 0.46760 0.69220 0.20800
C 	C 	0.09000 0.47410 0.11000 0.68100
H 	H 	0.85680 0.46800 0.97580 -0.20700
H 	H 	0.88160 0.45990 0.26530 -0.07700
O 	O 	0.63340 0.79310 0.57200 -0.58300
H 	H 	0.66270 0.81670 0.53390 0.24500
O 	O 	0.62900 0.79020 0.91900 -0.61900
H 	H 	0.65820 0.81380 0.95770 0.25200
O 	O 	0.74980 0.71470 0.41900 -0.54400
H 	H 	0.75000 0.68700 0.41940 0.19800
C 	C 	0.52110 0.54840 0.54100 -0.02500
H 	H 	0.56680 0.54440 0.69320 -0.22700
C 	C 	0.57800 0.52680 0.35200 -0.56300
H 	H 	0.65080 0.54090 0.34060 0.23400
H 	H 	0.54060 0.53240 0.19220 0.17300
C 	C 	0.41000 0.52590 0.61000 0.62900
H 	H 	0.64320 0.53200 0.47580 -0.17000
H 	H 	0.61840 0.54010 0.76530 -0.06100
O 	O 	0.13340 0.29310 0.07200 -0.59500
H 	H 	0.16270 0.31670 0.03390 0.23900
O 	O 	0.12900 0.29020 0.41900 -0.60800
H 	H 	0.15820 0.31380 0.45770 0.25800
O 	O 	0.24980 0.21470 0.91900 -0.52900
H 	H 	0.25000 0.18700 0.91940 0.20000
C 	C 	0.02110 0.04840 0.04100 0.07500
H 	H 	0.06680 0.04440 0.19320 -0.29600
C 	C 	0.07800 0.02680 0.85200 -0.65200
H 	H 	0.15080 0.04090 0.84060 0.26700
H 	H 	0.04060 0.03240 0.69220 0.17900
C 	C 	0.91000 0.02590 0.11000 0.76800
H 	H 	0.14320 0.03200 0.97580 -0.19000
H 	H 	0.11840 0.04010 0.26530 -0.05200
O 	O 	0.63340 0.20690 0.42800 -0.58300
H 	H 	0.66270 0.18330 0.46610 0.24500
O 	O 	0.62900 0.20980 0.08100 -0.61900
H 	H 	0.65820 0.18620 0.04230 0.25200
O 	O 	0.74980 0.28530 0.58100 -0.54400
H 	H 	0.75000 0.31300 0.58060 0.19800
C 	C 	0.52110 0.45160 0.45900 -0.02500
H 	H 	0.56680 0.45560 0.30680 -0.22700
C 	C 	0.57800 0.47320 0.64800 -0.56300
H 	H 	0.65080 0.45910 0.65940 0.23400
H 	H 	0.54060 0.46760 0.80780 0.17300
C 	C 	0.41000 0.47410 0.39000 0.62900
H 	H 	0.64320 0.46800 0.52420 -0.17000
H 	H 	0.61840 0.45990 0.23470 -0.06100
O 	O 	0.13340 0.70690 0.92800 -0.59500
H 	H 	0.16270 0.68330 0.96610 0.23900
O 	O 	0.12900 0.70980 0.58100 -0.60800
H 	H 	0.15820 0.68620 0.54230 0.25800
O 	O 	0.24980 0.78530 0.08100 -0.52900
H 	H 	0.25000 0.81300 0.08060 0.20000
C 	C 	0.02110 0.95160 0.95900 0.07500
H 	H 	0.06680 0.95560 0.80680 -0.29600
C 	C 	0.07800 0.97320 0.14800 -0.65200
H 	H 	0.15080 0.95910 0.15940 0.26700
H 	H 	0.04060 0.96760 0.30780 0.17900
C 	C 	0.91000 0.97410 0.89000 0.76800
H 	H 	0.14320 0.96800 0.02420 -0.19000
H 	H 	0.11840 0.95990 0.73470 -0.05200
O 	O 	0.36660 0.29310 0.42800 -0.58300
H 	H 	0.33730 0.31670 0.46610 0.24500
O 	O 	0.37100 0.29020 0.08100 -0.61900
H 	H 	0.34180 0.31380 0.04230 0.25200
O 	O 	0.25020 0.21470 0.58100 -0.54200
H 	H 	0.25000 0.18700 0.58060 0.19500
C 	C 	0.47890 0.04840 0.45900 -0.02500
H 	H 	0.43320 0.04440 0.30680 -0.22800
C 	C 	0.42200 0.02680 0.64800 -0.56500
H 	H 	0.34920 0.04090 0.65940 0.23400
H 	H 	0.45940 0.03240 0.80780 0.17300
C 	C 	0.59000 0.02590 0.39000 0.62900
H 	H 	0.35680 0.03200 0.52420 -0.17200
H 	H 	0.38160 0.04010 0.23470 -0.06300
O 	O 	0.86660 0.79310 0.92800 -0.58100
H 	H 	0.83730 0.81670 0.96610 0.24000
O 	O 	0.87100 0.79020 0.58100 -0.59400
H 	H 	0.84180 0.81380 0.54230 0.25900
O 	O 	0.75020 0.71470 0.08100 -0.53000
H 	H 	0.75000 0.68700 0.08060 0.20300
C 	C 	0.97890 0.54840 0.95900 -0.10000
H 	H 	0.93320 0.54440 0.80680 -0.25100
C 	C 	0.92200 0.52680 0.14800 -0.62300
H 	H 	0.84920 0.54090 0.15940 0.27100
H 	H 	0.95940 0.53240 0.30780 0.20800
C 	C 	0.09000 0.52590 0.89000 0.68100
H 	H 	0.85680 0.53200 0.02420 -0.20700
H 	H 	0.88160 0.54010 0.73470 -0.07700
O 	O 	0.63340 0.29310 0.42800 -0.58300
H 	H 	0.66270 0.31670 0.46610 0.24500
O 	O 	0.62900 0.29020 0.08100 -0.61900
H 	H 	0.65820 0.31380 0.04230 0.25200
O 	O 	0.74980 0.21470 0.58100 -0.54400
H 	H 	0.75000 0.18700 0.58060 0.19800
C 	C 	0.52110 0.04840 0.45900 -0.02500
H 	H 	0.56680 0.04440 0.30680 -0.22700
C 	C 	0.57800 0.02680 0.64800 -0.56400
H 	H 	0.65080 0.04090 0.65940 0.23400
H 	H 	0.54060 0.03240 0.80780 0.17300
C 	C 	0.41000 0.02590 0.39000 0.63000
H 	H 	0.64320 0.03200 0.52420 -0.17100
H 	H 	0.61840 0.04010 0.23470 -0.06100
O 	O 	0.13340 0.79310 0.92800 -0.59500
H 	H 	0.16270 0.81670 0.96610 0.23900
O 	O 	0.12900 0.79020 0.58100 -0.60800
H 	H 	0.15820 0.81380 0.54230 0.25800
O 	O 	0.24980 0.71470 0.08100 -0.52900
H 	H 	0.25000 0.68700 0.08060 0.20000
C 	C 	0.02110 0.54840 0.95900 0.07500
H 	H 	0.06680 0.54440 0.80680 -0.28800
C 	C 	0.07800 0.52680 0.14800 -0.64000
H 	H 	0.15080 0.54090 0.15940 0.26100
H 	H 	0.04060 0.53240 0.30780 0.17600
C 	C 	0.91000 0.52590 0.89000 0.75100
H 	H 	0.14320 0.53200 0.02420 -0.18400
H 	H 	0.11840 0.54010 0.73470 -0.05100
O 	O 	0.36660 0.20690 0.42800 -0.58300
H 	H 	0.33730 0.18330 0.46610 0.24500
O 	O 	0.37100 0.20980 0.08100 -0.61800
H 	H 	0.34180 0.18620 0.04230 0.25100
O 	O 	0.25020 0.28530 0.58100 -0.54200
H 	H 	0.25000 0.31300 0.58060 0.19500
C 	C 	0.47890 0.45160 0.45900 -0.02400
H 	H 	0.43320 0.45560 0.30680 -0.22700
C 	C 	0.42200 0.47320 0.64800 -0.56400
H 	H 	0.34920 0.45910 0.65940 0.23300
H 	H 	0.45940 0.46760 0.80780 0.17300
C 	C 	0.59000 0.47410 0.39000 0.62700
H 	H 	0.35680 0.46800 0.52420 -0.17100
H 	H 	0.38160 0.45990 0.23470 -0.06200
O 	O 	0.86660 0.70690 0.92800 -0.58100
H 	H 	0.83730 0.68330 0.96610 0.24000
O 	O 	0.87100 0.70980 0.58100 -0.59400
H 	H 	0.84180 0.68620 0.54230 0.25900
O 	O 	0.75020 0.78530 0.08100 -0.53000
H 	H 	0.75000 0.81300 0.08060 0.20300
C 	C 	0.97890 0.95160 0.95900 -0.10000
H 	H 	0.93320 0.95560 0.80680 -0.25800
C 	C 	0.92200 0.97320 0.14800 -0.63500
H 	H 	0.84920 0.95910 0.15940 0.27600
H 	H 	0.95940 0.96760 0.30780 0.21100
C 	C 	0.09000 0.97410 0.89000 0.69800
H 	H 	0.85680 0.96800 0.02420 -0.21200
H 	H 	0.88160 0.95990 0.73470 -0.07800
O 	O 	0.36660 0.79310 0.57200 -0.58300
H 	H 	0.33730 0.81670 0.53390 0.24500
O 	O 	0.37100 0.79020 0.91900 -0.61800
H 	H 	0.34180 0.81380 0.95770 0.25100
O 	O 	0.25020 0.71470 0.41900 -0.54200
H 	H 	0.25000 0.68700 0.41940 0.19500
C 	C 	0.47890 0.54840 0.54100 -0.02400
H 	H 	0.43320 0.54440 0.69320 -0.22700
C 	C 	0.42200 0.52680 0.35200 -0.56400
H 	H 	0.34920 0.54090 0.34060 0.23300
H 	H 	0.45940 0.53240 0.19220 0.17300
C 	C 	0.59000 0.52590 0.61000 0.62700
H 	H 	0.35680 0.53200 0.47580 -0.17100
H 	H 	0.38160 0.54010 0.76530 -0.06200
O 	O 	0.86660 0.29310 0.07200 -0.58100
H 	H 	0.83730 0.31670 0.03390 0.24000
O 	O 	0.87100 0.29020 0.41900 -0.59400
H 	H 	0.84180 0.31380 0.45770 0.25900
O 	O 	0.75020 0.21470 0.91900 -0.53000
H 	H 	0.75000 0.18700 0.91940 0.20300
C 	C 	0.97890 0.04840 0.04100 -0.10000
H 	H 	0.93320 0.04440 0.19320 -0.25800
C 	C 	0.92200 0.02680 0.85200 -0.63500
H 	H 	0.84920 0.04090 0.84060 0.27600
H 	H 	0.95940 0.03240 0.69220 0.21100
C 	C 	0.09000 0.02590 0.11000 0.69800
H 	H 	0.85680 0.03200 0.97580 -0.21200
H 	H 	0.88160 0.04010 0.26530 -0.07800
O 	O 	0.63340 0.70690 0.57200 -0.58300
H 	H 	0.66270 0.68330 0.53390 0.24500
O 	O 	0.62900 0.70980 0.91900 -0.61900
H 	H 	0.65820 0.68620 0.95770 0.25200
O 	O 	0.74980 0.78530 0.41900 -0.54400
H 	H 	0.75000 0.81300 0.41940 0.19800
C 	C 	0.52110 0.95160 0.54100 -0.02500
H 	H 	0.56680 0.95560 0.69320 -0.22700
C 	C 	0.57800 0.97320 0.35200 -0.56400
H 	H 	0.65080 0.95910 0.34060 0.23400
H 	H 	0.54060 0.96760 0.19220 0.17300
C 	C 	0.41000 0.97410 0.61000 0.63000
H 	H 	0.64320 0.96800 0.47580 -0.17100
H 	H 	0.61840 0.95990 0.76530 -0.06100
O 	O 	0.13340 0.20690 0.07200 -0.59500
H 	H 	0.16270 0.18330 0.03390 0.23900
O 	O 	0.12900 0.20980 0.41900 -0.60800
H 	H 	0.15820 0.18620 0.45770 0.25800
O 	O 	0.24980 0.28530 0.91900 -0.52900
H 	H 	0.25000 0.31300 0.91940 0.20000
C 	C 	0.02110 0.45160 0.04100 0.07500
H 	H 	0.06680 0.45560 0.19320 -0.28800
C 	C 	0.07800 0.47320 0.85200 -0.64000
H 	H 	0.15080 0.45910 0.84060 0.26100
H 	H 	0.04060 0.46760 0.69220 0.17600
C 	C 	0.91000 0.47410 0.11000 0.75100
H 	H 	0.14320 0.46800 0.97580 -0.18400
H 	H 	0.11840 0.45990 0.26530 -0.05100
Co	Co	0.37551 0.75000 0.24550 1.31100
Co	Co	0.87551 0.25000 0.74550 1.32100
Co	Co	0.62449 0.75000 0.24550 1.31100
Co	Co	0.12449 0.25000 0.74550 1.31200
Co	Co	0.62449 0.25000 0.75450 1.31100
Co	Co	0.12449 0.75000 0.25450 1.31200
Co	Co	0.37551 0.25000 0.75450 1.31100
Co	Co	0.87551 0.75000 0.25450 1.32100
Co	Co	0.25000 0.75000 0.75000 1.30800
Co	Co	0.75000 0.75000 0.75000 1.30700
Co	Co	0.75000 0.25000 0.25000 1.30700
Co	Co	0.25000 0.25000 0.25000 1.30800
Co	Co	0.50000 0.80906 0.74220 1.25900
O 	O 	0.50000 0.79410 0.10400 -0.47700
H 	H 	0.50000 0.81770 0.18160 0.10400
O 	O 	0.50000 0.78970 0.38700 -0.61800
H 	H 	0.50000 0.81320 0.30780 0.31000
O 	O 	0.50000 0.87890 0.73800 -0.42200
O 	O 	0.50000 0.88000 0.32800 -0.35500
C 	C 	0.50000 0.89980 0.52500 0.34300
Co	Co	0.00000 0.30906 0.24220 1.25000
O 	O 	0.00000 0.29410 0.60400 -0.50900
H 	H 	0.00000 0.31770 0.68160 0.11300
O 	O 	0.00000 0.28970 0.88700 -0.61000
H 	H 	0.00000 0.31320 0.80780 0.30200
O 	O 	0.00000 0.37890 0.23800 -0.42000
O 	O 	0.00000 0.38000 0.82800 -0.34900
C 	C 	-0.00000 0.39980 0.02500 0.30700
Co	Co	0.50000 0.69094 0.74220 1.25900
O 	O 	0.50000 0.70590 0.10400 -0.47700
H 	H 	0.50000 0.68230 0.18160 0.10400
O 	O 	0.50000 0.71030 0.38700 -0.61800
H 	H 	0.50000 0.68680 0.30780 0.31000
O 	O 	0.50000 0.62110 0.73800 -0.42200
O 	O 	0.50000 0.62000 0.32800 -0.35500
C 	C 	0.50000 0.60020 0.52500 0.34300
Co	Co	-0.00000 0.19094 0.24220 1.25000
O 	O 	0.00000 0.20590 0.60400 -0.50900
H 	H 	0.00000 0.18230 0.68160 0.11300
O 	O 	0.00000 0.21030 0.88700 -0.61000
H 	H 	0.00000 0.18680 0.80780 0.30200
O 	O 	0.00000 0.12110 0.23800 -0.42000
O 	O 	-0.00000 0.12000 0.82800 -0.34800
C 	C 	-0.00000 0.10020 0.02500 0.30800
Co	Co	0.50000 0.30906 0.25780 1.25900
O 	O 	0.50000 0.29410 0.89600 -0.47700
H 	H 	0.50000 0.31770 0.81840 0.10400
O 	O 	0.50000 0.28970 0.61300 -0.61800
H 	H 	0.50000 0.31320 0.69220 0.31000
O 	O 	0.50000 0.37890 0.26200 -0.42200
O 	O 	0.50000 0.38000 0.67200 -0.35500
C 	C 	0.50000 0.39980 0.47500 0.34300
Co	Co	0.00000 0.80906 0.75780 1.25000
O 	O 	-0.00000 0.79410 0.39600 -0.50900
H 	H 	0.00000 0.81770 0.31840 0.11300
O 	O 	-0.00000 0.78970 0.11300 -0.61000
H 	H 	-0.00000 0.81320 0.19220 0.30200
O 	O 	0.00000 0.87890 0.76200 -0.42000
O 	O 	0.00000 0.88000 0.17200 -0.34800
C 	C 	0.00000 0.89980 0.97500 0.30800
Co	Co	0.50000 0.19094 0.25780 1.25900
O 	O 	0.50000 0.20590 0.89600 -0.47700
H 	H 	0.50000 0.18230 0.81840 0.10400
O 	O 	0.50000 0.21030 0.61300 -0.61800
H 	H 	0.50000 0.18680 0.69220 0.31000
O 	O 	0.50000 0.12110 0.26200 -0.42200
O 	O 	0.50000 0.12000 0.67200 -0.35500
C 	C 	0.50000 0.10020 0.47500 0.34300
Co	Co	0.00000 0.69094 0.75780 1.25000
O 	O 	0.00000 0.70590 0.39600 -0.50900
H 	H 	-0.00000 0.68230 0.31840 0.11300
O 	O 	0.00000 0.71030 0.11300 -0.61000
H 	H 	0.00000 0.68680 0.19220 0.30200
O 	O 	0.00000 0.62110 0.76200 -0.42000
O 	O 	0.00000 0.62000 0.17200 -0.34900
C 	C 	-0.00000 0.60020 0.97500 0.30700
