data_crystal

_cell_length_a 12.44600
_cell_length_b 28.94900
_cell_length_c 5.39710
_cell_angle_alpha 90.00000
_cell_angle_beta  90.00000
_cell_angle_gamma 90.00000

_symmetry_space_group_name_	'P 1'
_symmetry_space_group_name_H-M	'P 1'

loop_
_symmetry_equiv_pos_as_xyz
  x,y,z

loop_
_atom_site_label
_atom_site_type_symbol
_atom_site_fract_x
_atom_site_fract_y
_atom_site_fract_z
_atom_site_charge
O 	O 	0.36800 0.70750 0.57400 -0.58100
H 	H 	0.33880 0.68390 0.53630 0.24300
O 	O 	0.37070 0.70930 0.92100 -0.61700
H 	H 	0.34170 0.68580 0.95970 0.25400
O 	O 	0.25240 0.78530 0.41800 -0.54400
H 	H 	0.25260 0.81290 0.41830 0.19900
C 	C 	0.48000 0.95150 0.53800 -0.03500
H 	H 	0.44150 0.95520 0.69560 0.00800
C 	C 	0.41800 0.97370 0.37600 -0.27500
H 	H 	0.34690 0.96050 0.38250 0.04900
H 	H 	0.44670 0.96790 0.21120 0.11200
C 	C 	0.59200 0.97320 0.59000 0.13800
H 	H 	0.36010 0.96660 0.45290 0.03900
H 	H 	0.37760 0.95960 0.73870 -0.03600
O 	O 	0.86800 0.20750 0.07400 -0.58100
H 	H 	0.83880 0.18390 0.03630 0.23800
O 	O 	0.87070 0.20930 0.42100 -0.59900
H 	H 	0.84170 0.18580 0.45970 0.26000
O 	O 	0.75240 0.28530 0.91800 -0.53400
H 	H 	0.75260 0.31290 0.91830 0.20500
C 	C 	0.98000 0.45150 0.03800 -0.07900
H 	H 	0.94150 0.45520 0.19560 0.02900
C 	C 	0.91800 0.47370 0.87600 -0.21400
H 	H 	0.84690 0.46050 0.88250 0.08800
H 	H 	0.94670 0.46790 0.71120 0.09700
C 	C 	0.09200 0.47320 0.09000 0.15200
H 	H 	0.86010 0.46660 0.95290 -0.01700
H 	H 	0.87760 0.45960 0.23870 -0.03600
O 	O 	0.63200 0.79250 0.57400 -0.58100
H 	H 	0.66120 0.81610 0.53630 0.24300
O 	O 	0.62930 0.79070 0.92100 -0.61700
H 	H 	0.65830 0.81420 0.95970 0.25400
O 	O 	0.74760 0.71470 0.41800 -0.54500
H 	H 	0.74740 0.68710 0.41830 0.20100
C 	C 	0.52000 0.54850 0.53800 -0.03500
H 	H 	0.55850 0.54480 0.69560 0.00800
C 	C 	0.58200 0.52630 0.37600 -0.27500
H 	H 	0.65310 0.53950 0.38250 0.05000
H 	H 	0.55330 0.53210 0.21120 0.11200
C 	C 	0.40800 0.52680 0.59000 0.13800
H 	H 	0.63990 0.53340 0.45290 0.03800
H 	H 	0.62240 0.54040 0.73870 -0.03500
O 	O 	0.13200 0.29250 0.07400 -0.59000
H 	H 	0.16120 0.31610 0.03630 0.23800
O 	O 	0.12930 0.29070 0.42100 -0.60900
H 	H 	0.15830 0.31420 0.45970 0.25900
O 	O 	0.24760 0.21470 0.91800 -0.53300
H 	H 	0.24740 0.18710 0.91830 0.20300
C 	C 	0.02000 0.04850 0.03800 0.01200
H 	H 	0.05850 0.04480 0.19560 -0.01300
C 	C 	0.08200 0.02630 0.87600 -0.32800
H 	H 	0.15310 0.03950 0.88250 0.04700
H 	H 	0.05330 0.03210 0.71120 0.12300
C 	C 	0.90800 0.02680 0.09000 0.13200
H 	H 	0.13990 0.03340 0.95290 0.05800
H 	H 	0.12240 0.04040 0.23870 -0.03500
O 	O 	0.63200 0.20750 0.42600 -0.58100
H 	H 	0.66120 0.18390 0.46370 0.24300
O 	O 	0.62930 0.20930 0.07900 -0.61700
H 	H 	0.65830 0.18580 0.04030 0.25400
O 	O 	0.74760 0.28530 0.58200 -0.54500
H 	H 	0.74740 0.31290 0.58170 0.20100
C 	C 	0.52000 0.45150 0.46200 -0.03500
H 	H 	0.55850 0.45520 0.30440 0.00800
C 	C 	0.58200 0.47370 0.62400 -0.27500
H 	H 	0.65310 0.46050 0.61750 0.05000
H 	H 	0.55330 0.46790 0.78880 0.11200
C 	C 	0.40800 0.47320 0.41000 0.13800
H 	H 	0.63990 0.46660 0.54710 0.03800
H 	H 	0.62240 0.45960 0.26130 -0.03500
O 	O 	0.13200 0.70750 0.92600 -0.59000
H 	H 	0.16120 0.68390 0.96370 0.23800
O 	O 	0.12930 0.70930 0.57900 -0.60900
H 	H 	0.15830 0.68580 0.54030 0.25900
O 	O 	0.24760 0.78530 0.08200 -0.53300
H 	H 	0.24740 0.81290 0.08170 0.20300
C 	C 	0.02000 0.95150 0.96200 0.01200
H 	H 	0.05850 0.95520 0.80440 -0.01300
C 	C 	0.08200 0.97370 0.12400 -0.32800
H 	H 	0.15310 0.96050 0.11750 0.04700
H 	H 	0.05330 0.96790 0.28880 0.12300
C 	C 	0.90800 0.97320 0.91000 0.13200
H 	H 	0.13990 0.96660 0.04710 0.05800
H 	H 	0.12240 0.95960 0.76130 -0.03500
O 	O 	0.36800 0.29250 0.42600 -0.58100
H 	H 	0.33880 0.31610 0.46370 0.24300
O 	O 	0.37070 0.29070 0.07900 -0.61700
H 	H 	0.34170 0.31420 0.04030 0.25400
O 	O 	0.25240 0.21470 0.58200 -0.54400
H 	H 	0.25260 0.18710 0.58170 0.19900
C 	C 	0.48000 0.04850 0.46200 -0.03500
H 	H 	0.44150 0.04480 0.30440 0.00800
C 	C 	0.41800 0.02630 0.62400 -0.27500
H 	H 	0.34690 0.03950 0.61750 0.04900
H 	H 	0.44670 0.03210 0.78880 0.11200
C 	C 	0.59200 0.02680 0.41000 0.13800
H 	H 	0.36010 0.03340 0.54710 0.03900
H 	H 	0.37760 0.04040 0.26130 -0.03600
O 	O 	0.86800 0.79250 0.92600 -0.58100
H 	H 	0.83880 0.81610 0.96370 0.23800
O 	O 	0.87070 0.79070 0.57900 -0.59900
H 	H 	0.84170 0.81420 0.54030 0.26000
O 	O 	0.75240 0.71470 0.08200 -0.53400
H 	H 	0.75260 0.68710 0.08170 0.20500
C 	C 	0.98000 0.54850 0.96200 -0.07900
H 	H 	0.94150 0.54480 0.80440 0.02900
C 	C 	0.91800 0.52630 0.12400 -0.21400
H 	H 	0.84690 0.53950 0.11750 0.08800
H 	H 	0.94670 0.53210 0.28880 0.09700
C 	C 	0.09200 0.52680 0.91000 0.15200
H 	H 	0.86010 0.53340 0.04710 -0.01700
H 	H 	0.87760 0.54040 0.76130 -0.03600
O 	O 	0.63200 0.29250 0.42600 -0.58100
H 	H 	0.66120 0.31610 0.46370 0.24300
O 	O 	0.62930 0.29070 0.07900 -0.61700
H 	H 	0.65830 0.31420 0.04030 0.25400
O 	O 	0.74760 0.21470 0.58200 -0.54500
H 	H 	0.74740 0.18710 0.58170 0.20100
C 	C 	0.52000 0.04850 0.46200 -0.03500
H 	H 	0.55850 0.04480 0.30440 0.00800
C 	C 	0.58200 0.02630 0.62400 -0.27500
H 	H 	0.65310 0.03950 0.61750 0.05000
H 	H 	0.55330 0.03210 0.78880 0.11200
C 	C 	0.40800 0.02680 0.41000 0.13800
H 	H 	0.63990 0.03340 0.54710 0.03800
H 	H 	0.62240 0.04040 0.26130 -0.03600
O 	O 	0.13200 0.79250 0.92600 -0.59000
H 	H 	0.16120 0.81610 0.96370 0.23800
O 	O 	0.12930 0.79070 0.57900 -0.60900
H 	H 	0.15830 0.81420 0.54030 0.25900
O 	O 	0.24760 0.71470 0.08200 -0.53300
H 	H 	0.24740 0.68710 0.08170 0.20300
C 	C 	0.02000 0.54850 0.96200 0.01300
H 	H 	0.05850 0.54480 0.80440 -0.01300
C 	C 	0.08200 0.52630 0.12400 -0.32900
H 	H 	0.15310 0.53950 0.11750 0.04500
H 	H 	0.05330 0.53210 0.28880 0.12400
C 	C 	0.90800 0.52680 0.91000 0.13200
H 	H 	0.13990 0.53340 0.04710 0.06000
H 	H 	0.12240 0.54040 0.76130 -0.03500
O 	O 	0.36800 0.20750 0.42600 -0.58100
H 	H 	0.33880 0.18390 0.46370 0.24300
O 	O 	0.37070 0.20930 0.07900 -0.61700
H 	H 	0.34170 0.18580 0.04030 0.25400
O 	O 	0.25240 0.28530 0.58200 -0.54400
H 	H 	0.25260 0.31290 0.58170 0.19900
C 	C 	0.48000 0.45150 0.46200 -0.03500
H 	H 	0.44150 0.45520 0.30440 0.00800
C 	C 	0.41800 0.47370 0.62400 -0.27600
H 	H 	0.34690 0.46050 0.61750 0.04900
H 	H 	0.44670 0.46790 0.78880 0.11200
C 	C 	0.59200 0.47320 0.41000 0.13800
H 	H 	0.36010 0.46660 0.54710 0.03900
H 	H 	0.37760 0.45960 0.26130 -0.03600
O 	O 	0.86800 0.70750 0.92600 -0.58100
H 	H 	0.83880 0.68390 0.96370 0.23800
O 	O 	0.87070 0.70930 0.57900 -0.59900
H 	H 	0.84170 0.68580 0.54030 0.26000
O 	O 	0.75240 0.78530 0.08200 -0.53400
H 	H 	0.75260 0.81290 0.08170 0.20500
C 	C 	0.98000 0.95150 0.96200 -0.08000
H 	H 	0.94150 0.95520 0.80440 0.02900
C 	C 	0.91800 0.97370 0.12400 -0.21200
H 	H 	0.84690 0.96050 0.11750 0.08900
H 	H 	0.94670 0.96790 0.28880 0.09700
C 	C 	0.09200 0.97320 0.91000 0.15200
H 	H 	0.86010 0.96660 0.04710 -0.01900
H 	H 	0.87760 0.95960 0.76130 -0.03600
O 	O 	0.36800 0.79250 0.57400 -0.58100
H 	H 	0.33880 0.81610 0.53630 0.24300
O 	O 	0.37070 0.79070 0.92100 -0.61700
H 	H 	0.34170 0.81420 0.95970 0.25400
O 	O 	0.25240 0.71470 0.41800 -0.54400
H 	H 	0.25260 0.68710 0.41830 0.19900
C 	C 	0.48000 0.54850 0.53800 -0.03500
H 	H 	0.44150 0.54480 0.69560 0.00800
C 	C 	0.41800 0.52630 0.37600 -0.27600
H 	H 	0.34690 0.53950 0.38250 0.04900
H 	H 	0.44670 0.53210 0.21120 0.11200
C 	C 	0.59200 0.52680 0.59000 0.13800
H 	H 	0.36010 0.53340 0.45290 0.03900
H 	H 	0.37760 0.54040 0.73870 -0.03600
O 	O 	0.86800 0.29250 0.07400 -0.58100
H 	H 	0.83880 0.31610 0.03630 0.23800
O 	O 	0.87070 0.29070 0.42100 -0.59900
H 	H 	0.84170 0.31420 0.45970 0.26000
O 	O 	0.75240 0.21470 0.91800 -0.53400
H 	H 	0.75260 0.18710 0.91830 0.20500
C 	C 	0.98000 0.04850 0.03800 -0.08000
H 	H 	0.94150 0.04480 0.19560 0.02900
C 	C 	0.91800 0.02630 0.87600 -0.21200
H 	H 	0.84690 0.03950 0.88250 0.08900
H 	H 	0.94670 0.03210 0.71120 0.09700
C 	C 	0.09200 0.02680 0.09000 0.15200
H 	H 	0.86010 0.03340 0.95290 -0.01900
H 	H 	0.87760 0.04040 0.23870 -0.03600
O 	O 	0.63200 0.70750 0.57400 -0.58100
H 	H 	0.66120 0.68390 0.53630 0.24300
O 	O 	0.62930 0.70930 0.92100 -0.61700
H 	H 	0.65830 0.68580 0.95970 0.25400
O 	O 	0.74760 0.78530 0.41800 -0.54500
H 	H 	0.74740 0.81290 0.41830 0.20100
C 	C 	0.52000 0.95150 0.53800 -0.03500
H 	H 	0.55850 0.95520 0.69560 0.00800
C 	C 	0.58200 0.97370 0.37600 -0.27500
H 	H 	0.65310 0.96050 0.38250 0.05000
H 	H 	0.55330 0.96790 0.21120 0.11200
C 	C 	0.40800 0.97320 0.59000 0.13800
H 	H 	0.63990 0.96660 0.45290 0.03800
H 	H 	0.62240 0.95960 0.73870 -0.03600
O 	O 	0.13200 0.20750 0.07400 -0.59000
H 	H 	0.16120 0.18390 0.03630 0.23800
O 	O 	0.12930 0.20930 0.42100 -0.60900
H 	H 	0.15830 0.18580 0.45970 0.25900
O 	O 	0.24760 0.28530 0.91800 -0.53300
H 	H 	0.24740 0.31290 0.91830 0.20300
C 	C 	0.02000 0.45150 0.03800 0.01300
H 	H 	0.05850 0.45520 0.19560 -0.01300
C 	C 	0.08200 0.47370 0.87600 -0.32900
H 	H 	0.15310 0.46050 0.88250 0.04500
H 	H 	0.05330 0.46790 0.71120 0.12400
C 	C 	0.90800 0.47320 0.09000 0.13200
H 	H 	0.13990 0.46660 0.95290 0.06000
H 	H 	0.12240 0.45960 0.23870 -0.03500
Co	Co	0.37561 0.75000 0.24540 1.30800
Co	Co	0.87561 0.25000 0.74540 1.31400
Co	Co	0.62439 0.75000 0.24540 1.30800
Co	Co	0.12439 0.25000 0.74540 1.30800
Co	Co	0.62439 0.25000 0.75460 1.30800
Co	Co	0.12439 0.75000 0.25460 1.30800
Co	Co	0.37561 0.25000 0.75460 1.30800
Co	Co	0.87561 0.75000 0.25460 1.31400
Co	Co	0.25000 0.75000 0.75000 1.30400
Co	Co	0.75000 0.75000 0.75000 1.30300
Co	Co	0.75000 0.25000 0.25000 1.30300
Co	Co	0.25000 0.25000 0.25000 1.30400
Co	Co	0.50000 0.80909 0.74180 1.25800
O 	O 	0.50000 0.79460 0.10300 -0.48200
H 	H 	0.50000 0.81820 0.17960 0.10900
O 	O 	0.50000 0.78970 0.38600 -0.61400
H 	H 	0.50000 0.81310 0.30670 0.30900
O 	O 	0.50000 0.87880 0.73470 -0.43400
O 	O 	0.50000 0.88000 0.33000 -0.35800
C 	C 	0.50000 0.89920 0.52300 0.33100
Co	Co	-0.00000 0.30909 0.24180 1.25300
O 	O 	0.00000 0.29460 0.60300 -0.50600
H 	H 	0.00000 0.31820 0.67960 0.11500
O 	O 	-0.00000 0.28970 0.88600 -0.60600
H 	H 	-0.00000 0.31310 0.80670 0.30200
O 	O 	-0.00000 0.37880 0.23470 -0.43400
O 	O 	-0.00000 0.38000 0.83000 -0.35100
C 	C 	-0.00000 0.39920 0.02300 0.30300
Co	Co	0.50000 0.69091 0.74180 1.25800
O 	O 	0.50000 0.70540 0.10300 -0.48200
H 	H 	0.50000 0.68180 0.17960 0.10900
O 	O 	0.50000 0.71030 0.38600 -0.61400
H 	H 	0.50000 0.68690 0.30670 0.30900
O 	O 	0.50000 0.62120 0.73470 -0.43400
O 	O 	0.50000 0.62000 0.33000 -0.35800
C 	C 	0.50000 0.60080 0.52300 0.33100
Co	Co	-0.00000 0.19091 0.24180 1.25300
O 	O 	-0.00000 0.20540 0.60300 -0.50600
H 	H 	-0.00000 0.18180 0.67960 0.11500
O 	O 	-0.00000 0.21030 0.88600 -0.60600
H 	H 	-0.00000 0.18690 0.80670 0.30200
O 	O 	-0.00000 0.12120 0.23470 -0.43400
O 	O 	-0.00000 0.12000 0.83000 -0.35100
C 	C 	-0.00000 0.10080 0.02300 0.30300
Co	Co	0.50000 0.30909 0.25820 1.25800
O 	O 	0.50000 0.29460 0.89700 -0.48200
H 	H 	0.50000 0.31820 0.82040 0.10900
O 	O 	0.50000 0.28970 0.61400 -0.61400
H 	H 	0.50000 0.31310 0.69330 0.30900
O 	O 	0.50000 0.37880 0.26530 -0.43400
O 	O 	0.50000 0.38000 0.67000 -0.35800
C 	C 	0.50000 0.39920 0.47700 0.33100
Co	Co	0.00000 0.80909 0.75820 1.25300
O 	O 	-0.00000 0.79460 0.39700 -0.50600
H 	H 	-0.00000 0.81820 0.32040 0.11500
O 	O 	-0.00000 0.78970 0.11400 -0.60600
H 	H 	-0.00000 0.81310 0.19330 0.30200
O 	O 	-0.00000 0.87880 0.76530 -0.43400
O 	O 	0.00000 0.88000 0.17000 -0.35100
C 	C 	0.00000 0.89920 0.97700 0.30300
Co	Co	0.50000 0.19091 0.25820 1.25800
O 	O 	0.50000 0.20540 0.89700 -0.48200
H 	H 	0.50000 0.18180 0.82040 0.10900
O 	O 	0.50000 0.21030 0.61400 -0.61400
H 	H 	0.50000 0.18690 0.69330 0.30900
O 	O 	0.50000 0.12120 0.26530 -0.43400
O 	O 	0.50000 0.12000 0.67000 -0.35800
C 	C 	0.50000 0.10080 0.47700 0.33100
Co	Co	0.00000 0.69091 0.75820 1.25300
O 	O 	-0.00000 0.70540 0.39700 -0.50600
H 	H 	-0.00000 0.68180 0.32040 0.11500
O 	O 	-0.00000 0.71030 0.11400 -0.60600
H 	H 	-0.00000 0.68690 0.19330 0.30200
O 	O 	0.00000 0.62120 0.76530 -0.43400
O 	O 	0.00000 0.62000 0.17000 -0.35100
C 	C 	0.00000 0.60080 0.97700 0.30300
