data_crystal

_cell_length_a 12.45600
_cell_length_b 29.02700
_cell_length_c 5.39960
_cell_angle_alpha 90.00000
_cell_angle_beta  90.00000
_cell_angle_gamma 90.00000

_symmetry_space_group_name_	'P 1'
_symmetry_space_group_name_H-M	'P 1'

loop_
_symmetry_equiv_pos_as_xyz
  x,y,z

loop_
_atom_site_label
_atom_site_type_symbol
_atom_site_fract_x
_atom_site_fract_y
_atom_site_fract_z
_atom_site_charge
O 	O 	0.36830 0.70650 0.57390 -0.57800
H 	H 	0.33930 0.68290 0.53590 0.24000
O 	O 	0.37050 0.70950 0.91980 -0.61400
H 	H 	0.34150 0.68600 0.95880 0.25000
O 	O 	0.25180 0.78540 0.41870 -0.54500
H 	H 	0.25190 0.81300 0.41920 0.20000
C 	C 	0.47790 0.95180 0.54800 -0.04100
H 	H 	0.43090 0.95580 0.69620 -0.22800
C 	C 	0.42360 0.97440 0.34800 -0.49000
H 	H 	0.35120 0.96080 0.32890 0.19100
H 	H 	0.46360 0.96870 0.19220 0.14700
C 	C 	0.58800 0.97400 0.61700 0.57600
H 	H 	0.35940 0.96790 0.48320 -0.13800
H 	H 	0.38460 0.95990 0.77110 -0.03600
O 	O 	0.86830 0.20650 0.07390 -0.57500
H 	H 	0.83930 0.18290 0.03590 0.23500
O 	O 	0.87050 0.20950 0.41980 -0.59000
H 	H 	0.84150 0.18600 0.45880 0.25700
O 	O 	0.75180 0.28540 0.91870 -0.53300
H 	H 	0.75190 0.31300 0.91920 0.20700
C 	C 	0.97790 0.45180 0.04800 -0.12000
H 	H 	0.93090 0.45580 0.19620 -0.24200
C 	C 	0.92360 0.47440 0.84800 -0.52900
H 	H 	0.85120 0.46080 0.82890 0.21500
H 	H 	0.96360 0.46870 0.69220 0.17900
C 	C 	0.08800 0.47400 0.11700 0.62000
H 	H 	0.85940 0.46790 0.98320 -0.16100
H 	H 	0.88460 0.45990 0.27110 -0.04700
O 	O 	0.63170 0.79350 0.57390 -0.57800
H 	H 	0.66070 0.81710 0.53590 0.24000
O 	O 	0.62950 0.79050 0.91980 -0.61400
H 	H 	0.65850 0.81400 0.95880 0.25100
O 	O 	0.74820 0.71460 0.41870 -0.54600
H 	H 	0.74810 0.68700 0.41920 0.20200
C 	C 	0.52210 0.54820 0.54800 -0.04200
H 	H 	0.56910 0.54420 0.69620 -0.22600
C 	C 	0.57640 0.52560 0.34800 -0.48800
H 	H 	0.64880 0.53920 0.32890 0.19100
H 	H 	0.53640 0.53130 0.19220 0.14700
C 	C 	0.41200 0.52600 0.61700 0.57600
H 	H 	0.64060 0.53210 0.48320 -0.13600
H 	H 	0.61540 0.54010 0.77110 -0.03400
O 	O 	0.13170 0.29350 0.07390 -0.58900
H 	H 	0.16070 0.31710 0.03590 0.23400
O 	O 	0.12950 0.29050 0.41980 -0.60400
H 	H 	0.15850 0.31400 0.45880 0.25700
O 	O 	0.24820 0.21460 0.91870 -0.53200
H 	H 	0.24810 0.18700 0.91920 0.20500
C 	C 	0.02210 0.04820 0.04800 0.05600
H 	H 	0.06910 0.04420 0.19620 -0.29500
C 	C 	0.07640 0.02560 0.84800 -0.56000
H 	H 	0.14880 0.03920 0.82890 0.21600
H 	H 	0.03640 0.03130 0.69220 0.14500
C 	C 	0.91200 0.02600 0.11700 0.68600
H 	H 	0.14060 0.03210 0.98320 -0.15200
H 	H 	0.11540 0.04010 0.27110 -0.01900
O 	O 	0.63170 0.20650 0.42610 -0.57800
H 	H 	0.66070 0.18290 0.46410 0.24000
O 	O 	0.62950 0.20950 0.08020 -0.61400
H 	H 	0.65850 0.18600 0.04120 0.25100
O 	O 	0.74820 0.28540 0.58130 -0.54600
H 	H 	0.74810 0.31300 0.58080 0.20200
C 	C 	0.52210 0.45180 0.45200 -0.04200
H 	H 	0.56910 0.45580 0.30380 -0.22600
C 	C 	0.57640 0.47440 0.65200 -0.48800
H 	H 	0.64880 0.46080 0.67110 0.19100
H 	H 	0.53640 0.46870 0.80780 0.14700
C 	C 	0.41200 0.47400 0.38300 0.57600
H 	H 	0.64060 0.46790 0.51680 -0.13600
H 	H 	0.61540 0.45990 0.22890 -0.03400
O 	O 	0.13170 0.70650 0.92610 -0.58900
H 	H 	0.16070 0.68290 0.96410 0.23400
O 	O 	0.12950 0.70950 0.58020 -0.60400
H 	H 	0.15850 0.68600 0.54120 0.25700
O 	O 	0.24820 0.78540 0.08130 -0.53200
H 	H 	0.24810 0.81300 0.08080 0.20500
C 	C 	0.02210 0.95180 0.95200 0.05600
H 	H 	0.06910 0.95580 0.80380 -0.29500
C 	C 	0.07640 0.97440 0.15200 -0.56000
H 	H 	0.14880 0.96080 0.17110 0.21600
H 	H 	0.03640 0.96870 0.30780 0.14500
C 	C 	0.91200 0.97400 0.88300 0.68600
H 	H 	0.14060 0.96790 0.01680 -0.15200
H 	H 	0.11540 0.95990 0.72890 -0.01900
O 	O 	0.36830 0.29350 0.42610 -0.57800
H 	H 	0.33930 0.31710 0.46410 0.24000
O 	O 	0.37050 0.29050 0.08020 -0.61400
H 	H 	0.34150 0.31400 0.04120 0.25000
O 	O 	0.25180 0.21460 0.58130 -0.54500
H 	H 	0.25190 0.18700 0.58080 0.20000
C 	C 	0.47790 0.04820 0.45200 -0.04100
H 	H 	0.43090 0.04420 0.30380 -0.22800
C 	C 	0.42360 0.02560 0.65200 -0.49000
H 	H 	0.35120 0.03920 0.67110 0.19100
H 	H 	0.46360 0.03130 0.80780 0.14700
C 	C 	0.58800 0.02600 0.38300 0.57600
H 	H 	0.35940 0.03210 0.51680 -0.13800
H 	H 	0.38460 0.04010 0.22890 -0.03600
O 	O 	0.86830 0.79350 0.92610 -0.57500
H 	H 	0.83930 0.81710 0.96410 0.23500
O 	O 	0.87050 0.79050 0.58020 -0.59000
H 	H 	0.84150 0.81400 0.54120 0.25700
O 	O 	0.75180 0.71460 0.08130 -0.53300
H 	H 	0.75190 0.68700 0.08080 0.20700
C 	C 	0.97790 0.54820 0.95200 -0.12000
H 	H 	0.93090 0.54420 0.80380 -0.24200
C 	C 	0.92360 0.52560 0.15200 -0.52900
H 	H 	0.85120 0.53920 0.17110 0.21500
H 	H 	0.96360 0.53130 0.30780 0.17900
C 	C 	0.08800 0.52600 0.88300 0.62000
H 	H 	0.85940 0.53210 0.01680 -0.16100
H 	H 	0.88460 0.54010 0.72890 -0.04700
O 	O 	0.63170 0.29350 0.42610 -0.57800
H 	H 	0.66070 0.31710 0.46410 0.24000
O 	O 	0.62950 0.29050 0.08020 -0.61400
H 	H 	0.65850 0.31400 0.04120 0.25100
O 	O 	0.74820 0.21460 0.58130 -0.54600
H 	H 	0.74810 0.18700 0.58080 0.20200
C 	C 	0.52210 0.04820 0.45200 -0.04200
H 	H 	0.56910 0.04420 0.30380 -0.22700
C 	C 	0.57640 0.02560 0.65200 -0.48900
H 	H 	0.64880 0.03920 0.67110 0.19200
H 	H 	0.53640 0.03130 0.80780 0.14700
C 	C 	0.41200 0.02600 0.38300 0.57700
H 	H 	0.64060 0.03210 0.51680 -0.13700
H 	H 	0.61540 0.04010 0.22890 -0.03400
O 	O 	0.13170 0.79350 0.92610 -0.58900
H 	H 	0.16070 0.81710 0.96410 0.23400
O 	O 	0.12950 0.79050 0.58020 -0.60400
H 	H 	0.15850 0.81400 0.54120 0.25700
O 	O 	0.24820 0.71460 0.08130 -0.53200
H 	H 	0.24810 0.68700 0.08080 0.20400
C 	C 	0.02210 0.54820 0.95200 0.05600
H 	H 	0.06910 0.54420 0.80380 -0.28900
C 	C 	0.07640 0.52560 0.15200 -0.55300
H 	H 	0.14880 0.53920 0.17110 0.21200
H 	H 	0.03640 0.53130 0.30780 0.14300
C 	C 	0.91200 0.52600 0.88300 0.67400
H 	H 	0.14060 0.53210 0.01680 -0.14800
H 	H 	0.11540 0.54010 0.72890 -0.01800
O 	O 	0.36830 0.20650 0.42610 -0.57800
H 	H 	0.33930 0.18290 0.46410 0.24000
O 	O 	0.37050 0.20950 0.08020 -0.61400
H 	H 	0.34150 0.18600 0.04120 0.25000
O 	O 	0.25180 0.28540 0.58130 -0.54500
H 	H 	0.25190 0.31300 0.58080 0.20000
C 	C 	0.47790 0.45180 0.45200 -0.04100
H 	H 	0.43090 0.45580 0.30380 -0.22700
C 	C 	0.42360 0.47440 0.65200 -0.48900
H 	H 	0.35120 0.46080 0.67110 0.19000
H 	H 	0.46360 0.46870 0.80780 0.14700
C 	C 	0.58800 0.47400 0.38300 0.57400
H 	H 	0.35940 0.46790 0.51680 -0.13800
H 	H 	0.38460 0.45990 0.22890 -0.03500
O 	O 	0.86830 0.70650 0.92610 -0.57500
H 	H 	0.83930 0.68290 0.96410 0.23500
O 	O 	0.87050 0.70950 0.58020 -0.59000
H 	H 	0.84150 0.68600 0.54120 0.25700
O 	O 	0.75180 0.78540 0.08130 -0.53300
H 	H 	0.75190 0.81300 0.08080 0.20700
C 	C 	0.97790 0.95180 0.95200 -0.12000
H 	H 	0.93090 0.95580 0.80380 -0.24800
C 	C 	0.92360 0.97440 0.15200 -0.53600
H 	H 	0.85120 0.96080 0.17110 0.21800
H 	H 	0.96360 0.96870 0.30780 0.18100
C 	C 	0.08800 0.97400 0.88300 0.63200
H 	H 	0.85940 0.96790 0.01680 -0.16400
H 	H 	0.88460 0.95990 0.72890 -0.04700
O 	O 	0.36830 0.79350 0.57390 -0.57800
H 	H 	0.33930 0.81710 0.53590 0.24000
O 	O 	0.37050 0.79050 0.91980 -0.61400
H 	H 	0.34150 0.81400 0.95880 0.25000
O 	O 	0.25180 0.71460 0.41870 -0.54500
H 	H 	0.25190 0.68700 0.41920 0.20000
C 	C 	0.47790 0.54820 0.54800 -0.04100
H 	H 	0.43090 0.54420 0.69620 -0.22700
C 	C 	0.42360 0.52560 0.34800 -0.48900
H 	H 	0.35120 0.53920 0.32890 0.19000
H 	H 	0.46360 0.53130 0.19220 0.14700
C 	C 	0.58800 0.52600 0.61700 0.57400
H 	H 	0.35940 0.53210 0.48320 -0.13800
H 	H 	0.38460 0.54010 0.77110 -0.03500
O 	O 	0.86830 0.29350 0.07390 -0.57500
H 	H 	0.83930 0.31710 0.03590 0.23500
O 	O 	0.87050 0.29050 0.41980 -0.59000
H 	H 	0.84150 0.31400 0.45880 0.25700
O 	O 	0.75180 0.21460 0.91870 -0.53300
H 	H 	0.75190 0.18700 0.91920 0.20700
C 	C 	0.97790 0.04820 0.04800 -0.12000
H 	H 	0.93090 0.04420 0.19620 -0.24800
C 	C 	0.92360 0.02560 0.84800 -0.53600
H 	H 	0.85120 0.03920 0.82890 0.21800
H 	H 	0.96360 0.03130 0.69220 0.18100
C 	C 	0.08800 0.02600 0.11700 0.63200
H 	H 	0.85940 0.03210 0.98320 -0.16400
H 	H 	0.88460 0.04010 0.27110 -0.04700
O 	O 	0.63170 0.70650 0.57390 -0.57800
H 	H 	0.66070 0.68290 0.53590 0.24000
O 	O 	0.62950 0.70950 0.91980 -0.61400
H 	H 	0.65850 0.68600 0.95880 0.25100
O 	O 	0.74820 0.78540 0.41870 -0.54600
H 	H 	0.74810 0.81300 0.41920 0.20200
C 	C 	0.52210 0.95180 0.54800 -0.04200
H 	H 	0.56910 0.95580 0.69620 -0.22700
C 	C 	0.57640 0.97440 0.34800 -0.48900
H 	H 	0.64880 0.96080 0.32890 0.19200
H 	H 	0.53640 0.96870 0.19220 0.14700
C 	C 	0.41200 0.97400 0.61700 0.57700
H 	H 	0.64060 0.96790 0.48320 -0.13700
H 	H 	0.61540 0.95990 0.77110 -0.03400
O 	O 	0.13170 0.20650 0.07390 -0.58900
H 	H 	0.16070 0.18290 0.03590 0.23400
O 	O 	0.12950 0.20950 0.41980 -0.60400
H 	H 	0.15850 0.18600 0.45880 0.25700
O 	O 	0.24820 0.28540 0.91870 -0.53200
H 	H 	0.24810 0.31300 0.91920 0.20400
C 	C 	0.02210 0.45180 0.04800 0.05600
H 	H 	0.06910 0.45580 0.19620 -0.28900
C 	C 	0.07640 0.47440 0.84800 -0.55300
H 	H 	0.14880 0.46080 0.82890 0.21200
H 	H 	0.03640 0.46870 0.69220 0.14300
C 	C 	0.91200 0.47400 0.11700 0.67400
H 	H 	0.14060 0.46790 0.98320 -0.14800
H 	H 	0.11540 0.45990 0.27110 -0.01800
Co	Co	0.37551 0.75000 0.24540 1.30800
Co	Co	0.87551 0.25000 0.74540 1.31800
Co	Co	0.62449 0.75000 0.24540 1.30900
Co	Co	0.12449 0.25000 0.74540 1.30900
Co	Co	0.62449 0.25000 0.75460 1.30900
Co	Co	0.12449 0.75000 0.25460 1.30900
Co	Co	0.37551 0.25000 0.75460 1.30800
Co	Co	0.87551 0.75000 0.25460 1.31800
Co	Co	0.25000 0.75000 0.75000 1.30100
Co	Co	0.75000 0.75000 0.75000 1.30000
Co	Co	0.75000 0.25000 0.25000 1.30000
Co	Co	0.25000 0.25000 0.25000 1.30100
Co	Co	0.50000 0.80905 0.74240 1.25800
O 	O 	0.50000 0.79380 0.10300 -0.48800
H 	H 	0.50000 0.81730 0.17970 0.11100
O 	O 	0.50000 0.78820 0.38800 -0.61500
H 	H 	0.50000 0.81140 0.30850 0.30700
O 	O 	0.50000 0.87860 0.73730 -0.42400
O 	O 	0.50000 0.88070 0.32640 -0.34500
C 	C 	0.50000 0.89970 0.52800 0.34400
Co	Co	-0.00000 0.30905 0.24240 1.24900
O 	O 	-0.00000 0.29380 0.60300 -0.51700
H 	H 	-0.00000 0.31730 0.67970 0.11800
O 	O 	-0.00000 0.28820 0.88800 -0.61000
H 	H 	-0.00000 0.31140 0.80850 0.30200
O 	O 	-0.00000 0.37860 0.23730 -0.42300
O 	O 	-0.00000 0.38070 0.82640 -0.34100
C 	C 	-0.00000 0.39970 0.02800 0.31100
Co	Co	0.50000 0.69095 0.74240 1.25800
O 	O 	0.50000 0.70620 0.10300 -0.48800
H 	H 	0.50000 0.68270 0.17970 0.11100
O 	O 	0.50000 0.71180 0.38800 -0.61500
H 	H 	0.50000 0.68860 0.30850 0.30700
O 	O 	0.50000 0.62140 0.73730 -0.42400
O 	O 	0.50000 0.61930 0.32640 -0.34500
C 	C 	0.50000 0.60030 0.52800 0.34400
Co	Co	-0.00000 0.19095 0.24240 1.24900
O 	O 	-0.00000 0.20620 0.60300 -0.51700
H 	H 	-0.00000 0.18270 0.67970 0.11800
O 	O 	-0.00000 0.21180 0.88800 -0.61000
H 	H 	-0.00000 0.18860 0.80850 0.30200
O 	O 	-0.00000 0.12140 0.23730 -0.42300
O 	O 	-0.00000 0.11930 0.82640 -0.34100
C 	C 	-0.00000 0.10030 0.02800 0.31100
Co	Co	0.50000 0.30905 0.25760 1.25800
O 	O 	0.50000 0.29380 0.89700 -0.48800
H 	H 	0.50000 0.31730 0.82030 0.11100
O 	O 	0.50000 0.28820 0.61200 -0.61500
H 	H 	0.50000 0.31140 0.69150 0.30700
O 	O 	0.50000 0.37860 0.26270 -0.42400
O 	O 	0.50000 0.38070 0.67360 -0.34500
C 	C 	0.50000 0.39970 0.47200 0.34400
Co	Co	-0.00000 0.80905 0.75760 1.24900
O 	O 	-0.00000 0.79380 0.39700 -0.51700
H 	H 	-0.00000 0.81730 0.32030 0.11800
O 	O 	-0.00000 0.78820 0.11200 -0.61000
H 	H 	-0.00000 0.81140 0.19150 0.30200
O 	O 	-0.00000 0.87860 0.76270 -0.42300
O 	O 	-0.00000 0.88070 0.17360 -0.34100
C 	C 	-0.00000 0.89970 0.97200 0.31100
Co	Co	0.50000 0.19095 0.25760 1.25800
O 	O 	0.50000 0.20620 0.89700 -0.48800
H 	H 	0.50000 0.18270 0.82030 0.11100
O 	O 	0.50000 0.21180 0.61200 -0.61500
H 	H 	0.50000 0.18860 0.69150 0.30700
O 	O 	0.50000 0.12140 0.26270 -0.42400
O 	O 	0.50000 0.11930 0.67360 -0.34500
C 	C 	0.50000 0.10030 0.47200 0.34400
Co	Co	-0.00000 0.69095 0.75760 1.24900
O 	O 	-0.00000 0.70620 0.39700 -0.51700
H 	H 	-0.00000 0.68270 0.32030 0.11800
O 	O 	-0.00000 0.71180 0.11200 -0.61000
H 	H 	-0.00000 0.68860 0.19150 0.30200
O 	O 	-0.00000 0.62140 0.76270 -0.42300
O 	O 	-0.00000 0.61930 0.17360 -0.34100
C 	C 	-0.00000 0.60030 0.97200 0.31100
