data_crystal

_cell_length_a 15.54700
_cell_length_b 20.20300
_cell_length_c 20.45100
_cell_angle_alpha 118.19000
_cell_angle_beta  95.92000
_cell_angle_gamma 103.52000

_symmetry_space_group_name_	'P 1'
_symmetry_space_group_name_H-M	'P 1'

loop_
_symmetry_equiv_pos_as_xyz
  x,y,z

loop_
_atom_site_label
_atom_site_type_symbol
_atom_site_fract_x
_atom_site_fract_y
_atom_site_fract_z
_atom_site_charge
Ca	Ca	0.14348 0.12290 0.75551 1.49900
Ca	Ca	0.90988 0.18249 0.80093 1.48600
Ca	Ca	0.32898 0.17463 0.91040 1.48600
Ca	Ca	0.52844 0.14350 0.84886 1.47900
O 	O 	0.70330 0.69470 0.63460 -0.26500
O 	O 	0.89850 0.05340 0.72720 -0.53900
O 	O 	0.01910 0.01040 0.71460 -0.48400
O 	O 	0.58430 0.33520 0.33370 -0.27800
O 	O 	0.60490 0.17040 0.98360 -0.42900
O 	O 	0.47960 0.20300 0.97230 -0.62000
O 	O 	0.48150 0.38560 0.64060 -0.26900
O 	O 	0.28870 0.22440 0.81540 -0.56000
O 	O 	0.42970 0.21770 0.84270 -0.59800
O 	O 	0.09630 0.36480 0.51040 -0.26000
O 	O 	0.96770 0.22690 0.72400 -0.54500
O 	O 	0.08960 0.18750 0.70170 -0.52600
O 	O 	0.10350 0.35670 0.22610 -0.26500
O 	O 	0.06010 0.20190 0.86110 -0.58800
O 	O 	0.17200 0.16420 0.89420 -0.59900
O 	O 	0.18630 0.69960 0.53060 -0.26400
O 	O 	0.24300 0.05720 0.78440 -0.59400
O 	O 	0.37820 0.05110 0.82280 -0.59000
O 	O 	0.84770 0.14110 0.88580 -0.56100
O 	O 	0.65270 0.25260 0.87490 -0.57300
C 	C 	0.66540 0.54940 0.57150 -0.17400
C 	C 	0.62790 0.50630 0.49220 0.23600
C 	C 	0.56870 0.42690 0.45800 -0.18500
C 	C 	0.55020 0.39090 0.50070 0.22700
C 	C 	0.58830 0.43530 0.58170 -0.18400
C 	C 	0.63990 0.51500 0.61650 0.21900
C 	C 	0.66800 0.56640 0.70480 -0.55100
H 	H 	0.70460 0.62050 0.72060 0.19500
H 	H 	0.70410 0.54370 0.72560 0.18400
H 	H 	0.61310 0.56770 0.72440 0.18200
C 	C 	0.65290 0.54590 0.44560 -0.60100
H 	H 	0.62200 0.50850 0.39140 0.20900
H 	H 	0.71920 0.56140 0.45180 0.20700
H 	H 	0.63350 0.59300 0.46390 0.21500
C 	C 	0.49450 0.30190 0.46140 -0.56900
H 	H 	0.48690 0.28750 0.50050 0.19100
H 	H 	0.52700 0.27000 0.42710 0.18600
H 	H 	0.43440 0.29170 0.43180 0.20000
C 	C 	0.74130 0.62830 0.60830 0.08000
H 	H 	0.78360 0.63520 0.65240 0.01800
H 	H 	0.77650 0.62870 0.57070 0.01500
C 	C 	0.76310 0.76600 0.65120 0.24400
C 	C 	0.73230 0.83010 0.68430 -0.24100
H 	H 	0.67380 0.82290 0.69490 0.10100
C 	C 	0.78580 0.90630 0.70290 0.11600
H 	H 	0.76130 0.94890 0.72170 -0.03100
C 	C 	0.87780 0.91950 0.69340 -0.20000
C 	C 	0.90780 0.85350 0.66230 0.12800
H 	H 	0.96750 0.86030 0.65420 -0.00700
C 	C 	0.85310 0.77780 0.64240 -0.24100
H 	H 	0.87660 0.73470 0.62320 0.11500
C 	C 	0.93500 0.00120 0.71600 0.42900
C 	C 	0.52690 0.38050 0.37170 0.10900
H 	H 	0.46460 0.34440 0.35970 0.00900
H 	H 	0.52240 0.41760 0.35380 -0.00700
C 	C 	0.56650 0.30000 0.25490 0.27100
C 	C 	0.62680 0.26090 0.21950 -0.26900
H 	H 	0.67270 0.25590 0.24970 0.11800
C 	C 	0.62160 0.22980 0.14320 0.15500
H 	H 	0.66480 0.20510 0.12180 -0.02100
C 	C 	0.55440 0.23370 0.09600 -0.22700
C 	C 	0.49010 0.27040 0.13190 0.14200
H 	H 	0.44180 0.27300 0.10180 -0.06200
C 	C 	0.49760 0.30240 0.21090 -0.27800
H 	H 	0.45400 0.32570 0.23340 0.11200
C 	C 	0.54200 0.19830 0.01190 0.39500
C 	C 	0.57500 0.39640 0.63030 0.10600
H 	H 	0.58520 0.34440 0.60440 -0.01600
H 	H 	0.61970 0.43040 0.68080 -0.01300
C 	C 	0.45970 0.34750 0.68080 0.24000
C 	C 	0.51910 0.32050 0.71000 -0.23900
H 	H 	0.57820 0.32460 0.70060 0.08900
C 	C 	0.48960 0.28660 0.75450 0.10300
H 	H 	0.53070 0.27180 0.77840 -0.03800
C 	C 	0.40090 0.27540 0.76260 -0.19800
C 	C 	0.34060 0.29760 0.72970 0.11200
H 	H 	0.28000 0.29020 0.73590 -0.01400
C 	C 	0.37060 0.33150 0.68650 -0.23700
H 	H 	0.32820 0.34370 0.66060 0.11100
C 	C 	0.37130 0.23540 0.80980 0.36300
C 	C 	0.07600 0.44550 0.45740 -0.17400
C 	C 	0.04880 0.40980 0.37860 0.20500
C 	C 	0.08110 0.45200 0.34100 -0.16600
C 	C 	0.14620 0.53050 0.38590 0.19900
C 	C 	0.17660 0.56450 0.46480 -0.16800
C 	C 	0.14220 0.52230 0.50160 0.21800
C 	C 	0.98190 0.32360 0.32890 -0.55000
H 	H 	0.97110 0.30780 0.27470 0.19300
H 	H 	0.92380 0.32080 0.34380 0.18200
H 	H 	0.00850 0.28770 0.33680 0.19200
C 	C 	0.17600 0.57430 0.34320 -0.51800
H 	H 	0.21980 0.62710 0.37970 0.17200
H 	H 	0.12240 0.57980 0.31900 0.16500
H 	H 	0.20470 0.54400 0.30380 0.16600
C 	C 	0.17620 0.56170 0.58820 -0.57000
H 	H 	0.22180 0.61380 0.60860 0.20100
H 	H 	0.20400 0.52840 0.59980 0.19500
H 	H 	0.12480 0.56810 0.61190 0.18900
C 	C 	0.03410 0.40560 0.49920 0.08300
H 	H 	0.02830 0.44560 0.54920 0.00700
H 	H 	0.97270 0.36700 0.46840 0.01800
C 	C 	0.07620 0.33190 0.55650 0.24100
C 	C 	0.00600 0.33730 0.59170 -0.25400
H 	H 	0.96600 0.36430 0.58590 0.12000
C 	C 	0.99380 0.30210 0.63690 0.13400
H 	H 	0.94670 0.30810 0.66320 -0.02900
C 	C 	0.04700 0.25990 0.64450 -0.20800
C 	C 	0.11880 0.25310 0.60560 0.11600
H 	H 	0.15690 0.22410 0.61000 -0.01600
C 	C 	0.13370 0.28850 0.56140 -0.23100
H 	H 	0.18110 0.28350 0.53540 0.10900
C 	C 	0.03350 0.22100 0.69350 0.44600
C 	C 	0.05190 0.41090 0.25490 0.10500
H 	H 	0.98550 0.38160 0.23610 -0.01000
H 	H 	0.06550 0.45000 0.23800 -0.01200
C 	C 	0.10000 0.32030 0.14810 0.23700
C 	C 	0.15410 0.26990 0.12380 -0.24700
H 	H 	0.18770 0.26260 0.15990 0.10900
C 	C 	0.15870 0.23140 0.04910 0.13000
H 	H 	0.19600 0.19830 0.03400 -0.06100
C 	C 	0.10580 0.24110 0.99130 -0.24000
C 	C 	0.05430 0.29100 0.01640 0.13800
H 	H 	0.02160 0.29990 0.98100 -0.06400
C 	C 	0.04870 0.33030 0.09510 -0.24600
H 	H 	0.01050 0.36260 0.11070 0.09700
C 	C 	0.11190 0.20120 0.91010 0.44200
C 	C 	0.24330 0.64750 0.51060 0.09400
H 	H 	0.28150 0.65580 0.55740 0.00300
H 	H 	0.28370 0.65780 0.47980 -0.00300
C 	C 	0.21990 0.77680 0.59170 0.24000
C 	C 	0.16040 0.82100 0.60230 -0.24500
H 	H 	0.10240 0.79730 0.56690 0.11800
C 	C 	0.18280 0.89820 0.66250 0.12300
H 	H 	0.14000 0.92620 0.67070 -0.02600
C 	C 	0.27220 0.93400 0.71160 -0.22200
C 	C 	0.33540 0.89350 0.69980 0.12200
H 	H 	0.39560 0.91930 0.73220 -0.04700
C 	C 	0.30950 0.81320 0.63910 -0.24600
H 	H 	0.35180 0.78470 0.63060 0.10200
C 	C 	0.29920 0.01990 0.77660 0.40100
H 	H 	0.80400 0.13730 0.90730 0.22900
H 	H 	0.85190 0.18470 0.88350 0.01600
H 	H 	0.68480 0.30450 0.89990 0.21300
Ca	Ca	0.85652 0.87710 0.24449 1.50000
Ca	Ca	0.09012 0.81751 0.19907 1.48700
Ca	Ca	0.67102 0.82537 0.08960 1.48700
Ca	Ca	0.47156 0.85650 0.15114 1.48000
O 	O 	0.29670 0.30530 0.36540 -0.26400
O 	O 	0.10150 0.94660 0.27280 -0.53800
O 	O 	0.98090 0.98960 0.28540 -0.48300
O 	O 	0.41570 0.66480 0.66630 -0.27700
O 	O 	0.39510 0.82960 0.01640 -0.42800
O 	O 	0.52040 0.79700 0.02770 -0.61900
O 	O 	0.51850 0.61440 0.35940 -0.26800
O 	O 	0.71130 0.77560 0.18460 -0.55900
O 	O 	0.57030 0.78230 0.15730 -0.59700
O 	O 	0.90370 0.63520 0.48960 -0.25900
O 	O 	0.03230 0.77310 0.27600 -0.54400
O 	O 	0.91040 0.81250 0.29830 -0.52500
O 	O 	0.89650 0.64330 0.77390 -0.26400
O 	O 	0.93990 0.79810 0.13890 -0.58700
O 	O 	0.82800 0.83580 0.10580 -0.59800
O 	O 	0.81370 0.30040 0.46940 -0.26300
O 	O 	0.75700 0.94280 0.21560 -0.59300
O 	O 	0.62180 0.94890 0.17720 -0.58900
O 	O 	0.15230 0.85890 0.11420 -0.56100
O 	O 	0.34730 0.74740 0.12510 -0.57300
C 	C 	0.33460 0.45060 0.42850 -0.17400
C 	C 	0.37210 0.49370 0.50780 0.23600
C 	C 	0.43130 0.57310 0.54200 -0.18500
C 	C 	0.44980 0.60910 0.49930 0.22700
C 	C 	0.41170 0.56470 0.41830 -0.18400
C 	C 	0.36010 0.48500 0.38350 0.21900
C 	C 	0.33200 0.43360 0.29520 -0.55100
H 	H 	0.29540 0.37950 0.27940 0.19500
H 	H 	0.29590 0.45630 0.27440 0.18400
H 	H 	0.38690 0.43230 0.27560 0.18200
C 	C 	0.34710 0.45410 0.55440 -0.60100
H 	H 	0.37800 0.49150 0.60860 0.20900
H 	H 	0.28080 0.43860 0.54820 0.20700
H 	H 	0.36650 0.40700 0.53610 0.21500
C 	C 	0.50550 0.69810 0.53860 -0.56900
H 	H 	0.51310 0.71250 0.49950 0.19100
H 	H 	0.47300 0.73000 0.57290 0.18600
H 	H 	0.56560 0.70830 0.56820 0.20000
C 	C 	0.25870 0.37170 0.39170 0.08000
H 	H 	0.21640 0.36480 0.34760 0.01800
H 	H 	0.22350 0.37130 0.42930 0.01500
C 	C 	0.23690 0.23400 0.34880 0.24400
C 	C 	0.26770 0.16990 0.31570 -0.24100
H 	H 	0.32620 0.17710 0.30510 0.10100
C 	C 	0.21420 0.09370 0.29710 0.11600
H 	H 	0.23870 0.05110 0.27830 -0.03100
C 	C 	0.12220 0.08050 0.30660 -0.20000
C 	C 	0.09220 0.14650 0.33770 0.12800
H 	H 	0.03250 0.13970 0.34580 -0.00700
C 	C 	0.14690 0.22220 0.35760 -0.24100
H 	H 	0.12340 0.26530 0.37680 0.11500
C 	C 	0.06500 0.99880 0.28400 0.42900
C 	C 	0.47310 0.61950 0.62830 0.10900
H 	H 	0.53540 0.65560 0.64030 0.00900
H 	H 	0.47760 0.58240 0.64620 -0.00700
C 	C 	0.43350 0.70000 0.74510 0.27100
C 	C 	0.37320 0.73910 0.78050 -0.26900
H 	H 	0.32730 0.74410 0.75030 0.11800
C 	C 	0.37840 0.77020 0.85680 0.15500
H 	H 	0.33520 0.79490 0.87820 -0.02100
C 	C 	0.44560 0.76630 0.90400 -0.22700
C 	C 	0.50990 0.72960 0.86810 0.14200
H 	H 	0.55820 0.72700 0.89820 -0.06200
C 	C 	0.50240 0.69760 0.78910 -0.27800
H 	H 	0.54600 0.67430 0.76660 0.11200
C 	C 	0.45800 0.80170 0.98810 0.39500
C 	C 	0.42500 0.60360 0.36970 0.10600
H 	H 	0.41480 0.65560 0.39560 -0.01600
H 	H 	0.38030 0.56960 0.31920 -0.01300
C 	C 	0.54030 0.65250 0.31920 0.24000
C 	C 	0.48090 0.67950 0.29000 -0.23900
H 	H 	0.42180 0.67540 0.29940 0.08900
C 	C 	0.51040 0.71340 0.24550 0.10300
H 	H 	0.46930 0.72820 0.22160 -0.03800
C 	C 	0.59910 0.72460 0.23740 -0.19800
C 	C 	0.65940 0.70240 0.27030 0.11200
H 	H 	0.72000 0.70980 0.26410 -0.01400
C 	C 	0.62940 0.66850 0.31350 -0.23700
H 	H 	0.67180 0.65630 0.33940 0.11100
C 	C 	0.62870 0.76460 0.19020 0.36300
C 	C 	0.92400 0.55450 0.54260 -0.17400
C 	C 	0.95120 0.59020 0.62140 0.20500
C 	C 	0.91890 0.54800 0.65900 -0.16600
C 	C 	0.85380 0.46950 0.61410 0.19900
C 	C 	0.82340 0.43550 0.53520 -0.16800
C 	C 	0.85780 0.47770 0.49840 0.21800
C 	C 	0.01810 0.67640 0.67110 -0.55000
H 	H 	0.02890 0.69220 0.72530 0.19300
H 	H 	0.07620 0.67920 0.65620 0.18200
H 	H 	0.99150 0.71230 0.66320 0.19200
C 	C 	0.82400 0.42570 0.65680 -0.51800
H 	H 	0.78020 0.37290 0.62030 0.17200
H 	H 	0.87760 0.42020 0.68100 0.16500
H 	H 	0.79530 0.45600 0.69620 0.16600
C 	C 	0.82380 0.43830 0.41180 -0.57000
H 	H 	0.77820 0.38620 0.39140 0.20100
H 	H 	0.79600 0.47160 0.40020 0.19500
H 	H 	0.87520 0.43190 0.38810 0.18900
C 	C 	0.96590 0.59440 0.50080 0.08300
H 	H 	0.97170 0.55440 0.45080 0.00700
H 	H 	0.02730 0.63300 0.53160 0.01800
C 	C 	0.92380 0.66810 0.44350 0.24100
C 	C 	0.99400 0.66270 0.40830 -0.25400
H 	H 	0.03400 0.63570 0.41410 0.12000
C 	C 	0.00620 0.69790 0.36310 0.13400
H 	H 	0.05330 0.69190 0.33680 -0.02900
C 	C 	0.95300 0.74010 0.35550 -0.20800
C 	C 	0.88120 0.74690 0.39440 0.11600
H 	H 	0.84310 0.77590 0.39000 -0.01600
C 	C 	0.86630 0.71150 0.43860 -0.23100
H 	H 	0.81890 0.71650 0.46460 0.10900
C 	C 	0.96650 0.77900 0.30650 0.44600
C 	C 	0.94810 0.58910 0.74510 0.10500
H 	H 	0.01450 0.61840 0.76390 -0.01000
H 	H 	0.93450 0.55000 0.76200 -0.01200
C 	C 	0.90000 0.67970 0.85190 0.23700
C 	C 	0.84590 0.73010 0.87620 -0.24700
H 	H 	0.81230 0.73740 0.84010 0.10900
C 	C 	0.84130 0.76860 0.95090 0.13000
H 	H 	0.80400 0.80170 0.96600 -0.06100
C 	C 	0.89420 0.75890 0.00870 -0.24000
C 	C 	0.94570 0.70900 0.98360 0.13800
H 	H 	0.97840 0.70010 0.01900 -0.06400
C 	C 	0.95130 0.66970 0.90490 -0.24600
H 	H 	0.98950 0.63740 0.88930 0.09700
C 	C 	0.88810 0.79880 0.08990 0.44200
C 	C 	0.75670 0.35250 0.48940 0.09400
H 	H 	0.71850 0.34420 0.44260 0.00300
H 	H 	0.71630 0.34220 0.52020 -0.00300
C 	C 	0.78010 0.22320 0.40830 0.24000
C 	C 	0.83960 0.17900 0.39770 -0.24500
H 	H 	0.89760 0.20270 0.43310 0.11800
C 	C 	0.81720 0.10180 0.33750 0.12300
H 	H 	0.86000 0.07380 0.32930 -0.02600
C 	C 	0.72780 0.06600 0.28840 -0.22200
C 	C 	0.66460 0.10650 0.30020 0.12200
H 	H 	0.60440 0.08070 0.26780 -0.04700
C 	C 	0.69050 0.18680 0.36090 -0.24600
H 	H 	0.64820 0.21530 0.36940 0.10200
C 	C 	0.70080 0.98010 0.22340 0.40100
H 	H 	0.19600 0.86270 0.09270 0.22900
H 	H 	0.14810 0.81530 0.11650 0.01600
H 	H 	0.31520 0.69550 0.10010 0.21300
