data_crystal

_cell_length_a 10.38000
_cell_length_b 10.75200
_cell_length_c 16.02500
_cell_angle_alpha 90.00000
_cell_angle_beta  106.41900
_cell_angle_gamma 90.00000

_symmetry_space_group_name_	'P 1'
_symmetry_space_group_name_H-M	'P 1'

loop_
_symmetry_equiv_pos_as_xyz
  x,y,z

loop_
_atom_site_label
_atom_site_type_symbol
_atom_site_fract_x
_atom_site_fract_y
_atom_site_fract_z
_atom_site_charge
Nd	Nd	0.63446 0.87069 0.97227 2.01700
Nd	Nd	0.86554 0.37069 0.52773 2.02300
Nd	Nd	0.36554 0.12931 0.02773 2.01600
Nd	Nd	0.13446 0.62931 0.47227 2.02200
H 	H 	0.09160 0.90130 0.92810 -0.00800
H 	H 	0.22280 0.72650 0.74600 -0.03000
H 	H 	0.84210 0.68770 0.75060 0.00600
H 	H 	0.40840 0.40130 0.57190 -0.00800
H 	H 	0.27720 0.22650 0.75400 -0.02900
H 	H 	0.65790 0.18770 0.74940 0.00600
H 	H 	0.90840 0.09870 0.07190 -0.00800
H 	H 	0.77720 0.27350 0.25400 -0.03000
H 	H 	0.15790 0.31230 0.24940 0.00600
H 	H 	0.59160 0.59870 0.42810 -0.00800
H 	H 	0.72280 0.77350 0.24600 -0.02900
H 	H 	0.34210 0.81230 0.25060 0.00600
C 	C 	0.83380 0.83610 0.88090 0.33600
C 	C 	0.94860 0.80170 0.84380 -0.17400
C 	C 	0.07600 0.84830 0.88050 0.12100
C 	C 	0.18210 0.81630 0.84650 -0.23400
C 	C 	0.15450 0.74400 0.77140 0.14500
C 	C 	0.02620 0.69760 0.73390 -0.22400
C 	C 	0.92630 0.72360 0.77280 0.11600
C 	C 	0.32360 0.85640 0.89100 0.48100
C 	C 	0.99570 0.62780 0.64830 0.49700
C 	C 	0.66620 0.33610 0.61910 0.33500
C 	C 	0.55140 0.30170 0.65620 -0.17000
C 	C 	0.42400 0.34830 0.61950 0.11600
C 	C 	0.31790 0.31630 0.65350 -0.23300
C 	C 	0.34550 0.24400 0.72860 0.14500
C 	C 	0.47380 0.19760 0.76610 -0.22600
C 	C 	0.57370 0.22360 0.72720 0.11800
C 	C 	0.17640 0.35640 0.60900 0.48100
C 	C 	0.50430 0.12780 0.85170 0.49900
C 	C 	0.16620 0.16390 0.11910 0.33600
C 	C 	0.05140 0.19830 0.15620 -0.17400
C 	C 	0.92400 0.15170 0.11950 0.12100
C 	C 	0.81790 0.18370 0.15350 -0.23400
C 	C 	0.84550 0.25600 0.22860 0.14500
C 	C 	0.97380 0.30240 0.26610 -0.22400
C 	C 	0.07370 0.27640 0.22720 0.11600
C 	C 	0.67640 0.14360 0.10900 0.48100
C 	C 	0.00430 0.37220 0.35170 0.49700
C 	C 	0.33380 0.66390 0.38090 0.33500
C 	C 	0.44860 0.69830 0.34380 -0.17000
C 	C 	0.57600 0.65170 0.38050 0.11600
C 	C 	0.68210 0.68370 0.34650 -0.23300
C 	C 	0.65450 0.75600 0.27140 0.14500
C 	C 	0.52620 0.80240 0.23390 -0.22600
C 	C 	0.42630 0.77640 0.27280 0.11800
C 	C 	0.82360 0.64360 0.39100 0.48100
C 	C 	0.49570 0.87220 0.14830 0.49900
O 	O 	0.85540 0.91240 0.94290 -0.44600
O 	O 	0.72160 0.78610 0.84920 -0.43500
O 	O 	0.34300 0.94140 0.94680 -0.59600
O 	O 	0.41780 0.80190 0.87210 -0.51200
O 	O 	0.91990 0.53500 0.63810 -0.49900
O 	O 	0.04720 0.67290 0.59300 -0.56900
O 	O 	0.64460 0.41240 0.55710 -0.44400
O 	O 	0.77840 0.28610 0.65080 -0.43400
O 	O 	0.15700 0.44140 0.55320 -0.59500
O 	O 	0.08220 0.30190 0.62790 -0.51200
O 	O 	0.58010 0.03500 0.86190 -0.49600
O 	O 	0.45280 0.17290 0.90700 -0.56700
O 	O 	0.14460 0.08760 0.05710 -0.44600
O 	O 	0.27840 0.21390 0.15080 -0.43500
O 	O 	0.65700 0.05860 0.05320 -0.59600
O 	O 	0.58220 0.19810 0.12790 -0.51200
O 	O 	0.08010 0.46500 0.36190 -0.49900
O 	O 	0.95280 0.32710 0.40700 -0.56900
O 	O 	0.35540 0.58760 0.44290 -0.44400
O 	O 	0.22160 0.71390 0.34920 -0.43400
O 	O 	0.84300 0.55860 0.44680 -0.59500
O 	O 	0.91780 0.69810 0.37210 -0.51200
O 	O 	0.41990 0.96500 0.13810 -0.49600
O 	O 	0.54720 0.82710 0.09300 -0.56700
