data_crystal

_cell_length_a 16.40710
_cell_length_b 11.80750
_cell_length_c 15.28320
_cell_angle_alpha 90.00000
_cell_angle_beta  90.00000
_cell_angle_gamma 90.00000

_symmetry_space_group_name_	'P 1'
_symmetry_space_group_name_H-M	'P 1'

loop_
_symmetry_equiv_pos_as_xyz
  x,y,z

loop_
_atom_site_label
_atom_site_type_symbol
_atom_site_fract_x
_atom_site_fract_y
_atom_site_fract_z
_atom_site_charge
Zn	Zn	0.09964 0.59755 0.17098 1.21900
O 	O 	0.08580 0.34350 0.20800 -0.54000
O 	O 	0.14840 0.49640 0.25650 -0.50200
O 	O 	0.30960 0.48020 0.52670 -0.35400
O 	O 	0.32510 0.32150 0.59370 -0.47300
O 	O 	0.14540 0.04740 0.43870 -0.31100
O 	O 	0.06590 0.72250 0.25030 -0.49300
C 	C 	0.16030 0.33070 0.33680 -0.08100
C 	C 	0.21310 0.38110 0.40030 -0.00400
H 	H 	0.22770 0.45670 0.39400 0.05400
C 	C 	0.24260 0.32120 0.47000 -0.05100
C 	C 	0.21630 0.20850 0.48140 -0.13600
H 	H 	0.23420 0.16780 0.52980 0.10200
C 	C 	0.16570 0.15870 0.42340 0.20000
C 	C 	0.13890 0.21700 0.34950 -0.11900
H 	H 	0.10660 0.18020 0.30830 0.07400
C 	C 	0.12940 0.39630 0.26370 0.41200
C 	C 	0.29810 0.37700 0.53330 0.35400
C 	C 	0.07100 0.00690 0.41060 0.36000
C 	C 	0.07310 0.91170 0.35590 -0.26300
H 	H 	0.12250 0.88130 0.33740 0.14100
Zn	Zn	0.40036 0.40245 0.67098 1.22300
O 	O 	0.41420 0.65650 0.70800 -0.53000
O 	O 	0.35160 0.50360 0.75650 -0.49700
O 	O 	0.19040 0.51980 0.02670 -0.36200
O 	O 	0.17490 0.67850 0.09370 -0.47500
O 	O 	0.35460 0.95260 0.93870 -0.29200
O 	O 	0.43410 0.27750 0.75030 -0.49600
C 	C 	0.33970 0.66930 0.83680 -0.08100
C 	C 	0.28690 0.61890 0.90030 -0.00200
H 	H 	0.27230 0.54330 0.89400 0.06200
C 	C 	0.25740 0.67880 0.97000 -0.04000
C 	C 	0.28370 0.79150 0.98140 -0.06900
H 	H 	0.26580 0.83220 0.02980 0.05600
C 	C 	0.33430 0.84130 0.92340 0.17400
C 	C 	0.36110 0.78300 0.84950 -0.10400
H 	H 	0.39340 0.81980 0.80830 0.07500
C 	C 	0.37060 0.60370 0.76370 0.41400
C 	C 	0.20190 0.62300 0.03330 0.33000
C 	C 	0.42900 0.99310 0.91060 0.34200
C 	C 	0.42690 0.08830 0.85590 -0.25200
H 	H 	0.37750 0.11870 0.83740 0.14200
Zn	Zn	0.59964 0.40245 0.67098 1.22300
O 	O 	0.58580 0.65650 0.70800 -0.52900
O 	O 	0.64840 0.50360 0.75650 -0.49300
O 	O 	0.80960 0.51980 0.02670 -0.35200
O 	O 	0.82510 0.67850 0.09370 -0.46700
O 	O 	0.64540 0.95260 0.93870 -0.29000
O 	O 	0.56590 0.27750 0.75030 -0.49500
C 	C 	0.66030 0.66930 0.83680 -0.07700
C 	C 	0.71310 0.61890 0.90030 -0.00400
H 	H 	0.72770 0.54330 0.89400 0.06600
C 	C 	0.74260 0.67880 0.97000 -0.03400
C 	C 	0.71630 0.79150 0.98140 -0.07200
H 	H 	0.73420 0.83220 0.02980 0.06100
C 	C 	0.66570 0.84130 0.92340 0.17900
C 	C 	0.63890 0.78300 0.84950 -0.10500
H 	H 	0.60660 0.81980 0.80830 0.07600
C 	C 	0.62940 0.60370 0.76370 0.41400
C 	C 	0.79810 0.62300 0.03330 0.33000
C 	C 	0.57100 0.99310 0.91060 0.34300
C 	C 	0.57310 0.08830 0.85590 -0.25200
H 	H 	0.62250 0.11870 0.83740 0.14400
Zn	Zn	0.90036 0.59755 0.17098 1.22700
O 	O 	0.91420 0.34350 0.20800 -0.51600
O 	O 	0.85160 0.49640 0.25650 -0.49300
O 	O 	0.69040 0.48020 0.52670 -0.35000
O 	O 	0.67490 0.32150 0.59370 -0.46900
O 	O 	0.85460 0.04740 0.43870 -0.31200
O 	O 	0.93410 0.72250 0.25030 -0.46400
C 	C 	0.83970 0.33070 0.33680 -0.06900
C 	C 	0.78690 0.38110 0.40030 -0.00800
H 	H 	0.77230 0.45670 0.39400 0.05900
C 	C 	0.75740 0.32120 0.47000 -0.04300
C 	C 	0.78370 0.20850 0.48140 -0.14000
H 	H 	0.76580 0.16780 0.52980 0.10800
C 	C 	0.83430 0.15870 0.42340 0.21100
C 	C 	0.86110 0.21700 0.34950 -0.12400
H 	H 	0.89340 0.18020 0.30830 0.08600
C 	C 	0.87060 0.39630 0.26370 0.41000
C 	C 	0.70190 0.37700 0.53330 0.35300
C 	C 	0.92900 0.00690 0.41060 0.38500
C 	C 	0.92690 0.91170 0.35590 -0.23100
H 	H 	0.87750 0.88130 0.33740 0.13600
Zn	Zn	-0.00000 0.35077 0.11828 1.15400
O 	O 	-0.00000 0.53630 0.11400 -0.80800
H 	H 	-0.00000 0.56020 0.05250 0.13400
C 	C 	0.00000 0.05270 0.43650 -0.48000
H 	H 	-0.00000 0.11630 0.47250 0.20200
C 	C 	-0.00000 0.86430 0.33030 0.04900
C 	C 	0.00000 0.75840 0.27230 0.35600
Zn	Zn	0.50000 0.64923 0.61828 1.16400
O 	O 	0.50000 0.46370 0.61400 -0.79400
H 	H 	0.50000 0.43980 0.55250 0.14500
C 	C 	0.50000 0.94730 0.93650 -0.41700
H 	H 	0.50000 0.88370 0.97250 0.19500
C 	C 	0.50000 0.13570 0.83030 0.07300
C 	C 	0.50000 0.24160 0.77230 0.39800
