data_crystal

_cell_length_a 13.81100
_cell_length_b 15.49800
_cell_length_c 15.49800
_cell_angle_alpha 120.00000
_cell_angle_beta  90.00000
_cell_angle_gamma 90.00000

_symmetry_space_group_name_	'P 1'
_symmetry_space_group_name_H-M	'P 1'

loop_
_symmetry_equiv_pos_as_xyz
  x,y,z

loop_
_atom_site_label
_atom_site_type_symbol
_atom_site_fract_x
_atom_site_fract_y
_atom_site_fract_z
_atom_site_charge
Ce	Ce	0.46549 0.66667 0.33334 2.15300
Ce	Ce	0.03451 0.66667 0.33334 2.15300
Ce	Ce	0.53451 0.33333 0.66666 2.15300
Ce	Ce	0.96549 0.33333 0.66666 2.15300
Cu	Cu	0.25000 0.47396 0.49880 0.95300
Cu	Cu	0.25000 0.02484 0.52604 0.95300
Cu	Cu	0.25000 0.50120 0.97516 0.95300
Cu	Cu	0.75000 0.97516 0.50120 0.95300
Cu	Cu	0.75000 0.49880 0.47396 0.95300
Cu	Cu	0.75000 0.52604 0.02484 0.95200
H 	H 	0.50440 0.38490 0.28610 0.11600
H 	H 	0.41200 0.35650 0.21800 0.10900
H 	H 	0.49030 0.39140 0.08920 0.11500
H 	H 	0.57330 0.37260 0.14720 0.11500
H 	H 	0.50440 0.90120 0.61510 0.11600
H 	H 	0.41200 0.86150 0.64350 0.10900
H 	H 	0.49030 0.69780 0.60860 0.11500
H 	H 	0.57330 0.77460 0.62740 0.11500
H 	H 	0.50440 0.71390 0.09880 0.11600
H 	H 	0.41200 0.78200 0.13850 0.10900
H 	H 	0.49030 0.91080 0.30220 0.11500
H 	H 	0.57330 0.85280 0.22540 0.11500
H 	H 	0.99560 0.38490 0.28610 0.11600
H 	H 	0.08800 0.35650 0.21800 0.10900
H 	H 	0.00970 0.39140 0.08920 0.11600
H 	H 	0.92670 0.37260 0.14720 0.11600
H 	H 	0.99560 0.90120 0.61510 0.11600
H 	H 	0.08800 0.86150 0.64350 0.10900
H 	H 	0.00970 0.69780 0.60860 0.11600
H 	H 	0.92670 0.77460 0.62740 0.11600
H 	H 	0.99560 0.71390 0.09880 0.11600
H 	H 	0.08800 0.78200 0.13850 0.10900
H 	H 	0.00970 0.91080 0.30220 0.11600
H 	H 	0.92670 0.85280 0.22540 0.11600
H 	H 	0.49560 0.09880 0.71390 0.11600
H 	H 	0.58800 0.13850 0.78200 0.10900
H 	H 	0.50970 0.30220 0.91080 0.11500
H 	H 	0.42670 0.22540 0.85280 0.11500
H 	H 	0.49560 0.28610 0.38490 0.11600
H 	H 	0.58800 0.21800 0.35650 0.10900
H 	H 	0.50970 0.08920 0.39140 0.11500
H 	H 	0.42670 0.14720 0.37260 0.11500
H 	H 	0.49560 0.61510 0.90120 0.11600
H 	H 	0.58800 0.64350 0.86150 0.10900
H 	H 	0.50970 0.60860 0.69780 0.11500
H 	H 	0.42670 0.62740 0.77460 0.11500
H 	H 	0.00440 0.09880 0.71390 0.11600
H 	H 	0.91200 0.13850 0.78200 0.10900
H 	H 	0.99030 0.30220 0.91080 0.11600
H 	H 	0.07330 0.22540 0.85280 0.11600
H 	H 	0.00440 0.28610 0.38490 0.11600
H 	H 	0.91200 0.21800 0.35650 0.10900
H 	H 	0.99030 0.08920 0.39140 0.11600
H 	H 	0.07330 0.14720 0.37260 0.11600
H 	H 	0.00440 0.61510 0.90120 0.11600
H 	H 	0.91200 0.64350 0.86150 0.10900
H 	H 	0.99030 0.60860 0.69780 0.11600
H 	H 	0.07330 0.62740 0.77460 0.11600
C 	C 	0.44880 0.41170 0.26910 -0.23600
C 	C 	0.38550 0.47200 0.36150 0.41700
C 	C 	0.53360 0.42360 0.14590 -0.24500
C 	C 	0.59790 0.49720 0.13520 0.41700
C 	C 	0.44880 0.85740 0.58830 -0.23600
C 	C 	0.38550 0.88950 0.52800 0.41700
C 	C 	0.53360 0.72230 0.57640 -0.24500
C 	C 	0.59790 0.63800 0.50280 0.41700
C 	C 	0.44880 0.73090 0.14260 -0.23600
C 	C 	0.38550 0.63850 0.11050 0.41600
C 	C 	0.53360 0.85410 0.27770 -0.24500
C 	C 	0.59790 0.86480 0.36200 0.41700
C 	C 	0.05120 0.41170 0.26910 -0.23600
C 	C 	0.11450 0.47200 0.36150 0.41700
C 	C 	0.96640 0.42360 0.14590 -0.24500
C 	C 	0.90210 0.49720 0.13520 0.41700
C 	C 	0.05120 0.85740 0.58830 -0.23600
C 	C 	0.11450 0.88950 0.52800 0.41700
C 	C 	0.96640 0.72230 0.57640 -0.24500
C 	C 	0.90210 0.63800 0.50280 0.41700
C 	C 	0.05120 0.73090 0.14260 -0.23500
C 	C 	0.11450 0.63850 0.11050 0.41700
C 	C 	0.96640 0.85410 0.27770 -0.24600
C 	C 	0.90210 0.86480 0.36200 0.41700
C 	C 	0.55120 0.14260 0.73090 -0.23600
C 	C 	0.61450 0.11050 0.63850 0.41700
C 	C 	0.46640 0.27770 0.85410 -0.24500
C 	C 	0.40210 0.36200 0.86480 0.41700
C 	C 	0.55120 0.26910 0.41170 -0.23600
C 	C 	0.61450 0.36150 0.47200 0.41700
C 	C 	0.46640 0.14590 0.42360 -0.24500
C 	C 	0.40210 0.13520 0.49720 0.41700
C 	C 	0.55120 0.58830 0.85740 -0.23600
C 	C 	0.61450 0.52800 0.88950 0.41700
C 	C 	0.46640 0.57640 0.72230 -0.24500
C 	C 	0.40210 0.50280 0.63800 0.41700
C 	C 	0.94880 0.14260 0.73090 -0.23500
C 	C 	0.88550 0.11050 0.63850 0.41700
C 	C 	0.03360 0.27770 0.85410 -0.24600
C 	C 	0.09790 0.36200 0.86480 0.41700
C 	C 	0.94880 0.26910 0.41170 -0.23600
C 	C 	0.88550 0.36150 0.47200 0.41700
C 	C 	0.03360 0.14590 0.42360 -0.24500
C 	C 	0.09790 0.13520 0.49720 0.41700
C 	C 	0.94880 0.58830 0.85740 -0.23600
C 	C 	0.88550 0.52800 0.88950 0.41700
C 	C 	0.03360 0.57640 0.72230 -0.24500
C 	C 	0.09790 0.50280 0.63800 0.41700
O 	O 	0.47920 0.47310 0.23430 -0.23200
O 	O 	0.37820 0.56410 0.39540 -0.49200
O 	O 	0.34800 0.42270 0.39530 -0.41600
O 	O 	0.59510 0.58610 0.20190 -0.45800
O 	O 	0.65170 0.45920 0.06040 -0.40500
O 	O 	0.47920 0.76120 0.52690 -0.23200
O 	O 	0.37820 0.83130 0.43590 -0.49200
O 	O 	0.34800 0.97260 0.57730 -0.41600
O 	O 	0.59510 0.61580 0.41390 -0.45800
O 	O 	0.65170 0.60120 0.54080 -0.40500
O 	O 	0.47920 0.76570 0.23880 -0.23200
O 	O 	0.37820 0.60460 0.16870 -0.49200
O 	O 	0.34800 0.60470 0.02740 -0.41600
O 	O 	0.59510 0.79810 0.38420 -0.45800
O 	O 	0.65170 0.93960 0.39880 -0.40500
O 	O 	0.02080 0.47310 0.23430 -0.23200
O 	O 	0.12180 0.56410 0.39540 -0.49200
O 	O 	0.15200 0.42270 0.39530 -0.41600
O 	O 	0.90490 0.58610 0.20190 -0.45800
O 	O 	0.84830 0.45920 0.06040 -0.40500
O 	O 	0.02080 0.76120 0.52690 -0.23200
O 	O 	0.12180 0.83130 0.43590 -0.49200
O 	O 	0.15200 0.97260 0.57730 -0.41600
O 	O 	0.90490 0.61580 0.41390 -0.45800
O 	O 	0.84830 0.60120 0.54080 -0.40500
O 	O 	0.02080 0.76570 0.23880 -0.23200
O 	O 	0.12180 0.60460 0.16870 -0.49200
O 	O 	0.15200 0.60470 0.02740 -0.41600
O 	O 	0.90490 0.79810 0.38420 -0.45800
O 	O 	0.84830 0.93960 0.39880 -0.40500
O 	O 	0.52080 0.23880 0.76570 -0.23200
O 	O 	0.62180 0.16870 0.60460 -0.49200
O 	O 	0.65200 0.02740 0.60470 -0.41600
O 	O 	0.40490 0.38420 0.79810 -0.45800
O 	O 	0.34830 0.39880 0.93960 -0.40500
O 	O 	0.52080 0.23430 0.47310 -0.23200
O 	O 	0.62180 0.39540 0.56410 -0.49200
O 	O 	0.65200 0.39530 0.42270 -0.41600
O 	O 	0.40490 0.20190 0.58610 -0.45800
O 	O 	0.34830 0.06040 0.45920 -0.40500
O 	O 	0.52080 0.52690 0.76120 -0.23200
O 	O 	0.62180 0.43590 0.83130 -0.49200
O 	O 	0.65200 0.57730 0.97260 -0.41600
O 	O 	0.40490 0.41390 0.61580 -0.45800
O 	O 	0.34830 0.54080 0.60120 -0.40500
O 	O 	0.97920 0.23880 0.76570 -0.23200
O 	O 	0.87820 0.16870 0.60460 -0.49200
O 	O 	0.84800 0.02740 0.60470 -0.41600
O 	O 	0.09510 0.38420 0.79810 -0.45800
O 	O 	0.15170 0.39880 0.93960 -0.40500
O 	O 	0.97920 0.23430 0.47310 -0.23200
O 	O 	0.87820 0.39540 0.56410 -0.49200
O 	O 	0.84800 0.39530 0.42270 -0.41600
O 	O 	0.09510 0.20190 0.58610 -0.45800
O 	O 	0.15170 0.06040 0.45920 -0.40500
O 	O 	0.97920 0.52690 0.76120 -0.23200
O 	O 	0.87820 0.43590 0.83130 -0.49200
O 	O 	0.84800 0.57730 0.97260 -0.41600
O 	O 	0.09510 0.41390 0.61580 -0.45800
O 	O 	0.15170 0.54080 0.60120 -0.40500
