data_crystal

_cell_length_a 15.52200
_cell_length_b 15.52200
_cell_length_c 13.71200
_cell_angle_alpha 90.00000
_cell_angle_beta  90.00000
_cell_angle_gamma 120.00000

_symmetry_space_group_name_	'P 1'
_symmetry_space_group_name_H-M	'P 1'

loop_
_symmetry_equiv_pos_as_xyz
  x,y,z

loop_
_atom_site_label
_atom_site_type_symbol
_atom_site_fract_x
_atom_site_fract_y
_atom_site_fract_z
_atom_site_charge
O 	O 	0.47250 0.23970 0.52260 -0.17700
O 	O 	0.58630 0.38430 0.40710 -0.39700
O 	O 	0.45980 0.39970 0.34860 -0.39900
C 	C 	0.49760 0.36200 0.40310 0.40300
C 	C 	0.42320 0.27830 0.46700 -0.23800
H 	H 	0.39070 0.30290 0.51000 0.11400
H 	H 	0.37270 0.22610 0.42670 0.11100
C 	C 	0.41020 0.14160 0.55140 -0.23800
H 	H 	0.38420 0.09920 0.49440 0.11600
H 	H 	0.35460 0.13660 0.58830 0.11000
O 	O 	0.56080 0.16530 0.62290 -0.40500
C 	C 	0.46880 0.10820 0.61390 0.40200
O 	O 	0.58130 0.60470 0.35010 -0.40800
O 	O 	0.76030 0.23280 0.52260 -0.17900
O 	O 	0.61570 0.20200 0.40710 -0.39800
O 	O 	0.60030 0.06010 0.34860 -0.39900
C 	C 	0.63800 0.13560 0.40310 0.40300
C 	C 	0.72170 0.14490 0.46700 -0.23800
H 	H 	0.69710 0.08780 0.51000 0.11400
H 	H 	0.77390 0.14660 0.42670 0.11100
C 	C 	0.85840 0.26860 0.55140 -0.23800
H 	H 	0.90080 0.28500 0.49440 0.11600
H 	H 	0.86340 0.21800 0.58830 0.11000
O 	O 	0.83470 0.39550 0.62290 -0.40500
C 	C 	0.89180 0.36060 0.61390 0.40200
O 	O 	0.39530 0.97660 0.35010 -0.40800
O 	O 	0.76720 0.52750 0.52260 -0.17800
O 	O 	0.79800 0.41370 0.40710 -0.39800
O 	O 	0.93990 0.54020 0.34860 -0.39900
C 	C 	0.86440 0.50240 0.40310 0.40300
C 	C 	0.85510 0.57680 0.46700 -0.23800
H 	H 	0.91220 0.60930 0.51000 0.11400
H 	H 	0.85340 0.62730 0.42670 0.11100
C 	C 	0.73140 0.58980 0.55140 -0.23800
H 	H 	0.71500 0.61580 0.49440 0.11600
H 	H 	0.78200 0.64540 0.58830 0.11000
O 	O 	0.60450 0.43920 0.62290 -0.40500
C 	C 	0.63940 0.53120 0.61390 0.40200
O 	O 	0.02340 0.41870 0.35010 -0.40800
O 	O 	0.47250 0.23970 0.97740 -0.17800
O 	O 	0.58630 0.38430 0.09290 -0.39800
O 	O 	0.45980 0.39970 0.15140 -0.39900
C 	C 	0.49760 0.36200 0.09690 0.40300
C 	C 	0.42320 0.27830 0.03300 -0.23900
H 	H 	0.39070 0.30290 0.99000 0.11500
H 	H 	0.37270 0.22610 0.07330 0.11100
C 	C 	0.41020 0.14160 0.94860 -0.23700
H 	H 	0.38420 0.09920 0.00560 0.11600
H 	H 	0.35460 0.13660 0.91170 0.11000
O 	O 	0.56080 0.16530 0.87710 -0.40400
C 	C 	0.46880 0.10820 0.88610 0.40200
O 	O 	0.58130 0.60470 0.14990 -0.40800
O 	O 	0.76030 0.23280 0.97740 -0.17700
O 	O 	0.61570 0.20200 0.09290 -0.39900
O 	O 	0.60030 0.06010 0.15140 -0.40000
C 	C 	0.63800 0.13560 0.09690 0.40400
C 	C 	0.72170 0.14490 0.03300 -0.24200
H 	H 	0.69710 0.08780 0.99000 0.11600
H 	H 	0.77390 0.14660 0.07330 0.11200
C 	C 	0.85840 0.26860 0.94860 -0.23600
H 	H 	0.90080 0.28500 0.00560 0.11500
H 	H 	0.86340 0.21800 0.91170 0.11000
O 	O 	0.83470 0.39550 0.87710 -0.40400
C 	C 	0.89180 0.36060 0.88610 0.40200
O 	O 	0.39530 0.97660 0.14990 -0.40800
O 	O 	0.76720 0.52750 0.97740 -0.17800
O 	O 	0.79800 0.41370 0.09290 -0.39800
O 	O 	0.93990 0.54020 0.15140 -0.40000
C 	C 	0.86440 0.50240 0.09690 0.40400
C 	C 	0.85510 0.57680 0.03300 -0.24000
H 	H 	0.91220 0.60930 0.99000 0.11500
H 	H 	0.85340 0.62730 0.07330 0.11200
C 	C 	0.73140 0.58980 0.94860 -0.23800
H 	H 	0.71500 0.61580 0.00560 0.11600
H 	H 	0.78200 0.64540 0.91170 0.11000
O 	O 	0.60450 0.43920 0.87710 -0.40500
C 	C 	0.63940 0.53120 0.88610 0.40200
O 	O 	0.02340 0.41870 0.14990 -0.40800
O 	O 	0.23970 0.47250 0.47740 -0.17800
O 	O 	0.38430 0.58630 0.59290 -0.39800
O 	O 	0.39970 0.45980 0.65140 -0.39900
C 	C 	0.36200 0.49760 0.59690 0.40300
C 	C 	0.27830 0.42320 0.53300 -0.23800
H 	H 	0.30290 0.39070 0.49000 0.11400
H 	H 	0.22610 0.37270 0.57330 0.11100
C 	C 	0.14160 0.41020 0.44860 -0.23800
H 	H 	0.09920 0.38420 0.50560 0.11600
H 	H 	0.13660 0.35460 0.41170 0.11000
O 	O 	0.16530 0.56080 0.37710 -0.40500
C 	C 	0.10820 0.46880 0.38610 0.40200
O 	O 	0.60470 0.58130 0.64990 -0.40800
O 	O 	0.23280 0.76030 0.47740 -0.17900
O 	O 	0.20200 0.61570 0.59290 -0.39800
O 	O 	0.06010 0.60030 0.65140 -0.39900
C 	C 	0.13560 0.63800 0.59690 0.40300
C 	C 	0.14490 0.72170 0.53300 -0.23800
H 	H 	0.08780 0.69710 0.49000 0.11400
H 	H 	0.14660 0.77390 0.57330 0.11100
C 	C 	0.26860 0.85840 0.44860 -0.23800
H 	H 	0.28500 0.90080 0.50560 0.11600
H 	H 	0.21800 0.86340 0.41170 0.11000
O 	O 	0.39550 0.83470 0.37710 -0.40500
C 	C 	0.36060 0.89180 0.38610 0.40200
O 	O 	0.97660 0.39530 0.64990 -0.40800
O 	O 	0.52750 0.76720 0.47740 -0.17800
O 	O 	0.41370 0.79800 0.59290 -0.39800
O 	O 	0.54020 0.93990 0.65140 -0.39900
C 	C 	0.50240 0.86440 0.59690 0.40300
C 	C 	0.57680 0.85510 0.53300 -0.23800
H 	H 	0.60930 0.91220 0.49000 0.11400
H 	H 	0.62730 0.85340 0.57330 0.11100
C 	C 	0.58980 0.73140 0.44860 -0.23800
H 	H 	0.61580 0.71500 0.50560 0.11600
H 	H 	0.64540 0.78200 0.41170 0.11000
O 	O 	0.43920 0.60450 0.37710 -0.40500
C 	C 	0.53120 0.63940 0.38610 0.40200
O 	O 	0.41870 0.02340 0.64990 -0.40800
O 	O 	0.23970 0.47250 0.02260 -0.17800
O 	O 	0.38430 0.58630 0.90710 -0.39800
O 	O 	0.39970 0.45980 0.84860 -0.39900
C 	C 	0.36200 0.49760 0.90310 0.40300
C 	C 	0.27830 0.42320 0.96700 -0.23900
H 	H 	0.30290 0.39070 0.01000 0.11500
H 	H 	0.22610 0.37270 0.92670 0.11100
C 	C 	0.14160 0.41020 0.05140 -0.23700
H 	H 	0.09920 0.38420 0.99440 0.11600
H 	H 	0.13660 0.35460 0.08830 0.11000
O 	O 	0.16530 0.56080 0.12290 -0.40400
C 	C 	0.10820 0.46880 0.11390 0.40200
O 	O 	0.60470 0.58130 0.85010 -0.40800
O 	O 	0.23280 0.76030 0.02260 -0.17700
O 	O 	0.20200 0.61570 0.90710 -0.39900
O 	O 	0.06010 0.60030 0.84860 -0.40000
C 	C 	0.13560 0.63800 0.90310 0.40400
C 	C 	0.14490 0.72170 0.96700 -0.24200
H 	H 	0.08780 0.69710 0.01000 0.11600
H 	H 	0.14660 0.77390 0.92670 0.11200
C 	C 	0.26860 0.85840 0.05140 -0.23600
H 	H 	0.28500 0.90080 0.99440 0.11500
H 	H 	0.21800 0.86340 0.08830 0.11000
O 	O 	0.39550 0.83470 0.12290 -0.40400
C 	C 	0.36060 0.89180 0.11390 0.40200
O 	O 	0.97660 0.39530 0.85010 -0.40800
O 	O 	0.52750 0.76720 0.02260 -0.17800
O 	O 	0.41370 0.79800 0.90710 -0.39800
O 	O 	0.54020 0.93990 0.84860 -0.40000
C 	C 	0.50240 0.86440 0.90310 0.40400
C 	C 	0.57680 0.85510 0.96700 -0.24000
H 	H 	0.60930 0.91220 0.01000 0.11500
H 	H 	0.62730 0.85340 0.92670 0.11200
C 	C 	0.58980 0.73140 0.05140 -0.23800
H 	H 	0.61580 0.71500 0.99440 0.11600
H 	H 	0.64540 0.78200 0.08830 0.11000
O 	O 	0.43920 0.60450 0.12290 -0.40500
C 	C 	0.53120 0.63940 0.11390 0.40200
O 	O 	0.41870 0.02340 0.85010 -0.40800
La	La	0.66667 0.33333 0.53937 1.72100
La	La	0.66667 0.33333 0.96063 1.72200
La	La	0.33333 0.66667 0.46063 1.72100
La	La	0.33333 0.66667 0.03937 1.72200
Cu	Cu	0.52863 0.50200 0.25000 0.94900
Cu	Cu	0.49800 0.02663 0.25000 0.94800
Cu	Cu	0.97337 0.47137 0.25000 0.94800
Cu	Cu	0.50200 0.52863 0.75000 0.94900
Cu	Cu	0.02663 0.49800 0.75000 0.94800
Cu	Cu	0.47137 0.97337 0.75000 0.94800
O 	O 	0.67400 0.32900 0.75000 -0.08100
O 	O 	0.67100 0.34500 0.75000 -0.08100
O 	O 	0.65500 0.32600 0.75000 -0.08100
O 	O 	0.32900 0.67400 0.25000 -0.08100
O 	O 	0.34500 0.67100 0.25000 -0.08100
O 	O 	0.32600 0.65500 0.25000 -0.08100
