data_crystal

_cell_length_a 13.66880
_cell_length_b 13.66880
_cell_length_c 19.36570
_cell_angle_alpha 96.28090
_cell_angle_beta  96.28090
_cell_angle_gamma 143.58630

_symmetry_space_group_name_	'P 1'
_symmetry_space_group_name_H-M	'P 1'

loop_
_symmetry_equiv_pos_as_xyz
  x,y,z

loop_
_atom_site_label
_atom_site_type_symbol
_atom_site_fract_x
_atom_site_fract_y
_atom_site_fract_z
_atom_site_charge
Zn	Zn	0.70516 0.65180 0.02887 1.22200
Zn	Zn	0.62613 0.80173 0.99164 1.21900
H 	H 	0.70810 0.59190 0.25930 0.14000
H 	H 	0.70720 0.85760 0.33660 0.19300
H 	H 	0.82460 0.93780 0.28630 0.19200
H 	H 	0.13260 0.62040 0.89320 0.08200
H 	H 	0.32770 0.66210 0.88730 -0.02000
H 	H 	0.58120 0.92440 0.09510 -0.01600
H 	H 	0.39460 0.89400 0.10580 0.08000
H 	H 	0.93070 0.54770 0.90810 0.07400
H 	H 	0.73640 0.50420 0.92350 -0.01000
H 	H 	0.05770 0.86650 0.11270 0.00600
H 	H 	0.25500 0.90900 0.10510 0.07600
C 	C 	0.69297 0.67933 0.18115 0.31800
C 	C 	0.72316 0.67110 0.25763 -0.25400
C 	C 	0.76573 0.75905 0.31809 0.15300
C 	C 	0.75110 0.70566 0.38618 0.32400
C 	C 	0.80591 0.90233 0.32962 -0.45800
C 	C 	0.96969 0.06025 0.39737 0.50000
C 	C 	0.22511 0.68551 0.93551 -0.15600
C 	C 	0.34118 0.70928 0.93243 0.09800
C 	C 	0.48949 0.86269 0.05329 0.10100
C 	C 	0.37784 0.84498 0.06001 -0.15600
C 	C 	0.24223 0.75645 0.00034 0.07400
C 	C 	0.11650 0.73022 0.00606 0.05200
C 	C 	0.95951 0.61283 0.95187 -0.12800
C 	C 	0.84389 0.58909 0.96069 0.08500
C 	C 	0.02951 0.79793 0.07092 0.08500
C 	C 	0.14998 0.82510 0.06644 -0.14900
N 	N 	0.47353 0.79681 0.99090 -0.27600
N 	N 	0.87990 0.68238 0.02005 -0.24200
O 	O 	0.63154 0.72022 0.17178 -0.29400
O 	O 	0.72120 0.63238 0.13411 -0.41700
O 	O 	0.78877 0.64681 0.39463 -0.46600
O 	O 	0.70102 0.72204 0.42684 -0.46100
O 	O 	0.07499 0.08279 0.41929 -0.49500
O 	O 	0.98464 0.16108 0.42670 -0.51000
O 	O 	0.52127 0.61461 0.02565 -0.76000
H 	H 	0.38539 0.47873 0.42271 0.19600
Zn	Zn	0.34820 0.29484 0.47113 1.22100
Zn	Zn	0.19827 0.37387 0.50836 1.22000
H 	H 	0.40810 0.29190 0.24070 0.14000
H 	H 	0.14240 0.29280 0.16340 0.19300
H 	H 	0.06220 0.17540 0.21370 0.19100
H 	H 	0.37960 0.86740 0.60680 0.08200
H 	H 	0.33790 0.67230 0.61270 -0.01900
H 	H 	0.07560 0.41880 0.40490 -0.01500
H 	H 	0.10600 0.60540 0.39420 0.08000
H 	H 	0.45230 0.06930 0.59190 0.07400
H 	H 	0.49580 0.26360 0.57650 -0.01000
H 	H 	0.13350 0.94230 0.38730 0.00500
H 	H 	0.09100 0.74500 0.39490 0.07600
C 	C 	0.32067 0.30703 0.31885 0.31800
C 	C 	0.32890 0.27684 0.24237 -0.25400
C 	C 	0.24095 0.23427 0.18191 0.15200
C 	C 	0.29434 0.24890 0.11382 0.32400
C 	C 	0.09767 0.19409 0.17038 -0.45800
C 	C 	0.93975 0.03031 0.10263 0.49900
C 	C 	0.31449 0.77489 0.56449 -0.15400
C 	C 	0.29072 0.65882 0.56757 0.09700
C 	C 	0.13731 0.51051 0.44671 0.09900
C 	C 	0.15502 0.62216 0.43999 -0.15500
C 	C 	0.24355 0.75777 0.49966 0.07200
C 	C 	0.26978 0.88350 0.49394 0.05200
C 	C 	0.38717 0.04049 0.54813 -0.12800
C 	C 	0.41091 0.15611 0.53931 0.08600
C 	C 	0.20207 0.97049 0.42908 0.08500
C 	C 	0.17490 0.85002 0.43356 -0.15000
N 	N 	0.20319 0.52647 0.50910 -0.27500
N 	N 	0.31762 0.12010 0.47995 -0.24300
O 	O 	0.27978 0.36846 0.32822 -0.29400
O 	O 	0.36762 0.27880 0.36589 -0.41700
O 	O 	0.35319 0.21123 0.10537 -0.46600
O 	O 	0.27796 0.29898 0.07316 -0.46100
O 	O 	0.91721 0.92501 0.08071 -0.49400
O 	O 	0.83892 0.01536 0.07330 -0.51000
O 	O 	0.38539 0.47873 0.47435 -0.76100
H 	H 	0.52127 0.61461 0.07729 0.19600
Zn	Zn	0.29484 0.34820 0.97113 1.22200
Zn	Zn	0.37387 0.19827 0.00836 1.21900
H 	H 	0.29190 0.40810 0.74070 0.14000
H 	H 	0.29280 0.14240 0.66340 0.19300
H 	H 	0.17540 0.06220 0.71370 0.19200
H 	H 	0.86740 0.37960 0.10680 0.08200
H 	H 	0.67230 0.33790 0.11270 -0.02000
H 	H 	0.41880 0.07560 0.90490 -0.01600
H 	H 	0.60540 0.10600 0.89420 0.08000
H 	H 	0.06930 0.45230 0.09190 0.07400
H 	H 	0.26360 0.49580 0.07650 -0.01000
H 	H 	0.94230 0.13350 0.88730 0.00600
H 	H 	0.74500 0.09100 0.89490 0.07600
C 	C 	0.30703 0.32067 0.81885 0.31800
C 	C 	0.27684 0.32890 0.74237 -0.25400
C 	C 	0.23427 0.24095 0.68191 0.15300
C 	C 	0.24890 0.29434 0.61382 0.32400
C 	C 	0.19409 0.09767 0.67038 -0.45800
C 	C 	0.03031 0.93975 0.60263 0.50000
C 	C 	0.77489 0.31449 0.06449 -0.15600
C 	C 	0.65882 0.29072 0.06757 0.09800
C 	C 	0.51051 0.13731 0.94671 0.10100
C 	C 	0.62216 0.15502 0.93999 -0.15600
C 	C 	0.75777 0.24355 0.99966 0.07400
C 	C 	0.88350 0.26978 0.99394 0.05200
C 	C 	0.04049 0.38717 0.04813 -0.12800
C 	C 	0.15611 0.41091 0.03931 0.08500
C 	C 	0.97049 0.20207 0.92908 0.08500
C 	C 	0.85002 0.17490 0.93356 -0.14900
N 	N 	0.52647 0.20319 0.00910 -0.27600
N 	N 	0.12010 0.31762 0.97995 -0.24200
O 	O 	0.36846 0.27978 0.82822 -0.29400
O 	O 	0.27880 0.36762 0.86589 -0.41700
O 	O 	0.21123 0.35319 0.60537 -0.46600
O 	O 	0.29898 0.27796 0.57316 -0.46100
O 	O 	0.92501 0.91721 0.58071 -0.49500
O 	O 	0.01536 0.83892 0.57330 -0.51000
O 	O 	0.47873 0.38539 0.97435 -0.76000
H 	H 	0.61461 0.52127 0.57729 0.19600
Zn	Zn	0.65180 0.70516 0.52887 1.22100
Zn	Zn	0.80173 0.62613 0.49164 1.22000
H 	H 	0.59190 0.70810 0.75930 0.14000
H 	H 	0.85760 0.70720 0.83660 0.19300
H 	H 	0.93780 0.82460 0.78630 0.19100
H 	H 	0.62040 0.13260 0.39320 0.08200
H 	H 	0.66210 0.32770 0.38730 -0.01900
H 	H 	0.92440 0.58120 0.59510 -0.01500
H 	H 	0.89400 0.39460 0.60580 0.08000
H 	H 	0.54770 0.93070 0.40810 0.07400
H 	H 	0.50420 0.73640 0.42350 -0.01000
H 	H 	0.86650 0.05770 0.61270 0.00500
H 	H 	0.90900 0.25500 0.60510 0.07600
C 	C 	0.67933 0.69297 0.68115 0.31800
C 	C 	0.67110 0.72316 0.75763 -0.25400
C 	C 	0.75905 0.76573 0.81809 0.15200
C 	C 	0.70566 0.75110 0.88618 0.32400
C 	C 	0.90233 0.80591 0.82962 -0.45800
C 	C 	0.06025 0.96969 0.89737 0.49900
C 	C 	0.68551 0.22511 0.43551 -0.15400
C 	C 	0.70928 0.34118 0.43243 0.09700
C 	C 	0.86269 0.48949 0.55329 0.09900
C 	C 	0.84498 0.37784 0.56001 -0.15500
C 	C 	0.75645 0.24223 0.50034 0.07200
C 	C 	0.73022 0.11650 0.50606 0.05200
C 	C 	0.61283 0.95951 0.45187 -0.12800
C 	C 	0.58909 0.84389 0.46069 0.08600
C 	C 	0.79793 0.02951 0.57092 0.08500
C 	C 	0.82510 0.14998 0.56644 -0.15000
N 	N 	0.79681 0.47353 0.49090 -0.27500
N 	N 	0.68238 0.87990 0.52005 -0.24300
O 	O 	0.72022 0.63154 0.67178 -0.29400
O 	O 	0.63238 0.72120 0.63411 -0.41700
O 	O 	0.64681 0.78877 0.89463 -0.46600
O 	O 	0.72204 0.70102 0.92684 -0.46100
O 	O 	0.08279 0.07499 0.91929 -0.49400
O 	O 	0.16108 0.98464 0.92670 -0.51000
O 	O 	0.61461 0.52127 0.52565 -0.76100
H 	H 	0.47873 0.38539 0.92271 0.19600
