data_crystal

_cell_length_a 10.40600
_cell_length_b 27.24420
_cell_length_c 13.17220
_cell_angle_alpha 90.00000
_cell_angle_beta  102.39500
_cell_angle_gamma 90.00000

_symmetry_space_group_name_	'P 1'
_symmetry_space_group_name_H-M	'P 1'

loop_
_symmetry_equiv_pos_as_xyz
  x,y,z

loop_
_atom_site_label
_atom_site_type_symbol
_atom_site_fract_x
_atom_site_fract_y
_atom_site_fract_z
_atom_site_charge
Cd	Cd	0.02664 0.07005 0.38025 1.19100
Cd	Cd	0.26989 0.88271 0.80240 1.18400
Cd	Cd	0.22885 0.18832 0.15920 1.21400
Si	Si	0.65068 0.04853 0.81434 1.37200
O 	O 	0.67310 0.23202 0.68270 -0.42500
O 	O 	0.62350 0.28386 0.79290 -0.44800
O 	O 	0.39030 0.20450 0.07460 -0.44500
O 	O 	0.52370 0.14437 0.14880 -0.50300
O 	O 	0.04990 0.15710 0.04500 -0.42900
O 	O 	0.22490 0.11033 0.07690 -0.41500
O 	O 	0.23900 0.95432 0.88820 -0.46100
O 	O 	0.05870 0.92446 0.78870 -0.57900
O 	O 	0.87340 0.07113 0.47760 -0.48600
O 	O 	0.71210 0.07120 0.33630 -0.51400
O 	O 	0.24990 0.07545 0.37190 -0.43800
O 	O 	0.20220 0.04967 0.51670 -0.42500
C 	C 	0.56710 0.99708 0.86650 -1.62400
H 	H 	0.58260 0.99960 0.94090 0.49000
H 	H 	0.60140 0.96640 0.84790 0.50400
H 	H 	0.47430 0.99860 0.83780 0.49100
C 	C 	0.60070 0.11004 0.85530 -0.54100
C 	C 	0.62290 0.15127 0.79760 0.28000
H 	H 	0.65560 0.14660 0.73790 -0.07100
C 	C 	0.59770 0.19876 0.82640 -0.27100
C 	C 	0.54570 0.20595 0.91440 0.19400
H 	H 	0.52520 0.23740 0.93310 -0.03900
C 	C 	0.52450 0.16583 0.97410 -0.31500
C 	C 	0.55310 0.11871 0.94450 0.29000
H 	H 	0.53990 0.09220 0.98570 -0.11600
C 	C 	0.47690 0.17231 0.07310 0.40900
C 	C 	0.63170 0.24054 0.76330 0.38000
C 	C 	0.83470 0.04512 0.85830 -0.52300
C 	C 	0.90460 0.08272 0.91900 0.27900
H 	H 	0.85970 0.11050 0.93320 -0.08200
C 	C 	0.03900 0.07936 0.95830 -0.25400
C 	C 	0.10830 0.03902 0.93460 0.19700
H 	H 	0.19870 0.03700 0.96010 -0.03600
C 	C 	0.04260 0.00161 0.87300 -0.28600
C 	C 	0.90660 0.00445 0.83620 0.28300
H 	H 	0.86280 0.97890 0.79640 -0.10200
C 	C 	0.10950 0.11780 0.03050 0.37000
C 	C 	0.11870 0.95823 0.84850 0.39800
C 	C 	0.60320 0.05079 0.66900 -0.53500
C 	C 	0.69440 0.05741 0.60620 0.30800
H 	H 	0.78370 0.05790 0.63670 -0.09100
C 	C 	0.65510 0.06324 0.49960 -0.28500
C 	C 	0.52180 0.06346 0.45320 0.19500
H 	H 	0.49490 0.06700 0.38150 -0.03500
C 	C 	0.42930 0.05846 0.51390 -0.25700
C 	C 	0.46950 0.05117 0.62040 0.28700
H 	H 	0.40670 0.04650 0.66010 -0.08300
C 	C 	0.75310 0.06909 0.43180 0.43600
C 	C 	0.28540 0.06106 0.46470 0.37000
Cd	Cd	0.47336 0.57005 0.11975 1.19000
Cd	Cd	0.23011 0.38271 0.69760 1.18200
Cd	Cd	0.27115 0.68832 0.34080 1.21300
Si	Si	0.84932 0.54853 0.68566 1.37700
O 	O 	0.82690 0.73202 0.81730 -0.42700
O 	O 	0.87650 0.78386 0.70710 -0.44900
O 	O 	0.10970 0.70450 0.42540 -0.44500
O 	O 	0.97630 0.64437 0.35120 -0.50200
O 	O 	0.45010 0.65710 0.45500 -0.43100
O 	O 	0.27510 0.61033 0.42310 -0.41700
O 	O 	0.26100 0.45432 0.61180 -0.46300
O 	O 	0.44130 0.42446 0.71130 -0.58200
O 	O 	0.62660 0.57113 0.02240 -0.48700
O 	O 	0.78790 0.57120 0.16370 -0.51400
O 	O 	0.25010 0.57545 0.12810 -0.43800
O 	O 	0.29780 0.54967 0.98330 -0.42400
C 	C 	0.93290 0.49708 0.63350 -1.63300
H 	H 	0.91740 0.49960 0.55910 0.49300
H 	H 	0.89860 0.46640 0.65210 0.50700
H 	H 	0.02570 0.49860 0.66220 0.49400
C 	C 	0.89930 0.61004 0.64470 -0.54300
C 	C 	0.87710 0.65127 0.70240 0.28100
H 	H 	0.84440 0.64660 0.76210 -0.07200
C 	C 	0.90230 0.69876 0.67360 -0.27100
C 	C 	0.95430 0.70595 0.58560 0.19300
H 	H 	0.97480 0.73740 0.56690 -0.03900
C 	C 	0.97550 0.66583 0.52590 -0.31300
C 	C 	0.94690 0.61871 0.55550 0.29100
H 	H 	0.96010 0.59220 0.51430 -0.11500
C 	C 	0.02310 0.67231 0.42690 0.40700
C 	C 	0.86830 0.74054 0.73670 0.38000
C 	C 	0.66530 0.54512 0.64170 -0.52900
C 	C 	0.59540 0.58272 0.58100 0.28900
H 	H 	0.64030 0.61050 0.56680 -0.08400
C 	C 	0.46100 0.57936 0.54170 -0.26300
C 	C 	0.39170 0.53902 0.56540 0.20400
H 	H 	0.30130 0.53700 0.53990 -0.03900
C 	C 	0.45740 0.50161 0.62700 -0.29300
C 	C 	0.59340 0.50445 0.66380 0.29100
H 	H 	0.63720 0.47890 0.70360 -0.10500
C 	C 	0.39050 0.61780 0.46950 0.37500
C 	C 	0.38130 0.45823 0.65150 0.40000
C 	C 	0.89680 0.55079 0.83100 -0.53900
C 	C 	0.80560 0.55741 0.89380 0.30900
H 	H 	0.71630 0.55790 0.86330 -0.09100
C 	C 	0.84490 0.56324 0.00040 -0.28600
C 	C 	0.97820 0.56346 0.04680 0.20200
H 	H 	0.00510 0.56700 0.11850 -0.03900
C 	C 	0.07070 0.55846 0.98610 -0.25800
C 	C 	0.03050 0.55117 0.87960 0.29100
H 	H 	0.09330 0.54650 0.83990 -0.08400
C 	C 	0.74690 0.56909 0.06820 0.43700
C 	C 	0.21460 0.56106 0.03530 0.36700
Cd	Cd	0.97336 0.92995 0.61975 1.19000
Cd	Cd	0.73011 0.11729 0.19760 1.18300
Cd	Cd	0.77115 0.81168 0.84080 1.21300
Si	Si	0.34932 0.95147 0.18566 1.37100
O 	O 	0.32690 0.76798 0.31730 -0.42600
O 	O 	0.37650 0.71614 0.20710 -0.44900
O 	O 	0.60970 0.79550 0.92540 -0.44600
O 	O 	0.47630 0.85563 0.85120 -0.50400
O 	O 	0.95010 0.84290 0.95500 -0.43000
O 	O 	0.77510 0.88967 0.92310 -0.41600
O 	O 	0.76100 0.04568 0.11180 -0.46200
O 	O 	0.94130 0.07554 0.21130 -0.58000
O 	O 	0.12660 0.92887 0.52240 -0.48600
O 	O 	0.28790 0.92880 0.66370 -0.51400
O 	O 	0.75010 0.92455 0.62810 -0.43800
O 	O 	0.79780 0.95033 0.48330 -0.42500
C 	C 	0.43290 0.00292 0.13350 -1.62400
H 	H 	0.41740 0.00040 0.05910 0.49000
H 	H 	0.39860 0.03360 0.15210 0.50400
H 	H 	0.52570 0.00140 0.16220 0.49100
C 	C 	0.39930 0.88996 0.14470 -0.54100
C 	C 	0.37710 0.84873 0.20240 0.28000
H 	H 	0.34440 0.85340 0.26210 -0.07100
C 	C 	0.40230 0.80124 0.17360 -0.27100
C 	C 	0.45430 0.79405 0.08560 0.19400
H 	H 	0.47480 0.76260 0.06690 -0.03900
C 	C 	0.47550 0.83417 0.02590 -0.31500
C 	C 	0.44690 0.88129 0.05550 0.29000
H 	H 	0.46010 0.90780 0.01430 -0.11600
C 	C 	0.52310 0.82769 0.92690 0.40900
C 	C 	0.36830 0.75946 0.23670 0.38000
C 	C 	0.16530 0.95488 0.14170 -0.52300
C 	C 	0.09540 0.91728 0.08100 0.27900
H 	H 	0.14030 0.88950 0.06680 -0.08200
C 	C 	0.96100 0.92064 0.04170 -0.25400
C 	C 	0.89170 0.96098 0.06540 0.19700
H 	H 	0.80130 0.96300 0.03990 -0.03600
C 	C 	0.95740 0.99839 0.12700 -0.28600
C 	C 	0.09340 0.99555 0.16380 0.28300
H 	H 	0.13720 0.02110 0.20360 -0.10200
C 	C 	0.89050 0.88220 0.96950 0.37000
C 	C 	0.88130 0.04177 0.15150 0.39800
C 	C 	0.39680 0.94921 0.33100 -0.53500
C 	C 	0.30560 0.94259 0.39380 0.30800
H 	H 	0.21630 0.94210 0.36330 -0.09100
C 	C 	0.34490 0.93676 0.50040 -0.28500
C 	C 	0.47820 0.93654 0.54680 0.19500
H 	H 	0.50510 0.93300 0.61850 -0.03500
C 	C 	0.57070 0.94154 0.48610 -0.25700
C 	C 	0.53050 0.94883 0.37960 0.28700
H 	H 	0.59330 0.95350 0.33990 -0.08300
C 	C 	0.24690 0.93091 0.56820 0.43600
C 	C 	0.71460 0.93894 0.53530 0.37000
Cd	Cd	0.52664 0.42995 0.88025 1.19000
Cd	Cd	0.76989 0.61729 0.30240 1.18200
Cd	Cd	0.72885 0.31168 0.65920 1.21300
Si	Si	0.15068 0.45147 0.31434 1.37700
O 	O 	0.17310 0.26798 0.18270 -0.42700
O 	O 	0.12350 0.21614 0.29290 -0.44900
O 	O 	0.89030 0.29550 0.57460 -0.44500
O 	O 	0.02370 0.35563 0.64880 -0.50200
O 	O 	0.54990 0.34290 0.54500 -0.43100
O 	O 	0.72490 0.38967 0.57690 -0.41700
O 	O 	0.73900 0.54568 0.38820 -0.46300
O 	O 	0.55870 0.57554 0.28870 -0.58200
O 	O 	0.37340 0.42887 0.97760 -0.48700
O 	O 	0.21210 0.42880 0.83630 -0.51400
O 	O 	0.74990 0.42455 0.87190 -0.43800
O 	O 	0.70220 0.45033 0.01670 -0.42400
C 	C 	0.06710 0.50292 0.36650 -1.63300
H 	H 	0.08260 0.50040 0.44090 0.49300
H 	H 	0.10140 0.53360 0.34790 0.50700
H 	H 	0.97430 0.50140 0.33780 0.49400
C 	C 	0.10070 0.38996 0.35530 -0.54300
C 	C 	0.12290 0.34873 0.29760 0.28100
H 	H 	0.15560 0.35340 0.23790 -0.07200
C 	C 	0.09770 0.30124 0.32640 -0.27100
C 	C 	0.04570 0.29405 0.41440 0.19300
H 	H 	0.02520 0.26260 0.43310 -0.03900
C 	C 	0.02450 0.33417 0.47410 -0.31300
C 	C 	0.05310 0.38129 0.44450 0.29100
H 	H 	0.03990 0.40780 0.48570 -0.11500
C 	C 	0.97690 0.32769 0.57310 0.40700
C 	C 	0.13170 0.25946 0.26330 0.38000
C 	C 	0.33470 0.45488 0.35830 -0.52900
C 	C 	0.40460 0.41728 0.41900 0.28900
H 	H 	0.35970 0.38950 0.43320 -0.08400
C 	C 	0.53900 0.42064 0.45830 -0.26300
C 	C 	0.60830 0.46098 0.43460 0.20400
H 	H 	0.69870 0.46300 0.46010 -0.03900
C 	C 	0.54260 0.49839 0.37300 -0.29300
C 	C 	0.40660 0.49555 0.33620 0.29100
H 	H 	0.36280 0.52110 0.29640 -0.10500
C 	C 	0.60950 0.38220 0.53050 0.37500
C 	C 	0.61870 0.54177 0.34850 0.40000
C 	C 	0.10320 0.44921 0.16900 -0.53900
C 	C 	0.19440 0.44259 0.10620 0.30900
H 	H 	0.28370 0.44210 0.13670 -0.09100
C 	C 	0.15510 0.43676 0.99960 -0.28600
C 	C 	0.02180 0.43654 0.95320 0.20200
H 	H 	0.99490 0.43300 0.88150 -0.03900
C 	C 	0.92930 0.44154 0.01390 -0.25800
C 	C 	0.96950 0.44883 0.12040 0.29100
H 	H 	0.90670 0.45350 0.16010 -0.08400
C 	C 	0.25310 0.43091 0.93180 0.43700
C 	C 	0.78540 0.43894 0.96470 0.36700
