data_crystal

_cell_length_a 7.18310
_cell_length_b 7.18310
_cell_length_c 7.58390
_cell_angle_alpha 90.00000
_cell_angle_beta  90.00000
_cell_angle_gamma 90.00000

_symmetry_space_group_name_	'P 1'
_symmetry_space_group_name_H-M	'P 1'

loop_
_symmetry_equiv_pos_as_xyz
  x,y,z

loop_
_atom_site_label
_atom_site_type_symbol
_atom_site_fract_x
_atom_site_fract_y
_atom_site_fract_z
_atom_site_charge
C 	C 	0.09770 0.46100 0.35580 0.00400
H 	H 	0.16290 0.43190 0.24870 0.07100
C 	C 	0.90230 0.53900 0.35580 0.00400
H 	H 	0.83710 0.56810 0.24870 0.07000
C 	C 	0.53900 0.09770 0.35580 0.00300
H 	H 	0.56810 0.16290 0.24870 0.07000
C 	C 	0.46100 0.90230 0.35580 0.00300
H 	H 	0.43190 0.83710 0.24870 0.07000
C 	C 	0.90230 0.46100 0.64420 0.00300
H 	H 	0.83710 0.43190 0.75130 0.06900
C 	C 	0.09770 0.53900 0.64420 0.00300
H 	H 	0.16290 0.56810 0.75130 0.06900
C 	C 	0.46100 0.09770 0.64420 0.00300
H 	H 	0.43190 0.16290 0.75130 0.06900
C 	C 	0.53900 0.90230 0.64420 0.00300
H 	H 	0.56810 0.83710 0.75130 0.06900
C 	C 	0.90230 0.53900 0.64420 0.00300
H 	H 	0.83710 0.56810 0.75130 0.06900
C 	C 	0.09770 0.46100 0.64420 0.00300
H 	H 	0.16290 0.43190 0.75130 0.06900
C 	C 	0.46100 0.90230 0.64420 0.00300
H 	H 	0.43190 0.83710 0.75130 0.06900
C 	C 	0.53900 0.09770 0.64420 0.00300
H 	H 	0.56810 0.16290 0.75130 0.06900
C 	C 	0.09770 0.53900 0.35580 0.00300
H 	H 	0.16290 0.56810 0.24870 0.07000
C 	C 	0.90230 0.46100 0.35580 0.00300
H 	H 	0.83710 0.43190 0.24870 0.07000
C 	C 	0.53900 0.90230 0.35580 0.00300
H 	H 	0.56810 0.83710 0.24870 0.07000
C 	C 	0.46100 0.09770 0.35580 0.00300
H 	H 	0.43190 0.16290 0.24870 0.07000
Fe	Fe	0.50000 0.50000 0.50000 1.24500
Si	Si	0.50000 0.50000 -0.00000 2.92300
F 	F 	0.50000 0.50000 0.23510 -0.83300
F 	F 	0.50000 0.50000 0.76490 -0.83400
F 	F 	0.33360 0.33360 -0.00000 -0.73500
F 	F 	0.66640 0.66640 -0.00000 -0.73500
F 	F 	0.66640 0.33360 -0.00000 -0.73500
F 	F 	0.33360 0.66640 -0.00000 -0.73500
N 	N 	0.19500 0.50000 0.50000 -0.18100
N 	N 	0.80500 0.50000 0.50000 -0.18100
N 	N 	0.50000 0.19500 0.50000 -0.18100
N 	N 	0.50000 0.80500 0.50000 -0.18100
