data_crystal

_cell_length_a 7.01870
_cell_length_b 7.01870
_cell_length_c 7.50980
_cell_angle_alpha 90.00000
_cell_angle_beta  90.00000
_cell_angle_gamma 90.00000

_symmetry_space_group_name_	'P 1'
_symmetry_space_group_name_H-M	'P 1'

loop_
_symmetry_equiv_pos_as_xyz
  x,y,z

loop_
_atom_site_label
_atom_site_type_symbol
_atom_site_fract_x
_atom_site_fract_y
_atom_site_fract_z
_atom_site_charge
C 	C 	0.90081 0.45410 0.64790 0.00800
H 	H 	0.81560 0.41730 0.76670 0.08100
C 	C 	0.09919 0.54590 0.64790 0.00800
H 	H 	0.18440 0.58270 0.76670 0.08100
C 	C 	0.54590 0.90081 0.64790 0.00700
H 	H 	0.58270 0.81560 0.76670 0.08000
C 	C 	0.45410 0.09919 0.64790 0.00700
H 	H 	0.41730 0.18440 0.76670 0.08000
C 	C 	0.09919 0.45410 0.35210 0.00700
H 	H 	0.18440 0.41730 0.23330 0.08100
C 	C 	0.90081 0.54590 0.35210 0.00700
H 	H 	0.81560 0.58270 0.23330 0.08100
C 	C 	0.45410 0.90081 0.35210 0.00700
H 	H 	0.41730 0.81560 0.23330 0.08100
C 	C 	0.54590 0.09919 0.35210 0.00700
H 	H 	0.58270 0.18440 0.23330 0.08100
C 	C 	0.09919 0.54590 0.35210 0.00700
H 	H 	0.18440 0.58270 0.23330 0.08100
C 	C 	0.90081 0.45410 0.35210 0.00700
H 	H 	0.81560 0.41730 0.23330 0.08100
C 	C 	0.45410 0.09919 0.35210 0.00700
H 	H 	0.41730 0.18440 0.23330 0.08100
C 	C 	0.54590 0.90081 0.35210 0.00700
H 	H 	0.58270 0.81560 0.23330 0.08100
C 	C 	0.90081 0.54590 0.64790 0.00700
H 	H 	0.81560 0.58270 0.76670 0.08000
C 	C 	0.09919 0.45410 0.64790 0.00700
H 	H 	0.18440 0.41730 0.76670 0.08000
C 	C 	0.54590 0.09919 0.64790 0.00700
H 	H 	0.58270 0.18440 0.76670 0.08000
C 	C 	0.45410 0.90081 0.64790 0.00700
H 	H 	0.41730 0.81560 0.76670 0.08000
Ni	Ni	0.50000 0.50000 0.50000 1.15600
Si	Si	0.50000 0.50000 -0.00000 3.39000
F 	F 	0.50000 0.50000 0.76340 -0.89000
F 	F 	0.50000 0.50000 0.23660 -0.88800
F 	F 	0.66400 0.66400 -0.00000 -0.85800
F 	F 	0.33600 0.33600 -0.00000 -0.85800
F 	F 	0.33600 0.66400 -0.00000 -0.85800
F 	F 	0.66400 0.33600 -0.00000 -0.85800
N 	N 	0.80450 0.50000 0.50000 -0.18500
N 	N 	0.19550 0.50000 0.50000 -0.18500
N 	N 	0.50000 0.80450 0.50000 -0.18500
N 	N 	0.50000 0.19550 0.50000 -0.18500
