data_crystal

_cell_length_a 34.54200
_cell_length_b 9.56510
_cell_length_c 18.01100
_cell_angle_alpha 90.00000
_cell_angle_beta  97.71000
_cell_angle_gamma 90.00000

_symmetry_space_group_name_	'P 1'
_symmetry_space_group_name_H-M	'P 1'

loop_
_symmetry_equiv_pos_as_xyz
  x,y,z

loop_
_atom_site_label
_atom_site_type_symbol
_atom_site_fract_x
_atom_site_fract_y
_atom_site_fract_z
_atom_site_charge
Co	Co	0.34891 0.31770 0.52585 1.15400
C 	C 	0.48440 0.31650 0.31320 -0.98000
B 	B 	0.47670 0.37800 0.22480 0.78900
H 	H 	0.46100 0.47780 0.20790 -0.24600
B 	B 	0.45250 0.23230 0.25150 0.15700
H 	H 	0.42020 0.23250 0.25290 -0.08100
B 	B 	0.48300 0.14100 0.31770 1.05800
H 	H 	0.47170 0.08010 0.36330 -0.34000
B 	B 	0.47660 0.08470 0.22480 -0.47700
H 	H 	0.46070 0.98540 0.20740 0.08000
B 	B 	0.47260 0.23650 0.16750 0.14600
H 	H 	0.45410 0.24070 0.11140 -0.09400
C 	C 	0.47040 0.41240 0.37190 0.53000
H 	H 	0.49270 0.47570 0.39010 -0.13400
O 	O 	0.44110 0.49570 0.33580 -0.50000
H 	H 	0.43310 0.55060 0.36690 0.25500
C 	C 	0.45840 0.34180 0.43990 -0.26300
C 	C 	0.48530 0.29810 0.49770 0.15500
H 	H 	0.51230 0.29930 0.49250 -0.03500
C 	C 	0.47370 0.25320 0.56200 -0.19900
H 	H 	0.49240 0.21990 0.60150 0.08700
C 	C 	0.43450 0.25550 0.57060 0.10400
H 	H 	0.42660 0.22820 0.61700 -0.02300
N 	N 	0.40775 0.29560 0.51450 -0.26400
C 	C 	0.41971 0.33740 0.45180 0.14100
H 	H 	0.40050 0.36650 0.41210 -0.02100
O 	O 	0.33792 0.21360 0.42810 -0.44200
C 	C 	0.30625 0.18280 0.38840 0.38300
O 	O 	0.27280 0.20560 0.40400 -0.42900
C 	C 	0.30913 0.10880 0.31650 -0.08600
C 	C 	0.34455 0.06300 0.29850 -0.01500
H 	H 	0.36770 0.07900 0.33240 0.04200
C 	C 	0.34683 0.99400 0.23170 -0.01500
H 	H 	0.37140 0.96200 0.22020 0.03600
C 	C 	0.31326 0.97140 0.18150 -0.09000
C 	C 	0.27793 0.01910 0.19860 -0.01100
H 	H 	0.25490 0.00590 0.16400 0.05100
C 	C 	0.27578 0.08660 0.26640 -0.01500
H 	H 	0.25120 0.11760 0.27830 0.05100
C 	C 	0.31466 0.89510 0.10930 0.38500
O 	O 	0.34686 0.83700 0.10120 -0.45500
O 	O 	0.28473 0.89200 0.06420 -0.44500
O 	O 	0.29265 0.40150 0.53240 -0.51600
C 	C 	0.30063 0.51310 0.49960 0.32500
O 	O 	0.33213 0.52080 0.47210 -0.38700
C 	C 	0.27408 0.63470 0.49930 -0.07700
C 	C 	0.24443 0.63450 0.54360 -0.01400
H 	H 	0.24070 0.55500 0.57340 0.05000
C 	C 	0.22041 0.74780 0.54490 -0.01400
H 	H 	0.20010 0.74700 0.57560 0.05000
Co	Co	0.84891 0.81770 0.52585 1.15500
C 	C 	0.98440 0.81650 0.31320 -0.98100
B 	B 	0.97670 0.87800 0.22480 0.78200
H 	H 	0.96100 0.97780 0.20790 -0.24400
B 	B 	0.95250 0.73230 0.25150 0.16500
H 	H 	0.92020 0.73250 0.25290 -0.08300
B 	B 	0.98300 0.64100 0.31770 1.05500
H 	H 	0.97170 0.58010 0.36330 -0.33900
B 	B 	0.97660 0.58470 0.22480 -0.48400
H 	H 	0.96070 0.48540 0.20740 0.08200
B 	B 	0.97260 0.73650 0.16750 0.14500
H 	H 	0.95410 0.74070 0.11140 -0.09300
C 	C 	0.97040 0.91240 0.37190 0.53100
H 	H 	0.99270 0.97570 0.39010 -0.13500
O 	O 	0.94110 0.99570 0.33580 -0.50100
H 	H 	0.93310 0.05060 0.36690 0.25600
C 	C 	0.95840 0.84180 0.43990 -0.26300
C 	C 	0.98530 0.79810 0.49770 0.15300
H 	H 	0.01230 0.79930 0.49250 -0.03400
C 	C 	0.97370 0.75320 0.56200 -0.19800
H 	H 	0.99240 0.71990 0.60150 0.08600
C 	C 	0.93450 0.75550 0.57060 0.10300
H 	H 	0.92660 0.72820 0.61700 -0.02300
N 	N 	0.90775 0.79560 0.51450 -0.26400
C 	C 	0.91971 0.83740 0.45180 0.14000
H 	H 	0.90050 0.86650 0.41210 -0.02100
O 	O 	0.83792 0.71360 0.42810 -0.44200
C 	C 	0.80625 0.68280 0.38840 0.38300
O 	O 	0.77280 0.70560 0.40400 -0.42900
C 	C 	0.80913 0.60880 0.31650 -0.08600
C 	C 	0.84455 0.56300 0.29850 -0.01600
H 	H 	0.86770 0.57900 0.33240 0.04200
C 	C 	0.84683 0.49400 0.23170 -0.01400
H 	H 	0.87140 0.46200 0.22020 0.03600
C 	C 	0.81326 0.47140 0.18150 -0.09000
C 	C 	0.77793 0.51910 0.19860 -0.01100
H 	H 	0.75490 0.50590 0.16400 0.05100
C 	C 	0.77578 0.58660 0.26640 -0.01500
H 	H 	0.75120 0.61760 0.27830 0.05100
C 	C 	0.81466 0.39510 0.10930 0.38500
O 	O 	0.84686 0.33700 0.10120 -0.45500
O 	O 	0.78473 0.39200 0.06420 -0.44500
O 	O 	0.79265 0.90150 0.53240 -0.51700
C 	C 	0.80063 0.01310 0.49960 0.32600
O 	O 	0.83213 0.02080 0.47210 -0.38700
C 	C 	0.77408 0.13470 0.49930 -0.07700
C 	C 	0.74443 0.13450 0.54360 -0.01400
H 	H 	0.74070 0.05500 0.57340 0.05000
C 	C 	0.72041 0.24780 0.54490 -0.01400
H 	H 	0.70010 0.24700 0.57560 0.05000
Co	Co	0.65108 0.31770 0.97415 1.16600
C 	C 	0.51560 0.31650 0.18680 -0.97100
B 	B 	0.52330 0.37800 0.27520 0.79700
H 	H 	0.53900 0.47780 0.29210 -0.24700
B 	B 	0.54750 0.23230 0.24850 0.14400
H 	H 	0.57980 0.23250 0.24710 -0.07700
B 	B 	0.51700 0.14100 0.18230 1.05900
H 	H 	0.52830 0.08010 0.13670 -0.34400
B 	B 	0.52340 0.08470 0.27520 -0.46800
H 	H 	0.53930 0.98540 0.29260 0.07800
B 	B 	0.52740 0.23650 0.33250 0.15000
H 	H 	0.54590 0.24070 0.38860 -0.08900
C 	C 	0.52960 0.41240 0.12810 0.50400
H 	H 	0.50730 0.47570 0.10990 -0.13000
O 	O 	0.55890 0.49570 0.16420 -0.49200
H 	H 	0.56690 0.55060 0.13310 0.24900
C 	C 	0.54160 0.34180 0.06010 -0.20900
C 	C 	0.51470 0.29810 0.00230 0.04900
H 	H 	0.48770 0.29930 0.00750 -0.01000
C 	C 	0.52630 0.25320 0.93800 -0.09700
H 	H 	0.50760 0.21990 0.89850 0.05700
C 	C 	0.56550 0.25550 0.92940 0.06200
H 	H 	0.57340 0.22820 0.88300 -0.00700
N 	N 	0.59225 0.29560 0.98550 -0.22700
C 	C 	0.58029 0.33740 0.04820 0.07600
H 	H 	0.59950 0.36650 0.08790 -0.00400
O 	O 	0.66208 0.21360 0.07190 -0.45500
C 	C 	0.69375 0.18280 0.11160 0.38500
O 	O 	0.72720 0.20560 0.09600 -0.43500
C 	C 	0.69087 0.10880 0.18350 -0.08900
C 	C 	0.65545 0.06300 0.20150 -0.01300
H 	H 	0.63230 0.07900 0.16760 0.04000
C 	C 	0.65317 0.99400 0.26830 -0.01600
H 	H 	0.62860 0.96200 0.27980 0.03700
C 	C 	0.68674 0.97140 0.31850 -0.08700
C 	C 	0.72207 0.01910 0.30140 -0.01200
H 	H 	0.74510 0.00590 0.33600 0.05100
C 	C 	0.72422 0.08660 0.23360 -0.01300
H 	H 	0.74880 0.11760 0.22170 0.05000
C 	C 	0.68534 0.89510 0.39070 0.38500
O 	O 	0.65314 0.83700 0.39880 -0.45000
O 	O 	0.71527 0.89200 0.43580 -0.43700
O 	O 	0.70735 0.40150 0.96760 -0.48700
C 	C 	0.69937 0.51310 0.00040 0.31200
O 	O 	0.66787 0.52080 0.02790 -0.39500
C 	C 	0.72592 0.63470 0.00070 -0.15100
C 	C 	0.75557 0.63450 0.95640 0.08100
H 	H 	0.75930 0.55500 0.92660 0.02400
C 	C 	0.77959 0.74780 0.95510 -0.07900
H 	H 	0.79990 0.74700 0.92440 0.07300
Co	Co	0.15109 0.81770 0.97415 1.16500
C 	C 	0.01560 0.81650 0.18680 -0.97000
B 	B 	0.02330 0.87800 0.27520 0.80300
H 	H 	0.03900 0.97780 0.29210 -0.24900
B 	B 	0.04750 0.73230 0.24850 0.13600
H 	H 	0.07980 0.73250 0.24710 -0.07500
B 	B 	0.01700 0.64100 0.18230 1.06400
H 	H 	0.02830 0.58010 0.13670 -0.34500
B 	B 	0.02340 0.58470 0.27520 -0.46300
H 	H 	0.03930 0.48540 0.29260 0.07700
B 	B 	0.02740 0.73650 0.33250 0.15100
H 	H 	0.04590 0.74070 0.38860 -0.09000
C 	C 	0.02960 0.91240 0.12810 0.50500
H 	H 	0.00730 0.97570 0.10990 -0.13000
O 	O 	0.05890 0.99570 0.16420 -0.49300
H 	H 	0.06690 0.05060 0.13310 0.24900
C 	C 	0.04160 0.84180 0.06010 -0.21200
C 	C 	0.01470 0.79810 0.00230 0.05400
H 	H 	0.98770 0.79930 0.00750 -0.01200
C 	C 	0.02630 0.75320 0.93800 -0.10100
H 	H 	0.00760 0.71990 0.89850 0.05900
C 	C 	0.06550 0.75550 0.92940 0.06300
H 	H 	0.07340 0.72820 0.88300 -0.00800
N 	N 	0.09225 0.79560 0.98550 -0.22800
C 	C 	0.08029 0.83740 0.04820 0.07800
H 	H 	0.09950 0.86650 0.08790 -0.00400
O 	O 	0.16208 0.71360 0.07190 -0.45500
C 	C 	0.19375 0.68280 0.11160 0.38500
O 	O 	0.22720 0.70560 0.09600 -0.43500
C 	C 	0.19087 0.60880 0.18350 -0.08900
C 	C 	0.15545 0.56300 0.20150 -0.01300
H 	H 	0.13230 0.57900 0.16760 0.04000
C 	C 	0.15317 0.49400 0.26830 -0.01600
H 	H 	0.12860 0.46200 0.27980 0.03700
C 	C 	0.18674 0.47140 0.31850 -0.08600
C 	C 	0.22207 0.51910 0.30140 -0.01300
H 	H 	0.24510 0.50590 0.33600 0.05200
C 	C 	0.22422 0.58660 0.23360 -0.01300
H 	H 	0.24880 0.61760 0.22170 0.04900
C 	C 	0.18534 0.39510 0.39070 0.38500
O 	O 	0.15314 0.33700 0.39880 -0.45000
O 	O 	0.21527 0.39200 0.43580 -0.43700
O 	O 	0.20735 0.90150 0.96760 -0.48900
C 	C 	0.19937 0.01310 0.00040 0.31400
O 	O 	0.16787 0.02080 0.02790 -0.39600
C 	C 	0.22592 0.13470 0.00070 -0.15400
C 	C 	0.25557 0.13450 0.95640 0.08400
H 	H 	0.25930 0.05500 0.92660 0.02300
C 	C 	0.27959 0.24780 0.95510 -0.08100
H 	H 	0.29990 0.24700 0.92440 0.07400
Co	Co	0.65108 0.68230 0.47415 1.15500
C 	C 	0.51560 0.68350 0.68680 -0.98200
B 	B 	0.52330 0.62200 0.77520 0.80200
H 	H 	0.53900 0.52220 0.79210 -0.24700
B 	B 	0.54750 0.76770 0.74850 0.14600
H 	H 	0.57980 0.76750 0.74710 -0.07600
B 	B 	0.51700 0.85900 0.68230 1.07100
H 	H 	0.52830 0.91990 0.63670 -0.34400
B 	B 	0.52340 0.91530 0.77520 -0.47700
H 	H 	0.53930 0.01460 0.79260 0.08300
B 	B 	0.52740 0.76350 0.83250 0.15300
H 	H 	0.54590 0.75930 0.88860 -0.08500
C 	C 	0.52960 0.58760 0.62810 0.53100
H 	H 	0.50730 0.52430 0.60990 -0.13400
O 	O 	0.55890 0.50430 0.66420 -0.49900
H 	H 	0.56690 0.44940 0.63310 0.25500
C 	C 	0.54160 0.65820 0.56010 -0.26300
C 	C 	0.51470 0.70190 0.50230 0.15500
H 	H 	0.48770 0.70070 0.50750 -0.03500
C 	C 	0.52630 0.74680 0.43800 -0.19900
H 	H 	0.50760 0.78010 0.39850 0.08600
C 	C 	0.56550 0.74450 0.42940 0.10400
H 	H 	0.57340 0.77180 0.38300 -0.02400
N 	N 	0.59225 0.70440 0.48550 -0.26500
C 	C 	0.58029 0.66260 0.54820 0.14100
H 	H 	0.59950 0.63350 0.58790 -0.02100
O 	O 	0.66208 0.78640 0.57190 -0.44200
C 	C 	0.69375 0.81720 0.61160 0.38400
O 	O 	0.72720 0.79440 0.59600 -0.42900
C 	C 	0.69087 0.89120 0.68350 -0.08700
C 	C 	0.65545 0.93700 0.70150 -0.01500
H 	H 	0.63230 0.92100 0.66760 0.04200
C 	C 	0.65317 0.00600 0.76830 -0.01400
H 	H 	0.62860 0.03800 0.77980 0.03800
C 	C 	0.68674 0.02860 0.81850 -0.08200
C 	C 	0.72207 0.98090 0.80140 -0.01500
H 	H 	0.74510 0.99410 0.83600 0.05200
C 	C 	0.72422 0.91340 0.73360 -0.01300
H 	H 	0.74880 0.88240 0.72170 0.05000
C 	C 	0.68534 0.10490 0.89070 0.38300
O 	O 	0.65314 0.16300 0.89880 -0.44400
O 	O 	0.71527 0.10800 0.93580 -0.42200
O 	O 	0.70735 0.59850 0.46760 -0.51600
C 	C 	0.69937 0.48690 0.50040 0.32500
O 	O 	0.66787 0.47920 0.52790 -0.38700
C 	C 	0.72592 0.36530 0.50070 -0.07700
C 	C 	0.75557 0.36550 0.45640 -0.01400
H 	H 	0.75930 0.44500 0.42660 0.05000
C 	C 	0.77959 0.25220 0.45510 -0.01400
H 	H 	0.79990 0.25300 0.42440 0.04900
Co	Co	0.15109 0.18230 0.47415 1.15500
C 	C 	0.01560 0.18350 0.68680 -0.97900
B 	B 	0.02330 0.12200 0.77520 0.80900
H 	H 	0.03900 0.02220 0.79210 -0.24900
B 	B 	0.04750 0.26770 0.74850 0.13700
H 	H 	0.07980 0.26750 0.74710 -0.07300
B 	B 	0.01700 0.35900 0.68230 1.07200
H 	H 	0.02830 0.41990 0.63670 -0.34400
B 	B 	0.02340 0.41530 0.77520 -0.46600
H 	H 	0.03930 0.51460 0.79260 0.08000
B 	B 	0.02740 0.26350 0.83250 0.15300
H 	H 	0.04590 0.25930 0.88860 -0.08400
C 	C 	0.02960 0.08760 0.62810 0.52900
H 	H 	0.00730 0.02430 0.60990 -0.13300
O 	O 	0.05890 0.00430 0.66420 -0.49700
H 	H 	0.06690 0.94940 0.63310 0.25300
C 	C 	0.04160 0.15820 0.56010 -0.26300
C 	C 	0.01470 0.20190 0.50230 0.15600
H 	H 	0.98770 0.20070 0.50750 -0.03600
C 	C 	0.02630 0.24680 0.43800 -0.20000
H 	H 	0.00760 0.28010 0.39850 0.08700
C 	C 	0.06550 0.24450 0.42940 0.10400
H 	H 	0.07340 0.27180 0.38300 -0.02400
N 	N 	0.09225 0.20440 0.48550 -0.26400
C 	C 	0.08029 0.16260 0.54820 0.14100
H 	H 	0.09950 0.13350 0.58790 -0.02100
O 	O 	0.16208 0.28640 0.57190 -0.44100
C 	C 	0.19375 0.31720 0.61160 0.38400
O 	O 	0.22720 0.29440 0.59600 -0.42900
C 	C 	0.19087 0.39120 0.68350 -0.08600
C 	C 	0.15545 0.43700 0.70150 -0.01300
H 	H 	0.13230 0.42100 0.66760 0.04200
C 	C 	0.15317 0.50600 0.76830 -0.01500
H 	H 	0.12860 0.53800 0.77980 0.03800
C 	C 	0.18674 0.52860 0.81850 -0.08400
C 	C 	0.22207 0.48090 0.80140 -0.01200
H 	H 	0.24510 0.49410 0.83600 0.05200
C 	C 	0.22422 0.41340 0.73360 -0.01300
H 	H 	0.24880 0.38240 0.72170 0.05000
C 	C 	0.18534 0.60490 0.89070 0.38300
O 	O 	0.15314 0.66300 0.89880 -0.44400
O 	O 	0.21527 0.60800 0.93580 -0.42300
O 	O 	0.20735 0.09850 0.46760 -0.51500
C 	C 	0.19937 0.98690 0.50040 0.32300
O 	O 	0.16787 0.97920 0.52790 -0.38700
C 	C 	0.22592 0.86530 0.50070 -0.07700
C 	C 	0.25557 0.86550 0.45640 -0.01500
H 	H 	0.25930 0.94500 0.42660 0.04900
C 	C 	0.27959 0.75220 0.45510 -0.01400
H 	H 	0.29990 0.75300 0.42440 0.04900
Co	Co	0.34891 0.68230 0.02585 1.14400
C 	C 	0.48440 0.68350 0.81320 -0.99000
B 	B 	0.47670 0.62200 0.72480 0.79600
H 	H 	0.46100 0.52220 0.70790 -0.24600
B 	B 	0.45250 0.76770 0.75150 0.15700
H 	H 	0.42020 0.76750 0.75290 -0.07900
B 	B 	0.48300 0.85900 0.81770 1.06900
H 	H 	0.47170 0.91990 0.86330 -0.34000
B 	B 	0.47660 0.91530 0.72480 -0.48300
H 	H 	0.46070 0.01460 0.70740 0.08400
B 	B 	0.47260 0.76350 0.66750 0.14700
H 	H 	0.45410 0.75930 0.61140 -0.08900
C 	C 	0.47040 0.58760 0.87190 0.55600
H 	H 	0.49270 0.52430 0.89010 -0.13700
O 	O 	0.44110 0.50430 0.83580 -0.50600
H 	H 	0.43310 0.44940 0.86690 0.26200
C 	C 	0.45840 0.65820 0.93990 -0.31600
C 	C 	0.48530 0.70190 0.99770 0.25900
H 	H 	0.51230 0.70070 0.99250 -0.05900
C 	C 	0.47370 0.74680 0.06200 -0.30000
H 	H 	0.49240 0.78010 0.10150 0.11500
C 	C 	0.43450 0.74450 0.07060 0.14500
H 	H 	0.42660 0.77180 0.11700 -0.03900
N 	N 	0.40775 0.70440 0.01450 -0.30100
C 	C 	0.41971 0.66260 0.95180 0.20500
H 	H 	0.40050 0.63350 0.91210 -0.03800
O 	O 	0.33792 0.78640 0.92810 -0.42700
C 	C 	0.30625 0.81720 0.88840 0.38000
O 	O 	0.27280 0.79440 0.90400 -0.41900
C 	C 	0.30913 0.89120 0.81650 -0.08200
C 	C 	0.34455 0.93700 0.79850 -0.01900
H 	H 	0.36770 0.92100 0.83240 0.04500
C 	C 	0.34683 0.00600 0.73170 -0.01000
H 	H 	0.37140 0.03800 0.72020 0.03600
C 	C 	0.31326 0.02860 0.68150 -0.08700
C 	C 	0.27793 0.98090 0.69860 -0.01200
H 	H 	0.25490 0.99410 0.66400 0.05100
C 	C 	0.27578 0.91340 0.76640 -0.01600
H 	H 	0.25120 0.88240 0.77830 0.05100
C 	C 	0.31466 0.10490 0.60930 0.38500
O 	O 	0.34686 0.16300 0.60120 -0.45000
O 	O 	0.28473 0.10800 0.56420 -0.43600
O 	O 	0.29265 0.59850 0.03240 -0.53900
C 	C 	0.30063 0.48690 0.99960 0.33500
O 	O 	0.33213 0.47920 0.97210 -0.37800
C 	C 	0.27408 0.36530 0.99930 0.00100
C 	C 	0.24443 0.36550 0.04360 -0.11300
H 	H 	0.24070 0.44500 0.07340 0.07700
C 	C 	0.22041 0.25220 0.04490 0.05300
H 	H 	0.20010 0.25300 0.07560 0.02500
Co	Co	0.84891 0.18230 0.02585 1.14400
C 	C 	0.98440 0.18350 0.81320 -0.99100
B 	B 	0.97670 0.12200 0.72480 0.78800
H 	H 	0.96100 0.02220 0.70790 -0.24400
B 	B 	0.95250 0.26770 0.75150 0.16500
H 	H 	0.92020 0.26750 0.75290 -0.08200
B 	B 	0.98300 0.35900 0.81770 1.06300
H 	H 	0.97170 0.41990 0.86330 -0.33800
B 	B 	0.97660 0.41530 0.72480 -0.48700
H 	H 	0.96070 0.51460 0.70740 0.08400
B 	B 	0.97260 0.26350 0.66750 0.14700
H 	H 	0.95410 0.25930 0.61140 -0.08800
C 	C 	0.97040 0.08760 0.87190 0.55600
H 	H 	0.99270 0.02430 0.89010 -0.13700
O 	O 	0.94110 0.00430 0.83580 -0.50400
H 	H 	0.93310 0.94940 0.86690 0.25900
C 	C 	0.95840 0.15820 0.93990 -0.31600
C 	C 	0.98530 0.20190 0.99770 0.26000
H 	H 	0.01230 0.20070 0.99250 -0.05800
C 	C 	0.97370 0.24680 0.06200 -0.30100
H 	H 	0.99240 0.28010 0.10150 0.11500
C 	C 	0.93450 0.24450 0.07060 0.14600
H 	H 	0.92660 0.27180 0.11700 -0.04000
N 	N 	0.90775 0.20440 0.01450 -0.30100
C 	C 	0.91971 0.16260 0.95180 0.20600
H 	H 	0.90050 0.13350 0.91210 -0.03800
O 	O 	0.83792 0.28640 0.92810 -0.42700
C 	C 	0.80625 0.31720 0.88840 0.38000
O 	O 	0.77280 0.29440 0.90400 -0.41800
C 	C 	0.80913 0.39120 0.81650 -0.08200
C 	C 	0.84455 0.43700 0.79850 -0.01700
H 	H 	0.86770 0.42100 0.83240 0.04500
C 	C 	0.84683 0.50600 0.73170 -0.01200
H 	H 	0.87140 0.53800 0.72020 0.03700
C 	C 	0.81326 0.52860 0.68150 -0.08800
C 	C 	0.77793 0.48090 0.69860 -0.01000
H 	H 	0.75490 0.49410 0.66400 0.05100
C 	C 	0.77578 0.41340 0.76640 -0.01600
H 	H 	0.75120 0.38240 0.77830 0.05200
C 	C 	0.81466 0.60490 0.60930 0.38600
O 	O 	0.84686 0.66300 0.60120 -0.45000
O 	O 	0.78473 0.60800 0.56420 -0.43700
O 	O 	0.79265 0.09850 0.03240 -0.53900
C 	C 	0.80063 0.98690 0.99960 0.33400
O 	O 	0.83213 0.97920 0.97210 -0.37900
C 	C 	0.77408 0.86530 0.99930 -0.00100
C 	C 	0.74443 0.86550 0.04360 -0.10900
H 	H 	0.74070 0.94500 0.07340 0.07600
C 	C 	0.72041 0.75220 0.04490 0.05000
H 	H 	0.70010 0.75300 0.07560 0.02600
Co	Co	0.25000 0.25000 0.50000 1.20800
Co	Co	0.75000 0.25000 -0.00000 1.19400
Co	Co	0.75000 0.75000 0.50000 1.20800
Co	Co	0.25000 0.75000 -0.00000 1.19400
