data_crystal

_cell_length_a 18.59450
_cell_length_b 8.08000
_cell_length_c 30.29040
_cell_angle_alpha 90.00000
_cell_angle_beta  90.81900
_cell_angle_gamma 90.00000

_symmetry_space_group_name_	'P 1'
_symmetry_space_group_name_H-M	'P 1'

loop_
_symmetry_equiv_pos_as_xyz
  x,y,z

loop_
_atom_site_label
_atom_site_type_symbol
_atom_site_fract_x
_atom_site_fract_y
_atom_site_fract_z
_atom_site_charge
Zn	Zn	0.86381 0.03114 0.55825 1.20400
O 	O 	0.75790 0.59920 0.54400 -0.52900
C 	C 	0.96650 0.80970 0.77330 -0.97000
Zn	Zn	0.80317 0.38567 0.52373 1.22800
O 	O 	0.85800 0.17640 0.50170 -0.66100
B 	B 	0.95550 0.83300 0.83000 0.73500
H 	H 	0.91030 0.77900 0.84930 -0.23600
Zn	Zn	0.66786 0.63735 0.51592 1.21500
B 	B 	0.94080 0.00820 0.79380 0.20000
H 	H 	0.88680 0.06780 0.78930 -0.10800
Zn	Zn	0.94865 0.22368 0.47341 1.19400
B 	B 	0.00160 0.98790 0.74930 0.75100
H 	H 	0.98560 0.03230 0.71550 -0.24900
B 	B 	0.05340 0.80860 0.75720 0.27700
H 	H 	0.07320 0.73730 0.72810 -0.13000
B 	B 	0.02590 0.70840 0.80610 0.73400
H 	H 	0.02680 0.57060 0.81010 -0.25900
B 	B 	0.99330 0.02620 0.84410 0.07000
H 	H 	0.97340 0.09820 0.87310 -0.06200
B 	B 	0.02480 0.12490 0.79330 -0.25000
H 	H 	0.02620 0.26240 0.78880 0.00700
B 	B 	0.08860 0.00600 0.77140 -0.34400
H 	H 	0.13200 0.06670 0.75190 0.04100
B 	B 	0.10730 0.82430 0.80600 0.05600
H 	H 	0.16150 0.76480 0.80960 -0.05400
C 	C 	0.04380 0.84450 0.84840 -0.77200
B 	B 	0.08690 0.02320 0.83000 0.84300
H 	H 	0.12830 0.09150 0.85010 -0.27800
C 	C 	0.90600 0.71200 0.75030 0.89400
H 	H 	0.86130 0.71940 0.76820 -0.52800
O 	O 	0.92870 0.54200 0.74780 0.51400
H 	H 	0.89340 0.47920 0.74270 -0.09100
C 	C 	0.89070 0.77560 0.70510 -0.28700
C 	C 	0.84470 0.90100 0.69670 0.09200
H 	H 	0.81880 0.95000 0.72020 -0.01000
C 	C 	0.83470 0.96030 0.65240 -0.02000
H 	H 	0.79730 0.03820 0.64710 0.03800
N 	N 	0.87280 0.91530 0.61900 -0.21100
C 	C 	0.92150 0.79700 0.62610 -0.02000
H 	H 	0.94960 0.76150 0.60200 0.03200
C 	C 	0.93350 0.72220 0.66710 0.06800
H 	H 	0.96880 0.63800 0.67050 0.00800
C 	C 	0.06400 0.76840 0.89500 0.34900
H 	H 	0.10380 0.68640 0.89140 -0.06900
O 	O 	0.00180 0.68550 0.90810 -0.45500
H 	H 	0.00760 0.64960 0.93390 0.24000
C 	C 	0.08730 0.89870 0.92720 -0.07200
C 	C 	0.04260 0.97830 0.95570 -0.06800
H 	H 	0.99340 0.94790 0.95740 0.05800
C 	C 	0.06970 0.10140 0.98160 0.03500
H 	H 	0.03680 0.16250 0.99890 0.00600
N 	N 	0.13980 0.14320 0.98440 -0.24500
C 	C 	0.18180 0.05820 0.95700 0.05200
H 	H 	0.23120 0.08840 0.95660 0.00700
C 	C 	0.16210 0.93960 0.93110 -0.06200
H 	H 	0.19680 0.87990 0.91470 0.06000
O 	O 	0.75540 0.02470 0.56480 -0.48300
C 	C 	0.70610 0.13470 0.55720 0.42500
O 	O 	0.71200 0.26510 0.53770 -0.50600
C 	C 	0.63360 0.09510 0.57730 -0.16300
C 	C 	0.62520 0.97820 0.61030 0.09200
H 	H 	0.66470 0.91160 0.61960 0.01100
C 	C 	0.56340 0.96050 0.62830 -0.16400
H 	H 	0.55980 0.88420 0.65210 0.08800
C 	C 	0.50410 0.04160 0.61600 0.08600
C 	C 	0.50760 0.15190 0.58090 -0.13900
H 	H 	0.46560 0.20510 0.56980 0.07800
C 	C 	0.57540 0.18250 0.56240 0.08000
H 	H 	0.58040 0.26290 0.53970 0.01400
C 	C 	0.43480 0.01400 0.64280 0.01500
C 	C 	0.43480 0.00380 0.68440 -0.07500
H 	H 	0.47970 0.99970 0.69970 0.05300
C 	C 	0.36820 0.99780 0.71060 0.01100
C 	C 	0.30730 0.00760 0.68710 -0.06900
H 	H 	0.26390 0.99580 0.70300 0.04700
C 	C 	0.30030 0.03350 0.64170 0.01500
C 	C 	0.36620 0.03690 0.61640 -0.07700
H 	H 	0.36600 0.05250 0.58540 0.05300
C 	C 	0.37510 0.98380 0.75910 0.04800
C 	C 	0.43070 0.89580 0.77840 -0.11500
H 	H 	0.46500 0.83970 0.76090 0.06500
C 	C 	0.43530 0.89110 0.82450 0.03600
H 	H 	0.47410 0.83350 0.83830 0.02300
C 	C 	0.38500 0.96790 0.85070 -0.11800
C 	C 	0.32960 0.05050 0.82940 0.04600
H 	H 	0.29510 0.10530 0.84700 0.02500
C 	C 	0.32140 0.05820 0.78610 -0.11700
H 	H 	0.28090 0.11180 0.77310 0.06400
C 	C 	0.38990 0.95180 0.90030 0.34700
O 	O 	0.44720 0.88770 0.91410 -0.47400
O 	O 	0.33500 0.99160 0.92090 -0.30800
C 	C 	0.23360 0.04350 0.61630 0.04800
C 	C 	0.17090 0.95260 0.62710 -0.11400
H 	H 	0.17390 0.87340 0.65020 0.06100
C 	C 	0.10540 0.97430 0.60530 0.04200
H 	H 	0.06310 0.92140 0.61550 0.01700
C 	C 	0.10330 0.07300 0.56920 -0.12600
C 	C 	0.16220 0.15760 0.55480 0.03800
H 	H 	0.15810 0.22810 0.52980 0.02500
C 	C 	0.23050 0.14010 0.57750 -0.10500
H 	H 	0.27240 0.19240 0.56660 0.06100
C 	C 	0.03250 0.08600 0.54280 0.39500
O 	O 	0.03470 0.18300 0.50760 -0.50600
O 	O 	0.97870 0.02350 0.55580 -0.49600
C 	C 	0.73550 0.49550 0.43650 0.37400
O 	O 	0.67730 0.52190 0.45620 -0.46400
O 	O 	0.79580 0.45870 0.45960 -0.46800
C 	C 	0.73880 0.50260 0.39090 -0.16500
C 	C 	0.68890 0.58690 0.36550 0.06900
H 	H 	0.65130 0.64400 0.37990 0.01300
C 	C 	0.69120 0.59240 0.32020 -0.12300
H 	H 	0.65470 0.65250 0.30480 0.04800
C 	C 	0.74440 0.51370 0.29550 0.04700
C 	C 	0.79640 0.42540 0.32120 -0.12200
H 	H 	0.83390 0.36870 0.30640 0.07100
C 	C 	0.79450 0.41890 0.36660 0.06300
H 	H 	0.83040 0.35840 0.38230 0.00700
C 	C 	0.74730 0.52230 0.24980 0.00500
C 	C 	0.68370 0.54340 0.22120 -0.08900
H 	H 	0.63850 0.55340 0.23510 0.04100
C 	C 	0.68440 0.54980 0.17610 0.03000
C 	C 	0.74700 0.51930 0.15530 -0.09200
H 	H 	0.74650 0.50970 0.12410 0.06000
C 	C 	0.81540 0.50060 0.17930 0.02600
C 	C 	0.81260 0.49820 0.22460 -0.08200
H 	H 	0.85610 0.47940 0.24060 0.05700
C 	C 	0.61480 0.56600 0.15130 0.03200
C 	C 	0.55950 0.67030 0.16680 -0.10000
H 	H 	0.56530 0.72860 0.19390 0.04500
C 	C 	0.49750 0.68570 0.14220 0.04000
H 	H 	0.46090 0.75650 0.15300 0.02500
C 	C 	0.48520 0.60650 0.10370 -0.12700
C 	C 	0.53740 0.49900 0.08660 0.03100
H 	H 	0.52950 0.43890 0.06000 0.01800
C 	C 	0.60190 0.48550 0.11090 -0.09700
H 	H 	0.63900 0.41780 0.09940 0.05900
C 	C 	0.41670 0.62600 0.07780 0.34400
O 	O 	0.36860 0.72360 0.09160 -0.46100
O 	O 	0.40430 0.53700 0.04560 -0.48400
C 	C 	0.88510 0.48680 0.15730 0.04100
C 	C 	0.88660 0.40240 0.11270 -0.10200
H 	H 	0.84340 0.35880 0.10020 0.06200
C 	C 	0.94630 0.38880 0.09130 0.04000
H 	H 	0.94600 0.34170 0.06260 0.02700
C 	C 	0.01430 0.44570 0.11120 -0.10700
C 	C 	0.00970 0.52210 0.15180 0.02200
H 	H 	0.05240 0.56260 0.16550 0.03500
C 	C 	0.94590 0.54150 0.17280 -0.09400
H 	H 	0.94610 0.59810 0.20030 0.06400
C 	C 	0.08560 0.42530 0.08710 0.36500
O 	O 	0.07930 0.40560 0.04740 -0.48400
O 	O 	0.14000 0.43990 0.11080 -0.30300
H 	H 	0.92460 0.59680 0.74650 -0.68800
O 	O 	0.84890 0.70000 0.77490 0.28400
H 	H 	0.83210 0.60450 0.77020 -0.01100
Zn	Zn	0.36381 0.96886 0.05825 1.20300
O 	O 	0.25790 0.40080 0.04400 -0.53100
C 	C 	0.46650 0.19030 0.27330 -0.99100
Zn	Zn	0.30317 0.61433 0.02373 1.22700
O 	O 	0.35800 0.82360 0.00170 -0.66300
B 	B 	0.45550 0.16700 0.33000 0.73000
H 	H 	0.41030 0.22100 0.34930 -0.23700
Zn	Zn	0.16786 0.36265 0.01592 1.21500
B 	B 	0.44080 0.99180 0.29380 0.19400
H 	H 	0.38680 0.93220 0.28930 -0.10700
Zn	Zn	0.44865 0.77632 0.97341 1.19300
B 	B 	0.50160 0.01210 0.24930 0.78500
H 	H 	0.48560 0.96770 0.21550 -0.26200
B 	B 	0.55340 0.19140 0.25720 0.27900
H 	H 	0.57320 0.26270 0.22810 -0.12900
B 	B 	0.52590 0.29160 0.30610 0.75700
H 	H 	0.52680 0.42940 0.31010 -0.26300
B 	B 	0.49330 0.97380 0.34410 0.05300
H 	H 	0.47340 0.90180 0.37310 -0.06000
B 	B 	0.52480 0.87510 0.29330 -0.24600
H 	H 	0.52620 0.73760 0.28880 0.00800
B 	B 	0.58860 0.99400 0.27140 -0.36200
H 	H 	0.63200 0.93330 0.25190 0.04700
B 	B 	0.60730 0.17570 0.30600 0.04500
H 	H 	0.66150 0.23520 0.30960 -0.05100
C 	C 	0.54380 0.15550 0.34840 -0.77100
B 	B 	0.58690 0.97680 0.33000 0.86500
H 	H 	0.62830 0.90850 0.35010 -0.28300
C 	C 	0.40600 0.28800 0.25030 0.90100
H 	H 	0.36130 0.28060 0.26820 -0.52900
O 	O 	0.42870 0.45800 0.24780 0.51100
H 	H 	0.39340 0.52080 0.24270 -0.09100
C 	C 	0.39070 0.22440 0.20510 -0.29200
C 	C 	0.34470 0.09900 0.19670 0.09600
H 	H 	0.31880 0.05000 0.22020 -0.01300
C 	C 	0.33470 0.03970 0.15240 -0.02500
H 	H 	0.29730 0.96180 0.14710 0.04100
N 	N 	0.37280 0.08470 0.11900 -0.21000
C 	C 	0.42150 0.20300 0.12610 -0.02200
H 	H 	0.44960 0.23850 0.10200 0.03000
C 	C 	0.43350 0.27780 0.16710 0.07000
H 	H 	0.46880 0.36200 0.17050 0.00500
C 	C 	0.56400 0.23160 0.39500 0.35300
H 	H 	0.60380 0.31360 0.39140 -0.07100
O 	O 	0.50180 0.31450 0.40810 -0.45200
H 	H 	0.50760 0.35040 0.43390 0.24100
C 	C 	0.58730 0.10130 0.42720 -0.08100
C 	C 	0.54260 0.02170 0.45570 -0.04500
H 	H 	0.49340 0.05210 0.45740 0.04300
C 	C 	0.56970 0.89860 0.48160 0.02500
H 	H 	0.53680 0.83750 0.49890 0.01100
N 	N 	0.63980 0.85680 0.48440 -0.24300
C 	C 	0.68180 0.94180 0.45700 0.05000
H 	H 	0.73120 0.91160 0.45660 0.00800
C 	C 	0.66210 0.06040 0.43110 -0.05800
H 	H 	0.69680 0.12010 0.41470 0.05800
O 	O 	0.25540 0.97530 0.06480 -0.48300
C 	C 	0.20610 0.86530 0.05720 0.42600
O 	O 	0.21200 0.73490 0.03770 -0.50600
C 	C 	0.13360 0.90490 0.07730 -0.16600
C 	C 	0.12520 0.02180 0.11030 0.09300
H 	H 	0.16470 0.08840 0.11960 0.00900
C 	C 	0.06340 0.03950 0.12830 -0.16700
H 	H 	0.05980 0.11580 0.15210 0.08600
C 	C 	0.00410 0.95840 0.11600 0.08600
C 	C 	0.00760 0.84810 0.08090 -0.15800
H 	H 	0.96560 0.79490 0.06980 0.09000
C 	C 	0.07540 0.81750 0.06240 0.09000
H 	H 	0.08040 0.73710 0.03970 0.01000
C 	C 	0.93480 0.98600 0.14280 0.01800
C 	C 	0.93480 0.99620 0.18440 -0.06800
H 	H 	0.97970 0.00030 0.19970 0.05100
C 	C 	0.86820 0.00220 0.21060 0.00400
C 	C 	0.80730 0.99240 0.18710 -0.06000
H 	H 	0.76390 0.00420 0.20300 0.04200
C 	C 	0.80030 0.96650 0.14170 0.01100
C 	C 	0.86620 0.96310 0.11640 -0.07500
H 	H 	0.86600 0.94750 0.08540 0.05300
C 	C 	0.87510 0.01620 0.25910 0.05100
C 	C 	0.93070 0.10420 0.27840 -0.11700
H 	H 	0.96500 0.16030 0.26090 0.06700
C 	C 	0.93530 0.10890 0.32450 0.03800
H 	H 	0.97410 0.16650 0.33830 0.02400
C 	C 	0.88500 0.03210 0.35070 -0.12100
C 	C 	0.82960 0.94950 0.32940 0.05000
H 	H 	0.79510 0.89470 0.34700 0.02400
C 	C 	0.82140 0.94180 0.28610 -0.11800
H 	H 	0.78090 0.88820 0.27310 0.06500
C 	C 	0.88990 0.04820 0.40030 0.34700
O 	O 	0.94720 0.11230 0.41410 -0.47300
O 	O 	0.83500 0.00840 0.42090 -0.30800
C 	C 	0.73360 0.95650 0.11630 0.05200
C 	C 	0.67090 0.04740 0.12710 -0.11800
H 	H 	0.67390 0.12660 0.15020 0.06300
C 	C 	0.60540 0.02570 0.10530 0.04300
H 	H 	0.56310 0.07860 0.11550 0.01900
C 	C 	0.60330 0.92700 0.06920 -0.12700
C 	C 	0.66220 0.84240 0.05480 0.04100
H 	H 	0.65810 0.77190 0.02980 0.02500
C 	C 	0.73050 0.85990 0.07750 -0.10700
H 	H 	0.77240 0.80760 0.06660 0.06200
C 	C 	0.53250 0.91400 0.04280 0.40500
O 	O 	0.53470 0.81700 0.00760 -0.50400
O 	O 	0.47870 0.97650 0.05580 -0.50400
C 	C 	0.23550 0.50450 0.93650 0.37400
O 	O 	0.17730 0.47810 0.95620 -0.46400
O 	O 	0.29580 0.54130 0.95960 -0.46800
C 	C 	0.23880 0.49740 0.89090 -0.16600
C 	C 	0.18890 0.41310 0.86550 0.07000
H 	H 	0.15130 0.35600 0.87990 0.01200
C 	C 	0.19120 0.40760 0.82020 -0.12400
H 	H 	0.15470 0.34750 0.80480 0.04800
C 	C 	0.24440 0.48630 0.79550 0.04800
C 	C 	0.29640 0.57460 0.82120 -0.12300
H 	H 	0.33390 0.63130 0.80640 0.07200
C 	C 	0.29450 0.58110 0.86660 0.06300
H 	H 	0.33040 0.64160 0.88230 0.00600
C 	C 	0.24730 0.47770 0.74980 0.00300
C 	C 	0.18370 0.45660 0.72120 -0.08700
H 	H 	0.13850 0.44660 0.73510 0.03900
C 	C 	0.18440 0.45020 0.67610 0.02700
C 	C 	0.24700 0.48070 0.65530 -0.08900
H 	H 	0.24650 0.49030 0.62410 0.05900
C 	C 	0.31540 0.49940 0.67930 0.02200
C 	C 	0.31260 0.50180 0.72460 -0.07900
H 	H 	0.35610 0.52060 0.74060 0.05600
C 	C 	0.11480 0.43400 0.65130 0.03500
C 	C 	0.05950 0.32970 0.66680 -0.11400
H 	H 	0.06530 0.27140 0.69390 0.04800
C 	C 	0.99750 0.31430 0.64220 0.05300
H 	H 	0.96090 0.24350 0.65300 0.02200
C 	C 	0.98520 0.39350 0.60370 -0.12100
C 	C 	0.03740 0.50100 0.58660 0.02200
H 	H 	0.02950 0.56110 0.56000 0.01800
C 	C 	0.10190 0.51450 0.61090 -0.09700
H 	H 	0.13900 0.58220 0.59940 0.05900
C 	C 	0.91670 0.37400 0.57780 0.34300
O 	O 	0.86860 0.27640 0.59160 -0.46100
O 	O 	0.90430 0.46300 0.54560 -0.48200
C 	C 	0.38510 0.51320 0.65730 0.04800
C 	C 	0.38660 0.59760 0.61270 -0.10200
H 	H 	0.34340 0.64120 0.60020 0.06200
C 	C 	0.44630 0.61120 0.59130 0.03200
H 	H 	0.44600 0.65830 0.56260 0.02700
C 	C 	0.51430 0.55430 0.61120 -0.10300
C 	C 	0.50970 0.47790 0.65180 0.03800
H 	H 	0.55240 0.43740 0.66550 0.03100
C 	C 	0.44590 0.45850 0.67280 -0.11200
H 	H 	0.44610 0.40190 0.70030 0.06800
C 	C 	0.58560 0.57470 0.58710 0.36400
O 	O 	0.57930 0.59440 0.54740 -0.48200
O 	O 	0.64000 0.56010 0.61080 -0.30200
H 	H 	0.42460 0.40320 0.24650 -0.68900
O 	O 	0.34890 0.30000 0.27490 0.28200
H 	H 	0.33210 0.39550 0.27020 -0.01100
