data_crystal

_cell_length_a 15.00890
_cell_length_b 15.39870
_cell_length_c 15.56910
_cell_angle_alpha 67.87300
_cell_angle_beta  64.60900
_cell_angle_gamma 68.95900

_symmetry_space_group_name_	'P 1'
_symmetry_space_group_name_H-M	'P 1'

loop_
_symmetry_equiv_pos_as_xyz
  x,y,z

loop_
_atom_site_label
_atom_site_type_symbol
_atom_site_fract_x
_atom_site_fract_y
_atom_site_fract_z
_atom_site_charge
C 	C 	0.66637 0.52342 0.13609 -0.97800
Co	Co	0.25468 0.92503 0.97640 1.18100
B 	B 	0.64147 0.63903 0.06644 0.71500
H 	H 	0.57380 0.67320 0.04180 -0.24600
B 	B 	0.74264 0.55095 0.01404 0.13500
H 	H 	0.74200 0.52590 0.95550 -0.07400
B 	B 	0.79465 0.47008 0.10639 0.93400
H 	H 	0.82860 0.39190 0.10830 -0.30800
B 	B 	0.72377 0.50856 0.21660 0.18400
H 	H 	0.71070 0.45570 0.29110 -0.10300
B 	B 	0.62932 0.61420 0.19168 0.75600
H 	H 	0.55400 0.63240 0.24930 -0.25500
B 	B 	0.76046 0.66685 0.99092 0.22300
H 	H 	0.77160 0.72020 0.91680 -0.10100
B 	B 	0.85634 0.56207 0.01488 -0.41400
H 	H 	0.93140 0.54550 0.95620 0.06800
B 	B 	0.84424 0.53485 0.14120 -0.37700
H 	H 	0.91180 0.49960 0.16610 0.05000
B 	B 	0.74218 0.62382 0.19401 0.15400
H 	H 	0.74190 0.64850 0.25320 -0.07800
C 	C 	0.69349 0.69726 0.10177 -0.86200
B 	B 	0.82362 0.65696 0.06992 0.87000
H 	H 	0.87660 0.70360 0.04770 -0.28300
C 	C 	0.64877 0.80677 0.09694 0.39300
H 	H 	0.70100 0.84310 0.04640 -0.08400
O 	O 	0.62528 0.82106 0.18941 -0.45900
H 	H 	0.64500 0.86920 0.18110 0.28000
C 	C 	0.55466 0.84416 0.06724 -0.09400
C 	C 	0.46012 0.83674 0.13842 -0.03100
H 	H 	0.45250 0.81440 0.20640 0.05200
C 	C 	0.37711 0.86226 0.10922 0.02300
H 	H 	0.31290 0.85600 0.15840 0.02800
N 	N 	0.38370 0.89580 0.01351 -0.21400
C 	C 	0.47440 0.90787 0.94562 0.03500
H 	H 	0.47920 0.93440 0.87840 0.02000
C 	C 	0.56148 0.88347 0.96880 -0.02200
H 	H 	0.62420 0.89340 0.91860 0.04300
C 	C 	0.58585 0.46523 0.17095 0.88800
H 	H 	0.56360 0.44420 0.24460 -0.60800
O 	O 	0.49950 0.52160 0.14690 0.48900
H 	H 	0.44900 0.49960 0.18840 -0.10800
C 	C 	0.62638 0.37360 0.13629 -0.28700
C 	C 	0.61731 0.37261 0.05171 0.10200
H 	H 	0.58920 0.43060 0.01150 -0.02000
C 	C 	0.64946 0.28638 0.02618 -0.07800
H 	H 	0.64230 0.28730 0.96810 0.05400
N 	N 	0.68994 0.20209 0.07908 -0.18500
C 	C 	0.69995 0.20338 0.16029 -0.04200
H 	H 	0.73000 0.14470 0.19830 0.03600
C 	C 	0.66840 0.28663 0.19132 0.09200
H 	H 	0.67570 0.28380 0.25010 -0.00900
O 	O 	0.18301 0.83981 0.10824 -0.42800
C 	C 	0.10582 0.81473 0.12029 0.36400
O 	O 	0.04271 0.86144 0.07678 -0.43000
C 	C 	0.08975 0.71873 0.19084 -0.10700
C 	C 	0.01405 0.68250 0.19749 -0.00200
H 	H 	0.96930 0.72070 0.16150 0.05600
C 	C 	0.00328 0.59073 0.25645 -0.13700
H 	H 	0.95120 0.56660 0.26040 0.07600
C 	C 	0.06856 0.53324 0.31020 0.04200
C 	C 	0.14107 0.57252 0.30715 -0.10600
H 	H 	0.18290 0.53630 0.34650 0.06000
C 	C 	0.15243 0.66388 0.24710 0.02800
H 	H 	0.20310 0.68910 0.24430 0.02600
C 	C 	0.06799 0.43000 0.35961 0.01700
C 	C 	0.05661 0.37783 0.30960 -0.09300
H 	H 	0.04130 0.41080 0.25050 0.03800
C 	C 	0.06743 0.27818 0.34538 0.01500
C 	C 	0.08679 0.23148 0.43391 -0.09700
H 	H 	0.09380 0.16370 0.45900 0.05400
C 	C 	0.09611 0.28184 0.48644 0.02900
C 	C 	0.08744 0.38176 0.44828 -0.09700
H 	H 	0.09480 0.41680 0.48280 0.05600
C 	C 	0.07001 0.22211 0.28435 0.04200
C 	C 	0.00143 0.25354 0.23420 -0.14300
H 	H 	0.94900 0.31040 0.24160 0.07700
C 	C 	0.00933 0.20217 0.17349 -0.01000
H 	H 	0.96060 0.22220 0.14200 0.05600
C 	C 	0.08912 0.12094 0.15882 -0.11500
C 	C 	0.15753 0.08887 0.20886 0.02700
H 	H 	0.21160 0.03350 0.19930 0.01200
C 	C 	0.14659 0.13810 0.27290 -0.11400
H 	H 	0.19150 0.11440 0.30920 0.05900
C 	C 	0.10471 0.06838 0.08710 0.37000
O 	O 	0.02699 0.05857 0.08369 -0.44800
O 	O 	0.19627 0.03887 0.03741 -0.45400
C 	C 	0.12152 0.22621 0.57728 0.02700
C 	C 	0.07580 0.15004 0.64202 -0.09100
H 	H 	0.02450 0.13860 0.63020 0.04900
C 	C 	0.10429 0.09076 0.72357 0.01100
H 	H 	0.07220 0.03960 0.76720 0.01900
C 	C 	0.18028 0.10686 0.74082 -0.10000
C 	C 	0.22609 0.18326 0.67692 0.01400
H 	H 	0.27780 0.19440 0.68850 0.03400
C 	C 	0.19623 0.24270 0.59671 -0.09100
H 	H 	0.22670 0.29520 0.55440 0.05500
C 	C 	0.21196 0.04063 0.82621 0.28600
O 	O 	0.15347 0.98778 0.89536 -0.45100
O 	O 	0.29733 0.03210 0.82994 -0.39700
H 	H 	0.53270 0.50790 0.14080 -0.66600
O 	O 	0.53910 0.44810 0.27010 0.40700
H 	H 	0.47720 0.45310 0.28420 -0.07500
C 	C 	0.33363 0.47658 0.86391 -1.01500
Co	Co	0.74532 0.07497 0.02360 1.14400
B 	B 	0.35853 0.36097 0.93356 0.82800
H 	H 	0.42620 0.32680 0.95820 -0.27000
B 	B 	0.25736 0.44905 0.98596 0.26300
H 	H 	0.25800 0.47410 0.04450 -0.12800
B 	B 	0.20535 0.52992 0.89361 0.80400
H 	H 	0.17140 0.60810 0.89170 -0.27300
B 	B 	0.27623 0.49144 0.78340 0.34800
H 	H 	0.28930 0.54430 0.70890 -0.14900
B 	B 	0.37068 0.38580 0.80832 0.65200
H 	H 	0.44600 0.36760 0.75070 -0.22700
B 	B 	0.23954 0.33315 0.00908 -0.07300
H 	H 	0.22840 0.27980 0.08320 -0.02300
B 	B 	0.14366 0.43793 0.98512 -0.23600
H 	H 	0.06860 0.45450 0.04380 -0.01200
B 	B 	0.15576 0.46515 0.85880 -0.48000
H 	H 	0.08820 0.50040 0.83390 0.06500
B 	B 	0.25782 0.37618 0.80599 0.10900
H 	H 	0.25810 0.35150 0.74680 -0.06800
C 	C 	0.30651 0.30274 0.89823 -0.79500
B 	B 	0.17638 0.34304 0.93008 0.96200
H 	H 	0.12340 0.29640 0.95230 -0.30700
C 	C 	0.35123 0.19323 0.90306 0.35500
H 	H 	0.29900 0.15690 0.95360 -0.06700
O 	O 	0.37472 0.17894 0.81059 -0.45400
H 	H 	0.35500 0.13080 0.81890 0.26800
C 	C 	0.44534 0.15584 0.93276 -0.05500
C 	C 	0.53988 0.16326 0.86158 -0.05800
H 	H 	0.54750 0.18560 0.79360 0.05200
C 	C 	0.62289 0.13774 0.89078 0.02400
H 	H 	0.68710 0.14400 0.84160 0.01500
N 	N 	0.61630 0.10420 0.98649 -0.21100
C 	C 	0.52560 0.09213 0.05438 0.01300
H 	H 	0.52080 0.06560 0.12160 0.00200
C 	C 	0.43852 0.11653 0.03120 -0.07600
H 	H 	0.37580 0.10660 0.08140 0.04400
C 	C 	0.41415 0.53477 0.82905 0.89300
H 	H 	0.43640 0.55580 0.75540 -0.60600
O 	O 	0.50050 0.47840 0.85310 0.48300
H 	H 	0.55100 0.50040 0.81160 -0.10300
C 	C 	0.37362 0.62640 0.86371 -0.27300
C 	C 	0.38269 0.62739 0.94829 0.07300
H 	H 	0.41080 0.56940 0.98850 0.00100
C 	C 	0.35054 0.71362 0.97382 -0.01400
H 	H 	0.35770 0.71270 0.03190 0.01500
N 	N 	0.31006 0.79791 0.92092 -0.18800
C 	C 	0.30005 0.79662 0.83971 -0.03500
H 	H 	0.27000 0.85530 0.80170 0.05000
C 	C 	0.33160 0.71337 0.80868 0.08600
H 	H 	0.32430 0.71620 0.74990 -0.00300
O 	O 	0.81699 0.16019 0.89176 -0.43300
C 	C 	0.89418 0.18527 0.87971 0.37600
O 	O 	0.95729 0.13856 0.92322 -0.40900
C 	C 	0.91025 0.28127 0.80916 -0.11700
C 	C 	0.98595 0.31750 0.80251 0.06900
H 	H 	0.03070 0.27930 0.83850 -0.00100
C 	C 	0.99672 0.40927 0.74355 -0.05800
H 	H 	0.04880 0.43340 0.73960 0.01300
C 	C 	0.93144 0.46676 0.68980 0.01800
C 	C 	0.85893 0.42748 0.69285 -0.09000
H 	H 	0.81710 0.46370 0.65350 0.05900
C 	C 	0.84757 0.33612 0.75290 0.03400
H 	H 	0.79690 0.31090 0.75570 0.02700
C 	C 	0.93201 0.57000 0.64039 0.05200
C 	C 	0.94339 0.62217 0.69040 -0.11300
H 	H 	0.95870 0.58920 0.74950 0.06100
C 	C 	0.93257 0.72182 0.65462 0.05500
C 	C 	0.91321 0.76852 0.56609 -0.11400
H 	H 	0.90620 0.83630 0.54100 0.07700
C 	C 	0.90389 0.71816 0.51356 0.05200
C 	C 	0.91256 0.61824 0.55172 -0.11100
H 	H 	0.90520 0.58320 0.51720 0.07300
C 	C 	0.92999 0.77789 0.71565 0.01300
C 	C 	0.99857 0.74646 0.76580 -0.05500
H 	H 	0.05100 0.68960 0.75840 0.01200
C 	C 	0.99067 0.79783 0.82651 0.05000
H 	H 	0.03940 0.77780 0.85800 0.00400
C 	C 	0.91088 0.87906 0.84118 -0.10300
C 	C 	0.84247 0.91113 0.79114 0.02500
H 	H 	0.78840 0.96650 0.80070 0.04000
C 	C 	0.85341 0.86190 0.72710 -0.08500
H 	H 	0.80850 0.88560 0.69080 0.06400
C 	C 	0.89529 0.93162 0.91290 0.37300
O 	O 	0.97301 0.94143 0.91631 -0.37800
O 	O 	0.80373 0.96113 0.96259 -0.40100
C 	C 	0.87848 0.77379 0.42272 0.03600
C 	C 	0.92420 0.84996 0.35798 -0.08500
H 	H 	0.97550 0.86140 0.36980 0.07500
C 	C 	0.89571 0.90924 0.27643 0.03600
H 	H 	0.92780 0.96040 0.23280 0.05900
C 	C 	0.81972 0.89314 0.25918 -0.11500
C 	C 	0.77391 0.81674 0.32308 0.03400
H 	H 	0.72220 0.80560 0.31150 0.03200
C 	C 	0.80377 0.75730 0.40329 -0.09000
H 	H 	0.77330 0.70480 0.44560 0.06100
C 	C 	0.78804 0.95937 0.17379 0.38700
O 	O 	0.84653 0.01222 0.10464 -0.54200
O 	O 	0.70267 0.96790 0.17006 -0.38700
H 	H 	0.46730 0.49210 0.85920 -0.66200
O 	O 	0.46090 0.55190 0.72990 0.40400
H 	H 	0.52280 0.54690 0.71580 -0.07200
Co	Co	-0.00000 0.00000 -0.00000 1.16100
