data_crystal

_cell_length_a 14.92350
_cell_length_b 15.12030
_cell_length_c 15.97930
_cell_angle_alpha 67.39900
_cell_angle_beta  68.01600
_cell_angle_gamma 70.67000

_symmetry_space_group_name_	'P 1'
_symmetry_space_group_name_H-M	'P 1'

loop_
_symmetry_equiv_pos_as_xyz
  x,y,z

loop_
_atom_site_label
_atom_site_type_symbol
_atom_site_fract_x
_atom_site_fract_y
_atom_site_fract_z
_atom_site_charge
Co	Co	0.24835 0.93250 0.98581 1.18200
C 	C 	0.67304 0.51426 0.13259 -1.00200
B 	B 	0.63950 0.63350 0.06930 0.73600
H 	H 	0.56820 0.66610 0.04990 -0.25400
B 	B 	0.73520 0.55100 0.01340 0.12500
H 	H 	0.72720 0.52810 0.95820 -0.07200
B 	B 	0.79970 0.46830 0.09660 0.95600
H 	H 	0.83460 0.39060 0.09550 -0.31500
B 	B 	0.74170 0.49900 0.20490 0.18900
H 	H 	0.73820 0.44150 0.27520 -0.10600
B 	B 	0.64250 0.60257 0.18740 0.75900
H 	H 	0.57340 0.61500 0.24580 -0.26000
B 	B 	0.75030 0.67080 0.99230 0.22300
H 	H 	0.75260 0.72890 0.92250 -0.10100
B 	B 	0.85040 0.56760 0.00870 -0.42400
H 	H 	0.91900 0.55650 0.94960 0.07200
B 	B 	0.85320 0.53490 0.12790 -0.40400
H 	H 	0.92440 0.50160 0.14750 0.05700
B 	B 	0.75690 0.61780 0.18410 0.15800
H 	H 	0.76380 0.64060 0.24000 -0.08000
C 	C 	0.69591 0.69317 0.10019 -0.88100
B 	B 	0.82350 0.65990 0.06330 0.89100
H 	H 	0.87420 0.71070 0.03990 -0.28800
C 	C 	0.65055 0.80196 0.09999 0.39900
H 	H 	0.69950 0.84270 0.05420 -0.08800
O 	O 	0.63147 0.80816 0.19191 -0.46200
H 	H 	0.65810 0.85110 0.18810 0.28300
C 	C 	0.55548 0.84153 0.07081 -0.09500
C 	C 	0.55686 0.88094 0.97624 -0.02100
H 	H 	0.61740 0.88800 0.92800 0.04300
C 	C 	0.46822 0.90979 0.95350 0.03500
H 	H 	0.46960 0.93560 0.88870 0.02200
N 	N 	0.38052 0.90273 0.01925 -0.21400
C 	C 	0.37963 0.86938 0.11057 0.02500
H 	H 	0.31770 0.86730 0.15770 0.02900
C 	C 	0.46474 0.83793 0.13898 -0.03000
H 	H 	0.46110 0.81420 0.20430 0.05400
C 	C 	0.59740 0.44900 0.16920 0.94700
H 	H 	0.58490 0.42300 0.23940 -0.69100
O 	O 	0.50680 0.50440 0.15320 0.49000
H 	H 	0.46220 0.47340 0.18900 -0.10500
C 	C 	0.63514 0.35950 0.13320 -0.30200
C 	C 	0.61010 0.35916 0.05810 0.11300
H 	H 	0.57060 0.41610 0.02600 -0.02200
C 	C 	0.64340 0.27437 0.03030 -0.08400
H 	H 	0.62620 0.27550 0.97830 0.05700
N 	N 	0.69836 0.19126 0.07292 -0.17900
C 	C 	0.72320 0.19279 0.14464 -0.04700
H 	H 	0.76380 0.13530 0.17480 0.04300
C 	C 	0.69290 0.27385 0.17710 0.10400
H 	H 	0.71160 0.27080 0.22900 -0.01200
O 	O 	0.18830 0.83769 0.10999 -0.42800
C 	C 	0.11082 0.81144 0.12114 0.36300
O 	O 	0.04751 0.85879 0.07727 -0.42900
C 	C 	0.09628 0.71338 0.19091 -0.10800
C 	C 	0.16040 0.65782 0.24678 0.02900
H 	H 	0.21120 0.68430 0.24440 0.02600
C 	C 	0.15031 0.56422 0.30568 -0.10800
H 	H 	0.19390 0.52700 0.34390 0.05900
C 	C 	0.07646 0.52431 0.30920 0.04500
C 	C 	0.01083 0.58186 0.25513 -0.13900
H 	H 	0.95900 0.55630 0.25850 0.07700
C 	C 	0.02030 0.67566 0.19678 0.00100
H 	H 	0.97490 0.71410 0.16080 0.05300
C 	C 	0.07343 0.41974 0.36037 0.01600
C 	C 	0.05944 0.36491 0.31485 -0.09100
H 	H 	0.04850 0.39660 0.25430 0.03900
C 	C 	0.06111 0.26472 0.35609 0.01200
C 	C 	0.07649 0.21960 0.44593 -0.09300
H 	H 	0.07650 0.15180 0.47570 0.05000
C 	C 	0.09187 0.27269 0.49242 0.02500
C 	C 	0.08990 0.37293 0.44927 -0.09600
H 	H 	0.09980 0.40950 0.48070 0.05600
C 	C 	0.05783 0.20826 0.29945 0.04500
C 	C 	0.00535 0.25158 0.23220 -0.14500
H 	H 	0.96230 0.31440 0.22950 0.07600
C 	C 	0.01515 0.20403 0.16916 -0.00300
H 	H 	0.97640 0.23290 0.12590 0.05100
C 	C 	0.08144 0.11432 0.16920 -0.12000
C 	C 	0.12911 0.06777 0.23970 0.03200
H 	H 	0.17160 0.00460 0.24260 0.00600
C 	C 	0.11498 0.11301 0.30570 -0.11700
H 	H 	0.14460 0.07880 0.35590 0.05600
C 	C 	0.10160 0.06804 0.09387 0.37200
O 	O 	0.02751 0.06158 0.07916 -0.45200
O 	O 	0.19187 0.03990 0.05245 -0.45000
C 	C 	0.11472 0.22065 0.58466 0.03200
C 	C 	0.06361 0.14969 0.65347 -0.09800
H 	H 	0.00980 0.13840 0.64370 0.04900
C 	C 	0.09086 0.09547 0.73617 0.02000
H 	H 	0.05580 0.04720 0.78260 0.01400
C 	C 	0.16955 0.11189 0.75103 -0.11100
C 	C 	0.22045 0.18313 0.68304 0.02200
H 	H 	0.27400 0.19470 0.69300 0.02800
C 	C 	0.19267 0.23734 0.60038 -0.09800
H 	H 	0.22720 0.28620 0.55430 0.05700
C 	C 	0.20049 0.04973 0.83784 0.29700
O 	O 	0.28370 0.04445 0.84524 -0.40400
O 	O 	0.14508 0.99490 0.90486 -0.46000
H 	H 	0.53930 0.49040 0.14480 -0.68800
O 	O 	0.56440 0.42760 0.26520 0.47900
H 	H 	0.51760 0.39880 0.28610 -0.06700
Co	Co	0.75165 0.06750 0.01419 1.14500
C 	C 	0.32696 0.48574 0.86741 -1.03900
B 	B 	0.36050 0.36650 0.93070 0.85300
H 	H 	0.43180 0.33390 0.95010 -0.27900
B 	B 	0.26480 0.44900 0.98660 0.25200
H 	H 	0.27280 0.47190 0.04180 -0.12600
B 	B 	0.20030 0.53170 0.90340 0.82400
H 	H 	0.16540 0.60940 0.90450 -0.27900
B 	B 	0.25830 0.50100 0.79510 0.35600
H 	H 	0.26180 0.55850 0.72480 -0.15300
B 	B 	0.35750 0.39743 0.81260 0.65200
H 	H 	0.42660 0.38500 0.75420 -0.23100
B 	B 	0.24970 0.32920 0.00770 -0.07600
H 	H 	0.24740 0.27110 0.07750 -0.02400
B 	B 	0.14960 0.43240 0.99130 -0.24000
H 	H 	0.08100 0.44350 0.05040 -0.00900
B 	B 	0.14680 0.46510 0.87210 -0.51100
H 	H 	0.07560 0.49840 0.85250 0.07400
B 	B 	0.24310 0.38220 0.81590 0.11300
H 	H 	0.23620 0.35940 0.76000 -0.07000
C 	C 	0.30409 0.30683 0.89981 -0.81400
B 	B 	0.17650 0.34010 0.93670 0.98500
H 	H 	0.12580 0.28930 0.96010 -0.31300
C 	C 	0.34945 0.19804 0.90001 0.36200
H 	H 	0.30050 0.15730 0.94580 -0.07300
O 	O 	0.36853 0.19184 0.80809 -0.45900
H 	H 	0.34190 0.14890 0.81190 0.27400
C 	C 	0.44452 0.15847 0.92919 -0.05500
C 	C 	0.44314 0.11906 0.02376 -0.07600
H 	H 	0.38260 0.11200 0.07200 0.04400
C 	C 	0.53178 0.09021 0.04650 0.01300
H 	H 	0.53040 0.06440 0.11130 0.00400
N 	N 	0.61948 0.09727 0.98075 -0.21100
C 	C 	0.62037 0.13062 0.88943 0.02800
H 	H 	0.68230 0.13270 0.84230 0.01400
C 	C 	0.53526 0.16207 0.86102 -0.05800
H 	H 	0.53890 0.18580 0.79570 0.05500
C 	C 	0.40260 0.55100 0.83080 0.95300
H 	H 	0.41510 0.57700 0.76060 -0.69000
O 	O 	0.49320 0.49560 0.84680 0.48400
H 	H 	0.53780 0.52660 0.81100 -0.10000
C 	C 	0.36486 0.64050 0.86680 -0.28800
C 	C 	0.38990 0.64084 0.94190 0.08400
H 	H 	0.42940 0.58390 0.97400 -0.00200
C 	C 	0.35660 0.72563 0.96970 -0.02000
H 	H 	0.37380 0.72450 0.02170 0.01700
N 	N 	0.30164 0.80874 0.92708 -0.18200
C 	C 	0.27680 0.80721 0.85536 -0.03900
H 	H 	0.23620 0.86470 0.82520 0.05400
C 	C 	0.30710 0.72615 0.82290 0.09800
H 	H 	0.28840 0.72920 0.77100 -0.00700
O 	O 	0.81170 0.16231 0.89001 -0.43200
C 	C 	0.88918 0.18856 0.87886 0.37400
O 	O 	0.95249 0.14121 0.92273 -0.40800
C 	C 	0.90372 0.28662 0.80909 -0.11800
C 	C 	0.83960 0.34218 0.75322 0.03500
H 	H 	0.78880 0.31570 0.75560 0.02600
C 	C 	0.84969 0.43578 0.69432 -0.09300
H 	H 	0.80610 0.47300 0.65610 0.05800
C 	C 	0.92354 0.47569 0.69080 0.02100
C 	C 	0.98917 0.41814 0.74487 -0.06200
H 	H 	0.04100 0.44370 0.74150 0.01500
C 	C 	0.97970 0.32434 0.80322 0.06900
H 	H 	0.02510 0.28590 0.83920 -0.00300
C 	C 	0.92657 0.58026 0.63963 0.05000
C 	C 	0.94056 0.63509 0.68515 -0.11000
H 	H 	0.95150 0.60340 0.74570 0.06100
C 	C 	0.93889 0.73528 0.64391 0.05100
C 	C 	0.92351 0.78040 0.55407 -0.10900
H 	H 	0.92350 0.84820 0.52430 0.07500
C 	C 	0.90813 0.72731 0.50758 0.04800
C 	C 	0.91010 0.62707 0.55073 -0.10900
H 	H 	0.90020 0.59050 0.51930 0.07100
C 	C 	0.94217 0.79174 0.70055 0.01900
C 	C 	0.99465 0.74842 0.76780 -0.05900
H 	H 	0.03770 0.68560 0.77050 0.01100
C 	C 	0.98485 0.79597 0.83084 0.05400
H 	H 	0.02360 0.76710 0.87410 -0.00100
C 	C 	0.91856 0.88568 0.83080 -0.10900
C 	C 	0.87089 0.93223 0.76030 0.03300
H 	H 	0.82840 0.99540 0.75740 0.03800
C 	C 	0.88502 0.88699 0.69430 -0.08800
H 	H 	0.85540 0.92120 0.64410 0.06800
C 	C 	0.89840 0.93196 0.90613 0.37500
O 	O 	0.97249 0.93842 0.92084 -0.38400
O 	O 	0.80813 0.96010 0.94755 -0.39800
C 	C 	0.88528 0.77935 0.41534 0.04200
C 	C 	0.93639 0.85031 0.34653 -0.09200
H 	H 	0.99020 0.86160 0.35630 0.07800
C 	C 	0.90914 0.90453 0.26383 0.04500
H 	H 	0.94420 0.95280 0.21740 0.05500
C 	C 	0.83045 0.88811 0.24897 -0.12600
C 	C 	0.77955 0.81687 0.31696 0.04300
H 	H 	0.72600 0.80530 0.30700 0.02600
C 	C 	0.80733 0.76266 0.39962 -0.09800
H 	H 	0.77280 0.71380 0.44570 0.06300
C 	C 	0.79951 0.95027 0.16216 0.39600
O 	O 	0.71630 0.95555 0.15476 -0.39600
O 	O 	0.85492 0.00510 0.09514 -0.55000
H 	H 	0.46070 0.50960 0.85520 -0.68300
O 	O 	0.43560 0.57240 0.73480 0.47500
H 	H 	0.48240 0.60120 0.71390 -0.06200
Co	Co	-0.00000 0.00000 -0.00000 1.16600
