data_crystal

_cell_length_a 14.71410
_cell_length_b 15.30160
_cell_length_c 15.85570
_cell_angle_alpha 67.09500
_cell_angle_beta  66.06100
_cell_angle_gamma 70.80200

_symmetry_space_group_name_	'P 1'
_symmetry_space_group_name_H-M	'P 1'

loop_
_symmetry_equiv_pos_as_xyz
  x,y,z

loop_
_atom_site_label
_atom_site_type_symbol
_atom_site_fract_x
_atom_site_fract_y
_atom_site_fract_z
_atom_site_charge
Co	Co	0.25454 0.93032 0.98084 1.18100
O 	O 	0.18356 0.84139 0.10991 -0.42700
O 	O 	0.04059 0.86127 0.07908 -0.42800
O 	O 	0.29624 0.03958 0.83570 -0.39800
O 	O 	0.15207 0.99056 0.90020 -0.45600
O 	O 	0.20005 0.04014 0.04226 -0.45400
O 	O 	0.03050 0.05930 0.08087 -0.44600
O 	O 	0.63917 0.80173 0.19011 -0.46400
H 	H 	0.65570 0.85210 0.18370 0.28200
C 	C 	0.10502 0.81437 0.12222 0.36100
N 	N 	0.68943 0.19397 0.07381 -0.18500
N 	N 	0.38711 0.90070 0.01609 -0.21200
C 	C 	0.17850 0.10905 0.74507 -0.10000
C 	C 	0.20998 0.04507 0.83146 0.28700
C 	C 	0.09331 0.11518 0.16191 -0.11800
C 	C 	0.22343 0.18754 0.68104 0.01400
H 	H 	0.27400 0.20260 0.69290 0.03400
C 	C 	0.12230 0.22103 0.57942 0.02700
C 	C 	0.07681 0.21145 0.28784 0.04300
C 	C 	0.16131 0.08188 0.21409 0.02900
H 	H 	0.21420 0.02690 0.20610 0.01100
C 	C 	0.10848 0.06749 0.08902 0.36900
C 	C 	0.10370 0.08745 0.72776 0.01100
H 	H 	0.07140 0.03520 0.77230 0.02000
C 	C 	0.01454 0.19443 0.17582 -0.00800
H 	H 	0.96570 0.21530 0.14350 0.05500
C 	C 	0.07519 0.26748 0.34670 0.01500
C 	C 	0.15204 0.12867 0.27748 -0.11500
H 	H 	0.19730 0.10410 0.31420 0.05800
C 	C 	0.07668 0.14268 0.64519 -0.09100
H 	H 	0.02660 0.12710 0.63310 0.04800
C 	C 	0.56295 0.83692 0.06889 -0.09700
C 	C 	0.08901 0.71679 0.19220 -0.10700
C 	C 	0.09202 0.22137 0.43593 -0.09600
H 	H 	0.09870 0.15310 0.46230 0.05300
C 	C 	0.00739 0.24306 0.23711 -0.14400
H 	H 	0.95480 0.29840 0.24460 0.07800
C 	C 	0.56767 0.87930 0.97246 -0.02100
H 	H 	0.63090 0.88710 0.92310 0.04200
C 	C 	0.46790 0.83255 0.13863 -0.02900
H 	H 	0.46160 0.80820 0.20530 0.05200
C 	C 	0.09922 0.27427 0.48714 0.02900
C 	C 	0.07208 0.42226 0.35874 0.01800
C 	C 	0.38266 0.86409 0.10985 0.02200
H 	H 	0.31820 0.85990 0.15810 0.02800
C 	C 	0.08895 0.37493 0.44799 -0.09800
H 	H 	0.09350 0.41140 0.48230 0.05600
C 	C 	0.47856 0.90999 0.94962 0.03500
H 	H 	0.48240 0.93910 0.88360 0.02100
C 	C 	0.06472 0.36789 0.30917 -0.09400
H 	H 	0.05240 0.39990 0.24900 0.04000
C 	C 	0.69879 0.68596 0.10066 -0.87100
C 	C 	0.01546 0.67592 0.19567 -0.00200
H 	H 	0.97070 0.71260 0.15890 0.05500
C 	C 	0.65885 0.79414 0.09798 0.40000
H 	H 	0.71250 0.83150 0.04980 -0.08600
C 	C 	0.07073 0.52735 0.30980 0.04200
C 	C 	0.14970 0.66481 0.25105 0.02700
H 	H 	0.19860 0.69330 0.25040 0.02700
C 	C 	0.62240 0.36237 0.13150 -0.28900
C 	C 	0.00754 0.58186 0.25262 -0.13700
H 	H 	0.95860 0.55380 0.25300 0.07500
C 	C 	0.19413 0.24402 0.59939 -0.09100
H 	H 	0.22340 0.29870 0.55700 0.05500
C 	C 	0.64710 0.27874 0.02170 -0.08000
H 	H 	0.63950 0.28050 0.96430 0.05400
C 	C 	0.13940 0.57135 0.31092 -0.10600
H 	H 	0.17940 0.53740 0.35270 0.05900
C 	C 	0.61380 0.36366 0.04700 0.10500
H 	H 	0.58550 0.42210 0.00700 -0.02400
C 	C 	0.66521 0.51309 0.13119 -0.98700
C 	C 	0.69740 0.19347 0.15580 -0.04100
H 	H 	0.72680 0.13440 0.19410 0.03500
C 	C 	0.66480 0.27510 0.18670 0.09100
H 	H 	0.67140 0.27130 0.24530 -0.01000
C 	C 	0.58380 0.45253 0.16510 0.87900
H 	H 	0.56340 0.42900 0.23730 -0.53200
O 	O 	0.49480 0.51150 0.14200 0.56100
H 	H 	0.44520 0.48460 0.17830 -0.12800
B 	B 	0.63350 0.59989 0.18850 0.74800
H 	H 	0.56000 0.61540 0.24590 -0.25300
B 	B 	0.76020 0.66150 0.99160 0.23200
H 	H 	0.77020 0.71840 0.91970 -0.10400
B 	B 	0.64070 0.63101 0.06560 0.72200
H 	H 	0.57130 0.66660 0.04260 -0.25200
B 	B 	0.74960 0.60795 0.19090 0.15700
H 	H 	0.75310 0.62900 0.24950 -0.07700
B 	B 	0.72670 0.49350 0.21070 0.17700
H 	H 	0.71440 0.43740 0.28310 -0.10100
B 	B 	0.84770 0.52230 0.13700 -0.38900
H 	H 	0.91650 0.48560 0.16090 0.05300
B 	B 	0.82850 0.64590 0.06910 0.89200
H 	H 	0.88410 0.69210 0.04800 -0.28900
B 	B 	0.73830 0.54660 0.01170 0.13600
H 	H 	0.73380 0.52560 0.95340 -0.07500
B 	B 	0.79260 0.46130 0.10120 0.95900
H 	H 	0.82430 0.38380 0.10160 -0.31500
B 	B 	0.85510 0.55610 0.01310 -0.44300
H 	H 	0.92840 0.54240 0.95490 0.07600
H 	H 	0.52800 0.49490 0.13790 -0.71800
O 	O 	0.54630 0.43130 0.25790 0.28600
H 	H 	0.48990 0.41610 0.27620 -0.00100
Co	Co	0.74546 0.06968 0.01916 1.14500
O 	O 	0.81644 0.15861 0.89009 -0.43200
O 	O 	0.95941 0.13873 0.92092 -0.40700
O 	O 	0.70376 0.96042 0.16430 -0.38900
O 	O 	0.84793 0.00944 0.09980 -0.54800
O 	O 	0.79995 0.95986 0.95774 -0.40100
O 	O 	0.96950 0.94070 0.91913 -0.37700
O 	O 	0.36083 0.19827 0.80989 -0.45800
H 	H 	0.34430 0.14790 0.81630 0.27200
C 	C 	0.89498 0.18563 0.87778 0.37300
N 	N 	0.31057 0.80603 0.92619 -0.18800
N 	N 	0.61289 0.09930 0.98391 -0.21000
C 	C 	0.82150 0.89095 0.25493 -0.11500
C 	C 	0.79002 0.95493 0.16854 0.38800
C 	C 	0.90669 0.88482 0.83809 -0.10700
C 	C 	0.77657 0.81246 0.31896 0.03500
H 	H 	0.72600 0.79740 0.30710 0.03200
C 	C 	0.87770 0.77897 0.42058 0.03700
C 	C 	0.92319 0.78855 0.71216 0.01600
C 	C 	0.83869 0.91812 0.78591 0.02800
H 	H 	0.78580 0.97310 0.79390 0.03900
C 	C 	0.89152 0.93251 0.91098 0.37300
C 	C 	0.89630 0.91255 0.27224 0.03600
H 	H 	0.92860 0.96480 0.22770 0.06000
C 	C 	0.98546 0.80557 0.82418 0.05300
H 	H 	0.03430 0.78470 0.85650 0.00300
C 	C 	0.92481 0.73252 0.65330 0.05400
C 	C 	0.84796 0.87133 0.72252 -0.08700
H 	H 	0.80270 0.89590 0.68580 0.06500
C 	C 	0.92332 0.85732 0.35481 -0.08500
H 	H 	0.97340 0.87290 0.36690 0.07600
C 	C 	0.43705 0.16308 0.93111 -0.05600
C 	C 	0.91099 0.28321 0.80780 -0.11600
C 	C 	0.90798 0.77863 0.56407 -0.11200
H 	H 	0.90130 0.84690 0.53770 0.07700
C 	C 	0.99261 0.75694 0.76289 -0.05700
H 	H 	0.04520 0.70160 0.75540 0.01400
C 	C 	0.43233 0.12070 0.02754 -0.07600
H 	H 	0.36910 0.11290 0.07690 0.04600
C 	C 	0.53210 0.16745 0.86137 -0.05800
H 	H 	0.53840 0.19180 0.79470 0.05300
C 	C 	0.90078 0.72573 0.51286 0.05100
C 	C 	0.92792 0.57774 0.64126 0.05200
C 	C 	0.61734 0.13591 0.89015 0.02400
H 	H 	0.68180 0.14010 0.84190 0.01500
C 	C 	0.91105 0.62507 0.55201 -0.11200
H 	H 	0.90650 0.58860 0.51770 0.07300
C 	C 	0.52144 0.09001 0.05038 0.01500
H 	H 	0.51760 0.06090 0.11640 0.00200
C 	C 	0.93528 0.63211 0.69083 -0.11300
H 	H 	0.94760 0.60010 0.75100 0.06100
C 	C 	0.30121 0.31404 0.89934 -0.80200
C 	C 	0.98454 0.32408 0.80433 0.06700
H 	H 	0.02930 0.28740 0.84110 -0.00100
C 	C 	0.34115 0.20586 0.90202 0.36100
H 	H 	0.28750 0.16850 0.95020 -0.06800
C 	C 	0.92927 0.47265 0.69020 0.01800
C 	C 	0.85030 0.33519 0.74895 0.03300
H 	H 	0.80140 0.30670 0.74960 0.02700
C 	C 	0.37760 0.63763 0.86850 -0.27500
C 	C 	0.99246 0.41814 0.74738 -0.05800
H 	H 	0.04140 0.44620 0.74700 0.01200
C 	C 	0.80587 0.75598 0.40061 -0.09100
H 	H 	0.77660 0.70130 0.44300 0.06100
C 	C 	0.35290 0.72126 0.97830 -0.01700
H 	H 	0.36050 0.71950 0.03570 0.01500
C 	C 	0.86060 0.42865 0.68908 -0.09100
H 	H 	0.82060 0.46260 0.64730 0.05800
C 	C 	0.38620 0.63634 0.95300 0.07500
H 	H 	0.41450 0.57790 0.99300 -0.00300
C 	C 	0.33479 0.48691 0.86881 -1.02300
C 	C 	0.30260 0.80653 0.84420 -0.03500
H 	H 	0.27320 0.86560 0.80590 0.05000
C 	C 	0.33520 0.72490 0.81330 0.08500
H 	H 	0.32860 0.72870 0.75470 -0.00400
C 	C 	0.41620 0.54747 0.83490 0.88400
H 	H 	0.43660 0.57100 0.76270 -0.53100
O 	O 	0.50520 0.48850 0.85800 0.55200
H 	H 	0.55480 0.51540 0.82170 -0.12200
B 	B 	0.36650 0.40011 0.81150 0.64100
H 	H 	0.44000 0.38460 0.75410 -0.22300
B 	B 	0.23980 0.33850 0.00840 -0.06700
H 	H 	0.22980 0.28160 0.08030 -0.02500
B 	B 	0.35930 0.36899 0.93440 0.83800
H 	H 	0.42870 0.33340 0.95740 -0.27600
B 	B 	0.25040 0.39205 0.80910 0.11400
H 	H 	0.24690 0.37100 0.75050 -0.06800
B 	B 	0.27330 0.50650 0.78930 0.34300
H 	H 	0.28560 0.56260 0.71690 -0.14700
B 	B 	0.15230 0.47770 0.86300 -0.49400
H 	H 	0.08350 0.51440 0.83910 0.06900
B 	B 	0.17150 0.35410 0.93090 0.98100
H 	H 	0.11590 0.30790 0.95200 -0.31400
B 	B 	0.26170 0.45340 0.98830 0.26400
H 	H 	0.26620 0.47440 0.04660 -0.12900
B 	B 	0.20740 0.53870 0.89880 0.82800
H 	H 	0.17570 0.61620 0.89840 -0.27900
B 	B 	0.14490 0.44390 0.98690 -0.26100
H 	H 	0.07160 0.45760 0.04510 -0.00500
H 	H 	0.47200 0.50510 0.86210 -0.71100
O 	O 	0.45370 0.56870 0.74210 0.28300
H 	H 	0.51010 0.58390 0.72380 0.00200
Co	Co	-0.00000 0.00000 -0.00000 1.16200
