data_crystal

_cell_length_a 14.72280
_cell_length_b 15.23750
_cell_length_c 15.77640
_cell_angle_alpha 67.52600
_cell_angle_beta  65.84700
_cell_angle_gamma 70.86600

_symmetry_space_group_name_	'P 1'
_symmetry_space_group_name_H-M	'P 1'

loop_
_symmetry_equiv_pos_as_xyz
  x,y,z

loop_
_atom_site_label
_atom_site_type_symbol
_atom_site_fract_x
_atom_site_fract_y
_atom_site_fract_z
_atom_site_charge
C 	C 	0.69630 0.18955 0.10150 -0.87800
Co	Co	0.25376 0.43110 0.97986 1.17200
O 	O 	0.49740 0.01308 0.13920 0.53000
H 	H 	0.44890 0.98380 0.17080 -0.11100
B 	B 	0.63370 0.10193 0.18850 0.77300
H 	H 	0.56040 0.11620 0.24740 -0.26200
B 	B 	0.74983 0.11138 0.18926 0.13800
H 	H 	0.75390 0.13210 0.24830 -0.07300
B 	B 	0.82664 0.15150 0.06655 0.90200
H 	H 	0.88140 0.19890 0.04480 -0.29200
B 	B 	0.75736 0.16669 0.99074 0.22700
H 	H 	0.76610 0.22430 0.91940 -0.10200
B 	B 	0.63906 0.13420 0.06622 0.71200
H 	H 	0.56900 0.16930 0.04460 -0.25000
B 	B 	0.72875 0.99624 0.20796 0.18500
H 	H 	0.71810 0.93930 0.27980 -0.10200
B 	B 	0.84825 0.02721 0.13282 -0.38200
H 	H 	0.91780 0.99110 0.15530 0.05100
B 	B 	0.85394 0.06181 0.00908 -0.45900
H 	H 	0.92700 0.04910 0.94940 0.08200
B 	B 	0.73667 0.05112 0.00952 0.16100
H 	H 	0.73140 0.03050 0.95100 -0.08400
C 	C 	0.66551 0.01584 0.12996 -1.01000
B 	B 	0.79398 0.96549 0.09682 0.95700
H 	H 	0.82700 0.88840 0.09540 -0.31500
C 	C 	0.65361 0.29725 0.10210 0.40500
H 	H 	0.70660 0.33600 0.05530 -0.09000
O 	O 	0.63141 0.30298 0.19610 -0.46700
H 	H 	0.65190 0.35040 0.19190 0.27800
C 	C 	0.55877 0.33885 0.07211 -0.10900
C 	C 	0.46298 0.33529 0.14119 -0.03000
H 	H 	0.45530 0.31210 0.20830 0.04700
C 	C 	0.37905 0.36581 0.11117 0.01400
H 	H 	0.31400 0.36210 0.15900 0.02200
N 	N 	0.38519 0.40065 0.01705 -0.22200
C 	C 	0.47699 0.40908 0.95098 0.03500
H 	H 	0.48200 0.43670 0.88450 0.01100
C 	C 	0.56522 0.37946 0.97490 -0.01800
H 	H 	0.62900 0.38670 0.92580 0.03700
C 	C 	0.58487 0.95476 0.16402 0.92300
H 	H 	0.56320 0.93240 0.23650 -0.59200
C 	C 	0.62440 0.86399 0.13073 -0.31000
C 	C 	0.66790 0.77749 0.18547 0.10600
H 	H 	0.67580 0.77480 0.24330 -0.01300
C 	C 	0.69981 0.69505 0.15521 -0.04700
H 	H 	0.72980 0.63650 0.19340 0.04600
N 	N 	0.69043 0.69372 0.07475 -0.18000
C 	C 	0.64813 0.77793 0.02249 -0.09000
H 	H 	0.64080 0.77880 0.96500 0.05800
C 	C 	0.61469 0.86322 0.04757 0.12200
H 	H 	0.58530 0.92090 0.00800 -0.02800
O 	O 	0.19910 0.54169 0.04097 -0.43600
C 	C 	0.10753 0.56853 0.08914 0.37400
O 	O 	0.02987 0.55862 0.08246 -0.43400
C 	C 	0.09274 0.61697 0.16194 -0.11300
C 	C 	0.01219 0.69466 0.17849 -0.00600
H 	H 	0.96220 0.71400 0.14790 0.05500
C 	C 	0.00504 0.74391 0.23993 -0.14200
H 	H 	0.95140 0.79840 0.24920 0.07900
C 	C 	0.07584 0.71422 0.28813 0.04400
C 	C 	0.15334 0.63315 0.27500 -0.11200
H 	H 	0.19980 0.61000 0.31020 0.06400
C 	C 	0.16284 0.58632 0.21096 0.03000
H 	H 	0.21750 0.53290 0.20040 0.02300
C 	C 	0.07360 0.77040 0.34800 0.01900
C 	C 	0.06146 0.87092 0.31164 -0.09700
H 	H 	0.04830 0.90280 0.25180 0.04100
C 	C 	0.06830 0.92585 0.36159 0.02500
C 	C 	0.08578 0.87851 0.45038 -0.10000
H 	H 	0.08970 0.91520 0.48540 0.05700
C 	C 	0.09758 0.77754 0.48840 0.03000
C 	C 	0.09167 0.72463 0.43634 -0.09800
H 	H 	0.10010 0.65610 0.46160 0.05900
C 	C 	0.12157 0.72403 0.57990 0.03400
C 	C 	0.07722 0.64498 0.64449 -0.09800
H 	H 	0.02740 0.62930 0.63210 0.05700
C 	C 	0.10464 0.58898 0.72635 0.02700
H 	H 	0.07300 0.53600 0.77010 0.02800
C 	C 	0.17889 0.61060 0.74448 -0.11800
C 	C 	0.22264 0.69013 0.68132 0.03100
H 	H 	0.27290 0.70550 0.69350 0.02800
C 	C 	0.19306 0.74699 0.60064 -0.09900
H 	H 	0.22180 0.80220 0.55900 0.05900
C 	C 	0.21059 0.54630 0.82983 0.33900
O 	O 	0.15237 0.49167 0.89884 -0.50400
O 	O 	0.29652 0.54042 0.83439 -0.39300
C 	C 	0.06634 0.03093 0.31229 0.03600
C 	C 	0.13258 0.07645 0.31521 -0.10500
H 	H 	0.17040 0.04380 0.35890 0.05500
C 	C 	0.14377 0.16889 0.25496 0.02700
H 	H 	0.19090 0.19840 0.25610 0.02400
C 	C 	0.08660 0.21901 0.19276 -0.10900
C 	C 	0.01503 0.17698 0.19452 -0.00800
H 	H 	0.97240 0.21230 0.15560 0.06000
C 	C 	0.00573 0.08363 0.25301 -0.14100
H 	H 	0.95740 0.05490 0.25290 0.07800
C 	C 	0.10384 0.31567 0.12138 0.36800
O 	O 	0.18199 0.34264 0.10957 -0.44000
O 	O 	0.04096 0.36126 0.07695 -0.44900
H 	H 	0.53010 0.99650 0.13550 -0.71100
O 	O 	0.54430 0.93730 0.25850 0.33600
H 	H 	0.50180 0.90200 0.27960 0.00400
C 	C 	0.30370 0.81045 0.89850 -0.79400
Co	Co	0.74624 0.56890 0.02014 1.15800
O 	O 	0.50260 0.98692 0.86080 0.48800
H 	H 	0.55110 0.01620 0.82920 -0.10000
B 	B 	0.36630 0.89807 0.81150 0.69200
H 	H 	0.43960 0.88380 0.75260 -0.23700
B 	B 	0.25017 0.88862 0.81074 0.08000
H 	H 	0.24610 0.86790 0.75170 -0.05900
B 	B 	0.17336 0.84850 0.93345 0.96400
H 	H 	0.11860 0.80110 0.95520 -0.30800
B 	B 	0.24264 0.83331 0.00926 -0.07200
H 	H 	0.23390 0.77570 0.08060 -0.02300
B 	B 	0.36094 0.86580 0.93378 0.78800
H 	H 	0.43100 0.83070 0.95540 -0.26100
B 	B 	0.27125 0.00376 0.79204 0.31000
H 	H 	0.28190 0.06070 0.72020 -0.14200
B 	B 	0.15175 0.97279 0.86718 -0.40700
H 	H 	0.08220 0.00890 0.84470 0.03700
B 	B 	0.14606 0.93819 0.99092 -0.27600
H 	H 	0.07300 0.95090 0.05060 -0.00000
B 	B 	0.26333 0.94888 0.99048 0.32800
H 	H 	0.26860 0.96950 0.04900 -0.14700
C 	C 	0.33449 0.98416 0.87004 -1.01200
B 	B 	0.20602 0.03451 0.90318 0.76500
H 	H 	0.17300 0.11160 0.90460 -0.26400
C 	C 	0.34639 0.70275 0.89790 0.35900
H 	H 	0.29340 0.66400 0.94470 -0.06600
O 	O 	0.36859 0.69702 0.80390 -0.45500
H 	H 	0.34810 0.64960 0.80810 0.27500
C 	C 	0.44123 0.66115 0.92789 -0.05300
C 	C 	0.53702 0.66471 0.85881 -0.05500
H 	H 	0.54470 0.68790 0.79170 0.05800
C 	C 	0.62095 0.63419 0.88883 0.03100
H 	H 	0.68600 0.63790 0.84100 0.02000
N 	N 	0.61481 0.59935 0.98295 -0.20600
C 	C 	0.52301 0.59092 0.04902 0.02300
H 	H 	0.51800 0.56330 0.11550 0.01100
C 	C 	0.43478 0.62054 0.02510 -0.07100
H 	H 	0.37100 0.61330 0.07420 0.04900
C 	C 	0.41513 0.04524 0.83598 0.89000
H 	H 	0.43680 0.06760 0.76350 -0.59600
C 	C 	0.37560 0.13601 0.86927 -0.28000
C 	C 	0.33210 0.22251 0.81453 0.08500
H 	H 	0.32420 0.22520 0.75670 -0.00800
C 	C 	0.30019 0.30495 0.84479 -0.03600
H 	H 	0.27020 0.36350 0.80660 0.04100
N 	N 	0.30957 0.30628 0.92525 -0.19000
C 	C 	0.35187 0.22207 0.97751 -0.01500
H 	H 	0.35920 0.22120 0.03500 0.01300
C 	C 	0.38531 0.13678 0.95243 0.07700
H 	H 	0.41470 0.07910 0.99200 -0.00400
O 	O 	0.80090 0.45831 0.95903 -0.41800
C 	C 	0.89247 0.43147 0.91086 0.38100
O 	O 	0.97013 0.44138 0.91754 -0.39300
C 	C 	0.90726 0.38303 0.83806 -0.12100
C 	C 	0.98781 0.30534 0.82151 0.06700
H 	H 	0.03780 0.28600 0.85210 -0.00800
C 	C 	0.99496 0.25609 0.76007 -0.05600
H 	H 	0.04860 0.20160 0.75080 0.00900
C 	C 	0.92416 0.28578 0.71187 0.01500
C 	C 	0.84666 0.36685 0.72500 -0.09400
H 	H 	0.80020 0.39000 0.68980 0.06100
C 	C 	0.83716 0.41368 0.78904 0.03300
H 	H 	0.78250 0.46710 0.79960 0.02700
C 	C 	0.92640 0.22960 0.65200 0.05200
C 	C 	0.93854 0.12908 0.68836 -0.11100
H 	H 	0.95170 0.09720 0.74820 0.06100
C 	C 	0.93170 0.07415 0.63841 0.04700
C 	C 	0.91422 0.12149 0.54962 -0.11000
H 	H 	0.91030 0.08480 0.51460 0.07200
C 	C 	0.90242 0.22246 0.51160 0.04900
C 	C 	0.90833 0.27537 0.56366 -0.11300
H 	H 	0.89990 0.34390 0.53840 0.07200
C 	C 	0.87843 0.27597 0.42010 0.03500
C 	C 	0.92278 0.35502 0.35551 -0.08600
H 	H 	0.97260 0.37070 0.36790 0.07000
C 	C 	0.89536 0.41102 0.27365 0.02900
H 	H 	0.92700 0.46400 0.22990 0.04600
C 	C 	0.82111 0.38940 0.25552 -0.11000
C 	C 	0.77736 0.30987 0.31868 0.03000
H 	H 	0.72710 0.29450 0.30650 0.02900
C 	C 	0.80694 0.25301 0.39936 -0.09000
H 	H 	0.77820 0.19780 0.44100 0.05900
C 	C 	0.78941 0.45370 0.17017 0.33900
O 	O 	0.84763 0.50833 0.10116 -0.50000
O 	O 	0.70348 0.45958 0.16561 -0.39700
C 	C 	0.93366 0.96907 0.68771 0.02500
C 	C 	0.86742 0.92355 0.68479 -0.09500
H 	H 	0.82960 0.95620 0.64110 0.06000
C 	C 	0.85623 0.83111 0.74504 0.03900
H 	H 	0.80910 0.80160 0.74390 0.02700
C 	C 	0.91340 0.78099 0.80724 -0.12000
C 	C 	0.98497 0.82302 0.80548 0.07200
H 	H 	0.02760 0.78770 0.84440 -0.00400
C 	C 	0.99427 0.91637 0.74699 -0.06300
H 	H 	0.04260 0.94510 0.74710 0.01500
C 	C 	0.89616 0.68433 0.87862 0.37900
O 	O 	0.81801 0.65736 0.89043 -0.42800
O 	O 	0.95904 0.63874 0.92305 -0.40700
H 	H 	0.46990 0.00350 0.86450 -0.66900
O 	O 	0.45570 0.06270 0.74150 0.35100
H 	H 	0.49820 0.09800 0.72040 -0.00200
Co	Co	-0.00000 0.50000 -0.00000 1.18300
