data_crystal

_cell_length_a 14.70300
_cell_length_b 15.28760
_cell_length_c 15.70140
_cell_angle_alpha 67.49900
_cell_angle_beta  64.54700
_cell_angle_gamma 69.96900

_symmetry_space_group_name_	'P 1'
_symmetry_space_group_name_H-M	'P 1'

loop_
_symmetry_equiv_pos_as_xyz
  x,y,z

loop_
_atom_site_label
_atom_site_type_symbol
_atom_site_fract_x
_atom_site_fract_y
_atom_site_fract_z
_atom_site_charge
Co	Co	0.74141 0.07227 0.02417 1.14600
O 	O 	0.84474 0.01259 0.10238 -0.55200
O 	O 	0.96004 0.13849 0.92080 -0.40900
O 	O 	0.70091 0.96153 0.17003 -0.39000
O 	O 	0.79898 0.96172 0.96066 -0.40400
O 	O 	0.97053 0.93991 0.91932 -0.38000
O 	O 	0.81451 0.16121 0.89436 -0.43400
N 	N 	0.32060 0.80507 0.91538 -0.18300
N 	N 	0.61041 0.10311 0.98695 -0.21200
C 	C 	0.78760 0.95710 0.17176 0.39500
O 	O 	0.36770 0.19393 0.80610 -0.45800
H 	H 	0.34540 0.14690 0.81310 0.27200
C 	C 	0.88150 0.77798 0.41917 0.03900
C 	C 	0.92310 0.85960 0.35493 -0.08700
H 	H 	0.97210 0.87630 0.36710 0.07600
C 	C 	0.89510 0.18646 0.87915 0.37900
C 	C 	0.89190 0.93243 0.91243 0.37900
C 	C 	0.90880 0.88374 0.83856 -0.11100
C 	C 	0.89370 0.91569 0.27454 0.03900
H 	H 	0.92290 0.97020 0.23130 0.05900
C 	C 	0.91170 0.28318 0.80763 -0.12000
C 	C 	0.90710 0.72331 0.51005 0.05100
C 	C 	0.91620 0.62318 0.54898 -0.11200
H 	H 	0.91090 0.58710 0.51430 0.07200
C 	C 	0.98600 0.32339 0.80340 0.06900
H 	H 	0.02980 0.28680 0.84090 -0.00300
C 	C 	0.91450 0.77584 0.56203 -0.11300
H 	H 	0.90770 0.84410 0.53630 0.07600
C 	C 	0.83990 0.91614 0.78849 0.03100
H 	H 	0.78520 0.97090 0.79850 0.03800
C 	C 	0.85120 0.86831 0.72374 -0.08900
H 	H 	0.80570 0.89220 0.68760 0.06500
C 	C 	0.94090 0.62957 0.68820 -0.11400
H 	H 	0.95280 0.59760 0.74870 0.06100
C 	C 	0.35680 0.71900 0.97020 -0.03200
H 	H 	0.36010 0.71650 0.03020 0.01900
C 	C 	0.93170 0.72940 0.65086 0.05400
C 	C 	0.82100 0.89219 0.25685 -0.11900
C 	C 	0.61890 0.13590 0.89160 0.02800
H 	H 	0.68550 0.13820 0.84320 0.01300
C 	C 	0.81170 0.75350 0.39873 -0.09300
H 	H 	0.78500 0.69720 0.43990 0.06100
C 	C 	0.93290 0.47069 0.68873 0.01900
C 	C 	0.99800 0.75440 0.76080 -0.05900
H 	H 	0.05170 0.69870 0.75230 0.01400
C 	C 	0.78060 0.81080 0.31850 0.03900
H 	H 	0.73180 0.79420 0.30600 0.02800
C 	C 	0.98920 0.80420 0.82280 0.05600
H 	H 	0.03830 0.78380 0.85440 0.00300
C 	C 	0.99620 0.41640 0.74480 -0.06000
H 	H 	0.04660 0.44350 0.74280 0.01200
C 	C 	0.92870 0.78563 0.71139 0.01700
C 	C 	0.85160 0.33510 0.74880 0.03700
H 	H 	0.80250 0.30720 0.74960 0.02500
C 	C 	0.38950 0.63380 0.94400 0.10100
H 	H 	0.41350 0.57460 0.98600 -0.01300
C 	C 	0.93300 0.57524 0.63856 0.05100
C 	C 	0.43870 0.16380 0.93010 -0.05200
C 	C 	0.42940 0.12500 0.02830 -0.08000
H 	H 	0.36400 0.11810 0.07760 0.04700
C 	C 	0.53570 0.16610 0.86130 -0.06000
H 	H 	0.54510 0.18840 0.79330 0.05400
C 	C 	0.86310 0.42730 0.68900 -0.09400
H 	H 	0.82290 0.46170 0.64760 0.05800
C 	C 	0.30330 0.31430 0.89560 -0.80500
C 	C 	0.32020 0.80640 0.83000 -0.04800
H 	H 	0.29720 0.86680 0.78880 0.05400
C 	C 	0.34050 0.48680 0.85960 -1.05900
C 	C 	0.38720 0.63520 0.85560 -0.32700
C 	C 	0.34400 0.20490 0.89920 0.35900
H 	H 	0.28880 0.16890 0.94840 -0.06700
C 	C 	0.51690 0.09630 0.05360 0.01800
H 	H 	0.50990 0.07080 0.12110 0.00000
O 	O 	0.51140 0.48140 0.85090 0.48700
H 	H 	0.51660 0.49940 0.89260 -0.05200
C 	C 	0.42440 0.54470 0.82190 0.96600
H 	H 	0.44830 0.56500 0.74860 -0.58100
C 	C 	0.35160 0.72420 0.79830 0.11500
H 	H 	0.34860 0.72890 0.73740 -0.01800
B 	B 	0.37160 0.39640 0.80550 0.65600
H 	H 	0.44690 0.37730 0.74760 -0.22800
B 	B 	0.36180 0.37010 0.92890 0.84000
H 	H 	0.43080 0.33420 0.95240 -0.27800
B 	B 	0.25400 0.39000 0.80520 0.12600
H 	H 	0.25070 0.36660 0.74730 -0.07300
B 	B 	0.23930 0.34300 0.00560 -0.06900
H 	H 	0.22750 0.28820 0.07920 -0.02500
B 	B 	0.26350 0.45850 0.98130 0.25700
H 	H 	0.26700 0.48200 0.03900 -0.13000
B 	B 	0.21210 0.54230 0.88960 0.83200
H 	H 	0.18170 0.62090 0.88700 -0.28000
B 	B 	0.27940 0.50350 0.78130 0.33900
H 	H 	0.29410 0.55670 0.70670 -0.15200
B 	B 	0.17130 0.35690 0.92940 0.96300
H 	H 	0.11400 0.31180 0.95330 -0.31100
B 	B 	0.15590 0.48010 0.85660 -0.49600
H 	H 	0.08780 0.51790 0.83190 0.06900
B 	B 	0.14440 0.44990 0.98300 -0.24100
H 	H 	0.06910 0.46670 0.04200 -0.01200
H 	H 	0.48390 0.50200 0.84340 -0.69600
O 	O 	0.45560 0.56930 0.71990 0.33000
H 	H 	0.51750 0.54140 0.69800 -0.00700
Co	Co	0.25859 0.92773 0.97583 1.18300
O 	O 	0.15526 0.98741 0.89762 -0.45800
O 	O 	0.03996 0.86151 0.07920 -0.43000
O 	O 	0.29909 0.03847 0.82997 -0.39900
O 	O 	0.20102 0.03828 0.03934 -0.45800
O 	O 	0.02947 0.06009 0.08068 -0.45000
O 	O 	0.18549 0.83879 0.10564 -0.43000
N 	N 	0.67940 0.19493 0.08462 -0.18000
N 	N 	0.38959 0.89689 0.01305 -0.21400
C 	C 	0.21240 0.04290 0.82824 0.29100
O 	O 	0.63230 0.80607 0.19390 -0.46300
H 	H 	0.65460 0.85310 0.18690 0.28200
C 	C 	0.11850 0.22202 0.58083 0.02800
C 	C 	0.07690 0.14040 0.64507 -0.09300
H 	H 	0.02790 0.12370 0.63290 0.04800
C 	C 	0.10490 0.81354 0.12085 0.36800
C 	C 	0.10810 0.06757 0.08757 0.37700
C 	C 	0.09120 0.11626 0.16144 -0.12400
C 	C 	0.10630 0.08431 0.72546 0.01300
H 	H 	0.07710 0.02980 0.76870 0.01900
C 	C 	0.08830 0.71682 0.19237 -0.11200
C 	C 	0.09290 0.27669 0.48995 0.02700
C 	C 	0.08380 0.37682 0.45102 -0.09700
H 	H 	0.08910 0.41290 0.48570 0.05500
C 	C 	0.01400 0.67661 0.19660 0.00100
H 	H 	0.97020 0.71320 0.15910 0.05400
C 	C 	0.08550 0.22416 0.43797 -0.09500
H 	H 	0.09230 0.15590 0.46370 0.05200
C 	C 	0.16010 0.08386 0.21151 0.03300
H 	H 	0.21480 0.02910 0.20150 0.01000
C 	C 	0.14880 0.13169 0.27626 -0.11900
H 	H 	0.19430 0.10780 0.31240 0.06000
C 	C 	0.05910 0.37043 0.31180 -0.09200
H 	H 	0.04720 0.40240 0.25130 0.03900
C 	C 	0.64320 0.28100 0.02980 -0.09600
H 	H 	0.63990 0.28350 0.96980 0.05900
C 	C 	0.06830 0.27060 0.34914 0.01300
C 	C 	0.17900 0.10781 0.74315 -0.10300
C 	C 	0.38110 0.86410 0.10840 0.02400
H 	H 	0.31450 0.86180 0.15680 0.02800
C 	C 	0.18830 0.24650 0.60127 -0.09400
H 	H 	0.21500 0.30280 0.56010 0.05500
C 	C 	0.06710 0.52931 0.31127 0.04400
C 	C 	0.00200 0.24560 0.23920 -0.14900
H 	H 	0.94830 0.30130 0.24770 0.07800
C 	C 	0.21940 0.18920 0.68150 0.01800
H 	H 	0.26820 0.20580 0.69400 0.03100
C 	C 	0.01080 0.19580 0.17720 -0.00300
H 	H 	0.96170 0.21620 0.14560 0.05300
C 	C 	0.00380 0.58360 0.25520 -0.14100
H 	H 	0.95340 0.55650 0.25720 0.07600
C 	C 	0.07130 0.21437 0.28861 0.04700
C 	C 	0.14840 0.66490 0.25120 0.03200
H 	H 	0.19750 0.69280 0.25040 0.02400
C 	C 	0.61050 0.36620 0.05600 0.13100
H 	H 	0.58650 0.42540 0.01400 -0.03300
C 	C 	0.06700 0.42476 0.36144 0.01500
C 	C 	0.56130 0.83620 0.06990 -0.09500
C 	C 	0.57060 0.87500 0.97170 -0.02300
H 	H 	0.63600 0.88190 0.92240 0.04300
C 	C 	0.46430 0.83390 0.13870 -0.03000
H 	H 	0.45490 0.81160 0.20670 0.05200
C 	C 	0.13690 0.57270 0.31100 -0.11000
H 	H 	0.17710 0.53830 0.35240 0.05900
C 	C 	0.69670 0.68570 0.10440 -0.87600
C 	C 	0.67980 0.19360 0.17000 -0.05300
H 	H 	0.70280 0.13320 0.21120 0.03700
C 	C 	0.65950 0.51320 0.14040 -1.02100
C 	C 	0.61280 0.36480 0.14440 -0.34000
C 	C 	0.65600 0.79510 0.10080 0.39800
H 	H 	0.71120 0.83110 0.05160 -0.08600
C 	C 	0.48310 0.90370 0.94640 0.03900
H 	H 	0.49010 0.92920 0.87890 0.01800
O 	O 	0.48860 0.51860 0.14910 0.49400
H 	H 	0.48340 0.50060 0.10740 -0.05900
C 	C 	0.57560 0.45530 0.17810 0.96000
H 	H 	0.55170 0.43500 0.25140 -0.58400
C 	C 	0.64840 0.27580 0.20170 0.12000
H 	H 	0.65140 0.27110 0.26260 -0.02500
B 	B 	0.62840 0.60360 0.19450 0.76700
H 	H 	0.55310 0.62270 0.25240 -0.25800
B 	B 	0.63820 0.62990 0.07110 0.72200
H 	H 	0.56920 0.66580 0.04760 -0.25400
B 	B 	0.74600 0.61000 0.19480 0.17200
H 	H 	0.74930 0.63340 0.25270 -0.08300
B 	B 	0.76070 0.65700 0.99440 0.22900
H 	H 	0.77250 0.71180 0.92080 -0.10300
B 	B 	0.73650 0.54150 0.01870 0.13000
H 	H 	0.73300 0.51800 0.96100 -0.07600
B 	B 	0.78790 0.45770 0.11040 0.95900
H 	H 	0.81830 0.37910 0.11300 -0.31600
B 	B 	0.72060 0.49650 0.21870 0.16700
H 	H 	0.70590 0.44330 0.29330 -0.10400
B 	B 	0.82870 0.64310 0.07060 0.87000
H 	H 	0.88600 0.68820 0.04670 -0.28500
B 	B 	0.84410 0.51990 0.14340 -0.38900
H 	H 	0.91220 0.48210 0.16810 0.05300
B 	B 	0.85560 0.55010 0.01700 -0.41700
H 	H 	0.93090 0.53330 0.95800 0.06800
H 	H 	0.51610 0.49800 0.15660 -0.70000
O 	O 	0.54440 0.43070 0.28010 0.33500
H 	H 	0.48250 0.45860 0.30200 -0.01100
Co	Co	-0.00000 0.00000 -0.00000 1.16500
