data_crystal

_cell_length_a 11.63640
_cell_length_b 15.58500
_cell_length_c 18.82300
_cell_angle_alpha 86.42300
_cell_angle_beta  82.86900
_cell_angle_gamma 89.72200

_symmetry_space_group_name_	'P 1'
_symmetry_space_group_name_H-M	'P 1'

loop_
_symmetry_equiv_pos_as_xyz
  x,y,z

loop_
_atom_site_label
_atom_site_type_symbol
_atom_site_fract_x
_atom_site_fract_y
_atom_site_fract_z
_atom_site_charge
Zn	Zn	0.54991 0.74924 0.92986 1.21300
C 	C 	0.42320 0.71630 0.30840 -1.21600
Zn	Zn	0.57990 0.75647 0.77332 1.21400
B 	B 	0.45920 0.75950 0.38510 0.81100
H 	H 	0.44610 0.82780 0.39940 -0.29300
B 	B 	0.56400 0.73070 0.31380 0.87700
H 	H 	0.61880 0.78060 0.28030 -0.31100
B 	B 	0.51760 0.63750 0.27670 0.18100
H 	H 	0.54140 0.62460 0.21880 -0.09200
B 	B 	0.38200 0.61290 0.32180 1.09300
H 	H 	0.31440 0.58390 0.29320 -0.36100
B 	B 	0.34360 0.68900 0.38850 0.25300
H 	H 	0.25270 0.71080 0.40410 -0.12800
C 	C 	0.57370 0.70020 0.40250 -0.94300
B 	B 	0.61930 0.62750 0.33860 0.06700
H 	H 	0.71150 0.60870 0.32260 -0.06600
B 	B 	0.50350 0.55480 0.34430 -0.45800
H 	H 	0.51790 0.48600 0.33180 0.07800
B 	B 	0.39650 0.58310 0.41240 -0.49500
H 	H 	0.33910 0.53330 0.44420 0.08600
B 	B 	0.44500 0.67310 0.45110 0.07000
H 	H 	0.42150 0.68280 0.50960 -0.06900
B 	B 	0.54370 0.59470 0.42400 1.09400
H 	H 	0.58670 0.55430 0.46430 -0.36800
C 	C 	0.36290 0.78280 0.25730 1.36500
H 	H 	0.37500 0.84310 0.27030 -1.40000
O 	O 	0.24570 0.76330 0.26460 0.09600
H 	H 	0.23600 0.71080 0.27670 0.03500
C 	C 	0.41260 0.77150 0.17920 -0.48100
C 	C 	0.48910 0.83040 0.14420 0.23500
H 	H 	0.51380 0.87770 0.16800 -0.04000
C 	C 	0.52970 0.81970 0.07360 -0.11300
H 	H 	0.58190 0.86160 0.04920 0.06600
N 	N 	0.49990 0.75360 0.03682 -0.18700
C 	C 	0.42340 0.69710 0.07040 -0.09600
H 	H 	0.39890 0.65110 0.04500 0.06000
C 	C 	0.37800 0.70370 0.14230 0.20000
H 	H 	0.32420 0.66220 0.16550 -0.05300
C 	C 	0.67560 0.74230 0.43500 0.39900
H 	H 	0.74670 0.70670 0.42450 -0.09700
O 	O 	0.69690 0.82510 0.40220 -0.44600
H 	H 	0.69640 0.82360 0.35770 0.21800
C 	C 	0.64840 0.74650 0.51630 -0.07500
C 	C 	0.59550 0.81460 0.54660 -0.04800
H 	H 	0.57100 0.86150 0.51760 0.05100
C 	C 	0.57720 0.81530 0.62050 0.03800
H 	H 	0.54010 0.86420 0.64060 0.00500
N 	N 	0.60740 0.75350 0.66490 -0.24000
C 	C 	0.66180 0.68640 0.63400 0.02000
H 	H 	0.68600 0.64020 0.66400 0.00900
C 	C 	0.68360 0.68210 0.56080 -0.04600
H 	H 	0.72350 0.63390 0.54120 0.03000
O 	O 	0.46290 0.64198 0.91232 -0.46100
C 	C 	0.42110 0.62880 0.85470 0.38300
O 	O 	0.44080 0.67483 0.79698 -0.46000
C 	C 	0.34490 0.55200 0.85590 -0.13400
C 	C 	0.34830 0.48510 0.90840 0.05400
H 	H 	0.39860 0.48850 0.94420 0.02600
C 	C 	0.27800 0.41380 0.90810 -0.12800
H 	H 	0.28260 0.36740 0.94280 0.07900
C 	C 	0.20050 0.40890 0.85760 0.06500
C 	C 	0.19770 0.47630 0.80550 -0.13100
H 	H 	0.14510 0.47430 0.77090 0.07100
C 	C 	0.27090 0.54580 0.80410 0.05100
H 	H 	0.27060 0.59010 0.76710 0.02000
C 	C 	0.12890 0.33030 0.85660 -0.01900
C 	C 	0.18310 0.25070 0.85420 -0.05800
H 	H 	0.26460 0.24860 0.85440 0.04400
C 	C 	0.12400 0.17400 0.85150 -0.01500
C 	C 	0.19160 0.09280 0.84860 0.06700
C 	C 	0.25700 0.07200 0.78490 -0.12300
H 	H 	0.25390 0.10830 0.74270 0.06300
C 	C 	0.32660 0.99920 0.78170 0.05000
H 	H 	0.36960 0.98560 0.73760 0.01600
C 	C 	0.33300 0.94680 0.84320 -0.12800
C 	C 	0.26620 0.96550 0.90620 0.05500
H 	H 	0.26820 0.92850 0.94810 0.02500
C 	C 	0.19620 0.03810 0.90890 -0.12400
H 	H 	0.15090 0.05030 0.95260 0.07900
C 	C 	0.41310 0.87120 0.84200 0.38600
O 	O 	0.47480 0.85924 0.78310 -0.46200
O 	O 	0.41440 0.82481 0.89887 -0.45400
C 	C 	0.00180 0.17630 0.85290 -0.01200
C 	C 	0.93060 0.09830 0.85200 0.07100
C 	C 	0.95550 0.03620 0.80210 -0.12300
H 	H 	0.02310 0.04230 0.76820 0.07500
C 	C 	0.88400 0.96640 0.80100 0.05500
H 	H 	0.90160 0.92610 0.76540 0.02400
C 	C 	0.78610 0.95360 0.85130 -0.12900
C 	C 	0.75970 0.01620 0.90110 0.05900
H 	H 	0.69300 0.00970 0.93560 0.02600
C 	C 	0.83000 0.08720 0.90030 -0.12300
H 	H 	0.80930 0.12980 0.93350 0.07800
C 	C 	0.70870 0.87760 0.85180 0.39000
O 	O 	0.71060 0.83861 0.79478 -0.45000
O 	O 	0.64730 0.85682 0.91006 -0.46600
C 	C 	0.94770 0.25610 0.85450 -0.06000
H 	H 	0.86620 0.25830 0.85430 0.05400
C 	C 	0.00780 0.33300 0.85650 -0.01200
C 	C 	0.94030 0.41430 0.85720 0.06600
C 	C 	0.87660 0.43630 0.80130 -0.12500
H 	H 	0.88010 0.40070 0.76190 0.06600
C 	C 	0.80860 0.50830 0.80160 0.05600
H 	H 	0.76700 0.52220 0.76210 0.02300
C 	C 	0.79920 0.56140 0.85850 -0.12900
C 	C 	0.86410 0.54020 0.91500 0.05200
H 	H 	0.86010 0.57570 0.95450 0.02600
C 	C 	0.93410 0.46790 0.91380 -0.11900
H 	H 	0.97840 0.45490 0.95220 0.07400
C 	C 	0.72110 0.63790 0.85940 0.38700
O 	O 	0.68140 0.65708 0.80059 -0.47000
O 	O 	0.69840 0.67608 0.91623 -0.45200
H 	H 	0.27730 0.77260 0.26370 -0.47000
O 	O 	0.38860 0.87650 0.27380 1.36300
H 	H 	0.40080 0.90700 0.23520 -0.38200
Zn	Zn	0.45009 0.25076 0.07014 1.21200
C 	C 	0.57680 0.28370 0.69160 -1.21700
Zn	Zn	0.42010 0.24353 0.22668 1.21300
B 	B 	0.54080 0.24050 0.61490 0.81000
H 	H 	0.55390 0.17220 0.60060 -0.29300
B 	B 	0.43600 0.26930 0.68620 0.87700
H 	H 	0.38120 0.21940 0.71970 -0.31100
B 	B 	0.48240 0.36250 0.72330 0.18100
H 	H 	0.45860 0.37540 0.78120 -0.09200
B 	B 	0.61800 0.38710 0.67820 1.09300
H 	H 	0.68560 0.41610 0.70680 -0.36100
B 	B 	0.65640 0.31100 0.61150 0.25300
H 	H 	0.74730 0.28920 0.59590 -0.12800
C 	C 	0.42630 0.29980 0.59750 -0.94300
B 	B 	0.38070 0.37250 0.66140 0.06700
H 	H 	0.28850 0.39130 0.67740 -0.06600
B 	B 	0.49650 0.44520 0.65570 -0.45800
H 	H 	0.48210 0.51400 0.66820 0.07800
B 	B 	0.60350 0.41690 0.58760 -0.49500
H 	H 	0.66090 0.46670 0.55580 0.08600
B 	B 	0.55500 0.32690 0.54890 0.07000
H 	H 	0.57850 0.31720 0.49040 -0.06900
B 	B 	0.45630 0.40530 0.57600 1.09400
H 	H 	0.41330 0.44570 0.53570 -0.36800
C 	C 	0.63710 0.21720 0.74270 1.36500
H 	H 	0.62500 0.15690 0.72970 -1.40000
O 	O 	0.75430 0.23670 0.73540 0.09600
H 	H 	0.76400 0.28920 0.72330 0.03500
C 	C 	0.58740 0.22850 0.82080 -0.48100
C 	C 	0.51090 0.16960 0.85580 0.23500
H 	H 	0.48620 0.12230 0.83200 -0.04000
C 	C 	0.47030 0.18030 0.92640 -0.11300
H 	H 	0.41810 0.13840 0.95080 0.06600
N 	N 	0.50010 0.24640 0.96318 -0.18700
C 	C 	0.57660 0.30290 0.92960 -0.09600
H 	H 	0.60110 0.34890 0.95500 0.06000
C 	C 	0.62200 0.29630 0.85770 0.20000
H 	H 	0.67580 0.33780 0.83450 -0.05300
C 	C 	0.32440 0.25770 0.56500 0.39900
H 	H 	0.25330 0.29330 0.57550 -0.09700
O 	O 	0.30310 0.17490 0.59780 -0.44600
H 	H 	0.30360 0.17640 0.64230 0.21800
C 	C 	0.35160 0.25350 0.48370 -0.07500
C 	C 	0.40450 0.18540 0.45340 -0.04800
H 	H 	0.42900 0.13850 0.48240 0.05100
C 	C 	0.42280 0.18470 0.37950 0.03800
H 	H 	0.45990 0.13580 0.35940 0.00500
N 	N 	0.39260 0.24650 0.33510 -0.24000
C 	C 	0.33820 0.31360 0.36600 0.02000
H 	H 	0.31400 0.35980 0.33600 0.00900
C 	C 	0.31640 0.31790 0.43920 -0.04600
H 	H 	0.27650 0.36610 0.45880 0.03000
O 	O 	0.53710 0.35802 0.08768 -0.46100
C 	C 	0.57890 0.37120 0.14530 0.38300
O 	O 	0.55920 0.32517 0.20302 -0.46000
C 	C 	0.65510 0.44800 0.14410 -0.13400
C 	C 	0.65170 0.51490 0.09160 0.05400
H 	H 	0.60140 0.51150 0.05580 0.02600
C 	C 	0.72200 0.58620 0.09190 -0.12800
H 	H 	0.71740 0.63260 0.05720 0.07900
C 	C 	0.79950 0.59110 0.14240 0.06500
C 	C 	0.80230 0.52370 0.19450 -0.13100
H 	H 	0.85490 0.52570 0.22910 0.07100
C 	C 	0.72910 0.45420 0.19590 0.05100
H 	H 	0.72940 0.40990 0.23290 0.02000
C 	C 	0.87110 0.66970 0.14340 -0.01900
C 	C 	0.81690 0.74930 0.14580 -0.05800
H 	H 	0.73540 0.75140 0.14560 0.04400
C 	C 	0.87600 0.82600 0.14850 -0.01500
C 	C 	0.80840 0.90720 0.15140 0.06700
C 	C 	0.74300 0.92800 0.21510 -0.12300
H 	H 	0.74610 0.89170 0.25730 0.06300
C 	C 	0.67340 0.00080 0.21830 0.05000
H 	H 	0.63040 0.01440 0.26240 0.01600
C 	C 	0.66700 0.05320 0.15680 -0.12800
C 	C 	0.73380 0.03450 0.09380 0.05500
H 	H 	0.73180 0.07150 0.05190 0.02500
C 	C 	0.80380 0.96190 0.09110 -0.12400
H 	H 	0.84910 0.94970 0.04740 0.07900
C 	C 	0.58690 0.12880 0.15800 0.38600
O 	O 	0.52520 0.14076 0.21690 -0.46200
O 	O 	0.58560 0.17519 0.10113 -0.45400
C 	C 	0.99820 0.82370 0.14710 -0.01200
C 	C 	0.06940 0.90170 0.14800 0.07100
C 	C 	0.04450 0.96380 0.19790 -0.12300
H 	H 	0.97690 0.95770 0.23180 0.07500
C 	C 	0.11600 0.03360 0.19900 0.05500
H 	H 	0.09840 0.07390 0.23460 0.02400
C 	C 	0.21390 0.04640 0.14870 -0.12900
C 	C 	0.24030 0.98380 0.09890 0.05900
H 	H 	0.30700 0.99030 0.06440 0.02600
C 	C 	0.17000 0.91280 0.09970 -0.12300
H 	H 	0.19070 0.87020 0.06650 0.07800
C 	C 	0.29130 0.12240 0.14820 0.39000
O 	O 	0.28940 0.16139 0.20522 -0.45000
O 	O 	0.35270 0.14318 0.08994 -0.46600
C 	C 	0.05230 0.74390 0.14550 -0.06000
H 	H 	0.13380 0.74170 0.14570 0.05400
C 	C 	0.99220 0.66700 0.14350 -0.01200
C 	C 	0.05970 0.58570 0.14280 0.06600
C 	C 	0.12340 0.56370 0.19870 -0.12500
H 	H 	0.11990 0.59930 0.23810 0.06600
C 	C 	0.19140 0.49170 0.19840 0.05600
H 	H 	0.23300 0.47780 0.23790 0.02300
C 	C 	0.20080 0.43860 0.14150 -0.12900
C 	C 	0.13590 0.45980 0.08500 0.05200
H 	H 	0.13990 0.42430 0.04550 0.02600
C 	C 	0.06590 0.53210 0.08620 -0.11900
H 	H 	0.02160 0.54510 0.04780 0.07400
C 	C 	0.27890 0.36210 0.14060 0.38700
O 	O 	0.31860 0.34292 0.19941 -0.47000
O 	O 	0.30160 0.32392 0.08377 -0.45200
H 	H 	0.72270 0.22740 0.73630 -0.47000
O 	O 	0.61140 0.12350 0.72620 1.36300
H 	H 	0.59920 0.09300 0.76480 -0.38200
