data_crystal

_cell_length_a 16.97510
_cell_length_b 10.96590
_cell_length_c 22.44200
_cell_angle_alpha 90.00000
_cell_angle_beta  109.71400
_cell_angle_gamma 90.00000

_symmetry_space_group_name_	'P 1'
_symmetry_space_group_name_H-M	'P 1'

loop_
_symmetry_equiv_pos_as_xyz
  x,y,z

loop_
_atom_site_label
_atom_site_type_symbol
_atom_site_fract_x
_atom_site_fract_y
_atom_site_fract_z
_atom_site_charge
Zn	Zn	0.19942 0.03070 0.28337 1.19600
Zn	Zn	0.07200 0.07541 0.13554 1.17500
O 	O 	0.20610 0.04690 0.37157 -0.49400
O 	O 	0.33560 0.10990 0.38801 -0.32800
O 	O 	0.11820 0.93740 0.55530 -0.43200
O 	O 	0.17830 0.03600 0.64348 -0.46200
O 	O 	0.44023 0.25600 0.68064 -0.54000
O 	O 	0.47907 0.30560 0.59860 -0.51200
O 	O 	0.07781 0.02560 0.22959 -0.73100
C 	C 	0.28650 0.09930 0.47556 -0.14000
C 	C 	0.22720 0.04810 0.49899 0.08200
H 	H 	0.18110 0.00690 0.47190 0.01400
C 	C 	0.23760 0.05900 0.56267 -0.14400
C 	C 	0.30520 0.12420 0.60272 0.09000
H 	H 	0.31110 0.13250 0.64530 0.01600
C 	C 	0.36340 0.17670 0.58013 -0.16400
C 	C 	0.35330 0.16390 0.51620 0.09100
H 	H 	0.39210 0.19930 0.50050 0.02700
C 	C 	0.27630 0.08600 0.40710 0.35800
C 	C 	0.17420 0.00670 0.58840 0.34400
C 	C 	0.43300 0.25340 0.62332 0.44400
C 	C 	0.26560 0.27950 0.26102 0.10800
H 	H 	0.30920 0.28300 0.29960 -0.01500
C 	C 	0.17900 0.32490 0.17190 0.10600
H 	H 	0.15020 0.36730 0.13500 -0.02900
N 	N 	0.15910 0.21510 0.18397 -0.23700
N 	N 	0.21610 0.18480 0.24158 -0.25800
N 	N 	0.24570 0.37070 0.21846 -0.28800
Zn	Zn	0.69942 0.53070 0.28337 1.19700
Zn	Zn	0.57200 0.57541 0.13554 1.19100
O 	O 	0.70610 0.54690 0.37157 -0.48500
O 	O 	0.83560 0.60990 0.38801 -0.31100
O 	O 	0.61820 0.43740 0.55530 -0.40400
O 	O 	0.67830 0.53600 0.64348 -0.45200
O 	O 	0.94023 0.75600 0.68064 -0.50000
O 	O 	0.97907 0.80560 0.59860 -0.46400
O 	O 	0.57781 0.52560 0.22959 -0.70300
C 	C 	0.78650 0.59930 0.47556 -0.12100
C 	C 	0.72720 0.54810 0.49899 0.06900
H 	H 	0.68110 0.50690 0.47190 0.02600
C 	C 	0.73760 0.55900 0.56267 -0.12500
C 	C 	0.80520 0.62420 0.60272 0.07700
H 	H 	0.81110 0.63250 0.64530 0.02600
C 	C 	0.86340 0.67670 0.58013 -0.14000
C 	C 	0.85330 0.66390 0.51620 0.07700
H 	H 	0.89210 0.69930 0.50050 0.04400
C 	C 	0.77630 0.58600 0.40710 0.35000
C 	C 	0.67420 0.50670 0.58840 0.33600
C 	C 	0.93300 0.75340 0.62332 0.43200
C 	C 	0.76560 0.77950 0.26102 0.11300
H 	H 	0.80920 0.78300 0.29960 -0.00900
C 	C 	0.67900 0.82490 0.17190 0.11300
H 	H 	0.65020 0.86730 0.13500 -0.01600
N 	N 	0.65910 0.71510 0.18397 -0.22700
N 	N 	0.71610 0.68480 0.24158 -0.25600
N 	N 	0.74570 0.87070 0.21846 -0.28400
Zn	Zn	0.80058 0.03070 0.21663 1.19700
Zn	Zn	0.92800 0.07541 0.36446 1.20800
O 	O 	0.79390 0.04690 0.12843 -0.47900
O 	O 	0.66440 0.10990 0.11199 -0.32500
O 	O 	0.88180 0.93740 0.94470 -0.38400
O 	O 	0.82170 0.03600 0.85652 -0.44700
O 	O 	0.55977 0.25600 0.81936 -0.54000
O 	O 	0.52093 0.30560 0.90140 -0.51300
O 	O 	0.92219 0.02560 0.27041 -0.66600
C 	C 	0.71350 0.09930 0.02444 -0.12700
C 	C 	0.77280 0.04810 0.00101 0.07100
H 	H 	0.81890 0.00690 0.02810 0.03200
C 	C 	0.76240 0.05900 0.93733 -0.12900
C 	C 	0.69480 0.12420 0.89728 0.08100
H 	H 	0.68890 0.13250 0.85470 0.02000
C 	C 	0.63660 0.17670 0.91987 -0.15700
C 	C 	0.64670 0.16390 0.98380 0.07900
H 	H 	0.60790 0.19930 0.99950 0.03000
C 	C 	0.72370 0.08600 0.09290 0.35100
C 	C 	0.82580 0.00670 0.91160 0.33500
C 	C 	0.56700 0.25340 0.87668 0.44100
C 	C 	0.73440 0.27950 0.23898 0.11300
H 	H 	0.69080 0.28300 0.20040 -0.01600
C 	C 	0.82100 0.32490 0.32810 0.11600
H 	H 	0.84980 0.36730 0.36500 -0.00400
N 	N 	0.84090 0.21510 0.31603 -0.21800
N 	N 	0.78390 0.18480 0.25842 -0.25700
N 	N 	0.75430 0.37070 0.28154 -0.28500
Zn	Zn	0.30058 0.53070 0.21663 1.19600
Zn	Zn	0.42800 0.57541 0.36446 1.19100
O 	O 	0.29390 0.54690 0.12843 -0.48900
O 	O 	0.16440 0.60990 0.11199 -0.34100
O 	O 	0.38180 0.43740 0.94470 -0.40900
O 	O 	0.32170 0.53600 0.85652 -0.45700
O 	O 	0.05977 0.75600 0.81936 -0.56900
O 	O 	0.02093 0.80560 0.90140 -0.55800
O 	O 	0.42219 0.52560 0.27041 -0.70300
C 	C 	0.21350 0.59930 0.02444 -0.14400
C 	C 	0.27280 0.54810 0.00101 0.08500
H 	H 	0.31890 0.50690 0.02810 0.01900
C 	C 	0.26240 0.55900 0.93733 -0.14800
C 	C 	0.19480 0.62420 0.89728 0.09300
H 	H 	0.18890 0.63250 0.85470 0.01100
C 	C 	0.13660 0.67670 0.91987 -0.17900
C 	C 	0.14670 0.66390 0.98380 0.09000
H 	H 	0.10790 0.69930 0.99950 0.01400
C 	C 	0.22370 0.58600 0.09290 0.35800
C 	C 	0.32580 0.50670 0.91160 0.34000
C 	C 	0.06700 0.75340 0.87668 0.45000
C 	C 	0.23440 0.77950 0.23898 0.10800
H 	H 	0.19080 0.78300 0.20040 -0.02100
C 	C 	0.32100 0.82490 0.32810 0.10900
H 	H 	0.34980 0.86730 0.36500 -0.01700
N 	N 	0.34090 0.71510 0.31603 -0.22900
N 	N 	0.28390 0.68480 0.25842 -0.25900
N 	N 	0.25430 0.87070 0.28154 -0.28800
Zn	Zn	0.80058 0.96930 0.71663 1.19800
Zn	Zn	0.92800 0.92459 0.86446 1.20700
O 	O 	0.79390 0.95310 0.62843 -0.47900
O 	O 	0.66440 0.89010 0.61199 -0.32600
O 	O 	0.88180 0.06260 0.44470 -0.38000
O 	O 	0.82170 0.96400 0.35652 -0.44600
O 	O 	0.55977 0.74400 0.31936 -0.54000
O 	O 	0.52093 0.69440 0.40140 -0.51200
O 	O 	0.92219 0.97440 0.77041 -0.66600
C 	C 	0.71350 0.90070 0.52444 -0.12900
C 	C 	0.77280 0.95190 0.50101 0.06900
H 	H 	0.81890 0.99310 0.52810 0.03300
C 	C 	0.76240 0.94100 0.43733 -0.12600
C 	C 	0.69480 0.87580 0.39728 0.08100
H 	H 	0.68890 0.86750 0.35470 0.02000
C 	C 	0.63660 0.82330 0.41987 -0.15700
C 	C 	0.64670 0.83610 0.48380 0.08300
H 	H 	0.60790 0.80070 0.49950 0.03000
C 	C 	0.72370 0.91400 0.59290 0.35100
C 	C 	0.82580 0.99330 0.41160 0.33300
C 	C 	0.56700 0.74660 0.37668 0.44200
C 	C 	0.73440 0.72050 0.73898 0.11300
H 	H 	0.69080 0.71700 0.70040 -0.01600
C 	C 	0.82100 0.67510 0.82810 0.11600
H 	H 	0.84980 0.63270 0.86500 -0.00500
N 	N 	0.84090 0.78490 0.81603 -0.21900
N 	N 	0.78390 0.81520 0.75842 -0.25700
N 	N 	0.75430 0.62930 0.78154 -0.28500
Zn	Zn	0.30058 0.46930 0.71663 1.19600
Zn	Zn	0.42800 0.42459 0.86446 1.19000
O 	O 	0.29390 0.45310 0.62843 -0.49000
O 	O 	0.16440 0.39010 0.61199 -0.34200
O 	O 	0.38180 0.56260 0.44470 -0.40700
O 	O 	0.32170 0.46400 0.35652 -0.45700
O 	O 	0.05977 0.24400 0.31936 -0.56900
O 	O 	0.02093 0.19440 0.40140 -0.55800
O 	O 	0.42219 0.47440 0.77041 -0.70300
C 	C 	0.21350 0.40070 0.52444 -0.14700
C 	C 	0.27280 0.45190 0.50101 0.08100
H 	H 	0.31890 0.49310 0.52810 0.02000
C 	C 	0.26240 0.44100 0.43733 -0.14400
C 	C 	0.19480 0.37580 0.39728 0.09300
H 	H 	0.18890 0.36750 0.35470 0.01100
C 	C 	0.13660 0.32330 0.41987 -0.18000
C 	C 	0.14670 0.33610 0.48380 0.09500
H 	H 	0.10790 0.30070 0.49950 0.01400
C 	C 	0.22370 0.41400 0.59290 0.35900
C 	C 	0.32580 0.49330 0.41160 0.33900
C 	C 	0.06700 0.24660 0.37668 0.45000
C 	C 	0.23440 0.22050 0.73898 0.10800
H 	H 	0.19080 0.21700 0.70040 -0.02100
C 	C 	0.32100 0.17510 0.82810 0.10900
H 	H 	0.34980 0.13270 0.86500 -0.01700
N 	N 	0.34090 0.28490 0.81603 -0.22900
N 	N 	0.28390 0.31520 0.75842 -0.25900
N 	N 	0.25430 0.12930 0.78154 -0.28800
Zn	Zn	0.19942 0.96930 0.78337 1.19500
Zn	Zn	0.07200 0.92459 0.63554 1.17400
O 	O 	0.20610 0.95310 0.87157 -0.49500
O 	O 	0.33560 0.89010 0.88801 -0.32900
O 	O 	0.11820 0.06260 0.05530 -0.43200
O 	O 	0.17830 0.96400 0.14348 -0.46100
O 	O 	0.44023 0.74400 0.18064 -0.54000
O 	O 	0.47907 0.69440 0.09860 -0.51200
O 	O 	0.07781 0.97440 0.72959 -0.73100
C 	C 	0.28650 0.90070 0.97556 -0.14500
C 	C 	0.22720 0.95190 0.99899 0.07600
H 	H 	0.18110 0.99310 0.97190 0.01500
C 	C 	0.23760 0.94100 0.06267 -0.13800
C 	C 	0.30520 0.87580 0.10272 0.08900
H 	H 	0.31110 0.86750 0.14530 0.01700
C 	C 	0.36340 0.82330 0.08013 -0.16400
C 	C 	0.35330 0.83610 0.01620 0.09700
H 	H 	0.39210 0.80070 0.00050 0.02700
C 	C 	0.27630 0.91400 0.90710 0.35800
C 	C 	0.17420 0.99330 0.08840 0.34500
C 	C 	0.43300 0.74660 0.12332 0.44400
C 	C 	0.26560 0.72050 0.76102 0.10800
H 	H 	0.30920 0.71700 0.79960 -0.01500
C 	C 	0.17900 0.67510 0.67190 0.10600
H 	H 	0.15020 0.63270 0.63500 -0.03000
N 	N 	0.15910 0.78490 0.68397 -0.23700
N 	N 	0.21610 0.81520 0.74158 -0.25800
N 	N 	0.24570 0.62930 0.71846 -0.28800
Zn	Zn	0.69942 0.46930 0.78337 1.19700
Zn	Zn	0.57200 0.42459 0.63554 1.19100
O 	O 	0.70610 0.45310 0.87157 -0.48500
O 	O 	0.83560 0.39010 0.88801 -0.31200
O 	O 	0.61820 0.56260 0.05530 -0.40200
O 	O 	0.67830 0.46400 0.14348 -0.45100
O 	O 	0.94023 0.24400 0.18064 -0.49900
O 	O 	0.97907 0.19440 0.09860 -0.46400
O 	O 	0.57781 0.47440 0.72959 -0.70300
C 	C 	0.78650 0.40070 0.97556 -0.12500
C 	C 	0.72720 0.45190 0.99899 0.06300
H 	H 	0.68110 0.49310 0.97190 0.02700
C 	C 	0.73760 0.44100 0.06267 -0.12000
C 	C 	0.80520 0.37580 0.10272 0.07600
H 	H 	0.81110 0.36750 0.14530 0.02600
C 	C 	0.86340 0.32330 0.08013 -0.14000
C 	C 	0.85330 0.33610 0.01620 0.08100
H 	H 	0.89210 0.30070 0.00050 0.04300
C 	C 	0.77630 0.41400 0.90710 0.35000
C 	C 	0.67420 0.49330 0.08840 0.33500
C 	C 	0.93300 0.24660 0.12332 0.43200
C 	C 	0.76560 0.22050 0.76102 0.11300
H 	H 	0.80920 0.21700 0.79960 -0.00900
C 	C 	0.67900 0.17510 0.67190 0.11300
H 	H 	0.65020 0.13270 0.63500 -0.01700
N 	N 	0.65910 0.28490 0.68397 -0.22700
N 	N 	0.71610 0.31520 0.74158 -0.25600
N 	N 	0.74570 0.12930 0.71846 -0.28500
Zn	Zn	-0.00000 0.13695 0.25000 1.18000
Zn	Zn	0.50000 0.63695 0.25000 1.20700
Zn	Zn	0.00000 0.86305 0.75000 1.18000
Zn	Zn	0.50000 0.36305 0.75000 1.20700
