data_crystal

_cell_length_a 15.19900
_cell_length_b 15.49300
_cell_length_c 15.49300
_cell_angle_alpha 120.00000
_cell_angle_beta  90.00000
_cell_angle_gamma 90.00000

_symmetry_space_group_name_	'P 1'
_symmetry_space_group_name_H-M	'P 1'

loop_
_symmetry_equiv_pos_as_xyz
  x,y,z

loop_
_atom_site_label
_atom_site_type_symbol
_atom_site_fract_x
_atom_site_fract_y
_atom_site_fract_z
_atom_site_charge
Pr	Pr	0.99749 0.33333 0.66666 2.04700
Pr	Pr	0.99749 0.66667 0.33334 2.04800
Pr	Pr	0.49749 0.33333 0.66666 2.07100
Pr	Pr	0.49749 0.66667 0.33334 2.07100
Co	Co	0.74720 0.50000 -0.00000 1.12600
Co	Co	0.74720 0.50000 0.50000 1.16400
Co	Co	0.74720 0.00000 0.50000 1.12600
Co	Co	0.24720 0.50000 -0.00000 1.12800
Co	Co	0.24720 0.00000 0.50000 1.12700
Co	Co	0.24720 0.50000 0.50000 1.16600
H 	H 	0.08770 0.71250 0.76420 0.10800
H 	H 	0.00950 0.79840 0.89850 0.01400
H 	H 	0.90110 0.71190 0.94710 0.11800
H 	H 	0.08770 0.05170 0.28750 0.07400
H 	H 	0.00950 0.10010 0.20160 -0.03800
H 	H 	0.90110 0.23520 0.28810 0.08600
H 	H 	0.08770 0.23580 0.94830 0.11800
H 	H 	0.00950 0.10150 0.89990 -0.01400
H 	H 	0.90110 0.05290 0.76480 0.07900
H 	H 	0.08770 0.28750 0.23580 0.09300
H 	H 	0.00950 0.20160 0.10150 -0.04000
H 	H 	0.90110 0.28810 0.05290 0.07100
H 	H 	0.08770 0.94830 0.71250 0.12700
H 	H 	0.00950 0.89990 0.79840 0.01200
H 	H 	0.90110 0.76480 0.71190 0.10300
H 	H 	0.08770 0.76420 0.05170 0.08100
H 	H 	0.00950 0.89850 0.10010 -0.01000
H 	H 	0.90110 0.94710 0.23520 0.10900
H 	H 	0.58770 0.05170 0.76420 0.02300
H 	H 	0.50950 0.10010 0.89850 0.04500
H 	H 	0.40110 0.23520 0.94710 0.06800
H 	H 	0.58770 0.23580 0.28750 0.03400
H 	H 	0.50950 0.10150 0.20160 0.01600
H 	H 	0.40110 0.05290 0.28810 0.02900
H 	H 	0.58770 0.71250 0.94830 0.06900
H 	H 	0.50950 0.79840 0.89990 0.06800
H 	H 	0.40110 0.71190 0.76480 0.06100
H 	H 	0.58770 0.94830 0.23580 0.06100
H 	H 	0.50950 0.89990 0.10150 0.04100
H 	H 	0.40110 0.76480 0.05290 0.03700
H 	H 	0.58770 0.76420 0.71250 0.05000
H 	H 	0.50950 0.89850 0.79840 0.07000
H 	H 	0.40110 0.94710 0.71190 0.07600
H 	H 	0.58770 0.28750 0.05170 0.01500
H 	H 	0.50950 0.20160 0.10010 0.01800
H 	H 	0.40110 0.28810 0.23520 0.04300
C 	C 	0.05250 0.57620 0.73310 0.07400
C 	C 	0.05160 0.67860 0.78580 -0.14600
C 	C 	0.00420 0.72940 0.86260 0.16500
C 	C 	0.94040 0.67840 0.89470 -0.18300
C 	C 	0.88580 0.51350 0.86730 0.35900
C 	C 	0.10780 0.51000 0.64620 0.29300
C 	C 	0.94590 0.57510 0.83800 0.02200
C 	C 	0.05250 0.15690 0.42380 0.05400
C 	C 	0.05160 0.10720 0.32140 -0.15300
C 	C 	0.00420 0.13320 0.27060 0.14300
C 	C 	0.94040 0.21630 0.32160 -0.19800
C 	C 	0.88580 0.35380 0.48650 0.36300
C 	C 	0.10780 0.13620 0.49000 0.29200
C 	C 	0.94590 0.26290 0.42490 0.00300
C 	C 	0.05250 0.26690 0.84310 0.07700
C 	C 	0.05160 0.21420 0.89280 -0.15400
C 	C 	0.00420 0.13740 0.86680 0.15700
C 	C 	0.94040 0.10530 0.78370 -0.19300
C 	C 	0.88580 0.13270 0.64620 0.36600
C 	C 	0.10780 0.35380 0.86380 0.28800
C 	C 	0.94590 0.16200 0.73710 0.00300
C 	C 	0.05250 0.42380 0.26690 0.06300
C 	C 	0.05160 0.32140 0.21420 -0.15600
C 	C 	0.00420 0.27060 0.13740 0.14700
C 	C 	0.94040 0.32160 0.10530 -0.20100
C 	C 	0.88580 0.48650 0.13270 0.36500
C 	C 	0.10780 0.49000 0.35380 0.29100
C 	C 	0.94590 0.42490 0.16200 -0.00200
C 	C 	0.05250 0.84310 0.57620 0.08400
C 	C 	0.05160 0.89280 0.67860 -0.15100
C 	C 	0.00420 0.86680 0.72940 0.16800
C 	C 	0.94040 0.78370 0.67840 -0.18600
C 	C 	0.88580 0.64620 0.51350 0.36500
C 	C 	0.10780 0.86380 0.51000 0.28900
C 	C 	0.94590 0.73710 0.57510 0.01500
C 	C 	0.05250 0.73310 0.15690 0.05900
C 	C 	0.05160 0.78580 0.10720 -0.14700
C 	C 	0.00420 0.86260 0.13320 0.15100
C 	C 	0.94040 0.89470 0.21630 -0.18800
C 	C 	0.88580 0.86730 0.35380 0.35800
C 	C 	0.10780 0.64620 0.13620 0.29400
C 	C 	0.94590 0.83800 0.26290 0.01600
C 	C 	0.55250 0.15690 0.73310 -0.06000
C 	C 	0.55160 0.10720 0.78580 0.00100
C 	C 	0.50420 0.13320 0.86260 -0.05600
C 	C 	0.44040 0.21630 0.89470 -0.02300
C 	C 	0.38580 0.35380 0.86730 0.38100
C 	C 	0.60780 0.13620 0.64620 0.32500
C 	C 	0.44590 0.26290 0.83800 -0.02700
C 	C 	0.55250 0.26690 0.42380 -0.05800
C 	C 	0.55160 0.21420 0.32140 -0.00600
C 	C 	0.50420 0.13740 0.27060 -0.06400
C 	C 	0.44040 0.10530 0.32160 -0.03500
C 	C 	0.38580 0.13270 0.48650 0.38800
C 	C 	0.60780 0.35380 0.49000 0.32300
C 	C 	0.44590 0.16200 0.42490 -0.04700
C 	C 	0.55250 0.57620 0.84310 -0.03600
C 	C 	0.55160 0.67860 0.89280 -0.00200
C 	C 	0.50420 0.72940 0.86680 -0.04000
C 	C 	0.44040 0.67840 0.78370 -0.02000
C 	C 	0.38580 0.51350 0.64620 0.38800
C 	C 	0.60780 0.51000 0.86380 0.32000
C 	C 	0.44590 0.57510 0.73710 -0.02900
C 	C 	0.55250 0.84310 0.26690 -0.04100
C 	C 	0.55160 0.89280 0.21420 -0.00700
C 	C 	0.50420 0.86680 0.13740 -0.04900
C 	C 	0.44040 0.78370 0.10530 -0.02900
C 	C 	0.38580 0.64620 0.13270 0.38900
C 	C 	0.60780 0.86380 0.35380 0.31900
C 	C 	0.44590 0.73710 0.16200 -0.04100
C 	C 	0.55250 0.73310 0.57620 -0.04500
C 	C 	0.55160 0.78580 0.67860 0.00200
C 	C 	0.50420 0.86260 0.72940 -0.04300
C 	C 	0.44040 0.89470 0.67840 -0.01700
C 	C 	0.38580 0.86730 0.51350 0.38200
C 	C 	0.60780 0.64620 0.51000 0.32500
C 	C 	0.44590 0.83800 0.57510 -0.02200
C 	C 	0.55250 0.42380 0.15690 -0.06600
C 	C 	0.55160 0.32140 0.10720 -0.00300
C 	C 	0.50420 0.27060 0.13320 -0.06600
C 	C 	0.44040 0.32160 0.21630 -0.03100
C 	C 	0.38580 0.48650 0.35380 0.38600
C 	C 	0.60780 0.49000 0.13620 0.32400
C 	C 	0.44590 0.42490 0.26290 -0.04100
N 	N 	0.99760 0.52540 0.76380 -0.26200
N 	N 	0.99760 0.23840 0.47460 -0.26200
N 	N 	0.99760 0.23620 0.76160 -0.26200
N 	N 	0.99760 0.47460 0.23620 -0.26200
N 	N 	0.99760 0.76160 0.52540 -0.26200
N 	N 	0.99760 0.76380 0.23840 -0.26100
N 	N 	0.49760 0.23840 0.76380 -0.19600
N 	N 	0.49760 0.23620 0.47460 -0.19700
N 	N 	0.49760 0.52540 0.76160 -0.19700
N 	N 	0.49760 0.76160 0.23620 -0.19700
N 	N 	0.49760 0.76380 0.52540 -0.19600
N 	N 	0.49760 0.47460 0.23840 -0.19600
O 	O 	0.10700 0.41650 0.61400 -0.42100
O 	O 	0.88910 0.42140 0.80640 -0.46300
O 	O 	0.84310 0.55610 0.94110 -0.39100
O 	O 	0.15480 0.55340 0.60920 -0.38600
O 	O 	0.10700 0.19750 0.58350 -0.43200
O 	O 	0.88910 0.38500 0.57860 -0.47800
O 	O 	0.84310 0.38500 0.44390 -0.43700
O 	O 	0.15480 0.05580 0.44660 -0.41700
O 	O 	0.10700 0.38600 0.80250 -0.41100
O 	O 	0.88910 0.19360 0.61500 -0.48600
O 	O 	0.84310 0.05890 0.61500 -0.45900
O 	O 	0.15480 0.39080 0.94420 -0.34800
O 	O 	0.10700 0.58350 0.38600 -0.42300
O 	O 	0.88910 0.57860 0.19360 -0.48700
O 	O 	0.84310 0.44390 0.05890 -0.46200
O 	O 	0.15480 0.44660 0.39080 -0.39200
O 	O 	0.10700 0.80250 0.41650 -0.40900
O 	O 	0.88910 0.61500 0.42140 -0.47600
O 	O 	0.84310 0.61500 0.55610 -0.43000
O 	O 	0.15480 0.94420 0.55340 -0.34500
O 	O 	0.10700 0.61400 0.19750 -0.43000
O 	O 	0.88910 0.80640 0.38500 -0.46400
O 	O 	0.84310 0.94110 0.38500 -0.39400
O 	O 	0.15480 0.60920 0.05580 -0.41400
O 	O 	0.60700 0.19750 0.61400 -0.46100
O 	O 	0.38910 0.38500 0.80640 -0.46000
O 	O 	0.34310 0.38500 0.94110 -0.39300
O 	O 	0.65480 0.05580 0.60920 -0.43000
O 	O 	0.60700 0.38600 0.58350 -0.45400
O 	O 	0.38910 0.19360 0.57860 -0.48200
O 	O 	0.34310 0.05890 0.44390 -0.46100
O 	O 	0.65480 0.39080 0.44660 -0.40700
O 	O 	0.60700 0.41650 0.80250 -0.44000
O 	O 	0.38910 0.42140 0.61500 -0.47100
O 	O 	0.34310 0.55610 0.61500 -0.43000
O 	O 	0.65480 0.55340 0.94420 -0.36000
O 	O 	0.60700 0.80250 0.38600 -0.44100
O 	O 	0.38910 0.61500 0.19360 -0.48100
O 	O 	0.34310 0.61500 0.05890 -0.45800
O 	O 	0.65480 0.94420 0.39080 -0.36300
O 	O 	0.60700 0.61400 0.41650 -0.45200
O 	O 	0.38910 0.80640 0.42140 -0.45900
O 	O 	0.34310 0.94110 0.55610 -0.39000
O 	O 	0.65480 0.60920 0.55340 -0.40100
O 	O 	0.60700 0.58350 0.19750 -0.46200
O 	O 	0.38910 0.57860 0.38500 -0.47400
O 	O 	0.34310 0.44390 0.38500 -0.43600
O 	O 	0.65480 0.44660 0.05580 -0.43300
