data_crystal

_cell_length_a 26.96950
_cell_length_b 14.70860
_cell_length_c 9.97060
_cell_angle_alpha 90.00000
_cell_angle_beta  98.08100
_cell_angle_gamma 90.00000

_symmetry_space_group_name_	'P 1'
_symmetry_space_group_name_H-M	'P 1'

loop_
_symmetry_equiv_pos_as_xyz
  x,y,z

loop_
_atom_site_label
_atom_site_type_symbol
_atom_site_fract_x
_atom_site_fract_y
_atom_site_fract_z
_atom_site_charge
C 	C 	0.04429 0.48230 0.27190 0.32400
C 	C 	0.08486 0.49700 0.18510 -0.11600
C 	C 	0.12879 0.54180 0.23670 0.06600
H 	H 	0.13230 0.56560 0.32400 0.01900
C 	C 	0.16719 0.55150 0.16050 -0.18800
H 	H 	0.19650 0.58160 0.19560 0.10000
C 	C 	0.16180 0.51620 0.03270 0.15200
C 	C 	0.11839 0.47350 0.97730 -0.08800
H 	H 	0.11500 0.45080 0.88950 0.08300
C 	C 	0.07973 0.46490 0.05480 0.00800
H 	H 	0.05000 0.43710 0.01780 0.03400
C 	C 	0.24843 0.51610 -0.00000 0.22900
C 	C 	0.26517 0.45690 0.10280 -0.28300
H 	H 	0.24240 0.42410 0.14560 0.13300
C 	C 	0.31599 0.44600 0.14260 0.17400
H 	H 	0.32720 0.40630 0.21300 -0.01400
C 	C 	0.35006 0.49310 0.07960 -0.25400
C 	C 	0.40521 0.47860 0.11930 0.40500
C 	C 	0.33272 0.55150 0.97690 0.20500
H 	H 	0.35560 0.58320 0.93300 -0.02000
C 	C 	0.28195 0.56480 0.93640 -0.24300
H 	H 	0.27080 0.60580 0.86770 0.13200
C 	C 	0.56897 0.91610 0.71570 0.10800
H 	H 	0.59530 0.94940 0.68940 0.00300
C 	C 	0.49720 0.86030 0.72250 0.01400
H 	H 	0.46330 0.84750 0.70080 0.03600
C 	C 	0.52721 0.82510 0.82870 0.01800
H 	H 	0.51820 0.78420 0.89240 0.03600
C 	C 	0.61864 0.84230 0.91110 0.15600
C 	C 	0.62361 0.76540 0.98720 -0.10700
H 	H 	0.59650 0.72630 0.98720 0.08700
C 	C 	0.66884 0.74530 0.06460 -0.00900
H 	H 	0.67130 0.69320 0.11790 0.03100
C 	C 	0.71036 0.79960 0.06570 -0.09000
C 	C 	0.70318 0.87870 0.99240 0.07800
H 	H 	0.72980 0.91910 0.99390 0.01300
C 	C 	0.65812 0.90030 0.91700 -0.17200
H 	H 	0.65460 0.95490 0.86970 0.10400
C 	C 	0.76011 0.77400 0.13680 0.05800
C 	C 	0.76709 0.68600 0.18640 0.15200
H 	H 	0.74020 0.64610 0.18230 -0.02500
C 	C 	0.81498 0.65820 0.24240 -0.20100
H 	H 	0.82020 0.59870 0.27290 0.10500
C 	C 	0.85664 0.72130 0.25340 0.08000
C 	C 	0.84623 0.80650 0.20730 0.06100
H 	H 	0.87200 0.84900 0.21380 0.01800
C 	C 	0.79882 0.83280 0.15080 -0.08600
H 	H 	0.79340 0.89250 0.12170 0.05000
C 	C 	0.91878 0.62171 0.38878 0.09100
H 	H 	0.89580 0.58750 0.42870 -0.00100
N 	N 	0.96719 0.60713 0.40742 -0.21600
C 	C 	0.95063 0.72415 0.26711 -0.03600
H 	H 	0.95430 0.77240 0.20900 0.05300
N 	N 	0.52333 0.91728 0.65130 -0.21200
N 	N 	0.57350 0.86137 0.82430 -0.14600
N 	N 	0.90629 0.69250 0.30460 -0.13300
C 	C 	0.98715 0.67190 0.33030 0.08700
H 	H 	0.02100 0.67820 0.32330 -0.01300
O 	O 	0.00482 0.44356 0.22060 -0.30700
O 	O 	0.05372 0.50993 0.39320 -0.40700
O 	O 	0.43161 0.51012 0.03570 -0.44200
O 	O 	0.42014 0.43750 0.22440 -0.29500
O 	O 	0.19830 0.52700 0.94770 -0.23800
C 	C 	0.22760 0.23750 0.23770 -0.16000
C 	C 	0.18050 0.21570 0.17420 0.05200
C 	C 	0.14810 0.26710 0.36410 -0.06500
C 	C 	0.19610 0.29100 0.42100 -0.01700
H 	H 	0.25400 0.22600 0.18940 0.07900
H 	H 	0.17500 0.19770 0.08390 0.00000
H 	H 	0.12030 0.28200 0.40540 0.05400
H 	H 	0.19970 0.32080 0.50410 0.02500
C 	C 	0.95571 0.98230 0.22810 0.36400
C 	C 	0.91514 0.99700 0.31490 -0.12300
C 	C 	0.87121 0.04180 0.26330 0.07600
H 	H 	0.86770 0.06560 0.17600 0.00700
C 	C 	0.83281 0.05150 0.33950 -0.23600
H 	H 	0.80350 0.08160 0.30440 0.11200
C 	C 	0.83820 0.01620 0.46730 0.23100
C 	C 	0.88161 0.97350 0.52270 -0.19000
H 	H 	0.88500 0.95080 0.61050 0.12500
C 	C 	0.92027 0.96490 0.44520 0.10100
H 	H 	0.95000 0.93710 0.48220 0.02900
C 	C 	0.75157 0.01610 0.50000 0.24200
C 	C 	0.73483 0.95690 0.39720 -0.22800
H 	H 	0.75760 0.92410 0.35440 0.12300
C 	C 	0.68401 0.94600 0.35740 0.12400
H 	H 	0.67280 0.90630 0.28700 0.00200
C 	C 	0.64994 0.99310 0.42040 -0.15900
C 	C 	0.59479 0.97860 0.38070 0.41000
C 	C 	0.66728 0.05150 0.52310 0.09500
H 	H 	0.64440 0.08320 0.56700 0.00100
C 	C 	0.71805 0.06480 0.56360 -0.24300
H 	H 	0.72920 0.10580 0.63230 0.12500
C 	C 	0.43103 0.41610 0.78430 0.10800
H 	H 	0.40470 0.44940 0.81060 0.00200
C 	C 	0.50280 0.36030 0.77750 0.01100
H 	H 	0.53670 0.34750 0.79920 0.03300
C 	C 	0.47279 0.32510 0.67130 0.01600
H 	H 	0.48180 0.28420 0.60760 0.02700
C 	C 	0.38136 0.34230 0.58890 0.15400
C 	C 	0.37639 0.26540 0.51280 -0.14500
H 	H 	0.40350 0.22630 0.51280 0.09100
C 	C 	0.33116 0.24530 0.43540 0.02200
H 	H 	0.32870 0.19320 0.38210 0.02500
C 	C 	0.28964 0.29960 0.43430 -0.04400
C 	C 	0.29682 0.37870 0.50760 0.02200
H 	H 	0.27020 0.41910 0.50610 0.02000
C 	C 	0.34188 0.40030 0.58300 -0.15400
H 	H 	0.34540 0.45490 0.63030 0.08900
C 	C 	0.23989 0.27400 0.36320 0.02400
C 	C 	0.23291 0.18600 0.31360 0.10100
H 	H 	0.25980 0.14610 0.31770 -0.00800
C 	C 	0.18502 0.15820 0.25760 -0.16300
H 	H 	0.17980 0.09870 0.22710 0.08500
C 	C 	0.14336 0.22130 0.24660 0.10000
C 	C 	0.15377 0.30650 0.29270 -0.06000
H 	H 	0.12800 0.34900 0.28620 0.05600
C 	C 	0.20118 0.33280 0.34920 -0.02900
H 	H 	0.20660 0.39250 0.37830 0.03500
C 	C 	0.08122 0.12171 0.11122 0.08800
H 	H 	0.10420 0.08750 0.07130 -0.01700
N 	N 	0.03281 0.10713 0.09258 -0.21500
C 	C 	0.04937 0.22415 0.23289 0.03700
H 	H 	0.04570 0.27240 0.29100 0.02100
N 	N 	0.47667 0.41728 0.84870 -0.21000
N 	N 	0.42650 0.36137 0.67570 -0.14700
N 	N 	0.09371 0.19250 0.19540 -0.14900
C 	C 	0.01285 0.17190 0.16970 -0.07100
H 	H 	0.97900 0.17820 0.17670 0.08000
O 	O 	0.99518 0.94356 0.27940 -0.27500
O 	O 	0.94628 0.00993 0.10680 -0.43100
O 	O 	0.56839 0.01012 0.46430 -0.45200
O 	O 	0.57986 0.93750 0.27560 -0.29400
O 	O 	0.80170 0.02700 0.55230 -0.29400
C 	C 	0.77240 0.73750 0.26230 -0.23300
C 	C 	0.81950 0.71570 0.32580 0.11300
C 	C 	0.85190 0.76710 0.13590 -0.15400
C 	C 	0.80390 0.79100 0.07900 -0.02300
H 	H 	0.74600 0.72600 0.31060 0.10600
H 	H 	0.82500 0.69770 0.41610 -0.01700
H 	H 	0.87970 0.78200 0.09460 0.07700
H 	H 	0.80030 0.82080 0.99590 0.05200
C 	C 	0.95571 0.51770 0.72810 0.38700
C 	C 	0.91514 0.50300 0.81490 -0.28700
C 	C 	0.87121 0.45820 0.76330 0.27700
H 	H 	0.86770 0.43440 0.67600 -0.05000
C 	C 	0.83281 0.44850 0.83950 -0.43000
H 	H 	0.80350 0.41840 0.80440 0.19000
C 	C 	0.83820 0.48380 0.96730 0.47100
C 	C 	0.88161 0.52650 0.02270 -0.48600
H 	H 	0.88500 0.54920 0.11050 0.21700
C 	C 	0.92027 0.53510 0.94520 0.32900
H 	H 	0.95000 0.56290 0.98220 -0.04300
C 	C 	0.75157 0.48390 -0.00000 0.24900
C 	C 	0.73483 0.54310 0.89720 -0.22500
H 	H 	0.75760 0.57590 0.85440 0.12000
C 	C 	0.68401 0.55400 0.85740 0.11500
H 	H 	0.67280 0.59370 0.78700 0.00800
C 	C 	0.64994 0.50690 0.92040 -0.13700
C 	C 	0.59479 0.52140 0.88070 0.36900
C 	C 	0.66728 0.44850 0.02310 0.07900
H 	H 	0.64440 0.41680 0.06700 0.00200
C 	C 	0.71805 0.43520 0.06360 -0.23900
H 	H 	0.72920 0.39420 0.13230 0.12200
C 	C 	0.43103 0.08390 0.28430 0.10000
H 	H 	0.40470 0.05060 0.31060 -0.01000
C 	C 	0.50280 0.13970 0.27750 0.00600
H 	H 	0.53670 0.15250 0.29920 0.02500
C 	C 	0.47279 0.17490 0.17130 0.00900
H 	H 	0.48180 0.21580 0.10760 0.02100
C 	C 	0.38136 0.15770 0.08890 0.14600
C 	C 	0.37639 0.23460 0.01280 -0.18300
H 	H 	0.40350 0.27370 0.01280 0.09500
C 	C 	0.33116 0.25470 0.93540 0.05100
H 	H 	0.32870 0.30680 0.88210 0.02400
C 	C 	0.28964 0.20040 0.93430 0.00900
C 	C 	0.29682 0.12130 0.00760 -0.04600
H 	H 	0.27020 0.08090 0.00610 0.02800
C 	C 	0.34188 0.09970 0.08300 -0.13100
H 	H 	0.34540 0.04510 0.13030 0.07000
C 	C 	0.23989 0.22600 0.86320 -0.01500
C 	C 	0.23291 0.31400 0.81360 0.02300
H 	H 	0.25980 0.35390 0.81770 0.02800
C 	C 	0.18502 0.34180 0.75760 -0.10400
H 	H 	0.17980 0.40130 0.72710 0.07400
C 	C 	0.14336 0.27870 0.74660 0.13100
C 	C 	0.15377 0.19350 0.79270 -0.19200
H 	H 	0.12800 0.15100 0.78620 0.10000
C 	C 	0.20118 0.16720 0.84920 0.03800
H 	H 	0.20660 0.10750 0.87830 0.01800
C 	C 	0.08122 0.37829 0.61122 0.09800
H 	H 	0.10420 0.41250 0.57130 -0.00500
N 	N 	0.03281 0.39287 0.59258 -0.20800
C 	C 	0.04937 0.27585 0.73289 0.04200
H 	H 	0.04570 0.22760 0.79100 0.02400
N 	N 	0.47667 0.08272 0.34870 -0.22300
N 	N 	0.42650 0.13863 0.17570 -0.14900
N 	N 	0.09371 0.30750 0.69540 -0.15200
C 	C 	0.01285 0.32810 0.66970 -0.06400
H 	H 	0.97900 0.32180 0.67670 0.08500
O 	O 	0.99518 0.55644 0.77940 -0.28300
O 	O 	0.94628 0.49007 0.60680 -0.40600
O 	O 	0.56839 0.48988 0.96430 -0.40000
O 	O 	0.57986 0.56250 0.77560 -0.28100
O 	O 	0.80170 0.47300 0.05230 -0.35500
C 	C 	0.77240 0.76250 0.76230 -0.14100
C 	C 	0.81950 0.78430 0.82580 0.04000
C 	C 	0.85190 0.73290 0.63590 -0.06800
C 	C 	0.80390 0.70900 0.57900 -0.02200
H 	H 	0.74600 0.77400 0.81060 0.07900
H 	H 	0.82500 0.80230 0.91610 0.01500
H 	H 	0.87970 0.71800 0.59460 0.05700
H 	H 	0.80030 0.67920 0.49590 0.03500
C 	C 	0.04429 0.01770 0.77190 0.35200
C 	C 	0.08486 0.00300 0.68510 -0.29900
C 	C 	0.12879 0.95820 0.73670 0.29400
H 	H 	0.13230 0.93440 0.82400 -0.04600
C 	C 	0.16719 0.94850 0.66050 -0.41700
H 	H 	0.19650 0.91840 0.69560 0.18800
C 	C 	0.16180 0.98380 0.53270 0.43300
C 	C 	0.11839 0.02650 0.47730 -0.42300
H 	H 	0.11500 0.04920 0.38950 0.18900
C 	C 	0.07973 0.03510 0.55480 0.26500
H 	H 	0.05000 0.06290 0.51780 -0.04800
C 	C 	0.24843 0.98390 0.50000 0.43300
C 	C 	0.26517 0.04310 0.60280 -0.44900
H 	H 	0.24240 0.07590 0.64560 0.18800
C 	C 	0.31599 0.05400 0.64260 0.28700
H 	H 	0.32720 0.09370 0.71300 -0.04900
C 	C 	0.35006 0.00690 0.57960 -0.32100
C 	C 	0.40521 0.02140 0.61930 0.39700
C 	C 	0.33272 0.94850 0.47690 0.30700
H 	H 	0.35560 0.91680 0.43300 -0.06000
C 	C 	0.28195 0.93520 0.43640 -0.40800
H 	H 	0.27080 0.89420 0.36770 0.18600
C 	C 	0.56897 0.58390 0.21570 0.10100
H 	H 	0.59530 0.55060 0.18940 -0.01000
C 	C 	0.49720 0.63970 0.22250 0.00900
H 	H 	0.46330 0.65250 0.20080 0.02800
C 	C 	0.52721 0.67490 0.32870 0.01100
H 	H 	0.51820 0.71580 0.39240 0.03000
C 	C 	0.61864 0.65770 0.41110 0.14900
C 	C 	0.62361 0.73460 0.48720 -0.14300
H 	H 	0.59650 0.77370 0.48720 0.09100
C 	C 	0.66884 0.75470 0.56460 0.01800
H 	H 	0.67130 0.80680 0.61790 0.02900
C 	C 	0.71036 0.70040 0.56570 -0.04200
C 	C 	0.70318 0.62130 0.49240 0.01600
H 	H 	0.72980 0.58090 0.49390 0.02100
C 	C 	0.65812 0.59970 0.41700 -0.15100
H 	H 	0.65460 0.54510 0.36970 0.08600
C 	C 	0.76011 0.72600 0.63680 0.02300
C 	C 	0.76709 0.81400 0.68640 0.08600
H 	H 	0.74020 0.85390 0.68230 0.00500
C 	C 	0.81498 0.84180 0.74240 -0.15300
H 	H 	0.82020 0.90130 0.77290 0.09700
C 	C 	0.85664 0.77870 0.75340 0.10700
C 	C 	0.84623 0.69350 0.70730 -0.05400
H 	H 	0.87200 0.65100 0.71380 0.05700
C 	C 	0.79882 0.66720 0.65080 -0.02600
H 	H 	0.79340 0.60750 0.62170 0.03500
C 	C 	0.91878 0.87829 0.88878 0.10100
H 	H 	0.89580 0.91250 0.92870 0.01200
N 	N 	0.96719 0.89287 0.90742 -0.20200
C 	C 	0.95063 0.77585 0.76711 -0.02800
H 	H 	0.95430 0.72760 0.70900 0.05500
N 	N 	0.52333 0.58272 0.15130 -0.22400
N 	N 	0.57350 0.63863 0.32430 -0.14700
N 	N 	0.90629 0.80750 0.80460 -0.13600
C 	C 	0.98715 0.82810 0.83030 0.08700
H 	H 	0.02100 0.82180 0.82330 -0.00300
O 	O 	0.00482 0.05644 0.72060 -0.31300
O 	O 	0.05372 0.99007 0.89320 -0.37200
O 	O 	0.43161 0.98988 0.53570 -0.39800
O 	O 	0.42014 0.06250 0.72440 -0.29000
O 	O 	0.19830 0.97300 0.44770 -0.36400
C 	C 	0.22760 0.26250 0.73770 -0.05300
C 	C 	0.18050 0.28430 0.67420 -0.03600
C 	C 	0.14810 0.23290 0.86410 0.03500
C 	C 	0.19610 0.20900 0.92100 -0.01700
H 	H 	0.25400 0.27400 0.68940 0.04700
H 	H 	0.17500 0.30230 0.58390 0.03800
H 	H 	0.12030 0.21800 0.90540 0.03000
H 	H 	0.19970 0.17920 0.00410 0.00800
Cu	Cu	-0.00000 0.50000 0.50000 0.89700
Cu	Cu	-0.00000 0.00000 -0.00000 0.87200
Cu	Cu	0.50000 -0.00000 0.50000 0.89300
Cu	Cu	0.50000 0.50000 -0.00000 0.89100
