data_crystal

_cell_length_a 8.62660
_cell_length_b 9.91900
_cell_length_c 11.69400
_cell_angle_alpha 74.70000
_cell_angle_beta  69.75000
_cell_angle_gamma 85.92000

_symmetry_space_group_name_	'P 1'
_symmetry_space_group_name_H-M	'P 1'

loop_
_symmetry_equiv_pos_as_xyz
  x,y,z

loop_
_atom_site_label
_atom_site_type_symbol
_atom_site_fract_x
_atom_site_fract_y
_atom_site_fract_z
_atom_site_charge
Nd	Nd	0.24553 0.47759 0.01184 2.05500
Nd	Nd	0.75447 0.52241 0.98816 2.05500
H 	H 	0.23200 0.52570 0.32820 0.14000
H 	H 	0.25290 0.68790 0.27440 0.12000
H 	H 	0.40540 0.70250 0.39680 0.02400
H 	H 	0.41530 0.53910 0.43880 0.02000
H 	H 	0.12220 0.69080 0.50760 0.02200
H 	H 	0.12430 0.52720 0.54330 0.01800
H 	H 	0.29490 0.53910 0.66310 0.14200
H 	H 	0.26690 0.70030 0.63730 0.12700
H 	H 	0.25010 0.98250 0.21740 0.10900
H 	H 	0.22020 0.97090 0.09540 0.10400
H 	H 	0.47850 0.87950 0.10100 0.02700
H 	H 	0.53430 0.02610 0.10200 0.03000
H 	H 	0.76800 0.47430 0.67180 0.14000
H 	H 	0.74710 0.31210 0.72560 0.12000
H 	H 	0.59460 0.29750 0.60320 0.02400
H 	H 	0.58470 0.46090 0.56120 0.02000
H 	H 	0.87780 0.30920 0.49240 0.02200
H 	H 	0.87570 0.47280 0.45670 0.01800
H 	H 	0.70510 0.46090 0.33690 0.14200
H 	H 	0.73310 0.29970 0.36270 0.12700
H 	H 	0.74990 0.01750 0.78260 0.10900
H 	H 	0.77980 0.02910 0.90460 0.10400
H 	H 	0.52150 0.12050 0.89900 0.02700
H 	H 	0.46570 0.97390 0.89800 0.03000
C 	C 	0.45500 0.58460 0.19260 0.47200
C 	C 	0.30850 0.60390 0.30260 -0.39800
C 	C 	0.34550 0.61540 0.41680 0.00200
C 	C 	0.18780 0.61070 0.52860 0.01300
C 	C 	0.21660 0.61110 0.64880 -0.40800
C 	C 	0.06470 0.58740 0.76420 0.47900
C 	C 	0.26070 0.17220 0.09240 0.40300
C 	C 	0.28700 0.01710 0.12630 -0.31900
C 	C 	0.46750 0.97950 0.07140 -0.02200
C 	C 	0.54500 0.41540 0.80740 0.47200
C 	C 	0.69150 0.39610 0.69740 -0.39800
C 	C 	0.65450 0.38460 0.58320 0.00200
C 	C 	0.81220 0.38930 0.47140 0.01300
C 	C 	0.78340 0.38890 0.35120 -0.40800
C 	C 	0.93530 0.41260 0.23580 0.47900
C 	C 	0.73930 0.82780 0.90760 0.40300
C 	C 	0.71300 0.98290 0.87370 -0.31900
C 	C 	0.53250 0.02050 0.92860 -0.02200
O 	O 	0.43100 0.53530 0.11038 -0.64000
O 	O 	0.59980 0.61560 0.18011 -0.47800
O 	O 	0.07700 0.54410 0.87283 -0.65700
O 	O 	0.92360 0.60670 0.75410 -0.47900
O 	O 	0.36290 0.25380 0.09750 -0.46600
O 	O 	0.14100 0.21970 0.05770 -0.44000
O 	O 	0.56900 0.46470 0.88962 -0.64000
O 	O 	0.40020 0.38440 0.81989 -0.47800
O 	O 	0.92300 0.45590 0.12717 -0.65700
O 	O 	0.07640 0.39330 0.24590 -0.47900
O 	O 	0.63710 0.74620 0.90250 -0.46600
O 	O 	0.85900 0.78030 0.94230 -0.44000
