data_crystal

_cell_length_a 8.67420
_cell_length_b 9.96860
_cell_length_c 11.75600
_cell_angle_alpha 74.81000
_cell_angle_beta  69.69900
_cell_angle_gamma 85.93000

_symmetry_space_group_name_	'P 1'
_symmetry_space_group_name_H-M	'P 1'

loop_
_symmetry_equiv_pos_as_xyz
  x,y,z

loop_
_atom_site_label
_atom_site_type_symbol
_atom_site_fract_x
_atom_site_fract_y
_atom_site_fract_z
_atom_site_charge
Nd	Nd	0.25445 0.52242 0.48809 2.00800
Nd	Nd	0.74555 0.47758 0.51191 2.00800
H 	H 	0.76730 0.70020 0.13750 0.12300
H 	H 	0.79540 0.53970 0.16270 0.13600
H 	H 	0.62450 0.52800 0.04310 0.02300
H 	H 	0.62310 0.69080 0.00750 0.02700
H 	H 	0.91490 0.53920 0.93930 0.02000
H 	H 	0.90540 0.70160 0.89720 0.02300
H 	H 	0.73450 0.52530 0.82870 0.13700
H 	H 	0.75440 0.68650 0.77560 0.11800
H 	H 	0.27840 0.03040 0.40090 0.11200
H 	H 	0.24480 0.01580 0.28210 0.11700
H 	H 	0.02400 0.12200 0.40050 0.02300
H 	H 	0.96520 0.97880 0.39660 0.02300
H 	H 	0.23270 0.29980 0.86250 0.12300
H 	H 	0.20460 0.46030 0.83730 0.13600
H 	H 	0.37550 0.47200 0.95690 0.02300
H 	H 	0.37690 0.30920 0.99250 0.02700
H 	H 	0.08510 0.46080 0.06070 0.02000
H 	H 	0.09460 0.29840 0.10280 0.02300
H 	H 	0.26550 0.47470 0.17130 0.13700
H 	H 	0.24560 0.31350 0.22440 0.11800
H 	H 	0.72160 0.96960 0.59910 0.11200
H 	H 	0.75520 0.98420 0.71790 0.11700
H 	H 	0.97600 0.87800 0.59950 0.02300
H 	H 	0.03480 0.02120 0.60340 0.02300
C 	C 	0.56490 0.58740 0.26320 0.45900
C 	C 	0.71750 0.61140 0.14860 -0.38900
C 	C 	0.68800 0.61100 0.02840 -0.00200
C 	C 	0.84580 0.61510 0.91700 0.00500
C 	C 	0.81030 0.60330 0.80330 -0.38900
C 	C 	0.95570 0.58430 0.69250 0.45700
C 	C 	0.23870 0.82920 0.40710 0.40500
C 	C 	0.21020 0.98310 0.37270 -0.33500
C 	C 	0.03300 0.02210 0.42810 -0.01000
C 	C 	0.43510 0.41260 0.73680 0.45900
C 	C 	0.28250 0.38860 0.85140 -0.38900
C 	C 	0.31200 0.38900 0.97160 -0.00200
C 	C 	0.15420 0.38490 0.08300 0.00500
C 	C 	0.18970 0.39670 0.19670 -0.38900
C 	C 	0.04430 0.41570 0.30750 0.45700
C 	C 	0.76130 0.17080 0.59290 0.40500
C 	C 	0.78980 0.01690 0.62730 -0.33500
C 	C 	0.96700 0.97790 0.57190 -0.01000
O 	O 	0.42460 0.60730 0.25360 -0.46500
O 	O 	0.57720 0.54430 0.37200 -0.64000
O 	O 	0.09900 0.61640 0.68120 -0.46500
O 	O 	0.93210 0.53520 0.61050 -0.62700
O 	O 	0.13730 0.74710 0.40160 -0.45700
O 	O 	0.35760 0.78160 0.44100 -0.43700
O 	O 	0.57540 0.39270 0.74640 -0.46500
O 	O 	0.42280 0.45570 0.62800 -0.64000
O 	O 	0.90100 0.38360 0.31880 -0.46500
O 	O 	0.06790 0.46480 0.38950 -0.62700
O 	O 	0.86270 0.25290 0.59840 -0.45700
O 	O 	0.64240 0.21840 0.55900 -0.43700
