data_crystal

_cell_length_a 25.56000
_cell_length_b 17.28000
_cell_length_c 13.18700
_cell_angle_alpha 90.00000
_cell_angle_beta  107.19800
_cell_angle_gamma 90.00000

_symmetry_space_group_name_	'P 1'
_symmetry_space_group_name_H-M	'P 1'

loop_
_symmetry_equiv_pos_as_xyz
  x,y,z

loop_
_atom_site_label
_atom_site_type_symbol
_atom_site_fract_x
_atom_site_fract_y
_atom_site_fract_z
_atom_site_charge
C 	C 	0.51674 0.78100 0.06690 0.07000
C 	C 	0.47338 0.83150 0.03500 -0.02400
H 	H 	0.44090 0.81620 0.98530 0.07800
C 	C 	0.47859 0.90500 0.07750 -0.09700
C 	C 	0.52740 0.92620 0.15160 0.05200
H 	H 	0.53100 0.97560 0.18090 0.02300
C 	C 	0.57088 0.87480 0.18260 -0.12100
C 	C 	0.56617 0.80060 0.14100 0.03800
C 	C 	0.61611 0.75050 0.16370 0.05700
C 	C 	0.64919 0.75940 0.09820 -0.15000
C 	C 	0.69664 0.71610 0.11490 0.07800
H 	H 	0.71800 0.72180 0.06930 0.01300
C 	C 	0.71248 0.66490 0.19810 -0.13700
C 	C 	0.68051 0.65650 0.26430 0.00300
H 	H 	0.69110 0.62260 0.32140 0.05100
C 	C 	0.63265 0.69830 0.24650 0.05100
C 	C 	0.43109 0.95960 0.04860 0.39700
C 	C 	0.62260 0.90080 0.26560 0.35300
C 	C 	0.63342 0.81420 0.00550 0.40600
C 	C 	0.76502 0.61940 0.21790 0.43900
Mn	Mn	0.36059 0.06850 0.14081 1.25700
Mn	Mn	0.32190 0.01464 0.87928 1.24900
N 	N 	0.50793 0.70330 0.02210 -0.00200
N 	N 	0.59877 0.68550 0.31500 0.00500
O 	O 	0.53279 0.65020 0.07330 -0.07600
O 	O 	0.47529 0.69550 0.93510 -0.09100
O 	O 	0.39707 0.95159 0.95790 -0.45900
O 	O 	0.42808 0.00755 0.11630 -0.47100
O 	O 	0.64243 0.96594 0.24740 -0.56700
O 	O 	0.64124 0.86244 0.34510 -0.29100
O 	O 	0.65087 0.88232 0.01940 -0.60200
O 	O 	0.60521 0.78950 0.91980 -0.32800
O 	O 	0.78873 0.62297 0.14850 -0.50900
O 	O 	0.78033 0.58320 0.30260 -0.52000
O 	O 	0.55809 0.71850 0.30550 -0.07600
O 	O 	0.61540 0.64240 0.38780 -0.10100
C 	C 	0.01674 0.28100 0.06690 0.06700
C 	C 	0.97338 0.33150 0.03500 -0.01400
H 	H 	0.94090 0.31620 0.98530 0.07300
C 	C 	0.97859 0.40500 0.07750 -0.10400
C 	C 	0.02740 0.42620 0.15160 0.05600
H 	H 	0.03100 0.47560 0.18090 0.02200
C 	C 	0.07088 0.37480 0.18260 -0.12300
C 	C 	0.06617 0.30060 0.14100 0.04000
C 	C 	0.11611 0.25050 0.16370 0.05700
C 	C 	0.14919 0.25940 0.09820 -0.15000
C 	C 	0.19664 0.21610 0.11490 0.07900
H 	H 	0.21800 0.22180 0.06930 0.01300
C 	C 	0.21248 0.16490 0.19810 -0.13600
C 	C 	0.18051 0.15650 0.26430 0.00300
H 	H 	0.19110 0.12260 0.32140 0.05200
C 	C 	0.13265 0.19830 0.24650 0.05100
C 	C 	0.93109 0.45960 0.04860 0.40700
C 	C 	0.12260 0.40080 0.26560 0.35300
C 	C 	0.13342 0.31420 0.00550 0.41100
C 	C 	0.26502 0.11940 0.21790 0.43900
Mn	Mn	0.86059 0.56850 0.14081 1.25600
Mn	Mn	0.82190 0.51464 0.87928 1.25000
N 	N 	0.00793 0.20330 0.02210 0.00100
N 	N 	0.09877 0.18550 0.31500 0.00500
O 	O 	0.03279 0.15020 0.07330 -0.07500
O 	O 	0.97529 0.19550 0.93510 -0.09400
O 	O 	0.89707 0.45159 0.95790 -0.46400
O 	O 	0.92808 0.50755 0.11630 -0.47700
O 	O 	0.14243 0.46594 0.24740 -0.56700
O 	O 	0.14124 0.36244 0.34510 -0.29100
O 	O 	0.15087 0.38232 0.01940 -0.60200
O 	O 	0.10521 0.28950 0.91980 -0.33300
O 	O 	0.28873 0.12297 0.14850 -0.50800
O 	O 	0.28033 0.08320 0.30260 -0.52000
O 	O 	0.05809 0.21850 0.30550 -0.07600
O 	O 	0.11540 0.14240 0.38780 -0.10000
C 	C 	0.48326 0.78100 0.43310 0.06800
C 	C 	0.52662 0.83150 0.46500 -0.01600
H 	H 	0.55910 0.81620 0.51470 0.07400
C 	C 	0.52141 0.90500 0.42250 -0.10200
C 	C 	0.47260 0.92620 0.34840 0.05500
H 	H 	0.46900 0.97560 0.31910 0.02200
C 	C 	0.42912 0.87480 0.31740 -0.12300
C 	C 	0.43383 0.80060 0.35900 0.04000
C 	C 	0.38389 0.75050 0.33630 0.05600
C 	C 	0.35081 0.75940 0.40180 -0.15000
C 	C 	0.30336 0.71610 0.38510 0.07900
H 	H 	0.28200 0.72180 0.43070 0.01300
C 	C 	0.28752 0.66490 0.30190 -0.13700
C 	C 	0.31949 0.65650 0.23570 0.00300
H 	H 	0.30890 0.62260 0.17860 0.05100
C 	C 	0.36735 0.69830 0.25350 0.05100
C 	C 	0.56891 0.95960 0.45140 0.40600
C 	C 	0.37740 0.90080 0.23440 0.35300
C 	C 	0.36658 0.81420 0.49450 0.40800
C 	C 	0.23498 0.61940 0.28210 0.43900
Mn	Mn	0.63941 0.06850 0.35919 1.25700
Mn	Mn	0.67810 0.01464 0.62072 1.25000
N 	N 	0.49207 0.70330 0.47790 -0.00000
N 	N 	0.40123 0.68550 0.18500 0.00500
O 	O 	0.46721 0.65020 0.42670 -0.07500
O 	O 	0.52471 0.69550 0.56490 -0.09200
O 	O 	0.60293 0.95159 0.54210 -0.46300
O 	O 	0.57192 0.00755 0.38370 -0.47500
O 	O 	0.35757 0.96594 0.25260 -0.56800
O 	O 	0.35876 0.86244 0.15490 -0.29200
O 	O 	0.34913 0.88232 0.48060 -0.60200
O 	O 	0.39479 0.78950 0.58020 -0.33100
O 	O 	0.21127 0.62297 0.35150 -0.50800
O 	O 	0.21967 0.58320 0.19740 -0.52000
O 	O 	0.44191 0.71850 0.19450 -0.07700
O 	O 	0.38460 0.64240 0.11220 -0.10100
C 	C 	0.98326 0.28100 0.43310 0.06800
C 	C 	0.02662 0.33150 0.46500 -0.01600
H 	H 	0.05910 0.31620 0.51470 0.07400
C 	C 	0.02141 0.40500 0.42250 -0.10200
C 	C 	0.97260 0.42620 0.34840 0.05500
H 	H 	0.96900 0.47560 0.31910 0.02200
C 	C 	0.92912 0.37480 0.31740 -0.12300
C 	C 	0.93383 0.30060 0.35900 0.04000
C 	C 	0.88389 0.25050 0.33630 0.05600
C 	C 	0.85081 0.25940 0.40180 -0.15000
C 	C 	0.80336 0.21610 0.38510 0.07800
H 	H 	0.78200 0.22180 0.43070 0.01300
C 	C 	0.78752 0.16490 0.30190 -0.13600
C 	C 	0.81949 0.15650 0.23570 0.00300
H 	H 	0.80890 0.12260 0.17860 0.05200
C 	C 	0.86735 0.19830 0.25350 0.05200
C 	C 	0.06891 0.45960 0.45140 0.40700
C 	C 	0.87740 0.40080 0.23440 0.35300
C 	C 	0.86658 0.31420 0.49450 0.40800
C 	C 	0.73498 0.11940 0.28210 0.43900
Mn	Mn	0.13941 0.56850 0.35919 1.25600
Mn	Mn	0.17810 0.51464 0.62072 1.25000
N 	N 	0.99207 0.20330 0.47790 -0.00000
N 	N 	0.90123 0.18550 0.18500 0.00500
O 	O 	0.96721 0.15020 0.42670 -0.07500
O 	O 	0.02471 0.19550 0.56490 -0.09200
O 	O 	0.10293 0.45159 0.54210 -0.46400
O 	O 	0.07192 0.50755 0.38370 -0.47700
O 	O 	0.85757 0.46594 0.25260 -0.56700
O 	O 	0.85876 0.36244 0.15490 -0.29100
O 	O 	0.84913 0.38232 0.48060 -0.60200
O 	O 	0.89479 0.28950 0.58020 -0.33100
O 	O 	0.71127 0.12297 0.35150 -0.50800
O 	O 	0.71967 0.08320 0.19740 -0.51900
O 	O 	0.94191 0.21850 0.19450 -0.07600
O 	O 	0.88460 0.14240 0.11220 -0.10000
C 	C 	0.48326 0.21900 0.93310 0.07100
C 	C 	0.52662 0.16850 0.96500 -0.02300
H 	H 	0.55910 0.18380 0.01470 0.07800
C 	C 	0.52141 0.09500 0.92250 -0.09700
C 	C 	0.47260 0.07380 0.84840 0.05200
H 	H 	0.46900 0.02440 0.81910 0.02300
C 	C 	0.42912 0.12520 0.81740 -0.12100
C 	C 	0.43383 0.19940 0.85900 0.03800
C 	C 	0.38389 0.24950 0.83630 0.05700
C 	C 	0.35081 0.24060 0.90180 -0.15000
C 	C 	0.30336 0.28390 0.88510 0.07800
H 	H 	0.28200 0.27820 0.93070 0.01300
C 	C 	0.28752 0.33510 0.80190 -0.13700
C 	C 	0.31949 0.34350 0.73570 0.00300
H 	H 	0.30890 0.37740 0.67860 0.05100
C 	C 	0.36735 0.30170 0.75350 0.05100
C 	C 	0.56891 0.04040 0.95140 0.39700
C 	C 	0.37740 0.09920 0.73440 0.35300
C 	C 	0.36658 0.18580 0.99450 0.40600
C 	C 	0.23498 0.38060 0.78210 0.43900
Mn	Mn	0.63941 0.93150 0.85919 1.25700
Mn	Mn	0.67810 0.98536 0.12072 1.24900
N 	N 	0.49207 0.29670 0.97790 -0.00200
N 	N 	0.40123 0.31450 0.68500 0.00500
O 	O 	0.46721 0.34980 0.92670 -0.07600
O 	O 	0.52471 0.30450 0.06490 -0.09100
O 	O 	0.60293 0.04841 0.04210 -0.45900
O 	O 	0.57192 0.99245 0.88370 -0.47100
O 	O 	0.35757 0.03406 0.75260 -0.56700
O 	O 	0.35876 0.13756 0.65490 -0.29100
O 	O 	0.34913 0.11768 0.98060 -0.60200
O 	O 	0.39479 0.21050 0.08020 -0.32800
O 	O 	0.21127 0.37703 0.85150 -0.50900
O 	O 	0.21967 0.41680 0.69740 -0.52000
O 	O 	0.44191 0.28150 0.69450 -0.07600
O 	O 	0.38460 0.35760 0.61220 -0.10100
C 	C 	0.98326 0.71900 0.93310 0.06700
C 	C 	0.02662 0.66850 0.96500 -0.01400
H 	H 	0.05910 0.68380 0.01470 0.07300
C 	C 	0.02141 0.59500 0.92250 -0.10400
C 	C 	0.97260 0.57380 0.84840 0.05600
H 	H 	0.96900 0.52440 0.81910 0.02200
C 	C 	0.92912 0.62520 0.81740 -0.12300
C 	C 	0.93383 0.69940 0.85900 0.04000
C 	C 	0.88389 0.74950 0.83630 0.05700
C 	C 	0.85081 0.74060 0.90180 -0.15000
C 	C 	0.80336 0.78390 0.88510 0.07900
H 	H 	0.78200 0.77820 0.93070 0.01300
C 	C 	0.78752 0.83510 0.80190 -0.13600
C 	C 	0.81949 0.84350 0.73570 0.00300
H 	H 	0.80890 0.87740 0.67860 0.05200
C 	C 	0.86735 0.80170 0.75350 0.05100
C 	C 	0.06891 0.54040 0.95140 0.40700
C 	C 	0.87740 0.59920 0.73440 0.35300
C 	C 	0.86658 0.68580 0.99450 0.41100
C 	C 	0.73498 0.88060 0.78210 0.43900
Mn	Mn	0.13941 0.43150 0.85919 1.25600
Mn	Mn	0.17810 0.48536 0.12072 1.25000
N 	N 	0.99207 0.79670 0.97790 0.00100
N 	N 	0.90123 0.81450 0.68500 0.00500
O 	O 	0.96721 0.84980 0.92670 -0.07500
O 	O 	0.02471 0.80450 0.06490 -0.09400
O 	O 	0.10293 0.54841 0.04210 -0.46400
O 	O 	0.07192 0.49245 0.88370 -0.47700
O 	O 	0.85757 0.53406 0.75260 -0.56700
O 	O 	0.85876 0.63756 0.65490 -0.29100
O 	O 	0.84913 0.61768 0.98060 -0.60200
O 	O 	0.89479 0.71050 0.08020 -0.33300
O 	O 	0.71127 0.87703 0.85150 -0.50800
O 	O 	0.71967 0.91680 0.69740 -0.52000
O 	O 	0.94191 0.78150 0.69450 -0.07600
O 	O 	0.88460 0.85760 0.61220 -0.10000
C 	C 	0.51674 0.21900 0.56690 0.06800
C 	C 	0.47338 0.16850 0.53500 -0.01600
H 	H 	0.44090 0.18380 0.48530 0.07400
C 	C 	0.47859 0.09500 0.57750 -0.10200
C 	C 	0.52740 0.07380 0.65160 0.05500
H 	H 	0.53100 0.02440 0.68090 0.02200
C 	C 	0.57088 0.12520 0.68260 -0.12300
C 	C 	0.56617 0.19940 0.64100 0.04000
C 	C 	0.61611 0.24950 0.66370 0.05600
C 	C 	0.64919 0.24060 0.59820 -0.15000
C 	C 	0.69664 0.28390 0.61490 0.07900
H 	H 	0.71800 0.27820 0.56930 0.01300
C 	C 	0.71248 0.33510 0.69810 -0.13700
C 	C 	0.68051 0.34350 0.76430 0.00300
H 	H 	0.69110 0.37740 0.82140 0.05100
C 	C 	0.63265 0.30170 0.74650 0.05100
C 	C 	0.43109 0.04040 0.54860 0.40600
C 	C 	0.62260 0.09920 0.76560 0.35300
C 	C 	0.63342 0.18580 0.50550 0.40800
C 	C 	0.76502 0.38060 0.71790 0.43900
Mn	Mn	0.36059 0.93150 0.64081 1.25700
Mn	Mn	0.32190 0.98536 0.37928 1.25000
N 	N 	0.50793 0.29670 0.52210 -0.00000
N 	N 	0.59877 0.31450 0.81500 0.00500
O 	O 	0.53279 0.34980 0.57330 -0.07500
O 	O 	0.47529 0.30450 0.43510 -0.09200
O 	O 	0.39707 0.04841 0.45790 -0.46300
O 	O 	0.42808 0.99245 0.61630 -0.47500
O 	O 	0.64243 0.03406 0.74740 -0.56800
O 	O 	0.64124 0.13756 0.84510 -0.29200
O 	O 	0.65087 0.11768 0.51940 -0.60200
O 	O 	0.60521 0.21050 0.41980 -0.33100
O 	O 	0.78873 0.37703 0.64850 -0.50800
O 	O 	0.78033 0.41680 0.80260 -0.52000
O 	O 	0.55809 0.28150 0.80550 -0.07700
O 	O 	0.61540 0.35760 0.88780 -0.10100
C 	C 	0.01674 0.71900 0.56690 0.06800
C 	C 	0.97338 0.66850 0.53500 -0.01600
H 	H 	0.94090 0.68380 0.48530 0.07400
C 	C 	0.97859 0.59500 0.57750 -0.10200
C 	C 	0.02740 0.57380 0.65160 0.05500
H 	H 	0.03100 0.52440 0.68090 0.02200
C 	C 	0.07088 0.62520 0.68260 -0.12300
C 	C 	0.06617 0.69940 0.64100 0.04000
C 	C 	0.11611 0.74950 0.66370 0.05600
C 	C 	0.14919 0.74060 0.59820 -0.15000
C 	C 	0.19664 0.78390 0.61490 0.07800
H 	H 	0.21800 0.77820 0.56930 0.01300
C 	C 	0.21248 0.83510 0.69810 -0.13600
C 	C 	0.18051 0.84350 0.76430 0.00300
H 	H 	0.19110 0.87740 0.82140 0.05200
C 	C 	0.13265 0.80170 0.74650 0.05200
C 	C 	0.93109 0.54040 0.54860 0.40700
C 	C 	0.12260 0.59920 0.76560 0.35300
C 	C 	0.13342 0.68580 0.50550 0.40800
C 	C 	0.26502 0.88060 0.71790 0.43900
Mn	Mn	0.86059 0.43150 0.64081 1.25600
Mn	Mn	0.82190 0.48536 0.37928 1.25000
N 	N 	0.00793 0.79670 0.52210 -0.00000
N 	N 	0.09877 0.81450 0.81500 0.00500
O 	O 	0.03279 0.84980 0.57330 -0.07500
O 	O 	0.97529 0.80450 0.43510 -0.09200
O 	O 	0.89707 0.54841 0.45790 -0.46400
O 	O 	0.92808 0.49245 0.61630 -0.47700
O 	O 	0.14243 0.53406 0.74740 -0.56700
O 	O 	0.14124 0.63756 0.84510 -0.29100
O 	O 	0.15087 0.61768 0.51940 -0.60200
O 	O 	0.10521 0.71050 0.41980 -0.33100
O 	O 	0.28873 0.87703 0.64850 -0.50800
O 	O 	0.28033 0.91680 0.80260 -0.51900
O 	O 	0.05809 0.78150 0.80550 -0.07600
O 	O 	0.11540 0.85760 0.88780 -0.10000
