data_crystal

_cell_length_a 25.84700
_cell_length_b 16.90430
_cell_length_c 13.22510
_cell_angle_alpha 90.00000
_cell_angle_beta  105.90000
_cell_angle_gamma 90.00000

_symmetry_space_group_name_	'P 1'
_symmetry_space_group_name_H-M	'P 1'

loop_
_symmetry_equiv_pos_as_xyz
  x,y,z

loop_
_atom_site_label
_atom_site_type_symbol
_atom_site_fract_x
_atom_site_fract_y
_atom_site_fract_z
_atom_site_charge
O 	O 	0.89600 0.60350 0.14390 -0.04700
C 	C 	0.06735 0.95630 0.45040 0.38500
C 	C 	0.02018 0.90070 0.42020 -0.08900
C 	C 	0.02475 0.82430 0.46120 -0.02800
H 	H 	0.05630 0.80790 0.50950 0.07900
C 	C 	0.98195 0.77340 0.42930 0.07400
C 	C 	0.93310 0.79480 0.35670 0.03600
C 	C 	0.92941 0.87210 0.31730 -0.11400
C 	C 	0.97272 0.92390 0.34850 0.04300
H 	H 	0.96980 0.97480 0.32090 0.02500
C 	C 	0.88362 0.74470 0.33550 0.05500
C 	C 	0.86730 0.69050 0.25360 0.05600
C 	C 	0.81875 0.65080 0.23380 -0.00400
H 	H 	0.80860 0.61580 0.17750 0.05300
C 	C 	0.78536 0.66350 0.29830 -0.12600
C 	C 	0.80141 0.71630 0.38230 0.06700
H 	H 	0.77960 0.72430 0.42680 0.01500
C 	C 	0.84952 0.75690 0.39950 -0.14300
C 	C 	0.86570 0.81270 0.49190 0.39800
C 	C 	0.73213 0.62270 0.27730 0.41200
C 	C 	0.87906 0.90040 0.23710 0.33700
Mn	Mn	0.13609 0.07142 0.35519 1.25700
N 	N 	0.99040 0.69300 0.47190 -0.00300
N 	N 	0.90260 0.67150 0.18820 0.00500
O 	O 	0.07029 0.00753 0.38350 -0.46500
O 	O 	0.10079 0.94692 0.53940 -0.45600
O 	O 	0.94160 0.70760 0.19260 -0.07500
O 	O 	0.02180 0.68400 0.55970 -0.08800
O 	O 	0.96590 0.63850 0.42020 -0.07000
O 	O 	0.71495 0.58930 0.18950 -0.50700
O 	O 	0.70890 0.62320 0.34900 -0.49600
O 	O 	0.85020 0.88250 0.48130 -0.59900
O 	O 	0.89580 0.78720 0.57590 -0.32800
O 	O 	0.86089 0.96826 0.25550 -0.56600
O 	O 	0.85893 0.86020 0.15820 -0.28400
Mn	Mn	0.17446 0.01080 0.61609 1.25100
O 	O 	0.88100 0.64010 0.09920 -0.06700
O 	O 	0.39600 0.10350 0.14390 -0.04500
C 	C 	0.56735 0.45630 0.45040 0.38600
C 	C 	0.52018 0.40070 0.42020 -0.08800
C 	C 	0.52475 0.32430 0.46120 -0.02700
H 	H 	0.55630 0.30790 0.50950 0.07900
C 	C 	0.48195 0.27340 0.42930 0.07500
C 	C 	0.43310 0.29480 0.35670 0.03600
C 	C 	0.42941 0.37210 0.31730 -0.11400
C 	C 	0.47272 0.42390 0.34850 0.04300
H 	H 	0.46980 0.47480 0.32090 0.02500
C 	C 	0.38362 0.24470 0.33550 0.05400
C 	C 	0.36730 0.19050 0.25360 0.05700
C 	C 	0.31875 0.15080 0.23380 -0.00500
H 	H 	0.30860 0.11580 0.17750 0.05400
C 	C 	0.28536 0.16350 0.29830 -0.12500
C 	C 	0.30141 0.21630 0.38230 0.06700
H 	H 	0.27960 0.22430 0.42680 0.01500
C 	C 	0.34952 0.25690 0.39950 -0.14300
C 	C 	0.36570 0.31270 0.49190 0.39800
C 	C 	0.23213 0.12270 0.27730 0.41100
C 	C 	0.37906 0.40040 0.23710 0.33700
Mn	Mn	0.63609 0.57142 0.35519 1.25700
N 	N 	0.49040 0.19300 0.47190 -0.00300
N 	N 	0.40260 0.17150 0.18820 0.00400
O 	O 	0.57029 0.50753 0.38350 -0.46600
O 	O 	0.60079 0.44692 0.53940 -0.45700
O 	O 	0.44160 0.20760 0.19260 -0.07400
O 	O 	0.52180 0.18400 0.55970 -0.08800
O 	O 	0.46590 0.13850 0.42020 -0.07000
O 	O 	0.21495 0.08930 0.18950 -0.50500
O 	O 	0.20890 0.12320 0.34900 -0.49600
O 	O 	0.35020 0.38250 0.48130 -0.59900
O 	O 	0.39580 0.28720 0.57590 -0.32800
O 	O 	0.36089 0.46826 0.25550 -0.56500
O 	O 	0.35893 0.36020 0.15820 -0.28300
Mn	Mn	0.67446 0.51080 0.61609 1.25100
O 	O 	0.38100 0.14010 0.09920 -0.06600
O 	O 	0.10400 0.60350 0.35610 -0.04600
C 	C 	0.93265 0.95630 0.04960 0.37700
C 	C 	0.97982 0.90070 0.07980 -0.08400
C 	C 	0.97525 0.82430 0.03880 -0.03600
H 	H 	0.94370 0.80790 0.99050 0.08300
C 	C 	0.01805 0.77340 0.07070 0.07800
C 	C 	0.06690 0.79480 0.14330 0.03400
C 	C 	0.07059 0.87210 0.18270 -0.11200
C 	C 	0.02728 0.92390 0.15150 0.04000
H 	H 	0.03020 0.97480 0.17910 0.02600
C 	C 	0.11638 0.74470 0.16450 0.05500
C 	C 	0.13270 0.69050 0.24640 0.05600
C 	C 	0.18125 0.65080 0.26620 -0.00400
H 	H 	0.19140 0.61580 0.32250 0.05400
C 	C 	0.21464 0.66350 0.20170 -0.12600
C 	C 	0.19859 0.71630 0.11770 0.06700
H 	H 	0.22040 0.72430 0.07320 0.01500
C 	C 	0.15048 0.75690 0.10050 -0.14300
C 	C 	0.13430 0.81270 0.00810 0.39600
C 	C 	0.26787 0.62270 0.22270 0.41200
C 	C 	0.12094 0.90040 0.26290 0.33700
Mn	Mn	0.86391 0.07142 0.14481 1.25700
N 	N 	0.00960 0.69300 0.02810 -0.00400
N 	N 	0.09740 0.67150 0.31180 0.00500
O 	O 	0.92971 0.00753 0.11650 -0.46000
O 	O 	0.89921 0.94692 0.96060 -0.45200
O 	O 	0.05840 0.70760 0.30740 -0.07400
O 	O 	0.97820 0.68400 0.94030 -0.08700
O 	O 	0.03410 0.63850 0.07980 -0.07000
O 	O 	0.28505 0.58930 0.31050 -0.50700
O 	O 	0.29110 0.62320 0.15100 -0.49700
O 	O 	0.14980 0.88250 0.01870 -0.60000
O 	O 	0.10420 0.78720 0.92410 -0.32600
O 	O 	0.13911 0.96826 0.24450 -0.56500
O 	O 	0.14107 0.86020 0.34180 -0.28300
Mn	Mn	0.82554 0.01080 0.88391 1.25000
O 	O 	0.11900 0.64010 0.40080 -0.06600
O 	O 	0.60400 0.10350 0.35610 -0.04500
C 	C 	0.43265 0.45630 0.04960 0.38700
C 	C 	0.47982 0.40070 0.07980 -0.09000
C 	C 	0.47525 0.32430 0.03880 -0.02300
H 	H 	0.44370 0.30790 0.99050 0.07600
C 	C 	0.51805 0.27340 0.07070 0.07300
C 	C 	0.56690 0.29480 0.14330 0.03600
C 	C 	0.57059 0.37210 0.18270 -0.11400
C 	C 	0.52728 0.42390 0.15150 0.04400
H 	H 	0.53020 0.47480 0.17910 0.02500
C 	C 	0.61638 0.24470 0.16450 0.05500
C 	C 	0.63270 0.19050 0.24640 0.05700
C 	C 	0.68125 0.15080 0.26620 -0.00500
H 	H 	0.69140 0.11580 0.32250 0.05400
C 	C 	0.71464 0.16350 0.20170 -0.12500
C 	C 	0.69859 0.21630 0.11770 0.06700
H 	H 	0.72040 0.22430 0.07320 0.01500
C 	C 	0.65048 0.25690 0.10050 -0.14300
C 	C 	0.63430 0.31270 0.00810 0.40000
C 	C 	0.76787 0.12270 0.22270 0.41200
C 	C 	0.62094 0.40040 0.26290 0.33800
Mn	Mn	0.36391 0.57142 0.14481 1.25700
N 	N 	0.50960 0.19300 0.02810 -0.00200
N 	N 	0.59740 0.17150 0.31180 0.00500
O 	O 	0.42971 0.50753 0.11650 -0.46600
O 	O 	0.39921 0.44692 0.96060 -0.45800
O 	O 	0.55840 0.20760 0.30740 -0.07400
O 	O 	0.47820 0.18400 0.94030 -0.09000
O 	O 	0.53410 0.13850 0.07980 -0.06900
O 	O 	0.78505 0.08930 0.31050 -0.50600
O 	O 	0.79110 0.12320 0.15100 -0.49500
O 	O 	0.64980 0.38250 0.01870 -0.60000
O 	O 	0.60420 0.28720 0.92410 -0.32900
O 	O 	0.63911 0.46826 0.24450 -0.56500
O 	O 	0.64107 0.36020 0.34180 -0.28300
Mn	Mn	0.32554 0.51080 0.88391 1.25100
O 	O 	0.61900 0.14010 0.40080 -0.06700
O 	O 	0.10400 0.39650 0.85610 -0.04600
C 	C 	0.93265 0.04370 0.54960 0.38600
C 	C 	0.97982 0.09930 0.57980 -0.08800
C 	C 	0.97525 0.17570 0.53880 -0.02700
H 	H 	0.94370 0.19210 0.49050 0.07900
C 	C 	0.01805 0.22660 0.57070 0.07400
C 	C 	0.06690 0.20520 0.64330 0.03600
C 	C 	0.07059 0.12790 0.68270 -0.11400
C 	C 	0.02728 0.07610 0.65150 0.04300
H 	H 	0.03020 0.02520 0.67910 0.02500
C 	C 	0.11638 0.25530 0.66450 0.05500
C 	C 	0.13270 0.30950 0.74640 0.05600
C 	C 	0.18125 0.34920 0.76620 -0.00400
H 	H 	0.19140 0.38420 0.82250 0.05300
C 	C 	0.21464 0.33650 0.70170 -0.12600
C 	C 	0.19859 0.28370 0.61770 0.06700
H 	H 	0.22040 0.27570 0.57320 0.01500
C 	C 	0.15048 0.24310 0.60050 -0.14300
C 	C 	0.13430 0.18730 0.50810 0.39800
C 	C 	0.26787 0.37730 0.72270 0.41200
C 	C 	0.12094 0.09960 0.76290 0.33700
Mn	Mn	0.86391 0.92858 0.64481 1.25700
N 	N 	0.00960 0.30700 0.52810 -0.00300
N 	N 	0.09740 0.32850 0.81180 0.00500
O 	O 	0.92971 0.99247 0.61650 -0.46500
O 	O 	0.89921 0.05308 0.46060 -0.45600
O 	O 	0.05840 0.29240 0.80740 -0.07500
O 	O 	0.97820 0.31600 0.44030 -0.08800
O 	O 	0.03410 0.36150 0.57980 -0.07000
O 	O 	0.28505 0.41070 0.81050 -0.50700
O 	O 	0.29110 0.37680 0.65100 -0.49600
O 	O 	0.14980 0.11750 0.51870 -0.59900
O 	O 	0.10420 0.21280 0.42410 -0.32800
O 	O 	0.13911 0.03174 0.74450 -0.56600
O 	O 	0.14107 0.13980 0.84180 -0.28400
Mn	Mn	0.82554 0.98920 0.38391 1.25100
O 	O 	0.11900 0.35990 0.90080 -0.06700
O 	O 	0.60400 0.89650 0.85610 -0.04500
C 	C 	0.43265 0.54370 0.54960 0.38600
C 	C 	0.47982 0.59930 0.57980 -0.08800
C 	C 	0.47525 0.67570 0.53880 -0.02700
H 	H 	0.44370 0.69210 0.49050 0.07900
C 	C 	0.51805 0.72660 0.57070 0.07500
C 	C 	0.56690 0.70520 0.64330 0.03600
C 	C 	0.57059 0.62790 0.68270 -0.11400
C 	C 	0.52728 0.57610 0.65150 0.04300
H 	H 	0.53020 0.52520 0.67910 0.02500
C 	C 	0.61638 0.75530 0.66450 0.05400
C 	C 	0.63270 0.80950 0.74640 0.05700
C 	C 	0.68125 0.84920 0.76620 -0.00500
H 	H 	0.69140 0.88420 0.82250 0.05400
C 	C 	0.71464 0.83650 0.70170 -0.12500
C 	C 	0.69859 0.78370 0.61770 0.06700
H 	H 	0.72040 0.77570 0.57320 0.01500
C 	C 	0.65048 0.74310 0.60050 -0.14300
C 	C 	0.63430 0.68730 0.50810 0.39800
C 	C 	0.76787 0.87730 0.72270 0.41100
C 	C 	0.62094 0.59960 0.76290 0.33700
Mn	Mn	0.36391 0.42858 0.64481 1.25700
N 	N 	0.50960 0.80700 0.52810 -0.00300
N 	N 	0.59740 0.82850 0.81180 0.00400
O 	O 	0.42971 0.49247 0.61650 -0.46600
O 	O 	0.39921 0.55308 0.46060 -0.45700
O 	O 	0.55840 0.79240 0.80740 -0.07400
O 	O 	0.47820 0.81600 0.44030 -0.08800
O 	O 	0.53410 0.86150 0.57980 -0.07000
O 	O 	0.78505 0.91070 0.81050 -0.50500
O 	O 	0.79110 0.87680 0.65100 -0.49600
O 	O 	0.64980 0.61750 0.51870 -0.59900
O 	O 	0.60420 0.71280 0.42410 -0.32800
O 	O 	0.63911 0.53174 0.74450 -0.56500
O 	O 	0.64107 0.63980 0.84180 -0.28300
Mn	Mn	0.32554 0.48920 0.38391 1.25100
O 	O 	0.61900 0.85990 0.90080 -0.06600
O 	O 	0.89600 0.39650 0.64390 -0.04600
C 	C 	0.06735 0.04370 0.95040 0.37700
C 	C 	0.02018 0.09930 0.92020 -0.08400
C 	C 	0.02475 0.17570 0.96120 -0.03600
H 	H 	0.05630 0.19210 0.00950 0.08300
C 	C 	0.98195 0.22660 0.92930 0.07800
C 	C 	0.93310 0.20520 0.85670 0.03400
C 	C 	0.92941 0.12790 0.81730 -0.11200
C 	C 	0.97272 0.07610 0.84850 0.04000
H 	H 	0.96980 0.02520 0.82090 0.02600
C 	C 	0.88362 0.25530 0.83550 0.05500
C 	C 	0.86730 0.30950 0.75360 0.05600
C 	C 	0.81875 0.34920 0.73380 -0.00400
H 	H 	0.80860 0.38420 0.67750 0.05400
C 	C 	0.78536 0.33650 0.79830 -0.12600
C 	C 	0.80141 0.28370 0.88230 0.06700
H 	H 	0.77960 0.27570 0.92680 0.01500
C 	C 	0.84952 0.24310 0.89950 -0.14300
C 	C 	0.86570 0.18730 0.99190 0.39600
C 	C 	0.73213 0.37730 0.77730 0.41200
C 	C 	0.87906 0.09960 0.73710 0.33700
Mn	Mn	0.13609 0.92858 0.85519 1.25700
N 	N 	0.99040 0.30700 0.97190 -0.00400
N 	N 	0.90260 0.32850 0.68820 0.00500
O 	O 	0.07029 0.99247 0.88350 -0.46000
O 	O 	0.10079 0.05308 0.03940 -0.45200
O 	O 	0.94160 0.29240 0.69260 -0.07400
O 	O 	0.02180 0.31600 0.05970 -0.08700
O 	O 	0.96590 0.36150 0.92020 -0.07000
O 	O 	0.71495 0.41070 0.68950 -0.50700
O 	O 	0.70890 0.37680 0.84900 -0.49700
O 	O 	0.85020 0.11750 0.98130 -0.60000
O 	O 	0.89580 0.21280 0.07590 -0.32600
O 	O 	0.86089 0.03174 0.75550 -0.56500
O 	O 	0.85893 0.13980 0.65820 -0.28300
Mn	Mn	0.17446 0.98920 0.11609 1.25000
O 	O 	0.88100 0.35990 0.59920 -0.06600
O 	O 	0.39600 0.89650 0.64390 -0.04500
C 	C 	0.56735 0.54370 0.95040 0.38700
C 	C 	0.52018 0.59930 0.92020 -0.09000
C 	C 	0.52475 0.67570 0.96120 -0.02300
H 	H 	0.55630 0.69210 0.00950 0.07600
C 	C 	0.48195 0.72660 0.92930 0.07300
C 	C 	0.43310 0.70520 0.85670 0.03600
C 	C 	0.42941 0.62790 0.81730 -0.11400
C 	C 	0.47272 0.57610 0.84850 0.04400
H 	H 	0.46980 0.52520 0.82090 0.02500
C 	C 	0.38362 0.75530 0.83550 0.05500
C 	C 	0.36730 0.80950 0.75360 0.05700
C 	C 	0.31875 0.84920 0.73380 -0.00500
H 	H 	0.30860 0.88420 0.67750 0.05400
C 	C 	0.28536 0.83650 0.79830 -0.12500
C 	C 	0.30141 0.78370 0.88230 0.06700
H 	H 	0.27960 0.77570 0.92680 0.01500
C 	C 	0.34952 0.74310 0.89950 -0.14300
C 	C 	0.36570 0.68730 0.99190 0.40000
C 	C 	0.23213 0.87730 0.77730 0.41200
C 	C 	0.37906 0.59960 0.73710 0.33800
Mn	Mn	0.63609 0.42858 0.85519 1.25700
N 	N 	0.49040 0.80700 0.97190 -0.00200
N 	N 	0.40260 0.82850 0.68820 0.00500
O 	O 	0.57029 0.49247 0.88350 -0.46600
O 	O 	0.60079 0.55308 0.03940 -0.45800
O 	O 	0.44160 0.79240 0.69260 -0.07400
O 	O 	0.52180 0.81600 0.05970 -0.09000
O 	O 	0.46590 0.86150 0.92020 -0.06900
O 	O 	0.21495 0.91070 0.68950 -0.50600
O 	O 	0.20890 0.87680 0.84900 -0.49500
O 	O 	0.35020 0.61750 0.98130 -0.60000
O 	O 	0.39580 0.71280 0.07590 -0.32900
O 	O 	0.36089 0.53174 0.75550 -0.56500
O 	O 	0.35893 0.63980 0.65820 -0.28300
Mn	Mn	0.67446 0.48920 0.11609 1.25100
O 	O 	0.38100 0.85990 0.59920 -0.06700
