data_crystal

_cell_length_a 7.43300
_cell_length_b 9.36730
_cell_length_c 12.44780
_cell_angle_alpha 112.10200
_cell_angle_beta  107.37100
_cell_angle_gamma 90.00010

_symmetry_space_group_name_	'P 1'
_symmetry_space_group_name_H-M	'P 1'

loop_
_symmetry_equiv_pos_as_xyz
  x,y,z

loop_
_atom_site_label
_atom_site_type_symbol
_atom_site_fract_x
_atom_site_fract_y
_atom_site_fract_z
_atom_site_charge
V 	V 	0.53794 0.24417 0.48834 1.73500
V 	V 	0.95040 0.24417 0.48834 1.72800
V 	V 	0.46206 0.75583 0.51166 1.73500
V 	V 	0.04960 0.75583 0.51166 1.73800
P 	P 	0.81145 0.57929 0.62290 0.46800
P 	P 	0.81145 0.04361 0.62290 0.44900
P 	P 	0.18855 0.95639 0.37710 0.46100
P 	P 	0.18855 0.42071 0.37710 0.46800
H 	H 	0.99750 0.52120 0.78060 0.05000
H 	H 	0.83100 0.79690 0.87800 -0.01500
H 	H 	0.78310 0.25940 0.78060 0.04100
H 	H 	0.04700 0.08110 0.87800 0.02700
H 	H 	0.00250 0.74060 0.21940 0.05600
H 	H 	0.16900 0.91890 0.12200 -0.02300
H 	H 	0.21690 0.47880 0.21940 0.04900
H 	H 	0.95300 0.20310 0.12200 -0.03000
H 	H 	0.00250 0.47880 0.21940 0.05400
H 	H 	0.16900 0.20310 0.12200 -0.01300
H 	H 	0.21690 0.74060 0.21940 0.05400
H 	H 	0.95300 0.91890 0.12200 -0.02600
H 	H 	0.99750 0.25940 0.78060 0.03600
H 	H 	0.83100 0.08110 0.87800 0.00900
H 	H 	0.78310 0.52120 0.78060 0.05300
H 	H 	0.04700 0.79690 0.87800 -0.01200
H 	H 	0.64690 0.20990 0.29380 1.15700
H 	H 	0.64690 0.08390 0.29380 1.15600
H 	H 	0.35310 0.91610 0.70620 1.16200
H 	H 	0.35310 0.79010 0.70620 1.16300
H 	H 	0.89270 0.64770 -0.00000 0.04500
H 	H 	0.10730 0.35230 -0.00000 0.02200
H 	H 	0.10730 0.64770 -0.00000 0.05400
H 	H 	0.89270 0.35230 -0.00000 0.00800
C 	C 	0.88649 0.57949 0.77298 -0.30100
C 	C 	0.94068 0.73688 0.88136 0.05100
C 	C 	0.88649 0.19349 0.77298 -0.25900
C 	C 	0.94068 0.14448 0.88136 -0.04600
C 	C 	0.11351 0.80651 0.22702 -0.30800
C 	C 	0.05932 0.85552 0.11864 0.07300
C 	C 	0.11351 0.42051 0.22702 -0.29500
C 	C 	0.05932 0.26312 0.11864 0.04700
C 	C 	-0.00000 0.71030 -0.00000 -0.20200
C 	C 	-0.00000 0.28970 1.00000 -0.09700
O 	O 	0.63088 0.65487 0.60700 -0.57900
O 	O 	0.97612 0.95213 0.60700 -0.57600
O 	O 	0.36912 0.04787 0.39300 -0.57500
O 	O 	0.02388 0.34513 0.39300 -0.56900
O 	O 	0.36912 0.34513 0.39300 -0.57800
O 	O 	0.02388 0.04787 0.39300 -0.56300
O 	O 	0.63088 0.95213 0.60700 -0.57300
O 	O 	0.97612 0.65487 0.60700 -0.58400
O 	O 	0.76565 0.40470 0.53130 -0.69300
O 	O 	0.76565 0.12660 0.53130 -0.69200
O 	O 	0.23435 0.87340 0.46870 -0.69000
O 	O 	0.23435 0.59530 0.46870 -0.68900
O 	O 	0.66605 0.16605 0.33210 -2.57900
O 	O 	0.33395 0.83395 0.66790 -2.58200
