data_crystal

_cell_length_a 7.43620
_cell_length_b 9.34460
_cell_length_c 10.27110
_cell_angle_alpha 90.00000
_cell_angle_beta  111.22300
_cell_angle_gamma 90.00000

_symmetry_space_group_name_	'P 1'
_symmetry_space_group_name_H-M	'P 1'

loop_
_symmetry_equiv_pos_as_xyz
  x,y,z

loop_
_atom_site_label
_atom_site_type_symbol
_atom_site_fract_x
_atom_site_fract_y
_atom_site_fract_z
_atom_site_charge
V 	V 	0.53528 0.25000 0.48222 1.80700
V 	V 	0.46472 0.75000 0.51778 1.80700
V 	V 	0.94694 0.25000 0.48222 1.80400
V 	V 	0.05306 0.75000 0.51778 1.80400
P 	P 	0.81948 0.51552 0.63896 0.42900
P 	P 	0.18052 0.01552 0.36104 0.43400
P 	P 	0.81948 0.98448 0.63896 0.43400
P 	P 	0.18052 0.48448 0.36104 0.42900
H 	H 	0.80040 0.37370 0.81540 0.01700
H 	H 	0.85470 0.60190 0.92480 -0.03600
H 	H 	0.19960 0.87370 0.18460 0.02100
H 	H 	0.14530 0.10190 0.07520 -0.03900
H 	H 	0.01500 0.12630 0.81540 0.02100
H 	H 	0.07010 0.89810 0.92480 -0.04700
H 	H 	0.98500 0.62630 0.18460 0.01500
H 	H 	0.92990 0.39810 0.07520 -0.04100
H 	H 	0.19960 0.62630 0.18460 0.01700
H 	H 	0.14530 0.39810 0.07520 -0.03600
H 	H 	0.80040 0.12630 0.81540 0.02100
H 	H 	0.85470 0.89810 0.92480 -0.03900
H 	H 	0.98500 0.87370 0.18460 0.02100
H 	H 	0.92990 0.10190 0.07520 -0.04700
H 	H 	0.01500 0.37370 0.81540 0.01500
H 	H 	0.07010 0.60190 0.92480 -0.04100
H 	H 	0.37000 0.80700 0.74000 3.02100
H 	H 	0.63000 0.30700 0.26000 3.02100
H 	H 	0.37000 0.69300 0.74000 3.02100
H 	H 	0.63000 0.19300 0.26000 3.02100
C 	C 	0.90379 0.43590 0.80758 -0.26500
C 	C 	0.96515 0.53990 0.93030 -0.01800
C 	C 	0.09621 0.93590 0.19242 -0.27800
C 	C 	0.03485 0.03990 0.06970 -0.00900
C 	C 	0.90379 0.06410 0.80758 -0.27800
C 	C 	0.96515 0.96010 0.93030 -0.00900
C 	C 	0.09621 0.56410 0.19242 -0.26500
C 	C 	0.03485 0.46010 0.06970 -0.01800
O 	O 	0.63988 0.60042 0.62456 -0.57100
O 	O 	0.36012 0.10042 0.37544 -0.57200
O 	O 	0.98468 0.89958 0.62456 -0.57000
O 	O 	0.01532 0.39958 0.37544 -0.57100
O 	O 	0.36012 0.39958 0.37544 -0.57100
O 	O 	0.63988 0.89958 0.62456 -0.57200
O 	O 	0.01532 0.10042 0.37544 -0.57000
O 	O 	0.98468 0.60042 0.62456 -0.57100
O 	O 	0.76533 0.39010 0.53066 -0.60600
O 	O 	0.23467 0.89010 0.46934 -0.60900
O 	O 	0.76533 0.10990 0.53066 -0.60900
O 	O 	0.23467 0.60990 0.46934 -0.60600
O 	O 	0.34860 0.75000 0.69720 -6.35800
O 	O 	0.65140 0.25000 0.30280 -6.35800
