data_crystal

_cell_length_a 15.55270
_cell_length_b 10.08410
_cell_length_c 18.78130
_cell_angle_alpha 90.00000
_cell_angle_beta  104.42300
_cell_angle_gamma 90.00000

_symmetry_space_group_name_	'P 1'
_symmetry_space_group_name_H-M	'P 1'

loop_
_symmetry_equiv_pos_as_xyz
  x,y,z

loop_
_atom_site_label
_atom_site_type_symbol
_atom_site_fract_x
_atom_site_fract_y
_atom_site_fract_z
_atom_site_charge
V 	V 	0.24928 0.96938 0.28488 1.71000
V 	V 	0.83101 0.89017 0.41430 1.71900
P 	P 	0.20151 0.12821 0.41982 0.51500
P 	P 	0.83145 0.18035 0.34034 0.47300
O 	O 	0.81674 0.08138 0.39774 -0.53400
O 	O 	0.28366 0.21078 0.42164 -0.61100
O 	O 	0.20246 0.06650 0.49461 -0.52700
O 	O 	0.19472 0.01211 0.36587 -0.52100
O 	O 	0.82489 0.11553 0.26550 -0.57800
O 	O 	0.76455 0.29342 0.33479 -0.54800
O 	O 	0.21641 0.86748 0.19255 -1.28900
C 	C 	0.10549 0.23119 0.39149 -0.39200
H 	H 	0.10650 0.29870 0.43000 0.09100
H 	H 	0.10840 0.27840 0.34600 0.09900
C 	C 	0.01730 0.15510 0.37729 0.17300
H 	H 	0.00960 0.10100 0.33210 -0.03900
H 	H 	0.01820 0.09450 0.41890 -0.09600
C 	C 	0.93988 0.25200 0.36848 -0.36200
H 	H 	0.94510 0.29790 0.41600 0.08400
H 	H 	0.94550 0.32010 0.33190 0.06400
H 	H 	0.22700 0.80100 0.20030 0.57800
V 	V 	0.74928 0.46938 0.28488 1.71100
V 	V 	0.33101 0.39017 0.41430 1.71800
P 	P 	0.70151 0.62821 0.41982 0.51400
P 	P 	0.33145 0.68035 0.34034 0.47200
O 	O 	0.31674 0.58138 0.39774 -0.53700
O 	O 	0.78366 0.71078 0.42164 -0.61200
O 	O 	0.70246 0.56650 0.49461 -0.52800
O 	O 	0.69472 0.51211 0.36587 -0.52400
O 	O 	0.32489 0.61553 0.26550 -0.58000
O 	O 	0.26455 0.79342 0.33479 -0.54900
O 	O 	0.71641 0.36748 0.19255 -1.28500
C 	C 	0.60549 0.73119 0.39149 -0.39300
H 	H 	0.60650 0.79870 0.43000 0.09100
H 	H 	0.60840 0.77840 0.34600 0.09900
C 	C 	0.51730 0.65510 0.37729 0.17500
H 	H 	0.50960 0.60100 0.33210 -0.04000
H 	H 	0.51820 0.59450 0.41890 -0.09600
C 	C 	0.43988 0.75200 0.36848 -0.36300
H 	H 	0.44510 0.79790 0.41600 0.08500
H 	H 	0.44550 0.82010 0.33190 0.06400
H 	H 	0.72700 0.30100 0.20030 0.57800
V 	V 	0.75072 0.96938 0.21512 1.70800
V 	V 	0.16899 0.89017 0.08570 1.71400
P 	P 	0.79849 0.12821 0.08018 0.51400
P 	P 	0.16855 0.18035 0.15966 0.47200
O 	O 	0.18326 0.08138 0.10226 -0.53400
O 	O 	0.71634 0.21078 0.07836 -0.61000
O 	O 	0.79754 0.06650 0.00539 -0.52300
O 	O 	0.80528 0.01211 0.13413 -0.52000
O 	O 	0.17511 0.11553 0.23450 -0.57800
O 	O 	0.23545 0.29342 0.16521 -0.54700
O 	O 	0.78359 0.86748 0.30745 -1.28800
C 	C 	0.89451 0.23119 0.10851 -0.39300
H 	H 	0.89350 0.29870 0.07000 0.09200
H 	H 	0.89160 0.27840 0.15400 0.09900
C 	C 	0.98270 0.15510 0.12271 0.17500
H 	H 	0.99040 0.10100 0.16790 -0.03900
H 	H 	0.98180 0.09450 0.08110 -0.09400
C 	C 	0.06012 0.25200 0.13152 -0.36400
H 	H 	0.05490 0.29790 0.08400 0.08400
H 	H 	0.05450 0.32010 0.16810 0.06400
H 	H 	0.77300 0.80100 0.29970 0.57800
V 	V 	0.25072 0.46938 0.21512 1.71100
V 	V 	0.66899 0.39017 0.08570 1.71900
P 	P 	0.29849 0.62821 0.08018 0.51300
P 	P 	0.66855 0.68035 0.15966 0.47100
O 	O 	0.68326 0.58138 0.10226 -0.53700
O 	O 	0.21634 0.71078 0.07836 -0.61500
O 	O 	0.29754 0.56650 0.00539 -0.53000
O 	O 	0.30528 0.51211 0.13413 -0.52400
O 	O 	0.67511 0.61553 0.23450 -0.58000
O 	O 	0.73545 0.79342 0.16521 -0.55100
O 	O 	0.28359 0.36748 0.30745 -1.28500
C 	C 	0.39451 0.73119 0.10851 -0.39200
H 	H 	0.39350 0.79870 0.07000 0.08900
H 	H 	0.39160 0.77840 0.15400 0.09800
C 	C 	0.48270 0.65510 0.12271 0.17300
H 	H 	0.49040 0.60100 0.16790 -0.03900
H 	H 	0.48180 0.59450 0.08110 -0.09600
C 	C 	0.56012 0.75200 0.13152 -0.36200
H 	H 	0.55490 0.79790 0.08400 0.08200
H 	H 	0.55450 0.82010 0.16810 0.06300
H 	H 	0.27300 0.30100 0.29970 0.57700
V 	V 	0.75072 0.03062 0.71512 1.70900
V 	V 	0.16899 0.10983 0.58570 1.71800
P 	P 	0.79849 0.87179 0.58018 0.51400
P 	P 	0.16855 0.81965 0.65966 0.47200
O 	O 	0.18326 0.91862 0.60226 -0.53500
O 	O 	0.71634 0.78922 0.57836 -0.61200
O 	O 	0.79754 0.93350 0.50539 -0.52800
O 	O 	0.80528 0.98789 0.63413 -0.52200
O 	O 	0.17511 0.88447 0.73450 -0.57800
O 	O 	0.23545 0.70658 0.66521 -0.54800
O 	O 	0.78359 0.13252 0.80745 -1.28900
C 	C 	0.89451 0.76881 0.60851 -0.39200
H 	H 	0.89350 0.70130 0.57000 0.09100
H 	H 	0.89160 0.72160 0.65400 0.09900
C 	C 	0.98270 0.84490 0.62271 0.17300
H 	H 	0.99040 0.89900 0.66790 -0.03900
H 	H 	0.98180 0.90550 0.58110 -0.09600
C 	C 	0.06012 0.74800 0.63152 -0.36200
H 	H 	0.05490 0.70210 0.58400 0.08400
H 	H 	0.05450 0.67990 0.66810 0.06400
H 	H 	0.77300 0.19900 0.79970 0.57800
V 	V 	0.25072 0.53062 0.71512 1.71100
V 	V 	0.66899 0.60983 0.58570 1.71800
P 	P 	0.29849 0.37179 0.58018 0.51400
P 	P 	0.66855 0.31965 0.65966 0.47200
O 	O 	0.68326 0.41862 0.60226 -0.53700
O 	O 	0.21634 0.28922 0.57836 -0.61200
O 	O 	0.29754 0.43350 0.50539 -0.52800
O 	O 	0.30528 0.48789 0.63413 -0.52400
O 	O 	0.67511 0.38447 0.73450 -0.58000
O 	O 	0.73545 0.20658 0.66521 -0.54900
O 	O 	0.28359 0.63252 0.80745 -1.28500
C 	C 	0.39451 0.26881 0.60851 -0.39300
H 	H 	0.39350 0.20130 0.57000 0.09100
H 	H 	0.39160 0.22160 0.65400 0.09900
C 	C 	0.48270 0.34490 0.62271 0.17500
H 	H 	0.49040 0.39900 0.66790 -0.04000
H 	H 	0.48180 0.40550 0.58110 -0.09600
C 	C 	0.56012 0.24800 0.63152 -0.36300
H 	H 	0.55490 0.20210 0.58400 0.08500
H 	H 	0.55450 0.17990 0.66810 0.06400
H 	H 	0.27300 0.69900 0.79970 0.57800
V 	V 	0.24928 0.03062 0.78488 1.70800
V 	V 	0.83101 0.10983 0.91430 1.71400
P 	P 	0.20151 0.87179 0.91982 0.51400
P 	P 	0.83145 0.81965 0.84034 0.47200
O 	O 	0.81674 0.91862 0.89774 -0.53400
O 	O 	0.28366 0.78922 0.92164 -0.61000
O 	O 	0.20246 0.93350 0.99461 -0.52300
O 	O 	0.19472 0.98789 0.86587 -0.52000
O 	O 	0.82489 0.88447 0.76550 -0.57800
O 	O 	0.76455 0.70658 0.83479 -0.54700
O 	O 	0.21641 0.13252 0.69255 -1.28800
C 	C 	0.10549 0.76881 0.89149 -0.39300
H 	H 	0.10650 0.70130 0.93000 0.09200
H 	H 	0.10840 0.72160 0.84600 0.09900
C 	C 	0.01730 0.84490 0.87729 0.17500
H 	H 	0.00960 0.89900 0.83210 -0.03900
H 	H 	0.01820 0.90550 0.91890 -0.09400
C 	C 	0.93988 0.74800 0.86848 -0.36400
H 	H 	0.94510 0.70210 0.91600 0.08400
H 	H 	0.94550 0.67990 0.83190 0.06400
H 	H 	0.22700 0.19900 0.70030 0.57800
V 	V 	0.74928 0.53062 0.78488 1.71100
V 	V 	0.33101 0.60983 0.91430 1.71900
P 	P 	0.70151 0.37179 0.91982 0.51300
P 	P 	0.33145 0.31965 0.84034 0.47100
O 	O 	0.31674 0.41862 0.89774 -0.53700
O 	O 	0.78366 0.28922 0.92164 -0.61500
O 	O 	0.70246 0.43350 0.99461 -0.53000
O 	O 	0.69472 0.48789 0.86587 -0.52400
O 	O 	0.32489 0.38447 0.76550 -0.58000
O 	O 	0.26455 0.20658 0.83479 -0.55100
O 	O 	0.71641 0.63252 0.69255 -1.28500
C 	C 	0.60549 0.26881 0.89149 -0.39200
H 	H 	0.60650 0.20130 0.93000 0.08900
H 	H 	0.60840 0.22160 0.84600 0.09800
C 	C 	0.51730 0.34490 0.87729 0.17300
H 	H 	0.50960 0.39900 0.83210 -0.03900
H 	H 	0.51820 0.40550 0.91890 -0.09600
C 	C 	0.43988 0.24800 0.86848 -0.36200
H 	H 	0.44510 0.20210 0.91600 0.08200
H 	H 	0.44550 0.17990 0.83190 0.06300
H 	H 	0.72700 0.69900 0.70030 0.57700
