data_crystal

_cell_length_a 15.20030
_cell_length_b 10.21220
_cell_length_c 18.59030
_cell_angle_alpha 90.00000
_cell_angle_beta  103.53000
_cell_angle_gamma 90.00000

_symmetry_space_group_name_	'P 1'
_symmetry_space_group_name_H-M	'P 1'

loop_
_symmetry_equiv_pos_as_xyz
  x,y,z

loop_
_atom_site_label
_atom_site_type_symbol
_atom_site_fract_x
_atom_site_fract_y
_atom_site_fract_z
_atom_site_charge
V 	V 	0.16025 0.38417 0.08394 1.72300
V 	V 	0.24790 0.45352 0.28394 1.72200
P 	P 	0.21364 0.37837 0.92221 0.51500
P 	P 	0.83657 0.33134 0.83572 0.48000
O 	O 	0.21142 0.42570 0.99987 -0.53400
O 	O 	0.82529 0.42700 0.89613 -0.53300
O 	O 	0.20250 0.35660 0.19155 -1.44400
O 	O 	0.29814 0.29920 0.92159 -0.60900
O 	O 	0.20981 0.50140 0.87420 -0.52900
O 	O 	0.76704 0.22190 0.83032 -0.55700
O 	O 	0.82841 0.39940 0.76113 -0.57000
C 	C 	0.11600 0.27900 0.88770 -0.40800
H 	H 	0.11400 0.20910 0.92420 0.09600
H 	H 	0.12240 0.23630 0.84140 0.09700
C 	C 	0.94680 0.25890 0.85990 -0.37400
H 	H 	0.95240 0.19720 0.82010 0.07100
H 	H 	0.95170 0.20710 0.90560 0.08600
C 	C 	0.02630 0.35350 0.87220 0.19100
H 	H 	0.02130 0.40890 0.82770 -0.04200
H 	H 	0.02480 0.41150 0.91450 -0.10300
H 	H 	0.21400 0.29400 0.19600 0.72300
V 	V 	0.66025 0.88417 0.08394 1.71900
V 	V 	0.74790 0.95352 0.28394 1.72000
P 	P 	0.71364 0.87837 0.92221 0.51800
P 	P 	0.33657 0.83134 0.83572 0.47900
O 	O 	0.71142 0.92570 0.99987 -0.53200
O 	O 	0.32529 0.92700 0.89613 -0.53100
O 	O 	0.70250 0.85660 0.19155 -1.44700
O 	O 	0.79814 0.79920 0.92159 -0.60700
O 	O 	0.70981 0.00140 0.87420 -0.53500
O 	O 	0.26704 0.72190 0.83032 -0.55600
O 	O 	0.32841 0.89940 0.76113 -0.56800
C 	C 	0.61600 0.77900 0.88770 -0.40800
H 	H 	0.61400 0.70910 0.92420 0.09700
H 	H 	0.62240 0.73630 0.84140 0.09700
C 	C 	0.44680 0.75890 0.85990 -0.37300
H 	H 	0.45240 0.69720 0.82010 0.07100
H 	H 	0.45170 0.70710 0.90560 0.08700
C 	C 	0.52630 0.85350 0.87220 0.19100
H 	H 	0.52130 0.90890 0.82770 -0.04100
H 	H 	0.52480 0.91150 0.91450 -0.10200
H 	H 	0.71400 0.79400 0.19600 0.72400
V 	V 	0.83975 0.38417 0.41606 1.72200
V 	V 	0.75210 0.45352 0.21606 1.72100
P 	P 	0.78636 0.37837 0.57779 0.51400
P 	P 	0.16343 0.33134 0.66428 0.47900
O 	O 	0.78858 0.42570 0.50013 -0.53400
O 	O 	0.17471 0.42700 0.60387 -0.53400
O 	O 	0.79750 0.35660 0.30845 -1.44400
O 	O 	0.70186 0.29920 0.57841 -0.60800
O 	O 	0.79019 0.50140 0.62580 -0.53000
O 	O 	0.23296 0.22190 0.66968 -0.55700
O 	O 	0.17159 0.39940 0.73887 -0.57000
C 	C 	0.88400 0.27900 0.61230 -0.40800
H 	H 	0.88600 0.20910 0.57580 0.09700
H 	H 	0.87760 0.23630 0.65860 0.09700
C 	C 	0.05320 0.25890 0.64010 -0.37300
H 	H 	0.04760 0.19720 0.67990 0.07100
H 	H 	0.04830 0.20710 0.59440 0.08700
C 	C 	0.97370 0.35350 0.62780 0.19100
H 	H 	0.97870 0.40890 0.67230 -0.04200
H 	H 	0.97520 0.41150 0.58550 -0.10300
H 	H 	0.78600 0.29400 0.30400 0.72300
V 	V 	0.33975 0.88417 0.41606 1.72100
V 	V 	0.25210 0.95352 0.21606 1.72000
P 	P 	0.28636 0.87837 0.57779 0.51600
P 	P 	0.66343 0.83134 0.66428 0.47900
O 	O 	0.28858 0.92570 0.50013 -0.53400
O 	O 	0.67471 0.92700 0.60387 -0.53300
O 	O 	0.29750 0.85660 0.30845 -1.44600
O 	O 	0.20186 0.79920 0.57841 -0.60800
O 	O 	0.29019 0.00140 0.62580 -0.53100
O 	O 	0.73296 0.72190 0.66968 -0.55600
O 	O 	0.67159 0.89940 0.73887 -0.56800
C 	C 	0.38400 0.77900 0.61230 -0.40800
H 	H 	0.38600 0.70910 0.57580 0.09700
H 	H 	0.37760 0.73630 0.65860 0.09700
C 	C 	0.55320 0.75890 0.64010 -0.37300
H 	H 	0.54760 0.69720 0.67990 0.07100
H 	H 	0.54830 0.70710 0.59440 0.08700
C 	C 	0.47370 0.85350 0.62780 0.19100
H 	H 	0.47870 0.90890 0.67230 -0.04100
H 	H 	0.47520 0.91150 0.58550 -0.10300
H 	H 	0.28600 0.79400 0.30400 0.72300
V 	V 	0.83975 0.61583 0.91606 1.72200
V 	V 	0.75210 0.54648 0.71606 1.72100
P 	P 	0.78636 0.62163 0.07779 0.51400
P 	P 	0.16343 0.66866 0.16428 0.47900
O 	O 	0.78858 0.57430 0.00013 -0.53500
O 	O 	0.17471 0.57300 0.10387 -0.53400
O 	O 	0.79750 0.64340 0.80845 -1.44500
O 	O 	0.70186 0.70080 0.07841 -0.61000
O 	O 	0.79019 0.49860 0.12580 -0.52900
O 	O 	0.23296 0.77810 0.16968 -0.55700
O 	O 	0.17159 0.60060 0.23887 -0.57000
C 	C 	0.88400 0.72100 0.11230 -0.40800
H 	H 	0.88600 0.79090 0.07580 0.09600
H 	H 	0.87760 0.76370 0.15860 0.09700
C 	C 	0.05320 0.74110 0.14010 -0.37400
H 	H 	0.04760 0.80280 0.17990 0.07100
H 	H 	0.04830 0.79290 0.09440 0.08600
C 	C 	0.97370 0.64650 0.12780 0.19100
H 	H 	0.97870 0.59110 0.17230 -0.04200
H 	H 	0.97520 0.58850 0.08550 -0.10300
H 	H 	0.78600 0.70600 0.80400 0.72300
V 	V 	0.33975 0.11583 0.91606 1.71900
V 	V 	0.25210 0.04648 0.71606 1.72000
P 	P 	0.28636 0.12163 0.07779 0.51800
P 	P 	0.66343 0.16866 0.16428 0.47900
O 	O 	0.28858 0.07430 0.00013 -0.53200
O 	O 	0.67471 0.07300 0.10387 -0.53100
O 	O 	0.29750 0.14340 0.80845 -1.44700
O 	O 	0.20186 0.20080 0.07841 -0.60700
O 	O 	0.29019 0.99860 0.12580 -0.53500
O 	O 	0.73296 0.27810 0.16968 -0.55600
O 	O 	0.67159 0.10060 0.23887 -0.56800
C 	C 	0.38400 0.22100 0.11230 -0.40800
H 	H 	0.38600 0.29090 0.07580 0.09700
H 	H 	0.37760 0.26370 0.15860 0.09700
C 	C 	0.55320 0.24110 0.14010 -0.37300
H 	H 	0.54760 0.30280 0.17990 0.07100
H 	H 	0.54830 0.29290 0.09440 0.08700
C 	C 	0.47370 0.14650 0.12780 0.19100
H 	H 	0.47870 0.09110 0.17230 -0.04100
H 	H 	0.47520 0.08850 0.08550 -0.10200
H 	H 	0.28600 0.20600 0.80400 0.72400
V 	V 	0.16025 0.61583 0.58394 1.72200
V 	V 	0.24790 0.54648 0.78394 1.72100
P 	P 	0.21364 0.62163 0.42221 0.51400
P 	P 	0.83657 0.66866 0.33572 0.47900
O 	O 	0.21142 0.57430 0.49987 -0.53400
O 	O 	0.82529 0.57300 0.39613 -0.53400
O 	O 	0.20250 0.64340 0.69155 -1.44400
O 	O 	0.29814 0.70080 0.42159 -0.60800
O 	O 	0.20981 0.49860 0.37420 -0.53000
O 	O 	0.76704 0.77810 0.33032 -0.55700
O 	O 	0.82841 0.60060 0.26113 -0.57000
C 	C 	0.11600 0.72100 0.38770 -0.40800
H 	H 	0.11400 0.79090 0.42420 0.09700
H 	H 	0.12240 0.76370 0.34140 0.09700
C 	C 	0.94680 0.74110 0.35990 -0.37300
H 	H 	0.95240 0.80280 0.32010 0.07100
H 	H 	0.95170 0.79290 0.40560 0.08700
C 	C 	0.02630 0.64650 0.37220 0.19100
H 	H 	0.02130 0.59110 0.32770 -0.04200
H 	H 	0.02480 0.58850 0.41450 -0.10300
H 	H 	0.21400 0.70600 0.69600 0.72300
V 	V 	0.66025 0.11583 0.58394 1.72100
V 	V 	0.74790 0.04648 0.78394 1.72000
P 	P 	0.71364 0.12163 0.42221 0.51600
P 	P 	0.33657 0.16866 0.33572 0.47900
O 	O 	0.71142 0.07430 0.49987 -0.53400
O 	O 	0.32529 0.07300 0.39613 -0.53300
O 	O 	0.70250 0.14340 0.69155 -1.44600
O 	O 	0.79814 0.20080 0.42159 -0.60800
O 	O 	0.70981 0.99860 0.37420 -0.53100
O 	O 	0.26704 0.27810 0.33032 -0.55600
O 	O 	0.32841 0.10060 0.26113 -0.56800
C 	C 	0.61600 0.22100 0.38770 -0.40800
H 	H 	0.61400 0.29090 0.42420 0.09700
H 	H 	0.62240 0.26370 0.34140 0.09700
C 	C 	0.44680 0.24110 0.35990 -0.37300
H 	H 	0.45240 0.30280 0.32010 0.07100
H 	H 	0.45170 0.29290 0.40560 0.08700
C 	C 	0.52630 0.14650 0.37220 0.19100
H 	H 	0.52130 0.09110 0.32770 -0.04100
H 	H 	0.52480 0.08850 0.41450 -0.10300
H 	H 	0.71400 0.20600 0.69600 0.72300
