data_crystal

_cell_length_a 15.71200
_cell_length_b 10.03000
_cell_length_c 18.65600
_cell_angle_alpha 90.00000
_cell_angle_beta  103.32800
_cell_angle_gamma 90.00000

_symmetry_space_group_name_	'P 1'
_symmetry_space_group_name_H-M	'P 1'

loop_
_symmetry_equiv_pos_as_xyz
  x,y,z

loop_
_atom_site_label
_atom_site_type_symbol
_atom_site_fract_x
_atom_site_fract_y
_atom_site_fract_z
_atom_site_charge
V 	V 	0.16272 0.11690 0.08371 1.74600
V 	V 	0.75412 0.04224 0.21608 1.74500
P 	P 	0.15956 0.82785 0.16288 0.49700
P 	P 	0.79416 0.87877 0.07898 0.52600
O 	O 	0.79731 0.00050 0.12871 -0.54100
O 	O 	0.22816 0.71850 0.16835 -0.56700
O 	O 	0.16691 0.89870 0.23618 -0.55400
O 	O 	0.21090 0.14150 0.19037 -2.37300
O 	O 	0.16827 0.92340 0.10163 -0.49900
O 	O 	0.79919 0.93230 0.00404 -0.53100
O 	O 	0.71103 0.79810 0.07550 -0.62000
C 	C 	0.05280 0.75200 0.13970 -0.40900
H 	H 	0.04790 0.70050 0.09490 0.10200
H 	H 	0.04810 0.69030 0.17860 0.09100
C 	C 	0.97600 0.84920 0.12830 0.22500
H 	H 	0.97740 0.90710 0.08700 -0.10000
H 	H 	0.98160 0.90440 0.17180 -0.04600
C 	C 	0.88780 0.77490 0.11350 -0.45100
H 	H 	0.88150 0.73350 0.15890 0.12100
H 	H 	0.88880 0.70430 0.07820 0.11700
H 	H 	0.21800 0.19800 0.19400 1.51700
V 	V 	0.66272 0.61690 0.08371 1.75000
V 	V 	0.25412 0.54224 0.21608 1.74700
P 	P 	0.65956 0.32785 0.16288 0.49700
P 	P 	0.29416 0.37877 0.07898 0.52300
O 	O 	0.29731 0.50050 0.12871 -0.53500
O 	O 	0.72816 0.21850 0.16835 -0.56700
O 	O 	0.66691 0.39870 0.23618 -0.55400
O 	O 	0.71090 0.64150 0.19037 -2.36800
O 	O 	0.66827 0.42340 0.10163 -0.50000
O 	O 	0.29919 0.43230 0.00404 -0.53400
O 	O 	0.21103 0.29810 0.07550 -0.62300
C 	C 	0.55280 0.25200 0.13970 -0.40700
H 	H 	0.54790 0.20050 0.09490 0.10100
H 	H 	0.54810 0.19030 0.17860 0.09000
C 	C 	0.47600 0.34920 0.12830 0.22300
H 	H 	0.47740 0.40710 0.08700 -0.10100
H 	H 	0.48160 0.40440 0.17180 -0.04700
C 	C 	0.38780 0.27490 0.11350 -0.45000
H 	H 	0.38150 0.23350 0.15890 0.12000
H 	H 	0.38880 0.20430 0.07820 0.11500
H 	H 	0.71800 0.69800 0.19400 1.51600
V 	V 	0.83728 0.11690 0.41629 1.74900
V 	V 	0.24588 0.04224 0.28392 1.74600
P 	P 	0.84044 0.82785 0.33712 0.49700
P 	P 	0.20584 0.87877 0.42102 0.52400
O 	O 	0.20269 0.00050 0.37129 -0.53600
O 	O 	0.77184 0.71850 0.33165 -0.56600
O 	O 	0.83309 0.89870 0.26382 -0.55200
O 	O 	0.78910 0.14150 0.30963 -2.37000
O 	O 	0.83173 0.92340 0.39837 -0.49900
O 	O 	0.20081 0.93230 0.49596 -0.53300
O 	O 	0.28897 0.79810 0.42450 -0.62100
C 	C 	0.94720 0.75200 0.36030 -0.40700
H 	H 	0.95210 0.70050 0.40510 0.10200
H 	H 	0.95190 0.69030 0.32140 0.09100
C 	C 	0.02400 0.84920 0.37170 0.22300
H 	H 	0.02260 0.90710 0.41300 -0.10100
H 	H 	0.01840 0.90440 0.32820 -0.04700
C 	C 	0.11220 0.77490 0.38650 -0.45000
H 	H 	0.11850 0.73350 0.34110 0.12000
H 	H 	0.11120 0.70430 0.42180 0.11600
H 	H 	0.78200 0.19800 0.30600 1.51600
V 	V 	0.33728 0.61690 0.41629 1.75000
V 	V 	0.74588 0.54224 0.28392 1.74700
P 	P 	0.34044 0.32785 0.33712 0.49700
P 	P 	0.70584 0.37877 0.42102 0.52300
O 	O 	0.70269 0.50050 0.37129 -0.53500
O 	O 	0.27184 0.21850 0.33165 -0.56700
O 	O 	0.33309 0.39870 0.26382 -0.55400
O 	O 	0.28910 0.64150 0.30963 -2.36800
O 	O 	0.33173 0.42340 0.39837 -0.50000
O 	O 	0.70081 0.43230 0.49596 -0.53300
O 	O 	0.78897 0.29810 0.42450 -0.62100
C 	C 	0.44720 0.25200 0.36030 -0.40800
H 	H 	0.45210 0.20050 0.40510 0.10200
H 	H 	0.45190 0.19030 0.32140 0.09100
C 	C 	0.52400 0.34920 0.37170 0.22400
H 	H 	0.52260 0.40710 0.41300 -0.10100
H 	H 	0.51840 0.40440 0.32820 -0.04700
C 	C 	0.61220 0.27490 0.38650 -0.45100
H 	H 	0.61850 0.23350 0.34110 0.12000
H 	H 	0.61120 0.20430 0.42180 0.11600
H 	H 	0.28200 0.69800 0.30600 1.51600
V 	V 	0.83728 0.88310 0.91629 1.74700
V 	V 	0.24588 0.95776 0.78392 1.74600
P 	P 	0.84044 0.17215 0.83712 0.49800
P 	P 	0.20584 0.12123 0.92102 0.52700
O 	O 	0.20269 0.99950 0.87129 -0.54000
O 	O 	0.77184 0.28150 0.83165 -0.56600
O 	O 	0.83309 0.10130 0.76382 -0.55300
O 	O 	0.78910 0.85850 0.80963 -2.37200
O 	O 	0.83173 0.07660 0.89837 -0.49800
O 	O 	0.20081 0.06770 0.99596 -0.53000
O 	O 	0.28897 0.20190 0.92450 -0.62000
C 	C 	0.94720 0.24800 0.86030 -0.40900
H 	H 	0.95210 0.29950 0.90510 0.10200
H 	H 	0.95190 0.30970 0.82140 0.09100
C 	C 	0.02400 0.15080 0.87170 0.22500
H 	H 	0.02260 0.09290 0.91300 -0.10000
H 	H 	0.01840 0.09560 0.82820 -0.04600
C 	C 	0.11220 0.22510 0.88650 -0.45100
H 	H 	0.11850 0.26650 0.84110 0.12100
H 	H 	0.11120 0.29570 0.92180 0.11700
H 	H 	0.78200 0.80200 0.80600 1.51700
V 	V 	0.33728 0.38310 0.91629 1.75000
V 	V 	0.74588 0.45776 0.78392 1.74700
P 	P 	0.34044 0.67215 0.83712 0.49700
P 	P 	0.70584 0.62123 0.92102 0.52300
O 	O 	0.70269 0.49950 0.87129 -0.53500
O 	O 	0.27184 0.78150 0.83165 -0.56700
O 	O 	0.33309 0.60130 0.76382 -0.55400
O 	O 	0.28910 0.35850 0.80963 -2.36800
O 	O 	0.33173 0.57660 0.89837 -0.50000
O 	O 	0.70081 0.56770 0.99596 -0.53400
O 	O 	0.78897 0.70190 0.92450 -0.62300
C 	C 	0.44720 0.74800 0.86030 -0.40700
H 	H 	0.45210 0.79950 0.90510 0.10100
H 	H 	0.45190 0.80970 0.82140 0.09000
C 	C 	0.52400 0.65080 0.87170 0.22300
H 	H 	0.52260 0.59290 0.91300 -0.10100
H 	H 	0.51840 0.59560 0.82820 -0.04700
C 	C 	0.61220 0.72510 0.88650 -0.45000
H 	H 	0.61850 0.76650 0.84110 0.12000
H 	H 	0.61120 0.79570 0.92180 0.11500
H 	H 	0.28200 0.30200 0.80600 1.51600
V 	V 	0.16272 0.88310 0.58371 1.74900
V 	V 	0.75412 0.95776 0.71608 1.74600
P 	P 	0.15956 0.17215 0.66288 0.49700
P 	P 	0.79416 0.12123 0.57898 0.52400
O 	O 	0.79731 0.99950 0.62871 -0.53600
O 	O 	0.22816 0.28150 0.66835 -0.56600
O 	O 	0.16691 0.10130 0.73618 -0.55200
O 	O 	0.21090 0.85850 0.69037 -2.37000
O 	O 	0.16827 0.07660 0.60163 -0.49900
O 	O 	0.79919 0.06770 0.50404 -0.53300
O 	O 	0.71103 0.20190 0.57550 -0.62100
C 	C 	0.05280 0.24800 0.63970 -0.40700
H 	H 	0.04790 0.29950 0.59490 0.10200
H 	H 	0.04810 0.30970 0.67860 0.09100
C 	C 	0.97600 0.15080 0.62830 0.22300
H 	H 	0.97740 0.09290 0.58700 -0.10100
H 	H 	0.98160 0.09560 0.67180 -0.04700
C 	C 	0.88780 0.22510 0.61350 -0.45000
H 	H 	0.88150 0.26650 0.65890 0.12000
H 	H 	0.88880 0.29570 0.57820 0.11600
H 	H 	0.21800 0.80200 0.69400 1.51600
V 	V 	0.66272 0.38310 0.58371 1.75000
V 	V 	0.25412 0.45776 0.71608 1.74700
P 	P 	0.65956 0.67215 0.66288 0.49700
P 	P 	0.29416 0.62123 0.57898 0.52300
O 	O 	0.29731 0.49950 0.62871 -0.53500
O 	O 	0.72816 0.78150 0.66835 -0.56700
O 	O 	0.66691 0.60130 0.73618 -0.55400
O 	O 	0.71090 0.35850 0.69037 -2.36800
O 	O 	0.66827 0.57660 0.60163 -0.50000
O 	O 	0.29919 0.56770 0.50404 -0.53300
O 	O 	0.21103 0.70190 0.57550 -0.62100
C 	C 	0.55280 0.74800 0.63970 -0.40800
H 	H 	0.54790 0.79950 0.59490 0.10200
H 	H 	0.54810 0.80970 0.67860 0.09100
C 	C 	0.47600 0.65080 0.62830 0.22400
H 	H 	0.47740 0.59290 0.58700 -0.10100
H 	H 	0.48160 0.59560 0.67180 -0.04700
C 	C 	0.38780 0.72510 0.61350 -0.45100
H 	H 	0.38150 0.76650 0.65890 0.12000
H 	H 	0.38880 0.79570 0.57820 0.11600
H 	H 	0.71800 0.30200 0.69400 1.51600
