data_crystal

_cell_length_a 15.23450
_cell_length_b 10.18170
_cell_length_c 18.69680
_cell_angle_alpha 90.00000
_cell_angle_beta  103.52400
_cell_angle_gamma 90.00000

_symmetry_space_group_name_	'P 1'
_symmetry_space_group_name_H-M	'P 1'

loop_
_symmetry_equiv_pos_as_xyz
  x,y,z

loop_
_atom_site_label
_atom_site_type_symbol
_atom_site_fract_x
_atom_site_fract_y
_atom_site_fract_z
_atom_site_charge
V 	V 	0.75200 0.95280 0.21718 1.28000
O 	O 	0.65430 0.00840 0.21650 -0.55200
V 	V 	0.80470 0.92500 0.21870 1.30300
O 	O 	0.90940 0.87700 0.22920 -0.47100
V 	V 	0.16193 0.88449 0.08390 1.73800
P 	P 	0.66171 0.66724 0.16590 0.55300
P 	P 	0.28554 0.61826 0.07647 0.55000
O 	O 	0.73127 0.77730 0.17113 -0.59800
O 	O 	0.66980 0.59820 0.23971 -0.63200
O 	O 	0.28635 0.49670 0.12477 -0.60300
O 	O 	0.20163 0.70090 0.07478 -0.57000
O 	O 	0.79520 0.85510 0.30972 -1.57900
O 	O 	0.67459 0.57350 0.10537 -0.51200
O 	O 	0.28952 0.56800 0.00036 -0.51800
C 	C 	0.55210 0.73910 0.14190 -0.42700
H 	H 	0.54580 0.79920 0.18200 0.15400
H 	H 	0.54770 0.79290 0.09710 0.13900
C 	C 	0.47270 0.64310 0.12770 0.22100
H 	H 	0.47690 0.58640 0.17140 -0.02600
H 	H 	0.47550 0.58610 0.08540 -0.09700
C 	C 	0.38260 0.71730 0.11140 -0.44900
H 	H 	0.38490 0.78760 0.07530 0.12700
H 	H 	0.37550 0.76010 0.15730 0.13900
H 	H 	0.78500 0.79200 0.30500 0.82200
V 	V 	0.25200 0.45280 0.21718 1.28100
O 	O 	0.15430 0.50840 0.21650 -0.55900
V 	V 	0.30470 0.42500 0.21870 1.30200
O 	O 	0.40940 0.37700 0.22920 -0.46900
V 	V 	0.66193 0.38449 0.08390 1.74100
P 	P 	0.16171 0.16724 0.16590 0.55300
P 	P 	0.78554 0.11826 0.07647 0.55600
O 	O 	0.23127 0.27730 0.17113 -0.59700
O 	O 	0.16980 0.09820 0.23971 -0.63000
O 	O 	0.78635 0.99670 0.12477 -0.61100
O 	O 	0.70163 0.20090 0.07478 -0.56600
O 	O 	0.29520 0.35510 0.30972 -1.57700
O 	O 	0.17459 0.07350 0.10537 -0.50900
O 	O 	0.78952 0.06800 0.00036 -0.51200
C 	C 	0.05210 0.23910 0.14190 -0.43000
H 	H 	0.04580 0.29920 0.18200 0.15500
H 	H 	0.04770 0.29290 0.09710 0.14100
C 	C 	0.97270 0.14310 0.12770 0.22300
H 	H 	0.97690 0.08640 0.17140 -0.02500
H 	H 	0.97550 0.08610 0.08540 -0.09500
C 	C 	0.88260 0.21730 0.11140 -0.45100
H 	H 	0.88490 0.28760 0.07530 0.13000
H 	H 	0.87550 0.26010 0.15730 0.14000
H 	H 	0.28500 0.29200 0.30500 0.82100
V 	V 	0.24800 0.95280 0.28282 1.28000
O 	O 	0.34570 0.00840 0.28350 -0.55500
V 	V 	0.19530 0.92500 0.28130 1.30200
O 	O 	0.09060 0.87700 0.27080 -0.47100
V 	V 	0.83807 0.88449 0.41610 1.74000
P 	P 	0.33829 0.66724 0.33410 0.55200
P 	P 	0.71446 0.61826 0.42353 0.55000
O 	O 	0.26873 0.77730 0.32887 -0.59700
O 	O 	0.33020 0.59820 0.26029 -0.63200
O 	O 	0.71365 0.49670 0.37523 -0.60300
O 	O 	0.79837 0.70090 0.42522 -0.56800
O 	O 	0.20480 0.85510 0.19028 -1.58100
O 	O 	0.32541 0.57350 0.39463 -0.51200
O 	O 	0.71048 0.56800 0.49964 -0.51700
C 	C 	0.44790 0.73910 0.35810 -0.42900
H 	H 	0.45420 0.79920 0.31800 0.15500
H 	H 	0.45230 0.79290 0.40290 0.14100
C 	C 	0.52730 0.64310 0.37230 0.22200
H 	H 	0.52310 0.58640 0.32860 -0.02700
H 	H 	0.52450 0.58610 0.41460 -0.09700
C 	C 	0.61740 0.71730 0.38860 -0.45000
H 	H 	0.61510 0.78760 0.42470 0.12900
H 	H 	0.62450 0.76010 0.34270 0.13900
H 	H 	0.21500 0.79200 0.19500 0.82300
V 	V 	0.74800 0.45280 0.28282 1.28100
O 	O 	0.84570 0.50840 0.28350 -0.55800
V 	V 	0.69530 0.42500 0.28130 1.30200
O 	O 	0.59060 0.37700 0.27080 -0.46900
V 	V 	0.33807 0.38449 0.41610 1.74100
P 	P 	0.83829 0.16724 0.33410 0.55200
P 	P 	0.21446 0.11826 0.42353 0.55200
O 	O 	0.76873 0.27730 0.32887 -0.59700
O 	O 	0.83020 0.09820 0.26029 -0.62900
O 	O 	0.21365 0.99670 0.37523 -0.60500
O 	O 	0.29837 0.20090 0.42522 -0.56800
O 	O 	0.70480 0.35510 0.19028 -1.57700
O 	O 	0.82541 0.07350 0.39463 -0.51000
O 	O 	0.21048 0.06800 0.49964 -0.51700
C 	C 	0.94790 0.23910 0.35810 -0.42700
H 	H 	0.95420 0.29920 0.31800 0.15500
H 	H 	0.95230 0.29290 0.40290 0.14100
C 	C 	0.02730 0.14310 0.37230 0.22100
H 	H 	0.02310 0.08640 0.32860 -0.02600
H 	H 	0.02450 0.08610 0.41460 -0.09700
C 	C 	0.11740 0.21730 0.38860 -0.45000
H 	H 	0.11510 0.28760 0.42470 0.12900
H 	H 	0.12450 0.26010 0.34270 0.14000
H 	H 	0.71500 0.29200 0.19500 0.82100
V 	V 	0.24800 0.04720 0.78282 1.27900
O 	O 	0.34570 0.99160 0.78350 -0.55300
V 	V 	0.19530 0.07500 0.78130 1.30200
O 	O 	0.09060 0.12300 0.77080 -0.47200
V 	V 	0.83807 0.11551 0.91610 1.73700
P 	P 	0.33829 0.33276 0.83410 0.55200
P 	P 	0.71446 0.38174 0.92353 0.55000
O 	O 	0.26873 0.22270 0.82887 -0.59800
O 	O 	0.33020 0.40180 0.76029 -0.63200
O 	O 	0.71365 0.50330 0.87523 -0.60300
O 	O 	0.79837 0.29910 0.92522 -0.57000
O 	O 	0.20480 0.14490 0.69028 -1.57900
O 	O 	0.32541 0.42650 0.89463 -0.51200
O 	O 	0.71048 0.43200 0.99964 -0.51800
C 	C 	0.44790 0.26090 0.85810 -0.42700
H 	H 	0.45420 0.20080 0.81800 0.15400
H 	H 	0.45230 0.20710 0.90290 0.13900
C 	C 	0.52730 0.35690 0.87230 0.22100
H 	H 	0.52310 0.41360 0.82860 -0.02600
H 	H 	0.52450 0.41390 0.91460 -0.09700
C 	C 	0.61740 0.28270 0.88860 -0.44900
H 	H 	0.61510 0.21240 0.92470 0.12700
H 	H 	0.62450 0.23990 0.84270 0.13900
H 	H 	0.21500 0.20800 0.69500 0.82200
V 	V 	0.74800 0.54720 0.78282 1.28100
O 	O 	0.84570 0.49160 0.78350 -0.55900
V 	V 	0.69530 0.57500 0.78130 1.30200
O 	O 	0.59060 0.62300 0.77080 -0.46900
V 	V 	0.33807 0.61551 0.91610 1.74100
P 	P 	0.83829 0.83276 0.83410 0.55300
P 	P 	0.21446 0.88174 0.92353 0.55600
O 	O 	0.76873 0.72270 0.82887 -0.59700
O 	O 	0.83020 0.90180 0.76029 -0.63000
O 	O 	0.21365 0.00330 0.87523 -0.61100
O 	O 	0.29837 0.79910 0.92522 -0.56600
O 	O 	0.70480 0.64490 0.69028 -1.57700
O 	O 	0.82541 0.92650 0.89463 -0.50900
O 	O 	0.21048 0.93200 0.99964 -0.51200
C 	C 	0.94790 0.76090 0.85810 -0.43000
H 	H 	0.95420 0.70080 0.81800 0.15500
H 	H 	0.95230 0.70710 0.90290 0.14100
C 	C 	0.02730 0.85690 0.87230 0.22300
H 	H 	0.02310 0.91360 0.82860 -0.02500
H 	H 	0.02450 0.91390 0.91460 -0.09500
C 	C 	0.11740 0.78270 0.88860 -0.45100
H 	H 	0.11510 0.71240 0.92470 0.13000
H 	H 	0.12450 0.73990 0.84270 0.14000
H 	H 	0.71500 0.70800 0.69500 0.82100
V 	V 	0.75200 0.04720 0.71718 1.28000
O 	O 	0.65430 0.99160 0.71650 -0.55500
V 	V 	0.80470 0.07500 0.71870 1.30200
O 	O 	0.90940 0.12300 0.72920 -0.47100
V 	V 	0.16193 0.11551 0.58390 1.74000
P 	P 	0.66171 0.33276 0.66590 0.55200
P 	P 	0.28554 0.38174 0.57647 0.55000
O 	O 	0.73127 0.22270 0.67113 -0.59700
O 	O 	0.66980 0.40180 0.73971 -0.63200
O 	O 	0.28635 0.50330 0.62477 -0.60300
O 	O 	0.20163 0.29910 0.57478 -0.56800
O 	O 	0.79520 0.14490 0.80972 -1.58100
O 	O 	0.67459 0.42650 0.60537 -0.51200
O 	O 	0.28952 0.43200 0.50036 -0.51700
C 	C 	0.55210 0.26090 0.64190 -0.42900
H 	H 	0.54580 0.20080 0.68200 0.15500
H 	H 	0.54770 0.20710 0.59710 0.14100
C 	C 	0.47270 0.35690 0.62770 0.22200
H 	H 	0.47690 0.41360 0.67140 -0.02700
H 	H 	0.47550 0.41390 0.58540 -0.09700
C 	C 	0.38260 0.28270 0.61140 -0.45000
H 	H 	0.38490 0.21240 0.57530 0.12900
H 	H 	0.37550 0.23990 0.65730 0.13900
H 	H 	0.78500 0.20800 0.80500 0.82300
V 	V 	0.25200 0.54720 0.71718 1.28100
O 	O 	0.15430 0.49160 0.71650 -0.55800
V 	V 	0.30470 0.57500 0.71870 1.30200
O 	O 	0.40940 0.62300 0.72920 -0.46900
V 	V 	0.66193 0.61551 0.58390 1.74100
P 	P 	0.16171 0.83276 0.66590 0.55200
P 	P 	0.78554 0.88174 0.57647 0.55200
O 	O 	0.23127 0.72270 0.67113 -0.59700
O 	O 	0.16980 0.90180 0.73971 -0.62900
O 	O 	0.78635 0.00330 0.62477 -0.60500
O 	O 	0.70163 0.79910 0.57478 -0.56800
O 	O 	0.29520 0.64490 0.80972 -1.57700
O 	O 	0.17459 0.92650 0.60537 -0.51000
O 	O 	0.78952 0.93200 0.50036 -0.51700
C 	C 	0.05210 0.76090 0.64190 -0.42700
H 	H 	0.04580 0.70080 0.68200 0.15500
H 	H 	0.04770 0.70710 0.59710 0.14100
C 	C 	0.97270 0.85690 0.62770 0.22100
H 	H 	0.97690 0.91360 0.67140 -0.02600
H 	H 	0.97550 0.91390 0.58540 -0.09700
C 	C 	0.88260 0.78270 0.61140 -0.45000
H 	H 	0.88490 0.71240 0.57530 0.12900
H 	H 	0.87550 0.73990 0.65730 0.14000
H 	H 	0.28500 0.70800 0.80500 0.82100
