data_crystal

_cell_length_a 15.82200
_cell_length_b 10.06140
_cell_length_c 18.61030
_cell_angle_alpha 90.00000
_cell_angle_beta  104.29200
_cell_angle_gamma 90.00000

_symmetry_space_group_name_	'P 1'
_symmetry_space_group_name_H-M	'P 1'

loop_
_symmetry_equiv_pos_as_xyz
  x,y,z

loop_
_atom_site_label
_atom_site_type_symbol
_atom_site_fract_x
_atom_site_fract_y
_atom_site_fract_z
_atom_site_charge
V 	V 	0.16162 0.12474 0.08518 1.75200
V 	V 	0.74245 0.44856 0.78521 1.32100
V 	V 	0.19140 0.91490 0.78090 1.24700
P 	P 	0.84231 0.16633 0.83475 0.55300
P 	P 	0.20657 0.11775 0.92207 0.55700
O 	O 	0.77403 0.27390 0.83275 -0.63700
O 	O 	0.83535 0.51120 0.78992 -0.60500
O 	O 	0.83310 0.09580 0.76066 -0.65300
O 	O 	0.20289 0.99090 0.87543 -0.66000
O 	O 	0.20314 0.07060 0.99957 -0.52000
O 	O 	0.83721 0.06910 0.89728 -0.50100
O 	O 	0.28742 0.19850 0.92214 -0.59500
O 	O 	0.20400 0.14810 0.19204 -2.37700
C 	C 	0.94850 0.24250 0.85697 -0.43000
H 	H 	0.95280 0.30230 0.81570 0.14400
H 	H 	0.95410 0.29810 0.90180 0.13100
C 	C 	0.11230 0.21880 0.88590 -0.46400
H 	H 	0.11120 0.29150 0.92150 0.12500
H 	H 	0.11810 0.26000 0.83910 0.13800
C 	C 	0.02490 0.14490 0.87076 0.25000
H 	H 	0.01910 0.08690 0.82690 -0.08800
H 	H 	0.02340 0.08790 0.91380 -0.11200
H 	H 	0.21500 0.20500 0.19600 1.43700
V 	V 	0.66162 0.62474 0.08518 1.75500
V 	V 	0.24245 0.94856 0.78521 1.31800
V 	V 	0.69140 0.41490 0.78090 1.24600
P 	P 	0.34231 0.66633 0.83475 0.55100
P 	P 	0.70657 0.61775 0.92207 0.55000
O 	O 	0.27403 0.77390 0.83275 -0.64000
O 	O 	0.33535 0.01120 0.78992 -0.60100
O 	O 	0.33310 0.59580 0.76066 -0.65600
O 	O 	0.70289 0.49090 0.87543 -0.65100
O 	O 	0.70314 0.57060 0.99957 -0.52600
O 	O 	0.33721 0.56910 0.89728 -0.50400
O 	O 	0.78742 0.69850 0.92214 -0.59900
O 	O 	0.70400 0.64810 0.19204 -2.37100
C 	C 	0.44850 0.74250 0.85697 -0.42800
H 	H 	0.45280 0.80230 0.81570 0.14300
H 	H 	0.45410 0.79810 0.90180 0.12900
C 	C 	0.61230 0.71880 0.88590 -0.46200
H 	H 	0.61120 0.79150 0.92150 0.12200
H 	H 	0.61810 0.76000 0.83910 0.13600
C 	C 	0.52490 0.64490 0.87076 0.24800
H 	H 	0.51910 0.58690 0.82690 -0.08900
H 	H 	0.52340 0.58790 0.91380 -0.11300
H 	H 	0.71500 0.70500 0.19600 1.43400
V 	V 	0.83838 0.12474 0.41482 1.75400
V 	V 	0.25755 0.44856 0.71479 1.32000
V 	V 	0.80860 0.91490 0.71910 1.24600
P 	P 	0.15769 0.16633 0.66525 0.55100
P 	P 	0.79343 0.11775 0.57793 0.55200
O 	O 	0.22597 0.27390 0.66725 -0.63800
O 	O 	0.16465 0.51120 0.71008 -0.60600
O 	O 	0.16690 0.09580 0.73934 -0.65300
O 	O 	0.79711 0.99090 0.62457 -0.65400
O 	O 	0.79686 0.07060 0.50043 -0.52500
O 	O 	0.16279 0.06910 0.60272 -0.50200
O 	O 	0.71258 0.19850 0.57786 -0.59600
O 	O 	0.79600 0.14810 0.30796 -2.37500
C 	C 	0.05150 0.24250 0.64303 -0.42800
H 	H 	0.04720 0.30230 0.68430 0.14400
H 	H 	0.04590 0.29810 0.59820 0.13100
C 	C 	0.88770 0.21880 0.61410 -0.46300
H 	H 	0.88880 0.29150 0.57850 0.12400
H 	H 	0.88190 0.26000 0.66090 0.13700
C 	C 	0.97510 0.14490 0.62924 0.24800
H 	H 	0.98090 0.08690 0.67310 -0.08900
H 	H 	0.97660 0.08790 0.58620 -0.11300
H 	H 	0.78500 0.20500 0.30400 1.43500
V 	V 	0.33838 0.62474 0.41482 1.75400
V 	V 	0.75755 0.94856 0.71479 1.31800
V 	V 	0.30860 0.41490 0.71910 1.24600
P 	P 	0.65769 0.66633 0.66525 0.55100
P 	P 	0.29343 0.61775 0.57793 0.55100
O 	O 	0.72597 0.77390 0.66725 -0.63900
O 	O 	0.66465 0.01120 0.71008 -0.60200
O 	O 	0.66690 0.59580 0.73934 -0.65600
O 	O 	0.29711 0.49090 0.62457 -0.65200
O 	O 	0.29686 0.57060 0.50043 -0.52400
O 	O 	0.66279 0.56910 0.60272 -0.50300
O 	O 	0.21258 0.69850 0.57786 -0.59700
O 	O 	0.29600 0.64810 0.30796 -2.37100
C 	C 	0.55150 0.74250 0.64303 -0.42900
H 	H 	0.54720 0.80230 0.68430 0.14300
H 	H 	0.54590 0.79810 0.59820 0.13100
C 	C 	0.38770 0.71880 0.61410 -0.46300
H 	H 	0.38880 0.79150 0.57850 0.12400
H 	H 	0.38190 0.76000 0.66090 0.13700
C 	C 	0.47510 0.64490 0.62924 0.24900
H 	H 	0.48090 0.58690 0.67310 -0.09000
H 	H 	0.47660 0.58790 0.58620 -0.11300
H 	H 	0.28500 0.70500 0.30400 1.43400
V 	V 	0.83838 0.87526 0.91482 1.75100
V 	V 	0.25755 0.55144 0.21479 1.32000
V 	V 	0.80860 0.08510 0.21910 1.24600
P 	P 	0.15769 0.83367 0.16525 0.55200
P 	P 	0.79343 0.88225 0.07793 0.55600
O 	O 	0.22597 0.72610 0.16725 -0.63800
O 	O 	0.16465 0.48880 0.21008 -0.60600
O 	O 	0.16690 0.90420 0.23934 -0.65400
O 	O 	0.79711 0.00910 0.12457 -0.66000
O 	O 	0.79686 0.92940 0.00043 -0.52000
O 	O 	0.16279 0.93090 0.10272 -0.50100
O 	O 	0.71258 0.80150 0.07786 -0.59500
O 	O 	0.79600 0.85190 0.80796 -2.37700
C 	C 	0.05150 0.75750 0.14303 -0.43000
H 	H 	0.04720 0.69770 0.18430 0.14400
H 	H 	0.04590 0.70190 0.09820 0.13100
C 	C 	0.88770 0.78120 0.11410 -0.46400
H 	H 	0.88880 0.70850 0.07850 0.12500
H 	H 	0.88190 0.74000 0.16090 0.13800
C 	C 	0.97510 0.85510 0.12924 0.25000
H 	H 	0.98090 0.91310 0.17310 -0.08800
H 	H 	0.97660 0.91210 0.08620 -0.11200
H 	H 	0.78500 0.79500 0.80400 1.43700
V 	V 	0.33838 0.37526 0.91482 1.75500
V 	V 	0.75755 0.05144 0.21479 1.31800
V 	V 	0.30860 0.58510 0.21910 1.24600
P 	P 	0.65769 0.33367 0.16525 0.55100
P 	P 	0.29343 0.38225 0.07793 0.55000
O 	O 	0.72597 0.22610 0.16725 -0.64000
O 	O 	0.66465 0.98880 0.21008 -0.60100
O 	O 	0.66690 0.40420 0.23934 -0.65600
O 	O 	0.29711 0.50910 0.12457 -0.65100
O 	O 	0.29686 0.42940 0.00043 -0.52600
O 	O 	0.66279 0.43090 0.10272 -0.50400
O 	O 	0.21258 0.30150 0.07786 -0.59900
O 	O 	0.29600 0.35190 0.80796 -2.37100
C 	C 	0.55150 0.25750 0.14303 -0.42800
H 	H 	0.54720 0.19770 0.18430 0.14300
H 	H 	0.54590 0.20190 0.09820 0.12900
C 	C 	0.38770 0.28120 0.11410 -0.46200
H 	H 	0.38880 0.20850 0.07850 0.12200
H 	H 	0.38190 0.24000 0.16090 0.13600
C 	C 	0.47510 0.35510 0.12924 0.24800
H 	H 	0.48090 0.41310 0.17310 -0.08900
H 	H 	0.47660 0.41210 0.08620 -0.11300
H 	H 	0.28500 0.29500 0.80400 1.43400
V 	V 	0.16162 0.87526 0.58518 1.75400
V 	V 	0.74245 0.55144 0.28521 1.32000
V 	V 	0.19140 0.08510 0.28090 1.24600
P 	P 	0.84231 0.83367 0.33475 0.55100
P 	P 	0.20657 0.88225 0.42207 0.55200
O 	O 	0.77403 0.72610 0.33275 -0.63800
O 	O 	0.83535 0.48880 0.28992 -0.60600
O 	O 	0.83310 0.90420 0.26066 -0.65300
O 	O 	0.20289 0.00910 0.37543 -0.65400
O 	O 	0.20314 0.92940 0.49957 -0.52500
O 	O 	0.83721 0.93090 0.39728 -0.50200
O 	O 	0.28742 0.80150 0.42214 -0.59600
O 	O 	0.20400 0.85190 0.69204 -2.37500
C 	C 	0.94850 0.75750 0.35697 -0.42800
H 	H 	0.95280 0.69770 0.31570 0.14400
H 	H 	0.95410 0.70190 0.40180 0.13100
C 	C 	0.11230 0.78120 0.38590 -0.46300
H 	H 	0.11120 0.70850 0.42150 0.12400
H 	H 	0.11810 0.74000 0.33910 0.13700
C 	C 	0.02490 0.85510 0.37076 0.24800
H 	H 	0.01910 0.91310 0.32690 -0.08900
H 	H 	0.02340 0.91210 0.41380 -0.11300
H 	H 	0.21500 0.79500 0.69600 1.43500
V 	V 	0.66162 0.37526 0.58518 1.75400
V 	V 	0.24245 0.05144 0.28521 1.31800
V 	V 	0.69140 0.58510 0.28090 1.24600
P 	P 	0.34231 0.33367 0.33475 0.55100
P 	P 	0.70657 0.38225 0.42207 0.55100
O 	O 	0.27403 0.22610 0.33275 -0.63900
O 	O 	0.33535 0.98880 0.28992 -0.60200
O 	O 	0.33310 0.40420 0.26066 -0.65600
O 	O 	0.70289 0.50910 0.37543 -0.65200
O 	O 	0.70314 0.42940 0.49957 -0.52400
O 	O 	0.33721 0.43090 0.39728 -0.50300
O 	O 	0.78742 0.30150 0.42214 -0.59700
O 	O 	0.70400 0.35190 0.69204 -2.37100
C 	C 	0.44850 0.25750 0.35697 -0.42900
H 	H 	0.45280 0.19770 0.31570 0.14300
H 	H 	0.45410 0.20190 0.40180 0.13100
C 	C 	0.61230 0.28120 0.38590 -0.46300
H 	H 	0.61120 0.20850 0.42150 0.12400
H 	H 	0.61810 0.24000 0.33910 0.13700
C 	C 	0.52490 0.35510 0.37076 0.24900
H 	H 	0.51910 0.41310 0.32690 -0.09000
H 	H 	0.52340 0.41210 0.41380 -0.11300
H 	H 	0.71500 0.29500 0.69600 1.43400
