data_crystal

_cell_length_a 15.08770
_cell_length_b 10.20270
_cell_length_c 18.63760
_cell_angle_alpha 90.00000
_cell_angle_beta  102.52100
_cell_angle_gamma 90.00000

_symmetry_space_group_name_	'P 1'
_symmetry_space_group_name_H-M	'P 1'

loop_
_symmetry_equiv_pos_as_xyz
  x,y,z

loop_
_atom_site_label
_atom_site_type_symbol
_atom_site_fract_x
_atom_site_fract_y
_atom_site_fract_z
_atom_site_charge
V 	V 	0.16060 0.61538 0.08485 1.70400
V 	V 	0.24829 0.54620 0.28319 1.70500
P 	P 	0.28632 0.87848 0.07721 0.52500
P 	P 	0.66411 0.83098 0.16562 0.47600
O 	O 	0.20149 0.79780 0.07685 -0.58200
O 	O 	0.29072 0.92820 0.00058 -0.53600
O 	O 	0.67506 0.92570 0.10450 -0.54800
O 	O 	0.20282 0.64420 0.19135 -0.73700
O 	O 	0.73425 0.72180 0.17027 -0.53400
O 	O 	0.28878 0.00060 0.12552 -0.53000
O 	O 	0.67100 0.90010 0.23946 -0.56500
C 	C 	0.38400 0.77830 0.11120 -0.40400
H 	H 	0.37620 0.73440 0.15680 0.10500
H 	H 	0.38710 0.70920 0.07450 0.09600
C 	C 	0.55390 0.75720 0.14274 -0.37100
H 	H 	0.55050 0.70160 0.09870 0.08800
H 	H 	0.54700 0.69900 0.18370 0.07400
C 	C 	0.47390 0.85330 0.12749 0.18900
H 	H 	0.47660 0.91070 0.17070 -0.04600
H 	H 	0.47790 0.90940 0.08500 -0.10200
V 	V 	0.66060 0.11538 0.08485 1.70200
V 	V 	0.74829 0.04620 0.28319 1.70500
P 	P 	0.78632 0.37848 0.07721 0.52200
P 	P 	0.16411 0.33098 0.16562 0.47600
O 	O 	0.70149 0.29780 0.07685 -0.58400
O 	O 	0.79072 0.42820 0.00058 -0.53900
O 	O 	0.17506 0.42570 0.10450 -0.55200
O 	O 	0.70282 0.14420 0.19135 -0.73900
O 	O 	0.23425 0.22180 0.17027 -0.53500
O 	O 	0.78878 0.50060 0.12552 -0.52400
O 	O 	0.17100 0.40010 0.23946 -0.56700
C 	C 	0.88400 0.27830 0.11120 -0.40400
H 	H 	0.87620 0.23440 0.15680 0.10500
H 	H 	0.88710 0.20920 0.07450 0.09500
C 	C 	0.05390 0.25720 0.14274 -0.37200
H 	H 	0.05050 0.20160 0.09870 0.08700
H 	H 	0.04700 0.19900 0.18370 0.07400
C 	C 	0.97390 0.35330 0.12749 0.19000
H 	H 	0.97660 0.41070 0.17070 -0.04700
H 	H 	0.97790 0.40940 0.08500 -0.10400
V 	V 	0.83940 0.61538 0.41515 1.70500
V 	V 	0.75171 0.54620 0.21681 1.70600
P 	P 	0.71368 0.87848 0.42279 0.52400
P 	P 	0.33589 0.83098 0.33438 0.47700
O 	O 	0.79851 0.79780 0.42315 -0.58200
O 	O 	0.70928 0.92820 0.49942 -0.53800
O 	O 	0.32494 0.92570 0.39550 -0.55100
O 	O 	0.79718 0.64420 0.30865 -0.73700
O 	O 	0.26575 0.72180 0.32973 -0.53400
O 	O 	0.71122 0.00060 0.37448 -0.52600
O 	O 	0.32900 0.90010 0.26054 -0.56500
C 	C 	0.61600 0.77830 0.38880 -0.40500
H 	H 	0.62380 0.73440 0.34320 0.10500
H 	H 	0.61290 0.70920 0.42550 0.09600
C 	C 	0.44610 0.75720 0.35726 -0.37200
H 	H 	0.44950 0.70160 0.40130 0.08800
H 	H 	0.45300 0.69900 0.31630 0.07500
C 	C 	0.52610 0.85330 0.37251 0.19000
H 	H 	0.52340 0.91070 0.32930 -0.04700
H 	H 	0.52210 0.90940 0.41500 -0.10400
V 	V 	0.33940 0.11538 0.41515 1.70500
V 	V 	0.25171 0.04620 0.21681 1.70500
P 	P 	0.21368 0.37848 0.42279 0.52200
P 	P 	0.83589 0.33098 0.33438 0.47700
O 	O 	0.29851 0.29780 0.42315 -0.58300
O 	O 	0.20928 0.42820 0.49942 -0.53800
O 	O 	0.82494 0.42570 0.39550 -0.55200
O 	O 	0.29718 0.14420 0.30865 -0.73800
O 	O 	0.76575 0.22180 0.32973 -0.53500
O 	O 	0.21122 0.50060 0.37448 -0.52400
O 	O 	0.82900 0.40010 0.26054 -0.56700
C 	C 	0.11600 0.27830 0.38880 -0.40500
H 	H 	0.12380 0.23440 0.34320 0.10500
H 	H 	0.11290 0.20920 0.42550 0.09600
C 	C 	0.94610 0.25720 0.35726 -0.37200
H 	H 	0.94950 0.20160 0.40130 0.08800
H 	H 	0.95300 0.19900 0.31630 0.07400
C 	C 	0.02610 0.35330 0.37251 0.19000
H 	H 	0.02340 0.41070 0.32930 -0.04700
H 	H 	0.02210 0.40940 0.41500 -0.10400
V 	V 	0.83940 0.38462 0.91515 1.70500
V 	V 	0.75171 0.45380 0.71681 1.70600
P 	P 	0.71368 0.12152 0.92279 0.52600
P 	P 	0.33589 0.16902 0.83438 0.47700
O 	O 	0.79851 0.20220 0.92315 -0.58200
O 	O 	0.70928 0.07180 0.99942 -0.53600
O 	O 	0.32494 0.07430 0.89550 -0.54800
O 	O 	0.79718 0.35580 0.80865 -0.73700
O 	O 	0.26575 0.27820 0.82973 -0.53400
O 	O 	0.71122 0.99940 0.87448 -0.53000
O 	O 	0.32900 0.09990 0.76054 -0.56500
C 	C 	0.61600 0.22170 0.88880 -0.40400
H 	H 	0.62380 0.26560 0.84320 0.10500
H 	H 	0.61290 0.29080 0.92550 0.09600
C 	C 	0.44610 0.24280 0.85726 -0.37100
H 	H 	0.44950 0.29840 0.90130 0.08800
H 	H 	0.45300 0.30100 0.81630 0.07400
C 	C 	0.52610 0.14670 0.87251 0.18900
H 	H 	0.52340 0.08930 0.82930 -0.04600
H 	H 	0.52210 0.09060 0.91500 -0.10200
V 	V 	0.33940 0.88462 0.91515 1.70200
V 	V 	0.25171 0.95380 0.71681 1.70500
P 	P 	0.21368 0.62152 0.92279 0.52200
P 	P 	0.83589 0.66902 0.83438 0.47600
O 	O 	0.29851 0.70220 0.92315 -0.58400
O 	O 	0.20928 0.57180 0.99942 -0.53900
O 	O 	0.82494 0.57430 0.89550 -0.55200
O 	O 	0.29718 0.85580 0.80865 -0.73900
O 	O 	0.76575 0.77820 0.82973 -0.53500
O 	O 	0.21122 0.49940 0.87448 -0.52400
O 	O 	0.82900 0.59990 0.76054 -0.56700
C 	C 	0.11600 0.72170 0.88880 -0.40400
H 	H 	0.12380 0.76560 0.84320 0.10500
H 	H 	0.11290 0.79080 0.92550 0.09500
C 	C 	0.94610 0.74280 0.85726 -0.37200
H 	H 	0.94950 0.79840 0.90130 0.08700
H 	H 	0.95300 0.80100 0.81630 0.07400
C 	C 	0.02610 0.64670 0.87251 0.19000
H 	H 	0.02340 0.58930 0.82930 -0.04700
H 	H 	0.02210 0.59060 0.91500 -0.10400
V 	V 	0.16060 0.38462 0.58485 1.70500
V 	V 	0.24829 0.45380 0.78319 1.70600
P 	P 	0.28632 0.12152 0.57721 0.52400
P 	P 	0.66411 0.16902 0.66562 0.47700
O 	O 	0.20149 0.20220 0.57685 -0.58200
O 	O 	0.29072 0.07180 0.50058 -0.53800
O 	O 	0.67506 0.07430 0.60450 -0.55100
O 	O 	0.20282 0.35580 0.69135 -0.73700
O 	O 	0.73425 0.27820 0.67027 -0.53400
O 	O 	0.28878 0.99940 0.62552 -0.52600
O 	O 	0.67100 0.09990 0.73946 -0.56500
C 	C 	0.38400 0.22170 0.61120 -0.40500
H 	H 	0.37620 0.26560 0.65680 0.10500
H 	H 	0.38710 0.29080 0.57450 0.09600
C 	C 	0.55390 0.24280 0.64274 -0.37200
H 	H 	0.55050 0.29840 0.59870 0.08800
H 	H 	0.54700 0.30100 0.68370 0.07500
C 	C 	0.47390 0.14670 0.62749 0.19000
H 	H 	0.47660 0.08930 0.67070 -0.04700
H 	H 	0.47790 0.09060 0.58500 -0.10400
V 	V 	0.66060 0.88462 0.58485 1.70500
V 	V 	0.74829 0.95380 0.78319 1.70500
P 	P 	0.78632 0.62152 0.57721 0.52200
P 	P 	0.16411 0.66902 0.66562 0.47700
O 	O 	0.70149 0.70220 0.57685 -0.58300
O 	O 	0.79072 0.57180 0.50058 -0.53800
O 	O 	0.17506 0.57430 0.60450 -0.55200
O 	O 	0.70282 0.85580 0.69135 -0.73800
O 	O 	0.23425 0.77820 0.67027 -0.53500
O 	O 	0.78878 0.49940 0.62552 -0.52400
O 	O 	0.17100 0.59990 0.73946 -0.56700
C 	C 	0.88400 0.72170 0.61120 -0.40500
H 	H 	0.87620 0.76560 0.65680 0.10500
H 	H 	0.88710 0.79080 0.57450 0.09600
C 	C 	0.05390 0.74280 0.64274 -0.37200
H 	H 	0.05050 0.79840 0.59870 0.08800
H 	H 	0.04700 0.80100 0.68370 0.07400
C 	C 	0.97390 0.64670 0.62749 0.19000
H 	H 	0.97660 0.58930 0.67070 -0.04700
H 	H 	0.97790 0.59060 0.58500 -0.10400
