data_crystal

_cell_length_a 15.00300
_cell_length_b 10.12600
_cell_length_c 18.60400
_cell_angle_alpha 90.00000
_cell_angle_beta  101.00000
_cell_angle_gamma 90.00000

_symmetry_space_group_name_	'P 1'
_symmetry_space_group_name_H-M	'P 1'

loop_
_symmetry_equiv_pos_as_xyz
  x,y,z

loop_
_atom_site_label
_atom_site_type_symbol
_atom_site_fract_x
_atom_site_fract_y
_atom_site_fract_z
_atom_site_charge
V 	V 	0.15898 0.38593 0.08585 1.76900
V 	V 	0.24682 0.45413 0.28135 1.75000
P 	P 	0.78574 0.62254 0.07702 0.52400
P 	P 	0.16260 0.66987 0.16686 0.48600
O 	O 	0.17600 0.57590 0.10549 -0.48900
O 	O 	0.79210 0.57180 0.00090 -0.52900
O 	O 	0.19920 0.35770 0.19110 -2.63000
O 	O 	0.70000 0.70180 0.07700 -0.61400
O 	O 	0.78730 0.50050 0.12562 -0.53100
O 	O 	0.16660 0.59880 0.24010 -0.54400
O 	O 	0.23420 0.77820 0.17240 -0.58000
C 	C 	0.88260 0.72430 0.11020 -0.46000
H 	H 	0.88670 0.79180 0.07400 0.12100
H 	H 	0.87340 0.76850 0.15450 0.11300
C 	C 	0.97240 0.64950 0.12680 0.23900
H 	H 	0.97860 0.59570 0.08490 -0.10900
H 	H 	0.97270 0.59120 0.16820 -0.04800
C 	C 	0.05270 0.74500 0.14430 -0.41400
H 	H 	0.04410 0.80040 0.18490 0.09000
H 	H 	0.05160 0.80210 0.10220 0.10500
H 	H 	0.20800 0.30400 0.19800 1.73800
V 	V 	0.65898 0.88593 0.08585 1.76700
V 	V 	0.74682 0.95413 0.28135 1.74900
P 	P 	0.28574 0.12254 0.07702 0.52400
P 	P 	0.66260 0.16987 0.16686 0.48600
O 	O 	0.67600 0.07590 0.10549 -0.48400
O 	O 	0.29210 0.07180 0.00090 -0.52400
O 	O 	0.69920 0.85770 0.19110 -2.63700
O 	O 	0.20000 0.20180 0.07700 -0.61000
O 	O 	0.28730 0.00050 0.12562 -0.52700
O 	O 	0.66660 0.09880 0.24010 -0.54100
O 	O 	0.73420 0.27820 0.17240 -0.57700
C 	C 	0.38260 0.22430 0.11020 -0.45900
H 	H 	0.38670 0.29180 0.07400 0.12300
H 	H 	0.37340 0.26850 0.15450 0.11300
C 	C 	0.47240 0.14950 0.12680 0.23800
H 	H 	0.47860 0.09570 0.08490 -0.10800
H 	H 	0.47270 0.09120 0.16820 -0.04700
C 	C 	0.55270 0.24500 0.14430 -0.41300
H 	H 	0.54410 0.30040 0.18490 0.09100
H 	H 	0.55160 0.30210 0.10220 0.10600
H 	H 	0.70800 0.80400 0.19800 1.74200
V 	V 	0.84102 0.38593 0.41415 1.77000
V 	V 	0.75318 0.45413 0.21865 1.75100
P 	P 	0.21426 0.62254 0.42298 0.52400
P 	P 	0.83740 0.66987 0.33314 0.48600
O 	O 	0.82400 0.57590 0.39451 -0.48800
O 	O 	0.20790 0.57180 0.49910 -0.52800
O 	O 	0.80080 0.35770 0.30890 -2.62900
O 	O 	0.30000 0.70180 0.42300 -0.61200
O 	O 	0.21270 0.50050 0.37438 -0.53100
O 	O 	0.83340 0.59880 0.25990 -0.54400
O 	O 	0.76580 0.77820 0.32760 -0.57900
C 	C 	0.11740 0.72430 0.38980 -0.46100
H 	H 	0.11330 0.79180 0.42600 0.12300
H 	H 	0.12660 0.76850 0.34550 0.11400
C 	C 	0.02760 0.64950 0.37320 0.24000
H 	H 	0.02140 0.59570 0.41510 -0.10900
H 	H 	0.02730 0.59120 0.33180 -0.04900
C 	C 	0.94730 0.74500 0.35570 -0.41500
H 	H 	0.95590 0.80040 0.31510 0.09100
H 	H 	0.94840 0.80210 0.39780 0.10700
H 	H 	0.79200 0.30400 0.30200 1.73700
V 	V 	0.34102 0.88593 0.41415 1.76900
V 	V 	0.25318 0.95413 0.21865 1.74900
P 	P 	0.71426 0.12254 0.42298 0.52400
P 	P 	0.33740 0.16987 0.33314 0.48600
O 	O 	0.32400 0.07590 0.39451 -0.48700
O 	O 	0.70790 0.07180 0.49910 -0.52800
O 	O 	0.30080 0.85770 0.30890 -2.63300
O 	O 	0.80000 0.20180 0.42300 -0.61100
O 	O 	0.71270 0.00050 0.37438 -0.52900
O 	O 	0.33340 0.09880 0.25990 -0.54200
O 	O 	0.26580 0.27820 0.32760 -0.57800
C 	C 	0.61740 0.22430 0.38980 -0.46000
H 	H 	0.61330 0.29180 0.42600 0.12300
H 	H 	0.62660 0.26850 0.34550 0.11400
C 	C 	0.52760 0.14950 0.37320 0.24000
H 	H 	0.52140 0.09570 0.41510 -0.10900
H 	H 	0.52730 0.09120 0.33180 -0.04800
C 	C 	0.44730 0.24500 0.35570 -0.41500
H 	H 	0.45590 0.30040 0.31510 0.09100
H 	H 	0.44840 0.30210 0.39780 0.10700
H 	H 	0.29200 0.80400 0.30200 1.73900
V 	V 	0.84102 0.61407 0.91415 1.77000
V 	V 	0.75318 0.54587 0.71865 1.75100
P 	P 	0.21426 0.37746 0.92298 0.52400
P 	P 	0.83740 0.33013 0.83314 0.48600
O 	O 	0.82400 0.42410 0.89451 -0.48900
O 	O 	0.20790 0.42820 0.99910 -0.52900
O 	O 	0.80080 0.64230 0.80890 -2.63000
O 	O 	0.30000 0.29820 0.92300 -0.61400
O 	O 	0.21270 0.49950 0.87438 -0.53100
O 	O 	0.83340 0.40120 0.75990 -0.54400
O 	O 	0.76580 0.22180 0.82760 -0.58000
C 	C 	0.11740 0.27570 0.88980 -0.46000
H 	H 	0.11330 0.20820 0.92600 0.12100
H 	H 	0.12660 0.23150 0.84550 0.11300
C 	C 	0.02760 0.35050 0.87320 0.23900
H 	H 	0.02140 0.40430 0.91510 -0.10900
H 	H 	0.02730 0.40880 0.83180 -0.04800
C 	C 	0.94730 0.25500 0.85570 -0.41400
H 	H 	0.95590 0.19960 0.81510 0.09000
H 	H 	0.94840 0.19790 0.89780 0.10500
H 	H 	0.79200 0.69600 0.80200 1.73800
V 	V 	0.34102 0.11407 0.91415 1.76700
V 	V 	0.25318 0.04587 0.71865 1.74900
P 	P 	0.71426 0.87746 0.92298 0.52400
P 	P 	0.33740 0.83013 0.83314 0.48600
O 	O 	0.32400 0.92410 0.89451 -0.48400
O 	O 	0.70790 0.92820 0.99910 -0.52400
O 	O 	0.30080 0.14230 0.80890 -2.63700
O 	O 	0.80000 0.79820 0.92300 -0.61000
O 	O 	0.71270 0.99950 0.87438 -0.52700
O 	O 	0.33340 0.90120 0.75990 -0.54100
O 	O 	0.26580 0.72180 0.82760 -0.57700
C 	C 	0.61740 0.77570 0.88980 -0.45900
H 	H 	0.61330 0.70820 0.92600 0.12300
H 	H 	0.62660 0.73150 0.84550 0.11300
C 	C 	0.52760 0.85050 0.87320 0.23800
H 	H 	0.52140 0.90430 0.91510 -0.10800
H 	H 	0.52730 0.90880 0.83180 -0.04700
C 	C 	0.44730 0.75500 0.85570 -0.41300
H 	H 	0.45590 0.69960 0.81510 0.09100
H 	H 	0.44840 0.69790 0.89780 0.10600
H 	H 	0.29200 0.19600 0.80200 1.74200
V 	V 	0.15898 0.61407 0.58585 1.77000
V 	V 	0.24682 0.54587 0.78135 1.75100
P 	P 	0.78574 0.37746 0.57702 0.52400
P 	P 	0.16260 0.33013 0.66686 0.48600
O 	O 	0.17600 0.42410 0.60549 -0.48800
O 	O 	0.79210 0.42820 0.50090 -0.52800
O 	O 	0.19920 0.64230 0.69110 -2.62900
O 	O 	0.70000 0.29820 0.57700 -0.61200
O 	O 	0.78730 0.49950 0.62562 -0.53100
O 	O 	0.16660 0.40120 0.74010 -0.54400
O 	O 	0.23420 0.22180 0.67240 -0.57900
C 	C 	0.88260 0.27570 0.61020 -0.46100
H 	H 	0.88670 0.20820 0.57400 0.12300
H 	H 	0.87340 0.23150 0.65450 0.11400
C 	C 	0.97240 0.35050 0.62680 0.24000
H 	H 	0.97860 0.40430 0.58490 -0.10900
H 	H 	0.97270 0.40880 0.66820 -0.04900
C 	C 	0.05270 0.25500 0.64430 -0.41500
H 	H 	0.04410 0.19960 0.68490 0.09100
H 	H 	0.05160 0.19790 0.60220 0.10700
H 	H 	0.20800 0.69600 0.69800 1.73700
V 	V 	0.65898 0.11407 0.58585 1.76900
V 	V 	0.74682 0.04587 0.78135 1.74900
P 	P 	0.28574 0.87746 0.57702 0.52400
P 	P 	0.66260 0.83013 0.66686 0.48600
O 	O 	0.67600 0.92410 0.60549 -0.48700
O 	O 	0.29210 0.92820 0.50090 -0.52800
O 	O 	0.69920 0.14230 0.69110 -2.63300
O 	O 	0.20000 0.79820 0.57700 -0.61100
O 	O 	0.28730 0.99950 0.62562 -0.52900
O 	O 	0.66660 0.90120 0.74010 -0.54200
O 	O 	0.73420 0.72180 0.67240 -0.57800
C 	C 	0.38260 0.77570 0.61020 -0.46000
H 	H 	0.38670 0.70820 0.57400 0.12300
H 	H 	0.37340 0.73150 0.65450 0.11400
C 	C 	0.47240 0.85050 0.62680 0.24000
H 	H 	0.47860 0.90430 0.58490 -0.10900
H 	H 	0.47270 0.90880 0.66820 -0.04800
C 	C 	0.55270 0.75500 0.64430 -0.41500
H 	H 	0.54410 0.69960 0.68490 0.09100
H 	H 	0.55160 0.69790 0.60220 0.10700
H 	H 	0.70800 0.19600 0.69800 1.73900
