data_crystal

_cell_length_a 15.42280
_cell_length_b 10.20470
_cell_length_c 18.70780
_cell_angle_alpha 90.00000
_cell_angle_beta  103.83500
_cell_angle_gamma 90.00000

_symmetry_space_group_name_	'P 1'
_symmetry_space_group_name_H-M	'P 1'

loop_
_symmetry_equiv_pos_as_xyz
  x,y,z

loop_
_atom_site_label
_atom_site_type_symbol
_atom_site_fract_x
_atom_site_fract_y
_atom_site_fract_z
_atom_site_charge
V 	V 	0.16434 0.12191 0.08617 1.71400
V 	V 	0.24587 0.05145 0.28487 1.26000
V 	V 	0.18727 0.91703 0.78053 1.25200
P 	P 	0.29103 0.38197 0.07722 0.55000
P 	P 	0.66486 0.33569 0.16595 0.52800
O 	O 	0.20873 0.29907 0.07397 -0.62700
O 	O 	0.21375 0.14690 0.19040 -1.58200
O 	O 	0.67016 0.43049 0.10343 -0.55600
O 	O 	0.29677 0.43072 0.00092 -0.54500
O 	O 	0.29101 0.50534 0.12369 -0.70900
O 	O 	0.73269 0.22657 0.16785 -0.71600
O 	O 	0.67724 0.40470 0.23993 -0.76800
C 	C 	0.38812 0.28410 0.11431 -0.45500
H 	H 	0.39010 0.21140 0.07970 0.10400
H 	H 	0.38180 0.24490 0.16120 0.10800
C 	C 	0.47733 0.35840 0.12867 0.24800
H 	H 	0.48180 0.41880 0.17080 -0.12700
H 	H 	0.47980 0.41130 0.08490 -0.13100
C 	C 	0.55552 0.26250 0.14545 -0.41800
H 	H 	0.55030 0.20770 0.18790 0.08000
H 	H 	0.55030 0.20360 0.10260 0.08900
H 	H 	0.22000 0.21300 0.19500 0.68800
V 	V 	0.66434 0.62191 0.08617 1.71700
V 	V 	0.74587 0.55145 0.28487 1.26000
V 	V 	0.68727 0.41703 0.78053 1.25100
P 	P 	0.79103 0.88197 0.07722 0.55400
P 	P 	0.16486 0.83569 0.16595 0.52800
O 	O 	0.70873 0.79907 0.07397 -0.62400
O 	O 	0.71375 0.64690 0.19040 -1.57900
O 	O 	0.17016 0.93049 0.10343 -0.55300
O 	O 	0.79677 0.93072 0.00092 -0.54000
O 	O 	0.79101 0.00534 0.12369 -0.71500
O 	O 	0.23269 0.72657 0.16785 -0.71400
O 	O 	0.17724 0.90470 0.23993 -0.76600
C 	C 	0.88812 0.78410 0.11431 -0.45600
H 	H 	0.89010 0.71140 0.07970 0.10600
H 	H 	0.88180 0.74490 0.16120 0.10900
C 	C 	0.97733 0.85840 0.12867 0.24900
H 	H 	0.98180 0.91880 0.17080 -0.12600
H 	H 	0.97980 0.91130 0.08490 -0.12900
C 	C 	0.05552 0.76250 0.14545 -0.42000
H 	H 	0.05030 0.70770 0.18790 0.08100
H 	H 	0.05030 0.70360 0.10260 0.09000
H 	H 	0.72000 0.71300 0.19500 0.68700
V 	V 	0.83566 0.12191 0.41383 1.71600
V 	V 	0.75413 0.05145 0.21513 1.25900
V 	V 	0.81273 0.91703 0.71947 1.25100
P 	P 	0.70897 0.38197 0.42278 0.54900
P 	P 	0.33514 0.33569 0.33405 0.52800
O 	O 	0.79127 0.29907 0.42603 -0.62500
O 	O 	0.78625 0.14690 0.30960 -1.58000
O 	O 	0.32984 0.43049 0.39657 -0.55500
O 	O 	0.70323 0.43072 0.49908 -0.54300
O 	O 	0.70899 0.50534 0.37631 -0.70900
O 	O 	0.26731 0.22657 0.33215 -0.71500
O 	O 	0.32276 0.40470 0.26007 -0.76800
C 	C 	0.61188 0.28410 0.38569 -0.45500
H 	H 	0.60990 0.21140 0.42030 0.10500
H 	H 	0.61820 0.24490 0.33880 0.10900
C 	C 	0.52267 0.35840 0.37133 0.24900
H 	H 	0.51820 0.41880 0.32920 -0.12700
H 	H 	0.52020 0.41130 0.41510 -0.13100
C 	C 	0.44448 0.26250 0.35455 -0.41900
H 	H 	0.44970 0.20770 0.31210 0.08100
H 	H 	0.44970 0.20360 0.39740 0.09100
H 	H 	0.78000 0.21300 0.30500 0.68700
V 	V 	0.33566 0.62191 0.41383 1.71600
V 	V 	0.25413 0.55145 0.21513 1.26000
V 	V 	0.31273 0.41703 0.71947 1.25100
P 	P 	0.20897 0.88197 0.42278 0.55100
P 	P 	0.83514 0.83569 0.33405 0.52800
O 	O 	0.29127 0.79907 0.42603 -0.62500
O 	O 	0.28625 0.64690 0.30960 -1.57900
O 	O 	0.82984 0.93049 0.39657 -0.55400
O 	O 	0.20323 0.93072 0.49908 -0.54300
O 	O 	0.20899 0.00534 0.37631 -0.71000
O 	O 	0.76731 0.72657 0.33215 -0.71400
O 	O 	0.82276 0.90470 0.26007 -0.76500
C 	C 	0.11188 0.78410 0.38569 -0.45500
H 	H 	0.10990 0.71140 0.42030 0.10500
H 	H 	0.11820 0.74490 0.33880 0.10900
C 	C 	0.02267 0.85840 0.37133 0.24700
H 	H 	0.01820 0.91880 0.32920 -0.12600
H 	H 	0.02020 0.91130 0.41510 -0.13000
C 	C 	0.94448 0.76250 0.35455 -0.41700
H 	H 	0.94970 0.70770 0.31210 0.08100
H 	H 	0.94970 0.70360 0.39740 0.09000
H 	H 	0.28000 0.71300 0.30500 0.68700
V 	V 	0.83566 0.87809 0.91383 1.71300
V 	V 	0.75413 0.94855 0.71513 1.25900
V 	V 	0.81273 0.08297 0.21947 1.25100
P 	P 	0.70897 0.61803 0.92278 0.54900
P 	P 	0.33514 0.66431 0.83405 0.52800
O 	O 	0.79127 0.70093 0.92603 -0.62700
O 	O 	0.78625 0.85310 0.80960 -1.58200
O 	O 	0.32984 0.56951 0.89657 -0.55600
O 	O 	0.70323 0.56928 0.99908 -0.54500
O 	O 	0.70899 0.49466 0.87631 -0.70900
O 	O 	0.26731 0.77343 0.83215 -0.71600
O 	O 	0.32276 0.59530 0.76007 -0.76800
C 	C 	0.61188 0.71590 0.88569 -0.45500
H 	H 	0.60990 0.78860 0.92030 0.10400
H 	H 	0.61820 0.75510 0.83880 0.10800
C 	C 	0.52267 0.64160 0.87133 0.24800
H 	H 	0.51820 0.58120 0.82920 -0.12700
H 	H 	0.52020 0.58870 0.91510 -0.13100
C 	C 	0.44448 0.73750 0.85455 -0.41800
H 	H 	0.44970 0.79230 0.81210 0.08000
H 	H 	0.44970 0.79640 0.89740 0.08900
H 	H 	0.78000 0.78700 0.80500 0.68800
V 	V 	0.33566 0.37809 0.91383 1.71700
V 	V 	0.25413 0.44855 0.71513 1.26000
V 	V 	0.31273 0.58297 0.21947 1.25100
P 	P 	0.20897 0.11803 0.92278 0.55400
P 	P 	0.83514 0.16431 0.83405 0.52800
O 	O 	0.29127 0.20093 0.92603 -0.62400
O 	O 	0.28625 0.35310 0.80960 -1.57900
O 	O 	0.82984 0.06951 0.89657 -0.55300
O 	O 	0.20323 0.06928 0.99908 -0.54000
O 	O 	0.20899 0.99466 0.87631 -0.71500
O 	O 	0.76731 0.27343 0.83215 -0.71400
O 	O 	0.82276 0.09530 0.76007 -0.76600
C 	C 	0.11188 0.21590 0.88569 -0.45600
H 	H 	0.10990 0.28860 0.92030 0.10600
H 	H 	0.11820 0.25510 0.83880 0.10900
C 	C 	0.02267 0.14160 0.87133 0.24900
H 	H 	0.01820 0.08120 0.82920 -0.12600
H 	H 	0.02020 0.08870 0.91510 -0.12900
C 	C 	0.94448 0.23750 0.85455 -0.42000
H 	H 	0.94970 0.29230 0.81210 0.08100
H 	H 	0.94970 0.29640 0.89740 0.09000
H 	H 	0.28000 0.28700 0.80500 0.68700
V 	V 	0.16434 0.87809 0.58617 1.71600
V 	V 	0.24587 0.94855 0.78487 1.25900
V 	V 	0.18727 0.08297 0.28053 1.25100
P 	P 	0.29103 0.61803 0.57722 0.54900
P 	P 	0.66486 0.66431 0.66595 0.52800
O 	O 	0.20873 0.70093 0.57397 -0.62500
O 	O 	0.21375 0.85310 0.69040 -1.58000
O 	O 	0.67016 0.56951 0.60343 -0.55500
O 	O 	0.29677 0.56928 0.50092 -0.54300
O 	O 	0.29101 0.49466 0.62369 -0.70900
O 	O 	0.73269 0.77343 0.66785 -0.71500
O 	O 	0.67724 0.59530 0.73993 -0.76800
C 	C 	0.38812 0.71590 0.61431 -0.45500
H 	H 	0.39010 0.78860 0.57970 0.10500
H 	H 	0.38180 0.75510 0.66120 0.10900
C 	C 	0.47733 0.64160 0.62867 0.24900
H 	H 	0.48180 0.58120 0.67080 -0.12700
H 	H 	0.47980 0.58870 0.58490 -0.13100
C 	C 	0.55552 0.73750 0.64545 -0.41900
H 	H 	0.55030 0.79230 0.68790 0.08100
H 	H 	0.55030 0.79640 0.60260 0.09100
H 	H 	0.22000 0.78700 0.69500 0.68700
V 	V 	0.66434 0.37809 0.58617 1.71600
V 	V 	0.74587 0.44855 0.78487 1.26000
V 	V 	0.68727 0.58297 0.28053 1.25100
P 	P 	0.79103 0.11803 0.57722 0.55100
P 	P 	0.16486 0.16431 0.66595 0.52800
O 	O 	0.70873 0.20093 0.57397 -0.62500
O 	O 	0.71375 0.35310 0.69040 -1.57900
O 	O 	0.17016 0.06951 0.60343 -0.55400
O 	O 	0.79677 0.06928 0.50092 -0.54300
O 	O 	0.79101 0.99466 0.62369 -0.71000
O 	O 	0.23269 0.27343 0.66785 -0.71400
O 	O 	0.17724 0.09530 0.73993 -0.76500
C 	C 	0.88812 0.21590 0.61431 -0.45500
H 	H 	0.89010 0.28860 0.57970 0.10500
H 	H 	0.88180 0.25510 0.66120 0.10900
C 	C 	0.97733 0.14160 0.62867 0.24700
H 	H 	0.98180 0.08120 0.67080 -0.12600
H 	H 	0.97980 0.08870 0.58490 -0.13000
C 	C 	0.05552 0.23750 0.64545 -0.41700
H 	H 	0.05030 0.29230 0.68790 0.08100
H 	H 	0.05030 0.29640 0.60260 0.09000
H 	H 	0.72000 0.28700 0.69500 0.68700
