data_crystal

_cell_length_a 15.27680
_cell_length_b 10.22160
_cell_length_c 18.62790
_cell_angle_alpha 90.00000
_cell_angle_beta  103.25200
_cell_angle_gamma 90.00000

_symmetry_space_group_name_	'P 1'
_symmetry_space_group_name_H-M	'P 1'

loop_
_symmetry_equiv_pos_as_xyz
  x,y,z

loop_
_atom_site_label
_atom_site_type_symbol
_atom_site_fract_x
_atom_site_fract_y
_atom_site_fract_z
_atom_site_charge
V 	V 	0.74870 0.04535 0.21455 1.73200
V 	V 	0.83739 0.11735 0.41440 1.74000
P 	P 	0.66366 0.33190 0.16526 0.47700
P 	P 	0.28813 0.37985 0.07714 0.51100
O 	O 	0.73201 0.22150 0.16855 -0.56100
O 	O 	0.29047 0.50280 0.12522 -0.52800
O 	O 	0.67390 0.39950 0.23989 -0.56200
O 	O 	0.79070 0.14220 0.30808 -2.03600
O 	O 	0.67346 0.42700 0.10409 -0.50700
O 	O 	0.20484 0.29820 0.07682 -0.61900
O 	O 	0.29221 0.42870 0.00033 -0.53200
C 	C 	0.55380 0.26030 0.14320 -0.36500
H 	H 	0.54930 0.20380 0.09930 0.08100
H 	H 	0.54770 0.20310 0.18470 0.07100
C 	C 	0.38560 0.28090 0.11170 -0.40200
H 	H 	0.37880 0.23780 0.15770 0.10300
H 	H 	0.38810 0.21130 0.07530 0.09600
C 	C 	0.47470 0.35560 0.12770 0.18400
H 	H 	0.47780 0.41100 0.08470 -0.09500
H 	H 	0.47810 0.41340 0.17080 -0.04000
H 	H 	0.78800 0.20000 0.30300 1.23000
V 	V 	0.24870 0.54535 0.21455 1.73400
V 	V 	0.33739 0.61735 0.41440 1.74100
P 	P 	0.16366 0.83190 0.16526 0.47900
P 	P 	0.78813 0.87985 0.07714 0.51600
O 	O 	0.23201 0.72150 0.16855 -0.55900
O 	O 	0.79047 0.00280 0.12522 -0.53200
O 	O 	0.17390 0.89950 0.23989 -0.55900
O 	O 	0.29070 0.64220 0.30808 -2.03300
O 	O 	0.17346 0.92700 0.10409 -0.50300
O 	O 	0.70484 0.79820 0.07682 -0.61500
O 	O 	0.79221 0.92870 0.00033 -0.52600
C 	C 	0.05380 0.76030 0.14320 -0.36600
H 	H 	0.04930 0.70380 0.09930 0.08200
H 	H 	0.04770 0.70310 0.18470 0.07200
C 	C 	0.88560 0.78090 0.11170 -0.40400
H 	H 	0.87880 0.73780 0.15770 0.10400
H 	H 	0.88810 0.71130 0.07530 0.09800
C 	C 	0.97470 0.85560 0.12770 0.18600
H 	H 	0.97780 0.91100 0.08470 -0.09400
H 	H 	0.97810 0.91340 0.17080 -0.03900
H 	H 	0.28800 0.70000 0.30300 1.23000
V 	V 	0.25130 0.04535 0.28545 1.73300
V 	V 	0.16261 0.11735 0.08560 1.73900
P 	P 	0.33634 0.33190 0.33474 0.47900
P 	P 	0.71187 0.37985 0.42286 0.51200
O 	O 	0.26799 0.22150 0.33145 -0.55900
O 	O 	0.70953 0.50280 0.37478 -0.52700
O 	O 	0.32610 0.39950 0.26011 -0.56100
O 	O 	0.20930 0.14220 0.19192 -2.03600
O 	O 	0.32654 0.42700 0.39591 -0.50500
O 	O 	0.79516 0.29820 0.42318 -0.61600
O 	O 	0.70779 0.42870 0.49967 -0.52900
C 	C 	0.44620 0.26030 0.35680 -0.36500
H 	H 	0.45070 0.20380 0.40070 0.08200
H 	H 	0.45230 0.20310 0.31530 0.07200
C 	C 	0.61440 0.28090 0.38830 -0.40300
H 	H 	0.62120 0.23780 0.34230 0.10300
H 	H 	0.61190 0.21130 0.42470 0.09800
C 	C 	0.52530 0.35560 0.37230 0.18500
H 	H 	0.52220 0.41100 0.41530 -0.09500
H 	H 	0.52190 0.41340 0.32920 -0.04000
H 	H 	0.21200 0.20000 0.19700 1.23100
V 	V 	0.75130 0.54535 0.28545 1.73400
V 	V 	0.66261 0.61735 0.08560 1.74100
P 	P 	0.83634 0.83190 0.33474 0.47900
P 	P 	0.21187 0.87985 0.42286 0.51300
O 	O 	0.76799 0.72150 0.33145 -0.55900
O 	O 	0.20953 0.00280 0.37478 -0.52800
O 	O 	0.82610 0.89950 0.26011 -0.55800
O 	O 	0.70930 0.64220 0.19192 -2.03300
O 	O 	0.82654 0.92700 0.39591 -0.50400
O 	O 	0.29516 0.79820 0.42318 -0.61600
O 	O 	0.20779 0.92870 0.49967 -0.53000
C 	C 	0.94620 0.76030 0.35680 -0.36400
H 	H 	0.95070 0.70380 0.40070 0.08200
H 	H 	0.95230 0.70310 0.31530 0.07200
C 	C 	0.11440 0.78090 0.38830 -0.40300
H 	H 	0.12120 0.73780 0.34230 0.10300
H 	H 	0.11190 0.71130 0.42470 0.09800
C 	C 	0.02530 0.85560 0.37230 0.18400
H 	H 	0.02220 0.91100 0.41530 -0.09500
H 	H 	0.02190 0.91340 0.32920 -0.04000
H 	H 	0.71200 0.70000 0.19700 1.23000
V 	V 	0.25130 0.95465 0.78545 1.73300
V 	V 	0.16261 0.88265 0.58560 1.74100
P 	P 	0.33634 0.66810 0.83474 0.47800
P 	P 	0.71187 0.62015 0.92286 0.51200
O 	O 	0.26799 0.77850 0.83145 -0.56000
O 	O 	0.70953 0.49720 0.87478 -0.52700
O 	O 	0.32610 0.60050 0.76011 -0.56100
O 	O 	0.20930 0.85780 0.69192 -2.03500
O 	O 	0.32654 0.57300 0.89591 -0.50600
O 	O 	0.79516 0.70180 0.92318 -0.61800
O 	O 	0.70779 0.57130 0.99967 -0.53100
C 	C 	0.44620 0.73970 0.85680 -0.36400
H 	H 	0.45070 0.79620 0.90070 0.08100
H 	H 	0.45230 0.79690 0.81530 0.07100
C 	C 	0.61440 0.71910 0.88830 -0.40200
H 	H 	0.62120 0.76220 0.84230 0.10300
H 	H 	0.61190 0.78870 0.92470 0.09600
C 	C 	0.52530 0.64440 0.87230 0.18400
H 	H 	0.52220 0.58900 0.91530 -0.09500
H 	H 	0.52190 0.58660 0.82920 -0.04000
H 	H 	0.21200 0.80000 0.69700 1.23000
V 	V 	0.75130 0.45465 0.78545 1.73400
V 	V 	0.66261 0.38265 0.58560 1.74100
P 	P 	0.83634 0.16810 0.83474 0.47900
P 	P 	0.21187 0.12015 0.92286 0.51600
O 	O 	0.76799 0.27850 0.83145 -0.55900
O 	O 	0.20953 0.99720 0.87478 -0.53200
O 	O 	0.82610 0.10050 0.76011 -0.55900
O 	O 	0.70930 0.35780 0.69192 -2.03300
O 	O 	0.82654 0.07300 0.89591 -0.50300
O 	O 	0.29516 0.20180 0.92318 -0.61500
O 	O 	0.20779 0.07130 0.99967 -0.52600
C 	C 	0.94620 0.23970 0.85680 -0.36600
H 	H 	0.95070 0.29620 0.90070 0.08200
H 	H 	0.95230 0.29690 0.81530 0.07200
C 	C 	0.11440 0.21910 0.88830 -0.40400
H 	H 	0.12120 0.26220 0.84230 0.10400
H 	H 	0.11190 0.28870 0.92470 0.09800
C 	C 	0.02530 0.14440 0.87230 0.18600
H 	H 	0.02220 0.08900 0.91530 -0.09400
H 	H 	0.02190 0.08660 0.82920 -0.03900
H 	H 	0.71200 0.30000 0.69700 1.23000
V 	V 	0.74870 0.95465 0.71455 1.73300
V 	V 	0.83739 0.88265 0.91440 1.73900
P 	P 	0.66366 0.66810 0.66526 0.47900
P 	P 	0.28813 0.62015 0.57714 0.51200
O 	O 	0.73201 0.77850 0.66855 -0.55900
O 	O 	0.29047 0.49720 0.62522 -0.52700
O 	O 	0.67390 0.60050 0.73989 -0.56100
O 	O 	0.79070 0.85780 0.80808 -2.03600
O 	O 	0.67346 0.57300 0.60409 -0.50500
O 	O 	0.20484 0.70180 0.57682 -0.61600
O 	O 	0.29221 0.57130 0.50033 -0.52900
C 	C 	0.55380 0.73970 0.64320 -0.36500
H 	H 	0.54930 0.79620 0.59930 0.08200
H 	H 	0.54770 0.79690 0.68470 0.07200
C 	C 	0.38560 0.71910 0.61170 -0.40300
H 	H 	0.37880 0.76220 0.65770 0.10300
H 	H 	0.38810 0.78870 0.57530 0.09800
C 	C 	0.47470 0.64440 0.62770 0.18500
H 	H 	0.47780 0.58900 0.58470 -0.09500
H 	H 	0.47810 0.58660 0.67080 -0.04000
H 	H 	0.78800 0.80000 0.80300 1.23100
V 	V 	0.24870 0.45465 0.71455 1.73400
V 	V 	0.33739 0.38265 0.91440 1.74100
P 	P 	0.16366 0.16810 0.66526 0.47900
P 	P 	0.78813 0.12015 0.57714 0.51300
O 	O 	0.23201 0.27850 0.66855 -0.55900
O 	O 	0.79047 0.99720 0.62522 -0.52800
O 	O 	0.17390 0.10050 0.73989 -0.55800
O 	O 	0.29070 0.35780 0.80808 -2.03300
O 	O 	0.17346 0.07300 0.60409 -0.50400
O 	O 	0.70484 0.20180 0.57682 -0.61600
O 	O 	0.79221 0.07130 0.50033 -0.53000
C 	C 	0.05380 0.23970 0.64320 -0.36400
H 	H 	0.04930 0.29620 0.59930 0.08200
H 	H 	0.04770 0.29690 0.68470 0.07200
C 	C 	0.88560 0.21910 0.61170 -0.40300
H 	H 	0.87880 0.26220 0.65770 0.10300
H 	H 	0.88810 0.28870 0.57530 0.09800
C 	C 	0.97470 0.14440 0.62770 0.18400
H 	H 	0.97780 0.08900 0.58470 -0.09500
H 	H 	0.97810 0.08660 0.67080 -0.04000
H 	H 	0.28800 0.30000 0.80300 1.23000
