data_crystal

_cell_length_a 9.46920
_cell_length_b 9.16220
_cell_length_c 9.70630
_cell_angle_alpha 90.00000
_cell_angle_beta  117.56200
_cell_angle_gamma 90.00000

_symmetry_space_group_name_	'P 1'
_symmetry_space_group_name_H-M	'P 1'

loop_
_symmetry_equiv_pos_as_xyz
  x,y,z

loop_
_atom_site_label
_atom_site_type_symbol
_atom_site_fract_x
_atom_site_fract_y
_atom_site_fract_z
_atom_site_charge
P 	P 	0.14504 0.65606 0.47293 0.61900
P 	P 	0.66957 0.89780 0.43683 0.64500
O 	O 	0.24850 0.72990 0.41250 -0.48400
O 	O 	0.99740 0.58650 0.34660 -0.50400
O 	O 	0.08880 0.77410 0.55640 -0.50000
H 	H 	0.15710 0.83760 0.59440 0.17800
O 	O 	0.25230 0.54850 0.59520 -0.47500
O 	O 	0.50140 0.84730 0.38640 -0.49800
O 	O 	0.65580 0.03430 0.33340 -0.40300
O 	O 	0.75530 0.93990 0.60840 -0.48100
O 	O 	0.77060 0.77930 0.41250 -0.74600
H 	H 	0.86120 0.81020 0.44090 0.34400
P 	P 	0.35496 0.65606 0.02707 0.61400
P 	P 	0.83043 0.89780 0.06317 0.63600
O 	O 	0.25150 0.72990 0.08750 -0.48700
O 	O 	0.50260 0.58650 0.15340 -0.50400
O 	O 	0.41120 0.77410 0.94360 -0.49200
H 	H 	0.34290 0.83760 0.90560 0.17800
O 	O 	0.24770 0.54850 0.90480 -0.47000
O 	O 	0.99860 0.84730 0.11360 -0.49500
O 	O 	0.84420 0.03430 0.16660 -0.39700
O 	O 	0.74470 0.93990 0.89160 -0.47500
O 	O 	0.72940 0.77930 0.08750 -0.74300
H 	H 	0.63880 0.81020 0.05910 0.33900
P 	P 	0.85496 0.34394 0.52707 0.62000
P 	P 	0.33043 0.10220 0.56317 0.64600
O 	O 	0.75150 0.27010 0.58750 -0.48400
O 	O 	0.00260 0.41350 0.65340 -0.50400
O 	O 	0.91120 0.22590 0.44360 -0.50000
H 	H 	0.84290 0.16240 0.40560 0.17800
O 	O 	0.74770 0.45150 0.40480 -0.47500
O 	O 	0.49860 0.15270 0.61360 -0.49800
O 	O 	0.34420 0.96570 0.66660 -0.40300
O 	O 	0.24470 0.06010 0.39160 -0.48100
O 	O 	0.22940 0.22070 0.58750 -0.74600
H 	H 	0.13880 0.18980 0.55910 0.34400
P 	P 	0.64504 0.34394 0.97293 0.61400
P 	P 	0.16957 0.10220 0.93683 0.63600
O 	O 	0.74850 0.27010 0.91250 -0.48700
O 	O 	0.49740 0.41350 0.84660 -0.50400
O 	O 	0.58880 0.22590 0.05640 -0.49200
H 	H 	0.65710 0.16240 0.09440 0.17800
O 	O 	0.75230 0.45150 0.09520 -0.47000
O 	O 	0.00140 0.15270 0.88640 -0.49500
O 	O 	0.15580 0.96570 0.83340 -0.39700
O 	O 	0.25530 0.06010 0.10840 -0.47500
O 	O 	0.27060 0.22070 0.91250 -0.74300
H 	H 	0.36120 0.18980 0.94090 0.33900
In	In	0.25000 0.88223 0.25000 2.01500
In	In	0.75000 0.11777 0.75000 2.01500
In	In	0.75000 0.60944 0.25000 2.02800
In	In	0.25000 0.39056 0.75000 2.02800
Li	Li	0.25000 0.87120 0.75000 0.55700
Li	Li	0.75000 0.12880 0.25000 0.55700
