data_crystal

_cell_length_a 7.46700
_cell_length_b 7.88160
_cell_length_c 9.32890
_cell_angle_alpha 90.00000
_cell_angle_beta  90.00000
_cell_angle_gamma 118.27500

_symmetry_space_group_name_	'P 1'
_symmetry_space_group_name_H-M	'P 1'

loop_
_symmetry_equiv_pos_as_xyz
  x,y,z

loop_
_atom_site_label
_atom_site_type_symbol
_atom_site_fract_x
_atom_site_fract_y
_atom_site_fract_z
_atom_site_charge
V 	V 	0.55506 0.52168 0.75000 1.77500
V 	V 	0.44494 0.47832 0.25000 1.77500
V 	V 	0.96662 0.52168 0.75000 1.77400
V 	V 	0.03338 0.47832 0.25000 1.77400
P 	P 	0.65674 0.31348 0.48400 0.41200
P 	P 	0.34326 0.68652 0.98400 0.41400
P 	P 	0.65674 0.31348 0.01600 0.41400
P 	P 	0.34326 0.68652 0.51600 0.41200
H 	H 	0.42340 0.06120 0.61980 -0.01600
H 	H 	0.57660 0.93880 0.11980 -0.01500
H 	H 	0.63780 0.06120 0.88020 -0.01400
H 	H 	0.36220 0.93880 0.38020 -0.01400
H 	H 	0.57660 0.93880 0.38020 -0.01600
H 	H 	0.42340 0.06120 0.88020 -0.01500
H 	H 	0.36220 0.93880 0.11980 -0.01400
H 	H 	0.63780 0.06120 0.61980 -0.01400
H 	H 	0.08000 0.16000 0.19200 2.60000
H 	H 	0.92000 0.84000 0.69200 2.60100
H 	H 	0.08000 0.16000 0.30800 2.60100
H 	H 	0.92000 0.84000 0.80800 2.60000
C 	C 	0.53877 0.07754 0.55850 -0.18100
C 	C 	0.46123 0.92246 0.05850 -0.18300
C 	C 	0.53877 0.07754 0.94150 -0.18300
C 	C 	0.46123 0.92246 0.44150 -0.18100
O 	O 	0.49482 0.33266 0.39904 -0.58600
O 	O 	0.50518 0.66734 0.89904 -0.58700
O 	O 	0.83784 0.33266 0.10096 -0.58100
O 	O 	0.16216 0.66734 0.60096 -0.58200
O 	O 	0.50518 0.66734 0.60096 -0.58600
O 	O 	0.49482 0.33266 0.10096 -0.58700
O 	O 	0.16216 0.66734 0.89904 -0.58100
O 	O 	0.83784 0.33266 0.39904 -0.58200
O 	O 	0.73055 0.46110 0.61055 -0.64600
O 	O 	0.26945 0.53890 0.11055 -0.64900
O 	O 	0.73055 0.46110 0.88945 -0.64900
O 	O 	0.26945 0.53890 0.38945 -0.64600
O 	O 	0.10926 0.21852 0.25000 -5.52200
O 	O 	0.89074 0.78148 0.75000 -5.52200
