data_crystal

_cell_length_a 16.31130
_cell_length_b 16.31130
_cell_length_c 16.31130
_cell_angle_alpha 90.00000
_cell_angle_beta  90.00000
_cell_angle_gamma 90.00000

_symmetry_space_group_name_	'P 1'
_symmetry_space_group_name_H-M	'P 1'

loop_
_symmetry_equiv_pos_as_xyz
  x,y,z

loop_
_atom_site_label
_atom_site_type_symbol
_atom_site_fract_x
_atom_site_fract_y
_atom_site_fract_z
_atom_site_charge
N 	N 	0.68707 0.30446 0.58572 -0.19300
C 	C 	0.70786 0.38182 0.60647 -0.13900
H 	H 	0.90906 0.07816 0.24917 0.11900
N 	N 	0.81293 0.19554 0.58572 -0.19300
C 	C 	0.79214 0.11818 0.60647 -0.13800
H 	H 	0.59094 0.42184 0.24917 0.12300
N 	N 	0.81293 0.30446 0.91428 -0.17500
C 	C 	0.79214 0.38182 0.89353 -0.13300
H 	H 	0.59094 0.07816 0.25083 0.11200
N 	N 	0.68707 0.19554 0.91428 -0.17700
C 	C 	0.70786 0.11818 0.89353 -0.13600
H 	H 	0.90906 0.42184 0.25083 0.13500
N 	N 	0.58572 0.68707 0.30446 -0.19300
C 	C 	0.60647 0.70786 0.38182 -0.13900
H 	H 	0.24917 0.90906 0.07816 0.11900
N 	N 	0.58572 0.81293 0.19554 -0.19300
C 	C 	0.60647 0.79214 0.11818 -0.13800
H 	H 	0.24917 0.59094 0.42184 0.12300
N 	N 	0.91428 0.81293 0.30446 -0.17500
C 	C 	0.89353 0.79214 0.38182 -0.13300
H 	H 	0.25083 0.59094 0.07816 0.11200
N 	N 	0.91428 0.68707 0.19554 -0.17700
C 	C 	0.89353 0.70786 0.11818 -0.13600
H 	H 	0.25083 0.90906 0.42184 0.13500
N 	N 	0.30446 0.58572 0.68707 -0.19300
C 	C 	0.38182 0.60647 0.70786 -0.13900
H 	H 	0.07816 0.24917 0.90906 0.11900
N 	N 	0.19554 0.58572 0.81293 -0.19300
C 	C 	0.11818 0.60647 0.79214 -0.13800
H 	H 	0.42184 0.24917 0.59094 0.12300
N 	N 	0.30446 0.91428 0.81293 -0.17500
C 	C 	0.38182 0.89353 0.79214 -0.13300
H 	H 	0.07816 0.25083 0.59094 0.11200
N 	N 	0.19554 0.91428 0.68707 -0.17700
C 	C 	0.11818 0.89353 0.70786 -0.13600
H 	H 	0.42184 0.25083 0.90906 0.13500
N 	N 	0.80446 0.18707 0.41428 -0.19300
C 	C 	0.88182 0.20786 0.39353 -0.13900
H 	H 	0.57816 0.40906 0.75083 0.13100
N 	N 	0.69554 0.31293 0.41428 -0.19300
C 	C 	0.61818 0.29214 0.39353 -0.13700
H 	H 	0.92184 0.09094 0.75083 0.13800
N 	N 	0.80446 0.31293 0.08572 -0.19900
C 	C 	0.88182 0.29214 0.10647 -0.14100
H 	H 	0.57816 0.09094 0.74917 0.12000
N 	N 	0.69554 0.18707 0.08572 -0.20100
C 	C 	0.61818 0.20786 0.10647 -0.14400
H 	H 	0.92184 0.40906 0.74917 0.14500
N 	N 	0.18707 0.08572 0.69554 -0.20100
C 	C 	0.20786 0.10647 0.61818 -0.14400
H 	H 	0.40906 0.74917 0.92184 0.14500
N 	N 	0.31293 0.08572 0.80446 -0.19900
C 	C 	0.29214 0.10647 0.88182 -0.14100
H 	H 	0.09094 0.74917 0.57816 0.12000
N 	N 	0.31293 0.41428 0.69554 -0.19300
C 	C 	0.29214 0.39353 0.61818 -0.13700
H 	H 	0.09094 0.75083 0.92184 0.13800
N 	N 	0.18707 0.41428 0.80446 -0.19300
C 	C 	0.20786 0.39353 0.88182 -0.13900
H 	H 	0.40906 0.75083 0.57816 0.13100
N 	N 	0.08572 0.80446 0.31293 -0.19900
C 	C 	0.10647 0.88182 0.29214 -0.14100
H 	H 	0.74917 0.57816 0.09094 0.12000
N 	N 	0.08572 0.69554 0.18707 -0.20100
C 	C 	0.10647 0.61818 0.20786 -0.14400
H 	H 	0.74917 0.92184 0.40906 0.14500
N 	N 	0.41428 0.80446 0.18707 -0.19300
C 	C 	0.39353 0.88182 0.20786 -0.13900
H 	H 	0.75083 0.57816 0.40906 0.13100
N 	N 	0.41428 0.69554 0.31293 -0.19300
C 	C 	0.39353 0.61818 0.29214 -0.13700
H 	H 	0.75083 0.92184 0.09094 0.13800
N 	N 	0.31293 0.69554 0.41428 -0.19300
C 	C 	0.29214 0.61818 0.39353 -0.13700
H 	H 	0.09094 0.92184 0.75083 0.13800
N 	N 	0.18707 0.80446 0.41428 -0.19300
C 	C 	0.20786 0.88182 0.39353 -0.13900
H 	H 	0.40906 0.57816 0.75083 0.13100
N 	N 	0.18707 0.69554 0.08572 -0.20100
C 	C 	0.20786 0.61818 0.10647 -0.14400
H 	H 	0.40906 0.92184 0.74917 0.14500
N 	N 	0.31293 0.80446 0.08572 -0.19900
C 	C 	0.29214 0.88182 0.10647 -0.14100
H 	H 	0.09094 0.57816 0.74917 0.12000
N 	N 	0.41428 0.31293 0.69554 -0.19300
C 	C 	0.39353 0.29214 0.61818 -0.13700
H 	H 	0.75083 0.09094 0.92184 0.13800
N 	N 	0.41428 0.18707 0.80446 -0.19300
C 	C 	0.39353 0.20786 0.88182 -0.13900
H 	H 	0.75083 0.40906 0.57816 0.13100
N 	N 	0.08572 0.18707 0.69554 -0.20100
C 	C 	0.10647 0.20786 0.61818 -0.14400
H 	H 	0.74917 0.40906 0.92184 0.14500
N 	N 	0.08572 0.31293 0.80446 -0.19900
C 	C 	0.10647 0.29214 0.88182 -0.14100
H 	H 	0.74917 0.09094 0.57816 0.12000
N 	N 	0.69554 0.41428 0.31293 -0.19300
C 	C 	0.61818 0.39353 0.29214 -0.13700
H 	H 	0.92184 0.75083 0.09094 0.13800
N 	N 	0.80446 0.41428 0.18707 -0.19300
C 	C 	0.88182 0.39353 0.20786 -0.13900
H 	H 	0.57816 0.75083 0.40906 0.13100
N 	N 	0.69554 0.08572 0.18707 -0.20100
C 	C 	0.61818 0.10647 0.20786 -0.14400
H 	H 	0.92184 0.74917 0.40906 0.14500
N 	N 	0.80446 0.08572 0.31293 -0.19900
C 	C 	0.88182 0.10647 0.29214 -0.14100
H 	H 	0.57816 0.74917 0.09094 0.12000
N 	N 	0.19554 0.81293 0.58572 -0.19300
C 	C 	0.11818 0.79214 0.60647 -0.13800
H 	H 	0.42184 0.59094 0.24917 0.12300
N 	N 	0.30446 0.68707 0.58572 -0.19300
C 	C 	0.38182 0.70786 0.60647 -0.13900
H 	H 	0.07816 0.90906 0.24917 0.11900
N 	N 	0.19554 0.68707 0.91428 -0.17700
C 	C 	0.11818 0.70786 0.89353 -0.13600
H 	H 	0.42184 0.90906 0.25083 0.13500
N 	N 	0.30446 0.81293 0.91428 -0.17500
C 	C 	0.38182 0.79214 0.89353 -0.13300
H 	H 	0.07816 0.59094 0.25083 0.11200
N 	N 	0.81293 0.91428 0.30446 -0.17500
C 	C 	0.79214 0.89353 0.38182 -0.13300
H 	H 	0.59094 0.25083 0.07816 0.11200
N 	N 	0.68707 0.91428 0.19554 -0.17700
C 	C 	0.70786 0.89353 0.11818 -0.13600
H 	H 	0.90906 0.25083 0.42184 0.13500
N 	N 	0.68707 0.58572 0.30446 -0.19300
C 	C 	0.70786 0.60647 0.38182 -0.13900
H 	H 	0.90906 0.24917 0.07816 0.11900
N 	N 	0.81293 0.58572 0.19554 -0.19300
C 	C 	0.79214 0.60647 0.11818 -0.13800
H 	H 	0.59094 0.24917 0.42184 0.12300
N 	N 	0.91428 0.19554 0.68707 -0.17700
C 	C 	0.89353 0.11818 0.70786 -0.13600
H 	H 	0.25083 0.42184 0.90906 0.13500
N 	N 	0.91428 0.30446 0.81293 -0.17500
C 	C 	0.89353 0.38182 0.79214 -0.13300
H 	H 	0.25083 0.07816 0.59094 0.11200
N 	N 	0.58572 0.19554 0.81293 -0.19300
C 	C 	0.60647 0.11818 0.79214 -0.13800
H 	H 	0.24917 0.42184 0.59094 0.12300
N 	N 	0.58572 0.30446 0.68707 -0.19300
C 	C 	0.60647 0.38182 0.70786 -0.13900
H 	H 	0.24917 0.07816 0.90906 0.11900
Pd	Pd	0.75000 0.25000 0.50000 0.79200
Pd	Pd	0.75000 0.25000 -0.00000 0.75600
Pd	Pd	0.50000 0.75000 0.25000 0.79200
Pd	Pd	0.00000 0.75000 0.25000 0.75600
Pd	Pd	0.25000 0.50000 0.75000 0.79200
Pd	Pd	0.25000 0.00000 0.75000 0.75600
Pd	Pd	0.25000 0.75000 0.50000 0.79200
Pd	Pd	0.25000 0.75000 -0.00000 0.75600
Pd	Pd	0.50000 0.25000 0.75000 0.79200
Pd	Pd	0.00000 0.25000 0.75000 0.75600
Pd	Pd	0.75000 0.50000 0.25000 0.79200
Pd	Pd	0.75000 0.00000 0.25000 0.75600
C 	C 	0.62599 0.26577 0.62599 0.25000
C 	C 	0.66756 0.42051 0.66756 0.39400
O 	O 	0.60675 0.19414 0.60675 -0.25600
F 	F 	0.68835 0.49787 0.68835 -0.37100
C 	C 	0.87401 0.23423 0.62599 0.25100
C 	C 	0.83244 0.07949 0.66756 0.39100
O 	O 	0.89325 0.30586 0.60675 -0.23300
F 	F 	0.81165 0.00213 0.68835 -0.38600
C 	C 	0.87401 0.26577 0.87401 0.25700
C 	C 	0.83244 0.42051 0.83244 0.40300
O 	O 	0.89325 0.19414 0.89325 -0.22300
F 	F 	0.81165 0.49787 0.81165 -0.36100
C 	C 	0.62599 0.23423 0.87401 0.25100
C 	C 	0.66756 0.07949 0.83244 0.39100
O 	O 	0.60675 0.30586 0.89325 -0.23300
F 	F 	0.68835 0.00213 0.81165 -0.38600
C 	C 	0.62599 0.62599 0.26577 0.25000
C 	C 	0.66756 0.66756 0.42051 0.39400
O 	O 	0.60675 0.60675 0.19414 -0.25600
F 	F 	0.68835 0.68835 0.49787 -0.37100
C 	C 	0.62599 0.87401 0.23423 0.25100
C 	C 	0.66756 0.83244 0.07949 0.39100
O 	O 	0.60675 0.89325 0.30586 -0.23300
F 	F 	0.68835 0.81165 0.00213 -0.38600
C 	C 	0.87401 0.87401 0.26577 0.25700
C 	C 	0.83244 0.83244 0.42051 0.40300
O 	O 	0.89325 0.89325 0.19414 -0.22300
F 	F 	0.81165 0.81165 0.49787 -0.36100
C 	C 	0.87401 0.62599 0.23423 0.25100
C 	C 	0.83244 0.66756 0.07949 0.39100
O 	O 	0.89325 0.60675 0.30586 -0.23300
F 	F 	0.81165 0.68835 0.00213 -0.38600
C 	C 	0.26577 0.62599 0.62599 0.25000
C 	C 	0.42051 0.66756 0.66756 0.39400
O 	O 	0.19414 0.60675 0.60675 -0.25600
F 	F 	0.49787 0.68835 0.68835 -0.37100
C 	C 	0.23423 0.62599 0.87401 0.25100
C 	C 	0.07949 0.66756 0.83244 0.39100
O 	O 	0.30586 0.60675 0.89325 -0.23300
F 	F 	0.00213 0.68835 0.81165 -0.38600
C 	C 	0.26577 0.87401 0.87401 0.25700
C 	C 	0.42051 0.83244 0.83244 0.40300
O 	O 	0.19414 0.89325 0.89325 -0.22300
F 	F 	0.49787 0.81165 0.81165 -0.36100
C 	C 	0.23423 0.87401 0.62599 0.25100
C 	C 	0.07949 0.83244 0.66756 0.39100
O 	O 	0.30586 0.89325 0.60675 -0.23300
F 	F 	0.00213 0.81165 0.68835 -0.38600
C 	C 	0.76577 0.12599 0.37401 0.24800
C 	C 	0.92051 0.16756 0.33244 0.39300
O 	O 	0.69414 0.10675 0.39325 -0.26300
F 	F 	0.99787 0.18835 0.31165 -0.37100
C 	C 	0.73423 0.37401 0.37401 0.24900
C 	C 	0.57949 0.33244 0.33244 0.39000
O 	O 	0.80586 0.39325 0.39325 -0.24400
F 	F 	0.50213 0.31165 0.31165 -0.38600
C 	C 	0.76577 0.37401 0.12599 0.24800
C 	C 	0.92051 0.33244 0.16756 0.39300
O 	O 	0.69414 0.39325 0.10675 -0.26300
F 	F 	0.99787 0.31165 0.18835 -0.37100
C 	C 	0.73423 0.12599 0.12599 0.24200
C 	C 	0.57949 0.16756 0.16756 0.38200
O 	O 	0.80586 0.10675 0.10675 -0.27000
F 	F 	0.50213 0.18835 0.18835 -0.39600
C 	C 	0.12599 0.12599 0.73423 0.24200
C 	C 	0.16756 0.16756 0.57949 0.38200
O 	O 	0.10675 0.10675 0.80586 -0.27000
F 	F 	0.18835 0.18835 0.50213 -0.39600
C 	C 	0.37401 0.12599 0.76577 0.24800
C 	C 	0.33244 0.16756 0.92051 0.39300
O 	O 	0.39325 0.10675 0.69414 -0.26300
F 	F 	0.31165 0.18835 0.99787 -0.37100
C 	C 	0.37401 0.37401 0.73423 0.24900
C 	C 	0.33244 0.33244 0.57949 0.39000
O 	O 	0.39325 0.39325 0.80586 -0.24400
F 	F 	0.31165 0.31165 0.50213 -0.38600
C 	C 	0.12599 0.37401 0.76577 0.24800
C 	C 	0.16756 0.33244 0.92051 0.39300
O 	O 	0.10675 0.39325 0.69414 -0.26300
F 	F 	0.18835 0.31165 0.99787 -0.37100
C 	C 	0.12599 0.76577 0.37401 0.24800
C 	C 	0.16756 0.92051 0.33244 0.39300
O 	O 	0.10675 0.69414 0.39325 -0.26300
F 	F 	0.18835 0.99787 0.31165 -0.37100
C 	C 	0.12599 0.73423 0.12599 0.24200
C 	C 	0.16756 0.57949 0.16756 0.38200
O 	O 	0.10675 0.80586 0.10675 -0.27000
F 	F 	0.18835 0.50213 0.18835 -0.39600
C 	C 	0.37401 0.76577 0.12599 0.24800
C 	C 	0.33244 0.92051 0.16756 0.39300
O 	O 	0.39325 0.69414 0.10675 -0.26300
F 	F 	0.31165 0.99787 0.18835 -0.37100
C 	C 	0.37401 0.73423 0.37401 0.24900
C 	C 	0.33244 0.57949 0.33244 0.39000
O 	O 	0.39325 0.80586 0.39325 -0.24400
F 	F 	0.31165 0.50213 0.31165 -0.38600
