data_crystal

_cell_length_a 18.64010
_cell_length_b 18.64010
_cell_length_c 39.74800
_cell_angle_alpha 90.00000
_cell_angle_beta  90.00000
_cell_angle_gamma 120.00000

_symmetry_space_group_name_	'P 1'
_symmetry_space_group_name_H-M	'P 1'

loop_
_symmetry_equiv_pos_as_xyz
  x,y,z

loop_
_atom_site_label
_atom_site_type_symbol
_atom_site_fract_x
_atom_site_fract_y
_atom_site_fract_z
_atom_site_charge
O 	O 	0.51856 0.89021 0.00301 -0.40300
O 	O 	0.55919 0.96967 0.95706 -0.39800
C 	C 	0.54907 0.90821 0.97418 0.34700
C 	C 	0.57560 0.85279 0.95832 -0.04000
C 	C 	0.61849 0.87344 0.92776 -0.08700
H 	H 	0.63190 0.92330 0.91740 0.08900
H 	H 	0.90180 0.90880 0.90770 -0.22700
O 	O 	0.18523 0.22354 0.33634 -0.40200
O 	O 	0.22586 0.30300 0.29039 -0.39800
C 	C 	0.21574 0.24154 0.30751 0.34700
C 	C 	0.24227 0.18612 0.29165 -0.03800
C 	C 	0.28516 0.20677 0.26109 -0.08600
H 	H 	0.29857 0.25663 0.25073 0.09000
H 	H 	0.56847 0.24213 0.24103 -0.22600
O 	O 	0.85189 0.55688 0.66968 -0.40200
O 	O 	0.89252 0.63634 0.62373 -0.39700
C 	C 	0.88240 0.57488 0.64085 0.34800
C 	C 	0.90893 0.51946 0.62499 -0.03900
C 	C 	0.95182 0.54011 0.59443 -0.08600
H 	H 	0.96523 0.58997 0.58407 0.09000
H 	H 	0.23513 0.57547 0.57437 -0.22600
O 	O 	0.10979 0.62835 0.00301 -0.40200
O 	O 	0.03033 0.58952 0.95706 -0.39700
C 	C 	0.09179 0.64086 0.97418 0.34800
C 	C 	0.14721 0.72281 0.95832 -0.03900
C 	C 	0.12656 0.74505 0.92776 -0.08600
H 	H 	0.07670 0.70860 0.91740 0.09000
H 	H 	0.09120 0.99300 0.90770 -0.22600
O 	O 	0.77646 0.96168 0.33634 -0.40100
O 	O 	0.69700 0.92285 0.29039 -0.39700
C 	C 	0.75846 0.97419 0.30751 0.34800
C 	C 	0.81388 0.05614 0.29165 -0.03800
C 	C 	0.79323 0.07838 0.26109 -0.08600
H 	H 	0.74337 0.04193 0.25073 0.09000
H 	H 	0.75787 0.32633 0.24103 -0.22600
O 	O 	0.44312 0.29502 0.66968 -0.40100
O 	O 	0.36366 0.25619 0.62373 -0.39700
C 	C 	0.42512 0.30753 0.64085 0.34800
C 	C 	0.48054 0.38948 0.62499 -0.03900
C 	C 	0.45989 0.41172 0.59443 -0.08600
H 	H 	0.41003 0.37527 0.58407 0.09000
H 	H 	0.42453 0.65967 0.57437 -0.22600
O 	O 	0.37165 0.48144 0.00301 -0.40100
O 	O 	0.41048 0.44081 0.95706 -0.39700
C 	C 	0.35914 0.45093 0.97418 0.34800
C 	C 	0.27719 0.42440 0.95832 -0.03900
C 	C 	0.25495 0.38151 0.92776 -0.08600
H 	H 	0.29140 0.36810 0.91740 0.09000
H 	H 	0.00700 0.09820 0.90770 -0.22600
O 	O 	0.03832 0.81477 0.33634 -0.40100
O 	O 	0.07715 0.77414 0.29039 -0.39700
C 	C 	0.02581 0.78426 0.30751 0.34800
C 	C 	0.94386 0.75773 0.29165 -0.03800
C 	C 	0.92162 0.71484 0.26109 -0.08600
H 	H 	0.95807 0.70143 0.25073 0.09000
H 	H 	0.67367 0.43153 0.24103 -0.22600
O 	O 	0.70498 0.14811 0.66968 -0.40100
O 	O 	0.74381 0.10748 0.62373 -0.39700
C 	C 	0.69247 0.11760 0.64085 0.34800
C 	C 	0.61052 0.09107 0.62499 -0.03900
C 	C 	0.58828 0.04818 0.59443 -0.08600
H 	H 	0.62473 0.03477 0.58407 0.09000
H 	H 	0.34033 0.76487 0.57437 -0.22600
O 	O 	0.89021 0.51856 0.99699 -0.40200
O 	O 	0.96967 0.55919 0.04294 -0.39700
C 	C 	0.90821 0.54907 0.02582 0.34800
C 	C 	0.85279 0.57560 0.04168 -0.03900
C 	C 	0.87344 0.61849 0.07224 -0.08600
H 	H 	0.92330 0.63190 0.08260 0.09000
H 	H 	0.90880 0.90180 0.09230 -0.22600
O 	O 	0.55688 0.85189 0.33032 -0.40200
O 	O 	0.63634 0.89252 0.37627 -0.39700
C 	C 	0.57488 0.88240 0.35915 0.34800
C 	C 	0.51946 0.90893 0.37501 -0.03900
C 	C 	0.54011 0.95182 0.40557 -0.08600
H 	H 	0.58997 0.96523 0.41593 0.09000
H 	H 	0.57547 0.23513 0.42563 -0.22600
O 	O 	0.22354 0.18523 0.66366 -0.40100
O 	O 	0.30300 0.22586 0.70961 -0.39700
C 	C 	0.24154 0.21574 0.69249 0.34800
C 	C 	0.18612 0.24227 0.70835 -0.03800
C 	C 	0.20677 0.28516 0.73891 -0.08600
H 	H 	0.25663 0.29857 0.74927 0.09000
H 	H 	0.24213 0.56847 0.75897 -0.22600
O 	O 	0.62835 0.10979 0.99699 -0.40200
O 	O 	0.58952 0.03033 0.04294 -0.39700
C 	C 	0.64086 0.09179 0.02582 0.34800
C 	C 	0.72281 0.14721 0.04168 -0.03900
C 	C 	0.74505 0.12656 0.07224 -0.08600
H 	H 	0.70860 0.07670 0.08260 0.09000
H 	H 	0.99300 0.09120 0.09230 -0.22600
O 	O 	0.29502 0.44312 0.33032 -0.40100
O 	O 	0.25619 0.36366 0.37627 -0.39700
C 	C 	0.30753 0.42512 0.35915 0.34800
C 	C 	0.38948 0.48054 0.37501 -0.03900
C 	C 	0.41172 0.45989 0.40557 -0.08600
H 	H 	0.37527 0.41003 0.41593 0.09000
H 	H 	0.65967 0.42453 0.42563 -0.22600
O 	O 	0.96168 0.77646 0.66366 -0.40100
O 	O 	0.92285 0.69700 0.70961 -0.39700
C 	C 	0.97419 0.75846 0.69249 0.34800
C 	C 	0.05614 0.81388 0.70835 -0.03800
C 	C 	0.07838 0.79323 0.73891 -0.08600
H 	H 	0.04193 0.74337 0.74927 0.09000
H 	H 	0.32633 0.75787 0.75897 -0.22600
O 	O 	0.48144 0.37165 0.99699 -0.40100
O 	O 	0.44081 0.41048 0.04294 -0.39700
C 	C 	0.45093 0.35914 0.02582 0.34800
C 	C 	0.42440 0.27719 0.04168 -0.03900
C 	C 	0.38151 0.25495 0.07224 -0.08600
H 	H 	0.36810 0.29140 0.08260 0.09000
H 	H 	0.09820 0.00700 0.09230 -0.22600
O 	O 	0.14811 0.70498 0.33032 -0.40100
O 	O 	0.10748 0.74381 0.37627 -0.39700
C 	C 	0.11760 0.69247 0.35915 0.34800
C 	C 	0.09107 0.61052 0.37501 -0.03900
C 	C 	0.04818 0.58828 0.40557 -0.08600
H 	H 	0.03477 0.62473 0.41593 0.09000
H 	H 	0.76487 0.34033 0.42563 -0.22600
O 	O 	0.81477 0.03832 0.66366 -0.40100
O 	O 	0.77414 0.07715 0.70961 -0.39700
C 	C 	0.78426 0.02581 0.69249 0.34800
C 	C 	0.75773 0.94386 0.70835 -0.03800
C 	C 	0.71484 0.92162 0.73891 -0.08600
H 	H 	0.70143 0.95807 0.74927 0.09000
H 	H 	0.43153 0.67367 0.75897 -0.22600
O 	O 	0.48144 0.10979 0.99699 -0.40200
O 	O 	0.44081 0.03033 0.04294 -0.39700
C 	C 	0.45093 0.09179 0.02582 0.34800
C 	C 	0.42440 0.14721 0.04168 -0.03900
C 	C 	0.38151 0.12656 0.07224 -0.08600
H 	H 	0.36810 0.07670 0.08260 0.09000
H 	H 	0.09820 0.09120 0.09230 -0.22600
O 	O 	0.14811 0.44312 0.33032 -0.40200
O 	O 	0.10748 0.36366 0.37627 -0.39700
C 	C 	0.11760 0.42512 0.35915 0.34800
C 	C 	0.09107 0.48054 0.37501 -0.03900
C 	C 	0.04818 0.45989 0.40557 -0.08600
H 	H 	0.03477 0.41003 0.41593 0.09000
H 	H 	0.76487 0.42453 0.42563 -0.22600
O 	O 	0.81477 0.77646 0.66366 -0.40100
O 	O 	0.77414 0.69700 0.70961 -0.39700
C 	C 	0.78426 0.75846 0.69249 0.34800
C 	C 	0.75773 0.81388 0.70835 -0.03800
C 	C 	0.71484 0.79323 0.73891 -0.08600
H 	H 	0.70143 0.74337 0.74927 0.09000
H 	H 	0.43153 0.75787 0.75897 -0.22600
O 	O 	0.89021 0.37165 0.99699 -0.40200
O 	O 	0.96967 0.41048 0.04294 -0.39700
C 	C 	0.90821 0.35914 0.02582 0.34800
C 	C 	0.85279 0.27719 0.04168 -0.03900
C 	C 	0.87344 0.25495 0.07224 -0.08600
H 	H 	0.92330 0.29140 0.08260 0.09000
H 	H 	0.90880 0.00700 0.09230 -0.22600
O 	O 	0.55688 0.70498 0.33032 -0.40100
O 	O 	0.63634 0.74381 0.37627 -0.39700
C 	C 	0.57488 0.69247 0.35915 0.34800
C 	C 	0.51946 0.61052 0.37501 -0.03900
C 	C 	0.54011 0.58828 0.40557 -0.08600
H 	H 	0.58997 0.62473 0.41593 0.09000
H 	H 	0.57547 0.34033 0.42563 -0.22600
O 	O 	0.22354 0.03832 0.66366 -0.40100
O 	O 	0.30300 0.07715 0.70961 -0.39700
C 	C 	0.24154 0.02581 0.69249 0.34800
C 	C 	0.18612 0.94386 0.70835 -0.03800
C 	C 	0.20677 0.92162 0.73891 -0.08600
H 	H 	0.25663 0.95807 0.74927 0.09000
H 	H 	0.24213 0.67367 0.75897 -0.22600
O 	O 	0.62835 0.51856 0.99699 -0.40100
O 	O 	0.58952 0.55919 0.04294 -0.39700
C 	C 	0.64086 0.54907 0.02582 0.34800
C 	C 	0.72281 0.57560 0.04168 -0.03900
C 	C 	0.74505 0.61849 0.07224 -0.08600
H 	H 	0.70860 0.63190 0.08260 0.09000
H 	H 	0.99300 0.90180 0.09230 -0.22600
O 	O 	0.29502 0.85189 0.33032 -0.40100
O 	O 	0.25619 0.89252 0.37627 -0.39700
C 	C 	0.30753 0.88240 0.35915 0.34800
C 	C 	0.38948 0.90893 0.37501 -0.03900
C 	C 	0.41172 0.95182 0.40557 -0.08600
H 	H 	0.37527 0.96523 0.41593 0.09000
H 	H 	0.65967 0.23513 0.42563 -0.22600
O 	O 	0.96168 0.18523 0.66366 -0.40100
O 	O 	0.92285 0.22586 0.70961 -0.39700
C 	C 	0.97419 0.21574 0.69249 0.34800
C 	C 	0.05614 0.24227 0.70835 -0.03800
C 	C 	0.07838 0.28516 0.73891 -0.08600
H 	H 	0.04193 0.29857 0.74927 0.09000
H 	H 	0.32633 0.56847 0.75897 -0.22600
O 	O 	0.10979 0.48144 0.00301 -0.40200
O 	O 	0.03033 0.44081 0.95706 -0.39700
C 	C 	0.09179 0.45093 0.97418 0.34800
C 	C 	0.14721 0.42440 0.95832 -0.03900
C 	C 	0.12656 0.38151 0.92776 -0.08600
H 	H 	0.07670 0.36810 0.91740 0.09000
H 	H 	0.09120 0.09820 0.90770 -0.22600
O 	O 	0.77646 0.81477 0.33634 -0.40100
O 	O 	0.69700 0.77414 0.29039 -0.39700
C 	C 	0.75846 0.78426 0.30751 0.34800
C 	C 	0.81388 0.75773 0.29165 -0.03800
C 	C 	0.79323 0.71484 0.26109 -0.08600
H 	H 	0.74337 0.70143 0.25073 0.09000
H 	H 	0.75787 0.43153 0.24103 -0.22600
O 	O 	0.44312 0.14811 0.66968 -0.40200
O 	O 	0.36366 0.10748 0.62373 -0.39700
C 	C 	0.42512 0.11760 0.64085 0.34800
C 	C 	0.48054 0.09107 0.62499 -0.03900
C 	C 	0.45989 0.04818 0.59443 -0.08600
H 	H 	0.41003 0.03477 0.58407 0.09000
H 	H 	0.42453 0.76487 0.57437 -0.22600
O 	O 	0.37165 0.89021 0.00301 -0.40200
O 	O 	0.41048 0.96967 0.95706 -0.39700
C 	C 	0.35914 0.90821 0.97418 0.34800
C 	C 	0.27719 0.85279 0.95832 -0.03900
C 	C 	0.25495 0.87344 0.92776 -0.08600
H 	H 	0.29140 0.92330 0.91740 0.09000
H 	H 	0.00700 0.90880 0.90770 -0.22600
O 	O 	0.03832 0.22354 0.33634 -0.40100
O 	O 	0.07715 0.30300 0.29039 -0.39700
C 	C 	0.02581 0.24154 0.30751 0.34800
C 	C 	0.94386 0.18612 0.29165 -0.03800
C 	C 	0.92162 0.20677 0.26109 -0.08600
H 	H 	0.95807 0.25663 0.25073 0.09000
H 	H 	0.67367 0.24213 0.24103 -0.22600
O 	O 	0.70498 0.55688 0.66968 -0.40100
O 	O 	0.74381 0.63634 0.62373 -0.39700
C 	C 	0.69247 0.57488 0.64085 0.34800
C 	C 	0.61052 0.51946 0.62499 -0.03900
C 	C 	0.58828 0.54011 0.59443 -0.08600
H 	H 	0.62473 0.58997 0.58407 0.09000
H 	H 	0.34033 0.57547 0.57437 -0.22600
O 	O 	0.51856 0.62835 0.00301 -0.40100
O 	O 	0.55919 0.58952 0.95706 -0.39700
C 	C 	0.54907 0.64086 0.97418 0.34800
C 	C 	0.57560 0.72281 0.95832 -0.03900
C 	C 	0.61849 0.74505 0.92776 -0.08600
H 	H 	0.63190 0.70860 0.91740 0.09000
H 	H 	0.90180 0.99300 0.90770 -0.22600
O 	O 	0.18523 0.96168 0.33634 -0.40100
O 	O 	0.22586 0.92285 0.29039 -0.39700
C 	C 	0.21574 0.97419 0.30751 0.34800
C 	C 	0.24227 0.05614 0.29165 -0.03800
C 	C 	0.28516 0.07838 0.26109 -0.08600
H 	H 	0.29857 0.04193 0.25073 0.09000
H 	H 	0.56847 0.32633 0.24103 -0.22600
O 	O 	0.85189 0.29502 0.66968 -0.40100
O 	O 	0.89252 0.25619 0.62373 -0.39700
C 	C 	0.88240 0.30753 0.64085 0.34800
C 	C 	0.90893 0.38948 0.62499 -0.03900
C 	C 	0.95182 0.41172 0.59443 -0.08600
H 	H 	0.96523 0.37527 0.58407 0.09000
H 	H 	0.23513 0.65967 0.57437 -0.22600
Cu	Cu	0.47644 0.95287 0.02739 0.90500
Cu	Cu	0.14310 0.28620 0.36072 0.90500
Cu	Cu	0.80977 0.61954 0.69405 0.90500
Cu	Cu	0.04713 0.52356 0.02739 0.90500
Cu	Cu	0.71380 0.85690 0.36072 0.90500
Cu	Cu	0.38046 0.19023 0.69405 0.90500
Cu	Cu	0.47644 0.52356 0.02739 0.90500
Cu	Cu	0.14310 0.85690 0.36072 0.90500
Cu	Cu	0.80977 0.19023 0.69405 0.90500
Cu	Cu	0.95287 0.47644 0.97261 0.90500
Cu	Cu	0.61954 0.80977 0.30595 0.90500
Cu	Cu	0.28620 0.14310 0.63928 0.90500
Cu	Cu	0.52356 0.04713 0.97261 0.90500
Cu	Cu	0.19023 0.38046 0.30595 0.90500
Cu	Cu	0.85690 0.71380 0.63928 0.90500
Cu	Cu	0.52356 0.47644 0.97261 0.90500
Cu	Cu	0.19023 0.80977 0.30595 0.90500
Cu	Cu	0.85690 0.14310 0.63928 0.90500
O 	O 	0.80900 0.90450 0.91000 -0.75900
C 	C 	0.55560 0.77780 0.97377 -0.01000
H 	H 	0.52890 0.76445 0.99450 0.06800
C 	C 	0.64130 0.82065 0.91267 0.13500
C 	C 	0.55710 0.77855 0.84676 0.08000
H 	H 	0.52620 0.76310 0.86650 0.01200
C 	C 	0.64560 0.82280 0.84891 0.01800
C 	C 	0.68690 0.84345 0.87990 -0.18300
C 	C 	0.77060 0.88530 0.87973 0.45200
C 	C 	0.81550 0.90775 0.84923 -0.31300
H 	H 	0.87310 0.93655 0.84970 0.15600
C 	C 	0.86920 0.93460 0.91830 1.15700
H 	H 	0.88430 0.94215 0.94110 -0.29500
O 	O 	0.47567 0.23783 0.24333 -0.75800
C 	C 	0.22227 0.11113 0.30710 -0.01000
H 	H 	0.19557 0.09778 0.32783 0.06800
C 	C 	0.30797 0.15398 0.24600 0.13500
C 	C 	0.22377 0.11188 0.18009 0.08000
H 	H 	0.19287 0.09643 0.19983 0.01200
C 	C 	0.31227 0.15613 0.18224 0.01800
C 	C 	0.35357 0.17678 0.21323 -0.18300
C 	C 	0.43727 0.21863 0.21306 0.45100
C 	C 	0.48217 0.24108 0.18256 -0.31300
H 	H 	0.53977 0.26988 0.18303 0.15600
C 	C 	0.53587 0.26793 0.25163 1.15600
H 	H 	0.55097 0.27548 0.27443 -0.29400
O 	O 	0.14233 0.57117 0.57667 -0.75800
C 	C 	0.88893 0.44447 0.64044 -0.01000
H 	H 	0.86223 0.43112 0.66117 0.06800
C 	C 	0.97463 0.48732 0.57934 0.13400
C 	C 	0.89043 0.44522 0.51343 0.08000
H 	H 	0.85953 0.42977 0.53317 0.01200
C 	C 	0.97893 0.48947 0.51558 0.01800
C 	C 	0.02023 0.51012 0.54657 -0.18300
C 	C 	0.10393 0.55197 0.54640 0.45100
C 	C 	0.14883 0.57442 0.51590 -0.31300
H 	H 	0.20643 0.60322 0.51637 0.15600
C 	C 	0.20253 0.60127 0.58497 1.15500
H 	H 	0.21763 0.60882 0.60777 -0.29400
O 	O 	0.09550 0.90450 0.91000 -0.75800
C 	C 	0.22220 0.77780 0.97377 -0.01000
H 	H 	0.23555 0.76445 0.99450 0.06800
C 	C 	0.17935 0.82065 0.91267 0.13500
C 	C 	0.22145 0.77855 0.84676 0.08000
H 	H 	0.23690 0.76310 0.86650 0.01200
C 	C 	0.17720 0.82280 0.84891 0.01800
C 	C 	0.15655 0.84345 0.87990 -0.18300
C 	C 	0.11470 0.88530 0.87973 0.45100
C 	C 	0.09225 0.90775 0.84923 -0.31300
H 	H 	0.06345 0.93655 0.84970 0.15600
C 	C 	0.06540 0.93460 0.91830 1.15600
H 	H 	0.05785 0.94215 0.94110 -0.29400
O 	O 	0.76217 0.23783 0.24333 -0.75800
C 	C 	0.88887 0.11113 0.30710 -0.01000
H 	H 	0.90222 0.09778 0.32783 0.06800
C 	C 	0.84602 0.15398 0.24600 0.13500
C 	C 	0.88812 0.11188 0.18009 0.08000
H 	H 	0.90357 0.09643 0.19983 0.01200
C 	C 	0.84387 0.15613 0.18224 0.01800
C 	C 	0.82322 0.17678 0.21323 -0.18400
C 	C 	0.78137 0.21863 0.21306 0.45200
C 	C 	0.75892 0.24108 0.18256 -0.31300
H 	H 	0.73012 0.26988 0.18303 0.15600
C 	C 	0.73207 0.26793 0.25163 1.15600
H 	H 	0.72452 0.27548 0.27443 -0.29400
O 	O 	0.42883 0.57117 0.57667 -0.75800
C 	C 	0.55553 0.44447 0.64044 -0.01000
H 	H 	0.56888 0.43112 0.66117 0.06800
C 	C 	0.51268 0.48732 0.57934 0.13500
C 	C 	0.55478 0.44522 0.51343 0.08000
H 	H 	0.57023 0.42977 0.53317 0.01200
C 	C 	0.51053 0.48947 0.51558 0.01800
C 	C 	0.48988 0.51012 0.54657 -0.18300
C 	C 	0.44803 0.55197 0.54640 0.45100
C 	C 	0.42558 0.57442 0.51590 -0.31300
H 	H 	0.39678 0.60322 0.51637 0.15600
C 	C 	0.39873 0.60127 0.58497 1.15600
H 	H 	0.39118 0.60882 0.60777 -0.29400
O 	O 	0.09550 0.19100 0.91000 -0.75900
C 	C 	0.22220 0.44440 0.97377 -0.01000
H 	H 	0.23555 0.47110 0.99450 0.06800
C 	C 	0.17935 0.35870 0.91267 0.13500
C 	C 	0.22145 0.44290 0.84676 0.08000
H 	H 	0.23690 0.47380 0.86650 0.01200
C 	C 	0.17720 0.35440 0.84891 0.01800
C 	C 	0.15655 0.31310 0.87990 -0.18300
C 	C 	0.11470 0.22940 0.87973 0.45200
C 	C 	0.09225 0.18450 0.84923 -0.31300
H 	H 	0.06345 0.12690 0.84970 0.15600
C 	C 	0.06540 0.13080 0.91830 1.15700
H 	H 	0.05785 0.11570 0.94110 -0.29500
O 	O 	0.76217 0.52433 0.24333 -0.75800
C 	C 	0.88887 0.77773 0.30710 -0.01000
H 	H 	0.90222 0.80443 0.32783 0.06800
C 	C 	0.84602 0.69203 0.24600 0.13500
C 	C 	0.88812 0.77623 0.18009 0.08000
H 	H 	0.90357 0.80713 0.19983 0.01200
C 	C 	0.84387 0.68773 0.18224 0.01800
C 	C 	0.82322 0.64643 0.21323 -0.18300
C 	C 	0.78137 0.56273 0.21306 0.45100
C 	C 	0.75892 0.51783 0.18256 -0.31300
H 	H 	0.73012 0.46023 0.18303 0.15600
C 	C 	0.73207 0.46413 0.25163 1.15600
H 	H 	0.72452 0.44903 0.27443 -0.29400
O 	O 	0.42883 0.85767 0.57667 -0.75800
C 	C 	0.55553 0.11107 0.64044 -0.01000
H 	H 	0.56888 0.13777 0.66117 0.06800
C 	C 	0.51268 0.02537 0.57934 0.13400
C 	C 	0.55478 0.10957 0.51343 0.08000
H 	H 	0.57023 0.14047 0.53317 0.01200
C 	C 	0.51053 0.02107 0.51558 0.01800
C 	C 	0.48988 0.97977 0.54657 -0.18300
C 	C 	0.44803 0.89607 0.54640 0.45100
C 	C 	0.42558 0.85117 0.51590 -0.31300
H 	H 	0.39678 0.79357 0.51637 0.15600
C 	C 	0.39873 0.79747 0.58497 1.15500
H 	H 	0.39118 0.78237 0.60777 -0.29400
O 	O 	0.90450 0.80900 0.09000 -0.75900
C 	C 	0.77780 0.55560 0.02623 -0.01000
H 	H 	0.76445 0.52890 0.00550 0.06800
C 	C 	0.82065 0.64130 0.08733 0.13500
C 	C 	0.77855 0.55710 0.15324 0.08000
H 	H 	0.76310 0.52620 0.13350 0.01200
C 	C 	0.82280 0.64560 0.15109 0.01800
C 	C 	0.84345 0.68690 0.12010 -0.18300
C 	C 	0.88530 0.77060 0.12027 0.45200
C 	C 	0.90775 0.81550 0.15077 -0.31300
H 	H 	0.93655 0.87310 0.15030 0.15600
C 	C 	0.93460 0.86920 0.08170 1.15700
H 	H 	0.94215 0.88430 0.05890 -0.29500
O 	O 	0.57117 0.14233 0.42333 -0.75800
C 	C 	0.44447 0.88893 0.35956 -0.01000
H 	H 	0.43112 0.86223 0.33883 0.06800
C 	C 	0.48732 0.97463 0.42066 0.13400
C 	C 	0.44522 0.89043 0.48657 0.08000
H 	H 	0.42977 0.85953 0.46683 0.01200
C 	C 	0.48947 0.97893 0.48442 0.01800
C 	C 	0.51012 0.02023 0.45343 -0.18300
C 	C 	0.55197 0.10393 0.45360 0.45100
C 	C 	0.57442 0.14883 0.48410 -0.31300
H 	H 	0.60322 0.20643 0.48363 0.15600
C 	C 	0.60127 0.20253 0.41503 1.15500
H 	H 	0.60882 0.21763 0.39223 -0.29400
O 	O 	0.23783 0.47567 0.75667 -0.75800
C 	C 	0.11113 0.22227 0.69290 -0.01000
H 	H 	0.09778 0.19557 0.67217 0.06800
C 	C 	0.15398 0.30797 0.75400 0.13500
C 	C 	0.11188 0.22377 0.81991 0.08000
H 	H 	0.09643 0.19287 0.80017 0.01200
C 	C 	0.15613 0.31227 0.81776 0.01800
C 	C 	0.17678 0.35357 0.78677 -0.18300
C 	C 	0.21863 0.43727 0.78694 0.45100
C 	C 	0.24108 0.48217 0.81744 -0.31300
H 	H 	0.26988 0.53977 0.81697 0.15600
C 	C 	0.26793 0.53587 0.74837 1.15600
H 	H 	0.27548 0.55097 0.72557 -0.29400
O 	O 	0.90450 0.09550 0.09000 -0.75800
C 	C 	0.77780 0.22220 0.02623 -0.01000
H 	H 	0.76445 0.23555 0.00550 0.06800
C 	C 	0.82065 0.17935 0.08733 0.13500
C 	C 	0.77855 0.22145 0.15324 0.08000
H 	H 	0.76310 0.23690 0.13350 0.01200
C 	C 	0.82280 0.17720 0.15109 0.01800
C 	C 	0.84345 0.15655 0.12010 -0.18300
C 	C 	0.88530 0.11470 0.12027 0.45100
C 	C 	0.90775 0.09225 0.15077 -0.31300
H 	H 	0.93655 0.06345 0.15030 0.15600
C 	C 	0.93460 0.06540 0.08170 1.15600
H 	H 	0.94215 0.05785 0.05890 -0.29400
O 	O 	0.57117 0.42883 0.42333 -0.75800
C 	C 	0.44447 0.55553 0.35956 -0.01000
H 	H 	0.43112 0.56888 0.33883 0.06800
C 	C 	0.48732 0.51268 0.42066 0.13500
C 	C 	0.44522 0.55478 0.48657 0.08000
H 	H 	0.42977 0.57023 0.46683 0.01200
C 	C 	0.48947 0.51053 0.48442 0.01800
C 	C 	0.51012 0.48988 0.45343 -0.18300
C 	C 	0.55197 0.44803 0.45360 0.45100
C 	C 	0.57442 0.42558 0.48410 -0.31300
H 	H 	0.60322 0.39678 0.48363 0.15600
C 	C 	0.60127 0.39873 0.41503 1.15600
H 	H 	0.60882 0.39118 0.39223 -0.29400
O 	O 	0.23783 0.76217 0.75667 -0.75800
C 	C 	0.11113 0.88887 0.69290 -0.01000
H 	H 	0.09778 0.90222 0.67217 0.06800
C 	C 	0.15398 0.84602 0.75400 0.13500
C 	C 	0.11188 0.88812 0.81991 0.08000
H 	H 	0.09643 0.90357 0.80017 0.01200
C 	C 	0.15613 0.84387 0.81776 0.01800
C 	C 	0.17678 0.82322 0.78677 -0.18400
C 	C 	0.21863 0.78137 0.78694 0.45200
C 	C 	0.24108 0.75892 0.81744 -0.31300
H 	H 	0.26988 0.73012 0.81697 0.15600
C 	C 	0.26793 0.73207 0.74837 1.15600
H 	H 	0.27548 0.72452 0.72557 -0.29400
O 	O 	0.19100 0.09550 0.09000 -0.75900
C 	C 	0.44440 0.22220 0.02623 -0.01000
H 	H 	0.47110 0.23555 0.00550 0.06800
C 	C 	0.35870 0.17935 0.08733 0.13500
C 	C 	0.44290 0.22145 0.15324 0.08000
H 	H 	0.47380 0.23690 0.13350 0.01200
C 	C 	0.35440 0.17720 0.15109 0.01800
C 	C 	0.31310 0.15655 0.12010 -0.18300
C 	C 	0.22940 0.11470 0.12027 0.45200
C 	C 	0.18450 0.09225 0.15077 -0.31300
H 	H 	0.12690 0.06345 0.15030 0.15600
C 	C 	0.13080 0.06540 0.08170 1.15700
H 	H 	0.11570 0.05785 0.05890 -0.29500
O 	O 	0.85767 0.42883 0.42333 -0.75800
C 	C 	0.11107 0.55553 0.35956 -0.01000
H 	H 	0.13777 0.56888 0.33883 0.06800
C 	C 	0.02537 0.51268 0.42066 0.13400
C 	C 	0.10957 0.55478 0.48657 0.08000
H 	H 	0.14047 0.57023 0.46683 0.01200
C 	C 	0.02107 0.51053 0.48442 0.01800
C 	C 	0.97977 0.48988 0.45343 -0.18300
C 	C 	0.89607 0.44803 0.45360 0.45100
C 	C 	0.85117 0.42558 0.48410 -0.31300
H 	H 	0.79357 0.39678 0.48363 0.15600
C 	C 	0.79747 0.39873 0.41503 1.15500
H 	H 	0.78237 0.39118 0.39223 -0.29400
O 	O 	0.52433 0.76217 0.75667 -0.75800
C 	C 	0.77773 0.88887 0.69290 -0.01000
H 	H 	0.80443 0.90222 0.67217 0.06800
C 	C 	0.69203 0.84602 0.75400 0.13500
C 	C 	0.77623 0.88812 0.81991 0.08000
H 	H 	0.80713 0.90357 0.80017 0.01200
C 	C 	0.68773 0.84387 0.81776 0.01800
C 	C 	0.64643 0.82322 0.78677 -0.18300
C 	C 	0.56273 0.78137 0.78694 0.45100
C 	C 	0.51783 0.75892 0.81744 -0.31300
H 	H 	0.46023 0.73012 0.81697 0.15600
C 	C 	0.46413 0.73207 0.74837 1.15600
H 	H 	0.44903 0.72452 0.72557 -0.29400
