data_crystal

_cell_length_a 14.81270
_cell_length_b 14.81270
_cell_length_c 15.61300
_cell_angle_alpha 90.00000
_cell_angle_beta  90.00000
_cell_angle_gamma 120.00000

_symmetry_space_group_name_	'P 1'
_symmetry_space_group_name_H-M	'P 1'

loop_
_symmetry_equiv_pos_as_xyz
  x,y,z

loop_
_atom_site_label
_atom_site_type_symbol
_atom_site_fract_x
_atom_site_fract_y
_atom_site_fract_z
_atom_site_charge
Sm	Sm	0.66667 0.33334 0.75000 2.19600
Sm	Sm	0.33333 0.66666 0.75000 2.19600
Sm	Sm	0.33333 0.66666 0.25000 2.17600
Sm	Sm	0.66667 0.33334 0.25000 2.17600
Zn	Zn	0.50000 0.50000 -0.00000 1.16800
Zn	Zn	-0.00000 0.50000 -0.00000 1.13800
Zn	Zn	0.50000 0.00000 -0.00000 1.13800
Zn	Zn	0.00000 0.50000 0.50000 1.19000
Zn	Zn	0.50000 0.50000 0.50000 1.22100
Zn	Zn	0.50000 0.00000 0.50000 1.19000
H 	H 	0.71950 0.63000 0.76970 0.11700
H 	H 	0.79730 0.63240 0.83910 0.14800
H 	H 	0.91050 0.28050 0.76970 0.12500
H 	H 	0.83510 0.20270 0.83910 0.11800
H 	H 	0.37000 0.08950 0.76970 0.06400
H 	H 	0.36760 0.16490 0.83910 0.09800
H 	H 	0.28050 0.37000 0.76970 0.08700
H 	H 	0.20270 0.36760 0.83910 0.09600
H 	H 	0.08950 0.71950 0.76970 0.07800
H 	H 	0.16490 0.79730 0.83910 0.12400
H 	H 	0.63000 0.91050 0.76970 0.14000
H 	H 	0.63240 0.83510 0.83910 0.14400
H 	H 	0.08950 0.37000 0.73030 0.06500
H 	H 	0.16490 0.36760 0.66090 0.07800
H 	H 	0.63000 0.71950 0.73030 0.11800
H 	H 	0.63240 0.79730 0.66090 0.12900
H 	H 	0.28050 0.91050 0.73030 0.12600
H 	H 	0.20270 0.83510 0.66090 0.09800
H 	H 	0.91050 0.63000 0.73030 0.14100
H 	H 	0.83510 0.63240 0.66090 0.12500
H 	H 	0.37000 0.28050 0.73030 0.08800
H 	H 	0.36760 0.20270 0.66090 0.07500
H 	H 	0.71950 0.08950 0.73030 0.07900
H 	H 	0.79730 0.16490 0.66090 0.10500
H 	H 	0.28050 0.37000 0.23030 0.07500
H 	H 	0.20270 0.36760 0.16090 0.04900
H 	H 	0.08950 0.71950 0.23030 0.06600
H 	H 	0.16490 0.79730 0.16090 0.07900
H 	H 	0.63000 0.91050 0.23030 0.12900
H 	H 	0.63240 0.83510 0.16090 0.09900
H 	H 	0.71950 0.63000 0.23030 0.10500
H 	H 	0.79730 0.63240 0.16090 0.10300
H 	H 	0.91050 0.28050 0.23030 0.11400
H 	H 	0.83510 0.20270 0.16090 0.07300
H 	H 	0.37000 0.08950 0.23030 0.05100
H 	H 	0.36760 0.16490 0.16090 0.05100
H 	H 	0.91050 0.63000 0.26970 0.12900
H 	H 	0.83510 0.63240 0.33910 0.11800
H 	H 	0.37000 0.28050 0.26970 0.07500
H 	H 	0.36760 0.20270 0.33910 0.06800
H 	H 	0.71950 0.08950 0.26970 0.06600
H 	H 	0.79730 0.16490 0.33910 0.09800
H 	H 	0.08950 0.37000 0.26970 0.05100
H 	H 	0.16490 0.36760 0.33910 0.07100
H 	H 	0.63000 0.71950 0.26970 0.10500
H 	H 	0.63240 0.79730 0.33910 0.12200
H 	H 	0.28050 0.91050 0.26970 0.11400
H 	H 	0.20270 0.83510 0.33910 0.09200
C 	C 	0.64840 0.51710 0.85970 0.45100
C 	C 	0.73790 0.58680 0.80380 -0.24500
C 	C 	0.86870 0.35160 0.85970 0.44100
C 	C 	0.84890 0.26210 0.80380 -0.22500
C 	C 	0.48290 0.13130 0.85970 0.42600
C 	C 	0.41320 0.15110 0.80380 -0.19400
C 	C 	0.35160 0.48290 0.85970 0.42900
C 	C 	0.26210 0.41320 0.80380 -0.19900
C 	C 	0.13130 0.64840 0.85970 0.43600
C 	C 	0.15110 0.73790 0.80380 -0.21600
C 	C 	0.51710 0.86870 0.85970 0.45100
C 	C 	0.58680 0.84890 0.80380 -0.24800
C 	C 	0.13130 0.48290 0.64030 0.42800
C 	C 	0.15110 0.41320 0.69620 -0.19600
C 	C 	0.51710 0.64840 0.64030 0.45400
C 	C 	0.58680 0.73790 0.69620 -0.24700
C 	C 	0.35160 0.86870 0.64030 0.44300
C 	C 	0.26210 0.84890 0.69620 -0.22700
C 	C 	0.86870 0.51710 0.64030 0.45300
C 	C 	0.84890 0.58680 0.69620 -0.25000
C 	C 	0.48290 0.35160 0.64030 0.43200
C 	C 	0.41320 0.26210 0.69620 -0.20100
C 	C 	0.64840 0.13130 0.64030 0.43900
C 	C 	0.73790 0.15110 0.69620 -0.21900
C 	C 	0.35160 0.48290 0.14030 0.42300
C 	C 	0.26210 0.41320 0.19620 -0.18800
C 	C 	0.13130 0.64840 0.14030 0.43100
C 	C 	0.15110 0.73790 0.19620 -0.20600
C 	C 	0.51710 0.86870 0.14030 0.44600
C 	C 	0.58680 0.84890 0.19620 -0.23700
C 	C 	0.64840 0.51710 0.14030 0.44600
C 	C 	0.73790 0.58680 0.19620 -0.23400
C 	C 	0.86870 0.35160 0.14030 0.43500
C 	C 	0.84890 0.26210 0.19620 -0.21400
C 	C 	0.48290 0.13130 0.14030 0.42000
C 	C 	0.41320 0.15110 0.19620 -0.18200
C 	C 	0.86870 0.51710 0.35970 0.44900
C 	C 	0.84890 0.58680 0.30380 -0.23900
C 	C 	0.48290 0.35160 0.35970 0.42600
C 	C 	0.41320 0.26210 0.30380 -0.18900
C 	C 	0.64840 0.13130 0.35970 0.43400
C 	C 	0.73790 0.15110 0.30380 -0.20700
C 	C 	0.13130 0.48290 0.35970 0.42300
C 	C 	0.15110 0.41320 0.30380 -0.18400
C 	C 	0.51710 0.64840 0.35970 0.44800
C 	C 	0.58680 0.73790 0.30380 -0.23600
C 	C 	0.35160 0.86870 0.35970 0.43800
C 	C 	0.26210 0.84890 0.30380 -0.21600
O 	O 	0.61500 0.42020 0.85540 -0.46400
O 	O 	0.61470 0.56030 0.90760 -0.39900
O 	O 	0.80520 0.38500 0.85540 -0.45000
O 	O 	0.94560 0.38530 0.90760 -0.36100
O 	O 	0.57980 0.19480 0.85540 -0.46800
O 	O 	0.43970 0.05440 0.90760 -0.43800
O 	O 	0.38500 0.57980 0.85540 -0.45900
O 	O 	0.38530 0.43970 0.90760 -0.40600
O 	O 	0.19480 0.61500 0.85540 -0.47000
O 	O 	0.05440 0.61470 0.90760 -0.43500
O 	O 	0.42020 0.80520 0.85540 -0.45200
O 	O 	0.56030 0.94560 0.90760 -0.35800
O 	O 	0.19480 0.57980 0.64460 -0.50000
O 	O 	0.05440 0.43970 0.59240 -0.50600
O 	O 	0.42020 0.61500 0.64460 -0.49500
O 	O 	0.56030 0.61470 0.59240 -0.46700
O 	O 	0.38500 0.80520 0.64460 -0.48100
O 	O 	0.38530 0.94560 0.59240 -0.42700
O 	O 	0.80520 0.42020 0.64460 -0.48300
O 	O 	0.94560 0.56030 0.59240 -0.42300
O 	O 	0.57980 0.38500 0.64460 -0.49100
O 	O 	0.43970 0.38530 0.59240 -0.47400
O 	O 	0.61500 0.19480 0.64460 -0.50200
O 	O 	0.61470 0.05440 0.59240 -0.50300
O 	O 	0.38500 0.57980 0.14460 -0.51200
O 	O 	0.38530 0.43970 0.09240 -0.51900
O 	O 	0.19480 0.61500 0.14460 -0.52300
O 	O 	0.05440 0.61470 0.09240 -0.54700
O 	O 	0.42020 0.80520 0.14460 -0.50400
O 	O 	0.56030 0.94560 0.09240 -0.46600
O 	O 	0.61500 0.42020 0.14460 -0.51700
O 	O 	0.61470 0.56030 0.09240 -0.51100
O 	O 	0.80520 0.38500 0.14460 -0.50200
O 	O 	0.94560 0.38530 0.09240 -0.47000
O 	O 	0.57980 0.19480 0.14460 -0.52100
O 	O 	0.43970 0.05440 0.09240 -0.55100
O 	O 	0.80520 0.42020 0.35540 -0.47900
O 	O 	0.94560 0.56030 0.40760 -0.42200
O 	O 	0.57980 0.38500 0.35540 -0.48700
O 	O 	0.43970 0.38530 0.40760 -0.47300
O 	O 	0.61500 0.19480 0.35540 -0.49800
O 	O 	0.61470 0.05440 0.40760 -0.50200
O 	O 	0.19480 0.57980 0.35540 -0.49600
O 	O 	0.05440 0.43970 0.40760 -0.50500
O 	O 	0.42020 0.61500 0.35540 -0.49200
O 	O 	0.56030 0.61470 0.40760 -0.46600
O 	O 	0.38500 0.80520 0.35540 -0.47700
O 	O 	0.38530 0.94560 0.40760 -0.42500
O 	O 	0.76460 0.52920 0.75000 -0.22800
O 	O 	0.76460 0.23540 0.75000 -0.24400
O 	O 	0.47080 0.23540 0.75000 -0.26000
O 	O 	0.23540 0.47080 0.75000 -0.26000
O 	O 	0.23540 0.76460 0.75000 -0.24400
O 	O 	0.52920 0.76460 0.75000 -0.22800
O 	O 	0.23540 0.47080 0.25000 -0.27000
O 	O 	0.23540 0.76460 0.25000 -0.25300
O 	O 	0.52920 0.76460 0.25000 -0.23700
O 	O 	0.76460 0.52920 0.25000 -0.23700
O 	O 	0.76460 0.23540 0.25000 -0.25300
O 	O 	0.47080 0.23540 0.25000 -0.27000
