data_crystal

_cell_length_a 17.72400
_cell_length_b 19.70500
_cell_length_c 13.13900
_cell_angle_alpha 90.00000
_cell_angle_beta  127.49600
_cell_angle_gamma 90.00000

_symmetry_space_group_name_	'P 1'
_symmetry_space_group_name_H-M	'P 1'

loop_
_symmetry_equiv_pos_as_xyz
  x,y,z

loop_
_atom_site_label
_atom_site_type_symbol
_atom_site_fract_x
_atom_site_fract_y
_atom_site_fract_z
_atom_site_charge
O 	O 	0.45455 0.42353 0.32120 -0.47000
O 	O 	0.59419 0.42848 0.51480 -0.47600
O 	O 	0.40490 0.22206 0.03350 -0.38100
O 	O 	0.52120 0.14670 0.13560 -0.53100
N 	N 	0.11609 0.46438 0.08380 -0.31000
N 	N 	0.23620 0.38032 0.18940 -0.33600
H 	H 	0.19530 0.34790 0.15310 0.12100
H 	H 	0.29590 0.37130 0.24210 0.15100
C 	C 	0.53740 0.40273 0.40640 0.39600
C 	C 	0.57090 0.34051 0.37780 -0.11300
C 	C 	0.66410 0.31913 0.46970 -0.00500
H 	H 	0.70310 0.34380 0.54530 0.04700
C 	C 	0.70030 0.26160 0.45110 -0.01100
C 	C 	0.63840 0.22620 0.33720 -0.00600
H 	H 	0.66040 0.18740 0.32250 0.03900
C 	C 	0.54530 0.24610 0.24500 -0.11900
C 	C 	0.51130 0.30460 0.26450 0.04500
H 	H 	0.44940 0.31930 0.20220 0.02300
C 	C 	0.48420 0.20340 0.12620 0.37000
C 	C 	0.20620 0.44616 0.16330 0.18500
O 	O 	0.95455 0.92353 0.32120 -0.41300
O 	O 	0.09419 0.92848 0.51480 -0.44300
O 	O 	0.90490 0.72206 0.03350 -0.38000
O 	O 	0.02120 0.64670 0.13560 -0.55500
N 	N 	0.61609 0.96438 0.08380 -0.28700
N 	N 	0.73620 0.88032 0.18940 -0.34700
H 	H 	0.69530 0.84790 0.15310 0.12800
H 	H 	0.79590 0.87130 0.24210 0.16200
C 	C 	0.03740 0.90273 0.40640 0.34700
C 	C 	0.07090 0.84051 0.37780 -0.07700
C 	C 	0.16410 0.81913 0.46970 -0.02200
H 	H 	0.20310 0.84380 0.54530 0.05600
C 	C 	0.20030 0.76160 0.45110 -0.00400
C 	C 	0.13840 0.72620 0.33720 -0.00400
H 	H 	0.16040 0.68740 0.32250 0.04000
C 	C 	0.04530 0.74610 0.24500 -0.12700
C 	C 	0.01130 0.80460 0.26450 -0.01300
H 	H 	0.94940 0.81930 0.20220 0.06400
C 	C 	0.98420 0.70340 0.12620 0.42400
C 	C 	0.70620 0.94616 0.16330 0.24300
O 	O 	0.54545 0.42353 0.67880 -0.43800
O 	O 	0.40581 0.42848 0.48520 -0.47000
O 	O 	0.59510 0.22206 0.96650 -0.20700
O 	O 	0.47880 0.14670 0.86440 -0.42900
N 	N 	0.88391 0.46438 0.91620 -0.23400
N 	N 	0.76380 0.38032 0.81060 -0.35500
H 	H 	0.80470 0.34790 0.84690 0.20500
H 	H 	0.70410 0.37130 0.75790 0.18200
C 	C 	0.46260 0.40273 0.59360 0.39000
C 	C 	0.42910 0.34051 0.62220 -0.07900
C 	C 	0.33590 0.31913 0.53030 -0.02300
H 	H 	0.29690 0.34380 0.45470 0.05200
C 	C 	0.29970 0.26160 0.54890 0.01100
C 	C 	0.36160 0.22620 0.66280 -0.02500
H 	H 	0.33960 0.18740 0.67750 0.05400
C 	C 	0.45470 0.24610 0.75500 -0.05800
C 	C 	0.48870 0.30460 0.73550 0.02200
H 	H 	0.55060 0.31930 0.79780 0.07200
C 	C 	0.51580 0.20340 0.87380 0.35500
C 	C 	0.79380 0.44616 0.83670 0.23600
O 	O 	0.04545 0.92353 0.67880 -0.44200
O 	O 	0.90581 0.92848 0.48520 -0.44900
O 	O 	0.09510 0.72206 0.96650 -0.19500
O 	O 	0.97880 0.64670 0.86440 -0.38600
N 	N 	0.38391 0.96438 0.91620 -0.22000
N 	N 	0.26380 0.88032 0.81060 -0.36500
H 	H 	0.30470 0.84790 0.84690 0.20600
H 	H 	0.20410 0.87130 0.75790 0.18800
C 	C 	0.96260 0.90273 0.59360 0.42800
C 	C 	0.92910 0.84051 0.62220 -0.09300
C 	C 	0.83590 0.81913 0.53030 -0.01100
H 	H 	0.79690 0.84380 0.45470 0.05300
C 	C 	0.79970 0.76160 0.54890 0.01600
C 	C 	0.86160 0.72620 0.66280 -0.03000
H 	H 	0.83960 0.68740 0.67750 0.06200
C 	C 	0.95470 0.74610 0.75500 -0.03400
C 	C 	0.98870 0.80460 0.73550 0.07300
H 	H 	0.05060 0.81930 0.79780 0.04300
C 	C 	0.01580 0.70340 0.87380 0.29800
C 	C 	0.29380 0.94616 0.83670 0.28900
O 	O 	0.54545 0.57647 0.67880 -0.43800
O 	O 	0.40581 0.57152 0.48520 -0.46900
O 	O 	0.59510 0.77794 0.96650 -0.20200
O 	O 	0.47880 0.85330 0.86440 -0.41500
N 	N 	0.88391 0.53562 0.91620 -0.23400
N 	N 	0.76380 0.61968 0.81060 -0.35700
H 	H 	0.80470 0.65210 0.84690 0.20700
H 	H 	0.70410 0.62870 0.75790 0.18400
C 	C 	0.46260 0.59727 0.59360 0.39000
C 	C 	0.42910 0.65949 0.62220 -0.07700
C 	C 	0.33590 0.68087 0.53030 -0.02200
H 	H 	0.29690 0.65620 0.45470 0.05200
C 	C 	0.29970 0.73840 0.54890 0.01300
C 	C 	0.36160 0.77380 0.66280 -0.02400
H 	H 	0.33960 0.81260 0.67750 0.06000
C 	C 	0.45470 0.75390 0.75500 -0.05200
C 	C 	0.48870 0.69540 0.73550 0.02200
H 	H 	0.55060 0.68070 0.79780 0.07400
C 	C 	0.51580 0.79660 0.87380 0.35400
C 	C 	0.79380 0.55384 0.83670 0.23600
O 	O 	0.04545 0.07647 0.67880 -0.48000
O 	O 	0.90581 0.07152 0.48520 -0.48900
O 	O 	0.09510 0.27794 0.96650 -0.20100
O 	O 	0.97880 0.35330 0.86440 -0.38700
N 	N 	0.38391 0.03562 0.91620 -0.26600
N 	N 	0.26380 0.11968 0.81060 -0.35500
H 	H 	0.30470 0.15210 0.84690 0.20100
H 	H 	0.20410 0.12870 0.75790 0.17800
C 	C 	0.96260 0.09727 0.59360 0.43400
C 	C 	0.92910 0.15949 0.62220 -0.10900
C 	C 	0.83590 0.18087 0.53030 -0.00700
H 	H 	0.79690 0.15620 0.45470 0.04400
C 	C 	0.79970 0.23840 0.54890 0.00800
C 	C 	0.86160 0.27380 0.66280 -0.02700
H 	H 	0.83960 0.31260 0.67750 0.06000
C 	C 	0.95470 0.25390 0.75500 -0.04200
C 	C 	0.98870 0.19540 0.73550 0.07700
H 	H 	0.05060 0.18070 0.79780 0.03400
C 	C 	0.01580 0.29660 0.87380 0.30000
C 	C 	0.29380 0.05384 0.83670 0.22300
O 	O 	0.45455 0.57647 0.32120 -0.46800
O 	O 	0.59419 0.57152 0.51480 -0.47500
O 	O 	0.40490 0.77794 0.03350 -0.37600
O 	O 	0.52120 0.85330 0.13560 -0.51700
N 	N 	0.11609 0.53562 0.08380 -0.31000
N 	N 	0.23620 0.61968 0.18940 -0.33700
H 	H 	0.19530 0.65210 0.15310 0.12300
H 	H 	0.29590 0.62870 0.24210 0.15300
C 	C 	0.53740 0.59727 0.40640 0.39700
C 	C 	0.57090 0.65949 0.37780 -0.11100
C 	C 	0.66410 0.68087 0.46970 -0.00300
H 	H 	0.70310 0.65620 0.54530 0.04700
C 	C 	0.70030 0.73840 0.45110 -0.00800
C 	C 	0.63840 0.77380 0.33720 -0.00500
H 	H 	0.66040 0.81260 0.32250 0.04400
C 	C 	0.54530 0.75390 0.24500 -0.11300
C 	C 	0.51130 0.69540 0.26450 0.04500
H 	H 	0.44940 0.68070 0.20220 0.02400
C 	C 	0.48420 0.79660 0.12620 0.36900
C 	C 	0.20620 0.55384 0.16330 0.18500
O 	O 	0.95455 0.07647 0.32120 -0.45200
O 	O 	0.09419 0.07152 0.51480 -0.48300
O 	O 	0.90490 0.27794 0.03350 -0.38700
O 	O 	0.02120 0.35330 0.13560 -0.55700
N 	N 	0.61609 0.03562 0.08380 -0.33300
N 	N 	0.73620 0.11968 0.18940 -0.33700
H 	H 	0.69530 0.15210 0.15310 0.12300
H 	H 	0.79590 0.12870 0.24210 0.15300
C 	C 	0.03740 0.09727 0.40640 0.35300
C 	C 	0.07090 0.15949 0.37780 -0.09300
C 	C 	0.16410 0.18087 0.46970 -0.01800
H 	H 	0.20310 0.15620 0.54530 0.04700
C 	C 	0.20030 0.23840 0.45110 -0.01100
C 	C 	0.13840 0.27380 0.33720 -0.00100
H 	H 	0.16040 0.31260 0.32250 0.03700
C 	C 	0.04530 0.25390 0.24500 -0.13600
C 	C 	0.01130 0.19540 0.26450 -0.00900
H 	H 	0.94940 0.18070 0.20220 0.05600
C 	C 	0.98420 0.29660 0.12620 0.42700
C 	C 	0.70620 0.05384 0.16330 0.17700
Zn	Zn	0.40437 0.50000 0.36862 1.21700
N 	N 	0.26560 0.50000 0.21730 -0.29700
Zn	Zn	0.90437 0.00000 0.36862 1.20200
N 	N 	0.76560 0.00000 0.21730 -0.33700
Zn	Zn	0.59563 0.50000 0.63138 1.21900
N 	N 	0.73440 0.50000 0.78270 -0.29600
Zn	Zn	0.09563 0.00000 0.63138 1.20000
N 	N 	0.23440 0.00000 0.78270 -0.33700
Zn	Zn	-0.00000 0.40852 -0.00000 1.14800
Zn	Zn	0.50000 0.90852 -0.00000 1.16000
Zn	Zn	-0.00000 0.59148 -0.00000 1.14800
Zn	Zn	0.50000 0.09148 -0.00000 1.15200
