data_crystal

_cell_length_a 13.77500
_cell_length_b 14.50700
_cell_length_c 24.24400
_cell_angle_alpha 83.21700
_cell_angle_beta  81.79700
_cell_angle_gamma 65.57200

_symmetry_space_group_name_	'P 1'
_symmetry_space_group_name_H-M	'P 1'

loop_
_symmetry_equiv_pos_as_xyz
  x,y,z

loop_
_atom_site_label
_atom_site_type_symbol
_atom_site_fract_x
_atom_site_fract_y
_atom_site_fract_z
_atom_site_charge
Cd	Cd	0.74745 0.77374 0.60062 1.23500
Cd	Cd	0.75074 0.74967 0.74979 1.25500
Cd	Cd	0.27160 0.25980 0.10360 0.75100
O 	O 	0.36100 0.30030 0.02710 -0.27700
Si	Si	0.36915 0.39464 0.73624 0.70400
Si	Si	0.12890 0.10540 0.76470 0.91300
O 	O 	0.86840 0.72650 0.66990 -0.50600
O 	O 	0.91380 0.62850 0.59960 -0.37600
O 	O 	0.21720 0.28020 0.00960 -0.37800
O 	O 	0.62900 0.88170 0.69270 -0.45000
O 	O 	0.65190 0.93440 0.61810 -0.30200
O 	O 	0.65020 0.68370 0.62920 -0.45000
O 	O 	0.67920 0.66280 0.71600 -0.46900
O 	O 	0.28440 0.20930 0.49040 -0.40500
O 	O 	0.15780 0.16250 0.47750 -0.49100
O 	O 	0.85150 0.59610 0.78960 -0.43400
O 	O 	0.63100 0.76860 0.83110 -0.50500
O 	O 	0.58940 0.87170 0.89990 -0.43500
O 	O 	0.89790 0.56620 0.87780 -0.36800
C 	C 	0.93370 0.65190 0.64470 0.30100
C 	C 	0.04050 0.58680 0.66590 -0.04500
C 	C 	0.11040 0.49980 0.63970 -0.08800
H 	H 	0.09130 0.48130 0.60780 0.06000
C 	C 	0.20820 0.44000 0.66000 0.05800
H 	H 	0.25590 0.38060 0.64210 -0.00900
C 	C 	0.23610 0.46720 0.70660 -0.24100
C 	C 	0.16620 0.55410 0.73280 0.05300
H 	H 	0.18530 0.57270 0.76460 0.00700
C 	C 	0.06840 0.61390 0.71250 -0.07800
H 	H 	0.02060 0.67330 0.73040 0.04400
C 	C 	0.30140 0.30800 0.99040 0.28600
C 	C 	0.30610 0.34230 0.92920 0.00500
C 	C 	0.38880 0.37160 0.90770 -0.09900
H 	H 	0.43250 0.37960 0.93220 0.08100
C 	C 	0.40770 0.38940 0.85040 0.08400
H 	H 	0.46430 0.40950 0.83570 -0.01000
C 	C 	0.34380 0.37780 0.81460 -0.24900
C 	C 	0.26100 0.34840 0.83610 0.08100
H 	H 	0.21740 0.34050 0.81160 -0.00200
C 	C 	0.24220 0.33070 0.89340 -0.09300
H 	H 	0.18560 0.31060 0.90810 0.08100
C 	C 	0.62670 0.95520 0.66520 0.41800
C 	C 	0.56350 0.06280 0.68140 -0.07000
C 	C 	0.53780 0.14250 0.64060 -0.05700
H 	H 	0.56110 0.12930 0.60250 0.04200
C 	C 	0.47810 0.24150 0.65560 0.04700
H 	H 	0.46060 0.29590 0.62770 -0.02200
C 	C 	0.44390 0.26100 0.71150 -0.23000
C 	C 	0.46950 0.18130 0.75230 0.04300
H 	H 	0.44620 0.19450 0.79050 0.00800
C 	C 	0.52930 0.08230 0.73730 -0.03700
H 	H 	0.54680 0.02790 0.76520 0.06000
C 	C 	0.64020 0.65040 0.67760 0.41600
C 	C 	0.57520 0.58700 0.68870 -0.06000
C 	C 	0.45480 0.47120 0.71560 -0.24400
C 	C 	0.47860 0.61590 0.66640 -0.05200
H 	H 	0.45360 0.67520 0.64200 0.04700
C 	C 	0.41830 0.55810 0.67980 0.03200
H 	H 	0.35230 0.57780 0.66450 -0.00900
C 	C 	0.55140 0.44230 0.73790 0.03400
H 	H 	0.57640 0.38300 0.76230 -0.00100
C 	C 	0.61160 0.50020 0.72450 -0.05100
H 	H 	0.67760 0.48050 0.73980 0.04400
O 	O 	0.84440 0.81920 0.87110 -0.06400
O 	O 	0.88290 0.78470 0.78690 0.02500
C 	C 	0.89760 0.82310 0.83000 -2.31500
C 	C 	0.96080 0.88760 0.81460 3.91900
C 	C 	0.03790 0.86740 0.76870 -3.01000
H 	H 	0.05110 0.81260 0.74670 1.06400
C 	C 	0.09570 0.92750 0.75500 2.98100
H 	H 	0.14830 0.91370 0.72360 -0.97100
C 	C 	0.07640 0.00770 0.78710 -3.08800
C 	C 	0.99930 0.02790 0.83300 3.46500
H 	H 	0.98610 0.08270 0.85500 -1.24400
C 	C 	0.94160 0.96780 0.84670 -2.34300
H 	H 	0.88890 0.98160 0.87810 0.88700
C 	C 	0.21540 0.17910 0.50770 0.33100
C 	C 	0.19830 0.15440 0.56960 -0.02800
C 	C 	0.11370 0.12950 0.59370 -0.10000
H 	H 	0.06450 0.12820 0.57040 0.05100
C 	C 	0.09880 0.10650 0.65070 0.09700
H 	H 	0.04020 0.08980 0.66570 -0.04300
C 	C 	0.16970 0.10790 0.68570 -0.28500
C 	C 	0.25450 0.13270 0.66190 0.10000
H 	H 	0.30380 0.13410 0.68520 -0.00900
C 	C 	0.26890 0.15570 0.60480 -0.09100
H 	H 	0.32750 0.17240 0.58980 0.07400
C 	C 	0.87760 0.54240 0.82960 0.29500
C 	C 	0.95030 0.43440 0.81720 0.03900
C 	C 	0.98380 0.41330 0.76150 -0.15400
H 	H 	0.96740 0.46700 0.73320 0.09600
C 	C 	0.04120 0.31350 0.74730 0.14700
H 	H 	0.06400 0.29920 0.70920 -0.04800
C 	C 	0.06520 0.23480 0.78870 -0.41000
C 	C 	0.03190 0.25570 0.84440 0.17300
H 	H 	0.04820 0.20200 0.87270 -0.01900
C 	C 	0.97440 0.35550 0.85850 -0.16300
H 	H 	0.95160 0.36990 0.89660 0.09900
C 	C 	0.56660 0.85340 0.85860 0.28900
C 	C 	0.46120 0.91380 0.83490 -0.01400
C 	C 	0.43480 0.88570 0.78820 -0.08600
H 	H 	0.48340 0.82650 0.77040 0.06900
C 	C 	0.33710 0.94440 0.76740 0.07800
H 	H 	0.31900 0.92510 0.73550 0.03200
C 	C 	0.26580 0.03110 0.79340 -0.24300
C 	C 	0.29230 0.05920 0.84010 0.06900
H 	H 	0.24360 0.11850 0.85790 -0.00500
C 	C 	0.39000 0.00060 0.86090 -0.09800
H 	H 	0.40810 0.01980 0.89280 0.07400
Cd	Cd	0.22620 0.28590 0.09812 0.75600
O 	O 	0.31060 0.36910 0.02020 -0.18900
C 	C 	0.43710 0.55130 0.74750 0.02700
H 	H 	0.38380 0.56640 0.77860 0.01100
C 	C 	0.49720 0.60920 0.73420 -0.03400
H 	H 	0.48500 0.66390 0.75610 0.04600
C 	C 	0.59270 0.50700 0.65690 -0.04100
H 	H 	0.64600 0.49190 0.62580 0.01300
C 	C 	0.53270 0.44890 0.67010 0.02200
H 	H 	0.54490 0.39420 0.64820 -0.02200
O 	O 	0.76880 0.87780 0.78220 -0.81700
C 	C 	0.83430 0.87710 0.82110 2.43800
C 	C 	0.89520 0.94420 0.80950 -3.50300
C 	C 	0.98920 0.91420 0.83460 1.41800
H 	H 	0.00990 0.85620 0.86020 -0.71800
C 	C 	0.05290 0.96880 0.82230 -2.81000
H 	H 	0.11710 0.94820 0.83950 1.08900
C 	C 	0.02270 0.05360 0.78480 2.54500
C 	C 	0.92870 0.08370 0.75960 -2.64400
H 	H 	0.90800 0.14170 0.73400 0.86400
C 	C 	0.86510 0.02900 0.77200 2.76400
H 	H 	0.80090 0.04960 0.75480 -0.88400
Cd	Cd	0.23010 0.78160 0.48190 1.14800
O 	O 	0.20800 0.91910 0.41590 -0.71600
O 	O 	0.28800 0.86100 0.54130 -0.25500
O 	O 	0.04890 0.87600 0.51160 -0.29300
O 	O 	0.69600 0.94900 0.61000 -0.21500
Cd	Cd	0.17830 0.00420 0.44838 1.28000
O 	O 	0.31320 0.92000 0.50820 -0.23500
O 	O 	0.07200 0.95000 0.51770 -0.26100
Cd	Cd	0.25255 0.22626 0.39938 1.23400
Cd	Cd	0.24926 0.25033 0.25021 1.25400
Cd	Cd	0.72840 0.74020 0.89640 0.75000
O 	O 	0.63900 0.69970 0.97290 -0.27800
Si	Si	0.63085 0.60536 0.26376 0.70300
Si	Si	0.87110 0.89460 0.23530 0.91200
O 	O 	0.13160 0.27350 0.33010 -0.50700
O 	O 	0.08620 0.37150 0.40040 -0.37700
O 	O 	0.78280 0.71980 0.99040 -0.37800
O 	O 	0.37100 0.11830 0.30730 -0.45000
O 	O 	0.34810 0.06560 0.38190 -0.30200
O 	O 	0.34980 0.31630 0.37080 -0.45000
O 	O 	0.32080 0.33720 0.28400 -0.46900
O 	O 	0.71560 0.79070 0.50960 -0.40500
O 	O 	0.84220 0.83750 0.52250 -0.49100
O 	O 	0.14850 0.40390 0.21040 -0.43400
O 	O 	0.36900 0.23140 0.16890 -0.50500
O 	O 	0.41060 0.12830 0.10010 -0.43500
O 	O 	0.10210 0.43380 0.12220 -0.36800
C 	C 	0.06630 0.34810 0.35530 0.30100
C 	C 	0.95950 0.41320 0.33410 -0.04500
C 	C 	0.88960 0.50020 0.36030 -0.08800
H 	H 	0.90870 0.51870 0.39220 0.06000
C 	C 	0.79180 0.56000 0.34000 0.05800
H 	H 	0.74410 0.61940 0.35790 -0.00900
C 	C 	0.76390 0.53280 0.29340 -0.24100
C 	C 	0.83380 0.44590 0.26720 0.05300
H 	H 	0.81470 0.42730 0.23540 0.00700
C 	C 	0.93160 0.38610 0.28750 -0.07800
H 	H 	0.97940 0.32670 0.26960 0.04400
C 	C 	0.69860 0.69200 0.00960 0.28600
C 	C 	0.69390 0.65770 0.07080 0.00500
C 	C 	0.61120 0.62840 0.09230 -0.09900
H 	H 	0.56750 0.62040 0.06780 0.08100
C 	C 	0.59230 0.61060 0.14960 0.08400
H 	H 	0.53570 0.59050 0.16430 -0.01000
C 	C 	0.65620 0.62220 0.18540 -0.24900
C 	C 	0.73900 0.65160 0.16390 0.08100
H 	H 	0.78260 0.65950 0.18840 -0.00200
C 	C 	0.75780 0.66930 0.10660 -0.09300
H 	H 	0.81440 0.68940 0.09190 0.08100
C 	C 	0.37330 0.04480 0.33480 0.41800
C 	C 	0.43650 0.93720 0.31860 -0.07000
C 	C 	0.46220 0.85750 0.35940 -0.05700
H 	H 	0.43890 0.87070 0.39750 0.04200
C 	C 	0.52190 0.75850 0.34440 0.04700
H 	H 	0.53940 0.70410 0.37230 -0.02200
C 	C 	0.55610 0.73900 0.28850 -0.23000
C 	C 	0.53050 0.81870 0.24770 0.04300
H 	H 	0.55380 0.80550 0.20950 0.00800
C 	C 	0.47070 0.91770 0.26270 -0.03700
H 	H 	0.45320 0.97210 0.23480 0.06000
C 	C 	0.35980 0.34960 0.32240 0.41600
C 	C 	0.42480 0.41300 0.31130 -0.06000
C 	C 	0.54520 0.52880 0.28440 -0.24400
C 	C 	0.52140 0.38410 0.33360 -0.05200
H 	H 	0.54640 0.32480 0.35800 0.04700
C 	C 	0.58170 0.44190 0.32020 0.03200
H 	H 	0.64770 0.42220 0.33550 -0.00900
C 	C 	0.44860 0.55770 0.26210 0.03400
H 	H 	0.42360 0.61700 0.23770 -0.00100
C 	C 	0.38840 0.49980 0.27550 -0.05100
H 	H 	0.32240 0.51950 0.26020 0.04400
O 	O 	0.15560 0.18080 0.12890 -0.06400
O 	O 	0.11710 0.21530 0.21310 0.02500
C 	C 	0.10240 0.17690 0.17000 -2.31500
C 	C 	0.03920 0.11240 0.18540 3.91900
C 	C 	0.96210 0.13260 0.23130 -3.01000
H 	H 	0.94890 0.18740 0.25330 1.06400
C 	C 	0.90430 0.07250 0.24500 2.98100
H 	H 	0.85170 0.08630 0.27640 -0.97100
C 	C 	0.92360 0.99230 0.21290 -3.08800
C 	C 	0.00070 0.97210 0.16700 3.46500
H 	H 	0.01390 0.91730 0.14500 -1.24400
C 	C 	0.05840 0.03220 0.15330 -2.34300
H 	H 	0.11110 0.01840 0.12190 0.88700
C 	C 	0.78460 0.82090 0.49230 0.33100
C 	C 	0.80170 0.84560 0.43040 -0.02800
C 	C 	0.88630 0.87050 0.40630 -0.10000
H 	H 	0.93550 0.87180 0.42960 0.05100
C 	C 	0.90120 0.89350 0.34930 0.09700
H 	H 	0.95980 0.91020 0.33430 -0.04300
C 	C 	0.83030 0.89210 0.31430 -0.28500
C 	C 	0.74550 0.86730 0.33810 0.10000
H 	H 	0.69620 0.86590 0.31480 -0.00900
C 	C 	0.73110 0.84430 0.39520 -0.09100
H 	H 	0.67250 0.82760 0.41020 0.07400
C 	C 	0.12240 0.45760 0.17040 0.29500
C 	C 	0.04970 0.56560 0.18280 0.03900
C 	C 	0.01620 0.58670 0.23850 -0.15400
H 	H 	0.03260 0.53300 0.26680 0.09600
C 	C 	0.95880 0.68650 0.25270 0.14700
H 	H 	0.93600 0.70080 0.29080 -0.04800
C 	C 	0.93480 0.76520 0.21130 -0.41000
C 	C 	0.96810 0.74430 0.15560 0.17300
H 	H 	0.95180 0.79800 0.12730 -0.01900
C 	C 	0.02560 0.64450 0.14150 -0.16300
H 	H 	0.04840 0.63010 0.10340 0.09900
C 	C 	0.43340 0.14660 0.14140 0.28900
C 	C 	0.53880 0.08620 0.16510 -0.01400
C 	C 	0.56520 0.11430 0.21180 -0.08600
H 	H 	0.51660 0.17350 0.22960 0.06900
C 	C 	0.66290 0.05560 0.23260 0.07800
H 	H 	0.68100 0.07490 0.26450 0.03200
C 	C 	0.73420 0.96890 0.20660 -0.24300
C 	C 	0.70770 0.94080 0.15990 0.06900
H 	H 	0.75640 0.88150 0.14210 -0.00500
C 	C 	0.61000 0.99940 0.13910 -0.09800
H 	H 	0.59190 0.98020 0.10720 0.07400
Cd	Cd	0.77380 0.71410 0.90188 0.75600
O 	O 	0.68940 0.63090 0.97980 -0.18900
C 	C 	0.56290 0.44870 0.25250 0.02700
H 	H 	0.61620 0.43360 0.22140 0.01100
C 	C 	0.50280 0.39080 0.26580 -0.03400
H 	H 	0.51500 0.33610 0.24390 0.04600
C 	C 	0.40730 0.49300 0.34310 -0.04100
H 	H 	0.35400 0.50810 0.37420 0.01300
C 	C 	0.46730 0.55110 0.32990 0.02200
H 	H 	0.45510 0.60580 0.35180 -0.02200
O 	O 	0.23120 0.12220 0.21780 -0.81700
C 	C 	0.16570 0.12290 0.17890 2.43800
C 	C 	0.10480 0.05580 0.19050 -3.50300
C 	C 	0.01080 0.08580 0.16540 1.41800
H 	H 	0.99010 0.14380 0.13980 -0.71800
C 	C 	0.94710 0.03120 0.17770 -2.81000
H 	H 	0.88290 0.05180 0.16050 1.08900
C 	C 	0.97730 0.94640 0.21520 2.54500
C 	C 	0.07130 0.91630 0.24040 -2.64400
H 	H 	0.09200 0.85830 0.26600 0.86400
C 	C 	0.13490 0.97100 0.22800 2.76400
H 	H 	0.19910 0.95040 0.24520 -0.88400
Cd	Cd	0.76990 0.21840 0.51810 1.14800
O 	O 	0.79200 0.08090 0.58410 -0.71600
O 	O 	0.71200 0.13900 0.45870 -0.25500
O 	O 	0.95110 0.12400 0.48840 -0.29300
O 	O 	0.30400 0.05100 0.39000 -0.21500
Cd	Cd	0.82170 0.99580 0.55162 1.28000
O 	O 	0.68680 0.08000 0.49180 -0.23500
O 	O 	0.92800 0.05000 0.48230 -0.26100
