data_crystal

_cell_length_a 7.51200
_cell_length_b 16.53000
_cell_length_c 14.15400
_cell_angle_alpha 90.00000
_cell_angle_beta  90.71000
_cell_angle_gamma 90.00000

_symmetry_space_group_name_	'P 1'
_symmetry_space_group_name_H-M	'P 1'

loop_
_symmetry_equiv_pos_as_xyz
  x,y,z

loop_
_atom_site_label
_atom_site_type_symbol
_atom_site_fract_x
_atom_site_fract_y
_atom_site_fract_z
_atom_site_charge
O 	O 	0.41090 0.39264 0.56980 -0.42600
O 	O 	0.12270 0.41291 0.59680 -0.46100
O 	O 	0.12160 0.07761 0.89830 -0.45900
O 	O 	0.40890 0.10248 0.92820 -0.40800
O 	O 	0.24930 0.50623 0.40340 -0.41200
C 	C 	0.33530 0.31610 0.76560 0.00300
H 	H 	0.38240 0.36610 0.78290 0.04100
C 	C 	0.33560 0.25280 0.83120 -0.01300
H 	H 	0.38220 0.26160 0.89150 0.06400
C 	C 	0.26860 0.17810 0.80850 -0.09900
C 	C 	0.20070 0.16350 0.71490 0.04000
C 	C 	0.14300 0.08640 0.68520 -0.09600
H 	H 	0.14410 0.04360 0.72780 0.03900
C 	C 	0.08530 0.07410 0.59420 -0.03700
H 	H 	0.05140 0.02250 0.57480 -0.03700
C 	C 	0.07710 0.13860 0.53030 -0.04400
H 	H 	0.03450 0.12980 0.46910 -0.01900
C 	C 	0.13030 0.21340 0.55650 -0.09000
H 	H 	0.12270 0.25570 0.51330 0.04700
C 	C 	0.19730 0.22850 0.64870 0.04400
C 	C 	0.26650 0.30550 0.67590 -0.10700
C 	C 	0.26700 0.37530 0.60850 0.39000
C 	C 	0.26610 0.11450 0.88360 0.38300
O 	O 	0.08910 0.89264 0.93020 -0.39400
O 	O 	0.37730 0.91291 0.90320 -0.34300
O 	O 	0.37840 0.57761 0.60170 -0.42600
O 	O 	0.09110 0.60248 0.57180 -0.48400
O 	O 	0.25070 0.00623 0.09660 -0.50100
C 	C 	0.16470 0.81610 0.73440 0.03300
H 	H 	0.11760 0.86610 0.71710 0.02900
C 	C 	0.16440 0.75280 0.66880 -0.04500
H 	H 	0.11780 0.76160 0.60850 0.02900
C 	C 	0.23140 0.67810 0.69150 -0.05700
C 	C 	0.29930 0.66350 0.78510 -0.07100
C 	C 	0.35700 0.58640 0.81480 0.12500
H 	H 	0.35590 0.54360 0.77220 0.00400
C 	C 	0.41470 0.57410 0.90580 -0.31100
H 	H 	0.44860 0.52250 0.92520 0.17000
C 	C 	0.42290 0.63860 0.96970 0.43700
H 	H 	0.46550 0.62980 0.03090 -0.18700
C 	C 	0.36970 0.71340 0.94350 -0.35800
H 	H 	0.37730 0.75570 0.98670 0.20500
C 	C 	0.30270 0.72850 0.85130 0.20000
C 	C 	0.23350 0.80550 0.82410 -0.15300
C 	C 	0.23300 0.87530 0.89150 0.40100
C 	C 	0.23390 0.61450 0.61640 0.37600
O 	O 	0.58910 0.60736 0.43020 -0.42500
O 	O 	0.87730 0.58709 0.40320 -0.36900
O 	O 	0.87840 0.92239 0.10170 -0.35200
O 	O 	0.59110 0.89752 0.07180 -0.43000
O 	O 	0.75070 0.49377 0.59660 -0.31500
C 	C 	0.66470 0.68390 0.23440 -0.00900
H 	H 	0.61760 0.63390 0.21710 0.03700
C 	C 	0.66440 0.74720 0.16880 -0.00200
H 	H 	0.61780 0.73840 0.10850 0.02900
C 	C 	0.73140 0.82190 0.19150 -0.09100
C 	C 	0.79930 0.83650 0.28510 0.06100
C 	C 	0.85700 0.91360 0.31480 -0.05400
H 	H 	0.85590 0.95640 0.27220 0.11000
C 	C 	0.91470 0.92590 0.40580 -0.00900
H 	H 	0.94860 0.97750 0.42520 0.11800
C 	C 	0.92290 0.86140 0.46970 0.01000
H 	H 	0.96550 0.87020 0.53090 0.09400
C 	C 	0.86970 0.78660 0.44350 -0.07000
H 	H 	0.87730 0.74430 0.48670 0.10300
C 	C 	0.80270 0.77150 0.35130 0.06300
C 	C 	0.73350 0.69450 0.32410 -0.08900
C 	C 	0.73300 0.62470 0.39150 0.37600
C 	C 	0.73390 0.88550 0.11640 0.37500
O 	O 	0.91090 0.10736 0.06980 -0.40800
O 	O 	0.62270 0.08709 0.09680 -0.46700
O 	O 	0.62160 0.42239 0.39830 -0.44100
O 	O 	0.90890 0.39752 0.42820 -0.38200
O 	O 	0.74930 0.99377 0.90340 -0.19000
C 	C 	0.83530 0.18390 0.26560 -0.04900
H 	H 	0.88240 0.13390 0.28290 0.05500
C 	C 	0.83560 0.24720 0.33120 0.04200
H 	H 	0.88220 0.23840 0.39150 0.05900
C 	C 	0.76860 0.32190 0.30850 -0.14700
C 	C 	0.70070 0.33650 0.21490 0.18100
C 	C 	0.64300 0.41360 0.18520 -0.28500
H 	H 	0.64410 0.45640 0.22780 0.14500
C 	C 	0.58530 0.42590 0.09420 0.27600
H 	H 	0.55140 0.47750 0.07480 -0.09300
C 	C 	0.57710 0.36140 0.03030 -0.48500
H 	H 	0.53450 0.37020 0.96910 0.27000
C 	C 	0.63030 0.28660 0.05650 0.20900
H 	H 	0.62270 0.24430 0.01330 -0.05800
C 	C 	0.69730 0.27150 0.14870 -0.10300
C 	C 	0.76650 0.19450 0.17590 -0.03100
C 	C 	0.76700 0.12470 0.10850 0.35000
C 	C 	0.76610 0.38550 0.38360 0.40100
Mn	Mn	-0.00000 0.50000 0.50000 1.26000
Mn	Mn	0.50000 0.00000 -0.00000 1.22400
Mn	Mn	0.50000 0.50000 0.50000 1.31000
Mn	Mn	-0.00000 0.00000 -0.00000 1.17400
