data_crystal

_cell_length_a 7.93160
_cell_length_b 15.75470
_cell_length_c 15.75470
_cell_angle_alpha 120.00000
_cell_angle_beta  90.00000
_cell_angle_gamma 90.00000

_symmetry_space_group_name_	'P 1'
_symmetry_space_group_name_H-M	'P 1'

loop_
_symmetry_equiv_pos_as_xyz
  x,y,z

loop_
_atom_site_label
_atom_site_type_symbol
_atom_site_fract_x
_atom_site_fract_y
_atom_site_fract_z
_atom_site_charge
Cd	Cd	0.98782 0.62594 0.94140 1.16900
Cd	Cd	0.98782 0.31546 0.37406 1.16800
Cd	Cd	0.98782 0.05860 0.68454 1.16800
Cd	Cd	0.48782 0.68454 0.05860 1.24200
Cd	Cd	0.48782 0.94140 0.62594 1.24200
Cd	Cd	0.48782 0.37406 0.31546 1.24200
H 	H 	0.69400 0.55160 0.63480 0.04500
H 	H 	0.69600 0.73270 0.52620 0.05100
H 	H 	0.92200 0.81370 0.78220 0.02600
H 	H 	0.69400 0.08320 0.44840 0.04500
H 	H 	0.69600 0.79350 0.26730 0.05100
H 	H 	0.92200 0.96850 0.18630 0.02700
H 	H 	0.69400 0.36520 0.91680 0.04500
H 	H 	0.69600 0.47380 0.20650 0.05100
H 	H 	0.92200 0.21780 0.03150 0.02600
H 	H 	0.19400 0.91680 0.36520 0.09200
H 	H 	0.19600 0.20650 0.47380 0.07000
H 	H 	0.42200 0.03150 0.21780 0.06900
H 	H 	0.19400 0.63480 0.55160 0.09200
H 	H 	0.19600 0.52620 0.73270 0.07000
H 	H 	0.42200 0.78220 0.81370 0.06900
H 	H 	0.19400 0.44840 0.08320 0.09200
H 	H 	0.19600 0.26730 0.79350 0.07000
H 	H 	0.42200 0.18630 0.96850 0.06900
C 	C 	0.81380 0.67990 0.72310 -0.09800
C 	C 	0.72550 0.61080 0.63980 -0.00000
C 	C 	0.68460 0.62910 0.56560 -0.07800
C 	C 	0.86220 0.66150 0.80360 0.30000
C 	C 	0.87250 0.88210 0.66340 0.09200
C 	C 	0.60080 0.55320 0.47430 0.28700
C 	C 	0.72780 0.71880 0.57480 -0.02800
C 	C 	0.81860 0.78850 0.65620 -0.05900
C 	C 	0.86070 0.76790 0.72830 -0.01400
C 	C 	0.81380 0.04320 0.32010 -0.10200
C 	C 	0.72550 0.02900 0.38920 -0.00300
C 	C 	0.68460 0.93650 0.37090 -0.07600
C 	C 	0.86220 0.14210 0.33850 0.30100
C 	C 	0.87250 0.78130 0.11790 0.09800
C 	C 	0.60080 0.92110 0.44680 0.28600
C 	C 	0.72780 0.85600 0.28120 -0.02700
C 	C 	0.81860 0.86770 0.21150 -0.06200
C 	C 	0.86070 0.96040 0.23210 -0.00700
C 	C 	0.81380 0.27690 0.95680 -0.10100
C 	C 	0.72550 0.36020 0.97100 -0.00300
C 	C 	0.68460 0.43440 0.06350 -0.07500
C 	C 	0.86220 0.19640 0.85790 0.30000
C 	C 	0.87250 0.33660 0.21870 0.09000
C 	C 	0.60080 0.52570 0.07890 0.28600
C 	C 	0.72780 0.42520 0.14400 -0.02900
C 	C 	0.81860 0.34380 0.13230 -0.05900
C 	C 	0.86070 0.27170 0.03960 -0.00900
C 	C 	0.31380 0.95680 0.27690 -0.04000
C 	C 	0.22550 0.97100 0.36020 0.01800
C 	C 	0.18460 0.06350 0.43440 -0.02500
C 	C 	0.36220 0.85790 0.19640 0.30000
C 	C 	0.37250 0.21870 0.33660 0.34800
C 	C 	0.10080 0.07890 0.52570 0.29700
C 	C 	0.22780 0.14400 0.42520 0.02700
C 	C 	0.31860 0.13230 0.34380 -0.07700
C 	C 	0.36070 0.03960 0.27170 0.03900
C 	C 	0.31380 0.72310 0.67990 -0.04000
C 	C 	0.22550 0.63980 0.61080 0.02000
C 	C 	0.18460 0.56560 0.62910 -0.02600
C 	C 	0.36220 0.80360 0.66150 0.30100
C 	C 	0.37250 0.66340 0.88210 0.34800
C 	C 	0.10080 0.47430 0.55320 0.29700
C 	C 	0.22780 0.57480 0.71880 0.02800
C 	C 	0.31860 0.65620 0.78850 -0.07800
C 	C 	0.36070 0.72830 0.76790 0.04100
C 	C 	0.31380 0.32010 0.04320 -0.03900
C 	C 	0.22550 0.38920 0.02900 0.01800
C 	C 	0.18460 0.37090 0.93650 -0.02500
C 	C 	0.36220 0.33850 0.14210 0.30100
C 	C 	0.37250 0.11790 0.78130 0.34800
C 	C 	0.10080 0.44680 0.92110 0.29700
C 	C 	0.22780 0.28120 0.85600 0.02700
C 	C 	0.31860 0.21150 0.86770 -0.07700
C 	C 	0.36070 0.23210 0.96040 0.03900
O 	O 	0.92590 0.73080 0.88010 -0.41600
O 	O 	0.84440 0.57710 0.79300 -0.41600
O 	O 	0.77490 0.92930 0.63730 -0.44700
O 	O 	0.01680 0.91330 0.69460 -0.11500
O 	O 	0.54860 0.47480 0.47130 -0.39700
O 	O 	0.58370 0.56510 0.40200 -0.29600
O 	O 	0.92590 0.14930 0.26920 -0.41700
O 	O 	0.84440 0.21590 0.42290 -0.41600
O 	O 	0.77490 0.70800 0.07070 -0.44800
O 	O 	0.01680 0.78130 0.08670 -0.12000
O 	O 	0.54860 0.99650 0.52520 -0.39500
O 	O 	0.58370 0.83690 0.43490 -0.29500
O 	O 	0.92590 0.11990 0.85070 -0.41800
O 	O 	0.84440 0.20700 0.78410 -0.41600
O 	O 	0.77490 0.36270 0.29200 -0.44800
O 	O 	0.01680 0.30540 0.21870 -0.11400
O 	O 	0.54860 0.52870 0.00350 -0.39600
O 	O 	0.58370 0.59800 0.16310 -0.29500
O 	O 	0.42590 0.85070 0.11990 -0.32900
O 	O 	0.34440 0.78410 0.20700 -0.32600
O 	O 	0.27490 0.29200 0.36270 -0.44100
O 	O 	0.51680 0.21870 0.30540 -0.35900
O 	O 	0.04860 0.00350 0.52870 -0.29300
O 	O 	0.08370 0.16310 0.59800 -0.22000
O 	O 	0.42590 0.88010 0.73080 -0.32900
O 	O 	0.34440 0.79300 0.57710 -0.32500
O 	O 	0.27490 0.63730 0.92930 -0.44100
O 	O 	0.51680 0.69460 0.91330 -0.36000
O 	O 	0.04860 0.47130 0.47480 -0.29200
O 	O 	0.08370 0.40200 0.56510 -0.22000
O 	O 	0.42590 0.26920 0.14930 -0.32900
O 	O 	0.34440 0.42290 0.21590 -0.32500
O 	O 	0.27490 0.07070 0.70800 -0.44100
O 	O 	0.51680 0.08670 0.78130 -0.36000
O 	O 	0.04860 0.52520 0.99650 -0.29300
O 	O 	0.08370 0.43490 0.83690 -0.22000
