data_crystal

_cell_length_a 15.01030
_cell_length_b 15.01030
_cell_length_c 10.07910
_cell_angle_alpha 90.00000
_cell_angle_beta  90.00000
_cell_angle_gamma 90.00000

_symmetry_space_group_name_	'P 1'
_symmetry_space_group_name_H-M	'P 1'

loop_
_symmetry_equiv_pos_as_xyz
  x,y,z

loop_
_atom_site_label
_atom_site_type_symbol
_atom_site_fract_x
_atom_site_fract_y
_atom_site_fract_z
_atom_site_charge
O 	O 	0.30482 0.94881 0.24955 -0.34400
O 	O 	0.42433 0.90639 0.14536 -0.42500
C 	C 	0.78970 0.78940 0.40430 0.01000
H 	H 	0.83140 0.80360 0.33250 0.02200
C 	C 	0.70540 0.82620 0.39810 -0.00400
C 	C 	0.51152 0.86959 0.38179 -0.04300
H 	H 	0.53990 0.85790 0.30160 0.06300
C 	C 	0.42673 0.90424 0.38112 -0.06300
C 	C 	0.38140 0.92225 0.24993 0.32500
C 	C 	0.25313 0.19865 0.96710 -0.12900
H 	H 	0.21690 0.23630 0.90870 0.08100
C 	C 	0.38930 0.44970 0.94820 0.08400
H 	H 	0.36080 0.49580 0.89400 0.01000
C 	C 	0.47610 0.29818 0.04650 -0.34800
H 	H 	0.50480 0.25240 0.10130 0.14600
C 	C 	0.67070 0.75250 0.40070 -0.01800
C 	C 	0.75550 0.71730 0.40360 0.01600
O 	O 	0.69518 0.05119 0.24955 -0.34500
O 	O 	0.57567 0.09361 0.14536 -0.42600
C 	C 	0.21030 0.21060 0.40430 0.01000
H 	H 	0.16860 0.19640 0.33250 0.02200
C 	C 	0.29460 0.17380 0.39810 -0.00400
C 	C 	0.48848 0.13041 0.38179 -0.04300
H 	H 	0.46010 0.14210 0.30160 0.06300
C 	C 	0.57327 0.09576 0.38112 -0.06300
C 	C 	0.61860 0.07775 0.24993 0.32500
C 	C 	0.74687 0.80135 0.96710 -0.12900
H 	H 	0.78310 0.76370 0.90870 0.08100
C 	C 	0.61070 0.55030 0.94820 0.08400
H 	H 	0.63920 0.50420 0.89400 0.01000
C 	C 	0.52390 0.70182 0.04650 -0.34800
H 	H 	0.49520 0.74760 0.10130 0.14600
C 	C 	0.32930 0.24750 0.40070 -0.01800
C 	C 	0.24450 0.28270 0.40360 0.01600
O 	O 	0.05119 0.30482 0.74955 -0.33700
O 	O 	0.09361 0.42433 0.64536 -0.41800
C 	C 	0.21060 0.78970 0.90430 0.02300
H 	H 	0.19640 0.83140 0.83250 0.02200
C 	C 	0.17380 0.70540 0.89810 0.01400
C 	C 	0.13041 0.51152 0.88179 -0.02000
H 	H 	0.14210 0.53990 0.80160 0.05800
C 	C 	0.09576 0.42673 0.88112 -0.03600
C 	C 	0.07775 0.38140 0.74993 0.31700
C 	C 	0.80135 0.25313 0.46710 -0.00900
H 	H 	0.76370 0.21690 0.40870 0.03800
C 	C 	0.55030 0.38930 0.44820 -0.02000
H 	H 	0.50420 0.36080 0.39400 0.04100
C 	C 	0.70182 0.47610 0.54650 -0.06300
H 	H 	0.74760 0.50480 0.60130 0.05800
C 	C 	0.24750 0.67070 0.90070 -0.00500
C 	C 	0.28270 0.75550 0.90360 0.02600
O 	O 	0.94881 0.69518 0.74955 -0.33700
O 	O 	0.90639 0.57567 0.64536 -0.41800
C 	C 	0.78940 0.21030 0.90430 0.02300
H 	H 	0.80360 0.16860 0.83250 0.02200
C 	C 	0.82620 0.29460 0.89810 0.01400
C 	C 	0.86959 0.48848 0.88179 -0.02000
H 	H 	0.85790 0.46010 0.80160 0.05800
C 	C 	0.90424 0.57327 0.88112 -0.03600
C 	C 	0.92225 0.61860 0.74993 0.31700
C 	C 	0.19865 0.74687 0.46710 -0.00900
H 	H 	0.23630 0.78310 0.40870 0.03800
C 	C 	0.44970 0.61070 0.44820 -0.02000
H 	H 	0.49580 0.63920 0.39400 0.04100
C 	C 	0.29818 0.52390 0.54650 -0.06300
H 	H 	0.25240 0.49520 0.60130 0.05800
C 	C 	0.75250 0.32930 0.90070 -0.00500
C 	C 	0.71730 0.24450 0.90360 0.02600
O 	O 	0.69518 0.05119 0.75045 -0.33500
O 	O 	0.57567 0.09361 0.85464 -0.40300
C 	C 	0.21030 0.21060 0.59570 0.00500
H 	H 	0.16860 0.19640 0.66750 0.02600
C 	C 	0.29460 0.17380 0.60190 0.00400
C 	C 	0.48848 0.13041 0.61821 -0.04600
H 	H 	0.46010 0.14210 0.69840 0.06800
C 	C 	0.57327 0.09576 0.61888 -0.05900
C 	C 	0.61860 0.07775 0.75007 0.32000
C 	C 	0.74687 0.80135 0.03290 0.13900
H 	H 	0.78310 0.76370 0.09130 -0.00700
C 	C 	0.61070 0.55030 0.05180 -0.09400
H 	H 	0.63920 0.50420 0.10600 0.06300
C 	C 	0.52390 0.70182 0.95350 0.26300
H 	H 	0.49520 0.74760 0.89870 -0.03800
C 	C 	0.32930 0.24750 0.59930 -0.02500
C 	C 	0.24450 0.28270 0.59640 0.01800
O 	O 	0.30482 0.94881 0.75045 -0.33500
O 	O 	0.42433 0.90639 0.85464 -0.40300
C 	C 	0.78970 0.78940 0.59570 0.00500
H 	H 	0.83140 0.80360 0.66750 0.02600
C 	C 	0.70540 0.82620 0.60190 0.00400
C 	C 	0.51152 0.86959 0.61821 -0.04600
H 	H 	0.53990 0.85790 0.69840 0.06800
C 	C 	0.42673 0.90424 0.61888 -0.05900
C 	C 	0.38140 0.92225 0.75007 0.32000
C 	C 	0.25313 0.19865 0.03290 0.13900
H 	H 	0.21690 0.23630 0.09130 -0.00700
C 	C 	0.38930 0.44970 0.05180 -0.09400
H 	H 	0.36080 0.49580 0.10600 0.06300
C 	C 	0.47610 0.29818 0.95350 0.26300
H 	H 	0.50480 0.25240 0.89870 -0.03800
C 	C 	0.67070 0.75250 0.59930 -0.02500
C 	C 	0.75550 0.71730 0.59640 0.01800
O 	O 	0.94881 0.69518 0.25045 -0.34400
O 	O 	0.90639 0.57567 0.35464 -0.41900
C 	C 	0.78940 0.21030 0.09570 0.00300
H 	H 	0.80360 0.16860 0.16750 0.02300
C 	C 	0.82620 0.29460 0.10190 0.00100
C 	C 	0.86959 0.48848 0.11821 -0.04500
H 	H 	0.85790 0.46010 0.19840 0.06400
C 	C 	0.90424 0.57327 0.11888 -0.05400
C 	C 	0.92225 0.61860 0.25007 0.32100
C 	C 	0.19865 0.74687 0.53290 -0.01000
H 	H 	0.23630 0.78310 0.59130 0.03800
C 	C 	0.44970 0.61070 0.55180 -0.02100
H 	H 	0.49580 0.63920 0.60600 0.03600
C 	C 	0.29818 0.52390 0.45350 -0.05300
H 	H 	0.25240 0.49520 0.39870 0.05500
C 	C 	0.75250 0.32930 0.09930 -0.02100
C 	C 	0.71730 0.24450 0.09640 0.01100
O 	O 	0.05119 0.30482 0.25045 -0.34400
O 	O 	0.09361 0.42433 0.35464 -0.41900
C 	C 	0.21060 0.78970 0.09570 0.00300
H 	H 	0.19640 0.83140 0.16750 0.02300
C 	C 	0.17380 0.70540 0.10190 0.00100
C 	C 	0.13041 0.51152 0.11821 -0.04500
H 	H 	0.14210 0.53990 0.19840 0.06400
C 	C 	0.09576 0.42673 0.11888 -0.05400
C 	C 	0.07775 0.38140 0.25007 0.32100
C 	C 	0.80135 0.25313 0.53290 -0.01000
H 	H 	0.76370 0.21690 0.59130 0.03800
C 	C 	0.55030 0.38930 0.55180 -0.02100
H 	H 	0.50420 0.36080 0.60600 0.03600
C 	C 	0.70182 0.47610 0.45350 -0.05300
H 	H 	0.74760 0.50480 0.39870 0.05500
C 	C 	0.24750 0.67070 0.09930 -0.02100
C 	C 	0.28270 0.75550 0.09640 0.01100
Co	Co	0.33643 0.93342 -0.00000 1.14200
N 	N 	0.31602 0.06735 -0.00000 -0.25000
N 	N 	0.34195 0.21091 -0.00000 -0.14900
C 	C 	0.23752 0.11230 -0.00000 -0.00200
H 	H 	0.17860 0.08410 -0.00000 0.01100
C 	C 	0.37640 0.12899 -0.00000 0.10700
H 	H 	0.43730 0.11740 -0.00000 -0.00700
C 	C 	0.38829 0.29312 -0.00000 0.09300
C 	C 	0.34200 0.36970 -0.00000 -0.11800
H 	H 	0.27670 0.36810 -0.00000 0.06600
C 	C 	0.47600 0.45662 -0.00000 -0.01300
C 	C 	0.52010 0.37798 -0.00000 -0.04600
H 	H 	0.58540 0.37920 -0.00000 0.03700
Co	Co	0.66357 0.06658 -0.00000 1.14200
N 	N 	0.68398 0.93265 -0.00000 -0.25000
N 	N 	0.65805 0.78909 -0.00000 -0.14900
C 	C 	0.76248 0.88770 -0.00000 -0.00200
H 	H 	0.82140 0.91590 -0.00000 0.01100
C 	C 	0.62360 0.87101 -0.00000 0.10700
H 	H 	0.56270 0.88260 -0.00000 -0.00700
C 	C 	0.61171 0.70688 -0.00000 0.09300
C 	C 	0.65800 0.63030 -0.00000 -0.11800
H 	H 	0.72330 0.63190 -0.00000 0.06600
C 	C 	0.52400 0.54338 -0.00000 -0.01300
C 	C 	0.47990 0.62202 -0.00000 -0.04600
H 	H 	0.41460 0.62080 -0.00000 0.03700
Co	Co	0.06658 0.33643 0.50000 1.15000
N 	N 	0.93265 0.31602 0.50000 -0.25000
N 	N 	0.78909 0.34195 0.50000 -0.14200
C 	C 	0.88770 0.23752 0.50000 0.02300
H 	H 	0.91590 0.17860 0.50000 0.01000
C 	C 	0.87101 0.37640 0.50000 0.11300
H 	H 	0.88260 0.43730 0.50000 -0.00200
C 	C 	0.70688 0.38829 0.50000 0.11000
C 	C 	0.63030 0.34200 0.50000 -0.10100
H 	H 	0.63190 0.27670 0.50000 0.06800
C 	C 	0.54338 0.47600 0.50000 0.00000
C 	C 	0.62202 0.52010 0.50000 -0.02400
H 	H 	0.62080 0.58540 0.50000 0.03800
Co	Co	0.93342 0.66357 0.50000 1.15000
N 	N 	0.06735 0.68398 0.50000 -0.25000
N 	N 	0.21091 0.65805 0.50000 -0.14200
C 	C 	0.11230 0.76248 0.50000 0.02300
H 	H 	0.08410 0.82140 0.50000 0.01000
C 	C 	0.12899 0.62360 0.50000 0.11300
H 	H 	0.11740 0.56270 0.50000 -0.00200
C 	C 	0.29312 0.61171 0.50000 0.11000
C 	C 	0.36970 0.65800 0.50000 -0.10100
H 	H 	0.36810 0.72330 0.50000 0.06800
C 	C 	0.45662 0.52400 0.50000 0.00000
C 	C 	0.37798 0.47990 0.50000 -0.02400
H 	H 	0.37920 0.41460 0.50000 0.03800
N 	N 	0.81795 0.73675 0.50000 -0.23700
C 	C 	0.64555 0.81369 0.50000 -0.00000
C 	C 	0.55571 0.85169 0.50000 0.02300
C 	C 	0.38296 0.92228 0.50000 -0.00500
H 	H 	0.32570 0.94590 0.50000 0.05700
N 	N 	0.18205 0.26325 0.50000 -0.23700
C 	C 	0.35445 0.18631 0.50000 -0.00000
C 	C 	0.44429 0.14831 0.50000 0.02300
C 	C 	0.61704 0.07772 0.50000 -0.00500
H 	H 	0.67430 0.05410 0.50000 0.05700
N 	N 	0.26325 0.81795 -0.00000 -0.25300
C 	C 	0.18631 0.64555 -0.00000 -0.02700
C 	C 	0.14831 0.55571 -0.00000 0.00200
C 	C 	0.07772 0.38296 -0.00000 -0.04100
H 	H 	0.05410 0.32570 -0.00000 0.06200
N 	N 	0.73675 0.18205 -0.00000 -0.25300
C 	C 	0.81369 0.35445 -0.00000 -0.02700
C 	C 	0.85169 0.44429 -0.00000 0.00200
C 	C 	0.92228 0.61704 -0.00000 -0.04100
H 	H 	0.94590 0.67430 -0.00000 0.06200
