data_crystal

_cell_length_a 20.54700
_cell_length_b 9.96600
_cell_length_c 15.68700
_cell_angle_alpha 90.00000
_cell_angle_beta  99.63800
_cell_angle_gamma 90.00000

_symmetry_space_group_name_	'P 1'
_symmetry_space_group_name_H-M	'P 1'

loop_
_symmetry_equiv_pos_as_xyz
  x,y,z

loop_
_atom_site_label
_atom_site_type_symbol
_atom_site_fract_x
_atom_site_fract_y
_atom_site_fract_z
_atom_site_charge
O 	O 	0.06030 0.85866 0.88781 -0.37600
C 	C 	0.09058 0.75327 0.88496 0.32300
O 	O 	0.15119 0.75402 0.88315 -0.33700
C 	C 	0.05479 0.62066 0.88380 -0.08100
C 	C 	0.98722 0.62023 0.88594 -0.00200
H 	H 	0.96500 0.70130 0.88710 0.05300
N 	N 	0.12818 0.04220 0.43136 -0.11200
C 	C 	0.84534 0.61404 0.89236 -0.17400
H 	H 	0.86660 0.69660 0.89380 0.10600
C 	C 	0.77792 0.61012 0.89341 0.10600
H 	H 	0.75600 0.69160 0.89450 0.00900
C 	C 	0.06800 0.92910 0.61080 0.02900
C 	C 	0.15062 0.91430 0.61540 0.04100
C 	C 	0.07637 0.93470 0.70040 0.06800
C 	C 	0.15584 0.91130 0.70630 0.03900
O 	O 	0.56030 0.35866 0.88781 -0.39500
C 	C 	0.59058 0.25327 0.88496 0.32200
O 	O 	0.65119 0.25402 0.88315 -0.34500
C 	C 	0.55479 0.12066 0.88380 -0.07000
C 	C 	0.48722 0.12023 0.88594 -0.00600
H 	H 	0.46500 0.20130 0.88710 0.04900
N 	N 	0.62818 0.54220 0.43136 -0.08600
C 	C 	0.34534 0.11404 0.89236 -0.15700
H 	H 	0.36660 0.19660 0.89380 0.09300
C 	C 	0.27792 0.11012 0.89341 0.08900
H 	H 	0.25600 0.19160 0.89450 0.00900
C 	C 	0.56800 0.42910 0.61080 -0.00700
C 	C 	0.65062 0.41430 0.61540 0.00600
C 	C 	0.57637 0.43470 0.70040 0.03200
C 	C 	0.65584 0.41130 0.70630 0.02400
O 	O 	0.06030 0.14134 0.88781 -0.40000
C 	C 	0.09058 0.24673 0.88496 0.33100
O 	O 	0.15119 0.24598 0.88315 -0.34600
C 	C 	0.05479 0.37934 0.88380 -0.08500
C 	C 	0.98722 0.37977 0.88594 0.00100
H 	H 	0.96500 0.29870 0.88710 0.04700
N 	N 	0.12818 0.95780 0.43136 -0.03700
C 	C 	0.84534 0.38596 0.89236 -0.17400
H 	H 	0.86660 0.30340 0.89380 0.09900
C 	C 	0.77792 0.38988 0.89341 0.10500
H 	H 	0.75600 0.30840 0.89450 0.00300
C 	C 	0.06800 0.07090 0.61080 -0.00700
C 	C 	0.15062 0.08570 0.61540 0.00900
C 	C 	0.07637 0.06530 0.70040 0.00900
C 	C 	0.15584 0.08870 0.70630 0.01800
O 	O 	0.56030 0.64134 0.88781 -0.39200
C 	C 	0.59058 0.74673 0.88496 0.31900
O 	O 	0.65119 0.74598 0.88315 -0.33400
C 	C 	0.55479 0.87934 0.88380 -0.04400
C 	C 	0.48722 0.87977 0.88594 0.02700
H 	H 	0.46500 0.79870 0.88710 0.04200
N 	N 	0.62818 0.45780 0.43136 -0.09100
C 	C 	0.34534 0.88596 0.89236 -0.12600
H 	H 	0.36660 0.80340 0.89380 0.08700
C 	C 	0.27792 0.88988 0.89341 0.12600
H 	H 	0.25600 0.80840 0.89450 0.00100
C 	C 	0.56800 0.57090 0.61080 -0.00100
C 	C 	0.65062 0.58570 0.61540 0.01200
C 	C 	0.57637 0.56530 0.70040 0.03600
C 	C 	0.65584 0.58870 0.70630 0.02900
Co	Co	0.13679 0.00000 0.88885 1.14300
N 	N 	0.14999 0.00000 0.02928 -0.24200
N 	N 	0.12392 0.00000 0.74840 -0.24400
N 	N 	0.24286 0.00000 0.89293 -0.26100
C 	C 	0.09628 0.00000 0.06724 0.09700
C 	C 	0.20799 0.00000 0.08325 0.10000
H 	H 	0.05530 0.00000 0.03150 0.00400
C 	C 	0.09702 0.00000 0.15473 -0.18500
C 	C 	0.21341 0.00000 0.17097 -0.18000
H 	H 	0.24650 0.00000 0.05950 -0.00800
H 	H 	0.05760 0.00000 0.17640 0.11500
C 	C 	0.15597 0.00000 0.20987 0.12200
H 	H 	0.25490 0.00000 0.20540 0.09800
C 	C 	0.16178 -0.00000 0.30256 -0.05100
N 	N 	0.11320 0.00000 0.33998 -0.06900
H 	H 	0.20370 0.00000 0.33580 0.06300
C 	C 	0.10001 0.00000 0.47285 0.13700
H 	H 	0.05300 0.00000 0.44780 0.00200
C 	C 	0.11013 0.00000 0.56880 -0.09700
Co	Co	0.63679 0.50000 0.88885 1.15200
N 	N 	0.64999 0.50000 0.02928 -0.23900
N 	N 	0.62392 0.50000 0.74840 -0.22300
N 	N 	0.74286 0.50000 0.89293 -0.24500
C 	C 	0.59628 0.50000 0.06724 0.10500
C 	C 	0.70799 0.50000 0.08325 0.10700
H 	H 	0.55530 0.50000 0.03150 0.00900
C 	C 	0.59702 0.50000 0.15473 -0.18600
C 	C 	0.71341 0.50000 0.17097 -0.18000
H 	H 	0.74650 0.50000 0.05950 -0.00300
H 	H 	0.55760 0.50000 0.17640 0.12300
C 	C 	0.65597 0.50000 0.20987 0.13100
H 	H 	0.75490 0.50000 0.20540 0.10400
C 	C 	0.66178 0.50000 0.30256 -0.05100
N 	N 	0.61320 0.50000 0.33998 -0.05700
H 	H 	0.70370 0.50000 0.33580 0.07100
C 	C 	0.60001 0.50000 0.47285 0.16600
H 	H 	0.55300 0.50000 0.44780 0.00300
C 	C 	0.61013 0.50000 0.56880 -0.05100
C 	C 	0.08713 0.50000 0.88229 0.02600
C 	C 	0.95247 0.50000 0.88635 -0.04100
H 	H 	0.13210 0.50000 0.88020 0.04700
C 	C 	0.88098 0.50000 0.88925 0.12600
C 	C 	0.58713 0.00000 0.88229 -0.02900
C 	C 	0.45247 0.00000 0.88635 -0.06300
H 	H 	0.63210 0.00000 0.88020 0.05700
C 	C 	0.38098 0.00000 0.88925 0.08100
O 	O 	0.93970 0.85866 0.11219 -0.37500
C 	C 	0.90942 0.75327 0.11504 0.32400
O 	O 	0.84881 0.75402 0.11685 -0.33600
C 	C 	0.94521 0.62066 0.11620 -0.08000
C 	C 	0.01278 0.62023 0.11406 -0.00200
H 	H 	0.03500 0.70130 0.11290 0.05300
N 	N 	0.87182 0.04220 0.56864 -0.11200
C 	C 	0.15466 0.61404 0.10764 -0.17400
H 	H 	0.13340 0.69660 0.10620 0.10600
C 	C 	0.22208 0.61012 0.10659 0.10600
H 	H 	0.24400 0.69160 0.10550 0.00900
C 	C 	0.93200 0.92910 0.38920 0.02900
C 	C 	0.84938 0.91430 0.38460 0.04100
C 	C 	0.92363 0.93470 0.29960 0.06800
C 	C 	0.84416 0.91130 0.29370 0.03900
O 	O 	0.43970 0.35866 0.11219 -0.39500
C 	C 	0.40942 0.25327 0.11504 0.32200
O 	O 	0.34881 0.25402 0.11685 -0.34500
C 	C 	0.44521 0.12066 0.11620 -0.07000
C 	C 	0.51278 0.12023 0.11406 -0.00600
H 	H 	0.53500 0.20130 0.11290 0.04900
N 	N 	0.37182 0.54220 0.56864 -0.08600
C 	C 	0.65466 0.11404 0.10764 -0.15700
H 	H 	0.63340 0.19660 0.10620 0.09300
C 	C 	0.72208 0.11012 0.10659 0.08900
H 	H 	0.74400 0.19160 0.10550 0.00900
C 	C 	0.43200 0.42910 0.38920 -0.00700
C 	C 	0.34938 0.41430 0.38460 0.00600
C 	C 	0.42363 0.43470 0.29960 0.03200
C 	C 	0.34416 0.41130 0.29370 0.02400
O 	O 	0.93970 0.14134 0.11219 -0.40000
C 	C 	0.90942 0.24673 0.11504 0.33100
O 	O 	0.84881 0.24598 0.11685 -0.34600
C 	C 	0.94521 0.37934 0.11620 -0.08500
C 	C 	0.01278 0.37977 0.11406 0.00100
H 	H 	0.03500 0.29870 0.11290 0.04700
N 	N 	0.87182 0.95780 0.56864 -0.03700
C 	C 	0.15466 0.38596 0.10764 -0.17400
H 	H 	0.13340 0.30340 0.10620 0.09900
C 	C 	0.22208 0.38988 0.10659 0.10500
H 	H 	0.24400 0.30840 0.10550 0.00300
C 	C 	0.93200 0.07090 0.38920 -0.00700
C 	C 	0.84938 0.08570 0.38460 0.00900
C 	C 	0.92363 0.06530 0.29960 0.00900
C 	C 	0.84416 0.08870 0.29370 0.01800
O 	O 	0.43970 0.64134 0.11219 -0.39200
C 	C 	0.40942 0.74673 0.11504 0.31900
O 	O 	0.34881 0.74598 0.11685 -0.33400
C 	C 	0.44521 0.87934 0.11620 -0.04400
C 	C 	0.51278 0.87977 0.11406 0.02700
H 	H 	0.53500 0.79870 0.11290 0.04200
N 	N 	0.37182 0.45780 0.56864 -0.09100
C 	C 	0.65466 0.88596 0.10764 -0.12600
H 	H 	0.63340 0.80340 0.10620 0.08700
C 	C 	0.72208 0.88988 0.10659 0.12600
H 	H 	0.74400 0.80840 0.10550 0.00100
C 	C 	0.43200 0.57090 0.38920 -0.00100
C 	C 	0.34938 0.58570 0.38460 0.01200
C 	C 	0.42363 0.56530 0.29960 0.03600
C 	C 	0.34416 0.58870 0.29370 0.02900
Co	Co	0.86321 0.00000 0.11115 1.14300
N 	N 	0.85001 0.00000 0.97072 -0.24200
N 	N 	0.87608 0.00000 0.25160 -0.24400
N 	N 	0.75714 0.00000 0.10707 -0.26100
C 	C 	0.90372 0.00000 0.93276 0.09700
C 	C 	0.79201 0.00000 0.91675 0.10000
H 	H 	0.94470 -0.00000 0.96850 0.00400
C 	C 	0.90298 0.00000 0.84527 -0.18500
C 	C 	0.78659 0.00000 0.82903 -0.18000
H 	H 	0.75350 0.00000 0.94050 -0.00800
H 	H 	0.94240 0.00000 0.82360 0.11500
C 	C 	0.84403 0.00000 0.79013 0.12200
H 	H 	0.74510 -0.00000 0.79460 0.09800
C 	C 	0.83822 0.00000 0.69744 -0.05100
N 	N 	0.88680 0.00000 0.66002 -0.06900
H 	H 	0.79630 0.00000 0.66420 0.06300
C 	C 	0.89999 0.00000 0.52715 0.13700
H 	H 	0.94700 0.00000 0.55220 0.00200
C 	C 	0.88987 0.00000 0.43120 -0.09700
Co	Co	0.36321 0.50000 0.11115 1.15200
N 	N 	0.35001 0.50000 0.97072 -0.23900
N 	N 	0.37608 0.50000 0.25160 -0.22300
N 	N 	0.25714 0.50000 0.10707 -0.24500
C 	C 	0.40372 0.50000 0.93276 0.10500
C 	C 	0.29201 0.50000 0.91675 0.10700
H 	H 	0.44470 0.50000 0.96850 0.00900
C 	C 	0.40298 0.50000 0.84527 -0.18600
C 	C 	0.28659 0.50000 0.82903 -0.18000
H 	H 	0.25350 0.50000 0.94050 -0.00300
H 	H 	0.44240 0.50000 0.82360 0.12300
C 	C 	0.34403 0.50000 0.79013 0.13100
H 	H 	0.24510 0.50000 0.79460 0.10400
C 	C 	0.33822 0.50000 0.69744 -0.05100
N 	N 	0.38680 0.50000 0.66002 -0.05700
H 	H 	0.29630 0.50000 0.66420 0.07100
C 	C 	0.39999 0.50000 0.52715 0.16600
H 	H 	0.44700 0.50000 0.55220 0.00300
C 	C 	0.38987 0.50000 0.43120 -0.05100
C 	C 	0.91287 0.50000 0.11771 0.02600
C 	C 	0.04753 0.50000 0.11365 -0.04100
H 	H 	0.86790 0.50000 0.11980 0.04700
C 	C 	0.11902 0.50000 0.11075 0.12600
C 	C 	0.41287 0.00000 0.11771 -0.02900
C 	C 	0.54753 0.00000 0.11365 -0.06300
H 	H 	0.36790 0.00000 0.11980 0.05700
C 	C 	0.61902 0.00000 0.11075 0.08100
