data_crystal

_cell_length_a 16.80980
_cell_length_b 16.80980
_cell_length_c 16.80980
_cell_angle_alpha 63.13510
_cell_angle_beta  84.47830
_cell_angle_gamma 116.86500

_symmetry_space_group_name_	'P 1'
_symmetry_space_group_name_H-M	'P 1'

loop_
_symmetry_equiv_pos_as_xyz
  x,y,z

loop_
_atom_site_label
_atom_site_type_symbol
_atom_site_fract_x
_atom_site_fract_y
_atom_site_fract_z
_atom_site_charge
Hf	Hf	0.60827 0.00000 0.39173 1.49900
Hf	Hf	0.39173 1.00000 0.60827 1.48400
Hf	Hf	0.40024 1.00000 0.40023 1.37000
Hf	Hf	0.59976 1.00000 0.59977 1.36800
Hf	Hf	0.40024 0.80048 0.59976 1.37200
Hf	Hf	0.59976 0.19952 0.40024 1.37200
H 	H 	0.64420 1.00000 0.12740 0.03000
H 	H 	0.65590 1.00000 0.99030 0.05900
H 	H 	0.40640 0.00000 0.13320 0.03000
H 	H 	0.87260 0.00000 0.35580 0.02300
H 	H 	0.00970 0.00000 0.34410 0.08100
H 	H 	0.86680 0.00000 0.59360 0.03300
H 	H 	0.64420 0.77160 0.35580 0.03700
H 	H 	0.65590 0.64620 0.34410 0.06100
H 	H 	0.40640 0.53960 0.59360 0.04400
H 	H 	0.87260 0.22840 0.12740 0.04500
H 	H 	0.00970 0.35380 0.99030 0.05000
H 	H 	0.86680 0.46040 0.13320 0.05300
H 	H 	0.12740 0.77160 0.87260 0.02400
H 	H 	0.99030 0.64620 0.00970 0.07800
H 	H 	0.13320 0.53960 0.86680 0.03600
H 	H 	0.35580 0.22840 0.64420 0.03700
H 	H 	0.34410 0.35380 0.65590 0.06200
H 	H 	0.59360 0.46040 0.40640 0.04400
H 	H 	0.12740 0.00000 0.64420 0.05500
H 	H 	0.99030 1.00000 0.65590 0.05000
H 	H 	0.13320 0.00000 0.40640 0.06200
H 	H 	0.35580 0.00000 0.87260 0.07700
H 	H 	0.34410 0.00000 0.00970 0.03100
H 	H 	0.59360 1.00000 0.86680 0.04800
C 	C 	0.51990 -0.00000 0.23510 0.41700
C 	C 	0.52460 1.00000 0.14560 -0.13200
C 	C 	0.59810 1.00000 0.10090 0.04600
C 	C 	0.60550 0.00000 0.01830 -0.11300
C 	C 	0.53750 0.00000 0.97690 0.06600
C 	C 	0.45660 0.00000 0.10460 0.01500
C 	C 	0.76490 1.00000 0.48010 0.40900
C 	C 	0.85440 1.00000 0.47540 -0.13900
C 	C 	0.89910 0.00000 0.40190 0.07200
C 	C 	0.98170 1.00000 0.39450 -0.14600
C 	C 	0.02310 1.00000 0.46250 0.06100
C 	C 	0.89540 0.00000 0.54340 0.01100
C 	C 	0.51990 0.75500 0.48010 0.39600
C 	C 	0.52460 0.67020 0.47540 -0.10300
C 	C 	0.59810 0.69900 0.40190 0.02600
C 	C 	0.60550 0.62380 0.39450 -0.09900
C 	C 	0.53750 0.51440 0.46250 0.02600
C 	C 	0.45660 0.56120 0.54340 -0.03100
C 	C 	0.76490 0.24500 0.23510 0.39000
C 	C 	0.85440 0.32980 0.14560 -0.08500
C 	C 	0.89910 0.30100 0.10090 0.00400
C 	C 	0.98170 0.37620 0.01830 -0.07000
C 	C 	0.02310 0.48560 0.97690 -0.00700
C 	C 	0.89540 0.43880 0.10460 -0.05700
C 	C 	0.23510 0.75500 0.76490 0.40300
C 	C 	0.14560 0.67020 0.85440 -0.12300
C 	C 	0.10090 0.69900 0.89910 0.05300
C 	C 	0.01830 0.62380 0.98170 -0.14100
C 	C 	0.97690 0.51440 0.02310 0.06100
C 	C 	0.10460 0.56120 0.89540 -0.00700
C 	C 	0.48010 0.24500 0.51990 0.39600
C 	C 	0.47540 0.32980 0.52460 -0.10200
C 	C 	0.40190 0.30100 0.59810 0.02600
C 	C 	0.39450 0.37620 0.60550 -0.09900
C 	C 	0.46250 0.48560 0.53750 0.02600
C 	C 	0.54340 0.43880 0.45660 -0.03100
C 	C 	0.23510 0.00000 0.51990 0.40000
C 	C 	0.14560 1.00000 0.52460 -0.08500
C 	C 	0.10090 1.00000 0.59810 -0.01100
C 	C 	0.01830 1.00000 0.60550 -0.07100
C 	C 	0.97690 1.00000 0.53750 -0.01100
C 	C 	0.10460 1.00000 0.45660 -0.06800
C 	C 	0.48010 1.00000 0.76490 0.35800
C 	C 	0.47540 0.00000 0.85440 -0.03900
C 	C 	0.40190 1.00000 0.89910 -0.07600
C 	C 	0.39450 0.00000 0.98170 -0.01200
C 	C 	0.46250 1.00000 0.02310 -0.03400
C 	C 	0.54340 0.00000 0.89540 -0.06300
O 	O 	0.58230 1.00000 0.26710 -0.41200
O 	O 	0.44960 1.00000 0.27240 -0.44100
O 	O 	0.73290 1.00000 0.41770 -0.40900
O 	O 	0.72760 1.00000 0.55040 -0.43900
O 	O 	0.58230 0.84940 0.41770 -0.40400
O 	O 	0.44960 0.72200 0.55040 -0.43400
O 	O 	0.73290 0.15060 0.26710 -0.40000
O 	O 	0.72760 0.27800 0.27240 -0.43200
O 	O 	0.26710 0.84940 0.73290 -0.40800
O 	O 	0.27240 0.72200 0.72760 -0.43600
O 	O 	0.41770 0.15060 0.58230 -0.40200
O 	O 	0.55040 0.27800 0.44960 -0.43400
O 	O 	0.26710 0.00000 0.58230 -0.40000
O 	O 	0.27240 1.00000 0.44960 -0.43900
O 	O 	0.41770 0.00000 0.73290 -0.38500
O 	O 	0.55040 1.00000 0.72760 -0.42700
O 	O 	0.45200 0.89960 0.44760 -0.58000
O 	O 	0.65280 0.10040 0.44760 -0.57600
O 	O 	0.55240 0.89960 0.54800 -0.58000
O 	O 	0.55240 0.10040 0.34720 -0.57700
O 	O 	0.34720 0.89960 0.55240 -0.57900
O 	O 	0.54800 0.10040 0.55240 -0.57400
O 	O 	0.44760 0.10040 0.45200 -0.57500
O 	O 	0.44760 0.89960 0.65280 -0.57900
