data_crystal

_cell_length_a 16.84160
_cell_length_b 16.84160
_cell_length_c 16.84160
_cell_angle_alpha 96.28120
_cell_angle_beta  113.55800
_cell_angle_gamma 119.40100

_symmetry_space_group_name_	'P 1'
_symmetry_space_group_name_H-M	'P 1'

loop_
_symmetry_equiv_pos_as_xyz
  x,y,z

loop_
_atom_site_label
_atom_site_type_symbol
_atom_site_fract_x
_atom_site_fract_y
_atom_site_fract_z
_atom_site_charge
Hf	Hf	0.50000 0.60932 0.10932 1.48900
Hf	Hf	0.50000 0.39068 0.89068 1.48900
Hf	Hf	0.50860 0.60352 0.90508 1.36300
Hf	Hf	0.49140 0.39648 0.09492 1.36300
Hf	Hf	0.30156 0.39648 0.90508 1.36400
Hf	Hf	0.69844 0.60352 0.09492 1.36400
H 	H 	0.49120 0.86860 0.14180 0.03800
H 	H 	0.51610 0.87220 0.91610 0.04600
H 	H 	0.51570 0.99790 0.85100 0.06000
H 	H 	0.50880 0.65060 0.37740 0.03900
H 	H 	0.48390 0.40000 0.35610 0.04600
H 	H 	0.48430 0.33530 0.48220 0.06000
H 	H 	0.27320 0.13140 0.62260 0.03900
H 	H 	0.04390 0.12780 0.64390 0.04500
H 	H 	0.85310 0.00210 0.51780 0.05800
H 	H 	0.72680 0.34940 0.85820 0.03800
H 	H 	0.95610 0.60000 0.08390 0.04500
H 	H 	0.14690 0.66470 0.14900 0.05900
H 	H 	0.50880 0.13140 0.85820 0.03800
H 	H 	0.48390 0.12780 0.08390 0.04600
H 	H 	0.48430 0.00210 0.14900 0.06000
H 	H 	0.49120 0.34940 0.62260 0.03900
H 	H 	0.51610 0.60000 0.64390 0.04600
H 	H 	0.51570 0.66470 0.51780 0.06000
H 	H 	0.72680 0.86860 0.37740 0.03900
H 	H 	0.95610 0.87220 0.35610 0.04500
H 	H 	0.14690 0.99790 0.48220 0.05800
H 	H 	0.27320 0.65060 0.14180 0.03800
H 	H 	0.04390 0.40000 0.91610 0.04500
H 	H 	0.85310 0.33530 0.85100 0.05900
C 	C 	0.50710 0.76880 0.02370 0.39100
C 	C 	0.50340 0.85680 0.02780 -0.09600
C 	C 	0.49440 0.89630 0.09730 0.02100
C 	C 	0.50950 0.89850 0.96260 -0.03300
C 	C 	0.50580 0.98030 0.96530 0.02300
C 	C 	0.51000 0.02370 0.89850 -0.09400
C 	C 	0.49290 0.51660 0.26170 0.39100
C 	C 	0.49660 0.52440 0.35340 -0.09500
C 	C 	0.50560 0.60290 0.40190 0.02100
C 	C 	0.49050 0.45310 0.38900 -0.03300
C 	C 	0.49420 0.45950 0.47450 0.02300
C 	C 	0.49000 0.38850 0.51370 -0.09400
C 	C 	0.25490 0.23120 0.73830 0.39100
C 	C 	0.17100 0.14320 0.64660 -0.09500
C 	C 	0.20100 0.10370 0.59810 0.01900
C 	C 	0.06410 0.10150 0.61100 -0.03100
C 	C 	0.98500 0.01970 0.52550 0.02100
C 	C 	0.87480 0.97630 0.48630 -0.09100
C 	C 	0.74510 0.48340 0.97630 0.39100
C 	C 	0.82900 0.47560 0.97220 -0.09700
C 	C 	0.79900 0.39710 0.90270 0.02100
C 	C 	0.93590 0.54690 0.03740 -0.03100
C 	C 	0.01500 0.54050 0.03470 0.02200
C 	C 	0.12520 0.61150 0.10150 -0.09400
C 	C 	0.49290 0.23120 0.97630 0.39100
C 	C 	0.49660 0.14320 0.97220 -0.09600
C 	C 	0.50560 0.10370 0.90270 0.02100
C 	C 	0.49050 0.10150 0.03740 -0.03300
C 	C 	0.49420 0.01970 0.03470 0.02300
C 	C 	0.49000 0.97630 0.10150 -0.09400
C 	C 	0.50710 0.48340 0.73830 0.39100
C 	C 	0.50340 0.47560 0.64660 -0.09500
C 	C 	0.49440 0.39710 0.59810 0.02100
C 	C 	0.50950 0.54690 0.61100 -0.03300
C 	C 	0.50580 0.54050 0.52550 0.02300
C 	C 	0.51000 0.61150 0.48630 -0.09400
C 	C 	0.74510 0.76880 0.26170 0.39100
C 	C 	0.82900 0.85680 0.35340 -0.09500
C 	C 	0.79900 0.89630 0.40190 0.01900
C 	C 	0.93590 0.89850 0.38900 -0.03100
C 	C 	0.01500 0.98030 0.47450 0.02100
C 	C 	0.12520 0.02370 0.51370 -0.09100
C 	C 	0.25490 0.51660 0.02370 0.39100
C 	C 	0.17100 0.52440 0.02780 -0.09700
C 	C 	0.20100 0.60290 0.09730 0.02100
C 	C 	0.06410 0.45310 0.96260 -0.03100
C 	C 	0.98500 0.45950 0.96530 0.02200
C 	C 	0.87480 0.38850 0.89850 -0.09400
O 	O 	0.51320 0.73590 0.95650 -0.43300
O 	O 	0.50560 0.73820 0.08660 -0.39700
O 	O 	0.48680 0.44330 0.22270 -0.43300
O 	O 	0.49440 0.58100 0.23260 -0.39700
O 	O 	0.22060 0.26410 0.77730 -0.43300
O 	O 	0.34840 0.26180 0.76740 -0.39700
O 	O 	0.77940 0.55670 0.04350 -0.43300
O 	O 	0.65160 0.41900 0.91340 -0.39700
O 	O 	0.48680 0.26410 0.04350 -0.43300
O 	O 	0.49440 0.26180 0.91340 -0.39700
O 	O 	0.51320 0.55670 0.77730 -0.43300
O 	O 	0.50560 0.41900 0.76740 -0.39700
O 	O 	0.77940 0.73590 0.22270 -0.43300
O 	O 	0.65160 0.73820 0.23260 -0.39700
O 	O 	0.22060 0.44330 0.95650 -0.43300
O 	O 	0.34840 0.58100 0.08660 -0.39700
O 	O 	0.60240 0.65610 0.05370 -0.58100
O 	O 	0.39760 0.45130 0.05370 -0.58100
O 	O 	0.39760 0.34390 0.94630 -0.58100
O 	O 	0.60240 0.54870 0.94630 -0.58100
O 	O 	0.59500 0.55290 0.14790 -0.57900
O 	O 	0.40500 0.55290 0.95790 -0.57900
O 	O 	0.59500 0.44710 0.04210 -0.57900
O 	O 	0.40500 0.44710 0.85210 -0.57900
