data_crystal

_cell_length_a 14.75100
_cell_length_b 14.75100
_cell_length_c 14.75100
_cell_angle_alpha 109.47100
_cell_angle_beta  109.47100
_cell_angle_gamma 109.47100

_symmetry_space_group_name_	'P 1'
_symmetry_space_group_name_H-M	'P 1'

loop_
_symmetry_equiv_pos_as_xyz
  x,y,z

loop_
_atom_site_label
_atom_site_type_symbol
_atom_site_fract_x
_atom_site_fract_y
_atom_site_fract_z
_atom_site_charge
Zn	Zn	0.25000 0.50000 0.75000 1.17700
Zn	Zn	0.50000 0.75000 0.25000 1.17700
Zn	Zn	0.75000 0.25000 0.50000 1.17700
Zn	Zn	0.50000 0.25000 0.75000 1.17700
Zn	Zn	0.25000 0.75000 0.50000 1.17700
Zn	Zn	0.75000 0.50000 0.25000 1.17700
H 	H 	0.65640 0.23680 0.13600 0.00800
H 	H 	0.41960 0.89920 0.76320 0.00800
H 	H 	0.34360 0.47960 0.58040 0.00700
H 	H 	0.65640 0.13600 0.23680 0.00800
H 	H 	0.23680 0.65640 0.13600 0.00800
H 	H 	0.41960 0.76320 0.89920 0.00800
H 	H 	0.86400 0.10080 0.52040 0.00600
H 	H 	0.58040 0.34360 0.47960 0.00700
H 	H 	0.89920 0.41960 0.76320 0.00800
H 	H 	0.13600 0.65640 0.23680 0.00800
H 	H 	0.89920 0.76320 0.41960 0.00800
H 	H 	0.23680 0.13600 0.65640 0.00800
H 	H 	0.10080 0.52040 0.86400 0.00600
H 	H 	0.86400 0.52040 0.10080 0.00600
H 	H 	0.58040 0.47960 0.34360 0.00700
H 	H 	0.76320 0.41960 0.89920 0.00800
H 	H 	0.10080 0.86400 0.52040 0.00600
H 	H 	0.13600 0.23680 0.65640 0.00800
H 	H 	0.52040 0.10080 0.86400 0.00600
H 	H 	0.47960 0.34360 0.58040 0.00700
H 	H 	0.34360 0.58040 0.47960 0.00700
H 	H 	0.52040 0.86400 0.10080 0.00600
H 	H 	0.76320 0.89920 0.41960 0.00800
H 	H 	0.47960 0.58040 0.34360 0.00700
C 	C 	0.41485 0.94430 0.73235 -0.00900
C 	C 	0.94430 0.41485 0.73235 -0.00900
C 	C 	0.31750 0.52945 0.58515 -0.00600
C 	C 	0.38354 0.75408 0.38354 0.11600
C 	C 	0.37054 0.61646 -0.00000 0.11800
C 	C 	0.41485 0.73235 0.94430 -0.00900
C 	C 	0.68040 0.68040 0.18940 -0.13800
C 	C 	0.58515 0.52945 0.31750 -0.00600
C 	C 	0.05570 0.47055 0.78805 -0.00400
C 	C 	0.62946 0.62946 0.24592 0.11600
C 	C 	0.00000 0.50900 0.31960 -0.13700
C 	C 	0.31960 -0.00000 0.50900 -0.13700
C 	C 	0.50900 -0.00000 0.31960 -0.13700
C 	C 	0.62946 0.24592 0.62946 0.11600
C 	C 	0.49100 0.49100 0.81060 -0.13800
C 	C 	0.18940 0.68040 0.68040 -0.13800
C 	C 	0.73235 0.94430 0.41485 -0.00900
C 	C 	0.68250 0.26765 0.21195 -0.00600
C 	C 	0.94430 0.73235 0.41485 -0.00900
C 	C 	0.58515 0.31750 0.52945 -0.00600
C 	C 	0.24592 0.62946 0.62946 0.11600
C 	C 	0.31750 0.58515 0.52945 -0.00600
C 	C 	0.78805 0.05570 0.47055 -0.00400
C 	C 	0.26765 0.21195 0.68250 -0.00600
C 	C 	0.47055 0.05570 0.78805 -0.00400
C 	C 	0.52945 0.58515 0.31750 -0.00600
C 	C 	0.68250 0.21195 0.26765 -0.00600
C 	C 	0.75408 0.38354 0.38354 0.11600
C 	C 	0.00000 0.61646 0.37054 0.11800
C 	C 	0.05570 0.78805 0.47055 -0.00400
C 	C 	0.49100 0.81060 0.49100 -0.13800
C 	C 	0.00000 0.31960 0.50900 -0.13700
C 	C 	0.21195 0.26765 0.68250 -0.00600
C 	C 	0.61646 0.37054 -0.00000 0.11800
C 	C 	0.50900 0.31960 -0.00000 -0.13700
C 	C 	0.37054 -0.00000 0.61646 0.11800
C 	C 	0.21195 0.68250 0.26765 -0.00600
C 	C 	0.31960 0.50900 -0.00000 -0.13700
C 	C 	0.26765 0.68250 0.21195 -0.00600
C 	C 	0.47055 0.78805 0.05570 -0.00400
C 	C 	0.00000 0.37054 0.61646 0.11800
C 	C 	0.73235 0.41485 0.94430 -0.00900
C 	C 	0.61646 -0.00000 0.37054 0.11800
C 	C 	0.38354 0.38354 0.75408 0.11600
C 	C 	0.52945 0.31750 0.58515 -0.00600
C 	C 	0.81060 0.49100 0.49100 -0.13800
C 	C 	0.68040 0.18940 0.68040 -0.13800
C 	C 	0.78805 0.47055 0.05570 -0.00400
N 	N 	0.27245 0.65059 0.55822 -0.28500
N 	N 	0.34941 0.62186 0.90763 -0.28500
N 	N 	0.44178 0.09237 0.71423 -0.28500
N 	N 	0.44178 0.71423 0.09237 -0.28500
N 	N 	0.65059 0.27245 0.55822 -0.28500
N 	N 	0.55822 0.65059 0.27245 -0.28500
N 	N 	0.55822 0.27245 0.65059 -0.28500
N 	N 	0.37814 0.28577 0.72755 -0.28500
N 	N 	0.09237 0.71423 0.44178 -0.28500
N 	N 	0.90763 0.34941 0.62186 -0.28500
N 	N 	0.62186 0.34941 0.90763 -0.28500
N 	N 	0.62186 0.90763 0.34941 -0.28500
N 	N 	0.72755 0.28577 0.37814 -0.28500
N 	N 	0.37814 0.72755 0.28577 -0.28500
N 	N 	0.28577 0.37814 0.72755 -0.28500
N 	N 	0.34941 0.90763 0.62186 -0.28500
N 	N 	0.09237 0.44178 0.71423 -0.28500
N 	N 	0.65059 0.55822 0.27245 -0.28500
N 	N 	0.72755 0.37814 0.28577 -0.28500
N 	N 	0.71423 0.44178 0.09237 -0.28500
N 	N 	0.27245 0.55822 0.65059 -0.28500
N 	N 	0.90763 0.62186 0.34941 -0.28500
N 	N 	0.28577 0.72755 0.37814 -0.28500
N 	N 	0.71423 0.09237 0.44178 -0.28500
