data_crystal

_cell_length_a 10.31750
_cell_length_b 10.31750
_cell_length_c 14.29000
_cell_angle_alpha 90.00000
_cell_angle_beta  90.00000
_cell_angle_gamma 90.00000

_symmetry_space_group_name_	'P 1'
_symmetry_space_group_name_H-M	'P 1'

loop_
_symmetry_equiv_pos_as_xyz
  x,y,z

loop_
_atom_site_label
_atom_site_type_symbol
_atom_site_fract_x
_atom_site_fract_y
_atom_site_fract_z
_atom_site_charge
Eu	Eu	0.13960 0.86040 0.12500 2.19300
Eu	Eu	0.86040 0.13960 0.62500 2.21300
Eu	Eu	0.13960 0.13960 0.37500 2.14900
Eu	Eu	0.86040 0.86040 0.87500 2.29200
H 	H 	0.94110 0.44790 0.86610 -0.06400
H 	H 	0.05890 0.55210 0.36610 -0.05000
H 	H 	0.55210 0.94110 0.11610 -0.05700
H 	H 	0.44790 0.05890 0.61610 -0.05700
H 	H 	0.05890 0.44790 0.13390 -0.05900
H 	H 	0.94110 0.55210 0.63390 -0.05300
H 	H 	0.44790 0.94110 0.88390 -0.05800
H 	H 	0.55210 0.05890 0.38390 -0.05100
H 	H 	-0.00000 0.11520 -0.00000 -0.13000
H 	H 	-0.00000 0.88480 0.50000 -0.09500
H 	H 	0.88480 0.00000 0.25000 -0.09400
H 	H 	0.11520 0.00000 0.75000 -0.12800
C 	C 	0.96460 0.40140 0.92100 0.35100
C 	C 	0.96360 0.26590 0.92220 -0.37600
C 	C 	0.92440 0.19520 0.83470 0.64000
C 	C 	0.03540 0.59860 0.42100 0.28000
C 	C 	0.03640 0.73410 0.42220 -0.39300
C 	C 	0.07560 0.80480 0.33470 0.62200
C 	C 	0.59860 0.96460 0.17100 0.32200
C 	C 	0.73410 0.96360 0.17220 -0.35700
C 	C 	0.80480 0.92440 0.08470 0.62800
C 	C 	0.40140 0.03540 0.67100 0.29800
C 	C 	0.26590 0.03640 0.67220 -0.42300
C 	C 	0.19520 0.07560 0.58470 0.63700
C 	C 	0.03540 0.40140 0.07900 0.29800
C 	C 	0.03640 0.26590 0.07780 -0.42100
C 	C 	0.07560 0.19520 0.16530 0.63400
C 	C 	0.96460 0.59860 0.57900 0.31800
C 	C 	0.96360 0.73410 0.57780 -0.36000
C 	C 	0.92440 0.80480 0.66530 0.62800
C 	C 	0.40140 0.96460 0.82900 0.33900
C 	C 	0.26590 0.96360 0.82780 -0.38400
C 	C 	0.19520 0.92440 0.91530 0.64000
C 	C 	0.59860 0.03540 0.32900 0.28000
C 	C 	0.73410 0.03640 0.32780 -0.39200
C 	C 	0.80480 0.07560 0.41530 0.62200
C 	C 	-0.00000 0.61940 -0.00000 0.58100
C 	C 	-0.00000 0.46460 -0.00000 -0.41000
C 	C 	-0.00000 0.20730 -0.00000 0.31300
C 	C 	-0.00000 0.38060 0.50000 0.59200
C 	C 	0.00000 0.53540 0.50000 -0.37400
C 	C 	0.00000 0.79270 0.50000 0.31400
C 	C 	0.38060 0.00000 0.25000 0.58700
C 	C 	0.53540 0.00000 0.25000 -0.38000
C 	C 	0.79270 0.00000 0.25000 0.30700
C 	C 	0.61940 0.00000 0.75000 0.59800
C 	C 	0.46460 0.00000 0.75000 -0.39500
C 	C 	0.20730 0.00000 0.75000 0.33300
O 	O 	0.06510 0.67100 0.06060 -0.62100
O 	O 	0.91130 0.25510 0.76050 -0.58500
O 	O 	0.90370 0.08090 0.83690 -0.64200
O 	O 	0.93490 0.32900 0.56060 -0.58300
O 	O 	0.08870 0.74490 0.26050 -0.58600
O 	O 	0.09630 0.91910 0.33690 -0.60000
O 	O 	0.32900 0.06510 0.31060 -0.61100
O 	O 	0.74490 0.91130 0.01050 -0.59000
O 	O 	0.91910 0.90370 0.08690 -0.58900
O 	O 	0.67100 0.93490 0.81060 -0.59000
O 	O 	0.25510 0.08870 0.51050 -0.59100
O 	O 	0.08090 0.09630 0.58690 -0.65300
O 	O 	0.93490 0.67100 0.93940 -0.58000
O 	O 	0.08870 0.25510 0.23950 -0.59100
O 	O 	0.09630 0.08090 0.16310 -0.65500
O 	O 	0.06510 0.32900 0.43940 -0.61200
O 	O 	0.91130 0.74490 0.73950 -0.58300
O 	O 	0.90370 0.91910 0.66310 -0.59000
O 	O 	0.67100 0.06510 0.68940 -0.62300
O 	O 	0.25510 0.91130 0.98950 -0.57000
O 	O 	0.08090 0.90370 0.91310 -0.63200
O 	O 	0.32900 0.93490 0.18940 -0.58000
O 	O 	0.74490 0.08870 0.48950 -0.58800
O 	O 	0.91910 0.09630 0.41310 -0.60300
