data_crystal

_cell_length_a 14.71380
_cell_length_b 14.71380
_cell_length_c 14.71380
_cell_angle_alpha 109.47100
_cell_angle_beta  109.47100
_cell_angle_gamma 109.47100

_symmetry_space_group_name_	'P 1'
_symmetry_space_group_name_H-M	'P 1'

loop_
_symmetry_equiv_pos_as_xyz
  x,y,z

loop_
_atom_site_label
_atom_site_type_symbol
_atom_site_fract_x
_atom_site_fract_y
_atom_site_fract_z
_atom_site_charge
Zn	Zn	0.25000 0.75000 0.50000 1.17400
Zn	Zn	0.75000 0.25000 0.50000 1.17300
Zn	Zn	0.50000 0.75000 0.25000 1.17500
Zn	Zn	0.50000 0.25000 0.75000 1.17400
Zn	Zn	0.75000 0.50000 0.25000 1.17400
Zn	Zn	0.25000 0.50000 0.75000 1.17400
H 	H 	0.42240 0.65640 0.53660 -0.00700
H 	H 	0.31040 0.79410 0.24430 0.13500
H 	H 	0.11980 0.88580 0.46340 -0.00500
H 	H 	0.54980 0.06610 0.75570 0.10000
H 	H 	0.88020 0.34360 0.76600 -0.01200
H 	H 	0.45020 0.20590 0.51630 0.12800
H 	H 	0.57760 0.11420 0.23400 -0.00400
H 	H 	0.68960 0.93390 0.48370 0.14100
H 	H 	0.76600 0.88020 0.34360 -0.00500
H 	H 	0.51630 0.45020 0.20590 0.13200
H 	H 	0.23400 0.57760 0.11420 -0.00700
H 	H 	0.48370 0.68960 0.93390 0.11100
H 	H 	0.53660 0.42240 0.65640 -0.00700
H 	H 	0.24430 0.31040 0.79410 0.12500
H 	H 	0.46340 0.11980 0.88580 -0.00800
H 	H 	0.75570 0.54980 0.06610 0.12100
H 	H 	0.88580 0.46340 0.11980 -0.00200
H 	H 	0.06610 0.75570 0.54980 0.12300
H 	H 	0.65640 0.53660 0.42240 -0.00700
H 	H 	0.79410 0.24430 0.31040 0.12500
H 	H 	0.11420 0.23400 0.57760 -0.00900
H 	H 	0.93390 0.48370 0.68960 0.10900
H 	H 	0.34360 0.76600 0.88020 -0.00900
H 	H 	0.20590 0.51630 0.45020 0.13200
H 	H 	0.88580 0.11980 0.46340 -0.00700
H 	H 	0.06610 0.54980 0.75570 0.12100
H 	H 	0.65640 0.42240 0.53660 -0.00700
H 	H 	0.79410 0.31040 0.24430 0.12600
H 	H 	0.11420 0.57760 0.23400 -0.00700
H 	H 	0.93390 0.68960 0.48370 0.11100
H 	H 	0.34360 0.88020 0.76600 -0.00500
H 	H 	0.20590 0.45020 0.51630 0.13200
H 	H 	0.42240 0.53660 0.65640 -0.00700
H 	H 	0.31040 0.24430 0.79410 0.12500
H 	H 	0.11980 0.46340 0.88580 -0.00200
H 	H 	0.54980 0.75570 0.06610 0.12400
H 	H 	0.88020 0.76600 0.34360 -0.00900
H 	H 	0.45020 0.51630 0.20590 0.13200
H 	H 	0.57760 0.23400 0.11420 -0.00900
H 	H 	0.68960 0.48370 0.93390 0.10900
H 	H 	0.76600 0.34360 0.88020 -0.01200
H 	H 	0.51630 0.20590 0.45020 0.12800
H 	H 	0.23400 0.11420 0.57760 -0.00400
H 	H 	0.48370 0.93390 0.68960 0.11000
H 	H 	0.53660 0.65640 0.42240 -0.00700
H 	H 	0.24430 0.79410 0.31040 0.13500
H 	H 	0.46340 0.88580 0.11980 -0.00500
H 	H 	0.75570 0.06610 0.54980 0.13100
H 	H 	0.37010 0.88180 0.37010 0.16100
H 	H 	0.51170 -0.00000 0.62990 0.12000
H 	H 	0.48830 0.11820 0.48830 0.15100
H 	H 	0.62990 0.00000 0.51170 0.15800
H 	H 	0.48830 0.48830 0.11820 0.15800
H 	H 	0.51170 0.62990 -0.00000 0.14800
H 	H 	0.37010 0.37010 0.88180 0.14700
H 	H 	0.62990 0.51170 -0.00000 0.14700
H 	H 	-0.00000 0.62990 0.51170 0.14800
H 	H 	0.88180 0.37010 0.37010 0.14700
H 	H 	-0.00000 0.51170 0.62990 0.14700
H 	H 	0.11820 0.48830 0.48830 0.15800
C 	C 	0.41456 0.68356 0.47280 -0.00800
C 	C 	0.21076 0.94176 0.52720 0.00700
C 	C 	0.78924 0.31644 0.73100 -0.01100
C 	C 	0.58544 0.05824 0.26900 -0.02300
C 	C 	0.73100 0.78924 0.31644 -0.00900
C 	C 	0.26900 0.58544 0.05824 0.01000
C 	C 	0.47280 0.41456 0.68356 -0.01000
C 	C 	0.52720 0.21076 0.94176 -0.02900
C 	C 	0.94176 0.52720 0.21076 -0.02700
C 	C 	0.68356 0.47280 0.41456 -0.01000
C 	C 	0.05824 0.26900 0.58544 0.00900
C 	C 	0.31644 0.73100 0.78924 -0.00900
C 	C 	0.94176 0.21076 0.52720 -0.02900
C 	C 	0.68356 0.41456 0.47280 -0.01000
C 	C 	0.05824 0.58544 0.26900 0.01000
C 	C 	0.31644 0.78924 0.73100 -0.00900
C 	C 	0.41456 0.47280 0.68356 -0.01000
C 	C 	0.21076 0.52720 0.94176 -0.02700
C 	C 	0.78924 0.73100 0.31644 -0.00900
C 	C 	0.58544 0.26900 0.05824 0.00900
C 	C 	0.73100 0.31644 0.78924 -0.01100
C 	C 	0.26900 0.05824 0.58544 -0.02400
C 	C 	0.47280 0.68356 0.41456 -0.00900
C 	C 	0.52720 0.94176 0.21076 0.00700
C 	C 	0.37300 0.75680 0.37300 0.20600
C 	C 	0.31950 0.80580 0.31950 -0.55800
C 	C 	0.38380 1.00000 0.62700 0.19100
C 	C 	0.48630 1.00000 0.68050 -0.46700
C 	C 	0.61620 0.24320 0.61620 0.19900
C 	C 	0.51370 0.19420 0.51370 -0.54400
C 	C 	0.62700 -0.00000 0.38380 0.19600
C 	C 	0.68050 0.00000 0.48630 -0.57100
C 	C 	0.61620 0.61620 0.24320 0.20300
C 	C 	0.51370 0.51370 0.19420 -0.55200
C 	C 	0.38380 0.62700 -0.00000 0.20500
C 	C 	0.48630 0.68050 -0.00000 -0.51300
C 	C 	0.37300 0.37300 0.75680 0.19600
C 	C 	0.31950 0.31950 0.80580 -0.53800
C 	C 	0.62700 0.38380 -0.00000 0.20400
C 	C 	0.68050 0.48630 -0.00000 -0.51000
C 	C 	0.00000 0.62700 0.38380 0.20500
C 	C 	0.00000 0.68050 0.48630 -0.51200
C 	C 	0.75680 0.37300 0.37300 0.19700
C 	C 	0.80580 0.31950 0.31950 -0.53800
C 	C 	-0.00000 0.38380 0.62700 0.20400
C 	C 	-0.00000 0.48630 0.68050 -0.51000
C 	C 	0.24320 0.61620 0.61620 0.20300
C 	C 	0.19420 0.51370 0.51370 -0.55200
N 	N 	0.35145 0.72798 0.44533 -0.31000
N 	N 	0.28265 0.90612 0.55467 -0.30900
N 	N 	0.71735 0.27202 0.62347 -0.31000
N 	N 	0.64855 0.09388 0.37653 -0.30800
N 	N 	0.62347 0.71735 0.27202 -0.31000
N 	N 	0.37653 0.64855 0.09388 -0.31200
N 	N 	0.44533 0.35145 0.72798 -0.31000
N 	N 	0.55467 0.28265 0.90612 -0.31400
N 	N 	0.90612 0.55467 0.28265 -0.31300
N 	N 	0.72798 0.44533 0.35145 -0.31000
N 	N 	0.09388 0.37653 0.64855 -0.31200
N 	N 	0.27202 0.62347 0.71735 -0.31100
N 	N 	0.90612 0.28265 0.55467 -0.31400
N 	N 	0.72798 0.35145 0.44533 -0.31000
N 	N 	0.09388 0.64855 0.37653 -0.31200
N 	N 	0.27202 0.71735 0.62347 -0.31000
N 	N 	0.35145 0.44533 0.72798 -0.31000
N 	N 	0.28265 0.55467 0.90612 -0.31300
N 	N 	0.71735 0.62347 0.27202 -0.31100
N 	N 	0.64855 0.37653 0.09388 -0.31200
N 	N 	0.62347 0.27202 0.71735 -0.31100
N 	N 	0.37653 0.09388 0.64855 -0.31000
N 	N 	0.44533 0.72798 0.35145 -0.31000
N 	N 	0.55467 0.90612 0.28265 -0.30700
