data_crystal

_cell_length_a 13.45400
_cell_length_b 13.45400
_cell_length_c 14.85600
_cell_angle_alpha 90.00000
_cell_angle_beta  90.00000
_cell_angle_gamma 120.00000

_symmetry_space_group_name_	'P 1'
_symmetry_space_group_name_H-M	'P 1'

loop_
_symmetry_equiv_pos_as_xyz
  x,y,z

loop_
_atom_site_label
_atom_site_type_symbol
_atom_site_fract_x
_atom_site_fract_y
_atom_site_fract_z
_atom_site_charge
Sm	Sm	0.66667 0.33334 0.66925 2.05900
Sm	Sm	0.33333 0.66666 0.83075 2.06000
Sm	Sm	0.33333 0.66666 0.33075 2.05300
Sm	Sm	0.66667 0.33334 0.16925 2.05300
Cu	Cu	0.50000 0.50000 -0.00000 0.90000
Cu	Cu	-0.00000 0.50000 -0.00000 0.87200
Cu	Cu	0.50000 0.00000 -0.00000 0.87000
Cu	Cu	0.00000 0.50000 0.50000 0.89900
Cu	Cu	0.50000 0.50000 0.50000 0.92700
Cu	Cu	0.50000 0.00000 0.50000 0.89700
H 	H 	0.32600 0.35170 0.92350 0.09400
H 	H 	0.45710 0.26870 0.87200 0.16000
H 	H 	0.39660 0.31710 0.81030 0.13600
H 	H 	0.29320 0.25430 0.04800 0.16100
H 	H 	0.31930 0.18190 0.97900 0.21200
H 	H 	0.02570 0.67400 0.92350 0.04500
H 	H 	0.81160 0.54290 0.87200 0.16900
H 	H 	0.92050 0.60340 0.81030 0.16700
H 	H 	0.96110 0.70680 0.04800 0.20700
H 	H 	0.86260 0.68070 0.97900 0.24100
H 	H 	0.64830 0.97430 0.92350 0.15800
H 	H 	0.73130 0.18840 0.87200 0.16400
H 	H 	0.68290 0.07950 0.81030 0.12400
H 	H 	0.74570 0.03890 0.04800 0.14900
H 	H 	0.81810 0.13740 0.97900 0.22500
H 	H 	0.97430 0.64830 0.57650 0.15500
H 	H 	0.18840 0.73130 0.62800 0.15300
H 	H 	0.07950 0.68290 0.68970 0.12300
H 	H 	0.03890 0.74570 0.45200 0.10400
H 	H 	0.13740 0.81810 0.52100 0.12700
H 	H 	0.35170 0.32600 0.57650 0.09200
H 	H 	0.26870 0.45710 0.62800 0.14800
H 	H 	0.31710 0.39660 0.68970 0.13400
H 	H 	0.25430 0.29320 0.45200 0.11200
H 	H 	0.18190 0.31930 0.52100 0.10900
H 	H 	0.67400 0.02570 0.57650 0.03700
H 	H 	0.54290 0.81160 0.62800 0.15800
H 	H 	0.60340 0.92050 0.68970 0.16600
H 	H 	0.70680 0.96110 0.45200 0.16200
H 	H 	0.68070 0.86260 0.52100 0.14500
H 	H 	0.67400 0.64830 0.07650 0.09800
H 	H 	0.54290 0.73130 0.12800 0.14600
H 	H 	0.60340 0.68290 0.18970 0.14400
H 	H 	0.70680 0.74570 0.95200 0.09300
H 	H 	0.68070 0.81810 0.02100 0.04600
H 	H 	0.97430 0.32600 0.07650 0.15100
H 	H 	0.18840 0.45710 0.12800 0.13400
H 	H 	0.07950 0.39660 0.18970 0.11100
H 	H 	0.03890 0.29320 0.95200 0.04200
H 	H 	0.13740 0.31930 0.02100 0.00300
H 	H 	0.35170 0.02570 0.07650 0.03100
H 	H 	0.26870 0.81160 0.12800 0.14000
H 	H 	0.31710 0.92050 0.18970 0.15500
H 	H 	0.25430 0.96110 0.95200 0.10100
H 	H 	0.18190 0.86260 0.02100 0.02800
H 	H 	0.02570 0.35170 0.42350 0.03600
H 	H 	0.81160 0.26870 0.37200 0.15200
H 	H 	0.92050 0.31710 0.31030 0.15700
H 	H 	0.96110 0.25430 0.54800 0.14700
H 	H 	0.86260 0.18190 0.47900 0.12600
H 	H 	0.64830 0.67400 0.42350 0.09900
H 	H 	0.73130 0.54290 0.37200 0.15800
H 	H 	0.68290 0.60340 0.31030 0.14700
H 	H 	0.74570 0.70680 0.54800 0.14000
H 	H 	0.81810 0.68070 0.47900 0.14500
H 	H 	0.32600 0.97430 0.42350 0.15500
H 	H 	0.45710 0.18840 0.37200 0.14700
H 	H 	0.39660 0.07950 0.31030 0.11400
H 	H 	0.29320 0.03890 0.54800 0.09000
H 	H 	0.31930 0.13740 0.47900 0.10700
C 	C 	0.56050 0.43850 0.84280 0.47400
C 	C 	0.44610 0.33390 0.86230 -0.37200
C 	C 	0.35200 0.25530 0.00970 -0.50000
C 	C 	0.45200 0.27180 0.06680 0.43200
C 	C 	0.87800 0.43950 0.84280 0.48300
C 	C 	0.88780 0.55390 0.86230 -0.38400
C 	C 	0.90330 0.64800 0.00970 -0.52000
C 	C 	0.81980 0.54800 0.06680 0.44600
C 	C 	0.56150 0.12200 0.84280 0.46800
C 	C 	0.66610 0.11220 0.86230 -0.36700
C 	C 	0.74470 0.09670 0.00970 -0.49300
C 	C 	0.72820 0.18020 0.06680 0.42600
C 	C 	0.12200 0.56150 0.65720 0.46300
C 	C 	0.11220 0.66610 0.63770 -0.36300
C 	C 	0.09670 0.74470 0.49030 -0.29700
C 	C 	0.18020 0.72820 0.43320 0.37800
C 	C 	0.43850 0.56050 0.65720 0.46800
C 	C 	0.33390 0.44610 0.63770 -0.36700
C 	C 	0.25530 0.35200 0.49030 -0.29600
C 	C 	0.27180 0.45200 0.43320 0.38100
C 	C 	0.43950 0.87800 0.65720 0.47800
C 	C 	0.55390 0.88780 0.63770 -0.37900
C 	C 	0.64800 0.90330 0.49030 -0.32800
C 	C 	0.54800 0.81980 0.43320 0.40000
C 	C 	0.43950 0.56150 0.15720 0.46500
C 	C 	0.55390 0.66610 0.13770 -0.36500
C 	C 	0.64800 0.74470 0.99030 -0.12100
C 	C 	0.54800 0.72820 0.93320 0.34400
C 	C 	0.12200 0.56050 0.15720 0.45300
C 	C 	0.11220 0.44610 0.13770 -0.34700
C 	C 	0.09670 0.35200 0.99030 -0.07500
C 	C 	0.18020 0.45200 0.93320 0.32300
C 	C 	0.43850 0.87800 0.15720 0.46800
C 	C 	0.33390 0.88780 0.13770 -0.36500
C 	C 	0.25530 0.90330 0.99030 -0.11700
C 	C 	0.27180 0.81980 0.93320 0.34700
C 	C 	0.87800 0.43850 0.34280 0.47500
C 	C 	0.88780 0.33390 0.36230 -0.37400
C 	C 	0.90330 0.25530 0.50970 -0.31500
C 	C 	0.81980 0.27180 0.56680 0.39400
C 	C 	0.56150 0.43950 0.34280 0.47200
C 	C 	0.66610 0.55390 0.36230 -0.37500
C 	C 	0.74470 0.64800 0.50970 -0.32000
C 	C 	0.72820 0.54800 0.56680 0.39200
C 	C 	0.56050 0.12200 0.34280 0.46000
C 	C 	0.44610 0.11220 0.36230 -0.35600
C 	C 	0.35200 0.09670 0.50970 -0.28400
C 	C 	0.45200 0.18020 0.56680 0.37300
N 	N 	0.38880 0.34860 0.94212 -0.10300
N 	N 	0.95980 0.61120 0.94212 -0.04700
N 	N 	0.65140 0.04020 0.94212 -0.15500
N 	N 	0.04020 0.65140 0.55788 -0.20600
N 	N 	0.34860 0.38880 0.55788 -0.15800
N 	N 	0.61120 0.95980 0.55788 -0.09300
N 	N 	0.61120 0.65140 0.05788 -0.20000
N 	N 	0.04020 0.38880 0.05788 -0.25900
N 	N 	0.34860 0.95980 0.05788 -0.14300
N 	N 	0.95980 0.34860 0.44212 -0.09900
N 	N 	0.65140 0.61120 0.44212 -0.15300
N 	N 	0.38880 0.04020 0.44212 -0.21200
O 	O 	0.59750 0.52400 0.89503 -0.40600
O 	O 	0.61470 0.43640 0.77510 -0.49500
O 	O 	0.54700 0.36310 0.05678 -0.52400
O 	O 	0.43810 0.19630 0.12340 -0.42200
O 	O 	0.92650 0.40250 0.89503 -0.38000
O 	O 	0.82170 0.38530 0.77510 -0.49100
O 	O 	0.81610 0.45300 0.05678 -0.51500
O 	O 	0.75820 0.56190 0.12340 -0.40900
O 	O 	0.47600 0.07350 0.89503 -0.43000
O 	O 	0.56360 0.17830 0.77510 -0.50500
O 	O 	0.63690 0.18390 0.05678 -0.52700
O 	O 	0.80370 0.24180 0.12340 -0.40700
O 	O 	0.07350 0.47600 0.60497 -0.44800
O 	O 	0.17830 0.56360 0.72490 -0.50600
O 	O 	0.18390 0.63690 0.44322 -0.49900
O 	O 	0.24180 0.80370 0.37660 -0.38600
O 	O 	0.52400 0.59750 0.60497 -0.42400
O 	O 	0.43640 0.61470 0.72490 -0.49700
O 	O 	0.36310 0.54700 0.44322 -0.49600
O 	O 	0.19630 0.43810 0.37660 -0.40000
O 	O 	0.40250 0.92650 0.60497 -0.39600
O 	O 	0.38530 0.82170 0.72490 -0.49100
O 	O 	0.45300 0.81610 0.44322 -0.48800
O 	O 	0.56190 0.75820 0.37660 -0.38800
O 	O 	0.40250 0.47600 0.10497 -0.43800
O 	O 	0.38530 0.56360 0.22490 -0.49900
O 	O 	0.45300 0.63690 0.94322 -0.46400
O 	O 	0.56190 0.80370 0.87660 -0.36100
O 	O 	0.07350 0.59750 0.10497 -0.45500
O 	O 	0.17830 0.61470 0.22490 -0.50300
O 	O 	0.18390 0.54700 0.94322 -0.46400
O 	O 	0.24180 0.43810 0.87660 -0.37300
O 	O 	0.52400 0.92650 0.10497 -0.40200
O 	O 	0.43640 0.82170 0.22490 -0.48900
O 	O 	0.36310 0.81610 0.94322 -0.45500
O 	O 	0.19630 0.75820 0.87660 -0.37400
O 	O 	0.92650 0.52400 0.39503 -0.39500
O 	O 	0.82170 0.43640 0.27510 -0.48800
O 	O 	0.81610 0.36310 0.55678 -0.48800
O 	O 	0.75820 0.19630 0.62340 -0.39600
O 	O 	0.47600 0.40250 0.39503 -0.42900
O 	O 	0.56360 0.38530 0.27510 -0.49800
O 	O 	0.63690 0.45300 0.55678 -0.49700
O 	O 	0.80370 0.56190 0.62340 -0.38300
O 	O 	0.59750 0.07350 0.39503 -0.44700
O 	O 	0.61470 0.17830 0.27510 -0.50300
O 	O 	0.54700 0.18390 0.55678 -0.49900
O 	O 	0.43810 0.24180 0.62340 -0.39500
