data_crystal

_cell_length_a 13.41400
_cell_length_b 13.41400
_cell_length_c 14.70600
_cell_angle_alpha 90.00000
_cell_angle_beta  90.00000
_cell_angle_gamma 120.00000

_symmetry_space_group_name_	'P 1'
_symmetry_space_group_name_H-M	'P 1'

loop_
_symmetry_equiv_pos_as_xyz
  x,y,z

loop_
_atom_site_label
_atom_site_type_symbol
_atom_site_fract_x
_atom_site_fract_y
_atom_site_fract_z
_atom_site_charge
Nd	Nd	0.66667 0.33334 0.66903 2.38900
Nd	Nd	0.33333 0.66666 0.83097 2.38900
Nd	Nd	0.33333 0.66666 0.33097 2.38200
Nd	Nd	0.66667 0.33334 0.16903 2.38200
Cu	Cu	0.50000 0.50000 -0.00000 0.90200
Cu	Cu	-0.00000 0.50000 -0.00000 0.87300
Cu	Cu	0.50000 0.00000 -0.00000 0.87200
Cu	Cu	-0.00000 0.50000 0.50000 0.90000
Cu	Cu	0.50000 0.50000 0.50000 0.92800
Cu	Cu	0.50000 0.00000 0.50000 0.89800
H 	H 	0.32570 0.35110 0.92250 0.09200
H 	H 	0.45840 0.26830 0.87230 0.16600
H 	H 	0.39830 0.31640 0.80890 0.14200
H 	H 	0.29270 0.25310 0.04740 0.15900
H 	H 	0.32080 0.18190 0.97770 0.21300
H 	H 	0.02540 0.67430 0.92250 0.04200
H 	H 	0.80990 0.54160 0.87230 0.17500
H 	H 	0.91810 0.60170 0.80890 0.17200
H 	H 	0.96040 0.70730 0.04740 0.20500
H 	H 	0.86110 0.67920 0.97770 0.24200
H 	H 	0.64890 0.97460 0.92250 0.15700
H 	H 	0.73170 0.19010 0.87230 0.17000
H 	H 	0.68360 0.08190 0.80890 0.13000
H 	H 	0.74690 0.03960 0.04740 0.14800
H 	H 	0.81810 0.13890 0.97770 0.22500
H 	H 	0.97460 0.64890 0.57750 0.15400
H 	H 	0.19010 0.73170 0.62770 0.15900
H 	H 	0.08190 0.68360 0.69110 0.12900
H 	H 	0.03960 0.74690 0.45260 0.10300
H 	H 	0.13890 0.81810 0.52230 0.12700
H 	H 	0.35110 0.32570 0.57750 0.09000
H 	H 	0.26830 0.45840 0.62770 0.15400
H 	H 	0.31640 0.39830 0.69110 0.14000
H 	H 	0.25310 0.29270 0.45260 0.11000
H 	H 	0.18190 0.32080 0.52230 0.10900
H 	H 	0.67430 0.02540 0.57750 0.03500
H 	H 	0.54160 0.80990 0.62770 0.16400
H 	H 	0.60170 0.91810 0.69110 0.17100
H 	H 	0.70730 0.96040 0.45260 0.16100
H 	H 	0.67920 0.86110 0.52230 0.14600
H 	H 	0.67430 0.64890 0.07750 0.09700
H 	H 	0.54160 0.73170 0.12770 0.15200
H 	H 	0.60170 0.68360 0.19110 0.15000
H 	H 	0.70730 0.74690 0.95260 0.09200
H 	H 	0.67920 0.81810 0.02230 0.04700
H 	H 	0.97460 0.32570 0.07750 0.15000
H 	H 	0.19010 0.45840 0.12770 0.14000
H 	H 	0.08190 0.39830 0.19110 0.11700
H 	H 	0.03960 0.29270 0.95260 0.04100
H 	H 	0.13890 0.32080 0.02230 0.00300
H 	H 	0.35110 0.02540 0.07750 0.03000
H 	H 	0.26830 0.80990 0.12770 0.14600
H 	H 	0.31640 0.91810 0.19110 0.16100
H 	H 	0.25310 0.96040 0.95260 0.10100
H 	H 	0.18190 0.86110 0.02230 0.02800
H 	H 	0.02540 0.35110 0.42250 0.03400
H 	H 	0.80990 0.26830 0.37230 0.15800
H 	H 	0.91810 0.31640 0.30890 0.16300
H 	H 	0.96040 0.25310 0.54740 0.14600
H 	H 	0.86110 0.18190 0.47770 0.12600
H 	H 	0.64890 0.67430 0.42250 0.09700
H 	H 	0.73170 0.54160 0.37230 0.16400
H 	H 	0.68360 0.60170 0.30890 0.15300
H 	H 	0.74690 0.70730 0.54740 0.13900
H 	H 	0.81810 0.67920 0.47770 0.14500
H 	H 	0.32570 0.97460 0.42250 0.15400
H 	H 	0.45840 0.19010 0.37230 0.15300
H 	H 	0.39830 0.08190 0.30890 0.12000
H 	H 	0.29270 0.03960 0.54740 0.08800
H 	H 	0.32080 0.13890 0.47770 0.10700
C 	C 	0.56140 0.43700 0.84190 0.52200
C 	C 	0.44750 0.33360 0.86180 -0.40200
C 	C 	0.35270 0.25510 0.00910 -0.50300
C 	C 	0.45320 0.27170 0.06870 0.46800
C 	C 	0.87560 0.43860 0.84190 0.53100
C 	C 	0.88610 0.55250 0.86180 -0.41400
C 	C 	0.90240 0.64730 0.00910 -0.52200
C 	C 	0.81850 0.54680 0.06870 0.48200
C 	C 	0.56300 0.12440 0.84190 0.51700
C 	C 	0.66640 0.11390 0.86180 -0.39700
C 	C 	0.74490 0.09760 0.00910 -0.49500
C 	C 	0.72830 0.18150 0.06870 0.46100
C 	C 	0.12440 0.56300 0.65810 0.51100
C 	C 	0.11390 0.66640 0.63820 -0.39300
C 	C 	0.09760 0.74490 0.49090 -0.29800
C 	C 	0.18150 0.72830 0.43130 0.41200
C 	C 	0.43700 0.56140 0.65810 0.51600
C 	C 	0.33360 0.44750 0.63820 -0.39700
C 	C 	0.25510 0.35270 0.49090 -0.29800
C 	C 	0.27170 0.45320 0.43130 0.41600
C 	C 	0.43860 0.87560 0.65810 0.52500
C 	C 	0.55250 0.88610 0.63820 -0.40900
C 	C 	0.64730 0.90240 0.49090 -0.33000
C 	C 	0.54680 0.81850 0.43130 0.43500
C 	C 	0.43860 0.56300 0.15810 0.51200
C 	C 	0.55250 0.66640 0.13820 -0.39500
C 	C 	0.64730 0.74490 0.99090 -0.12300
C 	C 	0.54680 0.72830 0.93130 0.37700
C 	C 	0.12440 0.56140 0.15810 0.50100
C 	C 	0.11390 0.44750 0.13820 -0.37700
C 	C 	0.09760 0.35270 0.99090 -0.07600
C 	C 	0.18150 0.45320 0.93130 0.35600
C 	C 	0.43700 0.87560 0.15810 0.51600
C 	C 	0.33360 0.88610 0.13820 -0.39400
C 	C 	0.25510 0.90240 0.99090 -0.11900
C 	C 	0.27170 0.81850 0.93130 0.38100
C 	C 	0.87560 0.43700 0.34190 0.52300
C 	C 	0.88610 0.33360 0.36180 -0.40400
C 	C 	0.90240 0.25510 0.50910 -0.31800
C 	C 	0.81850 0.27170 0.56870 0.43000
C 	C 	0.56300 0.43860 0.34190 0.52000
C 	C 	0.66640 0.55250 0.36180 -0.40500
C 	C 	0.74490 0.64730 0.50910 -0.32100
C 	C 	0.72830 0.54680 0.56870 0.42600
C 	C 	0.56140 0.12440 0.34190 0.50800
C 	C 	0.44750 0.11390 0.36180 -0.38700
C 	C 	0.35270 0.09760 0.50910 -0.28500
C 	C 	0.45320 0.18150 0.56870 0.40700
N 	N 	0.38880 0.34840 0.94180 -0.09800
N 	N 	0.95960 0.61120 0.94180 -0.04100
N 	N 	0.65160 0.04040 0.94180 -0.15000
N 	N 	0.04040 0.65160 0.55820 -0.20300
N 	N 	0.34840 0.38880 0.55820 -0.15400
N 	N 	0.61120 0.95960 0.55820 -0.08900
N 	N 	0.61120 0.65160 0.05820 -0.19700
N 	N 	0.04040 0.38880 0.05820 -0.25700
N 	N 	0.34840 0.95960 0.05820 -0.13900
N 	N 	0.95960 0.34840 0.44180 -0.09400
N 	N 	0.65160 0.61120 0.44180 -0.14900
N 	N 	0.38880 0.04040 0.44180 -0.20900
O 	O 	0.59830 0.52370 0.89460 -0.41900
O 	O 	0.61500 0.43610 0.77500 -0.56300
O 	O 	0.54750 0.36220 0.05710 -0.57600
O 	O 	0.43970 0.19790 0.12370 -0.46600
O 	O 	0.92540 0.40170 0.89460 -0.39200
O 	O 	0.82110 0.38500 0.77500 -0.55800
O 	O 	0.81470 0.45250 0.05710 -0.56700
O 	O 	0.75820 0.56030 0.12370 -0.45400
O 	O 	0.47630 0.07460 0.89460 -0.44300
O 	O 	0.56390 0.17890 0.77500 -0.57200
O 	O 	0.63780 0.18530 0.05710 -0.57800
O 	O 	0.80210 0.24180 0.12370 -0.45200
O 	O 	0.07460 0.47630 0.60540 -0.46100
O 	O 	0.17890 0.56390 0.72500 -0.57300
O 	O 	0.18530 0.63780 0.44290 -0.55000
O 	O 	0.24180 0.80210 0.37630 -0.42900
O 	O 	0.52370 0.59830 0.60540 -0.43700
O 	O 	0.43610 0.61500 0.72500 -0.56400
O 	O 	0.36220 0.54750 0.44290 -0.54700
O 	O 	0.19790 0.43970 0.37630 -0.44300
O 	O 	0.40170 0.92540 0.60540 -0.40800
O 	O 	0.38500 0.82110 0.72500 -0.55900
O 	O 	0.45250 0.81470 0.44290 -0.53900
O 	O 	0.56030 0.75820 0.37630 -0.43200
O 	O 	0.40170 0.47630 0.10540 -0.45100
O 	O 	0.38500 0.56390 0.22500 -0.56600
O 	O 	0.45250 0.63780 0.94290 -0.51400
O 	O 	0.56030 0.80210 0.87630 -0.40400
O 	O 	0.07460 0.59830 0.10540 -0.46700
O 	O 	0.17890 0.61500 0.22500 -0.57000
O 	O 	0.18530 0.54750 0.94290 -0.51500
O 	O 	0.24180 0.43970 0.87630 -0.41400
O 	O 	0.52370 0.92540 0.10540 -0.41400
O 	O 	0.43610 0.82110 0.22500 -0.55500
O 	O 	0.36220 0.81470 0.94290 -0.50600
O 	O 	0.19790 0.75820 0.87630 -0.41700
O 	O 	0.92540 0.52370 0.39460 -0.40800
O 	O 	0.82110 0.43610 0.27500 -0.55500
O 	O 	0.81470 0.36220 0.55710 -0.54000
O 	O 	0.75820 0.19790 0.62370 -0.44000
O 	O 	0.47630 0.40170 0.39460 -0.44200
O 	O 	0.56390 0.38500 0.27500 -0.56500
O 	O 	0.63780 0.45250 0.55710 -0.54900
O 	O 	0.80210 0.56030 0.62370 -0.42700
O 	O 	0.59830 0.07460 0.39460 -0.46000
O 	O 	0.61500 0.17890 0.27500 -0.56900
O 	O 	0.54750 0.18530 0.55710 -0.55000
O 	O 	0.43970 0.24180 0.62370 -0.43800
