data_crystal

_cell_length_a 13.34300
_cell_length_b 13.34300
_cell_length_c 14.51500
_cell_angle_alpha 90.00000
_cell_angle_beta  90.00000
_cell_angle_gamma 120.00000

_symmetry_space_group_name_	'P 1'
_symmetry_space_group_name_H-M	'P 1'

loop_
_symmetry_equiv_pos_as_xyz
  x,y,z

loop_
_atom_site_label
_atom_site_type_symbol
_atom_site_fract_x
_atom_site_fract_y
_atom_site_fract_z
_atom_site_charge
Gd	Gd	0.66667 0.33334 0.66800 1.69800
Gd	Gd	0.33333 0.66666 0.83200 1.69700
Gd	Gd	0.33333 0.66666 0.33200 1.69500
Gd	Gd	0.66667 0.33334 0.16800 1.69500
Cu	Cu	0.50000 0.50000 -0.00000 0.91900
Cu	Cu	0.00000 0.50000 1.00000 0.90600
Cu	Cu	0.50000 0.00000 -0.00000 0.88800
Cu	Cu	-0.00000 0.50000 0.50000 0.89800
Cu	Cu	0.50000 0.50000 0.50000 0.92800
Cu	Cu	0.50000 -0.00000 0.50000 0.89800
H 	H 	0.32600 0.35010 0.92210 0.09300
H 	H 	0.45780 0.26670 0.87090 0.16200
H 	H 	0.39740 0.31600 0.80750 0.14400
H 	H 	0.29270 0.25390 0.04990 0.13000
H 	H 	0.31750 0.17960 0.97940 0.14500
H 	H 	0.02410 0.67400 0.92210 0.03600
H 	H 	0.80890 0.54220 0.87090 0.17200
H 	H 	0.91860 0.60260 0.80750 0.17700
H 	H 	0.96120 0.70730 0.04990 0.18100
H 	H 	0.86210 0.68250 0.97940 0.18400
H 	H 	0.64990 0.97590 0.92210 0.15700
H 	H 	0.73330 0.19110 0.87090 0.16700
H 	H 	0.68400 0.08140 0.80750 0.13200
H 	H 	0.74610 0.03880 0.04990 0.12200
H 	H 	0.82040 0.13790 0.97940 0.16700
H 	H 	0.97590 0.64990 0.57790 0.15900
H 	H 	0.19110 0.73330 0.62910 0.16200
H 	H 	0.08140 0.68400 0.69250 0.13000
H 	H 	0.03880 0.74610 0.45010 0.10300
H 	H 	0.13790 0.82040 0.52060 0.12600
H 	H 	0.35010 0.32600 0.57790 0.09200
H 	H 	0.26670 0.45780 0.62910 0.15700
H 	H 	0.31600 0.39740 0.69250 0.14300
H 	H 	0.25390 0.29270 0.45010 0.11200
H 	H 	0.17960 0.31750 0.52060 0.10800
H 	H 	0.67400 0.02410 0.57790 0.03800
H 	H 	0.54220 0.80890 0.62910 0.16700
H 	H 	0.60260 0.91860 0.69250 0.17500
H 	H 	0.70730 0.96120 0.45010 0.16400
H 	H 	0.68250 0.86210 0.52060 0.14600
H 	H 	0.67400 0.64990 0.07790 0.09900
H 	H 	0.54220 0.73330 0.12910 0.16400
H 	H 	0.60260 0.68400 0.19250 0.15600
H 	H 	0.70730 0.74610 0.95010 0.12400
H 	H 	0.68250 0.82040 0.02060 0.11200
H 	H 	0.97590 0.32600 0.07790 0.15100
H 	H 	0.19110 0.45780 0.12910 0.15300
H 	H 	0.08140 0.39740 0.19250 0.12300
H 	H 	0.03880 0.29270 0.95010 0.07400
H 	H 	0.13790 0.31750 0.02060 0.07500
H 	H 	0.35010 0.02410 0.07790 0.03100
H 	H 	0.26670 0.80890 0.12910 0.15800
H 	H 	0.31600 0.91860 0.19250 0.16800
H 	H 	0.25390 0.96120 0.95010 0.13600
H 	H 	0.17960 0.86210 0.02060 0.09900
H 	H 	0.02410 0.35010 0.42210 0.03400
H 	H 	0.80890 0.26670 0.37090 0.16200
H 	H 	0.91860 0.31600 0.30750 0.16700
H 	H 	0.96120 0.25390 0.54990 0.15000
H 	H 	0.86210 0.17960 0.47940 0.12700
H 	H 	0.64990 0.67400 0.42210 0.10000
H 	H 	0.73330 0.54220 0.37090 0.16800
H 	H 	0.68400 0.60260 0.30750 0.15700
H 	H 	0.74610 0.70730 0.54990 0.14100
H 	H 	0.82040 0.68250 0.47940 0.14600
H 	H 	0.32600 0.97590 0.42210 0.15600
H 	H 	0.45780 0.19110 0.37090 0.15600
H 	H 	0.39740 0.08140 0.30750 0.12300
H 	H 	0.29270 0.03880 0.54990 0.08900
H 	H 	0.31750 0.13790 0.47940 0.10700
C 	C 	0.56200 0.43660 0.84080 0.46400
C 	C 	0.44710 0.33270 0.86080 -0.37700
C 	C 	0.35140 0.25380 0.01060 -0.36600
C 	C 	0.45290 0.27010 0.06900 0.39700
C 	C 	0.87460 0.43800 0.84080 0.47400
C 	C 	0.88560 0.55290 0.86080 -0.39200
C 	C 	0.90240 0.64860 0.01060 -0.40300
C 	C 	0.81720 0.54710 0.06900 0.41600
C 	C 	0.56340 0.12540 0.84080 0.45900
C 	C 	0.66730 0.11440 0.86080 -0.37300
C 	C 	0.74620 0.09760 0.01060 -0.37500
C 	C 	0.72990 0.18280 0.06900 0.39600
C 	C 	0.12540 0.56340 0.65920 0.45600
C 	C 	0.11440 0.66730 0.63920 -0.36900
C 	C 	0.09760 0.74620 0.48940 -0.29400
C 	C 	0.18280 0.72990 0.43100 0.37600
C 	C 	0.43660 0.56200 0.65920 0.46100
C 	C 	0.33270 0.44710 0.63920 -0.37400
C 	C 	0.25380 0.35140 0.48940 -0.29400
C 	C 	0.27010 0.45290 0.43100 0.38000
C 	C 	0.43800 0.87460 0.65920 0.47100
C 	C 	0.55290 0.88560 0.63920 -0.38800
C 	C 	0.64860 0.90240 0.48940 -0.32800
C 	C 	0.54710 0.81720 0.43100 0.39800
C 	C 	0.43800 0.56340 0.15920 0.46300
C 	C 	0.55290 0.66730 0.13920 -0.38000
C 	C 	0.64860 0.74620 0.98940 -0.25000
C 	C 	0.54710 0.72990 0.93100 0.37400
C 	C 	0.12540 0.56200 0.15920 0.45200
C 	C 	0.11440 0.44710 0.13920 -0.36300
C 	C 	0.09760 0.35140 0.98940 -0.21700
C 	C 	0.18280 0.45290 0.93100 0.35500
C 	C 	0.43660 0.87460 0.15920 0.46700
C 	C 	0.33270 0.88560 0.13920 -0.38000
C 	C 	0.25380 0.90240 0.98940 -0.25900
C 	C 	0.27010 0.81720 0.93100 0.38000
C 	C 	0.87460 0.43660 0.34080 0.46800
C 	C 	0.88560 0.33270 0.36080 -0.38300
C 	C 	0.90240 0.25380 0.51060 -0.31500
C 	C 	0.81720 0.27010 0.56900 0.39300
C 	C 	0.56340 0.43800 0.34080 0.46500
C 	C 	0.66730 0.55290 0.36080 -0.38300
C 	C 	0.74620 0.64860 0.51060 -0.31900
C 	C 	0.72990 0.54710 0.56900 0.39000
C 	C 	0.56200 0.12540 0.34080 0.45400
C 	C 	0.44710 0.11440 0.36080 -0.36400
C 	C 	0.35140 0.09760 0.51060 -0.28200
C 	C 	0.45290 0.18280 0.56900 0.37100
N 	N 	0.38920 0.34720 0.94180 -0.13600
N 	N 	0.95800 0.61080 0.94180 -0.07100
N 	N 	0.65280 0.04200 0.94180 -0.18300
N 	N 	0.04200 0.65280 0.55820 -0.20700
N 	N 	0.34720 0.38920 0.55820 -0.15600
N 	N 	0.61080 0.95800 0.55820 -0.09100
N 	N 	0.61080 0.65280 0.05820 -0.16700
N 	N 	0.04200 0.38920 0.05820 -0.22400
N 	N 	0.34720 0.95800 0.05820 -0.10500
N 	N 	0.95800 0.34720 0.44180 -0.09400
N 	N 	0.65280 0.61080 0.44180 -0.15000
N 	N 	0.38920 0.04200 0.44180 -0.21000
O 	O 	0.59880 0.52410 0.89240 -0.41100
O 	O 	0.61790 0.43520 0.77170 -0.45200
O 	O 	0.54930 0.36210 0.05840 -0.47200
O 	O 	0.43910 0.19520 0.12690 -0.38000
O 	O 	0.92530 0.40120 0.89240 -0.38400
O 	O 	0.81730 0.38210 0.77170 -0.44800
O 	O 	0.81280 0.45070 0.05840 -0.46700
O 	O 	0.75610 0.56090 0.12690 -0.37000
O 	O 	0.47590 0.07470 0.89240 -0.43400
O 	O 	0.56480 0.18270 0.77170 -0.46100
O 	O 	0.63790 0.18720 0.05840 -0.47600
O 	O 	0.80480 0.24390 0.12690 -0.36800
O 	O 	0.07470 0.47590 0.60760 -0.44200
O 	O 	0.18270 0.56480 0.72830 -0.46200
O 	O 	0.18720 0.63790 0.44160 -0.46500
O 	O 	0.24390 0.80480 0.37310 -0.35900
O 	O 	0.52410 0.59880 0.60760 -0.41700
O 	O 	0.43520 0.61790 0.72830 -0.45300
O 	O 	0.36210 0.54930 0.44160 -0.46200
O 	O 	0.19520 0.43910 0.37310 -0.37300
O 	O 	0.40120 0.92530 0.60760 -0.38800
O 	O 	0.38210 0.81730 0.72830 -0.44800
O 	O 	0.45070 0.81280 0.44160 -0.45400
O 	O 	0.56090 0.75610 0.37310 -0.36200
O 	O 	0.40120 0.47590 0.10760 -0.42500
O 	O 	0.38210 0.56480 0.22830 -0.45600
O 	O 	0.45070 0.63790 0.94160 -0.45200
O 	O 	0.56090 0.80480 0.87310 -0.34900
O 	O 	0.07470 0.59880 0.10760 -0.44400
O 	O 	0.18270 0.61790 0.22830 -0.46000
O 	O 	0.18720 0.54930 0.94160 -0.45600
O 	O 	0.24390 0.43910 0.87310 -0.36100
O 	O 	0.52410 0.92530 0.10760 -0.38800
O 	O 	0.43520 0.81730 0.22830 -0.44600
O 	O 	0.36210 0.81280 0.94160 -0.44400
O 	O 	0.19520 0.75610 0.87310 -0.36400
O 	O 	0.92530 0.52410 0.39240 -0.38600
O 	O 	0.81730 0.43520 0.27170 -0.44600
O 	O 	0.81280 0.36210 0.55840 -0.45400
O 	O 	0.75610 0.19520 0.62690 -0.36900
O 	O 	0.47590 0.40120 0.39240 -0.42200
O 	O 	0.56480 0.38210 0.27170 -0.45600
O 	O 	0.63790 0.45070 0.55840 -0.46300
O 	O 	0.80480 0.56090 0.62690 -0.35600
O 	O 	0.59880 0.07470 0.39240 -0.44000
O 	O 	0.61790 0.18270 0.27170 -0.46000
O 	O 	0.54930 0.18720 0.55840 -0.46400
O 	O 	0.43910 0.24390 0.62690 -0.36800
