data_crystal

_cell_length_a 16.73720
_cell_length_b 16.73720
_cell_length_c 16.73720
_cell_angle_alpha 90.00000
_cell_angle_beta  90.00000
_cell_angle_gamma 90.00000

_symmetry_space_group_name_	'P 1'
_symmetry_space_group_name_H-M	'P 1'

loop_
_symmetry_equiv_pos_as_xyz
  x,y,z

loop_
_atom_site_label
_atom_site_type_symbol
_atom_site_fract_x
_atom_site_fract_y
_atom_site_fract_z
_atom_site_charge
O 	O 	0.69500 0.97880 0.40680 -0.46900
O 	O 	0.19500 0.47880 0.90680 -0.58900
O 	O 	0.30500 0.02120 0.40680 -1.02800
O 	O 	0.80500 0.52120 0.90680 -0.53200
O 	O 	0.30500 0.97880 0.59320 -0.48200
O 	O 	0.80500 0.47880 0.09320 -0.88000
O 	O 	0.69500 0.02120 0.59320 -0.96400
O 	O 	0.19500 0.52120 0.09320 -0.94100
O 	O 	0.40680 0.69500 0.97880 -0.46900
O 	O 	0.90680 0.19500 0.47880 -0.58900
O 	O 	0.40680 0.30500 0.02120 -1.02800
O 	O 	0.90680 0.80500 0.52120 -0.53200
O 	O 	0.59320 0.30500 0.97880 -0.48200
O 	O 	0.09320 0.80500 0.47880 -0.88000
O 	O 	0.59320 0.69500 0.02120 -0.96400
O 	O 	0.09320 0.19500 0.52120 -0.94100
O 	O 	0.97880 0.40680 0.69500 -0.46900
O 	O 	0.47880 0.90680 0.19500 -0.58900
O 	O 	0.02120 0.40680 0.30500 -1.02800
O 	O 	0.52120 0.90680 0.80500 -0.53200
O 	O 	0.97880 0.59320 0.30500 -0.48200
O 	O 	0.47880 0.09320 0.80500 -0.88000
O 	O 	0.02120 0.59320 0.69500 -0.96400
O 	O 	0.52120 0.09320 0.19500 -0.94100
O 	O 	0.97880 0.69500 0.40680 -0.46900
O 	O 	0.47880 0.19500 0.90680 -0.58900
O 	O 	0.02120 0.30500 0.40680 -1.02800
O 	O 	0.52120 0.80500 0.90680 -0.53200
O 	O 	0.97880 0.30500 0.59320 -0.48200
O 	O 	0.47880 0.80500 0.09320 -0.88000
O 	O 	0.02120 0.69500 0.59320 -0.96400
O 	O 	0.52120 0.19500 0.09320 -0.94100
O 	O 	0.69500 0.40680 0.97880 -0.46900
O 	O 	0.19500 0.90680 0.47880 -0.58900
O 	O 	0.30500 0.40680 0.02120 -1.02800
O 	O 	0.80500 0.90680 0.52120 -0.53200
O 	O 	0.30500 0.59320 0.97880 -0.48200
O 	O 	0.80500 0.09320 0.47880 -0.88000
O 	O 	0.69500 0.59320 0.02120 -0.96400
O 	O 	0.19500 0.09320 0.52120 -0.94100
O 	O 	0.40680 0.97880 0.69500 -0.46900
O 	O 	0.90680 0.47880 0.19500 -0.58900
O 	O 	0.40680 0.02120 0.30500 -1.02800
O 	O 	0.90680 0.52120 0.80500 -0.53200
O 	O 	0.59320 0.97880 0.30500 -0.48200
O 	O 	0.09320 0.47880 0.80500 -0.88000
O 	O 	0.59320 0.02120 0.69500 -0.96400
O 	O 	0.09320 0.52120 0.19500 -0.94100
Al	Al	0.50000 0.00000 0.50000 2.35200
Al	Al	-0.00000 0.50000 -0.00000 2.31800
Al	Al	0.50000 0.50000 -0.00000 2.35200
Al	Al	0.00000 0.00000 0.50000 2.31800
Al	Al	0.00000 0.50000 0.50000 2.35200
Al	Al	0.50000 0.00000 -0.00000 2.31800
Al	Al	0.75000 0.00000 0.50000 2.35100
Al	Al	0.25000 0.00000 0.50000 2.34900
Al	Al	0.50000 0.75000 -0.00000 2.35100
Al	Al	0.50000 0.25000 -0.00000 2.34900
Al	Al	-0.00000 0.50000 0.75000 2.35100
Al	Al	-0.00000 0.50000 0.25000 2.34900
Al	Al	-0.00000 0.75000 0.50000 2.35100
Al	Al	-0.00000 0.25000 0.50000 2.34900
Al	Al	0.75000 0.50000 -0.00000 2.35100
Al	Al	0.25000 0.50000 -0.00000 2.34900
Al	Al	0.50000 -0.00000 0.75000 2.35100
Al	Al	0.50000 0.00000 0.25000 2.34900
P 	P 	0.63254 0.93240 0.36746 0.69600
O 	O 	0.64440 0.84690 0.35560 -0.21000
O 	O 	0.55800 0.93270 0.44200 -0.54200
P 	P 	0.13254 0.43240 0.86746 0.71300
O 	O 	0.14440 0.34690 0.85560 -0.30300
O 	O 	0.05800 0.43270 0.94200 -0.74400
P 	P 	0.36746 0.06760 0.36746 0.72200
O 	O 	0.35560 0.15310 0.35560 -0.36300
O 	O 	0.44200 0.06730 0.44200 -0.93700
P 	P 	0.86746 0.56760 0.86746 0.70500
O 	O 	0.85560 0.65310 0.85560 0.00100
O 	O 	0.94200 0.56730 0.94200 -0.24500
P 	P 	0.36746 0.93240 0.63254 0.69600
O 	O 	0.35560 0.84690 0.64440 -0.21000
O 	O 	0.44200 0.93270 0.55800 -0.54200
P 	P 	0.86746 0.43240 0.13254 0.71300
O 	O 	0.85560 0.34690 0.14440 -0.30300
O 	O 	0.94200 0.43270 0.05800 -0.74400
P 	P 	0.63254 0.06760 0.63254 0.73800
O 	O 	0.64440 0.15310 0.64440 -0.28000
O 	O 	0.55800 0.06730 0.55800 -0.93600
P 	P 	0.13254 0.56760 0.13254 0.71800
O 	O 	0.14440 0.65310 0.14440 -0.45500
O 	O 	0.05800 0.56730 0.05800 -1.18800
P 	P 	0.36746 0.63254 0.93240 0.69600
O 	O 	0.35560 0.64440 0.84690 -0.21000
O 	O 	0.44200 0.55800 0.93270 -0.54200
P 	P 	0.86746 0.13254 0.43240 0.71300
O 	O 	0.85560 0.14440 0.34690 -0.30300
O 	O 	0.94200 0.05800 0.43270 -0.74400
P 	P 	0.36746 0.36746 0.06760 0.72200
O 	O 	0.35560 0.35560 0.15310 -0.36300
O 	O 	0.44200 0.44200 0.06730 -0.93700
P 	P 	0.86746 0.86746 0.56760 0.70500
O 	O 	0.85560 0.85560 0.65310 0.00100
O 	O 	0.94200 0.94200 0.56730 -0.24500
P 	P 	0.63254 0.36746 0.93240 0.69600
O 	O 	0.64440 0.35560 0.84690 -0.21000
O 	O 	0.55800 0.44200 0.93270 -0.54200
P 	P 	0.13254 0.86746 0.43240 0.71300
O 	O 	0.14440 0.85560 0.34690 -0.30300
O 	O 	0.05800 0.94200 0.43270 -0.74400
P 	P 	0.63254 0.63254 0.06760 0.73800
O 	O 	0.64440 0.64440 0.15310 -0.28000
O 	O 	0.55800 0.55800 0.06730 -0.93600
P 	P 	0.13254 0.13254 0.56760 0.71800
O 	O 	0.14440 0.14440 0.65310 -0.45500
O 	O 	0.05800 0.05800 0.56730 -1.18800
P 	P 	0.93240 0.36746 0.63254 0.69600
O 	O 	0.84690 0.35560 0.64440 -0.21000
O 	O 	0.93270 0.44200 0.55800 -0.54200
P 	P 	0.43240 0.86746 0.13254 0.71300
O 	O 	0.34690 0.85560 0.14440 -0.30300
O 	O 	0.43270 0.94200 0.05800 -0.74400
P 	P 	0.06760 0.36746 0.36746 0.72200
O 	O 	0.15310 0.35560 0.35560 -0.36300
O 	O 	0.06730 0.44200 0.44200 -0.93700
P 	P 	0.56760 0.86746 0.86746 0.70500
O 	O 	0.65310 0.85560 0.85560 0.00100
O 	O 	0.56730 0.94200 0.94200 -0.24500
P 	P 	0.93240 0.63254 0.36746 0.69600
O 	O 	0.84690 0.64440 0.35560 -0.21000
O 	O 	0.93270 0.55800 0.44200 -0.54200
P 	P 	0.43240 0.13254 0.86746 0.71300
O 	O 	0.34690 0.14440 0.85560 -0.30300
O 	O 	0.43270 0.05800 0.94200 -0.74400
P 	P 	0.06760 0.63254 0.63254 0.73800
O 	O 	0.15310 0.64440 0.64440 -0.28000
O 	O 	0.06730 0.55800 0.55800 -0.93600
P 	P 	0.56760 0.13254 0.13254 0.71800
O 	O 	0.65310 0.14440 0.14440 -0.45500
O 	O 	0.56730 0.05800 0.05800 -1.18800
