data_crystal

_cell_length_a 16.79500
_cell_length_b 16.79500
_cell_length_c 16.79500
_cell_angle_alpha 90.00000
_cell_angle_beta  90.00000
_cell_angle_gamma 90.00000

_symmetry_space_group_name_	'P 1'
_symmetry_space_group_name_H-M	'P 1'

loop_
_symmetry_equiv_pos_as_xyz
  x,y,z

loop_
_atom_site_label
_atom_site_type_symbol
_atom_site_fract_x
_atom_site_fract_y
_atom_site_fract_z
_atom_site_charge
O 	O 	0.09490 0.52530 0.19540 -0.89900
O 	O 	0.59490 0.02530 0.69540 -0.91700
O 	O 	0.90510 0.47470 0.19540 -0.55700
O 	O 	0.40510 0.97470 0.69540 -0.44100
O 	O 	0.90510 0.52530 0.80460 -0.50100
O 	O 	0.40510 0.02530 0.30460 -0.98600
O 	O 	0.09490 0.47470 0.80460 -0.84000
O 	O 	0.59490 0.97470 0.30460 -0.45400
O 	O 	0.19540 0.09490 0.52530 -0.89800
O 	O 	0.69540 0.59490 0.02530 -0.91600
O 	O 	0.19540 0.90510 0.47470 -0.55600
O 	O 	0.69540 0.40510 0.97470 -0.44000
O 	O 	0.80460 0.90510 0.52530 -0.50000
O 	O 	0.30460 0.40510 0.02530 -0.98500
O 	O 	0.80460 0.09490 0.47470 -0.84000
O 	O 	0.30460 0.59490 0.97470 -0.45400
O 	O 	0.52530 0.19540 0.09490 -0.89800
O 	O 	0.02530 0.69540 0.59490 -0.91600
O 	O 	0.47470 0.19540 0.90510 -0.55600
O 	O 	0.97470 0.69540 0.40510 -0.44000
O 	O 	0.52530 0.80460 0.90510 -0.50000
O 	O 	0.02530 0.30460 0.40510 -0.98500
O 	O 	0.47470 0.80460 0.09490 -0.84000
O 	O 	0.97470 0.30460 0.59490 -0.45400
O 	O 	0.52530 0.09490 0.19540 -0.89800
O 	O 	0.02530 0.59490 0.69540 -0.91600
O 	O 	0.47470 0.90510 0.19540 -0.55600
O 	O 	0.97470 0.40510 0.69540 -0.44000
O 	O 	0.52530 0.90510 0.80460 -0.50000
O 	O 	0.02530 0.40510 0.30460 -0.98500
O 	O 	0.47470 0.09490 0.80460 -0.84000
O 	O 	0.97470 0.59490 0.30460 -0.45400
O 	O 	0.09490 0.19540 0.52530 -0.89800
O 	O 	0.59490 0.69540 0.02530 -0.91600
O 	O 	0.90510 0.19540 0.47470 -0.55600
O 	O 	0.40510 0.69540 0.97470 -0.44000
O 	O 	0.90510 0.80460 0.52530 -0.50000
O 	O 	0.40510 0.30460 0.02530 -0.98500
O 	O 	0.09490 0.80460 0.47470 -0.84000
O 	O 	0.59490 0.30460 0.97470 -0.45400
O 	O 	0.19540 0.52530 0.09490 -0.89800
O 	O 	0.69540 0.02530 0.59490 -0.91600
O 	O 	0.19540 0.47470 0.90510 -0.55600
O 	O 	0.69540 0.97470 0.40510 -0.44000
O 	O 	0.80460 0.52530 0.90510 -0.50000
O 	O 	0.30460 0.02530 0.40510 -0.98500
O 	O 	0.80460 0.47470 0.09490 -0.84000
O 	O 	0.30460 0.97470 0.59490 -0.45400
Al	Al	-0.00000 0.50000 0.25000 2.34300
Al	Al	0.00000 0.50000 0.75000 2.34500
Al	Al	0.50000 0.00000 0.25000 2.34300
Al	Al	0.25000 0.00000 0.50000 2.34300
Al	Al	0.75000 0.00000 0.50000 2.34500
Al	Al	0.25000 0.50000 -0.00000 2.34300
Al	Al	0.50000 0.25000 -0.00000 2.34300
Al	Al	0.50000 0.75000 -0.00000 2.34500
Al	Al	-0.00000 0.25000 0.50000 2.34300
Al	Al	0.50000 -0.00000 0.75000 2.34500
Al	Al	0.00000 0.75000 0.50000 2.34500
Al	Al	0.75000 0.50000 -0.00000 2.34500
Al	Al	-0.00000 0.50000 -0.00000 2.32100
Al	Al	0.50000 0.00000 0.50000 2.35500
Al	Al	0.00000 0.00000 0.50000 2.32100
Al	Al	0.50000 0.50000 -0.00000 2.35500
Al	Al	0.50000 0.00000 -0.00000 2.32100
Al	Al	0.00000 0.50000 0.50000 2.35500
P 	P 	0.12243 0.57089 0.12243 0.69300
O 	O 	0.14180 0.65540 0.14180 -0.43700
O 	O 	0.05760 0.56660 0.05760 -1.25600
P 	P 	0.62243 0.07089 0.62243 0.70600
O 	O 	0.64180 0.15540 0.64180 -0.25800
O 	O 	0.55760 0.06660 0.55760 -1.00400
P 	P 	0.87757 0.42911 0.12243 0.69000
O 	O 	0.85820 0.34460 0.14180 -0.28600
O 	O 	0.94240 0.43340 0.05760 -0.81000
P 	P 	0.37757 0.92911 0.62243 0.67500
O 	O 	0.35820 0.84460 0.64180 -0.19500
O 	O 	0.44240 0.93340 0.55760 -0.60600
P 	P 	0.87757 0.57089 0.87757 0.68400
O 	O 	0.85820 0.65540 0.85820 0.02000
O 	O 	0.94240 0.56660 0.94240 -0.31200
P 	P 	0.37757 0.07089 0.37757 0.70500
O 	O 	0.35820 0.15540 0.35820 -0.34200
O 	O 	0.44240 0.06660 0.44240 -1.00700
P 	P 	0.12243 0.42911 0.87757 0.69000
O 	O 	0.14180 0.34460 0.85820 -0.28600
O 	O 	0.05760 0.43340 0.94240 -0.81000
P 	P 	0.62243 0.92911 0.37757 0.67500
O 	O 	0.64180 0.84460 0.35820 -0.19500
O 	O 	0.55760 0.93340 0.44240 -0.60600
P 	P 	0.12243 0.12243 0.57089 0.69300
O 	O 	0.14180 0.14180 0.65540 -0.43700
O 	O 	0.05760 0.05760 0.56660 -1.25600
P 	P 	0.62243 0.62243 0.07089 0.70600
O 	O 	0.64180 0.64180 0.15540 -0.25800
O 	O 	0.55760 0.55760 0.06660 -1.00400
P 	P 	0.12243 0.87757 0.42911 0.69000
O 	O 	0.14180 0.85820 0.34460 -0.28600
O 	O 	0.05760 0.94240 0.43340 -0.81000
P 	P 	0.62243 0.37757 0.92911 0.67500
O 	O 	0.64180 0.35820 0.84460 -0.19500
O 	O 	0.55760 0.44240 0.93340 -0.60600
P 	P 	0.87757 0.87757 0.57089 0.68400
O 	O 	0.85820 0.85820 0.65540 0.02000
O 	O 	0.94240 0.94240 0.56660 -0.31200
P 	P 	0.37757 0.37757 0.07089 0.70500
O 	O 	0.35820 0.35820 0.15540 -0.34200
O 	O 	0.44240 0.44240 0.06660 -1.00700
P 	P 	0.87757 0.12243 0.42911 0.69000
O 	O 	0.85820 0.14180 0.34460 -0.28600
O 	O 	0.94240 0.05760 0.43340 -0.81000
P 	P 	0.37757 0.62243 0.92911 0.67500
O 	O 	0.35820 0.64180 0.84460 -0.19500
O 	O 	0.44240 0.55760 0.93340 -0.60600
P 	P 	0.57089 0.12243 0.12243 0.69300
O 	O 	0.65540 0.14180 0.14180 -0.43700
O 	O 	0.56660 0.05760 0.05760 -1.25600
P 	P 	0.07089 0.62243 0.62243 0.70600
O 	O 	0.15540 0.64180 0.64180 -0.25800
O 	O 	0.06660 0.55760 0.55760 -1.00400
P 	P 	0.42911 0.12243 0.87757 0.69000
O 	O 	0.34460 0.14180 0.85820 -0.28600
O 	O 	0.43340 0.05760 0.94240 -0.81000
P 	P 	0.92911 0.62243 0.37757 0.67500
O 	O 	0.84460 0.64180 0.35820 -0.19500
O 	O 	0.93340 0.55760 0.44240 -0.60600
P 	P 	0.57089 0.87757 0.87757 0.68400
O 	O 	0.65540 0.85820 0.85820 0.02000
O 	O 	0.56660 0.94240 0.94240 -0.31200
P 	P 	0.07089 0.37757 0.37757 0.70500
O 	O 	0.15540 0.35820 0.35820 -0.34200
O 	O 	0.06660 0.44240 0.44240 -1.00700
P 	P 	0.42911 0.87757 0.12243 0.69000
O 	O 	0.34460 0.85820 0.14180 -0.28600
O 	O 	0.43340 0.94240 0.05760 -0.81000
P 	P 	0.92911 0.37757 0.62243 0.67500
O 	O 	0.84460 0.35820 0.64180 -0.19500
O 	O 	0.93340 0.44240 0.55760 -0.60600
