data_crystal

_cell_length_a 20.26990
_cell_length_b 27.16420
_cell_length_c 27.16420
_cell_angle_alpha 65.97110
_cell_angle_beta  75.59740
_cell_angle_gamma 104.40300

_symmetry_space_group_name_	'P 1'
_symmetry_space_group_name_H-M	'P 1'

loop_
_symmetry_equiv_pos_as_xyz
  x,y,z

loop_
_atom_site_label
_atom_site_type_symbol
_atom_site_fract_x
_atom_site_fract_y
_atom_site_fract_z
_atom_site_charge
Cu	Cu	0.03418 0.29244 0.20614 0.90200
Cu	Cu	0.99363 0.19488 0.30715 0.91800
Cu	Cu	0.26735 0.97773 0.21114 0.92100
Cu	Cu	0.20799 0.97423 0.31276 0.91200
Cu	Cu	0.24032 0.20614 0.50142 0.90000
Cu	Cu	0.30078 0.30715 0.49797 0.91800
Cu	Cu	0.47849 0.21114 0.81113 0.92200
Cu	Cu	0.52075 0.31276 0.71301 0.91200
Cu	Cu	0.74174 0.50142 0.29244 0.90000
Cu	Cu	0.79875 0.49797 0.19488 0.91800
Cu	Cu	0.28962 0.81113 0.97773 0.92100
Cu	Cu	0.23376 0.71301 0.97423 0.91200
Cu	Cu	0.96582 0.70756 0.79386 0.90100
Cu	Cu	0.00637 0.80512 0.69285 0.91700
Cu	Cu	0.73265 0.02227 0.78886 0.92100
Cu	Cu	0.79201 0.02577 0.68724 0.91200
Cu	Cu	0.75968 0.79386 0.49858 0.90000
Cu	Cu	0.69922 0.69285 0.50203 0.91800
Cu	Cu	0.52151 0.78886 0.18887 0.92200
Cu	Cu	0.47925 0.68724 0.28699 0.91200
Cu	Cu	0.25826 0.49858 0.70756 0.90000
Cu	Cu	0.20125 0.50203 0.80512 0.91800
Cu	Cu	0.71038 0.18887 0.02227 0.92100
Cu	Cu	0.76624 0.28699 0.02577 0.91200
H 	H 	0.13050 0.11370 0.24520 0.05900
H 	H 	0.25080 0.13080 0.09580 0.08000
H 	H 	0.15640 0.24720 0.09760 0.08600
H 	H 	0.33030 0.24490 0.92760 0.08100
H 	H 	0.36510 0.37930 0.77220 0.05900
H 	H 	0.21630 0.34760 0.92560 0.07900
H 	H 	0.15400 0.26060 0.36690 0.06900
H 	H 	0.27620 0.41180 0.34680 0.08600
H 	H 	0.19310 0.41330 0.22920 0.09200
H 	H 	0.34440 0.58230 0.23680 0.09400
H 	H 	0.38020 0.73670 0.11010 0.07500
H 	H 	0.26180 0.58960 0.11780 0.09500
H 	H 	0.37570 0.24520 0.64110 0.05900
H 	H 	0.34660 0.09580 0.77340 0.08000
H 	H 	0.25400 0.09760 0.65520 0.08600
H 	H 	0.25790 0.92760 0.82750 0.08100
H 	H 	0.13730 0.77220 0.84850 0.05900
H 	H 	0.14190 0.92560 0.72680 0.07800
H 	H 	0.52090 0.36690 0.37250 0.06800
H 	H 	0.62300 0.34680 0.24140 0.08600
H 	H 	0.42230 0.22920 0.35750 0.09200
H 	H 	0.58120 0.23680 0.18090 0.09400
H 	H 	0.49030 0.11010 0.15320 0.07500
H 	H 	0.37960 0.11780 0.29260 0.09500
H 	H 	0.01680 0.64110 0.11370 0.05900
H 	H 	0.12000 0.77340 0.13080 0.07900
H 	H 	0.90920 0.65520 0.24720 0.08600
H 	H 	0.08540 0.82750 0.24490 0.08100
H 	H 	0.98580 0.84850 0.37930 0.05900
H 	H 	0.86870 0.72680 0.34760 0.07900
H 	H 	0.89340 0.37250 0.26060 0.06800
H 	H 	0.86440 0.24140 0.41180 0.08600
H 	H 	0.77980 0.35750 0.41330 0.09200
H 	H 	0.76210 0.18090 0.58230 0.09400
H 	H 	0.64350 0.15320 0.73670 0.07500
H 	H 	0.67220 0.29260 0.58960 0.09500
H 	H 	0.86950 0.88630 0.75480 0.05900
H 	H 	0.74920 0.86920 0.90420 0.08000
H 	H 	0.84360 0.75280 0.90240 0.08600
H 	H 	0.66970 0.75510 0.07240 0.08100
H 	H 	0.63490 0.62070 0.22780 0.05900
H 	H 	0.78370 0.65240 0.07440 0.07900
H 	H 	0.84600 0.73940 0.63310 0.06900
H 	H 	0.72380 0.58820 0.65320 0.08600
H 	H 	0.80690 0.58670 0.77080 0.09200
H 	H 	0.65560 0.41770 0.76320 0.09400
H 	H 	0.61980 0.26330 0.88990 0.07500
H 	H 	0.73820 0.41040 0.88220 0.09500
H 	H 	0.62430 0.75480 0.35890 0.05900
H 	H 	0.65340 0.90420 0.22660 0.08000
H 	H 	0.74600 0.90240 0.34480 0.08600
H 	H 	0.74210 0.07240 0.17250 0.08100
H 	H 	0.86270 0.22780 0.15150 0.05900
H 	H 	0.85810 0.07440 0.27320 0.07800
H 	H 	0.47910 0.63310 0.62750 0.06800
H 	H 	0.37700 0.65320 0.75860 0.08600
H 	H 	0.57770 0.77080 0.64250 0.09200
H 	H 	0.41880 0.76320 0.81910 0.09400
H 	H 	0.50970 0.88990 0.84680 0.07500
H 	H 	0.62040 0.88220 0.70740 0.09500
H 	H 	0.98320 0.35890 0.88630 0.05900
H 	H 	0.88000 0.22660 0.86920 0.07900
H 	H 	0.09080 0.34480 0.75280 0.08600
H 	H 	0.91460 0.17250 0.75510 0.08100
H 	H 	0.01420 0.15150 0.62070 0.05900
H 	H 	0.13130 0.27320 0.65240 0.07900
H 	H 	0.10660 0.62750 0.73940 0.06800
H 	H 	0.13560 0.75860 0.58820 0.08600
H 	H 	0.22020 0.64250 0.58670 0.09200
H 	H 	0.23790 0.81910 0.41770 0.09400
H 	H 	0.35650 0.84680 0.26330 0.07500
H 	H 	0.32780 0.70740 0.41040 0.09500
C 	C 	0.10180 0.21070 0.20660 0.33500
C 	C 	0.14560 0.18610 0.17690 -0.04800
C 	C 	0.15400 0.13530 0.20470 0.00700
C 	C 	0.19410 0.11430 0.17770 -0.06200
C 	C 	0.20190 0.05790 0.20950 0.35800
C 	C 	0.22410 0.14440 0.11660 -0.06600
C 	C 	0.21300 0.19450 0.08810 0.09500
C 	C 	0.16850 0.21590 0.11730 -0.06800
C 	C 	0.27670 0.29360 0.93850 0.09500
C 	C 	0.32020 0.27670 0.90600 -0.05700
C 	C 	0.35250 0.30230 0.84190 -0.07500
C 	C 	0.40930 0.29330 0.80830 0.38400
C 	C 	0.33920 0.35520 0.81260 0.00700
C 	C 	0.28820 0.37220 0.84280 -0.05000
C 	C 	0.26930 0.42440 0.81340 0.34300
C 	C 	0.25310 0.33970 0.90570 -0.06300
C 	C 	0.11760 0.30120 0.27640 0.32700
C 	C 	0.16590 0.33480 0.29380 -0.03500
C 	C 	0.17720 0.30140 0.34500 -0.01500
C 	C 	0.22320 0.33220 0.35990 -0.03100
C 	C 	0.23900 0.31190 0.41670 0.38000
C 	C 	0.24890 0.39140 0.33330 -0.10100
C 	C 	0.23330 0.42010 0.28580 0.11100
C 	C 	0.19680 0.39230 0.26460 -0.09000
C 	C 	0.30040 0.57460 0.17990 0.12500
C 	C 	0.34010 0.60470 0.20220 -0.09400
C 	C 	0.37270 0.66440 0.17640 -0.01600
C 	C 	0.42070 0.69590 0.19890 0.34200
C 	C 	0.36010 0.69590 0.12840 -0.04100
C 	C 	0.31420 0.66650 0.10380 0.00000
C 	C 	0.30510 0.70910 0.04920 0.30800
C 	C 	0.28950 0.60890 0.13200 -0.10700
C 	C 	0.30840 0.20660 0.58270 0.33600
C 	C 	0.32250 0.17690 0.63700 -0.04800
C 	C 	0.35870 0.20470 0.66000 0.00700
C 	C 	0.37180 0.17770 0.70800 -0.06200
C 	C 	0.41140 0.20950 0.73260 0.35800
C 	C 	0.34070 0.11660 0.73900 -0.06600
C 	C 	0.30110 0.08810 0.71740 0.09500
C 	C 	0.28580 0.11730 0.66680 -0.06800
C 	C 	0.21520 0.93850 0.76790 0.09500
C 	C 	0.22620 0.90600 0.81730 -0.05700
C 	C 	0.19440 0.84190 0.85580 -0.07500
C 	C 	0.21760 0.80830 0.89840 0.38400
C 	C 	0.15180 0.81260 0.83220 0.00700
C 	C 	0.13100 0.84280 0.78500 -0.05100
C 	C 	0.08270 0.81340 0.76220 0.34300
C 	C 	0.15880 0.90570 0.75460 -0.06300
C 	C 	0.39400 0.27640 0.42240 0.32700
C 	C 	0.45970 0.29380 0.37140 -0.03600
C 	C 	0.52220 0.34500 0.35360 -0.01500
C 	C 	0.58310 0.35990 0.30790 -0.03100
C 	C 	0.65570 0.41670 0.27140 0.38000
C 	C 	0.58220 0.33330 0.27530 -0.10100
C 	C 	0.51910 0.28580 0.29410 0.11100
C 	C 	0.46140 0.26460 0.34310 -0.09000
C 	C 	0.48030 0.17990 0.24550 0.12500
C 	C 	0.54230 0.20220 0.19310 -0.09400
C 	C 	0.54910 0.17640 0.15920 -0.01600
C 	C 	0.61960 0.19890 0.10520 0.34200
C 	C 	0.48850 0.12840 0.17570 -0.04100
C 	C 	0.41800 0.10380 0.22970 0.00000
C 	C 	0.35430 0.04920 0.24170 0.30800
C 	C 	0.42150 0.13200 0.25910 -0.10700
C 	C 	0.89110 0.58270 0.21070 0.33600
C 	C 	0.95950 0.63700 0.18610 -0.04900
C 	C 	0.01870 0.66000 0.13530 0.00800
C 	C 	0.07980 0.70800 0.11430 -0.06300
C 	C 	0.14400 0.73260 0.05790 0.35800
C 	C 	0.07970 0.73900 0.14440 -0.06500
C 	C 	0.01850 0.71740 0.19450 0.09400
C 	C 	0.95260 0.66680 0.21590 -0.06700
C 	C 	0.98310 0.76790 0.29360 0.09600
C 	C 	0.04350 0.81730 0.27670 -0.05800
C 	C 	0.05020 0.85580 0.30230 -0.07600
C 	C 	0.11600 0.89840 0.29330 0.38400
C 	C 	0.98400 0.83220 0.35520 0.00800
C 	C 	0.91600 0.78500 0.37220 -0.05000
C 	C 	0.84490 0.76220 0.42440 0.34300
C 	C 	0.91340 0.75460 0.33970 -0.06300
C 	C 	0.81640 0.42240 0.30120 0.32700
C 	C 	0.83110 0.37140 0.33480 -0.03600
C 	C 	0.87580 0.35360 0.30140 -0.01500
C 	C 	0.89100 0.30790 0.33220 -0.03100
C 	C 	0.92710 0.27140 0.31190 0.38000
C 	C 	0.85750 0.27530 0.39140 -0.10100
C 	C 	0.81320 0.29410 0.42010 0.11100
C 	C 	0.80450 0.34310 0.39230 -0.09000
C 	C 	0.72580 0.24550 0.57460 0.12500
C 	C 	0.73540 0.19310 0.60470 -0.09400
C 	C 	0.70830 0.15920 0.66440 -0.01600
C 	C 	0.72480 0.10520 0.69590 0.34200
C 	C 	0.66420 0.17570 0.69590 -0.04100
C 	C 	0.64770 0.22970 0.66650 0.00000
C 	C 	0.59600 0.24170 0.70910 0.30800
C 	C 	0.68060 0.25910 0.60890 -0.10700
C 	C 	0.89820 0.78930 0.79340 0.33500
C 	C 	0.85440 0.81390 0.82310 -0.04800
C 	C 	0.84600 0.86470 0.79530 0.00700
C 	C 	0.80590 0.88570 0.82230 -0.06200
C 	C 	0.79810 0.94210 0.79050 0.35800
C 	C 	0.77590 0.85560 0.88340 -0.06600
C 	C 	0.78700 0.80550 0.91190 0.09500
C 	C 	0.83150 0.78410 0.88270 -0.06800
C 	C 	0.72330 0.70640 0.06150 0.09500
C 	C 	0.67980 0.72330 0.09400 -0.05700
C 	C 	0.64750 0.69770 0.15810 -0.07500
C 	C 	0.59070 0.70670 0.19170 0.38400
C 	C 	0.66080 0.64480 0.18740 0.00700
C 	C 	0.71180 0.62780 0.15720 -0.05000
C 	C 	0.73070 0.57560 0.18660 0.34300
C 	C 	0.74690 0.66030 0.09430 -0.06300
C 	C 	0.88240 0.69880 0.72360 0.32700
C 	C 	0.83410 0.66520 0.70620 -0.03500
C 	C 	0.82280 0.69860 0.65500 -0.01500
C 	C 	0.77680 0.66780 0.64010 -0.03100
C 	C 	0.76100 0.68810 0.58330 0.38000
C 	C 	0.75110 0.60860 0.66670 -0.10100
C 	C 	0.76670 0.57990 0.71420 0.11100
C 	C 	0.80320 0.60770 0.73540 -0.09000
C 	C 	0.69960 0.42540 0.82010 0.12500
C 	C 	0.65990 0.39530 0.79780 -0.09400
C 	C 	0.62730 0.33560 0.82360 -0.01600
C 	C 	0.57930 0.30410 0.80110 0.34200
C 	C 	0.63990 0.30410 0.87160 -0.04100
C 	C 	0.68580 0.33350 0.89620 0.00000
C 	C 	0.69490 0.29090 0.95080 0.30800
C 	C 	0.71050 0.39110 0.86800 -0.10700
C 	C 	0.69160 0.79340 0.41730 0.33600
C 	C 	0.67750 0.82310 0.36300 -0.04800
C 	C 	0.64130 0.79530 0.34000 0.00700
C 	C 	0.62820 0.82230 0.29200 -0.06200
C 	C 	0.58860 0.79050 0.26740 0.35800
C 	C 	0.65930 0.88340 0.26100 -0.06600
C 	C 	0.69890 0.91190 0.28260 0.09500
C 	C 	0.71420 0.88270 0.33320 -0.06800
C 	C 	0.78480 0.06150 0.23210 0.09500
C 	C 	0.77380 0.09400 0.18270 -0.05700
C 	C 	0.80560 0.15810 0.14420 -0.07500
C 	C 	0.78240 0.19170 0.10160 0.38400
C 	C 	0.84820 0.18740 0.16780 0.00700
C 	C 	0.86900 0.15720 0.21500 -0.05100
C 	C 	0.91730 0.18660 0.23780 0.34300
C 	C 	0.84120 0.09430 0.24540 -0.06300
C 	C 	0.60600 0.72360 0.57760 0.32700
C 	C 	0.54030 0.70620 0.62860 -0.03600
C 	C 	0.47780 0.65500 0.64640 -0.01500
C 	C 	0.41690 0.64010 0.69210 -0.03100
C 	C 	0.34430 0.58330 0.72860 0.38000
C 	C 	0.41780 0.66670 0.72470 -0.10100
C 	C 	0.48090 0.71420 0.70590 0.11100
C 	C 	0.53860 0.73540 0.65690 -0.09000
C 	C 	0.51970 0.82010 0.75450 0.12500
C 	C 	0.45770 0.79780 0.80690 -0.09400
C 	C 	0.45090 0.82360 0.84080 -0.01600
C 	C 	0.38040 0.80110 0.89480 0.34200
C 	C 	0.51150 0.87160 0.82430 -0.04100
C 	C 	0.58200 0.89620 0.77030 0.00000
C 	C 	0.64570 0.95080 0.75830 0.30800
C 	C 	0.57850 0.86800 0.74090 -0.10700
C 	C 	0.10890 0.41730 0.78930 0.33600
C 	C 	0.04050 0.36300 0.81390 -0.04900
C 	C 	0.98130 0.34000 0.86470 0.00800
C 	C 	0.92020 0.29200 0.88570 -0.06300
C 	C 	0.85600 0.26740 0.94210 0.35800
C 	C 	0.92030 0.26100 0.85560 -0.06500
C 	C 	0.98150 0.28260 0.80550 0.09400
C 	C 	0.04740 0.33320 0.78410 -0.06700
C 	C 	0.01690 0.23210 0.70640 0.09600
C 	C 	0.95650 0.18270 0.72330 -0.05800
C 	C 	0.94980 0.14420 0.69770 -0.07600
C 	C 	0.88400 0.10160 0.70670 0.38400
C 	C 	0.01600 0.16780 0.64480 0.00800
C 	C 	0.08400 0.21500 0.62780 -0.05000
C 	C 	0.15510 0.23780 0.57560 0.34300
C 	C 	0.08660 0.24540 0.66030 -0.06300
C 	C 	0.18360 0.57760 0.69880 0.32700
C 	C 	0.16890 0.62860 0.66520 -0.03600
C 	C 	0.12420 0.64640 0.69860 -0.01500
C 	C 	0.10900 0.69210 0.66780 -0.03100
C 	C 	0.07290 0.72860 0.68810 0.38000
C 	C 	0.14250 0.72470 0.60860 -0.10100
C 	C 	0.18680 0.70590 0.57990 0.11100
C 	C 	0.19550 0.65690 0.60770 -0.09000
C 	C 	0.27420 0.75450 0.42540 0.12500
C 	C 	0.26460 0.80690 0.39530 -0.09400
C 	C 	0.29170 0.84080 0.33560 -0.01600
C 	C 	0.27520 0.89480 0.30410 0.34200
C 	C 	0.33580 0.82430 0.30410 -0.04100
C 	C 	0.35230 0.77030 0.33350 0.00000
C 	C 	0.40400 0.75830 0.29090 0.30800
C 	C 	0.31940 0.74090 0.39110 -0.10700
N 	N 	0.25190 0.22350 0.02290 -0.08300
N 	N 	0.23690 0.26810 0.99820 -0.08800
N 	N 	0.27590 0.48810 0.25030 -0.08200
N 	N 	0.25980 0.51520 0.20960 -0.09200
N 	N 	0.27480 0.02290 0.75360 -0.08300
N 	N 	0.23510 0.99820 0.73370 -0.08800
N 	N 	0.52620 0.25030 0.26160 -0.08200
N 	N 	0.46940 0.20960 0.27520 -0.09200
N 	N 	0.02840 0.75360 0.22350 -0.08300
N 	N 	0.96880 0.73370 0.26810 -0.08700
N 	N 	0.78780 0.26160 0.48810 -0.08200
N 	N 	0.74460 0.27520 0.51520 -0.09200
N 	N 	0.74810 0.77650 0.97710 -0.08300
N 	N 	0.76310 0.73190 0.00180 -0.08800
N 	N 	0.72410 0.51190 0.74970 -0.08200
N 	N 	0.74020 0.48480 0.79040 -0.09200
N 	N 	0.72520 0.97710 0.24640 -0.08300
N 	N 	0.76490 0.00180 0.26630 -0.08800
N 	N 	0.47380 0.74970 0.73840 -0.08200
N 	N 	0.53060 0.79040 0.72480 -0.09200
N 	N 	0.97160 0.24640 0.77650 -0.08300
N 	N 	0.03120 0.26630 0.73190 -0.08700
N 	N 	0.21220 0.73840 0.51190 -0.08200
N 	N 	0.25540 0.72480 0.48480 -0.09200
O 	O 	0.09912 0.25842 0.17746 -0.40300
O 	O 	0.06270 0.17345 0.26175 -0.38200
O 	O 	0.23656 0.03731 0.18393 -0.42200
O 	O 	0.18896 0.03702 0.26494 -0.39900
O 	O 	0.40908 0.24291 0.84107 -0.39700
O 	O 	0.44253 0.32495 0.75676 -0.43500
O 	O 	0.28344 0.43708 0.75546 -0.37700
O 	O 	0.24012 0.44405 0.83779 -0.43200
O 	O 	0.10779 0.32750 0.23253 -0.39500
O 	O 	0.07673 0.24417 0.31588 -0.36400
O 	O 	0.21407 0.25437 0.43546 -0.37700
O 	O 	0.27548 0.33121 0.43637 -0.48000
O 	O 	0.41608 0.66180 0.24676 -0.40500
O 	O 	0.45060 0.75089 0.16689 -0.40700
O 	O 	0.31020 0.76110 0.03760 -0.39300
O 	O 	0.27031 0.67716 0.03313 -0.38700
O 	O 	0.27658 0.17746 0.56412 -0.40300
O 	O 	0.32445 0.26175 0.56480 -0.38200
O 	O 	0.42049 0.18393 0.77876 -0.42300
O 	O 	0.45390 0.26494 0.69804 -0.39900
O 	O 	0.25015 0.84107 0.91602 -0.39800
O 	O 	0.19929 0.75676 0.91829 -0.43600
O 	O 	0.03890 0.75546 0.80746 -0.37800
O 	O 	0.07791 0.83779 0.71816 -0.43300
O 	O 	0.34032 0.23253 0.43997 -0.39500
O 	O 	0.39261 0.31588 0.43995 -0.36400
O 	O 	0.64953 0.43546 0.31017 -0.37700
O 	O 	0.71185 0.43637 0.23242 -0.48000
O 	O 	0.66284 0.24676 0.09144 -0.40600
O 	O 	0.61749 0.16689 0.08222 -0.40700
O 	O 	0.34780 0.03760 0.20130 -0.39200
O 	O 	0.30344 0.03313 0.28971 -0.38600
O 	O 	0.84070 0.56412 0.25842 -0.40300
O 	O 	0.88925 0.56480 0.17345 -0.38300
O 	O 	0.19925 0.77876 0.03731 -0.42300
O 	O 	0.15194 0.69804 0.03702 -0.39900
O 	O 	0.16617 0.91602 0.24291 -0.39800
O 	O 	0.11758 0.91829 0.32495 -0.43600
O 	O 	0.84636 0.80746 0.43708 -0.37700
O 	O 	0.79607 0.71816 0.44405 -0.43200
O 	O 	0.78029 0.43997 0.32750 -0.39600
O 	O 	0.83256 0.43995 0.24417 -0.36400
O 	O 	0.95970 0.31017 0.25437 -0.37700
O 	O 	0.94427 0.23242 0.33121 -0.48100
O 	O 	0.75428 0.09144 0.66180 -0.40500
O 	O 	0.69971 0.08222 0.75089 -0.40700
O 	O 	0.54910 0.20130 0.76110 -0.39300
O 	O 	0.59315 0.28971 0.67716 -0.38700
O 	O 	0.90088 0.74158 0.82254 -0.40300
O 	O 	0.93730 0.82655 0.73825 -0.38200
O 	O 	0.76344 0.96269 0.81607 -0.42200
O 	O 	0.81104 0.96298 0.73506 -0.39900
O 	O 	0.59092 0.75709 0.15893 -0.39700
O 	O 	0.55747 0.67505 0.24324 -0.43500
O 	O 	0.71656 0.56292 0.24454 -0.37700
O 	O 	0.75988 0.55595 0.16221 -0.43200
O 	O 	0.89221 0.67250 0.76747 -0.39500
O 	O 	0.92327 0.75583 0.68412 -0.36400
O 	O 	0.78593 0.74563 0.56454 -0.37700
O 	O 	0.72452 0.66879 0.56363 -0.48000
O 	O 	0.58392 0.33820 0.75324 -0.40500
O 	O 	0.54940 0.24911 0.83311 -0.40700
O 	O 	0.68980 0.23890 0.96240 -0.39300
O 	O 	0.72969 0.32284 0.96687 -0.38700
O 	O 	0.72342 0.82254 0.43588 -0.40300
O 	O 	0.67555 0.73825 0.43520 -0.38200
O 	O 	0.57951 0.81607 0.22124 -0.42300
O 	O 	0.54610 0.73506 0.30196 -0.39900
O 	O 	0.74985 0.15893 0.08398 -0.39800
O 	O 	0.80071 0.24324 0.08171 -0.43600
O 	O 	0.96110 0.24454 0.19254 -0.37800
O 	O 	0.92209 0.16221 0.28184 -0.43300
O 	O 	0.65968 0.76747 0.56003 -0.39500
O 	O 	0.60739 0.68412 0.56005 -0.36400
O 	O 	0.35047 0.56454 0.68983 -0.37700
O 	O 	0.28815 0.56363 0.76758 -0.48000
O 	O 	0.33716 0.75324 0.90856 -0.40600
O 	O 	0.38251 0.83311 0.91778 -0.40700
O 	O 	0.65220 0.96240 0.79870 -0.39200
O 	O 	0.69656 0.96687 0.71029 -0.38600
O 	O 	0.15930 0.43588 0.74158 -0.40300
O 	O 	0.11075 0.43520 0.82655 -0.38300
O 	O 	0.80075 0.22124 0.96269 -0.42300
O 	O 	0.84806 0.30196 0.96298 -0.39900
O 	O 	0.83383 0.08398 0.75709 -0.39800
O 	O 	0.88242 0.08171 0.67505 -0.43600
O 	O 	0.15364 0.19254 0.56292 -0.37700
O 	O 	0.20393 0.28184 0.55595 -0.43200
O 	O 	0.21971 0.56003 0.67250 -0.39600
O 	O 	0.16744 0.56005 0.75583 -0.36400
O 	O 	0.04030 0.68983 0.74563 -0.37700
O 	O 	0.05573 0.76758 0.66879 -0.48100
O 	O 	0.24572 0.90856 0.33820 -0.40500
O 	O 	0.30029 0.91778 0.24911 -0.40700
O 	O 	0.45090 0.79870 0.23890 -0.39300
O 	O 	0.40685 0.71029 0.32284 -0.38700
