data_crystal

_cell_length_a 9.66770
_cell_length_b 11.36670
_cell_length_c 22.10560
_cell_angle_alpha 90.00000
_cell_angle_beta  90.00000
_cell_angle_gamma 102.98600

_symmetry_space_group_name_	'P 1'
_symmetry_space_group_name_H-M	'P 1'

loop_
_symmetry_equiv_pos_as_xyz
  x,y,z

loop_
_atom_site_label
_atom_site_type_symbol
_atom_site_fract_x
_atom_site_fract_y
_atom_site_fract_z
_atom_site_charge
Mn	Mn	0.25997 0.26008 0.40512 1.26700
Mn	Mn	0.24003 0.73992 0.90512 1.26700
Mn	Mn	0.74003 0.73992 0.59488 1.26600
Mn	Mn	0.75997 0.26008 0.09488 1.26600
H 	H 	0.80300 0.45600 0.98260 0.19400
H 	H 	0.15400 0.07700 0.81630 0.06500
H 	H 	0.92800 0.33500 0.50920 0.05900
H 	H 	0.07200 0.17100 0.64770 0.07500
H 	H 	0.06500 0.15780 0.98370 0.05800
H 	H 	0.83800 0.41400 0.67900 0.06300
H 	H 	0.92900 0.33000 0.84430 0.07100
H 	H 	0.28300 0.95500 0.01200 0.20200
H 	H 	0.69700 0.54400 0.48260 0.19500
H 	H 	0.34600 0.92300 0.31630 0.06400
H 	H 	0.57200 0.66500 0.00920 0.05900
H 	H 	0.42800 0.82900 0.14770 0.07500
H 	H 	0.43500 0.84220 0.48370 0.05900
H 	H 	0.66200 0.58600 0.17900 0.06400
H 	H 	0.57100 0.67000 0.34430 0.07100
H 	H 	0.21700 0.04500 0.51200 0.20300
H 	H 	0.19700 0.54400 0.01740 0.19400
H 	H 	0.84600 0.92300 0.18370 0.06500
H 	H 	0.07200 0.66500 0.49080 0.05900
H 	H 	0.92800 0.82900 0.35230 0.07500
H 	H 	0.93500 0.84220 0.01630 0.05800
H 	H 	0.16200 0.58600 0.32100 0.06300
H 	H 	0.07100 0.67000 0.15570 0.07100
H 	H 	0.71700 0.04500 0.98800 0.20200
H 	H 	0.30300 0.45600 0.51740 0.19500
H 	H 	0.65400 0.07700 0.68370 0.06400
H 	H 	0.42800 0.33500 0.99080 0.05900
H 	H 	0.57200 0.17100 0.85230 0.07500
H 	H 	0.56500 0.15780 0.51630 0.05900
H 	H 	0.33800 0.41400 0.82100 0.06400
H 	H 	0.42900 0.33000 0.65570 0.07100
H 	H 	0.78300 0.95500 0.48800 0.20300
C 	C 	0.79230 0.48180 0.56558 0.37500
C 	C 	0.86750 0.38830 0.58905 -0.06800
C 	C 	0.93220 0.32380 0.54926 0.01100
C 	C 	0.00980 0.24290 0.57020 -0.06000
C 	C 	0.08650 0.18100 0.52555 0.36800
C 	C 	0.02080 0.22550 0.63195 -0.05500
C 	C 	0.95560 0.29010 0.67242 0.08300
C 	C 	0.87940 0.37090 0.65079 -0.05700
C 	C 	0.04180 0.20510 0.82048 0.08200
C 	C 	0.97970 0.27360 0.86020 -0.05000
C 	C 	0.98610 0.25460 0.92175 -0.06600
C 	C 	0.91260 0.31960 0.96635 0.37000
C 	C 	0.05710 0.16950 0.94369 0.01600
C 	C 	0.11950 0.10180 0.90490 -0.07200
C 	C 	0.19190 0.00770 0.92923 0.38000
C 	C 	0.11210 0.12030 0.84315 -0.05800
C 	C 	0.70770 0.51820 0.06558 0.37500
C 	C 	0.63250 0.61170 0.08905 -0.06700
C 	C 	0.56780 0.67620 0.04926 0.01100
C 	C 	0.49020 0.75710 0.07020 -0.05900
C 	C 	0.41350 0.81900 0.02555 0.36600
C 	C 	0.47920 0.77450 0.13195 -0.05600
C 	C 	0.54440 0.70990 0.17242 0.08400
C 	C 	0.62060 0.62910 0.15079 -0.05700
C 	C 	0.45820 0.79490 0.32048 0.08000
C 	C 	0.52030 0.72640 0.36020 -0.04900
C 	C 	0.51390 0.74540 0.42175 -0.06600
C 	C 	0.58740 0.68040 0.46635 0.37300
C 	C 	0.44290 0.83050 0.44369 0.01600
C 	C 	0.38050 0.89820 0.40490 -0.07200
C 	C 	0.30810 0.99230 0.42923 0.38200
C 	C 	0.38790 0.87970 0.34315 -0.05700
C 	C 	0.20770 0.51820 0.43442 0.37500
C 	C 	0.13250 0.61170 0.41095 -0.06800
C 	C 	0.06780 0.67620 0.45074 0.01100
C 	C 	0.99020 0.75710 0.42980 -0.06000
C 	C 	0.91350 0.81900 0.47445 0.36800
C 	C 	0.97920 0.77450 0.36805 -0.05500
C 	C 	0.04440 0.70990 0.32758 0.08300
C 	C 	0.12060 0.62910 0.34921 -0.05700
C 	C 	0.95820 0.79490 0.17952 0.08200
C 	C 	0.02030 0.72640 0.13980 -0.05000
C 	C 	0.01390 0.74540 0.07825 -0.06600
C 	C 	0.08740 0.68040 0.03365 0.37000
C 	C 	0.94290 0.83050 0.05631 0.01600
C 	C 	0.88050 0.89820 0.09510 -0.07200
C 	C 	0.80810 0.99230 0.07077 0.38000
C 	C 	0.88790 0.87970 0.15685 -0.05800
C 	C 	0.29230 0.48180 0.93442 0.37500
C 	C 	0.36750 0.38830 0.91095 -0.06700
C 	C 	0.43220 0.32380 0.95074 0.01100
C 	C 	0.50980 0.24290 0.92980 -0.05900
C 	C 	0.58650 0.18100 0.97445 0.36600
C 	C 	0.52080 0.22550 0.86805 -0.05600
C 	C 	0.45560 0.29010 0.82758 0.08400
C 	C 	0.37940 0.37090 0.84921 -0.05700
C 	C 	0.54180 0.20510 0.67952 0.08000
C 	C 	0.47970 0.27360 0.63980 -0.04900
C 	C 	0.48610 0.25460 0.57825 -0.06600
C 	C 	0.41260 0.31960 0.53365 0.37300
C 	C 	0.55710 0.16950 0.55631 0.01600
C 	C 	0.61950 0.10180 0.59510 -0.07200
C 	C 	0.69190 0.00770 0.57077 0.38200
C 	C 	0.61210 0.12030 0.65685 -0.05700
N 	N 	0.96180 0.28120 0.73663 -0.08900
N 	N 	0.03680 0.21370 0.75593 -0.08800
N 	N 	0.53820 0.71880 0.23663 -0.08900
N 	N 	0.46320 0.78630 0.25593 -0.08800
N 	N 	0.03820 0.71880 0.26337 -0.08900
N 	N 	0.96320 0.78630 0.24407 -0.08800
N 	N 	0.46180 0.28120 0.76337 -0.08900
N 	N 	0.53680 0.21370 0.74407 -0.08800
O 	O 	0.77190 0.56008 0.60104 -0.46400
O 	O 	0.75730 0.47232 0.50998 -0.32500
O 	O 	0.09130 0.21400 0.47182 -0.42300
O 	O 	0.14390 0.09947 0.54613 -0.31900
O 	O 	0.85770 0.40300 0.94507 -0.33000
O 	O 	0.90770 0.28825 0.02005 -0.42900
O 	O 	0.22850 0.02117 0.98469 -0.33800
O 	O 	0.20960 0.92553 0.89588 -0.45100
O 	O 	0.72810 0.43992 0.10104 -0.46400
O 	O 	0.74270 0.52768 0.00998 -0.32400
O 	O 	0.40870 0.78600 0.97182 -0.42200
O 	O 	0.35610 0.90053 0.04613 -0.31800
O 	O 	0.64230 0.59700 0.44507 -0.33000
O 	O 	0.59230 0.71175 0.52005 -0.43100
O 	O 	0.27150 0.97883 0.48469 -0.33800
O 	O 	0.29040 0.07447 0.39588 -0.45300
O 	O 	0.22810 0.43992 0.39896 -0.46400
O 	O 	0.24270 0.52768 0.49002 -0.32500
O 	O 	0.90870 0.78600 0.52818 -0.42300
O 	O 	0.85610 0.90053 0.45387 -0.31900
O 	O 	0.14230 0.59700 0.05493 -0.33000
O 	O 	0.09230 0.71175 0.97995 -0.42900
O 	O 	0.77150 0.97883 0.01531 -0.33800
O 	O 	0.79040 0.07447 0.10412 -0.45100
O 	O 	0.27190 0.56008 0.89896 -0.46400
O 	O 	0.25730 0.47232 0.99002 -0.32400
O 	O 	0.59130 0.21400 0.02818 -0.42200
O 	O 	0.64390 0.09947 0.95387 -0.31800
O 	O 	0.35770 0.40300 0.55493 -0.33000
O 	O 	0.40770 0.28825 0.47995 -0.43100
O 	O 	0.72850 0.02117 0.51531 -0.33800
O 	O 	0.70960 0.92553 0.60412 -0.45300
