data_crystal

_cell_length_a 9.09440
_cell_length_b 9.38090
_cell_length_c 9.94590
_cell_angle_alpha 84.27200
_cell_angle_beta  65.44200
_cell_angle_gamma 63.36800

_symmetry_space_group_name_	'P 1'
_symmetry_space_group_name_H-M	'P 1'

loop_
_symmetry_equiv_pos_as_xyz
  x,y,z

loop_
_atom_site_label
_atom_site_type_symbol
_atom_site_fract_x
_atom_site_fract_y
_atom_site_fract_z
_atom_site_charge
Ce	Ce	0.26787 0.49045 0.46023 2.10500
O 	O 	0.03890 0.58030 0.73860 -0.43900
O 	O 	0.29330 0.36020 0.69970 -0.42300
O 	O 	0.63130 0.34740 0.44060 -0.58300
O 	O 	0.52020 0.20540 0.38820 -0.48300
O 	O 	0.10260 0.77130 0.40070 -0.49100
O 	O 	0.92750 0.65080 0.46840 -0.61500
C 	C 	0.13700 0.46560 0.78670 0.30500
C 	C 	0.07590 0.45060 0.95030 -0.13100
H 	H 	0.15280 0.36420 0.98160 0.08300
C 	C 	0.64190 0.21220 0.41210 0.38600
C 	C 	0.80150 0.06550 0.40910 -0.14500
H 	H 	0.90550 0.07280 0.39500 0.09800
C 	C 	0.80090 0.92260 0.42590 -0.16300
H 	H 	0.69760 0.91650 0.43600 0.10600
C 	C 	0.95390 0.77410 0.42940 0.39000
Ce	Ce	0.73213 0.50955 0.53977 2.10500
O 	O 	0.96110 0.41970 0.26140 -0.43900
O 	O 	0.70670 0.63980 0.30030 -0.42300
O 	O 	0.36870 0.65260 0.55940 -0.58300
O 	O 	0.47980 0.79460 0.61180 -0.48300
O 	O 	0.89740 0.22870 0.59930 -0.49100
O 	O 	0.07250 0.34920 0.53160 -0.61500
C 	C 	0.86300 0.53440 0.21330 0.30500
C 	C 	0.92410 0.54940 0.04970 -0.13100
H 	H 	0.84720 0.63580 0.01840 0.08300
C 	C 	0.35810 0.78780 0.58790 0.38600
C 	C 	0.19850 0.93450 0.59090 -0.14500
H 	H 	0.09450 0.92720 0.60500 0.09800
C 	C 	0.19910 0.07740 0.57410 -0.16300
H 	H 	0.30240 0.08350 0.56400 0.10600
C 	C 	0.04610 0.22590 0.57060 0.39000
