data_crystal

_cell_length_a 9.16020
_cell_length_b 9.16020
_cell_length_c 14.89400
_cell_angle_alpha 80.01260
_cell_angle_beta  80.01230
_cell_angle_gamma 115.85000

_symmetry_space_group_name_	'P 1'
_symmetry_space_group_name_H-M	'P 1'

loop_
_symmetry_equiv_pos_as_xyz
  x,y,z

loop_
_atom_site_label
_atom_site_type_symbol
_atom_site_fract_x
_atom_site_fract_y
_atom_site_fract_z
_atom_site_charge
Ce	Ce	0.99050 0.24050 0.01900 2.10500
Ce	Ce	0.75950 0.00950 0.48100 2.11100
Ce	Ce	0.00950 0.75950 0.98100 2.10500
Ce	Ce	0.24050 0.99050 0.51900 2.11100
H 	H 	0.56300 0.65920 0.03140 0.09800
H 	H 	0.52350 0.63950 0.14040 0.09500
H 	H 	0.40560 0.80940 0.03140 0.09600
H 	H 	0.33610 0.72010 0.14040 0.09200
H 	H 	0.34080 0.43700 0.46860 0.09800
H 	H 	0.36050 0.47650 0.35960 0.09500
H 	H 	0.19060 0.59440 0.46860 0.09500
H 	H 	0.27990 0.66390 0.35960 0.09200
H 	H 	0.43700 0.34080 0.96860 0.09900
H 	H 	0.47650 0.36050 0.85960 0.09600
H 	H 	0.59440 0.19060 0.96860 0.09600
H 	H 	0.66390 0.27990 0.85960 0.09200
H 	H 	0.65920 0.56300 0.53140 0.09800
H 	H 	0.63950 0.52350 0.64040 0.09500
H 	H 	0.80940 0.40560 0.53140 0.09500
H 	H 	0.72010 0.33610 0.64040 0.09200
C 	C 	0.69151 0.87651 0.06238 0.42900
C 	C 	0.53920 0.71120 0.07940 -0.26300
C 	C 	0.24611 0.56111 0.06238 0.41000
C 	C 	0.38140 0.70940 0.07940 -0.24700
C 	C 	0.12349 0.30849 0.43762 0.42400
C 	C 	0.28880 0.46080 0.42060 -0.26100
C 	C 	0.43889 0.75389 0.43762 0.41100
C 	C 	0.29060 0.61860 0.42060 -0.24900
C 	C 	0.30849 0.12349 0.93762 0.42900
C 	C 	0.46080 0.28880 0.92060 -0.26300
C 	C 	0.75389 0.43889 0.93762 0.41000
C 	C 	0.61860 0.29060 0.92060 -0.24700
C 	C 	0.87651 0.69151 0.56238 0.42400
C 	C 	0.71120 0.53920 0.57940 -0.26100
C 	C 	0.56111 0.24611 0.56238 0.41100
C 	C 	0.70940 0.38140 0.57940 -0.24900
C 	C 	0.92490 0.07510 0.25000 0.24800
C 	C 	0.82510 0.17490 0.25000 0.24500
C 	C 	0.07510 0.92490 0.75000 0.24800
C 	C 	0.17490 0.82510 0.75000 0.24500
O 	O 	0.98966 0.06760 0.17094 -0.44200
O 	O 	0.83335 0.88737 0.03288 -0.62700
O 	O 	0.67918 0.00102 0.07980 -0.48100
O 	O 	0.83940 0.26146 0.17094 -0.43200
O 	O 	0.13377 0.57975 0.03288 -0.62200
O 	O 	0.24102 0.41918 0.07980 -0.46000
O 	O 	0.93240 0.01034 0.32906 -0.44000
O 	O 	0.11263 0.16665 0.46712 -0.62600
O 	O 	0.99898 0.32082 0.42020 -0.47400
O 	O 	0.73854 0.16060 0.32906 -0.43000
O 	O 	0.42025 0.86623 0.46712 -0.62800
O 	O 	0.58082 0.75898 0.42020 -0.46300
O 	O 	0.01034 0.93240 0.82906 -0.44200
O 	O 	0.16665 0.11263 0.96712 -0.62700
O 	O 	0.32082 0.99898 0.92020 -0.48100
O 	O 	0.16060 0.73854 0.82906 -0.43200
O 	O 	0.86623 0.42025 0.96712 -0.62200
O 	O 	0.75898 0.58082 0.92020 -0.46000
O 	O 	0.06760 0.98966 0.67094 -0.44000
O 	O 	0.88737 0.83335 0.53288 -0.62600
O 	O 	0.00102 0.67918 0.57980 -0.47400
O 	O 	0.26146 0.83940 0.67094 -0.43000
O 	O 	0.57975 0.13377 0.53288 -0.62800
O 	O 	0.41918 0.24102 0.57980 -0.46300
