data_crystal

_cell_length_a 14.63550
_cell_length_b 21.06690
_cell_length_c 16.34760
_cell_angle_alpha 90.00000
_cell_angle_beta  98.29100
_cell_angle_gamma 90.00000

_symmetry_space_group_name_	'P 1'
_symmetry_space_group_name_H-M	'P 1'

loop_
_symmetry_equiv_pos_as_xyz
  x,y,z

loop_
_atom_site_label
_atom_site_type_symbol
_atom_site_fract_x
_atom_site_fract_y
_atom_site_fract_z
_atom_site_charge
C 	C 	0.68160 0.05420 0.64420 0.09600
H 	H 	0.71640 0.03940 0.69250 -0.00300
C 	C 	0.61650 0.11320 0.54850 0.11000
H 	H 	0.59750 0.14950 0.51840 0.01700
C 	C 	0.63620 0.94920 0.57740 -0.18300
H 	H 	0.58450 0.93600 0.53700 0.15900
H 	H 	0.62960 0.92960 0.62990 0.12800
C 	C 	0.72790 0.92790 0.54930 0.35000
C 	C 	0.72570 0.85400 0.52990 -0.26700
H 	H 	0.67690 0.84530 0.48450 0.17300
H 	H 	0.78380 0.84160 0.51270 0.14100
C 	C 	0.74710 0.96500 0.47280 -0.36000
C 	C 	0.81510 0.00970 0.48010 0.31900
H 	H 	0.85660 0.01210 0.52880 -0.08400
C 	C 	0.82380 0.05320 0.41430 -0.58300
H 	H 	0.86810 0.08520 0.42120 0.25800
C 	C 	0.76550 0.04690 0.34030 0.81400
C 	C 	0.70080 0.00080 0.33170 -0.94900
H 	H 	0.66320 0.99550 0.28120 0.45400
C 	C 	0.68960 0.96090 0.39780 0.76700
C 	C 	0.82730 0.27740 0.59170 0.11500
H 	H 	0.81610 0.31480 0.61870 -0.02300
C 	C 	0.83200 0.18320 0.55450 0.09700
H 	H 	0.82310 0.13950 0.55190 0.01100
C 	C 	0.91170 0.32640 0.48520 -0.15000
H 	H 	0.87970 0.36550 0.49460 0.10500
H 	H 	0.90240 0.31800 0.42630 0.11400
C 	C 	0.01550 0.33480 0.51540 0.29600
C 	C 	0.05390 0.39340 0.47210 -0.24000
H 	H 	0.01060 0.42830 0.47110 0.12700
H 	H 	0.11180 0.40670 0.50390 0.13400
C 	C 	0.03510 0.34370 0.61050 -0.45900
C 	C 	0.07700 0.29750 0.66210 0.53500
H 	H 	0.09740 0.25990 0.64100 -0.12800
C 	C 	0.08800 0.30850 0.74630 -0.78200
H 	H 	0.11500 0.27710 0.78190 0.32000
C 	C 	0.06120 0.36260 0.77840 0.95400
C 	C 	0.01780 0.40630 0.73220 -1.03000
H 	H 	0.99660 0.44280 0.75520 0.49300
C 	C 	0.00410 0.39660 0.64680 0.65000
N 	N 	0.80010 0.22120 0.61190 -0.24600
N 	N 	0.87650 0.21480 0.50320 -0.07700
N 	N 	0.87250 0.27400 0.52830 -0.06900
N 	N 	0.66940 0.11520 0.62310 -0.24400
N 	N 	0.59370 0.05410 0.52140 -0.07400
N 	N 	0.63660 0.01830 0.58580 -0.09000
O 	O 	0.97710 0.07840 0.96850 -0.69200
O 	O 	0.06950 0.97340 0.94190 -0.80700
O 	O 	0.94210 0.99040 0.90500 -0.74500
O 	O 	0.91010 0.96720 0.00220 -0.96000
O 	O 	0.99380 0.17400 0.01450 -0.41400
O 	O 	0.17010 0.09660 0.90770 -0.45600
O 	O 	0.12910 0.99080 0.82360 -0.38200
O 	O 	0.84010 0.86680 0.93870 -0.44400
O 	O 	0.74920 0.97200 0.96660 -0.40500
O 	O 	0.20980 0.92260 0.94960 -0.38700
O 	O 	0.82100 0.20570 0.05380 -0.36700
O 	O 	0.80240 0.02580 0.83620 -0.48400
O 	O 	0.84730 0.12940 0.92330 -0.37500
O 	O 	0.89340 0.92030 0.80700 -0.40500
O 	O 	0.06180 0.87890 0.85470 -0.44600
O 	O 	0.96030 0.03430 0.77600 -0.42700
O 	O 	0.00140 0.13720 0.86090 -0.49200
O 	O 	0.83310 0.13330 0.75250 -0.46900
O 	O 	0.80060 0.93940 0.61670 -0.40700
H 	H 	0.85010 0.92820 0.60330 0.25600
O 	O 	0.06440 0.27990 0.49610 -0.41000
H 	H 	0.05640 0.27440 0.44590 0.23200
Ni	Ni	0.71811 0.19079 0.70041 1.05500
W 	W 	0.89280 0.08970 0.83200 0.52800
W 	W 	0.01330 0.95126 0.79374 1.14500
W 	W 	0.80106 0.94029 0.87441 1.30400
W 	W 	0.21291 0.00952 0.92070 1.20600
W 	W 	0.09137 0.15061 0.95489 1.22900
W 	W 	0.87356 0.12982 0.04160 0.60900
F 	F 	0.61920 0.91850 0.38810 -0.54100
F 	F 	0.77120 0.08800 0.27970 -0.57900
F 	F 	0.96000 0.44480 0.59860 -0.49300
F 	F 	0.07390 0.36820 0.86220 -0.58500
N 	N 	0.71040 0.81620 0.60110 -0.05300
N 	N 	0.06870 0.37900 0.38820 -0.06800
N 	N 	0.00140 0.38860 0.32100 -0.11300
N 	N 	0.62310 0.80540 0.61700 -0.08800
C 	C 	0.77120 0.78850 0.65900 0.08100
H 	H 	0.83500 0.78980 0.66100 -0.00100
N 	N 	0.77320 0.25880 0.78680 -0.24800
C 	C 	0.14310 0.35430 0.36240 0.08600
H 	H 	0.19710 0.34380 0.39710 0.02500
C 	C 	0.04360 0.36890 0.26100 0.07900
H 	H 	0.01510 0.37010 0.20630 0.01000
C 	C 	0.63670 0.76950 0.68350 0.10500
H 	H 	0.58850 0.75280 0.70820 0.00200
N 	N 	0.63100 0.15350 0.78120 -0.24300
W 	W 	0.89580 0.10520 0.84050 0.29000
W 	W 	0.88620 0.07570 0.82360 0.41800
W 	W 	0.88662 0.15080 0.03426 0.65600
C 	C 	0.81840 0.55420 0.85580 0.10300
H 	H 	0.78360 0.53940 0.80750 0.01300
C 	C 	0.88350 0.61320 0.95150 0.12300
H 	H 	0.90250 0.64950 0.98160 0.04700
C 	C 	0.86380 0.44920 0.92260 -0.26700
H 	H 	0.91550 0.43600 0.96300 0.21400
H 	H 	0.87040 0.42960 0.87010 0.15400
C 	C 	0.77210 0.42790 0.95070 0.38100
C 	C 	0.77430 0.35400 0.97010 -0.17800
H 	H 	0.82310 0.34530 0.01550 0.12100
H 	H 	0.71620 0.34160 0.98730 0.12600
C 	C 	0.75290 0.46500 0.02720 -0.39400
C 	C 	0.68490 0.50970 0.01990 0.23800
H 	H 	0.64340 0.51210 0.97120 -0.01300
C 	C 	0.67620 0.55320 0.08570 -0.48200
H 	H 	0.63190 0.58520 0.07880 0.20000
C 	C 	0.73450 0.54690 0.15970 0.67700
C 	C 	0.79920 0.50080 0.16830 -0.63700
H 	H 	0.83680 0.49550 0.21880 0.30900
C 	C 	0.81040 0.46090 0.10220 0.61000
C 	C 	0.67270 0.77740 0.90830 0.09500
H 	H 	0.68390 0.81480 0.88130 -0.01600
C 	C 	0.66800 0.68320 0.94550 0.09600
H 	H 	0.67690 0.63950 0.94810 0.02000
C 	C 	0.58830 0.82640 0.01480 -0.44500
H 	H 	0.62030 0.86550 0.00540 0.15800
H 	H 	0.59760 0.81800 0.07370 0.17000
C 	C 	0.48450 0.83480 0.98460 0.59300
C 	C 	0.44610 0.89340 0.02790 -0.52200
H 	H 	0.48940 0.92830 0.02890 0.23800
H 	H 	0.38820 0.90670 0.99610 0.27300
C 	C 	0.46490 0.84370 0.88950 -0.51000
C 	C 	0.42300 0.79750 0.83790 0.56400
H 	H 	0.40260 0.75990 0.85900 -0.11700
C 	C 	0.41200 0.80850 0.75370 -0.75000
H 	H 	0.38500 0.77710 0.71810 0.31200
C 	C 	0.43880 0.86260 0.72160 0.89900
C 	C 	0.48220 0.90630 0.76780 -0.85600
H 	H 	0.50340 0.94280 0.74480 0.39500
C 	C 	0.49590 0.89660 0.85320 0.70400
N 	N 	0.69990 0.72120 0.88810 -0.24100
N 	N 	0.62350 0.71480 0.99680 -0.07500
N 	N 	0.62750 0.77400 0.97170 -0.02100
N 	N 	0.83060 0.61520 0.87690 -0.23900
N 	N 	0.90630 0.55410 0.97860 -0.02700
N 	N 	0.86340 0.51830 0.91420 -0.04100
O 	O 	0.52290 0.57840 0.53150 -1.00200
O 	O 	0.43050 0.47340 0.55810 -1.14700
O 	O 	0.55790 0.49040 0.59500 -1.10000
O 	O 	0.58990 0.46720 0.49780 -1.35300
O 	O 	0.50620 0.67400 0.48550 -0.44300
O 	O 	0.32990 0.59660 0.59230 -0.46800
O 	O 	0.37090 0.49080 0.67640 -0.43600
O 	O 	0.65990 0.36680 0.56130 -0.47500
O 	O 	0.75080 0.47200 0.53340 -0.44000
O 	O 	0.29020 0.42260 0.55040 -0.43600
O 	O 	0.67900 0.70570 0.44620 -0.37600
O 	O 	0.69760 0.52580 0.66380 -0.42800
O 	O 	0.65270 0.62940 0.57670 -0.40900
O 	O 	0.60660 0.42030 0.69300 -0.45200
O 	O 	0.43820 0.37890 0.64530 -0.43500
O 	O 	0.53970 0.53430 0.72400 -0.43200
O 	O 	0.49860 0.63720 0.63910 -0.43300
O 	O 	0.66690 0.63330 0.74750 -0.48400
O 	O 	0.69940 0.43940 0.88330 -0.43600
H 	H 	0.64990 0.42820 0.89670 0.24400
O 	O 	0.43560 0.77990 0.00390 -0.52300
H 	H 	0.44360 0.77440 0.05410 0.28500
Ni	Ni	0.78189 0.69079 0.79959 1.05800
W 	W 	0.60720 0.58970 0.66800 0.53100
W 	W 	0.48670 0.45126 0.70626 1.29000
W 	W 	0.69894 0.44029 0.62559 1.32700
W 	W 	0.28709 0.50952 0.57930 1.37000
W 	W 	0.40863 0.65061 0.54511 1.28900
W 	W 	0.62644 0.62982 0.45840 0.64300
F 	F 	0.88080 0.41850 0.11190 -0.50500
F 	F 	0.72880 0.58800 0.22030 -0.55100
F 	F 	0.54000 0.94480 0.90140 -0.52000
F 	F 	0.42610 0.86820 0.63780 -0.56300
N 	N 	0.78960 0.31620 0.89890 -0.06000
N 	N 	0.43130 0.87900 0.11180 -0.02500
N 	N 	0.49860 0.88860 0.17900 -0.08700
N 	N 	0.87690 0.30540 0.88300 -0.06300
C 	C 	0.72880 0.28850 0.84100 0.08900
H 	H 	0.66500 0.28980 0.83900 -0.01200
N 	N 	0.72680 0.75880 0.71320 -0.24700
C 	C 	0.35690 0.85430 0.13760 0.07500
H 	H 	0.30290 0.84380 0.10290 0.02400
C 	C 	0.45640 0.86890 0.23900 0.08600
H 	H 	0.48490 0.87010 0.29370 0.04000
C 	C 	0.86330 0.26950 0.81650 0.10900
H 	H 	0.91150 0.25280 0.79180 0.03000
N 	N 	0.86900 0.65350 0.71880 -0.23600
W 	W 	0.60420 0.60520 0.65950 0.36800
W 	W 	0.61380 0.57570 0.67640 0.34900
W 	W 	0.61338 0.65080 0.46574 0.71100
C 	C 	0.31840 0.94580 0.35580 0.09800
H 	H 	0.28360 0.96060 0.30750 0.03300
C 	C 	0.38350 0.88680 0.45150 0.11200
H 	H 	0.40250 0.85050 0.48160 0.02100
C 	C 	0.36380 0.05080 0.42260 -0.33100
H 	H 	0.41550 0.06400 0.46300 0.18400
H 	H 	0.37040 0.07040 0.37010 0.15100
C 	C 	0.27210 0.07210 0.45070 0.38000
C 	C 	0.27430 0.14600 0.47010 -0.27500
H 	H 	0.32310 0.15470 0.51550 0.17700
H 	H 	0.21620 0.15840 0.48730 0.12900
C 	C 	0.25290 0.03500 0.52720 -0.44000
C 	C 	0.18490 0.99030 0.51990 0.43000
H 	H 	0.14340 0.98790 0.47120 -0.09800
C 	C 	0.17620 0.94680 0.58570 -0.50300
H 	H 	0.13190 0.91480 0.57880 0.21800
C 	C 	0.23450 0.95310 0.65970 0.60400
C 	C 	0.29920 0.99920 0.66830 -0.36100
H 	H 	0.33680 0.00450 0.71880 0.14900
C 	C 	0.31040 0.03910 0.60220 0.47600
C 	C 	0.17270 0.72260 0.40830 0.08400
H 	H 	0.18390 0.68520 0.38130 -0.03000
C 	C 	0.16800 0.81680 0.44550 0.08300
H 	H 	0.17690 0.86050 0.44810 0.00900
C 	C 	0.08830 0.67360 0.51480 -0.36600
H 	H 	0.12030 0.63450 0.50540 0.13700
H 	H 	0.09760 0.68200 0.57370 0.13000
C 	C 	0.98450 0.66520 0.48460 0.46700
C 	C 	0.94610 0.60660 0.52790 -0.31400
H 	H 	0.98940 0.57170 0.52890 0.20600
H 	H 	0.88820 0.59330 0.49610 0.16300
C 	C 	0.96490 0.65630 0.38950 -0.42500
C 	C 	0.92300 0.70250 0.33790 0.47300
H 	H 	0.90260 0.74010 0.35900 -0.08300
C 	C 	0.91200 0.69150 0.25370 -0.63200
H 	H 	0.88500 0.72290 0.21810 0.28000
C 	C 	0.93880 0.63740 0.22160 0.77000
C 	C 	0.98220 0.59370 0.26780 -0.60900
H 	H 	0.00340 0.55720 0.24480 0.22900
C 	C 	0.99590 0.60340 0.35320 0.65900
N 	N 	0.19990 0.77880 0.38810 -0.24600
N 	N 	0.12350 0.78520 0.49680 -0.10300
N 	N 	0.12750 0.72600 0.47170 -0.06000
N 	N 	0.33060 0.88480 0.37690 -0.24100
N 	N 	0.40630 0.94590 0.47860 -0.04500
N 	N 	0.36340 0.98170 0.41420 -0.00800
O 	O 	0.02290 0.92160 0.03150 -0.80900
O 	O 	0.93050 0.02660 0.05810 -0.87100
O 	O 	0.05790 0.00960 0.09500 -0.91100
O 	O 	0.08990 0.03280 0.99780 -0.98700
O 	O 	0.00620 0.82600 0.98550 -0.45600
O 	O 	0.82990 0.90340 0.09230 -0.46900
O 	O 	0.87090 0.00920 0.17640 -0.48300
O 	O 	0.15990 0.13320 0.06130 -0.50200
O 	O 	0.25080 0.02800 0.03340 -0.48200
O 	O 	0.79020 0.07740 0.05040 -0.48200
O 	O 	0.17900 0.79430 0.94620 -0.35700
O 	O 	0.19760 0.97420 0.16380 -0.36100
O 	O 	0.15270 0.87060 0.07670 -0.44200
O 	O 	0.10660 0.07970 0.19300 -0.50200
O 	O 	0.93820 0.12110 0.14530 -0.41500
O 	O 	0.03970 0.96570 0.22400 -0.43100
O 	O 	0.99860 0.86280 0.13910 -0.37200
O 	O 	0.16690 0.86670 0.24750 -0.48200
O 	O 	0.19940 0.06060 0.38330 -0.46000
H 	H 	0.14990 0.07180 0.39670 0.22000
O 	O 	0.93560 0.72010 0.50390 -0.42900
H 	H 	0.94360 0.72560 0.55410 0.27700
Ni	Ni	0.28189 0.80921 0.29959 1.05300
W 	W 	0.10720 0.91030 0.16800 0.49800
W 	W 	0.98670 0.04874 0.20626 1.33200
W 	W 	0.19894 0.05971 0.12559 1.18400
W 	W 	0.78709 0.99048 0.07930 1.38300
W 	W 	0.90863 0.84939 0.04511 1.23100
W 	W 	0.12644 0.87018 0.95840 0.65600
F 	F 	0.38080 0.08150 0.61190 -0.50700
F 	F 	0.22880 0.91200 0.72030 -0.52500
F 	F 	0.04000 0.55520 0.40140 -0.59200
F 	F 	0.92610 0.63180 0.13780 -0.53200
N 	N 	0.28960 0.18380 0.39890 -0.05400
N 	N 	0.93130 0.62100 0.61180 -0.04800
N 	N 	0.99860 0.61140 0.67900 -0.06800
N 	N 	0.37690 0.19460 0.38300 -0.08900
C 	C 	0.22880 0.21150 0.34100 0.08100
H 	H 	0.16500 0.21020 0.33900 -0.02300
N 	N 	0.22680 0.74120 0.21320 -0.25100
C 	C 	0.85690 0.64570 0.63760 0.08700
H 	H 	0.80290 0.65620 0.60290 0.02600
C 	C 	0.95640 0.63110 0.73900 0.08700
H 	H 	0.98490 0.62990 0.79370 0.06000
C 	C 	0.36330 0.23050 0.31650 0.10400
H 	H 	0.41150 0.24720 0.29180 0.00200
N 	N 	0.36900 0.84650 0.21880 -0.23800
W 	W 	0.10420 0.89480 0.15950 0.40700
W 	W 	0.11380 0.92430 0.17640 0.27000
W 	W 	0.11338 0.84920 0.96574 0.68100
C 	C 	0.18160 0.44580 0.14420 0.09200
H 	H 	0.21640 0.46060 0.19250 0.01200
C 	C 	0.11650 0.38680 0.04850 0.09800
H 	H 	0.09750 0.35050 0.01840 -0.00900
C 	C 	0.13620 0.55080 0.07740 -0.23900
H 	H 	0.08450 0.56400 0.03700 0.12700
H 	H 	0.12960 0.57040 0.12990 0.12300
C 	C 	0.22790 0.57210 0.04930 0.34600
C 	C 	0.22570 0.64600 0.02990 -0.37000
H 	H 	0.17690 0.65470 0.98450 0.23700
H 	H 	0.28380 0.65840 0.01270 0.14700
C 	C 	0.24710 0.53500 0.97280 -0.39300
C 	C 	0.31510 0.49030 0.98010 0.50400
H 	H 	0.35660 0.48790 0.02880 -0.17300
C 	C 	0.32380 0.44680 0.91430 -0.60400
H 	H 	0.36810 0.41480 0.92120 0.27300
C 	C 	0.26550 0.45310 0.84030 0.74000
C 	C 	0.20080 0.49920 0.83170 -0.68300
H 	H 	0.16320 0.50450 0.78120 0.29700
C 	C 	0.18960 0.53910 0.89780 0.63600
C 	C 	0.32730 0.22260 0.09170 0.10300
H 	H 	0.31610 0.18520 0.11870 -0.03200
C 	C 	0.33200 0.31680 0.05450 0.08400
H 	H 	0.32310 0.36050 0.05190 -0.00200
C 	C 	0.41170 0.17360 0.98520 -0.06900
H 	H 	0.37970 0.13450 0.99460 0.09100
H 	H 	0.40240 0.18200 0.92630 0.07400
C 	C 	0.51550 0.16520 0.01540 0.16600
C 	C 	0.55390 0.10660 0.97210 -0.02600
H 	H 	0.51060 0.07170 0.97110 0.09800
H 	H 	0.61180 0.09330 0.00390 0.02600
C 	C 	0.53510 0.15630 0.11050 -0.37100
C 	C 	0.57700 0.20250 0.16210 0.44500
H 	H 	0.59740 0.24010 0.14100 -0.09300
C 	C 	0.58800 0.19150 0.24630 -0.66300
H 	H 	0.61500 0.22290 0.28190 0.28400
C 	C 	0.56120 0.13740 0.27840 0.82700
C 	C 	0.51780 0.09370 0.23220 -0.78800
H 	H 	0.49660 0.05720 0.25520 0.33200
C 	C 	0.50410 0.10340 0.14680 0.60800
N 	N 	0.30010 0.27880 0.11190 -0.25000
N 	N 	0.37650 0.28520 0.00320 -0.10800
N 	N 	0.37250 0.22600 0.02830 -0.11000
N 	N 	0.16940 0.38480 0.12310 -0.24600
N 	N 	0.09370 0.44590 0.02140 -0.09400
N 	N 	0.13660 0.48170 0.08580 -0.06300
O 	O 	0.47710 0.42160 0.46850 -1.00300
O 	O 	0.56950 0.52660 0.44190 -1.14700
O 	O 	0.44210 0.50960 0.40500 -1.09900
O 	O 	0.41010 0.53280 0.50220 -1.35100
O 	O 	0.49380 0.32600 0.51450 -0.44300
O 	O 	0.67010 0.40340 0.40770 -0.46500
O 	O 	0.62910 0.50920 0.32360 -0.43600
O 	O 	0.34010 0.63320 0.43870 -0.47500
O 	O 	0.24920 0.52800 0.46660 -0.44500
O 	O 	0.70980 0.57740 0.44960 -0.43800
O 	O 	0.32100 0.29430 0.55380 -0.37700
O 	O 	0.30240 0.47420 0.33620 -0.42900
O 	O 	0.34730 0.37060 0.42330 -0.40900
O 	O 	0.39340 0.57970 0.30700 -0.45200
O 	O 	0.56180 0.62110 0.35470 -0.43600
O 	O 	0.46030 0.46570 0.27600 -0.43400
O 	O 	0.50140 0.36280 0.36090 -0.43300
O 	O 	0.33310 0.36670 0.25250 -0.48600
O 	O 	0.30060 0.56060 0.11670 -0.43000
H 	H 	0.35010 0.57180 0.10330 0.23100
O 	O 	0.56440 0.22010 0.99610 -0.31100
H 	H 	0.55640 0.22560 0.94590 0.22400
Ni	Ni	0.21811 0.30921 0.20041 1.05000
W 	W 	0.39280 0.41030 0.33200 0.53100
W 	W 	0.51330 0.54874 0.29374 1.28400
W 	W 	0.30106 0.55971 0.37441 1.31400
W 	W 	0.71291 0.49048 0.42070 1.39100
W 	W 	0.59137 0.34939 0.45489 1.29200
W 	W 	0.37356 0.37018 0.54160 0.64400
F 	F 	0.11920 0.58150 0.88810 -0.54100
F 	F 	0.27120 0.41200 0.77970 -0.55900
F 	F 	0.46000 0.05520 0.09860 -0.56200
F 	F 	0.57390 0.13180 0.36220 -0.55800
N 	N 	0.21040 0.68380 0.10110 -0.04600
N 	N 	0.56870 0.12100 0.88820 -0.09000
N 	N 	0.50140 0.11140 0.82100 -0.09100
N 	N 	0.12310 0.69460 0.11700 -0.11300
C 	C 	0.27120 0.71150 0.15900 0.07200
H 	H 	0.33500 0.71020 0.16100 -0.01100
N 	N 	0.27320 0.24120 0.28680 -0.25200
C 	C 	0.64310 0.14570 0.86240 0.10000
H 	H 	0.69710 0.15620 0.89710 0.02900
C 	C 	0.54360 0.13110 0.76100 0.08100
H 	H 	0.51510 0.12990 0.70630 0.03300
C 	C 	0.13670 0.73050 0.18350 0.09900
H 	H 	0.08850 0.74720 0.20820 -0.02200
N 	N 	0.13100 0.34650 0.28120 -0.24500
W 	W 	0.39580 0.39480 0.34050 0.36800
W 	W 	0.38620 0.42430 0.32360 0.34900
W 	W 	0.38662 0.34920 0.53426 0.71100
Si	Si	-0.00000 0.00000 -0.00000 4.22000
Si	Si	0.50000 0.50000 0.50000 6.12200
