data_crystal

_cell_length_a 9.54750
_cell_length_b 11.44000
_cell_length_c 13.20920
_cell_angle_alpha 90.00000
_cell_angle_beta  109.97400
_cell_angle_gamma 90.00000

_symmetry_space_group_name_	'P 1'
_symmetry_space_group_name_H-M	'P 1'

loop_
_symmetry_equiv_pos_as_xyz
  x,y,z

loop_
_atom_site_label
_atom_site_type_symbol
_atom_site_fract_x
_atom_site_fract_y
_atom_site_fract_z
_atom_site_charge
Ag	Ag	0.98325 0.27836 0.62728 0.47500
Ag	Ag	0.44741 0.22008 0.85547 0.45600
Ag	Ag	0.41368 0.72980 0.39374 0.45200
Ag	Ag	0.07082 0.14702 0.91383 0.47900
Ag	Ag	0.01675 0.77836 0.37272 0.47500
Ag	Ag	0.55259 0.72008 0.14453 0.45400
Ag	Ag	0.58632 0.22980 0.60626 0.45300
Ag	Ag	0.92918 0.64702 0.08617 0.47700
P 	P 	0.19736 0.44898 0.88594 0.14700
P 	P 	0.18829 0.48041 0.38441 0.14700
P 	P 	0.80264 0.94898 0.11406 0.13700
P 	P 	0.81171 0.98041 0.61559 0.14300
H 	H 	0.04160 0.55020 0.73440 0.03900
H 	H 	0.21250 0.56260 0.74180 0.04000
H 	H 	0.45220 0.49900 0.94380 0.01300
H 	H 	0.40960 0.45010 0.04360 0.02000
H 	H 	0.09460 0.42530 0.02350 0.02500
H 	H 	0.96630 0.46140 0.91300 0.01800
H 	H 	0.27110 0.57050 0.12560 -0.01000
H 	H 	0.24550 0.70650 0.09760 -0.03700
H 	H 	0.04810 0.76340 0.92470 -0.00300
H 	H 	0.94970 0.66270 0.84980 0.01000
H 	H 	0.37630 0.69080 0.87470 -0.00300
H 	H 	0.31090 0.78230 0.93850 -0.01600
H 	H 	0.97980 0.47040 0.44090 0.02100
H 	H 	0.12530 0.50610 0.54050 0.02900
H 	H 	0.42060 0.48110 0.52620 0.01200
H 	H 	0.44050 0.43030 0.41850 0.01400
H 	H 	0.17550 0.36260 0.23680 0.04300
H 	H 	0.01310 0.37570 0.24640 0.04300
H 	H 	0.27900 0.22570 0.60300 -0.04400
H 	H 	0.30910 0.36180 0.62820 -0.02500
H 	H 	0.94900 0.26660 0.37720 0.00700
H 	H 	0.05650 0.16660 0.44640 -0.00400
H 	H 	0.30630 0.14600 0.43290 -0.01400
H 	H 	0.35450 0.23470 0.35720 -0.00300
H 	H 	0.95840 0.05020 0.26560 0.03900
H 	H 	0.78750 0.06260 0.25820 0.04000
H 	H 	0.54780 0.99900 0.05620 -0.00100
H 	H 	0.59040 0.95010 0.95640 0.01000
H 	H 	0.90540 0.92530 0.97650 0.03000
H 	H 	0.03370 0.96140 0.08700 0.01900
H 	H 	0.72890 0.07050 0.87440 -0.00900
H 	H 	0.75450 0.20650 0.90240 -0.03600
H 	H 	0.95190 0.26340 0.07530 -0.00300
H 	H 	0.05030 0.16270 0.15020 0.01200
H 	H 	0.62370 0.19080 0.12530 -0.00200
H 	H 	0.68910 0.28230 0.06150 -0.01600
H 	H 	0.02020 0.97040 0.55910 0.02200
H 	H 	0.87470 0.00610 0.45950 0.03600
H 	H 	0.57940 0.98110 0.47380 0.00900
H 	H 	0.55950 0.93030 0.58150 0.01300
H 	H 	0.82450 0.86260 0.76320 0.04200
H 	H 	0.98690 0.87570 0.75360 0.04200
H 	H 	0.72100 0.72570 0.39700 -0.04500
H 	H 	0.69090 0.86180 0.37180 -0.02700
H 	H 	0.05100 0.76660 0.62280 0.00700
H 	H 	0.94350 0.66660 0.55360 -0.00500
H 	H 	0.69370 0.64600 0.56710 -0.01600
H 	H 	0.64550 0.73470 0.64280 -0.00400
C 	C 	0.14470 0.56300 0.78420 -0.12400
C 	C 	0.37580 0.50070 0.97900 -0.11900
C 	C 	0.07030 0.47710 0.95970 -0.12500
C 	C 	0.24240 0.62780 0.06580 0.00100
C 	C 	0.05070 0.68200 0.89990 0.00200
C 	C 	0.30570 0.70000 0.91430 0.01100
C 	C 	0.08720 0.45400 0.47710 -0.12800
C 	C 	0.37590 0.42930 0.46330 -0.12200
C 	C 	0.12010 0.36350 0.28790 -0.12200
C 	C 	0.26990 0.30400 0.56950 0.01400
C 	C 	0.05400 0.24730 0.41870 0.00100
C 	C 	0.29670 0.22760 0.40650 0.00700
C 	C 	0.85530 0.06300 0.21580 -0.11800
C 	C 	0.62420 0.00070 0.02100 -0.09100
C 	C 	0.92970 0.97710 0.04030 -0.13700
C 	C 	0.75760 0.12780 0.93420 0.00300
C 	C 	0.94930 0.18200 0.10010 0.00200
C 	C 	0.69430 0.20000 0.08570 0.01100
C 	C 	0.91280 0.95400 0.52290 -0.13800
C 	C 	0.62410 0.92930 0.53670 -0.12100
C 	C 	0.87990 0.86350 0.71210 -0.12100
C 	C 	0.73010 0.80400 0.43050 0.01400
C 	C 	0.94600 0.74730 0.58130 0.00100
C 	C 	0.70330 0.72760 0.59350 0.00800
S 	S 	0.19045 0.28596 0.82719 -0.41200
S 	S 	0.16997 0.63589 0.31111 -0.39200
S 	S 	0.80955 0.78596 0.17281 -0.41400
S 	S 	0.83003 0.13589 0.68889 -0.38700
N 	N 	0.15540 0.67590 0.84110 -0.10000
N 	N 	0.35330 0.62290 0.01003 -0.15500
N 	N 	0.08680 0.60280 0.99450 -0.15100
N 	N 	0.10930 0.32900 0.51178 -0.15100
N 	N 	0.36280 0.30750 0.50030 -0.16000
N 	N 	0.14090 0.25150 0.34660 -0.09900
N 	N 	0.84460 0.17590 0.15890 -0.10000
N 	N 	0.64670 0.12290 0.98997 -0.15600
N 	N 	0.91320 0.10280 0.00550 -0.14800
N 	N 	0.89070 0.82900 0.48822 -0.15100
N 	N 	0.63720 0.80750 0.49970 -0.16000
N 	N 	0.85910 0.75150 0.65340 -0.10000
