data_crystal

_cell_length_a 18.38470
_cell_length_b 12.92560
_cell_length_c 14.55500
_cell_angle_alpha 90.00000
_cell_angle_beta  120.06830
_cell_angle_gamma 90.00000

_symmetry_space_group_name_	'P 1'
_symmetry_space_group_name_H-M	'P 1'

loop_
_symmetry_equiv_pos_as_xyz
  x,y,z

loop_
_atom_site_label
_atom_site_type_symbol
_atom_site_fract_x
_atom_site_fract_y
_atom_site_fract_z
_atom_site_charge
Zn	Zn	0.18210 0.51378 0.50182 1.23400
Zn	Zn	0.65449 0.44707 0.25374 1.22900
H 	H 	0.49850 0.33080 0.71520 0.11300
H 	H 	0.49090 0.07460 0.55530 0.11500
H 	H 	0.28960 0.26190 0.43780 0.09300
H 	H 	0.95720 0.23750 0.23730 0.09700
H 	H 	0.73240 0.27280 0.21670 0.09100
H 	H 	0.93080 0.44050 0.42720 0.11700
C 	C 	0.34290 0.40050 0.59350 0.38100
C 	C 	0.38650 0.30920 0.58060 -0.00600
C 	C 	0.46950 0.28600 0.65810 -0.17900
C 	C 	0.50950 0.19680 0.65120 0.27400
C 	C 	0.46530 0.13400 0.56190 -0.21500
C 	C 	0.38460 0.15740 0.48290 0.02900
C 	C 	0.34070 0.09430 0.38200 0.30700
C 	C 	0.34390 0.24570 0.49100 -0.06400
C 	C 	0.04740 0.37820 0.38310 0.30100
C 	C 	0.95770 0.34430 0.34020 0.03900
C 	C 	0.92360 0.26940 0.25990 -0.08800
C 	C 	0.83950 0.24320 0.21440 0.03100
C 	C 	0.80340 0.16230 0.12780 0.31000
C 	C 	0.78880 0.29110 0.24760 -0.21600
C 	C 	0.82230 0.36630 0.32700 0.25600
C 	C 	0.90760 0.39140 0.37330 -0.21500
O 	O 	0.38400 0.45780 0.67300 -0.47200
O 	O 	0.26820 0.41410 0.52350 -0.47500
O 	O 	0.58810 0.17710 0.72970 -0.50100
O 	O 	0.37780 0.01180 0.38190 -0.44600
O 	O 	0.27430 0.12390 0.30650 -0.28600
O 	O 	0.07640 0.44200 0.45930 -0.42900
O 	O 	0.08850 0.34640 0.34270 -0.26200
O 	O 	0.85500 0.11770 0.10800 -0.43800
O 	O 	0.72880 0.14050 0.08300 -0.29200
O 	O 	0.77250 0.41520 0.35830 -0.64700
H 	H 	0.61953 0.25447 0.74959 0.12400
H 	H 	0.22750 0.66217 0.61422 0.09500
Zn	Zn	0.81790 0.01378 0.99818 1.23100
Zn	Zn	0.34551 0.94707 0.24626 1.22900
H 	H 	0.50150 0.83080 0.78480 0.11500
H 	H 	0.50910 0.57460 0.94470 0.11600
H 	H 	0.71040 0.76190 0.06220 0.09400
H 	H 	0.04280 0.73750 0.26270 0.09200
H 	H 	0.26760 0.77280 0.28330 0.08900
H 	H 	0.06920 0.94050 0.07280 0.11200
C 	C 	0.65710 0.90050 0.90650 0.37900
C 	C 	0.61350 0.80920 0.91940 -0.00000
C 	C 	0.53050 0.78600 0.84190 -0.18000
C 	C 	0.49050 0.69680 0.84880 0.27500
C 	C 	0.53470 0.63400 0.93810 -0.21300
C 	C 	0.61540 0.65740 0.01710 0.02900
C 	C 	0.65930 0.59430 0.11800 0.30700
C 	C 	0.65610 0.74570 0.00900 -0.07000
C 	C 	0.95260 0.87820 0.11690 0.30900
C 	C 	0.04230 0.84430 0.15980 0.02800
C 	C 	0.07640 0.76940 0.24010 -0.08200
C 	C 	0.16050 0.74320 0.28560 0.02700
C 	C 	0.19660 0.66230 0.37220 0.31100
C 	C 	0.21120 0.79110 0.25240 -0.21300
C 	C 	0.17770 0.86630 0.17300 0.25200
C 	C 	0.09240 0.89140 0.12670 -0.20900
O 	O 	0.61600 0.95780 0.82700 -0.46800
O 	O 	0.73180 0.91410 0.97650 -0.47100
O 	O 	0.41190 0.67710 0.77030 -0.50000
O 	O 	0.62220 0.51180 0.11810 -0.44800
O 	O 	0.72570 0.62390 0.19350 -0.28800
O 	O 	0.92360 0.94200 0.04070 -0.42800
O 	O 	0.91150 0.84640 0.15730 -0.26400
O 	O 	0.14500 0.61770 0.39200 -0.44300
O 	O 	0.27120 0.64050 0.41700 -0.29500
O 	O 	0.22750 0.91520 0.14170 -0.64900
H 	H 	0.38047 0.75447 0.75041 0.12500
H 	H 	0.77250 0.16217 0.88578 0.09400
Zn	Zn	0.81790 0.48622 0.49818 1.23500
Zn	Zn	0.34551 0.55293 0.74626 1.23000
H 	H 	0.50150 0.66920 0.28480 0.11400
H 	H 	0.50910 0.92540 0.44470 0.11600
H 	H 	0.71040 0.73810 0.56220 0.09300
H 	H 	0.04280 0.76250 0.76270 0.09700
H 	H 	0.26760 0.72720 0.78330 0.09100
H 	H 	0.06920 0.55950 0.57280 0.11700
C 	C 	0.65710 0.59950 0.40650 0.38100
C 	C 	0.61350 0.69080 0.41940 -0.00600
C 	C 	0.53050 0.71400 0.34190 -0.17900
C 	C 	0.49050 0.80320 0.34880 0.27400
C 	C 	0.53470 0.86600 0.43810 -0.21500
C 	C 	0.61540 0.84260 0.51710 0.02900
C 	C 	0.65930 0.90570 0.61800 0.30700
C 	C 	0.65610 0.75430 0.50900 -0.06400
C 	C 	0.95260 0.62180 0.61690 0.30100
C 	C 	0.04230 0.65570 0.65980 0.03900
C 	C 	0.07640 0.73060 0.74010 -0.08800
C 	C 	0.16050 0.75680 0.78560 0.03100
C 	C 	0.19660 0.83770 0.87220 0.31000
C 	C 	0.21120 0.70890 0.75240 -0.21600
C 	C 	0.17770 0.63370 0.67300 0.25600
C 	C 	0.09240 0.60860 0.62670 -0.21500
O 	O 	0.61600 0.54220 0.32700 -0.47200
O 	O 	0.73180 0.58590 0.47650 -0.47500
O 	O 	0.41190 0.82290 0.27030 -0.50100
O 	O 	0.62220 0.98820 0.61810 -0.44600
O 	O 	0.72570 0.87610 0.69350 -0.28600
O 	O 	0.92360 0.55800 0.54070 -0.42900
O 	O 	0.91150 0.65360 0.65730 -0.26200
O 	O 	0.14500 0.88230 0.89200 -0.43800
O 	O 	0.27120 0.85950 0.91700 -0.29200
O 	O 	0.22750 0.58480 0.64170 -0.64700
H 	H 	0.38047 0.74553 0.25041 0.12400
H 	H 	0.77250 0.33783 0.38578 0.09500
Zn	Zn	0.18210 0.98622 0.00182 1.23100
Zn	Zn	0.65449 0.05293 0.75374 1.22900
H 	H 	0.49850 0.16920 0.21520 0.11500
H 	H 	0.49090 0.42540 0.05530 0.11600
H 	H 	0.28960 0.23810 0.93780 0.09400
H 	H 	0.95720 0.26250 0.73730 0.09200
H 	H 	0.73240 0.22720 0.71670 0.08900
H 	H 	0.93080 0.05950 0.92720 0.11200
C 	C 	0.34290 0.09950 0.09350 0.37900
C 	C 	0.38650 0.19080 0.08060 -0.00000
C 	C 	0.46950 0.21400 0.15810 -0.18000
C 	C 	0.50950 0.30320 0.15120 0.27500
C 	C 	0.46530 0.36600 0.06190 -0.21300
C 	C 	0.38460 0.34260 0.98290 0.02900
C 	C 	0.34070 0.40570 0.88200 0.30700
C 	C 	0.34390 0.25430 0.99100 -0.07000
C 	C 	0.04740 0.12180 0.88310 0.30900
C 	C 	0.95770 0.15570 0.84020 0.02800
C 	C 	0.92360 0.23060 0.75990 -0.08200
C 	C 	0.83950 0.25680 0.71440 0.02700
C 	C 	0.80340 0.33770 0.62780 0.31100
C 	C 	0.78880 0.20890 0.74760 -0.21300
C 	C 	0.82230 0.13370 0.82700 0.25200
C 	C 	0.90760 0.10860 0.87330 -0.20900
O 	O 	0.38400 0.04220 0.17300 -0.46800
O 	O 	0.26820 0.08590 0.02350 -0.47100
O 	O 	0.58810 0.32290 0.22970 -0.50000
O 	O 	0.37780 0.48820 0.88190 -0.44800
O 	O 	0.27430 0.37610 0.80650 -0.28800
O 	O 	0.07640 0.05800 0.95930 -0.42800
O 	O 	0.08850 0.15360 0.84270 -0.26400
O 	O 	0.85500 0.38230 0.60800 -0.44300
O 	O 	0.72880 0.35950 0.58300 -0.29500
O 	O 	0.77250 0.08480 0.85830 -0.64900
H 	H 	0.61953 0.24553 0.24959 0.12500
H 	H 	0.22750 0.83783 0.11422 0.09400
