data_crystal

_cell_length_a 6.23120
_cell_length_b 9.36600
_cell_length_c 9.45000
_cell_angle_alpha 103.67000
_cell_angle_beta  108.54100
_cell_angle_gamma 95.22900

_symmetry_space_group_name_	'P 1'
_symmetry_space_group_name_H-M	'P 1'

loop_
_symmetry_equiv_pos_as_xyz
  x,y,z

loop_
_atom_site_label
_atom_site_type_symbol
_atom_site_fract_x
_atom_site_fract_y
_atom_site_fract_z
_atom_site_charge
Mo	Mo	0.63653 0.26932 0.32193 1.12300
Mo	Mo	0.29176 0.36401 0.50893 1.12400
Cu	Cu	0.55129 0.87025 0.13525 0.95000
O 	O 	0.66320 0.11500 0.39920 -0.74600
O 	O 	0.33400 0.28110 0.30370 -0.56800
O 	O 	0.65230 0.42180 0.55060 -0.69000
O 	O 	0.98510 0.33720 0.41260 -0.57100
O 	O 	0.66610 0.49570 0.30990 -0.53200
N 	N 	0.24540 0.92720 0.30230 -0.38100
N 	N 	0.03190 0.92950 0.30360 -0.33500
C 	C 	0.88340 0.88350 0.15680 0.71300
C 	C 	0.24130 0.88250 0.15710 1.00600
C 	C 	0.01360 0.85460 0.06300 -0.87900
H 	H 	0.95730 0.82200 0.95490 0.30700
H 	H 	0.74200 0.42800 0.63700 0.26200
H 	H 	0.34700 0.88000 0.13100 -0.77500
H 	H 	0.75000 0.88700 0.11900 -0.60200
N 	N 	0.11660 0.11650 0.84320 -0.00200
Mo	Mo	0.36347 0.73068 0.67807 1.14400
Mo	Mo	0.70824 0.63599 0.49107 1.13400
Cu	Cu	0.44871 0.12975 0.86475 0.84700
O 	O 	0.33680 0.88500 0.60080 -0.59300
O 	O 	0.66600 0.71890 0.69630 -0.53000
O 	O 	0.34770 0.57820 0.44940 -0.68600
O 	O 	0.01490 0.66280 0.58740 -0.53200
O 	O 	0.33390 0.50430 0.69010 -0.53300
N 	N 	0.75460 0.07280 0.69770 -0.40200
N 	N 	0.96810 0.07050 0.69640 -0.27900
C 	C 	0.75870 0.11750 0.84290 0.66100
C 	C 	0.98640 0.14540 0.93700 -0.52900
H 	H 	0.04270 0.17800 0.04510 0.16800
H 	H 	0.25800 0.57200 0.36300 0.26700
H 	H 	0.65300 0.12000 0.86900 -0.66300
H 	H 	0.25000 0.11300 0.88100 -0.29400
Cu	Cu	0.50000 -0.00000 0.50000 0.73100
Cu	Cu	0.00000 -0.00000 0.50000 0.68500
