data_crystal

_cell_length_a 18.96100
_cell_length_b 18.96100
_cell_length_c 50.90100
_cell_angle_alpha 90.00000
_cell_angle_beta  90.00000
_cell_angle_gamma 120.00000

_symmetry_space_group_name_	'P 1'
_symmetry_space_group_name_H-M	'P 1'

loop_
_symmetry_equiv_pos_as_xyz
  x,y,z

loop_
_atom_site_label
_atom_site_type_symbol
_atom_site_fract_x
_atom_site_fract_y
_atom_site_fract_z
_atom_site_charge
Cu	Cu	0.47785 0.52214 0.02190 0.90500
Cu	Cu	0.04429 0.52215 0.02190 0.90400
Cu	Cu	0.47785 0.95571 0.02190 0.90400
Cu	Cu	0.95571 0.47786 0.97810 0.90400
Cu	Cu	0.52214 0.47785 0.97810 0.90500
Cu	Cu	0.52214 0.04429 0.97810 0.90400
H 	H 	0.80230 0.79820 0.81620 0.04400
H 	H 	0.73880 0.76400 0.85630 0.06300
H 	H 	0.61430 0.70080 0.93590 0.06100
H 	H 	0.99590 0.19770 0.81620 0.04200
H 	H 	0.02520 0.26120 0.85630 0.06400
H 	H 	0.08650 0.38570 0.93590 0.06100
H 	H 	0.20180 0.00410 0.81620 0.04200
H 	H 	0.23600 0.97480 0.85630 0.06500
H 	H 	0.29920 0.91350 0.93590 0.06100
H 	H 	0.00410 0.20180 0.18380 0.04200
H 	H 	0.97480 0.23600 0.14370 0.06500
H 	H 	0.91350 0.29920 0.06410 0.06100
H 	H 	0.79820 0.80230 0.18380 0.04400
H 	H 	0.76400 0.73880 0.14370 0.06300
H 	H 	0.70080 0.61430 0.06410 0.06100
H 	H 	0.19770 0.99590 0.18380 0.04200
H 	H 	0.26120 0.02520 0.14370 0.06400
H 	H 	0.38570 0.08650 0.06410 0.06100
H 	H 	0.19770 0.20180 0.18380 0.04400
H 	H 	0.26120 0.23600 0.14370 0.06300
H 	H 	0.38570 0.29920 0.06410 0.06100
H 	H 	0.00410 0.80230 0.18380 0.04200
H 	H 	0.97480 0.73880 0.14370 0.06400
H 	H 	0.91350 0.61430 0.06410 0.06100
H 	H 	0.79820 0.99590 0.18380 0.04200
H 	H 	0.76400 0.02520 0.14370 0.06500
H 	H 	0.70080 0.08650 0.06410 0.06000
H 	H 	0.99590 0.79820 0.81620 0.04100
H 	H 	0.02520 0.76400 0.85630 0.06400
H 	H 	0.08650 0.70080 0.93590 0.06000
H 	H 	0.20180 0.19770 0.81620 0.04300
H 	H 	0.23600 0.26120 0.85630 0.06200
H 	H 	0.29920 0.38570 0.93590 0.06000
H 	H 	0.80230 0.00410 0.81620 0.04100
H 	H 	0.73880 0.97480 0.85630 0.06300
H 	H 	0.61430 0.91350 0.93590 0.06000
H 	H 	0.52800 0.76400 0.99840 0.05300
H 	H 	0.23600 0.47200 0.99840 0.05300
H 	H 	0.23600 0.76400 0.99840 0.05300
H 	H 	0.76400 0.23600 0.00160 0.05300
H 	H 	0.76400 0.52800 0.00160 0.05300
H 	H 	0.47200 0.23600 0.00160 0.05300
C 	C 	0.78870 0.83380 0.82430 -0.03400
C 	C 	0.75040 0.81260 0.84820 -0.08200
C 	C 	0.60380 0.73800 0.94443 -0.02900
C 	C 	0.56840 0.72040 0.96968 -0.07900
C 	C 	0.54530 0.63990 0.98140 0.35600
C 	C 	0.04510 0.21130 0.82430 -0.03100
C 	C 	0.06220 0.24960 0.84820 -0.08300
C 	C 	0.13420 0.39620 0.94443 -0.02900
C 	C 	0.15200 0.43160 0.96968 -0.07900
C 	C 	0.09460 0.45470 0.98140 0.35600
C 	C 	0.16620 0.95490 0.82430 -0.02900
C 	C 	0.18740 0.93780 0.84820 -0.08500
C 	C 	0.26200 0.86580 0.94443 -0.02900
C 	C 	0.27960 0.84800 0.96968 -0.07900
C 	C 	0.36010 0.90540 0.98140 0.35600
C 	C 	0.95490 0.16620 0.17570 -0.02900
C 	C 	0.93780 0.18740 0.15180 -0.08500
C 	C 	0.86580 0.26200 0.05557 -0.02900
C 	C 	0.84800 0.27960 0.03032 -0.07900
C 	C 	0.90540 0.36010 0.01860 0.35600
C 	C 	0.83380 0.78870 0.17570 -0.03400
C 	C 	0.81260 0.75040 0.15180 -0.08200
C 	C 	0.73800 0.60380 0.05557 -0.02900
C 	C 	0.72040 0.56840 0.03032 -0.07900
C 	C 	0.63990 0.54530 0.01860 0.35600
C 	C 	0.21130 0.04510 0.17570 -0.03100
C 	C 	0.24960 0.06220 0.15180 -0.08300
C 	C 	0.39620 0.13420 0.05557 -0.02900
C 	C 	0.43160 0.15200 0.03032 -0.07900
C 	C 	0.45470 0.09460 0.01860 0.35600
C 	C 	0.21130 0.16620 0.17570 -0.03400
C 	C 	0.24960 0.18740 0.15180 -0.08200
C 	C 	0.39620 0.26200 0.05557 -0.02900
C 	C 	0.43160 0.27960 0.03032 -0.07900
C 	C 	0.45470 0.36010 0.01860 0.35600
C 	C 	0.95490 0.78870 0.17570 -0.03100
C 	C 	0.93780 0.75040 0.15180 -0.08300
C 	C 	0.86580 0.60380 0.05557 -0.02900
C 	C 	0.84800 0.56840 0.03032 -0.07900
C 	C 	0.90540 0.54530 0.01860 0.35600
C 	C 	0.83380 0.04510 0.17570 -0.02900
C 	C 	0.81260 0.06220 0.15180 -0.08500
C 	C 	0.73800 0.13420 0.05557 -0.02900
C 	C 	0.72040 0.15200 0.03032 -0.07900
C 	C 	0.63990 0.09460 0.01860 0.35600
C 	C 	0.04510 0.83380 0.82430 -0.02900
C 	C 	0.06220 0.81260 0.84820 -0.08500
C 	C 	0.13420 0.73800 0.94443 -0.02900
C 	C 	0.15200 0.72040 0.96968 -0.07900
C 	C 	0.09460 0.63990 0.98140 0.35600
C 	C 	0.16620 0.21130 0.82430 -0.03400
C 	C 	0.18740 0.24960 0.84820 -0.08200
C 	C 	0.26200 0.39620 0.94443 -0.02900
C 	C 	0.27960 0.43160 0.96968 -0.07900
C 	C 	0.36010 0.45470 0.98140 0.35600
C 	C 	0.78870 0.95490 0.82430 -0.03100
C 	C 	0.75040 0.93780 0.84820 -0.08300
C 	C 	0.60380 0.86580 0.94443 -0.02900
C 	C 	0.56840 0.84800 0.96968 -0.07900
C 	C 	0.54530 0.90540 0.98140 0.35600
C 	C 	0.80740 0.90370 0.81210 0.00300
C 	C 	0.72970 0.86485 0.85990 0.05300
C 	C 	0.68910 0.84455 0.88600 -0.03000
C 	C 	0.65850 0.82925 0.90630 -0.00500
C 	C 	0.62320 0.81160 0.93220 0.01500
C 	C 	0.55140 0.77570 0.98170 0.02500
C 	C 	0.09630 0.19260 0.81210 0.00300
C 	C 	0.13515 0.27030 0.85990 0.05300
C 	C 	0.15545 0.31090 0.88600 -0.03000
C 	C 	0.17075 0.34150 0.90630 -0.00500
C 	C 	0.18840 0.37680 0.93220 0.01500
C 	C 	0.22430 0.44860 0.98170 0.02500
C 	C 	0.09630 0.90370 0.81210 0.00100
C 	C 	0.13515 0.86485 0.85990 0.05500
C 	C 	0.15545 0.84455 0.88600 -0.03100
C 	C 	0.17075 0.82925 0.90630 -0.00400
C 	C 	0.18840 0.81160 0.93220 0.01500
C 	C 	0.22430 0.77570 0.98170 0.02500
C 	C 	0.90370 0.09630 0.18790 0.00100
C 	C 	0.86485 0.13515 0.14010 0.05500
C 	C 	0.84455 0.15545 0.11400 -0.03100
C 	C 	0.82925 0.17075 0.09370 -0.00400
C 	C 	0.81160 0.18840 0.06780 0.01500
C 	C 	0.77570 0.22430 0.01830 0.02500
C 	C 	0.90370 0.80740 0.18790 0.00300
C 	C 	0.86485 0.72970 0.14010 0.05300
C 	C 	0.84455 0.68910 0.11400 -0.03000
C 	C 	0.82925 0.65850 0.09370 -0.00500
C 	C 	0.81160 0.62320 0.06780 0.01500
C 	C 	0.77570 0.55140 0.01830 0.02500
C 	C 	0.19260 0.09630 0.18790 0.00300
C 	C 	0.27030 0.13515 0.14010 0.05300
C 	C 	0.31090 0.15545 0.11400 -0.03000
C 	C 	0.34150 0.17075 0.09370 -0.00500
C 	C 	0.37680 0.18840 0.06780 0.01500
C 	C 	0.44860 0.22430 0.01830 0.02500
O 	O 	0.51650 0.62780 0.00469 -0.39700
O 	O 	0.55530 0.59060 0.96815 -0.41100
O 	O 	0.11130 0.48350 0.00469 -0.39700
O 	O 	0.03530 0.44470 0.96815 -0.41100
O 	O 	0.37220 0.88870 0.00469 -0.39700
O 	O 	0.40940 0.96470 0.96815 -0.41100
O 	O 	0.88870 0.37220 0.99531 -0.39700
O 	O 	0.96470 0.40940 0.03185 -0.41100
O 	O 	0.62780 0.51650 0.99531 -0.39700
O 	O 	0.59060 0.55530 0.03185 -0.41100
O 	O 	0.48350 0.11130 0.99531 -0.39700
O 	O 	0.44470 0.03530 0.03185 -0.41100
O 	O 	0.48350 0.37220 0.99531 -0.39700
O 	O 	0.44470 0.40940 0.03185 -0.41100
O 	O 	0.88870 0.51650 0.99531 -0.39700
O 	O 	0.96470 0.55530 0.03185 -0.41100
O 	O 	0.62780 0.11130 0.99531 -0.39700
O 	O 	0.59060 0.03530 0.03185 -0.41100
O 	O 	0.11130 0.62780 0.00469 -0.39700
O 	O 	0.03530 0.59060 0.96815 -0.41100
O 	O 	0.37220 0.48350 0.00469 -0.39700
O 	O 	0.40940 0.44470 0.96815 -0.41100
O 	O 	0.51650 0.88870 0.00469 -0.39700
O 	O 	0.55530 0.96470 0.96815 -0.41100
Cu	Cu	0.52214 0.47785 0.52190 0.90400
Cu	Cu	0.95571 0.47786 0.52190 0.90300
Cu	Cu	0.52214 0.04429 0.52190 0.90300
Cu	Cu	0.04429 0.52215 0.47810 0.90300
Cu	Cu	0.47785 0.52214 0.47810 0.90400
Cu	Cu	0.47785 0.95571 0.47810 0.90300
H 	H 	0.19770 0.20180 0.31620 0.04300
H 	H 	0.26120 0.23600 0.35630 0.06200
H 	H 	0.38570 0.29920 0.43590 0.06000
H 	H 	0.00410 0.80230 0.31620 0.04100
H 	H 	0.97480 0.73880 0.35630 0.06300
H 	H 	0.91350 0.61430 0.43590 0.06000
H 	H 	0.79820 0.99590 0.31620 0.04100
H 	H 	0.76400 0.02520 0.35630 0.06400
H 	H 	0.70080 0.08650 0.43590 0.06000
H 	H 	0.99590 0.79820 0.68380 0.04100
H 	H 	0.02520 0.76400 0.64370 0.06400
H 	H 	0.08650 0.70080 0.56410 0.06000
H 	H 	0.20180 0.19770 0.68380 0.04300
H 	H 	0.23600 0.26120 0.64370 0.06200
H 	H 	0.29920 0.38570 0.56410 0.06000
H 	H 	0.80230 0.00410 0.68380 0.04100
H 	H 	0.73880 0.97480 0.64370 0.06300
H 	H 	0.61430 0.91350 0.56410 0.06000
H 	H 	0.80230 0.79820 0.68380 0.04300
H 	H 	0.73880 0.76400 0.64370 0.06200
H 	H 	0.61430 0.70080 0.56410 0.06000
H 	H 	0.99590 0.19770 0.68380 0.04100
H 	H 	0.02520 0.26120 0.64370 0.06300
H 	H 	0.08650 0.38570 0.56410 0.06000
H 	H 	0.20180 0.00410 0.68380 0.04100
H 	H 	0.23600 0.97480 0.64370 0.06400
H 	H 	0.29920 0.91350 0.56410 0.06000
H 	H 	0.00410 0.20180 0.31620 0.04100
H 	H 	0.97480 0.23600 0.35630 0.06400
H 	H 	0.91350 0.29920 0.43590 0.06000
H 	H 	0.79820 0.80230 0.31620 0.04300
H 	H 	0.76400 0.73880 0.35630 0.06200
H 	H 	0.70080 0.61430 0.43590 0.06000
H 	H 	0.19770 0.99590 0.31620 0.04100
H 	H 	0.26120 0.02520 0.35630 0.06300
H 	H 	0.38570 0.08650 0.43590 0.06000
H 	H 	0.47200 0.23600 0.49840 0.05300
H 	H 	0.76400 0.52800 0.49840 0.05300
H 	H 	0.76400 0.23600 0.49840 0.05300
H 	H 	0.23600 0.76400 0.50160 0.05300
H 	H 	0.23600 0.47200 0.50160 0.05300
H 	H 	0.52800 0.76400 0.50160 0.05300
C 	C 	0.21130 0.16620 0.32430 -0.03400
C 	C 	0.24960 0.18740 0.34820 -0.08200
C 	C 	0.39620 0.26200 0.44443 -0.02900
C 	C 	0.43160 0.27960 0.46968 -0.07900
C 	C 	0.45470 0.36010 0.48140 0.35600
C 	C 	0.95490 0.78870 0.32430 -0.03100
C 	C 	0.93780 0.75040 0.34820 -0.08300
C 	C 	0.86580 0.60380 0.44443 -0.02900
C 	C 	0.84800 0.56840 0.46968 -0.07900
C 	C 	0.90540 0.54530 0.48140 0.35600
C 	C 	0.83380 0.04510 0.32430 -0.02900
C 	C 	0.81260 0.06220 0.34820 -0.08500
C 	C 	0.73800 0.13420 0.44443 -0.02900
C 	C 	0.72040 0.15200 0.46968 -0.07900
C 	C 	0.63990 0.09460 0.48140 0.35600
C 	C 	0.04510 0.83380 0.67570 -0.02900
C 	C 	0.06220 0.81260 0.65180 -0.08500
C 	C 	0.13420 0.73800 0.55557 -0.02900
C 	C 	0.15200 0.72040 0.53032 -0.07900
C 	C 	0.09460 0.63990 0.51860 0.35600
C 	C 	0.16620 0.21130 0.67570 -0.03400
C 	C 	0.18740 0.24960 0.65180 -0.08200
C 	C 	0.26200 0.39620 0.55557 -0.02900
C 	C 	0.27960 0.43160 0.53032 -0.07900
C 	C 	0.36010 0.45470 0.51860 0.35600
C 	C 	0.78870 0.95490 0.67570 -0.03100
C 	C 	0.75040 0.93780 0.65180 -0.08300
C 	C 	0.60380 0.86580 0.55557 -0.02900
C 	C 	0.56840 0.84800 0.53032 -0.07900
C 	C 	0.54530 0.90540 0.51860 0.35600
C 	C 	0.78870 0.83380 0.67570 -0.03400
C 	C 	0.75040 0.81260 0.65180 -0.08200
C 	C 	0.60380 0.73800 0.55557 -0.02900
C 	C 	0.56840 0.72040 0.53032 -0.07900
C 	C 	0.54530 0.63990 0.51860 0.35600
C 	C 	0.04510 0.21130 0.67570 -0.03100
C 	C 	0.06220 0.24960 0.65180 -0.08300
C 	C 	0.13420 0.39620 0.55557 -0.02900
C 	C 	0.15200 0.43160 0.53032 -0.07900
C 	C 	0.09460 0.45470 0.51860 0.35600
C 	C 	0.16620 0.95490 0.67570 -0.02900
C 	C 	0.18740 0.93780 0.65180 -0.08500
C 	C 	0.26200 0.86580 0.55557 -0.02900
C 	C 	0.27960 0.84800 0.53032 -0.07900
C 	C 	0.36010 0.90540 0.51860 0.35600
C 	C 	0.95490 0.16620 0.32430 -0.02900
C 	C 	0.93780 0.18740 0.34820 -0.08500
C 	C 	0.86580 0.26200 0.44443 -0.02900
C 	C 	0.84800 0.27960 0.46968 -0.07900
C 	C 	0.90540 0.36010 0.48140 0.35600
C 	C 	0.83380 0.78870 0.32430 -0.03400
C 	C 	0.81260 0.75040 0.34820 -0.08200
C 	C 	0.73800 0.60380 0.44443 -0.02900
C 	C 	0.72040 0.56840 0.46968 -0.07900
C 	C 	0.63990 0.54530 0.48140 0.35600
C 	C 	0.21130 0.04510 0.32430 -0.03100
C 	C 	0.24960 0.06220 0.34820 -0.08300
C 	C 	0.39620 0.13420 0.44443 -0.02900
C 	C 	0.43160 0.15200 0.46968 -0.07900
C 	C 	0.45470 0.09460 0.48140 0.35600
C 	C 	0.19260 0.09630 0.31210 0.00300
C 	C 	0.27030 0.13515 0.35990 0.05300
C 	C 	0.31090 0.15545 0.38600 -0.03000
C 	C 	0.34150 0.17075 0.40630 -0.00500
C 	C 	0.37680 0.18840 0.43220 0.01500
C 	C 	0.44860 0.22430 0.48170 0.02500
C 	C 	0.90370 0.80740 0.31210 0.00300
C 	C 	0.86485 0.72970 0.35990 0.05300
C 	C 	0.84455 0.68910 0.38600 -0.03000
C 	C 	0.82925 0.65850 0.40630 -0.00500
C 	C 	0.81160 0.62320 0.43220 0.01500
C 	C 	0.77570 0.55140 0.48170 0.02500
C 	C 	0.90370 0.09630 0.31210 0.00100
C 	C 	0.86485 0.13515 0.35990 0.05500
C 	C 	0.84455 0.15545 0.38600 -0.03100
C 	C 	0.82925 0.17075 0.40630 -0.00400
C 	C 	0.81160 0.18840 0.43220 0.01500
C 	C 	0.77570 0.22430 0.48170 0.02500
C 	C 	0.09630 0.90370 0.68790 0.00100
C 	C 	0.13515 0.86485 0.64010 0.05500
C 	C 	0.15545 0.84455 0.61400 -0.03100
C 	C 	0.17075 0.82925 0.59370 -0.00400
C 	C 	0.18840 0.81160 0.56780 0.01500
C 	C 	0.22430 0.77570 0.51830 0.02500
C 	C 	0.09630 0.19260 0.68790 0.00300
C 	C 	0.13515 0.27030 0.64010 0.05300
C 	C 	0.15545 0.31090 0.61400 -0.03000
C 	C 	0.17075 0.34150 0.59370 -0.00500
C 	C 	0.18840 0.37680 0.56780 0.01500
C 	C 	0.22430 0.44860 0.51830 0.02500
C 	C 	0.80740 0.90370 0.68790 0.00300
C 	C 	0.72970 0.86485 0.64010 0.05300
C 	C 	0.68910 0.84455 0.61400 -0.03000
C 	C 	0.65850 0.82925 0.59370 -0.00500
C 	C 	0.62320 0.81160 0.56780 0.01500
C 	C 	0.55140 0.77570 0.51830 0.02500
O 	O 	0.48350 0.37220 0.50469 -0.39700
O 	O 	0.44470 0.40940 0.46815 -0.41100
O 	O 	0.88870 0.51650 0.50469 -0.39700
O 	O 	0.96470 0.55530 0.46815 -0.41100
O 	O 	0.62780 0.11130 0.50469 -0.39700
O 	O 	0.59060 0.03530 0.46815 -0.41100
O 	O 	0.11130 0.62780 0.49531 -0.39700
O 	O 	0.03530 0.59060 0.53185 -0.41100
O 	O 	0.37220 0.48350 0.49531 -0.39700
O 	O 	0.40940 0.44470 0.53185 -0.41100
O 	O 	0.51650 0.88870 0.49531 -0.39700
O 	O 	0.55530 0.96470 0.53185 -0.41100
O 	O 	0.51650 0.62780 0.49531 -0.39700
O 	O 	0.55530 0.59060 0.53185 -0.41100
O 	O 	0.11130 0.48350 0.49531 -0.39700
O 	O 	0.03530 0.44470 0.53185 -0.41100
O 	O 	0.37220 0.88870 0.49531 -0.39700
O 	O 	0.40940 0.96470 0.53185 -0.41100
O 	O 	0.88870 0.37220 0.50469 -0.39700
O 	O 	0.96470 0.40940 0.46815 -0.41100
O 	O 	0.62780 0.51650 0.50469 -0.39700
O 	O 	0.59060 0.55530 0.46815 -0.41100
O 	O 	0.48350 0.11130 0.50469 -0.39700
O 	O 	0.44470 0.03530 0.46815 -0.41100
