data_crystal

_cell_length_a 18.80280
_cell_length_b 18.80280
_cell_length_c 51.88300
_cell_angle_alpha 90.00000
_cell_angle_beta  90.00000
_cell_angle_gamma 120.00000

_symmetry_space_group_name_	'P 1'
_symmetry_space_group_name_H-M	'P 1'

loop_
_symmetry_equiv_pos_as_xyz
  x,y,z

loop_
_atom_site_label
_atom_site_type_symbol
_atom_site_fract_x
_atom_site_fract_y
_atom_site_fract_z
_atom_site_charge
Cu	Cu	0.04586 0.52293 0.02120 0.90200
Cu	Cu	0.52293 0.47707 0.52120 0.90200
Cu	Cu	0.88018 0.94009 0.25000 0.90500
Cu	Cu	0.47707 0.52293 0.47880 0.90200
Cu	Cu	0.94009 0.88018 0.75000 0.90500
Cu	Cu	0.47707 0.52293 0.02120 0.90200
Cu	Cu	0.95414 0.47707 0.97880 0.90100
Cu	Cu	0.52293 0.04586 0.52120 0.90100
Cu	Cu	0.52293 0.47707 0.97880 0.90100
Cu	Cu	0.05991 0.11982 0.25000 0.90400
Cu	Cu	0.94009 0.05991 0.75000 0.90100
Cu	Cu	0.04586 0.52293 0.47880 0.90100
Cu	Cu	0.47707 0.95414 0.47880 0.90100
Cu	Cu	0.95414 0.47707 0.52120 0.90100
Cu	Cu	0.47707 0.95414 0.02120 0.90100
Cu	Cu	0.05991 0.94009 0.25000 0.90100
Cu	Cu	0.11982 0.05991 0.75000 0.90400
Cu	Cu	0.52293 0.04586 0.97880 0.90100
H 	H 	0.08670 0.38530 0.93590 0.06400
H 	H 	0.23520 0.76480 0.50310 0.06100
H 	H 	0.99650 0.79390 0.81640 0.00200
H 	H 	0.38530 0.29860 0.06410 0.06300
H 	H 	0.23810 0.26150 0.85730 0.09600
H 	H 	0.20610 0.20260 0.68360 0.01200
H 	H 	0.26150 0.23810 0.14270 0.09600
H 	H 	0.97660 0.73850 0.35730 0.09900
H 	H 	0.70140 0.61470 0.43590 0.06300
H 	H 	0.61470 0.70140 0.56410 0.06300
H 	H 	0.73850 0.76190 0.85730 0.09600
H 	H 	0.23810 0.97660 0.85730 0.10100
H 	H 	0.91330 0.29860 0.06410 0.06400
H 	H 	0.23520 0.76480 0.99690 0.06100
H 	H 	0.79390 0.79740 0.31640 0.01200
H 	H 	0.08670 0.38530 0.56410 0.06400
H 	H 	0.26150 0.23810 0.35730 0.09600
H 	H 	0.99650 0.20260 0.81640 0.00400
H 	H 	0.61470 0.91330 0.56410 0.06400
H 	H 	0.91330 0.29860 0.43590 0.06400
H 	H 	0.29860 0.38530 0.93590 0.06300
H 	H 	0.29860 0.91330 0.56410 0.06400
H 	H 	0.70140 0.61470 0.06410 0.06300
H 	H 	0.29860 0.91330 0.93590 0.06400
H 	H 	0.97660 0.73850 0.14270 0.09900
H 	H 	0.08670 0.70140 0.93590 0.06400
H 	H 	0.38530 0.29860 0.43590 0.06300
H 	H 	0.76190 0.73850 0.35730 0.09600
H 	H 	0.00350 0.79740 0.31640 0.00400
H 	H 	0.00350 0.20610 0.18360 0.00200
H 	H 	0.29860 0.38530 0.56410 0.06300
H 	H 	0.79390 0.79740 0.18360 0.01200
H 	H 	0.99650 0.79390 0.68360 0.00200
H 	H 	0.73850 0.97660 0.85730 0.09900
H 	H 	0.79740 0.79390 0.81640 0.01200
H 	H 	0.79740 0.79390 0.68360 0.01200
H 	H 	0.99650 0.20260 0.68360 0.00400
H 	H 	0.76480 0.23520 0.49690 0.06100
H 	H 	0.61470 0.91330 0.93590 0.06400
H 	H 	0.79390 0.99650 0.31640 0.00200
H 	H 	0.02340 0.26150 0.64270 0.09900
H 	H 	0.38530 0.08670 0.06410 0.06400
H 	H 	0.52960 0.76480 0.99690 0.06100
H 	H 	0.23810 0.26150 0.64270 0.09600
H 	H 	0.26150 0.02340 0.14270 0.09900
H 	H 	0.91330 0.61470 0.06410 0.06400
H 	H 	0.47040 0.23520 0.00310 0.06100
H 	H 	0.97660 0.23810 0.35730 0.10100
H 	H 	0.23810 0.97660 0.64270 0.10100
H 	H 	0.76190 0.73850 0.14270 0.09600
H 	H 	0.20260 0.99650 0.31640 0.00400
H 	H 	0.76480 0.52960 0.49690 0.06100
H 	H 	0.20610 0.00350 0.81640 0.00200
H 	H 	0.20260 0.20610 0.31640 0.01200
H 	H 	0.73850 0.76190 0.64270 0.09600
H 	H 	0.76190 0.02340 0.35730 0.10100
H 	H 	0.70140 0.08670 0.06410 0.06400
H 	H 	0.02340 0.76190 0.64270 0.10100
H 	H 	0.61470 0.70140 0.93590 0.06300
H 	H 	0.70140 0.08670 0.43590 0.06400
H 	H 	0.76190 0.02340 0.14270 0.10100
H 	H 	0.20260 0.20610 0.18360 0.01200
H 	H 	0.23520 0.47040 0.50310 0.06100
H 	H 	0.52960 0.76480 0.50310 0.06100
H 	H 	0.76480 0.52960 0.00310 0.06100
H 	H 	0.20260 0.99650 0.18360 0.00400
H 	H 	0.97660 0.23810 0.14270 0.10100
H 	H 	0.47040 0.23520 0.49690 0.06100
H 	H 	0.91330 0.61470 0.43590 0.06400
H 	H 	0.26150 0.02340 0.35730 0.09900
H 	H 	0.38530 0.08670 0.43590 0.06400
H 	H 	0.23520 0.47040 0.99690 0.06100
H 	H 	0.02340 0.26150 0.85730 0.09900
H 	H 	0.79740 0.00350 0.81640 0.00400
H 	H 	0.79390 0.99650 0.18360 0.00200
H 	H 	0.76480 0.23520 0.00310 0.06100
H 	H 	0.20610 0.20260 0.81640 0.01200
H 	H 	0.20610 0.00350 0.68360 0.00200
H 	H 	0.02340 0.76190 0.85730 0.10100
H 	H 	0.00350 0.20610 0.31640 0.00200
H 	H 	0.79740 0.00350 0.68360 0.00400
H 	H 	0.08670 0.70140 0.56410 0.06400
H 	H 	0.00350 0.79740 0.18360 0.00400
H 	H 	0.73850 0.97660 0.64270 0.09900
C 	C 	0.04550 0.83060 0.82446 0.12100
C 	C 	0.17005 0.34010 0.59390 0.01100
C 	C 	0.84800 0.56820 0.46832 -0.05900
C 	C 	0.73880 0.13530 0.05595 -0.03600
C 	C 	0.17005 0.34010 0.90610 0.01100
C 	C 	0.27980 0.43180 0.53168 -0.05900
C 	C 	0.86470 0.60350 0.05595 -0.03600
C 	C 	0.36130 0.90690 0.98136 0.34600
C 	C 	0.15455 0.30910 0.61390 -0.05800
C 	C 	0.07815 0.92185 0.71379 0.44500
C 	C 	0.84800 0.27980 0.46832 -0.05900
C 	C 	0.80400 0.90200 0.81160 -0.18500
C 	C 	0.93840 0.74820 0.15099 -0.17600
C 	C 	0.69090 0.84545 0.88610 -0.05800
C 	C 	0.90200 0.80400 0.31160 -0.18500
C 	C 	0.80980 0.74820 0.34901 -0.17200
C 	C 	0.06160 0.80980 0.65099 -0.18100
C 	C 	0.15200 0.43180 0.53168 -0.05900
C 	C 	0.13530 0.39650 0.55595 -0.03600
C 	C 	0.78510 0.83060 0.82446 0.10300
C 	C 	0.09310 0.63870 0.98136 0.34600
C 	C 	0.74820 0.93840 0.84901 -0.17600
C 	C 	0.63870 0.54560 0.48136 0.34600
C 	C 	0.74820 0.80980 0.65099 -0.17200
C 	C 	0.13530 0.39650 0.94405 -0.03600
C 	C 	0.73880 0.60350 0.44405 -0.03600
C 	C 	0.86470 0.26120 0.05595 -0.03600
C 	C 	0.77595 0.55190 0.01956 0.00400
C 	C 	0.36130 0.45440 0.98136 0.34600
C 	C 	0.84545 0.15455 0.11390 -0.06000
C 	C 	0.09310 0.45440 0.51864 0.34600
C 	C 	0.17005 0.82995 0.59390 0.01300
C 	C 	0.22405 0.77595 0.51956 0.00400
C 	C 	0.82995 0.17005 0.40610 0.01300
C 	C 	0.77595 0.22405 0.48044 0.00400
C 	C 	0.43180 0.27980 0.46832 -0.05900
C 	C 	0.39650 0.13530 0.05595 -0.03600
C 	C 	0.16940 0.21490 0.67554 0.10300
C 	C 	0.84370 0.92185 0.71379 0.44200
C 	C 	0.84545 0.69090 0.38610 -0.05800
C 	C 	0.27330 0.13665 0.13940 0.12300
C 	C 	0.74820 0.93840 0.65099 -0.17600
C 	C 	0.19600 0.09800 0.18840 -0.18500
C 	C 	0.19600 0.09800 0.31160 -0.18500
C 	C 	0.86470 0.60350 0.44405 -0.03600
C 	C 	0.13665 0.86335 0.63940 0.12900
C 	C 	0.27330 0.13665 0.36060 0.12300
C 	C 	0.84545 0.69090 0.11390 -0.05800
C 	C 	0.07815 0.92185 0.78621 0.44500
C 	C 	0.09310 0.63870 0.51864 0.34600
C 	C 	0.39650 0.13530 0.44405 -0.03600
C 	C 	0.60350 0.73880 0.55595 -0.03600
C 	C 	0.18885 0.81115 0.93169 0.01400
C 	C 	0.13530 0.73880 0.55595 -0.03600
C 	C 	0.22405 0.44810 0.51956 0.00400
C 	C 	0.43180 0.27980 0.03168 -0.05900
C 	C 	0.77595 0.22405 0.01956 0.00400
C 	C 	0.22405 0.44810 0.98044 0.00400
C 	C 	0.22405 0.77595 0.98044 0.00400
C 	C 	0.54560 0.63870 0.98136 0.34600
C 	C 	0.54560 0.90690 0.51864 0.34600
C 	C 	0.15200 0.72020 0.96832 -0.05900
C 	C 	0.09800 0.90200 0.81160 -0.19100
C 	C 	0.77595 0.55190 0.48044 0.00400
C 	C 	0.55190 0.77595 0.98044 0.00400
C 	C 	0.86470 0.26120 0.44405 -0.03600
C 	C 	0.73880 0.60350 0.05595 -0.03600
C 	C 	0.04550 0.21490 0.82446 0.11500
C 	C 	0.63870 0.54560 0.01864 0.34600
C 	C 	0.36130 0.45440 0.51864 0.34600
C 	C 	0.06160 0.25180 0.84901 -0.17600
C 	C 	0.18885 0.81115 0.56831 0.01400
C 	C 	0.78510 0.95450 0.82446 0.11500
C 	C 	0.80980 0.74820 0.15099 -0.17200
C 	C 	0.90200 0.80400 0.18840 -0.18500
C 	C 	0.93840 0.74820 0.34901 -0.17600
C 	C 	0.16940 0.95450 0.82446 0.12100
C 	C 	0.84800 0.27980 0.03168 -0.05900
C 	C 	0.19020 0.25180 0.65099 -0.17200
C 	C 	0.21490 0.04550 0.17554 0.11500
C 	C 	0.73880 0.13530 0.44405 -0.03600
C 	C 	0.60350 0.86470 0.94405 -0.03600
C 	C 	0.65990 0.82995 0.59390 0.01100
C 	C 	0.84800 0.56820 0.03168 -0.05900
C 	C 	0.90690 0.36130 0.48136 0.34600
C 	C 	0.95450 0.78510 0.32446 0.11500
C 	C 	0.26120 0.86470 0.55595 -0.03600
C 	C 	0.15630 0.07815 0.28621 0.44200
C 	C 	0.92185 0.84370 0.21379 0.44200
C 	C 	0.62230 0.81115 0.93169 0.01500
C 	C 	0.25180 0.06160 0.34901 -0.17600
C 	C 	0.27980 0.84800 0.96832 -0.05900
C 	C 	0.09310 0.45440 0.98136 0.34600
C 	C 	0.30910 0.15455 0.11390 -0.05800
C 	C 	0.83060 0.78510 0.32446 0.10300
C 	C 	0.80980 0.06160 0.34901 -0.18100
C 	C 	0.72670 0.86335 0.63940 0.12300
C 	C 	0.82995 0.17005 0.09390 0.01300
C 	C 	0.13665 0.86335 0.86060 0.12900
C 	C 	0.81115 0.18885 0.06831 0.01400
C 	C 	0.81115 0.62230 0.43169 0.01500
C 	C 	0.72670 0.86335 0.86060 0.12300
C 	C 	0.93840 0.19020 0.34901 -0.18100
C 	C 	0.86335 0.13665 0.13940 0.12900
C 	C 	0.07815 0.15630 0.78621 0.44200
C 	C 	0.07815 0.15630 0.71379 0.44200
C 	C 	0.25180 0.19020 0.15099 -0.17200
C 	C 	0.45440 0.09310 0.01864 0.34600
C 	C 	0.63870 0.09310 0.01864 0.34600
C 	C 	0.39650 0.26120 0.44405 -0.03600
C 	C 	0.44810 0.22405 0.48044 0.00400
C 	C 	0.16940 0.21490 0.82446 0.10300
C 	C 	0.04550 0.21490 0.67554 0.11500
C 	C 	0.27980 0.43180 0.96832 -0.05900
C 	C 	0.21490 0.16940 0.17554 0.10300
C 	C 	0.95450 0.16940 0.32446 0.12100
C 	C 	0.13665 0.27330 0.63940 0.12300
C 	C 	0.37770 0.18885 0.43169 0.01500
C 	C 	0.82995 0.65990 0.40610 0.01100
C 	C 	0.19020 0.93840 0.84901 -0.18100
C 	C 	0.72020 0.15200 0.46832 -0.05900
C 	C 	0.72020 0.56820 0.03168 -0.05900
C 	C 	0.15455 0.84545 0.88610 -0.06000
C 	C 	0.92185 0.07815 0.21379 0.44500
C 	C 	0.43180 0.15200 0.03168 -0.05900
C 	C 	0.84370 0.92185 0.78621 0.44200
C 	C 	0.27980 0.84800 0.53168 -0.05900
C 	C 	0.26120 0.39650 0.55595 -0.03600
C 	C 	0.56820 0.72020 0.96832 -0.05900
C 	C 	0.69090 0.84545 0.61390 -0.05800
C 	C 	0.45440 0.36130 0.01864 0.34600
C 	C 	0.60350 0.86470 0.55595 -0.03600
C 	C 	0.15455 0.30910 0.88610 -0.05800
C 	C 	0.36130 0.90690 0.51864 0.34600
C 	C 	0.90690 0.54560 0.01864 0.34600
C 	C 	0.86335 0.72670 0.36060 0.12300
C 	C 	0.84545 0.15455 0.38610 -0.06000
C 	C 	0.18885 0.37770 0.93169 0.01500
C 	C 	0.83060 0.04550 0.17554 0.12100
C 	C 	0.34010 0.17005 0.40610 0.01100
C 	C 	0.90200 0.09800 0.31160 -0.19100
C 	C 	0.09800 0.19600 0.68840 -0.18500
C 	C 	0.06160 0.25180 0.65099 -0.17600
C 	C 	0.13665 0.27330 0.86060 0.12300
C 	C 	0.56820 0.72020 0.53168 -0.05900
C 	C 	0.15200 0.43180 0.96832 -0.05900
C 	C 	0.13530 0.73880 0.94405 -0.03600
C 	C 	0.16940 0.95450 0.67554 0.12100
C 	C 	0.54560 0.63870 0.51864 0.34600
C 	C 	0.90200 0.09800 0.18840 -0.19100
C 	C 	0.34010 0.17005 0.09390 0.01100
C 	C 	0.09800 0.19600 0.81160 -0.18500
C 	C 	0.83060 0.04550 0.32446 0.12100
C 	C 	0.78510 0.95450 0.67554 0.11500
C 	C 	0.86335 0.72670 0.13940 0.12300
C 	C 	0.56820 0.84800 0.96832 -0.05900
C 	C 	0.90690 0.54560 0.48136 0.34600
C 	C 	0.43180 0.15200 0.46832 -0.05900
C 	C 	0.92185 0.07815 0.28621 0.44500
C 	C 	0.30910 0.15455 0.38610 -0.05800
C 	C 	0.54560 0.90690 0.98136 0.34600
C 	C 	0.17005 0.82995 0.90610 0.01300
C 	C 	0.55190 0.77595 0.51956 0.00400
C 	C 	0.15455 0.84545 0.61390 -0.06000
C 	C 	0.72020 0.15200 0.03168 -0.05900
C 	C 	0.82995 0.65990 0.09390 0.01100
C 	C 	0.37770 0.18885 0.06831 0.01500
C 	C 	0.74820 0.80980 0.84901 -0.17200
C 	C 	0.26120 0.39650 0.94405 -0.03600
C 	C 	0.95450 0.16940 0.17554 0.12100
C 	C 	0.21490 0.16940 0.32446 0.10300
C 	C 	0.44810 0.22405 0.01956 0.00400
C 	C 	0.62230 0.81115 0.56831 0.01500
C 	C 	0.65990 0.82995 0.90610 0.01100
C 	C 	0.39650 0.26120 0.05595 -0.03600
C 	C 	0.63870 0.09310 0.48136 0.34600
C 	C 	0.78510 0.83060 0.67554 0.10300
C 	C 	0.45440 0.09310 0.48136 0.34600
C 	C 	0.25180 0.19020 0.34901 -0.17200
C 	C 	0.86335 0.13665 0.36060 0.12900
C 	C 	0.93840 0.19020 0.15099 -0.18100
C 	C 	0.81115 0.18885 0.43169 0.01400
C 	C 	0.45440 0.36130 0.48136 0.34600
C 	C 	0.81115 0.62230 0.06831 0.01500
C 	C 	0.80400 0.90200 0.68840 -0.18500
C 	C 	0.72020 0.56820 0.46832 -0.05900
C 	C 	0.26120 0.86470 0.94405 -0.03600
C 	C 	0.80980 0.06160 0.15099 -0.18100
C 	C 	0.83060 0.78510 0.17554 0.10300
C 	C 	0.15200 0.72020 0.53168 -0.05900
C 	C 	0.56820 0.84800 0.53168 -0.05900
C 	C 	0.19020 0.93840 0.65099 -0.18100
C 	C 	0.09800 0.90200 0.68840 -0.19100
C 	C 	0.19020 0.25180 0.84901 -0.17200
C 	C 	0.06160 0.80980 0.84901 -0.18100
C 	C 	0.04550 0.83060 0.67554 0.12100
C 	C 	0.25180 0.06160 0.15099 -0.17600
C 	C 	0.18885 0.37770 0.56831 0.01500
C 	C 	0.21490 0.04550 0.32446 0.11500
C 	C 	0.92185 0.84370 0.28621 0.44200
C 	C 	0.15630 0.07815 0.21379 0.44200
C 	C 	0.95450 0.78510 0.17554 0.11500
C 	C 	0.90690 0.36130 0.01864 0.34600
C 	C 	0.60350 0.73880 0.94405 -0.03600
O 	O 	0.48320 0.37180 0.50332 -0.40600
O 	O 	0.58960 0.55710 0.03258 -0.40100
O 	O 	0.87300 0.86230 0.22288 -0.43400
O 	O 	0.87300 0.01070 0.27712 -0.43100
O 	O 	0.58960 0.03250 0.46742 -0.40000
O 	O 	0.44290 0.41040 0.46742 -0.40100
O 	O 	0.98930 0.86230 0.22288 -0.43200
O 	O 	0.01070 0.13770 0.72288 -0.43200
O 	O 	0.37180 0.88860 0.00332 -0.40700
O 	O 	0.13770 0.12700 0.22288 -0.43400
O 	O 	0.86230 0.87300 0.72288 -0.43400
O 	O 	0.48320 0.11140 0.99668 -0.40700
O 	O 	0.03250 0.44290 0.96742 -0.40000
O 	O 	0.96750 0.41040 0.46742 -0.40000
O 	O 	0.96750 0.41040 0.03258 -0.40000
O 	O 	0.37180 0.88860 0.49668 -0.40700
O 	O 	0.55710 0.58960 0.96742 -0.40100
O 	O 	0.55710 0.96750 0.96742 -0.40000
O 	O 	0.88860 0.37180 0.50332 -0.40700
O 	O 	0.86230 0.98930 0.72288 -0.43200
O 	O 	0.98930 0.86230 0.27712 -0.43200
O 	O 	0.44290 0.41040 0.03258 -0.40100
O 	O 	0.58960 0.03250 0.03258 -0.40000
O 	O 	0.13770 0.12700 0.27712 -0.43400
O 	O 	0.87300 0.01070 0.22288 -0.43100
O 	O 	0.87300 0.86230 0.27712 -0.43400
O 	O 	0.12700 0.13770 0.72288 -0.43400
O 	O 	0.58960 0.55710 0.46742 -0.40100
O 	O 	0.03250 0.44290 0.53258 -0.40000
O 	O 	0.86230 0.87300 0.77712 -0.43400
O 	O 	0.98930 0.12700 0.27712 -0.43100
O 	O 	0.51680 0.62820 0.00332 -0.40600
O 	O 	0.11140 0.48320 0.49668 -0.40700
O 	O 	0.62820 0.11140 0.50332 -0.40700
O 	O 	0.41040 0.96750 0.53258 -0.40000
O 	O 	0.88860 0.51680 0.50332 -0.40700
O 	O 	0.13770 0.01070 0.27712 -0.43200
O 	O 	0.88860 0.51680 0.99668 -0.40700
O 	O 	0.44290 0.03250 0.46742 -0.40000
O 	O 	0.12700 0.98930 0.72288 -0.43100
O 	O 	0.03250 0.58960 0.96742 -0.40000
O 	O 	0.96750 0.55710 0.03258 -0.40000
O 	O 	0.41040 0.44290 0.96742 -0.40100
O 	O 	0.48320 0.11140 0.50332 -0.40700
O 	O 	0.11140 0.62820 0.49668 -0.40700
O 	O 	0.51680 0.88860 0.00332 -0.40700
O 	O 	0.51680 0.88860 0.49668 -0.40700
O 	O 	0.55710 0.96750 0.53258 -0.40000
O 	O 	0.11140 0.62820 0.00332 -0.40700
O 	O 	0.55710 0.58960 0.53258 -0.40100
O 	O 	0.37180 0.48320 0.49668 -0.40600
O 	O 	0.96750 0.55710 0.46742 -0.40000
O 	O 	0.12700 0.98930 0.77712 -0.43100
O 	O 	0.37180 0.48320 0.00332 -0.40600
O 	O 	0.44290 0.03250 0.03258 -0.40000
O 	O 	0.86230 0.98930 0.77712 -0.43200
O 	O 	0.12700 0.13770 0.77712 -0.43400
O 	O 	0.88860 0.37180 0.99668 -0.40700
O 	O 	0.13770 0.01070 0.22288 -0.43200
O 	O 	0.62820 0.11140 0.99668 -0.40700
O 	O 	0.01070 0.87300 0.72288 -0.43100
O 	O 	0.03250 0.58960 0.53258 -0.40000
O 	O 	0.62820 0.51680 0.50332 -0.40600
O 	O 	0.01070 0.13770 0.77712 -0.43200
O 	O 	0.01070 0.87300 0.77712 -0.43100
O 	O 	0.11140 0.48320 0.00332 -0.40700
O 	O 	0.41040 0.44290 0.53258 -0.40100
O 	O 	0.51680 0.62820 0.49668 -0.40600
O 	O 	0.98930 0.12700 0.22288 -0.43100
O 	O 	0.48320 0.37180 0.99668 -0.40600
O 	O 	0.41040 0.96750 0.96742 -0.40000
O 	O 	0.62820 0.51680 0.99668 -0.40600
