data_crystal

_cell_length_a 11.70260
_cell_length_b 11.70260
_cell_length_c 9.22330
_cell_angle_alpha 90.00000
_cell_angle_beta  90.00000
_cell_angle_gamma 90.00000

_symmetry_space_group_name_	'P 1'
_symmetry_space_group_name_H-M	'P 1'

loop_
_symmetry_equiv_pos_as_xyz
  x,y,z

loop_
_atom_site_label
_atom_site_type_symbol
_atom_site_fract_x
_atom_site_fract_y
_atom_site_fract_z
_atom_site_charge
Bi	Bi	0.50000 0.25000 0.62500 1.91700
Bi	Bi	0.00000 0.75000 0.12500 1.89000
Bi	Bi	-0.00000 0.25000 0.87500 1.89000
Bi	Bi	0.50000 0.75000 0.37500 1.91700
O 	O 	0.50000 0.13000 0.40820 -0.34100
O 	O 	0.50000 0.95230 0.32130 -0.36300
C 	C 	0.50000 0.02450 0.42230 0.23900
O 	O 	-0.00000 0.63000 0.90820 -0.38100
O 	O 	-0.00000 0.45230 0.82130 -0.41000
C 	C 	-0.00000 0.52450 0.92230 0.22700
O 	O 	-0.00000 0.87000 0.90820 -0.38100
O 	O 	-0.00000 0.04770 0.82130 -0.41200
C 	C 	-0.00000 0.97550 0.92230 0.22900
O 	O 	0.50000 0.37000 0.40820 -0.34000
O 	O 	0.50000 0.54770 0.32130 -0.36200
C 	C 	0.50000 0.47550 0.42230 0.23900
O 	O 	0.12000 0.25000 0.65820 -0.38000
O 	O 	0.29770 0.25000 0.57130 -0.37600
C 	C 	0.22550 0.25000 0.67230 0.24300
O 	O 	0.38000 0.75000 0.15820 -0.34400
O 	O 	0.20230 0.75000 0.07130 -0.36900
C 	C 	0.27450 0.75000 0.17230 0.23100
O 	O 	0.00000 0.13000 0.09180 -0.38100
O 	O 	-0.00000 0.95230 0.17870 -0.41200
C 	C 	-0.00000 0.02450 0.07770 0.22900
O 	O 	0.50000 0.63000 0.59180 -0.34000
O 	O 	0.50000 0.45230 0.67870 -0.36200
C 	C 	0.50000 0.52450 0.57770 0.23900
O 	O 	0.50000 0.87000 0.59180 -0.34100
O 	O 	0.50000 0.04770 0.67870 -0.36300
C 	C 	0.50000 0.97550 0.57770 0.23900
O 	O 	0.00000 0.37000 0.09180 -0.38100
O 	O 	0.00000 0.54770 0.17870 -0.41000
C 	C 	-0.00000 0.47550 0.07770 0.22700
O 	O 	0.38000 0.25000 0.84180 -0.34400
O 	O 	0.20230 0.25000 0.92870 -0.36900
C 	C 	0.27450 0.25000 0.82770 0.23100
O 	O 	0.12000 0.75000 0.34180 -0.38000
O 	O 	0.29770 0.75000 0.42870 -0.37600
C 	C 	0.22550 0.75000 0.32770 0.24300
O 	O 	0.88000 0.75000 0.34180 -0.25800
O 	O 	0.70230 0.75000 0.42870 -0.34300
C 	C 	0.77450 0.75000 0.32770 0.23800
O 	O 	0.62000 0.25000 0.84180 -0.33600
O 	O 	0.79770 0.25000 0.92870 -0.30000
C 	C 	0.72550 0.25000 0.82770 0.24300
O 	O 	0.62000 0.75000 0.15820 -0.33600
O 	O 	0.79770 0.75000 0.07130 -0.30000
C 	C 	0.72550 0.75000 0.17230 0.24300
O 	O 	0.88000 0.25000 0.65820 -0.25800
O 	O 	0.70230 0.25000 0.57130 -0.34300
C 	C 	0.77450 0.25000 0.67230 0.23800
