data_crystal

_cell_length_a 10.20010
_cell_length_b 10.41460
_cell_length_c 10.75310
_cell_angle_alpha 111.73600
_cell_angle_beta  117.78000
_cell_angle_gamma 92.02700

_symmetry_space_group_name_	'P 1'
_symmetry_space_group_name_H-M	'P 1'

loop_
_symmetry_equiv_pos_as_xyz
  x,y,z

loop_
_atom_site_label
_atom_site_type_symbol
_atom_site_fract_x
_atom_site_fract_y
_atom_site_fract_z
_atom_site_charge
Sm	Sm	0.18481 0.00801 0.46526 1.85500
C 	C 	0.40960 0.06160 0.78040 0.34200
O 	O 	0.43200 0.99500 0.67110 -0.41500
O 	O 	0.28670 0.10180 0.74790 -0.43200
O 	O 	0.35850 0.24660 0.58990 -0.29700
O 	O 	0.20490 0.17250 0.34950 -0.46900
O 	O 	0.13730 0.75230 0.41400 -0.47200
O 	O 	0.99380 0.86380 0.49050 -0.59800
C 	C 	0.53220 0.10520 0.94880 -0.13000
H 	H 	0.60320 0.19330 0.98230 0.06000
C 	C 	0.46920 0.14080 0.06050 -0.07100
H 	H 	0.55390 0.18720 0.16790 0.04700
H 	H 	0.40550 0.20660 0.04310 0.04600
C 	C 	0.62540 0.99540 0.96630 -0.05600
H 	H 	0.71580 0.03640 0.07030 0.03600
H 	H 	0.65880 0.97100 0.89140 0.03900
C 	C 	0.32680 0.24950 0.46610 0.38200
C 	C 	0.04030 0.75090 0.45150 0.41700
C 	C 	0.98010 0.62370 0.46290 -0.16900
H 	H 	0.87390 0.62120 0.43640 0.07600
C 	C 	0.98090 0.48130 0.34820 -0.07100
H 	H 	0.91430 0.46810 0.24180 0.03900
H 	H 	0.08370 0.48450 0.36650 0.06200
C 	C 	0.07350 0.64500 0.63210 -0.04200
H 	H 	0.06420 0.73200 0.69970 0.02800
H 	H 	0.18070 0.65570 0.66370 0.03600
C 	C 	0.37400 0.38700 0.45300 -0.05700
H 	H 	0.28910 0.39270 0.36200 0.18500
C 	C 	0.43100 0.52700 0.59800 -0.23700
H 	H 	0.50930 0.51840 0.68840 0.09700
H 	H 	0.34750 0.55000 0.61500 0.03800
C 	C 	0.50300 0.35200 0.42200 -0.03600
H 	H 	0.46340 0.26310 0.32750 0.02200
H 	H 	0.58350 0.33870 0.50770 -0.12000
C 	C 	0.45100 0.35600 0.48100 -0.11500
C 	C 	0.51500 0.48900 0.64100 -0.14000
C 	C 	0.38100 0.39100 0.34500 0.11700
H 	H 	0.53440 0.31160 0.48140 0.21800
H 	H 	0.43020 0.52130 0.64940 0.16400
H 	H 	0.57170 0.46200 0.72500 0.04700
H 	H 	0.28710 0.41810 0.33290 -0.16000
H 	H 	0.35350 0.30590 0.25050 -0.02000
O 	O 	0.41600 0.18000 0.56000 -0.24500
Sm	Sm	0.81519 0.99199 0.53474 1.85400
C 	C 	0.59040 0.93840 0.21960 0.34100
O 	O 	0.56800 0.00500 0.32890 -0.41500
O 	O 	0.71330 0.89820 0.25210 -0.43200
O 	O 	0.64150 0.75340 0.41010 -0.29700
O 	O 	0.79510 0.82750 0.65050 -0.46900
O 	O 	0.86270 0.24770 0.58600 -0.47200
O 	O 	0.00620 0.13620 0.50950 -0.59800
C 	C 	0.46780 0.89480 0.05120 -0.13000
H 	H 	0.39680 0.80670 0.01770 0.06000
C 	C 	0.53080 0.85920 0.93950 -0.07100
H 	H 	0.44610 0.81280 0.83210 0.04700
H 	H 	0.59450 0.79340 0.95690 0.04600
C 	C 	0.37460 0.00460 0.03370 -0.05600
H 	H 	0.28420 0.96360 0.92970 0.03600
H 	H 	0.34120 0.02900 0.10860 0.03900
C 	C 	0.67320 0.75050 0.53390 0.38200
C 	C 	0.95970 0.24910 0.54850 0.41700
C 	C 	0.01990 0.37630 0.53710 -0.16900
H 	H 	0.12610 0.37880 0.56360 0.07600
C 	C 	0.01910 0.51870 0.65180 -0.07100
H 	H 	0.08570 0.53190 0.75820 0.03900
H 	H 	0.91630 0.51550 0.63350 0.06200
C 	C 	0.92650 0.35500 0.36790 -0.04200
H 	H 	0.93580 0.26800 0.30030 0.02800
H 	H 	0.81930 0.34430 0.33630 0.03600
C 	C 	0.62600 0.61300 0.54700 -0.05700
H 	H 	0.71090 0.60730 0.63800 0.18500
C 	C 	0.56900 0.47300 0.40200 -0.23700
H 	H 	0.49070 0.48160 0.31160 0.09700
H 	H 	0.65250 0.45000 0.38500 0.03800
C 	C 	0.49700 0.64800 0.57800 -0.03600
H 	H 	0.53660 0.73690 0.67250 0.02200
H 	H 	0.41650 0.66130 0.49230 -0.12000
C 	C 	0.54900 0.64400 0.51900 -0.11500
C 	C 	0.48500 0.51100 0.35900 -0.14000
C 	C 	0.61900 0.60900 0.65500 0.11700
H 	H 	0.46560 0.68840 0.51860 0.21800
H 	H 	0.56980 0.47870 0.35060 0.16400
H 	H 	0.42830 0.53800 0.27500 0.04700
H 	H 	0.71290 0.58190 0.66710 -0.16000
H 	H 	0.64650 0.69410 0.74950 -0.02000
O 	O 	0.58400 0.82000 0.44000 -0.24500
