data_crystal

_cell_length_a 19.11470
_cell_length_b 19.11470
_cell_length_c 21.14950
_cell_angle_alpha 90.00000
_cell_angle_beta  90.00000
_cell_angle_gamma 90.00000

_symmetry_space_group_name_	'P 1'
_symmetry_space_group_name_H-M	'P 1'

loop_
_symmetry_equiv_pos_as_xyz
  x,y,z

loop_
_atom_site_label
_atom_site_type_symbol
_atom_site_fract_x
_atom_site_fract_y
_atom_site_fract_z
_atom_site_charge
S 	S 	0.65403 0.92683 0.16741 0.53800
N 	N 	0.45680 0.11580 0.30170 -0.20600
C 	C 	0.62670 0.71980 0.14020 0.06000
C 	C 	0.64840 0.78360 0.16460 -0.06300
H 	H 	0.67820 0.78490 0.20060 0.07900
C 	C 	0.62630 0.84600 0.13640 -0.04300
C 	C 	0.58200 0.84470 0.08450 -0.05800
H 	H 	0.56630 0.88730 0.06640 0.07000
C 	C 	0.56100 0.78230 0.05940 0.05500
C 	C 	0.58310 0.72000 0.08690 0.05900
C 	C 	0.41400 0.11710 0.35190 0.06700
H 	H 	0.39970 0.07380 0.36980 -0.00100
C 	C 	0.38950 0.17880 0.37910 -0.08700
H 	H 	0.35890 0.17720 0.41440 0.05900
C 	C 	0.40980 0.24030 0.35500 -0.02600
H 	H 	0.39360 0.28280 0.37320 0.04300
C 	C 	0.45470 0.24180 0.30290 0.00300
C 	C 	0.47900 0.30730 0.27540 -0.05300
H 	H 	0.46500 0.35050 0.29370 0.05000
C 	C 	0.47660 0.17810 0.27650 0.03800
O 	O 	0.56110 0.65720 0.06306 -0.13500
O 	O 	0.69100 0.96280 0.11630 -0.19100
O 	O 	0.58940 0.96500 0.18248 -0.41100
O 	O 	0.69570 0.91250 0.22250 -0.21500
S 	S 	0.34597 0.07317 0.16741 0.55600
N 	N 	0.54320 0.88420 0.30170 -0.18700
C 	C 	0.37330 0.28020 0.14020 0.04500
C 	C 	0.35160 0.21640 0.16460 -0.05000
H 	H 	0.32180 0.21510 0.20060 0.06600
C 	C 	0.37370 0.15400 0.13640 -0.06800
C 	C 	0.41800 0.15530 0.08450 -0.03900
H 	H 	0.43370 0.11270 0.06640 0.04400
C 	C 	0.43900 0.21770 0.05940 0.03600
C 	C 	0.41690 0.28000 0.08690 0.06800
C 	C 	0.58600 0.88290 0.35190 0.06500
H 	H 	0.60030 0.92620 0.36980 0.05600
C 	C 	0.61050 0.82120 0.37910 -0.07300
H 	H 	0.64110 0.82280 0.41440 0.07700
C 	C 	0.59020 0.75970 0.35500 -0.02700
H 	H 	0.60640 0.71720 0.37320 0.04700
C 	C 	0.54530 0.75820 0.30290 0.00500
C 	C 	0.52100 0.69270 0.27540 -0.05300
H 	H 	0.53500 0.64950 0.29370 0.05100
C 	C 	0.52340 0.82190 0.27650 0.03900
O 	O 	0.43890 0.34280 0.06306 -0.13800
O 	O 	0.30900 0.03720 0.11630 -0.27200
O 	O 	0.41060 0.03500 0.18248 -0.49200
O 	O 	0.30430 0.08750 0.22250 -0.27700
S 	S 	0.07317 0.65403 0.66741 0.55300
N 	N 	0.88420 0.45680 0.80170 -0.18700
C 	C 	0.28020 0.62670 0.64020 0.04900
C 	C 	0.21640 0.64840 0.66460 -0.05300
H 	H 	0.21510 0.67820 0.70060 0.07000
C 	C 	0.15400 0.62630 0.63640 -0.06300
C 	C 	0.15530 0.58200 0.58450 -0.04100
H 	H 	0.11270 0.56630 0.56640 0.04500
C 	C 	0.21770 0.56100 0.55940 0.03800
C 	C 	0.28000 0.58310 0.58690 0.06700
C 	C 	0.88290 0.41400 0.85190 0.06300
H 	H 	0.92620 0.39970 0.86980 0.05400
C 	C 	0.82120 0.38950 0.87910 -0.07300
H 	H 	0.82280 0.35890 0.91440 0.07100
C 	C 	0.75970 0.40980 0.85500 -0.03000
H 	H 	0.71720 0.39360 0.87320 0.04600
C 	C 	0.75820 0.45470 0.80290 0.00600
C 	C 	0.69270 0.47900 0.77540 -0.05300
H 	H 	0.64950 0.46500 0.79370 0.05100
C 	C 	0.82190 0.47660 0.77650 0.03900
O 	O 	0.34280 0.56110 0.56306 -0.13700
O 	O 	0.03720 0.69100 0.61630 -0.25800
O 	O 	0.03500 0.58940 0.68248 -0.49100
O 	O 	0.08750 0.69570 0.72250 -0.26400
S 	S 	0.92683 0.34597 0.66741 0.54000
N 	N 	0.11580 0.54320 0.80170 -0.20700
C 	C 	0.71980 0.37330 0.64020 0.05400
C 	C 	0.78360 0.35160 0.66460 -0.06200
H 	H 	0.78490 0.32180 0.70060 0.07400
C 	C 	0.84600 0.37370 0.63640 -0.04800
C 	C 	0.84470 0.41800 0.58450 -0.05700
H 	H 	0.88730 0.43370 0.56640 0.06900
C 	C 	0.78230 0.43900 0.55940 0.05300
C 	C 	0.72000 0.41690 0.58690 0.06000
C 	C 	0.11710 0.58600 0.85190 0.06900
H 	H 	0.07380 0.60030 0.86980 0.00100
C 	C 	0.17880 0.61050 0.87910 -0.08700
H 	H 	0.17720 0.64110 0.91440 0.06500
C 	C 	0.24030 0.59020 0.85500 -0.02300
H 	H 	0.28280 0.60640 0.87320 0.04400
C 	C 	0.24180 0.54530 0.80290 0.00200
C 	C 	0.30730 0.52100 0.77540 -0.05200
H 	H 	0.35050 0.53500 0.79370 0.05000
C 	C 	0.17810 0.52340 0.77650 0.03900
O 	O 	0.65720 0.43890 0.56306 -0.13500
O 	O 	0.96280 0.30900 0.61630 -0.20400
O 	O 	0.96500 0.41060 0.68248 -0.41200
O 	O 	0.91250 0.30430 0.72250 -0.22800
S 	S 	0.34597 0.92683 0.33259 0.54000
N 	N 	0.54320 0.11580 0.19830 -0.20700
C 	C 	0.37330 0.71980 0.35980 0.05400
C 	C 	0.35160 0.78360 0.33540 -0.06200
H 	H 	0.32180 0.78490 0.29940 0.07400
C 	C 	0.37370 0.84600 0.36360 -0.04800
C 	C 	0.41800 0.84470 0.41550 -0.05700
H 	H 	0.43370 0.88730 0.43360 0.06900
C 	C 	0.43900 0.78230 0.44060 0.05300
C 	C 	0.41690 0.72000 0.41310 0.06000
C 	C 	0.58600 0.11710 0.14810 0.06900
H 	H 	0.60030 0.07380 0.13020 0.00000
C 	C 	0.61050 0.17880 0.12090 -0.08700
H 	H 	0.64110 0.17720 0.08560 0.06500
C 	C 	0.59020 0.24030 0.14500 -0.02300
H 	H 	0.60640 0.28280 0.12680 0.04300
C 	C 	0.54530 0.24180 0.19710 0.00200
C 	C 	0.52100 0.30730 0.22460 -0.05200
H 	H 	0.53500 0.35050 0.20630 0.05000
C 	C 	0.52340 0.17810 0.22350 0.03900
O 	O 	0.43890 0.65720 0.43694 -0.13500
O 	O 	0.30900 0.96280 0.38370 -0.20400
O 	O 	0.41060 0.96500 0.31752 -0.41200
O 	O 	0.30430 0.91250 0.27750 -0.22800
S 	S 	0.65403 0.07317 0.33259 0.55300
N 	N 	0.45680 0.88420 0.19830 -0.18700
C 	C 	0.62670 0.28020 0.35980 0.04900
C 	C 	0.64840 0.21640 0.33540 -0.05300
H 	H 	0.67820 0.21510 0.29940 0.07000
C 	C 	0.62630 0.15400 0.36360 -0.06300
C 	C 	0.58200 0.15530 0.41550 -0.04100
H 	H 	0.56630 0.11270 0.43360 0.04500
C 	C 	0.56100 0.21770 0.44060 0.03800
C 	C 	0.58310 0.28000 0.41310 0.06700
C 	C 	0.41400 0.88290 0.14810 0.06300
H 	H 	0.39970 0.92620 0.13020 0.05400
C 	C 	0.38950 0.82120 0.12090 -0.07300
H 	H 	0.35890 0.82280 0.08560 0.07100
C 	C 	0.40980 0.75970 0.14500 -0.03000
H 	H 	0.39360 0.71720 0.12680 0.04600
C 	C 	0.45470 0.75820 0.19710 0.00600
C 	C 	0.47900 0.69270 0.22460 -0.05300
H 	H 	0.46500 0.64950 0.20630 0.05100
C 	C 	0.47660 0.82190 0.22350 0.03900
O 	O 	0.56110 0.34280 0.43694 -0.13700
O 	O 	0.69100 0.03720 0.38370 -0.25800
O 	O 	0.58940 0.03500 0.31752 -0.49100
O 	O 	0.69570 0.08750 0.27750 -0.26400
S 	S 	0.92683 0.65403 0.83259 0.53700
N 	N 	0.11580 0.45680 0.69830 -0.20700
C 	C 	0.71980 0.62670 0.85980 0.05900
C 	C 	0.78360 0.64840 0.83540 -0.06400
H 	H 	0.78490 0.67820 0.79940 0.07900
C 	C 	0.84600 0.62630 0.86360 -0.04200
C 	C 	0.84470 0.58200 0.91550 -0.05900
H 	H 	0.88730 0.56630 0.93360 0.07100
C 	C 	0.78230 0.56100 0.94060 0.05600
C 	C 	0.72000 0.58310 0.91310 0.05900
C 	C 	0.11710 0.41400 0.64810 0.06700
H 	H 	0.07380 0.39970 0.63020 -0.00100
C 	C 	0.17880 0.38950 0.62090 -0.08700
H 	H 	0.17720 0.35890 0.58560 0.05900
C 	C 	0.24030 0.40980 0.64500 -0.02600
H 	H 	0.28280 0.39360 0.62680 0.04300
C 	C 	0.24180 0.45470 0.69710 0.00300
C 	C 	0.30730 0.47900 0.72460 -0.05300
H 	H 	0.35050 0.46500 0.70630 0.05000
C 	C 	0.17810 0.47660 0.72350 0.03800
O 	O 	0.65720 0.56110 0.93694 -0.13500
O 	O 	0.96280 0.69100 0.88370 -0.19100
O 	O 	0.96500 0.58940 0.81752 -0.41100
O 	O 	0.91250 0.69570 0.77750 -0.21500
S 	S 	0.07317 0.34597 0.83259 0.55600
N 	N 	0.88420 0.54320 0.69830 -0.18700
C 	C 	0.28020 0.37330 0.85980 0.04500
C 	C 	0.21640 0.35160 0.83540 -0.05100
H 	H 	0.21510 0.32180 0.79940 0.06600
C 	C 	0.15400 0.37370 0.86360 -0.06800
C 	C 	0.15530 0.41800 0.91550 -0.04000
H 	H 	0.11270 0.43370 0.93360 0.04500
C 	C 	0.21770 0.43900 0.94060 0.03700
C 	C 	0.28000 0.41690 0.91310 0.06800
C 	C 	0.88290 0.58600 0.64810 0.06500
H 	H 	0.92620 0.60030 0.63020 0.05600
C 	C 	0.82120 0.61050 0.62090 -0.07300
H 	H 	0.82280 0.64110 0.58560 0.07700
C 	C 	0.75970 0.59020 0.64500 -0.02700
H 	H 	0.71720 0.60640 0.62680 0.04700
C 	C 	0.75820 0.54530 0.69710 0.00500
C 	C 	0.69270 0.52100 0.72460 -0.05300
H 	H 	0.64950 0.53500 0.70630 0.05100
C 	C 	0.82190 0.52340 0.72350 0.03900
O 	O 	0.34280 0.43890 0.93694 -0.13700
O 	O 	0.03720 0.30900 0.88370 -0.27200
O 	O 	0.03500 0.41060 0.81752 -0.49200
O 	O 	0.08750 0.30430 0.77750 -0.27600
S 	S 	0.34597 0.07317 0.83259 0.55600
N 	N 	0.54320 0.88420 0.69830 -0.18700
C 	C 	0.37330 0.28020 0.85980 0.04500
C 	C 	0.35160 0.21640 0.83540 -0.05100
H 	H 	0.32180 0.21510 0.79940 0.06600
C 	C 	0.37370 0.15400 0.86360 -0.06800
C 	C 	0.41800 0.15530 0.91550 -0.04000
H 	H 	0.43370 0.11270 0.93360 0.04500
C 	C 	0.43900 0.21770 0.94060 0.03700
C 	C 	0.41690 0.28000 0.91310 0.06800
C 	C 	0.58600 0.88290 0.64810 0.06500
H 	H 	0.60030 0.92620 0.63020 0.05600
C 	C 	0.61050 0.82120 0.62090 -0.07300
H 	H 	0.64110 0.82280 0.58560 0.07700
C 	C 	0.59020 0.75970 0.64500 -0.02700
H 	H 	0.60640 0.71720 0.62680 0.04700
C 	C 	0.54530 0.75820 0.69710 0.00500
C 	C 	0.52100 0.69270 0.72460 -0.05300
H 	H 	0.53500 0.64950 0.70630 0.05100
C 	C 	0.52340 0.82190 0.72350 0.03900
O 	O 	0.43890 0.34280 0.93694 -0.13700
O 	O 	0.30900 0.03720 0.88370 -0.27200
O 	O 	0.41060 0.03500 0.81752 -0.49200
O 	O 	0.30430 0.08750 0.77750 -0.27600
S 	S 	0.65403 0.92683 0.83259 0.53700
N 	N 	0.45680 0.11580 0.69830 -0.20700
C 	C 	0.62670 0.71980 0.85980 0.05900
C 	C 	0.64840 0.78360 0.83540 -0.06400
H 	H 	0.67820 0.78490 0.79940 0.07900
C 	C 	0.62630 0.84600 0.86360 -0.04200
C 	C 	0.58200 0.84470 0.91550 -0.05900
H 	H 	0.56630 0.88730 0.93360 0.07100
C 	C 	0.56100 0.78230 0.94060 0.05600
C 	C 	0.58310 0.72000 0.91310 0.05900
C 	C 	0.41400 0.11710 0.64810 0.06700
H 	H 	0.39970 0.07380 0.63020 -0.00100
C 	C 	0.38950 0.17880 0.62090 -0.08700
H 	H 	0.35890 0.17720 0.58560 0.05900
C 	C 	0.40980 0.24030 0.64500 -0.02600
H 	H 	0.39360 0.28280 0.62680 0.04300
C 	C 	0.45470 0.24180 0.69710 0.00300
C 	C 	0.47900 0.30730 0.72460 -0.05300
H 	H 	0.46500 0.35050 0.70630 0.05000
C 	C 	0.47660 0.17810 0.72350 0.03800
O 	O 	0.56110 0.65720 0.93694 -0.13500
O 	O 	0.69100 0.96280 0.88370 -0.19100
O 	O 	0.58940 0.96500 0.81752 -0.41100
O 	O 	0.69570 0.91250 0.77750 -0.21500
S 	S 	0.92683 0.34597 0.33259 0.54000
N 	N 	0.11580 0.54320 0.19830 -0.20700
C 	C 	0.71980 0.37330 0.35980 0.05400
C 	C 	0.78360 0.35160 0.33540 -0.06200
H 	H 	0.78490 0.32180 0.29940 0.07400
C 	C 	0.84600 0.37370 0.36360 -0.04800
C 	C 	0.84470 0.41800 0.41550 -0.05700
H 	H 	0.88730 0.43370 0.43360 0.06900
C 	C 	0.78230 0.43900 0.44060 0.05300
C 	C 	0.72000 0.41690 0.41310 0.06000
C 	C 	0.11710 0.58600 0.14810 0.06900
H 	H 	0.07380 0.60030 0.13020 0.00000
C 	C 	0.17880 0.61050 0.12090 -0.08700
H 	H 	0.17720 0.64110 0.08560 0.06500
C 	C 	0.24030 0.59020 0.14500 -0.02300
H 	H 	0.28280 0.60640 0.12680 0.04300
C 	C 	0.24180 0.54530 0.19710 0.00200
C 	C 	0.30730 0.52100 0.22460 -0.05200
H 	H 	0.35050 0.53500 0.20630 0.05000
C 	C 	0.17810 0.52340 0.22350 0.03900
O 	O 	0.65720 0.43890 0.43694 -0.13500
O 	O 	0.96280 0.30900 0.38370 -0.20400
O 	O 	0.96500 0.41060 0.31752 -0.41200
O 	O 	0.91250 0.30430 0.27750 -0.22800
S 	S 	0.07317 0.65403 0.33259 0.55300
N 	N 	0.88420 0.45680 0.19830 -0.18700
C 	C 	0.28020 0.62670 0.35980 0.04900
C 	C 	0.21640 0.64840 0.33540 -0.05300
H 	H 	0.21510 0.67820 0.29940 0.07000
C 	C 	0.15400 0.62630 0.36360 -0.06300
C 	C 	0.15530 0.58200 0.41550 -0.04100
H 	H 	0.11270 0.56630 0.43360 0.04500
C 	C 	0.21770 0.56100 0.44060 0.03800
C 	C 	0.28000 0.58310 0.41310 0.06700
C 	C 	0.88290 0.41400 0.14810 0.06300
H 	H 	0.92620 0.39970 0.13020 0.05400
C 	C 	0.82120 0.38950 0.12090 -0.07300
H 	H 	0.82280 0.35890 0.08560 0.07100
C 	C 	0.75970 0.40980 0.14500 -0.03000
H 	H 	0.71720 0.39360 0.12680 0.04600
C 	C 	0.75820 0.45470 0.19710 0.00600
C 	C 	0.69270 0.47900 0.22460 -0.05300
H 	H 	0.64950 0.46500 0.20630 0.05100
C 	C 	0.82190 0.47660 0.22350 0.03900
O 	O 	0.34280 0.56110 0.43694 -0.13700
O 	O 	0.03720 0.69100 0.38370 -0.25800
O 	O 	0.03500 0.58940 0.31752 -0.49100
O 	O 	0.08750 0.69570 0.27750 -0.26400
S 	S 	0.65403 0.07317 0.66741 0.55300
N 	N 	0.45680 0.88420 0.80170 -0.18700
C 	C 	0.62670 0.28020 0.64020 0.04900
C 	C 	0.64840 0.21640 0.66460 -0.05300
H 	H 	0.67820 0.21510 0.70060 0.07000
C 	C 	0.62630 0.15400 0.63640 -0.06300
C 	C 	0.58200 0.15530 0.58450 -0.04100
H 	H 	0.56630 0.11270 0.56640 0.04500
C 	C 	0.56100 0.21770 0.55940 0.03800
C 	C 	0.58310 0.28000 0.58690 0.06700
C 	C 	0.41400 0.88290 0.85190 0.06300
H 	H 	0.39970 0.92620 0.86980 0.05400
C 	C 	0.38950 0.82120 0.87910 -0.07300
H 	H 	0.35890 0.82280 0.91440 0.07100
C 	C 	0.40980 0.75970 0.85500 -0.03000
H 	H 	0.39360 0.71720 0.87320 0.04600
C 	C 	0.45470 0.75820 0.80290 0.00600
C 	C 	0.47900 0.69270 0.77540 -0.05300
H 	H 	0.46500 0.64950 0.79370 0.05100
C 	C 	0.47660 0.82190 0.77650 0.03900
O 	O 	0.56110 0.34280 0.56306 -0.13700
O 	O 	0.69100 0.03720 0.61630 -0.25800
O 	O 	0.58940 0.03500 0.68248 -0.49100
O 	O 	0.69570 0.08750 0.72250 -0.26400
S 	S 	0.34597 0.92683 0.66741 0.54000
N 	N 	0.54320 0.11580 0.80170 -0.20700
C 	C 	0.37330 0.71980 0.64020 0.05400
C 	C 	0.35160 0.78360 0.66460 -0.06200
H 	H 	0.32180 0.78490 0.70060 0.07400
C 	C 	0.37370 0.84600 0.63640 -0.04800
C 	C 	0.41800 0.84470 0.58450 -0.05700
H 	H 	0.43370 0.88730 0.56640 0.06900
C 	C 	0.43900 0.78230 0.55940 0.05300
C 	C 	0.41690 0.72000 0.58690 0.06000
C 	C 	0.58600 0.11710 0.85190 0.06900
H 	H 	0.60030 0.07380 0.86980 0.00100
C 	C 	0.61050 0.17880 0.87910 -0.08700
H 	H 	0.64110 0.17720 0.91440 0.06500
C 	C 	0.59020 0.24030 0.85500 -0.02300
H 	H 	0.60640 0.28280 0.87320 0.04400
C 	C 	0.54530 0.24180 0.80290 0.00200
C 	C 	0.52100 0.30730 0.77540 -0.05200
H 	H 	0.53500 0.35050 0.79370 0.05000
C 	C 	0.52340 0.17810 0.77650 0.03900
O 	O 	0.43890 0.65720 0.56306 -0.13500
O 	O 	0.30900 0.96280 0.61630 -0.20400
O 	O 	0.41060 0.96500 0.68248 -0.41200
O 	O 	0.30430 0.91250 0.72250 -0.22800
S 	S 	0.07317 0.34597 0.16741 0.55600
N 	N 	0.88420 0.54320 0.30170 -0.18700
C 	C 	0.28020 0.37330 0.14020 0.04500
C 	C 	0.21640 0.35160 0.16460 -0.05000
H 	H 	0.21510 0.32180 0.20060 0.06600
C 	C 	0.15400 0.37370 0.13640 -0.06800
C 	C 	0.15530 0.41800 0.08450 -0.03900
H 	H 	0.11270 0.43370 0.06640 0.04400
C 	C 	0.21770 0.43900 0.05940 0.03600
C 	C 	0.28000 0.41690 0.08690 0.06800
C 	C 	0.88290 0.58600 0.35190 0.06500
H 	H 	0.92620 0.60030 0.36980 0.05600
C 	C 	0.82120 0.61050 0.37910 -0.07300
H 	H 	0.82280 0.64110 0.41440 0.07700
C 	C 	0.75970 0.59020 0.35500 -0.02700
H 	H 	0.71720 0.60640 0.37320 0.04700
C 	C 	0.75820 0.54530 0.30290 0.00500
C 	C 	0.69270 0.52100 0.27540 -0.05300
H 	H 	0.64950 0.53500 0.29370 0.05100
C 	C 	0.82190 0.52340 0.27650 0.03900
O 	O 	0.34280 0.43890 0.06306 -0.13800
O 	O 	0.03720 0.30900 0.11630 -0.27200
O 	O 	0.03500 0.41060 0.18248 -0.49200
O 	O 	0.08750 0.30430 0.22250 -0.27700
S 	S 	0.92683 0.65403 0.16741 0.53700
N 	N 	0.11580 0.45680 0.30170 -0.20700
C 	C 	0.71980 0.62670 0.14020 0.05900
C 	C 	0.78360 0.64840 0.16460 -0.06400
H 	H 	0.78490 0.67820 0.20060 0.07900
C 	C 	0.84600 0.62630 0.13640 -0.04300
C 	C 	0.84470 0.58200 0.08450 -0.05800
H 	H 	0.88730 0.56630 0.06640 0.07000
C 	C 	0.78230 0.56100 0.05940 0.05500
C 	C 	0.72000 0.58310 0.08690 0.05900
C 	C 	0.11710 0.41400 0.35190 0.06700
H 	H 	0.07380 0.39970 0.36980 -0.00100
C 	C 	0.17880 0.38950 0.37910 -0.08700
H 	H 	0.17720 0.35890 0.41440 0.05900
C 	C 	0.24030 0.40980 0.35500 -0.02600
H 	H 	0.28280 0.39360 0.37320 0.04300
C 	C 	0.24180 0.45470 0.30290 0.00300
C 	C 	0.30730 0.47900 0.27540 -0.05300
H 	H 	0.35050 0.46500 0.29370 0.05000
C 	C 	0.17810 0.47660 0.27650 0.03800
O 	O 	0.65720 0.56110 0.06306 -0.13500
O 	O 	0.96280 0.69100 0.11630 -0.19100
O 	O 	0.96500 0.58940 0.18248 -0.41100
O 	O 	0.91250 0.69570 0.22250 -0.21500
Eu	Eu	0.50000 0.00000 0.25000 1.74900
Eu	Eu	0.00000 0.50000 0.75000 1.74900
Eu	Eu	0.50000 0.00000 0.75000 1.74900
Eu	Eu	0.00000 0.50000 0.25000 1.74900
C 	C 	0.65250 0.65250 0.16940 -0.19000
H 	H 	0.61610 0.61610 0.16440 0.10800
H 	H 	0.65990 0.65990 0.21530 0.08800
C 	C 	0.34750 0.34750 0.16940 -0.17800
H 	H 	0.38390 0.38390 0.16440 0.10500
H 	H 	0.34010 0.34010 0.21530 0.08300
C 	C 	0.34750 0.65250 0.66940 -0.18400
H 	H 	0.38390 0.61610 0.66440 0.10700
H 	H 	0.34010 0.65990 0.71530 0.08500
C 	C 	0.65250 0.34750 0.66940 -0.18400
H 	H 	0.61610 0.38390 0.66440 0.10700
H 	H 	0.65990 0.34010 0.71530 0.08500
C 	C 	0.34750 0.65250 0.33060 -0.18400
H 	H 	0.38390 0.61610 0.33560 0.10700
H 	H 	0.34010 0.65990 0.28470 0.08500
C 	C 	0.65250 0.34750 0.33060 -0.18400
H 	H 	0.61610 0.38390 0.33560 0.10700
H 	H 	0.65990 0.34010 0.28470 0.08500
C 	C 	0.65250 0.65250 0.83060 -0.19000
H 	H 	0.61610 0.61610 0.83560 0.10800
H 	H 	0.65990 0.65990 0.78470 0.08800
C 	C 	0.34750 0.34750 0.83060 -0.17800
H 	H 	0.38390 0.38390 0.83560 0.10500
H 	H 	0.34010 0.34010 0.78470 0.08300
C 	C 	0.51520 0.78270 -0.00000 -0.18800
H 	H 	0.48450 0.74100 -0.00000 0.10800
H 	H 	0.48520 0.82490 -0.00000 0.08900
C 	C 	0.48480 0.21730 -0.00000 -0.16900
H 	H 	0.51550 0.25900 -0.00000 0.10300
H 	H 	0.51480 0.17510 -0.00000 0.07400
C 	C 	0.21730 0.51520 0.50000 -0.16800
H 	H 	0.25900 0.48450 0.50000 0.10200
H 	H 	0.17510 0.48520 0.50000 0.07400
C 	C 	0.78270 0.48480 0.50000 -0.18600
H 	H 	0.74100 0.51550 0.50000 0.10900
H 	H 	0.82490 0.51480 0.50000 0.09000
C 	C 	0.48480 0.78270 0.50000 -0.18600
H 	H 	0.51550 0.74100 0.50000 0.10900
H 	H 	0.51480 0.82490 0.50000 0.09000
C 	C 	0.51520 0.21730 0.50000 -0.16800
H 	H 	0.48450 0.25900 0.50000 0.10200
H 	H 	0.48520 0.17510 0.50000 0.07400
C 	C 	0.78270 0.51520 -0.00000 -0.18800
H 	H 	0.74100 0.48450 -0.00000 0.10800
H 	H 	0.82490 0.48520 -0.00000 0.08900
C 	C 	0.21730 0.48480 -0.00000 -0.16900
H 	H 	0.25900 0.51550 -0.00000 0.10300
H 	H 	0.17510 0.51480 -0.00000 0.07400
