data_crystal

_cell_length_a 8.30700
_cell_length_b 8.38250
_cell_length_c 8.38250
_cell_angle_alpha 62.18630
_cell_angle_beta  60.29760
_cell_angle_gamma 60.29760

_symmetry_space_group_name_	'P 1'
_symmetry_space_group_name_H-M	'P 1'

loop_
_symmetry_equiv_pos_as_xyz
  x,y,z

loop_
_atom_site_label
_atom_site_type_symbol
_atom_site_fract_x
_atom_site_fract_y
_atom_site_fract_z
_atom_site_charge
Co	Co	-0.00000 0.00000 -0.00000 0.92900
Co	Co	0.50000 0.50000 0.50000 1.22700
H 	H 	0.29900 0.75000 0.75000 -0.01000
H 	H 	0.70100 0.25000 0.25000 -0.13200
H 	H 	0.79820 0.70180 0.20180 -0.10600
H 	H 	0.20180 0.79820 0.29820 -0.15800
H 	H 	0.20180 0.29820 0.79820 -0.15800
H 	H 	0.79820 0.20180 0.70180 -0.10600
C 	C 	0.18710 0.75000 0.75000 0.43100
C 	C 	0.81290 0.25000 0.25000 0.45300
C 	C 	0.71880 0.78120 0.28120 0.56300
C 	C 	0.28120 0.71880 0.21880 0.62800
C 	C 	0.28120 0.21880 0.71880 0.62800
C 	C 	0.71880 0.28120 0.78120 0.56300
O 	O 	0.77710 0.90630 0.23490 -0.28700
O 	O 	0.41830 0.59370 0.26510 -0.49100
O 	O 	0.58170 0.73490 0.40630 -0.39900
O 	O 	0.22290 0.76510 0.09370 -0.51500
O 	O 	0.22290 0.09370 0.76510 -0.51500
O 	O 	0.58170 0.40630 0.73490 -0.39900
O 	O 	0.41830 0.26510 0.59370 -0.49100
O 	O 	0.77710 0.23490 0.90630 -0.28700
O 	O 	0.02360 0.84380 0.84380 -0.28000
O 	O 	0.21120 0.65620 0.65620 -0.36600
O 	O 	0.78880 0.34380 0.34380 -0.36100
O 	O 	0.97640 0.15620 0.15620 -0.36100
