data_crystal

_cell_length_a 20.13190
_cell_length_b 20.13190
_cell_length_c 20.42000
_cell_angle_alpha 61.47210
_cell_angle_beta  61.47210
_cell_angle_gamma 65.33880

_symmetry_space_group_name_	'P 1'
_symmetry_space_group_name_H-M	'P 1'

loop_
_symmetry_equiv_pos_as_xyz
  x,y,z

loop_
_atom_site_label
_atom_site_type_symbol
_atom_site_fract_x
_atom_site_fract_y
_atom_site_fract_z
_atom_site_charge
Zn	Zn	0.82463 0.35333 0.01605 1.21600
Zn	Zn	0.95604 0.42748 0.91856 1.21800
Zn	Zn	0.35333 0.82463 0.51605 1.21600
Zn	Zn	0.42748 0.95604 0.41856 1.21600
H 	H 	0.68160 0.49400 0.85920 -0.01100
H 	H 	0.83840 0.61760 0.77000 0.00100
H 	H 	0.77630 0.71570 0.68470 0.07000
H 	H 	0.68590 0.81010 0.59390 0.07600
H 	H 	0.59430 0.86950 0.53170 0.01500
H 	H 	0.49460 0.68880 0.66940 -0.01000
H 	H 	0.56190 0.53570 0.72970 0.29200
H 	H 	0.62000 0.48300 0.77620 0.29900
H 	H 	0.65070 0.53470 0.68640 0.30400
H 	H 	0.47650 0.60530 0.82790 0.31000
H 	H 	0.51190 0.64870 0.84540 0.31500
H 	H 	0.52960 0.55740 0.88020 0.30400
H 	H 	0.29130 0.09130 0.25640 -0.01800
H 	H 	0.18040 0.92080 0.41320 0.01100
H 	H 	0.08860 0.97720 0.35550 0.07200
H 	H 	0.99320 0.07120 0.27020 0.05100
H 	H 	0.93020 0.16420 0.18340 0.03400
H 	H 	0.10300 0.27500 0.06790 -0.00500
H 	H 	0.23420 0.24140 0.18170 0.34900
H 	H 	0.17460 0.29260 0.13690 0.35500
H 	H 	0.14460 0.24840 0.22900 0.35700
H 	H 	0.30740 0.16280 0.09450 0.35100
H 	H 	0.26580 0.11820 0.08590 0.35600
H 	H 	0.25150 0.20910 0.04530 0.35500
H 	H 	0.56490 0.98870 0.40510 -0.00800
H 	H 	0.64750 0.06950 0.32170 0.08900
H 	H 	0.51820 0.18140 0.18610 0.06800
H 	H 	0.44220 0.09460 0.26950 -0.01100
H 	H 	0.67060 0.19060 0.27190 0.09500
H 	H 	0.75290 0.27130 0.18580 -0.01400
H 	H 	0.71140 0.29920 0.00930 -0.01800
H 	H 	0.63510 0.21050 0.08800 0.07200
H 	H 	0.49400 0.68160 0.35920 -0.01100
H 	H 	0.61760 0.83840 0.27000 0.00000
H 	H 	0.71570 0.77630 0.18470 0.07000
H 	H 	0.81010 0.68590 0.09390 0.07500
H 	H 	0.86950 0.59430 0.03170 0.01400
H 	H 	0.68880 0.49460 0.16940 -0.01000
H 	H 	0.53570 0.56190 0.22970 0.29200
H 	H 	0.48300 0.62000 0.27620 0.29900
H 	H 	0.53470 0.65070 0.18640 0.30400
H 	H 	0.60530 0.47650 0.32790 0.31000
H 	H 	0.64870 0.51190 0.34540 0.31500
H 	H 	0.55740 0.52960 0.38020 0.30300
H 	H 	0.09130 0.29130 0.75640 -0.01900
H 	H 	0.92080 0.18040 0.91320 0.00800
H 	H 	0.97720 0.08860 0.85550 0.07900
H 	H 	0.07120 0.99320 0.77020 0.06100
H 	H 	0.16420 0.93020 0.68340 0.02500
H 	H 	0.27500 0.10300 0.56790 -0.01000
H 	H 	0.24140 0.23420 0.68170 0.35000
H 	H 	0.29260 0.17460 0.63690 0.35500
H 	H 	0.24840 0.14460 0.72900 0.35700
H 	H 	0.16280 0.30740 0.59450 0.35100
H 	H 	0.11820 0.26580 0.58590 0.35600
H 	H 	0.20910 0.25150 0.54530 0.35500
H 	H 	0.98870 0.56490 0.90510 -0.00200
H 	H 	0.06950 0.64750 0.82170 0.08600
H 	H 	0.18140 0.51820 0.68610 0.06700
H 	H 	0.09460 0.44220 0.76950 -0.01100
H 	H 	0.19060 0.67060 0.77190 0.09600
H 	H 	0.27130 0.75290 0.68580 -0.01500
H 	H 	0.29920 0.71140 0.50930 -0.01800
H 	H 	0.21050 0.63510 0.58800 0.07300
C 	C 	0.70100 0.53780 0.82310 0.10800
C 	C 	0.76790 0.54630 0.82190 -0.17200
C 	C 	0.79450 0.61250 0.76990 0.08100
C 	C 	0.75820 0.67080 0.71850 -0.15900
C 	C 	0.64820 0.78560 0.60850 -0.15300
C 	C 	0.59310 0.82070 0.57160 0.07500
C 	C 	0.53650 0.78490 0.59280 -0.17100
C 	C 	0.53310 0.71270 0.65390 0.11300
C 	C 	0.59350 0.59910 0.76030 0.49800
C 	C 	0.66520 0.59540 0.77020 -0.21100
C 	C 	0.69350 0.66270 0.71690 0.06800
C 	C 	0.64530 0.71310 0.66740 0.06300
C 	C 	0.58630 0.67750 0.69080 -0.20300
C 	C 	0.60790 0.53190 0.73590 -0.96000
C 	C 	0.52100 0.60300 0.83550 -0.97300
C 	C 	0.80860 0.48460 0.87830 0.41300
C 	C 	0.47940 0.82380 0.55060 0.41700
C 	C 	0.25100 0.06840 0.27490 0.14400
C 	C 	0.24480 0.99920 0.34110 -0.18400
C 	C 	0.18400 0.96680 0.36940 0.08700
C 	C 	0.12940 0.00000 0.33520 -0.14400
C 	C 	0.01460 0.11260 0.22980 -0.08900
C 	C 	0.97720 0.16780 0.17790 0.01900
C 	C 	0.00930 0.23010 0.11630 -0.12500
C 	C 	0.08060 0.23440 0.10880 0.10200
C 	C 	0.19230 0.17490 0.16540 0.58900
C 	C 	0.19790 0.10170 0.23810 -0.24600
C 	C 	0.13450 0.06870 0.26910 0.08400
C 	C 	0.08410 0.11790 0.22260 0.05600
C 	C 	0.11700 0.17940 0.16150 -0.22400
C 	C 	0.18580 0.24600 0.17960 -1.09700
C 	C 	0.26060 0.16540 0.09090 -1.11100
C 	C 	0.30320 0.96240 0.38260 0.42500
C 	C 	0.96740 0.29120 0.06060 0.38100
C 	C 	0.55570 0.02770 0.35940 0.09700
C 	C 	0.60540 0.07660 0.30970 -0.15000
C 	C 	0.59280 0.13500 0.24350 0.06300
C 	C 	0.52990 0.14150 0.23010 -0.14700
C 	C 	0.48380 0.08960 0.28110 0.09300
C 	C 	0.64460 0.18860 0.19070 0.06800
C 	C 	0.67980 0.20940 0.21770 -0.16400
C 	C 	0.72930 0.25850 0.16530 0.10200
C 	C 	0.70640 0.27360 0.06270 0.09300
C 	C 	0.65810 0.22210 0.11030 -0.16000
C 	C 	0.53780 0.70100 0.32310 0.10800
C 	C 	0.54630 0.76790 0.32190 -0.17300
C 	C 	0.61250 0.79450 0.26990 0.08100
C 	C 	0.67080 0.75820 0.21850 -0.16000
C 	C 	0.78560 0.64820 0.10850 -0.15200
C 	C 	0.82070 0.59310 0.07160 0.07400
C 	C 	0.78490 0.53650 0.09280 -0.16900
C 	C 	0.71270 0.53310 0.15390 0.11200
C 	C 	0.59910 0.59350 0.26030 0.49800
C 	C 	0.59540 0.66520 0.27020 -0.21100
C 	C 	0.66270 0.69350 0.21690 0.06800
C 	C 	0.71310 0.64530 0.16740 0.06200
C 	C 	0.67750 0.58630 0.19080 -0.20300
C 	C 	0.53190 0.60790 0.23590 -0.96000
C 	C 	0.60300 0.52100 0.33550 -0.97300
C 	C 	0.48460 0.80860 0.37830 0.41300
C 	C 	0.82380 0.47940 0.05060 0.41200
C 	C 	0.06840 0.25100 0.77490 0.14200
C 	C 	0.99920 0.24480 0.84110 -0.18500
C 	C 	0.96680 0.18400 0.86940 0.09700
C 	C 	0.00000 0.12940 0.83520 -0.15800
C 	C 	0.11260 0.01460 0.72980 -0.11200
C 	C 	0.16780 0.97720 0.67790 0.04500
C 	C 	0.23010 0.00930 0.61630 -0.14600
C 	C 	0.23440 0.08060 0.60880 0.11500
C 	C 	0.17490 0.19230 0.66540 0.59200
C 	C 	0.10170 0.19790 0.73810 -0.24800
C 	C 	0.06870 0.13450 0.76910 0.08500
C 	C 	0.11790 0.08410 0.72260 0.06500
C 	C 	0.17940 0.11700 0.66150 -0.23300
C 	C 	0.24600 0.18580 0.67960 -1.09800
C 	C 	0.16540 0.26060 0.59090 -1.11300
C 	C 	0.96240 0.30320 0.88260 0.42600
C 	C 	0.29120 0.96740 0.56060 0.39600
C 	C 	0.02770 0.55570 0.85940 0.08700
C 	C 	0.07660 0.60540 0.80970 -0.14400
C 	C 	0.13500 0.59280 0.74350 0.06000
C 	C 	0.14150 0.52990 0.73010 -0.14500
C 	C 	0.08960 0.48380 0.78110 0.09200
C 	C 	0.18860 0.64460 0.69070 0.07000
C 	C 	0.20940 0.67980 0.71770 -0.16500
C 	C 	0.25850 0.72930 0.66530 0.10200
C 	C 	0.27360 0.70640 0.56270 0.09400
C 	C 	0.22210 0.65810 0.61030 -0.16100
N 	N 	0.49576 0.03336 0.34530 -0.25900
N 	N 	0.74472 0.28772 0.08900 -0.26600
N 	N 	0.03336 0.49576 0.84530 -0.25900
N 	N 	0.28772 0.74472 0.58900 -0.26500
O 	O 	0.77431 0.43211 0.93430 -0.46800
O 	O 	0.87271 0.48971 0.86730 -0.49000
O 	O 	0.48331 0.89031 0.49880 -0.47700
O 	O 	0.43242 0.78722 0.56920 -0.47800
O 	O 	0.35427 0.99587 0.35890 -0.47900
O 	O 	0.29615 0.89835 0.43810 -0.48300
O 	O 	0.00274 0.33974 0.00100 -0.45600
O 	O 	0.89899 0.28959 0.07930 -0.46500
O 	O 	0.43211 0.77431 0.43430 -0.46900
O 	O 	0.48971 0.87271 0.36730 -0.49100
O 	O 	0.89031 0.48331 0.99880 -0.47300
O 	O 	0.78722 0.43242 0.06920 -0.47800
O 	O 	0.99587 0.35427 0.85890 -0.47800
O 	O 	0.89835 0.29615 0.93810 -0.48200
O 	O 	0.33974 0.00274 0.50100 -0.46400
O 	O 	0.28959 0.89899 0.57930 -0.46800
Zn	Zn	0.64667 0.17537 0.48395 1.21600
Zn	Zn	0.57252 0.04396 0.58144 1.21800
Zn	Zn	0.17537 0.64667 0.98395 1.21500
Zn	Zn	0.04396 0.57252 0.08144 1.21800
H 	H 	0.50600 0.31840 0.64080 -0.01100
H 	H 	0.38240 0.16160 0.73000 0.00100
H 	H 	0.28430 0.22370 0.81530 0.07000
H 	H 	0.18990 0.31410 0.90610 0.07600
H 	H 	0.13050 0.40570 0.96830 0.01400
H 	H 	0.31120 0.50540 0.83060 -0.01000
H 	H 	0.46430 0.43810 0.77030 0.29200
H 	H 	0.51700 0.38000 0.72380 0.29900
H 	H 	0.46530 0.34930 0.81360 0.30400
H 	H 	0.39470 0.52350 0.67210 0.31000
H 	H 	0.35130 0.48810 0.65460 0.31500
H 	H 	0.44260 0.47040 0.61980 0.30400
H 	H 	0.90870 0.70870 0.24360 -0.01500
H 	H 	0.07920 0.81960 0.08680 0.01100
H 	H 	0.02280 0.91140 0.14450 0.07700
H 	H 	0.92880 0.00680 0.22980 0.08300
H 	H 	0.83580 0.06980 0.31660 0.00600
H 	H 	0.72500 0.89700 0.43210 -0.01900
H 	H 	0.75860 0.76580 0.31830 0.34900
H 	H 	0.70740 0.82540 0.36310 0.35500
H 	H 	0.75160 0.85540 0.27100 0.35700
H 	H 	0.83720 0.69260 0.40550 0.35000
H 	H 	0.88180 0.73420 0.41410 0.35500
H 	H 	0.79090 0.74850 0.45470 0.35500
H 	H 	0.01130 0.43510 0.09490 0.00900
H 	H 	0.93050 0.35250 0.17830 0.08000
H 	H 	0.81860 0.48180 0.31390 0.06500
H 	H 	0.90540 0.55780 0.23050 -0.01200
H 	H 	0.80940 0.32940 0.22810 0.09600
H 	H 	0.72870 0.24710 0.31420 -0.01500
H 	H 	0.70080 0.28860 0.49070 -0.01800
H 	H 	0.78950 0.36490 0.41200 0.07300
H 	H 	0.31840 0.50600 0.14080 -0.01100
H 	H 	0.16160 0.38240 0.23000 0.00200
H 	H 	0.22370 0.28430 0.31530 0.07100
H 	H 	0.31410 0.18990 0.40610 0.07700
H 	H 	0.40570 0.13050 0.46830 0.01500
H 	H 	0.50540 0.31120 0.33060 -0.01000
H 	H 	0.43810 0.46430 0.27030 0.29200
H 	H 	0.38000 0.51700 0.22380 0.29900
H 	H 	0.34930 0.46530 0.31360 0.30400
H 	H 	0.52350 0.39470 0.17210 0.31000
H 	H 	0.48810 0.35130 0.15460 0.31500
H 	H 	0.47040 0.44260 0.11980 0.30400
H 	H 	0.70870 0.90870 0.74360 -0.01800
H 	H 	0.81960 0.07920 0.58680 0.00600
H 	H 	0.91140 0.02280 0.64450 0.08100
H 	H 	0.00680 0.92880 0.72980 0.07300
H 	H 	0.06980 0.83580 0.81660 0.01600
H 	H 	0.89700 0.72500 0.93210 -0.01400
H 	H 	0.76580 0.75860 0.81830 0.35000
H 	H 	0.82540 0.70740 0.86310 0.35600
H 	H 	0.85540 0.75160 0.77100 0.35800
H 	H 	0.69260 0.83720 0.90550 0.35100
H 	H 	0.73420 0.88180 0.91410 0.35600
H 	H 	0.74850 0.79090 0.95470 0.35600
H 	H 	0.43510 0.01130 0.59490 0.00300
H 	H 	0.35250 0.93050 0.67830 0.08400
H 	H 	0.48180 0.81860 0.81390 0.06600
H 	H 	0.55780 0.90540 0.73050 -0.01200
H 	H 	0.32940 0.80940 0.72810 0.09600
H 	H 	0.24710 0.72870 0.81420 -0.01500
H 	H 	0.28860 0.70080 0.99070 -0.01900
H 	H 	0.36490 0.78950 0.91200 0.07200
C 	C 	0.46220 0.29900 0.67690 0.10800
C 	C 	0.45370 0.23210 0.67810 -0.17200
C 	C 	0.38750 0.20550 0.73010 0.08100
C 	C 	0.32920 0.24180 0.78150 -0.15900
C 	C 	0.21440 0.35180 0.89150 -0.15200
C 	C 	0.17930 0.40690 0.92840 0.07400
C 	C 	0.21510 0.46350 0.90720 -0.16900
C 	C 	0.28730 0.46690 0.84610 0.11100
C 	C 	0.40090 0.40650 0.73970 0.49800
C 	C 	0.40460 0.33480 0.72980 -0.21100
C 	C 	0.33730 0.30650 0.78310 0.06800
C 	C 	0.28690 0.35470 0.83260 0.06300
C 	C 	0.32250 0.41370 0.80920 -0.20300
C 	C 	0.46810 0.39210 0.76410 -0.96000
C 	C 	0.39700 0.47900 0.66450 -0.97300
C 	C 	0.51540 0.19140 0.62170 0.41300
C 	C 	0.17620 0.52060 0.94940 0.41100
C 	C 	0.93160 0.74900 0.22510 0.12500
C 	C 	0.00080 0.75520 0.15890 -0.17000
C 	C 	0.03320 0.81600 0.13060 0.09000
C 	C 	0.00000 0.87060 0.16480 -0.14800
C 	C 	0.88740 0.98540 0.27020 -0.16900
C 	C 	0.83220 0.02280 0.32210 0.10100
C 	C 	0.76990 0.99070 0.38370 -0.18600
C 	C 	0.76560 0.91940 0.39120 0.14100
C 	C 	0.82510 0.80770 0.33460 0.59400
C 	C 	0.89830 0.80210 0.26190 -0.23900
C 	C 	0.93130 0.86550 0.23090 0.06600
C 	C 	0.88210 0.91590 0.27740 0.09300
C 	C 	0.82060 0.88300 0.33850 -0.25200
C 	C 	0.75400 0.81420 0.32040 -1.09900
C 	C 	0.83460 0.73940 0.40910 -1.11300
C 	C 	0.03760 0.69680 0.11740 0.42200
C 	C 	0.70880 0.03260 0.43940 0.42200
C 	C 	0.97230 0.44430 0.14060 0.06900
C 	C 	0.92340 0.39460 0.19030 -0.13300
C 	C 	0.86500 0.40720 0.25650 0.05300
C 	C 	0.85850 0.47010 0.26990 -0.14000
C 	C 	0.91040 0.51620 0.21890 0.08800
C 	C 	0.81140 0.35540 0.30930 0.07300
C 	C 	0.79060 0.32020 0.28230 -0.16800
C 	C 	0.74150 0.27070 0.33470 0.10400
C 	C 	0.72640 0.29360 0.43730 0.09500
C 	C 	0.77790 0.34190 0.38970 -0.16300
C 	C 	0.29900 0.46220 0.17690 0.10800
C 	C 	0.23210 0.45370 0.17810 -0.17200
C 	C 	0.20550 0.38750 0.23010 0.08100
C 	C 	0.24180 0.32920 0.28150 -0.15900
C 	C 	0.35180 0.21440 0.39150 -0.15300
C 	C 	0.40690 0.17930 0.42840 0.07500
C 	C 	0.46350 0.21510 0.40720 -0.17100
C 	C 	0.46690 0.28730 0.34610 0.11300
C 	C 	0.40650 0.40090 0.23970 0.49800
C 	C 	0.33480 0.40460 0.22980 -0.21100
C 	C 	0.30650 0.33730 0.28310 0.06800
C 	C 	0.35470 0.28690 0.33260 0.06300
C 	C 	0.41370 0.32250 0.30920 -0.20400
C 	C 	0.39210 0.46810 0.26410 -0.96000
C 	C 	0.47900 0.39700 0.16450 -0.97300
C 	C 	0.19140 0.51540 0.12170 0.41200
C 	C 	0.52060 0.17620 0.44940 0.41600
C 	C 	0.74900 0.93160 0.72510 0.13700
C 	C 	0.75520 0.00080 0.65890 -0.18100
C 	C 	0.81600 0.03320 0.63060 0.10200
C 	C 	0.87060 -0.00000 0.66480 -0.16400
C 	C 	0.98540 0.88740 0.77020 -0.14300
C 	C 	0.02280 0.83220 0.82210 0.07300
C 	C 	0.99070 0.76990 0.88370 -0.16500
C 	C 	0.91940 0.76560 0.89120 0.12800
C 	C 	0.80770 0.82510 0.83460 0.59500
C 	C 	0.80210 0.89830 0.76190 -0.24600
C 	C 	0.86550 0.93130 0.73090 0.08000
C 	C 	0.91590 0.88210 0.77740 0.07800
C 	C 	0.88300 0.82060 0.83850 -0.24200
C 	C 	0.81420 0.75400 0.82040 -1.10100
C 	C 	0.73940 0.83460 0.90910 -1.11500
C 	C 	0.69680 0.03760 0.61740 0.42500
C 	C 	0.03260 0.70880 0.93940 0.40700
C 	C 	0.44430 0.97230 0.64060 0.08000
C 	C 	0.39460 0.92340 0.69030 -0.13900
C 	C 	0.40720 0.86500 0.75650 0.05700
C 	C 	0.47010 0.85850 0.76990 -0.14300
C 	C 	0.51620 0.91040 0.71890 0.09000
C 	C 	0.35540 0.81140 0.80930 0.07100
C 	C 	0.32020 0.79060 0.78230 -0.16600
C 	C 	0.27070 0.74150 0.83470 0.10300
C 	C 	0.29360 0.72640 0.93730 0.09400
C 	C 	0.34190 0.77790 0.88970 -0.16200
N 	N 	0.96664 0.50424 0.15470 -0.25700
N 	N 	0.71228 0.25528 0.41100 -0.26600
N 	N 	0.50424 0.96664 0.65470 -0.25800
N 	N 	0.25528 0.71228 0.91100 -0.26600
O 	O 	0.56789 0.22569 0.56570 -0.46900
O 	O 	0.51029 0.12729 0.63270 -0.49000
O 	O 	0.10969 0.51669 0.00120 -0.47200
O 	O 	0.21278 0.56758 0.93080 -0.47700
O 	O 	0.00413 0.64573 0.14110 -0.47300
O 	O 	0.10165 0.70385 0.06190 -0.48000
O 	O 	0.66026 0.99726 0.49900 -0.47600
O 	O 	0.71041 0.10101 0.42070 -0.47400
O 	O 	0.22569 0.56789 0.06570 -0.46800
O 	O 	0.12729 0.51029 0.13270 -0.48900
O 	O 	0.51669 0.10969 0.50120 -0.47600
O 	O 	0.56758 0.21278 0.43080 -0.47800
O 	O 	0.64573 0.00413 0.64110 -0.47500
O 	O 	0.70385 0.10165 0.56190 -0.48300
O 	O 	0.99726 0.66026 0.99900 -0.46900
O 	O 	0.10101 0.71041 0.92070 -0.47100
