data_crystal

_cell_length_a 10.18000
_cell_length_b 11.06000
_cell_length_c 14.01370
_cell_angle_alpha 68.29700
_cell_angle_beta  78.85900
_cell_angle_gamma 72.30000

_symmetry_space_group_name_	'P 1'
_symmetry_space_group_name_H-M	'P 1'

loop_
_symmetry_equiv_pos_as_xyz
  x,y,z

loop_
_atom_site_label
_atom_site_type_symbol
_atom_site_fract_x
_atom_site_fract_y
_atom_site_fract_z
_atom_site_charge
Zn	Zn	0.92247 0.14624 0.08602 1.24500
Zn	Zn	0.92154 0.64801 0.08304 1.24400
Zn	Zn	0.37564 0.01330 0.17730 1.22700
Zn	Zn	0.02476 0.22077 0.48851 0.71600
Zn	Zn	0.61851 0.49055 0.82359 1.22200
P 	P 	0.77494 0.46867 0.01775 0.46900
P 	P 	0.22200 0.03026 0.98437 0.47500
P 	P 	0.15964 0.98644 0.38524 0.43300
P 	P 	0.15665 0.47441 0.37991 0.46300
O 	O 	0.66580 0.49420 0.94898 -0.46100
O 	O 	0.81870 0.59497 0.00086 -0.42800
O 	O 	0.89850 0.34952 0.01357 -0.56000
O 	O 	0.58420 0.52320 0.16972 -0.61300
H 	H 	0.61100 0.58400 0.16200 0.37300
O 	O 	0.51110 0.30865 0.20216 -0.38400
O 	O 	0.72200 0.18695 0.17230 -0.41500
O 	O 	0.09960 0.15040 0.98740 -0.56300
O 	O 	0.17760 0.90503 0.99925 -0.42900
O 	O 	0.32850 0.00270 0.05536 -0.46000
O 	O 	0.41920 0.97000 0.84040 -0.63300
H 	H 	0.38300 0.91800 0.84500 0.39900
O 	O 	0.49120 0.18660 0.80011 -0.39000
O 	O 	0.28050 0.30980 0.82946 -0.41100
O 	O 	0.28680 0.94570 0.31540 -0.41400
O 	O 	0.17250 0.09740 0.42081 -0.36600
O 	O 	0.13200 0.86540 0.47591 -0.40000
O 	O 	0.02380 0.15960 0.21489 -0.68700
H 	H 	0.00700 0.21800 0.22900 0.44400
O 	O 	0.97110 0.95960 0.19302 -0.41900
O 	O 	0.93870 0.84980 0.35864 -0.42300
O 	O 	0.12700 0.35860 0.47185 -0.39500
O 	O 	0.17220 0.58740 0.41544 -0.42600
H 	H 	0.25900 0.59800 0.39400 0.20400
O 	O 	0.28010 0.43460 0.30876 -0.43600
O 	O 	0.01610 0.65980 0.21726 -0.58100
H 	H 	0.00400 0.71300 0.24100 0.37500
O 	O 	0.93320 0.34540 0.35286 -0.42500
O 	O 	0.96680 0.46130 0.18916 -0.43700
C 	C 	0.69500 0.41710 0.15080 -0.09100
H 	H 	0.76500 0.38700 0.19700 0.07800
C 	C 	0.63820 0.29650 0.17680 0.35100
C 	C 	0.30660 0.07980 0.85250 -0.09800
H 	H 	0.24100 0.10500 0.80300 0.07900
C 	C 	0.36450 0.20000 0.82610 0.36000
C 	C 	0.00580 0.05650 0.31030 -0.08000
H 	H 	0.93100 0.08800 0.35600 0.05200
C 	C 	0.96920 0.94750 0.28630 0.35600
C 	C 	0.99950 0.55190 0.31060 -0.12800
H 	H 	0.92200 0.57800 0.35800 0.08800
C 	C 	0.96390 0.44560 0.28230 0.37600
Zn	Zn	0.00560 0.24250 0.49610 0.52400
Zn	Zn	0.07753 0.85376 0.91398 1.24500
Zn	Zn	0.07846 0.35199 0.91696 1.24400
Zn	Zn	0.62436 0.98670 0.82270 1.22700
Zn	Zn	0.97524 0.77923 0.51149 0.71600
Zn	Zn	0.38149 0.50945 0.17641 1.22200
P 	P 	0.22506 0.53133 0.98225 0.46900
P 	P 	0.77800 0.96974 0.01563 0.47500
P 	P 	0.84036 0.01356 0.61476 0.43300
P 	P 	0.84335 0.52559 0.62009 0.46300
O 	O 	0.33420 0.50580 0.05102 -0.46100
O 	O 	0.18130 0.40503 0.99914 -0.42800
O 	O 	0.10150 0.65048 0.98643 -0.56000
O 	O 	0.41580 0.47680 0.83028 -0.61300
H 	H 	0.38900 0.41600 0.83800 0.37300
O 	O 	0.48890 0.69135 0.79784 -0.38400
O 	O 	0.27800 0.81305 0.82770 -0.41500
O 	O 	0.90040 0.84960 0.01260 -0.56300
O 	O 	0.82240 0.09497 0.00075 -0.42900
O 	O 	0.67150 0.99730 0.94464 -0.46000
O 	O 	0.58080 0.03000 0.15960 -0.63300
H 	H 	0.61700 0.08200 0.15500 0.39900
O 	O 	0.50880 0.81340 0.19989 -0.39000
O 	O 	0.71950 0.69020 0.17054 -0.41100
O 	O 	0.71320 0.05430 0.68460 -0.41400
O 	O 	0.82750 0.90260 0.57919 -0.36600
O 	O 	0.86800 0.13460 0.52409 -0.40000
O 	O 	0.97620 0.84040 0.78511 -0.68700
H 	H 	0.99300 0.78200 0.77100 0.44400
O 	O 	0.02890 0.04040 0.80698 -0.41900
O 	O 	0.06130 0.15020 0.64136 -0.42300
O 	O 	0.87300 0.64140 0.52815 -0.39500
O 	O 	0.82780 0.41260 0.58456 -0.42600
H 	H 	0.74100 0.40200 0.60600 0.20400
O 	O 	0.71990 0.56540 0.69124 -0.43600
O 	O 	0.98390 0.34020 0.78274 -0.58100
H 	H 	0.99600 0.28700 0.75900 0.37500
O 	O 	0.06680 0.65460 0.64714 -0.42500
O 	O 	0.03320 0.53870 0.81084 -0.43700
C 	C 	0.30500 0.58290 0.84920 -0.09100
H 	H 	0.23500 0.61300 0.80300 0.07800
C 	C 	0.36180 0.70350 0.82320 0.35100
C 	C 	0.69340 0.92020 0.14750 -0.09800
H 	H 	0.75900 0.89500 0.19700 0.07900
C 	C 	0.63550 0.80000 0.17390 0.36000
C 	C 	0.99420 0.94350 0.68970 -0.08000
H 	H 	0.06900 0.91200 0.64400 0.05200
C 	C 	0.03080 0.05250 0.71370 0.35600
C 	C 	0.00050 0.44810 0.68940 -0.12800
H 	H 	0.07800 0.42200 0.64200 0.08800
C 	C 	0.03610 0.55440 0.71770 0.37600
Zn	Zn	0.99440 0.75750 0.50390 0.52400
