data_crystal

_cell_length_a 8.25400
_cell_length_b 18.00600
_cell_length_c 18.89600
_cell_angle_alpha 90.00000
_cell_angle_beta  90.00000
_cell_angle_gamma 90.00000

_symmetry_space_group_name_	'P 1'
_symmetry_space_group_name_H-M	'P 1'

loop_
_symmetry_equiv_pos_as_xyz
  x,y,z

loop_
_atom_site_label
_atom_site_type_symbol
_atom_site_fract_x
_atom_site_fract_y
_atom_site_fract_z
_atom_site_charge
Cd	Cd	0.48731 0.09337 0.02727 1.21800
Cd	Cd	0.51269 0.59337 0.97273 1.21900
Cd	Cd	0.51269 0.09337 0.52727 1.21700
Cd	Cd	0.48731 0.59337 0.47273 1.21900
H 	H 	0.64890 0.08490 0.86410 0.02600
H 	H 	0.50130 0.07190 0.75050 0.04600
H 	H 	0.18400 0.10850 0.90540 -0.00400
H 	H 	0.00150 0.03420 0.82800 0.09500
H 	H 	0.78420 0.03700 0.75060 0.01900
H 	H 	0.06640 0.13150 0.60220 0.03100
H 	H 	0.28410 0.12980 0.68010 0.08300
H 	H 	0.41800 0.25250 0.13010 0.02600
H 	H 	0.60050 0.36080 0.13490 0.03500
H 	H 	0.78630 0.21070 0.00360 -0.00200
H 	H 	0.74200 0.44440 0.03870 0.08600
H 	H 	0.95760 0.52330 0.01260 0.03000
H 	H 	0.26610 0.35130 0.02400 0.02200
H 	H 	0.05240 0.27130 0.04980 0.10200
H 	H 	0.35110 0.58490 0.13590 0.02700
H 	H 	0.49870 0.57190 0.24950 0.04700
H 	H 	0.81600 0.60850 0.09460 -0.00400
H 	H 	0.99850 0.53420 0.17200 0.09700
H 	H 	0.21580 0.53700 0.24940 0.02000
H 	H 	0.93360 0.63150 0.39780 0.03000
H 	H 	0.71590 0.62980 0.31990 0.08300
H 	H 	0.58200 0.75250 0.86990 0.02600
H 	H 	0.39950 0.86080 0.86510 0.03700
H 	H 	0.21370 0.71070 0.99640 -0.00200
H 	H 	0.25800 0.94440 0.96130 0.09400
H 	H 	0.04240 0.02330 0.98740 0.01500
H 	H 	0.73390 0.85130 0.97600 0.01800
H 	H 	0.94760 0.77130 0.95020 0.10500
H 	H 	0.35110 0.08490 0.36410 0.02500
H 	H 	0.49870 0.07190 0.25050 0.04600
H 	H 	0.81600 0.10850 0.40540 -0.00500
H 	H 	0.99850 0.03420 0.32800 0.09400
H 	H 	0.21580 0.03700 0.25060 0.01900
H 	H 	0.93360 0.13150 0.10220 0.03000
H 	H 	0.71590 0.12980 0.18010 0.08200
H 	H 	0.58200 0.25250 0.63010 0.02600
H 	H 	0.39950 0.36080 0.63490 0.03500
H 	H 	0.21370 0.21070 0.50360 -0.00200
H 	H 	0.25800 0.44440 0.53870 0.08500
H 	H 	0.04240 0.52330 0.51260 0.03000
H 	H 	0.73390 0.35130 0.52400 0.02200
H 	H 	0.94760 0.27130 0.54980 0.10200
H 	H 	0.64890 0.58490 0.63590 0.02600
H 	H 	0.50130 0.57190 0.74950 0.04700
H 	H 	0.18400 0.60850 0.59460 -0.00500
H 	H 	0.00150 0.53420 0.67200 0.09700
H 	H 	0.78420 0.53700 0.74940 0.02000
H 	H 	0.06640 0.63150 0.89780 0.03000
H 	H 	0.28410 0.62980 0.81990 0.08300
H 	H 	0.41800 0.75250 0.36990 0.02700
H 	H 	0.60050 0.86080 0.36510 0.03700
H 	H 	0.78630 0.71070 0.49640 -0.00200
H 	H 	0.74200 0.94440 0.46130 0.09600
H 	H 	0.95760 0.02330 0.48740 0.01100
H 	H 	0.26610 0.85130 0.47600 0.01700
H 	H 	0.05240 0.77130 0.45020 0.10600
C 	C 	0.53730 0.08790 0.85810 -0.00100
C 	C 	0.45610 0.08020 0.79490 -0.00100
C 	C 	0.28090 0.10060 0.88150 0.09400
C 	C 	0.16150 0.08580 0.76250 0.14800
C 	C 	0.01320 0.05490 0.78320 -0.16800
C 	C 	0.88420 0.05550 0.73640 0.06500
C 	C 	0.90250 0.08370 0.66810 -0.11100
C 	C 	0.05320 0.11230 0.64750 0.05500
C 	C 	0.18330 0.11220 0.69440 -0.16100
C 	C 	0.76300 0.08820 0.61720 0.29700
C 	C 	0.51460 0.25790 0.10530 -0.00300
C 	C 	0.61540 0.31810 0.10800 0.00800
C 	C 	0.71740 0.23450 0.03520 0.09400
C 	C 	0.87800 0.35110 0.04780 0.15300
C 	C 	0.84710 0.42590 0.03610 -0.16300
C 	C 	0.97660 0.47310 0.02030 0.05300
C 	C 	0.13400 0.44550 0.01610 -0.11200
C 	C 	0.16120 0.36990 0.02710 0.06600
C 	C 	0.03390 0.32170 0.04280 -0.17300
C 	C 	0.27250 0.49730 0.00020 0.30400
C 	C 	0.46270 0.58790 0.14190 -0.00000
C 	C 	0.54390 0.58020 0.20510 0.00000
C 	C 	0.71910 0.60060 0.11850 0.09600
C 	C 	0.83850 0.58580 0.23750 0.15000
C 	C 	0.98680 0.55490 0.21680 -0.16800
C 	C 	0.11580 0.55550 0.26360 0.06700
C 	C 	0.09750 0.58370 0.33190 -0.11000
C 	C 	0.94680 0.61230 0.35250 0.05600
C 	C 	0.81670 0.61220 0.30560 -0.16100
C 	C 	0.23700 0.58820 0.38280 0.29800
C 	C 	0.48540 0.75790 0.89470 -0.00300
C 	C 	0.38460 0.81810 0.89200 0.00900
C 	C 	0.28260 0.73450 0.96480 0.09500
C 	C 	0.12200 0.85110 0.95220 0.16300
C 	C 	0.15290 0.92590 0.96390 -0.17900
C 	C 	0.02340 0.97310 0.97970 0.08300
C 	C 	0.86600 0.94550 0.98390 -0.12500
C 	C 	0.83880 0.86990 0.97290 0.07700
C 	C 	0.96610 0.82170 0.95720 -0.18200
C 	C 	0.72750 0.99730 0.99980 0.31600
C 	C 	0.46270 0.08790 0.35810 -0.00200
C 	C 	0.54390 0.08020 0.29490 -0.00100
C 	C 	0.71910 0.10060 0.38150 0.09400
C 	C 	0.83850 0.08580 0.26250 0.14800
C 	C 	0.98680 0.05490 0.28320 -0.16800
C 	C 	0.11580 0.05550 0.23640 0.06500
C 	C 	0.09750 0.08370 0.16810 -0.11100
C 	C 	0.94680 0.11230 0.14750 0.05500
C 	C 	0.81670 0.11220 0.19440 -0.16100
C 	C 	0.23700 0.08820 0.11720 0.29700
C 	C 	0.48540 0.25790 0.60530 -0.00300
C 	C 	0.38460 0.31810 0.60800 0.00800
C 	C 	0.28260 0.23450 0.53520 0.09400
C 	C 	0.12200 0.35110 0.54780 0.15300
C 	C 	0.15290 0.42590 0.53610 -0.16300
C 	C 	0.02340 0.47310 0.52030 0.05300
C 	C 	0.86600 0.44550 0.51610 -0.11100
C 	C 	0.83880 0.36990 0.52710 0.06600
C 	C 	0.96610 0.32170 0.54280 -0.17300
C 	C 	0.72750 0.49730 0.50020 0.30300
C 	C 	0.53730 0.58790 0.64190 -0.00000
C 	C 	0.45610 0.58020 0.70510 -0.00000
C 	C 	0.28090 0.60060 0.61850 0.09600
C 	C 	0.16150 0.58580 0.73750 0.15000
C 	C 	0.01320 0.55490 0.71680 -0.16800
C 	C 	0.88420 0.55550 0.76360 0.06600
C 	C 	0.90250 0.58370 0.83190 -0.11100
C 	C 	0.05320 0.61230 0.85250 0.05600
C 	C 	0.18330 0.61220 0.80560 -0.16100
C 	C 	0.76300 0.58820 0.88280 0.29800
C 	C 	0.51460 0.75790 0.39470 -0.00300
C 	C 	0.61540 0.81810 0.39200 0.00900
C 	C 	0.71740 0.73450 0.46480 0.09500
C 	C 	0.87800 0.85110 0.45220 0.16400
C 	C 	0.84710 0.92590 0.46390 -0.18300
C 	C 	0.97660 0.97310 0.47970 0.09000
C 	C 	0.13400 0.94550 0.48390 -0.12800
C 	C 	0.16120 0.86990 0.47290 0.08000
C 	C 	0.03390 0.82170 0.45720 -0.18400
C 	C 	0.27250 0.99730 0.49980 0.32200
N 	N 	0.42490 0.10100 0.91110 -0.23400
N 	N 	0.29320 0.08720 0.81110 -0.14400
N 	N 	0.58160 0.20600 0.05880 -0.23500
N 	N 	0.74510 0.30320 0.06260 -0.14400
N 	N 	0.57510 0.60100 0.08890 -0.23300
N 	N 	0.70680 0.58720 0.18890 -0.14400
N 	N 	0.41840 0.70600 0.94120 -0.23500
N 	N 	0.25490 0.80320 0.93740 -0.14500
N 	N 	0.57510 0.10100 0.41110 -0.23400
N 	N 	0.70680 0.08720 0.31110 -0.14400
N 	N 	0.41840 0.20600 0.55880 -0.23500
N 	N 	0.25490 0.30320 0.56260 -0.14400
N 	N 	0.42490 0.60100 0.58890 -0.23300
N 	N 	0.29320 0.58720 0.68890 -0.14400
N 	N 	0.58160 0.70600 0.44120 -0.23500
N 	N 	0.74510 0.80320 0.43740 -0.14500
O 	O 	0.62680 0.06120 0.63610 -0.38100
O 	O 	0.78520 0.11770 0.55740 -0.38100
O 	O 	0.24170 0.56610 0.99840 -0.38000
O 	O 	0.41320 0.47200 0.98900 -0.37400
O 	O 	0.37320 0.56120 0.36390 -0.37800
O 	O 	0.21480 0.61770 0.44260 -0.38000
O 	O 	0.75830 0.06610 0.00160 -0.38900
O 	O 	0.58680 0.97200 0.01100 -0.36900
O 	O 	0.37320 0.06120 0.13610 -0.38100
O 	O 	0.21480 0.11770 0.05740 -0.38100
O 	O 	0.75830 0.56610 0.49840 -0.38000
O 	O 	0.58680 0.47200 0.48900 -0.37300
O 	O 	0.62680 0.56120 0.86390 -0.37800
O 	O 	0.78520 0.61770 0.94260 -0.38100
O 	O 	0.24170 0.06610 0.50160 -0.39000
O 	O 	0.41320 0.97200 0.51100 -0.37300
