data_crystal

_cell_length_a 16.72000
_cell_length_b 17.08100
_cell_length_c 18.43200
_cell_angle_alpha 90.00000
_cell_angle_beta  90.00000
_cell_angle_gamma 90.00000

_symmetry_space_group_name_	'P 1'
_symmetry_space_group_name_H-M	'P 1'

loop_
_symmetry_equiv_pos_as_xyz
  x,y,z

loop_
_atom_site_label
_atom_site_type_symbol
_atom_site_fract_x
_atom_site_fract_y
_atom_site_fract_z
_atom_site_charge
Cd	Cd	0.77687 0.99150 0.51910 1.21900
Cd	Cd	0.27687 0.50850 0.48090 1.21800
Cd	Cd	0.27687 0.99150 0.98090 1.21700
Cd	Cd	0.77687 0.50850 0.01910 1.21800
H 	H 	0.59750 0.93920 0.61360 0.02700
H 	H 	0.47860 0.02230 0.61900 0.03100
H 	H 	0.64080 0.12310 0.49280 0.00100
H 	H 	0.38730 0.11340 0.55320 0.08700
H 	H 	0.31080 0.22410 0.53490 0.02000
H 	H 	0.51050 0.35160 0.50960 0.01200
H 	H 	0.58700 0.24230 0.53060 0.11400
H 	H 	0.68970 0.04610 0.35820 0.02100
H 	H 	0.68720 0.96940 0.24530 0.04500
H 	H 	0.81390 0.85530 0.39370 -0.00600
H 	H 	0.77390 0.73960 0.33140 0.10200
H 	H 	0.79160 0.63680 0.25020 0.01900
H 	H 	0.77660 0.78460 0.08270 0.02500
H 	H 	0.76440 0.88930 0.16160 0.08300
H 	H 	0.09750 0.56080 0.38640 0.02700
H 	H 	0.97860 0.47770 0.38100 0.03100
H 	H 	0.14080 0.37690 0.50720 0.00200
H 	H 	0.88730 0.38660 0.44680 0.08600
H 	H 	0.81080 0.27590 0.46510 0.02100
H 	H 	0.01050 0.14840 0.49040 0.01400
H 	H 	0.08700 0.25770 0.46940 0.11300
H 	H 	0.18970 0.45390 0.64180 0.02300
H 	H 	0.18720 0.53060 0.75470 0.04300
H 	H 	0.31390 0.64470 0.60630 -0.00600
H 	H 	0.27390 0.76040 0.66860 0.10200
H 	H 	0.29160 0.86320 0.74980 0.01900
H 	H 	0.27660 0.71540 0.91730 0.02400
H 	H 	0.26440 0.61070 0.83840 0.08200
H 	H 	0.09750 0.93920 0.88640 0.03100
H 	H 	0.97860 0.02230 0.88100 0.02700
H 	H 	0.14080 0.12310 0.00720 -0.00300
H 	H 	0.88730 0.11340 0.94680 0.08800
H 	H 	0.81080 0.22410 0.96510 0.02000
H 	H 	0.01050 0.35160 0.99040 0.01200
H 	H 	0.08700 0.24230 0.96940 0.11600
H 	H 	0.18970 0.04610 0.14180 0.01900
H 	H 	0.18720 0.96940 0.25470 0.04500
H 	H 	0.31390 0.85530 0.10630 -0.00500
H 	H 	0.27390 0.73960 0.16860 0.10200
H 	H 	0.29160 0.63680 0.24980 0.01900
H 	H 	0.27660 0.78460 0.41730 0.02500
H 	H 	0.26440 0.88930 0.33840 0.08200
H 	H 	0.59750 0.56080 0.11360 0.02700
H 	H 	0.47860 0.47770 0.11900 0.03100
H 	H 	0.64080 0.37690 0.99280 0.00300
H 	H 	0.38730 0.38660 0.05320 0.08700
H 	H 	0.31080 0.27590 0.03490 0.02000
H 	H 	0.51050 0.14840 0.00960 0.01200
H 	H 	0.58700 0.25770 0.03060 0.11400
H 	H 	0.68970 0.45390 0.85820 0.02400
H 	H 	0.68720 0.53060 0.74530 0.04300
H 	H 	0.81390 0.64470 0.89370 -0.00600
H 	H 	0.77390 0.76040 0.83140 0.10200
H 	H 	0.79160 0.86320 0.75020 0.01900
H 	H 	0.77660 0.71540 0.58270 0.02500
H 	H 	0.76440 0.61070 0.66160 0.08200
C 	C 	0.59140 0.98690 0.59000 0.00300
C 	C 	0.52560 0.03260 0.59380 0.00700
C 	C 	0.61590 0.08790 0.52400 0.08700
C 	C 	0.49400 0.16610 0.54170 0.16400
C 	C 	0.41200 0.16120 0.54420 -0.18200
C 	C 	0.36630 0.22760 0.53340 0.07900
C 	C 	0.40240 0.29960 0.52030 -0.13700
C 	C 	0.48580 0.30390 0.51870 0.09500
C 	C 	0.53160 0.23860 0.53030 -0.19100
C 	C 	0.35240 0.37050 0.50840 0.32400
C 	C 	0.71460 0.99810 0.35100 0.00700
C 	C 	0.71270 0.95580 0.28840 0.00000
C 	C 	0.78290 0.89330 0.37100 0.09900
C 	C 	0.76820 0.82470 0.25270 0.15400
C 	C 	0.77560 0.74850 0.28170 -0.17300
C 	C 	0.78530 0.68740 0.23260 0.07600
C 	C 	0.78600 0.69970 0.15900 -0.12300
C 	C 	0.77710 0.77600 0.13250 0.06400
C 	C 	0.76910 0.83860 0.17940 -0.16700
C 	C 	0.79280 0.63100 0.10840 0.31200
C 	C 	0.09140 0.51310 0.41000 0.00500
C 	C 	0.02560 0.46740 0.40620 0.00600
C 	C 	0.11590 0.41210 0.47600 0.08700
C 	C 	0.99400 0.33390 0.45830 0.16200
C 	C 	0.91200 0.33880 0.45580 -0.18000
C 	C 	0.86630 0.27240 0.46660 0.07700
C 	C 	0.90240 0.20040 0.47970 -0.13500
C 	C 	0.98580 0.19610 0.48130 0.09100
C 	C 	0.03160 0.26140 0.46970 -0.18800
C 	C 	0.85240 0.12950 0.49160 0.32400
C 	C 	0.21460 0.50190 0.64900 0.00200
C 	C 	0.21270 0.54420 0.71160 0.00200
C 	C 	0.28290 0.60670 0.62900 0.09900
C 	C 	0.26820 0.67530 0.74730 0.15400
C 	C 	0.27560 0.75150 0.71830 -0.17400
C 	C 	0.28530 0.81260 0.76740 0.07600
C 	C 	0.28600 0.80030 0.84100 -0.12400
C 	C 	0.27710 0.72400 0.86750 0.06500
C 	C 	0.26910 0.66140 0.82060 -0.16700
C 	C 	0.29280 0.86900 0.89160 0.31200
C 	C 	0.09140 0.98690 0.91000 -0.01100
C 	C 	0.02560 0.03260 0.90620 0.01800
C 	C 	0.11590 0.08790 0.97600 0.09400
C 	C 	0.99400 0.16610 0.95830 0.16600
C 	C 	0.91200 0.16120 0.95580 -0.18300
C 	C 	0.86630 0.22760 0.96660 0.08100
C 	C 	0.90240 0.29960 0.97970 -0.13800
C 	C 	0.98580 0.30390 0.98130 0.09700
C 	C 	0.03160 0.23860 0.96970 -0.19300
C 	C 	0.85240 0.37050 0.99160 0.32600
C 	C 	0.21460 0.99810 0.14900 0.01000
C 	C 	0.21270 0.95580 0.21160 -0.00100
C 	C 	0.28290 0.89330 0.12900 0.09900
C 	C 	0.26820 0.82470 0.24730 0.15400
C 	C 	0.27560 0.74850 0.21830 -0.17300
C 	C 	0.28530 0.68740 0.26740 0.07600
C 	C 	0.28600 0.69970 0.34100 -0.12300
C 	C 	0.27710 0.77600 0.36750 0.06500
C 	C 	0.26910 0.83860 0.32060 -0.16700
C 	C 	0.29280 0.63100 0.39160 0.31200
C 	C 	0.59140 0.51310 0.09000 0.00500
C 	C 	0.52560 0.46740 0.09380 0.00600
C 	C 	0.61590 0.41210 0.02400 0.08500
C 	C 	0.49400 0.33390 0.04170 0.16300
C 	C 	0.41200 0.33880 0.04420 -0.18100
C 	C 	0.36630 0.27240 0.03340 0.07700
C 	C 	0.40240 0.20040 0.02030 -0.13500
C 	C 	0.48580 0.19610 0.01870 0.09300
C 	C 	0.53160 0.26140 0.03030 -0.19000
C 	C 	0.35240 0.12950 0.00840 0.31900
C 	C 	0.71460 0.50190 0.85100 0.00200
C 	C 	0.71270 0.54420 0.78840 0.00300
C 	C 	0.78290 0.60670 0.87100 0.09900
C 	C 	0.76820 0.67530 0.75270 0.15300
C 	C 	0.77560 0.75150 0.78170 -0.17300
C 	C 	0.78530 0.81260 0.73260 0.07600
C 	C 	0.78600 0.80030 0.65900 -0.12300
C 	C 	0.77710 0.72400 0.63250 0.06500
C 	C 	0.76910 0.66140 0.67940 -0.16700
C 	C 	0.79280 0.86900 0.60840 0.31200
N 	N 	0.64870 0.02130 0.54590 -0.23400
N 	N 	0.54260 0.09860 0.55190 -0.14600
N 	N 	0.75940 0.95840 0.40200 -0.23700
N 	N 	0.75640 0.88850 0.30190 -0.14400
N 	N 	0.14870 0.47870 0.45410 -0.23400
N 	N 	0.04260 0.40140 0.44810 -0.14600
N 	N 	0.25940 0.54160 0.59800 -0.23600
N 	N 	0.25640 0.61150 0.69810 -0.14500
N 	N 	0.14870 0.02130 0.95410 -0.23000
N 	N 	0.04260 0.09860 0.94810 -0.14900
N 	N 	0.25940 0.95840 0.09800 -0.23600
N 	N 	0.25640 0.88850 0.19810 -0.14400
N 	N 	0.64870 0.47870 0.04590 -0.23400
N 	N 	0.54260 0.40140 0.05190 -0.14600
N 	N 	0.75940 0.54160 0.90200 -0.23600
N 	N 	0.75640 0.61150 0.80190 -0.14500
O 	O 	0.38470 0.43190 0.48340 -0.40500
O 	O 	0.27900 0.36800 0.52220 -0.36200
O 	O 	0.79870 0.64450 0.04070 -0.37800
O 	O 	0.79000 0.56340 0.13370 -0.39100
O 	O 	0.88470 0.06810 0.51660 -0.40400
O 	O 	0.77900 0.13200 0.47780 -0.36200
O 	O 	0.29870 0.85550 0.95930 -0.38000
O 	O 	0.29000 0.93660 0.86630 -0.39300
O 	O 	0.88470 0.43190 0.01660 -0.40600
O 	O 	0.77900 0.36800 0.97780 -0.36200
O 	O 	0.29870 0.64450 0.45930 -0.37900
O 	O 	0.29000 0.56340 0.36630 -0.39100
O 	O 	0.38470 0.06810 0.98340 -0.39900
O 	O 	0.27900 0.13200 0.02220 -0.36200
O 	O 	0.79870 0.85550 0.54070 -0.37800
O 	O 	0.79000 0.93660 0.63370 -0.39100
Cd	Cd	0.72313 0.00850 0.01910 1.21700
Cd	Cd	0.22313 0.49150 0.98090 1.21800
Cd	Cd	0.22313 0.00850 0.48090 1.21900
Cd	Cd	0.72313 0.49150 0.51910 1.21800
H 	H 	0.90250 0.06080 0.11360 0.03100
H 	H 	0.02140 0.97770 0.11900 0.02700
H 	H 	0.85920 0.87690 0.99280 -0.00300
H 	H 	0.11270 0.88660 0.05320 0.08800
H 	H 	0.18920 0.77590 0.03490 0.02000
H 	H 	0.98950 0.64840 0.00960 0.01200
H 	H 	0.91300 0.75770 0.03060 0.11600
H 	H 	0.81030 0.95390 0.85820 0.01900
H 	H 	0.81280 0.03060 0.74530 0.04500
H 	H 	0.68610 0.14470 0.89370 -0.00500
H 	H 	0.72610 0.26040 0.83140 0.10200
H 	H 	0.70840 0.36320 0.75020 0.01900
H 	H 	0.72340 0.21540 0.58270 0.02500
H 	H 	0.73560 0.11070 0.66160 0.08200
H 	H 	0.40250 0.43920 0.88640 0.02700
H 	H 	0.52140 0.52230 0.88100 0.03100
H 	H 	0.35920 0.62310 0.00720 0.00300
H 	H 	0.61270 0.61340 0.94680 0.08700
H 	H 	0.68920 0.72410 0.96510 0.02000
H 	H 	0.48950 0.85160 0.99040 0.01200
H 	H 	0.41300 0.74230 0.96940 0.11400
H 	H 	0.31030 0.54610 0.14180 0.02400
H 	H 	0.31280 0.46940 0.25470 0.04300
H 	H 	0.18610 0.35530 0.10630 -0.00600
H 	H 	0.22610 0.23960 0.16860 0.10200
H 	H 	0.20840 0.13680 0.24980 0.01900
H 	H 	0.22340 0.28460 0.41730 0.02500
H 	H 	0.23560 0.38930 0.33840 0.08200
H 	H 	0.40250 0.06080 0.38640 0.02700
H 	H 	0.52140 0.97770 0.38100 0.03100
H 	H 	0.35920 0.87690 0.50720 0.00100
H 	H 	0.61270 0.88660 0.44680 0.08700
H 	H 	0.68920 0.77590 0.46510 0.02000
H 	H 	0.48950 0.64840 0.49040 0.01200
H 	H 	0.41300 0.75770 0.46940 0.11400
H 	H 	0.31030 0.95390 0.64180 0.02100
H 	H 	0.31280 0.03060 0.75470 0.04500
H 	H 	0.18610 0.14470 0.60630 -0.00600
H 	H 	0.22610 0.26040 0.66860 0.10200
H 	H 	0.20840 0.36320 0.74980 0.01900
H 	H 	0.22340 0.21540 0.91730 0.02500
H 	H 	0.23560 0.11070 0.83840 0.08300
H 	H 	0.90250 0.43920 0.61360 0.02700
H 	H 	0.02140 0.52230 0.61900 0.03100
H 	H 	0.85920 0.62310 0.49280 0.00200
H 	H 	0.11270 0.61340 0.55320 0.08600
H 	H 	0.18920 0.72410 0.53490 0.02100
H 	H 	0.98950 0.85160 0.50960 0.01400
H 	H 	0.91300 0.74230 0.53060 0.11300
H 	H 	0.81030 0.54610 0.35820 0.02300
H 	H 	0.81280 0.46940 0.24530 0.04300
H 	H 	0.68610 0.35530 0.39370 -0.00600
H 	H 	0.72610 0.23960 0.33140 0.10200
H 	H 	0.70840 0.13680 0.25020 0.01900
H 	H 	0.72340 0.28460 0.08270 0.02400
H 	H 	0.73560 0.38930 0.16160 0.08200
C 	C 	0.90860 0.01310 0.09000 -0.01100
C 	C 	0.97440 0.96740 0.09380 0.01800
C 	C 	0.88410 0.91210 0.02400 0.09400
C 	C 	0.00600 0.83390 0.04170 0.16600
C 	C 	0.08800 0.83880 0.04420 -0.18300
C 	C 	0.13370 0.77240 0.03340 0.08100
C 	C 	0.09760 0.70040 0.02030 -0.13800
C 	C 	0.01420 0.69610 0.01870 0.09700
C 	C 	0.96840 0.76140 0.03030 -0.19300
C 	C 	0.14760 0.62950 0.00840 0.32600
C 	C 	0.78540 0.00190 0.85100 0.01000
C 	C 	0.78730 0.04420 0.78840 -0.00100
C 	C 	0.71710 0.10670 0.87100 0.09900
C 	C 	0.73180 0.17530 0.75270 0.15400
C 	C 	0.72440 0.25150 0.78170 -0.17300
C 	C 	0.71470 0.31260 0.73260 0.07600
C 	C 	0.71400 0.30030 0.65900 -0.12300
C 	C 	0.72290 0.22400 0.63250 0.06500
C 	C 	0.73090 0.16140 0.67940 -0.16700
C 	C 	0.70720 0.36900 0.60840 0.31200
C 	C 	0.40860 0.48690 0.91000 0.00500
C 	C 	0.47440 0.53260 0.90620 0.00600
C 	C 	0.38410 0.58790 0.97600 0.08500
C 	C 	0.50600 0.66610 0.95830 0.16300
C 	C 	0.58800 0.66120 0.95580 -0.18100
C 	C 	0.63370 0.72760 0.96660 0.07700
C 	C 	0.59760 0.79960 0.97970 -0.13500
C 	C 	0.51420 0.80390 0.98130 0.09300
C 	C 	0.46840 0.73860 0.96970 -0.19000
C 	C 	0.64760 0.87050 0.99160 0.31900
C 	C 	0.28540 0.49810 0.14900 0.00200
C 	C 	0.28730 0.45580 0.21160 0.00300
C 	C 	0.21710 0.39330 0.12900 0.09900
C 	C 	0.23180 0.32470 0.24730 0.15300
C 	C 	0.22440 0.24850 0.21830 -0.17300
C 	C 	0.21470 0.18740 0.26740 0.07600
C 	C 	0.21400 0.19970 0.34100 -0.12300
C 	C 	0.22290 0.27600 0.36750 0.06500
C 	C 	0.23090 0.33860 0.32060 -0.16700
C 	C 	0.20720 0.13100 0.39160 0.31200
C 	C 	0.40860 0.01310 0.41000 0.00300
C 	C 	0.47440 0.96740 0.40620 0.00700
C 	C 	0.38410 0.91210 0.47600 0.08700
C 	C 	0.50600 0.83390 0.45830 0.16400
C 	C 	0.58800 0.83880 0.45580 -0.18200
C 	C 	0.63370 0.77240 0.46660 0.07900
C 	C 	0.59760 0.70040 0.47970 -0.13700
C 	C 	0.51420 0.69610 0.48130 0.09500
C 	C 	0.46840 0.76140 0.46970 -0.19100
C 	C 	0.64760 0.62950 0.49160 0.32400
C 	C 	0.28540 0.00190 0.64900 0.00700
C 	C 	0.28730 0.04420 0.71160 0.00000
C 	C 	0.21710 0.10670 0.62900 0.09900
C 	C 	0.23180 0.17530 0.74730 0.15400
C 	C 	0.22440 0.25150 0.71830 -0.17300
C 	C 	0.21470 0.31260 0.76740 0.07600
C 	C 	0.21400 0.30030 0.84100 -0.12300
C 	C 	0.22290 0.22400 0.86750 0.06400
C 	C 	0.23090 0.16140 0.82060 -0.16700
C 	C 	0.20720 0.36900 0.89160 0.31200
C 	C 	0.90860 0.48690 0.59000 0.00500
C 	C 	0.97440 0.53260 0.59380 0.00600
C 	C 	0.88410 0.58790 0.52400 0.08700
C 	C 	0.00600 0.66610 0.54170 0.16200
C 	C 	0.08800 0.66120 0.54420 -0.18000
C 	C 	0.13370 0.72760 0.53340 0.07700
C 	C 	0.09760 0.79960 0.52030 -0.13500
C 	C 	0.01420 0.80390 0.51870 0.09100
C 	C 	0.96840 0.73860 0.53030 -0.18800
C 	C 	0.14760 0.87050 0.50840 0.32400
C 	C 	0.78540 0.49810 0.35100 0.00200
C 	C 	0.78730 0.45580 0.28840 0.00200
C 	C 	0.71710 0.39330 0.37100 0.09900
C 	C 	0.73180 0.32470 0.25270 0.15400
C 	C 	0.72440 0.24850 0.28170 -0.17400
C 	C 	0.71470 0.18740 0.23260 0.07600
C 	C 	0.71400 0.19970 0.15900 -0.12400
C 	C 	0.72290 0.27600 0.13250 0.06500
C 	C 	0.73090 0.33860 0.17940 -0.16700
C 	C 	0.70720 0.13100 0.10840 0.31200
N 	N 	0.85130 0.97870 0.04590 -0.23000
N 	N 	0.95740 0.90140 0.05190 -0.14900
N 	N 	0.74060 0.04160 0.90200 -0.23600
N 	N 	0.74360 0.11150 0.80190 -0.14400
N 	N 	0.35130 0.52130 0.95410 -0.23400
N 	N 	0.45740 0.59860 0.94810 -0.14600
N 	N 	0.24060 0.45840 0.09800 -0.23600
N 	N 	0.24360 0.38850 0.19810 -0.14500
N 	N 	0.35130 0.97870 0.45410 -0.23400
N 	N 	0.45740 0.90140 0.44810 -0.14600
N 	N 	0.24060 0.04160 0.59800 -0.23700
N 	N 	0.24360 0.11150 0.69810 -0.14400
N 	N 	0.85130 0.52130 0.54590 -0.23400
N 	N 	0.95740 0.59860 0.55190 -0.14600
N 	N 	0.74060 0.45840 0.40200 -0.23600
N 	N 	0.74360 0.38850 0.30190 -0.14500
O 	O 	0.11530 0.56810 0.98340 -0.40600
O 	O 	0.22100 0.63200 0.02220 -0.36200
O 	O 	0.70130 0.35550 0.54070 -0.37900
O 	O 	0.71000 0.43660 0.63370 -0.39100
O 	O 	0.61530 0.93190 0.01660 -0.39900
O 	O 	0.72100 0.86800 0.97780 -0.36200
O 	O 	0.20130 0.14450 0.45930 -0.37800
O 	O 	0.21000 0.06340 0.36630 -0.39100
O 	O 	0.61530 0.56810 0.51660 -0.40500
O 	O 	0.72100 0.63200 0.47780 -0.36200
O 	O 	0.20130 0.35550 0.95930 -0.37800
O 	O 	0.21000 0.43660 0.86630 -0.39100
O 	O 	0.11530 0.93190 0.48340 -0.40400
O 	O 	0.22100 0.86800 0.52220 -0.36200
O 	O 	0.70130 0.14450 0.04070 -0.38000
O 	O 	0.71000 0.06340 0.13370 -0.39300
