data_crystal

_cell_length_a 9.97250
_cell_length_b 10.53690
_cell_length_c 14.11840
_cell_angle_alpha 90.47700
_cell_angle_beta  109.92400
_cell_angle_gamma 98.59600

_symmetry_space_group_name_	'P 1'
_symmetry_space_group_name_H-M	'P 1'

loop_
_symmetry_equiv_pos_as_xyz
  x,y,z

loop_
_atom_site_label
_atom_site_type_symbol
_atom_site_fract_x
_atom_site_fract_y
_atom_site_fract_z
_atom_site_charge
Co	Co	0.58392 0.27034 0.00512 1.15600
Co	Co	0.04168 0.17515 0.89916 1.17600
Co	Co	0.13496 0.31672 0.12657 1.14100
P 	P 	0.83849 0.09710 0.03292 0.45600
P 	P 	0.31476 0.41666 0.98450 0.45100
O 	O 	0.99650 0.15510 0.04830 -0.48700
O 	O 	0.82810 0.96010 0.06640 -0.38000
O 	O 	0.76040 0.18070 0.07430 -0.42800
O 	O 	0.84520 0.03740 0.84930 -0.24000
O 	O 	0.86830 0.28430 0.85100 -0.39900
O 	O 	0.65580 0.28690 0.86980 -0.36500
O 	O 	0.16920 0.33540 0.97730 -0.51100
O 	O 	0.40080 0.35180 0.93520 -0.41900
O 	O 	0.29030 0.55040 0.95000 -0.40600
O 	O 	0.31640 0.46860 0.17000 -0.22600
O 	O 	0.31440 0.22210 0.17000 -0.42000
O 	O 	0.51480 0.23340 0.13180 -0.41500
C 	C 	0.75550 0.09090 0.89460 -0.21900
H 	H 	0.65680 0.04300 0.87120 0.10500
C 	C 	0.75850 0.23110 0.86830 0.34400
C 	C 	0.40710 0.42180 0.12180 -0.24000
H 	H 	0.50340 0.47430 0.14290 0.12300
C 	C 	0.41450 0.28160 0.14440 0.37500
N 	N 	0.06540 0.19790 0.75630 -0.20700
C 	C 	0.09270 0.10780 0.70600 0.12000
H 	H 	0.10840 0.03060 0.73610 0.01700
C 	C 	0.09990 0.11920 0.61070 -0.19500
H 	H 	0.11880 0.04990 0.57880 0.02000
C 	C 	0.08050 0.22670 0.56340 -0.09300
C 	C 	0.05780 0.32760 0.61810 -0.10900
H 	H 	0.04870 0.40730 0.59100 0.06500
C 	C 	0.04890 0.30850 0.71200 0.10900
H 	H 	0.03050 0.37590 0.74630 -0.01500
N 	N 	0.10730 0.27880 0.26820 -0.24300
C 	C 	0.99960 0.31560 0.29300 -1.96200
H 	H 	0.92980 0.35310 0.24500 0.71500
C 	C 	0.98890 0.29940 0.38800 1.66100
H 	H 	0.91330 0.32720 0.40230 -0.56800
C 	C 	0.08910 0.24260 0.46130 0.33400
C 	C 	0.18070 0.18430 0.42790 2.45800
H 	H 	0.23880 0.13100 0.46920 -0.85000
C 	C 	0.18610 0.20560 0.33160 -2.77000
H 	H 	0.24950 0.16550 0.31120 1.03000
C 	C 	0.95500 0.82310 0.70610 3.34200
C 	C 	0.96400 0.84040 0.61120 -3.25500
C 	C 	0.83300 0.63400 0.55880 -1.41200
C 	C 	0.83400 0.62100 0.65670 1.47300
C 	C 	0.18780 0.20300 0.73860 -0.11800
C 	C 	0.19430 0.21100 0.64190 0.12800
C 	C 	0.94810 0.20400 0.57840 0.03900
C 	C 	0.94200 0.19000 0.67300 -0.08800
H 	H 	0.99740 0.89080 0.75480 -1.14400
H 	H 	0.98680 0.08170 0.39930 1.16000
H 	H 	0.78600 0.56920 0.50830 0.53200
H 	H 	0.79310 0.54300 0.67300 -0.49500
H 	H 	0.27260 0.20070 0.79270 0.06600
H 	H 	0.28090 0.20460 0.63220 -0.01000
H 	H 	0.86280 0.19830 0.52330 0.02600
H 	H 	0.85260 0.17520 0.68130 0.06600
Co	Co	0.41608 0.72966 0.99488 1.15700
Co	Co	0.95832 0.82485 0.10084 1.17700
Co	Co	0.86504 0.68328 0.87343 1.14100
P 	P 	0.16151 0.90290 0.96708 0.45600
P 	P 	0.68524 0.58334 0.01550 0.45100
O 	O 	0.00350 0.84490 0.95170 -0.48700
O 	O 	0.17190 0.03990 0.93360 -0.38000
O 	O 	0.23960 0.81930 0.92570 -0.42800
O 	O 	0.15480 0.96260 0.15070 -0.24000
O 	O 	0.13170 0.71570 0.14900 -0.39900
O 	O 	0.34420 0.71310 0.13020 -0.36500
O 	O 	0.83080 0.66460 0.02270 -0.51100
O 	O 	0.59920 0.64820 0.06480 -0.41900
O 	O 	0.70970 0.44960 0.05000 -0.40600
O 	O 	0.68360 0.53140 0.83000 -0.22600
O 	O 	0.68560 0.77790 0.83000 -0.42000
O 	O 	0.48520 0.76660 0.86820 -0.41500
C 	C 	0.24450 0.90910 0.10540 -0.21900
H 	H 	0.34320 0.95700 0.12880 0.10500
C 	C 	0.24150 0.76890 0.13170 0.34400
C 	C 	0.59290 0.57820 0.87820 -0.24000
H 	H 	0.49660 0.52570 0.85710 0.12300
C 	C 	0.58550 0.71840 0.85560 0.37500
N 	N 	0.93460 0.80210 0.24370 -0.20700
C 	C 	0.90730 0.89220 0.29400 0.12000
H 	H 	0.89160 0.96940 0.26390 0.01700
C 	C 	0.90010 0.88080 0.38930 -0.19500
H 	H 	0.88120 0.95010 0.42120 0.02000
C 	C 	0.91950 0.77330 0.43660 -0.09300
C 	C 	0.94220 0.67240 0.38190 -0.10900
H 	H 	0.95130 0.59270 0.40900 0.06500
C 	C 	0.95110 0.69150 0.28800 0.10900
H 	H 	0.96950 0.62410 0.25370 -0.01500
N 	N 	0.89270 0.72120 0.73180 -0.24300
C 	C 	0.00040 0.68440 0.70700 -1.96200
H 	H 	0.07020 0.64690 0.75500 0.71500
C 	C 	0.01110 0.70060 0.61200 1.66100
H 	H 	0.08670 0.67280 0.59770 -0.56800
C 	C 	0.91090 0.75740 0.53870 0.33400
C 	C 	0.81930 0.81570 0.57210 2.45800
H 	H 	0.76120 0.86900 0.53080 -0.85000
C 	C 	0.81390 0.79440 0.66840 -2.77000
H 	H 	0.75050 0.83450 0.68880 1.03000
C 	C 	0.04500 0.17690 0.29390 3.34200
C 	C 	0.03600 0.15960 0.38880 -3.25500
C 	C 	0.16700 0.36600 0.44120 -1.41200
C 	C 	0.16600 0.37900 0.34330 1.47300
C 	C 	0.81220 0.79700 0.26140 -0.11800
C 	C 	0.80570 0.78900 0.35810 0.12800
C 	C 	0.05190 0.79600 0.42160 0.03900
C 	C 	0.05800 0.81000 0.32700 -0.08800
H 	H 	0.00260 0.10920 0.24520 -1.14400
H 	H 	0.01320 0.91830 0.60070 1.16000
H 	H 	0.21400 0.43080 0.49170 0.53200
H 	H 	0.20690 0.45700 0.32700 -0.49500
H 	H 	0.72740 0.79930 0.20730 0.06600
H 	H 	0.71910 0.79540 0.36780 -0.01000
H 	H 	0.13720 0.80170 0.47670 0.02600
H 	H 	0.14740 0.82480 0.31870 0.06600
