data_crystal

_cell_length_a 16.08570
_cell_length_b 9.19730
_cell_length_c 15.42160
_cell_angle_alpha 90.00000
_cell_angle_beta  112.03300
_cell_angle_gamma 90.00000

_symmetry_space_group_name_	'P 1'
_symmetry_space_group_name_H-M	'P 1'

loop_
_symmetry_equiv_pos_as_xyz
  x,y,z

loop_
_atom_site_label
_atom_site_type_symbol
_atom_site_fract_x
_atom_site_fract_y
_atom_site_fract_z
_atom_site_charge
As	As	0.71917 0.44957 0.84055 0.53300
As	As	0.77730 0.20336 0.11857 0.55400
As	As	0.52912 0.72967 0.04077 0.51100
Zn	Zn	0.89358 0.25085 0.97465 1.23900
Zn	Zn	0.64665 0.46904 0.01269 1.23000
Zn	Zn	0.59249 0.43346 0.62934 1.22500
O 	O 	0.71550 0.52390 0.93720 -0.40600
O 	O 	0.79210 0.31470 0.85470 -0.40700
O 	O 	0.61700 0.40430 0.76390 -0.40800
O 	O 	0.75610 0.59400 0.79140 -0.40500
H 	H 	0.76020 0.56760 0.74240 0.26300
O 	O 	0.72790 0.36200 0.11950 -0.44300
O 	O 	0.80930 0.16890 0.03080 -0.39600
O 	O 	0.71210 0.05960 0.12240 -0.43300
O 	O 	0.87170 0.19630 0.22000 -0.38700
H 	H 	0.85790 0.21310 0.26500 0.27700
O 	O 	0.53480 0.87820 0.10520 -0.44300
O 	O 	0.63260 0.66270 0.06160 -0.38900
O 	O 	0.48190 0.76770 0.92570 -0.47000
O 	O 	0.46670 0.60780 0.07030 -0.44000
O 	O 	0.93130 0.44030 0.05820 -0.32500
O 	O 	0.00220 0.13650 0.07970 -0.30700
O 	O 	0.08680 0.93470 0.10060 -0.31400
O 	O 	0.01530 0.64000 0.08060 -0.31000
C 	C 	0.98530 0.52340 0.03980 0.22800
C 	C 	0.02550 0.02120 0.05220 0.23000
As	As	0.28083 0.94957 0.65945 0.53000
As	As	0.22270 0.70336 0.38143 0.55300
As	As	0.47088 0.22967 0.45923 0.50900
Zn	Zn	0.10642 0.75085 0.52535 1.23800
Zn	Zn	0.35335 0.96904 0.48731 1.23000
Zn	Zn	0.40751 0.93346 0.87066 1.22500
O 	O 	0.28450 0.02390 0.56280 -0.40500
O 	O 	0.20790 0.81470 0.64530 -0.40700
O 	O 	0.38300 0.90430 0.73610 -0.40800
O 	O 	0.24390 0.09400 0.70860 -0.40500
H 	H 	0.23980 0.06760 0.75760 0.26300
O 	O 	0.27210 0.86200 0.38050 -0.44400
O 	O 	0.19070 0.66890 0.46920 -0.39700
O 	O 	0.28790 0.55960 0.37760 -0.43300
O 	O 	0.12830 0.69630 0.28000 -0.38700
H 	H 	0.14210 0.71310 0.23500 0.27700
O 	O 	0.46520 0.37820 0.39480 -0.44400
O 	O 	0.36740 0.16270 0.43840 -0.39000
O 	O 	0.51810 0.26770 0.57430 -0.47000
O 	O 	0.53330 0.10780 0.42970 -0.44000
O 	O 	0.06870 0.94030 0.44180 -0.32800
O 	O 	0.99780 0.63650 0.42030 -0.30600
O 	O 	0.91320 0.43470 0.39940 -0.31300
O 	O 	0.98470 0.14000 0.41940 -0.31000
C 	C 	0.01470 0.02340 0.46020 0.22800
C 	C 	0.97450 0.52120 0.44780 0.22800
As	As	0.28083 0.55043 0.15945 0.53200
As	As	0.22270 0.79664 0.88143 0.55300
As	As	0.47088 0.27033 0.95923 0.51100
Zn	Zn	0.10642 0.74915 0.02535 1.23900
Zn	Zn	0.35335 0.53096 0.98731 1.23000
Zn	Zn	0.40751 0.56654 0.37066 1.22500
O 	O 	0.28450 0.47610 0.06280 -0.40600
O 	O 	0.20790 0.68530 0.14530 -0.40700
O 	O 	0.38300 0.59570 0.23610 -0.40800
O 	O 	0.24390 0.40600 0.20860 -0.40500
H 	H 	0.23980 0.43240 0.25760 0.26300
O 	O 	0.27210 0.63800 0.88050 -0.44300
O 	O 	0.19070 0.83110 0.96920 -0.39600
O 	O 	0.28790 0.94040 0.87760 -0.43300
O 	O 	0.12830 0.80370 0.78000 -0.38700
H 	H 	0.14210 0.78690 0.73500 0.27700
O 	O 	0.46520 0.12180 0.89480 -0.44300
O 	O 	0.36740 0.33730 0.93840 -0.38900
O 	O 	0.51810 0.23230 0.07430 -0.47000
O 	O 	0.53330 0.39220 0.92970 -0.44000
O 	O 	0.06870 0.55970 0.94180 -0.32500
O 	O 	0.99780 0.86350 0.92030 -0.30700
O 	O 	0.91320 0.06530 0.89940 -0.31400
O 	O 	0.98470 0.36000 0.91940 -0.31000
C 	C 	0.01470 0.47660 0.96020 0.22800
C 	C 	0.97450 0.97880 0.94780 0.23000
As	As	0.71917 0.05043 0.34055 0.53000
As	As	0.77730 0.29664 0.61857 0.55300
As	As	0.52912 0.77033 0.54077 0.50900
Zn	Zn	0.89358 0.24915 0.47465 1.23800
Zn	Zn	0.64665 0.03096 0.51269 1.23000
Zn	Zn	0.59249 0.06654 0.12934 1.22500
O 	O 	0.71550 0.97610 0.43720 -0.40500
O 	O 	0.79210 0.18530 0.35470 -0.40700
O 	O 	0.61700 0.09570 0.26390 -0.40800
O 	O 	0.75610 0.90600 0.29140 -0.40500
H 	H 	0.76020 0.93240 0.24240 0.26300
O 	O 	0.72790 0.13800 0.61950 -0.44400
O 	O 	0.80930 0.33110 0.53080 -0.39700
O 	O 	0.71210 0.44040 0.62240 -0.43300
O 	O 	0.87170 0.30370 0.72000 -0.38700
H 	H 	0.85790 0.28690 0.76500 0.27700
O 	O 	0.53480 0.62180 0.60520 -0.44400
O 	O 	0.63260 0.83730 0.56160 -0.39000
O 	O 	0.48190 0.73230 0.42570 -0.47000
O 	O 	0.46670 0.89220 0.57030 -0.44000
O 	O 	0.93130 0.05970 0.55820 -0.32800
O 	O 	0.00220 0.36350 0.57970 -0.30600
O 	O 	0.08680 0.56530 0.60060 -0.31300
O 	O 	0.01530 0.86000 0.58060 -0.31000
C 	C 	0.98530 0.97660 0.53980 0.22800
C 	C 	0.02550 0.47880 0.55220 0.22800
