data_crystal

_cell_length_a 5.45900
_cell_length_b 18.46700
_cell_length_c 11.63400
_cell_angle_alpha 90.00000
_cell_angle_beta  94.86000
_cell_angle_gamma 90.00000

_symmetry_space_group_name_	'P 1'
_symmetry_space_group_name_H-M	'P 1'

loop_
_symmetry_equiv_pos_as_xyz
  x,y,z

loop_
_atom_site_label
_atom_site_type_symbol
_atom_site_fract_x
_atom_site_fract_y
_atom_site_fract_z
_atom_site_charge
Ag	Ag	0.20849 0.04623 0.49247 0.54400
C 	C 	0.24130 0.88000 0.42660 0.39100
C 	C 	0.38840 0.82120 0.37240 -0.27200
H 	H 	0.42780 0.83660 0.29640 0.10800
H 	H 	0.54180 0.81360 0.41930 0.11000
C 	C 	0.37800 0.69680 0.29650 0.02400
H 	H 	0.55220 0.69730 0.32130 0.02100
H 	H 	0.35960 0.70900 0.21510 0.02000
C 	C 	0.27690 0.62090 0.31310 -0.25900
H 	H 	0.39030 0.58600 0.28520 0.09500
H 	H 	0.26880 0.61230 0.39500 0.09500
C 	C 	0.03300 0.60890 0.25360 0.11500
N 	N 	0.25230 0.75255 0.36180 -0.17500
H 	H 	0.09200 0.76140 0.32390 0.10000
H 	H 	0.23130 0.73429 0.43760 0.09100
N 	N 	0.84570 0.59740 0.20770 -0.19600
O 	O 	0.02110 0.86869 0.43410 -0.38100
O 	O 	0.35820 0.93644 0.45580 -0.42800
Ag	Ag	0.79151 0.95377 0.50753 0.54300
C 	C 	0.75870 0.12000 0.57340 0.39000
C 	C 	0.61160 0.17880 0.62760 -0.27300
H 	H 	0.57220 0.16340 0.70360 0.10700
H 	H 	0.45820 0.18640 0.58070 0.10900
C 	C 	0.62200 0.30320 0.70350 0.02300
H 	H 	0.44780 0.30270 0.67870 0.02100
H 	H 	0.64040 0.29100 0.78490 0.02000
C 	C 	0.72310 0.37910 0.68690 -0.25900
H 	H 	0.60970 0.41400 0.71480 0.09500
H 	H 	0.73120 0.38770 0.60500 0.09500
C 	C 	0.96700 0.39110 0.74640 0.11500
N 	N 	0.74770 0.24745 0.63820 -0.17500
H 	H 	0.90800 0.23860 0.67610 0.10000
H 	H 	0.76870 0.26571 0.56240 0.09100
N 	N 	0.15430 0.40260 0.79230 -0.19600
O 	O 	0.97890 0.13131 0.56590 -0.38100
O 	O 	0.64180 0.06356 0.54420 -0.42800
C 	C 	0.75870 0.38000 0.07340 0.39000
C 	C 	0.61160 0.32120 0.12760 -0.27300
H 	H 	0.57220 0.33660 0.20360 0.10700
H 	H 	0.45820 0.31360 0.08070 0.11000
C 	C 	0.62200 0.19680 0.20350 0.02300
H 	H 	0.44780 0.19730 0.17870 0.02100
H 	H 	0.64040 0.20900 0.28490 0.02000
C 	C 	0.72310 0.12090 0.18690 -0.26000
H 	H 	0.60970 0.08600 0.21480 0.09600
H 	H 	0.73120 0.11230 0.10500 0.09600
C 	C 	0.96700 0.10890 0.24640 0.11600
N 	N 	0.74770 0.25255 0.13820 -0.17500
H 	H 	0.90800 0.26140 0.17610 0.10000
H 	H 	0.76870 0.23429 0.06240 0.09100
N 	N 	0.15430 0.09740 0.29230 -0.19600
O 	O 	0.97890 0.36869 0.06590 -0.38100
O 	O 	0.64180 0.43644 0.04420 -0.42800
Ag	Ag	0.79151 0.54623 0.00753 0.54300
C 	C 	0.24130 0.62000 0.92660 0.39000
C 	C 	0.38840 0.67880 0.87240 -0.27300
H 	H 	0.42780 0.66340 0.79640 0.10700
H 	H 	0.54180 0.68640 0.91930 0.11000
C 	C 	0.37800 0.80320 0.79650 0.02300
H 	H 	0.55220 0.80270 0.82130 0.02100
H 	H 	0.35960 0.79100 0.71510 0.02000
C 	C 	0.27690 0.87910 0.81310 -0.26000
H 	H 	0.39030 0.91400 0.78520 0.09600
H 	H 	0.26880 0.88770 0.89500 0.09600
C 	C 	0.03300 0.89110 0.75360 0.11600
N 	N 	0.25230 0.74745 0.86180 -0.17500
H 	H 	0.09200 0.73860 0.82390 0.10000
H 	H 	0.23130 0.76571 0.93760 0.09100
N 	N 	0.84570 0.90260 0.70770 -0.19600
O 	O 	0.02110 0.63131 0.93410 -0.38100
O 	O 	0.35820 0.56356 0.95580 -0.42800
Ag	Ag	0.20849 0.45377 0.99247 0.54300
