data_crystal

_cell_length_a 10.15800
_cell_length_b 13.26900
_cell_length_c 14.47000
_cell_angle_alpha 90.00000
_cell_angle_beta  90.00000
_cell_angle_gamma 90.00000

_symmetry_space_group_name_	'P 1'
_symmetry_space_group_name_H-M	'P 1'

loop_
_symmetry_equiv_pos_as_xyz
  x,y,z

loop_
_atom_site_label
_atom_site_type_symbol
_atom_site_fract_x
_atom_site_fract_y
_atom_site_fract_z
_atom_site_charge
La	La	0.00135 0.84236 0.69621 1.70000
O 	O 	0.22520 0.97400 0.68860 -0.30800
O 	O 	0.06630 0.99710 0.79230 -0.35500
O 	O 	0.34070 0.28760 0.08290 -0.45300
O 	O 	0.15350 0.20450 0.07200 -0.44000
O 	O 	0.84510 0.80360 0.81950 -0.42500
O 	O 	0.65930 0.71570 0.81170 -0.44400
O 	O 	0.53790 0.49770 0.08770 -0.34000
O 	O 	0.68770 0.48210 0.19660 -0.33800
C 	C 	0.26150 0.09470 0.80990 -0.11100
C 	C 	0.22460 0.12670 0.89780 0.06200
H 	H 	0.14740 0.10250 0.92430 0.03400
C 	C 	0.30230 0.19450 0.94620 -0.15600
C 	C 	0.41780 0.22990 0.90670 0.06700
H 	H 	0.47150 0.27390 0.93950 0.02200
C 	C 	0.45320 0.19990 0.81860 -0.11800
H 	H 	0.52970 0.22520 0.79200 0.07800
C 	C 	0.37640 0.13320 0.77030 0.04300
H 	H 	0.40080 0.11350 0.71100 0.03100
C 	C 	0.17840 0.01760 0.76130 0.30800
C 	C 	0.26210 0.23150 0.04180 0.44200
C 	C 	0.77600 0.71740 0.95310 -0.13000
C 	C 	0.70210 0.64010 0.99180 0.05600
H 	H 	0.63970 0.60720 0.95590 0.03300
C 	C 	0.71960 0.61100 0.08340 -0.10500
C 	C 	0.80930 0.66430 0.13760 0.02800
H 	H 	0.81980 0.64720 0.19950 0.03500
C 	C 	0.88240 0.74160 0.10090 -0.09200
H 	H 	0.94280 0.77570 0.13770 0.07200
C 	C 	0.86620 0.76920 0.00860 0.02600
H 	H 	0.91520 0.82200 0.98400 0.05000
C 	C 	0.75800 0.74640 0.85410 0.41400
C 	C 	0.64420 0.52500 0.12590 0.31200
La	La	0.99865 0.15764 0.19621 1.69800
O 	O 	0.77480 0.02600 0.18860 -0.31000
O 	O 	0.93370 0.00290 0.29230 -0.35700
O 	O 	0.65930 0.71240 0.58290 -0.45300
O 	O 	0.84650 0.79550 0.57200 -0.44000
O 	O 	0.15490 0.19640 0.31950 -0.42700
O 	O 	0.34070 0.28430 0.31170 -0.44600
O 	O 	0.46210 0.50230 0.58770 -0.34000
O 	O 	0.31230 0.51790 0.69660 -0.33800
C 	C 	0.73850 0.90530 0.30990 -0.10900
C 	C 	0.77540 0.87330 0.39780 0.05900
H 	H 	0.85260 0.89750 0.42430 0.03700
C 	C 	0.69770 0.80550 0.44620 -0.15000
C 	C 	0.58220 0.77010 0.40670 0.06400
H 	H 	0.52850 0.72610 0.43950 0.02400
C 	C 	0.54680 0.80010 0.31860 -0.11500
H 	H 	0.47030 0.77480 0.29200 0.07700
C 	C 	0.62360 0.86680 0.27030 0.04100
H 	H 	0.59920 0.88650 0.21100 0.03100
C 	C 	0.82160 0.98240 0.26130 0.30900
C 	C 	0.73790 0.76850 0.54180 0.43800
C 	C 	0.22400 0.28260 0.45310 -0.15000
C 	C 	0.29790 0.35990 0.49180 0.06300
H 	H 	0.36030 0.39280 0.45590 0.03100
C 	C 	0.28040 0.38900 0.58340 -0.11000
C 	C 	0.19070 0.33570 0.63760 0.04200
H 	H 	0.18020 0.35280 0.69950 0.03000
C 	C 	0.11760 0.25840 0.60090 -0.11300
H 	H 	0.05720 0.22430 0.63770 0.08000
C 	C 	0.13380 0.23080 0.50860 0.06200
H 	H 	0.08480 0.17800 0.48400 0.03300
C 	C 	0.24200 0.25360 0.35410 0.42000
C 	C 	0.35580 0.47500 0.62590 0.31500
La	La	0.50135 0.65764 0.69621 1.70500
O 	O 	0.72520 0.52600 0.68860 -0.30500
O 	O 	0.56630 0.50290 0.79230 -0.35000
O 	O 	0.84070 0.21240 0.08290 -0.45400
O 	O 	0.65350 0.29550 0.07200 -0.44200
O 	O 	0.34510 0.69640 0.81950 -0.43000
O 	O 	0.15930 0.78430 0.81170 -0.44700
O 	O 	0.03790 0.00230 0.08770 -0.32500
O 	O 	0.18770 0.01790 0.19660 -0.32700
C 	C 	0.76150 0.40530 0.80990 -0.10300
C 	C 	0.72460 0.37330 0.89780 0.05500
H 	H 	0.64740 0.39750 0.92430 0.03700
C 	C 	0.80230 0.30550 0.94620 -0.14600
C 	C 	0.91780 0.27010 0.90670 0.06000
H 	H 	0.97150 0.22610 0.93950 0.02600
C 	C 	0.95320 0.30010 0.81860 -0.10900
H 	H 	0.02970 0.27480 0.79200 0.07500
C 	C 	0.87640 0.36680 0.77030 0.03700
H 	H 	0.90080 0.38650 0.71100 0.03400
C 	C 	0.67840 0.48240 0.76130 0.29900
C 	C 	0.76210 0.26850 0.04180 0.43500
C 	C 	0.27600 0.78260 0.95310 -0.14600
C 	C 	0.20210 0.85990 0.99180 0.05700
H 	H 	0.13970 0.89280 0.95590 0.03000
C 	C 	0.21960 0.88900 0.08340 -0.10200
C 	C 	0.30930 0.83570 0.13760 0.03400
H 	H 	0.31980 0.85280 0.19950 0.03200
C 	C 	0.38240 0.75840 0.10090 -0.10700
H 	H 	0.44280 0.72430 0.13770 0.07700
C 	C 	0.36620 0.73080 0.00860 0.05400
H 	H 	0.41520 0.67800 0.98400 0.03500
C 	C 	0.25800 0.75360 0.85410 0.41900
C 	C 	0.14420 0.97500 0.12590 0.29400
La	La	0.49865 0.34236 0.19621 1.70500
O 	O 	0.27480 0.47400 0.18860 -0.30500
O 	O 	0.43370 0.49710 0.29230 -0.35000
O 	O 	0.15930 0.78760 0.58290 -0.45400
O 	O 	0.34650 0.70450 0.57200 -0.44300
O 	O 	0.65490 0.30360 0.31950 -0.43000
O 	O 	0.84070 0.21570 0.31170 -0.44600
O 	O 	0.96210 0.99770 0.58770 -0.32800
O 	O 	0.81230 0.98210 0.69660 -0.32800
C 	C 	0.23850 0.59470 0.30990 -0.10600
C 	C 	0.27540 0.62670 0.39780 0.05900
H 	H 	0.35260 0.60250 0.42430 0.03600
C 	C 	0.19770 0.69450 0.44620 -0.15100
C 	C 	0.08220 0.72990 0.40670 0.06500
H 	H 	0.02850 0.77390 0.43950 0.02300
C 	C 	0.04680 0.69990 0.31860 -0.11600
H 	H 	0.97030 0.72520 0.29200 0.07900
C 	C 	0.12360 0.63320 0.27030 0.04100
H 	H 	0.09920 0.61350 0.21100 0.03300
C 	C 	0.32160 0.51760 0.26130 0.30000
C 	C 	0.23790 0.73150 0.54180 0.43800
C 	C 	0.72400 0.21740 0.45310 -0.14900
C 	C 	0.79790 0.14010 0.49180 0.05900
H 	H 	0.86030 0.10720 0.45590 0.03000
C 	C 	0.78040 0.11100 0.58340 -0.10400
C 	C 	0.69070 0.16430 0.63760 0.03700
H 	H 	0.68020 0.14720 0.69950 0.03100
C 	C 	0.61760 0.24160 0.60090 -0.11000
H 	H 	0.55720 0.27570 0.63770 0.07900
C 	C 	0.63380 0.26920 0.50860 0.06000
H 	H 	0.58480 0.32200 0.48400 0.03200
C 	C 	0.74200 0.24640 0.35410 0.42000
C 	C 	0.85580 0.02500 0.62590 0.29700
