data_crystal

_cell_length_a 7.77200
_cell_length_b 19.31100
_cell_length_c 19.31100
_cell_angle_alpha 120.00000
_cell_angle_beta  90.00000
_cell_angle_gamma 90.00000

_symmetry_space_group_name_	'P 1'
_symmetry_space_group_name_H-M	'P 1'

loop_
_symmetry_equiv_pos_as_xyz
  x,y,z

loop_
_atom_site_label
_atom_site_type_symbol
_atom_site_fract_x
_atom_site_fract_y
_atom_site_fract_z
_atom_site_charge
Co	Co	0.50000 0.54573 0.54573 1.06600
Co	Co	0.50000 0.00000 0.45427 1.04700
Co	Co	0.50000 0.45427 -0.00000 1.04700
H 	H 	0.67300 0.71010 0.67190 0.11800
H 	H 	0.80160 0.88530 0.42880 0.05600
H 	H 	0.35630 0.62190 0.44870 0.18500
H 	H 	0.47290 0.66610 0.41670 0.21300
H 	H 	0.31060 0.70910 0.46880 0.20000
H 	H 	0.83640 0.82870 0.73290 0.22100
H 	H 	0.74550 0.89530 0.72240 0.23200
H 	H 	0.90220 0.84830 0.66790 0.22300
H 	H 	0.28450 0.95200 0.56360 0.21700
H 	H 	0.34690 0.93480 0.63070 0.23400
H 	H 	0.25910 0.86690 0.55340 0.21300
H 	H 	0.99430 0.79290 0.43540 0.18400
H 	H 	0.89330 0.72390 0.43780 0.19400
H 	H 	0.98340 0.79050 0.51530 0.18700
H 	H 	0.67300 0.96180 0.28990 0.13000
H 	H 	0.80160 0.54350 0.11470 0.04300
H 	H 	0.35630 0.82680 0.37810 0.19000
H 	H 	0.47290 0.75060 0.33390 0.21500
H 	H 	0.31060 0.75970 0.29090 0.20400
H 	H 	0.83640 0.90420 0.17130 0.20800
H 	H 	0.74550 0.82710 0.10470 0.20300
H 	H 	0.90220 0.81960 0.15170 0.20500
H 	H 	0.28450 0.61160 0.04800 0.16500
H 	H 	0.34690 0.69590 0.06520 0.18700
H 	H 	0.25910 0.68650 0.13310 0.18400
H 	H 	0.99430 0.64250 0.20710 0.17800
H 	H 	0.89330 0.71390 0.27610 0.19100
H 	H 	0.98340 0.72480 0.20950 0.18200
H 	H 	0.67300 0.32810 0.03820 0.09700
H 	H 	0.80160 0.57120 0.45650 0.04900
H 	H 	0.35630 0.55130 0.17320 0.18000
H 	H 	0.47290 0.58330 0.24940 0.21100
H 	H 	0.31060 0.53120 0.24030 0.19600
H 	H 	0.83640 0.26710 0.09580 0.17700
H 	H 	0.74550 0.27760 0.17290 0.18800
H 	H 	0.90220 0.33210 0.18040 0.18900
H 	H 	0.28450 0.43640 0.38840 0.18800
H 	H 	0.34690 0.36930 0.30410 0.20500
H 	H 	0.25910 0.44660 0.31350 0.19500
H 	H 	0.99430 0.56460 0.35750 0.18000
H 	H 	0.89330 0.56220 0.28610 0.19100
H 	H 	0.98340 0.48470 0.27520 0.18300
H 	H 	0.32700 0.03820 0.32810 0.09700
H 	H 	0.19840 0.45650 0.57120 0.04900
H 	H 	0.64370 0.17320 0.55130 0.18000
H 	H 	0.52710 0.24940 0.58330 0.21100
H 	H 	0.68940 0.24030 0.53120 0.19600
H 	H 	0.16360 0.09580 0.26710 0.17700
H 	H 	0.25450 0.17290 0.27760 0.18800
H 	H 	0.09780 0.18040 0.33210 0.18900
H 	H 	0.71550 0.38840 0.43640 0.18800
H 	H 	0.65310 0.30410 0.36930 0.20500
H 	H 	0.74090 0.31350 0.44660 0.19500
H 	H 	0.00570 0.35750 0.56460 0.18000
H 	H 	0.10670 0.28610 0.56220 0.19100
H 	H 	0.01660 0.27520 0.48470 0.18300
H 	H 	0.32700 0.67190 0.71010 0.11800
H 	H 	0.19840 0.42880 0.88530 0.05600
H 	H 	0.64370 0.44870 0.62190 0.18500
H 	H 	0.52710 0.41670 0.66610 0.21300
H 	H 	0.68940 0.46880 0.70910 0.20000
H 	H 	0.16360 0.73290 0.82870 0.22100
H 	H 	0.25450 0.72240 0.89530 0.23200
H 	H 	0.09780 0.66790 0.84830 0.22300
H 	H 	0.71550 0.56360 0.95200 0.21700
H 	H 	0.65310 0.63070 0.93480 0.23400
H 	H 	0.74090 0.55340 0.86690 0.21300
H 	H 	0.00570 0.43540 0.79290 0.18400
H 	H 	0.10670 0.43780 0.72390 0.19400
H 	H 	0.01660 0.51530 0.79050 0.18700
H 	H 	0.32700 0.28990 0.96180 0.13000
H 	H 	0.19840 0.11470 0.54350 0.04300
H 	H 	0.64370 0.37810 0.82680 0.19000
H 	H 	0.52710 0.33390 0.75060 0.21500
H 	H 	0.68940 0.29090 0.75970 0.20400
H 	H 	0.16360 0.17130 0.90420 0.20800
H 	H 	0.25450 0.10470 0.82710 0.20300
H 	H 	0.09780 0.15170 0.81960 0.20500
H 	H 	0.71550 0.04800 0.61160 0.16500
H 	H 	0.65310 0.06520 0.69590 0.18700
H 	H 	0.74090 0.13310 0.68650 0.18400
H 	H 	0.00570 0.20710 0.64250 0.17800
H 	H 	0.10670 0.27610 0.71390 0.19100
H 	H 	0.01660 0.20950 0.72480 0.18200
C 	C 	0.68170 0.78320 0.63520 0.25600
C 	C 	0.59760 0.77820 0.56960 -0.15900
C 	C 	0.50950 0.70540 0.53420 0.23000
C 	C 	0.40290 0.67270 0.46050 -0.68900
C 	C 	0.80230 0.84440 0.69500 -0.73700
C 	C 	0.75980 0.82930 0.49000 0.21600
C 	C 	0.61920 0.83120 0.53530 -0.14000
C 	C 	0.50590 0.88770 0.53440 0.23700
C 	C 	0.33360 0.91260 0.57410 -0.72700
C 	C 	0.92260 0.77960 0.46760 -0.64600
C 	C 	0.68170 0.85200 0.21680 0.24700
C 	C 	0.59760 0.79140 0.22180 -0.16200
C 	C 	0.50950 0.82880 0.29460 0.23500
C 	C 	0.40290 0.78780 0.32730 -0.69600
C 	C 	0.80230 0.85060 0.15560 -0.69900
C 	C 	0.75980 0.66070 0.17070 0.20300
C 	C 	0.61920 0.70410 0.16880 -0.13000
C 	C 	0.50590 0.64670 0.11230 0.19800
C 	C 	0.33360 0.66150 0.08740 -0.64400
C 	C 	0.92260 0.68800 0.22040 -0.63500
C 	C 	0.68170 0.36480 0.14800 0.22100
C 	C 	0.59760 0.43040 0.20860 -0.15000
C 	C 	0.50950 0.46580 0.17120 0.22300
C 	C 	0.40290 0.53950 0.21220 -0.68100
C 	C 	0.80230 0.30500 0.14940 -0.65500
C 	C 	0.75980 0.51000 0.33930 0.21100
C 	C 	0.61920 0.46470 0.29590 -0.13900
C 	C 	0.50590 0.46560 0.35330 0.21600
C 	C 	0.33360 0.42590 0.33850 -0.67900
C 	C 	0.92260 0.53240 0.31200 -0.63900
C 	C 	0.31830 0.14800 0.36480 0.22100
C 	C 	0.40240 0.20860 0.43040 -0.15000
C 	C 	0.49050 0.17120 0.46580 0.22300
C 	C 	0.59710 0.21220 0.53950 -0.68100
C 	C 	0.19770 0.14940 0.30500 -0.65500
C 	C 	0.24020 0.33930 0.51000 0.21100
C 	C 	0.38080 0.29590 0.46470 -0.13900
C 	C 	0.49410 0.35330 0.46560 0.21600
C 	C 	0.66640 0.33850 0.42590 -0.67900
C 	C 	0.07740 0.31200 0.53240 -0.63900
C 	C 	0.31830 0.63520 0.78320 0.25600
C 	C 	0.40240 0.56960 0.77820 -0.15900
C 	C 	0.49050 0.53420 0.70540 0.23000
C 	C 	0.59710 0.46050 0.67270 -0.68900
C 	C 	0.19770 0.69500 0.84440 -0.73700
C 	C 	0.24020 0.49000 0.82930 0.21600
C 	C 	0.38080 0.53530 0.83120 -0.14000
C 	C 	0.49410 0.53440 0.88770 0.23700
C 	C 	0.66640 0.57410 0.91260 -0.72700
C 	C 	0.07740 0.46760 0.77960 -0.64600
C 	C 	0.31830 0.21680 0.85200 0.24700
C 	C 	0.40240 0.22180 0.79140 -0.16200
C 	C 	0.49050 0.29460 0.82880 0.23500
C 	C 	0.59710 0.32730 0.78780 -0.69600
C 	C 	0.19770 0.15560 0.85060 -0.69900
C 	C 	0.24020 0.17070 0.66070 0.20300
C 	C 	0.38080 0.16880 0.70410 -0.13000
C 	C 	0.49410 0.11230 0.64670 0.19800
C 	C 	0.66640 0.08740 0.66150 -0.64400
C 	C 	0.07740 0.22040 0.68800 -0.63500
N 	N 	0.53530 0.66700 0.57560 -0.25400
N 	N 	0.63850 0.71730 0.63820 -0.24900
N 	N 	0.72900 0.88090 0.46540 -0.19200
N 	N 	0.57250 0.91820 0.49180 -0.25300
N 	N 	0.53530 0.90860 0.33300 -0.24300
N 	N 	0.63850 0.92090 0.28270 -0.24800
N 	N 	0.72900 0.58450 0.11910 -0.19400
N 	N 	0.57250 0.57360 0.08180 -0.26700
N 	N 	0.53530 0.42440 0.09140 -0.26200
N 	N 	0.63850 0.36180 0.07910 -0.24000
N 	N 	0.72900 0.53460 0.41550 -0.19300
N 	N 	0.57250 0.50820 0.42640 -0.26200
N 	N 	0.46470 0.09140 0.42440 -0.26200
N 	N 	0.36150 0.07910 0.36180 -0.24000
N 	N 	0.27100 0.41550 0.53460 -0.19300
N 	N 	0.42750 0.42640 0.50820 -0.26200
N 	N 	0.46470 0.57560 0.66700 -0.25400
N 	N 	0.36150 0.63820 0.71730 -0.24900
N 	N 	0.27100 0.46540 0.88090 -0.19200
N 	N 	0.42750 0.49180 0.91820 -0.25300
N 	N 	0.46470 0.33300 0.90860 -0.24300
N 	N 	0.36150 0.28270 0.92090 -0.24800
N 	N 	0.27100 0.11910 0.58450 -0.19400
N 	N 	0.42750 0.08180 0.57360 -0.26700
