data_crystal

_cell_length_a 7.76510
_cell_length_b 19.32930
_cell_length_c 19.32930
_cell_angle_alpha 120.00000
_cell_angle_beta  90.00000
_cell_angle_gamma 90.00000

_symmetry_space_group_name_	'P 1'
_symmetry_space_group_name_H-M	'P 1'

loop_
_symmetry_equiv_pos_as_xyz
  x,y,z

loop_
_atom_site_label
_atom_site_type_symbol
_atom_site_fract_x
_atom_site_fract_y
_atom_site_fract_z
_atom_site_charge
Co	Co	0.50000 0.45608 0.45608 1.00900
Co	Co	0.50000 0.00000 0.54392 0.99000
Co	Co	0.50000 0.54392 -0.00000 0.99100
H 	H 	0.30510 0.29040 0.31280 -0.00800
H 	H 	0.21050 0.10930 0.56110 -0.46000
H 	H 	0.67850 0.36810 0.54410 16.41100
H 	H 	0.49090 0.34870 0.57370 11.85300
H 	H 	0.63130 0.29530 0.54980 20.28900
H 	H 	0.20260 0.11970 0.31470 1.78200
H 	H 	0.07000 0.17180 0.31830 1.13400
H 	H 	0.23000 0.15330 0.25230 1.10200
H 	H 	0.76000 0.08890 0.45740 -1.29200
H 	H 	0.71180 0.13140 0.41030 -0.83400
H 	H 	0.65940 0.04510 0.38260 -1.09100
H 	H 	0.01240 0.21490 0.57270 -2.67100
H 	H 	0.10210 0.26640 0.53770 -3.24000
H 	H 	0.99070 0.20940 0.49630 -2.39400
H 	H 	0.30510 0.02240 0.70960 -0.01900
H 	H 	0.21050 0.45180 0.89070 -0.44400
H 	H 	0.67850 0.17600 0.63190 16.49900
H 	H 	0.49090 0.22500 0.65130 11.92000
H 	H 	0.63130 0.25450 0.70470 20.40100
H 	H 	0.20260 0.19500 0.88030 1.81700
H 	H 	0.07000 0.14650 0.82820 1.14900
H 	H 	0.23000 0.09900 0.84670 1.12200
H 	H 	0.76000 0.36850 0.91110 -1.22700
H 	H 	0.71180 0.27890 0.86860 -0.79400
H 	H 	0.65940 0.33750 0.95490 -1.00000
H 	H 	0.01240 0.35780 0.78510 -2.66000
H 	H 	0.10210 0.27130 0.73360 -3.23100
H 	H 	0.99070 0.28690 0.79060 -2.38400
H 	H 	0.30510 0.68720 0.97760 0.01100
H 	H 	0.21050 0.43890 0.54820 -0.45100
H 	H 	0.67850 0.45590 0.82400 16.37100
H 	H 	0.49090 0.42630 0.77500 11.81900
H 	H 	0.63130 0.45020 0.74550 20.23700
H 	H 	0.20260 0.68530 0.80500 1.81600
H 	H 	0.07000 0.68170 0.85350 1.16000
H 	H 	0.23000 0.74770 0.90100 1.13900
H 	H 	0.76000 0.54260 0.63150 -1.25100
H 	H 	0.71180 0.58970 0.72110 -0.80400
H 	H 	0.65940 0.61740 0.66250 -1.03300
H 	H 	0.01240 0.42730 0.64220 -2.65500
H 	H 	0.10210 0.46230 0.72870 -3.22100
H 	H 	0.99070 0.50370 0.71310 -2.37900
H 	H 	0.69490 0.97760 0.68720 0.01100
H 	H 	0.78950 0.54820 0.43890 -0.45100
H 	H 	0.32150 0.82400 0.45590 16.37100
H 	H 	0.50910 0.77500 0.42630 11.81900
H 	H 	0.36870 0.74550 0.45020 20.23700
H 	H 	0.79740 0.80500 0.68530 1.81600
H 	H 	0.93000 0.85350 0.68170 1.16000
H 	H 	0.77000 0.90100 0.74770 1.13900
H 	H 	0.24000 0.63150 0.54260 -1.25100
H 	H 	0.28820 0.72110 0.58970 -0.80400
H 	H 	0.34060 0.66250 0.61740 -1.03300
H 	H 	0.98760 0.64220 0.42730 -2.65500
H 	H 	0.89790 0.72870 0.46230 -3.22100
H 	H 	0.00930 0.71310 0.50370 -2.37900
H 	H 	0.69490 0.31280 0.29040 -0.00800
H 	H 	0.78950 0.56110 0.10930 -0.46000
H 	H 	0.32150 0.54410 0.36810 16.41100
H 	H 	0.50910 0.57370 0.34870 11.85300
H 	H 	0.36870 0.54980 0.29530 20.28900
H 	H 	0.79740 0.31470 0.11970 1.78200
H 	H 	0.93000 0.31830 0.17180 1.13400
H 	H 	0.77000 0.25230 0.15330 1.10200
H 	H 	0.24000 0.45740 0.08890 -1.29200
H 	H 	0.28820 0.41030 0.13140 -0.83400
H 	H 	0.34060 0.38260 0.04510 -1.09100
H 	H 	0.98760 0.57270 0.21490 -2.67100
H 	H 	0.89790 0.53770 0.26640 -3.24000
H 	H 	0.00930 0.49630 0.20940 -2.39400
H 	H 	0.69490 0.70960 0.02240 -0.01900
H 	H 	0.78950 0.89070 0.45180 -0.44400
H 	H 	0.32150 0.63190 0.17600 16.49900
H 	H 	0.50910 0.65130 0.22500 11.92000
H 	H 	0.36870 0.70470 0.25450 20.40100
H 	H 	0.79740 0.88030 0.19500 1.81700
H 	H 	0.93000 0.82820 0.14650 1.14900
H 	H 	0.77000 0.84670 0.09900 1.12200
H 	H 	0.24000 0.91110 0.36850 -1.22700
H 	H 	0.28820 0.86860 0.27890 -0.79400
H 	H 	0.34060 0.95490 0.33750 -1.00000
H 	H 	0.98760 0.78510 0.35780 -2.66000
H 	H 	0.89790 0.73360 0.27130 -3.23100
H 	H 	0.00930 0.79060 0.28690 -2.38400
C 	C 	0.32010 0.21870 0.36550 3.28900
C 	C 	0.40180 0.22380 0.43130 -7.63500
C 	C 	0.49160 0.29630 0.46700 13.78100
C 	C 	0.60030 0.32970 0.54060 -50.67900
C 	C 	0.19690 0.15900 0.30680 -4.59100
C 	C 	0.24200 0.17210 0.50920 -3.91600
C 	C 	0.38130 0.16990 0.46490 3.66800
C 	C 	0.49450 0.11350 0.46410 -2.60400
C 	C 	0.66700 0.08800 0.42540 3.02500
C 	C 	0.08170 0.22090 0.53230 7.54900
C 	C 	0.32010 0.14680 0.78130 3.31100
C 	C 	0.40180 0.20750 0.77620 -7.66400
C 	C 	0.49160 0.17070 0.70370 13.84900
C 	C 	0.60030 0.21090 0.67030 -50.95000
C 	C 	0.19690 0.14780 0.84100 -4.64600
C 	C 	0.24200 0.33710 0.82790 -3.89500
C 	C 	0.38130 0.29500 0.83010 3.65400
C 	C 	0.49450 0.35060 0.88650 -2.54200
C 	C 	0.66700 0.33740 0.91200 2.86600
C 	C 	0.08170 0.31140 0.77910 7.51800
C 	C 	0.32010 0.63450 0.85320 3.30700
C 	C 	0.40180 0.56870 0.79250 -7.61800
C 	C 	0.49160 0.53300 0.82930 13.74900
C 	C 	0.60030 0.45940 0.78910 -50.55000
C 	C 	0.19690 0.69320 0.85220 -4.64800
C 	C 	0.24200 0.49080 0.66290 -3.89000
C 	C 	0.38130 0.53510 0.70500 3.64500
C 	C 	0.49450 0.53590 0.64940 -2.55800
C 	C 	0.66700 0.57460 0.66260 2.91700
C 	C 	0.08170 0.46770 0.68860 7.50200
C 	C 	0.67990 0.85320 0.63450 3.30700
C 	C 	0.59820 0.79250 0.56870 -7.61800
C 	C 	0.50840 0.82930 0.53300 13.74900
C 	C 	0.39970 0.78910 0.45940 -50.55000
C 	C 	0.80310 0.85220 0.69320 -4.64800
C 	C 	0.75800 0.66290 0.49080 -3.89000
C 	C 	0.61870 0.70500 0.53510 3.64500
C 	C 	0.50550 0.64940 0.53590 -2.55800
C 	C 	0.33300 0.66260 0.57460 2.91700
C 	C 	0.91830 0.68860 0.46770 7.50200
C 	C 	0.67990 0.36550 0.21870 3.28900
C 	C 	0.59820 0.43130 0.22380 -7.63500
C 	C 	0.50840 0.46700 0.29630 13.78100
C 	C 	0.39970 0.54060 0.32970 -50.67900
C 	C 	0.80310 0.30680 0.15900 -4.59100
C 	C 	0.75800 0.50920 0.17210 -3.91600
C 	C 	0.61870 0.46490 0.16990 3.66800
C 	C 	0.50550 0.46410 0.11350 -2.60400
C 	C 	0.33300 0.42540 0.08800 3.02500
C 	C 	0.91830 0.53230 0.22090 7.54900
C 	C 	0.67990 0.78130 0.14680 3.31100
C 	C 	0.59820 0.77620 0.20750 -7.66400
C 	C 	0.50840 0.70370 0.17070 13.84900
C 	C 	0.39970 0.67030 0.21090 -50.95000
C 	C 	0.80310 0.84100 0.14780 -4.64600
C 	C 	0.75800 0.82790 0.33710 -3.89500
C 	C 	0.61870 0.83010 0.29500 3.65400
C 	C 	0.50550 0.88650 0.35060 -2.54200
C 	C 	0.33300 0.91200 0.33740 2.86600
C 	C 	0.91830 0.77910 0.31140 7.51800
N 	N 	0.46440 0.33570 0.42670 -2.75500
N 	N 	0.36200 0.28540 0.36340 -0.72000
N 	N 	0.27320 0.11940 0.53380 0.48400
N 	N 	0.42730 0.08170 0.50740 -0.08500
N 	N 	0.46440 0.09100 0.66430 -2.77400
N 	N 	0.36200 0.07800 0.71460 -0.72700
N 	N 	0.27320 0.41440 0.88060 0.48200
N 	N 	0.42730 0.42570 0.91830 -0.07400
N 	N 	0.46440 0.57330 0.90900 -2.73700
N 	N 	0.36200 0.63660 0.92200 -0.71800
N 	N 	0.27320 0.46620 0.58560 0.48000
N 	N 	0.42730 0.49260 0.57430 -0.08400
N 	N 	0.53560 0.90900 0.57330 -2.73700
N 	N 	0.63800 0.92200 0.63660 -0.71800
N 	N 	0.72680 0.58560 0.46620 0.48000
N 	N 	0.57270 0.57430 0.49260 -0.08400
N 	N 	0.53560 0.42670 0.33570 -2.75500
N 	N 	0.63800 0.36340 0.28540 -0.72000
N 	N 	0.72680 0.53380 0.11940 0.48400
N 	N 	0.57270 0.50740 0.08170 -0.08500
N 	N 	0.53560 0.66430 0.09100 -2.77400
N 	N 	0.63800 0.71460 0.07800 -0.72700
N 	N 	0.72680 0.88060 0.41440 0.48200
N 	N 	0.57270 0.91830 0.42570 -0.07400
