data_crystal

_cell_length_a 8.95320
_cell_length_b 15.15370
_cell_length_c 16.46600
_cell_angle_alpha 90.00000
_cell_angle_beta  90.00000
_cell_angle_gamma 103.58700

_symmetry_space_group_name_	'P 1'
_symmetry_space_group_name_H-M	'P 1'

loop_
_symmetry_equiv_pos_as_xyz
  x,y,z

loop_
_atom_site_label
_atom_site_type_symbol
_atom_site_fract_x
_atom_site_fract_y
_atom_site_fract_z
_atom_site_charge
Eu	Eu	0.43638 0.04332 0.89354 2.07900
Eu	Eu	0.06362 0.95668 0.39354 2.06900
Eu	Eu	0.56362 0.95668 0.10646 2.07800
Eu	Eu	0.93638 0.04332 0.60646 2.06800
H 	H 	0.99360 0.86100 0.98700 0.14000
H 	H 	0.96890 0.91220 0.06660 0.15200
H 	H 	0.14810 0.78180 0.94130 0.04600
H 	H 	0.24120 0.66060 0.89600 0.08500
H 	H 	0.13060 0.53140 0.10560 0.06700
H 	H 	0.03420 0.64970 0.15160 0.06500
H 	H 	0.15090 0.42180 0.04380 -0.01000
H 	H 	0.65360 0.36020 0.75810 0.10500
H 	H 	0.57730 0.49000 0.79060 0.01700
H 	H 	0.44580 0.26870 0.05760 0.14300
H 	H 	0.28130 0.20310 0.06010 0.13000
H 	H 	0.65000 0.23520 0.71860 0.11900
H 	H 	0.77890 0.22480 0.78000 0.11900
H 	H 	0.50640 0.13900 0.48700 0.11700
H 	H 	0.53110 0.08780 0.56660 0.13400
H 	H 	0.35190 0.21820 0.44130 0.05500
H 	H 	0.25880 0.33940 0.39600 0.07900
H 	H 	0.36940 0.46860 0.60560 0.06000
H 	H 	0.46580 0.35030 0.65160 0.07400
H 	H 	0.34910 0.57820 0.54380 -0.00900
H 	H 	0.84640 0.63980 0.25810 0.10800
H 	H 	0.92270 0.51000 0.29060 0.01500
H 	H 	0.05420 0.73130 0.55760 0.14300
H 	H 	0.21870 0.79690 0.56010 0.13000
H 	H 	0.85000 0.76480 0.21860 0.12000
H 	H 	0.72110 0.77520 0.28000 0.12000
H 	H 	0.00640 0.13900 0.01300 0.14000
H 	H 	0.03110 0.08780 0.93340 0.15200
H 	H 	0.85190 0.21820 0.05870 0.04600
H 	H 	0.75880 0.33940 0.10400 0.08500
H 	H 	0.86940 0.46860 0.89440 0.06700
H 	H 	0.96580 0.35030 0.84840 0.06500
H 	H 	0.84910 0.57820 0.95620 -0.01000
H 	H 	0.34640 0.63980 0.24190 0.10500
H 	H 	0.42270 0.51000 0.20940 0.01700
H 	H 	0.55420 0.73130 0.94240 0.14300
H 	H 	0.71870 0.79690 0.93990 0.13000
H 	H 	0.35000 0.76480 0.28140 0.11900
H 	H 	0.22110 0.77520 0.22000 0.11900
H 	H 	0.49360 0.86100 0.51300 0.11700
H 	H 	0.46890 0.91220 0.43340 0.13400
H 	H 	0.64810 0.78180 0.55870 0.05500
H 	H 	0.74120 0.66060 0.60400 0.07900
H 	H 	0.63060 0.53140 0.39440 0.06000
H 	H 	0.53420 0.64970 0.34840 0.07400
H 	H 	0.65090 0.42180 0.45620 -0.00900
H 	H 	0.15360 0.36020 0.74190 0.10800
H 	H 	0.07730 0.49000 0.70940 0.01500
H 	H 	0.94580 0.26870 0.44240 0.14300
H 	H 	0.78130 0.20310 0.43990 0.13000
H 	H 	0.15000 0.23520 0.78140 0.12000
H 	H 	0.27890 0.22480 0.72000 0.12000
C 	C 	0.19680 0.93540 0.03450 0.49800
C 	C 	0.03320 0.87680 0.04120 -0.30600
C 	C 	0.08260 0.72870 0.05260 0.12000
C 	C 	0.14490 0.73200 0.97490 -0.05700
C 	C 	0.20210 0.65910 0.94850 -0.09500
C 	C 	0.20350 0.58580 0.99560 0.10100
C 	C 	0.13600 0.58200 0.07280 -0.08200
C 	C 	0.07770 0.65290 0.10010 -0.08000
C 	C 	0.38080 0.51850 0.90370 0.22700
C 	C 	0.26860 0.50850 0.96840 -0.15600
C 	C 	0.22440 0.42720 0.00310 0.16900
C 	C 	0.37880 0.35710 0.92550 0.15800
C 	C 	0.42950 0.27810 0.90900 -0.00200
C 	C 	0.53420 0.28290 0.84510 0.16700
C 	C 	0.58560 0.35990 0.80090 -0.20700
C 	C 	0.53770 0.43670 0.81910 0.08600
C 	C 	0.42930 0.43550 0.88050 -0.14400
C 	C 	0.38620 0.20910 0.04170 -0.25600
C 	C 	0.45260 0.13660 0.08050 0.46200
C 	C 	0.67400 0.19900 0.76310 -0.25000
C 	C 	0.65930 0.10330 0.73520 0.52900
C 	C 	0.30320 0.06460 0.53450 0.50000
C 	C 	0.46680 0.12320 0.54120 -0.25700
C 	C 	0.41740 0.27130 0.55260 0.14600
C 	C 	0.35510 0.26800 0.47490 -0.08500
C 	C 	0.29790 0.34090 0.44850 -0.07500
C 	C 	0.29650 0.41420 0.49560 0.08300
C 	C 	0.36400 0.41800 0.57280 -0.05900
C 	C 	0.42230 0.34710 0.60010 -0.10100
C 	C 	0.11920 0.48150 0.40370 0.22600
C 	C 	0.23140 0.49150 0.46840 -0.15100
C 	C 	0.27560 0.57280 0.50310 0.16600
C 	C 	0.12120 0.64290 0.42550 0.16200
C 	C 	0.07050 0.72190 0.40900 -0.01000
C 	C 	0.96580 0.71710 0.34510 0.17500
C 	C 	0.91440 0.64010 0.30090 -0.21300
C 	C 	0.96230 0.56330 0.31910 0.09400
C 	C 	0.07070 0.56450 0.38050 -0.14900
C 	C 	0.11380 0.79090 0.54170 -0.26100
C 	C 	0.04740 0.86340 0.58050 0.45500
C 	C 	0.82600 0.80100 0.26310 -0.25000
C 	C 	0.84070 0.89670 0.23520 0.53000
C 	C 	0.80320 0.06460 0.96550 0.49800
C 	C 	0.96680 0.12320 0.95880 -0.30600
C 	C 	0.91740 0.27130 0.94740 0.12000
C 	C 	0.85510 0.26800 0.02510 -0.05700
C 	C 	0.79790 0.34090 0.05150 -0.09500
C 	C 	0.79650 0.41420 0.00440 0.10100
C 	C 	0.86400 0.41800 0.92720 -0.08200
C 	C 	0.92230 0.34710 0.89990 -0.08000
C 	C 	0.61920 0.48150 0.09630 0.22700
C 	C 	0.73140 0.49150 0.03160 -0.15600
C 	C 	0.77560 0.57280 0.99690 0.16900
C 	C 	0.62120 0.64290 0.07450 0.15800
C 	C 	0.57050 0.72190 0.09100 -0.00200
C 	C 	0.46580 0.71710 0.15490 0.16700
C 	C 	0.41440 0.64010 0.19910 -0.20700
C 	C 	0.46230 0.56330 0.18090 0.08600
C 	C 	0.57070 0.56450 0.11950 -0.14400
C 	C 	0.61380 0.79090 0.95830 -0.25600
C 	C 	0.54740 0.86340 0.91950 0.46200
C 	C 	0.32600 0.80100 0.23690 -0.25000
C 	C 	0.34070 0.89670 0.26480 0.52900
C 	C 	0.69680 0.93540 0.46550 0.50000
C 	C 	0.53320 0.87680 0.45880 -0.25700
C 	C 	0.58260 0.72870 0.44740 0.14600
C 	C 	0.64490 0.73200 0.52510 -0.08500
C 	C 	0.70210 0.65910 0.55150 -0.07500
C 	C 	0.70350 0.58580 0.50440 0.08300
C 	C 	0.63600 0.58200 0.42720 -0.05900
C 	C 	0.57770 0.65290 0.39990 -0.10100
C 	C 	0.88080 0.51850 0.59630 0.22600
C 	C 	0.76860 0.50850 0.53160 -0.15100
C 	C 	0.72440 0.42720 0.49690 0.16600
C 	C 	0.87880 0.35710 0.57450 0.16200
C 	C 	0.92950 0.27810 0.59100 -0.01000
C 	C 	0.03420 0.28290 0.65490 0.17500
C 	C 	0.08560 0.35990 0.69910 -0.21300
C 	C 	0.03770 0.43670 0.68090 0.09400
C 	C 	0.92930 0.43550 0.61950 -0.14900
C 	C 	0.88620 0.20910 0.45830 -0.26100
C 	C 	0.95260 0.13660 0.41950 0.45500
C 	C 	0.17400 0.19900 0.73690 -0.25000
C 	C 	0.15930 0.10330 0.76480 0.53000
O 	O 	0.22010 0.99090 0.97860 -0.52600
O 	O 	0.29170 0.92390 0.08850 -0.49000
O 	O 	0.02150 0.79540 0.08650 -0.14700
O 	O 	0.43690 0.59040 0.86900 -0.23500
O 	O 	0.27390 0.35130 0.98620 -0.24200
O 	O 	0.38890 0.19980 0.95210 -0.22200
O 	O 	0.44880 0.13000 0.15360 -0.35900
O 	O 	0.50960 0.08510 0.03520 -0.62000
O 	O 	0.57220 0.20130 0.82920 -0.27300
O 	O 	0.75300 0.09550 0.68090 -0.53100
O 	O 	0.55280 0.04200 0.76230 -0.49800
O 	O 	0.27990 0.00910 0.47860 -0.52900
O 	O 	0.20830 0.07610 0.58850 -0.48400
O 	O 	0.47850 0.20460 0.58650 -0.15700
O 	O 	0.06310 0.40960 0.36900 -0.23500
O 	O 	0.22610 0.64870 0.48620 -0.24200
O 	O 	0.11110 0.80020 0.45210 -0.21700
O 	O 	0.05120 0.87000 0.65360 -0.36100
O 	O 	0.99040 0.91490 0.53520 -0.61600
O 	O 	0.92780 0.79870 0.32920 -0.27200
O 	O 	0.74700 0.90450 0.18090 -0.53000
O 	O 	0.94720 0.95800 0.26230 -0.49300
O 	O 	0.77990 0.00910 0.02140 -0.52600
O 	O 	0.70830 0.07610 0.91150 -0.49000
O 	O 	0.97850 0.20460 0.91350 -0.14700
O 	O 	0.56310 0.40960 0.13100 -0.23500
O 	O 	0.72610 0.64870 0.01380 -0.24200
O 	O 	0.61110 0.80020 0.04790 -0.22200
O 	O 	0.55120 0.87000 0.84640 -0.35900
O 	O 	0.49040 0.91490 0.96480 -0.62000
O 	O 	0.42780 0.79870 0.17080 -0.27300
O 	O 	0.24700 0.90450 0.31910 -0.53100
O 	O 	0.44720 0.95800 0.23770 -0.49800
O 	O 	0.72010 0.99090 0.52140 -0.52900
O 	O 	0.79170 0.92390 0.41150 -0.48400
O 	O 	0.52150 0.79540 0.41350 -0.15700
O 	O 	0.93690 0.59040 0.63100 -0.23500
O 	O 	0.77390 0.35130 0.51380 -0.24200
O 	O 	0.88890 0.19980 0.54790 -0.21700
O 	O 	0.94880 0.13000 0.34640 -0.36100
O 	O 	0.00960 0.08510 0.46480 -0.61600
O 	O 	0.07220 0.20130 0.67080 -0.27200
O 	O 	0.25300 0.09550 0.81910 -0.53000
O 	O 	0.05280 0.04200 0.73770 -0.49300
