data_crystal

_cell_length_a 22.30920
_cell_length_b 41.76900
_cell_length_c 7.16460
_cell_angle_alpha 90.00000
_cell_angle_beta  90.00000
_cell_angle_gamma 90.00000

_symmetry_space_group_name_	'P 1'
_symmetry_space_group_name_H-M	'P 1'

loop_
_symmetry_equiv_pos_as_xyz
  x,y,z

loop_
_atom_site_label
_atom_site_type_symbol
_atom_site_fract_x
_atom_site_fract_y
_atom_site_fract_z
_atom_site_charge
Na	Na	0.04512 0.07141 0.00540 0.57500
N 	N 	0.10684 0.04203 0.77060 -0.16800
N 	N 	0.04348 0.94078 0.81500 -0.17400
N 	N 	0.19286 0.87808 0.69480 -0.18400
N 	N 	0.35810 0.93580 0.66810 -0.17700
N 	N 	0.30484 0.03910 0.70650 -0.11900
C 	C 	0.17176 0.99148 0.73770 -0.02100
C 	C 	0.15026 0.95981 0.74050 -0.02200
C 	C 	0.19930 0.93926 0.71780 -0.02000
C 	C 	0.25132 0.95797 0.70350 -0.02200
C 	C 	0.23450 0.99041 0.71510 -0.01400
C 	C 	0.13606 0.01963 0.75520 0.08300
C 	C 	0.09053 0.94961 0.77910 0.08500
C 	C 	0.19601 0.90518 0.70640 0.08900
C 	C 	0.31067 0.94574 0.68260 0.09100
C 	C 	0.27328 0.01740 0.70960 0.08600
O 	O 	0.01910 0.01850 0.14370 -0.36700
C 	C 	0.04680 0.00020 0.29800 0.01000
H 	H 	0.06100 0.97920 0.25190 -0.05400
H 	H 	0.08160 0.01210 0.34870 -0.20400
C 	C 	0.00300 0.99560 0.44140 -0.10500
H 	H 	0.00730 0.97400 0.49600 0.02900
H 	H 	0.00900 0.01150 0.54190 0.06100
C 	C 	0.05360 0.00100 0.36800 0.04900
H 	H 	0.07700 0.98500 0.43870 0.03300
H 	H 	0.07550 0.02170 0.36990 0.20600
C 	C 	0.95730 0.01010 0.16780 0.23800
H 	H 	0.05360 0.00720 0.07960 0.07100
H 	H 	0.93170 0.02890 0.14040 -0.02800
Na	Na	0.04512 0.57141 0.50540 0.57700
N 	N 	0.10684 0.54203 0.27060 -0.17700
N 	N 	0.04348 0.44078 0.31500 -0.18100
N 	N 	0.19286 0.37808 0.19480 -0.18600
N 	N 	0.35810 0.43580 0.16810 -0.18200
N 	N 	0.30484 0.53910 0.20650 -0.12800
C 	C 	0.17176 0.49148 0.23770 -0.02600
C 	C 	0.15026 0.45981 0.24050 -0.02600
C 	C 	0.19930 0.43926 0.21780 -0.02300
C 	C 	0.25132 0.45797 0.20350 -0.02600
C 	C 	0.23450 0.49041 0.21510 -0.01900
C 	C 	0.13606 0.51963 0.25520 0.07100
C 	C 	0.09053 0.44961 0.27910 0.07500
C 	C 	0.19601 0.40518 0.20640 0.08400
C 	C 	0.31067 0.44574 0.18260 0.08300
C 	C 	0.27328 0.51740 0.20960 0.07400
O 	O 	0.01910 0.51850 0.64370 -0.35900
C 	C 	0.04680 0.50020 0.79800 0.01800
H 	H 	0.06100 0.47920 0.75190 -0.04800
H 	H 	0.08160 0.51210 0.84870 -0.27200
C 	C 	0.00300 0.49560 0.94140 -0.09100
H 	H 	0.00730 0.47400 0.99600 0.04700
H 	H 	0.00900 0.51150 0.04190 0.02700
C 	C 	0.05360 0.50100 0.86800 0.06400
H 	H 	0.07700 0.48500 0.93870 0.04000
H 	H 	0.07550 0.52170 0.86990 0.26900
C 	C 	0.95730 0.51010 0.66780 0.21000
H 	H 	0.05360 0.50720 0.57960 0.08400
H 	H 	0.93170 0.52890 0.64040 -0.01400
Na	Na	0.54512 0.07141 0.50540 0.57700
N 	N 	0.60684 0.04203 0.27060 -0.17700
N 	N 	0.54348 0.94078 0.31500 -0.18100
N 	N 	0.69286 0.87808 0.19480 -0.18600
N 	N 	0.85810 0.93580 0.16810 -0.18200
N 	N 	0.80484 0.03910 0.20650 -0.12800
C 	C 	0.67176 0.99148 0.23770 -0.02600
C 	C 	0.65026 0.95981 0.24050 -0.02600
C 	C 	0.69930 0.93926 0.21780 -0.02300
C 	C 	0.75132 0.95797 0.20350 -0.02600
C 	C 	0.73450 0.99041 0.21510 -0.01900
C 	C 	0.63606 0.01963 0.25520 0.07100
C 	C 	0.59053 0.94961 0.27910 0.07500
C 	C 	0.69601 0.90518 0.20640 0.08400
C 	C 	0.81067 0.94574 0.18260 0.08300
C 	C 	0.77328 0.01740 0.20960 0.07400
O 	O 	0.51910 0.01850 0.64370 -0.35900
C 	C 	0.54680 0.00020 0.79800 0.01800
H 	H 	0.56100 0.97920 0.75190 -0.04800
H 	H 	0.58160 0.01210 0.84870 -0.27300
C 	C 	0.50300 0.99560 0.94140 -0.09100
H 	H 	0.50730 0.97400 0.99600 0.04700
H 	H 	0.50900 0.01150 0.04190 0.02700
C 	C 	0.55360 0.00100 0.86800 0.06400
H 	H 	0.57700 0.98500 0.93870 0.04000
H 	H 	0.57550 0.02170 0.86990 0.26900
C 	C 	0.45730 0.01010 0.66780 0.21000
H 	H 	0.55360 0.00720 0.57960 0.08400
H 	H 	0.43170 0.02890 0.64040 -0.01400
Na	Na	0.54512 0.57141 0.00540 0.57400
N 	N 	0.60684 0.54203 0.77060 -0.16900
N 	N 	0.54348 0.44078 0.81500 -0.17400
N 	N 	0.69286 0.37808 0.69480 -0.18400
N 	N 	0.85810 0.43580 0.66810 -0.17700
N 	N 	0.80484 0.53910 0.70650 -0.11900
C 	C 	0.67176 0.49148 0.73770 -0.02100
C 	C 	0.65026 0.45981 0.74050 -0.02200
C 	C 	0.69930 0.43926 0.71780 -0.02000
C 	C 	0.75132 0.45797 0.70350 -0.02200
C 	C 	0.73450 0.49041 0.71510 -0.01400
C 	C 	0.63606 0.51963 0.75520 0.08300
C 	C 	0.59053 0.44961 0.77910 0.08500
C 	C 	0.69601 0.40518 0.70640 0.08900
C 	C 	0.81067 0.44574 0.68260 0.09100
C 	C 	0.77328 0.51740 0.70960 0.08600
O 	O 	0.51910 0.51850 0.14370 -0.36700
C 	C 	0.54680 0.50020 0.29800 0.01000
H 	H 	0.56100 0.47920 0.25190 -0.05400
H 	H 	0.58160 0.51210 0.34870 -0.20400
C 	C 	0.50300 0.49560 0.44140 -0.10500
H 	H 	0.50730 0.47400 0.49600 0.02900
H 	H 	0.50900 0.51150 0.54190 0.06100
C 	C 	0.55360 0.50100 0.36800 0.04900
H 	H 	0.57700 0.48500 0.43870 0.03300
H 	H 	0.57550 0.52170 0.36990 0.20600
C 	C 	0.45730 0.51010 0.16780 0.23800
H 	H 	0.55360 0.50720 0.07960 0.07100
H 	H 	0.43170 0.52890 0.14040 -0.02800
Na	Na	0.95488 0.92859 0.00540 0.57400
N 	N 	0.89316 0.95797 0.77060 -0.16900
N 	N 	0.95652 0.05922 0.81500 -0.17400
N 	N 	0.80714 0.12192 0.69480 -0.18400
N 	N 	0.64190 0.06420 0.66810 -0.17700
N 	N 	0.69516 0.96090 0.70650 -0.11900
C 	C 	0.82824 0.00852 0.73770 -0.02100
C 	C 	0.84974 0.04019 0.74050 -0.02200
C 	C 	0.80070 0.06074 0.71780 -0.02000
C 	C 	0.74868 0.04203 0.70350 -0.02200
C 	C 	0.76550 0.00959 0.71510 -0.01400
C 	C 	0.86394 0.98037 0.75520 0.08300
C 	C 	0.90947 0.05039 0.77910 0.08500
C 	C 	0.80399 0.09482 0.70640 0.08900
C 	C 	0.68933 0.05426 0.68260 0.09100
C 	C 	0.72672 0.98260 0.70960 0.08600
O 	O 	0.98090 0.98150 0.14370 -0.36700
C 	C 	0.95320 0.99980 0.29800 0.01000
H 	H 	0.93900 0.02080 0.25190 -0.05400
H 	H 	0.91840 0.98790 0.34870 -0.20400
C 	C 	0.99700 0.00440 0.44140 -0.10500
H 	H 	0.99270 0.02600 0.49600 0.02900
H 	H 	0.99100 0.98850 0.54190 0.06100
C 	C 	0.94640 0.99900 0.36800 0.04900
H 	H 	0.92300 0.01500 0.43870 0.03300
H 	H 	0.92450 0.97830 0.36990 0.20600
C 	C 	0.04270 0.98990 0.16780 0.23800
H 	H 	0.94640 0.99280 0.07960 0.07100
H 	H 	0.06830 0.97110 0.14040 -0.02800
Na	Na	0.95488 0.42859 0.50540 0.57700
N 	N 	0.89316 0.45797 0.27060 -0.17700
N 	N 	0.95652 0.55922 0.31500 -0.18100
N 	N 	0.80714 0.62192 0.19480 -0.18600
N 	N 	0.64190 0.56420 0.16810 -0.18200
N 	N 	0.69516 0.46090 0.20650 -0.12800
C 	C 	0.82824 0.50852 0.23770 -0.02600
C 	C 	0.84974 0.54019 0.24050 -0.02600
C 	C 	0.80070 0.56074 0.21780 -0.02300
C 	C 	0.74868 0.54203 0.20350 -0.02600
C 	C 	0.76550 0.50959 0.21510 -0.01900
C 	C 	0.86394 0.48037 0.25520 0.07100
C 	C 	0.90947 0.55039 0.27910 0.07500
C 	C 	0.80399 0.59482 0.20640 0.08400
C 	C 	0.68933 0.55426 0.18260 0.08300
C 	C 	0.72672 0.48260 0.20960 0.07400
O 	O 	0.98090 0.48150 0.64370 -0.35900
C 	C 	0.95320 0.49980 0.79800 0.01800
H 	H 	0.93900 0.52080 0.75190 -0.04800
H 	H 	0.91840 0.48790 0.84870 -0.27200
C 	C 	0.99700 0.50440 0.94140 -0.09100
H 	H 	0.99270 0.52600 0.99600 0.04700
H 	H 	0.99100 0.48850 0.04190 0.02700
C 	C 	0.94640 0.49900 0.86800 0.06400
H 	H 	0.92300 0.51500 0.93870 0.04000
H 	H 	0.92450 0.47830 0.86990 0.26900
C 	C 	0.04270 0.48990 0.66780 0.21000
H 	H 	0.94640 0.49280 0.57960 0.08400
H 	H 	0.06830 0.47110 0.64040 -0.01400
Na	Na	0.45488 0.92859 0.50540 0.57700
N 	N 	0.39316 0.95797 0.27060 -0.17700
N 	N 	0.45652 0.05922 0.31500 -0.18100
N 	N 	0.30714 0.12192 0.19480 -0.18600
N 	N 	0.14190 0.06420 0.16810 -0.18200
N 	N 	0.19516 0.96090 0.20650 -0.12800
C 	C 	0.32824 0.00852 0.23770 -0.02600
C 	C 	0.34974 0.04019 0.24050 -0.02600
C 	C 	0.30070 0.06074 0.21780 -0.02300
C 	C 	0.24868 0.04203 0.20350 -0.02600
C 	C 	0.26550 0.00959 0.21510 -0.01900
C 	C 	0.36394 0.98037 0.25520 0.07100
C 	C 	0.40947 0.05039 0.27910 0.07500
C 	C 	0.30399 0.09482 0.20640 0.08400
C 	C 	0.18933 0.05426 0.18260 0.08300
C 	C 	0.22672 0.98260 0.20960 0.07400
O 	O 	0.48090 0.98150 0.64370 -0.35900
C 	C 	0.45320 0.99980 0.79800 0.01800
H 	H 	0.43900 0.02080 0.75190 -0.04800
H 	H 	0.41840 0.98790 0.84870 -0.27300
C 	C 	0.49700 0.00440 0.94140 -0.09100
H 	H 	0.49270 0.02600 0.99600 0.04700
H 	H 	0.49100 0.98850 0.04190 0.02700
C 	C 	0.44640 0.99900 0.86800 0.06400
H 	H 	0.42300 0.01500 0.93870 0.04000
H 	H 	0.42450 0.97830 0.86990 0.26900
C 	C 	0.54270 0.98990 0.66780 0.21000
H 	H 	0.44640 0.99280 0.57960 0.08400
H 	H 	0.56830 0.97110 0.64040 -0.01400
Na	Na	0.45488 0.42859 0.00540 0.57400
N 	N 	0.39316 0.45797 0.77060 -0.16900
N 	N 	0.45652 0.55922 0.81500 -0.17400
N 	N 	0.30714 0.62192 0.69480 -0.18400
N 	N 	0.14190 0.56420 0.66810 -0.17700
N 	N 	0.19516 0.46090 0.70650 -0.11900
C 	C 	0.32824 0.50852 0.73770 -0.02100
C 	C 	0.34974 0.54019 0.74050 -0.02200
C 	C 	0.30070 0.56074 0.71780 -0.02000
C 	C 	0.24868 0.54203 0.70350 -0.02200
C 	C 	0.26550 0.50959 0.71510 -0.01400
C 	C 	0.36394 0.48037 0.75520 0.08300
C 	C 	0.40947 0.55039 0.77910 0.08500
C 	C 	0.30399 0.59482 0.70640 0.08900
C 	C 	0.18933 0.55426 0.68260 0.09100
C 	C 	0.22672 0.48260 0.70960 0.08600
O 	O 	0.48090 0.48150 0.14370 -0.36700
C 	C 	0.45320 0.49980 0.29800 0.01000
H 	H 	0.43900 0.52080 0.25190 -0.05400
H 	H 	0.41840 0.48790 0.34870 -0.20400
C 	C 	0.49700 0.50440 0.44140 -0.10500
H 	H 	0.49270 0.52600 0.49600 0.02900
H 	H 	0.49100 0.48850 0.54190 0.06100
C 	C 	0.44640 0.49900 0.36800 0.04900
H 	H 	0.42300 0.51500 0.43870 0.03300
H 	H 	0.42450 0.47830 0.36990 0.20600
C 	C 	0.54270 0.48990 0.16780 0.23800
H 	H 	0.44640 0.49280 0.07960 0.07100
H 	H 	0.56830 0.47110 0.14040 -0.02800
Na	Na	0.29512 0.17859 0.25540 0.57700
N 	N 	0.35684 0.20797 0.02060 -0.17200
N 	N 	0.29348 0.30922 0.06500 -0.17600
N 	N 	0.44286 0.37192 0.94480 -0.17900
N 	N 	0.60810 0.31420 0.91810 -0.17500
N 	N 	0.55484 0.21090 0.95650 -0.11800
C 	C 	0.42176 0.25852 0.98770 -0.00100
C 	C 	0.40026 0.29019 0.99050 0.00100
C 	C 	0.44930 0.31074 0.96780 -0.02700
C 	C 	0.50132 0.29203 0.95350 -0.01700
C 	C 	0.48450 0.25959 0.96510 -0.02100
C 	C 	0.38606 0.23037 0.00520 0.04500
C 	C 	0.34053 0.30039 0.02910 0.04800
C 	C 	0.44601 0.34482 0.95640 0.09800
C 	C 	0.56067 0.30426 0.93260 0.09200
C 	C 	0.52328 0.23260 0.95960 0.09300
O 	O 	0.26910 0.23150 0.39370 -0.36200
C 	C 	0.29680 0.24980 0.54800 -0.00500
H 	H 	0.31100 0.27080 0.50190 -0.05200
H 	H 	0.33160 0.23790 0.59870 -0.17400
C 	C 	0.25300 0.25440 0.69140 -0.09600
H 	H 	0.25730 0.27600 0.74600 0.03300
H 	H 	0.25900 0.23850 0.79190 0.06000
C 	C 	0.30360 0.24900 0.61800 0.04100
H 	H 	0.32700 0.26500 0.68870 0.03900
H 	H 	0.32550 0.22830 0.61990 0.18700
C 	C 	0.20730 0.23990 0.41780 0.24800
H 	H 	0.30360 0.24280 0.32960 0.07300
H 	H 	0.18170 0.22110 0.39040 -0.02600
Na	Na	0.29512 0.67859 0.75540 0.57800
N 	N 	0.35684 0.70797 0.52060 -0.17600
N 	N 	0.29348 0.80922 0.56500 -0.18000
N 	N 	0.44286 0.87192 0.44480 -0.18500
N 	N 	0.60810 0.81420 0.41810 -0.17700
N 	N 	0.55484 0.71090 0.45650 -0.12500
C 	C 	0.42176 0.75852 0.48770 -0.02500
C 	C 	0.40026 0.79019 0.49050 -0.02400
C 	C 	0.44930 0.81074 0.46780 -0.02200
C 	C 	0.50132 0.79203 0.45350 -0.02500
C 	C 	0.48450 0.75959 0.46510 -0.01800
C 	C 	0.38606 0.73037 0.50520 0.07400
C 	C 	0.34053 0.80039 0.52910 0.07800
C 	C 	0.44601 0.84482 0.45640 0.08600
C 	C 	0.56067 0.80426 0.43260 0.08800
C 	C 	0.52328 0.73260 0.45960 0.07600
O 	O 	0.26910 0.73150 0.89370 -0.37500
C 	C 	0.29680 0.74980 0.04800 0.08000
H 	H 	0.31100 0.77080 0.00190 -0.10200
H 	H 	0.33160 0.73790 0.09870 -0.33300
C 	C 	0.25300 0.75440 0.19140 -0.13800
H 	H 	0.25730 0.77600 0.24600 0.02600
H 	H 	0.25900 0.73850 0.29190 0.07500
C 	C 	0.30360 0.74900 0.11800 0.04000
H 	H 	0.32700 0.76500 0.18870 0.04100
H 	H 	0.32550 0.72830 0.11990 0.30800
C 	C 	0.20730 0.73990 0.91780 0.25600
H 	H 	0.30360 0.74280 0.82960 0.07500
H 	H 	0.18170 0.72110 0.89040 -0.00100
Na	Na	0.79512 0.17859 0.75540 0.57800
N 	N 	0.85684 0.20797 0.52060 -0.17600
N 	N 	0.79348 0.30922 0.56500 -0.18000
N 	N 	0.94286 0.37192 0.44480 -0.18500
N 	N 	0.10810 0.31420 0.41810 -0.17700
N 	N 	0.05484 0.21090 0.45650 -0.12500
C 	C 	0.92176 0.25852 0.48770 -0.02500
C 	C 	0.90026 0.29019 0.49050 -0.02400
C 	C 	0.94930 0.31074 0.46780 -0.02200
C 	C 	0.00132 0.29203 0.45350 -0.02500
C 	C 	0.98450 0.25959 0.46510 -0.01800
C 	C 	0.88606 0.23037 0.50520 0.07400
C 	C 	0.84053 0.30039 0.52910 0.07800
C 	C 	0.94601 0.34482 0.45640 0.08600
C 	C 	0.06067 0.30426 0.43260 0.08800
C 	C 	0.02328 0.23260 0.45960 0.07600
O 	O 	0.76910 0.23150 0.89370 -0.37500
C 	C 	0.79680 0.24980 0.04800 0.08000
H 	H 	0.81100 0.27080 0.00190 -0.10200
H 	H 	0.83160 0.23790 0.09870 -0.33200
C 	C 	0.75300 0.25440 0.19140 -0.13800
H 	H 	0.75730 0.27600 0.24600 0.02600
H 	H 	0.75900 0.23850 0.29190 0.07500
C 	C 	0.80360 0.24900 0.11800 0.04000
H 	H 	0.82700 0.26500 0.18870 0.04100
H 	H 	0.82550 0.22830 0.11990 0.30800
C 	C 	0.70730 0.23990 0.91780 0.25600
H 	H 	0.80360 0.24280 0.82960 0.07500
H 	H 	0.68170 0.22110 0.89040 -0.00100
Na	Na	0.79512 0.67859 0.25540 0.57700
N 	N 	0.85684 0.70797 0.02060 -0.17200
N 	N 	0.79348 0.80922 0.06500 -0.17700
N 	N 	0.94286 0.87192 0.94480 -0.17900
N 	N 	0.10810 0.81420 0.91810 -0.17500
N 	N 	0.05484 0.71090 0.95650 -0.11800
C 	C 	0.92176 0.75852 0.98770 -0.00100
C 	C 	0.90026 0.79019 0.99050 0.00100
C 	C 	0.94930 0.81074 0.96780 -0.02700
C 	C 	0.00132 0.79203 0.95350 -0.01700
C 	C 	0.98450 0.75959 0.96510 -0.02100
C 	C 	0.88606 0.73037 0.00520 0.04600
C 	C 	0.84053 0.80039 0.02910 0.04800
C 	C 	0.94601 0.84482 0.95640 0.09800
C 	C 	0.06067 0.80426 0.93260 0.09200
C 	C 	0.02328 0.73260 0.95960 0.09300
O 	O 	0.76910 0.73150 0.39370 -0.36200
C 	C 	0.79680 0.74980 0.54800 -0.00500
H 	H 	0.81100 0.77080 0.50190 -0.05200
H 	H 	0.83160 0.73790 0.59870 -0.17400
C 	C 	0.75300 0.75440 0.69140 -0.09600
H 	H 	0.75730 0.77600 0.74600 0.03300
H 	H 	0.75900 0.73850 0.79190 0.06000
C 	C 	0.80360 0.74900 0.61800 0.04100
H 	H 	0.82700 0.76500 0.68870 0.03900
H 	H 	0.82550 0.72830 0.61990 0.18700
C 	C 	0.70730 0.73990 0.41780 0.24900
H 	H 	0.80360 0.74280 0.32960 0.07300
H 	H 	0.68170 0.72110 0.39040 -0.02600
Na	Na	0.20488 0.32141 0.25540 0.57700
N 	N 	0.14316 0.29203 0.02060 -0.17200
N 	N 	0.20652 0.19078 0.06500 -0.17700
N 	N 	0.05714 0.12808 0.94480 -0.17900
N 	N 	0.89190 0.18580 0.91810 -0.17500
N 	N 	0.94516 0.28910 0.95650 -0.11800
C 	C 	0.07824 0.24148 0.98770 -0.00100
C 	C 	0.09974 0.20981 0.99050 0.00100
C 	C 	0.05070 0.18926 0.96780 -0.02700
C 	C 	0.99868 0.20797 0.95350 -0.01700
C 	C 	0.01550 0.24041 0.96510 -0.02100
C 	C 	0.11394 0.26963 0.00520 0.04600
C 	C 	0.15947 0.19961 0.02910 0.04800
C 	C 	0.05399 0.15518 0.95640 0.09800
C 	C 	0.93933 0.19574 0.93260 0.09200
C 	C 	0.97672 0.26740 0.95960 0.09300
O 	O 	0.23090 0.26850 0.39370 -0.36200
C 	C 	0.20320 0.25020 0.54800 -0.00500
H 	H 	0.18900 0.22920 0.50190 -0.05200
H 	H 	0.16840 0.26210 0.59870 -0.17400
C 	C 	0.24700 0.24560 0.69140 -0.09600
H 	H 	0.24270 0.22400 0.74600 0.03300
H 	H 	0.24100 0.26150 0.79190 0.06000
C 	C 	0.19640 0.25100 0.61800 0.04100
H 	H 	0.17300 0.23500 0.68870 0.03900
H 	H 	0.17450 0.27170 0.61990 0.18700
C 	C 	0.29270 0.26010 0.41780 0.24900
H 	H 	0.19640 0.25720 0.32960 0.07300
H 	H 	0.31830 0.27890 0.39040 -0.02600
Na	Na	0.20488 0.82141 0.75540 0.57800
N 	N 	0.14316 0.79203 0.52060 -0.17600
N 	N 	0.20652 0.69078 0.56500 -0.18000
N 	N 	0.05714 0.62808 0.44480 -0.18500
N 	N 	0.89190 0.68580 0.41810 -0.17700
N 	N 	0.94516 0.78910 0.45650 -0.12500
C 	C 	0.07824 0.74148 0.48770 -0.02500
C 	C 	0.09974 0.70981 0.49050 -0.02400
C 	C 	0.05070 0.68926 0.46780 -0.02200
C 	C 	0.99868 0.70797 0.45350 -0.02500
C 	C 	0.01550 0.74041 0.46510 -0.01800
C 	C 	0.11394 0.76963 0.50520 0.07400
C 	C 	0.15947 0.69961 0.52910 0.07800
C 	C 	0.05399 0.65518 0.45640 0.08600
C 	C 	0.93933 0.69574 0.43260 0.08800
C 	C 	0.97672 0.76740 0.45960 0.07600
O 	O 	0.23090 0.76850 0.89370 -0.37500
C 	C 	0.20320 0.75020 0.04800 0.08000
H 	H 	0.18900 0.72920 0.00190 -0.10200
H 	H 	0.16840 0.76210 0.09870 -0.33200
C 	C 	0.24700 0.74560 0.19140 -0.13800
H 	H 	0.24270 0.72400 0.24600 0.02600
H 	H 	0.24100 0.76150 0.29190 0.07500
C 	C 	0.19640 0.75100 0.11800 0.04000
H 	H 	0.17300 0.73500 0.18870 0.04100
H 	H 	0.17450 0.77170 0.11990 0.30800
C 	C 	0.29270 0.76010 0.91780 0.25600
H 	H 	0.19640 0.75720 0.82960 0.07500
H 	H 	0.31830 0.77890 0.89040 -0.00100
Na	Na	0.70488 0.32141 0.75540 0.57800
N 	N 	0.64316 0.29203 0.52060 -0.17600
N 	N 	0.70652 0.19078 0.56500 -0.18000
N 	N 	0.55714 0.12808 0.44480 -0.18500
N 	N 	0.39190 0.18580 0.41810 -0.17700
N 	N 	0.44516 0.28910 0.45650 -0.12500
C 	C 	0.57824 0.24148 0.48770 -0.02500
C 	C 	0.59974 0.20981 0.49050 -0.02400
C 	C 	0.55070 0.18926 0.46780 -0.02200
C 	C 	0.49868 0.20797 0.45350 -0.02500
C 	C 	0.51550 0.24041 0.46510 -0.01800
C 	C 	0.61394 0.26963 0.50520 0.07400
C 	C 	0.65947 0.19961 0.52910 0.07800
C 	C 	0.55399 0.15518 0.45640 0.08600
C 	C 	0.43933 0.19574 0.43260 0.08800
C 	C 	0.47672 0.26740 0.45960 0.07600
O 	O 	0.73090 0.26850 0.89370 -0.37500
C 	C 	0.70320 0.25020 0.04800 0.08000
H 	H 	0.68900 0.22920 0.00190 -0.10200
H 	H 	0.66840 0.26210 0.09870 -0.33300
C 	C 	0.74700 0.24560 0.19140 -0.13800
H 	H 	0.74270 0.22400 0.24600 0.02600
H 	H 	0.74100 0.26150 0.29190 0.07500
C 	C 	0.69640 0.25100 0.11800 0.04000
H 	H 	0.67300 0.23500 0.18870 0.04100
H 	H 	0.67450 0.27170 0.11990 0.30800
C 	C 	0.79270 0.26010 0.91780 0.25600
H 	H 	0.69640 0.25720 0.82960 0.07500
H 	H 	0.81830 0.27890 0.89040 -0.00100
Na	Na	0.70488 0.82141 0.25540 0.57700
N 	N 	0.64316 0.79203 0.02060 -0.17200
N 	N 	0.70652 0.69078 0.06500 -0.17600
N 	N 	0.55714 0.62808 0.94480 -0.17900
N 	N 	0.39190 0.68580 0.91810 -0.17500
N 	N 	0.44516 0.78910 0.95650 -0.11800
C 	C 	0.57824 0.74148 0.98770 -0.00100
C 	C 	0.59974 0.70981 0.99050 0.00100
C 	C 	0.55070 0.68926 0.96780 -0.02700
C 	C 	0.49868 0.70797 0.95350 -0.01700
C 	C 	0.51550 0.74041 0.96510 -0.02100
C 	C 	0.61394 0.76963 0.00520 0.04500
C 	C 	0.65947 0.69961 0.02910 0.04800
C 	C 	0.55399 0.65518 0.95640 0.09800
C 	C 	0.43933 0.69574 0.93260 0.09200
C 	C 	0.47672 0.76740 0.95960 0.09300
O 	O 	0.73090 0.76850 0.39370 -0.36200
C 	C 	0.70320 0.75020 0.54800 -0.00500
H 	H 	0.68900 0.72920 0.50190 -0.05200
H 	H 	0.66840 0.76210 0.59870 -0.17400
C 	C 	0.74700 0.74560 0.69140 -0.09600
H 	H 	0.74270 0.72400 0.74600 0.03300
H 	H 	0.74100 0.76150 0.79190 0.06000
C 	C 	0.69640 0.75100 0.61800 0.04100
H 	H 	0.67300 0.73500 0.68870 0.03900
H 	H 	0.67450 0.77170 0.61990 0.18700
C 	C 	0.79270 0.76010 0.41780 0.24800
H 	H 	0.69640 0.75720 0.32960 0.07300
H 	H 	0.81830 0.77890 0.39040 -0.02600
