data_crystal

_cell_length_a 15.28200
_cell_length_b 15.43600
_cell_length_c 24.60980
_cell_angle_alpha 106.57900
_cell_angle_beta  108.08900
_cell_angle_gamma 90.00000

_symmetry_space_group_name_	'P 1'
_symmetry_space_group_name_H-M	'P 1'

loop_
_symmetry_equiv_pos_as_xyz
  x,y,z

loop_
_atom_site_label
_atom_site_type_symbol
_atom_site_fract_x
_atom_site_fract_y
_atom_site_fract_z
_atom_site_charge
Zn	Zn	0.64674 0.92791 0.80120 1.21300
Zn	Zn	0.07857 0.36719 0.66864 1.21700
Zn	Zn	0.15446 0.42791 0.80120 1.21300
Zn	Zn	0.59007 0.86719 0.66864 1.21700
H 	H 	0.33250 0.65060 0.81400 0.05300
H 	H 	0.43770 0.75860 0.81280 0.05400
H 	H 	0.35370 0.66800 0.63140 0.05600
H 	H 	0.24980 0.55890 0.63200 0.05900
H 	H 	0.75060 0.64930 0.65640 0.05400
H 	H 	0.85350 0.53890 0.65200 0.06000
H 	H 	0.93680 0.60160 0.83380 0.06000
H 	H 	0.83090 0.71020 0.83680 0.05500
H 	H 	0.76170 0.89230 0.91500 -0.00700
H 	H 	0.79630 0.95040 0.01760 0.11600
H 	H 	0.64480 0.15900 0.99080 0.11300
H 	H 	0.61140 0.09120 0.88760 -0.00300
H 	H 	0.64170 0.99530 0.18160 0.05700
H 	H 	0.68740 0.04610 0.28680 0.06000
H 	H 	0.95850 0.37010 0.28900 0.06000
H 	H 	0.90740 0.32260 0.18340 0.06100
H 	H 	0.96620 0.44790 0.57700 0.00400
H 	H 	0.88770 0.40930 0.47520 0.11700
H 	H 	0.95870 0.15350 0.46080 0.11900
H 	H 	0.03710 0.19970 0.56320 -0.01000
H 	H 	0.48150 0.15060 0.81400 0.05400
H 	H 	0.37510 0.25860 0.81280 0.05500
H 	H 	0.27770 0.16800 0.63140 0.05700
H 	H 	0.38220 0.05890 0.63200 0.06000
H 	H 	0.90580 0.14930 0.65640 0.05400
H 	H 	0.79850 0.03890 0.65200 0.06100
H 	H 	0.89700 0.10160 0.83380 0.06000
H 	H 	0.00590 0.21020 0.83680 0.05500
H 	H 	0.15330 0.39230 0.91500 -0.00600
H 	H 	0.22130 0.45040 0.01760 0.11600
H 	H 	0.34600 0.65900 0.99080 0.11300
H 	H 	0.27620 0.59120 0.88760 -0.00300
H 	H 	0.53990 0.49530 0.18160 0.05600
H 	H 	0.59940 0.54610 0.28680 0.06000
H 	H 	0.33050 0.87010 0.28900 0.06000
H 	H 	0.27600 0.82260 0.18340 0.06100
H 	H 	0.61080 0.94790 0.57700 0.00400
H 	H 	0.58750 0.90930 0.47520 0.11700
H 	H 	0.50210 0.65350 0.46080 0.11900
H 	H 	0.52610 0.69970 0.56320 -0.01000
C 	C 	0.21463 0.52370 0.72446 0.36600
C 	C 	0.28060 0.59390 0.72300 -0.07200
C 	C 	0.33696 0.65380 0.77692 -0.01800
C 	C 	0.39958 0.71780 0.77616 -0.01200
C 	C 	0.40738 0.72320 0.72216 -0.07500
C 	C 	0.34996 0.66390 0.66852 -0.00900
C 	C 	0.28791 0.59960 0.66882 -0.01500
C 	C 	0.47868 0.79020 0.72296 0.37600
C 	C 	0.72050 0.76650 0.74780 0.37000
C 	C 	0.78228 0.69150 0.74656 -0.07600
C 	C 	0.78897 0.63980 0.69234 -0.00700
C 	C 	0.85019 0.57460 0.68958 -0.02000
C 	C 	0.90827 0.56110 0.74314 -0.06800
C 	C 	0.89953 0.61160 0.79766 -0.01900
C 	C 	0.83679 0.67630 0.79958 -0.00900
C 	C 	0.98253 0.49680 0.74106 0.37000
C 	C 	0.73626 0.94620 0.93052 0.12300
C 	C 	0.75796 0.98050 0.99172 -0.19800
C 	C 	0.72266 0.05990 0.01452 0.20900
C 	C 	0.66829 0.10330 0.97598 -0.18400
C 	C 	0.64917 0.06230 0.91454 0.11600
C 	C 	0.70060 0.05060 0.10640 0.21100
C 	C 	0.72468 0.08760 0.17236 -0.05600
C 	C 	0.68710 0.04560 0.20320 -0.02100
C 	C 	0.71439 0.07560 0.26598 -0.02300
C 	C 	0.78059 0.14850 0.29738 -0.05400
C 	C 	0.81216 0.17750 0.36332 0.21100
C 	C 	0.91962 0.30070 0.36424 0.21600
C 	C 	0.88452 0.27110 0.29784 -0.05300
C 	C 	0.91586 0.31760 0.26752 -0.02100
C 	C 	0.88573 0.28870 0.20406 -0.02200
C 	C 	0.82584 0.21250 0.17248 -0.05600
C 	C 	0.80111 0.17870 0.10642 0.21800
C 	C 	0.78914 0.16400 0.20348 0.03000
C 	C 	0.81776 0.19510 0.26672 0.03100
C 	C 	0.96517 0.38740 0.55294 0.11900
C 	C 	0.91891 0.36540 0.49242 -0.19300
C 	C 	0.91896 0.27740 0.45692 0.21000
C 	C 	0.96077 0.21490 0.48374 -0.20000
C 	C 	0.00631 0.24280 0.54502 0.12100
C 	C 	0.50983 0.02370 0.72446 0.36600
C 	C 	0.44240 0.09390 0.72300 -0.07200
C 	C 	0.43996 0.15380 0.77692 -0.01800
C 	C 	0.37658 0.21780 0.77616 -0.01200
C 	C 	0.31478 0.22320 0.72216 -0.07500
C 	C 	0.31856 0.16390 0.66852 -0.00900
C 	C 	0.38091 0.09960 0.66882 -0.01500
C 	C 	0.24428 0.29020 0.72296 0.37600
C 	C 	0.02730 0.26650 0.74780 0.37000
C 	C 	0.96428 0.19150 0.74656 -0.07600
C 	C 	0.90337 0.13980 0.69234 -0.00700
C 	C 	0.83939 0.07460 0.68958 -0.02100
C 	C 	0.83487 0.06110 0.74314 -0.06700
C 	C 	0.89813 0.11160 0.79766 -0.02000
C 	C 	0.96279 0.17630 0.79958 -0.00700
C 	C 	0.75853 0.99680 0.74106 0.36900
C 	C 	0.19426 0.44620 0.93052 0.12300
C 	C 	0.23376 0.48050 0.99172 -0.19800
C 	C 	0.29186 0.55990 0.01452 0.20900
C 	C 	0.30769 0.60330 0.97598 -0.18400
C 	C 	0.26537 0.56230 0.91454 0.11500
C 	C 	0.40580 0.55060 0.10640 0.21200
C 	C 	0.44768 0.58760 0.17236 -0.05600
C 	C 	0.51610 0.54560 0.20320 -0.02100
C 	C 	0.55159 0.57560 0.26598 -0.02400
C 	C 	0.51679 0.64850 0.29738 -0.05300
C 	C 	0.55116 0.67750 0.36332 0.21100
C 	C 	0.44462 0.80070 0.36424 0.21600
C 	C 	0.41332 0.77110 0.29784 -0.05300
C 	C 	0.35166 0.81760 0.26752 -0.02100
C 	C 	0.31833 0.78870 0.20406 -0.02200
C 	C 	0.34664 0.71250 0.17248 -0.05600
C 	C 	0.30531 0.67870 0.10642 0.21800
C 	C 	0.41434 0.66400 0.20348 0.03000
C 	C 	0.44896 0.69510 0.26672 0.03100
C 	C 	0.58777 0.88740 0.55294 0.11900
C 	C 	0.57351 0.86540 0.49242 -0.19300
C 	C 	0.53796 0.77740 0.45692 0.21000
C 	C 	0.52297 0.71490 0.48374 -0.20100
C 	C 	0.53871 0.74280 0.54502 0.12200
N 	N 	0.68145 0.98430 0.89170 -0.26300
N 	N 	0.00887 0.32790 0.57974 -0.26300
N 	N 	0.74199 0.09790 0.07818 -0.19200
N 	N 	0.87903 0.25270 0.39286 -0.19100
N 	N 	0.21025 0.48430 0.89170 -0.26200
N 	N 	0.57087 0.82790 0.57974 -0.26300
N 	N 	0.33619 0.59790 0.07818 -0.19200
N 	N 	0.51383 0.75270 0.39286 -0.19200
O 	O 	0.21384 0.52070 0.77528 -0.46000
O 	O 	0.16343 0.47260 0.67466 -0.44200
O 	O 	0.52969 0.84010 0.77298 -0.46000
O 	O 	0.48540 0.79020 0.67300 -0.43800
O 	O 	0.72089 0.81710 0.79898 -0.43300
O 	O 	0.67495 0.77730 0.69850 -0.46500
O 	O 	0.03680 0.49370 0.79040 -0.44900
O 	O 	0.98555 0.45460 0.68990 -0.45200
O 	O 	0.64726 0.98300 0.07652 -0.21700
O 	O 	0.83158 0.21490 0.07816 -0.22000
O 	O 	0.78401 0.13870 0.39242 -0.21900
O 	O 	0.97931 0.36250 0.39282 -0.22400
O 	O 	0.56144 0.02070 0.77528 -0.46000
O 	O 	0.51123 0.97260 0.67466 -0.44200
O 	O 	0.24329 0.34010 0.77298 -0.46000
O 	O 	0.18760 0.29020 0.67300 -0.43800
O 	O 	0.07809 0.31710 0.79898 -0.43300
O 	O 	0.02355 0.27730 0.69850 -0.46500
O 	O 	0.75360 0.99370 0.79040 -0.44900
O 	O 	0.70435 0.95460 0.68990 -0.45200
O 	O 	0.42926 0.48300 0.07652 -0.21800
O 	O 	0.24658 0.71490 0.07816 -0.22000
O 	O 	0.60841 0.63870 0.39242 -0.21900
O 	O 	0.41351 0.86250 0.39282 -0.22400
Zn	Zn	0.84554 0.57209 0.19880 1.21400
Zn	Zn	0.40993 0.13281 0.33136 1.21800
Zn	Zn	0.35326 0.07209 0.19880 1.21400
Zn	Zn	0.92143 0.63281 0.33136 1.21800
H 	H 	0.51850 0.84940 0.18600 0.05400
H 	H 	0.62490 0.74140 0.18720 0.05500
H 	H 	0.72230 0.83200 0.36860 0.05700
H 	H 	0.61780 0.94110 0.36800 0.06000
H 	H 	0.09420 0.85070 0.34360 0.05400
H 	H 	0.20150 0.96110 0.34800 0.06100
H 	H 	0.10300 0.89840 0.16620 0.06000
H 	H 	0.99410 0.78980 0.16320 0.05500
H 	H 	0.84670 0.60770 0.08500 -0.00600
H 	H 	0.77870 0.54960 0.98240 0.11600
H 	H 	0.65400 0.34100 0.00920 0.11300
H 	H 	0.72380 0.40880 0.11240 -0.00300
H 	H 	0.46010 0.50470 0.81840 0.05600
H 	H 	0.40060 0.45390 0.71320 0.06000
H 	H 	0.66950 0.12990 0.71100 0.06000
H 	H 	0.72400 0.17740 0.81660 0.06100
H 	H 	0.38920 0.05210 0.42300 0.00400
H 	H 	0.41250 0.09070 0.52480 0.11700
H 	H 	0.49790 0.34650 0.53920 0.11900
H 	H 	0.47390 0.30030 0.43680 -0.01000
H 	H 	0.66750 0.34940 0.18600 0.05400
H 	H 	0.56230 0.24140 0.18720 0.05500
H 	H 	0.64630 0.33200 0.36860 0.05700
H 	H 	0.75020 0.44110 0.36800 0.06000
H 	H 	0.24940 0.35070 0.34360 0.05400
H 	H 	0.14650 0.46110 0.34800 0.06000
H 	H 	0.06320 0.39840 0.16620 0.06000
H 	H 	0.16910 0.28980 0.16320 0.05500
H 	H 	0.23830 0.10770 0.08500 -0.00700
H 	H 	0.20370 0.04960 0.98240 0.11600
H 	H 	0.35520 0.84100 0.00920 0.11300
H 	H 	0.38860 0.90880 0.11240 -0.00300
H 	H 	0.35830 0.00470 0.81840 0.05700
H 	H 	0.31260 0.95390 0.71320 0.06000
H 	H 	0.04150 0.62990 0.71100 0.06000
H 	H 	0.09260 0.67740 0.81660 0.06100
H 	H 	0.03380 0.55210 0.42300 0.00400
H 	H 	0.11230 0.59070 0.52480 0.11700
H 	H 	0.04130 0.84650 0.53920 0.11900
H 	H 	0.96290 0.80030 0.43680 -0.01000
C 	C 	0.49017 0.97630 0.27554 0.36600
C 	C 	0.55760 0.90610 0.27700 -0.07200
C 	C 	0.56004 0.84620 0.22308 -0.01800
C 	C 	0.62342 0.78220 0.22384 -0.01200
C 	C 	0.68522 0.77680 0.27784 -0.07500
C 	C 	0.68144 0.83610 0.33148 -0.00900
C 	C 	0.61909 0.90040 0.33118 -0.01500
C 	C 	0.75572 0.70980 0.27704 0.37600
C 	C 	0.97270 0.73350 0.25220 0.37000
C 	C 	0.03572 0.80850 0.25344 -0.07600
C 	C 	0.09663 0.86020 0.30766 -0.00700
C 	C 	0.16061 0.92540 0.31042 -0.02100
C 	C 	0.16513 0.93890 0.25686 -0.06700
C 	C 	0.10187 0.88840 0.20234 -0.02000
C 	C 	0.03721 0.82370 0.20042 -0.00700
C 	C 	0.24147 0.00320 0.25894 0.36900
C 	C 	0.80574 0.55380 0.06948 0.12300
C 	C 	0.76624 0.51950 0.00828 -0.19800
C 	C 	0.70814 0.44010 0.98548 0.20900
C 	C 	0.69231 0.39670 0.02402 -0.18400
C 	C 	0.73463 0.43770 0.08546 0.11500
C 	C 	0.59420 0.44940 0.89360 0.21200
C 	C 	0.55232 0.41240 0.82764 -0.05600
C 	C 	0.48390 0.45440 0.79680 -0.02100
C 	C 	0.44841 0.42440 0.73402 -0.02400
C 	C 	0.48321 0.35150 0.70262 -0.05300
C 	C 	0.44884 0.32250 0.63668 0.21100
C 	C 	0.55538 0.19930 0.63576 0.21600
C 	C 	0.58668 0.22890 0.70216 -0.05300
C 	C 	0.64834 0.18240 0.73248 -0.02100
C 	C 	0.68167 0.21130 0.79594 -0.02200
C 	C 	0.65336 0.28750 0.82752 -0.05600
C 	C 	0.69469 0.32130 0.89358 0.21800
C 	C 	0.58566 0.33600 0.79652 0.03000
C 	C 	0.55104 0.30490 0.73328 0.03100
C 	C 	0.41223 0.11260 0.44706 0.11900
C 	C 	0.42649 0.13460 0.50758 -0.19300
C 	C 	0.46204 0.22260 0.54308 0.21000
C 	C 	0.47703 0.28510 0.51626 -0.20100
C 	C 	0.46129 0.25720 0.45498 0.12200
C 	C 	0.78537 0.47630 0.27554 0.36600
C 	C 	0.71940 0.40610 0.27700 -0.07200
C 	C 	0.66304 0.34620 0.22308 -0.01800
C 	C 	0.60042 0.28220 0.22384 -0.01200
C 	C 	0.59262 0.27680 0.27784 -0.07500
C 	C 	0.65004 0.33610 0.33148 -0.00900
C 	C 	0.71209 0.40040 0.33118 -0.01500
C 	C 	0.52132 0.20980 0.27704 0.37600
C 	C 	0.27950 0.23350 0.25220 0.37000
C 	C 	0.21772 0.30850 0.25344 -0.07600
C 	C 	0.21103 0.36020 0.30766 -0.00700
C 	C 	0.14981 0.42540 0.31042 -0.02000
C 	C 	0.09173 0.43890 0.25686 -0.06800
C 	C 	0.10047 0.38840 0.20234 -0.01900
C 	C 	0.16321 0.32370 0.20042 -0.00900
C 	C 	0.01747 0.50320 0.25894 0.37000
C 	C 	0.26374 0.05380 0.06948 0.12300
C 	C 	0.24204 0.01950 0.00828 -0.19800
C 	C 	0.27734 0.94010 0.98548 0.20900
C 	C 	0.33171 0.89670 0.02402 -0.18400
C 	C 	0.35083 0.93770 0.08546 0.11600
C 	C 	0.29940 0.94940 0.89360 0.21100
C 	C 	0.27532 0.91240 0.82764 -0.05600
C 	C 	0.31290 0.95440 0.79680 -0.02100
C 	C 	0.28561 0.92440 0.73402 -0.02300
C 	C 	0.21941 0.85150 0.70262 -0.05400
C 	C 	0.18784 0.82250 0.63668 0.21100
C 	C 	0.08038 0.69930 0.63576 0.21600
C 	C 	0.11548 0.72890 0.70216 -0.05300
C 	C 	0.08414 0.68240 0.73248 -0.02100
C 	C 	0.11427 0.71130 0.79594 -0.02200
C 	C 	0.17416 0.78750 0.82752 -0.05600
C 	C 	0.19889 0.82130 0.89358 0.21800
C 	C 	0.21086 0.83600 0.79652 0.03000
C 	C 	0.18224 0.80490 0.73328 0.03100
C 	C 	0.03483 0.61260 0.44706 0.11900
C 	C 	0.08109 0.63460 0.50758 -0.19300
C 	C 	0.08104 0.72260 0.54308 0.21000
C 	C 	0.03923 0.78510 0.51626 -0.20000
C 	C 	0.99369 0.75720 0.45498 0.12100
N 	N 	0.78975 0.51570 0.10830 -0.26200
N 	N 	0.42913 0.17210 0.42026 -0.26300
N 	N 	0.66381 0.40210 0.92182 -0.19200
N 	N 	0.48617 0.24730 0.60714 -0.19200
N 	N 	0.31855 0.01570 0.10830 -0.26300
N 	N 	0.99113 0.67210 0.42026 -0.26300
N 	N 	0.25801 0.90210 0.92182 -0.19200
N 	N 	0.12097 0.74730 0.60714 -0.19100
O 	O 	0.43856 0.97930 0.22472 -0.46000
O 	O 	0.48877 0.02740 0.32534 -0.44200
O 	O 	0.75671 0.65990 0.22702 -0.46000
O 	O 	0.81240 0.70980 0.32700 -0.43800
O 	O 	0.92191 0.68290 0.20102 -0.43300
O 	O 	0.97645 0.72270 0.30150 -0.46500
O 	O 	0.24640 0.00630 0.20960 -0.44900
O 	O 	0.29565 0.04540 0.31010 -0.45200
O 	O 	0.57074 0.51700 0.92348 -0.21800
O 	O 	0.75342 0.28510 0.92184 -0.22000
O 	O 	0.39159 0.36130 0.60758 -0.21900
O 	O 	0.58649 0.13750 0.60718 -0.22400
O 	O 	0.78616 0.47930 0.22472 -0.46000
O 	O 	0.83657 0.52740 0.32534 -0.44200
O 	O 	0.47031 0.15990 0.22702 -0.46000
O 	O 	0.51460 0.20980 0.32700 -0.43800
O 	O 	0.27911 0.18290 0.20102 -0.43300
O 	O 	0.32505 0.22270 0.30150 -0.46500
O 	O 	0.96320 0.50630 0.20960 -0.44900
O 	O 	0.01445 0.54540 0.31010 -0.45200
O 	O 	0.35274 0.01700 0.92348 -0.21700
O 	O 	0.16842 0.78510 0.92184 -0.22000
O 	O 	0.21599 0.86130 0.60758 -0.21900
O 	O 	0.02069 0.63750 0.60718 -0.22400
