data_crystal

_cell_length_a 10.91160
_cell_length_b 10.96350
_cell_length_c 22.34520
_cell_angle_alpha 90.00000
_cell_angle_beta  90.00000
_cell_angle_gamma 90.00000

_symmetry_space_group_name_	'P 1'
_symmetry_space_group_name_H-M	'P 1'

loop_
_symmetry_equiv_pos_as_xyz
  x,y,z

loop_
_atom_site_label
_atom_site_type_symbol
_atom_site_fract_x
_atom_site_fract_y
_atom_site_fract_z
_atom_site_charge
C 	C 	0.82510 0.81160 0.80410 -0.01400
H 	H 	0.82370 0.85370 0.84080 0.05500
C 	C 	0.75450 0.30000 0.93700 0.04300
C 	C 	0.75790 0.30290 0.00020 -0.10400
C 	C 	0.93660 0.18990 0.93380 0.04400
C 	C 	0.94570 0.18740 0.99590 -0.10900
C 	C 	0.86250 0.13690 0.12160 0.22000
C 	C 	0.85880 0.13920 0.18749 -0.06000
C 	C 	0.86360 0.03090 0.21820 -0.02300
H 	H 	0.86680 0.95670 0.19720 0.06100
O 	O 	0.83670 0.06610 0.80014 -0.45200
O 	O 	0.86320 0.04350 0.09306 -0.23500
H 	H 	0.68540 0.33380 0.91660 0.01000
H 	H 	0.69410 0.34010 0.02250 0.07900
H 	H 	0.99630 0.14630 0.91180 0.02600
H 	H 	0.01040 0.14490 0.01540 0.08600
C 	C 	0.82510 0.68840 0.69590 -0.01400
H 	H 	0.82370 0.64630 0.65920 0.05400
C 	C 	0.75450 0.20000 0.56300 0.04300
C 	C 	0.75790 0.19710 0.49980 -0.10600
C 	C 	0.93660 0.31010 0.56620 0.04400
C 	C 	0.94570 0.31260 0.50410 -0.10700
C 	C 	0.86250 0.36310 0.37840 0.22000
C 	C 	0.85880 0.36080 0.31251 -0.06000
C 	C 	0.86360 0.46910 0.28180 -0.02300
H 	H 	0.86680 0.54330 0.30280 0.06100
O 	O 	0.83670 0.43390 0.69986 -0.45200
O 	O 	0.86320 0.45650 0.40694 -0.23600
H 	H 	0.68540 0.16620 0.58340 0.01000
H 	H 	0.69410 0.15990 0.47750 0.07900
H 	H 	0.99630 0.35370 0.58820 0.02700
H 	H 	0.01040 0.35510 0.48460 0.08600
C 	C 	0.82510 0.81160 0.69590 -0.01500
H 	H 	0.82370 0.85370 0.65920 0.05400
C 	C 	0.75450 0.30000 0.56300 0.04300
C 	C 	0.75790 0.30290 0.49980 -0.10500
C 	C 	0.93660 0.18990 0.56620 0.04400
C 	C 	0.94570 0.18740 0.50410 -0.10700
C 	C 	0.86250 0.13690 0.37840 0.22000
C 	C 	0.85880 0.13920 0.31251 -0.06000
C 	C 	0.86360 0.03090 0.28180 -0.02300
H 	H 	0.86680 0.95670 0.30280 0.06100
O 	O 	0.83670 0.06610 0.69986 -0.45200
O 	O 	0.86320 0.04350 0.40694 -0.23600
H 	H 	0.68540 0.33380 0.58340 0.01000
H 	H 	0.69410 0.34010 0.47750 0.07900
H 	H 	0.99630 0.14630 0.58820 0.02700
H 	H 	0.01040 0.14490 0.48460 0.08600
C 	C 	0.82510 0.68840 0.80410 -0.01400
H 	H 	0.82370 0.64630 0.84080 0.05300
C 	C 	0.75450 0.20000 0.93700 0.04300
C 	C 	0.75790 0.19710 0.00020 -0.10600
C 	C 	0.93660 0.31010 0.93380 0.04500
C 	C 	0.94570 0.31260 0.99590 -0.10900
C 	C 	0.86250 0.36310 0.12160 0.22000
C 	C 	0.85880 0.36080 0.18749 -0.06000
C 	C 	0.86360 0.46910 0.21820 -0.02300
H 	H 	0.86680 0.54330 0.19720 0.06100
O 	O 	0.83670 0.43390 0.80014 -0.45200
O 	O 	0.86320 0.45650 0.09306 -0.23500
H 	H 	0.68540 0.16620 0.91660 0.01000
H 	H 	0.69410 0.15990 0.02250 0.07900
H 	H 	0.99630 0.35370 0.91180 0.02600
H 	H 	0.01040 0.35510 0.01540 0.08600
Zn	Zn	0.83752 0.25000 0.81536 1.21500
C 	C 	0.27630 0.25000 0.80450 -0.03200
H 	H 	0.23400 0.25000 0.84120 0.06200
C 	C 	0.40340 0.25000 0.80340 0.00100
H 	H 	0.44750 0.25000 0.83950 0.04900
C 	C 	0.85370 0.25000 0.02890 0.20700
C 	C 	0.85800 0.25000 0.21780 0.03400
N 	N 	0.84500 0.25000 0.90530 -0.25700
N 	N 	0.85980 0.25000 0.09310 -0.20100
O 	O 	0.02090 0.25000 0.80060 -0.45100
O 	O 	0.65630 0.25000 0.80020 -0.46000
Zn	Zn	0.83752 0.25000 0.68464 1.21500
C 	C 	0.27630 0.25000 0.69550 -0.03200
H 	H 	0.23400 0.25000 0.65880 0.06200
C 	C 	0.40340 0.25000 0.69660 0.00100
H 	H 	0.44750 0.25000 0.66050 0.04900
C 	C 	0.85370 0.25000 0.47110 0.20500
C 	C 	0.85800 0.25000 0.28220 0.03400
N 	N 	0.84500 0.25000 0.59470 -0.25700
N 	N 	0.85980 0.25000 0.40690 -0.20100
O 	O 	0.02090 0.25000 0.69940 -0.45200
O 	O 	0.65630 0.25000 0.69980 -0.46000
C 	C 	0.83460 0.01380 0.75000 0.37400
C 	C 	0.82720 0.87830 0.75000 -0.07400
C 	C 	0.83460 0.48620 0.75000 0.37500
C 	C 	0.82720 0.62170 0.75000 -0.07400
C 	C 	0.07370 0.25000 0.75000 0.34700
C 	C 	0.21170 0.25000 0.75000 -0.06500
C 	C 	0.46540 0.25000 0.75000 -0.08800
C 	C 	0.60150 0.25000 0.75000 0.37300
C 	C 	0.17490 0.18840 0.30410 -0.01500
H 	H 	0.17630 0.14630 0.34080 0.05400
C 	C 	0.24550 0.70000 0.43700 0.04300
C 	C 	0.24210 0.69710 0.50020 -0.10500
C 	C 	0.06340 0.81010 0.43380 0.04400
C 	C 	0.05430 0.81260 0.49590 -0.10700
C 	C 	0.13750 0.86310 0.62160 0.22000
C 	C 	0.14120 0.86080 0.68749 -0.06000
C 	C 	0.13640 0.96910 0.71820 -0.02300
H 	H 	0.13320 0.04330 0.69720 0.06100
O 	O 	0.16330 0.93390 0.30014 -0.45200
O 	O 	0.13680 0.95650 0.59306 -0.23600
H 	H 	0.31460 0.66620 0.41660 0.01000
H 	H 	0.30590 0.65990 0.52250 0.07900
H 	H 	0.00370 0.85370 0.41180 0.02700
H 	H 	0.98960 0.85510 0.51540 0.08600
C 	C 	0.17490 0.31160 0.19590 -0.01400
H 	H 	0.17630 0.35370 0.15920 0.05300
C 	C 	0.24550 0.80000 0.06300 0.04300
C 	C 	0.24210 0.80290 0.99980 -0.10600
C 	C 	0.06340 0.68990 0.06620 0.04500
C 	C 	0.05430 0.68740 0.00410 -0.10900
C 	C 	0.13750 0.63690 0.87840 0.22000
C 	C 	0.14120 0.63920 0.81251 -0.06000
C 	C 	0.13640 0.53090 0.78180 -0.02300
H 	H 	0.13320 0.45670 0.80280 0.06100
O 	O 	0.16330 0.56610 0.19986 -0.45200
O 	O 	0.13680 0.54350 0.90694 -0.23500
H 	H 	0.31460 0.83380 0.08340 0.01000
H 	H 	0.30590 0.84010 0.97750 0.07900
H 	H 	0.00370 0.64630 0.08820 0.02600
H 	H 	0.98960 0.64490 0.98460 0.08600
C 	C 	0.17490 0.18840 0.19590 -0.01500
H 	H 	0.17630 0.14630 0.15920 0.05400
C 	C 	0.24550 0.70000 0.06300 0.04200
C 	C 	0.24210 0.69710 0.99980 -0.10500
C 	C 	0.06340 0.81010 0.06620 0.04400
C 	C 	0.05430 0.81260 0.00410 -0.10900
C 	C 	0.13750 0.86310 0.87840 0.22000
C 	C 	0.14120 0.86080 0.81251 -0.06000
C 	C 	0.13640 0.96910 0.78180 -0.02300
H 	H 	0.13320 0.04330 0.80280 0.06100
O 	O 	0.16330 0.93390 0.19986 -0.45200
O 	O 	0.13680 0.95650 0.90694 -0.23500
H 	H 	0.31460 0.66620 0.08340 0.01000
H 	H 	0.30590 0.65990 0.97750 0.07900
H 	H 	0.00370 0.85370 0.08820 0.02600
H 	H 	0.98960 0.85510 0.98460 0.08600
C 	C 	0.17490 0.31160 0.30410 -0.01400
H 	H 	0.17630 0.35370 0.34080 0.05400
C 	C 	0.24550 0.80000 0.43700 0.04300
C 	C 	0.24210 0.80290 0.50020 -0.10600
C 	C 	0.06340 0.68990 0.43380 0.04400
C 	C 	0.05430 0.68740 0.49590 -0.10700
C 	C 	0.13750 0.63690 0.62160 0.22000
C 	C 	0.14120 0.63920 0.68749 -0.06000
C 	C 	0.13640 0.53090 0.71820 -0.02300
H 	H 	0.13320 0.45670 0.69720 0.06100
O 	O 	0.16330 0.56610 0.30014 -0.45200
O 	O 	0.13680 0.54350 0.59306 -0.23600
H 	H 	0.31460 0.83380 0.41660 0.01000
H 	H 	0.30590 0.84010 0.52250 0.07900
H 	H 	0.00370 0.64630 0.41180 0.02700
H 	H 	0.98960 0.64490 0.51540 0.08600
Zn	Zn	0.16248 0.75000 0.31536 1.21500
C 	C 	0.72370 0.75000 0.30450 -0.03200
H 	H 	0.76600 0.75000 0.34120 0.06200
C 	C 	0.59660 0.75000 0.30340 0.00100
H 	H 	0.55250 0.75000 0.33950 0.04900
C 	C 	0.14630 0.75000 0.52890 0.20500
C 	C 	0.14200 0.75000 0.71780 0.03400
N 	N 	0.15500 0.75000 0.40530 -0.25700
N 	N 	0.14020 0.75000 0.59310 -0.20100
O 	O 	0.97910 0.75000 0.30060 -0.45200
O 	O 	0.34370 0.75000 0.30020 -0.46000
Zn	Zn	0.16248 0.75000 0.18464 1.21500
C 	C 	0.72370 0.75000 0.19550 -0.03200
H 	H 	0.76600 0.75000 0.15880 0.06200
C 	C 	0.59660 0.75000 0.19660 0.00100
H 	H 	0.55250 0.75000 0.16050 0.04900
C 	C 	0.14630 0.75000 0.97110 0.20700
C 	C 	0.14200 0.75000 0.78220 0.03400
N 	N 	0.15500 0.75000 0.09470 -0.25700
N 	N 	0.14020 0.75000 0.90690 -0.20100
O 	O 	0.97910 0.75000 0.19940 -0.45100
O 	O 	0.34370 0.75000 0.19980 -0.46000
C 	C 	0.16540 0.98620 0.25000 0.37400
C 	C 	0.17280 0.12170 0.25000 -0.07400
C 	C 	0.16540 0.51380 0.25000 0.37500
C 	C 	0.17280 0.37830 0.25000 -0.07400
C 	C 	0.92630 0.75000 0.25000 0.34700
C 	C 	0.78830 0.75000 0.25000 -0.06500
C 	C 	0.53460 0.75000 0.25000 -0.08800
C 	C 	0.39850 0.75000 0.25000 0.37300
