data_crystal

_cell_length_a 7.23080
_cell_length_b 17.98450
_cell_length_c 17.98450
_cell_angle_alpha 61.76700
_cell_angle_beta  82.29810
_cell_angle_gamma 97.70190

_symmetry_space_group_name_	'P 1'
_symmetry_space_group_name_H-M	'P 1'

loop_
_symmetry_equiv_pos_as_xyz
  x,y,z

loop_
_atom_site_label
_atom_site_type_symbol
_atom_site_fract_x
_atom_site_fract_y
_atom_site_fract_z
_atom_site_charge
Er	Er	0.78323 0.00052 0.66851 1.40300
Er	Er	0.45174 0.66851 0.33097 1.40500
Er	Er	0.78271 0.33097 0.00052 1.40500
Er	Er	0.21677 0.99948 0.33149 1.40400
Er	Er	0.54826 0.33149 0.66903 1.40600
Er	Er	0.21729 0.66903 0.99948 1.40500
C 	C 	0.07610 0.03970 0.49040 0.23700
C 	C 	0.57320 0.13340 0.70740 0.24800
C 	C 	0.74300 0.19530 0.63040 0.25100
C 	C 	0.56650 0.49040 0.46990 0.23600
C 	C 	0.28060 0.70740 0.15920 0.24800
C 	C 	0.37340 0.63040 0.17430 0.25100
C 	C 	0.03640 0.46990 0.03970 0.23900
C 	C 	0.43980 0.15920 0.13340 0.24800
C 	C 	0.54770 0.17430 0.19530 0.25100
C 	C 	0.92390 0.96030 0.50960 0.23700
C 	C 	0.42680 0.86660 0.29260 0.24800
C 	C 	0.25700 0.80470 0.36960 0.25100
C 	C 	0.43350 0.50960 0.53010 0.23600
C 	C 	0.71940 0.29260 0.84080 0.24800
C 	C 	0.62660 0.36960 0.82570 0.25100
C 	C 	0.96360 0.53010 0.96030 0.23900
C 	C 	0.56020 0.84080 0.86660 0.24800
C 	C 	0.45230 0.82570 0.80470 0.25100
O 	O 	0.55577 0.05484 0.73243 -0.36400
O 	O 	0.84570 0.16134 0.60064 -0.35700
O 	O 	0.05010 0.06859 0.54149 -0.36200
O 	O 	0.20943 0.06870 0.42511 -0.34200
O 	O 	0.46876 0.16790 0.73662 -0.35200
O 	O 	0.76060 0.27436 0.60506 -0.36400
O 	O 	0.28820 0.73243 0.21273 -0.36400
O 	O 	0.44634 0.60064 0.23802 -0.35600
O 	O 	0.59159 0.54149 0.38992 -0.36300
O 	O 	0.63454 0.42511 0.50619 -0.34300
O 	O 	0.20538 0.73662 0.09548 -0.35200
O 	O 	0.36566 0.60506 0.12058 -0.36300
O 	O 	0.50093 0.21273 0.05484 -0.36300
O 	O 	0.68436 0.23802 0.16134 -0.35600
O 	O 	0.98151 0.38992 0.06859 -0.36600
O 	O 	0.14073 0.50619 0.06870 -0.34300
O 	O 	0.30086 0.09548 0.16790 -0.35000
O 	O 	0.48624 0.12058 0.27436 -0.36300
O 	O 	0.44423 0.94516 0.26757 -0.36400
O 	O 	0.15430 0.83866 0.39936 -0.35700
O 	O 	0.94990 0.93141 0.45851 -0.36200
O 	O 	0.79057 0.93130 0.57489 -0.34200
O 	O 	0.53124 0.83210 0.26338 -0.35200
O 	O 	0.23940 0.72564 0.39494 -0.36400
O 	O 	0.71180 0.26757 0.78727 -0.36400
O 	O 	0.55366 0.39936 0.76198 -0.35600
O 	O 	0.40841 0.45851 0.61008 -0.36300
O 	O 	0.36546 0.57489 0.49381 -0.34300
O 	O 	0.79462 0.26338 0.90452 -0.35200
O 	O 	0.63434 0.39494 0.87942 -0.36300
O 	O 	0.49907 0.78727 0.94516 -0.36300
O 	O 	0.31564 0.76198 0.83866 -0.35600
O 	O 	0.01849 0.61008 0.93141 -0.36600
O 	O 	0.85927 0.49381 0.93130 -0.34300
O 	O 	0.69914 0.90452 0.83210 -0.35000
O 	O 	0.51376 0.87942 0.72564 -0.36300
