data_crystal

_cell_length_a 15.95400
_cell_length_b 19.22600
_cell_length_c 16.73400
_cell_angle_alpha 90.00000
_cell_angle_beta  96.82800
_cell_angle_gamma 90.00000

_symmetry_space_group_name_	'P 1'
_symmetry_space_group_name_H-M	'P 1'

loop_
_symmetry_equiv_pos_as_xyz
  x,y,z

loop_
_atom_site_label
_atom_site_type_symbol
_atom_site_fract_x
_atom_site_fract_y
_atom_site_fract_z
_atom_site_charge
Zn	Zn	0.53449 0.42732 0.53330 1.17300
Zn	Zn	0.33372 0.43102 0.50184 1.21600
O 	O 	0.48610 0.35740 0.60840 -0.51100
O 	O 	0.34540 0.36610 0.59610 -0.47300
O 	O 	0.48870 0.12420 0.92680 -0.51000
O 	O 	0.34960 0.13490 0.91530 -0.49100
O 	O 	0.21490 0.45200 0.47500 -0.45700
O 	O 	0.22310 0.50010 0.59510 -0.33400
O 	O 	0.42730 0.49431 0.53700 -0.69600
N 	N 	0.57680 0.19760 0.82910 -0.24300
H 	H 	0.57720 0.15800 0.85300 0.14200
N 	N 	0.26060 0.30150 0.70040 -0.26300
H 	H 	0.26210 0.33810 0.67100 0.16600
N 	N 	0.91780 0.46550 0.34720 -0.23900
H 	H 	0.86820 0.44790 0.34690 0.15000
C 	C 	0.72670 0.18520 0.84270 -0.23700
H 	H 	0.71920 0.13810 0.85190 0.10900
C 	C 	0.80740 0.21110 0.84540 0.12800
H 	H 	0.85390 0.18170 0.85460 -0.02100
C 	C 	0.81770 0.28080 0.83410 -0.20200
H 	H 	0.87170 0.29950 0.83680 0.09700
C 	C 	0.74710 0.32420 0.81850 0.11800
H 	H 	0.75530 0.37130 0.80910 -0.02300
C 	C 	0.66540 0.29920 0.81650 -0.23400
H 	H 	0.61920 0.32890 0.80860 0.10700
C 	C 	0.65500 0.22830 0.82650 0.19900
C 	C 	0.49670 0.22270 0.79800 0.11100
C 	C 	0.42190 0.20210 0.82670 -0.10200
C 	C 	0.34530 0.22680 0.79160 -0.09500
H 	H 	0.29630 0.21170 0.81120 0.08300
C 	C 	0.33890 0.27240 0.72950 0.14400
C 	C 	0.41360 0.29390 0.69800 -0.13600
C 	C 	0.49010 0.26840 0.73350 -0.05600
H 	H 	0.53920 0.28250 0.71320 0.05700
C 	C 	0.42150 0.14910 0.89620 0.39800
C 	C 	0.41520 0.34280 0.62910 0.41000
C 	C 	0.17990 0.27810 0.71340 0.27300
C 	C 	0.11660 0.32300 0.72120 -0.32400
H 	H 	0.12710 0.37050 0.72110 0.15100
C 	C 	0.03620 0.29930 0.72940 0.23500
H 	H 	0.99300 0.33090 0.73410 -0.05700
C 	C 	0.02010 0.23010 0.73070 -0.30500
H 	H 	0.96640 0.21450 0.73800 0.13500
C 	C 	0.08220 0.18370 0.72150 0.23100
H 	H 	0.07100 0.13620 0.72130 -0.04700
C 	C 	0.16070 0.20710 0.71260 -0.30800
H 	H 	0.20300 0.17500 0.70570 0.13900
C 	C 	0.18020 0.48110 0.53360 0.32900
C 	C 	0.08870 0.48980 0.51890 -0.10500
C 	C 	0.04530 0.47460 0.44450 -0.07700
H 	H 	0.07680 0.45680 0.40590 0.07400
C 	C 	0.95910 0.48340 0.42160 0.12000
C 	C 	0.94750 0.47280 0.27160 0.17400
C 	C 	0.89560 0.44120 0.20730 -0.17500
H 	H 	0.84740 0.41660 0.21620 0.08900
C 	C 	0.99780 0.49060 0.12210 -0.14100
H 	H 	0.01480 0.49730 0.07140 0.07300
C 	C 	0.92030 0.44860 0.12740 0.05100
H 	H 	0.88980 0.42850 0.08240 0.00900
C 	C 	0.04300 0.51820 0.18280 0.08900
H 	H 	0.09130 0.54330 0.17540 -0.00800
C 	C 	0.01860 0.51020 0.26090 -0.20000
H 	H 	0.05080 0.53020 0.30500 0.10000
Zn	Zn	0.46551 0.92732 0.96670 1.17300
Zn	Zn	0.66628 0.93102 0.99816 1.21500
O 	O 	0.51390 0.85740 0.89160 -0.51200
O 	O 	0.65460 0.86610 0.90390 -0.47500
O 	O 	0.51130 0.62420 0.57320 -0.51300
O 	O 	0.65040 0.63490 0.58470 -0.49400
O 	O 	0.78510 0.95200 0.02500 -0.44700
O 	O 	0.77690 0.00010 0.90490 -0.32600
O 	O 	0.57270 0.99431 0.96300 -0.69900
N 	N 	0.42320 0.69760 0.67090 -0.24300
H 	H 	0.42280 0.65800 0.64700 0.14100
N 	N 	0.73940 0.80150 0.79960 -0.26300
H 	H 	0.73790 0.83810 0.82900 0.16500
N 	N 	0.08220 0.96550 0.15280 -0.24000
H 	H 	0.13180 0.94790 0.15310 0.15100
C 	C 	0.27330 0.68520 0.65730 -0.23700
H 	H 	0.28080 0.63810 0.64810 0.10900
C 	C 	0.19260 0.71110 0.65460 0.12700
H 	H 	0.14610 0.68170 0.64540 -0.02100
C 	C 	0.18230 0.78080 0.66590 -0.20200
H 	H 	0.12830 0.79950 0.66320 0.09600
C 	C 	0.25290 0.82420 0.68150 0.11700
H 	H 	0.24470 0.87130 0.69090 -0.02300
C 	C 	0.33460 0.79920 0.68350 -0.23400
H 	H 	0.38080 0.82890 0.69140 0.10700
C 	C 	0.34500 0.72830 0.67350 0.19800
C 	C 	0.50330 0.72270 0.70200 0.11000
C 	C 	0.57810 0.70210 0.67330 -0.10300
C 	C 	0.65470 0.72680 0.70840 -0.09500
H 	H 	0.70370 0.71170 0.68880 0.08200
C 	C 	0.66110 0.77240 0.77050 0.14400
C 	C 	0.58640 0.79390 0.80200 -0.13600
C 	C 	0.50990 0.76840 0.76650 -0.05600
H 	H 	0.46080 0.78250 0.78680 0.05700
C 	C 	0.57850 0.64910 0.60380 0.39900
C 	C 	0.58480 0.84280 0.87090 0.41000
C 	C 	0.82010 0.77810 0.78660 0.27200
C 	C 	0.88340 0.82300 0.77880 -0.32300
H 	H 	0.87290 0.87050 0.77890 0.14900
C 	C 	0.96380 0.79930 0.77060 0.23100
H 	H 	0.00700 0.83090 0.76590 -0.05500
C 	C 	0.97990 0.73010 0.76930 -0.30900
H 	H 	0.03360 0.71450 0.76200 0.13800
C 	C 	0.91780 0.68370 0.77850 0.23300
H 	H 	0.92900 0.63620 0.77870 -0.04900
C 	C 	0.83930 0.70710 0.78740 -0.30900
H 	H 	0.79700 0.67500 0.79430 0.13900
C 	C 	0.81980 0.98110 0.96640 0.31700
C 	C 	0.91130 0.98980 0.98110 -0.11700
C 	C 	0.95470 0.97460 0.05550 -0.06300
H 	H 	0.92320 0.95680 0.09410 0.07100
C 	C 	0.04090 0.98340 0.07840 0.12200
C 	C 	0.05250 0.97280 0.22840 0.18000
C 	C 	0.10440 0.94120 0.29270 -0.18000
H 	H 	0.15260 0.91660 0.28380 0.09100
C 	C 	0.00220 0.99060 0.37790 -0.15300
H 	H 	0.98520 0.99730 0.42860 0.07900
C 	C 	0.07970 0.94860 0.37260 0.05800
H 	H 	0.11020 0.92850 0.41760 0.00600
C 	C 	0.95700 0.01820 0.31720 0.09900
H 	H 	0.90870 0.04330 0.32460 -0.01200
C 	C 	0.98140 0.01020 0.23910 -0.20900
H 	H 	0.94920 0.03020 0.19500 0.10100
Zn	Zn	0.46551 0.57268 0.46670 1.17400
Zn	Zn	0.66628 0.56898 0.49816 1.21700
O 	O 	0.51390 0.64260 0.39160 -0.51100
O 	O 	0.65460 0.63390 0.40390 -0.47300
O 	O 	0.51130 0.87580 0.07320 -0.51000
O 	O 	0.65040 0.86510 0.08470 -0.49100
O 	O 	0.78510 0.54800 0.52500 -0.45700
O 	O 	0.77690 0.49990 0.40490 -0.33400
O 	O 	0.57270 0.50569 0.46300 -0.69600
N 	N 	0.42320 0.80240 0.17090 -0.24300
H 	H 	0.42280 0.84200 0.14700 0.14200
N 	N 	0.73940 0.69850 0.29960 -0.26300
H 	H 	0.73790 0.66190 0.32900 0.16600
N 	N 	0.08220 0.53450 0.65280 -0.23900
H 	H 	0.13180 0.55210 0.65310 0.15000
C 	C 	0.27330 0.81480 0.15730 -0.23700
H 	H 	0.28080 0.86190 0.14810 0.10900
C 	C 	0.19260 0.78890 0.15460 0.12800
H 	H 	0.14610 0.81830 0.14540 -0.02100
C 	C 	0.18230 0.71920 0.16590 -0.20200
H 	H 	0.12830 0.70050 0.16320 0.09700
C 	C 	0.25290 0.67580 0.18150 0.11800
H 	H 	0.24470 0.62870 0.19090 -0.02300
C 	C 	0.33460 0.70080 0.18350 -0.23400
H 	H 	0.38080 0.67110 0.19140 0.10700
C 	C 	0.34500 0.77170 0.17350 0.19900
C 	C 	0.50330 0.77730 0.20200 0.11100
C 	C 	0.57810 0.79790 0.17330 -0.10200
C 	C 	0.65470 0.77320 0.20840 -0.09500
H 	H 	0.70370 0.78830 0.18880 0.08300
C 	C 	0.66110 0.72760 0.27050 0.14400
C 	C 	0.58640 0.70610 0.30200 -0.13600
C 	C 	0.50990 0.73160 0.26650 -0.05600
H 	H 	0.46080 0.71750 0.28680 0.05700
C 	C 	0.57850 0.85090 0.10380 0.39800
C 	C 	0.58480 0.65720 0.37090 0.41000
C 	C 	0.82010 0.72190 0.28660 0.27300
C 	C 	0.88340 0.67700 0.27880 -0.32400
H 	H 	0.87290 0.62950 0.27890 0.15100
C 	C 	0.96380 0.70070 0.27060 0.23500
H 	H 	0.00700 0.66910 0.26590 -0.05700
C 	C 	0.97990 0.76990 0.26930 -0.30500
H 	H 	0.03360 0.78550 0.26200 0.13500
C 	C 	0.91780 0.81630 0.27850 0.23100
H 	H 	0.92900 0.86380 0.27870 -0.04700
C 	C 	0.83930 0.79290 0.28740 -0.30800
H 	H 	0.79700 0.82500 0.29430 0.13900
C 	C 	0.81980 0.51890 0.46640 0.32900
C 	C 	0.91130 0.51020 0.48110 -0.10500
C 	C 	0.95470 0.52540 0.55550 -0.07700
H 	H 	0.92320 0.54320 0.59410 0.07400
C 	C 	0.04090 0.51660 0.57840 0.12000
C 	C 	0.05250 0.52720 0.72840 0.17400
C 	C 	0.10440 0.55880 0.79270 -0.17500
H 	H 	0.15260 0.58340 0.78380 0.08900
C 	C 	0.00220 0.50940 0.87790 -0.14100
H 	H 	0.98520 0.50270 0.92860 0.07300
C 	C 	0.07970 0.55140 0.87260 0.05100
H 	H 	0.11020 0.57150 0.91760 0.00900
C 	C 	0.95700 0.48180 0.81720 0.08900
H 	H 	0.90870 0.45670 0.82460 -0.00800
C 	C 	0.98140 0.48980 0.73910 -0.20000
H 	H 	0.94920 0.46980 0.69500 0.10000
Zn	Zn	0.53449 0.07268 0.03330 1.17300
Zn	Zn	0.33372 0.06898 0.00184 1.21500
O 	O 	0.48610 0.14260 0.10840 -0.51200
O 	O 	0.34540 0.13390 0.09610 -0.47500
O 	O 	0.48870 0.37580 0.42680 -0.51300
O 	O 	0.34960 0.36510 0.41530 -0.49400
O 	O 	0.21490 0.04800 0.97500 -0.44700
O 	O 	0.22310 0.99990 0.09510 -0.32600
O 	O 	0.42730 0.00569 0.03700 -0.69900
N 	N 	0.57680 0.30240 0.32910 -0.24300
H 	H 	0.57720 0.34200 0.35300 0.14100
N 	N 	0.26060 0.19850 0.20040 -0.26300
H 	H 	0.26210 0.16190 0.17100 0.16500
N 	N 	0.91780 0.03450 0.84720 -0.24000
H 	H 	0.86820 0.05210 0.84690 0.15100
C 	C 	0.72670 0.31480 0.34270 -0.23700
H 	H 	0.71920 0.36190 0.35190 0.10900
C 	C 	0.80740 0.28890 0.34540 0.12700
H 	H 	0.85390 0.31830 0.35460 -0.02100
C 	C 	0.81770 0.21920 0.33410 -0.20200
H 	H 	0.87170 0.20050 0.33680 0.09600
C 	C 	0.74710 0.17580 0.31850 0.11700
H 	H 	0.75530 0.12870 0.30910 -0.02300
C 	C 	0.66540 0.20080 0.31650 -0.23400
H 	H 	0.61920 0.17110 0.30860 0.10700
C 	C 	0.65500 0.27170 0.32650 0.19800
C 	C 	0.49670 0.27730 0.29800 0.11000
C 	C 	0.42190 0.29790 0.32670 -0.10300
C 	C 	0.34530 0.27320 0.29160 -0.09500
H 	H 	0.29630 0.28830 0.31120 0.08200
C 	C 	0.33890 0.22760 0.22950 0.14400
C 	C 	0.41360 0.20610 0.19800 -0.13600
C 	C 	0.49010 0.23160 0.23350 -0.05600
H 	H 	0.53920 0.21750 0.21320 0.05700
C 	C 	0.42150 0.35090 0.39620 0.39900
C 	C 	0.41520 0.15720 0.12910 0.41000
C 	C 	0.17990 0.22190 0.21340 0.27200
C 	C 	0.11660 0.17700 0.22120 -0.32300
H 	H 	0.12710 0.12950 0.22110 0.14900
C 	C 	0.03620 0.20070 0.22940 0.23100
H 	H 	0.99300 0.16910 0.23410 -0.05500
C 	C 	0.02010 0.26990 0.23070 -0.30900
H 	H 	0.96640 0.28550 0.23800 0.13800
C 	C 	0.08220 0.31630 0.22150 0.23300
H 	H 	0.07100 0.36380 0.22130 -0.04900
C 	C 	0.16070 0.29290 0.21260 -0.30900
H 	H 	0.20300 0.32500 0.20570 0.13900
C 	C 	0.18020 0.01890 0.03360 0.31700
C 	C 	0.08870 0.01020 0.01890 -0.11700
C 	C 	0.04530 0.02540 0.94450 -0.06300
H 	H 	0.07680 0.04320 0.90590 0.07100
C 	C 	0.95910 0.01660 0.92160 0.12200
C 	C 	0.94750 0.02720 0.77160 0.18000
C 	C 	0.89560 0.05880 0.70730 -0.18000
H 	H 	0.84740 0.08340 0.71620 0.09100
C 	C 	0.99780 0.00940 0.62210 -0.15300
H 	H 	0.01480 0.00270 0.57140 0.07900
C 	C 	0.92030 0.05140 0.62740 0.05800
H 	H 	0.88980 0.07150 0.58240 0.00600
C 	C 	0.04300 0.98180 0.68280 0.09900
H 	H 	0.09130 0.95670 0.67540 -0.01200
C 	C 	0.01860 0.98980 0.76090 -0.20900
H 	H 	0.05080 0.96980 0.80500 0.10100
