data_crystal

_cell_length_a 16.86760
_cell_length_b 16.86760
_cell_length_c 18.81860
_cell_angle_alpha 90.00000
_cell_angle_beta  90.00000
_cell_angle_gamma 120.00000

_symmetry_space_group_name_	'P 1'
_symmetry_space_group_name_H-M	'P 1'

loop_
_symmetry_equiv_pos_as_xyz
  x,y,z

loop_
_atom_site_label
_atom_site_type_symbol
_atom_site_fract_x
_atom_site_fract_y
_atom_site_fract_z
_atom_site_charge
N 	N 	0.63100 0.44780 0.32620 -0.06900
N 	N 	0.63050 0.50280 0.37860 -0.08000
C 	C 	0.45900 0.40090 0.44270 0.06200
O 	O 	0.65510 0.47920 0.32930 -0.38000
H 	H 	0.41850 0.34230 0.42330 0.01200
H 	H 	0.37580 0.39260 0.52290 0.19100
N 	N 	0.55220 0.18320 0.32620 -0.08200
N 	N 	0.49720 0.12770 0.37860 -0.09300
C 	C 	0.59910 0.05810 0.44270 -0.02900
O 	O 	0.52080 0.17590 0.32930 -0.35100
H 	H 	0.65770 0.07620 0.42330 0.05000
H 	H 	0.60740 0.98320 0.52290 0.09400
N 	N 	0.81680 0.36900 0.32620 -0.08800
N 	N 	0.87230 0.36950 0.37860 -0.10100
C 	C 	0.94190 0.54100 0.44270 0.02500
O 	O 	0.82410 0.34490 0.32930 -0.34700
H 	H 	0.92380 0.58150 0.42330 0.02900
H 	H 	0.01680 0.62420 0.52290 0.12600
N 	N 	0.36900 0.55220 0.82620 -0.08200
N 	N 	0.36950 0.49720 0.87860 -0.09800
C 	C 	0.54100 0.59910 0.94270 0.02800
O 	O 	0.34490 0.52080 0.82930 -0.35300
H 	H 	0.58150 0.65770 0.92330 0.02700
H 	H 	0.62420 0.60740 0.02290 0.12900
N 	N 	0.44780 0.81680 0.82620 -0.10900
N 	N 	0.50280 0.87230 0.87860 -0.11900
C 	C 	0.40090 0.94190 0.94270 -0.00400
O 	O 	0.47920 0.82410 0.82930 -0.31800
H 	H 	0.34230 0.92380 0.92330 0.04700
H 	H 	0.39260 0.01680 0.02290 0.07900
N 	N 	0.18320 0.63100 0.82620 -0.11600
N 	N 	0.12770 0.63050 0.87860 -0.11800
C 	C 	0.05810 0.45900 0.94270 -0.07800
O 	O 	0.17590 0.65510 0.82930 -0.30600
H 	H 	0.07620 0.41850 0.92330 0.07800
H 	H 	0.98320 0.37580 0.02290 0.02400
N 	N 	0.44780 0.63100 0.67380 -0.06900
N 	N 	0.50280 0.63050 0.62140 -0.08100
C 	C 	0.40090 0.45900 0.55730 0.06300
O 	O 	0.47920 0.65510 0.67070 -0.38000
H 	H 	0.34230 0.41850 0.57670 0.01200
H 	H 	0.39260 0.37580 0.47710 0.19200
N 	N 	0.18320 0.55220 0.67380 -0.08800
N 	N 	0.12770 0.49720 0.62140 -0.09600
C 	C 	0.05810 0.59910 0.55730 -0.04300
O 	O 	0.17590 0.52080 0.67070 -0.34400
H 	H 	0.07620 0.65770 0.57670 0.05600
H 	H 	0.98320 0.60740 0.47710 0.07900
N 	N 	0.36900 0.81680 0.67380 -0.08600
N 	N 	0.36950 0.87230 0.62140 -0.09800
C 	C 	0.54100 0.94190 0.55730 0.03100
O 	O 	0.34490 0.82410 0.67070 -0.35200
H 	H 	0.58150 0.92380 0.57670 0.02600
H 	H 	0.62420 0.01680 0.47710 0.13500
N 	N 	0.55220 0.36900 0.17380 -0.08500
N 	N 	0.49720 0.36950 0.12140 -0.09400
C 	C 	0.59910 0.54100 0.05730 -0.03500
O 	O 	0.52080 0.34490 0.17070 -0.34800
H 	H 	0.65770 0.58150 0.07670 0.05200
H 	H 	0.60740 0.62420 0.97710 0.08600
N 	N 	0.81680 0.44780 0.17380 -0.11500
N 	N 	0.87230 0.50280 0.12140 -0.11900
C 	C 	0.94190 0.40090 0.05730 -0.07200
O 	O 	0.82410 0.47920 0.17070 -0.30700
H 	H 	0.92380 0.34230 0.07670 0.07500
H 	H 	0.01680 0.39260 0.97710 0.02800
N 	N 	0.63100 0.18320 0.17380 -0.11500
N 	N 	0.63050 0.12770 0.12140 -0.11200
C 	C 	0.45900 0.05810 0.05730 -0.12500
O 	O 	0.65510 0.17590 0.17070 -0.30600
H 	H 	0.41850 0.07620 0.07670 0.09600
H 	H 	0.37580 0.98320 0.97710 -0.00300
N 	N 	0.36900 0.55220 0.67380 -0.06000
N 	N 	0.36950 0.49720 0.62140 -0.07800
C 	C 	0.54100 0.59910 0.55730 0.06400
O 	O 	0.34490 0.52080 0.67070 -0.38700
H 	H 	0.58150 0.65770 0.57670 0.00700
H 	H 	0.62420 0.60740 0.47710 0.18800
N 	N 	0.44780 0.81680 0.67380 -0.08700
N 	N 	0.50280 0.87230 0.62140 -0.09900
C 	C 	0.40090 0.94190 0.55730 0.03100
O 	O 	0.47920 0.82410 0.67070 -0.35000
H 	H 	0.34230 0.92380 0.57670 0.02800
H 	H 	0.39260 0.01680 0.47710 0.13700
N 	N 	0.18320 0.63100 0.67380 -0.09400
N 	N 	0.12770 0.63050 0.62140 -0.09800
C 	C 	0.05810 0.45900 0.55730 -0.04300
O 	O 	0.17590 0.65510 0.67070 -0.33800
H 	H 	0.07620 0.41850 0.57670 0.05900
H 	H 	0.98320 0.37580 0.47710 0.08100
N 	N 	0.63100 0.44780 0.17380 -0.09400
N 	N 	0.63050 0.50280 0.12140 -0.09800
C 	C 	0.45900 0.40090 0.05730 -0.03700
O 	O 	0.65510 0.47920 0.17070 -0.34000
H 	H 	0.41850 0.34230 0.07670 0.05700
H 	H 	0.37580 0.39260 0.97710 0.09000
N 	N 	0.55220 0.18320 0.17380 -0.10800
N 	N 	0.49720 0.12770 0.12140 -0.11000
C 	C 	0.59910 0.05810 0.05730 -0.12400
O 	O 	0.52080 0.17590 0.17070 -0.31300
H 	H 	0.65770 0.07620 0.07670 0.09300
H 	H 	0.60740 0.98320 0.97710 -0.00400
N 	N 	0.81680 0.36900 0.17380 -0.11400
N 	N 	0.87230 0.36950 0.12140 -0.11800
C 	C 	0.94190 0.54100 0.05730 -0.07200
O 	O 	0.82410 0.34490 0.17070 -0.30900
H 	H 	0.92380 0.58150 0.07670 0.07300
H 	H 	0.01680 0.62420 0.97710 0.02600
N 	N 	0.55220 0.36900 0.32620 -0.05800
N 	N 	0.49720 0.36950 0.37860 -0.07700
C 	C 	0.59910 0.54100 0.44270 0.06300
O 	O 	0.52080 0.34490 0.32930 -0.38800
H 	H 	0.65770 0.58150 0.42330 0.00700
H 	H 	0.60740 0.62420 0.52290 0.18800
N 	N 	0.81680 0.44780 0.32620 -0.08900
N 	N 	0.87230 0.50280 0.37860 -0.10200
C 	C 	0.94190 0.40090 0.44270 0.02500
O 	O 	0.82410 0.47920 0.32930 -0.34600
H 	H 	0.92380 0.34230 0.42330 0.03100
H 	H 	0.01680 0.39260 0.52290 0.12700
N 	N 	0.63100 0.18320 0.32620 -0.09000
N 	N 	0.63050 0.12770 0.37860 -0.09500
C 	C 	0.45900 0.05810 0.44270 -0.03000
O 	O 	0.65510 0.17590 0.32930 -0.34400
H 	H 	0.41850 0.07620 0.42330 0.05300
H 	H 	0.37580 0.98320 0.52290 0.09600
N 	N 	0.44780 0.63100 0.82620 -0.09000
N 	N 	0.50280 0.63050 0.87860 -0.10100
C 	C 	0.40090 0.45900 0.94270 0.02700
O 	O 	0.47920 0.65510 0.82930 -0.34600
H 	H 	0.34230 0.41850 0.92330 0.03200
H 	H 	0.39260 0.37580 0.02290 0.13300
N 	N 	0.18320 0.55220 0.82620 -0.10900
N 	N 	0.12770 0.49720 0.87860 -0.11600
C 	C 	0.05810 0.59910 0.94270 -0.07700
O 	O 	0.17590 0.52080 0.82930 -0.31100
H 	H 	0.07620 0.65770 0.92330 0.07500
H 	H 	0.98320 0.60740 0.02290 0.02200
N 	N 	0.36900 0.81680 0.82620 -0.10700
N 	N 	0.36950 0.87230 0.87860 -0.11800
C 	C 	0.54100 0.94190 0.94270 -0.00400
O 	O 	0.34490 0.82410 0.82930 -0.31900
H 	H 	0.58150 0.92380 0.92330 0.04500
H 	H 	0.62420 0.01680 0.02290 0.07700
Co	Co	0.73534 0.47069 0.25000 1.17200
Co	Co	0.52931 0.26466 0.25000 1.17500
Co	Co	0.73534 0.26466 0.25000 1.17100
Co	Co	0.26466 0.52931 0.75000 1.17400
Co	Co	0.47069 0.73534 0.75000 1.17200
Co	Co	0.26466 0.73534 0.75000 1.17100
O 	O 	0.66667 0.33333 0.25000 -0.59600
O 	O 	0.33333 0.66667 0.75000 -0.59700
C 	C 	0.54595 0.45405 0.41173 -0.25900
C 	C 	0.51710 0.48290 0.47150 0.37800
C 	C 	0.57660 0.42340 0.35120 0.57500
C 	C 	0.54595 0.09190 0.41173 -0.15300
C 	C 	0.51710 0.03420 0.47150 0.27600
C 	C 	0.57660 0.15320 0.35120 0.56000
C 	C 	0.90810 0.45405 0.41173 -0.15300
C 	C 	0.96580 0.48290 0.47150 0.14800
C 	C 	0.84680 0.42340 0.35120 0.56200
C 	C 	0.45405 0.54595 0.91173 -0.16000
C 	C 	0.48290 0.51710 0.97150 0.16300
C 	C 	0.42340 0.57660 0.85120 0.56200
C 	C 	0.45405 0.90810 0.91173 -0.07100
C 	C 	0.48290 0.96580 0.97150 -0.02900
C 	C 	0.42340 0.84680 0.85120 0.55100
C 	C 	0.09190 0.54595 0.91173 -0.04000
C 	C 	0.03420 0.51710 0.97150 0.04900
C 	C 	0.15320 0.57660 0.85120 0.54500
C 	C 	0.45405 0.54595 0.58827 -0.26000
C 	C 	0.48290 0.51710 0.52850 0.37800
C 	C 	0.42340 0.57660 0.64880 0.57700
C 	C 	0.09190 0.54595 0.58827 -0.13800
C 	C 	0.03420 0.51710 0.52850 0.26000
C 	C 	0.15320 0.57660 0.64880 0.56000
C 	C 	0.45405 0.90810 0.58827 -0.16900
C 	C 	0.48290 0.96580 0.52850 0.17900
C 	C 	0.42340 0.84680 0.64880 0.56600
C 	C 	0.54595 0.45405 0.08827 -0.14600
C 	C 	0.51710 0.48290 0.02850 0.26900
C 	C 	0.57660 0.42340 0.14880 0.56200
C 	C 	0.90810 0.45405 0.08827 -0.04300
C 	C 	0.96580 0.48290 0.02850 0.04200
C 	C 	0.84680 0.42340 0.14880 0.54800
C 	C 	0.54595 0.09190 0.08827 -0.04400
C 	C 	0.51710 0.03420 0.02850 0.17100
C 	C 	0.57660 0.15320 0.14880 0.54700
C 	C 	0.43080 0.43080 0.50000 -0.66000
C 	C 	0.56920 0.00000 0.50000 -0.36400
C 	C 	0.00000 0.56920 0.50000 -0.31700
C 	C 	0.56920 0.56920 -0.00000 -0.34100
C 	C 	0.43080 0.00000 -0.00000 -0.05500
C 	C 	-0.00000 0.43080 -0.00000 -0.00600
C 	C 	0.56920 0.56920 0.50000 -0.66000
C 	C 	0.43080 0.00000 0.50000 -0.36400
C 	C 	-0.00000 0.43080 0.50000 -0.31700
C 	C 	0.43080 0.43080 -0.00000 -0.34100
C 	C 	0.56920 0.00000 -0.00000 -0.05500
C 	C 	-0.00000 0.56920 -0.00000 -0.00600
