data_crystal

_cell_length_a 18.86050
_cell_length_b 18.86050
_cell_length_c 16.61830
_cell_angle_alpha 90.00000
_cell_angle_beta  90.00000
_cell_angle_gamma 120.00000

_symmetry_space_group_name_	'P 1'
_symmetry_space_group_name_H-M	'P 1'

loop_
_symmetry_equiv_pos_as_xyz
  x,y,z

loop_
_atom_site_label
_atom_site_type_symbol
_atom_site_fract_x
_atom_site_fract_y
_atom_site_fract_z
_atom_site_charge
N 	N 	0.63220 0.43480 0.66360 -6.91300
N 	N 	0.62780 0.49020 0.61390 -5.98700
C 	C 	0.59450 0.53200 0.55440 -22.61800
H 	H 	0.64690 0.56630 0.57410 11.93500
O 	O 	0.65420 0.46150 0.66190 10.60900
H 	H 	0.59250 0.60950 0.47660 -32.72900
N 	N 	0.56520 0.19740 0.66360 0.01000
N 	N 	0.50980 0.13760 0.61390 0.17100
C 	C 	0.46800 0.06250 0.55440 1.29700
H 	H 	0.43370 0.08060 0.57410 -0.64300
O 	O 	0.53850 0.19270 0.66190 -0.96600
H 	H 	0.39050 0.98300 0.47660 2.06100
N 	N 	0.80260 0.36780 0.66360 -1.91200
N 	N 	0.86240 0.37220 0.61390 -1.85300
C 	C 	0.93750 0.40550 0.55440 -6.76900
H 	H 	0.91940 0.35310 0.57410 3.62400
O 	O 	0.80730 0.34580 0.66190 2.72500
H 	H 	0.01700 0.40750 0.47660 -9.76400
N 	N 	0.36780 0.56520 0.16360 -2.02800
N 	N 	0.37220 0.50980 0.11390 -1.80900
C 	C 	0.40550 0.46800 0.05440 -6.59900
H 	H 	0.35310 0.43370 0.07410 3.50300
O 	O 	0.34580 0.53850 0.16190 2.73800
H 	H 	0.40750 0.39050 0.97660 -9.42300
N 	N 	0.43480 0.80260 0.16360 -0.46200
N 	N 	0.49020 0.86240 0.11390 -0.35400
C 	C 	0.53200 0.93750 0.05440 -0.82800
H 	H 	0.56630 0.91940 0.07410 0.48400
O 	O 	0.46150 0.80730 0.16190 0.14700
H 	H 	0.60950 0.01700 0.97660 -1.09800
N 	N 	0.19740 0.63220 0.16360 2.12800
N 	N 	0.13760 0.62780 0.11390 1.81600
C 	C 	0.06250 0.59450 0.05440 7.32500
H 	H 	0.08060 0.64690 0.07410 -3.82300
O 	O 	0.19270 0.65420 0.16190 -4.04400
H 	H 	0.98300 0.59250 0.97660 10.86400
N 	N 	0.43480 0.63220 0.33640 -6.76000
N 	N 	0.49020 0.62780 0.38610 -5.95900
C 	C 	0.53200 0.59450 0.44560 -22.62400
H 	H 	0.56630 0.64690 0.42590 11.93700
O 	O 	0.46150 0.65420 0.33810 10.50200
H 	H 	0.60950 0.59250 0.52340 -32.73100
N 	N 	0.19740 0.56520 0.33640 -2.41200
N 	N 	0.13760 0.50980 0.38610 -1.94000
C 	C 	0.06250 0.46800 0.44560 -6.90600
H 	H 	0.08060 0.43370 0.42590 3.67000
O 	O 	0.19270 0.53850 0.33810 3.07900
H 	H 	0.98300 0.39050 0.52340 -9.85300
N 	N 	0.36780 0.80260 0.33640 0.36500
N 	N 	0.37220 0.86240 0.38610 0.22600
C 	C 	0.40550 0.93750 0.44560 1.55000
H 	H 	0.35310 0.91940 0.42590 -0.73600
O 	O 	0.34580 0.80730 0.33810 -1.22600
H 	H 	0.40750 0.01700 0.52340 2.21800
N 	N 	0.56520 0.36780 0.83640 -2.17400
N 	N 	0.50980 0.37220 0.88610 -1.84300
C 	C 	0.46800 0.40550 0.94560 -6.44600
H 	H 	0.43370 0.35310 0.92590 3.44300
O 	O 	0.53850 0.34580 0.83810 2.83000
H 	H 	0.39050 0.40750 0.02340 -9.33500
N 	N 	0.80260 0.43480 0.83640 2.00200
N 	N 	0.86240 0.49020 0.88610 1.78100
C 	C 	0.93750 0.53200 0.94560 7.60500
H 	H 	0.91940 0.56630 0.92590 -3.93400
O 	O 	0.80730 0.46150 0.83810 -3.96500
H 	H 	0.01700 0.60950 0.02340 11.04500
N 	N 	0.63220 0.19740 0.83640 -0.16900
N 	N 	0.62780 0.13760 0.88610 -0.29600
C 	C 	0.59450 0.06250 0.94560 -0.95400
H 	H 	0.64690 0.08060 0.92590 0.53700
O 	O 	0.65420 0.19270 0.83810 -0.05500
H 	H 	0.59250 0.98300 0.02340 -1.18200
N 	N 	0.36780 0.56520 0.33640 -6.91300
N 	N 	0.37220 0.50980 0.38610 -5.98700
C 	C 	0.40550 0.46800 0.44560 -22.61800
H 	H 	0.35310 0.43370 0.42590 11.93700
O 	O 	0.34580 0.53850 0.33810 10.60600
H 	H 	0.40750 0.39050 0.52340 -32.72500
N 	N 	0.43480 0.80260 0.33640 0.03000
N 	N 	0.49020 0.86240 0.38610 0.16400
C 	C 	0.53200 0.93750 0.44560 1.55900
H 	H 	0.56630 0.91940 0.42590 -0.74500
O 	O 	0.46150 0.80730 0.33810 -0.99100
H 	H 	0.60950 0.01700 0.52340 2.22000
N 	N 	0.19740 0.63220 0.33640 -1.92500
N 	N 	0.13760 0.62780 0.38610 -1.85000
C 	C 	0.06250 0.59450 0.44560 -6.92700
H 	H 	0.08060 0.64690 0.42590 3.68200
O 	O 	0.19270 0.65420 0.33810 2.74100
H 	H 	0.98300 0.59250 0.52340 -9.86500
N 	N 	0.63220 0.43480 0.83640 -2.01900
N 	N 	0.62780 0.49020 0.88610 -1.81500
C 	C 	0.59450 0.53200 0.94560 -6.45600
H 	H 	0.64690 0.56630 0.92590 3.44500
O 	O 	0.65420 0.46150 0.83810 2.72500
H 	H 	0.59250 0.60950 0.02340 -9.34100
N 	N 	0.56520 0.19740 0.83640 -0.47100
N 	N 	0.50980 0.13760 0.88610 -0.35100
C 	C 	0.46800 0.06250 0.94560 -0.95000
H 	H 	0.43370 0.08060 0.92590 0.53100
O 	O 	0.53850 0.19270 0.83810 0.15700
H 	H 	0.39050 0.98300 0.02340 -1.17500
N 	N 	0.80260 0.36780 0.83640 2.15000
N 	N 	0.86240 0.37220 0.88610 1.80800
C 	C 	0.93750 0.40550 0.94560 7.61600
H 	H 	0.91940 0.35310 0.92590 -3.93400
O 	O 	0.80730 0.34580 0.83810 -4.07200
H 	H 	0.01700 0.40750 0.02340 11.04700
N 	N 	0.56520 0.36780 0.66360 -6.75900
N 	N 	0.50980 0.37220 0.61390 -5.95800
C 	C 	0.46800 0.40550 0.55440 -22.62400
H 	H 	0.43370 0.35310 0.57410 11.94100
O 	O 	0.53850 0.34580 0.66190 10.50200
H 	H 	0.39050 0.40750 0.47660 -32.72600
N 	N 	0.80260 0.43480 0.66360 -2.40100
N 	N 	0.86240 0.49020 0.61390 -1.94400
C 	C 	0.93750 0.53200 0.55440 -6.75400
H 	H 	0.91940 0.56630 0.57410 3.61000
O 	O 	0.80730 0.46150 0.66190 3.06500
H 	H 	0.01700 0.60950 0.47660 -9.76100
N 	N 	0.63220 0.19740 0.66360 0.34400
N 	N 	0.62780 0.13760 0.61390 0.23300
C 	C 	0.59450 0.06250 0.55440 1.28200
H 	H 	0.64690 0.08060 0.57410 -0.63400
O 	O 	0.65420 0.19270 0.66190 -1.20000
H 	H 	0.59250 0.98300 0.47660 2.05100
N 	N 	0.43480 0.63220 0.16360 -2.18600
N 	N 	0.49020 0.62780 0.11390 -1.83900
C 	C 	0.53200 0.59450 0.05440 -6.60100
H 	H 	0.56630 0.64690 0.07410 3.49900
O 	O 	0.46150 0.65420 0.16190 2.84600
H 	H 	0.60950 0.59250 0.97660 -9.43300
N 	N 	0.19740 0.56520 0.16360 1.98400
N 	N 	0.13760 0.50980 0.11390 1.78900
C 	C 	0.06250 0.46800 0.05440 7.35300
H 	H 	0.08060 0.43370 0.07410 -3.83600
O 	O 	0.19270 0.53850 0.16190 -3.94000
H 	H 	0.98300 0.39050 0.97660 10.89500
N 	N 	0.36780 0.80260 0.16360 -0.16000
N 	N 	0.37220 0.86240 0.11390 -0.29700
C 	C 	0.40550 0.93750 0.05440 -0.85000
H 	H 	0.35310 0.91940 0.07410 0.49900
O 	O 	0.34580 0.80730 0.16190 -0.06500
H 	H 	0.40750 0.01700 0.97660 -1.11600
Co	Co	0.72820 0.45640 0.75000 0.77300
N 	N 	0.79305 0.58610 0.75000 -0.47000
C 	C 	0.87940 0.75880 0.75000 0.01400
C 	C 	0.92585 0.85170 0.75000 0.34900
Co	Co	0.54360 0.27180 0.75000 0.77100
N 	N 	0.41390 0.20695 0.75000 -0.47600
C 	C 	0.24120 0.12060 0.75000 0.04600
C 	C 	0.14830 0.07415 0.75000 0.33500
Co	Co	0.72820 0.27180 0.75000 1.23000
N 	N 	0.79305 0.20695 0.75000 -0.18800
C 	C 	0.87940 0.12060 0.75000 -0.00400
C 	C 	0.92585 0.07415 0.75000 0.35500
Co	Co	0.27180 0.54360 0.25000 0.77300
N 	N 	0.20695 0.41390 0.25000 -0.47500
C 	C 	0.12060 0.24120 0.25000 0.04900
C 	C 	0.07415 0.14830 0.25000 0.33300
Co	Co	0.45640 0.72820 0.25000 0.77200
N 	N 	0.58610 0.79305 0.25000 -0.47200
C 	C 	0.75880 0.87940 0.25000 0.02100
C 	C 	0.85170 0.92585 0.25000 0.34600
Co	Co	0.27180 0.72820 0.25000 1.22900
N 	N 	0.20695 0.79305 0.25000 -0.18800
C 	C 	0.12060 0.87940 0.25000 -0.00800
C 	C 	0.07415 0.92585 0.25000 0.35600
O 	O 	0.66667 0.33333 0.75000 -0.58900
O 	O 	0.33333 0.66667 0.25000 -0.58800
C 	C 	0.55056 0.44944 0.58210 34.72400
C 	C 	0.51720 0.48280 0.52400 -56.91600
C 	C 	0.58400 0.41600 0.64050 -5.08400
C 	C 	0.55056 0.10112 0.58210 -2.34400
C 	C 	0.51720 0.03440 0.52400 3.90600
C 	C 	0.58400 0.16800 0.64050 1.23500
C 	C 	0.89888 0.44944 0.58210 10.36400
C 	C 	0.96560 0.48280 0.52400 -17.19500
C 	C 	0.83200 0.41600 0.64050 -1.02000
C 	C 	0.44944 0.55056 0.08210 9.91300
C 	C 	0.48280 0.51720 0.02400 -16.20000
C 	C 	0.41600 0.58400 0.14050 -0.93700
C 	C 	0.44944 0.89888 0.08210 1.21500
C 	C 	0.48280 0.96560 0.02400 -2.08000
C 	C 	0.41600 0.83200 0.14050 0.35800
C 	C 	0.10112 0.55056 0.08210 -11.66500
C 	C 	0.03440 0.51720 0.02400 19.26700
C 	C 	0.16800 0.58400 0.14050 2.64200
C 	C 	0.44944 0.55056 0.41790 34.72400
C 	C 	0.48280 0.51720 0.47600 -56.91800
C 	C 	0.41600 0.58400 0.35950 -5.08400
C 	C 	0.10112 0.55056 0.41790 10.40000
C 	C 	0.03440 0.51720 0.47600 -16.95500
C 	C 	0.16800 0.58400 0.35950 -1.01900
C 	C 	0.44944 0.89888 0.41790 -2.40700
C 	C 	0.48280 0.96560 0.47600 3.49200
C 	C 	0.41600 0.83200 0.35950 1.23400
C 	C 	0.55056 0.44944 0.91790 9.87700
C 	C 	0.51720 0.48280 0.97600 -16.43300
C 	C 	0.58400 0.41600 0.85950 -0.93700
C 	C 	0.89888 0.44944 0.91790 -11.73100
C 	C 	0.96560 0.48280 0.97600 18.84300
C 	C 	0.83200 0.41600 0.85950 2.64100
C 	C 	0.55056 0.10112 0.91790 1.24100
C 	C 	0.51720 0.03440 0.97600 -1.90600
C 	C 	0.58400 0.16800 0.85950 0.35900
C 	C 	0.56260 0.56260 0.50000 119.31100
C 	C 	0.43740 0.00000 0.50000 -7.68100
C 	C 	0.00000 0.43740 0.50000 35.84800
C 	C 	0.43740 0.43740 -0.00000 34.24100
C 	C 	0.56260 0.00000 -0.00000 4.26700
C 	C 	-0.00000 0.56260 -0.00000 -39.80200
C 	C 	0.43740 0.43740 0.50000 119.30800
C 	C 	0.56260 0.00000 0.50000 -7.67300
C 	C 	-0.00000 0.56260 0.50000 35.85700
C 	C 	0.56260 0.56260 -0.00000 34.25800
C 	C 	0.43740 0.00000 -0.00000 4.28900
C 	C 	0.00000 0.43740 -0.00000 -39.85500
H 	H 	0.80115 0.60230 0.63250 -0.32200
C 	C 	0.81525 0.63050 0.68110 0.14600
O 	O 	0.94035 0.88070 0.68220 -0.47000
C 	C 	0.85705 0.71410 0.67840 -0.15700
H 	H 	0.87055 0.74110 0.62910 0.29100
H 	H 	0.39770 0.19885 0.63250 -0.23800
C 	C 	0.36950 0.18475 0.68110 0.16700
O 	O 	0.11930 0.05965 0.68220 -0.39900
C 	C 	0.28590 0.14295 0.67840 -0.17200
H 	H 	0.25890 0.12945 0.62910 0.26800
H 	H 	0.80115 0.19885 0.63250 -0.01000
C 	C 	0.81525 0.18475 0.68110 0.02500
O 	O 	0.94035 0.05965 0.68220 -0.43200
C 	C 	0.85705 0.14295 0.67840 -0.04400
H 	H 	0.87055 0.12945 0.62910 0.12800
H 	H 	0.19885 0.39770 0.13250 -0.02900
C 	C 	0.18475 0.36950 0.18110 0.19600
O 	O 	0.05965 0.11930 0.18220 -0.48500
C 	C 	0.14295 0.28590 0.17840 -0.19900
H 	H 	0.12945 0.25890 0.12910 0.11700
H 	H 	0.60230 0.80115 0.13250 -0.11400
C 	C 	0.63050 0.81525 0.18110 0.17700
O 	O 	0.88070 0.94035 0.18220 -0.54600
C 	C 	0.71410 0.85705 0.17840 -0.18600
H 	H 	0.74110 0.87055 0.12910 0.14400
H 	H 	0.19885 0.80115 0.13250 0.10000
C 	C 	0.18475 0.81525 0.18110 0.03600
O 	O 	0.05965 0.94035 0.18220 -0.51600
C 	C 	0.14295 0.85705 0.17840 -0.06000
H 	H 	0.12945 0.87055 0.12910 0.03200
H 	H 	0.60230 0.80115 0.36750 -0.24300
C 	C 	0.63050 0.81525 0.31890 0.16300
O 	O 	0.88070 0.94035 0.31780 -0.47200
C 	C 	0.71410 0.85705 0.32160 -0.16800
H 	H 	0.74110 0.87055 0.37090 0.24700
H 	H 	0.19885 0.39770 0.36750 -0.32100
C 	C 	0.18475 0.36950 0.31890 0.15200
O 	O 	0.05965 0.11930 0.31780 -0.39000
C 	C 	0.14295 0.28590 0.32160 -0.16400
H 	H 	0.12945 0.25890 0.37090 0.31000
H 	H 	0.19885 0.80115 0.36750 -0.01200
C 	C 	0.18475 0.81525 0.31890 0.02500
O 	O 	0.05965 0.94035 0.31780 -0.44900
C 	C 	0.14295 0.85705 0.32160 -0.04500
H 	H 	0.12945 0.87055 0.37090 0.12200
H 	H 	0.39770 0.19885 0.86750 -0.11400
C 	C 	0.36950 0.18475 0.81890 0.18000
O 	O 	0.11930 0.05965 0.81780 -0.48500
C 	C 	0.28590 0.14295 0.82160 -0.19000
H 	H 	0.25890 0.12945 0.87090 0.15300
H 	H 	0.80115 0.60230 0.86750 -0.03500
C 	C 	0.81525 0.63050 0.81890 0.19000
O 	O 	0.94035 0.88070 0.81780 -0.57300
C 	C 	0.85705 0.71410 0.82160 -0.19200
H 	H 	0.87055 0.74110 0.87090 0.08800
H 	H 	0.80115 0.19885 0.86750 0.09800
C 	C 	0.81525 0.18475 0.81890 0.03600
O 	O 	0.94035 0.05965 0.81780 -0.50800
C 	C 	0.85705 0.14295 0.82160 -0.06100
H 	H 	0.87055 0.12945 0.87090 0.02800
Co	Co	-0.00000 -0.00000 0.68150 1.14400
Co	Co	-0.00000 -0.00000 0.18150 1.11100
Co	Co	-0.00000 -0.00000 0.31850 1.14700
Co	Co	-0.00000 -0.00000 0.81850 1.10500
C 	C 	0.75240 0.62980 0.75000 -0.14600
H 	H 	0.69550 0.60180 0.75000 -0.16100
C 	C 	0.79470 0.71440 0.75000 0.09800
H 	H 	0.76560 0.74220 0.75000 0.11700
C 	C 	0.37020 0.12260 0.75000 -0.03500
H 	H 	0.39820 0.09370 0.75000 0.04100
C 	C 	0.28560 0.08030 0.75000 0.00800
H 	H 	0.25780 0.02340 0.75000 0.04400
C 	C 	0.87740 0.24760 0.75000 0.01700
H 	H 	0.90630 0.30450 0.75000 0.04400
C 	C 	0.91970 0.20530 0.75000 -0.04800
H 	H 	0.97660 0.23440 0.75000 0.07000
C 	C 	0.24760 0.37020 0.25000 -0.13600
H 	H 	0.30450 0.39820 0.25000 -0.15900
C 	C 	0.20530 0.28560 0.25000 0.08200
H 	H 	0.23440 0.25780 0.25000 0.14100
C 	C 	0.62980 0.87740 0.25000 -0.04500
H 	H 	0.60180 0.90630 0.25000 0.03300
C 	C 	0.71440 0.91970 0.25000 0.01900
H 	H 	0.74220 0.97660 0.25000 0.00800
C 	C 	0.12260 0.75240 0.25000 0.01600
H 	H 	0.09370 0.69550 0.25000 0.05300
C 	C 	0.08030 0.79470 0.25000 -0.04400
H 	H 	0.02340 0.76560 0.25000 0.08800
C 	C 	0.62980 0.75240 0.25000 -0.14500
H 	H 	0.60180 0.69550 0.25000 -0.15900
C 	C 	0.71440 0.79470 0.25000 0.09600
H 	H 	0.74220 0.76560 0.25000 0.12500
C 	C 	0.12260 0.37020 0.25000 -0.03500
H 	H 	0.09370 0.39820 0.25000 0.04100
C 	C 	0.08030 0.28560 0.25000 0.00700
H 	H 	0.02340 0.25780 0.25000 0.04400
C 	C 	0.24760 0.87740 0.25000 0.01500
H 	H 	0.30450 0.90630 0.25000 0.04400
C 	C 	0.20530 0.91970 0.25000 -0.04600
H 	H 	0.23440 0.97660 0.25000 0.06800
C 	C 	0.37020 0.24760 0.75000 -0.13700
H 	H 	0.39820 0.30450 0.75000 -0.16200
C 	C 	0.28560 0.20530 0.75000 0.08300
H 	H 	0.25780 0.23440 0.75000 0.13500
C 	C 	0.87740 0.62980 0.75000 -0.04600
H 	H 	0.90630 0.60180 0.75000 0.03400
C 	C 	0.91970 0.71440 0.75000 0.02100
H 	H 	0.97660 0.74220 0.75000 0.00400
C 	C 	0.75240 0.12260 0.75000 0.01700
H 	H 	0.69550 0.09370 0.75000 0.05200
C 	C 	0.79470 0.08030 0.75000 -0.04600
H 	H 	0.76560 0.02340 0.75000 0.09200
