data_crystal

_cell_length_a 6.11390
_cell_length_b 8.77180
_cell_length_c 13.15430
_cell_angle_alpha 101.04800
_cell_angle_beta  101.80500
_cell_angle_gamma 96.54600

_symmetry_space_group_name_	'P 1'
_symmetry_space_group_name_H-M	'P 1'

loop_
_symmetry_equiv_pos_as_xyz
  x,y,z

loop_
_atom_site_label
_atom_site_type_symbol
_atom_site_fract_x
_atom_site_fract_y
_atom_site_fract_z
_atom_site_charge
Gd	Gd	0.74716 0.21931 0.72457 1.62100
O 	O 	0.50170 0.80020 0.45150 -0.34700
O 	O 	0.06500 0.10660 0.80050 -0.39900
O 	O 	0.76690 0.35690 0.90970 -0.48100
H 	H 	0.68300 0.33000 0.95100 0.28200
O 	O 	0.06730 0.45510 0.81370 -0.38600
H 	H 	0.17300 0.50900 0.79100 0.20500
O 	O 	0.65950 0.47920 0.71240 -0.35800
O 	O 	0.63020 0.02900 0.82930 -0.42000
H 	H 	0.67400 0.93600 0.82500 0.24600
O 	O 	0.50530 0.21270 0.01030 -0.39300
H 	H 	0.45960 0.24640 0.06510 0.25000
O 	O 	0.65830 0.71380 0.81540 -0.29200
O 	O 	0.36390 0.20070 0.74420 -0.40000
O 	O 	0.67800 0.95860 0.60990 -0.36000
C 	C 	0.40840 0.00830 0.85050 -0.02300
H 	H 	0.33550 0.89630 0.82030 0.04900
C 	C 	0.26780 0.11520 0.79400 0.38000
C 	C 	0.41720 0.04790 0.97040 0.09300
H 	H 	0.26240 0.02390 0.98300 0.02900
C 	C 	0.89550 0.50790 0.95870 0.12200
H 	H 	0.80060 0.57720 0.99370 0.01300
C 	C 	0.55030 0.92860 0.51770 0.24100
C 	C 	0.74360 0.59130 0.79160 0.32400
C 	C 	0.96070 0.57170 0.86740 -0.05500
H 	H 	0.06600 0.67400 0.89470 0.05900
Gd	Gd	0.25284 0.78069 0.27543 1.62100
O 	O 	0.49830 0.19980 0.54850 -0.34700
O 	O 	0.93500 0.89340 0.19950 -0.39900
O 	O 	0.23310 0.64310 0.09030 -0.48100
H 	H 	0.31700 0.67000 0.04900 0.28200
O 	O 	0.93270 0.54490 0.18630 -0.38600
H 	H 	0.82700 0.49100 0.20900 0.20500
O 	O 	0.34050 0.52080 0.28760 -0.35800
O 	O 	0.36980 0.97100 0.17070 -0.42000
H 	H 	0.32600 0.06400 0.17500 0.24600
O 	O 	0.49470 0.78730 0.98970 -0.39300
H 	H 	0.54040 0.75360 0.93490 0.25000
O 	O 	0.34170 0.28620 0.18460 -0.29200
O 	O 	0.63610 0.79930 0.25580 -0.40000
O 	O 	0.32200 0.04140 0.39010 -0.36000
C 	C 	0.59160 0.99170 0.14950 -0.02300
H 	H 	0.66450 0.10370 0.17970 0.04900
C 	C 	0.73220 0.88480 0.20600 0.38000
C 	C 	0.58280 0.95210 0.02960 0.09300
H 	H 	0.73760 0.97610 0.01700 0.02900
C 	C 	0.10450 0.49210 0.04130 0.12200
H 	H 	0.19940 0.42280 0.00630 0.01300
C 	C 	0.44970 0.07140 0.48230 0.24100
C 	C 	0.25640 0.40870 0.20840 0.32400
C 	C 	0.03930 0.42830 0.13260 -0.05500
H 	H 	0.93400 0.32600 0.10530 0.05900
