data_crystal

_cell_length_a 17.12430
_cell_length_b 17.12430
_cell_length_c 9.56070
_cell_angle_alpha 90.00000
_cell_angle_beta  90.00000
_cell_angle_gamma 90.00000

_symmetry_space_group_name_	'P 1'
_symmetry_space_group_name_H-M	'P 1'

loop_
_symmetry_equiv_pos_as_xyz
  x,y,z

loop_
_atom_site_label
_atom_site_type_symbol
_atom_site_fract_x
_atom_site_fract_y
_atom_site_fract_z
_atom_site_charge
O 	O 	0.48520 0.61578 0.38560 0.32400
H 	H 	0.39200 0.45810 0.11380 -0.00600
C 	C 	0.50400 0.77370 0.35230 0.05700
C 	C 	0.49500 0.78140 0.60270 0.02400
H 	H 	0.50760 0.74340 0.26930 0.01600
C 	C 	0.50400 0.85480 0.34430 0.05000
C 	C 	0.50500 0.86250 0.40530 -0.16500
H 	H 	0.49240 0.75640 0.69130 -0.04800
H 	H 	0.50740 0.87980 0.25580 -0.02400
H 	H 	0.50780 0.89280 0.32230 0.02400
C 	C 	0.51960 0.41750 0.08060 0.00500
H 	H 	0.48040 0.37980 0.11570 0.01300
H 	H 	0.40150 0.42840 0.11570 0.03500
O 	O 	0.51480 0.38422 0.38560 0.34000
H 	H 	0.60800 0.54190 0.11380 -0.00500
C 	C 	0.49600 0.22630 0.35230 0.05600
C 	C 	0.50500 0.21860 0.60270 0.03000
H 	H 	0.49240 0.25660 0.26930 0.01600
C 	C 	0.49600 0.14520 0.34430 0.05300
C 	C 	0.49500 0.13750 0.40530 -0.16700
H 	H 	0.50760 0.24360 0.69130 -0.04500
H 	H 	0.49260 0.12020 0.25580 -0.02300
H 	H 	0.49220 0.10720 0.32230 0.02300
C 	C 	0.48040 0.58250 0.08060 0.01400
H 	H 	0.51960 0.62020 0.11570 0.01300
H 	H 	0.59850 0.57160 0.11570 0.03700
O 	O 	0.38422 0.48520 0.38560 -0.79200
H 	H 	0.54190 0.39200 0.11380 -0.01700
C 	C 	0.22630 0.50400 0.35230 0.09700
C 	C 	0.21860 0.49500 0.60270 -0.00900
H 	H 	0.25660 0.50760 0.26930 0.11100
C 	C 	0.14520 0.50400 0.34430 0.06900
C 	C 	0.13750 0.50500 0.40530 -0.15100
H 	H 	0.24360 0.49240 0.69130 -0.14400
H 	H 	0.12020 0.50740 0.25580 -0.00200
H 	H 	0.10720 0.50780 0.32230 0.04700
C 	C 	0.58250 0.51960 0.08060 0.00400
H 	H 	0.62020 0.48040 0.11570 0.01100
H 	H 	0.57160 0.40150 0.11570 0.01600
O 	O 	0.61578 0.51480 0.38560 -0.77900
H 	H 	0.45810 0.60800 0.11380 -0.01800
C 	C 	0.77370 0.49600 0.35230 0.09600
C 	C 	0.78140 0.50500 0.60270 -0.01000
H 	H 	0.74340 0.49240 0.26930 0.10500
C 	C 	0.85480 0.49600 0.34430 0.06400
C 	C 	0.86250 0.49500 0.40530 -0.15000
H 	H 	0.75640 0.50760 0.69130 -0.13800
H 	H 	0.87980 0.49260 0.25580 -0.00500
H 	H 	0.89280 0.49220 0.32230 0.04500
C 	C 	0.41750 0.48040 0.08060 0.00300
H 	H 	0.37980 0.51960 0.11570 0.01500
H 	H 	0.42840 0.59850 0.11570 0.01600
O 	O 	0.51480 0.61578 0.61440 -0.77900
H 	H 	0.60800 0.45810 0.88620 -0.00500
C 	C 	0.49600 0.77370 0.64770 0.09500
C 	C 	0.50500 0.78140 0.39730 -0.01100
H 	H 	0.49240 0.74340 0.73070 0.11000
C 	C 	0.49600 0.85480 0.65570 0.07800
C 	C 	0.49500 0.86250 0.59470 -0.15800
H 	H 	0.50760 0.75640 0.30870 -0.13500
H 	H 	0.49260 0.87980 0.74420 -0.00700
H 	H 	0.49220 0.89280 0.67770 0.04100
C 	C 	0.48040 0.41750 0.91940 0.01400
H 	H 	0.51960 0.37980 0.88430 0.00700
H 	H 	0.59850 0.42840 0.88430 0.01000
O 	O 	0.48520 0.38422 0.61440 -0.79200
H 	H 	0.39200 0.54190 0.88620 -0.00300
C 	C 	0.50400 0.22630 0.64770 0.09600
C 	C 	0.49500 0.21860 0.39730 -0.01100
H 	H 	0.50760 0.25660 0.73070 0.11700
C 	C 	0.50400 0.14520 0.65570 0.08300
C 	C 	0.50500 0.13750 0.59470 -0.15900
H 	H 	0.49240 0.24360 0.30870 -0.14000
H 	H 	0.50740 0.12020 0.74420 -0.00200
H 	H 	0.50780 0.10720 0.67770 0.04300
C 	C 	0.51960 0.58250 0.91940 0.01500
H 	H 	0.48040 0.62020 0.88430 0.00300
H 	H 	0.40150 0.57160 0.88430 0.01100
O 	O 	0.61578 0.48520 0.61440 0.32500
H 	H 	0.45810 0.39200 0.88620 0.01000
C 	C 	0.77370 0.50400 0.64770 0.05700
C 	C 	0.78140 0.49500 0.39730 0.02400
H 	H 	0.74340 0.50760 0.73070 0.02300
C 	C 	0.85480 0.50400 0.65570 0.06400
C 	C 	0.86250 0.50500 0.59470 -0.17100
H 	H 	0.75640 0.49240 0.30870 -0.04400
H 	H 	0.87980 0.50740 0.74420 -0.02500
H 	H 	0.89280 0.50780 0.67770 0.02100
C 	C 	0.41750 0.51960 0.91940 0.01600
H 	H 	0.37980 0.48040 0.88430 0.00500
H 	H 	0.42840 0.40150 0.88430 0.03100
O 	O 	0.38422 0.51480 0.61440 0.34100
H 	H 	0.54190 0.60800 0.88620 0.00800
C 	C 	0.22630 0.49600 0.64770 0.05500
C 	C 	0.21860 0.50500 0.39730 0.02800
H 	H 	0.25660 0.49240 0.73070 0.02200
C 	C 	0.14520 0.49600 0.65570 0.06700
C 	C 	0.13750 0.49500 0.59470 -0.17500
H 	H 	0.24360 0.50760 0.30870 -0.04200
H 	H 	0.12020 0.49260 0.74420 -0.02400
H 	H 	0.10720 0.49220 0.67770 0.01900
C 	C 	0.58250 0.48040 0.91940 0.02400
H 	H 	0.62020 0.51960 0.88430 0.00500
H 	H 	0.57160 0.59850 0.88430 0.03200
O 	O 	0.51480 0.38422 0.61440 0.34100
H 	H 	0.60800 0.54190 0.88620 0.00800
C 	C 	0.49600 0.22630 0.64770 0.05500
C 	C 	0.50500 0.21860 0.39730 0.02800
H 	H 	0.49240 0.25660 0.73070 0.02200
C 	C 	0.49600 0.14520 0.65570 0.06700
C 	C 	0.49500 0.13750 0.59470 -0.17500
H 	H 	0.50760 0.24360 0.30870 -0.04200
H 	H 	0.49260 0.12020 0.74420 -0.02400
H 	H 	0.49220 0.10720 0.67770 0.01900
C 	C 	0.48040 0.58250 0.91940 0.02400
H 	H 	0.51960 0.62020 0.88430 0.00500
H 	H 	0.59850 0.57160 0.88430 0.03200
O 	O 	0.48520 0.61578 0.61440 0.32500
H 	H 	0.39200 0.45810 0.88620 0.01000
C 	C 	0.50400 0.77370 0.64770 0.05700
C 	C 	0.49500 0.78140 0.39730 0.02400
H 	H 	0.50760 0.74340 0.73070 0.02300
C 	C 	0.50400 0.85480 0.65570 0.06400
C 	C 	0.50500 0.86250 0.59470 -0.17100
H 	H 	0.49240 0.75640 0.30870 -0.04400
H 	H 	0.50740 0.87980 0.74420 -0.02500
H 	H 	0.50780 0.89280 0.67770 0.02100
C 	C 	0.51960 0.41750 0.91940 0.01600
H 	H 	0.48040 0.37980 0.88430 0.00500
H 	H 	0.40150 0.42840 0.88430 0.03100
O 	O 	0.61578 0.51480 0.61440 -0.77900
H 	H 	0.45810 0.60800 0.88620 -0.00500
C 	C 	0.77370 0.49600 0.64770 0.09500
C 	C 	0.78140 0.50500 0.39730 -0.01100
H 	H 	0.74340 0.49240 0.73070 0.11000
C 	C 	0.85480 0.49600 0.65570 0.07800
C 	C 	0.86250 0.49500 0.59470 -0.15800
H 	H 	0.75640 0.50760 0.30870 -0.13500
H 	H 	0.87980 0.49260 0.74420 -0.00700
H 	H 	0.89280 0.49220 0.67770 0.04100
C 	C 	0.41750 0.48040 0.91940 0.01400
H 	H 	0.37980 0.51960 0.88430 0.00700
H 	H 	0.42840 0.59850 0.88430 0.01000
O 	O 	0.38422 0.48520 0.61440 -0.79200
H 	H 	0.54190 0.39200 0.88620 -0.00300
C 	C 	0.22630 0.50400 0.64770 0.09600
C 	C 	0.21860 0.49500 0.39730 -0.01100
H 	H 	0.25660 0.50760 0.73070 0.11700
C 	C 	0.14520 0.50400 0.65570 0.08300
C 	C 	0.13750 0.50500 0.59470 -0.15900
H 	H 	0.24360 0.49240 0.30870 -0.14000
H 	H 	0.12020 0.50740 0.74420 -0.00200
H 	H 	0.10720 0.50780 0.67770 0.04300
C 	C 	0.58250 0.51960 0.91940 0.01500
H 	H 	0.62020 0.48040 0.88430 0.00300
H 	H 	0.57160 0.40150 0.88430 0.01100
O 	O 	0.48520 0.38422 0.38560 -0.79200
H 	H 	0.39200 0.54190 0.11380 -0.01700
C 	C 	0.50400 0.22630 0.35230 0.09700
C 	C 	0.49500 0.21860 0.60270 -0.00900
H 	H 	0.50760 0.25660 0.26930 0.11100
C 	C 	0.50400 0.14520 0.34430 0.06900
C 	C 	0.50500 0.13750 0.40530 -0.15100
H 	H 	0.49240 0.24360 0.69130 -0.14400
H 	H 	0.50740 0.12020 0.25580 -0.00200
H 	H 	0.50780 0.10720 0.32230 0.04700
C 	C 	0.51960 0.58250 0.08060 0.00400
H 	H 	0.48040 0.62020 0.11570 0.01100
H 	H 	0.40150 0.57160 0.11570 0.01600
O 	O 	0.51480 0.61578 0.38560 -0.77900
H 	H 	0.60800 0.45810 0.11380 -0.01800
C 	C 	0.49600 0.77370 0.35230 0.09600
C 	C 	0.50500 0.78140 0.60270 -0.01000
H 	H 	0.49240 0.74340 0.26930 0.10500
C 	C 	0.49600 0.85480 0.34430 0.06400
C 	C 	0.49500 0.86250 0.40530 -0.15000
H 	H 	0.50760 0.75640 0.69130 -0.13800
H 	H 	0.49260 0.87980 0.25580 -0.00500
H 	H 	0.49220 0.89280 0.32230 0.04500
C 	C 	0.48040 0.41750 0.08060 0.00300
H 	H 	0.51960 0.37980 0.11570 0.01500
H 	H 	0.59850 0.42840 0.11570 0.01600
O 	O 	0.38422 0.51480 0.38560 0.34000
H 	H 	0.54190 0.60800 0.11380 -0.00500
C 	C 	0.22630 0.49600 0.35230 0.05600
C 	C 	0.21860 0.50500 0.60270 0.03000
H 	H 	0.25660 0.49240 0.26930 0.01600
C 	C 	0.14520 0.49600 0.34430 0.05300
C 	C 	0.13750 0.49500 0.40530 -0.16700
H 	H 	0.24360 0.50760 0.69130 -0.04500
H 	H 	0.12020 0.49260 0.25580 -0.02300
H 	H 	0.10720 0.49220 0.32230 0.02300
C 	C 	0.58250 0.48040 0.08060 0.01400
H 	H 	0.62020 0.51960 0.11570 0.01300
H 	H 	0.57160 0.59850 0.11570 0.03700
O 	O 	0.61578 0.48520 0.38560 0.32500
H 	H 	0.45810 0.39200 0.11380 -0.00500
C 	C 	0.77370 0.50400 0.35230 0.05800
C 	C 	0.78140 0.49500 0.60270 0.02500
H 	H 	0.74340 0.50760 0.26930 0.01700
C 	C 	0.85480 0.50400 0.34430 0.05100
C 	C 	0.86250 0.50500 0.40530 -0.16400
H 	H 	0.75640 0.49240 0.69130 -0.04700
H 	H 	0.87980 0.50740 0.25580 -0.02300
H 	H 	0.89280 0.50780 0.32230 0.02500
C 	C 	0.41750 0.51960 0.08060 0.00600
H 	H 	0.37980 0.48040 0.11570 0.01400
H 	H 	0.42840 0.40150 0.11570 0.03600
Zn	Zn	0.50000 0.50000 0.34758 1.20900
N 	N 	0.50000 0.50000 0.13380 -0.18600
Zn	Zn	0.50000 0.50000 0.65242 1.20800
N 	N 	0.50000 0.50000 0.86620 -0.19600
C 	C 	0.44490 0.44490 0.07940 -0.07700
C 	C 	0.55510 0.55510 0.07940 -0.08600
C 	C 	0.55510 0.44490 0.07940 -0.06100
C 	C 	0.44490 0.55510 0.07940 -0.06100
C 	C 	0.55510 0.44490 0.92060 -0.04800
C 	C 	0.44490 0.55510 0.92060 -0.04800
C 	C 	0.44490 0.44490 0.92060 -0.06400
C 	C 	0.55510 0.55510 0.92060 -0.07300
C 	C 	0.50000 0.64930 0.50000 0.36500
C 	C 	0.50000 0.35070 0.50000 0.36700
C 	C 	0.35070 0.50000 0.50000 0.36700
C 	C 	0.64930 0.50000 0.50000 0.36500
C 	C 	0.50000 0.73710 0.48160 -0.06400
C 	C 	0.50000 0.89920 0.46550 0.17200
N 	N 	0.50000 0.98100 0.44560 -0.06700
C 	C 	0.50000 0.26290 0.48160 -0.06400
C 	C 	0.50000 0.10080 0.46550 0.17400
N 	N 	0.50000 0.01900 0.44560 -0.05700
C 	C 	0.26290 0.50000 0.48160 -0.06400
C 	C 	0.10080 0.50000 0.46550 0.17400
N 	N 	0.01900 0.50000 0.44560 -0.05700
C 	C 	0.73710 0.50000 0.48160 -0.06400
C 	C 	0.89920 0.50000 0.46550 0.17200
N 	N 	0.98100 0.50000 0.44560 -0.06700
C 	C 	0.50000 0.73710 0.51840 -0.06500
C 	C 	0.50000 0.89920 0.53450 0.15700
N 	N 	0.50000 0.98100 0.55440 -0.07100
C 	C 	0.50000 0.26290 0.51840 -0.06500
C 	C 	0.50000 0.10080 0.53450 0.15900
N 	N 	0.50000 0.01900 0.55440 -0.05500
C 	C 	0.73710 0.50000 0.51840 -0.06500
C 	C 	0.89920 0.50000 0.53450 0.15700
N 	N 	0.98100 0.50000 0.55440 -0.07100
C 	C 	0.26290 0.50000 0.51840 -0.06500
C 	C 	0.10080 0.50000 0.53450 0.15900
N 	N 	0.01900 0.50000 0.55440 -0.05500
O 	O 	0.98520 0.11578 0.88560 0.05800
H 	H 	0.89200 0.95810 0.61380 -0.01500
C 	C 	0.00400 0.27370 0.85230 0.02300
C 	C 	0.99500 0.28140 0.10270 -0.02200
H 	H 	0.00760 0.24340 0.76930 0.00400
C 	C 	0.00400 0.35480 0.84430 -0.10000
C 	C 	0.00500 0.36250 0.90530 -0.09000
H 	H 	0.99240 0.25640 0.19130 -0.03200
H 	H 	0.00740 0.37980 0.75580 -0.02700
H 	H 	0.00780 0.39280 0.82230 0.00800
C 	C 	0.01960 0.91750 0.58060 -0.05100
H 	H 	0.98040 0.87980 0.61570 0.01500
H 	H 	0.90150 0.92840 0.61570 0.01500
O 	O 	0.01480 0.88422 0.88560 -0.27900
H 	H 	0.10800 0.04190 0.61380 0.00900
C 	C 	0.99600 0.72630 0.85230 0.09100
C 	C 	0.00500 0.71860 0.10270 -0.05700
H 	H 	0.99240 0.75660 0.76930 0.10600
C 	C 	0.99600 0.64520 0.84430 -0.03800
C 	C 	0.99500 0.63750 0.90530 -0.04300
H 	H 	0.00760 0.74360 0.19130 -0.10100
H 	H 	0.99260 0.62020 0.75580 0.03700
H 	H 	0.99220 0.60720 0.82230 0.08200
C 	C 	0.98040 0.08250 0.58060 0.07400
H 	H 	0.01960 0.12020 0.61570 0.00300
H 	H 	0.09850 0.07160 0.61570 0.04000
O 	O 	0.88422 0.98520 0.88560 -0.16300
H 	H 	0.04190 0.89200 0.61380 0.00400
C 	C 	0.72630 0.00400 0.85230 0.03500
C 	C 	0.71860 0.99500 0.10270 -0.03100
H 	H 	0.75660 0.00760 0.76930 0.02200
C 	C 	0.64520 0.00400 0.84430 -0.08700
C 	C 	0.63750 0.00500 0.90530 -0.09000
H 	H 	0.74360 0.99240 0.19130 -0.05500
H 	H 	0.62020 0.00740 0.75580 -0.01800
H 	H 	0.60720 0.00780 0.82230 0.01800
C 	C 	0.08250 0.01960 0.58060 0.01300
H 	H 	0.12020 0.98040 0.61570 -0.01300
H 	H 	0.07160 0.90150 0.61570 0.02900
O 	O 	0.11578 0.01480 0.88560 -0.46900
H 	H 	0.95810 0.10800 0.61380 -0.01300
C 	C 	0.27370 0.99600 0.85230 0.09700
C 	C 	0.28140 0.00500 0.10270 -0.06400
H 	H 	0.24340 0.99240 0.76930 0.13200
C 	C 	0.35480 0.99600 0.84430 -0.04000
C 	C 	0.36250 0.99500 0.90530 -0.03100
H 	H 	0.25640 0.00760 0.19130 -0.12400
H 	H 	0.37980 0.99260 0.75580 0.05000
H 	H 	0.39280 0.99220 0.82230 0.09400
C 	C 	0.91750 0.98040 0.58060 0.00800
H 	H 	0.87980 0.01960 0.61570 0.03200
H 	H 	0.92840 0.09850 0.61570 0.01200
O 	O 	0.01480 0.11578 0.11440 -0.43300
H 	H 	0.10800 0.95810 0.38620 -0.01300
C 	C 	0.99600 0.27370 0.14770 0.10700
C 	C 	0.00500 0.28140 0.89730 0.01200
H 	H 	0.99240 0.24340 0.23070 0.09800
C 	C 	0.99600 0.35480 0.15570 0.20900
C 	C 	0.99500 0.36250 0.09470 -0.22500
H 	H 	0.00760 0.25640 0.80870 -0.15500
H 	H 	0.99260 0.37980 0.24420 -0.01000
H 	H 	0.99220 0.39280 0.17770 0.04000
C 	C 	0.98040 0.91750 0.41940 0.00800
H 	H 	0.01960 0.87980 0.38430 0.03100
H 	H 	0.09850 0.92840 0.38430 0.01100
O 	O 	0.98520 0.88422 0.11440 -0.22000
H 	H 	0.89200 0.04190 0.38620 0.00200
C 	C 	0.00400 0.72630 0.14770 0.07200
C 	C 	0.99500 0.71860 0.89730 0.06600
H 	H 	0.00760 0.75660 0.23070 0.02900
C 	C 	0.00400 0.64520 0.15570 0.17500
C 	C 	0.00500 0.63750 0.09470 -0.25200
H 	H 	0.99240 0.74360 0.80870 -0.04000
H 	H 	0.00740 0.62020 0.24420 -0.05000
H 	H 	0.00780 0.60720 0.17770 -0.00200
C 	C 	0.01960 0.08250 0.41940 0.01400
H 	H 	0.98040 0.12020 0.38430 -0.01300
H 	H 	0.90150 0.07160 0.38430 0.02900
O 	O 	0.11578 0.98520 0.11440 -0.00300
H 	H 	0.95810 0.89200 0.38620 -0.01400
C 	C 	0.27370 0.00400 0.14770 0.06200
C 	C 	0.28140 0.99500 0.89730 0.08100
H 	H 	0.24340 0.00760 0.23070 0.01000
C 	C 	0.35480 0.00400 0.15570 0.17300
C 	C 	0.36250 0.00500 0.09470 -0.25900
H 	H 	0.25640 0.99240 0.80870 -0.01900
H 	H 	0.37980 0.00740 0.24420 -0.06100
H 	H 	0.39280 0.00780 0.17770 -0.01500
C 	C 	0.91750 0.01960 0.41940 -0.05100
H 	H 	0.87980 0.98040 0.38430 0.01500
H 	H 	0.92840 0.90150 0.38430 0.01400
O 	O 	0.88422 0.01480 0.11440 -0.23900
H 	H 	0.04190 0.10800 0.38620 0.00700
C 	C 	0.72630 0.99600 0.14770 0.10100
C 	C 	0.71860 0.00500 0.89730 0.01300
H 	H 	0.75660 0.99240 0.23070 0.07300
C 	C 	0.64520 0.99600 0.15570 0.19900
C 	C 	0.63750 0.99500 0.09470 -0.23000
H 	H 	0.74360 0.00760 0.80870 -0.13100
H 	H 	0.62020 0.99260 0.24420 -0.02100
H 	H 	0.60720 0.99220 0.17770 0.03000
C 	C 	0.08250 0.98040 0.41940 0.07500
H 	H 	0.12020 0.01960 0.38430 0.00300
H 	H 	0.07160 0.09850 0.38430 0.04000
O 	O 	0.01480 0.88422 0.11440 -0.23900
H 	H 	0.10800 0.04190 0.38620 0.00700
C 	C 	0.99600 0.72630 0.14770 0.10100
C 	C 	0.00500 0.71860 0.89730 0.01300
H 	H 	0.99240 0.75660 0.23070 0.07300
C 	C 	0.99600 0.64520 0.15570 0.19900
C 	C 	0.99500 0.63750 0.09470 -0.23000
H 	H 	0.00760 0.74360 0.80870 -0.13100
H 	H 	0.99260 0.62020 0.24420 -0.02100
H 	H 	0.99220 0.60720 0.17770 0.03000
C 	C 	0.98040 0.08250 0.41940 0.07500
H 	H 	0.01960 0.12020 0.38430 0.00300
H 	H 	0.09850 0.07160 0.38430 0.04000
O 	O 	0.98520 0.11578 0.11440 -0.00300
H 	H 	0.89200 0.95810 0.38620 -0.01400
C 	C 	0.00400 0.27370 0.14770 0.06200
C 	C 	0.99500 0.28140 0.89730 0.08100
H 	H 	0.00760 0.24340 0.23070 0.01000
C 	C 	0.00400 0.35480 0.15570 0.17300
C 	C 	0.00500 0.36250 0.09470 -0.25900
H 	H 	0.99240 0.25640 0.80870 -0.01900
H 	H 	0.00740 0.37980 0.24420 -0.06100
H 	H 	0.00780 0.39280 0.17770 -0.01500
C 	C 	0.01960 0.91750 0.41940 -0.05100
H 	H 	0.98040 0.87980 0.38430 0.01500
H 	H 	0.90150 0.92840 0.38430 0.01400
O 	O 	0.11578 0.01480 0.11440 -0.43300
H 	H 	0.95810 0.10800 0.38620 -0.01300
C 	C 	0.27370 0.99600 0.14770 0.10700
C 	C 	0.28140 0.00500 0.89730 0.01200
H 	H 	0.24340 0.99240 0.23070 0.09800
C 	C 	0.35480 0.99600 0.15570 0.20900
C 	C 	0.36250 0.99500 0.09470 -0.22500
H 	H 	0.25640 0.00760 0.80870 -0.15500
H 	H 	0.37980 0.99260 0.24420 -0.01000
H 	H 	0.39280 0.99220 0.17770 0.04000
C 	C 	0.91750 0.98040 0.41940 0.00800
H 	H 	0.87980 0.01960 0.38430 0.03100
H 	H 	0.92840 0.09850 0.38430 0.01100
O 	O 	0.88422 0.98520 0.11440 -0.22000
H 	H 	0.04190 0.89200 0.38620 0.00200
C 	C 	0.72630 0.00400 0.14770 0.07200
C 	C 	0.71860 0.99500 0.89730 0.06600
H 	H 	0.75660 0.00760 0.23070 0.02900
C 	C 	0.64520 0.00400 0.15570 0.17500
C 	C 	0.63750 0.00500 0.09470 -0.25200
H 	H 	0.74360 0.99240 0.80870 -0.04000
H 	H 	0.62020 0.00740 0.24420 -0.05000
H 	H 	0.60720 0.00780 0.17770 -0.00200
C 	C 	0.08250 0.01960 0.41940 0.01400
H 	H 	0.12020 0.98040 0.38430 -0.01300
H 	H 	0.07160 0.90150 0.38430 0.02900
O 	O 	0.98520 0.88422 0.88560 -0.16300
H 	H 	0.89200 0.04190 0.61380 0.00400
C 	C 	0.00400 0.72630 0.85230 0.03500
C 	C 	0.99500 0.71860 0.10270 -0.03100
H 	H 	0.00760 0.75660 0.76930 0.02200
C 	C 	0.00400 0.64520 0.84430 -0.08700
C 	C 	0.00500 0.63750 0.90530 -0.09000
H 	H 	0.99240 0.74360 0.19130 -0.05500
H 	H 	0.00740 0.62020 0.75580 -0.01800
H 	H 	0.00780 0.60720 0.82230 0.01800
C 	C 	0.01960 0.08250 0.58060 0.01300
H 	H 	0.98040 0.12020 0.61570 -0.01300
H 	H 	0.90150 0.07160 0.61570 0.02900
O 	O 	0.01480 0.11578 0.88560 -0.46900
H 	H 	0.10800 0.95810 0.61380 -0.01300
C 	C 	0.99600 0.27370 0.85230 0.09700
C 	C 	0.00500 0.28140 0.10270 -0.06400
H 	H 	0.99240 0.24340 0.76930 0.13200
C 	C 	0.99600 0.35480 0.84430 -0.04000
C 	C 	0.99500 0.36250 0.90530 -0.03100
H 	H 	0.00760 0.25640 0.19130 -0.12400
H 	H 	0.99260 0.37980 0.75580 0.05000
H 	H 	0.99220 0.39280 0.82230 0.09400
C 	C 	0.98040 0.91750 0.58060 0.00800
H 	H 	0.01960 0.87980 0.61570 0.03200
H 	H 	0.09850 0.92840 0.61570 0.01200
O 	O 	0.88422 0.01480 0.88560 -0.27900
H 	H 	0.04190 0.10800 0.61380 0.00900
C 	C 	0.72630 0.99600 0.85230 0.09100
C 	C 	0.71860 0.00500 0.10270 -0.05700
H 	H 	0.75660 0.99240 0.76930 0.10600
C 	C 	0.64520 0.99600 0.84430 -0.03800
C 	C 	0.63750 0.99500 0.90530 -0.04300
H 	H 	0.74360 0.00760 0.19130 -0.10100
H 	H 	0.62020 0.99260 0.75580 0.03700
H 	H 	0.60720 0.99220 0.82230 0.08200
C 	C 	0.08250 0.98040 0.58060 0.07400
H 	H 	0.12020 0.01960 0.61570 0.00300
H 	H 	0.07160 0.09850 0.61570 0.04000
O 	O 	0.11578 0.98520 0.88560 0.05800
H 	H 	0.95810 0.89200 0.61380 -0.01500
C 	C 	0.27370 0.00400 0.85230 0.02300
C 	C 	0.28140 0.99500 0.10270 -0.02200
H 	H 	0.24340 0.00760 0.76930 0.00400
C 	C 	0.35480 0.00400 0.84430 -0.10000
C 	C 	0.36250 0.00500 0.90530 -0.09000
H 	H 	0.25640 0.99240 0.19130 -0.03200
H 	H 	0.37980 0.00740 0.75580 -0.02700
H 	H 	0.39280 0.00780 0.82230 0.00800
C 	C 	0.91750 0.01960 0.58060 -0.05100
H 	H 	0.87980 0.98040 0.61570 0.01500
H 	H 	0.92840 0.90150 0.61570 0.01500
Zn	Zn	0.00000 0.00000 0.84758 1.21200
N 	N 	0.00000 0.00000 0.63380 -0.18600
Zn	Zn	0.00000 0.00000 0.15242 1.20700
N 	N 	0.00000 0.00000 0.36620 -0.18800
C 	C 	0.94490 0.94490 0.57940 -0.00600
C 	C 	0.05510 0.05510 0.57940 -0.13200
C 	C 	0.05510 0.94490 0.57940 -0.06100
C 	C 	0.94490 0.05510 0.57940 -0.06100
C 	C 	0.05510 0.94490 0.42060 -0.06000
C 	C 	0.94490 0.05510 0.42060 -0.06000
C 	C 	0.94490 0.94490 0.42060 -0.00500
C 	C 	0.05510 0.05510 0.42060 -0.13200
C 	C 	-0.00000 0.14930 -0.00000 0.32100
C 	C 	-0.00000 0.85070 -0.00000 0.32000
C 	C 	0.85070 0.00000 -0.00000 0.32000
C 	C 	0.14930 0.00000 -0.00000 0.32100
C 	C 	-0.00000 0.23710 0.98160 -0.10500
C 	C 	-0.00000 0.39920 0.96550 0.23600
N 	N 	0.00000 0.48100 0.94560 -0.06200
C 	C 	0.00000 0.76290 0.98160 -0.10200
C 	C 	-0.00000 0.60080 0.96550 0.23400
N 	N 	-0.00000 0.51900 0.94560 -0.06100
C 	C 	0.76290 -0.00000 0.98160 -0.10200
C 	C 	0.60080 -0.00000 0.96550 0.23400
N 	N 	0.51900 0.00000 0.94560 -0.06100
C 	C 	0.23710 -0.00000 0.98160 -0.10500
C 	C 	0.39920 -0.00000 0.96550 0.23600
N 	N 	0.48100 0.00000 0.94560 -0.06200
C 	C 	-0.00000 0.23710 0.01840 0.00800
C 	C 	-0.00000 0.39920 0.03450 0.08000
N 	N 	-0.00000 0.48100 0.05440 -0.05900
C 	C 	0.00000 0.76290 0.01840 0.00300
C 	C 	-0.00000 0.60080 0.03450 0.08600
N 	N 	-0.00000 0.51900 0.05440 -0.06300
C 	C 	0.23710 0.00000 0.01840 0.00800
C 	C 	0.39920 0.00000 0.03450 0.08000
N 	N 	0.48100 0.00000 0.05440 -0.05900
C 	C 	0.76290 0.00000 0.01840 0.00300
C 	C 	0.60080 0.00000 0.03450 0.08600
N 	N 	0.51900 0.00000 0.05440 -0.06300
