data_crystal

_cell_length_a 18.20560
_cell_length_b 18.20560
_cell_length_c 40.66550
_cell_angle_alpha 90.00000
_cell_angle_beta  90.00000
_cell_angle_gamma 120.00000

_symmetry_space_group_name_	'P 1'
_symmetry_space_group_name_H-M	'P 1'

loop_
_symmetry_equiv_pos_as_xyz
  x,y,z

loop_
_atom_site_label
_atom_site_type_symbol
_atom_site_fract_x
_atom_site_fract_y
_atom_site_fract_z
_atom_site_charge
Cu	Cu	0.47485 0.94970 0.52540 0.90700
Cu	Cu	0.47485 0.52514 0.52540 0.90700
Cu	Cu	0.05029 0.52514 0.52540 0.90700
Cu	Cu	0.52515 0.05030 0.02540 0.90700
Cu	Cu	0.52515 0.47486 0.02540 0.90700
Cu	Cu	0.94971 0.47486 0.02540 0.90700
Cu	Cu	0.52515 0.05030 0.47460 0.90700
Cu	Cu	0.94971 0.47486 0.47460 0.90700
Cu	Cu	0.52515 0.47486 0.47460 0.90700
Cu	Cu	0.47485 0.94970 0.97460 0.90700
Cu	Cu	0.05029 0.52514 0.97460 0.90700
Cu	Cu	0.47485 0.52514 0.97460 0.90700
Cu	Cu	0.94173 0.05828 0.25000 0.93900
Cu	Cu	0.11655 0.05828 0.25000 0.94100
Cu	Cu	0.94173 0.88346 0.25000 0.94100
Cu	Cu	0.05827 0.94172 0.75000 0.93900
Cu	Cu	0.88345 0.94172 0.75000 0.94100
Cu	Cu	0.05827 0.11654 0.75000 0.94100
H 	H 	0.63800 0.93600 0.41660 0.03200
H 	H 	0.69670 0.95570 0.37490 0.11000
H 	H 	0.77850 0.99640 0.32830 -0.00700
H 	H 	0.29800 0.36200 0.41660 0.03200
H 	H 	0.25900 0.30330 0.37490 0.11000
H 	H 	0.21790 0.22150 0.32830 -0.00800
H 	H 	0.06400 0.70200 0.41660 0.03200
H 	H 	0.04430 0.74100 0.37490 0.11100
H 	H 	0.00360 0.78210 0.32830 -0.00700
H 	H 	0.36200 0.06400 0.91660 0.03200
H 	H 	0.30330 0.04430 0.87490 0.11000
H 	H 	0.22150 0.00360 0.82830 -0.00700
H 	H 	0.70200 0.63800 0.91660 0.03200
H 	H 	0.74100 0.69670 0.87490 0.11000
H 	H 	0.78210 0.77850 0.82830 -0.00800
H 	H 	0.93600 0.29800 0.91660 0.03200
H 	H 	0.95570 0.25900 0.87490 0.11100
H 	H 	0.99640 0.21790 0.82830 -0.00700
H 	H 	0.70200 0.06400 0.58340 0.03200
H 	H 	0.74100 0.04430 0.62510 0.11100
H 	H 	0.78210 0.00360 0.67170 -0.00700
H 	H 	0.93600 0.63800 0.58340 0.03200
H 	H 	0.95570 0.69670 0.62510 0.11000
H 	H 	0.99640 0.77850 0.67170 -0.00700
H 	H 	0.36200 0.29800 0.58340 0.03200
H 	H 	0.30330 0.25900 0.62510 0.11000
H 	H 	0.22150 0.21790 0.67170 -0.00800
H 	H 	0.29800 0.93600 0.08340 0.03200
H 	H 	0.25900 0.95570 0.12510 0.11100
H 	H 	0.21790 0.99640 0.17170 -0.00700
H 	H 	0.06400 0.36200 0.08340 0.03200
H 	H 	0.04430 0.30330 0.12510 0.11000
H 	H 	0.00360 0.22150 0.17170 -0.00700
H 	H 	0.63800 0.70200 0.08340 0.03200
H 	H 	0.69670 0.74100 0.12510 0.11000
H 	H 	0.77850 0.78210 0.17170 -0.00800
H 	H 	0.36200 0.06400 0.58340 0.03200
H 	H 	0.30330 0.04430 0.62510 0.11000
H 	H 	0.22150 0.00360 0.67170 -0.00700
H 	H 	0.70200 0.63800 0.58340 0.03200
H 	H 	0.74100 0.69670 0.62510 0.11000
H 	H 	0.78210 0.77850 0.67170 -0.00800
H 	H 	0.93600 0.29800 0.58340 0.03200
H 	H 	0.95570 0.25900 0.62510 0.11100
H 	H 	0.99640 0.21790 0.67170 -0.00700
H 	H 	0.63800 0.93600 0.08340 0.03200
H 	H 	0.69670 0.95570 0.12510 0.11000
H 	H 	0.77850 0.99640 0.17170 -0.00700
H 	H 	0.29800 0.36200 0.08340 0.03200
H 	H 	0.25900 0.30330 0.12510 0.11000
H 	H 	0.21790 0.22150 0.17170 -0.00800
H 	H 	0.06400 0.70200 0.08340 0.03200
H 	H 	0.04430 0.74100 0.12510 0.11100
H 	H 	0.00360 0.78210 0.17170 -0.00700
H 	H 	0.29800 0.93600 0.41660 0.03200
H 	H 	0.25900 0.95570 0.37490 0.11100
H 	H 	0.21790 0.99640 0.32830 -0.00700
H 	H 	0.06400 0.36200 0.41660 0.03200
H 	H 	0.04430 0.30330 0.37490 0.11000
H 	H 	0.00360 0.22150 0.32830 -0.00700
H 	H 	0.63800 0.70200 0.41660 0.03200
H 	H 	0.69670 0.74100 0.37490 0.11000
H 	H 	0.77850 0.78210 0.32830 -0.00800
H 	H 	0.70200 0.06400 0.91660 0.03200
H 	H 	0.74100 0.04430 0.87490 0.11100
H 	H 	0.78210 0.00360 0.82830 -0.00700
H 	H 	0.93600 0.63800 0.91660 0.03200
H 	H 	0.95570 0.69670 0.87490 0.11000
H 	H 	0.99640 0.77850 0.82830 -0.00700
H 	H 	0.36200 0.29800 0.91660 0.03200
H 	H 	0.30330 0.25900 0.87490 0.11000
H 	H 	0.22150 0.21790 0.82830 -0.00800
H 	H 	0.53400 0.76700 0.49020 0.04800
H 	H 	0.23300 0.46600 0.49020 0.04800
H 	H 	0.23300 0.76700 0.49020 0.04800
H 	H 	0.46600 0.23300 0.99020 0.04800
H 	H 	0.76700 0.53400 0.99020 0.04800
H 	H 	0.76700 0.23300 0.99020 0.04800
H 	H 	0.76700 0.23300 0.50980 0.04800
H 	H 	0.76700 0.53400 0.50980 0.04800
H 	H 	0.46600 0.23300 0.50980 0.04800
H 	H 	0.23300 0.76700 0.00980 0.04800
H 	H 	0.23300 0.46600 0.00980 0.04800
H 	H 	0.53400 0.76700 0.00980 0.04800
C 	C 	0.55310 0.91270 0.47175 0.36200
C 	C 	0.57960 0.85560 0.45575 -0.10700
C 	C 	0.62270 0.87770 0.42613 0.03600
C 	C 	0.76290 0.94300 0.33788 0.17300
C 	C 	0.35960 0.44690 0.47175 0.36200
C 	C 	0.27600 0.42040 0.45575 -0.10700
C 	C 	0.25500 0.37730 0.42613 0.03600
C 	C 	0.18010 0.23710 0.33788 0.17300
C 	C 	0.08730 0.64040 0.47175 0.36100
C 	C 	0.14440 0.72400 0.45575 -0.10700
C 	C 	0.12230 0.74500 0.42613 0.03600
C 	C 	0.05700 0.81990 0.33788 0.17300
C 	C 	0.44690 0.08730 0.97175 0.36100
C 	C 	0.42040 0.14440 0.95575 -0.10700
C 	C 	0.37730 0.12230 0.92613 0.03600
C 	C 	0.23710 0.05700 0.83788 0.17300
C 	C 	0.64040 0.55310 0.97175 0.36200
C 	C 	0.72400 0.57960 0.95575 -0.10700
C 	C 	0.74500 0.62270 0.92613 0.03600
C 	C 	0.81990 0.76290 0.83788 0.17300
C 	C 	0.91270 0.35960 0.97175 0.36100
C 	C 	0.85560 0.27600 0.95575 -0.10700
C 	C 	0.87770 0.25500 0.92613 0.03600
C 	C 	0.94300 0.18010 0.83788 0.17300
C 	C 	0.64040 0.08730 0.52825 0.36200
C 	C 	0.72400 0.14440 0.54425 -0.10700
C 	C 	0.74500 0.12230 0.57387 0.03600
C 	C 	0.81990 0.05700 0.66212 0.17300
C 	C 	0.91270 0.55310 0.52825 0.36200
C 	C 	0.85560 0.57960 0.54425 -0.10700
C 	C 	0.87770 0.62270 0.57387 0.03600
C 	C 	0.94300 0.76290 0.66212 0.17300
C 	C 	0.44690 0.35960 0.52825 0.36200
C 	C 	0.42040 0.27600 0.54425 -0.10700
C 	C 	0.37730 0.25500 0.57387 0.03600
C 	C 	0.23710 0.18010 0.66212 0.17300
C 	C 	0.35960 0.91270 0.02825 0.36100
C 	C 	0.27600 0.85560 0.04425 -0.10700
C 	C 	0.25500 0.87770 0.07387 0.03600
C 	C 	0.18010 0.94300 0.16212 0.17300
C 	C 	0.08730 0.44690 0.02825 0.36100
C 	C 	0.14440 0.42040 0.04425 -0.10700
C 	C 	0.12230 0.37730 0.07387 0.03600
C 	C 	0.05700 0.23710 0.16212 0.17300
C 	C 	0.55310 0.64040 0.02825 0.36200
C 	C 	0.57960 0.72400 0.04425 -0.10700
C 	C 	0.62270 0.74500 0.07387 0.03600
C 	C 	0.76290 0.81990 0.16212 0.17300
C 	C 	0.44690 0.08730 0.52825 0.36200
C 	C 	0.42040 0.14440 0.54425 -0.10700
C 	C 	0.37730 0.12230 0.57387 0.03600
C 	C 	0.23710 0.05700 0.66212 0.17300
C 	C 	0.64040 0.55310 0.52825 0.36200
C 	C 	0.72400 0.57960 0.54425 -0.10700
C 	C 	0.74500 0.62270 0.57387 0.03600
C 	C 	0.81990 0.76290 0.66212 0.17300
C 	C 	0.91270 0.35960 0.52825 0.36100
C 	C 	0.85560 0.27600 0.54425 -0.10700
C 	C 	0.87770 0.25500 0.57387 0.03600
C 	C 	0.94300 0.18010 0.66212 0.17300
C 	C 	0.55310 0.91270 0.02825 0.36100
C 	C 	0.57960 0.85560 0.04425 -0.10700
C 	C 	0.62270 0.87770 0.07387 0.03600
C 	C 	0.76290 0.94300 0.16212 0.17300
C 	C 	0.35960 0.44690 0.02825 0.36200
C 	C 	0.27600 0.42040 0.04425 -0.10700
C 	C 	0.25500 0.37730 0.07387 0.03600
C 	C 	0.18010 0.23710 0.16212 0.17300
C 	C 	0.08730 0.64040 0.02825 0.36100
C 	C 	0.14440 0.72400 0.04425 -0.10700
C 	C 	0.12230 0.74500 0.07387 0.03600
C 	C 	0.05700 0.81990 0.16212 0.17300
C 	C 	0.35960 0.91270 0.47175 0.36200
C 	C 	0.27600 0.85560 0.45575 -0.10700
C 	C 	0.25500 0.87770 0.42613 0.03600
C 	C 	0.18010 0.94300 0.33788 0.17300
C 	C 	0.08730 0.44690 0.47175 0.36200
C 	C 	0.14440 0.42040 0.45575 -0.10700
C 	C 	0.12230 0.37730 0.42613 0.03600
C 	C 	0.05700 0.23710 0.33788 0.17300
C 	C 	0.55310 0.64040 0.47175 0.36200
C 	C 	0.57960 0.72400 0.45575 -0.10700
C 	C 	0.62270 0.74500 0.42613 0.03600
C 	C 	0.76290 0.81990 0.33788 0.17300
C 	C 	0.64040 0.08730 0.97175 0.36100
C 	C 	0.72400 0.14440 0.95575 -0.10700
C 	C 	0.74500 0.12230 0.92613 0.03600
C 	C 	0.81990 0.05700 0.83788 0.17300
C 	C 	0.91270 0.55310 0.97175 0.36100
C 	C 	0.85560 0.57960 0.95575 -0.10700
C 	C 	0.87770 0.62270 0.92613 0.03600
C 	C 	0.94300 0.76290 0.83788 0.17300
C 	C 	0.44690 0.35960 0.97175 0.36200
C 	C 	0.42040 0.27600 0.95575 -0.10700
C 	C 	0.37730 0.25500 0.92613 0.03600
C 	C 	0.23710 0.18010 0.83788 0.17300
C 	C 	0.55940 0.77970 0.47088 0.04500
C 	C 	0.64550 0.82275 0.41117 -0.07800
C 	C 	0.69290 0.84645 0.37947 0.17400
C 	C 	0.78890 0.89445 0.32368 -0.25500
C 	C 	0.84550 0.92275 0.29440 0.52000
C 	C 	0.22030 0.44060 0.47088 0.04500
C 	C 	0.17725 0.35450 0.41117 -0.07800
C 	C 	0.15355 0.30710 0.37947 0.17400
C 	C 	0.10555 0.21110 0.32368 -0.25500
C 	C 	0.07725 0.15450 0.29440 0.52000
C 	C 	0.22030 0.77970 0.47088 0.04500
C 	C 	0.17725 0.82275 0.41117 -0.07700
C 	C 	0.15355 0.84645 0.37947 0.17400
C 	C 	0.10555 0.89445 0.32368 -0.25400
C 	C 	0.07725 0.92275 0.29440 0.51900
C 	C 	0.44060 0.22030 0.97088 0.04500
C 	C 	0.35450 0.17725 0.91117 -0.07800
C 	C 	0.30710 0.15355 0.87947 0.17400
C 	C 	0.21110 0.10555 0.82368 -0.25500
C 	C 	0.15450 0.07725 0.79440 0.52000
C 	C 	0.77970 0.55940 0.97088 0.04500
C 	C 	0.82275 0.64550 0.91117 -0.07800
C 	C 	0.84645 0.69290 0.87947 0.17400
C 	C 	0.89445 0.78890 0.82368 -0.25500
C 	C 	0.92275 0.84550 0.79440 0.52000
C 	C 	0.77970 0.22030 0.97088 0.04500
C 	C 	0.82275 0.17725 0.91117 -0.07700
C 	C 	0.84645 0.15355 0.87947 0.17400
C 	C 	0.89445 0.10555 0.82368 -0.25400
C 	C 	0.92275 0.07725 0.79440 0.51900
C 	C 	0.77970 0.22030 0.52912 0.04500
C 	C 	0.82275 0.17725 0.58883 -0.07700
C 	C 	0.84645 0.15355 0.62053 0.17400
C 	C 	0.89445 0.10555 0.67632 -0.25400
C 	C 	0.92275 0.07725 0.70560 0.51900
C 	C 	0.77970 0.55940 0.52912 0.04500
C 	C 	0.82275 0.64550 0.58883 -0.07800
C 	C 	0.84645 0.69290 0.62053 0.17400
C 	C 	0.89445 0.78890 0.67632 -0.25500
C 	C 	0.92275 0.84550 0.70560 0.52000
C 	C 	0.44060 0.22030 0.52912 0.04500
C 	C 	0.35450 0.17725 0.58883 -0.07800
C 	C 	0.30710 0.15355 0.62053 0.17400
C 	C 	0.21110 0.10555 0.67632 -0.25500
C 	C 	0.15450 0.07725 0.70560 0.52000
C 	C 	0.22030 0.77970 0.02912 0.04500
C 	C 	0.17725 0.82275 0.08883 -0.07700
C 	C 	0.15355 0.84645 0.12053 0.17400
C 	C 	0.10555 0.89445 0.17632 -0.25400
C 	C 	0.07725 0.92275 0.20560 0.51900
C 	C 	0.22030 0.44060 0.02912 0.04500
C 	C 	0.17725 0.35450 0.08883 -0.07800
C 	C 	0.15355 0.30710 0.12053 0.17400
C 	C 	0.10555 0.21110 0.17632 -0.25500
C 	C 	0.07725 0.15450 0.20560 0.52000
C 	C 	0.55940 0.77970 0.02912 0.04500
C 	C 	0.64550 0.82275 0.08883 -0.07800
C 	C 	0.69290 0.84645 0.12053 0.17400
C 	C 	0.78890 0.89445 0.17632 -0.25500
C 	C 	0.84550 0.92275 0.20560 0.52000
N 	N 	0.71460 0.91940 0.36562 -0.22500
N 	N 	0.20480 0.28540 0.36562 -0.22500
N 	N 	0.08060 0.79520 0.36562 -0.22400
N 	N 	0.28540 0.08060 0.86562 -0.22500
N 	N 	0.79520 0.71460 0.86562 -0.22500
N 	N 	0.91940 0.20480 0.86562 -0.22400
N 	N 	0.79520 0.08060 0.63438 -0.22400
N 	N 	0.91940 0.71460 0.63438 -0.22500
N 	N 	0.28540 0.20480 0.63438 -0.22500
N 	N 	0.20480 0.91940 0.13438 -0.22400
N 	N 	0.08060 0.28540 0.13438 -0.22500
N 	N 	0.71460 0.79520 0.13438 -0.22500
N 	N 	0.28540 0.08060 0.63438 -0.22500
N 	N 	0.79520 0.71460 0.63438 -0.22500
N 	N 	0.91940 0.20480 0.63438 -0.22400
N 	N 	0.71460 0.91940 0.13438 -0.22500
N 	N 	0.20480 0.28540 0.13438 -0.22500
N 	N 	0.08060 0.79520 0.13438 -0.22400
N 	N 	0.20480 0.91940 0.36562 -0.22400
N 	N 	0.08060 0.28540 0.36562 -0.22500
N 	N 	0.71460 0.79520 0.36562 -0.22500
N 	N 	0.79520 0.08060 0.86562 -0.22400
N 	N 	0.91940 0.71460 0.86562 -0.22500
N 	N 	0.28540 0.20480 0.86562 -0.22500
O 	O 	0.51987 0.89042 0.49986 -0.40900
O 	O 	0.56439 0.97746 0.45620 -0.40600
O 	O 	0.86610 0.99120 0.28288 -0.47500
O 	O 	0.37055 0.48013 0.49986 -0.40800
O 	O 	0.41307 0.43561 0.45620 -0.40700
O 	O 	0.12510 0.13390 0.28288 -0.47600
O 	O 	0.10958 0.62945 0.49986 -0.40900
O 	O 	0.02254 0.58693 0.45620 -0.40600
O 	O 	0.00880 0.87490 0.28288 -0.47400
O 	O 	0.48013 0.10958 0.99986 -0.40800
O 	O 	0.43561 0.02254 0.95620 -0.40600
O 	O 	0.13390 0.00880 0.78288 -0.47500
O 	O 	0.62945 0.51987 0.99986 -0.40800
O 	O 	0.58693 0.56439 0.95620 -0.40700
O 	O 	0.87490 0.86610 0.78288 -0.47600
O 	O 	0.89042 0.37055 0.99986 -0.40800
O 	O 	0.97746 0.41307 0.95620 -0.40600
O 	O 	0.99120 0.12510 0.78288 -0.47400
O 	O 	0.62945 0.10958 0.50014 -0.40900
O 	O 	0.58693 0.02254 0.54380 -0.40600
O 	O 	0.87490 0.00880 0.71712 -0.47400
O 	O 	0.89042 0.51987 0.50014 -0.40900
O 	O 	0.97746 0.56439 0.54380 -0.40600
O 	O 	0.99120 0.86610 0.71712 -0.47500
O 	O 	0.48013 0.37055 0.50014 -0.40800
O 	O 	0.43561 0.41307 0.54380 -0.40700
O 	O 	0.13390 0.12510 0.71712 -0.47600
O 	O 	0.37055 0.89042 0.00014 -0.40800
O 	O 	0.41307 0.97746 0.04380 -0.40600
O 	O 	0.12510 0.99120 0.21712 -0.47400
O 	O 	0.10958 0.48013 0.00014 -0.40800
O 	O 	0.02254 0.43561 0.04380 -0.40600
O 	O 	0.00880 0.13390 0.21712 -0.47500
O 	O 	0.51987 0.62945 0.00014 -0.40800
O 	O 	0.56439 0.58693 0.04380 -0.40700
O 	O 	0.86610 0.87490 0.21712 -0.47600
O 	O 	0.48013 0.10958 0.50014 -0.40900
O 	O 	0.43561 0.02254 0.54380 -0.40600
O 	O 	0.13390 0.00880 0.71712 -0.47500
O 	O 	0.62945 0.51987 0.50014 -0.40800
O 	O 	0.58693 0.56439 0.54380 -0.40700
O 	O 	0.87490 0.86610 0.71712 -0.47600
O 	O 	0.89042 0.37055 0.50014 -0.40900
O 	O 	0.97746 0.41307 0.54380 -0.40600
O 	O 	0.99120 0.12510 0.71712 -0.47400
O 	O 	0.51987 0.89042 0.00014 -0.40800
O 	O 	0.56439 0.97746 0.04380 -0.40600
O 	O 	0.86610 0.99120 0.21712 -0.47500
O 	O 	0.37055 0.48013 0.00014 -0.40800
O 	O 	0.41307 0.43561 0.04380 -0.40700
O 	O 	0.12510 0.13390 0.21712 -0.47600
O 	O 	0.10958 0.62945 0.00014 -0.40800
O 	O 	0.02254 0.58693 0.04380 -0.40600
O 	O 	0.00880 0.87490 0.21712 -0.47400
O 	O 	0.37055 0.89042 0.49986 -0.40900
O 	O 	0.41307 0.97746 0.45620 -0.40600
O 	O 	0.12510 0.99120 0.28288 -0.47400
O 	O 	0.10958 0.48013 0.49986 -0.40900
O 	O 	0.02254 0.43561 0.45620 -0.40600
O 	O 	0.00880 0.13390 0.28288 -0.47500
O 	O 	0.51987 0.62945 0.49986 -0.40800
O 	O 	0.56439 0.58693 0.45620 -0.40700
O 	O 	0.86610 0.87490 0.28288 -0.47600
O 	O 	0.62945 0.10958 0.99986 -0.40800
O 	O 	0.58693 0.02254 0.95620 -0.40600
O 	O 	0.87490 0.00880 0.78288 -0.47400
O 	O 	0.89042 0.51987 0.99986 -0.40800
O 	O 	0.97746 0.56439 0.95620 -0.40600
O 	O 	0.99120 0.86610 0.78288 -0.47500
O 	O 	0.48013 0.37055 0.99986 -0.40800
O 	O 	0.43561 0.41307 0.95620 -0.40700
O 	O 	0.13390 0.12510 0.78288 -0.47600
