data_crystal

_cell_length_a 18.44560
_cell_length_b 18.44560
_cell_length_c 39.53690
_cell_angle_alpha 90.00000
_cell_angle_beta  90.00000
_cell_angle_gamma 120.00000

_symmetry_space_group_name_	'P 1'
_symmetry_space_group_name_H-M	'P 1'

loop_
_symmetry_equiv_pos_as_xyz
  x,y,z

loop_
_atom_site_label
_atom_site_type_symbol
_atom_site_fract_x
_atom_site_fract_y
_atom_site_fract_z
_atom_site_charge
Cu	Cu	0.52450 0.04900 0.47266 0.91000
Cu	Cu	0.52450 0.47550 0.47266 0.91000
Cu	Cu	0.95100 0.47550 0.47266 0.91000
Cu	Cu	0.47550 0.95100 0.97266 0.91000
Cu	Cu	0.47550 0.52450 0.97266 0.91000
Cu	Cu	0.04900 0.52450 0.97266 0.91000
Cu	Cu	0.47550 0.95100 0.52734 0.91000
Cu	Cu	0.04900 0.52450 0.52734 0.91000
Cu	Cu	0.47550 0.52450 0.52734 0.91000
Cu	Cu	0.52450 0.04900 0.02734 0.91000
Cu	Cu	0.95100 0.47550 0.02734 0.91000
Cu	Cu	0.52450 0.47550 0.02734 0.91000
Cu	Cu	0.06242 0.93759 0.75000 0.94800
Cu	Cu	0.87517 0.93759 0.75000 0.94900
Cu	Cu	0.06242 0.12484 0.75000 0.94900
Cu	Cu	0.93758 0.06241 0.25000 0.94800
Cu	Cu	0.12483 0.06241 0.25000 0.94900
Cu	Cu	0.93758 0.87516 0.25000 0.94900
H 	H 	0.36700 0.07410 0.58380 0.05300
H 	H 	0.21910 0.21640 0.66950 0.01100
H 	H 	0.70710 0.63300 0.58380 0.05200
H 	H 	0.99730 0.78090 0.66950 0.01200
H 	H 	0.92590 0.29290 0.58380 0.05300
H 	H 	0.78360 0.00270 0.66950 0.01200
H 	H 	0.63300 0.92590 0.08380 0.05300
H 	H 	0.78090 0.78360 0.16950 0.01100
H 	H 	0.29290 0.36700 0.08380 0.05200
H 	H 	0.00270 0.21910 0.16950 0.01200
H 	H 	0.07410 0.70710 0.08380 0.05300
H 	H 	0.21640 0.99730 0.16950 0.01200
H 	H 	0.29290 0.92590 0.41620 0.05300
H 	H 	0.00270 0.78360 0.33050 0.01200
H 	H 	0.07410 0.36700 0.41620 0.05300
H 	H 	0.21640 0.21910 0.33050 0.01100
H 	H 	0.63300 0.70710 0.41620 0.05200
H 	H 	0.78090 0.99730 0.33050 0.01200
H 	H 	0.70710 0.07410 0.91620 0.05300
H 	H 	0.99730 0.21640 0.83050 0.01200
H 	H 	0.92590 0.63300 0.91620 0.05300
H 	H 	0.78360 0.78090 0.83050 0.01100
H 	H 	0.36700 0.29290 0.91620 0.05200
H 	H 	0.21910 0.00270 0.83050 0.01200
H 	H 	0.63300 0.92590 0.41620 0.05300
H 	H 	0.78090 0.78360 0.33050 0.01100
H 	H 	0.29290 0.36700 0.41620 0.05200
H 	H 	0.00270 0.21910 0.33050 0.01200
H 	H 	0.07410 0.70710 0.41620 0.05300
H 	H 	0.21640 0.99730 0.33050 0.01200
H 	H 	0.36700 0.07410 0.91620 0.05300
H 	H 	0.21910 0.21640 0.83050 0.01100
H 	H 	0.70710 0.63300 0.91620 0.05200
H 	H 	0.99730 0.78090 0.83050 0.01200
H 	H 	0.92590 0.29290 0.91620 0.05300
H 	H 	0.78360 0.00270 0.83050 0.01200
H 	H 	0.70710 0.07410 0.58380 0.05300
H 	H 	0.99730 0.21640 0.66950 0.01200
H 	H 	0.92590 0.63300 0.58380 0.05300
H 	H 	0.78360 0.78090 0.66950 0.01100
H 	H 	0.36700 0.29290 0.58380 0.05200
H 	H 	0.21910 0.00270 0.66950 0.01200
H 	H 	0.29290 0.92590 0.08380 0.05300
H 	H 	0.00270 0.78360 0.16950 0.01200
H 	H 	0.07410 0.36700 0.08380 0.05300
H 	H 	0.21640 0.21910 0.16950 0.01100
H 	H 	0.63300 0.70710 0.08380 0.05200
H 	H 	0.78090 0.99730 0.16950 0.01200
H 	H 	0.47170 0.23585 0.50620 0.04600
H 	H 	0.76415 0.52830 0.50620 0.04600
H 	H 	0.76415 0.23585 0.50620 0.04600
H 	H 	0.52830 0.76415 0.00620 0.04600
H 	H 	0.23585 0.47170 0.00620 0.04600
H 	H 	0.23585 0.76415 0.00620 0.04600
H 	H 	0.23585 0.76415 0.49380 0.04600
H 	H 	0.23585 0.47170 0.49380 0.04600
H 	H 	0.52830 0.76415 0.49380 0.04600
H 	H 	0.76415 0.23585 0.99380 0.04600
H 	H 	0.76415 0.52830 0.99380 0.04600
H 	H 	0.47170 0.23585 0.99380 0.04600
C 	C 	0.45000 0.09110 0.52687 0.37800
C 	C 	0.42360 0.14600 0.54280 -0.11100
C 	C 	0.38070 0.12550 0.57317 0.02300
C 	C 	0.23640 0.18030 0.65989 0.14000
C 	C 	0.64110 0.55000 0.52687 0.37800
C 	C 	0.72240 0.57640 0.54280 -0.11100
C 	C 	0.74480 0.61930 0.57317 0.02300
C 	C 	0.94390 0.76360 0.65989 0.14000
C 	C 	0.90890 0.35890 0.52687 0.37800
C 	C 	0.85400 0.27760 0.54280 -0.11100
C 	C 	0.87450 0.25520 0.57317 0.02300
C 	C 	0.81970 0.05610 0.65989 0.14000
C 	C 	0.55000 0.90890 0.02687 0.37800
C 	C 	0.57640 0.85400 0.04280 -0.11100
C 	C 	0.61930 0.87450 0.07317 0.02300
C 	C 	0.76360 0.81970 0.15989 0.14000
C 	C 	0.35890 0.45000 0.02687 0.37800
C 	C 	0.27760 0.42360 0.04280 -0.11100
C 	C 	0.25520 0.38070 0.07317 0.02300
C 	C 	0.05610 0.23640 0.15989 0.14000
C 	C 	0.09110 0.64110 0.02687 0.37800
C 	C 	0.14600 0.72240 0.04280 -0.11100
C 	C 	0.12550 0.74480 0.07317 0.02300
C 	C 	0.18030 0.94390 0.15989 0.14000
C 	C 	0.35890 0.90890 0.47313 0.37800
C 	C 	0.27760 0.85400 0.45720 -0.11100
C 	C 	0.25520 0.87450 0.42683 0.02300
C 	C 	0.05610 0.81970 0.34011 0.14000
C 	C 	0.09110 0.45000 0.47313 0.37800
C 	C 	0.14600 0.42360 0.45720 -0.11100
C 	C 	0.12550 0.38070 0.42683 0.02300
C 	C 	0.18030 0.23640 0.34011 0.14000
C 	C 	0.55000 0.64110 0.47313 0.37800
C 	C 	0.57640 0.72240 0.45720 -0.11100
C 	C 	0.61930 0.74480 0.42683 0.02300
C 	C 	0.76360 0.94390 0.34011 0.14000
C 	C 	0.64110 0.09110 0.97313 0.37800
C 	C 	0.72240 0.14600 0.95720 -0.11100
C 	C 	0.74480 0.12550 0.92683 0.02300
C 	C 	0.94390 0.18030 0.84011 0.14000
C 	C 	0.90890 0.55000 0.97313 0.37800
C 	C 	0.85400 0.57640 0.95720 -0.11100
C 	C 	0.87450 0.61930 0.92683 0.02300
C 	C 	0.81970 0.76360 0.84011 0.14000
C 	C 	0.45000 0.35890 0.97313 0.37800
C 	C 	0.42360 0.27760 0.95720 -0.11100
C 	C 	0.38070 0.25520 0.92683 0.02300
C 	C 	0.23640 0.05610 0.84011 0.14000
C 	C 	0.55000 0.90890 0.47313 0.37800
C 	C 	0.57640 0.85400 0.45720 -0.11100
C 	C 	0.61930 0.87450 0.42683 0.02300
C 	C 	0.76360 0.81970 0.34011 0.14000
C 	C 	0.35890 0.45000 0.47313 0.37800
C 	C 	0.27760 0.42360 0.45720 -0.11100
C 	C 	0.25520 0.38070 0.42683 0.02300
C 	C 	0.05610 0.23640 0.34011 0.14000
C 	C 	0.09110 0.64110 0.47313 0.37800
C 	C 	0.14600 0.72240 0.45720 -0.11100
C 	C 	0.12550 0.74480 0.42683 0.02300
C 	C 	0.18030 0.94390 0.34011 0.14000
C 	C 	0.45000 0.09110 0.97313 0.37800
C 	C 	0.42360 0.14600 0.95720 -0.11100
C 	C 	0.38070 0.12550 0.92683 0.02300
C 	C 	0.23640 0.18030 0.84011 0.14000
C 	C 	0.64110 0.55000 0.97313 0.37800
C 	C 	0.72240 0.57640 0.95720 -0.11100
C 	C 	0.74480 0.61930 0.92683 0.02300
C 	C 	0.94390 0.76360 0.84011 0.14000
C 	C 	0.90890 0.35890 0.97313 0.37800
C 	C 	0.85400 0.27760 0.95720 -0.11100
C 	C 	0.87450 0.25520 0.92683 0.02300
C 	C 	0.81970 0.05610 0.84011 0.14000
C 	C 	0.64110 0.09110 0.52687 0.37800
C 	C 	0.72240 0.14600 0.54280 -0.11100
C 	C 	0.74480 0.12550 0.57317 0.02300
C 	C 	0.94390 0.18030 0.65989 0.14000
C 	C 	0.90890 0.55000 0.52687 0.37800
C 	C 	0.85400 0.57640 0.54280 -0.11100
C 	C 	0.87450 0.61930 0.57317 0.02300
C 	C 	0.81970 0.76360 0.65989 0.14000
C 	C 	0.45000 0.35890 0.52687 0.37800
C 	C 	0.42360 0.27760 0.54280 -0.11100
C 	C 	0.38070 0.25520 0.57317 0.02300
C 	C 	0.23640 0.05610 0.65989 0.14000
C 	C 	0.35890 0.90890 0.02687 0.37800
C 	C 	0.27760 0.85400 0.04280 -0.11100
C 	C 	0.25520 0.87450 0.07317 0.02300
C 	C 	0.05610 0.81970 0.15989 0.14000
C 	C 	0.09110 0.45000 0.02687 0.37800
C 	C 	0.14600 0.42360 0.04280 -0.11100
C 	C 	0.12550 0.38070 0.07317 0.02300
C 	C 	0.18030 0.23640 0.15989 0.14000
C 	C 	0.55000 0.64110 0.02687 0.37800
C 	C 	0.57640 0.72240 0.04280 -0.11100
C 	C 	0.61930 0.74480 0.07317 0.02300
C 	C 	0.76360 0.94390 0.15989 0.14000
C 	C 	0.44380 0.22190 0.52743 0.05500
C 	C 	0.35720 0.17860 0.58846 -0.04100
C 	C 	0.30560 0.15280 0.61980 0.14200
C 	C 	0.20970 0.10485 0.67482 -0.22400
C 	C 	0.15250 0.07625 0.70352 0.50300
C 	C 	0.77810 0.55620 0.52743 0.05500
C 	C 	0.82140 0.64280 0.58846 -0.04100
C 	C 	0.84720 0.69440 0.61980 0.14200
C 	C 	0.89515 0.79030 0.67482 -0.22400
C 	C 	0.92375 0.84750 0.70352 0.50300
C 	C 	0.77810 0.22190 0.52743 0.05500
C 	C 	0.82140 0.17860 0.58846 -0.04100
C 	C 	0.84720 0.15280 0.61980 0.14200
C 	C 	0.89515 0.10485 0.67482 -0.22400
C 	C 	0.92375 0.07625 0.70352 0.50300
C 	C 	0.55620 0.77810 0.02743 0.05500
C 	C 	0.64280 0.82140 0.08846 -0.04100
C 	C 	0.69440 0.84720 0.11980 0.14200
C 	C 	0.79030 0.89515 0.17482 -0.22400
C 	C 	0.84750 0.92375 0.20352 0.50300
C 	C 	0.22190 0.44380 0.02743 0.05500
C 	C 	0.17860 0.35720 0.08846 -0.04100
C 	C 	0.15280 0.30560 0.11980 0.14200
C 	C 	0.10485 0.20970 0.17482 -0.22400
C 	C 	0.07625 0.15250 0.20352 0.50300
C 	C 	0.22190 0.77810 0.02743 0.05500
C 	C 	0.17860 0.82140 0.08846 -0.04100
C 	C 	0.15280 0.84720 0.11980 0.14200
C 	C 	0.10485 0.89515 0.17482 -0.22400
C 	C 	0.07625 0.92375 0.20352 0.50300
C 	C 	0.22190 0.77810 0.47257 0.05500
C 	C 	0.17860 0.82140 0.41154 -0.04100
C 	C 	0.15280 0.84720 0.38020 0.14200
C 	C 	0.10485 0.89515 0.32518 -0.22400
C 	C 	0.07625 0.92375 0.29648 0.50300
C 	C 	0.22190 0.44380 0.47257 0.05500
C 	C 	0.17860 0.35720 0.41154 -0.04100
C 	C 	0.15280 0.30560 0.38020 0.14200
C 	C 	0.10485 0.20970 0.32518 -0.22400
C 	C 	0.07625 0.15250 0.29648 0.50300
C 	C 	0.55620 0.77810 0.47257 0.05500
C 	C 	0.64280 0.82140 0.41154 -0.04100
C 	C 	0.69440 0.84720 0.38020 0.14200
C 	C 	0.79030 0.89515 0.32518 -0.22400
C 	C 	0.84750 0.92375 0.29648 0.50300
C 	C 	0.77810 0.22190 0.97257 0.05500
C 	C 	0.82140 0.17860 0.91154 -0.04100
C 	C 	0.84720 0.15280 0.88020 0.14200
C 	C 	0.89515 0.10485 0.82518 -0.22400
C 	C 	0.92375 0.07625 0.79648 0.50300
C 	C 	0.77810 0.55620 0.97257 0.05500
C 	C 	0.82140 0.64280 0.91154 -0.04100
C 	C 	0.84720 0.69440 0.88020 0.14200
C 	C 	0.89515 0.79030 0.82518 -0.22400
C 	C 	0.92375 0.84750 0.79648 0.50300
C 	C 	0.44380 0.22190 0.97257 0.05500
C 	C 	0.35720 0.17860 0.91154 -0.04100
C 	C 	0.30560 0.15280 0.88020 0.14200
C 	C 	0.20970 0.10485 0.82518 -0.22400
C 	C 	0.15250 0.07625 0.79648 0.50300
N 	N 	0.28540 0.20680 0.63247 -0.14900
N 	N 	0.92140 0.71460 0.63247 -0.14900
N 	N 	0.79320 0.07860 0.63247 -0.14900
N 	N 	0.71460 0.79320 0.13247 -0.14900
N 	N 	0.07860 0.28540 0.13247 -0.14900
N 	N 	0.20680 0.92140 0.13247 -0.14900
N 	N 	0.07860 0.79320 0.36753 -0.14900
N 	N 	0.20680 0.28540 0.36753 -0.14900
N 	N 	0.71460 0.92140 0.36753 -0.14900
N 	N 	0.92140 0.20680 0.86753 -0.14900
N 	N 	0.79320 0.71460 0.86753 -0.14900
N 	N 	0.28540 0.07860 0.86753 -0.14900
N 	N 	0.71460 0.79320 0.36753 -0.14900
N 	N 	0.07860 0.28540 0.36753 -0.14900
N 	N 	0.20680 0.92140 0.36753 -0.14900
N 	N 	0.28540 0.20680 0.86753 -0.14900
N 	N 	0.92140 0.71460 0.86753 -0.14900
N 	N 	0.79320 0.07860 0.86753 -0.14900
N 	N 	0.92140 0.20680 0.63247 -0.14900
N 	N 	0.79320 0.71460 0.63247 -0.14900
N 	N 	0.28540 0.07860 0.63247 -0.14900
N 	N 	0.07860 0.79320 0.13247 -0.14900
N 	N 	0.20680 0.28540 0.13247 -0.14900
N 	N 	0.71460 0.92140 0.13247 -0.14900
O 	O 	0.48081 0.10943 0.49819 -0.41400
O 	O 	0.43870 0.02740 0.54369 -0.40200
O 	O 	0.13290 0.00860 0.71585 -0.46200
O 	O 	0.62862 0.51919 0.49819 -0.41400
O 	O 	0.58870 0.56130 0.54369 -0.40200
O 	O 	0.87570 0.86710 0.71585 -0.46300
O 	O 	0.89057 0.37138 0.49819 -0.41400
O 	O 	0.97260 0.41130 0.54369 -0.40200
O 	O 	0.99140 0.12430 0.71585 -0.46100
O 	O 	0.51919 0.89057 0.99819 -0.41400
O 	O 	0.56130 0.97260 0.04369 -0.40200
O 	O 	0.86710 0.99140 0.21585 -0.46200
O 	O 	0.37138 0.48081 0.99819 -0.41400
O 	O 	0.41130 0.43870 0.04369 -0.40200
O 	O 	0.12430 0.13290 0.21585 -0.46300
O 	O 	0.10943 0.62862 0.99819 -0.41400
O 	O 	0.02740 0.58870 0.04369 -0.40200
O 	O 	0.00860 0.87570 0.21585 -0.46100
O 	O 	0.37138 0.89057 0.50181 -0.41400
O 	O 	0.41130 0.97260 0.45631 -0.40200
O 	O 	0.12430 0.99140 0.28415 -0.46100
O 	O 	0.10943 0.48081 0.50181 -0.41400
O 	O 	0.02740 0.43870 0.45631 -0.40200
O 	O 	0.00860 0.13290 0.28415 -0.46200
O 	O 	0.51919 0.62862 0.50181 -0.41400
O 	O 	0.56130 0.58870 0.45631 -0.40200
O 	O 	0.86710 0.87570 0.28415 -0.46300
O 	O 	0.62862 0.10943 0.00181 -0.41400
O 	O 	0.58870 0.02740 0.95631 -0.40200
O 	O 	0.87570 0.00860 0.78415 -0.46100
O 	O 	0.89057 0.51919 0.00181 -0.41400
O 	O 	0.97260 0.56130 0.95631 -0.40200
O 	O 	0.99140 0.86710 0.78415 -0.46200
O 	O 	0.48081 0.37138 0.00181 -0.41400
O 	O 	0.43870 0.41130 0.95631 -0.40200
O 	O 	0.13290 0.12430 0.78415 -0.46300
O 	O 	0.51919 0.89057 0.50181 -0.41400
O 	O 	0.56130 0.97260 0.45631 -0.40200
O 	O 	0.86710 0.99140 0.28415 -0.46200
O 	O 	0.37138 0.48081 0.50181 -0.41400
O 	O 	0.41130 0.43870 0.45631 -0.40200
O 	O 	0.12430 0.13290 0.28415 -0.46300
O 	O 	0.10943 0.62862 0.50181 -0.41400
O 	O 	0.02740 0.58870 0.45631 -0.40200
O 	O 	0.00860 0.87570 0.28415 -0.46100
O 	O 	0.48081 0.10943 0.00181 -0.41400
O 	O 	0.43870 0.02740 0.95631 -0.40200
O 	O 	0.13290 0.00860 0.78415 -0.46200
O 	O 	0.62862 0.51919 0.00181 -0.41400
O 	O 	0.58870 0.56130 0.95631 -0.40200
O 	O 	0.87570 0.86710 0.78415 -0.46300
O 	O 	0.89057 0.37138 0.00181 -0.41400
O 	O 	0.97260 0.41130 0.95631 -0.40200
O 	O 	0.99140 0.12430 0.78415 -0.46100
O 	O 	0.62862 0.10943 0.49819 -0.41400
O 	O 	0.58870 0.02740 0.54369 -0.40200
O 	O 	0.87570 0.00860 0.71585 -0.46100
O 	O 	0.89057 0.51919 0.49819 -0.41400
O 	O 	0.97260 0.56130 0.54369 -0.40200
O 	O 	0.99140 0.86710 0.71585 -0.46200
O 	O 	0.48081 0.37138 0.49819 -0.41400
O 	O 	0.43870 0.41130 0.54369 -0.40200
O 	O 	0.13290 0.12430 0.71585 -0.46300
O 	O 	0.37138 0.89057 0.99819 -0.41400
O 	O 	0.41130 0.97260 0.04369 -0.40200
O 	O 	0.12430 0.99140 0.21585 -0.46100
O 	O 	0.10943 0.48081 0.99819 -0.41400
O 	O 	0.02740 0.43870 0.04369 -0.40200
O 	O 	0.00860 0.13290 0.21585 -0.46200
O 	O 	0.51919 0.62862 0.99819 -0.41400
O 	O 	0.56130 0.58870 0.04369 -0.40200
O 	O 	0.86710 0.87570 0.21585 -0.46300
