data_crystal

_cell_length_a 5.16340
_cell_length_b 10.55180
_cell_length_c 15.48490
_cell_angle_alpha 82.72500
_cell_angle_beta  87.23300
_cell_angle_gamma 83.78200

_symmetry_space_group_name_	'P 1'
_symmetry_space_group_name_H-M	'P 1'

loop_
_symmetry_equiv_pos_as_xyz
  x,y,z

loop_
_atom_site_label
_atom_site_type_symbol
_atom_site_fract_x
_atom_site_fract_y
_atom_site_fract_z
_atom_site_charge
C 	C 	0.98160 0.63204 0.48961 0.03200
H 	H 	0.96800 0.72320 0.48250 0.04700
C 	C 	0.07900 0.56551 0.56708 -0.10000
C 	C 	0.09640 0.42991 0.57756 0.01100
C 	C 	0.16320 0.63861 0.63556 0.11000
C 	C 	0.39360 0.59906 0.67911 -0.13600
H 	H 	0.50790 0.52960 0.66130 0.08900
C 	C 	0.45770 0.65997 0.74811 0.06400
H 	H 	0.61450 0.63160 0.77760 0.05300
C 	C 	0.29310 0.76268 0.77439 -0.10900
C 	C 	0.00570 0.74619 0.65917 -0.19100
H 	H 	0.85410 0.77760 0.62750 0.14000
C 	C 	0.34620 0.82156 0.85355 0.44700
C 	C 	0.18290 0.35172 0.66021 0.09600
C 	C 	0.40740 0.26414 0.66115 -0.16500
H 	H 	0.49850 0.24890 0.60810 0.07700
C 	C 	0.49700 0.19948 0.73972 0.08400
H 	H 	0.65320 0.14290 0.74020 -0.00500
C 	C 	0.36020 0.21695 0.81746 -0.18600
C 	C 	0.12930 0.29847 0.81602 0.12100
H 	H 	0.02980 0.30770 0.86850 0.00200
C 	C 	0.04420 0.36617 0.73819 -0.24800
H 	H 	0.88880 0.42330 0.73810 0.15900
C 	C 	0.46480 0.15454 0.90300 0.39000
O 	O 	0.69890 0.11281 0.90574 -0.43000
O 	O 	0.30520 0.15016 0.96937 -0.41200
O 	O 	0.18720 0.90057 0.88373 -0.39800
O 	O 	0.57190 0.78049 0.88679 -0.47600
H 	H 	0.58980 0.81700 0.93100 0.35000
C 	C 	0.06910 0.80746 0.72851 0.01400
H 	H 	0.95980 0.87970 0.74460 0.10800
C 	C 	0.01840 0.36796 0.51039 -0.15600
H 	H 	0.03200 0.27680 0.51750 0.05000
C 	C 	0.92100 0.43449 0.43292 0.07200
C 	C 	0.90360 0.57009 0.42244 -0.03500
C 	C 	0.83680 0.36139 0.36444 0.03300
C 	C 	0.60640 0.40094 0.32089 -0.12200
H 	H 	0.49210 0.47040 0.33870 0.06900
C 	C 	0.54230 0.34003 0.25189 0.07300
H 	H 	0.38550 0.36840 0.22240 0.01100
C 	C 	0.70690 0.23732 0.22561 -0.19200
C 	C 	0.99430 0.25381 0.34083 -0.06200
H 	H 	0.14590 0.22240 0.37250 0.00500
C 	C 	0.65380 0.17844 0.14645 0.45200
C 	C 	0.81710 0.64828 0.33979 0.03200
C 	C 	0.59260 0.73586 0.33885 -0.08500
H 	H 	0.50150 0.75110 0.39190 0.07000
C 	C 	0.50300 0.80052 0.26028 0.03300
H 	H 	0.34680 0.85710 0.25980 0.05400
C 	C 	0.63980 0.78305 0.18254 -0.09700
C 	C 	0.87070 0.70153 0.18398 -0.01100
H 	H 	0.97020 0.69230 0.13150 0.05300
C 	C 	0.95580 0.63383 0.26181 0.02100
H 	H 	0.11120 0.57670 0.26190 -0.01100
C 	C 	0.53520 0.84546 0.09700 0.39300
O 	O 	0.30110 0.88719 0.09426 -0.44300
O 	O 	0.69480 0.84984 0.03063 -0.47700
O 	O 	0.81280 0.09943 0.11627 -0.52300
O 	O 	0.42810 0.21951 0.11321 -0.51700
H 	H 	0.41020 0.18300 0.06900 0.23300
C 	C 	0.93090 0.19254 0.27149 0.14500
H 	H 	0.04020 0.12030 0.25540 -0.07400
Ca	Ca	-0.00000 0.00000 -0.00000 1.46800
