data_crystal

_cell_length_a 11.65830
_cell_length_b 5.56710
_cell_length_c 22.91100
_cell_angle_alpha 90.00000
_cell_angle_beta  100.90100
_cell_angle_gamma 90.00000

_symmetry_space_group_name_	'P 1'
_symmetry_space_group_name_H-M	'P 1'

loop_
_symmetry_equiv_pos_as_xyz
  x,y,z

loop_
_atom_site_label
_atom_site_type_symbol
_atom_site_fract_x
_atom_site_fract_y
_atom_site_fract_z
_atom_site_charge
O 	O 	0.49419 0.19200 0.12907 -0.35500
O 	O 	0.41358 0.77800 0.10970 -0.23700
C 	C 	0.35140 0.10870 0.02994 0.00300
C 	C 	0.27890 0.10820 0.14135 -0.00800
Ca	Ca	0.63699 0.24316 0.22135 1.51700
S 	S 	0.39687 0.03423 0.10599 0.29900
O 	O 	0.25974 0.08570 0.80889 -0.57300
O 	O 	0.26350 0.47700 0.82768 -0.50600
O 	O 	0.98770 0.47600 0.24702 -0.46200
O 	O 	0.95873 0.08080 0.25598 -0.47600
C 	C 	0.18790 0.37640 0.20007 0.03600
H 	H 	0.18560 0.52600 0.21980 0.03400
C 	C 	0.18980 0.94130 0.13974 -0.07400
H 	H 	0.18980 0.79610 0.11800 0.06400
C 	C 	0.38060 0.33220 0.01003 -0.08300
H 	H 	0.41890 0.44900 0.03710 0.08300
C 	C 	0.09970 0.20820 0.20073 -0.13600
C 	C 	0.29670 0.20870 0.90998 -0.13100
C 	C 	0.26480 0.98850 0.93084 0.03100
H 	H 	0.22530 0.87260 0.90390 0.02400
C 	C 	0.27990 0.32660 0.17062 -0.08200
H 	H 	0.34120 0.43890 0.17070 0.07500
C 	C 	0.35240 0.38080 0.94939 0.04200
H 	H 	0.37130 0.53270 0.93480 0.02800
C 	C 	0.29130 0.93890 0.99180 -0.07200
H 	H 	0.26840 0.79090 0.00680 0.06300
C 	C 	0.27340 0.26210 0.84449 0.40700
C 	C 	0.10070 0.99050 0.17055 0.03800
H 	H 	0.04040 0.87600 0.17110 0.01900
C 	C 	0.00700 0.25890 0.23774 0.43300
O 	O 	0.00581 0.69200 0.37093 -0.35500
O 	O 	0.08642 0.27800 0.39030 -0.24100
C 	C 	0.14860 0.60870 0.47006 0.00600
C 	C 	0.22110 0.60820 0.35865 -0.00400
Ca	Ca	0.86301 0.74316 0.27865 1.51700
S 	S 	0.10313 0.53423 0.39401 0.30000
O 	O 	0.24026 0.58570 0.69111 -0.57300
O 	O 	0.23650 0.97700 0.67232 -0.50600
O 	O 	0.51230 0.97600 0.25298 -0.46300
O 	O 	0.54127 0.58080 0.24402 -0.47800
C 	C 	0.31210 0.87640 0.29993 0.04300
H 	H 	0.31440 0.02600 0.28020 0.03000
C 	C 	0.31020 0.44130 0.36026 -0.07900
H 	H 	0.31020 0.29610 0.38200 0.06500
C 	C 	0.11940 0.83220 0.48997 -0.08600
H 	H 	0.08110 0.94900 0.46290 0.08500
C 	C 	0.40030 0.70820 0.29927 -0.13600
C 	C 	0.20330 0.70870 0.59002 -0.13400
C 	C 	0.23520 0.48850 0.56916 0.03400
H 	H 	0.27470 0.37260 0.59610 0.02300
C 	C 	0.22010 0.82660 0.32938 -0.08600
H 	H 	0.15880 0.93890 0.32930 0.07700
C 	C 	0.14760 0.88080 0.55061 0.04800
H 	H 	0.12870 0.03270 0.56520 0.02500
C 	C 	0.20870 0.43890 0.50820 -0.07700
H 	H 	0.23160 0.29090 0.49320 0.06500
C 	C 	0.22660 0.76210 0.65551 0.40800
C 	C 	0.39930 0.49050 0.32945 0.03700
H 	H 	0.45960 0.37600 0.32890 0.01800
C 	C 	0.49300 0.75890 0.26226 0.43800
O 	O 	0.50581 0.80800 0.87093 -0.35600
O 	O 	0.58642 0.22200 0.89030 -0.23800
C 	C 	0.64860 0.89130 0.97006 0.00200
C 	C 	0.72110 0.89180 0.85865 -0.00900
Ca	Ca	0.36301 0.75684 0.77865 1.51700
S 	S 	0.60313 0.96577 0.89401 0.29900
O 	O 	0.74026 0.91430 0.19111 -0.57300
O 	O 	0.73650 0.52300 0.17232 -0.50600
O 	O 	0.01230 0.52400 0.75298 -0.46200
O 	O 	0.04127 0.91920 0.74402 -0.47600
C 	C 	0.81210 0.62360 0.79993 0.03600
H 	H 	0.81440 0.47400 0.78020 0.03400
C 	C 	0.81020 0.05870 0.86026 -0.07400
H 	H 	0.81020 0.20390 0.88200 0.06400
C 	C 	0.61940 0.66780 0.98997 -0.08300
H 	H 	0.58110 0.55100 0.96290 0.08300
C 	C 	0.90030 0.79180 0.79927 -0.13600
C 	C 	0.70330 0.79130 0.09002 -0.13100
C 	C 	0.73520 0.01150 0.06916 0.03100
H 	H 	0.77470 0.12740 0.09610 0.02400
C 	C 	0.72010 0.67340 0.82938 -0.08200
H 	H 	0.65880 0.56110 0.82930 0.07500
C 	C 	0.64760 0.61920 0.05061 0.04200
H 	H 	0.62870 0.46730 0.06520 0.02800
C 	C 	0.70870 0.06110 0.00820 -0.07200
H 	H 	0.73160 0.20910 0.99320 0.06300
C 	C 	0.72660 0.73790 0.15551 0.40700
C 	C 	0.89930 0.00950 0.82945 0.03800
H 	H 	0.95960 0.12400 0.82890 0.01900
C 	C 	0.99300 0.74110 0.76226 0.43300
O 	O 	0.99419 0.30800 0.62907 -0.35500
O 	O 	0.91358 0.72200 0.60970 -0.24100
C 	C 	0.85140 0.39130 0.52994 0.00600
C 	C 	0.77890 0.39180 0.64135 -0.00400
Ca	Ca	0.13699 0.25684 0.72135 1.51700
S 	S 	0.89687 0.46577 0.60599 0.30000
O 	O 	0.75974 0.41430 0.30889 -0.57300
O 	O 	0.76350 0.02300 0.32768 -0.50600
O 	O 	0.48770 0.02400 0.74702 -0.46300
O 	O 	0.45873 0.41920 0.75598 -0.47800
C 	C 	0.68790 0.12360 0.70007 0.04300
H 	H 	0.68560 0.97400 0.71980 0.03000
C 	C 	0.68980 0.55870 0.63974 -0.07900
H 	H 	0.68980 0.70390 0.61800 0.06500
C 	C 	0.88060 0.16780 0.51003 -0.08600
H 	H 	0.91890 0.05100 0.53710 0.08500
C 	C 	0.59970 0.29180 0.70073 -0.13600
C 	C 	0.79670 0.29130 0.40998 -0.13400
C 	C 	0.76480 0.51150 0.43084 0.03400
H 	H 	0.72530 0.62740 0.40390 0.02300
C 	C 	0.77990 0.17340 0.67062 -0.08600
H 	H 	0.84120 0.06110 0.67070 0.07700
C 	C 	0.85240 0.11920 0.44939 0.04800
H 	H 	0.87130 0.96730 0.43480 0.02500
C 	C 	0.79130 0.56110 0.49180 -0.07700
H 	H 	0.76840 0.70910 0.50680 0.06500
C 	C 	0.77340 0.23790 0.34449 0.40800
C 	C 	0.60070 0.50950 0.67055 0.03700
H 	H 	0.54040 0.62400 0.67110 0.01800
C 	C 	0.50700 0.24110 0.73774 0.43800
