data_crystal

_cell_length_a 11.59550
_cell_length_b 5.55810
_cell_length_c 22.95480
_cell_angle_alpha 90.00000
_cell_angle_beta  101.06200
_cell_angle_gamma 90.00000

_symmetry_space_group_name_	'P 1'
_symmetry_space_group_name_H-M	'P 1'

loop_
_symmetry_equiv_pos_as_xyz
  x,y,z

loop_
_atom_site_label
_atom_site_type_symbol
_atom_site_fract_x
_atom_site_fract_y
_atom_site_fract_z
_atom_site_charge
O 	O 	0.73729 0.47860 0.67232 -0.50600
C 	C 	0.72776 0.26330 0.65555 0.41100
Ca	Ca	0.36319 0.24220 0.27917 1.51800
S 	S 	0.60426 0.03343 0.39467 0.29400
O 	O 	0.01164 0.47440 0.25206 -0.46500
O 	O 	0.74104 0.08660 0.69107 -0.57400
O 	O 	0.50603 0.19110 0.37164 -0.35400
O 	O 	0.04045 0.07930 0.24321 -0.47800
O 	O 	0.58752 0.77672 0.39113 -0.23700
C 	C 	0.70469 0.21020 0.59021 -0.13700
C 	C 	0.73740 0.98950 0.56944 0.04000
H 	H 	0.77680 0.87660 0.59590 0.02200
C 	C 	0.72159 0.10730 0.35948 -0.00200
C 	C 	0.65030 0.10880 0.47036 0.01000
C 	C 	0.90071 0.20690 0.29904 -0.14500
C 	C 	0.90060 0.98960 0.32949 0.04800
H 	H 	0.96010 0.87790 0.32900 0.01600
C 	C 	0.81169 0.94010 0.36058 -0.08500
H 	H 	0.81220 0.79750 0.38180 0.07000
C 	C 	0.62029 0.33230 0.49026 -0.09500
H 	H 	0.58210 0.44610 0.46370 0.08900
C 	C 	0.81221 0.37500 0.30039 0.04600
H 	H 	0.81420 0.52190 0.28120 0.03100
C 	C 	0.71094 0.93880 0.50899 -0.08400
H 	H 	0.73350 0.79320 0.49460 0.06900
C 	C 	0.99290 0.25770 0.26199 0.43900
C 	C 	0.72097 0.32640 0.32993 -0.09400
H 	H 	0.66090 0.43720 0.33000 0.08100
C 	C 	0.64849 0.38210 0.55056 0.05000
H 	H 	0.62970 0.53130 0.56460 0.02500
O 	O 	0.76271 0.97860 0.82768 -0.50700
C 	C 	0.77224 0.76330 0.84445 0.41100
Ca	Ca	0.13681 0.74220 0.22083 1.51800
S 	S 	0.89574 0.53343 0.10533 0.29500
O 	O 	0.48836 0.97440 0.24794 -0.46500
O 	O 	0.75896 0.58660 0.80893 -0.57400
O 	O 	0.99397 0.69110 0.12836 -0.35400
O 	O 	0.45955 0.57930 0.25679 -0.48000
O 	O 	0.91248 0.27672 0.10887 -0.24000
C 	C 	0.79531 0.71020 0.90979 -0.14000
C 	C 	0.76260 0.48950 0.93056 0.04200
H 	H 	0.72320 0.37660 0.90410 0.02100
C 	C 	0.77841 0.60730 0.14052 0.00300
C 	C 	0.84970 0.60880 0.02964 0.01400
C 	C 	0.59929 0.70690 0.20096 -0.14500
C 	C 	0.59940 0.48960 0.17051 0.04600
H 	H 	0.53990 0.37790 0.17100 0.01500
C 	C 	0.68831 0.44010 0.13942 -0.09000
H 	H 	0.68780 0.29750 0.11820 0.07100
C 	C 	0.87971 0.83230 0.00974 -0.10000
H 	H 	0.91790 0.94610 0.03630 0.09100
C 	C 	0.68779 0.87500 0.19961 0.05300
H 	H 	0.68580 0.02190 0.21880 0.02600
C 	C 	0.78906 0.43880 0.99101 -0.08900
H 	H 	0.76650 0.29320 0.00540 0.07000
C 	C 	0.50710 0.75770 0.23801 0.44300
C 	C 	0.77903 0.82640 0.17007 -0.09900
H 	H 	0.83910 0.93720 0.17000 0.08300
C 	C 	0.85151 0.88210 0.94944 0.05700
H 	H 	0.87030 0.03130 0.93540 0.02200
O 	O 	0.26271 0.52140 0.32768 -0.50700
C 	C 	0.27224 0.73670 0.34445 0.41000
Ca	Ca	0.63681 0.75780 0.72083 1.51800
S 	S 	0.39574 0.96657 0.60533 0.29400
O 	O 	0.98836 0.52560 0.74794 -0.46500
O 	O 	0.25896 0.91340 0.30893 -0.57400
O 	O 	0.49397 0.80890 0.62836 -0.35400
O 	O 	0.95955 0.92070 0.75679 -0.47800
O 	O 	0.41248 0.22328 0.60887 -0.23700
C 	C 	0.29531 0.78980 0.40979 -0.13700
C 	C 	0.26260 0.01050 0.43056 0.04000
H 	H 	0.22320 0.12340 0.40410 0.02200
C 	C 	0.27841 0.89270 0.64052 -0.00200
C 	C 	0.34970 0.89120 0.52964 0.01000
C 	C 	0.09929 0.79310 0.70096 -0.14500
C 	C 	0.09940 0.01040 0.67051 0.04800
H 	H 	0.03990 0.12210 0.67100 0.01600
C 	C 	0.18831 0.05990 0.63942 -0.08500
H 	H 	0.18780 0.20250 0.61820 0.07000
C 	C 	0.37971 0.66770 0.50974 -0.09500
H 	H 	0.41790 0.55390 0.53630 0.08900
C 	C 	0.18779 0.62500 0.69961 0.04600
H 	H 	0.18580 0.47810 0.71880 0.03100
C 	C 	0.28906 0.06120 0.49101 -0.08400
H 	H 	0.26650 0.20680 0.50540 0.06900
C 	C 	0.00710 0.74230 0.73801 0.43900
C 	C 	0.27903 0.67360 0.67007 -0.09400
H 	H 	0.33910 0.56280 0.67000 0.08100
C 	C 	0.35151 0.61790 0.44944 0.05000
H 	H 	0.37030 0.46870 0.43540 0.02500
O 	O 	0.23729 0.02140 0.17232 -0.50700
C 	C 	0.22776 0.23670 0.15555 0.41100
Ca	Ca	0.86319 0.25780 0.77917 1.51800
S 	S 	0.10426 0.46657 0.89467 0.29500
O 	O 	0.51164 0.02560 0.75206 -0.46500
O 	O 	0.24104 0.41340 0.19107 -0.57400
O 	O 	0.00603 0.30890 0.87164 -0.35400
O 	O 	0.54045 0.42070 0.74321 -0.48000
O 	O 	0.08752 0.72328 0.89113 -0.24000
C 	C 	0.20469 0.28980 0.09021 -0.14000
C 	C 	0.23740 0.51050 0.06944 0.04200
H 	H 	0.27680 0.62340 0.09590 0.02100
C 	C 	0.22159 0.39270 0.85948 0.00300
C 	C 	0.15030 0.39120 0.97036 0.01400
C 	C 	0.40071 0.29310 0.79904 -0.14500
C 	C 	0.40060 0.51040 0.82949 0.04600
H 	H 	0.46010 0.62210 0.82900 0.01500
C 	C 	0.31169 0.55990 0.86058 -0.09000
H 	H 	0.31220 0.70250 0.88180 0.07100
C 	C 	0.12029 0.16770 0.99026 -0.10000
H 	H 	0.08210 0.05390 0.96370 0.09100
C 	C 	0.31221 0.12500 0.80039 0.05300
H 	H 	0.31420 0.97810 0.78120 0.02600
C 	C 	0.21094 0.56120 0.00899 -0.08900
H 	H 	0.23350 0.70680 0.99460 0.07000
C 	C 	0.49290 0.24230 0.76199 0.44300
C 	C 	0.22097 0.17360 0.82993 -0.09900
H 	H 	0.16090 0.06280 0.83000 0.08300
C 	C 	0.14849 0.11790 0.05056 0.05700
H 	H 	0.12970 0.96870 0.06460 0.02200
