data_crystal

_cell_length_a 11.66670
_cell_length_b 5.55860
_cell_length_c 22.93500
_cell_angle_alpha 90.00000
_cell_angle_beta  101.01100
_cell_angle_gamma 90.00000

_symmetry_space_group_name_	'P 1'
_symmetry_space_group_name_H-M	'P 1'

loop_
_symmetry_equiv_pos_as_xyz
  x,y,z

loop_
_atom_site_label
_atom_site_type_symbol
_atom_site_fract_x
_atom_site_fract_y
_atom_site_fract_z
_atom_site_charge
S 	S 	0.39611 0.03460 0.10598 0.28400
O 	O 	0.98690 0.47560 0.24710 -0.46000
O 	O 	0.25950 0.08340 0.80970 -0.56800
O 	O 	0.95880 0.08020 0.25560 -0.48100
O 	O 	0.26410 0.47680 0.82727 -0.50500
O 	O 	0.41270 0.77550 0.11000 -0.23300
O 	O 	0.49360 0.19640 0.12913 -0.35100
C 	C 	0.18860 0.94220 0.13920 -0.07800
H 	H 	0.18770 0.79700 0.11730 0.06500
C 	C 	0.27920 0.10940 0.14090 -0.00400
C 	C 	0.29060 0.94060 0.99130 -0.08200
H 	H 	0.26760 0.79280 0.00640 0.06700
C 	C 	0.35200 0.10970 0.02900 0.01400
C 	C 	0.27810 0.32940 0.17050 -0.08900
H 	H 	0.33850 0.44390 0.17030 0.07800
C 	C 	0.38060 0.33520 0.01060 -0.09400
H 	H 	0.41790 0.45210 0.03800 0.08700
C 	C 	0.26350 0.98980 0.93150 0.03800
H 	H 	0.22280 0.87460 0.90460 0.02300
C 	C 	0.10030 0.99290 0.17010 0.04200
H 	H 	0.04010 0.87830 0.17070 0.01800
C 	C 	0.18820 0.37710 0.19980 0.04600
H 	H 	0.18720 0.52630 0.22000 0.03000
C 	C 	0.35210 0.38270 0.94960 0.05100
H 	H 	0.37130 0.53480 0.93510 0.02500
C 	C 	0.27380 0.26060 0.84500 0.40600
C 	C 	0.00610 0.25620 0.23720 0.44000
C 	C 	0.09870 0.21280 0.20080 -0.14500
C 	C 	0.29660 0.21310 0.91000 -0.13900
Ca	Ca	0.63659 0.24372 0.22129 1.51800
S 	S 	0.10389 0.53460 0.39402 0.28300
O 	O 	0.51310 0.97560 0.25290 -0.46200
O 	O 	0.24050 0.58340 0.69030 -0.56900
O 	O 	0.54120 0.58020 0.24440 -0.48500
O 	O 	0.23590 0.97680 0.67273 -0.50500
O 	O 	0.08730 0.27550 0.39000 -0.23600
O 	O 	0.00640 0.69640 0.37087 -0.35000
C 	C 	0.31140 0.44220 0.36080 -0.08200
H 	H 	0.31230 0.29700 0.38270 0.06600
C 	C 	0.22080 0.60940 0.35910 0.00100
C 	C 	0.20940 0.44060 0.50870 -0.08800
H 	H 	0.23240 0.29280 0.49360 0.06800
C 	C 	0.14800 0.60970 0.47100 0.01800
C 	C 	0.22190 0.82940 0.32950 -0.09400
H 	H 	0.16150 0.94390 0.32970 0.08100
C 	C 	0.11940 0.83520 0.48940 -0.09700
H 	H 	0.08210 0.95210 0.46200 0.08900
C 	C 	0.23650 0.48980 0.56850 0.04100
H 	H 	0.27720 0.37460 0.59540 0.02200
C 	C 	0.39970 0.49290 0.32990 0.04000
H 	H 	0.45990 0.37830 0.32930 0.01800
C 	C 	0.31180 0.87710 0.30020 0.05300
H 	H 	0.31280 0.02630 0.28000 0.02600
C 	C 	0.14790 0.88270 0.55040 0.05700
H 	H 	0.12870 0.03480 0.56490 0.02200
C 	C 	0.22620 0.76060 0.65500 0.40700
C 	C 	0.49390 0.75620 0.26280 0.44500
C 	C 	0.40130 0.71280 0.29920 -0.14500
C 	C 	0.20340 0.71310 0.59000 -0.14200
Ca	Ca	0.86341 0.74372 0.27871 1.51700
S 	S 	0.60389 0.96540 0.89402 0.28300
O 	O 	0.01310 0.52440 0.75290 -0.46100
O 	O 	0.74050 0.91660 0.19030 -0.56900
O 	O 	0.04120 0.91980 0.74440 -0.48200
O 	O 	0.73590 0.52320 0.17273 -0.50500
O 	O 	0.58730 0.22450 0.89000 -0.23300
O 	O 	0.50640 0.80360 0.87087 -0.35100
C 	C 	0.81140 0.05780 0.86080 -0.07800
H 	H 	0.81230 0.20300 0.88270 0.06500
C 	C 	0.72080 0.89060 0.85910 -0.00400
C 	C 	0.70940 0.05940 0.00870 -0.08200
H 	H 	0.73240 0.20720 0.99360 0.06700
C 	C 	0.64800 0.89030 0.97100 0.01400
C 	C 	0.72190 0.67060 0.82950 -0.08900
H 	H 	0.66150 0.55610 0.82970 0.07800
C 	C 	0.61940 0.66480 0.98940 -0.09400
H 	H 	0.58210 0.54790 0.96200 0.08700
C 	C 	0.73650 0.01020 0.06850 0.03800
H 	H 	0.77720 0.12540 0.09540 0.02300
C 	C 	0.89970 0.00710 0.82990 0.04200
H 	H 	0.95990 0.12170 0.82930 0.01800
C 	C 	0.81180 0.62290 0.80020 0.04600
H 	H 	0.81280 0.47370 0.78000 0.03000
C 	C 	0.64790 0.61730 0.05040 0.05100
H 	H 	0.62870 0.46520 0.06490 0.02500
C 	C 	0.72620 0.73940 0.15500 0.40600
C 	C 	0.99390 0.74380 0.76280 0.44000
C 	C 	0.90130 0.78720 0.79920 -0.14500
C 	C 	0.70340 0.78690 0.09000 -0.13900
Ca	Ca	0.36341 0.75628 0.77871 1.51800
S 	S 	0.89611 0.46540 0.60598 0.28300
O 	O 	0.48690 0.02440 0.74710 -0.46200
O 	O 	0.75950 0.41660 0.30970 -0.56900
O 	O 	0.45880 0.41980 0.75560 -0.48500
O 	O 	0.76410 0.02320 0.32727 -0.50500
O 	O 	0.91270 0.72450 0.61000 -0.23600
O 	O 	0.99360 0.30360 0.62913 -0.35000
C 	C 	0.68860 0.55780 0.63920 -0.08200
H 	H 	0.68770 0.70300 0.61730 0.06600
C 	C 	0.77920 0.39060 0.64090 0.00100
C 	C 	0.79060 0.55940 0.49130 -0.08800
H 	H 	0.76760 0.70720 0.50640 0.06800
C 	C 	0.85200 0.39030 0.52900 0.01800
C 	C 	0.77810 0.17060 0.67050 -0.09400
H 	H 	0.83850 0.05610 0.67030 0.08100
C 	C 	0.88060 0.16480 0.51060 -0.09700
H 	H 	0.91790 0.04790 0.53800 0.08900
C 	C 	0.76350 0.51020 0.43150 0.04100
H 	H 	0.72280 0.62540 0.40460 0.02200
C 	C 	0.60030 0.50710 0.67010 0.04000
H 	H 	0.54010 0.62170 0.67070 0.01800
C 	C 	0.68820 0.12290 0.69980 0.05300
H 	H 	0.68720 0.97370 0.72000 0.02600
C 	C 	0.85210 0.11730 0.44960 0.05700
H 	H 	0.87130 0.96520 0.43510 0.02200
C 	C 	0.77380 0.23940 0.34500 0.40700
C 	C 	0.50610 0.24380 0.73720 0.44500
C 	C 	0.59870 0.28720 0.70080 -0.14500
C 	C 	0.79660 0.28690 0.41000 -0.14200
Ca	Ca	0.13659 0.25628 0.72129 1.51700
