data_crystal

_cell_length_a 5.18030
_cell_length_b 10.65080
_cell_length_c 15.29140
_cell_angle_alpha 82.59100
_cell_angle_beta  85.94500
_cell_angle_gamma 82.73900

_symmetry_space_group_name_	'P 1'
_symmetry_space_group_name_H-M	'P 1'

loop_
_symmetry_equiv_pos_as_xyz
  x,y,z

loop_
_atom_site_label
_atom_site_type_symbol
_atom_site_fract_x
_atom_site_fract_y
_atom_site_fract_z
_atom_site_charge
C 	C 	0.98180 0.63060 0.48763 0.03700
H 	H 	0.96760 0.72110 0.47920 0.04700
C 	C 	0.08040 0.56660 0.56562 -0.10200
C 	C 	0.09730 0.43230 0.57875 0.01200
C 	C 	0.18550 0.35580 0.66256 0.09800
C 	C 	0.41110 0.26940 0.66305 -0.16800
H 	H 	0.50440 0.25420 0.60890 0.07800
C 	C 	0.50010 0.20540 0.74190 0.08700
H 	H 	0.65760 0.14910 0.74180 -0.00600
C 	C 	0.36000 0.22320 0.82141 -0.18800
C 	C 	0.12800 0.30520 0.82068 0.12500
H 	H 	0.02690 0.31510 0.87420 0.00200
C 	C 	0.04510 0.37190 0.74236 -0.25100
H 	H 	0.88970 0.42980 0.74270 0.16100
C 	C 	0.46230 0.15930 0.90697 0.38800
C 	C 	0.16540 0.64090 0.63316 0.11600
C 	C 	0.39500 0.60150 0.67556 -0.14300
H 	H 	0.50880 0.53110 0.65780 0.09100
C 	C 	0.46020 0.66360 0.74334 0.07000
H 	H 	0.61640 0.63450 0.77260 0.05000
C 	C 	0.29740 0.76900 0.76906 -0.11500
C 	C 	0.07450 0.81310 0.72363 0.02100
H 	H 	0.96610 0.88670 0.73900 0.10500
C 	C 	0.00980 0.75010 0.65609 -0.19800
H 	H 	0.85800 0.78140 0.62490 0.14200
C 	C 	0.35290 0.82980 0.84692 0.44900
O 	O 	0.29980 0.14994 0.97457 -0.40900
O 	O 	0.69900 0.12052 0.90969 -0.42600
O 	O 	0.19380 0.91006 0.87796 -0.39800
O 	O 	0.57930 0.78880 0.87851 -0.47700
H 	H 	0.59860 0.82660 0.92210 0.34900
C 	C 	0.01820 0.36940 0.51237 -0.15800
H 	H 	0.03240 0.27890 0.52080 0.05100
C 	C 	0.91960 0.43340 0.43438 0.07400
C 	C 	0.90270 0.56770 0.42125 -0.03700
C 	C 	0.81450 0.64420 0.33744 0.03300
C 	C 	0.58890 0.73060 0.33695 -0.08700
H 	H 	0.49560 0.74580 0.39110 0.07000
C 	C 	0.49990 0.79460 0.25810 0.03500
H 	H 	0.34240 0.85090 0.25820 0.05200
C 	C 	0.64000 0.77680 0.17859 -0.09900
C 	C 	0.87200 0.69480 0.17932 -0.01000
H 	H 	0.97310 0.68490 0.12580 0.05300
C 	C 	0.95490 0.62810 0.25764 0.02100
H 	H 	0.11030 0.57020 0.25730 -0.01100
C 	C 	0.53770 0.84070 0.09303 0.39200
C 	C 	0.83460 0.35910 0.36684 0.03600
C 	C 	0.60500 0.39850 0.32444 -0.12500
H 	H 	0.49120 0.46890 0.34220 0.07000
C 	C 	0.53980 0.33640 0.25666 0.07700
H 	H 	0.38360 0.36550 0.22740 0.01000
C 	C 	0.70260 0.23100 0.23094 -0.19700
C 	C 	0.92550 0.18690 0.27637 0.15200
H 	H 	0.03390 0.11330 0.26100 -0.07700
C 	C 	0.99020 0.24990 0.34391 -0.06600
H 	H 	0.14200 0.21860 0.37510 0.00600
C 	C 	0.64710 0.17020 0.15308 0.45300
O 	O 	0.70020 0.85006 0.02543 -0.47500
O 	O 	0.30100 0.87948 0.09031 -0.44600
O 	O 	0.80620 0.08994 0.12204 -0.52600
O 	O 	0.42070 0.21120 0.12149 -0.51800
H 	H 	0.40140 0.17340 0.07790 0.23200
Ca	Ca	-0.00000 0.00000 -0.00000 1.46800
