data_crystal

_cell_length_a 5.21950
_cell_length_b 10.56910
_cell_length_c 15.36040
_cell_angle_alpha 82.53300
_cell_angle_beta  86.65700
_cell_angle_gamma 83.00000

_symmetry_space_group_name_	'P 1'
_symmetry_space_group_name_H-M	'P 1'

loop_
_symmetry_equiv_pos_as_xyz
  x,y,z

loop_
_atom_site_label
_atom_site_type_symbol
_atom_site_fract_x
_atom_site_fract_y
_atom_site_fract_z
_atom_site_charge
C 	C 	0.98120 0.63200 0.48794 0.03500
H 	H 	0.96750 0.72320 0.47960 0.04900
C 	C 	0.07840 0.56600 0.56645 -0.10100
C 	C 	0.09600 0.43160 0.57842 0.01500
C 	C 	0.18330 0.35410 0.66229 0.09500
C 	C 	0.40710 0.26700 0.66344 -0.16400
H 	H 	0.49820 0.25140 0.60980 0.07600
C 	C 	0.49750 0.20310 0.74248 0.08200
H 	H 	0.65350 0.14640 0.74290 -0.00500
C 	C 	0.36010 0.22200 0.82110 -0.18400
C 	C 	0.12940 0.30340 0.81990 0.11900
H 	H 	0.03030 0.31320 0.87300 0.00400
C 	C 	0.04420 0.37040 0.74133 -0.24700
H 	H 	0.88950 0.42800 0.74120 0.16000
C 	C 	0.46330 0.15790 0.90725 0.39100
C 	C 	0.16170 0.64090 0.63402 0.11300
C 	C 	0.39230 0.60150 0.67668 -0.14000
H 	H 	0.50580 0.53130 0.65900 0.09000
C 	C 	0.45640 0.66420 0.74442 0.06800
H 	H 	0.61300 0.63640 0.77340 0.05100
C 	C 	0.29270 0.76790 0.77045 -0.11300
C 	C 	0.06750 0.81180 0.72538 0.01800
H 	H 	0.95830 0.88460 0.74130 0.10600
C 	C 	0.00440 0.74890 0.65753 -0.19600
H 	H 	0.85230 0.77940 0.62650 0.14100
C 	C 	0.34780 0.82980 0.84798 0.44800
O 	O 	0.30320 0.14919 0.97339 -0.41000
O 	O 	0.69850 0.12014 0.91005 -0.42700
O 	O 	0.18790 0.90735 0.87983 -0.40000
O 	O 	0.57640 0.79169 0.87877 -0.47400
H 	H 	0.59630 0.83040 0.92190 0.34700
C 	C 	0.01880 0.36800 0.51206 -0.15900
H 	H 	0.03250 0.27680 0.52040 0.05100
C 	C 	0.92160 0.43400 0.43355 0.07300
C 	C 	0.90400 0.56840 0.42158 -0.03600
C 	C 	0.81670 0.64590 0.33771 0.03200
C 	C 	0.59290 0.73300 0.33656 -0.08500
H 	H 	0.50180 0.74860 0.39020 0.07000
C 	C 	0.50250 0.79690 0.25752 0.03400
H 	H 	0.34650 0.85360 0.25710 0.05300
C 	C 	0.63990 0.77800 0.17890 -0.09800
C 	C 	0.87060 0.69660 0.18010 -0.01100
H 	H 	0.96970 0.68680 0.12700 0.05300
C 	C 	0.95580 0.62960 0.25867 0.02200
H 	H 	0.11050 0.57200 0.25880 -0.01200
C 	C 	0.53670 0.84210 0.09275 0.39700
C 	C 	0.83830 0.35910 0.36598 0.03400
C 	C 	0.60770 0.39850 0.32332 -0.12400
H 	H 	0.49420 0.46870 0.34100 0.07000
C 	C 	0.54360 0.33580 0.25558 0.07600
H 	H 	0.38700 0.36360 0.22660 0.01000
C 	C 	0.70730 0.23210 0.22955 -0.19500
C 	C 	0.93250 0.18820 0.27462 0.14800
H 	H 	0.04170 0.11540 0.25870 -0.07500
C 	C 	0.99560 0.25110 0.34247 -0.06300
H 	H 	0.14770 0.22060 0.37350 0.00500
C 	C 	0.65220 0.17020 0.15202 0.45100
O 	O 	0.69680 0.85081 0.02661 -0.47600
O 	O 	0.30150 0.87986 0.08995 -0.44900
O 	O 	0.81210 0.09265 0.12017 -0.52500
O 	O 	0.42360 0.20831 0.12123 -0.51500
H 	H 	0.40370 0.16960 0.07810 0.22900
Ca	Ca	-0.00000 0.00000 -0.00000 1.46800
