data_crystal

_cell_length_a 16.79420
_cell_length_b 16.79420
_cell_length_c 16.79420
_cell_angle_alpha 90.00000
_cell_angle_beta  90.00000
_cell_angle_gamma 90.00000

_symmetry_space_group_name_	'P 1'
_symmetry_space_group_name_H-M	'P 1'

loop_
_symmetry_equiv_pos_as_xyz
  x,y,z

loop_
_atom_site_label
_atom_site_type_symbol
_atom_site_fract_x
_atom_site_fract_y
_atom_site_fract_z
_atom_site_charge
O 	O 	0.01649 0.59188 0.30536 -0.97500
O 	O 	0.51649 0.09188 0.80536 -0.85300
O 	O 	0.98351 0.40812 0.30536 -0.47500
O 	O 	0.48351 0.90812 0.80536 -0.50200
O 	O 	0.98351 0.59188 0.69464 -0.41500
O 	O 	0.48351 0.09188 0.19464 -0.90800
O 	O 	0.01649 0.40812 0.69464 -0.95900
O 	O 	0.51649 0.90812 0.19464 -0.55900
O 	O 	0.30536 0.01649 0.59188 -0.97400
O 	O 	0.80536 0.51649 0.09188 -0.85200
O 	O 	0.30536 0.98351 0.40812 -0.47400
O 	O 	0.80536 0.48351 0.90812 -0.50200
O 	O 	0.69464 0.98351 0.59188 -0.41500
O 	O 	0.19464 0.48351 0.09188 -0.90800
O 	O 	0.69464 0.01649 0.40812 -0.95900
O 	O 	0.19464 0.51649 0.90812 -0.55900
O 	O 	0.59188 0.30536 0.01649 -0.97400
O 	O 	0.09188 0.80536 0.51649 -0.85200
O 	O 	0.40812 0.30536 0.98351 -0.47400
O 	O 	0.90812 0.80536 0.48351 -0.50200
O 	O 	0.59188 0.69464 0.98351 -0.41500
O 	O 	0.09188 0.19464 0.48351 -0.90800
O 	O 	0.40812 0.69464 0.01649 -0.95900
O 	O 	0.90812 0.19464 0.51649 -0.55900
O 	O 	0.59188 0.01649 0.30536 -0.97400
O 	O 	0.09188 0.51649 0.80536 -0.85200
O 	O 	0.40812 0.98351 0.30536 -0.47400
O 	O 	0.90812 0.48351 0.80536 -0.50200
O 	O 	0.59188 0.98351 0.69464 -0.41500
O 	O 	0.09188 0.48351 0.19464 -0.90800
O 	O 	0.40812 0.01649 0.69464 -0.95900
O 	O 	0.90812 0.51649 0.19464 -0.55900
O 	O 	0.01649 0.30536 0.59188 -0.97400
O 	O 	0.51649 0.80536 0.09188 -0.85200
O 	O 	0.98351 0.30536 0.40812 -0.47400
O 	O 	0.48351 0.80536 0.90812 -0.50200
O 	O 	0.98351 0.69464 0.59188 -0.41500
O 	O 	0.48351 0.19464 0.09188 -0.90800
O 	O 	0.01649 0.69464 0.40812 -0.95900
O 	O 	0.51649 0.19464 0.90812 -0.55900
O 	O 	0.30536 0.59188 0.01649 -0.97400
O 	O 	0.80536 0.09188 0.51649 -0.85200
O 	O 	0.30536 0.40812 0.98351 -0.47400
O 	O 	0.80536 0.90812 0.48351 -0.50200
O 	O 	0.69464 0.59188 0.98351 -0.41500
O 	O 	0.19464 0.09188 0.48351 -0.90800
O 	O 	0.69464 0.40812 0.01649 -0.95900
O 	O 	0.19464 0.90812 0.51649 -0.55900
Al	Al	0.00000 0.50000 0.50000 2.35800
Al	Al	0.50000 0.00000 -0.00000 2.32400
Al	Al	0.50000 0.00000 0.50000 2.35800
Al	Al	0.00000 0.50000 -0.00000 2.32400
Al	Al	0.50000 0.50000 -0.00000 2.35800
Al	Al	0.00000 0.00000 0.50000 2.32400
Al	Al	0.00000 0.50000 0.25000 2.35000
Al	Al	0.00000 0.50000 0.75000 2.35200
Al	Al	0.50000 0.00000 0.25000 2.35000
Al	Al	0.25000 0.00000 0.50000 2.35000
Al	Al	0.75000 0.00000 0.50000 2.35200
Al	Al	0.25000 0.50000 -0.00000 2.35000
Al	Al	0.50000 0.25000 -0.00000 2.35000
Al	Al	0.50000 0.75000 -0.00000 2.35200
Al	Al	0.00000 0.25000 0.50000 2.35000
Al	Al	0.50000 0.00000 0.75000 2.35200
Al	Al	0.00000 0.75000 0.50000 2.35200
Al	Al	0.75000 0.50000 -0.00000 2.35200
P 	P 	0.06445 0.62254 0.37746 0.68400
O 	O 	0.14866 0.64454 0.35546 -0.29200
O 	O 	0.06471 0.55784 0.44216 -0.99300
P 	P 	0.56445 0.12254 0.87746 0.67500
O 	O 	0.64866 0.14454 0.85546 -0.19800
O 	O 	0.56471 0.05784 0.94216 -0.76700
P 	P 	0.93555 0.37746 0.37746 0.66500
O 	O 	0.85134 0.35546 0.35546 -0.22500
O 	O 	0.93529 0.44216 0.44216 -0.59300
P 	P 	0.43555 0.87746 0.87746 0.67800
O 	O 	0.35134 0.85546 0.85546 -0.04800
O 	O 	0.43529 0.94216 0.94216 -0.33500
P 	P 	0.93555 0.62254 0.62254 0.67100
O 	O 	0.85134 0.64454 0.64454 -0.14100
O 	O 	0.93529 0.55784 0.55784 -0.59200
P 	P 	0.43555 0.12254 0.12254 0.67300
O 	O 	0.35134 0.14454 0.14454 -0.50300
O 	O 	0.43529 0.05784 0.05784 -1.26700
P 	P 	0.06445 0.37746 0.62254 0.68400
O 	O 	0.14866 0.35546 0.64454 -0.29200
O 	O 	0.06471 0.44216 0.55784 -0.99300
P 	P 	0.56445 0.87746 0.12254 0.67500
O 	O 	0.64866 0.85546 0.14454 -0.19800
O 	O 	0.56471 0.94216 0.05784 -0.76700
P 	P 	0.37746 0.06445 0.62254 0.68400
O 	O 	0.35546 0.14866 0.64454 -0.29200
O 	O 	0.44216 0.06471 0.55784 -0.99300
P 	P 	0.87746 0.56445 0.12254 0.67500
O 	O 	0.85546 0.64866 0.14454 -0.19800
O 	O 	0.94216 0.56471 0.05784 -0.76700
P 	P 	0.37746 0.93555 0.37746 0.66500
O 	O 	0.35546 0.85134 0.35546 -0.22500
O 	O 	0.44216 0.93529 0.44216 -0.59300
P 	P 	0.87746 0.43555 0.87746 0.67800
O 	O 	0.85546 0.35134 0.85546 -0.04800
O 	O 	0.94216 0.43529 0.94216 -0.33500
P 	P 	0.62254 0.93555 0.62254 0.67100
O 	O 	0.64454 0.85134 0.64454 -0.14100
O 	O 	0.55784 0.93529 0.55784 -0.59200
P 	P 	0.12254 0.43555 0.12254 0.67300
O 	O 	0.14454 0.35134 0.14454 -0.50300
O 	O 	0.05784 0.43529 0.05784 -1.26700
P 	P 	0.62254 0.06445 0.37746 0.68400
O 	O 	0.64454 0.14866 0.35546 -0.29200
O 	O 	0.55784 0.06471 0.44216 -0.99300
P 	P 	0.12254 0.56445 0.87746 0.67500
O 	O 	0.14454 0.64866 0.85546 -0.19800
O 	O 	0.05784 0.56471 0.94216 -0.76700
P 	P 	0.62254 0.37746 0.06445 0.68400
O 	O 	0.64454 0.35546 0.14866 -0.29200
O 	O 	0.55784 0.44216 0.06471 -0.99300
P 	P 	0.12254 0.87746 0.56445 0.67500
O 	O 	0.14454 0.85546 0.64866 -0.19800
O 	O 	0.05784 0.94216 0.56471 -0.76700
P 	P 	0.37746 0.37746 0.93555 0.66500
O 	O 	0.35546 0.35546 0.85134 -0.22500
O 	O 	0.44216 0.44216 0.93529 -0.59300
P 	P 	0.87746 0.87746 0.43555 0.67800
O 	O 	0.85546 0.85546 0.35134 -0.04800
O 	O 	0.94216 0.94216 0.43529 -0.33500
P 	P 	0.62254 0.62254 0.93555 0.67100
O 	O 	0.64454 0.64454 0.85134 -0.14100
O 	O 	0.55784 0.55784 0.93529 -0.59200
P 	P 	0.12254 0.12254 0.43555 0.67300
O 	O 	0.14454 0.14454 0.35134 -0.50300
O 	O 	0.05784 0.05784 0.43529 -1.26700
P 	P 	0.37746 0.62254 0.06445 0.68400
O 	O 	0.35546 0.64454 0.14866 -0.29200
O 	O 	0.44216 0.55784 0.06471 -0.99300
P 	P 	0.87746 0.12254 0.56445 0.67500
O 	O 	0.85546 0.14454 0.64866 -0.19800
O 	O 	0.94216 0.05784 0.56471 -0.76700
