data_crystal

_cell_length_a 23.43200
_cell_length_b 9.54220
_cell_length_c 18.99580
_cell_angle_alpha 90.00000
_cell_angle_beta  125.96400
_cell_angle_gamma 90.00000

_symmetry_space_group_name_	'P 1'
_symmetry_space_group_name_H-M	'P 1'

loop_
_symmetry_equiv_pos_as_xyz
  x,y,z

loop_
_atom_site_label
_atom_site_type_symbol
_atom_site_fract_x
_atom_site_fract_y
_atom_site_fract_z
_atom_site_charge
O 	O 	0.07198 0.14410 0.83648 -0.42200
O 	O 	0.13060 0.94630 0.89567 -0.30700
O 	O 	0.03949 0.05460 0.18887 -0.46100
O 	O 	0.03398 0.28560 0.19674 -0.29300
C 	C 	0.12665 0.07470 0.89212 0.31400
C 	C 	0.19129 0.16200 0.95296 -0.08000
C 	C 	0.23597 0.18120 0.92862 -0.00900
H 	H 	0.22610 0.13390 0.87980 0.04600
C 	C 	0.20485 0.23200 0.02628 0.03800
C 	C 	0.16072 0.21760 0.05839 0.07400
C 	C 	0.14871 0.33350 0.09254 -0.12700
H 	H 	0.16580 0.42080 0.09130 0.08300
C 	C 	0.11184 0.32070 0.12817 0.05500
H 	H 	0.10400 0.39970 0.15010 0.02800
C 	C 	0.08644 0.19210 0.13177 -0.12500
C 	C 	0.04966 0.17870 0.17551 0.36500
C 	C 	0.09681 0.07740 0.09605 0.06400
H 	H 	0.07890 0.99060 0.09640 0.01700
C 	C 	0.13336 0.08920 0.05980 -0.13400
H 	H 	0.13970 0.01060 0.03620 0.09600
O 	O 	0.57198 0.64410 0.83648 -0.39200
O 	O 	0.63060 0.44630 0.89567 -0.29400
O 	O 	0.53949 0.55460 0.18887 -0.43400
O 	O 	0.53398 0.78560 0.19674 -0.25800
C 	C 	0.62665 0.57470 0.89212 0.31200
C 	C 	0.69129 0.66200 0.95296 -0.06900
C 	C 	0.73597 0.68120 0.92862 -0.01100
H 	H 	0.72610 0.63390 0.87980 0.05100
C 	C 	0.70485 0.73200 0.02628 0.03900
C 	C 	0.66072 0.71760 0.05839 0.07200
C 	C 	0.64871 0.83350 0.09254 -0.11300
H 	H 	0.66580 0.92080 0.09130 0.08500
C 	C 	0.61184 0.82070 0.12817 0.04800
H 	H 	0.60400 0.89970 0.15010 0.04200
C 	C 	0.58644 0.69210 0.13177 -0.10200
C 	C 	0.54966 0.67870 0.17551 0.36000
C 	C 	0.59681 0.57740 0.09605 0.05200
H 	H 	0.57890 0.49060 0.09640 0.04000
C 	C 	0.63336 0.58920 0.05980 -0.11600
H 	H 	0.63970 0.51060 0.03620 0.09800
O 	O 	0.92802 0.14410 0.66352 -0.35000
O 	O 	0.86940 0.94630 0.60433 -0.26900
O 	O 	0.96051 0.05460 0.31113 -0.39500
O 	O 	0.96602 0.28560 0.30326 -0.22000
C 	C 	0.87335 0.07470 0.60788 0.29800
C 	C 	0.80871 0.16200 0.54704 -0.04000
C 	C 	0.76403 0.18120 0.57138 -0.03200
H 	H 	0.77390 0.13390 0.62020 0.05900
C 	C 	0.79515 0.23200 0.47372 0.01600
C 	C 	0.83928 0.21760 0.44161 0.08100
C 	C 	0.85129 0.33350 0.40746 -0.10900
H 	H 	0.83420 0.42080 0.40870 0.09000
C 	C 	0.88816 0.32070 0.37183 0.04800
H 	H 	0.89600 0.39970 0.34990 0.05200
C 	C 	0.91356 0.19210 0.36823 -0.08700
C 	C 	0.95034 0.17870 0.32449 0.35500
C 	C 	0.90319 0.07740 0.40395 0.05500
H 	H 	0.92110 0.99060 0.40360 0.05200
C 	C 	0.86664 0.08920 0.44020 -0.11300
H 	H 	0.86030 0.01060 0.46380 0.10100
O 	O 	0.42802 0.64410 0.66352 -0.38900
O 	O 	0.36940 0.44630 0.60433 -0.29100
O 	O 	0.46051 0.55460 0.31113 -0.43600
O 	O 	0.46602 0.78560 0.30326 -0.25900
C 	C 	0.37335 0.57470 0.60788 0.30600
C 	C 	0.30871 0.66200 0.54704 -0.04800
C 	C 	0.26403 0.68120 0.57138 -0.03000
H 	H 	0.27390 0.63390 0.62020 0.05500
C 	C 	0.29515 0.73200 0.47372 0.01100
C 	C 	0.33928 0.71760 0.44161 0.08000
C 	C 	0.35129 0.83350 0.40746 -0.12200
H 	H 	0.33420 0.92080 0.40870 0.08700
C 	C 	0.38816 0.82070 0.37183 0.05200
H 	H 	0.39600 0.89970 0.34990 0.03900
C 	C 	0.41356 0.69210 0.36823 -0.10700
C 	C 	0.45034 0.67870 0.32449 0.36000
C 	C 	0.40319 0.57740 0.40395 0.05500
H 	H 	0.42110 0.49060 0.40360 0.03600
C 	C 	0.36664 0.58920 0.44020 -0.12600
H 	H 	0.36030 0.51060 0.46380 0.09600
O 	O 	0.92802 0.85590 0.16352 -0.34500
O 	O 	0.86940 0.05370 0.10433 -0.26100
O 	O 	0.96051 0.94540 0.81113 -0.39800
O 	O 	0.96602 0.71440 0.80326 -0.22300
C 	C 	0.87335 0.92530 0.10788 0.28700
C 	C 	0.80871 0.83800 0.04704 -0.01600
C 	C 	0.76403 0.81880 0.07138 -0.05000
H 	H 	0.77390 0.86610 0.12020 0.06600
C 	C 	0.79515 0.76800 0.97372 -0.00900
C 	C 	0.83928 0.78240 0.94161 0.09000
C 	C 	0.85129 0.66650 0.90746 -0.11900
H 	H 	0.83420 0.57920 0.90870 0.09200
C 	C 	0.88816 0.67930 0.87183 0.05400
H 	H 	0.89600 0.60030 0.84990 0.04800
C 	C 	0.91356 0.80790 0.86823 -0.09400
C 	C 	0.95034 0.82130 0.82449 0.35600
C 	C 	0.90319 0.92260 0.90395 0.06300
H 	H 	0.92110 0.00940 0.90360 0.04500
C 	C 	0.86664 0.91080 0.94020 -0.12400
H 	H 	0.86030 0.98940 0.96380 0.10200
O 	O 	0.42802 0.35590 0.16352 -0.38500
O 	O 	0.36940 0.55370 0.10433 -0.28600
O 	O 	0.46051 0.44540 0.81113 -0.43800
O 	O 	0.46602 0.21440 0.80326 -0.26200
C 	C 	0.37335 0.42530 0.10788 0.29800
C 	C 	0.30871 0.33800 0.04704 -0.01900
C 	C 	0.26403 0.31880 0.07138 -0.05100
H 	H 	0.27390 0.36610 0.12020 0.06300
C 	C 	0.29515 0.26800 0.97372 -0.01700
C 	C 	0.33928 0.28240 0.94161 0.09000
C 	C 	0.35129 0.16650 0.90746 -0.13200
H 	H 	0.33420 0.07920 0.90870 0.08800
C 	C 	0.38816 0.17930 0.87183 0.05800
H 	H 	0.39600 0.10030 0.84990 0.03500
C 	C 	0.41356 0.30790 0.86823 -0.11400
C 	C 	0.45034 0.32130 0.82449 0.36200
C 	C 	0.40319 0.42260 0.90395 0.06100
H 	H 	0.42110 0.50940 0.90360 0.03200
C 	C 	0.36664 0.41080 0.94020 -0.13600
H 	H 	0.36030 0.48940 0.96380 0.09600
O 	O 	0.07198 0.85590 0.33648 -0.41900
O 	O 	0.13060 0.05370 0.39567 -0.30500
O 	O 	0.03949 0.94540 0.68887 -0.46300
O 	O 	0.03398 0.71440 0.69674 -0.29500
C 	C 	0.12665 0.92530 0.39212 0.31000
C 	C 	0.19129 0.83800 0.45296 -0.05200
C 	C 	0.23597 0.81880 0.42862 -0.02900
H 	H 	0.22610 0.86610 0.37980 0.05400
C 	C 	0.20485 0.76800 0.52628 0.00900
C 	C 	0.16072 0.78240 0.55839 0.08300
C 	C 	0.14871 0.66650 0.59254 -0.13600
H 	H 	0.16580 0.57920 0.59130 0.08500
C 	C 	0.11184 0.67930 0.62817 0.05900
H 	H 	0.10400 0.60030 0.65010 0.02500
C 	C 	0.08644 0.80790 0.63177 -0.12900
C 	C 	0.04966 0.82130 0.67551 0.36500
C 	C 	0.09681 0.92260 0.59605 0.06400
H 	H 	0.07890 0.00940 0.59640 0.01600
C 	C 	0.13336 0.91080 0.55980 -0.14200
H 	H 	0.13970 0.98940 0.53620 0.09400
O 	O 	0.57198 0.35590 0.33648 -0.38900
O 	O 	0.63060 0.55370 0.39567 -0.28800
O 	O 	0.53949 0.44540 0.68887 -0.43600
O 	O 	0.53398 0.21440 0.69674 -0.26000
C 	C 	0.62665 0.42530 0.39212 0.30500
C 	C 	0.69129 0.33800 0.45296 -0.04500
C 	C 	0.73597 0.31880 0.42862 -0.02900
H 	H 	0.72610 0.36610 0.37980 0.05800
C 	C 	0.70485 0.26800 0.52628 0.01500
C 	C 	0.66072 0.28240 0.55839 0.08100
C 	C 	0.64871 0.16650 0.59254 -0.12100
H 	H 	0.66580 0.07920 0.59130 0.08700
C 	C 	0.61184 0.17930 0.62817 0.05300
H 	H 	0.60400 0.10030 0.65010 0.03900
C 	C 	0.58644 0.30790 0.63177 -0.10700
C 	C 	0.54966 0.32130 0.67551 0.36100
C 	C 	0.59681 0.42260 0.59605 0.05600
H 	H 	0.57890 0.50940 0.59640 0.03600
C 	C 	0.63336 0.41080 0.55980 -0.12500
H 	H 	0.63970 0.48940 0.53620 0.09700
Zn	Zn	0.00000 0.00620 0.75000 1.21500
Zn	Zn	0.50000 0.50620 0.75000 1.24300
Zn	Zn	0.00000 0.99380 0.25000 1.21600
Zn	Zn	0.50000 0.49380 0.25000 1.24400
