data_crystal

_cell_length_a 10.52300
_cell_length_b 11.59680
_cell_length_c 50.24200
_cell_angle_alpha 90.00000
_cell_angle_beta  95.69700
_cell_angle_gamma 90.00000

_symmetry_space_group_name_	'P 1'
_symmetry_space_group_name_H-M	'P 1'

loop_
_symmetry_equiv_pos_as_xyz
  x,y,z

loop_
_atom_site_label
_atom_site_type_symbol
_atom_site_fract_x
_atom_site_fract_y
_atom_site_fract_z
_atom_site_charge
Ag	Ag	0.22595 0.60366 0.63299 0.53100
Ag	Ag	0.56979 0.17727 0.87993 0.52200
C 	C 	0.96710 0.35390 0.68040 -0.08800
C 	C 	0.00950 0.31470 0.70610 0.05300
H 	H 	0.08240 0.34570 0.71540 0.00800
C 	C 	0.94180 0.23030 0.71720 -0.17700
H 	H 	0.97170 0.20180 0.73390 0.09500
C 	C 	0.83120 0.18590 0.70440 0.15600
C 	C 	0.78650 0.22860 0.67900 -0.16900
H 	H 	0.71040 0.20120 0.67030 0.10000
C 	C 	0.85650 0.31160 0.66710 0.04900
H 	H 	0.82870 0.33880 0.65010 0.02500
C 	C 	0.68920 0.01380 0.70180 0.16300
C 	C 	0.58020 0.97100 0.71150 -0.18400
H 	H 	0.55500 0.99870 0.72750 0.09800
C 	C 	0.50940 0.88810 0.69750 0.06500
H 	H 	0.43450 0.86120 0.70380 0.00200
C 	C 	0.54870 0.84500 0.67460 -0.09600
C 	C 	0.65540 0.88650 0.66480 0.06600
H 	H 	0.67880 0.85900 0.64860 0.01000
C 	C 	0.72890 0.96880 0.67860 -0.18600
H 	H 	0.80450 0.99400 0.67240 0.09600
C 	C 	0.75520 0.10640 0.74450 0.15100
C 	C 	0.80100 0.02110 0.76150 -0.16800
H 	H 	0.84190 0.95840 0.75450 0.08600
C 	C 	0.68000 0.20590 0.78230 0.03300
H 	H 	0.63630 0.26690 0.78920 0.01300
C 	C 	0.69700 0.19900 0.75500 -0.16300
H 	H 	0.66780 0.25900 0.74370 0.08700
C 	C 	0.46930 0.75710 0.65930 0.11700
C 	C 	0.71630 0.12320 0.82680 0.09300
C 	C 	0.73190 0.11720 0.79870 -0.07500
C 	C 	0.78910 0.02400 0.78840 0.04500
H 	H 	0.81950 0.96360 0.79950 0.01600
N 	N 	0.76330 0.10090 0.71670 -0.18600
N 	N 	0.40880 0.68900 0.64960 -0.20000
N 	N 	0.70200 0.12750 0.84880 -0.19200
N 	N 	0.09340 0.50190 0.65630 -0.22700
C 	C 	0.04030 0.43990 0.66710 0.11500
Ag	Ag	0.27405 0.10366 0.86701 0.53200
Ag	Ag	0.93021 0.67727 0.62007 0.52200
C 	C 	0.53290 0.85390 0.81960 -0.08700
C 	C 	0.49050 0.81470 0.79390 0.05200
H 	H 	0.41760 0.84570 0.78460 0.00800
C 	C 	0.55820 0.73030 0.78280 -0.17700
H 	H 	0.52830 0.70180 0.76610 0.09400
C 	C 	0.66880 0.68590 0.79560 0.15600
C 	C 	0.71350 0.72860 0.82100 -0.16900
H 	H 	0.78960 0.70120 0.82970 0.09900
C 	C 	0.64350 0.81160 0.83290 0.04800
H 	H 	0.67130 0.83880 0.84990 0.02500
C 	C 	0.81080 0.51380 0.79820 0.15700
C 	C 	0.91980 0.47100 0.78850 -0.17900
H 	H 	0.94500 0.49870 0.77250 0.09600
C 	C 	0.99060 0.38810 0.80250 0.06000
H 	H 	0.06550 0.36120 0.79620 0.00400
C 	C 	0.95130 0.34500 0.82540 -0.09200
C 	C 	0.84460 0.38650 0.83520 0.06100
H 	H 	0.82120 0.35900 0.85140 0.01200
C 	C 	0.77110 0.46880 0.82140 -0.18100
H 	H 	0.69550 0.49400 0.82760 0.09500
C 	C 	0.74480 0.60640 0.75550 0.15100
C 	C 	0.69900 0.52110 0.73850 -0.17000
H 	H 	0.65810 0.45840 0.74550 0.08800
C 	C 	0.82000 0.70590 0.71770 0.03200
H 	H 	0.86370 0.76690 0.71080 0.01300
C 	C 	0.80300 0.69900 0.74500 -0.16300
H 	H 	0.83220 0.75900 0.75630 0.08700
C 	C 	0.03070 0.25710 0.84070 0.11600
C 	C 	0.78370 0.62320 0.67320 0.09300
C 	C 	0.76810 0.61720 0.70130 -0.07400
C 	C 	0.71090 0.52400 0.71160 0.04200
H 	H 	0.68050 0.46360 0.70050 0.01800
N 	N 	0.73670 0.60090 0.78330 -0.18600
N 	N 	0.09120 0.18900 0.85040 -0.20000
N 	N 	0.79800 0.62750 0.65120 -0.19200
N 	N 	0.40660 0.00190 0.84370 -0.22600
C 	C 	0.45970 0.93990 0.83290 0.11300
C 	C 	0.39470 0.11490 0.92750 0.11800
C 	C 	0.38730 0.10240 0.95790 0.94300
F 	F 	0.37610 0.20100 0.96900 -0.45100
F 	F 	0.49370 0.06610 0.97090 -0.40100
F 	F 	0.30720 0.03300 0.96470 -0.46400
O 	O 	0.30260 0.07420 0.91314 -0.21100
O 	O 	0.49110 0.15620 0.92140 -0.21600
C 	C 	0.10530 0.61490 0.57250 0.11800
C 	C 	0.11270 0.60240 0.54210 0.94300
F 	F 	0.12390 0.70100 0.53100 -0.45000
F 	F 	0.00630 0.56610 0.52910 -0.40100
F 	F 	0.19280 0.53300 0.53530 -0.46400
O 	O 	0.19740 0.57420 0.58686 -0.21100
O 	O 	0.00890 0.65620 0.57860 -0.21600
C 	C 	0.60530 0.88510 0.07250 0.11800
C 	C 	0.61270 0.89760 0.04210 0.94300
F 	F 	0.62390 0.79900 0.03100 -0.45100
F 	F 	0.50630 0.93390 0.02910 -0.40100
F 	F 	0.69280 0.96700 0.03530 -0.46400
O 	O 	0.69740 0.92580 0.08686 -0.21100
O 	O 	0.50890 0.84380 0.07860 -0.21600
C 	C 	0.89470 0.38510 0.42750 0.11800
C 	C 	0.88730 0.39760 0.45790 0.94300
F 	F 	0.87610 0.29900 0.46900 -0.45000
F 	F 	0.99370 0.43390 0.47090 -0.40100
F 	F 	0.80720 0.46700 0.46470 -0.46400
O 	O 	0.80260 0.42580 0.41314 -0.21100
O 	O 	0.99110 0.34380 0.42140 -0.21600
Ag	Ag	0.77405 0.39634 0.36701 0.53200
Ag	Ag	0.43021 0.82273 0.12007 0.52300
C 	C 	0.03290 0.64610 0.31960 -0.08800
C 	C 	0.99050 0.68530 0.29390 0.05300
H 	H 	0.91760 0.65430 0.28460 0.00800
C 	C 	0.05820 0.76970 0.28280 -0.17700
H 	H 	0.02830 0.79820 0.26610 0.09500
C 	C 	0.16880 0.81410 0.29560 0.15600
C 	C 	0.21350 0.77140 0.32100 -0.16900
H 	H 	0.28960 0.79880 0.32970 0.10000
C 	C 	0.14350 0.68840 0.33290 0.04900
H 	H 	0.17130 0.66120 0.34990 0.02500
C 	C 	0.31080 0.98620 0.29820 0.16300
C 	C 	0.41980 0.02900 0.28850 -0.18400
H 	H 	0.44500 0.00130 0.27250 0.09800
C 	C 	0.49060 0.11190 0.30250 0.06500
H 	H 	0.56550 0.13880 0.29620 0.00200
C 	C 	0.45130 0.15500 0.32540 -0.09600
C 	C 	0.34460 0.11350 0.33520 0.06600
H 	H 	0.32120 0.14100 0.35140 0.01000
C 	C 	0.27110 0.03120 0.32140 -0.18600
H 	H 	0.19550 0.00600 0.32760 0.09600
C 	C 	0.24480 0.89360 0.25550 0.15100
C 	C 	0.19900 0.97890 0.23850 -0.16800
H 	H 	0.15810 0.04160 0.24550 0.08600
C 	C 	0.32000 0.79410 0.21770 0.03300
H 	H 	0.36370 0.73310 0.21080 0.01300
C 	C 	0.30300 0.80100 0.24500 -0.16300
H 	H 	0.33220 0.74100 0.25630 0.08700
C 	C 	0.53070 0.24290 0.34070 0.11700
C 	C 	0.28370 0.87680 0.17320 0.09300
C 	C 	0.26810 0.88280 0.20130 -0.07500
C 	C 	0.21090 0.97600 0.21160 0.04500
H 	H 	0.18050 0.03640 0.20050 0.01600
N 	N 	0.23670 0.89910 0.28330 -0.18600
N 	N 	0.59120 0.31100 0.35040 -0.20000
N 	N 	0.29800 0.87250 0.15120 -0.19200
N 	N 	0.90660 0.49810 0.34370 -0.22700
C 	C 	0.95970 0.56010 0.33290 0.11500
Ag	Ag	0.72595 0.89634 0.13299 0.53200
Ag	Ag	0.06979 0.32273 0.37993 0.52200
C 	C 	0.46710 0.14610 0.18040 -0.08700
C 	C 	0.50950 0.18530 0.20610 0.05200
H 	H 	0.58240 0.15430 0.21540 0.00800
C 	C 	0.44180 0.26970 0.21720 -0.17700
H 	H 	0.47170 0.29820 0.23390 0.09400
C 	C 	0.33120 0.31410 0.20440 0.15600
C 	C 	0.28650 0.27140 0.17900 -0.16900
H 	H 	0.21040 0.29880 0.17030 0.09900
C 	C 	0.35650 0.18840 0.16710 0.04800
H 	H 	0.32870 0.16120 0.15010 0.02500
C 	C 	0.18920 0.48620 0.20180 0.15700
C 	C 	0.08020 0.52900 0.21150 -0.17900
H 	H 	0.05500 0.50130 0.22750 0.09600
C 	C 	0.00940 0.61190 0.19750 0.06000
H 	H 	0.93450 0.63880 0.20380 0.00400
C 	C 	0.04870 0.65500 0.17460 -0.09200
C 	C 	0.15540 0.61350 0.16480 0.06100
H 	H 	0.17880 0.64100 0.14860 0.01200
C 	C 	0.22890 0.53120 0.17860 -0.18100
H 	H 	0.30450 0.50600 0.17240 0.09500
C 	C 	0.25520 0.39360 0.24450 0.15100
C 	C 	0.30100 0.47890 0.26150 -0.17000
H 	H 	0.34190 0.54160 0.25450 0.08800
C 	C 	0.18000 0.29410 0.28230 0.03200
H 	H 	0.13630 0.23310 0.28920 0.01300
C 	C 	0.19700 0.30100 0.25500 -0.16300
H 	H 	0.16780 0.24100 0.24370 0.08700
C 	C 	0.96930 0.74290 0.15930 0.11600
C 	C 	0.21630 0.37680 0.32680 0.09300
C 	C 	0.23190 0.38280 0.29870 -0.07400
C 	C 	0.28910 0.47600 0.28840 0.04200
H 	H 	0.31950 0.53640 0.29950 0.01800
N 	N 	0.26330 0.39910 0.21670 -0.18600
N 	N 	0.90880 0.81100 0.14960 -0.20000
N 	N 	0.20200 0.37250 0.34880 -0.19200
N 	N 	0.59340 0.99810 0.15630 -0.22600
C 	C 	0.54030 0.06010 0.16710 0.11300
