data_crystal

_cell_length_a 14.23240
_cell_length_b 15.47770
_cell_length_c 15.47770
_cell_angle_alpha 68.95670
_cell_angle_beta  72.15070
_cell_angle_gamma 107.84900

_symmetry_space_group_name_	'P 1'
_symmetry_space_group_name_H-M	'P 1'

loop_
_symmetry_equiv_pos_as_xyz
  x,y,z

loop_
_atom_site_label
_atom_site_type_symbol
_atom_site_fract_x
_atom_site_fract_y
_atom_site_fract_z
_atom_site_charge
Mn	Mn	0.51056 0.24303 0.27484 1.23000
Mn	Mn	0.78540 0.27484 0.48213 1.23800
Mn	Mn	0.26753 0.48213 0.24303 1.22300
Mn	Mn	0.48944 0.75697 0.72516 1.23200
Mn	Mn	0.21460 0.72516 0.51787 1.22400
Mn	Mn	0.73247 0.51787 0.75697 1.23700
Mn	Mn	0.00000 0.50000 -0.00000 1.21200
Mn	Mn	0.00000 0.00000 0.50000 1.21700
Mn	Mn	0.50000 0.50000 0.50000 1.26700
H 	H 	0.49470 0.45940 0.91860 0.00900
H 	H 	0.31560 0.40880 0.93610 -0.00100
H 	H 	0.17770 0.23700 0.05230 0.03100
H 	H 	0.21540 0.11890 0.15830 -0.00100
H 	H 	0.39450 0.16820 0.14010 0.02400
H 	H 	0.41330 0.91860 0.62200 0.00700
H 	H 	0.25170 0.93610 0.65510 0.00200
H 	H 	0.23000 0.05230 0.71070 0.03600
H 	H 	0.37370 0.15830 0.72280 0.02300
H 	H 	0.53460 0.14010 0.69170 0.03000
H 	H 	0.03530 0.62200 0.45940 0.01600
H 	H 	0.90680 0.65510 0.40880 0.01700
H 	H 	0.94070 0.71070 0.23700 -0.00100
H 	H 	0.09650 0.72280 0.11890 0.07100
H 	H 	0.22630 0.69170 0.16820 -0.00100
H 	H 	0.50530 0.54060 0.08140 0.00100
H 	H 	0.68440 0.59120 0.06390 0.05200
H 	H 	0.82230 0.76300 0.94770 0.02100
H 	H 	0.78460 0.88110 0.84170 0.07900
H 	H 	0.60550 0.83180 0.85990 0.02200
H 	H 	0.58670 0.08140 0.37800 0.00300
H 	H 	0.74830 0.06390 0.34490 0.05000
H 	H 	0.77000 0.94770 0.28930 0.01800
H 	H 	0.62630 0.84170 0.27720 0.05600
H 	H 	0.46540 0.85990 0.30830 0.01700
H 	H 	0.96470 0.37800 0.54060 -0.00900
H 	H 	0.09320 0.34490 0.59120 0.03700
H 	H 	0.05930 0.28930 0.76300 0.05000
H 	H 	0.90350 0.27720 0.88110 0.01300
H 	H 	0.77370 0.30830 0.83180 0.04600
C 	C 	0.87138 0.49392 0.86669 0.32300
C 	C 	0.75567 0.42289 0.95307 -0.01200
C 	C 	0.70835 0.35854 0.06086 -0.13300
C 	C 	0.75330 0.33071 0.13611 0.34500
C 	C 	0.57607 0.34960 0.01883 0.07000
C 	C 	0.46311 0.31893 0.02815 -0.09300
C 	C 	0.43899 0.39087 0.96653 -0.01500
C 	C 	0.33165 0.36033 0.97667 0.03900
C 	C 	0.24872 0.25775 0.04719 -0.15800
C 	C 	0.27178 0.18709 0.10925 -0.00700
C 	C 	0.37912 0.21699 0.09907 -0.06100
C 	C 	0.73807 0.86669 0.63939 0.33200
C 	C 	0.70874 0.95307 0.62404 -0.03200
C 	C 	0.76921 0.06086 0.58060 -0.11200
C 	C 	0.88941 0.13611 0.53318 0.33900
C 	C 	0.59490 0.01883 0.63157 0.08300
C 	C 	0.49126 0.02815 0.65292 -0.08500
C 	C 	0.40552 0.96653 0.64260 -0.01900
C 	C 	0.30832 0.97667 0.66300 0.02000
C 	C 	0.29591 0.04719 0.69506 -0.12800
C 	C 	0.38103 0.10925 0.70366 -0.01500
C 	C 	0.47819 0.09907 0.68394 -0.05000
C 	C 	0.37746 0.63939 0.49392 0.34900
C 	C 	0.33278 0.62404 0.42289 -0.08600
C 	C 	0.34981 0.58060 0.35854 -0.08000
C 	C 	0.42259 0.53318 0.33071 0.33200
C 	C 	0.22647 0.63157 0.34960 0.10000
C 	C 	0.14418 0.65292 0.31893 -0.06800
C 	C 	0.04812 0.64260 0.39087 -0.14700
C 	C 	0.97132 0.66300 0.36033 0.03100
C 	C 	0.99097 0.69506 0.25775 0.10100
C 	C 	0.08469 0.70366 0.18709 -0.21900
C 	C 	0.16213 0.68394 0.21699 0.02200
C 	C 	0.12862 0.50608 0.13331 0.37300
C 	C 	0.24433 0.57711 0.04693 -0.15600
C 	C 	0.29165 0.64146 0.93914 -0.01200
C 	C 	0.24670 0.66929 0.86389 0.31700
C 	C 	0.42393 0.65040 0.98117 0.15100
C 	C 	0.53689 0.68107 0.97185 -0.04200
C 	C 	0.56101 0.60913 0.03347 -0.05100
C 	C 	0.66835 0.63967 0.02333 -0.14300
C 	C 	0.75128 0.74225 0.95281 0.07000
C 	C 	0.72822 0.81291 0.89075 -0.09600
C 	C 	0.62088 0.78301 0.90093 0.00100
C 	C 	0.26193 0.13331 0.36061 0.36500
C 	C 	0.29126 0.04693 0.37596 -0.13900
C 	C 	0.23079 0.93914 0.41940 -0.03300
C 	C 	0.11059 0.86389 0.46682 0.32300
C 	C 	0.40510 0.98117 0.36843 0.13900
C 	C 	0.50874 0.97185 0.34708 -0.05000
C 	C 	0.59448 0.03347 0.35740 -0.04800
C 	C 	0.69168 0.02333 0.33700 -0.12300
C 	C 	0.70409 0.95281 0.30494 0.04000
C 	C 	0.61897 0.89075 0.29634 -0.08700
C 	C 	0.52181 0.90093 0.31606 -0.01000
C 	C 	0.62254 0.36061 0.50608 0.35100
C 	C 	0.66722 0.37596 0.57711 -0.08100
C 	C 	0.65019 0.41940 0.64146 -0.07400
C 	C 	0.57741 0.46682 0.66929 0.33500
C 	C 	0.77353 0.36843 0.65040 0.12100
C 	C 	0.85582 0.34708 0.68107 -0.07100
C 	C 	0.95188 0.35740 0.60913 0.08900
C 	C 	0.02868 0.33700 0.63967 -0.15000
C 	C 	0.00903 0.30494 0.74225 -0.17200
C 	C 	0.91531 0.29634 0.81291 0.10700
C 	C 	0.83787 0.31606 0.78301 -0.07400
N 	N 	0.59440 0.31318 0.10172 -0.22800
N 	N 	0.67032 0.41631 0.92738 -0.22000
N 	N 	0.69612 0.10172 0.58510 -0.22900
N 	N 	0.59770 0.92738 0.65631 -0.22400
N 	N 	0.28122 0.58510 0.31318 -0.24000
N 	N 	0.25401 0.65631 0.41631 -0.23900
N 	N 	0.40560 0.68682 0.89828 -0.24700
N 	N 	0.32968 0.58369 0.07262 -0.25500
N 	N 	0.30388 0.89828 0.41490 -0.24600
N 	N 	0.40230 0.07262 0.34369 -0.25200
N 	N 	0.71878 0.41490 0.68682 -0.23400
N 	N 	0.74599 0.34369 0.58369 -0.23600
O 	O 	0.95529 0.50926 0.88023 -0.40100
O 	O 	0.88035 0.53852 0.77584 -0.43600
O 	O 	0.85460 0.35381 0.10392 -0.43600
O 	O 	0.68410 0.28123 0.23162 -0.46500
O 	O 	0.83552 0.88023 0.61051 -0.42000
O 	O 	0.65619 0.77584 0.68564 -0.45800
O 	O 	0.95852 0.10392 0.54227 -0.41700
O 	O 	0.91572 0.23162 0.48715 -0.43800
O 	O 	0.44603 0.61051 0.50926 -0.47100
O 	O 	0.34183 0.68564 0.53852 -0.47400
O 	O 	0.50079 0.54227 0.35381 -0.45400
O 	O 	0.40287 0.48715 0.28123 -0.47100
O 	O 	0.04471 0.49074 0.11977 -0.52400
O 	O 	0.11965 0.46148 0.22416 -0.50500
O 	O 	0.14540 0.64619 0.89608 -0.44900
O 	O 	0.31590 0.71877 0.76838 -0.46300
O 	O 	0.16448 0.11977 0.38949 -0.50800
O 	O 	0.34381 0.22416 0.31436 -0.48200
O 	O 	0.04148 0.89608 0.45773 -0.46900
O 	O 	0.08428 0.76838 0.51285 -0.48900
O 	O 	0.55397 0.38949 0.49074 -0.47200
O 	O 	0.65817 0.31436 0.46148 -0.46600
O 	O 	0.49921 0.45773 0.64619 -0.45600
O 	O 	0.59713 0.51285 0.71877 -0.46000
