data_crystal

_cell_length_a 8.00980
_cell_length_b 13.81300
_cell_length_c 22.12600
_cell_angle_alpha 90.00000
_cell_angle_beta  98.25000
_cell_angle_gamma 90.00000

_symmetry_space_group_name_	'P 1'
_symmetry_space_group_name_H-M	'P 1'

loop_
_symmetry_equiv_pos_as_xyz
  x,y,z

loop_
_atom_site_label
_atom_site_type_symbol
_atom_site_fract_x
_atom_site_fract_y
_atom_site_fract_z
_atom_site_charge
Zn	Zn	0.19051 0.02099 0.15018 1.24100
O 	O 	0.16350 0.93860 0.07769 -0.46000
O 	O 	0.00660 0.84860 0.12870 -0.56000
H 	H 	0.07040 0.81310 0.15090 0.29700
O 	O 	0.02900 0.90770 0.84759 -0.38800
O 	O 	0.05990 0.75710 0.81640 -0.23100
O 	O 	0.76760 0.48390 0.26290 -0.40800
O 	O 	0.56910 0.39110 0.29140 -0.29500
O 	O 	0.34970 0.12850 0.15062 -0.45700
O 	O 	0.38570 0.13120 0.05280 -0.53800
H 	H 	0.47700 0.11210 0.04490 0.29500
N 	N 	0.78100 0.53710 0.04158 -0.13800
N 	N 	0.68940 0.42760 0.97310 -0.18200
H 	H 	0.64250 0.37640 0.95630 0.13600
N 	N 	0.76660 0.50010 0.94410 -0.08700
C 	C 	0.06870 0.86730 0.08270 0.43500
C 	C 	0.02190 0.80450 0.02620 -0.10000
C 	C 	0.05020 0.83640 0.96940 0.03200
H 	H 	0.09870 0.89680 0.96540 0.04100
C 	C 	0.00650 0.77860 0.91800 -0.09300
C 	C 	0.93700 0.68840 0.92350 -0.00100
H 	H 	0.91250 0.64880 0.88940 0.05800
C 	C 	0.90330 0.65650 0.98050 -0.02400
C 	C 	0.94610 0.71430 0.03150 0.01200
H 	H 	0.92440 0.69290 0.06950 0.05600
C 	C 	0.03230 0.81610 0.85540 0.31700
C 	C 	0.81740 0.56300 0.98570 0.12800
C 	C 	0.70070 0.45110 0.03080 0.15100
C 	C 	0.64130 0.39980 0.08070 -0.05200
C 	C 	0.55630 0.30970 0.06990 0.03900
H 	H 	0.54270 0.28310 0.03090 0.02900
C 	C 	0.49370 0.26110 0.11650 -0.13800
C 	C 	0.51800 0.30130 0.17510 0.06100
H 	H 	0.47230 0.27040 0.20630 0.05000
C 	C 	0.60900 0.38650 0.18790 -0.08100
C 	C 	0.66990 0.43550 0.14020 0.02200
H 	H 	0.73040 0.49270 0.14830 0.06000
C 	C 	0.64860 0.42210 0.25200 0.33200
C 	C 	0.40460 0.16720 0.10510 0.44000
Zn	Zn	0.80949 0.52099 0.34982 1.24200
O 	O 	0.83650 0.43860 0.42231 -0.46400
O 	O 	0.99340 0.34860 0.37130 -0.56200
H 	H 	0.92960 0.31310 0.34910 0.29800
O 	O 	0.97100 0.40770 0.65241 -0.38900
O 	O 	0.94010 0.25710 0.68360 -0.23100
O 	O 	0.23240 0.98390 0.23710 -0.40500
O 	O 	0.43090 0.89110 0.20860 -0.29400
O 	O 	0.65030 0.62850 0.34938 -0.45600
O 	O 	0.61430 0.63120 0.44720 -0.53600
H 	H 	0.52300 0.61210 0.45510 0.29500
N 	N 	0.21900 0.03710 0.45842 -0.14000
N 	N 	0.31060 0.92760 0.52690 -0.18200
H 	H 	0.35750 0.87640 0.54370 0.13600
N 	N 	0.23340 0.00010 0.55590 -0.08700
C 	C 	0.93130 0.36730 0.41730 0.43600
C 	C 	0.97810 0.30450 0.47380 -0.10300
C 	C 	0.94980 0.33640 0.53060 0.03500
H 	H 	0.90130 0.39680 0.53460 0.04000
C 	C 	0.99350 0.27860 0.58200 -0.09400
C 	C 	0.06300 0.18840 0.57650 0.00000
H 	H 	0.08750 0.14880 0.61060 0.05800
C 	C 	0.09670 0.15650 0.51950 -0.02400
C 	C 	0.05390 0.21430 0.46850 0.01200
H 	H 	0.07560 0.19290 0.43050 0.05500
C 	C 	0.96770 0.31610 0.64460 0.31700
C 	C 	0.18260 0.06300 0.51430 0.12800
C 	C 	0.29930 0.95110 0.46920 0.15400
C 	C 	0.35870 0.89980 0.41930 -0.05200
C 	C 	0.44370 0.80970 0.43010 0.03800
H 	H 	0.45730 0.78310 0.46910 0.03000
C 	C 	0.50630 0.76110 0.38350 -0.13700
C 	C 	0.48200 0.80130 0.32490 0.06100
H 	H 	0.52770 0.77040 0.29370 0.05000
C 	C 	0.39100 0.88650 0.31210 -0.08100
C 	C 	0.33010 0.93550 0.35980 0.02200
H 	H 	0.26960 0.99270 0.35170 0.06100
C 	C 	0.35140 0.92210 0.24800 0.33100
C 	C 	0.59540 0.66720 0.39490 0.44000
Zn	Zn	0.80949 0.97901 0.84982 1.24000
O 	O 	0.83650 0.06140 0.92231 -0.46100
O 	O 	0.99340 0.15140 0.87130 -0.56000
H 	H 	0.92960 0.18690 0.84910 0.29700
O 	O 	0.97100 0.09230 0.15241 -0.38800
O 	O 	0.94010 0.24290 0.18360 -0.23100
O 	O 	0.23240 0.51610 0.73710 -0.40800
O 	O 	0.43090 0.60890 0.70860 -0.29500
O 	O 	0.65030 0.87150 0.84938 -0.45700
O 	O 	0.61430 0.86880 0.94720 -0.53800
H 	H 	0.52300 0.88790 0.95510 0.29500
N 	N 	0.21900 0.46290 0.95842 -0.13800
N 	N 	0.31060 0.57240 0.02690 -0.18200
H 	H 	0.35750 0.62360 0.04370 0.13600
N 	N 	0.23340 0.49990 0.05590 -0.08700
C 	C 	0.93130 0.13270 0.91730 0.43500
C 	C 	0.97810 0.19550 0.97380 -0.10000
C 	C 	0.94980 0.16360 0.03060 0.03200
H 	H 	0.90130 0.10320 0.03460 0.04100
C 	C 	0.99350 0.22140 0.08200 -0.09300
C 	C 	0.06300 0.31160 0.07650 -0.00100
H 	H 	0.08750 0.35120 0.11060 0.05800
C 	C 	0.09670 0.34350 0.01950 -0.02400
C 	C 	0.05390 0.28570 0.96850 0.01200
H 	H 	0.07560 0.30710 0.93050 0.05600
C 	C 	0.96770 0.18390 0.14460 0.31700
C 	C 	0.18260 0.43700 0.01430 0.12800
C 	C 	0.29930 0.54890 0.96920 0.15100
C 	C 	0.35870 0.60020 0.91930 -0.05200
C 	C 	0.44370 0.69030 0.93010 0.03900
H 	H 	0.45730 0.71690 0.96910 0.02900
C 	C 	0.50630 0.73890 0.88350 -0.13800
C 	C 	0.48200 0.69870 0.82490 0.06100
H 	H 	0.52770 0.72960 0.79370 0.05000
C 	C 	0.39100 0.61350 0.81210 -0.08100
C 	C 	0.33010 0.56450 0.85980 0.02200
H 	H 	0.26960 0.50730 0.85170 0.06000
C 	C 	0.35140 0.57790 0.74800 0.33200
C 	C 	0.59540 0.83280 0.89490 0.44000
Zn	Zn	0.19051 0.47901 0.65018 1.24200
O 	O 	0.16350 0.56140 0.57769 -0.46400
O 	O 	0.00660 0.65140 0.62870 -0.56200
H 	H 	0.07040 0.68690 0.65090 0.29800
O 	O 	0.02900 0.59230 0.34759 -0.38900
O 	O 	0.05990 0.74290 0.31640 -0.23100
O 	O 	0.76760 0.01610 0.76290 -0.40500
O 	O 	0.56910 0.10890 0.79140 -0.29400
O 	O 	0.34970 0.37150 0.65062 -0.45600
O 	O 	0.38570 0.36880 0.55280 -0.53600
H 	H 	0.47700 0.38790 0.54490 0.29500
N 	N 	0.78100 0.96290 0.54158 -0.14000
N 	N 	0.68940 0.07240 0.47310 -0.18200
H 	H 	0.64250 0.12360 0.45630 0.13600
N 	N 	0.76660 0.99990 0.44410 -0.08700
C 	C 	0.06870 0.63270 0.58270 0.43600
C 	C 	0.02190 0.69550 0.52620 -0.10300
C 	C 	0.05020 0.66360 0.46940 0.03500
H 	H 	0.09870 0.60320 0.46540 0.04000
C 	C 	0.00650 0.72140 0.41800 -0.09400
C 	C 	0.93700 0.81160 0.42350 0.00000
H 	H 	0.91250 0.85120 0.38940 0.05800
C 	C 	0.90330 0.84350 0.48050 -0.02400
C 	C 	0.94610 0.78570 0.53150 0.01200
H 	H 	0.92440 0.80710 0.56950 0.05500
C 	C 	0.03230 0.68390 0.35540 0.31700
C 	C 	0.81740 0.93700 0.48570 0.12800
C 	C 	0.70070 0.04890 0.53080 0.15400
C 	C 	0.64130 0.10020 0.58070 -0.05200
C 	C 	0.55630 0.19030 0.56990 0.03800
H 	H 	0.54270 0.21690 0.53090 0.03000
C 	C 	0.49370 0.23890 0.61650 -0.13700
C 	C 	0.51800 0.19870 0.67510 0.06100
H 	H 	0.47230 0.22960 0.70630 0.05000
C 	C 	0.60900 0.11350 0.68790 -0.08100
C 	C 	0.66990 0.06450 0.64020 0.02200
H 	H 	0.73040 0.00730 0.64830 0.06100
C 	C 	0.64860 0.07790 0.75200 0.33100
C 	C 	0.40460 0.33280 0.60510 0.44000
