data_crystal

_cell_length_a 9.47780
_cell_length_b 9.95380
_cell_length_c 17.69200
_cell_angle_alpha 90.00000
_cell_angle_beta  90.00000
_cell_angle_gamma 104.41900

_symmetry_space_group_name_	'P 1'
_symmetry_space_group_name_H-M	'P 1'

loop_
_symmetry_equiv_pos_as_xyz
  x,y,z

loop_
_atom_site_label
_atom_site_type_symbol
_atom_site_fract_x
_atom_site_fract_y
_atom_site_fract_z
_atom_site_charge
Li	Li	0.78030 0.94910 0.74090 0.54400
Li	Li	0.87080 0.80700 0.86190 0.55900
Li	Li	0.97290 0.55360 0.59270 0.55900
Li	Li	0.97280 0.04780 0.51980 0.55900
Li	Li	0.13780 0.34420 0.54070 0.56100
Li	Li	0.13320 0.82930 0.51680 0.55900
Li	Li	0.13470 0.70380 0.75750 0.55400
Li	Li	0.21970 0.05090 0.24090 0.54300
Li	Li	0.12920 0.19300 0.36190 0.55800
Li	Li	0.02710 0.44640 0.09270 0.55800
Li	Li	0.02720 0.95220 0.01980 0.55600
Li	Li	0.86220 0.65580 0.04070 0.55900
Li	Li	0.86680 0.17070 0.01680 0.55600
Li	Li	0.86530 0.29620 0.25750 0.55400
H 	H 	0.82960 0.55560 0.91110 0.34100
H 	H 	0.74620 0.65280 0.91960 0.22900
H 	H 	0.70160 0.50400 0.66130 0.08700
H 	H 	0.67530 0.58220 0.55050 0.08500
H 	H 	0.55040 0.76660 0.53280 0.01500
H 	H 	0.42700 0.52880 0.54850 0.06800
H 	H 	0.45920 0.43020 0.65250 0.08800
H 	H 	0.56460 0.57120 0.76250 0.00300
H 	H 	0.54650 0.80300 0.75870 0.03600
H 	H 	0.54990 0.90690 0.64020 0.02600
H 	H 	0.54350 0.07440 0.95750 0.08100
H 	H 	0.56830 0.98370 0.06560 0.08600
H 	H 	0.44680 0.74510 0.08540 0.02400
H 	H 	0.31620 0.92050 0.06540 0.07000
H 	H 	0.30510 0.00540 0.95430 0.08300
H 	H 	0.43300 0.92660 0.85200 0.00000
H 	H 	0.44560 0.69330 0.86020 0.06400
H 	H 	0.45100 0.59920 0.98100 0.04300
H 	H 	0.17040 0.44440 0.41110 0.33600
H 	H 	0.25380 0.34720 0.41960 0.22300
H 	H 	0.29840 0.49600 0.16130 0.08600
H 	H 	0.32470 0.41780 0.05050 0.07800
H 	H 	0.44960 0.23340 0.03280 0.00700
H 	H 	0.57300 0.47120 0.04850 0.06000
H 	H 	0.54080 0.56980 0.15250 0.08700
H 	H 	0.43540 0.42880 0.26250 0.00200
H 	H 	0.45350 0.19700 0.25870 0.03600
H 	H 	0.45010 0.09310 0.14020 0.02600
H 	H 	0.45650 0.92560 0.45750 0.07700
H 	H 	0.43170 0.01630 0.56560 0.08200
H 	H 	0.55320 0.25490 0.58540 0.01800
H 	H 	0.68380 0.07950 0.56540 0.06700
H 	H 	0.69490 0.99460 0.45430 0.07900
H 	H 	0.56700 0.07340 0.35200 0.00000
H 	H 	0.55440 0.30670 0.36020 0.05800
H 	H 	0.54900 0.40080 0.48100 0.04400
C 	C 	0.70280 0.60220 0.66708 -0.17300
C 	C 	0.69110 0.66110 0.58540 -0.15100
C 	C 	0.55370 0.71880 0.58090 0.06000
C 	C 	0.42010 0.59360 0.58920 -0.14100
C 	C 	0.43390 0.51720 0.66500 -0.14100
C 	C 	0.56250 0.60810 0.71130 0.07500
C 	C 	0.84270 0.67110 0.70980 0.37300
C 	C 	0.82930 0.76520 0.55970 0.35600
C 	C 	0.27480 0.63120 0.57882 0.36600
C 	C 	0.29660 0.48160 0.71390 0.34900
C 	C 	0.55210 0.75620 0.71370 -0.09800
C 	C 	0.55150 0.81450 0.64640 -0.05200
C 	C 	0.56690 0.98550 0.94770 -0.11600
C 	C 	0.57680 0.91570 0.02690 -0.18300
C 	C 	0.44360 0.79000 0.03640 0.03400
C 	C 	0.30530 0.84350 0.02960 -0.17100
C 	C 	0.29820 0.90610 0.94790 -0.12000
C 	C 	0.43560 0.89320 0.90390 0.06300
C 	C 	0.70870 0.01690 0.90340 0.33300
C 	C 	0.72000 0.87720 0.04100 0.36900
C 	C 	0.16720 0.73440 0.05260 0.36100
C 	C 	0.15770 0.84460 0.90490 0.33300
C 	C 	0.44340 0.74380 0.90430 -0.07500
C 	C 	0.44690 0.69050 0.97290 0.00900
C 	C 	0.29720 0.39780 0.16708 -0.17400
C 	C 	0.30890 0.33890 0.08540 -0.15100
C 	C 	0.44630 0.28120 0.08090 0.06000
C 	C 	0.57990 0.40640 0.08920 -0.14000
C 	C 	0.56610 0.48280 0.16500 -0.14200
C 	C 	0.43750 0.39190 0.21130 0.07500
C 	C 	0.15730 0.32890 0.20980 0.37300
C 	C 	0.17070 0.23480 0.05970 0.35400
C 	C 	0.72520 0.36880 0.07882 0.36300
C 	C 	0.70340 0.51840 0.21390 0.34900
C 	C 	0.44790 0.24380 0.21370 -0.09700
C 	C 	0.44850 0.18550 0.14640 -0.05300
C 	C 	0.43310 0.01450 0.44770 -0.14200
C 	C 	0.42320 0.08430 0.52690 -0.15500
C 	C 	0.55640 0.21000 0.53640 0.06000
C 	C 	0.69470 0.15650 0.52960 -0.14300
C 	C 	0.70180 0.09390 0.44790 -0.14800
C 	C 	0.56440 0.10680 0.40390 0.06500
C 	C 	0.29130 0.98310 0.40340 0.33200
C 	C 	0.28000 0.12280 0.54100 0.36800
C 	C 	0.83280 0.26560 0.55260 0.36100
C 	C 	0.84230 0.15540 0.40490 0.33700
C 	C 	0.55660 0.25620 0.40430 -0.06300
C 	C 	0.55310 0.30950 0.47290 -0.03700
O 	O 	0.84610 0.77130 0.75277 -0.45800
O 	O 	0.95050 0.61870 0.69970 -0.41700
O 	O 	0.93500 0.71500 0.53750 -0.41500
O 	O 	0.83510 0.89110 0.55973 -0.38800
O 	O 	0.16350 0.52990 0.57376 -0.44400
O 	O 	0.27050 0.75540 0.57367 -0.37600
O 	O 	0.24460 0.57520 0.73934 -0.35000
O 	O 	0.24630 0.35540 0.73060 -0.25400
O 	O 	0.73930 0.92660 0.86166 -0.41900
O 	O 	0.79330 0.13920 0.91110 -0.32900
O 	O 	0.83620 0.97540 0.03830 -0.44800
O 	O 	0.71950 0.75450 0.05632 -0.38100
O 	O 	0.17030 0.61180 0.06264 -0.37000
O 	O 	0.05270 0.77910 0.06152 -0.43300
O 	O 	0.14380 0.73550 0.86714 -0.34200
O 	O 	0.05740 0.90910 0.91026 -0.39400
O 	O 	0.83770 0.63700 0.92150 -0.71000
O 	O 	0.15390 0.22870 0.25277 -0.45800
O 	O 	0.04950 0.38130 0.19970 -0.41700
O 	O 	0.06500 0.28500 0.03750 -0.42300
O 	O 	0.16490 0.10890 0.05973 -0.39400
O 	O 	0.83650 0.47010 0.07376 -0.44900
O 	O 	0.72950 0.24460 0.07367 -0.38100
O 	O 	0.75540 0.42480 0.23934 -0.35100
O 	O 	0.75370 0.64460 0.23060 -0.25700
O 	O 	0.26070 0.07340 0.36166 -0.42200
O 	O 	0.20670 0.86080 0.41110 -0.34200
O 	O 	0.16380 0.02460 0.53830 -0.43500
O 	O 	0.28050 0.24550 0.55632 -0.37100
O 	O 	0.82970 0.38820 0.56264 -0.36200
O 	O 	0.94730 0.22090 0.56152 -0.42500
O 	O 	0.85620 0.26450 0.36714 -0.34800
O 	O 	0.94260 0.09090 0.41026 -0.40600
O 	O 	0.16230 0.36300 0.42150 -0.71700
