data_crystal

_cell_length_a 18.94400
_cell_length_b 23.15600
_cell_length_c 14.41100
_cell_angle_alpha 90.00000
_cell_angle_beta  126.63000
_cell_angle_gamma 90.00000

_symmetry_space_group_name_	'P 1'
_symmetry_space_group_name_H-M	'P 1'

loop_
_symmetry_equiv_pos_as_xyz
  x,y,z

loop_
_atom_site_label
_atom_site_type_symbol
_atom_site_fract_x
_atom_site_fract_y
_atom_site_fract_z
_atom_site_charge
Cd	Cd	0.44251 0.15314 0.99642 1.26000
O 	O 	0.33690 0.10661 0.99290 -0.35400
O 	O 	0.44901 0.04981 0.09220 -0.46100
O 	O 	0.43593 0.92068 0.37340 -0.46900
O 	O 	0.31970 0.86550 0.27870 -0.32000
O 	O 	0.62395 0.95430 0.59980 -0.42100
O 	O 	0.58880 0.86246 0.60150 -0.41100
O 	O 	0.82620 0.73461 0.90810 -0.28000
O 	O 	0.95120 0.74243 0.93380 -0.32100
O 	O 	0.48230 0.20020 0.16100 -0.39100
N 	N 	0.04110 0.94320 0.92800 -0.17700
N 	N 	0.03300 0.03440 0.88800 -0.23900
H 	H 	0.04770 0.06930 0.88620 0.14500
N 	N 	0.94680 0.01370 0.82990 -0.09800
C 	C 	0.37310 0.06280 0.05300 0.32700
C 	C 	0.31990 0.02450 0.07300 -0.11400
C 	C 	0.22950 0.02640 -0.00000 -0.08900
H 	H 	0.20100 0.05110 0.93670 0.09500
C 	C 	0.18080 0.99120 0.02060 -0.02800
C 	C 	0.22310 0.95300 0.11080 0.01800
H 	H 	0.19080 0.92850 0.12340 0.04800
C 	C 	0.31390 0.95090 0.18310 -0.10100
C 	C 	0.36290 0.98750 0.16850 0.07800
H 	H 	0.42390 0.98780 0.22120 0.03300
C 	C 	0.35850 0.91000 0.28650 0.34600
C 	C 	0.08490 0.99340 0.94290 0.21400
C 	C 	0.95550 0.96030 0.85690 0.22100
C 	C 	0.88920 0.91600 0.82460 -0.03000
C 	C 	0.80050 0.93090 0.74580 0.01200
H 	H 	0.78380 0.96760 0.71290 0.06600
C 	C 	0.73780 0.88920 0.71850 -0.08400
C 	C 	0.76290 0.83480 0.76770 0.02700
H 	H 	0.72000 0.80770 0.74860 0.06700
C 	C 	0.85040 0.82010 0.84460 -0.05300
C 	C 	0.91300 0.86130 0.87020 0.00200
H 	H 	0.97230 0.85170 0.91930 0.08900
C 	C 	0.64160 0.90330 0.63210 0.39600
C 	C 	0.87680 0.76120 0.89660 0.31800
Cd	Cd	0.94251 0.65314 0.99642 1.26800
O 	O 	0.83690 0.60661 0.99290 -0.34500
O 	O 	0.94901 0.54981 0.09220 -0.41000
O 	O 	0.93593 0.42068 0.37340 -0.44900
O 	O 	0.81970 0.36550 0.27870 -0.30900
O 	O 	0.12395 0.45430 0.59980 -0.45400
O 	O 	0.08880 0.36246 0.60150 -0.44500
O 	O 	0.32620 0.23461 0.90810 -0.28600
O 	O 	0.45120 0.24243 0.93380 -0.33900
O 	O 	0.98230 0.70020 0.16100 -0.30800
N 	N 	0.54110 0.44320 0.92800 -0.13200
N 	N 	0.53300 0.53440 0.88800 -0.19400
H 	H 	0.54770 0.56930 0.88620 0.15200
N 	N 	0.44680 0.51370 0.82990 -0.08600
C 	C 	0.87310 0.56280 0.05300 0.31600
C 	C 	0.81990 0.52450 0.07300 -0.05500
C 	C 	0.72950 0.52640 -0.00000 -0.05500
H 	H 	0.70100 0.55110 0.93670 0.09300
C 	C 	0.68080 0.49120 0.02060 -0.05200
C 	C 	0.72310 0.45300 0.11080 0.00300
H 	H 	0.69080 0.42850 0.12340 0.05600
C 	C 	0.81390 0.45090 0.18310 -0.07200
C 	C 	0.86290 0.48750 0.16850 0.00400
H 	H 	0.92390 0.48780 0.22120 0.06300
C 	C 	0.85850 0.41000 0.28650 0.33100
C 	C 	0.58490 0.49340 0.94290 0.18600
C 	C 	0.45550 0.46030 0.85690 0.13200
C 	C 	0.38920 0.41600 0.82460 -0.01700
C 	C 	0.30050 0.43090 0.74580 0.00300
H 	H 	0.28380 0.46760 0.71290 0.05500
C 	C 	0.23780 0.38920 0.71850 -0.09400
C 	C 	0.26290 0.33480 0.76770 0.03000
H 	H 	0.22000 0.30770 0.74860 0.05900
C 	C 	0.35040 0.32010 0.84460 -0.05900
C 	C 	0.41300 0.36130 0.87020 -0.00900
H 	H 	0.47230 0.35170 0.91930 0.07600
C 	C 	0.14160 0.40330 0.63210 0.40200
C 	C 	0.37680 0.26120 0.89660 0.32000
Cd	Cd	0.55749 0.15314 0.50358 1.25300
O 	O 	0.66310 0.10661 0.50710 -0.38800
O 	O 	0.55099 0.04981 0.40780 -0.46700
O 	O 	0.56407 0.92068 0.12660 -0.47700
O 	O 	0.68030 0.86550 0.22130 -0.31100
O 	O 	0.37605 0.95430 0.90020 -0.40900
O 	O 	0.41120 0.86246 0.89850 -0.39900
O 	O 	0.17380 0.73461 0.59190 -0.29400
O 	O 	0.04880 0.74243 0.56620 -0.36900
O 	O 	0.51770 0.20020 0.33900 -0.38000
N 	N 	0.95890 0.94320 0.57200 -0.10400
N 	N 	0.96700 0.03440 0.61200 -0.19300
H 	H 	0.95230 0.06930 0.61380 0.15500
N 	N 	0.05320 0.01370 0.67010 -0.13100
C 	C 	0.62690 0.06280 0.44700 0.38000
C 	C 	0.68010 0.02450 0.42700 -0.14700
C 	C 	0.77050 0.02640 0.50000 -0.01800
H 	H 	0.79900 0.05110 0.56330 0.05900
C 	C 	0.81920 0.99120 0.47940 -0.01600
C 	C 	0.77690 0.95300 0.38920 0.02000
H 	H 	0.80920 0.92850 0.37660 0.06500
C 	C 	0.68610 0.95090 0.31690 -0.10400
C 	C 	0.63710 0.98750 0.33150 0.09900
H 	H 	0.57610 0.98780 0.27880 0.02600
C 	C 	0.64150 0.91000 0.21350 0.34900
C 	C 	0.91510 0.99340 0.55710 0.20300
C 	C 	0.04450 0.96030 0.64310 0.11400
C 	C 	0.11080 0.91600 0.67540 -0.01700
C 	C 	0.19950 0.93090 0.75420 -0.00100
H 	H 	0.21620 0.96760 0.78710 0.07200
C 	C 	0.26220 0.88920 0.78150 -0.08000
C 	C 	0.23710 0.83480 0.73230 0.02500
H 	H 	0.28000 0.80770 0.75140 0.06700
C 	C 	0.14960 0.82010 0.65540 -0.06600
C 	C 	0.08700 0.86130 0.62980 -0.01200
H 	H 	0.02770 0.85170 0.58070 0.05300
C 	C 	0.35840 0.90330 0.86790 0.39200
C 	C 	0.12320 0.76120 0.60340 0.32400
Cd	Cd	0.05749 0.65314 0.50358 1.24400
O 	O 	0.16310 0.60661 0.50710 -0.39000
O 	O 	0.05099 0.54981 0.40780 -0.47700
O 	O 	0.06407 0.42068 0.12660 -0.50600
O 	O 	0.18030 0.36550 0.22130 -0.32100
O 	O 	0.87605 0.45430 0.90020 -0.41000
O 	O 	0.91120 0.36246 0.89850 -0.36900
O 	O 	0.67380 0.23461 0.59190 -0.28600
O 	O 	0.54880 0.24243 0.56620 -0.34800
O 	O 	0.01770 0.70020 0.33900 -0.37300
N 	N 	0.45890 0.44320 0.57200 -0.13600
N 	N 	0.46700 0.53440 0.61200 -0.19100
H 	H 	0.45230 0.56930 0.61380 0.14600
N 	N 	0.55320 0.51370 0.67010 -0.08800
C 	C 	0.12690 0.56280 0.44700 0.38100
C 	C 	0.18010 0.52450 0.42700 -0.12100
C 	C 	0.27050 0.52640 0.50000 0.03100
H 	H 	0.29900 0.55110 0.56330 0.04700
C 	C 	0.31920 0.49120 0.47940 -0.06200
C 	C 	0.27690 0.45300 0.38920 0.02900
H 	H 	0.30920 0.42850 0.37660 0.05300
C 	C 	0.18610 0.45090 0.31690 -0.11300
C 	C 	0.13710 0.48750 0.33150 0.05300
H 	H 	0.07610 0.48780 0.27880 0.01100
C 	C 	0.14150 0.41000 0.21350 0.35000
C 	C 	0.41510 0.49340 0.55710 0.16600
C 	C 	0.54450 0.46030 0.64310 0.12800
C 	C 	0.61080 0.41600 0.67540 -0.01500
C 	C 	0.69950 0.43090 0.75420 -0.00500
H 	H 	0.71620 0.46760 0.78710 0.06100
C 	C 	0.76220 0.38920 0.78150 -0.07600
C 	C 	0.73710 0.33480 0.73230 0.02000
H 	H 	0.78000 0.30770 0.75140 0.07500
C 	C 	0.64960 0.32010 0.65540 -0.05500
C 	C 	0.58700 0.36130 0.62980 -0.01400
H 	H 	0.52770 0.35170 0.58070 0.07200
C 	C 	0.85840 0.40330 0.86790 0.39000
C 	C 	0.62320 0.26120 0.60340 0.31900
Cd	Cd	0.55749 0.84686 0.00358 1.24500
O 	O 	0.66310 0.89339 0.00710 -0.40000
O 	O 	0.55099 0.95019 0.90780 -0.42200
O 	O 	0.56407 0.07932 0.62660 -0.47400
O 	O 	0.68030 0.13450 0.72130 -0.30000
O 	O 	0.37605 0.04570 0.40020 -0.45700
O 	O 	0.41120 0.13754 0.39850 -0.41700
O 	O 	0.17380 0.26539 0.09190 -0.30400
O 	O 	0.04880 0.25757 0.06620 -0.38000
O 	O 	0.51770 0.79980 0.83900 -0.36400
N 	N 	0.95890 0.05680 0.07200 -0.08500
N 	N 	0.96700 0.96560 0.11200 -0.12800
H 	H 	0.95230 0.93070 0.11380 0.14100
N 	N 	0.05320 0.98630 0.17010 -0.08100
C 	C 	0.62690 0.93720 0.94700 0.36700
C 	C 	0.68010 0.97550 0.92700 0.02800
C 	C 	0.77050 0.97360 -0.00000 -0.08800
H 	H 	0.79900 0.94890 0.06330 0.09400
C 	C 	0.81920 0.00880 0.97940 0.04300
C 	C 	0.77690 0.04700 0.88920 -0.06900
H 	H 	0.80920 0.07150 0.87660 0.09600
C 	C 	0.68610 0.04910 0.81690 -0.02400
C 	C 	0.63710 0.01250 0.83150 -0.08600
H 	H 	0.57610 0.01220 0.77880 0.06400
C 	C 	0.64150 0.09000 0.71350 0.31400
C 	C 	0.91510 0.00660 0.05710 0.07300
C 	C 	0.04450 0.03970 0.14310 0.03300
C 	C 	0.11080 0.08400 0.17540 -0.01000
C 	C 	0.19950 0.06910 0.25420 -0.01100
H 	H 	0.21620 0.03240 0.28710 0.04500
C 	C 	0.26220 0.11080 0.28150 -0.09400
C 	C 	0.23710 0.16520 0.23230 0.02700
H 	H 	0.28000 0.19230 0.25140 0.06100
C 	C 	0.14960 0.17990 0.15540 -0.07200
C 	C 	0.08700 0.13870 0.12980 -0.02200
H 	H 	0.02770 0.14830 0.08070 0.04900
C 	C 	0.35840 0.09670 0.36790 0.40000
C 	C 	0.12320 0.23880 0.10340 0.32400
Cd	Cd	0.05749 0.34686 0.00358 1.23600
O 	O 	0.16310 0.39339 0.00710 -0.41500
O 	O 	0.05099 0.45019 0.90780 -0.46500
O 	O 	0.06407 0.57932 0.62660 -0.49200
O 	O 	0.18030 0.63450 0.72130 -0.31000
O 	O 	0.87605 0.54570 0.40020 -0.42200
O 	O 	0.91120 0.63754 0.39850 -0.38000
O 	O 	0.67380 0.76539 0.09190 -0.29400
O 	O 	0.54880 0.75757 0.06620 -0.35900
O 	O 	0.01770 0.29980 0.83900 -0.35800
N 	N 	0.45890 0.55680 0.07200 -0.13300
N 	N 	0.46700 0.46560 0.11200 -0.17400
H 	H 	0.45230 0.43070 0.11380 0.13200
N 	N 	0.55320 0.48630 0.17010 -0.09200
C 	C 	0.12690 0.43720 0.94700 0.38700
C 	C 	0.18010 0.47550 0.92700 -0.02100
C 	C 	0.27050 0.47360 -0.00000 -0.13100
H 	H 	0.29900 0.44890 0.06330 0.09600
C 	C 	0.31920 0.50880 0.97940 0.08100
C 	C 	0.27690 0.54700 0.88920 -0.06300
H 	H 	0.30920 0.57150 0.87660 0.09100
C 	C 	0.18610 0.54910 0.81690 -0.04500
C 	C 	0.13710 0.51250 0.83150 -0.01800
H 	H 	0.07610 0.51220 0.77880 0.03700
C 	C 	0.14150 0.59000 0.71350 0.32700
C 	C 	0.41510 0.50660 0.05710 0.09500
C 	C 	0.54450 0.53970 0.14310 0.12700
C 	C 	0.61080 0.58400 0.17540 -0.02400
C 	C 	0.69950 0.56910 0.25420 -0.00100
H 	H 	0.71620 0.53240 0.28710 0.05600
C 	C 	0.76220 0.61080 0.28150 -0.08400
C 	C 	0.73710 0.66520 0.23230 0.02400
H 	H 	0.78000 0.69230 0.25140 0.07100
C 	C 	0.64960 0.67990 0.15540 -0.06400
C 	C 	0.58700 0.63870 0.12980 -0.01000
H 	H 	0.52770 0.64830 0.08070 0.06400
C 	C 	0.85840 0.59670 0.36790 0.39300
C 	C 	0.62320 0.73880 0.10340 0.32200
Cd	Cd	0.44251 0.84686 0.49642 1.25300
O 	O 	0.33690 0.89339 0.49290 -0.38400
O 	O 	0.44901 0.95019 0.59220 -0.43200
O 	O 	0.43593 0.07932 0.87340 -0.46900
O 	O 	0.31970 0.13450 0.77870 -0.31500
O 	O 	0.62395 0.04570 0.09980 -0.46600
O 	O 	0.58880 0.13754 0.10150 -0.42800
O 	O 	0.82620 0.26539 0.40810 -0.28800
O 	O 	0.95120 0.25757 0.43380 -0.33000
O 	O 	0.48230 0.79980 0.66100 -0.37400
N 	N 	0.04110 0.05680 0.42800 -0.16800
N 	N 	0.03300 0.96560 0.38800 -0.18900
H 	H 	0.04770 0.93070 0.38620 0.13300
N 	N 	0.94680 0.98630 0.32990 -0.04500
C 	C 	0.37310 0.93720 0.55300 0.36400
C 	C 	0.31990 0.97550 0.57300 -0.06400
C 	C 	0.22950 0.97360 0.50000 0.06000
H 	H 	0.20100 0.94890 0.43670 0.04000
C 	C 	0.18080 0.00880 0.52060 -0.09000
C 	C 	0.22310 0.04700 0.61080 0.01600
H 	H 	0.19080 0.07150 0.62340 0.05000
C 	C 	0.31390 0.04910 0.68310 -0.08700
C 	C 	0.36290 0.01250 0.66850 -0.02000
H 	H 	0.42390 0.01220 0.72120 0.04100
C 	C 	0.35850 0.09000 0.78650 0.33400
C 	C 	0.08490 0.00660 0.44290 0.12400
C 	C 	0.95550 0.03970 0.35690 0.14400
C 	C 	0.88920 0.08400 0.32460 -0.02300
C 	C 	0.80050 0.06910 0.24580 0.00200
H 	H 	0.78380 0.03240 0.21290 0.04000
C 	C 	0.73780 0.11080 0.21850 -0.09800
C 	C 	0.76290 0.16520 0.26770 0.02900
H 	H 	0.72000 0.19230 0.24860 0.06200
C 	C 	0.85040 0.17990 0.34460 -0.05800
C 	C 	0.91300 0.13870 0.37020 -0.00800
H 	H 	0.97230 0.14830 0.41930 0.08700
C 	C 	0.64160 0.09670 0.13210 0.40300
C 	C 	0.87680 0.23880 0.39660 0.31800
Cd	Cd	0.94251 0.34686 0.49642 1.26100
O 	O 	0.83690 0.39339 0.49290 -0.37900
O 	O 	0.94901 0.45019 0.59220 -0.41800
O 	O 	0.93593 0.57932 0.87340 -0.44000
O 	O 	0.81970 0.63450 0.77870 -0.30500
O 	O 	0.12395 0.54570 0.09980 -0.46400
O 	O 	0.08880 0.63754 0.10150 -0.45700
O 	O 	0.32620 0.76539 0.40810 -0.29500
O 	O 	0.45120 0.75757 0.43380 -0.35000
O 	O 	0.98230 0.29980 0.66100 -0.29900
N 	N 	0.54110 0.55680 0.42800 -0.13500
N 	N 	0.53300 0.46560 0.38800 -0.19000
H 	H 	0.54770 0.43070 0.38620 0.14300
N 	N 	0.44680 0.48630 0.32990 -0.09000
C 	C 	0.87310 0.43720 0.55300 0.36400
C 	C 	0.81990 0.47550 0.57300 -0.08800
C 	C 	0.72950 0.47360 0.50000 0.01100
H 	H 	0.70100 0.44890 0.43670 0.05300
C 	C 	0.68080 0.50880 0.52060 -0.04500
C 	C 	0.72310 0.54700 0.61080 0.00700
H 	H 	0.69080 0.57150 0.62340 0.06200
C 	C 	0.81390 0.54910 0.68310 -0.07800
C 	C 	0.86290 0.51250 0.66850 0.02500
H 	H 	0.92390 0.51220 0.72120 0.05600
C 	C 	0.85850 0.59000 0.78650 0.33300
C 	C 	0.58490 0.50660 0.44290 0.16000
C 	C 	0.45550 0.53970 0.35690 0.13000
C 	C 	0.38920 0.58400 0.32460 -0.02500
C 	C 	0.30050 0.56910 0.24580 0.00500
H 	H 	0.28380 0.53240 0.21290 0.05100
C 	C 	0.23780 0.61080 0.21850 -0.10200
C 	C 	0.26290 0.66520 0.26770 0.03300
H 	H 	0.22000 0.69230 0.24860 0.05400
C 	C 	0.35040 0.67990 0.34460 -0.06900
C 	C 	0.41300 0.63870 0.37020 -0.00600
H 	H 	0.47230 0.64830 0.41930 0.06900
C 	C 	0.14160 0.59670 0.13210 0.40500
C 	C 	0.37680 0.73880 0.39660 0.32200
Cd	Cd	0.50000 0.00000 -0.00000 1.22400
Cd	Cd	-0.00000 0.50000 -0.00000 1.21700
Cd	Cd	0.50000 0.00000 0.50000 1.23400
Cd	Cd	0.00000 0.50000 0.50000 1.22600
C 	C 	0.50000 0.17580 0.25000 0.45700
H 	H 	0.50000 0.13560 0.25000 -0.12800
C 	C 	0.00000 0.67580 0.25000 0.34400
H 	H 	0.00000 0.63560 0.25000 -0.11000
C 	C 	0.50000 0.82420 0.75000 0.44900
H 	H 	0.50000 0.86440 0.75000 -0.11800
C 	C 	0.00000 0.32420 0.75000 0.34400
H 	H 	0.00000 0.36440 0.75000 -0.10500
