data_crystal

_cell_length_a 7.13010
_cell_length_b 9.62270
_cell_length_c 16.76250
_cell_angle_alpha 90.00000
_cell_angle_beta  90.00000
_cell_angle_gamma 90.00000

_symmetry_space_group_name_	'P 1'
_symmetry_space_group_name_H-M	'P 1'

loop_
_symmetry_equiv_pos_as_xyz
  x,y,z

loop_
_atom_site_label
_atom_site_type_symbol
_atom_site_fract_x
_atom_site_fract_y
_atom_site_fract_z
_atom_site_charge
Cd	Cd	0.70710 0.28259 0.65697 1.17700
Cd	Cd	0.95760 0.49952 0.50024 1.15800
Cd	Cd	0.20710 0.71741 0.34303 1.21400
Cd	Cd	0.45760 0.50048 0.49976 1.20600
Cd	Cd	0.70710 0.78259 0.84303 1.17500
Cd	Cd	0.95760 0.99952 0.99976 1.15800
Cd	Cd	0.20710 0.21741 0.15697 1.21100
Cd	Cd	0.45760 0.00048 0.00024 1.20000
H 	H 	0.73300 0.29800 0.50200 0.21100
H 	H 	0.06200 0.09920 0.75820 0.35200
H 	H 	0.25130 0.03530 0.72800 0.30100
H 	H 	0.25320 0.15240 0.79300 0.31600
H 	H 	0.23300 0.70200 0.49800 0.24500
H 	H 	0.56200 0.90080 0.24180 0.25100
H 	H 	0.75130 0.96470 0.27200 0.21300
H 	H 	0.75320 0.84760 0.20700 0.21800
H 	H 	0.73300 0.79800 0.99800 0.21300
H 	H 	0.06200 0.59920 0.74180 0.35600
H 	H 	0.25130 0.53530 0.77200 0.30400
H 	H 	0.25320 0.65240 0.70700 0.31800
H 	H 	0.23300 0.20200 0.00200 0.24100
H 	H 	0.56200 0.40080 0.25820 0.24800
H 	H 	0.75130 0.46470 0.22800 0.21100
H 	H 	0.75320 0.34760 0.29300 0.21700
C 	C 	0.20100 0.22590 0.68240 0.34500
C 	C 	0.19090 0.11870 0.74600 -0.95500
C 	C 	0.70100 0.77410 0.31760 0.26500
C 	C 	0.69090 0.88130 0.25400 -0.77400
C 	C 	0.20100 0.72590 0.81760 0.34800
C 	C 	0.19090 0.61870 0.75400 -0.96000
C 	C 	0.70100 0.27410 0.18240 0.26400
C 	C 	0.69090 0.38130 0.24600 -0.77100
S 	S 	0.70520 0.14321 0.84828 0.75700
S 	S 	0.20520 0.85679 0.15172 0.74600
S 	S 	0.70520 0.64321 0.65172 0.76000
S 	S 	0.20520 0.35679 0.34828 0.74600
N 	N 	0.04650 0.28210 0.64910 -0.21000
N 	N 	0.12430 0.36810 0.59210 -0.15500
N 	N 	0.30630 0.36890 0.59580 -0.17600
N 	N 	0.35800 0.27850 0.64950 -0.24200
N 	N 	0.54650 0.71790 0.35090 -0.24000
N 	N 	0.62430 0.63190 0.40790 -0.19000
N 	N 	0.80630 0.63110 0.40420 -0.20600
N 	N 	0.85800 0.72150 0.35050 -0.26900
N 	N 	0.04650 0.78210 0.85090 -0.20900
N 	N 	0.12430 0.86810 0.90790 -0.15300
N 	N 	0.30630 0.86890 0.90420 -0.17400
N 	N 	0.35800 0.77850 0.85050 -0.24200
N 	N 	0.54650 0.21790 0.14910 -0.24100
N 	N 	0.62430 0.13190 0.09210 -0.19300
N 	N 	0.80630 0.13110 0.09580 -0.20700
N 	N 	0.85800 0.22150 0.14950 -0.26800
O 	O 	0.71700 0.25930 0.79160 -0.51200
O 	O 	0.72400 0.01110 0.80480 -0.54800
O 	O 	0.53560 0.15180 0.90080 -0.50500
O 	O 	0.87080 0.15250 0.89710 -0.55200
O 	O 	0.69700 0.36550 0.53030 -0.81600
O 	O 	0.21700 0.74070 0.20840 -0.44500
O 	O 	0.22400 0.98890 0.19520 -0.47900
O 	O 	0.03560 0.84820 0.09920 -0.43000
O 	O 	0.37080 0.84750 0.10290 -0.49100
O 	O 	0.19700 0.63450 0.46970 -0.75700
O 	O 	0.71700 0.75930 0.70840 -0.51500
O 	O 	0.72400 0.51110 0.69520 -0.55200
O 	O 	0.53560 0.65180 0.59920 -0.51200
O 	O 	0.87080 0.65250 0.60290 -0.56100
O 	O 	0.69700 0.86550 0.96970 -0.81500
O 	O 	0.21700 0.24070 0.29160 -0.44800
O 	O 	0.22400 0.48890 0.30480 -0.48300
O 	O 	0.03560 0.34820 0.40080 -0.43100
O 	O 	0.37080 0.34750 0.39710 -0.49200
O 	O 	0.19700 0.13450 0.03030 -0.76600
