data_crystal

_cell_length_a 15.87920
_cell_length_b 15.87920
_cell_length_c 21.59400
_cell_angle_alpha 90.00000
_cell_angle_beta  90.00000
_cell_angle_gamma 90.00000

_symmetry_space_group_name_	'P 1'
_symmetry_space_group_name_H-M	'P 1'

loop_
_symmetry_equiv_pos_as_xyz
  x,y,z

loop_
_atom_site_label
_atom_site_type_symbol
_atom_site_fract_x
_atom_site_fract_y
_atom_site_fract_z
_atom_site_charge
C 	C 	0.59020 0.64020 0.35940 0.09400
H 	H 	0.54250 0.61000 0.34790 -0.00900
C 	C 	0.61680 0.70190 0.31990 -0.15100
H 	H 	0.58680 0.71440 0.28410 0.08600
C 	C 	0.69190 0.74660 0.33500 0.07500
C 	C 	0.73380 0.71860 0.38700 -0.14400
H 	H 	0.78600 0.74160 0.39690 0.07700
C 	C 	0.70000 0.65770 0.42430 0.07200
H 	H 	0.72950 0.64170 0.45960 -0.01700
C 	C 	0.72130 0.81870 0.29770 0.01600
C 	C 	0.69310 0.83540 0.23870 -0.08300
H 	H 	0.65400 0.79950 0.22050 0.06000
C 	C 	0.72150 0.90410 0.20600 -0.00000
H 	H 	0.70110 0.91380 0.16630 0.02600
C 	C 	0.77950 0.95860 0.23090 -0.07700
H 	H 	0.79710 0.00610 0.20920 0.05700
C 	C 	0.81170 0.94070 0.29010 -0.00500
C 	C 	0.78190 0.87190 0.32300 -0.07800
H 	H 	0.80280 0.86110 0.36240 0.05300
C 	C 	0.87480 0.99620 0.32070 0.10000
C 	C 	0.92490 0.09220 0.38300 0.09200
C 	C 	0.93360 0.16170 0.42750 0.02400
C 	C 	0.00710 0.16570 0.46330 -0.09000
H 	H 	0.04800 0.12400 0.46010 0.06300
C 	C 	0.01750 0.23200 0.50300 0.01700
H 	H 	0.06550 0.23480 0.52760 0.01900
C 	C 	0.95850 0.29380 0.50680 -0.09600
H 	H 	0.96680 0.33800 0.53440 0.06000
C 	C 	0.88660 0.29290 0.47100 0.02600
C 	C 	0.87440 0.22690 0.43170 -0.09300
H 	H 	0.82620 0.22510 0.40730 0.06600
C 	C 	0.81910 0.35790 0.47780 0.06900
C 	C 	0.80840 0.40430 0.53210 -0.14300
H 	H 	0.84620 0.39780 0.56460 0.07700
C 	C 	0.74160 0.45990 0.53750 0.08100
H 	H 	0.73460 0.48850 0.57480 -0.01300
C 	C 	0.69750 0.43240 0.43960 0.08000
H 	H 	0.65960 0.44120 0.40740 -0.01500
C 	C 	0.76260 0.37580 0.43080 -0.14100
H 	H 	0.76860 0.34940 0.39260 0.07500
N 	N 	0.62570 0.61980 0.41230 -0.23900
N 	N 	0.95530 0.99420 0.31640 -0.20600
N 	N 	0.98880 0.05470 0.35550 -0.12300
N 	N 	0.85250 0.05690 0.36180 -0.11000
N 	N 	0.77050 0.07680 0.38320 -0.22400
H 	H 	0.74470 0.02820 0.39140 0.11800
H 	H 	0.74160 0.10450 0.35470 0.11700
N 	N 	0.68670 0.47460 0.49190 -0.23100
C 	C 	0.40980 0.35980 0.85940 0.09400
H 	H 	0.45750 0.39000 0.84790 -0.01000
C 	C 	0.38320 0.29810 0.81990 -0.15100
H 	H 	0.41320 0.28560 0.78410 0.08500
C 	C 	0.30810 0.25340 0.83500 0.07400
C 	C 	0.26620 0.28140 0.88700 -0.14400
H 	H 	0.21400 0.25840 0.89690 0.07800
C 	C 	0.30000 0.34230 0.92430 0.07200
H 	H 	0.27050 0.35830 0.95960 -0.01200
C 	C 	0.27870 0.18130 0.79770 0.01500
C 	C 	0.30690 0.16460 0.73870 -0.08300
H 	H 	0.34600 0.20050 0.72050 0.06100
C 	C 	0.27850 0.09590 0.70600 -0.00000
H 	H 	0.29890 0.08620 0.66630 0.02800
C 	C 	0.22050 0.04140 0.73090 -0.07700
H 	H 	0.20290 0.99390 0.70920 0.05700
C 	C 	0.18830 0.05930 0.79010 -0.00400
C 	C 	0.21810 0.12810 0.82300 -0.07800
H 	H 	0.19720 0.13890 0.86240 0.05500
C 	C 	0.12520 0.00380 0.82070 0.10000
C 	C 	0.07510 0.90780 0.88300 0.09600
C 	C 	0.06640 0.83830 0.92750 0.02100
C 	C 	0.99290 0.83430 0.96330 -0.06100
H 	H 	0.95200 0.87600 0.96010 0.05800
C 	C 	0.98250 0.76800 0.00300 -0.00700
H 	H 	0.93450 0.76520 0.02760 0.02200
C 	C 	0.04150 0.70620 0.00680 -0.11500
H 	H 	0.03320 0.66200 0.03440 0.06200
C 	C 	0.11340 0.70710 0.97100 0.04400
C 	C 	0.12560 0.77310 0.93170 -0.09100
H 	H 	0.17380 0.77490 0.90730 0.06700
C 	C 	0.18090 0.64210 0.97780 0.09300
C 	C 	0.19160 0.59570 0.03210 -0.16900
H 	H 	0.15380 0.60220 0.06460 0.08300
C 	C 	0.25840 0.54010 0.03750 0.06700
H 	H 	0.26540 0.51150 0.07480 -0.01100
C 	C 	0.30250 0.56760 0.93960 0.08800
H 	H 	0.34040 0.55880 0.90740 -0.01700
C 	C 	0.23740 0.62420 0.93080 -0.14800
H 	H 	0.23140 0.65060 0.89260 0.07800
N 	N 	0.37430 0.38020 0.91230 -0.23600
N 	N 	0.04470 0.00580 0.81640 -0.20600
N 	N 	0.01120 0.94530 0.85550 -0.12200
N 	N 	0.14750 0.94310 0.86180 -0.10900
N 	N 	0.22950 0.92320 0.88320 -0.22200
H 	H 	0.25530 0.97180 0.89140 0.12100
H 	H 	0.25840 0.89550 0.85470 0.11700
N 	N 	0.31330 0.52540 0.99190 -0.21800
C 	C 	0.85980 0.09020 0.60940 0.09300
H 	H 	0.89000 0.04250 0.59790 -0.01100
C 	C 	0.79810 0.11680 0.56990 -0.15200
H 	H 	0.78560 0.08680 0.53410 0.08400
C 	C 	0.75340 0.19190 0.58500 0.07300
C 	C 	0.78140 0.23380 0.63700 -0.14500
H 	H 	0.75840 0.28600 0.64690 0.07600
C 	C 	0.84230 0.20000 0.67430 0.07000
H 	H 	0.85830 0.22950 0.70960 -0.01900
C 	C 	0.68130 0.22130 0.54770 0.01600
C 	C 	0.66460 0.19310 0.48870 -0.08600
H 	H 	0.70050 0.15400 0.47050 0.06100
C 	C 	0.59590 0.22150 0.45600 0.00300
H 	H 	0.58620 0.20110 0.41630 0.02600
C 	C 	0.54140 0.27950 0.48090 -0.08300
H 	H 	0.49390 0.29710 0.45920 0.06000
C 	C 	0.55930 0.31170 0.54010 -0.00200
C 	C 	0.62810 0.28190 0.57300 -0.08000
H 	H 	0.63890 0.30280 0.61240 0.05400
C 	C 	0.50380 0.37480 0.57070 0.09700
C 	C 	0.40780 0.42490 0.63300 0.09200
C 	C 	0.33830 0.43360 0.67750 0.02700
C 	C 	0.33430 0.50710 0.71330 -0.09300
H 	H 	0.37600 0.54800 0.71010 0.06300
C 	C 	0.26800 0.51750 0.75300 0.01600
H 	H 	0.26520 0.56550 0.77760 0.01900
C 	C 	0.20620 0.45850 0.75680 -0.09300
H 	H 	0.16200 0.46680 0.78440 0.06000
C 	C 	0.20710 0.38660 0.72100 0.02600
C 	C 	0.27310 0.37440 0.68170 -0.09400
H 	H 	0.27490 0.32620 0.65730 0.06700
C 	C 	0.14210 0.31910 0.72780 0.06900
C 	C 	0.09570 0.30840 0.78210 -0.14300
H 	H 	0.10220 0.34620 0.81460 0.07900
C 	C 	0.04010 0.24160 0.78750 0.08100
H 	H 	0.01150 0.23460 0.82480 -0.01100
C 	C 	0.06760 0.19750 0.68960 0.08000
H 	H 	0.05880 0.15960 0.65740 -0.01400
C 	C 	0.12420 0.26260 0.68080 -0.14000
H 	H 	0.15060 0.26860 0.64260 0.07500
N 	N 	0.88020 0.12570 0.66230 -0.24000
N 	N 	0.50580 0.45530 0.56640 -0.20800
N 	N 	0.44530 0.48880 0.60550 -0.12100
N 	N 	0.44310 0.35250 0.61180 -0.10800
N 	N 	0.42320 0.27050 0.63320 -0.22400
H 	H 	0.47180 0.24470 0.64140 0.11900
H 	H 	0.39550 0.24160 0.60470 0.11700
N 	N 	0.02540 0.18670 0.74190 -0.23000
C 	C 	0.14020 0.90980 0.10940 0.10200
H 	H 	0.11000 0.95750 0.09790 -0.01700
C 	C 	0.20190 0.88320 0.06990 -0.17300
H 	H 	0.21440 0.91320 0.03410 0.08500
C 	C 	0.24660 0.80810 0.08500 0.10300
C 	C 	0.21860 0.76620 0.13700 -0.16700
H 	H 	0.24160 0.71400 0.14690 0.08400
C 	C 	0.15770 0.80000 0.17430 0.08100
H 	H 	0.14170 0.77050 0.20960 -0.02300
C 	C 	0.31870 0.77870 0.04770 -0.05900
C 	C 	0.33540 0.80690 0.98870 0.00900
H 	H 	0.29950 0.84600 0.97050 0.03400
C 	C 	0.40410 0.77850 0.95600 -0.07600
H 	H 	0.41380 0.79890 0.91630 0.05500
C 	C 	0.45860 0.72050 0.98090 0.00600
H 	H 	0.50610 0.70290 0.95920 0.03400
C 	C 	0.44070 0.68830 0.04010 -0.07000
C 	C 	0.37190 0.71810 0.07300 -0.02200
H 	H 	0.36110 0.69720 0.11240 0.03300
C 	C 	0.49620 0.62520 0.07070 0.11300
C 	C 	0.59220 0.57510 0.13300 0.09100
C 	C 	0.66170 0.56640 0.17750 0.02700
C 	C 	0.66570 0.49290 0.21330 -0.09300
H 	H 	0.62400 0.45200 0.21010 0.06300
C 	C 	0.73200 0.48250 0.25300 0.01500
H 	H 	0.73480 0.43450 0.27760 0.01900
C 	C 	0.79380 0.54150 0.25680 -0.09200
H 	H 	0.83800 0.53320 0.28440 0.05900
C 	C 	0.79290 0.61340 0.22100 0.02500
C 	C 	0.72690 0.62560 0.18170 -0.09300
H 	H 	0.72510 0.67380 0.15730 0.06500
C 	C 	0.85790 0.68090 0.22780 0.06900
C 	C 	0.90430 0.69160 0.28210 -0.14300
H 	H 	0.89780 0.65380 0.31460 0.07800
C 	C 	0.95990 0.75840 0.28750 0.08100
H 	H 	0.98850 0.76540 0.32480 -0.01200
C 	C 	0.93240 0.80250 0.18960 0.08000
H 	H 	0.94120 0.84040 0.15740 -0.01500
C 	C 	0.87580 0.73740 0.18080 -0.14000
H 	H 	0.84940 0.73140 0.14260 0.07400
N 	N 	0.11980 0.87430 0.16230 -0.24400
N 	N 	0.49420 0.54470 0.06640 -0.21500
N 	N 	0.55470 0.51120 0.10550 -0.12200
N 	N 	0.55690 0.64750 0.11180 -0.11200
N 	N 	0.57680 0.72950 0.13320 -0.22200
H 	H 	0.52820 0.75530 0.14140 0.11700
H 	H 	0.60450 0.75840 0.10470 0.11400
N 	N 	0.97460 0.81330 0.24190 -0.23000
C 	C 	0.90980 0.14020 0.89060 0.08400
H 	H 	0.95750 0.11000 0.90210 -0.00600
C 	C 	0.88320 0.20190 0.93010 -0.13200
H 	H 	0.91320 0.21440 0.96590 0.08300
C 	C 	0.80810 0.24660 0.91500 0.04500
C 	C 	0.76620 0.21860 0.86300 -0.12500
H 	H 	0.71400 0.24160 0.85310 0.06800
C 	C 	0.80000 0.15770 0.82570 0.06000
H 	H 	0.77050 0.14170 0.79040 -0.01500
C 	C 	0.77870 0.31870 0.95230 0.08500
C 	C 	0.80690 0.33540 0.01130 -0.17200
H 	H 	0.84600 0.29950 0.02950 0.08600
C 	C 	0.77850 0.40410 0.04400 0.07600
H 	H 	0.79890 0.41380 0.08370 -0.00100
C 	C 	0.72050 0.45860 0.01910 -0.16400
H 	H 	0.70290 0.50610 0.04080 0.08400
C 	C 	0.68830 0.44070 0.95990 0.06100
C 	C 	0.71810 0.37190 0.92700 -0.13300
H 	H 	0.69720 0.36110 0.88760 0.07200
C 	C 	0.62520 0.49620 0.92930 0.08300
C 	C 	0.57510 0.59220 0.86700 0.09400
C 	C 	0.56640 0.66170 0.82250 0.02800
C 	C 	0.49290 0.66570 0.78670 -0.09300
H 	H 	0.45200 0.62400 0.78990 0.06300
C 	C 	0.48250 0.73200 0.74700 0.01500
H 	H 	0.43450 0.73480 0.72240 0.01900
C 	C 	0.54150 0.79380 0.74320 -0.09300
H 	H 	0.53320 0.83800 0.71560 0.06000
C 	C 	0.61340 0.79290 0.77900 0.02600
C 	C 	0.62560 0.72690 0.81830 -0.09300
H 	H 	0.67380 0.72510 0.84270 0.06800
C 	C 	0.68090 0.85790 0.77220 0.07000
C 	C 	0.69160 0.90430 0.71790 -0.14300
H 	H 	0.65380 0.89780 0.68540 0.07800
C 	C 	0.75840 0.95990 0.71250 0.08100
H 	H 	0.76540 0.98850 0.67520 -0.01200
C 	C 	0.80250 0.93240 0.81040 0.08100
H 	H 	0.84040 0.94120 0.84260 -0.01400
C 	C 	0.73740 0.87580 0.81920 -0.14100
H 	H 	0.73140 0.84940 0.85740 0.07700
N 	N 	0.87430 0.11980 0.83770 -0.23600
N 	N 	0.54470 0.49420 0.93360 -0.20000
N 	N 	0.51120 0.55470 0.89450 -0.11900
N 	N 	0.64750 0.55690 0.88820 -0.10500
N 	N 	0.72950 0.57680 0.86680 -0.22500
H 	H 	0.75530 0.52820 0.85860 0.12000
H 	H 	0.75840 0.60450 0.89530 0.12100
N 	N 	0.81330 0.97460 0.75810 -0.23100
C 	C 	0.09020 0.85980 0.39060 0.09300
H 	H 	0.04250 0.89000 0.40210 -0.01100
C 	C 	0.11680 0.79810 0.43010 -0.15200
H 	H 	0.08680 0.78560 0.46590 0.08400
C 	C 	0.19190 0.75340 0.41500 0.07300
C 	C 	0.23380 0.78140 0.36300 -0.14500
H 	H 	0.28600 0.75840 0.35310 0.07600
C 	C 	0.20000 0.84230 0.32570 0.07000
H 	H 	0.22950 0.85830 0.29040 -0.01900
C 	C 	0.22130 0.68130 0.45230 0.01600
C 	C 	0.19310 0.66460 0.51130 -0.08600
H 	H 	0.15400 0.70050 0.52950 0.06100
C 	C 	0.22150 0.59590 0.54400 0.00300
H 	H 	0.20110 0.58620 0.58370 0.02600
C 	C 	0.27950 0.54140 0.51910 -0.08300
H 	H 	0.29710 0.49390 0.54080 0.06000
C 	C 	0.31170 0.55930 0.45990 -0.00200
C 	C 	0.28190 0.62810 0.42700 -0.08000
H 	H 	0.30280 0.63890 0.38760 0.05400
C 	C 	0.37480 0.50380 0.42930 0.09700
C 	C 	0.42490 0.40780 0.36700 0.09200
C 	C 	0.43360 0.33830 0.32250 0.02700
C 	C 	0.50710 0.33430 0.28670 -0.09300
H 	H 	0.54800 0.37600 0.28990 0.06300
C 	C 	0.51750 0.26800 0.24700 0.01400
H 	H 	0.56550 0.26520 0.22240 0.01900
C 	C 	0.45850 0.20620 0.24320 -0.09200
H 	H 	0.46680 0.16200 0.21560 0.05900
C 	C 	0.38660 0.20710 0.27900 0.02500
C 	C 	0.37440 0.27310 0.31830 -0.09300
H 	H 	0.32620 0.27490 0.34270 0.06700
C 	C 	0.31910 0.14210 0.27220 0.06900
C 	C 	0.30840 0.09570 0.21790 -0.14300
H 	H 	0.34620 0.10220 0.18540 0.07700
C 	C 	0.24160 0.04010 0.21250 0.08000
H 	H 	0.23460 0.01150 0.17520 -0.01300
C 	C 	0.19750 0.06760 0.31040 0.08000
H 	H 	0.15960 0.05880 0.34260 -0.01400
C 	C 	0.26260 0.12420 0.31920 -0.14100
H 	H 	0.26860 0.15060 0.35740 0.07500
N 	N 	0.12570 0.88020 0.33770 -0.24000
N 	N 	0.45530 0.50580 0.43360 -0.20800
N 	N 	0.48880 0.44530 0.39450 -0.12100
N 	N 	0.35250 0.44310 0.38820 -0.10800
N 	N 	0.27050 0.42320 0.36680 -0.22400
H 	H 	0.24470 0.47180 0.35860 0.11800
H 	H 	0.24160 0.39550 0.39530 0.11700
N 	N 	0.18670 0.02540 0.25810 -0.23100
C 	C 	0.64020 0.59020 0.64060 0.09400
H 	H 	0.61000 0.54250 0.65210 -0.01100
C 	C 	0.70190 0.61680 0.68010 -0.15200
H 	H 	0.71440 0.58680 0.71590 0.08500
C 	C 	0.74660 0.69190 0.66500 0.07400
C 	C 	0.71860 0.73380 0.61300 -0.14600
H 	H 	0.74160 0.78600 0.60310 0.07600
C 	C 	0.65770 0.70000 0.57570 0.07100
H 	H 	0.64170 0.72950 0.54040 -0.01800
C 	C 	0.81870 0.72130 0.70230 0.01400
C 	C 	0.83540 0.69310 0.76130 -0.08200
H 	H 	0.79950 0.65400 0.77950 0.06000
C 	C 	0.90410 0.72150 0.79400 -0.00100
H 	H 	0.91380 0.70110 0.83370 0.02900
C 	C 	0.95860 0.77950 0.76910 -0.07700
H 	H 	0.00610 0.79710 0.79080 0.05700
C 	C 	0.94070 0.81170 0.70990 -0.00500
C 	C 	0.87190 0.78190 0.67700 -0.07700
H 	H 	0.86110 0.80280 0.63760 0.05300
C 	C 	0.99620 0.87480 0.67930 0.10000
C 	C 	0.09220 0.92490 0.61700 0.09200
C 	C 	0.16170 0.93360 0.57250 0.02400
C 	C 	0.16570 0.00710 0.53670 -0.09000
H 	H 	0.12400 0.04800 0.53990 0.06300
C 	C 	0.23200 0.01750 0.49700 0.01700
H 	H 	0.23480 0.06550 0.47240 0.01900
C 	C 	0.29380 0.95850 0.49320 -0.09500
H 	H 	0.33800 0.96680 0.46560 0.06000
C 	C 	0.29290 0.88660 0.52900 0.02600
C 	C 	0.22690 0.87440 0.56830 -0.09300
H 	H 	0.22510 0.82620 0.59270 0.06600
C 	C 	0.35790 0.81910 0.52220 0.06900
C 	C 	0.40430 0.80840 0.46790 -0.14300
H 	H 	0.39780 0.84620 0.43540 0.07800
C 	C 	0.45990 0.74160 0.46250 0.08100
H 	H 	0.48850 0.73460 0.42520 -0.01300
C 	C 	0.43240 0.69750 0.56040 0.08000
H 	H 	0.44120 0.65960 0.59260 -0.01500
C 	C 	0.37580 0.76260 0.56920 -0.14100
H 	H 	0.34940 0.76860 0.60740 0.07500
N 	N 	0.61980 0.62570 0.58770 -0.23900
N 	N 	0.99420 0.95530 0.68360 -0.20700
N 	N 	0.05470 0.98880 0.64450 -0.12200
N 	N 	0.05690 0.85250 0.63820 -0.11000
N 	N 	0.07680 0.77050 0.61680 -0.22400
H 	H 	0.02820 0.74470 0.60860 0.11800
H 	H 	0.10450 0.74160 0.64530 0.11700
N 	N 	0.47460 0.68670 0.50810 -0.23100
C 	C 	0.35980 0.40980 0.14060 0.09300
H 	H 	0.39000 0.45750 0.15210 -0.01100
C 	C 	0.29810 0.38320 0.18010 -0.15300
H 	H 	0.28560 0.41320 0.21590 0.08500
C 	C 	0.25340 0.30810 0.16500 0.07400
C 	C 	0.28140 0.26620 0.11300 -0.14800
H 	H 	0.25840 0.21400 0.10310 0.07400
C 	C 	0.34230 0.30000 0.07570 0.07000
H 	H 	0.35830 0.27050 0.04040 -0.02400
C 	C 	0.18130 0.27870 0.20230 0.01300
C 	C 	0.16460 0.30690 0.26130 -0.08200
H 	H 	0.20050 0.34600 0.27950 0.06000
C 	C 	0.09590 0.27850 0.29400 -0.00200
H 	H 	0.08620 0.29890 0.33370 0.02800
C 	C 	0.04140 0.22050 0.26910 -0.07600
H 	H 	0.99390 0.20290 0.29080 0.05600
C 	C 	0.05930 0.18830 0.20990 -0.00600
C 	C 	0.12810 0.21810 0.17700 -0.07700
H 	H 	0.13890 0.19720 0.13760 0.05100
C 	C 	0.00380 0.12520 0.17930 0.10000
C 	C 	0.90780 0.07510 0.11700 0.08500
C 	C 	0.83830 0.06640 0.07250 0.04000
C 	C 	0.83430 0.99290 0.03670 -0.13800
H 	H 	0.87600 0.95200 0.03990 0.07400
C 	C 	0.76800 0.98250 0.99700 0.06300
H 	H 	0.76520 0.93450 0.97240 0.00700
C 	C 	0.70620 0.04150 0.99320 -0.09700
H 	H 	0.66200 0.03320 0.96560 0.06500
C 	C 	0.70710 0.11340 0.02900 0.02300
C 	C 	0.77310 0.12560 0.06830 -0.10600
H 	H 	0.77490 0.17380 0.09270 0.07000
C 	C 	0.64210 0.18090 0.02220 0.04200
C 	C 	0.59570 0.19160 0.96790 -0.11600
H 	H 	0.60220 0.15380 0.93540 0.07100
C 	C 	0.54010 0.25840 0.96250 0.09200
H 	H 	0.51150 0.26540 0.92520 -0.01400
C 	C 	0.56760 0.30250 0.06040 0.07100
H 	H 	0.55880 0.34040 0.09260 -0.01300
C 	C 	0.62420 0.23740 0.06920 -0.13000
H 	H 	0.65060 0.23140 0.10740 0.07100
N 	N 	0.38020 0.37430 0.08770 -0.24100
N 	N 	0.00580 0.04470 0.18360 -0.20700
N 	N 	0.94530 0.01120 0.14450 -0.12200
N 	N 	0.94310 0.14750 0.13820 -0.10900
N 	N 	0.92320 0.22950 0.11680 -0.22500
H 	H 	0.97180 0.25530 0.10860 0.11600
H 	H 	0.89550 0.25840 0.14530 0.11700
N 	N 	0.52540 0.31330 0.00810 -0.24200
Cd	Cd	0.05839 0.94161 0.25000 1.18900
Cd	Cd	0.94161 0.05839 0.75000 1.18900
Cd	Cd	0.55839 0.55839 0.50000 1.19000
Cd	Cd	0.44161 0.44161 -0.00000 1.18400
