data_crystal

_cell_length_a 15.88090
_cell_length_b 15.88090
_cell_length_c 21.81000
_cell_angle_alpha 90.00000
_cell_angle_beta  90.00000
_cell_angle_gamma 90.00000

_symmetry_space_group_name_	'P 1'
_symmetry_space_group_name_H-M	'P 1'

loop_
_symmetry_equiv_pos_as_xyz
  x,y,z

loop_
_atom_site_label
_atom_site_type_symbol
_atom_site_fract_x
_atom_site_fract_y
_atom_site_fract_z
_atom_site_charge
C 	C 	0.19930 0.15680 0.57560 0.06000
H 	H 	0.23010 0.14010 0.54020 -0.01500
C 	C 	0.23390 0.21750 0.61390 -0.13300
H 	H 	0.28750 0.24070 0.60460 0.06800
C 	C 	0.19160 0.24420 0.66480 0.06600
C 	C 	0.11690 0.20130 0.67880 -0.13500
H 	H 	0.08730 0.21370 0.71550 0.07500
C 	C 	0.08680 0.14100 0.63910 0.07300
H 	H 	0.03650 0.11220 0.64980 -0.00600
C 	C 	0.22220 0.31740 0.70220 0.01200
C 	C 	0.28190 0.37110 0.67670 -0.07300
H 	H 	0.30250 0.36030 0.63650 0.04900
C 	C 	0.31160 0.43980 0.70900 -0.00700
C 	C 	0.28300 0.45550 0.76800 -0.07400
H 	H 	0.30290 0.50260 0.79060 0.05500
C 	C 	0.22350 0.39970 0.79370 -0.00700
H 	H 	0.20300 0.40960 0.83400 0.03100
C 	C 	0.19470 0.33110 0.76130 -0.07600
H 	H 	0.15590 0.29330 0.77970 0.05700
C 	C 	0.37290 0.49510 0.67950 0.09300
C 	C 	0.42420 0.59110 0.61830 0.09600
C 	C 	0.43200 0.66100 0.57420 0.01800
C 	C 	0.50400 0.66360 0.53720 -0.07800
H 	H 	0.54540 0.62070 0.54020 0.05700
C 	C 	0.51400 0.72850 0.49690 0.00200
H 	H 	0.56290 0.73000 0.47180 0.02400
C 	C 	0.45580 0.79140 0.49150 -0.07600
H 	H 	0.46360 0.83490 0.46220 0.05300
C 	C 	0.38420 0.79130 0.52960 0.01400
C 	C 	0.37330 0.72500 0.56990 -0.07900
H 	H 	0.32450 0.72340 0.59500 0.06000
C 	C 	0.31830 0.85790 0.52350 0.06700
C 	C 	0.30860 0.90420 0.47170 -0.13200
H 	H 	0.34810 0.89770 0.43940 0.07200
C 	C 	0.24210 0.96140 0.46450 0.07200
H 	H 	0.23680 0.99110 0.42680 -0.00800
C 	C 	0.19740 0.93190 0.56160 0.06800
H 	H 	0.15900 0.94150 0.59420 -0.00900
C 	C 	0.26080 0.87520 0.57060 -0.12800
H 	H 	0.26590 0.84730 0.60890 0.07000
N 	N 	0.12420 0.12070 0.58630 -0.23500
N 	N 	0.45600 0.49400 0.68400 -0.20600
N 	N 	0.48830 0.55570 0.64530 -0.12200
N 	N 	0.35100 0.55530 0.63910 -0.10800
N 	N 	0.27000 0.57300 0.61690 -0.20900
H 	H 	0.24400 0.52380 0.60680 0.11100
H 	H 	0.23990 0.59960 0.64660 0.11000
N 	N 	0.18630 0.97520 0.50880 -0.22700
C 	C 	0.80070 0.84320 0.07560 0.06000
H 	H 	0.76990 0.85990 0.04020 -0.02000
C 	C 	0.76610 0.78250 0.11390 -0.13300
H 	H 	0.71250 0.75930 0.10460 0.06700
C 	C 	0.80840 0.75580 0.16480 0.06700
C 	C 	0.88310 0.79870 0.17880 -0.13400
H 	H 	0.91270 0.78630 0.21550 0.07600
C 	C 	0.91320 0.85900 0.13910 0.07300
H 	H 	0.96350 0.88780 0.14980 -0.00500
C 	C 	0.77780 0.68260 0.20220 0.01200
C 	C 	0.71810 0.62890 0.17670 -0.07200
H 	H 	0.69750 0.63970 0.13650 0.04800
C 	C 	0.68840 0.56020 0.20900 -0.00600
C 	C 	0.71700 0.54450 0.26800 -0.07300
H 	H 	0.69710 0.49740 0.29060 0.05600
C 	C 	0.77650 0.60030 0.29370 -0.00600
H 	H 	0.79700 0.59040 0.33400 0.02900
C 	C 	0.80530 0.66890 0.26130 -0.07600
H 	H 	0.84410 0.70670 0.27970 0.05700
C 	C 	0.62710 0.50490 0.17950 0.09300
C 	C 	0.57580 0.40890 0.11830 0.09000
C 	C 	0.56800 0.33900 0.07420 0.02900
C 	C 	0.49600 0.33640 0.03720 -0.11800
H 	H 	0.45460 0.37930 0.04020 0.06500
C 	C 	0.48600 0.27150 0.99690 0.03900
H 	H 	0.43710 0.27000 0.97180 0.01600
C 	C 	0.54420 0.20860 0.99150 -0.07100
H 	H 	0.53640 0.16510 0.96220 0.05500
C 	C 	0.61580 0.20870 0.02960 0.00800
C 	C 	0.62670 0.27500 0.06990 -0.08900
H 	H 	0.67550 0.27660 0.09500 0.06300
C 	C 	0.68170 0.14210 0.02350 0.04100
C 	C 	0.69140 0.09580 0.97170 -0.10500
H 	H 	0.65190 0.10230 0.93940 0.06600
C 	C 	0.75790 0.03860 0.96450 0.08200
H 	H 	0.76320 0.00890 0.92680 -0.00900
C 	C 	0.80260 0.06810 0.06160 0.05900
H 	H 	0.84100 0.05850 0.09420 -0.00600
C 	C 	0.73920 0.12480 0.07060 -0.11800
H 	H 	0.73410 0.15270 0.10890 0.06600
N 	N 	0.87580 0.87930 0.08630 -0.23700
N 	N 	0.54400 0.50600 0.18400 -0.20700
N 	N 	0.51170 0.44430 0.14530 -0.12200
N 	N 	0.64900 0.44470 0.13910 -0.10800
N 	N 	0.73000 0.42700 0.11690 -0.21100
H 	H 	0.75600 0.47620 0.10680 0.10800
H 	H 	0.76010 0.40040 0.14660 0.11000
N 	N 	0.81370 0.02480 0.00880 -0.23600
C 	C 	0.34320 0.69930 0.32560 0.06100
H 	H 	0.35990 0.73010 0.29020 -0.01400
C 	C 	0.28250 0.73390 0.36390 -0.13200
H 	H 	0.25930 0.78750 0.35460 0.07000
C 	C 	0.25580 0.69160 0.41480 0.06800
C 	C 	0.29870 0.61690 0.42880 -0.13400
H 	H 	0.28630 0.58730 0.46550 0.07600
C 	C 	0.35900 0.58680 0.38910 0.07500
H 	H 	0.38780 0.53650 0.39980 -0.00400
C 	C 	0.18260 0.72220 0.45220 0.01300
C 	C 	0.12890 0.78190 0.42670 -0.07100
H 	H 	0.13970 0.80250 0.38650 0.05000
C 	C 	0.06020 0.81160 0.45900 -0.00700
C 	C 	0.04450 0.78300 0.51800 -0.07000
H 	H 	0.99740 0.80290 0.54060 0.05400
C 	C 	0.10030 0.72350 0.54370 -0.00800
H 	H 	0.09040 0.70300 0.58400 0.03000
C 	C 	0.16890 0.69470 0.51130 -0.07500
H 	H 	0.20670 0.65590 0.52970 0.05700
C 	C 	0.00490 0.87290 0.42950 0.09500
C 	C 	0.90890 0.92420 0.36830 0.09700
C 	C 	0.83900 0.93200 0.32420 0.01400
C 	C 	0.83640 0.00400 0.28720 -0.07400
H 	H 	0.87930 0.04540 0.29020 0.05700
C 	C 	0.77150 0.01400 0.24690 0.00500
H 	H 	0.77000 0.06290 0.22180 0.02300
C 	C 	0.70860 0.95580 0.24150 -0.08100
H 	H 	0.66510 0.96360 0.21220 0.05300
C 	C 	0.70870 0.88420 0.27960 0.01500
C 	C 	0.77500 0.87330 0.31990 -0.07900
H 	H 	0.77660 0.82450 0.34500 0.06000
C 	C 	0.64210 0.81830 0.27350 0.06700
C 	C 	0.59580 0.80860 0.22170 -0.13200
H 	H 	0.60230 0.84810 0.18940 0.07100
C 	C 	0.53860 0.74210 0.21450 0.07200
H 	H 	0.50890 0.73680 0.17680 -0.00900
C 	C 	0.56810 0.69740 0.31160 0.06800
H 	H 	0.55850 0.65900 0.34420 -0.00900
C 	C 	0.62480 0.76080 0.32060 -0.12800
H 	H 	0.65270 0.76590 0.35890 0.06900
N 	N 	0.37930 0.62420 0.33630 -0.23400
N 	N 	0.00600 0.95600 0.43400 -0.20500
N 	N 	0.94430 0.98830 0.39530 -0.12400
N 	N 	0.94470 0.85100 0.38910 -0.10900
N 	N 	0.92700 0.77000 0.36690 -0.20900
H 	H 	0.97620 0.74400 0.35680 0.11100
H 	H 	0.90040 0.73990 0.39660 0.11000
N 	N 	0.52480 0.68630 0.25880 -0.22700
C 	C 	0.65680 0.30070 0.82560 0.05500
H 	H 	0.64010 0.26990 0.79020 -0.01200
C 	C 	0.71750 0.26610 0.86390 -0.11700
H 	H 	0.74070 0.21250 0.85460 0.06400
C 	C 	0.74420 0.30840 0.91480 0.04700
C 	C 	0.70130 0.38310 0.92880 -0.11900
H 	H 	0.71370 0.41270 0.96550 0.07800
C 	C 	0.64100 0.41320 0.88910 0.06900
H 	H 	0.61220 0.46350 0.89980 0.00100
C 	C 	0.81740 0.27780 0.95220 0.07100
C 	C 	0.87110 0.21810 0.92670 -0.11400
H 	H 	0.86030 0.19750 0.88650 0.06500
C 	C 	0.93980 0.18840 0.95900 0.04800
C 	C 	0.95550 0.21700 0.01800 -0.13400
H 	H 	0.00260 0.19710 0.04060 0.07000
C 	C 	0.89970 0.27650 0.04370 0.04500
H 	H 	0.90960 0.29700 0.08400 0.01200
C 	C 	0.83110 0.30530 0.01130 -0.14500
H 	H 	0.79330 0.34410 0.02970 0.07500
C 	C 	0.99510 0.12710 0.92950 0.08500
C 	C 	0.09110 0.07580 0.86830 0.09800
C 	C 	0.16100 0.06800 0.82420 0.01500
C 	C 	0.16360 0.99600 0.78720 -0.07500
H 	H 	0.12070 0.95460 0.79020 0.05600
C 	C 	0.22850 0.98600 0.74690 0.00400
H 	H 	0.23000 0.93710 0.72180 0.02400
C 	C 	0.29140 0.04420 0.74150 -0.07900
H 	H 	0.33490 0.03640 0.71220 0.05300
C 	C 	0.29130 0.11580 0.77960 0.01500
C 	C 	0.22500 0.12670 0.81990 -0.07800
H 	H 	0.22340 0.17550 0.84500 0.06100
C 	C 	0.35790 0.18170 0.77350 0.06800
C 	C 	0.40420 0.19140 0.72170 -0.13200
H 	H 	0.39770 0.15190 0.68940 0.07200
C 	C 	0.46140 0.25790 0.71450 0.07200
H 	H 	0.49110 0.26320 0.67680 -0.00900
C 	C 	0.43190 0.30260 0.81160 0.06800
H 	H 	0.44150 0.34100 0.84420 -0.00800
C 	C 	0.37520 0.23920 0.82060 -0.12800
H 	H 	0.34730 0.23410 0.85890 0.07100
N 	N 	0.62070 0.37580 0.83630 -0.23200
N 	N 	0.99400 0.04400 0.93400 -0.19700
N 	N 	0.05570 0.01170 0.89530 -0.12400
N 	N 	0.05530 0.14900 0.88910 -0.10800
N 	N 	0.07300 0.23000 0.86690 -0.21000
H 	H 	0.02380 0.25600 0.85680 0.11100
H 	H 	0.09960 0.26010 0.89660 0.11300
N 	N 	0.47520 0.31370 0.75880 -0.22700
C 	C 	0.30070 0.65680 0.17440 0.06800
H 	H 	0.26990 0.64010 0.20980 -0.01600
C 	C 	0.26610 0.71750 0.13610 -0.14700
H 	H 	0.21250 0.74070 0.14540 0.07500
C 	C 	0.30840 0.74420 0.08520 0.09100
C 	C 	0.38310 0.70130 0.07120 -0.15000
H 	H 	0.41270 0.71370 0.03450 0.07500
C 	C 	0.41320 0.64100 0.11090 0.08100
H 	H 	0.46350 0.61220 0.10020 -0.00800
C 	C 	0.27780 0.81740 0.04780 -0.05100
C 	C 	0.21810 0.87110 0.07330 -0.02300
H 	H 	0.19750 0.86030 0.11350 0.03400
C 	C 	0.18840 0.93980 0.04100 -0.06800
C 	C 	0.21700 0.95550 0.98200 0.00600
H 	H 	0.19710 0.00260 0.95940 0.03100
C 	C 	0.27650 0.89970 0.95630 -0.06800
H 	H 	0.29700 0.90960 0.91600 0.05200
C 	C 	0.30530 0.83110 0.98870 0.00100
H 	H 	0.34410 0.79330 0.97030 0.03700
C 	C 	0.12710 0.99510 0.07050 0.10900
C 	C 	0.07580 0.09110 0.13170 0.09500
C 	C 	0.06800 0.16100 0.17580 0.01400
C 	C 	0.99600 0.16360 0.21280 -0.07500
H 	H 	0.95460 0.12070 0.20980 0.05700
C 	C 	0.98600 0.22850 0.25310 0.00400
H 	H 	0.93710 0.23000 0.27820 0.02400
C 	C 	0.04420 0.29140 0.25850 -0.08000
H 	H 	0.03640 0.33490 0.28780 0.05300
C 	C 	0.11580 0.29130 0.22040 0.01500
C 	C 	0.12670 0.22500 0.18010 -0.07900
H 	H 	0.17550 0.22340 0.15500 0.05900
C 	C 	0.18170 0.35790 0.22650 0.06700
C 	C 	0.19140 0.40420 0.27830 -0.13200
H 	H 	0.15190 0.39770 0.31060 0.07200
C 	C 	0.25790 0.46140 0.28550 0.07200
H 	H 	0.26320 0.49110 0.32320 -0.00900
C 	C 	0.30260 0.43190 0.18840 0.06700
H 	H 	0.34100 0.44150 0.15580 -0.01000
C 	C 	0.23920 0.37520 0.17940 -0.12800
H 	H 	0.23410 0.34730 0.14110 0.06800
N 	N 	0.37580 0.62070 0.16370 -0.23700
N 	N 	0.04400 0.99400 0.06600 -0.21200
N 	N 	0.01170 0.05570 0.10470 -0.12400
N 	N 	0.14900 0.05530 0.11090 -0.11300
N 	N 	0.23000 0.07300 0.13310 -0.20800
H 	H 	0.25600 0.02380 0.14320 0.11000
H 	H 	0.26010 0.09960 0.10340 0.10600
N 	N 	0.31370 0.47520 0.24120 -0.22700
C 	C 	0.69930 0.34320 0.67440 0.06200
H 	H 	0.73010 0.35990 0.70980 -0.01400
C 	C 	0.73390 0.28250 0.63610 -0.13200
H 	H 	0.78750 0.25930 0.64540 0.07000
C 	C 	0.69160 0.25580 0.58520 0.06900
C 	C 	0.61690 0.29870 0.57120 -0.13400
H 	H 	0.58730 0.28630 0.53450 0.07600
C 	C 	0.58680 0.35900 0.61090 0.07500
H 	H 	0.53650 0.38780 0.60020 -0.00400
C 	C 	0.72220 0.18260 0.54780 0.01100
C 	C 	0.78190 0.12890 0.57330 -0.06900
H 	H 	0.80250 0.13970 0.61350 0.05000
C 	C 	0.81160 0.06020 0.54100 -0.01000
C 	C 	0.78300 0.04450 0.48200 -0.06500
H 	H 	0.80290 0.99740 0.45940 0.05100
C 	C 	0.72350 0.10030 0.45630 -0.01100
H 	H 	0.70300 0.09040 0.41600 0.03100
C 	C 	0.69470 0.16890 0.48870 -0.07300
H 	H 	0.65590 0.20670 0.47030 0.05600
C 	C 	0.87290 0.00490 0.57050 0.09700
C 	C 	0.92420 0.90890 0.63170 0.09600
C 	C 	0.93200 0.83900 0.67580 0.01600
C 	C 	0.00400 0.83640 0.71280 -0.07600
H 	H 	0.04540 0.87930 0.70980 0.05700
C 	C 	0.01400 0.77150 0.75310 0.00100
H 	H 	0.06290 0.77000 0.77820 0.02400
C 	C 	0.95580 0.70860 0.75850 -0.07600
H 	H 	0.96360 0.66510 0.78780 0.05400
C 	C 	0.88420 0.70870 0.72040 0.01400
C 	C 	0.87330 0.77500 0.68010 -0.07900
H 	H 	0.82450 0.77660 0.65500 0.06000
C 	C 	0.81830 0.64210 0.72650 0.06800
C 	C 	0.80860 0.59580 0.77830 -0.13300
H 	H 	0.84810 0.60230 0.81060 0.07300
C 	C 	0.74210 0.53860 0.78550 0.07300
H 	H 	0.73680 0.50890 0.82320 -0.00800
C 	C 	0.69740 0.56810 0.68840 0.06800
H 	H 	0.65900 0.55850 0.65580 -0.00900
C 	C 	0.76080 0.62480 0.67940 -0.12900
H 	H 	0.76590 0.65270 0.64110 0.07000
N 	N 	0.62420 0.37930 0.66370 -0.23400
N 	N 	0.95600 0.00600 0.56600 -0.20500
N 	N 	0.98830 0.94430 0.60470 -0.12400
N 	N 	0.85100 0.94470 0.61090 -0.11000
N 	N 	0.77000 0.92700 0.63310 -0.20900
H 	H 	0.74400 0.97620 0.64320 0.11000
H 	H 	0.73990 0.90040 0.60340 0.10900
N 	N 	0.68630 0.52480 0.74120 -0.22700
C 	C 	0.15680 0.19930 0.42440 0.06100
H 	H 	0.14010 0.23010 0.45980 -0.01400
C 	C 	0.21750 0.23390 0.38610 -0.13100
H 	H 	0.24070 0.28750 0.39540 0.06900
C 	C 	0.24420 0.19160 0.33520 0.06700
C 	C 	0.20130 0.11690 0.32120 -0.13300
H 	H 	0.21370 0.08730 0.28450 0.07600
C 	C 	0.14100 0.08680 0.36090 0.07400
H 	H 	0.11220 0.03650 0.35020 -0.00400
C 	C 	0.31740 0.22220 0.29780 0.01400
C 	C 	0.37110 0.28190 0.32330 -0.07300
H 	H 	0.36030 0.30250 0.36350 0.05000
C 	C 	0.43980 0.31160 0.29100 -0.00500
C 	C 	0.45550 0.28300 0.23200 -0.07400
H 	H 	0.50260 0.30290 0.20940 0.05600
C 	C 	0.39970 0.22350 0.20630 -0.00500
H 	H 	0.40960 0.20300 0.16600 0.02700
C 	C 	0.33110 0.19470 0.23870 -0.07800
H 	H 	0.29330 0.15590 0.22030 0.05800
C 	C 	0.49510 0.37290 0.32050 0.09300
C 	C 	0.59110 0.42420 0.38170 0.09600
C 	C 	0.66100 0.43200 0.42580 0.01800
C 	C 	0.66360 0.50400 0.46280 -0.07800
H 	H 	0.62070 0.54540 0.45980 0.05700
C 	C 	0.72850 0.51400 0.50310 0.00200
H 	H 	0.73000 0.56290 0.52820 0.02400
C 	C 	0.79140 0.45580 0.50850 -0.07700
H 	H 	0.83490 0.46360 0.53780 0.05300
C 	C 	0.79130 0.38420 0.47040 0.01500
C 	C 	0.72500 0.37330 0.43010 -0.07900
H 	H 	0.72340 0.32450 0.40500 0.06000
C 	C 	0.85790 0.31830 0.47650 0.06700
C 	C 	0.90420 0.30860 0.52830 -0.13200
H 	H 	0.89770 0.34810 0.56060 0.07200
C 	C 	0.96140 0.24210 0.53550 0.07200
H 	H 	0.99110 0.23680 0.57320 -0.00700
C 	C 	0.93190 0.19740 0.43840 0.06800
H 	H 	0.94150 0.15900 0.40580 -0.00800
C 	C 	0.87520 0.26080 0.42940 -0.12800
H 	H 	0.84730 0.26590 0.39110 0.07000
N 	N 	0.12070 0.12420 0.41370 -0.23500
N 	N 	0.49400 0.45600 0.31600 -0.20600
N 	N 	0.55570 0.48830 0.35470 -0.12200
N 	N 	0.55530 0.35100 0.36090 -0.10800
N 	N 	0.57300 0.27000 0.38310 -0.20900
H 	H 	0.52380 0.24400 0.39320 0.11100
H 	H 	0.59960 0.23990 0.35340 0.11000
N 	N 	0.97520 0.18630 0.49120 -0.22600
C 	C 	0.84320 0.80070 0.92440 0.06200
H 	H 	0.85990 0.76990 0.95980 -0.00800
C 	C 	0.78250 0.76610 0.88610 -0.12900
H 	H 	0.75930 0.71250 0.89540 0.07100
C 	C 	0.75580 0.80840 0.83520 0.06700
C 	C 	0.79870 0.88310 0.82120 -0.13300
H 	H 	0.78630 0.91270 0.78450 0.07600
C 	C 	0.85900 0.91320 0.86090 0.07500
H 	H 	0.88780 0.96350 0.85020 -0.00400
C 	C 	0.68260 0.77780 0.79780 0.01500
C 	C 	0.62890 0.71810 0.82330 -0.07300
H 	H 	0.63970 0.69750 0.86350 0.05200
C 	C 	0.56020 0.68840 0.79100 -0.00500
C 	C 	0.54450 0.71700 0.73200 -0.07400
H 	H 	0.49740 0.69710 0.70940 0.05600
C 	C 	0.60030 0.77650 0.70630 -0.00500
H 	H 	0.59040 0.79700 0.66600 0.02900
C 	C 	0.66890 0.80530 0.73870 -0.07700
H 	H 	0.70670 0.84410 0.72030 0.05800
C 	C 	0.50490 0.62710 0.82050 0.09300
C 	C 	0.40890 0.57580 0.88170 0.10200
C 	C 	0.33900 0.56800 0.92580 0.00600
C 	C 	0.33640 0.49600 0.96280 -0.03800
H 	H 	0.37930 0.45460 0.95980 0.04900
C 	C 	0.27150 0.48600 0.00310 -0.03500
H 	H 	0.27000 0.43710 0.02820 0.03200
C 	C 	0.20860 0.54420 0.00850 -0.08200
H 	H 	0.16510 0.53640 0.03780 0.05100
C 	C 	0.20870 0.61580 0.97040 0.02100
C 	C 	0.27500 0.62670 0.93010 -0.07000
H 	H 	0.27660 0.67550 0.90500 0.05800
C 	C 	0.14210 0.68170 0.97650 0.09400
C 	C 	0.09580 0.69140 0.02830 -0.16000
H 	H 	0.10230 0.65190 0.06060 0.07800
C 	C 	0.03860 0.75790 0.03550 0.06200
H 	H 	0.00890 0.76320 0.07320 -0.00700
C 	C 	0.06810 0.80260 0.93840 0.07700
H 	H 	0.05850 0.84100 0.90580 -0.01000
C 	C 	0.12480 0.73920 0.92940 -0.13800
H 	H 	0.15270 0.73410 0.89110 0.07300
N 	N 	0.87930 0.87580 0.91370 -0.23100
N 	N 	0.50600 0.54400 0.81600 -0.20600
N 	N 	0.44430 0.51170 0.85470 -0.12300
N 	N 	0.44470 0.64900 0.86090 -0.10800
N 	N 	0.42700 0.73000 0.88310 -0.20800
H 	H 	0.47620 0.75600 0.89320 0.11400
H 	H 	0.40040 0.76010 0.85340 0.11000
N 	N 	0.02480 0.81370 0.99120 -0.21500
Cd	Cd	0.55807 0.44193 0.75000 1.19100
Cd	Cd	0.44193 0.55807 0.25000 1.19100
Cd	Cd	0.05807 0.05807 0.50000 1.19000
Cd	Cd	0.94193 0.94193 -0.00000 1.18300
