data_crystal

_cell_length_a 12.45910
_cell_length_b 19.36310
_cell_length_c 25.25900
_cell_angle_alpha 90.00000
_cell_angle_beta  100.66000
_cell_angle_gamma 90.00000

_symmetry_space_group_name_	'P 1'
_symmetry_space_group_name_H-M	'P 1'

loop_
_symmetry_equiv_pos_as_xyz
  x,y,z

loop_
_atom_site_label
_atom_site_type_symbol
_atom_site_fract_x
_atom_site_fract_y
_atom_site_fract_z
_atom_site_charge
U 	U 	0.80382 0.11577 0.36220 0.01700
U 	U 	0.90338 0.08740 0.22769 0.00900
U 	U 	0.60535 0.14415 0.22740 0.00300
U 	U 	0.14969 0.09145 0.34846 0.00800
U 	U 	0.24768 0.11497 0.21356 0.02800
U 	U 	0.44584 0.14368 0.34700 0.01400
O 	O 	0.93370 0.08750 0.43980 -0.22900
O 	O 	0.10630 0.08530 0.43410 -0.24700
O 	O 	0.85610 0.19220 0.74360 -0.23200
O 	O 	0.85990 0.07920 0.75620 -0.23300
O 	O 	0.73600 0.12140 0.16690 -0.17500
O 	O 	0.72000 0.16550 0.08300 -0.23800
O 	O 	0.50150 0.84920 0.85890 -0.22700
O 	O 	0.67880 0.85410 0.86300 -0.21800
O 	O 	0.95400 0.08320 0.14310 -0.21600
O 	O 	0.12590 0.06580 0.13900 -0.21100
O 	O 	0.23680 0.33820 0.93770 -0.23400
O 	O 	0.06040 0.35720 0.93170 -0.23800
O 	O 	0.76890 0.11230 0.27180 -0.04300
O 	O 	0.27660 0.12420 0.30240 -0.03300
O 	O 	0.95720 0.06250 0.32650 -0.20300
H 	H 	0.96260 0.01830 0.33050 0.17600
O 	O 	0.09590 0.06100 0.25110 -0.17000
H 	H 	0.08280 0.01450 0.25610 0.18500
O 	O 	0.62460 0.16590 0.32590 -0.17700
H 	H 	0.62130 0.21130 0.31460 0.17600
O 	O 	0.42860 0.17070 0.24980 -0.15900
H 	H 	0.42440 0.21820 0.23640 0.17800
C 	C 	0.03250 0.09020 0.46030 0.40600
C 	C 	0.06800 0.09810 0.51930 -0.41000
H 	H 	0.13040 0.13060 0.52570 0.16800
H 	H 	0.09540 0.05280 0.53420 0.16500
C 	C 	0.98220 0.12380 0.55140 0.14700
H 	H 	0.95880 0.17100 0.53940 0.00300
H 	H 	0.91730 0.09330 0.54400 0.00700
C 	C 	0.02670 0.12460 0.61170 -0.29900
H 	H 	0.05540 0.07810 0.62280 0.12400
H 	H 	0.08860 0.15740 0.61900 0.13300
C 	C 	0.94330 0.14450 0.64540 0.12900
H 	H 	0.87400 0.11980 0.63200 0.00800
H 	H 	0.92870 0.19470 0.64170 0.01300
C 	C 	0.98310 0.12700 0.70490 -0.37100
H 	H 	0.01180 0.07920 0.70780 0.14700
H 	H 	0.04380 0.15840 0.72000 0.15500
C 	C 	0.89380 0.13320 0.73780 0.38100
C 	C 	0.71730 0.11660 0.11360 0.36800
C 	C 	0.69180 0.04390 0.09280 -0.35200
H 	H 	0.62600 0.02750 0.10580 0.15300
H 	H 	0.75320 0.01340 0.10870 0.15200
C 	C 	0.67190 0.03590 0.03030 0.10100
H 	H 	0.60590 0.06210 0.01380 0.00800
H 	H 	0.73500 0.05480 0.01620 0.01000
C 	C 	0.65710 0.95970 0.01580 -0.27400
H 	H 	0.72340 0.93440 0.03310 0.10500
H 	H 	0.59500 0.94150 0.03110 0.11200
C 	C 	0.63660 0.94480 0.95680 0.12600
H 	H 	0.70150 0.95870 0.94190 0.00900
H 	H 	0.57390 0.97290 0.93880 0.00200
C 	C 	0.61280 0.86950 0.94430 -0.38300
H 	H 	0.67440 0.84100 0.96270 0.14000
H 	H 	0.54630 0.85560 0.95780 0.15600
C 	C 	0.59620 0.85730 0.88480 0.37700
C 	C 	0.02810 0.07090 0.11710 0.37700
C 	C 	0.99270 0.05640 0.05850 -0.38200
H 	H 	0.92400 0.02940 0.05270 0.14600
H 	H 	0.04920 0.02860 0.04550 0.14400
C 	C 	0.97500 0.12270 0.02730 0.14200
H 	H 	0.91380 0.14770 0.03870 0.01800
H 	H 	0.95190 0.11110 0.98860 -0.00500
C 	C 	0.07330 0.17190 0.03280 -0.31800
H 	H 	0.08420 0.19270 0.06920 0.14700
H 	H 	0.13900 0.14390 0.03090 0.12500
C 	C 	0.06780 0.22740 0.99390 0.15800
H 	H 	0.99620 0.25030 0.99230 0.02400
H 	H 	0.06610 0.20560 0.95830 0.00200
C 	C 	0.15230 0.28390 0.99930 -0.40400
H 	H 	0.14540 0.31210 0.03120 0.15600
H 	H 	0.22540 0.26200 0.00680 0.15400
C 	C 	0.14850 0.33130 0.95270 0.40700
O 	O 	0.32310 0.11520 0.41360 -0.05700
O 	O 	0.30510 0.18630 0.47870 0.23300
O 	O 	0.67690 0.87900 0.58970 -0.12200
O 	O 	0.65760 0.83210 0.50930 -0.47500
C 	C 	0.32800 0.12760 0.46170 0.16100
C 	C 	0.38200 0.07670 0.50460 -0.26500
H 	H 	0.46140 0.08570 0.51430 0.15800
H 	H 	0.34980 0.08290 0.53730 0.10300
C 	C 	0.36210 0.00420 0.48420 0.17100
H 	H 	0.33670 0.97510 0.51170 -0.01500
H 	H 	0.30530 0.00380 0.45110 -0.01500
C 	C 	0.46880 0.97530 0.47190 -0.00300
H 	H 	0.48610 0.99750 0.43920 -0.00300
H 	H 	0.46310 0.92480 0.46580 -0.03900
C 	C 	0.55760 0.99130 0.52050 -0.21100
H 	H 	0.53550 0.97420 0.55390 0.12900
H 	H 	0.56920 0.04180 0.52390 0.09200
C 	C 	0.66090 0.95490 0.51330 -0.06900
H 	H 	0.66320 0.95160 0.47440 0.06800
H 	H 	0.72540 0.98140 0.53120 0.04100
C 	C 	0.66100 0.88340 0.53930 0.21300
U 	U 	0.69618 0.61577 0.13780 0.01600
U 	U 	0.59662 0.58740 0.27231 0.00800
U 	U 	0.89465 0.64415 0.27260 0.00100
U 	U 	0.35031 0.59145 0.15154 0.00700
U 	U 	0.25232 0.61497 0.28644 0.02800
U 	U 	0.05416 0.64368 0.15300 0.01300
O 	O 	0.56630 0.58750 0.06020 -0.23200
O 	O 	0.39370 0.58530 0.06590 -0.24800
O 	O 	0.64390 0.69220 0.75640 -0.23400
O 	O 	0.64010 0.57920 0.74380 -0.23600
O 	O 	0.76400 0.62140 0.33310 -0.17600
O 	O 	0.78000 0.66550 0.41700 -0.23900
O 	O 	0.99850 0.34920 0.64110 -0.22800
O 	O 	0.82120 0.35410 0.63700 -0.21900
O 	O 	0.54600 0.58320 0.35690 -0.22200
O 	O 	0.37410 0.56580 0.36100 -0.21400
O 	O 	0.26320 0.83820 0.56230 -0.23400
O 	O 	0.43960 0.85720 0.56830 -0.23900
O 	O 	0.73110 0.61230 0.22820 -0.04400
O 	O 	0.22340 0.62420 0.19760 -0.03300
O 	O 	0.54280 0.56250 0.17350 -0.20300
H 	H 	0.53740 0.51830 0.16950 0.17600
O 	O 	0.40410 0.56100 0.24890 -0.16900
H 	H 	0.41720 0.51450 0.24390 0.18600
O 	O 	0.87540 0.66590 0.17410 -0.17700
H 	H 	0.87870 0.71130 0.18540 0.17500
O 	O 	0.07140 0.67070 0.25020 -0.15900
H 	H 	0.07560 0.71820 0.26360 0.17900
C 	C 	0.46750 0.59020 0.03970 0.40800
C 	C 	0.43200 0.59810 0.98070 -0.40700
H 	H 	0.36960 0.63060 0.97430 0.16800
H 	H 	0.40460 0.55280 0.96580 0.16400
C 	C 	0.51780 0.62380 0.94860 0.14100
H 	H 	0.54120 0.67100 0.96060 0.00400
H 	H 	0.58270 0.59330 0.95600 0.00800
C 	C 	0.47330 0.62460 0.88830 -0.29400
H 	H 	0.44460 0.57810 0.87720 0.12300
H 	H 	0.41140 0.65740 0.88100 0.13200
C 	C 	0.55670 0.64450 0.85460 0.12800
H 	H 	0.62600 0.61980 0.86800 0.00800
H 	H 	0.57130 0.69470 0.85830 0.01300
C 	C 	0.51690 0.62700 0.79510 -0.37700
H 	H 	0.48820 0.57920 0.79220 0.15000
H 	H 	0.45620 0.65840 0.78000 0.15700
C 	C 	0.60620 0.63320 0.76220 0.38300
C 	C 	0.78270 0.61660 0.38640 0.36800
C 	C 	0.80820 0.54390 0.40720 -0.35200
H 	H 	0.87400 0.52750 0.39420 0.15400
H 	H 	0.74680 0.51340 0.39130 0.15200
C 	C 	0.82810 0.53590 0.46970 0.10200
H 	H 	0.89410 0.56210 0.48620 0.00700
H 	H 	0.76500 0.55480 0.48380 0.00900
C 	C 	0.84290 0.45970 0.48420 -0.27600
H 	H 	0.77660 0.43440 0.46690 0.10600
H 	H 	0.90500 0.44150 0.46890 0.11200
C 	C 	0.86340 0.44480 0.54320 0.12800
H 	H 	0.79850 0.45870 0.55810 0.00900
H 	H 	0.92610 0.47290 0.56120 0.00100
C 	C 	0.88720 0.36950 0.55570 -0.38400
H 	H 	0.82560 0.34100 0.53730 0.14100
H 	H 	0.95370 0.35560 0.54220 0.15700
C 	C 	0.90380 0.35730 0.61520 0.37700
C 	C 	0.47190 0.57090 0.38290 0.38700
C 	C 	0.50730 0.55640 0.44150 -0.39600
H 	H 	0.57600 0.52940 0.44730 0.14900
H 	H 	0.45080 0.52860 0.45450 0.15000
C 	C 	0.52500 0.62270 0.47270 0.14500
H 	H 	0.58620 0.64770 0.46130 0.01700
H 	H 	0.54810 0.61110 0.51140 -0.00700
C 	C 	0.42670 0.67190 0.46720 -0.31700
H 	H 	0.41580 0.69270 0.43080 0.14700
H 	H 	0.36100 0.64390 0.46910 0.12500
C 	C 	0.43220 0.72740 0.50610 0.15900
H 	H 	0.50380 0.75030 0.50770 0.02400
H 	H 	0.43390 0.70560 0.54170 0.00200
C 	C 	0.34770 0.78390 0.50070 -0.40800
H 	H 	0.35460 0.81210 0.46880 0.15800
H 	H 	0.27460 0.76200 0.49320 0.15600
C 	C 	0.35150 0.83130 0.54730 0.40900
O 	O 	0.17690 0.61520 0.08640 -0.05700
O 	O 	0.19490 0.68630 0.02130 0.23300
O 	O 	0.82310 0.37900 0.91030 -0.12200
O 	O 	0.84240 0.33210 0.99070 -0.47600
C 	C 	0.17200 0.62760 0.03830 0.16100
C 	C 	0.11800 0.57670 0.99540 -0.26600
H 	H 	0.03860 0.58570 0.98570 0.15900
H 	H 	0.15020 0.58290 0.96270 0.10300
C 	C 	0.13790 0.50420 0.01580 0.17000
H 	H 	0.16330 0.47510 0.98830 -0.01500
H 	H 	0.19470 0.50380 0.04890 -0.01400
C 	C 	0.03120 0.47530 0.02810 -0.00300
H 	H 	0.01390 0.49750 0.06080 -0.00400
H 	H 	0.03690 0.42480 0.03420 -0.04000
C 	C 	0.94240 0.49130 0.97950 -0.21100
H 	H 	0.96450 0.47420 0.94610 0.12900
H 	H 	0.93080 0.54180 0.97610 0.09100
C 	C 	0.83910 0.45490 0.98670 -0.06800
H 	H 	0.83680 0.45160 0.02560 0.06800
H 	H 	0.77460 0.48140 0.96880 0.04100
C 	C 	0.83900 0.38340 0.96070 0.21300
U 	U 	0.19618 0.88423 0.63780 0.01600
U 	U 	0.09662 0.91260 0.77231 0.00800
U 	U 	0.39465 0.85585 0.77260 0.00200
U 	U 	0.85031 0.90855 0.65154 0.00700
U 	U 	0.75232 0.88503 0.78644 0.02700
U 	U 	0.55416 0.85632 0.65300 0.01300
O 	O 	0.06630 0.91250 0.56020 -0.23000
O 	O 	0.89370 0.91470 0.56590 -0.24800
O 	O 	0.14390 0.80780 0.25640 -0.23300
O 	O 	0.14010 0.92080 0.24380 -0.23400
O 	O 	0.26400 0.87860 0.83310 -0.17600
O 	O 	0.28000 0.83450 0.91700 -0.23900
O 	O 	0.49850 0.15080 0.14110 -0.22800
O 	O 	0.32120 0.14590 0.13700 -0.21900
O 	O 	0.04600 0.91680 0.85690 -0.21700
O 	O 	0.87410 0.93420 0.86100 -0.21200
O 	O 	0.76320 0.66180 0.06230 -0.23400
O 	O 	0.93960 0.64280 0.06830 -0.23800
O 	O 	0.23110 0.88770 0.72820 -0.04300
O 	O 	0.72340 0.87580 0.69760 -0.03300
O 	O 	0.04280 0.93750 0.67350 -0.20300
H 	H 	0.03740 0.98170 0.66950 0.17600
O 	O 	0.90410 0.93900 0.74890 -0.17000
H 	H 	0.91720 0.98550 0.74390 0.18500
O 	O 	0.37540 0.83410 0.67410 -0.17700
H 	H 	0.37870 0.78870 0.68540 0.17600
O 	O 	0.57140 0.82930 0.75020 -0.15900
H 	H 	0.57560 0.78180 0.76360 0.17800
C 	C 	0.96750 0.90980 0.53970 0.40600
C 	C 	0.93200 0.90190 0.48070 -0.41000
H 	H 	0.86960 0.86940 0.47430 0.16800
H 	H 	0.90460 0.94720 0.46580 0.16500
C 	C 	0.01780 0.87620 0.44860 0.14700
H 	H 	0.04120 0.82900 0.46060 0.00300
H 	H 	0.08270 0.90670 0.45600 0.00700
C 	C 	0.97330 0.87540 0.38830 -0.29900
H 	H 	0.94460 0.92190 0.37720 0.12400
H 	H 	0.91140 0.84260 0.38100 0.13300
C 	C 	0.05670 0.85550 0.35460 0.12900
H 	H 	0.12600 0.88020 0.36800 0.00800
H 	H 	0.07130 0.80530 0.35830 0.01300
C 	C 	0.01690 0.87300 0.29510 -0.37100
H 	H 	0.98820 0.92080 0.29220 0.14700
H 	H 	0.95620 0.84160 0.28000 0.15500
C 	C 	0.10620 0.86680 0.26220 0.38100
C 	C 	0.28270 0.88340 0.88640 0.36800
C 	C 	0.30820 0.95610 0.90720 -0.35200
H 	H 	0.37400 0.97250 0.89420 0.15300
H 	H 	0.24680 0.98660 0.89130 0.15200
C 	C 	0.32810 0.96410 0.96970 0.10100
H 	H 	0.39410 0.93790 0.98620 0.00800
H 	H 	0.26500 0.94520 0.98380 0.01000
C 	C 	0.34290 0.04030 0.98420 -0.27400
H 	H 	0.27660 0.06560 0.96690 0.10500
H 	H 	0.40500 0.05850 0.96890 0.11200
C 	C 	0.36340 0.05520 0.04320 0.12600
H 	H 	0.29850 0.04130 0.05810 0.00900
H 	H 	0.42610 0.02710 0.06120 0.00200
C 	C 	0.38720 0.13050 0.05570 -0.38300
H 	H 	0.32560 0.15900 0.03730 0.14000
H 	H 	0.45370 0.14440 0.04220 0.15600
C 	C 	0.40380 0.14270 0.11520 0.37700
C 	C 	0.97190 0.92910 0.88290 0.37700
C 	C 	0.00730 0.94360 0.94150 -0.38200
H 	H 	0.07600 0.97060 0.94730 0.14600
H 	H 	0.95080 0.97140 0.95450 0.14400
C 	C 	0.02500 0.87730 0.97270 0.14200
H 	H 	0.08620 0.85230 0.96130 0.01800
H 	H 	0.04810 0.88890 0.01140 -0.00500
C 	C 	0.92670 0.82810 0.96720 -0.31800
H 	H 	0.91580 0.80730 0.93080 0.14700
H 	H 	0.86100 0.85610 0.96910 0.12500
C 	C 	0.93220 0.77260 0.00610 0.15800
H 	H 	0.00380 0.74970 0.00770 0.02400
H 	H 	0.93390 0.79440 0.04170 0.00200
C 	C 	0.84770 0.71610 0.00070 -0.40400
H 	H 	0.85460 0.68790 0.96880 0.15600
H 	H 	0.77460 0.73800 0.99320 0.15400
C 	C 	0.85150 0.66870 0.04730 0.40700
O 	O 	0.67690 0.88480 0.58640 -0.05700
O 	O 	0.69490 0.81370 0.52130 0.23300
O 	O 	0.32310 0.12100 0.41030 -0.12200
O 	O 	0.34240 0.16790 0.49070 -0.47500
C 	C 	0.67200 0.87240 0.53830 0.16100
C 	C 	0.61800 0.92330 0.49540 -0.26500
H 	H 	0.53860 0.91430 0.48570 0.15800
H 	H 	0.65020 0.91710 0.46270 0.10300
C 	C 	0.63790 0.99580 0.51580 0.17100
H 	H 	0.66330 0.02490 0.48830 -0.01500
H 	H 	0.69470 0.99620 0.54890 -0.01500
C 	C 	0.53120 0.02470 0.52810 -0.00300
H 	H 	0.51390 0.00250 0.56080 -0.00300
H 	H 	0.53690 0.07520 0.53420 -0.03900
C 	C 	0.44240 0.00870 0.47950 -0.21100
H 	H 	0.46450 0.02580 0.44610 0.12900
H 	H 	0.43080 0.95820 0.47610 0.09200
C 	C 	0.33910 0.04510 0.48670 -0.06900
H 	H 	0.33680 0.04840 0.52560 0.06800
H 	H 	0.27460 0.01860 0.46880 0.04100
C 	C 	0.33900 0.11660 0.46070 0.21300
U 	U 	0.30382 0.38423 0.86220 0.01600
U 	U 	0.40338 0.41260 0.72769 0.00800
U 	U 	0.10535 0.35585 0.72740 0.00100
U 	U 	0.64969 0.40855 0.84846 0.00700
U 	U 	0.74768 0.38503 0.71356 0.02800
U 	U 	0.94584 0.35632 0.84700 0.01300
O 	O 	0.43370 0.41250 0.93980 -0.23200
O 	O 	0.60630 0.41470 0.93410 -0.24800
O 	O 	0.35610 0.30780 0.24360 -0.23400
O 	O 	0.35990 0.42080 0.25620 -0.23600
O 	O 	0.23600 0.37860 0.66690 -0.17600
O 	O 	0.22000 0.33450 0.58300 -0.23900
O 	O 	0.00150 0.65080 0.35890 -0.22800
O 	O 	0.17880 0.64590 0.36300 -0.21900
O 	O 	0.45400 0.41680 0.64310 -0.22200
O 	O 	0.62590 0.43420 0.63900 -0.21400
O 	O 	0.73680 0.16180 0.43770 -0.23400
O 	O 	0.56040 0.14280 0.43170 -0.23900
O 	O 	0.26890 0.38770 0.77180 -0.04400
O 	O 	0.77660 0.37580 0.80240 -0.03300
O 	O 	0.45720 0.43750 0.82650 -0.20300
H 	H 	0.46260 0.48170 0.83050 0.17600
O 	O 	0.59590 0.43900 0.75110 -0.16900
H 	H 	0.58280 0.48550 0.75610 0.18600
O 	O 	0.12460 0.33410 0.82590 -0.17700
H 	H 	0.12130 0.28870 0.81460 0.17500
O 	O 	0.92860 0.32930 0.74980 -0.15900
H 	H 	0.92440 0.28180 0.73640 0.17900
C 	C 	0.53250 0.40980 0.96030 0.40800
C 	C 	0.56800 0.40190 0.01930 -0.40700
H 	H 	0.63040 0.36940 0.02570 0.16800
H 	H 	0.59540 0.44720 0.03420 0.16400
C 	C 	0.48220 0.37620 0.05140 0.14100
H 	H 	0.45880 0.32900 0.03940 0.00400
H 	H 	0.41730 0.40670 0.04400 0.00800
C 	C 	0.52670 0.37540 0.11170 -0.29400
H 	H 	0.55540 0.42190 0.12280 0.12300
H 	H 	0.58860 0.34260 0.11900 0.13200
C 	C 	0.44330 0.35550 0.14540 0.12800
H 	H 	0.37400 0.38020 0.13200 0.00800
H 	H 	0.42870 0.30530 0.14170 0.01300
C 	C 	0.48310 0.37300 0.20490 -0.37700
H 	H 	0.51180 0.42080 0.20780 0.15000
H 	H 	0.54380 0.34160 0.22000 0.15700
C 	C 	0.39380 0.36680 0.23780 0.38300
C 	C 	0.21730 0.38340 0.61360 0.36800
C 	C 	0.19180 0.45610 0.59280 -0.35200
H 	H 	0.12600 0.47250 0.60580 0.15400
H 	H 	0.25320 0.48660 0.60870 0.15200
C 	C 	0.17190 0.46410 0.53030 0.10200
H 	H 	0.10590 0.43790 0.51380 0.00700
H 	H 	0.23500 0.44520 0.51620 0.00900
C 	C 	0.15710 0.54030 0.51580 -0.27600
H 	H 	0.22340 0.56560 0.53310 0.10600
H 	H 	0.09500 0.55850 0.53110 0.11200
C 	C 	0.13660 0.55520 0.45680 0.12800
H 	H 	0.20150 0.54130 0.44190 0.00900
H 	H 	0.07390 0.52710 0.43880 0.00100
C 	C 	0.11280 0.63050 0.44430 -0.38400
H 	H 	0.17440 0.65900 0.46270 0.14100
H 	H 	0.04630 0.64440 0.45780 0.15700
C 	C 	0.09620 0.64270 0.38480 0.37700
C 	C 	0.52810 0.42910 0.61710 0.38700
C 	C 	0.49270 0.44360 0.55850 -0.39600
H 	H 	0.42400 0.47060 0.55270 0.14900
H 	H 	0.54920 0.47140 0.54550 0.15000
C 	C 	0.47500 0.37730 0.52730 0.14500
H 	H 	0.41380 0.35230 0.53870 0.01700
H 	H 	0.45190 0.38890 0.48860 -0.00700
C 	C 	0.57330 0.32810 0.53280 -0.31700
H 	H 	0.58420 0.30730 0.56920 0.14700
H 	H 	0.63900 0.35610 0.53090 0.12500
C 	C 	0.56780 0.27260 0.49390 0.15900
H 	H 	0.49620 0.24970 0.49230 0.02400
H 	H 	0.56610 0.29440 0.45830 0.00200
C 	C 	0.65230 0.21610 0.49930 -0.40800
H 	H 	0.64540 0.18790 0.53120 0.15800
H 	H 	0.72540 0.23800 0.50680 0.15600
C 	C 	0.64850 0.16870 0.45270 0.40900
O 	O 	0.82310 0.38480 0.91360 -0.05700
O 	O 	0.80510 0.31370 0.97870 0.23300
O 	O 	0.17690 0.62100 0.08970 -0.12200
O 	O 	0.15760 0.66790 0.00930 -0.47600
C 	C 	0.82800 0.37240 0.96170 0.16100
C 	C 	0.88200 0.42330 0.00460 -0.26600
H 	H 	0.96140 0.41430 0.01430 0.15900
H 	H 	0.84980 0.41710 0.03730 0.10300
C 	C 	0.86210 0.49580 0.98420 0.17000
H 	H 	0.83670 0.52490 0.01170 -0.01500
H 	H 	0.80530 0.49620 0.95110 -0.01400
C 	C 	0.96880 0.52470 0.97190 -0.00300
H 	H 	0.98610 0.50250 0.93920 -0.00400
H 	H 	0.96310 0.57520 0.96580 -0.04000
C 	C 	0.05760 0.50870 0.02050 -0.21100
H 	H 	0.03550 0.52580 0.05390 0.12900
H 	H 	0.06920 0.45820 0.02390 0.09100
C 	C 	0.16090 0.54510 0.01330 -0.06800
H 	H 	0.16320 0.54840 0.97440 0.06800
H 	H 	0.22540 0.51860 0.03120 0.04100
C 	C 	0.16100 0.61660 0.03930 0.21300
