data_crystal

_cell_length_a 8.29110
_cell_length_b 9.98840
_cell_length_c 10.82640
_cell_angle_alpha 91.98400
_cell_angle_beta  97.49500
_cell_angle_gamma 114.18900

_symmetry_space_group_name_	'P 1'
_symmetry_space_group_name_H-M	'P 1'

loop_
_symmetry_equiv_pos_as_xyz
  x,y,z

loop_
_atom_site_label
_atom_site_type_symbol
_atom_site_fract_x
_atom_site_fract_y
_atom_site_fract_z
_atom_site_charge
Na	Na	0.45213 0.29919 0.02644 0.55200
B 	B 	0.62381 0.23187 0.83723 2.70000
H 	H 	0.47460 0.18850 0.82170 -0.87500
H 	H 	0.67770 0.24910 0.93980 -0.82900
H 	H 	0.66940 0.15770 0.78590 -0.84200
B 	B 	0.63083 0.49857 0.84548 2.39600
H 	H 	0.48330 0.44920 0.83220 -0.78800
H 	H 	0.67910 0.51650 0.95040 -0.74300
H 	H 	0.68550 0.61070 0.80330 -0.68700
N 	N 	0.69709 0.38870 0.78586 -0.99500
H 	H 	0.65620 0.37110 0.70730 0.17000
C 	C 	0.89379 0.45287 0.79411 0.07000
H 	H 	0.93380 0.54610 0.75560 -0.05000
H 	H 	0.92860 0.38400 0.75000 -0.04900
H 	H 	0.94950 0.47120 0.88220 -0.04800
O 	O 	0.16124 0.11445 0.97867 -0.28300
C 	C 	0.99792 0.13340 0.97039 0.03500
H 	H 	0.93550 0.10860 0.88270 0.01200
H 	H 	0.02570 0.23780 0.99510 -0.00500
C 	C 	0.12152 0.96271 0.94668 0.02300
H 	H 	0.23430 0.94940 0.95520 -0.02300
H 	H 	0.06240 0.93350 0.85840 0.01600
Na	Na	0.40846 0.00875 0.65099 0.54300
O 	O 	0.11458 0.98482 0.60167 -0.29600
C 	C 	0.97776 0.85876 0.52658 0.01800
H 	H 	0.01690 0.77760 0.52370 -0.02700
H 	H 	0.86710 0.82470 0.56470 -0.00500
C 	C 	0.06044 0.10389 0.60369 0.00800
H 	H 	0.95170 0.07550 0.64360 0.00900
H 	H 	0.15660 0.19160 0.65390 -0.00600
Na	Na	0.54787 0.70081 0.97356 0.55100
B 	B 	0.37619 0.76813 0.16277 2.69900
H 	H 	0.52540 0.81150 0.17830 -0.87500
H 	H 	0.32230 0.75090 0.06020 -0.82900
H 	H 	0.33060 0.84230 0.21410 -0.84200
B 	B 	0.36917 0.50143 0.15452 2.39600
H 	H 	0.51670 0.55080 0.16780 -0.78800
H 	H 	0.32090 0.48350 0.04960 -0.74300
H 	H 	0.31450 0.38930 0.19670 -0.68700
N 	N 	0.30291 0.61130 0.21414 -0.99500
H 	H 	0.34380 0.62890 0.29270 0.17000
C 	C 	0.10621 0.54713 0.20589 0.07000
H 	H 	0.06620 0.45390 0.24440 -0.05000
H 	H 	0.07140 0.61600 0.25000 -0.04900
H 	H 	0.05050 0.52880 0.11780 -0.04800
O 	O 	0.83876 0.88555 0.02133 -0.28300
C 	C 	0.00208 0.86660 0.02961 0.03500
H 	H 	0.06450 0.89140 0.11730 0.01200
H 	H 	0.97430 0.76220 0.00490 -0.00500
C 	C 	0.87848 0.03729 0.05332 0.02300
H 	H 	0.76570 0.05060 0.04480 -0.02300
H 	H 	0.93760 0.06650 0.14160 0.01600
Na	Na	0.59154 0.99125 0.34901 0.54300
O 	O 	0.88542 0.01518 0.39833 -0.29600
C 	C 	0.02224 0.14124 0.47342 0.01800
H 	H 	0.98310 0.22240 0.47630 -0.02700
H 	H 	0.13290 0.17530 0.43530 -0.00500
C 	C 	0.93956 0.89611 0.39631 0.00800
H 	H 	0.04830 0.92450 0.35640 0.00900
H 	H 	0.84340 0.80840 0.34610 -0.00600
