data_crystal

_cell_length_a 36.06100
_cell_length_b 18.23300
_cell_length_c 25.14600
_cell_angle_alpha 90.00000
_cell_angle_beta  121.23700
_cell_angle_gamma 90.00000

_symmetry_space_group_name_	'P 1'
_symmetry_space_group_name_H-M	'P 1'

loop_
_symmetry_equiv_pos_as_xyz
  x,y,z

loop_
_atom_site_label
_atom_site_type_symbol
_atom_site_fract_x
_atom_site_fract_y
_atom_site_fract_z
_atom_site_charge
Cd	Cd	0.20928 0.87224 0.30717 1.23700
Cd	Cd	0.31805 0.86042 0.32623 1.20800
Cd	Cd	0.32280 0.92760 0.45771 1.18700
O 	O 	0.21725 0.98830 0.27510 -0.39700
O 	O 	0.28083 0.94740 0.34769 -0.60300
O 	O 	0.20204 0.25320 0.22400 -0.41700
O 	O 	0.25850 0.32180 0.24917 -0.48400
O 	O 	0.62286 0.06660 0.56360 -0.50300
O 	O 	0.61153 0.15530 0.61330 -0.44300
O 	O 	0.28122 0.89020 0.49370 -0.44300
O 	O 	0.22533 0.92460 0.40090 -0.43300
O 	O 	0.25639 0.72700 0.62969 -0.42400
O 	O 	0.18866 0.68710 0.59220 -0.53400
O 	O 	0.86425 0.91330 0.22330 -0.35900
O 	O 	0.85329 0.81530 0.25900 -0.40100
C 	C 	0.27676 0.07110 0.31400 -0.14700
C 	C 	0.25148 0.13050 0.28170 0.05500
H 	H 	0.22150 0.12540 0.25700 0.04100
C 	C 	0.27073 0.19840 0.28610 -0.11600
C 	C 	0.31527 0.20500 0.32170 0.00600
H 	H 	0.32800 0.25000 0.32350 0.04300
C 	C 	0.34149 0.14640 0.35470 -0.05100
C 	C 	0.32172 0.07950 0.34970 -0.00000
H 	H 	0.33890 0.03900 0.37060 0.00000
C 	C 	0.25653 0.99800 0.31120 0.35800
C 	C 	0.24251 0.26260 0.25140 0.35400
C 	C 	0.38931 0.15230 0.39580 0.08600
C 	C 	0.40727 0.20970 0.43910 -0.12400
H 	H 	0.38930 0.24570 0.44000 0.07100
C 	C 	0.45061 0.21280 0.47970 0.00600
H 	H 	0.46190 0.25130 0.50810 0.02700
C 	C 	0.47889 0.16020 0.48020 -0.05500
C 	C 	0.52437 0.16060 0.52370 0.01700
H 	H 	0.53610 0.19640 0.55450 0.03800
C 	C 	0.55082 0.11030 0.52120 -0.13900
C 	C 	0.53380 0.05660 0.47530 0.06200
H 	H 	0.55230 0.02280 0.47320 -0.00000
C 	C 	0.48950 0.05270 0.43250 -0.15600
H 	H 	0.47850 0.01590 0.40260 0.07900
C 	C 	0.46141 0.10480 0.43450 0.10300
C 	C 	0.41611 0.10140 0.39390 -0.16600
H 	H 	0.40430 0.06340 0.36520 0.08100
C 	C 	0.59853 0.11080 0.56900 0.36800
C 	C 	0.21103 0.86210 0.47170 -0.10700
C 	C 	0.22729 0.81780 0.52380 0.04700
H 	H 	0.25710 0.81100 0.54910 0.03800
C 	C 	0.19963 0.78350 0.53860 -0.11700
C 	C 	0.15538 0.79600 0.50220 -0.00200
H 	H 	0.13680 0.77350 0.51250 0.02900
C 	C 	0.13801 0.84250 0.44970 -0.03700
C 	C 	0.16657 0.87320 0.43440 -0.00600
H 	H 	0.15570 0.90160 0.39860 0.04600
C 	C 	0.24052 0.89500 0.45330 0.34000
C 	C 	0.21670 0.72940 0.59200 0.37300
C 	C 	0.09022 0.85510 0.41040 0.07700
C 	C 	0.06120 0.80800 0.40830 -0.15000
H 	H 	0.07120 0.76520 0.43170 0.07600
C 	C 	0.01575 0.82030 0.37180 0.08800
C 	C 	0.98560 0.76700 0.36810 -0.13000
H 	H 	0.99540 0.72240 0.38880 0.07700
C 	C 	0.94200 0.78190 0.33380 0.03500
H 	H 	0.92230 0.74810 0.33290 0.03500
C 	C 	0.92641 0.84900 0.29920 -0.09600
C 	C 	0.95481 0.89530 0.29890 -0.00200
H 	H 	0.94470 0.93700 0.27400 0.04700
C 	C 	0.00025 0.88270 0.33560 -0.03100
C 	C 	0.03070 0.93440 0.33820 -0.01000
H 	H 	0.02100 0.97740 0.31510 0.03400
C 	C 	0.07460 0.92090 0.37520 -0.10200
H 	H 	0.09430 0.95530 0.37700 0.07100
C 	C 	0.87843 0.86140 0.25890 0.34300
Cd	Cd	0.70928 0.37224 0.30717 1.23800
Cd	Cd	0.81805 0.36042 0.32623 1.20900
Cd	Cd	0.82280 0.42760 0.45771 1.18800
O 	O 	0.71725 0.48830 0.27510 -0.39600
O 	O 	0.78083 0.44740 0.34769 -0.60300
O 	O 	0.70204 0.75320 0.22400 -0.41700
O 	O 	0.75850 0.82180 0.24917 -0.48400
O 	O 	0.12286 0.56660 0.56360 -0.50300
O 	O 	0.11153 0.65530 0.61330 -0.44300
O 	O 	0.78122 0.39020 0.49370 -0.44300
O 	O 	0.72533 0.42460 0.40090 -0.43300
O 	O 	0.75639 0.22700 0.62969 -0.42400
O 	O 	0.68866 0.18710 0.59220 -0.53400
O 	O 	0.36425 0.41330 0.22330 -0.35900
O 	O 	0.35329 0.31530 0.25900 -0.40100
C 	C 	0.77676 0.57110 0.31400 -0.14700
C 	C 	0.75148 0.63050 0.28170 0.05500
H 	H 	0.72150 0.62540 0.25700 0.04000
C 	C 	0.77073 0.69840 0.28610 -0.11600
C 	C 	0.81527 0.70500 0.32170 0.00600
H 	H 	0.82800 0.75000 0.32350 0.04300
C 	C 	0.84149 0.64640 0.35470 -0.05100
C 	C 	0.82172 0.57950 0.34970 -0.00000
H 	H 	0.83890 0.53900 0.37060 0.00000
C 	C 	0.75653 0.49800 0.31120 0.35800
C 	C 	0.74251 0.76260 0.25140 0.35400
C 	C 	0.88931 0.65230 0.39580 0.08600
C 	C 	0.90727 0.70970 0.43910 -0.12400
H 	H 	0.88930 0.74570 0.44000 0.07100
C 	C 	0.95061 0.71280 0.47970 0.00600
H 	H 	0.96190 0.75130 0.50810 0.02700
C 	C 	0.97889 0.66020 0.48020 -0.05500
C 	C 	0.02437 0.66060 0.52370 0.01700
H 	H 	0.03610 0.69640 0.55450 0.03800
C 	C 	0.05082 0.61030 0.52120 -0.13900
C 	C 	0.03380 0.55660 0.47530 0.06200
H 	H 	0.05230 0.52280 0.47320 -0.00000
C 	C 	0.98950 0.55270 0.43250 -0.15600
H 	H 	0.97850 0.51590 0.40260 0.07900
C 	C 	0.96141 0.60480 0.43450 0.10300
C 	C 	0.91611 0.60140 0.39390 -0.16600
H 	H 	0.90430 0.56340 0.36520 0.08100
C 	C 	0.09853 0.61080 0.56900 0.36800
C 	C 	0.71103 0.36210 0.47170 -0.10700
C 	C 	0.72729 0.31780 0.52380 0.04700
H 	H 	0.75710 0.31100 0.54910 0.03800
C 	C 	0.69963 0.28350 0.53860 -0.11700
C 	C 	0.65538 0.29600 0.50220 -0.00200
H 	H 	0.63680 0.27350 0.51250 0.02900
C 	C 	0.63801 0.34250 0.44970 -0.03700
C 	C 	0.66657 0.37320 0.43440 -0.00600
H 	H 	0.65570 0.40160 0.39860 0.04600
C 	C 	0.74052 0.39500 0.45330 0.34000
C 	C 	0.71670 0.22940 0.59200 0.37300
C 	C 	0.59022 0.35510 0.41040 0.07700
C 	C 	0.56120 0.30800 0.40830 -0.15000
H 	H 	0.57120 0.26520 0.43170 0.07600
C 	C 	0.51575 0.32030 0.37180 0.08800
C 	C 	0.48560 0.26700 0.36810 -0.13000
H 	H 	0.49540 0.22240 0.38880 0.07700
C 	C 	0.44200 0.28190 0.33380 0.03400
H 	H 	0.42230 0.24810 0.33290 0.03500
C 	C 	0.42641 0.34900 0.29920 -0.09600
C 	C 	0.45481 0.39530 0.29890 -0.00200
H 	H 	0.44470 0.43700 0.27400 0.04700
C 	C 	0.50025 0.38270 0.33560 -0.03100
C 	C 	0.53070 0.43440 0.33820 -0.01000
H 	H 	0.52100 0.47740 0.31510 0.03400
C 	C 	0.57460 0.42090 0.37520 -0.10200
H 	H 	0.59430 0.45530 0.37700 0.07100
C 	C 	0.37843 0.36140 0.25890 0.34300
Cd	Cd	0.79072 0.87224 0.19283 1.23800
Cd	Cd	0.68195 0.86042 0.17377 1.20900
Cd	Cd	0.67720 0.92760 0.04229 1.18800
O 	O 	0.78275 0.98830 0.22490 -0.39600
O 	O 	0.71917 0.94740 0.15231 -0.60300
O 	O 	0.79796 0.25320 0.27600 -0.41700
O 	O 	0.74150 0.32180 0.25083 -0.48400
O 	O 	0.37714 0.06660 0.93640 -0.50400
O 	O 	0.38847 0.15530 0.88670 -0.44300
O 	O 	0.71878 0.89020 0.00630 -0.44400
O 	O 	0.77467 0.92460 0.09910 -0.43300
O 	O 	0.74361 0.72700 0.87031 -0.42400
O 	O 	0.81134 0.68710 0.90780 -0.53400
O 	O 	0.13575 0.91330 0.27670 -0.35900
O 	O 	0.14671 0.81530 0.24100 -0.40100
C 	C 	0.72324 0.07110 0.18600 -0.14600
C 	C 	0.74852 0.13050 0.21830 0.05500
H 	H 	0.77850 0.12540 0.24300 0.04100
C 	C 	0.72927 0.19840 0.21390 -0.11600
C 	C 	0.68473 0.20500 0.17830 0.00600
H 	H 	0.67200 0.25000 0.17650 0.04300
C 	C 	0.65851 0.14640 0.14530 -0.05100
C 	C 	0.67828 0.07950 0.15030 -0.00100
H 	H 	0.66110 0.03900 0.12940 0.00000
C 	C 	0.74347 0.99800 0.18880 0.35700
C 	C 	0.75749 0.26260 0.24860 0.35400
C 	C 	0.61069 0.15230 0.10420 0.08600
C 	C 	0.59273 0.20970 0.06090 -0.12400
H 	H 	0.61070 0.24570 0.06000 0.07200
C 	C 	0.54939 0.21280 0.02030 0.00700
H 	H 	0.53810 0.25130 0.99190 0.02700
C 	C 	0.52111 0.16020 0.01980 -0.05500
C 	C 	0.47563 0.16060 0.97630 0.01700
H 	H 	0.46390 0.19640 0.94550 0.03800
C 	C 	0.44918 0.11030 0.97880 -0.13900
C 	C 	0.46620 0.05660 0.02470 0.06200
H 	H 	0.44770 0.02280 0.02680 -0.00000
C 	C 	0.51050 0.05270 0.06750 -0.15700
H 	H 	0.52150 0.01590 0.09740 0.07900
C 	C 	0.53859 0.10480 0.06550 0.10400
C 	C 	0.58389 0.10140 0.10610 -0.16600
H 	H 	0.59570 0.06340 0.13480 0.08100
C 	C 	0.40147 0.11080 0.93100 0.36800
C 	C 	0.78897 0.86210 0.02830 -0.10800
C 	C 	0.77271 0.81780 0.97620 0.04800
H 	H 	0.74290 0.81100 0.95090 0.03700
C 	C 	0.80037 0.78350 0.96140 -0.11800
C 	C 	0.84462 0.79600 0.99780 -0.00100
H 	H 	0.86320 0.77350 0.98750 0.02900
C 	C 	0.86199 0.84250 0.05030 -0.03800
C 	C 	0.83343 0.87320 0.06560 -0.00500
H 	H 	0.84430 0.90160 0.10140 0.04600
C 	C 	0.75948 0.89500 0.04670 0.34000
C 	C 	0.78330 0.72940 0.90800 0.37300
C 	C 	0.90978 0.85510 0.08960 0.07800
C 	C 	0.93880 0.80800 0.09170 -0.15100
H 	H 	0.92880 0.76520 0.06830 0.07600
C 	C 	0.98425 0.82030 0.12820 0.08800
C 	C 	0.01440 0.76700 0.13190 -0.13000
H 	H 	0.00460 0.72240 0.11120 0.07700
C 	C 	0.05800 0.78190 0.16620 0.03500
H 	H 	0.07770 0.74810 0.16710 0.03500
C 	C 	0.07359 0.84900 0.20080 -0.09600
C 	C 	0.04519 0.89530 0.20110 -0.00200
H 	H 	0.05530 0.93700 0.22600 0.04700
C 	C 	0.99975 0.88270 0.16440 -0.03200
C 	C 	0.96930 0.93440 0.16180 -0.00900
H 	H 	0.97900 0.97740 0.18490 0.03400
C 	C 	0.92540 0.92090 0.12480 -0.10200
H 	H 	0.90570 0.95530 0.12300 0.07100
C 	C 	0.12157 0.86140 0.24110 0.34300
Cd	Cd	0.29072 0.37224 0.19283 1.23800
Cd	Cd	0.18195 0.36042 0.17377 1.20900
Cd	Cd	0.17720 0.42760 0.04229 1.18800
O 	O 	0.28275 0.48830 0.22490 -0.39600
O 	O 	0.21917 0.44740 0.15231 -0.60300
O 	O 	0.29796 0.75320 0.27600 -0.41700
O 	O 	0.24150 0.82180 0.25083 -0.48400
O 	O 	0.87714 0.56660 0.93640 -0.50300
O 	O 	0.88847 0.65530 0.88670 -0.44200
O 	O 	0.21878 0.39020 0.00630 -0.44300
O 	O 	0.27467 0.42460 0.09910 -0.43300
O 	O 	0.24361 0.22700 0.87031 -0.42400
O 	O 	0.31134 0.18710 0.90780 -0.53400
O 	O 	0.63575 0.41330 0.27670 -0.35900
O 	O 	0.64671 0.31530 0.24100 -0.40100
C 	C 	0.22324 0.57110 0.18600 -0.14700
C 	C 	0.24852 0.63050 0.21830 0.05500
H 	H 	0.27850 0.62540 0.24300 0.04000
C 	C 	0.22927 0.69840 0.21390 -0.11600
C 	C 	0.18473 0.70500 0.17830 0.00600
H 	H 	0.17200 0.75000 0.17650 0.04300
C 	C 	0.15851 0.64640 0.14530 -0.05100
C 	C 	0.17828 0.57950 0.15030 -0.00000
H 	H 	0.16110 0.53900 0.12940 0.00000
C 	C 	0.24347 0.49800 0.18880 0.35800
C 	C 	0.25749 0.76260 0.24860 0.35400
C 	C 	0.11069 0.65230 0.10420 0.08600
C 	C 	0.09273 0.70970 0.06090 -0.12400
H 	H 	0.11070 0.74570 0.06000 0.07100
C 	C 	0.04939 0.71280 0.02030 0.00600
H 	H 	0.03810 0.75130 0.99190 0.02800
C 	C 	0.02111 0.66020 0.01980 -0.05500
C 	C 	0.97563 0.66060 0.97630 0.01600
H 	H 	0.96390 0.69640 0.94550 0.03800
C 	C 	0.94918 0.61030 0.97880 -0.13800
C 	C 	0.96620 0.55660 0.02470 0.06000
H 	H 	0.94770 0.52280 0.02680 -0.00000
C 	C 	0.01050 0.55270 0.06750 -0.15600
H 	H 	0.02150 0.51590 0.09740 0.07900
C 	C 	0.03859 0.60480 0.06550 0.10300
C 	C 	0.08389 0.60140 0.10610 -0.16500
H 	H 	0.09570 0.56340 0.13480 0.08000
C 	C 	0.90147 0.61080 0.93100 0.36800
C 	C 	0.28897 0.36210 0.02830 -0.10700
C 	C 	0.27271 0.31780 0.97620 0.04600
H 	H 	0.24290 0.31100 0.95090 0.03800
C 	C 	0.30037 0.28350 0.96140 -0.11700
C 	C 	0.34462 0.29600 0.99780 -0.00200
H 	H 	0.36320 0.27350 0.98750 0.03000
C 	C 	0.36199 0.34250 0.05030 -0.03600
C 	C 	0.33343 0.37320 0.06560 -0.00700
H 	H 	0.34430 0.40160 0.10140 0.04600
C 	C 	0.25948 0.39500 0.04670 0.34000
C 	C 	0.28330 0.22940 0.90800 0.37300
C 	C 	0.40978 0.35510 0.08960 0.07700
C 	C 	0.43880 0.30800 0.09170 -0.15000
H 	H 	0.42880 0.26520 0.06830 0.07600
C 	C 	0.48425 0.32030 0.12820 0.08800
C 	C 	0.51440 0.26700 0.13190 -0.13000
H 	H 	0.50460 0.22240 0.11120 0.07700
C 	C 	0.55800 0.28190 0.16620 0.03400
H 	H 	0.57770 0.24810 0.16710 0.03500
C 	C 	0.57359 0.34900 0.20080 -0.09600
C 	C 	0.54519 0.39530 0.20110 -0.00200
H 	H 	0.55530 0.43700 0.22600 0.04700
C 	C 	0.49975 0.38270 0.16440 -0.03100
C 	C 	0.46930 0.43440 0.16180 -0.01000
H 	H 	0.47900 0.47740 0.18490 0.03400
C 	C 	0.42540 0.42090 0.12480 -0.10200
H 	H 	0.40570 0.45530 0.12300 0.07100
C 	C 	0.62157 0.36140 0.24110 0.34300
Cd	Cd	0.79072 0.12776 0.69283 1.23800
Cd	Cd	0.68195 0.13958 0.67377 1.20900
Cd	Cd	0.67720 0.07240 0.54229 1.18800
O 	O 	0.78275 0.01170 0.72490 -0.39600
O 	O 	0.71917 0.05260 0.65231 -0.60300
O 	O 	0.79796 0.74680 0.77600 -0.41700
O 	O 	0.74150 0.67820 0.75083 -0.48400
O 	O 	0.37714 0.93340 0.43640 -0.50300
O 	O 	0.38847 0.84470 0.38670 -0.44300
O 	O 	0.71878 0.10980 0.50630 -0.44300
O 	O 	0.77467 0.07540 0.59910 -0.43300
O 	O 	0.74361 0.27300 0.37031 -0.42400
O 	O 	0.81134 0.31290 0.40780 -0.53400
O 	O 	0.13575 0.08670 0.77670 -0.35900
O 	O 	0.14671 0.18470 0.74100 -0.40100
C 	C 	0.72324 0.92890 0.68600 -0.14700
C 	C 	0.74852 0.86950 0.71830 0.05500
H 	H 	0.77850 0.87460 0.74300 0.04100
C 	C 	0.72927 0.80160 0.71390 -0.11600
C 	C 	0.68473 0.79500 0.67830 0.00600
H 	H 	0.67200 0.75000 0.67650 0.04300
C 	C 	0.65851 0.85360 0.64530 -0.05100
C 	C 	0.67828 0.92050 0.65030 -0.00000
H 	H 	0.66110 0.96100 0.62940 0.00000
C 	C 	0.74347 0.00200 0.68880 0.35800
C 	C 	0.75749 0.73740 0.74860 0.35400
C 	C 	0.61069 0.84770 0.60420 0.08600
C 	C 	0.59273 0.79030 0.56090 -0.12400
H 	H 	0.61070 0.75430 0.56000 0.07100
C 	C 	0.54939 0.78720 0.52030 0.00600
H 	H 	0.53810 0.74870 0.49190 0.02700
C 	C 	0.52111 0.83980 0.51980 -0.05500
C 	C 	0.47563 0.83940 0.47630 0.01700
H 	H 	0.46390 0.80360 0.44550 0.03800
C 	C 	0.44918 0.88970 0.47880 -0.13900
C 	C 	0.46620 0.94340 0.52470 0.06200
H 	H 	0.44770 0.97720 0.52680 -0.00000
C 	C 	0.51050 0.94730 0.56750 -0.15600
H 	H 	0.52150 0.98410 0.59740 0.07900
C 	C 	0.53859 0.89520 0.56550 0.10300
C 	C 	0.58389 0.89860 0.60610 -0.16600
H 	H 	0.59570 0.93660 0.63480 0.08100
C 	C 	0.40147 0.88920 0.43100 0.36800
C 	C 	0.78897 0.13790 0.52830 -0.10700
C 	C 	0.77271 0.18220 0.47620 0.04700
H 	H 	0.74290 0.18900 0.45090 0.03800
C 	C 	0.80037 0.21650 0.46140 -0.11700
C 	C 	0.84462 0.20400 0.49780 -0.00200
H 	H 	0.86320 0.22650 0.48750 0.02900
C 	C 	0.86199 0.15750 0.55030 -0.03700
C 	C 	0.83343 0.12680 0.56560 -0.00600
H 	H 	0.84430 0.09840 0.60140 0.04600
C 	C 	0.75948 0.10500 0.54670 0.34000
C 	C 	0.78330 0.27060 0.40800 0.37300
C 	C 	0.90978 0.14490 0.58960 0.07700
C 	C 	0.93880 0.19200 0.59170 -0.15000
H 	H 	0.92880 0.23480 0.56830 0.07600
C 	C 	0.98425 0.17970 0.62820 0.08800
C 	C 	0.01440 0.23300 0.63190 -0.13000
H 	H 	0.00460 0.27760 0.61120 0.07700
C 	C 	0.05800 0.21810 0.66620 0.03500
H 	H 	0.07770 0.25190 0.66710 0.03500
C 	C 	0.07359 0.15100 0.70080 -0.09600
C 	C 	0.04519 0.10470 0.70110 -0.00200
H 	H 	0.05530 0.06300 0.72600 0.04700
C 	C 	0.99975 0.11730 0.66440 -0.03100
C 	C 	0.96930 0.06560 0.66180 -0.01000
H 	H 	0.97900 0.02260 0.68490 0.03400
C 	C 	0.92540 0.07910 0.62480 -0.10200
H 	H 	0.90570 0.04470 0.62300 0.07100
C 	C 	0.12157 0.13860 0.74110 0.34300
Cd	Cd	0.29072 0.62776 0.69283 1.23800
Cd	Cd	0.18195 0.63958 0.67377 1.20900
Cd	Cd	0.17720 0.57240 0.54229 1.18800
O 	O 	0.28275 0.51170 0.72490 -0.39600
O 	O 	0.21917 0.55260 0.65231 -0.60300
O 	O 	0.29796 0.24680 0.77600 -0.41700
O 	O 	0.24150 0.17820 0.75083 -0.48400
O 	O 	0.87714 0.43340 0.43640 -0.50300
O 	O 	0.88847 0.34470 0.38670 -0.44300
O 	O 	0.21878 0.60980 0.50630 -0.44300
O 	O 	0.27467 0.57540 0.59910 -0.43300
O 	O 	0.24361 0.77300 0.37031 -0.42400
O 	O 	0.31134 0.81290 0.40780 -0.53400
O 	O 	0.63575 0.58670 0.77670 -0.35900
O 	O 	0.64671 0.68470 0.74100 -0.40100
C 	C 	0.22324 0.42890 0.68600 -0.14700
C 	C 	0.24852 0.36950 0.71830 0.05500
H 	H 	0.27850 0.37460 0.74300 0.04000
C 	C 	0.22927 0.30160 0.71390 -0.11600
C 	C 	0.18473 0.29500 0.67830 0.00600
H 	H 	0.17200 0.25000 0.67650 0.04300
C 	C 	0.15851 0.35360 0.64530 -0.05100
C 	C 	0.17828 0.42050 0.65030 -0.00000
H 	H 	0.16110 0.46100 0.62940 0.00000
C 	C 	0.24347 0.50200 0.68880 0.35800
C 	C 	0.25749 0.23740 0.74860 0.35400
C 	C 	0.11069 0.34770 0.60420 0.08600
C 	C 	0.09273 0.29030 0.56090 -0.12400
H 	H 	0.11070 0.25430 0.56000 0.07100
C 	C 	0.04939 0.28720 0.52030 0.00600
H 	H 	0.03810 0.24870 0.49190 0.02700
C 	C 	0.02111 0.33980 0.51980 -0.05500
C 	C 	0.97563 0.33940 0.47630 0.01700
H 	H 	0.96390 0.30360 0.44550 0.03800
C 	C 	0.94918 0.38970 0.47880 -0.13900
C 	C 	0.96620 0.44340 0.52470 0.06200
H 	H 	0.94770 0.47720 0.52680 -0.00000
C 	C 	0.01050 0.44730 0.56750 -0.15600
H 	H 	0.02150 0.48410 0.59740 0.07900
C 	C 	0.03859 0.39520 0.56550 0.10300
C 	C 	0.08389 0.39860 0.60610 -0.16600
H 	H 	0.09570 0.43660 0.63480 0.08100
C 	C 	0.90147 0.38920 0.43100 0.36800
C 	C 	0.28897 0.63790 0.52830 -0.10700
C 	C 	0.27271 0.68220 0.47620 0.04700
H 	H 	0.24290 0.68900 0.45090 0.03800
C 	C 	0.30037 0.71650 0.46140 -0.11700
C 	C 	0.34462 0.70400 0.49780 -0.00200
H 	H 	0.36320 0.72650 0.48750 0.02900
C 	C 	0.36199 0.65750 0.55030 -0.03700
C 	C 	0.33343 0.62680 0.56560 -0.00600
H 	H 	0.34430 0.59840 0.60140 0.04600
C 	C 	0.25948 0.60500 0.54670 0.34000
C 	C 	0.28330 0.77060 0.40800 0.37300
C 	C 	0.40978 0.64490 0.58960 0.07700
C 	C 	0.43880 0.69200 0.59170 -0.15000
H 	H 	0.42880 0.73480 0.56830 0.07600
C 	C 	0.48425 0.67970 0.62820 0.08800
C 	C 	0.51440 0.73300 0.63190 -0.13000
H 	H 	0.50460 0.77760 0.61120 0.07700
C 	C 	0.55800 0.71810 0.66620 0.03400
H 	H 	0.57770 0.75190 0.66710 0.03500
C 	C 	0.57359 0.65100 0.70080 -0.09600
C 	C 	0.54519 0.60470 0.70110 -0.00200
H 	H 	0.55530 0.56300 0.72600 0.04700
C 	C 	0.49975 0.61730 0.66440 -0.03100
C 	C 	0.46930 0.56560 0.66180 -0.01000
H 	H 	0.47900 0.52260 0.68490 0.03400
C 	C 	0.42540 0.57910 0.62480 -0.10200
H 	H 	0.40570 0.54470 0.62300 0.07100
C 	C 	0.62157 0.63860 0.74110 0.34300
Cd	Cd	0.20928 0.12776 0.80717 1.23800
Cd	Cd	0.31805 0.13958 0.82623 1.20900
Cd	Cd	0.32280 0.07240 0.95771 1.18800
O 	O 	0.21725 0.01170 0.77510 -0.39600
O 	O 	0.28083 0.05260 0.84769 -0.60300
O 	O 	0.20204 0.74680 0.72400 -0.41700
O 	O 	0.25850 0.67820 0.74917 -0.48400
O 	O 	0.62286 0.93340 0.06360 -0.50400
O 	O 	0.61153 0.84470 0.11330 -0.44300
O 	O 	0.28122 0.10980 0.99370 -0.44400
O 	O 	0.22533 0.07540 0.90090 -0.43300
O 	O 	0.25639 0.27300 0.12969 -0.42400
O 	O 	0.18866 0.31290 0.09220 -0.53400
O 	O 	0.86425 0.08670 0.72330 -0.35900
O 	O 	0.85329 0.18470 0.75900 -0.40100
C 	C 	0.27676 0.92890 0.81400 -0.14600
C 	C 	0.25148 0.86950 0.78170 0.05500
H 	H 	0.22150 0.87460 0.75700 0.04100
C 	C 	0.27073 0.80160 0.78610 -0.11600
C 	C 	0.31527 0.79500 0.82170 0.00600
H 	H 	0.32800 0.75000 0.82350 0.04300
C 	C 	0.34149 0.85360 0.85470 -0.05100
C 	C 	0.32172 0.92050 0.84970 -0.00100
H 	H 	0.33890 0.96100 0.87060 0.00000
C 	C 	0.25653 0.00200 0.81120 0.35700
C 	C 	0.24251 0.73740 0.75140 0.35400
C 	C 	0.38931 0.84770 0.89580 0.08600
C 	C 	0.40727 0.79030 0.93910 -0.12400
H 	H 	0.38930 0.75430 0.94000 0.07200
C 	C 	0.45061 0.78720 0.97970 0.00700
H 	H 	0.46190 0.74870 0.00810 0.02700
C 	C 	0.47889 0.83980 0.98020 -0.05500
C 	C 	0.52437 0.83940 0.02370 0.01700
H 	H 	0.53610 0.80360 0.05450 0.03800
C 	C 	0.55082 0.88970 0.02120 -0.13900
C 	C 	0.53380 0.94340 0.97530 0.06200
H 	H 	0.55230 0.97720 0.97320 -0.00000
C 	C 	0.48950 0.94730 0.93250 -0.15700
H 	H 	0.47850 0.98410 0.90260 0.07900
C 	C 	0.46141 0.89520 0.93450 0.10400
C 	C 	0.41611 0.89860 0.89390 -0.16600
H 	H 	0.40430 0.93660 0.86520 0.08100
C 	C 	0.59853 0.88920 0.06900 0.36800
C 	C 	0.21103 0.13790 0.97170 -0.10800
C 	C 	0.22729 0.18220 0.02380 0.04800
H 	H 	0.25710 0.18900 0.04910 0.03700
C 	C 	0.19963 0.21650 0.03860 -0.11800
C 	C 	0.15538 0.20400 0.00220 -0.00100
H 	H 	0.13680 0.22650 0.01250 0.02900
C 	C 	0.13801 0.15750 0.94970 -0.03800
C 	C 	0.16657 0.12680 0.93440 -0.00500
H 	H 	0.15570 0.09840 0.89860 0.04600
C 	C 	0.24052 0.10500 0.95330 0.34000
C 	C 	0.21670 0.27060 0.09200 0.37300
C 	C 	0.09022 0.14490 0.91040 0.07800
C 	C 	0.06120 0.19200 0.90830 -0.15100
H 	H 	0.07120 0.23480 0.93170 0.07600
C 	C 	0.01575 0.17970 0.87180 0.08800
C 	C 	0.98560 0.23300 0.86810 -0.13000
H 	H 	0.99540 0.27760 0.88880 0.07700
C 	C 	0.94200 0.21810 0.83380 0.03500
H 	H 	0.92230 0.25190 0.83290 0.03500
C 	C 	0.92641 0.15100 0.79920 -0.09600
C 	C 	0.95481 0.10470 0.79890 -0.00200
H 	H 	0.94470 0.06300 0.77400 0.04700
C 	C 	0.00025 0.11730 0.83560 -0.03200
C 	C 	0.03070 0.06560 0.83820 -0.00900
H 	H 	0.02100 0.02260 0.81510 0.03400
C 	C 	0.07460 0.07910 0.87520 -0.10200
H 	H 	0.09430 0.04470 0.87700 0.07100
C 	C 	0.87843 0.13860 0.75890 0.34300
Cd	Cd	0.70928 0.62776 0.80717 1.23800
Cd	Cd	0.81805 0.63958 0.82623 1.20900
Cd	Cd	0.82280 0.57240 0.95771 1.18800
O 	O 	0.71725 0.51170 0.77510 -0.39600
O 	O 	0.78083 0.55260 0.84769 -0.60300
O 	O 	0.70204 0.24680 0.72400 -0.41700
O 	O 	0.75850 0.17820 0.74917 -0.48400
O 	O 	0.12286 0.43340 0.06360 -0.50300
O 	O 	0.11153 0.34470 0.11330 -0.44200
O 	O 	0.78122 0.60980 0.99370 -0.44300
O 	O 	0.72533 0.57540 0.90090 -0.43300
O 	O 	0.75639 0.77300 0.12969 -0.42400
O 	O 	0.68866 0.81290 0.09220 -0.53400
O 	O 	0.36425 0.58670 0.72330 -0.35900
O 	O 	0.35329 0.68470 0.75900 -0.40100
C 	C 	0.77676 0.42890 0.81400 -0.14700
C 	C 	0.75148 0.36950 0.78170 0.05500
H 	H 	0.72150 0.37460 0.75700 0.04000
C 	C 	0.77073 0.30160 0.78610 -0.11600
C 	C 	0.81527 0.29500 0.82170 0.00600
H 	H 	0.82800 0.25000 0.82350 0.04300
C 	C 	0.84149 0.35360 0.85470 -0.05100
C 	C 	0.82172 0.42050 0.84970 -0.00000
H 	H 	0.83890 0.46100 0.87060 0.00000
C 	C 	0.75653 0.50200 0.81120 0.35800
C 	C 	0.74251 0.23740 0.75140 0.35400
C 	C 	0.88931 0.34770 0.89580 0.08600
C 	C 	0.90727 0.29030 0.93910 -0.12400
H 	H 	0.88930 0.25430 0.94000 0.07100
C 	C 	0.95061 0.28720 0.97970 0.00600
H 	H 	0.96190 0.24870 0.00810 0.02800
C 	C 	0.97889 0.33980 0.98020 -0.05500
C 	C 	0.02437 0.33940 0.02370 0.01600
H 	H 	0.03610 0.30360 0.05450 0.03800
C 	C 	0.05082 0.38970 0.02120 -0.13800
C 	C 	0.03380 0.44340 0.97530 0.06000
H 	H 	0.05230 0.47720 0.97320 -0.00000
C 	C 	0.98950 0.44730 0.93250 -0.15600
H 	H 	0.97850 0.48410 0.90260 0.07900
C 	C 	0.96141 0.39520 0.93450 0.10300
C 	C 	0.91611 0.39860 0.89390 -0.16500
H 	H 	0.90430 0.43660 0.86520 0.08000
C 	C 	0.09853 0.38920 0.06900 0.36800
C 	C 	0.71103 0.63790 0.97170 -0.10700
C 	C 	0.72729 0.68220 0.02380 0.04600
H 	H 	0.75710 0.68900 0.04910 0.03800
C 	C 	0.69963 0.71650 0.03860 -0.11700
C 	C 	0.65538 0.70400 0.00220 -0.00200
H 	H 	0.63680 0.72650 0.01250 0.03000
C 	C 	0.63801 0.65750 0.94970 -0.03600
C 	C 	0.66657 0.62680 0.93440 -0.00700
H 	H 	0.65570 0.59840 0.89860 0.04600
C 	C 	0.74052 0.60500 0.95330 0.34000
C 	C 	0.71670 0.77060 0.09200 0.37300
C 	C 	0.59022 0.64490 0.91040 0.07700
C 	C 	0.56120 0.69200 0.90830 -0.15000
H 	H 	0.57120 0.73480 0.93170 0.07600
C 	C 	0.51575 0.67970 0.87180 0.08800
C 	C 	0.48560 0.73300 0.86810 -0.13000
H 	H 	0.49540 0.77760 0.88880 0.07700
C 	C 	0.44200 0.71810 0.83380 0.03400
H 	H 	0.42230 0.75190 0.83290 0.03500
C 	C 	0.42641 0.65100 0.79920 -0.09600
C 	C 	0.45481 0.60470 0.79890 -0.00200
H 	H 	0.44470 0.56300 0.77400 0.04700
C 	C 	0.50025 0.61730 0.83560 -0.03100
C 	C 	0.53070 0.56560 0.83820 -0.01000
H 	H 	0.52100 0.52260 0.81510 0.03400
C 	C 	0.57460 0.57910 0.87520 -0.10200
H 	H 	0.59430 0.54470 0.87700 0.07100
C 	C 	0.37843 0.63860 0.75890 0.34300
