data_crystal

_cell_length_a 9.27100
_cell_length_b 19.78100
_cell_length_c 27.04500
_cell_angle_alpha 90.00000
_cell_angle_beta  90.00000
_cell_angle_gamma 90.00000

_symmetry_space_group_name_	'P 1'
_symmetry_space_group_name_H-M	'P 1'

loop_
_symmetry_equiv_pos_as_xyz
  x,y,z

loop_
_atom_site_label
_atom_site_type_symbol
_atom_site_fract_x
_atom_site_fract_y
_atom_site_fract_z
_atom_site_charge
P 	P 	0.02270 0.25325 0.59284 0.38900
P 	P 	0.34430 0.10703 0.47842 0.54000
O 	O 	0.10390 0.21130 0.55483 -0.38600
O 	O 	0.31830 0.18110 0.46694 -0.41200
O 	O 	0.90240 0.21180 0.61622 -0.31800
O 	O 	0.45760 0.08000 0.44440 -0.42800
O 	O 	0.95530 0.31650 0.56860 -0.13000
O 	O 	0.13010 0.27710 0.63350 -0.35400
H 	H 	0.08700 0.30000 0.65400 0.17100
O 	O 	0.37850 0.09600 0.53370 -0.21700
O 	O 	0.19820 0.06560 0.47160 -0.43200
H 	H 	0.17010 0.06920 0.44300 0.21700
P 	P 	0.02270 0.75325 0.09284 0.39300
P 	P 	0.34430 0.60703 0.97842 0.55700
O 	O 	0.10390 0.71130 0.05483 -0.38400
O 	O 	0.31830 0.68110 0.96694 -0.40100
O 	O 	0.90240 0.71180 0.11622 -0.31200
O 	O 	0.45760 0.58000 0.94440 -0.40500
O 	O 	0.95530 0.81650 0.06860 -0.12700
O 	O 	0.13010 0.77710 0.13350 -0.35000
H 	H 	0.08700 0.80000 0.15400 0.17400
O 	O 	0.37850 0.59600 0.03370 -0.20900
O 	O 	0.19820 0.56560 0.97160 -0.39600
H 	H 	0.17010 0.56920 0.94300 0.21600
P 	P 	0.52270 0.25325 0.09284 0.52000
P 	P 	0.84430 0.10703 0.97842 0.55600
O 	O 	0.60390 0.21130 0.05483 -0.38500
O 	O 	0.81830 0.18110 0.96694 -0.38700
O 	O 	0.40240 0.21180 0.11622 -0.40100
O 	O 	0.95760 0.08000 0.94440 -0.38100
O 	O 	0.45530 0.31650 0.06860 -0.23400
O 	O 	0.63010 0.27710 0.13350 -0.36700
H 	H 	0.58700 0.30000 0.15400 0.20500
O 	O 	0.87850 0.09600 0.03370 -0.19300
O 	O 	0.69820 0.06560 0.97160 -0.40100
H 	H 	0.67010 0.06920 0.94300 0.22100
P 	P 	0.52270 0.75325 0.59284 0.52000
P 	P 	0.84430 0.60703 0.47842 0.54100
O 	O 	0.60390 0.71130 0.55483 -0.37000
O 	O 	0.81830 0.68110 0.46694 -0.39100
O 	O 	0.40240 0.71180 0.61622 -0.38900
O 	O 	0.95760 0.58000 0.44440 -0.36200
O 	O 	0.45530 0.81650 0.56860 -0.21800
O 	O 	0.63010 0.77710 0.63350 -0.36100
H 	H 	0.58700 0.80000 0.65400 0.20700
O 	O 	0.87850 0.59600 0.53370 -0.15400
O 	O 	0.69820 0.56560 0.47160 -0.38000
H 	H 	0.67010 0.56920 0.44300 0.22300
P 	P 	0.97730 0.74675 0.59284 0.64700
P 	P 	0.65570 0.89297 0.47842 0.54100
O 	O 	0.89610 0.78870 0.55483 -0.35500
O 	O 	0.68170 0.81890 0.46694 -0.40000
O 	O 	0.09760 0.78820 0.61622 -0.45100
O 	O 	0.54240 0.92000 0.44440 -0.38000
O 	O 	0.04470 0.68350 0.56860 -0.31200
O 	O 	0.86990 0.72290 0.63350 -0.38500
H 	H 	0.91300 0.70000 0.65400 0.23700
O 	O 	0.62150 0.90400 0.53370 -0.15700
O 	O 	0.80180 0.93440 0.47160 -0.33900
H 	H 	0.82990 0.93080 0.44300 0.23300
P 	P 	0.97730 0.24675 0.09284 0.65000
P 	P 	0.65570 0.39297 0.97842 0.55800
O 	O 	0.89610 0.28870 0.05483 -0.37000
O 	O 	0.68170 0.31890 0.96694 -0.39600
O 	O 	0.09760 0.28820 0.11622 -0.46500
O 	O 	0.54240 0.42000 0.94440 -0.41300
O 	O 	0.04470 0.18350 0.06860 -0.32800
O 	O 	0.86990 0.22290 0.13350 -0.39200
H 	H 	0.91300 0.20000 0.15400 0.23600
O 	O 	0.62150 0.40400 0.03370 -0.19900
O 	O 	0.80180 0.43440 0.97160 -0.36300
H 	H 	0.82990 0.43080 0.94300 0.23200
P 	P 	0.47730 0.74675 0.09284 0.52000
P 	P 	0.15570 0.89297 0.97842 0.55600
O 	O 	0.39610 0.78870 0.05483 -0.36900
O 	O 	0.18170 0.81890 0.96694 -0.41000
O 	O 	0.59760 0.78820 0.11622 -0.37500
O 	O 	0.04240 0.92000 0.94440 -0.41000
O 	O 	0.54470 0.68350 0.06860 -0.22000
O 	O 	0.36990 0.72290 0.13350 -0.37400
H 	H 	0.41300 0.70000 0.15400 0.20400
O 	O 	0.12150 0.90400 0.03370 -0.21000
O 	O 	0.30180 0.93440 0.97160 -0.35200
H 	H 	0.32990 0.93080 0.94300 0.22600
P 	P 	0.47730 0.24675 0.59284 0.52000
P 	P 	0.15570 0.39297 0.47842 0.54100
O 	O 	0.39610 0.28870 0.55483 -0.37000
O 	O 	0.18170 0.31890 0.46694 -0.42100
O 	O 	0.59760 0.28820 0.61622 -0.38300
O 	O 	0.04240 0.42000 0.44440 -0.44900
O 	O 	0.54470 0.18350 0.56860 -0.22500
O 	O 	0.36990 0.22290 0.63350 -0.37900
H 	H 	0.41300 0.20000 0.65400 0.20200
O 	O 	0.12150 0.40400 0.53370 -0.22100
O 	O 	0.30180 0.43440 0.47160 -0.39100
H 	H 	0.32990 0.43080 0.44300 0.22700
P 	P 	0.27270 0.99675 0.84284 0.67000
P 	P 	0.59430 0.14297 0.72842 0.54300
O 	O 	0.35390 0.03870 0.80483 -0.46600
O 	O 	0.56830 0.06890 0.71694 -0.43500
O 	O 	0.15240 0.03820 0.86622 -0.50600
O 	O 	0.70760 0.17000 0.69440 -0.40900
O 	O 	0.20530 0.93350 0.81860 -0.23400
O 	O 	0.38010 0.97290 0.88350 -0.34600
H 	H 	0.33700 0.95000 0.90400 0.20900
O 	O 	0.62850 0.15400 0.78370 -0.18900
O 	O 	0.44820 0.18440 0.72160 -0.39500
H 	H 	0.42010 0.18080 0.69300 0.22000
P 	P 	0.27270 0.49675 0.34284 0.52100
P 	P 	0.59430 0.64297 0.22842 0.54200
O 	O 	0.35390 0.53870 0.30483 -0.38000
O 	O 	0.56830 0.56890 0.21694 -0.40400
O 	O 	0.15240 0.53820 0.36622 -0.41700
O 	O 	0.70760 0.67000 0.19440 -0.40000
O 	O 	0.20530 0.43350 0.31860 -0.24200
O 	O 	0.38010 0.47290 0.38350 -0.37000
H 	H 	0.33700 0.45000 0.40400 0.20300
O 	O 	0.62850 0.65400 0.28370 -0.18300
O 	O 	0.44820 0.68440 0.22160 -0.39000
H 	H 	0.42010 0.68080 0.19300 0.22300
P 	P 	0.77270 0.99675 0.34284 0.66500
P 	P 	0.09430 0.14297 0.22842 0.48400
O 	O 	0.85390 0.03870 0.30483 -0.41500
O 	O 	0.06830 0.06890 0.21694 -0.46400
O 	O 	0.65240 0.03820 0.36622 -0.46600
O 	O 	0.20760 0.17000 0.19440 -0.42600
O 	O 	0.70530 0.93350 0.31860 -0.21100
O 	O 	0.88010 0.97290 0.38350 -0.30800
H 	H 	0.83700 0.95000 0.40400 0.20200
O 	O 	0.12850 0.15400 0.28370 -0.21000
O 	O 	0.94820 0.18440 0.22160 -0.31000
H 	H 	0.92010 0.18080 0.19300 0.20700
P 	P 	0.77270 0.49675 0.84284 0.51900
P 	P 	0.09430 0.64297 0.72842 0.48400
O 	O 	0.85390 0.53870 0.80483 -0.33000
O 	O 	0.06830 0.56890 0.71694 -0.43200
O 	O 	0.65240 0.53820 0.86622 -0.37600
O 	O 	0.20760 0.67000 0.69440 -0.41600
O 	O 	0.70530 0.43350 0.81860 -0.21800
O 	O 	0.88010 0.47290 0.88350 -0.32800
H 	H 	0.83700 0.45000 0.90400 0.19800
O 	O 	0.12850 0.65400 0.78370 -0.20200
O 	O 	0.94820 0.68440 0.72160 -0.30500
H 	H 	0.92010 0.68080 0.69300 0.21100
P 	P 	0.22730 0.50325 0.84284 0.52100
P 	P 	0.90570 0.35703 0.72842 0.60000
O 	O 	0.14610 0.46130 0.80483 -0.40000
O 	O 	0.93170 0.43110 0.71694 -0.36800
O 	O 	0.34760 0.46180 0.86622 -0.39300
O 	O 	0.79240 0.33000 0.69440 -0.40700
O 	O 	0.29470 0.56650 0.81860 -0.22400
O 	O 	0.11990 0.52710 0.88350 -0.40800
H 	H 	0.16300 0.55000 0.90400 0.21200
O 	O 	0.87150 0.34600 0.78370 -0.16900
O 	O 	0.05180 0.31560 0.72160 -0.46600
H 	H 	0.07990 0.31920 0.69300 0.23900
P 	P 	0.22730 0.00325 0.34284 0.37200
P 	P 	0.90570 0.85703 0.22842 0.59700
O 	O 	0.14610 0.96130 0.30483 -0.29900
O 	O 	0.93170 0.93110 0.21694 -0.32500
O 	O 	0.34760 0.96180 0.36622 -0.29000
O 	O 	0.79240 0.83000 0.19440 -0.39700
O 	O 	0.29470 0.06650 0.31860 -0.22700
O 	O 	0.11990 0.02710 0.38350 -0.42900
H 	H 	0.16300 0.05000 0.40400 0.20600
O 	O 	0.87150 0.84600 0.28370 -0.16200
O 	O 	0.05180 0.81560 0.22160 -0.45800
H 	H 	0.07990 0.81920 0.19300 0.24200
P 	P 	0.72730 0.50325 0.34284 0.51900
P 	P 	0.40570 0.35703 0.22842 0.54200
O 	O 	0.64610 0.46130 0.30483 -0.36100
O 	O 	0.43170 0.43110 0.21694 -0.41000
O 	O 	0.84760 0.46180 0.36622 -0.34400
O 	O 	0.29240 0.33000 0.19440 -0.42400
O 	O 	0.79470 0.56650 0.31860 -0.20000
O 	O 	0.61990 0.52710 0.38350 -0.36900
H 	H 	0.66300 0.55000 0.40400 0.20700
O 	O 	0.37150 0.34600 0.28370 -0.19200
O 	O 	0.55180 0.31560 0.22160 -0.38200
H 	H 	0.57990 0.31920 0.19300 0.22700
P 	P 	0.72730 0.00325 0.84284 0.37300
P 	P 	0.40570 0.85703 0.72842 0.54000
O 	O 	0.64610 0.96130 0.80483 -0.26200
O 	O 	0.43170 0.93110 0.71694 -0.36300
O 	O 	0.84760 0.96180 0.86622 -0.24200
O 	O 	0.29240 0.83000 0.69440 -0.41200
O 	O 	0.79470 0.06650 0.81860 -0.20200
O 	O 	0.61990 0.02710 0.88350 -0.38900
H 	H 	0.66300 0.05000 0.90400 0.20400
O 	O 	0.37150 0.84600 0.78370 -0.18200
O 	O 	0.55180 0.81560 0.72160 -0.37500
H 	H 	0.57990 0.81920 0.69300 0.23000
Zn	Zn	0.25000 0.25000 0.51073 1.24600
Zn	Zn	0.25000 0.75000 0.01073 1.24000
Zn	Zn	0.75000 0.75000 0.51073 1.25200
Zn	Zn	0.75000 0.25000 0.01073 1.24400
Zn	Zn	0.50000 0.00000 0.76073 1.21500
Zn	Zn	0.50000 0.50000 0.26073 1.24900
Zn	Zn	-0.00000 0.50000 0.76073 1.22000
Zn	Zn	-0.00000 0.00000 0.26073 1.18700
Zn	Zn	0.75000 0.25000 0.65647 1.24900
Zn	Zn	0.75000 0.75000 0.15647 1.25000
Zn	Zn	0.25000 0.25000 0.15647 1.24200
Zn	Zn	0.25000 0.75000 0.65647 1.24400
Zn	Zn	-0.00000 0.00000 0.90647 1.18500
Zn	Zn	-0.00000 0.50000 0.40647 1.21800
Zn	Zn	0.50000 0.50000 0.90647 1.24700
Zn	Zn	0.50000 -0.00000 0.40647 1.21300
