data_crystal

_cell_length_a 19.10800
_cell_length_b 28.70400
_cell_length_c 13.64600
_cell_angle_alpha 90.00000
_cell_angle_beta  99.58200
_cell_angle_gamma 90.00000

_symmetry_space_group_name_	'P 1'
_symmetry_space_group_name_H-M	'P 1'

loop_
_symmetry_equiv_pos_as_xyz
  x,y,z

loop_
_atom_site_label
_atom_site_type_symbol
_atom_site_fract_x
_atom_site_fract_y
_atom_site_fract_z
_atom_site_charge
Zn	Zn	0.19707 0.31411 0.60688 1.16700
O 	O 	0.88510 0.20100 0.79320 -0.24300
O 	O 	0.90590 0.36862 0.16530 -0.25200
O 	O 	0.12940 0.29590 0.45060 -0.40300
O 	O 	0.19170 0.35740 0.48370 -0.46200
O 	O 	0.24150 0.45120 0.20090 -0.52400
O 	O 	0.17290 0.44650 0.05620 -0.54200
O 	O 	0.16190 0.26410 0.68220 -0.50000
O 	O 	0.17960 0.19620 0.60770 -0.30300
O 	O 	0.11090 0.05283 0.79910 -0.45700
O 	O 	0.10170 0.07050 0.95270 -0.35400
N 	N 	0.97950 0.23110 0.89590 -0.24100
N 	N 	0.90150 0.28160 0.98240 -0.21700
N 	N 	0.99080 0.32572 0.10100 -0.24600
C 	C 	0.91160 0.22610 0.85950 0.19300
C 	C 	0.86460 0.25660 0.90890 0.03100
C 	C 	0.79260 0.26400 0.88130 -0.09700
H 	H 	0.76660 0.24780 0.82830 0.06500
C 	C 	0.75980 0.29680 0.93600 0.09600
H 	H 	0.71130 0.30230 0.91930 0.01600
C 	C 	0.79910 0.32090 0.01420 -0.15900
H 	H 	0.77770 0.34170 0.05220 0.06700
C 	C 	0.87110 0.31288 0.03370 0.00300
C 	C 	0.92380 0.33800 0.10720 0.14800
C 	C 	0.04920 0.34670 0.16410 0.03600
C 	C 	0.08830 0.38080 0.12860 -0.03400
H 	H 	0.07400 0.39240 0.06480 0.02700
C 	C 	0.14810 0.39820 0.18580 -0.12300
C 	C 	0.16790 0.38290 0.28140 0.03600
H 	H 	0.20770 0.39550 0.32110 0.04200
C 	C 	0.12880 0.34860 0.31920 -0.08900
C 	C 	0.06950 0.33000 0.26040 -0.04800
H 	H 	0.04350 0.30670 0.28490 0.05100
C 	C 	0.19560 0.43450 0.14510 0.48000
C 	C 	0.15110 0.33240 0.42440 0.34800
C 	C 	0.02990 0.20421 0.85470 0.06800
C 	C 	0.06740 0.22330 0.78730 -0.06200
H 	H 	0.06110 0.25480 0.77200 0.05400
C 	C 	0.11350 0.19820 0.74150 -0.07200
C 	C 	0.12250 0.15080 0.76470 0.00900
H 	H 	0.15180 0.13260 0.73230 0.04300
C 	C 	0.08770 0.13100 0.83570 -0.07700
C 	C 	0.04140 0.15800 0.88190 -0.05800
H 	H 	0.01860 0.14500 0.93040 0.06700
C 	C 	0.15490 0.22070 0.67090 0.35100
C 	C 	0.10140 0.08150 0.86610 0.36900
Zn	Zn	0.69707 0.81411 0.60688 1.17000
O 	O 	0.38510 0.70100 0.79320 -0.25100
O 	O 	0.40590 0.86862 0.16530 -0.25400
O 	O 	0.62940 0.79590 0.45060 -0.39300
O 	O 	0.69170 0.85740 0.48370 -0.44700
O 	O 	0.74150 0.95120 0.20090 -0.48800
O 	O 	0.67290 0.94650 0.05620 -0.50600
O 	O 	0.66190 0.76410 0.68220 -0.49400
O 	O 	0.67960 0.69620 0.60770 -0.29500
O 	O 	0.61090 0.55283 0.79910 -0.43500
O 	O 	0.60170 0.57050 0.95270 -0.34000
N 	N 	0.47950 0.73110 0.89590 -0.26900
N 	N 	0.40150 0.78160 0.98240 -0.22200
N 	N 	0.49080 0.82572 0.10100 -0.27500
C 	C 	0.41160 0.72610 0.85950 0.19200
C 	C 	0.36460 0.75660 0.90890 0.02900
C 	C 	0.29260 0.76400 0.88130 -0.09700
H 	H 	0.26660 0.74780 0.82830 0.06500
C 	C 	0.25980 0.79680 0.93600 0.09700
H 	H 	0.21130 0.80230 0.91930 0.01600
C 	C 	0.29910 0.82090 0.01420 -0.16100
H 	H 	0.27770 0.84170 0.05220 0.07000
C 	C 	0.37110 0.81288 0.03370 0.00200
C 	C 	0.42380 0.83800 0.10720 0.14700
C 	C 	0.54920 0.84670 0.16410 0.08700
C 	C 	0.58830 0.88080 0.12860 -0.06600
H 	H 	0.57400 0.89240 0.06480 0.04900
C 	C 	0.64810 0.89820 0.18580 -0.08900
C 	C 	0.66790 0.88290 0.28140 0.01400
H 	H 	0.70770 0.89550 0.32110 0.05700
C 	C 	0.62880 0.84860 0.31920 -0.06000
C 	C 	0.56950 0.83000 0.26040 -0.07600
H 	H 	0.54350 0.80670 0.28490 0.07200
C 	C 	0.69560 0.93450 0.14510 0.46500
C 	C 	0.65110 0.83240 0.42440 0.33900
C 	C 	0.52990 0.70421 0.85470 0.11400
C 	C 	0.56740 0.72330 0.78730 -0.08700
H 	H 	0.56110 0.75480 0.77200 0.07100
C 	C 	0.61350 0.69820 0.74150 -0.05100
C 	C 	0.62250 0.65080 0.76470 -0.00700
H 	H 	0.65180 0.63260 0.73230 0.05300
C 	C 	0.58770 0.63100 0.83570 -0.05300
C 	C 	0.54140 0.65800 0.88190 -0.08300
H 	H 	0.51860 0.64500 0.93040 0.09000
C 	C 	0.65490 0.72070 0.67090 0.34500
C 	C 	0.60140 0.58150 0.86610 0.35900
Zn	Zn	0.80293 0.31411 0.39312 1.16700
O 	O 	0.11490 0.20100 0.20680 -0.27400
O 	O 	0.09410 0.36862 0.83470 -0.26100
O 	O 	0.87060 0.29590 0.54940 -0.38800
O 	O 	0.80830 0.35740 0.51630 -0.45700
O 	O 	0.75850 0.45120 0.79910 -0.51300
O 	O 	0.82710 0.44650 0.94380 -0.49200
O 	O 	0.83810 0.26410 0.31780 -0.49300
O 	O 	0.82040 0.19620 0.39230 -0.29300
O 	O 	0.88910 0.05283 0.20090 -0.44900
O 	O 	0.89830 0.07050 0.04730 -0.37100
N 	N 	0.02050 0.23110 0.10410 -0.31000
N 	N 	0.09850 0.28160 0.01760 -0.27100
N 	N 	0.00920 0.32572 0.89900 -0.28400
C 	C 	0.08840 0.22610 0.14050 0.19900
C 	C 	0.13540 0.25660 0.09110 -0.02800
C 	C 	0.20740 0.26400 0.11870 -0.00400
H 	H 	0.23340 0.24780 0.17170 0.02700
C 	C 	0.24020 0.29680 0.06400 -0.12400
H 	H 	0.28870 0.30230 0.08070 0.07100
C 	C 	0.20090 0.32090 0.98580 0.03800
H 	H 	0.22230 0.34170 0.94780 0.02500
C 	C 	0.12890 0.31288 0.96630 0.02500
C 	C 	0.07620 0.33800 0.89280 0.16300
C 	C 	0.95080 0.34670 0.83590 0.14000
C 	C 	0.91170 0.38080 0.87140 -0.09300
H 	H 	0.92600 0.39240 0.93520 0.09000
C 	C 	0.85190 0.39820 0.81420 -0.06800
C 	C 	0.83210 0.38290 0.71860 -0.00300
H 	H 	0.79230 0.39550 0.67890 0.05700
C 	C 	0.87120 0.34860 0.68080 -0.04500
C 	C 	0.93050 0.33000 0.73960 -0.10400
H 	H 	0.95650 0.30670 0.71510 0.09100
C 	C 	0.80440 0.43450 0.85490 0.46200
C 	C 	0.84890 0.33240 0.57560 0.33400
C 	C 	0.97010 0.20421 0.14530 0.13400
C 	C 	0.93260 0.22330 0.21270 -0.10300
H 	H 	0.93890 0.25480 0.22800 0.08300
C 	C 	0.88650 0.19820 0.25850 -0.04400
C 	C 	0.87750 0.15080 0.23530 -0.01200
H 	H 	0.84820 0.13260 0.26770 0.05300
C 	C 	0.91230 0.13100 0.16430 -0.06000
C 	C 	0.95860 0.15800 0.11810 -0.09600
H 	H 	0.98140 0.14500 0.06960 0.07700
C 	C 	0.84510 0.22070 0.32910 0.34500
C 	C 	0.89860 0.08150 0.13390 0.36400
Zn	Zn	0.30293 0.81411 0.39312 1.16700
O 	O 	0.61490 0.70100 0.20680 -0.26200
O 	O 	0.59410 0.86862 0.83470 -0.24000
O 	O 	0.37060 0.79590 0.54940 -0.39300
O 	O 	0.30830 0.85740 0.51630 -0.45300
O 	O 	0.25850 0.95120 0.79910 -0.48400
O 	O 	0.32710 0.94650 0.94380 -0.46500
O 	O 	0.33810 0.76410 0.31780 -0.49600
O 	O 	0.32040 0.69620 0.39230 -0.29600
O 	O 	0.38910 0.55283 0.20090 -0.44200
O 	O 	0.39830 0.57050 0.04730 -0.37600
N 	N 	0.52050 0.73110 0.10410 -0.28500
N 	N 	0.59850 0.78160 0.01760 -0.27200
N 	N 	0.50920 0.82572 0.89900 -0.25900
C 	C 	0.58840 0.72610 0.14050 0.19800
C 	C 	0.63540 0.75660 0.09110 -0.02500
C 	C 	0.70740 0.76400 0.11870 -0.00800
H 	H 	0.73340 0.74780 0.17170 0.02900
C 	C 	0.74020 0.79680 0.06400 -0.12000
H 	H 	0.78870 0.80230 0.08070 0.07000
C 	C 	0.70090 0.82090 0.98580 0.03300
H 	H 	0.72230 0.84170 0.94780 0.03100
C 	C 	0.62890 0.81288 0.96630 0.03000
C 	C 	0.57620 0.83800 0.89280 0.16200
C 	C 	0.45080 0.84670 0.83590 0.10300
C 	C 	0.41170 0.88080 0.87140 -0.07500
H 	H 	0.42600 0.89240 0.93520 0.08200
C 	C 	0.35190 0.89820 0.81420 -0.07100
C 	C 	0.33210 0.88290 0.71860 0.00500
H 	H 	0.29230 0.89550 0.67890 0.05800
C 	C 	0.37120 0.84860 0.68080 -0.05400
C 	C 	0.43050 0.83000 0.73960 -0.08500
H 	H 	0.45650 0.80670 0.71510 0.07500
C 	C 	0.30440 0.93450 0.85490 0.45800
C 	C 	0.34890 0.83240 0.57560 0.33800
C 	C 	0.47010 0.70421 0.14530 0.09000
C 	C 	0.43260 0.72330 0.21270 -0.08100
H 	H 	0.43890 0.75480 0.22800 0.06700
C 	C 	0.38650 0.69820 0.25850 -0.06000
C 	C 	0.37750 0.65080 0.23530 0.00000
H 	H 	0.34820 0.63260 0.26770 0.04900
C 	C 	0.41230 0.63100 0.16430 -0.07400
C 	C 	0.45860 0.65800 0.11810 -0.07400
H 	H 	0.48140 0.64500 0.06960 0.05700
C 	C 	0.34510 0.72070 0.32910 0.34900
C 	C 	0.39860 0.58150 0.13390 0.36600
Zn	Zn	0.80293 0.68589 0.39312 1.16700
O 	O 	0.11490 0.79900 0.20680 -0.26700
O 	O 	0.09410 0.63138 0.83470 -0.26200
O 	O 	0.87060 0.70410 0.54940 -0.38700
O 	O 	0.80830 0.64260 0.51630 -0.45700
O 	O 	0.75850 0.54880 0.79910 -0.51300
O 	O 	0.82710 0.55350 0.94380 -0.49200
O 	O 	0.83810 0.73590 0.31780 -0.49200
O 	O 	0.82040 0.80380 0.39230 -0.28800
O 	O 	0.88910 0.94717 0.20090 -0.40200
O 	O 	0.89830 0.92950 0.04730 -0.33500
N 	N 	0.02050 0.76890 0.10410 -0.31000
N 	N 	0.09850 0.71840 0.01760 -0.27100
N 	N 	0.00920 0.67428 0.89900 -0.28400
C 	C 	0.08840 0.77390 0.14050 0.19800
C 	C 	0.13540 0.74340 0.09110 -0.02700
C 	C 	0.20740 0.73600 0.11870 -0.00500
H 	H 	0.23340 0.75220 0.17170 0.02900
C 	C 	0.24020 0.70320 0.06400 -0.12400
H 	H 	0.28870 0.69770 0.08070 0.07100
C 	C 	0.20090 0.67910 0.98580 0.03800
H 	H 	0.22230 0.65830 0.94780 0.02500
C 	C 	0.12890 0.68712 0.96630 0.02500
C 	C 	0.07620 0.66200 0.89280 0.16300
C 	C 	0.95080 0.65330 0.83590 0.14000
C 	C 	0.91170 0.61920 0.87140 -0.09300
H 	H 	0.92600 0.60760 0.93520 0.09000
C 	C 	0.85190 0.60180 0.81420 -0.06800
C 	C 	0.83210 0.61710 0.71860 -0.00300
H 	H 	0.79230 0.60450 0.67890 0.05700
C 	C 	0.87120 0.65140 0.68080 -0.04400
C 	C 	0.93050 0.67000 0.73960 -0.10400
H 	H 	0.95650 0.69330 0.71510 0.09200
C 	C 	0.80440 0.56550 0.85490 0.46100
C 	C 	0.84890 0.66760 0.57560 0.33400
C 	C 	0.97010 0.79579 0.14530 0.13900
C 	C 	0.93260 0.77670 0.21270 -0.10800
H 	H 	0.93890 0.74520 0.22800 0.08400
C 	C 	0.88650 0.80180 0.25850 -0.03700
C 	C 	0.87750 0.84920 0.23530 -0.01900
H 	H 	0.84820 0.86740 0.26770 0.06100
C 	C 	0.91230 0.86900 0.16430 -0.04400
C 	C 	0.95860 0.84200 0.11810 -0.10100
H 	H 	0.98140 0.85500 0.06960 0.08300
C 	C 	0.84510 0.77930 0.32910 0.34200
C 	C 	0.89860 0.91850 0.13390 0.35200
Zn	Zn	0.30293 0.18589 0.39312 1.16400
O 	O 	0.61490 0.29900 0.20680 -0.26200
O 	O 	0.59410 0.13138 0.83470 -0.25800
O 	O 	0.37060 0.20410 0.54940 -0.39700
O 	O 	0.30830 0.14260 0.51630 -0.47000
O 	O 	0.25850 0.04880 0.79910 -0.53200
O 	O 	0.32710 0.05350 0.94380 -0.51100
O 	O 	0.33810 0.23590 0.31780 -0.49900
O 	O 	0.32040 0.30380 0.39230 -0.29600
O 	O 	0.38910 0.44717 0.20090 -0.44200
O 	O 	0.39830 0.42950 0.04730 -0.37600
N 	N 	0.52050 0.26890 0.10410 -0.28500
N 	N 	0.59850 0.21840 0.01760 -0.27000
N 	N 	0.50920 0.17428 0.89900 -0.25900
C 	C 	0.58840 0.27390 0.14050 0.19900
C 	C 	0.63540 0.24340 0.09110 -0.02600
C 	C 	0.70740 0.23600 0.11870 -0.00600
H 	H 	0.73340 0.25220 0.17170 0.02900
C 	C 	0.74020 0.20320 0.06400 -0.12200
H 	H 	0.78870 0.19770 0.08070 0.07100
C 	C 	0.70090 0.17910 0.98580 0.03700
H 	H 	0.72230 0.15830 0.94780 0.02500
C 	C 	0.62890 0.18712 0.96630 0.02700
C 	C 	0.57620 0.16200 0.89280 0.16400
C 	C 	0.45080 0.15330 0.83590 0.09100
C 	C 	0.41170 0.11920 0.87140 -0.06500
H 	H 	0.42600 0.10760 0.93520 0.06900
C 	C 	0.35190 0.10180 0.81420 -0.09600
C 	C 	0.33210 0.11710 0.71860 0.01700
H 	H 	0.29230 0.10450 0.67890 0.04300
C 	C 	0.37120 0.15140 0.68080 -0.07000
C 	C 	0.43050 0.17000 0.73960 -0.07700
H 	H 	0.45650 0.19330 0.71510 0.07100
C 	C 	0.30440 0.06550 0.85490 0.47100
C 	C 	0.34890 0.16760 0.57560 0.34200
C 	C 	0.47010 0.29579 0.14530 0.09000
C 	C 	0.43260 0.27670 0.21270 -0.08000
H 	H 	0.43890 0.24520 0.22800 0.06600
C 	C 	0.38650 0.30180 0.25850 -0.06100
C 	C 	0.37750 0.34920 0.23530 0.00100
H 	H 	0.34820 0.36740 0.26770 0.04900
C 	C 	0.41230 0.36900 0.16430 -0.07500
C 	C 	0.45860 0.34200 0.11810 -0.07300
H 	H 	0.48140 0.35500 0.06960 0.05700
C 	C 	0.34510 0.27930 0.32910 0.34900
C 	C 	0.39860 0.41850 0.13390 0.36600
Zn	Zn	0.19707 0.68589 0.60688 1.16600
O 	O 	0.88510 0.79900 0.79320 -0.23700
O 	O 	0.90590 0.63138 0.16530 -0.25300
O 	O 	0.12940 0.70410 0.45060 -0.40300
O 	O 	0.19170 0.64260 0.48370 -0.46300
O 	O 	0.24150 0.54880 0.20090 -0.52400
O 	O 	0.17290 0.55350 0.05620 -0.54200
O 	O 	0.16190 0.73590 0.68220 -0.49900
O 	O 	0.17960 0.80380 0.60770 -0.29700
O 	O 	0.11090 0.94717 0.79910 -0.40900
O 	O 	0.10170 0.92950 0.95270 -0.31800
N 	N 	0.97950 0.76890 0.89590 -0.24100
N 	N 	0.90150 0.71840 0.98240 -0.21700
N 	N 	0.99080 0.67428 0.10100 -0.24600
C 	C 	0.91160 0.77390 0.85950 0.19200
C 	C 	0.86460 0.74340 0.90890 0.03300
C 	C 	0.79260 0.73600 0.88130 -0.09800
H 	H 	0.76660 0.75220 0.82830 0.06700
C 	C 	0.75980 0.70320 0.93600 0.09700
H 	H 	0.71130 0.69770 0.91930 0.01600
C 	C 	0.79910 0.67910 0.01420 -0.16100
H 	H 	0.77770 0.65830 0.05220 0.06800
C 	C 	0.87110 0.68712 0.03370 0.00300
C 	C 	0.92380 0.66200 0.10720 0.14800
C 	C 	0.04920 0.65330 0.16410 0.03600
C 	C 	0.08830 0.61920 0.12860 -0.03400
H 	H 	0.07400 0.60760 0.06480 0.02600
C 	C 	0.14810 0.60180 0.18580 -0.12200
C 	C 	0.16790 0.61710 0.28140 0.03600
H 	H 	0.20770 0.60450 0.32110 0.04200
C 	C 	0.12880 0.65140 0.31920 -0.08800
C 	C 	0.06950 0.67000 0.26040 -0.04800
H 	H 	0.04350 0.69330 0.28490 0.05100
C 	C 	0.19560 0.56550 0.14510 0.48000
C 	C 	0.15110 0.66760 0.42440 0.34700
C 	C 	0.02990 0.79579 0.85470 0.07200
C 	C 	0.06740 0.77670 0.78730 -0.06500
H 	H 	0.06110 0.74520 0.77200 0.05500
C 	C 	0.11350 0.80180 0.74150 -0.06600
C 	C 	0.12250 0.84920 0.76470 0.00200
H 	H 	0.15180 0.86740 0.73230 0.05100
C 	C 	0.08770 0.86900 0.83570 -0.06200
C 	C 	0.04140 0.84200 0.88190 -0.06300
H 	H 	0.01860 0.85500 0.93040 0.07400
C 	C 	0.15490 0.77930 0.67090 0.34900
C 	C 	0.10140 0.91850 0.86610 0.35700
Zn	Zn	0.69707 0.18589 0.60688 1.16600
O 	O 	0.38510 0.29900 0.79320 -0.25100
O 	O 	0.40590 0.13138 0.16530 -0.27100
O 	O 	0.62940 0.20410 0.45060 -0.39700
O 	O 	0.69170 0.14260 0.48370 -0.46400
O 	O 	0.74150 0.04880 0.20090 -0.53700
O 	O 	0.67290 0.05350 0.05620 -0.55100
O 	O 	0.66190 0.23590 0.68220 -0.49600
O 	O 	0.67960 0.30380 0.60770 -0.29600
O 	O 	0.61090 0.44717 0.79910 -0.43500
O 	O 	0.60170 0.42950 0.95270 -0.34000
N 	N 	0.47950 0.26890 0.89590 -0.26900
N 	N 	0.40150 0.21840 0.98240 -0.22100
N 	N 	0.49080 0.17428 0.10100 -0.27500
C 	C 	0.41160 0.27390 0.85950 0.19200
C 	C 	0.36460 0.24340 0.90890 0.02900
C 	C 	0.29260 0.23600 0.88130 -0.09500
H 	H 	0.26660 0.25220 0.82830 0.06400
C 	C 	0.25980 0.20320 0.93600 0.09400
H 	H 	0.21130 0.19770 0.91930 0.01700
C 	C 	0.29910 0.17910 0.01420 -0.15600
H 	H 	0.27770 0.15830 0.05220 0.06400
C 	C 	0.37110 0.18712 0.03370 -0.00200
C 	C 	0.42380 0.16200 0.10720 0.14900
C 	C 	0.54920 0.15330 0.16410 0.07500
C 	C 	0.58830 0.11920 0.12860 -0.05600
H 	H 	0.57400 0.10760 0.06480 0.03700
C 	C 	0.64810 0.10180 0.18580 -0.11400
C 	C 	0.66790 0.11710 0.28140 0.02500
H 	H 	0.70770 0.10450 0.32110 0.04200
C 	C 	0.62880 0.15140 0.31920 -0.07600
C 	C 	0.56950 0.17000 0.26040 -0.06900
H 	H 	0.54350 0.19330 0.28490 0.06800
C 	C 	0.69560 0.06550 0.14510 0.47700
C 	C 	0.65110 0.16760 0.42440 0.34300
C 	C 	0.52990 0.29579 0.85470 0.11400
C 	C 	0.56740 0.27670 0.78730 -0.08700
H 	H 	0.56110 0.24520 0.77200 0.07000
C 	C 	0.61350 0.30180 0.74150 -0.05200
C 	C 	0.62250 0.34920 0.76470 -0.00600
H 	H 	0.65180 0.36740 0.73230 0.05200
C 	C 	0.58770 0.36900 0.83570 -0.05300
C 	C 	0.54140 0.34200 0.88190 -0.08300
H 	H 	0.51860 0.35500 0.93040 0.09000
C 	C 	0.65490 0.27930 0.67090 0.34600
C 	C 	0.60140 0.41850 0.86610 0.35900
Zn	Zn	0.31612 0.50000 0.19872 1.23100
Zn	Zn	0.19214 0.50000 0.96917 1.19000
O 	O 	0.30150 0.50000 0.02870 -0.53600
Zn	Zn	0.81612 0.00000 0.19872 1.21400
Zn	Zn	0.69214 0.00000 0.96917 1.17600
O 	O 	0.80150 0.00000 0.02870 -0.56300
Zn	Zn	0.68388 0.50000 0.80128 1.23100
Zn	Zn	0.80786 0.50000 0.03083 1.15000
O 	O 	0.69850 0.50000 0.97130 -0.50200
Zn	Zn	0.18388 0.00000 0.80128 1.21300
Zn	Zn	0.30786 0.00000 0.03083 1.13200
O 	O 	0.19850 -0.00000 0.97130 -0.53400
Co	Co	0.00000 0.27867 -0.00000 1.13300
Co	Co	0.50000 0.77867 -0.00000 1.14800
Co	Co	-0.00000 0.72133 -0.00000 1.13300
Co	Co	0.50000 0.22133 -0.00000 1.14900
Na	Na	0.09660 0.00000 0.98520 0.60200
Na	Na	0.59660 0.50000 0.98520 0.60800
Na	Na	0.90340 -0.00000 0.01480 0.59900
Na	Na	0.40340 0.50000 0.01480 0.60100
O 	O 	-0.00000 0.00000 -0.00000 -0.42100
O 	O 	0.50000 0.50000 -0.00000 -0.37100
