data_crystal

_cell_length_a 16.28000
_cell_length_b 18.43000
_cell_length_c 23.55000
_cell_angle_alpha 89.06100
_cell_angle_beta  89.68800
_cell_angle_gamma 77.70600

_symmetry_space_group_name_	'P 1'
_symmetry_space_group_name_H-M	'P 1'

loop_
_symmetry_equiv_pos_as_xyz
  x,y,z

loop_
_atom_site_label
_atom_site_type_symbol
_atom_site_fract_x
_atom_site_fract_y
_atom_site_fract_z
_atom_site_charge
Co	Co	0.75710 0.61740 0.66672 1.17400
Co	Co	0.77730 0.10698 0.15561 1.17200
Mn	Mn	0.76220 0.21368 0.48766 1.22200
Mn	Mn	0.62149 0.98886 0.84895 1.24300
Mn	Mn	0.76244 0.81815 0.85318 1.30600
Mn	Mn	0.63677 0.49720 0.02566 1.25800
Mn	Mn	0.83853 0.55527 0.99513 1.18200
O 	O 	0.77370 0.70958 0.81836 -0.38100
O 	O 	0.53480 0.58700 0.60770 -0.15800
O 	O 	0.75140 0.31910 0.54350 -0.38100
O 	O 	0.73890 0.33550 0.44870 -0.33000
O 	O 	0.82410 0.58840 0.38410 -0.38500
O 	O 	0.75170 0.67950 0.42610 -0.42100
O 	O 	0.14030 0.73550 0.67495 -0.20800
O 	O 	0.15660 0.51820 0.81036 -0.28200
O 	O 	0.03700 0.49320 0.84328 -0.26600
O 	O 	0.89370 0.41280 0.70167 -0.21700
O 	O 	0.36630 0.37610 0.75731 -0.41800
O 	O 	0.83120 0.74900 0.54780 -0.20200
O 	O 	0.46980 0.96410 0.56794 -0.20500
O 	O 	0.51080 0.86720 0.51380 -0.23500
O 	O 	0.59670 0.97400 0.75755 -0.42800
O 	O 	0.70380 0.88410 0.78275 -0.50400
O 	O 	0.50830 0.39080 0.80295 -0.29200
O 	O 	0.69390 0.47030 0.94478 -0.46400
O 	O 	0.79140 0.53080 0.91576 -0.50200
O 	O 	0.71530 0.30065 0.23817 -0.18300
O 	O 	0.64390 0.94815 0.18116 -0.22300
O 	O 	0.93040 0.76640 0.13092 -0.22700
O 	O 	0.93520 0.73600 0.03960 -0.26700
O 	O 	0.75710 0.91830 0.89974 -0.50500
O 	O 	0.65440 0.99980 0.93726 -0.43300
O 	O 	0.74873 0.42952 0.06226 -0.49100
O 	O 	0.87463 0.44682 0.03468 -0.49500
O 	O 	0.12500 0.24160 0.09929 -0.38800
O 	O 	0.10556 0.17821 0.17660 -0.35500
O 	O 	0.99840 0.98004 0.20767 -0.19800
O 	O 	0.75170 0.18830 0.99465 -0.20100
O 	O 	0.57370 0.41087 0.01156 -0.48500
O 	O 	0.43970 0.40550 0.00943 -0.51800
O 	O 	0.34660 0.19580 0.10268 -0.46800
O 	O 	0.44320 0.09460 0.12837 -0.46700
O 	O 	0.77670 0.83500 0.37970 -0.36300
O 	O 	0.85000 0.80540 0.30210 -0.40500
O 	O 	0.76390 0.09510 0.45383 -0.38200
O 	O 	0.78570 0.18130 0.39370 -0.34600
N 	N 	0.80800 0.65730 0.73073 -0.28600
N 	N 	0.66050 0.64810 0.70981 -0.25700
N 	N 	0.67700 0.58670 0.61612 -0.27500
N 	N 	0.78790 0.51810 0.70117 -0.27300
N 	N 	0.85460 0.58250 0.62536 -0.25100
N 	N 	0.75880 0.70630 0.62204 -0.27500
N 	N 	0.78980 0.20320 0.18472 -0.27000
N 	N 	0.69090 0.12170 0.20898 -0.25700
N 	N 	0.73450 0.01730 0.14257 -0.27600
N 	N 	0.86240 0.05040 0.20718 -0.27300
N 	N 	0.86870 0.08910 0.10613 -0.25600
N 	N 	0.72220 0.15920 0.08820 -0.26700
C 	C 	0.75610 0.68160 0.77320 0.19900
C 	C 	0.66830 0.67400 0.76170 0.01000
C 	C 	0.60100 0.68750 0.79850 -0.08800
H 	H 	0.60640 0.70540 0.83470 0.06700
C 	C 	0.52480 0.67360 0.78030 0.03900
H 	H 	0.47860 0.68230 0.80460 0.02900
C 	C 	0.51700 0.64660 0.72570 -0.11200
H 	H 	0.46620 0.63730 0.71310 0.14600
C 	C 	0.58780 0.63410 0.69120 0.05800
C 	C 	0.59670 0.60010 0.63420 0.14800
C 	C 	0.69760 0.55250 0.56310 0.14400
C 	C 	0.70910 0.47680 0.55690 -0.12700
H 	H 	0.70280 0.44720 0.58830 0.09800
C 	C 	0.72990 0.44390 0.50480 0.02000
C 	C 	0.74300 0.48870 0.45850 -0.04100
H 	H 	0.75730 0.46760 0.42320 0.08500
C 	C 	0.73460 0.56400 0.46520 0.02700
C 	C 	0.71100 0.59550 0.51670 -0.12800
H 	H 	0.70380 0.64660 0.52050 0.10100
C 	C 	0.74180 0.36140 0.49830 0.23600
C 	C 	0.75960 0.61590 0.42060 0.33100
C 	C 	0.89570 0.65420 0.73610 0.12400
C 	C 	0.93460 0.69830 0.70260 -0.12100
H 	H 	0.90350 0.73360 0.67810 0.09500
C 	C 	0.02320 0.68920 0.70610 -0.00700
C 	C 	0.07030 0.63710 0.74180 -0.04600
H 	H 	0.12840 0.63150 0.74340 0.07300
C 	C 	0.02950 0.59280 0.77580 -0.01300
C 	C 	0.94270 0.60220 0.77356 -0.11300
H 	H 	0.91560 0.57360 0.79720 0.08600
C 	C 	0.07770 0.53070 0.81330 0.27700
C 	C 	0.06420 0.73440 0.66570 0.30900
C 	C 	0.85940 0.47650 0.68440 0.17100
C 	C 	0.90000 0.51430 0.63790 0.01100
C 	C 	0.97560 0.48820 0.61060 -0.05200
H 	H 	0.00760 0.44120 0.61890 0.03900
C 	C 	0.00240 0.53380 0.57060 -0.01500
H 	H 	0.05390 0.51770 0.55260 0.04500
C 	C 	0.95290 0.60420 0.55660 -0.05900
H 	H 	0.96930 0.63400 0.52830 0.05800
C 	C 	0.87860 0.62720 0.58650 0.02200
C 	C 	0.82000 0.70100 0.58260 0.16500
C 	C 	0.70200 0.77670 0.62900 0.10800
C 	C 	0.64090 0.80540 0.58920 -0.09700
H 	H 	0.63610 0.77920 0.55640 0.09300
C 	C 	0.58640 0.87370 0.59860 -0.02400
C 	C 	0.59090 0.91100 0.64830 -0.01700
H 	H 	0.55440 0.95650 0.65400 0.06300
C 	C 	0.64970 0.88150 0.69030 -0.06100
C 	C 	0.70730 0.81500 0.67900 -0.08600
H 	H 	0.74950 0.79630 0.70510 0.06500
C 	C 	0.51980 0.90130 0.55520 0.28600
C 	C 	0.65060 0.91540 0.74610 0.34900
C 	C 	0.74090 0.49340 0.74630 0.10200
C 	C 	0.66990 0.46660 0.73460 -0.08100
H 	H 	0.65530 0.45960 0.69730 0.08700
C 	C 	0.62020 0.45000 0.77970 -0.03800
C 	C 	0.64180 0.45870 0.83470 0.00200
H 	H 	0.60810 0.44770 0.86420 0.04700
C 	C 	0.71410 0.48370 0.84640 -0.06600
C 	C 	0.76280 0.50240 0.80242 -0.07100
H 	H 	0.81020 0.52100 0.81040 0.07400
C 	C 	0.54050 0.42430 0.76710 0.36600
C 	C 	0.73550 0.49580 0.90730 0.39000
C 	C 	0.73040 0.23600 0.22000 0.16200
C 	C 	0.67850 0.18240 0.24005 0.04000
C 	C 	0.62400 0.19030 0.28680 -0.08800
H 	H 	0.61420 0.23290 0.30860 0.08600
C 	C 	0.58550 0.13240 0.29920 0.02400
H 	H 	0.55060 0.13530 0.33090 0.03500
C 	C 	0.59700 0.07000 0.26590 -0.08200
H 	H 	0.56910 0.03190 0.27390 0.07900
C 	C 	0.65180 0.06580 0.21980 0.02800
C 	C 	0.67760 0.00360 0.17920 0.16000
C 	C 	0.76210 0.96520 0.09830 0.11100
C 	C 	0.82030 0.90000 0.10950 -0.10500
H 	H 	0.84110 0.88930 0.14610 0.08900
C 	C 	0.84750 0.85070 0.06600 -0.02400
C 	C 	0.81670 0.86750 0.01070 -0.02900
H 	H 	0.83570 0.83510 0.98130 0.05000
C 	C 	0.75800 0.93250 0.00020 -0.05200
C 	C 	0.73070 0.98100 0.04420 -0.09300
H 	H 	0.69080 0.02450 0.03720 0.07900
C 	C 	0.91070 0.77920 0.07870 0.27200
C 	C 	0.72170 0.95080 0.94250 0.33900
C 	C 	0.84420 0.24410 0.15809 0.10900
C 	C 	0.93010 0.21920 0.16357 -0.10400
H 	H 	0.95160 0.18040 0.18860 0.09000
C 	C 	0.98470 0.25280 0.13125 -0.02600
C 	C 	0.95330 0.31320 0.09565 0.00000
H 	H 	0.98940 0.33460 0.07350 0.04000
C 	C 	0.86640 0.34120 0.09375 -0.06300
C 	C 	0.81290 0.30560 0.12399 -0.07600
H 	H 	0.75510 0.32330 0.12140 0.07600
C 	C 	0.07710 0.22190 0.13602 0.28600
C 	C 	0.82740 0.41120 0.06080 0.39400
C 	C 	0.93770 0.02250 0.18420 0.15900
C 	C 	0.94220 0.05000 0.12500 0.03100
C 	C 	0.01370 0.04040 0.09000 -0.08000
H 	H 	0.06500 0.01220 0.10230 0.07400
C 	C 	0.00570 0.07370 0.03750 0.01600
H 	H 	0.05260 0.06880 0.01400 0.03600
C 	C 	0.92940 0.11460 0.01850 -0.08100
H 	H 	0.92430 0.13740 0.98280 0.08000
C 	C 	0.86030 0.12070 0.05450 0.03500
C 	C 	0.77210 0.16110 0.04297 0.15400
C 	C 	0.63670 0.19780 0.08274 0.07900
C 	C 	0.61640 0.26990 0.06036 -0.04300
H 	H 	0.65910 0.29480 0.05200 0.06800
C 	C 	0.53360 0.30470 0.05038 -0.11300
C 	C 	0.46960 0.26840 0.06490 0.03700
H 	H 	0.41380 0.29150 0.05820 0.02000
C 	C 	0.48900 0.19750 0.08940 -0.09100
C 	C 	0.57190 0.16200 0.09700 -0.06300
H 	H 	0.58470 0.11390 0.11180 0.06100
C 	C 	0.51410 0.38080 0.02199 0.43700
C 	C 	0.42070 0.15940 0.10760 0.38200
C 	C 	0.84550 0.02760 0.26266 0.13500
C 	C 	0.84090 0.95360 0.27380 -0.11400
H 	H 	0.85370 0.91860 0.24530 0.09800
C 	C 	0.81760 0.93250 0.32720 -0.00600
C 	C 	0.79760 0.98500 0.36870 -0.05200
H 	H 	0.78030 0.97090 0.40420 0.08500
C 	C 	0.80250 0.05880 0.35910 0.00400
C 	C 	0.82690 0.07880 0.30560 -0.13000
H 	H 	0.83090 0.12770 0.29840 0.11000
C 	C 	0.81460 0.85360 0.33690 0.27100
C 	C 	0.78270 0.11480 0.40400 0.26200
O 	O 	0.54180 0.39510 0.71440 -0.37000
O 	O 	0.03250 0.75190 0.61630 -0.16400
Mn	Mn	0.42215 0.41155 0.67265 1.92500
Mn	Mn	0.81889 0.71154 0.35376 1.23200
O 	O 	0.38840 0.41680 0.64370 -1.70800
O 	O 	0.30170 0.41430 0.63760 0.01300
O 	O 	0.48140 0.47840 0.73050 -0.23400
O 	O 	0.01790 0.79540 0.64720 -0.14100
Mn	Mn	0.35168 0.48869 0.70909 1.77200
O 	O 	0.38200 0.52400 0.70270 -1.43700
Co	Co	0.24290 0.38260 0.33328 1.17400
Co	Co	0.22270 0.89302 0.84439 1.17200
Mn	Mn	0.23780 0.78632 0.51234 1.22200
Mn	Mn	0.37851 0.01114 0.15105 1.24300
Mn	Mn	0.23756 0.18185 0.14682 1.30600
Mn	Mn	0.36323 0.50280 0.97434 1.25800
Mn	Mn	0.16147 0.44473 0.00487 1.18200
O 	O 	0.22630 0.29042 0.18164 -0.38100
O 	O 	0.46520 0.41300 0.39230 -0.15800
O 	O 	0.24860 0.68090 0.45650 -0.38100
O 	O 	0.26110 0.66450 0.55130 -0.33000
O 	O 	0.17590 0.41160 0.61590 -0.38500
O 	O 	0.24830 0.32050 0.57390 -0.42100
O 	O 	0.85970 0.26450 0.32505 -0.20800
O 	O 	0.84340 0.48180 0.18964 -0.28200
O 	O 	0.96300 0.50680 0.15672 -0.26600
O 	O 	0.10630 0.58720 0.29833 -0.21700
O 	O 	0.63370 0.62390 0.24269 -0.41800
O 	O 	0.16880 0.25100 0.45220 -0.20200
O 	O 	0.53020 0.03590 0.43206 -0.20500
O 	O 	0.48920 0.13280 0.48620 -0.23500
O 	O 	0.40330 0.02600 0.24245 -0.42800
O 	O 	0.29620 0.11590 0.21725 -0.50400
O 	O 	0.49170 0.60920 0.19705 -0.29200
O 	O 	0.30610 0.52970 0.05522 -0.46400
O 	O 	0.20860 0.46920 0.08424 -0.50200
O 	O 	0.28470 0.69935 0.76183 -0.18300
O 	O 	0.35610 0.05185 0.81884 -0.22300
O 	O 	0.06960 0.23360 0.86908 -0.22700
O 	O 	0.06480 0.26400 0.96040 -0.26700
O 	O 	0.24290 0.08170 0.10026 -0.50500
O 	O 	0.34560 0.00020 0.06274 -0.43300
O 	O 	0.25127 0.57048 0.93774 -0.49100
O 	O 	0.12537 0.55318 0.96532 -0.49500
O 	O 	0.87500 0.75840 0.90071 -0.38800
O 	O 	0.89444 0.82179 0.82340 -0.35500
O 	O 	0.00160 0.01996 0.79233 -0.19800
O 	O 	0.24830 0.81170 0.00535 -0.20100
O 	O 	0.42630 0.58913 0.98844 -0.48500
O 	O 	0.56030 0.59450 0.99057 -0.51800
O 	O 	0.65340 0.80420 0.89732 -0.46800
O 	O 	0.55680 0.90540 0.87163 -0.46700
O 	O 	0.22330 0.16500 0.62030 -0.36300
O 	O 	0.15000 0.19460 0.69790 -0.40500
O 	O 	0.23610 0.90490 0.54617 -0.38200
O 	O 	0.21430 0.81870 0.60630 -0.34600
N 	N 	0.19200 0.34270 0.26927 -0.28600
N 	N 	0.33950 0.35190 0.29019 -0.25700
N 	N 	0.32300 0.41330 0.38388 -0.27500
N 	N 	0.21210 0.48190 0.29883 -0.27300
N 	N 	0.14540 0.41750 0.37464 -0.25100
N 	N 	0.24120 0.29370 0.37796 -0.27500
N 	N 	0.21020 0.79680 0.81528 -0.27000
N 	N 	0.30910 0.87830 0.79102 -0.25700
N 	N 	0.26550 0.98270 0.85743 -0.27600
N 	N 	0.13760 0.94960 0.79282 -0.27300
N 	N 	0.13130 0.91090 0.89387 -0.25600
N 	N 	0.27780 0.84080 0.91180 -0.26700
C 	C 	0.24390 0.31840 0.22680 0.19900
C 	C 	0.33170 0.32600 0.23830 0.01000
C 	C 	0.39900 0.31250 0.20150 -0.08800
H 	H 	0.39360 0.29460 0.16530 0.06700
C 	C 	0.47520 0.32640 0.21970 0.03900
H 	H 	0.52140 0.31770 0.19540 0.02900
C 	C 	0.48300 0.35340 0.27430 -0.11200
H 	H 	0.53380 0.36270 0.28690 0.14600
C 	C 	0.41220 0.36590 0.30880 0.05800
C 	C 	0.40330 0.39990 0.36580 0.14800
C 	C 	0.30240 0.44750 0.43690 0.14400
C 	C 	0.29090 0.52320 0.44310 -0.12700
H 	H 	0.29720 0.55280 0.41170 0.09800
C 	C 	0.27010 0.55610 0.49520 0.02000
C 	C 	0.25700 0.51130 0.54150 -0.04100
H 	H 	0.24270 0.53240 0.57680 0.08500
C 	C 	0.26540 0.43600 0.53480 0.02700
C 	C 	0.28900 0.40450 0.48330 -0.12800
H 	H 	0.29620 0.35340 0.47950 0.10100
C 	C 	0.25820 0.63860 0.50170 0.23600
C 	C 	0.24040 0.38410 0.57940 0.33100
C 	C 	0.10430 0.34580 0.26390 0.12400
C 	C 	0.06540 0.30170 0.29740 -0.12100
H 	H 	0.09650 0.26640 0.32190 0.09500
C 	C 	0.97680 0.31080 0.29390 -0.00700
C 	C 	0.92970 0.36290 0.25820 -0.04600
H 	H 	0.87160 0.36850 0.25660 0.07300
C 	C 	0.97050 0.40720 0.22420 -0.01300
C 	C 	0.05730 0.39780 0.22644 -0.11300
H 	H 	0.08440 0.42640 0.20280 0.08600
C 	C 	0.92230 0.46930 0.18670 0.27700
C 	C 	0.93580 0.26560 0.33430 0.30900
C 	C 	0.14060 0.52350 0.31560 0.17100
C 	C 	0.10000 0.48570 0.36210 0.01100
C 	C 	0.02440 0.51180 0.38940 -0.05200
H 	H 	0.99240 0.55880 0.38110 0.03900
C 	C 	0.99760 0.46620 0.42940 -0.01500
H 	H 	0.94610 0.48230 0.44740 0.04500
C 	C 	0.04710 0.39580 0.44340 -0.05900
H 	H 	0.03070 0.36600 0.47170 0.05800
C 	C 	0.12140 0.37280 0.41350 0.02200
C 	C 	0.18000 0.29900 0.41740 0.16500
C 	C 	0.29800 0.22330 0.37100 0.10800
C 	C 	0.35910 0.19460 0.41080 -0.09700
H 	H 	0.36390 0.22080 0.44360 0.09300
C 	C 	0.41360 0.12630 0.40140 -0.02400
C 	C 	0.40910 0.08900 0.35170 -0.01700
H 	H 	0.44560 0.04350 0.34600 0.06300
C 	C 	0.35030 0.11850 0.30970 -0.06100
C 	C 	0.29270 0.18500 0.32100 -0.08600
H 	H 	0.25050 0.20370 0.29490 0.06500
C 	C 	0.48020 0.09870 0.44480 0.28600
C 	C 	0.34940 0.08460 0.25390 0.34900
C 	C 	0.25910 0.50660 0.25370 0.10200
C 	C 	0.33010 0.53340 0.26540 -0.08100
H 	H 	0.34470 0.54040 0.30270 0.08700
C 	C 	0.37980 0.55000 0.22030 -0.03800
C 	C 	0.35820 0.54130 0.16530 0.00200
H 	H 	0.39190 0.55230 0.13580 0.04700
C 	C 	0.28590 0.51630 0.15360 -0.06600
C 	C 	0.23720 0.49760 0.19758 -0.07100
H 	H 	0.18980 0.47900 0.18960 0.07400
C 	C 	0.45950 0.57570 0.23290 0.36600
C 	C 	0.26450 0.50420 0.09270 0.39000
C 	C 	0.26960 0.76400 0.78000 0.16200
C 	C 	0.32150 0.81760 0.75995 0.04000
C 	C 	0.37600 0.80970 0.71320 -0.08800
H 	H 	0.38580 0.76710 0.69140 0.08600
C 	C 	0.41450 0.86760 0.70080 0.02400
H 	H 	0.44940 0.86470 0.66910 0.03500
C 	C 	0.40300 0.93000 0.73410 -0.08200
H 	H 	0.43090 0.96810 0.72610 0.07900
C 	C 	0.34820 0.93420 0.78020 0.02800
C 	C 	0.32240 0.99640 0.82080 0.16000
C 	C 	0.23790 0.03480 0.90170 0.11100
C 	C 	0.17970 0.10000 0.89050 -0.10500
H 	H 	0.15890 0.11070 0.85390 0.08900
C 	C 	0.15250 0.14930 0.93400 -0.02400
C 	C 	0.18330 0.13250 0.98930 -0.02900
H 	H 	0.16430 0.16490 0.01870 0.05000
C 	C 	0.24200 0.06750 0.99980 -0.05200
C 	C 	0.26930 0.01900 0.95580 -0.09300
H 	H 	0.30920 0.97550 0.96280 0.07900
C 	C 	0.08930 0.22080 0.92130 0.27200
C 	C 	0.27830 0.04920 0.05750 0.33900
C 	C 	0.15580 0.75590 0.84191 0.10900
C 	C 	0.06990 0.78080 0.83643 -0.10400
H 	H 	0.04840 0.81960 0.81140 0.09000
C 	C 	0.01530 0.74720 0.86875 -0.02600
C 	C 	0.04670 0.68680 0.90435 0.00000
H 	H 	0.01060 0.66540 0.92650 0.04000
C 	C 	0.13360 0.65880 0.90625 -0.06300
C 	C 	0.18710 0.69440 0.87601 -0.07600
H 	H 	0.24490 0.67670 0.87860 0.07600
C 	C 	0.92290 0.77810 0.86398 0.28600
C 	C 	0.17260 0.58880 0.93920 0.39400
C 	C 	0.06230 0.97750 0.81580 0.15900
C 	C 	0.05780 0.95000 0.87500 0.03100
C 	C 	0.98630 0.95960 0.91000 -0.08000
H 	H 	0.93500 0.98780 0.89770 0.07400
C 	C 	0.99430 0.92630 0.96250 0.01600
H 	H 	0.94740 0.93120 0.98600 0.03600
C 	C 	0.07060 0.88540 0.98150 -0.08100
H 	H 	0.07570 0.86260 0.01720 0.08000
C 	C 	0.13970 0.87930 0.94550 0.03500
C 	C 	0.22790 0.83890 0.95703 0.15400
C 	C 	0.36330 0.80220 0.91726 0.07900
C 	C 	0.38360 0.73010 0.93964 -0.04300
H 	H 	0.34090 0.70520 0.94800 0.06800
C 	C 	0.46640 0.69530 0.94962 -0.11300
C 	C 	0.53040 0.73160 0.93510 0.03700
H 	H 	0.58620 0.70850 0.94180 0.02000
C 	C 	0.51100 0.80250 0.91060 -0.09100
C 	C 	0.42810 0.83800 0.90300 -0.06300
H 	H 	0.41530 0.88610 0.88820 0.06100
C 	C 	0.48590 0.61920 0.97801 0.43700
C 	C 	0.57930 0.84060 0.89240 0.38200
C 	C 	0.15450 0.97240 0.73734 0.13500
C 	C 	0.15910 0.04640 0.72620 -0.11400
H 	H 	0.14630 0.08140 0.75470 0.09800
C 	C 	0.18240 0.06750 0.67280 -0.00600
C 	C 	0.20240 0.01500 0.63130 -0.05200
H 	H 	0.21970 0.02910 0.59580 0.08500
C 	C 	0.19750 0.94120 0.64090 0.00400
C 	C 	0.17310 0.92120 0.69440 -0.13000
H 	H 	0.16910 0.87230 0.70160 0.11000
C 	C 	0.18540 0.14640 0.66310 0.27100
C 	C 	0.21730 0.88520 0.59600 0.26200
O 	O 	0.45820 0.60490 0.28560 -0.37000
O 	O 	0.96750 0.24810 0.38370 -0.16400
Mn	Mn	0.57785 0.58845 0.32735 1.92500
Mn	Mn	0.18111 0.28846 0.64624 1.23200
O 	O 	0.61160 0.58320 0.35630 -1.70800
O 	O 	0.69830 0.58570 0.36240 0.01300
O 	O 	0.51860 0.52160 0.26950 -0.23400
O 	O 	0.98210 0.20460 0.35280 -0.14100
Mn	Mn	0.64832 0.51131 0.29091 1.77200
O 	O 	0.61800 0.47600 0.29730 -1.43700
