data_crystal

_cell_length_a 24.73180
_cell_length_b 24.73180
_cell_length_c 24.73180
_cell_angle_alpha 127.65300
_cell_angle_beta  127.65300
_cell_angle_gamma 77.18810

_symmetry_space_group_name_	'P 1'
_symmetry_space_group_name_H-M	'P 1'

loop_
_symmetry_equiv_pos_as_xyz
  x,y,z

loop_
_atom_site_label
_atom_site_type_symbol
_atom_site_fract_x
_atom_site_fract_y
_atom_site_fract_z
_atom_site_charge
Zn	Zn	0.02843 0.55264 0.00373 1.21500
C 	C 	0.67127 0.49117 0.66770 -0.11200
C 	C 	0.80425 0.50915 0.80950 -0.10800
C 	C 	0.87325 0.51255 0.88210 0.41700
C 	C 	0.60238 0.48688 0.59510 0.40800
C 	C 	0.20026 0.62516 0.03990 -0.04700
C 	C 	0.09400 0.63040 0.93040 -0.03200
C 	C 	0.01020 0.25280 0.70800 -0.03600
C 	C 	0.72820 0.54480 0.71940 -0.02900
C 	C 	0.79284 0.55294 0.78850 0.19700
C 	C 	0.00553 0.31743 0.76370 0.20900
C 	C 	0.14750 0.72400 0.08170 -0.03500
N 	N 	0.16224 0.67314 0.01890 -0.19900
Cl	Cl	0.99082 0.14068 0.76508 -0.31100
Cl	Cl	0.01102 0.38373 0.76001 -0.30700
O 	O 	0.86935 0.49565 0.91790 -0.45700
O 	O 	0.92840 0.53080 0.89880 -0.43100
O 	O 	0.54716 0.47156 0.58000 -0.43300
O 	O 	0.94963 0.39453 0.89470 -0.45200
H 	H 	0.21020 0.58501 0.99093 0.07900
H 	H 	0.25275 0.65742 0.10774 0.07500
H 	H 	0.06367 0.66664 0.91421 0.05400
H 	H 	0.10475 0.59162 0.88192 0.06200
H 	H 	0.01827 0.24506 0.66318 0.08300
H 	H 	0.72167 0.58252 0.70482 0.08000
H 	H 	0.19935 0.75657 0.15018 0.05700
H 	H 	0.11793 0.76043 0.06542 0.04700
Zn	Zn	0.54891 0.02470 0.99627 1.21200
C 	C 	0.82347 0.00357 0.33230 -0.11400
C 	C 	0.69965 0.99475 0.19050 -0.10500
C 	C 	0.63045 0.99115 0.11790 0.41600
C 	C 	0.89178 0.00728 0.40490 0.40500
C 	C 	0.58526 0.16036 0.96010 -0.04700
C 	C 	0.70000 0.16360 0.06960 -0.02800
C 	C 	0.54480 0.30220 0.29200 -0.03100
C 	C 	0.82540 0.00880 0.28060 -0.02800
C 	C 	0.76444 0.00434 0.21150 0.19500
C 	C 	0.55373 0.24183 0.23630 0.20000
C 	C 	0.64230 0.06580 0.91830 -0.02900
N 	N 	0.65424 0.14334 0.98110 -0.20100
Cl	Cl	0.37560 0.22574 0.23492 -0.30500
Cl	Cl	0.62372 0.25101 0.23999 -0.30900
O 	O 	0.57775 0.95145 0.08210 -0.45600
O 	O 	0.63200 0.02960 0.10120 -0.42700
O 	O 	0.89156 0.96716 0.42000 -0.43100
O 	O 	0.49983 0.05493 0.10530 -0.45200
H 	H 	0.59408 0.21927 0.00907 0.08100
H 	H 	0.54968 0.14501 0.89226 0.07400
H 	H 	0.75243 0.14946 0.08579 0.05200
H 	H 	0.70970 0.22283 0.11808 0.06100
H 	H 	0.58188 0.35510 0.33682 0.08200
H 	H 	0.87770 0.01685 0.29518 0.08000
H 	H 	0.60638 0.04917 0.84982 0.05400
H 	H 	0.69500 0.05251 0.93458 0.04300
Zn	Zn	0.30264 0.79891 0.02421 1.21400
C 	C 	0.24117 0.07347 0.31990 -0.10900
C 	C 	0.25915 0.94965 0.20490 -0.10500
C 	C 	0.26255 0.88045 0.13930 0.41700
C 	C 	0.23688 0.14178 0.38450 0.40700
C 	C 	0.37516 0.83526 0.92490 -0.04000
C 	C 	0.38040 0.95000 0.03640 -0.03700
C 	C 	0.00280 0.79480 0.74260 -0.01000
C 	C 	0.29480 0.07540 0.31660 -0.03000
C 	C 	0.30294 0.01444 0.26010 0.19400
C 	C 	0.06743 0.80373 0.81190 0.19500
C 	C 	0.47400 0.89230 0.07650 -0.03500
N 	N 	0.42314 0.90424 0.01090 -0.20000
Cl	Cl	0.89068 0.62560 0.64986 -0.30800
Cl	Cl	0.13373 0.87372 0.87271 -0.30100
O 	O 	0.24565 0.82775 0.12630 -0.45600
O 	O 	0.28080 0.88200 0.10240 -0.42900
O 	O 	0.22156 0.14156 0.42440 -0.43400
O 	O 	0.14453 0.74983 0.94490 -0.44900
H 	H 	0.33501 0.84408 0.87480 0.07700
H 	H 	0.40742 0.79968 0.90467 0.07400
H 	H 	0.41664 0.00243 0.10297 0.05200
H 	H 	0.34162 0.95970 0.98687 0.06700
H 	H 	0.99506 0.83188 0.72678 0.07200
H 	H 	0.33252 0.12770 0.36085 0.08000
H 	H 	0.50657 0.85638 0.05722 0.05600
H 	H 	0.51043 0.94500 0.14249 0.04800
Zn	Zn	0.77470 0.27843 0.97579 1.21400
C 	C 	0.75357 0.92127 0.68010 -0.10900
C 	C 	0.74475 0.05425 0.79510 -0.12100
C 	C 	0.74115 0.12325 0.86070 0.42000
C 	C 	0.75728 0.85238 0.61550 0.40800
C 	C 	0.91036 0.45026 0.07510 -0.04200
C 	C 	0.91360 0.34400 0.96360 -0.03500
C 	C 	0.05220 0.26020 0.25740 -0.02800
C 	C 	0.75880 0.97820 0.68340 -0.02200
C 	C 	0.75434 0.04284 0.73990 0.19200
C 	C 	0.99183 0.25553 0.18810 0.19300
C 	C 	0.81580 0.39750 0.92350 -0.03500
N 	N 	0.89334 0.41224 0.98910 -0.19900
Cl	Cl	0.97574 0.24082 0.35014 -0.30900
Cl	Cl	0.00101 0.26102 0.12729 -0.30400
O 	O 	0.70145 0.11935 0.87370 -0.45800
O 	O 	0.77960 0.17840 0.89760 -0.43100
O 	O 	0.71716 0.79716 0.57560 -0.43300
O 	O 	0.80493 0.19963 0.05510 -0.44900
H 	H 	0.96927 0.46020 0.12520 0.07500
H 	H 	0.89501 0.50275 0.09533 0.07400
H 	H 	0.89946 0.31367 0.89703 0.05200
H 	H 	0.97283 0.35475 0.01313 0.06300
H 	H 	0.10510 0.26827 0.27322 0.08100
H 	H 	0.76685 0.97167 0.63915 0.08100
H 	H 	0.79917 0.44935 0.94278 0.05700
H 	H 	0.80251 0.36793 0.85751 0.04800
Zn	Zn	0.70109 0.19736 0.97579 1.21400
C 	C 	0.42653 0.25883 0.68010 -0.11100
C 	C 	0.55035 0.24085 0.79510 -0.10700
C 	C 	0.61955 0.23745 0.86070 0.41700
C 	C 	0.35822 0.26312 0.61550 0.40800
C 	C 	0.66474 0.12484 0.07510 -0.04000
C 	C 	0.55000 0.11960 0.96360 -0.03600
C 	C 	0.70520 0.49720 0.25740 -0.03100
C 	C 	0.42460 0.20520 0.68340 -0.02900
C 	C 	0.48556 0.19706 0.73990 0.19700
C 	C 	0.69627 0.43257 0.18810 0.20000
C 	C 	0.60770 0.02600 0.92350 -0.06000
N 	N 	0.59576 0.07686 0.98910 -0.19800
Cl	Cl	0.87440 0.60932 0.35014 -0.30700
Cl	Cl	0.62628 0.36627 0.12729 -0.30700
O 	O 	0.67225 0.25435 0.87370 -0.45600
O 	O 	0.61800 0.21920 0.89760 -0.42900
O 	O 	0.35844 0.27844 0.57560 -0.43300
O 	O 	0.75017 0.35547 0.05510 -0.45000
H 	H 	0.65592 0.16499 0.12520 0.07700
H 	H 	0.70032 0.09258 0.09533 0.07400
H 	H 	0.49757 0.08336 0.89703 0.05100
H 	H 	0.54030 0.15838 0.01313 0.06500
H 	H 	0.66812 0.50494 0.27322 0.08200
H 	H 	0.37230 0.16748 0.63915 0.08000
H 	H 	0.64362 0.99343 0.94278 0.06900
H 	H 	0.55500 0.98957 0.85751 0.06100
Zn	Zn	0.22157 0.72530 0.02421 1.21400
C 	C 	0.57873 0.74643 0.31990 -0.11100
C 	C 	0.44575 0.75525 0.20490 -0.10700
C 	C 	0.37675 0.75885 0.13930 0.41700
C 	C 	0.64762 0.74272 0.38450 0.40800
C 	C 	0.04974 0.58964 0.92490 -0.03200
C 	C 	0.15600 0.58640 0.03640 -0.03400
C 	C 	0.23980 0.44780 0.74260 -0.03100
C 	C 	0.52180 0.74120 0.31660 -0.02900
C 	C 	0.45716 0.74566 0.26010 0.19700
C 	C 	0.24447 0.50817 0.81190 0.20000
C 	C 	0.10250 0.68420 0.07650 -0.03500
N 	N 	0.08776 0.60666 0.01090 -0.20000
Cl	Cl	0.25918 0.52426 0.64986 -0.30500
Cl	Cl	0.23898 0.49899 0.87271 -0.30700
O 	O 	0.38065 0.79855 0.12630 -0.45600
O 	O 	0.32160 0.72040 0.10240 -0.42900
O 	O 	0.70284 0.78284 0.42440 -0.43300
O 	O 	0.30037 0.69507 0.94490 -0.45000
H 	H 	0.03980 0.53073 0.87480 0.07600
H 	H 	0.99725 0.60499 0.90467 0.06600
H 	H 	0.18633 0.60054 0.10297 0.05200
H 	H 	0.14525 0.52717 0.98687 0.06300
H 	H 	0.23173 0.39490 0.72678 0.08200
H 	H 	0.52833 0.73315 0.36085 0.08100
H 	H 	0.05065 0.70083 0.05722 0.05800
H 	H 	0.13207 0.69749 0.14249 0.04800
Zn	Zn	0.47530 0.95109 0.00373 1.21400
C 	C 	0.49643 0.67653 0.66770 -0.11100
C 	C 	0.50525 0.80035 0.80950 -0.10600
C 	C 	0.50885 0.86955 0.88210 0.41600
C 	C 	0.49272 0.60822 0.59510 0.40800
C 	C 	0.33964 0.91474 0.03990 -0.05000
C 	C 	0.33640 0.80000 0.93040 -0.02800
C 	C 	0.19780 0.95520 0.70800 -0.01400
C 	C 	0.49120 0.67460 0.71940 -0.02900
C 	C 	0.49566 0.73556 0.78850 0.19700
C 	C 	0.25817 0.94627 0.76370 0.19300
C 	C 	0.43420 0.85770 0.08170 -0.03500
N 	N 	0.35666 0.84576 0.01890 -0.20000
Cl	Cl	0.27426 0.12440 0.76508 -0.30700
Cl	Cl	0.24899 0.87628 0.76001 -0.30500
O 	O 	0.54855 0.92225 0.91790 -0.45100
O 	O 	0.47040 0.86800 0.89880 -0.42500
O 	O 	0.53284 0.60844 0.58000 -0.43300
O 	O 	0.44507 0.00017 0.89470 -0.46400
H 	H 	0.28073 0.90592 0.99093 0.08300
H 	H 	0.35499 0.95032 0.10774 0.07600
H 	H 	0.35054 0.74757 0.91421 0.05200
H 	H 	0.27717 0.79030 0.88192 0.06100
H 	H 	0.14490 0.91812 0.66318 0.08000
H 	H 	0.48315 0.62230 0.70482 0.08100
H 	H 	0.45083 0.89362 0.15018 0.05800
H 	H 	0.44749 0.80500 0.06542 0.04700
Zn	Zn	0.94736 0.47157 0.99627 1.21400
C 	C 	0.00883 0.82873 0.33230 -0.10200
C 	C 	0.99085 0.69575 0.19050 -0.11500
C 	C 	0.98745 0.62675 0.11790 0.41300
C 	C 	0.01312 0.89762 0.40490 0.41500
C 	C 	0.87484 0.29974 0.96010 -0.04800
C 	C 	0.86960 0.40600 0.06960 -0.02900
C 	C 	0.24720 0.48980 0.29200 -0.03100
C 	C 	0.95520 0.77180 0.28060 -0.03900
C 	C 	0.94706 0.70716 0.21150 0.20100
C 	C 	0.18257 0.49447 0.23630 0.20000
C 	C 	0.77600 0.35250 0.91830 -0.03500
N 	N 	0.82686 0.33776 0.98110 -0.19900
Cl	Cl	0.35932 0.50918 0.23492 -0.30500
Cl	Cl	0.11627 0.48898 0.23999 -0.30600
O 	O 	0.00435 0.63065 0.08210 -0.45100
O 	O 	0.96920 0.57160 0.10120 -0.42800
O 	O 	0.02844 0.95284 0.42000 -0.42900
O 	O 	0.10547 0.55037 0.10530 -0.45100
H 	H 	0.91499 0.28980 0.00907 0.08000
H 	H 	0.84258 0.24725 0.89226 0.07400
H 	H 	0.83336 0.43633 0.08579 0.05200
H 	H 	0.90838 0.39525 0.11808 0.06000
H 	H 	0.25494 0.48173 0.33682 0.08200
H 	H 	0.91748 0.77833 0.29518 0.08200
H 	H 	0.74343 0.30065 0.84982 0.05700
H 	H 	0.73957 0.38207 0.93458 0.04700
Zn	Zn	0.72157 0.69736 0.49627 1.21500
C 	C 	0.07873 0.75883 0.83230 -0.10900
C 	C 	0.94575 0.74085 0.69050 -0.11900
C 	C 	0.87675 0.73745 0.61790 0.42000
C 	C 	0.14762 0.76312 0.90490 0.40800
C 	C 	0.54974 0.62484 0.46010 -0.04400
C 	C 	0.65600 0.61960 0.56960 -0.03200
C 	C 	0.73980 0.99720 0.79200 -0.00800
C 	C 	0.02180 0.70520 0.78060 -0.02200
C 	C 	0.95716 0.69706 0.71150 0.19100
C 	C 	0.74447 0.93257 0.73630 0.19400
C 	C 	0.60250 0.52600 0.41830 -0.03500
N 	N 	0.58776 0.57686 0.48110 -0.19800
Cl	Cl	0.75918 0.10932 0.73492 -0.30700
Cl	Cl	0.73898 0.86627 0.73999 -0.30500
O 	O 	0.88065 0.75435 0.58210 -0.45800
O 	O 	0.82160 0.71920 0.60120 -0.42900
O 	O 	0.20284 0.77844 0.92000 -0.43100
O 	O 	0.80037 0.85547 0.60530 -0.45200
H 	H 	0.53980 0.66499 0.50907 0.07700
H 	H 	0.49725 0.59258 0.39226 0.07400
H 	H 	0.68633 0.58336 0.58579 0.05100
H 	H 	0.64525 0.65838 0.61808 0.06100
H 	H 	0.73173 0.00494 0.83682 0.07100
H 	H 	0.02833 0.66748 0.79518 0.08100
H 	H 	0.55065 0.49343 0.34982 0.05700
H 	H 	0.63207 0.48957 0.43458 0.04700
Zn	Zn	0.20109 0.22530 0.50373 1.21500
C 	C 	0.92653 0.24643 0.16770 -0.10900
C 	C 	0.05035 0.25525 0.30950 -0.10400
C 	C 	0.11955 0.25885 0.38210 0.41600
C 	C 	0.85822 0.24272 0.09510 0.40700
C 	C 	0.16474 0.08964 0.53990 -0.04400
C 	C 	0.05000 0.08640 0.43040 -0.02800
C 	C 	0.20520 0.94780 0.20800 -0.02500
C 	C 	0.92460 0.24120 0.21940 -0.02900
C 	C 	0.98556 0.24566 0.28850 0.19300
C 	C 	0.19627 0.00817 0.26370 0.19200
C 	C 	0.10770 0.18420 0.58170 -0.03500
N 	N 	0.09576 0.10666 0.51890 -0.19900
Cl	Cl	0.37440 0.02426 0.26508 -0.30600
Cl	Cl	0.12628 0.99899 0.26001 -0.30000
O 	O 	0.17225 0.29855 0.41790 -0.45600
O 	O 	0.11800 0.22040 0.39880 -0.42700
O 	O 	0.85844 0.28284 0.08000 -0.43200
O 	O 	0.25017 0.19507 0.39470 -0.45200
H 	H 	0.15592 0.03073 0.49093 0.07500
H 	H 	0.20032 0.10499 0.60774 0.07400
H 	H 	0.99757 0.10054 0.41421 0.04800
H 	H 	0.04030 0.02717 0.38192 0.05900
H 	H 	0.16812 0.89490 0.16318 0.08100
H 	H 	0.87230 0.23315 0.20482 0.08000
H 	H 	0.14362 0.20083 0.65018 0.05700
H 	H 	0.05500 0.19749 0.56542 0.04800
Zn	Zn	0.44736 0.45109 0.47579 1.21500
C 	C 	0.50883 0.17653 0.18010 -0.11100
C 	C 	0.49085 0.30035 0.29510 -0.10700
C 	C 	0.48745 0.36955 0.36070 0.41700
C 	C 	0.51312 0.10822 0.11550 0.40700
C 	C 	0.37484 0.41474 0.57510 -0.04400
C 	C 	0.36960 0.30000 0.46360 -0.03200
C 	C 	0.74720 0.45520 0.75740 -0.03100
C 	C 	0.45520 0.17460 0.18340 -0.02900
C 	C 	0.44706 0.23556 0.23990 0.19700
C 	C 	0.68257 0.44627 0.68810 0.20000
C 	C 	0.27600 0.35770 0.42350 -0.03500
N 	N 	0.32686 0.34576 0.48910 -0.19800
Cl	Cl	0.85932 0.62440 0.85014 -0.30700
Cl	Cl	0.61627 0.37628 0.62729 -0.30900
O 	O 	0.50435 0.42225 0.37370 -0.45600
O 	O 	0.46920 0.36800 0.39760 -0.42800
O 	O 	0.52844 0.10844 0.07560 -0.43200
O 	O 	0.60547 0.50017 0.55510 -0.45200
H 	H 	0.41499 0.40592 0.62520 0.07700
H 	H 	0.34258 0.45032 0.59533 0.07400
H 	H 	0.33336 0.24757 0.39703 0.05200
H 	H 	0.40838 0.29030 0.51313 0.06100
H 	H 	0.75494 0.41812 0.77322 0.08200
H 	H 	0.41748 0.12230 0.13915 0.08000
H 	H 	0.24343 0.39362 0.44278 0.05700
H 	H 	0.23957 0.30500 0.35751 0.04800
Zn	Zn	0.97530 0.97157 0.52421 1.21400
C 	C 	0.99643 0.32873 0.81990 -0.11900
C 	C 	0.00525 0.19575 0.70490 -0.09900
C 	C 	0.00885 0.12675 0.63930 0.42000
C 	C 	0.99272 0.39762 0.88450 0.40000
C 	C 	0.83964 0.79974 0.42490 -0.04400
C 	C 	0.83640 0.90600 0.53640 -0.03300
C 	C 	0.69780 0.98980 0.24260 -0.03200
C 	C 	0.99120 0.27180 0.81660 -0.02600
C 	C 	0.99566 0.20716 0.76010 0.18800
C 	C 	0.75817 0.99447 0.31190 0.20200
C 	C 	0.93420 0.85250 0.57650 -0.03000
N 	N 	0.85666 0.83776 0.51090 -0.19800
Cl	Cl	0.77426 0.00918 0.14986 -0.30500
Cl	Cl	0.74899 0.98898 0.37271 -0.30600
O 	O 	0.04855 0.13065 0.62630 -0.45700
O 	O 	0.97040 0.07160 0.60240 -0.43500
O 	O 	0.03284 0.45284 0.92440 -0.42500
O 	O 	0.94507 0.05037 0.44490 -0.45400
H 	H 	0.78073 0.78980 0.37480 0.07700
H 	H 	0.85499 0.74725 0.40467 0.07400
H 	H 	0.85054 0.93633 0.60297 0.05300
H 	H 	0.77717 0.89525 0.48687 0.06200
H 	H 	0.64490 0.98173 0.22678 0.08200
H 	H 	0.98315 0.27833 0.86085 0.07800
H 	H 	0.95083 0.80065 0.55722 0.05400
H 	H 	0.94749 0.88207 0.64249 0.04600
Zn	Zn	0.04891 0.05264 0.52421 1.21500
C 	C 	0.32347 0.99117 0.81990 -0.09500
C 	C 	0.19965 0.00915 0.70490 -0.12100
C 	C 	0.13045 0.01255 0.63930 0.40800
C 	C 	0.39178 0.98688 0.88450 0.41900
C 	C 	0.08526 0.12516 0.42490 -0.04500
C 	C 	0.20000 0.13040 0.53640 -0.03200
C 	C 	0.04480 0.75280 0.24260 -0.02200
C 	C 	0.32540 0.04480 0.81660 -0.04700
C 	C 	0.26444 0.05294 0.76010 0.20400
C 	C 	0.05373 0.81743 0.31190 0.19600
C 	C 	0.14230 0.22400 0.57650 -0.03500
N 	N 	0.15424 0.17314 0.51090 -0.19800
Cl	Cl	0.87560 0.64068 0.14986 -0.30600
Cl	Cl	0.12372 0.88373 0.37271 -0.30300
O 	O 	0.07775 0.99565 0.62630 -0.44200
O 	O 	0.13200 0.03080 0.60240 -0.42700
O 	O 	0.39156 0.97156 0.92440 -0.43100
O 	O 	0.99983 0.89453 0.44490 -0.45900
H 	H 	0.09408 0.08501 0.37480 0.07600
H 	H 	0.04968 0.15742 0.40467 0.07500
H 	H 	0.25243 0.16664 0.60297 0.05100
H 	H 	0.20970 0.09162 0.48687 0.06000
H 	H 	0.08188 0.74506 0.22678 0.08100
H 	H 	0.37770 0.08252 0.86085 0.08300
H 	H 	0.10638 0.25657 0.55722 0.05700
H 	H 	0.19500 0.26043 0.64249 0.04800
Zn	Zn	0.52843 0.52470 0.47579 1.21500
C 	C 	0.17127 0.50357 0.18010 -0.11000
C 	C 	0.30425 0.49475 0.29510 -0.10700
C 	C 	0.37325 0.49115 0.36070 0.41700
C 	C 	0.10238 0.50728 0.11550 0.40800
C 	C 	0.70026 0.66036 0.57510 -0.04400
C 	C 	0.59400 0.66360 0.46360 -0.03200
C 	C 	0.51020 0.80220 0.75740 -0.03100
C 	C 	0.22820 0.50880 0.18340 -0.02900
C 	C 	0.29284 0.50434 0.23990 0.19700
C 	C 	0.50553 0.74183 0.68810 0.20000
C 	C 	0.64750 0.56580 0.42350 -0.03500
N 	N 	0.66224 0.64334 0.48910 -0.19800
Cl	Cl	0.49082 0.72574 0.85014 -0.30400
Cl	Cl	0.51102 0.75101 0.62729 -0.30700
O 	O 	0.36935 0.45145 0.37370 -0.45600
O 	O 	0.42840 0.52960 0.39760 -0.42800
O 	O 	0.04716 0.46716 0.07560 -0.43000
O 	O 	0.44963 0.55493 0.55510 -0.45200
H 	H 	0.71020 0.71927 0.62520 0.07700
H 	H 	0.75275 0.64501 0.59533 0.07400
H 	H 	0.56367 0.64946 0.39703 0.05200
H 	H 	0.60475 0.72283 0.51313 0.06100
H 	H 	0.51827 0.85510 0.77322 0.08300
H 	H 	0.22167 0.51685 0.13915 0.08100
H 	H 	0.69935 0.54917 0.44278 0.05700
H 	H 	0.61793 0.55251 0.35751 0.04800
Zn	Zn	0.27470 0.29891 0.49627 1.21500
C 	C 	0.25357 0.57347 0.83230 -0.11000
C 	C 	0.24475 0.44965 0.69050 -0.10700
C 	C 	0.24115 0.38045 0.61790 0.41700
C 	C 	0.25728 0.64178 0.90490 0.40800
C 	C 	0.41036 0.33526 0.46010 -0.04400
C 	C 	0.41360 0.45000 0.56960 -0.03200
C 	C 	0.55220 0.29480 0.79200 -0.03100
C 	C 	0.25880 0.57540 0.78060 -0.02900
C 	C 	0.25434 0.51444 0.71150 0.19700
C 	C 	0.49183 0.30373 0.73630 0.20000
C 	C 	0.31580 0.39230 0.41830 -0.03500
N 	N 	0.39334 0.40424 0.48110 -0.19800
Cl	Cl	0.47574 0.12560 0.73492 -0.30700
Cl	Cl	0.50101 0.37372 0.73999 -0.30800
O 	O 	0.20145 0.32775 0.58210 -0.45600
O 	O 	0.27960 0.38200 0.60120 -0.42800
O 	O 	0.21716 0.64156 0.92000 -0.43200
O 	O 	0.30493 0.24983 0.60530 -0.45200
H 	H 	0.46927 0.34408 0.50907 0.07700
H 	H 	0.39501 0.29968 0.39226 0.07400
H 	H 	0.39946 0.50243 0.58579 0.05200
H 	H 	0.47283 0.45970 0.61808 0.06100
H 	H 	0.60510 0.33188 0.83682 0.08200
H 	H 	0.26685 0.62770 0.79518 0.08100
H 	H 	0.29917 0.35638 0.34982 0.05700
H 	H 	0.30251 0.44500 0.43458 0.04800
Zn	Zn	0.80264 0.77843 0.50373 1.21500
C 	C 	0.74117 0.42127 0.16770 -0.11000
C 	C 	0.75915 0.55425 0.30950 -0.10700
C 	C 	0.76255 0.62325 0.38210 0.41700
C 	C 	0.73688 0.35238 0.09510 0.40800
C 	C 	0.87516 0.95026 0.53990 -0.03800
C 	C 	0.88040 0.84400 0.43040 -0.03200
C 	C 	0.50280 0.76020 0.20800 -0.03100
C 	C 	0.79480 0.47820 0.21940 -0.03000
C 	C 	0.80294 0.54284 0.28850 0.19700
C 	C 	0.56743 0.75553 0.26370 0.20000
C 	C 	0.97400 0.89750 0.58170 -0.05400
N 	N 	0.92314 0.91224 0.51890 -0.19700
Cl	Cl	0.39068 0.74082 0.26508 -0.30400
Cl	Cl	0.63373 0.76102 0.26001 -0.30800
O 	O 	0.74565 0.61935 0.41790 -0.45600
O 	O 	0.78080 0.67840 0.39880 -0.42800
O 	O 	0.72156 0.29716 0.08000 -0.43200
O 	O 	0.64453 0.69963 0.39470 -0.45200
H 	H 	0.83501 0.96020 0.49093 0.07700
H 	H 	0.90742 0.00275 0.60774 0.06800
H 	H 	0.91664 0.81367 0.41421 0.05100
H 	H 	0.84162 0.85475 0.38192 0.06100
H 	H 	0.49506 0.76827 0.16318 0.08200
H 	H 	0.83252 0.47167 0.20482 0.08000
H 	H 	0.00657 0.94935 0.65018 0.06900
H 	H 	0.01043 0.86793 0.56542 0.05700
