data_crystal

_cell_length_a 12.87400
_cell_length_b 13.07900
_cell_length_c 16.47100
_cell_angle_alpha 86.19300
_cell_angle_beta  85.95400
_cell_angle_gamma 80.81500

_symmetry_space_group_name_	'P 1'
_symmetry_space_group_name_H-M	'P 1'

loop_
_symmetry_equiv_pos_as_xyz
  x,y,z

loop_
_atom_site_label
_atom_site_type_symbol
_atom_site_fract_x
_atom_site_fract_y
_atom_site_fract_z
_atom_site_charge
Pd	Pd	0.99808 0.77153 0.98839 0.74500
Cu	Cu	0.45856 0.23331 0.48954 0.92000
Na	Na	0.60746 0.39761 0.49518 0.58800
C 	C 	0.95110 0.84530 0.16040 0.10400
C 	C 	0.87890 0.93090 0.13690 -0.13800
C 	C 	0.85600 0.95950 0.05660 0.11100
C 	C 	0.78390 0.05000 0.03090 -0.10300
H 	H 	0.75030 0.10370 0.06420 0.05800
C 	C 	0.77310 0.04390 0.95050 -0.08900
H 	H 	0.73030 0.09290 0.91700 0.05900
C 	C 	0.83790 0.95020 0.92450 0.11100
C 	C 	0.84010 0.91200 0.84710 -0.14500
C 	C 	0.90500 0.82200 0.82270 0.10100
C 	C 	0.91480 0.78700 0.74100 -0.07700
H 	H 	0.87460 0.81670 0.69670 0.05900
C 	C 	0.99220 0.70390 0.73920 -0.09100
H 	H 	0.01630 0.66420 0.69340 0.06600
C 	C 	0.03120 0.68660 0.81940 0.10500
C 	C 	0.11540 0.61060 0.84040 -0.14000
C 	C 	0.15370 0.59470 0.91790 0.10100
C 	C 	0.24130 0.51770 0.94010 -0.08300
H 	H 	0.28410 0.47190 0.90460 0.05900
C 	C 	0.25150 0.52230 0.02050 -0.08400
H 	H 	0.30220 0.48010 0.05240 0.05900
C 	C 	0.17070 0.60340 0.04860 0.10000
C 	C 	0.15490 0.63070 0.12950 -0.13700
C 	C 	0.07750 0.71060 0.15650 0.09900
C 	C 	0.05610 0.73400 0.24070 -0.08200
H 	H 	0.09060 0.69880 0.28600 0.06300
C 	C 	0.97710 0.81580 0.24290 -0.08400
H 	H 	0.94490 0.84790 0.29040 0.06700
N 	N 	0.01260 0.77850 0.10871 -0.22700
N 	N 	0.88940 0.90160 0.99009 -0.22900
N 	N 	0.97660 0.75910 0.86942 -0.23100
N 	N 	0.11360 0.64760 0.98494 -0.22700
C 	C 	0.81850 0.99440 0.20210 0.12200
C 	C 	0.74290 0.95180 0.25280 -0.12400
H 	H 	0.73430 0.88170 0.24770 0.08300
C 	C 	0.68020 0.01010 0.31040 0.03000
H 	H 	0.62780 0.98040 0.34320 0.03100
C 	C 	0.69380 0.11230 0.32040 -0.13200
C 	C 	0.77190 0.15270 0.27230 0.06600
H 	H 	0.78400 0.22110 0.27990 0.01800
C 	C 	0.83280 0.09520 0.21330 -0.16400
H 	H 	0.88480 0.12530 0.18020 0.07600
C 	C 	0.62430 0.17850 0.37950 0.35600
C 	C 	0.77350 0.97450 0.78540 0.15400
C 	C 	0.79680 0.07140 0.75820 -0.20000
H 	H 	0.85300 0.09710 0.78040 0.10000
C 	C 	0.73950 0.13100 0.69950 0.10000
H 	H 	0.75810 0.19630 0.68070 0.00800
C 	C 	0.65490 0.09680 0.66770 -0.17600
C 	C 	0.63140 0.99850 0.69390 0.10200
H 	H 	0.57470 0.97310 0.67210 -0.00000
C 	C 	0.69120 0.93760 0.75220 -0.18400
H 	H 	0.67560 0.87060 0.76920 0.09600
C 	C 	0.59360 0.16620 0.60500 0.37600
C 	C 	0.16500 0.53840 0.77660 0.12300
C 	C 	0.26280 0.54510 0.73840 -0.16000
H 	H 	0.30010 0.59790 0.75220 0.09300
C 	C 	0.30780 0.47650 0.68040 0.06800
H 	H 	0.37520 0.48260 0.65470 0.01400
C 	C 	0.25370 0.39870 0.66010 -0.13400
C 	C 	0.15560 0.39190 0.69800 0.06600
H 	H 	0.11800 0.33930 0.68410 0.01900
C 	C 	0.11130 0.46070 0.75590 -0.16000
H 	H 	0.04390 0.45470 0.78150 0.08400
C 	C 	0.30020 0.31950 0.60000 0.34800
C 	C 	0.22290 0.57040 0.19140 0.11600
C 	C 	0.21030 0.46930 0.21780 -0.15700
H 	H 	0.16070 0.43620 0.19340 0.08100
C 	C 	0.26930 0.41660 0.27910 0.06900
H 	H 	0.26040 0.34760 0.29650 0.01800
C 	C 	0.34160 0.46490 0.31520 -0.13800
C 	C 	0.35690 0.56490 0.28820 0.06300
H 	H 	0.40710 0.59770 0.31210 0.02100
C 	C 	0.29830 0.61600 0.22630 -0.15100
H 	H 	0.30970 0.68370 0.20720 0.08500
C 	C 	0.40290 0.41020 0.38430 0.36000
O 	O 	0.54600 0.13943 0.41447 -0.45300
O 	O 	0.64360 0.26632 0.39121 -0.34800
O 	O 	0.62200 0.24984 0.58245 -0.37300
O 	O 	0.51390 0.13401 0.57912 -0.45700
O 	O 	0.38990 0.33075 0.56703 -0.40500
O 	O 	0.24960 0.24980 0.58720 -0.30300
O 	O 	0.39350 0.31452 0.39880 -0.39700
O 	O 	0.45770 0.45905 0.42226 -0.39500
N 	N 	0.20550 0.60240 0.50100 -0.16400
C 	C 	0.14920 0.69430 0.52240 0.05000
H 	H 	0.18390 0.73800 0.55140 0.02400
C 	C 	0.04500 0.73000 0.50540 -0.10300
H 	H 	0.00980 0.79500 0.52290 0.06800
C 	C 	0.99640 0.67060 0.46420 0.02200
H 	H 	0.92540 0.69230 0.45080 0.03800
C 	C 	0.05200 0.57370 0.44020 -0.11100
H 	H 	0.01990 0.53020 0.40890 0.07100
C 	C 	0.15450 0.54390 0.46360 0.07100
H 	H 	0.18920 0.47650 0.45140 0.01100
Pd	Pd	0.00192 0.22847 0.01161 0.74300
Cu	Cu	0.54144 0.76669 0.51046 0.91900
Na	Na	0.39254 0.60239 0.50482 0.58700
C 	C 	0.04890 0.15470 0.83960 0.09900
C 	C 	0.12110 0.06910 0.86310 -0.13600
C 	C 	0.14400 0.04050 0.94340 0.08600
C 	C 	0.21610 0.95000 0.96910 -0.08300
H 	H 	0.24970 0.89630 0.93580 0.05600
C 	C 	0.22690 0.95610 0.04950 -0.06100
H 	H 	0.26970 0.90710 0.08300 0.05400
C 	C 	0.16210 0.04980 0.07550 0.07600
C 	C 	0.15990 0.08800 0.15290 -0.11800
C 	C 	0.09500 0.17800 0.17730 0.08800
C 	C 	0.08520 0.21300 0.25900 -0.07000
H 	H 	0.12540 0.18330 0.30330 0.05500
C 	C 	0.00780 0.29610 0.26080 -0.09400
H 	H 	0.98370 0.33580 0.30660 0.06700
C 	C 	0.96880 0.31340 0.18060 0.10600
C 	C 	0.88460 0.38940 0.15960 -0.14100
C 	C 	0.84630 0.40530 0.08210 0.10100
C 	C 	0.75870 0.48230 0.05990 -0.08400
H 	H 	0.71590 0.52810 0.09540 0.06000
C 	C 	0.74850 0.47770 0.97950 -0.08300
H 	H 	0.69780 0.51990 0.94760 0.05900
C 	C 	0.82930 0.39660 0.95140 0.10000
C 	C 	0.84510 0.36930 0.87050 -0.13700
C 	C 	0.92250 0.28940 0.84350 0.09900
C 	C 	0.94390 0.26600 0.75930 -0.08400
H 	H 	0.90940 0.30120 0.71400 0.06400
C 	C 	0.02290 0.18420 0.75710 -0.08300
H 	H 	0.05510 0.15210 0.70960 0.06400
N 	N 	0.98740 0.22150 0.89129 -0.22700
N 	N 	0.11060 0.09840 0.00991 -0.22400
N 	N 	0.02340 0.24090 0.13058 -0.22900
N 	N 	0.88640 0.35240 0.01506 -0.22800
C 	C 	0.18150 0.00560 0.79790 0.11600
C 	C 	0.25710 0.04820 0.74720 -0.19000
H 	H 	0.26570 0.11830 0.75230 0.10300
C 	C 	0.31980 0.98990 0.68960 0.12900
H 	H 	0.37220 0.01960 0.65680 -0.01700
C 	C 	0.30620 0.88770 0.67960 -0.16400
C 	C 	0.22810 0.84730 0.72770 0.08000
H 	H 	0.21600 0.77890 0.72010 0.01500
C 	C 	0.16720 0.90480 0.78670 -0.15000
H 	H 	0.11520 0.87470 0.81980 0.07600
C 	C 	0.37570 0.82150 0.62050 0.37000
C 	C 	0.22650 0.02550 0.21460 0.08500
C 	C 	0.20320 0.92860 0.24180 -0.12100
H 	H 	0.14700 0.90290 0.21960 0.07800
C 	C 	0.26050 0.86900 0.30050 0.04400
H 	H 	0.24190 0.80370 0.31930 0.02700
C 	C 	0.34510 0.90320 0.33230 -0.11300
C 	C 	0.36860 0.00150 0.30610 0.02700
H 	H 	0.42530 0.02690 0.32790 0.01700
C 	C 	0.30880 0.06240 0.24780 -0.12900
H 	H 	0.32440 0.12940 0.23080 0.07600
C 	C 	0.40640 0.83380 0.39500 0.35700
C 	C 	0.83500 0.46160 0.22340 0.12300
C 	C 	0.73720 0.45490 0.26160 -0.16000
H 	H 	0.69990 0.40210 0.24780 0.09300
C 	C 	0.69220 0.52350 0.31960 0.06800
H 	H 	0.62480 0.51740 0.34530 0.01400
C 	C 	0.74630 0.60130 0.33990 -0.13300
C 	C 	0.84440 0.60810 0.30200 0.06600
H 	H 	0.88200 0.66070 0.31590 0.02000
C 	C 	0.88870 0.53930 0.24410 -0.16000
H 	H 	0.95610 0.54530 0.21850 0.08300
C 	C 	0.69980 0.68050 0.40000 0.34700
C 	C 	0.77710 0.42960 0.80860 0.11600
C 	C 	0.78970 0.53070 0.78220 -0.15600
H 	H 	0.83930 0.56380 0.80660 0.08100
C 	C 	0.73070 0.58340 0.72090 0.06800
H 	H 	0.73960 0.65240 0.70350 0.01900
C 	C 	0.65840 0.53510 0.68480 -0.13800
C 	C 	0.64310 0.43510 0.71180 0.06300
H 	H 	0.59290 0.40230 0.68790 0.02200
C 	C 	0.70170 0.38400 0.77370 -0.15000
H 	H 	0.69030 0.31630 0.79280 0.08400
C 	C 	0.59710 0.58980 0.61570 0.35900
O 	O 	0.45400 0.86057 0.58553 -0.45100
O 	O 	0.35640 0.73368 0.60879 -0.35100
O 	O 	0.37800 0.75016 0.41755 -0.36700
O 	O 	0.48610 0.86599 0.42088 -0.44800
O 	O 	0.61010 0.66925 0.43297 -0.40400
O 	O 	0.75040 0.75020 0.41280 -0.30100
O 	O 	0.60650 0.68548 0.60120 -0.39600
O 	O 	0.54230 0.54095 0.57774 -0.39500
N 	N 	0.79450 0.39760 0.49900 -0.16400
C 	C 	0.85080 0.30570 0.47760 0.05000
H 	H 	0.81610 0.26200 0.44860 0.02300
C 	C 	0.95500 0.27000 0.49460 -0.10400
H 	H 	0.99020 0.20500 0.47710 0.06500
C 	C 	0.00360 0.32940 0.53580 0.02200
H 	H 	0.07460 0.30770 0.54920 0.03700
C 	C 	0.94800 0.42630 0.55980 -0.11200
H 	H 	0.98010 0.46980 0.59110 0.07100
C 	C 	0.84550 0.45610 0.53640 0.07200
H 	H 	0.81080 0.52350 0.54860 0.01100
Na	Na	0.50000 0.00000 0.50000 0.57600
