data_crystal

_cell_length_a 12.92400
_cell_length_b 13.13700
_cell_length_c 16.60000
_cell_angle_alpha 85.57500
_cell_angle_beta  85.42600
_cell_angle_gamma 80.09800

_symmetry_space_group_name_	'P 1'
_symmetry_space_group_name_H-M	'P 1'

loop_
_symmetry_equiv_pos_as_xyz
  x,y,z

loop_
_atom_site_label
_atom_site_type_symbol
_atom_site_fract_x
_atom_site_fract_y
_atom_site_fract_z
_atom_site_charge
Pt	Pt	0.99736 0.77381 0.98820 0.40700
Cu	Cu	0.45746 0.23485 0.48986 0.91800
Na	Na	0.60712 0.39808 0.49322 0.58700
C 	C 	0.94930 0.84800 0.15930 0.10500
C 	C 	0.87710 0.93410 0.13550 -0.12400
C 	C 	0.85420 0.96230 0.05570 0.11800
C 	C 	0.78300 0.05160 0.02890 -0.09600
H 	H 	0.74960 0.10570 0.06160 0.06200
C 	C 	0.77090 0.04670 0.94960 -0.08400
H 	H 	0.72710 0.09550 0.91650 0.06000
C 	C 	0.83710 0.95350 0.92450 0.11300
C 	C 	0.83970 0.91480 0.84830 -0.11900
C 	C 	0.90450 0.82390 0.82340 0.09900
C 	C 	0.91330 0.78850 0.74310 -0.07600
H 	H 	0.87250 0.81830 0.69950 0.05900
C 	C 	0.99050 0.70490 0.74130 -0.08700
H 	H 	0.01420 0.66490 0.69610 0.06400
C 	C 	0.02990 0.68800 0.82070 0.10400
C 	C 	0.11430 0.61090 0.84200 -0.12100
C 	C 	0.15320 0.59580 0.91830 0.10100
C 	C 	0.24080 0.51720 0.94110 -0.07600
H 	H 	0.28270 0.47000 0.90630 0.06000
C 	C 	0.25240 0.52290 0.02000 -0.08200
H 	H 	0.30420 0.48120 0.05120 0.06100
C 	C 	0.17120 0.60470 0.04850 0.10600
C 	C 	0.15560 0.63260 0.12870 -0.12200
C 	C 	0.07770 0.71330 0.15540 0.10100
C 	C 	0.05510 0.73710 0.23900 -0.08200
H 	H 	0.08960 0.70170 0.28400 0.06300
C 	C 	0.97610 0.81850 0.24170 -0.08200
H 	H 	0.94410 0.85060 0.28890 0.06700
N 	N 	0.01210 0.78110 0.10690 -0.17600
N 	N 	0.88900 0.90420 0.98980 -0.17800
N 	N 	0.97680 0.76050 0.87090 -0.17900
N 	N 	0.11240 0.64870 0.98610 -0.17700
C 	C 	0.81650 0.99680 0.20020 0.11600
C 	C 	0.74130 0.95450 0.25200 -0.12300
H 	H 	0.73230 0.88500 0.24740 0.08500
C 	C 	0.68060 0.01220 0.30910 0.03100
H 	H 	0.62830 0.98280 0.34200 0.03100
C 	C 	0.69400 0.11340 0.32000 -0.12500
C 	C 	0.77070 0.15510 0.27050 0.06000
H 	H 	0.78180 0.22350 0.27720 0.02100
C 	C 	0.83120 0.09740 0.21150 -0.15800
H 	H 	0.88320 0.12690 0.17840 0.08400
C 	C 	0.62400 0.18020 0.38020 0.35200
C 	C 	0.77140 0.97740 0.78590 0.12000
C 	C 	0.79320 0.07300 0.75800 -0.16500
H 	H 	0.84870 0.09880 0.77960 0.08900
C 	C 	0.73550 0.13320 0.69830 0.06100
H 	H 	0.75380 0.19790 0.67820 0.02100
C 	C 	0.65180 0.09840 0.66860 -0.12800
C 	C 	0.62890 0.00170 0.69660 0.02200
H 	H 	0.57210 0.97670 0.67610 0.03100
C 	C 	0.68920 0.94040 0.75520 -0.12700
H 	H 	0.67360 0.87410 0.77360 0.07800
C 	C 	0.59080 0.16750 0.60530 0.35600
C 	C 	0.16360 0.53790 0.77850 0.11100
C 	C 	0.26210 0.54490 0.73980 -0.14800
H 	H 	0.29970 0.59680 0.75320 0.08900
C 	C 	0.30560 0.47590 0.68150 0.05900
H 	H 	0.37230 0.48150 0.65470 0.01600
C 	C 	0.25160 0.39880 0.66260 -0.12700
C 	C 	0.15440 0.39210 0.70150 0.05900
H 	H 	0.11690 0.34010 0.68850 0.02200
C 	C 	0.11060 0.46080 0.75970 -0.15000
H 	H 	0.04400 0.45470 0.78660 0.08300
C 	C 	0.29880 0.31920 0.60300 0.34800
C 	C 	0.22430 0.57310 0.19060 0.11100
C 	C 	0.21360 0.47120 0.21730 -0.15400
H 	H 	0.16560 0.43750 0.19310 0.08300
C 	C 	0.27200 0.41980 0.27810 0.06700
H 	H 	0.26360 0.35100 0.29590 0.01900
C 	C 	0.34390 0.46780 0.31430 -0.13500
C 	C 	0.35730 0.56730 0.28650 0.06000
H 	H 	0.40650 0.60050 0.30980 0.02400
C 	C 	0.29830 0.61840 0.22420 -0.14700
H 	H 	0.30920 0.68580 0.20430 0.08300
C 	C 	0.40450 0.41290 0.38360 0.36100
O 	O 	0.54640 0.14120 0.41570 -0.45200
O 	O 	0.64360 0.26730 0.39100 -0.34700
O 	O 	0.61750 0.25080 0.58200 -0.37000
O 	O 	0.51210 0.13410 0.57990 -0.44700
O 	O 	0.38490 0.33250 0.56630 -0.40500
O 	O 	0.24990 0.24760 0.59420 -0.30100
O 	O 	0.39550 0.31830 0.39900 -0.40000
O 	O 	0.45770 0.46260 0.42110 -0.39300
N 	N 	0.20570 0.60410 0.50250 -0.16100
C 	C 	0.14790 0.69640 0.52460 0.04400
H 	H 	0.18020 0.73820 0.55590 0.02600
C 	C 	0.04600 0.73270 0.50460 -0.09400
H 	H 	0.01010 0.79840 0.52000 0.06400
C 	C 	0.99760 0.67020 0.46130 0.01100
H 	H 	0.92710 0.69170 0.44690 0.04100
C 	C 	0.05500 0.57400 0.43880 -0.10500
H 	H 	0.02520 0.53000 0.40770 0.06900
C 	C 	0.15670 0.54620 0.46390 0.06700
H 	H 	0.19350 0.47960 0.45180 0.01300
Pt	Pt	0.00264 0.22619 0.01180 0.40400
Cu	Cu	0.54254 0.76515 0.51014 0.91700
Na	Na	0.39288 0.60192 0.50678 0.58700
C 	C 	0.05070 0.15200 0.84070 0.10000
C 	C 	0.12290 0.06590 0.86450 -0.12100
C 	C 	0.14580 0.03770 0.94430 0.09400
C 	C 	0.21700 0.94840 0.97110 -0.07300
H 	H 	0.25040 0.89430 0.93840 0.05900
C 	C 	0.22910 0.95330 0.05040 -0.06400
H 	H 	0.27290 0.90450 0.08350 0.05700
C 	C 	0.16290 0.04650 0.07550 0.09000
C 	C 	0.16030 0.08520 0.15170 -0.11500
C 	C 	0.09550 0.17610 0.17660 0.09500
C 	C 	0.08670 0.21150 0.25690 -0.07600
H 	H 	0.12750 0.18170 0.30050 0.05600
C 	C 	0.00950 0.29510 0.25870 -0.08800
H 	H 	0.98580 0.33510 0.30390 0.06400
C 	C 	0.97010 0.31200 0.17930 0.10400
C 	C 	0.88570 0.38910 0.15800 -0.12100
C 	C 	0.84680 0.40420 0.08170 0.10100
C 	C 	0.75920 0.48280 0.05890 -0.07700
H 	H 	0.71730 0.53000 0.09370 0.06000
C 	C 	0.74760 0.47710 0.98000 -0.08100
H 	H 	0.69580 0.51880 0.94880 0.06100
C 	C 	0.82880 0.39530 0.95150 0.10600
C 	C 	0.84440 0.36740 0.87130 -0.12200
C 	C 	0.92230 0.28670 0.84460 0.10100
C 	C 	0.94490 0.26290 0.76100 -0.08400
H 	H 	0.91040 0.29830 0.71600 0.06300
C 	C 	0.02390 0.18150 0.75830 -0.08100
H 	H 	0.05590 0.14940 0.71110 0.06400
N 	N 	0.98790 0.21890 0.89310 -0.17600
N 	N 	0.11100 0.09580 0.01020 -0.17400
N 	N 	0.02320 0.23950 0.12910 -0.17900
N 	N 	0.88760 0.35130 0.01390 -0.17700
C 	C 	0.18350 0.00320 0.79980 0.11300
C 	C 	0.25870 0.04550 0.74800 -0.18700
H 	H 	0.26770 0.11500 0.75260 0.10400
C 	C 	0.31940 0.98780 0.69090 0.12600
H 	H 	0.37170 0.01720 0.65800 -0.01600
C 	C 	0.30600 0.88660 0.68000 -0.15600
C 	C 	0.22930 0.84490 0.72950 0.07500
H 	H 	0.21820 0.77650 0.72280 0.01700
C 	C 	0.16880 0.90260 0.78850 -0.14700
H 	H 	0.11680 0.87310 0.82160 0.08400
C 	C 	0.37600 0.81980 0.61980 0.36500
C 	C 	0.22860 0.02260 0.21410 0.11200
C 	C 	0.20680 0.92700 0.24200 -0.15000
H 	H 	0.15130 0.90120 0.22040 0.08900
C 	C 	0.26450 0.86680 0.30170 0.07400
H 	H 	0.24620 0.80210 0.32180 0.01800
C 	C 	0.34820 0.90160 0.33140 -0.15700
C 	C 	0.37110 0.99830 0.30340 0.11000
H 	H 	0.42790 0.02330 0.32390 -0.01400
C 	C 	0.31080 0.05960 0.24480 -0.18300
H 	H 	0.32640 0.12590 0.22640 0.09400
C 	C 	0.40920 0.83250 0.39470 0.36900
C 	C 	0.83640 0.46210 0.22150 0.11100
C 	C 	0.73790 0.45510 0.26020 -0.14800
H 	H 	0.70030 0.40320 0.24680 0.08900
C 	C 	0.69440 0.52410 0.31850 0.05900
H 	H 	0.62770 0.51850 0.34530 0.01600
C 	C 	0.74840 0.60120 0.33740 -0.12700
C 	C 	0.84560 0.60790 0.29850 0.05900
H 	H 	0.88310 0.65990 0.31150 0.02300
C 	C 	0.88940 0.53920 0.24030 -0.14900
H 	H 	0.95600 0.54530 0.21340 0.08300
C 	C 	0.70120 0.68080 0.39700 0.34800
C 	C 	0.77570 0.42690 0.80940 0.11100
C 	C 	0.78640 0.52880 0.78270 -0.15300
H 	H 	0.83440 0.56250 0.80690 0.08300
C 	C 	0.72800 0.58020 0.72190 0.06600
H 	H 	0.73640 0.64900 0.70410 0.02000
C 	C 	0.65610 0.53220 0.68570 -0.13400
C 	C 	0.64270 0.43270 0.71350 0.05900
H 	H 	0.59350 0.39950 0.69020 0.02400
C 	C 	0.70170 0.38160 0.77580 -0.14700
H 	H 	0.69080 0.31420 0.79570 0.08300
C 	C 	0.59550 0.58710 0.61640 0.36100
O 	O 	0.45360 0.85880 0.58430 -0.45100
O 	O 	0.35640 0.73270 0.60900 -0.35000
O 	O 	0.38250 0.74920 0.41800 -0.37200
O 	O 	0.48790 0.86590 0.42010 -0.44600
O 	O 	0.61510 0.66750 0.43370 -0.40500
O 	O 	0.75010 0.75240 0.40580 -0.29800
O 	O 	0.60450 0.68170 0.60100 -0.39900
O 	O 	0.54230 0.53740 0.57890 -0.39300
N 	N 	0.79430 0.39590 0.49750 -0.16100
C 	C 	0.85210 0.30360 0.47540 0.04300
H 	H 	0.81980 0.26180 0.44410 0.02500
C 	C 	0.95400 0.26730 0.49540 -0.09400
H 	H 	0.98990 0.20160 0.48000 0.06100
C 	C 	0.00240 0.32980 0.53870 0.01100
H 	H 	0.07290 0.30830 0.55310 0.04000
C 	C 	0.94500 0.42600 0.56120 -0.10500
H 	H 	0.97480 0.47000 0.59230 0.06900
C 	C 	0.84330 0.45380 0.53610 0.06600
H 	H 	0.80650 0.52040 0.54820 0.01300
Na	Na	0.50000 -0.00000 0.50000 0.57500
