data_crystal

_cell_length_a 25.11170
_cell_length_b 25.11170
_cell_length_c 13.20330
_cell_angle_alpha 90.00000
_cell_angle_beta  90.00000
_cell_angle_gamma 120.00000

_symmetry_space_group_name_	'P 1'
_symmetry_space_group_name_H-M	'P 1'

loop_
_symmetry_equiv_pos_as_xyz
  x,y,z

loop_
_atom_site_label
_atom_site_type_symbol
_atom_site_fract_x
_atom_site_fract_y
_atom_site_fract_z
_atom_site_charge
Zn	Zn	0.42879 0.33157 0.00124 1.13000
N 	N 	0.41530 0.25240 0.05340 -0.37000
C 	C 	0.39700 0.39030 0.17660 0.26100
C 	C 	0.37580 0.21610 0.13260 0.01100
N 	N 	0.51750 0.39670 0.99450 -0.31200
N 	N 	0.31800 0.38910 0.11920 -0.12600
N 	N 	0.38690 0.36640 0.08670 -0.32900
C 	C 	0.34180 0.22750 0.20230 -0.12900
H 	H 	0.34330 0.26530 0.20440 0.03500
N 	N 	0.33730 0.36770 0.05100 -0.13500
N 	N 	0.35400 0.40380 0.20160 -0.31200
N 	N 	0.55860 0.38740 0.03880 -0.16800
C 	C 	0.30490 0.18000 0.26990 -0.04800
H 	H 	0.27990 0.18570 0.31560 0.00600
C 	C 	0.44430 0.39250 0.24790 -0.78500
H 	H 	0.47040 0.38080 0.21260 0.20200
H 	H 	0.46870 0.43340 0.27380 0.21300
H 	H 	0.42430 0.36450 0.30300 0.23200
H 	H 	0.47210 0.45590 0.90440 0.35700
H 	H 	0.51670 0.51740 0.96050 0.36900
H 	H 	0.53460 0.50340 0.85400 0.36400
H 	H 	0.48920 0.20860 0.90410 0.21200
H 	H 	0.46240 0.24970 0.86710 0.22200
H 	H 	0.51770 0.27630 0.94340 0.25200
Zn	Zn	0.09546 0.66490 0.33457 1.16400
N 	N 	0.08197 0.58573 0.38673 -0.39100
C 	C 	0.06367 0.72363 0.50993 0.27500
C 	C 	0.04247 0.54943 0.46593 0.03100
N 	N 	0.18417 0.73003 0.32783 -0.35800
N 	N 	0.98467 0.72243 0.45253 -0.06400
N 	N 	0.05357 0.69973 0.42003 -0.31000
C 	C 	0.00847 0.56083 0.53563 -0.19800
H 	H 	0.00997 0.59863 0.53773 0.05400
N 	N 	0.00397 0.70103 0.38433 -0.12900
N 	N 	0.02067 0.73713 0.53493 -0.33600
N 	N 	0.22527 0.72073 0.37213 -0.11100
C 	C 	0.97157 0.51333 0.60323 0.02300
H 	H 	0.94657 0.51903 0.64893 0.00500
C 	C 	0.11097 0.72583 0.58123 -0.80300
H 	H 	0.13707 0.71413 0.54593 0.21900
H 	H 	0.13537 0.76673 0.60713 0.22500
H 	H 	0.09097 0.69783 0.63633 0.23400
H 	H 	0.13877 0.78923 0.23773 0.23700
H 	H 	0.18337 0.85073 0.29383 0.24200
H 	H 	0.20127 0.83673 0.18733 0.24300
H 	H 	0.15587 0.54193 0.23743 0.26500
H 	H 	0.12907 0.58303 0.20043 0.27500
H 	H 	0.18437 0.60963 0.27673 0.29600
Zn	Zn	0.76212 0.99824 0.66791 1.15100
N 	N 	0.74863 0.91907 0.72007 -0.39700
C 	C 	0.73033 0.05697 0.84327 0.34700
C 	C 	0.70913 0.88277 0.79927 0.01800
N 	N 	0.85083 0.06337 0.66117 -0.36500
N 	N 	0.65133 0.05577 0.78587 -0.08900
N 	N 	0.72023 0.03307 0.75337 -0.30200
C 	C 	0.67513 0.89417 0.86897 -0.10300
H 	H 	0.67663 0.93197 0.87107 0.03400
N 	N 	0.67063 0.03437 0.71767 -0.07600
N 	N 	0.68733 0.07047 0.86827 -0.28600
N 	N 	0.89193 0.05407 0.70547 -0.09100
C 	C 	0.63823 0.84667 0.93657 -0.04100
H 	H 	0.61323 0.85237 0.98227 0.04900
C 	C 	0.77763 0.05917 0.91457 -0.95500
H 	H 	0.80373 0.04747 0.87927 0.28500
H 	H 	0.80203 0.10007 0.94047 0.30200
H 	H 	0.75763 0.03117 0.96967 0.33600
H 	H 	0.80543 0.12257 0.57107 0.31600
H 	H 	0.85003 0.18407 0.62717 0.31800
H 	H 	0.86793 0.17007 0.52067 0.33000
H 	H 	0.82253 0.87527 0.57077 0.29400
H 	H 	0.79573 0.91637 0.53377 0.30800
H 	H 	0.85103 0.94297 0.61007 0.31800
Zn	Zn	0.66843 0.09722 0.00124 1.13000
N 	N 	0.74760 0.16290 0.05340 -0.37100
C 	C 	0.60970 0.00670 0.17660 0.33500
C 	C 	0.78390 0.15970 0.13260 0.01100
N 	N 	0.60330 0.12080 0.99450 -0.27700
N 	N 	0.61090 0.92890 0.11920 -0.12900
N 	N 	0.63360 0.02050 0.08670 -0.31800
C 	C 	0.77250 0.11430 0.20230 -0.12700
H 	H 	0.73470 0.07800 0.20440 0.04200
N 	N 	0.63230 0.96960 0.05100 -0.15900
N 	N 	0.59620 0.95020 0.20160 -0.34500
N 	N 	0.61260 0.17120 0.03880 -0.16900
C 	C 	0.82000 0.12490 0.26990 -0.04500
H 	H 	0.81430 0.09420 0.31560 0.01500
C 	C 	0.60750 0.05180 0.24790 -0.87100
H 	H 	0.61920 0.08960 0.21260 0.22900
H 	H 	0.56660 0.03530 0.27380 0.25200
H 	H 	0.63550 0.05980 0.30300 0.26900
H 	H 	0.54410 0.01620 0.90440 0.28200
H 	H 	0.48260 0.99930 0.96050 0.22400
H 	H 	0.49660 0.03120 0.85400 0.25300
H 	H 	0.79140 0.28060 0.90410 0.21000
H 	H 	0.75030 0.21270 0.86710 0.22000
H 	H 	0.72370 0.24140 0.94340 0.25100
Zn	Zn	0.33510 0.43055 0.33457 1.16600
N 	N 	0.41427 0.49623 0.38673 -0.38700
C 	C 	0.27637 0.34003 0.50993 0.28200
C 	C 	0.45057 0.49303 0.46593 0.02600
N 	N 	0.26997 0.45413 0.32783 -0.36000
N 	N 	0.27757 0.26223 0.45253 -0.10900
N 	N 	0.30027 0.35383 0.42003 -0.30700
C 	C 	0.43917 0.44763 0.53563 -0.11700
H 	H 	0.40137 0.41133 0.53773 0.04200
N 	N 	0.29897 0.30293 0.38433 -0.09400
N 	N 	0.26287 0.28353 0.53493 -0.31100
N 	N 	0.27927 0.50453 0.37213 -0.11100
C 	C 	0.48667 0.45823 0.60323 -0.04200
H 	H 	0.48097 0.42753 0.64893 0.01300
C 	C 	0.27417 0.38513 0.58123 -0.81200
H 	H 	0.28587 0.42293 0.54593 0.22300
H 	H 	0.23327 0.36863 0.60713 0.22700
H 	H 	0.30217 0.39313 0.63633 0.24300
H 	H 	0.21077 0.34953 0.23773 0.24600
H 	H 	0.14927 0.33263 0.29383 0.24900
H 	H 	0.16327 0.36453 0.18733 0.25000
H 	H 	0.45807 0.61393 0.23743 0.27000
H 	H 	0.41697 0.54603 0.20043 0.28100
H 	H 	0.39037 0.57473 0.27673 0.30100
Zn	Zn	0.00176 0.76389 0.66791 1.15000
N 	N 	0.08093 0.82957 0.72007 -0.38500
C 	C 	0.94303 0.67337 0.84327 0.34200
C 	C 	0.11723 0.82637 0.79927 0.02000
N 	N 	0.93663 0.78747 0.66117 -0.36300
N 	N 	0.94423 0.59557 0.78587 -0.08900
N 	N 	0.96693 0.68717 0.75337 -0.30200
C 	C 	0.10583 0.78097 0.86897 -0.10900
H 	H 	0.06803 0.74467 0.87107 0.03500
N 	N 	0.96563 0.63627 0.71767 -0.07600
N 	N 	0.92953 0.61687 0.86827 -0.28500
N 	N 	0.94593 0.83787 0.70547 -0.09700
C 	C 	0.15333 0.79157 0.93657 -0.03600
H 	H 	0.14763 0.76087 0.98227 0.04700
C 	C 	0.94083 0.71847 0.91457 -0.94100
H 	H 	0.95253 0.75627 0.87927 0.27700
H 	H 	0.89993 0.70197 0.94047 0.29600
H 	H 	0.96883 0.72647 0.96967 0.32800
H 	H 	0.87743 0.68287 0.57107 0.31100
H 	H 	0.81593 0.66597 0.62717 0.31200
H 	H 	0.82993 0.69787 0.52067 0.32200
H 	H 	0.12473 0.94727 0.57077 0.24100
H 	H 	0.08363 0.87937 0.53377 0.26400
H 	H 	0.05703 0.90807 0.61007 0.26900
Zn	Zn	0.90278 0.57121 0.00124 1.13100
N 	N 	0.83710 0.58470 0.05340 -0.37100
C 	C 	0.99330 0.60300 0.17660 0.33500
C 	C 	0.84030 0.62420 0.13260 0.01100
N 	N 	0.87920 0.48250 0.99450 -0.27700
N 	N 	0.07110 0.68200 0.11920 -0.12800
N 	N 	0.97950 0.61310 0.08670 -0.31800
C 	C 	0.88570 0.65820 0.20230 -0.12800
H 	H 	0.92200 0.65670 0.20440 0.04100
N 	N 	0.03040 0.66270 0.05100 -0.15900
N 	N 	0.04980 0.64600 0.20160 -0.34500
N 	N 	0.82880 0.44140 0.03880 -0.16900
C 	C 	0.87510 0.69510 0.26990 -0.04700
H 	H 	0.90580 0.72010 0.31560 0.01200
C 	C 	0.94820 0.55570 0.24790 -0.87000
H 	H 	0.91040 0.52960 0.21260 0.22900
H 	H 	0.96470 0.53130 0.27380 0.25200
H 	H 	0.94020 0.57570 0.30300 0.26900
H 	H 	0.98380 0.52790 0.90440 0.28200
H 	H 	0.00070 0.48330 0.96050 0.22400
H 	H 	0.96880 0.46540 0.85400 0.25300
H 	H 	0.71940 0.51080 0.90410 0.21100
H 	H 	0.78730 0.53760 0.86710 0.22200
H 	H 	0.75860 0.48230 0.94340 0.25200
Zn	Zn	0.56945 0.90454 0.33457 1.16400
N 	N 	0.50377 0.91803 0.38673 -0.39100
C 	C 	0.65997 0.93633 0.50993 0.27400
C 	C 	0.50697 0.95753 0.46593 0.03100
N 	N 	0.54587 0.81583 0.32783 -0.36000
N 	N 	0.73777 0.01533 0.45253 -0.06300
N 	N 	0.64617 0.94643 0.42003 -0.31000
C 	C 	0.55237 0.99153 0.53563 -0.19800
H 	H 	0.58867 0.99003 0.53773 0.05400
N 	N 	0.69707 0.99603 0.38433 -0.12900
N 	N 	0.71647 0.97933 0.53493 -0.33700
N 	N 	0.49547 0.77473 0.37213 -0.11100
C 	C 	0.54177 0.02843 0.60323 0.02300
H 	H 	0.57247 0.05343 0.64893 0.00500
C 	C 	0.61487 0.88903 0.58123 -0.80100
H 	H 	0.57707 0.86293 0.54593 0.21900
H 	H 	0.63137 0.86463 0.60713 0.22300
H 	H 	0.60687 0.90903 0.63633 0.23300
H 	H 	0.65047 0.86123 0.23773 0.24400
H 	H 	0.66737 0.81663 0.29383 0.25000
H 	H 	0.63547 0.79873 0.18733 0.25000
H 	H 	0.38607 0.84413 0.23743 0.26600
H 	H 	0.45397 0.87093 0.20043 0.27500
H 	H 	0.42527 0.81563 0.27673 0.29600
Zn	Zn	0.23611 0.23788 0.66791 1.16700
N 	N 	0.17043 0.25137 0.72007 -0.39200
C 	C 	0.32663 0.26967 0.84327 0.32400
C 	C 	0.17363 0.29087 0.79927 0.03100
N 	N 	0.21253 0.14917 0.66117 -0.37600
N 	N 	0.40443 0.34867 0.78587 -0.10100
N 	N 	0.31283 0.27977 0.75337 -0.31400
C 	C 	0.21903 0.32487 0.86897 -0.11400
H 	H 	0.25533 0.32337 0.87107 0.05300
N 	N 	0.36373 0.32937 0.71767 -0.09000
N 	N 	0.38313 0.31267 0.86827 -0.28900
N 	N 	0.16213 0.10807 0.70547 -0.10800
C 	C 	0.20843 0.36177 0.93657 -0.02700
H 	H 	0.23913 0.38677 0.98227 0.04700
C 	C 	0.28153 0.22237 0.91457 -0.90900
H 	H 	0.24373 0.19627 0.87927 0.25800
H 	H 	0.29803 0.19797 0.94047 0.28500
H 	H 	0.27353 0.24237 0.96967 0.30400
H 	H 	0.31713 0.19457 0.57107 0.30700
H 	H 	0.33403 0.14997 0.62717 0.31300
H 	H 	0.30213 0.13207 0.52067 0.32400
H 	H 	0.05273 0.17747 0.57077 0.28700
H 	H 	0.12063 0.20427 0.53377 0.30900
H 	H 	0.09193 0.14897 0.61007 0.32400
Zn	Zn	0.66843 0.57121 0.00124 1.12900
N 	N 	0.74760 0.58470 0.05340 -0.37100
C 	C 	0.60970 0.60300 0.17660 0.26100
C 	C 	0.78390 0.62420 0.13260 0.01100
N 	N 	0.60330 0.48250 0.99450 -0.31200
N 	N 	0.61090 0.68200 0.11920 -0.12600
N 	N 	0.63360 0.61310 0.08670 -0.32900
C 	C 	0.77250 0.65820 0.20230 -0.12900
H 	H 	0.73470 0.65670 0.20440 0.03500
N 	N 	0.63230 0.66270 0.05100 -0.13500
N 	N 	0.59620 0.64600 0.20160 -0.31200
N 	N 	0.61260 0.44140 0.03880 -0.16800
C 	C 	0.82000 0.69510 0.26990 -0.04800
H 	H 	0.81430 0.72010 0.31560 0.00600
C 	C 	0.60750 0.55570 0.24790 -0.78500
H 	H 	0.61920 0.52960 0.21260 0.20200
H 	H 	0.56660 0.53130 0.27380 0.21300
H 	H 	0.63550 0.57570 0.30300 0.23200
H 	H 	0.54410 0.52790 0.90440 0.35700
H 	H 	0.48260 0.48330 0.96050 0.36900
H 	H 	0.49660 0.46540 0.85400 0.36400
H 	H 	0.79140 0.51080 0.90410 0.21200
H 	H 	0.75030 0.53760 0.86710 0.22200
H 	H 	0.72370 0.48230 0.94340 0.25200
Zn	Zn	0.33510 0.90454 0.33457 1.16400
N 	N 	0.41427 0.91803 0.38673 -0.39100
C 	C 	0.27637 0.93633 0.50993 0.27500
C 	C 	0.45057 0.95753 0.46593 0.03100
N 	N 	0.26997 0.81583 0.32783 -0.35800
N 	N 	0.27757 0.01533 0.45253 -0.06400
N 	N 	0.30027 0.94643 0.42003 -0.31000
C 	C 	0.43917 0.99153 0.53563 -0.19800
H 	H 	0.40137 0.99003 0.53773 0.05400
N 	N 	0.29897 0.99603 0.38433 -0.12900
N 	N 	0.26287 0.97933 0.53493 -0.33600
N 	N 	0.27927 0.77473 0.37213 -0.11100
C 	C 	0.48667 0.02843 0.60323 0.02300
H 	H 	0.48097 0.05343 0.64893 0.00500
C 	C 	0.27417 0.88903 0.58123 -0.80300
H 	H 	0.28587 0.86293 0.54593 0.21900
H 	H 	0.23327 0.86463 0.60713 0.22500
H 	H 	0.30217 0.90903 0.63633 0.23400
H 	H 	0.21077 0.86123 0.23773 0.23700
H 	H 	0.14927 0.81663 0.29383 0.24200
H 	H 	0.16327 0.79873 0.18733 0.24300
H 	H 	0.45807 0.84413 0.23743 0.26500
H 	H 	0.41697 0.87093 0.20043 0.27500
H 	H 	0.39037 0.81563 0.27673 0.29600
Zn	Zn	0.00176 0.23788 0.66791 1.15100
N 	N 	0.08093 0.25137 0.72007 -0.39700
C 	C 	0.94303 0.26967 0.84327 0.34700
C 	C 	0.11723 0.29087 0.79927 0.01800
N 	N 	0.93663 0.14917 0.66117 -0.36500
N 	N 	0.94423 0.34867 0.78587 -0.08900
N 	N 	0.96693 0.27977 0.75337 -0.30200
C 	C 	0.10583 0.32487 0.86897 -0.10300
H 	H 	0.06803 0.32337 0.87107 0.03400
N 	N 	0.96563 0.32937 0.71767 -0.07600
N 	N 	0.92953 0.31267 0.86827 -0.28600
N 	N 	0.94593 0.10807 0.70547 -0.09100
C 	C 	0.15333 0.36177 0.93657 -0.04100
H 	H 	0.14763 0.38677 0.98227 0.04900
C 	C 	0.94083 0.22237 0.91457 -0.95500
H 	H 	0.95253 0.19627 0.87927 0.28500
H 	H 	0.89993 0.19797 0.94047 0.30200
H 	H 	0.96883 0.24237 0.96967 0.33600
H 	H 	0.87743 0.19457 0.57107 0.31600
H 	H 	0.81593 0.14997 0.62717 0.31800
H 	H 	0.82993 0.13207 0.52067 0.33000
H 	H 	0.12473 0.17747 0.57077 0.29400
H 	H 	0.08363 0.20427 0.53377 0.30800
H 	H 	0.05703 0.14897 0.61007 0.31800
Zn	Zn	0.90278 0.33157 0.00124 1.13000
N 	N 	0.83710 0.25240 0.05340 -0.37100
C 	C 	0.99330 0.39030 0.17660 0.33500
C 	C 	0.84030 0.21610 0.13260 0.01100
N 	N 	0.87920 0.39670 0.99450 -0.27700
N 	N 	0.07110 0.38910 0.11920 -0.12900
N 	N 	0.97950 0.36640 0.08670 -0.31800
C 	C 	0.88570 0.22750 0.20230 -0.12700
H 	H 	0.92200 0.26530 0.20440 0.04200
N 	N 	0.03040 0.36770 0.05100 -0.15900
N 	N 	0.04980 0.40380 0.20160 -0.34500
N 	N 	0.82880 0.38740 0.03880 -0.16900
C 	C 	0.87510 0.18000 0.26990 -0.04500
H 	H 	0.90580 0.18570 0.31560 0.01500
C 	C 	0.94820 0.39250 0.24790 -0.87100
H 	H 	0.91040 0.38080 0.21260 0.22900
H 	H 	0.96470 0.43340 0.27380 0.25200
H 	H 	0.94020 0.36450 0.30300 0.26900
H 	H 	0.98380 0.45590 0.90440 0.28200
H 	H 	0.00070 0.51740 0.96050 0.22400
H 	H 	0.96880 0.50340 0.85400 0.25300
H 	H 	0.71940 0.20860 0.90410 0.21000
H 	H 	0.78730 0.24970 0.86710 0.22000
H 	H 	0.75860 0.27630 0.94340 0.25100
Zn	Zn	0.56945 0.66490 0.33457 1.16600
N 	N 	0.50377 0.58573 0.38673 -0.38700
C 	C 	0.65997 0.72363 0.50993 0.28200
C 	C 	0.50697 0.54943 0.46593 0.02600
N 	N 	0.54587 0.73003 0.32783 -0.36000
N 	N 	0.73777 0.72243 0.45253 -0.10900
N 	N 	0.64617 0.69973 0.42003 -0.30700
C 	C 	0.55237 0.56083 0.53563 -0.11700
H 	H 	0.58867 0.59863 0.53773 0.04200
N 	N 	0.69707 0.70103 0.38433 -0.09400
N 	N 	0.71647 0.73713 0.53493 -0.31100
N 	N 	0.49547 0.72073 0.37213 -0.11100
C 	C 	0.54177 0.51333 0.60323 -0.04200
H 	H 	0.57247 0.51903 0.64893 0.01300
C 	C 	0.61487 0.72583 0.58123 -0.81200
H 	H 	0.57707 0.71413 0.54593 0.22300
H 	H 	0.63137 0.76673 0.60713 0.22700
H 	H 	0.60687 0.69783 0.63633 0.24300
H 	H 	0.65047 0.78923 0.23773 0.24600
H 	H 	0.66737 0.85073 0.29383 0.24900
H 	H 	0.63547 0.83673 0.18733 0.25000
H 	H 	0.38607 0.54193 0.23743 0.27000
H 	H 	0.45397 0.58303 0.20043 0.28100
H 	H 	0.42527 0.60963 0.27673 0.30100
Zn	Zn	0.23611 0.99824 0.66791 1.15000
N 	N 	0.17043 0.91907 0.72007 -0.38500
C 	C 	0.32663 0.05697 0.84327 0.34200
C 	C 	0.17363 0.88277 0.79927 0.02000
N 	N 	0.21253 0.06337 0.66117 -0.36300
N 	N 	0.40443 0.05577 0.78587 -0.08900
N 	N 	0.31283 0.03307 0.75337 -0.30200
C 	C 	0.21903 0.89417 0.86897 -0.10900
H 	H 	0.25533 0.93197 0.87107 0.03500
N 	N 	0.36373 0.03437 0.71767 -0.07600
N 	N 	0.38313 0.07047 0.86827 -0.28500
N 	N 	0.16213 0.05407 0.70547 -0.09700
C 	C 	0.20843 0.84667 0.93657 -0.03600
H 	H 	0.23913 0.85237 0.98227 0.04700
C 	C 	0.28153 0.05917 0.91457 -0.94100
H 	H 	0.24373 0.04747 0.87927 0.27700
H 	H 	0.29803 0.10007 0.94047 0.29600
H 	H 	0.27353 0.03117 0.96967 0.32800
H 	H 	0.31713 0.12257 0.57107 0.31100
H 	H 	0.33403 0.18407 0.62717 0.31200
H 	H 	0.30213 0.17007 0.52067 0.32200
H 	H 	0.05273 0.87527 0.57077 0.24100
H 	H 	0.12063 0.91637 0.53377 0.26400
H 	H 	0.09193 0.94297 0.61007 0.26900
Zn	Zn	0.42879 0.09722 0.00124 1.13100
N 	N 	0.41530 0.16290 0.05340 -0.37100
C 	C 	0.39700 0.00670 0.17660 0.33500
C 	C 	0.37580 0.15970 0.13260 0.01100
N 	N 	0.51750 0.12080 0.99450 -0.27700
N 	N 	0.31800 0.92890 0.11920 -0.12800
N 	N 	0.38690 0.02050 0.08670 -0.31800
C 	C 	0.34180 0.11430 0.20230 -0.12800
H 	H 	0.34330 0.07800 0.20440 0.04100
N 	N 	0.33730 0.96960 0.05100 -0.15900
N 	N 	0.35400 0.95020 0.20160 -0.34500
N 	N 	0.55860 0.17120 0.03880 -0.16900
C 	C 	0.30490 0.12490 0.26990 -0.04700
H 	H 	0.27990 0.09420 0.31560 0.01200
C 	C 	0.44430 0.05180 0.24790 -0.87000
H 	H 	0.47040 0.08960 0.21260 0.22900
H 	H 	0.46870 0.03530 0.27380 0.25200
H 	H 	0.42430 0.05980 0.30300 0.26900
H 	H 	0.47210 0.01620 0.90440 0.28200
H 	H 	0.51670 0.99930 0.96050 0.22400
H 	H 	0.53460 0.03120 0.85400 0.25300
H 	H 	0.48920 0.28060 0.90410 0.21100
H 	H 	0.46240 0.21270 0.86710 0.22200
H 	H 	0.51770 0.24140 0.94340 0.25200
Zn	Zn	0.09546 0.43055 0.33457 1.16400
N 	N 	0.08197 0.49623 0.38673 -0.39100
C 	C 	0.06367 0.34003 0.50993 0.27400
C 	C 	0.04247 0.49303 0.46593 0.03100
N 	N 	0.18417 0.45413 0.32783 -0.36000
N 	N 	0.98467 0.26223 0.45253 -0.06300
N 	N 	0.05357 0.35383 0.42003 -0.31000
C 	C 	0.00847 0.44763 0.53563 -0.19800
H 	H 	0.00997 0.41133 0.53773 0.05400
N 	N 	0.00397 0.30293 0.38433 -0.12900
N 	N 	0.02067 0.28353 0.53493 -0.33700
N 	N 	0.22527 0.50453 0.37213 -0.11100
C 	C 	0.97157 0.45823 0.60323 0.02300
H 	H 	0.94657 0.42753 0.64893 0.00500
C 	C 	0.11097 0.38513 0.58123 -0.80100
H 	H 	0.13707 0.42293 0.54593 0.21900
H 	H 	0.13537 0.36863 0.60713 0.22300
H 	H 	0.09097 0.39313 0.63633 0.23300
H 	H 	0.13877 0.34953 0.23773 0.24400
H 	H 	0.18337 0.33263 0.29383 0.25000
H 	H 	0.20127 0.36453 0.18733 0.25000
H 	H 	0.15587 0.61393 0.23743 0.26600
H 	H 	0.12907 0.54603 0.20043 0.27500
H 	H 	0.18437 0.57473 0.27673 0.29600
Zn	Zn	0.76212 0.76389 0.66791 1.16700
N 	N 	0.74863 0.82957 0.72007 -0.39200
C 	C 	0.73033 0.67337 0.84327 0.32400
C 	C 	0.70913 0.82637 0.79927 0.03100
N 	N 	0.85083 0.78747 0.66117 -0.37600
N 	N 	0.65133 0.59557 0.78587 -0.10100
N 	N 	0.72023 0.68717 0.75337 -0.31400
C 	C 	0.67513 0.78097 0.86897 -0.11400
H 	H 	0.67663 0.74467 0.87107 0.05300
N 	N 	0.67063 0.63627 0.71767 -0.09000
N 	N 	0.68733 0.61687 0.86827 -0.28900
N 	N 	0.89193 0.83787 0.70547 -0.10800
C 	C 	0.63823 0.79157 0.93657 -0.02700
H 	H 	0.61323 0.76087 0.98227 0.04700
C 	C 	0.77763 0.71847 0.91457 -0.90900
H 	H 	0.80373 0.75627 0.87927 0.25800
H 	H 	0.80203 0.70197 0.94047 0.28500
H 	H 	0.75763 0.72647 0.96967 0.30400
H 	H 	0.80543 0.68287 0.57107 0.30700
H 	H 	0.85003 0.66597 0.62717 0.31300
H 	H 	0.86793 0.69787 0.52067 0.32400
H 	H 	0.82253 0.94727 0.57077 0.28700
H 	H 	0.79573 0.87937 0.53377 0.30900
H 	H 	0.85103 0.90807 0.61007 0.32400
C 	C 	0.54610 0.45390 0.96850 0.62500
C 	C 	0.51440 0.48560 0.91700 -2.15100
C 	C 	0.21277 0.78723 0.30183 0.44400
C 	C 	0.18107 0.81893 0.25033 -1.55500
C 	C 	0.87943 0.12057 0.63517 0.55400
C 	C 	0.84773 0.15227 0.58367 -1.95000
C 	C 	0.54610 0.09220 0.96850 0.47800
C 	C 	0.51440 0.02880 0.91700 -1.50200
C 	C 	0.21277 0.42553 0.30183 0.45200
C 	C 	0.18107 0.36213 0.25033 -1.59100
C 	C 	0.87943 0.75887 0.63517 0.54300
C 	C 	0.84773 0.69547 0.58367 -1.92000
C 	C 	0.90780 0.45390 0.96850 0.47800
C 	C 	0.97120 0.48560 0.91700 -1.50200
C 	C 	0.57447 0.78723 0.30183 0.45200
C 	C 	0.63787 0.81893 0.25033 -1.59100
C 	C 	0.24113 0.12057 0.63517 0.54300
C 	C 	0.30453 0.15227 0.58367 -1.92000
C 	C 	0.43700 0.21850 0.00850 0.28200
C 	C 	0.48030 0.24015 0.92350 -1.34900
C 	C 	0.10367 0.55183 0.34183 0.49800
C 	C 	0.14697 0.57348 0.25683 -1.81800
C 	C 	0.77033 0.88517 0.67517 0.54400
C 	C 	0.81363 0.90682 0.59017 -1.96600
C 	C 	0.78150 0.21850 0.00850 0.27800
C 	C 	0.75985 0.24015 0.92350 -1.34000
C 	C 	0.44817 0.55183 0.34183 0.51200
C 	C 	0.42652 0.57348 0.25683 -1.84700
C 	C 	0.11483 0.88517 0.67517 0.47200
C 	C 	0.09318 0.90682 0.59017 -1.71200
C 	C 	0.78150 0.56300 0.00850 0.28200
C 	C 	0.75985 0.51970 0.92350 -1.34900
C 	C 	0.44817 0.89633 0.34183 0.49800
C 	C 	0.42652 0.85303 0.25683 -1.81800
C 	C 	0.11483 0.22967 0.67517 0.54400
C 	C 	0.09318 0.18637 0.59017 -1.96600
