data_crystal

_cell_length_a 6.91000
_cell_length_b 7.38900
_cell_length_c 8.22300
_cell_angle_alpha 90.08000
_cell_angle_beta  109.83000
_cell_angle_gamma 93.37000

_symmetry_space_group_name_	'P 1'
_symmetry_space_group_name_H-M	'P 1'

loop_
_symmetry_equiv_pos_as_xyz
  x,y,z

loop_
_atom_site_label
_atom_site_type_symbol
_atom_site_fract_x
_atom_site_fract_y
_atom_site_fract_z
_atom_site_charge
Ni	Ni	0.00000 0.50000 -0.00000 0.96400
Ni	Ni	0.50000 0.00000 -0.00000 0.93800
H 	H 	0.42900 0.79600 0.53750 0.08500
H 	H 	0.57100 0.20400 0.46250 0.00600
C 	C 	0.58100 0.66130 0.84030 0.33200
C 	C 	0.53950 0.57140 0.66680 -0.02900
C 	C 	0.58120 0.39210 0.64280 -0.08800
C 	C 	0.45790 0.67700 0.52260 -0.01300
C 	C 	0.64760 0.26050 0.78800 0.34600
C 	C 	0.41900 0.33870 0.15970 0.38000
C 	C 	0.46050 0.42860 0.33320 -0.13500
C 	C 	0.41880 0.60790 0.35720 -0.06300
C 	C 	0.54210 0.32300 0.47740 0.04100
C 	C 	0.35240 0.73950 0.21200 0.33900
O 	O 	0.44760 0.76440 0.85100 -0.25300
O 	O 	0.74510 0.63790 0.96150 -0.23400
O 	O 	0.82930 0.27030 0.89540 -0.28900
O 	O 	0.51250 0.14110 0.78970 -0.37400
O 	O 	0.55240 0.23560 0.14900 -0.50100
O 	O 	0.25490 0.36210 0.03850 -0.58000
O 	O 	0.17070 0.72970 0.10460 -0.50700
O 	O 	0.48750 0.85890 0.21030 -0.36500
