data_crystal

_cell_length_a 12.63560
_cell_length_b 12.69630
_cell_length_c 22.17550
_cell_angle_alpha 84.86400
_cell_angle_beta  88.08800
_cell_angle_gamma 72.98000

_symmetry_space_group_name_	'P 1'
_symmetry_space_group_name_H-M	'P 1'

loop_
_symmetry_equiv_pos_as_xyz
  x,y,z

loop_
_atom_site_label
_atom_site_type_symbol
_atom_site_fract_x
_atom_site_fract_y
_atom_site_fract_z
_atom_site_charge
Ag	Ag	0.20449 0.41297 0.34693 0.43100
Ag	Ag	0.29361 0.60671 0.30066 0.42900
Ag	Ag	0.38949 0.40719 0.23907 0.41700
Ag	Ag	0.23522 0.58565 0.15907 0.42900
Ag	Ag	0.16162 0.38580 0.20204 0.42800
Ag	Ag	0.03133 0.57511 0.27309 0.41600
Sr	Sr	0.83904 0.04292 0.45728 1.50100
Sr	Sr	0.86945 0.89220 0.18048 1.48400
Sr	Sr	0.64513 0.94627 0.04992 1.52600
S 	S 	0.10443 0.68003 0.34266 -0.38500
S 	S 	0.41134 0.34225 0.34704 -0.32500
S 	S 	0.35207 0.68636 0.20290 -0.33100
S 	S 	0.34921 0.29614 0.15920 -0.31600
S 	S 	0.03066 0.65075 0.16437 -0.51500
S 	S 	0.10872 0.29924 0.29870 -0.32600
O 	O 	0.92064 0.84395 0.42449 -0.47800
O 	O 	0.04679 0.88001 0.47768 -0.55100
O 	O 	0.51818 0.21396 0.46591 -0.32700
O 	O 	0.69182 0.22035 0.45828 -0.47500
O 	O 	0.53250 0.82715 0.11255 -0.42500
O 	O 	0.55850 0.82779 0.21112 -0.38100
O 	O 	0.58211 0.16297 0.07648 -0.42500
O 	O 	0.45396 0.11731 0.02975 -0.55400
O 	O 	0.81000 0.77303 0.01285 -0.40400
O 	O 	0.80050 0.78290 0.11180 -0.52400
O 	O 	0.95732 0.11942 0.38017 -0.46000
O 	O 	0.97117 0.11196 0.28023 -0.36600
O 	O 	0.83570 0.99430 0.06716 -1.01700
O 	O 	0.65765 0.97630 0.16507 -1.59900
N 	N 	0.14670 0.51327 0.42924 -0.22100
N 	N 	0.43550 0.53720 0.36941 -0.21700
N 	N 	0.51410 0.49440 0.19752 -0.22100
N 	N 	0.32127 0.47780 0.08244 -0.22100
N 	N 	0.02850 0.45696 0.12901 -0.21700
N 	N 	0.91920 0.46680 0.29715 -0.22900
C 	C 	0.10430 0.62310 0.41830 0.14600
C 	C 	0.06510 0.69140 0.46544 -0.20600
C 	C 	0.07490 0.64290 0.52426 0.10200
H 	H 	0.05230 0.68660 0.55650 -0.01300
C 	C 	0.11790 0.53020 0.53507 -0.17700
H 	H 	0.12380 0.49660 0.57430 0.08200
C 	C 	0.15190 0.46860 0.48661 0.10100
H 	H 	0.17980 0.39230 0.49380 -0.02400
C 	C 	0.00830 0.81320 0.45473 0.41000
C 	C 	0.46890 0.42780 0.38534 0.12800
C 	C 	0.55270 0.38250 0.42864 -0.17200
C 	C 	0.60440 0.45220 0.45161 0.09500
H 	H 	0.66250 0.42360 0.47870 0.00800
C 	C 	0.57010 0.56380 0.43436 -0.17100
H 	H 	0.60420 0.61150 0.44950 0.08900
C 	C 	0.48470 0.60280 0.39445 0.09500
H 	H 	0.45940 0.67860 0.38410 -0.02300
C 	C 	0.59000 0.26220 0.45193 0.38100
C 	C 	0.48920 0.60560 0.19069 0.12400
C 	C 	0.57080 0.65700 0.17322 -0.16900
C 	C 	0.67800 0.59150 0.16479 0.08400
H 	H 	0.73390 0.62420 0.15490 -0.00100
C 	C 	0.70230 0.47800 0.17100 -0.17100
H 	H 	0.77360 0.43310 0.16430 0.08100
C 	C 	0.61800 0.43350 0.18739 0.09400
H 	H 	0.63380 0.35700 0.19170 -0.03300
C 	C 	0.54920 0.78090 0.16504 0.37300
C 	C 	0.36710 0.36770 0.08959 0.13700
C 	C 	0.42730 0.30870 0.04289 -0.18800
C 	C 	0.43550 0.36620 0.98749 0.09500
H 	H 	0.47310 0.32890 0.95530 -0.00200
C 	C 	0.38740 0.47930 0.98052 -0.17400
H 	H 	0.39180 0.51910 0.94370 0.09200
C 	C 	0.33310 0.53140 0.02883 0.10000
H 	H 	0.30290 0.60780 0.02430 -0.03500
C 	C 	0.49060 0.18760 0.05101 0.40200
C 	C 	0.98060 0.56690 0.12011 0.15200
C 	C 	0.90030 0.61110 0.07505 -0.19200
C 	C 	0.87450 0.53890 0.03869 0.09600
H 	H 	0.82480 0.56660 0.00710 0.00700
C 	C 	0.92170 0.42680 0.04895 -0.16300
H 	H 	0.90270 0.37780 0.02570 0.06800
C 	C 	0.99790 0.38900 0.09467 0.08200
H 	H 	0.02970 0.31320 0.10210 -0.02200
C 	C 	0.83460 0.73140 0.06546 0.37000
C 	C 	0.96410 0.35650 0.30469 0.13000
C 	C 	0.89760 0.28640 0.31837 -0.19900
C 	C 	0.78460 0.33150 0.32447 0.10900
H 	H 	0.73950 0.28610 0.33420 -0.03700
C 	C 	0.73940 0.44440 0.31606 -0.18500
H 	H 	0.66340 0.47650 0.31940 0.09300
C 	C 	0.80890 0.50850 0.30267 0.10100
H 	H 	0.77820 0.58470 0.29710 -0.03700
C 	C 	0.94720 0.16330 0.32710 0.38000
H 	H 	0.83300 0.05400 0.06680 0.43400
H 	H 	0.88400 0.96700 0.03700 0.26600
H 	H 	0.62300 0.94700 0.18010 0.77300
H 	H 	0.62900 0.03900 0.17420 0.56200
Ag	Ag	0.79551 0.58703 0.65307 0.43200
Ag	Ag	0.70639 0.39329 0.69934 0.43000
Ag	Ag	0.61051 0.59281 0.76093 0.41700
Ag	Ag	0.76478 0.41435 0.84093 0.42900
Ag	Ag	0.83838 0.61420 0.79796 0.42800
Ag	Ag	0.96867 0.42489 0.72691 0.41600
Sr	Sr	0.16096 0.95708 0.54272 1.50100
Sr	Sr	0.13055 0.10780 0.81952 1.48400
Sr	Sr	0.35487 0.05373 0.95008 1.52600
S 	S 	0.89557 0.31997 0.65734 -0.38500
S 	S 	0.58866 0.65775 0.65296 -0.32500
S 	S 	0.64793 0.31364 0.79710 -0.33100
S 	S 	0.65079 0.70386 0.84080 -0.31600
S 	S 	0.96934 0.34925 0.83563 -0.51500
S 	S 	0.89128 0.70076 0.70130 -0.32600
O 	O 	0.07936 0.15605 0.57551 -0.47800
O 	O 	0.95321 0.11999 0.52232 -0.55100
O 	O 	0.48182 0.78604 0.53409 -0.32700
O 	O 	0.30818 0.77965 0.54172 -0.47500
O 	O 	0.46750 0.17285 0.88745 -0.42500
O 	O 	0.44150 0.17221 0.78888 -0.38100
O 	O 	0.41789 0.83703 0.92352 -0.42500
O 	O 	0.54604 0.88269 0.97025 -0.55400
O 	O 	0.19000 0.22697 0.98715 -0.40400
O 	O 	0.19950 0.21710 0.88820 -0.52400
O 	O 	0.04268 0.88058 0.61983 -0.46000
O 	O 	0.02883 0.88804 0.71977 -0.36600
O 	O 	0.16430 0.00570 0.93284 -1.01700
O 	O 	0.34235 0.02370 0.83493 -1.59900
N 	N 	0.85330 0.48673 0.57076 -0.22100
N 	N 	0.56450 0.46280 0.63059 -0.21700
N 	N 	0.48590 0.50560 0.80248 -0.22100
N 	N 	0.67873 0.52220 0.91756 -0.22100
N 	N 	0.97150 0.54304 0.87099 -0.21700
N 	N 	0.08080 0.53320 0.70285 -0.22900
C 	C 	0.89570 0.37690 0.58170 0.14600
C 	C 	0.93490 0.30860 0.53456 -0.20600
C 	C 	0.92510 0.35710 0.47574 0.10200
H 	H 	0.94770 0.31340 0.44350 -0.01300
C 	C 	0.88210 0.46980 0.46493 -0.17700
H 	H 	0.87620 0.50340 0.42570 0.08200
C 	C 	0.84810 0.53140 0.51339 0.10100
H 	H 	0.82020 0.60770 0.50620 -0.02400
C 	C 	0.99170 0.18680 0.54527 0.41000
C 	C 	0.53110 0.57220 0.61466 0.12800
C 	C 	0.44730 0.61750 0.57136 -0.17200
C 	C 	0.39560 0.54780 0.54839 0.09500
H 	H 	0.33750 0.57640 0.52130 0.00800
C 	C 	0.42990 0.43620 0.56564 -0.17100
H 	H 	0.39580 0.38850 0.55050 0.08900
C 	C 	0.51530 0.39720 0.60555 0.09500
H 	H 	0.54060 0.32140 0.61590 -0.02300
C 	C 	0.41000 0.73780 0.54807 0.38100
C 	C 	0.51080 0.39440 0.80931 0.12400
C 	C 	0.42920 0.34300 0.82678 -0.16900
C 	C 	0.32200 0.40850 0.83521 0.08400
H 	H 	0.26610 0.37580 0.84510 -0.00100
C 	C 	0.29770 0.52200 0.82900 -0.17100
H 	H 	0.22640 0.56690 0.83570 0.08100
C 	C 	0.38200 0.56650 0.81261 0.09400
H 	H 	0.36620 0.64300 0.80830 -0.03300
C 	C 	0.45080 0.21910 0.83496 0.37300
C 	C 	0.63290 0.63230 0.91041 0.13700
C 	C 	0.57270 0.69130 0.95711 -0.18800
C 	C 	0.56450 0.63380 0.01251 0.09500
H 	H 	0.52690 0.67110 0.04470 -0.00200
C 	C 	0.61260 0.52070 0.01948 -0.17400
H 	H 	0.60820 0.48090 0.05630 0.09200
C 	C 	0.66690 0.46860 0.97117 0.10000
H 	H 	0.69710 0.39220 0.97570 -0.03500
C 	C 	0.50940 0.81240 0.94899 0.40200
C 	C 	0.01940 0.43310 0.87989 0.15200
C 	C 	0.09970 0.38890 0.92495 -0.19200
C 	C 	0.12550 0.46110 0.96131 0.09600
H 	H 	0.17520 0.43340 0.99290 0.00700
C 	C 	0.07830 0.57320 0.95105 -0.16300
H 	H 	0.09730 0.62220 0.97430 0.06800
C 	C 	0.00210 0.61100 0.90533 0.08200
H 	H 	0.97030 0.68680 0.89790 -0.02200
C 	C 	0.16540 0.26860 0.93454 0.37000
C 	C 	0.03590 0.64350 0.69531 0.13000
C 	C 	0.10240 0.71360 0.68163 -0.19900
C 	C 	0.21540 0.66850 0.67553 0.10900
H 	H 	0.26050 0.71390 0.66580 -0.03700
C 	C 	0.26060 0.55560 0.68394 -0.18500
H 	H 	0.33660 0.52350 0.68060 0.09300
C 	C 	0.19110 0.49150 0.69733 0.10100
H 	H 	0.22180 0.41530 0.70290 -0.03700
C 	C 	0.05280 0.83670 0.67290 0.38000
H 	H 	0.16700 0.94600 0.93320 0.43400
H 	H 	0.11600 0.03300 0.96300 0.26600
H 	H 	0.37700 0.05300 0.81990 0.77300
H 	H 	0.37100 0.96100 0.82580 0.56200
