data_crystal

_cell_length_a 9.57110
_cell_length_b 12.43800
_cell_length_c 26.56500
_cell_angle_alpha 90.00000
_cell_angle_beta  90.49300
_cell_angle_gamma 90.00000

_symmetry_space_group_name_	'P 1'
_symmetry_space_group_name_H-M	'P 1'

loop_
_symmetry_equiv_pos_as_xyz
  x,y,z

loop_
_atom_site_label
_atom_site_type_symbol
_atom_site_fract_x
_atom_site_fract_y
_atom_site_fract_z
_atom_site_charge
Cd	Cd	0.31560 0.53898 0.04647 1.22700
N 	N 	0.42710 0.70260 0.05470 -0.23200
N 	N 	0.77350 0.99390 0.03990 -0.12600
N 	N 	0.84960 0.08800 0.03700 -0.12400
N 	N 	0.21530 0.36980 0.04410 -0.21700
C 	C 	0.55780 0.71050 0.04260 0.07300
H 	H 	0.60490 0.64660 0.03290 -0.02100
C 	C 	0.63330 0.80530 0.04270 -0.10600
H 	H 	0.72850 0.80540 0.03300 0.07500
C 	C 	0.57040 0.89850 0.05690 -0.00100
C 	C 	0.43250 0.89120 0.07150 -0.09200
H 	H 	0.38510 0.95290 0.08370 0.05200
C 	C 	0.36370 0.79370 0.06810 0.05600
H 	H 	0.26700 0.79140 0.07580 0.00400
C 	C 	0.65090 0.00070 0.05830 0.18200
C 	C 	0.59080 0.10200 0.07940 -0.55800
H 	H 	0.65810 0.16070 0.07550 0.20600
H 	H 	0.57070 0.09180 0.11510 0.19300
H 	H 	0.50420 0.11990 0.06120 0.18900
C 	C 	0.25180 0.29400 0.07670 0.05200
H 	H 	0.33180 0.30530 0.09740 0.00400
C 	C 	0.17830 0.19920 0.08180 -0.08900
H 	H 	0.20850 0.14630 0.10520 0.05200
C 	C 	0.05940 0.18170 0.05220 -0.00800
C 	C 	0.02270 0.26170 0.01770 -0.08100
H 	H 	0.94360 0.25240 0.99630 0.07000
C 	C 	0.10170 0.35470 0.01480 0.04200
H 	H 	0.07500 0.40910 0.99160 0.02100
C 	C 	0.97190 0.08290 0.05800 0.18600
C 	C 	0.02620 0.99020 0.08750 -0.53800
H 	H 	0.96700 0.92720 0.08130 0.19700
H 	H 	0.02550 0.00800 0.12340 0.18500
H 	H 	0.12210 0.97430 0.07710 0.18600
C 	C 	0.12290 0.58650 0.11800 0.28800
C 	C 	0.00550 0.60810 0.15450 0.01100
C 	C 	0.00050 0.56300 0.20240 0.24400
H 	H 	0.06740 0.51060 0.21220 -0.06800
C 	C 	0.89740 0.59480 0.23580 0.12400
H 	H 	0.89390 0.56400 0.26850 -0.04600
C 	C 	0.79940 0.67160 0.22140 0.22200
C 	C 	0.80440 0.71670 0.17350 -0.09600
H 	H 	0.73740 0.76910 0.16370 0.16300
C 	C 	0.90750 0.68490 0.14010 -0.04400
H 	H 	0.91090 0.71570 0.10740 0.03300
C 	C 	0.90590 0.87190 0.34110 -0.03200
H 	H 	0.99600 0.90350 0.34390 0.06000
C 	C 	0.81070 0.88420 0.37950 -0.07800
C 	C 	0.67970 0.83820 0.37540 0.02000
H 	H 	0.61420 0.84670 0.40170 0.01500
C 	C 	0.64390 0.78000 0.33290 -0.14400
H 	H 	0.55380 0.74840 0.33010 -0.10400
C 	C 	0.73910 0.76770 0.29450 -0.14500
C 	C 	0.87010 0.81360 0.29860 -0.14300
H 	H 	0.93560 0.80520 0.27230 0.08700
O 	O 	0.69310 0.70830 0.25240 -0.07500
C 	C 	0.85640 0.93210 0.43230 0.37400
O 	O 	0.22370 0.53370 0.13550 -0.34200
O 	O 	0.11330 0.61650 0.07330 -0.38800
O 	O 	0.98130 0.95430 0.43950 -0.46900
O 	O 	0.76040 0.93930 0.46470 -0.42400
C 	C 	0.01400 0.63710 0.15100 -0.04300
C 	C 	0.01000 0.61060 0.20170 -0.23100
H 	H 	0.07800 0.56380 0.21570 0.06500
C 	C 	0.90520 0.65250 0.23190 -0.31000
H 	H 	0.90220 0.63430 0.26660 0.11500
C 	C 	0.80530 0.72080 0.21130 0.02400
C 	C 	0.81000 0.74730 0.16060 -0.07100
H 	H 	0.74140 0.79410 0.14660 -0.05800
C 	C 	0.91400 0.70540 0.13040 0.07800
H 	H 	0.91720 0.72360 0.09570 -0.01500
C 	C 	0.90700 0.90420 0.34500 0.05800
H 	H 	0.99480 0.93740 0.35170 -0.03700
C 	C 	0.81000 0.89300 0.38320 -0.02700
C 	C 	0.68200 0.84500 0.37340 0.01200
H 	H 	0.61610 0.83710 0.39960 0.01800
C 	C 	0.65100 0.80730 0.32540 0.00500
H 	H 	0.56360 0.77420 0.31870 0.20600
C 	C 	0.74800 0.81850 0.28720 0.31900
C 	C 	0.87600 0.86690 0.29700 -0.05500
H 	H 	0.94220 0.87450 0.27080 0.03300
O 	O 	0.70100 0.76400 0.24250 -0.19500
Cd	Cd	0.18440 0.03898 0.45353 1.22800
N 	N 	0.07290 0.20260 0.44530 -0.23200
N 	N 	0.72650 0.49390 0.46010 -0.12400
N 	N 	0.65040 0.58800 0.46300 -0.12500
N 	N 	0.28470 0.86980 0.45590 -0.21500
C 	C 	0.94220 0.21050 0.45740 0.07600
H 	H 	0.89510 0.14660 0.46710 -0.02100
C 	C 	0.86670 0.30530 0.45730 -0.10700
H 	H 	0.77150 0.30540 0.46700 0.07500
C 	C 	0.92960 0.39850 0.44310 -0.00000
C 	C 	0.06750 0.39120 0.42850 -0.09300
H 	H 	0.11490 0.45290 0.41630 0.05200
C 	C 	0.13630 0.29370 0.43190 0.05600
H 	H 	0.23300 0.29140 0.42420 0.00300
C 	C 	0.84910 0.50070 0.44170 0.18100
C 	C 	0.90920 0.60200 0.42060 -0.55700
H 	H 	0.84190 0.66070 0.42450 0.20600
H 	H 	0.92930 0.59180 0.38490 0.19200
H 	H 	0.99580 0.61990 0.43880 0.18900
C 	C 	0.24820 0.79400 0.42330 0.05100
H 	H 	0.16820 0.80530 0.40260 0.00500
C 	C 	0.32170 0.69920 0.41820 -0.08700
H 	H 	0.29150 0.64630 0.39480 0.05200
C 	C 	0.44060 0.68170 0.44780 -0.01100
C 	C 	0.47730 0.76170 0.48230 -0.07600
H 	H 	0.55640 0.75240 0.50370 0.06700
C 	C 	0.39830 0.85470 0.48520 0.04000
H 	H 	0.42500 0.90910 0.50840 0.02300
C 	C 	0.52810 0.58290 0.44200 0.19300
C 	C 	0.47380 0.49020 0.41250 -0.56300
H 	H 	0.53300 0.42720 0.41870 0.20500
H 	H 	0.47450 0.50800 0.37660 0.19400
H 	H 	0.37790 0.47430 0.42290 0.19200
C 	C 	0.37710 0.08650 0.38200 0.28800
C 	C 	0.49450 0.10810 0.34550 0.00900
C 	C 	0.49950 0.06300 0.29760 0.24000
H 	H 	0.43260 0.01060 0.28780 -0.06600
C 	C 	0.60260 0.09480 0.26420 0.12000
H 	H 	0.60610 0.06400 0.23150 -0.04400
C 	C 	0.70060 0.17160 0.27860 0.22100
C 	C 	0.69560 0.21670 0.32650 -0.09700
H 	H 	0.76260 0.26910 0.33630 0.16400
C 	C 	0.59250 0.18490 0.35990 -0.04400
H 	H 	0.58910 0.21570 0.39260 0.03400
C 	C 	0.59410 0.37190 0.15890 -0.03300
H 	H 	0.50400 0.40350 0.15610 0.06000
C 	C 	0.68930 0.38420 0.12050 -0.07800
C 	C 	0.82030 0.33820 0.12460 0.02000
H 	H 	0.88580 0.34670 0.09830 0.01500
C 	C 	0.85610 0.28000 0.16710 -0.14300
H 	H 	0.94620 0.24840 0.16990 -0.10100
C 	C 	0.76090 0.26770 0.20550 -0.14500
C 	C 	0.62990 0.31360 0.20140 -0.14300
H 	H 	0.56440 0.30520 0.22770 0.08700
O 	O 	0.80690 0.20830 0.24760 -0.07400
C 	C 	0.64360 0.43210 0.06770 0.37400
O 	O 	0.27630 0.03370 0.36450 -0.34300
O 	O 	0.38670 0.11650 0.42670 -0.38900
O 	O 	0.51870 0.45430 0.06050 -0.46800
O 	O 	0.73960 0.43930 0.03530 -0.42400
C 	C 	0.48600 0.13710 0.34900 -0.04200
C 	C 	0.49000 0.11060 0.29830 -0.22700
H 	H 	0.42200 0.06380 0.28430 0.06400
C 	C 	0.59480 0.15250 0.26810 -0.30600
H 	H 	0.59780 0.13430 0.23340 0.11500
C 	C 	0.69470 0.22080 0.28870 0.02400
C 	C 	0.69000 0.24730 0.33940 -0.07100
H 	H 	0.75860 0.29410 0.35340 -0.05900
C 	C 	0.58600 0.20540 0.36960 0.07900
H 	H 	0.58280 0.22360 0.40430 -0.01600
C 	C 	0.59300 0.40420 0.15500 0.05800
H 	H 	0.50520 0.43740 0.14830 -0.03700
C 	C 	0.69000 0.39300 0.11680 -0.02700
C 	C 	0.81800 0.34500 0.12660 0.01200
H 	H 	0.88390 0.33710 0.10040 0.01800
C 	C 	0.84900 0.30730 0.17460 0.00500
H 	H 	0.93640 0.27420 0.18130 0.20300
C 	C 	0.75200 0.31850 0.21280 0.31900
C 	C 	0.62400 0.36690 0.20300 -0.05500
H 	H 	0.55780 0.37450 0.22920 0.03300
O 	O 	0.79900 0.26400 0.25750 -0.19500
Cd	Cd	0.68440 0.46102 0.95353 1.22800
N 	N 	0.57290 0.29740 0.94530 -0.23100
N 	N 	0.22650 0.00610 0.96010 -0.12500
N 	N 	0.15040 0.91200 0.96300 -0.12300
N 	N 	0.78470 0.63020 0.95590 -0.21600
C 	C 	0.44220 0.28950 0.95740 0.07400
H 	H 	0.39510 0.35340 0.96710 -0.02100
C 	C 	0.36670 0.19470 0.95730 -0.10600
H 	H 	0.27150 0.19460 0.96700 0.07500
C 	C 	0.42960 0.10150 0.94310 -0.00100
C 	C 	0.56750 0.10880 0.92850 -0.09200
H 	H 	0.61490 0.04710 0.91630 0.05200
C 	C 	0.63630 0.20630 0.93190 0.05600
H 	H 	0.73300 0.20860 0.92420 0.00400
C 	C 	0.34910 0.99930 0.94170 0.18200
C 	C 	0.40920 0.89800 0.92060 -0.55800
H 	H 	0.34190 0.83930 0.92450 0.20600
H 	H 	0.42930 0.90820 0.88490 0.19300
H 	H 	0.49580 0.88010 0.93880 0.18900
C 	C 	0.74820 0.70600 0.92330 0.05200
H 	H 	0.66820 0.69470 0.90260 0.00400
C 	C 	0.82170 0.80080 0.91820 -0.08900
H 	H 	0.79150 0.85370 0.89480 0.05200
C 	C 	0.94060 0.81830 0.94780 -0.00800
C 	C 	0.97730 0.73830 0.98230 -0.08100
H 	H 	0.05640 0.74760 0.00370 0.07000
C 	C 	0.89830 0.64530 0.98520 0.04200
H 	H 	0.92500 0.59090 0.00840 0.02100
C 	C 	0.02810 0.91710 0.94200 0.18600
C 	C 	0.97380 0.00980 0.91250 -0.53800
H 	H 	0.03300 0.07280 0.91870 0.19700
H 	H 	0.97450 0.99200 0.87660 0.18500
H 	H 	0.87790 0.02570 0.92290 0.18600
C 	C 	0.87710 0.41350 0.88200 0.28800
C 	C 	0.99450 0.39190 0.84550 0.01100
C 	C 	0.99950 0.43700 0.79760 0.24400
H 	H 	0.93260 0.48940 0.78780 -0.06800
C 	C 	0.10260 0.40520 0.76420 0.12400
H 	H 	0.10610 0.43600 0.73150 -0.04600
C 	C 	0.20060 0.32840 0.77860 0.22200
C 	C 	0.19560 0.28330 0.82650 -0.09600
H 	H 	0.26260 0.23090 0.83630 0.16300
C 	C 	0.09250 0.31510 0.85990 -0.04400
H 	H 	0.08910 0.28430 0.89260 0.03300
C 	C 	0.09410 0.12810 0.65890 -0.03200
H 	H 	0.00400 0.09650 0.65610 0.06000
C 	C 	0.18930 0.11580 0.62050 -0.07800
C 	C 	0.32030 0.16180 0.62460 0.02000
H 	H 	0.38580 0.15330 0.59830 0.01500
C 	C 	0.35610 0.22000 0.66710 -0.14400
H 	H 	0.44620 0.25160 0.66990 -0.10400
C 	C 	0.26090 0.23230 0.70550 -0.14500
C 	C 	0.12990 0.18640 0.70140 -0.14300
H 	H 	0.06440 0.19480 0.72770 0.08700
O 	O 	0.30690 0.29170 0.74760 -0.07500
C 	C 	0.14360 0.06790 0.56770 0.37400
O 	O 	0.77630 0.46630 0.86450 -0.34200
O 	O 	0.88670 0.38350 0.92670 -0.38800
O 	O 	0.01870 0.04570 0.56050 -0.46900
O 	O 	0.23960 0.06070 0.53530 -0.42400
C 	C 	0.98600 0.36290 0.84900 -0.04300
C 	C 	0.99000 0.38940 0.79830 -0.23100
H 	H 	0.92200 0.43620 0.78430 0.06500
C 	C 	0.09480 0.34750 0.76810 -0.31000
H 	H 	0.09780 0.36570 0.73340 0.11500
C 	C 	0.19470 0.27920 0.78870 0.02400
C 	C 	0.19000 0.25270 0.83940 -0.07100
H 	H 	0.25860 0.20590 0.85340 -0.05800
C 	C 	0.08600 0.29460 0.86960 0.07800
H 	H 	0.08280 0.27640 0.90430 -0.01500
C 	C 	0.09300 0.09580 0.65500 0.05800
H 	H 	0.00520 0.06260 0.64830 -0.03700
C 	C 	0.19000 0.10700 0.61680 -0.02700
C 	C 	0.31800 0.15500 0.62660 0.01200
H 	H 	0.38390 0.16290 0.60040 0.01800
C 	C 	0.34900 0.19270 0.67460 0.00500
H 	H 	0.43640 0.22580 0.68130 0.20600
C 	C 	0.25200 0.18150 0.71280 0.31900
C 	C 	0.12400 0.13310 0.70300 -0.05500
H 	H 	0.05780 0.12550 0.72920 0.03300
O 	O 	0.29900 0.23600 0.75750 -0.19500
Cd	Cd	0.81560 0.96102 0.54647 1.22800
N 	N 	0.92710 0.79740 0.55470 -0.23200
N 	N 	0.27350 0.50610 0.53990 -0.12400
N 	N 	0.34960 0.41200 0.53700 -0.12500
N 	N 	0.71530 0.13020 0.54410 -0.21500
C 	C 	0.05780 0.78950 0.54260 0.07600
H 	H 	0.10490 0.85340 0.53290 -0.02100
C 	C 	0.13330 0.69470 0.54270 -0.10700
H 	H 	0.22850 0.69460 0.53300 0.07500
C 	C 	0.07040 0.60150 0.55690 -0.00000
C 	C 	0.93250 0.60880 0.57150 -0.09300
H 	H 	0.88510 0.54710 0.58370 0.05200
C 	C 	0.86370 0.70630 0.56810 0.05600
H 	H 	0.76700 0.70860 0.57580 0.00300
C 	C 	0.15090 0.49930 0.55830 0.18100
C 	C 	0.09080 0.39800 0.57940 -0.55700
H 	H 	0.15810 0.33930 0.57550 0.20600
H 	H 	0.07070 0.40820 0.61510 0.19200
H 	H 	0.00420 0.38010 0.56120 0.18900
C 	C 	0.75180 0.20600 0.57670 0.05100
H 	H 	0.83180 0.19470 0.59740 0.00500
C 	C 	0.67830 0.30080 0.58180 -0.08700
H 	H 	0.70850 0.35370 0.60520 0.05200
C 	C 	0.55940 0.31830 0.55220 -0.01100
C 	C 	0.52270 0.23830 0.51770 -0.07600
H 	H 	0.44360 0.24760 0.49630 0.06700
C 	C 	0.60170 0.14530 0.51480 0.04000
H 	H 	0.57500 0.09090 0.49160 0.02300
C 	C 	0.47190 0.41710 0.55800 0.19300
C 	C 	0.52620 0.50980 0.58750 -0.56300
H 	H 	0.46700 0.57280 0.58130 0.20500
H 	H 	0.52550 0.49200 0.62340 0.19400
H 	H 	0.62210 0.52570 0.57710 0.19200
C 	C 	0.62290 0.91350 0.61800 0.28800
C 	C 	0.50550 0.89190 0.65450 0.00900
C 	C 	0.50050 0.93700 0.70240 0.24000
H 	H 	0.56740 0.98940 0.71220 -0.06600
C 	C 	0.39740 0.90520 0.73580 0.12000
H 	H 	0.39390 0.93600 0.76850 -0.04400
C 	C 	0.29940 0.82840 0.72140 0.22100
C 	C 	0.30440 0.78330 0.67350 -0.09700
H 	H 	0.23740 0.73090 0.66370 0.16400
C 	C 	0.40750 0.81510 0.64010 -0.04400
H 	H 	0.41090 0.78430 0.60740 0.03400
C 	C 	0.40590 0.62810 0.84110 -0.03300
H 	H 	0.49600 0.59650 0.84390 0.06000
C 	C 	0.31070 0.61580 0.87950 -0.07800
C 	C 	0.17970 0.66180 0.87540 0.02000
H 	H 	0.11420 0.65330 0.90170 0.01500
C 	C 	0.14390 0.72000 0.83290 -0.14300
H 	H 	0.05380 0.75160 0.83010 -0.10100
C 	C 	0.23910 0.73230 0.79450 -0.14500
C 	C 	0.37010 0.68640 0.79860 -0.14300
H 	H 	0.43560 0.69480 0.77230 0.08700
O 	O 	0.19310 0.79170 0.75240 -0.07400
C 	C 	0.35640 0.56790 0.93230 0.37400
O 	O 	0.72370 0.96630 0.63550 -0.34300
O 	O 	0.61330 0.88350 0.57330 -0.38900
O 	O 	0.48130 0.54570 0.93950 -0.46800
O 	O 	0.26040 0.56070 0.96470 -0.42400
C 	C 	0.51400 0.86290 0.65100 -0.04200
C 	C 	0.51000 0.88940 0.70170 -0.22700
H 	H 	0.57800 0.93620 0.71570 0.06400
C 	C 	0.40520 0.84750 0.73190 -0.30600
H 	H 	0.40220 0.86570 0.76660 0.11500
C 	C 	0.30530 0.77920 0.71130 0.02400
C 	C 	0.31000 0.75270 0.66060 -0.07100
H 	H 	0.24140 0.70590 0.64660 -0.05900
C 	C 	0.41400 0.79460 0.63040 0.07900
H 	H 	0.41720 0.77640 0.59570 -0.01600
C 	C 	0.40700 0.59580 0.84500 0.05800
H 	H 	0.49480 0.56260 0.85170 -0.03700
C 	C 	0.31000 0.60700 0.88320 -0.02700
C 	C 	0.18200 0.65500 0.87340 0.01200
H 	H 	0.11610 0.66290 0.89960 0.01800
C 	C 	0.15100 0.69270 0.82540 0.00500
H 	H 	0.06360 0.72580 0.81870 0.20300
C 	C 	0.24800 0.68150 0.78720 0.31900
C 	C 	0.37600 0.63310 0.79700 -0.05500
H 	H 	0.44220 0.62550 0.77080 0.03300
O 	O 	0.20100 0.73600 0.74250 -0.19500
