data_crystal

_cell_length_a 26.98200
_cell_length_b 8.03300
_cell_length_c 23.29300
_cell_angle_alpha 90.00000
_cell_angle_beta  98.99200
_cell_angle_gamma 90.00000

_symmetry_space_group_name_	'P 1'
_symmetry_space_group_name_H-M	'P 1'

loop_
_symmetry_equiv_pos_as_xyz
  x,y,z

loop_
_atom_site_label
_atom_site_type_symbol
_atom_site_fract_x
_atom_site_fract_y
_atom_site_fract_z
_atom_site_charge
Zn	Zn	0.03981 0.12477 0.00164 1.21700
O 	O 	0.98605 0.23340 0.04153 -0.49400
O 	O 	0.92559 0.04690 0.04215 -0.48700
O 	O 	0.85255 0.60990 0.19660 -0.37500
O 	O 	0.93886 0.99500 0.42339 -0.50600
O 	O 	0.99864 0.80830 0.42418 -0.49000
N 	N 	0.09385 0.30190 0.01482 -0.24400
N 	N 	0.23422 0.67980 0.99910 -0.14700
C 	C 	0.94578 0.18410 0.05560 0.47400
C 	C 	0.92008 0.29870 0.09120 -0.30000
C 	C 	0.87800 0.24910 0.11410 0.27400
H 	H 	0.86460 0.14360 0.10590 -0.05000
C 	C 	0.85600 0.35680 0.14920 -0.42200
H 	H 	0.82720 0.32430 0.16370 0.18500
C 	C 	0.87540 0.50420 0.16200 0.41500
C 	C 	0.91610 0.56310 0.13740 -0.40000
H 	H 	0.92800 0.67110 0.14440 0.18500
C 	C 	0.93798 0.45760 0.10290 0.27300
H 	H 	0.96560 0.49380 0.08690 -0.04100
C 	C 	0.88090 0.67490 0.24580 0.42700
C 	C 	0.86380 0.81460 0.26770 -0.42500
H 	H 	0.83510 0.86630 0.24850 0.18800
C 	C 	0.88910 0.88110 0.31870 0.28700
H 	H 	0.87680 0.97650 0.33420 -0.06200
C 	C 	0.93218 0.80860 0.34690 -0.33100
C 	C 	0.94860 0.66430 0.32290 0.30000
H 	H 	0.97740 0.61180 0.34140 -0.06000
C 	C 	0.92340 0.59780 0.27310 -0.43200
H 	H 	0.93500 0.50100 0.25770 0.18600
C 	C 	0.95858 0.87510 0.40200 0.49400
C 	C 	0.13486 0.29210 0.99040 0.04400
H 	H 	0.13990 0.19730 0.96920 0.01100
C 	C 	0.17047 0.41660 0.99520 -0.05900
H 	H 	0.19910 0.40380 0.97790 0.05400
C 	C 	0.16389 0.55700 0.02490 -0.04800
C 	C 	0.12180 0.56750 0.05100 -0.06900
H 	H 	0.11570 0.66170 0.07200 0.05300
C 	C 	0.08820 0.43260 0.04540 0.05900
H 	H 	0.06040 0.43790 0.06450 0.01200
C 	C 	0.19881 0.69900 0.02800 0.27900
C 	C 	0.18960 0.84780 0.06200 -0.81700
H 	H 	0.19920 0.82510 0.10270 0.27400
H 	H 	0.15450 0.87550 0.05440 0.28100
H 	H 	0.20890 0.93940 0.05100 0.28700
Zn	Zn	0.53981 0.62477 0.00164 1.21900
O 	O 	0.48605 0.73340 0.04153 -0.49400
O 	O 	0.42559 0.54690 0.04215 -0.48700
O 	O 	0.35255 0.10990 0.19660 -0.37500
O 	O 	0.43886 0.49500 0.42339 -0.50600
O 	O 	0.49864 0.30830 0.42418 -0.49000
N 	N 	0.59385 0.80190 0.01482 -0.24300
N 	N 	0.73422 0.17980 0.99910 -0.14800
C 	C 	0.44578 0.68410 0.05560 0.47400
C 	C 	0.42008 0.79870 0.09120 -0.30000
C 	C 	0.37800 0.74910 0.11410 0.27400
H 	H 	0.36460 0.64360 0.10590 -0.05000
C 	C 	0.35600 0.85680 0.14920 -0.42100
H 	H 	0.32720 0.82430 0.16370 0.18500
C 	C 	0.37540 0.00420 0.16200 0.41400
C 	C 	0.41610 0.06310 0.13740 -0.40100
H 	H 	0.42800 0.17110 0.14440 0.18600
C 	C 	0.43798 0.95760 0.10290 0.27500
H 	H 	0.46560 0.99380 0.08690 -0.04200
C 	C 	0.38090 0.17490 0.24580 0.42700
C 	C 	0.36380 0.31460 0.26770 -0.42500
H 	H 	0.33510 0.36630 0.24850 0.18800
C 	C 	0.38910 0.38110 0.31870 0.28700
H 	H 	0.37680 0.47650 0.33420 -0.06200
C 	C 	0.43218 0.30860 0.34690 -0.33100
C 	C 	0.44860 0.16430 0.32290 0.30000
H 	H 	0.47740 0.11180 0.34140 -0.06000
C 	C 	0.42340 0.09780 0.27310 -0.43200
H 	H 	0.43500 0.00100 0.25770 0.18600
C 	C 	0.45858 0.37510 0.40200 0.49400
C 	C 	0.63486 0.79210 0.99040 0.04300
H 	H 	0.63990 0.69730 0.96920 0.01100
C 	C 	0.67047 0.91660 0.99520 -0.06100
H 	H 	0.69910 0.90380 0.97790 0.05400
C 	C 	0.66389 0.05700 0.02490 -0.04500
C 	C 	0.62180 0.06750 0.05100 -0.07100
H 	H 	0.61570 0.16170 0.07200 0.05400
C 	C 	0.58820 0.93260 0.04540 0.06100
H 	H 	0.56040 0.93790 0.06450 0.01200
C 	C 	0.69881 0.19900 0.02800 0.27900
C 	C 	0.68960 0.34780 0.06200 -0.81700
H 	H 	0.69920 0.32510 0.10270 0.27300
H 	H 	0.65450 0.37550 0.05440 0.28100
H 	H 	0.70890 0.43940 0.05100 0.28700
Zn	Zn	0.96019 0.12477 0.49836 1.21900
O 	O 	0.01395 0.23340 0.45847 -0.49400
O 	O 	0.07441 0.04690 0.45785 -0.48800
O 	O 	0.14745 0.60990 0.30340 -0.37500
O 	O 	0.06114 0.99500 0.07661 -0.50600
O 	O 	0.00136 0.80830 0.07582 -0.49000
N 	N 	0.90615 0.30190 0.48518 -0.24300
N 	N 	0.76578 0.67980 0.50090 -0.14800
C 	C 	0.05422 0.18410 0.44440 0.47400
C 	C 	0.07992 0.29870 0.40880 -0.30000
C 	C 	0.12200 0.24910 0.38590 0.27400
H 	H 	0.13540 0.14360 0.39410 -0.05000
C 	C 	0.14400 0.35680 0.35080 -0.42200
H 	H 	0.17280 0.32430 0.33630 0.18500
C 	C 	0.12460 0.50420 0.33800 0.41500
C 	C 	0.08390 0.56310 0.36260 -0.40000
H 	H 	0.07200 0.67110 0.35560 0.18500
C 	C 	0.06202 0.45760 0.39710 0.27400
H 	H 	0.03440 0.49380 0.41310 -0.04200
C 	C 	0.11910 0.67490 0.25420 0.42700
C 	C 	0.13620 0.81460 0.23230 -0.42500
H 	H 	0.16490 0.86630 0.25150 0.18800
C 	C 	0.11090 0.88110 0.18130 0.28700
H 	H 	0.12320 0.97650 0.16580 -0.06200
C 	C 	0.06782 0.80860 0.15310 -0.33100
C 	C 	0.05140 0.66430 0.17710 0.30000
H 	H 	0.02260 0.61180 0.15860 -0.06000
C 	C 	0.07660 0.59780 0.22690 -0.43200
H 	H 	0.06500 0.50100 0.24230 0.18600
C 	C 	0.04142 0.87510 0.09800 0.49400
C 	C 	0.86514 0.29210 0.50960 0.04300
H 	H 	0.86010 0.19730 0.53080 0.01100
C 	C 	0.82953 0.41660 0.50480 -0.06000
H 	H 	0.80090 0.40380 0.52210 0.05400
C 	C 	0.83611 0.55700 0.47510 -0.04700
C 	C 	0.87820 0.56750 0.44900 -0.06900
H 	H 	0.88430 0.66170 0.42800 0.05300
C 	C 	0.91180 0.43260 0.45460 0.05900
H 	H 	0.93960 0.43790 0.43550 0.01200
C 	C 	0.80119 0.69900 0.47200 0.27900
C 	C 	0.81040 0.84780 0.43800 -0.81800
H 	H 	0.80080 0.82510 0.39730 0.27400
H 	H 	0.84550 0.87550 0.44560 0.28100
H 	H 	0.79110 0.93940 0.44900 0.28700
Zn	Zn	0.46019 0.62477 0.49836 1.21900
O 	O 	0.51395 0.73340 0.45847 -0.49400
O 	O 	0.57441 0.54690 0.45785 -0.48700
O 	O 	0.64745 0.10990 0.30340 -0.37500
O 	O 	0.56114 0.49500 0.07661 -0.50600
O 	O 	0.50136 0.30830 0.07582 -0.49000
N 	N 	0.40615 0.80190 0.48518 -0.24300
N 	N 	0.26578 0.17980 0.50090 -0.14800
C 	C 	0.55422 0.68410 0.44440 0.47400
C 	C 	0.57992 0.79870 0.40880 -0.30000
C 	C 	0.62200 0.74910 0.38590 0.27400
H 	H 	0.63540 0.64360 0.39410 -0.05000
C 	C 	0.64400 0.85680 0.35080 -0.42100
H 	H 	0.67280 0.82430 0.33630 0.18500
C 	C 	0.62460 0.00420 0.33800 0.41500
C 	C 	0.58390 0.06310 0.36260 -0.40100
H 	H 	0.57200 0.17110 0.35560 0.18500
C 	C 	0.56202 0.95760 0.39710 0.27400
H 	H 	0.53440 0.99380 0.41310 -0.04200
C 	C 	0.61910 0.17490 0.25420 0.42700
C 	C 	0.63620 0.31460 0.23230 -0.42500
H 	H 	0.66490 0.36630 0.25150 0.18800
C 	C 	0.61090 0.38110 0.18130 0.28700
H 	H 	0.62320 0.47650 0.16580 -0.06200
C 	C 	0.56782 0.30860 0.15310 -0.33100
C 	C 	0.55140 0.16430 0.17710 0.30000
H 	H 	0.52260 0.11180 0.15860 -0.06000
C 	C 	0.57660 0.09780 0.22690 -0.43200
H 	H 	0.56500 0.00100 0.24230 0.18600
C 	C 	0.54142 0.37510 0.09800 0.49400
C 	C 	0.36514 0.79210 0.50960 0.04300
H 	H 	0.36010 0.69730 0.53080 0.01100
C 	C 	0.32953 0.91660 0.50480 -0.06100
H 	H 	0.30090 0.90380 0.52210 0.05400
C 	C 	0.33611 0.05700 0.47510 -0.04600
C 	C 	0.37820 0.06750 0.44900 -0.07000
H 	H 	0.38430 0.16170 0.42800 0.05300
C 	C 	0.41180 0.93260 0.45460 0.05900
H 	H 	0.43960 0.93790 0.43550 0.01200
C 	C 	0.30119 0.19900 0.47200 0.27900
C 	C 	0.31040 0.34780 0.43800 -0.81700
H 	H 	0.30080 0.32510 0.39730 0.27300
H 	H 	0.34550 0.37550 0.44560 0.28000
H 	H 	0.29110 0.43940 0.44900 0.28600
Zn	Zn	0.96019 0.87523 0.99836 1.21800
O 	O 	0.01395 0.76660 0.95847 -0.49300
O 	O 	0.07441 0.95310 0.95785 -0.48700
O 	O 	0.14745 0.39010 0.80340 -0.37500
O 	O 	0.06114 0.00500 0.57661 -0.50600
O 	O 	0.00136 0.19170 0.57582 -0.49000
N 	N 	0.90615 0.69810 0.98518 -0.24400
N 	N 	0.76578 0.32020 0.00090 -0.14700
C 	C 	0.05422 0.81590 0.94440 0.47400
C 	C 	0.07992 0.70130 0.90880 -0.30000
C 	C 	0.12200 0.75090 0.88590 0.27400
H 	H 	0.13540 0.85640 0.89410 -0.05000
C 	C 	0.14400 0.64320 0.85080 -0.42200
H 	H 	0.17280 0.67570 0.83630 0.18500
C 	C 	0.12460 0.49580 0.83800 0.41500
C 	C 	0.08390 0.43690 0.86260 -0.40000
H 	H 	0.07200 0.32890 0.85560 0.18500
C 	C 	0.06202 0.54240 0.89710 0.27300
H 	H 	0.03440 0.50620 0.91310 -0.04100
C 	C 	0.11910 0.32510 0.75420 0.42700
C 	C 	0.13620 0.18540 0.73230 -0.42500
H 	H 	0.16490 0.13370 0.75150 0.18800
C 	C 	0.11090 0.11890 0.68130 0.28700
H 	H 	0.12320 0.02350 0.66580 -0.06200
C 	C 	0.06782 0.19140 0.65310 -0.33100
C 	C 	0.05140 0.33570 0.67710 0.30000
H 	H 	0.02260 0.38820 0.65860 -0.06000
C 	C 	0.07660 0.40220 0.72690 -0.43200
H 	H 	0.06500 0.49900 0.74230 0.18600
C 	C 	0.04142 0.12490 0.59800 0.49400
C 	C 	0.86514 0.70790 0.00960 0.04400
H 	H 	0.86010 0.80270 0.03080 0.01100
C 	C 	0.82953 0.58340 0.00480 -0.05900
H 	H 	0.80090 0.59620 0.02210 0.05400
C 	C 	0.83611 0.44300 0.97510 -0.04800
C 	C 	0.87820 0.43250 0.94900 -0.06900
H 	H 	0.88430 0.33830 0.92800 0.05300
C 	C 	0.91180 0.56740 0.95460 0.05900
H 	H 	0.93960 0.56210 0.93550 0.01200
C 	C 	0.80119 0.30100 0.97200 0.27900
C 	C 	0.81040 0.15220 0.93800 -0.81700
H 	H 	0.80080 0.17490 0.89730 0.27400
H 	H 	0.84550 0.12450 0.94560 0.28100
H 	H 	0.79110 0.06060 0.94900 0.28700
Zn	Zn	0.46019 0.37523 0.99836 1.21900
O 	O 	0.51395 0.26660 0.95847 -0.49400
O 	O 	0.57441 0.45310 0.95785 -0.48700
O 	O 	0.64745 0.89010 0.80340 -0.37500
O 	O 	0.56114 0.50500 0.57661 -0.50600
O 	O 	0.50136 0.69170 0.57582 -0.49000
N 	N 	0.40615 0.19810 0.98518 -0.24300
N 	N 	0.26578 0.82020 0.00090 -0.14800
C 	C 	0.55422 0.31590 0.94440 0.47400
C 	C 	0.57992 0.20130 0.90880 -0.30000
C 	C 	0.62200 0.25090 0.88590 0.27400
H 	H 	0.63540 0.35640 0.89410 -0.05000
C 	C 	0.64400 0.14320 0.85080 -0.42100
H 	H 	0.67280 0.17570 0.83630 0.18500
C 	C 	0.62460 0.99580 0.83800 0.41400
C 	C 	0.58390 0.93690 0.86260 -0.40100
H 	H 	0.57200 0.82890 0.85560 0.18600
C 	C 	0.56202 0.04240 0.89710 0.27500
H 	H 	0.53440 0.00620 0.91310 -0.04200
C 	C 	0.61910 0.82510 0.75420 0.42700
C 	C 	0.63620 0.68540 0.73230 -0.42500
H 	H 	0.66490 0.63370 0.75150 0.18800
C 	C 	0.61090 0.61890 0.68130 0.28700
H 	H 	0.62320 0.52350 0.66580 -0.06200
C 	C 	0.56782 0.69140 0.65310 -0.33100
C 	C 	0.55140 0.83570 0.67710 0.30000
H 	H 	0.52260 0.88820 0.65860 -0.06000
C 	C 	0.57660 0.90220 0.72690 -0.43200
H 	H 	0.56500 0.99900 0.74230 0.18600
C 	C 	0.54142 0.62490 0.59800 0.49400
C 	C 	0.36514 0.20790 0.00960 0.04300
H 	H 	0.36010 0.30270 0.03080 0.01100
C 	C 	0.32953 0.08340 0.00480 -0.06100
H 	H 	0.30090 0.09620 0.02210 0.05400
C 	C 	0.33611 0.94300 0.97510 -0.04500
C 	C 	0.37820 0.93250 0.94900 -0.07100
H 	H 	0.38430 0.83830 0.92800 0.05400
C 	C 	0.41180 0.06740 0.95460 0.06100
H 	H 	0.43960 0.06210 0.93550 0.01200
C 	C 	0.30119 0.80100 0.97200 0.27900
C 	C 	0.31040 0.65220 0.93800 -0.81700
H 	H 	0.30080 0.67490 0.89730 0.27300
H 	H 	0.34550 0.62450 0.94560 0.28100
H 	H 	0.29110 0.56060 0.94900 0.28700
Zn	Zn	0.03981 0.87523 0.50164 1.21900
O 	O 	0.98605 0.76660 0.54153 -0.49400
O 	O 	0.92559 0.95310 0.54215 -0.48800
O 	O 	0.85255 0.39010 0.69660 -0.37500
O 	O 	0.93886 0.00500 0.92339 -0.50600
O 	O 	0.99864 0.19170 0.92418 -0.49000
N 	N 	0.09385 0.69810 0.51482 -0.24300
N 	N 	0.23422 0.32020 0.49910 -0.14800
C 	C 	0.94578 0.81590 0.55560 0.47400
C 	C 	0.92008 0.70130 0.59120 -0.30000
C 	C 	0.87800 0.75090 0.61410 0.27400
H 	H 	0.86460 0.85640 0.60590 -0.05000
C 	C 	0.85600 0.64320 0.64920 -0.42200
H 	H 	0.82720 0.67570 0.66370 0.18500
C 	C 	0.87540 0.49580 0.66200 0.41500
C 	C 	0.91610 0.43690 0.63740 -0.40000
H 	H 	0.92800 0.32890 0.64440 0.18500
C 	C 	0.93798 0.54240 0.60290 0.27400
H 	H 	0.96560 0.50620 0.58690 -0.04200
C 	C 	0.88090 0.32510 0.74580 0.42700
C 	C 	0.86380 0.18540 0.76770 -0.42500
H 	H 	0.83510 0.13370 0.74850 0.18800
C 	C 	0.88910 0.11890 0.81870 0.28700
H 	H 	0.87680 0.02350 0.83420 -0.06200
C 	C 	0.93218 0.19140 0.84690 -0.33100
C 	C 	0.94860 0.33570 0.82290 0.30000
H 	H 	0.97740 0.38820 0.84140 -0.06000
C 	C 	0.92340 0.40220 0.77310 -0.43200
H 	H 	0.93500 0.49900 0.75770 0.18600
C 	C 	0.95858 0.12490 0.90200 0.49400
C 	C 	0.13486 0.70790 0.49040 0.04300
H 	H 	0.13990 0.80270 0.46920 0.01100
C 	C 	0.17047 0.58340 0.49520 -0.06000
H 	H 	0.19910 0.59620 0.47790 0.05400
C 	C 	0.16389 0.44300 0.52490 -0.04700
C 	C 	0.12180 0.43250 0.55100 -0.06900
H 	H 	0.11570 0.33830 0.57200 0.05300
C 	C 	0.08820 0.56740 0.54540 0.05900
H 	H 	0.06040 0.56210 0.56450 0.01200
C 	C 	0.19881 0.30100 0.52800 0.27900
C 	C 	0.18960 0.15220 0.56200 -0.81800
H 	H 	0.19920 0.17490 0.60270 0.27400
H 	H 	0.15450 0.12450 0.55440 0.28100
H 	H 	0.20890 0.06060 0.55100 0.28700
Zn	Zn	0.53981 0.37523 0.50164 1.21900
O 	O 	0.48605 0.26660 0.54153 -0.49400
O 	O 	0.42559 0.45310 0.54215 -0.48700
O 	O 	0.35255 0.89010 0.69660 -0.37500
O 	O 	0.43886 0.50500 0.92339 -0.50600
O 	O 	0.49864 0.69170 0.92418 -0.49000
N 	N 	0.59385 0.19810 0.51482 -0.24300
N 	N 	0.73422 0.82020 0.49910 -0.14800
C 	C 	0.44578 0.31590 0.55560 0.47400
C 	C 	0.42008 0.20130 0.59120 -0.30000
C 	C 	0.37800 0.25090 0.61410 0.27400
H 	H 	0.36460 0.35640 0.60590 -0.05000
C 	C 	0.35600 0.14320 0.64920 -0.42100
H 	H 	0.32720 0.17570 0.66370 0.18500
C 	C 	0.37540 0.99580 0.66200 0.41500
C 	C 	0.41610 0.93690 0.63740 -0.40100
H 	H 	0.42800 0.82890 0.64440 0.18500
C 	C 	0.43798 0.04240 0.60290 0.27400
H 	H 	0.46560 0.00620 0.58690 -0.04200
C 	C 	0.38090 0.82510 0.74580 0.42700
C 	C 	0.36380 0.68540 0.76770 -0.42500
H 	H 	0.33510 0.63370 0.74850 0.18800
C 	C 	0.38910 0.61890 0.81870 0.28700
H 	H 	0.37680 0.52350 0.83420 -0.06200
C 	C 	0.43218 0.69140 0.84690 -0.33100
C 	C 	0.44860 0.83570 0.82290 0.30000
H 	H 	0.47740 0.88820 0.84140 -0.06000
C 	C 	0.42340 0.90220 0.77310 -0.43200
H 	H 	0.43500 0.99900 0.75770 0.18600
C 	C 	0.45858 0.62490 0.90200 0.49400
C 	C 	0.63486 0.20790 0.49040 0.04300
H 	H 	0.63990 0.30270 0.46920 0.01100
C 	C 	0.67047 0.08340 0.49520 -0.06100
H 	H 	0.69910 0.09620 0.47790 0.05400
C 	C 	0.66389 0.94300 0.52490 -0.04600
C 	C 	0.62180 0.93250 0.55100 -0.07000
H 	H 	0.61570 0.83830 0.57200 0.05300
C 	C 	0.58820 0.06740 0.54540 0.05900
H 	H 	0.56040 0.06210 0.56450 0.01200
C 	C 	0.69881 0.80100 0.52800 0.27900
C 	C 	0.68960 0.65220 0.56200 -0.81700
H 	H 	0.69920 0.67490 0.60270 0.27300
H 	H 	0.65450 0.62450 0.55440 0.28000
H 	H 	0.70890 0.56060 0.55100 0.28600
