data_crystal

_cell_length_a 32.27000
_cell_length_b 18.63100
_cell_length_c 23.51200
_cell_angle_alpha 90.00000
_cell_angle_beta  117.22500
_cell_angle_gamma 90.00000

_symmetry_space_group_name_	'P 1'
_symmetry_space_group_name_H-M	'P 1'

loop_
_symmetry_equiv_pos_as_xyz
  x,y,z

loop_
_atom_site_label
_atom_site_type_symbol
_atom_site_fract_x
_atom_site_fract_y
_atom_site_fract_z
_atom_site_charge
Cu	Cu	0.25121 0.44778 0.29787 0.91000
Cu	Cu	0.23987 0.51803 0.19395 0.91000
Cu	Cu	0.04077 0.23112 0.30217 0.94700
O 	O 	0.25750 0.36230 0.25270 -0.39100
O 	O 	0.24520 0.42250 0.16400 -0.38200
O 	O 	0.26720 0.10020 0.26180 -0.36900
O 	O 	0.25880 0.04190 0.17520 -0.39800
O 	O 	0.31751 0.47190 0.32420 -0.27400
O 	O 	0.30720 0.53080 0.23810 -0.29700
O 	O 	0.50730 0.65930 0.33040 -0.25800
O 	O 	0.44090 0.65700 0.23930 -0.28200
O 	O 	0.18450 0.43820 0.25320 -0.38600
O 	O 	0.17230 0.49790 0.16580 -0.35200
O 	O 	0.05414 0.30340 0.25700 -0.36700
O 	O 	0.98281 0.29450 0.17500 -0.45100
C 	C 	0.25250 0.36800 0.19910 0.34500
C 	C 	0.25670 0.29690 0.17010 0.06300
C 	C 	0.25270 0.29630 0.10870 -0.21100
H 	H 	0.24980 0.33920 0.08700 0.19500
C 	C 	0.25320 0.23140 0.07980 0.36300
C 	C 	0.25760 0.16730 0.11220 -0.22000
H 	H 	0.25800 0.12390 0.09280 0.14900
C 	C 	0.26160 0.16790 0.17360 0.04800
C 	C 	0.26110 0.23270 0.20260 -0.07500
H 	H 	0.26370 0.23310 0.24360 0.10700
C 	C 	0.26260 0.09890 0.20280 0.31900
C 	C 	0.33100 0.50580 0.29490 -0.04100
C 	C 	0.37987 0.52400 0.32590 1.05000
C 	C 	0.39759 0.56880 0.29500 -1.01400
H 	H 	0.37830 0.58500 0.25380 0.41000
C 	C 	0.44420 0.58930 0.32560 1.04300
C 	C 	0.47299 0.56500 0.38710 -1.98300
H 	H 	0.50410 0.57870 0.40760 0.85600
C 	C 	0.45530 0.52020 0.41800 3.18100
C 	C 	0.40870 0.49970 0.38740 -1.97100
H 	H 	0.39680 0.46980 0.40810 0.84400
C 	C 	0.46380 0.64240 0.29620 -0.10800
H 	H 	0.45240 0.68410 0.31040 0.07300
C 	C 	0.15730 0.45750 0.19700 0.32600
C 	C 	0.10679 0.44480 0.16930 0.00200
C 	C 	0.08936 0.39720 0.19860 -0.03900
H 	H 	0.10910 0.37770 0.23830 0.08400
C 	C 	0.04242 0.37880 0.16860 0.02100
C 	C 	0.01290 0.40800 0.10930 -0.13700
H 	H 	0.98150 0.39570 0.08920 0.13100
C 	C 	0.03030 0.45560 0.08000 0.18800
C 	C 	0.07730 0.47400 0.11000 -0.10200
H 	H 	0.08890 0.50590 0.09040 0.15900
C 	C 	0.02050 0.32570 0.19920 0.33000
C 	C 	0.25280 0.22660 0.01740 -0.50900
O 	O 	0.27600 0.18100 0.00710 -1.03100
C 	C 	0.99680 0.47850 0.01700 -0.11500
O 	O 	0.96540 0.43900 0.98180 -1.26600
C 	C 	0.48250 0.49120 0.48340 -5.93400
H 	H 	0.46980 0.45830 0.49600 7.54900
H 	H 	0.25710 0.18470 0.00560 1.09200
H 	H 	0.96940 0.45980 0.00190 1.16200
O 	O 	0.47250 0.42890 0.49350 -6.09700
N 	N 	0.51750 0.50880 0.51660 2.06200
Cu	Cu	0.75121 0.94778 0.29787 0.91800
Cu	Cu	0.73987 0.01803 0.19395 0.90100
Cu	Cu	0.54077 0.73112 0.30217 0.94000
O 	O 	0.75750 0.86230 0.25270 -0.39600
O 	O 	0.74520 0.92250 0.16400 -0.37500
O 	O 	0.76720 0.60020 0.26180 -0.37000
O 	O 	0.75880 0.54190 0.17520 -0.38700
O 	O 	0.81751 0.97190 0.32420 -0.36300
O 	O 	0.80720 0.03080 0.23810 -0.37700
O 	O 	0.00730 0.15930 0.33040 -0.33600
O 	O 	0.94090 0.15700 0.23930 -0.37300
O 	O 	0.68450 0.93820 0.25320 -0.38100
O 	O 	0.67230 0.99790 0.16580 -0.33600
O 	O 	0.55414 0.80340 0.25700 -0.37000
O 	O 	0.48281 0.79450 0.17500 -0.46200
C 	C 	0.75250 0.86800 0.19910 0.34300
C 	C 	0.75670 0.79690 0.17010 0.05600
C 	C 	0.75270 0.79630 0.10870 -0.20600
H 	H 	0.74980 0.83920 0.08700 0.19300
C 	C 	0.75320 0.73140 0.07980 0.34800
C 	C 	0.75760 0.66730 0.11220 -0.21400
H 	H 	0.75800 0.62390 0.09280 0.14800
C 	C 	0.76160 0.66790 0.17360 0.04200
C 	C 	0.76110 0.73270 0.20260 -0.07400
H 	H 	0.76370 0.73310 0.24360 0.10100
C 	C 	0.76260 0.59890 0.20280 0.31800
C 	C 	0.83100 0.00580 0.29490 0.27100
C 	C 	0.87987 0.02400 0.32590 0.19100
C 	C 	0.89759 0.06880 0.29500 -0.23400
H 	H 	0.87830 0.08500 0.25380 0.14900
C 	C 	0.94420 0.08930 0.32560 0.23200
C 	C 	0.97299 0.06500 0.38710 -0.54200
H 	H 	0.00410 0.07870 0.40760 0.31900
C 	C 	0.95530 0.02020 0.41800 0.92000
C 	C 	0.90870 0.99970 0.38740 -0.49300
H 	H 	0.89680 0.96980 0.40810 0.28500
C 	C 	0.96380 0.14240 0.29620 0.25700
H 	H 	0.95240 0.18410 0.31040 0.00200
C 	C 	0.65730 0.95750 0.19700 0.33100
C 	C 	0.60679 0.94480 0.16930 -0.00800
C 	C 	0.58936 0.89720 0.19860 -0.03000
H 	H 	0.60910 0.87770 0.23830 0.08200
C 	C 	0.54242 0.87880 0.16860 0.01600
C 	C 	0.51290 0.90800 0.10930 -0.13200
H 	H 	0.48150 0.89570 0.08920 0.12700
C 	C 	0.53030 0.95560 0.08000 0.21200
C 	C 	0.57730 0.97400 0.11000 -0.06100
H 	H 	0.58890 0.00590 0.09040 0.13000
C 	C 	0.52050 0.82570 0.19920 0.34100
C 	C 	0.75280 0.72660 0.01740 -0.48400
O 	O 	0.77600 0.68100 0.00710 -1.03100
C 	C 	0.49680 0.97850 0.01700 -0.19400
O 	O 	0.46540 0.93900 0.98180 -1.33400
C 	C 	0.98250 0.99120 0.48340 -1.72400
H 	H 	0.96980 0.95830 0.49600 3.00900
H 	H 	0.75710 0.68470 0.00560 1.08100
H 	H 	0.46940 0.95980 0.00190 1.25100
O 	O 	0.97250 0.92890 0.49350 -2.67900
N 	N 	0.01750 0.00880 0.51660 0.09100
Cu	Cu	0.74879 0.44778 0.20213 0.91200
Cu	Cu	0.76013 0.51803 0.30605 0.90900
Cu	Cu	0.95923 0.23112 0.19783 0.94800
O 	O 	0.74250 0.36230 0.24730 -0.39700
O 	O 	0.75480 0.42250 0.33600 -0.39000
O 	O 	0.73280 0.10020 0.23820 -0.37400
O 	O 	0.74120 0.04190 0.32480 -0.40600
O 	O 	0.68249 0.47190 0.17580 -0.33300
O 	O 	0.69280 0.53080 0.26190 -0.33900
O 	O 	0.49270 0.65930 0.16960 -0.29000
O 	O 	0.55910 0.65700 0.26070 -0.32800
O 	O 	0.81550 0.43820 0.24680 -0.38300
O 	O 	0.82770 0.49790 0.33420 -0.35300
O 	O 	0.94586 0.30340 0.24300 -0.36800
O 	O 	0.01719 0.29450 0.32500 -0.47000
C 	C 	0.74750 0.36800 0.30090 0.35800
C 	C 	0.74330 0.29690 0.32990 0.02000
C 	C 	0.74730 0.29630 0.39130 -0.13800
H 	H 	0.75020 0.33920 0.41300 0.16100
C 	C 	0.74680 0.23140 0.42020 0.24100
C 	C 	0.74240 0.16730 0.38780 -0.14500
H 	H 	0.74200 0.12390 0.40720 0.11800
C 	C 	0.73840 0.16790 0.32640 0.00300
C 	C 	0.73890 0.23270 0.29740 -0.03700
H 	H 	0.73630 0.23310 0.25640 0.09200
C 	C 	0.73740 0.09890 0.29720 0.33400
C 	C 	0.66900 0.50580 0.20510 0.13600
C 	C 	0.62013 0.52400 0.17410 0.61800
C 	C 	0.60241 0.56880 0.20500 -0.61000
H 	H 	0.62170 0.58500 0.24620 0.27600
C 	C 	0.55580 0.58930 0.17440 0.62800
C 	C 	0.52701 0.56500 0.11290 -1.22600
H 	H 	0.49590 0.57870 0.09240 0.58700
C 	C 	0.54470 0.52020 0.08200 1.99000
C 	C 	0.59130 0.49970 0.11260 -1.21900
H 	H 	0.60320 0.46980 0.09190 0.55800
C 	C 	0.53620 0.64240 0.20380 0.07800
H 	H 	0.54760 0.68410 0.18960 0.03800
C 	C 	0.84270 0.45750 0.30300 0.32100
C 	C 	0.89321 0.44480 0.33070 0.01400
C 	C 	0.91064 0.39720 0.30140 -0.04500
H 	H 	0.89090 0.37770 0.26170 0.08700
C 	C 	0.95758 0.37880 0.33140 0.01800
C 	C 	0.98710 0.40800 0.39070 -0.13500
H 	H 	0.01850 0.39570 0.41080 0.11600
C 	C 	0.96970 0.45560 0.42000 0.23300
C 	C 	0.92270 0.47400 0.39000 -0.13100
H 	H 	0.91110 0.50590 0.40960 0.17100
C 	C 	0.97950 0.32570 0.30080 0.34700
C 	C 	0.74720 0.22660 0.48260 -0.28800
O 	O 	0.72400 0.18100 0.49290 -0.95400
C 	C 	0.00320 0.47850 0.48300 -0.22400
O 	O 	0.03460 0.43900 0.51820 -1.15500
C 	C 	0.51750 0.49120 0.01660 -3.60700
H 	H 	0.53020 0.45830 0.00400 5.02500
H 	H 	0.74290 0.18470 0.49440 0.93400
H 	H 	0.03060 0.45980 0.49810 1.09600
O 	O 	0.52750 0.42890 0.00650 -4.17700
N 	N 	0.48250 0.50880 0.98340 0.97100
Cu	Cu	0.24879 0.94778 0.20213 0.91900
Cu	Cu	0.26013 0.01803 0.30605 0.90000
Cu	Cu	0.45923 0.73112 0.19783 0.94100
O 	O 	0.24250 0.86230 0.24730 -0.40000
O 	O 	0.25480 0.92250 0.33600 -0.38200
O 	O 	0.23280 0.60020 0.23820 -0.37400
O 	O 	0.24120 0.54190 0.32480 -0.39600
O 	O 	0.18249 0.97190 0.17580 -0.38300
O 	O 	0.19280 0.03080 0.26190 -0.39300
O 	O 	0.99270 0.15930 0.16960 -0.33200
O 	O 	0.05910 0.15700 0.26070 -0.38700
O 	O 	0.31550 0.93820 0.24680 -0.37600
O 	O 	0.32770 0.99790 0.33420 -0.33300
O 	O 	0.44586 0.80340 0.24300 -0.37000
O 	O 	0.51719 0.79450 0.32500 -0.46800
C 	C 	0.24750 0.86800 0.30090 0.35500
C 	C 	0.24330 0.79690 0.32990 0.01400
C 	C 	0.24730 0.79630 0.39130 -0.13600
H 	H 	0.25020 0.83920 0.41300 0.15900
C 	C 	0.24680 0.73140 0.42020 0.23000
C 	C 	0.24240 0.66730 0.38780 -0.14300
H 	H 	0.24200 0.62390 0.40720 0.11800
C 	C 	0.23840 0.66790 0.32640 -0.00100
C 	C 	0.23890 0.73270 0.29740 -0.03800
H 	H 	0.23630 0.73310 0.25640 0.08700
C 	C 	0.23740 0.59890 0.29720 0.33300
C 	C 	0.16900 0.00580 0.20510 0.33400
C 	C 	0.12013 0.02400 0.17410 0.03700
C 	C 	0.10241 0.06880 0.20500 -0.09500
H 	H 	0.12170 0.08500 0.24620 0.10200
C 	C 	0.05580 0.08930 0.17440 0.09500
C 	C 	0.02701 0.06500 0.11290 -0.29300
H 	H 	0.99590 0.07870 0.09240 0.24300
C 	C 	0.04470 0.02020 0.08200 0.48300
C 	C 	0.09130 0.99970 0.11260 -0.22000
H 	H 	0.10320 0.96980 0.09190 0.18200
C 	C 	0.03620 0.14240 0.20380 0.30100
H 	H 	0.04760 0.18410 0.18960 -0.00700
C 	C 	0.34270 0.95750 0.30300 0.31700
C 	C 	0.39321 0.94480 0.33070 0.02900
C 	C 	0.41064 0.89720 0.30140 -0.06400
H 	H 	0.39090 0.87770 0.26170 0.09300
C 	C 	0.45758 0.87880 0.33140 0.04400
C 	C 	0.48710 0.90800 0.39070 -0.19800
H 	H 	0.51850 0.89570 0.41080 0.14200
C 	C 	0.46970 0.95560 0.42000 0.31500
C 	C 	0.42270 0.97400 0.39000 -0.13200
H 	H 	0.41110 0.00590 0.40960 0.15500
C 	C 	0.47950 0.82570 0.30080 0.33000
C 	C 	0.24720 0.72660 0.48260 -0.27300
O 	O 	0.22400 0.68100 0.49290 -0.96200
C 	C 	0.50320 0.97850 0.48300 -0.41400
O 	O 	0.53460 0.93900 0.51820 -1.27600
C 	C 	0.01750 0.99120 0.01660 -0.83200
H 	H 	0.03020 0.95830 0.00400 2.03700
H 	H 	0.24290 0.68470 0.49440 0.93300
H 	H 	0.53060 0.95980 0.49810 1.27300
O 	O 	0.02750 0.92890 0.00650 -1.93200
N 	N 	0.98250 0.00880 0.98340 -0.32700
Cu	Cu	0.74879 0.55222 0.70213 0.91400
Cu	Cu	0.76013 0.48197 0.80605 0.91000
Cu	Cu	0.95923 0.76888 0.69783 0.94900
O 	O 	0.74250 0.63770 0.74730 -0.41200
O 	O 	0.75480 0.57750 0.83600 -0.40200
O 	O 	0.73280 0.89980 0.73820 -0.37300
O 	O 	0.74120 0.95810 0.82480 -0.38700
O 	O 	0.68249 0.52810 0.67580 -0.45200
O 	O 	0.69280 0.46920 0.76190 -0.42400
O 	O 	0.49270 0.34070 0.66960 -0.32800
O 	O 	0.55910 0.34300 0.76070 -0.41300
O 	O 	0.81550 0.56180 0.74680 -0.38200
O 	O 	0.82770 0.50210 0.83420 -0.35300
O 	O 	0.94586 0.69660 0.74300 -0.36600
O 	O 	0.01719 0.70550 0.82500 -0.46900
C 	C 	0.74750 0.63200 0.80090 0.37200
C 	C 	0.74330 0.70310 0.82990 -0.03700
C 	C 	0.74730 0.70370 0.89130 -0.05400
H 	H 	0.75020 0.66080 0.91300 0.11600
C 	C 	0.74680 0.76860 0.92020 0.09600
C 	C 	0.74240 0.83270 0.88780 -0.06100
H 	H 	0.74200 0.87610 0.90720 0.08900
C 	C 	0.73840 0.83210 0.82640 -0.04700
C 	C 	0.73890 0.76730 0.79740 0.00600
H 	H 	0.73630 0.76690 0.75640 0.07000
C 	C 	0.73740 0.90110 0.79720 0.34800
C 	C 	0.66900 0.49420 0.70510 0.48300
C 	C 	0.62013 0.47600 0.67410 -0.22400
C 	C 	0.60241 0.43120 0.70500 0.17000
H 	H 	0.62170 0.41500 0.74620 0.01500
C 	C 	0.55580 0.41070 0.67440 -0.15500
C 	C 	0.52701 0.43500 0.61290 0.26300
H 	H 	0.49590 0.42130 0.59240 0.12200
C 	C 	0.54470 0.47980 0.58200 -0.33100
C 	C 	0.59130 0.50030 0.61260 0.26400
H 	H 	0.60320 0.53020 0.59190 -0.01000
C 	C 	0.53620 0.35760 0.70380 0.40400
H 	H 	0.54760 0.31590 0.68960 -0.00300
C 	C 	0.84270 0.54250 0.80300 0.30300
C 	C 	0.89321 0.55520 0.83070 0.06200
C 	C 	0.91064 0.60280 0.80140 -0.09100
H 	H 	0.89090 0.62230 0.76170 0.10100
C 	C 	0.95758 0.62120 0.83140 0.06200
C 	C 	0.98710 0.59200 0.89070 -0.22400
H 	H 	0.01850 0.60430 0.91080 0.14000
C 	C 	0.96970 0.54440 0.92000 0.38500
C 	C 	0.92270 0.52600 0.89000 -0.23100
H 	H 	0.91110 0.49410 0.90960 0.20300
C 	C 	0.97950 0.67430 0.80080 0.33600
C 	C 	0.74720 0.77340 0.98260 -0.02800
O 	O 	0.72400 0.81900 0.99290 -0.89500
C 	C 	0.00320 0.52150 0.98300 -0.54500
O 	O 	0.03460 0.56100 0.01820 -1.10700
H 	H 	0.53020 0.54170 0.50400 -0.56600
H 	H 	0.74290 0.81530 0.99440 0.77500
H 	H 	0.03060 0.54020 0.99810 1.16600
O 	O 	0.52750 0.57110 0.50650 0.22300
Cu	Cu	0.24879 0.05222 0.70213 0.90700
Cu	Cu	0.26013 0.98197 0.80605 0.92000
Cu	Cu	0.45923 0.26888 0.69783 0.95300
O 	O 	0.24250 0.13770 0.74730 -0.41200
O 	O 	0.25480 0.07750 0.83600 -0.41100
O 	O 	0.23280 0.39980 0.73820 -0.37800
O 	O 	0.24120 0.45810 0.82480 -0.40000
O 	O 	0.18249 0.02810 0.67580 -0.45400
O 	O 	0.19280 0.96920 0.76190 -0.40500
O 	O 	0.99270 0.84070 0.66960 -0.32800
O 	O 	0.05910 0.84300 0.76070 -0.39300
O 	O 	0.31550 0.06180 0.74680 -0.38500
O 	O 	0.32770 0.00210 0.83420 -0.36600
O 	O 	0.44586 0.19660 0.74300 -0.36200
O 	O 	0.51719 0.20550 0.82500 -0.45000
C 	C 	0.24750 0.13200 0.80090 0.37700
C 	C 	0.24330 0.20310 0.82990 -0.04300
C 	C 	0.24730 0.20370 0.89130 -0.04100
H 	H 	0.25020 0.16080 0.91300 0.11000
C 	C 	0.24680 0.26860 0.92020 0.08100
C 	C 	0.24240 0.33270 0.88780 -0.04700
H 	H 	0.24200 0.37610 0.90720 0.08300
C 	C 	0.23840 0.33210 0.82640 -0.05500
C 	C 	0.23890 0.26730 0.79740 0.01600
H 	H 	0.23630 0.26690 0.75640 0.06900
C 	C 	0.23740 0.40110 0.79720 0.35400
C 	C 	0.16900 0.99420 0.70510 0.42100
C 	C 	0.12013 0.97600 0.67410 0.01500
C 	C 	0.10241 0.93120 0.70500 -0.04400
H 	H 	0.12170 0.91500 0.74620 0.08500
C 	C 	0.05580 0.91070 0.67440 0.03600
C 	C 	0.02701 0.93500 0.61290 -0.13900
H 	H 	0.99590 0.92130 0.59240 0.20100
C 	C 	0.04470 0.97980 0.58200 0.24500
C 	C 	0.09130 0.00030 0.61260 -0.17500
H 	H 	0.10320 0.03020 0.59190 0.14300
C 	C 	0.03620 0.85760 0.70380 0.32200
H 	H 	0.04760 0.81590 0.68960 -0.00700
C 	C 	0.34270 0.04250 0.80300 0.29700
C 	C 	0.39321 0.05520 0.83070 0.07800
C 	C 	0.41064 0.10280 0.80140 -0.10300
H 	H 	0.39090 0.12230 0.76170 0.10600
C 	C 	0.45758 0.12120 0.83140 0.07800
C 	C 	0.48710 0.09200 0.89070 -0.23500
H 	H 	0.51850 0.10430 0.91080 0.15600
C 	C 	0.46970 0.04440 0.92000 0.36800
C 	C 	0.42270 0.02600 0.89000 -0.27100
H 	H 	0.41110 0.99410 0.90960 0.23600
C 	C 	0.47950 0.17430 0.80080 0.32100
C 	C 	0.24720 0.27340 0.98260 0.00300
O 	O 	0.22400 0.31900 0.99290 -0.89000
C 	C 	0.50320 0.02150 0.98300 -0.45900
O 	O 	0.53460 0.06100 0.01820 -1.03600
H 	H 	0.03020 0.04170 0.50400 1.23300
H 	H 	0.24290 0.31530 0.99440 0.75900
H 	H 	0.53060 0.04020 0.99810 1.08000
O 	O 	0.02750 0.07110 0.50650 -1.34300
Cu	Cu	0.25121 0.55222 0.79787 0.91200
Cu	Cu	0.23987 0.48197 0.69395 0.91100
Cu	Cu	0.04077 0.76888 0.80217 0.94500
O 	O 	0.25750 0.63770 0.75270 -0.40800
O 	O 	0.24520 0.57750 0.66400 -0.39400
O 	O 	0.26720 0.89980 0.76180 -0.37100
O 	O 	0.25880 0.95810 0.67520 -0.37900
O 	O 	0.31751 0.52810 0.82420 -0.44300
O 	O 	0.30720 0.46920 0.73810 -0.41300
O 	O 	0.50730 0.34070 0.83040 -0.34100
O 	O 	0.44090 0.34300 0.73930 -0.40300
O 	O 	0.18450 0.56180 0.75320 -0.38500
O 	O 	0.17230 0.50210 0.66580 -0.35100
O 	O 	0.05414 0.69660 0.75700 -0.36600
O 	O 	0.98281 0.70550 0.67500 -0.44300
C 	C 	0.25250 0.63200 0.69910 0.36000
C 	C 	0.25670 0.70310 0.67010 0.00400
C 	C 	0.25270 0.70370 0.60870 -0.12300
H 	H 	0.24980 0.66080 0.58700 0.15000
C 	C 	0.25320 0.76860 0.57980 0.21400
C 	C 	0.25760 0.83270 0.61220 -0.13100
H 	H 	0.25800 0.87610 0.59280 0.12000
C 	C 	0.26160 0.83210 0.67360 -0.00500
C 	C 	0.26110 0.76730 0.70260 -0.03000
H 	H 	0.26370 0.76690 0.74360 0.08200
C 	C 	0.26260 0.90110 0.70280 0.33400
C 	C 	0.33100 0.49420 0.79490 0.44300
C 	C 	0.37987 0.47600 0.82590 -0.13200
C 	C 	0.39759 0.43120 0.79500 0.08000
H 	H 	0.37830 0.41500 0.75380 0.04500
C 	C 	0.44420 0.41070 0.82560 -0.08000
C 	C 	0.47299 0.43500 0.88710 0.08200
H 	H 	0.50410 0.42130 0.90760 0.13800
C 	C 	0.45530 0.47980 0.91800 -0.06900
C 	C 	0.40870 0.50030 0.88740 0.08500
H 	H 	0.39680 0.53020 0.90810 0.05300
C 	C 	0.46380 0.35760 0.79620 0.37700
H 	H 	0.45240 0.31590 0.81040 -0.01000
C 	C 	0.15730 0.54250 0.69700 0.30700
C 	C 	0.10679 0.55520 0.66930 0.05300
C 	C 	0.08936 0.60280 0.69860 -0.09000
H 	H 	0.10910 0.62230 0.73830 0.09900
C 	C 	0.04242 0.62120 0.66860 0.07300
C 	C 	0.01290 0.59200 0.60930 -0.23900
H 	H 	0.98150 0.60430 0.58920 0.16600
C 	C 	0.03030 0.54440 0.58000 0.34500
C 	C 	0.07730 0.52600 0.61000 -0.20500
H 	H 	0.08890 0.49410 0.59040 0.19400
C 	C 	0.02050 0.67430 0.69920 0.31100
C 	C 	0.25280 0.77340 0.51740 -0.23800
O 	O 	0.27600 0.81900 0.50710 -0.96100
C 	C 	0.99680 0.52150 0.51700 -0.43600
O 	O 	0.96540 0.56100 0.48180 -1.23600
H 	H 	0.46980 0.54170 0.99600 0.44500
H 	H 	0.25710 0.81530 0.50560 0.92200
H 	H 	0.96940 0.54020 0.50190 1.25000
O 	O 	0.47250 0.57110 0.99350 -0.67400
Cu	Cu	0.75121 0.05222 0.79787 0.90500
Cu	Cu	0.73987 0.98197 0.69395 0.92200
Cu	Cu	0.54077 0.26888 0.80217 0.94900
O 	O 	0.75750 0.13770 0.75270 -0.40800
O 	O 	0.74520 0.07750 0.66400 -0.40200
O 	O 	0.76720 0.39980 0.76180 -0.37400
O 	O 	0.75880 0.45810 0.67520 -0.39000
O 	O 	0.81751 0.02810 0.82420 -0.45300
O 	O 	0.80720 0.96920 0.73810 -0.40000
O 	O 	0.00730 0.84070 0.83040 -0.35700
O 	O 	0.94090 0.84300 0.73930 -0.39500
O 	O 	0.68450 0.06180 0.75320 -0.39000
O 	O 	0.67230 0.00210 0.66580 -0.36600
O 	O 	0.55414 0.19660 0.75700 -0.36500
O 	O 	0.48281 0.20550 0.67500 -0.44100
C 	C 	0.75250 0.13200 0.69910 0.36400
C 	C 	0.75670 0.20310 0.67010 0.00100
C 	C 	0.75270 0.20370 0.60870 -0.11200
H 	H 	0.74980 0.16080 0.58700 0.14600
C 	C 	0.75320 0.26860 0.57980 0.20600
C 	C 	0.75760 0.33270 0.61220 -0.11900
H 	H 	0.75800 0.37610 0.59280 0.11700
C 	C 	0.76160 0.33210 0.67360 -0.00800
C 	C 	0.76110 0.26730 0.70260 -0.02200
H 	H 	0.76370 0.26690 0.74360 0.08200
C 	C 	0.76260 0.40110 0.70280 0.34000
C 	C 	0.83100 0.99420 0.79490 0.41200
C 	C 	0.87987 0.97600 0.82590 0.03600
C 	C 	0.89759 0.93120 0.79500 -0.05700
H 	H 	0.87830 0.91500 0.75380 0.09100
C 	C 	0.94420 0.91070 0.82560 0.03400
C 	C 	0.97299 0.93500 0.88710 -0.15300
H 	H 	0.00410 0.92130 0.90760 0.17100
C 	C 	0.95530 0.97980 0.91800 0.32100
C 	C 	0.90870 0.00030 0.88740 -0.22700
H 	H 	0.89680 0.03020 0.90810 0.16000
C 	C 	0.96380 0.85760 0.79620 0.34900
H 	H 	0.95240 0.81590 0.81040 -0.01600
C 	C 	0.65730 0.04250 0.69700 0.31200
C 	C 	0.60679 0.05520 0.66930 0.04300
C 	C 	0.58936 0.10280 0.69860 -0.06800
H 	H 	0.60910 0.12230 0.73830 0.09400
C 	C 	0.54242 0.12120 0.66860 0.05100
C 	C 	0.51290 0.09200 0.60930 -0.16600
H 	H 	0.48150 0.10430 0.58920 0.14500
C 	C 	0.53030 0.04440 0.58000 0.26500
C 	C 	0.57730 0.02600 0.61000 -0.19900
H 	H 	0.58890 0.99410 0.59040 0.21300
C 	C 	0.52050 0.17430 0.69920 0.33300
C 	C 	0.75280 0.27340 0.51740 -0.21400
O 	O 	0.77600 0.31900 0.50710 -0.95600
C 	C 	0.49680 0.02150 0.51700 -0.23100
O 	O 	0.46540 0.06100 0.48180 -1.06800
H 	H 	0.96980 0.04170 0.99600 1.62300
H 	H 	0.75710 0.31530 0.50560 0.91000
H 	H 	0.46940 0.04020 0.50190 1.03700
O 	O 	0.97250 0.07110 0.99350 -1.69500
