data_crystal

_cell_length_a 17.70990
_cell_length_b 17.70990
_cell_length_c 32.97700
_cell_angle_alpha 90.00000
_cell_angle_beta  90.00000
_cell_angle_gamma 120.00000

_symmetry_space_group_name_	'P 1'
_symmetry_space_group_name_H-M	'P 1'

loop_
_symmetry_equiv_pos_as_xyz
  x,y,z

loop_
_atom_site_label
_atom_site_type_symbol
_atom_site_fract_x
_atom_site_fract_y
_atom_site_fract_z
_atom_site_charge
C 	C 	0.12860 0.75260 0.00858 -0.03600
C 	C 	0.18230 0.76670 0.97539 0.03000
C 	C 	0.15540 0.62770 0.98005 0.01600
H 	H 	0.16180 0.58200 0.97010 0.06000
C 	C 	0.10300 0.61260 0.01361 0.02800
H 	H 	0.07670 0.55830 0.02620 0.04100
C 	C 	0.23070 0.85190 0.95310 0.31600
C 	C 	0.11050 0.82150 0.02477 0.33500
N 	N 	0.08990 0.67550 0.02796 -0.22600
N 	N 	0.19730 0.70440 0.96121 -0.08700
O 	O 	0.05791 0.79963 0.05449 -0.46400
O 	O 	0.30710 0.90400 0.96399 -0.42800
O 	O 	0.33080 0.19730 0.07638 -0.39300
O 	O 	0.14710 0.89280 0.00841 -0.20200
C 	C 	0.79527 0.08593 0.34191 -0.03700
C 	C 	0.84897 0.10003 0.30872 0.02700
C 	C 	0.82207 0.96103 0.31338 0.06100
H 	H 	0.82847 0.91533 0.30343 0.06000
C 	C 	0.76967 0.94593 0.34694 0.07500
H 	H 	0.74337 0.89163 0.35953 0.04000
C 	C 	0.89737 0.18523 0.28643 0.31700
C 	C 	0.77717 0.15483 0.35810 0.33700
N 	N 	0.75657 0.00883 0.36129 -0.25100
N 	N 	0.86397 0.03773 0.29454 -0.11000
O 	O 	0.72458 0.13296 0.38782 -0.45700
O 	O 	0.97377 0.23733 0.29732 -0.42000
O 	O 	0.99747 0.53063 0.40971 -0.32700
O 	O 	0.81377 0.22613 0.34174 -0.20800
C 	C 	0.46193 0.41927 0.67525 -0.03200
C 	C 	0.51563 0.43337 0.64206 0.02700
C 	C 	0.48873 0.29437 0.64672 0.01700
H 	H 	0.49513 0.24867 0.63677 0.06100
C 	C 	0.43633 0.27927 0.68028 0.03300
H 	H 	0.41003 0.22497 0.69287 0.04400
C 	C 	0.56403 0.51857 0.61977 0.32100
C 	C 	0.44383 0.48817 0.69144 0.33700
N 	N 	0.42323 0.34217 0.69463 -0.22200
N 	N 	0.53063 0.37107 0.62788 -0.08600
O 	O 	0.39124 0.46630 0.72116 -0.45400
O 	O 	0.64043 0.57067 0.63066 -0.44900
O 	O 	0.66413 0.86397 0.74305 -0.37600
O 	O 	0.48043 0.55947 0.67508 -0.21200
C 	C 	0.24740 0.37600 0.00858 -0.03500
C 	C 	0.23330 0.41560 0.97539 0.02500
C 	C 	0.37230 0.52770 0.98005 0.01800
H 	H 	0.41800 0.57980 0.97010 0.06200
C 	C 	0.38740 0.49040 0.01361 0.03200
H 	H 	0.44170 0.51840 0.02620 0.04600
C 	C 	0.14810 0.37880 0.95310 0.32500
C 	C 	0.17850 0.28900 0.02477 0.34000
N 	N 	0.32450 0.41440 0.02796 -0.22100
N 	N 	0.29560 0.49290 0.96121 -0.08600
O 	O 	0.20037 0.25828 0.05449 -0.46400
O 	O 	0.09600 0.40310 0.96399 -0.46900
O 	O 	0.80270 0.13350 0.07638 -0.39400
O 	O 	0.10720 0.25430 0.00841 -0.23300
C 	C 	0.91407 0.70933 0.34191 -0.02400
C 	C 	0.89997 0.74893 0.30872 0.03600
C 	C 	0.03897 0.86103 0.31338 -0.02200
H 	H 	0.08467 0.91313 0.30343 0.08100
C 	C 	0.05407 0.82373 0.34694 -0.00200
H 	H 	0.10837 0.85173 0.35953 0.05900
C 	C 	0.81477 0.71213 0.28643 0.32100
C 	C 	0.84517 0.62233 0.35810 0.33900
N 	N 	0.99117 0.74773 0.36129 -0.19000
N 	N 	0.96227 0.82623 0.29454 -0.05200
O 	O 	0.86704 0.59161 0.38782 -0.45000
O 	O 	0.76267 0.73643 0.29732 -0.44600
O 	O 	0.46937 0.46683 0.40971 -0.38600
O 	O 	0.77387 0.58763 0.34174 -0.21000
C 	C 	0.58073 0.04267 0.67525 -0.09000
C 	C 	0.56663 0.08227 0.64206 0.05200
C 	C 	0.70563 0.19437 0.64672 0.02000
H 	H 	0.75133 0.24647 0.63677 0.06200
C 	C 	0.72073 0.15707 0.68028 0.02700
H 	H 	0.77503 0.18507 0.69287 0.04800
C 	C 	0.48143 0.04547 0.61977 0.24600
C 	C 	0.51183 0.95567 0.69144 0.39100
N 	N 	0.65783 0.08107 0.69463 -0.22000
N 	N 	0.62893 0.15957 0.62788 -0.09300
O 	O 	0.53370 0.92495 0.72116 -0.45100
O 	O 	0.42933 0.06977 0.63066 -0.44800
O 	O 	0.13603 0.80017 0.74305 -0.39000
O 	O 	0.44053 0.92097 0.67508 -0.21000
C 	C 	0.62400 0.87140 0.00858 -0.02600
C 	C 	0.58440 0.81770 0.97539 0.03100
C 	C 	0.47230 0.84460 0.98005 0.02300
H 	H 	0.42020 0.83820 0.97010 0.06500
C 	C 	0.50960 0.89700 0.01361 0.03700
H 	H 	0.48160 0.92330 0.02620 0.05300
C 	C 	0.62120 0.76930 0.95310 0.32000
C 	C 	0.71100 0.88950 0.02477 0.33700
N 	N 	0.58560 0.91010 0.02796 -0.21600
N 	N 	0.50710 0.80270 0.96121 -0.08500
O 	O 	0.74172 0.94209 0.05449 -0.43400
O 	O 	0.59690 0.69290 0.96399 -0.44900
O 	O 	0.86650 0.66920 0.07638 -0.37000
O 	O 	0.74570 0.85290 0.00841 -0.19900
C 	C 	0.29067 0.20473 0.34191 -0.03400
C 	C 	0.25107 0.15103 0.30872 0.02100
C 	C 	0.13897 0.17793 0.31338 0.01400
H 	H 	0.08687 0.17153 0.30343 0.04600
C 	C 	0.17627 0.23033 0.34694 0.02700
H 	H 	0.14827 0.25663 0.35953 0.04000
C 	C 	0.28787 0.10263 0.28643 0.32300
C 	C 	0.37767 0.22283 0.35810 0.33600
N 	N 	0.25227 0.24343 0.36129 -0.22200
N 	N 	0.17377 0.13603 0.29454 -0.09500
O 	O 	0.40839 0.27542 0.38782 -0.45500
O 	O 	0.26357 0.02623 0.29732 -0.47700
O 	O 	0.53317 0.00253 0.40971 -0.44500
O 	O 	0.41237 0.18623 0.34174 -0.21600
C 	C 	0.95733 0.53807 0.67525 0.02800
C 	C 	0.91773 0.48437 0.64206 0.00400
C 	C 	0.80563 0.51127 0.64672 0.01600
H 	H 	0.75353 0.50487 0.63677 0.06300
C 	C 	0.84293 0.56367 0.68028 0.04000
H 	H 	0.81493 0.58997 0.69287 0.04600
C 	C 	0.95453 0.43597 0.61977 0.39500
C 	C 	0.04433 0.55617 0.69144 0.28300
N 	N 	0.91893 0.57677 0.69463 -0.22000
N 	N 	0.84043 0.46937 0.62788 -0.07900
O 	O 	0.07505 0.60876 0.72116 -0.45300
O 	O 	0.93023 0.35957 0.63066 -0.45000
O 	O 	0.19983 0.33587 0.74305 -0.39000
O 	O 	0.07903 0.51957 0.67508 -0.21200
C 	C 	0.75260 0.12860 0.49142 -0.03500
C 	C 	0.76670 0.18230 0.52461 0.02700
C 	C 	0.62770 0.15540 0.51995 0.01300
H 	H 	0.58200 0.16180 0.52990 0.05900
C 	C 	0.61260 0.10300 0.48639 0.02900
H 	H 	0.55830 0.07670 0.47380 0.03900
C 	C 	0.85190 0.23070 0.54690 0.31600
C 	C 	0.82150 0.11050 0.47523 0.33400
N 	N 	0.67550 0.08990 0.47204 -0.22600
N 	N 	0.70440 0.19730 0.53879 -0.08700
O 	O 	0.79963 0.05791 0.44551 -0.46400
O 	O 	0.90400 0.30710 0.53601 -0.42800
O 	O 	0.19730 0.33080 0.42362 -0.39300
O 	O 	0.89280 0.14710 0.49159 -0.20200
C 	C 	0.41927 0.46193 0.82475 -0.03200
C 	C 	0.43337 0.51563 0.85794 0.02700
C 	C 	0.29437 0.48873 0.85328 0.01700
H 	H 	0.24867 0.49513 0.86323 0.06100
C 	C 	0.27927 0.43633 0.81972 0.03300
H 	H 	0.22497 0.41003 0.80713 0.04400
C 	C 	0.51857 0.56403 0.88023 0.32100
C 	C 	0.48817 0.44383 0.80856 0.33700
N 	N 	0.34217 0.42323 0.80537 -0.22200
N 	N 	0.37107 0.53063 0.87212 -0.08600
O 	O 	0.46630 0.39124 0.77884 -0.45400
O 	O 	0.57067 0.64043 0.86934 -0.44900
O 	O 	0.86397 0.66413 0.75695 -0.37600
O 	O 	0.55947 0.48043 0.82492 -0.21200
C 	C 	0.08593 0.79527 0.15809 -0.03700
C 	C 	0.10003 0.84897 0.19128 0.02700
C 	C 	0.96103 0.82207 0.18662 0.06100
H 	H 	0.91533 0.82847 0.19657 0.05900
C 	C 	0.94593 0.76967 0.15306 0.07500
H 	H 	0.89163 0.74337 0.14047 0.04000
C 	C 	0.18523 0.89737 0.21357 0.31700
C 	C 	0.15483 0.77717 0.14190 0.33700
N 	N 	0.00883 0.75657 0.13871 -0.25100
N 	N 	0.03773 0.86397 0.20546 -0.11000
O 	O 	0.13296 0.72458 0.11218 -0.45700
O 	O 	0.23733 0.97377 0.20268 -0.42100
O 	O 	0.53063 0.99747 0.09029 -0.32800
O 	O 	0.22613 0.81377 0.15826 -0.20800
C 	C 	0.37600 0.24740 0.49142 -0.03400
C 	C 	0.41560 0.23330 0.52461 0.02500
C 	C 	0.52770 0.37230 0.51995 0.01800
H 	H 	0.57980 0.41800 0.52990 0.06200
C 	C 	0.49040 0.38740 0.48639 0.03300
H 	H 	0.51840 0.44170 0.47380 0.04600
C 	C 	0.37880 0.14810 0.54690 0.32500
C 	C 	0.28900 0.17850 0.47523 0.34000
N 	N 	0.41440 0.32450 0.47204 -0.22100
N 	N 	0.49290 0.29560 0.53879 -0.08600
O 	O 	0.25828 0.20037 0.44551 -0.46400
O 	O 	0.40310 0.09600 0.53601 -0.47000
O 	O 	0.13350 0.80270 0.42362 -0.39400
O 	O 	0.25430 0.10720 0.49159 -0.23300
C 	C 	0.04267 0.58073 0.82475 -0.08900
C 	C 	0.08227 0.56663 0.85794 0.05100
C 	C 	0.19437 0.70563 0.85328 0.02000
H 	H 	0.24647 0.75133 0.86323 0.06200
C 	C 	0.15707 0.72073 0.81972 0.02700
H 	H 	0.18507 0.77503 0.80713 0.04800
C 	C 	0.04547 0.48143 0.88023 0.24700
C 	C 	0.95567 0.51183 0.80856 0.39100
N 	N 	0.08107 0.65783 0.80537 -0.22000
N 	N 	0.15957 0.62893 0.87212 -0.09300
O 	O 	0.92495 0.53370 0.77884 -0.45100
O 	O 	0.06977 0.42933 0.86934 -0.44800
O 	O 	0.80017 0.13603 0.75695 -0.39000
O 	O 	0.92097 0.44053 0.82492 -0.21000
C 	C 	0.70933 0.91407 0.15809 -0.02400
C 	C 	0.74893 0.89997 0.19128 0.03600
C 	C 	0.86103 0.03897 0.18662 -0.02200
H 	H 	0.91313 0.08467 0.19657 0.08100
C 	C 	0.82373 0.05407 0.15306 -0.00100
H 	H 	0.85173 0.10837 0.14047 0.05900
C 	C 	0.71213 0.81477 0.21357 0.32100
C 	C 	0.62233 0.84517 0.14190 0.33900
N 	N 	0.74773 0.99117 0.13871 -0.19000
N 	N 	0.82623 0.96227 0.20546 -0.05300
O 	O 	0.59161 0.86704 0.11218 -0.45000
O 	O 	0.73643 0.76267 0.20268 -0.44600
O 	O 	0.46683 0.46937 0.09029 -0.38600
O 	O 	0.58763 0.77387 0.15826 -0.21000
C 	C 	0.87140 0.62400 0.49142 -0.02500
C 	C 	0.81770 0.58440 0.52461 0.03100
C 	C 	0.84460 0.47230 0.51995 0.02200
H 	H 	0.83820 0.42020 0.52990 0.06500
C 	C 	0.89700 0.50960 0.48639 0.03800
H 	H 	0.92330 0.48160 0.47380 0.05300
C 	C 	0.76930 0.62120 0.54690 0.32000
C 	C 	0.88950 0.71100 0.47523 0.33700
N 	N 	0.91010 0.58560 0.47204 -0.21700
N 	N 	0.80270 0.50710 0.53879 -0.08500
O 	O 	0.94209 0.74172 0.44551 -0.43300
O 	O 	0.69290 0.59690 0.53601 -0.44900
O 	O 	0.66920 0.86650 0.42362 -0.37100
O 	O 	0.85290 0.74570 0.49159 -0.19900
C 	C 	0.53807 0.95733 0.82475 0.02800
C 	C 	0.48437 0.91773 0.85794 0.00300
C 	C 	0.51127 0.80563 0.85328 0.01600
H 	H 	0.50487 0.75353 0.86323 0.06300
C 	C 	0.56367 0.84293 0.81972 0.04000
H 	H 	0.58997 0.81493 0.80713 0.04600
C 	C 	0.43597 0.95453 0.88023 0.39500
C 	C 	0.55617 0.04433 0.80856 0.28300
N 	N 	0.57677 0.91893 0.80537 -0.22000
N 	N 	0.46937 0.84043 0.87212 -0.07900
O 	O 	0.60876 0.07505 0.77884 -0.45300
O 	O 	0.35957 0.93023 0.86934 -0.45000
O 	O 	0.33587 0.19983 0.75695 -0.39000
O 	O 	0.51957 0.07903 0.82492 -0.21200
C 	C 	0.20473 0.29067 0.15809 -0.03400
C 	C 	0.15103 0.25107 0.19128 0.02100
C 	C 	0.17793 0.13897 0.18662 0.01400
H 	H 	0.17153 0.08687 0.19657 0.04600
C 	C 	0.23033 0.17627 0.15306 0.02700
H 	H 	0.25663 0.14827 0.14047 0.04000
C 	C 	0.10263 0.28787 0.21357 0.32300
C 	C 	0.22283 0.37767 0.14190 0.33600
N 	N 	0.24343 0.25227 0.13871 -0.22200
N 	N 	0.13603 0.17377 0.20546 -0.09500
O 	O 	0.27542 0.40839 0.11218 -0.45500
O 	O 	0.02623 0.26357 0.20268 -0.47700
O 	O 	0.00253 0.53317 0.09029 -0.44500
O 	O 	0.18623 0.41237 0.15826 -0.21600
C 	C 	0.87140 0.24740 0.99142 -0.02900
C 	C 	0.81770 0.23330 0.02461 0.02900
C 	C 	0.84460 0.37230 0.01995 0.02300
H 	H 	0.83820 0.41800 0.02990 0.06500
C 	C 	0.89700 0.38740 0.98639 0.03700
H 	H 	0.92330 0.44170 0.97380 0.05300
C 	C 	0.76930 0.14810 0.04690 0.32400
C 	C 	0.88950 0.17850 0.97523 0.34100
N 	N 	0.91010 0.32450 0.97204 -0.21600
N 	N 	0.80270 0.29560 0.03879 -0.08500
O 	O 	0.94209 0.20037 0.94551 -0.44300
O 	O 	0.69290 0.09600 0.03601 -0.46900
O 	O 	0.66920 0.80270 0.92362 -0.37900
O 	O 	0.85290 0.10720 0.99159 -0.22100
C 	C 	0.53807 0.58073 0.32475 -0.03100
C 	C 	0.48437 0.56663 0.35794 0.02800
C 	C 	0.51127 0.70563 0.35328 0.01900
H 	H 	0.50487 0.75133 0.36323 0.06300
C 	C 	0.56367 0.72073 0.31972 0.03300
H 	H 	0.58997 0.77503 0.30713 0.04800
C 	C 	0.43597 0.48143 0.38023 0.32100
C 	C 	0.55617 0.51183 0.30856 0.33700
N 	N 	0.57677 0.65783 0.30537 -0.22100
N 	N 	0.46937 0.62893 0.37212 -0.08600
O 	O 	0.60876 0.53370 0.27884 -0.45400
O 	O 	0.35957 0.42933 0.36934 -0.44900
O 	O 	0.33587 0.13603 0.25695 -0.39300
O 	O 	0.51957 0.44053 0.32492 -0.21100
C 	C 	0.20473 0.91407 0.65809 -0.02600
C 	C 	0.15103 0.89997 0.69128 0.02900
C 	C 	0.17793 0.03897 0.68662 -0.02600
H 	H 	0.17153 0.08467 0.69657 0.06500
C 	C 	0.23033 0.05407 0.65306 -0.00900
H 	H 	0.25663 0.10837 0.64047 0.05300
C 	C 	0.10263 0.81477 0.71357 0.32400
C 	C 	0.22283 0.84517 0.64190 0.33700
N 	N 	0.24343 0.99117 0.63871 -0.19000
N 	N 	0.13603 0.96227 0.70546 -0.06000
O 	O 	0.27542 0.86704 0.61218 -0.45100
O 	O 	0.02623 0.76267 0.70268 -0.47300
O 	O 	0.00253 0.46937 0.59029 -0.44400
O 	O 	0.18623 0.77387 0.65826 -0.21400
C 	C 	0.75260 0.62400 0.99142 -0.02900
C 	C 	0.76670 0.58440 0.02461 0.03000
C 	C 	0.62770 0.47230 0.01995 0.01800
H 	H 	0.58200 0.42020 0.02990 0.06200
C 	C 	0.61260 0.50960 0.98639 0.03300
H 	H 	0.55830 0.48160 0.97380 0.04600
C 	C 	0.85190 0.62120 0.04690 0.31600
C 	C 	0.82150 0.71100 0.97523 0.33400
N 	N 	0.67550 0.58560 0.97204 -0.22100
N 	N 	0.70440 0.50710 0.03879 -0.08600
O 	O 	0.79963 0.74172 0.94551 -0.44400
O 	O 	0.90400 0.59690 0.03601 -0.42800
O 	O 	0.19730 0.86650 0.92362 -0.37700
O 	O 	0.89280 0.74570 0.99159 -0.19000
C 	C 	0.41927 0.95733 0.32475 0.02800
C 	C 	0.43337 0.91773 0.35794 0.00300
C 	C 	0.29437 0.80563 0.35328 0.01600
H 	H 	0.24867 0.75353 0.36323 0.06200
C 	C 	0.27927 0.84293 0.31972 0.04000
H 	H 	0.22497 0.81493 0.30713 0.04400
C 	C 	0.51857 0.95453 0.38023 0.39400
C 	C 	0.48817 0.04433 0.30856 0.28300
N 	N 	0.34217 0.91893 0.30537 -0.22000
N 	N 	0.37107 0.84043 0.37212 -0.07900
O 	O 	0.46630 0.07505 0.27884 -0.45300
O 	O 	0.57067 0.93023 0.36934 -0.45000
O 	O 	0.86397 0.19983 0.25695 -0.38000
O 	O 	0.55947 0.07903 0.32492 -0.21200
C 	C 	0.08593 0.29067 0.65809 -0.03900
C 	C 	0.10003 0.25107 0.69128 0.02000
C 	C 	0.96103 0.13897 0.68662 0.05900
H 	H 	0.91533 0.08687 0.69657 0.04300
C 	C 	0.94593 0.17627 0.65306 0.06900
H 	H 	0.89163 0.14827 0.64047 0.03300
C 	C 	0.18523 0.28787 0.71357 0.32000
C 	C 	0.15483 0.37767 0.64190 0.33600
N 	N 	0.00883 0.25227 0.63871 -0.25200
N 	N 	0.03773 0.17377 0.70546 -0.12000
O 	O 	0.13296 0.40839 0.61218 -0.45800
O 	O 	0.23733 0.26357 0.70268 -0.45200
O 	O 	0.53063 0.53317 0.59029 -0.38600
O 	O 	0.22613 0.41237 0.65826 -0.21300
C 	C 	0.37600 0.12860 0.99142 -0.03800
C 	C 	0.41560 0.18230 0.02461 0.02500
C 	C 	0.52770 0.15540 0.01995 0.01400
H 	H 	0.57980 0.16180 0.02990 0.05900
C 	C 	0.49040 0.10300 0.98639 0.02700
H 	H 	0.51840 0.07670 0.97380 0.03900
C 	C 	0.37880 0.23070 0.04690 0.32100
C 	C 	0.28900 0.11050 0.97523 0.33700
N 	N 	0.41440 0.08990 0.97204 -0.22600
N 	N 	0.49290 0.19730 0.03879 -0.08700
O 	O 	0.25828 0.05791 0.94551 -0.47400
O 	O 	0.40310 0.30710 0.03601 -0.44900
O 	O 	0.13350 0.33080 0.92362 -0.40200
O 	O 	0.25430 0.14710 0.99159 -0.22400
C 	C 	0.04267 0.46193 0.32475 -0.09000
C 	C 	0.08227 0.51563 0.35794 0.05200
C 	C 	0.19437 0.48873 0.35328 0.01900
H 	H 	0.24647 0.49513 0.36323 0.06100
C 	C 	0.15707 0.43633 0.31972 0.02700
H 	H 	0.18507 0.41003 0.30713 0.04600
C 	C 	0.04547 0.56403 0.38023 0.24600
C 	C 	0.95567 0.44383 0.30856 0.39100
N 	N 	0.08107 0.42323 0.30537 -0.22100
N 	N 	0.15957 0.53063 0.37212 -0.09300
O 	O 	0.92495 0.39124 0.27884 -0.45100
O 	O 	0.06977 0.64043 0.36934 -0.44800
O 	O 	0.80017 0.66413 0.25695 -0.38200
O 	O 	0.92097 0.48043 0.32492 -0.21100
C 	C 	0.70933 0.79527 0.65809 -0.02900
C 	C 	0.74893 0.84897 0.69128 0.03500
C 	C 	0.86103 0.82207 0.68662 0.02100
H 	H 	0.91313 0.82847 0.69657 0.07800
C 	C 	0.82373 0.76967 0.65306 0.03900
H 	H 	0.85173 0.74337 0.64047 0.05200
C 	C 	0.71213 0.89737 0.71357 0.31800
C 	C 	0.62233 0.77717 0.64190 0.33900
N 	N 	0.74773 0.75657 0.63871 -0.22000
N 	N 	0.82623 0.86397 0.70546 -0.07700
O 	O 	0.59161 0.72458 0.61218 -0.45200
O 	O 	0.73643 0.97377 0.70268 -0.41800
O 	O 	0.46683 0.99747 0.59029 -0.32700
O 	O 	0.58763 0.81377 0.65826 -0.20700
C 	C 	0.24740 0.87140 0.50858 -0.02800
C 	C 	0.23330 0.81770 0.47539 0.02800
C 	C 	0.37230 0.84460 0.48005 0.02200
H 	H 	0.41800 0.83820 0.47010 0.06500
C 	C 	0.38740 0.89700 0.51361 0.03800
H 	H 	0.44170 0.92330 0.52620 0.05300
C 	C 	0.14810 0.76930 0.45310 0.32500
C 	C 	0.17850 0.88950 0.52477 0.34000
N 	N 	0.32450 0.91010 0.52796 -0.21600
N 	N 	0.29560 0.80270 0.46121 -0.08500
O 	O 	0.20037 0.94209 0.55449 -0.44300
O 	O 	0.09600 0.69290 0.46399 -0.46900
O 	O 	0.80270 0.66920 0.57638 -0.37900
O 	O 	0.10720 0.85290 0.50841 -0.22000
C 	C 	0.91407 0.20473 0.84191 -0.02600
C 	C 	0.89997 0.15103 0.80872 0.02900
C 	C 	0.03897 0.17793 0.81338 -0.02600
H 	H 	0.08467 0.17153 0.80343 0.06500
C 	C 	0.05407 0.23033 0.84694 -0.00800
H 	H 	0.10837 0.25663 0.85953 0.05200
C 	C 	0.81477 0.10263 0.78643 0.32400
C 	C 	0.84517 0.22283 0.85810 0.33700
N 	N 	0.99117 0.24343 0.86129 -0.19100
N 	N 	0.96227 0.13603 0.79454 -0.06100
O 	O 	0.86704 0.27542 0.88782 -0.45100
O 	O 	0.76267 0.02623 0.79732 -0.47300
O 	O 	0.46937 0.00253 0.90971 -0.44500
O 	O 	0.77387 0.18623 0.84174 -0.21400
C 	C 	0.58073 0.53807 0.17525 -0.03100
C 	C 	0.56663 0.48437 0.14206 0.02800
C 	C 	0.70563 0.51127 0.14672 0.01900
H 	H 	0.75133 0.50487 0.13677 0.06300
C 	C 	0.72073 0.56367 0.18028 0.03300
H 	H 	0.77503 0.58997 0.19287 0.04800
C 	C 	0.48143 0.43597 0.11977 0.32100
C 	C 	0.51183 0.55617 0.19144 0.33700
N 	N 	0.65783 0.57677 0.19463 -0.22100
N 	N 	0.62893 0.46937 0.12788 -0.08600
O 	O 	0.53370 0.60876 0.22116 -0.45400
O 	O 	0.42933 0.35957 0.13066 -0.44900
O 	O 	0.13603 0.33587 0.24305 -0.39300
O 	O 	0.44053 0.51957 0.17508 -0.21100
C 	C 	0.62400 0.75260 0.50858 -0.02900
C 	C 	0.58440 0.76670 0.47539 0.03000
C 	C 	0.47230 0.62770 0.48005 0.01800
H 	H 	0.42020 0.58200 0.47010 0.06200
C 	C 	0.50960 0.61260 0.51361 0.03400
H 	H 	0.48160 0.55830 0.52620 0.04600
C 	C 	0.62120 0.85190 0.45310 0.31600
C 	C 	0.71100 0.82150 0.52477 0.33400
N 	N 	0.58560 0.67550 0.52796 -0.22100
N 	N 	0.50710 0.70440 0.46121 -0.08600
O 	O 	0.74172 0.79963 0.55449 -0.44400
O 	O 	0.59690 0.90400 0.46399 -0.42800
O 	O 	0.86650 0.19730 0.57638 -0.37700
O 	O 	0.74570 0.89280 0.50841 -0.19000
C 	C 	0.29067 0.08593 0.84191 -0.03900
C 	C 	0.25107 0.10003 0.80872 0.02000
C 	C 	0.13897 0.96103 0.81338 0.05900
H 	H 	0.08687 0.91533 0.80343 0.04300
C 	C 	0.17627 0.94593 0.84694 0.07000
H 	H 	0.14827 0.89163 0.85953 0.03300
C 	C 	0.28787 0.18523 0.78643 0.32000
C 	C 	0.37767 0.15483 0.85810 0.33600
N 	N 	0.25227 0.00883 0.86129 -0.25300
N 	N 	0.17377 0.03773 0.79454 -0.12000
O 	O 	0.40839 0.13296 0.88782 -0.45800
O 	O 	0.26357 0.23733 0.79732 -0.45200
O 	O 	0.53317 0.53063 0.90971 -0.38600
O 	O 	0.41237 0.22613 0.84174 -0.21300
C 	C 	0.95733 0.41927 0.17525 0.02800
C 	C 	0.91773 0.43337 0.14206 0.00300
C 	C 	0.80563 0.29437 0.14672 0.01600
H 	H 	0.75353 0.24867 0.13677 0.06200
C 	C 	0.84293 0.27927 0.18028 0.04000
H 	H 	0.81493 0.22497 0.19287 0.04400
C 	C 	0.95453 0.51857 0.11977 0.39500
C 	C 	0.04433 0.48817 0.19144 0.28300
N 	N 	0.91893 0.34217 0.19463 -0.22000
N 	N 	0.84043 0.37107 0.12788 -0.07900
O 	O 	0.07505 0.46630 0.22116 -0.45300
O 	O 	0.93023 0.57067 0.13066 -0.45000
O 	O 	0.19983 0.86397 0.24305 -0.38000
O 	O 	0.07903 0.55947 0.17508 -0.21200
C 	C 	0.12860 0.37600 0.50858 -0.03800
C 	C 	0.18230 0.41560 0.47539 0.02500
C 	C 	0.15540 0.52770 0.48005 0.01300
H 	H 	0.16180 0.57980 0.47010 0.05900
C 	C 	0.10300 0.49040 0.51361 0.02800
H 	H 	0.07670 0.51840 0.52620 0.03900
C 	C 	0.23070 0.37880 0.45310 0.32100
C 	C 	0.11050 0.28900 0.52477 0.33700
N 	N 	0.08990 0.41440 0.52796 -0.22600
N 	N 	0.19730 0.49290 0.46121 -0.08700
O 	O 	0.05791 0.25828 0.55449 -0.47400
O 	O 	0.30710 0.40310 0.46399 -0.44900
O 	O 	0.33080 0.13350 0.57638 -0.40200
O 	O 	0.14710 0.25430 0.50841 -0.22400
C 	C 	0.79527 0.70933 0.84191 -0.02900
C 	C 	0.84897 0.74893 0.80872 0.03500
C 	C 	0.82207 0.86103 0.81338 0.02100
H 	H 	0.82847 0.91313 0.80343 0.07800
C 	C 	0.76967 0.82373 0.84694 0.03900
H 	H 	0.74337 0.85173 0.85953 0.05200
C 	C 	0.89737 0.71213 0.78643 0.31800
C 	C 	0.77717 0.62233 0.85810 0.33900
N 	N 	0.75657 0.74773 0.86129 -0.22000
N 	N 	0.86397 0.82623 0.79454 -0.07700
O 	O 	0.72458 0.59161 0.88782 -0.45200
O 	O 	0.97377 0.73643 0.79732 -0.41800
O 	O 	0.99747 0.46683 0.90971 -0.32800
O 	O 	0.81377 0.58763 0.84174 -0.20700
C 	C 	0.46193 0.04267 0.17525 -0.09000
C 	C 	0.51563 0.08227 0.14206 0.05100
C 	C 	0.48873 0.19437 0.14672 0.01900
H 	H 	0.49513 0.24647 0.13677 0.06100
C 	C 	0.43633 0.15707 0.18028 0.02700
H 	H 	0.41003 0.18507 0.19287 0.04600
C 	C 	0.56403 0.04547 0.11977 0.24700
C 	C 	0.44383 0.95567 0.19144 0.39100
N 	N 	0.42323 0.08107 0.19463 -0.22100
N 	N 	0.53063 0.15957 0.12788 -0.09300
O 	O 	0.39124 0.92495 0.22116 -0.45100
O 	O 	0.64043 0.06977 0.13066 -0.44800
O 	O 	0.66413 0.80017 0.24305 -0.38200
O 	O 	0.48043 0.92097 0.17508 -0.21100
In	In	0.00534 0.67201 0.08333 1.97800
In	In	0.33867 0.33867 0.75000 1.98800
In	In	0.32799 0.33333 0.08333 1.98800
In	In	0.66667 0.99466 0.08333 1.99700
In	In	0.33333 0.32799 0.41667 1.98800
In	In	0.67201 0.00534 0.41667 1.97900
In	In	-0.00000 0.66133 0.75000 1.97600
In	In	0.99466 0.66667 0.41667 1.99700
In	In	0.66133 0.00000 0.75000 1.97500
In	In	0.99466 0.32799 0.91667 1.99700
In	In	0.66133 0.66133 0.25000 1.98800
In	In	0.67201 0.66667 0.91667 1.98800
In	In	0.33867 0.00000 0.25000 1.97600
In	In	0.00534 0.33333 0.58333 1.97800
In	In	0.33333 0.00534 0.91667 1.97800
In	In	-0.00000 0.33867 0.25000 1.97500
In	In	0.32799 0.99466 0.58333 1.99700
In	In	0.66667 0.67201 0.58333 1.98800
