data_crystal

_cell_length_a 12.48680
_cell_length_b 13.02550
_cell_length_c 23.75550
_cell_angle_alpha 90.00000
_cell_angle_beta  90.00000
_cell_angle_gamma 90.00000

_symmetry_space_group_name_	'P 1'
_symmetry_space_group_name_H-M	'P 1'

loop_
_symmetry_equiv_pos_as_xyz
  x,y,z

loop_
_atom_site_label
_atom_site_type_symbol
_atom_site_fract_x
_atom_site_fract_y
_atom_site_fract_z
_atom_site_charge
O 	O 	0.77780 0.14939 0.32341 -0.56500
O 	O 	0.65770 0.07030 0.37567 -0.37500
O 	O 	0.33891 0.66292 0.70685 -0.49500
O 	O 	0.37030 0.50861 0.74518 -0.50000
C 	C 	0.73900 0.38640 0.49050 -0.26600
C 	C 	0.66280 0.30870 0.49549 0.08000
H 	H 	0.61350 0.31010 0.52600 -0.01300
C 	C 	0.65790 0.22960 0.45660 -0.08700
H 	H 	0.60590 0.17690 0.46080 0.06300
C 	C 	0.72910 0.22680 0.41129 -0.04000
C 	C 	0.80700 0.30200 0.40609 -0.07400
H 	H 	0.85660 0.30000 0.37580 0.03900
C 	C 	0.81170 0.38030 0.44568 0.06800
H 	H 	0.86580 0.43120 0.44230 -0.00500
C 	C 	0.71910 0.14440 0.36812 0.31100
C 	C 	0.63240 0.51880 0.58606 -0.26100
C 	C 	0.59990 0.44310 0.62422 0.06600
H 	H 	0.63300 0.37750 0.62300 -0.01100
C 	C 	0.52070 0.46170 0.66366 -0.06400
H 	H 	0.49990 0.40890 0.68910 0.04100
C 	C 	0.47130 0.55710 0.66618 -0.05900
C 	C 	0.50150 0.63270 0.62850 -0.06500
H 	H 	0.46770 0.69800 0.62970 0.07000
C 	C 	0.58080 0.61370 0.58886 0.06700
H 	H 	0.60030 0.66630 0.56310 0.00400
C 	C 	0.38620 0.57790 0.70955 0.39500
O 	O 	0.72220 0.85061 0.32341 -0.51900
O 	O 	0.84230 0.92970 0.37567 -0.30700
O 	O 	0.16109 0.33708 0.70685 -0.49500
O 	O 	0.12970 0.49139 0.74518 -0.49600
C 	C 	0.76100 0.61360 0.49050 -0.27100
C 	C 	0.83720 0.69130 0.49549 0.09600
H 	H 	0.88650 0.68990 0.52600 -0.00900
C 	C 	0.84210 0.77040 0.45660 -0.09700
H 	H 	0.89410 0.82310 0.46080 0.08900
C 	C 	0.77090 0.77320 0.41129 -0.01200
C 	C 	0.69300 0.69800 0.40609 -0.08400
H 	H 	0.64340 0.70000 0.37580 0.05100
C 	C 	0.68830 0.61970 0.44568 0.07900
H 	H 	0.63420 0.56880 0.44230 -0.00600
C 	C 	0.78090 0.85560 0.36812 0.30100
C 	C 	0.86760 0.48120 0.58606 -0.27300
C 	C 	0.90010 0.55690 0.62422 0.08200
H 	H 	0.86700 0.62250 0.62300 -0.00800
C 	C 	0.97930 0.53830 0.66366 -0.09200
H 	H 	0.00010 0.59110 0.68910 0.05700
C 	C 	0.02870 0.44290 0.66618 -0.03400
C 	C 	0.99850 0.36730 0.62850 -0.09700
H 	H 	0.03230 0.30200 0.62970 0.07800
C 	C 	0.91920 0.38630 0.58886 0.08300
H 	H 	0.89970 0.33370 0.56310 -0.01100
C 	C 	0.11380 0.42210 0.70955 0.38600
O 	O 	0.72220 0.64939 0.17659 -0.54900
O 	O 	0.84230 0.57030 0.12433 -0.34900
O 	O 	0.16109 0.16292 0.79315 -0.51100
O 	O 	0.12970 0.00861 0.75482 -0.54700
C 	C 	0.76100 0.88640 0.00950 -0.10000
C 	C 	0.83720 0.80870 0.00451 -0.00700
H 	H 	0.88650 0.81010 0.97400 0.03200
C 	C 	0.84210 0.72960 0.04340 -0.02400
H 	H 	0.89410 0.67690 0.03920 0.05400
C 	C 	0.77090 0.72680 0.08871 -0.07300
C 	C 	0.69300 0.80200 0.09391 -0.00800
H 	H 	0.64340 0.80000 0.12420 0.02700
C 	C 	0.68830 0.88030 0.05432 -0.01900
H 	H 	0.63420 0.93120 0.05770 0.05500
C 	C 	0.78090 0.64440 0.13188 0.32400
C 	C 	0.86760 0.01880 0.91394 -0.26200
C 	C 	0.90010 0.94310 0.87578 0.09800
H 	H 	0.86700 0.87750 0.87700 -0.00200
C 	C 	0.97930 0.96170 0.83634 0.04500
H 	H 	0.00010 0.90890 0.81090 0.03000
C 	C 	0.02870 0.05710 0.83382 -0.16600
C 	C 	0.99850 0.13270 0.87150 -0.03700
H 	H 	0.03230 0.19800 0.87030 0.05900
C 	C 	0.91920 0.11370 0.91114 0.02600
H 	H 	0.89970 0.16630 0.93690 0.01400
C 	C 	0.11380 0.07790 0.79045 0.42100
O 	O 	0.77780 0.35061 0.17659 -0.55100
O 	O 	0.65770 0.42970 0.12433 -0.34600
O 	O 	0.33891 0.83708 0.79315 -0.48400
O 	O 	0.37030 0.99139 0.75482 -0.44400
C 	C 	0.73900 0.11360 0.00950 -0.18600
C 	C 	0.66280 0.19130 0.00451 0.02800
H 	H 	0.61350 0.18990 0.97400 0.00600
C 	C 	0.65790 0.27040 0.04340 -0.05500
H 	H 	0.60590 0.32310 0.03920 0.06400
C 	C 	0.72910 0.27320 0.08871 -0.05200
C 	C 	0.80700 0.19800 0.09391 -0.04800
H 	H 	0.85660 0.20000 0.12420 0.02900
C 	C 	0.81170 0.11970 0.05432 0.01700
H 	H 	0.86580 0.06880 0.05770 -0.00400
C 	C 	0.71910 0.35560 0.13188 0.31600
C 	C 	0.63240 0.98120 0.91394 -0.01800
C 	C 	0.59990 0.05690 0.87578 -0.10400
H 	H 	0.63300 0.12250 0.87700 0.04500
C 	C 	0.52070 0.03830 0.83634 -0.09900
H 	H 	0.49990 0.09110 0.81090 0.03400
C 	C 	0.47130 0.94290 0.83382 0.00300
C 	C 	0.50150 0.86730 0.87150 -0.02500
H 	H 	0.46770 0.80200 0.87030 0.05700
C 	C 	0.58080 0.88630 0.91114 -0.02600
H 	H 	0.60030 0.83370 0.93690 0.03900
C 	C 	0.38620 0.92210 0.79045 0.38300
O 	O 	0.22220 0.85061 0.67659 -0.52000
O 	O 	0.34230 0.92970 0.62433 -0.30700
O 	O 	0.66109 0.33708 0.29315 -0.49700
O 	O 	0.62970 0.49139 0.25482 -0.49800
C 	C 	0.26100 0.61360 0.50950 -0.26700
C 	C 	0.33720 0.69130 0.50451 0.09400
H 	H 	0.38650 0.68990 0.47400 -0.00800
C 	C 	0.34210 0.77040 0.54340 -0.09500
H 	H 	0.39410 0.82310 0.53920 0.08900
C 	C 	0.27090 0.77320 0.58871 -0.01300
C 	C 	0.19300 0.69800 0.59391 -0.08200
H 	H 	0.14340 0.70000 0.62420 0.05000
C 	C 	0.18830 0.61970 0.55432 0.07700
H 	H 	0.13420 0.56880 0.55770 -0.00500
C 	C 	0.28090 0.85560 0.63188 0.30200
C 	C 	0.36760 0.48120 0.41394 -0.25800
C 	C 	0.40010 0.55690 0.37578 0.06300
H 	H 	0.36700 0.62250 0.37700 -0.00100
C 	C 	0.47930 0.53830 0.33634 -0.06200
H 	H 	0.50010 0.59110 0.31090 0.04600
C 	C 	0.52870 0.44290 0.33382 -0.06000
C 	C 	0.49850 0.36730 0.37150 -0.06700
H 	H 	0.53230 0.30200 0.37030 0.06500
C 	C 	0.41920 0.38630 0.41114 0.06400
H 	H 	0.39970 0.33370 0.43690 -0.00400
C 	C 	0.61380 0.42210 0.29045 0.39400
O 	O 	0.27780 0.14939 0.67659 -0.56600
O 	O 	0.15770 0.07030 0.62433 -0.37500
O 	O 	0.83891 0.66292 0.29315 -0.49800
O 	O 	0.87030 0.50861 0.25482 -0.50200
C 	C 	0.23900 0.38640 0.50950 -0.26200
C 	C 	0.16280 0.30870 0.50451 0.07800
H 	H 	0.11350 0.31010 0.47400 -0.01100
C 	C 	0.15790 0.22960 0.54340 -0.08500
H 	H 	0.10590 0.17690 0.53920 0.06300
C 	C 	0.22910 0.22680 0.58871 -0.04100
C 	C 	0.30700 0.30200 0.59391 -0.07200
H 	H 	0.35660 0.30000 0.62420 0.03900
C 	C 	0.31170 0.38030 0.55432 0.06500
H 	H 	0.36580 0.43120 0.55770 -0.00300
C 	C 	0.21910 0.14440 0.63188 0.31100
C 	C 	0.13240 0.51880 0.41394 -0.24700
C 	C 	0.09990 0.44310 0.37578 0.04800
H 	H 	0.13300 0.37750 0.37700 -0.00400
C 	C 	0.02070 0.46170 0.33634 -0.03700
H 	H 	0.99990 0.40890 0.31090 0.02900
C 	C 	0.97130 0.55710 0.33382 -0.08200
C 	C 	0.00150 0.63270 0.37150 -0.03900
H 	H 	0.96770 0.69800 0.37030 0.05900
C 	C 	0.08080 0.61370 0.41114 0.05000
H 	H 	0.10030 0.66630 0.43690 0.01000
C 	C 	0.88620 0.57790 0.29045 0.40300
O 	O 	0.27780 0.35061 0.82341 -0.55100
O 	O 	0.15770 0.42970 0.87567 -0.34600
O 	O 	0.83891 0.83708 0.20685 -0.48600
O 	O 	0.87030 0.99139 0.24518 -0.44600
C 	C 	0.23900 0.11360 0.99050 -0.18400
C 	C 	0.16280 0.19130 0.99549 0.02700
H 	H 	0.11350 0.18990 0.02600 0.00700
C 	C 	0.15790 0.27040 0.95660 -0.05400
H 	H 	0.10590 0.32310 0.96080 0.06500
C 	C 	0.22910 0.27320 0.91129 -0.05300
C 	C 	0.30700 0.19800 0.90609 -0.04700
H 	H 	0.35660 0.20000 0.87580 0.02900
C 	C 	0.31170 0.11970 0.94568 0.01600
H 	H 	0.36580 0.06880 0.94230 -0.00200
C 	C 	0.21910 0.35560 0.86812 0.31600
C 	C 	0.13240 0.98120 0.08606 -0.01000
C 	C 	0.09990 0.05690 0.12422 -0.11700
H 	H 	0.13300 0.12250 0.12300 0.05000
C 	C 	0.02070 0.03830 0.16366 -0.07100
H 	H 	0.99990 0.09110 0.18910 0.02300
C 	C 	0.97130 0.94290 0.16618 -0.01900
C 	C 	0.00150 0.86730 0.12850 -0.00300
H 	H 	0.96770 0.80200 0.12970 0.04800
C 	C 	0.08080 0.88630 0.08886 -0.04000
H 	H 	0.10030 0.83370 0.06310 0.04400
C 	C 	0.88620 0.92210 0.20955 0.39000
O 	O 	0.22220 0.64939 0.82341 -0.54900
O 	O 	0.34230 0.57030 0.87567 -0.34800
O 	O 	0.66109 0.16292 0.20685 -0.51400
O 	O 	0.62970 0.00861 0.24518 -0.55000
C 	C 	0.26100 0.88640 0.99050 -0.09800
C 	C 	0.33720 0.80870 0.99549 -0.00800
H 	H 	0.38650 0.81010 0.02600 0.03400
C 	C 	0.34210 0.72960 0.95660 -0.02200
H 	H 	0.39410 0.67690 0.96080 0.05400
C 	C 	0.27090 0.72680 0.91129 -0.07400
C 	C 	0.19300 0.80200 0.90609 -0.00600
H 	H 	0.14340 0.80000 0.87580 0.02700
C 	C 	0.18830 0.88030 0.94568 -0.02100
H 	H 	0.13420 0.93120 0.94230 0.05500
C 	C 	0.28090 0.64440 0.86812 0.32400
C 	C 	0.36760 0.01880 0.08606 -0.24800
C 	C 	0.40010 0.94310 0.12422 0.07800
H 	H 	0.36700 0.87750 0.12300 0.00500
C 	C 	0.47930 0.96170 0.16366 0.07700
H 	H 	0.50010 0.90890 0.18910 0.01800
C 	C 	0.52870 0.05710 0.16618 -0.19500
C 	C 	0.49850 0.13270 0.12850 -0.00300
H 	H 	0.53230 0.19800 0.12970 0.04500
C 	C 	0.41920 0.11370 0.08886 0.00500
H 	H 	0.39970 0.16630 0.06310 0.02200
C 	C 	0.61380 0.07790 0.20955 0.43100
Zn	Zn	0.24070 0.75000 0.75000 1.20200
Zn	Zn	0.25930 0.25000 0.75000 1.19700
Zn	Zn	0.75930 0.25000 0.25000 1.19800
Zn	Zn	0.74070 0.75000 0.25000 1.20300
Zn	Zn	0.75000 0.00000 0.29852 1.20400
Zn	Zn	0.75000 0.50000 0.20148 1.23100
Zn	Zn	0.25000 0.00000 0.70148 1.20500
Zn	Zn	0.25000 0.50000 0.79852 1.23100
Si	Si	0.75000 0.50000 0.53842 0.77100
Si	Si	0.75000 0.00000 0.96158 0.46100
Si	Si	0.25000 0.50000 0.46158 0.76100
Si	Si	0.25000 0.00000 0.03842 0.45500
