data_crystal

_cell_length_a 23.29550
_cell_length_b 23.29550
_cell_length_c 12.74890
_cell_angle_alpha 90.00000
_cell_angle_beta  90.00000
_cell_angle_gamma 120.00000

_symmetry_space_group_name_	'P 1'
_symmetry_space_group_name_H-M	'P 1'

loop_
_symmetry_equiv_pos_as_xyz
  x,y,z

loop_
_atom_site_label
_atom_site_type_symbol
_atom_site_fract_x
_atom_site_fract_y
_atom_site_fract_z
_atom_site_charge
W 	W 	0.59047 0.89692 0.96630 0.45200
Cu	Cu	0.54079 0.96368 0.05928 0.77600
Cu	Cu	0.55036 0.95788 0.83813 0.77600
S 	S 	0.63104 0.96360 0.10630 -0.40500
S 	S 	0.48398 0.87943 0.94817 -0.57000
S 	S 	0.64738 0.96353 0.83380 -0.43100
B 	B 	0.60630 0.76110 0.99990 1.11700
H 	H 	0.61320 0.71620 0.00900 -0.33700
N 	N 	0.50240 0.99360 0.16370 -0.22100
N 	N 	0.56000 0.75980 0.08410 -0.35000
N 	N 	0.54350 0.80890 0.08490 -0.16100
N 	N 	0.67450 0.82350 0.01170 -0.33700
N 	N 	0.67920 0.88360 0.99440 -0.17300
N 	N 	0.57720 0.75910 0.89220 -0.35900
N 	N 	0.56130 0.80750 0.86310 -0.17500
C 	C 	0.48240 0.01130 0.22730 -0.25300
C 	C 	0.53440 0.65440 0.17470 -0.62400
H 	H 	0.51450 0.62420 0.11520 0.17300
H 	H 	0.51130 0.63210 0.23940 0.16200
H 	H 	0.58130 0.66750 0.18040 0.17100
C 	C 	0.52820 0.71530 0.15790 0.32600
C 	C 	0.48760 0.73350 0.20880 -0.39100
H 	H 	0.45780 0.71060 0.26460 0.13400
C 	C 	0.49900 0.79150 0.16230 0.31500
C 	C 	0.46620 0.82950 0.19490 -0.64400
H 	H 	0.50000 0.87520 0.21150 0.15800
H 	H 	0.43880 0.80870 0.25690 0.18700
H 	H 	0.43820 0.82960 0.13750 0.19400
C 	C 	0.74430 0.77510 0.06800 -0.69200
H 	H 	0.71590 0.75060 0.12780 0.20300
H 	H 	0.79080 0.79130 0.08670 0.20500
H 	H 	0.73230 0.74570 0.00730 0.20500
C 	C 	0.73500 0.83220 0.04270 0.35800
C 	C 	0.77880 0.89860 0.04180 -0.43200
H 	H 	0.82410 0.91990 0.06210 0.15700
C 	C 	0.74470 0.92860 0.00590 0.35300
C 	C 	0.77540 0.00300 0.98700 -0.72600
H 	H 	0.82150 0.02590 0.01130 0.22100
H 	H 	0.75020 0.01950 0.02560 0.23300
H 	H 	0.77420 0.01120 0.91180 0.22600
C 	C 	0.56540 0.65340 0.82930 -0.72600
H 	H 	0.61250 0.66680 0.82840 0.20800
H 	H 	0.54290 0.62340 0.77040 0.19900
H 	H 	0.54550 0.63070 0.89540 0.19800
C 	C 	0.55830 0.71170 0.81970 0.38000
C 	C 	0.53020 0.72920 0.74140 -0.41500
H 	H 	0.51060 0.70440 0.67940 0.13900
C 	C 	0.53530 0.79060 0.76830 0.32800
C 	C 	0.51030 0.82610 0.70620 -0.66900
H 	H 	0.47270 0.82500 0.74260 0.18700
H 	H 	0.49580 0.80490 0.63740 0.19200
H 	H 	0.54550 0.87220 0.69690 0.16600
W 	W 	0.40953 0.10308 0.46630 0.46300
Cu	Cu	0.45921 0.03632 0.55928 0.77200
Cu	Cu	0.44964 0.04212 0.33813 0.77700
S 	S 	0.36896 0.03640 0.60630 -0.41400
S 	S 	0.51602 0.12057 0.44817 -0.56100
S 	S 	0.35262 0.03647 0.33380 -0.42600
B 	B 	0.39370 0.23890 0.49990 1.16200
H 	H 	0.38680 0.28380 0.50900 -0.35500
N 	N 	0.49760 0.00640 0.66370 -0.22200
N 	N 	0.44000 0.24020 0.58410 -0.36100
N 	N 	0.45650 0.19110 0.58490 -0.16500
N 	N 	0.32550 0.17650 0.51170 -0.35000
N 	N 	0.32080 0.11640 0.49440 -0.15900
N 	N 	0.42280 0.24090 0.39220 -0.36500
N 	N 	0.43870 0.19250 0.36310 -0.17600
C 	C 	0.51760 0.98870 0.72730 -0.25500
C 	C 	0.46560 0.34560 0.67470 -0.62000
H 	H 	0.48550 0.37580 0.61520 0.16900
H 	H 	0.48870 0.36790 0.73940 0.16000
H 	H 	0.41870 0.33250 0.68040 0.16900
C 	C 	0.47180 0.28470 0.65790 0.32400
C 	C 	0.51240 0.26650 0.70880 -0.39000
H 	H 	0.54220 0.28940 0.76460 0.13200
C 	C 	0.50100 0.20850 0.66230 0.31100
C 	C 	0.53380 0.17050 0.69490 -0.63900
H 	H 	0.50000 0.12480 0.71150 0.15500
H 	H 	0.56120 0.19130 0.75690 0.18400
H 	H 	0.56180 0.17040 0.63750 0.18900
C 	C 	0.25570 0.22490 0.56800 -0.67900
H 	H 	0.28410 0.24940 0.62780 0.19800
H 	H 	0.20920 0.20870 0.58670 0.20000
H 	H 	0.26770 0.25430 0.50730 0.19900
C 	C 	0.26500 0.16780 0.54270 0.34700
C 	C 	0.22120 0.10140 0.54180 -0.41100
H 	H 	0.17590 0.08010 0.56210 0.14800
C 	C 	0.25530 0.07140 0.50590 0.31500
C 	C 	0.22460 0.99700 0.48700 -0.64900
H 	H 	0.17850 0.97410 0.51130 0.19500
H 	H 	0.24980 0.98050 0.52560 0.20700
H 	H 	0.22580 0.98880 0.41180 0.20600
C 	C 	0.43460 0.34660 0.32930 -0.73600
H 	H 	0.38750 0.33320 0.32840 0.21300
H 	H 	0.45710 0.37660 0.27040 0.20200
H 	H 	0.45450 0.36930 0.39540 0.20300
C 	C 	0.44170 0.28830 0.31970 0.38700
C 	C 	0.46980 0.27080 0.24140 -0.41900
H 	H 	0.48940 0.29560 0.17940 0.14200
C 	C 	0.46470 0.20940 0.26830 0.33200
C 	C 	0.48970 0.17390 0.20620 -0.67400
H 	H 	0.52730 0.17500 0.24260 0.18900
H 	H 	0.50420 0.19510 0.13740 0.19500
H 	H 	0.45450 0.12780 0.19690 0.16800
W 	W 	0.10308 0.69355 0.96630 0.44900
Cu	Cu	0.03632 0.57711 0.05928 0.77700
Cu	Cu	0.04212 0.59248 0.83813 0.77600
S 	S 	0.03640 0.66744 0.10630 -0.40500
S 	S 	0.12057 0.60455 0.94817 -0.57000
S 	S 	0.03647 0.68385 0.83380 -0.43200
B 	B 	0.23890 0.84520 0.99990 1.10800
H 	H 	0.28380 0.89700 0.00900 -0.33300
N 	N 	0.00640 0.50880 0.16370 -0.22200
N 	N 	0.24020 0.80020 0.08410 -0.34700
N 	N 	0.19110 0.73460 0.08490 -0.16100
N 	N 	0.17650 0.85100 0.01170 -0.33400
N 	N 	0.11640 0.79560 0.99440 -0.17800
N 	N 	0.24090 0.81810 0.89220 -0.35700
N 	N 	0.19250 0.75380 0.86310 -0.17500
C 	C 	0.98870 0.47110 0.22730 -0.25300
C 	C 	0.34560 0.88000 0.17470 -0.62400
H 	H 	0.37580 0.89030 0.11520 0.17300
H 	H 	0.36790 0.87920 0.23940 0.16200
H 	H 	0.33250 0.91380 0.18040 0.17200
C 	C 	0.28470 0.81290 0.15790 0.32600
C 	C 	0.26650 0.75410 0.20880 -0.39100
H 	H 	0.28940 0.74720 0.26460 0.13400
C 	C 	0.20850 0.70750 0.16230 0.31500
C 	C 	0.17050 0.63670 0.19490 -0.64400
H 	H 	0.12480 0.62480 0.21150 0.15800
H 	H 	0.19130 0.63010 0.25690 0.18600
H 	H 	0.17040 0.60860 0.13750 0.19300
C 	C 	0.22490 0.96920 0.06800 -0.69600
H 	H 	0.24940 0.96530 0.12780 0.20500
H 	H 	0.20870 0.99950 0.08670 0.20700
H 	H 	0.25430 0.98660 0.00730 0.20700
C 	C 	0.16780 0.90280 0.04270 0.36100
C 	C 	0.10140 0.88020 0.04180 -0.44000
H 	H 	0.08010 0.90420 0.06210 0.16000
C 	C 	0.07140 0.81610 0.00590 0.36600
C 	C 	0.99700 0.77240 0.98700 -0.75700
H 	H 	0.97410 0.79560 0.01130 0.23100
H 	H 	0.98050 0.73070 0.02560 0.24400
H 	H 	0.98880 0.76300 0.91180 0.23400
C 	C 	0.34660 0.91200 0.82930 -0.72300
H 	H 	0.33320 0.94570 0.82840 0.20600
H 	H 	0.37660 0.91950 0.77040 0.19800
H 	H 	0.36930 0.91480 0.89540 0.19600
C 	C 	0.28830 0.84660 0.81970 0.37800
C 	C 	0.27080 0.80100 0.74140 -0.41400
H 	H 	0.29560 0.80620 0.67940 0.13900
C 	C 	0.20940 0.74470 0.76830 0.32800
C 	C 	0.17390 0.68420 0.70620 -0.66800
H 	H 	0.17500 0.64770 0.74260 0.18700
H 	H 	0.19510 0.69090 0.63740 0.19200
H 	H 	0.12780 0.67330 0.69690 0.16600
W 	W 	0.89692 0.30645 0.46630 0.46300
Cu	Cu	0.96368 0.42289 0.55928 0.77200
Cu	Cu	0.95788 0.40752 0.33813 0.77700
S 	S 	0.96360 0.33256 0.60630 -0.41300
S 	S 	0.87943 0.39545 0.44817 -0.56100
S 	S 	0.96353 0.31615 0.33380 -0.42600
B 	B 	0.76110 0.15480 0.49990 1.16200
H 	H 	0.71620 0.10300 0.50900 -0.35500
N 	N 	0.99360 0.49120 0.66370 -0.22100
N 	N 	0.75980 0.19980 0.58410 -0.36100
N 	N 	0.80890 0.26540 0.58490 -0.16500
N 	N 	0.82350 0.14900 0.51170 -0.35000
N 	N 	0.88360 0.20440 0.49440 -0.15900
N 	N 	0.75910 0.18190 0.39220 -0.36500
N 	N 	0.80750 0.24620 0.36310 -0.17600
C 	C 	0.01130 0.52890 0.72730 -0.25500
C 	C 	0.65440 0.12000 0.67470 -0.62200
H 	H 	0.62420 0.10970 0.61520 0.17000
H 	H 	0.63210 0.12080 0.73940 0.16000
H 	H 	0.66750 0.08620 0.68040 0.17000
C 	C 	0.71530 0.18710 0.65790 0.32500
C 	C 	0.73350 0.24590 0.70880 -0.39000
H 	H 	0.71060 0.25280 0.76460 0.13300
C 	C 	0.79150 0.29250 0.66230 0.31200
C 	C 	0.82950 0.36330 0.69490 -0.63900
H 	H 	0.87520 0.37520 0.71150 0.15600
H 	H 	0.80870 0.36990 0.75690 0.18400
H 	H 	0.82960 0.39140 0.63750 0.18900
C 	C 	0.77510 0.03080 0.56800 -0.68100
H 	H 	0.75060 0.03470 0.62780 0.19900
H 	H 	0.79130 0.00050 0.58670 0.20100
H 	H 	0.74570 0.01340 0.50730 0.20000
C 	C 	0.83220 0.09720 0.54270 0.34800
C 	C 	0.89860 0.11980 0.54180 -0.41200
H 	H 	0.91990 0.09580 0.56210 0.14900
C 	C 	0.92860 0.18390 0.50590 0.31600
C 	C 	0.00300 0.22760 0.48700 -0.65000
H 	H 	0.02590 0.20440 0.51130 0.19500
H 	H 	0.01950 0.26930 0.52560 0.20700
H 	H 	0.01120 0.23700 0.41180 0.20600
C 	C 	0.65340 0.08800 0.32930 -0.73500
H 	H 	0.66680 0.05430 0.32840 0.21200
H 	H 	0.62340 0.08050 0.27040 0.20200
H 	H 	0.63070 0.08520 0.39540 0.20300
C 	C 	0.71170 0.15340 0.31970 0.38600
C 	C 	0.72920 0.19900 0.24140 -0.41900
H 	H 	0.70440 0.19380 0.17940 0.14100
C 	C 	0.79060 0.25530 0.26830 0.33200
C 	C 	0.82610 0.31580 0.20620 -0.67300
H 	H 	0.82500 0.35230 0.24260 0.18900
H 	H 	0.80490 0.30910 0.13740 0.19500
H 	H 	0.87220 0.32670 0.19690 0.16700
W 	W 	0.30645 0.40953 0.96630 0.45200
Cu	Cu	0.42289 0.45921 0.05928 0.77600
Cu	Cu	0.40752 0.44964 0.83813 0.77600
S 	S 	0.33256 0.36896 0.10630 -0.40700
S 	S 	0.39545 0.51602 0.94817 -0.56900
S 	S 	0.31615 0.35262 0.83380 -0.43000
B 	B 	0.15480 0.39370 0.99990 1.11500
H 	H 	0.10300 0.38680 0.00900 -0.33600
N 	N 	0.49120 0.49760 0.16370 -0.22300
N 	N 	0.19980 0.44000 0.08410 -0.34900
N 	N 	0.26540 0.45650 0.08490 -0.16100
N 	N 	0.14900 0.32550 0.01170 -0.33700
N 	N 	0.20440 0.32080 0.99440 -0.17500
N 	N 	0.18190 0.42280 0.89220 -0.35800
N 	N 	0.24620 0.43870 0.86310 -0.17500
C 	C 	0.52890 0.51760 0.22730 -0.25100
C 	C 	0.12000 0.46560 0.17470 -0.62400
H 	H 	0.10970 0.48550 0.11520 0.17300
H 	H 	0.12080 0.48870 0.23940 0.16200
H 	H 	0.08620 0.41870 0.18040 0.17200
C 	C 	0.18710 0.47180 0.15790 0.32600
C 	C 	0.24590 0.51240 0.20880 -0.39100
H 	H 	0.25280 0.54220 0.26460 0.13400
C 	C 	0.29250 0.50100 0.16230 0.31500
C 	C 	0.36330 0.53380 0.19490 -0.64400
H 	H 	0.37520 0.50000 0.21150 0.15800
H 	H 	0.36990 0.56120 0.25690 0.18600
H 	H 	0.39140 0.56180 0.13750 0.19300
C 	C 	0.03080 0.25570 0.06800 -0.69500
H 	H 	0.03470 0.28410 0.12780 0.20400
H 	H 	0.00050 0.20920 0.08670 0.20700
H 	H 	0.01340 0.26770 0.00730 0.20700
C 	C 	0.09720 0.26500 0.04270 0.36100
C 	C 	0.11980 0.22120 0.04180 -0.44000
H 	H 	0.09580 0.17590 0.06210 0.15900
C 	C 	0.18390 0.25530 0.00590 0.36400
C 	C 	0.22760 0.22460 0.98700 -0.76300
H 	H 	0.20440 0.17850 0.01130 0.23400
H 	H 	0.26930 0.24980 0.02560 0.24600
H 	H 	0.23700 0.22580 0.91180 0.23500
C 	C 	0.08800 0.43460 0.82930 -0.72500
H 	H 	0.05430 0.38750 0.82840 0.20700
H 	H 	0.08050 0.45710 0.77040 0.19800
H 	H 	0.08520 0.45450 0.89540 0.19700
C 	C 	0.15340 0.44170 0.81970 0.37900
C 	C 	0.19900 0.46980 0.74140 -0.41500
H 	H 	0.19380 0.48940 0.67940 0.13900
C 	C 	0.25530 0.46470 0.76830 0.32800
C 	C 	0.31580 0.48970 0.70620 -0.66800
H 	H 	0.35230 0.52730 0.74260 0.18700
H 	H 	0.30910 0.50420 0.63740 0.19200
H 	H 	0.32670 0.45450 0.69690 0.16600
W 	W 	0.69355 0.59047 0.46630 0.46300
Cu	Cu	0.57711 0.54079 0.55928 0.77200
Cu	Cu	0.59248 0.55036 0.33813 0.77700
S 	S 	0.66744 0.63104 0.60630 -0.41500
S 	S 	0.60455 0.48398 0.44817 -0.56100
S 	S 	0.68385 0.64738 0.33380 -0.42600
B 	B 	0.84520 0.60630 0.49990 1.16200
H 	H 	0.89700 0.61320 0.50900 -0.35500
N 	N 	0.50880 0.50240 0.66370 -0.22300
N 	N 	0.80020 0.56000 0.58410 -0.36100
N 	N 	0.73460 0.54350 0.58490 -0.16500
N 	N 	0.85100 0.67450 0.51170 -0.35000
N 	N 	0.79560 0.67920 0.49440 -0.15900
N 	N 	0.81810 0.57720 0.39220 -0.36500
N 	N 	0.75380 0.56130 0.36310 -0.17600
C 	C 	0.47110 0.48240 0.72730 -0.25300
C 	C 	0.88000 0.53440 0.67470 -0.62200
H 	H 	0.89030 0.51450 0.61520 0.17000
H 	H 	0.87920 0.51130 0.73940 0.16000
H 	H 	0.91380 0.58130 0.68040 0.17000
C 	C 	0.81290 0.52820 0.65790 0.32500
C 	C 	0.75410 0.48760 0.70880 -0.39000
H 	H 	0.74720 0.45780 0.76460 0.13300
C 	C 	0.70750 0.49900 0.66230 0.31100
C 	C 	0.63670 0.46620 0.69490 -0.63800
H 	H 	0.62480 0.50000 0.71150 0.15500
H 	H 	0.63010 0.43880 0.75690 0.18300
H 	H 	0.60860 0.43820 0.63750 0.18900
C 	C 	0.96920 0.74430 0.56800 -0.68000
H 	H 	0.96530 0.71590 0.62780 0.19900
H 	H 	0.99950 0.79080 0.58670 0.20000
H 	H 	0.98660 0.73230 0.50730 0.19900
C 	C 	0.90280 0.73500 0.54270 0.34700
C 	C 	0.88020 0.77880 0.54180 -0.41100
H 	H 	0.90420 0.82410 0.56210 0.14800
C 	C 	0.81610 0.74470 0.50590 0.31500
C 	C 	0.77240 0.77540 0.48700 -0.64800
H 	H 	0.79560 0.82150 0.51130 0.19500
H 	H 	0.73070 0.75020 0.52560 0.20700
H 	H 	0.76300 0.77420 0.41180 0.20600
C 	C 	0.91200 0.56540 0.32930 -0.73500
H 	H 	0.94570 0.61250 0.32840 0.21300
H 	H 	0.91950 0.54290 0.27040 0.20200
H 	H 	0.91480 0.54550 0.39540 0.20300
C 	C 	0.84660 0.55830 0.31970 0.38700
C 	C 	0.80100 0.53020 0.24140 -0.41900
H 	H 	0.80620 0.51060 0.17940 0.14100
C 	C 	0.74470 0.53530 0.26830 0.33200
C 	C 	0.68420 0.51030 0.20620 -0.67400
H 	H 	0.64770 0.47270 0.24260 0.18900
H 	H 	0.69090 0.49580 0.13740 0.19500
H 	H 	0.67330 0.54550 0.19690 0.16800
