data_crystal

_cell_length_a 8.35620
_cell_length_b 12.84370
_cell_length_c 25.59000
_cell_angle_alpha 90.94400
_cell_angle_beta  90.00000
_cell_angle_gamma 90.00000

_symmetry_space_group_name_	'P 1'
_symmetry_space_group_name_H-M	'P 1'

loop_
_symmetry_equiv_pos_as_xyz
  x,y,z

loop_
_atom_site_label
_atom_site_type_symbol
_atom_site_fract_x
_atom_site_fract_y
_atom_site_fract_z
_atom_site_charge
Ag	Ag	0.15995 0.00760 0.51703 0.38800
Ag	Ag	0.15995 0.99240 0.98297 0.41900
Ag	Ag	0.84005 0.99240 0.48297 0.41400
Ag	Ag	0.84005 0.00760 0.01703 0.38300
Ag	Ag	0.50000 0.00000 0.50000 0.42200
Ag	Ag	0.50000 0.00000 -0.00000 0.41600
Ag	Ag	0.89452 0.50000 0.75000 0.56000
Ag	Ag	0.10548 0.50000 0.25000 0.56000
H 	H 	0.44050 0.24370 0.48600 0.01000
H 	H 	0.40910 0.39610 0.53290 0.06000
H 	H 	0.54160 0.09870 0.61340 0.00800
H 	H 	0.25640 0.40730 0.72070 0.05600
H 	H 	0.85520 0.25550 0.73610 0.04300
H 	H 	0.97960 0.10460 0.71550 0.02400
H 	H 	0.25870 0.02330 0.63510 -0.01500
H 	H 	0.34840 0.92410 0.70440 0.07200
H 	H 	0.24340 0.76990 0.54820 0.01900
H 	H 	0.54420 0.55860 0.69950 0.05600
H 	H 	0.95780 0.55210 0.63110 0.04100
H 	H 	0.84090 0.60130 0.55540 0.03500
H 	H 	0.44050 0.75630 0.01400 0.00000
H 	H 	0.40910 0.60390 0.96710 0.06600
H 	H 	0.54160 0.90130 0.88660 0.02100
H 	H 	0.25640 0.59270 0.77930 0.05600
H 	H 	0.85520 0.74450 0.76390 0.04400
H 	H 	0.97960 0.89540 0.78450 0.03600
H 	H 	0.25870 0.97670 0.86490 0.05300
H 	H 	0.34840 0.07590 0.79560 0.04100
H 	H 	0.24340 0.23010 0.95180 0.02000
H 	H 	0.54420 0.44140 0.80050 0.05600
H 	H 	0.95780 0.44790 0.86890 0.04100
H 	H 	0.84090 0.39870 0.94460 0.03700
H 	H 	0.55950 0.75630 0.51400 0.01400
H 	H 	0.59090 0.60390 0.46710 0.06000
H 	H 	0.45840 0.90130 0.38660 0.02000
H 	H 	0.74360 0.59270 0.27930 0.05600
H 	H 	0.14480 0.74450 0.26390 0.04400
H 	H 	0.02040 0.89540 0.28450 0.03500
H 	H 	0.74130 0.97670 0.36490 0.05500
H 	H 	0.65160 0.07590 0.29560 0.04100
H 	H 	0.75660 0.23010 0.45180 0.01700
H 	H 	0.45580 0.44140 0.30050 0.05600
H 	H 	0.04220 0.44790 0.36890 0.04100
H 	H 	0.15910 0.39870 0.44460 0.03400
H 	H 	0.55950 0.24370 0.98600 0.02600
H 	H 	0.59090 0.39610 0.03290 0.05300
H 	H 	0.45840 0.09870 0.11340 0.00800
H 	H 	0.74360 0.40730 0.22070 0.05600
H 	H 	0.14480 0.25550 0.23610 0.04300
H 	H 	0.02040 0.10460 0.21550 0.02300
H 	H 	0.74130 0.02330 0.13510 -0.01700
H 	H 	0.65160 0.92410 0.20440 0.07300
H 	H 	0.75660 0.76990 0.04820 0.01700
H 	H 	0.45580 0.55860 0.19950 0.05600
H 	H 	0.04220 0.55210 0.13110 0.04000
H 	H 	0.15910 0.60130 0.05540 0.03300
C 	C 	0.45400 0.24300 0.52210 -0.00600
C 	C 	0.43260 0.33530 0.55060 -0.00300
C 	C 	0.48010 0.24830 0.62390 -0.00300
C 	C 	0.50950 0.15800 0.59590 -0.00200
C 	C 	0.27120 0.25300 0.70790 0.01300
C 	C 	0.19740 0.34590 0.71990 0.01500
C 	C 	0.96410 0.25690 0.72870 -0.00800
C 	C 	0.03880 0.16590 0.71650 0.01500
C 	C 	0.27330 0.95200 0.63040 0.04600
C 	C 	0.32480 0.89100 0.67270 -0.01400
C 	C 	0.30820 0.74850 0.62300 0.00300
C 	C 	0.26250 0.80410 0.57990 -0.00600
C 	C 	0.54060 0.59160 0.62350 0.01800
C 	C 	0.60850 0.56550 0.67010 0.01900
C 	C 	0.84780 0.56280 0.63040 0.00300
C 	C 	0.77670 0.59150 0.58460 0.00900
C 	C 	0.45400 0.75700 0.97790 0.01700
C 	C 	0.43260 0.66470 0.94940 -0.01000
C 	C 	0.48010 0.75170 0.87610 -0.00100
C 	C 	0.50950 0.84200 0.90410 -0.00200
C 	C 	0.27120 0.74700 0.79210 0.01400
C 	C 	0.19740 0.65410 0.78010 0.01500
C 	C 	0.96410 0.74310 0.77130 -0.00500
C 	C 	0.03880 0.83410 0.78350 0.01500
C 	C 	0.27330 0.04800 0.86960 -0.06600
C 	C 	0.32480 0.10900 0.82730 0.03200
C 	C 	0.30820 0.25150 0.87700 0.00700
C 	C 	0.26250 0.19590 0.92010 -0.01400
C 	C 	0.54060 0.40840 0.87650 0.01800
C 	C 	0.60850 0.43450 0.82990 0.01800
C 	C 	0.84780 0.43720 0.86960 0.00300
C 	C 	0.77670 0.40850 0.91540 0.00800
C 	C 	0.54600 0.75700 0.47790 -0.00600
C 	C 	0.56740 0.66470 0.44940 -0.00100
C 	C 	0.51990 0.75170 0.37610 0.00000
C 	C 	0.49050 0.84200 0.40410 -0.00400
C 	C 	0.72880 0.74700 0.29210 0.01400
C 	C 	0.80260 0.65410 0.28010 0.01500
C 	C 	0.03590 0.74310 0.27130 -0.00600
C 	C 	0.96120 0.83410 0.28350 0.01600
C 	C 	0.72670 0.04800 0.36960 -0.06900
C 	C 	0.67520 0.10900 0.32730 0.03300
C 	C 	0.69180 0.25150 0.37700 0.00700
C 	C 	0.73750 0.19590 0.42010 -0.01400
C 	C 	0.45940 0.40840 0.37650 0.01700
C 	C 	0.39150 0.43450 0.32990 0.01800
C 	C 	0.15220 0.43720 0.36960 0.00200
C 	C 	0.22330 0.40850 0.41540 0.00800
C 	C 	0.54600 0.24300 0.02210 -0.03100
C 	C 	0.56740 0.33530 0.05060 0.00800
C 	C 	0.51990 0.24830 0.12390 -0.00300
C 	C 	0.49050 0.15800 0.09590 -0.00400
C 	C 	0.72880 0.25300 0.20790 0.01300
C 	C 	0.80260 0.34590 0.21990 0.01400
C 	C 	0.03590 0.25690 0.22870 -0.00900
C 	C 	0.96120 0.16590 0.21650 0.01700
C 	C 	0.72670 0.95200 0.13040 0.04900
C 	C 	0.67520 0.89100 0.17270 -0.01600
C 	C 	0.69180 0.74850 0.12300 0.00200
C 	C 	0.73750 0.80410 0.07990 -0.00500
C 	C 	0.45940 0.59160 0.12350 0.01700
C 	C 	0.39150 0.56550 0.17010 0.01800
C 	C 	0.15220 0.56280 0.13040 0.00200
C 	C 	0.22330 0.59150 0.08460 0.00900
S 	S 	0.48000 0.24866 0.69370 0.29700
S 	S 	0.32734 0.61083 0.61872 0.29000
S 	S 	0.48000 0.75134 0.80630 0.29500
S 	S 	0.32734 0.38917 0.88128 0.28800
S 	S 	0.52000 0.75134 0.30630 0.29400
S 	S 	0.67266 0.38917 0.38128 0.28900
S 	S 	0.52000 0.24866 0.19370 0.29600
S 	S 	0.67266 0.61083 0.11872 0.29100
N 	N 	0.49290 0.15430 0.54445 -0.20000
N 	N 	0.44470 0.33880 0.60205 -0.09100
N 	N 	0.03970 0.34790 0.73053 -0.14300
N 	N 	0.19570 0.16230 0.70590 -0.10900
N 	N 	0.24560 0.90780 0.58400 -0.19600
N 	N 	0.34040 0.79110 0.66910 -0.08900
N 	N 	0.62050 0.60590 0.58010 -0.10600
N 	N 	0.76410 0.55000 0.67380 -0.14700
N 	N 	0.49290 0.84570 0.95555 -0.19300
N 	N 	0.44470 0.66120 0.89795 -0.08900
N 	N 	0.03970 0.65210 0.76947 -0.14300
N 	N 	0.19570 0.83770 0.79410 -0.10400
N 	N 	0.24560 0.09220 0.91600 -0.18700
N 	N 	0.34040 0.20890 0.83090 -0.10100
N 	N 	0.62050 0.39410 0.91990 -0.10500
N 	N 	0.76410 0.45000 0.82620 -0.14700
N 	N 	0.50710 0.84570 0.45555 -0.19100
N 	N 	0.55530 0.66120 0.39795 -0.09100
N 	N 	0.96030 0.65210 0.26947 -0.14200
N 	N 	0.80430 0.83770 0.29410 -0.10500
N 	N 	0.75440 0.09220 0.41600 -0.18800
N 	N 	0.65960 0.20890 0.33090 -0.10100
N 	N 	0.37950 0.39410 0.41990 -0.10600
N 	N 	0.23590 0.45000 0.32620 -0.14700
N 	N 	0.50710 0.15430 0.04445 -0.19700
N 	N 	0.55530 0.33880 0.10205 -0.09400
N 	N 	0.96030 0.34790 0.23053 -0.14200
N 	N 	0.80430 0.16230 0.20590 -0.10900
N 	N 	0.75440 0.90780 0.08400 -0.19600
N 	N 	0.65960 0.79110 0.16910 -0.08900
N 	N 	0.37950 0.60590 0.08010 -0.10700
N 	N 	0.23590 0.55000 0.17380 -0.14700
O 	O 	0.54310 0.15110 0.70956 -0.23100
O 	O 	0.54810 0.34400 0.71283 -0.23200
O 	O 	0.25830 0.56740 0.66459 -0.22600
O 	O 	0.27360 0.57840 0.56772 -0.22300
O 	O 	0.54310 0.84890 0.79044 -0.22000
O 	O 	0.54810 0.65600 0.78717 -0.23000
O 	O 	0.25830 0.43260 0.83541 -0.22600
O 	O 	0.27360 0.42160 0.93228 -0.22000
O 	O 	0.45690 0.84890 0.29044 -0.22000
O 	O 	0.45190 0.65600 0.28717 -0.23000
O 	O 	0.74170 0.43260 0.33541 -0.22600
O 	O 	0.72640 0.42160 0.43228 -0.22300
O 	O 	0.45690 0.15110 0.20956 -0.23200
O 	O 	0.45190 0.34400 0.21283 -0.23200
O 	O 	0.74170 0.56740 0.16459 -0.22700
O 	O 	0.72640 0.57840 0.06772 -0.22500
