data_crystal

_cell_length_a 7.62850
_cell_length_b 11.92960
_cell_length_c 14.34200
_cell_angle_alpha 114.57600
_cell_angle_beta  99.31280
_cell_angle_gamma 90.00000

_symmetry_space_group_name_	'P 1'
_symmetry_space_group_name_H-M	'P 1'

loop_
_symmetry_equiv_pos_as_xyz
  x,y,z

loop_
_atom_site_label
_atom_site_type_symbol
_atom_site_fract_x
_atom_site_fract_y
_atom_site_fract_z
_atom_site_charge
Ba	Ba	0.93930 0.72587 0.88532 1.59300
Ba	Ba	0.56070 0.84055 0.11468 1.83500
Ba	Ba	0.06070 0.27413 0.11468 1.81300
Ba	Ba	0.43930 0.15945 0.88532 1.55400
H 	H 	0.23000 0.94300 0.05000 0.28100
H 	H 	0.42140 0.33760 0.62500 -0.05400
H 	H 	0.45420 0.23460 0.45280 0.13300
H 	H 	0.19020 0.49120 0.38740 0.09100
H 	H 	0.15680 0.59210 0.55940 -0.03400
H 	H 	0.56970 0.23070 0.31480 0.07700
H 	H 	0.40830 0.13180 0.27820 0.05000
H 	H 	0.27000 0.89300 0.95000 0.21400
H 	H 	0.07860 0.71260 0.37500 -0.05900
H 	H 	0.04580 0.78180 0.54720 0.13500
H 	H 	0.30980 0.10380 0.61260 0.10400
H 	H 	0.34320 0.03270 0.44060 -0.04300
H 	H 	0.93030 0.91590 0.68520 0.08300
H 	H 	0.09170 0.85360 0.72180 0.05500
H 	H 	0.77000 0.05700 0.95000 0.18900
H 	H 	0.57860 0.66240 0.37500 -0.05200
H 	H 	0.54580 0.76540 0.54720 0.13300
H 	H 	0.80980 0.50880 0.61260 0.09600
H 	H 	0.84320 0.40790 0.44060 -0.03100
H 	H 	0.43030 0.76930 0.68520 0.08500
H 	H 	0.59170 0.86820 0.72180 0.06300
H 	H 	0.73000 0.10700 0.05000 0.27600
H 	H 	0.92140 0.28740 0.62500 -0.05400
H 	H 	0.95420 0.21820 0.45280 0.14000
H 	H 	0.69020 0.89620 0.38740 0.09900
H 	H 	0.65680 0.96730 0.55940 -0.03600
H 	H 	0.06970 0.08410 0.31480 0.05100
H 	H 	0.90830 0.14640 0.27820 0.04000
C 	C 	0.28500 0.47504 0.61056 -0.24700
C 	C 	0.37400 0.36843 0.57724 0.18300
C 	C 	0.39420 0.30645 0.47406 -0.30400
C 	C 	0.32400 0.35275 0.40284 0.28000
C 	C 	0.23620 0.45974 0.43488 -0.28600
C 	C 	0.21670 0.52006 0.53812 0.17300
C 	C 	0.26450 0.54153 0.72326 0.41400
C 	C 	0.45490 0.20170 0.26926 -0.17200
C 	C 	0.47960 0.15992 0.15692 0.42600
C 	C 	0.21500 0.86448 0.38944 -0.26000
C 	C 	0.12600 0.79119 0.42276 0.19500
C 	C 	0.10580 0.83239 0.52594 -0.31500
C 	C 	0.17600 0.94991 0.59716 0.29400
C 	C 	0.26380 0.02486 0.56512 -0.31200
C 	C 	0.28330 0.98194 0.46188 0.19700
C 	C 	0.23550 0.81827 0.27674 0.42100
C 	C 	0.04510 0.93244 0.73074 -0.17100
C 	C 	0.02040 0.00300 0.84308 0.40700
C 	C 	0.71500 0.52496 0.38944 -0.24400
C 	C 	0.62600 0.63157 0.42276 0.18300
C 	C 	0.60580 0.69355 0.52594 -0.30000
C 	C 	0.67600 0.64725 0.59716 0.27900
C 	C 	0.76380 0.54026 0.56512 -0.28200
C 	C 	0.78330 0.47994 0.46188 0.17500
C 	C 	0.73550 0.45847 0.27674 0.41500
C 	C 	0.54510 0.79830 0.73074 -0.18900
C 	C 	0.52040 0.84008 0.84308 0.44000
C 	C 	0.78500 0.13552 0.61056 -0.25100
C 	C 	0.87400 0.20881 0.57724 0.19300
C 	C 	0.89420 0.16761 0.47406 -0.31200
C 	C 	0.82400 0.05009 0.40284 0.29600
C 	C 	0.73620 0.97514 0.43488 -0.30200
C 	C 	0.71670 0.01806 0.53812 0.18600
C 	C 	0.76450 0.18173 0.72326 0.41600
C 	C 	0.95490 0.06756 0.26926 -0.12300
C 	C 	0.97960 0.99700 0.15692 0.41500
O 	O 	0.16220 0.62592 0.74822 -0.49200
O 	O 	0.35870 0.50588 0.78628 -0.43500
O 	O 	0.33680 0.29773 0.29846 -0.32700
O 	O 	0.58347 0.07494 0.13016 -0.49200
O 	O 	0.40203 0.20784 0.10062 -0.55200
O 	O 	0.33780 0.87770 0.25178 -0.50300
O 	O 	0.14130 0.71960 0.21372 -0.41600
O 	O 	0.16320 0.99927 0.70154 -0.31500
O 	O 	0.91653 0.94478 0.86984 -0.49500
O 	O 	0.09797 0.10722 0.89938 -0.61100
O 	O 	0.83780 0.37408 0.25178 -0.49100
O 	O 	0.64130 0.49412 0.21372 -0.40700
O 	O 	0.66320 0.70227 0.70154 -0.31200
O 	O 	0.41653 0.92506 0.86984 -0.51000
O 	O 	0.59797 0.79216 0.89938 -0.61600
O 	O 	0.66220 0.12230 0.74822 -0.48800
O 	O 	0.85870 0.28040 0.78628 -0.43100
O 	O 	0.83680 0.00073 0.29846 -0.33600
O 	O 	0.08347 0.05522 0.13016 -0.49900
O 	O 	0.90203 0.89278 0.10062 -0.55200
O 	O 	0.25000 0.87450 -0.00000 -0.75400
O 	O 	0.75000 0.12550 -0.00000 -0.71100
