data_crystal

_cell_length_a 8.95750
_cell_length_b 19.68500
_cell_length_c 25.06300
_cell_angle_alpha 90.00000
_cell_angle_beta  96.01500
_cell_angle_gamma 90.00000

_symmetry_space_group_name_	'P 1'
_symmetry_space_group_name_H-M	'P 1'

loop_
_symmetry_equiv_pos_as_xyz
  x,y,z

loop_
_atom_site_label
_atom_site_type_symbol
_atom_site_fract_x
_atom_site_fract_y
_atom_site_fract_z
_atom_site_charge
C 	C 	0.39000 0.24890 0.98242 0.10200
H 	H 	0.30570 0.22720 0.99300 -0.01000
C 	C 	0.49830 0.21020 0.96240 -0.18700
H 	H 	0.48730 0.16330 0.96040 0.09900
C 	C 	0.62380 0.24050 0.94514 0.13400
C 	C 	0.63320 0.31120 0.94987 -0.18700
H 	H 	0.71530 0.33450 0.93910 0.10400
C 	C 	0.51890 0.34570 0.97080 0.11800
H 	H 	0.52600 0.39280 0.97330 -0.02000
C 	C 	0.74060 0.19930 0.92336 -0.08800
C 	C 	0.70340 0.13810 0.89780 0.04900
H 	H 	0.60350 0.12450 0.89250 0.01300
C 	C 	0.81310 0.09730 0.88010 -0.17500
H 	H 	0.78590 0.05630 0.86340 0.09200
C 	C 	0.96050 0.11570 0.88646 0.15300
C 	C 	0.99880 0.17790 0.90930 -0.17000
H 	H 	0.09820 0.19230 0.91240 0.09300
C 	C 	0.88910 0.21880 0.92758 0.05100
H 	H 	0.91630 0.26060 0.94310 0.01300
C 	C 	0.04580 0.04490 0.81670 0.15300
C 	C 	0.07010 0.97770 0.80587 -0.17800
H 	H 	0.11020 0.94930 0.83330 0.09200
C 	C 	0.03620 0.95160 0.75497 0.05500
H 	H 	0.05370 0.90580 0.74900 0.00700
C 	C 	0.97700 0.99180 0.71266 -0.09500
C 	C 	0.94990 0.06000 0.72403 0.05000
H 	H 	0.90730 0.08840 0.69690 0.01400
C 	C 	0.98560 0.08570 0.77490 -0.17000
H 	H 	0.96870 0.13150 0.78130 0.09400
C 	C 	0.93590 0.96400 0.65902 0.13500
C 	C 	0.89600 0.89620 0.65077 -0.18800
H 	H 	0.89990 0.86660 0.67980 0.09500
C 	C 	0.85120 0.87280 0.60040 0.10800
H 	H 	0.82310 0.82750 0.59620 -0.02900
C 	C 	0.88720 0.97590 0.56314 0.11400
H 	H 	0.88580 0.00380 0.53310 0.00200
C 	C 	0.93290 0.00310 0.61317 -0.18300
H 	H 	0.96190 0.04840 0.61590 0.11200
C 	C 	0.19390 0.05090 0.90538 0.13300
C 	C 	0.17980 0.04850 0.95993 -0.14000
H 	H 	0.08810 0.05910 0.97220 0.08300
C 	C 	0.29980 0.03090 0.99618 -0.00200
H 	H 	0.28870 0.03270 0.03260 0.03000
C 	C 	0.43560 0.01050 0.98042 -0.01500
C 	C 	0.44560 0.00990 0.92529 -0.00400
H 	H 	0.53410 0.99520 0.91270 0.03200
C 	C 	0.32750 0.03040 0.88882 -0.14500
H 	H 	0.33920 0.03040 0.85240 0.08500
C 	C 	0.00170 0.30970 0.04741 0.36200
C 	C 	0.87430 0.27100 0.06844 -0.12500
C 	C 	0.74990 0.30480 0.08485 0.05900
H 	H 	0.74390 0.35190 0.08200 0.02500
C 	C 	0.63650 0.26960 0.10510 -0.13300
H 	H 	0.55320 0.29290 0.11490 0.08800
C 	C 	0.64440 0.19970 0.11111 0.06300
C 	C 	0.76510 0.16660 0.09272 -0.13100
H 	H 	0.76970 0.11950 0.09460 0.07700
C 	C 	0.87820 0.20120 0.07191 0.05800
H 	H 	0.95820 0.17740 0.06000 0.02300
C 	C 	0.52730 0.16210 0.13677 0.02700
C 	C 	0.37810 0.16230 0.11690 -0.09600
H 	H 	0.34720 0.18700 0.08610 0.07200
C 	C 	0.27330 0.12600 0.14230 0.01700
H 	H 	0.17310 0.12620 0.12810 0.02400
C 	C 	0.31500 0.09010 0.18750 -0.09600
H 	H 	0.24390 0.06490 0.20340 0.06300
C 	C 	0.46230 0.09070 0.21025 0.01700
C 	C 	0.56800 0.12540 0.18395 -0.09400
H 	H 	0.66820 0.12430 0.19800 0.06200
C 	C 	0.50850 0.05520 0.26166 0.09000
C 	C 	0.44920 0.99570 0.27450 -0.17000
H 	H 	0.37530 0.97620 0.25050 0.09000
C 	C 	0.49360 0.96210 0.32220 0.11400
H 	H 	0.45250 0.91990 0.32870 0.00100
C 	C 	0.65820 0.05080 0.34730 0.10700
H 	H 	0.73070 0.07030 0.37180 0.00500
C 	C 	0.61580 0.08370 0.29970 -0.16300
H 	H 	0.65890 0.12530 0.29280 0.08700
C 	C 	0.59600 0.98990 0.35930 -0.19300
C 	C 	0.65070 0.95390 0.40960 0.44600
N 	N 	0.07360 0.07250 0.86876 -0.18200
N 	N 	0.40030 0.31628 0.98739 -0.26500
N 	N 	0.84580 0.91238 0.55650 -0.27300
O 	O 	0.11110 0.28020 0.03463 -0.43000
O 	O 	0.99110 0.37170 0.04300 -0.39400
O 	O 	0.65300 0.89180 0.40930 -0.46000
O 	O 	0.71540 0.98060 0.44670 -0.41900
Zn	Zn	0.22643 0.37169 0.01777 1.21000
C 	C 	0.61000 0.74890 0.51758 0.10300
H 	H 	0.69430 0.72720 0.50700 -0.00900
C 	C 	0.50170 0.71020 0.53760 -0.18500
H 	H 	0.51270 0.66330 0.53960 0.10000
C 	C 	0.37620 0.74050 0.55486 0.13400
C 	C 	0.36680 0.81120 0.55013 -0.18600
H 	H 	0.28470 0.83450 0.56090 0.10400
C 	C 	0.48110 0.84570 0.52920 0.11800
H 	H 	0.47400 0.89280 0.52670 -0.02000
C 	C 	0.25940 0.69930 0.57664 -0.08700
C 	C 	0.29660 0.63810 0.60220 0.04700
H 	H 	0.39650 0.62450 0.60750 0.01300
C 	C 	0.18690 0.59730 0.61990 -0.17400
H 	H 	0.21410 0.55630 0.63660 0.09200
C 	C 	0.03950 0.61570 0.61354 0.15200
C 	C 	0.00120 0.67790 0.59070 -0.16700
H 	H 	0.90180 0.69230 0.58760 0.09200
C 	C 	0.11090 0.71880 0.57242 0.04900
H 	H 	0.08370 0.76060 0.55690 0.01400
C 	C 	0.95420 0.54490 0.68330 0.15200
C 	C 	0.92990 0.47770 0.69413 -0.17600
H 	H 	0.88980 0.44930 0.66670 0.09100
C 	C 	0.96380 0.45160 0.74503 0.04900
H 	H 	0.94630 0.40580 0.75100 0.00900
C 	C 	0.02300 0.49180 0.78734 -0.09000
C 	C 	0.05010 0.56000 0.77597 0.04600
H 	H 	0.09270 0.58840 0.80310 0.01500
C 	C 	0.01440 0.58570 0.72510 -0.16800
H 	H 	0.03130 0.63150 0.71870 0.09300
C 	C 	0.06410 0.46400 0.84098 0.13800
C 	C 	0.10400 0.39620 0.84923 -0.18900
H 	H 	0.10010 0.36660 0.82020 0.09600
C 	C 	0.14880 0.37280 0.89960 0.10900
H 	H 	0.17690 0.32750 0.90380 -0.02900
C 	C 	0.11280 0.47590 0.93686 0.12100
H 	H 	0.11420 0.50380 0.96690 -0.00100
C 	C 	0.06710 0.50310 0.88683 -0.19000
H 	H 	0.03810 0.54840 0.88410 0.11400
C 	C 	0.80610 0.55090 0.59462 0.13200
C 	C 	0.82020 0.54850 0.54007 -0.13700
H 	H 	0.91190 0.55910 0.52780 0.08200
C 	C 	0.70020 0.53090 0.50382 -0.00500
H 	H 	0.71130 0.53270 0.46740 0.03200
C 	C 	0.56440 0.51050 0.51958 -0.01400
C 	C 	0.55440 0.50990 0.57471 -0.00600
H 	H 	0.46590 0.49520 0.58730 0.03300
C 	C 	0.67250 0.53040 0.61118 -0.14300
H 	H 	0.66080 0.53040 0.64760 0.08400
C 	C 	0.99830 0.80970 0.45259 0.36400
C 	C 	0.12570 0.77100 0.43156 -0.12600
C 	C 	0.25010 0.80480 0.41515 0.06000
H 	H 	0.25610 0.85190 0.41800 0.02400
C 	C 	0.36350 0.76960 0.39490 -0.13300
H 	H 	0.44680 0.79290 0.38510 0.08900
C 	C 	0.35560 0.69970 0.38889 0.06400
C 	C 	0.23490 0.66660 0.40728 -0.13100
H 	H 	0.23030 0.61950 0.40540 0.07700
C 	C 	0.12180 0.70120 0.42809 0.05900
H 	H 	0.04180 0.67740 0.44000 0.02200
C 	C 	0.47270 0.66210 0.36323 0.02600
C 	C 	0.62190 0.66230 0.38310 -0.09600
H 	H 	0.65280 0.68700 0.41390 0.07200
C 	C 	0.72670 0.62600 0.35770 0.01700
H 	H 	0.82690 0.62620 0.37190 0.02400
C 	C 	0.68500 0.59010 0.31250 -0.09500
H 	H 	0.75610 0.56490 0.29660 0.06400
C 	C 	0.53770 0.59070 0.28975 0.01700
C 	C 	0.43200 0.62540 0.31605 -0.09300
H 	H 	0.33180 0.62430 0.30200 0.06200
C 	C 	0.49150 0.55520 0.23834 0.09100
C 	C 	0.55080 0.49570 0.22550 -0.17000
H 	H 	0.62470 0.47620 0.24950 0.09000
C 	C 	0.50640 0.46210 0.17780 0.11400
H 	H 	0.54750 0.41990 0.17130 0.00100
C 	C 	0.34180 0.55080 0.15270 0.10700
H 	H 	0.26930 0.57030 0.12820 0.00500
C 	C 	0.38420 0.58370 0.20030 -0.16300
H 	H 	0.34110 0.62530 0.20720 0.08700
C 	C 	0.40400 0.48990 0.14070 -0.19300
C 	C 	0.34930 0.45390 0.09040 0.44500
N 	N 	0.92640 0.57250 0.63124 -0.18200
N 	N 	0.59970 0.81628 0.51261 -0.26500
N 	N 	0.15420 0.41238 0.94350 -0.27400
O 	O 	0.88890 0.78020 0.46537 -0.42900
O 	O 	0.00890 0.87170 0.45700 -0.39500
O 	O 	0.34700 0.39180 0.09070 -0.46000
O 	O 	0.28460 0.48060 0.05330 -0.41900
Zn	Zn	0.77357 0.87169 0.48223 1.21000
C 	C 	0.61000 0.75110 0.01758 0.10300
H 	H 	0.69430 0.77280 0.00700 -0.00900
C 	C 	0.50170 0.78980 0.03760 -0.18600
H 	H 	0.51270 0.83670 0.03960 0.10000
C 	C 	0.37620 0.75950 0.05486 0.13500
C 	C 	0.36680 0.68880 0.05013 -0.18600
H 	H 	0.28470 0.66550 0.06090 0.10400
C 	C 	0.48110 0.65430 0.02920 0.11800
H 	H 	0.47400 0.60720 0.02670 -0.02000
C 	C 	0.25940 0.80070 0.07664 -0.08800
C 	C 	0.29660 0.86190 0.10220 0.04900
H 	H 	0.39650 0.87550 0.10750 0.01300
C 	C 	0.18690 0.90270 0.11990 -0.17500
H 	H 	0.21410 0.94370 0.13660 0.09200
C 	C 	0.03950 0.88430 0.11354 0.15300
C 	C 	0.00120 0.82210 0.09070 -0.17000
H 	H 	0.90180 0.80770 0.08760 0.09300
C 	C 	0.11090 0.78120 0.07242 0.05100
H 	H 	0.08370 0.73940 0.05690 0.01300
C 	C 	0.95420 0.95510 0.18330 0.15300
C 	C 	0.92990 0.02230 0.19413 -0.17800
H 	H 	0.88980 0.05070 0.16670 0.09200
C 	C 	0.96380 0.04840 0.24503 0.05500
H 	H 	0.94630 0.09420 0.25100 0.00700
C 	C 	0.02300 0.00820 0.28734 -0.09500
C 	C 	0.05010 0.94000 0.27597 0.05000
H 	H 	0.09270 0.91160 0.30310 0.01400
C 	C 	0.01440 0.91430 0.22510 -0.17000
H 	H 	0.03130 0.86850 0.21870 0.09400
C 	C 	0.06410 0.03600 0.34098 0.13500
C 	C 	0.10400 0.10380 0.34923 -0.18800
H 	H 	0.10010 0.13340 0.32020 0.09500
C 	C 	0.14880 0.12720 0.39960 0.10800
H 	H 	0.17690 0.17250 0.40380 -0.02900
C 	C 	0.11280 0.02410 0.43686 0.11400
H 	H 	0.11420 0.99620 0.46690 0.00200
C 	C 	0.06710 0.99690 0.38683 -0.18300
H 	H 	0.03810 0.95160 0.38410 0.11200
C 	C 	0.80610 0.94910 0.09462 0.13300
C 	C 	0.82020 0.95150 0.04007 -0.14000
H 	H 	0.91190 0.94090 0.02780 0.08300
C 	C 	0.70020 0.96910 0.00382 -0.00200
H 	H 	0.71130 0.96730 0.96740 0.03000
C 	C 	0.56440 0.98950 0.01958 -0.01500
C 	C 	0.55440 0.99010 0.07471 -0.00400
H 	H 	0.46590 0.00480 0.08730 0.03200
C 	C 	0.67250 0.96960 0.11118 -0.14500
H 	H 	0.66080 0.96960 0.14760 0.08500
C 	C 	0.99830 0.69030 0.95259 0.36200
C 	C 	0.12570 0.72900 0.93156 -0.12500
C 	C 	0.25010 0.69520 0.91515 0.05900
H 	H 	0.25610 0.64810 0.91800 0.02500
C 	C 	0.36350 0.73040 0.89490 -0.13300
H 	H 	0.44680 0.70710 0.88510 0.08800
C 	C 	0.35560 0.80030 0.88889 0.06300
C 	C 	0.23490 0.83340 0.90728 -0.13100
H 	H 	0.23030 0.88050 0.90540 0.07700
C 	C 	0.12180 0.79880 0.92809 0.05800
H 	H 	0.04180 0.82260 0.94000 0.02300
C 	C 	0.47270 0.83790 0.86323 0.02700
C 	C 	0.62190 0.83770 0.88310 -0.09600
H 	H 	0.65280 0.81300 0.91390 0.07200
C 	C 	0.72670 0.87400 0.85770 0.01700
H 	H 	0.82690 0.87380 0.87190 0.02400
C 	C 	0.68500 0.90990 0.81250 -0.09600
H 	H 	0.75610 0.93510 0.79660 0.06300
C 	C 	0.53770 0.90930 0.78975 0.01700
C 	C 	0.43200 0.87460 0.81605 -0.09400
H 	H 	0.33180 0.87570 0.80200 0.06200
C 	C 	0.49150 0.94480 0.73834 0.09000
C 	C 	0.55080 0.00430 0.72550 -0.17000
H 	H 	0.62470 0.02380 0.74950 0.09000
C 	C 	0.50640 0.03790 0.67780 0.11400
H 	H 	0.54750 0.08010 0.67130 0.00100
C 	C 	0.34180 0.94920 0.65270 0.10700
H 	H 	0.26930 0.92970 0.62820 0.00500
C 	C 	0.38420 0.91630 0.70030 -0.16300
H 	H 	0.34110 0.87470 0.70720 0.08700
C 	C 	0.40400 0.01010 0.64070 -0.19300
C 	C 	0.34930 0.04610 0.59040 0.44600
N 	N 	0.92640 0.92750 0.13124 -0.18200
N 	N 	0.59970 0.68372 0.01261 -0.26500
N 	N 	0.15420 0.08762 0.44350 -0.27300
O 	O 	0.88890 0.71980 0.96537 -0.43000
O 	O 	0.00890 0.62830 0.95700 -0.39400
O 	O 	0.34700 0.10820 0.59070 -0.46000
O 	O 	0.28460 0.01940 0.55330 -0.41900
Zn	Zn	0.77357 0.62831 0.98223 1.21000
C 	C 	0.39000 0.25110 0.48242 0.10300
H 	H 	0.30570 0.27280 0.49300 -0.00900
C 	C 	0.49830 0.28980 0.46240 -0.18500
H 	H 	0.48730 0.33670 0.46040 0.10000
C 	C 	0.62380 0.25950 0.44514 0.13400
C 	C 	0.63320 0.18880 0.44987 -0.18600
H 	H 	0.71530 0.16550 0.43910 0.10400
C 	C 	0.51890 0.15430 0.47080 0.11800
H 	H 	0.52600 0.10720 0.47330 -0.02000
C 	C 	0.74060 0.30070 0.42336 -0.08700
C 	C 	0.70340 0.36190 0.39780 0.04700
H 	H 	0.60350 0.37550 0.39250 0.01300
C 	C 	0.81310 0.40270 0.38010 -0.17400
H 	H 	0.78590 0.44370 0.36340 0.09200
C 	C 	0.96050 0.38430 0.38646 0.15200
C 	C 	0.99880 0.32210 0.40930 -0.16700
H 	H 	0.09820 0.30770 0.41240 0.09200
C 	C 	0.88910 0.28120 0.42758 0.04900
H 	H 	0.91630 0.23940 0.44310 0.01400
C 	C 	0.04580 0.45510 0.31670 0.15200
C 	C 	0.07010 0.52230 0.30587 -0.17600
H 	H 	0.11020 0.55070 0.33330 0.09100
C 	C 	0.03620 0.54840 0.25497 0.04900
H 	H 	0.05370 0.59420 0.24900 0.00900
C 	C 	0.97700 0.50820 0.21266 -0.09000
C 	C 	0.94990 0.44000 0.22403 0.04600
H 	H 	0.90730 0.41160 0.19690 0.01500
C 	C 	0.98560 0.41430 0.27490 -0.16800
H 	H 	0.96870 0.36850 0.28130 0.09300
C 	C 	0.93590 0.53600 0.15902 0.13800
C 	C 	0.89600 0.60380 0.15077 -0.18900
H 	H 	0.89990 0.63340 0.17980 0.09600
C 	C 	0.85120 0.62720 0.10040 0.10900
H 	H 	0.82310 0.67250 0.09620 -0.02900
C 	C 	0.88720 0.52410 0.06314 0.12100
H 	H 	0.88580 0.49620 0.03310 -0.00100
C 	C 	0.93290 0.49690 0.11317 -0.19000
H 	H 	0.96190 0.45160 0.11590 0.11400
C 	C 	0.19390 0.44910 0.40538 0.13200
C 	C 	0.17980 0.45150 0.45993 -0.13700
H 	H 	0.08810 0.44090 0.47220 0.08200
C 	C 	0.29980 0.46910 0.49618 -0.00500
H 	H 	0.28870 0.46730 0.53260 0.03200
C 	C 	0.43560 0.48950 0.48042 -0.01400
C 	C 	0.44560 0.49010 0.42529 -0.00600
H 	H 	0.53410 0.50480 0.41270 0.03300
C 	C 	0.32750 0.46960 0.38882 -0.14300
H 	H 	0.33920 0.46960 0.35240 0.08400
C 	C 	0.00170 0.19030 0.54741 0.36400
C 	C 	0.87430 0.22900 0.56844 -0.12600
C 	C 	0.74990 0.19520 0.58485 0.06000
H 	H 	0.74390 0.14810 0.58200 0.02400
C 	C 	0.63650 0.23040 0.60510 -0.13300
H 	H 	0.55320 0.20710 0.61490 0.08900
C 	C 	0.64440 0.30030 0.61111 0.06400
C 	C 	0.76510 0.33340 0.59272 -0.13100
H 	H 	0.76970 0.38050 0.59460 0.07700
C 	C 	0.87820 0.29880 0.57191 0.05900
H 	H 	0.95820 0.32260 0.56000 0.02200
C 	C 	0.52730 0.33790 0.63677 0.02600
C 	C 	0.37810 0.33770 0.61690 -0.09600
H 	H 	0.34720 0.31300 0.58610 0.07200
C 	C 	0.27330 0.37400 0.64230 0.01700
H 	H 	0.17310 0.37380 0.62810 0.02400
C 	C 	0.31500 0.40990 0.68750 -0.09500
H 	H 	0.24390 0.43510 0.70340 0.06400
C 	C 	0.46230 0.40930 0.71025 0.01700
C 	C 	0.56800 0.37460 0.68395 -0.09300
H 	H 	0.66820 0.37570 0.69800 0.06200
C 	C 	0.50850 0.44480 0.76166 0.09100
C 	C 	0.44920 0.50430 0.77450 -0.17000
H 	H 	0.37530 0.52380 0.75050 0.09000
C 	C 	0.49360 0.53790 0.82220 0.11400
H 	H 	0.45250 0.58010 0.82870 0.00100
C 	C 	0.65820 0.44920 0.84730 0.10700
H 	H 	0.73070 0.42970 0.87180 0.00500
C 	C 	0.61580 0.41630 0.79970 -0.16300
H 	H 	0.65890 0.37470 0.79280 0.08700
C 	C 	0.59600 0.51010 0.85930 -0.19300
C 	C 	0.65070 0.54610 0.90960 0.44500
N 	N 	0.07360 0.42750 0.36876 -0.18200
N 	N 	0.40030 0.18372 0.48739 -0.26500
N 	N 	0.84580 0.58762 0.05650 -0.27400
O 	O 	0.11110 0.21980 0.53463 -0.42900
O 	O 	0.99110 0.12830 0.54300 -0.39500
O 	O 	0.65300 0.60820 0.90930 -0.46000
O 	O 	0.71540 0.51940 0.94670 -0.41900
Zn	Zn	0.22643 0.12831 0.51777 1.21000
