data_crystal

_cell_length_a 12.64100
_cell_length_b 5.19530
_cell_length_c 21.15000
_cell_angle_alpha 90.00000
_cell_angle_beta  95.11000
_cell_angle_gamma 90.00000

_symmetry_space_group_name_	'P 1'
_symmetry_space_group_name_H-M	'P 1'

loop_
_symmetry_equiv_pos_as_xyz
  x,y,z

loop_
_atom_site_label
_atom_site_type_symbol
_atom_site_fract_x
_atom_site_fract_y
_atom_site_fract_z
_atom_site_charge
Mn	Mn	0.49393 0.21496 0.42970 1.30000
Mn	Mn	0.50116 0.73341 0.32720 1.30800
Mn	Mn	0.10038 0.77792 0.44532 1.33500
P 	P 	0.35972 0.73316 0.44730 0.54900
P 	P 	0.62654 0.24253 0.31363 0.51900
P 	P 	0.02793 0.70140 0.58311 0.54900
O 	O 	0.53766 0.37670 0.34953 -0.65900
O 	O 	0.60123 0.29610 0.24281 -0.51000
O 	O 	0.24598 0.78040 0.42017 -0.43900
O 	O 	0.43347 0.87090 0.40186 -0.64000
O 	O 	0.10565 0.66930 0.53274 -0.46500
O 	O 	0.73267 0.36190 0.33405 -0.27000
O 	O 	0.38240 0.85920 0.51260 -0.50500
O 	O 	0.93155 0.86110 0.56108 -0.47100
O 	O 	0.62322 0.95610 0.32947 -0.48300
O 	O 	0.38435 0.44690 0.45057 -0.52000
O 	O 	0.08957 0.85050 0.63986 -0.35900
O 	O 	0.99469 0.43980 0.60716 -0.41300
H 	H 	0.15600 0.77300 0.65300 0.25400
Zn	Zn	0.50607 0.78504 0.57030 1.21700
Zn	Zn	0.49884 0.26659 0.67280 1.22500
Zn	Zn	0.89962 0.22208 0.55468 1.24300
Mn	Mn	0.50607 0.71496 0.07030 1.30000
Mn	Mn	0.49884 0.23341 0.17280 1.30400
Mn	Mn	0.89962 0.27792 0.05468 1.33200
P 	P 	0.64028 0.23316 0.05270 0.54100
P 	P 	0.37346 0.74253 0.18637 0.52500
P 	P 	0.97207 0.20140 0.91689 0.55400
O 	O 	0.46234 0.87670 0.15047 -0.65500
O 	O 	0.39877 0.79610 0.25719 -0.50700
O 	O 	0.75402 0.28040 0.07983 -0.44100
O 	O 	0.56653 0.37090 0.09814 -0.64300
O 	O 	0.89435 0.16930 0.96726 -0.46300
O 	O 	0.26733 0.86190 0.16595 -0.26800
O 	O 	0.61760 0.35920 0.98740 -0.50000
O 	O 	0.06845 0.36110 0.93892 -0.47200
O 	O 	0.37678 0.45610 0.17053 -0.49200
O 	O 	0.61565 0.94690 0.04943 -0.51600
O 	O 	0.91043 0.35050 0.86014 -0.35700
O 	O 	0.00531 0.93980 0.89284 -0.41900
H 	H 	0.84400 0.27300 0.84700 0.25500
Zn	Zn	0.49393 0.28504 0.92970 1.21800
Zn	Zn	0.50116 0.76659 0.82720 1.22400
Zn	Zn	0.10038 0.72208 0.94532 1.24300
P 	P 	0.64028 0.26684 0.55270 0.55000
P 	P 	0.37346 0.75747 0.68637 0.52400
P 	P 	0.97207 0.29860 0.41689 0.54900
O 	O 	0.46234 0.62330 0.65047 -0.63100
O 	O 	0.39877 0.70390 0.75719 -0.48700
O 	O 	0.75402 0.21960 0.57983 -0.42100
O 	O 	0.56653 0.12910 0.59814 -0.61700
O 	O 	0.89435 0.33070 0.46726 -0.45500
O 	O 	0.26733 0.63810 0.66595 -0.26500
O 	O 	0.61760 0.14080 0.48740 -0.51300
O 	O 	0.06845 0.13890 0.43892 -0.48900
O 	O 	0.37678 0.04390 0.67053 -0.46600
O 	O 	0.61565 0.55310 0.54943 -0.50600
O 	O 	0.91043 0.14950 0.36014 -0.36500
O 	O 	0.00531 0.56020 0.39284 -0.42900
H 	H 	0.84400 0.22700 0.34700 0.25400
P 	P 	0.35972 0.76684 0.94730 0.55100
P 	P 	0.62654 0.25747 0.81363 0.52900
P 	P 	0.02793 0.79860 0.08311 0.55500
O 	O 	0.53766 0.12330 0.84953 -0.62900
O 	O 	0.60123 0.20390 0.74281 -0.48500
O 	O 	0.24598 0.71960 0.92017 -0.42200
O 	O 	0.43347 0.62910 0.90186 -0.61800
O 	O 	0.10565 0.83070 0.03274 -0.45600
O 	O 	0.73267 0.13810 0.83405 -0.26400
O 	O 	0.38240 0.64080 0.01260 -0.51400
O 	O 	0.93155 0.63890 0.06108 -0.48900
O 	O 	0.62322 0.54390 0.82947 -0.47200
O 	O 	0.38435 0.05310 0.95057 -0.50300
O 	O 	0.08957 0.64950 0.13986 -0.36200
O 	O 	0.99469 0.06020 0.10716 -0.43700
H 	H 	0.15600 0.72700 0.15300 0.25500
