data_crystal

_cell_length_a 16.99820
_cell_length_b 12.89240
_cell_length_c 24.71430
_cell_angle_alpha 90.00000
_cell_angle_beta  90.00000
_cell_angle_gamma 90.00000

_symmetry_space_group_name_	'P 1'
_symmetry_space_group_name_H-M	'P 1'

loop_
_symmetry_equiv_pos_as_xyz
  x,y,z

loop_
_atom_site_label
_atom_site_type_symbol
_atom_site_fract_x
_atom_site_fract_y
_atom_site_fract_z
_atom_site_charge
C 	C 	0.82200 0.18950 0.94280 0.09200
H 	H 	0.77590 0.18200 0.92300 -0.01400
C 	C 	0.93100 0.24840 0.96956 0.08700
H 	H 	0.97650 0.28780 0.97360 -0.00700
C 	C 	0.95840 0.11610 0.04126 -0.04900
H 	H 	0.92340 0.07870 0.06530 0.04500
H 	H 	0.98620 0.16770 0.06250 0.04100
C 	C 	0.01690 0.04150 0.01730 -0.09700
H 	H 	0.05430 0.08070 0.99590 0.05900
H 	H 	0.04570 0.00900 0.04660 0.06200
N 	N 	0.87580 0.26500 0.93287 -0.24300
N 	N 	0.91200 0.16800 0.99945 -0.09600
N 	N 	0.84130 0.12840 0.98284 -0.10500
C 	C 	0.82200 0.68950 0.44280 0.09200
H 	H 	0.77590 0.68200 0.42300 -0.01400
C 	C 	0.93100 0.74840 0.46956 0.08700
H 	H 	0.97650 0.78780 0.47360 -0.00700
C 	C 	0.95840 0.61610 0.54126 -0.04800
H 	H 	0.92340 0.57870 0.56530 0.04500
H 	H 	0.98620 0.66770 0.56250 0.04100
C 	C 	0.01690 0.54150 0.51730 -0.09800
H 	H 	0.05430 0.58070 0.49590 0.06000
H 	H 	0.04570 0.50900 0.54660 0.06200
N 	N 	0.87580 0.76500 0.43287 -0.24300
N 	N 	0.91200 0.66800 0.49945 -0.09600
N 	N 	0.84130 0.62840 0.48284 -0.10500
C 	C 	0.32200 0.18950 0.44280 0.09200
H 	H 	0.27590 0.18200 0.42300 -0.01400
C 	C 	0.43100 0.24840 0.46956 0.08700
H 	H 	0.47650 0.28780 0.47360 -0.00700
C 	C 	0.45840 0.11610 0.54126 -0.04800
H 	H 	0.42340 0.07870 0.56530 0.04500
H 	H 	0.48620 0.16770 0.56250 0.04100
C 	C 	0.51690 0.04150 0.51730 -0.09800
H 	H 	0.55430 0.08070 0.49590 0.06000
H 	H 	0.54570 0.00900 0.54660 0.06200
N 	N 	0.37580 0.26500 0.43287 -0.24300
N 	N 	0.41200 0.16800 0.49945 -0.09600
N 	N 	0.34130 0.12840 0.48284 -0.10500
C 	C 	0.32200 0.68950 0.94280 0.09200
H 	H 	0.27590 0.68200 0.92300 -0.01400
C 	C 	0.43100 0.74840 0.96956 0.08700
H 	H 	0.47650 0.78780 0.97360 -0.00700
C 	C 	0.45840 0.61610 0.04126 -0.04800
H 	H 	0.42340 0.57870 0.06530 0.04500
H 	H 	0.48620 0.66770 0.06250 0.04100
C 	C 	0.51690 0.54150 0.01730 -0.09800
H 	H 	0.55430 0.58070 0.99590 0.06000
H 	H 	0.54570 0.50900 0.04660 0.06200
N 	N 	0.37580 0.76500 0.93287 -0.24300
N 	N 	0.41200 0.66800 0.99945 -0.09600
N 	N 	0.34130 0.62840 0.98284 -0.10500
C 	C 	0.92800 0.56050 0.94280 0.09200
H 	H 	0.97410 0.56800 0.92300 -0.01400
C 	C 	0.81900 0.50160 0.96956 0.08700
H 	H 	0.77350 0.46220 0.97360 -0.00700
C 	C 	0.79160 0.63390 0.04126 -0.04600
H 	H 	0.82660 0.67130 0.06530 0.04500
H 	H 	0.76380 0.58230 0.06250 0.04200
C 	C 	0.73310 0.70850 0.01730 -0.09900
H 	H 	0.69570 0.66930 0.99590 0.06100
H 	H 	0.70430 0.74100 0.04660 0.06400
N 	N 	0.87420 0.48500 0.93287 -0.24200
N 	N 	0.83800 0.58200 0.99945 -0.09500
N 	N 	0.90870 0.62160 0.98284 -0.10400
C 	C 	0.92800 0.06050 0.44280 0.09300
H 	H 	0.97410 0.06800 0.42300 -0.01300
C 	C 	0.81900 0.00160 0.46956 0.08800
H 	H 	0.77350 0.96220 0.47360 -0.00600
C 	C 	0.79160 0.13390 0.54126 -0.04700
H 	H 	0.82660 0.17130 0.56530 0.04600
H 	H 	0.76380 0.08230 0.56250 0.04200
C 	C 	0.73310 0.20850 0.51730 -0.09700
H 	H 	0.69570 0.16930 0.49590 0.06100
H 	H 	0.70430 0.24100 0.54660 0.06300
N 	N 	0.87420 0.98500 0.43287 -0.24200
N 	N 	0.83800 0.08200 0.49945 -0.09500
N 	N 	0.90870 0.12160 0.48284 -0.10400
C 	C 	0.42800 0.56050 0.44280 0.09300
H 	H 	0.47410 0.56800 0.42300 -0.01300
C 	C 	0.31900 0.50160 0.46956 0.08800
H 	H 	0.27350 0.46220 0.47360 -0.00600
C 	C 	0.29160 0.63390 0.54126 -0.04700
H 	H 	0.32660 0.67130 0.56530 0.04600
H 	H 	0.26380 0.58230 0.56250 0.04200
C 	C 	0.23310 0.70850 0.51730 -0.09700
H 	H 	0.19570 0.66930 0.49590 0.06100
H 	H 	0.20430 0.74100 0.54660 0.06300
N 	N 	0.37420 0.48500 0.43287 -0.24200
N 	N 	0.33800 0.58200 0.49945 -0.09500
N 	N 	0.40870 0.62160 0.48284 -0.10400
C 	C 	0.42800 0.06050 0.94280 0.09300
H 	H 	0.47410 0.06800 0.92300 -0.01300
C 	C 	0.31900 0.00160 0.96956 0.08700
H 	H 	0.27350 0.96220 0.97360 -0.00600
C 	C 	0.29160 0.13390 0.04126 -0.04800
H 	H 	0.32660 0.17130 0.06530 0.04600
H 	H 	0.26380 0.08230 0.06250 0.04200
C 	C 	0.23310 0.20850 0.01730 -0.09500
H 	H 	0.19570 0.16930 0.99590 0.06000
H 	H 	0.20430 0.24100 0.04660 0.06200
N 	N 	0.37420 0.98500 0.93287 -0.24200
N 	N 	0.33800 0.08200 0.99945 -0.09500
N 	N 	0.40870 0.12160 0.98284 -0.10400
C 	C 	0.92800 0.18950 0.80720 0.09300
H 	H 	0.97410 0.18200 0.82700 -0.01300
C 	C 	0.81900 0.24840 0.78044 0.08800
H 	H 	0.77350 0.28780 0.77640 -0.00600
C 	C 	0.79160 0.11610 0.70874 -0.04700
H 	H 	0.82660 0.07870 0.68470 0.04600
H 	H 	0.76380 0.16770 0.68750 0.04200
C 	C 	0.73310 0.04150 0.73270 -0.09700
H 	H 	0.69570 0.08070 0.75410 0.06100
H 	H 	0.70430 0.00900 0.70340 0.06300
N 	N 	0.87420 0.26500 0.81713 -0.24200
N 	N 	0.83800 0.16800 0.75055 -0.09500
N 	N 	0.90870 0.12840 0.76716 -0.10400
C 	C 	0.92800 0.68950 0.30720 0.09300
H 	H 	0.97410 0.68200 0.32700 -0.01300
C 	C 	0.81900 0.74840 0.28044 0.08800
H 	H 	0.77350 0.78780 0.27640 -0.00600
C 	C 	0.79160 0.61610 0.20874 -0.04700
H 	H 	0.82660 0.57870 0.18470 0.04600
H 	H 	0.76380 0.66770 0.18750 0.04200
C 	C 	0.73310 0.54150 0.23270 -0.09700
H 	H 	0.69570 0.58070 0.25410 0.06100
H 	H 	0.70430 0.50900 0.20340 0.06300
N 	N 	0.87420 0.76500 0.31713 -0.24200
N 	N 	0.83800 0.66800 0.25055 -0.09500
N 	N 	0.90870 0.62840 0.26716 -0.10400
C 	C 	0.42800 0.18950 0.30720 0.09300
H 	H 	0.47410 0.18200 0.32700 -0.01300
C 	C 	0.31900 0.24840 0.28044 0.08800
H 	H 	0.27350 0.28780 0.27640 -0.00600
C 	C 	0.29160 0.11610 0.20874 -0.04700
H 	H 	0.32660 0.07870 0.18470 0.04600
H 	H 	0.26380 0.16770 0.18750 0.04200
C 	C 	0.23310 0.04150 0.23270 -0.09700
H 	H 	0.19570 0.08070 0.25410 0.06100
H 	H 	0.20430 0.00900 0.20340 0.06300
N 	N 	0.37420 0.26500 0.31713 -0.24200
N 	N 	0.33800 0.16800 0.25055 -0.09500
N 	N 	0.40870 0.12840 0.26716 -0.10400
C 	C 	0.42800 0.68950 0.80720 0.09300
H 	H 	0.47410 0.68200 0.82700 -0.01300
C 	C 	0.31900 0.74840 0.78044 0.08800
H 	H 	0.27350 0.78780 0.77640 -0.00600
C 	C 	0.29160 0.61610 0.70874 -0.04700
H 	H 	0.32660 0.57870 0.68470 0.04600
H 	H 	0.26380 0.66770 0.68750 0.04200
C 	C 	0.23310 0.54150 0.73270 -0.09700
H 	H 	0.19570 0.58070 0.75410 0.06100
H 	H 	0.20430 0.50900 0.70340 0.06300
N 	N 	0.37420 0.76500 0.81713 -0.24200
N 	N 	0.33800 0.66800 0.75055 -0.09500
N 	N 	0.40870 0.62840 0.76716 -0.10400
C 	C 	0.82200 0.56050 0.80720 0.09300
H 	H 	0.77590 0.56800 0.82700 -0.01300
C 	C 	0.93100 0.50160 0.78044 0.08800
H 	H 	0.97650 0.46220 0.77640 -0.00600
C 	C 	0.95840 0.63390 0.70874 -0.04600
H 	H 	0.92340 0.67130 0.68470 0.04500
H 	H 	0.98620 0.58230 0.68750 0.04200
C 	C 	0.01690 0.70850 0.73270 -0.09800
H 	H 	0.05430 0.66930 0.75410 0.06100
H 	H 	0.04570 0.74100 0.70340 0.06300
N 	N 	0.87580 0.48500 0.81713 -0.24200
N 	N 	0.91200 0.58200 0.75055 -0.09500
N 	N 	0.84130 0.62160 0.76716 -0.10400
C 	C 	0.82200 0.06050 0.30720 0.09300
H 	H 	0.77590 0.06800 0.32700 -0.01300
C 	C 	0.93100 0.00160 0.28044 0.08700
H 	H 	0.97650 0.96220 0.27640 -0.00600
C 	C 	0.95840 0.13390 0.20874 -0.04800
H 	H 	0.92340 0.17130 0.18470 0.04600
H 	H 	0.98620 0.08230 0.18750 0.04200
C 	C 	0.01690 0.20850 0.23270 -0.09500
H 	H 	0.05430 0.16930 0.25410 0.06000
H 	H 	0.04570 0.24100 0.20340 0.06200
N 	N 	0.87580 0.98500 0.31713 -0.24200
N 	N 	0.91200 0.08200 0.25055 -0.09500
N 	N 	0.84130 0.12160 0.26716 -0.10400
C 	C 	0.32200 0.56050 0.30720 0.09300
H 	H 	0.27590 0.56800 0.32700 -0.01300
C 	C 	0.43100 0.50160 0.28044 0.08800
H 	H 	0.47650 0.46220 0.27640 -0.00600
C 	C 	0.45840 0.63390 0.20874 -0.04700
H 	H 	0.42340 0.67130 0.18470 0.04600
H 	H 	0.48620 0.58230 0.18750 0.04200
C 	C 	0.51690 0.70850 0.23270 -0.09700
H 	H 	0.55430 0.66930 0.25410 0.06100
H 	H 	0.54570 0.74100 0.20340 0.06300
N 	N 	0.37580 0.48500 0.31713 -0.24200
N 	N 	0.41200 0.58200 0.25055 -0.09500
N 	N 	0.34130 0.62160 0.26716 -0.10400
C 	C 	0.32200 0.06050 0.80720 0.09300
H 	H 	0.27590 0.06800 0.82700 -0.01300
C 	C 	0.43100 0.00160 0.78044 0.08700
H 	H 	0.47650 0.96220 0.77640 -0.00600
C 	C 	0.45840 0.13390 0.70874 -0.04700
H 	H 	0.42340 0.17130 0.68470 0.04600
H 	H 	0.48620 0.08230 0.68750 0.04200
C 	C 	0.51690 0.20850 0.73270 -0.09700
H 	H 	0.55430 0.16930 0.75410 0.06100
H 	H 	0.54570 0.24100 0.70340 0.06300
N 	N 	0.37580 0.98500 0.81713 -0.24200
N 	N 	0.41200 0.08200 0.75055 -0.09500
N 	N 	0.34130 0.12160 0.76716 -0.10400
C 	C 	0.17800 0.81050 0.05720 0.09300
H 	H 	0.22410 0.81800 0.07700 -0.01300
C 	C 	0.06900 0.75160 0.03044 0.08800
H 	H 	0.02350 0.71220 0.02640 -0.00600
C 	C 	0.04160 0.88390 0.95874 -0.04800
H 	H 	0.07660 0.92130 0.93470 0.04600
H 	H 	0.01380 0.83230 0.93750 0.04200
C 	C 	0.98310 0.95850 0.98270 -0.09600
H 	H 	0.94570 0.91930 0.00410 0.06000
H 	H 	0.95430 0.99100 0.95340 0.06300
N 	N 	0.12420 0.73500 0.06713 -0.24200
N 	N 	0.08800 0.83200 0.00055 -0.09500
N 	N 	0.15870 0.87160 0.01716 -0.10400
C 	C 	0.17800 0.31050 0.55720 0.09300
H 	H 	0.22410 0.31800 0.57700 -0.01300
C 	C 	0.06900 0.25160 0.53044 0.08800
H 	H 	0.02350 0.21220 0.52640 -0.00600
C 	C 	0.04160 0.38390 0.45874 -0.04700
H 	H 	0.07660 0.42130 0.43470 0.04600
H 	H 	0.01380 0.33230 0.43750 0.04200
C 	C 	0.98310 0.45850 0.48270 -0.09700
H 	H 	0.94570 0.41930 0.50410 0.06100
H 	H 	0.95430 0.49100 0.45340 0.06300
N 	N 	0.12420 0.23500 0.56713 -0.24200
N 	N 	0.08800 0.33200 0.50055 -0.09500
N 	N 	0.15870 0.37160 0.51716 -0.10400
C 	C 	0.67800 0.81050 0.55720 0.09300
H 	H 	0.72410 0.81800 0.57700 -0.01300
C 	C 	0.56900 0.75160 0.53044 0.08800
H 	H 	0.52350 0.71220 0.52640 -0.00600
C 	C 	0.54160 0.88390 0.45874 -0.04700
H 	H 	0.57660 0.92130 0.43470 0.04600
H 	H 	0.51380 0.83230 0.43750 0.04200
C 	C 	0.48310 0.95850 0.48270 -0.09700
H 	H 	0.44570 0.91930 0.50410 0.06100
H 	H 	0.45430 0.99100 0.45340 0.06300
N 	N 	0.62420 0.73500 0.56713 -0.24200
N 	N 	0.58800 0.83200 0.50055 -0.09500
N 	N 	0.65870 0.87160 0.51716 -0.10400
C 	C 	0.67800 0.31050 0.05720 0.09300
H 	H 	0.72410 0.31800 0.07700 -0.01300
C 	C 	0.56900 0.25160 0.03044 0.08800
H 	H 	0.52350 0.21220 0.02640 -0.00600
C 	C 	0.54160 0.38390 0.95874 -0.04700
H 	H 	0.57660 0.42130 0.93470 0.04600
H 	H 	0.51380 0.33230 0.93750 0.04200
C 	C 	0.48310 0.45850 0.98270 -0.09700
H 	H 	0.44570 0.41930 0.00410 0.06100
H 	H 	0.45430 0.49100 0.95340 0.06300
N 	N 	0.62420 0.23500 0.06713 -0.24200
N 	N 	0.58800 0.33200 0.00055 -0.09500
N 	N 	0.65870 0.37160 0.01716 -0.10400
C 	C 	0.07200 0.43950 0.05720 0.09300
H 	H 	0.02590 0.43200 0.07700 -0.01300
C 	C 	0.18100 0.49840 0.03044 0.08800
H 	H 	0.22650 0.53780 0.02640 -0.00600
C 	C 	0.20840 0.36610 0.95874 -0.04600
H 	H 	0.17340 0.32870 0.93470 0.04500
H 	H 	0.23620 0.41770 0.93750 0.04200
C 	C 	0.26690 0.29150 0.98270 -0.09900
H 	H 	0.30430 0.33070 0.00410 0.06100
H 	H 	0.29570 0.25900 0.95340 0.06400
N 	N 	0.12580 0.51500 0.06713 -0.24200
N 	N 	0.16200 0.41800 0.00055 -0.09500
N 	N 	0.09130 0.37840 0.01716 -0.10400
C 	C 	0.07200 0.93950 0.55720 0.09300
H 	H 	0.02590 0.93200 0.57700 -0.01300
C 	C 	0.18100 0.99840 0.53044 0.08800
H 	H 	0.22650 0.03780 0.52640 -0.00600
C 	C 	0.20840 0.86610 0.45874 -0.04700
H 	H 	0.17340 0.82870 0.43470 0.04600
H 	H 	0.23620 0.91770 0.43750 0.04200
C 	C 	0.26690 0.79150 0.48270 -0.09700
H 	H 	0.30430 0.83070 0.50410 0.06100
H 	H 	0.29570 0.75900 0.45340 0.06300
N 	N 	0.12580 0.01500 0.56713 -0.24200
N 	N 	0.16200 0.91800 0.50055 -0.09500
N 	N 	0.09130 0.87840 0.51716 -0.10400
C 	C 	0.57200 0.43950 0.55720 0.09300
H 	H 	0.52590 0.43200 0.57700 -0.01300
C 	C 	0.68100 0.49840 0.53044 0.08800
H 	H 	0.72650 0.53780 0.52640 -0.00600
C 	C 	0.70840 0.36610 0.45874 -0.04700
H 	H 	0.67340 0.32870 0.43470 0.04600
H 	H 	0.73620 0.41770 0.43750 0.04200
C 	C 	0.76690 0.29150 0.48270 -0.09700
H 	H 	0.80430 0.33070 0.50410 0.06100
H 	H 	0.79570 0.25900 0.45340 0.06300
N 	N 	0.62580 0.51500 0.56713 -0.24200
N 	N 	0.66200 0.41800 0.50055 -0.09500
N 	N 	0.59130 0.37840 0.51716 -0.10400
C 	C 	0.57200 0.93950 0.05720 0.09300
H 	H 	0.52590 0.93200 0.07700 -0.01300
C 	C 	0.68100 0.99840 0.03044 0.08700
H 	H 	0.72650 0.03780 0.02640 -0.00600
C 	C 	0.70840 0.86610 0.95874 -0.04800
H 	H 	0.67340 0.82870 0.93470 0.04600
H 	H 	0.73620 0.91770 0.93750 0.04200
C 	C 	0.76690 0.79150 0.98270 -0.09500
H 	H 	0.80430 0.83070 0.00410 0.06000
H 	H 	0.79570 0.75900 0.95340 0.06200
N 	N 	0.62580 0.01500 0.06713 -0.24200
N 	N 	0.66200 0.91800 0.00055 -0.09500
N 	N 	0.59130 0.87840 0.01716 -0.10400
C 	C 	0.07200 0.81050 0.19280 0.09300
H 	H 	0.02590 0.81800 0.17300 -0.01300
C 	C 	0.18100 0.75160 0.21956 0.08800
H 	H 	0.22650 0.71220 0.22360 -0.00600
C 	C 	0.20840 0.88390 0.29126 -0.04700
H 	H 	0.17340 0.92130 0.31530 0.04600
H 	H 	0.23620 0.83230 0.31250 0.04200
C 	C 	0.26690 0.95850 0.26730 -0.09700
H 	H 	0.30430 0.91930 0.24590 0.06100
H 	H 	0.29570 0.99100 0.29660 0.06300
N 	N 	0.12580 0.73500 0.18287 -0.24200
N 	N 	0.16200 0.83200 0.24945 -0.09500
N 	N 	0.09130 0.87160 0.23284 -0.10400
C 	C 	0.07200 0.31050 0.69280 0.09300
H 	H 	0.02590 0.31800 0.67300 -0.01300
C 	C 	0.18100 0.25160 0.71956 0.08800
H 	H 	0.22650 0.21220 0.72360 -0.00600
C 	C 	0.20840 0.38390 0.79126 -0.04700
H 	H 	0.17340 0.42130 0.81530 0.04600
H 	H 	0.23620 0.33230 0.81250 0.04200
C 	C 	0.26690 0.45850 0.76730 -0.09700
H 	H 	0.30430 0.41930 0.74590 0.06100
H 	H 	0.29570 0.49100 0.79660 0.06300
N 	N 	0.12580 0.23500 0.68287 -0.24200
N 	N 	0.16200 0.33200 0.74945 -0.09500
N 	N 	0.09130 0.37160 0.73284 -0.10400
C 	C 	0.57200 0.81050 0.69280 0.09300
H 	H 	0.52590 0.81800 0.67300 -0.01300
C 	C 	0.68100 0.75160 0.71956 0.08800
H 	H 	0.72650 0.71220 0.72360 -0.00600
C 	C 	0.70840 0.88390 0.79126 -0.04700
H 	H 	0.67340 0.92130 0.81530 0.04600
H 	H 	0.73620 0.83230 0.81250 0.04200
C 	C 	0.76690 0.95850 0.76730 -0.09700
H 	H 	0.80430 0.91930 0.74590 0.06100
H 	H 	0.79570 0.99100 0.79660 0.06300
N 	N 	0.62580 0.73500 0.68287 -0.24200
N 	N 	0.66200 0.83200 0.74945 -0.09500
N 	N 	0.59130 0.87160 0.73284 -0.10400
C 	C 	0.57200 0.31050 0.19280 0.09300
H 	H 	0.52590 0.31800 0.17300 -0.01300
C 	C 	0.68100 0.25160 0.21956 0.08800
H 	H 	0.72650 0.21220 0.22360 -0.00600
C 	C 	0.70840 0.38390 0.29126 -0.04700
H 	H 	0.67340 0.42130 0.31530 0.04600
H 	H 	0.73620 0.33230 0.31250 0.04200
C 	C 	0.76690 0.45850 0.26730 -0.09700
H 	H 	0.80430 0.41930 0.24590 0.06100
H 	H 	0.79570 0.49100 0.29660 0.06300
N 	N 	0.62580 0.23500 0.18287 -0.24200
N 	N 	0.66200 0.33200 0.24945 -0.09500
N 	N 	0.59130 0.37160 0.23284 -0.10400
C 	C 	0.17800 0.43950 0.19280 0.09300
H 	H 	0.22410 0.43200 0.17300 -0.01300
C 	C 	0.06900 0.49840 0.21956 0.08800
H 	H 	0.02350 0.53780 0.22360 -0.00600
C 	C 	0.04160 0.36610 0.29126 -0.04600
H 	H 	0.07660 0.32870 0.31530 0.04500
H 	H 	0.01380 0.41770 0.31250 0.04200
C 	C 	0.98310 0.29150 0.26730 -0.09800
H 	H 	0.94570 0.33070 0.24590 0.06100
H 	H 	0.95430 0.25900 0.29660 0.06300
N 	N 	0.12420 0.51500 0.18287 -0.24200
N 	N 	0.08800 0.41800 0.24945 -0.09500
N 	N 	0.15870 0.37840 0.23284 -0.10400
C 	C 	0.17800 0.93950 0.69280 0.09300
H 	H 	0.22410 0.93200 0.67300 -0.01300
C 	C 	0.06900 0.99840 0.71956 0.08700
H 	H 	0.02350 0.03780 0.72360 -0.00600
C 	C 	0.04160 0.86610 0.79126 -0.04800
H 	H 	0.07660 0.82870 0.81530 0.04600
H 	H 	0.01380 0.91770 0.81250 0.04200
C 	C 	0.98310 0.79150 0.76730 -0.09500
H 	H 	0.94570 0.83070 0.74590 0.06000
H 	H 	0.95430 0.75900 0.79660 0.06200
N 	N 	0.12420 0.01500 0.68287 -0.24200
N 	N 	0.08800 0.91800 0.74945 -0.09500
N 	N 	0.15870 0.87840 0.73284 -0.10400
C 	C 	0.67800 0.43950 0.69280 0.09300
H 	H 	0.72410 0.43200 0.67300 -0.01300
C 	C 	0.56900 0.49840 0.71956 0.08800
H 	H 	0.52350 0.53780 0.72360 -0.00600
C 	C 	0.54160 0.36610 0.79126 -0.04700
H 	H 	0.57660 0.32870 0.81530 0.04600
H 	H 	0.51380 0.41770 0.81250 0.04200
C 	C 	0.48310 0.29150 0.76730 -0.09700
H 	H 	0.44570 0.33070 0.74590 0.06100
H 	H 	0.45430 0.25900 0.79660 0.06300
N 	N 	0.62420 0.51500 0.68287 -0.24200
N 	N 	0.58800 0.41800 0.74945 -0.09500
N 	N 	0.65870 0.37840 0.73284 -0.10400
C 	C 	0.67800 0.93950 0.19280 0.09300
H 	H 	0.72410 0.93200 0.17300 -0.01300
C 	C 	0.56900 0.99840 0.21956 0.08700
H 	H 	0.52350 0.03780 0.22360 -0.00600
C 	C 	0.54160 0.86610 0.29126 -0.04700
H 	H 	0.57660 0.82870 0.31530 0.04600
H 	H 	0.51380 0.91770 0.31250 0.04200
C 	C 	0.48310 0.79150 0.26730 -0.09700
H 	H 	0.44570 0.83070 0.24590 0.06100
H 	H 	0.45430 0.75900 0.29660 0.06300
N 	N 	0.62420 0.01500 0.18287 -0.24200
N 	N 	0.58800 0.91800 0.24945 -0.09500
N 	N 	0.65870 0.87840 0.23284 -0.10400
Cu	Cu	0.87500 0.37500 0.87500 0.85300
Cu	Cu	0.87500 0.87500 0.37500 0.85300
Cu	Cu	0.37500 0.37500 0.37500 0.85300
Cu	Cu	0.37500 0.87500 0.87500 0.85300
Cu	Cu	0.12500 0.62500 0.12500 0.85300
Cu	Cu	0.12500 0.12500 0.62500 0.85300
Cu	Cu	0.62500 0.62500 0.62500 0.85300
Cu	Cu	0.62500 0.12500 0.12500 0.85300
