data_crystal

_cell_length_a 12.88700
_cell_length_b 17.04300
_cell_length_c 24.79900
_cell_angle_alpha 90.00000
_cell_angle_beta  90.00000
_cell_angle_gamma 90.00000

_symmetry_space_group_name_	'P 1'
_symmetry_space_group_name_H-M	'P 1'

loop_
_symmetry_equiv_pos_as_xyz
  x,y,z

loop_
_atom_site_label
_atom_site_type_symbol
_atom_site_fract_x
_atom_site_fract_y
_atom_site_fract_z
_atom_site_charge
N 	N 	0.08180 0.33820 0.99903 -0.09500
N 	N 	0.12080 0.40860 0.98240 -0.10400
N 	N 	0.98540 0.37432 0.93247 -0.24200
C 	C 	0.20730 0.23380 0.01740 -0.08800
H 	H 	0.23940 0.20400 0.04730 0.06000
H 	H 	0.16660 0.19610 0.99560 0.05800
C 	C 	0.13470 0.29180 0.04080 -0.04100
H 	H 	0.17350 0.32750 0.06490 0.04400
H 	H 	0.08210 0.26400 0.06280 0.04000
C 	C 	0.06050 0.42770 0.94270 0.09600
H 	H 	0.06820 0.47490 0.92280 -0.01200
C 	C 	0.00180 0.31930 0.96900 0.08800
H 	H 	0.96170 0.27290 0.97290 -0.00500
N 	N 	0.08180 0.83820 0.49903 -0.09500
N 	N 	0.12080 0.90860 0.48240 -0.10400
N 	N 	0.98540 0.87432 0.43247 -0.24200
C 	C 	0.20730 0.73380 0.51740 -0.09000
H 	H 	0.23940 0.70400 0.54730 0.06000
H 	H 	0.16660 0.69610 0.49560 0.05800
C 	C 	0.13470 0.79180 0.54080 -0.04000
H 	H 	0.17350 0.82750 0.56490 0.04400
H 	H 	0.08210 0.76400 0.56280 0.04000
C 	C 	0.06050 0.92770 0.44270 0.09600
H 	H 	0.06820 0.97490 0.42280 -0.01200
C 	C 	0.00180 0.81930 0.46900 0.08800
H 	H 	0.96170 0.77290 0.47290 -0.00500
N 	N 	0.58180 0.33820 0.49903 -0.09500
N 	N 	0.62080 0.40860 0.48240 -0.10400
N 	N 	0.48540 0.37432 0.43247 -0.24200
C 	C 	0.70730 0.23380 0.51740 -0.09000
H 	H 	0.73940 0.20400 0.54730 0.06000
H 	H 	0.66660 0.19610 0.49560 0.05800
C 	C 	0.63470 0.29180 0.54080 -0.04000
H 	H 	0.67350 0.32750 0.56490 0.04400
H 	H 	0.58210 0.26400 0.56280 0.04000
C 	C 	0.56050 0.42770 0.44270 0.09600
H 	H 	0.56820 0.47490 0.42280 -0.01200
C 	C 	0.50180 0.31930 0.46900 0.08800
H 	H 	0.46170 0.27290 0.47290 -0.00500
N 	N 	0.58180 0.83820 0.99903 -0.09500
N 	N 	0.62080 0.90860 0.98240 -0.10400
N 	N 	0.48540 0.87432 0.93247 -0.24200
C 	C 	0.70730 0.73380 0.01740 -0.09200
H 	H 	0.73940 0.70400 0.04730 0.06100
H 	H 	0.66660 0.69610 0.99560 0.05900
C 	C 	0.63470 0.79180 0.04080 -0.04000
H 	H 	0.67350 0.82750 0.06490 0.04400
H 	H 	0.58210 0.76400 0.06280 0.04000
C 	C 	0.56050 0.92770 0.94270 0.09600
H 	H 	0.56820 0.97490 0.92280 -0.01200
C 	C 	0.50180 0.81930 0.96900 0.08700
H 	H 	0.46170 0.77290 0.97290 -0.00600
N 	N 	0.66820 0.41180 0.99903 -0.09600
N 	N 	0.62920 0.34140 0.98240 -0.10500
N 	N 	0.76460 0.37568 0.93247 -0.24300
C 	C 	0.54270 0.51620 0.01740 -0.09100
H 	H 	0.51060 0.54600 0.04730 0.05900
H 	H 	0.58340 0.55390 0.99560 0.05700
C 	C 	0.61530 0.45820 0.04080 -0.04100
H 	H 	0.57650 0.42250 0.06490 0.04300
H 	H 	0.66790 0.48600 0.06280 0.03900
C 	C 	0.68950 0.32230 0.94270 0.09500
H 	H 	0.68180 0.27510 0.92280 -0.01300
C 	C 	0.74820 0.43070 0.96900 0.08700
H 	H 	0.78830 0.47710 0.97290 -0.00600
N 	N 	0.66820 0.91180 0.49903 -0.09600
N 	N 	0.62920 0.84140 0.48240 -0.10500
N 	N 	0.76460 0.87568 0.43247 -0.24300
C 	C 	0.54270 0.01620 0.51740 -0.09100
H 	H 	0.51060 0.04600 0.54730 0.05900
H 	H 	0.58340 0.05390 0.49560 0.05700
C 	C 	0.61530 0.95820 0.54080 -0.04100
H 	H 	0.57650 0.92250 0.56490 0.04300
H 	H 	0.66790 0.98600 0.56280 0.03900
C 	C 	0.68950 0.82230 0.44270 0.09500
H 	H 	0.68180 0.77510 0.42280 -0.01300
C 	C 	0.74820 0.93070 0.46900 0.08700
H 	H 	0.78830 0.97710 0.47290 -0.00600
N 	N 	0.16820 0.41180 0.49903 -0.09600
N 	N 	0.12920 0.34140 0.48240 -0.10500
N 	N 	0.26460 0.37568 0.43247 -0.24300
C 	C 	0.04270 0.51620 0.51740 -0.09100
H 	H 	0.01060 0.54600 0.54730 0.05900
H 	H 	0.08340 0.55390 0.49560 0.05700
C 	C 	0.11530 0.45820 0.54080 -0.04100
H 	H 	0.07650 0.42250 0.56490 0.04300
H 	H 	0.16790 0.48600 0.56280 0.03900
C 	C 	0.18950 0.32230 0.44270 0.09500
H 	H 	0.18180 0.27510 0.42280 -0.01300
C 	C 	0.24820 0.43070 0.46900 0.08700
H 	H 	0.28830 0.47710 0.47290 -0.00600
N 	N 	0.16820 0.91180 0.99903 -0.09600
N 	N 	0.12920 0.84140 0.98240 -0.10500
N 	N 	0.26460 0.87568 0.93247 -0.24300
C 	C 	0.04270 0.01620 0.01740 -0.09000
H 	H 	0.01060 0.04600 0.04730 0.05900
H 	H 	0.08340 0.05390 0.99560 0.05700
C 	C 	0.11530 0.95820 0.04080 -0.04200
H 	H 	0.07650 0.92250 0.06490 0.04300
H 	H 	0.16790 0.98600 0.06280 0.03900
C 	C 	0.18950 0.82230 0.94270 0.09500
H 	H 	0.18180 0.77510 0.92280 -0.01300
C 	C 	0.24820 0.93070 0.96900 0.08700
H 	H 	0.28830 0.97710 0.97290 -0.00600
N 	N 	0.66820 0.33820 0.75097 -0.09600
N 	N 	0.62920 0.40860 0.76760 -0.10500
N 	N 	0.76460 0.37432 0.81753 -0.24300
C 	C 	0.54270 0.23380 0.73260 -0.09100
H 	H 	0.51060 0.20400 0.70270 0.05900
H 	H 	0.58340 0.19610 0.75440 0.05700
C 	C 	0.61530 0.29180 0.70920 -0.04100
H 	H 	0.57650 0.32750 0.68510 0.04300
H 	H 	0.66790 0.26400 0.68720 0.03900
C 	C 	0.68950 0.42770 0.80730 0.09500
H 	H 	0.68180 0.47490 0.82720 -0.01300
C 	C 	0.74820 0.31930 0.78100 0.08700
H 	H 	0.78830 0.27290 0.77710 -0.00600
N 	N 	0.66820 0.83820 0.25097 -0.09600
N 	N 	0.62920 0.90860 0.26760 -0.10500
N 	N 	0.76460 0.87432 0.31753 -0.24300
C 	C 	0.54270 0.73380 0.23260 -0.09100
H 	H 	0.51060 0.70400 0.20270 0.05900
H 	H 	0.58340 0.69610 0.25440 0.05700
C 	C 	0.61530 0.79180 0.20920 -0.04100
H 	H 	0.57650 0.82750 0.18510 0.04300
H 	H 	0.66790 0.76400 0.18720 0.03900
C 	C 	0.68950 0.92770 0.30730 0.09500
H 	H 	0.68180 0.97490 0.32720 -0.01300
C 	C 	0.74820 0.81930 0.28100 0.08700
H 	H 	0.78830 0.77290 0.27710 -0.00600
N 	N 	0.16820 0.33820 0.25097 -0.09600
N 	N 	0.12920 0.40860 0.26760 -0.10500
N 	N 	0.26460 0.37432 0.31753 -0.24300
C 	C 	0.04270 0.23380 0.23260 -0.09100
H 	H 	0.01060 0.20400 0.20270 0.05900
H 	H 	0.08340 0.19610 0.25440 0.05700
C 	C 	0.11530 0.29180 0.20920 -0.04100
H 	H 	0.07650 0.32750 0.18510 0.04300
H 	H 	0.16790 0.26400 0.18720 0.03900
C 	C 	0.18950 0.42770 0.30730 0.09500
H 	H 	0.18180 0.47490 0.32720 -0.01300
C 	C 	0.24820 0.31930 0.28100 0.08700
H 	H 	0.28830 0.27290 0.27710 -0.00600
N 	N 	0.16820 0.83820 0.75097 -0.09600
N 	N 	0.12920 0.90860 0.76760 -0.10500
N 	N 	0.26460 0.87432 0.81753 -0.24300
C 	C 	0.04270 0.73380 0.73260 -0.09100
H 	H 	0.01060 0.70400 0.70270 0.05900
H 	H 	0.08340 0.69610 0.75440 0.05700
C 	C 	0.11530 0.79180 0.70920 -0.04100
H 	H 	0.07650 0.82750 0.68510 0.04300
H 	H 	0.16790 0.76400 0.68720 0.03900
C 	C 	0.18950 0.92770 0.80730 0.09500
H 	H 	0.18180 0.97490 0.82720 -0.01300
C 	C 	0.24820 0.81930 0.78100 0.08700
H 	H 	0.28830 0.77290 0.77710 -0.00600
N 	N 	0.08180 0.41180 0.75097 -0.09600
N 	N 	0.12080 0.34140 0.76760 -0.10500
N 	N 	0.98540 0.37568 0.81753 -0.24300
C 	C 	0.20730 0.51620 0.73260 -0.09100
H 	H 	0.23940 0.54600 0.70270 0.05900
H 	H 	0.16660 0.55390 0.75440 0.05700
C 	C 	0.13470 0.45820 0.70920 -0.04100
H 	H 	0.17350 0.42250 0.68510 0.04300
H 	H 	0.08210 0.48600 0.68720 0.03900
C 	C 	0.06050 0.32230 0.80730 0.09500
H 	H 	0.06820 0.27510 0.82720 -0.01300
C 	C 	0.00180 0.43070 0.78100 0.08700
H 	H 	0.96170 0.47710 0.77710 -0.00600
N 	N 	0.08180 0.91180 0.25097 -0.09600
N 	N 	0.12080 0.84140 0.26760 -0.10500
N 	N 	0.98540 0.87568 0.31753 -0.24300
C 	C 	0.20730 0.01620 0.23260 -0.09000
H 	H 	0.23940 0.04600 0.20270 0.05900
H 	H 	0.16660 0.05390 0.25440 0.05700
C 	C 	0.13470 0.95820 0.20920 -0.04200
H 	H 	0.17350 0.92250 0.18510 0.04300
H 	H 	0.08210 0.98600 0.18720 0.03900
C 	C 	0.06050 0.82230 0.30730 0.09500
H 	H 	0.06820 0.77510 0.32720 -0.01300
C 	C 	0.00180 0.93070 0.28100 0.08700
H 	H 	0.96170 0.97710 0.27710 -0.00600
N 	N 	0.58180 0.41180 0.25097 -0.09600
N 	N 	0.62080 0.34140 0.26760 -0.10500
N 	N 	0.48540 0.37568 0.31753 -0.24300
C 	C 	0.70730 0.51620 0.23260 -0.09100
H 	H 	0.73940 0.54600 0.20270 0.05900
H 	H 	0.66660 0.55390 0.25440 0.05700
C 	C 	0.63470 0.45820 0.20920 -0.04100
H 	H 	0.67350 0.42250 0.18510 0.04300
H 	H 	0.58210 0.48600 0.18720 0.03900
C 	C 	0.56050 0.32230 0.30730 0.09500
H 	H 	0.56820 0.27510 0.32720 -0.01300
C 	C 	0.50180 0.43070 0.28100 0.08700
H 	H 	0.46170 0.47710 0.27710 -0.00600
N 	N 	0.58180 0.91180 0.75097 -0.09600
N 	N 	0.62080 0.84140 0.76760 -0.10500
N 	N 	0.48540 0.87568 0.81753 -0.24300
C 	C 	0.70730 0.01620 0.73260 -0.09200
H 	H 	0.73940 0.04600 0.70270 0.06000
H 	H 	0.66660 0.05390 0.75440 0.05800
C 	C 	0.63470 0.95820 0.70920 -0.04000
H 	H 	0.67350 0.92250 0.68510 0.04300
H 	H 	0.58210 0.98600 0.68720 0.03900
C 	C 	0.56050 0.82230 0.80730 0.09500
H 	H 	0.56820 0.77510 0.82720 -0.01300
C 	C 	0.50180 0.93070 0.78100 0.08700
H 	H 	0.46170 0.97710 0.77710 -0.00600
N 	N 	0.91820 0.66180 0.00097 -0.09600
N 	N 	0.87920 0.59140 0.01760 -0.10500
N 	N 	0.01460 0.62568 0.06753 -0.24300
C 	C 	0.79270 0.76620 0.98260 -0.08900
H 	H 	0.76060 0.79600 0.95270 0.05900
H 	H 	0.83340 0.80390 0.00440 0.05700
C 	C 	0.86530 0.70820 0.95920 -0.04200
H 	H 	0.82650 0.67250 0.93510 0.04300
H 	H 	0.91790 0.73600 0.93720 0.03900
C 	C 	0.93950 0.57230 0.05730 0.09500
H 	H 	0.93180 0.52510 0.07720 -0.01300
C 	C 	0.99820 0.68070 0.03100 0.08700
H 	H 	0.03830 0.72710 0.02710 -0.00600
N 	N 	0.91820 0.16180 0.50097 -0.09600
N 	N 	0.87920 0.09140 0.51760 -0.10500
N 	N 	0.01460 0.12568 0.56753 -0.24300
C 	C 	0.79270 0.26620 0.48260 -0.09100
H 	H 	0.76060 0.29600 0.45270 0.05900
H 	H 	0.83340 0.30390 0.50440 0.05700
C 	C 	0.86530 0.20820 0.45920 -0.04100
H 	H 	0.82650 0.17250 0.43510 0.04300
H 	H 	0.91790 0.23600 0.43720 0.03900
C 	C 	0.93950 0.07230 0.55730 0.09500
H 	H 	0.93180 0.02510 0.57720 -0.01300
C 	C 	0.99820 0.18070 0.53100 0.08700
H 	H 	0.03830 0.22710 0.52710 -0.00600
N 	N 	0.41820 0.66180 0.50097 -0.09600
N 	N 	0.37920 0.59140 0.51760 -0.10500
N 	N 	0.51460 0.62568 0.56753 -0.24300
C 	C 	0.29270 0.76620 0.48260 -0.09100
H 	H 	0.26060 0.79600 0.45270 0.05900
H 	H 	0.33340 0.80390 0.50440 0.05700
C 	C 	0.36530 0.70820 0.45920 -0.04100
H 	H 	0.32650 0.67250 0.43510 0.04300
H 	H 	0.41790 0.73600 0.43720 0.03900
C 	C 	0.43950 0.57230 0.55730 0.09500
H 	H 	0.43180 0.52510 0.57720 -0.01300
C 	C 	0.49820 0.68070 0.53100 0.08700
H 	H 	0.53830 0.72710 0.52710 -0.00600
N 	N 	0.41820 0.16180 0.00097 -0.09600
N 	N 	0.37920 0.09140 0.01760 -0.10500
N 	N 	0.51460 0.12568 0.06753 -0.24300
C 	C 	0.29270 0.26620 0.98260 -0.09300
H 	H 	0.26060 0.29600 0.95270 0.06000
H 	H 	0.33340 0.30390 0.00440 0.05800
C 	C 	0.36530 0.20820 0.95920 -0.04100
H 	H 	0.32650 0.17250 0.93510 0.04300
H 	H 	0.41790 0.23600 0.93720 0.03900
C 	C 	0.43950 0.07230 0.05730 0.09500
H 	H 	0.43180 0.02510 0.07720 -0.01300
C 	C 	0.49820 0.18070 0.03100 0.08700
H 	H 	0.53830 0.22710 0.02710 -0.00600
N 	N 	0.33180 0.58820 0.00097 -0.09600
N 	N 	0.37080 0.65860 0.01760 -0.10500
N 	N 	0.23540 0.62432 0.06753 -0.24300
C 	C 	0.45730 0.48380 0.98260 -0.09100
H 	H 	0.48940 0.45400 0.95270 0.05900
H 	H 	0.41660 0.44610 0.00440 0.05700
C 	C 	0.38470 0.54180 0.95920 -0.04100
H 	H 	0.42350 0.57750 0.93510 0.04300
H 	H 	0.33210 0.51400 0.93720 0.03900
C 	C 	0.31050 0.67770 0.05730 0.09500
H 	H 	0.31820 0.72490 0.07720 -0.01300
C 	C 	0.25180 0.56930 0.03100 0.08700
H 	H 	0.21170 0.52290 0.02710 -0.00600
N 	N 	0.33180 0.08820 0.50097 -0.09600
N 	N 	0.37080 0.15860 0.51760 -0.10500
N 	N 	0.23540 0.12432 0.56753 -0.24300
C 	C 	0.45730 0.98380 0.48260 -0.09100
H 	H 	0.48940 0.95400 0.45270 0.05900
H 	H 	0.41660 0.94610 0.50440 0.05700
C 	C 	0.38470 0.04180 0.45920 -0.04100
H 	H 	0.42350 0.07750 0.43510 0.04300
H 	H 	0.33210 0.01400 0.43720 0.03900
C 	C 	0.31050 0.17770 0.55730 0.09500
H 	H 	0.31820 0.22490 0.57720 -0.01300
C 	C 	0.25180 0.06930 0.53100 0.08700
H 	H 	0.21170 0.02290 0.52710 -0.00600
N 	N 	0.83180 0.58820 0.50097 -0.09600
N 	N 	0.87080 0.65860 0.51760 -0.10500
N 	N 	0.73540 0.62432 0.56753 -0.24300
C 	C 	0.95730 0.48380 0.48260 -0.09100
H 	H 	0.98940 0.45400 0.45270 0.05900
H 	H 	0.91660 0.44610 0.50440 0.05700
C 	C 	0.88470 0.54180 0.45920 -0.04100
H 	H 	0.92350 0.57750 0.43510 0.04300
H 	H 	0.83210 0.51400 0.43720 0.03900
C 	C 	0.81050 0.67770 0.55730 0.09500
H 	H 	0.81820 0.72490 0.57720 -0.01300
C 	C 	0.75180 0.56930 0.53100 0.08700
H 	H 	0.71170 0.52290 0.52710 -0.00600
N 	N 	0.83180 0.08820 0.00097 -0.09600
N 	N 	0.87080 0.15860 0.01760 -0.10500
N 	N 	0.73540 0.12432 0.06753 -0.24300
C 	C 	0.95730 0.98380 0.98260 -0.09000
H 	H 	0.98940 0.95400 0.95270 0.05900
H 	H 	0.91660 0.94610 0.00440 0.05700
C 	C 	0.88470 0.04180 0.95920 -0.04200
H 	H 	0.92350 0.07750 0.93510 0.04300
H 	H 	0.83210 0.01400 0.93720 0.03900
C 	C 	0.81050 0.17770 0.05730 0.09500
H 	H 	0.81820 0.22490 0.07720 -0.01300
C 	C 	0.75180 0.06930 0.03100 0.08700
H 	H 	0.71170 0.02290 0.02710 -0.00600
N 	N 	0.33180 0.66180 0.24903 -0.09600
N 	N 	0.37080 0.59140 0.23240 -0.10500
N 	N 	0.23540 0.62568 0.18247 -0.24300
C 	C 	0.45730 0.76620 0.26740 -0.09100
H 	H 	0.48940 0.79600 0.29730 0.05900
H 	H 	0.41660 0.80390 0.24560 0.05700
C 	C 	0.38470 0.70820 0.29080 -0.04100
H 	H 	0.42350 0.67250 0.31490 0.04300
H 	H 	0.33210 0.73600 0.31280 0.03900
C 	C 	0.31050 0.57230 0.19270 0.09500
H 	H 	0.31820 0.52510 0.17280 -0.01300
C 	C 	0.25180 0.68070 0.21900 0.08700
H 	H 	0.21170 0.72710 0.22290 -0.00600
N 	N 	0.33180 0.16180 0.74903 -0.09600
N 	N 	0.37080 0.09140 0.73240 -0.10500
N 	N 	0.23540 0.12568 0.68247 -0.24300
C 	C 	0.45730 0.26620 0.76740 -0.09100
H 	H 	0.48940 0.29600 0.79730 0.05900
H 	H 	0.41660 0.30390 0.74560 0.05700
C 	C 	0.38470 0.20820 0.79080 -0.04100
H 	H 	0.42350 0.17250 0.81490 0.04300
H 	H 	0.33210 0.23600 0.81280 0.03900
C 	C 	0.31050 0.07230 0.69270 0.09500
H 	H 	0.31820 0.02510 0.67280 -0.01300
C 	C 	0.25180 0.18070 0.71900 0.08700
H 	H 	0.21170 0.22710 0.72290 -0.00600
N 	N 	0.83180 0.66180 0.74903 -0.09600
N 	N 	0.87080 0.59140 0.73240 -0.10500
N 	N 	0.73540 0.62568 0.68247 -0.24300
C 	C 	0.95730 0.76620 0.76740 -0.09100
H 	H 	0.98940 0.79600 0.79730 0.05900
H 	H 	0.91660 0.80390 0.74560 0.05700
C 	C 	0.88470 0.70820 0.79080 -0.04100
H 	H 	0.92350 0.67250 0.81490 0.04300
H 	H 	0.83210 0.73600 0.81280 0.03900
C 	C 	0.81050 0.57230 0.69270 0.09500
H 	H 	0.81820 0.52510 0.67280 -0.01300
C 	C 	0.75180 0.68070 0.71900 0.08700
H 	H 	0.71170 0.72710 0.72290 -0.00600
N 	N 	0.83180 0.16180 0.24903 -0.09600
N 	N 	0.87080 0.09140 0.23240 -0.10500
N 	N 	0.73540 0.12568 0.18247 -0.24300
C 	C 	0.95730 0.26620 0.26740 -0.09100
H 	H 	0.98940 0.29600 0.29730 0.05900
H 	H 	0.91660 0.30390 0.24560 0.05700
C 	C 	0.88470 0.20820 0.29080 -0.04100
H 	H 	0.92350 0.17250 0.31490 0.04300
H 	H 	0.83210 0.23600 0.31280 0.03900
C 	C 	0.81050 0.07230 0.19270 0.09500
H 	H 	0.81820 0.02510 0.17280 -0.01300
C 	C 	0.75180 0.18070 0.21900 0.08700
H 	H 	0.71170 0.22710 0.22290 -0.00600
N 	N 	0.91820 0.58820 0.24903 -0.09600
N 	N 	0.87920 0.65860 0.23240 -0.10500
N 	N 	0.01460 0.62432 0.18247 -0.24300
C 	C 	0.79270 0.48380 0.26740 -0.09100
H 	H 	0.76060 0.45400 0.29730 0.05900
H 	H 	0.83340 0.44610 0.24560 0.05700
C 	C 	0.86530 0.54180 0.29080 -0.04100
H 	H 	0.82650 0.57750 0.31490 0.04300
H 	H 	0.91790 0.51400 0.31280 0.03900
C 	C 	0.93950 0.67770 0.19270 0.09500
H 	H 	0.93180 0.72490 0.17280 -0.01300
C 	C 	0.99820 0.56930 0.21900 0.08700
H 	H 	0.03830 0.52290 0.22290 -0.00600
N 	N 	0.91820 0.08820 0.74903 -0.09600
N 	N 	0.87920 0.15860 0.73240 -0.10500
N 	N 	0.01460 0.12432 0.68247 -0.24300
C 	C 	0.79270 0.98380 0.76740 -0.09000
H 	H 	0.76060 0.95400 0.79730 0.05900
H 	H 	0.83340 0.94610 0.74560 0.05700
C 	C 	0.86530 0.04180 0.79080 -0.04200
H 	H 	0.82650 0.07750 0.81490 0.04300
H 	H 	0.91790 0.01400 0.81280 0.03900
C 	C 	0.93950 0.17770 0.69270 0.09500
H 	H 	0.93180 0.22490 0.67280 -0.01300
C 	C 	0.99820 0.06930 0.71900 0.08700
H 	H 	0.03830 0.02290 0.72290 -0.00600
N 	N 	0.41820 0.58820 0.74903 -0.09600
N 	N 	0.37920 0.65860 0.73240 -0.10500
N 	N 	0.51460 0.62432 0.68247 -0.24300
C 	C 	0.29270 0.48380 0.76740 -0.09100
H 	H 	0.26060 0.45400 0.79730 0.05900
H 	H 	0.33340 0.44610 0.74560 0.05700
C 	C 	0.36530 0.54180 0.79080 -0.04100
H 	H 	0.32650 0.57750 0.81490 0.04300
H 	H 	0.41790 0.51400 0.81280 0.03900
C 	C 	0.43950 0.67770 0.69270 0.09500
H 	H 	0.43180 0.72490 0.67280 -0.01300
C 	C 	0.49820 0.56930 0.71900 0.08700
H 	H 	0.53830 0.52290 0.72290 -0.00600
N 	N 	0.41820 0.08820 0.24903 -0.09600
N 	N 	0.37920 0.15860 0.23240 -0.10500
N 	N 	0.51460 0.12432 0.18247 -0.24300
C 	C 	0.29270 0.98380 0.26740 -0.09200
H 	H 	0.26060 0.95400 0.29730 0.06000
H 	H 	0.33340 0.94610 0.24560 0.05800
C 	C 	0.36530 0.04180 0.29080 -0.04000
H 	H 	0.32650 0.07750 0.31490 0.04300
H 	H 	0.41790 0.01400 0.31280 0.03900
C 	C 	0.43950 0.17770 0.19270 0.09500
H 	H 	0.43180 0.22490 0.17280 -0.01300
C 	C 	0.49820 0.06930 0.21900 0.08700
H 	H 	0.53830 0.02290 0.22290 -0.00600
Cu	Cu	0.87500 0.37500 0.87500 0.85300
Cu	Cu	0.87500 0.87500 0.37500 0.85300
Cu	Cu	0.37500 0.37500 0.37500 0.85300
Cu	Cu	0.37500 0.87500 0.87500 0.85300
Cu	Cu	0.12500 0.62500 0.12500 0.85300
Cu	Cu	0.12500 0.12500 0.62500 0.85300
Cu	Cu	0.62500 0.62500 0.62500 0.85300
Cu	Cu	0.62500 0.12500 0.12500 0.85300
