data_crystal

_cell_length_a 12.90100
_cell_length_b 17.06100
_cell_length_c 24.71900
_cell_angle_alpha 90.00000
_cell_angle_beta  90.00000
_cell_angle_gamma 90.00000

_symmetry_space_group_name_	'P 1'
_symmetry_space_group_name_H-M	'P 1'

loop_
_symmetry_equiv_pos_as_xyz
  x,y,z

loop_
_atom_site_label
_atom_site_type_symbol
_atom_site_fract_x
_atom_site_fract_y
_atom_site_fract_z
_atom_site_charge
N 	N 	0.26501 0.87581 0.93262 -0.24200
N 	N 	0.16752 0.91181 0.99923 -0.09400
C 	C 	0.18983 0.82220 0.94254 0.08900
H 	H 	0.18230 0.77510 0.92240 -0.01300
N 	N 	0.12818 0.84165 0.98285 -0.10500
C 	C 	0.24832 0.93125 0.96920 0.08100
H 	H 	0.28820 0.97770 0.97320 -0.00500
C 	C 	0.11628 0.95815 0.04131 -0.05700
H 	H 	0.07680 0.92280 0.06550 0.04400
H 	H 	0.16930 0.98530 0.06340 0.04200
C 	C 	0.04310 0.01834 0.01689 -0.04000
H 	H 	0.01170 0.04950 0.04640 0.03100
H 	H 	0.08350 0.05460 0.99380 0.02600
C 	C 	0.25450 0.22990 0.97510 -0.04100
H 	H 	0.22410 0.26300 0.94630 0.02800
H 	H 	0.21290 0.18130 0.97720 0.02700
N 	N 	0.26501 0.37581 0.43262 -0.24200
N 	N 	0.16752 0.41181 0.49923 -0.09400
C 	C 	0.18983 0.32220 0.44254 0.08900
H 	H 	0.18230 0.27510 0.42240 -0.01300
N 	N 	0.12818 0.34165 0.48285 -0.10500
C 	C 	0.24832 0.43125 0.46920 0.08100
H 	H 	0.28820 0.47770 0.47320 -0.00500
C 	C 	0.11628 0.45815 0.54131 -0.05700
H 	H 	0.07680 0.42280 0.56550 0.04400
H 	H 	0.16930 0.48530 0.56340 0.04200
C 	C 	0.04310 0.51834 0.51689 -0.04000
H 	H 	0.01170 0.54950 0.54640 0.03100
H 	H 	0.08350 0.55460 0.49380 0.02600
C 	C 	0.25450 0.72990 0.47510 -0.04000
H 	H 	0.22410 0.76300 0.44630 0.02700
H 	H 	0.21290 0.68130 0.47720 0.02700
N 	N 	0.76501 0.87581 0.43262 -0.24100
N 	N 	0.66752 0.91181 0.49923 -0.09300
C 	C 	0.68983 0.82220 0.44254 0.09000
H 	H 	0.68230 0.77510 0.42240 -0.01200
N 	N 	0.62818 0.84165 0.48285 -0.10400
C 	C 	0.74832 0.93125 0.46920 0.08200
H 	H 	0.78820 0.97770 0.47320 -0.00400
C 	C 	0.61628 0.95815 0.54131 -0.05600
H 	H 	0.57680 0.92280 0.56550 0.04500
H 	H 	0.66930 0.98530 0.56340 0.04300
C 	C 	0.54310 0.01834 0.51689 -0.03800
H 	H 	0.51170 0.04950 0.54640 0.03200
H 	H 	0.58350 0.05460 0.49380 0.02700
C 	C 	0.75450 0.22990 0.47510 -0.03900
H 	H 	0.72410 0.26300 0.44630 0.02800
H 	H 	0.71290 0.18130 0.47720 0.02800
N 	N 	0.76501 0.37581 0.93262 -0.24100
N 	N 	0.66752 0.41181 0.99923 -0.09300
C 	C 	0.68983 0.32220 0.94254 0.09000
H 	H 	0.68230 0.27510 0.92240 -0.01200
N 	N 	0.62818 0.34165 0.98285 -0.10400
C 	C 	0.74832 0.43125 0.96920 0.08200
H 	H 	0.78820 0.47770 0.97320 -0.00400
C 	C 	0.61628 0.45815 0.04131 -0.05600
H 	H 	0.57680 0.42280 0.06550 0.04500
H 	H 	0.66930 0.48530 0.06340 0.04300
C 	C 	0.54310 0.51834 0.01689 -0.03800
H 	H 	0.51170 0.54950 0.04640 0.03100
H 	H 	0.58350 0.55460 0.99380 0.02700
C 	C 	0.75450 0.72990 0.97510 -0.03700
H 	H 	0.72410 0.76300 0.94630 0.02800
H 	H 	0.71290 0.68130 0.97720 0.02800
N 	N 	0.48499 0.87419 0.93262 -0.24100
N 	N 	0.58248 0.83819 0.99923 -0.09300
C 	C 	0.56017 0.92780 0.94254 0.09000
H 	H 	0.56770 0.97490 0.92240 -0.01200
N 	N 	0.62182 0.90835 0.98285 -0.10400
C 	C 	0.50168 0.81875 0.96920 0.08200
H 	H 	0.46180 0.77230 0.97320 -0.00400
C 	C 	0.63372 0.79185 0.04131 -0.05600
H 	H 	0.67320 0.82720 0.06550 0.04500
H 	H 	0.58070 0.76470 0.06340 0.04300
C 	C 	0.70690 0.73166 0.01689 -0.03800
H 	H 	0.73830 0.70050 0.04640 0.03100
H 	H 	0.66650 0.69540 0.99380 0.02700
C 	C 	0.49550 0.52010 0.97510 -0.03900
H 	H 	0.52590 0.48700 0.94630 0.02800
H 	H 	0.53710 0.56870 0.97720 0.02800
N 	N 	0.48499 0.37419 0.43262 -0.24100
N 	N 	0.58248 0.33819 0.49923 -0.09300
C 	C 	0.56017 0.42780 0.44254 0.09000
H 	H 	0.56770 0.47490 0.42240 -0.01200
N 	N 	0.62182 0.40835 0.48285 -0.10400
C 	C 	0.50168 0.31875 0.46920 0.08200
H 	H 	0.46180 0.27230 0.47320 -0.00400
C 	C 	0.63372 0.29185 0.54131 -0.05600
H 	H 	0.67320 0.32720 0.56550 0.04500
H 	H 	0.58070 0.26470 0.56340 0.04300
C 	C 	0.70690 0.23166 0.51689 -0.03800
H 	H 	0.73830 0.20050 0.54640 0.03200
H 	H 	0.66650 0.19540 0.49380 0.02700
C 	C 	0.49550 0.02010 0.47510 -0.03900
H 	H 	0.52590 0.98700 0.44630 0.02800
H 	H 	0.53710 0.06870 0.47720 0.02800
N 	N 	0.98499 0.87419 0.43262 -0.24100
N 	N 	0.08248 0.83819 0.49923 -0.09300
C 	C 	0.06017 0.92780 0.44254 0.09000
H 	H 	0.06770 0.97490 0.42240 -0.01200
N 	N 	0.12182 0.90835 0.48285 -0.10400
C 	C 	0.00168 0.81875 0.46920 0.08200
H 	H 	0.96180 0.77230 0.47320 -0.00400
C 	C 	0.13372 0.79185 0.54131 -0.05600
H 	H 	0.17320 0.82720 0.56550 0.04500
H 	H 	0.08070 0.76470 0.56340 0.04300
C 	C 	0.20690 0.73166 0.51689 -0.03800
H 	H 	0.23830 0.70050 0.54640 0.03200
H 	H 	0.16650 0.69540 0.49380 0.02700
C 	C 	0.99550 0.52010 0.47510 -0.03900
H 	H 	0.02590 0.48700 0.44630 0.02800
H 	H 	0.03710 0.56870 0.47720 0.02800
N 	N 	0.98499 0.37419 0.93262 -0.24100
N 	N 	0.08248 0.33819 0.99923 -0.09300
C 	C 	0.06017 0.42780 0.94254 0.08900
H 	H 	0.06770 0.47490 0.92240 -0.01200
N 	N 	0.12182 0.40835 0.98285 -0.10400
C 	C 	0.00168 0.31875 0.96920 0.08100
H 	H 	0.96180 0.27230 0.97320 -0.00400
C 	C 	0.13372 0.29185 0.04131 -0.05600
H 	H 	0.17320 0.32720 0.06550 0.04500
H 	H 	0.08070 0.26470 0.06340 0.04300
C 	C 	0.20690 0.23166 0.01689 -0.03900
H 	H 	0.23830 0.20050 0.04640 0.03200
H 	H 	0.16650 0.19540 0.99380 0.02700
C 	C 	0.99550 0.02010 0.97510 -0.03800
H 	H 	0.02590 0.98700 0.94630 0.02800
H 	H 	0.03710 0.06870 0.97720 0.02800
N 	N 	0.48499 0.87581 0.81738 -0.24100
N 	N 	0.58248 0.91181 0.75077 -0.09300
C 	C 	0.56017 0.82220 0.80746 0.09000
H 	H 	0.56770 0.77510 0.82760 -0.01200
N 	N 	0.62182 0.84165 0.76715 -0.10400
C 	C 	0.50168 0.93125 0.78080 0.08200
H 	H 	0.46180 0.97770 0.77680 -0.00400
C 	C 	0.63372 0.95815 0.70869 -0.05600
H 	H 	0.67320 0.92280 0.68450 0.04500
H 	H 	0.58070 0.98530 0.68660 0.04300
C 	C 	0.70690 0.01834 0.73311 -0.03800
H 	H 	0.73830 0.04950 0.70360 0.03100
H 	H 	0.66650 0.05460 0.75620 0.02600
C 	C 	0.49550 0.22990 0.77490 -0.03900
H 	H 	0.52590 0.26300 0.80370 0.02800
H 	H 	0.53710 0.18130 0.77280 0.02800
N 	N 	0.48499 0.37581 0.31738 -0.24100
N 	N 	0.58248 0.41181 0.25077 -0.09300
C 	C 	0.56017 0.32220 0.30746 0.09000
H 	H 	0.56770 0.27510 0.32760 -0.01200
N 	N 	0.62182 0.34165 0.26715 -0.10400
C 	C 	0.50168 0.43125 0.28080 0.08200
H 	H 	0.46180 0.47770 0.27680 -0.00400
C 	C 	0.63372 0.45815 0.20869 -0.05600
H 	H 	0.67320 0.42280 0.18450 0.04500
H 	H 	0.58070 0.48530 0.18660 0.04300
C 	C 	0.70690 0.51834 0.23311 -0.03800
H 	H 	0.73830 0.54950 0.20360 0.03200
H 	H 	0.66650 0.55460 0.25620 0.02700
C 	C 	0.49550 0.72990 0.27490 -0.03900
H 	H 	0.52590 0.76300 0.30370 0.02800
H 	H 	0.53710 0.68130 0.27280 0.02800
N 	N 	0.98499 0.87581 0.31738 -0.24100
N 	N 	0.08248 0.91181 0.25077 -0.09300
C 	C 	0.06017 0.82220 0.30746 0.09000
H 	H 	0.06770 0.77510 0.32760 -0.01200
N 	N 	0.12182 0.84165 0.26715 -0.10400
C 	C 	0.00168 0.93125 0.28080 0.08200
H 	H 	0.96180 0.97770 0.27680 -0.00500
C 	C 	0.13372 0.95815 0.20869 -0.05600
H 	H 	0.17320 0.92280 0.18450 0.04500
H 	H 	0.08070 0.98530 0.18660 0.04300
C 	C 	0.20690 0.01834 0.23311 -0.03900
H 	H 	0.23830 0.04950 0.20360 0.03200
H 	H 	0.16650 0.05460 0.25620 0.02700
C 	C 	0.99550 0.22990 0.27490 -0.03800
H 	H 	0.02590 0.26300 0.30370 0.02800
H 	H 	0.03710 0.18130 0.27280 0.02800
N 	N 	0.98499 0.37581 0.81738 -0.24100
N 	N 	0.08248 0.41181 0.75077 -0.09300
C 	C 	0.06017 0.32220 0.80746 0.09000
H 	H 	0.06770 0.27510 0.82760 -0.01200
N 	N 	0.12182 0.34165 0.76715 -0.10400
C 	C 	0.00168 0.43125 0.78080 0.08200
H 	H 	0.96180 0.47770 0.77680 -0.00400
C 	C 	0.13372 0.45815 0.70869 -0.05600
H 	H 	0.17320 0.42280 0.68450 0.04500
H 	H 	0.08070 0.48530 0.68660 0.04300
C 	C 	0.20690 0.51834 0.73311 -0.03800
H 	H 	0.23830 0.54950 0.70360 0.03200
H 	H 	0.16650 0.55460 0.75620 0.02700
C 	C 	0.99550 0.72990 0.77490 -0.03900
H 	H 	0.02590 0.76300 0.80370 0.02800
H 	H 	0.03710 0.68130 0.77280 0.02800
N 	N 	0.26501 0.87419 0.81738 -0.24100
N 	N 	0.16752 0.83819 0.75077 -0.09300
C 	C 	0.18983 0.92780 0.80746 0.09000
H 	H 	0.18230 0.97490 0.82760 -0.01200
N 	N 	0.12818 0.90835 0.76715 -0.10400
C 	C 	0.24832 0.81875 0.78080 0.08200
H 	H 	0.28820 0.77230 0.77680 -0.00400
C 	C 	0.11628 0.79185 0.70869 -0.05600
H 	H 	0.07680 0.82720 0.68450 0.04500
H 	H 	0.16930 0.76470 0.68660 0.04300
C 	C 	0.04310 0.73166 0.73311 -0.03900
H 	H 	0.01170 0.70050 0.70360 0.03200
H 	H 	0.08350 0.69540 0.75620 0.02700
C 	C 	0.25450 0.52010 0.77490 -0.03900
H 	H 	0.22410 0.48700 0.80370 0.02800
H 	H 	0.21290 0.56870 0.77280 0.02800
N 	N 	0.26501 0.37419 0.31738 -0.24100
N 	N 	0.16752 0.33819 0.25077 -0.09300
C 	C 	0.18983 0.42780 0.30746 0.09000
H 	H 	0.18230 0.47490 0.32760 -0.01200
N 	N 	0.12818 0.40835 0.26715 -0.10400
C 	C 	0.24832 0.31875 0.28080 0.08200
H 	H 	0.28820 0.27230 0.27680 -0.00400
C 	C 	0.11628 0.29185 0.20869 -0.05600
H 	H 	0.07680 0.32720 0.18450 0.04500
H 	H 	0.16930 0.26470 0.18660 0.04300
C 	C 	0.04310 0.23166 0.23311 -0.03800
H 	H 	0.01170 0.20050 0.20360 0.03100
H 	H 	0.08350 0.19540 0.25620 0.02700
C 	C 	0.25450 0.02010 0.27490 -0.04000
H 	H 	0.22410 0.98700 0.30370 0.02900
H 	H 	0.21290 0.06870 0.27280 0.02800
N 	N 	0.76501 0.87419 0.31738 -0.24100
N 	N 	0.66752 0.83819 0.25077 -0.09300
C 	C 	0.68983 0.92780 0.30746 0.09000
H 	H 	0.68230 0.97490 0.32760 -0.01200
N 	N 	0.62818 0.90835 0.26715 -0.10400
C 	C 	0.74832 0.81875 0.28080 0.08200
H 	H 	0.78820 0.77230 0.27680 -0.00400
C 	C 	0.61628 0.79185 0.20869 -0.05600
H 	H 	0.57680 0.82720 0.18450 0.04500
H 	H 	0.66930 0.76470 0.18660 0.04300
C 	C 	0.54310 0.73166 0.23311 -0.03800
H 	H 	0.51170 0.70050 0.20360 0.03200
H 	H 	0.58350 0.69540 0.25620 0.02700
C 	C 	0.75450 0.52010 0.27490 -0.03900
H 	H 	0.72410 0.48700 0.30370 0.02800
H 	H 	0.71290 0.56870 0.27280 0.02800
N 	N 	0.76501 0.37419 0.81738 -0.24100
N 	N 	0.66752 0.33819 0.75077 -0.09300
C 	C 	0.68983 0.42780 0.80746 0.09000
H 	H 	0.68230 0.47490 0.82760 -0.01200
N 	N 	0.62818 0.40835 0.76715 -0.10400
C 	C 	0.74832 0.31875 0.78080 0.08200
H 	H 	0.78820 0.27230 0.77680 -0.00400
C 	C 	0.61628 0.29185 0.70869 -0.05600
H 	H 	0.57680 0.32720 0.68450 0.04500
H 	H 	0.66930 0.26470 0.68660 0.04300
C 	C 	0.54310 0.23166 0.73311 -0.03800
H 	H 	0.51170 0.20050 0.70360 0.03200
H 	H 	0.58350 0.19540 0.75620 0.02700
C 	C 	0.75450 0.02010 0.77490 -0.03800
H 	H 	0.72410 0.98700 0.80370 0.02800
H 	H 	0.71290 0.06870 0.77280 0.02800
N 	N 	0.73499 0.12419 0.06738 -0.24100
N 	N 	0.83248 0.08819 0.00077 -0.09300
C 	C 	0.81017 0.17780 0.05746 0.09000
H 	H 	0.81770 0.22490 0.07760 -0.01200
N 	N 	0.87182 0.15835 0.01715 -0.10400
C 	C 	0.75168 0.06875 0.03080 0.08200
H 	H 	0.71180 0.02230 0.02680 -0.00400
C 	C 	0.88372 0.04185 0.95869 -0.05600
H 	H 	0.92320 0.07720 0.93450 0.04500
H 	H 	0.83070 0.01470 0.93660 0.04300
C 	C 	0.95690 0.98166 0.98311 -0.03900
H 	H 	0.98830 0.95050 0.95360 0.03200
H 	H 	0.91650 0.94540 0.00620 0.02700
C 	C 	0.74550 0.77010 0.02490 -0.04000
H 	H 	0.77590 0.73700 0.05370 0.02900
H 	H 	0.78710 0.81870 0.02280 0.02800
N 	N 	0.73499 0.62419 0.56738 -0.24100
N 	N 	0.83248 0.58819 0.50077 -0.09300
C 	C 	0.81017 0.67780 0.55746 0.09000
H 	H 	0.81770 0.72490 0.57760 -0.01200
N 	N 	0.87182 0.65835 0.51715 -0.10400
C 	C 	0.75168 0.56875 0.53080 0.08200
H 	H 	0.71180 0.52230 0.52680 -0.00400
C 	C 	0.88372 0.54185 0.45869 -0.05600
H 	H 	0.92320 0.57720 0.43450 0.04500
H 	H 	0.83070 0.51470 0.43660 0.04300
C 	C 	0.95690 0.48166 0.48311 -0.03900
H 	H 	0.98830 0.45050 0.45360 0.03200
H 	H 	0.91650 0.44540 0.50620 0.02700
C 	C 	0.74550 0.27010 0.52490 -0.03900
H 	H 	0.77590 0.23700 0.55370 0.02800
H 	H 	0.78710 0.31870 0.52280 0.02800
N 	N 	0.23499 0.12419 0.56738 -0.24100
N 	N 	0.33248 0.08819 0.50077 -0.09300
C 	C 	0.31017 0.17780 0.55746 0.09000
H 	H 	0.31770 0.22490 0.57760 -0.01200
N 	N 	0.37182 0.15835 0.51715 -0.10400
C 	C 	0.25168 0.06875 0.53080 0.08200
H 	H 	0.21180 0.02230 0.52680 -0.00400
C 	C 	0.38372 0.04185 0.45869 -0.05600
H 	H 	0.42320 0.07720 0.43450 0.04500
H 	H 	0.33070 0.01470 0.43660 0.04300
C 	C 	0.45690 0.98166 0.48311 -0.03800
H 	H 	0.48830 0.95050 0.45360 0.03200
H 	H 	0.41650 0.94540 0.50620 0.02700
C 	C 	0.24550 0.77010 0.52490 -0.03900
H 	H 	0.27590 0.73700 0.55370 0.02800
H 	H 	0.28710 0.81870 0.52280 0.02800
N 	N 	0.23499 0.62419 0.06738 -0.24100
N 	N 	0.33248 0.58819 0.00077 -0.09300
C 	C 	0.31017 0.67780 0.05746 0.09000
H 	H 	0.31770 0.72490 0.07760 -0.01200
N 	N 	0.37182 0.65835 0.01715 -0.10400
C 	C 	0.25168 0.56875 0.03080 0.08200
H 	H 	0.21180 0.52230 0.02680 -0.00400
C 	C 	0.38372 0.54185 0.95869 -0.05600
H 	H 	0.42320 0.57720 0.93450 0.04500
H 	H 	0.33070 0.51470 0.93660 0.04300
C 	C 	0.45690 0.48166 0.98311 -0.03800
H 	H 	0.48830 0.45050 0.95360 0.03100
H 	H 	0.41650 0.44540 0.00620 0.02700
C 	C 	0.24550 0.27010 0.02490 -0.03700
H 	H 	0.27590 0.23700 0.05370 0.02800
H 	H 	0.28710 0.31870 0.02280 0.02800
N 	N 	0.51501 0.12581 0.06738 -0.24100
N 	N 	0.41752 0.16181 0.00077 -0.09300
C 	C 	0.43983 0.07220 0.05746 0.09000
H 	H 	0.43230 0.02510 0.07760 -0.01200
N 	N 	0.37818 0.09165 0.01715 -0.10400
C 	C 	0.49832 0.18125 0.03080 0.08200
H 	H 	0.53820 0.22770 0.02680 -0.00400
C 	C 	0.36628 0.20815 0.95869 -0.05600
H 	H 	0.32680 0.17280 0.93450 0.04500
H 	H 	0.41930 0.23530 0.93660 0.04300
C 	C 	0.29310 0.26834 0.98311 -0.03800
H 	H 	0.26170 0.29950 0.95360 0.03100
H 	H 	0.33350 0.30460 0.00620 0.02700
C 	C 	0.50450 0.47990 0.02490 -0.03900
H 	H 	0.47410 0.51300 0.05370 0.02800
H 	H 	0.46290 0.43130 0.02280 0.02800
N 	N 	0.51501 0.62581 0.56738 -0.24100
N 	N 	0.41752 0.66181 0.50077 -0.09300
C 	C 	0.43983 0.57220 0.55746 0.09000
H 	H 	0.43230 0.52510 0.57760 -0.01200
N 	N 	0.37818 0.59165 0.51715 -0.10400
C 	C 	0.49832 0.68125 0.53080 0.08200
H 	H 	0.53820 0.72770 0.52680 -0.00400
C 	C 	0.36628 0.70815 0.45869 -0.05600
H 	H 	0.32680 0.67280 0.43450 0.04500
H 	H 	0.41930 0.73530 0.43660 0.04300
C 	C 	0.29310 0.76834 0.48311 -0.03800
H 	H 	0.26170 0.79950 0.45360 0.03200
H 	H 	0.33350 0.80460 0.50620 0.02700
C 	C 	0.50450 0.97990 0.52490 -0.03900
H 	H 	0.47410 0.01300 0.55370 0.02800
H 	H 	0.46290 0.93130 0.52280 0.02800
N 	N 	0.01501 0.12581 0.56738 -0.24100
N 	N 	0.91752 0.16181 0.50077 -0.09300
C 	C 	0.93983 0.07220 0.55746 0.09000
H 	H 	0.93230 0.02510 0.57760 -0.01200
N 	N 	0.87818 0.09165 0.51715 -0.10400
C 	C 	0.99832 0.18125 0.53080 0.08200
H 	H 	0.03820 0.22770 0.52680 -0.00400
C 	C 	0.86628 0.20815 0.45869 -0.05600
H 	H 	0.82680 0.17280 0.43450 0.04500
H 	H 	0.91930 0.23530 0.43660 0.04300
C 	C 	0.79310 0.26834 0.48311 -0.03800
H 	H 	0.76170 0.29950 0.45360 0.03200
H 	H 	0.83350 0.30460 0.50620 0.02700
C 	C 	0.00450 0.47990 0.52490 -0.03900
H 	H 	0.97410 0.51300 0.55370 0.02800
H 	H 	0.96290 0.43130 0.52280 0.02800
N 	N 	0.01501 0.62581 0.06738 -0.24100
N 	N 	0.91752 0.66181 0.00077 -0.09300
C 	C 	0.93983 0.57220 0.05746 0.08900
H 	H 	0.93230 0.52510 0.07760 -0.01200
N 	N 	0.87818 0.59165 0.01715 -0.10400
C 	C 	0.99832 0.68125 0.03080 0.08100
H 	H 	0.03820 0.72770 0.02680 -0.00400
C 	C 	0.86628 0.70815 0.95869 -0.05600
H 	H 	0.82680 0.67280 0.93450 0.04500
H 	H 	0.91930 0.73530 0.93660 0.04300
C 	C 	0.79310 0.76834 0.98311 -0.03900
H 	H 	0.76170 0.79950 0.95360 0.03200
H 	H 	0.83350 0.80460 0.00620 0.02700
C 	C 	0.00450 0.97990 0.02490 -0.03800
H 	H 	0.97410 0.01300 0.05370 0.02800
H 	H 	0.96290 0.93130 0.02280 0.02800
N 	N 	0.51501 0.12419 0.18262 -0.24100
N 	N 	0.41752 0.08819 0.24923 -0.09300
C 	C 	0.43983 0.17780 0.19254 0.09000
H 	H 	0.43230 0.22490 0.17240 -0.01200
N 	N 	0.37818 0.15835 0.23285 -0.10400
C 	C 	0.49832 0.06875 0.21920 0.08200
H 	H 	0.53820 0.02230 0.22320 -0.00400
C 	C 	0.36628 0.04185 0.29131 -0.05600
H 	H 	0.32680 0.07720 0.31550 0.04500
H 	H 	0.41930 0.01470 0.31340 0.04300
C 	C 	0.29310 0.98166 0.26689 -0.03800
H 	H 	0.26170 0.95050 0.29640 0.03100
H 	H 	0.33350 0.94540 0.24380 0.02600
C 	C 	0.50450 0.77010 0.22510 -0.03900
H 	H 	0.47410 0.73700 0.19630 0.02800
H 	H 	0.46290 0.81870 0.22720 0.02800
N 	N 	0.51501 0.62419 0.68262 -0.24100
N 	N 	0.41752 0.58819 0.74923 -0.09300
C 	C 	0.43983 0.67780 0.69254 0.09000
H 	H 	0.43230 0.72490 0.67240 -0.01200
N 	N 	0.37818 0.65835 0.73285 -0.10400
C 	C 	0.49832 0.56875 0.71920 0.08200
H 	H 	0.53820 0.52230 0.72320 -0.00400
C 	C 	0.36628 0.54185 0.79131 -0.05600
H 	H 	0.32680 0.57720 0.81550 0.04500
H 	H 	0.41930 0.51470 0.81340 0.04300
C 	C 	0.29310 0.48166 0.76689 -0.03800
H 	H 	0.26170 0.45050 0.79640 0.03200
H 	H 	0.33350 0.44540 0.74380 0.02700
C 	C 	0.50450 0.27010 0.72510 -0.03900
H 	H 	0.47410 0.23700 0.69630 0.02800
H 	H 	0.46290 0.31870 0.72720 0.02800
N 	N 	0.01501 0.12419 0.68262 -0.24100
N 	N 	0.91752 0.08819 0.74923 -0.09300
C 	C 	0.93983 0.17780 0.69254 0.09000
H 	H 	0.93230 0.22490 0.67240 -0.01200
N 	N 	0.87818 0.15835 0.73285 -0.10400
C 	C 	0.99832 0.06875 0.71920 0.08200
H 	H 	0.03820 0.02230 0.72320 -0.00500
C 	C 	0.86628 0.04185 0.79131 -0.05600
H 	H 	0.82680 0.07720 0.81550 0.04500
H 	H 	0.91930 0.01470 0.81340 0.04300
C 	C 	0.79310 0.98166 0.76689 -0.03900
H 	H 	0.76170 0.95050 0.79640 0.03200
H 	H 	0.83350 0.94540 0.74380 0.02700
C 	C 	0.00450 0.77010 0.72510 -0.03800
H 	H 	0.97410 0.73700 0.69630 0.02800
H 	H 	0.96290 0.81870 0.72720 0.02800
N 	N 	0.01501 0.62419 0.18262 -0.24100
N 	N 	0.91752 0.58819 0.24923 -0.09300
C 	C 	0.93983 0.67780 0.19254 0.09000
H 	H 	0.93230 0.72490 0.17240 -0.01200
N 	N 	0.87818 0.65835 0.23285 -0.10400
C 	C 	0.99832 0.56875 0.21920 0.08200
H 	H 	0.03820 0.52230 0.22320 -0.00400
C 	C 	0.86628 0.54185 0.29131 -0.05600
H 	H 	0.82680 0.57720 0.31550 0.04500
H 	H 	0.91930 0.51470 0.31340 0.04300
C 	C 	0.79310 0.48166 0.26689 -0.03800
H 	H 	0.76170 0.45050 0.29640 0.03200
H 	H 	0.83350 0.44540 0.24380 0.02700
C 	C 	0.00450 0.27010 0.22510 -0.03900
H 	H 	0.97410 0.23700 0.19630 0.02800
H 	H 	0.96290 0.31870 0.22720 0.02800
N 	N 	0.73499 0.12581 0.18262 -0.24100
N 	N 	0.83248 0.16181 0.24923 -0.09300
C 	C 	0.81017 0.07220 0.19254 0.09000
H 	H 	0.81770 0.02510 0.17240 -0.01200
N 	N 	0.87182 0.09165 0.23285 -0.10400
C 	C 	0.75168 0.18125 0.21920 0.08200
H 	H 	0.71180 0.22770 0.22320 -0.00400
C 	C 	0.88372 0.20815 0.29131 -0.05600
H 	H 	0.92320 0.17280 0.31550 0.04500
H 	H 	0.83070 0.23530 0.31340 0.04300
C 	C 	0.95690 0.26834 0.26689 -0.03900
H 	H 	0.98830 0.29950 0.29640 0.03200
H 	H 	0.91650 0.30460 0.24380 0.02700
C 	C 	0.74550 0.47990 0.22510 -0.03900
H 	H 	0.77590 0.51300 0.19630 0.02800
H 	H 	0.78710 0.43130 0.22720 0.02800
N 	N 	0.73499 0.62581 0.68262 -0.24100
N 	N 	0.83248 0.66181 0.74923 -0.09300
C 	C 	0.81017 0.57220 0.69254 0.09000
H 	H 	0.81770 0.52510 0.67240 -0.01200
N 	N 	0.87182 0.59165 0.73285 -0.10400
C 	C 	0.75168 0.68125 0.71920 0.08200
H 	H 	0.71180 0.72770 0.72320 -0.00400
C 	C 	0.88372 0.70815 0.79131 -0.05600
H 	H 	0.92320 0.67280 0.81550 0.04500
H 	H 	0.83070 0.73530 0.81340 0.04300
C 	C 	0.95690 0.76834 0.76689 -0.03800
H 	H 	0.98830 0.79950 0.79640 0.03100
H 	H 	0.91650 0.80460 0.74380 0.02700
C 	C 	0.74550 0.97990 0.72510 -0.04000
H 	H 	0.77590 0.01300 0.69630 0.02900
H 	H 	0.78710 0.93130 0.72720 0.02800
N 	N 	0.23499 0.12581 0.68262 -0.24100
N 	N 	0.33248 0.16181 0.74923 -0.09300
C 	C 	0.31017 0.07220 0.69254 0.09000
H 	H 	0.31770 0.02510 0.67240 -0.01200
N 	N 	0.37182 0.09165 0.73285 -0.10400
C 	C 	0.25168 0.18125 0.71920 0.08200
H 	H 	0.21180 0.22770 0.72320 -0.00400
C 	C 	0.38372 0.20815 0.79131 -0.05600
H 	H 	0.42320 0.17280 0.81550 0.04500
H 	H 	0.33070 0.23530 0.81340 0.04300
C 	C 	0.45690 0.26834 0.76689 -0.03800
H 	H 	0.48830 0.29950 0.79640 0.03200
H 	H 	0.41650 0.30460 0.74380 0.02700
C 	C 	0.24550 0.47990 0.72510 -0.03900
H 	H 	0.27590 0.51300 0.69630 0.02800
H 	H 	0.28710 0.43130 0.72720 0.02800
N 	N 	0.23499 0.62581 0.18262 -0.24100
N 	N 	0.33248 0.66181 0.24923 -0.09300
C 	C 	0.31017 0.57220 0.19254 0.09000
H 	H 	0.31770 0.52510 0.17240 -0.01200
N 	N 	0.37182 0.59165 0.23285 -0.10400
C 	C 	0.25168 0.68125 0.21920 0.08200
H 	H 	0.21180 0.72770 0.22320 -0.00400
C 	C 	0.38372 0.70815 0.29131 -0.05600
H 	H 	0.42320 0.67280 0.31550 0.04500
H 	H 	0.33070 0.73530 0.31340 0.04300
C 	C 	0.45690 0.76834 0.26689 -0.03800
H 	H 	0.48830 0.79950 0.29640 0.03200
H 	H 	0.41650 0.80460 0.24380 0.02700
C 	C 	0.24550 0.97990 0.22510 -0.03800
H 	H 	0.27590 0.01300 0.19630 0.02800
H 	H 	0.28710 0.93130 0.22720 0.02800
Cu	Cu	0.37500 0.87500 0.87500 0.85400
Cu	Cu	0.37500 0.37500 0.37500 0.85400
Cu	Cu	0.87500 0.87500 0.37500 0.85400
Cu	Cu	0.87500 0.37500 0.87500 0.85400
Cu	Cu	0.62500 0.12500 0.12500 0.85400
Cu	Cu	0.62500 0.62500 0.62500 0.85400
Cu	Cu	0.12500 0.12500 0.62500 0.85400
Cu	Cu	0.12500 0.62500 0.12500 0.85400
