data_crystal

_cell_length_a 13.05200
_cell_length_b 17.25100
_cell_length_c 25.21000
_cell_angle_alpha 90.00000
_cell_angle_beta  90.00000
_cell_angle_gamma 90.00000

_symmetry_space_group_name_	'P 1'
_symmetry_space_group_name_H-M	'P 1'

loop_
_symmetry_equiv_pos_as_xyz
  x,y,z

loop_
_atom_site_label
_atom_site_type_symbol
_atom_site_fract_x
_atom_site_fract_y
_atom_site_fract_z
_atom_site_charge
N 	N 	0.51628 0.12758 0.06845 -0.24000
N 	N 	0.41876 0.16428 0.00352 -0.09200
C 	C 	0.44073 0.07559 0.05873 0.09100
H 	H 	0.43280 0.02900 0.07840 -0.01200
N 	N 	0.37958 0.09534 0.01967 -0.10300
C 	C 	0.49994 0.18247 0.03263 0.08300
H 	H 	0.54020 0.22790 0.02850 -0.00400
C 	C 	0.36933 0.21033 0.96184 -0.05500
H 	H 	0.33280 0.17520 0.93720 0.04600
H 	H 	0.42240 0.23830 0.94130 0.04400
C 	C 	0.29370 0.26859 0.98491 -0.03900
H 	H 	0.33100 0.30400 0.00910 0.02800
H 	H 	0.26510 0.30020 0.95570 0.03400
C 	C 	0.25680 0.22910 0.97580 -0.03900
H 	H 	0.22680 0.25980 0.94650 0.02900
H 	H 	0.21810 0.17990 0.97810 0.02800
N 	N 	0.51628 0.62758 0.56845 -0.24100
N 	N 	0.41876 0.66428 0.50352 -0.09300
C 	C 	0.44073 0.57559 0.55873 0.09000
H 	H 	0.43280 0.52900 0.57840 -0.01300
N 	N 	0.37958 0.59534 0.51967 -0.10400
C 	C 	0.49994 0.68247 0.53263 0.08200
H 	H 	0.54020 0.72790 0.52850 -0.00500
C 	C 	0.36933 0.71033 0.46184 -0.05600
H 	H 	0.33280 0.67520 0.43720 0.04500
H 	H 	0.42240 0.73830 0.44130 0.04300
C 	C 	0.29370 0.76859 0.48491 -0.04100
H 	H 	0.33100 0.80400 0.50910 0.02700
H 	H 	0.26510 0.80020 0.45570 0.03400
C 	C 	0.25680 0.72910 0.47580 -0.03800
H 	H 	0.22680 0.75980 0.44650 0.02900
H 	H 	0.21810 0.67990 0.47810 0.02800
N 	N 	0.01628 0.12758 0.56845 -0.24200
N 	N 	0.91876 0.16428 0.50352 -0.09300
C 	C 	0.94073 0.07559 0.55873 0.09000
H 	H 	0.93280 0.02900 0.57840 -0.01300
N 	N 	0.87958 0.09534 0.51967 -0.10400
C 	C 	0.99994 0.18247 0.53263 0.08200
H 	H 	0.04020 0.22790 0.52850 -0.00500
C 	C 	0.86933 0.21033 0.46184 -0.05600
H 	H 	0.83280 0.17520 0.43720 0.04500
H 	H 	0.92240 0.23830 0.44130 0.04300
C 	C 	0.79370 0.26859 0.48491 -0.04100
H 	H 	0.83100 0.30400 0.50910 0.02700
H 	H 	0.76510 0.30020 0.45570 0.03400
C 	C 	0.75680 0.22910 0.47580 -0.03800
H 	H 	0.72680 0.25980 0.44650 0.02900
H 	H 	0.71810 0.17990 0.47810 0.02800
N 	N 	0.01628 0.62758 0.06845 -0.24100
N 	N 	0.91876 0.66428 0.00352 -0.09300
C 	C 	0.94073 0.57559 0.05873 0.09000
H 	H 	0.93280 0.52900 0.07840 -0.01300
N 	N 	0.87958 0.59534 0.01967 -0.10400
C 	C 	0.99994 0.68247 0.03263 0.08100
H 	H 	0.04020 0.72790 0.02850 -0.00500
C 	C 	0.86933 0.71033 0.96184 -0.05600
H 	H 	0.83280 0.67520 0.93720 0.04500
H 	H 	0.92240 0.73830 0.94130 0.04300
C 	C 	0.79370 0.76859 0.98491 -0.04200
H 	H 	0.83100 0.80400 0.00910 0.02700
H 	H 	0.76510 0.80020 0.95570 0.03400
C 	C 	0.75680 0.72910 0.97580 -0.03600
H 	H 	0.72680 0.75980 0.94650 0.02800
H 	H 	0.71810 0.67990 0.97810 0.02700
N 	N 	0.23372 0.62242 0.06845 -0.24100
N 	N 	0.33124 0.58572 0.00352 -0.09300
C 	C 	0.30927 0.67441 0.05873 0.09000
H 	H 	0.31720 0.72100 0.07840 -0.01300
N 	N 	0.37042 0.65466 0.01967 -0.10400
C 	C 	0.25006 0.56753 0.03263 0.08200
H 	H 	0.20980 0.52210 0.02850 -0.00500
C 	C 	0.38067 0.53967 0.96184 -0.05600
H 	H 	0.41720 0.57480 0.93720 0.04500
H 	H 	0.32760 0.51170 0.94130 0.04300
C 	C 	0.45630 0.48141 0.98491 -0.04100
H 	H 	0.41900 0.44600 0.00910 0.02700
H 	H 	0.48490 0.44980 0.95570 0.03400
C 	C 	0.49320 0.52090 0.97580 -0.03800
H 	H 	0.52320 0.49020 0.94650 0.02900
H 	H 	0.53190 0.57010 0.97810 0.02800
N 	N 	0.23372 0.12242 0.56845 -0.24100
N 	N 	0.33124 0.08572 0.50352 -0.09300
C 	C 	0.30927 0.17441 0.55873 0.09000
H 	H 	0.31720 0.22100 0.57840 -0.01300
N 	N 	0.37042 0.15466 0.51967 -0.10400
C 	C 	0.25006 0.06753 0.53263 0.08200
H 	H 	0.20980 0.02210 0.52850 -0.00500
C 	C 	0.38067 0.03967 0.46184 -0.05600
H 	H 	0.41720 0.07480 0.43720 0.04500
H 	H 	0.32760 0.01170 0.44130 0.04300
C 	C 	0.45630 0.98141 0.48491 -0.04100
H 	H 	0.41900 0.94600 0.50910 0.02700
H 	H 	0.48490 0.94980 0.45570 0.03400
C 	C 	0.49320 0.02090 0.47580 -0.03800
H 	H 	0.52320 0.99020 0.44650 0.02900
H 	H 	0.53190 0.07010 0.47810 0.02800
N 	N 	0.73372 0.62242 0.56845 -0.24100
N 	N 	0.83124 0.58572 0.50352 -0.09300
C 	C 	0.80927 0.67441 0.55873 0.09000
H 	H 	0.81720 0.72100 0.57840 -0.01300
N 	N 	0.87042 0.65466 0.51967 -0.10400
C 	C 	0.75006 0.56753 0.53263 0.08200
H 	H 	0.70980 0.52210 0.52850 -0.00500
C 	C 	0.88067 0.53967 0.46184 -0.05600
H 	H 	0.91720 0.57480 0.43720 0.04500
H 	H 	0.82760 0.51170 0.44130 0.04300
C 	C 	0.95630 0.48141 0.48491 -0.04100
H 	H 	0.91900 0.44600 0.50910 0.02700
H 	H 	0.98490 0.44980 0.45570 0.03400
C 	C 	0.99320 0.52090 0.47580 -0.03800
H 	H 	0.02320 0.49020 0.44650 0.02900
H 	H 	0.03190 0.57010 0.47810 0.02800
N 	N 	0.73372 0.12242 0.06845 -0.24100
N 	N 	0.83124 0.08572 0.00352 -0.09300
C 	C 	0.80927 0.17441 0.05873 0.09000
H 	H 	0.81720 0.22100 0.07840 -0.01300
N 	N 	0.87042 0.15466 0.01967 -0.10400
C 	C 	0.75006 0.06753 0.03263 0.08200
H 	H 	0.70980 0.02210 0.02850 -0.00500
C 	C 	0.88067 0.03967 0.96184 -0.05600
H 	H 	0.91720 0.07480 0.93720 0.04500
H 	H 	0.82760 0.01170 0.94130 0.04300
C 	C 	0.95630 0.98141 0.98491 -0.04200
H 	H 	0.91900 0.94600 0.00910 0.02700
H 	H 	0.98490 0.94980 0.95570 0.03400
C 	C 	0.99320 0.02090 0.97580 -0.03700
H 	H 	0.02320 0.99020 0.94650 0.02900
H 	H 	0.03190 0.07010 0.97810 0.02800
N 	N 	0.23372 0.12758 0.68155 -0.24100
N 	N 	0.33124 0.16428 0.74648 -0.09300
C 	C 	0.30927 0.07559 0.69127 0.09000
H 	H 	0.31720 0.02900 0.67160 -0.01300
N 	N 	0.37042 0.09534 0.73033 -0.10400
C 	C 	0.25006 0.18247 0.71737 0.08200
H 	H 	0.20980 0.22790 0.72150 -0.00500
C 	C 	0.38067 0.21033 0.78816 -0.05600
H 	H 	0.41720 0.17520 0.81280 0.04500
H 	H 	0.32760 0.23830 0.80870 0.04300
C 	C 	0.45630 0.26859 0.76509 -0.04100
H 	H 	0.41900 0.30400 0.74090 0.02700
H 	H 	0.48490 0.30020 0.79430 0.03400
C 	C 	0.49320 0.22910 0.77420 -0.03800
H 	H 	0.52320 0.25980 0.80350 0.02900
H 	H 	0.53190 0.17990 0.77190 0.02800
N 	N 	0.23372 0.62758 0.18155 -0.24100
N 	N 	0.33124 0.66428 0.24648 -0.09300
C 	C 	0.30927 0.57559 0.19127 0.09000
H 	H 	0.31720 0.52900 0.17160 -0.01300
N 	N 	0.37042 0.59534 0.23033 -0.10400
C 	C 	0.25006 0.68247 0.21737 0.08200
H 	H 	0.20980 0.72790 0.22150 -0.00500
C 	C 	0.38067 0.71033 0.28816 -0.05600
H 	H 	0.41720 0.67520 0.31280 0.04500
H 	H 	0.32760 0.73830 0.30870 0.04300
C 	C 	0.45630 0.76859 0.26509 -0.04100
H 	H 	0.41900 0.80400 0.24090 0.02700
H 	H 	0.48490 0.80020 0.29430 0.03400
C 	C 	0.49320 0.72910 0.27420 -0.03800
H 	H 	0.52320 0.75980 0.30350 0.02900
H 	H 	0.53190 0.67990 0.27190 0.02800
N 	N 	0.73372 0.12758 0.18155 -0.24100
N 	N 	0.83124 0.16428 0.24648 -0.09300
C 	C 	0.80927 0.07559 0.19127 0.09000
H 	H 	0.81720 0.02900 0.17160 -0.01300
N 	N 	0.87042 0.09534 0.23033 -0.10400
C 	C 	0.75006 0.18247 0.21737 0.08200
H 	H 	0.70980 0.22790 0.22150 -0.00500
C 	C 	0.88067 0.21033 0.28816 -0.05600
H 	H 	0.91720 0.17520 0.31280 0.04500
H 	H 	0.82760 0.23830 0.30870 0.04300
C 	C 	0.95630 0.26859 0.26509 -0.04200
H 	H 	0.91900 0.30400 0.24090 0.02800
H 	H 	0.98490 0.30020 0.29430 0.03400
C 	C 	0.99320 0.22910 0.27420 -0.03700
H 	H 	0.02320 0.25980 0.30350 0.02900
H 	H 	0.03190 0.17990 0.27190 0.02800
N 	N 	0.73372 0.62758 0.68155 -0.24100
N 	N 	0.83124 0.66428 0.74648 -0.09300
C 	C 	0.80927 0.57559 0.69127 0.09000
H 	H 	0.81720 0.52900 0.67160 -0.01300
N 	N 	0.87042 0.59534 0.73033 -0.10400
C 	C 	0.75006 0.68247 0.71737 0.08200
H 	H 	0.70980 0.72790 0.72150 -0.00500
C 	C 	0.88067 0.71033 0.78816 -0.05600
H 	H 	0.91720 0.67520 0.81280 0.04500
H 	H 	0.82760 0.73830 0.80870 0.04300
C 	C 	0.95630 0.76859 0.76509 -0.04000
H 	H 	0.91900 0.80400 0.74090 0.02700
H 	H 	0.98490 0.80020 0.79430 0.03300
C 	C 	0.99320 0.72910 0.77420 -0.03900
H 	H 	0.02320 0.75980 0.80350 0.02900
H 	H 	0.03190 0.67990 0.77190 0.02800
N 	N 	0.51628 0.62242 0.68155 -0.24100
N 	N 	0.41876 0.58572 0.74648 -0.09300
C 	C 	0.44073 0.67441 0.69127 0.09000
H 	H 	0.43280 0.72100 0.67160 -0.01300
N 	N 	0.37958 0.65466 0.73033 -0.10400
C 	C 	0.49994 0.56753 0.71737 0.08200
H 	H 	0.54020 0.52210 0.72150 -0.00500
C 	C 	0.36933 0.53967 0.78816 -0.05600
H 	H 	0.33280 0.57480 0.81280 0.04500
H 	H 	0.42240 0.51170 0.80870 0.04300
C 	C 	0.29370 0.48141 0.76509 -0.04100
H 	H 	0.33100 0.44600 0.74090 0.02700
H 	H 	0.26510 0.44980 0.79430 0.03400
C 	C 	0.25680 0.52090 0.77420 -0.03800
H 	H 	0.22680 0.49020 0.80350 0.02900
H 	H 	0.21810 0.57010 0.77190 0.02800
N 	N 	0.51628 0.12242 0.18155 -0.24100
N 	N 	0.41876 0.08572 0.24648 -0.09300
C 	C 	0.44073 0.17441 0.19127 0.09000
H 	H 	0.43280 0.22100 0.17160 -0.01300
N 	N 	0.37958 0.15466 0.23033 -0.10400
C 	C 	0.49994 0.06753 0.21737 0.08200
H 	H 	0.54020 0.02210 0.22150 -0.00500
C 	C 	0.36933 0.03967 0.28816 -0.05600
H 	H 	0.33280 0.07480 0.31280 0.04500
H 	H 	0.42240 0.01170 0.30870 0.04300
C 	C 	0.29370 0.98141 0.26509 -0.04000
H 	H 	0.33100 0.94600 0.24090 0.02700
H 	H 	0.26510 0.94980 0.29430 0.03300
C 	C 	0.25680 0.02090 0.27420 -0.04000
H 	H 	0.22680 0.99020 0.30350 0.02900
H 	H 	0.21810 0.07010 0.27190 0.02800
N 	N 	0.01628 0.62242 0.18155 -0.24100
N 	N 	0.91876 0.58572 0.24648 -0.09300
C 	C 	0.94073 0.67441 0.19127 0.09000
H 	H 	0.93280 0.72100 0.17160 -0.01300
N 	N 	0.87958 0.65466 0.23033 -0.10400
C 	C 	0.99994 0.56753 0.21737 0.08200
H 	H 	0.04020 0.52210 0.22150 -0.00500
C 	C 	0.86933 0.53967 0.28816 -0.05600
H 	H 	0.83280 0.57480 0.31280 0.04500
H 	H 	0.92240 0.51170 0.30870 0.04300
C 	C 	0.79370 0.48141 0.26509 -0.04100
H 	H 	0.83100 0.44600 0.24090 0.02700
H 	H 	0.76510 0.44980 0.29430 0.03400
C 	C 	0.75680 0.52090 0.27420 -0.03800
H 	H 	0.72680 0.49020 0.30350 0.02900
H 	H 	0.71810 0.57010 0.27190 0.02800
N 	N 	0.01628 0.12242 0.68155 -0.24200
N 	N 	0.91876 0.08572 0.74648 -0.09300
C 	C 	0.94073 0.17441 0.69127 0.09000
H 	H 	0.93280 0.22100 0.67160 -0.01300
N 	N 	0.87958 0.15466 0.73033 -0.10400
C 	C 	0.99994 0.06753 0.71737 0.08200
H 	H 	0.04020 0.02210 0.72150 -0.00600
C 	C 	0.86933 0.03967 0.78816 -0.05600
H 	H 	0.83280 0.07480 0.81280 0.04500
H 	H 	0.92240 0.01170 0.80870 0.04300
C 	C 	0.79370 0.98141 0.76509 -0.04300
H 	H 	0.83100 0.94600 0.74090 0.02800
H 	H 	0.76510 0.94980 0.79430 0.03400
C 	C 	0.75680 0.02090 0.77420 -0.03700
H 	H 	0.72680 0.99020 0.80350 0.02800
H 	H 	0.71810 0.07010 0.77190 0.02700
N 	N 	0.48372 0.87242 0.93155 -0.24100
N 	N 	0.58124 0.83572 0.99648 -0.09300
C 	C 	0.55927 0.92441 0.94127 0.09000
H 	H 	0.56720 0.97100 0.92160 -0.01300
N 	N 	0.62042 0.90466 0.98033 -0.10400
C 	C 	0.50006 0.81753 0.96737 0.08200
H 	H 	0.45980 0.77210 0.97150 -0.00500
C 	C 	0.63067 0.78967 0.03816 -0.05600
H 	H 	0.66720 0.82480 0.06280 0.04500
H 	H 	0.57760 0.76170 0.05870 0.04300
C 	C 	0.70630 0.73141 0.01509 -0.04000
H 	H 	0.66900 0.69600 0.99090 0.02700
H 	H 	0.73490 0.69980 0.04430 0.03300
C 	C 	0.74320 0.77090 0.02420 -0.04000
H 	H 	0.77320 0.74020 0.05350 0.02900
H 	H 	0.78190 0.82010 0.02190 0.02800
N 	N 	0.48372 0.37242 0.43155 -0.24100
N 	N 	0.58124 0.33572 0.49648 -0.09300
C 	C 	0.55927 0.42441 0.44127 0.09000
H 	H 	0.56720 0.47100 0.42160 -0.01300
N 	N 	0.62042 0.40466 0.48033 -0.10400
C 	C 	0.50006 0.31753 0.46737 0.08200
H 	H 	0.45980 0.27210 0.47150 -0.00500
C 	C 	0.63067 0.28967 0.53816 -0.05600
H 	H 	0.66720 0.32480 0.56280 0.04500
H 	H 	0.57760 0.26170 0.55870 0.04300
C 	C 	0.70630 0.23141 0.51509 -0.04100
H 	H 	0.66900 0.19600 0.49090 0.02700
H 	H 	0.73490 0.19980 0.54430 0.03400
C 	C 	0.74320 0.27090 0.52420 -0.03800
H 	H 	0.77320 0.24020 0.55350 0.02900
H 	H 	0.78190 0.32010 0.52190 0.02800
N 	N 	0.98372 0.87242 0.43155 -0.24200
N 	N 	0.08124 0.83572 0.49648 -0.09300
C 	C 	0.05927 0.92441 0.44127 0.09000
H 	H 	0.06720 0.97100 0.42160 -0.01300
N 	N 	0.12042 0.90466 0.48033 -0.10400
C 	C 	0.00006 0.81753 0.46737 0.08200
H 	H 	0.95980 0.77210 0.47150 -0.00500
C 	C 	0.13067 0.78967 0.53816 -0.05600
H 	H 	0.16720 0.82480 0.56280 0.04500
H 	H 	0.07760 0.76170 0.55870 0.04300
C 	C 	0.20630 0.73141 0.51509 -0.04100
H 	H 	0.16900 0.69600 0.49090 0.02700
H 	H 	0.23490 0.69980 0.54430 0.03400
C 	C 	0.24320 0.77090 0.52420 -0.03800
H 	H 	0.27320 0.74020 0.55350 0.02900
H 	H 	0.28190 0.82010 0.52190 0.02800
N 	N 	0.98372 0.37242 0.93155 -0.24100
N 	N 	0.08124 0.33572 0.99648 -0.09300
C 	C 	0.05927 0.42441 0.94127 0.09000
H 	H 	0.06720 0.47100 0.92160 -0.01300
N 	N 	0.12042 0.40466 0.98033 -0.10400
C 	C 	0.00006 0.31753 0.96737 0.08100
H 	H 	0.95980 0.27210 0.97150 -0.00500
C 	C 	0.13067 0.28967 0.03816 -0.05600
H 	H 	0.16720 0.32480 0.06280 0.04500
H 	H 	0.07760 0.26170 0.05870 0.04300
C 	C 	0.20630 0.23141 0.01509 -0.04200
H 	H 	0.16900 0.19600 0.99090 0.02700
H 	H 	0.23490 0.19980 0.04430 0.03400
C 	C 	0.24320 0.27090 0.02420 -0.03600
H 	H 	0.27320 0.24020 0.05350 0.02800
H 	H 	0.28190 0.32010 0.02190 0.02700
N 	N 	0.76628 0.37758 0.93155 -0.24100
N 	N 	0.66876 0.41428 0.99648 -0.09300
C 	C 	0.69073 0.32559 0.94127 0.09000
H 	H 	0.68280 0.27900 0.92160 -0.01300
N 	N 	0.62958 0.34534 0.98033 -0.10400
C 	C 	0.74994 0.43247 0.96737 0.08200
H 	H 	0.79020 0.47790 0.97150 -0.00500
C 	C 	0.61933 0.46033 0.03816 -0.05600
H 	H 	0.58280 0.42520 0.06280 0.04500
H 	H 	0.67240 0.48830 0.05870 0.04300
C 	C 	0.54370 0.51859 0.01509 -0.04100
H 	H 	0.58100 0.55400 0.99090 0.02700
H 	H 	0.51510 0.55020 0.04430 0.03400
C 	C 	0.50680 0.47910 0.02420 -0.03800
H 	H 	0.47680 0.50980 0.05350 0.02900
H 	H 	0.46810 0.42990 0.02190 0.02800
N 	N 	0.76628 0.87758 0.43155 -0.24100
N 	N 	0.66876 0.91428 0.49648 -0.09300
C 	C 	0.69073 0.82559 0.44127 0.09000
H 	H 	0.68280 0.77900 0.42160 -0.01300
N 	N 	0.62958 0.84534 0.48033 -0.10400
C 	C 	0.74994 0.93247 0.46737 0.08200
H 	H 	0.79020 0.97790 0.47150 -0.00500
C 	C 	0.61933 0.96033 0.53816 -0.05600
H 	H 	0.58280 0.92520 0.56280 0.04500
H 	H 	0.67240 0.98830 0.55870 0.04300
C 	C 	0.54370 0.01859 0.51509 -0.04100
H 	H 	0.58100 0.05400 0.49090 0.02700
H 	H 	0.51510 0.05020 0.54430 0.03400
C 	C 	0.50680 0.97910 0.52420 -0.03800
H 	H 	0.47680 0.00980 0.55350 0.02900
H 	H 	0.46810 0.92990 0.52190 0.02800
N 	N 	0.26628 0.37758 0.43155 -0.24100
N 	N 	0.16876 0.41428 0.49648 -0.09300
C 	C 	0.19073 0.32559 0.44127 0.09000
H 	H 	0.18280 0.27900 0.42160 -0.01300
N 	N 	0.12958 0.34534 0.48033 -0.10400
C 	C 	0.24994 0.43247 0.46737 0.08200
H 	H 	0.29020 0.47790 0.47150 -0.00500
C 	C 	0.11933 0.46033 0.53816 -0.05600
H 	H 	0.08280 0.42520 0.56280 0.04500
H 	H 	0.17240 0.48830 0.55870 0.04300
C 	C 	0.04370 0.51859 0.51509 -0.04100
H 	H 	0.08100 0.55400 0.49090 0.02700
H 	H 	0.01510 0.55020 0.54430 0.03400
C 	C 	0.00680 0.47910 0.52420 -0.03800
H 	H 	0.97680 0.50980 0.55350 0.02900
H 	H 	0.96810 0.42990 0.52190 0.02800
N 	N 	0.26628 0.87758 0.93155 -0.24100
N 	N 	0.16876 0.91428 0.99648 -0.09300
C 	C 	0.19073 0.82559 0.94127 0.09000
H 	H 	0.18280 0.77900 0.92160 -0.01300
N 	N 	0.12958 0.84534 0.98033 -0.10400
C 	C 	0.24994 0.93247 0.96737 0.08200
H 	H 	0.29020 0.97790 0.97150 -0.00500
C 	C 	0.11933 0.96033 0.03816 -0.05600
H 	H 	0.08280 0.92520 0.06280 0.04500
H 	H 	0.17240 0.98830 0.05870 0.04300
C 	C 	0.04370 0.01859 0.01509 -0.04200
H 	H 	0.08100 0.05400 0.99090 0.02700
H 	H 	0.01510 0.05020 0.04430 0.03400
C 	C 	0.00680 0.97910 0.02420 -0.03700
H 	H 	0.97680 0.00980 0.05350 0.02900
H 	H 	0.96810 0.92990 0.02190 0.02800
N 	N 	0.76628 0.87242 0.31845 -0.24100
N 	N 	0.66876 0.83572 0.25352 -0.09300
C 	C 	0.69073 0.92441 0.30873 0.09000
H 	H 	0.68280 0.97100 0.32840 -0.01300
N 	N 	0.62958 0.90466 0.26967 -0.10400
C 	C 	0.74994 0.81753 0.28263 0.08200
H 	H 	0.79020 0.77210 0.27850 -0.00500
C 	C 	0.61933 0.78967 0.21184 -0.05600
H 	H 	0.58280 0.82480 0.18720 0.04500
H 	H 	0.67240 0.76170 0.19130 0.04300
C 	C 	0.54370 0.73141 0.23491 -0.04100
H 	H 	0.58100 0.69600 0.25910 0.02700
H 	H 	0.51510 0.69980 0.20570 0.03400
C 	C 	0.50680 0.77090 0.22580 -0.03800
H 	H 	0.47680 0.74020 0.19650 0.02900
H 	H 	0.46810 0.82010 0.22810 0.02800
N 	N 	0.76628 0.37242 0.81845 -0.24100
N 	N 	0.66876 0.33572 0.75352 -0.09300
C 	C 	0.69073 0.42441 0.80873 0.09000
H 	H 	0.68280 0.47100 0.82840 -0.01300
N 	N 	0.62958 0.40466 0.76967 -0.10400
C 	C 	0.74994 0.31753 0.78263 0.08200
H 	H 	0.79020 0.27210 0.77850 -0.00500
C 	C 	0.61933 0.28967 0.71184 -0.05600
H 	H 	0.58280 0.32480 0.68720 0.04500
H 	H 	0.67240 0.26170 0.69130 0.04300
C 	C 	0.54370 0.23141 0.73491 -0.04100
H 	H 	0.58100 0.19600 0.75910 0.02700
H 	H 	0.51510 0.19980 0.70570 0.03400
C 	C 	0.50680 0.27090 0.72580 -0.03800
H 	H 	0.47680 0.24020 0.69650 0.02900
H 	H 	0.46810 0.32010 0.72810 0.02800
N 	N 	0.26628 0.87242 0.81845 -0.24100
N 	N 	0.16876 0.83572 0.75352 -0.09300
C 	C 	0.19073 0.92441 0.80873 0.09000
H 	H 	0.18280 0.97100 0.82840 -0.01300
N 	N 	0.12958 0.90466 0.76967 -0.10400
C 	C 	0.24994 0.81753 0.78263 0.08200
H 	H 	0.29020 0.77210 0.77850 -0.00500
C 	C 	0.11933 0.78967 0.71184 -0.05600
H 	H 	0.08280 0.82480 0.68720 0.04500
H 	H 	0.17240 0.76170 0.69130 0.04300
C 	C 	0.04370 0.73141 0.73491 -0.04200
H 	H 	0.08100 0.69600 0.75910 0.02800
H 	H 	0.01510 0.69980 0.70570 0.03400
C 	C 	0.00680 0.77090 0.72580 -0.03700
H 	H 	0.97680 0.74020 0.69650 0.02900
H 	H 	0.96810 0.82010 0.72810 0.02800
N 	N 	0.26628 0.37242 0.31845 -0.24100
N 	N 	0.16876 0.33572 0.25352 -0.09300
C 	C 	0.19073 0.42441 0.30873 0.09000
H 	H 	0.18280 0.47100 0.32840 -0.01300
N 	N 	0.12958 0.40466 0.26967 -0.10400
C 	C 	0.24994 0.31753 0.28263 0.08200
H 	H 	0.29020 0.27210 0.27850 -0.00500
C 	C 	0.11933 0.28967 0.21184 -0.05600
H 	H 	0.08280 0.32480 0.18720 0.04500
H 	H 	0.17240 0.26170 0.19130 0.04300
C 	C 	0.04370 0.23141 0.23491 -0.04000
H 	H 	0.08100 0.19600 0.25910 0.02700
H 	H 	0.01510 0.19980 0.20570 0.03300
C 	C 	0.00680 0.27090 0.22580 -0.03900
H 	H 	0.97680 0.24020 0.19650 0.02900
H 	H 	0.96810 0.32010 0.22810 0.02800
N 	N 	0.48372 0.37758 0.31845 -0.24100
N 	N 	0.58124 0.41428 0.25352 -0.09300
C 	C 	0.55927 0.32559 0.30873 0.09000
H 	H 	0.56720 0.27900 0.32840 -0.01300
N 	N 	0.62042 0.34534 0.26967 -0.10400
C 	C 	0.50006 0.43247 0.28263 0.08200
H 	H 	0.45980 0.47790 0.27850 -0.00500
C 	C 	0.63067 0.46033 0.21184 -0.05600
H 	H 	0.66720 0.42520 0.18720 0.04500
H 	H 	0.57760 0.48830 0.19130 0.04300
C 	C 	0.70630 0.51859 0.23491 -0.04100
H 	H 	0.66900 0.55400 0.25910 0.02700
H 	H 	0.73490 0.55020 0.20570 0.03400
C 	C 	0.74320 0.47910 0.22580 -0.03800
H 	H 	0.77320 0.50980 0.19650 0.02900
H 	H 	0.78190 0.42990 0.22810 0.02800
N 	N 	0.48372 0.87758 0.81845 -0.24100
N 	N 	0.58124 0.91428 0.75352 -0.09300
C 	C 	0.55927 0.82559 0.80873 0.09000
H 	H 	0.56720 0.77900 0.82840 -0.01300
N 	N 	0.62042 0.84534 0.76967 -0.10400
C 	C 	0.50006 0.93247 0.78263 0.08200
H 	H 	0.45980 0.97790 0.77850 -0.00500
C 	C 	0.63067 0.96033 0.71184 -0.05600
H 	H 	0.66720 0.92520 0.68720 0.04500
H 	H 	0.57760 0.98830 0.69130 0.04300
C 	C 	0.70630 0.01859 0.73491 -0.04000
H 	H 	0.66900 0.05400 0.75910 0.02700
H 	H 	0.73490 0.05020 0.70570 0.03300
C 	C 	0.74320 0.97910 0.72580 -0.04000
H 	H 	0.77320 0.00980 0.69650 0.02900
H 	H 	0.78190 0.92990 0.72810 0.02800
N 	N 	0.98372 0.37758 0.81845 -0.24100
N 	N 	0.08124 0.41428 0.75352 -0.09300
C 	C 	0.05927 0.32559 0.80873 0.09000
H 	H 	0.06720 0.27900 0.82840 -0.01300
N 	N 	0.12042 0.34534 0.76967 -0.10400
C 	C 	0.00006 0.43247 0.78263 0.08200
H 	H 	0.95980 0.47790 0.77850 -0.00500
C 	C 	0.13067 0.46033 0.71184 -0.05600
H 	H 	0.16720 0.42520 0.68720 0.04500
H 	H 	0.07760 0.48830 0.69130 0.04300
C 	C 	0.20630 0.51859 0.73491 -0.04100
H 	H 	0.16900 0.55400 0.75910 0.02700
H 	H 	0.23490 0.55020 0.70570 0.03400
C 	C 	0.24320 0.47910 0.72580 -0.03800
H 	H 	0.27320 0.50980 0.69650 0.02900
H 	H 	0.28190 0.42990 0.72810 0.02800
N 	N 	0.98372 0.87758 0.31845 -0.24200
N 	N 	0.08124 0.91428 0.25352 -0.09300
C 	C 	0.05927 0.82559 0.30873 0.09000
H 	H 	0.06720 0.77900 0.32840 -0.01300
N 	N 	0.12042 0.84534 0.26967 -0.10400
C 	C 	0.00006 0.93247 0.28263 0.08200
H 	H 	0.95980 0.97790 0.27850 -0.00600
C 	C 	0.13067 0.96033 0.21184 -0.05600
H 	H 	0.16720 0.92520 0.18720 0.04500
H 	H 	0.07760 0.98830 0.19130 0.04300
C 	C 	0.20630 0.01859 0.23491 -0.04300
H 	H 	0.16900 0.05400 0.25910 0.02800
H 	H 	0.23490 0.05020 0.20570 0.03400
C 	C 	0.24320 0.97910 0.22580 -0.03700
H 	H 	0.27320 0.00980 0.19650 0.02800
H 	H 	0.28190 0.92990 0.22810 0.02700
Cu	Cu	0.62500 0.12500 0.12500 0.85300
Cu	Cu	0.62500 0.62500 0.62500 0.85300
Cu	Cu	0.12500 0.62500 0.12500 0.85300
Cu	Cu	0.12500 0.12500 0.62500 0.85300
Cu	Cu	0.37500 0.87500 0.87500 0.85300
Cu	Cu	0.37500 0.37500 0.37500 0.85300
Cu	Cu	0.87500 0.37500 0.87500 0.85300
Cu	Cu	0.87500 0.87500 0.37500 0.85300
