data_crystal

_cell_length_a 12.81640
_cell_length_b 22.28660
_cell_length_c 22.28660
_cell_angle_alpha 120.00000
_cell_angle_beta  90.00000
_cell_angle_gamma 90.00000

_symmetry_space_group_name_	'P 1'
_symmetry_space_group_name_H-M	'P 1'

loop_
_symmetry_equiv_pos_as_xyz
  x,y,z

loop_
_atom_site_label
_atom_site_type_symbol
_atom_site_fract_x
_atom_site_fract_y
_atom_site_fract_z
_atom_site_charge
Cu	Cu	0.25000 0.00000 0.37910 0.86100
Cu	Cu	0.25000 0.00000 0.26870 0.84600
Cu	Cu	0.25000 0.37910 -0.00000 0.86100
Cu	Cu	0.25000 0.26870 -0.00000 0.84600
Cu	Cu	0.25000 0.62090 0.62090 0.90100
Cu	Cu	0.25000 0.73130 0.73130 0.89600
Cu	Cu	0.75000 0.00000 0.62090 0.86100
Cu	Cu	0.75000 0.00000 0.73130 0.85300
Cu	Cu	0.75000 0.62090 -0.00000 0.86100
Cu	Cu	0.75000 0.73130 -0.00000 0.85300
Cu	Cu	0.75000 0.37910 0.37910 0.90300
Cu	Cu	0.75000 0.26870 0.26870 0.88400
H 	H 	0.09600 0.82590 0.33310 0.05100
H 	H 	0.09600 0.50720 0.17410 0.04000
H 	H 	0.09600 0.66690 0.49280 0.04600
H 	H 	0.59600 0.17410 0.66690 0.04300
H 	H 	0.59600 0.49280 0.82590 0.05300
H 	H 	0.59600 0.33310 0.50720 0.04600
H 	H 	0.40400 0.49280 0.66690 0.04700
H 	H 	0.40400 0.33310 0.82590 0.05200
H 	H 	0.40400 0.17410 0.50720 0.04100
H 	H 	0.90400 0.50720 0.33310 0.04600
H 	H 	0.90400 0.66690 0.17410 0.04200
H 	H 	0.90400 0.82590 0.49280 0.05300
H 	H 	0.90400 0.17410 0.66690 0.04200
H 	H 	0.90400 0.49280 0.82590 0.05300
H 	H 	0.90400 0.33310 0.50720 0.04600
H 	H 	0.40400 0.82590 0.33310 0.05200
H 	H 	0.40400 0.50720 0.17410 0.04100
H 	H 	0.40400 0.66690 0.49280 0.04700
H 	H 	0.59600 0.50720 0.33310 0.04600
H 	H 	0.59600 0.66690 0.17410 0.04300
H 	H 	0.59600 0.82590 0.49280 0.05300
H 	H 	0.09600 0.49280 0.66690 0.04600
H 	H 	0.09600 0.33310 0.82590 0.05100
H 	H 	0.09600 0.17410 0.50720 0.04000
H 	H 	0.00000 0.84285 0.15715 0.05100
H 	H 	0.00000 0.31430 0.15715 0.03600
H 	H 	-0.00000 0.84285 0.68570 0.06600
H 	H 	0.50000 0.15715 0.84285 0.05200
H 	H 	0.50000 0.68570 0.84285 0.06700
H 	H 	0.50000 0.15715 0.31430 0.03600
H 	H 	0.00000 0.15715 0.84285 0.05100
H 	H 	-0.00000 0.68570 0.84285 0.06600
H 	H 	0.00000 0.15715 0.31430 0.03600
H 	H 	0.50000 0.84285 0.15715 0.05200
H 	H 	0.50000 0.31430 0.15715 0.03600
H 	H 	0.50000 0.84285 0.68570 0.06700
H 	H 	-0.00000 0.60230 0.20460 0.04900
H 	H 	0.00000 0.60230 0.39770 0.05500
H 	H 	-0.00000 0.79540 0.39770 0.06100
H 	H 	0.50000 0.39770 0.79540 0.06300
H 	H 	0.50000 0.39770 0.60230 0.05600
H 	H 	0.50000 0.20460 0.60230 0.05100
H 	H 	-0.00000 0.39770 0.79540 0.06100
H 	H 	0.00000 0.39770 0.60230 0.05500
H 	H 	0.00000 0.20460 0.60230 0.04900
H 	H 	0.50000 0.60230 0.20460 0.05100
H 	H 	0.50000 0.60230 0.39770 0.05600
H 	H 	0.50000 0.79540 0.39770 0.06300
C 	C 	0.05240 0.80440 0.28470 0.00900
C 	C 	0.11750 0.90430 0.27630 0.32100
C 	C 	0.05320 0.84040 0.24810 -0.07800
C 	C 	0.05240 0.48030 0.19560 0.01200
C 	C 	0.11750 0.37200 0.09570 0.32700
C 	C 	0.05320 0.40770 0.15960 -0.09700
C 	C 	0.05240 0.71530 0.51970 0.00800
C 	C 	0.11750 0.72370 0.62800 0.32300
C 	C 	0.05320 0.75190 0.59230 -0.07700
C 	C 	0.55240 0.19560 0.71530 0.00800
C 	C 	0.61750 0.09570 0.72370 0.32500
C 	C 	0.55320 0.15960 0.75190 -0.08900
C 	C 	0.55240 0.51970 0.80440 0.00600
C 	C 	0.61750 0.62800 0.90430 0.32000
C 	C 	0.55320 0.59230 0.84040 -0.07100
C 	C 	0.55240 0.28470 0.48030 0.01000
C 	C 	0.61750 0.27630 0.37200 0.32900
C 	C 	0.55320 0.24810 0.40770 -0.09300
C 	C 	0.44760 0.51970 0.71530 0.00700
C 	C 	0.38250 0.62800 0.72370 0.32400
C 	C 	0.44680 0.59230 0.75190 -0.07700
C 	C 	0.44760 0.28470 0.80440 0.00800
C 	C 	0.38250 0.27630 0.90430 0.32200
C 	C 	0.44680 0.24810 0.84040 -0.07800
C 	C 	0.44760 0.19560 0.48030 0.01000
C 	C 	0.38250 0.09570 0.37200 0.32800
C 	C 	0.44680 0.15960 0.40770 -0.09800
C 	C 	0.94760 0.48030 0.28470 0.02100
C 	C 	0.88250 0.37200 0.27630 0.32700
C 	C 	0.94680 0.40770 0.24810 -0.08300
C 	C 	0.94760 0.71530 0.19560 0.02000
C 	C 	0.88250 0.72370 0.09570 0.32400
C 	C 	0.94680 0.75190 0.15960 -0.07900
C 	C 	0.94760 0.80440 0.51970 0.01700
C 	C 	0.88250 0.90430 0.62800 0.31800
C 	C 	0.94680 0.84040 0.59230 -0.06100
C 	C 	0.94760 0.19560 0.71530 0.02000
C 	C 	0.88250 0.09570 0.72370 0.32400
C 	C 	0.94680 0.15960 0.75190 -0.07900
C 	C 	0.94760 0.51970 0.80440 0.01700
C 	C 	0.88250 0.62800 0.90430 0.31800
C 	C 	0.94680 0.59230 0.84040 -0.06100
C 	C 	0.94760 0.28470 0.48030 0.02100
C 	C 	0.88250 0.27630 0.37200 0.32700
C 	C 	0.94680 0.24810 0.40770 -0.08300
C 	C 	0.44760 0.80440 0.28470 0.00800
C 	C 	0.38250 0.90430 0.27630 0.32200
C 	C 	0.44680 0.84040 0.24810 -0.07800
C 	C 	0.44760 0.48030 0.19560 0.01000
C 	C 	0.38250 0.37200 0.09570 0.32800
C 	C 	0.44680 0.40770 0.15960 -0.09800
C 	C 	0.44760 0.71530 0.51970 0.00700
C 	C 	0.38250 0.72370 0.62800 0.32400
C 	C 	0.44680 0.75190 0.59230 -0.07700
C 	C 	0.55240 0.48030 0.28470 0.01000
C 	C 	0.61750 0.37200 0.27630 0.32900
C 	C 	0.55320 0.40770 0.24810 -0.09300
C 	C 	0.55240 0.71530 0.19560 0.00800
C 	C 	0.61750 0.72370 0.09570 0.32500
C 	C 	0.55320 0.75190 0.15960 -0.08900
C 	C 	0.55240 0.80440 0.51970 0.00600
C 	C 	0.61750 0.90430 0.62800 0.32000
C 	C 	0.55320 0.84040 0.59230 -0.07100
C 	C 	0.05240 0.51970 0.71530 0.00800
C 	C 	0.11750 0.62800 0.72370 0.32300
C 	C 	0.05320 0.59230 0.75190 -0.07700
C 	C 	0.05240 0.28470 0.80440 0.00900
C 	C 	0.11750 0.27630 0.90430 0.32100
C 	C 	0.05320 0.24810 0.84040 -0.07800
C 	C 	0.05240 0.19560 0.48030 0.01200
C 	C 	0.11750 0.09570 0.37200 0.32700
C 	C 	0.05320 0.15960 0.40770 -0.09700
C 	C 	0.00000 0.70310 0.29690 0.05400
C 	C 	-0.00000 0.74125 0.25875 -0.03900
C 	C 	0.00000 0.81465 0.18535 0.02800
C 	C 	0.00000 0.59380 0.29690 0.05400
C 	C 	-0.00000 0.51750 0.25875 -0.04400
C 	C 	-0.00000 0.37070 0.18535 0.03100
C 	C 	0.00000 0.70310 0.40620 0.05400
C 	C 	-0.00000 0.74125 0.48250 -0.03500
C 	C 	-0.00000 0.81465 0.62930 0.02700
C 	C 	0.50000 0.29690 0.70310 0.05100
C 	C 	0.50000 0.25875 0.74125 -0.02600
C 	C 	0.50000 0.18535 0.81465 0.04100
C 	C 	0.50000 0.40620 0.70310 0.05100
C 	C 	0.50000 0.48250 0.74125 -0.02200
C 	C 	0.50000 0.62930 0.81465 0.04000
C 	C 	0.50000 0.29690 0.59380 0.05000
C 	C 	0.50000 0.25875 0.51750 -0.03100
C 	C 	0.50000 0.18535 0.37070 0.04300
C 	C 	0.00000 0.29690 0.70310 0.05400
C 	C 	-0.00000 0.25875 0.74125 -0.03900
C 	C 	0.00000 0.18535 0.81465 0.02800
C 	C 	0.00000 0.40620 0.70310 0.05400
C 	C 	-0.00000 0.48250 0.74125 -0.03500
C 	C 	-0.00000 0.62930 0.81465 0.02700
C 	C 	0.00000 0.29690 0.59380 0.05400
C 	C 	-0.00000 0.25875 0.51750 -0.04400
C 	C 	-0.00000 0.18535 0.37070 0.03100
C 	C 	0.50000 0.70310 0.29690 0.05100
C 	C 	0.50000 0.74125 0.25875 -0.02600
C 	C 	0.50000 0.81465 0.18535 0.04100
C 	C 	0.50000 0.59380 0.29690 0.05000
C 	C 	0.50000 0.51750 0.25875 -0.03100
C 	C 	0.50000 0.37070 0.18535 0.04300
C 	C 	0.50000 0.70310 0.40620 0.05100
C 	C 	0.50000 0.74125 0.48250 -0.02200
C 	C 	0.50000 0.81465 0.62930 0.04000
C 	C 	-0.00000 0.63060 0.26120 -0.09000
C 	C 	0.00000 0.63060 0.36940 -0.08900
C 	C 	0.00000 0.73880 0.36940 -0.08900
C 	C 	0.50000 0.36940 0.73880 -0.08300
C 	C 	0.50000 0.36940 0.63060 -0.08400
C 	C 	0.50000 0.26120 0.63060 -0.08500
C 	C 	0.00000 0.36940 0.73880 -0.08900
C 	C 	0.00000 0.36940 0.63060 -0.08900
C 	C 	-0.00000 0.26120 0.63060 -0.09000
C 	C 	0.50000 0.63060 0.26120 -0.08500
C 	C 	0.50000 0.63060 0.36940 -0.08400
C 	C 	0.50000 0.73880 0.36940 -0.08300
O 	O 	0.14230 0.92660 0.23560 -0.35400
O 	O 	0.14500 0.92920 0.33970 -0.35700
O 	O 	0.14230 0.30900 0.07340 -0.41700
O 	O 	0.14500 0.41050 0.07080 -0.42400
O 	O 	0.14230 0.76440 0.69100 -0.37400
O 	O 	0.14500 0.66030 0.58950 -0.39900
O 	O 	0.64230 0.07340 0.76440 -0.40100
O 	O 	0.64500 0.07080 0.66030 -0.42200
O 	O 	0.64230 0.69100 0.92660 -0.33900
O 	O 	0.64500 0.58950 0.92920 -0.35400
O 	O 	0.64230 0.23560 0.30900 -0.40100
O 	O 	0.64500 0.33970 0.41050 -0.40100
O 	O 	0.35770 0.69100 0.76440 -0.37300
O 	O 	0.35500 0.58950 0.66030 -0.39800
O 	O 	0.35770 0.23560 0.92660 -0.35300
O 	O 	0.35500 0.33970 0.92920 -0.35600
O 	O 	0.35770 0.07340 0.30900 -0.41600
O 	O 	0.35500 0.07080 0.41050 -0.42300
O 	O 	0.85770 0.30900 0.23560 -0.39800
O 	O 	0.85500 0.41050 0.33970 -0.39900
O 	O 	0.85770 0.76440 0.07340 -0.39800
O 	O 	0.85500 0.66030 0.07080 -0.42000
O 	O 	0.85770 0.92660 0.69100 -0.33600
O 	O 	0.85500 0.92920 0.58950 -0.35300
O 	O 	0.85770 0.07340 0.76440 -0.39800
O 	O 	0.85500 0.07080 0.66030 -0.42000
O 	O 	0.85770 0.69100 0.92660 -0.33600
O 	O 	0.85500 0.58950 0.92920 -0.35300
O 	O 	0.85770 0.23560 0.30900 -0.39800
O 	O 	0.85500 0.33970 0.41050 -0.39900
O 	O 	0.35770 0.92660 0.23560 -0.35300
O 	O 	0.35500 0.92920 0.33970 -0.35600
O 	O 	0.35770 0.30900 0.07340 -0.41600
O 	O 	0.35500 0.41050 0.07080 -0.42300
O 	O 	0.35770 0.76440 0.69100 -0.37300
O 	O 	0.35500 0.66030 0.58950 -0.39800
O 	O 	0.64230 0.30900 0.23560 -0.40100
O 	O 	0.64500 0.41050 0.33970 -0.40100
O 	O 	0.64230 0.76440 0.07340 -0.40100
O 	O 	0.64500 0.66030 0.07080 -0.42200
O 	O 	0.64230 0.92660 0.69100 -0.33900
O 	O 	0.64500 0.92920 0.58950 -0.35400
O 	O 	0.14230 0.69100 0.76440 -0.37400
O 	O 	0.14500 0.58950 0.66030 -0.39900
O 	O 	0.14230 0.23560 0.92660 -0.35400
O 	O 	0.14500 0.33970 0.92920 -0.35700
O 	O 	0.14230 0.07340 0.30900 -0.41700
O 	O 	0.14500 0.07080 0.41050 -0.42400
