data_crystal

_cell_length_a 12.83280
_cell_length_b 16.14390
_cell_length_c 16.27380
_cell_angle_alpha 84.64500
_cell_angle_beta  79.83700
_cell_angle_gamma 69.37200

_symmetry_space_group_name_	'P 1'
_symmetry_space_group_name_H-M	'P 1'

loop_
_symmetry_equiv_pos_as_xyz
  x,y,z

loop_
_atom_site_label
_atom_site_type_symbol
_atom_site_fract_x
_atom_site_fract_y
_atom_site_fract_z
_atom_site_charge
Ni	Ni	0.43663 0.28215 0.95583 1.13700
Ni	Ni	0.50235 0.73982 0.44236 1.11300
Ni	Ni	0.50530 0.76551 0.24832 1.14000
O 	O 	0.58210 0.82970 0.41030 -0.41900
O 	O 	0.59130 0.84216 0.27052 -0.41100
O 	O 	0.70660 0.07160 0.53620 -0.27900
O 	O 	0.59230 0.17750 0.46301 -0.40000
O 	O 	0.42240 0.68497 0.22639 -0.40900
O 	O 	0.48990 0.63080 0.09735 -0.40000
O 	O 	0.45360 0.31135 0.07724 -0.33700
O 	O 	0.30680 0.39190 0.01977 -0.34000
O 	O 	0.36190 0.19153 0.00760 -0.37800
O 	O 	0.22250 0.22710 0.93200 -0.30600
O 	O 	0.41500 0.87165 0.18195 -0.41800
O 	O 	0.41570 0.81917 0.06015 -0.41400
O 	O 	0.58960 0.66979 0.33379 -0.50200
O 	O 	0.67840 0.56323 0.24337 -0.29800
O 	O 	0.72690 0.29160 0.57965 -0.31000
O 	O 	0.57420 0.35012 0.51682 -0.40700
O 	O 	0.39070 0.80092 0.35697 -0.67200
H 	H 	0.33090 0.77630 0.36130 0.26000
H 	H 	0.35850 0.86460 0.36250 0.24500
O 	O 	0.36840 0.29084 0.84911 -0.68700
H 	H 	0.32960 0.35250 0.83490 0.25100
H 	H 	0.31390 0.26050 0.85820 0.25100
C 	C 	0.61000 0.86020 0.33860 0.38200
C 	C 	0.67020 0.92560 0.33430 -0.12700
C 	C 	0.74960 0.92960 0.26720 0.06700
H 	H 	0.76580 0.89230 0.22300 0.02700
C 	C 	0.80620 0.98920 0.26490 -0.13400
H 	H 	0.86150 0.98940 0.21960 0.08200
C 	C 	0.78340 0.04810 0.32760 0.08500
C 	C 	0.70120 0.04430 0.39690 -0.12300
C 	C 	0.64740 0.98330 0.39930 0.06900
H 	H 	0.59440 0.98070 0.44550 0.03000
C 	C 	0.66530 0.10420 0.46960 0.35700
C 	C 	0.80590 0.19600 0.34040 -0.04400
H 	H 	0.73030 0.22040 0.36330 0.06700
C 	C 	0.85040 0.10780 0.32120 0.00400
C 	C 	0.96370 0.07520 0.28970 -0.04700
H 	H 	0.99720 0.01550 0.27770 0.05400
C 	C 	0.02870 0.12910 0.27550 -0.04700
H 	H 	0.10490 0.10450 0.25420 0.05500
C 	C 	0.98400 0.21850 0.29200 0.00700
C 	C 	0.87280 0.24860 0.32620 -0.04800
H 	H 	0.84010 0.30760 0.34070 0.05700
C 	C 	0.02650 0.34990 0.31120 -0.02500
H 	H 	0.96220 0.36710 0.35120 0.04200
C 	C 	0.09180 0.40350 0.29160 -0.03900
H 	H 	0.06720 0.45660 0.31910 0.04200
C 	C 	0.23060 0.29800 0.20970 -0.03800
H 	H 	0.30330 0.27690 0.18020 0.06300
C 	C 	0.16720 0.24140 0.22600 -0.04200
H 	H 	0.19600 0.18390 0.20690 0.05400
C 	C 	0.05460 0.27580 0.27390 0.03600
C 	C 	0.18740 0.38560 0.23660 0.01200
C 	C 	0.25370 0.44720 0.21800 0.05600
C 	C 	0.23840 0.51180 0.27480 -0.10900
H 	H 	0.18710 0.51550 0.32370 0.06800
C 	C 	0.29660 0.57000 0.26090 0.04200
H 	H 	0.28510 0.61150 0.30070 0.03900
C 	C 	0.37230 0.56750 0.18840 -0.10600
C 	C 	0.39070 0.50320 0.13210 0.04800
H 	H 	0.44280 0.49980 0.08380 0.04700
C 	C 	0.33340 0.44330 0.14560 -0.09200
C 	C 	0.43400 0.63260 0.16950 0.37900
C 	C 	0.36510 0.37650 0.07830 0.29800
C 	C 	0.27670 0.18190 0.98650 0.34200
C 	C 	0.24140 0.10710 0.02840 -0.12200
C 	C 	0.13070 0.11270 0.03770 0.05800
H 	H 	0.07770 0.16310 0.01810 0.02200
C 	C 	0.09710 0.04350 0.07620 -0.13800
H 	H 	0.02140 0.04940 0.08350 0.08100
C 	C 	0.17420 0.96580 0.10410 0.09000
C 	C 	0.28850 0.95960 0.09330 -0.14000
C 	C 	0.31900 0.03070 0.05640 0.07600
H 	H 	0.39400 0.02670 0.05050 0.03000
C 	C 	0.38030 0.87560 0.11390 0.40200
C 	C 	0.13210 0.89570 0.14540 -0.02300
C 	C 	0.16240 0.85390 0.22020 -0.01700
H 	H 	0.21640 0.86640 0.24320 0.04500
C 	C 	0.11480 0.79410 0.26170 -0.08100
H 	H 	0.13660 0.76760 0.31210 0.07500
C 	C 	0.03470 0.77300 0.22890 0.03800
C 	C 	0.00670 0.81210 0.15170 -0.07900
H 	H 	0.95620 0.79700 0.12690 0.07000
C 	C 	0.05370 0.87270 0.11210 -0.02000
H 	H 	0.03230 0.89920 0.06160 0.04000
C 	C 	0.97930 0.71220 0.27320 0.01800
C 	C 	0.95000 0.71150 0.35940 -0.06600
H 	H 	0.96720 0.74940 0.39000 0.06000
C 	C 	0.89560 0.65550 0.40120 -0.03600
H 	H 	0.87700 0.65670 0.45910 0.03800
C 	C 	0.86880 0.59830 0.35810 -0.02100
C 	C 	0.89680 0.59760 0.27150 -0.03800
H 	H 	0.87960 0.55930 0.24120 0.05900
C 	C 	0.95080 0.65450 0.23060 -0.06100
H 	H 	0.96830 0.65400 0.17260 0.06500
C 	C 	0.81290 0.53650 0.40320 0.08300
C 	C 	0.86040 0.48010 0.46640 -0.14900
H 	H 	0.92580 0.48280 0.48130 0.07400
C 	C 	0.81410 0.42000 0.50800 0.06100
H 	H 	0.84910 0.38240 0.54950 0.01800
C 	C 	0.71590 0.41520 0.48850 -0.13500
C 	C 	0.66480 0.47320 0.42660 0.07500
H 	H 	0.59750 0.47200 0.41380 0.02600
C 	C 	0.71270 0.53250 0.38380 -0.16400
C 	C 	0.65590 0.59210 0.31600 0.37500
C 	C 	0.66860 0.34730 0.53190 0.36000
C 	C 	0.08730 0.30920 0.33560 -0.05700
H 	H 	0.06370 0.29670 0.39120 0.05000
C 	C 	0.15470 0.36130 0.31670 -0.01700
H 	H 	0.17840 0.38030 0.36000 0.03100
C 	C 	0.13880 0.36380 0.17500 -0.03700
H 	H 	0.14830 0.38730 0.12100 0.06500
C 	C 	0.07730 0.30840 0.19340 -0.04500
H 	H 	0.04990 0.29210 0.15060 0.05600
Ni	Ni	0.56337 0.71785 0.04417 1.13800
Ni	Ni	0.49765 0.26018 0.55764 1.11400
Ni	Ni	0.49470 0.23449 0.75168 1.14100
O 	O 	0.41790 0.17030 0.58970 -0.41800
O 	O 	0.40870 0.15784 0.72948 -0.41000
O 	O 	0.29340 0.92840 0.46380 -0.27800
O 	O 	0.40770 0.82250 0.53699 -0.39900
O 	O 	0.57760 0.31503 0.77361 -0.40800
O 	O 	0.51010 0.36920 0.90265 -0.39900
O 	O 	0.54640 0.68865 0.92276 -0.33600
O 	O 	0.69320 0.60810 0.98023 -0.34000
O 	O 	0.63810 0.80847 0.99240 -0.37800
O 	O 	0.77750 0.77290 0.06800 -0.30600
O 	O 	0.58500 0.12835 0.81805 -0.41800
O 	O 	0.58430 0.18083 0.93985 -0.41400
O 	O 	0.41040 0.33021 0.66621 -0.50200
O 	O 	0.32160 0.43677 0.75663 -0.29800
O 	O 	0.27310 0.70840 0.42035 -0.31000
O 	O 	0.42580 0.64988 0.48318 -0.40700
O 	O 	0.60930 0.19908 0.64303 -0.67200
H 	H 	0.66910 0.22370 0.63870 0.26000
H 	H 	0.64150 0.13540 0.63750 0.24500
O 	O 	0.63160 0.70916 0.15089 -0.68700
H 	H 	0.67040 0.64750 0.16510 0.25100
H 	H 	0.68610 0.73950 0.14180 0.25100
C 	C 	0.39000 0.13980 0.66140 0.38200
C 	C 	0.32980 0.07440 0.66570 -0.12700
C 	C 	0.25040 0.07040 0.73280 0.06700
H 	H 	0.23420 0.10770 0.77700 0.02700
C 	C 	0.19380 0.01080 0.73510 -0.13400
H 	H 	0.13850 0.01060 0.78040 0.08200
C 	C 	0.21660 0.95190 0.67240 0.08500
C 	C 	0.29880 0.95570 0.60310 -0.12300
C 	C 	0.35260 0.01670 0.60070 0.06900
H 	H 	0.40560 0.01930 0.55450 0.03000
C 	C 	0.33470 0.89580 0.53040 0.35700
C 	C 	0.19410 0.80400 0.65960 -0.04400
H 	H 	0.26970 0.77960 0.63670 0.06700
C 	C 	0.14960 0.89220 0.67880 0.00400
C 	C 	0.03630 0.92480 0.71030 -0.04700
H 	H 	0.00280 0.98450 0.72230 0.05400
C 	C 	0.97130 0.87090 0.72450 -0.04700
H 	H 	0.89510 0.89550 0.74580 0.05500
C 	C 	0.01600 0.78150 0.70800 0.00700
C 	C 	0.12720 0.75140 0.67380 -0.04800
H 	H 	0.15990 0.69240 0.65930 0.05700
C 	C 	0.97350 0.65010 0.68880 -0.02500
H 	H 	0.03780 0.63290 0.64880 0.04200
C 	C 	0.90820 0.59650 0.70840 -0.03900
H 	H 	0.93280 0.54340 0.68090 0.04200
C 	C 	0.76940 0.70200 0.79030 -0.03800
H 	H 	0.69670 0.72310 0.81980 0.06300
C 	C 	0.83280 0.75860 0.77400 -0.04200
H 	H 	0.80400 0.81610 0.79310 0.05400
C 	C 	0.94540 0.72420 0.72610 0.03600
C 	C 	0.81260 0.61440 0.76340 0.01200
C 	C 	0.74630 0.55280 0.78200 0.05600
C 	C 	0.76160 0.48820 0.72520 -0.10900
H 	H 	0.81290 0.48450 0.67630 0.06800
C 	C 	0.70340 0.43000 0.73910 0.04200
H 	H 	0.71490 0.38850 0.69930 0.03900
C 	C 	0.62770 0.43250 0.81160 -0.10600
C 	C 	0.60930 0.49680 0.86790 0.04800
H 	H 	0.55720 0.50020 0.91620 0.04700
C 	C 	0.66660 0.55670 0.85440 -0.09200
C 	C 	0.56600 0.36740 0.83050 0.37900
C 	C 	0.63490 0.62350 0.92170 0.29800
C 	C 	0.72330 0.81810 0.01350 0.34200
C 	C 	0.75860 0.89290 0.97160 -0.12200
C 	C 	0.86930 0.88730 0.96230 0.05800
H 	H 	0.92230 0.83690 0.98190 0.02200
C 	C 	0.90290 0.95650 0.92380 -0.13800
H 	H 	0.97860 0.95060 0.91650 0.08100
C 	C 	0.82580 0.03420 0.89590 0.09000
C 	C 	0.71150 0.04040 0.90670 -0.14000
C 	C 	0.68100 0.96930 0.94360 0.07600
H 	H 	0.60600 0.97330 0.94950 0.03000
C 	C 	0.61970 0.12440 0.88610 0.40200
C 	C 	0.86790 0.10430 0.85460 -0.02300
C 	C 	0.83760 0.14610 0.77980 -0.01700
H 	H 	0.78360 0.13360 0.75680 0.04500
C 	C 	0.88520 0.20590 0.73830 -0.08100
H 	H 	0.86340 0.23240 0.68790 0.07500
C 	C 	0.96530 0.22700 0.77110 0.03800
C 	C 	0.99330 0.18790 0.84830 -0.07900
H 	H 	0.04380 0.20300 0.87310 0.07000
C 	C 	0.94630 0.12730 0.88790 -0.02000
H 	H 	0.96770 0.10080 0.93840 0.04000
C 	C 	0.02070 0.28780 0.72680 0.01800
C 	C 	0.05000 0.28850 0.64060 -0.06600
H 	H 	0.03280 0.25060 0.61000 0.06000
C 	C 	0.10440 0.34450 0.59880 -0.03600
H 	H 	0.12300 0.34330 0.54090 0.03800
C 	C 	0.13120 0.40170 0.64190 -0.02100
C 	C 	0.10320 0.40240 0.72850 -0.03800
H 	H 	0.12040 0.44070 0.75880 0.05900
C 	C 	0.04920 0.34550 0.76940 -0.06100
H 	H 	0.03170 0.34600 0.82740 0.06500
C 	C 	0.18710 0.46350 0.59680 0.08300
C 	C 	0.13960 0.51990 0.53360 -0.14900
H 	H 	0.07420 0.51720 0.51870 0.07400
C 	C 	0.18590 0.58000 0.49200 0.06100
H 	H 	0.15090 0.61760 0.45050 0.01800
C 	C 	0.28410 0.58480 0.51150 -0.13500
C 	C 	0.33520 0.52680 0.57340 0.07500
H 	H 	0.40250 0.52800 0.58620 0.02600
C 	C 	0.28730 0.46750 0.61620 -0.16400
C 	C 	0.34410 0.40790 0.68400 0.37500
C 	C 	0.33140 0.65270 0.46810 0.36000
C 	C 	0.91270 0.69080 0.66440 -0.05700
H 	H 	0.93630 0.70330 0.60880 0.05000
C 	C 	0.84530 0.63870 0.68330 -0.01700
H 	H 	0.82160 0.61970 0.64000 0.03100
C 	C 	0.86120 0.63620 0.82500 -0.03700
H 	H 	0.85170 0.61270 0.87900 0.06500
C 	C 	0.92270 0.69160 0.80660 -0.04500
H 	H 	0.95010 0.70790 0.84940 0.05600
