data_crystal

_cell_length_a 12.23600
_cell_length_b 27.17900
_cell_length_c 12.46700
_cell_angle_alpha 90.00000
_cell_angle_beta  109.75400
_cell_angle_gamma 90.00000

_symmetry_space_group_name_	'P 1'
_symmetry_space_group_name_H-M	'P 1'

loop_
_symmetry_equiv_pos_as_xyz
  x,y,z

loop_
_atom_site_label
_atom_site_type_symbol
_atom_site_fract_x
_atom_site_fract_y
_atom_site_fract_z
_atom_site_charge
Cd	Cd	0.90407 0.10873 0.09917 1.23300
C 	C 	0.91750 0.20640 0.10380 0.32300
C 	C 	0.94560 0.26050 0.11390 -0.09200
C 	C 	0.01640 0.27960 0.21610 0.02000
H 	H 	0.04200 0.25880 0.27890 0.04000
C 	C 	0.05180 0.32920 0.22950 -0.10700
H 	H 	0.09870 0.34130 0.29980 0.08300
C 	C 	0.01490 0.35880 0.13620 0.04000
H 	H 	0.03850 0.39150 0.14170 0.01300
C 	C 	0.94300 0.34060 0.03370 -0.15300
H 	H 	0.91720 0.36170 0.97140 0.10500
C 	C 	0.90740 0.29150 0.02020 0.06100
C 	C 	0.66240 0.40960 0.61120 0.37200
C 	C 	0.78060 0.38790 0.64170 -0.10000
C 	C 	0.82170 0.35140 0.72530 0.05400
C 	C 	0.93590 0.33300 0.74850 -0.05900
H 	H 	0.96270 0.30830 0.80250 0.06800
C 	C 	0.00780 0.35070 0.69380 -0.05200
H 	H 	0.08250 0.33820 0.71070 0.05400
C 	C 	0.96770 0.38740 0.61310 -0.01500
H 	H 	0.01520 0.40000 0.57510 0.04000
C 	C 	0.85630 0.40510 0.58970 -0.00200
H 	H 	0.83090 0.43000 0.53580 0.05300
C 	C 	0.74520 0.56320 0.59240 0.36100
C 	C 	0.81350 0.53310 0.69430 -0.14500
C 	C 	0.75640 0.51380 0.76220 0.06100
H 	H 	0.67790 0.52100 0.74470 0.02100
C 	C 	0.80890 0.48480 0.85380 -0.12200
H 	H 	0.76810 0.47280 0.89910 0.08400
C 	C 	0.92470 0.47360 0.87750 0.04800
H 	H 	0.96250 0.45380 0.93990 0.02500
C 	C 	0.98420 0.49110 0.81130 -0.11400
H 	H 	0.06220 0.48300 0.82870 0.07100
C 	C 	0.92910 0.52110 0.71690 0.09400
C 	C 	0.25790 0.53090 0.78250 0.06600
C 	C 	0.23410 0.56510 0.85530 -0.09000
H 	H 	0.15720 0.57310 0.84480 0.06600
C 	C 	0.32110 0.58720 0.94180 -0.01300
H 	H 	0.30320 0.60980 0.98940 0.04900
C 	C 	0.43420 0.57570 0.95760 -0.02100
H 	H 	0.49340 0.59050 0.01640 0.02900
C 	C 	0.46120 0.54300 0.88840 0.00800
H 	H 	0.53860 0.53570 0.89990 0.04600
C 	C 	0.37410 0.52020 0.80030 -0.10800
C 	C 	0.40650 0.48380 0.72490 0.38400
O 	O 	0.91050 0.18440 0.18950 -0.36800
O 	O 	0.91110 0.18560 0.01430 -0.37800
O 	O 	0.79680 0.58960 0.54400 -0.35700
O 	O 	0.63470 0.56090 0.55920 -0.52000
O 	O 	0.47470 0.49710 0.67650 -0.43300
O 	O 	0.36320 0.44160 0.71760 -0.42900
O 	O 	0.59770 0.39220 0.66100 -0.42300
O 	O 	0.63610 0.44310 0.53620 -0.42500
S 	S 	0.15140 0.50155 0.66700 -0.01700
S 	S 	0.00670 0.54436 0.62990 -0.02900
S 	S 	0.72840 0.32799 0.79700 0.00500
S 	S 	0.81500 0.26829 0.88650 0.02300
Cd	Cd	0.59593 0.60873 0.40083 1.23800
C 	C 	0.58250 0.70640 0.39620 0.33100
C 	C 	0.55440 0.76050 0.38610 -0.11200
C 	C 	0.48360 0.77960 0.28390 0.04700
H 	H 	0.45800 0.75880 0.22110 0.03200
C 	C 	0.44820 0.82920 0.27050 -0.11700
H 	H 	0.40130 0.84130 0.20020 0.08600
C 	C 	0.48510 0.85880 0.36380 0.04800
H 	H 	0.46150 0.89150 0.35830 0.01800
C 	C 	0.55700 0.84060 0.46630 -0.13100
H 	H 	0.58280 0.86170 0.52860 0.07800
C 	C 	0.59260 0.79150 0.47980 0.08000
C 	C 	0.83760 0.90960 0.88880 0.38400
C 	C 	0.71940 0.88790 0.85830 -0.13500
C 	C 	0.67830 0.85140 0.77470 0.09000
C 	C 	0.56410 0.83300 0.75150 -0.13800
H 	H 	0.53730 0.80830 0.69750 0.08900
C 	C 	0.49220 0.85070 0.80620 0.06400
H 	H 	0.41750 0.83820 0.78930 0.01700
C 	C 	0.53230 0.88740 0.88690 -0.13000
H 	H 	0.48480 0.90000 0.92490 0.09900
C 	C 	0.64370 0.90510 0.91030 0.07100
H 	H 	0.66910 0.93000 0.96420 0.03600
C 	C 	0.75480 0.06320 0.90760 0.33900
C 	C 	0.68650 0.03310 0.80570 -0.09700
C 	C 	0.74360 0.01380 0.73780 -0.02700
H 	H 	0.82210 0.02100 0.75530 0.04800
C 	C 	0.69110 0.98480 0.64620 -0.03300
H 	H 	0.73190 0.97280 0.60090 0.05100
C 	C 	0.57530 0.97360 0.62250 -0.01600
H 	H 	0.53750 0.95380 0.56010 0.03900
C 	C 	0.51580 0.99110 0.68870 -0.06200
H 	H 	0.43780 0.98300 0.67130 0.06400
C 	C 	0.57090 0.02110 0.78310 0.03400
C 	C 	0.24210 0.03090 0.71750 0.09400
C 	C 	0.26590 0.06510 0.64470 -0.14000
H 	H 	0.34280 0.07310 0.65520 0.08200
C 	C 	0.17890 0.08720 0.55820 0.05300
H 	H 	0.19680 0.10980 0.51060 0.01500
C 	C 	0.06580 0.07570 0.54240 -0.12300
H 	H 	0.00660 0.09050 0.48360 0.07600
C 	C 	0.03880 0.04300 0.61160 0.04600
H 	H 	0.96140 0.03570 0.60010 0.03000
C 	C 	0.12590 0.02020 0.69970 -0.15300
C 	C 	0.09350 0.98380 0.77510 0.41100
O 	O 	0.58950 0.68440 0.31050 -0.37300
O 	O 	0.58890 0.68560 0.48570 -0.36900
O 	O 	0.70320 0.08960 0.95600 -0.34300
O 	O 	0.86530 0.06090 0.94080 -0.49900
O 	O 	0.02530 0.99710 0.82350 -0.43000
O 	O 	0.13680 0.94160 0.78240 -0.43100
O 	O 	0.90230 0.89220 0.83900 -0.41800
O 	O 	0.86390 0.94310 0.96380 -0.40500
S 	S 	0.34860 0.00155 0.83300 -0.03200
S 	S 	0.49330 0.04436 0.87010 0.00800
S 	S 	0.77160 0.82799 0.70300 -0.00100
S 	S 	0.68500 0.76829 0.61350 -0.00400
Cd	Cd	0.09593 0.89127 0.90083 1.24100
C 	C 	0.08250 0.79360 0.89620 0.34000
C 	C 	0.05440 0.73950 0.88610 -0.13900
C 	C 	0.98360 0.72040 0.78390 0.08300
H 	H 	0.95800 0.74120 0.72110 0.02600
C 	C 	0.94820 0.67080 0.77050 -0.13700
H 	H 	0.90130 0.65870 0.70020 0.09700
C 	C 	0.98510 0.64120 0.86380 0.07200
H 	H 	0.96150 0.60850 0.85830 0.01900
C 	C 	0.05700 0.65940 0.96630 -0.12200
H 	H 	0.08280 0.63830 0.02860 0.05800
C 	C 	0.09260 0.70850 0.97980 0.10400
C 	C 	0.33760 0.59040 0.38880 0.40100
C 	C 	0.21940 0.61210 0.35830 -0.18100
C 	C 	0.17830 0.64860 0.27470 0.12700
C 	C 	0.06410 0.66700 0.25150 -0.21800
H 	H 	0.03730 0.69170 0.19750 0.10900
C 	C 	0.99220 0.64930 0.30620 0.17200
H 	H 	0.91750 0.66180 0.28930 -0.02300
C 	C 	0.03230 0.61260 0.38690 -0.24700
H 	H 	0.98480 0.60000 0.42490 0.13900
C 	C 	0.14370 0.59490 0.41030 0.14200
H 	H 	0.16910 0.57000 0.46420 0.00200
C 	C 	0.25480 0.43680 0.40760 0.36400
C 	C 	0.18650 0.46690 0.30570 -0.15800
C 	C 	0.24360 0.48620 0.23780 0.08000
H 	H 	0.32210 0.47900 0.25530 0.01200
C 	C 	0.19110 0.51520 0.14620 -0.15900
H 	H 	0.23190 0.52720 0.10090 0.08400
C 	C 	0.07530 0.52640 0.12250 0.08900
H 	H 	0.03750 0.54620 0.06010 -0.01200
C 	C 	0.01580 0.50890 0.18870 -0.18600
H 	H 	0.93780 0.51700 0.17130 0.10400
C 	C 	0.07090 0.47890 0.28310 0.09600
C 	C 	0.74210 0.46910 0.21750 0.13100
C 	C 	0.76590 0.43490 0.14470 -0.21200
H 	H 	0.84280 0.42690 0.15520 0.10700
C 	C 	0.67890 0.41280 0.05820 0.16000
H 	H 	0.69680 0.39020 0.01060 -0.03100
C 	C 	0.56580 0.42430 0.04240 -0.27700
H 	H 	0.50660 0.40950 0.98360 0.15400
C 	C 	0.53880 0.45700 0.11160 0.16300
H 	H 	0.46140 0.46430 0.10010 -0.02200
C 	C 	0.62590 0.47980 0.19970 -0.19100
C 	C 	0.59350 0.51620 0.27510 0.41100
O 	O 	0.08950 0.81560 0.81050 -0.37600
O 	O 	0.08890 0.81440 0.98570 -0.36300
O 	O 	0.20320 0.41040 0.45600 -0.36200
O 	O 	0.36530 0.43910 0.44080 -0.52100
O 	O 	0.52530 0.50290 0.32350 -0.44200
O 	O 	0.63680 0.55840 0.28240 -0.43800
O 	O 	0.40230 0.60780 0.33900 -0.43300
O 	O 	0.36390 0.55690 0.46380 -0.43200
S 	S 	0.84860 0.49845 0.33300 -0.03300
S 	S 	0.99330 0.45564 0.37010 0.00400
S 	S 	0.27160 0.67201 0.20300 -0.01800
S 	S 	0.18500 0.73171 0.11350 -0.03300
Cd	Cd	0.40407 0.39127 0.59917 1.23700
C 	C 	0.41750 0.29360 0.60380 0.33100
C 	C 	0.44560 0.23950 0.61390 -0.11300
C 	C 	0.51640 0.22040 0.71610 0.05000
H 	H 	0.54200 0.24120 0.77890 0.03600
C 	C 	0.55180 0.17080 0.72950 -0.11800
H 	H 	0.59870 0.15870 0.79980 0.09200
C 	C 	0.51490 0.14120 0.63620 0.05300
H 	H 	0.53850 0.10850 0.64170 0.01600
C 	C 	0.44300 0.15940 0.53370 -0.13300
H 	H 	0.41720 0.13830 0.47140 0.08000
C 	C 	0.40740 0.20850 0.52020 0.08200
C 	C 	0.16240 0.09040 0.11120 0.38800
C 	C 	0.28060 0.11210 0.14170 -0.14900
C 	C 	0.32170 0.14860 0.22530 0.09300
C 	C 	0.43590 0.16700 0.24850 -0.14500
H 	H 	0.46270 0.19170 0.30250 0.08900
C 	C 	0.50780 0.14930 0.19380 0.06300
H 	H 	0.58250 0.16180 0.21070 0.01200
C 	C 	0.46770 0.11260 0.11310 -0.13900
H 	H 	0.51520 0.10000 0.07510 0.08300
C 	C 	0.35630 0.09490 0.08970 0.07300
H 	H 	0.33090 0.07000 0.03580 0.01700
C 	C 	0.24520 0.93680 0.09240 0.38600
C 	C 	0.31350 0.96690 0.19430 -0.20800
C 	C 	0.25640 0.98620 0.26220 0.17400
H 	H 	0.17790 0.97900 0.24470 -0.01500
C 	C 	0.30890 0.01520 0.35380 -0.25600
H 	H 	0.26810 0.02720 0.39910 0.11900
C 	C 	0.42470 0.02640 0.37750 0.16000
H 	H 	0.46250 0.04620 0.43990 -0.02800
C 	C 	0.48420 0.00890 0.31130 -0.24700
H 	H 	0.56220 0.01700 0.32870 0.11400
C 	C 	0.42910 0.97890 0.21690 0.16000
C 	C 	0.75790 0.96910 0.28250 0.10000
C 	C 	0.73410 0.93490 0.35530 -0.15700
H 	H 	0.65720 0.92690 0.34480 0.09000
C 	C 	0.82110 0.91280 0.44180 0.08800
H 	H 	0.80320 0.89020 0.48940 0.00600
C 	C 	0.93420 0.92430 0.45760 -0.16700
H 	H 	0.99340 0.90950 0.51640 0.10400
C 	C 	0.96120 0.95700 0.38840 0.11700
H 	H 	0.03860 0.96430 0.39990 -0.00200
C 	C 	0.87410 0.97980 0.30030 -0.14100
C 	C 	0.90650 0.01620 0.22490 0.38100
O 	O 	0.41050 0.31560 0.68950 -0.37100
O 	O 	0.41110 0.31440 0.51430 -0.37000
O 	O 	0.29680 0.91040 0.04400 -0.37600
O 	O 	0.13470 0.93910 0.05920 -0.53500
O 	O 	0.97470 0.00290 0.17650 -0.44100
O 	O 	0.86320 0.05840 0.21760 -0.43600
O 	O 	0.09770 0.10780 0.16100 -0.43800
O 	O 	0.13610 0.05690 0.03620 -0.44700
S 	S 	0.65140 0.99845 0.16700 -0.01600
S 	S 	0.50670 0.95564 0.12990 -0.03200
S 	S 	0.22840 0.17201 0.29700 -0.01200
S 	S 	0.31500 0.23171 0.38650 -0.00900
Cd	Cd	0.50000 0.50000 0.50000 1.24700
Cd	Cd	-0.00000 0.00000 -0.00000 1.22800
