data_crystal

_cell_length_a 14.94580
_cell_length_b 26.46620
_cell_length_c 15.37280
_cell_angle_alpha 90.00000
_cell_angle_beta  110.01000
_cell_angle_gamma 90.00000

_symmetry_space_group_name_	'P 1'
_symmetry_space_group_name_H-M	'P 1'

loop_
_symmetry_equiv_pos_as_xyz
  x,y,z

loop_
_atom_site_label
_atom_site_type_symbol
_atom_site_fract_x
_atom_site_fract_y
_atom_site_fract_z
_atom_site_charge
Cd	Cd	0.02120 0.09597 0.51807 1.06700
C 	C 	0.09560 0.28046 0.51190 0.16900
H 	H 	0.09120 0.30070 0.55960 -0.03000
C 	C 	0.07550 0.23062 0.51530 -0.31600
C 	C 	0.08460 0.19787 0.44350 0.32900
C 	C 	0.10900 0.22348 0.37150 -0.21600
C 	C 	0.12330 0.27490 0.37080 0.18500
C 	C 	0.04780 0.21354 0.59570 0.43000
C 	C 	0.14780 0.35768 0.45190 0.25900
H 	H 	0.19900 0.36270 0.42750 -0.08100
H 	H 	0.17080 0.36780 0.51650 -0.08500
C 	C 	0.06550 0.39000 0.39990 -0.64700
H 	H 	0.08510 0.42470 0.40520 0.15500
H 	H 	0.01540 0.38580 0.42510 0.17900
H 	H 	0.04290 0.38030 0.33590 0.18300
N 	N 	0.14040 0.29956 0.30187 -0.17800
C 	C 	0.14460 0.27028 0.23180 0.15800
N 	N 	0.13770 0.21910 0.22777 -0.18300
C 	C 	0.11930 0.19713 0.29600 0.11900
H 	H 	0.11260 0.16220 0.29460 -0.05100
C 	C 	0.19500 0.26506 0.09800 -0.21800
H 	H 	0.17600 0.23460 0.09340 0.09100
H 	H 	0.17730 0.27800 0.04410 0.09800
C 	C 	0.30180 0.26697 0.14090 0.01900
H 	H 	0.32100 0.24890 0.19930 0.01400
H 	H 	0.32940 0.24970 0.10060 -0.00900
C 	C 	0.28740 0.35177 0.20110 -0.03900
H 	H 	0.30410 0.38670 0.19480 -0.06700
H 	H 	0.30770 0.34410 0.26670 -0.00000
C 	C 	0.18130 0.34652 0.16100 -0.03800
H 	H 	0.15220 0.36510 0.19880 0.00300
H 	H 	0.15850 0.36070 0.09910 -0.00500
O 	O 	0.07352 0.15106 0.43838 -0.52200
O 	O 	0.04144 0.16693 0.61028 -0.64000
O 	O 	0.03350 0.24577 0.64850 -0.44400
N 	N 	0.12150 0.30341 0.44529 -0.20700
N 	N 	0.15408 0.29335 0.15735 -0.11100
N 	N 	0.34056 0.31879 0.15769 -0.26100
H 	H 	0.33620 0.33250 0.10210 0.03300
Cd	Cd	0.97880 0.09597 0.98193 1.09200
C 	C 	0.90440 0.28046 0.98810 0.17900
H 	H 	0.90880 0.30070 0.94040 -0.01900
C 	C 	0.92450 0.23062 0.98470 -0.30000
C 	C 	0.91540 0.19787 0.05650 0.34300
C 	C 	0.89100 0.22348 0.12850 -0.20300
C 	C 	0.87670 0.27490 0.12920 0.20500
C 	C 	0.95220 0.21354 0.90430 0.43200
C 	C 	0.85220 0.35768 0.04810 0.40700
H 	H 	0.80100 0.36270 0.07250 -0.12100
H 	H 	0.82920 0.36780 0.98350 -0.12400
C 	C 	0.93450 0.39000 0.10010 -0.90200
H 	H 	0.91490 0.42470 0.09480 0.25800
H 	H 	0.98460 0.38580 0.07490 0.29600
H 	H 	0.95710 0.38030 0.16410 0.29800
N 	N 	0.85960 0.29956 0.19813 -0.17300
C 	C 	0.85540 0.27028 0.26820 0.17500
N 	N 	0.86230 0.21910 0.27223 -0.16900
C 	C 	0.88070 0.19713 0.20400 0.13500
H 	H 	0.88740 0.16220 0.20540 -0.03300
C 	C 	0.80500 0.26506 0.40200 -0.33500
H 	H 	0.82400 0.23460 0.40660 0.15300
H 	H 	0.82270 0.27800 0.45590 0.15800
C 	C 	0.69820 0.26697 0.35910 0.07800
H 	H 	0.67900 0.24890 0.30070 -0.00200
H 	H 	0.67060 0.24970 0.39940 -0.02600
C 	C 	0.71260 0.35177 0.29890 -0.02300
H 	H 	0.69590 0.38670 0.30520 -0.06600
H 	H 	0.69230 0.34410 0.23330 -0.00400
C 	C 	0.81870 0.34652 0.33900 -0.06500
H 	H 	0.84780 0.36510 0.30120 0.03500
H 	H 	0.84150 0.36070 0.40090 0.03000
O 	O 	0.92648 0.15106 0.06162 -0.49300
O 	O 	0.95856 0.16693 0.88972 -0.60400
O 	O 	0.96650 0.24577 0.85150 -0.39600
N 	N 	0.87850 0.30341 0.05471 -0.22000
N 	N 	0.84592 0.29335 0.34265 -0.07800
N 	N 	0.65944 0.31879 0.34231 -0.27100
H 	H 	0.66380 0.33250 0.39790 0.03700
Cd	Cd	0.50000 0.31720 0.25000 1.17700
Cd	Cd	0.97880 0.90403 0.48193 1.09400
C 	C 	0.90440 0.71954 0.48810 0.18200
H 	H 	0.90880 0.69930 0.44040 -0.01900
C 	C 	0.92450 0.76938 0.48470 -0.29400
C 	C 	0.91540 0.80213 0.55650 0.33700
C 	C 	0.89100 0.77652 0.62850 -0.20200
C 	C 	0.87670 0.72510 0.62920 0.20300
C 	C 	0.95220 0.78646 0.40430 0.43100
C 	C 	0.85220 0.64232 0.54810 0.38700
H 	H 	0.80100 0.63730 0.57250 -0.11600
H 	H 	0.82920 0.63220 0.48350 -0.11400
C 	C 	0.93450 0.61000 0.60010 -0.87900
H 	H 	0.91490 0.57530 0.59480 0.25000
H 	H 	0.98460 0.61420 0.57490 0.28800
H 	H 	0.95710 0.61970 0.66410 0.29100
N 	N 	0.85960 0.70044 0.69813 -0.17200
C 	C 	0.85540 0.72972 0.76820 0.17500
N 	N 	0.86230 0.78090 0.77223 -0.16900
C 	C 	0.88070 0.80287 0.70400 0.13400
H 	H 	0.88740 0.83780 0.70540 -0.03300
C 	C 	0.80500 0.73494 0.90200 -0.32900
H 	H 	0.82400 0.76540 0.90660 0.15000
H 	H 	0.82270 0.72200 0.95590 0.15500
C 	C 	0.69820 0.73303 0.85910 0.07500
H 	H 	0.67900 0.75110 0.80070 -0.00200
H 	H 	0.67060 0.75030 0.89940 -0.02600
C 	C 	0.71260 0.64823 0.79890 -0.02400
H 	H 	0.69590 0.61330 0.80520 -0.06700
H 	H 	0.69230 0.65590 0.73330 -0.00400
C 	C 	0.81870 0.65348 0.83900 -0.06400
H 	H 	0.84780 0.63490 0.80120 0.03400
H 	H 	0.84150 0.63930 0.90090 0.02900
O 	O 	0.92648 0.84894 0.56162 -0.49500
O 	O 	0.95856 0.83307 0.38972 -0.60300
O 	O 	0.96650 0.75423 0.35150 -0.39500
N 	N 	0.87850 0.69659 0.55471 -0.21900
N 	N 	0.84592 0.70665 0.84265 -0.08000
N 	N 	0.65944 0.68121 0.84231 -0.27100
H 	H 	0.66380 0.66750 0.89790 0.03700
Cd	Cd	0.02120 0.90403 0.01807 1.06900
C 	C 	0.09560 0.71954 0.01190 0.17200
H 	H 	0.09120 0.69930 0.05960 -0.03000
C 	C 	0.07550 0.76938 0.01530 -0.31500
C 	C 	0.08460 0.80213 0.94350 0.33000
C 	C 	0.10900 0.77652 0.87150 -0.21500
C 	C 	0.12330 0.72510 0.87080 0.18700
C 	C 	0.04780 0.78646 0.09570 0.43100
C 	C 	0.14780 0.64232 0.95190 0.25900
H 	H 	0.19900 0.63730 0.92750 -0.08000
H 	H 	0.17080 0.63220 0.01650 -0.08200
C 	C 	0.06550 0.61000 0.89990 -0.64700
H 	H 	0.08510 0.57530 0.90520 0.15600
H 	H 	0.01540 0.61420 0.92510 0.18000
H 	H 	0.04290 0.61970 0.83590 0.18400
N 	N 	0.14040 0.70044 0.80187 -0.17800
C 	C 	0.14460 0.72972 0.73180 0.15900
N 	N 	0.13770 0.78090 0.72777 -0.18300
C 	C 	0.11930 0.80287 0.79600 0.11900
H 	H 	0.11260 0.83780 0.79460 -0.05100
C 	C 	0.19500 0.73494 0.59800 -0.21400
H 	H 	0.17600 0.76540 0.59340 0.08800
H 	H 	0.17730 0.72200 0.54410 0.09600
C 	C 	0.30180 0.73303 0.64090 0.01700
H 	H 	0.32100 0.75110 0.69930 0.01500
H 	H 	0.32940 0.75030 0.60060 -0.00900
C 	C 	0.28740 0.64823 0.70110 -0.04000
H 	H 	0.30410 0.61330 0.69480 -0.06700
H 	H 	0.30770 0.65590 0.76670 -0.00000
C 	C 	0.18130 0.65348 0.66100 -0.03800
H 	H 	0.15220 0.63490 0.69880 0.00300
H 	H 	0.15850 0.63930 0.59910 -0.00500
O 	O 	0.07352 0.84894 0.93838 -0.52100
O 	O 	0.04144 0.83307 0.11028 -0.64000
O 	O 	0.03350 0.75423 0.14850 -0.44400
N 	N 	0.12150 0.69659 0.94529 -0.20700
N 	N 	0.15408 0.70665 0.65735 -0.11100
N 	N 	0.34056 0.68121 0.65769 -0.26100
H 	H 	0.33620 0.66750 0.60210 0.03200
Cd	Cd	0.50000 0.68280 0.75000 1.17700
Cd	Cd	0.52120 0.59597 0.51807 1.08100
C 	C 	0.59560 0.78046 0.51190 0.17600
H 	H 	0.59120 0.80070 0.55960 -0.02400
C 	C 	0.57550 0.73062 0.51530 -0.30500
C 	C 	0.58460 0.69787 0.44350 0.33300
C 	C 	0.60900 0.72348 0.37150 -0.20800
C 	C 	0.62330 0.77490 0.37080 0.19500
C 	C 	0.54780 0.71354 0.59570 0.43100
C 	C 	0.64780 0.85768 0.45190 0.32200
H 	H 	0.69900 0.86270 0.42750 -0.09600
H 	H 	0.67080 0.86780 0.51650 -0.09700
C 	C 	0.56550 0.89000 0.39990 -0.76200
H 	H 	0.58510 0.92470 0.40520 0.20400
H 	H 	0.51540 0.88580 0.42510 0.23300
H 	H 	0.54290 0.88030 0.33590 0.23700
N 	N 	0.64040 0.79956 0.30187 -0.17500
C 	C 	0.64460 0.77028 0.23180 0.16700
N 	N 	0.63770 0.71910 0.22777 -0.17500
C 	C 	0.61930 0.69713 0.29600 0.12700
H 	H 	0.61260 0.66220 0.29460 -0.04100
C 	C 	0.69500 0.76506 0.09800 -0.27400
H 	H 	0.67600 0.73460 0.09340 0.12200
H 	H 	0.67730 0.77800 0.04410 0.12800
C 	C 	0.80180 0.76697 0.14090 0.04400
H 	H 	0.82100 0.74890 0.19930 0.01300
H 	H 	0.82940 0.74970 0.10060 -0.00600
C 	C 	0.78740 0.85177 0.20110 -0.03300
H 	H 	0.80410 0.88670 0.19480 -0.05800
H 	H 	0.80770 0.84410 0.26670 0.00200
C 	C 	0.68130 0.84652 0.16100 -0.05100
H 	H 	0.65220 0.86510 0.19880 0.02000
H 	H 	0.65850 0.86070 0.09910 0.01400
O 	O 	0.57352 0.65106 0.43838 -0.50800
O 	O 	0.54144 0.66693 0.61028 -0.62400
O 	O 	0.53350 0.74577 0.64850 -0.42200
N 	N 	0.62150 0.80341 0.44529 -0.21300
N 	N 	0.65408 0.79335 0.15735 -0.09500
N 	N 	0.84056 0.81879 0.15769 -0.25800
H 	H 	0.83620 0.83250 0.10210 0.04600
Cd	Cd	0.47880 0.59597 0.98193 1.08000
C 	C 	0.40440 0.78046 0.98810 0.17600
H 	H 	0.40880 0.80070 0.94040 -0.02500
C 	C 	0.42450 0.73062 0.98470 -0.30700
C 	C 	0.41540 0.69787 0.05650 0.33600
C 	C 	0.39100 0.72348 0.12850 -0.20900
C 	C 	0.37670 0.77490 0.12920 0.19600
C 	C 	0.45220 0.71354 0.90430 0.43200
C 	C 	0.35220 0.85768 0.04810 0.33200
H 	H 	0.30100 0.86270 0.07250 -0.10200
H 	H 	0.32920 0.86780 0.98350 -0.10400
C 	C 	0.43450 0.89000 0.10010 -0.77200
H 	H 	0.41490 0.92470 0.09480 0.20500
H 	H 	0.48460 0.88580 0.07490 0.23700
H 	H 	0.45710 0.88030 0.16410 0.24000
N 	N 	0.35960 0.79956 0.19813 -0.17600
C 	C 	0.35540 0.77028 0.26820 0.16700
N 	N 	0.36230 0.71910 0.27223 -0.17700
C 	C 	0.38070 0.69713 0.20400 0.12700
H 	H 	0.38740 0.66220 0.20540 -0.04400
C 	C 	0.30500 0.76506 0.40200 -0.27800
H 	H 	0.32400 0.73460 0.40660 0.12100
H 	H 	0.32270 0.77800 0.45590 0.12700
C 	C 	0.19820 0.76697 0.35910 0.05200
H 	H 	0.17900 0.74890 0.30070 0.00000
H 	H 	0.17060 0.74970 0.39940 -0.02800
C 	C 	0.21260 0.85177 0.29890 -0.02900
H 	H 	0.19590 0.88670 0.30520 -0.07400
H 	H 	0.19230 0.84410 0.23330 -0.00500
C 	C 	0.31870 0.84652 0.33900 -0.05300
H 	H 	0.34780 0.86510 0.30120 0.01900
H 	H 	0.34150 0.86070 0.40090 0.01100
O 	O 	0.42648 0.65106 0.06162 -0.50900
O 	O 	0.45856 0.66693 0.88972 -0.62500
O 	O 	0.46650 0.74577 0.85150 -0.42300
N 	N 	0.37850 0.80341 0.05471 -0.21300
N 	N 	0.34592 0.79335 0.34265 -0.09400
N 	N 	0.15944 0.81879 0.34231 -0.27000
H 	H 	0.16380 0.83250 0.39790 0.02600
Cd	Cd	0.00000 0.81720 0.25000 1.15700
Cd	Cd	0.47880 0.40403 0.48193 1.08100
C 	C 	0.40440 0.21954 0.48810 0.17700
H 	H 	0.40880 0.19930 0.44040 -0.02500
C 	C 	0.42450 0.26938 0.48470 -0.30500
C 	C 	0.41540 0.30213 0.55650 0.33400
C 	C 	0.39100 0.27652 0.62850 -0.20900
C 	C 	0.37670 0.22510 0.62920 0.19500
C 	C 	0.45220 0.28646 0.40430 0.43200
C 	C 	0.35220 0.14232 0.54810 0.32700
H 	H 	0.30100 0.13730 0.57250 -0.10000
H 	H 	0.32920 0.13220 0.48350 -0.10200
C 	C 	0.43450 0.11000 0.60010 -0.76700
H 	H 	0.41490 0.07530 0.59480 0.20300
H 	H 	0.48460 0.11420 0.57490 0.23500
H 	H 	0.45710 0.11970 0.66410 0.23900
N 	N 	0.35960 0.20044 0.69813 -0.17500
C 	C 	0.35540 0.22972 0.76820 0.16700
N 	N 	0.36230 0.28090 0.77223 -0.17700
C 	C 	0.38070 0.30287 0.70400 0.12700
H 	H 	0.38740 0.33780 0.70540 -0.04400
C 	C 	0.30500 0.23494 0.90200 -0.27400
H 	H 	0.32400 0.26540 0.90660 0.11900
H 	H 	0.32270 0.22200 0.95590 0.12500
C 	C 	0.19820 0.23303 0.85910 0.05000
H 	H 	0.17900 0.25110 0.80070 0.00100
H 	H 	0.17060 0.25030 0.89940 -0.02700
C 	C 	0.21260 0.14823 0.79890 -0.02900
H 	H 	0.19590 0.11330 0.80520 -0.07400
H 	H 	0.19230 0.15590 0.73330 -0.00500
C 	C 	0.31870 0.15348 0.83900 -0.05200
H 	H 	0.34780 0.13490 0.80120 0.01900
H 	H 	0.34150 0.13930 0.90090 0.01100
O 	O 	0.42648 0.34894 0.56162 -0.50900
O 	O 	0.45856 0.33307 0.38972 -0.62400
O 	O 	0.46650 0.25423 0.35150 -0.42200
N 	N 	0.37850 0.19659 0.55471 -0.21400
N 	N 	0.34592 0.20665 0.84265 -0.09500
N 	N 	0.15944 0.18121 0.84231 -0.27000
H 	H 	0.16380 0.16750 0.89790 0.02600
Cd	Cd	0.52120 0.40403 0.01807 1.08200
C 	C 	0.59560 0.21954 0.01190 0.17800
H 	H 	0.59120 0.19930 0.05960 -0.02400
C 	C 	0.57550 0.26938 0.01530 -0.30200
C 	C 	0.58460 0.30213 0.94350 0.32900
C 	C 	0.60900 0.27652 0.87150 -0.20800
C 	C 	0.62330 0.22510 0.87080 0.19300
C 	C 	0.54780 0.28646 0.09570 0.43100
C 	C 	0.64780 0.14232 0.95190 0.30500
H 	H 	0.69900 0.13730 0.92750 -0.09200
H 	H 	0.67080 0.13220 0.01650 -0.08900
C 	C 	0.56550 0.11000 0.89990 -0.74300
H 	H 	0.58510 0.07530 0.90520 0.19800
H 	H 	0.51540 0.11420 0.92510 0.22700
H 	H 	0.54290 0.11970 0.83590 0.23100
N 	N 	0.64040 0.20044 0.80187 -0.17500
C 	C 	0.64460 0.22972 0.73180 0.16700
N 	N 	0.63770 0.28090 0.72777 -0.17500
C 	C 	0.61930 0.30287 0.79600 0.12600
H 	H 	0.61260 0.33780 0.79460 -0.04100
C 	C 	0.69500 0.23494 0.59800 -0.27100
H 	H 	0.67600 0.26540 0.59340 0.12000
H 	H 	0.67730 0.22200 0.54410 0.12700
C 	C 	0.80180 0.23303 0.64090 0.04300
H 	H 	0.82100 0.25110 0.69930 0.01300
H 	H 	0.82940 0.25030 0.60060 -0.00700
C 	C 	0.78740 0.14823 0.70110 -0.03300
H 	H 	0.80410 0.11330 0.69480 -0.05800
H 	H 	0.80770 0.15590 0.76670 0.00100
C 	C 	0.68130 0.15348 0.66100 -0.05100
H 	H 	0.65220 0.13490 0.69880 0.02000
H 	H 	0.65850 0.13930 0.59910 0.01400
O 	O 	0.57352 0.34894 0.93838 -0.50800
O 	O 	0.54144 0.33307 0.11028 -0.62300
O 	O 	0.53350 0.25423 0.14850 -0.42100
N 	N 	0.62150 0.19659 0.94529 -0.21200
N 	N 	0.65408 0.20665 0.65735 -0.09500
N 	N 	0.84056 0.18121 0.65769 -0.25800
H 	H 	0.83620 0.16750 0.60210 0.04500
Cd	Cd	0.00000 0.18280 0.75000 1.15800
