data_crystal

_cell_length_a 25.86500
_cell_length_b 25.86500
_cell_length_c 6.91100
_cell_angle_alpha 90.00000
_cell_angle_beta  90.00000
_cell_angle_gamma 120.00000

_symmetry_space_group_name_	'P 1'
_symmetry_space_group_name_H-M	'P 1'

loop_
_symmetry_equiv_pos_as_xyz
  x,y,z

loop_
_atom_site_label
_atom_site_type_symbol
_atom_site_fract_x
_atom_site_fract_y
_atom_site_fract_z
_atom_site_charge
Mg	Mg	0.36753 0.05163 0.02431 1.46800
O 	O 	0.36014 0.98994 0.81530 -0.69000
O 	O 	0.58446 0.97800 0.82950 -0.65300
O 	O 	0.40422 0.96886 0.57820 -0.54600
C 	C 	0.40271 0.98371 0.75000 0.46000
C 	C 	0.45271 0.99399 0.88460 -0.21600
C 	C 	0.49744 0.98501 0.80970 -0.10100
H 	H 	0.49540 0.97510 0.67650 0.07300
C 	C 	0.54503 0.98953 0.91730 0.21300
Mg	Mg	0.03420 0.38496 0.35764 1.46800
O 	O 	0.02681 0.32327 0.14863 -0.69000
O 	O 	0.25113 0.31133 0.16283 -0.65200
O 	O 	0.07089 0.30219 0.91153 -0.54700
C 	C 	0.06938 0.31704 0.08333 0.46000
C 	C 	0.11938 0.32732 0.21793 -0.21700
C 	C 	0.16411 0.31834 0.14303 -0.10200
H 	H 	0.16207 0.30843 0.00983 0.07200
C 	C 	0.21170 0.32286 0.25063 0.21200
Mg	Mg	0.70086 0.71830 0.69098 1.46700
O 	O 	0.69347 0.65661 0.48197 -0.69100
O 	O 	0.91779 0.64467 0.49617 -0.65400
O 	O 	0.73755 0.63553 0.24487 -0.54700
C 	C 	0.73604 0.65038 0.41667 0.46000
C 	C 	0.78604 0.66066 0.55127 -0.21700
C 	C 	0.83077 0.65168 0.47637 -0.10200
H 	H 	0.82873 0.64177 0.34317 0.07100
C 	C 	0.87836 0.65620 0.58397 0.21200
Mg	Mg	0.94837 0.31590 0.02431 1.46700
O 	O 	0.01006 0.37020 0.81530 -0.69100
O 	O 	0.02200 0.60646 0.82950 -0.65400
O 	O 	0.03114 0.43536 0.57820 -0.54700
C 	C 	0.01629 0.41900 0.75000 0.45900
C 	C 	0.00601 0.45872 0.88460 -0.21700
C 	C 	0.01499 0.51243 0.80970 -0.10200
H 	H 	0.02490 0.52030 0.67650 0.07200
C 	C 	0.01047 0.55550 0.91730 0.21200
Mg	Mg	0.61504 0.64923 0.35764 1.46700
O 	O 	0.67673 0.70353 0.14863 -0.69100
O 	O 	0.68867 0.93979 0.16283 -0.65300
O 	O 	0.69781 0.76869 0.91153 -0.54700
C 	C 	0.68296 0.75233 0.08333 0.45900
C 	C 	0.67268 0.79205 0.21793 -0.21700
C 	C 	0.68166 0.84576 0.14303 -0.10200
H 	H 	0.69157 0.85363 0.00983 0.07200
C 	C 	0.67714 0.88883 0.25063 0.21200
Mg	Mg	0.28170 0.98257 0.69098 1.46700
O 	O 	0.34339 0.03687 0.48197 -0.69100
O 	O 	0.35533 0.27313 0.49617 -0.65400
O 	O 	0.36447 0.10203 0.24487 -0.54700
C 	C 	0.34962 0.08567 0.41667 0.45900
C 	C 	0.33934 0.12539 0.55127 -0.21700
C 	C 	0.34832 0.17910 0.47637 -0.10200
H 	H 	0.35823 0.18697 0.34317 0.07100
C 	C 	0.34380 0.22217 0.58397 0.21200
Mg	Mg	0.68410 0.63247 0.02431 1.46700
O 	O 	0.62980 0.63986 0.81530 -0.69000
O 	O 	0.39354 0.41554 0.82950 -0.65400
O 	O 	0.56464 0.59578 0.57820 -0.54700
C 	C 	0.58100 0.59729 0.75000 0.45900
C 	C 	0.54128 0.54729 0.88460 -0.21700
C 	C 	0.48757 0.50256 0.80970 -0.10200
H 	H 	0.47970 0.50460 0.67650 0.07100
C 	C 	0.44450 0.45497 0.91730 0.21200
Mg	Mg	0.35077 0.96580 0.35764 1.46700
O 	O 	0.29647 0.97319 0.14863 -0.69100
O 	O 	0.06021 0.74887 0.16283 -0.65300
O 	O 	0.23131 0.92911 0.91153 -0.54800
C 	C 	0.24767 0.93062 0.08333 0.46000
C 	C 	0.20795 0.88062 0.21793 -0.21700
C 	C 	0.15424 0.83589 0.14303 -0.10200
H 	H 	0.14637 0.83793 0.00983 0.07200
C 	C 	0.11117 0.78830 0.25063 0.21200
Mg	Mg	0.01743 0.29914 0.69098 1.46700
O 	O 	0.96313 0.30653 0.48197 -0.69100
O 	O 	0.72687 0.08221 0.49617 -0.65400
O 	O 	0.89797 0.26245 0.24487 -0.54700
C 	C 	0.91433 0.26396 0.41667 0.46000
C 	C 	0.87461 0.21396 0.55127 -0.21700
C 	C 	0.82090 0.16923 0.47637 -0.10200
H 	H 	0.81303 0.17127 0.34317 0.07100
C 	C 	0.77783 0.12164 0.58397 0.21200
Mg	Mg	0.63247 0.94837 0.97569 1.46700
O 	O 	0.63986 0.01006 0.18470 -0.69100
O 	O 	0.41554 0.02200 0.17050 -0.65400
O 	O 	0.59578 0.03114 0.42180 -0.54700
C 	C 	0.59729 0.01629 0.25000 0.45900
C 	C 	0.54729 0.00601 0.11540 -0.21700
C 	C 	0.50256 0.01499 0.19030 -0.10200
H 	H 	0.50460 0.02490 0.32350 0.07200
C 	C 	0.45497 0.01047 0.08270 0.21200
Mg	Mg	0.29914 0.28170 0.30902 1.46700
O 	O 	0.30653 0.34339 0.51803 -0.69100
O 	O 	0.08221 0.35533 0.50383 -0.65400
O 	O 	0.26245 0.36447 0.75513 -0.54700
C 	C 	0.26396 0.34962 0.58333 0.46000
C 	C 	0.21396 0.33934 0.44873 -0.21700
C 	C 	0.16923 0.34832 0.52363 -0.10200
H 	H 	0.17127 0.35823 0.65683 0.07100
C 	C 	0.12164 0.34380 0.41603 0.21200
Mg	Mg	0.96580 0.61504 0.64236 1.46700
O 	O 	0.97319 0.67673 0.85137 -0.69100
O 	O 	0.74887 0.68867 0.83717 -0.65300
O 	O 	0.92911 0.69781 0.08847 -0.54700
C 	C 	0.93062 0.68296 0.91667 0.46000
C 	C 	0.88062 0.67268 0.78207 -0.21700
C 	C 	0.83589 0.68166 0.85697 -0.10200
H 	H 	0.83793 0.69157 0.99017 0.07200
C 	C 	0.78830 0.67714 0.74937 0.21200
Mg	Mg	0.05163 0.68410 0.97569 1.46700
O 	O 	0.98994 0.62980 0.18470 -0.69100
O 	O 	0.97800 0.39354 0.17050 -0.65400
O 	O 	0.96886 0.56464 0.42180 -0.54700
C 	C 	0.98371 0.58100 0.25000 0.45900
C 	C 	0.99399 0.54128 0.11540 -0.21700
C 	C 	0.98501 0.48757 0.19030 -0.10200
H 	H 	0.97510 0.47970 0.32350 0.07200
C 	C 	0.98953 0.44450 0.08270 0.21200
Mg	Mg	0.71830 0.01743 0.30902 1.46700
O 	O 	0.65661 0.96313 0.51803 -0.69100
O 	O 	0.64467 0.72687 0.50383 -0.65400
O 	O 	0.63553 0.89797 0.75513 -0.54700
C 	C 	0.65038 0.91433 0.58333 0.45900
C 	C 	0.66066 0.87461 0.44873 -0.21700
C 	C 	0.65168 0.82090 0.52363 -0.10200
H 	H 	0.64177 0.81303 0.65683 0.07100
C 	C 	0.65620 0.77783 0.41603 0.21200
Mg	Mg	0.38496 0.35077 0.64236 1.46700
O 	O 	0.32327 0.29647 0.85137 -0.69100
O 	O 	0.31133 0.06021 0.83717 -0.65300
O 	O 	0.30219 0.23131 0.08847 -0.54700
C 	C 	0.31704 0.24767 0.91667 0.45900
C 	C 	0.32732 0.20795 0.78207 -0.21700
C 	C 	0.31834 0.15424 0.85697 -0.10200
H 	H 	0.30843 0.14637 0.99017 0.07200
C 	C 	0.32286 0.11117 0.74937 0.21200
Mg	Mg	0.31590 0.36753 0.97569 1.46700
O 	O 	0.37020 0.36014 0.18470 -0.69000
O 	O 	0.60646 0.58446 0.17050 -0.65400
O 	O 	0.43536 0.40422 0.42180 -0.54700
C 	C 	0.41900 0.40271 0.25000 0.45900
C 	C 	0.45872 0.45271 0.11540 -0.21700
C 	C 	0.51243 0.49744 0.19030 -0.10200
H 	H 	0.52030 0.49540 0.32350 0.07100
C 	C 	0.55550 0.54503 0.08270 0.21200
Mg	Mg	0.98257 0.70086 0.30902 1.46700
O 	O 	0.03687 0.69347 0.51803 -0.69100
O 	O 	0.27313 0.91779 0.50383 -0.65400
O 	O 	0.10203 0.73755 0.75513 -0.54700
C 	C 	0.08567 0.73604 0.58333 0.46000
C 	C 	0.12539 0.78604 0.44873 -0.21700
C 	C 	0.17910 0.83077 0.52363 -0.10200
H 	H 	0.18697 0.82873 0.65683 0.07100
C 	C 	0.22217 0.87836 0.41603 0.21200
Mg	Mg	0.64923 0.03420 0.64236 1.46700
O 	O 	0.70353 0.02681 0.85137 -0.69100
O 	O 	0.93979 0.25113 0.83717 -0.65300
O 	O 	0.76869 0.07089 0.08847 -0.54800
C 	C 	0.75233 0.06938 0.91667 0.46000
C 	C 	0.79205 0.11938 0.78207 -0.21700
C 	C 	0.84576 0.16411 0.85697 -0.10200
H 	H 	0.85363 0.16207 0.99017 0.07200
C 	C 	0.88883 0.21170 0.74937 0.21200
