data_crystal

_cell_length_a 7.06610
_cell_length_b 9.67780
_cell_length_c 11.62170
_cell_angle_alpha 106.32600
_cell_angle_beta  97.84300
_cell_angle_gamma 107.70700

_symmetry_space_group_name_	'P 1'
_symmetry_space_group_name_H-M	'P 1'

loop_
_symmetry_equiv_pos_as_xyz
  x,y,z

loop_
_atom_site_label
_atom_site_type_symbol
_atom_site_fract_x
_atom_site_fract_y
_atom_site_fract_z
_atom_site_charge
V 	V 	0.17095 0.13046 0.27722 1.71500
P 	P 	0.22447 0.32769 0.15194 0.50500
P 	P 	0.08136 0.23030 0.79726 0.41900
O 	O 	0.30480 0.30770 0.87110 -0.36900
O 	O 	0.42850 0.41700 0.13354 -0.53600
O 	O 	0.22750 0.35170 0.29090 -0.50000
O 	O 	0.06170 0.19690 0.65881 -0.47500
O 	O 	0.17090 0.15050 0.10570 -0.58900
O 	O 	0.04900 0.36780 0.09460 -0.60300
O 	O 	0.96190 0.33690 0.84143 -0.28700
O 	O 	0.04310 0.13570 0.38690 -0.79600
O 	O 	0.98500 0.07880 0.82362 -0.39600
O 	O 	0.28650 0.58280 0.00855 -0.78300
V 	V 	0.82905 0.86954 0.72278 1.75100
P 	P 	0.77553 0.67231 0.84806 0.50300
P 	P 	0.91864 0.76970 0.20274 0.67700
O 	O 	0.69520 0.69230 0.12890 -0.55100
O 	O 	0.57150 0.58300 0.86646 -0.38000
O 	O 	0.77250 0.64830 0.70910 -0.46000
O 	O 	0.93830 0.80310 0.34119 -0.37900
O 	O 	0.82910 0.84950 0.89430 -0.29700
O 	O 	0.95100 0.63220 0.90540 -0.28100
O 	O 	0.03810 0.66310 0.15857 -0.60700
O 	O 	0.95690 0.86430 0.61310 -0.64800
O 	O 	0.01500 0.92120 0.17638 -0.62800
O 	O 	0.71350 0.41720 0.99145 -0.39300
Co	Co	-0.00000 0.00000 0.50000 1.03400
V 	V 	-0.00000 0.50000 -0.00000 1.65800
V 	V 	0.50000 0.50000 -0.00000 1.69600
