data_crystal

_cell_length_a 9.45040
_cell_length_b 11.45800
_cell_length_c 14.57900
_cell_angle_alpha 69.86000
_cell_angle_beta  85.46000
_cell_angle_gamma 86.30000

_symmetry_space_group_name_	'P 1'
_symmetry_space_group_name_H-M	'P 1'

loop_
_symmetry_equiv_pos_as_xyz
  x,y,z

loop_
_atom_site_label
_atom_site_type_symbol
_atom_site_fract_x
_atom_site_fract_y
_atom_site_fract_z
_atom_site_charge
Dy	Dy	0.79722 0.95468 0.00260 1.64100
Dy	Dy	0.20278 0.04532 0.99740 1.64100
H 	H 	0.86460 0.36890 0.84110 0.16000
H 	H 	0.97060 0.37150 0.75230 0.16700
H 	H 	0.33400 0.38400 0.88900 0.19000
H 	H 	0.27400 0.47200 0.80600 0.15300
H 	H 	0.87750 0.94330 0.55630 0.08100
H 	H 	0.87170 0.06540 0.46440 0.08300
H 	H 	0.27590 0.34540 0.39410 0.13500
H 	H 	0.26100 0.28270 0.32140 0.13000
H 	H 	0.85370 0.09940 0.28090 0.17000
H 	H 	0.81480 0.22480 0.19730 0.17200
H 	H 	0.12050 0.53300 0.43430 0.08600
H 	H 	0.11230 0.40970 0.52500 0.09100
H 	H 	0.66850 0.04480 0.60770 0.12700
H 	H 	0.62500 0.11900 0.67220 0.13700
H 	H 	0.48280 0.83770 0.80860 0.13100
H 	H 	0.63360 0.83310 0.75750 0.13000
H 	H 	0.02930 0.48150 0.90880 0.08700
H 	H 	0.07940 0.38750 0.00860 0.11200
H 	H 	0.13540 0.63110 0.15890 0.16000
H 	H 	0.02940 0.62850 0.24770 0.16700
H 	H 	0.66600 0.61600 0.11100 0.19000
H 	H 	0.72600 0.52800 0.19400 0.15300
H 	H 	0.12250 0.05670 0.44370 0.08100
H 	H 	0.12830 0.93460 0.53560 0.08300
H 	H 	0.72410 0.65460 0.60590 0.13500
H 	H 	0.73900 0.71730 0.67860 0.13000
H 	H 	0.14630 0.90060 0.71910 0.17000
H 	H 	0.18520 0.77520 0.80270 0.17200
H 	H 	0.87950 0.46700 0.56570 0.08600
H 	H 	0.88770 0.59030 0.47500 0.09100
H 	H 	0.33150 0.95520 0.39230 0.12700
H 	H 	0.37500 0.88100 0.32780 0.13700
H 	H 	0.51720 0.16230 0.19140 0.13100
H 	H 	0.36640 0.16690 0.24250 0.13000
H 	H 	0.97070 0.51850 0.09120 0.08700
H 	H 	0.92060 0.61250 0.99140 0.11200
C 	C 	0.92520 0.09780 0.14320 0.54200
C 	C 	0.88560 0.19720 0.68060 0.09800
C 	C 	0.00140 0.21730 0.87240 0.48400
C 	C 	0.90980 0.31830 0.80480 -0.40700
C 	C 	0.92750 0.01800 0.51920 -0.15700
C 	C 	0.98370 0.30360 0.31520 0.07100
C 	C 	0.88810 0.16000 0.21970 -0.43200
C 	C 	0.94220 0.09370 0.58280 0.14600
C 	C 	0.99540 0.40660 0.41450 0.14000
C 	C 	0.05700 0.47000 0.47550 -0.15900
C 	C 	0.57830 0.80140 0.81930 -0.34300
C 	C 	0.64110 0.84820 0.89220 0.39300
C 	C 	0.40210 0.61480 0.91180 0.09400
C 	C 	0.19030 0.54550 0.96040 0.14100
C 	C 	0.05940 0.47470 0.97260 -0.18300
C 	C 	0.07480 0.90220 0.85680 0.54200
C 	C 	0.11440 0.80280 0.31940 0.09800
C 	C 	0.99860 0.78270 0.12760 0.48400
C 	C 	0.09020 0.68170 0.19520 -0.40700
C 	C 	0.07250 0.98200 0.48080 -0.15700
C 	C 	0.01630 0.69640 0.68480 0.07100
C 	C 	0.11190 0.84000 0.78030 -0.43200
C 	C 	0.05780 0.90630 0.41720 0.14600
C 	C 	0.00460 0.59340 0.58550 0.14000
C 	C 	0.94300 0.53000 0.52450 -0.15900
C 	C 	0.42170 0.19860 0.18070 -0.34300
C 	C 	0.35890 0.15180 0.10780 0.39300
C 	C 	0.59790 0.38520 0.08820 0.09400
C 	C 	0.80970 0.45450 0.03960 0.14100
C 	C 	0.94060 0.52530 0.02740 -0.18300
S 	S 	0.04883 0.22563 0.23646 0.07300
S 	S 	0.56874 0.63521 0.84993 0.04800
S 	S 	0.77505 0.26350 0.75191 0.02600
S 	S 	0.95117 0.77437 0.76354 0.07300
S 	S 	0.43126 0.36479 0.15007 0.04800
S 	S 	0.22495 0.73650 0.24809 0.02600
N 	N 	0.30970 0.53240 0.90542 -0.11100
N 	N 	0.20740 0.63190 0.99770 -0.11900
N 	N 	0.07600 0.34720 0.36184 -0.10700
N 	N 	0.02200 0.20460 0.66160 -0.10300
N 	N 	0.34380 0.67480 0.96750 -0.10700
N 	N 	0.83010 0.12810 0.63317 -0.10900
N 	N 	0.33810 0.45260 0.85030 -0.28200
N 	N 	0.22330 0.32180 0.35870 -0.24600
N 	N 	0.05830 0.13720 0.59820 -0.11300
N 	N 	0.86280 0.39940 0.40270 -0.10600
N 	N 	0.85430 0.33340 0.33730 -0.09700
N 	N 	0.68980 0.09280 0.63840 -0.24200
N 	N 	0.69030 0.46760 0.09458 -0.11100
N 	N 	0.79260 0.36810 0.00230 -0.11900
N 	N 	0.92400 0.65280 0.63816 -0.10700
N 	N 	0.97800 0.79540 0.33840 -0.10300
N 	N 	0.65620 0.32520 0.03250 -0.10700
N 	N 	0.16990 0.87190 0.36683 -0.10900
N 	N 	0.66190 0.54740 0.14970 -0.28200
N 	N 	0.77670 0.67820 0.64130 -0.24600
N 	N 	0.94170 0.86280 0.40180 -0.11300
N 	N 	0.13720 0.60060 0.59730 -0.10600
N 	N 	0.14570 0.66660 0.66270 -0.09700
N 	N 	0.31020 0.90720 0.36160 -0.24200
O 	O 	0.82800 0.04240 0.12470 -0.50300
O 	O 	0.94890 0.11549 0.92467 -0.54300
O 	O 	0.12760 0.23856 0.87672 -0.46800
O 	O 	0.05060 0.10770 0.10690 -0.46700
O 	O 	0.68670 0.77790 0.97049 -0.40100
O 	O 	0.64730 0.96567 0.86653 -0.43400
O 	O 	0.17200 0.95760 0.87530 -0.50300
O 	O 	0.05110 0.88451 0.07533 -0.54300
O 	O 	0.87240 0.76144 0.12328 -0.46800
O 	O 	0.94940 0.89230 0.89310 -0.46700
O 	O 	0.31330 0.22210 0.02951 -0.40100
O 	O 	0.35270 0.03433 0.13347 -0.43400
