data_crystal

_cell_length_a 9.51040
_cell_length_b 11.51500
_cell_length_c 14.57500
_cell_angle_alpha 69.47000
_cell_angle_beta  85.29000
_cell_angle_gamma 86.39000

_symmetry_space_group_name_	'P 1'
_symmetry_space_group_name_H-M	'P 1'

loop_
_symmetry_equiv_pos_as_xyz
  x,y,z

loop_
_atom_site_label
_atom_site_type_symbol
_atom_site_fract_x
_atom_site_fract_y
_atom_site_fract_z
_atom_site_charge
Sm	Sm	0.79618 0.95525 0.00224 1.83100
Sm	Sm	0.20382 0.04475 0.99776 1.83100
H 	H 	0.86660 0.36970 0.83920 0.15800
H 	H 	0.97090 0.37270 0.74960 0.16700
H 	H 	0.33600 0.39300 0.88300 0.25000
H 	H 	0.27100 0.47500 0.80200 0.15700
H 	H 	0.87730 0.94360 0.55660 0.08000
H 	H 	0.87250 0.06510 0.46370 0.08200
H 	H 	0.27480 0.35030 0.39130 0.13500
H 	H 	0.25970 0.28620 0.32010 0.13100
H 	H 	0.85210 0.10160 0.28340 0.17300
H 	H 	0.81530 0.22620 0.19810 0.17500
H 	H 	0.11890 0.53340 0.43370 0.08500
H 	H 	0.11120 0.41050 0.52520 0.09000
H 	H 	0.67020 0.04810 0.60570 0.12700
H 	H 	0.62840 0.11780 0.67320 0.13400
H 	H 	0.48420 0.83660 0.80630 0.13000
H 	H 	0.63490 0.83070 0.75660 0.13100
H 	H 	0.02870 0.48460 0.90770 0.08600
H 	H 	0.07780 0.38810 0.00710 0.10900
H 	H 	0.13340 0.63030 0.16080 0.15800
H 	H 	0.02910 0.62730 0.25040 0.16700
H 	H 	0.66400 0.60700 0.11700 0.25000
H 	H 	0.72900 0.52500 0.19800 0.15700
H 	H 	0.12270 0.05640 0.44340 0.08000
H 	H 	0.12750 0.93490 0.53630 0.08200
H 	H 	0.72520 0.64970 0.60870 0.13500
H 	H 	0.74030 0.71380 0.67990 0.13100
H 	H 	0.14790 0.89840 0.71660 0.17300
H 	H 	0.18470 0.77380 0.80190 0.17500
H 	H 	0.88110 0.46660 0.56630 0.08500
H 	H 	0.88880 0.58950 0.47480 0.09000
H 	H 	0.32980 0.95190 0.39430 0.12700
H 	H 	0.37160 0.88220 0.32680 0.13400
H 	H 	0.51580 0.16340 0.19370 0.13000
H 	H 	0.36510 0.16930 0.24340 0.13100
H 	H 	0.97130 0.51540 0.09230 0.08600
H 	H 	0.92220 0.61190 0.99290 0.10900
C 	C 	0.92380 0.09810 0.14710 0.55400
C 	C 	0.88660 0.19580 0.68010 0.09800
C 	C 	0.00450 0.22110 0.87060 0.48300
C 	C 	0.91200 0.31920 0.80340 -0.40800
C 	C 	0.92740 0.01800 0.51890 -0.15500
C 	C 	0.98250 0.30370 0.31600 0.07000
C 	C 	0.88730 0.16110 0.22150 -0.44800
C 	C 	0.94290 0.09450 0.58210 0.14700
C 	C 	0.99630 0.40660 0.41530 0.13800
C 	C 	0.05600 0.47030 0.47550 -0.15900
C 	C 	0.57850 0.79980 0.81820 -0.34900
C 	C 	0.63910 0.84690 0.89050 0.40000
C 	C 	0.40130 0.61400 0.91200 0.09200
C 	C 	0.18920 0.54460 0.96040 0.13900
C 	C 	0.05880 0.47560 0.97190 -0.18300
C 	C 	0.07620 0.90190 0.85290 0.55400
C 	C 	0.11340 0.80420 0.31990 0.09800
C 	C 	0.99550 0.77890 0.12940 0.48300
C 	C 	0.08800 0.68080 0.19660 -0.40800
C 	C 	0.07260 0.98200 0.48110 -0.15500
C 	C 	0.01750 0.69630 0.68400 0.07000
C 	C 	0.11270 0.83890 0.77850 -0.44800
C 	C 	0.05710 0.90550 0.41790 0.14700
C 	C 	0.00370 0.59340 0.58470 0.13800
C 	C 	0.94400 0.52970 0.52450 -0.15900
C 	C 	0.42150 0.20020 0.18180 -0.34900
C 	C 	0.36090 0.15310 0.10950 0.40000
C 	C 	0.59870 0.38600 0.08800 0.09200
C 	C 	0.81080 0.45540 0.03960 0.13900
C 	C 	0.94120 0.52440 0.02810 -0.18300
S 	S 	0.04804 0.22620 0.23741 0.07500
S 	S 	0.56726 0.63370 0.85044 0.04800
S 	S 	0.77807 0.25957 0.75341 0.01000
S 	S 	0.95196 0.77380 0.76259 0.07500
S 	S 	0.43274 0.36630 0.14956 0.04800
S 	S 	0.22193 0.74043 0.24659 0.01000
N 	N 	0.30770 0.53310 0.90510 -0.10800
N 	N 	0.20650 0.63040 0.99820 -0.12100
N 	N 	0.07570 0.34770 0.36220 -0.10600
N 	N 	0.02340 0.20350 0.66200 -0.10600
N 	N 	0.34330 0.67380 0.96780 -0.11100
N 	N 	0.83150 0.12630 0.63390 -0.11000
N 	N 	0.33650 0.45430 0.84910 -0.34600
N 	N 	0.22230 0.32520 0.35720 -0.24600
N 	N 	0.05820 0.13670 0.59710 -0.11500
N 	N 	0.86380 0.39950 0.40300 -0.10600
N 	N 	0.85480 0.33200 0.33960 -0.09700
N 	N 	0.69230 0.09320 0.63810 -0.24200
N 	N 	0.69230 0.46690 0.09490 -0.10800
N 	N 	0.79350 0.36960 0.00180 -0.12100
N 	N 	0.92430 0.65230 0.63780 -0.10600
N 	N 	0.97660 0.79650 0.33800 -0.10600
N 	N 	0.65670 0.32620 0.03220 -0.11100
N 	N 	0.16850 0.87370 0.36610 -0.11000
N 	N 	0.66350 0.54570 0.15090 -0.34600
N 	N 	0.77770 0.67480 0.64280 -0.24600
N 	N 	0.94180 0.86330 0.40290 -0.11500
N 	N 	0.13620 0.60050 0.59700 -0.10600
N 	N 	0.14520 0.66800 0.66040 -0.09700
N 	N 	0.30770 0.90680 0.36190 -0.24200
O 	O 	0.82700 0.04440 0.12700 -0.52700
O 	O 	0.95570 0.11800 0.92550 -0.58200
O 	O 	0.13070 0.24380 0.87280 -0.48300
O 	O 	0.05040 0.10320 0.11210 -0.49000
O 	O 	0.68590 0.77710 0.96910 -0.42500
O 	O 	0.64340 0.96380 0.86500 -0.46200
O 	O 	0.17300 0.95560 0.87300 -0.52700
O 	O 	0.04430 0.88200 0.07450 -0.58200
O 	O 	0.86930 0.75620 0.12720 -0.48300
O 	O 	0.94960 0.89680 0.88790 -0.49000
O 	O 	0.31410 0.22290 0.03090 -0.42500
O 	O 	0.35660 0.03620 0.13500 -0.46200
