data_crystal

_cell_length_a 9.48290
_cell_length_b 11.50500
_cell_length_c 14.58200
_cell_angle_alpha 69.48000
_cell_angle_beta  85.36000
_cell_angle_gamma 86.32000

_symmetry_space_group_name_	'P 1'
_symmetry_space_group_name_H-M	'P 1'

loop_
_symmetry_equiv_pos_as_xyz
  x,y,z

loop_
_atom_site_label
_atom_site_type_symbol
_atom_site_fract_x
_atom_site_fract_y
_atom_site_fract_z
_atom_site_charge
Eu	Eu	0.79662 0.95506 0.00239 1.76000
Eu	Eu	0.20338 0.04494 0.99761 1.76000
H 	H 	0.86500 0.36850 0.83990 0.15800
H 	H 	0.97000 0.37170 0.75060 0.16700
H 	H 	0.33200 0.38600 0.89000 0.18100
H 	H 	0.26400 0.48200 0.80200 0.12600
H 	H 	0.87810 0.94340 0.55610 0.08000
H 	H 	0.87330 0.06570 0.46400 0.08200
H 	H 	0.27490 0.34590 0.39450 0.13500
H 	H 	0.26040 0.28240 0.32270 0.13000
H 	H 	0.85190 0.10210 0.28220 0.17100
H 	H 	0.81570 0.22720 0.19730 0.17300
H 	H 	0.12070 0.53150 0.43500 0.08500
H 	H 	0.11000 0.40890 0.52660 0.09100
H 	H 	0.66960 0.04810 0.60590 0.12700
H 	H 	0.62750 0.12020 0.67160 0.13500
H 	H 	0.48270 0.83660 0.80650 0.12800
H 	H 	0.63350 0.83140 0.75620 0.12800
H 	H 	0.03040 0.48080 0.90880 0.08800
H 	H 	0.07950 0.38730 0.00950 0.11000
H 	H 	0.13500 0.63150 0.16010 0.15700
H 	H 	0.03000 0.62830 0.24940 0.16600
H 	H 	0.66800 0.61400 0.11000 0.18000
H 	H 	0.73600 0.51800 0.19800 0.12500
H 	H 	0.12190 0.05660 0.44390 0.08000
H 	H 	0.12670 0.93430 0.53600 0.08200
H 	H 	0.72510 0.65410 0.60550 0.13500
H 	H 	0.73960 0.71760 0.67730 0.13000
H 	H 	0.14810 0.89790 0.71780 0.17100
H 	H 	0.18430 0.77280 0.80270 0.17300
H 	H 	0.87930 0.46850 0.56500 0.08500
H 	H 	0.89000 0.59110 0.47340 0.09100
H 	H 	0.33040 0.95190 0.39410 0.12700
H 	H 	0.37250 0.87980 0.32840 0.13500
H 	H 	0.51730 0.16340 0.19350 0.12800
H 	H 	0.36650 0.16860 0.24380 0.12800
H 	H 	0.96960 0.51920 0.09120 0.08800
H 	H 	0.92050 0.61270 0.99050 0.11000
C 	C 	0.92360 0.09860 0.14560 0.54500
C 	C 	0.88640 0.19470 0.68120 0.09900
C 	C 	0.00380 0.21860 0.87190 0.48300
C 	C 	0.91050 0.31810 0.80390 -0.40200
C 	C 	0.92840 0.01790 0.51900 -0.15500
C 	C 	0.98400 0.30360 0.31590 0.07000
C 	C 	0.88760 0.16170 0.22060 -0.44000
C 	C 	0.94290 0.09290 0.58290 0.14600
C 	C 	0.99670 0.40600 0.41520 0.14000
C 	C 	0.05620 0.46940 0.47620 -0.15900
C 	C 	0.57760 0.80020 0.81800 -0.33800
C 	C 	0.63950 0.84770 0.89090 0.39000
C 	C 	0.40100 0.61550 0.91140 0.09300
C 	C 	0.18970 0.54580 0.96060 0.14200
C 	C 	0.05970 0.47430 0.97270 -0.18400
C 	C 	0.07640 0.90140 0.85440 0.54500
C 	C 	0.11360 0.80530 0.31880 0.09900
C 	C 	0.99620 0.78140 0.12810 0.48300
C 	C 	0.08950 0.68190 0.19610 -0.40200
C 	C 	0.07160 0.98210 0.48100 -0.15500
C 	C 	0.01600 0.69640 0.68410 0.07000
C 	C 	0.11240 0.83830 0.77940 -0.44000
C 	C 	0.05710 0.90710 0.41710 0.14600
C 	C 	0.00330 0.59400 0.58480 0.14000
C 	C 	0.94380 0.53060 0.52380 -0.15900
C 	C 	0.42240 0.19980 0.18200 -0.33800
C 	C 	0.36050 0.15230 0.10910 0.39000
C 	C 	0.59900 0.38450 0.08860 0.09300
C 	C 	0.81030 0.45420 0.03940 0.14200
C 	C 	0.94030 0.52570 0.02730 -0.18400
S 	S 	0.04813 0.22556 0.23759 0.07500
S 	S 	0.56767 0.63423 0.85020 0.04700
S 	S 	0.77655 0.26068 0.75283 0.01500
S 	S 	0.95187 0.77444 0.76241 0.07500
S 	S 	0.43233 0.36577 0.14980 0.04700
S 	S 	0.22345 0.73932 0.24717 0.01500
N 	N 	0.30900 0.53200 0.90570 -0.11500
N 	N 	0.20690 0.63000 0.99880 -0.12100
N 	N 	0.07550 0.34640 0.36280 -0.10700
N 	N 	0.02250 0.20320 0.66160 -0.10500
N 	N 	0.34300 0.67410 0.96750 -0.10900
N 	N 	0.83160 0.12700 0.63350 -0.10900
N 	N 	0.33700 0.45350 0.84990 -0.25000
N 	N 	0.22270 0.32170 0.35960 -0.24600
N 	N 	0.05870 0.13630 0.59790 -0.11300
N 	N 	0.86400 0.40060 0.40290 -0.10600
N 	N 	0.85450 0.33350 0.33790 -0.09700
N 	N 	0.69170 0.09420 0.63750 -0.24200
N 	N 	0.69100 0.46800 0.09430 -0.11500
N 	N 	0.79310 0.37000 0.00120 -0.12100
N 	N 	0.92450 0.65360 0.63720 -0.10700
N 	N 	0.97750 0.79680 0.33840 -0.10500
N 	N 	0.65700 0.32590 0.03250 -0.10900
N 	N 	0.16840 0.87300 0.36650 -0.10900
N 	N 	0.66300 0.54650 0.15010 -0.25000
N 	N 	0.77730 0.67830 0.64040 -0.24600
N 	N 	0.94130 0.86370 0.40210 -0.11300
N 	N 	0.13600 0.59940 0.59710 -0.10600
N 	N 	0.14550 0.66650 0.66210 -0.09700
N 	N 	0.30830 0.90580 0.36250 -0.24200
O 	O 	0.82650 0.04370 0.12670 -0.51500
O 	O 	0.95330 0.11720 0.92540 -0.57300
O 	O 	0.12960 0.24290 0.87350 -0.47400
O 	O 	0.05020 0.10440 0.11120 -0.47900
O 	O 	0.68590 0.77750 0.96910 -0.41200
O 	O 	0.64410 0.96520 0.86500 -0.44700
O 	O 	0.17350 0.95630 0.87330 -0.51500
O 	O 	0.04670 0.88280 0.07460 -0.57300
O 	O 	0.87040 0.75710 0.12650 -0.47400
O 	O 	0.94980 0.89560 0.88880 -0.47900
O 	O 	0.31410 0.22250 0.03090 -0.41200
O 	O 	0.35590 0.03480 0.13500 -0.44700
