data_crystal

_cell_length_a 18.67500
_cell_length_b 10.22000
_cell_length_c 13.41900
_cell_angle_alpha 90.00000
_cell_angle_beta  98.29000
_cell_angle_gamma 90.00000

_symmetry_space_group_name_	'P 1'
_symmetry_space_group_name_H-M	'P 1'

loop_
_symmetry_equiv_pos_as_xyz
  x,y,z

loop_
_atom_site_label
_atom_site_type_symbol
_atom_site_fract_x
_atom_site_fract_y
_atom_site_fract_z
_atom_site_charge
In	In	0.77422 0.50366 0.97135 2.03000
O 	O 	0.99870 0.98290 0.15810 -0.49400
O 	O 	0.85111 0.65810 0.96540 -0.36400
O 	O 	0.18633 0.86860 0.95440 -0.38700
O 	O 	0.80404 0.84270 0.06540 -0.48600
O 	O 	0.90310 0.07980 0.21740 -0.52500
H 	H 	0.90760 0.11630 0.16430 0.29100
O 	O 	0.75120 0.28160 0.72090 -0.45400
H 	H 	0.73360 0.25150 0.66620 0.25600
O 	O 	0.78190 0.48750 0.81470 -0.45300
O 	O 	0.90718 0.87860 0.96480 -0.31700
O 	O 	0.14554 0.64210 0.99690 -0.38100
O 	O 	0.06360 0.82880 0.00310 -0.52500
O 	O 	0.78740 0.47830 0.63130 -0.48600
P 	P 	0.86904 0.78306 0.02594 0.34200
P 	P 	0.14217 0.78718 0.01941 0.35200
P 	P 	0.96408 0.97380 0.24192 0.69200
P 	P 	0.75009 0.43187 0.71576 0.52900
H 	H 	0.68000 0.43700 0.71700 -0.01800
H 	H 	0.17000 0.80600 0.11700 -0.01800
H 	H 	0.91200 0.75100 0.11000 -0.00300
H 	H 	0.92800 0.85900 0.25000 -0.01500
In	In	0.27422 0.00366 0.97135 1.99400
O 	O 	0.49870 0.48290 0.15810 -0.63400
O 	O 	0.35111 0.15810 0.96540 -0.42600
O 	O 	0.68633 0.36860 0.95440 -0.44800
O 	O 	0.30404 0.34270 0.06540 -0.51800
O 	O 	0.40310 0.57980 0.21740 -0.42400
H 	H 	0.40760 0.61630 0.16430 0.27000
O 	O 	0.25120 0.78160 0.72090 -0.44100
H 	H 	0.23360 0.75150 0.66620 0.26500
O 	O 	0.28190 0.98750 0.81470 -0.39100
O 	O 	0.40718 0.37860 0.96480 -0.41100
O 	O 	0.64554 0.14210 0.99690 -0.42600
O 	O 	0.56360 0.32880 0.00310 -0.52500
O 	O 	0.28740 0.97830 0.63130 -0.43800
P 	P 	0.36904 0.28306 0.02594 0.35300
P 	P 	0.64217 0.28718 0.01941 0.36600
P 	P 	0.46408 0.47380 0.24192 0.45000
P 	P 	0.25009 0.93187 0.71576 0.53100
H 	H 	0.18000 0.93700 0.71700 0.00500
H 	H 	0.67000 0.30600 0.11700 -0.04000
H 	H 	0.41200 0.25100 0.11000 -0.04100
H 	H 	0.42800 0.35900 0.25000 -0.02700
In	In	0.22578 0.50366 0.52865 2.01100
O 	O 	0.00130 0.98290 0.34190 -0.65400
O 	O 	0.14889 0.65810 0.53460 -0.48300
O 	O 	0.81367 0.86860 0.54560 -0.47200
O 	O 	0.19596 0.84270 0.43460 -0.47500
O 	O 	0.09690 0.07980 0.28260 -0.49600
H 	H 	0.09240 0.11630 0.33570 0.26600
O 	O 	0.24880 0.28160 0.77910 -0.46600
H 	H 	0.26640 0.25150 0.83380 0.26600
O 	O 	0.21810 0.48750 0.68530 -0.47700
O 	O 	0.09282 0.87860 0.53520 -0.47200
O 	O 	0.85446 0.64210 0.50310 -0.44800
O 	O 	0.93640 0.82880 0.49690 -0.39500
O 	O 	0.21260 0.47830 0.86870 -0.47700
P 	P 	0.13096 0.78306 0.47406 0.47700
P 	P 	0.85783 0.78718 0.48059 0.48400
P 	P 	0.03592 0.97380 0.25808 0.32200
P 	P 	0.24991 0.43187 0.78424 0.53000
H 	H 	0.32000 0.43700 0.78300 -0.01500
H 	H 	0.83000 0.80600 0.38300 -0.01600
H 	H 	0.08800 0.75100 0.39000 -0.05400
H 	H 	0.07200 0.85900 0.25000 -0.01500
In	In	0.72578 0.00366 0.52865 1.97800
O 	O 	0.50130 0.48290 0.34190 -0.62200
O 	O 	0.64889 0.15810 0.53460 -0.50400
O 	O 	0.31367 0.36860 0.54560 -0.52300
O 	O 	0.69596 0.34270 0.43460 -0.51100
O 	O 	0.59690 0.57980 0.28260 -0.43200
H 	H 	0.59240 0.61630 0.33570 0.28600
O 	O 	0.74880 0.78160 0.77910 -0.44300
H 	H 	0.76640 0.75150 0.83380 0.27600
O 	O 	0.71810 0.98750 0.68530 -0.40400
O 	O 	0.59282 0.37860 0.53520 -0.49700
O 	O 	0.35446 0.14210 0.50310 -0.52200
O 	O 	0.43640 0.32880 0.49690 -0.49600
O 	O 	0.71260 0.97830 0.86870 -0.41500
P 	P 	0.63096 0.28306 0.47406 0.48300
P 	P 	0.35783 0.28718 0.48059 0.48800
P 	P 	0.53592 0.47380 0.25808 0.45700
P 	P 	0.74991 0.93187 0.78424 0.53200
H 	H 	0.82000 0.93700 0.78300 0.01500
H 	H 	0.33000 0.30600 0.38300 -0.04800
H 	H 	0.58800 0.25100 0.39000 -0.04800
H 	H 	0.57200 0.35900 0.25000 -0.02800
In	In	0.22578 0.49634 0.02865 1.99300
O 	O 	0.00130 0.01710 0.84190 -0.72500
O 	O 	0.14889 0.34190 0.03460 -0.56600
O 	O 	0.81367 0.13140 0.04560 -0.62500
O 	O 	0.19596 0.15730 0.93460 -0.53400
O 	O 	0.09690 0.92020 0.78260 -0.32100
H 	H 	0.09240 0.88370 0.83570 0.27400
O 	O 	0.24880 0.71840 0.27910 -0.43600
H 	H 	0.26640 0.74850 0.33380 0.27800
O 	O 	0.21810 0.51250 0.18530 -0.48500
O 	O 	0.09282 0.12140 0.03520 -0.63500
O 	O 	0.85446 0.35790 0.00310 -0.54100
O 	O 	0.93640 0.17120 0.99690 -0.41800
O 	O 	0.21260 0.52170 0.36870 -0.50500
P 	P 	0.13096 0.21694 0.97406 0.61400
P 	P 	0.85783 0.21282 0.98059 0.59600
P 	P 	0.03592 0.02620 0.75808 0.17400
P 	P 	0.24991 0.56813 0.28424 0.52500
H 	H 	0.32000 0.56300 0.28300 -0.01400
H 	H 	0.83000 0.19400 0.88300 -0.06700
H 	H 	0.08800 0.24900 0.89000 -0.06700
H 	H 	0.07200 0.14100 0.75000 -0.02400
In	In	0.72578 0.99634 0.02865 2.02500
O 	O 	0.50130 0.51710 0.84190 -0.60200
O 	O 	0.64889 0.84190 0.03460 -0.51300
O 	O 	0.31367 0.63140 0.04560 -0.59100
O 	O 	0.69596 0.65730 0.93460 -0.50000
O 	O 	0.59690 0.42020 0.78260 -0.44200
H 	H 	0.59240 0.38370 0.83570 0.29100
O 	O 	0.74880 0.21840 0.27910 -0.44800
H 	H 	0.76640 0.24850 0.33380 0.26900
O 	O 	0.71810 0.01250 0.18530 -0.53600
O 	O 	0.59282 0.62140 0.03520 -0.56600
O 	O 	0.35446 0.85790 0.00310 -0.51900
O 	O 	0.43640 0.67120 0.99690 -0.43700
O 	O 	0.71260 0.02170 0.36870 -0.54700
P 	P 	0.63096 0.71694 0.97406 0.61500
P 	P 	0.35783 0.71282 0.98059 0.61800
P 	P 	0.53592 0.52620 0.75808 0.45400
P 	P 	0.74991 0.06813 0.28424 0.52400
H 	H 	0.82000 0.06300 0.28300 -0.03300
H 	H 	0.33000 0.69400 0.88300 -0.04800
H 	H 	0.58800 0.74900 0.89000 -0.03000
H 	H 	0.57200 0.64100 0.75000 -0.01500
In	In	0.77422 0.49634 0.47135 2.01200
O 	O 	0.99870 0.01710 0.65810 -0.55600
O 	O 	0.85111 0.34190 0.46540 -0.44800
O 	O 	0.18633 0.13140 0.45440 -0.56200
O 	O 	0.80404 0.15730 0.56540 -0.54100
O 	O 	0.90310 0.92020 0.71740 -0.37600
H 	H 	0.90760 0.88370 0.66430 0.29700
O 	O 	0.75120 0.71840 0.22090 -0.42500
H 	H 	0.73360 0.74850 0.16620 0.26700
O 	O 	0.78190 0.51250 0.31470 -0.46000
O 	O 	0.90718 0.12140 0.46480 -0.48300
O 	O 	0.14554 0.35790 0.49690 -0.48800
O 	O 	0.06360 0.17120 0.50310 -0.56000
O 	O 	0.78740 0.52170 0.13130 -0.51200
P 	P 	0.86904 0.21694 0.52594 0.48200
P 	P 	0.14217 0.21282 0.51941 0.48300
P 	P 	0.96408 0.02620 0.74192 0.59800
P 	P 	0.75009 0.56813 0.21576 0.52400
H 	H 	0.68000 0.56300 0.21700 -0.01600
H 	H 	0.17000 0.19400 0.61700 -0.07400
H 	H 	0.91200 0.24900 0.61000 -0.01500
H 	H 	0.92800 0.14100 0.75000 -0.02800
In	In	0.27422 0.99634 0.47135 2.04600
O 	O 	0.49870 0.51710 0.65810 -0.62100
O 	O 	0.35111 0.84190 0.46540 -0.42700
O 	O 	0.68633 0.63140 0.45440 -0.51100
O 	O 	0.30404 0.65730 0.56540 -0.50700
O 	O 	0.40310 0.42020 0.71740 -0.43500
H 	H 	0.40760 0.38370 0.66430 0.27500
O 	O 	0.25120 0.21840 0.22090 -0.44700
H 	H 	0.23360 0.24850 0.16620 0.25800
O 	O 	0.28190 0.01250 0.31470 -0.53300
O 	O 	0.40718 0.62140 0.46480 -0.48500
O 	O 	0.64554 0.85790 0.49690 -0.41600
O 	O 	0.56360 0.67120 0.50310 -0.47500
O 	O 	0.28740 0.02170 0.13130 -0.57000
P 	P 	0.36904 0.71694 0.52594 0.47800
P 	P 	0.64217 0.71282 0.51941 0.48200
P 	P 	0.46408 0.52620 0.74192 0.44800
P 	P 	0.25009 0.06813 0.21576 0.52200
H 	H 	0.18000 0.06300 0.21700 -0.04600
H 	H 	0.67000 0.69400 0.61700 -0.04000
H 	H 	0.41200 0.74900 0.61000 -0.02400
H 	H 	0.42800 0.64100 0.75000 -0.01400
In	In	-0.00000 0.00000 -0.00000 1.92800
In	In	0.50000 0.50000 -0.00000 1.99600
In	In	0.00000 -0.00000 0.50000 1.94700
In	In	0.50000 0.50000 0.50000 2.01900
