data_crystal

_cell_length_a 26.79740
_cell_length_b 9.84590
_cell_length_c 18.54410
_cell_angle_alpha 90.00000
_cell_angle_beta  90.00000
_cell_angle_gamma 90.00000

_symmetry_space_group_name_	'P 1'
_symmetry_space_group_name_H-M	'P 1'

loop_
_symmetry_equiv_pos_as_xyz
  x,y,z

loop_
_atom_site_label
_atom_site_type_symbol
_atom_site_fract_x
_atom_site_fract_y
_atom_site_fract_z
_atom_site_charge
H 	H 	0.43700 0.07300 0.64800 -0.10100
H 	H 	0.42200 0.41200 0.96000 -0.08900
H 	H 	0.35500 0.50800 0.72900 -0.02900
H 	H 	0.68800 0.08000 0.64600 -0.01800
H 	H 	0.40800 0.44500 0.39000 -0.01900
H 	H 	0.58400 0.52900 0.71700 -0.03600
H 	H 	0.31300 0.92300 0.49200 -0.09100
H 	H 	0.27200 0.62300 0.49600 -0.02000
H 	H 	0.49200 0.37300 0.60700 -0.04100
In	In	0.40038 0.23682 0.80539 2.01400
In	In	0.40107 0.73078 0.56957 2.01200
In	In	0.65009 0.24873 0.80811 2.01900
In	In	0.34876 0.25515 0.07099 1.99500
In	In	0.35529 0.24232 0.54460 2.01100
In	In	0.39443 0.75311 0.03502 1.97700
O 	O 	0.57190 0.26730 0.82610 -0.47300
O 	O 	0.27260 0.31300 0.90010 -0.46800
H 	H 	0.29940 0.34140 0.91530 0.29300
O 	O 	0.41600 0.35640 0.71360 -0.50800
O 	O 	0.38870 0.89390 0.94990 -0.40100
O 	O 	0.33880 0.08440 0.00480 -0.69500
O 	O 	0.39370 0.88520 0.49230 -0.51200
O 	O 	0.32350 0.71830 0.58710 -0.49600
O 	O 	0.36070 0.08480 0.62400 -0.50400
O 	O 	0.23100 0.76330 0.58250 -0.44900
O 	O 	0.40210 0.57720 0.48740 -0.52400
O 	O 	0.34823 0.38680 0.97720 -0.43500
O 	O 	0.40550 0.86750 0.65980 -0.45800
O 	O 	0.34880 0.40180 0.62070 -0.53100
O 	O 	0.64310 0.87590 0.66260 -0.45000
O 	O 	0.43340 0.25640 0.53090 -0.49900
O 	O 	0.60120 0.09320 0.61830 -0.50400
O 	O 	0.47960 0.22430 0.82460 -0.42000
O 	O 	0.27638 0.21500 0.56110 -0.46400
O 	O 	0.22930 0.24820 0.78490 -0.47400
O 	O 	0.32130 0.23740 0.78900 -0.52700
O 	O 	0.33920 0.39020 0.46250 -0.47400
O 	O 	0.52559 0.22360 0.52240 -0.43800
O 	O 	0.33740 0.59780 0.38570 -0.48500
O 	O 	0.47930 0.74730 0.55030 -0.46600
O 	O 	0.39980 0.05170 0.74700 -0.46200
O 	O 	0.65630 0.57460 0.63800 -0.48200
O 	O 	0.63720 0.07430 0.74400 -0.45000
O 	O 	0.41640 0.57670 0.64790 -0.48300
O 	O 	0.39200 0.42910 0.85900 -0.48400
O 	O 	0.57250 0.73600 0.56840 -0.50400
O 	O 	0.39840 0.12960 0.90300 -0.49200
O 	O 	0.33540 0.90390 0.38440 -0.46100
O 	O 	0.18310 0.23620 0.55210 -0.49100
O 	O 	0.35210 0.10680 0.45730 -0.47500
O 	O 	0.64800 0.38150 0.72070 -0.50600
O 	O 	0.39000 0.61230 0.94940 -0.40600
O 	O 	0.58990 0.39700 0.61300 -0.53100
O 	O 	0.26210 0.53400 0.60890 -0.44100
H 	H 	0.28430 0.47860 0.60100 0.28100
O 	O 	0.49030 0.44750 0.49620 -0.44700
H 	H 	0.46920 0.50370 0.50780 0.27000
O 	O 	0.24210 0.32090 0.45190 -0.45500
H 	H 	0.26750 0.29850 0.43040 0.28200
O 	O 	0.52170 0.93920 0.60110 -0.44700
H 	H 	0.54520 0.96580 0.62570 0.29100
O 	O 	0.52490 0.17930 0.71490 -0.42500
H 	H 	0.54780 0.20240 0.68830 0.24100
O 	O 	0.27940 0.44610 0.82510 -0.48400
H 	H 	0.30610 0.46500 0.84440 0.28700
P 	P 	0.36312 0.02944 0.93787 0.70900
H 	H 	0.32890 0.01050 0.90500 -0.08300
P 	P 	0.40311 0.02140 0.66696 0.55100
P 	P 	0.39188 0.45910 0.93986 0.56800
P 	P 	0.52317 0.78200 0.59599 0.50200
P 	P 	0.38394 0.46329 0.67702 0.47900
P 	P 	0.52407 0.27380 0.78372 0.46700
H 	H 	0.51020 0.42350 0.76020 -0.00500
P 	P 	0.64311 0.03250 0.66544 0.45400
P 	P 	0.37085 0.50587 0.43069 0.47400
P 	P 	0.61959 0.47230 0.66932 0.49600
P 	P 	0.27516 0.30000 0.81801 0.71000
P 	P 	0.23161 0.21910 0.51228 0.50300
H 	H 	0.22900 0.10270 0.46340 -0.00600
P 	P 	0.34749 0.95280 0.45988 0.52500
P 	P 	0.27258 0.66610 0.56601 0.50700
P 	P 	0.48378 0.31820 0.54195 0.51500
H 	H 	0.56300 0.92700 0.14800 -0.10800
H 	H 	0.57800 0.58800 0.46000 -0.14200
H 	H 	0.64500 0.49200 0.22900 -0.02800
H 	H 	0.31200 0.92000 0.14600 -0.02500
H 	H 	0.59200 0.55500 0.89000 -0.00000
H 	H 	0.41600 0.47100 0.21700 -0.03900
H 	H 	0.68700 0.07700 0.99200 -0.02600
H 	H 	0.72800 0.37700 0.99600 0.10200
H 	H 	0.50800 0.62700 0.10700 -0.02700
In	In	0.59962 0.76318 0.30539 2.01400
In	In	0.59893 0.26922 0.06957 1.97800
In	In	0.34991 0.75127 0.30811 2.01800
In	In	0.65124 0.74485 0.57099 2.01400
In	In	0.64471 0.75768 0.04460 1.97300
In	In	0.60557 0.24689 0.53502 2.01500
O 	O 	0.42810 0.73270 0.32610 -0.48500
O 	O 	0.72740 0.68700 0.40010 -0.49100
H 	H 	0.70060 0.65860 0.41530 0.28400
O 	O 	0.58400 0.64360 0.21360 -0.50800
O 	O 	0.61130 0.10610 0.44990 -0.46600
O 	O 	0.66120 0.91560 0.50480 -0.52800
O 	O 	0.60630 0.11480 0.99230 -0.40300
O 	O 	0.67650 0.28170 0.08710 -0.53900
O 	O 	0.63930 0.91520 0.12400 -0.54500
O 	O 	0.76900 0.23670 0.08250 -0.47700
O 	O 	0.59790 0.42280 0.98740 -0.38800
O 	O 	0.65177 0.61320 0.47720 -0.53300
O 	O 	0.59450 0.13250 0.15980 -0.47100
O 	O 	0.65120 0.59820 0.12070 -0.56100
O 	O 	0.35690 0.12410 0.16260 -0.44800
O 	O 	0.56660 0.74360 0.03090 -0.55500
O 	O 	0.39880 0.90680 0.11830 -0.52800
O 	O 	0.52040 0.77570 0.32460 -0.43900
O 	O 	0.72362 0.78500 0.06110 -0.49000
O 	O 	0.77070 0.75180 0.28490 -0.47700
O 	O 	0.67870 0.76260 0.28900 -0.53000
O 	O 	0.66080 0.60980 0.96250 -0.39000
O 	O 	0.47441 0.77640 0.02240 -0.50800
O 	O 	0.66260 0.40220 0.88570 -0.47400
O 	O 	0.52070 0.25270 0.05030 -0.54100
O 	O 	0.60020 0.94830 0.24700 -0.46300
O 	O 	0.34370 0.42540 0.13800 -0.51200
O 	O 	0.36280 0.92570 0.24400 -0.45300
O 	O 	0.58360 0.42330 0.14790 -0.50000
O 	O 	0.60800 0.57090 0.35900 -0.49200
O 	O 	0.42750 0.26400 0.06840 -0.57100
O 	O 	0.60160 0.87040 0.40300 -0.50900
O 	O 	0.66460 0.09610 0.88440 -0.45100
O 	O 	0.81690 0.76380 0.05210 -0.51600
O 	O 	0.64790 0.89320 0.95730 -0.40000
O 	O 	0.35200 0.61850 0.22070 -0.50800
O 	O 	0.61000 0.38770 0.44940 -0.48100
O 	O 	0.41010 0.60300 0.11300 -0.57200
O 	O 	0.73790 0.46600 0.10890 -0.42200
H 	H 	0.71570 0.52140 0.10100 0.24800
O 	O 	0.50970 0.55250 0.99620 -0.00500
H 	H 	0.53080 0.49630 0.00780 -0.05900
O 	O 	0.75790 0.67910 0.95190 -0.27800
H 	H 	0.73250 0.70150 0.93040 0.24200
O 	O 	0.47830 0.06080 0.10110 -0.47700
H 	H 	0.45480 0.03420 0.12570 0.30100
O 	O 	0.47510 0.82070 0.21490 -0.42800
H 	H 	0.45220 0.79760 0.18830 0.24200
O 	O 	0.72060 0.55390 0.32510 -0.48500
H 	H 	0.69390 0.53500 0.34440 0.28600
P 	P 	0.63688 0.97056 0.43787 0.55200
H 	H 	0.67110 0.98950 0.40500 -0.07100
P 	P 	0.59689 0.97860 0.16696 0.54100
P 	P 	0.60812 0.54090 0.43986 0.58500
P 	P 	0.47683 0.21800 0.09599 0.50300
P 	P 	0.61606 0.53671 0.17702 0.48000
P 	P 	0.47593 0.72620 0.28372 0.46600
H 	H 	0.48980 0.57650 0.26020 -0.00800
P 	P 	0.35689 0.96750 0.16544 0.44700
P 	P 	0.62915 0.49413 0.93069 0.47100
P 	P 	0.38041 0.52770 0.16932 0.49600
P 	P 	0.72484 0.70000 0.31801 0.71200
P 	P 	0.76839 0.78090 0.01228 0.24000
H 	H 	0.77100 0.89730 0.96340 0.09800
P 	P 	0.65251 0.04720 0.95988 0.52300
P 	P 	0.72742 0.33390 0.06601 0.35900
P 	P 	0.51622 0.68180 0.04195 0.33000
H 	H 	0.93700 0.42700 0.64800 -0.10100
H 	H 	0.92200 0.08800 0.96000 -0.08800
H 	H 	0.85500 0.99200 0.72900 -0.03000
H 	H 	0.18800 0.42000 0.64600 -0.01800
H 	H 	0.90800 0.05500 0.39000 -0.01500
H 	H 	0.08400 0.97100 0.71700 -0.03900
H 	H 	0.81300 0.57700 0.49200 -0.09100
H 	H 	0.77200 0.87700 0.49600 -0.02100
H 	H 	0.99200 0.12700 0.60700 -0.04000
In	In	0.90038 0.26318 0.80539 2.01400
In	In	0.90107 0.76922 0.56957 2.01200
In	In	0.15009 0.25127 0.80811 2.01900
In	In	0.84876 0.24485 0.07099 1.99600
In	In	0.85529 0.25768 0.54460 2.01100
In	In	0.89443 0.74689 0.03502 1.97700
O 	O 	0.07190 0.23270 0.82610 -0.47300
O 	O 	0.77260 0.18700 0.90010 -0.46800
H 	H 	0.79940 0.15860 0.91530 0.29300
O 	O 	0.91600 0.14360 0.71360 -0.50800
O 	O 	0.88870 0.60610 0.94990 -0.40200
O 	O 	0.83880 0.41560 0.00480 -0.70000
O 	O 	0.89370 0.61480 0.49230 -0.51200
O 	O 	0.82350 0.78170 0.58710 -0.49600
O 	O 	0.86070 0.41520 0.62400 -0.50500
O 	O 	0.73100 0.73670 0.58250 -0.44900
O 	O 	0.90210 0.92280 0.48740 -0.52400
O 	O 	0.84823 0.11320 0.97720 -0.43600
O 	O 	0.90550 0.63250 0.65980 -0.45600
O 	O 	0.84880 0.09820 0.62070 -0.53000
O 	O 	0.14310 0.62410 0.66260 -0.44900
O 	O 	0.93340 0.24360 0.53090 -0.49900
O 	O 	0.10120 0.40680 0.61830 -0.50500
O 	O 	0.97960 0.27570 0.82460 -0.42000
O 	O 	0.77638 0.28500 0.56110 -0.46500
O 	O 	0.72930 0.25180 0.78490 -0.47400
O 	O 	0.82130 0.26260 0.78900 -0.52600
O 	O 	0.83920 0.10980 0.46250 -0.47100
O 	O 	0.02559 0.27640 0.52240 -0.43900
O 	O 	0.83740 0.90220 0.38570 -0.48600
O 	O 	0.97930 0.75270 0.55030 -0.46600
O 	O 	0.89980 0.44830 0.74700 -0.46100
O 	O 	0.15630 0.92540 0.63800 -0.48500
O 	O 	0.13720 0.42570 0.74400 -0.45000
O 	O 	0.91640 0.92330 0.64790 -0.48500
O 	O 	0.89200 0.07090 0.85900 -0.48400
O 	O 	0.07250 0.76400 0.56840 -0.50400
O 	O 	0.89840 0.37040 0.90300 -0.49200
O 	O 	0.83540 0.59610 0.38440 -0.46000
O 	O 	0.68310 0.26380 0.55210 -0.49100
O 	O 	0.85210 0.39320 0.45730 -0.47900
O 	O 	0.14800 0.11850 0.72070 -0.50600
O 	O 	0.89000 0.88770 0.94940 -0.40700
O 	O 	0.08990 0.10300 0.61300 -0.53100
O 	O 	0.76210 0.96600 0.60890 -0.44600
H 	H 	0.78430 0.02140 0.60100 0.28500
O 	O 	0.99030 0.05250 0.49620 -0.44000
H 	H 	0.96920 0.99630 0.50780 0.26400
O 	O 	0.74210 0.17910 0.45190 -0.45400
H 	H 	0.76750 0.20150 0.43040 0.28100
O 	O 	0.02170 0.56080 0.60110 -0.44600
H 	H 	0.04520 0.53420 0.62570 0.29200
O 	O 	0.02490 0.32070 0.71490 -0.42500
H 	H 	0.04780 0.29760 0.68830 0.24100
O 	O 	0.77940 0.05390 0.82510 -0.48400
H 	H 	0.80610 0.03500 0.84440 0.28700
P 	P 	0.86312 0.47056 0.93787 0.71300
H 	H 	0.82890 0.48950 0.90500 -0.08300
P 	P 	0.90311 0.47860 0.66696 0.54900
P 	P 	0.89188 0.04090 0.93986 0.56700
P 	P 	0.02317 0.71800 0.59599 0.50100
P 	P 	0.88394 0.03671 0.67702 0.48200
P 	P 	0.02407 0.22620 0.78372 0.46700
H 	H 	0.01020 0.07650 0.76020 -0.00500
P 	P 	0.14311 0.46750 0.66544 0.45300
P 	P 	0.87085 0.99413 0.43069 0.46800
P 	P 	0.11959 0.02770 0.66932 0.50000
P 	P 	0.77516 0.20000 0.81801 0.71000
P 	P 	0.73161 0.28090 0.51228 0.50300
H 	H 	0.72900 0.39730 0.46340 -0.00800
P 	P 	0.84749 0.54720 0.45988 0.52900
P 	P 	0.77258 0.83390 0.56601 0.50700
P 	P 	0.98378 0.18180 0.54195 0.51400
H 	H 	0.06300 0.57300 0.14800 -0.10800
H 	H 	0.07800 0.91200 0.46000 -0.14200
H 	H 	0.14500 0.00800 0.22900 -0.02100
H 	H 	0.81200 0.58000 0.14600 -0.02400
H 	H 	0.09200 0.94500 0.89000 -0.00100
H 	H 	0.91600 0.02900 0.21700 -0.03300
H 	H 	0.18700 0.42300 0.99200 -0.02600
H 	H 	0.22800 0.12300 0.99600 0.10000
H 	H 	0.00800 0.87300 0.10700 -0.02900
In	In	0.09962 0.73682 0.30539 2.01300
In	In	0.09893 0.23078 0.06957 1.97900
In	In	0.84991 0.74873 0.30811 2.01800
In	In	0.15124 0.75515 0.57099 2.01400
In	In	0.14471 0.74232 0.04460 1.97300
In	In	0.10557 0.25311 0.53502 2.01500
O 	O 	0.92810 0.76730 0.32610 -0.48500
O 	O 	0.22740 0.81300 0.40010 -0.49100
H 	H 	0.20060 0.84140 0.41530 0.28400
O 	O 	0.08400 0.85640 0.21360 -0.50800
O 	O 	0.11130 0.39390 0.44990 -0.46900
O 	O 	0.16120 0.58440 0.50480 -0.52700
O 	O 	0.10630 0.38520 0.99230 -0.40300
O 	O 	0.17650 0.21830 0.08710 -0.53800
O 	O 	0.13930 0.58480 0.12400 -0.54400
O 	O 	0.26900 0.26330 0.08250 -0.47900
O 	O 	0.09790 0.07720 0.98740 -0.39100
O 	O 	0.15177 0.88680 0.47720 -0.53400
O 	O 	0.09450 0.36750 0.15980 -0.47600
O 	O 	0.15120 0.90180 0.12070 -0.56100
O 	O 	0.85690 0.37590 0.16260 -0.45300
O 	O 	0.06660 0.75640 0.03090 -0.55500
O 	O 	0.89880 0.59320 0.11830 -0.52600
O 	O 	0.02040 0.72430 0.32460 -0.44000
O 	O 	0.22362 0.71500 0.06110 -0.48900
O 	O 	0.27070 0.74820 0.28490 -0.47700
O 	O 	0.17870 0.73740 0.28900 -0.52900
O 	O 	0.16080 0.89020 0.96250 -0.39100
O 	O 	0.97441 0.72360 0.02240 -0.50600
O 	O 	0.16260 0.09780 0.88570 -0.47400
O 	O 	0.02070 0.24730 0.05030 -0.54200
O 	O 	0.10020 0.55170 0.24700 -0.46200
O 	O 	0.84370 0.07460 0.13800 -0.50500
O 	O 	0.86280 0.57430 0.24400 -0.45200
O 	O 	0.08360 0.07670 0.14790 -0.49300
O 	O 	0.10800 0.92910 0.35900 -0.49300
O 	O 	0.92750 0.23600 0.06840 -0.56900
O 	O 	0.10160 0.62960 0.40300 -0.50900
O 	O 	0.16460 0.40390 0.88440 -0.45100
O 	O 	0.31690 0.73620 0.05210 -0.51600
O 	O 	0.14790 0.60680 0.95730 -0.40000
O 	O 	0.85200 0.88150 0.22070 -0.50800
O 	O 	0.11000 0.11230 0.44940 -0.47700
O 	O 	0.91010 0.89700 0.11300 -0.57200
O 	O 	0.23790 0.03400 0.10890 -0.40800
H 	H 	0.21570 0.97860 0.10100 0.23700
O 	O 	0.00970 0.94750 0.99620 -0.02000
H 	H 	0.03080 0.00370 0.00780 -0.04500
O 	O 	0.25790 0.82090 0.95190 -0.27900
H 	H 	0.23250 0.79850 0.93040 0.24200
O 	O 	0.97830 0.43920 0.10110 -0.48000
H 	H 	0.95480 0.46580 0.12570 0.29800
O 	O 	0.97510 0.67930 0.21490 -0.42700
H 	H 	0.95220 0.70240 0.18830 0.24100
O 	O 	0.22060 0.94610 0.32510 -0.48800
H 	H 	0.19390 0.96500 0.34440 0.28500
P 	P 	0.13688 0.52944 0.43787 0.55500
H 	H 	0.17110 0.51050 0.40500 -0.07000
P 	P 	0.09689 0.52140 0.16696 0.54600
P 	P 	0.10812 0.95910 0.43986 0.58100
P 	P 	0.97683 0.28200 0.09599 0.50400
P 	P 	0.11606 0.96329 0.17702 0.46800
P 	P 	0.97593 0.77380 0.28372 0.46600
H 	H 	0.98980 0.92350 0.26020 -0.01000
P 	P 	0.85689 0.53250 0.16544 0.45200
P 	P 	0.12915 0.00587 0.93069 0.47200
P 	P 	0.88041 0.97230 0.16932 0.48600
P 	P 	0.22484 0.80000 0.31801 0.71200
P 	P 	0.26839 0.71910 0.01228 0.24000
H 	H 	0.27100 0.60270 0.96340 0.09900
P 	P 	0.15251 0.45280 0.95988 0.52400
P 	P 	0.22742 0.16610 0.06601 0.36000
P 	P 	0.01622 0.81820 0.04195 0.33200
