data_crystal

_cell_length_a 8.00700
_cell_length_b 15.88000
_cell_length_c 29.44500
_cell_angle_alpha 90.00000
_cell_angle_beta  90.00000
_cell_angle_gamma 90.00000

_symmetry_space_group_name_	'P 1'
_symmetry_space_group_name_H-M	'P 1'

loop_
_symmetry_equiv_pos_as_xyz
  x,y,z

loop_
_atom_site_label
_atom_site_type_symbol
_atom_site_fract_x
_atom_site_fract_y
_atom_site_fract_z
_atom_site_charge
Eu	Eu	0.44995 0.70682 0.58896 1.95500
Eu	Eu	0.05005 0.20682 0.41104 1.92700
Eu	Eu	0.55005 0.29318 0.08896 1.95500
Eu	Eu	0.94995 0.79318 0.91104 1.92400
Eu	Eu	0.55005 0.29318 0.41104 1.95600
Eu	Eu	0.94995 0.79318 0.58896 1.92800
Eu	Eu	0.44995 0.70682 0.91104 1.95600
Eu	Eu	0.05005 0.20682 0.08896 1.92500
H 	H 	0.27680 0.51480 0.49260 0.01900
H 	H 	0.00490 0.44690 0.38410 0.00100
H 	H 	0.86140 0.57410 0.38800 0.07400
H 	H 	0.91110 0.66590 0.44760 0.01200
H 	H 	0.78350 0.93260 0.68180 -0.03300
H 	H 	0.22320 0.01480 0.50740 0.01700
H 	H 	0.49510 0.94690 0.61590 0.00100
H 	H 	0.63860 0.07410 0.61200 0.07700
H 	H 	0.58890 0.16590 0.55240 0.01000
H 	H 	0.71650 0.43260 0.31820 -0.03000
H 	H 	0.72320 0.48520 0.99260 0.01800
H 	H 	0.99510 0.55310 0.88410 0.00000
H 	H 	0.13860 0.42590 0.88800 0.07400
H 	H 	0.08890 0.33410 0.94760 0.01100
H 	H 	0.21650 0.06740 0.18180 -0.03300
H 	H 	0.77680 0.98520 0.00740 0.01800
H 	H 	0.50490 0.05310 0.11590 0.00100
H 	H 	0.36140 0.92590 0.11200 0.07700
H 	H 	0.41110 0.83410 0.05240 0.01000
H 	H 	0.28350 0.56740 0.81820 -0.03000
H 	H 	0.72320 0.48520 0.50740 0.01900
H 	H 	0.99510 0.55310 0.61590 0.00100
H 	H 	0.13860 0.42590 0.61200 0.07400
H 	H 	0.08890 0.33410 0.55240 0.01200
H 	H 	0.21650 0.06740 0.31820 -0.03300
H 	H 	0.77680 0.98520 0.49260 0.01700
H 	H 	0.50490 0.05310 0.38410 0.00100
H 	H 	0.36140 0.92590 0.38800 0.07700
H 	H 	0.41110 0.83410 0.44760 0.01000
H 	H 	0.28350 0.56740 0.68180 -0.03000
H 	H 	0.27680 0.51480 0.00740 0.01800
H 	H 	0.00490 0.44690 0.11590 0.00000
H 	H 	0.86140 0.57410 0.11200 0.07400
H 	H 	0.91110 0.66590 0.05240 0.01100
H 	H 	0.78350 0.93260 0.81820 -0.03300
H 	H 	0.22320 0.01480 0.99260 0.01800
H 	H 	0.49510 0.94690 0.88410 0.00100
H 	H 	0.63860 0.07410 0.88800 0.07700
H 	H 	0.58890 0.16590 0.94760 0.01000
H 	H 	0.71650 0.43260 0.18180 -0.03000
H 	H 	0.85520 0.99570 0.75000 0.08400
H 	H 	0.54940 0.74810 0.75000 0.01900
H 	H 	0.64480 0.49570 0.25000 0.08700
H 	H 	0.95060 0.24810 0.25000 0.02400
H 	H 	0.14480 0.00430 0.25000 0.08400
H 	H 	0.45060 0.25190 0.25000 0.01900
H 	H 	0.35520 0.50430 0.75000 0.08700
H 	H 	0.04940 0.75190 0.75000 0.02400
C 	C 	0.13110 0.65730 0.51587 0.49600
C 	C 	0.09810 0.59920 0.47651 -0.18600
C 	C 	0.18980 0.52550 0.47244 0.10100
C 	C 	0.15330 0.46770 0.43870 -0.16100
C 	C 	0.02910 0.48530 0.40697 0.06500
C 	C 	0.94140 0.56090 0.40977 -0.14400
C 	C 	0.97330 0.61660 0.44502 0.09000
C 	C 	0.25490 0.38850 0.43655 0.36400
C 	C 	0.61080 0.79190 0.66564 0.40700
C 	C 	0.66230 0.83300 0.70904 -0.18400
C 	C 	0.75250 0.90780 0.70908 0.11700
C 	C 	0.36890 0.15730 0.48413 0.49700
C 	C 	0.40190 0.09920 0.52349 -0.18800
C 	C 	0.31020 0.02550 0.52756 0.10200
C 	C 	0.34670 0.96770 0.56130 -0.16200
C 	C 	0.47090 0.98530 0.59303 0.07700
C 	C 	0.55860 0.06090 0.59023 -0.15700
C 	C 	0.52670 0.11660 0.55498 0.09500
C 	C 	0.24510 0.88850 0.56345 0.36600
C 	C 	0.88920 0.29190 0.33436 0.40600
C 	C 	0.83770 0.33300 0.29096 -0.17800
C 	C 	0.74750 0.40780 0.29092 0.11700
C 	C 	0.86890 0.34270 0.01587 0.49700
C 	C 	0.90190 0.40080 0.97651 -0.18900
C 	C 	0.81020 0.47450 0.97244 0.10200
C 	C 	0.84670 0.53230 0.93870 -0.16200
C 	C 	0.97090 0.51470 0.90697 0.06500
C 	C 	0.05860 0.43910 0.90977 -0.14400
C 	C 	0.02670 0.38340 0.94502 0.09200
C 	C 	0.74510 0.61150 0.93655 0.36400
C 	C 	0.38920 0.20810 0.16564 0.40700
C 	C 	0.33770 0.16700 0.20904 -0.18400
C 	C 	0.24750 0.09220 0.20908 0.11700
C 	C 	0.63110 0.84270 0.98413 0.49600
C 	C 	0.59810 0.90080 0.02349 -0.18700
C 	C 	0.68980 0.97450 0.02756 0.10100
C 	C 	0.65330 0.03230 0.06130 -0.16100
C 	C 	0.52910 0.01470 0.09303 0.07700
C 	C 	0.44140 0.93910 0.09023 -0.15700
C 	C 	0.47330 0.88340 0.05498 0.09500
C 	C 	0.75490 0.11150 0.06345 0.36600
C 	C 	0.11080 0.70810 0.83436 0.40600
C 	C 	0.16230 0.66700 0.79096 -0.17800
C 	C 	0.25250 0.59220 0.79092 0.11700
C 	C 	0.86890 0.34270 0.48413 0.49600
C 	C 	0.90190 0.40080 0.52349 -0.18600
C 	C 	0.81020 0.47450 0.52756 0.10100
C 	C 	0.84670 0.53230 0.56130 -0.16100
C 	C 	0.97090 0.51470 0.59303 0.06500
C 	C 	0.05860 0.43910 0.59023 -0.14400
C 	C 	0.02670 0.38340 0.55498 0.09000
C 	C 	0.74510 0.61150 0.56345 0.36400
C 	C 	0.38920 0.20810 0.33436 0.40700
C 	C 	0.33770 0.16700 0.29096 -0.18400
C 	C 	0.24750 0.09220 0.29092 0.11700
C 	C 	0.63110 0.84270 0.51587 0.49700
C 	C 	0.59810 0.90080 0.47651 -0.18800
C 	C 	0.68980 0.97450 0.47244 0.10200
C 	C 	0.65330 0.03230 0.43870 -0.16200
C 	C 	0.52910 0.01470 0.40697 0.07700
C 	C 	0.44140 0.93910 0.40977 -0.15700
C 	C 	0.47330 0.88340 0.44502 0.09500
C 	C 	0.75490 0.11150 0.43655 0.36600
C 	C 	0.11080 0.70810 0.66564 0.40600
C 	C 	0.16230 0.66700 0.70904 -0.17800
C 	C 	0.25250 0.59220 0.70908 0.11700
C 	C 	0.13110 0.65730 0.98413 0.49700
C 	C 	0.09810 0.59920 0.02349 -0.18900
C 	C 	0.18980 0.52550 0.02756 0.10200
C 	C 	0.15330 0.46770 0.06130 -0.16200
C 	C 	0.02910 0.48530 0.09303 0.06500
C 	C 	0.94140 0.56090 0.09023 -0.14400
C 	C 	0.97330 0.61660 0.05498 0.09200
C 	C 	0.25490 0.38850 0.06345 0.36400
C 	C 	0.61080 0.79190 0.83436 0.40700
C 	C 	0.66230 0.83300 0.79096 -0.18400
C 	C 	0.75250 0.90780 0.79092 0.11700
C 	C 	0.36890 0.15730 0.01587 0.49600
C 	C 	0.40190 0.09920 0.97651 -0.18700
C 	C 	0.31020 0.02550 0.97244 0.10100
C 	C 	0.34670 0.96770 0.93870 -0.16100
C 	C 	0.47090 0.98530 0.90697 0.07700
C 	C 	0.55860 0.06090 0.90977 -0.15700
C 	C 	0.52670 0.11660 0.94502 0.09500
C 	C 	0.24510 0.88850 0.93655 0.36600
C 	C 	0.88920 0.29190 0.16564 0.40600
C 	C 	0.83770 0.33300 0.20904 -0.17800
C 	C 	0.74750 0.40780 0.20908 0.11700
C 	C 	0.79630 0.94530 0.75000 -0.19200
C 	C 	0.61410 0.79680 0.75000 0.11100
C 	C 	0.70370 0.44530 0.25000 -0.18700
C 	C 	0.88590 0.29680 0.25000 0.10900
C 	C 	0.20370 0.05470 0.25000 -0.19200
C 	C 	0.38590 0.20320 0.25000 0.11100
C 	C 	0.29630 0.55470 0.75000 -0.18700
C 	C 	0.11410 0.70320 0.75000 0.10900
O 	O 	0.27000 0.64955 0.53544 -0.52300
O 	O 	0.01840 0.70849 0.52665 -0.50200
O 	O 	0.22400 0.33302 0.40625 -0.54700
O 	O 	0.67240 0.81670 0.62796 -0.52700
O 	O 	0.37620 0.38105 0.46286 -0.42400
O 	O 	0.50300 0.73447 0.66708 -0.48400
O 	O 	0.23000 0.14955 0.46456 -0.52300
O 	O 	0.48160 0.20849 0.47335 -0.50900
O 	O 	0.27600 0.83302 0.59375 -0.54400
O 	O 	0.82760 0.31670 0.37204 -0.52300
O 	O 	0.12380 0.88105 0.53714 -0.41900
O 	O 	0.99700 0.23447 0.33292 -0.47300
O 	O 	0.73000 0.35045 0.03544 -0.52300
O 	O 	0.98160 0.29151 0.02665 -0.50200
O 	O 	0.77600 0.66698 0.90625 -0.54700
O 	O 	0.32760 0.18330 0.12796 -0.52600
O 	O 	0.62380 0.61895 0.96286 -0.42400
O 	O 	0.49700 0.26553 0.16708 -0.48400
O 	O 	0.77000 0.85045 0.96456 -0.52300
O 	O 	0.51840 0.79151 0.97335 -0.50900
O 	O 	0.72400 0.16698 0.09375 -0.54400
O 	O 	0.17240 0.68330 0.87204 -0.52200
O 	O 	0.87620 0.11895 0.03714 -0.41800
O 	O 	0.00300 0.76553 0.83292 -0.47200
O 	O 	0.73000 0.35045 0.46456 -0.52300
O 	O 	0.98160 0.29151 0.47335 -0.50200
O 	O 	0.77600 0.66698 0.59375 -0.54700
O 	O 	0.32760 0.18330 0.37204 -0.52700
O 	O 	0.62380 0.61895 0.53714 -0.42400
O 	O 	0.49700 0.26553 0.33292 -0.48400
O 	O 	0.77000 0.85045 0.53544 -0.52300
O 	O 	0.51840 0.79151 0.52665 -0.50900
O 	O 	0.72400 0.16698 0.40625 -0.54400
O 	O 	0.17240 0.68330 0.62796 -0.52300
O 	O 	0.87620 0.11895 0.46286 -0.41900
O 	O 	0.00300 0.76553 0.66708 -0.47300
O 	O 	0.27000 0.64955 0.96456 -0.52300
O 	O 	0.01840 0.70849 0.97335 -0.50200
O 	O 	0.22400 0.33302 0.09375 -0.54700
O 	O 	0.67240 0.81670 0.87204 -0.52600
O 	O 	0.37620 0.38105 0.03714 -0.42400
O 	O 	0.50300 0.73447 0.83292 -0.48400
O 	O 	0.23000 0.14955 0.03544 -0.52300
O 	O 	0.48160 0.20849 0.02665 -0.50900
O 	O 	0.27600 0.83302 0.90625 -0.54400
O 	O 	0.82760 0.31670 0.12796 -0.52200
O 	O 	0.12380 0.88105 0.96286 -0.41800
O 	O 	0.99700 0.23447 0.16708 -0.47200
