data_crystal

_cell_length_a 9.87600
_cell_length_b 10.30000
_cell_length_c 13.49800
_cell_angle_alpha 81.96000
_cell_angle_beta  86.68000
_cell_angle_gamma 65.42000

_symmetry_space_group_name_	'P 1'
_symmetry_space_group_name_H-M	'P 1'

loop_
_symmetry_equiv_pos_as_xyz
  x,y,z

loop_
_atom_site_label
_atom_site_type_symbol
_atom_site_fract_x
_atom_site_fract_y
_atom_site_fract_z
_atom_site_charge
Dy	Dy	0.33377 0.21780 0.18320 1.03900
Cs	Cs	0.14932 0.55008 0.38407 0.66700
Mo	Mo	0.25580 0.37520 0.76029 1.06800
O 	O 	0.35040 0.44520 0.18490 -0.44600
H 	H 	0.45360 0.42300 0.20170 0.14000
N 	N 	0.09430 0.66090 0.59280 -0.14700
N 	N 	0.25130 0.26140 0.54220 -0.15100
N 	N 	0.56730 0.38980 0.66640 -0.13700
N 	N 	0.51740 0.04200 0.79100 -0.21200
N 	N 	0.32230 0.62640 0.84900 -0.11000
N 	N 	0.29340 0.28080 0.00400 -0.19100
N 	N 	0.91760 0.58680 0.82810 -0.18800
N 	N 	0.05490 0.18320 0.79570 -0.11100
C 	C 	0.15490 0.56180 0.64930 -0.19800
C 	C 	0.25420 0.29820 0.61810 -0.19700
C 	C 	0.45780 0.38350 0.69550 -0.15100
C 	C 	0.42760 0.15820 0.78090 -0.13200
C 	C 	0.29650 0.53870 0.82050 -0.14200
C 	C 	0.28140 0.31220 0.91970 -0.11900
C 	C 	0.03710 0.50940 0.80970 -0.15300
C 	C 	0.12720 0.24760 0.78570 -0.18500
C 	C 	0.30550 0.56370 0.10510 0.03100
H 	H 	0.35830 0.53150 0.04510 0.01100
H 	H 	0.32790 0.63950 0.12330 0.00300
H 	H 	0.20040 0.59910 0.09390 0.01000
Dy	Dy	0.66623 0.78220 0.81680 1.04000
Cs	Cs	0.85068 0.44992 0.61593 0.66800
Mo	Mo	0.74420 0.62480 0.23971 1.06800
O 	O 	0.64960 0.55480 0.81510 -0.44600
H 	H 	0.54640 0.57700 0.79830 0.14000
N 	N 	0.90570 0.33910 0.40720 -0.14700
N 	N 	0.74870 0.73860 0.45780 -0.15100
N 	N 	0.43270 0.61020 0.33360 -0.13700
N 	N 	0.48260 0.95800 0.20900 -0.21200
N 	N 	0.67770 0.37360 0.15100 -0.11000
N 	N 	0.70660 0.71920 0.99600 -0.19100
N 	N 	0.08240 0.41320 0.17190 -0.18800
N 	N 	0.94510 0.81680 0.20430 -0.11100
C 	C 	0.84510 0.43820 0.35070 -0.19800
C 	C 	0.74580 0.70180 0.38190 -0.19700
C 	C 	0.54220 0.61650 0.30450 -0.15100
C 	C 	0.57240 0.84180 0.21910 -0.13200
C 	C 	0.70350 0.46130 0.17950 -0.14200
C 	C 	0.71860 0.68780 0.08030 -0.11900
C 	C 	0.96290 0.49060 0.19030 -0.15300
C 	C 	0.87280 0.75240 0.21430 -0.18500
C 	C 	0.69450 0.43630 0.89490 0.03100
H 	H 	0.64170 0.46850 0.95490 0.01100
H 	H 	0.67210 0.36050 0.87670 0.00300
H 	H 	0.79960 0.40090 0.90610 0.01000
