data_crystal

_cell_length_a 6.56340
_cell_length_b 25.33430
_cell_length_c 7.84000
_cell_angle_alpha 90.00000
_cell_angle_beta  90.71800
_cell_angle_gamma 90.00000

_symmetry_space_group_name_	'P 1'
_symmetry_space_group_name_H-M	'P 1'

loop_
_symmetry_equiv_pos_as_xyz
  x,y,z

loop_
_atom_site_label
_atom_site_type_symbol
_atom_site_fract_x
_atom_site_fract_y
_atom_site_fract_z
_atom_site_charge
Co	Co	0.12349 0.21413 0.94253 1.17300
O 	O 	0.93540 0.24035 0.74460 -0.41400
O 	O 	0.31920 0.18483 0.12730 -0.40900
C 	C 	0.93240 0.28953 0.72850 0.33300
C 	C 	0.07700 0.32241 0.84330 -0.05400
H 	H 	0.13150 0.35260 0.77530 0.05100
N 	N 	0.24960 0.28962 0.90380 -0.32500
H 	H 	0.30360 0.30280 0.00390 0.12600
H 	H 	0.35060 0.28840 0.82350 0.12500
C 	C 	0.95940 0.34430 0.99400 -0.30200
H 	H 	0.83890 0.36340 0.94850 0.12300
H 	H 	0.04710 0.37060 0.05280 0.11400
C 	C 	0.88600 0.30479 0.12730 0.41100
O 	O 	0.92660 0.25628 0.11370 -0.42700
O 	O 	0.78740 0.32531 0.24700 -0.41900
N 	N 	0.94270 0.14503 0.98140 -0.21900
C 	C 	0.74920 0.14361 0.92400 0.08900
H 	H 	0.69770 0.17360 0.86490 0.00100
C 	C 	0.62100 0.10104 0.94600 -0.16900
H 	H 	0.48640 0.10160 0.90020 0.09400
C 	C 	0.69110 0.05743 0.03570 0.11700
C 	C 	0.89040 0.05864 0.09610 -0.16000
H 	H 	0.94420 0.02950 0.15820 0.07800
C 	C 	0.01140 0.10248 0.06580 0.07100
H 	H 	0.14840 0.10230 0.10660 0.00500
C 	C 	0.54720 0.01180 0.07570 -0.14500
H 	H 	0.62430 0.98420 0.13840 0.06500
H 	H 	0.43870 0.02480 0.15150 0.06800
Co	Co	0.37651 0.71413 0.55747 1.18200
O 	O 	0.56460 0.74035 0.75540 -0.41500
O 	O 	0.18080 0.68483 0.37270 -0.41000
C 	C 	0.56760 0.78953 0.77150 0.31400
C 	C 	0.42300 0.82241 0.65670 -0.01500
H 	H 	0.36850 0.85260 0.72470 0.04400
N 	N 	0.25040 0.78962 0.59620 -0.32500
H 	H 	0.19640 0.80280 0.49610 0.12700
H 	H 	0.14940 0.78840 0.67650 0.12800
C 	C 	0.54060 0.84430 0.50600 -0.34700
H 	H 	0.66110 0.86340 0.55150 0.13400
H 	H 	0.45290 0.87060 0.44720 0.13100
C 	C 	0.61400 0.80479 0.37270 0.42200
O 	O 	0.57340 0.75628 0.38630 -0.43700
O 	O 	0.71260 0.82531 0.25300 -0.42800
N 	N 	0.55730 0.64503 0.51860 -0.23000
C 	C 	0.75080 0.64361 0.57600 0.10000
H 	H 	0.80230 0.67360 0.63510 -0.00600
C 	C 	0.87900 0.60104 0.55400 -0.19300
H 	H 	0.01360 0.60160 0.59980 0.10800
C 	C 	0.80890 0.55743 0.46430 0.13000
C 	C 	0.60960 0.55864 0.40390 -0.17900
H 	H 	0.55580 0.52950 0.34180 0.08400
C 	C 	0.48860 0.60248 0.43420 0.09000
H 	H 	0.35160 0.60230 0.39340 -0.00000
C 	C 	0.95280 0.51180 0.42430 -0.15400
H 	H 	0.87570 0.48420 0.36160 0.06800
H 	H 	0.06130 0.52480 0.34850 0.07200
Co	Co	0.87651 0.78587 0.05747 1.17400
O 	O 	0.06460 0.75965 0.25540 -0.41300
O 	O 	0.68080 0.81517 0.87270 -0.40800
C 	C 	0.06760 0.71047 0.27150 0.33400
C 	C 	0.92300 0.67759 0.15670 -0.05300
H 	H 	0.86850 0.64740 0.22470 0.05200
N 	N 	0.75040 0.71038 0.09620 -0.32400
H 	H 	0.69640 0.69720 0.99610 0.12700
H 	H 	0.64940 0.71160 0.17650 0.12500
C 	C 	0.04060 0.65570 0.00600 -0.30200
H 	H 	0.16110 0.63660 0.05150 0.12300
H 	H 	0.95290 0.62940 0.94720 0.11400
C 	C 	0.11400 0.69521 0.87270 0.41100
O 	O 	0.07340 0.74372 0.88630 -0.42700
O 	O 	0.21260 0.67469 0.75300 -0.41900
N 	N 	0.05730 0.85497 0.01860 -0.21900
C 	C 	0.25080 0.85639 0.07600 0.08900
H 	H 	0.30230 0.82640 0.13510 0.00100
C 	C 	0.37900 0.89896 0.05400 -0.16900
H 	H 	0.51360 0.89840 0.09980 0.09400
C 	C 	0.30890 0.94257 0.96430 0.11700
C 	C 	0.10960 0.94136 0.90390 -0.16000
H 	H 	0.05580 0.97050 0.84180 0.07800
C 	C 	0.98860 0.89752 0.93420 0.07100
H 	H 	0.85160 0.89770 0.89340 0.00500
C 	C 	0.45280 0.98820 0.92430 -0.14500
H 	H 	0.37570 0.01580 0.86160 0.06500
H 	H 	0.56130 0.97520 0.84850 0.06800
Co	Co	0.62349 0.28587 0.44253 1.18200
O 	O 	0.43540 0.25965 0.24460 -0.41500
O 	O 	0.81920 0.31517 0.62730 -0.41000
C 	C 	0.43240 0.21047 0.22850 0.31400
C 	C 	0.57700 0.17759 0.34330 -0.01500
H 	H 	0.63150 0.14740 0.27530 0.04400
N 	N 	0.74960 0.21038 0.40380 -0.32500
H 	H 	0.80360 0.19720 0.50390 0.12700
H 	H 	0.85060 0.21160 0.32350 0.12800
C 	C 	0.45940 0.15570 0.49400 -0.34700
H 	H 	0.33890 0.13660 0.44850 0.13400
H 	H 	0.54710 0.12940 0.55280 0.13100
C 	C 	0.38600 0.19521 0.62730 0.42200
O 	O 	0.42660 0.24372 0.61370 -0.43700
O 	O 	0.28740 0.17469 0.74700 -0.42800
N 	N 	0.44270 0.35497 0.48140 -0.23000
C 	C 	0.24920 0.35639 0.42400 0.10000
H 	H 	0.19770 0.32640 0.36490 -0.00600
C 	C 	0.12100 0.39896 0.44600 -0.19300
H 	H 	0.98640 0.39840 0.40020 0.10800
C 	C 	0.19110 0.44257 0.53570 0.13000
C 	C 	0.39040 0.44136 0.59610 -0.17900
H 	H 	0.44420 0.47050 0.65820 0.08400
C 	C 	0.51140 0.39752 0.56580 0.09000
H 	H 	0.64840 0.39770 0.60660 -0.00000
C 	C 	0.04720 0.48820 0.57570 -0.15400
H 	H 	0.12430 0.51580 0.63840 0.06800
H 	H 	0.93870 0.47520 0.65150 0.07200
