data_crystal

_cell_length_a 6.94330
_cell_length_b 22.19230
_cell_length_c 7.73020
_cell_angle_alpha 90.00000
_cell_angle_beta  90.00000
_cell_angle_gamma 90.00000

_symmetry_space_group_name_	'P 1'
_symmetry_space_group_name_H-M	'P 1'

loop_
_symmetry_equiv_pos_as_xyz
  x,y,z

loop_
_atom_site_label
_atom_site_type_symbol
_atom_site_fract_x
_atom_site_fract_y
_atom_site_fract_z
_atom_site_charge
Co	Co	0.54694 0.71253 0.24224 1.18400
Co	Co	0.45306 0.28747 0.24224 1.18400
Co	Co	0.04694 0.78747 0.75776 1.18100
Co	Co	0.95306 0.21253 0.75776 1.18100
H 	H 	0.64930 0.88560 0.38950 0.13700
H 	H 	0.84330 0.87750 0.28160 0.14300
H 	H 	0.56390 0.87460 0.10630 0.03900
H 	H 	0.34410 0.80390 0.14340 0.13200
H 	H 	0.39710 0.81480 0.32840 0.11700
H 	H 	0.96190 0.67190 0.27360 0.01100
H 	H 	0.15100 0.58610 0.29740 0.08100
H 	H 	0.68380 0.49140 0.12130 0.07600
H 	H 	0.51550 0.57830 0.12890 0.00000
H 	H 	0.35070 0.11440 0.38950 0.13700
H 	H 	0.15670 0.12250 0.28160 0.14300
H 	H 	0.43610 0.12540 0.10630 0.03900
H 	H 	0.65590 0.19610 0.14340 0.13200
H 	H 	0.60290 0.18520 0.32840 0.11700
H 	H 	0.03810 0.32810 0.27360 0.01100
H 	H 	0.84900 0.41390 0.29740 0.08100
H 	H 	0.31620 0.50860 0.12130 0.07600
H 	H 	0.48450 0.42170 0.12890 0.00000
H 	H 	0.14930 0.61440 0.61050 0.13600
H 	H 	0.34330 0.62250 0.71840 0.14100
H 	H 	0.06390 0.62540 0.89370 0.04000
H 	H 	0.84410 0.69610 0.85660 0.13300
H 	H 	0.89710 0.68520 0.67160 0.11900
H 	H 	0.46190 0.82810 0.72640 0.01200
H 	H 	0.65100 0.91390 0.70260 0.07900
H 	H 	0.18380 0.00860 0.87870 0.07800
H 	H 	0.01550 0.92170 0.87110 -0.00100
H 	H 	0.85070 0.38560 0.61050 0.13600
H 	H 	0.65670 0.37750 0.71840 0.14100
H 	H 	0.93610 0.37460 0.89370 0.04000
H 	H 	0.15590 0.30390 0.85660 0.13300
H 	H 	0.10290 0.31480 0.67160 0.11900
H 	H 	0.53810 0.17190 0.72640 0.01200
H 	H 	0.34900 0.08610 0.70260 0.07900
H 	H 	0.81620 0.99140 0.87870 0.07800
H 	H 	0.98450 0.07830 0.87110 -0.00100
C 	C 	0.79000 0.80570 0.44630 0.44800
C 	C 	0.72650 0.85625 0.32260 -0.36400
C 	C 	0.61100 0.83761 0.16660 -0.00700
C 	C 	0.73540 0.80112 0.04070 0.30200
C 	C 	0.02210 0.58357 0.25700 -0.13200
C 	C 	0.94200 0.52750 0.20030 0.05300
C 	C 	0.74580 0.52760 0.15610 -0.14000
C 	C 	0.64670 0.57970 0.16350 0.09100
C 	C 	0.90500 0.63383 0.25070 0.06700
C 	C 	0.21000 0.19430 0.44630 0.44800
C 	C 	0.27350 0.14375 0.32260 -0.36400
C 	C 	0.38900 0.16239 0.16660 -0.00700
C 	C 	0.26460 0.19888 0.04070 0.30200
C 	C 	0.97790 0.41643 0.25700 -0.13200
C 	C 	0.05800 0.47250 0.20030 0.05300
C 	C 	0.25420 0.47240 0.15610 -0.14000
C 	C 	0.35330 0.42030 0.16350 0.09100
C 	C 	0.09500 0.36617 0.25070 0.06700
C 	C 	0.29000 0.69430 0.55370 0.44600
C 	C 	0.22650 0.64375 0.67740 -0.36100
C 	C 	0.11100 0.66239 0.83340 -0.01300
C 	C 	0.23540 0.69888 0.95930 0.30500
C 	C 	0.52210 0.91643 0.74300 -0.12100
C 	C 	0.44200 0.97250 0.79970 0.04900
C 	C 	0.24580 0.97240 0.84390 -0.14000
C 	C 	0.14670 0.92030 0.83650 0.09000
C 	C 	0.40500 0.86617 0.74930 0.05900
C 	C 	0.71000 0.30570 0.55370 0.44600
C 	C 	0.77350 0.35625 0.67740 -0.36100
C 	C 	0.88900 0.33761 0.83340 -0.01300
C 	C 	0.76460 0.30112 0.95930 0.30500
C 	C 	0.47790 0.08357 0.74300 -0.12100
C 	C 	0.55800 0.02750 0.79970 0.04900
C 	C 	0.75420 0.02760 0.84390 -0.14000
C 	C 	0.85330 0.07970 0.83650 0.09000
C 	C 	0.59500 0.13383 0.74930 0.05900
N 	N 	0.44210 0.80152 0.22320 -0.32600
N 	N 	0.71300 0.63220 0.21350 -0.22200
N 	N 	0.55790 0.19848 0.22320 -0.32600
N 	N 	0.28700 0.36780 0.21350 -0.22200
N 	N 	0.94210 0.69848 0.77680 -0.32200
N 	N 	0.21300 0.86780 0.78650 -0.22200
N 	N 	0.05790 0.30152 0.77680 -0.32200
N 	N 	0.78700 0.13220 0.78650 -0.22200
O 	O 	0.75250 0.75168 0.42070 -0.44400
O 	O 	0.88470 0.82577 0.57150 -0.45300
O 	O 	0.70930 0.74496 0.03990 -0.41400
O 	O 	0.85180 0.82886 0.94470 -0.37100
O 	O 	0.24750 0.24832 0.42070 -0.44400
O 	O 	0.11530 0.17423 0.57150 -0.45300
O 	O 	0.29070 0.25504 0.03990 -0.41400
O 	O 	0.14820 0.17114 0.94470 -0.37100
O 	O 	0.25250 0.74832 0.57930 -0.44600
O 	O 	0.38470 0.67423 0.42850 -0.45700
O 	O 	0.20930 0.75504 0.96010 -0.41700
O 	O 	0.35180 0.67114 0.05530 -0.37600
O 	O 	0.74750 0.25168 0.57930 -0.44600
O 	O 	0.61530 0.32577 0.42850 -0.45700
O 	O 	0.79070 0.24496 0.96010 -0.41700
O 	O 	0.64820 0.32886 0.05530 -0.37600
