data_crystal

_cell_length_a 18.74400
_cell_length_b 15.69430
_cell_length_c 21.52900
_cell_angle_alpha 90.00000
_cell_angle_beta  112.25100
_cell_angle_gamma 90.00000

_symmetry_space_group_name_	'P 1'
_symmetry_space_group_name_H-M	'P 1'

loop_
_symmetry_equiv_pos_as_xyz
  x,y,z

loop_
_atom_site_label
_atom_site_type_symbol
_atom_site_fract_x
_atom_site_fract_y
_atom_site_fract_z
_atom_site_charge
O 	O 	0.42709 0.23380 0.90790 -0.45200
O 	O 	0.31645 0.26710 0.91942 -0.39600
O 	O 	0.70976 0.89610 0.15347 -0.37600
O 	O 	0.78950 0.89220 0.34700 -0.37300
O 	O 	0.15682 0.28170 0.60603 -0.36300
O 	O 	0.04927 0.23290 0.61533 -0.43700
C 	C 	0.09030 0.25060 0.58290 0.34000
C 	C 	0.05400 0.23290 0.50780 -0.03800
O 	O 	0.96440 0.31770 0.19870 -0.38700
H 	H 	0.95480 0.34630 0.22820 0.20500
H 	H 	0.98130 0.35210 0.17690 0.16100
O 	O 	0.00070 0.12610 0.17720 -0.55800
H 	H 	0.97540 0.08070 0.17600 0.29000
H 	H 	0.00930 0.15020 0.21470 0.28400
C 	C 	0.38140 0.23310 0.17260 0.38000
C 	C 	0.42150 0.21690 0.12490 -0.06500
C 	C 	0.38500 0.23520 0.05686 -0.00300
H 	H 	0.33450 0.25490 0.04000 0.06300
C 	C 	0.42440 0.22380 0.01400 -0.07000
C 	C 	0.49930 0.19380 0.03950 -0.09300
H 	H 	0.52610 0.18740 0.01120 0.06400
C 	C 	0.53450 0.17350 0.10610 0.09300
C 	C 	0.49660 0.18600 0.14900 -0.09300
H 	H 	0.52130 0.17370 0.19440 0.07600
C 	C 	0.56620 0.98910 0.11080 -0.83600
H 	H 	0.51720 0.01720 0.09300 0.27800
H 	H 	0.56850 0.95350 0.14780 0.28100
H 	H 	0.57270 0.95460 0.07640 0.28300
C 	C 	0.62860 0.05370 0.13420 0.32100
C 	C 	0.67900 0.18790 0.15850 0.29700
C 	C 	0.67550 0.28290 0.16190 -0.82100
H 	H 	0.72680 0.30540 0.18170 0.28200
H 	H 	0.64670 0.29880 0.18870 0.26400
H 	H 	0.65070 0.30550 0.11740 0.27000
C 	C 	0.73920 0.13030 0.17780 -0.17000
C 	C 	0.70840 0.04460 0.16330 -0.17000
C 	C 	0.82080 0.16020 0.20770 0.36600
C 	C 	0.10020 0.24450 0.35230 0.38500
C 	C 	0.05820 0.22950 0.39830 -0.04600
C 	C 	0.98400 0.19710 0.37360 -0.12400
H 	H 	0.95990 0.18600 0.32800 0.11500
C 	C 	0.94550 0.18120 0.41510 0.12100
C 	C 	0.97990 0.19940 0.48290 -0.12200
H 	H 	0.95380 0.18930 0.51130 0.07500
C 	C 	0.09370 0.24830 0.46700 -0.02500
H 	H 	0.14320 0.27090 0.48440 0.06900
C 	C 	0.85870 0.05710 0.37920 0.29400
C 	C 	0.78010 0.04250 0.35070 -0.12100
C 	C 	0.74330 0.12480 0.34290 -0.20000
C 	C 	0.80000 0.18450 0.36670 0.35700
C 	C 	0.79810 0.27800 0.37150 -0.93100
H 	H 	0.74560 0.29710 0.35480 0.32000
H 	H 	0.82440 0.30290 0.34540 0.30900
H 	H 	0.82320 0.29480 0.41760 0.30500
C 	C 	0.92570 0.99520 0.39730 -0.78800
H 	H 	0.97340 0.02580 0.41690 0.26200
H 	H 	0.92440 0.96640 0.35750 0.28100
H 	H 	0.92180 0.95410 0.42880 0.27400
C 	C 	0.66050 0.14550 0.31440 0.41300
C 	C 	0.74610 0.96270 0.17540 0.35200
C 	C 	0.74650 0.95650 0.33100 0.33800
C 	C 	0.38550 0.24310 0.94140 0.35900
Cu	Cu	0.24203 0.26680 0.33156 0.92800
Cu	Cu	0.24333 0.27807 0.19458 0.92100
Cu	Cu	0.41520 0.23786 0.31776 0.88800
Cu	Cu	0.06734 0.24424 0.20637 0.95200
N 	N 	0.61203 0.13890 0.13171 -0.22700
N 	N 	0.87075 0.14090 0.38817 -0.23600
O 	O 	0.42372 0.22240 0.23340 -0.45200
O 	O 	0.31271 0.25120 0.14922 -0.40800
O 	O 	0.30464 0.22140 0.28101 -0.57200
O 	O 	0.16979 0.29600 0.24175 -0.52200
O 	O 	0.16693 0.26660 0.37532 -0.40600
O 	O 	0.06260 0.22770 0.29239 -0.41800
O 	O 	0.87465 0.10160 0.22718 -0.45000
O 	O 	0.83830 0.23610 0.21290 -0.29700
O 	O 	0.63890 0.21940 0.31490 -0.51700
H 	H 	0.60830 0.23240 0.27540 0.24600
O 	O 	0.61150 0.08410 0.29180 -0.26000
O 	O 	0.82020 0.95950 0.21120 -0.29100
O 	O 	0.67380 0.94940 0.29720 -0.26000
H 	H 	0.85100 0.05500 0.21000 0.27200
H 	H 	0.31600 0.27600 0.28200 0.04200
H 	H 	0.18900 0.25100 0.23100 0.02000
O 	O 	0.95340 0.24910 0.16890 -0.51600
O 	O 	0.09100 0.11450 0.20870 -0.55000
H 	H 	0.90620 0.23460 0.15260 0.28600
H 	H 	0.96790 0.25690 0.13640 0.22700
H 	H 	0.12210 0.07270 0.21700 0.24900
H 	H 	0.10320 0.14950 0.18420 0.18200
O 	O 	0.57291 0.73380 0.59210 -0.45300
O 	O 	0.68355 0.76710 0.58058 -0.39700
O 	O 	0.29024 0.39610 0.34653 -0.37600
O 	O 	0.21050 0.39220 0.15300 -0.37400
O 	O 	0.84318 0.78170 0.89397 -0.36400
O 	O 	0.95073 0.73290 0.88467 -0.43800
C 	C 	0.90970 0.75060 0.91710 0.34100
C 	C 	0.94600 0.73290 0.99220 -0.04400
O 	O 	0.03560 0.81770 0.30130 -0.38700
H 	H 	0.04520 0.84630 0.27180 0.20500
H 	H 	0.01870 0.85210 0.32310 0.16100
O 	O 	0.99930 0.62610 0.32280 -0.56400
H 	H 	0.02460 0.58070 0.32400 0.29500
H 	H 	0.99070 0.65020 0.28530 0.28500
C 	C 	0.61860 0.73310 0.32740 0.38000
C 	C 	0.57850 0.71690 0.37510 -0.06500
C 	C 	0.61500 0.73520 0.44314 -0.00400
H 	H 	0.66550 0.75490 0.46000 0.06300
C 	C 	0.57560 0.72380 0.48600 -0.06900
C 	C 	0.50070 0.69380 0.46050 -0.09400
H 	H 	0.47390 0.68740 0.48880 0.06500
C 	C 	0.46550 0.67350 0.39390 0.09400
C 	C 	0.50340 0.68600 0.35100 -0.09400
H 	H 	0.47870 0.67370 0.30560 0.07600
C 	C 	0.43380 0.48910 0.38920 -0.85100
H 	H 	0.48280 0.51720 0.40700 0.28300
H 	H 	0.43150 0.45350 0.35220 0.28500
H 	H 	0.42730 0.45460 0.42360 0.28600
C 	C 	0.37140 0.55370 0.36580 0.32700
C 	C 	0.32100 0.68790 0.34150 0.29700
C 	C 	0.32450 0.78290 0.33810 -0.82100
H 	H 	0.27320 0.80540 0.31830 0.28200
H 	H 	0.35330 0.79880 0.31130 0.26400
H 	H 	0.34930 0.80550 0.38260 0.27000
C 	C 	0.26080 0.63030 0.32220 -0.17000
C 	C 	0.29160 0.54460 0.33670 -0.16800
C 	C 	0.17920 0.66020 0.29230 0.36600
C 	C 	0.89980 0.74450 0.14770 0.38700
C 	C 	0.94180 0.72950 0.10170 -0.05100
C 	C 	0.01600 0.69710 0.12640 -0.11900
H 	H 	0.04010 0.68600 0.17200 0.11400
C 	C 	0.05450 0.68120 0.08490 0.11800
C 	C 	0.02010 0.69940 0.01710 -0.11400
H 	H 	0.04620 0.68930 0.98870 0.07100
C 	C 	0.90630 0.74830 0.03300 -0.02100
H 	H 	0.85680 0.77090 0.01560 0.06800
C 	C 	0.14130 0.55710 0.12080 0.30300
C 	C 	0.21990 0.54250 0.14930 -0.12200
C 	C 	0.25670 0.62480 0.15710 -0.19900
C 	C 	0.20000 0.68450 0.13330 0.35700
C 	C 	0.20190 0.77800 0.12850 -0.93100
H 	H 	0.25440 0.79710 0.14520 0.32100
H 	H 	0.17560 0.80290 0.15460 0.30900
H 	H 	0.17680 0.79480 0.08240 0.30500
C 	C 	0.07430 0.49520 0.10270 -0.81500
H 	H 	0.02660 0.52580 0.08310 0.27200
H 	H 	0.07560 0.46640 0.14250 0.28800
H 	H 	0.07820 0.45410 0.07120 0.28100
C 	C 	0.33950 0.64550 0.18560 0.41300
C 	C 	0.25390 0.46270 0.32460 0.35000
C 	C 	0.25350 0.45650 0.16900 0.33700
C 	C 	0.61450 0.74310 0.55860 0.35800
Cu	Cu	0.75797 0.76680 0.16844 0.92800
Cu	Cu	0.75667 0.77807 0.30542 0.92100
Cu	Cu	0.58480 0.73786 0.18224 0.88800
Cu	Cu	0.93266 0.74424 0.29363 0.95200
N 	N 	0.38797 0.63890 0.36829 -0.22800
N 	N 	0.12925 0.64090 0.11183 -0.23700
O 	O 	0.57628 0.72240 0.26660 -0.45200
O 	O 	0.68729 0.75120 0.35078 -0.40800
O 	O 	0.69536 0.72140 0.21899 -0.57200
O 	O 	0.83021 0.79600 0.25825 -0.52200
O 	O 	0.83307 0.76660 0.12468 -0.40600
O 	O 	0.93740 0.72770 0.20761 -0.41900
O 	O 	0.12535 0.60160 0.27282 -0.45000
O 	O 	0.16170 0.73610 0.28710 -0.29700
O 	O 	0.36110 0.71940 0.18510 -0.51700
H 	H 	0.39170 0.73240 0.22460 0.24600
O 	O 	0.38850 0.58410 0.20820 -0.25900
O 	O 	0.17980 0.45950 0.28880 -0.29200
O 	O 	0.32620 0.44940 0.20280 -0.26100
H 	H 	0.14900 0.55500 0.29000 0.27300
H 	H 	0.68400 0.77600 0.21800 0.04200
H 	H 	0.81100 0.75100 0.26900 0.01900
O 	O 	0.04660 0.74910 0.33110 -0.51500
O 	O 	0.90900 0.61450 0.29130 -0.54900
H 	H 	0.09380 0.73460 0.34740 0.28600
H 	H 	0.03210 0.75690 0.36360 0.22700
H 	H 	0.87790 0.57270 0.28300 0.24900
H 	H 	0.89680 0.64950 0.31580 0.18200
O 	O 	0.57291 0.76620 0.09210 -0.45300
O 	O 	0.68355 0.73290 0.08058 -0.39700
O 	O 	0.29024 0.10390 0.84653 -0.37600
O 	O 	0.21050 0.10780 0.65300 -0.37300
O 	O 	0.84318 0.71830 0.39397 -0.36300
O 	O 	0.95073 0.76710 0.38467 -0.43700
C 	C 	0.90970 0.74940 0.41710 0.34000
C 	C 	0.94600 0.76710 0.49220 -0.03800
O 	O 	0.03560 0.68230 0.80130 -0.38700
H 	H 	0.04520 0.65370 0.77180 0.20500
H 	H 	0.01870 0.64790 0.82310 0.16100
O 	O 	0.99930 0.87390 0.82280 -0.55800
H 	H 	0.02460 0.91930 0.82400 0.29000
H 	H 	0.99070 0.84980 0.78530 0.28400
C 	C 	0.61860 0.76690 0.82740 0.38000
C 	C 	0.57850 0.78310 0.87510 -0.06500
C 	C 	0.61500 0.76480 0.94314 -0.00300
H 	H 	0.66550 0.74510 0.96000 0.06300
C 	C 	0.57560 0.77620 0.98600 -0.07000
C 	C 	0.50070 0.80620 0.96050 -0.09300
H 	H 	0.47390 0.81260 0.98880 0.06400
C 	C 	0.46550 0.82650 0.89390 0.09300
C 	C 	0.50340 0.81400 0.85100 -0.09300
H 	H 	0.47870 0.82630 0.80560 0.07600
C 	C 	0.43380 0.01090 0.88920 -0.83600
H 	H 	0.48280 0.98280 0.90700 0.27800
H 	H 	0.43150 0.04650 0.85220 0.28100
H 	H 	0.42730 0.04540 0.92360 0.28300
C 	C 	0.37140 0.94630 0.86580 0.32100
C 	C 	0.32100 0.81210 0.84150 0.29700
C 	C 	0.32450 0.71710 0.83810 -0.82100
H 	H 	0.27320 0.69460 0.81830 0.28200
H 	H 	0.35330 0.70120 0.81130 0.26400
H 	H 	0.34930 0.69450 0.88260 0.27000
C 	C 	0.26080 0.86970 0.82220 -0.17000
C 	C 	0.29160 0.95540 0.83670 -0.17000
C 	C 	0.17920 0.83980 0.79230 0.36600
C 	C 	0.89980 0.75550 0.64770 0.38500
C 	C 	0.94180 0.77050 0.60170 -0.04600
C 	C 	0.01600 0.80290 0.62640 -0.12400
H 	H 	0.04010 0.81400 0.67200 0.11500
C 	C 	0.05450 0.81880 0.58490 0.12100
C 	C 	0.02010 0.80060 0.51710 -0.12200
H 	H 	0.04620 0.81070 0.48870 0.07500
C 	C 	0.90630 0.75170 0.53300 -0.02500
H 	H 	0.85680 0.72910 0.51560 0.06900
C 	C 	0.14130 0.94290 0.62080 0.29400
C 	C 	0.21990 0.95750 0.64930 -0.12100
C 	C 	0.25670 0.87520 0.65710 -0.20000
C 	C 	0.20000 0.81550 0.63330 0.35700
C 	C 	0.20190 0.72200 0.62850 -0.93100
H 	H 	0.25440 0.70290 0.64520 0.32000
H 	H 	0.17560 0.69710 0.65460 0.30900
H 	H 	0.17680 0.70520 0.58240 0.30500
C 	C 	0.07430 0.00480 0.60270 -0.78800
H 	H 	0.02660 0.97420 0.58310 0.26200
H 	H 	0.07560 0.03360 0.64250 0.28100
H 	H 	0.07820 0.04590 0.57120 0.27400
C 	C 	0.33950 0.85450 0.68560 0.41300
C 	C 	0.25390 0.03730 0.82460 0.35200
C 	C 	0.25350 0.04350 0.66900 0.33800
C 	C 	0.61450 0.75690 0.05860 0.35900
Cu	Cu	0.75797 0.73320 0.66844 0.92800
Cu	Cu	0.75667 0.72193 0.80542 0.92100
Cu	Cu	0.58480 0.76214 0.68224 0.88800
Cu	Cu	0.93266 0.75576 0.79363 0.95200
N 	N 	0.38797 0.86110 0.86829 -0.22700
N 	N 	0.12925 0.85910 0.61183 -0.23600
O 	O 	0.57628 0.77760 0.76660 -0.45200
O 	O 	0.68729 0.74880 0.85078 -0.40800
O 	O 	0.69536 0.77860 0.71899 -0.57200
O 	O 	0.83021 0.70400 0.75825 -0.52200
O 	O 	0.83307 0.73340 0.62468 -0.40600
O 	O 	0.93740 0.77230 0.70761 -0.41800
O 	O 	0.12535 0.89840 0.77282 -0.45000
O 	O 	0.16170 0.76390 0.78710 -0.29700
O 	O 	0.36110 0.78060 0.68510 -0.51700
H 	H 	0.39170 0.76760 0.72460 0.24600
O 	O 	0.38850 0.91590 0.70820 -0.26000
O 	O 	0.17980 0.04050 0.78880 -0.29100
O 	O 	0.32620 0.05060 0.70280 -0.26000
H 	H 	0.14900 0.94500 0.79000 0.27200
H 	H 	0.68400 0.72400 0.71800 0.04200
H 	H 	0.81100 0.74900 0.76900 0.02000
O 	O 	0.04660 0.75090 0.83110 -0.51600
O 	O 	0.90900 0.88550 0.79130 -0.55000
H 	H 	0.09380 0.76540 0.84740 0.28600
H 	H 	0.03210 0.74310 0.86360 0.22700
H 	H 	0.87790 0.92730 0.78300 0.24900
H 	H 	0.89680 0.85050 0.81580 0.18200
O 	O 	0.42709 0.26620 0.40790 -0.45300
O 	O 	0.31645 0.23290 0.41942 -0.39700
O 	O 	0.70976 0.60390 0.65347 -0.37600
O 	O 	0.78950 0.60780 0.84700 -0.37400
O 	O 	0.15682 0.21830 0.10603 -0.36400
O 	O 	0.04927 0.26710 0.11533 -0.43800
C 	C 	0.09030 0.24940 0.08290 0.34100
C 	C 	0.05400 0.26710 0.00780 -0.04400
O 	O 	0.96440 0.18230 0.69870 -0.38700
H 	H 	0.95480 0.15370 0.72820 0.20500
H 	H 	0.98130 0.14790 0.67690 0.16100
O 	O 	0.00070 0.37390 0.67720 -0.56400
H 	H 	0.97540 0.41930 0.67600 0.29500
H 	H 	0.00930 0.34980 0.71470 0.28500
C 	C 	0.38140 0.26690 0.67260 0.38000
C 	C 	0.42150 0.28310 0.62490 -0.06500
C 	C 	0.38500 0.26480 0.55686 -0.00400
H 	H 	0.33450 0.24510 0.54000 0.06300
C 	C 	0.42440 0.27620 0.51400 -0.06900
C 	C 	0.49930 0.30620 0.53950 -0.09400
H 	H 	0.52610 0.31260 0.51120 0.06500
C 	C 	0.53450 0.32650 0.60610 0.09400
C 	C 	0.49660 0.31400 0.64900 -0.09400
H 	H 	0.52130 0.32630 0.69440 0.07600
C 	C 	0.56620 0.51090 0.61080 -0.85100
H 	H 	0.51720 0.48280 0.59300 0.28300
H 	H 	0.56850 0.54650 0.64780 0.28500
H 	H 	0.57270 0.54540 0.57640 0.28600
C 	C 	0.62860 0.44630 0.63420 0.32700
C 	C 	0.67900 0.31210 0.65850 0.29700
C 	C 	0.67550 0.21710 0.66190 -0.82100
H 	H 	0.72680 0.19460 0.68170 0.28200
H 	H 	0.64670 0.20120 0.68870 0.26400
H 	H 	0.65070 0.19450 0.61740 0.27000
C 	C 	0.73920 0.36970 0.67780 -0.17000
C 	C 	0.70840 0.45540 0.66330 -0.16800
C 	C 	0.82080 0.33980 0.70770 0.36600
C 	C 	0.10020 0.25550 0.85230 0.38700
C 	C 	0.05820 0.27050 0.89830 -0.05100
C 	C 	0.98400 0.30290 0.87360 -0.11900
H 	H 	0.95990 0.31400 0.82800 0.11400
C 	C 	0.94550 0.31880 0.91510 0.11800
C 	C 	0.97990 0.30060 0.98290 -0.11400
H 	H 	0.95380 0.31070 0.01130 0.07100
C 	C 	0.09370 0.25170 0.96700 -0.02100
H 	H 	0.14320 0.22910 0.98440 0.06800
C 	C 	0.85870 0.44290 0.87920 0.30300
C 	C 	0.78010 0.45750 0.85070 -0.12200
C 	C 	0.74330 0.37520 0.84290 -0.19900
C 	C 	0.80000 0.31550 0.86670 0.35700
C 	C 	0.79810 0.22200 0.87150 -0.93100
H 	H 	0.74560 0.20290 0.85480 0.32100
H 	H 	0.82440 0.19710 0.84540 0.30900
H 	H 	0.82320 0.20520 0.91760 0.30500
C 	C 	0.92570 0.50480 0.89730 -0.81500
H 	H 	0.97340 0.47420 0.91690 0.27200
H 	H 	0.92440 0.53360 0.85750 0.28800
H 	H 	0.92180 0.54590 0.92880 0.28100
C 	C 	0.66050 0.35450 0.81440 0.41300
C 	C 	0.74610 0.53730 0.67540 0.35000
C 	C 	0.74650 0.54350 0.83100 0.33700
C 	C 	0.38550 0.25690 0.44140 0.35800
Cu	Cu	0.24203 0.23320 0.83156 0.92800
Cu	Cu	0.24333 0.22193 0.69458 0.92100
Cu	Cu	0.41520 0.26214 0.81776 0.88800
Cu	Cu	0.06734 0.25576 0.70637 0.95200
N 	N 	0.61203 0.36110 0.63171 -0.22800
N 	N 	0.87075 0.35910 0.88817 -0.23700
O 	O 	0.42372 0.27760 0.73340 -0.45200
O 	O 	0.31271 0.24880 0.64922 -0.40800
O 	O 	0.30464 0.27860 0.78101 -0.57200
O 	O 	0.16979 0.20400 0.74175 -0.52200
O 	O 	0.16693 0.23340 0.87532 -0.40600
O 	O 	0.06260 0.27230 0.79239 -0.41900
O 	O 	0.87465 0.39840 0.72718 -0.45000
O 	O 	0.83830 0.26390 0.71290 -0.29700
O 	O 	0.63890 0.28060 0.81490 -0.51700
H 	H 	0.60830 0.26760 0.77540 0.24600
O 	O 	0.61150 0.41590 0.79180 -0.25900
O 	O 	0.82020 0.54050 0.71120 -0.29200
O 	O 	0.67380 0.55060 0.79720 -0.26100
H 	H 	0.85100 0.44500 0.71000 0.27300
H 	H 	0.31600 0.22400 0.78200 0.04200
H 	H 	0.18900 0.24900 0.73100 0.01900
O 	O 	0.95340 0.25090 0.66890 -0.51500
O 	O 	0.09100 0.38550 0.70870 -0.54900
H 	H 	0.90620 0.26540 0.65260 0.28600
H 	H 	0.96790 0.24310 0.63640 0.22700
H 	H 	0.12210 0.42730 0.71700 0.24900
H 	H 	0.10320 0.35050 0.68420 0.18200
