data_crystal

_cell_length_a 7.49590
_cell_length_b 10.60920
_cell_length_c 10.86570
_cell_angle_alpha 119.22200
_cell_angle_beta  110.17800
_cell_angle_gamma 90.00000

_symmetry_space_group_name_	'P 1'
_symmetry_space_group_name_H-M	'P 1'

loop_
_symmetry_equiv_pos_as_xyz
  x,y,z

loop_
_atom_site_label
_atom_site_type_symbol
_atom_site_fract_x
_atom_site_fract_y
_atom_site_fract_z
_atom_site_charge
Ba	Ba	0.33312 0.61751 0.50000 1.86700
Ba	Ba	0.83312 0.38249 0.50000 1.77700
H 	H 	0.38910 0.18400 0.07200 -0.01600
H 	H 	0.14690 0.02420 0.83280 0.12400
H 	H 	0.95650 0.11520 0.69180 -0.08100
H 	H 	0.31710 0.81600 0.92800 0.00000
H 	H 	0.31410 0.97580 0.16720 0.09700
H 	H 	0.26470 0.88480 0.30820 -0.01600
H 	H 	0.88910 0.38800 0.07200 -0.02500
H 	H 	0.64690 0.30860 0.83280 0.09800
H 	H 	0.45650 0.07660 0.69180 -0.02200
H 	H 	0.81710 0.61200 0.92800 -0.00600
H 	H 	0.81410 0.69140 0.16720 0.08600
H 	H 	0.76470 0.92340 0.30820 -0.02100
C 	C 	0.23477 0.42007 0.97634 0.11100
C 	C 	0.35211 0.36781 0.06422 -0.18500
C 	C 	0.31561 0.22001 0.01242 0.13600
C 	C 	0.16849 0.12519 0.87098 -0.21400
C 	C 	0.05485 0.17955 0.78710 0.18100
C 	C 	0.51538 0.47318 0.21796 0.39400
C 	C 	0.25843 0.57993 0.02366 0.09600
C 	C 	0.28789 0.63219 0.93578 -0.15700
C 	C 	0.30319 0.77999 0.98758 0.10200
C 	C 	0.29751 0.87481 0.12902 -0.15200
C 	C 	0.26775 0.82045 0.21290 0.08200
C 	C 	0.29742 0.52682 0.78204 0.39000
C 	C 	0.73477 0.05627 0.97634 0.10900
C 	C 	0.85211 0.19641 0.06422 -0.21800
C 	C 	0.81561 0.29241 0.01242 0.12000
C 	C 	0.66849 0.24579 0.87098 -0.17200
C 	C 	0.55485 0.10755 0.78710 0.08400
C 	C 	0.01538 0.24478 0.21796 0.43500
C 	C 	0.75843 0.94373 0.02366 0.08200
C 	C 	0.78789 0.80359 0.93578 -0.16400
C 	C 	0.80319 0.70759 0.98758 0.09100
C 	C 	0.79751 0.75421 0.12902 -0.15600
C 	C 	0.76775 0.89245 0.21290 0.06900
C 	C 	0.79742 0.75522 0.78204 0.38400
N 	N 	0.08403 0.32613 0.84146 -0.07900
N 	N 	0.24257 0.67387 0.15854 -0.07700
N 	N 	0.58403 0.01533 0.84146 -0.08500
N 	N 	0.74257 0.98467 0.15854 -0.07800
O 	O 	0.61558 0.57619 0.23216 -0.34900
O 	O 	0.53595 0.44461 0.32150 -0.58800
O 	O 	0.96191 0.37741 0.76382 -0.33900
O 	O 	0.38342 0.42381 0.76784 -0.33900
O 	O 	0.21445 0.55539 0.67850 -0.57300
O 	O 	0.19809 0.62259 0.23618 -0.30800
O 	O 	0.11558 0.15597 0.23216 -0.34000
O 	O 	0.03595 0.37689 0.32150 -0.57700
O 	O 	0.46191 0.88641 0.76382 -0.31400
O 	O 	0.88342 0.84403 0.76784 -0.35600
O 	O 	0.71445 0.62311 0.67850 -0.58700
O 	O 	0.69809 0.11359 0.23618 -0.32100
