data_crystal

_cell_length_a 8.40840
_cell_length_b 19.18470
_cell_length_c 19.18470
_cell_angle_alpha 62.09650
_cell_angle_beta  81.59920
_cell_angle_gamma 98.40080

_symmetry_space_group_name_	'P 1'
_symmetry_space_group_name_H-M	'P 1'

loop_
_symmetry_equiv_pos_as_xyz
  x,y,z

loop_
_atom_site_label
_atom_site_type_symbol
_atom_site_fract_x
_atom_site_fract_y
_atom_site_fract_z
_atom_site_charge
Zn	Zn	0.85235 0.95104 0.45522 1.19300
Zn	Zn	0.45965 0.81223 0.48672 1.19200
Zn	Zn	0.30757 0.45522 0.59374 1.19300
Zn	Zn	0.94637 0.48672 0.70105 1.19100
Zn	Zn	0.90131 0.59374 0.95104 1.19200
Zn	Zn	0.64742 0.70105 0.81223 1.19100
Zn	Zn	0.14765 0.04896 0.54478 1.19200
Zn	Zn	0.54035 0.18777 0.51328 1.19100
Zn	Zn	0.69243 0.54478 0.40626 1.19300
Zn	Zn	0.05363 0.51328 0.29895 1.19100
Zn	Zn	0.09869 0.40626 0.04896 1.19200
Zn	Zn	0.35258 0.29895 0.18777 1.19100
H 	H 	0.14030 0.95040 0.23840 0.12900
H 	H 	0.40100 0.92570 0.24490 -0.03700
H 	H 	0.43300 0.79530 0.29930 0.12500
H 	H 	0.20340 0.68770 0.35040 -0.02000
H 	H 	0.77390 0.81910 0.27990 0.21500
H 	H 	0.85830 0.90940 0.25200 0.19400
H 	H 	0.81910 0.86430 0.64790 -0.03500
H 	H 	0.43150 0.70630 0.67980 -0.04800
H 	H 	0.37900 0.93670 0.53850 -0.03200
H 	H 	0.12260 0.85670 0.42790 -0.01400
H 	H 	0.37870 0.23840 0.81120 0.12900
H 	H 	0.64590 0.24490 0.82940 -0.03700
H 	H 	0.73230 0.29930 0.90540 0.12500
H 	H 	0.55380 0.35040 0.96190 -0.02000
H 	H 	0.05380 0.27990 0.90100 0.21500
H 	H 	0.11030 0.25200 0.83860 0.19400
H 	H 	0.46700 0.64790 0.48780 -0.03400
H 	H 	0.11130 0.67980 0.61390 -0.04800
H 	H 	0.91750 0.53850 0.52480 -0.03200
H 	H 	0.55050 0.42790 0.71540 -0.01500
H 	H 	0.18990 0.81120 0.95040 0.13100
H 	H 	0.47530 0.82940 0.92570 -0.03800
H 	H 	0.63770 0.90540 0.79530 0.12600
H 	H 	0.51570 0.96190 0.68770 -0.02100
H 	H 	0.95480 0.90100 0.81910 0.21500
H 	H 	0.94890 0.83860 0.90940 0.19500
H 	H 	0.95480 0.48780 0.86430 -0.03400
H 	H 	0.72520 0.61390 0.70630 -0.04900
H 	H 	0.44230 0.52480 0.93670 -0.03200
H 	H 	0.26590 0.71540 0.85670 -0.01400
H 	H 	0.85970 0.04960 0.76160 0.12900
H 	H 	0.59900 0.07430 0.75510 -0.03700
H 	H 	0.56700 0.20470 0.70070 0.12500
H 	H 	0.79660 0.31230 0.64960 -0.02000
H 	H 	0.22610 0.18090 0.72010 0.21500
H 	H 	0.14170 0.09060 0.74800 0.19400
H 	H 	0.18090 0.13570 0.35210 -0.03500
H 	H 	0.56850 0.29370 0.32020 -0.04800
H 	H 	0.62100 0.06330 0.46150 -0.03200
H 	H 	0.87740 0.14330 0.57210 -0.01400
H 	H 	0.62130 0.76160 0.18880 0.12900
H 	H 	0.35410 0.75510 0.17060 -0.03700
H 	H 	0.26770 0.70070 0.09460 0.12500
H 	H 	0.44620 0.64960 0.03810 -0.02000
H 	H 	0.94620 0.72010 0.09900 0.21500
H 	H 	0.88970 0.74800 0.16140 0.19400
H 	H 	0.53300 0.35210 0.51220 -0.03400
H 	H 	0.88870 0.32020 0.38610 -0.04800
H 	H 	0.08250 0.46150 0.47520 -0.03200
H 	H 	0.44950 0.57210 0.28460 -0.01500
H 	H 	0.81010 0.18880 0.04960 0.13100
H 	H 	0.52470 0.17060 0.07430 -0.03800
H 	H 	0.36230 0.09460 0.20470 0.12600
H 	H 	0.48430 0.03810 0.31230 -0.02100
H 	H 	0.04520 0.09900 0.18090 0.21500
H 	H 	0.05110 0.16140 0.09060 0.19500
H 	H 	0.04520 0.51220 0.13570 -0.03400
H 	H 	0.27480 0.38610 0.29370 -0.04900
H 	H 	0.55770 0.47520 0.06330 -0.03200
H 	H 	0.73410 0.28460 0.14330 -0.01400
C 	C 	0.03118 0.75453 0.32699 -0.26200
C 	C 	0.01004 0.83300 0.29488 0.31600
C 	C 	0.15128 0.89714 0.26230 -0.31300
C 	C 	0.30869 0.88239 0.26522 0.18600
C 	C 	0.32791 0.80486 0.29773 -0.26400
C 	C 	0.19045 0.74063 0.32848 0.16800
C 	C 	0.89050 0.68005 0.36165 0.38200
C 	C 	0.84283 0.85338 0.29399 -0.57800
C 	C 	0.75289 0.84217 0.37410 0.53000
C 	C 	0.73169 0.83687 0.63850 0.10100
C 	C 	0.52154 0.75126 0.65594 0.10900
C 	C 	0.29695 0.92734 0.51399 0.10000
C 	C 	0.15867 0.88415 0.45394 0.10700
C 	C 	0.35817 0.32699 0.91848 -0.26300
C 	C 	0.30492 0.29488 0.87212 0.31500
C 	C 	0.41358 0.26230 0.84056 -0.31200
C 	C 	0.57391 0.26522 0.85239 0.18500
C 	C 	0.62564 0.29773 0.89741 -0.26400
C 	C 	0.51893 0.32848 0.93089 0.16800
C 	C 	0.25215 0.36165 0.95830 0.38400
C 	C 	0.13682 0.29399 0.85263 -0.57700
C 	C 	0.12699 0.37410 0.78373 0.53100
C 	C 	0.37019 0.63850 0.52463 0.10100
C 	C 	0.17748 0.65594 0.59280 0.10900
C 	C 	0.81094 0.51399 0.55867 0.10000
C 	C 	0.61261 0.45394 0.66191 0.10700
C 	C 	0.27665 0.91848 0.75453 -0.26500
C 	C 	0.17704 0.87212 0.83300 0.32000
C 	C 	0.25414 0.84056 0.89714 -0.31500
C 	C 	0.42630 0.85239 0.88239 0.18800
C 	C 	0.52305 0.89741 0.80486 -0.26600
C 	C 	0.44982 0.93089 0.74063 0.17000
C 	C 	0.21045 0.95830 0.68005 0.38400
C 	C 	0.98945 0.85263 0.85338 -0.58200
C 	C 	0.91072 0.78373 0.84217 0.53100
C 	C 	0.89482 0.52463 0.83687 0.10100
C 	C 	0.77028 0.59280 0.75126 0.10900
C 	C 	0.36961 0.55867 0.92734 0.10000
C 	C 	0.27452 0.66191 0.88415 0.10700
C 	C 	0.96882 0.24547 0.67301 -0.26200
C 	C 	0.98996 0.16700 0.70512 0.31600
C 	C 	0.84872 0.10286 0.73770 -0.31300
C 	C 	0.69131 0.11761 0.73478 0.18600
C 	C 	0.67209 0.19514 0.70227 -0.26400
C 	C 	0.80955 0.25937 0.67152 0.16800
C 	C 	0.10950 0.31995 0.63835 0.38200
C 	C 	0.15717 0.14662 0.70601 -0.57800
C 	C 	0.24711 0.15783 0.62590 0.53000
C 	C 	0.26831 0.16313 0.36150 0.10100
C 	C 	0.47846 0.24874 0.34406 0.10900
C 	C 	0.70305 0.07266 0.48601 0.10000
C 	C 	0.84133 0.11585 0.54606 0.10700
C 	C 	0.64183 0.67301 0.08152 -0.26300
C 	C 	0.69508 0.70512 0.12788 0.31500
C 	C 	0.58642 0.73770 0.15944 -0.31200
C 	C 	0.42609 0.73478 0.14761 0.18500
C 	C 	0.37436 0.70227 0.10259 -0.26400
C 	C 	0.48107 0.67152 0.06911 0.16800
C 	C 	0.74785 0.63835 0.04170 0.38400
C 	C 	0.86318 0.70601 0.14737 -0.57700
C 	C 	0.87301 0.62590 0.21627 0.53100
C 	C 	0.62981 0.36150 0.47537 0.10100
C 	C 	0.82252 0.34406 0.40720 0.10900
C 	C 	0.18906 0.48601 0.44133 0.10000
C 	C 	0.38739 0.54606 0.33809 0.10700
C 	C 	0.72335 0.08152 0.24547 -0.26500
C 	C 	0.82296 0.12788 0.16700 0.32000
C 	C 	0.74586 0.15944 0.10286 -0.31500
C 	C 	0.57370 0.14761 0.11761 0.18800
C 	C 	0.47695 0.10259 0.19514 -0.26600
C 	C 	0.55018 0.06911 0.25937 0.17000
C 	C 	0.78955 0.04170 0.31995 0.38400
C 	C 	0.01055 0.14737 0.14662 -0.58200
C 	C 	0.08928 0.21627 0.15783 0.53100
C 	C 	0.10518 0.47537 0.16313 0.10100
C 	C 	0.22972 0.40720 0.24874 0.10900
C 	C 	0.63039 0.44133 0.07266 0.10000
C 	C 	0.72548 0.33809 0.11585 0.10700
N 	N 	0.56311 0.80562 0.57839 -0.25400
N 	N 	0.70114 0.86169 0.56687 -0.24200
N 	N 	0.62333 0.76752 0.69713 -0.28500
N 	N 	0.07876 0.93200 0.46882 -0.24200
N 	N 	0.16837 0.95970 0.50879 -0.22900
N 	N 	0.29766 0.87970 0.48072 -0.29200
N 	N 	0.14150 0.57839 0.61599 -0.25300
N 	N 	0.26801 0.56687 0.57144 -0.24100
N 	N 	0.32046 0.69713 0.53535 -0.28500
N 	N 	0.54758 0.46882 0.59918 -0.24300
N 	N 	0.67716 0.50879 0.53151 -0.22900
N 	N 	0.77838 0.48072 0.63958 -0.29200
N 	N 	0.75749 0.61599 0.80562 -0.25400
N 	N 	0.83945 0.57144 0.86169 -0.24200
N 	N 	0.85581 0.53535 0.76752 -0.28500
N 	N 	0.14676 0.59918 0.93200 -0.24200
N 	N 	0.20867 0.53151 0.95970 -0.22900
N 	N 	0.41796 0.63958 0.87970 -0.29200
N 	N 	0.43689 0.19438 0.42161 -0.25400
N 	N 	0.29886 0.13831 0.43313 -0.24200
N 	N 	0.37667 0.23248 0.30287 -0.28500
N 	N 	0.92124 0.06800 0.53118 -0.24200
N 	N 	0.83163 0.04030 0.49121 -0.22900
N 	N 	0.70234 0.12030 0.51928 -0.29200
N 	N 	0.85850 0.42161 0.38401 -0.25300
N 	N 	0.73199 0.43313 0.42856 -0.24100
N 	N 	0.67954 0.30287 0.46465 -0.28500
N 	N 	0.45242 0.53118 0.40082 -0.24300
N 	N 	0.32284 0.49121 0.46849 -0.22900
N 	N 	0.22162 0.51928 0.36042 -0.29200
N 	N 	0.24251 0.38401 0.19438 -0.25400
N 	N 	0.16055 0.42856 0.13831 -0.24200
N 	N 	0.14419 0.46465 0.23248 -0.28500
N 	N 	0.85324 0.40082 0.06800 -0.24200
N 	N 	0.79133 0.46849 0.04030 -0.22900
N 	N 	0.58204 0.36042 0.12030 -0.29200
O 	O 	0.92602 0.61352 0.37456 -0.48700
O 	O 	0.74423 0.68354 0.37645 -0.39600
O 	O 	0.59579 0.82726 0.38859 -0.53600
O 	O 	0.83400 0.85053 0.41993 -0.48000
O 	O 	0.30058 0.37456 0.01192 -0.48800
O 	O 	0.12068 0.37645 0.94001 -0.39600
O 	O 	0.98438 0.38859 0.78415 -0.53700
O 	O 	0.25393 0.41993 0.72954 -0.48000
O 	O 	0.31250 0.01192 0.61352 -0.48900
O 	O 	0.06069 0.94001 0.68354 -0.39500
O 	O 	0.76853 0.78415 0.82726 -0.53600
O 	O 	0.98347 0.72954 0.85053 -0.48100
O 	O 	0.07398 0.38648 0.62544 -0.48700
O 	O 	0.25577 0.31646 0.62355 -0.39600
O 	O 	0.40421 0.17274 0.61141 -0.53600
O 	O 	0.16600 0.14947 0.58007 -0.48000
O 	O 	0.69942 0.62544 0.98808 -0.48800
O 	O 	0.87932 0.62355 0.05999 -0.39600
O 	O 	0.01562 0.61141 0.21585 -0.53700
O 	O 	0.74607 0.58007 0.27046 -0.48000
O 	O 	0.68750 0.98808 0.38648 -0.48900
O 	O 	0.93931 0.05999 0.31646 -0.39500
O 	O 	0.23147 0.21585 0.17274 -0.53600
O 	O 	0.01653 0.27046 0.14947 -0.48100
