data_crystal

_cell_length_a 14.82330
_cell_length_b 20.57870
_cell_length_c 18.55790
_cell_angle_alpha 90.00000
_cell_angle_beta  104.67400
_cell_angle_gamma 90.00000

_symmetry_space_group_name_	'P 1'
_symmetry_space_group_name_H-M	'P 1'

loop_
_symmetry_equiv_pos_as_xyz
  x,y,z

loop_
_atom_site_label
_atom_site_type_symbol
_atom_site_fract_x
_atom_site_fract_y
_atom_site_fract_z
_atom_site_charge
Ag	Ag	0.26418 0.41716 0.62746 0.50100
Ag	Ag	0.49324 0.33821 0.38369 0.50000
Ag	Ag	0.87866 0.25746 0.57740 0.51800
Ag	Ag	0.13846 0.18113 0.40039 0.52300
Ag	Ag	0.09534 0.46918 0.30100 0.50400
Ag	Ag	0.63190 0.45155 0.87683 0.50400
C 	C 	0.00310 0.18600 0.48310 0.29900
C 	C 	0.91800 0.17880 0.41410 -0.06900
C 	C 	0.88420 0.23170 0.37710 -0.08400
H 	H 	0.91040 0.27190 0.39320 0.03500
C 	C 	0.81150 0.22830 0.31560 0.02700
H 	H 	0.79050 0.26680 0.29080 -0.00200
C 	C 	0.76750 0.17250 0.28820 -0.17600
H 	H 	0.71680 0.17240 0.24660 0.06600
C 	C 	0.80370 0.11180 0.32740 0.14000
C 	C 	0.76570 0.05250 0.30140 -0.37700
H 	H 	0.71600 0.05080 0.25920 0.13100
C 	C 	0.79960 0.99720 0.33610 0.31200
C 	C 	0.87070 0.99870 0.40290 -0.30500
H 	H 	0.89070 0.96040 0.42850 0.12500
C 	C 	0.91210 0.05900 0.43110 0.06100
H 	H 	0.95940 0.06060 0.47490 0.00600
C 	C 	0.88050 0.11540 0.39190 -0.08100
C 	C 	0.19870 0.41980 0.45330 0.01000
H 	H 	0.13750 0.42370 0.46270 -0.01100
H 	H 	0.22730 0.46260 0.45930 -0.01200
C 	C 	0.14500 0.33220 0.36750 0.00500
H 	H 	0.13800 0.31710 0.31690 -0.00200
H 	H 	0.08340 0.33470 0.37650 -0.00300
C 	C 	0.29640 0.28220 0.40680 0.00700
H 	H 	0.29130 0.26660 0.35660 -0.00800
H 	H 	0.33430 0.25160 0.44120 -0.00300
C 	C 	0.34970 0.36970 0.49240 0.01000
H 	H 	0.37950 0.41200 0.49900 -0.00600
H 	H 	0.38850 0.33990 0.52750 -0.00200
C 	C 	0.28380 0.39150 0.36260 -0.00800
H 	H 	0.27810 0.37580 0.31230 0.02100
H 	H 	0.31310 0.43400 0.36690 0.00900
C 	C 	0.21230 0.30930 0.49700 -0.00200
H 	H 	0.24970 0.27890 0.53210 0.00600
H 	H 	0.15110 0.31160 0.50680 0.01800
C 	C 	0.31850 0.52730 0.75120 0.00700
H 	H 	0.26300 0.54820 0.72110 0.00600
H 	H 	0.29930 0.49690 0.78430 0.00900
C 	C 	0.40830 0.62220 0.74580 0.00200
H 	H 	0.44830 0.65490 0.77530 0.01400
H 	H 	0.35390 0.64390 0.71520 0.01200
C 	C 	0.54220 0.55530 0.74580 -0.00400
H 	H 	0.57690 0.53310 0.71540 0.01100
H 	H 	0.58290 0.58760 0.77550 0.01500
C 	C 	0.45020 0.45920 0.75000 0.00500
H 	H 	0.43090 0.42830 0.78270 -0.00900
H 	H 	0.48300 0.43560 0.71930 -0.00700
C 	C 	0.39750 0.53860 0.65290 0.01100
H 	H 	0.43000 0.51570 0.62130 -0.00900
H 	H 	0.34340 0.55960 0.62090 -0.01100
C 	C 	0.46130 0.54450 0.84180 0.00500
H 	H 	0.44230 0.51470 0.87560 0.00300
H 	H 	0.50180 0.57700 0.87140 0.01300
C 	C 	0.93020 0.38990 0.65910 0.00600
H 	H 	0.90520 0.40570 0.60880 -0.01200
H 	H 	0.87820 0.38110 0.68050 0.00000
C 	C 	0.02800 0.41590 0.78060 -0.00800
H 	H 	0.97710 0.40820 0.80370 0.02100
H 	H 	0.06890 0.44830 0.80990 0.00300
C 	C 	0.06220 0.34350 0.62560 -0.00100
H 	H 	0.03950 0.35860 0.57470 0.01400
H 	H 	0.09730 0.30380 0.62460 0.02400
C 	C 	0.15870 0.36850 0.74610 0.00700
H 	H 	0.19450 0.32910 0.74570 -0.00700
H 	H 	0.19960 0.40060 0.77590 -0.00800
C 	C 	0.01780 0.30580 0.73350 -0.00100
H 	H 	0.96600 0.29690 0.75510 0.01000
H 	H 	0.05180 0.26560 0.73320 0.00300
C 	C 	0.06970 0.45240 0.67020 0.00800
H 	H 	0.10980 0.48560 0.69860 -0.00700
H 	H 	0.04620 0.46820 0.61970 -0.00800
C 	C 	0.53550 0.23080 0.51500 0.00800
H 	H 	0.53400 0.26870 0.54570 0.00800
H 	H 	0.47190 0.21590 0.49550 0.01000
C 	C 	0.57750 0.19010 0.40660 0.00700
H 	H 	0.60430 0.20080 0.36550 -0.00100
H 	H 	0.51420 0.17510 0.38590 -0.00700
C 	C 	0.67370 0.27070 0.48300 0.00500
H 	H 	0.70160 0.28110 0.44250 -0.00100
H 	H 	0.67410 0.30980 0.51230 -0.01100
C 	C 	0.59210 0.12240 0.51540 0.00800
H 	H 	0.52940 0.10570 0.49670 0.00400
H 	H 	0.62920 0.08900 0.54620 0.01200
C 	C 	0.68480 0.20310 0.59120 0.00300
H 	H 	0.72090 0.16970 0.62260 0.01400
H 	H 	0.68360 0.24110 0.62180 0.01000
C 	C 	0.72850 0.16160 0.48300 -0.00500
H 	H 	0.75670 0.17230 0.44270 0.01800
H 	H 	0.76560 0.12760 0.51260 0.00400
N 	N 	0.25660 0.37460 0.50860 -0.15900
N 	N 	0.18840 0.39750 0.37630 -0.16000
N 	N 	0.34260 0.34670 0.41610 -0.15200
N 	N 	0.20270 0.28520 0.42020 -0.15500
N 	N 	0.36620 0.49120 0.70160 -0.16200
N 	N 	0.37920 0.57630 0.79510 -0.10900
N 	N 	0.45990 0.58860 0.69630 -0.16000
N 	N 	0.51390 0.50810 0.79560 -0.15800
N 	N 	0.99010 0.44060 0.70370 -0.16200
N 	N 	0.98190 0.32910 0.65660 -0.15100
N 	N 	0.12440 0.39280 0.66910 -0.15300
N 	N 	0.08050 0.35470 0.77990 -0.15500
N 	N 	0.57560 0.24910 0.45190 -0.15800
N 	N 	0.63270 0.13720 0.45140 -0.16100
N 	N 	0.72980 0.21990 0.53040 -0.16000
N 	N 	0.58950 0.17980 0.56050 -0.10900
O 	O 	0.06840 0.14690 0.49060 -0.34900
O 	O 	0.00440 0.23260 0.52370 -0.35000
O 	O 	0.76630 0.93950 0.30430 -0.51000
H 	H 	0.78830 0.90960 0.33260 0.24800
Ag	Ag	0.73582 0.91716 0.87254 0.50000
Ag	Ag	0.50676 0.83821 0.11631 0.49900
Ag	Ag	0.12134 0.75746 0.92260 0.51600
Ag	Ag	0.86154 0.68113 0.09961 0.52200
Ag	Ag	0.90466 0.96918 0.19900 0.50200
Ag	Ag	0.36810 0.95155 0.62317 0.50400
C 	C 	0.99690 0.68600 0.01690 0.29400
C 	C 	0.08200 0.67880 0.08590 -0.06500
C 	C 	0.11580 0.73170 0.12290 -0.08700
H 	H 	0.08960 0.77190 0.10680 0.03700
C 	C 	0.18850 0.72830 0.18440 0.02900
H 	H 	0.20950 0.76680 0.20920 -0.00200
C 	C 	0.23250 0.67250 0.21180 -0.17800
H 	H 	0.28320 0.67240 0.25340 0.06700
C 	C 	0.19630 0.61180 0.17260 0.14100
C 	C 	0.23430 0.55250 0.19860 -0.37900
H 	H 	0.28400 0.55080 0.24080 0.13100
C 	C 	0.20040 0.49720 0.16390 0.31300
C 	C 	0.12930 0.49870 0.09710 -0.30500
H 	H 	0.10930 0.46040 0.07150 0.12600
C 	C 	0.08790 0.55900 0.06890 0.06100
H 	H 	0.04060 0.56060 0.02510 0.00600
C 	C 	0.11950 0.61540 0.10810 -0.08300
C 	C 	0.80130 0.91980 0.04670 0.00900
H 	H 	0.86250 0.92370 0.03730 -0.01100
H 	H 	0.77270 0.96260 0.04070 -0.01200
C 	C 	0.85500 0.83220 0.13250 0.00500
H 	H 	0.86200 0.81710 0.18310 -0.00200
H 	H 	0.91660 0.83470 0.12350 -0.00400
C 	C 	0.70360 0.78220 0.09320 0.00700
H 	H 	0.70870 0.76660 0.14340 -0.00800
H 	H 	0.66570 0.75160 0.05880 -0.00300
C 	C 	0.65030 0.86970 0.00760 0.00700
H 	H 	0.62050 0.91200 0.00100 -0.00600
H 	H 	0.61150 0.83990 0.97250 -0.00000
C 	C 	0.71620 0.89150 0.13740 -0.00800
H 	H 	0.72190 0.87580 0.18770 0.02100
H 	H 	0.68690 0.93400 0.13310 0.00900
C 	C 	0.78770 0.80930 0.00300 -0.00900
H 	H 	0.75030 0.77890 0.96790 0.00800
H 	H 	0.84890 0.81160 0.99320 0.02100
C 	C 	0.68150 0.02730 0.74880 0.00700
H 	H 	0.73700 0.04820 0.77890 0.00700
H 	H 	0.70070 0.99690 0.71570 0.00900
C 	C 	0.59170 0.12220 0.75420 0.00200
H 	H 	0.55170 0.15490 0.72470 0.01400
H 	H 	0.64610 0.14390 0.78480 0.01200
C 	C 	0.45780 0.05530 0.75420 -0.00400
H 	H 	0.42310 0.03310 0.78460 0.01100
H 	H 	0.41710 0.08760 0.72450 0.01500
C 	C 	0.54980 0.95920 0.75000 0.00500
H 	H 	0.56910 0.92830 0.71730 -0.00900
H 	H 	0.51700 0.93560 0.78070 -0.00700
C 	C 	0.60250 0.03860 0.84710 0.01100
H 	H 	0.57000 0.01570 0.87870 -0.00900
H 	H 	0.65660 0.05960 0.87910 -0.01100
C 	C 	0.53870 0.04450 0.65820 0.00500
H 	H 	0.55770 0.01470 0.62440 0.00300
H 	H 	0.49820 0.07700 0.62860 0.01300
C 	C 	0.06980 0.88990 0.84090 0.00600
H 	H 	0.09480 0.90570 0.89120 -0.01200
H 	H 	0.12180 0.88110 0.81950 0.00000
C 	C 	0.97200 0.91590 0.71940 -0.00400
H 	H 	0.02290 0.90820 0.69630 0.01900
H 	H 	0.93110 0.94830 0.69010 0.00200
C 	C 	0.93780 0.84350 0.87440 0.00000
H 	H 	0.96050 0.85860 0.92530 0.01400
H 	H 	0.90270 0.80380 0.87540 0.02300
C 	C 	0.84130 0.86850 0.75390 0.00700
H 	H 	0.80550 0.82910 0.75430 -0.00700
H 	H 	0.80040 0.90060 0.72410 -0.00800
C 	C 	0.98220 0.80580 0.76650 0.00400
H 	H 	0.03400 0.79690 0.74490 0.00800
H 	H 	0.94820 0.76560 0.76680 0.00200
C 	C 	0.93030 0.95240 0.82980 0.00900
H 	H 	0.89020 0.98560 0.80140 -0.00700
H 	H 	0.95380 0.96820 0.88030 -0.00800
C 	C 	0.46450 0.73080 0.98500 0.00800
H 	H 	0.46600 0.76870 0.95430 0.00800
H 	H 	0.52810 0.71590 0.00450 0.01000
C 	C 	0.42250 0.69010 0.09340 0.00700
H 	H 	0.39570 0.70080 0.13450 -0.00100
H 	H 	0.48580 0.67510 0.11410 -0.00700
C 	C 	0.32630 0.77070 0.01700 0.00600
H 	H 	0.29840 0.78110 0.05750 -0.00100
H 	H 	0.32590 0.80980 0.98770 -0.01100
C 	C 	0.40790 0.62240 0.98460 0.00800
H 	H 	0.47060 0.60570 0.00330 0.00400
H 	H 	0.37080 0.58900 0.95380 0.01100
C 	C 	0.31520 0.70310 0.90880 0.00300
H 	H 	0.27910 0.66970 0.87740 0.01400
H 	H 	0.31640 0.74110 0.87820 0.01000
C 	C 	0.27150 0.66160 0.01700 -0.00200
H 	H 	0.24330 0.67230 0.05730 0.01800
H 	H 	0.23440 0.62760 0.98740 0.00300
N 	N 	0.74340 0.87460 0.99140 -0.15700
N 	N 	0.81160 0.89750 0.12370 -0.16000
N 	N 	0.65740 0.84670 0.08390 -0.15200
N 	N 	0.79730 0.78520 0.07980 -0.15400
N 	N 	0.63380 0.99120 0.79840 -0.16200
N 	N 	0.62080 0.07630 0.70490 -0.10900
N 	N 	0.54010 0.08860 0.80370 -0.16000
N 	N 	0.48610 0.00810 0.70440 -0.15800
N 	N 	0.00990 0.94060 0.79630 -0.16300
N 	N 	0.01810 0.82910 0.84340 -0.15200
N 	N 	0.87560 0.89280 0.83090 -0.15400
N 	N 	0.91950 0.85470 0.72010 -0.15600
N 	N 	0.42440 0.74910 0.04810 -0.15900
N 	N 	0.36730 0.63720 0.04860 -0.16100
N 	N 	0.27020 0.71990 0.96960 -0.16100
N 	N 	0.41050 0.67980 0.93950 -0.10900
O 	O 	0.93160 0.64690 0.00940 -0.34900
O 	O 	0.99560 0.73260 0.97630 -0.34700
O 	O 	0.23370 0.43950 0.19570 -0.51000
H 	H 	0.21170 0.40960 0.16740 0.24800
Ag	Ag	0.73582 0.58284 0.37254 0.50000
Ag	Ag	0.50676 0.66179 0.61631 0.49900
Ag	Ag	0.12134 0.74254 0.42260 0.51700
Ag	Ag	0.86154 0.81887 0.59961 0.52200
Ag	Ag	0.90466 0.53082 0.69900 0.50300
Ag	Ag	0.36810 0.54845 0.12317 0.50300
C 	C 	0.99690 0.81400 0.51690 0.29900
C 	C 	0.08200 0.82120 0.58590 -0.06900
C 	C 	0.11580 0.76830 0.62290 -0.08400
H 	H 	0.08960 0.72810 0.60680 0.03500
C 	C 	0.18850 0.77170 0.68440 0.02700
H 	H 	0.20950 0.73320 0.70920 -0.00200
C 	C 	0.23250 0.82750 0.71180 -0.17600
H 	H 	0.28320 0.82760 0.75340 0.06600
C 	C 	0.19630 0.88820 0.67260 0.14000
C 	C 	0.23430 0.94750 0.69860 -0.37700
H 	H 	0.28400 0.94920 0.74080 0.13100
C 	C 	0.20040 0.00280 0.66390 0.31200
C 	C 	0.12930 0.00130 0.59710 -0.30500
H 	H 	0.10930 0.03960 0.57150 0.12500
C 	C 	0.08790 0.94100 0.56890 0.06100
H 	H 	0.04060 0.93940 0.52510 0.00600
C 	C 	0.11950 0.88460 0.60810 -0.08100
C 	C 	0.80130 0.58020 0.54670 0.01000
H 	H 	0.86250 0.57630 0.53730 -0.01100
H 	H 	0.77270 0.53740 0.54070 -0.01200
C 	C 	0.85500 0.66780 0.63250 0.00500
H 	H 	0.86200 0.68290 0.68310 -0.00200
H 	H 	0.91660 0.66530 0.62350 -0.00300
C 	C 	0.70360 0.71780 0.59320 0.00700
H 	H 	0.70870 0.73340 0.64340 -0.00800
H 	H 	0.66570 0.74840 0.55880 -0.00300
C 	C 	0.65030 0.63030 0.50760 0.01000
H 	H 	0.62050 0.58800 0.50100 -0.00600
H 	H 	0.61150 0.66010 0.47250 -0.00200
C 	C 	0.71620 0.60850 0.63740 -0.00800
H 	H 	0.72190 0.62420 0.68770 0.02100
H 	H 	0.68690 0.56600 0.63310 0.00900
C 	C 	0.78770 0.69070 0.50300 -0.00200
H 	H 	0.75030 0.72110 0.46790 0.00600
H 	H 	0.84890 0.68840 0.49320 0.01800
C 	C 	0.68150 0.47270 0.24880 0.00700
H 	H 	0.73700 0.45180 0.27890 0.00600
H 	H 	0.70070 0.50310 0.21570 0.00900
C 	C 	0.59170 0.37780 0.25420 0.00200
H 	H 	0.55170 0.34510 0.22470 0.01400
H 	H 	0.64610 0.35610 0.28480 0.01200
C 	C 	0.45780 0.44470 0.25420 -0.00400
H 	H 	0.42310 0.46690 0.28460 0.01100
H 	H 	0.41710 0.41240 0.22450 0.01500
C 	C 	0.54980 0.54080 0.25000 0.00500
H 	H 	0.56910 0.57170 0.21730 -0.00900
H 	H 	0.51700 0.56440 0.28070 -0.00700
C 	C 	0.60250 0.46140 0.34710 0.01100
H 	H 	0.57000 0.48430 0.37870 -0.00900
H 	H 	0.65660 0.44040 0.37910 -0.01100
C 	C 	0.53870 0.45550 0.15820 0.00500
H 	H 	0.55770 0.48530 0.12440 0.00300
H 	H 	0.49820 0.42300 0.12860 0.01300
C 	C 	0.06980 0.61010 0.34090 0.00600
H 	H 	0.09480 0.59430 0.39120 -0.01200
H 	H 	0.12180 0.61890 0.31950 0.00000
C 	C 	0.97200 0.58410 0.21940 -0.00800
H 	H 	0.02290 0.59180 0.19630 0.02100
H 	H 	0.93110 0.55170 0.19010 0.00300
C 	C 	0.93780 0.65650 0.37440 -0.00100
H 	H 	0.96050 0.64140 0.42530 0.01400
H 	H 	0.90270 0.69620 0.37540 0.02400
C 	C 	0.84130 0.63150 0.25390 0.00700
H 	H 	0.80550 0.67090 0.25430 -0.00700
H 	H 	0.80040 0.59940 0.22410 -0.00800
C 	C 	0.98220 0.69420 0.26650 -0.00100
H 	H 	0.03400 0.70310 0.24490 0.01000
H 	H 	0.94820 0.73440 0.26680 0.00300
C 	C 	0.93030 0.54760 0.32980 0.00800
H 	H 	0.89020 0.51440 0.30140 -0.00700
H 	H 	0.95380 0.53180 0.38030 -0.00800
C 	C 	0.46450 0.76920 0.48500 0.00800
H 	H 	0.46600 0.73130 0.45430 0.00800
H 	H 	0.52810 0.78410 0.50450 0.01000
C 	C 	0.42250 0.80990 0.59340 0.00700
H 	H 	0.39570 0.79920 0.63450 -0.00100
H 	H 	0.48580 0.82490 0.61410 -0.00700
C 	C 	0.32630 0.72930 0.51700 0.00500
H 	H 	0.29840 0.71890 0.55750 -0.00100
H 	H 	0.32590 0.69020 0.48770 -0.01100
C 	C 	0.40790 0.87760 0.48460 0.00800
H 	H 	0.47060 0.89430 0.50330 0.00400
H 	H 	0.37080 0.91100 0.45380 0.01200
C 	C 	0.31520 0.79690 0.40880 0.00300
H 	H 	0.27910 0.83030 0.37740 0.01400
H 	H 	0.31640 0.75890 0.37820 0.01000
C 	C 	0.27150 0.83840 0.51700 -0.00500
H 	H 	0.24330 0.82770 0.55730 0.01800
H 	H 	0.23440 0.87240 0.48740 0.00400
N 	N 	0.74340 0.62540 0.49140 -0.15900
N 	N 	0.81160 0.60250 0.62370 -0.16000
N 	N 	0.65740 0.65330 0.58390 -0.15200
N 	N 	0.79730 0.71480 0.57980 -0.15500
N 	N 	0.63380 0.50880 0.29840 -0.16200
N 	N 	0.62080 0.42370 0.20490 -0.10900
N 	N 	0.54010 0.41140 0.30370 -0.16000
N 	N 	0.48610 0.49190 0.20440 -0.15800
N 	N 	0.00990 0.55940 0.29630 -0.16200
N 	N 	0.01810 0.67090 0.34340 -0.15100
N 	N 	0.87560 0.60720 0.33090 -0.15300
N 	N 	0.91950 0.64530 0.22010 -0.15500
N 	N 	0.42440 0.75090 0.54810 -0.15800
N 	N 	0.36730 0.86280 0.54860 -0.16100
N 	N 	0.27020 0.78010 0.46960 -0.16000
N 	N 	0.41050 0.82020 0.43950 -0.10900
O 	O 	0.93160 0.85310 0.50940 -0.34900
O 	O 	0.99560 0.76740 0.47630 -0.35000
O 	O 	0.23370 0.06050 0.69570 -0.51000
H 	H 	0.21170 0.09040 0.66740 0.24800
Ag	Ag	0.26418 0.08284 0.12746 0.50000
Ag	Ag	0.49324 0.16179 0.88369 0.49900
Ag	Ag	0.87866 0.24254 0.07740 0.51600
Ag	Ag	0.13846 0.31887 0.90039 0.52200
Ag	Ag	0.09534 0.03082 0.80100 0.50200
Ag	Ag	0.63190 0.04845 0.37683 0.50400
C 	C 	0.00310 0.31400 0.98310 0.29400
C 	C 	0.91800 0.32120 0.91410 -0.06500
C 	C 	0.88420 0.26830 0.87710 -0.08700
H 	H 	0.91040 0.22810 0.89320 0.03700
C 	C 	0.81150 0.27170 0.81560 0.02900
H 	H 	0.79050 0.23320 0.79080 -0.00200
C 	C 	0.76750 0.32750 0.78820 -0.17800
H 	H 	0.71680 0.32760 0.74660 0.06700
C 	C 	0.80370 0.38820 0.82740 0.14100
C 	C 	0.76570 0.44750 0.80140 -0.37900
H 	H 	0.71600 0.44920 0.75920 0.13100
C 	C 	0.79960 0.50280 0.83610 0.31300
C 	C 	0.87070 0.50130 0.90290 -0.30500
H 	H 	0.89070 0.53960 0.92850 0.12600
C 	C 	0.91210 0.44100 0.93110 0.06100
H 	H 	0.95940 0.43940 0.97490 0.00600
C 	C 	0.88050 0.38460 0.89190 -0.08300
C 	C 	0.19870 0.08020 0.95330 0.00900
H 	H 	0.13750 0.07630 0.96270 -0.01100
H 	H 	0.22730 0.03740 0.95930 -0.01200
C 	C 	0.14500 0.16780 0.86750 0.00500
H 	H 	0.13800 0.18290 0.81690 -0.00200
H 	H 	0.08340 0.16530 0.87650 -0.00400
C 	C 	0.29640 0.21780 0.90680 0.00700
H 	H 	0.29130 0.23340 0.85660 -0.00800
H 	H 	0.33430 0.24840 0.94120 -0.00300
C 	C 	0.34970 0.13030 0.99240 0.00700
H 	H 	0.37950 0.08800 0.99900 -0.00600
H 	H 	0.38850 0.16010 0.02750 -0.00000
C 	C 	0.28380 0.10850 0.86260 -0.00800
H 	H 	0.27810 0.12420 0.81230 0.02100
H 	H 	0.31310 0.06600 0.86690 0.00900
C 	C 	0.21230 0.19070 0.99700 -0.00900
H 	H 	0.24970 0.22110 0.03210 0.00800
H 	H 	0.15110 0.18840 0.00680 0.02100
C 	C 	0.31850 0.97270 0.25120 0.00700
H 	H 	0.26300 0.95180 0.22110 0.00700
H 	H 	0.29930 0.00310 0.28430 0.00900
C 	C 	0.40830 0.87780 0.24580 0.00200
H 	H 	0.44830 0.84510 0.27530 0.01400
H 	H 	0.35390 0.85610 0.21520 0.01200
C 	C 	0.54220 0.94470 0.24580 -0.00400
H 	H 	0.57690 0.96690 0.21540 0.01100
H 	H 	0.58290 0.91240 0.27550 0.01500
C 	C 	0.45020 0.04080 0.25000 0.00500
H 	H 	0.43090 0.07170 0.28270 -0.00900
H 	H 	0.48300 0.06440 0.21930 -0.00700
C 	C 	0.39750 0.96140 0.15290 0.01100
H 	H 	0.43000 0.98430 0.12130 -0.00900
H 	H 	0.34340 0.94040 0.12090 -0.01100
C 	C 	0.46130 0.95550 0.34180 0.00500
H 	H 	0.44230 0.98530 0.37560 0.00300
H 	H 	0.50180 0.92300 0.37140 0.01300
C 	C 	0.93020 0.11010 0.15910 0.00600
H 	H 	0.90520 0.09430 0.10880 -0.01200
H 	H 	0.87820 0.11890 0.18050 0.00000
C 	C 	0.02800 0.08410 0.28060 -0.00400
H 	H 	0.97710 0.09180 0.30370 0.01900
H 	H 	0.06890 0.05170 0.30990 0.00200
C 	C 	0.06220 0.15650 0.12560 0.00000
H 	H 	0.03950 0.14140 0.07470 0.01400
H 	H 	0.09730 0.19620 0.12460 0.02300
C 	C 	0.15870 0.13150 0.24610 0.00700
H 	H 	0.19450 0.17090 0.24570 -0.00700
H 	H 	0.19960 0.09940 0.27590 -0.00800
C 	C 	0.01780 0.19420 0.23350 0.00400
H 	H 	0.96600 0.20310 0.25510 0.00800
H 	H 	0.05180 0.23440 0.23320 0.00200
C 	C 	0.06970 0.04760 0.17020 0.00900
H 	H 	0.10980 0.01440 0.19860 -0.00700
H 	H 	0.04620 0.03180 0.11970 -0.00800
C 	C 	0.53550 0.26920 0.01500 0.00800
H 	H 	0.53400 0.23130 0.04570 0.00800
H 	H 	0.47190 0.28410 0.99550 0.01000
C 	C 	0.57750 0.30990 0.90660 0.00700
H 	H 	0.60430 0.29920 0.86550 -0.00100
H 	H 	0.51420 0.32490 0.88590 -0.00700
C 	C 	0.67370 0.22930 0.98300 0.00600
H 	H 	0.70160 0.21890 0.94250 -0.00100
H 	H 	0.67410 0.19020 0.01230 -0.01100
C 	C 	0.59210 0.37760 0.01540 0.00800
H 	H 	0.52940 0.39430 0.99670 0.00400
H 	H 	0.62920 0.41100 0.04620 0.01100
C 	C 	0.68480 0.29690 0.09120 0.00300
H 	H 	0.72090 0.33030 0.12260 0.01400
H 	H 	0.68360 0.25890 0.12180 0.01000
C 	C 	0.72850 0.33840 0.98300 -0.00200
H 	H 	0.75670 0.32770 0.94270 0.01800
H 	H 	0.76560 0.37240 0.01260 0.00300
N 	N 	0.25660 0.12540 0.00860 -0.15700
N 	N 	0.18840 0.10250 0.87630 -0.16000
N 	N 	0.34260 0.15330 0.91610 -0.15200
N 	N 	0.20270 0.21480 0.92020 -0.15400
N 	N 	0.36620 0.00880 0.20160 -0.16200
N 	N 	0.37920 0.92370 0.29510 -0.10900
N 	N 	0.45990 0.91140 0.19630 -0.16000
N 	N 	0.51390 0.99190 0.29560 -0.15800
N 	N 	0.99010 0.05940 0.20370 -0.16300
N 	N 	0.98190 0.17090 0.15660 -0.15200
N 	N 	0.12440 0.10720 0.16910 -0.15400
N 	N 	0.08050 0.14530 0.27990 -0.15600
N 	N 	0.57560 0.25090 0.95190 -0.15900
N 	N 	0.63270 0.36280 0.95140 -0.16100
N 	N 	0.72980 0.28010 0.03040 -0.16100
N 	N 	0.58950 0.32020 0.06050 -0.10900
O 	O 	0.06840 0.35310 0.99060 -0.34900
O 	O 	0.00440 0.26740 0.02370 -0.34700
O 	O 	0.76630 0.56050 0.80430 -0.51000
H 	H 	0.78830 0.59040 0.83260 0.24800
