data_crystal

_cell_length_a 21.92200
_cell_length_b 33.73000
_cell_length_c 14.94800
_cell_angle_alpha 90.00000
_cell_angle_beta  130.51200
_cell_angle_gamma 90.00000

_symmetry_space_group_name_	'P 1'
_symmetry_space_group_name_H-M	'P 1'

loop_
_symmetry_equiv_pos_as_xyz
  x,y,z

loop_
_atom_site_label
_atom_site_type_symbol
_atom_site_fract_x
_atom_site_fract_y
_atom_site_fract_z
_atom_site_charge
Eu	Eu	0.65592 0.25736 0.00111 1.74300
Eu	Eu	0.58808 0.24525 0.58888 2.13600
Eu	Eu	0.60041 0.24613 0.29368 1.94900
Ag	Ag	0.49135 0.00562 0.78504 0.46600
Ag	Ag	0.69063 0.00096 0.09806 0.44800
Ag	Ag	0.59824 0.49936 0.74488 0.48200
Ag	Ag	0.80755 0.51311 0.10532 0.44600
Ag	Ag	0.38228 0.48560 0.29024 0.45900
O 	O 	0.59950 0.20817 0.85280 -0.50300
O 	O 	0.59050 0.19326 0.69880 -0.52800
O 	O 	0.68850 0.20854 0.60820 -0.51300
O 	O 	0.67740 0.19926 0.45080 -0.50800
O 	O 	0.52170 0.19476 0.43990 -0.53700
O 	O 	0.50580 0.20436 0.27970 -0.52700
O 	O 	0.60690 0.19022 0.20040 -0.51000
O 	O 	0.64910 0.20848 0.10420 -0.56100
O 	O 	0.74340 0.30518 0.01750 -0.56200
O 	O 	0.77260 0.31840 0.90420 -0.35900
O 	O 	0.57140 0.29514 0.82850 -0.47400
O 	O 	0.56160 0.29335 0.66960 -0.54200
O 	O 	0.66880 0.29836 0.60140 -0.46900
O 	O 	0.67560 0.28761 0.46170 -0.52700
O 	O 	0.50510 0.28371 0.41540 -0.53400
O 	O 	0.50880 0.29507 0.27260 -0.49800
O 	O 	0.61560 0.29349 0.19620 -0.58700
O 	O 	0.63460 0.31271 0.07550 -0.52500
O 	O 	0.38270 0.68380 0.45830 -0.27300
O 	O 	0.38340 0.69723 0.31180 -0.28500
O 	O 	0.71170 0.25065 0.79200 -0.86500
H 	H 	0.71430 0.22730 0.77360 0.31800
H 	H 	0.74400 0.26190 0.85870 0.40300
N 	N 	0.51530 0.06645 0.77690 -0.18900
N 	N 	0.69950 0.06110 0.58400 -0.20500
N 	N 	0.48760 0.05757 0.29780 -0.20600
N 	N 	0.66970 0.06122 0.11180 -0.20000
N 	N 	0.80880 0.45034 0.08070 -0.14800
N 	N 	0.59690 0.43674 0.76170 -0.19600
N 	N 	0.78860 0.42392 0.60270 -0.19600
N 	N 	0.39670 0.42150 0.28450 -0.19300
N 	N 	0.60210 0.44030 0.20920 -0.19900
N 	N 	0.38170 0.54880 0.31660 -0.21500
C 	C 	0.50030 0.09670 0.81910 0.01400
H 	H 	0.47620 0.09140 0.85100 0.00800
C 	C 	0.51960 0.13560 0.81640 -0.00900
H 	H 	0.50770 0.15590 0.84500 0.03400
C 	C 	0.55660 0.14417 0.77140 -0.11900
C 	C 	0.57100 0.11330 0.72690 -0.02300
H 	H 	0.59390 0.11820 0.69320 0.03600
C 	C 	0.55100 0.07490 0.73270 0.00900
H 	H 	0.56290 0.05420 0.70500 -0.01700
C 	C 	0.58340 0.18538 0.77400 0.46600
C 	C 	0.70710 0.08550 0.66080 0.01100
H 	H 	0.71240 0.07440 0.72250 -0.01400
C 	C 	0.70750 0.12680 0.65390 -0.02300
H 	H 	0.71220 0.14280 0.70860 0.03400
C 	C 	0.70070 0.14320 0.56190 -0.10500
C 	C 	0.69680 0.11770 0.48580 -0.02800
H 	H 	0.69360 0.12780 0.42500 0.04800
C 	C 	0.69770 0.07700 0.50050 0.01500
H 	H 	0.69710 0.06030 0.45040 -0.01800
C 	C 	0.68800 0.18700 0.53730 0.46100
C 	C 	0.49520 0.07390 0.38630 0.01000
H 	H 	0.49970 0.05710 0.43980 -0.02000
C 	C 	0.49680 0.11450 0.40210 -0.02200
H 	H 	0.49990 0.12470 0.46270 0.04200
C 	C 	0.49370 0.13923 0.32610 -0.10900
C 	C 	0.48360 0.12270 0.23140 -0.02300
H 	H 	0.47890 0.13880 0.17680 0.03100
C 	C 	0.48060 0.08240 0.22040 0.00500
H 	H 	0.47340 0.07150 0.15690 -0.02200
C 	C 	0.50580 0.18400 0.34790 0.49600
C 	C 	0.63600 0.07140 0.15800 -0.00100
H 	H 	0.62010 0.05140 0.18180 -0.02000
C 	C 	0.62390 0.11010 0.17170 -0.02400
H 	H 	0.59990 0.11580 0.20350 0.03600
C 	C 	0.64760 0.14086 0.13800 -0.13500
C 	C 	0.68220 0.13010 0.09010 -0.00500
H 	H 	0.69720 0.14950 0.06340 0.00700
C 	C 	0.69440 0.09050 0.08210 -0.00000
H 	H 	0.72110 0.08400 0.05480 -0.01300
C 	C 	0.63420 0.18290 0.14880 0.45800
C 	C 	0.79520 0.42360 0.13160 -0.08600
H 	H 	0.79400 0.43220 0.18960 0.01400
C 	C 	0.78290 0.38420 0.10350 0.10800
H 	H 	0.77260 0.36700 0.14100 -0.01400
C 	C 	0.78560 0.36980 0.01960 -0.32700
C 	C 	0.80400 0.39770 0.97330 0.27600
H 	H 	0.80960 0.38990 0.91920 -0.05500
C 	C 	0.81430 0.43700 0.00570 -0.26300
H 	H 	0.82600 0.45490 0.97130 0.09700
C 	C 	0.76790 0.32720 0.97870 0.56100
C 	C 	0.58120 0.41910 0.82340 0.03100
H 	H 	0.57490 0.43480 0.86810 -0.00500
C 	C 	0.57360 0.37830 0.82510 -0.03500
H 	H 	0.56480 0.36690 0.87240 0.06300
C 	C 	0.57960 0.35510 0.75410 -0.10100
C 	C 	0.59740 0.37340 0.69100 -0.02600
H 	H 	0.60230 0.35870 0.64340 0.04600
C 	C 	0.60760 0.41360 0.69960 0.01400
H 	H 	0.62280 0.42560 0.66050 -0.01200
C 	C 	0.57080 0.31090 0.75090 0.47600
C 	C 	0.77560 0.40880 0.67080 0.02800
H 	H 	0.78850 0.42410 0.73280 -0.01200
C 	C 	0.74440 0.37220 0.65530 -0.04600
H 	H 	0.73290 0.36390 0.70220 0.06500
C 	C 	0.72980 0.34730 0.56960 -0.09800
C 	C 	0.74830 0.36140 0.50340 -0.03000
H 	H 	0.74100 0.34550 0.44630 0.03400
C 	C 	0.77810 0.39970 0.52290 0.01500
H 	H 	0.79120 0.40880 0.47860 -0.00800
C 	C 	0.68840 0.30760 0.54210 0.46500
C 	C 	0.42090 0.39950 0.37660 0.01500
H 	H 	0.41920 0.41040 0.43210 -0.01100
C 	C 	0.44850 0.36120 0.39250 -0.03700
H 	H 	0.46420 0.34640 0.45700 0.04100
C 	C 	0.45240 0.34490 0.31020 -0.09700
C 	C 	0.42360 0.36700 0.21320 -0.04300
H 	H 	0.42160 0.35640 0.15400 0.04700
C 	C 	0.39730 0.40530 0.20390 0.02300
H 	H 	0.37940 0.42030 0.13870 -0.02200
C 	C 	0.49240 0.30430 0.33380 0.47000
C 	C 	0.58200 0.41040 0.24580 -0.00600
H 	H 	0.56680 0.41630 0.28970 -0.00200
C 	C 	0.58330 0.37150 0.22020 -0.01100
H 	H 	0.56690 0.35160 0.24370 0.03500
C 	C 	0.60860 0.36200 0.16070 -0.12900
C 	C 	0.62790 0.39250 0.11990 -0.03000
H 	H 	0.64340 0.38690 0.07630 0.03200
C 	C 	0.62350 0.43070 0.14510 0.00000
H 	H 	0.63580 0.45100 0.11710 -0.02700
C 	C 	0.62110 0.31880 0.14330 0.49900
C 	C 	0.37080 0.56190 0.38940 0.04100
H 	H 	0.36170 0.54350 0.42590 -0.03300
C 	C 	0.37250 0.60340 0.41420 -0.09000
H 	H 	0.36490 0.61180 0.46570 0.06700
C 	C 	0.38560 0.62970 0.35920 -0.00600
C 	C 	0.39460 0.61700 0.28000 -0.09400
H 	H 	0.40150 0.63490 0.23990 0.06000
C 	C 	0.39300 0.57570 0.26280 0.04100
H 	H 	0.40010 0.56670 0.21130 -0.03200
C 	C 	0.38510 0.67440 0.38230 0.27900
Eu	Eu	0.15592 0.75736 0.00111 1.75000
Eu	Eu	0.08808 0.74525 0.58888 2.14300
Eu	Eu	0.10041 0.74613 0.29368 1.95800
Ag	Ag	0.99135 0.50562 0.78504 0.45300
Ag	Ag	0.19063 0.50096 0.09806 0.45300
Ag	Ag	0.09824 0.99936 0.74488 0.48800
Ag	Ag	0.30755 0.01311 0.10532 0.44800
Ag	Ag	0.88228 0.98560 0.29024 0.45400
O 	O 	0.09950 0.70817 0.85280 -0.49900
O 	O 	0.09050 0.69326 0.69880 -0.52200
O 	O 	0.18850 0.70854 0.60820 -0.51200
O 	O 	0.17740 0.69926 0.45080 -0.50800
O 	O 	0.02170 0.69476 0.43990 -0.53800
O 	O 	0.00580 0.70436 0.27970 -0.52700
O 	O 	0.10690 0.69022 0.20040 -0.50600
O 	O 	0.14910 0.70848 0.10420 -0.56000
O 	O 	0.24340 0.80518 0.01750 -0.56200
O 	O 	0.27260 0.81840 0.90420 -0.35700
O 	O 	0.07140 0.79514 0.82850 -0.46900
O 	O 	0.06160 0.79335 0.66960 -0.53800
O 	O 	0.16880 0.79836 0.60140 -0.46700
O 	O 	0.17560 0.78761 0.46170 -0.52700
O 	O 	0.00510 0.78371 0.41540 -0.49500
O 	O 	0.00880 0.79507 0.27260 -0.45600
O 	O 	0.11560 0.79349 0.19620 -0.58600
O 	O 	0.13460 0.81271 0.07550 -0.52300
O 	O 	0.88270 0.18380 0.45830 -0.28200
O 	O 	0.88340 0.19723 0.31180 -0.29400
O 	O 	0.21170 0.75065 0.79200 -0.86600
H 	H 	0.21430 0.72730 0.77360 0.32000
H 	H 	0.24400 0.76190 0.85870 0.40600
N 	N 	0.01530 0.56645 0.77690 -0.19500
N 	N 	0.19950 0.56110 0.58400 -0.20300
N 	N 	0.98760 0.55757 0.29780 -0.20500
N 	N 	0.16970 0.56122 0.11180 -0.19900
N 	N 	0.30880 0.95034 0.08070 -0.14500
N 	N 	0.09690 0.93674 0.76170 -0.19500
N 	N 	0.28860 0.92392 0.60270 -0.19500
N 	N 	0.89670 0.92150 0.28450 -0.19700
N 	N 	0.10210 0.94030 0.20920 -0.19600
N 	N 	0.88170 0.04880 0.31660 -0.21700
C 	C 	0.00030 0.59670 0.81910 0.09200
H 	H 	0.97620 0.59140 0.85100 -0.04100
C 	C 	0.01960 0.63560 0.81640 -0.05100
H 	H 	0.00770 0.65590 0.84500 0.05600
C 	C 	0.05660 0.64417 0.77140 -0.09400
C 	C 	0.07100 0.61330 0.72690 -0.03700
H 	H 	0.09390 0.61820 0.69320 0.04500
C 	C 	0.05100 0.57490 0.73270 0.02400
H 	H 	0.06290 0.55420 0.70500 -0.01500
C 	C 	0.08340 0.68538 0.77400 0.46000
C 	C 	0.20710 0.58550 0.66080 0.01400
H 	H 	0.21240 0.57440 0.72250 -0.01300
C 	C 	0.20750 0.62680 0.65390 -0.02100
H 	H 	0.21220 0.64280 0.70860 0.03500
C 	C 	0.20070 0.64320 0.56190 -0.10200
C 	C 	0.19680 0.61770 0.48580 -0.02600
H 	H 	0.19360 0.62780 0.42500 0.04900
C 	C 	0.19770 0.57700 0.50050 0.01900
H 	H 	0.19710 0.56030 0.45040 -0.01600
C 	C 	0.18800 0.68700 0.53730 0.46200
C 	C 	0.99520 0.57390 0.38630 -0.00800
H 	H 	0.99970 0.55710 0.43980 -0.02300
C 	C 	0.99680 0.61450 0.40210 -0.00100
H 	H 	0.99990 0.62470 0.46270 0.02300
C 	C 	0.99370 0.63923 0.32610 -0.15500
C 	C 	0.98360 0.62270 0.23140 -0.00300
H 	H 	0.97890 0.63880 0.17680 0.01400
C 	C 	0.98060 0.58240 0.22040 -0.01300
H 	H 	0.97340 0.57150 0.15690 -0.02200
C 	C 	0.00580 0.68400 0.34790 0.53100
C 	C 	0.13600 0.57140 0.15800 0.00300
H 	H 	0.12010 0.55140 0.18180 -0.01600
C 	C 	0.12390 0.61010 0.17170 -0.02400
H 	H 	0.09990 0.61580 0.20350 0.04200
C 	C 	0.14760 0.64086 0.13800 -0.13300
C 	C 	0.18220 0.63010 0.09010 -0.00600
H 	H 	0.19720 0.64950 0.06340 0.00800
C 	C 	0.19440 0.59050 0.08210 0.00100
H 	H 	0.22110 0.58400 0.05480 -0.01300
C 	C 	0.13420 0.68290 0.14880 0.45800
C 	C 	0.29520 0.92360 0.13160 -0.08500
H 	H 	0.29400 0.93220 0.18960 0.01600
C 	C 	0.28290 0.88420 0.10350 0.11300
H 	H 	0.27260 0.86700 0.14100 -0.01300
C 	C 	0.28560 0.86980 0.01960 -0.33000
C 	C 	0.30400 0.89770 0.97330 0.28500
H 	H 	0.30960 0.88990 0.91920 -0.05500
C 	C 	0.31430 0.93700 0.00570 -0.26700
H 	H 	0.32600 0.95490 0.97130 0.10100
C 	C 	0.26790 0.82720 0.97870 0.56600
C 	C 	0.08120 0.91910 0.82340 0.03600
H 	H 	0.07490 0.93480 0.86810 -0.00100
C 	C 	0.07360 0.87830 0.82510 -0.03400
H 	H 	0.06480 0.86690 0.87240 0.06800
C 	C 	0.07960 0.85510 0.75410 -0.09600
C 	C 	0.09740 0.87340 0.69100 -0.02500
H 	H 	0.10230 0.85870 0.64340 0.05000
C 	C 	0.10760 0.91360 0.69960 0.01800
H 	H 	0.12280 0.92560 0.66050 -0.01000
C 	C 	0.07080 0.81090 0.75090 0.47700
C 	C 	0.27560 0.90880 0.67080 0.02900
H 	H 	0.28850 0.92410 0.73280 -0.01100
C 	C 	0.24440 0.87220 0.65530 -0.04400
H 	H 	0.23290 0.86390 0.70220 0.06600
C 	C 	0.22980 0.84730 0.56960 -0.09600
C 	C 	0.24830 0.86140 0.50340 -0.02900
H 	H 	0.24100 0.84550 0.44630 0.03500
C 	C 	0.27810 0.89970 0.52290 0.01500
H 	H 	0.29120 0.90880 0.47860 -0.00700
C 	C 	0.18840 0.80760 0.54210 0.46800
C 	C 	0.92090 0.89950 0.37660 0.01800
H 	H 	0.91920 0.91040 0.43210 -0.01800
C 	C 	0.94850 0.86120 0.39250 -0.05400
H 	H 	0.96420 0.84640 0.45700 0.03600
C 	C 	0.95240 0.84490 0.31020 -0.07900
C 	C 	0.92360 0.86700 0.21320 -0.06200
H 	H 	0.92160 0.85640 0.15400 0.04800
C 	C 	0.89730 0.90530 0.20390 0.02700
H 	H 	0.87940 0.92030 0.13870 -0.02600
C 	C 	0.99240 0.80430 0.33380 0.39100
C 	C 	0.08200 0.91040 0.24580 -0.00300
H 	H 	0.06680 0.91630 0.28970 0.00500
C 	C 	0.08330 0.87150 0.22020 -0.00800
H 	H 	0.06690 0.85160 0.24370 0.03900
C 	C 	0.10860 0.86200 0.16070 -0.12700
C 	C 	0.12790 0.89250 0.11990 -0.02800
H 	H 	0.14340 0.88690 0.07630 0.03200
C 	C 	0.12350 0.93070 0.14510 0.00300
H 	H 	0.13580 0.95100 0.11710 -0.02500
C 	C 	0.12110 0.81880 0.14330 0.50200
C 	C 	0.87080 0.06190 0.38940 0.03600
H 	H 	0.86170 0.04350 0.42590 -0.03600
C 	C 	0.87250 0.10340 0.41420 -0.09100
H 	H 	0.86490 0.11180 0.46570 0.06400
C 	C 	0.88560 0.12970 0.35920 -0.01200
C 	C 	0.89460 0.11700 0.28000 -0.09500
H 	H 	0.90150 0.13490 0.23990 0.05400
C 	C 	0.89300 0.07570 0.26280 0.03600
H 	H 	0.90010 0.06670 0.21130 -0.03600
C 	C 	0.88510 0.17440 0.38230 0.27800
Eu	Eu	0.65592 0.74264 0.50111 1.81900
Eu	Eu	0.58808 0.75475 0.08888 2.05000
Eu	Eu	0.60041 0.75387 0.79368 1.96200
Ag	Ag	0.49135 0.99438 0.28504 0.45600
Ag	Ag	0.69063 0.99904 0.59806 0.46200
Ag	Ag	0.59824 0.50064 0.24488 0.46900
Ag	Ag	0.80755 0.48689 0.60532 0.46000
Ag	Ag	0.38228 0.51440 0.79024 0.46800
O 	O 	0.59950 0.79183 0.35280 -0.53100
O 	O 	0.59050 0.80674 0.19880 -0.53100
O 	O 	0.68850 0.79146 0.10820 -0.51300
O 	O 	0.67740 0.80074 0.95080 -0.47400
O 	O 	0.52170 0.80524 0.93990 -0.50300
O 	O 	0.50580 0.79564 0.77970 -0.51700
O 	O 	0.60690 0.80978 0.70040 -0.50700
O 	O 	0.64910 0.79152 0.60420 -0.56100
O 	O 	0.74340 0.69482 0.51750 -0.49100
O 	O 	0.77260 0.68160 0.40420 -0.32400
O 	O 	0.57140 0.70486 0.32850 -0.50100
O 	O 	0.56160 0.70665 0.16960 -0.54700
O 	O 	0.66880 0.70164 0.10140 -0.45400
O 	O 	0.67560 0.71239 0.96170 -0.47300
O 	O 	0.50510 0.71629 0.91540 -0.50400
O 	O 	0.50880 0.70493 0.77260 -0.48800
O 	O 	0.61560 0.70651 0.69620 -0.58500
O 	O 	0.63460 0.68729 0.57550 -0.52300
O 	O 	0.38270 0.31620 0.95830 -0.25200
O 	O 	0.38340 0.30277 0.81180 -0.27400
O 	O 	0.71170 0.74935 0.29200 -0.85500
H 	H 	0.71430 0.77270 0.27360 0.31300
H 	H 	0.74400 0.73810 0.35870 0.38700
N 	N 	0.51530 0.93355 0.27690 -0.19200
N 	N 	0.69950 0.93890 0.08400 -0.16100
N 	N 	0.48760 0.94243 0.79780 -0.20300
N 	N 	0.66970 0.93878 0.61180 -0.19600
N 	N 	0.80880 0.54966 0.58070 -0.21900
N 	N 	0.59690 0.56326 0.26170 -0.20100
N 	N 	0.78860 0.57608 0.10270 -0.19700
N 	N 	0.39670 0.57850 0.78450 -0.19200
N 	N 	0.60210 0.55970 0.70920 -0.19400
N 	N 	0.38170 0.45120 0.81660 -0.21200
C 	C 	0.50030 0.90330 0.31910 0.00300
H 	H 	0.47620 0.90860 0.35100 0.00100
C 	C 	0.51960 0.86440 0.31640 -0.00900
H 	H 	0.50770 0.84410 0.34500 0.02200
C 	C 	0.55660 0.85583 0.27140 -0.13400
C 	C 	0.57100 0.88670 0.22690 -0.02300
H 	H 	0.59390 0.88180 0.19320 0.02700
C 	C 	0.55100 0.92510 0.23270 -0.00200
H 	H 	0.56290 0.94580 0.20500 -0.02400
C 	C 	0.58340 0.81462 0.27400 0.46900
C 	C 	0.70710 0.91450 0.16080 -0.04900
H 	H 	0.71240 0.92560 0.22250 -0.00000
C 	C 	0.70750 0.87320 0.15390 0.05800
H 	H 	0.71220 0.85720 0.20860 0.00200
C 	C 	0.70070 0.85680 0.06190 -0.24200
C 	C 	0.69680 0.88230 0.98580 0.22900
H 	H 	0.69360 0.87220 0.92500 -0.03300
C 	C 	0.69770 0.92300 0.00050 -0.23200
H 	H 	0.69710 0.93970 0.95040 0.09700
C 	C 	0.68800 0.81300 0.03730 0.44200
C 	C 	0.49520 0.92610 0.88630 0.01900
H 	H 	0.49970 0.94290 0.93980 -0.01000
C 	C 	0.49680 0.88550 0.90210 -0.02400
H 	H 	0.49990 0.87530 0.96270 0.05800
C 	C 	0.49370 0.86077 0.82610 -0.09700
C 	C 	0.48360 0.87730 0.73140 -0.02700
H 	H 	0.47890 0.86120 0.67680 0.03900
C 	C 	0.48060 0.91760 0.72040 0.01100
H 	H 	0.47340 0.92850 0.65690 -0.01500
C 	C 	0.50580 0.81600 0.84790 0.48800
C 	C 	0.63600 0.92860 0.65800 0.00400
H 	H 	0.62010 0.94860 0.68180 -0.01600
C 	C 	0.62390 0.88990 0.67170 -0.02000
H 	H 	0.59990 0.88420 0.70350 0.03900
C 	C 	0.64760 0.85914 0.63800 -0.13000
C 	C 	0.68220 0.86990 0.59010 -0.00100
H 	H 	0.69720 0.85050 0.56340 0.01500
C 	C 	0.69440 0.90950 0.58210 0.00600
H 	H 	0.72110 0.91600 0.55480 -0.00500
C 	C 	0.63420 0.81710 0.64880 0.46400
C 	C 	0.79520 0.57640 0.63160 0.02400
H 	H 	0.79400 0.56780 0.68960 -0.01800
C 	C 	0.78290 0.61580 0.60350 -0.05800
H 	H 	0.77260 0.63300 0.64100 0.04700
C 	C 	0.78560 0.63020 0.51960 -0.06300
C 	C 	0.80400 0.60230 0.47330 -0.07000
H 	H 	0.80960 0.61010 0.41920 0.05600
C 	C 	0.81430 0.56300 0.50570 0.04100
H 	H 	0.82600 0.54510 0.47130 -0.04000
C 	C 	0.76790 0.67280 0.47870 0.38400
C 	C 	0.58120 0.58090 0.32340 0.02000
H 	H 	0.57490 0.56520 0.36810 -0.01500
C 	C 	0.57360 0.62170 0.32510 -0.03400
H 	H 	0.56480 0.63310 0.37240 0.04900
C 	C 	0.57960 0.64490 0.25410 -0.11500
C 	C 	0.59740 0.62660 0.19100 -0.02500
H 	H 	0.60230 0.64130 0.14340 0.03600
C 	C 	0.60760 0.58640 0.19960 0.00400
H 	H 	0.62280 0.57440 0.16050 -0.01700
C 	C 	0.57080 0.68910 0.25090 0.47900
C 	C 	0.77560 0.59120 0.17080 0.04100
H 	H 	0.78850 0.57590 0.23280 -0.02200
C 	C 	0.74440 0.62780 0.15530 -0.07800
H 	H 	0.73290 0.63610 0.20220 0.07100
C 	C 	0.72980 0.65270 0.06960 -0.05400
C 	C 	0.74830 0.63860 0.00340 -0.11900
H 	H 	0.74100 0.65450 0.94630 0.09200
C 	C 	0.77810 0.60030 0.02290 -0.03100
H 	H 	0.79120 0.59120 0.97860 0.04100
C 	C 	0.68840 0.69240 0.04210 0.38400
C 	C 	0.42090 0.60050 0.87660 0.02400
H 	H 	0.41920 0.58960 0.93210 -0.00100
C 	C 	0.44850 0.63880 0.89250 -0.04000
H 	H 	0.46420 0.65360 0.95700 0.05800
C 	C 	0.45240 0.65510 0.81020 -0.08200
C 	C 	0.42360 0.63300 0.71320 -0.04800
H 	H 	0.42160 0.64360 0.65400 0.06200
C 	C 	0.39730 0.59470 0.70390 0.03000
H 	H 	0.37940 0.57970 0.63870 -0.01200
C 	C 	0.49240 0.69570 0.83380 0.46500
C 	C 	0.58200 0.58960 0.74580 0.00200
H 	H 	0.56680 0.58370 0.78970 0.00600
C 	C 	0.58330 0.62850 0.72020 -0.00800
H 	H 	0.56690 0.64840 0.74370 0.03900
C 	C 	0.60860 0.63800 0.66070 -0.12200
C 	C 	0.62790 0.60750 0.61990 -0.02800
H 	H 	0.64340 0.61310 0.57630 0.04100
C 	C 	0.62350 0.56930 0.64510 0.00900
H 	H 	0.63580 0.54900 0.61710 -0.01900
C 	C 	0.62110 0.68120 0.64330 0.50500
C 	C 	0.37080 0.43810 0.88940 0.04900
H 	H 	0.36170 0.45650 0.92590 -0.02500
C 	C 	0.37250 0.39660 0.91420 -0.09100
H 	H 	0.36490 0.38820 0.96570 0.08100
C 	C 	0.38560 0.37030 0.85920 0.00500
C 	C 	0.39460 0.38300 0.78000 -0.09500
H 	H 	0.40150 0.36510 0.73990 0.06700
C 	C 	0.39300 0.42430 0.76280 0.04700
H 	H 	0.40010 0.43330 0.71130 -0.02600
C 	C 	0.38510 0.32560 0.88230 0.27700
Eu	Eu	0.15592 0.24264 0.50111 1.82700
Eu	Eu	0.08808 0.25475 0.08888 2.05300
Eu	Eu	0.10041 0.25387 0.79368 1.97000
Ag	Ag	0.99135 0.49438 0.28504 0.44400
Ag	Ag	0.19063 0.49904 0.59806 0.46700
Ag	Ag	0.09824 0.00064 0.24488 0.47500
Ag	Ag	0.30755 0.98689 0.60532 0.46200
Ag	Ag	0.88228 0.01440 0.79024 0.46300
O 	O 	0.09950 0.29183 0.35280 -0.52800
O 	O 	0.09050 0.30674 0.19880 -0.52600
O 	O 	0.18850 0.29146 0.10820 -0.51300
O 	O 	0.17740 0.30074 0.95080 -0.47200
O 	O 	0.02170 0.30524 0.93990 -0.50300
O 	O 	0.00580 0.29564 0.77970 -0.51700
O 	O 	0.10690 0.30978 0.70040 -0.50200
O 	O 	0.14910 0.29152 0.60420 -0.56000
O 	O 	0.24340 0.19482 0.51750 -0.48900
O 	O 	0.27260 0.18160 0.40420 -0.32100
O 	O 	0.07140 0.20486 0.32850 -0.49700
O 	O 	0.06160 0.20665 0.16960 -0.54300
O 	O 	0.16880 0.20164 0.10140 -0.45200
O 	O 	0.17560 0.21239 0.96170 -0.47100
O 	O 	0.00510 0.21629 0.91540 -0.46200
O 	O 	0.00880 0.20493 0.77260 -0.44400
O 	O 	0.11560 0.20651 0.69620 -0.58400
O 	O 	0.13460 0.18729 0.57550 -0.52100
O 	O 	0.88270 0.81620 0.95830 -0.26100
O 	O 	0.88340 0.80277 0.81180 -0.28300
O 	O 	0.21170 0.24935 0.29200 -0.85600
H 	H 	0.21430 0.27270 0.27360 0.31500
H 	H 	0.24400 0.23810 0.35870 0.39000
N 	N 	0.01530 0.43355 0.27690 -0.19700
N 	N 	0.19950 0.43890 0.08400 -0.15700
N 	N 	0.98760 0.44243 0.79780 -0.20200
N 	N 	0.16970 0.43878 0.61180 -0.19400
N 	N 	0.30880 0.04966 0.58070 -0.21800
N 	N 	0.09690 0.06326 0.26170 -0.19900
N 	N 	0.28860 0.07608 0.10270 -0.19600
N 	N 	0.89670 0.07850 0.78450 -0.19600
N 	N 	0.10210 0.05970 0.70920 -0.19100
N 	N 	0.88170 0.95120 0.81660 -0.21400
C 	C 	0.00030 0.40330 0.31910 0.07800
H 	H 	0.97620 0.40860 0.35100 -0.04600
C 	C 	0.01960 0.36440 0.31640 -0.04900
H 	H 	0.00770 0.34410 0.34500 0.04400
C 	C 	0.05660 0.35583 0.27140 -0.11000
C 	C 	0.07100 0.38670 0.22690 -0.03700
H 	H 	0.09390 0.38180 0.19320 0.03600
C 	C 	0.05100 0.42510 0.23270 0.01100
H 	H 	0.06290 0.44580 0.20500 -0.02100
C 	C 	0.08340 0.31462 0.27400 0.46300
C 	C 	0.20710 0.41450 0.16080 -0.04800
H 	H 	0.21240 0.42560 0.22250 0.00200
C 	C 	0.20750 0.37320 0.15390 0.06300
H 	H 	0.21220 0.35720 0.20860 0.00200
C 	C 	0.20070 0.35680 0.06190 -0.24500
C 	C 	0.19680 0.38230 0.98580 0.23900
H 	H 	0.19360 0.37220 0.92500 -0.03500
C 	C 	0.19770 0.42300 0.00050 -0.23700
H 	H 	0.19710 0.43970 0.95040 0.10300
C 	C 	0.18800 0.31300 0.03730 0.44300
C 	C 	0.99520 0.42610 0.88630 0.00100
H 	H 	0.99970 0.44290 0.93980 -0.01200
C 	C 	0.99680 0.38550 0.90210 -0.00200
H 	H 	0.99990 0.37530 0.96270 0.03900
C 	C 	0.99370 0.36077 0.82610 -0.14300
C 	C 	0.98360 0.37730 0.73140 -0.00600
H 	H 	0.97890 0.36120 0.67680 0.02100
C 	C 	0.98060 0.41760 0.72040 -0.00800
H 	H 	0.97340 0.42850 0.65690 -0.01600
C 	C 	0.00580 0.31600 0.84790 0.52500
C 	C 	0.13600 0.42860 0.65800 0.00800
H 	H 	0.12010 0.44860 0.68180 -0.01100
C 	C 	0.12390 0.38990 0.67170 -0.02000
H 	H 	0.09990 0.38420 0.70350 0.04600
C 	C 	0.14760 0.35914 0.63800 -0.12700
C 	C 	0.18220 0.36990 0.59010 -0.00200
H 	H 	0.19720 0.35050 0.56340 0.01600
C 	C 	0.19440 0.40950 0.58210 0.00700
H 	H 	0.22110 0.41600 0.55480 -0.00400
C 	C 	0.13420 0.31710 0.64880 0.46500
C 	C 	0.29520 0.07640 0.63160 0.02700
H 	H 	0.29400 0.06780 0.68960 -0.01700
C 	C 	0.28290 0.11580 0.60350 -0.05700
H 	H 	0.27260 0.13300 0.64100 0.04900
C 	C 	0.28560 0.13020 0.51960 -0.06000
C 	C 	0.30400 0.10230 0.47330 -0.06900
H 	H 	0.30960 0.11010 0.41920 0.05800
C 	C 	0.31430 0.06300 0.50570 0.04500
H 	H 	0.32600 0.04510 0.47130 -0.03800
C 	C 	0.26790 0.17280 0.47870 0.38500
C 	C 	0.08120 0.08090 0.32340 0.02400
H 	H 	0.07490 0.06520 0.36810 -0.01100
C 	C 	0.07360 0.12170 0.32510 -0.03300
H 	H 	0.06480 0.13310 0.37240 0.05400
C 	C 	0.07960 0.14490 0.25410 -0.11000
C 	C 	0.09740 0.12660 0.19100 -0.02400
H 	H 	0.10230 0.14130 0.14340 0.04000
C 	C 	0.10760 0.08640 0.19960 0.00800
H 	H 	0.12280 0.07440 0.16050 -0.01500
C 	C 	0.07080 0.18910 0.25090 0.48000
C 	C 	0.27560 0.09120 0.17080 0.04200
H 	H 	0.28850 0.07590 0.23280 -0.02100
C 	C 	0.24440 0.12780 0.15530 -0.07700
H 	H 	0.23290 0.13610 0.20220 0.07200
C 	C 	0.22980 0.15270 0.06960 -0.05100
C 	C 	0.24830 0.13860 0.00340 -0.12100
H 	H 	0.24100 0.15450 0.94630 0.09500
C 	C 	0.27810 0.10030 0.02290 -0.03200
H 	H 	0.29120 0.09120 0.97860 0.04400
C 	C 	0.18840 0.19240 0.04210 0.38500
C 	C 	0.92090 0.10050 0.87660 0.02800
H 	H 	0.91920 0.08960 0.93210 -0.00800
C 	C 	0.94850 0.13880 0.89250 -0.05800
H 	H 	0.96420 0.15360 0.95700 0.05300
C 	C 	0.95240 0.15510 0.81020 -0.06300
C 	C 	0.92360 0.13300 0.71320 -0.06700
H 	H 	0.92160 0.14360 0.65400 0.06200
C 	C 	0.89730 0.09470 0.70390 0.03500
H 	H 	0.87940 0.07970 0.63870 -0.01700
C 	C 	0.99240 0.19570 0.83380 0.38300
C 	C 	0.08200 0.08960 0.74580 0.00600
H 	H 	0.06680 0.08370 0.78970 0.01300
C 	C 	0.08330 0.12850 0.72020 -0.00400
H 	H 	0.06690 0.14840 0.74370 0.04400
C 	C 	0.10860 0.13800 0.66070 -0.11900
C 	C 	0.12790 0.10750 0.61990 -0.02500
H 	H 	0.14340 0.11310 0.57630 0.04200
C 	C 	0.12350 0.06930 0.64510 0.01200
H 	H 	0.13580 0.04900 0.61710 -0.01700
C 	C 	0.12110 0.18120 0.64330 0.50800
C 	C 	0.87080 0.93810 0.88940 0.04400
H 	H 	0.86170 0.95650 0.92590 -0.02700
C 	C 	0.87250 0.89660 0.91420 -0.09200
H 	H 	0.86490 0.88820 0.96570 0.07800
C 	C 	0.88560 0.87030 0.85920 -0.00100
C 	C 	0.89460 0.88300 0.78000 -0.09600
H 	H 	0.90150 0.86510 0.73990 0.06000
C 	C 	0.89300 0.92430 0.76280 0.04200
H 	H 	0.90010 0.93330 0.71130 -0.03100
C 	C 	0.88510 0.82560 0.88230 0.27600
