data_crystal

_cell_length_a 10.23000
_cell_length_b 11.05900
_cell_length_c 13.81800
_cell_angle_alpha 69.01000
_cell_angle_beta  78.31000
_cell_angle_gamma 72.15000

_symmetry_space_group_name_	'P 1'
_symmetry_space_group_name_H-M	'P 1'

loop_
_symmetry_equiv_pos_as_xyz
  x,y,z

loop_
_atom_site_label
_atom_site_type_symbol
_atom_site_fract_x
_atom_site_fract_y
_atom_site_fract_z
_atom_site_charge
Zn	Zn	0.92146 0.14906 0.08523 1.23900
Zn	Zn	0.07750 0.35239 0.91430 1.24100
Zn	Zn	0.38253 0.01446 0.17298 1.21700
Zn	Zn	0.37969 0.51497 0.17448 1.21800
Zn	Zn	0.02136 0.72416 0.49037 0.78500
P 	P 	0.22299 0.03104 0.98165 0.50200
P 	P 	0.22296 0.53098 0.98146 0.50100
P 	P 	0.15649 0.97881 0.38131 0.47500
P 	P 	0.15654 0.48571 0.38395 0.48100
O 	O 	0.10060 0.15190 0.98620 -0.56600
O 	O 	0.82120 0.09450 0.00210 -0.42000
O 	O 	0.33140 0.00460 0.04980 -0.46800
O 	O 	0.58410 0.02700 0.17070 -0.25800
O 	O 	0.51050 0.81460 0.19750 -0.39100
O 	O 	0.27900 0.30950 0.82530 -0.38100
O 	O 	0.17940 0.40580 0.99700 -0.41800
O 	O 	0.89980 0.34910 0.01440 -0.57200
O 	O 	0.33000 0.50560 0.05080 -0.46700
O 	O 	0.58210 0.52850 0.16910 -0.25600
O 	O 	0.71930 0.19160 0.17390 -0.37600
O 	O 	0.50780 0.31690 0.19720 -0.39200
O 	O 	0.27970 0.94450 0.30700 -0.42600
O 	O 	0.16760 0.08940 0.42110 -0.34100
O 	O 	0.13380 0.85840 0.47150 -0.45000
O 	O 	0.01480 0.16010 0.22000 -0.22800
O 	O 	0.96600 0.96310 0.18840 -0.42300
O 	O 	0.93930 0.84330 0.35380 -0.46100
O 	O 	0.28090 0.45010 0.30990 -0.42700
O 	O 	0.16660 0.59570 0.42220 -0.37600
O 	O 	0.86730 0.63580 0.52550 -0.44600
O 	O 	0.01820 0.66030 0.21770 -0.23400
O 	O 	0.03060 0.53950 0.81020 -0.42700
O 	O 	0.05620 0.65670 0.64650 -0.46700
C 	C 	0.30520 0.08030 0.84740 -0.20500
H 	H 	0.23620 0.10290 0.79950 0.13500
C 	C 	0.63850 0.79900 0.17660 0.39200
C 	C 	0.30750 0.57780 0.84860 -0.20100
H 	H 	0.23940 0.60030 0.80010 0.13200
C 	C 	0.63580 0.30100 0.17580 0.38400
C 	C 	0.00020 0.05130 0.31430 -0.22300
H 	H 	0.92320 0.08440 0.36120 0.11500
C 	C 	0.96590 0.94600 0.28370 0.40200
C 	C 	0.00160 0.55240 0.31290 -0.24000
H 	H 	0.92270 0.58690 0.35780 0.12000
C 	C 	0.03040 0.55460 0.71590 0.41500
Zn	Zn	0.01660 0.23150 0.49360 0.78600
Zn	Zn	0.07854 0.85094 0.91477 1.23900
Zn	Zn	0.92250 0.64761 0.08570 1.24100
Zn	Zn	0.61747 0.98554 0.82702 1.21700
Zn	Zn	0.62031 0.48503 0.82552 1.21800
Zn	Zn	0.97864 0.27584 0.50963 0.78500
P 	P 	0.77701 0.96896 0.01835 0.50200
P 	P 	0.77704 0.46902 0.01854 0.50100
P 	P 	0.84351 0.02119 0.61869 0.47500
P 	P 	0.84346 0.51429 0.61605 0.48100
O 	O 	0.89940 0.84810 0.01380 -0.56600
O 	O 	0.17880 0.90550 0.99790 -0.42000
O 	O 	0.66860 0.99540 0.95020 -0.46800
O 	O 	0.41590 0.97300 0.82930 -0.25800
O 	O 	0.48950 0.18540 0.80250 -0.39100
O 	O 	0.72100 0.69050 0.17470 -0.38100
O 	O 	0.82060 0.59420 0.00300 -0.41800
O 	O 	0.10020 0.65090 0.98560 -0.57200
O 	O 	0.67000 0.49440 0.94920 -0.46700
O 	O 	0.41790 0.47150 0.83090 -0.25600
O 	O 	0.28070 0.80840 0.82610 -0.37600
O 	O 	0.49220 0.68310 0.80280 -0.39200
O 	O 	0.72030 0.05550 0.69300 -0.42600
O 	O 	0.83240 0.91060 0.57890 -0.34100
O 	O 	0.86620 0.14160 0.52850 -0.45000
O 	O 	0.98520 0.83990 0.78000 -0.22800
O 	O 	0.03400 0.03690 0.81160 -0.42300
O 	O 	0.06070 0.15670 0.64620 -0.46100
O 	O 	0.71910 0.54990 0.69010 -0.42700
O 	O 	0.83340 0.40430 0.57780 -0.37600
O 	O 	0.13270 0.36420 0.47450 -0.44600
O 	O 	0.98180 0.33970 0.78230 -0.23400
O 	O 	0.96940 0.46050 0.18980 -0.42700
O 	O 	0.94380 0.34330 0.35350 -0.46700
C 	C 	0.69480 0.91970 0.15260 -0.20500
H 	H 	0.76380 0.89710 0.20050 0.13500
C 	C 	0.36150 0.20100 0.82340 0.39200
C 	C 	0.69250 0.42220 0.15140 -0.20100
H 	H 	0.76060 0.39970 0.19990 0.13200
C 	C 	0.36420 0.69900 0.82420 0.38400
C 	C 	0.99980 0.94870 0.68570 -0.22300
H 	H 	0.07680 0.91560 0.63880 0.11500
C 	C 	0.03410 0.05400 0.71630 0.40200
C 	C 	0.99840 0.44760 0.68710 -0.24000
H 	H 	0.07730 0.41310 0.64220 0.12000
C 	C 	0.96960 0.44540 0.28410 0.41500
Zn	Zn	0.98340 0.76850 0.50640 0.78600
