data_crystal

_cell_length_a 5.55120
_cell_length_b 9.78580
_cell_length_c 12.93820
_cell_angle_alpha 86.87700
_cell_angle_beta  87.80900
_cell_angle_gamma 76.45100

_symmetry_space_group_name_	'P 1'
_symmetry_space_group_name_H-M	'P 1'

loop_
_symmetry_equiv_pos_as_xyz
  x,y,z

loop_
_atom_site_label
_atom_site_type_symbol
_atom_site_fract_x
_atom_site_fract_y
_atom_site_fract_z
_atom_site_charge
Zn	Zn	0.08320 0.62355 0.81280 1.22500
Zn	Zn	0.53250 0.02099 0.49277 0.77700
Zn	Zn	0.80123 0.07970 0.91915 1.23400
P 	P 	0.00321 0.83588 0.60647 0.43000
P 	P 	0.76924 0.77383 0.01355 0.46800
O 	O 	0.98240 0.70650 0.67494 -0.40200
O 	O 	0.81960 0.85890 0.51998 -0.43700
O 	O 	0.26910 0.82510 0.56690 -0.35900
O 	O 	0.06280 0.97590 0.77690 -0.42900
H 	H 	0.18900 0.00000 0.75100 0.23600
O 	O 	0.48600 0.05610 0.65061 -0.48300
O 	O 	0.59250 0.02230 0.81296 -0.44400
O 	O 	0.49230 0.81340 0.99678 -0.41300
O 	O 	0.88230 0.90170 0.01397 -0.55800
O 	O 	0.90440 0.66560 0.94117 -0.44700
O 	O 	0.69060 0.58210 0.15981 -0.62700
H 	H 	0.55500 0.61800 0.16000 0.39700
O 	O 	0.22100 0.72380 0.16656 -0.42600
O 	O 	0.14390 0.51790 0.21249 -0.38700
C 	C 	0.91970 0.99340 0.68520 -0.08800
H 	H 	0.95500 0.08100 0.64400 0.03900
C 	C 	0.64850 0.02560 0.71850 0.34800
C 	C 	0.81030 0.69570 0.14600 -0.09400
H 	H 	0.74400 0.77100 0.19100 0.07600
C 	C 	0.07660 0.64130 0.17643 0.36800
Zn	Zn	0.91680 0.37645 0.18720 1.22300
Zn	Zn	0.46750 0.97901 0.50723 0.80900
Zn	Zn	0.19877 0.92030 0.08085 1.24300
P 	P 	0.99679 0.16412 0.39353 0.43500
P 	P 	0.23076 0.22617 0.98645 0.47300
O 	O 	0.01760 0.29350 0.32506 -0.40500
O 	O 	0.18040 0.14110 0.48002 -0.45100
O 	O 	0.73090 0.17490 0.43310 -0.36800
O 	O 	0.93720 0.02410 0.22310 -0.45200
H 	H 	0.81100 0.00000 0.24900 0.24800
O 	O 	0.51400 0.94390 0.34939 -0.48100
O 	O 	0.40750 0.97770 0.18704 -0.43700
O 	O 	0.50770 0.18660 0.00322 -0.42700
O 	O 	0.11770 0.09830 0.98603 -0.57800
O 	O 	0.09560 0.33440 0.05883 -0.45200
O 	O 	0.30940 0.41790 0.84019 -0.62600
H 	H 	0.44500 0.38200 0.84000 0.39700
O 	O 	0.77900 0.27620 0.83344 -0.42800
O 	O 	0.85610 0.48210 0.78751 -0.38600
C 	C 	0.08030 0.00660 0.31480 -0.19100
H 	H 	0.04500 0.91900 0.35600 0.09100
C 	C 	0.35150 0.97440 0.28150 0.41200
C 	C 	0.18970 0.30430 0.85400 -0.09400
H 	H 	0.25600 0.22900 0.80900 0.07400
C 	C 	0.92340 0.35870 0.82357 0.36700
