data_crystal

_cell_length_a 21.88800
_cell_length_b 33.72680
_cell_length_c 14.93800
_cell_angle_alpha 90.00000
_cell_angle_beta  130.54000
_cell_angle_gamma 90.00000

_symmetry_space_group_name_	'P 1'
_symmetry_space_group_name_H-M	'P 1'

loop_
_symmetry_equiv_pos_as_xyz
  x,y,z

loop_
_atom_site_label
_atom_site_type_symbol
_atom_site_fract_x
_atom_site_fract_y
_atom_site_fract_z
_atom_site_charge
Sm	Sm	0.30628 0.25733 0.73242 1.88400
Sm	Sm	0.37561 0.24524 0.14562 2.08700
Sm	Sm	0.36288 0.24615 0.44087 2.06500
Ag	Ag	0.47204 0.00558 0.94921 0.44200
Ag	Ag	0.27221 0.00093 0.63614 0.45900
Ag	Ag	0.36394 0.49941 0.98635 0.45300
Ag	Ag	0.15600 0.51300 0.63033 0.45800
Ag	Ag	0.57992 0.48563 0.44205 0.46200
O 	O 	0.36400 0.20794 0.88230 -0.55700
O 	O 	0.37250 0.19287 0.03460 -0.51800
O 	O 	0.27300 0.20820 0.12330 -0.51200
O 	O 	0.28550 0.19908 0.28250 -0.52200
O 	O 	0.44170 0.19440 0.29430 -0.54300
O 	O 	0.45640 0.20434 0.45310 -0.54200
O 	O 	0.35500 0.18982 0.53270 -0.53700
O 	O 	0.31290 0.20809 0.62880 -0.58100
O 	O 	0.21890 0.30535 0.71740 -0.50300
O 	O 	0.18950 0.31890 0.83050 -0.33800
O 	O 	0.39130 0.29510 0.90590 -0.52400
O 	O 	0.40250 0.29371 0.06320 -0.54500
O 	O 	0.29530 0.29869 0.13330 -0.50100
O 	O 	0.28750 0.28792 0.27210 -0.55000
O 	O 	0.45840 0.28384 0.31850 -0.53400
O 	O 	0.45560 0.29494 0.46450 -0.49300
O 	O 	0.34690 0.29359 0.53760 -0.60400
O 	O 	0.32710 0.31315 0.65710 -0.53900
O 	O 	0.58000 0.68380 0.27650 -0.27500
O 	O 	0.57850 0.69668 0.41990 -0.29000
N 	N 	0.44880 0.06652 0.95820 -0.21200
N 	N 	0.26390 0.06130 0.15050 -0.20000
N 	N 	0.47720 0.05770 0.43710 -0.20500
N 	N 	0.29320 0.06098 0.62160 -0.19600
N 	N 	0.15400 0.45020 0.65400 -0.21700
N 	N 	0.36640 0.43663 0.97180 -0.21500
N 	N 	0.17430 0.42409 0.13100 -0.18800
N 	N 	0.56640 0.42180 0.44940 -0.19800
N 	N 	0.36150 0.44029 0.52480 -0.19900
N 	N 	0.58010 0.54900 0.41690 -0.21900
C 	C 	0.46370 0.09660 0.91630 -0.01400
H 	H 	0.48880 0.09130 0.88590 -0.00100
C 	C 	0.44300 0.13510 0.91660 0.01200
H 	H 	0.45380 0.15530 0.88630 0.01000
C 	C 	0.40660 0.14362 0.96170 -0.18400
C 	C 	0.39330 0.11340 0.00790 0.03800
H 	H 	0.37110 0.11850 0.04270 0.02000
C 	C 	0.41330 0.07460 0.00250 0.02400
H 	H 	0.40160 0.05400 0.03050 -0.01600
C 	C 	0.37930 0.18513 0.95980 0.45200
C 	C 	0.25770 0.08600 0.07360 0.00600
H 	H 	0.25430 0.07510 0.01320 -0.00500
C 	C 	0.25610 0.12670 0.08150 -0.01300
H 	H 	0.25050 0.14280 0.02610 0.03900
C 	C 	0.26300 0.14300 0.17160 -0.10400
C 	C 	0.26650 0.11770 0.24890 -0.02800
H 	H 	0.26870 0.12800 0.30870 0.04800
C 	C 	0.26670 0.07700 0.23500 0.01800
H 	H 	0.26890 0.06020 0.28640 -0.01700
C 	C 	0.27380 0.18690 0.19510 0.46700
C 	C 	0.47000 0.07410 0.34980 0.01100
H 	H 	0.46610 0.05750 0.29660 -0.01900
C 	C 	0.46790 0.11420 0.33430 -0.01700
H 	H 	0.46450 0.12430 0.27320 0.04200
C 	C 	0.47100 0.13909 0.40870 -0.11700
C 	C 	0.47880 0.12240 0.50140 -0.01800
H 	H 	0.48160 0.13860 0.55450 0.03200
C 	C 	0.48230 0.08150 0.51330 0.00400
H 	H 	0.48850 0.07040 0.57560 -0.01700
C 	C 	0.45810 0.18360 0.38600 0.50400
C 	C 	0.32640 0.07140 0.57510 0.00300
H 	H 	0.34130 0.05150 0.54950 -0.01700
C 	C 	0.33930 0.10980 0.56330 -0.01900
H 	H 	0.36480 0.11550 0.53370 0.03500
C 	C 	0.31470 0.14050 0.59520 -0.13600
C 	C 	0.27880 0.12987 0.64240 0.00200
H 	H 	0.26210 0.14930 0.66660 0.01000
C 	C 	0.26870 0.09050 0.65230 0.00100
H 	H 	0.24360 0.08390 0.68190 -0.00700
C 	C 	0.32800 0.18286 0.58340 0.48400
C 	C 	0.16890 0.42370 0.60360 0.02100
H 	H 	0.17130 0.43250 0.54700 -0.01700
C 	C 	0.18070 0.38390 0.63220 -0.05100
H 	H 	0.19110 0.36640 0.59550 0.04500
C 	C 	0.17700 0.37040 0.71490 -0.06600
C 	C 	0.15820 0.39780 0.76210 -0.06900
H 	H 	0.15240 0.38990 0.81600 0.04900
C 	C 	0.14810 0.43620 0.72920 0.04200
H 	H 	0.13590 0.45410 0.76300 -0.04100
C 	C 	0.19500 0.32760 0.75680 0.39400
C 	C 	0.38150 0.41890 0.90830 -0.00900
H 	H 	0.38670 0.43430 0.86200 -0.00700
C 	C 	0.38960 0.37850 0.90920 0.00100
H 	H 	0.39900 0.36690 0.86280 0.03600
C 	C 	0.38370 0.35566 0.97830 -0.17300
C 	C 	0.36690 0.37360 0.04420 0.03300
H 	H 	0.36290 0.35880 0.09270 0.02600
C 	C 	0.35660 0.41390 0.03480 0.03300
H 	H 	0.34190 0.42600 0.07440 -0.01300
C 	C 	0.39320 0.31120 0.98420 0.47400
C 	C 	0.18900 0.40910 0.06420 0.02100
H 	H 	0.17810 0.42480 0.00410 0.00000
C 	C 	0.21920 0.37210 0.07930 -0.02700
H 	H 	0.22980 0.36340 0.03140 0.06200
C 	C 	0.23410 0.34741 0.16510 -0.11400
C 	C 	0.21450 0.36150 0.22840 -0.01100
H 	H 	0.22070 0.34530 0.28430 0.02900
C 	C 	0.18500 0.40000 0.21080 0.00800
H 	H 	0.17250 0.40910 0.25600 -0.00300
C 	C 	0.27520 0.30780 0.19240 0.49000
C 	C 	0.54210 0.39920 0.35800 0.02400
H 	H 	0.54360 0.40990 0.30200 -0.01000
C 	C 	0.51550 0.36130 0.34250 -0.04900
H 	H 	0.50010 0.34650 0.27810 0.04800
C 	C 	0.51180 0.34510 0.42370 -0.07700
C 	C 	0.53970 0.36710 0.52100 -0.06000
H 	H 	0.54120 0.35670 0.58010 0.06500
C 	C 	0.56570 0.40570 0.52820 0.04000
H 	H 	0.58380 0.42090 0.59340 -0.01800
C 	C 	0.47130 0.30430 0.40010 0.44700
C 	C 	0.38090 0.41090 0.48880 0.00600
H 	H 	0.39640 0.41690 0.44520 -0.00500
C 	C 	0.37910 0.37160 0.51360 -0.01100
H 	H 	0.39540 0.35170 0.48990 0.03500
C 	C 	0.35370 0.36237 0.57210 -0.12300
C 	C 	0.33570 0.39280 0.61440 -0.03200
H 	H 	0.32170 0.38740 0.66010 0.04200
C 	C 	0.33930 0.43100 0.58660 0.01400
H 	H 	0.32550 0.45150 0.61230 -0.02400
C 	C 	0.34240 0.31912 0.59210 0.51500
C 	C 	0.58960 0.56180 0.34440 0.05000
H 	H 	0.59660 0.54320 0.30590 -0.03400
C 	C 	0.59000 0.60350 0.32000 -0.09000
H 	H 	0.59830 0.61150 0.26910 0.06800
C 	C 	0.57790 0.62970 0.37330 -0.01200
C 	C 	0.56870 0.61610 0.45400 -0.09900
H 	H 	0.56220 0.63380 0.49490 0.06400
C 	C 	0.56970 0.57610 0.46960 0.05500
H 	H 	0.56260 0.56730 0.52120 -0.03200
C 	C 	0.57970 0.67360 0.35310 0.29000
Sm	Sm	0.80628 0.75733 0.73242 1.88300
Sm	Sm	0.87561 0.74524 0.14562 2.08600
Sm	Sm	0.86288 0.74615 0.44087 2.06400
Ag	Ag	0.97204 0.50558 0.94921 0.44200
Ag	Ag	0.77221 0.50093 0.63614 0.45900
Ag	Ag	0.86394 0.99941 0.98635 0.45300
Ag	Ag	0.65600 0.01300 0.63033 0.45800
Ag	Ag	0.07992 0.98563 0.44205 0.46400
O 	O 	0.86400 0.70794 0.88230 -0.55700
O 	O 	0.87250 0.69287 0.03460 -0.51700
O 	O 	0.77300 0.70820 0.12330 -0.51100
O 	O 	0.78550 0.69908 0.28250 -0.52000
O 	O 	0.94170 0.69440 0.29430 -0.54200
O 	O 	0.95640 0.70434 0.45310 -0.54200
O 	O 	0.85500 0.68982 0.53270 -0.53600
O 	O 	0.81290 0.70809 0.62880 -0.58100
O 	O 	0.71890 0.80535 0.71740 -0.50300
O 	O 	0.68950 0.81890 0.83050 -0.33900
O 	O 	0.89130 0.79510 0.90590 -0.52500
O 	O 	0.90250 0.79371 0.06320 -0.54700
O 	O 	0.79530 0.79869 0.13330 -0.50100
O 	O 	0.78750 0.78792 0.27210 -0.54900
O 	O 	0.95840 0.78384 0.31850 -0.53400
O 	O 	0.95560 0.79494 0.46450 -0.49300
O 	O 	0.84690 0.79359 0.53760 -0.60400
O 	O 	0.82710 0.81315 0.65710 -0.53900
O 	O 	0.08000 0.18380 0.27650 -0.27400
O 	O 	0.07850 0.19668 0.41990 -0.28900
N 	N 	0.94880 0.56652 0.95820 -0.21200
N 	N 	0.76390 0.56130 0.15050 -0.20000
N 	N 	0.97720 0.55770 0.43710 -0.20600
N 	N 	0.79320 0.56098 0.62160 -0.19600
N 	N 	0.65400 0.95020 0.65400 -0.21700
N 	N 	0.86640 0.93663 0.97180 -0.21500
N 	N 	0.67430 0.92409 0.13100 -0.18900
N 	N 	0.06640 0.92180 0.44940 -0.19900
N 	N 	0.86150 0.94029 0.52480 -0.20000
N 	N 	0.08010 0.04900 0.41690 -0.21900
C 	C 	0.96370 0.59660 0.91630 -0.01500
H 	H 	0.98880 0.59130 0.88590 -0.00200
C 	C 	0.94300 0.63510 0.91660 0.01100
H 	H 	0.95380 0.65530 0.88630 0.00900
C 	C 	0.90660 0.64362 0.96170 -0.18400
C 	C 	0.89330 0.61340 0.00790 0.03800
H 	H 	0.87110 0.61850 0.04270 0.02000
C 	C 	0.91330 0.57460 0.00250 0.02300
H 	H 	0.90160 0.55400 0.03050 -0.01700
C 	C 	0.87930 0.68513 0.95980 0.45200
C 	C 	0.75770 0.58600 0.07360 0.00700
H 	H 	0.75430 0.57510 0.01320 -0.00500
C 	C 	0.75610 0.62670 0.08150 -0.01300
H 	H 	0.75050 0.64280 0.02610 0.03900
C 	C 	0.76300 0.64300 0.17160 -0.10400
C 	C 	0.76650 0.61770 0.24890 -0.02800
H 	H 	0.76870 0.62800 0.30870 0.04800
C 	C 	0.76670 0.57700 0.23500 0.01800
H 	H 	0.76890 0.56020 0.28640 -0.01700
C 	C 	0.77380 0.68690 0.19510 0.46700
C 	C 	0.97000 0.57410 0.34980 0.01000
H 	H 	0.96610 0.55750 0.29660 -0.02000
C 	C 	0.96790 0.61420 0.33430 -0.01700
H 	H 	0.96450 0.62430 0.27320 0.04100
C 	C 	0.97100 0.63909 0.40870 -0.11800
C 	C 	0.97880 0.62240 0.50140 -0.01800
H 	H 	0.98160 0.63860 0.55450 0.03100
C 	C 	0.98230 0.58150 0.51330 0.00300
H 	H 	0.98850 0.57040 0.57560 -0.01800
C 	C 	0.95810 0.68360 0.38600 0.50400
C 	C 	0.82640 0.57140 0.57510 0.00300
H 	H 	0.84130 0.55150 0.54950 -0.01700
C 	C 	0.83930 0.60980 0.56330 -0.01900
H 	H 	0.86480 0.61550 0.53370 0.03500
C 	C 	0.81470 0.64050 0.59520 -0.13600
C 	C 	0.77880 0.62987 0.64240 0.00200
H 	H 	0.76210 0.64930 0.66660 0.01000
C 	C 	0.76870 0.59050 0.65230 0.00100
H 	H 	0.74360 0.58390 0.68190 -0.00800
C 	C 	0.82800 0.68286 0.58340 0.48300
C 	C 	0.66890 0.92370 0.60360 0.02000
H 	H 	0.67130 0.93250 0.54700 -0.01800
C 	C 	0.68070 0.88390 0.63220 -0.05100
H 	H 	0.69110 0.86640 0.59550 0.04500
C 	C 	0.67700 0.87040 0.71490 -0.06600
C 	C 	0.65820 0.89780 0.76210 -0.06900
H 	H 	0.65240 0.88990 0.81600 0.04800
C 	C 	0.64810 0.93620 0.72920 0.04100
H 	H 	0.63590 0.95410 0.76300 -0.04200
C 	C 	0.69500 0.82760 0.75680 0.39400
C 	C 	0.88150 0.91890 0.90830 -0.01000
H 	H 	0.88670 0.93430 0.86200 -0.00800
C 	C 	0.88960 0.87850 0.90920 0.00100
H 	H 	0.89900 0.86690 0.86280 0.03500
C 	C 	0.88370 0.85566 0.97830 -0.17400
C 	C 	0.86690 0.87360 0.04420 0.03200
H 	H 	0.86290 0.85880 0.09270 0.02600
C 	C 	0.85660 0.91390 0.03480 0.03200
H 	H 	0.84190 0.92600 0.07440 -0.01300
C 	C 	0.89320 0.81120 0.98420 0.47400
C 	C 	0.68900 0.90910 0.06420 0.02000
H 	H 	0.67810 0.92480 0.00410 0.00000
C 	C 	0.71920 0.87210 0.07930 -0.02800
H 	H 	0.72980 0.86340 0.03140 0.06100
C 	C 	0.73410 0.84741 0.16510 -0.11400
C 	C 	0.71450 0.86150 0.22840 -0.01100
H 	H 	0.72070 0.84530 0.28430 0.02900
C 	C 	0.68500 0.90000 0.21080 0.00800
H 	H 	0.67250 0.90910 0.25600 -0.00400
C 	C 	0.77520 0.80780 0.19240 0.48900
C 	C 	0.04210 0.89920 0.35800 0.02700
H 	H 	0.04360 0.90990 0.30200 -0.01000
C 	C 	0.01550 0.86130 0.34250 -0.05300
H 	H 	0.00010 0.84650 0.27810 0.05100
C 	C 	0.01180 0.84510 0.42370 -0.07000
C 	C 	0.03970 0.86710 0.52100 -0.06300
H 	H 	0.04120 0.85670 0.58010 0.06700
C 	C 	0.06570 0.90570 0.52820 0.04300
H 	H 	0.08380 0.92090 0.59340 -0.01800
C 	C 	0.97130 0.80430 0.40010 0.44100
C 	C 	0.88090 0.91090 0.48880 0.00600
H 	H 	0.89640 0.91690 0.44520 -0.00600
C 	C 	0.87910 0.87160 0.51360 -0.01200
H 	H 	0.89540 0.85170 0.48990 0.03400
C 	C 	0.85370 0.86237 0.57210 -0.12400
C 	C 	0.83570 0.89280 0.61440 -0.03200
H 	H 	0.82170 0.88740 0.66010 0.04200
C 	C 	0.83930 0.93100 0.58660 0.01400
H 	H 	0.82550 0.95150 0.61230 -0.02400
C 	C 	0.84240 0.81912 0.59210 0.51400
C 	C 	0.08960 0.06180 0.34440 0.05100
H 	H 	0.09660 0.04320 0.30590 -0.03400
C 	C 	0.09000 0.10350 0.32000 -0.09000
H 	H 	0.09830 0.11150 0.26910 0.06800
C 	C 	0.07790 0.12970 0.37330 -0.01100
C 	C 	0.06870 0.11610 0.45400 -0.09900
H 	H 	0.06220 0.13380 0.49490 0.06500
C 	C 	0.06970 0.07610 0.46960 0.05600
H 	H 	0.06260 0.06730 0.52120 -0.03100
C 	C 	0.07970 0.17360 0.35310 0.29000
Sm	Sm	0.30628 0.74267 0.23242 1.91900
Sm	Sm	0.37561 0.75476 0.64562 2.07600
Sm	Sm	0.36288 0.75385 0.94087 1.99700
Ag	Ag	0.47204 0.99442 0.44921 0.45900
Ag	Ag	0.27221 0.99907 0.13614 0.47000
Ag	Ag	0.36394 0.50059 0.48635 0.47400
Ag	Ag	0.15600 0.48700 0.13033 0.46900
Ag	Ag	0.57992 0.51437 0.94205 0.44700
O 	O 	0.36400 0.79206 0.38230 -0.56000
O 	O 	0.37250 0.80713 0.53460 -0.55300
O 	O 	0.27300 0.79180 0.62330 -0.51600
O 	O 	0.28550 0.80092 0.78250 -0.52200
O 	O 	0.44170 0.80560 0.79430 -0.54700
O 	O 	0.45640 0.79566 0.95310 -0.55200
O 	O 	0.35500 0.81018 0.03270 -0.50800
O 	O 	0.31290 0.79191 0.12880 -0.57500
O 	O 	0.21890 0.69465 0.21740 -0.49700
O 	O 	0.18950 0.68110 0.33050 -0.32200
O 	O 	0.39130 0.70490 0.40590 -0.53100
O 	O 	0.40250 0.70629 0.56320 -0.58500
O 	O 	0.29530 0.70131 0.63330 -0.50500
O 	O 	0.28750 0.71208 0.77210 -0.54700
O 	O 	0.45840 0.71616 0.81850 -0.53900
O 	O 	0.45560 0.70506 0.96450 -0.50000
O 	O 	0.34690 0.70641 0.03760 -0.58600
O 	O 	0.32710 0.68685 0.15710 -0.54800
O 	O 	0.58000 0.31620 0.77650 -0.29200
O 	O 	0.57850 0.30332 0.91990 -0.30700
N 	N 	0.44880 0.93348 0.45820 -0.19100
N 	N 	0.26390 0.93870 0.65050 -0.20400
N 	N 	0.47720 0.94230 0.93710 -0.22300
N 	N 	0.29320 0.93902 0.12160 -0.19300
N 	N 	0.15400 0.54980 0.15400 -0.21300
N 	N 	0.36640 0.56337 0.47180 -0.19500
N 	N 	0.17430 0.57591 0.63100 -0.19100
N 	N 	0.56640 0.57820 0.94940 -0.21800
N 	N 	0.36150 0.55971 0.02480 -0.13000
N 	N 	0.58010 0.45100 0.91690 -0.20400
C 	C 	0.46370 0.90340 0.41630 0.00500
H 	H 	0.48880 0.90870 0.38590 0.00100
C 	C 	0.44300 0.86490 0.41660 -0.00400
H 	H 	0.45380 0.84470 0.38630 0.02000
C 	C 	0.40660 0.85638 0.46170 -0.13600
C 	C 	0.39330 0.88660 0.50790 -0.01700
H 	H 	0.37110 0.88150 0.54270 0.03300
C 	C 	0.41330 0.92540 0.50250 0.00100
H 	H 	0.40160 0.94600 0.53050 -0.01800
C 	C 	0.37930 0.81487 0.45980 0.49100
C 	C 	0.25770 0.91400 0.57360 0.00000
H 	H 	0.25430 0.92490 0.51320 -0.01200
C 	C 	0.25610 0.87330 0.58150 -0.01300
H 	H 	0.25050 0.85720 0.52610 0.03100
C 	C 	0.26300 0.85700 0.67160 -0.11000
C 	C 	0.26650 0.88230 0.74890 -0.02700
H 	H 	0.26870 0.87200 0.80870 0.03800
C 	C 	0.26670 0.92300 0.73500 0.01300
H 	H 	0.26890 0.93980 0.78640 -0.02500
C 	C 	0.27380 0.81310 0.69510 0.46500
C 	C 	0.47000 0.92590 0.84980 -0.01300
H 	H 	0.46610 0.94250 0.79660 -0.01600
C 	C 	0.46790 0.88580 0.83430 0.00900
H 	H 	0.46450 0.87570 0.77320 0.02900
C 	C 	0.47100 0.86091 0.90870 -0.17700
C 	C 	0.47880 0.87760 0.00140 0.04300
H 	H 	0.48160 0.86140 0.05450 0.02200
C 	C 	0.48230 0.91850 0.01330 0.02300
H 	H 	0.48850 0.92960 0.07560 -0.01500
C 	C 	0.45810 0.81640 0.88600 0.51600
C 	C 	0.32640 0.92860 0.07510 0.01000
H 	H 	0.34130 0.94850 0.04950 -0.01100
C 	C 	0.33930 0.89020 0.06330 -0.01700
H 	H 	0.36480 0.88450 0.03370 0.04300
C 	C 	0.31470 0.85950 0.09520 -0.12600
C 	C 	0.27880 0.87013 0.14240 0.00300
H 	H 	0.26210 0.85070 0.16660 0.01700
C 	C 	0.26870 0.90950 0.15230 0.00800
H 	H 	0.24360 0.91610 0.18190 0.00100
C 	C 	0.32800 0.81714 0.08340 0.48200
C 	C 	0.16890 0.57630 0.10360 0.02800
H 	H 	0.17130 0.56750 0.04700 -0.01100
C 	C 	0.18070 0.61610 0.13220 -0.05100
H 	H 	0.19110 0.63360 0.09550 0.05200
C 	C 	0.17700 0.62960 0.21490 -0.05600
C 	C 	0.15820 0.60220 0.26210 -0.07000
H 	H 	0.15240 0.61010 0.31600 0.06000
C 	C 	0.14810 0.56380 0.22920 0.04900
H 	H 	0.13590 0.54590 0.26300 -0.03500
C 	C 	0.19500 0.67240 0.25680 0.39300
C 	C 	0.38150 0.58110 0.40830 0.00700
H 	H 	0.38670 0.56570 0.36200 -0.00900
C 	C 	0.38960 0.62150 0.40920 -0.01300
H 	H 	0.39900 0.63310 0.36280 0.04200
C 	C 	0.38370 0.64434 0.47830 -0.13300
C 	C 	0.36690 0.62640 0.54420 -0.01600
H 	H 	0.36290 0.64120 0.59270 0.03800
C 	C 	0.35660 0.58610 0.53480 0.00600
H 	H 	0.34190 0.57400 0.57440 -0.01200
C 	C 	0.39320 0.68880 0.48420 0.51600
C 	C 	0.18900 0.59090 0.56420 0.01500
H 	H 	0.17810 0.57520 0.50410 -0.01000
C 	C 	0.21920 0.62790 0.57930 -0.02800
H 	H 	0.22980 0.63660 0.53140 0.05200
C 	C 	0.23410 0.65259 0.66510 -0.12100
C 	C 	0.21450 0.63850 0.72840 -0.01100
H 	H 	0.22070 0.65470 0.78430 0.02000
C 	C 	0.18500 0.60000 0.71080 0.00300
H 	H 	0.17250 0.59090 0.75600 -0.00900
C 	C 	0.27520 0.69220 0.69240 0.48700
C 	C 	0.54210 0.60080 0.85800 -0.00100
H 	H 	0.54360 0.59010 0.80200 -0.01000
C 	C 	0.51550 0.63870 0.84250 -0.02400
H 	H 	0.50010 0.65350 0.77810 0.03300
C 	C 	0.51180 0.65490 0.92370 -0.13900
C 	C 	0.53970 0.63290 0.02100 0.00500
H 	H 	0.54120 0.64330 0.08010 0.05400
C 	C 	0.56570 0.59430 0.02820 0.06000
H 	H 	0.58380 0.57910 0.09340 -0.01500
C 	C 	0.47130 0.69570 0.90010 0.46000
C 	C 	0.38090 0.58910 0.98880 -0.19800
H 	H 	0.39640 0.58310 0.94520 0.05500
C 	C 	0.37910 0.62840 0.01360 0.23900
H 	H 	0.39540 0.64830 0.98990 -0.07800
C 	C 	0.35370 0.63763 0.07210 -0.23200
C 	C 	0.33570 0.60720 0.11440 0.05400
H 	H 	0.32170 0.61260 0.16010 0.01400
C 	C 	0.33930 0.56900 0.08660 -0.03400
H 	H 	0.32550 0.54850 0.11230 -0.00100
C 	C 	0.34240 0.68088 0.09210 0.55400
C 	C 	0.58960 0.43820 0.84440 0.03100
H 	H 	0.59660 0.45680 0.80590 -0.03600
C 	C 	0.59000 0.39650 0.82000 -0.07100
H 	H 	0.59830 0.38850 0.76910 0.05600
C 	C 	0.57790 0.37030 0.87330 -0.04800
C 	C 	0.56870 0.38390 0.95400 -0.03900
H 	H 	0.56220 0.36620 0.99490 0.03300
C 	C 	0.56970 0.42390 0.96960 -0.05500
H 	H 	0.56260 0.43270 0.02120 0.04000
C 	C 	0.57970 0.32640 0.85310 0.30100
Sm	Sm	0.80628 0.24267 0.23242 1.91700
Sm	Sm	0.87561 0.25476 0.64562 2.07300
Sm	Sm	0.86288 0.25385 0.94087 1.99400
Ag	Ag	0.97204 0.49442 0.44921 0.45800
Ag	Ag	0.77221 0.49907 0.13614 0.47000
Ag	Ag	0.86394 0.00059 0.48635 0.47400
Ag	Ag	0.65600 0.98700 0.13033 0.46800
Ag	Ag	0.07992 0.01437 0.94205 0.44800
O 	O 	0.86400 0.29206 0.38230 -0.56100
O 	O 	0.87250 0.30713 0.53460 -0.55300
O 	O 	0.77300 0.29180 0.62330 -0.51600
O 	O 	0.78550 0.30092 0.78250 -0.52200
O 	O 	0.94170 0.30560 0.79430 -0.54700
O 	O 	0.95640 0.29566 0.95310 -0.55300
O 	O 	0.85500 0.31018 0.03270 -0.50800
O 	O 	0.81290 0.29191 0.12880 -0.57400
O 	O 	0.71890 0.19465 0.21740 -0.49800
O 	O 	0.68950 0.18110 0.33050 -0.32200
O 	O 	0.89130 0.20490 0.40590 -0.53200
O 	O 	0.90250 0.20629 0.56320 -0.58600
O 	O 	0.79530 0.20131 0.63330 -0.50500
O 	O 	0.78750 0.21208 0.77210 -0.54700
O 	O 	0.95840 0.21616 0.81850 -0.53900
O 	O 	0.95560 0.20506 0.96450 -0.50000
O 	O 	0.84690 0.20641 0.03760 -0.58600
O 	O 	0.82710 0.18685 0.15710 -0.54800
O 	O 	0.08000 0.81620 0.77650 -0.29000
O 	O 	0.07850 0.80332 0.91990 -0.30500
N 	N 	0.94880 0.43348 0.45820 -0.19200
N 	N 	0.76390 0.43870 0.65050 -0.20400
N 	N 	0.97720 0.44230 0.93710 -0.22400
N 	N 	0.79320 0.43902 0.12160 -0.19300
N 	N 	0.65400 0.04980 0.15400 -0.21400
N 	N 	0.86640 0.06337 0.47180 -0.19600
N 	N 	0.67430 0.07591 0.63100 -0.19200
N 	N 	0.06640 0.07820 0.94940 -0.21800
N 	N 	0.86150 0.05971 0.02480 -0.13000
N 	N 	0.08010 0.95100 0.91690 -0.20400
C 	C 	0.96370 0.40340 0.41630 0.00400
H 	H 	0.98880 0.40870 0.38590 -0.00000
C 	C 	0.94300 0.36490 0.41660 -0.00400
H 	H 	0.95380 0.34470 0.38630 0.01900
C 	C 	0.90660 0.35638 0.46170 -0.13600
C 	C 	0.89330 0.38660 0.50790 -0.01700
H 	H 	0.87110 0.38150 0.54270 0.03300
C 	C 	0.91330 0.42540 0.50250 -0.00000
H 	H 	0.90160 0.44600 0.53050 -0.01900
C 	C 	0.87930 0.31487 0.45980 0.49100
C 	C 	0.75770 0.41400 0.57360 0.00000
H 	H 	0.75430 0.42490 0.51320 -0.01200
C 	C 	0.75610 0.37330 0.58150 -0.01300
H 	H 	0.75050 0.35720 0.52610 0.03100
C 	C 	0.76300 0.35700 0.67160 -0.11000
C 	C 	0.76650 0.38230 0.74890 -0.02700
H 	H 	0.76870 0.37200 0.80870 0.03800
C 	C 	0.76670 0.42300 0.73500 0.01300
H 	H 	0.76890 0.43980 0.78640 -0.02500
C 	C 	0.77380 0.31310 0.69510 0.46500
C 	C 	0.97000 0.42590 0.84980 -0.01400
H 	H 	0.96610 0.44250 0.79660 -0.01700
C 	C 	0.96790 0.38580 0.83430 0.00900
H 	H 	0.96450 0.37570 0.77320 0.02800
C 	C 	0.97100 0.36091 0.90870 -0.17800
C 	C 	0.97880 0.37760 0.00140 0.04300
H 	H 	0.98160 0.36140 0.05450 0.02100
C 	C 	0.98230 0.41850 0.01330 0.02300
H 	H 	0.98850 0.42960 0.07560 -0.01600
C 	C 	0.95810 0.31640 0.88600 0.51600
C 	C 	0.82640 0.42860 0.07510 0.01000
H 	H 	0.84130 0.44850 0.04950 -0.01100
C 	C 	0.83930 0.39020 0.06330 -0.01800
H 	H 	0.86480 0.38450 0.03370 0.04300
C 	C 	0.81470 0.35950 0.09520 -0.12600
C 	C 	0.77880 0.37013 0.14240 0.00300
H 	H 	0.76210 0.35070 0.16660 0.01700
C 	C 	0.76870 0.40950 0.15230 0.00900
H 	H 	0.74360 0.41610 0.18190 0.00100
C 	C 	0.82800 0.31714 0.08340 0.48200
C 	C 	0.66890 0.07630 0.10360 0.02700
H 	H 	0.67130 0.06750 0.04700 -0.01100
C 	C 	0.68070 0.11610 0.13220 -0.05100
H 	H 	0.69110 0.13360 0.09550 0.05200
C 	C 	0.67700 0.12960 0.21490 -0.05700
C 	C 	0.65820 0.10220 0.26210 -0.07000
H 	H 	0.65240 0.11010 0.31600 0.05900
C 	C 	0.64810 0.06380 0.22920 0.04900
H 	H 	0.63590 0.04590 0.26300 -0.03600
C 	C 	0.69500 0.17240 0.25680 0.39300
C 	C 	0.88150 0.08110 0.40830 0.00700
H 	H 	0.88670 0.06570 0.36200 -0.01000
C 	C 	0.88960 0.12150 0.40920 -0.01400
H 	H 	0.89900 0.13310 0.36280 0.04100
C 	C 	0.88370 0.14434 0.47830 -0.13400
C 	C 	0.86690 0.12640 0.54420 -0.01600
H 	H 	0.86290 0.14120 0.59270 0.03700
C 	C 	0.85660 0.08610 0.53480 0.00500
H 	H 	0.84190 0.07400 0.57440 -0.01300
C 	C 	0.89320 0.18880 0.48420 0.51500
C 	C 	0.68900 0.09090 0.56420 0.01400
H 	H 	0.67810 0.07520 0.50410 -0.01000
C 	C 	0.71920 0.12790 0.57930 -0.02900
H 	H 	0.72980 0.13660 0.53140 0.05200
C 	C 	0.73410 0.15259 0.66510 -0.12100
C 	C 	0.71450 0.13850 0.72840 -0.01100
H 	H 	0.72070 0.15470 0.78430 0.01900
C 	C 	0.68500 0.10000 0.71080 0.00200
H 	H 	0.67250 0.09090 0.75600 -0.00900
C 	C 	0.77520 0.19220 0.69240 0.48600
C 	C 	0.04210 0.10080 0.85800 0.00300
H 	H 	0.04360 0.09010 0.80200 -0.01000
C 	C 	0.01550 0.13870 0.84250 -0.02900
H 	H 	0.00010 0.15350 0.77810 0.03700
C 	C 	0.01180 0.15490 0.92370 -0.12900
C 	C 	0.03970 0.13290 0.02100 -0.00000
H 	H 	0.04120 0.14330 0.08010 0.05700
C 	C 	0.06570 0.09430 0.02820 0.06300
H 	H 	0.08380 0.07910 0.09340 -0.01600
C 	C 	0.97130 0.19570 0.90010 0.45300
C 	C 	0.88090 0.08910 0.98880 -0.19900
H 	H 	0.89640 0.08310 0.94520 0.05400
C 	C 	0.87910 0.12840 0.01360 0.24000
H 	H 	0.89540 0.14830 0.98990 -0.08000
C 	C 	0.85370 0.13763 0.07210 -0.23300
C 	C 	0.83570 0.10720 0.11440 0.05400
H 	H 	0.82170 0.11260 0.16010 0.01400
C 	C 	0.83930 0.06900 0.08660 -0.03500
H 	H 	0.82550 0.04850 0.11230 -0.00100
C 	C 	0.84240 0.18088 0.09210 0.55300
C 	C 	0.08960 0.93820 0.84440 0.03200
H 	H 	0.09660 0.95680 0.80590 -0.03600
C 	C 	0.09000 0.89650 0.82000 -0.07200
H 	H 	0.09830 0.88850 0.76910 0.05700
C 	C 	0.07790 0.87030 0.87330 -0.04600
C 	C 	0.06870 0.88390 0.95400 -0.04100
H 	H 	0.06220 0.86620 0.99490 0.03500
C 	C 	0.06970 0.92390 0.96960 -0.05000
H 	H 	0.06260 0.93270 0.02120 0.03800
C 	C 	0.07970 0.82640 0.85310 0.30000
