data_crystal

_cell_length_a 11.92800
_cell_length_b 18.25300
_cell_length_c 18.66000
_cell_angle_alpha 90.00000
_cell_angle_beta  90.00000
_cell_angle_gamma 90.00000

_symmetry_space_group_name_	'P 1'
_symmetry_space_group_name_H-M	'P 1'

loop_
_symmetry_equiv_pos_as_xyz
  x,y,z

loop_
_atom_site_label
_atom_site_type_symbol
_atom_site_fract_x
_atom_site_fract_y
_atom_site_fract_z
_atom_site_charge
Cu	Cu	0.08729 0.28042 0.27143 0.92500
Cu	Cu	0.92887 0.20852 0.20240 0.89900
Cu	Cu	0.08729 0.71958 0.72857 0.92600
Cu	Cu	0.92887 0.79148 0.79760 0.90000
Cu	Cu	0.91271 0.21958 0.77143 0.92600
Cu	Cu	0.07113 0.29148 0.70240 0.90000
Cu	Cu	0.91271 0.78042 0.22857 0.92600
Cu	Cu	0.07113 0.70852 0.29760 0.90000
H 	H 	0.95320 0.49660 0.25180 0.06300
H 	H 	0.67320 0.38350 0.19580 0.09700
H 	H 	0.66010 0.60190 0.21170 0.09600
H 	H 	0.48580 0.56960 0.25270 0.04600
H 	H 	0.47950 0.58430 0.16790 0.04300
H 	H 	0.33140 0.49540 0.16060 0.05400
H 	H 	0.29690 0.56580 0.20690 0.04200
H 	H 	0.16990 0.51470 0.27470 0.06100
H 	H 	0.17840 0.44000 0.23000 0.07400
H 	H 	0.10320 0.42960 0.35190 0.01800
H 	H 	0.22870 0.44310 0.37910 0.02600
H 	H 	0.03060 0.25610 0.99050 0.06300
H 	H 	0.29920 0.34230 0.09400 0.09300
H 	H 	0.28940 0.34270 0.87610 0.08800
H 	H 	0.45210 0.43150 0.06430 0.03200
H 	H 	0.48270 0.34600 0.06730 0.04000
H 	H 	0.64250 0.41870 0.05650 0.05200
H 	H 	0.59560 0.45150 0.98330 0.05700
H 	H 	0.79700 0.32680 0.93430 0.06600
H 	H 	0.79670 0.33550 0.01810 0.05900
H 	H 	0.78590 0.22060 0.03580 0.01000
H 	H 	0.86190 0.22690 0.96380 0.00900
H 	H 	0.26940 0.34320 0.30960 0.24400
H 	H 	0.71710 0.21840 0.90270 0.23600
H 	H 	0.95320 0.50340 0.74820 0.06300
H 	H 	0.67320 0.61650 0.80420 0.09700
H 	H 	0.66010 0.39810 0.78830 0.09600
H 	H 	0.48580 0.43040 0.74730 0.04600
H 	H 	0.47950 0.41570 0.83210 0.04300
H 	H 	0.33140 0.50460 0.83940 0.05400
H 	H 	0.29690 0.43420 0.79310 0.04200
H 	H 	0.16990 0.48530 0.72530 0.06100
H 	H 	0.17840 0.56000 0.77000 0.07400
H 	H 	0.10320 0.57040 0.64810 0.01800
H 	H 	0.22870 0.55690 0.62090 0.02600
H 	H 	0.03060 0.74390 0.00950 0.06300
H 	H 	0.29920 0.65770 0.90600 0.09300
H 	H 	0.28940 0.65730 0.12390 0.08800
H 	H 	0.45210 0.56850 0.93570 0.03200
H 	H 	0.48270 0.65400 0.93270 0.04000
H 	H 	0.64250 0.58130 0.94350 0.05200
H 	H 	0.59560 0.54850 0.01670 0.05700
H 	H 	0.79700 0.67320 0.06570 0.06600
H 	H 	0.79670 0.66450 0.98190 0.05900
H 	H 	0.78590 0.77940 0.96420 0.01000
H 	H 	0.86190 0.77310 0.03620 0.00900
H 	H 	0.26940 0.65680 0.69040 0.24400
H 	H 	0.71710 0.78160 0.09730 0.23600
H 	H 	0.04680 0.00340 0.75180 0.06200
H 	H 	0.32680 0.11650 0.69580 0.09700
H 	H 	0.33990 0.89810 0.71170 0.09600
H 	H 	0.51420 0.93040 0.75270 0.04500
H 	H 	0.52050 0.91570 0.66790 0.04300
H 	H 	0.66860 0.00460 0.66060 0.05500
H 	H 	0.70310 0.93420 0.70690 0.04200
H 	H 	0.83010 0.98530 0.77470 0.06100
H 	H 	0.82160 0.06000 0.73000 0.07400
H 	H 	0.89680 0.07040 0.85190 0.01900
H 	H 	0.77130 0.05690 0.87910 0.02700
H 	H 	0.96940 0.24390 0.49050 0.06400
H 	H 	0.70080 0.15770 0.59400 0.09300
H 	H 	0.71060 0.15730 0.37610 0.08800
H 	H 	0.54790 0.06850 0.56430 0.03200
H 	H 	0.51730 0.15400 0.56730 0.04000
H 	H 	0.35750 0.08130 0.55650 0.05200
H 	H 	0.40440 0.04850 0.48330 0.05600
H 	H 	0.20300 0.17320 0.43430 0.06500
H 	H 	0.20330 0.16450 0.51810 0.05800
H 	H 	0.21410 0.27940 0.53580 0.01000
H 	H 	0.13810 0.27310 0.46380 0.00900
H 	H 	0.73060 0.15680 0.80960 0.24400
H 	H 	0.28290 0.28160 0.40270 0.23600
H 	H 	0.04680 0.99660 0.24820 0.06200
H 	H 	0.32680 0.88350 0.30420 0.09700
H 	H 	0.33990 0.10190 0.28830 0.09600
H 	H 	0.51420 0.06960 0.24730 0.04500
H 	H 	0.52050 0.08430 0.33210 0.04300
H 	H 	0.66860 0.99540 0.33940 0.05500
H 	H 	0.70310 0.06580 0.29310 0.04200
H 	H 	0.83010 0.01470 0.22530 0.06100
H 	H 	0.82160 0.94000 0.27000 0.07400
H 	H 	0.89680 0.92960 0.14810 0.01900
H 	H 	0.77130 0.94310 0.12090 0.02700
H 	H 	0.96940 0.75610 0.50950 0.06400
H 	H 	0.70080 0.84230 0.40600 0.09300
H 	H 	0.71060 0.84270 0.62390 0.08800
H 	H 	0.54790 0.93150 0.43570 0.03200
H 	H 	0.51730 0.84600 0.43270 0.04000
H 	H 	0.35750 0.91870 0.44350 0.05200
H 	H 	0.40440 0.95150 0.51670 0.05600
H 	H 	0.20300 0.82680 0.56570 0.06500
H 	H 	0.20330 0.83550 0.48190 0.05800
H 	H 	0.21410 0.72060 0.46420 0.01000
H 	H 	0.13810 0.72690 0.53620 0.00900
H 	H 	0.73060 0.84320 0.19040 0.24400
H 	H 	0.28290 0.71840 0.59730 0.23600
C 	C 	0.81700 0.55830 0.23410 -0.02700
C 	C 	0.87640 0.49490 0.23860 -0.01800
C 	C 	0.82600 0.42670 0.22400 -0.03100
C 	C 	0.71020 0.42810 0.20690 -0.11300
C 	C 	0.64920 0.49310 0.20580 0.18000
C 	C 	0.70060 0.55730 0.21620 -0.12700
C 	C 	0.87530 0.62980 0.24360 0.32800
C 	C 	0.88830 0.35750 0.22430 0.32300
C 	C 	0.46690 0.54730 0.20590 0.01500
C 	C 	0.34690 0.52250 0.20540 -0.01400
C 	C 	0.20780 0.46660 0.27220 -0.08400
C 	C 	0.18320 0.42350 0.33920 0.10900
C 	C 	0.15160 0.29830 0.92090 -0.04400
C 	C 	0.10130 0.27990 0.98830 -0.02100
C 	C 	0.15890 0.29760 0.05000 -0.02000
C 	C 	0.26170 0.33200 0.05020 -0.12000
C 	C 	0.30920 0.35130 0.98530 0.17000
C 	C 	0.25430 0.33200 0.92060 -0.09500
C 	C 	0.09150 0.28310 0.85560 0.33300
C 	C 	0.10660 0.27470 0.12070 0.32100
C 	C 	0.48260 0.39000 0.03630 0.04600
C 	C 	0.59800 0.40680 0.01300 -0.03200
C 	C 	0.75700 0.31130 0.97800 -0.05100
C 	C 	0.78800 0.23780 0.98600 0.12400
C 	C 	0.81700 0.44170 0.76590 -0.02700
C 	C 	0.87640 0.50510 0.76140 -0.01800
C 	C 	0.82600 0.57330 0.77600 -0.03100
C 	C 	0.71020 0.57190 0.79310 -0.11300
C 	C 	0.64920 0.50690 0.79420 0.18000
C 	C 	0.70060 0.44270 0.78380 -0.12700
C 	C 	0.87530 0.37020 0.75640 0.32800
C 	C 	0.88830 0.64250 0.77570 0.32300
C 	C 	0.46690 0.45270 0.79410 0.01500
C 	C 	0.34690 0.47750 0.79460 -0.01400
C 	C 	0.20780 0.53340 0.72780 -0.08400
C 	C 	0.18320 0.57650 0.66080 0.10900
C 	C 	0.15160 0.70170 0.07910 -0.04400
C 	C 	0.10130 0.72010 0.01170 -0.02100
C 	C 	0.15890 0.70240 0.95000 -0.02000
C 	C 	0.26170 0.66800 0.94980 -0.12000
C 	C 	0.30920 0.64870 0.01470 0.17000
C 	C 	0.25430 0.66800 0.07940 -0.09500
C 	C 	0.09150 0.71690 0.14440 0.33300
C 	C 	0.10660 0.72530 0.87930 0.32100
C 	C 	0.48260 0.61000 0.96370 0.04600
C 	C 	0.59800 0.59320 0.98700 -0.03200
C 	C 	0.75700 0.68870 0.02200 -0.05100
C 	C 	0.78800 0.76220 0.01400 0.12400
C 	C 	0.18300 0.94170 0.73410 -0.02800
C 	C 	0.12360 0.00510 0.73860 -0.01800
C 	C 	0.17400 0.07330 0.72400 -0.03100
C 	C 	0.28980 0.07190 0.70690 -0.11200
C 	C 	0.35080 0.00690 0.70580 0.18000
C 	C 	0.29940 0.94270 0.71620 -0.12700
C 	C 	0.12470 0.87020 0.74360 0.32800
C 	C 	0.11170 0.14250 0.72430 0.32400
C 	C 	0.53310 0.95270 0.70590 0.01500
C 	C 	0.65310 0.97750 0.70540 -0.01500
C 	C 	0.79220 0.03340 0.77220 -0.08300
C 	C 	0.81680 0.07650 0.83920 0.10800
C 	C 	0.84840 0.20170 0.42090 -0.04300
C 	C 	0.89870 0.22010 0.48830 -0.02200
C 	C 	0.84110 0.20240 0.55000 -0.02000
C 	C 	0.73830 0.16800 0.55020 -0.12000
C 	C 	0.69080 0.14870 0.48530 0.17000
C 	C 	0.74570 0.16800 0.42060 -0.09500
C 	C 	0.90850 0.21690 0.35560 0.33200
C 	C 	0.89340 0.22530 0.62070 0.32100
C 	C 	0.51740 0.11000 0.53630 0.04600
C 	C 	0.40200 0.09320 0.51300 -0.03100
C 	C 	0.24300 0.18870 0.47800 -0.05100
C 	C 	0.21200 0.26220 0.48600 0.12400
C 	C 	0.18300 0.05830 0.26590 -0.02800
C 	C 	0.12360 0.99490 0.26140 -0.01800
C 	C 	0.17400 0.92670 0.27600 -0.03100
C 	C 	0.28980 0.92810 0.29310 -0.11200
C 	C 	0.35080 0.99310 0.29420 0.18000
C 	C 	0.29940 0.05730 0.28380 -0.12700
C 	C 	0.12470 0.12980 0.25640 0.32800
C 	C 	0.11170 0.85750 0.27570 0.32400
C 	C 	0.53310 0.04730 0.29410 0.01500
C 	C 	0.65310 0.02250 0.29460 -0.01500
C 	C 	0.79220 0.96660 0.22780 -0.08300
C 	C 	0.81680 0.92350 0.16080 0.10800
C 	C 	0.84840 0.79830 0.57910 -0.04300
C 	C 	0.89870 0.77990 0.51170 -0.02200
C 	C 	0.84110 0.79760 0.45000 -0.02000
C 	C 	0.73830 0.83200 0.44980 -0.12000
C 	C 	0.69080 0.85130 0.51470 0.17000
C 	C 	0.74570 0.83200 0.57940 -0.09500
C 	C 	0.90850 0.78310 0.64440 0.33200
C 	C 	0.89340 0.77470 0.37930 0.32100
C 	C 	0.51740 0.89000 0.46370 0.04600
C 	C 	0.40200 0.90680 0.48700 -0.03100
C 	C 	0.24300 0.81130 0.52200 -0.05100
C 	C 	0.21200 0.73780 0.51400 0.12400
O 	O 	0.84680 0.30240 0.19740 -0.39500
O 	O 	0.98590 0.36300 0.25590 -0.38000
O 	O 	0.96710 0.62660 0.27960 -0.39700
O 	O 	0.83090 0.68770 0.22290 -0.39200
O 	O 	0.53480 0.48460 0.19350 -0.21100
O 	O 	0.32420 0.47700 0.26460 -0.15000
O 	O 	0.20710 0.34700 0.33040 -0.45400
O 	O 	0.14050 0.30540 0.79690 -0.38800
O 	O 	0.00210 0.24890 0.85500 -0.39500
O 	O 	0.01700 0.23900 0.11840 -0.40100
O 	O 	0.15360 0.29950 0.17760 -0.38400
O 	O 	0.41700 0.37780 0.97750 -0.21600
O 	O 	0.65620 0.35080 0.97400 -0.13900
O 	O 	0.70220 0.21300 0.94650 -0.34400
O 	O 	0.84680 0.69760 0.80260 -0.39500
O 	O 	0.98590 0.63700 0.74410 -0.38000
O 	O 	0.96710 0.37340 0.72040 -0.39700
O 	O 	0.83090 0.31230 0.77710 -0.39200
O 	O 	0.53480 0.51540 0.80650 -0.21100
O 	O 	0.32420 0.52300 0.73540 -0.15000
O 	O 	0.20710 0.65300 0.66960 -0.45400
O 	O 	0.14050 0.69460 0.20310 -0.38800
O 	O 	0.00210 0.75110 0.14500 -0.39500
O 	O 	0.01700 0.76100 0.88160 -0.40100
O 	O 	0.15360 0.70050 0.82240 -0.38400
O 	O 	0.41700 0.62220 0.02250 -0.21600
O 	O 	0.65620 0.64920 0.02600 -0.13900
O 	O 	0.70220 0.78700 0.05350 -0.34400
O 	O 	0.15320 0.19760 0.69740 -0.39500
O 	O 	0.01410 0.13700 0.75590 -0.38100
O 	O 	0.03290 0.87340 0.77960 -0.39800
O 	O 	0.16910 0.81230 0.72290 -0.39200
O 	O 	0.46520 0.01540 0.69350 -0.21100
O 	O 	0.67580 0.02300 0.76460 -0.15000
O 	O 	0.79290 0.15300 0.83040 -0.45300
O 	O 	0.85950 0.19460 0.29690 -0.38800
O 	O 	0.99790 0.25110 0.35500 -0.39500
O 	O 	0.98300 0.26100 0.61840 -0.40000
O 	O 	0.84640 0.20050 0.67760 -0.38400
O 	O 	0.58300 0.12220 0.47750 -0.21600
O 	O 	0.34380 0.14920 0.47400 -0.13900
O 	O 	0.29780 0.28700 0.44650 -0.34400
O 	O 	0.15320 0.80240 0.30260 -0.39500
O 	O 	0.01410 0.86300 0.24410 -0.38100
O 	O 	0.03290 0.12660 0.22040 -0.39800
O 	O 	0.16910 0.18770 0.27710 -0.39200
O 	O 	0.46520 0.98460 0.30650 -0.21100
O 	O 	0.67580 0.97700 0.23540 -0.15000
O 	O 	0.79290 0.84700 0.16960 -0.45300
O 	O 	0.85950 0.80540 0.70310 -0.38800
O 	O 	0.99790 0.74890 0.64500 -0.39500
O 	O 	0.98300 0.73900 0.38160 -0.40000
O 	O 	0.84640 0.79950 0.32240 -0.38400
O 	O 	0.58300 0.87780 0.52250 -0.21600
O 	O 	0.34380 0.85080 0.52600 -0.13900
O 	O 	0.29780 0.71300 0.55350 -0.34400
