data_crystal

_cell_length_a 11.26440
_cell_length_b 12.70250
_cell_length_c 13.23650
_cell_angle_alpha 97.92200
_cell_angle_beta  112.93900
_cell_angle_gamma 109.08800

_symmetry_space_group_name_	'P 1'
_symmetry_space_group_name_H-M	'P 1'

loop_
_symmetry_equiv_pos_as_xyz
  x,y,z

loop_
_atom_site_label
_atom_site_type_symbol
_atom_site_fract_x
_atom_site_fract_y
_atom_site_fract_z
_atom_site_charge
Mn	Mn	0.89498 0.06990 0.22334 1.27700
C 	C 	0.97110 0.22880 0.12670 0.34800
C 	C 	0.98070 0.31800 0.06250 -0.09200
C 	C 	0.00570 0.42830 0.11520 0.00700
H 	H 	0.02150 0.44820 0.19100 0.06600
C 	C 	0.00820 0.51340 0.05610 -0.08700
C 	C 	0.03130 0.63000 0.10520 0.12500
C 	C 	0.96020 0.28690 0.94950 0.03900
H 	H 	0.94120 0.21110 0.91260 0.05500
C 	C 	0.16560 0.03140 0.26690 0.46000
C 	C 	0.29390 0.00660 0.33360 0.01200
C 	C 	0.34570 0.04030 0.45160 0.16400
H 	H 	0.30060 0.07280 0.48370 -0.08000
C 	C 	0.52620 0.06080 0.64630 0.07300
C 	C 	0.46430 0.02620 0.52290 0.06200
C 	C 	0.36020 0.95550 0.28380 0.11700
H 	H 	0.32650 0.93350 0.20440 0.06000
C 	C 	0.29110 0.03910 0.38310 -0.30600
C 	C 	0.32850 0.08920 0.49710 0.11200
H 	H 	0.27580 0.12430 0.51540 0.04500
C 	C 	0.44460 0.08600 0.58260 -0.04400
C 	C 	0.51920 0.02580 0.55660 -0.18900
C 	C 	0.35940 0.98160 0.35290 0.06000
H 	H 	0.33000 0.94700 0.27560 -0.06500
C 	C 	0.78160 0.82320 0.05820 0.37600
C 	C 	0.68140 0.69570 0.02400 -0.12500
C 	C 	0.60750 0.65920 0.08030 0.03900
H 	H 	0.62020 0.71290 0.14320 0.06500
C 	C 	0.51030 0.54100 0.04690 -0.08500
C 	C 	0.66000 0.61650 0.92890 0.03900
H 	H 	0.71110 0.64040 0.88920 0.06700
C 	C 	0.43590 0.49640 0.10650 0.13400
O 	O 	0.99440 0.26020 0.22790 -0.38600
O 	O 	0.93140 0.12250 0.07240 -0.53300
O 	O 	0.09860 0.07080 0.31040 -0.47000
O 	O 	0.13840 0.00410 0.16800 -0.51900
O 	O 	0.79960 0.88930 0.14630 -0.44600
O 	O 	0.83370 0.84990 0.99280 -0.37500
N 	N 	0.04560 0.66510 0.22100 0.01300
O 	O 	0.95050 0.59260 0.23910 -0.08800
O 	O 	0.12890 0.75500 0.28370 -0.04100
N 	N 	0.47360 0.13000 0.70260 0.03800
O 	O 	0.42210 0.18880 0.66660 -0.07900
O 	O 	0.46770 0.09920 0.78930 -0.12000
O 	O 	0.37600 0.12460 0.71350 -0.09500
O 	O 	0.60230 0.20350 0.77390 -0.07400
N 	N 	0.49290 0.56790 0.23400 -0.00800
O 	O 	0.61800 0.63370 0.29720 -0.12200
O 	O 	0.39950 0.55390 0.26240 -0.05000
S 	S 	0.92010 0.17790 0.49300 0.18200
O 	O 	0.86410 0.09330 0.37830 -0.10400
C 	C 	0.99100 0.32130 0.48390 0.20800
H 	H 	0.91650 0.33490 0.42830 -0.05200
H 	H 	0.06320 0.32910 0.46070 -0.47000
H 	H 	0.03070 0.37740 0.55780 -0.00900
C 	C 	0.07400 0.17600 0.60000 -0.45900
H 	H 	0.05110 0.10150 0.61360 0.28900
H 	H 	0.11100 0.23680 0.66960 0.11400
H 	H 	0.14490 0.18860 0.57340 0.20300
C 	C 	0.05800 0.32400 0.50660 -0.00100
C 	C 	0.05900 0.14900 0.59500 -0.32700
H 	H 	0.05120 0.35500 0.44350 0.40800
H 	H 	0.13940 0.37870 0.57610 0.04800
H 	H 	0.97380 0.31010 0.51530 -0.09300
H 	H 	0.14010 0.19600 0.66770 0.17000
H 	H 	0.05780 0.07230 0.57540 -0.05300
H 	H 	0.97420 0.14180 0.59870 0.17800
N 	N 	0.64630 0.41930 0.86610 0.00200
O 	O 	0.65960 0.33530 0.89790 -0.07000
O 	O 	0.66800 0.44110 0.79000 -0.04200
O 	O 	0.93440 0.12310 0.38910 -0.33100
O 	O 	0.02400 0.74390 0.24990 -0.12300
O 	O 	0.14400 0.64730 0.30870 -0.09000
S 	S 	0.07140 0.21640 0.48420 0.16800
Mn	Mn	0.10502 0.93010 0.77666 1.29700
C 	C 	0.02890 0.77120 0.87330 0.30600
C 	C 	0.01930 0.68200 0.93750 0.00800
C 	C 	0.99430 0.57170 0.88480 -0.05200
H 	H 	0.97850 0.55180 0.80900 0.10900
C 	C 	0.99180 0.48660 0.94390 0.13200
C 	C 	0.96870 0.37000 0.89480 0.03600
C 	C 	0.03980 0.71310 0.05050 -0.14200
H 	H 	0.05880 0.78890 0.08740 0.10700
C 	C 	0.83440 0.96860 0.73310 0.41000
C 	C 	0.70610 0.99340 0.66640 -0.13700
C 	C 	0.65430 0.95970 0.54840 -0.01900
H 	H 	0.69940 0.92720 0.51630 -0.08100
C 	C 	0.47380 0.93920 0.35370 -0.07200
C 	C 	0.53570 0.97380 0.47710 -0.04300
C 	C 	0.63980 0.04450 0.71620 0.15800
H 	H 	0.67350 0.06650 0.79560 0.03400
C 	C 	0.70890 0.96090 0.61690 0.07800
C 	C 	0.67150 0.91080 0.50290 0.13200
H 	H 	0.72420 0.87570 0.48460 0.04200
C 	C 	0.55540 0.91400 0.41740 0.06300
C 	C 	0.48080 0.97420 0.44340 0.13100
C 	C 	0.64060 0.01840 0.64710 0.04700
H 	H 	0.67000 0.05300 0.72440 -0.10500
C 	C 	0.21840 0.17680 0.94180 0.41600
C 	C 	0.31860 0.30430 0.97600 0.02000
C 	C 	0.39250 0.34080 0.91970 -0.09300
H 	H 	0.37980 0.28710 0.85680 0.10900
C 	C 	0.48970 0.45900 0.95310 0.10600
C 	C 	0.34000 0.38350 0.07110 -0.15200
H 	H 	0.28890 0.35960 0.11080 0.11200
C 	C 	0.56410 0.50360 0.89350 0.03100
O 	O 	0.00560 0.73980 0.77210 -0.39800
O 	O 	0.06860 0.87750 0.92760 -0.47800
O 	O 	0.90140 0.92920 0.68960 -0.41600
O 	O 	0.86160 0.99590 0.83200 -0.40300
O 	O 	0.20040 0.11070 0.85370 -0.50800
O 	O 	0.16630 0.15010 0.00720 -0.49200
N 	N 	0.95440 0.33490 0.77900 0.04900
O 	O 	0.04950 0.40740 0.76090 -0.13400
O 	O 	0.87110 0.24500 0.71630 -0.06400
N 	N 	0.52640 0.87000 0.29740 0.04700
O 	O 	0.57790 0.81120 0.33340 -0.09300
O 	O 	0.53230 0.90080 0.21070 -0.09800
O 	O 	0.62400 0.87540 0.28650 -0.06900
O 	O 	0.39770 0.79650 0.22610 -0.06900
N 	N 	0.50710 0.43210 0.76600 0.00500
O 	O 	0.38200 0.36630 0.70280 -0.12200
O 	O 	0.60050 0.44610 0.73760 -0.05100
S 	S 	0.07990 0.82210 0.50700 0.10400
O 	O 	0.13590 0.90670 0.62170 0.11100
C 	C 	0.00900 0.67870 0.51610 0.28800
H 	H 	0.08350 0.66510 0.57170 -0.08300
H 	H 	0.93680 0.67090 0.53930 -0.50600
H 	H 	0.96930 0.62260 0.44220 0.04100
C 	C 	0.92600 0.82400 0.40000 -0.42200
H 	H 	0.94890 0.89850 0.38640 0.28800
H 	H 	0.88900 0.76320 0.33040 0.12200
H 	H 	0.85510 0.81140 0.42660 0.15400
C 	C 	0.94200 0.67600 0.49340 -0.09100
C 	C 	0.94100 0.85100 0.40500 -0.30700
H 	H 	0.94880 0.64500 0.55650 0.47000
H 	H 	0.86060 0.62130 0.42390 0.06200
H 	H 	0.02620 0.68990 0.48470 -0.15900
H 	H 	0.85990 0.80400 0.33230 0.16600
H 	H 	0.94220 0.92770 0.42460 -0.00100
H 	H 	0.02580 0.85820 0.40130 0.16400
N 	N 	0.35370 0.58070 0.13390 -0.00800
O 	O 	0.34040 0.66470 0.10210 -0.08700
O 	O 	0.33200 0.55890 0.21000 -0.04800
O 	O 	0.06560 0.87690 0.61090 -0.54500
O 	O 	0.97600 0.25610 0.75010 -0.10200
O 	O 	0.85600 0.35270 0.69130 -0.08100
S 	S 	0.92860 0.78360 0.51580 0.38000
Mn	Mn	-0.00000 0.00000 -0.00000 1.27600
