data_crystal

_cell_length_a 7.29530
_cell_length_b 13.29810
_cell_length_c 30.75970
_cell_angle_alpha 88.25850
_cell_angle_beta  83.63900
_cell_angle_gamma 74.07980

_symmetry_space_group_name_	'P 1'
_symmetry_space_group_name_H-M	'P 1'

loop_
_symmetry_equiv_pos_as_xyz
  x,y,z

loop_
_atom_site_label
_atom_site_type_symbol
_atom_site_fract_x
_atom_site_fract_y
_atom_site_fract_z
_atom_site_charge
Cd	Cd	0.15524 0.68952 0.25000 1.23900
Cd	Cd	0.84476 0.31048 0.75000 1.24500
H 	H 	0.90320 0.19880 0.14430 0.05600
H 	H 	0.21220 0.07580 0.14480 0.06200
H 	H 	0.65360 0.78720 0.03640 0.06700
H 	H 	0.61990 0.71360 0.96670 0.06300
H 	H 	0.31660 0.84260 0.14580 0.11200
H 	H 	0.52880 0.78780 0.19660 0.03500
H 	H 	0.90570 0.91120 0.12670 0.03400
H 	H 	0.69490 0.96520 0.07560 0.08900
H 	H 	0.38770 0.21900 0.11810 0.08400
H 	H 	0.21980 0.35280 0.16590 0.02400
H 	H 	0.62370 0.50420 0.13540 0.03800
H 	H 	0.79140 0.37060 0.08760 0.09300
H 	H 	0.89800 0.19880 0.35570 0.08900
H 	H 	0.71200 0.07580 0.35520 0.03800
H 	H 	0.55920 0.78720 0.46360 0.05700
H 	H 	0.66650 0.71360 0.53330 0.06500
H 	H 	0.84080 0.84260 0.35420 0.12100
H 	H 	0.68340 0.78780 0.30340 0.04100
H 	H 	0.18310 0.91120 0.37330 0.01800
H 	H 	0.33990 0.96520 0.42440 0.08200
H 	H 	0.39330 0.21900 0.38190 0.08700
H 	H 	0.42740 0.35280 0.33410 0.02700
H 	H 	0.87210 0.50420 0.36460 0.03100
H 	H 	0.83800 0.37060 0.41240 0.08600
H 	H 	0.09680 0.80120 0.85570 0.08100
H 	H 	0.78780 0.92420 0.85520 0.06900
H 	H 	0.34640 0.21280 0.96360 0.05600
H 	H 	0.38010 0.28640 0.03330 0.06400
H 	H 	0.68340 0.15740 0.85420 0.11900
H 	H 	0.47120 0.21220 0.80340 0.03000
H 	H 	0.09430 0.08880 0.87330 -0.00600
H 	H 	0.30510 0.03480 0.92440 0.06900
H 	H 	0.61230 0.78100 0.88190 0.09300
H 	H 	0.78020 0.64720 0.83410 0.04200
H 	H 	0.37630 0.49580 0.86460 0.03600
H 	H 	0.20860 0.62940 0.91240 0.08100
H 	H 	0.10200 0.80120 0.64430 0.04800
H 	H 	0.28800 0.92420 0.64480 0.09400
H 	H 	0.44080 0.21280 0.53640 0.06700
H 	H 	0.33350 0.28640 0.46670 0.06200
H 	H 	0.15920 0.15740 0.64580 0.10800
H 	H 	0.31660 0.21220 0.69660 0.02300
H 	H 	0.81690 0.08880 0.62670 0.01200
H 	H 	0.66010 0.03480 0.57560 0.07700
H 	H 	0.60670 0.78100 0.61810 0.08900
H 	H 	0.57260 0.64720 0.66590 0.03900
H 	H 	0.12790 0.49580 0.63540 0.04500
H 	H 	0.16200 0.62940 0.58760 0.08800
Pd	Pd	-0.00000 0.00000 -0.00000 0.69700
Pd	Pd	-0.00000 0.00000 0.50000 0.70200
C 	C 	0.89440 0.13840 0.08160 0.11900
C 	C 	0.96530 0.15120 0.12230 -0.03900
C 	C 	0.13370 0.08340 0.12240 -0.12200
C 	C 	0.17930 0.02280 0.08320 0.05200
C 	C 	0.34360 0.94500 0.07130 -0.08900
C 	C 	0.38440 0.88940 0.03200 0.09400
C 	C 	0.54900 0.80940 0.02030 -0.10000
C 	C 	0.53200 0.76900 0.98180 -0.06400
C 	C 	0.35470 0.82740 0.96910 0.10300
C 	C 	0.72070 0.19340 0.06950 -0.14700
C 	C 	0.48230 0.91060 0.10500 0.12900
C 	C 	0.43550 0.85640 0.14170 -0.16900
C 	C 	0.56320 0.82320 0.17190 0.08500
C 	C 	0.74230 0.84080 0.16640 -0.12400
C 	C 	0.78770 0.89620 0.13050 0.07900
C 	C 	0.66050 0.92920 0.10020 -0.16000
C 	C 	0.88720 0.79500 0.19870 0.37400
C 	C 	0.60620 0.28160 0.09810 0.12600
C 	C 	0.43500 0.27620 0.12160 -0.16100
C 	C 	0.33440 0.35640 0.15020 0.05600
C 	C 	0.40510 0.44180 0.15540 -0.10100
C 	C 	0.57650 0.44700 0.13190 0.05400
C 	C 	0.67690 0.36700 0.10330 -0.15600
C 	C 	0.30830 0.52740 0.18880 0.31800
C 	C 	0.96720 0.13840 0.41840 0.15700
C 	C 	0.88350 0.15120 0.37770 -0.12800
C 	C 	0.78290 0.08340 0.37760 -0.03300
C 	C 	0.79790 0.02280 0.41680 0.03500
C 	C 	0.71140 0.94500 0.42870 -0.07400
C 	C 	0.72620 0.88940 0.46800 0.09500
C 	C 	0.64160 0.80940 0.47970 -0.07700
C 	C 	0.69900 0.76900 0.51820 -0.08400
C 	C 	0.81790 0.82740 0.53090 0.10600
C 	C 	0.08590 0.19340 0.43050 -0.18300
C 	C 	0.60710 0.91060 0.39500 0.12500
C 	C 	0.70810 0.85640 0.35830 -0.16400
C 	C 	0.61360 0.82320 0.32810 0.08100
C 	C 	0.41690 0.84080 0.33360 -0.11900
C 	C 	0.31610 0.89620 0.36950 0.07300
C 	C 	0.41030 0.92920 0.39980 -0.15900
C 	C 	0.31780 0.79500 0.30130 0.33900
C 	C 	0.11220 0.28160 0.40190 0.10300
C 	C 	0.28880 0.27620 0.37840 -0.16200
C 	C 	0.30920 0.35640 0.34980 0.06500
C 	C 	0.15310 0.44180 0.34460 -0.13500
C 	C 	0.97650 0.44700 0.36810 0.09000
C 	C 	0.95610 0.36700 0.39670 -0.13100
C 	C 	0.16430 0.52740 0.31120 0.32500
C 	C 	0.10560 0.86160 0.91840 0.10000
C 	C 	0.03470 0.84880 0.87770 -0.12700
C 	C 	0.86630 0.91660 0.87760 -0.03900
C 	C 	0.82070 0.97720 0.91680 0.15900
C 	C 	0.65640 0.05500 0.92870 -0.19500
C 	C 	0.61560 0.11060 0.96800 0.12500
C 	C 	0.45100 0.19060 0.97970 -0.08000
C 	C 	0.46800 0.23100 0.01820 -0.10700
C 	C 	0.64530 0.17260 0.03090 0.11200
C 	C 	0.27930 0.80660 0.93050 -0.12900
C 	C 	0.51770 0.08940 0.89500 0.15100
C 	C 	0.56450 0.14360 0.85830 -0.19700
C 	C 	0.43680 0.17680 0.82810 0.08800
C 	C 	0.25770 0.15920 0.83360 -0.12900
C 	C 	0.21230 0.10380 0.86950 0.07800
C 	C 	0.33950 0.07080 0.89980 -0.19100
C 	C 	0.11280 0.20500 0.80130 0.29700
C 	C 	0.39380 0.71840 0.90190 0.11800
C 	C 	0.56500 0.72380 0.87840 -0.14600
C 	C 	0.66560 0.64360 0.84980 0.05000
C 	C 	0.59490 0.55820 0.84460 -0.08800
C 	C 	0.42350 0.55300 0.86810 0.04500
C 	C 	0.32310 0.63300 0.89670 -0.14700
C 	C 	0.69170 0.47260 0.81120 0.31300
C 	C 	0.03280 0.86160 0.58160 0.06100
C 	C 	0.11650 0.84880 0.62230 -0.03700
C 	C 	0.21710 0.91660 0.62240 -0.13200
C 	C 	0.20210 0.97720 0.58320 0.18000
C 	C 	0.28860 0.05500 0.57130 -0.21700
C 	C 	0.27380 0.11060 0.53200 0.12400
C 	C 	0.35840 0.19060 0.52030 -0.10600
C 	C 	0.30100 0.23100 0.48180 -0.08600
C 	C 	0.18210 0.17260 0.46910 0.10800
C 	C 	0.91410 0.80660 0.56950 -0.09400
C 	C 	0.39290 0.08940 0.60500 0.15700
C 	C 	0.29190 0.14360 0.64170 -0.20500
C 	C 	0.38640 0.17680 0.67190 0.09400
C 	C 	0.58310 0.15920 0.66640 -0.13600
C 	C 	0.68390 0.10380 0.63050 0.08700
C 	C 	0.58970 0.07080 0.60020 -0.19400
C 	C 	0.68220 0.20500 0.69870 0.33900
C 	C 	0.88780 0.71840 0.59810 0.14000
C 	C 	0.71120 0.72380 0.62160 -0.14400
C 	C 	0.69080 0.64360 0.65020 0.03800
C 	C 	0.84690 0.55820 0.65540 -0.04900
C 	C 	0.02350 0.55300 0.63190 0.00300
C 	C 	0.04390 0.63300 0.60330 -0.17000
C 	C 	0.83570 0.47260 0.68880 0.30400
N 	N 	0.02580 0.05900 0.05850 -0.24500
N 	N 	0.26310 0.90040 0.99970 -0.20900
N 	N 	0.91520 0.05900 0.44150 -0.22000
N 	N 	0.83650 0.90040 0.50030 -0.20400
N 	N 	0.97420 0.94100 0.94150 -0.19500
N 	N 	0.73690 0.09960 0.00030 -0.23800
N 	N 	0.08480 0.94100 0.55850 -0.22100
N 	N 	0.16350 0.09960 0.49970 -0.24600
O 	O 	0.84630 0.73720 0.22808 -0.35000
O 	O 	0.04340 0.81620 0.19430 -0.39600
O 	O 	0.14900 0.52800 0.20220 -0.33200
O 	O 	0.39970 0.59460 0.19610 -0.33700
O 	O 	0.41650 0.73720 0.27192 -0.35200
O 	O 	0.14040 0.81620 0.30570 -0.37600
O 	O 	0.32300 0.52800 0.29780 -0.32400
O 	O 	0.00570 0.59460 0.30390 -0.35400
O 	O 	0.15370 0.26280 0.77192 -0.35900
O 	O 	0.95660 0.18380 0.80570 -0.34000
O 	O 	0.85100 0.47200 0.79780 -0.30800
O 	O 	0.60030 0.40540 0.80390 -0.33600
O 	O 	0.58350 0.26280 0.72808 -0.35700
O 	O 	0.85960 0.18380 0.69430 -0.36400
O 	O 	0.67700 0.47200 0.70220 -0.31700
O 	O 	0.99430 0.40540 0.69610 -0.31600
