data_crystal

_cell_length_a 7.21720
_cell_length_b 25.61300
_cell_length_c 30.66000
_cell_angle_alpha 90.00000
_cell_angle_beta  96.39200
_cell_angle_gamma 90.00000

_symmetry_space_group_name_	'P 1'
_symmetry_space_group_name_H-M	'P 1'

loop_
_symmetry_equiv_pos_as_xyz
  x,y,z

loop_
_atom_site_label
_atom_site_type_symbol
_atom_site_fract_x
_atom_site_fract_y
_atom_site_fract_z
_atom_site_charge
O 	O 	0.31080 0.38310 0.27250 -0.36400
O 	O 	0.89500 0.34330 0.19450 -0.36800
O 	O 	0.35800 0.98740 0.20120 -0.31200
O 	O 	0.65100 0.95490 0.19530 -0.32100
N 	N 	0.86200 0.22020 0.05920 -0.21400
N 	N 	0.95440 0.29850 0.99930 -0.21700
C 	C 	0.79600 0.18070 0.08100 0.10900
C 	C 	0.91600 0.17640 0.12390 -0.04300
H 	H 	0.89890 0.15360 0.14680 0.05900
C 	C 	0.04600 0.21010 0.12300 -0.10500
H 	H 	0.14410 0.21360 0.14520 0.07100
C 	C 	0.02400 0.24350 0.08270 0.08200
C 	C 	0.14000 0.28060 0.07090 -0.14000
C 	C 	0.11000 0.30480 0.03180 0.07800
C 	C 	0.22600 0.34490 0.02000 -0.09800
H 	H 	0.33660 0.35530 0.03610 0.06000
C 	C 	0.14900 0.36710 0.97980 -0.09600
H 	H 	0.19420 0.39490 0.96460 0.06700
C 	C 	0.98500 0.33650 0.96800 0.12900
C 	C 	0.63700 0.15450 0.07090 -0.14200
C 	C 	0.29100 0.29880 0.10340 0.13700
C 	C 	0.25500 0.32750 0.14090 -0.18600
H 	H 	0.13380 0.33760 0.14410 0.10900
C 	C 	0.39200 0.34040 0.17140 0.09500
H 	H 	0.36330 0.35620 0.19720 0.02600
C 	C 	0.57400 0.33080 0.16590 -0.12200
C 	C 	0.62000 0.30300 0.12990 0.06700
H 	H 	0.74300 0.29540 0.12600 0.02200
C 	C 	0.47300 0.28710 0.10000 -0.16800
H 	H 	0.50030 0.26720 0.07610 0.07400
C 	C 	0.73100 0.35470 0.19820 0.34400
C 	C 	0.59700 0.11120 0.09970 0.12300
C 	C 	0.44400 0.11190 0.12350 -0.15200
H 	H 	0.36080 0.13980 0.12070 0.08600
C 	C 	0.41500 0.07080 0.15160 0.04400
H 	H 	0.31230 0.07130 0.16760 0.03500
C 	C 	0.53800 0.02910 0.15590 -0.08200
C 	C 	0.69100 0.02840 0.13200 0.04500
H 	H 	0.77410 0.00050 0.13480 0.04200
C 	C 	0.72000 0.06950 0.10390 -0.14900
H 	H 	0.82260 0.06900 0.08800 0.08800
C 	C 	0.51000 0.98700 0.18930 0.29000
O 	O 	0.68920 0.38310 0.22750 -0.35400
O 	O 	0.10500 0.34330 0.30550 -0.39200
O 	O 	0.64200 0.98740 0.29880 -0.30500
O 	O 	0.34900 0.95490 0.30470 -0.32400
N 	N 	0.13800 0.22020 0.44080 -0.23500
N 	N 	0.04560 0.29850 0.50070 -0.24200
C 	C 	0.20400 0.18070 0.41900 0.13000
C 	C 	0.08400 0.17640 0.37610 -0.13600
H 	H 	0.10110 0.15360 0.35320 0.08200
C 	C 	0.95400 0.21010 0.37700 -0.02000
H 	H 	0.85590 0.21360 0.35480 0.04800
C 	C 	0.97600 0.24350 0.41730 0.10500
C 	C 	0.86000 0.28060 0.42910 -0.16300
C 	C 	0.89000 0.30480 0.46820 0.13700
C 	C 	0.77400 0.34490 0.48000 -0.11800
H 	H 	0.66340 0.35530 0.46390 0.07100
C 	C 	0.85100 0.36710 0.52020 -0.04100
H 	H 	0.80580 0.39490 0.53540 0.05200
C 	C 	0.01500 0.33650 0.53200 0.06800
C 	C 	0.36300 0.15450 0.42910 -0.15200
C 	C 	0.70900 0.29880 0.39660 0.16200
C 	C 	0.74500 0.32750 0.35910 -0.20900
H 	H 	0.86620 0.33760 0.35590 0.12900
C 	C 	0.60800 0.34040 0.32860 0.11900
H 	H 	0.63670 0.35620 0.30280 0.02100
C 	C 	0.42600 0.33080 0.33410 -0.14200
C 	C 	0.38000 0.30300 0.37010 0.08800
H 	H 	0.25700 0.29540 0.37400 0.00600
C 	C 	0.52700 0.28710 0.40000 -0.19100
H 	H 	0.49970 0.26720 0.42390 0.08200
C 	C 	0.26900 0.35470 0.30180 0.35300
C 	C 	0.40300 0.11120 0.40030 0.12800
C 	C 	0.55600 0.11190 0.37650 -0.15200
H 	H 	0.63920 0.13980 0.37930 0.09000
C 	C 	0.58500 0.07080 0.34840 0.04600
H 	H 	0.68770 0.07130 0.33240 0.04000
C 	C 	0.46200 0.02910 0.34410 -0.08200
C 	C 	0.30900 0.02840 0.36800 0.04500
H 	H 	0.22590 0.00050 0.36520 0.03700
C 	C 	0.28000 0.06950 0.39610 -0.15200
H 	H 	0.17740 0.06900 0.41200 0.08400
C 	C 	0.49000 0.98700 0.31070 0.28900
O 	O 	0.18920 0.11690 0.72750 -0.36300
O 	O 	0.60500 0.15670 0.80550 -0.38200
O 	O 	0.14200 0.51260 0.79880 -0.32900
O 	O 	0.84900 0.54510 0.80470 -0.32300
N 	N 	0.63800 0.27980 0.94080 -0.22300
N 	N 	0.54560 0.20150 0.00070 -0.24300
C 	C 	0.70400 0.31930 0.91900 0.12600
C 	C 	0.58400 0.32360 0.87610 -0.08900
H 	H 	0.60110 0.34640 0.85320 0.07100
C 	C 	0.45400 0.28990 0.87700 -0.06700
H 	H 	0.35590 0.28640 0.85480 0.05900
C 	C 	0.47600 0.25650 0.91730 0.10500
C 	C 	0.36000 0.21940 0.92910 -0.17300
C 	C 	0.39000 0.19520 0.96820 0.12300
C 	C 	0.27400 0.15510 0.98000 -0.07800
H 	H 	0.16340 0.14470 0.96390 0.05700
C 	C 	0.35100 0.13290 0.02020 -0.10500
H 	H 	0.30580 0.10510 0.03540 0.06500
C 	C 	0.51500 0.16350 0.03200 0.10300
C 	C 	0.86300 0.34550 0.92910 -0.15900
C 	C 	0.20900 0.20120 0.89660 0.19100
C 	C 	0.24500 0.17250 0.85910 -0.22200
H 	H 	0.36620 0.16240 0.85590 0.12800
C 	C 	0.10800 0.15960 0.82860 0.11100
H 	H 	0.13670 0.14380 0.80280 0.01800
C 	C 	0.92600 0.16920 0.83410 -0.14100
C 	C 	0.88000 0.19700 0.87010 0.14500
H 	H 	0.75700 0.20460 0.87400 -0.00800
C 	C 	0.02700 0.21290 0.90000 -0.27400
H 	H 	0.99970 0.23280 0.92390 0.12500
C 	C 	0.76900 0.14530 0.80180 0.35500
C 	C 	0.90300 0.38880 0.90030 0.15800
C 	C 	0.05600 0.38810 0.87650 -0.18100
H 	H 	0.13920 0.36020 0.87930 0.09400
C 	C 	0.08500 0.42920 0.84840 0.03200
H 	H 	0.18770 0.42870 0.83240 0.03900
C 	C 	0.96200 0.47090 0.84410 -0.06900
C 	C 	0.80900 0.47160 0.86800 0.05200
H 	H 	0.72590 0.49950 0.86520 0.03800
C 	C 	0.78000 0.43050 0.89610 -0.16200
H 	H 	0.67740 0.43100 0.91200 0.09300
C 	C 	0.99000 0.51300 0.81070 0.31600
O 	O 	0.81080 0.11690 0.77250 -0.35600
O 	O 	0.39500 0.15670 0.69450 -0.37900
O 	O 	0.85800 0.51260 0.70120 -0.28500
O 	O 	0.15100 0.54510 0.69530 -0.31900
N 	N 	0.36200 0.27980 0.55920 -0.22100
N 	N 	0.45440 0.20150 0.49930 -0.23500
C 	C 	0.29600 0.31930 0.58100 0.11100
C 	C 	0.41600 0.32360 0.62390 -0.08700
H 	H 	0.39890 0.34640 0.64680 0.06900
C 	C 	0.54600 0.28990 0.62300 -0.06100
H 	H 	0.64410 0.28640 0.64520 0.06000
C 	C 	0.52400 0.25650 0.58270 0.08700
C 	C 	0.64000 0.21940 0.57090 -0.13100
C 	C 	0.61000 0.19520 0.53180 0.10200
C 	C 	0.72600 0.15510 0.52000 -0.08800
H 	H 	0.83660 0.14470 0.53610 0.06400
C 	C 	0.64900 0.13290 0.47980 -0.08600
H 	H 	0.69420 0.10510 0.46460 0.06600
C 	C 	0.48500 0.16350 0.46800 0.10400
C 	C 	0.13700 0.34550 0.57090 -0.12700
C 	C 	0.79100 0.20120 0.60340 0.10800
C 	C 	0.75500 0.17250 0.64090 -0.17300
H 	H 	0.63380 0.16240 0.64410 0.11000
C 	C 	0.89200 0.15960 0.67140 0.10300
H 	H 	0.86330 0.14380 0.69720 0.02800
C 	C 	0.07400 0.16920 0.66590 -0.12300
C 	C 	0.12000 0.19700 0.62990 0.01000
H 	H 	0.24300 0.20460 0.62600 0.03700
C 	C 	0.97300 0.21290 0.60000 -0.08300
H 	H 	0.00030 0.23280 0.57610 0.03300
C 	C 	0.23100 0.14530 0.69820 0.34300
C 	C 	0.09700 0.38880 0.59970 0.08900
C 	C 	0.94400 0.38810 0.62350 -0.11800
H 	H 	0.86080 0.36020 0.62070 0.08000
C 	C 	0.91500 0.42920 0.65160 0.05700
H 	H 	0.81230 0.42870 0.66760 0.03600
C 	C 	0.03800 0.47090 0.65590 -0.09300
C 	C 	0.19100 0.47160 0.63200 0.03700
H 	H 	0.27410 0.49950 0.63480 0.04200
C 	C 	0.22000 0.43050 0.60390 -0.13600
H 	H 	0.32260 0.43100 0.58800 0.08100
C 	C 	0.01000 0.51300 0.68930 0.26300
Cd	Cd	0.00000 0.40505 0.25000 1.23100
Cd	Cd	0.50000 0.09495 0.75000 1.23800
Pd	Pd	0.75000 0.25000 -0.00000 0.74400
Pd	Pd	0.25000 0.25000 0.50000 0.74800
O 	O 	0.81080 0.88310 0.27250 -0.35600
O 	O 	0.39500 0.84330 0.19450 -0.37900
O 	O 	0.85800 0.48740 0.20120 -0.28500
O 	O 	0.15100 0.45490 0.19530 -0.31900
N 	N 	0.36200 0.72020 0.05920 -0.22200
N 	N 	0.45440 0.79850 0.99930 -0.22400
C 	C 	0.29600 0.68070 0.08100 0.11200
C 	C 	0.41600 0.67640 0.12390 -0.08800
H 	H 	0.39890 0.65360 0.14680 0.06900
C 	C 	0.54600 0.71010 0.12300 -0.05900
H 	H 	0.64410 0.71360 0.14520 0.06000
C 	C 	0.52400 0.74350 0.08270 0.08500
C 	C 	0.64000 0.78060 0.07090 -0.13100
C 	C 	0.61000 0.80480 0.03180 0.09600
C 	C 	0.72600 0.84490 0.02000 -0.11200
H 	H 	0.83660 0.85530 0.03610 0.06900
C 	C 	0.64900 0.86710 0.97980 -0.06000
H 	H 	0.69420 0.89490 0.96460 0.06000
C 	C 	0.48500 0.83650 0.96800 0.09900
C 	C 	0.13700 0.65450 0.07090 -0.13100
C 	C 	0.79100 0.79880 0.10340 0.10800
C 	C 	0.75500 0.82750 0.14090 -0.17300
H 	H 	0.63380 0.83760 0.14410 0.11000
C 	C 	0.89200 0.84040 0.17140 0.10300
H 	H 	0.86330 0.85620 0.19720 0.02800
C 	C 	0.07400 0.83080 0.16590 -0.12300
C 	C 	0.12000 0.80300 0.12990 0.01000
H 	H 	0.24300 0.79540 0.12600 0.03700
C 	C 	0.97300 0.78710 0.10000 -0.08300
H 	H 	0.00030 0.76720 0.07610 0.03300
C 	C 	0.23100 0.85470 0.19820 0.34200
C 	C 	0.09700 0.61120 0.09970 0.09100
C 	C 	0.94400 0.61190 0.12350 -0.12000
H 	H 	0.86080 0.63980 0.12070 0.08100
C 	C 	0.91500 0.57080 0.15160 0.05700
H 	H 	0.81230 0.57130 0.16760 0.03600
C 	C 	0.03800 0.52910 0.15590 -0.09400
C 	C 	0.19100 0.52840 0.13200 0.03700
H 	H 	0.27410 0.50050 0.13480 0.04100
C 	C 	0.22000 0.56950 0.10390 -0.13800
H 	H 	0.32260 0.56900 0.08800 0.08000
C 	C 	0.01000 0.48700 0.18930 0.26300
O 	O 	0.18920 0.88310 0.22750 -0.36300
O 	O 	0.60500 0.84330 0.30550 -0.38200
O 	O 	0.14200 0.48740 0.29880 -0.32900
O 	O 	0.84900 0.45490 0.30470 -0.32300
N 	N 	0.63800 0.72020 0.44080 -0.22600
N 	N 	0.54560 0.79850 0.50070 -0.23500
C 	C 	0.70400 0.68070 0.41900 0.12700
C 	C 	0.58400 0.67640 0.37610 -0.09100
H 	H 	0.60110 0.65360 0.35320 0.07200
C 	C 	0.45400 0.71010 0.37700 -0.06500
H 	H 	0.35590 0.71360 0.35480 0.05900
C 	C 	0.47600 0.74350 0.41730 0.10200
C 	C 	0.36000 0.78060 0.42910 -0.17200
C 	C 	0.39000 0.80480 0.46820 0.11800
C 	C 	0.27400 0.84490 0.48000 -0.10300
H 	H 	0.16340 0.85530 0.46390 0.06100
C 	C 	0.35100 0.86710 0.52020 -0.07900
H 	H 	0.30580 0.89490 0.53540 0.05900
C 	C 	0.51500 0.83650 0.53200 0.09900
C 	C 	0.86300 0.65450 0.42910 -0.16400
C 	C 	0.20900 0.79880 0.39660 0.19000
C 	C 	0.24500 0.82750 0.35910 -0.22200
H 	H 	0.36620 0.83760 0.35590 0.12700
C 	C 	0.10800 0.84040 0.32860 0.11000
H 	H 	0.13670 0.85620 0.30280 0.01800
C 	C 	0.92600 0.83080 0.33410 -0.14000
C 	C 	0.88000 0.80300 0.37010 0.14500
H 	H 	0.75700 0.79540 0.37400 -0.00800
C 	C 	0.02700 0.78710 0.40000 -0.27400
H 	H 	0.99970 0.76720 0.42390 0.12300
C 	C 	0.76900 0.85470 0.30180 0.35500
C 	C 	0.90300 0.61120 0.40030 0.16000
C 	C 	0.05600 0.61190 0.37650 -0.18400
H 	H 	0.13920 0.63980 0.37930 0.09500
C 	C 	0.08500 0.57080 0.34840 0.03300
H 	H 	0.18770 0.57130 0.33240 0.03800
C 	C 	0.96200 0.52910 0.34410 -0.07000
C 	C 	0.80900 0.52840 0.36800 0.05200
H 	H 	0.72590 0.50050 0.36520 0.03800
C 	C 	0.78000 0.56950 0.39610 -0.16400
H 	H 	0.67740 0.56900 0.41200 0.09200
C 	C 	0.99000 0.48700 0.31070 0.31700
O 	O 	0.68920 0.61690 0.72750 -0.35400
O 	O 	0.10500 0.65670 0.80550 -0.39100
O 	O 	0.64200 0.01260 0.79880 -0.30500
O 	O 	0.34900 0.04510 0.80470 -0.32300
N 	N 	0.13800 0.77980 0.94080 -0.23200
N 	N 	0.04560 0.70150 0.00070 -0.25000
C 	C 	0.20400 0.81930 0.91900 0.12900
C 	C 	0.08400 0.82360 0.87610 -0.13400
H 	H 	0.10110 0.84640 0.85320 0.08100
C 	C 	0.95400 0.78990 0.87700 -0.02200
H 	H 	0.85590 0.78640 0.85480 0.04900
C 	C 	0.97600 0.75650 0.91730 0.10700
C 	C 	0.86000 0.71940 0.92910 -0.16400
C 	C 	0.89000 0.69520 0.96820 0.14300
C 	C 	0.77400 0.65510 0.98000 -0.09400
H 	H 	0.66340 0.64470 0.96390 0.06600
C 	C 	0.85100 0.63290 0.02020 -0.06700
H 	H 	0.80580 0.60510 0.03540 0.05900
C 	C 	0.01500 0.66350 0.03200 0.07300
C 	C 	0.36300 0.84550 0.92910 -0.14800
C 	C 	0.70900 0.70120 0.89660 0.16300
C 	C 	0.74500 0.67250 0.85910 -0.21000
H 	H 	0.86620 0.66240 0.85590 0.12900
C 	C 	0.60800 0.65960 0.82860 0.12000
H 	H 	0.63670 0.64380 0.80280 0.02000
C 	C 	0.42600 0.66920 0.83410 -0.14200
C 	C 	0.38000 0.69700 0.87010 0.09000
H 	H 	0.25700 0.70460 0.87400 0.00600
C 	C 	0.52700 0.71290 0.90000 -0.19200
H 	H 	0.49970 0.73280 0.92390 0.08400
C 	C 	0.26900 0.64530 0.80180 0.35300
C 	C 	0.40300 0.88880 0.90030 0.12600
C 	C 	0.55600 0.88810 0.87650 -0.15100
H 	H 	0.63920 0.86020 0.87930 0.08900
C 	C 	0.58500 0.92920 0.84840 0.04500
H 	H 	0.68770 0.92870 0.83240 0.04000
C 	C 	0.46200 0.97090 0.84410 -0.08100
C 	C 	0.30900 0.97160 0.86800 0.04500
H 	H 	0.22590 0.99950 0.86520 0.03800
C 	C 	0.28000 0.93050 0.89610 -0.15100
H 	H 	0.17740 0.93100 0.91200 0.08500
C 	C 	0.49000 0.01300 0.81070 0.28900
O 	O 	0.31080 0.61690 0.77250 -0.36300
O 	O 	0.89500 0.65670 0.69450 -0.36700
O 	O 	0.35800 0.01260 0.70120 -0.31100
O 	O 	0.65100 0.04510 0.69530 -0.32000
N 	N 	0.86200 0.77980 0.55920 -0.21200
N 	N 	0.95440 0.70150 0.49930 -0.22800
C 	C 	0.79600 0.81930 0.58100 0.10800
C 	C 	0.91600 0.82360 0.62390 -0.04100
H 	H 	0.89890 0.84640 0.64680 0.05800
C 	C 	0.04600 0.78990 0.62300 -0.10700
H 	H 	0.14410 0.78640 0.64520 0.07100
C 	C 	0.02400 0.75650 0.58270 0.08500
C 	C 	0.14000 0.71940 0.57090 -0.14100
C 	C 	0.11000 0.69520 0.53180 0.08300
C 	C 	0.22600 0.65510 0.52000 -0.07300
H 	H 	0.33660 0.64470 0.53610 0.05500
C 	C 	0.14900 0.63290 0.47980 -0.12300
H 	H 	0.19420 0.60510 0.46460 0.07300
C 	C 	0.98500 0.66350 0.46800 0.13400
C 	C 	0.63700 0.84550 0.57090 -0.13900
C 	C 	0.29100 0.70120 0.60340 0.13800
C 	C 	0.25500 0.67250 0.64090 -0.18600
H 	H 	0.13380 0.66240 0.64410 0.11000
C 	C 	0.39200 0.65960 0.67140 0.09500
H 	H 	0.36330 0.64380 0.69720 0.02600
C 	C 	0.57400 0.66920 0.66590 -0.12200
C 	C 	0.62000 0.69700 0.62990 0.06800
H 	H 	0.74300 0.70460 0.62600 0.02200
C 	C 	0.47300 0.71290 0.60000 -0.16800
H 	H 	0.50030 0.73280 0.57610 0.07600
C 	C 	0.73100 0.64530 0.69820 0.34400
C 	C 	0.59700 0.88880 0.59970 0.12200
C 	C 	0.44400 0.88810 0.62350 -0.15000
H 	H 	0.36080 0.86020 0.62070 0.08500
C 	C 	0.41500 0.92920 0.65160 0.04400
H 	H 	0.31230 0.92870 0.66760 0.03500
C 	C 	0.53800 0.97090 0.65590 -0.08200
C 	C 	0.69100 0.97160 0.63200 0.04500
H 	H 	0.77410 0.99950 0.63480 0.04200
C 	C 	0.72000 0.93050 0.60390 -0.14800
H 	H 	0.82260 0.93100 0.58800 0.08900
C 	C 	0.51000 0.01300 0.68930 0.29000
Cd	Cd	0.50000 0.90505 0.25000 1.23800
Cd	Cd	-0.00000 0.59495 0.75000 1.23100
Pd	Pd	0.25000 0.75000 -0.00000 0.74000
Pd	Pd	0.75000 0.75000 0.50000 0.75200
