data_crystal

_cell_length_a 7.15640
_cell_length_b 13.04050
_cell_length_c 31.19200
_cell_angle_alpha 88.27810
_cell_angle_beta  83.71300
_cell_angle_gamma 74.07430

_symmetry_space_group_name_	'P 1'
_symmetry_space_group_name_H-M	'P 1'

loop_
_symmetry_equiv_pos_as_xyz
  x,y,z

loop_
_atom_site_label
_atom_site_type_symbol
_atom_site_fract_x
_atom_site_fract_y
_atom_site_fract_z
_atom_site_charge
Cd	Cd	0.59868 0.80264 0.25000 1.24400
Cd	Cd	0.40132 0.19736 0.75000 1.24400
H 	H 	0.95500 0.28780 0.13950 0.06000
H 	H 	0.64900 0.42580 0.14220 0.07500
H 	H 	0.30820 0.72460 0.03800 0.05600
H 	H 	0.40060 0.80020 0.96770 0.06100
H 	H 	0.54090 0.66340 0.14410 0.11500
H 	H 	0.27510 0.72500 0.19340 0.02800
H 	H 	0.96900 0.57800 0.12890 0.03900
H 	H 	0.23570 0.53020 0.07690 0.07300
H 	H 	0.49610 0.27660 0.11800 0.08200
H 	H 	0.61980 0.14440 0.16680 0.04400
H 	H 	0.25810 0.97920 0.13420 0.04300
H 	H 	0.13450 0.11140 0.08530 0.07600
H 	H 	0.75720 0.28780 0.36050 0.07000
H 	H 	0.92520 0.42580 0.35780 0.07200
H 	H 	0.96720 0.72460 0.46200 0.06700
H 	H 	0.79920 0.80020 0.53230 0.05900
H 	H 	0.79570 0.66340 0.35590 0.10100
H 	H 	0.99990 0.72500 0.30660 0.05600
H 	H 	0.45300 0.57800 0.37110 0.02200
H 	H 	0.23410 0.53020 0.42310 0.07800
H 	H 	0.22730 0.27660 0.38200 0.08200
H 	H 	0.23580 0.14440 0.33320 0.03800
H 	H 	0.76270 0.97920 0.36580 0.04300
H 	H 	0.75410 0.11140 0.41470 0.08200
H 	H 	0.04500 0.71220 0.86050 0.07600
H 	H 	0.35100 0.57420 0.85780 0.06500
H 	H 	0.69180 0.27540 0.96200 0.07300
H 	H 	0.59940 0.19980 0.03230 0.05400
H 	H 	0.45910 0.33660 0.85590 0.11800
H 	H 	0.72490 0.27500 0.80660 0.02900
H 	H 	0.03100 0.42200 0.87110 -0.00500
H 	H 	0.76430 0.46980 0.92310 0.09000
H 	H 	0.50390 0.72340 0.88200 0.08700
H 	H 	0.38020 0.85560 0.83320 0.03800
H 	H 	0.74190 0.02080 0.86580 0.04000
H 	H 	0.86550 0.88860 0.91470 0.08500
H 	H 	0.24280 0.71220 0.63950 0.06700
H 	H 	0.07480 0.57420 0.64220 0.06800
H 	H 	0.03280 0.27540 0.53800 0.06200
H 	H 	0.20080 0.19980 0.46770 0.05600
H 	H 	0.20430 0.33660 0.64410 0.13100
H 	H 	0.00010 0.27500 0.69340 0.00100
H 	H 	0.54700 0.42200 0.62890 0.01100
H 	H 	0.76590 0.46980 0.57690 0.08400
H 	H 	0.77270 0.72340 0.61800 0.08700
H 	H 	0.76420 0.85560 0.66680 0.04300
H 	H 	0.23730 0.02080 0.63420 0.03900
H 	H 	0.24590 0.88860 0.58530 0.08000
Pd	Pd	-0.00000 0.50000 1.00000 0.73400
Pd	Pd	0.50000 0.50000 0.50000 0.74900
C 	C 	0.02780 0.35640 0.07940 0.07500
C 	C 	0.91690 0.34020 0.11890 -0.04500
C 	C 	0.74910 0.41580 0.11970 -0.10400
C 	C 	0.74170 0.47860 0.08220 0.11900
C 	C 	0.58840 0.56020 0.07050 -0.14900
C 	C 	0.58350 0.61700 0.03310 0.10800
C 	C 	0.42850 0.70100 0.02150 -0.07700
C 	C 	0.47720 0.74360 0.98240 -0.09500
C 	C 	0.67500 0.68000 0.96920 0.09700
C 	C 	0.21690 0.30020 0.06710 -0.11800
C 	C 	0.41000 0.59420 0.10350 0.14100
C 	C 	0.42320 0.64960 0.14010 -0.18500
C 	C 	0.26490 0.68420 0.17020 0.09900
C 	C 	0.09750 0.66100 0.16690 -0.13800
C 	C 	0.08180 0.59840 0.13140 0.04000
C 	C 	0.24440 0.56920 0.10070 -0.16500
C 	C 	0.92450 0.69700 0.19860 0.34500
C 	C 	0.30340 0.20720 0.09680 0.09800
C 	C 	0.44850 0.21700 0.12120 -0.13400
C 	C 	0.52210 0.13780 0.15050 0.03500
C 	C 	0.45170 0.04860 0.15530 -0.07000
C 	C 	0.30560 0.03880 0.13090 0.02500
C 	C 	0.23200 0.11800 0.10170 -0.12900
C 	C 	0.51820 0.95960 0.18850 0.29700
C 	C 	0.61580 0.35640 0.42060 0.11000
C 	C 	0.74290 0.34020 0.38110 -0.08000
C 	C 	0.83510 0.41580 0.38030 -0.08700
C 	C 	0.77970 0.47860 0.41780 0.11300
C 	C 	0.85140 0.56020 0.42950 -0.15000
C 	C 	0.79950 0.61700 0.46690 0.11300
C 	C 	0.87050 0.70100 0.47850 -0.10000
C 	C 	0.77920 0.74360 0.51760 -0.07100
C 	C 	0.64500 0.68000 0.53080 0.09300
C 	C 	0.48290 0.30020 0.43290 -0.13200
C 	C 	0.99580 0.59420 0.39650 0.14200
C 	C 	0.92720 0.64960 0.35990 -0.14900
C 	C 	0.05090 0.68420 0.32980 0.04200
C 	C 	0.24150 0.66100 0.33310 -0.11100
C 	C 	0.31980 0.59840 0.36860 0.06000
C 	C 	0.18640 0.56920 0.39930 -0.18200
C 	C 	0.37850 0.69700 0.30140 0.32400
C 	C 	0.48940 0.20720 0.40320 0.10700
C 	C 	0.33450 0.21700 0.37880 -0.14100
C 	C 	0.34010 0.13780 0.34950 0.03900
C 	C 	0.49970 0.04860 0.34470 -0.07400
C 	C 	0.65560 0.03880 0.36910 0.03100
C 	C 	0.65000 0.11800 0.39830 -0.13500
C 	C 	0.52220 0.95960 0.31150 0.29900
C 	C 	0.97220 0.64360 0.92060 0.14300
C 	C 	0.08310 0.65980 0.88110 -0.11400
C 	C 	0.25090 0.58420 0.88030 -0.07400
C 	C 	0.25830 0.52140 0.91780 0.11100
C 	C 	0.41160 0.43980 0.92950 -0.16100
C 	C 	0.41650 0.38300 0.96690 0.12000
C 	C 	0.57150 0.29900 0.97850 -0.12600
C 	C 	0.52280 0.25640 0.01760 -0.04700
C 	C 	0.32500 0.32000 0.03080 0.08900
C 	C 	0.78310 0.69980 0.93290 -0.14500
C 	C 	0.59000 0.40580 0.89650 0.16200
C 	C 	0.57680 0.35040 0.85990 -0.20000
C 	C 	0.73510 0.31580 0.82980 0.10900
C 	C 	0.90250 0.33900 0.83310 -0.13800
C 	C 	0.91820 0.40160 0.86860 0.11100
C 	C 	0.75560 0.43080 0.89930 -0.20500
C 	C 	0.07550 0.30300 0.80140 0.32600
C 	C 	0.69660 0.79280 0.90320 0.11600
C 	C 	0.55150 0.78300 0.87880 -0.14600
C 	C 	0.47790 0.86220 0.84950 0.04400
C 	C 	0.54830 0.95140 0.84470 -0.07700
C 	C 	0.69440 0.96120 0.86910 0.03700
C 	C 	0.76800 0.88200 0.89830 -0.14100
C 	C 	0.48180 0.04040 0.81150 0.29900
C 	C 	0.38420 0.64360 0.57940 0.10900
C 	C 	0.25710 0.65980 0.61890 -0.08000
C 	C 	0.16490 0.58420 0.61970 -0.09000
C 	C 	0.22030 0.52140 0.58220 0.11500
C 	C 	0.14860 0.43980 0.57050 -0.16000
C 	C 	0.20050 0.38300 0.53310 0.11400
C 	C 	0.12950 0.29900 0.52150 -0.10300
C 	C 	0.22080 0.25640 0.48240 -0.07200
C 	C 	0.35500 0.32000 0.46920 0.09300
C 	C 	0.51710 0.69980 0.56710 -0.13200
C 	C 	0.00420 0.40580 0.60350 0.15900
C 	C 	0.07280 0.35040 0.64010 -0.23400
C 	C 	0.94910 0.31580 0.67020 0.16300
C 	C 	0.75850 0.33900 0.66690 -0.16300
C 	C 	0.68020 0.40160 0.63140 0.09100
C 	C 	0.81360 0.43080 0.60070 -0.18800
C 	C 	0.62150 0.30300 0.69860 0.34600
C 	C 	0.51060 0.79280 0.59680 0.10800
C 	C 	0.66550 0.78300 0.62120 -0.14100
C 	C 	0.65990 0.86220 0.65050 0.04000
C 	C 	0.50030 0.95140 0.65530 -0.07300
C 	C 	0.34440 0.96120 0.63090 0.03300
C 	C 	0.35000 0.88200 0.60170 -0.13700
C 	C 	0.47780 0.04040 0.68850 0.29700
N 	N 	0.91720 0.43720 0.05760 -0.21000
N 	N 	0.74270 0.60160 0.00100 -0.22100
N 	N 	0.64560 0.43720 0.44240 -0.22600
N 	N 	0.65570 0.60160 0.49900 -0.23100
N 	N 	0.08280 0.56280 0.94240 -0.23900
N 	N 	0.25730 0.39840 0.99900 -0.23800
N 	N 	0.35440 0.56280 0.55760 -0.22700
N 	N 	0.34430 0.39840 0.50100 -0.23200
O 	O 	0.93410 0.75840 0.22750 -0.34500
O 	O 	0.77190 0.66980 0.19550 -0.36300
O 	O 	0.66160 0.97280 0.20090 -0.29700
O 	O 	0.41640 0.89320 0.19930 -0.35800
O 	O 	0.30750 0.75840 0.27250 -0.34700
O 	O 	0.55830 0.66980 0.30450 -0.35900
O 	O 	0.36560 0.97280 0.29910 -0.30200
O 	O 	0.69040 0.89320 0.30070 -0.35600
O 	O 	0.06590 0.24160 0.77250 -0.34900
O 	O 	0.22810 0.33020 0.80450 -0.36300
O 	O 	0.33840 0.02720 0.79910 -0.30300
O 	O 	0.58360 0.10680 0.80070 -0.35600
O 	O 	0.69250 0.24160 0.72750 -0.34700
O 	O 	0.44170 0.33020 0.69550 -0.36600
O 	O 	0.63440 0.02720 0.70090 -0.29800
O 	O 	0.30960 0.10680 0.69930 -0.35800
