data_crystal

_cell_length_a 17.40950
_cell_length_b 10.11980
_cell_length_c 17.54700
_cell_angle_alpha 90.00000
_cell_angle_beta  90.00000
_cell_angle_gamma 90.00000

_symmetry_space_group_name_	'P 1'
_symmetry_space_group_name_H-M	'P 1'

loop_
_symmetry_equiv_pos_as_xyz
  x,y,z

loop_
_atom_site_label
_atom_site_type_symbol
_atom_site_fract_x
_atom_site_fract_y
_atom_site_fract_z
_atom_site_charge
Er	Er	0.82147 0.87987 0.27263 1.86000
Er	Er	0.52092 0.84113 0.25839 1.80800
O 	O 	0.92100 0.89510 0.19550 -0.55500
O 	O 	0.08550 0.07230 0.86280 -0.51300
O 	O 	0.74780 0.94900 0.16870 -0.49600
O 	O 	0.69760 0.22010 0.86840 -0.46300
O 	O 	0.71590 0.93720 0.33250 -0.55900
C 	C 	0.67960 0.93220 0.15200 0.48600
O 	O 	0.62980 0.87970 0.19560 -0.52400
O 	O 	0.59290 0.91190 0.36460 -0.50300
C 	C 	0.66100 0.93830 0.37790 0.52200
C 	C 	0.68000 0.99430 0.45460 -0.16700
C 	C 	0.74870 0.03910 0.48010 0.03300
H 	H 	0.79370 0.03470 0.45150 0.01100
C 	C 	0.65140 0.97460 0.07620 -0.15400
S 	S 	0.70251 0.07890 0.01899 0.06300
O 	O 	0.57410 0.11550 0.67030 -0.50700
C 	C 	0.63890 0.15430 0.87890 0.46800
O 	O 	0.69160 0.19070 0.70140 -0.48000
O 	O 	0.58370 0.14720 0.83340 -0.55100
C 	C 	0.64470 0.13340 0.65770 0.45700
S 	S 	0.60997 0.01570 0.52158 0.07400
S 	S 	0.04056 0.96230 0.01085 0.06100
O 	O 	0.03640 0.82390 0.16300 -0.44800
C 	C 	0.58460 0.93430 0.04160 -0.01300
H 	H 	0.55000 0.87540 0.06340 0.03300
C 	C 	0.96720 0.95470 0.07600 -0.14300
C 	C 	0.57460 0.99270 0.96920 0.01800
H 	H 	0.53240 0.97710 0.93810 0.02200
C 	C 	0.63290 0.07330 0.95040 -0.13600
C 	C 	0.97750 0.88890 0.14960 0.46300
C 	C 	0.90350 0.01700 0.05030 -0.01300
H 	H 	0.85810 0.02330 0.07800 0.03700
C 	C 	0.67380 0.08830 0.58330 -0.13400
C 	C 	0.74550 0.09240 0.55350 -0.01400
H 	H 	0.78780 0.12680 0.57900 0.04800
O 	O 	0.97060 0.15320 0.82950 -0.48500
C 	C 	0.98380 0.05030 0.94880 -0.13500
C 	C 	0.91330 0.07120 0.97710 0.02100
H 	H 	0.87490 0.11660 0.95110 0.03700
C 	C 	0.01670 0.09520 0.87470 0.46900
Er	Er	0.17853 0.12013 0.77263 1.86100
Er	Er	0.47908 0.15887 0.75839 1.81000
O 	O 	0.07900 0.10490 0.69550 -0.55600
O 	O 	0.91450 0.92770 0.36280 -0.51400
O 	O 	0.25220 0.05100 0.66870 -0.49700
O 	O 	0.30240 0.77990 0.36840 -0.46500
O 	O 	0.28410 0.06280 0.83250 -0.55900
C 	C 	0.32040 0.06780 0.65200 0.49000
O 	O 	0.37020 0.12030 0.69560 -0.52400
O 	O 	0.40710 0.08810 0.86460 -0.50200
C 	C 	0.33900 0.06170 0.87790 0.52400
C 	C 	0.32000 0.00570 0.95460 -0.16400
C 	C 	0.25130 0.96090 0.98010 0.05400
H 	H 	0.20630 0.96530 0.95150 0.00700
C 	C 	0.34860 0.02540 0.57620 -0.16400
S 	S 	0.29749 0.92110 0.51899 0.08000
O 	O 	0.42590 0.88450 0.17030 -0.50600
C 	C 	0.36110 0.84570 0.37890 0.46700
O 	O 	0.30840 0.80930 0.20140 -0.47900
O 	O 	0.41630 0.85280 0.33340 -0.55100
C 	C 	0.35530 0.86660 0.15770 0.45300
S 	S 	0.39003 0.98430 0.02158 0.06000
S 	S 	0.95944 0.03770 0.51085 0.07400
O 	O 	0.96360 0.17610 0.66300 -0.44900
C 	C 	0.41540 0.06570 0.54160 0.00800
H 	H 	0.45000 0.12460 0.56340 0.02700
C 	C 	0.03280 0.04530 0.57600 -0.15400
C 	C 	0.42540 0.00730 0.46920 -0.00000
H 	H 	0.46760 0.02290 0.43810 0.02500
C 	C 	0.36710 0.92670 0.45040 -0.14100
C 	C 	0.02250 0.11110 0.64960 0.46800
C 	C 	0.09650 0.98300 0.55030 0.01300
H 	H 	0.14190 0.97670 0.57800 0.02900
C 	C 	0.32620 0.91170 0.08330 -0.12600
C 	C 	0.25450 0.90760 0.05350 -0.03700
H 	H 	0.21220 0.87320 0.07900 0.05500
O 	O 	0.02940 0.84680 0.32950 -0.48300
C 	C 	0.01620 0.94970 0.44880 -0.13600
C 	C 	0.08670 0.92880 0.47710 -0.00200
H 	H 	0.12510 0.88340 0.45110 0.04200
C 	C 	0.98330 0.90480 0.37470 0.46500
Er	Er	0.32147 0.62013 0.27263 1.85900
Er	Er	0.02092 0.65887 0.25839 1.81000
O 	O 	0.42100 0.60490 0.19550 -0.55500
O 	O 	0.58550 0.42770 0.86280 -0.51200
O 	O 	0.24780 0.55100 0.16870 -0.49600
O 	O 	0.19760 0.27990 0.86840 -0.46300
O 	O 	0.21590 0.56280 0.33250 -0.55900
C 	C 	0.17960 0.56780 0.15200 0.48500
O 	O 	0.12980 0.62030 0.19560 -0.52400
O 	O 	0.09290 0.58810 0.36460 -0.50300
C 	C 	0.16100 0.56170 0.37790 0.52300
C 	C 	0.18000 0.50570 0.45460 -0.16800
C 	C 	0.24870 0.46090 0.48010 0.03300
H 	H 	0.29370 0.46530 0.45150 0.01100
C 	C 	0.15140 0.52540 0.07620 -0.15400
S 	S 	0.20251 0.42110 0.01899 0.06200
O 	O 	0.07410 0.38450 0.67030 -0.50600
C 	C 	0.13890 0.34570 0.87890 0.46800
O 	O 	0.19160 0.30930 0.70140 -0.48000
O 	O 	0.08370 0.35280 0.83340 -0.55100
C 	C 	0.14470 0.36660 0.65770 0.45700
S 	S 	0.10997 0.48430 0.52158 0.07500
S 	S 	0.54056 0.53770 0.01085 0.05900
O 	O 	0.53640 0.67610 0.16300 -0.44800
C 	C 	0.08460 0.56570 0.04160 -0.01600
H 	H 	0.05000 0.62460 0.06340 0.03400
C 	C 	0.46720 0.54530 0.07600 -0.14300
C 	C 	0.07460 0.50730 0.96920 0.02200
H 	H 	0.03240 0.52290 0.93810 0.02100
C 	C 	0.13290 0.42670 0.95040 -0.13600
C 	C 	0.47750 0.61110 0.14960 0.46200
C 	C 	0.40350 0.48300 0.05030 -0.01400
H 	H 	0.35810 0.47670 0.07800 0.03700
C 	C 	0.17380 0.41170 0.58330 -0.13400
C 	C 	0.24550 0.40760 0.55350 -0.01500
H 	H 	0.28780 0.37320 0.57900 0.04800
O 	O 	0.47060 0.34680 0.82950 -0.48400
C 	C 	0.48380 0.44970 0.94880 -0.13400
C 	C 	0.41330 0.42880 0.97710 0.02100
H 	H 	0.37490 0.38340 0.95110 0.03700
C 	C 	0.51670 0.40480 0.87470 0.46800
Er	Er	0.67854 0.37987 0.77263 1.86100
Er	Er	0.97908 0.34113 0.75839 1.81100
O 	O 	0.57900 0.39510 0.69550 -0.55600
O 	O 	0.41450 0.57230 0.36280 -0.51500
O 	O 	0.75220 0.44900 0.66870 -0.49600
O 	O 	0.80240 0.72010 0.36840 -0.46500
O 	O 	0.78410 0.43720 0.83250 -0.55900
C 	C 	0.82040 0.43220 0.65200 0.49000
O 	O 	0.87020 0.37970 0.69560 -0.52400
O 	O 	0.90710 0.41190 0.86460 -0.50200
C 	C 	0.83900 0.43830 0.87790 0.52300
C 	C 	0.82000 0.49430 0.95460 -0.16300
C 	C 	0.75130 0.53910 0.98010 0.05200
H 	H 	0.70630 0.53470 0.95150 0.00700
C 	C 	0.84860 0.47460 0.57620 -0.16200
S 	S 	0.79749 0.57890 0.51899 0.07900
O 	O 	0.92590 0.61550 0.17030 -0.50600
C 	C 	0.86110 0.65430 0.37890 0.46800
O 	O 	0.80840 0.69070 0.20140 -0.47900
O 	O 	0.91630 0.64720 0.33340 -0.55100
C 	C 	0.85530 0.63340 0.15770 0.45300
S 	S 	0.89003 0.51570 0.02158 0.06000
S 	S 	0.45944 0.46230 0.51085 0.07400
O 	O 	0.46360 0.32390 0.66300 -0.44900
C 	C 	0.91540 0.43430 0.54160 0.00700
H 	H 	0.95000 0.37540 0.56340 0.02700
C 	C 	0.53280 0.45470 0.57600 -0.15200
C 	C 	0.92540 0.49270 0.46920 0.00200
H 	H 	0.96760 0.47710 0.43810 0.02500
C 	C 	0.86710 0.57330 0.45040 -0.14200
C 	C 	0.52250 0.38890 0.64960 0.46700
C 	C 	0.59650 0.51700 0.55030 0.01000
H 	H 	0.64190 0.52330 0.57800 0.03000
C 	C 	0.82620 0.58830 0.08330 -0.12600
C 	C 	0.75450 0.59240 0.05350 -0.03700
H 	H 	0.71220 0.62680 0.07900 0.05500
O 	O 	0.52940 0.65320 0.32950 -0.48500
C 	C 	0.51620 0.55030 0.44880 -0.13900
C 	C 	0.58670 0.57120 0.47710 0.00100
H 	H 	0.62510 0.61660 0.45110 0.04100
C 	C 	0.48330 0.59520 0.37470 0.46700
