data_crystal

_cell_length_a 17.26190
_cell_length_b 10.03910
_cell_length_c 17.59960
_cell_angle_alpha 90.00000
_cell_angle_beta  90.00000
_cell_angle_gamma 90.00000

_symmetry_space_group_name_	'P 1'
_symmetry_space_group_name_H-M	'P 1'

loop_
_symmetry_equiv_pos_as_xyz
  x,y,z

loop_
_atom_site_label
_atom_site_type_symbol
_atom_site_fract_x
_atom_site_fract_y
_atom_site_fract_z
_atom_site_charge
Tm	Tm	0.82167 0.88721 0.27328 1.56500
Tm	Tm	0.52152 0.84050 0.25798 1.55400
O 	O 	0.92080 0.89710 0.19510 -0.47500
O 	O 	0.08290 0.06870 0.86050 -0.44300
O 	O 	0.74910 0.96230 0.16940 -0.41700
O 	O 	0.69620 0.23030 0.86900 -0.39900
O 	O 	0.71560 0.94800 0.33140 -0.47200
C 	C 	0.67970 0.93900 0.15290 0.38800
O 	O 	0.63170 0.88030 0.19620 -0.44700
O 	O 	0.59210 0.91630 0.36350 -0.42400
C 	C 	0.66140 0.95060 0.37760 0.42000
C 	C 	0.67990 0.00490 0.45380 -0.12900
C 	C 	0.75020 0.05250 0.47780 0.01300
H 	H 	0.79480 0.05040 0.44830 0.02400
C 	C 	0.65020 0.98020 0.07720 -0.11400
S 	S 	0.70067 0.09240 0.02162 0.05800
O 	O 	0.57560 0.11860 0.67230 -0.44000
C 	C 	0.63790 0.15890 0.87980 0.39300
O 	O 	0.69430 0.19580 0.70310 -0.40700
O 	O 	0.58210 0.15040 0.83350 -0.47600
C 	C 	0.64670 0.13900 0.65910 0.37600
S 	S 	0.61014 0.02050 0.52289 0.06500
S 	S 	0.03828 0.95890 0.00787 0.05600
O 	O 	0.03600 0.81990 0.16060 -0.39100
C 	C 	0.58420 0.93660 0.04260 -0.03100
H 	H 	0.55010 0.87530 0.06390 0.04600
C 	C 	0.96530 0.95230 0.07380 -0.10700
C 	C 	0.57400 0.99610 0.97030 0.01600
H 	H 	0.53170 0.97850 0.93920 0.03200
C 	C 	0.63140 0.08090 0.95080 -0.11200
C 	C 	0.97600 0.88500 0.14730 0.38400
C 	C 	0.89870 0.01360 0.04900 -0.02700
H 	H 	0.85320 0.01900 0.07710 0.05100
C 	C 	0.67510 0.09470 0.58320 -0.09700
C 	C 	0.74760 0.10560 0.55290 -0.02000
H 	H 	0.78980 0.14280 0.57800 0.05700
O 	O 	0.96670 0.15190 0.82720 -0.42000
C 	C 	0.98000 0.04610 0.94560 -0.10300
C 	C 	0.90840 0.06800 0.97490 0.01300
H 	H 	0.86960 0.11380 0.94910 0.04700
C 	C 	0.01290 0.09170 0.87190 0.39100
Tm	Tm	0.17833 0.11279 0.77328 1.56500
Tm	Tm	0.47848 0.15950 0.75798 1.55500
O 	O 	0.07920 0.10290 0.69510 -0.47500
O 	O 	0.91710 0.93130 0.36050 -0.44400
O 	O 	0.25090 0.03770 0.66940 -0.41700
O 	O 	0.30380 0.76970 0.36900 -0.40100
O 	O 	0.28440 0.05200 0.83140 -0.47200
C 	C 	0.32030 0.06100 0.65290 0.39100
O 	O 	0.36830 0.11970 0.69620 -0.44800
O 	O 	0.40790 0.08370 0.86350 -0.42200
C 	C 	0.33860 0.04940 0.87760 0.41900
C 	C 	0.32010 0.99510 0.95380 -0.12400
C 	C 	0.24980 0.94750 0.97780 0.03000
H 	H 	0.20520 0.94960 0.94830 0.02200
C 	C 	0.34980 0.01980 0.57720 -0.12100
S 	S 	0.29933 0.90760 0.52162 0.07200
O 	O 	0.42440 0.88140 0.17230 -0.43900
C 	C 	0.36210 0.84110 0.37980 0.39300
O 	O 	0.30570 0.80420 0.20310 -0.40600
O 	O 	0.41790 0.84960 0.33350 -0.47700
C 	C 	0.35330 0.86100 0.15910 0.37300
S 	S 	0.38986 0.97950 0.02289 0.05200
S 	S 	0.96172 0.04110 0.50787 0.06800
O 	O 	0.96400 0.18010 0.66060 -0.39100
C 	C 	0.41580 0.06340 0.54260 -0.01200
H 	H 	0.44990 0.12470 0.56390 0.04000
C 	C 	0.03470 0.04770 0.57380 -0.11500
C 	C 	0.42600 0.00390 0.47030 -0.00100
H 	H 	0.46830 0.02150 0.43920 0.03500
C 	C 	0.36860 0.91910 0.45080 -0.11600
C 	C 	0.02400 0.11500 0.64730 0.38700
C 	C 	0.10130 0.98640 0.54900 -0.00800
H 	H 	0.14680 0.98100 0.57710 0.04600
C 	C 	0.32490 0.90530 0.08320 -0.09000
C 	C 	0.25240 0.89440 0.05290 -0.03800
H 	H 	0.21020 0.85720 0.07800 0.06200
O 	O 	0.03330 0.84810 0.32720 -0.41900
C 	C 	0.02000 0.95390 0.44560 -0.10500
C 	C 	0.09160 0.93200 0.47490 -0.00400
H 	H 	0.13040 0.88620 0.44910 0.05000
C 	C 	0.98710 0.90830 0.37190 0.38800
Tm	Tm	0.32167 0.61279 0.27328 1.56500
Tm	Tm	0.02152 0.65950 0.25798 1.55500
O 	O 	0.42080 0.60290 0.19510 -0.47500
O 	O 	0.58290 0.43130 0.86050 -0.44200
O 	O 	0.24910 0.53770 0.16940 -0.41600
O 	O 	0.19620 0.26970 0.86900 -0.39900
O 	O 	0.21560 0.55200 0.33140 -0.47200
C 	C 	0.17970 0.56100 0.15290 0.38800
O 	O 	0.13170 0.61970 0.19620 -0.44700
O 	O 	0.09210 0.58370 0.36350 -0.42400
C 	C 	0.16140 0.54940 0.37760 0.42000
C 	C 	0.17990 0.49510 0.45380 -0.12900
C 	C 	0.25020 0.44750 0.47780 0.01300
H 	H 	0.29480 0.44960 0.44830 0.02400
C 	C 	0.15020 0.51980 0.07720 -0.11300
S 	S 	0.20067 0.40760 0.02162 0.05700
O 	O 	0.07560 0.38140 0.67230 -0.43900
C 	C 	0.13790 0.34110 0.87980 0.39300
O 	O 	0.19430 0.30420 0.70310 -0.40700
O 	O 	0.08210 0.34960 0.83350 -0.47600
C 	C 	0.14670 0.36100 0.65910 0.37600
S 	S 	0.11014 0.47950 0.52289 0.06500
S 	S 	0.53828 0.54110 0.00787 0.05400
O 	O 	0.53600 0.68010 0.16060 -0.39100
C 	C 	0.08420 0.56340 0.04260 -0.03300
H 	H 	0.05010 0.62470 0.06390 0.04700
C 	C 	0.46530 0.54770 0.07380 -0.10600
C 	C 	0.07400 0.50390 0.97030 0.01800
H 	H 	0.03170 0.52150 0.93920 0.03200
C 	C 	0.13140 0.41910 0.95080 -0.11200
C 	C 	0.47600 0.61500 0.14730 0.38300
C 	C 	0.39870 0.48640 0.04900 -0.03000
H 	H 	0.35320 0.48100 0.07710 0.05200
C 	C 	0.17510 0.40530 0.58320 -0.09700
C 	C 	0.24760 0.39440 0.55290 -0.02000
H 	H 	0.28980 0.35720 0.57800 0.05700
O 	O 	0.46670 0.34810 0.82720 -0.42000
C 	C 	0.48000 0.45390 0.94560 -0.10300
C 	C 	0.40840 0.43200 0.97490 0.01500
H 	H 	0.36960 0.38620 0.94910 0.04600
C 	C 	0.51290 0.40830 0.87190 0.39000
Tm	Tm	0.67833 0.38721 0.77328 1.56500
Tm	Tm	0.97848 0.34050 0.75798 1.55500
O 	O 	0.57920 0.39710 0.69510 -0.47500
O 	O 	0.41710 0.56870 0.36050 -0.44400
O 	O 	0.75090 0.46230 0.66940 -0.41700
O 	O 	0.80380 0.73030 0.36900 -0.40100
O 	O 	0.78440 0.44800 0.83140 -0.47200
C 	C 	0.82030 0.43900 0.65290 0.39100
O 	O 	0.86830 0.38030 0.69620 -0.44700
O 	O 	0.90790 0.41630 0.86350 -0.42200
C 	C 	0.83860 0.45060 0.87760 0.42000
C 	C 	0.82010 0.50490 0.95380 -0.12500
C 	C 	0.74980 0.55250 0.97780 0.02900
H 	H 	0.70520 0.55040 0.94830 0.02100
C 	C 	0.84980 0.48020 0.57720 -0.12000
S 	S 	0.79933 0.59240 0.52162 0.07100
O 	O 	0.92440 0.61860 0.17230 -0.43900
C 	C 	0.86210 0.65890 0.37980 0.39300
O 	O 	0.80570 0.69580 0.20310 -0.40600
O 	O 	0.91790 0.65040 0.33350 -0.47700
C 	C 	0.85330 0.63900 0.15910 0.37300
S 	S 	0.88986 0.52050 0.02289 0.05200
S 	S 	0.46172 0.45890 0.50787 0.06700
O 	O 	0.46400 0.31990 0.66060 -0.39100
C 	C 	0.91580 0.43660 0.54260 -0.01300
H 	H 	0.94990 0.37530 0.56390 0.04100
C 	C 	0.53470 0.45230 0.57380 -0.11300
C 	C 	0.92600 0.49610 0.47030 0.00000
H 	H 	0.96830 0.47850 0.43920 0.03500
C 	C 	0.86860 0.58090 0.45080 -0.11700
C 	C 	0.52400 0.38500 0.64730 0.38700
C 	C 	0.60130 0.51360 0.54900 -0.01100
H 	H 	0.64680 0.51900 0.57710 0.04700
C 	C 	0.82490 0.59470 0.08320 -0.09100
C 	C 	0.75240 0.60560 0.05290 -0.03700
H 	H 	0.71020 0.64280 0.07800 0.06200
O 	O 	0.53330 0.65190 0.32720 -0.42000
C 	C 	0.52000 0.54610 0.44560 -0.10800
C 	C 	0.59160 0.56800 0.47490 -0.00200
H 	H 	0.63040 0.61380 0.44910 0.04900
C 	C 	0.48710 0.59170 0.37190 0.39000
