data_crystal

_cell_length_a 17.43930
_cell_length_b 10.14830
_cell_length_c 17.57710
_cell_angle_alpha 90.00000
_cell_angle_beta  90.00000
_cell_angle_gamma 90.00000

_symmetry_space_group_name_	'P 1'
_symmetry_space_group_name_H-M	'P 1'

loop_
_symmetry_equiv_pos_as_xyz
  x,y,z

loop_
_atom_site_label
_atom_site_type_symbol
_atom_site_fract_x
_atom_site_fract_y
_atom_site_fract_z
_atom_site_charge
Y 	Y 	0.82157 0.88070 0.27247 2.38800
Y 	Y 	0.52110 0.84112 0.25859 2.38500
O 	O 	0.92170 0.89520 0.19530 -0.67800
O 	O 	0.08550 0.07130 0.86330 -0.59500
O 	O 	0.74760 0.95030 0.16840 -0.57500
O 	O 	0.69790 0.22040 0.86810 -0.52900
O 	O 	0.71560 0.93680 0.33270 -0.66600
C 	C 	0.67910 0.93290 0.15100 0.50400
O 	O 	0.63010 0.88040 0.19450 -0.63400
O 	O 	0.59340 0.91070 0.36480 -0.58900
C 	C 	0.66160 0.94100 0.37820 0.54200
C 	C 	0.67990 0.99570 0.45460 -0.18300
C 	C 	0.74790 0.04010 0.48100 0.04100
H 	H 	0.79290 0.03440 0.45280 -0.00100
C 	C 	0.65150 0.97450 0.07580 -0.16900
S 	S 	0.70226 0.07861 0.01865 0.06900
O 	O 	0.57420 0.11630 0.67030 -0.60300
C 	C 	0.63930 0.15240 0.87880 0.47100
O 	O 	0.69120 0.19050 0.70140 -0.56400
O 	O 	0.58320 0.14740 0.83370 -0.67100
C 	C 	0.64440 0.13610 0.65680 0.46400
S 	S 	0.61029 0.01597 0.52150 0.07400
S 	S 	0.04062 0.96204 0.01107 0.06200
O 	O 	0.03610 0.82390 0.16270 -0.52900
C 	C 	0.58380 0.93640 0.04160 -0.01500
H 	H 	0.54860 0.87920 0.06370 0.02600
C 	C 	0.96760 0.95520 0.07560 -0.14400
C 	C 	0.57430 0.99380 0.96990 0.02200
H 	H 	0.53200 0.97820 0.93890 0.01500
C 	C 	0.63290 0.07420 0.95010 -0.14300
C 	C 	0.97710 0.88700 0.14920 0.48400
C 	C 	0.90340 0.01780 0.05020 -0.01700
H 	H 	0.85820 0.02450 0.07790 0.03400
C 	C 	0.67310 0.08840 0.58270 -0.13200
C 	C 	0.74570 0.09490 0.55370 -0.02000
H 	H 	0.78770 0.13080 0.57890 0.05200
O 	O 	0.97000 0.15190 0.82970 -0.57600
C 	C 	0.98390 0.05000 0.94870 -0.13400
C 	C 	0.91370 0.07050 0.97790 0.02300
H 	H 	0.87540 0.11580 0.95200 0.03700
C 	C 	0.01590 0.09380 0.87430 0.47100
Y 	Y 	0.17843 0.11930 0.77247 2.38900
Y 	Y 	0.47890 0.15888 0.75859 2.38500
O 	O 	0.07830 0.10480 0.69530 -0.67900
O 	O 	0.91450 0.92870 0.36330 -0.59600
O 	O 	0.25240 0.04970 0.66840 -0.57600
O 	O 	0.30210 0.77960 0.36810 -0.53100
O 	O 	0.28440 0.06320 0.83270 -0.66600
C 	C 	0.32090 0.06710 0.65100 0.50800
O 	O 	0.36990 0.11960 0.69450 -0.63400
O 	O 	0.40660 0.08930 0.86480 -0.58700
C 	C 	0.33840 0.05900 0.87820 0.54300
C 	C 	0.32010 0.00430 0.95460 -0.18000
C 	C 	0.25210 0.95990 0.98100 0.06300
H 	H 	0.20710 0.96560 0.95280 -0.00400
C 	C 	0.34850 0.02550 0.57580 -0.17800
S 	S 	0.29774 0.92139 0.51865 0.08600
O 	O 	0.42580 0.88370 0.17030 -0.60200
C 	C 	0.36070 0.84760 0.37880 0.47100
O 	O 	0.30880 0.80950 0.20140 -0.56300
O 	O 	0.41680 0.85260 0.33370 -0.67200
C 	C 	0.35560 0.86390 0.15680 0.46000
S 	S 	0.38971 0.98403 0.02150 0.06100
S 	S 	0.95938 0.03796 0.51107 0.07600
O 	O 	0.96390 0.17610 0.66270 -0.53000
C 	C 	0.41620 0.06360 0.54160 0.00600
H 	H 	0.45140 0.12080 0.56370 0.01900
C 	C 	0.03240 0.04480 0.57560 -0.15600
C 	C 	0.42570 0.00620 0.46990 0.00300
H 	H 	0.46800 0.02180 0.43890 0.01800
C 	C 	0.36710 0.92580 0.45010 -0.14800
C 	C 	0.02290 0.11300 0.64920 0.48900
C 	C 	0.09660 0.98220 0.55020 0.00900
H 	H 	0.14180 0.97550 0.57790 0.02700
C 	C 	0.32690 0.91160 0.08270 -0.12300
C 	C 	0.25430 0.90510 0.05370 -0.04400
H 	H 	0.21230 0.86920 0.07890 0.05900
O 	O 	0.03000 0.84810 0.32970 -0.57400
C 	C 	0.01610 0.95000 0.44870 -0.13400
C 	C 	0.08630 0.92950 0.47790 0.00100
H 	H 	0.12460 0.88420 0.45200 0.04200
C 	C 	0.98410 0.90620 0.37430 0.46700
Y 	Y 	0.32157 0.61930 0.27247 2.38900
Y 	Y 	0.02110 0.65888 0.25859 2.38500
O 	O 	0.42170 0.60480 0.19530 -0.67800
O 	O 	0.58550 0.42870 0.86330 -0.59400
O 	O 	0.24760 0.54970 0.16840 -0.57500
O 	O 	0.19790 0.27960 0.86810 -0.52800
O 	O 	0.21560 0.56320 0.33270 -0.66600
C 	C 	0.17910 0.56710 0.15100 0.50300
O 	O 	0.13010 0.61960 0.19450 -0.63400
O 	O 	0.09340 0.58930 0.36480 -0.58900
C 	C 	0.16160 0.55900 0.37820 0.54300
C 	C 	0.17990 0.50430 0.45460 -0.18400
C 	C 	0.24790 0.45990 0.48100 0.04200
H 	H 	0.29290 0.46560 0.45280 -0.00100
C 	C 	0.15150 0.52550 0.07580 -0.16800
S 	S 	0.20226 0.42139 0.01865 0.06800
O 	O 	0.07420 0.38370 0.67030 -0.60200
C 	C 	0.13930 0.34760 0.87880 0.47100
O 	O 	0.19120 0.30950 0.70140 -0.56400
O 	O 	0.08320 0.35260 0.83370 -0.67100
C 	C 	0.14440 0.36390 0.65680 0.46400
S 	S 	0.11029 0.48403 0.52150 0.07600
S 	S 	0.54062 0.53796 0.01107 0.06100
O 	O 	0.53610 0.67610 0.16270 -0.52900
C 	C 	0.08380 0.56360 0.04160 -0.02000
H 	H 	0.04860 0.62080 0.06370 0.02700
C 	C 	0.46760 0.54480 0.07560 -0.14500
C 	C 	0.07430 0.50620 0.96990 0.02700
H 	H 	0.03200 0.52180 0.93890 0.01400
C 	C 	0.13290 0.42580 0.95010 -0.14300
C 	C 	0.47710 0.61300 0.14920 0.48300
C 	C 	0.40340 0.48220 0.05020 -0.01900
H 	H 	0.35820 0.47550 0.07790 0.03500
C 	C 	0.17310 0.41160 0.58270 -0.13200
C 	C 	0.24570 0.40510 0.55370 -0.02100
H 	H 	0.28770 0.36920 0.57890 0.05200
O 	O 	0.47000 0.34810 0.82970 -0.57500
C 	C 	0.48390 0.45000 0.94870 -0.13300
C 	C 	0.41370 0.42950 0.97790 0.02500
H 	H 	0.37540 0.38420 0.95200 0.03700
C 	C 	0.51590 0.40620 0.87430 0.46800
Y 	Y 	0.67843 0.38070 0.77247 2.38900
Y 	Y 	0.97890 0.34112 0.75859 2.38500
O 	O 	0.57830 0.39520 0.69530 -0.67900
O 	O 	0.41450 0.57130 0.36330 -0.59700
O 	O 	0.75240 0.45030 0.66840 -0.57500
O 	O 	0.80210 0.72040 0.36810 -0.53100
O 	O 	0.78440 0.43680 0.83270 -0.66600
C 	C 	0.82090 0.43290 0.65100 0.50700
O 	O 	0.86990 0.38040 0.69450 -0.63400
O 	O 	0.90660 0.41070 0.86480 -0.58700
C 	C 	0.83840 0.44100 0.87820 0.54300
C 	C 	0.82010 0.49570 0.95460 -0.18000
C 	C 	0.75210 0.54010 0.98100 0.06000
H 	H 	0.70710 0.53440 0.95280 -0.00400
C 	C 	0.84850 0.47450 0.57580 -0.17700
S 	S 	0.79774 0.57861 0.51865 0.08500
O 	O 	0.92580 0.61630 0.17030 -0.60200
C 	C 	0.86070 0.65240 0.37880 0.47100
O 	O 	0.80880 0.69050 0.20140 -0.56300
O 	O 	0.91680 0.64740 0.33370 -0.67200
C 	C 	0.85560 0.63610 0.15680 0.46000
S 	S 	0.88971 0.51597 0.02150 0.06200
S 	S 	0.45938 0.46204 0.51107 0.07600
O 	O 	0.46390 0.32390 0.66270 -0.53000
C 	C 	0.91620 0.43640 0.54160 0.00500
H 	H 	0.95140 0.37920 0.56370 0.02000
C 	C 	0.53240 0.45520 0.57560 -0.15400
C 	C 	0.92570 0.49380 0.46990 0.00500
H 	H 	0.96800 0.47820 0.43890 0.01800
C 	C 	0.86710 0.57420 0.45010 -0.14900
C 	C 	0.52290 0.38700 0.64920 0.48700
C 	C 	0.59660 0.51780 0.55020 0.00500
H 	H 	0.64180 0.52450 0.57790 0.02700
C 	C 	0.82690 0.58840 0.08270 -0.12400
C 	C 	0.75430 0.59490 0.05370 -0.04100
H 	H 	0.71230 0.63080 0.07890 0.05800
O 	O 	0.53000 0.65190 0.32970 -0.57500
C 	C 	0.51610 0.55000 0.44870 -0.13700
C 	C 	0.58630 0.57050 0.47790 0.00300
H 	H 	0.62460 0.61580 0.45200 0.04200
C 	C 	0.48410 0.59380 0.37430 0.46800
