data_crystal

_cell_length_a 21.29280
_cell_length_b 21.29280
_cell_length_c 10.73040
_cell_angle_alpha 90.00000
_cell_angle_beta  90.00000
_cell_angle_gamma 90.00000

_symmetry_space_group_name_	'P 1'
_symmetry_space_group_name_H-M	'P 1'

loop_
_symmetry_equiv_pos_as_xyz
  x,y,z

loop_
_atom_site_label
_atom_site_type_symbol
_atom_site_fract_x
_atom_site_fract_y
_atom_site_fract_z
_atom_site_charge
Al	Al	0.25540 0.31380 0.24430 2.39900
O 	O 	0.24870 0.25940 0.38050 -0.83800
C 	C 	0.05640 0.33240 0.25860 -0.21400
C 	C 	0.93950 0.37490 0.34530 0.11500
C 	C 	0.11880 0.31410 0.21030 0.57900
C 	C 	0.05240 0.37560 0.35850 0.11500
C 	C 	0.00080 0.31000 0.20300 0.18900
C 	C 	0.88310 0.31260 0.18260 0.53700
C 	C 	0.94200 0.33170 0.24520 -0.18500
C 	C 	0.99430 0.39640 0.40150 -0.05100
O 	O 	0.16850 0.33180 0.25900 -0.67800
O 	O 	0.83530 0.32960 0.24990 -0.64600
O 	O 	0.88490 0.26650 0.11490 -0.61900
O 	O 	0.12050 0.27730 0.11570 -0.59700
C 	C 	0.55780 0.26880 0.20510 -0.20500
C 	C 	0.44520 0.27300 0.07070 0.14100
C 	C 	0.61640 0.27520 0.27560 0.58200
C 	C 	0.55820 0.27780 0.07450 0.13500
C 	C 	0.50070 0.26020 0.26770 0.18600
C 	C 	0.38400 0.26520 0.26780 0.60100
C 	C 	0.44420 0.26390 0.20130 -0.22200
C 	C 	0.50210 0.27970 0.00780 -0.02200
O 	O 	0.65750 0.31090 0.23500 -0.70800
O 	O 	0.34300 0.29910 0.22130 -0.67700
O 	O 	0.37690 0.23620 0.36950 -0.66300
O 	O 	0.61520 0.23830 0.36430 -0.64100
Al	Al	0.74570 0.31980 0.24330 2.39600
O 	O 	0.74560 0.25840 0.37480 -0.80700
Al	Al	0.75540 0.81380 0.74430 2.39700
O 	O 	0.74870 0.75940 0.88050 -0.86400
C 	C 	0.55640 0.83240 0.75860 -0.22000
C 	C 	0.43950 0.87490 0.84530 0.10000
C 	C 	0.61880 0.81410 0.71030 0.57400
C 	C 	0.55240 0.87560 0.85850 0.09800
C 	C 	0.50080 0.81000 0.70300 0.16700
C 	C 	0.38310 0.81260 0.68260 0.53000
C 	C 	0.44200 0.83170 0.74520 -0.19100
C 	C 	0.49430 0.89640 0.90150 -0.06900
O 	O 	0.66850 0.83180 0.75900 -0.69100
O 	O 	0.33530 0.82960 0.74990 -0.65700
O 	O 	0.38490 0.76650 0.61490 -0.65500
O 	O 	0.62050 0.77730 0.61570 -0.62200
C 	C 	0.05780 0.76880 0.70510 -0.20700
C 	C 	0.94520 0.77300 0.57070 0.12000
C 	C 	0.11640 0.77520 0.77560 0.57900
C 	C 	0.05820 0.77780 0.57450 0.11500
C 	C 	0.00070 0.76020 0.76770 0.16500
C 	C 	0.88400 0.76520 0.76780 0.59700
C 	C 	0.94420 0.76390 0.70130 -0.22400
C 	C 	0.00210 0.77970 0.50780 -0.04900
O 	O 	0.15750 0.81090 0.73500 -0.71700
O 	O 	0.84300 0.79910 0.72130 -0.69000
O 	O 	0.87690 0.73620 0.86950 -0.68700
O 	O 	0.11520 0.73830 0.86430 -0.65700
Al	Al	0.24570 0.81980 0.74330 2.39500
O 	O 	0.24560 0.75840 0.87480 -0.82600
Al	Al	0.24460 0.18620 0.74430 2.39700
O 	O 	0.25130 0.24060 0.88050 -0.86400
C 	C 	0.44360 0.16760 0.75860 -0.22000
C 	C 	0.56050 0.12510 0.84530 0.10000
C 	C 	0.38120 0.18590 0.71030 0.57400
C 	C 	0.44760 0.12440 0.85850 0.09800
C 	C 	0.49920 0.19000 0.70300 0.16700
C 	C 	0.61690 0.18740 0.68260 0.53000
C 	C 	0.55800 0.16830 0.74520 -0.19100
C 	C 	0.50570 0.10360 0.90150 -0.06900
O 	O 	0.33150 0.16820 0.75900 -0.69100
O 	O 	0.66470 0.17040 0.74990 -0.65700
O 	O 	0.61510 0.23350 0.61490 -0.65500
O 	O 	0.37950 0.22270 0.61570 -0.62200
C 	C 	0.94220 0.23120 0.70510 -0.20700
C 	C 	0.05480 0.22700 0.57070 0.12000
C 	C 	0.88360 0.22480 0.77560 0.57900
C 	C 	0.94180 0.22220 0.57450 0.11500
C 	C 	0.99930 0.23980 0.76770 0.16500
C 	C 	0.11600 0.23480 0.76780 0.59700
C 	C 	0.05580 0.23610 0.70130 -0.22400
C 	C 	0.99790 0.22030 0.50780 -0.04900
O 	O 	0.84250 0.18910 0.73500 -0.71700
O 	O 	0.15700 0.20090 0.72130 -0.69000
O 	O 	0.12310 0.26380 0.86950 -0.68700
O 	O 	0.88480 0.26170 0.86430 -0.65700
Al	Al	0.75430 0.18020 0.74330 2.39500
O 	O 	0.75440 0.24160 0.87480 -0.82600
Al	Al	0.74460 0.68620 0.24430 2.39800
O 	O 	0.75130 0.74060 0.38050 -0.83900
C 	C 	0.94360 0.66760 0.25860 -0.21500
C 	C 	0.06050 0.62510 0.34530 0.11400
C 	C 	0.88120 0.68590 0.21030 0.57800
C 	C 	0.94760 0.62440 0.35850 0.11400
C 	C 	0.99920 0.69000 0.20300 0.18800
C 	C 	0.11690 0.68740 0.18260 0.53600
C 	C 	0.05800 0.66830 0.24520 -0.18600
C 	C 	0.00570 0.60360 0.40150 -0.05200
O 	O 	0.83150 0.66820 0.25900 -0.67900
O 	O 	0.16470 0.67040 0.24990 -0.64700
O 	O 	0.11510 0.73350 0.11490 -0.61900
O 	O 	0.87950 0.72270 0.11570 -0.59700
C 	C 	0.44220 0.73120 0.20510 -0.20500
C 	C 	0.55480 0.72700 0.07070 0.14100
C 	C 	0.38360 0.72480 0.27560 0.58200
C 	C 	0.44180 0.72220 0.07450 0.13500
C 	C 	0.49930 0.73980 0.26770 0.18600
C 	C 	0.61600 0.73480 0.26780 0.60100
C 	C 	0.55580 0.73610 0.20130 -0.22200
C 	C 	0.49790 0.72030 0.00780 -0.02200
O 	O 	0.34250 0.68910 0.23500 -0.70800
O 	O 	0.65700 0.70090 0.22130 -0.67700
O 	O 	0.62310 0.76380 0.36950 -0.66300
O 	O 	0.38480 0.76170 0.36430 -0.64100
Al	Al	0.25430 0.68020 0.24330 2.39600
O 	O 	0.25440 0.74160 0.37480 -0.80700
Al	Al	0.68620 0.75540 0.49430 2.39800
O 	O 	0.74060 0.74870 0.63050 -0.84200
C 	C 	0.66760 0.55640 0.50860 -0.21600
C 	C 	0.62510 0.43950 0.59530 0.10700
C 	C 	0.68590 0.61880 0.46030 0.57600
C 	C 	0.62440 0.55240 0.60850 0.10600
C 	C 	0.69000 0.50080 0.45300 0.17400
C 	C 	0.68740 0.38310 0.43260 0.53100
C 	C 	0.66830 0.44200 0.49520 -0.18700
C 	C 	0.60360 0.49430 0.65150 -0.06200
O 	O 	0.66820 0.66850 0.50900 -0.68500
O 	O 	0.67040 0.33530 0.49990 -0.65300
O 	O 	0.73350 0.38490 0.36490 -0.64900
O 	O 	0.72270 0.62050 0.36570 -0.61800
C 	C 	0.73120 0.05780 0.45510 -0.20700
C 	C 	0.72700 0.94520 0.32070 0.12700
C 	C 	0.72480 0.11640 0.52560 0.58100
C 	C 	0.72220 0.05820 0.32450 0.12400
C 	C 	0.73980 0.00070 0.51770 0.18100
C 	C 	0.73480 0.88400 0.51780 0.60000
C 	C 	0.73610 0.94420 0.45130 -0.22300
C 	C 	0.72030 0.00210 0.25780 -0.03200
O 	O 	0.68910 0.15750 0.48500 -0.71300
O 	O 	0.70090 0.84300 0.47130 -0.68300
O 	O 	0.76380 0.87690 0.61950 -0.66800
O 	O 	0.76170 0.11520 0.61430 -0.64400
Al	Al	0.68020 0.24570 0.49330 2.39500
O 	O 	0.74160 0.24560 0.62480 -0.81100
Al	Al	0.18620 0.25540 0.99430 2.39300
O 	O 	0.24060 0.24870 0.13050 -0.81800
C 	C 	0.16760 0.05640 0.00860 -0.04500
C 	C 	0.12510 0.93950 0.09530 0.18100
C 	C 	0.18590 0.11880 0.96030 0.39000
C 	C 	0.12440 0.05240 0.10850 0.08300
C 	C 	0.19000 0.00080 0.95300 0.08600
C 	C 	0.18740 0.88310 0.93260 0.54500
C 	C 	0.16830 0.94200 0.99520 -0.24400
C 	C 	0.10360 0.99430 0.15150 -0.04600
O 	O 	0.16820 0.16850 0.00900 -0.57400
O 	O 	0.17040 0.83530 0.99990 -0.68900
O 	O 	0.23350 0.88490 0.86490 -0.66100
O 	O 	0.22270 0.12050 0.86570 -0.58700
C 	C 	0.23120 0.55780 0.95510 -0.43500
C 	C 	0.22700 0.44520 0.82070 0.19200
C 	C 	0.22480 0.61640 0.02560 0.79100
C 	C 	0.22220 0.55820 0.82450 0.18600
C 	C 	0.23980 0.50070 0.01770 0.39800
C 	C 	0.23480 0.38400 0.01780 0.80600
C 	C 	0.23610 0.44420 0.95130 -0.45100
C 	C 	0.22030 0.50210 0.75780 -0.10500
O 	O 	0.18910 0.65750 0.98500 -0.83000
O 	O 	0.20090 0.34300 0.97130 -0.79700
O 	O 	0.26380 0.37690 0.11950 -0.70900
O 	O 	0.26170 0.61520 0.11430 -0.68900
Al	Al	0.18020 0.74570 0.99330 2.39300
O 	O 	0.24160 0.74560 0.12480 -0.77800
Al	Al	0.81380 0.74460 0.99430 2.39300
O 	O 	0.75940 0.75130 0.13050 -0.81800
C 	C 	0.83240 0.94360 0.00860 -0.04500
C 	C 	0.87490 0.06050 0.09530 0.18100
C 	C 	0.81410 0.88120 0.96030 0.39000
C 	C 	0.87560 0.94760 0.10850 0.08300
C 	C 	0.81000 0.99920 0.95300 0.08600
C 	C 	0.81260 0.11690 0.93260 0.54500
C 	C 	0.83170 0.05800 0.99520 -0.24400
C 	C 	0.89640 0.00570 0.15150 -0.04600
O 	O 	0.83180 0.83150 0.00900 -0.57400
O 	O 	0.82960 0.16470 0.99990 -0.68900
O 	O 	0.76650 0.11510 0.86490 -0.66100
O 	O 	0.77730 0.87950 0.86570 -0.58700
C 	C 	0.76880 0.44220 0.95510 -0.43500
C 	C 	0.77300 0.55480 0.82070 0.19200
C 	C 	0.77520 0.38360 0.02560 0.79100
C 	C 	0.77780 0.44180 0.82450 0.18600
C 	C 	0.76020 0.49930 0.01770 0.39800
C 	C 	0.76520 0.61600 0.01780 0.80600
C 	C 	0.76390 0.55580 0.95130 -0.45100
C 	C 	0.77970 0.49790 0.75780 -0.10500
O 	O 	0.81090 0.34250 0.98500 -0.83000
O 	O 	0.79910 0.65700 0.97130 -0.79700
O 	O 	0.73620 0.62310 0.11950 -0.70900
O 	O 	0.73830 0.38480 0.11430 -0.68900
Al	Al	0.81980 0.25430 0.99330 2.39300
O 	O 	0.75840 0.25440 0.12480 -0.77800
Al	Al	0.31380 0.24460 0.49430 2.39800
O 	O 	0.25940 0.25130 0.63050 -0.84200
C 	C 	0.33240 0.44360 0.50860 -0.21600
C 	C 	0.37490 0.56050 0.59530 0.10700
C 	C 	0.31410 0.38120 0.46030 0.57600
C 	C 	0.37560 0.44760 0.60850 0.10600
C 	C 	0.31000 0.49920 0.45300 0.17400
C 	C 	0.31260 0.61690 0.43260 0.53100
C 	C 	0.33170 0.55800 0.49520 -0.18700
C 	C 	0.39640 0.50570 0.65150 -0.06200
O 	O 	0.33180 0.33150 0.50900 -0.68500
O 	O 	0.32960 0.66470 0.49990 -0.65300
O 	O 	0.26650 0.61510 0.36490 -0.64900
O 	O 	0.27730 0.37950 0.36570 -0.61800
C 	C 	0.26880 0.94220 0.45510 -0.20700
C 	C 	0.27300 0.05480 0.32070 0.12700
C 	C 	0.27520 0.88360 0.52560 0.58100
C 	C 	0.27780 0.94180 0.32450 0.12400
C 	C 	0.26020 0.99930 0.51770 0.18100
C 	C 	0.26520 0.11600 0.51780 0.60000
C 	C 	0.26390 0.05580 0.45130 -0.22300
C 	C 	0.27970 0.99790 0.25780 -0.03200
O 	O 	0.31090 0.84250 0.48500 -0.71300
O 	O 	0.29910 0.15700 0.47130 -0.68300
O 	O 	0.23620 0.12310 0.61950 -0.66800
O 	O 	0.23830 0.88480 0.61430 -0.64400
Al	Al	0.31980 0.75430 0.49330 2.39500
O 	O 	0.25840 0.75440 0.62480 -0.81100
