data_crystal

_cell_length_a 8.31040
_cell_length_b 12.45460
_cell_length_c 33.58520
_cell_angle_alpha 90.00000
_cell_angle_beta  90.00000
_cell_angle_gamma 90.00000

_symmetry_space_group_name_	'P 1'
_symmetry_space_group_name_H-M	'P 1'

loop_
_symmetry_equiv_pos_as_xyz
  x,y,z

loop_
_atom_site_label
_atom_site_type_symbol
_atom_site_fract_x
_atom_site_fract_y
_atom_site_fract_z
_atom_site_charge
C 	C 	0.37060 0.57172 0.18486 -0.15400
H 	H 	0.31570 0.52070 0.20340 0.06000
C 	C 	0.48880 0.50387 0.15928 -0.07000
H 	H 	0.44500 0.43090 0.15500 0.03700
H 	H 	0.50570 0.53820 0.13300 0.05400
C 	C 	0.64910 0.49798 0.18251 -0.07200
H 	H 	0.68220 0.42250 0.18690 0.03500
H 	H 	0.73590 0.53620 0.16810 0.03800
C 	C 	0.61040 0.55351 0.22202 -0.12600
H 	H 	0.55050 0.49960 0.23830 0.05700
C 	C 	0.74970 0.59120 0.24768 0.04900
H 	H 	0.81090 0.64750 0.23280 0.00200
C 	C 	0.86370 0.49803 0.25728 -0.14100
H 	H 	0.80040 0.43780 0.26840 0.05200
H 	H 	0.91440 0.47280 0.23230 0.05200
C 	C 	0.99550 0.52864 0.28682 -0.07800
H 	H 	0.07110 0.57910 0.27380 0.03100
H 	H 	0.05660 0.46340 0.29420 0.03400
C 	C 	0.92830 0.58106 0.32468 -0.03600
H 	H 	0.02220 0.60940 0.34000 0.03400
C 	C 	0.84400 0.49860 0.35126 -0.19800
H 	H 	0.75600 0.46440 0.33600 0.08300
H 	H 	0.92200 0.44180 0.35850 0.09000
C 	C 	0.77480 0.54705 0.38911 0.16200
H 	H 	0.86510 0.57530 0.40580 -0.00600
C 	C 	0.66090 0.63873 0.37943 -0.16200
H 	H 	0.62150 0.67210 0.40430 0.08000
H 	H 	0.56700 0.61130 0.36440 0.07900
C 	C 	0.75090 0.72167 0.35454 -0.14800
H 	H 	0.84130 0.75040 0.37050 0.06600
H 	H 	0.67720 0.78210 0.34870 0.06200
C 	C 	0.81810 0.67825 0.31491 0.14900
C 	C 	0.41970 0.68613 0.24983 -0.26000
H 	H 	0.35820 0.62930 0.26370 0.08900
H 	H 	0.34490 0.74590 0.24390 0.08500
C 	C 	0.55440 0.72685 0.27730 0.01400
H 	H 	0.60720 0.78940 0.26460 0.01100
H 	H 	0.50620 0.75150 0.30270 0.01200
C 	C 	0.68210 0.64123 0.28635 -0.13300
H 	H 	0.62440 0.58190 0.30050 0.06300
C 	C 	0.48630 0.64130 0.21077 0.22300
C 	C 	0.23830 0.62348 0.15934 0.12100
H 	H 	0.29110 0.66420 0.13730 0.00400
C 	C 	0.13670 0.53284 0.14079 -0.07800
H 	H 	0.20980 0.48430 0.12600 0.05500
H 	H 	0.08780 0.49070 0.16270 0.03400
C 	C 	0.00250 0.56820 0.11257 -0.28900
H 	H 	0.94120 0.50400 0.10410 0.11000
H 	H 	0.92760 0.61570 0.12730 0.10900
C 	C 	0.06170 0.62693 0.07582 0.37800
O 	O 	0.98675 0.71048 0.06578 -0.37100
O 	O 	0.17957 0.58872 0.05707 -0.30000
C 	C 	0.13130 0.70100 0.18253 -0.46300
H 	H 	0.04450 0.72680 0.16520 0.15300
H 	H 	0.19570 0.76220 0.19170 0.14500
H 	H 	0.08500 0.66400 0.20560 0.14600
C 	C 	0.91870 0.76931 0.29625 -0.48300
H 	H 	0.95970 0.74610 0.27030 0.15400
H 	H 	0.00920 0.78660 0.31380 0.15400
H 	H 	0.85100 0.83310 0.29280 0.15400
C 	C 	0.56000 0.73139 0.18535 -0.56500
H 	H 	0.59640 0.70180 0.15990 0.20200
H 	H 	0.65180 0.76290 0.19950 0.18300
H 	H 	0.47880 0.78690 0.18050 0.18400
O 	O 	0.70074 0.45826 0.40955 -0.24000
C 	C 	0.60960 0.48272 0.44352 0.16600
H 	H 	0.65170 0.55010 0.45590 -0.00500
C 	C 	0.62600 0.39065 0.47276 0.04500
H 	H 	0.55610 0.40510 0.49640 0.03400
C 	C 	0.57050 0.28689 0.45282 0.09900
H 	H 	0.63570 0.27420 0.42820 0.03400
C 	C 	0.39490 0.30308 0.44141 0.07700
H 	H 	0.32870 0.31180 0.46610 0.02700
C 	C 	0.37690 0.40309 0.41523 -0.00300
H 	H 	0.43340 0.39030 0.38940 0.04400
O 	O 	0.44446 0.49645 0.43384 -0.21500
O 	O 	0.78769 0.38071 0.48566 -0.42400
H 	H 	0.80230 0.41940 0.50580 0.23100
O 	O 	0.58729 0.19728 0.47900 -0.44600
H 	H 	0.66850 0.16130 0.47240 0.27700
O 	O 	0.33769 0.21276 0.41928 -0.36900
H 	H 	0.23910 0.20400 0.42370 0.23800
C 	C 	0.20230 0.42950 0.40690 0.10300
H 	H 	0.19680 0.49580 0.39070 0.00200
H 	H 	0.15370 0.37050 0.39120 0.00300
O 	O 	0.11176 0.44461 0.44245 -0.44400
H 	H 	0.14470 0.49980 0.45430 0.24600
Li	Li	0.00980 0.82870 0.03130 0.56300
C 	C 	0.12940 0.42828 0.68486 -0.15900
H 	H 	0.18430 0.47930 0.70340 0.06000
C 	C 	0.01120 0.49613 0.65928 -0.06500
H 	H 	0.05500 0.56910 0.65500 0.03500
H 	H 	0.99430 0.46180 0.63300 0.05100
C 	C 	0.85090 0.50202 0.68251 -0.07500
H 	H 	0.81780 0.57750 0.68690 0.03500
H 	H 	0.76410 0.46380 0.66810 0.03900
C 	C 	0.88960 0.44649 0.72202 -0.12700
H 	H 	0.94950 0.50040 0.73830 0.05700
C 	C 	0.75030 0.40880 0.74768 0.04900
H 	H 	0.68910 0.35250 0.73280 0.00200
C 	C 	0.63630 0.50197 0.75728 -0.14200
H 	H 	0.69960 0.56220 0.76840 0.05300
H 	H 	0.58560 0.52720 0.73230 0.05200
C 	C 	0.50450 0.47136 0.78682 -0.07700
H 	H 	0.42890 0.42090 0.77380 0.03100
H 	H 	0.44340 0.53660 0.79420 0.03300
C 	C 	0.57170 0.41894 0.82468 -0.03400
H 	H 	0.47780 0.39060 0.84000 0.03300
C 	C 	0.65600 0.50140 0.85126 -0.19900
H 	H 	0.74400 0.53560 0.83600 0.08300
H 	H 	0.57800 0.55820 0.85850 0.09000
C 	C 	0.72520 0.45295 0.88911 0.16300
H 	H 	0.63490 0.42470 0.90580 -0.00500
C 	C 	0.83910 0.36127 0.87943 -0.16300
H 	H 	0.87850 0.32790 0.90430 0.08100
H 	H 	0.93300 0.38870 0.86440 0.08000
C 	C 	0.74910 0.27833 0.85454 -0.14800
H 	H 	0.65870 0.24960 0.87050 0.06600
H 	H 	0.82280 0.21790 0.84870 0.06200
C 	C 	0.68190 0.32175 0.81491 0.14800
C 	C 	0.08030 0.31387 0.74983 -0.26200
H 	H 	0.14180 0.37070 0.76370 0.09000
H 	H 	0.15510 0.25410 0.74390 0.08600
C 	C 	0.94560 0.27315 0.77730 0.01400
H 	H 	0.89280 0.21060 0.76460 0.01000
H 	H 	0.99380 0.24850 0.80270 0.01200
C 	C 	0.81790 0.35877 0.78635 -0.13300
H 	H 	0.87560 0.41810 0.80050 0.06400
C 	C 	0.01370 0.35870 0.71077 0.22700
C 	C 	0.26170 0.37652 0.65934 0.12500
H 	H 	0.20890 0.33580 0.63730 0.00400
C 	C 	0.36330 0.46716 0.64079 -0.08300
H 	H 	0.29020 0.51570 0.62600 0.05700
H 	H 	0.41220 0.50930 0.66270 0.03600
C 	C 	0.49750 0.43180 0.61257 -0.28000
H 	H 	0.55880 0.49600 0.60410 0.10600
H 	H 	0.57240 0.38430 0.62730 0.10500
C 	C 	0.43830 0.37307 0.57582 0.37900
O 	O 	0.51325 0.28952 0.56578 -0.37300
O 	O 	0.32043 0.41128 0.55707 -0.29900
C 	C 	0.36870 0.29900 0.68253 -0.46700
H 	H 	0.45550 0.27320 0.66520 0.15500
H 	H 	0.30430 0.23780 0.69170 0.14600
H 	H 	0.41500 0.33600 0.70560 0.14700
C 	C 	0.58130 0.23069 0.79625 -0.48000
H 	H 	0.54030 0.25390 0.77030 0.15300
H 	H 	0.49080 0.21340 0.81380 0.15200
H 	H 	0.64900 0.16690 0.79280 0.15300
C 	C 	0.94000 0.26861 0.68535 -0.57300
H 	H 	0.90360 0.29820 0.65990 0.20400
H 	H 	0.84820 0.23710 0.69950 0.18500
H 	H 	0.02120 0.21310 0.68050 0.18700
O 	O 	0.79926 0.54174 0.90955 -0.24000
C 	C 	0.89040 0.51728 0.94352 0.16900
H 	H 	0.84830 0.44990 0.95590 -0.00500
C 	C 	0.87400 0.60935 0.97276 0.04400
H 	H 	0.94390 0.59490 0.99640 0.03600
C 	C 	0.92950 0.71311 0.95282 0.10200
H 	H 	0.86430 0.72580 0.92820 0.03400
C 	C 	0.10510 0.69692 0.94141 0.07500
H 	H 	0.17130 0.68820 0.96610 0.02700
C 	C 	0.12310 0.59691 0.91523 -0.00200
H 	H 	0.06660 0.60970 0.88940 0.04300
O 	O 	0.05554 0.50355 0.93384 -0.21700
O 	O 	0.71231 0.61929 0.98566 -0.42300
H 	H 	0.69770 0.58060 0.00580 0.23100
O 	O 	0.91271 0.80272 0.97900 -0.44500
H 	H 	0.83150 0.83870 0.97240 0.27700
O 	O 	0.16231 0.78724 0.91928 -0.36900
H 	H 	0.26090 0.79600 0.92370 0.23800
C 	C 	0.29770 0.57050 0.90690 0.10300
H 	H 	0.30320 0.50420 0.89070 0.00200
H 	H 	0.34630 0.62950 0.89120 0.00300
O 	O 	0.38824 0.55539 0.94245 -0.44500
H 	H 	0.35530 0.50020 0.95430 0.24600
Li	Li	0.49020 0.17130 0.53130 0.56400
C 	C 	0.62940 0.07172 0.31514 -0.15600
H 	H 	0.68430 0.02070 0.29660 0.05900
C 	C 	0.51120 0.00387 0.34072 -0.06800
H 	H 	0.55500 0.93090 0.34500 0.03500
H 	H 	0.49430 0.03820 0.36700 0.05300
C 	C 	0.35090 0.99798 0.31749 -0.07700
H 	H 	0.31780 0.92250 0.31310 0.03600
H 	H 	0.26410 0.03620 0.33190 0.04000
C 	C 	0.38960 0.05351 0.27798 -0.12400
H 	H 	0.44950 0.99960 0.26170 0.05600
C 	C 	0.25030 0.09120 0.25232 0.04900
H 	H 	0.18910 0.14750 0.26720 0.00200
C 	C 	0.13630 0.99803 0.24272 -0.14300
H 	H 	0.19960 0.93780 0.23160 0.05300
H 	H 	0.08560 0.97280 0.26770 0.05200
C 	C 	0.00450 0.02864 0.21318 -0.07700
H 	H 	0.92890 0.07910 0.22620 0.03000
H 	H 	0.94340 0.96340 0.20580 0.03300
C 	C 	0.07170 0.08106 0.17532 -0.03600
H 	H 	0.97780 0.10940 0.16000 0.03400
C 	C 	0.15600 0.99860 0.14874 -0.19700
H 	H 	0.24400 0.96440 0.16400 0.08300
H 	H 	0.07800 0.94180 0.14150 0.08900
C 	C 	0.22520 0.04705 0.11089 0.16100
H 	H 	0.13490 0.07530 0.09420 -0.00500
C 	C 	0.33910 0.13873 0.12057 -0.16200
H 	H 	0.37850 0.17210 0.09570 0.08000
H 	H 	0.43300 0.11130 0.13560 0.07900
C 	C 	0.24910 0.22167 0.14546 -0.14900
H 	H 	0.15870 0.25040 0.12950 0.06600
H 	H 	0.32280 0.28210 0.15130 0.06200
C 	C 	0.18190 0.17825 0.18509 0.14900
C 	C 	0.58030 0.18613 0.25017 -0.25900
H 	H 	0.64180 0.12930 0.23630 0.08900
H 	H 	0.65510 0.24590 0.25610 0.08500
C 	C 	0.44560 0.22685 0.22270 0.01400
H 	H 	0.39280 0.28940 0.23540 0.01100
H 	H 	0.49380 0.25150 0.19730 0.01200
C 	C 	0.31790 0.14123 0.21365 -0.13300
H 	H 	0.37560 0.08190 0.19950 0.06300
C 	C 	0.51370 0.14130 0.28923 0.22200
C 	C 	0.76170 0.12348 0.34066 0.12000
H 	H 	0.70890 0.16420 0.36270 0.00500
C 	C 	0.86330 0.03284 0.35921 -0.07500
H 	H 	0.79020 0.98430 0.37400 0.05400
H 	H 	0.91220 0.99070 0.33730 0.03300
C 	C 	0.99750 0.06820 0.38743 -0.29200
H 	H 	0.05880 0.00400 0.39590 0.11100
H 	H 	0.07240 0.11570 0.37270 0.11000
C 	C 	0.93830 0.12693 0.42418 0.37900
O 	O 	0.01325 0.21048 0.43422 -0.37100
O 	O 	0.82043 0.08872 0.44293 -0.30000
C 	C 	0.86870 0.20100 0.31747 -0.46200
H 	H 	0.95550 0.22680 0.33480 0.15300
H 	H 	0.80430 0.26220 0.30830 0.14500
H 	H 	0.91500 0.16400 0.29440 0.14600
C 	C 	0.08130 0.26931 0.20375 -0.48400
H 	H 	0.04030 0.24610 0.22970 0.15400
H 	H 	0.99080 0.28660 0.18620 0.15400
H 	H 	0.14900 0.33310 0.20720 0.15400
C 	C 	0.44000 0.23139 0.31465 -0.56500
H 	H 	0.40360 0.20180 0.34010 0.20200
H 	H 	0.34820 0.26290 0.30050 0.18300
H 	H 	0.52120 0.28690 0.31950 0.18400
O 	O 	0.29926 0.95826 0.09045 -0.24000
C 	C 	0.39040 0.98272 0.05648 0.16800
H 	H 	0.34830 0.05010 0.04410 -0.00600
C 	C 	0.37400 0.89065 0.02724 0.04500
H 	H 	0.44390 0.90510 0.00360 0.03500
C 	C 	0.42950 0.78689 0.04718 0.09900
H 	H 	0.36430 0.77420 0.07180 0.03400
C 	C 	0.60510 0.80308 0.05859 0.07700
H 	H 	0.67130 0.81180 0.03390 0.02700
C 	C 	0.62310 0.90309 0.08477 -0.00300
H 	H 	0.56660 0.89030 0.11060 0.04400
O 	O 	0.55554 0.99645 0.06616 -0.21500
O 	O 	0.21231 0.88071 0.01434 -0.42400
H 	H 	0.19770 0.91940 0.99420 0.23100
O 	O 	0.41271 0.69728 0.02100 -0.44600
H 	H 	0.33150 0.66130 0.02760 0.27700
O 	O 	0.66231 0.71276 0.08072 -0.36900
H 	H 	0.76090 0.70400 0.07630 0.23800
C 	C 	0.79770 0.92950 0.09310 0.10300
H 	H 	0.80320 0.99580 0.10930 0.00300
H 	H 	0.84630 0.87050 0.10880 0.00400
O 	O 	0.88824 0.94461 0.05755 -0.44400
H 	H 	0.85530 0.99980 0.04570 0.24600
Li	Li	0.99020 0.32870 0.46870 0.56300
C 	C 	0.87060 0.92828 0.81514 -0.15900
H 	H 	0.81570 0.97930 0.79660 0.06100
C 	C 	0.98880 0.99613 0.84072 -0.06000
H 	H 	0.94500 0.06910 0.84500 0.03300
H 	H 	0.00570 0.96180 0.86700 0.05000
C 	C 	0.14910 0.00202 0.81749 -0.07800
H 	H 	0.18220 0.07750 0.81310 0.03600
H 	H 	0.23590 0.96380 0.83190 0.04000
C 	C 	0.11040 0.94649 0.77798 -0.12700
H 	H 	0.05050 0.00040 0.76170 0.05700
C 	C 	0.24970 0.90880 0.75232 0.04900
H 	H 	0.31090 0.85250 0.76720 0.00200
C 	C 	0.36370 0.00197 0.74272 -0.14200
H 	H 	0.30040 0.06220 0.73160 0.05300
H 	H 	0.41440 0.02720 0.76770 0.05200
C 	C 	0.49550 0.97136 0.71318 -0.07700
H 	H 	0.57110 0.92090 0.72620 0.03100
H 	H 	0.55660 0.03660 0.70580 0.03200
C 	C 	0.42830 0.91894 0.67532 -0.03600
H 	H 	0.52220 0.89060 0.66000 0.03300
C 	C 	0.34400 0.00140 0.64874 -0.19600
H 	H 	0.25600 0.03560 0.66400 0.08300
H 	H 	0.42200 0.05820 0.64150 0.09000
C 	C 	0.27480 0.95295 0.61089 0.16000
H 	H 	0.36510 0.92470 0.59420 -0.00500
C 	C 	0.16090 0.86127 0.62057 -0.16200
H 	H 	0.12150 0.82790 0.59570 0.08000
H 	H 	0.06700 0.88870 0.63560 0.07900
C 	C 	0.25090 0.77833 0.64546 -0.14900
H 	H 	0.34130 0.74960 0.62950 0.06600
H 	H 	0.17720 0.71790 0.65130 0.06200
C 	C 	0.31810 0.82175 0.68509 0.14900
C 	C 	0.91970 0.81387 0.75017 -0.26200
H 	H 	0.85820 0.87070 0.73630 0.09000
H 	H 	0.84490 0.75410 0.75610 0.08600
C 	C 	0.05440 0.77315 0.72270 0.01400
H 	H 	0.10720 0.71060 0.73540 0.01000
H 	H 	0.00620 0.74850 0.69730 0.01200
C 	C 	0.18210 0.85877 0.71365 -0.13300
H 	H 	0.12440 0.91810 0.69950 0.06300
C 	C 	0.98630 0.85870 0.78923 0.22700
C 	C 	0.73830 0.87652 0.84066 0.12300
H 	H 	0.79110 0.83580 0.86270 0.00400
C 	C 	0.63670 0.96716 0.85921 -0.07800
H 	H 	0.70980 0.01570 0.87400 0.05400
H 	H 	0.58780 0.00930 0.83730 0.03400
C 	C 	0.50250 0.93180 0.88743 -0.28200
H 	H 	0.44120 0.99600 0.89590 0.10700
H 	H 	0.42760 0.88430 0.87270 0.10600
C 	C 	0.56170 0.87307 0.92418 0.38000
O 	O 	0.48675 0.78952 0.93422 -0.37300
O 	O 	0.67957 0.91128 0.94293 -0.29900
C 	C 	0.63130 0.79900 0.81747 -0.46500
H 	H 	0.54450 0.77320 0.83480 0.15400
H 	H 	0.69570 0.73780 0.80830 0.14600
H 	H 	0.58500 0.83600 0.79440 0.14700
C 	C 	0.41870 0.73069 0.70375 -0.48100
H 	H 	0.45970 0.75390 0.72970 0.15300
H 	H 	0.50920 0.71340 0.68620 0.15300
H 	H 	0.35100 0.66690 0.70720 0.15300
C 	C 	0.06000 0.76861 0.81465 -0.57200
H 	H 	0.09640 0.79820 0.84010 0.20400
H 	H 	0.15180 0.73710 0.80050 0.18500
H 	H 	0.97880 0.71310 0.81950 0.18600
O 	O 	0.20074 0.04174 0.59045 -0.23900
C 	C 	0.10960 0.01728 0.55648 0.17200
H 	H 	0.15170 0.94990 0.54410 -0.00700
C 	C 	0.12600 0.10935 0.52724 0.04300
H 	H 	0.05610 0.09490 0.50360 0.03600
C 	C 	0.07050 0.21311 0.54718 0.10200
H 	H 	0.13570 0.22580 0.57180 0.03400
C 	C 	0.89490 0.19692 0.55859 0.07400
H 	H 	0.82870 0.18820 0.53390 0.02700
C 	C 	0.87690 0.09691 0.58477 -0.00200
H 	H 	0.93340 0.10970 0.61060 0.04300
O 	O 	0.94446 0.00355 0.56616 -0.21800
O 	O 	0.28769 0.11929 0.51434 -0.42300
H 	H 	0.30230 0.08060 0.49420 0.23200
O 	O 	0.08729 0.30272 0.52100 -0.44500
H 	H 	0.16850 0.33870 0.52760 0.27700
O 	O 	0.83769 0.28724 0.58072 -0.36900
H 	H 	0.73910 0.29600 0.57630 0.23800
C 	C 	0.70230 0.07050 0.59310 0.10300
H 	H 	0.69680 0.00420 0.60930 0.00200
H 	H 	0.65370 0.12950 0.60880 0.00300
O 	O 	0.61176 0.05539 0.55755 -0.44500
H 	H 	0.64470 0.00020 0.54570 0.24600
Li	Li	0.50980 0.67130 0.96870 0.56400
