data_crystal

_cell_length_a 6.58730
_cell_length_b 12.93960
_cell_length_c 13.01410
_cell_angle_alpha 90.00000
_cell_angle_beta  90.02300
_cell_angle_gamma 90.00000

_symmetry_space_group_name_	'P 1'
_symmetry_space_group_name_H-M	'P 1'

loop_
_symmetry_equiv_pos_as_xyz
  x,y,z

loop_
_atom_site_label
_atom_site_type_symbol
_atom_site_fract_x
_atom_site_fract_y
_atom_site_fract_z
_atom_site_charge
Zn	Zn	0.20294 0.45775 0.95198 1.22500
F 	F 	0.11100 0.55170 0.06030 -0.82900
F 	F 	0.24680 0.93460 0.93560 -0.52500
N 	N 	0.24590 0.30510 0.97480 -0.25800
N 	N 	0.08250 0.24080 0.97880 -0.08100
N 	N 	0.15040 0.14760 0.98500 -0.15600
N 	N 	0.35340 0.14590 0.98560 -0.20900
C 	C 	0.40980 0.24410 0.97980 0.25000
N 	N 	0.60390 0.27720 0.97360 -0.36400
H 	H 	0.70170 0.23310 0.97320 0.24900
H 	H 	0.62970 0.34220 0.97000 0.17600
N 	N 	0.24480 0.50180 0.80520 -0.26000
N 	N 	0.08110 0.50580 0.74040 -0.09300
N 	N 	0.15210 0.51430 0.64610 -0.17800
N 	N 	0.35360 0.51770 0.64790 -0.22200
C 	C 	0.40660 0.50970 0.74400 0.23400
N 	N 	0.60270 0.50790 0.77780 -0.35500
H 	H 	0.70090 0.51210 0.73450 0.22500
H 	H 	0.62800 0.50250 0.84240 0.16700
Zn	Zn	0.79706 0.95775 0.54802 1.27800
F 	F 	0.88900 0.05170 0.43970 -0.73100
F 	F 	0.75320 0.43460 0.56440 -0.64600
N 	N 	0.75410 0.80510 0.52520 -0.22700
N 	N 	0.91750 0.74080 0.52120 0.00300
N 	N 	0.84960 0.64760 0.51500 -0.11300
N 	N 	0.64660 0.64590 0.51440 -0.22000
C 	C 	0.59020 0.74410 0.52020 0.22800
N 	N 	0.39610 0.77720 0.52640 -0.34100
H 	H 	0.29830 0.73310 0.52680 0.16400
H 	H 	0.37030 0.84220 0.53000 0.15000
N 	N 	0.75520 0.00180 0.69480 -0.27800
N 	N 	0.91890 0.00580 0.75960 -0.02900
N 	N 	0.84790 0.01430 0.85390 -0.10400
N 	N 	0.64640 0.01770 0.85210 -0.19900
C 	C 	0.59340 0.00970 0.75600 0.17300
N 	N 	0.39730 0.00790 0.72220 -0.31000
H 	H 	0.29910 0.01210 0.76550 0.11500
H 	H 	0.37200 0.00250 0.65760 0.04900
Zn	Zn	0.79706 0.54225 0.04802 1.19000
F 	F 	0.88900 0.44830 0.93970 -0.57900
F 	F 	0.75320 0.06540 0.06440 -0.78400
N 	N 	0.75410 0.69490 0.02520 -0.26100
N 	N 	0.91750 0.75920 0.02120 -0.02600
N 	N 	0.84960 0.85240 0.01500 -0.11100
N 	N 	0.64660 0.85410 0.01440 -0.20700
C 	C 	0.59020 0.75590 0.02020 0.17000
N 	N 	0.39610 0.72280 0.02640 -0.32100
H 	H 	0.29830 0.76690 0.02680 0.12500
H 	H 	0.37030 0.65780 0.03000 0.08000
N 	N 	0.75520 0.49820 0.19480 -0.26200
N 	N 	0.91890 0.49420 0.25960 -0.01600
N 	N 	0.84790 0.48570 0.35390 -0.12200
N 	N 	0.64640 0.48230 0.35210 -0.21700
C 	C 	0.59340 0.49030 0.25600 0.18700
N 	N 	0.39730 0.49210 0.22220 -0.32000
H 	H 	0.29910 0.48790 0.26550 0.13700
H 	H 	0.37200 0.49750 0.15760 0.07400
Zn	Zn	0.20294 0.04225 0.45198 1.13000
F 	F 	0.11100 0.94830 0.56030 -0.67200
F 	F 	0.24680 0.56540 0.43560 -0.72300
N 	N 	0.24590 0.19490 0.47480 -0.29600
N 	N 	0.08250 0.25920 0.47880 -0.11500
N 	N 	0.15040 0.35240 0.48500 -0.18400
N 	N 	0.35340 0.35410 0.48560 -0.22800
C 	C 	0.40980 0.25590 0.47980 0.18700
N 	N 	0.60390 0.22280 0.47360 -0.34200
H 	H 	0.70170 0.26690 0.47320 0.19800
H 	H 	0.62970 0.15780 0.47000 0.10500
N 	N 	0.24480 0.99820 0.30520 -0.23900
N 	N 	0.08110 0.99420 0.24040 -0.07000
N 	N 	0.15210 0.98570 0.14610 -0.15900
N 	N 	0.35360 0.98230 0.14790 -0.20900
C 	C 	0.40660 0.99030 0.24400 0.25200
N 	N 	0.60270 0.99210 0.27780 -0.36400
H 	H 	0.70090 0.98790 0.23450 0.25300
H 	H 	0.62800 0.99750 0.34240 0.19000
Zn	Zn	-0.00000 0.00000 -0.00000 1.06900
Zn	Zn	-0.00000 0.50000 0.50000 1.18000
Zn	Zn	0.50000 0.00000 -0.00000 1.11600
Zn	Zn	0.50000 0.50000 0.50000 1.22600
