data_crystal

_cell_length_a 24.29500
_cell_length_b 24.29500
_cell_length_c 15.05740
_cell_angle_alpha 90.00000
_cell_angle_beta  90.00000
_cell_angle_gamma 90.00000

_symmetry_space_group_name_	'P 1'
_symmetry_space_group_name_H-M	'P 1'

loop_
_symmetry_equiv_pos_as_xyz
  x,y,z

loop_
_atom_site_label
_atom_site_type_symbol
_atom_site_fract_x
_atom_site_fract_y
_atom_site_fract_z
_atom_site_charge
F 	F 	0.34440 0.29400 0.08030 -0.08000
F 	F 	0.32980 0.38100 0.05760 -0.02100
F 	F 	0.36700 0.35130 0.18480 -0.06600
O 	O 	0.14785 0.44465 0.08780 -0.69000
O 	O 	0.08362 0.39754 0.16460 -0.80800
C 	C 	0.25420 0.29630 0.23290 0.66900
C 	C 	0.26690 0.33420 0.16910 -1.06800
C 	C 	0.22760 0.37140 0.13900 0.92000
H 	H 	0.23660 0.39750 0.09450 -0.16100
C 	C 	0.17580 0.36980 0.17410 -0.75400
C 	C 	0.16270 0.33440 0.24130 0.96200
H 	H 	0.12720 0.33570 0.26780 -0.22100
C 	C 	0.20150 0.29650 0.27100 -1.17000
H 	H 	0.19240 0.27110 0.31660 1.44000
C 	C 	0.13260 0.40740 0.13880 0.77700
C 	C 	0.32250 0.34160 0.12440 -0.93900
H 	H 	0.30310 0.33510 0.14500 1.26400
F 	F 	0.21490 0.25360 0.42050 -0.06800
F 	F 	0.12900 0.27250 0.38700 -0.06900
C 	C 	0.17960 0.25970 0.34490 -1.16200
F 	F 	0.17030 0.20340 0.32240 -0.10000
F 	F 	0.65560 0.70600 0.08030 -0.07000
F 	F 	0.67020 0.61900 0.05760 -0.01600
F 	F 	0.63300 0.64870 0.18480 -0.06000
O 	O 	0.85215 0.55535 0.08780 -0.67700
O 	O 	0.91638 0.60246 0.16460 -0.67900
C 	C 	0.74580 0.70370 0.23290 0.66700
C 	C 	0.73310 0.66580 0.16910 -1.06100
C 	C 	0.77240 0.62860 0.13900 0.90900
H 	H 	0.76340 0.60250 0.09450 -0.15400
C 	C 	0.82420 0.63020 0.17410 -0.70800
C 	C 	0.83730 0.66560 0.24130 0.94900
H 	H 	0.87280 0.66430 0.26780 -0.15800
C 	C 	0.79850 0.70350 0.27100 -1.14500
H 	H 	0.80760 0.72890 0.31660 1.45800
C 	C 	0.86740 0.59260 0.13880 0.75500
C 	C 	0.67750 0.65840 0.12440 -0.95900
H 	H 	0.69690 0.66490 0.14500 1.27600
F 	F 	0.78510 0.74640 0.42050 -0.03700
F 	F 	0.87100 0.72750 0.38700 0.02900
C 	C 	0.82040 0.74030 0.34490 -1.18900
F 	F 	0.82970 0.79660 0.32240 -0.00400
F 	F 	0.70600 0.34440 0.58030 -0.06400
F 	F 	0.61900 0.32980 0.55760 -0.00800
F 	F 	0.64870 0.36700 0.68480 -0.05900
O 	O 	0.55535 0.14785 0.58780 -0.68300
O 	O 	0.60246 0.08362 0.66460 -0.79800
C 	C 	0.70370 0.25420 0.73290 0.66800
C 	C 	0.66580 0.26690 0.66910 -1.06300
C 	C 	0.62860 0.22760 0.63900 0.91800
H 	H 	0.60250 0.23660 0.59450 -0.15400
C 	C 	0.63020 0.17580 0.67410 -0.74400
C 	C 	0.66560 0.16270 0.74130 0.95900
H 	H 	0.66430 0.12720 0.76780 -0.21100
C 	C 	0.70350 0.20150 0.77100 -1.16000
H 	H 	0.72890 0.19240 0.81660 1.43900
C 	C 	0.59260 0.13260 0.63880 0.77500
C 	C 	0.65840 0.32250 0.62440 -0.94300
H 	H 	0.66490 0.30310 0.64500 1.26500
F 	F 	0.74640 0.21490 0.92050 -0.04700
F 	F 	0.72750 0.12900 0.88700 -0.04300
C 	C 	0.74030 0.17960 0.84490 -1.16200
F 	F 	0.79660 0.17030 0.82240 -0.05300
F 	F 	0.29400 0.65560 0.58030 -0.06800
F 	F 	0.38100 0.67020 0.55760 -0.00500
F 	F 	0.35130 0.63300 0.68480 -0.05900
O 	O 	0.44465 0.85215 0.58780 -0.67100
O 	O 	0.39754 0.91638 0.66460 -0.68200
C 	C 	0.29630 0.74580 0.73290 0.66800
C 	C 	0.33420 0.73310 0.66910 -1.06100
C 	C 	0.37140 0.77240 0.63900 0.91000
H 	H 	0.39750 0.76340 0.59450 -0.14900
C 	C 	0.36980 0.82420 0.67410 -0.70900
C 	C 	0.33440 0.83730 0.74130 0.95000
H 	H 	0.33570 0.87280 0.76780 -0.16200
C 	C 	0.29650 0.79850 0.77100 -1.15100
H 	H 	0.27110 0.80760 0.81660 1.46200
C 	C 	0.40740 0.86740 0.63880 0.75500
C 	C 	0.34160 0.67750 0.62440 -0.96000
H 	H 	0.33510 0.69690 0.64500 1.27800
F 	F 	0.25360 0.78510 0.92050 -0.04300
F 	F 	0.27250 0.87100 0.88700 0.01700
C 	C 	0.25970 0.82040 0.84490 -1.19400
F 	F 	0.20340 0.82970 0.82240 -0.04200
F 	F 	0.65560 0.29400 0.91970 -0.06100
F 	F 	0.67020 0.38100 0.94240 0.00500
F 	F 	0.63300 0.35130 0.81520 -0.05700
O 	O 	0.85215 0.44465 0.91220 -0.66200
O 	O 	0.91638 0.39754 0.83540 -0.67900
C 	C 	0.74580 0.29630 0.76710 0.66800
C 	C 	0.73310 0.33420 0.83090 -1.05800
C 	C 	0.77240 0.37140 0.86100 0.90900
H 	H 	0.76340 0.39750 0.90550 -0.14400
C 	C 	0.82420 0.36980 0.82590 -0.70700
C 	C 	0.83730 0.33440 0.75870 0.95000
H 	H 	0.87280 0.33570 0.73220 -0.16300
C 	C 	0.79850 0.29650 0.72900 -1.15200
H 	H 	0.80760 0.27110 0.68340 1.46400
C 	C 	0.86740 0.40740 0.86120 0.75400
C 	C 	0.67750 0.34160 0.87560 -0.96100
H 	H 	0.69690 0.33510 0.85500 1.27800
F 	F 	0.78510 0.25360 0.57950 -0.05000
F 	F 	0.87100 0.27250 0.61300 0.01200
C 	C 	0.82040 0.25970 0.65510 -1.19600
F 	F 	0.82970 0.20340 0.67760 -0.04400
F 	F 	0.34440 0.70600 0.91970 -0.05700
F 	F 	0.32980 0.61900 0.94240 0.00200
F 	F 	0.36700 0.64870 0.81520 -0.05800
O 	O 	0.14785 0.55535 0.91220 -0.67400
O 	O 	0.08362 0.60246 0.83540 -0.79400
C 	C 	0.25420 0.70370 0.76710 0.66700
C 	C 	0.26690 0.66580 0.83090 -1.06000
C 	C 	0.22760 0.62860 0.86100 0.91700
H 	H 	0.23660 0.60250 0.90550 -0.14900
C 	C 	0.17580 0.63020 0.82590 -0.74100
C 	C 	0.16270 0.66560 0.75870 0.95900
H 	H 	0.12720 0.66430 0.73220 -0.21200
C 	C 	0.20150 0.70350 0.72900 -1.16100
H 	H 	0.19240 0.72890 0.68340 1.44100
C 	C 	0.13260 0.59260 0.86120 0.77500
C 	C 	0.32250 0.65840 0.87560 -0.94300
H 	H 	0.30310 0.66490 0.85500 1.26600
F 	F 	0.21490 0.74640 0.57950 -0.05400
F 	F 	0.12900 0.72750 0.61300 -0.04800
C 	C 	0.17960 0.74030 0.65510 -1.16500
F 	F 	0.17030 0.79660 0.67760 -0.05500
F 	F 	0.29400 0.34440 0.41970 -0.07200
F 	F 	0.38100 0.32980 0.44240 -0.01000
F 	F 	0.35130 0.36700 0.31520 -0.06300
O 	O 	0.44465 0.14785 0.41220 -0.68500
O 	O 	0.39754 0.08362 0.33540 -0.80800
C 	C 	0.29630 0.25420 0.26710 0.66900
C 	C 	0.33420 0.26690 0.33090 -1.06600
C 	C 	0.37140 0.22760 0.36100 0.91900
H 	H 	0.39750 0.23660 0.40550 -0.15600
C 	C 	0.36980 0.17580 0.32590 -0.75200
C 	C 	0.33440 0.16270 0.25870 0.96100
H 	H 	0.33570 0.12720 0.23220 -0.22200
C 	C 	0.29650 0.20150 0.22900 -1.17100
H 	H 	0.27110 0.19240 0.18340 1.44200
C 	C 	0.40740 0.13260 0.36120 0.77600
C 	C 	0.34160 0.32250 0.37560 -0.94000
H 	H 	0.33510 0.30310 0.35500 1.26400
F 	F 	0.25360 0.21490 0.07950 -0.07500
F 	F 	0.27250 0.12900 0.11300 -0.07400
C 	C 	0.25970 0.17960 0.15510 -1.16400
F 	F 	0.20340 0.17030 0.17760 -0.10200
F 	F 	0.70600 0.65560 0.41970 -0.06200
F 	F 	0.61900 0.67020 0.44240 -0.00500
F 	F 	0.64870 0.63300 0.31520 -0.05800
O 	O 	0.55535 0.85215 0.41220 -0.67100
O 	O 	0.60246 0.91638 0.33540 -0.67800
C 	C 	0.70370 0.74580 0.26710 0.66700
C 	C 	0.66580 0.73310 0.33090 -1.05900
C 	C 	0.62860 0.77240 0.36100 0.90800
H 	H 	0.60250 0.76340 0.40550 -0.14900
C 	C 	0.63020 0.82420 0.32590 -0.70600
C 	C 	0.66560 0.83730 0.25870 0.94900
H 	H 	0.66430 0.87280 0.23220 -0.15900
C 	C 	0.70350 0.79850 0.22900 -1.14700
H 	H 	0.72890 0.80760 0.18340 1.46000
C 	C 	0.59260 0.86740 0.36120 0.75400
C 	C 	0.65840 0.67750 0.37560 -0.96000
H 	H 	0.66490 0.69690 0.35500 1.27700
F 	F 	0.74640 0.78510 0.07950 -0.04500
F 	F 	0.72750 0.87100 0.11300 0.02300
C 	C 	0.74030 0.82040 0.15510 -1.19200
F 	F 	0.79660 0.82970 0.17760 -0.00600
F 	F 	0.65560 0.70600 0.91970 -0.05400
F 	F 	0.67020 0.61900 0.94240 0.00500
F 	F 	0.63300 0.64870 0.81520 -0.05500
O 	O 	0.85215 0.55535 0.91220 -0.66100
O 	O 	0.91638 0.60246 0.83540 -0.67200
C 	C 	0.74580 0.70370 0.76710 0.66600
C 	C 	0.73310 0.66580 0.83090 -1.05600
C 	C 	0.77240 0.62860 0.86100 0.90700
H 	H 	0.76340 0.60250 0.90550 -0.14300
C 	C 	0.82420 0.63020 0.82590 -0.70100
C 	C 	0.83730 0.66560 0.75870 0.94800
H 	H 	0.87280 0.66430 0.73220 -0.15600
C 	C 	0.79850 0.70350 0.72900 -1.14400
H 	H 	0.80760 0.72890 0.68340 1.46200
C 	C 	0.86740 0.59260 0.86120 0.75400
C 	C 	0.67750 0.65840 0.87560 -0.96200
H 	H 	0.69690 0.66490 0.85500 1.27800
F 	F 	0.78510 0.74640 0.57950 -0.03600
F 	F 	0.87100 0.72750 0.61300 0.03100
C 	C 	0.82040 0.74030 0.65510 -1.19400
F 	F 	0.82970 0.79660 0.67760 -0.00100
F 	F 	0.34440 0.29400 0.91970 -0.06400
F 	F 	0.32980 0.38100 0.94240 0.00100
F 	F 	0.36700 0.35130 0.81520 -0.06000
O 	O 	0.14785 0.44465 0.91220 -0.67400
O 	O 	0.08362 0.39754 0.83540 -0.80100
C 	C 	0.25420 0.29630 0.76710 0.66900
C 	C 	0.26690 0.33420 0.83090 -1.06300
C 	C 	0.22760 0.37140 0.86100 0.91800
H 	H 	0.23660 0.39750 0.90550 -0.15000
C 	C 	0.17580 0.36980 0.82590 -0.74700
C 	C 	0.16270 0.33440 0.75870 0.96100
H 	H 	0.12720 0.33570 0.73220 -0.21900
C 	C 	0.20150 0.29650 0.72900 -1.16900
H 	H 	0.19240 0.27110 0.68340 1.44400
C 	C 	0.13260 0.40740 0.86120 0.77500
C 	C 	0.32250 0.34160 0.87560 -0.94200
H 	H 	0.30310 0.33510 0.85500 1.26600
F 	F 	0.21490 0.25360 0.57950 -0.06800
F 	F 	0.12900 0.27250 0.61300 -0.06800
C 	C 	0.17960 0.25970 0.65510 -1.16700
F 	F 	0.17030 0.20340 0.67760 -0.09700
F 	F 	0.29400 0.65560 0.41970 -0.06900
F 	F 	0.38100 0.67020 0.44240 -0.00600
F 	F 	0.35130 0.63300 0.31520 -0.06000
O 	O 	0.44465 0.85215 0.41220 -0.67200
O 	O 	0.39754 0.91638 0.33540 -0.68500
C 	C 	0.29630 0.74580 0.26710 0.66800
C 	C 	0.33420 0.73310 0.33090 -1.06100
C 	C 	0.37140 0.77240 0.36100 0.91000
H 	H 	0.39750 0.76340 0.40550 -0.15000
C 	C 	0.36980 0.82420 0.32590 -0.71100
C 	C 	0.33440 0.83730 0.25870 0.95100
H 	H 	0.33570 0.87280 0.23220 -0.16600
C 	C 	0.29650 0.79850 0.22900 -1.15400
H 	H 	0.27110 0.80760 0.18340 1.46300
C 	C 	0.40740 0.86740 0.36120 0.75500
C 	C 	0.34160 0.67750 0.37560 -0.95900
H 	H 	0.33510 0.69690 0.35500 1.27700
F 	F 	0.25360 0.78510 0.07950 -0.05800
F 	F 	0.27250 0.87100 0.11300 0.00500
C 	C 	0.25970 0.82040 0.15510 -1.19400
F 	F 	0.20340 0.82970 0.17760 -0.04800
F 	F 	0.70600 0.34440 0.41970 -0.06500
F 	F 	0.61900 0.32980 0.44240 -0.00900
F 	F 	0.64870 0.36700 0.31520 -0.06100
O 	O 	0.55535 0.14785 0.41220 -0.68400
O 	O 	0.60246 0.08362 0.33540 -0.80100
C 	C 	0.70370 0.25420 0.26710 0.66800
C 	C 	0.66580 0.26690 0.33090 -1.06300
C 	C 	0.62860 0.22760 0.36100 0.91800
H 	H 	0.60250 0.23660 0.40550 -0.15500
C 	C 	0.63020 0.17580 0.32590 -0.74600
C 	C 	0.66560 0.16270 0.25870 0.96000
H 	H 	0.66430 0.12720 0.23220 -0.21500
C 	C 	0.70350 0.20150 0.22900 -1.16300
H 	H 	0.72890 0.19240 0.18340 1.43900
C 	C 	0.59260 0.13260 0.36120 0.77500
C 	C 	0.65840 0.32250 0.37560 -0.94100
H 	H 	0.66490 0.30310 0.35500 1.26400
F 	F 	0.74640 0.21490 0.07950 -0.06200
F 	F 	0.72750 0.12900 0.11300 -0.05500
C 	C 	0.74030 0.17960 0.15510 -1.16200
F 	F 	0.79660 0.17030 0.17760 -0.06000
F 	F 	0.34440 0.70600 0.08030 -0.07200
F 	F 	0.32980 0.61900 0.05760 -0.01900
F 	F 	0.36700 0.64870 0.18480 -0.06300
O 	O 	0.14785 0.55535 0.08780 -0.68900
O 	O 	0.08362 0.60246 0.16460 -0.80100
C 	C 	0.25420 0.70370 0.23290 0.66800
C 	C 	0.26690 0.66580 0.16910 -1.06600
C 	C 	0.22760 0.62860 0.13900 0.91800
H 	H 	0.23660 0.60250 0.09450 -0.16000
C 	C 	0.17580 0.63020 0.17410 -0.74900
C 	C 	0.16270 0.66560 0.24130 0.96000
H 	H 	0.12720 0.66430 0.26780 -0.21400
C 	C 	0.20150 0.70350 0.27100 -1.16200
H 	H 	0.19240 0.72890 0.31660 1.43800
C 	C 	0.13260 0.59260 0.13880 0.77600
C 	C 	0.32250 0.65840 0.12440 -0.94000
H 	H 	0.30310 0.66490 0.14500 1.26400
F 	F 	0.21490 0.74640 0.42050 -0.05500
F 	F 	0.12900 0.72750 0.38700 -0.05000
C 	C 	0.17960 0.74030 0.34490 -1.16000
F 	F 	0.17030 0.79660 0.32240 -0.05700
F 	F 	0.65560 0.29400 0.08030 -0.07600
F 	F 	0.67020 0.38100 0.05760 -0.01600
F 	F 	0.63300 0.35130 0.18480 -0.06200
O 	O 	0.85215 0.44465 0.08780 -0.67800
O 	O 	0.91638 0.39754 0.16460 -0.68600
C 	C 	0.74580 0.29630 0.23290 0.66800
C 	C 	0.73310 0.33420 0.16910 -1.06400
C 	C 	0.77240 0.37140 0.13900 0.91100
H 	H 	0.76340 0.39750 0.09450 -0.15500
C 	C 	0.82420 0.36980 0.17410 -0.71400
C 	C 	0.83730 0.33440 0.24130 0.95100
H 	H 	0.87280 0.33570 0.26780 -0.16500
C 	C 	0.79850 0.29650 0.27100 -1.15300
H 	H 	0.80760 0.27110 0.31660 1.46100
C 	C 	0.86740 0.40740 0.13880 0.75600
C 	C 	0.67750 0.34160 0.12440 -0.95800
H 	H 	0.69690 0.33510 0.14500 1.27600
F 	F 	0.78510 0.25360 0.42050 -0.05100
F 	F 	0.87100 0.27250 0.38700 0.01000
C 	C 	0.82040 0.25970 0.34490 -1.19100
F 	F 	0.82970 0.20340 0.32240 -0.04700
F 	F 	0.70600 0.65560 0.58030 -0.06100
F 	F 	0.61900 0.67020 0.55760 -0.00400
F 	F 	0.64870 0.63300 0.68480 -0.05600
O 	O 	0.55535 0.85215 0.58780 -0.67000
O 	O 	0.60246 0.91638 0.66460 -0.67500
C 	C 	0.70370 0.74580 0.73290 0.66700
C 	C 	0.66580 0.73310 0.66910 -1.05800
C 	C 	0.62860 0.77240 0.63900 0.90800
H 	H 	0.60250 0.76340 0.59450 -0.14800
C 	C 	0.63020 0.82420 0.67410 -0.70300
C 	C 	0.66560 0.83730 0.74130 0.94900
H 	H 	0.66430 0.87280 0.76780 -0.15500
C 	C 	0.70350 0.79850 0.77100 -1.14300
H 	H 	0.72890 0.80760 0.81660 1.46000
C 	C 	0.59260 0.86740 0.63880 0.75400
C 	C 	0.65840 0.67750 0.62440 -0.96100
H 	H 	0.66490 0.69690 0.64500 1.27800
F 	F 	0.74640 0.78510 0.92050 -0.03000
F 	F 	0.72750 0.87100 0.88700 0.03600
C 	C 	0.74030 0.82040 0.84490 -1.19200
F 	F 	0.79660 0.82970 0.82240 0.00000
F 	F 	0.29400 0.34440 0.58030 -0.07200
F 	F 	0.38100 0.32980 0.55760 -0.00900
F 	F 	0.35130 0.36700 0.68480 -0.06100
O 	O 	0.44465 0.14785 0.58780 -0.68400
O 	O 	0.39754 0.08362 0.66460 -0.80500
C 	C 	0.29630 0.25420 0.73290 0.66900
C 	C 	0.33420 0.26690 0.66910 -1.06500
C 	C 	0.37140 0.22760 0.63900 0.91900
H 	H 	0.39750 0.23660 0.59450 -0.15500
C 	C 	0.36980 0.17580 0.67410 -0.75000
C 	C 	0.33440 0.16270 0.74130 0.96100
H 	H 	0.33570 0.12720 0.76780 -0.21800
C 	C 	0.29650 0.20150 0.77100 -1.16700
H 	H 	0.27110 0.19240 0.81660 1.44100
C 	C 	0.40740 0.13260 0.63880 0.77600
C 	C 	0.34160 0.32250 0.62440 -0.94100
H 	H 	0.33510 0.30310 0.64500 1.26500
F 	F 	0.25360 0.21490 0.92050 -0.06000
F 	F 	0.27250 0.12900 0.88700 -0.06200
C 	C 	0.25970 0.17960 0.84490 -1.16400
F 	F 	0.20340 0.17030 0.82240 -0.09500
Zr	Zr	0.10068 0.50000 -0.00000 3.21200
Zr	Zr	0.89932 0.50000 -0.00000 3.21000
Zr	Zr	0.50000 0.10068 0.50000 3.21400
Zr	Zr	0.50000 0.89932 0.50000 3.21300
Zr	Zr	0.00000 0.42736 0.11738 3.15200
Zr	Zr	0.00000 0.57264 0.11738 3.15200
Zr	Zr	0.57264 0.00000 0.61738 3.15200
Zr	Zr	0.42736 0.00000 0.61738 3.15100
Zr	Zr	0.00000 0.42736 0.88262 3.15400
Zr	Zr	0.00000 0.57264 0.88262 3.15400
Zr	Zr	0.42736 0.00000 0.38262 3.15100
Zr	Zr	0.57264 0.00000 0.38262 3.15200
O 	O 	0.04950 0.50000 0.11850 -1.40000
O 	O 	0.95050 0.50000 0.11850 -1.22500
O 	O 	0.50000 0.04950 0.61850 -1.39900
O 	O 	0.50000 0.95050 0.61850 -1.22200
O 	O 	0.95050 0.50000 0.88150 -1.21500
O 	O 	0.04950 0.50000 0.88150 -1.39000
O 	O 	0.50000 0.04950 0.38150 -1.40100
O 	O 	0.50000 0.95050 0.38150 -1.22400
O 	O 	0.04970 0.42660 -0.00000 -1.41200
O 	O 	0.95030 0.57340 -0.00000 -1.23700
O 	O 	0.57340 0.04970 0.50000 -1.39700
O 	O 	0.42660 0.95030 0.50000 -1.22600
O 	O 	0.95030 0.42660 -0.00000 -1.24200
O 	O 	0.04970 0.57340 -0.00000 -1.40700
O 	O 	0.42660 0.04970 0.50000 -1.40200
O 	O 	0.57340 0.95030 0.50000 -1.22100
