data_crystal

_cell_length_a 24.42000
_cell_length_b 24.42000
_cell_length_c 14.72310
_cell_angle_alpha 90.00000
_cell_angle_beta  90.00000
_cell_angle_gamma 90.00000

_symmetry_space_group_name_	'P 1'
_symmetry_space_group_name_H-M	'P 1'

loop_
_symmetry_equiv_pos_as_xyz
  x,y,z

loop_
_atom_site_label
_atom_site_type_symbol
_atom_site_fract_x
_atom_site_fract_y
_atom_site_fract_z
_atom_site_charge
F 	F 	0.37600 0.32580 0.05420 -0.07700
F 	F 	0.34660 0.36510 0.17310 -0.08800
F 	F 	0.29120 0.33790 0.07170 -0.08300
O 	O 	0.44546 0.14745 0.09060 -0.67300
O 	O 	0.39760 0.08340 0.16600 -0.72100
C 	C 	0.40780 0.13160 0.14080 0.73700
C 	C 	0.36970 0.17500 0.17680 -0.64300
C 	C 	0.37150 0.22630 0.14120 0.76500
H 	H 	0.39900 0.23560 0.09830 -0.11300
C 	C 	0.33260 0.26540 0.16810 -0.87000
C 	C 	0.29540 0.25350 0.23480 0.60800
C 	C 	0.29690 0.20160 0.27560 -1.09100
H 	H 	0.27290 0.19330 0.32460 1.45800
C 	C 	0.33370 0.16190 0.24430 0.85900
H 	H 	0.33360 0.12610 0.26970 -0.18000
C 	C 	0.33550 0.31980 0.12020 -0.69500
O 	O 	0.47400 0.90730 0.30410 -0.16800
C 	C 	0.44860 0.95550 0.41560 -0.02700
C 	C 	0.45030 0.95350 0.31300 0.36300
H 	H 	0.41030 0.02950 0.41790 0.16500
F 	F 	0.26990 0.22440 0.43470 0.02400
F 	F 	0.28240 0.14090 0.40860 -0.04600
H 	H 	0.33210 0.30040 0.13990 1.04300
C 	C 	0.26740 0.18910 0.36300 -1.23200
F 	F 	0.21210 0.17950 0.35860 -0.11500
F 	F 	0.62400 0.67420 0.05420 -0.07500
F 	F 	0.65340 0.63490 0.17310 -0.08600
F 	F 	0.70880 0.66210 0.07170 -0.08100
O 	O 	0.55454 0.85255 0.09060 -0.66700
O 	O 	0.60240 0.91660 0.16600 -0.65600
C 	C 	0.59220 0.86840 0.14080 0.72100
C 	C 	0.63030 0.82500 0.17680 -0.61600
C 	C 	0.62850 0.77370 0.14120 0.75500
H 	H 	0.60100 0.76440 0.09830 -0.10900
C 	C 	0.66740 0.73460 0.16810 -0.86400
C 	C 	0.70460 0.74650 0.23480 0.60200
C 	C 	0.70310 0.79840 0.27560 -1.06000
H 	H 	0.72710 0.80670 0.32460 1.44400
C 	C 	0.66630 0.83810 0.24430 0.84100
H 	H 	0.66640 0.87390 0.26970 -0.14400
C 	C 	0.66450 0.68020 0.12020 -0.70700
O 	O 	0.52600 0.09270 0.30410 -0.14200
C 	C 	0.55140 0.04450 0.41560 -0.06900
C 	C 	0.54970 0.04650 0.31300 0.22400
H 	H 	0.58970 0.97050 0.41790 0.26300
F 	F 	0.73010 0.77560 0.43470 0.03000
F 	F 	0.71760 0.85910 0.40860 -0.00800
H 	H 	0.66790 0.69960 0.13990 1.04900
C 	C 	0.73260 0.81090 0.36300 -1.22000
F 	F 	0.78790 0.82050 0.35860 -0.06100
F 	F 	0.67420 0.37600 0.55420 -0.06100
F 	F 	0.63490 0.34660 0.67310 -0.08200
F 	F 	0.66210 0.29120 0.57170 -0.07100
O 	O 	0.85255 0.44546 0.59060 -0.65900
O 	O 	0.91660 0.39760 0.66600 -0.65600
C 	C 	0.86840 0.40780 0.64080 0.72000
C 	C 	0.82500 0.36970 0.67680 -0.61300
C 	C 	0.77370 0.37150 0.64120 0.75400
H 	H 	0.76440 0.39900 0.59830 -0.10200
C 	C 	0.73460 0.33260 0.66810 -0.85900
C 	C 	0.74650 0.29540 0.73480 0.60100
C 	C 	0.79840 0.29690 0.77560 -1.06400
H 	H 	0.80670 0.27290 0.82460 1.45000
C 	C 	0.83810 0.33370 0.74430 0.84200
H 	H 	0.87390 0.33360 0.76970 -0.14600
C 	C 	0.68020 0.33550 0.62020 -0.70500
O 	O 	0.09270 0.47400 0.80410 -0.13800
C 	C 	0.04450 0.44860 0.91560 -0.05400
C 	C 	0.04650 0.45030 0.81300 0.22200
H 	H 	0.97050 0.41030 0.91790 0.23700
F 	F 	0.77560 0.26990 0.93470 0.03700
F 	F 	0.85910 0.28240 0.90860 -0.00700
H 	H 	0.69960 0.33210 0.63990 1.04700
C 	C 	0.81090 0.26740 0.86300 -1.22900
F 	F 	0.82050 0.21210 0.85860 -0.08000
F 	F 	0.32580 0.62400 0.55420 -0.06200
F 	F 	0.36510 0.65340 0.67310 -0.08300
F 	F 	0.33790 0.70880 0.57170 -0.07200
O 	O 	0.14745 0.55454 0.59060 -0.66300
O 	O 	0.08340 0.60240 0.66600 -0.71300
C 	C 	0.13160 0.59220 0.64080 0.73600
C 	C 	0.17500 0.63030 0.67680 -0.63200
C 	C 	0.22630 0.62850 0.64120 0.76100
H 	H 	0.23560 0.60100 0.59830 -0.10500
C 	C 	0.26540 0.66740 0.66810 -0.86300
C 	C 	0.25350 0.70460 0.73480 0.60600
C 	C 	0.20160 0.70310 0.77560 -1.07500
H 	H 	0.19330 0.72710 0.82460 1.44700
C 	C 	0.16190 0.66630 0.74430 0.85300
H 	H 	0.12610 0.66640 0.76970 -0.16900
C 	C 	0.31980 0.66450 0.62020 -0.69700
O 	O 	0.90730 0.52600 0.80410 -0.16400
C 	C 	0.95550 0.55140 0.91560 -0.01400
C 	C 	0.95350 0.54970 0.81300 0.36400
H 	H 	0.02950 0.58970 0.91790 0.14400
F 	F 	0.22440 0.73010 0.93470 0.03800
F 	F 	0.14090 0.71760 0.90860 -0.02900
H 	H 	0.30040 0.66790 0.63990 1.04300
C 	C 	0.18910 0.73260 0.86300 -1.22200
F 	F 	0.17950 0.78790 0.85860 -0.08400
F 	F 	0.62400 0.32580 0.94580 -0.04900
F 	F 	0.65340 0.36510 0.82690 -0.08100
F 	F 	0.70880 0.33790 0.92830 -0.06200
O 	O 	0.55454 0.14745 0.90940 -0.65200
O 	O 	0.60240 0.08340 0.83400 -0.70700
C 	C 	0.59220 0.13160 0.85920 0.73500
C 	C 	0.63030 0.17500 0.82320 -0.62800
C 	C 	0.62850 0.22630 0.85880 0.76000
H 	H 	0.60100 0.23560 0.90170 -0.09900
C 	C 	0.66740 0.26540 0.83190 -0.85900
C 	C 	0.70460 0.25350 0.76520 0.60500
C 	C 	0.70310 0.20160 0.72440 -1.07700
H 	H 	0.72710 0.19330 0.67540 1.45100
C 	C 	0.66630 0.16190 0.75570 0.85300
H 	H 	0.66640 0.12610 0.73030 -0.17000
C 	C 	0.66450 0.31980 0.87980 -0.69600
O 	O 	0.52600 0.90730 0.69590 -0.16800
C 	C 	0.55140 0.95550 0.58440 -0.02800
C 	C 	0.54970 0.95350 0.68700 0.36300
H 	H 	0.58970 0.02950 0.58210 0.16800
F 	F 	0.73010 0.22440 0.56530 0.02800
F 	F 	0.71760 0.14090 0.59140 -0.03600
H 	H 	0.66790 0.30040 0.86010 1.04100
C 	C 	0.73260 0.18910 0.63700 -1.22700
F 	F 	0.78790 0.17950 0.64140 -0.08700
F 	F 	0.37600 0.67420 0.94580 -0.04800
F 	F 	0.34660 0.63490 0.82690 -0.08000
F 	F 	0.29120 0.66210 0.92830 -0.06100
O 	O 	0.44546 0.85255 0.90940 -0.64800
O 	O 	0.39760 0.91660 0.83400 -0.65100
C 	C 	0.40780 0.86840 0.85920 0.71900
C 	C 	0.36970 0.82500 0.82320 -0.61000
C 	C 	0.37150 0.77370 0.85880 0.75200
H 	H 	0.39900 0.76440 0.90170 -0.09600
C 	C 	0.33260 0.73460 0.83190 -0.85400
C 	C 	0.29540 0.74650 0.76520 0.60100
C 	C 	0.29690 0.79840 0.72440 -1.06700
H 	H 	0.27290 0.80670 0.67540 1.45500
C 	C 	0.33370 0.83810 0.75570 0.84200
H 	H 	0.33360 0.87390 0.73030 -0.14700
C 	C 	0.33550 0.68020 0.87980 -0.70300
O 	O 	0.47400 0.09270 0.69590 -0.14300
C 	C 	0.44860 0.04450 0.58440 -0.06700
C 	C 	0.45030 0.04650 0.68700 0.22300
H 	H 	0.41030 0.97050 0.58210 0.26100
F 	F 	0.26990 0.77560 0.56530 0.02700
F 	F 	0.28240 0.85910 0.59140 -0.01500
H 	H 	0.33210 0.69960 0.86010 1.04500
C 	C 	0.26740 0.81090 0.63700 -1.23400
F 	F 	0.21210 0.82050 0.64140 -0.08400
F 	F 	0.32580 0.37600 0.44580 -0.06300
F 	F 	0.36510 0.34660 0.32690 -0.08500
F 	F 	0.33790 0.29120 0.42830 -0.07300
O 	O 	0.14745 0.44546 0.40940 -0.66400
O 	O 	0.08340 0.39760 0.33400 -0.71900
C 	C 	0.13160 0.40780 0.35920 0.73700
C 	C 	0.17500 0.36970 0.32320 -0.64000
C 	C 	0.22630 0.37150 0.35880 0.76400
H 	H 	0.23560 0.39900 0.40170 -0.10700
C 	C 	0.26540 0.33260 0.33190 -0.86600
C 	C 	0.25350 0.29540 0.26520 0.60800
C 	C 	0.20160 0.29690 0.22440 -1.09400
H 	H 	0.19330 0.27290 0.17540 1.46200
C 	C 	0.16190 0.33370 0.25570 0.86000
H 	H 	0.12610 0.33360 0.23030 -0.18100
C 	C 	0.31980 0.33550 0.37980 -0.69400
O 	O 	0.90730 0.47400 0.19590 -0.16800
C 	C 	0.95550 0.44860 0.08440 -0.00900
C 	C 	0.95350 0.45030 0.18700 0.35700
H 	H 	0.02950 0.41030 0.08210 0.18600
F 	F 	0.22440 0.26990 0.06530 0.01500
F 	F 	0.14090 0.28240 0.09140 -0.05300
H 	H 	0.30040 0.33210 0.36010 1.04100
C 	C 	0.18910 0.26740 0.13700 -1.23800
F 	F 	0.17950 0.21210 0.14140 -0.11800
F 	F 	0.67420 0.62400 0.44580 -0.06200
F 	F 	0.63490 0.65340 0.32690 -0.08400
F 	F 	0.66210 0.70880 0.42830 -0.07100
O 	O 	0.85255 0.55454 0.40940 -0.65900
O 	O 	0.91660 0.60240 0.33400 -0.65300
C 	C 	0.86840 0.59220 0.35920 0.72000
C 	C 	0.82500 0.63030 0.32320 -0.61300
C 	C 	0.77370 0.62850 0.35880 0.75400
H 	H 	0.76440 0.60100 0.40170 -0.10200
C 	C 	0.73460 0.66740 0.33190 -0.85900
C 	C 	0.74650 0.70460 0.26520 0.60200
C 	C 	0.79840 0.70310 0.22440 -1.06200
H 	H 	0.80670 0.72710 0.17540 1.44900
C 	C 	0.83810 0.66630 0.25570 0.84200
H 	H 	0.87390 0.66640 0.23030 -0.14500
C 	C 	0.68020 0.66450 0.37980 -0.70500
O 	O 	0.09270 0.52600 0.19590 -0.14200
C 	C 	0.04450 0.55140 0.08440 -0.05100
C 	C 	0.04650 0.54970 0.18700 0.21700
H 	H 	0.97050 0.58970 0.08210 0.28300
F 	F 	0.77560 0.73010 0.06530 0.02000
F 	F 	0.85910 0.71760 0.09140 -0.01600
H 	H 	0.69960 0.66790 0.36010 1.04700
C 	C 	0.81090 0.73260 0.13700 -1.22600
F 	F 	0.82050 0.78790 0.14140 -0.06500
F 	F 	0.62400 0.67420 0.94580 -0.04800
F 	F 	0.65340 0.63490 0.82690 -0.08000
F 	F 	0.70880 0.66210 0.92830 -0.06100
O 	O 	0.55454 0.85255 0.90940 -0.64700
O 	O 	0.60240 0.91660 0.83400 -0.64700
C 	C 	0.59220 0.86840 0.85920 0.71900
C 	C 	0.63030 0.82500 0.82320 -0.60600
C 	C 	0.62850 0.77370 0.85880 0.75100
H 	H 	0.60100 0.76440 0.90170 -0.09500
C 	C 	0.66740 0.73460 0.83190 -0.85300
C 	C 	0.70460 0.74650 0.76520 0.60000
C 	C 	0.70310 0.79840 0.72440 -1.05600
H 	H 	0.72710 0.80670 0.67540 1.44600
C 	C 	0.66630 0.83810 0.75570 0.83800
H 	H 	0.66640 0.87390 0.73030 -0.14100
C 	C 	0.66450 0.68020 0.87980 -0.70500
O 	O 	0.52600 0.09270 0.69590 -0.14300
C 	C 	0.55140 0.04450 0.58440 -0.06900
C 	C 	0.54970 0.04650 0.68700 0.22400
H 	H 	0.58970 0.97050 0.58210 0.26400
F 	F 	0.73010 0.77560 0.56530 0.03000
F 	F 	0.71760 0.85910 0.59140 -0.00700
H 	H 	0.66790 0.69960 0.86010 1.04600
C 	C 	0.73260 0.81090 0.63700 -1.22400
F 	F 	0.78790 0.82050 0.64140 -0.05800
F 	F 	0.37600 0.32580 0.94580 -0.05000
F 	F 	0.34660 0.36510 0.82690 -0.08100
F 	F 	0.29120 0.33790 0.92830 -0.06200
O 	O 	0.44546 0.14745 0.90940 -0.65200
O 	O 	0.39760 0.08340 0.83400 -0.71100
C 	C 	0.40780 0.13160 0.85920 0.73600
C 	C 	0.36970 0.17500 0.82320 -0.63300
C 	C 	0.37150 0.22630 0.85880 0.76100
H 	H 	0.39900 0.23560 0.90170 -0.10000
C 	C 	0.33260 0.26540 0.83190 -0.86000
C 	C 	0.29540 0.25350 0.76520 0.60600
C 	C 	0.29690 0.20160 0.72440 -1.08800
H 	H 	0.27290 0.19330 0.67540 1.46000
C 	C 	0.33370 0.16190 0.75570 0.85600
H 	H 	0.33360 0.12610 0.73030 -0.17700
C 	C 	0.33550 0.31980 0.87980 -0.69400
O 	O 	0.47400 0.90730 0.69590 -0.16800
C 	C 	0.44860 0.95550 0.58440 -0.02600
C 	C 	0.45030 0.95350 0.68700 0.36300
H 	H 	0.41030 0.02950 0.58210 0.16600
F 	F 	0.26990 0.22440 0.56530 0.02500
F 	F 	0.28240 0.14090 0.59140 -0.04400
H 	H 	0.33210 0.30040 0.86010 1.04000
C 	C 	0.26740 0.18910 0.63700 -1.23700
F 	F 	0.21210 0.17950 0.64140 -0.11200
F 	F 	0.32580 0.62400 0.44580 -0.06300
F 	F 	0.36510 0.65340 0.32690 -0.08500
F 	F 	0.33790 0.70880 0.42830 -0.07300
O 	O 	0.14745 0.55454 0.40940 -0.66400
O 	O 	0.08340 0.60240 0.33400 -0.71500
C 	C 	0.13160 0.59220 0.35920 0.73600
C 	C 	0.17500 0.63030 0.32320 -0.63600
C 	C 	0.22630 0.62850 0.35880 0.76200
H 	H 	0.23560 0.60100 0.40170 -0.10600
C 	C 	0.26540 0.66740 0.33190 -0.86500
C 	C 	0.25350 0.70460 0.26520 0.60700
C 	C 	0.20160 0.70310 0.22440 -1.08300
H 	H 	0.19330 0.72710 0.17540 1.45400
C 	C 	0.16190 0.66630 0.25570 0.85600
H 	H 	0.12610 0.66640 0.23030 -0.17400
C 	C 	0.31980 0.66450 0.37980 -0.69600
O 	O 	0.90730 0.52600 0.19590 -0.16800
C 	C 	0.95550 0.55140 0.08440 -0.01000
C 	C 	0.95350 0.54970 0.18700 0.35700
H 	H 	0.02950 0.58970 0.08210 0.18800
F 	F 	0.22440 0.73010 0.06530 0.01700
F 	F 	0.14090 0.71760 0.09140 -0.04500
H 	H 	0.30040 0.66790 0.36010 1.04200
C 	C 	0.18910 0.73260 0.13700 -1.22800
F 	F 	0.17950 0.78790 0.14140 -0.09400
F 	F 	0.67420 0.37600 0.44580 -0.06200
F 	F 	0.63490 0.34660 0.32690 -0.08400
F 	F 	0.66210 0.29120 0.42830 -0.07100
O 	O 	0.85255 0.44546 0.40940 -0.66000
O 	O 	0.91660 0.39760 0.33400 -0.65800
C 	C 	0.86840 0.40780 0.35920 0.72000
C 	C 	0.82500 0.36970 0.32320 -0.61700
C 	C 	0.77370 0.37150 0.35880 0.75500
H 	H 	0.76440 0.39900 0.40170 -0.10300
C 	C 	0.73460 0.33260 0.33190 -0.86000
C 	C 	0.74650 0.29540 0.26520 0.60200
C 	C 	0.79840 0.29690 0.22440 -1.07300
H 	H 	0.80670 0.27290 0.17540 1.45700
C 	C 	0.83810 0.33370 0.25570 0.84500
H 	H 	0.87390 0.33360 0.23030 -0.15100
C 	C 	0.68020 0.33550 0.37980 -0.70300
O 	O 	0.09270 0.47400 0.19590 -0.14200
C 	C 	0.04450 0.44860 0.08440 -0.05000
C 	C 	0.04650 0.45030 0.18700 0.21600
H 	H 	0.97050 0.41030 0.08210 0.28100
F 	F 	0.77560 0.26990 0.06530 0.01700
F 	F 	0.85910 0.28240 0.09140 -0.02300
H 	H 	0.69960 0.33210 0.36010 1.04600
C 	C 	0.81090 0.26740 0.13700 -1.23500
F 	F 	0.82050 0.21210 0.14140 -0.09000
F 	F 	0.37600 0.67420 0.05420 -0.07500
F 	F 	0.34660 0.63490 0.17310 -0.08600
F 	F 	0.29120 0.66210 0.07170 -0.08000
O 	O 	0.44546 0.85255 0.09060 -0.66700
O 	O 	0.39760 0.91660 0.16600 -0.66000
C 	C 	0.40780 0.86840 0.14080 0.72100
C 	C 	0.36970 0.82500 0.17680 -0.62100
C 	C 	0.37150 0.77370 0.14120 0.75700
H 	H 	0.39900 0.76440 0.09830 -0.10900
C 	C 	0.33260 0.73460 0.16810 -0.86500
C 	C 	0.29540 0.74650 0.23480 0.60300
C 	C 	0.29690 0.79840 0.27560 -1.07000
H 	H 	0.27290 0.80670 0.32460 1.45200
C 	C 	0.33370 0.83810 0.24430 0.84500
H 	H 	0.33360 0.87390 0.26970 -0.15000
C 	C 	0.33550 0.68020 0.12020 -0.70500
O 	O 	0.47400 0.09270 0.30410 -0.14200
C 	C 	0.44860 0.04450 0.41560 -0.06800
C 	C 	0.45030 0.04650 0.31300 0.22400
H 	H 	0.41030 0.97050 0.41790 0.26000
F 	F 	0.26990 0.77560 0.43470 0.02700
F 	F 	0.28240 0.85910 0.40860 -0.01600
H 	H 	0.33210 0.69960 0.13990 1.04800
C 	C 	0.26740 0.81090 0.36300 -1.23000
F 	F 	0.21210 0.82050 0.35860 -0.08600
F 	F 	0.62400 0.32580 0.05420 -0.07600
F 	F 	0.65340 0.36510 0.17310 -0.08700
F 	F 	0.70880 0.33790 0.07170 -0.08200
O 	O 	0.55454 0.14745 0.09060 -0.67100
O 	O 	0.60240 0.08340 0.16600 -0.71600
C 	C 	0.59220 0.13160 0.14080 0.73700
C 	C 	0.63030 0.17500 0.17680 -0.63900
C 	C 	0.62850 0.22630 0.14120 0.76400
H 	H 	0.60100 0.23560 0.09830 -0.11200
C 	C 	0.66740 0.26540 0.16810 -0.86900
C 	C 	0.70460 0.25350 0.23480 0.60800
C 	C 	0.70310 0.20160 0.27560 -1.08100
H 	H 	0.72710 0.19330 0.32460 1.44900
C 	C 	0.66630 0.16190 0.24430 0.85500
H 	H 	0.66640 0.12610 0.26970 -0.17300
C 	C 	0.66450 0.31980 0.12020 -0.69700
O 	O 	0.52600 0.90730 0.30410 -0.16800
C 	C 	0.55140 0.95550 0.41560 -0.02800
C 	C 	0.54970 0.95350 0.31300 0.36400
H 	H 	0.58970 0.02950 0.41790 0.16800
F 	F 	0.73010 0.22440 0.43470 0.02700
F 	F 	0.71760 0.14090 0.40860 -0.03800
H 	H 	0.66790 0.30040 0.13990 1.04400
C 	C 	0.73260 0.18910 0.36300 -1.22200
F 	F 	0.78790 0.17950 0.35860 -0.09000
F 	F 	0.67420 0.62400 0.55420 -0.06100
F 	F 	0.63490 0.65340 0.67310 -0.08200
F 	F 	0.66210 0.70880 0.57170 -0.07100
O 	O 	0.85255 0.55454 0.59060 -0.65800
O 	O 	0.91660 0.60240 0.66600 -0.65200
C 	C 	0.86840 0.59220 0.64080 0.71900
C 	C 	0.82500 0.63030 0.67680 -0.60900
C 	C 	0.77370 0.62850 0.64120 0.75300
H 	H 	0.76440 0.60100 0.59830 -0.10100
C 	C 	0.73460 0.66740 0.66810 -0.85800
C 	C 	0.74650 0.70460 0.73480 0.60100
C 	C 	0.79840 0.70310 0.77560 -1.05400
H 	H 	0.80670 0.72710 0.82460 1.44200
C 	C 	0.83810 0.66630 0.74430 0.83800
H 	H 	0.87390 0.66640 0.76970 -0.14000
C 	C 	0.68020 0.66450 0.62020 -0.70700
O 	O 	0.09270 0.52600 0.80410 -0.13800
C 	C 	0.04450 0.55140 0.91560 -0.05500
C 	C 	0.04650 0.54970 0.81300 0.22300
H 	H 	0.97050 0.58970 0.91790 0.23900
F 	F 	0.77560 0.73010 0.93470 0.04000
F 	F 	0.85910 0.71760 0.90860 0.00100
H 	H 	0.69960 0.66790 0.63990 1.04800
C 	C 	0.81090 0.73260 0.86300 -1.21900
F 	F 	0.82050 0.78790 0.85860 -0.05500
F 	F 	0.32580 0.37600 0.55420 -0.06300
F 	F 	0.36510 0.34660 0.67310 -0.08300
F 	F 	0.33790 0.29120 0.57170 -0.07200
O 	O 	0.14745 0.44546 0.59060 -0.66400
O 	O 	0.08340 0.39760 0.66600 -0.71700
C 	C 	0.13160 0.40780 0.64080 0.73600
C 	C 	0.17500 0.36970 0.67680 -0.63700
C 	C 	0.22630 0.37150 0.64120 0.76300
H 	H 	0.23560 0.39900 0.59830 -0.10600
C 	C 	0.26540 0.33260 0.66810 -0.86400
C 	C 	0.25350 0.29540 0.73480 0.60600
C 	C 	0.20160 0.29690 0.77560 -1.08600
H 	H 	0.19330 0.27290 0.82460 1.45500
C 	C 	0.16190 0.33370 0.74430 0.85600
H 	H 	0.12610 0.33360 0.76970 -0.17500
C 	C 	0.31980 0.33550 0.62020 -0.69600
O 	O 	0.90730 0.47400 0.80410 -0.16300
C 	C 	0.95550 0.44860 0.91560 -0.01300
C 	C 	0.95350 0.45030 0.81300 0.36300
H 	H 	0.02950 0.41030 0.91790 0.14100
F 	F 	0.22440 0.26990 0.93470 0.03500
F 	F 	0.14090 0.28240 0.90860 -0.03600
H 	H 	0.30040 0.33210 0.63990 1.04200
C 	C 	0.18910 0.26740 0.86300 -1.23100
F 	F 	0.17950 0.21210 0.85860 -0.10800
Zr	Zr	0.50000 0.10036 -0.00000 3.21100
Zr	Zr	0.50000 0.89964 -0.00000 3.21000
Zr	Zr	0.89964 0.50000 0.50000 3.21300
Zr	Zr	0.10036 0.50000 0.50000 3.21400
Zr	Zr	0.42779 0.00000 0.12003 3.18200
C 	C 	0.42540 0.00000 0.45180 -0.31100
O 	O 	0.42770 0.00000 0.26960 -0.74500
Zr	Zr	0.57221 0.00000 0.12003 3.18300
C 	C 	0.57460 0.00000 0.45180 -0.31100
O 	O 	0.57230 0.00000 0.26960 -0.74300
Zr	Zr	0.00000 0.42779 0.62003 3.18200
C 	C 	0.00000 0.42540 0.95180 -0.22500
O 	O 	0.00000 0.42770 0.76960 -0.74400
Zr	Zr	0.00000 0.57221 0.62003 3.18200
C 	C 	-0.00000 0.57460 0.95180 -0.22500
O 	O 	-0.00000 0.57230 0.76960 -0.74300
Zr	Zr	0.57221 0.00000 0.87997 3.18500
C 	C 	0.57460 0.00000 0.54820 -0.31300
O 	O 	0.57230 0.00000 0.73040 -0.74200
Zr	Zr	0.42779 0.00000 0.87997 3.18500
C 	C 	0.42540 0.00000 0.54820 -0.31300
O 	O 	0.42770 0.00000 0.73040 -0.74400
Zr	Zr	-0.00000 0.42779 0.37997 3.18200
C 	C 	-0.00000 0.42540 0.04820 -0.40500
O 	O 	-0.00000 0.42770 0.23040 -0.74500
Zr	Zr	0.00000 0.57221 0.37997 3.18200
C 	C 	0.00000 0.57460 0.04820 -0.40500
O 	O 	-0.00000 0.57230 0.23040 -0.74300
O 	O 	0.50000 0.04920 0.12010 -1.29800
O 	O 	0.50000 0.95080 0.12010 -1.20300
O 	O 	0.95080 0.50000 0.62010 -1.20000
O 	O 	0.04920 0.50000 0.62010 -1.29800
O 	O 	0.50000 0.04920 0.87990 -1.28500
O 	O 	0.50000 0.95080 0.87990 -1.19000
O 	O 	0.04920 0.50000 0.37990 -1.29700
O 	O 	0.95080 0.50000 0.37990 -1.20000
O 	O 	0.42740 0.04890 -0.00000 -1.37300
O 	O 	0.57260 0.95110 -0.00000 -1.26500
O 	O 	0.95110 0.42740 0.50000 -1.25000
O 	O 	0.04890 0.57260 0.50000 -1.35700
O 	O 	0.57260 0.04890 -0.00000 -1.37000
O 	O 	0.42740 0.95110 -0.00000 -1.26800
O 	O 	0.04890 0.42740 0.50000 -1.36000
O 	O 	0.95110 0.57260 0.50000 -1.24700
S 	S 	0.46930 0.91440 0.50000 0.15400
S 	S 	0.53070 0.08560 0.50000 0.14200
S 	S 	0.08560 0.46930 -0.00000 0.11300
S 	S 	0.91440 0.53070 -0.00000 0.12700
S 	S 	0.53070 0.91440 0.50000 0.15700
S 	S 	0.46930 0.08560 0.50000 0.14000
S 	S 	0.91440 0.46930 -0.00000 0.12600
S 	S 	0.08560 0.53070 -0.00000 0.11500
