data_crystal

_cell_length_a 24.41180
_cell_length_b 24.41180
_cell_length_c 14.64990
_cell_angle_alpha 90.00000
_cell_angle_beta  90.00000
_cell_angle_gamma 90.00000

_symmetry_space_group_name_	'P 1'
_symmetry_space_group_name_H-M	'P 1'

loop_
_symmetry_equiv_pos_as_xyz
  x,y,z

loop_
_atom_site_label
_atom_site_type_symbol
_atom_site_fract_x
_atom_site_fract_y
_atom_site_fract_z
_atom_site_charge
F 	F 	0.29710 0.32760 0.32090 -5.56500
F 	F 	0.24890 0.28670 0.42470 -4.99500
F 	F 	0.23160 0.37060 0.39050 -6.52400
O 	O 	0.05508 0.35270 0.09020 0.47500
O 	O 	0.10170 0.41649 0.16770 0.45400
C 	C 	0.20460 0.24710 0.23470 -13.05300
C 	C 	0.20310 0.29910 0.27420 27.51700
C 	C 	0.16630 0.33650 0.24540 -21.64000
H 	H 	0.16540 0.37150 0.27350 7.11100
C 	C 	0.13050 0.32510 0.17700 14.94600
C 	C 	0.12930 0.27330 0.14100 -20.65700
H 	H 	0.10240 0.26380 0.09680 6.65200
C 	C 	0.16650 0.23560 0.16860 26.36900
H 	H 	0.16630 0.20030 0.14140 -25.15400
C 	C 	0.09230 0.36800 0.14220 -4.96500
C 	C 	0.24570 0.32270 0.35450 31.49500
F 	F 	0.15510 0.13480 0.17170 -4.63100
F 	F 	0.20990 0.16500 0.06850 -4.76900
F 	F 	0.12270 0.17390 0.04920 -5.88600
H 	H 	0.22810 0.30820 0.32160 -27.06600
C 	C 	0.16140 0.17660 0.11120 28.86600
F 	F 	0.70290 0.67240 0.32090 -5.57100
F 	F 	0.75110 0.71330 0.42470 -5.00000
F 	F 	0.76840 0.62940 0.39050 -6.53000
O 	O 	0.94492 0.64730 0.09020 0.49000
O 	O 	0.89830 0.58351 0.16770 0.46100
C 	C 	0.79540 0.75290 0.23470 -13.07200
C 	C 	0.79690 0.70090 0.27420 27.55800
C 	C 	0.83370 0.66350 0.24540 -21.67200
H 	H 	0.83460 0.62850 0.27350 7.12300
C 	C 	0.86950 0.67490 0.17700 14.97200
C 	C 	0.87070 0.72670 0.14100 -20.68800
H 	H 	0.89760 0.73620 0.09680 6.66700
C 	C 	0.83350 0.76440 0.16860 26.40900
H 	H 	0.83370 0.79970 0.14140 -25.18900
C 	C 	0.90770 0.63200 0.14220 -4.97500
C 	C 	0.75430 0.67730 0.35450 31.53800
F 	F 	0.84490 0.86520 0.17170 -4.63100
F 	F 	0.79010 0.83500 0.06850 -4.77100
F 	F 	0.87730 0.82610 0.04920 -5.88600
H 	H 	0.77190 0.69180 0.32160 -27.10400
C 	C 	0.83860 0.82340 0.11120 28.90500
F 	F 	0.67240 0.29710 0.82090 -5.57000
F 	F 	0.71330 0.24890 0.92470 -4.99700
F 	F 	0.62940 0.23160 0.89050 -6.52900
O 	O 	0.64730 0.05508 0.59020 0.48400
O 	O 	0.58351 0.10170 0.66770 0.45900
C 	C 	0.75290 0.20460 0.73470 -13.07500
C 	C 	0.70090 0.20310 0.77420 27.56400
C 	C 	0.66350 0.16630 0.74540 -21.67600
H 	H 	0.62850 0.16540 0.77350 7.12400
C 	C 	0.67490 0.13050 0.67700 14.97400
C 	C 	0.72670 0.12930 0.64100 -20.69100
H 	H 	0.73620 0.10240 0.59680 6.66800
C 	C 	0.76440 0.16650 0.66860 26.41400
H 	H 	0.79970 0.16630 0.64140 -25.19300
C 	C 	0.63200 0.09230 0.64220 -4.97500
C 	C 	0.67730 0.24570 0.85450 31.54300
F 	F 	0.86520 0.15510 0.67170 -4.63200
F 	F 	0.83500 0.20990 0.56850 -4.76700
F 	F 	0.82610 0.12270 0.54920 -5.88300
H 	H 	0.69180 0.22810 0.82160 -27.10800
C 	C 	0.82340 0.16140 0.61120 28.90900
F 	F 	0.32760 0.70290 0.82090 -5.57000
F 	F 	0.28670 0.75110 0.92470 -4.99600
F 	F 	0.37060 0.76840 0.89050 -6.52900
O 	O 	0.35270 0.94492 0.59020 0.49300
O 	O 	0.41649 0.89830 0.66770 0.46300
C 	C 	0.24710 0.79540 0.73470 -13.07700
C 	C 	0.29910 0.79690 0.77420 27.57100
C 	C 	0.33650 0.83370 0.74540 -21.68200
H 	H 	0.37150 0.83460 0.77350 7.12700
C 	C 	0.32510 0.86950 0.67700 14.98100
C 	C 	0.27330 0.87070 0.64100 -20.69700
H 	H 	0.26380 0.89760 0.59680 6.67300
C 	C 	0.23560 0.83350 0.66860 26.42300
H 	H 	0.20030 0.83370 0.64140 -25.20000
C 	C 	0.36800 0.90770 0.64220 -4.97700
C 	C 	0.32270 0.75430 0.85450 31.54900
F 	F 	0.13480 0.84490 0.67170 -4.63400
F 	F 	0.16500 0.79010 0.56850 -4.76900
F 	F 	0.17390 0.87730 0.54920 -5.88400
H 	H 	0.30820 0.77190 0.82160 -27.11400
C 	C 	0.17660 0.83860 0.61120 28.91800
F 	F 	0.70290 0.32760 0.67910 -5.57000
F 	F 	0.75110 0.28670 0.57530 -5.00000
F 	F 	0.76840 0.37060 0.60950 -6.53000
O 	O 	0.94492 0.35270 0.90980 0.49500
O 	O 	0.89830 0.41649 0.83230 0.46300
C 	C 	0.79540 0.24710 0.76530 -13.07000
C 	C 	0.79690 0.29910 0.72580 27.55900
C 	C 	0.83370 0.33650 0.75460 -21.67300
H 	H 	0.83460 0.37150 0.72650 7.12400
C 	C 	0.86950 0.32510 0.82300 14.97500
C 	C 	0.87070 0.27330 0.85900 -20.68700
H 	H 	0.89760 0.26380 0.90320 6.67100
C 	C 	0.83350 0.23560 0.83140 26.40900
H 	H 	0.83370 0.20030 0.85860 -25.18600
C 	C 	0.90770 0.36800 0.85780 -4.97500
C 	C 	0.75430 0.32270 0.64550 31.53900
F 	F 	0.84490 0.13480 0.82830 -4.63100
F 	F 	0.79010 0.16500 0.93150 -4.76300
F 	F 	0.87730 0.17390 0.95080 -5.87600
H 	H 	0.77190 0.30820 0.67840 -27.10500
C 	C 	0.83860 0.17660 0.88880 28.90100
F 	F 	0.29710 0.67240 0.67910 -5.57300
F 	F 	0.24890 0.71330 0.57530 -5.00300
F 	F 	0.23160 0.62940 0.60950 -6.53400
O 	O 	0.05508 0.64730 0.90980 0.49300
O 	O 	0.10170 0.58351 0.83230 0.46300
C 	C 	0.20460 0.75290 0.76530 -13.07900
C 	C 	0.20310 0.70090 0.72580 27.57500
C 	C 	0.16630 0.66350 0.75460 -21.68500
H 	H 	0.16540 0.62850 0.72650 7.12700
C 	C 	0.13050 0.67490 0.82300 14.98200
C 	C 	0.12930 0.72670 0.85900 -20.69800
H 	H 	0.10240 0.73620 0.90320 6.67400
C 	C 	0.16650 0.76440 0.83140 26.42400
H 	H 	0.16630 0.79970 0.85860 -25.19900
C 	C 	0.09230 0.63200 0.85780 -4.97800
C 	C 	0.24570 0.67730 0.64550 31.55600
F 	F 	0.15510 0.86520 0.82830 -4.63100
F 	F 	0.20990 0.83500 0.93150 -4.76200
F 	F 	0.12270 0.82610 0.95080 -5.87500
H 	H 	0.22810 0.69180 0.67840 -27.12000
C 	C 	0.16140 0.82340 0.88880 28.91500
F 	F 	0.32760 0.29710 0.17910 -5.56600
F 	F 	0.28670 0.24890 0.07530 -5.00000
F 	F 	0.37060 0.23160 0.10950 -6.52800
O 	O 	0.35270 0.05508 0.40980 0.48100
O 	O 	0.41649 0.10170 0.33230 0.45400
C 	C 	0.24710 0.20460 0.26530 -13.05000
C 	C 	0.29910 0.20310 0.22580 27.51600
C 	C 	0.33650 0.16630 0.25460 -21.63900
H 	H 	0.37150 0.16540 0.22650 7.11000
C 	C 	0.32510 0.13050 0.32300 14.94600
C 	C 	0.27330 0.12930 0.35900 -20.65400
H 	H 	0.26380 0.10240 0.40320 6.65500
C 	C 	0.23560 0.16650 0.33140 26.36600
H 	H 	0.20030 0.16630 0.35860 -25.14800
C 	C 	0.36800 0.09230 0.35780 -4.96500
C 	C 	0.32270 0.24570 0.14550 31.49600
F 	F 	0.13480 0.15510 0.32830 -4.62800
F 	F 	0.16500 0.20990 0.43150 -4.76000
F 	F 	0.17390 0.12270 0.45080 -5.87400
H 	H 	0.30820 0.22810 0.17840 -27.06600
C 	C 	0.17660 0.16140 0.38880 28.85900
F 	F 	0.67240 0.70290 0.17910 -5.57300
F 	F 	0.71330 0.75110 0.07530 -5.00500
F 	F 	0.62940 0.76840 0.10950 -6.53500
O 	O 	0.64730 0.94492 0.40980 0.49200
O 	O 	0.58351 0.89830 0.33230 0.46000
C 	C 	0.75290 0.79540 0.26530 -13.07000
C 	C 	0.70090 0.79690 0.22580 27.55800
C 	C 	0.66350 0.83370 0.25460 -21.67200
H 	H 	0.62850 0.83460 0.22650 7.12200
C 	C 	0.67490 0.86950 0.32300 14.97200
C 	C 	0.72670 0.87070 0.35900 -20.68600
H 	H 	0.73620 0.89760 0.40320 6.66800
C 	C 	0.76440 0.83350 0.33140 26.40700
H 	H 	0.79970 0.83370 0.35860 -25.18500
C 	C 	0.63200 0.90770 0.35780 -4.97500
C 	C 	0.67730 0.75430 0.14550 31.54000
F 	F 	0.86520 0.84490 0.32830 -4.62900
F 	F 	0.83500 0.79010 0.43150 -4.76500
F 	F 	0.82610 0.87730 0.45080 -5.87900
H 	H 	0.69180 0.77190 0.17840 -27.10500
C 	C 	0.82340 0.83860 0.38880 28.90000
F 	F 	0.70290 0.67240 0.67910 -5.57300
F 	F 	0.75110 0.71330 0.57530 -5.00300
F 	F 	0.76840 0.62940 0.60950 -6.53400
O 	O 	0.94492 0.64730 0.90980 0.49600
O 	O 	0.89830 0.58351 0.83230 0.46400
C 	C 	0.79540 0.75290 0.76530 -13.08000
C 	C 	0.79690 0.70090 0.72580 27.57800
C 	C 	0.83370 0.66350 0.75460 -21.68800
H 	H 	0.83460 0.62850 0.72650 7.12900
C 	C 	0.86950 0.67490 0.82300 14.98500
C 	C 	0.87070 0.72670 0.85900 -20.70100
H 	H 	0.89760 0.73620 0.90320 6.67500
C 	C 	0.83350 0.76440 0.83140 26.42800
H 	H 	0.83370 0.79970 0.85860 -25.20200
C 	C 	0.90770 0.63200 0.85780 -4.97900
C 	C 	0.75430 0.67730 0.64550 31.55900
F 	F 	0.84490 0.86520 0.82830 -4.63100
F 	F 	0.79010 0.83500 0.93150 -4.76400
F 	F 	0.87730 0.82610 0.95080 -5.87800
H 	H 	0.77190 0.69180 0.67840 -27.12300
C 	C 	0.83860 0.82340 0.88880 28.91900
F 	F 	0.29710 0.32760 0.67910 -5.56900
F 	F 	0.24890 0.28670 0.57530 -5.00000
F 	F 	0.23160 0.37060 0.60950 -6.53000
O 	O 	0.05508 0.35270 0.90980 0.49200
O 	O 	0.10170 0.41649 0.83230 0.46200
C 	C 	0.20460 0.24710 0.76530 -13.06900
C 	C 	0.20310 0.29910 0.72580 27.55500
C 	C 	0.16630 0.33650 0.75460 -21.67000
H 	H 	0.16540 0.37150 0.72650 7.12200
C 	C 	0.13050 0.32510 0.82300 14.97200
C 	C 	0.12930 0.27330 0.85900 -20.68400
H 	H 	0.10240 0.26380 0.90320 6.66900
C 	C 	0.16650 0.23560 0.83140 26.40500
H 	H 	0.16630 0.20030 0.85860 -25.18200
C 	C 	0.09230 0.36800 0.85780 -4.97400
C 	C 	0.24570 0.32270 0.64550 31.53600
F 	F 	0.15510 0.13480 0.82830 -4.63200
F 	F 	0.20990 0.16500 0.93150 -4.76000
F 	F 	0.12270 0.17390 0.95080 -5.87300
H 	H 	0.22810 0.30820 0.67840 -27.10200
C 	C 	0.16140 0.17660 0.88880 28.89700
F 	F 	0.32760 0.70290 0.17910 -5.56800
F 	F 	0.28670 0.75110 0.07530 -5.00200
F 	F 	0.37060 0.76840 0.10950 -6.53000
O 	O 	0.35270 0.94492 0.40980 0.49000
O 	O 	0.41649 0.89830 0.33230 0.45900
C 	C 	0.24710 0.79540 0.26530 -13.05600
C 	C 	0.29910 0.79690 0.22580 27.53000
C 	C 	0.33650 0.83370 0.25460 -21.65000
H 	H 	0.37150 0.83460 0.22650 7.11400
C 	C 	0.32510 0.86950 0.32300 14.95700
C 	C 	0.27330 0.87070 0.35900 -20.66500
H 	H 	0.26380 0.89760 0.40320 6.66100
C 	C 	0.23560 0.83350 0.33140 26.38000
H 	H 	0.20030 0.83370 0.35860 -25.16000
C 	C 	0.36800 0.90770 0.35780 -4.96900
C 	C 	0.32270 0.75430 0.14550 31.51100
F 	F 	0.13480 0.84490 0.32830 -4.62800
F 	F 	0.16500 0.79010 0.43150 -4.76200
F 	F 	0.17390 0.87730 0.45080 -5.87400
H 	H 	0.30820 0.77190 0.17840 -27.07900
C 	C 	0.17660 0.83860 0.38880 28.87200
F 	F 	0.67240 0.29710 0.17910 -5.57000
F 	F 	0.71330 0.24890 0.07530 -5.00300
F 	F 	0.62940 0.23160 0.10950 -6.53300
O 	O 	0.64730 0.05508 0.40980 0.48300
O 	O 	0.58351 0.10170 0.33230 0.45600
C 	C 	0.75290 0.20460 0.26530 -13.06500
C 	C 	0.70090 0.20310 0.22580 27.54400
C 	C 	0.66350 0.16630 0.25460 -21.66100
H 	H 	0.62850 0.16540 0.22650 7.11700
C 	C 	0.67490 0.13050 0.32300 14.96200
C 	C 	0.72670 0.12930 0.35900 -20.67500
H 	H 	0.73620 0.10240 0.40320 6.66300
C 	C 	0.76440 0.16650 0.33140 26.39300
H 	H 	0.79970 0.16630 0.35860 -25.17300
C 	C 	0.63200 0.09230 0.35780 -4.97100
C 	C 	0.67730 0.24570 0.14550 31.52500
F 	F 	0.86520 0.15510 0.32830 -4.62900
F 	F 	0.83500 0.20990 0.43150 -4.76300
F 	F 	0.82610 0.12270 0.45080 -5.87800
H 	H 	0.69180 0.22810 0.17840 -27.09200
C 	C 	0.82340 0.16140 0.38880 28.88600
F 	F 	0.29710 0.67240 0.32090 -5.56700
F 	F 	0.24890 0.71330 0.42470 -4.99700
F 	F 	0.23160 0.62940 0.39050 -6.52700
O 	O 	0.05508 0.64730 0.09020 0.47700
O 	O 	0.10170 0.58351 0.16770 0.45500
C 	C 	0.20460 0.75290 0.23470 -13.06300
C 	C 	0.20310 0.70090 0.27420 27.53600
C 	C 	0.16630 0.66350 0.24540 -21.65500
H 	H 	0.16540 0.62850 0.27350 7.11600
C 	C 	0.13050 0.67490 0.17700 14.95600
C 	C 	0.12930 0.72670 0.14100 -20.67100
H 	H 	0.10240 0.73620 0.09680 6.65700
C 	C 	0.16650 0.76440 0.16860 26.38700
H 	H 	0.16630 0.79970 0.14140 -25.17000
C 	C 	0.09230 0.63200 0.14220 -4.96900
C 	C 	0.24570 0.67730 0.35450 31.51500
F 	F 	0.15510 0.86520 0.17170 -4.63100
F 	F 	0.20990 0.83500 0.06850 -4.77000
F 	F 	0.12270 0.82610 0.04920 -5.88800
H 	H 	0.22810 0.69180 0.32160 -27.08400
C 	C 	0.16140 0.82340 0.11120 28.88400
F 	F 	0.70290 0.32760 0.32090 -5.56800
F 	F 	0.75110 0.28670 0.42470 -4.99700
F 	F 	0.76840 0.37060 0.39050 -6.52600
O 	O 	0.94492 0.35270 0.09020 0.48900
O 	O 	0.89830 0.41649 0.16770 0.46000
C 	C 	0.79540 0.24710 0.23470 -13.06100
C 	C 	0.79690 0.29910 0.27420 27.53900
C 	C 	0.83370 0.33650 0.24540 -21.65700
H 	H 	0.83460 0.37150 0.27350 7.11800
C 	C 	0.86950 0.32510 0.17700 14.96100
C 	C 	0.87070 0.27330 0.14100 -20.67300
H 	H 	0.89760 0.26380 0.09680 6.66200
C 	C 	0.83350 0.23560 0.16860 26.39100
H 	H 	0.83370 0.20030 0.14140 -25.17200
C 	C 	0.90770 0.36800 0.14220 -4.97100
C 	C 	0.75430 0.32270 0.35450 31.51700
F 	F 	0.84490 0.13480 0.17170 -4.63100
F 	F 	0.79010 0.16500 0.06850 -4.77000
F 	F 	0.87730 0.17390 0.04920 -5.88400
H 	H 	0.77190 0.30820 0.32160 -27.08600
C 	C 	0.83860 0.17660 0.11120 28.88700
F 	F 	0.67240 0.70290 0.82090 -5.57200
F 	F 	0.71330 0.75110 0.92470 -4.99900
F 	F 	0.62940 0.76840 0.89050 -6.53100
O 	O 	0.64730 0.94492 0.59020 0.49400
O 	O 	0.58351 0.89830 0.66770 0.46300
C 	C 	0.75290 0.79540 0.73470 -13.08000
C 	C 	0.70090 0.79690 0.77420 27.57700
C 	C 	0.66350 0.83370 0.74540 -21.68700
H 	H 	0.62850 0.83460 0.77350 7.12900
C 	C 	0.67490 0.86950 0.67700 14.98500
C 	C 	0.72670 0.87070 0.64100 -20.70200
H 	H 	0.73620 0.89760 0.59680 6.67400
C 	C 	0.76440 0.83350 0.66860 26.42900
H 	H 	0.79970 0.83370 0.64140 -25.20500
C 	C 	0.63200 0.90770 0.64220 -4.97900
C 	C 	0.67730 0.75430 0.85450 31.55700
F 	F 	0.86520 0.84490 0.67170 -4.63200
F 	F 	0.83500 0.79010 0.56850 -4.76900
F 	F 	0.82610 0.87730 0.54920 -5.88400
H 	H 	0.69180 0.77190 0.82160 -27.12100
C 	C 	0.82340 0.83860 0.61120 28.92300
F 	F 	0.32760 0.29710 0.82090 -5.56800
F 	F 	0.28670 0.24890 0.92470 -4.99400
F 	F 	0.37060 0.23160 0.89050 -6.52700
O 	O 	0.35270 0.05508 0.59020 0.48400
O 	O 	0.41649 0.10170 0.66770 0.45800
C 	C 	0.24710 0.20460 0.73470 -13.07100
C 	C 	0.29910 0.20310 0.77420 27.55700
C 	C 	0.33650 0.16630 0.74540 -21.67100
H 	H 	0.37150 0.16540 0.77350 7.12300
C 	C 	0.32510 0.13050 0.67700 14.97100
C 	C 	0.27330 0.12930 0.64100 -20.68600
H 	H 	0.26380 0.10240 0.59680 6.66700
C 	C 	0.23560 0.16650 0.66860 26.40900
H 	H 	0.20030 0.16630 0.64140 -25.18800
C 	C 	0.36800 0.09230 0.64220 -4.97300
C 	C 	0.32270 0.24570 0.85450 31.53500
F 	F 	0.13480 0.15510 0.67170 -4.63400
F 	F 	0.16500 0.20990 0.56850 -4.76800
F 	F 	0.17390 0.12270 0.54920 -5.88400
H 	H 	0.30820 0.22810 0.82160 -27.10200
C 	C 	0.17660 0.16140 0.61120 28.90400
Zr	Zr	-0.00000 0.39972 -0.00000 3.15700
Zr	Zr	0.00000 0.60028 -0.00000 3.15700
Zr	Zr	0.60028 0.00000 0.50000 3.15900
Zr	Zr	0.39972 0.00000 0.50000 3.15900
Zr	Zr	0.07219 0.50000 0.12021 3.13800
Zr	Zr	0.92781 0.50000 0.12021 3.13900
Zr	Zr	0.50000 0.07219 0.62021 3.13800
Zr	Zr	0.50000 0.92781 0.62021 3.13900
Zr	Zr	0.92781 0.50000 0.87979 3.14000
Zr	Zr	0.07219 0.50000 0.87979 3.14000
Zr	Zr	0.50000 0.07219 0.37979 3.13800
Zr	Zr	0.50000 0.92781 0.37979 3.13900
O 	O 	0.07330 0.45030 -0.00000 -1.38800
O 	O 	0.92670 0.54970 -0.00000 -1.37900
O 	O 	0.54970 0.07330 0.50000 -1.37700
O 	O 	0.45030 0.92670 0.50000 -1.37200
O 	O 	0.92670 0.45030 -0.00000 -1.37900
O 	O 	0.07330 0.54970 -0.00000 -1.38800
O 	O 	0.45030 0.07330 0.50000 -1.37700
O 	O 	0.54970 0.92670 0.50000 -1.37200
O 	O 	0.00000 0.45150 0.12050 -1.42200
O 	O 	0.00000 0.54850 0.12050 -1.42200
O 	O 	0.54850 -0.00000 0.62050 -1.41900
O 	O 	0.45150 -0.00000 0.62050 -1.41900
O 	O 	-0.00000 0.45150 0.87950 -1.41100
O 	O 	0.00000 0.54850 0.87950 -1.41100
O 	O 	0.45150 0.00000 0.37950 -1.42000
O 	O 	0.54850 0.00000 0.37950 -1.42000
