data_crystal

_cell_length_a 24.39360
_cell_length_b 24.39360
_cell_length_c 14.57100
_cell_angle_alpha 90.00000
_cell_angle_beta  90.00000
_cell_angle_gamma 90.00000

_symmetry_space_group_name_	'P 1'
_symmetry_space_group_name_H-M	'P 1'

loop_
_symmetry_equiv_pos_as_xyz
  x,y,z

loop_
_atom_site_label
_atom_site_type_symbol
_atom_site_fract_x
_atom_site_fract_y
_atom_site_fract_z
_atom_site_charge
F 	F 	0.29130 0.33870 0.07150 -0.10300
F 	F 	0.34940 0.36690 0.18440 -0.08900
F 	F 	0.38200 0.32720 0.05290 -0.06400
O 	O 	0.44580 0.14630 0.09230 -0.70000
O 	O 	0.39780 0.08310 0.16930 -0.78600
C 	C 	0.29600 0.25370 0.23700 0.54400
C 	C 	0.33510 0.26500 0.16990 -0.83900
C 	C 	0.37250 0.22650 0.14010 0.69900
H 	H 	0.39890 0.23500 0.09440 -0.09600
C 	C 	0.36980 0.17380 0.18050 -0.57100
C 	C 	0.33210 0.16140 0.24640 0.74500
H 	H 	0.33100 0.12580 0.27280 -0.15300
C 	C 	0.29510 0.20140 0.27450 -0.88700
H 	H 	0.26880 0.19280 0.32030 1.12100
C 	C 	0.40760 0.13260 0.13860 0.71800
C 	C 	0.34060 0.31970 0.12340 -0.76000
F 	F 	0.19850 0.17600 0.32400 -0.14500
F 	F 	0.25300 0.21690 0.43100 -0.10800
F 	F 	0.26900 0.12850 0.39100 -0.14800
H 	H 	0.33610 0.30060 0.14360 1.07800
C 	C 	0.25620 0.18190 0.34740 -0.80900
F 	F 	0.70870 0.66130 0.07150 -0.09500
F 	F 	0.65060 0.63310 0.18440 -0.08400
F 	F 	0.61800 0.67280 0.05290 -0.06000
O 	O 	0.55420 0.85370 0.09230 -0.68700
O 	O 	0.60220 0.91690 0.16930 -0.65800
C 	C 	0.70400 0.74630 0.23700 0.54400
C 	C 	0.66490 0.73500 0.16990 -0.83400
C 	C 	0.62750 0.77350 0.14010 0.69200
H 	H 	0.60110 0.76500 0.09440 -0.09100
C 	C 	0.63020 0.82620 0.18050 -0.53100
C 	C 	0.66790 0.83860 0.24640 0.73900
H 	H 	0.66900 0.87420 0.27280 -0.09100
C 	C 	0.70490 0.79860 0.27450 -0.87300
H 	H 	0.73120 0.80720 0.32030 1.15200
C 	C 	0.59240 0.86740 0.13860 0.70000
C 	C 	0.65940 0.68030 0.12340 -0.77400
F 	F 	0.80150 0.82400 0.32400 -0.05000
F 	F 	0.74700 0.78310 0.43100 -0.07900
F 	F 	0.73100 0.87150 0.39100 -0.04800
H 	H 	0.66390 0.69940 0.14360 1.08600
C 	C 	0.74380 0.81810 0.34740 -0.84800
F 	F 	0.66130 0.29130 0.57150 -0.09100
F 	F 	0.63310 0.34940 0.68440 -0.08200
F 	F 	0.67280 0.38200 0.55290 -0.04800
O 	O 	0.85370 0.44580 0.59230 -0.68100
O 	O 	0.91690 0.39780 0.66930 -0.66000
C 	C 	0.74630 0.29600 0.73700 0.54400
C 	C 	0.73500 0.33510 0.66990 -0.83200
C 	C 	0.77350 0.37250 0.64010 0.69200
H 	H 	0.76500 0.39890 0.59440 -0.08500
C 	C 	0.82620 0.36980 0.68050 -0.52900
C 	C 	0.83860 0.33210 0.74640 0.73800
H 	H 	0.87420 0.33100 0.77280 -0.09400
C 	C 	0.79860 0.29510 0.77450 -0.87400
H 	H 	0.80720 0.26880 0.82030 1.15000
C 	C 	0.86740 0.40760 0.63860 0.69900
C 	C 	0.68030 0.34060 0.62340 -0.77600
F 	F 	0.82400 0.19850 0.82400 -0.08900
F 	F 	0.78310 0.25300 0.93100 -0.08200
F 	F 	0.87150 0.26900 0.89100 -0.06200
H 	H 	0.69940 0.33610 0.64360 1.08900
C 	C 	0.81810 0.25620 0.84740 -0.84600
F 	F 	0.33870 0.70870 0.57150 -0.08700
F 	F 	0.36690 0.65060 0.68440 -0.08200
F 	F 	0.32720 0.61800 0.55290 -0.05000
O 	O 	0.14630 0.55420 0.59230 -0.69300
O 	O 	0.08310 0.60220 0.66930 -0.77600
C 	C 	0.25370 0.70400 0.73700 0.54500
C 	C 	0.26500 0.66490 0.66990 -0.83600
C 	C 	0.22650 0.62750 0.64010 0.69900
H 	H 	0.23500 0.60110 0.59440 -0.09000
C 	C 	0.17380 0.63020 0.68050 -0.56400
C 	C 	0.16140 0.66790 0.74640 0.74700
H 	H 	0.12580 0.66900 0.77280 -0.14400
C 	C 	0.20140 0.70490 0.77450 -0.88300
H 	H 	0.19280 0.73120 0.82030 1.12800
C 	C 	0.13260 0.59240 0.63860 0.71800
C 	C 	0.31970 0.65940 0.62340 -0.76300
F 	F 	0.17600 0.80150 0.82400 -0.09600
F 	F 	0.21690 0.74700 0.93100 -0.08600
F 	F 	0.12850 0.73100 0.89100 -0.11900
H 	H 	0.30060 0.66390 0.64360 1.08000
C 	C 	0.18190 0.74380 0.84740 -0.81700
F 	F 	0.70870 0.33870 0.92850 -0.07900
F 	F 	0.65060 0.36690 0.81560 -0.08000
F 	F 	0.61800 0.32720 0.94710 -0.03900
O 	O 	0.55420 0.14630 0.90770 -0.68400
O 	O 	0.60220 0.08310 0.83070 -0.77300
C 	C 	0.70400 0.25370 0.76300 0.54400
C 	C 	0.66490 0.26500 0.83010 -0.83400
C 	C 	0.62750 0.22650 0.85990 0.69900
H 	H 	0.60110 0.23500 0.90560 -0.08500
C 	C 	0.63020 0.17380 0.81950 -0.56200
C 	C 	0.66790 0.16140 0.75360 0.74700
H 	H 	0.66900 0.12580 0.72720 -0.14500
C 	C 	0.70490 0.20140 0.72550 -0.88300
H 	H 	0.73120 0.19280 0.67970 1.12800
C 	C 	0.59240 0.13260 0.86140 0.71800
C 	C 	0.65940 0.31970 0.87660 -0.76400
F 	F 	0.80150 0.17600 0.67600 -0.09800
F 	F 	0.74700 0.21690 0.56900 -0.09400
F 	F 	0.73100 0.12850 0.60900 -0.12500
H 	H 	0.66390 0.30060 0.85640 1.08100
C 	C 	0.74380 0.18190 0.65260 -0.81800
F 	F 	0.29130 0.66130 0.92850 -0.08300
F 	F 	0.34940 0.63310 0.81560 -0.08000
F 	F 	0.38200 0.67280 0.94710 -0.03700
O 	O 	0.44580 0.85370 0.90770 -0.67200
O 	O 	0.39780 0.91690 0.83070 -0.65800
C 	C 	0.29600 0.74630 0.76300 0.54300
C 	C 	0.33510 0.73500 0.83010 -0.83000
C 	C 	0.37250 0.77350 0.85990 0.69100
H 	H 	0.39890 0.76500 0.90560 -0.08100
C 	C 	0.36980 0.82620 0.81950 -0.52800
C 	C 	0.33210 0.83860 0.75360 0.73800
H 	H 	0.33100 0.87420 0.72720 -0.09500
C 	C 	0.29510 0.79860 0.72550 -0.87400
H 	H 	0.26880 0.80720 0.67970 1.15100
C 	C 	0.40760 0.86740 0.86140 0.70000
C 	C 	0.34060 0.68030 0.87660 -0.77800
F 	F 	0.19850 0.82400 0.67600 -0.09200
F 	F 	0.25300 0.78310 0.56900 -0.09100
F 	F 	0.26900 0.87150 0.60900 -0.06700
H 	H 	0.33610 0.69940 0.85640 1.09000
C 	C 	0.25620 0.81810 0.65260 -0.84700
F 	F 	0.33870 0.29130 0.42850 -0.09400
F 	F 	0.36690 0.34940 0.31560 -0.08600
F 	F 	0.32720 0.38200 0.44710 -0.05100
O 	O 	0.14630 0.44580 0.40770 -0.69500
O 	O 	0.08310 0.39780 0.33070 -0.78600
C 	C 	0.25370 0.29600 0.26300 0.54400
C 	C 	0.26500 0.33510 0.33010 -0.83700
C 	C 	0.22650 0.37250 0.35990 0.69800
H 	H 	0.23500 0.39890 0.40560 -0.09100
C 	C 	0.17380 0.36980 0.31950 -0.57000
C 	C 	0.16140 0.33210 0.25360 0.74500
H 	H 	0.12580 0.33100 0.22720 -0.15400
C 	C 	0.20140 0.29510 0.22550 -0.88700
H 	H 	0.19280 0.26880 0.17970 1.12100
C 	C 	0.13260 0.40760 0.36140 0.71800
C 	C 	0.31970 0.34060 0.37660 -0.76200
F 	F 	0.17600 0.19850 0.17600 -0.14600
F 	F 	0.21690 0.25300 0.06900 -0.11600
F 	F 	0.12850 0.26900 0.10900 -0.15300
H 	H 	0.30060 0.33610 0.35640 1.07900
C 	C 	0.18190 0.25620 0.15260 -0.81000
F 	F 	0.66130 0.70870 0.42850 -0.08500
F 	F 	0.63310 0.65060 0.31560 -0.08200
F 	F 	0.67280 0.61800 0.44710 -0.04800
O 	O 	0.85370 0.55420 0.40770 -0.68100
O 	O 	0.91690 0.60220 0.33070 -0.65700
C 	C 	0.74630 0.70400 0.26300 0.54400
C 	C 	0.73500 0.66490 0.33010 -0.83200
C 	C 	0.77350 0.62750 0.35990 0.69100
H 	H 	0.76500 0.60110 0.40560 -0.08500
C 	C 	0.82620 0.63020 0.31950 -0.52900
C 	C 	0.83860 0.66790 0.25360 0.73900
H 	H 	0.87420 0.66900 0.22720 -0.09200
C 	C 	0.79860 0.70490 0.22550 -0.87300
H 	H 	0.80720 0.73120 0.17970 1.15200
C 	C 	0.86740 0.59240 0.36140 0.70000
C 	C 	0.68030 0.65940 0.37660 -0.77500
F 	F 	0.82400 0.80150 0.17600 -0.05300
F 	F 	0.78310 0.74700 0.06900 -0.08800
F 	F 	0.87150 0.73100 0.10900 -0.05500
H 	H 	0.69940 0.66390 0.35640 1.08800
C 	C 	0.81810 0.74380 0.15260 -0.84800
F 	F 	0.70870 0.66130 0.92850 -0.07700
F 	F 	0.65060 0.63310 0.81560 -0.07900
F 	F 	0.61800 0.67280 0.94710 -0.03600
O 	O 	0.55420 0.85370 0.90770 -0.67200
O 	O 	0.60220 0.91690 0.83070 -0.65100
C 	C 	0.70400 0.74630 0.76300 0.54400
C 	C 	0.66490 0.73500 0.83010 -0.83000
C 	C 	0.62750 0.77350 0.85990 0.69100
H 	H 	0.60110 0.76500 0.90560 -0.08000
C 	C 	0.63020 0.82620 0.81950 -0.52400
C 	C 	0.66790 0.83860 0.75360 0.73900
H 	H 	0.66900 0.87420 0.72720 -0.08900
C 	C 	0.70490 0.79860 0.72550 -0.87200
H 	H 	0.73120 0.80720 0.67970 1.15500
C 	C 	0.59240 0.86740 0.86140 0.70000
C 	C 	0.65940 0.68030 0.87660 -0.77800
F 	F 	0.80150 0.82400 0.67600 -0.04800
F 	F 	0.74700 0.78310 0.56900 -0.07800
F 	F 	0.73100 0.87150 0.60900 -0.04600
H 	H 	0.66390 0.69940 0.85640 1.09000
C 	C 	0.74380 0.81810 0.65260 -0.85100
F 	F 	0.29130 0.33870 0.92850 -0.08400
F 	F 	0.34940 0.36690 0.81560 -0.08200
F 	F 	0.38200 0.32720 0.94710 -0.03900
O 	O 	0.44580 0.14630 0.90770 -0.68500
O 	O 	0.39780 0.08310 0.83070 -0.77900
C 	C 	0.29600 0.25370 0.76300 0.54400
C 	C 	0.33510 0.26500 0.83010 -0.83500
C 	C 	0.37250 0.22650 0.85990 0.69800
H 	H 	0.39890 0.23500 0.90560 -0.08600
C 	C 	0.36980 0.17380 0.81950 -0.56500
C 	C 	0.33210 0.16140 0.75360 0.74500
H 	H 	0.33100 0.12580 0.72720 -0.15100
C 	C 	0.29510 0.20140 0.72550 -0.88500
H 	H 	0.26880 0.19280 0.67970 1.12400
C 	C 	0.40760 0.13260 0.86140 0.71800
C 	C 	0.34060 0.31970 0.87660 -0.76400
F 	F 	0.19850 0.17600 0.67600 -0.14200
F 	F 	0.25300 0.21690 0.56900 -0.10700
F 	F 	0.26900 0.12850 0.60900 -0.14600
H 	H 	0.33610 0.30060 0.85640 1.08100
C 	C 	0.25620 0.18190 0.65260 -0.81300
F 	F 	0.33870 0.70870 0.42850 -0.08700
F 	F 	0.36690 0.65060 0.31560 -0.08400
F 	F 	0.32720 0.61800 0.44710 -0.05100
O 	O 	0.14630 0.55420 0.40770 -0.69400
O 	O 	0.08310 0.60220 0.33070 -0.78000
C 	C 	0.25370 0.70400 0.26300 0.54400
C 	C 	0.26500 0.66490 0.33010 -0.83700
C 	C 	0.22650 0.62750 0.35990 0.69800
H 	H 	0.23500 0.60110 0.40560 -0.09100
C 	C 	0.17380 0.63020 0.31950 -0.56700
C 	C 	0.16140 0.66790 0.25360 0.74700
H 	H 	0.12580 0.66900 0.22720 -0.14800
C 	C 	0.20140 0.70490 0.22550 -0.88500
H 	H 	0.19280 0.73120 0.17970 1.12600
C 	C 	0.13260 0.59240 0.36140 0.71800
C 	C 	0.31970 0.65940 0.37660 -0.76200
F 	F 	0.17600 0.80150 0.17600 -0.10300
F 	F 	0.21690 0.74700 0.06900 -0.10400
F 	F 	0.12850 0.73100 0.10900 -0.13300
H 	H 	0.30060 0.66390 0.35640 1.07900
C 	C 	0.18190 0.74380 0.15260 -0.81400
F 	F 	0.66130 0.29130 0.42850 -0.09100
F 	F 	0.63310 0.34940 0.31560 -0.08400
F 	F 	0.67280 0.38200 0.44710 -0.04900
O 	O 	0.85370 0.44580 0.40770 -0.68200
O 	O 	0.91690 0.39780 0.33070 -0.66400
C 	C 	0.74630 0.29600 0.26300 0.54300
C 	C 	0.73500 0.33510 0.33010 -0.83300
C 	C 	0.77350 0.37250 0.35990 0.69100
H 	H 	0.76500 0.39890 0.40560 -0.08600
C 	C 	0.82620 0.36980 0.31950 -0.53200
C 	C 	0.83860 0.33210 0.25360 0.73700
H 	H 	0.87420 0.33100 0.22720 -0.09800
C 	C 	0.79860 0.29510 0.22550 -0.87600
H 	H 	0.80720 0.26880 0.17970 1.14800
C 	C 	0.86740 0.40760 0.36140 0.69900
C 	C 	0.68030 0.34060 0.37660 -0.77500
F 	F 	0.82400 0.19850 0.17600 -0.09600
F 	F 	0.78310 0.25300 0.06900 -0.10100
F 	F 	0.87150 0.26900 0.10900 -0.07500
H 	H 	0.69940 0.33610 0.35640 1.08800
C 	C 	0.81810 0.25620 0.15260 -0.84400
F 	F 	0.29130 0.66130 0.07150 -0.10000
F 	F 	0.34940 0.63310 0.18440 -0.08600
F 	F 	0.38200 0.67280 0.05290 -0.06000
O 	O 	0.44580 0.85370 0.09230 -0.68800
O 	O 	0.39780 0.91690 0.16930 -0.66500
C 	C 	0.29600 0.74630 0.23700 0.54400
C 	C 	0.33510 0.73500 0.16990 -0.83500
C 	C 	0.37250 0.77350 0.14010 0.69200
H 	H 	0.39890 0.76500 0.09440 -0.09100
C 	C 	0.36980 0.82620 0.18050 -0.53400
C 	C 	0.33210 0.83860 0.24640 0.73800
H 	H 	0.33100 0.87420 0.27280 -0.09700
C 	C 	0.29510 0.79860 0.27450 -0.87500
H 	H 	0.26880 0.80720 0.32030 1.14800
C 	C 	0.40760 0.86740 0.13860 0.70000
C 	C 	0.34060 0.68030 0.12340 -0.77400
F 	F 	0.19850 0.82400 0.32400 -0.09400
F 	F 	0.25300 0.78310 0.43100 -0.09200
F 	F 	0.26900 0.87150 0.39100 -0.06900
H 	H 	0.33610 0.69940 0.14360 1.08700
C 	C 	0.25620 0.81810 0.34740 -0.84300
F 	F 	0.70870 0.33870 0.07150 -0.09700
F 	F 	0.65060 0.36690 0.18440 -0.08600
F 	F 	0.61800 0.32720 0.05290 -0.06200
O 	O 	0.55420 0.14630 0.09230 -0.69900
O 	O 	0.60220 0.08310 0.16930 -0.77900
C 	C 	0.70400 0.25370 0.23700 0.54500
C 	C 	0.66490 0.26500 0.16990 -0.83800
C 	C 	0.62750 0.22650 0.14010 0.69900
H 	H 	0.60110 0.23500 0.09440 -0.09600
C 	C 	0.63020 0.17380 0.18050 -0.56800
C 	C 	0.66790 0.16140 0.24640 0.74700
H 	H 	0.66900 0.12580 0.27280 -0.14600
C 	C 	0.70490 0.20140 0.27450 -0.88400
H 	H 	0.73120 0.19280 0.32030 1.12600
C 	C 	0.59240 0.13260 0.13860 0.71800
C 	C 	0.65940 0.31970 0.12340 -0.76000
F 	F 	0.80150 0.17600 0.32400 -0.10100
F 	F 	0.74700 0.21690 0.43100 -0.09500
F 	F 	0.73100 0.12850 0.39100 -0.12700
H 	H 	0.66390 0.30060 0.14360 1.07800
C 	C 	0.74380 0.18190 0.34740 -0.81400
F 	F 	0.66130 0.70870 0.57150 -0.08500
F 	F 	0.63310 0.65060 0.68440 -0.08000
F 	F 	0.67280 0.61800 0.55290 -0.04700
O 	O 	0.85370 0.55420 0.59230 -0.68000
O 	O 	0.91690 0.60220 0.66930 -0.65400
C 	C 	0.74630 0.70400 0.73700 0.54400
C 	C 	0.73500 0.66490 0.66990 -0.83100
C 	C 	0.77350 0.62750 0.64010 0.69200
H 	H 	0.76500 0.60110 0.59440 -0.08500
C 	C 	0.82620 0.63020 0.68050 -0.52600
C 	C 	0.83860 0.66790 0.74640 0.73900
H 	H 	0.87420 0.66900 0.77280 -0.08800
C 	C 	0.79860 0.70490 0.77450 -0.87200
H 	H 	0.80720 0.73120 0.82030 1.15500
C 	C 	0.86740 0.59240 0.63860 0.70000
C 	C 	0.68030 0.65940 0.62340 -0.77600
F 	F 	0.82400 0.80150 0.82400 -0.04600
F 	F 	0.78310 0.74700 0.93100 -0.07000
F 	F 	0.87150 0.73100 0.89100 -0.04100
H 	H 	0.69940 0.66390 0.64360 1.08900
C 	C 	0.81810 0.74380 0.84740 -0.85100
F 	F 	0.33870 0.29130 0.57150 -0.09300
F 	F 	0.36690 0.34940 0.68440 -0.08400
F 	F 	0.32720 0.38200 0.55290 -0.05100
O 	O 	0.14630 0.44580 0.59230 -0.69300
O 	O 	0.08310 0.39780 0.66930 -0.78300
C 	C 	0.25370 0.29600 0.73700 0.54400
C 	C 	0.26500 0.33510 0.66990 -0.83700
C 	C 	0.22650 0.37250 0.64010 0.69900
H 	H 	0.23500 0.39890 0.59440 -0.09100
C 	C 	0.17380 0.36980 0.68050 -0.56700
C 	C 	0.16140 0.33210 0.74640 0.74600
H 	H 	0.12580 0.33100 0.77280 -0.15000
C 	C 	0.20140 0.29510 0.77450 -0.88500
H 	H 	0.19280 0.26880 0.82030 1.12400
C 	C 	0.13260 0.40760 0.63860 0.71800
C 	C 	0.31970 0.34060 0.62340 -0.76300
F 	F 	0.17600 0.19850 0.82400 -0.13900
F 	F 	0.21690 0.25300 0.93100 -0.09800
F 	F 	0.12850 0.26900 0.89100 -0.14000
H 	H 	0.30060 0.33610 0.64360 1.08000
C 	C 	0.18190 0.25620 0.84740 -0.81200
Zr	Zr	0.50000 0.09986 -0.00000 3.22000
Zr	Zr	0.50000 0.90014 -0.00000 3.21800
Zr	Zr	0.90014 0.50000 0.50000 3.22000
Zr	Zr	0.09986 0.50000 0.50000 3.22200
Zr	Zr	0.42764 -0.00000 0.12182 3.15300
Zr	Zr	0.57236 -0.00000 0.12182 3.15400
Zr	Zr	-0.00000 0.42764 0.62182 3.15300
Zr	Zr	-0.00000 0.57236 0.62182 3.15400
Zr	Zr	0.57236 -0.00000 0.87818 3.15600
Zr	Zr	0.42764 -0.00000 0.87818 3.15500
Zr	Zr	-0.00000 0.42764 0.37818 3.15300
Zr	Zr	0.00000 0.57236 0.37818 3.15400
O 	O 	0.42860 0.04980 -0.00000 -1.40200
O 	O 	0.57140 0.95020 -0.00000 -1.23100
O 	O 	0.95020 0.42860 0.50000 -1.21900
O 	O 	0.04980 0.57140 0.50000 -1.38800
O 	O 	0.57140 0.04980 -0.00000 -1.39800
O 	O 	0.42860 0.95020 -0.00000 -1.23500
O 	O 	0.04980 0.42860 0.50000 -1.39200
O 	O 	0.95020 0.57140 0.50000 -1.21500
O 	O 	0.50000 0.04790 0.11960 -1.40200
O 	O 	0.50000 0.95210 0.11960 -1.22400
O 	O 	0.95210 0.50000 0.61960 -1.22000
O 	O 	0.04790 0.50000 0.61960 -1.40200
O 	O 	0.50000 0.04790 0.88040 -1.39200
O 	O 	0.50000 0.95210 0.88040 -1.21300
O 	O 	0.04790 0.50000 0.38040 -1.40400
O 	O 	0.95210 0.50000 0.38040 -1.22200
