data_crystal

_cell_length_a 24.26030
_cell_length_b 24.26030
_cell_length_c 15.14650
_cell_angle_alpha 90.00000
_cell_angle_beta  90.00000
_cell_angle_gamma 90.00000

_symmetry_space_group_name_	'P 1'
_symmetry_space_group_name_H-M	'P 1'

loop_
_symmetry_equiv_pos_as_xyz
  x,y,z

loop_
_atom_site_label
_atom_site_type_symbol
_atom_site_fract_x
_atom_site_fract_y
_atom_site_fract_z
_atom_site_charge
O 	O 	0.44490 0.14881 0.08590 -0.59600
O 	O 	0.39700 0.08310 0.16150 -0.72800
C 	C 	0.29720 0.25560 0.23370 -0.28100
C 	C 	0.33440 0.26660 0.16930 0.86500
H 	H 	0.33380 0.30190 0.14230 -0.73700
C 	C 	0.37320 0.22880 0.14110 -0.50700
H 	H 	0.40170 0.23950 0.10170 0.30100
C 	C 	0.36990 0.17560 0.17110 0.24100
C 	C 	0.33340 0.16460 0.23690 -0.43700
H 	H 	0.33310 0.12860 0.26170 0.22700
C 	C 	0.29580 0.20390 0.27040 0.72200
C 	C 	0.40680 0.13350 0.13890 0.37600
C 	C 	0.24740 0.17670 0.35450 1.37300
F 	F 	0.26770 0.12670 0.37000 -0.58700
F 	F 	0.25410 0.21330 0.41910 -0.47600
F 	F 	0.19990 0.17780 0.31100 -0.52900
H 	H 	0.27060 0.19500 0.31630 -0.59100
F 	F 	0.37390 0.32540 0.04990 -0.48700
F 	F 	0.28300 0.33210 0.07330 -0.51300
F 	F 	0.34250 0.36760 0.17350 -0.50300
C 	C 	0.33300 0.33190 0.10880 1.52600
O 	O 	0.55510 0.85119 0.08590 -0.58300
O 	O 	0.60300 0.91690 0.16150 -0.59800
C 	C 	0.70280 0.74440 0.23370 -0.30500
C 	C 	0.66560 0.73340 0.16930 0.90800
H 	H 	0.66620 0.69810 0.14230 -0.75900
C 	C 	0.62680 0.77120 0.14110 -0.54700
H 	H 	0.59830 0.76050 0.10170 0.31700
C 	C 	0.63010 0.82440 0.17110 0.31000
C 	C 	0.66660 0.83540 0.23690 -0.48100
H 	H 	0.66690 0.87140 0.26170 0.29900
C 	C 	0.70420 0.79610 0.27040 0.78800
C 	C 	0.59320 0.86650 0.13890 0.34700
C 	C 	0.75260 0.82330 0.35450 1.40800
F 	F 	0.73230 0.87330 0.37000 -0.49300
F 	F 	0.74590 0.78670 0.41910 -0.45100
F 	F 	0.80010 0.82220 0.31100 -0.45200
H 	H 	0.72940 0.80500 0.31630 -0.62200
F 	F 	0.62610 0.67460 0.04990 -0.48900
F 	F 	0.71700 0.66790 0.07330 -0.50800
F 	F 	0.65750 0.63240 0.17350 -0.50200
C 	C 	0.66700 0.66810 0.10880 1.54400
O 	O 	0.85119 0.44490 0.58590 -0.57500
O 	O 	0.91690 0.39700 0.66150 -0.59900
C 	C 	0.74440 0.29720 0.73370 -0.33200
C 	C 	0.73340 0.33440 0.66930 0.93400
H 	H 	0.69810 0.33380 0.64230 -0.77200
C 	C 	0.77120 0.37320 0.64110 -0.56300
H 	H 	0.76050 0.40170 0.60170 0.32700
C 	C 	0.82440 0.36990 0.67110 0.32200
C 	C 	0.83540 0.33340 0.73690 -0.49400
H 	H 	0.87140 0.33310 0.76170 0.29900
C 	C 	0.79610 0.29580 0.77040 0.80400
C 	C 	0.86650 0.40680 0.63890 0.34200
C 	C 	0.82330 0.24740 0.85450 1.40700
F 	F 	0.87330 0.26770 0.87000 -0.50900
F 	F 	0.78670 0.25410 0.91910 -0.45800
F 	F 	0.82220 0.19990 0.81100 -0.48800
H 	H 	0.80500 0.27060 0.81630 -0.62800
F 	F 	0.67460 0.37390 0.54990 -0.47900
F 	F 	0.66790 0.28300 0.57330 -0.50900
F 	F 	0.63240 0.34250 0.67350 -0.50300
C 	C 	0.66810 0.33300 0.60880 1.55400
O 	O 	0.14881 0.55510 0.58590 -0.58900
O 	O 	0.08310 0.60300 0.66150 -0.72000
C 	C 	0.25560 0.70280 0.73370 -0.25900
C 	C 	0.26660 0.66560 0.66930 0.85300
H 	H 	0.30190 0.66620 0.64230 -0.73000
C 	C 	0.22880 0.62680 0.64110 -0.49800
H 	H 	0.23950 0.59830 0.60170 0.30300
C 	C 	0.17560 0.63010 0.67110 0.24400
C 	C 	0.16460 0.66660 0.73690 -0.43000
H 	H 	0.12860 0.66690 0.76170 0.23400
C 	C 	0.20390 0.70420 0.77040 0.71800
C 	C 	0.13350 0.59320 0.63890 0.37700
C 	C 	0.17670 0.75260 0.85450 1.38000
F 	F 	0.12670 0.73230 0.87000 -0.56000
F 	F 	0.21330 0.74590 0.91910 -0.45600
F 	F 	0.17780 0.80010 0.81100 -0.48600
H 	H 	0.19500 0.72940 0.81630 -0.59100
F 	F 	0.32540 0.62610 0.54990 -0.47300
F 	F 	0.33210 0.71700 0.57330 -0.49600
F 	F 	0.36760 0.65750 0.67350 -0.49500
C 	C 	0.33190 0.66700 0.60880 1.52100
O 	O 	0.55510 0.14881 0.91410 -0.57900
O 	O 	0.60300 0.08310 0.83850 -0.71500
C 	C 	0.70280 0.25560 0.76630 -0.26400
C 	C 	0.66560 0.26660 0.83070 0.86100
H 	H 	0.66620 0.30190 0.85770 -0.73300
C 	C 	0.62680 0.22880 0.85890 -0.50300
H 	H 	0.59830 0.23950 0.89830 0.30900
C 	C 	0.63010 0.17560 0.82890 0.25000
C 	C 	0.66660 0.16460 0.76310 -0.43400
H 	H 	0.66690 0.12860 0.73830 0.23400
C 	C 	0.70420 0.20390 0.72960 0.72300
C 	C 	0.59320 0.13350 0.86110 0.37500
C 	C 	0.75260 0.17670 0.64550 1.38100
F 	F 	0.73230 0.12670 0.63000 -0.56500
F 	F 	0.74590 0.21330 0.58090 -0.46400
F 	F 	0.80010 0.17780 0.68900 -0.48800
H 	H 	0.72940 0.19500 0.68370 -0.59300
F 	F 	0.62610 0.32540 0.95010 -0.46200
F 	F 	0.71700 0.33210 0.92670 -0.48900
F 	F 	0.65750 0.36760 0.82650 -0.49400
C 	C 	0.66700 0.33190 0.89120 1.52500
O 	O 	0.44490 0.85119 0.91410 -0.56500
O 	O 	0.39700 0.91690 0.83850 -0.59600
C 	C 	0.29720 0.74440 0.76630 -0.33700
C 	C 	0.33440 0.73340 0.83070 0.94200
H 	H 	0.33380 0.69810 0.85770 -0.77600
C 	C 	0.37320 0.77120 0.85890 -0.56800
H 	H 	0.40170 0.76050 0.89830 0.33300
C 	C 	0.36990 0.82440 0.82890 0.32700
C 	C 	0.33340 0.83540 0.76310 -0.49800
H 	H 	0.33310 0.87140 0.73830 0.29900
C 	C 	0.29580 0.79610 0.72960 0.80800
C 	C 	0.40680 0.86650 0.86110 0.34000
C 	C 	0.24740 0.82330 0.64550 1.40800
F 	F 	0.26770 0.87330 0.63000 -0.51400
F 	F 	0.25410 0.78670 0.58090 -0.46500
F 	F 	0.19990 0.82220 0.68900 -0.49000
H 	H 	0.27060 0.80500 0.68370 -0.63000
F 	F 	0.37390 0.67460 0.95010 -0.46800
F 	F 	0.28300 0.66790 0.92670 -0.50200
F 	F 	0.34250 0.63240 0.82650 -0.50200
C 	C 	0.33300 0.66810 0.89120 1.55700
O 	O 	0.14881 0.44490 0.41410 -0.59000
O 	O 	0.08310 0.39700 0.33850 -0.72900
C 	C 	0.25560 0.29720 0.26630 -0.28600
C 	C 	0.26660 0.33440 0.33070 0.87200
H 	H 	0.30190 0.33380 0.35770 -0.74100
C 	C 	0.22880 0.37320 0.35890 -0.51100
H 	H 	0.23950 0.40170 0.39830 0.30700
C 	C 	0.17560 0.36990 0.32890 0.24600
C 	C 	0.16460 0.33340 0.26310 -0.44000
H 	H 	0.12860 0.33310 0.23830 0.22700
C 	C 	0.20390 0.29580 0.22960 0.72600
C 	C 	0.13350 0.40680 0.36110 0.37400
C 	C 	0.17670 0.24740 0.14550 1.37400
F 	F 	0.12670 0.26770 0.13000 -0.59200
F 	F 	0.21330 0.25410 0.08090 -0.48300
F 	F 	0.17780 0.19990 0.18900 -0.53100
H 	H 	0.19500 0.27060 0.18370 -0.59300
F 	F 	0.32540 0.37390 0.45010 -0.47600
F 	F 	0.33210 0.28300 0.42670 -0.50600
F 	F 	0.36760 0.34250 0.32650 -0.50100
C 	C 	0.33190 0.33300 0.39120 1.52900
O 	O 	0.85119 0.55510 0.41410 -0.57500
O 	O 	0.91690 0.60300 0.33850 -0.59600
C 	C 	0.74440 0.70280 0.26630 -0.31000
C 	C 	0.73340 0.66560 0.33070 0.91600
H 	H 	0.69810 0.66620 0.35770 -0.76300
C 	C 	0.77120 0.62680 0.35890 -0.55200
H 	H 	0.76050 0.59830 0.39830 0.32300
C 	C 	0.82440 0.63010 0.32890 0.31600
C 	C 	0.83540 0.66660 0.26310 -0.48500
H 	H 	0.87140 0.66690 0.23830 0.29900
C 	C 	0.79610 0.70420 0.22960 0.79200
C 	C 	0.86650 0.59320 0.36110 0.34400
C 	C 	0.82330 0.75260 0.14550 1.40800
F 	F 	0.87330 0.73230 0.13000 -0.49900
F 	F 	0.78670 0.74590 0.08090 -0.46000
F 	F 	0.82220 0.80010 0.18900 -0.45400
H 	H 	0.80500 0.72940 0.18370 -0.62400
F 	F 	0.67460 0.62610 0.45010 -0.47700
F 	F 	0.66790 0.71700 0.42670 -0.50000
F 	F 	0.63240 0.65750 0.32650 -0.50100
C 	C 	0.66810 0.66700 0.39120 1.54700
O 	O 	0.55510 0.85119 0.91410 -0.56500
O 	O 	0.60300 0.91690 0.83850 -0.58900
C 	C 	0.70280 0.74440 0.76630 -0.31200
C 	C 	0.66560 0.73340 0.83070 0.92300
H 	H 	0.66620 0.69810 0.85770 -0.76500
C 	C 	0.62680 0.77120 0.85890 -0.55500
H 	H 	0.59830 0.76050 0.89830 0.32900
C 	C 	0.63010 0.82440 0.82890 0.32300
C 	C 	0.66660 0.83540 0.76310 -0.48800
H 	H 	0.66690 0.87140 0.73830 0.30300
C 	C 	0.70420 0.79610 0.72960 0.79800
C 	C 	0.59320 0.86650 0.86110 0.34300
C 	C 	0.75260 0.82330 0.64550 1.41100
F 	F 	0.73230 0.87330 0.63000 -0.49200
F 	F 	0.74590 0.78670 0.58090 -0.45200
F 	F 	0.80010 0.82220 0.68900 -0.45000
H 	H 	0.72940 0.80500 0.68370 -0.62700
F 	F 	0.62610 0.67460 0.95010 -0.46600
F 	F 	0.71700 0.66790 0.92670 -0.49300
F 	F 	0.65750 0.63240 0.82650 -0.49800
C 	C 	0.66700 0.66810 0.89120 1.55000
O 	O 	0.44490 0.14881 0.91410 -0.57900
O 	O 	0.39700 0.08310 0.83850 -0.72100
C 	C 	0.29720 0.25560 0.76630 -0.28900
C 	C 	0.33440 0.26660 0.83070 0.87900
H 	H 	0.33380 0.30190 0.85770 -0.74400
C 	C 	0.37320 0.22880 0.85890 -0.51500
H 	H 	0.40170 0.23950 0.89830 0.31300
C 	C 	0.36990 0.17560 0.82890 0.25400
C 	C 	0.33340 0.16460 0.76310 -0.44400
H 	H 	0.33310 0.12860 0.73830 0.23100
C 	C 	0.29580 0.20390 0.72960 0.73200
C 	C 	0.40680 0.13350 0.86110 0.37200
C 	C 	0.24740 0.17670 0.64550 1.37700
F 	F 	0.26770 0.12670 0.63000 -0.58600
F 	F 	0.25410 0.21330 0.58090 -0.47700
F 	F 	0.19990 0.17780 0.68900 -0.52800
H 	H 	0.27060 0.19500 0.68370 -0.59600
F 	F 	0.37390 0.32540 0.95010 -0.46400
F 	F 	0.28300 0.33210 0.92670 -0.49800
F 	F 	0.34250 0.36760 0.82650 -0.49800
C 	C 	0.33300 0.33190 0.89120 1.53200
O 	O 	0.14881 0.55510 0.41410 -0.59000
O 	O 	0.08310 0.60300 0.33850 -0.72300
C 	C 	0.25560 0.70280 0.26630 -0.26200
C 	C 	0.26660 0.66560 0.33070 0.85300
H 	H 	0.30190 0.66620 0.35770 -0.73000
C 	C 	0.22880 0.62680 0.35890 -0.49900
H 	H 	0.23950 0.59830 0.39830 0.30300
C 	C 	0.17560 0.63010 0.32890 0.24200
C 	C 	0.16460 0.66660 0.26310 -0.43100
H 	H 	0.12860 0.66690 0.23830 0.23000
C 	C 	0.20390 0.70420 0.22960 0.71600
C 	C 	0.13350 0.59320 0.36110 0.37700
C 	C 	0.17670 0.75260 0.14550 1.37700
F 	F 	0.12670 0.73230 0.13000 -0.57100
F 	F 	0.21330 0.74590 0.08090 -0.47100
F 	F 	0.17780 0.80010 0.18900 -0.49100
H 	H 	0.19500 0.72940 0.18370 -0.59000
F 	F 	0.32540 0.62610 0.45010 -0.47300
F 	F 	0.33210 0.71700 0.42670 -0.49600
F 	F 	0.36760 0.65750 0.32650 -0.49700
C 	C 	0.33190 0.66700 0.39120 1.52200
O 	O 	0.85119 0.44490 0.41410 -0.57600
O 	O 	0.91690 0.39700 0.33850 -0.60200
C 	C 	0.74440 0.29720 0.26630 -0.33400
C 	C 	0.73340 0.33440 0.33070 0.93500
H 	H 	0.69810 0.33380 0.35770 -0.77300
C 	C 	0.77120 0.37320 0.35890 -0.56400
H 	H 	0.76050 0.40170 0.39830 0.32700
C 	C 	0.82440 0.36990 0.32890 0.32000
C 	C 	0.83540 0.33340 0.26310 -0.49500
H 	H 	0.87140 0.33310 0.23830 0.29600
C 	C 	0.79610 0.29580 0.22960 0.80200
C 	C 	0.86650 0.40680 0.36110 0.34100
C 	C 	0.82330 0.24740 0.14550 1.40500
F 	F 	0.87330 0.26770 0.13000 -0.52000
F 	F 	0.78670 0.25410 0.08090 -0.47200
F 	F 	0.82220 0.19990 0.18900 -0.49300
H 	H 	0.80500 0.27060 0.18370 -0.62800
F 	F 	0.67460 0.37390 0.45010 -0.48000
F 	F 	0.66790 0.28300 0.42670 -0.50900
F 	F 	0.63240 0.34250 0.32650 -0.50500
C 	C 	0.66810 0.33300 0.39120 1.55500
O 	O 	0.44490 0.85119 0.08590 -0.58300
O 	O 	0.39700 0.91690 0.16150 -0.60400
C 	C 	0.29720 0.74440 0.23370 -0.32900
C 	C 	0.33440 0.73340 0.16930 0.92700
H 	H 	0.33380 0.69810 0.14230 -0.76900
C 	C 	0.37320 0.77120 0.14110 -0.55900
H 	H 	0.40170 0.76050 0.10170 0.32100
C 	C 	0.36990 0.82440 0.17110 0.31400
C 	C 	0.33340 0.83540 0.23690 -0.49100
H 	H 	0.33310 0.87140 0.26170 0.29500
C 	C 	0.29580 0.79610 0.27040 0.79800
C 	C 	0.40680 0.86650 0.13890 0.34400
C 	C 	0.24740 0.82330 0.35450 1.40400
F 	F 	0.26770 0.87330 0.37000 -0.51500
F 	F 	0.25410 0.78670 0.41910 -0.46500
F 	F 	0.19990 0.82220 0.31100 -0.49200
H 	H 	0.27060 0.80500 0.31630 -0.62600
F 	F 	0.37390 0.67460 0.04990 -0.49100
F 	F 	0.28300 0.66790 0.07330 -0.51700
F 	F 	0.34250 0.63240 0.17350 -0.50600
C 	C 	0.33300 0.66810 0.10880 1.55100
O 	O 	0.55510 0.14881 0.08590 -0.59600
O 	O 	0.60300 0.08310 0.16150 -0.72300
C 	C 	0.70280 0.25560 0.23370 -0.25700
C 	C 	0.66560 0.26660 0.16930 0.84600
H 	H 	0.66620 0.30190 0.14230 -0.72700
C 	C 	0.62680 0.22880 0.14110 -0.49400
H 	H 	0.59830 0.23950 0.10170 0.29700
C 	C 	0.63010 0.17560 0.17110 0.23700
C 	C 	0.66660 0.16460 0.23690 -0.42700
H 	H 	0.66690 0.12860 0.26170 0.23000
C 	C 	0.70420 0.20390 0.27040 0.71300
C 	C 	0.59320 0.13350 0.13890 0.37900
C 	C 	0.75260 0.17670 0.35450 1.37700
F 	F 	0.73230 0.12670 0.37000 -0.56500
F 	F 	0.74590 0.21330 0.41910 -0.46300
F 	F 	0.80010 0.17780 0.31100 -0.48900
H 	H 	0.72940 0.19500 0.31630 -0.58800
F 	F 	0.62610 0.32540 0.04990 -0.48500
F 	F 	0.71700 0.33210 0.07330 -0.50400
F 	F 	0.65750 0.36760 0.17350 -0.49800
C 	C 	0.66700 0.33190 0.10880 1.51900
O 	O 	0.85119 0.55510 0.58590 -0.57500
O 	O 	0.91690 0.60300 0.66150 -0.59300
C 	C 	0.74440 0.70280 0.73370 -0.30700
C 	C 	0.73340 0.66560 0.66930 0.91500
H 	H 	0.69810 0.66620 0.64230 -0.76200
C 	C 	0.77120 0.62680 0.64110 -0.55100
H 	H 	0.76050 0.59830 0.60170 0.32400
C 	C 	0.82440 0.63010 0.67110 0.31800
C 	C 	0.83540 0.66660 0.73690 -0.48400
H 	H 	0.87140 0.66690 0.76170 0.30300
C 	C 	0.79610 0.70420 0.77040 0.79400
C 	C 	0.86650 0.59320 0.63890 0.34500
C 	C 	0.82330 0.75260 0.85450 1.41000
F 	F 	0.87330 0.73230 0.87000 -0.48800
F 	F 	0.78670 0.74590 0.91910 -0.44500
F 	F 	0.82220 0.80010 0.81100 -0.44900
H 	H 	0.80500 0.72940 0.81630 -0.62500
F 	F 	0.67460 0.62610 0.54990 -0.47700
F 	F 	0.66790 0.71700 0.57330 -0.50000
F 	F 	0.63240 0.65750 0.67350 -0.49900
C 	C 	0.66810 0.66700 0.60880 1.54700
O 	O 	0.14881 0.44490 0.58590 -0.58900
O 	O 	0.08310 0.39700 0.66150 -0.72600
C 	C 	0.25560 0.29720 0.73370 -0.28300
C 	C 	0.26660 0.33440 0.66930 0.87100
H 	H 	0.30190 0.33380 0.64230 -0.74000
C 	C 	0.22880 0.37320 0.64110 -0.51000
H 	H 	0.23950 0.40170 0.60170 0.30700
C 	C 	0.17560 0.36990 0.67110 0.24800
C 	C 	0.16460 0.33340 0.73690 -0.44000
H 	H 	0.12860 0.33310 0.76170 0.23000
C 	C 	0.20390 0.29580 0.77040 0.72800
C 	C 	0.13350 0.40680 0.63890 0.37500
C 	C 	0.17670 0.24740 0.85450 1.37600
F 	F 	0.12670 0.26770 0.87000 -0.58100
F 	F 	0.21330 0.25410 0.91910 -0.46800
F 	F 	0.17780 0.19990 0.81100 -0.52500
H 	H 	0.19500 0.27060 0.81630 -0.59400
F 	F 	0.32540 0.37390 0.54990 -0.47500
F 	F 	0.33210 0.28300 0.57330 -0.50500
F 	F 	0.36760 0.34250 0.67350 -0.49900
C 	C 	0.33190 0.33300 0.60880 1.52900
Zr	Zr	0.50000 0.10058 -0.00000 3.21200
Zr	Zr	0.50000 0.89942 -0.00000 3.21000
Zr	Zr	0.89942 0.50000 0.50000 3.21200
Zr	Zr	0.10058 0.50000 0.50000 3.21400
Zr	Zr	0.42719 0.00000 0.11608 3.15200
Zr	Zr	0.57281 0.00000 0.11608 3.15200
Zr	Zr	-0.00000 0.42719 0.61608 3.15100
Zr	Zr	-0.00000 0.57281 0.61608 3.15200
Zr	Zr	0.57281 0.00000 0.88392 3.15400
Zr	Zr	0.42719 0.00000 0.88392 3.15300
Zr	Zr	-0.00000 0.42719 0.38392 3.15100
Zr	Zr	-0.00000 0.57281 0.38392 3.15200
O 	O 	0.42610 0.05010 -0.00000 -1.39700
O 	O 	0.57390 0.94990 -0.00000 -1.22500
O 	O 	0.94990 0.42610 0.50000 -1.21300
O 	O 	0.05010 0.57390 0.50000 -1.38200
O 	O 	0.57390 0.05010 -0.00000 -1.39200
O 	O 	0.42610 0.94990 -0.00000 -1.22900
O 	O 	0.05010 0.42610 0.50000 -1.38700
O 	O 	0.94990 0.57390 0.50000 -1.20800
O 	O 	0.50000 0.04850 0.11440 -1.42700
O 	O 	0.50000 0.95150 0.11440 -1.24900
O 	O 	0.95150 0.50000 0.61440 -1.24500
O 	O 	0.04850 0.50000 0.61440 -1.42600
O 	O 	0.50000 0.04850 0.88560 -1.41600
O 	O 	0.50000 0.95150 0.88560 -1.23800
O 	O 	0.04850 0.50000 0.38560 -1.42800
O 	O 	0.95150 0.50000 0.38560 -1.24700
