data_crystal

_cell_length_a 23.78510
_cell_length_b 23.78510
_cell_length_c 16.83990
_cell_angle_alpha 90.00000
_cell_angle_beta  90.00000
_cell_angle_gamma 90.00000

_symmetry_space_group_name_	'P 1'
_symmetry_space_group_name_H-M	'P 1'

loop_
_symmetry_equiv_pos_as_xyz
  x,y,z

loop_
_atom_site_label
_atom_site_type_symbol
_atom_site_fract_x
_atom_site_fract_y
_atom_site_fract_z
_atom_site_charge
O 	O 	0.44234 0.15082 0.07970 -0.67500
O 	O 	0.39822 0.08360 0.15060 -0.73700
C 	C 	0.40700 0.13420 0.12950 0.75100
C 	C 	0.37050 0.17730 0.16660 -0.68600
C 	C 	0.33630 0.16290 0.22910 0.85700
H 	H 	0.33660 0.12540 0.24880 -0.17200
C 	C 	0.30090 0.20300 0.26370 -1.04200
H 	H 	0.27920 0.19330 0.30910 1.25700
C 	C 	0.29740 0.25580 0.23310 0.65300
C 	C 	0.33240 0.26980 0.17130 -1.07300
C 	C 	0.37020 0.23150 0.13850 0.88200
H 	H 	0.39520 0.24270 0.09740 -0.14800
F 	F 	0.34120 0.37220 0.17310 -0.09000
F 	F 	0.36610 0.33450 0.06360 -0.00800
C 	C 	0.33060 0.32460 0.12600 -1.04800
F 	F 	0.28010 0.34340 0.09340 -0.03400
H 	H 	0.33090 0.30680 0.15030 1.33500
F 	F 	0.27550 0.12670 0.36100 -0.09000
F 	F 	0.20920 0.17880 0.32320 -0.11400
F 	F 	0.27040 0.20950 0.40450 -0.09500
C 	C 	0.26720 0.17960 0.33230 -0.94900
O 	O 	0.55766 0.84918 0.07970 -0.66100
O 	O 	0.60178 0.91640 0.15060 -0.61900
C 	C 	0.59300 0.86580 0.12950 0.73100
C 	C 	0.62950 0.82270 0.16660 -0.63700
C 	C 	0.66370 0.83710 0.22910 0.83800
H 	H 	0.66340 0.87460 0.24880 -0.10800
C 	C 	0.69910 0.79700 0.26370 -1.00400
H 	H 	0.72080 0.80670 0.30910 1.25500
C 	C 	0.70260 0.74420 0.23310 0.64600
C 	C 	0.66760 0.73020 0.17130 -1.06400
C 	C 	0.62980 0.76850 0.13850 0.86900
H 	H 	0.60480 0.75730 0.09740 -0.14000
F 	F 	0.65880 0.62780 0.17310 -0.08400
F 	F 	0.63390 0.66550 0.06360 -0.00200
C 	C 	0.66940 0.67540 0.12600 -1.07100
F 	F 	0.71990 0.65660 0.09340 -0.02000
H 	H 	0.66910 0.69320 0.15030 1.34800
F 	F 	0.72450 0.87330 0.36100 0.00500
F 	F 	0.79080 0.82120 0.32320 -0.03400
F 	F 	0.72960 0.79050 0.40450 -0.06400
C 	C 	0.73280 0.82040 0.33230 -0.95500
O 	O 	0.84918 0.44234 0.57970 -0.65300
O 	O 	0.91640 0.39822 0.65060 -0.62100
C 	C 	0.86580 0.40700 0.62950 0.73100
C 	C 	0.82270 0.37050 0.66660 -0.63800
C 	C 	0.83710 0.33630 0.72910 0.83900
H 	H 	0.87460 0.33660 0.74880 -0.11300
C 	C 	0.79700 0.30090 0.76370 -1.01100
H 	H 	0.80670 0.27920 0.80910 1.26100
C 	C 	0.74420 0.29740 0.73310 0.64600
C 	C 	0.73020 0.33240 0.67130 -1.06300
C 	C 	0.76850 0.37020 0.63850 0.87000
H 	H 	0.75730 0.39520 0.59740 -0.13500
F 	F 	0.62780 0.34120 0.67310 -0.08300
F 	F 	0.66550 0.36610 0.56360 0.00800
C 	C 	0.67540 0.33060 0.62600 -1.07200
F 	F 	0.65660 0.28010 0.59340 -0.02200
H 	H 	0.69320 0.33090 0.65030 1.35000
F 	F 	0.87330 0.27550 0.86100 -0.00800
F 	F 	0.82120 0.20920 0.82320 -0.06600
F 	F 	0.79050 0.27040 0.90450 -0.06700
C 	C 	0.82040 0.26720 0.83230 -0.96200
O 	O 	0.15082 0.55766 0.57970 -0.66400
O 	O 	0.08360 0.60178 0.65060 -0.72800
C 	C 	0.13420 0.59300 0.62950 0.75000
C 	C 	0.17730 0.62950 0.66660 -0.67300
C 	C 	0.16290 0.66370 0.72910 0.85300
H 	H 	0.12540 0.66340 0.74880 -0.16100
C 	C 	0.20300 0.69910 0.76370 -1.02800
H 	H 	0.19330 0.72080 0.80910 1.25000
C 	C 	0.25580 0.70260 0.73310 0.65100
C 	C 	0.26980 0.66760 0.67130 -1.06600
C 	C 	0.23150 0.62980 0.63850 0.87800
H 	H 	0.24270 0.60480 0.59740 -0.14000
F 	F 	0.37220 0.65880 0.67310 -0.08300
F 	F 	0.33450 0.63390 0.56360 0.00500
C 	C 	0.32460 0.66940 0.62600 -1.05000
F 	F 	0.34340 0.71990 0.59340 -0.01700
H 	H 	0.30680 0.66910 0.65030 1.33500
F 	F 	0.12670 0.72450 0.86100 -0.06600
F 	F 	0.17880 0.79080 0.82320 -0.07200
F 	F 	0.20950 0.72960 0.90450 -0.07600
C 	C 	0.17960 0.73280 0.83230 -0.94300
O 	O 	0.55766 0.15082 0.92030 -0.65200
O 	O 	0.60178 0.08360 0.84940 -0.72100
C 	C 	0.59300 0.13420 0.87050 0.74900
C 	C 	0.62950 0.17730 0.83340 -0.66900
C 	C 	0.66370 0.16290 0.77090 0.85300
H 	H 	0.66340 0.12540 0.75120 -0.16100
C 	C 	0.69910 0.20300 0.73630 -1.02900
H 	H 	0.72080 0.19330 0.69090 1.25400
C 	C 	0.70260 0.25580 0.76690 0.65100
C 	C 	0.66760 0.26980 0.82870 -1.06400
C 	C 	0.62980 0.23150 0.86150 0.87700
H 	H 	0.60480 0.24270 0.90260 -0.13400
F 	F 	0.65880 0.37220 0.82690 -0.08100
F 	F 	0.63390 0.33450 0.93640 0.01600
C 	C 	0.66940 0.32460 0.87400 -1.05100
F 	F 	0.71990 0.34340 0.90660 -0.01000
H 	H 	0.66910 0.30680 0.84970 1.33500
F 	F 	0.72450 0.12670 0.63900 -0.06900
F 	F 	0.79080 0.17880 0.67680 -0.07400
F 	F 	0.72960 0.20950 0.59550 -0.08300
C 	C 	0.73280 0.17960 0.66770 -0.94800
O 	O 	0.44234 0.84918 0.92030 -0.64100
O 	O 	0.39822 0.91640 0.84940 -0.61600
C 	C 	0.40700 0.86580 0.87050 0.73000
C 	C 	0.37050 0.82270 0.83340 -0.63500
C 	C 	0.33630 0.83710 0.77090 0.84000
H 	H 	0.33660 0.87460 0.75120 -0.11300
C 	C 	0.30090 0.79700 0.73630 -1.01200
H 	H 	0.27920 0.80670 0.69090 1.26500
C 	C 	0.29740 0.74420 0.76690 0.64600
C 	C 	0.33240 0.73020 0.82870 -1.06100
C 	C 	0.37020 0.76850 0.86150 0.86900
H 	H 	0.39520 0.75730 0.90260 -0.12900
F 	F 	0.34120 0.62780 0.82690 -0.08100
F 	F 	0.36610 0.66550 0.93640 0.01900
C 	C 	0.33060 0.67540 0.87400 -1.07300
F 	F 	0.28010 0.65660 0.90660 -0.01500
H 	H 	0.33090 0.69320 0.84970 1.35000
F 	F 	0.27550 0.87330 0.63900 -0.01200
F 	F 	0.20920 0.82120 0.67680 -0.06800
F 	F 	0.27040 0.79050 0.59550 -0.07400
C 	C 	0.26720 0.82040 0.66770 -0.96600
O 	O 	0.15082 0.44234 0.42030 -0.66600
O 	O 	0.08360 0.39822 0.34940 -0.73500
C 	C 	0.13420 0.40700 0.37050 0.75100
C 	C 	0.17730 0.37050 0.33340 -0.68200
C 	C 	0.16290 0.33630 0.27090 0.85800
H 	H 	0.12540 0.33660 0.25120 -0.17200
C 	C 	0.20300 0.30090 0.23630 -1.04300
H 	H 	0.19330 0.27920 0.19090 1.26000
C 	C 	0.25580 0.29740 0.26690 0.65300
C 	C 	0.26980 0.33240 0.32870 -1.07100
C 	C 	0.23150 0.37020 0.36150 0.88100
H 	H 	0.24270 0.39520 0.40260 -0.14200
F 	F 	0.37220 0.34120 0.32690 -0.08800
F 	F 	0.33450 0.36610 0.43640 0.00300
C 	C 	0.32460 0.33060 0.37400 -1.04900
F 	F 	0.34340 0.28010 0.40660 -0.02700
H 	H 	0.30680 0.33090 0.34970 1.33500
F 	F 	0.12670 0.27550 0.13900 -0.09400
F 	F 	0.17880 0.20920 0.17680 -0.11600
F 	F 	0.20950 0.27040 0.09550 -0.10100
C 	C 	0.17960 0.26720 0.16770 -0.95300
O 	O 	0.84918 0.55766 0.42030 -0.65300
O 	O 	0.91640 0.60178 0.34940 -0.61600
C 	C 	0.86580 0.59300 0.37050 0.73000
C 	C 	0.82270 0.62950 0.33340 -0.63400
C 	C 	0.83710 0.66370 0.27090 0.83800
H 	H 	0.87460 0.66340 0.25120 -0.10800
C 	C 	0.79700 0.69910 0.23630 -1.00600
H 	H 	0.80670 0.72080 0.19090 1.25900
C 	C 	0.74420 0.70260 0.26690 0.64600
C 	C 	0.73020 0.66760 0.32870 -1.06100
C 	C 	0.76850 0.62980 0.36150 0.86800
H 	H 	0.75730 0.60480 0.40260 -0.13400
F 	F 	0.62780 0.65880 0.32690 -0.08200
F 	F 	0.66550 0.63390 0.43640 0.01000
C 	C 	0.67540 0.66940 0.37400 -1.07100
F 	F 	0.65660 0.71990 0.40660 -0.01300
H 	H 	0.69320 0.66910 0.34970 1.34800
F 	F 	0.87330 0.72450 0.13900 -0.00000
F 	F 	0.82120 0.79080 0.17680 -0.03600
F 	F 	0.79050 0.72960 0.09550 -0.07100
C 	C 	0.82040 0.73280 0.16770 -0.96000
O 	O 	0.55766 0.84918 0.92030 -0.64000
O 	O 	0.60178 0.91640 0.84940 -0.61000
C 	C 	0.59300 0.86580 0.87050 0.72900
C 	C 	0.62950 0.82270 0.83340 -0.62800
C 	C 	0.66370 0.83710 0.77090 0.83600
H 	H 	0.66340 0.87460 0.75120 -0.10600
C 	C 	0.69910 0.79700 0.73630 -1.00200
H 	H 	0.72080 0.80670 0.69090 1.25800
C 	C 	0.70260 0.74420 0.76690 0.64500
C 	C 	0.66760 0.73020 0.82870 -1.05800
C 	C 	0.62980 0.76850 0.86150 0.86700
H 	H 	0.60480 0.75730 0.90260 -0.12800
F 	F 	0.65880 0.62780 0.82690 -0.07800
F 	F 	0.63390 0.66550 0.93640 0.02100
C 	C 	0.66940 0.67540 0.87400 -1.07300
F 	F 	0.71990 0.65660 0.90660 -0.00500
H 	H 	0.66910 0.69320 0.84970 1.34900
F 	F 	0.72450 0.87330 0.63900 0.00700
F 	F 	0.79080 0.82120 0.67680 -0.03100
F 	F 	0.72960 0.79050 0.59550 -0.06300
C 	C 	0.73280 0.82040 0.66770 -0.96000
O 	O 	0.44234 0.15082 0.92030 -0.65300
O 	O 	0.39822 0.08360 0.84940 -0.72800
C 	C 	0.40700 0.13420 0.87050 0.75000
C 	C 	0.37050 0.17730 0.83340 -0.67600
C 	C 	0.33630 0.16290 0.77090 0.85600
H 	H 	0.33660 0.12540 0.75120 -0.16900
C 	C 	0.30090 0.20300 0.73630 -1.04000
H 	H 	0.27920 0.19330 0.69090 1.26000
C 	C 	0.29740 0.25580 0.76690 0.65200
C 	C 	0.33240 0.26980 0.82870 -1.06700
C 	C 	0.37020 0.23150 0.86150 0.87900
H 	H 	0.39520 0.24270 0.90260 -0.13600
F 	F 	0.34120 0.37220 0.82690 -0.08400
F 	F 	0.36610 0.33450 0.93640 0.01500
C 	C 	0.33060 0.32460 0.87400 -1.05100
F 	F 	0.28010 0.34340 0.90660 -0.01900
H 	H 	0.33090 0.30680 0.84970 1.33600
F 	F 	0.27550 0.12670 0.63900 -0.08800
F 	F 	0.20920 0.17880 0.67680 -0.11100
F 	F 	0.27040 0.20950 0.59550 -0.09400
C 	C 	0.26720 0.17960 0.66770 -0.95400
O 	O 	0.15082 0.55766 0.42030 -0.66500
O 	O 	0.08360 0.60178 0.34940 -0.72900
C 	C 	0.13420 0.59300 0.37050 0.75000
C 	C 	0.17730 0.62950 0.33340 -0.67500
C 	C 	0.16290 0.66370 0.27090 0.85400
H 	H 	0.12540 0.66340 0.25120 -0.16400
C 	C 	0.20300 0.69910 0.23630 -1.03300
H 	H 	0.19330 0.72080 0.19090 1.25400
C 	C 	0.25580 0.70260 0.26690 0.65200
C 	C 	0.26980 0.66760 0.32870 -1.06700
C 	C 	0.23150 0.62980 0.36150 0.87900
H 	H 	0.24270 0.60480 0.40260 -0.14100
F 	F 	0.37220 0.65880 0.32690 -0.08500
F 	F 	0.33450 0.63390 0.43640 0.00500
C 	C 	0.32460 0.66940 0.37400 -1.04900
F 	F 	0.34340 0.71990 0.40660 -0.01700
H 	H 	0.30680 0.66910 0.34970 1.33400
F 	F 	0.12670 0.72450 0.13900 -0.07600
F 	F 	0.17880 0.79080 0.17680 -0.07900
F 	F 	0.20950 0.72960 0.09550 -0.09100
C 	C 	0.17960 0.73280 0.16770 -0.94700
O 	O 	0.84918 0.44234 0.42030 -0.65400
O 	O 	0.91640 0.39822 0.34940 -0.62200
C 	C 	0.86580 0.40700 0.37050 0.73000
C 	C 	0.82270 0.37050 0.33340 -0.64000
C 	C 	0.83710 0.33630 0.27090 0.84100
H 	H 	0.87460 0.33660 0.25120 -0.11600
C 	C 	0.79700 0.30090 0.23630 -1.01600
H 	H 	0.80670 0.27920 0.19090 1.26500
C 	C 	0.74420 0.29740 0.26690 0.64700
C 	C 	0.73020 0.33240 0.32870 -1.06400
C 	C 	0.76850 0.37020 0.36150 0.87000
H 	H 	0.75730 0.39520 0.40260 -0.13500
F 	F 	0.62780 0.34120 0.32690 -0.08500
F 	F 	0.66550 0.36610 0.43640 0.00800
C 	C 	0.67540 0.33060 0.37400 -1.07100
F 	F 	0.65660 0.28010 0.40660 -0.02300
H 	H 	0.69320 0.33090 0.34970 1.34900
F 	F 	0.87330 0.27550 0.13900 -0.01800
F 	F 	0.82120 0.20920 0.17680 -0.07300
F 	F 	0.79050 0.27040 0.09550 -0.08200
C 	C 	0.82040 0.26720 0.16770 -0.96600
O 	O 	0.44234 0.84918 0.07970 -0.66200
O 	O 	0.39822 0.91640 0.15060 -0.62500
C 	C 	0.40700 0.86580 0.12950 0.73200
C 	C 	0.37050 0.82270 0.16660 -0.64400
C 	C 	0.33630 0.83710 0.22910 0.84100
H 	H 	0.33660 0.87460 0.24880 -0.11600
C 	C 	0.30090 0.79700 0.26370 -1.01400
H 	H 	0.27920 0.80670 0.30910 1.26200
C 	C 	0.29740 0.74420 0.23310 0.64700
C 	C 	0.33240 0.73020 0.17130 -1.06700
C 	C 	0.37020 0.76850 0.13850 0.87100
H 	H 	0.39520 0.75730 0.09740 -0.14100
F 	F 	0.34120 0.62780 0.17310 -0.08700
F 	F 	0.36610 0.66550 0.06360 -0.00300
C 	C 	0.33060 0.67540 0.12600 -1.07000
F 	F 	0.28010 0.65660 0.09340 -0.03000
H 	H 	0.33090 0.69320 0.15030 1.34900
F 	F 	0.27550 0.87330 0.36100 -0.01400
F 	F 	0.20920 0.82120 0.32320 -0.07100
F 	F 	0.27040 0.79050 0.40450 -0.07500
C 	C 	0.26720 0.82040 0.33230 -0.96100
O 	O 	0.55766 0.15082 0.07970 -0.67300
O 	O 	0.60178 0.08360 0.15060 -0.73000
C 	C 	0.59300 0.13420 0.12950 0.75100
C 	C 	0.62950 0.17730 0.16660 -0.67800
C 	C 	0.66370 0.16290 0.22910 0.85400
H 	H 	0.66340 0.12540 0.24880 -0.16400
C 	C 	0.69910 0.20300 0.26370 -1.03100
H 	H 	0.72080 0.19330 0.30910 1.25100
C 	C 	0.70260 0.25580 0.23310 0.65200
C 	C 	0.66760 0.26980 0.17130 -1.07000
C 	C 	0.62980 0.23150 0.13850 0.88000
H 	H 	0.60480 0.24270 0.09740 -0.14600
F 	F 	0.65880 0.37220 0.17310 -0.08700
F 	F 	0.63390 0.33450 0.06360 -0.00600
C 	C 	0.66940 0.32460 0.12600 -1.04900
F 	F 	0.71990 0.34340 0.09340 -0.02500
H 	H 	0.66910 0.30680 0.15030 1.33400
F 	F 	0.72450 0.12670 0.36100 -0.07200
F 	F 	0.79080 0.17880 0.32320 -0.07700
F 	F 	0.72960 0.20950 0.40450 -0.08400
C 	C 	0.73280 0.17960 0.33230 -0.94300
O 	O 	0.84918 0.55766 0.57970 -0.65200
O 	O 	0.91640 0.60178 0.65060 -0.61500
C 	C 	0.86580 0.59300 0.62950 0.73000
C 	C 	0.82270 0.62950 0.66660 -0.63200
C 	C 	0.83710 0.66370 0.72910 0.83600
H 	H 	0.87460 0.66340 0.74880 -0.10500
C 	C 	0.79700 0.69910 0.76370 -1.00000
H 	H 	0.80670 0.72080 0.80910 1.25500
C 	C 	0.74420 0.70260 0.73310 0.64500
C 	C 	0.73020 0.66760 0.67130 -1.06000
C 	C 	0.76850 0.62980 0.63850 0.86800
H 	H 	0.75730 0.60480 0.59740 -0.13300
F 	F 	0.62780 0.65880 0.67310 -0.08000
F 	F 	0.66550 0.63390 0.56360 0.01000
C 	C 	0.67540 0.66940 0.62600 -1.07300
F 	F 	0.65660 0.71990 0.59340 -0.01200
H 	H 	0.69320 0.66910 0.65030 1.34900
F 	F 	0.87330 0.72450 0.86100 0.01000
F 	F 	0.82120 0.79080 0.82320 -0.02900
F 	F 	0.79050 0.72960 0.90450 -0.05700
C 	C 	0.82040 0.73280 0.83230 -0.95600
O 	O 	0.15082 0.44234 0.57970 -0.66600
O 	O 	0.08360 0.39822 0.65060 -0.73400
C 	C 	0.13420 0.40700 0.62950 0.75100
C 	C 	0.17730 0.37050 0.66660 -0.67900
C 	C 	0.16290 0.33630 0.72910 0.85600
H 	H 	0.12540 0.33660 0.74880 -0.16900
C 	C 	0.20300 0.30090 0.76370 -1.03800
H 	H 	0.19330 0.27920 0.80910 1.25700
C 	C 	0.25580 0.29740 0.73310 0.65200
C 	C 	0.26980 0.33240 0.67130 -1.06900
C 	C 	0.23150 0.37020 0.63850 0.88000
H 	H 	0.24270 0.39520 0.59740 -0.14200
F 	F 	0.37220 0.34120 0.67310 -0.08600
F 	F 	0.33450 0.36610 0.56360 0.00300
C 	C 	0.32460 0.33060 0.62600 -1.05000
F 	F 	0.34340 0.28010 0.59340 -0.02700
H 	H 	0.30680 0.33090 0.65030 1.33600
F 	F 	0.12670 0.27550 0.86100 -0.08400
F 	F 	0.17880 0.20920 0.82320 -0.10900
F 	F 	0.20950 0.27040 0.90450 -0.08700
C 	C 	0.17960 0.26720 0.83230 -0.94900
Zr	Zr	0.50000 0.10411 -0.00000 3.21400
Zr	Zr	0.50000 0.89589 -0.00000 3.21200
Zr	Zr	0.89589 0.50000 0.50000 3.21600
Zr	Zr	0.10411 0.50000 0.50000 3.21700
Zr	Zr	0.42687 0.00000 0.10496 3.17900
O 	O 	0.45300 -0.00000 0.23090 -0.72700
C 	C 	0.44300 -0.00000 0.37540 0.19200
H 	H 	0.41350 -0.00000 0.33740 0.00900
C 	C 	0.42930 -0.00000 0.45670 -0.07900
H 	H 	0.39060 -0.00000 0.47070 0.07800
C 	C 	0.47212 -0.00000 0.51190 0.03700
C 	C 	0.54160 0.00000 0.40720 -0.04300
H 	H 	0.58070 -0.00000 0.39370 -0.02700
Zr	Zr	0.57313 0.00000 0.10496 3.18000
O 	O 	0.54700 -0.00000 0.23090 -0.72500
C 	C 	0.55700 -0.00000 0.37540 0.19500
H 	H 	0.58650 -0.00000 0.33740 0.01200
C 	C 	0.57070 -0.00000 0.45670 -0.08000
H 	H 	0.60940 -0.00000 0.47070 0.08200
C 	C 	0.52788 -0.00000 0.51190 0.03900
C 	C 	0.45840 0.00000 0.40720 -0.04100
H 	H 	0.41930 -0.00000 0.39370 -0.02800
Zr	Zr	0.00000 0.42687 0.60496 3.17900
O 	O 	-0.00000 0.45300 0.73090 -0.72500
C 	C 	0.00000 0.44300 0.87540 0.16400
H 	H 	-0.00000 0.41350 0.83740 0.02300
C 	C 	-0.00000 0.42930 0.95670 0.01800
H 	H 	-0.00000 0.39060 0.97070 0.05900
C 	C 	0.00000 0.47212 0.01190 0.11500
C 	C 	-0.00000 0.54160 0.90720 -0.04600
H 	H 	-0.00000 0.58070 0.89370 -0.03500
Zr	Zr	0.00000 0.57313 0.60496 3.17900
O 	O 	-0.00000 0.54700 0.73090 -0.72300
C 	C 	-0.00000 0.55700 0.87540 0.16600
H 	H 	0.00000 0.58650 0.83740 0.02500
C 	C 	-0.00000 0.57070 0.95670 0.01700
H 	H 	-0.00000 0.60940 0.97070 0.06300
C 	C 	-0.00000 0.52788 0.01190 0.11600
C 	C 	0.00000 0.45840 0.90720 -0.04400
H 	H 	-0.00000 0.41930 0.89370 -0.03700
Zr	Zr	0.57313 -0.00000 0.89504 3.18200
O 	O 	0.54700 -0.00000 0.76910 -0.72400
C 	C 	0.55700 -0.00000 0.62460 0.19500
H 	H 	0.58650 -0.00000 0.66260 0.01200
C 	C 	0.57070 -0.00000 0.54330 -0.07900
H 	H 	0.60940 -0.00000 0.52930 0.08200
C 	C 	0.52788 -0.00000 0.48810 0.03900
C 	C 	0.45840 0.00000 0.59280 -0.04100
H 	H 	0.41930 0.00000 0.60630 -0.02800
Zr	Zr	0.42687 -0.00000 0.89504 3.18100
O 	O 	0.45300 -0.00000 0.76910 -0.72600
C 	C 	0.44300 -0.00000 0.62460 0.19200
H 	H 	0.41350 -0.00000 0.66260 0.01000
C 	C 	0.42930 -0.00000 0.54330 -0.07800
H 	H 	0.39060 -0.00000 0.52930 0.07700
C 	C 	0.47212 -0.00000 0.48810 0.03700
C 	C 	0.54160 0.00000 0.59280 -0.04400
H 	H 	0.58070 0.00000 0.60630 -0.02700
Zr	Zr	0.00000 0.42687 0.39504 3.17900
O 	O 	-0.00000 0.45300 0.26910 -0.73100
C 	C 	0.00000 0.44300 0.12460 0.22000
H 	H 	-0.00000 0.41350 0.16260 -0.00400
C 	C 	0.00000 0.42930 0.04330 -0.17600
H 	H 	-0.00000 0.39060 0.02930 0.09700
C 	C 	-0.00000 0.47212 0.98810 -0.03900
C 	C 	-0.00000 0.54160 0.09280 -0.04100
H 	H 	-0.00000 0.58070 0.10630 -0.01900
Zr	Zr	0.00000 0.57313 0.39504 3.17900
O 	O 	-0.00000 0.54700 0.26910 -0.72900
C 	C 	0.00000 0.55700 0.12460 0.22300
H 	H 	0.00000 0.58650 0.16260 -0.00200
C 	C 	0.00000 0.57070 0.04330 -0.17700
H 	H 	0.00000 0.60940 0.02930 0.10100
C 	C 	-0.00000 0.52788 0.98810 -0.03800
C 	C 	-0.00000 0.45840 0.09280 -0.03800
H 	H 	0.00000 0.41930 0.10630 -0.02000
O 	O 	0.42410 0.05070 -0.00000 -1.34500
O 	O 	0.57590 0.94930 -0.00000 -1.18900
O 	O 	0.94930 0.42410 0.50000 -1.17500
O 	O 	0.05070 0.57590 0.50000 -1.32700
O 	O 	0.57590 0.05070 -0.00000 -1.34100
O 	O 	0.42410 0.94930 -0.00000 -1.19400
O 	O 	0.05070 0.42410 0.50000 -1.33200
O 	O 	0.94930 0.57590 0.50000 -1.17000
O 	O 	0.50000 0.05080 0.09980 -1.33200
O 	O 	0.50000 0.94920 0.09980 -1.18200
O 	O 	0.94920 0.50000 0.59980 -1.17800
O 	O 	0.05080 0.50000 0.59980 -1.33200
O 	O 	0.50000 0.05080 0.90020 -1.31800
O 	O 	0.50000 0.94920 0.90020 -1.16700
O 	O 	0.05080 0.50000 0.40020 -1.33200
O 	O 	0.94920 0.50000 0.40020 -1.17800
C 	C 	0.50000 0.00000 0.26560 0.58400
C 	C 	0.50000 -0.00000 0.35150 -0.23700
C 	C 	-0.00000 0.50000 0.76560 0.57400
C 	C 	0.00000 0.50000 0.85150 -0.20700
C 	C 	0.50000 0.00000 0.73440 0.58200
C 	C 	0.50000 -0.00000 0.64850 -0.23600
C 	C 	0.00000 0.50000 0.23440 0.59300
C 	C 	-0.00000 0.50000 0.14850 -0.26600
