data_crystal

_cell_length_a 22.89950
_cell_length_b 22.89950
_cell_length_c 19.02010
_cell_angle_alpha 90.00000
_cell_angle_beta  90.00000
_cell_angle_gamma 90.00000

_symmetry_space_group_name_	'P 1'
_symmetry_space_group_name_H-M	'P 1'

loop_
_symmetry_equiv_pos_as_xyz
  x,y,z

loop_
_atom_site_label
_atom_site_type_symbol
_atom_site_fract_x
_atom_site_fract_y
_atom_site_fract_z
_atom_site_charge
F 	F 	0.35770 0.37300 0.08970 -0.04800
F 	F 	0.39090 0.36320 0.19960 -0.08200
F 	F 	0.36870 0.28370 0.13550 -0.06100
O 	O 	0.15810 0.44160 0.07000 -0.65300
O 	O 	0.08690 0.39440 0.13040 -0.74200
C 	C 	0.14000 0.40480 0.11520 0.71500
C 	C 	0.18490 0.37190 0.15650 -0.64300
C 	C 	0.24190 0.37660 0.14240 0.81500
H 	H 	0.25540 0.40230 0.10670 -0.12200
C 	C 	0.28160 0.34250 0.18170 -0.95400
C 	C 	0.26300 0.30350 0.23210 0.58100
C 	C 	0.20460 0.30740 0.25030 -0.84100
H 	H 	0.19130 0.28780 0.29130 1.03000
C 	C 	0.16500 0.33900 0.21040 0.76700
H 	H 	0.12450 0.33760 0.22080 -0.14800
C 	C 	0.34220 0.34100 0.15620 -1.03700
F 	F 	0.17320 0.20640 0.29710 -0.12800
F 	F 	0.11610 0.28140 0.32660 -0.18900
F 	F 	0.20390 0.27130 0.37830 -0.15200
H 	H 	0.32220 0.34650 0.17310 1.30400
C 	C 	0.17940 0.27070 0.30640 -0.69700
F 	F 	0.64230 0.62700 0.08970 -0.03800
F 	F 	0.60910 0.63680 0.19960 -0.07500
F 	F 	0.63130 0.71630 0.13550 -0.03900
O 	O 	0.84190 0.55840 0.07000 -0.63900
O 	O 	0.91310 0.60560 0.13040 -0.61900
C 	C 	0.86000 0.59520 0.11520 0.69600
C 	C 	0.81510 0.62810 0.15650 -0.59800
C 	C 	0.75810 0.62340 0.14240 0.80600
H 	H 	0.74460 0.59770 0.10670 -0.11400
C 	C 	0.71840 0.65750 0.18170 -0.94800
C 	C 	0.73700 0.69650 0.23210 0.58000
C 	C 	0.79540 0.69260 0.25030 -0.82100
H 	H 	0.80870 0.71220 0.29130 1.05700
C 	C 	0.83500 0.66100 0.21040 0.75700
H 	H 	0.87550 0.66240 0.22080 -0.08300
C 	C 	0.65780 0.65900 0.15620 -1.06100
F 	F 	0.82680 0.79360 0.29710 -0.03600
F 	F 	0.88390 0.71860 0.32660 -0.07100
F 	F 	0.79610 0.72870 0.37830 -0.10000
H 	H 	0.67780 0.65350 0.17310 1.32100
C 	C 	0.82060 0.72930 0.30640 -0.73200
F 	F 	0.62700 0.35770 0.58970 -0.03500
F 	F 	0.63680 0.39090 0.69960 -0.07500
F 	F 	0.71630 0.36870 0.63550 -0.03900
O 	O 	0.55840 0.15810 0.57000 -0.64300
O 	O 	0.60560 0.08690 0.63040 -0.73100
C 	C 	0.59520 0.14000 0.61520 0.71500
C 	C 	0.62810 0.18490 0.65650 -0.63600
C 	C 	0.62340 0.24190 0.64240 0.81700
H 	H 	0.59770 0.25540 0.60670 -0.11700
C 	C 	0.65750 0.28160 0.68170 -0.95300
C 	C 	0.69650 0.26300 0.73210 0.58300
C 	C 	0.69260 0.20460 0.75030 -0.83700
H 	H 	0.71220 0.19130 0.79130 1.03400
C 	C 	0.66100 0.16500 0.71040 0.76900
H 	H 	0.66240 0.12450 0.72080 -0.14000
C 	C 	0.65900 0.34220 0.65620 -1.04300
F 	F 	0.79360 0.17320 0.79710 -0.08400
F 	F 	0.71860 0.11610 0.82660 -0.16200
F 	F 	0.72870 0.20390 0.87830 -0.12900
H 	H 	0.65350 0.32220 0.67310 1.30800
C 	C 	0.72930 0.17940 0.80640 -0.70300
F 	F 	0.37300 0.64230 0.58970 -0.03500
F 	F 	0.36320 0.60910 0.69960 -0.07500
F 	F 	0.28370 0.63130 0.63550 -0.05000
O 	O 	0.44160 0.84190 0.57000 -0.63200
O 	O 	0.39440 0.91310 0.63040 -0.62300
C 	C 	0.40480 0.86000 0.61520 0.69400
C 	C 	0.37190 0.81510 0.65650 -0.59900
C 	C 	0.37660 0.75810 0.64240 0.80500
H 	H 	0.40230 0.74460 0.60670 -0.11100
C 	C 	0.34250 0.71840 0.68170 -0.94800
C 	C 	0.30350 0.73700 0.73210 0.57800
C 	C 	0.30740 0.79540 0.75030 -0.82200
H 	H 	0.28780 0.80870 0.79130 1.05400
C 	C 	0.33900 0.83500 0.71040 0.75400
H 	H 	0.33760 0.87550 0.72080 -0.08800
C 	C 	0.34100 0.65780 0.65620 -1.06300
F 	F 	0.20640 0.82680 0.79710 -0.07300
F 	F 	0.28140 0.88390 0.82660 -0.08900
F 	F 	0.27130 0.79610 0.87830 -0.11100
H 	H 	0.34650 0.67780 0.67310 1.32200
C 	C 	0.27070 0.82060 0.80640 -0.72900
F 	F 	0.64230 0.37300 0.91030 -0.02800
F 	F 	0.60910 0.36320 0.80040 -0.07300
F 	F 	0.63130 0.28370 0.86450 -0.04600
O 	O 	0.84190 0.44160 0.93000 -0.62200
O 	O 	0.91310 0.39440 0.86960 -0.61800
C 	C 	0.86000 0.40480 0.88480 0.69400
C 	C 	0.81510 0.37190 0.84350 -0.59600
C 	C 	0.75810 0.37660 0.85760 0.80500
H 	H 	0.74460 0.40230 0.89330 -0.10700
C 	C 	0.71840 0.34250 0.81830 -0.94800
C 	C 	0.73700 0.30350 0.76790 0.57900
C 	C 	0.79540 0.30740 0.74970 -0.82200
H 	H 	0.80870 0.28780 0.70870 1.05500
C 	C 	0.83500 0.33900 0.78960 0.75400
H 	H 	0.87550 0.33760 0.77920 -0.08800
C 	C 	0.65780 0.34100 0.84380 -1.06700
F 	F 	0.82680 0.20640 0.70290 -0.07500
F 	F 	0.88390 0.28140 0.67340 -0.09200
F 	F 	0.79610 0.27130 0.62170 -0.11700
H 	H 	0.67780 0.34650 0.82690 1.32500
C 	C 	0.82060 0.27070 0.69360 -0.73000
F 	F 	0.35770 0.62700 0.91030 -0.02700
F 	F 	0.39090 0.63680 0.80040 -0.07300
F 	F 	0.36870 0.71630 0.86450 -0.03400
O 	O 	0.15810 0.55840 0.93000 -0.63200
O 	O 	0.08690 0.60560 0.86960 -0.72500
C 	C 	0.14000 0.59520 0.88480 0.71500
C 	C 	0.18490 0.62810 0.84350 -0.63300
C 	C 	0.24190 0.62340 0.85760 0.81600
H 	H 	0.25540 0.59770 0.89330 -0.11300
C 	C 	0.28160 0.65750 0.81830 -0.95200
C 	C 	0.26300 0.69650 0.76790 0.58400
C 	C 	0.20460 0.69260 0.74970 -0.83800
H 	H 	0.19130 0.71220 0.70870 1.03600
C 	C 	0.16500 0.66100 0.78960 0.76900
H 	H 	0.12450 0.66240 0.77920 -0.13900
C 	C 	0.34220 0.65900 0.84380 -1.04600
F 	F 	0.17320 0.79360 0.70290 -0.08500
F 	F 	0.11610 0.71860 0.67340 -0.16500
F 	F 	0.20390 0.72870 0.62170 -0.13400
H 	H 	0.32220 0.65350 0.82690 1.31100
C 	C 	0.17940 0.72930 0.69360 -0.70400
F 	F 	0.37300 0.35770 0.41030 -0.04000
F 	F 	0.36320 0.39090 0.30040 -0.07900
F 	F 	0.28370 0.36870 0.36450 -0.05500
O 	O 	0.44160 0.15810 0.43000 -0.64500
O 	O 	0.39440 0.08690 0.36960 -0.74000
C 	C 	0.40480 0.14000 0.38480 0.71400
C 	C 	0.37190 0.18490 0.34350 -0.64100
C 	C 	0.37660 0.24190 0.35760 0.81500
H 	H 	0.40230 0.25540 0.39330 -0.11900
C 	C 	0.34250 0.28160 0.31830 -0.95400
C 	C 	0.30350 0.26300 0.26790 0.58100
C 	C 	0.30740 0.20460 0.24970 -0.84100
H 	H 	0.28780 0.19130 0.20870 1.03000
C 	C 	0.33900 0.16500 0.28960 0.76700
H 	H 	0.33760 0.12450 0.27920 -0.14800
C 	C 	0.34100 0.34220 0.34380 -1.04000
F 	F 	0.20640 0.17320 0.20290 -0.12900
F 	F 	0.28140 0.11610 0.17340 -0.19100
F 	F 	0.27130 0.20390 0.12170 -0.15600
H 	H 	0.34650 0.32220 0.32690 1.30600
C 	C 	0.27070 0.17940 0.19360 -0.69800
F 	F 	0.62700 0.64230 0.41030 -0.03000
F 	F 	0.63680 0.60910 0.30040 -0.07300
F 	F 	0.71630 0.63130 0.36450 -0.03400
O 	O 	0.55840 0.84190 0.43000 -0.63100
O 	O 	0.60560 0.91310 0.36960 -0.61600
C 	C 	0.59520 0.86000 0.38480 0.69600
C 	C 	0.62810 0.81510 0.34350 -0.59500
C 	C 	0.62340 0.75810 0.35760 0.80600
H 	H 	0.59770 0.74460 0.39330 -0.11000
C 	C 	0.65750 0.71840 0.31830 -0.94800
C 	C 	0.69650 0.73700 0.26790 0.58100
C 	C 	0.69260 0.79540 0.24970 -0.82100
H 	H 	0.71220 0.80870 0.20870 1.05800
C 	C 	0.66100 0.83500 0.28960 0.75600
H 	H 	0.66240 0.87550 0.27920 -0.08200
C 	C 	0.65900 0.65780 0.34380 -1.06500
F 	F 	0.79360 0.82680 0.20290 -0.03700
F 	F 	0.71860 0.88390 0.17340 -0.07400
F 	F 	0.72870 0.79610 0.12170 -0.10500
H 	H 	0.65350 0.67780 0.32690 1.32400
C 	C 	0.72930 0.82060 0.19360 -0.73300
F 	F 	0.64230 0.62700 0.91030 -0.02300
F 	F 	0.60910 0.63680 0.80040 -0.07000
F 	F 	0.63130 0.71630 0.86450 -0.03000
O 	O 	0.84190 0.55840 0.93000 -0.62000
O 	O 	0.91310 0.60560 0.86960 -0.61100
C 	C 	0.86000 0.59520 0.88480 0.69500
C 	C 	0.81510 0.62810 0.84350 -0.59200
C 	C 	0.75810 0.62340 0.85760 0.80600
H 	H 	0.74460 0.59770 0.89330 -0.10600
C 	C 	0.71840 0.65750 0.81830 -0.94800
C 	C 	0.73700 0.69650 0.76790 0.58100
C 	C 	0.79540 0.69260 0.74970 -0.82000
H 	H 	0.80870 0.71220 0.70870 1.05900
C 	C 	0.83500 0.66100 0.78960 0.75600
H 	H 	0.87550 0.66240 0.77920 -0.08100
C 	C 	0.65780 0.65900 0.84380 -1.06900
F 	F 	0.82680 0.79360 0.70290 -0.03400
F 	F 	0.88390 0.71860 0.67340 -0.07000
F 	F 	0.79610 0.72870 0.62170 -0.09900
H 	H 	0.67780 0.65350 0.82690 1.32700
C 	C 	0.82060 0.72930 0.69360 -0.73500
F 	F 	0.35770 0.37300 0.91030 -0.03200
F 	F 	0.39090 0.36320 0.80040 -0.07600
F 	F 	0.36870 0.28370 0.86450 -0.05000
O 	O 	0.15810 0.44160 0.93000 -0.63300
O 	O 	0.08690 0.39440 0.86960 -0.73300
C 	C 	0.14000 0.40480 0.88480 0.71400
C 	C 	0.18490 0.37190 0.84350 -0.63700
C 	C 	0.24190 0.37660 0.85760 0.81500
H 	H 	0.25540 0.40230 0.89330 -0.11400
C 	C 	0.28160 0.34250 0.81830 -0.95300
C 	C 	0.26300 0.30350 0.76790 0.58200
C 	C 	0.20460 0.30740 0.74970 -0.84000
H 	H 	0.19130 0.28780 0.70870 1.03200
C 	C 	0.16500 0.33900 0.78960 0.76700
H 	H 	0.12450 0.33760 0.77920 -0.14600
C 	C 	0.34220 0.34100 0.84380 -1.04400
F 	F 	0.17320 0.20640 0.70290 -0.12600
F 	F 	0.11610 0.28140 0.67340 -0.18700
F 	F 	0.20390 0.27130 0.62170 -0.15100
H 	H 	0.32220 0.34650 0.82690 1.31000
C 	C 	0.17940 0.27070 0.69360 -0.70000
F 	F 	0.37300 0.64230 0.41030 -0.03500
F 	F 	0.36320 0.60910 0.30040 -0.07600
F 	F 	0.28370 0.63130 0.36450 -0.05000
O 	O 	0.44160 0.84190 0.43000 -0.63300
O 	O 	0.39440 0.91310 0.36960 -0.62400
C 	C 	0.40480 0.86000 0.38480 0.69400
C 	C 	0.37190 0.81510 0.34350 -0.60000
C 	C 	0.37660 0.75810 0.35760 0.80500
H 	H 	0.40230 0.74460 0.39330 -0.11100
C 	C 	0.34250 0.71840 0.31830 -0.94900
C 	C 	0.30350 0.73700 0.26790 0.57900
C 	C 	0.30740 0.79540 0.24970 -0.82300
H 	H 	0.28780 0.80870 0.20870 1.05400
C 	C 	0.33900 0.83500 0.28960 0.75400
H 	H 	0.33760 0.87550 0.27920 -0.08900
C 	C 	0.34100 0.65780 0.34380 -1.06300
F 	F 	0.20640 0.82680 0.20290 -0.07800
F 	F 	0.28140 0.88390 0.17340 -0.09600
F 	F 	0.27130 0.79610 0.12170 -0.12200
H 	H 	0.34650 0.67780 0.32690 1.32200
C 	C 	0.27070 0.82060 0.19360 -0.72900
F 	F 	0.62700 0.35770 0.41030 -0.03500
F 	F 	0.63680 0.39090 0.30040 -0.07600
F 	F 	0.71630 0.36870 0.36450 -0.03900
O 	O 	0.55840 0.15810 0.43000 -0.64300
O 	O 	0.60560 0.08690 0.36960 -0.73200
C 	C 	0.59520 0.14000 0.38480 0.71500
C 	C 	0.62810 0.18490 0.34350 -0.63700
C 	C 	0.62340 0.24190 0.35760 0.81700
H 	H 	0.59770 0.25540 0.39330 -0.11700
C 	C 	0.65750 0.28160 0.31830 -0.95300
C 	C 	0.69650 0.26300 0.26790 0.58300
C 	C 	0.69260 0.20460 0.24970 -0.83900
H 	H 	0.71220 0.19130 0.20870 1.03400
C 	C 	0.66100 0.16500 0.28960 0.76900
H 	H 	0.66240 0.12450 0.27920 -0.14100
C 	C 	0.65900 0.34220 0.34380 -1.04200
F 	F 	0.79360 0.17320 0.20290 -0.08900
F 	F 	0.71860 0.11610 0.17340 -0.16900
F 	F 	0.72870 0.20390 0.12170 -0.13900
H 	H 	0.65350 0.32220 0.32690 1.30800
C 	C 	0.72930 0.17940 0.19360 -0.70300
F 	F 	0.35770 0.62700 0.08970 -0.04300
F 	F 	0.39090 0.63680 0.19960 -0.07800
F 	F 	0.36870 0.71630 0.13550 -0.04400
O 	O 	0.15810 0.55840 0.07000 -0.65000
O 	O 	0.08690 0.60560 0.13040 -0.73300
C 	C 	0.14000 0.59520 0.11520 0.71600
C 	C 	0.18490 0.62810 0.15650 -0.63900
C 	C 	0.24190 0.62340 0.14240 0.81700
H 	H 	0.25540 0.59770 0.10670 -0.12100
C 	C 	0.28160 0.65750 0.18170 -0.95300
C 	C 	0.26300 0.69650 0.23210 0.58300
C 	C 	0.20460 0.69260 0.25030 -0.83800
H 	H 	0.19130 0.71220 0.29130 1.03300
C 	C 	0.16500 0.66100 0.21040 0.76900
H 	H 	0.12450 0.66240 0.22080 -0.14100
C 	C 	0.34220 0.65900 0.15620 -1.03900
F 	F 	0.17320 0.79360 0.29710 -0.08700
F 	F 	0.11610 0.71860 0.32660 -0.16600
F 	F 	0.20390 0.72870 0.37830 -0.13400
H 	H 	0.32220 0.65350 0.17310 1.30500
C 	C 	0.17940 0.72930 0.30640 -0.70100
F 	F 	0.64230 0.37300 0.08970 -0.04300
F 	F 	0.60910 0.36320 0.19960 -0.07800
F 	F 	0.63130 0.28370 0.13550 -0.05500
O 	O 	0.84190 0.44160 0.07000 -0.64000
O 	O 	0.91310 0.39440 0.13040 -0.62700
C 	C 	0.86000 0.40480 0.11520 0.69500
C 	C 	0.81510 0.37190 0.15650 -0.60300
C 	C 	0.75810 0.37660 0.14240 0.80500
H 	H 	0.74460 0.40230 0.10670 -0.11500
C 	C 	0.71840 0.34250 0.18170 -0.94900
C 	C 	0.73700 0.30350 0.23210 0.57800
C 	C 	0.79540 0.30740 0.25030 -0.82300
H 	H 	0.80870 0.28780 0.29130 1.05300
C 	C 	0.83500 0.33900 0.21040 0.75500
H 	H 	0.87550 0.33760 0.22080 -0.09000
C 	C 	0.65780 0.34100 0.15620 -1.05900
F 	F 	0.82680 0.20640 0.29710 -0.07700
F 	F 	0.88390 0.28140 0.32660 -0.09300
F 	F 	0.79610 0.27130 0.37830 -0.11700
H 	H 	0.67780 0.34650 0.17310 1.31900
C 	C 	0.82060 0.27070 0.30640 -0.72700
F 	F 	0.62700 0.64230 0.58970 -0.03000
F 	F 	0.63680 0.60910 0.69960 -0.07200
F 	F 	0.71630 0.63130 0.63550 -0.03400
O 	O 	0.55840 0.84190 0.57000 -0.63100
O 	O 	0.60560 0.91310 0.63040 -0.61500
C 	C 	0.59520 0.86000 0.61520 0.69600
C 	C 	0.62810 0.81510 0.65650 -0.59400
C 	C 	0.62340 0.75810 0.64240 0.80600
H 	H 	0.59770 0.74460 0.60670 -0.11000
C 	C 	0.65750 0.71840 0.68170 -0.94800
C 	C 	0.69650 0.73700 0.73210 0.58100
C 	C 	0.69260 0.79540 0.75030 -0.81900
H 	H 	0.71220 0.80870 0.79130 1.05800
C 	C 	0.66100 0.83500 0.71040 0.75600
H 	H 	0.66240 0.87550 0.72080 -0.08100
C 	C 	0.65900 0.65780 0.65620 -1.06600
F 	F 	0.79360 0.82680 0.79710 -0.03200
F 	F 	0.71860 0.88390 0.82660 -0.06700
F 	F 	0.72870 0.79610 0.87830 -0.09400
H 	H 	0.65350 0.67780 0.67310 1.32400
C 	C 	0.72930 0.82060 0.80640 -0.73300
F 	F 	0.37300 0.35770 0.58970 -0.04000
F 	F 	0.36320 0.39090 0.69960 -0.07800
F 	F 	0.28370 0.36870 0.63550 -0.05500
O 	O 	0.44160 0.15810 0.57000 -0.64500
O 	O 	0.39440 0.08690 0.63040 -0.73900
C 	C 	0.40480 0.14000 0.61520 0.71400
C 	C 	0.37190 0.18490 0.65650 -0.64000
C 	C 	0.37660 0.24190 0.64240 0.81500
H 	H 	0.40230 0.25540 0.60670 -0.11800
C 	C 	0.34250 0.28160 0.68170 -0.95300
C 	C 	0.30350 0.26300 0.73210 0.58100
C 	C 	0.30740 0.20460 0.75030 -0.83900
H 	H 	0.28780 0.19130 0.79130 1.03000
C 	C 	0.33900 0.16500 0.71040 0.76700
H 	H 	0.33760 0.12450 0.72080 -0.14700
C 	C 	0.34100 0.34220 0.65620 -1.04000
F 	F 	0.20640 0.17320 0.79710 -0.12400
F 	F 	0.28140 0.11610 0.82660 -0.18400
F 	F 	0.27130 0.20390 0.87830 -0.14500
H 	H 	0.34650 0.32220 0.67310 1.30700
C 	C 	0.27070 0.17940 0.80640 -0.69800
Zr	Zr	0.00000 0.42394 0.09283 3.17500
O 	O 	0.00000 0.44410 0.20790 -0.60200
O 	O 	-0.00000 0.39690 0.45880 0.55400
C 	C 	-0.00000 0.44739 0.34920 -0.41500
H 	H 	0.00000 0.41150 0.32420 0.21100
C 	C 	0.00000 0.44744 0.42230 0.56400
H 	H 	0.00000 0.36250 0.44350 -0.05700
H 	H 	0.00000 0.41140 0.44700 -0.65600
Zr	Zr	0.00000 0.57606 0.09283 3.17600
O 	O 	-0.00000 0.55590 0.20790 -0.59900
O 	O 	0.00000 0.60310 0.45880 0.55500
C 	C 	0.00000 0.55261 0.34920 -0.41700
H 	H 	0.00000 0.58850 0.32420 0.21600
C 	C 	0.00000 0.55256 0.42230 0.56800
H 	H 	0.00000 0.63750 0.44350 -0.04600
H 	H 	0.00000 0.58860 0.44700 -0.65700
Zr	Zr	0.57606 -0.00000 0.59283 3.17600
O 	O 	0.55590 0.00000 0.70790 -0.60000
O 	O 	0.60310 0.00000 0.95880 0.55900
C 	C 	0.55261 0.00000 0.84920 -0.40200
H 	H 	0.58850 0.00000 0.82420 0.21200
C 	C 	0.55256 0.00000 0.92230 0.55100
H 	H 	0.63750 0.00000 0.94350 -0.04000
H 	H 	0.58860 0.00000 0.94700 -0.64800
Zr	Zr	0.42394 -0.00000 0.59283 3.17500
O 	O 	0.44410 0.00000 0.70790 -0.60300
O 	O 	0.39690 0.00000 0.95880 0.55800
C 	C 	0.44739 0.00000 0.84920 -0.40100
H 	H 	0.41150 0.00000 0.82420 0.20800
C 	C 	0.44744 0.00000 0.92230 0.54700
H 	H 	0.36250 0.00000 0.94350 -0.05000
H 	H 	0.41140 0.00000 0.94700 -0.64600
Zr	Zr	-0.00000 0.42394 0.90717 3.17700
O 	O 	0.00000 0.44410 0.79210 -0.60100
O 	O 	0.00000 0.39690 0.54120 0.55400
C 	C 	0.00000 0.44739 0.65080 -0.41500
H 	H 	0.00000 0.41150 0.67580 0.21200
C 	C 	0.00000 0.44744 0.57770 0.56400
H 	H 	-0.00000 0.36250 0.55650 -0.05600
H 	H 	0.00000 0.41140 0.55300 -0.65600
Zr	Zr	0.00000 0.57606 0.90717 3.17800
O 	O 	0.00000 0.55590 0.79210 -0.59800
O 	O 	0.00000 0.60310 0.54120 0.55500
C 	C 	0.00000 0.55261 0.65080 -0.41700
H 	H 	0.00000 0.58850 0.67580 0.21600
C 	C 	0.00000 0.55256 0.57770 0.56800
H 	H 	0.00000 0.63750 0.55650 -0.04600
H 	H 	0.00000 0.58860 0.55300 -0.65700
Zr	Zr	0.42394 0.00000 0.40717 3.17500
O 	O 	0.44410 -0.00000 0.29210 -0.60300
O 	O 	0.39690 0.00000 0.04120 0.55000
C 	C 	0.44739 0.00000 0.15080 -0.42900
H 	H 	0.41150 -0.00000 0.17580 0.21400
C 	C 	0.44744 -0.00000 0.07770 0.58100
H 	H 	0.36250 -0.00000 0.05650 -0.06100
H 	H 	0.41140 0.00000 0.05300 -0.66500
Zr	Zr	0.57606 0.00000 0.40717 3.17600
O 	O 	0.55590 -0.00000 0.29210 -0.60000
O 	O 	0.60310 0.00000 0.04120 0.55100
C 	C 	0.55261 0.00000 0.15080 -0.43100
H 	H 	0.58850 -0.00000 0.17580 0.21900
C 	C 	0.55256 -0.00000 0.07770 0.58400
H 	H 	0.63750 -0.00000 0.05650 -0.05100
H 	H 	0.58860 0.00000 0.05300 -0.66600
Zr	Zr	0.10788 0.50000 -0.00000 3.21100
Zr	Zr	0.89212 0.50000 -0.00000 3.21000
Zr	Zr	0.50000 0.10788 0.50000 3.21400
Zr	Zr	0.50000 0.89212 0.50000 3.21300
O 	O 	0.05410 0.42120 -0.00000 -1.34800
O 	O 	0.94590 0.57880 -0.00000 -1.18700
O 	O 	0.57880 0.05410 0.50000 -1.33000
O 	O 	0.42120 0.94590 0.50000 -1.17600
O 	O 	0.94590 0.42120 -0.00000 -1.19300
O 	O 	0.05410 0.57880 -0.00000 -1.34200
O 	O 	0.42120 0.05410 0.50000 -1.33700
O 	O 	0.57880 0.94590 0.50000 -1.16900
O 	O 	0.94830 0.50000 0.09050 -1.17900
O 	O 	0.05170 0.50000 0.09050 -1.34300
O 	O 	0.50000 0.94830 0.59050 -1.17600
O 	O 	0.50000 0.05170 0.59050 -1.34300
O 	O 	0.05170 0.50000 0.90950 -1.33200
O 	O 	0.94830 0.50000 0.90950 -1.16700
O 	O 	0.50000 0.94830 0.40950 -1.17600
O 	O 	0.50000 0.05170 0.40950 -1.34300
C 	C 	-0.00000 0.50000 0.23300 0.21800
C 	C 	0.00000 0.50000 0.31260 0.23700
C 	C 	0.00000 0.50000 0.45990 -0.27300
C 	C 	0.50000 0.00000 0.73300 0.22000
C 	C 	0.50000 0.00000 0.81260 0.22900
C 	C 	0.50000 0.00000 0.95990 -0.23000
C 	C 	0.00000 0.50000 0.76700 0.21700
C 	C 	0.00000 0.50000 0.68740 0.23800
C 	C 	-0.00000 0.50000 0.54010 -0.27400
C 	C 	0.50000 0.00000 0.26700 0.21400
C 	C 	0.50000 0.00000 0.18740 0.24500
C 	C 	0.50000 0.00000 0.04010 -0.31500
