data_crystal

_cell_length_a 15.87690
_cell_length_b 23.51030
_cell_length_c 23.15770
_cell_angle_alpha 90.00000
_cell_angle_beta  101.22600
_cell_angle_gamma 90.00000

_symmetry_space_group_name_	'P 1'
_symmetry_space_group_name_H-M	'P 1'

loop_
_symmetry_equiv_pos_as_xyz
  x,y,z

loop_
_atom_site_label
_atom_site_type_symbol
_atom_site_fract_x
_atom_site_fract_y
_atom_site_fract_z
_atom_site_charge
C 	C 	0.01680 0.41630 0.49530 0.30800
C 	C 	0.07450 0.37880 0.53000 -0.29200
H 	H 	0.12570 0.36830 0.51730 0.14400
C 	C 	0.05890 0.35780 0.58050 0.20600
H 	H 	0.09840 0.33200 0.60280 -0.02800
C 	C 	0.98430 0.37360 0.60050 -0.25500
C 	C 	0.92650 0.41180 0.56740 0.18800
H 	H 	0.87630 0.42280 0.58110 -0.01500
C 	C 	0.94180 0.43340 0.51560 -0.27400
H 	H 	0.90270 0.45950 0.49340 0.14500
C 	C 	0.97290 0.35380 0.65880 0.49700
C 	C 	0.17940 0.53180 0.60310 0.34800
C 	C 	0.25310 0.50240 0.60590 -0.35900
H 	H 	0.29340 0.51410 0.58280 0.16700
C 	C 	0.26990 0.45620 0.64150 0.26600
H 	H 	0.32100 0.43520 0.64150 -0.05100
C 	C 	0.21500 0.43890 0.67770 -0.31900
C 	C 	0.13910 0.46840 0.67460 0.23700
H 	H 	0.09960 0.45730 0.69850 -0.03700
C 	C 	0.12060 0.51450 0.63630 -0.32000
H 	H 	0.06750 0.53410 0.63310 0.15900
C 	C 	0.23530 0.38860 0.71610 0.56000
C 	C 	0.31210 0.46580 0.44670 0.30200
C 	C 	0.39470 0.48060 0.47550 -0.27600
H 	H 	0.42270 0.51330 0.46420 0.13800
C 	C 	0.43470 0.44600 0.52140 0.17900
H 	H 	0.49290 0.45330 0.53920 -0.00400
C 	C 	0.39090 0.40030 0.54250 -0.26800
C 	C 	0.30920 0.38660 0.51070 0.20400
H 	H 	0.28020 0.35450 0.52230 -0.02400
C 	C 	0.26990 0.41810 0.46370 -0.29600
H 	H 	0.21450 0.40780 0.44260 0.15100
C 	C 	0.42990 0.37030 0.59530 0.54000
C 	C 	0.27450 0.61750 0.35480 0.32700
C 	C 	0.27200 0.64780 0.30500 -0.29700
H 	H 	0.22450 0.64370 0.27330 0.15300
C 	C 	0.33830 0.68490 0.29970 0.19000
H 	H 	0.33680 0.70630 0.26470 -0.02800
C 	C 	0.40720 0.68990 0.34740 -0.23100
C 	C 	0.40920 0.65750 0.39640 0.18600
H 	H 	0.45790 0.65980 0.42740 -0.01400
C 	C 	0.34320 0.62140 0.40270 -0.28800
H 	H 	0.34420 0.60030 0.43780 0.14600
C 	C 	0.47970 0.72960 0.34310 0.44200
C 	C 	0.14270 0.68460 0.45570 0.30100
C 	C 	0.09850 0.69620 0.40120 -0.27600
H 	H 	0.04340 0.68000 0.38780 0.13800
C 	C 	0.13550 0.73300 0.36380 0.17800
H 	H 	0.10660 0.74020 0.32460 -0.02400
C 	C 	0.21170 0.75730 0.38500 -0.21500
C 	C 	0.25540 0.74720 0.44220 0.16000
H 	H 	0.30980 0.76420 0.45630 -0.00100
C 	C 	0.21790 0.71140 0.47850 -0.26600
H 	H 	0.24460 0.70600 0.51860 0.14400
C 	C 	0.25460 0.79520 0.34630 0.42900
C 	C 	0.90900 0.56160 0.37070 0.30200
C 	C 	0.93500 0.58700 0.32330 -0.29400
H 	H 	0.97560 0.56970 0.30360 0.15200
C 	C 	0.89800 0.63960 0.30610 0.20400
H 	H 	0.91800 0.65980 0.27590 -0.02100
C 	C 	0.83490 0.66370 0.33010 -0.28000
C 	C 	0.80800 0.63620 0.37540 0.20800
H 	H 	0.76570 0.65280 0.39390 -0.01700
C 	C 	0.84310 0.58390 0.39370 -0.29000
H 	H 	0.82110 0.56310 0.42280 0.14500
C 	C 	0.79430 0.72030 0.31020 0.55100
C 	C 	0.51090 0.57760 0.07760 0.28600
C 	C 	0.55980 0.62430 0.06410 -0.25400
H 	H 	0.57470 0.62680 0.02640 0.12900
C 	C 	0.58600 0.66600 0.10520 0.14300
H 	H 	0.62010 0.69660 0.09600 -0.01100
C 	C 	0.56290 0.66380 0.15990 -0.19400
C 	C 	0.51560 0.61790 0.17310 0.15500
H 	H 	0.49980 0.61560 0.21050 0.00500
C 	C 	0.49120 0.57550 0.13200 -0.26800
H 	H 	0.45980 0.54390 0.14210 0.14800
C 	C 	0.58340 0.71060 0.20360 0.37100
C 	C 	0.19800 0.61360 0.14400 0.32900
C 	C 	0.22050 0.66890 0.15430 -0.31700
H 	H 	0.27510 0.68210 0.14910 0.15200
C 	C 	0.16220 0.70670 0.17280 0.21500
H 	H 	0.17760 0.74550 0.17970 -0.05500
C 	C 	0.08300 0.68800 0.18110 -0.27100
C 	C 	0.06440 0.62960 0.17270 0.19900
H 	H 	0.01180 0.61550 0.18070 -0.01900
C 	C 	0.11890 0.59250 0.15350 -0.30000
H 	H 	0.10400 0.55360 0.14680 0.16100
C 	C 	0.02350 0.72650 0.20100 0.46000
C 	C 	0.29880 0.71920 0.01940 0.31700
C 	C 	0.37170 0.72530 0.05840 -0.30400
H 	H 	0.42210 0.70610 0.05280 0.14900
C 	C 	0.37390 0.76030 0.10800 0.18600
H 	H 	0.42410 0.76300 0.13790 -0.02300
C 	C 	0.29860 0.79160 0.11200 -0.26600
C 	C 	0.22650 0.78640 0.06920 0.19600
H 	H 	0.17690 0.80810 0.07170 -0.01200
C 	C 	0.22510 0.74930 0.02190 -0.29200
H 	H 	0.17490 0.74490 0.99240 0.15300
C 	C 	0.29440 0.82340 0.16560 0.50500
C 	C 	0.41420 0.46030 0.92340 0.32900
C 	C 	0.47560 0.49150 0.90410 -0.31400
H 	H 	0.49920 0.52450 0.92490 0.16000
C 	C 	0.50260 0.47450 0.85460 0.20400
H 	H 	0.54580 0.49580 0.84090 -0.01500
C 	C 	0.46850 0.42700 0.82380 -0.24600
C 	C 	0.40790 0.39400 0.84560 0.20800
H 	H 	0.38710 0.35950 0.82670 -0.04100
C 	C 	0.37950 0.41200 0.89410 -0.30900
H 	H 	0.33580 0.39140 0.90790 0.14000
C 	C 	0.50380 0.40920 0.77050 0.46200
C 	C 	0.16630 0.57580 0.87830 0.30800
C 	C 	0.19790 0.52400 0.86680 -0.29000
H 	H 	0.25790 0.51720 0.87760 0.14400
C 	C 	0.14440 0.48070 0.83960 0.18300
H 	H 	0.16770 0.44470 0.83290 -0.02800
C 	C 	0.05840 0.49030 0.82280 -0.21900
C 	C 	0.02670 0.54380 0.83480 0.15800
H 	H 	0.96670 0.55050 0.82370 0.00000
C 	C 	0.07830 0.58710 0.86190 -0.26300
H 	H 	0.05510 0.62310 0.86900 0.14100
C 	C 	0.99740 0.44510 0.79670 0.40800
C 	C 	0.13530 0.47030 0.02010 0.32900
C 	C 	0.18270 0.42590 0.00790 -0.34100
H 	H 	0.24020 0.42190 0.02850 0.16800
C 	C 	0.14900 0.38700 0.96650 0.23100
H 	H 	0.18330 0.35720 0.95570 -0.04500
C 	C 	0.06180 0.39220 0.94020 -0.28400
C 	C 	0.01450 0.43580 0.95520 0.21800
H 	H 	0.95580 0.43860 0.93680 -0.02800
C 	C 	0.04910 0.47640 0.99680 -0.30500
H 	H 	0.01560 0.50630 0.00830 0.15000
C 	C 	0.02660 0.35240 0.89160 0.50300
C 	C 	0.27230 0.95240 0.31390 0.36800
C 	C 	0.20860 0.99800 0.32020 -0.06400
Ho	Ho	0.38981 0.86371 0.30106 1.92700
Ho	Ho	0.87176 0.35940 0.76991 1.97200
Ho	Ho	0.10629 0.30760 0.78027 1.84800
Ho	Ho	0.60987 0.78760 0.29972 2.01000
N 	N 	0.35800 0.58010 0.96580 -0.18600
N 	N 	0.33030 0.51810 0.05720 -0.18100
N 	N 	0.21500 0.60010 0.01110 -0.18700
N 	N 	0.10550 0.50800 0.38300 -0.17000
N 	N 	0.20970 0.56750 0.46780 -0.19500
N 	N 	0.04790 0.54280 0.48140 -0.18400
O 	O 	0.90600 0.36950 0.67720 -0.49700
O 	O 	0.03030 0.32170 0.68650 -0.50400
O 	O 	0.29760 0.35870 0.71080 -0.54600
O 	O 	0.18850 0.37880 0.75440 -0.52100
O 	O 	0.38310 0.33420 0.61440 -0.52800
O 	O 	0.50540 0.38300 0.61860 -0.51800
O 	O 	0.03720 0.43730 0.44450 -0.28300
O 	O 	0.16190 0.58160 0.56850 -0.28400
O 	O 	0.27240 0.49970 0.40050 -0.28300
O 	O 	0.94410 0.50690 0.39030 -0.27300
O 	O 	0.10820 0.64760 0.49420 -0.26800
O 	O 	0.20310 0.58340 0.35510 -0.28400
O 	O 	0.73010 0.73580 0.33040 -0.52900
O 	O 	0.82460 0.74750 0.27270 -0.53500
O 	O 	0.22300 0.79750 0.29130 -0.50700
O 	O 	0.32230 0.82080 0.37090 -0.46200
O 	O 	0.46110 0.77570 0.31120 -0.58500
O 	O 	0.55340 0.72010 0.36610 -0.40900
O 	O 	0.22240 0.84650 0.17040 -0.51600
O 	O 	0.35890 0.82560 0.20710 -0.50400
O 	O 	0.04830 0.77640 0.22050 -0.58600
O 	O 	0.94550 0.71290 0.19690 -0.42900
O 	O 	0.56000 0.70360 0.25260 -0.43900
O 	O 	0.62330 0.75560 0.19770 -0.41600
O 	O 	0.48280 0.53520 0.03590 -0.28500
O 	O 	0.29800 0.68330 0.96950 -0.26900
O 	O 	0.25790 0.57830 0.12510 -0.28800
O 	O 	0.38490 0.47100 0.97570 -0.29100
O 	O 	0.21480 0.62080 0.90390 -0.27800
O 	O 	0.16860 0.51100 0.06480 -0.28500
O 	O 	0.47740 0.36270 0.74500 -0.57800
O 	O 	0.56090 0.43730 0.75480 -0.45300
O 	O 	0.91800 0.45460 0.78790 -0.44300
O 	O 	0.02660 0.39670 0.78300 -0.52500
O 	O 	0.94820 0.35430 0.87080 -0.46600
O 	O 	0.07900 0.32000 0.87250 -0.52000
O 	O 	0.25030 0.91230 0.27380 -0.55800
O 	O 	0.34550 0.95000 0.34460 -0.39300
P 	P 	0.38485 0.53005 0.00882 0.38400
P 	P 	0.24604 0.55293 0.06140 0.37700
P 	P 	0.27330 0.61780 0.96725 0.37700
P 	P 	0.19343 0.53897 0.40562 0.37900
P 	P 	0.13180 0.58184 0.49970 0.37400
P 	P 	0.03810 0.50268 0.42667 0.37500
C 	C 	0.98320 0.91630 0.50470 0.31000
C 	C 	0.92550 0.87880 0.47000 -0.29400
H 	H 	0.87430 0.86830 0.48270 0.14400
C 	C 	0.94110 0.85780 0.41950 0.20900
H 	H 	0.90160 0.83200 0.39720 -0.02800
C 	C 	0.01570 0.87360 0.39950 -0.25700
C 	C 	0.07350 0.91180 0.43260 0.19100
H 	H 	0.12370 0.92280 0.41890 -0.01500
C 	C 	0.05820 0.93340 0.48440 -0.27500
H 	H 	0.09730 0.95950 0.50660 0.14900
C 	C 	0.02710 0.85380 0.34120 0.49700
C 	C 	0.82060 0.03180 0.39690 0.37500
C 	C 	0.74690 0.00240 0.39410 -0.40500
H 	H 	0.70660 0.01410 0.41720 0.17800
C 	C 	0.73010 0.95620 0.35850 0.31200
H 	H 	0.67900 0.93520 0.35850 -0.06500
C 	C 	0.78500 0.93890 0.32230 -0.34800
C 	C 	0.86090 0.96840 0.32540 0.27900
H 	H 	0.90040 0.95730 0.30150 -0.04900
C 	C 	0.87940 0.01450 0.36370 -0.36300
H 	H 	0.93250 0.03410 0.36690 0.17000
C 	C 	0.76470 0.88860 0.28390 0.57100
C 	C 	0.68790 0.96580 0.55330 0.28900
C 	C 	0.60530 0.98060 0.52450 -0.24300
H 	H 	0.57730 0.01330 0.53580 0.11900
C 	C 	0.56530 0.94600 0.47860 0.16100
H 	H 	0.50710 0.95330 0.46080 0.00400
C 	C 	0.60910 0.90030 0.45750 -0.25700
C 	C 	0.69080 0.88660 0.48930 0.19400
H 	H 	0.71980 0.85450 0.47770 -0.02000
C 	C 	0.73010 0.91810 0.53630 -0.28300
H 	H 	0.78550 0.90780 0.55740 0.14900
C 	C 	0.57010 0.87030 0.40470 0.53700
C 	C 	0.72550 0.11750 0.64520 0.32500
C 	C 	0.72800 0.14780 0.69500 -0.29700
H 	H 	0.77550 0.14370 0.72670 0.15200
C 	C 	0.66170 0.18490 0.70030 0.18900
H 	H 	0.66320 0.20630 0.73530 -0.02800
C 	C 	0.59280 0.18990 0.65260 -0.23100
C 	C 	0.59080 0.15750 0.60360 0.18500
H 	H 	0.54210 0.15980 0.57260 -0.01500
C 	C 	0.65680 0.12140 0.59730 -0.28800
H 	H 	0.65580 0.10030 0.56220 0.14400
C 	C 	0.52030 0.22960 0.65690 0.44200
C 	C 	0.85730 0.18460 0.54430 0.30100
C 	C 	0.90150 0.19620 0.59880 -0.27600
H 	H 	0.95660 0.18000 0.61220 0.13900
C 	C 	0.86450 0.23300 0.63620 0.17800
H 	H 	0.89340 0.24020 0.67540 -0.02400
C 	C 	0.78830 0.25730 0.61500 -0.21500
C 	C 	0.74460 0.24720 0.55780 0.15900
H 	H 	0.69020 0.26420 0.54370 -0.00100
C 	C 	0.78210 0.21140 0.52150 -0.26600
H 	H 	0.75540 0.20600 0.48140 0.14300
C 	C 	0.74540 0.29520 0.65370 0.42900
C 	C 	0.09100 0.06160 0.62930 0.30100
C 	C 	0.06500 0.08700 0.67670 -0.29400
H 	H 	0.02440 0.06970 0.69640 0.15100
C 	C 	0.10200 0.13960 0.69390 0.20300
H 	H 	0.08200 0.15980 0.72410 -0.02100
C 	C 	0.16510 0.16370 0.66990 -0.28000
C 	C 	0.19200 0.13620 0.62460 0.20700
H 	H 	0.23430 0.15280 0.60610 -0.01700
C 	C 	0.15690 0.08390 0.60630 -0.29000
H 	H 	0.17890 0.06310 0.57720 0.14300
C 	C 	0.20570 0.22030 0.68980 0.55100
C 	C 	0.48910 0.07760 0.92240 0.28500
C 	C 	0.44020 0.12430 0.93590 -0.25400
H 	H 	0.42530 0.12680 0.97360 0.12900
C 	C 	0.41400 0.16600 0.89480 0.14200
H 	H 	0.37990 0.19660 0.90400 -0.01100
C 	C 	0.43710 0.16380 0.84010 -0.19400
C 	C 	0.48440 0.11790 0.82690 0.15500
H 	H 	0.50020 0.11560 0.78950 0.00400
C 	C 	0.50880 0.07550 0.86800 -0.26800
H 	H 	0.54020 0.04390 0.85790 0.14700
C 	C 	0.41660 0.21060 0.79640 0.37100
C 	C 	0.80200 0.11360 0.85600 0.32900
C 	C 	0.77950 0.16890 0.84570 -0.31700
H 	H 	0.72490 0.18210 0.85090 0.15200
C 	C 	0.83780 0.20670 0.82720 0.21500
H 	H 	0.82240 0.24550 0.82030 -0.05500
C 	C 	0.91700 0.18800 0.81890 -0.27100
C 	C 	0.93560 0.12960 0.82730 0.19900
H 	H 	0.98820 0.11550 0.81930 -0.02000
C 	C 	0.88110 0.09250 0.84650 -0.30000
H 	H 	0.89600 0.05360 0.85320 0.16000
C 	C 	0.97650 0.22650 0.79900 0.46000
C 	C 	0.70120 0.21920 0.98060 0.31700
C 	C 	0.62830 0.22530 0.94160 -0.30400
H 	H 	0.57790 0.20610 0.94720 0.14900
C 	C 	0.62610 0.26030 0.89200 0.18500
H 	H 	0.57590 0.26300 0.86210 -0.02300
C 	C 	0.70140 0.29160 0.88800 -0.26500
C 	C 	0.77350 0.28640 0.93080 0.19400
H 	H 	0.82310 0.30810 0.92830 -0.01100
C 	C 	0.77490 0.24930 0.97810 -0.28700
H 	H 	0.82510 0.24490 0.00760 0.14900
C 	C 	0.70560 0.32340 0.83440 0.50400
C 	C 	0.58580 0.96030 0.07660 0.31300
C 	C 	0.52440 0.99150 0.09590 -0.27700
H 	H 	0.50080 0.02450 0.07510 0.14000
C 	C 	0.49740 0.97450 0.14540 0.18200
H 	H 	0.45420 0.99580 0.15910 -0.00600
C 	C 	0.53150 0.92700 0.17620 -0.23300
C 	C 	0.59210 0.89400 0.15440 0.19600
H 	H 	0.61290 0.85950 0.17330 -0.03600
C 	C 	0.62050 0.91200 0.10590 -0.29400
H 	H 	0.66420 0.89140 0.09210 0.13500
C 	C 	0.49620 0.90920 0.22950 0.45800
C 	C 	0.83370 0.07580 0.12170 0.30900
C 	C 	0.80210 0.02400 0.13320 -0.30700
H 	H 	0.74210 0.01720 0.12240 0.14500
C 	C 	0.85560 0.98070 0.16040 0.19600
H 	H 	0.83230 0.94470 0.16710 -0.03000
C 	C 	0.94160 0.99030 0.17720 -0.20700
C 	C 	0.97330 0.04380 0.16520 0.14200
H 	H 	0.03330 0.05050 0.17630 0.00200
C 	C 	0.92170 0.08710 0.13810 -0.26000
H 	H 	0.94490 0.12310 0.13100 0.13900
C 	C 	0.00260 0.94510 0.20330 0.40400
C 	C 	0.86470 0.97030 0.97990 0.33500
C 	C 	0.81730 0.92590 0.99210 -0.33800
H 	H 	0.75980 0.92190 0.97150 0.17100
C 	C 	0.85100 0.88700 0.03350 0.22800
H 	H 	0.81670 0.85720 0.04430 -0.04300
C 	C 	0.93820 0.89220 0.05980 -0.28100
C 	C 	0.98550 0.93580 0.04480 0.21200
H 	H 	0.04420 0.93860 0.06320 -0.02500
C 	C 	0.95090 0.97640 0.00320 -0.28900
H 	H 	0.98440 0.00630 0.99170 0.13900
C 	C 	0.97340 0.85240 0.10840 0.50300
C 	C 	0.72770 0.45240 0.68610 0.36800
C 	C 	0.79140 0.49800 0.67980 -0.06800
Ho	Ho	0.61019 0.36371 0.69894 1.92600
Ho	Ho	0.12824 0.85940 0.23009 1.97200
Ho	Ho	0.89371 0.80760 0.21973 1.85000
Ho	Ho	0.39013 0.28760 0.70028 2.00900
N 	N 	0.64200 0.08010 0.03420 -0.18800
N 	N 	0.66970 0.01810 0.94280 -0.18300
N 	N 	0.78500 0.10010 0.98890 -0.18700
N 	N 	0.89450 0.00800 0.61700 -0.17100
N 	N 	0.79030 0.06750 0.53220 -0.19600
N 	N 	0.95210 0.04280 0.51860 -0.18600
O 	O 	0.09400 0.86950 0.32280 -0.49600
O 	O 	0.96970 0.82170 0.31350 -0.50400
O 	O 	0.70240 0.85870 0.28920 -0.54900
O 	O 	0.81150 0.87880 0.24560 -0.52400
O 	O 	0.61690 0.83420 0.38560 -0.52700
O 	O 	0.49460 0.88300 0.38140 -0.51600
O 	O 	0.96280 0.93730 0.55550 -0.27600
O 	O 	0.83810 0.08160 0.43150 -0.29100
O 	O 	0.72760 0.99970 0.59950 -0.27000
O 	O 	0.05590 0.00690 0.60970 -0.27600
O 	O 	0.89180 0.14760 0.50580 -0.26900
O 	O 	0.79690 0.08340 0.64490 -0.28400
O 	O 	0.26990 0.23580 0.66960 -0.52900
O 	O 	0.17540 0.24750 0.72730 -0.53500
O 	O 	0.77700 0.29750 0.70870 -0.50700
O 	O 	0.67770 0.32080 0.62910 -0.46200
O 	O 	0.53890 0.27570 0.68880 -0.58500
O 	O 	0.44660 0.22010 0.63390 -0.41000
O 	O 	0.77760 0.34650 0.82960 -0.51600
O 	O 	0.64110 0.32560 0.79290 -0.50400
O 	O 	0.95170 0.27640 0.77950 -0.58500
O 	O 	0.05450 0.21290 0.80310 -0.42900
O 	O 	0.44000 0.20360 0.74740 -0.43900
O 	O 	0.37670 0.25560 0.80230 -0.41600
O 	O 	0.51720 0.03520 0.96410 -0.28600
O 	O 	0.70200 0.18330 0.03050 -0.27100
O 	O 	0.74210 0.07830 0.87490 -0.28900
O 	O 	0.61510 0.97100 0.02430 -0.28000
O 	O 	0.78520 0.12080 0.09610 -0.27900
O 	O 	0.83140 0.01100 0.93520 -0.29200
O 	O 	0.52260 0.86270 0.25500 -0.57600
O 	O 	0.43910 0.93730 0.24520 -0.45100
O 	O 	0.08200 0.95460 0.21210 -0.44000
O 	O 	0.97340 0.89670 0.21700 -0.52300
O 	O 	0.05180 0.85430 0.12920 -0.46700
O 	O 	0.92100 0.82000 0.12750 -0.51900
O 	O 	0.74970 0.41230 0.72620 -0.55800
O 	O 	0.65450 0.45000 0.65540 -0.39400
P 	P 	0.61515 0.03005 0.99118 0.37900
P 	P 	0.75396 0.05293 0.93860 0.37700
P 	P 	0.72670 0.11780 0.03275 0.37500
P 	P 	0.80657 0.03897 0.59438 0.37100
P 	P 	0.86820 0.08184 0.50030 0.37500
P 	P 	0.96190 0.00268 0.57333 0.36700
