data_crystal

_cell_length_a 13.82200
_cell_length_b 13.82200
_cell_length_c 19.80800
_cell_angle_alpha 90.00000
_cell_angle_beta  90.00000
_cell_angle_gamma 120.00000

_symmetry_space_group_name_	'P 1'
_symmetry_space_group_name_H-M	'P 1'

loop_
_symmetry_equiv_pos_as_xyz
  x,y,z

loop_
_atom_site_label
_atom_site_type_symbol
_atom_site_fract_x
_atom_site_fract_y
_atom_site_fract_z
_atom_site_charge
Gd	Gd	0.67827 0.74624 0.25000 0.93300
Gd	Gd	0.06797 0.32173 0.25000 0.93200
Gd	Gd	0.25376 0.93203 0.25000 0.93200
Gd	Gd	0.32173 0.25376 0.75000 0.93300
Gd	Gd	0.93203 0.67827 0.75000 0.93200
Gd	Gd	0.74624 0.06797 0.75000 0.93200
Re	Re	0.28616 0.75258 0.56029 0.40300
Re	Re	0.46642 0.71384 0.56029 0.40300
Re	Re	0.24742 0.53358 0.56029 0.40300
Re	Re	0.71384 0.24742 0.06029 0.40300
Re	Re	0.53358 0.28616 0.06029 0.40300
Re	Re	0.75258 0.46642 0.06029 0.40300
Re	Re	0.71384 0.24742 0.43971 0.40300
Re	Re	0.53358 0.28616 0.43971 0.40300
Re	Re	0.75258 0.46642 0.43971 0.40300
Re	Re	0.28616 0.75258 0.93971 0.40300
Re	Re	0.46642 0.71384 0.93971 0.40300
Re	Re	0.24742 0.53358 0.93971 0.40300
Re	Re	0.33333 0.66666 0.44452 0.39600
Re	Re	0.66667 0.33334 0.94452 0.39600
Re	Re	0.66667 0.33334 0.55548 0.39600
Re	Re	0.33333 0.66666 0.05548 0.39600
C 	C 	0.46200 0.70800 0.37480 -0.03500
C 	C 	0.23080 0.84820 0.51020 -0.04800
C 	C 	0.14970 0.71960 0.62320 -0.03200
C 	C 	0.36230 0.89950 0.61830 -0.04600
C 	C 	0.24600 0.53800 0.37480 -0.03500
C 	C 	0.61740 0.76920 0.51020 -0.04800
C 	C 	0.56990 0.85030 0.62320 -0.03200
C 	C 	0.53720 0.63770 0.61830 -0.04600
C 	C 	0.29200 0.75400 0.37480 -0.03500
C 	C 	0.15180 0.38260 0.51020 -0.04800
C 	C 	0.28040 0.43010 0.62320 -0.03200
C 	C 	0.10050 0.46280 0.61830 -0.04600
C 	C 	0.53800 0.29200 0.87480 -0.03500
C 	C 	0.76920 0.15180 0.01020 -0.04700
C 	C 	0.85030 0.28040 0.12320 -0.03200
C 	C 	0.63770 0.10050 0.11830 -0.04600
C 	C 	0.75400 0.46200 0.87480 -0.03500
C 	C 	0.38260 0.23080 0.01020 -0.04800
C 	C 	0.43010 0.14970 0.12320 -0.03200
C 	C 	0.46280 0.36230 0.11830 -0.04600
C 	C 	0.70800 0.24600 0.87480 -0.03500
C 	C 	0.84820 0.61740 0.01020 -0.04800
C 	C 	0.71960 0.56990 0.12320 -0.03200
C 	C 	0.89950 0.53720 0.11830 -0.04600
C 	C 	0.53800 0.29200 0.62520 -0.03500
C 	C 	0.76920 0.15180 0.48980 -0.04800
C 	C 	0.85030 0.28040 0.37680 -0.03200
C 	C 	0.63770 0.10050 0.38170 -0.04600
C 	C 	0.75400 0.46200 0.62520 -0.03500
C 	C 	0.38260 0.23080 0.48980 -0.04800
C 	C 	0.43010 0.14970 0.37680 -0.03200
C 	C 	0.46280 0.36230 0.38170 -0.04600
C 	C 	0.70800 0.24600 0.62520 -0.03500
C 	C 	0.84820 0.61740 0.48980 -0.04800
C 	C 	0.71960 0.56990 0.37680 -0.03200
C 	C 	0.89950 0.53720 0.38170 -0.04600
C 	C 	0.46200 0.70800 0.12520 -0.03500
C 	C 	0.23080 0.84820 0.98980 -0.04700
C 	C 	0.14970 0.71960 0.87680 -0.03200
C 	C 	0.36230 0.89950 0.88170 -0.04600
C 	C 	0.24600 0.53800 0.12520 -0.03500
C 	C 	0.61740 0.76920 0.98980 -0.04800
C 	C 	0.56990 0.85030 0.87680 -0.03200
C 	C 	0.53720 0.63770 0.88170 -0.04600
C 	C 	0.29200 0.75400 0.12520 -0.03500
C 	C 	0.15180 0.38260 0.98980 -0.04800
C 	C 	0.28040 0.43010 0.87680 -0.03200
C 	C 	0.10050 0.46280 0.88170 -0.04600
Se	Se	0.45563 0.85476 0.49037 -0.19400
Se	Se	0.39913 0.54437 0.49037 -0.19400
Se	Se	0.14524 0.60087 0.49037 -0.19400
Se	Se	0.54437 0.14524 0.99037 -0.19500
Se	Se	0.60087 0.45563 0.99037 -0.19500
Se	Se	0.85476 0.39913 0.99037 -0.19500
Se	Se	0.54437 0.14524 0.50963 -0.19400
Se	Se	0.60087 0.45563 0.50963 -0.19400
Se	Se	0.85476 0.39913 0.50963 -0.19400
Se	Se	0.45563 0.85476 0.00963 -0.19500
Se	Se	0.39913 0.54437 0.00963 -0.19500
Se	Se	0.14524 0.60087 0.00963 -0.19500
Se	Se	0.33333 0.66666 0.65383 -0.21400
Se	Se	0.66667 0.33334 0.15383 -0.21400
Se	Se	0.66667 0.33334 0.34617 -0.21400
Se	Se	0.33333 0.66666 0.84617 -0.21400
N 	N 	0.53320 0.72690 0.33610 -0.18100
N 	N 	0.07840 0.70570 0.65970 -0.18200
N 	N 	0.20060 0.90380 0.48350 -0.10200
N 	N 	0.39860 0.97930 0.64990 -0.10900
N 	N 	0.19370 0.46680 0.33610 -0.18100
N 	N 	0.62730 0.92160 0.65970 -0.18200
N 	N 	0.70320 0.79940 0.48350 -0.10200
N 	N 	0.58070 0.60140 0.64990 -0.10900
N 	N 	0.27310 0.80630 0.33610 -0.18100
N 	N 	0.29430 0.37270 0.65970 -0.18300
N 	N 	0.09620 0.29680 0.48350 -0.10200
N 	N 	0.02070 0.41930 0.64990 -0.10900
N 	N 	0.46680 0.27310 0.83610 -0.18100
N 	N 	0.92160 0.29430 0.15970 -0.18200
N 	N 	0.79940 0.09620 0.98350 -0.10300
N 	N 	0.60140 0.02070 0.14990 -0.10900
N 	N 	0.80630 0.53320 0.83610 -0.18100
N 	N 	0.37270 0.07840 0.15970 -0.18200
N 	N 	0.29680 0.20060 0.98350 -0.10200
N 	N 	0.41930 0.39860 0.14990 -0.10900
N 	N 	0.72690 0.19370 0.83610 -0.18100
N 	N 	0.70570 0.62730 0.15970 -0.18300
N 	N 	0.90380 0.70320 0.98350 -0.10200
N 	N 	0.97930 0.58070 0.14990 -0.10900
N 	N 	0.46680 0.27310 0.66390 -0.18100
N 	N 	0.92160 0.29430 0.34030 -0.18200
N 	N 	0.79940 0.09620 0.51650 -0.10200
N 	N 	0.60140 0.02070 0.35010 -0.10900
N 	N 	0.80630 0.53320 0.66390 -0.18100
N 	N 	0.37270 0.07840 0.34030 -0.18200
N 	N 	0.29680 0.20060 0.51650 -0.10200
N 	N 	0.41930 0.39860 0.35010 -0.10900
N 	N 	0.72690 0.19370 0.66390 -0.18100
N 	N 	0.70570 0.62730 0.34030 -0.18300
N 	N 	0.90380 0.70320 0.51650 -0.10200
N 	N 	0.97930 0.58070 0.35010 -0.10900
N 	N 	0.53320 0.72690 0.16390 -0.18100
N 	N 	0.07840 0.70570 0.84030 -0.18200
N 	N 	0.20060 0.90380 0.01650 -0.10300
N 	N 	0.39860 0.97930 0.85010 -0.10900
N 	N 	0.19370 0.46680 0.16390 -0.18100
N 	N 	0.62730 0.92160 0.84030 -0.18200
N 	N 	0.70320 0.79940 0.01650 -0.10200
N 	N 	0.58070 0.60140 0.85010 -0.10900
N 	N 	0.27310 0.80630 0.16390 -0.18100
N 	N 	0.29430 0.37270 0.84030 -0.18300
N 	N 	0.09620 0.29680 0.01650 -0.10200
N 	N 	0.02070 0.41930 0.85010 -0.10900
