data_crystal

_cell_length_a 14.51850
_cell_length_b 21.57020
_cell_length_c 20.62010
_cell_angle_alpha 90.00000
_cell_angle_beta  90.00000
_cell_angle_gamma 90.00000

_symmetry_space_group_name_	'P 1'
_symmetry_space_group_name_H-M	'P 1'

loop_
_symmetry_equiv_pos_as_xyz
  x,y,z

loop_
_atom_site_label
_atom_site_type_symbol
_atom_site_fract_x
_atom_site_fract_y
_atom_site_fract_z
_atom_site_charge
Re	Re	0.09510 0.36178 0.55917 0.44800
S 	S 	0.12940 0.26452 0.51164 -0.27500
N 	N 	0.14680 0.34150 0.34580 -0.20500
N 	N 	0.26690 0.33090 0.65480 -0.10100
N 	N 	0.11950 0.49320 0.63560 -0.11200
N 	N 	0.26080 0.41400 0.46780 -0.15200
N 	N 	0.14800 0.19260 0.67950 -0.19800
C 	C 	0.09480 0.33060 0.38650 -0.02500
C 	C 	0.20600 0.34160 0.62130 -0.04400
C 	C 	0.11090 0.44800 0.60610 -0.04000
C 	C 	0.20370 0.39570 0.50070 -0.04300
C 	C 	0.09530 0.21480 0.64520 -0.03300
Re	Re	0.59510 0.86178 0.55917 0.44600
S 	S 	0.62940 0.76452 0.51164 -0.27400
N 	N 	0.64680 0.84150 0.34580 -0.20400
N 	N 	0.76690 0.83090 0.65480 -0.10000
N 	N 	0.61950 0.99320 0.63560 -0.09400
N 	N 	0.76080 0.91400 0.46780 -0.14100
N 	N 	0.64800 0.69260 0.67950 -0.19900
C 	C 	0.59480 0.83060 0.38650 -0.01900
C 	C 	0.70600 0.84160 0.62130 -0.04100
C 	C 	0.61090 0.94800 0.60610 -0.02900
C 	C 	0.70370 0.89570 0.50070 -0.03400
C 	C 	0.59530 0.71480 0.64520 -0.03100
Re	Re	0.90490 0.63822 0.05917 0.42900
S 	S 	0.87060 0.73548 0.01164 -0.31000
N 	N 	0.85320 0.65850 0.84580 -0.20400
N 	N 	0.73310 0.66910 0.15480 -0.10600
N 	N 	0.88050 0.50680 0.13560 -0.11400
N 	N 	0.73920 0.58600 0.96780 -0.12000
N 	N 	0.85200 0.80740 0.17950 -0.19900
C 	C 	0.90520 0.66940 0.88650 -0.02500
C 	C 	0.79400 0.65840 0.12130 -0.04400
C 	C 	0.88910 0.55200 0.10610 -0.04600
C 	C 	0.79630 0.60430 0.00070 -0.08900
C 	C 	0.90470 0.78520 0.14520 -0.03200
Re	Re	0.40490 0.13822 0.05917 0.43500
S 	S 	0.37060 0.23548 0.01164 -0.30900
N 	N 	0.35320 0.15850 0.84580 -0.20600
N 	N 	0.23310 0.16910 0.15480 -0.10800
N 	N 	0.38050 0.00680 0.13560 -0.13200
N 	N 	0.23920 0.08600 0.96780 -0.12700
N 	N 	0.35200 0.30740 0.17950 -0.19900
C 	C 	0.40520 0.16940 0.88650 -0.02700
C 	C 	0.29400 0.15840 0.12130 -0.04600
C 	C 	0.38910 0.05200 0.10610 -0.05600
C 	C 	0.29630 0.10430 0.00070 -0.09800
C 	C 	0.40470 0.28520 0.14520 -0.03100
Re	Re	0.90490 0.36178 0.94083 0.45500
S 	S 	0.87060 0.26452 0.98836 -0.24400
N 	N 	0.85320 0.34150 0.15420 -0.20700
N 	N 	0.73310 0.33090 0.84520 -0.10100
N 	N 	0.88050 0.49320 0.86440 -0.11200
N 	N 	0.73920 0.41400 0.03220 -0.18300
N 	N 	0.85200 0.19260 0.82050 -0.19700
C 	C 	0.90520 0.33060 0.11350 -0.03100
C 	C 	0.79400 0.34160 0.87870 -0.04400
C 	C 	0.88910 0.44800 0.89390 -0.03800
C 	C 	0.79630 0.39570 0.99930 0.00400
C 	C 	0.90470 0.21480 0.85480 -0.03600
Re	Re	0.40490 0.86178 0.94083 0.45800
S 	S 	0.37060 0.76452 0.98836 -0.24100
N 	N 	0.35320 0.84150 0.15420 -0.20500
N 	N 	0.23310 0.83090 0.84520 -0.09800
N 	N 	0.38050 0.99320 0.86440 -0.09300
N 	N 	0.23920 0.91400 0.03220 -0.16900
N 	N 	0.35200 0.69260 0.82050 -0.19800
C 	C 	0.40520 0.83060 0.11350 -0.02200
C 	C 	0.29400 0.84160 0.87870 -0.04100
C 	C 	0.38910 0.94800 0.89390 -0.02500
C 	C 	0.29630 0.89570 0.99930 0.01000
C 	C 	0.40470 0.71480 0.85480 -0.03000
Re	Re	0.09510 0.63822 0.44083 0.44700
S 	S 	0.12940 0.73548 0.48836 -0.27400
N 	N 	0.14680 0.65850 0.65420 -0.20600
N 	N 	0.26690 0.66910 0.34520 -0.10400
N 	N 	0.11950 0.50680 0.36440 -0.11200
N 	N 	0.26080 0.58600 0.53220 -0.15200
N 	N 	0.14800 0.80740 0.32050 -0.19900
C 	C 	0.09480 0.66940 0.61350 -0.02400
C 	C 	0.20600 0.65840 0.37870 -0.04400
C 	C 	0.11090 0.55200 0.39390 -0.04000
C 	C 	0.20370 0.60430 0.49930 -0.04300
C 	C 	0.09530 0.78520 0.35480 -0.02800
Re	Re	0.59510 0.13822 0.44083 0.44800
S 	S 	0.62940 0.23548 0.48836 -0.27400
N 	N 	0.64680 0.15850 0.65420 -0.20800
N 	N 	0.76690 0.16910 0.34520 -0.10700
N 	N 	0.61950 0.00680 0.36440 -0.13100
N 	N 	0.76080 0.08600 0.53220 -0.16100
N 	N 	0.64800 0.30740 0.32050 -0.19900
C 	C 	0.59480 0.16940 0.61350 -0.03000
C 	C 	0.70600 0.15840 0.37870 -0.04700
C 	C 	0.61090 0.05200 0.39390 -0.05200
C 	C 	0.70370 0.10430 0.49930 -0.05100
C 	C 	0.59530 0.28520 0.35480 -0.03100
Re	Re	0.90490 0.63822 0.44083 0.44200
S 	S 	0.87060 0.73548 0.48836 -0.27600
N 	N 	0.85320 0.65850 0.65420 -0.20600
N 	N 	0.73310 0.66910 0.34520 -0.10400
N 	N 	0.88050 0.50680 0.36440 -0.11300
N 	N 	0.73920 0.58600 0.53220 -0.15200
N 	N 	0.85200 0.80740 0.32050 -0.19800
C 	C 	0.90520 0.66940 0.61350 -0.02800
C 	C 	0.79400 0.65840 0.37870 -0.04400
C 	C 	0.88910 0.55200 0.39390 -0.04200
C 	C 	0.79630 0.60430 0.49930 -0.04300
C 	C 	0.90470 0.78520 0.35480 -0.03200
Re	Re	0.40490 0.13822 0.44083 0.44800
S 	S 	0.37060 0.23548 0.48836 -0.27400
N 	N 	0.35320 0.15850 0.65420 -0.20800
N 	N 	0.23310 0.16910 0.34520 -0.10600
N 	N 	0.38050 0.00680 0.36440 -0.13100
N 	N 	0.23920 0.08600 0.53220 -0.16000
N 	N 	0.35200 0.30740 0.32050 -0.19900
C 	C 	0.40520 0.16940 0.61350 -0.03000
C 	C 	0.29400 0.15840 0.37870 -0.04700
C 	C 	0.38910 0.05200 0.39390 -0.05200
C 	C 	0.29630 0.10430 0.49930 -0.05100
C 	C 	0.40470 0.28520 0.35480 -0.03100
Re	Re	0.09510 0.36178 0.94083 0.45900
S 	S 	0.12940 0.26452 0.98836 -0.24100
N 	N 	0.14680 0.34150 0.15420 -0.20700
N 	N 	0.26690 0.33090 0.84520 -0.10000
N 	N 	0.11950 0.49320 0.86440 -0.11100
N 	N 	0.26080 0.41400 0.03220 -0.18200
N 	N 	0.14800 0.19260 0.82050 -0.19800
C 	C 	0.09480 0.33060 0.11350 -0.02700
C 	C 	0.20600 0.34160 0.87870 -0.04400
C 	C 	0.11090 0.44800 0.89390 -0.03600
C 	C 	0.20370 0.39570 0.99930 0.00400
C 	C 	0.09530 0.21480 0.85480 -0.03200
Re	Re	0.59510 0.86178 0.94083 0.45800
S 	S 	0.62940 0.76452 0.98836 -0.24100
N 	N 	0.64680 0.84150 0.15420 -0.20500
N 	N 	0.76690 0.83090 0.84520 -0.09800
N 	N 	0.61950 0.99320 0.86440 -0.09300
N 	N 	0.76080 0.91400 0.03220 -0.17000
N 	N 	0.64800 0.69260 0.82050 -0.19800
C 	C 	0.59480 0.83060 0.11350 -0.02200
C 	C 	0.70600 0.84160 0.87870 -0.04100
C 	C 	0.61090 0.94800 0.89390 -0.02500
C 	C 	0.70370 0.89570 0.99930 0.01000
C 	C 	0.59530 0.71480 0.85480 -0.03000
Re	Re	0.09510 0.63822 0.05917 0.43400
S 	S 	0.12940 0.73548 0.01164 -0.30700
N 	N 	0.14680 0.65850 0.84580 -0.20400
N 	N 	0.26690 0.66910 0.15480 -0.10500
N 	N 	0.11950 0.50680 0.13560 -0.11300
N 	N 	0.26080 0.58600 0.96780 -0.12000
N 	N 	0.14800 0.80740 0.17950 -0.19900
C 	C 	0.09480 0.66940 0.88650 -0.02200
C 	C 	0.20600 0.65840 0.12130 -0.04400
C 	C 	0.11090 0.55200 0.10610 -0.04400
C 	C 	0.20370 0.60430 0.00070 -0.08900
C 	C 	0.09530 0.78520 0.14520 -0.02800
Re	Re	0.59510 0.13822 0.05917 0.43500
S 	S 	0.62940 0.23548 0.01164 -0.30900
N 	N 	0.64680 0.15850 0.84580 -0.20600
N 	N 	0.76690 0.16910 0.15480 -0.10800
N 	N 	0.61950 0.00680 0.13560 -0.13200
N 	N 	0.76080 0.08600 0.96780 -0.12800
N 	N 	0.64800 0.30740 0.17950 -0.19900
C 	C 	0.59480 0.16940 0.88650 -0.02700
C 	C 	0.70600 0.15840 0.12130 -0.04700
C 	C 	0.61090 0.05200 0.10610 -0.05600
C 	C 	0.70370 0.10430 0.00070 -0.09900
C 	C 	0.59530 0.28520 0.14520 -0.03100
Re	Re	0.90490 0.36178 0.55917 0.44200
S 	S 	0.87060 0.26452 0.51164 -0.27900
N 	N 	0.85320 0.34150 0.34580 -0.20500
N 	N 	0.73310 0.33090 0.65480 -0.10300
N 	N 	0.88050 0.49320 0.63560 -0.11300
N 	N 	0.73920 0.41400 0.46780 -0.15200
N 	N 	0.85200 0.19260 0.67950 -0.19800
C 	C 	0.90520 0.33060 0.38650 -0.02900
C 	C 	0.79400 0.34160 0.62130 -0.04400
C 	C 	0.88910 0.44800 0.60610 -0.04200
C 	C 	0.79630 0.39570 0.50070 -0.04300
C 	C 	0.90470 0.21480 0.64520 -0.03700
Re	Re	0.40490 0.86178 0.55917 0.44600
S 	S 	0.37060 0.76452 0.51164 -0.27400
N 	N 	0.35320 0.84150 0.34580 -0.20400
N 	N 	0.23310 0.83090 0.65480 -0.10000
N 	N 	0.38050 0.99320 0.63560 -0.09400
N 	N 	0.23920 0.91400 0.46780 -0.14000
N 	N 	0.35200 0.69260 0.67950 -0.19900
C 	C 	0.40520 0.83060 0.38650 -0.01900
C 	C 	0.29400 0.84160 0.62130 -0.04000
C 	C 	0.38910 0.94800 0.60610 -0.02900
C 	C 	0.29630 0.89570 0.50070 -0.03400
C 	C 	0.40470 0.71480 0.64520 -0.03100
Re	Re	-0.00000 0.30712 0.45901 0.44100
Re	Re	-0.00000 0.25294 0.57970 0.44500
S 	S 	-0.00000 0.33973 0.64939 -0.26700
S 	S 	-0.00000 0.41616 0.48322 -0.25500
N 	N 	0.00000 0.18100 0.37460 -0.11400
N 	N 	-0.00000 0.10860 0.53610 -0.21700
C 	C 	-0.00000 0.22400 0.40600 -0.04200
C 	C 	0.00000 0.16070 0.54910 -0.05100
Re	Re	0.50000 0.80712 0.45901 0.43400
Re	Re	0.50000 0.75294 0.57970 0.44000
S 	S 	0.50000 0.83973 0.64939 -0.26800
S 	S 	0.50000 0.91616 0.48322 -0.22900
N 	N 	0.50000 0.68100 0.37460 -0.11100
N 	N 	0.50000 0.60860 0.53610 -0.21100
C 	C 	0.50000 0.72400 0.40600 -0.04300
C 	C 	0.50000 0.66070 0.54910 -0.05000
Re	Re	-0.00000 0.69288 0.95901 0.48100
Re	Re	0.00000 0.74706 0.07970 0.44400
S 	S 	0.00000 0.66027 0.14939 -0.26500
S 	S 	0.00000 0.58384 0.98322 -0.21700
N 	N 	0.00000 0.81900 0.87460 -0.10200
N 	N 	-0.00000 0.89140 0.03610 -0.20300
C 	C 	0.00000 0.77600 0.90600 -0.03200
C 	C 	-0.00000 0.83930 0.04910 -0.05200
Re	Re	0.50000 0.19288 0.95901 0.48200
Re	Re	0.50000 0.24706 0.07970 0.44000
S 	S 	0.50000 0.16027 0.14939 -0.27200
S 	S 	0.50000 0.08384 0.98322 -0.24600
N 	N 	0.50000 0.31900 0.87460 -0.10800
N 	N 	0.50000 0.39140 0.03610 -0.21700
C 	C 	0.50000 0.27600 0.90600 -0.03300
C 	C 	0.50000 0.33930 0.04910 -0.05700
Re	Re	0.00000 0.30712 0.04099 0.39900
Re	Re	-0.00000 0.25294 0.92030 0.44500
S 	S 	-0.00000 0.33973 0.85061 -0.26900
S 	S 	-0.00000 0.41616 0.01678 -0.29400
N 	N 	-0.00000 0.18100 0.12540 -0.11700
N 	N 	0.00000 0.10860 0.96390 -0.20800
C 	C 	0.00000 0.22400 0.09400 -0.05200
C 	C 	-0.00000 0.16070 0.95090 -0.04300
Re	Re	0.50000 0.80712 0.04099 0.39300
Re	Re	0.50000 0.75294 0.92030 0.44100
S 	S 	0.50000 0.83973 0.85061 -0.27000
S 	S 	0.50000 0.91616 0.01678 -0.26800
N 	N 	0.50000 0.68100 0.12540 -0.11400
N 	N 	0.50000 0.60860 0.96390 -0.20200
C 	C 	0.50000 0.72400 0.09400 -0.05200
C 	C 	0.50000 0.66070 0.95090 -0.04200
Re	Re	-0.00000 0.69288 0.54099 0.44100
Re	Re	-0.00000 0.74706 0.42030 0.44400
S 	S 	-0.00000 0.66027 0.35061 -0.26800
S 	S 	0.00000 0.58384 0.51678 -0.25500
N 	N 	0.00000 0.81900 0.62540 -0.10500
N 	N 	-0.00000 0.89140 0.46390 -0.19800
C 	C 	0.00000 0.77600 0.59400 -0.04100
C 	C 	-0.00000 0.83930 0.45090 -0.04500
Re	Re	0.50000 0.19288 0.54099 0.43900
Re	Re	0.50000 0.24706 0.42030 0.44100
S 	S 	0.50000 0.16027 0.35061 -0.27400
S 	S 	0.50000 0.08384 0.51678 -0.28800
N 	N 	0.50000 0.31900 0.62540 -0.11100
N 	N 	0.50000 0.39140 0.46390 -0.21100
C 	C 	0.50000 0.27600 0.59400 -0.04300
C 	C 	0.50000 0.33930 0.45090 -0.05000
Er	Er	0.23821 0.35683 0.25000 1.03500
Er	Er	0.73821 0.85683 0.25000 1.06800
Er	Er	0.76179 0.64317 0.75000 1.03800
Er	Er	0.26179 0.14317 0.75000 1.00900
Er	Er	0.76179 0.35683 0.25000 1.03200
Er	Er	0.26179 0.85683 0.25000 1.07000
Er	Er	0.23821 0.64317 0.75000 1.04100
Er	Er	0.73821 0.14317 0.75000 1.00600
K 	K 	0.40920 0.50000 0.50000 0.59500
K 	K 	0.90920 0.00000 0.50000 0.58200
K 	K 	0.59080 0.50000 -0.00000 0.58800
K 	K 	0.09080 0.00000 -0.00000 0.57600
K 	K 	0.59080 0.50000 0.50000 0.59500
K 	K 	0.09080 0.00000 0.50000 0.58400
K 	K 	0.40920 0.50000 -0.00000 0.58800
K 	K 	0.90920 0.00000 -0.00000 0.57500
