data_crystal

_cell_length_a 14.33890
_cell_length_b 21.23980
_cell_length_c 20.85140
_cell_angle_alpha 90.00000
_cell_angle_beta  90.00000
_cell_angle_gamma 90.00000

_symmetry_space_group_name_	'P 1'
_symmetry_space_group_name_H-M	'P 1'

loop_
_symmetry_equiv_pos_as_xyz
  x,y,z

loop_
_atom_site_label
_atom_site_type_symbol
_atom_site_fract_x
_atom_site_fract_y
_atom_site_fract_z
_atom_site_charge
Re	Re	0.90385 0.63846 0.44140 0.44400
S 	S 	0.86931 0.73685 0.48855 -0.27900
N 	N 	0.85300 0.65740 0.65260 -0.20700
C 	C 	0.90440 0.78690 0.35580 -0.03300
C 	C 	0.90420 0.66900 0.61270 -0.02600
N 	N 	0.85250 0.80850 0.32020 -0.20000
C 	C 	0.88800 0.55120 0.39470 -0.04000
C 	C 	0.79140 0.65940 0.38020 -0.04300
N 	N 	0.73130 0.67030 0.34610 -0.10500
C 	C 	0.79240 0.60280 0.49660 -0.03900
N 	N 	0.88110 0.50590 0.36570 -0.11600
N 	N 	0.73210 0.58210 0.52520 -0.15600
Re	Re	0.40385 0.13846 0.44140 0.45100
S 	S 	0.36931 0.23685 0.48855 -0.27700
N 	N 	0.35300 0.15740 0.65260 -0.21000
C 	C 	0.40440 0.28690 0.35580 -0.03200
C 	C 	0.40420 0.16900 0.61270 -0.02800
N 	N 	0.35250 0.30850 0.32020 -0.20100
C 	C 	0.38800 0.05120 0.39470 -0.05000
C 	C 	0.29140 0.15940 0.38020 -0.04600
N 	N 	0.23130 0.17030 0.34610 -0.10700
C 	C 	0.29240 0.10280 0.49660 -0.04700
N 	N 	0.38110 0.00590 0.36570 -0.13300
N 	N 	0.23210 0.08210 0.52520 -0.16500
Re	Re	0.09615 0.36154 0.94140 0.46300
S 	S 	0.13069 0.26315 0.98855 -0.24400
N 	N 	0.14700 0.34260 0.15260 -0.20900
C 	C 	0.09560 0.21310 0.85580 -0.03300
C 	C 	0.09580 0.33100 0.11270 -0.02400
N 	N 	0.14750 0.19150 0.82020 -0.20000
C 	C 	0.11200 0.44880 0.89470 -0.03300
C 	C 	0.20860 0.34060 0.88020 -0.04300
N 	N 	0.26870 0.32970 0.84610 -0.10200
C 	C 	0.20760 0.39720 0.99660 0.00800
N 	N 	0.11890 0.49410 0.86570 -0.11300
N 	N 	0.26790 0.41790 0.02520 -0.18700
Re	Re	0.59615 0.86154 0.94140 0.46100
S 	S 	0.63069 0.76315 0.98855 -0.24300
N 	N 	0.64700 0.84260 0.15260 -0.20800
C 	C 	0.59560 0.71310 0.85580 -0.03100
C 	C 	0.59580 0.83100 0.11270 -0.01900
N 	N 	0.64750 0.69150 0.82020 -0.20100
C 	C 	0.61200 0.94880 0.89470 -0.02300
C 	C 	0.70860 0.84060 0.88020 -0.04000
N 	N 	0.76870 0.82970 0.84610 -0.10000
C 	C 	0.70760 0.89720 0.99660 0.01400
N 	N 	0.61890 0.99410 0.86570 -0.09500
N 	N 	0.76790 0.91790 0.02520 -0.17400
Re	Re	0.09615 0.63846 0.05860 0.43700
S 	S 	0.13069 0.73685 0.01145 -0.31000
N 	N 	0.14700 0.65740 0.84740 -0.20700
C 	C 	0.09560 0.78690 0.14420 -0.02900
C 	C 	0.09580 0.66900 0.88730 -0.01900
N 	N 	0.14750 0.80850 0.17980 -0.20200
C 	C 	0.11200 0.55120 0.10530 -0.04200
C 	C 	0.20860 0.65940 0.11980 -0.04300
N 	N 	0.26870 0.67030 0.15390 -0.10700
C 	C 	0.20760 0.60280 0.00340 -0.08500
N 	N 	0.11890 0.50590 0.13430 -0.11500
N 	N 	0.26790 0.58210 0.97480 -0.12300
Re	Re	0.59615 0.13846 0.05860 0.43800
S 	S 	0.63069 0.23685 0.01145 -0.31200
N 	N 	0.64700 0.15740 0.84740 -0.20900
C 	C 	0.59560 0.28690 0.14420 -0.03200
C 	C 	0.59580 0.16900 0.88730 -0.02500
N 	N 	0.64750 0.30850 0.17980 -0.20200
C 	C 	0.61200 0.05120 0.10530 -0.05400
C 	C 	0.70860 0.15940 0.11980 -0.04600
N 	N 	0.76870 0.17030 0.15390 -0.11000
C 	C 	0.70760 0.10280 0.00340 -0.09500
N 	N 	0.61890 0.00590 0.13430 -0.13400
N 	N 	0.76790 0.08210 0.97480 -0.13200
Re	Re	0.90385 0.36154 0.55860 0.44400
S 	S 	0.86931 0.26315 0.51145 -0.28300
N 	N 	0.85300 0.34260 0.34740 -0.20800
C 	C 	0.90440 0.21310 0.64420 -0.03900
C 	C 	0.90420 0.33100 0.38730 -0.02700
N 	N 	0.85250 0.19150 0.67980 -0.20100
C 	C 	0.88800 0.44880 0.60530 -0.04000
C 	C 	0.79140 0.34060 0.61980 -0.04300
N 	N 	0.73130 0.32970 0.65390 -0.10400
C 	C 	0.79240 0.39720 0.50340 -0.03900
N 	N 	0.88110 0.49410 0.63430 -0.11600
N 	N 	0.73210 0.41790 0.47480 -0.15600
Re	Re	0.40385 0.86154 0.55860 0.44900
S 	S 	0.36931 0.76315 0.51145 -0.27700
N 	N 	0.35300 0.84260 0.34740 -0.20600
C 	C 	0.40440 0.71310 0.64420 -0.03100
C 	C 	0.40420 0.83100 0.38730 -0.01700
N 	N 	0.35250 0.69150 0.67980 -0.20100
C 	C 	0.38800 0.94880 0.60530 -0.02600
C 	C 	0.29140 0.84060 0.61980 -0.03900
N 	N 	0.23130 0.82970 0.65390 -0.10100
C 	C 	0.29240 0.89720 0.50340 -0.03000
N 	N 	0.38110 0.99410 0.63430 -0.09600
N 	N 	0.23210 0.91790 0.47480 -0.14300
Re	Re	0.09615 0.36154 0.55860 0.45000
S 	S 	0.13069 0.26315 0.51145 -0.27900
N 	N 	0.14700 0.34260 0.34740 -0.20800
C 	C 	0.09560 0.21310 0.64420 -0.03300
C 	C 	0.09580 0.33100 0.38730 -0.02200
N 	N 	0.14750 0.19150 0.67980 -0.20100
C 	C 	0.11200 0.44880 0.60530 -0.03800
C 	C 	0.20860 0.34060 0.61980 -0.04300
N 	N 	0.26870 0.32970 0.65390 -0.10400
C 	C 	0.20760 0.39720 0.50340 -0.03900
N 	N 	0.11890 0.49410 0.63430 -0.11400
N 	N 	0.26790 0.41790 0.47480 -0.15600
Re	Re	0.59615 0.86154 0.55860 0.44800
S 	S 	0.63069 0.76315 0.51145 -0.27700
N 	N 	0.64700 0.84260 0.34740 -0.20600
C 	C 	0.59560 0.71310 0.64420 -0.03200
C 	C 	0.59580 0.83100 0.38730 -0.01700
N 	N 	0.64750 0.69150 0.67980 -0.20100
C 	C 	0.61200 0.94880 0.60530 -0.02700
C 	C 	0.70860 0.84060 0.61980 -0.04000
N 	N 	0.76870 0.82970 0.65390 -0.10200
C 	C 	0.70760 0.89720 0.50340 -0.03000
N 	N 	0.61890 0.99410 0.63430 -0.09600
N 	N 	0.76790 0.91790 0.47480 -0.14400
Re	Re	0.90385 0.63846 0.05860 0.43100
S 	S 	0.86931 0.73685 0.01145 -0.31400
N 	N 	0.85300 0.65740 0.84740 -0.20600
C 	C 	0.90440 0.78690 0.14420 -0.03400
C 	C 	0.90420 0.66900 0.88730 -0.02400
N 	N 	0.85250 0.80850 0.17980 -0.20200
C 	C 	0.88800 0.55120 0.10530 -0.04400
C 	C 	0.79140 0.65940 0.11980 -0.04300
N 	N 	0.73130 0.67030 0.15390 -0.10700
C 	C 	0.79240 0.60280 0.00340 -0.08500
N 	N 	0.88110 0.50590 0.13430 -0.11700
N 	N 	0.73210 0.58210 0.97480 -0.12300
Re	Re	0.40385 0.13846 0.05860 0.43800
S 	S 	0.36931 0.23685 0.01145 -0.31200
N 	N 	0.35300 0.15740 0.84740 -0.20900
C 	C 	0.40440 0.28690 0.14420 -0.03200
C 	C 	0.40420 0.16900 0.88730 -0.02500
N 	N 	0.35250 0.30850 0.17980 -0.20200
C 	C 	0.38800 0.05120 0.10530 -0.05400
C 	C 	0.29140 0.15940 0.11980 -0.04500
N 	N 	0.23130 0.17030 0.15390 -0.10900
C 	C 	0.29240 0.10280 0.00340 -0.09400
N 	N 	0.38110 0.00590 0.13430 -0.13400
N 	N 	0.23210 0.08210 0.97480 -0.13100
Re	Re	0.90385 0.36154 0.94140 0.45600
S 	S 	0.86931 0.26315 0.98855 -0.24700
N 	N 	0.85300 0.34260 0.15260 -0.20900
C 	C 	0.90440 0.21310 0.85580 -0.03800
C 	C 	0.90420 0.33100 0.11270 -0.03000
N 	N 	0.85250 0.19150 0.82020 -0.20000
C 	C 	0.88800 0.44880 0.89470 -0.03600
C 	C 	0.79140 0.34060 0.88020 -0.04300
N 	N 	0.73130 0.32970 0.84610 -0.10200
C 	C 	0.79240 0.39720 0.99660 0.00800
N 	N 	0.88110 0.49410 0.86570 -0.11500
N 	N 	0.73210 0.41790 0.02520 -0.18800
Re	Re	0.40385 0.86154 0.94140 0.46100
S 	S 	0.36931 0.76315 0.98855 -0.24300
N 	N 	0.35300 0.84260 0.15260 -0.20800
C 	C 	0.40440 0.71310 0.85580 -0.03100
C 	C 	0.40420 0.83100 0.11270 -0.01900
N 	N 	0.35250 0.69150 0.82020 -0.20100
C 	C 	0.38800 0.94880 0.89470 -0.02200
C 	C 	0.29140 0.84060 0.88020 -0.04000
N 	N 	0.23130 0.82970 0.84610 -0.09900
C 	C 	0.29240 0.89720 0.99660 0.01400
N 	N 	0.38110 0.99410 0.86570 -0.09500
N 	N 	0.23210 0.91790 0.02520 -0.17300
Re	Re	0.09615 0.63846 0.44140 0.45000
S 	S 	0.13069 0.73685 0.48855 -0.27700
N 	N 	0.14700 0.65740 0.65260 -0.20800
C 	C 	0.09560 0.78690 0.35580 -0.02800
C 	C 	0.09580 0.66900 0.61270 -0.02100
N 	N 	0.14750 0.80850 0.32020 -0.20100
C 	C 	0.11200 0.55120 0.39470 -0.03800
C 	C 	0.20860 0.65940 0.38020 -0.04300
N 	N 	0.26870 0.67030 0.34610 -0.10500
C 	C 	0.20760 0.60280 0.49660 -0.03900
N 	N 	0.11890 0.50590 0.36570 -0.11400
N 	N 	0.26790 0.58210 0.52520 -0.15600
Re	Re	0.59615 0.13846 0.44140 0.45100
S 	S 	0.63069 0.23685 0.48855 -0.27700
N 	N 	0.64700 0.15740 0.65260 -0.21000
C 	C 	0.59560 0.28690 0.35580 -0.03200
C 	C 	0.59580 0.16900 0.61270 -0.02800
N 	N 	0.64750 0.30850 0.32020 -0.20100
C 	C 	0.61200 0.05120 0.39470 -0.05000
C 	C 	0.70860 0.15940 0.38020 -0.04700
N 	N 	0.76870 0.17030 0.34610 -0.10800
C 	C 	0.70760 0.10280 0.49660 -0.04800
N 	N 	0.61890 0.00590 0.36570 -0.13400
N 	N 	0.76790 0.08210 0.52520 -0.16600
Re	Re	0.00000 0.69366 0.54058 0.44300
Re	Re	0.00000 0.74892 0.42127 0.44700
S 	S 	0.00000 0.58398 0.51602 -0.26100
S 	S 	0.00000 0.66116 0.35261 -0.27100
C 	C 	-0.00000 0.77770 0.59380 -0.04300
N 	N 	-0.00000 0.82280 0.62390 -0.10500
C 	C 	-0.00000 0.84240 0.45120 -0.04100
N 	N 	-0.00000 0.89440 0.46390 -0.20600
Re	Re	0.50000 0.19366 0.54058 0.44100
Re	Re	0.50000 0.24892 0.42127 0.44300
S 	S 	0.50000 0.08398 0.51602 -0.29500
S 	S 	0.50000 0.16116 0.35261 -0.27900
C 	C 	0.50000 0.27770 0.59380 -0.04600
N 	N 	0.50000 0.32280 0.62390 -0.11100
C 	C 	0.50000 0.34240 0.45120 -0.04500
N 	N 	0.50000 0.39440 0.46390 -0.22000
Re	Re	-0.00000 0.30634 0.04058 0.40200
Re	Re	-0.00000 0.25109 0.92127 0.44800
S 	S 	-0.00000 0.41602 0.01602 -0.30000
S 	S 	0.00000 0.33884 0.85261 -0.27300
C 	C 	-0.00000 0.22230 0.09380 -0.05400
N 	N 	0.00000 0.17720 0.12390 -0.11800
C 	C 	0.00000 0.15760 0.95120 -0.03900
N 	N 	0.00000 0.10560 0.96390 -0.21800
Re	Re	0.50000 0.80634 0.04058 0.39400
Re	Re	0.50000 0.75109 0.92127 0.44200
S 	S 	0.50000 0.91602 0.01602 -0.27400
S 	S 	0.50000 0.83884 0.85261 -0.27400
C 	C 	0.50000 0.72230 0.09380 -0.05500
N 	N 	0.50000 0.67720 0.12390 -0.11500
C 	C 	0.50000 0.65760 0.95120 -0.03800
N 	N 	0.50000 0.60560 0.96390 -0.21200
Re	Re	0.00000 0.69366 0.95942 0.48300
Re	Re	0.00000 0.74892 0.07873 0.44700
S 	S 	0.00000 0.58398 0.98398 -0.22200
S 	S 	0.00000 0.66116 0.14739 -0.26900
C 	C 	-0.00000 0.77770 0.90620 -0.03400
N 	N 	0.00000 0.82280 0.87610 -0.10200
C 	C 	0.00000 0.84240 0.04880 -0.04800
N 	N 	0.00000 0.89440 0.03610 -0.21100
Re	Re	0.50000 0.19366 0.95942 0.48400
Re	Re	0.50000 0.24892 0.07873 0.44200
S 	S 	0.50000 0.08398 0.98398 -0.25400
S 	S 	0.50000 0.16116 0.14739 -0.27700
C 	C 	0.50000 0.27770 0.90620 -0.03600
N 	N 	0.50000 0.32280 0.87610 -0.10800
C 	C 	0.50000 0.34240 0.04880 -0.05300
N 	N 	0.50000 0.39440 0.03610 -0.22600
Re	Re	-0.00000 0.30634 0.45942 0.44400
Re	Re	0.00000 0.25109 0.57873 0.44800
S 	S 	-0.00000 0.41602 0.48398 -0.26100
S 	S 	-0.00000 0.33884 0.64739 -0.27000
C 	C 	0.00000 0.22230 0.40620 -0.04500
N 	N 	0.00000 0.17720 0.37610 -0.11500
C 	C 	-0.00000 0.15760 0.54880 -0.04600
N 	N 	-0.00000 0.10560 0.53610 -0.22600
Re	Re	0.50000 0.80634 0.45942 0.43500
Re	Re	0.50000 0.75109 0.57873 0.44200
S 	S 	0.50000 0.91602 0.48398 -0.23500
S 	S 	0.50000 0.83884 0.64739 -0.27200
C 	C 	0.50000 0.72230 0.40620 -0.04600
N 	N 	0.50000 0.67720 0.37610 -0.11200
C 	C 	0.50000 0.65760 0.54880 -0.04500
N 	N 	0.50000 0.60560 0.53610 -0.22000
Ho	Ho	0.76280 0.64156 0.75000 1.06100
Ho	Ho	0.26280 0.14156 0.75000 1.03000
Ho	Ho	0.23720 0.35844 0.25000 1.05800
Ho	Ho	0.73720 0.85844 0.25000 1.09300
Ho	Ho	0.23720 0.64156 0.75000 1.06400
Ho	Ho	0.73720 0.14156 0.75000 1.02700
Ho	Ho	0.76280 0.35844 0.25000 1.05500
Ho	Ho	0.26280 0.85844 0.25000 1.09600
K 	K 	0.58466 0.50000 0.50000 0.59500
K 	K 	0.08466 0.00000 0.50000 0.58400
K 	K 	0.41534 0.50000 -0.00000 0.58800
K 	K 	0.91534 0.00000 -0.00000 0.57500
K 	K 	0.41534 0.50000 0.50000 0.59500
K 	K 	0.91534 0.00000 0.50000 0.58200
K 	K 	0.58466 0.50000 -0.00000 0.58800
K 	K 	0.08466 0.00000 -0.00000 0.57700
