data_crystal

_cell_length_a 14.40660
_cell_length_b 21.33300
_cell_length_c 20.63200
_cell_angle_alpha 90.00000
_cell_angle_beta  90.00000
_cell_angle_gamma 90.00000

_symmetry_space_group_name_	'P 1'
_symmetry_space_group_name_H-M	'P 1'

loop_
_symmetry_equiv_pos_as_xyz
  x,y,z

loop_
_atom_site_label
_atom_site_type_symbol
_atom_site_fract_x
_atom_site_fract_y
_atom_site_fract_z
_atom_site_charge
Re	Re	0.90421 0.63882 0.44122 0.44200
S 	S 	0.86964 0.73725 0.48888 -0.27200
N 	N 	0.14850 0.80890 0.31950 -0.18300
C 	C 	0.09610 0.78650 0.35470 -0.03100
N 	N 	0.35210 0.84140 0.15350 -0.18800
C 	C 	0.09550 0.66930 0.61420 -0.02300
C 	C 	0.88810 0.55140 0.39400 -0.03700
C 	C 	0.79430 0.60450 0.49880 -0.03900
C 	C 	0.79190 0.65920 0.37940 -0.04100
N 	N 	0.88100 0.50620 0.36510 -0.11000
N 	N 	0.73520 0.58470 0.52930 -0.15000
N 	N 	0.73110 0.67040 0.34590 -0.10000
Re	Re	0.40421 0.13882 0.44122 0.44700
S 	S 	0.36964 0.23725 0.48888 -0.27100
N 	N 	0.64850 0.30890 0.31950 -0.18500
C 	C 	0.59610 0.28650 0.35470 -0.03400
N 	N 	0.85210 0.34140 0.15350 -0.19200
C 	C 	0.59550 0.16930 0.61420 -0.02900
C 	C 	0.38810 0.05140 0.39400 -0.04700
C 	C 	0.29430 0.10450 0.49880 -0.04800
C 	C 	0.29190 0.15920 0.37940 -0.04400
N 	N 	0.38100 0.00620 0.36510 -0.12700
N 	N 	0.23520 0.08470 0.52930 -0.15900
N 	N 	0.23110 0.17040 0.34590 -0.10200
Re	Re	0.09579 0.36118 0.94122 0.45900
S 	S 	0.13036 0.26275 0.98888 -0.23700
N 	N 	0.85150 0.19110 0.81950 -0.18500
C 	C 	0.90390 0.21350 0.85470 -0.03900
N 	N 	0.64790 0.15860 0.65350 -0.19400
C 	C 	0.90450 0.33070 0.11420 -0.03000
C 	C 	0.11190 0.44860 0.89400 -0.03100
C 	C 	0.20570 0.39550 0.99880 0.00800
C 	C 	0.20810 0.34080 0.87940 -0.04100
N 	N 	0.11900 0.49380 0.86510 -0.10800
N 	N 	0.26480 0.41530 0.02930 -0.18100
N 	N 	0.26890 0.32960 0.84590 -0.09700
Re	Re	0.59579 0.86118 0.94122 0.45700
S 	S 	0.63036 0.76275 0.98888 -0.23700
N 	N 	0.35150 0.69110 0.81950 -0.18400
C 	C 	0.40390 0.71350 0.85470 -0.03400
N 	N 	0.14790 0.65860 0.65350 -0.19000
C 	C 	0.40450 0.83070 0.11420 -0.02000
C 	C 	0.61190 0.94860 0.89400 -0.02000
C 	C 	0.70570 0.89550 0.99880 0.01400
C 	C 	0.70810 0.84080 0.87940 -0.03800
N 	N 	0.61900 0.99380 0.86510 -0.09000
N 	N 	0.76480 0.91530 0.02930 -0.16800
N 	N 	0.76890 0.82960 0.84590 -0.09500
Re	Re	0.09579 0.63882 0.05878 0.43300
S 	S 	0.13036 0.73725 0.01112 -0.30400
N 	N 	0.85150 0.80890 0.18050 -0.18300
C 	C 	0.90390 0.78650 0.14530 -0.03500
N 	N 	0.64790 0.84140 0.34650 -0.18700
C 	C 	0.90450 0.66930 0.88580 -0.02400
C 	C 	0.11190 0.55140 0.10600 -0.04000
C 	C 	0.20570 0.60450 0.00120 -0.08600
C 	C 	0.20810 0.65920 0.12060 -0.04100
N 	N 	0.11900 0.50620 0.13490 -0.11000
N 	N 	0.26480 0.58470 0.97070 -0.11800
N 	N 	0.26890 0.67040 0.15410 -0.10200
Re	Re	0.59579 0.13882 0.05878 0.43400
S 	S 	0.63036 0.23725 0.01112 -0.30600
N 	N 	0.35150 0.30890 0.18050 -0.18500
C 	C 	0.40390 0.28650 0.14530 -0.03400
N 	N 	0.14790 0.34140 0.34650 -0.19000
C 	C 	0.40450 0.16930 0.88580 -0.02700
C 	C 	0.61190 0.05140 0.10600 -0.05200
C 	C 	0.70570 0.10450 0.00120 -0.09600
C 	C 	0.70810 0.15920 0.12060 -0.04400
N 	N 	0.61900 0.00620 0.13490 -0.12800
N 	N 	0.76480 0.08470 0.97070 -0.12600
N 	N 	0.76890 0.17040 0.15410 -0.10500
Re	Re	0.90421 0.36118 0.55878 0.44200
S 	S 	0.86964 0.26275 0.51112 -0.27500
N 	N 	0.14850 0.19110 0.68050 -0.18600
C 	C 	0.09610 0.21350 0.64530 -0.03600
N 	N 	0.35210 0.15860 0.84650 -0.19200
C 	C 	0.09550 0.33070 0.38580 -0.02400
C 	C 	0.88810 0.44860 0.60600 -0.03700
C 	C 	0.79430 0.39550 0.50120 -0.03900
C 	C 	0.79190 0.34080 0.62060 -0.04100
N 	N 	0.88100 0.49380 0.63490 -0.11000
N 	N 	0.73520 0.41530 0.47070 -0.15000
N 	N 	0.73110 0.32960 0.65410 -0.09900
Re	Re	0.40421 0.86118 0.55878 0.44500
S 	S 	0.36964 0.76275 0.51112 -0.27100
N 	N 	0.64850 0.69110 0.68050 -0.18400
C 	C 	0.59610 0.71350 0.64530 -0.03400
N 	N 	0.85210 0.65860 0.84650 -0.18900
C 	C 	0.59550 0.83070 0.38580 -0.01800
C 	C 	0.38810 0.94860 0.60600 -0.02400
C 	C 	0.29430 0.89550 0.50120 -0.03000
C 	C 	0.29190 0.84080 0.62060 -0.03700
N 	N 	0.38100 0.99380 0.63490 -0.09000
N 	N 	0.23520 0.91530 0.47070 -0.13700
N 	N 	0.23110 0.82960 0.65410 -0.09600
Re	Re	0.09579 0.36118 0.55878 0.44600
S 	S 	0.13036 0.26275 0.51112 -0.27200
N 	N 	0.85150 0.19110 0.68050 -0.18600
C 	C 	0.90390 0.21350 0.64530 -0.04000
N 	N 	0.64790 0.15860 0.84650 -0.19300
C 	C 	0.90450 0.33070 0.38580 -0.02700
C 	C 	0.11190 0.44860 0.60600 -0.03500
C 	C 	0.20570 0.39550 0.50120 -0.03900
C 	C 	0.20810 0.34080 0.62060 -0.04100
N 	N 	0.11900 0.49380 0.63490 -0.10900
N 	N 	0.26480 0.41530 0.47070 -0.15000
N 	N 	0.26890 0.32960 0.65410 -0.09900
Re	Re	0.59579 0.86118 0.55878 0.44500
S 	S 	0.63036 0.76275 0.51112 -0.27100
N 	N 	0.35150 0.69110 0.68050 -0.18400
C 	C 	0.40390 0.71350 0.64530 -0.03400
N 	N 	0.14790 0.65860 0.84650 -0.18900
C 	C 	0.40450 0.83070 0.38580 -0.01800
C 	C 	0.61190 0.94860 0.60600 -0.02400
C 	C 	0.70570 0.89550 0.50120 -0.03000
C 	C 	0.70810 0.84080 0.62060 -0.03700
N 	N 	0.61900 0.99380 0.63490 -0.09000
N 	N 	0.76480 0.91530 0.47070 -0.13800
N 	N 	0.76890 0.82960 0.65410 -0.09700
Re	Re	0.90421 0.63882 0.05878 0.42900
S 	S 	0.86964 0.73725 0.01112 -0.30600
N 	N 	0.14850 0.80890 0.18050 -0.18300
C 	C 	0.09610 0.78650 0.14530 -0.03100
N 	N 	0.35210 0.84140 0.34650 -0.18700
C 	C 	0.09550 0.66930 0.88580 -0.02100
C 	C 	0.88810 0.55140 0.10600 -0.04200
C 	C 	0.79430 0.60450 0.00120 -0.08600
C 	C 	0.79190 0.65920 0.12060 -0.04000
N 	N 	0.88100 0.50620 0.13490 -0.11100
N 	N 	0.73520 0.58470 0.97070 -0.11800
N 	N 	0.73110 0.67040 0.15410 -0.10200
Re	Re	0.40421 0.13882 0.05878 0.43400
S 	S 	0.36964 0.23725 0.01112 -0.30600
N 	N 	0.64850 0.30890 0.18050 -0.18500
C 	C 	0.59610 0.28650 0.14530 -0.03400
N 	N 	0.85210 0.34140 0.34650 -0.19000
C 	C 	0.59550 0.16930 0.88580 -0.02700
C 	C 	0.38810 0.05140 0.10600 -0.05100
C 	C 	0.29430 0.10450 0.00120 -0.09500
C 	C 	0.29190 0.15920 0.12060 -0.04300
N 	N 	0.38100 0.00620 0.13490 -0.12800
N 	N 	0.23520 0.08470 0.97070 -0.12600
N 	N 	0.23110 0.17040 0.15410 -0.10400
Re	Re	0.90421 0.36118 0.94122 0.45500
S 	S 	0.86964 0.26275 0.98888 -0.23900
N 	N 	0.14850 0.19110 0.81950 -0.18500
C 	C 	0.09610 0.21350 0.85470 -0.03600
N 	N 	0.35210 0.15860 0.65350 -0.19400
C 	C 	0.09550 0.33070 0.11420 -0.02600
C 	C 	0.88810 0.44860 0.89400 -0.03300
C 	C 	0.79430 0.39550 0.99880 0.00900
C 	C 	0.79190 0.34080 0.87940 -0.04100
N 	N 	0.88100 0.49380 0.86510 -0.10900
N 	N 	0.73520 0.41530 0.02930 -0.18200
N 	N 	0.73110 0.32960 0.84590 -0.09700
Re	Re	0.40421 0.86118 0.94122 0.45700
S 	S 	0.36964 0.76275 0.98888 -0.23700
N 	N 	0.64850 0.69110 0.81950 -0.18400
C 	C 	0.59610 0.71350 0.85470 -0.03400
N 	N 	0.85210 0.65860 0.65350 -0.19000
C 	C 	0.59550 0.83070 0.11420 -0.02000
C 	C 	0.38810 0.94860 0.89400 -0.02000
C 	C 	0.29430 0.89550 0.99880 0.01400
C 	C 	0.29190 0.84080 0.87940 -0.03700
N 	N 	0.38100 0.99380 0.86510 -0.09000
N 	N 	0.23520 0.91530 0.02930 -0.16700
N 	N 	0.23110 0.82960 0.84590 -0.09400
Re	Re	0.09579 0.63882 0.44122 0.44600
S 	S 	0.13036 0.73725 0.48888 -0.27000
N 	N 	0.85150 0.80890 0.31950 -0.18300
C 	C 	0.90390 0.78650 0.35470 -0.03400
N 	N 	0.64790 0.84140 0.15350 -0.18800
C 	C 	0.90450 0.66930 0.61420 -0.02600
C 	C 	0.11190 0.55140 0.39400 -0.03600
C 	C 	0.20570 0.60450 0.49880 -0.04000
C 	C 	0.20810 0.65920 0.37940 -0.04100
N 	N 	0.11900 0.50620 0.36510 -0.10900
N 	N 	0.26480 0.58470 0.52930 -0.15000
N 	N 	0.26890 0.67040 0.34590 -0.10000
Re	Re	0.59579 0.13882 0.44122 0.44700
S 	S 	0.63036 0.23725 0.48888 -0.27100
N 	N 	0.35150 0.30890 0.31950 -0.18500
C 	C 	0.40390 0.28650 0.35470 -0.03400
N 	N 	0.14790 0.34140 0.15350 -0.19200
C 	C 	0.40450 0.16930 0.61420 -0.02900
C 	C 	0.61190 0.05140 0.39400 -0.04700
C 	C 	0.70570 0.10450 0.49880 -0.04800
C 	C 	0.70810 0.15920 0.37940 -0.04400
N 	N 	0.61900 0.00620 0.36510 -0.12800
N 	N 	0.76480 0.08470 0.52930 -0.16000
N 	N 	0.76890 0.17040 0.34590 -0.10300
Re	Re	0.00000 0.74893 0.42061 0.44600
Re	Re	-0.00000 0.69402 0.54139 0.44000
S 	S 	-0.00000 0.66123 0.35119 -0.26500
S 	S 	-0.00000 0.58396 0.51719 -0.25400
C 	C 	-0.00000 0.84210 0.45160 -0.04000
C 	C 	0.00000 0.77800 0.59510 -0.03800
N 	N 	-0.00000 0.82300 0.62510 -0.10200
N 	N 	-0.00000 0.89460 0.46510 -0.20200
Re	Re	0.50000 0.24893 0.42061 0.44300
Re	Re	0.50000 0.19402 0.54139 0.43900
S 	S 	0.50000 0.16123 0.35119 -0.27200
S 	S 	0.50000 0.08396 0.51719 -0.28800
C 	C 	0.50000 0.34210 0.45160 -0.04500
C 	C 	0.50000 0.27800 0.59510 -0.04000
N 	N 	0.50000 0.32300 0.62510 -0.10800
N 	N 	0.50000 0.39460 0.46510 -0.21700
Re	Re	0.00000 0.25107 0.92061 0.44700
Re	Re	0.00000 0.30598 0.04139 0.39800
S 	S 	0.00000 0.33877 0.85119 -0.26700
S 	S 	0.00000 0.41604 0.01719 -0.29300
C 	C 	-0.00000 0.15790 0.95160 -0.03900
C 	C 	0.00000 0.22200 0.09510 -0.04900
N 	N 	0.00000 0.17700 0.12510 -0.11500
N 	N 	0.00000 0.10540 0.96510 -0.21400
Re	Re	0.50000 0.75107 0.92061 0.44300
Re	Re	0.50000 0.80598 0.04139 0.39300
S 	S 	0.50000 0.83877 0.85119 -0.26700
S 	S 	0.50000 0.91604 0.01719 -0.26400
C 	C 	0.50000 0.65790 0.95160 -0.03700
C 	C 	0.50000 0.72200 0.09510 -0.04900
N 	N 	0.50000 0.67700 0.12510 -0.11200
N 	N 	0.50000 0.60540 0.96510 -0.20800
Re	Re	0.00000 0.74893 0.07939 0.44600
Re	Re	0.00000 0.69402 0.95861 0.48100
S 	S 	-0.00000 0.66123 0.14881 -0.26300
S 	S 	-0.00000 0.58396 0.98281 -0.21500
C 	C 	-0.00000 0.84210 0.04840 -0.04700
C 	C 	0.00000 0.77800 0.90490 -0.02900
N 	N 	-0.00000 0.82300 0.87490 -0.09900
N 	N 	-0.00000 0.89460 0.03490 -0.20800
Re	Re	0.50000 0.24893 0.07939 0.44300
Re	Re	0.50000 0.19402 0.95861 0.48300
S 	S 	0.50000 0.16123 0.14881 -0.27000
S 	S 	0.50000 0.08396 0.98281 -0.24600
C 	C 	0.50000 0.34210 0.04840 -0.05200
C 	C 	0.50000 0.27800 0.90490 -0.03100
N 	N 	0.50000 0.32300 0.87490 -0.10500
N 	N 	0.50000 0.39460 0.03490 -0.22200
Re	Re	0.00000 0.25107 0.57939 0.44600
Re	Re	-0.00000 0.30598 0.45861 0.44100
S 	S 	-0.00000 0.33877 0.64881 -0.26500
S 	S 	0.00000 0.41604 0.48281 -0.25400
C 	C 	-0.00000 0.15790 0.54840 -0.04600
C 	C 	-0.00000 0.22200 0.40490 -0.04000
N 	N 	0.00000 0.17700 0.37490 -0.11300
N 	N 	0.00000 0.10540 0.53490 -0.22300
Re	Re	0.50000 0.75107 0.57939 0.44200
Re	Re	0.50000 0.80598 0.45861 0.43400
S 	S 	0.50000 0.83877 0.64881 -0.26500
S 	S 	0.50000 0.91604 0.48281 -0.22600
C 	C 	0.50000 0.65790 0.54840 -0.04500
C 	C 	0.50000 0.72200 0.40490 -0.04000
N 	N 	0.50000 0.67700 0.37490 -0.10900
N 	N 	0.50000 0.60540 0.53490 -0.21700
Lu	Lu	0.26261 0.85730 0.25000 0.94200
Lu	Lu	0.76261 0.35730 0.25000 0.92100
Lu	Lu	0.73739 0.14270 0.75000 0.90500
Lu	Lu	0.23739 0.64270 0.75000 0.92500
Lu	Lu	0.73739 0.85730 0.25000 0.94100
Lu	Lu	0.23739 0.35730 0.25000 0.92200
Lu	Lu	0.26261 0.14270 0.75000 0.90600
Lu	Lu	0.76261 0.64270 0.75000 0.92400
K 	K 	0.58758 0.50000 0.50000 0.59800
K 	K 	0.08758 0.00000 0.50000 0.58600
K 	K 	0.41242 0.50000 -0.00000 0.59100
K 	K 	0.91242 0.00000 -0.00000 0.57800
K 	K 	0.41242 0.50000 0.50000 0.59800
K 	K 	0.91242 0.00000 0.50000 0.58500
K 	K 	0.58758 0.50000 -0.00000 0.59100
K 	K 	0.08758 0.00000 -0.00000 0.57900
