data_crystal

_cell_length_a 14.47510
_cell_length_b 21.35540
_cell_length_c 20.61140
_cell_angle_alpha 90.00000
_cell_angle_beta  90.00000
_cell_angle_gamma 90.00000

_symmetry_space_group_name_	'P 1'
_symmetry_space_group_name_H-M	'P 1'

loop_
_symmetry_equiv_pos_as_xyz
  x,y,z

loop_
_atom_site_label
_atom_site_type_symbol
_atom_site_fract_x
_atom_site_fract_y
_atom_site_fract_z
_atom_site_charge
Re	Re	0.90469 0.63940 0.44130 0.43600
S 	S 	0.86969 0.73790 0.48913 -0.27900
N 	N 	0.85220 0.65840 0.65390 -0.25300
N 	N 	0.73720 0.58610 0.53100 -0.16100
N 	N 	0.88140 0.50740 0.36520 -0.12700
N 	N 	0.73210 0.67030 0.34590 -0.11000
N 	N 	0.85090 0.80920 0.32020 -0.24000
C 	C 	0.90400 0.67030 0.61430 -0.03400
C 	C 	0.79530 0.60450 0.49910 -0.04400
C 	C 	0.88780 0.55200 0.39400 -0.04100
C 	C 	0.79340 0.65920 0.37980 -0.05100
C 	C 	0.90450 0.78770 0.35470 -0.03900
Re	Re	0.40469 0.13940 0.44130 0.44800
S 	S 	0.36969 0.23790 0.48913 -0.27400
N 	N 	0.35220 0.15840 0.65390 -0.25800
N 	N 	0.23720 0.08610 0.53100 -0.16800
N 	N 	0.38140 0.00740 0.36520 -0.14300
N 	N 	0.23210 0.17030 0.34590 -0.11200
N 	N 	0.35090 0.30920 0.32020 -0.24400
C 	C 	0.40400 0.17030 0.61430 -0.03300
C 	C 	0.29530 0.10450 0.49910 -0.05300
C 	C 	0.38780 0.05200 0.39400 -0.04900
C 	C 	0.29340 0.15920 0.37980 -0.05400
C 	C 	0.40450 0.28770 0.35470 -0.03600
Re	Re	0.09531 0.36060 0.94130 0.45900
S 	S 	0.13031 0.26210 0.98913 -0.24100
N 	N 	0.14780 0.34160 0.15390 -0.25400
N 	N 	0.26280 0.41390 0.03100 -0.19000
N 	N 	0.11860 0.49260 0.86520 -0.12400
N 	N 	0.26790 0.32970 0.84590 -0.10800
N 	N 	0.14910 0.19080 0.82020 -0.24500
C 	C 	0.09600 0.32970 0.11430 -0.03000
C 	C 	0.20470 0.39550 0.99910 0.00300
C 	C 	0.11220 0.44800 0.89400 -0.03300
C 	C 	0.20660 0.34080 0.87980 -0.05100
C 	C 	0.09550 0.21230 0.85470 -0.03700
Re	Re	0.59531 0.86060 0.94130 0.45700
S 	S 	0.63031 0.76210 0.98913 -0.24000
N 	N 	0.64780 0.84160 0.15390 -0.24900
N 	N 	0.76280 0.91390 0.03100 -0.17800
N 	N 	0.61860 0.99260 0.86520 -0.10700
N 	N 	0.76790 0.82970 0.84590 -0.10600
N 	N 	0.64910 0.69080 0.82020 -0.24300
C 	C 	0.59600 0.82970 0.11430 -0.02500
C 	C 	0.70470 0.89550 0.99910 0.01000
C 	C 	0.61220 0.94800 0.89400 -0.02300
C 	C 	0.70660 0.84080 0.87980 -0.04800
C 	C 	0.59550 0.71230 0.85470 -0.03500
Re	Re	0.09531 0.63940 0.05870 0.43300
S 	S 	0.13031 0.73790 0.01087 -0.30700
N 	N 	0.14780 0.65840 0.84610 -0.25100
N 	N 	0.26280 0.58610 0.96900 -0.12700
N 	N 	0.11860 0.50740 0.13480 -0.12600
N 	N 	0.26790 0.67030 0.15410 -0.11200
N 	N 	0.14910 0.80920 0.17980 -0.24100
C 	C 	0.09600 0.67030 0.88570 -0.02400
C 	C 	0.20470 0.60450 0.00090 -0.09100
C 	C 	0.11220 0.55200 0.10600 -0.04200
C 	C 	0.20660 0.65920 0.12020 -0.05000
C 	C 	0.09550 0.78770 0.14530 -0.03200
Re	Re	0.59531 0.13940 0.05870 0.43400
S 	S 	0.63031 0.23790 0.01087 -0.30900
N 	N 	0.64780 0.15840 0.84610 -0.25600
N 	N 	0.76280 0.08610 0.96900 -0.13600
N 	N 	0.61860 0.00740 0.13480 -0.14400
N 	N 	0.76790 0.17030 0.15410 -0.11600
N 	N 	0.64910 0.30920 0.17980 -0.24400
C 	C 	0.59600 0.17030 0.88570 -0.03000
C 	C 	0.70470 0.10450 0.00090 -0.10100
C 	C 	0.61220 0.05200 0.10600 -0.05400
C 	C 	0.70660 0.15920 0.12020 -0.05400
C 	C 	0.59550 0.28770 0.14530 -0.03600
Re	Re	0.90469 0.36060 0.55870 0.43800
S 	S 	0.86969 0.26210 0.51087 -0.28100
N 	N 	0.85220 0.34160 0.34610 -0.25300
N 	N 	0.73720 0.41390 0.46900 -0.16000
N 	N 	0.88140 0.49260 0.63480 -0.12700
N 	N 	0.73210 0.32970 0.65410 -0.11000
N 	N 	0.85090 0.19080 0.67980 -0.24500
C 	C 	0.90400 0.32970 0.38570 -0.03400
C 	C 	0.79530 0.39550 0.50090 -0.04400
C 	C 	0.88780 0.44800 0.60600 -0.04100
C 	C 	0.79340 0.34080 0.62020 -0.05100
C 	C 	0.90450 0.21230 0.64530 -0.04500
Re	Re	0.40469 0.86060 0.55870 0.44500
S 	S 	0.36969 0.76210 0.51087 -0.27300
N 	N 	0.35220 0.84160 0.34610 -0.24800
N 	N 	0.23720 0.91390 0.46900 -0.14700
N 	N 	0.38140 0.99260 0.63480 -0.10700
N 	N 	0.23210 0.82970 0.65410 -0.10600
N 	N 	0.35090 0.69080 0.67980 -0.24300
C 	C 	0.40400 0.82970 0.38570 -0.02200
C 	C 	0.29530 0.89550 0.50090 -0.03400
C 	C 	0.38780 0.94800 0.60600 -0.02700
C 	C 	0.29340 0.84080 0.62020 -0.04700
C 	C 	0.40450 0.71230 0.64530 -0.03600
Re	Re	0.09531 0.36060 0.55870 0.44600
S 	S 	0.13031 0.26210 0.51087 -0.27600
N 	N 	0.14780 0.34160 0.34610 -0.25300
N 	N 	0.26280 0.41390 0.46900 -0.15900
N 	N 	0.11860 0.49260 0.63480 -0.12500
N 	N 	0.26790 0.32970 0.65410 -0.11000
N 	N 	0.14910 0.19080 0.67980 -0.24500
C 	C 	0.09600 0.32970 0.38570 -0.02700
C 	C 	0.20470 0.39550 0.50090 -0.04400
C 	C 	0.11220 0.44800 0.60600 -0.03800
C 	C 	0.20660 0.34080 0.62020 -0.05100
C 	C 	0.09550 0.21230 0.64530 -0.03800
Re	Re	0.59531 0.86060 0.55870 0.44500
S 	S 	0.63031 0.76210 0.51087 -0.27300
N 	N 	0.64780 0.84160 0.34610 -0.24800
N 	N 	0.76280 0.91390 0.46900 -0.14800
N 	N 	0.61860 0.99260 0.63480 -0.10700
N 	N 	0.76790 0.82970 0.65410 -0.10800
N 	N 	0.64910 0.69080 0.67980 -0.24300
C 	C 	0.59600 0.82970 0.38570 -0.02200
C 	C 	0.70470 0.89550 0.50090 -0.03500
C 	C 	0.61220 0.94800 0.60600 -0.02700
C 	C 	0.70660 0.84080 0.62020 -0.04800
C 	C 	0.59550 0.71230 0.64530 -0.03600
Re	Re	0.90469 0.63940 0.05870 0.42500
S 	S 	0.86969 0.73790 0.01087 -0.31200
N 	N 	0.85220 0.65840 0.84610 -0.25100
N 	N 	0.73720 0.58610 0.96900 -0.12700
N 	N 	0.88140 0.50740 0.13480 -0.12800
N 	N 	0.73210 0.67030 0.15410 -0.11200
N 	N 	0.85090 0.80920 0.17980 -0.24100
C 	C 	0.90400 0.67030 0.88570 -0.03100
C 	C 	0.79530 0.60450 0.00090 -0.09100
C 	C 	0.88780 0.55200 0.10600 -0.04500
C 	C 	0.79340 0.65920 0.12020 -0.05000
C 	C 	0.90450 0.78770 0.14530 -0.03900
Re	Re	0.40469 0.13940 0.05870 0.43400
S 	S 	0.36969 0.23790 0.01087 -0.30900
N 	N 	0.35220 0.15840 0.84610 -0.25600
N 	N 	0.23720 0.08610 0.96900 -0.13500
N 	N 	0.38140 0.00740 0.13480 -0.14400
N 	N 	0.23210 0.17030 0.15410 -0.11400
N 	N 	0.35090 0.30920 0.17980 -0.24400
C 	C 	0.40400 0.17030 0.88570 -0.03000
C 	C 	0.29530 0.10450 0.00090 -0.10000
C 	C 	0.38780 0.05200 0.10600 -0.05400
C 	C 	0.29340 0.15920 0.12020 -0.05300
C 	C 	0.40450 0.28770 0.14530 -0.03600
Re	Re	0.90469 0.36060 0.94130 0.45100
S 	S 	0.86969 0.26210 0.98913 -0.24500
N 	N 	0.85220 0.34160 0.15390 -0.25400
N 	N 	0.73720 0.41390 0.03100 -0.19100
N 	N 	0.88140 0.49260 0.86520 -0.12600
N 	N 	0.73210 0.32970 0.84590 -0.10800
N 	N 	0.85090 0.19080 0.82020 -0.24500
C 	C 	0.90400 0.32970 0.11430 -0.03700
C 	C 	0.79530 0.39550 0.99910 0.00400
C 	C 	0.88780 0.44800 0.89400 -0.03600
C 	C 	0.79340 0.34080 0.87980 -0.05100
C 	C 	0.90450 0.21230 0.85470 -0.04400
Re	Re	0.40469 0.86060 0.94130 0.45700
S 	S 	0.36969 0.76210 0.98913 -0.24000
N 	N 	0.35220 0.84160 0.15390 -0.24900
N 	N 	0.23720 0.91390 0.03100 -0.17700
N 	N 	0.38140 0.99260 0.86520 -0.10600
N 	N 	0.23210 0.82970 0.84590 -0.10400
N 	N 	0.35090 0.69080 0.82020 -0.24200
C 	C 	0.40400 0.82970 0.11430 -0.02500
C 	C 	0.29530 0.89550 0.99910 0.01000
C 	C 	0.38780 0.94800 0.89400 -0.02200
C 	C 	0.29340 0.84080 0.87980 -0.04700
C 	C 	0.40450 0.71230 0.85470 -0.03500
Re	Re	0.09531 0.63940 0.44130 0.44600
S 	S 	0.13031 0.73790 0.48913 -0.27400
N 	N 	0.14780 0.65840 0.65390 -0.25200
N 	N 	0.26280 0.58610 0.53100 -0.15900
N 	N 	0.11860 0.50740 0.36520 -0.12500
N 	N 	0.26790 0.67030 0.34590 -0.11000
N 	N 	0.14910 0.80920 0.32020 -0.24000
C 	C 	0.09600 0.67030 0.61430 -0.02700
C 	C 	0.20470 0.60450 0.49910 -0.04400
C 	C 	0.11220 0.55200 0.39400 -0.03800
C 	C 	0.20660 0.65920 0.37980 -0.05100
C 	C 	0.09550 0.78770 0.35470 -0.03200
Re	Re	0.59531 0.13940 0.44130 0.44800
S 	S 	0.63031 0.23790 0.48913 -0.27400
N 	N 	0.64780 0.15840 0.65390 -0.25800
N 	N 	0.76280 0.08610 0.53100 -0.17000
N 	N 	0.61860 0.00740 0.36520 -0.14400
N 	N 	0.76790 0.17030 0.34590 -0.11400
N 	N 	0.64910 0.30920 0.32020 -0.24400
C 	C 	0.59600 0.17030 0.61430 -0.03300
C 	C 	0.70470 0.10450 0.49910 -0.05300
C 	C 	0.61220 0.05200 0.39400 -0.05000
C 	C 	0.70660 0.15920 0.37980 -0.05400
C 	C 	0.59550 0.28770 0.35470 -0.03600
Re	Re	-0.00000 0.69443 0.54158 0.43700
Re	Re	0.00000 0.74933 0.42075 0.44100
S 	S 	0.00000 0.58477 0.51731 -0.26000
S 	S 	-0.00000 0.66168 0.35081 -0.27000
N 	N 	-0.00000 0.82180 0.62670 -0.11100
N 	N 	0.00000 0.89450 0.46540 -0.20700
C 	C 	-0.00000 0.77890 0.59570 -0.04000
C 	C 	0.00000 0.84350 0.45150 -0.04100
Re	Re	0.50000 0.19443 0.54158 0.43300
Re	Re	0.50000 0.24933 0.42075 0.43500
S 	S 	0.50000 0.08477 0.51731 -0.29600
S 	S 	0.50000 0.16168 0.35081 -0.27900
N 	N 	0.50000 0.32180 0.62670 -0.11800
N 	N 	0.50000 0.39450 0.46540 -0.22200
C 	C 	0.50000 0.27890 0.59570 -0.04400
C 	C 	0.50000 0.34350 0.45150 -0.04700
Re	Re	0.00000 0.30557 0.04158 0.39500
Re	Re	0.00000 0.25067 0.92075 0.44200
S 	S 	-0.00000 0.41523 0.01731 -0.29900
S 	S 	0.00000 0.33832 0.85081 -0.27200
N 	N 	0.00000 0.17820 0.12670 -0.12300
N 	N 	0.00000 0.10550 0.96540 -0.21900
C 	C 	0.00000 0.22110 0.09570 -0.05200
C 	C 	-0.00000 0.15650 0.95150 -0.04000
Re	Re	0.50000 0.80557 0.04158 0.38700
Re	Re	0.50000 0.75067 0.92075 0.43500
S 	S 	0.50000 0.91523 0.01731 -0.27400
S 	S 	0.50000 0.83832 0.85081 -0.27500
N 	N 	0.50000 0.67820 0.12670 -0.12000
N 	N 	0.50000 0.60550 0.96540 -0.21300
C 	C 	0.50000 0.72110 0.09570 -0.05300
C 	C 	0.50000 0.65650 0.95150 -0.03900
Re	Re	-0.00000 0.69443 0.95842 0.47800
Re	Re	0.00000 0.74933 0.07925 0.44100
S 	S 	0.00000 0.58477 0.98269 -0.22100
S 	S 	-0.00000 0.66168 0.14919 -0.26800
N 	N 	0.00000 0.82180 0.87330 -0.10900
N 	N 	0.00000 0.89450 0.03460 -0.21200
C 	C 	0.00000 0.77890 0.90430 -0.03100
C 	C 	0.00000 0.84350 0.04850 -0.04800
Re	Re	0.50000 0.19443 0.95842 0.47600
Re	Re	0.50000 0.24933 0.07925 0.43400
S 	S 	0.50000 0.08477 0.98269 -0.25500
S 	S 	0.50000 0.16168 0.14919 -0.27700
N 	N 	0.50000 0.32180 0.87330 -0.11500
N 	N 	0.50000 0.39450 0.03460 -0.22800
C 	C 	0.50000 0.27890 0.90430 -0.03500
C 	C 	0.50000 0.34350 0.04850 -0.05400
Re	Re	0.00000 0.30557 0.45842 0.43800
Re	Re	0.00000 0.25067 0.57925 0.44100
S 	S 	-0.00000 0.41523 0.48269 -0.26000
S 	S 	-0.00000 0.33832 0.64919 -0.27000
N 	N 	-0.00000 0.17820 0.37330 -0.12100
N 	N 	0.00000 0.10550 0.53460 -0.22800
C 	C 	0.00000 0.22110 0.40430 -0.04200
C 	C 	0.00000 0.15650 0.54850 -0.04700
Re	Re	0.50000 0.80557 0.45842 0.42800
Re	Re	0.50000 0.75067 0.57925 0.43400
S 	S 	0.50000 0.91523 0.48269 -0.23500
S 	S 	0.50000 0.83832 0.64919 -0.27300
N 	N 	0.50000 0.67820 0.37330 -0.11800
N 	N 	0.50000 0.60550 0.53460 -0.22200
C 	C 	0.50000 0.72110 0.40430 -0.04400
C 	C 	0.50000 0.65650 0.54850 -0.04700
Yb	Yb	0.76246 0.64251 0.75000 1.34200
Yb	Yb	0.26246 0.14251 0.75000 1.33300
Yb	Yb	0.23754 0.35749 0.25000 1.34200
Yb	Yb	0.73754 0.85749 0.25000 1.35200
Yb	Yb	0.23754 0.64251 0.75000 1.34300
Yb	Yb	0.73754 0.14251 0.75000 1.33200
Yb	Yb	0.76246 0.35749 0.25000 1.34000
Yb	Yb	0.26246 0.85749 0.25000 1.35300
K 	K 	0.59370 0.50000 0.50000 0.59700
K 	K 	0.09370 0.00000 0.50000 0.58500
K 	K 	0.40630 0.50000 -0.00000 0.59000
K 	K 	0.90630 0.00000 -0.00000 0.57600
K 	K 	0.40630 0.50000 0.50000 0.59700
K 	K 	0.90630 0.00000 0.50000 0.58300
K 	K 	0.59370 0.50000 -0.00000 0.59000
K 	K 	0.09370 0.00000 -0.00000 0.57800
