data_crystal

_cell_length_a 14.40980
_cell_length_b 21.29420
_cell_length_c 20.91280
_cell_angle_alpha 90.00000
_cell_angle_beta  90.00000
_cell_angle_gamma 90.00000

_symmetry_space_group_name_	'P 1'
_symmetry_space_group_name_H-M	'P 1'

loop_
_symmetry_equiv_pos_as_xyz
  x,y,z

loop_
_atom_site_label
_atom_site_type_symbol
_atom_site_fract_x
_atom_site_fract_y
_atom_site_fract_z
_atom_site_charge
Re	Re	0.90428 0.63924 0.44141 0.43500
S 	S 	0.86977 0.73760 0.48887 -0.28000
N 	N 	0.85320 0.65740 0.65210 -0.21300
N 	N 	0.73170 0.67130 0.34630 -0.10700
N 	N 	0.88060 0.50750 0.36560 -0.12100
N 	N 	0.73260 0.58310 0.52450 -0.15800
N 	N 	0.85310 0.80940 0.32100 -0.20700
C 	C 	0.90450 0.66950 0.61190 -0.03200
C 	C 	0.79260 0.65940 0.37930 -0.04400
C 	C 	0.88800 0.55180 0.39420 -0.03700
C 	C 	0.79290 0.60360 0.49730 -0.03600
C 	C 	0.90500 0.78760 0.35620 -0.03500
Re	Re	0.40428 0.13924 0.44141 0.44500
S 	S 	0.36977 0.23760 0.48887 -0.27600
N 	N 	0.35320 0.15740 0.65210 -0.21600
N 	N 	0.23170 0.17130 0.34630 -0.10900
N 	N 	0.38060 0.00750 0.36560 -0.13800
N 	N 	0.23260 0.08310 0.52450 -0.16700
N 	N 	0.35310 0.30940 0.32100 -0.20800
C 	C 	0.40450 0.16950 0.61190 -0.03200
C 	C 	0.29260 0.15940 0.37930 -0.04700
C 	C 	0.38800 0.05180 0.39420 -0.04600
C 	C 	0.29290 0.10360 0.49730 -0.04400
C 	C 	0.40500 0.28760 0.35620 -0.03200
Re	Re	0.09572 0.36076 0.94141 0.45600
S 	S 	0.13023 0.26240 0.98887 -0.24400
N 	N 	0.14680 0.34260 0.15210 -0.21500
N 	N 	0.26830 0.32870 0.84630 -0.10400
N 	N 	0.11940 0.49250 0.86560 -0.11800
N 	N 	0.26740 0.41690 0.02450 -0.19000
N 	N 	0.14690 0.19060 0.82100 -0.20600
C 	C 	0.09550 0.33050 0.11190 -0.02900
C 	C 	0.20740 0.34060 0.87930 -0.04400
C 	C 	0.11200 0.44820 0.89420 -0.03000
C 	C 	0.20710 0.39640 0.99730 0.01200
C 	C 	0.09500 0.21240 0.85620 -0.03300
Re	Re	0.59572 0.86076 0.94141 0.45400
S 	S 	0.63023 0.76240 0.98887 -0.24300
N 	N 	0.64680 0.84260 0.15210 -0.21300
N 	N 	0.76830 0.82870 0.84630 -0.10200
N 	N 	0.61940 0.99250 0.86560 -0.10000
N 	N 	0.76740 0.91690 0.02450 -0.17700
N 	N 	0.64690 0.69060 0.82100 -0.20700
C 	C 	0.59550 0.83050 0.11190 -0.02400
C 	C 	0.70740 0.84060 0.87930 -0.04000
C 	C 	0.61200 0.94820 0.89420 -0.02000
C 	C 	0.70710 0.89640 0.99730 0.01800
C 	C 	0.59500 0.71240 0.85620 -0.03200
Re	Re	0.09572 0.63924 0.05859 0.43100
S 	S 	0.13023 0.73760 0.01113 -0.30900
N 	N 	0.14680 0.65740 0.84790 -0.21200
N 	N 	0.26830 0.67130 0.15370 -0.10900
N 	N 	0.11940 0.50750 0.13440 -0.12000
N 	N 	0.26740 0.58310 0.97550 -0.12500
N 	N 	0.14690 0.80940 0.17900 -0.20800
C 	C 	0.09550 0.66950 0.88810 -0.02400
C 	C 	0.20740 0.65940 0.12070 -0.04300
C 	C 	0.11200 0.55180 0.10580 -0.03900
C 	C 	0.20710 0.60360 0.00270 -0.08200
C 	C 	0.09500 0.78760 0.14380 -0.02900
Re	Re	0.59572 0.13924 0.05859 0.43200
S 	S 	0.63023 0.23760 0.01113 -0.31100
N 	N 	0.64680 0.15740 0.84790 -0.21400
N 	N 	0.76830 0.17130 0.15370 -0.11200
N 	N 	0.61940 0.00750 0.13440 -0.13900
N 	N 	0.76740 0.08310 0.97550 -0.13400
N 	N 	0.64690 0.30940 0.17900 -0.20800
C 	C 	0.59550 0.16950 0.88810 -0.02900
C 	C 	0.70740 0.15940 0.12070 -0.04600
C 	C 	0.61200 0.05180 0.10580 -0.05100
C 	C 	0.70710 0.10360 0.00270 -0.09200
C 	C 	0.59500 0.28760 0.14380 -0.03300
Re	Re	0.90428 0.36076 0.55859 0.43700
S 	S 	0.86977 0.26240 0.51113 -0.28200
N 	N 	0.85320 0.34260 0.34790 -0.21300
N 	N 	0.73170 0.32870 0.65370 -0.10600
N 	N 	0.88060 0.49250 0.63440 -0.12000
N 	N 	0.73260 0.41690 0.47550 -0.15800
N 	N 	0.85310 0.19060 0.67900 -0.20700
C 	C 	0.90450 0.33050 0.38810 -0.03200
C 	C 	0.79260 0.34060 0.62070 -0.04300
C 	C 	0.88800 0.44820 0.60580 -0.03700
C 	C 	0.79290 0.39640 0.50270 -0.03600
C 	C 	0.90500 0.21240 0.64380 -0.04000
Re	Re	0.40428 0.86076 0.55859 0.44200
S 	S 	0.36977 0.76240 0.51113 -0.27600
N 	N 	0.35320 0.84260 0.34790 -0.21200
N 	N 	0.23170 0.82870 0.65370 -0.10300
N 	N 	0.38060 0.99250 0.63440 -0.10100
N 	N 	0.23260 0.91690 0.47550 -0.14600
N 	N 	0.35310 0.69060 0.67900 -0.20800
C 	C 	0.40450 0.83050 0.38810 -0.02200
C 	C 	0.29260 0.84060 0.62070 -0.04000
C 	C 	0.38800 0.94820 0.60580 -0.02300
C 	C 	0.29290 0.89640 0.50270 -0.02700
C 	C 	0.40500 0.71240 0.64380 -0.03200
Re	Re	0.09572 0.36076 0.55859 0.44300
S 	S 	0.13023 0.26240 0.51113 -0.27800
N 	N 	0.14680 0.34260 0.34790 -0.21300
N 	N 	0.26830 0.32870 0.65370 -0.10600
N 	N 	0.11940 0.49250 0.63440 -0.11900
N 	N 	0.26740 0.41690 0.47550 -0.15800
N 	N 	0.14690 0.19060 0.67900 -0.20700
C 	C 	0.09550 0.33050 0.38810 -0.02700
C 	C 	0.20740 0.34060 0.62070 -0.04300
C 	C 	0.11200 0.44820 0.60580 -0.03400
C 	C 	0.20710 0.39640 0.50270 -0.03600
C 	C 	0.09500 0.21240 0.64380 -0.03400
Re	Re	0.59572 0.86076 0.55859 0.44200
S 	S 	0.63023 0.76240 0.51113 -0.27600
N 	N 	0.64680 0.84260 0.34790 -0.21200
N 	N 	0.76830 0.82870 0.65370 -0.10400
N 	N 	0.61940 0.99250 0.63440 -0.10100
N 	N 	0.76740 0.91690 0.47550 -0.14700
N 	N 	0.64690 0.69060 0.67900 -0.20800
C 	C 	0.59550 0.83050 0.38810 -0.02200
C 	C 	0.70740 0.84060 0.62070 -0.04000
C 	C 	0.61200 0.94820 0.60580 -0.02400
C 	C 	0.70710 0.89640 0.50270 -0.02700
C 	C 	0.59500 0.71240 0.64380 -0.03200
Re	Re	0.90428 0.63924 0.05859 0.42400
S 	S 	0.86977 0.73760 0.01113 -0.31300
N 	N 	0.85320 0.65740 0.84790 -0.21200
N 	N 	0.73170 0.67130 0.15370 -0.10900
N 	N 	0.88060 0.50750 0.13440 -0.12100
N 	N 	0.73260 0.58310 0.97550 -0.12500
N 	N 	0.85310 0.80940 0.17900 -0.20800
C 	C 	0.90450 0.66950 0.88810 -0.02900
C 	C 	0.79260 0.65940 0.12070 -0.04300
C 	C 	0.88800 0.55180 0.10580 -0.04100
C 	C 	0.79290 0.60360 0.00270 -0.08200
C 	C 	0.90500 0.78760 0.14380 -0.03500
Re	Re	0.40428 0.13924 0.05859 0.43200
S 	S 	0.36977 0.23760 0.01113 -0.31000
N 	N 	0.35320 0.15740 0.84790 -0.21400
N 	N 	0.23170 0.17130 0.15370 -0.11100
N 	N 	0.38060 0.00750 0.13440 -0.13900
N 	N 	0.23260 0.08310 0.97550 -0.13300
N 	N 	0.35310 0.30940 0.17900 -0.20800
C 	C 	0.40450 0.16950 0.88810 -0.02900
C 	C 	0.29260 0.15940 0.12070 -0.04600
C 	C 	0.38800 0.05180 0.10580 -0.05000
C 	C 	0.29290 0.10360 0.00270 -0.09200
C 	C 	0.40500 0.28760 0.14380 -0.03200
Re	Re	0.90428 0.36076 0.94141 0.44900
S 	S 	0.86977 0.26240 0.98887 -0.24700
N 	N 	0.85320 0.34260 0.15210 -0.21400
N 	N 	0.73170 0.32870 0.84630 -0.10400
N 	N 	0.88060 0.49250 0.86560 -0.12000
N 	N 	0.73260 0.41690 0.02450 -0.19000
N 	N 	0.85310 0.19060 0.82100 -0.20600
C 	C 	0.90450 0.33050 0.11190 -0.03500
C 	C 	0.79260 0.34060 0.87930 -0.04400
C 	C 	0.88800 0.44820 0.89420 -0.03300
C 	C 	0.79290 0.39640 0.99730 0.01200
C 	C 	0.90500 0.21240 0.85620 -0.03900
Re	Re	0.40428 0.86076 0.94141 0.45500
S 	S 	0.36977 0.76240 0.98887 -0.24300
N 	N 	0.35320 0.84260 0.15210 -0.21300
N 	N 	0.23170 0.82870 0.84630 -0.10100
N 	N 	0.38060 0.99250 0.86560 -0.10000
N 	N 	0.23260 0.91690 0.02450 -0.17600
N 	N 	0.35310 0.69060 0.82100 -0.20700
C 	C 	0.40450 0.83050 0.11190 -0.02400
C 	C 	0.29260 0.84060 0.87930 -0.04000
C 	C 	0.38800 0.94820 0.89420 -0.02000
C 	C 	0.29290 0.89640 0.99730 0.01800
C 	C 	0.40500 0.71240 0.85620 -0.03200
Re	Re	0.09572 0.63924 0.44141 0.44300
S 	S 	0.13023 0.73760 0.48887 -0.27600
N 	N 	0.14680 0.65740 0.65210 -0.21300
N 	N 	0.26830 0.67130 0.34630 -0.10700
N 	N 	0.11940 0.50750 0.36560 -0.11900
N 	N 	0.26740 0.58310 0.52450 -0.15800
N 	N 	0.14690 0.80940 0.32100 -0.20800
C 	C 	0.09550 0.66950 0.61190 -0.02600
C 	C 	0.20740 0.65940 0.37930 -0.04400
C 	C 	0.11200 0.55180 0.39420 -0.03500
C 	C 	0.20710 0.60360 0.49730 -0.03600
C 	C 	0.09500 0.78760 0.35620 -0.02900
Re	Re	0.59572 0.13924 0.44141 0.44500
S 	S 	0.63023 0.23760 0.48887 -0.27600
N 	N 	0.64680 0.15740 0.65210 -0.21500
N 	N 	0.76830 0.17130 0.34630 -0.11000
N 	N 	0.61940 0.00750 0.36560 -0.13800
N 	N 	0.76740 0.08310 0.52450 -0.16800
N 	N 	0.64690 0.30940 0.32100 -0.20800
C 	C 	0.59550 0.16950 0.61190 -0.03200
C 	C 	0.70740 0.15940 0.37930 -0.04700
C 	C 	0.61200 0.05180 0.39420 -0.04600
C 	C 	0.70710 0.10360 0.49730 -0.04400
C 	C 	0.59500 0.28760 0.35620 -0.03200
Re	Re	0.00000 0.69405 0.54050 0.44100
Re	Re	0.00000 0.74952 0.42165 0.44700
S 	S 	0.00000 0.66211 0.35266 -0.27100
S 	S 	-0.00000 0.58398 0.51618 -0.25800
N 	N 	0.00000 0.82150 0.62400 -0.10800
N 	N 	0.00000 0.89510 0.46390 -0.20600
C 	C 	0.00000 0.77800 0.59420 -0.03900
C 	C 	0.00000 0.84240 0.45150 -0.04600
Re	Re	0.50000 0.19405 0.54050 0.43800
Re	Re	0.50000 0.24952 0.42165 0.44200
S 	S 	0.50000 0.16211 0.35266 -0.27900
S 	S 	0.50000 0.08398 0.51618 -0.29200
N 	N 	0.50000 0.32150 0.62400 -0.11400
N 	N 	0.50000 0.39510 0.46390 -0.22100
C 	C 	0.50000 0.27800 0.59420 -0.04200
C 	C 	0.50000 0.34240 0.45150 -0.05100
Re	Re	-0.00000 0.30595 0.04050 0.40000
Re	Re	0.00000 0.25048 0.92165 0.44800
S 	S 	0.00000 0.33789 0.85266 -0.27300
S 	S 	0.00000 0.41602 0.01618 -0.29600
N 	N 	0.00000 0.17850 0.12400 -0.12000
N 	N 	-0.00000 0.10490 0.96390 -0.21800
C 	C 	0.00000 0.22200 0.09420 -0.04900
C 	C 	-0.00000 0.15760 0.95150 -0.04400
Re	Re	0.50000 0.80595 0.04050 0.39200
Re	Re	0.50000 0.75048 0.92165 0.44200
S 	S 	0.50000 0.83789 0.85266 -0.27400
S 	S 	0.50000 0.91602 0.01618 -0.27100
N 	N 	0.50000 0.67850 0.12400 -0.11700
N 	N 	0.50000 0.60490 0.96390 -0.21200
C 	C 	0.50000 0.72200 0.09420 -0.05100
C 	C 	0.50000 0.65760 0.95150 -0.04400
Re	Re	-0.00000 0.69405 0.95950 0.48100
Re	Re	0.00000 0.74952 0.07835 0.44700
S 	S 	0.00000 0.66211 0.14734 -0.26900
S 	S 	-0.00000 0.58398 0.98382 -0.22000
N 	N 	0.00000 0.82150 0.87600 -0.10500
N 	N 	0.00000 0.89510 0.03610 -0.21100
C 	C 	0.00000 0.77800 0.90580 -0.03000
C 	C 	0.00000 0.84240 0.04850 -0.05300
Re	Re	0.50000 0.19405 0.95950 0.48100
Re	Re	0.50000 0.24952 0.07835 0.44100
S 	S 	0.50000 0.16211 0.14734 -0.27700
S 	S 	0.50000 0.08398 0.98382 -0.25100
N 	N 	0.50000 0.32150 0.87600 -0.11100
N 	N 	0.50000 0.39510 0.03610 -0.22600
C 	C 	0.50000 0.27800 0.90580 -0.03200
C 	C 	0.50000 0.34240 0.04850 -0.05800
Re	Re	0.00000 0.30595 0.45950 0.44100
Re	Re	0.00000 0.25048 0.57835 0.44700
S 	S 	-0.00000 0.33789 0.64734 -0.27000
S 	S 	0.00000 0.41602 0.48382 -0.25800
N 	N 	0.00000 0.17850 0.37600 -0.11800
N 	N 	-0.00000 0.10490 0.53610 -0.22700
C 	C 	0.00000 0.22200 0.40580 -0.04100
C 	C 	-0.00000 0.15760 0.54850 -0.05200
Re	Re	0.50000 0.80595 0.45950 0.43300
Re	Re	0.50000 0.75048 0.57835 0.44100
S 	S 	0.50000 0.83789 0.64734 -0.27200
S 	S 	0.50000 0.91602 0.48382 -0.23300
N 	N 	0.50000 0.67850 0.37600 -0.11500
N 	N 	0.50000 0.60490 0.53610 -0.22100
C 	C 	0.50000 0.72200 0.40580 -0.04200
C 	C 	0.50000 0.65760 0.54850 -0.05100
Tb	Tb	0.76280 0.64081 0.75000 1.11800
Tb	Tb	0.26280 0.14081 0.75000 1.08600
Tb	Tb	0.23720 0.35919 0.25000 1.11600
Tb	Tb	0.73720 0.85919 0.25000 1.15100
Tb	Tb	0.23720 0.64081 0.75000 1.12200
Tb	Tb	0.73720 0.14081 0.75000 1.08300
Tb	Tb	0.76280 0.35919 0.25000 1.11200
Tb	Tb	0.26280 0.85919 0.25000 1.15400
K 	K 	0.91430 0.00000 0.50000 0.58200
K 	K 	0.41430 0.50000 0.50000 0.59500
K 	K 	0.08570 0.00000 -0.00000 0.57700
K 	K 	0.58570 0.50000 -0.00000 0.58800
K 	K 	0.08570 0.00000 0.50000 0.58400
K 	K 	0.58570 0.50000 0.50000 0.59500
K 	K 	0.91430 0.00000 -0.00000 0.57500
K 	K 	0.41430 0.50000 -0.00000 0.58800
