data_crystal

_cell_length_a 14.60390
_cell_length_b 21.12620
_cell_length_c 20.60280
_cell_angle_alpha 90.00000
_cell_angle_beta  90.00000
_cell_angle_gamma 90.00000

_symmetry_space_group_name_	'P 1'
_symmetry_space_group_name_H-M	'P 1'

loop_
_symmetry_equiv_pos_as_xyz
  x,y,z

loop_
_atom_site_label
_atom_site_type_symbol
_atom_site_fract_x
_atom_site_fract_y
_atom_site_fract_z
_atom_site_charge
Re	Re	0.40555 0.14149 0.05694 0.55000
S 	S 	0.37099 0.24112 0.00991 -0.15300
N 	N 	0.35090 0.30970 0.18000 -0.23500
C 	C 	0.40520 0.28970 0.14470 -0.03400
N 	N 	0.14640 0.33990 0.34530 -0.24400
C 	C 	0.40550 0.17350 0.88470 -0.01100
C 	C 	0.29850 0.10630 0.99870 -0.11800
C 	C 	0.38990 0.05310 0.10350 0.02200
C 	C 	0.29440 0.16100 0.11830 -0.02700
N 	N 	0.38110 0.00750 0.13280 -0.06900
N 	N 	0.23220 0.17020 0.15110 -0.09500
N 	N 	0.24140 0.08800 0.96550 -0.07200
K 	K 	0.10860 0.01340 0.03700 1.07600
Re	Re	0.90555 0.64149 0.05694 0.55200
S 	S 	0.87099 0.74112 0.00991 -0.15900
N 	N 	0.85090 0.80970 0.18000 -0.24300
C 	C 	0.90520 0.78970 0.14470 -0.04700
N 	N 	0.64640 0.83990 0.34530 -0.25900
C 	C 	0.90550 0.67350 0.88470 -0.03000
C 	C 	0.79850 0.60630 0.99870 -0.14000
C 	C 	0.88990 0.55310 0.10350 -0.00900
C 	C 	0.79440 0.66100 0.11830 -0.03300
N 	N 	0.88110 0.50750 0.13280 -0.12000
N 	N 	0.73220 0.67020 0.15110 -0.10200
N 	N 	0.74140 0.58800 0.96550 -0.09400
K 	K 	0.60860 0.51340 0.03700 1.09000
Re	Re	0.59445 0.85851 0.55694 0.45200
S 	S 	0.62901 0.75888 0.50991 -0.26900
N 	N 	0.64910 0.69030 0.68000 -0.23700
C 	C 	0.59480 0.71030 0.64470 -0.03400
N 	N 	0.85360 0.66010 0.84530 -0.24900
C 	C 	0.59450 0.82650 0.38470 -0.04400
C 	C 	0.70150 0.89370 0.49870 -0.06100
C 	C 	0.61010 0.94690 0.60350 -0.06400
C 	C 	0.70560 0.83900 0.61830 -0.05400
N 	N 	0.61890 0.99250 0.63280 -0.17400
N 	N 	0.76780 0.82980 0.65110 -0.12000
N 	N 	0.75860 0.91200 0.46550 -0.13100
K 	K 	0.89140 0.98660 0.53700 1.00900
Re	Re	0.09445 0.35851 0.55694 0.44700
S 	S 	0.12901 0.25888 0.50991 -0.26700
N 	N 	0.14910 0.19030 0.68000 -0.23000
C 	C 	0.09480 0.21030 0.64470 -0.02600
N 	N 	0.35360 0.16010 0.84530 -0.23600
C 	C 	0.09450 0.32650 0.38470 -0.02800
C 	C 	0.20150 0.39370 0.49870 -0.03400
C 	C 	0.11010 0.44690 0.60350 -0.02900
C 	C 	0.20560 0.33900 0.61830 -0.04300
N 	N 	0.11890 0.49250 0.63280 -0.12000
N 	N 	0.26780 0.32980 0.65110 -0.11000
N 	N 	0.25860 0.41200 0.46550 -0.08900
K 	K 	0.39140 0.48660 0.53700 1.10100
Re	Re	0.59445 0.14149 0.44306 0.44300
S 	S 	0.62901 0.24112 0.49009 -0.26800
N 	N 	0.64910 0.30970 0.32000 -0.23600
C 	C 	0.59480 0.28970 0.35530 -0.03400
N 	N 	0.85360 0.33990 0.15470 -0.24100
C 	C 	0.59450 0.17350 0.61530 -0.01500
C 	C 	0.70150 0.10630 0.50130 -0.01100
C 	C 	0.61010 0.05310 0.39650 0.00100
C 	C 	0.70560 0.16100 0.38170 -0.03600
N 	N 	0.61890 0.00750 0.36720 -0.06900
N 	N 	0.76780 0.17020 0.34890 -0.10200
N 	N 	0.75860 0.08800 0.53450 -0.06800
K 	K 	0.89140 0.01340 0.46300 1.08700
Re	Re	0.09445 0.64149 0.44306 0.44800
S 	S 	0.12901 0.74112 0.49009 -0.27400
N 	N 	0.14910 0.80970 0.32000 -0.24400
C 	C 	0.09480 0.78970 0.35530 -0.04400
N 	N 	0.35360 0.83990 0.15470 -0.25500
C 	C 	0.09450 0.67350 0.61530 -0.03000
C 	C 	0.20150 0.60630 0.50130 -0.03300
C 	C 	0.11010 0.55310 0.39650 -0.02800
C 	C 	0.20560 0.66100 0.38170 -0.04300
N 	N 	0.11890 0.50750 0.36720 -0.11900
N 	N 	0.26780 0.67020 0.34890 -0.10900
N 	N 	0.25860 0.58800 0.53450 -0.08900
K 	K 	0.39140 0.51340 0.46300 1.10100
Re	Re	0.40555 0.85851 0.94306 0.34500
S 	S 	0.37099 0.75888 0.99009 -0.38800
N 	N 	0.35090 0.69030 0.82000 -0.23900
C 	C 	0.40520 0.71030 0.85530 -0.03500
N 	N 	0.14640 0.66010 0.65470 -0.24500
C 	C 	0.40550 0.82650 0.11530 -0.04800
C 	C 	0.29850 0.89370 0.00130 0.04100
C 	C 	0.38990 0.94690 0.89650 -0.08800
C 	C 	0.29440 0.83900 0.88170 -0.06500
N 	N 	0.38110 0.99250 0.86720 -0.17400
N 	N 	0.23220 0.82980 0.84890 -0.12700
N 	N 	0.24140 0.91200 0.03450 -0.13800
K 	K 	0.10860 0.98660 0.96300 0.95400
Re	Re	0.90555 0.35851 0.94306 0.33800
S 	S 	0.87099 0.25888 0.99009 -0.38800
N 	N 	0.85090 0.19030 0.82000 -0.23100
C 	C 	0.90520 0.21030 0.85530 -0.03000
N 	N 	0.64640 0.16010 0.65470 -0.23200
C 	C 	0.90550 0.32650 0.11530 -0.03400
C 	C 	0.79850 0.39370 0.00130 0.06800
C 	C 	0.88990 0.44690 0.89650 -0.05400
C 	C 	0.79440 0.33900 0.88170 -0.05500
N 	N 	0.88110 0.49250 0.86720 -0.12100
N 	N 	0.73220 0.32980 0.84890 -0.11800
N 	N 	0.74140 0.41200 0.03450 -0.09700
K 	K 	0.60860 0.48660 0.96300 1.04200
Re	Re	0.59445 0.85851 0.94306 0.34500
S 	S 	0.62901 0.75888 0.99009 -0.38900
N 	N 	0.64910 0.69030 0.82000 -0.23900
C 	C 	0.59480 0.71030 0.85530 -0.03500
N 	N 	0.85360 0.66010 0.65470 -0.24500
C 	C 	0.59450 0.82650 0.11530 -0.04800
C 	C 	0.70150 0.89370 0.00130 0.04200
C 	C 	0.61010 0.94690 0.89650 -0.08800
C 	C 	0.70560 0.83900 0.88170 -0.06500
N 	N 	0.61890 0.99250 0.86720 -0.17400
N 	N 	0.76780 0.82980 0.84890 -0.12700
N 	N 	0.75860 0.91200 0.03450 -0.13800
K 	K 	0.89140 0.98660 0.96300 0.95300
Re	Re	0.09445 0.35851 0.94306 0.34200
S 	S 	0.12901 0.25888 0.99009 -0.38500
N 	N 	0.14910 0.19030 0.82000 -0.23100
C 	C 	0.09480 0.21030 0.85530 -0.02700
N 	N 	0.35360 0.16010 0.65470 -0.23200
C 	C 	0.09450 0.32650 0.11530 -0.03200
C 	C 	0.20150 0.39370 0.00130 0.06700
C 	C 	0.11010 0.44690 0.89650 -0.05200
C 	C 	0.20560 0.33900 0.88170 -0.05500
N 	N 	0.11890 0.49250 0.86720 -0.12100
N 	N 	0.26780 0.32980 0.84890 -0.11800
N 	N 	0.25860 0.41200 0.03450 -0.09700
K 	K 	0.39140 0.48660 0.96300 1.04200
Re	Re	0.40555 0.14149 0.44306 0.44300
S 	S 	0.37099 0.24112 0.49009 -0.26800
N 	N 	0.35090 0.30970 0.32000 -0.23600
C 	C 	0.40520 0.28970 0.35530 -0.03400
N 	N 	0.14640 0.33990 0.15470 -0.24100
C 	C 	0.40550 0.17350 0.61530 -0.01500
C 	C 	0.29850 0.10630 0.50130 -0.01100
C 	C 	0.38990 0.05310 0.39650 0.00100
C 	C 	0.29440 0.16100 0.38170 -0.03600
N 	N 	0.38110 0.00750 0.36720 -0.06900
N 	N 	0.23220 0.17020 0.34890 -0.10200
N 	N 	0.24140 0.08800 0.53450 -0.06700
K 	K 	0.10860 0.01340 0.46300 1.08700
Re	Re	0.90555 0.64149 0.44306 0.44500
S 	S 	0.87099 0.74112 0.49009 -0.27600
N 	N 	0.85090 0.80970 0.32000 -0.24400
C 	C 	0.90520 0.78970 0.35530 -0.04700
N 	N 	0.64640 0.83990 0.15470 -0.25500
C 	C 	0.90550 0.67350 0.61530 -0.03300
C 	C 	0.79850 0.60630 0.50130 -0.03300
C 	C 	0.88990 0.55310 0.39650 -0.03000
C 	C 	0.79440 0.66100 0.38170 -0.04200
N 	N 	0.88110 0.50750 0.36720 -0.12000
N 	N 	0.73220 0.67020 0.34890 -0.10900
N 	N 	0.74140 0.58800 0.53450 -0.08900
K 	K 	0.60860 0.51340 0.46300 1.10100
Re	Re	0.40555 0.85851 0.55694 0.45200
S 	S 	0.37099 0.75888 0.50991 -0.26900
N 	N 	0.35090 0.69030 0.68000 -0.23700
C 	C 	0.40520 0.71030 0.64470 -0.03400
N 	N 	0.14640 0.66010 0.84530 -0.24900
C 	C 	0.40550 0.82650 0.38470 -0.04400
C 	C 	0.29850 0.89370 0.49870 -0.06100
C 	C 	0.38990 0.94690 0.60350 -0.06400
C 	C 	0.29440 0.83900 0.61830 -0.05300
N 	N 	0.38110 0.99250 0.63280 -0.17400
N 	N 	0.23220 0.82980 0.65110 -0.11900
N 	N 	0.24140 0.91200 0.46550 -0.13000
K 	K 	0.10860 0.98660 0.53700 1.01000
Re	Re	0.90555 0.35851 0.55694 0.44400
S 	S 	0.87099 0.25888 0.50991 -0.26800
N 	N 	0.85090 0.19030 0.68000 -0.23000
C 	C 	0.90520 0.21030 0.64470 -0.02900
N 	N 	0.64640 0.16010 0.84530 -0.23600
C 	C 	0.90550 0.32650 0.38470 -0.03100
C 	C 	0.79850 0.39370 0.49870 -0.03300
C 	C 	0.88990 0.44690 0.60350 -0.03000
C 	C 	0.79440 0.33900 0.61830 -0.04300
N 	N 	0.88110 0.49250 0.63280 -0.12100
N 	N 	0.73220 0.32980 0.65110 -0.11000
N 	N 	0.74140 0.41200 0.46550 -0.08900
K 	K 	0.60860 0.48660 0.53700 1.10100
Re	Re	0.59445 0.14149 0.05694 0.55000
S 	S 	0.62901 0.24112 0.00991 -0.15300
N 	N 	0.64910 0.30970 0.18000 -0.23500
C 	C 	0.59480 0.28970 0.14470 -0.03400
N 	N 	0.85360 0.33990 0.34530 -0.24400
C 	C 	0.59450 0.17350 0.88470 -0.01100
C 	C 	0.70150 0.10630 0.99870 -0.11800
C 	C 	0.61010 0.05310 0.10350 0.02200
C 	C 	0.70560 0.16100 0.11830 -0.02700
N 	N 	0.61890 0.00750 0.13280 -0.06900
N 	N 	0.76780 0.17020 0.15110 -0.09600
N 	N 	0.75860 0.08800 0.96550 -0.07200
K 	K 	0.89140 0.01340 0.03700 1.07600
Re	Re	0.09445 0.64149 0.05694 0.55400
S 	S 	0.12901 0.74112 0.00991 -0.15800
N 	N 	0.14910 0.80970 0.18000 -0.24300
C 	C 	0.09480 0.78970 0.14470 -0.04400
N 	N 	0.35360 0.83990 0.34530 -0.25900
C 	C 	0.09450 0.67350 0.88470 -0.02700
C 	C 	0.20150 0.60630 0.99870 -0.13900
C 	C 	0.11010 0.55310 0.10350 -0.00800
C 	C 	0.20560 0.66100 0.11830 -0.03300
N 	N 	0.11890 0.50750 0.13280 -0.12000
N 	N 	0.26780 0.67020 0.15110 -0.10200
N 	N 	0.25860 0.58800 0.96550 -0.09400
K 	K 	0.39140 0.51340 0.03700 1.09000
Tm	Tm	0.23745 0.35798 0.25000 1.33600
Tm	Tm	0.73745 0.85798 0.25000 1.29600
Tm	Tm	0.76255 0.64202 0.75000 1.33000
Tm	Tm	0.26255 0.14202 0.75000 1.36800
Tm	Tm	0.76255 0.35798 0.25000 1.33600
Tm	Tm	0.26255 0.85798 0.25000 1.29600
Tm	Tm	0.23745 0.64202 0.75000 1.33100
Tm	Tm	0.73745 0.14202 0.75000 1.36700
Re	Re	0.50000 0.19772 0.95712 0.28800
Re	Re	0.50000 0.25242 0.07814 0.43500
S 	S 	0.50000 0.08605 0.98080 -0.27800
S 	S 	0.50000 0.16356 0.14740 -0.29200
C 	C 	0.50000 0.34710 0.04820 -0.03100
C 	C 	0.50000 0.28170 0.90280 -0.08000
N 	N 	0.50000 0.39990 0.03330 -0.12600
N 	N 	0.50000 0.32710 0.87090 -0.12800
Re	Re	0.00000 0.69772 0.95712 0.30000
Re	Re	0.00000 0.75242 0.07814 0.43800
S 	S 	-0.00000 0.58605 0.98080 -0.35900
S 	S 	-0.00000 0.66356 0.14740 -0.30000
C 	C 	0.00000 0.84710 0.04820 -0.04400
C 	C 	0.00000 0.78170 0.90280 -0.08300
N 	N 	-0.00000 0.89990 0.03330 -0.17200
N 	N 	0.00000 0.82710 0.87090 -0.14200
Re	Re	0.50000 0.80228 0.45712 0.43900
Re	Re	0.50000 0.74758 0.57814 0.44300
S 	S 	0.50000 0.91395 0.48080 -0.34200
S 	S 	0.50000 0.83644 0.64740 -0.28900
C 	C 	0.50000 0.65290 0.54820 -0.05100
C 	C 	0.50000 0.71830 0.40280 -0.04800
N 	N 	0.50000 0.60010 0.53330 -0.14200
N 	N 	0.50000 0.67290 0.37090 -0.11500
Re	Re	0.00000 0.30228 0.45712 0.43500
Re	Re	0.00000 0.24758 0.57814 0.44400
S 	S 	0.00000 0.41395 0.48080 -0.25000
S 	S 	0.00000 0.33644 0.64740 -0.27700
C 	C 	-0.00000 0.15290 0.54820 -0.04200
C 	C 	0.00000 0.21830 0.40280 -0.04500
N 	N 	0.00000 0.10010 0.53330 -0.12300
N 	N 	-0.00000 0.17290 0.37090 -0.10300
Re	Re	0.50000 0.19772 0.54288 0.42600
Re	Re	0.50000 0.25242 0.42186 0.44000
S 	S 	0.50000 0.08605 0.51920 -0.16600
S 	S 	0.50000 0.16356 0.35260 -0.27000
C 	C 	0.50000 0.34710 0.45180 -0.05100
C 	C 	0.50000 0.28170 0.59720 -0.04700
N 	N 	0.50000 0.39990 0.46670 -0.14200
N 	N 	0.50000 0.32710 0.62910 -0.11600
Re	Re	0.00000 0.69772 0.54288 0.43600
Re	Re	0.00000 0.75242 0.42186 0.44400
S 	S 	0.00000 0.58605 0.51920 -0.25000
S 	S 	0.00000 0.66356 0.35260 -0.27600
C 	C 	0.00000 0.84710 0.45180 -0.06300
C 	C 	-0.00000 0.78170 0.59720 -0.05000
N 	N 	0.00000 0.89990 0.46670 -0.18700
N 	N 	0.00000 0.82710 0.62910 -0.13200
Re	Re	0.50000 0.80228 0.04288 0.57800
Re	Re	0.50000 0.74758 0.92186 0.44800
S 	S 	0.50000 0.91395 0.01920 -0.23300
S 	S 	0.50000 0.83644 0.85260 -0.26600
C 	C 	0.50000 0.65290 0.95180 -0.07500
C 	C 	0.50000 0.71830 0.09720 -0.01600
N 	N 	0.50000 0.60010 0.96670 -0.17600
N 	N 	0.50000 0.67290 0.12910 -0.10600
Re	Re	0.00000 0.30228 0.04288 0.57000
Re	Re	0.00000 0.24758 0.92186 0.45000
S 	S 	0.00000 0.41395 0.01920 -0.14400
S 	S 	-0.00000 0.33644 0.85260 -0.25300
C 	C 	0.00000 0.15290 0.95180 -0.06400
C 	C 	-0.00000 0.21830 0.09720 -0.01400
N 	N 	0.00000 0.10010 0.96670 -0.15600
N 	N 	-0.00000 0.17290 0.12910 -0.09500
O 	O 	0.12210 0.00000 -0.00000 -1.65800
O 	O 	0.62210 0.50000 -0.00000 -1.82900
O 	O 	0.87790 -0.00000 0.50000 -1.76900
O 	O 	0.37790 0.50000 0.50000 -1.94700
O 	O 	0.87790 0.00000 -0.00000 -1.65700
O 	O 	0.37790 0.50000 -0.00000 -1.82900
O 	O 	0.12210 -0.00000 0.50000 -1.76900
O 	O 	0.62210 0.50000 0.50000 -1.94700
