data_crystal

_cell_length_a 7.42190
_cell_length_b 31.52890
_cell_length_c 13.66820
_cell_angle_alpha 90.00000
_cell_angle_beta  91.80700
_cell_angle_gamma 90.00000

_symmetry_space_group_name_	'P 1'
_symmetry_space_group_name_H-M	'P 1'

loop_
_symmetry_equiv_pos_as_xyz
  x,y,z

loop_
_atom_site_label
_atom_site_type_symbol
_atom_site_fract_x
_atom_site_fract_y
_atom_site_fract_z
_atom_site_charge
Be	Be	0.19340 0.50667 0.88980 1.48100
Be	Be	0.81400 0.42782 0.76200 1.48200
Be	Be	0.17220 0.17301 0.73750 1.48100
Be	Be	0.64630 0.26514 0.88010 1.48100
Be	Be	0.32370 0.52340 0.60610 1.48100
Be	Be	0.40260 0.22093 0.11940 1.48100
P 	P 	0.20499 0.50187 0.10207 0.67100
P 	P 	0.26181 0.08029 0.73159 0.70300
P 	P 	0.79447 0.20955 0.73623 0.67000
P 	P 	0.19555 0.45062 0.72499 0.67100
P 	P 	0.69473 0.48400 0.60613 0.73000
P 	P 	0.71314 0.33701 0.74225 0.70400
P 	P 	0.29640 0.21951 0.90867 0.71100
P 	P 	0.75050 0.26220 0.09228 0.71200
O 	O 	0.26510 0.49819 0.99863 -0.56000
O 	O 	0.02190 0.48165 0.11885 -0.59500
O 	O 	0.20890 0.54766 0.13554 -0.56500
O 	O 	0.33520 0.47326 0.16763 -0.31400
H 	H 	0.45670 0.48330 0.16250 0.19600
O 	O 	0.18470 0.12332 0.70564 -0.50100
O 	O 	0.20420 0.06760 0.83307 -0.52700
O 	O 	0.20230 0.04851 0.65290 -0.55400
O 	O 	0.47310 0.08351 0.73177 -0.55600
H 	H 	0.50810 0.06520 0.70470 0.41000
O 	O 	0.95890 0.18210 0.73053 -0.53900
O 	O 	0.79310 0.23223 0.83476 -0.57800
O 	O 	0.77030 0.23993 0.65066 -0.58600
O 	O 	0.63470 0.17670 0.72883 -0.35000
H 	H 	0.52590 0.18770 0.72310 0.23900
O 	O 	0.01740 0.42702 0.72057 -0.53300
O 	O 	0.19340 0.48593 0.64828 -0.59300
O 	O 	0.24740 0.46606 0.82595 -0.58900
O 	O 	0.33610 0.41573 0.69569 -0.35500
H 	H 	0.44450 0.42640 0.69660 0.26200
O 	O 	0.67770 0.44666 0.67640 -0.56300
O 	O 	0.53350 0.51247 0.60945 -0.57400
O 	O 	0.73460 0.46626 0.50582 -0.54900
O 	O 	0.85420 0.51411 0.63947 -0.54900
H 	H 	0.95050 0.50650 0.63560 0.37500
O 	O 	0.88040 0.31896 0.69536 -0.52900
O 	O 	0.75070 0.38027 0.78367 -0.52100
O 	O 	0.63760 0.30914 0.81985 -0.54100
O 	O 	0.56260 0.34291 0.65899 -0.39900
H 	H 	0.54150 0.32120 0.62250 0.28200
O 	O 	0.33400 0.20504 0.01312 -0.56100
O 	O 	0.44560 0.24642 0.86913 -0.57400
O 	O 	0.25340 0.18025 0.84772 -0.54100
O 	O 	0.12930 0.25033 0.90555 -0.47100
H 	H 	0.03040 0.24160 0.88650 0.30900
O 	O 	0.78940 0.29922 0.16127 -0.55800
O 	O 	0.61200 0.23200 0.12981 -0.58100
O 	O 	0.70830 0.27844 0.99060 -0.56100
O 	O 	0.92880 0.23435 0.09069 -0.47700
H 	H 	0.01780 0.24790 0.10100 0.31900
Be	Be	0.30660 0.00667 0.61020 1.48000
Be	Be	0.68600 0.92782 0.73800 1.48100
Be	Be	0.32780 0.67301 0.76250 1.48100
Be	Be	0.85370 0.76514 0.61990 1.48100
Be	Be	0.17630 0.02340 0.89390 1.48100
Be	Be	0.09740 0.72093 0.38060 1.48100
P 	P 	0.29501 0.00187 0.39793 0.67000
P 	P 	0.23819 0.58029 0.76841 0.70200
P 	P 	0.70553 0.70955 0.76377 0.66900
P 	P 	0.30445 0.95062 0.77501 0.67100
P 	P 	0.80527 0.98400 0.89387 0.72900
P 	P 	0.78686 0.83701 0.75775 0.70400
P 	P 	0.20360 0.71951 0.59133 0.71300
P 	P 	0.74950 0.76220 0.40772 0.71500
O 	O 	0.23490 0.99819 0.50137 -0.55700
O 	O 	0.47810 0.98165 0.38115 -0.59400
O 	O 	0.29110 0.04766 0.36446 -0.56700
O 	O 	0.16480 0.97326 0.33237 -0.31200
H 	H 	0.04330 0.98330 0.33750 0.19700
O 	O 	0.31530 0.62332 0.79436 -0.49700
O 	O 	0.29580 0.56760 0.66693 -0.52400
O 	O 	0.29770 0.54851 0.84710 -0.55200
O 	O 	0.02690 0.58351 0.76823 -0.54500
H 	H 	0.99190 0.56520 0.79530 0.40000
O 	O 	0.54110 0.68210 0.76947 -0.54700
O 	O 	0.70690 0.73223 0.66524 -0.58300
O 	O 	0.72970 0.73993 0.84934 -0.58900
O 	O 	0.86530 0.67670 0.77117 -0.35200
H 	H 	0.97410 0.68770 0.77690 0.23500
O 	O 	0.48260 0.92702 0.77943 -0.52900
O 	O 	0.30660 0.98593 0.85172 -0.59200
O 	O 	0.25260 0.96606 0.67405 -0.58700
O 	O 	0.16390 0.91573 0.80431 -0.35300
H 	H 	0.05550 0.92640 0.80340 0.26400
O 	O 	0.82230 0.94666 0.82360 -0.56500
O 	O 	0.96650 0.01247 0.89055 -0.57100
O 	O 	0.76540 0.96626 0.99418 -0.54900
O 	O 	0.64580 0.01411 0.86053 -0.54700
H 	H 	0.54950 0.00650 0.86440 0.37400
O 	O 	0.61960 0.81896 0.80464 -0.53300
O 	O 	0.74930 0.88027 0.71633 -0.52400
O 	O 	0.86240 0.80914 0.68015 -0.54500
O 	O 	0.93740 0.84291 0.84101 -0.40200
H 	H 	0.95850 0.82120 0.87750 0.27900
O 	O 	0.16600 0.70504 0.48688 -0.55800
O 	O 	0.05440 0.74642 0.63087 -0.56700
O 	O 	0.24660 0.68025 0.65228 -0.53700
O 	O 	0.37070 0.75033 0.59445 -0.46900
H 	H 	0.46960 0.74160 0.61350 0.31500
O 	O 	0.71060 0.79922 0.33873 -0.56400
O 	O 	0.88800 0.73200 0.37019 -0.58800
O 	O 	0.79170 0.77844 0.50940 -0.56600
O 	O 	0.57120 0.73435 0.40931 -0.49900
H 	H 	0.48220 0.74790 0.39900 0.33600
Be	Be	0.80660 0.49333 0.11020 1.48000
Be	Be	0.18600 0.57218 0.23800 1.48100
Be	Be	0.82780 0.82699 0.26250 1.48100
Be	Be	0.35370 0.73486 0.11990 1.48100
Be	Be	0.67630 0.47660 0.39390 1.48100
Be	Be	0.59740 0.77907 0.88060 1.48100
P 	P 	0.79501 0.49813 0.89793 0.67100
P 	P 	0.73819 0.91971 0.26841 0.70300
P 	P 	0.20553 0.79045 0.26377 0.67000
P 	P 	0.80445 0.54938 0.27501 0.67100
P 	P 	0.30527 0.51600 0.39387 0.73000
P 	P 	0.28686 0.66299 0.25775 0.70400
P 	P 	0.70360 0.78049 0.09133 0.71100
P 	P 	0.24950 0.73780 0.90772 0.71200
O 	O 	0.73490 0.50181 0.00137 -0.56000
O 	O 	0.97810 0.51835 0.88115 -0.59500
O 	O 	0.79110 0.45234 0.86446 -0.56500
O 	O 	0.66480 0.52674 0.83237 -0.31400
H 	H 	0.54330 0.51670 0.83750 0.19600
O 	O 	0.81530 0.87668 0.29436 -0.50100
O 	O 	0.79580 0.93240 0.16693 -0.52700
O 	O 	0.79770 0.95149 0.34710 -0.55400
O 	O 	0.52690 0.91649 0.26823 -0.55600
H 	H 	0.49190 0.93480 0.29530 0.41000
O 	O 	0.04110 0.81790 0.26947 -0.53900
O 	O 	0.20690 0.76777 0.16524 -0.57800
O 	O 	0.22970 0.76007 0.34934 -0.58600
O 	O 	0.36530 0.82330 0.27117 -0.35000
H 	H 	0.47410 0.81230 0.27690 0.23900
O 	O 	0.98260 0.57298 0.27943 -0.53300
O 	O 	0.80660 0.51407 0.35172 -0.59300
O 	O 	0.75260 0.53394 0.17405 -0.58900
O 	O 	0.66390 0.58427 0.30431 -0.35500
H 	H 	0.55550 0.57360 0.30340 0.26200
O 	O 	0.32230 0.55334 0.32360 -0.56300
O 	O 	0.46650 0.48753 0.39055 -0.57400
O 	O 	0.26540 0.53374 0.49418 -0.54900
O 	O 	0.14580 0.48589 0.36053 -0.54900
H 	H 	0.04950 0.49350 0.36440 0.37500
O 	O 	0.11960 0.68104 0.30464 -0.52900
O 	O 	0.24930 0.61973 0.21633 -0.52100
O 	O 	0.36240 0.69086 0.18015 -0.54100
O 	O 	0.43740 0.65709 0.34101 -0.39900
H 	H 	0.45850 0.67880 0.37750 0.28200
O 	O 	0.66600 0.79496 0.98688 -0.56100
O 	O 	0.55440 0.75358 0.13087 -0.57400
O 	O 	0.74660 0.81975 0.15228 -0.54100
O 	O 	0.87070 0.74967 0.09445 -0.47100
H 	H 	0.96960 0.75840 0.11350 0.30900
O 	O 	0.21060 0.70078 0.83873 -0.55800
O 	O 	0.38800 0.76800 0.87019 -0.58100
O 	O 	0.29170 0.72156 0.00940 -0.56100
O 	O 	0.07120 0.76565 0.90931 -0.47700
H 	H 	0.98220 0.75210 0.89900 0.31900
Be	Be	0.69340 0.99333 0.38980 1.48000
Be	Be	0.31400 0.07218 0.26200 1.48100
Be	Be	0.67220 0.32699 0.23750 1.48100
Be	Be	0.14630 0.23486 0.38010 1.48100
Be	Be	0.82370 0.97660 0.10610 1.48100
Be	Be	0.90260 0.27907 0.61940 1.48100
P 	P 	0.70499 0.99813 0.60207 0.67000
P 	P 	0.76181 0.41971 0.23159 0.70200
P 	P 	0.29447 0.29045 0.23623 0.66900
P 	P 	0.69555 0.04938 0.22499 0.67100
P 	P 	0.19473 0.01600 0.10613 0.72900
P 	P 	0.21314 0.16299 0.24225 0.70400
P 	P 	0.79640 0.28049 0.40867 0.71300
P 	P 	0.25050 0.23780 0.59228 0.71500
O 	O 	0.76510 0.00181 0.49863 -0.55700
O 	O 	0.52190 0.01835 0.61885 -0.59400
O 	O 	0.70890 0.95234 0.63554 -0.56700
O 	O 	0.83520 0.02674 0.66763 -0.31200
H 	H 	0.95670 0.01670 0.66250 0.19700
O 	O 	0.68470 0.37668 0.20564 -0.49700
O 	O 	0.70420 0.43240 0.33307 -0.52400
O 	O 	0.70230 0.45149 0.15290 -0.55200
O 	O 	0.97310 0.41649 0.23177 -0.54500
H 	H 	0.00810 0.43480 0.20470 0.40000
O 	O 	0.45890 0.31790 0.23053 -0.54700
O 	O 	0.29310 0.26777 0.33476 -0.58300
O 	O 	0.27030 0.26007 0.15066 -0.58900
O 	O 	0.13470 0.32330 0.22883 -0.35200
H 	H 	0.02590 0.31230 0.22310 0.23500
O 	O 	0.51740 0.07298 0.22057 -0.52900
O 	O 	0.69340 0.01407 0.14828 -0.59200
O 	O 	0.74740 0.03394 0.32595 -0.58700
O 	O 	0.83610 0.08427 0.19569 -0.35300
H 	H 	0.94450 0.07360 0.19660 0.26400
O 	O 	0.17770 0.05334 0.17640 -0.56500
O 	O 	0.03350 0.98753 0.10945 -0.57100
O 	O 	0.23460 0.03374 0.00582 -0.54900
O 	O 	0.35420 0.98589 0.13947 -0.54700
H 	H 	0.45050 0.99350 0.13560 0.37400
O 	O 	0.38040 0.18104 0.19536 -0.53300
O 	O 	0.25070 0.11973 0.28367 -0.52400
O 	O 	0.13760 0.19086 0.31985 -0.54500
O 	O 	0.06260 0.15709 0.15899 -0.40200
H 	H 	0.04150 0.17880 0.12250 0.27900
O 	O 	0.83400 0.29496 0.51312 -0.55800
O 	O 	0.94560 0.25358 0.36913 -0.56700
O 	O 	0.75340 0.31975 0.34772 -0.53700
O 	O 	0.62930 0.24967 0.40555 -0.46900
H 	H 	0.53040 0.25840 0.38650 0.31500
O 	O 	0.28940 0.20078 0.66127 -0.56400
O 	O 	0.11200 0.26800 0.62981 -0.58800
O 	O 	0.20830 0.22156 0.49060 -0.56600
O 	O 	0.42880 0.26565 0.59069 -0.49900
H 	H 	0.51780 0.25210 0.60100 0.33600
