data_crystal

_cell_length_a 17.79920
_cell_length_b 17.79920
_cell_length_c 12.71450
_cell_angle_alpha 90.00000
_cell_angle_beta  90.00000
_cell_angle_gamma 120.00000

_symmetry_space_group_name_	'P 1'
_symmetry_space_group_name_H-M	'P 1'

loop_
_symmetry_equiv_pos_as_xyz
  x,y,z

loop_
_atom_site_label
_atom_site_type_symbol
_atom_site_fract_x
_atom_site_fract_y
_atom_site_fract_z
_atom_site_charge
Cu	Cu	0.13680 0.55380 0.26620 0.91200
Cu	Cu	0.13770 0.55480 0.00411 0.89100
O 	O 	0.17670 0.53400 0.12900 -0.53200
N 	N 	0.08880 0.59510 0.36500 -0.21300
N 	N 	0.89840 0.40160 0.38940 -0.21400
O 	O 	0.23480 0.67470 0.26950 -0.53800
O 	O 	0.02320 0.44810 0.28300 -0.34200
O 	O 	0.29420 0.80320 0.36180 -0.35200
O 	O 	0.75990 0.32450 0.50000 -0.49800
O 	O 	0.98010 0.56100 0.48600 -0.29500
O 	O 	0.71710 0.20190 0.42670 -0.35500
C 	C 	0.23610 0.72400 0.33800 0.35000
C 	C 	0.14500 0.69500 0.39800 -0.09100
H 	H 	0.15320 0.70130 0.47620 0.07200
C 	C 	0.98100 0.45370 0.36000 0.12600
C 	C 	0.02100 0.53900 0.41700 0.10000
C 	C 	0.77500 0.27500 0.43100 0.34300
C 	C 	0.84850 0.31630 0.36300 -0.12400
H 	H 	0.82060 0.32150 0.29690 0.06800
C 	C 	0.09400 0.73800 0.36000 -0.06400
H 	H 	0.03690 0.71010 0.39600 0.06300
H 	H 	0.12550 0.79970 0.38130 0.04100
C 	C 	0.08000 0.73300 0.24800 -0.08800
H 	H 	0.13510 0.78050 0.21990 0.05200
H 	H 	0.03740 0.75320 0.23890 0.04300
C 	C 	0.10800 0.75300 0.06700 -0.52200
H 	H 	0.10820 0.73920 0.99240 0.22100
H 	H 	0.16830 0.78570 0.09240 0.17000
H 	H 	0.08020 0.78780 0.07620 0.16300
C 	C 	0.90480 0.27690 0.31680 -0.07200
H 	H 	0.95100 0.32540 0.27590 0.07500
H 	H 	0.86630 0.23430 0.26370 0.04400
C 	C 	0.95410 0.23030 0.37070 -0.15400
H 	H 	0.01280 0.28200 0.37530 0.07700
H 	H 	0.95740 0.19940 0.30770 0.06400
C 	C 	0.02600 0.12400 0.38800 -0.38300
H 	H 	0.03770 0.08740 0.43490 0.12300
H 	H 	0.08070 0.17190 0.36180 0.12600
H 	H 	0.99000 0.08950 0.32920 0.11900
S 	S 	0.04570 0.64610 0.14700 -0.04400
S 	S 	0.96700 0.16890 0.46310 0.01600
Cu	Cu	0.44620 0.58300 0.26620 0.91300
Cu	Cu	0.44520 0.58290 0.00411 0.89100
O 	O 	0.46600 0.64270 0.12900 -0.53100
N 	N 	0.40490 0.49370 0.36500 -0.21200
N 	N 	0.59840 0.49680 0.38940 -0.21300
O 	O 	0.32530 0.56010 0.26950 -0.53700
O 	O 	0.55190 0.57510 0.28300 -0.34100
O 	O 	0.19680 0.49100 0.36180 -0.35100
O 	O 	0.67550 0.43540 0.50000 -0.49700
O 	O 	0.43900 0.41910 0.48600 -0.29400
O 	O 	0.79810 0.51520 0.42670 -0.35500
C 	C 	0.27600 0.51210 0.33800 0.35000
C 	C 	0.30500 0.45000 0.39800 -0.09100
H 	H 	0.29870 0.45190 0.47620 0.07200
C 	C 	0.54630 0.52730 0.36000 0.12600
C 	C 	0.46100 0.48200 0.41700 0.09900
C 	C 	0.72500 0.50000 0.43100 0.34300
C 	C 	0.68370 0.53220 0.36300 -0.12400
H 	H 	0.67850 0.49910 0.29690 0.06800
C 	C 	0.26200 0.35600 0.36000 -0.06400
H 	H 	0.28990 0.32680 0.39600 0.06300
H 	H 	0.20030 0.32580 0.38130 0.04200
C 	C 	0.26700 0.34700 0.24800 -0.08800
H 	H 	0.21950 0.35460 0.21990 0.05200
H 	H 	0.24680 0.28420 0.23890 0.04300
C 	C 	0.24700 0.35500 0.06700 -0.52300
H 	H 	0.26080 0.36900 0.99240 0.22200
H 	H 	0.21430 0.38260 0.09240 0.17100
H 	H 	0.21220 0.29240 0.07620 0.16300
C 	C 	0.72310 0.62790 0.31680 -0.07200
H 	H 	0.67460 0.62560 0.27590 0.07500
H 	H 	0.76570 0.63200 0.26370 0.04400
C 	C 	0.76970 0.72380 0.37070 -0.15400
H 	H 	0.71800 0.73080 0.37530 0.07700
H 	H 	0.80060 0.75800 0.30770 0.06400
C 	C 	0.87600 0.90200 0.38800 -0.38400
H 	H 	0.91260 0.95030 0.43490 0.12300
H 	H 	0.82810 0.90880 0.36180 0.12700
H 	H 	0.91050 0.90050 0.32920 0.11900
S 	S 	0.35390 0.39960 0.14700 -0.04400
S 	S 	0.83110 0.79810 0.46310 0.01600
Cu	Cu	0.41700 0.86320 0.26620 0.91300
Cu	Cu	0.41710 0.86230 0.00411 0.89200
O 	O 	0.35730 0.82330 0.12900 -0.53100
N 	N 	0.50630 0.91120 0.36500 -0.21200
N 	N 	0.50320 0.10160 0.38940 -0.21300
O 	O 	0.43990 0.76520 0.26950 -0.53700
O 	O 	0.42490 0.97680 0.28300 -0.34100
O 	O 	0.50900 0.70580 0.36180 -0.35100
O 	O 	0.56460 0.24010 0.50000 -0.49700
O 	O 	0.58090 0.01990 0.48600 -0.29400
O 	O 	0.48480 0.28290 0.42670 -0.35500
C 	C 	0.48790 0.76390 0.33800 0.35000
C 	C 	0.55000 0.85500 0.39800 -0.09100
H 	H 	0.54810 0.84680 0.47620 0.07200
C 	C 	0.47270 0.01900 0.36000 0.12600
C 	C 	0.51800 0.97900 0.41700 0.09900
C 	C 	0.50000 0.22500 0.43100 0.34300
C 	C 	0.46780 0.15150 0.36300 -0.12400
H 	H 	0.50090 0.17940 0.29690 0.06800
C 	C 	0.64400 0.90600 0.36000 -0.06400
H 	H 	0.67320 0.96310 0.39600 0.06300
H 	H 	0.67420 0.87450 0.38130 0.04100
C 	C 	0.65300 0.92000 0.24800 -0.08800
H 	H 	0.64540 0.86490 0.21990 0.05200
H 	H 	0.71580 0.96260 0.23890 0.04300
C 	C 	0.64500 0.89200 0.06700 -0.52200
H 	H 	0.63100 0.89180 0.99240 0.22100
H 	H 	0.61740 0.83170 0.09240 0.17000
H 	H 	0.70760 0.91980 0.07620 0.16300
C 	C 	0.37210 0.09520 0.31680 -0.07200
H 	H 	0.37440 0.04900 0.27590 0.07500
H 	H 	0.36800 0.13370 0.26370 0.04400
C 	C 	0.27620 0.04590 0.37070 -0.15400
H 	H 	0.26920 0.98720 0.37530 0.07700
H 	H 	0.24200 0.04260 0.30770 0.06400
C 	C 	0.09800 0.97400 0.38800 -0.38400
H 	H 	0.04970 0.96230 0.43490 0.12300
H 	H 	0.09120 0.91930 0.36180 0.12700
H 	H 	0.09950 0.01000 0.32920 0.11900
S 	S 	0.60040 0.95430 0.14700 -0.04400
S 	S 	0.20190 0.03300 0.46310 0.01600
Cu	Cu	0.86320 0.44620 0.76620 0.91500
Cu	Cu	0.86230 0.44520 0.50411 0.91200
O 	O 	0.82330 0.46600 0.62900 -0.52200
N 	N 	0.91120 0.40490 0.86500 -0.21000
N 	N 	0.10160 0.59840 0.88940 -0.19900
O 	O 	0.76520 0.32530 0.76950 -0.53700
O 	O 	0.97680 0.55190 0.78300 -0.33500
O 	O 	0.70580 0.19680 0.86180 -0.34500
O 	O 	0.24010 0.67550 -0.00000 -0.53600
O 	O 	0.01990 0.43900 0.98600 -0.27300
O 	O 	0.28290 0.79810 0.92670 -0.34900
C 	C 	0.76390 0.27600 0.83800 0.35300
C 	C 	0.85500 0.30500 0.89800 -0.09200
H 	H 	0.84680 0.29870 0.97620 0.08200
C 	C 	0.01900 0.54630 0.86000 0.13000
C 	C 	0.97900 0.46100 0.91700 0.10300
C 	C 	0.22500 0.72500 0.93100 0.39500
C 	C 	0.15150 0.68370 0.86300 -0.14400
H 	H 	0.17940 0.67850 0.79690 0.08100
C 	C 	0.90600 0.26200 0.86000 -0.06000
H 	H 	0.96310 0.28990 0.89600 0.06700
H 	H 	0.87450 0.20030 0.88130 0.04400
C 	C 	0.92000 0.26700 0.74800 -0.09700
H 	H 	0.86490 0.21950 0.71990 0.05600
H 	H 	0.96260 0.24680 0.73890 0.05000
C 	C 	0.89200 0.24700 0.56700 -0.40700
H 	H 	0.89180 0.26080 0.49240 0.16100
H 	H 	0.83170 0.21430 0.59240 0.14900
H 	H 	0.91980 0.21220 0.57620 0.14800
C 	C 	0.09520 0.72310 0.81680 -0.06300
H 	H 	0.04900 0.67460 0.77590 0.07800
H 	H 	0.13370 0.76570 0.76370 0.04900
C 	C 	0.04590 0.76970 0.87070 -0.16800
H 	H 	0.98720 0.71800 0.87530 0.08500
H 	H 	0.04260 0.80060 0.80770 0.07200
C 	C 	0.97400 0.87600 0.88800 -0.40600
H 	H 	0.96230 0.91260 0.93490 0.13500
H 	H 	0.91930 0.82810 0.86180 0.13700
H 	H 	0.01000 0.91050 0.82920 0.13000
S 	S 	0.95430 0.35390 0.64700 -0.03300
S 	S 	0.03300 0.83110 0.96310 0.05000
Cu	Cu	0.55380 0.41700 0.76620 0.91500
Cu	Cu	0.55480 0.41710 0.50411 0.91200
O 	O 	0.53400 0.35730 0.62900 -0.52200
N 	N 	0.59510 0.50630 0.86500 -0.21000
N 	N 	0.40160 0.50320 0.88940 -0.19800
O 	O 	0.67470 0.43990 0.76950 -0.53700
O 	O 	0.44810 0.42490 0.78300 -0.33500
O 	O 	0.80320 0.50900 0.86180 -0.34500
O 	O 	0.32450 0.56460 -0.00000 -0.53600
O 	O 	0.56100 0.58090 0.98600 -0.27300
O 	O 	0.20190 0.48480 0.92670 -0.34900
C 	C 	0.72400 0.48790 0.83800 0.35300
C 	C 	0.69500 0.55000 0.89800 -0.09200
H 	H 	0.70130 0.54810 0.97620 0.08300
C 	C 	0.45370 0.47270 0.86000 0.13000
C 	C 	0.53900 0.51800 0.91700 0.10400
C 	C 	0.27500 0.50000 0.93100 0.39500
C 	C 	0.31630 0.46780 0.86300 -0.14400
H 	H 	0.32150 0.50090 0.79690 0.08100
C 	C 	0.73800 0.64400 0.86000 -0.06000
H 	H 	0.71010 0.67320 0.89600 0.06700
H 	H 	0.79970 0.67420 0.88130 0.04500
C 	C 	0.73300 0.65300 0.74800 -0.09700
H 	H 	0.78050 0.64540 0.71990 0.05600
H 	H 	0.75320 0.71580 0.73890 0.05000
C 	C 	0.75300 0.64500 0.56700 -0.40700
H 	H 	0.73920 0.63100 0.49240 0.16100
H 	H 	0.78570 0.61740 0.59240 0.14900
H 	H 	0.78780 0.70760 0.57620 0.14800
C 	C 	0.27690 0.37210 0.81680 -0.06300
H 	H 	0.32540 0.37440 0.77590 0.07800
H 	H 	0.23430 0.36800 0.76370 0.04900
C 	C 	0.23030 0.27620 0.87070 -0.16900
H 	H 	0.28200 0.26920 0.87530 0.08500
H 	H 	0.19940 0.24200 0.80770 0.07200
C 	C 	0.12400 0.09800 0.88800 -0.40600
H 	H 	0.08740 0.04970 0.93490 0.13500
H 	H 	0.17190 0.09120 0.86180 0.13700
H 	H 	0.08950 0.09950 0.82920 0.13000
S 	S 	0.64610 0.60040 0.64700 -0.03300
S 	S 	0.16890 0.20190 0.96310 0.05100
Cu	Cu	0.58300 0.13680 0.76620 0.91500
Cu	Cu	0.58290 0.13770 0.50411 0.91200
O 	O 	0.64270 0.17670 0.62900 -0.52200
N 	N 	0.49370 0.08880 0.86500 -0.21000
N 	N 	0.49680 0.89840 0.88940 -0.19900
O 	O 	0.56010 0.23480 0.76950 -0.53700
O 	O 	0.57510 0.02320 0.78300 -0.33500
O 	O 	0.49100 0.29420 0.86180 -0.34500
O 	O 	0.43540 0.75990 -0.00000 -0.53600
O 	O 	0.41910 0.98010 0.98600 -0.27300
O 	O 	0.51520 0.71710 0.92670 -0.34900
C 	C 	0.51210 0.23610 0.83800 0.35300
C 	C 	0.45000 0.14500 0.89800 -0.09200
H 	H 	0.45190 0.15320 0.97620 0.08200
C 	C 	0.52730 0.98100 0.86000 0.13000
C 	C 	0.48200 0.02100 0.91700 0.10400
C 	C 	0.50000 0.77500 0.93100 0.39500
C 	C 	0.53220 0.84850 0.86300 -0.14400
H 	H 	0.49910 0.82060 0.79690 0.08100
C 	C 	0.35600 0.09400 0.86000 -0.06000
H 	H 	0.32680 0.03690 0.89600 0.06700
H 	H 	0.32580 0.12550 0.88130 0.04500
C 	C 	0.34700 0.08000 0.74800 -0.09700
H 	H 	0.35460 0.13510 0.71990 0.05600
H 	H 	0.28420 0.03740 0.73890 0.05000
C 	C 	0.35500 0.10800 0.56700 -0.40700
H 	H 	0.36900 0.10820 0.49240 0.16100
H 	H 	0.38260 0.16830 0.59240 0.14900
H 	H 	0.29240 0.08020 0.57620 0.14800
C 	C 	0.62790 0.90480 0.81680 -0.06300
H 	H 	0.62560 0.95100 0.77590 0.07800
H 	H 	0.63200 0.86630 0.76370 0.04900
C 	C 	0.72380 0.95410 0.87070 -0.16800
H 	H 	0.73080 0.01280 0.87530 0.08500
H 	H 	0.75800 0.95740 0.80770 0.07200
C 	C 	0.90200 0.02600 0.88800 -0.40800
H 	H 	0.95030 0.03770 0.93490 0.13500
H 	H 	0.90880 0.08070 0.86180 0.13800
H 	H 	0.90050 0.99000 0.82920 0.13100
S 	S 	0.39960 0.04570 0.64700 -0.03300
S 	S 	0.79810 0.96700 0.96310 0.05100
Ca	Ca	0.33333 0.66667 0.13460 1.51100
Ca	Ca	0.66667 0.33333 0.63460 1.51100
