data_crystal

_cell_length_a 33.27370
_cell_length_b 9.85310
_cell_length_c 18.21800
_cell_angle_alpha 90.00000
_cell_angle_beta  90.00000
_cell_angle_gamma 90.00000

_symmetry_space_group_name_	'P 1'
_symmetry_space_group_name_H-M	'P 1'

loop_
_symmetry_equiv_pos_as_xyz
  x,y,z

loop_
_atom_site_label
_atom_site_type_symbol
_atom_site_fract_x
_atom_site_fract_y
_atom_site_fract_z
_atom_site_charge
Zn	Zn	0.59650 0.44929 0.49513 1.23400
C 	C 	0.67388 0.39140 0.49250 0.34900
C 	C 	0.71329 0.31730 0.49620 -0.07400
C 	C 	0.74900 0.38680 0.49630 -0.00500
H 	H 	0.74860 0.48120 0.49640 0.05700
C 	C 	0.71467 0.17910 0.49610 -0.00600
H 	H 	0.69090 0.12930 0.49590 0.04900
C 	C 	0.54670 0.23660 0.46110 0.28900
C 	C 	0.52136 0.11610 0.48090 0.03800
C 	C 	0.51956 0.00650 0.43330 -0.17300
H 	H 	0.53270 0.01070 0.38830 0.09900
C 	C 	0.49839 0.89080 0.45210 0.13700
H 	H 	0.49740 0.81770 0.41990 0.01000
C 	C 	0.55704 0.59130 0.37813 0.39100
C 	C 	0.55955 0.66590 0.30620 -0.07300
C 	C 	0.59604 0.71290 0.27960 -0.01400
H 	H 	0.61950 0.69720 0.30590 0.06400
C 	C 	0.52461 0.69040 0.26650 -0.01300
H 	H 	0.50000 0.66020 0.28440 0.05900
C 	C 	0.59751 0.78260 0.21410 -0.01100
H 	H 	0.62210 0.81370 0.19660 0.06100
C 	C 	0.52628 0.75910 0.20090 -0.01500
H 	H 	0.50280 0.77360 0.17430 0.06500
C 	C 	0.56275 0.80730 0.17391 -0.07200
C 	C 	0.56399 0.88140 0.10276 0.38000
O 	O 	0.64277 0.32640 0.50291 -0.43800
O 	O 	0.67347 0.51310 0.47880 -0.30500
O 	O 	0.54650 0.33780 0.50741 -0.52000
O 	O 	0.56736 0.23650 0.40584 -0.29500
O 	O 	0.59030 0.56190 0.40781 -0.46100
O 	O 	0.52308 0.56520 0.40220 -0.45300
O 	O 	0.59542 0.95020 0.08965 -0.43900
O 	O 	0.53485 0.87060 0.06079 -0.46100
Zn	Zn	0.90350 0.05071 0.49513 1.22000
C 	C 	0.82612 0.10860 0.49250 0.27900
C 	C 	0.78671 0.18270 0.49620 -0.03800
C 	C 	0.75100 0.11320 0.49630 -0.04100
H 	H 	0.75140 0.01880 0.49640 0.05300
C 	C 	0.78533 0.32090 0.49610 -0.03700
H 	H 	0.80910 0.37070 0.49590 0.06900
C 	C 	0.95330 0.26340 0.46110 0.35300
C 	C 	0.97864 0.38390 0.48090 -0.11800
C 	C 	0.98044 0.49350 0.43330 0.08000
H 	H 	0.96730 0.48930 0.38830 0.03000
C 	C 	0.00161 0.60920 0.45210 -0.11700
H 	H 	0.00260 0.68230 0.41990 0.08400
C 	C 	0.94296 0.90870 0.37813 0.40100
C 	C 	0.94045 0.83410 0.30620 -0.10100
C 	C 	0.90396 0.78710 0.27960 0.01300
H 	H 	0.88050 0.80280 0.30590 0.05600
C 	C 	0.97539 0.80960 0.26650 0.06600
H 	H 	0.00000 0.83980 0.28440 0.01600
C 	C 	0.90249 0.71740 0.21410 -0.03400
H 	H 	0.87790 0.68630 0.19660 0.06600
C 	C 	0.97372 0.74090 0.20090 -0.06000
H 	H 	0.99720 0.72640 0.17430 0.08900
C 	C 	0.93725 0.69270 0.17391 -0.04700
C 	C 	0.93601 0.61860 0.10276 0.37200
O 	O 	0.85723 0.17360 0.50291 -0.42500
O 	O 	0.82653 0.98690 0.47880 -0.25100
O 	O 	0.95350 0.16220 0.50741 -0.53800
O 	O 	0.93264 0.26350 0.40584 -0.31000
O 	O 	0.90970 0.93810 0.40781 -0.44600
O 	O 	0.97692 0.93480 0.40220 -0.42700
O 	O 	0.90458 0.54980 0.08965 -0.45200
O 	O 	0.96515 0.62940 0.06079 -0.45600
Zn	Zn	0.40350 0.94929 0.00487 1.23100
C 	C 	0.32612 0.89140 0.00750 0.33000
C 	C 	0.28671 0.81730 0.00380 -0.06200
C 	C 	0.25100 0.88680 0.00370 -0.01100
H 	H 	0.25140 0.98120 0.00360 0.06300
C 	C 	0.28533 0.67910 0.00390 -0.01300
H 	H 	0.30910 0.62930 0.00410 0.05200
C 	C 	0.45330 0.73660 0.03890 0.30800
C 	C 	0.47864 0.61610 0.01910 -0.15100
C 	C 	0.48044 0.50650 0.06670 0.06800
H 	H 	0.46730 0.51070 0.11170 0.02800
C 	C 	0.50161 0.39080 0.04790 -0.13900
H 	H 	0.50260 0.31770 0.08010 0.09300
C 	C 	0.44296 0.09130 0.12187 0.39200
C 	C 	0.44045 0.16590 0.19380 -0.08400
C 	C 	0.40396 0.21290 0.22040 -0.01100
H 	H 	0.38050 0.19720 0.19410 0.05700
C 	C 	0.47539 0.19040 0.23350 -0.01100
H 	H 	0.50000 0.16020 0.21560 0.04800
C 	C 	0.40249 0.28260 0.28590 -0.01800
H 	H 	0.37790 0.31370 0.30340 0.05900
C 	C 	0.47372 0.25910 0.29910 -0.02300
H 	H 	0.49720 0.27360 0.32570 0.06100
C 	C 	0.43725 0.30730 0.32609 -0.07200
C 	C 	0.43601 0.38140 0.39724 0.37700
O 	O 	0.35723 0.82640 0.99709 -0.37500
O 	O 	0.32653 0.01310 0.02120 -0.33400
O 	O 	0.45350 0.83780 0.99259 -0.47300
O 	O 	0.43264 0.73650 0.09416 -0.29300
O 	O 	0.40970 0.06190 0.09219 -0.48200
O 	O 	0.47692 0.06520 0.09780 -0.47500
O 	O 	0.40458 0.45020 0.41035 -0.44300
O 	O 	0.46515 0.37060 0.43921 -0.46100
Zn	Zn	0.09650 0.55071 0.00487 1.21900
C 	C 	0.17388 0.60860 0.00750 0.28800
C 	C 	0.21329 0.68270 0.00380 -0.04200
C 	C 	0.24900 0.61320 0.00370 -0.03200
H 	H 	0.24860 0.51880 0.00360 0.06000
C 	C 	0.21467 0.82090 0.00390 -0.03200
H 	H 	0.19090 0.87070 0.00410 0.06300
C 	C 	0.04670 0.76340 0.03890 0.32600
C 	C 	0.02136 0.88390 0.01910 -0.20300
C 	C 	0.01956 0.99350 0.06670 0.12800
H 	H 	0.03270 0.98930 0.11170 0.01200
C 	C 	0.99839 0.10920 0.04790 -0.19200
H 	H 	0.99740 0.18230 0.08010 0.11600
C 	C 	0.05704 0.40870 0.12187 0.39000
C 	C 	0.05955 0.33410 0.19380 -0.08000
C 	C 	0.09604 0.28710 0.22040 -0.01800
H 	H 	0.11950 0.30280 0.19410 0.05900
C 	C 	0.02461 0.30960 0.23350 -0.02000
H 	H 	0.00000 0.33980 0.21560 0.04700
C 	C 	0.09751 0.21740 0.28590 -0.01100
H 	H 	0.12210 0.18630 0.30340 0.05500
C 	C 	0.02628 0.24090 0.29910 -0.01700
H 	H 	0.00280 0.22640 0.32570 0.04800
C 	C 	0.06275 0.19270 0.32609 -0.08300
C 	C 	0.06399 0.11860 0.39724 0.38000
O 	O 	0.14277 0.67360 0.99709 -0.36900
O 	O 	0.17347 0.48690 0.02120 -0.30400
O 	O 	0.04650 0.66220 0.99259 -0.49200
O 	O 	0.06736 0.76350 0.09416 -0.30400
O 	O 	0.09030 0.43810 0.09219 -0.47300
O 	O 	0.02308 0.43480 0.09780 -0.47500
O 	O 	0.09542 0.04980 0.41035 -0.46000
O 	O 	0.03485 0.12940 0.43921 -0.47600
Zn	Zn	0.40350 0.55071 0.50487 1.23500
C 	C 	0.32612 0.60860 0.50750 0.34500
C 	C 	0.28671 0.68270 0.50380 -0.05000
C 	C 	0.25100 0.61320 0.50370 -0.02600
H 	H 	0.25140 0.51880 0.50360 0.06400
C 	C 	0.28533 0.82090 0.50390 -0.02400
H 	H 	0.30910 0.87070 0.50410 0.07200
C 	C 	0.45330 0.76340 0.53890 0.36300
C 	C 	0.47864 0.88390 0.51910 -0.15600
C 	C 	0.48044 0.99350 0.56670 0.14100
H 	H 	0.46730 0.98930 0.61170 0.01600
C 	C 	0.50161 0.10920 0.54790 -0.17600
H 	H 	0.50260 0.18230 0.58010 0.10500
C 	C 	0.44296 0.40870 0.62187 0.39000
C 	C 	0.44045 0.33410 0.69380 -0.07600
C 	C 	0.40396 0.28710 0.72040 -0.01500
H 	H 	0.38050 0.30280 0.69410 0.06200
C 	C 	0.47539 0.30960 0.73350 -0.01700
H 	H 	0.50000 0.33980 0.71560 0.05400
C 	C 	0.40249 0.21740 0.78590 -0.01300
H 	H 	0.37790 0.18630 0.80340 0.06100
C 	C 	0.47372 0.24090 0.79910 -0.01800
H 	H 	0.49720 0.22640 0.82570 0.05600
C 	C 	0.43725 0.19270 0.82609 -0.07500
C 	C 	0.43601 0.11860 0.89724 0.37500
O 	O 	0.35723 0.67360 0.49709 -0.42800
O 	O 	0.32653 0.48690 0.52120 -0.30700
O 	O 	0.45350 0.66220 0.49259 -0.53300
O 	O 	0.43264 0.76350 0.59416 -0.30200
O 	O 	0.40970 0.43810 0.59219 -0.46200
O 	O 	0.47692 0.43480 0.59780 -0.45800
O 	O 	0.40458 0.04980 0.91035 -0.44400
O 	O 	0.46515 0.12940 0.93921 -0.45300
Zn	Zn	0.09650 0.94929 0.50487 1.24700
C 	C 	0.17388 0.89140 0.50750 0.39500
C 	C 	0.21329 0.81730 0.50380 -0.07500
C 	C 	0.24900 0.88680 0.50370 0.00000
H 	H 	0.24860 0.98120 0.50360 0.06700
C 	C 	0.21467 0.67910 0.50390 -0.00100
H 	H 	0.19090 0.62930 0.50410 0.05800
C 	C 	0.04670 0.73660 0.53890 0.29900
C 	C 	0.02136 0.61610 0.51910 0.00100
C 	C 	0.01956 0.50650 0.56670 -0.11200
H 	H 	0.03270 0.51070 0.61170 0.08600
C 	C 	0.99839 0.39080 0.54790 0.07600
H 	H 	0.99740 0.31770 0.58010 0.03300
C 	C 	0.05704 0.09130 0.62187 0.39400
C 	C 	0.05955 0.16590 0.69380 -0.08700
C 	C 	0.09604 0.21290 0.72040 -0.00800
H 	H 	0.11950 0.19720 0.69410 0.05900
C 	C 	0.02461 0.19040 0.73350 -0.01100
H 	H 	0.00000 0.16020 0.71560 0.04200
C 	C 	0.09751 0.28260 0.78590 -0.02000
H 	H 	0.12210 0.31370 0.80340 0.06500
C 	C 	0.02628 0.25910 0.79910 -0.02600
H 	H 	0.00280 0.27360 0.82570 0.05500
C 	C 	0.06275 0.30730 0.82609 -0.06800
C 	C 	0.06399 0.38140 0.89724 0.37400
O 	O 	0.14277 0.82640 0.49709 -0.43700
O 	O 	0.17347 0.01310 0.52120 -0.34500
O 	O 	0.04650 0.83780 0.49259 -0.51100
O 	O 	0.06736 0.73650 0.59416 -0.28500
O 	O 	0.09030 0.06190 0.59219 -0.47500
O 	O 	0.02308 0.06520 0.59780 -0.47800
O 	O 	0.09542 0.45020 0.91035 -0.42800
O 	O 	0.03485 0.37060 0.93921 -0.45100
Zn	Zn	0.59650 0.05071 0.99513 1.23300
C 	C 	0.67388 0.10860 0.99250 0.32200
C 	C 	0.71329 0.18270 0.99620 -0.04400
C 	C 	0.74900 0.11320 0.99630 -0.03600
H 	H 	0.74860 0.01880 0.99640 0.05600
C 	C 	0.71467 0.32090 0.99610 -0.03000
H 	H 	0.69090 0.37070 0.99590 0.07600
C 	C 	0.54670 0.26340 0.96110 0.33700
C 	C 	0.52136 0.38390 0.98090 0.03500
C 	C 	0.51956 0.49350 0.93330 -0.10100
H 	H 	0.53270 0.48930 0.88830 0.08800
C 	C 	0.49839 0.60920 0.95210 0.10100
H 	H 	0.49740 0.68230 0.91990 0.02300
C 	C 	0.55704 0.90870 0.87813 0.38600
C 	C 	0.55955 0.83410 0.80620 -0.06100
C 	C 	0.59604 0.78710 0.77960 -0.02000
H 	H 	0.61950 0.80280 0.80590 0.07100
C 	C 	0.52461 0.80960 0.76650 -0.02100
H 	H 	0.50000 0.83980 0.78440 0.06700
C 	C 	0.59751 0.71740 0.71410 -0.00300
H 	H 	0.62210 0.68630 0.69660 0.06100
C 	C 	0.52628 0.74090 0.70090 -0.00700
H 	H 	0.50280 0.72640 0.67430 0.06000
C 	C 	0.56275 0.69270 0.67391 -0.07700
C 	C 	0.56399 0.61860 0.60276 0.38200
O 	O 	0.64277 0.17360 0.00291 -0.47200
O 	O 	0.67347 0.98690 0.97880 -0.24900
O 	O 	0.54650 0.16220 0.00741 -0.56800
O 	O 	0.56736 0.26350 0.90584 -0.30400
O 	O 	0.59030 0.93810 0.90781 -0.43300
O 	O 	0.52308 0.93480 0.90220 -0.42400
O 	O 	0.59542 0.54980 0.58965 -0.44300
O 	O 	0.53485 0.62940 0.56079 -0.45900
Zn	Zn	0.90350 0.44929 0.99513 1.24900
C 	C 	0.82612 0.39140 0.99250 0.39900
C 	C 	0.78671 0.31730 0.99620 -0.08100
C 	C 	0.75100 0.38680 0.99630 0.00300
H 	H 	0.75140 0.48120 0.99640 0.06200
C 	C 	0.78533 0.17910 0.99610 0.00400
H 	H 	0.80910 0.12930 0.99590 0.05500
C 	C 	0.95330 0.23660 0.96110 0.32000
C 	C 	0.97864 0.11610 0.98090 0.07600
C 	C 	0.98044 0.00650 0.93330 -0.18000
H 	H 	0.96730 0.01070 0.88830 0.10700
C 	C 	0.00161 0.89080 0.95210 0.18400
H 	H 	0.00260 0.81770 0.91990 -0.00700
C 	C 	0.94296 0.59130 0.87813 0.40400
C 	C 	0.94045 0.66590 0.80620 -0.10500
C 	C 	0.90396 0.71290 0.77960 0.02100
H 	H 	0.88050 0.69720 0.80590 0.05700
C 	C 	0.97539 0.69040 0.76650 0.06800
H 	H 	-0.00000 0.66020 0.78440 0.01700
C 	C 	0.90249 0.78260 0.71410 -0.04000
H 	H 	0.87790 0.81370 0.69660 0.07700
C 	C 	0.97372 0.75910 0.70090 -0.06400
H 	H 	0.99720 0.77360 0.67430 0.09300
C 	C 	0.93725 0.80730 0.67391 -0.03400
C 	C 	0.93601 0.88140 0.60276 0.36600
O 	O 	0.85723 0.32640 0.00291 -0.48600
O 	O 	0.82653 0.51310 0.97880 -0.30600
O 	O 	0.95350 0.33780 0.00741 -0.54700
O 	O 	0.93264 0.23650 0.90584 -0.29200
O 	O 	0.90970 0.56190 0.90781 -0.45200
O 	O 	0.97692 0.56520 0.90220 -0.43200
O 	O 	0.90458 0.95020 0.58965 -0.41800
O 	O 	0.96515 0.87060 0.56079 -0.43300
Zn	Zn	0.50000 0.50000 0.50000 1.23600
Zn	Zn	0.00000 0.00000 0.50000 1.21700
Zn	Zn	0.50000 0.00000 -0.00000 1.21300
Zn	Zn	-0.00000 0.50000 -0.00000 1.21700
