data_crystal

_cell_length_a 25.85610
_cell_length_b 25.85610
_cell_length_c 6.71190
_cell_angle_alpha 90.00000
_cell_angle_beta  90.00000
_cell_angle_gamma 120.00000

_symmetry_space_group_name_	'P 1'
_symmetry_space_group_name_H-M	'P 1'

loop_
_symmetry_equiv_pos_as_xyz
  x,y,z

loop_
_atom_site_label
_atom_site_type_symbol
_atom_site_fract_x
_atom_site_fract_y
_atom_site_fract_z
_atom_site_charge
Ni	Ni	0.38377 0.34887 0.14453 1.10400
C 	C 	0.32325 0.20445 0.28777 -0.19000
C 	C 	0.33607 0.21763 0.08652 0.20500
C 	C 	0.34615 0.17985 0.96542 -0.07400
H 	H 	0.35610 0.19009 0.80911 0.05900
C 	C 	0.31241 0.24508 0.41801 0.41600
O 	O 	0.31488 0.29103 0.34580 -0.52500
O 	O 	0.30086 0.23320 0.59946 -0.46700
O 	O 	0.33872 0.26699 0.00890 -0.53300
Ni	Ni	0.05044 0.68220 0.47786 1.10500
C 	C 	0.98992 0.53778 0.62110 -0.19000
C 	C 	0.00274 0.55096 0.41985 0.20600
C 	C 	0.01282 0.51318 0.29875 -0.07400
H 	H 	0.02277 0.52342 0.14244 0.06100
C 	C 	0.97908 0.57841 0.75134 0.41700
O 	O 	0.98155 0.62436 0.67913 -0.52500
O 	O 	0.96753 0.56653 0.93279 -0.46700
O 	O 	0.00539 0.60032 0.34223 -0.53300
Ni	Ni	0.71710 0.01554 0.81120 1.10500
C 	C 	0.65658 0.87112 0.95444 -0.19100
C 	C 	0.66940 0.88430 0.75319 0.20700
C 	C 	0.67948 0.84652 0.63209 -0.07500
H 	H 	0.68943 0.85676 0.47578 0.06100
C 	C 	0.64574 0.91175 0.08468 0.41800
O 	O 	0.64821 0.95770 0.01247 -0.52500
O 	O 	0.63419 0.89987 0.26613 -0.46700
O 	O 	0.67205 0.93366 0.67557 -0.53300
Ni	Ni	0.65113 0.03490 0.14453 1.10400
C 	C 	0.79555 0.11880 0.28777 -0.18900
C 	C 	0.78237 0.11844 0.08652 0.20500
C 	C 	0.82015 0.16630 0.96542 -0.07200
H 	H 	0.80991 0.16601 0.80911 0.06000
C 	C 	0.75492 0.06733 0.41801 0.41700
O 	O 	0.70897 0.02385 0.34580 -0.52500
O 	O 	0.76680 0.06766 0.59946 -0.46700
O 	O 	0.73301 0.07173 0.00890 -0.53300
Ni	Ni	0.31780 0.36823 0.47786 1.10500
C 	C 	0.46222 0.45213 0.62110 -0.19000
C 	C 	0.44904 0.45177 0.41985 0.20600
C 	C 	0.48682 0.49963 0.29875 -0.07400
H 	H 	0.47658 0.49934 0.14244 0.06000
C 	C 	0.42159 0.40066 0.75134 0.41700
O 	O 	0.37564 0.35718 0.67913 -0.52500
O 	O 	0.43347 0.40099 0.93279 -0.46700
O 	O 	0.39968 0.40506 0.34223 -0.53300
Ni	Ni	0.98446 0.70157 0.81120 1.10500
C 	C 	0.12888 0.78547 0.95444 -0.19100
C 	C 	0.11570 0.78511 0.75319 0.20700
C 	C 	0.15348 0.83297 0.63209 -0.07500
H 	H 	0.14324 0.83268 0.47578 0.06100
C 	C 	0.08825 0.73400 0.08468 0.41800
O 	O 	0.04230 0.69052 0.01247 -0.52500
O 	O 	0.10013 0.73433 0.26613 -0.46700
O 	O 	0.06634 0.73840 0.67557 -0.53300
Ni	Ni	0.96510 0.61623 0.14453 1.10400
C 	C 	0.88120 0.67675 0.28777 -0.18900
C 	C 	0.88156 0.66393 0.08652 0.20600
C 	C 	0.83370 0.65385 0.96542 -0.07300
H 	H 	0.83399 0.64390 0.80911 0.06000
C 	C 	0.93267 0.68759 0.41801 0.41700
O 	O 	0.97615 0.68512 0.34580 -0.52500
O 	O 	0.93234 0.69914 0.59946 -0.46700
O 	O 	0.92827 0.66128 0.00890 -0.53300
Ni	Ni	0.63177 0.94956 0.47786 1.10500
C 	C 	0.54787 0.01008 0.62110 -0.18900
C 	C 	0.54823 0.99726 0.41985 0.20600
C 	C 	0.50037 0.98718 0.29875 -0.07400
H 	H 	0.50066 0.97723 0.14244 0.06100
C 	C 	0.59934 0.02092 0.75134 0.41700
O 	O 	0.64282 0.01845 0.67913 -0.52500
O 	O 	0.59901 0.03247 0.93279 -0.46700
O 	O 	0.59494 0.99461 0.34223 -0.53300
Ni	Ni	0.29843 0.28290 0.81120 1.10500
C 	C 	0.21453 0.34342 0.95444 -0.19000
C 	C 	0.21489 0.33060 0.75319 0.20700
C 	C 	0.16703 0.32052 0.63209 -0.07400
H 	H 	0.16732 0.31057 0.47578 0.06100
C 	C 	0.26600 0.35426 0.08468 0.41800
O 	O 	0.30948 0.35179 0.01247 -0.52500
O 	O 	0.26567 0.36581 0.26613 -0.46700
O 	O 	0.26160 0.32795 0.67557 -0.53300
Ni	Ni	0.61623 0.65113 0.85547 1.10500
C 	C 	0.67675 0.79555 0.71223 -0.18900
C 	C 	0.66393 0.78237 0.91348 0.20600
C 	C 	0.65385 0.82015 0.03458 -0.07300
H 	H 	0.64390 0.80991 0.19089 0.06000
C 	C 	0.68759 0.75492 0.58199 0.41700
O 	O 	0.68512 0.70897 0.65420 -0.52500
O 	O 	0.69914 0.76680 0.40054 -0.46700
O 	O 	0.66128 0.73301 0.99110 -0.53300
Ni	Ni	0.28290 0.98446 0.18880 1.10500
C 	C 	0.34342 0.12888 0.04556 -0.19100
C 	C 	0.33060 0.11570 0.24681 0.20700
C 	C 	0.32052 0.15348 0.36791 -0.07500
H 	H 	0.31057 0.14324 0.52422 0.06100
C 	C 	0.35426 0.08825 0.91532 0.41800
O 	O 	0.35179 0.04230 0.98753 -0.52500
O 	O 	0.36581 0.10013 0.73387 -0.46700
O 	O 	0.32795 0.06634 0.32443 -0.53300
Ni	Ni	0.94956 0.31780 0.52214 1.10500
C 	C 	0.01008 0.46222 0.37890 -0.19000
C 	C 	0.99726 0.44904 0.58015 0.20600
C 	C 	0.98718 0.48682 0.70125 -0.07400
H 	H 	0.97723 0.47658 0.85756 0.06100
C 	C 	0.02092 0.42159 0.24866 0.41700
O 	O 	0.01845 0.37564 0.32087 -0.52500
O 	O 	0.03247 0.43347 0.06721 -0.46700
O 	O 	0.99461 0.39968 0.65777 -0.53300
Ni	Ni	0.34887 0.96510 0.85547 1.10400
C 	C 	0.20445 0.88120 0.71223 -0.18900
C 	C 	0.21763 0.88156 0.91348 0.20500
C 	C 	0.17985 0.83370 0.03458 -0.07200
H 	H 	0.19009 0.83399 0.19089 0.06000
C 	C 	0.24508 0.93267 0.58199 0.41700
O 	O 	0.29103 0.97615 0.65420 -0.52500
O 	O 	0.23320 0.93234 0.40054 -0.46700
O 	O 	0.26699 0.92827 0.99110 -0.53300
Ni	Ni	0.01554 0.29843 0.18880 1.10500
C 	C 	0.87112 0.21453 0.04556 -0.19100
C 	C 	0.88430 0.21489 0.24681 0.20700
C 	C 	0.84652 0.16703 0.36791 -0.07500
H 	H 	0.85676 0.16732 0.52422 0.06100
C 	C 	0.91175 0.26600 0.91532 0.41800
O 	O 	0.95770 0.30948 0.98753 -0.52500
O 	O 	0.89987 0.26567 0.73387 -0.46700
O 	O 	0.93366 0.26160 0.32443 -0.53300
Ni	Ni	0.68220 0.63177 0.52214 1.10500
C 	C 	0.53778 0.54787 0.37890 -0.19000
C 	C 	0.55096 0.54823 0.58015 0.20600
C 	C 	0.51318 0.50037 0.70125 -0.07400
H 	H 	0.52342 0.50066 0.85756 0.06000
C 	C 	0.57841 0.59934 0.24866 0.41700
O 	O 	0.62436 0.64282 0.32087 -0.52500
O 	O 	0.56653 0.59901 0.06721 -0.46700
O 	O 	0.60032 0.59494 0.65777 -0.53300
Ni	Ni	0.03490 0.38377 0.85547 1.10400
C 	C 	0.11880 0.32325 0.71223 -0.18900
C 	C 	0.11844 0.33607 0.91348 0.20600
C 	C 	0.16630 0.34615 0.03458 -0.07300
H 	H 	0.16601 0.35610 0.19089 0.06000
C 	C 	0.06733 0.31241 0.58199 0.41700
O 	O 	0.02385 0.31488 0.65420 -0.52500
O 	O 	0.06766 0.30086 0.40054 -0.46700
O 	O 	0.07173 0.33872 0.99110 -0.53300
Ni	Ni	0.70157 0.71710 0.18880 1.10500
C 	C 	0.78547 0.65658 0.04556 -0.19000
C 	C 	0.78511 0.66940 0.24681 0.20700
C 	C 	0.83297 0.67948 0.36791 -0.07400
H 	H 	0.83268 0.68943 0.52422 0.06100
C 	C 	0.73400 0.64574 0.91532 0.41800
O 	O 	0.69052 0.64821 0.98753 -0.52500
O 	O 	0.73433 0.63419 0.73387 -0.46700
O 	O 	0.73840 0.67205 0.32443 -0.53300
Ni	Ni	0.36823 0.05044 0.52214 1.10500
C 	C 	0.45213 0.98992 0.37890 -0.18900
C 	C 	0.45177 0.00274 0.58015 0.20600
C 	C 	0.49963 0.01282 0.70125 -0.07400
H 	H 	0.49934 0.02277 0.85756 0.06100
C 	C 	0.40066 0.97908 0.24866 0.41700
O 	O 	0.35718 0.98155 0.32087 -0.52500
O 	O 	0.40099 0.96753 0.06721 -0.46700
O 	O 	0.40506 0.00539 0.65777 -0.53300
