data_crystal

_cell_length_a 26.17900
_cell_length_b 26.17900
_cell_length_c 6.65200
_cell_angle_alpha 90.00000
_cell_angle_beta  90.00000
_cell_angle_gamma 120.00000

_symmetry_space_group_name_	'P 1'
_symmetry_space_group_name_H-M	'P 1'

loop_
_symmetry_equiv_pos_as_xyz
  x,y,z

loop_
_atom_site_label
_atom_site_type_symbol
_atom_site_fract_x
_atom_site_fract_y
_atom_site_fract_z
_atom_site_charge
Zn	Zn	0.38790 0.35068 0.15211 1.21600
C 	C 	0.32290 0.20386 0.28779 -0.20400
C 	C 	0.34291 0.22040 0.09164 0.19900
C 	C 	0.35335 0.18320 0.97052 -0.07200
H 	H 	0.36889 0.19605 0.81817 0.05200
C 	C 	0.31168 0.24386 0.41805 0.44000
O 	O 	0.32032 0.29230 0.35040 -0.56900
O 	O 	0.29364 0.22895 0.59490 -0.50400
O 	O 	0.35220 0.27243 0.01900 -0.56000
Zn	Zn	0.05457 0.68401 0.48544 1.21700
C 	C 	0.98957 0.53719 0.62112 -0.20400
C 	C 	0.00958 0.55373 0.42497 0.20100
C 	C 	0.02002 0.51653 0.30385 -0.07200
H 	H 	0.03556 0.52938 0.15150 0.05200
C 	C 	0.97835 0.57719 0.75138 0.44000
O 	O 	0.98699 0.62563 0.68373 -0.56900
O 	O 	0.96031 0.56228 0.92823 -0.50500
O 	O 	0.01887 0.60576 0.35233 -0.56000
Zn	Zn	0.72123 0.01735 0.81878 1.21700
C 	C 	0.65623 0.87053 0.95446 -0.20500
C 	C 	0.67624 0.88707 0.75831 0.20200
C 	C 	0.68668 0.84987 0.63719 -0.07200
H 	H 	0.70222 0.86272 0.48484 0.05200
C 	C 	0.64501 0.91053 0.08472 0.44000
O 	O 	0.65365 0.95897 0.01707 -0.56900
O 	O 	0.62697 0.89562 0.26157 -0.50500
O 	O 	0.68553 0.93910 0.68567 -0.56100
Zn	Zn	0.64932 0.03722 0.15211 1.21700
C 	C 	0.79614 0.11904 0.28779 -0.20300
C 	C 	0.77960 0.12251 0.09164 0.20000
C 	C 	0.81680 0.17015 0.97052 -0.07000
H 	H 	0.80395 0.17284 0.81817 0.05200
C 	C 	0.75614 0.06782 0.41805 0.43900
O 	O 	0.70770 0.02802 0.35040 -0.56900
O 	O 	0.77105 0.06469 0.59490 -0.50400
O 	O 	0.72757 0.07977 0.01900 -0.56000
Zn	Zn	0.31599 0.37055 0.48544 1.21700
C 	C 	0.46281 0.45237 0.62112 -0.20400
C 	C 	0.44627 0.45584 0.42497 0.20100
C 	C 	0.48347 0.50348 0.30385 -0.07200
H 	H 	0.47062 0.50617 0.15150 0.05200
C 	C 	0.42281 0.40115 0.75138 0.44000
O 	O 	0.37437 0.36135 0.68373 -0.56900
O 	O 	0.43772 0.39802 0.92823 -0.50500
O 	O 	0.39424 0.41310 0.35233 -0.56100
Zn	Zn	0.98265 0.70389 0.81878 1.21700
C 	C 	0.12947 0.78571 0.95446 -0.20600
C 	C 	0.11293 0.78918 0.75831 0.20200
C 	C 	0.15013 0.83682 0.63719 -0.07200
H 	H 	0.13728 0.83951 0.48484 0.05200
C 	C 	0.08947 0.73449 0.08472 0.44100
O 	O 	0.04103 0.69469 0.01707 -0.56900
O 	O 	0.10438 0.73136 0.26157 -0.50500
O 	O 	0.06090 0.74644 0.68567 -0.56100
Zn	Zn	0.96278 0.61210 0.15211 1.21700
C 	C 	0.88096 0.67710 0.28779 -0.20300
C 	C 	0.87749 0.65709 0.09164 0.20000
C 	C 	0.82985 0.64665 0.97052 -0.07100
H 	H 	0.82716 0.63111 0.81817 0.05200
C 	C 	0.93218 0.68832 0.41805 0.44000
O 	O 	0.97198 0.67968 0.35040 -0.56900
O 	O 	0.93531 0.70636 0.59490 -0.50400
O 	O 	0.92023 0.64780 0.01900 -0.56000
Zn	Zn	0.62945 0.94543 0.48544 1.21700
C 	C 	0.54763 0.01043 0.62112 -0.20400
C 	C 	0.54416 0.99042 0.42497 0.20100
C 	C 	0.49652 0.97998 0.30385 -0.07200
H 	H 	0.49383 0.96444 0.15150 0.05200
C 	C 	0.59885 0.02165 0.75138 0.44000
O 	O 	0.63865 0.01301 0.68373 -0.56900
O 	O 	0.60198 0.03969 0.92823 -0.50500
O 	O 	0.58690 0.98113 0.35233 -0.56000
Zn	Zn	0.29611 0.27877 0.81878 1.21700
C 	C 	0.21429 0.34377 0.95446 -0.20500
C 	C 	0.21082 0.32376 0.75831 0.20200
C 	C 	0.16318 0.31332 0.63719 -0.07200
H 	H 	0.16049 0.29778 0.48484 0.05200
C 	C 	0.26551 0.35499 0.08472 0.44000
O 	O 	0.30531 0.34635 0.01707 -0.56900
O 	O 	0.26864 0.37303 0.26157 -0.50500
O 	O 	0.25356 0.31447 0.68567 -0.56100
Zn	Zn	0.61210 0.64932 0.84789 1.21700
C 	C 	0.67710 0.79614 0.71221 -0.20300
C 	C 	0.65709 0.77960 0.90836 0.20000
C 	C 	0.64665 0.81680 0.02948 -0.07100
H 	H 	0.63111 0.80395 0.18183 0.05200
C 	C 	0.68832 0.75614 0.58195 0.44000
O 	O 	0.67968 0.70770 0.64960 -0.56900
O 	O 	0.70636 0.77105 0.40510 -0.50400
O 	O 	0.64780 0.72757 0.98100 -0.56000
Zn	Zn	0.27877 0.98265 0.18122 1.21700
C 	C 	0.34377 0.12947 0.04554 -0.20500
C 	C 	0.32376 0.11293 0.24169 0.20200
C 	C 	0.31332 0.15013 0.36281 -0.07200
H 	H 	0.29778 0.13728 0.51516 0.05200
C 	C 	0.35499 0.08947 0.91528 0.44000
O 	O 	0.34635 0.04103 0.98293 -0.56900
O 	O 	0.37303 0.10438 0.73843 -0.50500
O 	O 	0.31447 0.06090 0.31433 -0.56100
Zn	Zn	0.94543 0.31599 0.51456 1.21700
C 	C 	0.01043 0.46281 0.37888 -0.20400
C 	C 	0.99042 0.44627 0.57503 0.20100
C 	C 	0.97998 0.48347 0.69615 -0.07200
H 	H 	0.96444 0.47062 0.84850 0.05200
C 	C 	0.02165 0.42281 0.24862 0.44000
O 	O 	0.01301 0.37437 0.31627 -0.56900
O 	O 	0.03969 0.43772 0.07177 -0.50500
O 	O 	0.98113 0.39424 0.64767 -0.56000
Zn	Zn	0.35068 0.96278 0.84789 1.21700
C 	C 	0.20386 0.88096 0.71221 -0.20300
C 	C 	0.22040 0.87749 0.90836 0.20000
C 	C 	0.18320 0.82985 0.02948 -0.07000
H 	H 	0.19605 0.82716 0.18183 0.05200
C 	C 	0.24386 0.93218 0.58195 0.43900
O 	O 	0.29230 0.97198 0.64960 -0.56900
O 	O 	0.22895 0.93531 0.40510 -0.50400
O 	O 	0.27243 0.92023 0.98100 -0.56000
Zn	Zn	0.01735 0.29611 0.18122 1.21700
C 	C 	0.87053 0.21429 0.04554 -0.20600
C 	C 	0.88707 0.21082 0.24169 0.20200
C 	C 	0.84987 0.16318 0.36281 -0.07200
H 	H 	0.86272 0.16049 0.51516 0.05200
C 	C 	0.91053 0.26551 0.91528 0.44100
O 	O 	0.95897 0.30531 0.98293 -0.56900
O 	O 	0.89562 0.26864 0.73843 -0.50500
O 	O 	0.93910 0.25356 0.31433 -0.56100
Zn	Zn	0.68401 0.62945 0.51456 1.21700
C 	C 	0.53719 0.54763 0.37888 -0.20400
C 	C 	0.55373 0.54416 0.57503 0.20100
C 	C 	0.51653 0.49652 0.69615 -0.07200
H 	H 	0.52938 0.49383 0.84850 0.05200
C 	C 	0.57719 0.59885 0.24862 0.44000
O 	O 	0.62563 0.63865 0.31627 -0.56900
O 	O 	0.56228 0.60198 0.07177 -0.50500
O 	O 	0.60576 0.58690 0.64767 -0.56100
Zn	Zn	0.03722 0.38790 0.84789 1.21700
C 	C 	0.11904 0.32290 0.71221 -0.20300
C 	C 	0.12251 0.34291 0.90836 0.20000
C 	C 	0.17015 0.35335 0.02948 -0.07100
H 	H 	0.17284 0.36889 0.18183 0.05200
C 	C 	0.06782 0.31168 0.58195 0.44000
O 	O 	0.02802 0.32032 0.64960 -0.56900
O 	O 	0.06469 0.29364 0.40510 -0.50400
O 	O 	0.07977 0.35220 0.98100 -0.56000
Zn	Zn	0.70389 0.72123 0.18122 1.21700
C 	C 	0.78571 0.65623 0.04554 -0.20500
C 	C 	0.78918 0.67624 0.24169 0.20200
C 	C 	0.83682 0.68668 0.36281 -0.07200
H 	H 	0.83951 0.70222 0.51516 0.05200
C 	C 	0.73449 0.64501 0.91528 0.44000
O 	O 	0.69469 0.65365 0.98293 -0.56900
O 	O 	0.73136 0.62697 0.73843 -0.50500
O 	O 	0.74644 0.68553 0.31433 -0.56100
Zn	Zn	0.37055 0.05457 0.51456 1.21700
C 	C 	0.45237 0.98957 0.37888 -0.20400
C 	C 	0.45584 0.00958 0.57503 0.20100
C 	C 	0.50348 0.02002 0.69615 -0.07200
H 	H 	0.50617 0.03556 0.84850 0.05200
C 	C 	0.40115 0.97835 0.24862 0.44000
O 	O 	0.36135 0.98699 0.31627 -0.56900
O 	O 	0.39802 0.96031 0.07177 -0.50500
O 	O 	0.41310 0.01887 0.64767 -0.56000
