data_crystal

_cell_length_a 8.43200
_cell_length_b 12.95400
_cell_length_c 15.02300
_cell_angle_alpha 102.27500
_cell_angle_beta  104.02100
_cell_angle_gamma 97.42000

_symmetry_space_group_name_	'P 1'
_symmetry_space_group_name_H-M	'P 1'

loop_
_symmetry_equiv_pos_as_xyz
  x,y,z

loop_
_atom_site_label
_atom_site_type_symbol
_atom_site_fract_x
_atom_site_fract_y
_atom_site_fract_z
_atom_site_charge
N 	N 	0.76980 0.52480 0.95170 -0.26700
C 	C 	0.57510 0.64180 0.95290 -0.20400
H 	H 	0.55200 0.70880 0.97670 0.06600
Cu	Cu	0.35926 0.96637 0.73958 0.72600
C 	C 	0.29900 0.41340 0.51450 -0.06800
H 	H 	0.29380 0.46180 0.47320 0.04400
H 	H 	0.34530 0.45610 0.57950 0.05900
N 	N 	0.66400 0.09780 0.39820 -0.27700
N 	N 	0.40790 0.33690 0.49160 -0.20900
H 	H 	0.38180 0.29750 0.43450 0.09900
C 	C 	0.71630 0.04450 0.46360 0.08100
H 	H 	0.74910 0.97960 0.44410 -0.04300
N 	N 	0.24150 0.39640 0.72470 -0.24400
H 	H 	0.24490 0.46310 0.72480 0.11300
C 	C 	0.72430 0.07990 0.55760 -0.15100
H 	H 	0.76070 0.03990 0.60040 0.05600
C 	C 	0.67670 0.17680 0.58690 0.05700
H 	H 	0.68670 0.20570 0.65060 0.00300
C 	C 	0.61620 0.22770 0.52170 -0.12500
O 	O 	0.37930 0.27840 0.78690 -0.30000
C 	C 	0.54570 0.32410 0.55350 0.22100
C 	C 	0.11440 0.27460 0.56160 -0.18300
H 	H 	0.01780 0.21850 0.52730 0.05200
H 	H 	0.21160 0.24120 0.56710 0.08200
O 	O 	0.61250 0.38790 0.63230 -0.24000
C 	C 	0.64920 0.44720 0.88990 0.09500
H 	H 	0.67380 0.37960 0.87030 -0.02600
C 	C 	0.45120 0.56260 0.88770 0.09100
H 	H 	0.34430 0.57560 0.86680 -0.04300
C 	C 	0.48910 0.46330 0.85400 -0.14600
C 	C 	0.36450 0.37140 0.78480 0.26100
C 	C 	0.73290 0.62150 0.98270 0.16400
H 	H 	0.81620 0.67610 0.02550 -0.10500
C 	C 	0.09990 0.31740 0.65800 0.05400
H 	H 	0.00190 0.35010 0.65230 -0.00700
H 	H 	0.08080 0.25720 0.68550 -0.00800
C 	C 	0.12830 0.35480 0.50240 -0.02500
H 	H 	0.08120 0.31690 0.43610 -0.00500
H 	H 	0.06050 0.40750 0.51730 0.01100
C 	C 	0.61580 0.18740 0.42750 0.07400
H 	H 	0.57950 0.22640 0.38380 -0.05400
N 	N 	0.23020 0.47520 0.04830 -0.26400
C 	C 	0.42490 0.35820 0.04710 -0.08900
H 	H 	0.44800 0.29120 0.02330 0.00100
Cu	Cu	0.64074 0.03363 0.26042 0.72800
C 	C 	0.70100 0.58660 0.48550 -0.04200
H 	H 	0.70620 0.53820 0.52680 0.04700
H 	H 	0.65470 0.54390 0.42050 0.05400
N 	N 	0.33600 0.90220 0.60180 -0.27700
N 	N 	0.59210 0.66310 0.50840 -0.21400
H 	H 	0.61820 0.70250 0.56550 0.10700
C 	C 	0.28370 0.95550 0.53640 0.04600
H 	H 	0.25090 0.02040 0.55590 -0.03700
N 	N 	0.75850 0.60360 0.27530 -0.23500
H 	H 	0.75510 0.53690 0.27520 0.11800
C 	C 	0.27570 0.92010 0.44240 -0.14700
H 	H 	0.23930 0.96010 0.39960 0.03100
C 	C 	0.32330 0.82320 0.41310 0.03800
H 	H 	0.31330 0.79430 0.34940 -0.00900
C 	C 	0.38380 0.77230 0.47830 -0.13000
O 	O 	0.62070 0.72160 0.21310 -0.30600
C 	C 	0.45430 0.67590 0.44650 0.22100
C 	C 	0.88560 0.72540 0.43840 -0.14700
H 	H 	0.98220 0.78150 0.47270 0.06800
H 	H 	0.78840 0.75880 0.43290 0.07700
O 	O 	0.38750 0.61210 0.36770 -0.25800
C 	C 	0.35080 0.55280 0.11010 0.05700
H 	H 	0.32620 0.62040 0.12970 -0.03900
C 	C 	0.54880 0.43740 0.11230 0.00400
H 	H 	0.65570 0.42440 0.13320 -0.01400
C 	C 	0.51090 0.53670 0.14600 -0.11400
C 	C 	0.63550 0.62860 0.21520 0.24600
C 	C 	0.26710 0.37850 0.01730 -0.04100
H 	H 	0.18380 0.32390 0.97450 -0.00000
C 	C 	0.90010 0.68260 0.34200 0.02000
H 	H 	0.99810 0.64990 0.34770 0.03000
H 	H 	0.91920 0.74280 0.31450 0.01900
C 	C 	0.87170 0.64520 0.49760 -0.06900
H 	H 	0.91880 0.68310 0.56390 0.03200
H 	H 	0.93950 0.59250 0.48270 0.05000
C 	C 	0.38420 0.81260 0.57250 0.06300
H 	H 	0.42050 0.77360 0.61620 -0.05200
Cu	Cu	-0.00000 0.50000 -0.00000 0.74800
