data_crystal

_cell_length_a 12.34310
_cell_length_b 12.95440
_cell_length_c 19.39340
_cell_angle_alpha 90.00000
_cell_angle_beta  91.94400
_cell_angle_gamma 90.00000

_symmetry_space_group_name_	'P 1'
_symmetry_space_group_name_H-M	'P 1'

loop_
_symmetry_equiv_pos_as_xyz
  x,y,z

loop_
_atom_site_label
_atom_site_type_symbol
_atom_site_fract_x
_atom_site_fract_y
_atom_site_fract_z
_atom_site_charge
Nb	Nb	0.10101 0.89969 0.05461 1.08000
Cl	Cl	0.97285 0.75622 0.06822 -0.58100
N 	N 	0.21180 0.79410 0.11350 -0.18000
Nb	Nb	0.12477 0.10701 0.99601 1.08400
Cl	Cl	0.17676 0.80728 0.95662 -0.62300
Nb	Nb	0.95200 0.06401 0.09113 1.08000
Cl	Cl	0.26537 0.00714 0.05895 -0.64700
Cl	Cl	0.06079 0.95721 0.17169 -0.60100
C 	C 	0.27930 0.75260 0.14580 0.13300
N 	N 	0.26060 0.21800 0.99170 -0.18400
Cl	Cl	0.20176 0.05008 0.88721 -0.63900
Cl	Cl	0.09085 0.20022 0.10345 -0.58200
N 	N 	0.89880 0.13380 0.18810 -0.18400
S 	S 	0.37418 0.69596 0.19265 -0.13000
C 	C 	0.34080 0.26250 0.98400 0.11300
C 	C 	0.86420 0.17580 0.23480 0.12600
Cu	Cu	0.51976 0.76125 0.13537 0.84700
S 	S 	0.45543 0.32258 0.97174 -0.16400
S 	S 	0.81592 0.23879 0.29988 -0.11500
N 	N 	0.51650 0.91260 0.11640 -0.31200
C 	C 	0.52910 0.99680 0.10220 0.39500
C 	C 	0.54340 0.10390 0.08330 -0.86100
H 	H 	0.60280 0.13390 0.11150 0.32300
H 	H 	0.47640 0.14210 0.09110 0.31500
H 	H 	0.56080 0.10830 0.03440 0.30200
Nb	Nb	0.39899 0.39969 0.44539 1.08400
Cl	Cl	0.52715 0.25622 0.43178 -0.58100
N 	N 	0.28820 0.29410 0.38650 -0.17900
Nb	Nb	0.37523 0.60701 0.50399 1.08500
Cl	Cl	0.32324 0.30728 0.54338 -0.62200
Nb	Nb	0.54800 0.56401 0.40887 1.08200
Cl	Cl	0.23463 0.50714 0.44105 -0.65600
Cl	Cl	0.43921 0.45721 0.32831 -0.59500
C 	C 	0.22070 0.25260 0.35420 0.13400
N 	N 	0.23940 0.71800 0.50830 -0.18300
Cl	Cl	0.29824 0.55008 0.61279 -0.64100
Cl	Cl	0.40915 0.70022 0.39655 -0.59100
N 	N 	0.60120 0.63380 0.31190 -0.18200
S 	S 	0.12582 0.19596 0.30735 -0.12400
C 	C 	0.15920 0.76250 0.51600 0.11400
C 	C 	0.63580 0.67580 0.26520 0.12800
Cu	Cu	0.98024 0.26125 0.36463 0.84600
S 	S 	0.04457 0.82258 0.52826 -0.16700
S 	S 	0.68408 0.73879 0.20012 -0.11400
N 	N 	0.98350 0.41260 0.38360 -0.31300
C 	C 	0.97090 0.49680 0.39780 0.40100
C 	C 	0.95660 0.60390 0.41670 -0.86400
H 	H 	0.89720 0.63390 0.38850 0.32400
H 	H 	0.02360 0.64210 0.40890 0.31500
H 	H 	0.93920 0.60830 0.46560 0.30300
Nb	Nb	0.89899 0.10031 0.94539 1.08100
Cl	Cl	0.02715 0.24378 0.93178 -0.58000
N 	N 	0.78820 0.20590 0.88650 -0.18000
Nb	Nb	0.87523 0.89299 0.00399 1.08400
Cl	Cl	0.82324 0.19272 0.04338 -0.62300
Nb	Nb	0.04800 0.93599 0.90887 1.08000
Cl	Cl	0.73463 0.99286 0.94105 -0.64700
Cl	Cl	0.93921 0.04279 0.82831 -0.60100
C 	C 	0.72070 0.24740 0.85420 0.13300
N 	N 	0.73940 0.78200 0.00830 -0.18400
Cl	Cl	0.79824 0.94992 0.11279 -0.63900
Cl	Cl	0.90915 0.79978 0.89655 -0.58200
N 	N 	0.10120 0.86620 0.81190 -0.18400
S 	S 	0.62582 0.30404 0.80735 -0.13000
C 	C 	0.65920 0.73750 0.01600 0.11300
C 	C 	0.13580 0.82420 0.76520 0.12600
Cu	Cu	0.48024 0.23875 0.86463 0.84700
S 	S 	0.54457 0.67742 0.02826 -0.16400
S 	S 	0.18408 0.76121 0.70012 -0.11500
N 	N 	0.48350 0.08740 0.88360 -0.31200
C 	C 	0.47090 0.00320 0.89780 0.39500
C 	C 	0.45660 0.89610 0.91670 -0.86100
H 	H 	0.39720 0.86610 0.88850 0.32300
H 	H 	0.52360 0.85790 0.90890 0.31500
H 	H 	0.43920 0.89170 0.96560 0.30200
Nb	Nb	0.60101 0.60031 0.55461 1.08400
Cl	Cl	0.47285 0.74378 0.56822 -0.58100
N 	N 	0.71180 0.70590 0.61350 -0.17900
Nb	Nb	0.62477 0.39299 0.49601 1.08500
Cl	Cl	0.67676 0.69272 0.45662 -0.62200
Nb	Nb	0.45200 0.43599 0.59113 1.08200
Cl	Cl	0.76537 0.49286 0.55895 -0.65600
Cl	Cl	0.56079 0.54279 0.67169 -0.59500
C 	C 	0.77930 0.74740 0.64580 0.13400
N 	N 	0.76060 0.28200 0.49170 -0.18300
Cl	Cl	0.70176 0.44992 0.38721 -0.64100
Cl	Cl	0.59085 0.29978 0.60345 -0.59100
N 	N 	0.39880 0.36620 0.68810 -0.18200
S 	S 	0.87418 0.80404 0.69265 -0.12400
C 	C 	0.84080 0.23750 0.48400 0.11400
C 	C 	0.36420 0.32420 0.73480 0.12800
Cu	Cu	0.01976 0.73875 0.63537 0.84600
S 	S 	0.95543 0.17742 0.47174 -0.16700
S 	S 	0.31592 0.26121 0.79988 -0.11400
N 	N 	0.01650 0.58740 0.61640 -0.31300
C 	C 	0.02910 0.50320 0.60220 0.40100
C 	C 	0.04340 0.39610 0.58330 -0.86400
H 	H 	0.10280 0.36610 0.61150 0.32400
H 	H 	0.97640 0.35790 0.59110 0.31500
H 	H 	0.06080 0.39170 0.53440 0.30300
