data_crystal

_cell_length_a 9.63800
_cell_length_b 20.59790
_cell_length_c 10.42070
_cell_angle_alpha 90.00000
_cell_angle_beta  95.03400
_cell_angle_gamma 90.00000

_symmetry_space_group_name_	'P 1'
_symmetry_space_group_name_H-M	'P 1'

loop_
_symmetry_equiv_pos_as_xyz
  x,y,z

loop_
_atom_site_label
_atom_site_type_symbol
_atom_site_fract_x
_atom_site_fract_y
_atom_site_fract_z
_atom_site_charge
Zn	Zn	0.17007 0.30740 0.36014 1.23600
Zn	Zn	0.69379 0.45704 0.59123 1.23300
Zn	Zn	0.92422 0.42964 0.12006 1.23300
P 	P 	0.06112 0.29241 0.05967 0.47900
H 	H 	0.97100 0.24370 0.08000 -0.05400
P 	P 	0.43148 0.39996 0.43668 0.46100
H 	H 	0.47500 0.41710 0.32600 -0.06400
P 	P 	0.78878 0.49864 0.87175 0.43800
H 	H 	0.73200 0.55740 0.86800 -0.05200
P 	P 	0.88514 0.38787 0.40393 0.46400
H 	H 	0.81000 0.33550 0.41500 -0.05400
O 	O 	0.97760 0.35326 0.03650 -0.46900
O 	O 	0.15970 0.29428 0.17830 -0.47500
O 	O 	0.13340 0.27431 0.94189 -0.42700
O 	O 	0.35580 0.33635 0.41890 -0.42400
O 	O 	0.33790 0.45546 0.47220 -0.46200
O 	O 	0.55740 0.39255 0.53300 -0.43200
O 	O 	0.69890 0.45588 0.77826 -0.42200
O 	O 	0.78320 0.47472 0.00785 -0.42100
O 	O 	0.93410 0.50605 0.82964 -0.47300
O 	O 	0.86380 0.43175 0.51850 -0.41300
O 	O 	0.03600 0.36926 0.41130 -0.46600
O 	O 	0.83030 0.41805 0.27770 -0.44200
Zn	Zn	0.82993 0.80740 0.13986 1.23700
Zn	Zn	0.30621 0.95704 0.90877 1.23300
Zn	Zn	0.07578 0.92964 0.37994 1.23300
P 	P 	0.93888 0.79241 0.44033 0.49000
H 	H 	0.02900 0.74370 0.42000 -0.05600
P 	P 	0.56852 0.89996 0.06332 0.46200
H 	H 	0.52500 0.91710 0.17400 -0.06300
P 	P 	0.21122 0.99864 0.62825 0.43700
H 	H 	0.26800 0.05740 0.63200 -0.05000
P 	P 	0.11486 0.88787 0.09607 0.45900
H 	H 	0.19000 0.83550 0.08500 -0.05400
O 	O 	0.02240 0.85326 0.46350 -0.47400
O 	O 	0.84030 0.79428 0.32170 -0.47500
O 	O 	0.86660 0.77431 0.55811 -0.43100
O 	O 	0.64420 0.83635 0.08110 -0.42400
O 	O 	0.66210 0.95546 0.02780 -0.46000
O 	O 	0.44260 0.89255 0.96700 -0.43400
O 	O 	0.30110 0.95588 0.72174 -0.42200
O 	O 	0.21680 0.97472 0.49215 -0.42200
O 	O 	0.06590 0.00605 0.67036 -0.46700
O 	O 	0.13620 0.93175 0.98150 -0.41300
O 	O 	0.96400 0.86926 0.08870 -0.46100
O 	O 	0.16970 0.91805 0.22230 -0.44300
Zn	Zn	0.82993 0.69260 0.63986 1.23700
Zn	Zn	0.30621 0.54296 0.40877 1.23400
Zn	Zn	0.07578 0.57036 0.87994 1.23400
P 	P 	0.93888 0.70759 0.94033 0.48000
H 	H 	0.02900 0.75630 0.92000 -0.05300
P 	P 	0.56852 0.60004 0.56332 0.46200
H 	H 	0.52500 0.58290 0.67400 -0.06300
P 	P 	0.21122 0.50136 0.12825 0.43900
H 	H 	0.26800 0.44260 0.13200 -0.05200
P 	P 	0.11486 0.61213 0.59607 0.46400
H 	H 	0.19000 0.66450 0.58500 -0.05400
O 	O 	0.02240 0.64674 0.96350 -0.46900
O 	O 	0.84030 0.70572 0.82170 -0.47500
O 	O 	0.86660 0.72569 0.05811 -0.42700
O 	O 	0.64420 0.66365 0.58110 -0.42400
O 	O 	0.66210 0.54454 0.52780 -0.46200
O 	O 	0.44260 0.60745 0.46700 -0.43200
O 	O 	0.30110 0.54412 0.22174 -0.42200
O 	O 	0.21680 0.52528 0.99215 -0.42100
O 	O 	0.06590 0.49395 0.17036 -0.47300
O 	O 	0.13620 0.56825 0.48150 -0.41300
O 	O 	0.96400 0.63074 0.58870 -0.46600
O 	O 	0.16970 0.58195 0.72230 -0.44200
Zn	Zn	0.17007 0.19260 0.86014 1.23700
Zn	Zn	0.69379 0.04296 0.09123 1.23300
Zn	Zn	0.92422 0.07036 0.62006 1.23300
P 	P 	0.06112 0.20759 0.55967 0.49000
H 	H 	0.97100 0.25630 0.58000 -0.05600
P 	P 	0.43148 0.10004 0.93668 0.46200
H 	H 	0.47500 0.08290 0.82600 -0.06300
P 	P 	0.78878 0.00136 0.37175 0.43700
H 	H 	0.73200 0.94260 0.36800 -0.05000
P 	P 	0.88514 0.11213 0.90393 0.45900
H 	H 	0.81000 0.16450 0.91500 -0.05400
O 	O 	0.97760 0.14674 0.53650 -0.47400
O 	O 	0.15970 0.20572 0.67830 -0.47500
O 	O 	0.13340 0.22569 0.44189 -0.43100
O 	O 	0.35580 0.16365 0.91890 -0.42400
O 	O 	0.33790 0.04454 0.97220 -0.46000
O 	O 	0.55740 0.10745 0.03300 -0.43400
O 	O 	0.69890 0.04412 0.27826 -0.42200
O 	O 	0.78320 0.02528 0.50785 -0.42200
O 	O 	0.93410 0.99395 0.32964 -0.46700
O 	O 	0.86380 0.06825 0.01850 -0.41300
O 	O 	0.03600 0.13074 0.91130 -0.46100
O 	O 	0.83030 0.08195 0.77770 -0.44300
