data_crystal

_cell_length_a 7.77820
_cell_length_b 9.91740
_cell_length_c 12.79460
_cell_angle_alpha 99.55900
_cell_angle_beta  94.03000
_cell_angle_gamma 94.80300

_symmetry_space_group_name_	'P 1'
_symmetry_space_group_name_H-M	'P 1'

loop_
_symmetry_equiv_pos_as_xyz
  x,y,z

loop_
_atom_site_label
_atom_site_type_symbol
_atom_site_fract_x
_atom_site_fract_y
_atom_site_fract_z
_atom_site_charge
Zn	Zn	0.06072 0.61808 0.13647 1.23400
Zn	Zn	0.45431 0.14424 0.12316 1.23500
Zn	Zn	0.77007 0.56377 0.50060 1.22900
P 	P 	0.07832 0.66381 0.39125 0.44000
H 	H 	0.22200 0.74800 0.43700 -0.02200
P 	P 	0.23942 0.36886 0.04032 0.44800
H 	H 	0.38800 0.45200 0.05500 -0.04900
P 	P 	0.51433 0.35205 0.34672 0.45400
H 	H 	0.43200 0.43800 0.29600 -0.07100
P 	P 	0.25925 0.85431 0.04232 0.46300
H 	H 	0.10100 0.90300 0.03100 -0.03500
O 	O 	0.04750 0.70200 0.28313 -0.42500
O 	O 	0.93010 0.70400 0.45815 -0.41600
O 	O 	0.11420 0.51620 0.38796 -0.47700
O 	O 	0.16610 0.37070 0.92879 -0.45000
O 	O 	0.27220 0.22570 0.05690 -0.44900
O 	O 	0.12570 0.43220 0.12434 -0.44900
O 	O 	0.69720 0.42050 0.38008 -0.44200
O 	O 	0.41430 0.33620 0.44164 -0.45700
O 	O 	0.52070 0.21770 0.27292 -0.41300
O 	O 	0.23970 0.71660 0.07480 -0.45100
O 	O 	0.37120 0.95720 0.12413 -0.45200
O 	O 	0.31940 0.84690 0.93162 -0.44500
Zn	Zn	0.93928 0.38192 0.86353 1.23400
Zn	Zn	0.54569 0.85576 0.87684 1.23500
Zn	Zn	0.22993 0.43623 0.49940 1.22900
P 	P 	0.92168 0.33619 0.60875 0.44000
H 	H 	0.77800 0.25200 0.56300 -0.02200
P 	P 	0.76058 0.63114 0.95968 0.44800
H 	H 	0.61200 0.54800 0.94500 -0.04900
P 	P 	0.48567 0.64795 0.65328 0.45400
H 	H 	0.56800 0.56200 0.70400 -0.07100
P 	P 	0.74075 0.14569 0.95768 0.46300
H 	H 	0.89900 0.09700 0.96900 -0.03500
O 	O 	0.95250 0.29800 0.71687 -0.42500
O 	O 	0.06990 0.29600 0.54185 -0.41600
O 	O 	0.88580 0.48380 0.61204 -0.47700
O 	O 	0.83390 0.62930 0.07121 -0.45000
O 	O 	0.72780 0.77430 0.94310 -0.44900
O 	O 	0.87430 0.56780 0.87566 -0.44900
O 	O 	0.30280 0.57950 0.61992 -0.44200
O 	O 	0.58570 0.66380 0.55836 -0.45700
O 	O 	0.47930 0.78230 0.72708 -0.41300
O 	O 	0.76030 0.28340 0.92520 -0.45100
O 	O 	0.62880 0.04280 0.87587 -0.45200
O 	O 	0.68060 0.15310 0.06838 -0.44500
