data_crystal

_cell_length_a 15.47700
_cell_length_b 25.65600
_cell_length_c 8.28900
_cell_angle_alpha 90.00000
_cell_angle_beta  105.07700
_cell_angle_gamma 90.00000

_symmetry_space_group_name_	'P 1'
_symmetry_space_group_name_H-M	'P 1'

loop_
_symmetry_equiv_pos_as_xyz
  x,y,z

loop_
_atom_site_label
_atom_site_type_symbol
_atom_site_fract_x
_atom_site_fract_y
_atom_site_fract_z
_atom_site_charge
Cd	Cd	0.45314 0.27892 0.17201 1.21700
Cd	Cd	0.95840 0.47159 0.77039 1.23500
O 	O 	0.57316 0.32748 0.33100 -0.39900
O 	O 	0.59760 0.30204 0.10040 -0.38600
O 	O 	0.98127 0.45127 0.27710 -0.41700
O 	O 	0.01199 0.43177 0.54830 -0.39700
O 	O 	0.03661 0.40624 0.91740 -0.39900
O 	O 	0.09414 0.47995 0.03230 -0.45600
O 	O 	0.32388 0.27171 0.58250 -0.39600
O 	O 	0.41535 0.28073 0.42180 -0.50600
N 	N 	0.82452 0.41852 0.75270 -0.18500
N 	N 	0.66440 0.36614 0.72100 -0.10400
N 	N 	0.69215 0.50411 0.43010 -0.13500
N 	N 	0.83780 0.49932 0.55940 -0.17900
N 	N 	0.82378 0.53934 0.45300 -0.17300
H 	H 	0.86430 0.56000 0.43600 0.13900
N 	N 	0.61605 0.65643 0.01950 -0.23200
C 	C 	0.62170 0.32395 0.23640 0.34600
C 	C 	0.71293 0.34851 0.28460 -0.08800
C 	C 	0.72670 0.39155 0.20050 -0.02100
H 	H 	0.67980 0.40520 0.11720 0.04400
C 	C 	0.81020 0.41580 0.23710 0.00300
H 	H 	0.81850 0.44510 0.17670 0.04000
C 	C 	0.87980 0.39723 0.36000 -0.12600
C 	C 	0.96459 0.42893 0.39680 0.36700
C 	C 	0.86956 0.35091 0.44880 0.05300
C 	C 	0.94100 0.32669 0.56760 -0.10500
H 	H 	0.99780 0.34150 0.59280 0.08100
C 	C 	0.92700 0.28207 0.64470 -0.00300
H 	H 	0.97470 0.26630 0.72090 0.03500
C 	C 	0.84210 0.25934 0.61130 -0.04400
H 	H 	0.83350 0.22900 0.66650 0.05200
C 	C 	0.77250 0.28149 0.49890 -0.06400
H 	H 	0.71610 0.26630 0.47880 0.06500
C 	C 	0.78354 0.32688 0.41190 0.03400
C 	C 	0.09410 0.43110 0.02520 0.33400
C 	C 	0.16250 0.39962 0.14890 -0.09500
C 	C 	0.13450 0.35394 0.20450 -0.01900
H 	H 	0.07450 0.34450 0.16950 0.05200
C 	C 	0.19530 0.32126 0.31360 0.00100
H 	H 	0.17490 0.29090 0.35250 0.04200
C 	C 	0.28346 0.33338 0.36310 -0.12000
C 	C 	0.34548 0.29321 0.46410 0.34900
C 	C 	0.31516 0.38110 0.31450 0.04200
C 	C 	0.40540 0.39694 0.37150 -0.10300
H 	H 	0.44570 0.37620 0.44770 0.07100
C 	C 	0.43420 0.44190 0.31650 -0.01500
H 	H 	0.49400 0.45150 0.35480 0.03900
C 	C 	0.37480 0.47412 0.20270 -0.02700
H 	H 	0.39540 0.50460 0.16450 0.04000
C 	C 	0.28650 0.46072 0.14790 -0.08000
H 	H 	0.24760 0.48220 0.07200 0.07200
C 	C 	0.25363 0.41507 0.20420 0.04400
C 	C 	0.81880 0.37722 0.84420 0.01500
H 	H 	0.87000 0.36510 0.92060 0.03000
C 	C 	0.73890 0.35173 0.82940 0.00300
H 	H 	0.73740 0.32330 0.89830 0.04100
C 	C 	0.66970 0.40754 0.62660 0.01100
H 	H 	0.61850 0.41910 0.54880 0.04400
C 	C 	0.74896 0.43340 0.64220 0.01300
C 	C 	0.75754 0.47912 0.54210 0.09900
C 	C 	0.73657 0.54214 0.37760 0.10700
C 	C 	0.69602 0.58229 0.25580 0.04900
C 	C 	0.74550 0.62203 0.21240 -0.12300
H 	H 	0.80670 0.62450 0.26120 0.08300
C 	C 	0.70260 0.65812 0.09500 0.08100
H 	H 	0.73640 0.68500 0.06750 0.00400
C 	C 	0.56910 0.61810 0.06240 0.07100
H 	H 	0.50830 0.61620 0.01010 -0.00400
C 	C 	0.60570 0.58091 0.18040 -0.12700
H 	H 	0.56980 0.55520 0.20870 0.08000
Cd	Cd	0.54686 0.77892 0.32799 1.21700
Cd	Cd	0.04160 0.97159 0.72961 1.23300
O 	O 	0.42684 0.82748 0.16900 -0.40000
O 	O 	0.40240 0.80204 0.39960 -0.38700
O 	O 	0.01873 0.95127 0.22290 -0.41800
O 	O 	0.98801 0.93177 0.95170 -0.39400
O 	O 	0.96339 0.90624 0.58260 -0.39900
O 	O 	0.90586 0.97995 0.46770 -0.45400
O 	O 	0.67612 0.77171 0.91750 -0.39700
O 	O 	0.58465 0.78073 0.07820 -0.50600
N 	N 	0.17548 0.91852 0.74730 -0.18500
N 	N 	0.33560 0.86614 0.77900 -0.10400
N 	N 	0.30785 0.00411 0.06990 -0.13400
N 	N 	0.16220 0.99932 0.94060 -0.18100
N 	N 	0.17622 0.03934 0.04700 -0.17200
H 	H 	0.13570 0.06000 0.06400 0.13900
N 	N 	0.38395 0.15643 0.48050 -0.23200
C 	C 	0.37830 0.82395 0.26360 0.34600
C 	C 	0.28707 0.84851 0.21540 -0.08800
C 	C 	0.27330 0.89155 0.29950 -0.02100
H 	H 	0.32020 0.90520 0.38280 0.04400
C 	C 	0.18980 0.91580 0.26290 0.00300
H 	H 	0.18150 0.94510 0.32330 0.04000
C 	C 	0.12020 0.89723 0.14000 -0.12600
C 	C 	0.03541 0.92893 0.10320 0.36500
C 	C 	0.13044 0.85091 0.05120 0.05400
C 	C 	0.05900 0.82669 0.93240 -0.10600
H 	H 	0.00220 0.84150 0.90720 0.08000
C 	C 	0.07300 0.78207 0.85530 -0.00100
H 	H 	0.02530 0.76630 0.77910 0.03400
C 	C 	0.15790 0.75934 0.88870 -0.04600
H 	H 	0.16650 0.72900 0.83350 0.05300
C 	C 	0.22750 0.78149 0.00110 -0.06200
H 	H 	0.28390 0.76630 0.02120 0.06500
C 	C 	0.21646 0.82688 0.08810 0.03300
C 	C 	0.90590 0.93110 0.47480 0.33500
C 	C 	0.83750 0.89962 0.35110 -0.09500
C 	C 	0.86550 0.85394 0.29550 -0.01800
H 	H 	0.92550 0.84450 0.33050 0.05300
C 	C 	0.80470 0.82126 0.18640 0.00100
H 	H 	0.82510 0.79090 0.14750 0.04300
C 	C 	0.71654 0.83338 0.13690 -0.11900
C 	C 	0.65452 0.79321 0.03590 0.35000
C 	C 	0.68484 0.88110 0.18550 0.04100
C 	C 	0.59460 0.89694 0.12850 -0.10100
H 	H 	0.55430 0.87620 0.05230 0.07100
C 	C 	0.56580 0.94190 0.18350 -0.01800
H 	H 	0.50600 0.95150 0.14520 0.04000
C 	C 	0.62520 0.97412 0.29730 -0.02200
H 	H 	0.60460 0.00460 0.33550 0.03800
C 	C 	0.71350 0.96072 0.35210 -0.08200
H 	H 	0.75240 0.98220 0.42800 0.07400
C 	C 	0.74637 0.91507 0.29580 0.04600
C 	C 	0.18120 0.87722 0.65580 0.01500
H 	H 	0.13000 0.86510 0.57940 0.03000
C 	C 	0.26110 0.85173 0.67060 0.00300
H 	H 	0.26260 0.82330 0.60170 0.04100
C 	C 	0.33030 0.90754 0.87340 0.01100
H 	H 	0.38150 0.91910 0.95120 0.04300
C 	C 	0.25104 0.93340 0.85780 0.01300
C 	C 	0.24246 0.97912 0.95790 0.09800
C 	C 	0.26343 0.04214 0.12240 0.10700
C 	C 	0.30398 0.08229 0.24420 0.04800
C 	C 	0.25450 0.12203 0.28760 -0.12300
H 	H 	0.19330 0.12450 0.23880 0.08300
C 	C 	0.29740 0.15812 0.40500 0.08100
H 	H 	0.26360 0.18500 0.43250 0.00300
C 	C 	0.43090 0.11810 0.43760 0.07100
H 	H 	0.49170 0.11620 0.48990 -0.00500
C 	C 	0.39430 0.08091 0.31960 -0.12700
H 	H 	0.43020 0.05520 0.29130 0.08000
Cd	Cd	0.54686 0.72108 0.82799 1.21600
Cd	Cd	0.04160 0.52841 0.22961 1.23400
O 	O 	0.42684 0.67252 0.66900 -0.40000
O 	O 	0.40240 0.69796 0.89960 -0.38700
O 	O 	0.01873 0.54873 0.72290 -0.41700
O 	O 	0.98801 0.56823 0.45170 -0.39700
O 	O 	0.96339 0.59376 0.08260 -0.39900
O 	O 	0.90586 0.52005 0.96770 -0.45600
O 	O 	0.67612 0.72829 0.41750 -0.39600
O 	O 	0.58465 0.71927 0.57820 -0.50600
N 	N 	0.17548 0.58148 0.24730 -0.18500
N 	N 	0.33560 0.63386 0.27900 -0.10400
N 	N 	0.30785 0.49589 0.56990 -0.13500
N 	N 	0.16220 0.50068 0.44060 -0.17900
N 	N 	0.17622 0.46066 0.54700 -0.17300
H 	H 	0.13570 0.44000 0.56400 0.13900
N 	N 	0.38395 0.34357 0.98050 -0.23200
C 	C 	0.37830 0.67605 0.76360 0.34600
C 	C 	0.28707 0.65149 0.71540 -0.08800
C 	C 	0.27330 0.60845 0.79950 -0.02100
H 	H 	0.32020 0.59480 0.88280 0.04400
C 	C 	0.18980 0.58420 0.76290 0.00300
H 	H 	0.18150 0.55490 0.82330 0.04000
C 	C 	0.12020 0.60277 0.64000 -0.12600
C 	C 	0.03541 0.57107 0.60320 0.36700
C 	C 	0.13044 0.64909 0.55120 0.05300
C 	C 	0.05900 0.67331 0.43240 -0.10500
H 	H 	0.00220 0.65850 0.40720 0.08100
C 	C 	0.07300 0.71793 0.35530 -0.00300
H 	H 	0.02530 0.73370 0.27910 0.03500
C 	C 	0.15790 0.74066 0.38870 -0.04400
H 	H 	0.16650 0.77100 0.33350 0.05200
C 	C 	0.22750 0.71851 0.50110 -0.06400
H 	H 	0.28390 0.73370 0.52120 0.06500
C 	C 	0.21646 0.67312 0.58810 0.03400
C 	C 	0.90590 0.56890 0.97480 0.33400
C 	C 	0.83750 0.60038 0.85110 -0.09500
C 	C 	0.86550 0.64606 0.79550 -0.01900
H 	H 	0.92550 0.65550 0.83050 0.05200
C 	C 	0.80470 0.67874 0.68640 0.00100
H 	H 	0.82510 0.70910 0.64750 0.04200
C 	C 	0.71654 0.66662 0.63690 -0.12000
C 	C 	0.65452 0.70679 0.53590 0.34900
C 	C 	0.68484 0.61890 0.68550 0.04200
C 	C 	0.59460 0.60306 0.62850 -0.10300
H 	H 	0.55430 0.62380 0.55230 0.07100
C 	C 	0.56580 0.55810 0.68350 -0.01500
H 	H 	0.50600 0.54850 0.64520 0.03900
C 	C 	0.62520 0.52588 0.79730 -0.02700
H 	H 	0.60460 0.49540 0.83550 0.04000
C 	C 	0.71350 0.53928 0.85210 -0.08000
H 	H 	0.75240 0.51780 0.92800 0.07200
C 	C 	0.74637 0.58493 0.79580 0.04400
C 	C 	0.18120 0.62278 0.15580 0.01500
H 	H 	0.13000 0.63490 0.07940 0.03000
C 	C 	0.26110 0.64827 0.17060 0.00300
H 	H 	0.26260 0.67670 0.10170 0.04100
C 	C 	0.33030 0.59246 0.37340 0.01100
H 	H 	0.38150 0.58090 0.45120 0.04400
C 	C 	0.25104 0.56660 0.35780 0.01300
C 	C 	0.24246 0.52088 0.45790 0.09900
C 	C 	0.26343 0.45786 0.62240 0.10700
C 	C 	0.30398 0.41771 0.74420 0.04900
C 	C 	0.25450 0.37797 0.78760 -0.12300
H 	H 	0.19330 0.37550 0.73880 0.08300
C 	C 	0.29740 0.34188 0.90500 0.08100
H 	H 	0.26360 0.31500 0.93250 0.00400
C 	C 	0.43090 0.38190 0.93760 0.07100
H 	H 	0.49170 0.38380 0.98990 -0.00400
C 	C 	0.39430 0.41909 0.81960 -0.12700
H 	H 	0.43020 0.44480 0.79130 0.08000
Cd	Cd	0.45314 0.22108 0.67201 1.21700
Cd	Cd	0.95840 0.02841 0.27039 1.23300
O 	O 	0.57316 0.17252 0.83100 -0.40000
O 	O 	0.59760 0.19796 0.60040 -0.38700
O 	O 	0.98127 0.04873 0.77710 -0.41800
O 	O 	0.01199 0.06823 0.04830 -0.39400
O 	O 	0.03661 0.09376 0.41740 -0.39900
O 	O 	0.09414 0.02005 0.53230 -0.45400
O 	O 	0.32388 0.22829 0.08250 -0.39700
O 	O 	0.41535 0.21927 0.92180 -0.50600
N 	N 	0.82452 0.08148 0.25270 -0.18500
N 	N 	0.66440 0.13386 0.22100 -0.10400
N 	N 	0.69215 0.99589 0.93010 -0.13400
N 	N 	0.83780 0.00068 0.05940 -0.18100
N 	N 	0.82378 0.96066 0.95300 -0.17200
H 	H 	0.86430 0.94000 0.93600 0.13900
N 	N 	0.61605 0.84357 0.51950 -0.23200
C 	C 	0.62170 0.17605 0.73640 0.34600
C 	C 	0.71293 0.15149 0.78460 -0.08800
C 	C 	0.72670 0.10845 0.70050 -0.02100
H 	H 	0.67980 0.09480 0.61720 0.04400
C 	C 	0.81020 0.08420 0.73710 0.00300
H 	H 	0.81850 0.05490 0.67670 0.04000
C 	C 	0.87980 0.10277 0.86000 -0.12600
C 	C 	0.96459 0.07107 0.89680 0.36500
C 	C 	0.86956 0.14909 0.94880 0.05400
C 	C 	0.94100 0.17331 0.06760 -0.10600
H 	H 	0.99780 0.15850 0.09280 0.08000
C 	C 	0.92700 0.21793 0.14470 -0.00100
H 	H 	0.97470 0.23370 0.22090 0.03400
C 	C 	0.84210 0.24066 0.11130 -0.04600
H 	H 	0.83350 0.27100 0.16650 0.05300
C 	C 	0.77250 0.21851 0.99890 -0.06200
H 	H 	0.71610 0.23370 0.97880 0.06500
C 	C 	0.78354 0.17312 0.91190 0.03300
C 	C 	0.09410 0.06890 0.52520 0.33500
C 	C 	0.16250 0.10038 0.64890 -0.09500
C 	C 	0.13450 0.14606 0.70450 -0.01800
H 	H 	0.07450 0.15550 0.66950 0.05300
C 	C 	0.19530 0.17874 0.81360 0.00100
H 	H 	0.17490 0.20910 0.85250 0.04300
C 	C 	0.28346 0.16662 0.86310 -0.11900
C 	C 	0.34548 0.20679 0.96410 0.35000
C 	C 	0.31516 0.11890 0.81450 0.04100
C 	C 	0.40540 0.10306 0.87150 -0.10100
H 	H 	0.44570 0.12380 0.94770 0.07100
C 	C 	0.43420 0.05810 0.81650 -0.01800
H 	H 	0.49400 0.04850 0.85480 0.04000
C 	C 	0.37480 0.02588 0.70270 -0.02200
H 	H 	0.39540 0.99540 0.66450 0.03800
C 	C 	0.28650 0.03928 0.64790 -0.08200
H 	H 	0.24760 0.01780 0.57200 0.07400
C 	C 	0.25363 0.08493 0.70420 0.04600
C 	C 	0.81880 0.12278 0.34420 0.01500
H 	H 	0.87000 0.13490 0.42060 0.03000
C 	C 	0.73890 0.14827 0.32940 0.00300
H 	H 	0.73740 0.17670 0.39830 0.04100
C 	C 	0.66970 0.09246 0.12660 0.01100
H 	H 	0.61850 0.08090 0.04880 0.04300
C 	C 	0.74896 0.06660 0.14220 0.01300
C 	C 	0.75754 0.02088 0.04210 0.09800
C 	C 	0.73657 0.95786 0.87760 0.10700
C 	C 	0.69602 0.91771 0.75580 0.04800
C 	C 	0.74550 0.87797 0.71240 -0.12300
H 	H 	0.80670 0.87550 0.76120 0.08300
C 	C 	0.70260 0.84188 0.59500 0.08100
H 	H 	0.73640 0.81500 0.56750 0.00300
C 	C 	0.56910 0.88190 0.56240 0.07100
H 	H 	0.50830 0.88380 0.51010 -0.00500
C 	C 	0.60570 0.91909 0.68040 -0.12700
H 	H 	0.56980 0.94480 0.70870 0.08000
