data_crystal

_cell_length_a 21.08180
_cell_length_b 9.47660
_cell_length_c 33.64670
_cell_angle_alpha 90.00000
_cell_angle_beta  126.57300
_cell_angle_gamma 90.00000

_symmetry_space_group_name_	'P 1'
_symmetry_space_group_name_H-M	'P 1'

loop_
_symmetry_equiv_pos_as_xyz
  x,y,z

loop_
_atom_site_label
_atom_site_type_symbol
_atom_site_fract_x
_atom_site_fract_y
_atom_site_fract_z
_atom_site_charge
Ba	Ba	0.02340 0.31807 0.27788 2.05200
Ba	Ba	0.12985 0.96353 0.36969 1.70000
P 	P 	0.49356 0.23430 0.34615 0.38400
P 	P 	0.43370 0.44270 0.27510 0.37100
P 	P 	0.51167 0.51590 0.37301 0.38300
O 	O 	0.45300 0.11030 0.35540 -0.30500
O 	O 	0.34930 0.47860 0.22600 -0.29200
O 	O 	0.47950 0.59630 0.39940 -0.31600
O 	O 	0.59340 0.59400 0.39810 -0.29700
O 	O 	0.47890 0.46700 0.25100 -0.27500
O 	O 	0.56420 0.15090 0.35310 -0.30900
O 	O 	0.09440 0.06790 0.27820 -0.65300
O 	O 	0.08600 0.96000 0.21630 -0.52600
O 	O 	0.02660 0.39730 0.20040 -0.63700
O 	O 	0.01750 0.62300 0.17820 -0.67900
O 	O 	0.11150 0.54130 0.29910 -0.60700
O 	O 	0.12720 0.77050 0.31050 -0.65800
O 	O 	0.90610 0.61070 0.61950 -0.59800
O 	O 	0.83220 0.76000 0.62650 -0.56200
O 	O 	0.84700 0.59290 0.37950 -0.33500
O 	O 	0.84750 0.35900 0.37070 -0.46000
O 	O 	0.87320 0.92440 0.55820 -0.59500
O 	O 	0.88120 0.81020 0.50440 -0.47700
N 	N 	0.43870 0.28380 0.28990 -0.18500
N 	N 	0.46000 0.55810 0.31660 -0.18300
N 	N 	0.52180 0.35400 0.38660 -0.19700
C 	C 	0.37030 0.09570 0.32900 0.35900
C 	C 	0.32620 0.03980 0.28300 -0.37800
H 	H 	0.34930 0.01630 0.26750 0.18100
C 	C 	0.24520 0.01740 0.25890 0.25600
H 	H 	0.21480 0.97540 0.22780 -0.06700
C 	C 	0.21040 0.05810 0.28170 -0.32400
C 	C 	0.25670 0.11510 0.32860 0.25800
H 	H 	0.23390 0.14180 0.34410 -0.10700
C 	C 	0.33760 0.13270 0.35280 -0.37800
H 	H 	0.36920 0.16900 0.38480 0.15400
C 	C 	0.12460 0.02800 0.25680 0.46100
C 	C 	0.28070 0.48260 0.22480 0.34300
C 	C 	0.23690 0.36220 0.21260 -0.37400
H 	H 	0.25540 0.27640 0.20980 0.17700
C 	C 	0.16470 0.37090 0.20430 0.25000
H 	H 	0.13490 0.28950 0.19690 -0.07900
C 	C 	0.13550 0.50010 0.20700 -0.34800
C 	C 	0.18270 0.62120 0.22090 0.23700
H 	H 	0.16460 0.70770 0.22350 -0.09500
C 	C 	0.25650 0.61090 0.23080 -0.36000
H 	H 	0.28920 0.68950 0.24120 0.16700
C 	C 	0.05520 0.50780 0.19530 0.46200
C 	C 	0.39860 0.60630 0.37740 0.40000
C 	C 	0.35430 0.48420 0.36760 -0.42300
H 	H 	0.37700 0.39500 0.37480 0.18400
C 	C 	0.27560 0.50180 0.34680 0.32900
H 	H 	0.24460 0.42180 0.33870 -0.09600
C 	C 	0.24030 0.63200 0.33740 -0.40900
C 	C 	0.28750 0.74880 0.34890 0.33000
H 	H 	0.26560 0.83820 0.34350 -0.12100
C 	C 	0.36600 0.73680 0.36830 -0.44400
H 	H 	0.39630 0.81700 0.37500 0.19700
C 	C 	0.15380 0.64580 0.31440 0.55600
C 	C 	0.65130 0.60680 0.44990 0.36800
C 	C 	0.64350 0.70690 0.47600 -0.38100
H 	H 	0.59790 0.76130 0.46080 0.18100
C 	C 	0.70480 0.72530 0.52560 0.26200
H 	H 	0.70060 0.79500 0.54340 -0.09300
C 	C 	0.77300 0.64210 0.54970 -0.33200
C 	C 	0.77860 0.54400 0.52120 0.25700
H 	H 	0.82430 0.49020 0.53600 -0.12000
C 	C 	0.71850 0.52400 0.47170 -0.38600
H 	H 	0.72300 0.45660 0.45340 0.16100
C 	C 	0.84160 0.67200 0.60180 0.43300
C 	C 	0.56230 0.46600 0.28310 0.29300
C 	C 	0.60170 0.59260 0.30330 -0.26700
H 	H 	0.57390 0.67560 0.29750 0.15200
C 	C 	0.68390 0.59310 0.33230 0.14800
H 	H 	0.71130 0.67750 0.34540 -0.00700
C 	C 	0.72600 0.46560 0.34210 -0.20800
C 	C 	0.68430 0.34230 0.32260 0.16500
H 	H 	0.71160 0.25820 0.32910 -0.01500
C 	C 	0.60220 0.33950 0.29340 -0.28600
H 	H 	0.57480 0.25480 0.28100 0.16500
C 	C 	0.81380 0.47330 0.36690 0.37600
C 	C 	0.63110 0.08760 0.39490 0.41900
C 	C 	0.67220 0.14520 0.44120 -0.43900
H 	H 	0.65440 0.22690 0.44690 0.18300
C 	C 	0.74240 0.07840 0.48020 0.32100
H 	H 	0.76980 0.11500 0.51200 -0.16100
C 	C 	0.77030 0.96350 0.47210 -0.36700
C 	C 	0.72790 0.90700 0.42500 0.30600
H 	H 	0.74590 0.82580 0.41910 -0.06400
C 	C 	0.65930 0.97050 0.38690 -0.42100
H 	H 	0.63170 0.93270 0.35520 0.21200
C 	C 	0.84610 0.89520 0.51410 0.46100
Ba	Ba	0.00284 0.78476 0.09780 1.64000
Ba	Ba	0.97660 0.81807 0.22212 2.04900
Ba	Ba	0.87015 0.46353 0.13031 1.71400
P 	P 	0.50644 0.73430 0.15385 0.38400
P 	P 	0.56630 0.94270 0.22490 0.37000
P 	P 	0.48833 0.01590 0.12699 0.38300
O 	O 	0.54700 0.61030 0.14460 -0.30400
O 	O 	0.65070 0.97860 0.27400 -0.29200
O 	O 	0.52050 0.09630 0.10060 -0.31700
O 	O 	0.40660 0.09400 0.10190 -0.29600
O 	O 	0.52110 0.96700 0.24900 -0.27500
O 	O 	0.43580 0.65090 0.14690 -0.31000
O 	O 	0.90560 0.56790 0.22180 -0.65400
O 	O 	0.91400 0.46000 0.28370 -0.52000
O 	O 	0.97340 0.89730 0.29960 -0.63600
O 	O 	0.98250 0.12300 0.32180 -0.67900
O 	O 	0.88850 0.04130 0.20090 -0.60700
O 	O 	0.87280 0.27050 0.18950 -0.65800
O 	O 	0.09390 0.11070 0.88050 -0.59800
O 	O 	0.16780 0.26000 0.87350 -0.56400
O 	O 	0.15300 0.09290 0.12050 -0.33100
O 	O 	0.15250 0.85900 0.12930 -0.45900
O 	O 	0.12680 0.42440 0.94180 -0.59800
O 	O 	0.11880 0.31020 0.99560 -0.47800
N 	N 	0.56130 0.78380 0.21010 -0.18500
N 	N 	0.54000 0.05810 0.18340 -0.18200
N 	N 	0.47820 0.85400 0.11340 -0.19800
C 	C 	0.62970 0.59570 0.17100 0.35300
C 	C 	0.67380 0.53980 0.21700 -0.36900
H 	H 	0.65070 0.51630 0.23250 0.17700
C 	C 	0.75480 0.51740 0.24110 0.24100
H 	H 	0.78520 0.47540 0.27220 -0.05900
C 	C 	0.78960 0.55810 0.21830 -0.31600
C 	C 	0.74330 0.61510 0.17140 0.25100
H 	H 	0.76610 0.64180 0.15590 -0.10500
C 	C 	0.66240 0.63270 0.14720 -0.37200
H 	H 	0.63080 0.66900 0.11520 0.15200
C 	C 	0.87540 0.52800 0.24320 0.45200
C 	C 	0.71930 0.98260 0.27520 0.34200
C 	C 	0.76310 0.86220 0.28740 -0.37300
H 	H 	0.74460 0.77640 0.29020 0.17600
C 	C 	0.83530 0.87090 0.29570 0.25000
H 	H 	0.86510 0.78950 0.30310 -0.07900
C 	C 	0.86450 0.00010 0.29300 -0.34800
C 	C 	0.81730 0.12120 0.27910 0.23700
H 	H 	0.83540 0.20770 0.27650 -0.09500
C 	C 	0.74350 0.11090 0.26920 -0.35900
H 	H 	0.71080 0.18950 0.25880 0.16700
C 	C 	0.94480 0.00780 0.30470 0.46100
C 	C 	0.60140 0.10630 0.12260 0.40400
C 	C 	0.64570 0.98420 0.13240 -0.43000
H 	H 	0.62300 0.89500 0.12520 0.18600
C 	C 	0.72440 0.00180 0.15320 0.33400
H 	H 	0.75540 0.92180 0.16130 -0.09800
C 	C 	0.75970 0.13200 0.16260 -0.41200
C 	C 	0.71250 0.24880 0.15110 0.33400
H 	H 	0.73440 0.33820 0.15650 -0.12100
C 	C 	0.63400 0.23680 0.13170 -0.44700
H 	H 	0.60370 0.31700 0.12500 0.19900
C 	C 	0.84620 0.14580 0.18560 0.55700
C 	C 	0.34870 0.10680 0.05010 0.36400
C 	C 	0.35650 0.20690 0.02400 -0.37800
H 	H 	0.40210 0.26130 0.03920 0.18000
C 	C 	0.29520 0.22530 0.97440 0.25900
H 	H 	0.29940 0.29500 0.95660 -0.09200
C 	C 	0.22700 0.14210 0.95030 -0.33000
C 	C 	0.22140 0.04400 0.97880 0.25300
H 	H 	0.17570 0.99020 0.96400 -0.11900
C 	C 	0.28150 0.02400 0.02830 -0.37900
H 	H 	0.27700 0.95660 0.04660 0.15700
C 	C 	0.15840 0.17200 0.89820 0.43300
C 	C 	0.43770 0.96600 0.21690 0.29000
C 	C 	0.39830 0.09260 0.19670 -0.26500
H 	H 	0.42610 0.17560 0.20250 0.15100
C 	C 	0.31610 0.09310 0.16770 0.15000
H 	H 	0.28870 0.17750 0.15460 -0.00700
C 	C 	0.27400 0.96560 0.15790 -0.21000
C 	C 	0.31570 0.84230 0.17740 0.16500
H 	H 	0.28840 0.75820 0.17090 -0.01400
C 	C 	0.39780 0.83950 0.20660 -0.28500
H 	H 	0.42520 0.75480 0.21900 0.16500
C 	C 	0.18620 0.97330 0.13310 0.37100
C 	C 	0.36890 0.58760 0.10510 0.42300
C 	C 	0.32780 0.64520 0.05880 -0.44400
H 	H 	0.34560 0.72690 0.05310 0.18500
C 	C 	0.25760 0.57840 0.01980 0.32900
H 	H 	0.23020 0.61500 0.98800 -0.16400
C 	C 	0.22970 0.46350 0.02790 -0.37400
C 	C 	0.27210 0.40700 0.07500 0.31100
H 	H 	0.25410 0.32580 0.08090 -0.06500
C 	C 	0.34070 0.47050 0.11310 -0.42600
H 	H 	0.36830 0.43270 0.14480 0.21300
C 	C 	0.15390 0.39520 0.98590 0.46300
Ba	Ba	0.99716 0.28476 0.40220 1.64300
Ba	Ba	0.97660 0.68193 0.72212 2.05200
Ba	Ba	0.87015 0.03647 0.63031 1.70000
P 	P 	0.50644 0.76570 0.65385 0.38400
P 	P 	0.56630 0.55730 0.72490 0.37100
P 	P 	0.48833 0.48410 0.62699 0.38300
O 	O 	0.54700 0.88970 0.64460 -0.30500
O 	O 	0.65070 0.52140 0.77400 -0.29200
O 	O 	0.52050 0.40370 0.60060 -0.31600
O 	O 	0.40660 0.40600 0.60190 -0.29700
O 	O 	0.52110 0.53300 0.74900 -0.27500
O 	O 	0.43580 0.84910 0.64690 -0.30900
O 	O 	0.90560 0.93210 0.72180 -0.65300
O 	O 	0.91400 0.04000 0.78370 -0.52600
O 	O 	0.97340 0.60270 0.79960 -0.63700
O 	O 	0.98250 0.37700 0.82180 -0.67900
O 	O 	0.88850 0.45870 0.70090 -0.60700
O 	O 	0.87280 0.22950 0.68950 -0.65800
O 	O 	0.09390 0.38930 0.38050 -0.59800
O 	O 	0.16780 0.24000 0.37350 -0.56200
O 	O 	0.15300 0.40710 0.62050 -0.33500
O 	O 	0.15250 0.64100 0.62930 -0.46000
O 	O 	0.12680 0.07560 0.44180 -0.59500
O 	O 	0.11880 0.18980 0.49560 -0.47700
N 	N 	0.56130 0.71620 0.71010 -0.18500
N 	N 	0.54000 0.44190 0.68340 -0.18300
N 	N 	0.47820 0.64600 0.61340 -0.19700
C 	C 	0.62970 0.90430 0.67100 0.35900
C 	C 	0.67380 0.96020 0.71700 -0.37800
H 	H 	0.65070 0.98370 0.73250 0.18100
C 	C 	0.75480 0.98260 0.74110 0.25600
H 	H 	0.78520 0.02460 0.77220 -0.06700
C 	C 	0.78960 0.94190 0.71830 -0.32400
C 	C 	0.74330 0.88490 0.67140 0.25800
H 	H 	0.76610 0.85820 0.65590 -0.10700
C 	C 	0.66240 0.86730 0.64720 -0.37800
H 	H 	0.63080 0.83100 0.61520 0.15400
C 	C 	0.87540 0.97200 0.74320 0.46100
C 	C 	0.71930 0.51740 0.77520 0.34300
C 	C 	0.76310 0.63780 0.78740 -0.37400
H 	H 	0.74460 0.72360 0.79020 0.17700
C 	C 	0.83530 0.62910 0.79570 0.25000
H 	H 	0.86510 0.71050 0.80310 -0.07900
C 	C 	0.86450 0.49990 0.79300 -0.34800
C 	C 	0.81730 0.37880 0.77910 0.23700
H 	H 	0.83540 0.29230 0.77650 -0.09500
C 	C 	0.74350 0.38910 0.76920 -0.36000
H 	H 	0.71080 0.31050 0.75880 0.16700
C 	C 	0.94480 0.49220 0.80470 0.46200
C 	C 	0.60140 0.39370 0.62260 0.40000
C 	C 	0.64570 0.51580 0.63240 -0.42300
H 	H 	0.62300 0.60500 0.62520 0.18400
C 	C 	0.72440 0.49820 0.65320 0.32900
H 	H 	0.75540 0.57820 0.66130 -0.09600
C 	C 	0.75970 0.36800 0.66260 -0.40900
C 	C 	0.71250 0.25120 0.65110 0.33000
H 	H 	0.73440 0.16180 0.65650 -0.12100
C 	C 	0.63400 0.26320 0.63170 -0.44400
H 	H 	0.60370 0.18300 0.62500 0.19700
C 	C 	0.84620 0.35420 0.68560 0.55600
C 	C 	0.34870 0.39320 0.55010 0.36800
C 	C 	0.35650 0.29310 0.52400 -0.38100
H 	H 	0.40210 0.23870 0.53920 0.18100
C 	C 	0.29520 0.27470 0.47440 0.26200
H 	H 	0.29940 0.20500 0.45660 -0.09300
C 	C 	0.22700 0.35790 0.45030 -0.33200
C 	C 	0.22140 0.45600 0.47880 0.25700
H 	H 	0.17570 0.50980 0.46400 -0.12000
C 	C 	0.28150 0.47600 0.52830 -0.38600
H 	H 	0.27700 0.54340 0.54660 0.16100
C 	C 	0.15840 0.32800 0.39820 0.43300
C 	C 	0.43770 0.53400 0.71690 0.29300
C 	C 	0.39830 0.40740 0.69670 -0.26700
H 	H 	0.42610 0.32440 0.70250 0.15200
C 	C 	0.31610 0.40690 0.66770 0.14800
H 	H 	0.28870 0.32250 0.65460 -0.00700
C 	C 	0.27400 0.53440 0.65790 -0.20800
C 	C 	0.31570 0.65770 0.67740 0.16500
H 	H 	0.28840 0.74180 0.67090 -0.01500
C 	C 	0.39780 0.66050 0.70660 -0.28600
H 	H 	0.42520 0.74520 0.71900 0.16500
C 	C 	0.18620 0.52670 0.63310 0.37600
C 	C 	0.36890 0.91240 0.60510 0.41900
C 	C 	0.32780 0.85480 0.55880 -0.43900
H 	H 	0.34560 0.77310 0.55310 0.18300
C 	C 	0.25760 0.92160 0.51980 0.32100
H 	H 	0.23020 0.88500 0.48800 -0.16100
C 	C 	0.22970 0.03650 0.52790 -0.36700
C 	C 	0.27210 0.09300 0.57500 0.30600
H 	H 	0.25410 0.17420 0.58090 -0.06400
C 	C 	0.34070 0.02950 0.61310 -0.42100
H 	H 	0.36830 0.06730 0.64480 0.21200
C 	C 	0.15390 0.10480 0.48590 0.46100
Ba	Ba	0.99716 0.21524 0.90220 1.64000
Ba	Ba	0.02340 0.18193 0.77788 2.04900
Ba	Ba	0.12985 0.53647 0.86969 1.71400
P 	P 	0.49356 0.26570 0.84615 0.38400
P 	P 	0.43370 0.05730 0.77510 0.37000
P 	P 	0.51167 0.98410 0.87301 0.38300
O 	O 	0.45300 0.38970 0.85540 -0.30400
O 	O 	0.34930 0.02140 0.72600 -0.29200
O 	O 	0.47950 0.90370 0.89940 -0.31700
O 	O 	0.59340 0.90600 0.89810 -0.29600
O 	O 	0.47890 0.03300 0.75100 -0.27500
O 	O 	0.56420 0.34910 0.85310 -0.31000
O 	O 	0.09440 0.43210 0.77820 -0.65400
O 	O 	0.08600 0.54000 0.71630 -0.52000
O 	O 	0.02660 0.10270 0.70040 -0.63600
O 	O 	0.01750 0.87700 0.67820 -0.67900
O 	O 	0.11150 0.95870 0.79910 -0.60700
O 	O 	0.12720 0.72950 0.81050 -0.65800
O 	O 	0.90610 0.88930 0.11950 -0.59800
O 	O 	0.83220 0.74000 0.12650 -0.56400
O 	O 	0.84700 0.90710 0.87950 -0.33100
O 	O 	0.84750 0.14100 0.87070 -0.45900
O 	O 	0.87320 0.57560 0.05820 -0.59800
O 	O 	0.88120 0.68980 0.00440 -0.47800
N 	N 	0.43870 0.21620 0.78990 -0.18500
N 	N 	0.46000 0.94190 0.81660 -0.18200
N 	N 	0.52180 0.14600 0.88660 -0.19800
C 	C 	0.37030 0.40430 0.82900 0.35300
C 	C 	0.32620 0.46020 0.78300 -0.36900
H 	H 	0.34930 0.48370 0.76750 0.17700
C 	C 	0.24520 0.48260 0.75890 0.24100
H 	H 	0.21480 0.52460 0.72780 -0.05900
C 	C 	0.21040 0.44190 0.78170 -0.31600
C 	C 	0.25670 0.38490 0.82860 0.25100
H 	H 	0.23390 0.35820 0.84410 -0.10500
C 	C 	0.33760 0.36730 0.85280 -0.37200
H 	H 	0.36920 0.33100 0.88480 0.15200
C 	C 	0.12460 0.47200 0.75680 0.45200
C 	C 	0.28070 0.01740 0.72480 0.34200
C 	C 	0.23690 0.13780 0.71260 -0.37300
H 	H 	0.25540 0.22360 0.70980 0.17600
C 	C 	0.16470 0.12910 0.70430 0.25000
H 	H 	0.13490 0.21050 0.69690 -0.07900
C 	C 	0.13550 0.99990 0.70700 -0.34800
C 	C 	0.18270 0.87880 0.72090 0.23700
H 	H 	0.16460 0.79230 0.72350 -0.09500
C 	C 	0.25650 0.88910 0.73080 -0.35900
H 	H 	0.28920 0.81050 0.74120 0.16700
C 	C 	0.05520 0.99220 0.69530 0.46100
C 	C 	0.39860 0.89370 0.87740 0.40400
C 	C 	0.35430 0.01580 0.86760 -0.43000
H 	H 	0.37700 0.10500 0.87480 0.18600
C 	C 	0.27560 0.99820 0.84680 0.33400
H 	H 	0.24460 0.07820 0.83870 -0.09800
C 	C 	0.24030 0.86800 0.83740 -0.41200
C 	C 	0.28750 0.75120 0.84890 0.33400
H 	H 	0.26560 0.66180 0.84350 -0.12100
C 	C 	0.36600 0.76320 0.86830 -0.44700
H 	H 	0.39630 0.68300 0.87500 0.19900
C 	C 	0.15380 0.85420 0.81440 0.55700
C 	C 	0.65130 0.89320 0.94990 0.36400
C 	C 	0.64350 0.79310 0.97600 -0.37800
H 	H 	0.59790 0.73870 0.96080 0.18000
C 	C 	0.70480 0.77470 0.02560 0.25900
H 	H 	0.70060 0.70500 0.04340 -0.09200
C 	C 	0.77300 0.85790 0.04970 -0.33000
C 	C 	0.77860 0.95600 0.02120 0.25300
H 	H 	0.82430 0.00980 0.03600 -0.11900
C 	C 	0.71850 0.97600 0.97170 -0.37900
H 	H 	0.72300 0.04340 0.95340 0.15700
C 	C 	0.84160 0.82800 0.10180 0.43300
C 	C 	0.56230 0.03400 0.78310 0.29000
C 	C 	0.60170 0.90740 0.80330 -0.26500
H 	H 	0.57390 0.82440 0.79750 0.15100
C 	C 	0.68390 0.90690 0.83230 0.15000
H 	H 	0.71130 0.82250 0.84540 -0.00700
C 	C 	0.72600 0.03440 0.84210 -0.21000
C 	C 	0.68430 0.15770 0.82260 0.16500
H 	H 	0.71160 0.24180 0.82910 -0.01400
C 	C 	0.60220 0.16050 0.79340 -0.28500
H 	H 	0.57480 0.24520 0.78100 0.16500
C 	C 	0.81380 0.02670 0.86690 0.37100
C 	C 	0.63110 0.41240 0.89490 0.42300
C 	C 	0.67220 0.35480 0.94120 -0.44400
H 	H 	0.65440 0.27310 0.94690 0.18500
C 	C 	0.74240 0.42160 0.98020 0.32900
H 	H 	0.76980 0.38500 0.01200 -0.16400
C 	C 	0.77030 0.53650 0.97210 -0.37400
C 	C 	0.72790 0.59300 0.92500 0.31100
H 	H 	0.74590 0.67420 0.91910 -0.06500
C 	C 	0.65930 0.52950 0.88690 -0.42600
H 	H 	0.63170 0.56730 0.85520 0.21300
C 	C 	0.84610 0.60480 0.01410 0.46300
Ba	Ba	0.00284 0.71524 0.59780 1.64300
