data_crystal

_cell_length_a 18.57100
_cell_length_b 18.57100
_cell_length_c 28.87790
_cell_angle_alpha 90.00000
_cell_angle_beta  90.00000
_cell_angle_gamma 120.00000

_symmetry_space_group_name_	'P 1'
_symmetry_space_group_name_H-M	'P 1'

loop_
_symmetry_equiv_pos_as_xyz
  x,y,z

loop_
_atom_site_label
_atom_site_type_symbol
_atom_site_fract_x
_atom_site_fract_y
_atom_site_fract_z
_atom_site_charge
P 	P 	0.62764 0.23559 0.96178 0.38000
O 	O 	0.59460 0.15730 0.99521 -0.28100
O 	O 	0.61840 0.19280 0.91324 -0.29400
O 	O 	0.37740 0.12780 0.17005 -0.27400
O 	O 	0.50120 0.21920 0.19891 -0.48300
O 	O 	0.26890 0.96130 0.81580 -0.27600
O 	O 	0.33690 0.89480 0.80080 -0.51200
N 	N 	0.57000 0.27530 0.96721 -0.18400
C 	C 	0.45490 0.17010 0.16716 0.38500
C 	C 	0.49380 0.16580 0.12324 -0.19400
C 	C 	0.44270 0.12180 0.08532 0.14900
H 	H 	0.38530 0.09400 0.08900 0.00400
C 	C 	0.47510 0.11880 0.04338 -0.26700
H 	H 	0.44020 0.09070 0.01860 0.14800
C 	C 	0.56180 0.15870 0.03816 0.29100
C 	C 	0.61390 0.20070 0.07542 -0.27400
H 	H 	0.67130 0.22560 0.07200 0.14400
C 	C 	0.58070 0.20550 0.11760 0.15300
H 	H 	0.61580 0.23480 0.14210 -0.01400
C 	C 	0.32920 0.94920 0.81980 0.45100
C 	C 	0.40390 0.01540 0.84700 -0.25400
C 	C 	0.41130 0.08950 0.85990 0.23100
H 	H 	0.36840 0.10010 0.85310 -0.01800
C 	C 	0.48210 0.15020 0.88320 -0.35600
H 	H 	0.48750 0.20100 0.89160 0.18700
C 	C 	0.54220 0.13160 0.89281 0.38100
C 	C 	0.53670 0.05900 0.88190 -0.36200
H 	H 	0.57860 0.04790 0.88990 0.18500
C 	C 	0.46620 0.00070 0.85810 0.24000
H 	H 	0.46180 0.95030 0.84960 -0.03000
P 	P 	0.76441 0.39205 0.96178 0.38100
O 	O 	0.84270 0.43730 0.99521 -0.28000
O 	O 	0.80720 0.42560 0.91324 -0.29300
O 	O 	0.87220 0.24960 0.17005 -0.27300
O 	O 	0.78080 0.28200 0.19891 -0.48200
O 	O 	0.03870 0.30760 0.81580 -0.27500
O 	O 	0.10520 0.44210 0.80080 -0.51100
N 	N 	0.72470 0.29470 0.96721 -0.18300
C 	C 	0.82990 0.28480 0.16716 0.38600
C 	C 	0.83420 0.32800 0.12324 -0.19300
C 	C 	0.87820 0.32090 0.08532 0.15000
H 	H 	0.90600 0.29130 0.08900 0.00500
C 	C 	0.88120 0.35630 0.04338 -0.26700
H 	H 	0.90930 0.34950 0.01860 0.14800
C 	C 	0.84130 0.40310 0.03816 0.29100
C 	C 	0.79930 0.41320 0.07542 -0.27400
H 	H 	0.77440 0.44570 0.07200 0.14400
C 	C 	0.79450 0.37520 0.11760 0.15300
H 	H 	0.76520 0.38100 0.14210 -0.01400
C 	C 	0.05080 0.38000 0.81980 0.45100
C 	C 	0.98460 0.38850 0.84700 -0.25400
C 	C 	0.91050 0.32180 0.85990 0.23100
H 	H 	0.89990 0.26830 0.85310 -0.01800
C 	C 	0.84980 0.33190 0.88320 -0.35600
H 	H 	0.79900 0.28650 0.89160 0.18700
C 	C 	0.86840 0.41060 0.89281 0.38100
C 	C 	0.94100 0.47770 0.88190 -0.36300
H 	H 	0.95210 0.53070 0.88990 0.18500
C 	C 	0.99930 0.46550 0.85810 0.24000
H 	H 	0.04970 0.51150 0.84960 -0.03000
P 	P 	0.60795 0.37236 0.96178 0.38100
O 	O 	0.56270 0.40540 0.99521 -0.28000
O 	O 	0.57440 0.38160 0.91324 -0.29300
O 	O 	0.75040 0.62260 0.17005 -0.27300
O 	O 	0.71800 0.49880 0.19891 -0.48200
O 	O 	0.69240 0.73110 0.81580 -0.27500
O 	O 	0.55790 0.66310 0.80080 -0.51100
N 	N 	0.70530 0.43000 0.96721 -0.18300
C 	C 	0.71520 0.54510 0.16716 0.38600
C 	C 	0.67200 0.50620 0.12324 -0.19300
C 	C 	0.67910 0.55730 0.08532 0.15000
H 	H 	0.70870 0.61470 0.08900 0.00500
C 	C 	0.64370 0.52490 0.04338 -0.26700
H 	H 	0.65050 0.55980 0.01860 0.14800
C 	C 	0.59690 0.43820 0.03816 0.29100
C 	C 	0.58680 0.38610 0.07542 -0.27400
H 	H 	0.55430 0.32870 0.07200 0.14400
C 	C 	0.62480 0.41930 0.11760 0.15300
H 	H 	0.61900 0.38420 0.14210 -0.01400
C 	C 	0.62000 0.67080 0.81980 0.45100
C 	C 	0.61150 0.59610 0.84700 -0.25400
C 	C 	0.67820 0.58870 0.85990 0.23100
H 	H 	0.73170 0.63160 0.85310 -0.01800
C 	C 	0.66810 0.51790 0.88320 -0.35600
H 	H 	0.71350 0.51250 0.89160 0.18700
C 	C 	0.58940 0.45780 0.89281 0.38100
C 	C 	0.52230 0.46330 0.88190 -0.36200
H 	H 	0.46930 0.42140 0.88990 0.18500
C 	C 	0.53450 0.53380 0.85810 0.24000
H 	H 	0.48850 0.53820 0.84960 -0.03000
P 	P 	0.37236 0.76441 0.46178 0.38100
O 	O 	0.40540 0.84270 0.49521 -0.28000
O 	O 	0.38160 0.80720 0.41324 -0.29300
O 	O 	0.62260 0.87220 0.67005 -0.27300
O 	O 	0.49880 0.78080 0.69891 -0.48200
O 	O 	0.73110 0.03870 0.31580 -0.27500
O 	O 	0.66310 0.10520 0.30080 -0.51100
N 	N 	0.43000 0.72470 0.46721 -0.18300
C 	C 	0.54510 0.82990 0.66716 0.38600
C 	C 	0.50620 0.83420 0.62324 -0.19300
C 	C 	0.55730 0.87820 0.58532 0.15000
H 	H 	0.61470 0.90600 0.58900 0.00500
C 	C 	0.52490 0.88120 0.54338 -0.26800
H 	H 	0.55980 0.90930 0.51860 0.14800
C 	C 	0.43820 0.84130 0.53816 0.29100
C 	C 	0.38610 0.79930 0.57542 -0.27400
H 	H 	0.32870 0.77440 0.57200 0.14400
C 	C 	0.41930 0.79450 0.61760 0.15300
H 	H 	0.38420 0.76520 0.64210 -0.01400
C 	C 	0.67080 0.05080 0.31980 0.45100
C 	C 	0.59610 0.98460 0.34700 -0.25400
C 	C 	0.58870 0.91050 0.35990 0.23100
H 	H 	0.63160 0.89990 0.35310 -0.01800
C 	C 	0.51790 0.84980 0.38320 -0.35600
H 	H 	0.51250 0.79900 0.39160 0.18700
C 	C 	0.45780 0.86840 0.39281 0.38100
C 	C 	0.46330 0.94100 0.38190 -0.36200
H 	H 	0.42140 0.95210 0.38990 0.18500
C 	C 	0.53380 0.99930 0.35810 0.24000
H 	H 	0.53820 0.04970 0.34960 -0.03000
P 	P 	0.23559 0.60795 0.46178 0.38100
O 	O 	0.15730 0.56270 0.49521 -0.28000
O 	O 	0.19280 0.57440 0.41324 -0.29300
O 	O 	0.12780 0.75040 0.67005 -0.27300
O 	O 	0.21920 0.71800 0.69891 -0.48200
O 	O 	0.96130 0.69240 0.31580 -0.27500
O 	O 	0.89480 0.55790 0.30080 -0.51100
N 	N 	0.27530 0.70530 0.46721 -0.18300
C 	C 	0.17010 0.71520 0.66716 0.38600
C 	C 	0.16580 0.67200 0.62324 -0.19300
C 	C 	0.12180 0.67910 0.58532 0.15000
H 	H 	0.09400 0.70870 0.58900 0.00500
C 	C 	0.11880 0.64370 0.54338 -0.26800
H 	H 	0.09070 0.65050 0.51860 0.14800
C 	C 	0.15870 0.59690 0.53816 0.29100
C 	C 	0.20070 0.58680 0.57542 -0.27400
H 	H 	0.22560 0.55430 0.57200 0.14400
C 	C 	0.20550 0.62480 0.61760 0.15300
H 	H 	0.23480 0.61900 0.64210 -0.01400
C 	C 	0.94920 0.62000 0.31980 0.45100
C 	C 	0.01540 0.61150 0.34700 -0.25400
C 	C 	0.08950 0.67820 0.35990 0.23100
H 	H 	0.10010 0.73170 0.35310 -0.01800
C 	C 	0.15020 0.66810 0.38320 -0.35600
H 	H 	0.20100 0.71350 0.39160 0.18700
C 	C 	0.13160 0.58940 0.39281 0.38100
C 	C 	0.05900 0.52230 0.38190 -0.36200
H 	H 	0.04790 0.46930 0.38990 0.18500
C 	C 	0.00070 0.53450 0.35810 0.24000
H 	H 	0.95030 0.48850 0.34960 -0.03000
P 	P 	0.39205 0.62764 0.46178 0.38100
O 	O 	0.43730 0.59460 0.49521 -0.28000
O 	O 	0.42560 0.61840 0.41324 -0.29300
O 	O 	0.24960 0.37740 0.67005 -0.27300
O 	O 	0.28200 0.50120 0.69891 -0.48200
O 	O 	0.30760 0.26890 0.31580 -0.27500
O 	O 	0.44210 0.33690 0.30080 -0.51100
N 	N 	0.29470 0.57000 0.46721 -0.18300
C 	C 	0.28480 0.45490 0.66716 0.38600
C 	C 	0.32800 0.49380 0.62324 -0.19300
C 	C 	0.32090 0.44270 0.58532 0.15000
H 	H 	0.29130 0.38530 0.58900 0.00500
C 	C 	0.35630 0.47510 0.54338 -0.26700
H 	H 	0.34950 0.44020 0.51860 0.14800
C 	C 	0.40310 0.56180 0.53816 0.29100
C 	C 	0.41320 0.61390 0.57542 -0.27400
H 	H 	0.44570 0.67130 0.57200 0.14400
C 	C 	0.37520 0.58070 0.61760 0.15300
H 	H 	0.38100 0.61580 0.64210 -0.01400
C 	C 	0.38000 0.32920 0.31980 0.45100
C 	C 	0.38850 0.40390 0.34700 -0.25400
C 	C 	0.32180 0.41130 0.35990 0.23100
H 	H 	0.26830 0.36840 0.35310 -0.01800
C 	C 	0.33190 0.48210 0.38320 -0.35600
H 	H 	0.28650 0.48750 0.39160 0.18700
C 	C 	0.41060 0.54220 0.39281 0.38100
C 	C 	0.47770 0.53670 0.38190 -0.36200
H 	H 	0.53070 0.57860 0.38990 0.18500
C 	C 	0.46550 0.46620 0.35810 0.24000
H 	H 	0.51150 0.46180 0.34960 -0.03000
P 	P 	0.37236 0.76441 0.03822 0.38100
O 	O 	0.40540 0.84270 0.00479 -0.28000
O 	O 	0.38160 0.80720 0.08676 -0.29300
O 	O 	0.62260 0.87220 0.82995 -0.27300
O 	O 	0.49880 0.78080 0.80109 -0.48200
O 	O 	0.73110 0.03870 0.18420 -0.27500
O 	O 	0.66310 0.10520 0.19920 -0.51100
N 	N 	0.43000 0.72470 0.03279 -0.18300
C 	C 	0.54510 0.82990 0.83284 0.38600
C 	C 	0.50620 0.83420 0.87676 -0.19300
C 	C 	0.55730 0.87820 0.91468 0.15000
H 	H 	0.61470 0.90600 0.91100 0.00500
C 	C 	0.52490 0.88120 0.95662 -0.26700
H 	H 	0.55980 0.90930 0.98140 0.14800
C 	C 	0.43820 0.84130 0.96184 0.29100
C 	C 	0.38610 0.79930 0.92458 -0.27400
H 	H 	0.32870 0.77440 0.92800 0.14400
C 	C 	0.41930 0.79450 0.88240 0.15300
H 	H 	0.38420 0.76520 0.85790 -0.01400
C 	C 	0.67080 0.05080 0.18020 0.45100
C 	C 	0.59610 0.98460 0.15300 -0.25400
C 	C 	0.58870 0.91050 0.14010 0.23100
H 	H 	0.63160 0.89990 0.14690 -0.01800
C 	C 	0.51790 0.84980 0.11680 -0.35600
H 	H 	0.51250 0.79900 0.10840 0.18700
C 	C 	0.45780 0.86840 0.10719 0.38100
C 	C 	0.46330 0.94100 0.11810 -0.36200
H 	H 	0.42140 0.95210 0.11010 0.18500
C 	C 	0.53380 0.99930 0.14190 0.24000
H 	H 	0.53820 0.04970 0.15040 -0.03000
P 	P 	0.23559 0.60795 0.03822 0.38100
O 	O 	0.15730 0.56270 0.00479 -0.28000
O 	O 	0.19280 0.57440 0.08676 -0.29300
O 	O 	0.12780 0.75040 0.82995 -0.27300
O 	O 	0.21920 0.71800 0.80109 -0.48200
O 	O 	0.96130 0.69240 0.18420 -0.27500
O 	O 	0.89480 0.55790 0.19920 -0.51100
N 	N 	0.27530 0.70530 0.03279 -0.18300
C 	C 	0.17010 0.71520 0.83284 0.38600
C 	C 	0.16580 0.67200 0.87676 -0.19300
C 	C 	0.12180 0.67910 0.91468 0.15000
H 	H 	0.09400 0.70870 0.91100 0.00500
C 	C 	0.11880 0.64370 0.95662 -0.26700
H 	H 	0.09070 0.65050 0.98140 0.14800
C 	C 	0.15870 0.59690 0.96184 0.29100
C 	C 	0.20070 0.58680 0.92458 -0.27400
H 	H 	0.22560 0.55430 0.92800 0.14400
C 	C 	0.20550 0.62480 0.88240 0.15300
H 	H 	0.23480 0.61900 0.85790 -0.01400
C 	C 	0.94920 0.62000 0.18020 0.45100
C 	C 	0.01540 0.61150 0.15300 -0.25400
C 	C 	0.08950 0.67820 0.14010 0.23100
H 	H 	0.10010 0.73170 0.14690 -0.01800
C 	C 	0.15020 0.66810 0.11680 -0.35600
H 	H 	0.20100 0.71350 0.10840 0.18700
C 	C 	0.13160 0.58940 0.10719 0.38100
C 	C 	0.05900 0.52230 0.11810 -0.36300
H 	H 	0.04790 0.46930 0.11010 0.18500
C 	C 	0.00070 0.53450 0.14190 0.24000
H 	H 	0.95030 0.48850 0.15040 -0.03000
P 	P 	0.39205 0.62764 0.03822 0.38100
O 	O 	0.43730 0.59460 0.00479 -0.28000
O 	O 	0.42560 0.61840 0.08676 -0.29300
O 	O 	0.24960 0.37740 0.82995 -0.27300
O 	O 	0.28200 0.50120 0.80109 -0.48200
O 	O 	0.30760 0.26890 0.18420 -0.27500
O 	O 	0.44210 0.33690 0.19920 -0.51100
N 	N 	0.29470 0.57000 0.03279 -0.18300
C 	C 	0.28480 0.45490 0.83284 0.38600
C 	C 	0.32800 0.49380 0.87676 -0.19300
C 	C 	0.32090 0.44270 0.91468 0.15000
H 	H 	0.29130 0.38530 0.91100 0.00500
C 	C 	0.35630 0.47510 0.95662 -0.26700
H 	H 	0.34950 0.44020 0.98140 0.14800
C 	C 	0.40310 0.56180 0.96184 0.29100
C 	C 	0.41320 0.61390 0.92458 -0.27400
H 	H 	0.44570 0.67130 0.92800 0.14400
C 	C 	0.37520 0.58070 0.88240 0.15300
H 	H 	0.38100 0.61580 0.85790 -0.01400
C 	C 	0.38000 0.32920 0.18020 0.45100
C 	C 	0.38850 0.40390 0.15300 -0.25400
C 	C 	0.32180 0.41130 0.14010 0.23100
H 	H 	0.26830 0.36840 0.14690 -0.01800
C 	C 	0.33190 0.48210 0.11680 -0.35600
H 	H 	0.28650 0.48750 0.10840 0.18700
C 	C 	0.41060 0.54220 0.10719 0.38100
C 	C 	0.47770 0.53670 0.11810 -0.36200
H 	H 	0.53070 0.57860 0.11010 0.18500
C 	C 	0.46550 0.46620 0.14190 0.24000
H 	H 	0.51150 0.46180 0.15040 -0.03000
P 	P 	0.62764 0.23559 0.53822 0.38100
O 	O 	0.59460 0.15730 0.50479 -0.28000
O 	O 	0.61840 0.19280 0.58676 -0.29300
O 	O 	0.37740 0.12780 0.32995 -0.27300
O 	O 	0.50120 0.21920 0.30109 -0.48200
O 	O 	0.26890 0.96130 0.68420 -0.27500
O 	O 	0.33690 0.89480 0.69920 -0.51100
N 	N 	0.57000 0.27530 0.53279 -0.18300
C 	C 	0.45490 0.17010 0.33284 0.38600
C 	C 	0.49380 0.16580 0.37676 -0.19300
C 	C 	0.44270 0.12180 0.41468 0.15000
H 	H 	0.38530 0.09400 0.41100 0.00500
C 	C 	0.47510 0.11880 0.45662 -0.26800
H 	H 	0.44020 0.09070 0.48140 0.14800
C 	C 	0.56180 0.15870 0.46184 0.29100
C 	C 	0.61390 0.20070 0.42458 -0.27400
H 	H 	0.67130 0.22560 0.42800 0.14400
C 	C 	0.58070 0.20550 0.38240 0.15300
H 	H 	0.61580 0.23480 0.35790 -0.01400
C 	C 	0.32920 0.94920 0.68020 0.45100
C 	C 	0.40390 0.01540 0.65300 -0.25400
C 	C 	0.41130 0.08950 0.64010 0.23100
H 	H 	0.36840 0.10010 0.64690 -0.01800
C 	C 	0.48210 0.15020 0.61680 -0.35600
H 	H 	0.48750 0.20100 0.60840 0.18700
C 	C 	0.54220 0.13160 0.60719 0.38100
C 	C 	0.53670 0.05900 0.61810 -0.36200
H 	H 	0.57860 0.04790 0.61010 0.18500
C 	C 	0.46620 0.00070 0.64190 0.24000
H 	H 	0.46180 0.95030 0.65040 -0.03000
P 	P 	0.76441 0.39205 0.53822 0.38100
O 	O 	0.84270 0.43730 0.50479 -0.28000
O 	O 	0.80720 0.42560 0.58676 -0.29300
O 	O 	0.87220 0.24960 0.32995 -0.27300
O 	O 	0.78080 0.28200 0.30109 -0.48200
O 	O 	0.03870 0.30760 0.68420 -0.27500
O 	O 	0.10520 0.44210 0.69920 -0.51100
N 	N 	0.72470 0.29470 0.53279 -0.18300
C 	C 	0.82990 0.28480 0.33284 0.38600
C 	C 	0.83420 0.32800 0.37676 -0.19300
C 	C 	0.87820 0.32090 0.41468 0.15000
H 	H 	0.90600 0.29130 0.41100 0.00500
C 	C 	0.88120 0.35630 0.45662 -0.26800
H 	H 	0.90930 0.34950 0.48140 0.14800
C 	C 	0.84130 0.40310 0.46184 0.29100
C 	C 	0.79930 0.41320 0.42458 -0.27400
H 	H 	0.77440 0.44570 0.42800 0.14400
C 	C 	0.79450 0.37520 0.38240 0.15300
H 	H 	0.76520 0.38100 0.35790 -0.01400
C 	C 	0.05080 0.38000 0.68020 0.45100
C 	C 	0.98460 0.38850 0.65300 -0.25400
C 	C 	0.91050 0.32180 0.64010 0.23100
H 	H 	0.89990 0.26830 0.64690 -0.01800
C 	C 	0.84980 0.33190 0.61680 -0.35600
H 	H 	0.79900 0.28650 0.60840 0.18700
C 	C 	0.86840 0.41060 0.60719 0.38100
C 	C 	0.94100 0.47770 0.61810 -0.36200
H 	H 	0.95210 0.53070 0.61010 0.18500
C 	C 	0.99930 0.46550 0.64190 0.24000
H 	H 	0.04970 0.51150 0.65040 -0.03000
P 	P 	0.60795 0.37236 0.53822 0.38100
O 	O 	0.56270 0.40540 0.50479 -0.28000
O 	O 	0.57440 0.38160 0.58676 -0.29300
O 	O 	0.75040 0.62260 0.32995 -0.27300
O 	O 	0.71800 0.49880 0.30109 -0.48200
O 	O 	0.69240 0.73110 0.68420 -0.27500
O 	O 	0.55790 0.66310 0.69920 -0.51100
N 	N 	0.70530 0.43000 0.53279 -0.18300
C 	C 	0.71520 0.54510 0.33284 0.38600
C 	C 	0.67200 0.50620 0.37676 -0.19300
C 	C 	0.67910 0.55730 0.41468 0.15000
H 	H 	0.70870 0.61470 0.41100 0.00500
C 	C 	0.64370 0.52490 0.45662 -0.26700
H 	H 	0.65050 0.55980 0.48140 0.14800
C 	C 	0.59690 0.43820 0.46184 0.29100
C 	C 	0.58680 0.38610 0.42458 -0.27400
H 	H 	0.55430 0.32870 0.42800 0.14400
C 	C 	0.62480 0.41930 0.38240 0.15300
H 	H 	0.61900 0.38420 0.35790 -0.01400
C 	C 	0.62000 0.67080 0.68020 0.45100
C 	C 	0.61150 0.59610 0.65300 -0.25400
C 	C 	0.67820 0.58870 0.64010 0.23100
H 	H 	0.73170 0.63160 0.64690 -0.01800
C 	C 	0.66810 0.51790 0.61680 -0.35600
H 	H 	0.71350 0.51250 0.60840 0.18700
C 	C 	0.58940 0.45780 0.60719 0.38100
C 	C 	0.52230 0.46330 0.61810 -0.36200
H 	H 	0.46930 0.42140 0.61010 0.18500
C 	C 	0.53450 0.53380 0.64190 0.24000
H 	H 	0.48850 0.53820 0.65040 -0.03000
Mg	Mg	0.46969 0.27738 0.25000 1.46700
Mg	Mg	0.72262 0.19231 0.25000 1.46700
Mg	Mg	0.80769 0.53031 0.25000 1.46700
Mg	Mg	0.53031 0.72262 0.75000 1.46700
Mg	Mg	0.27738 0.80769 0.75000 1.46700
Mg	Mg	0.19231 0.46969 0.75000 1.46700
