data_crystal

_cell_length_a 11.54500
_cell_length_b 20.22500
_cell_length_c 14.39000
_cell_angle_alpha 90.00000
_cell_angle_beta  90.52800
_cell_angle_gamma 90.00000

_symmetry_space_group_name_	'P 1'
_symmetry_space_group_name_H-M	'P 1'

loop_
_symmetry_equiv_pos_as_xyz
  x,y,z

loop_
_atom_site_label
_atom_site_type_symbol
_atom_site_fract_x
_atom_site_fract_y
_atom_site_fract_z
_atom_site_charge
Co	Co	0.24613 0.12178 0.23127 1.15200
Co	Co	0.31192 0.13856 0.00057 1.15500
Co	Co	0.14780 0.25533 0.09642 1.16800
O 	O 	0.41990 0.13397 0.20482 -0.45500
O 	O 	0.46630 0.16478 0.06128 -0.43700
O 	O 	0.64860 0.20313 0.47164 -0.45300
O 	O 	0.80570 0.26350 0.44540 -0.45200
O 	O 	0.98230 0.25618 0.12900 -0.43800
O 	O 	0.95510 0.15608 0.06670 -0.32600
O 	O 	0.68300 0.95795 0.95970 -0.46300
O 	O 	0.77020 0.97305 0.82385 -0.45400
O 	O 	0.73570 0.28617 0.79888 -0.45800
O 	O 	0.72590 0.20078 0.70062 -0.46500
O 	O 	0.19691 0.16218 0.10261 -0.82100
H 	H 	0.14100 0.13700 0.08800 0.25200
N 	N 	0.30160 0.07837 0.36037 -0.24500
N 	N 	0.40190 0.00170 0.62000 -0.26300
H 	H 	0.42950 0.96220 0.62250 0.14700
N 	N 	0.36410 0.10212 0.87164 -0.25700
C 	C 	0.60830 0.17261 0.18190 -0.15400
C 	C 	0.61700 0.18609 0.27700 0.07600
H 	H 	0.55230 0.18030 0.31410 0.02400
C 	C 	0.72000 0.20805 0.31730 -0.14700
C 	C 	0.81570 0.21638 0.26110 0.07200
H 	H 	0.88390 0.23320 0.28650 0.01900
C 	C 	0.81140 0.19998 0.16710 -0.14100
C 	C 	0.70720 0.17797 0.12589 0.10900
C 	C 	0.72560 0.22620 0.41840 0.36100
C 	C 	0.92340 0.20401 0.11460 0.34000
C 	C 	0.70880 0.15654 0.02620 -0.02900
C 	C 	0.71930 0.20141 0.95290 0.02100
H 	H 	0.71960 0.24660 0.96500 0.03900
C 	C 	0.72940 0.17868 0.86150 -0.11800
C 	C 	0.73370 0.11118 0.84380 0.05500
H 	H 	0.74260 0.09600 0.78330 0.03300
C 	C 	0.72470 0.06641 0.91650 -0.11600
C 	C 	0.71000 0.08951 0.00660 0.02000
H 	H 	0.70080 0.05930 0.05470 0.03900
C 	C 	0.73100 0.22622 0.78140 0.39000
C 	C 	0.72660 0.99335 0.89840 0.38700
C 	C 	0.35680 0.11553 0.42450 0.12200
H 	H 	0.37150 0.15960 0.41020 -0.00600
C 	C 	0.39270 0.09240 0.50960 -0.23300
H 	H 	0.43170 0.12000 0.55100 0.12000
C 	C 	0.36990 0.02684 0.53310 0.20600
C 	C 	0.31750 0.98666 0.46650 -0.22200
H 	H 	0.30490 0.94200 0.47810 0.11100
C 	C 	0.28460 0.01460 0.38230 0.10600
H 	H 	0.24870 0.98760 0.33850 -0.00700
C 	C 	0.39210 0.03669 0.70270 0.21700
C 	C 	0.45240 0.01634 0.78100 -0.23400
H 	H 	0.50280 0.98050 0.77830 0.12100
C 	C 	0.43650 0.05017 0.86330 0.13200
H 	H 	0.47790 0.03640 0.91550 -0.00400
C 	C 	0.30770 0.12074 0.79520 0.13700
H 	H 	0.25880 0.15710 0.79960 -0.03200
C 	C 	0.31596 0.09052 0.71087 -0.24000
H 	H 	0.27250 0.10510 0.66020 0.12200
C 	C 	0.48828 0.15564 0.14511 0.40300
Co	Co	0.25387 0.62178 0.26873 1.15300
Co	Co	0.18808 0.63856 0.49943 1.15800
Co	Co	0.35220 0.75533 0.40358 1.17200
O 	O 	0.08010 0.63397 0.29518 -0.45500
O 	O 	0.03370 0.66478 0.43872 -0.43400
O 	O 	0.85140 0.70313 0.02836 -0.44900
O 	O 	0.69430 0.76350 0.05460 -0.44900
O 	O 	0.51770 0.75618 0.37100 -0.43900
O 	O 	0.54490 0.65608 0.43330 -0.32700
O 	O 	0.81700 0.45795 0.54030 -0.46100
O 	O 	0.72980 0.47305 0.67615 -0.45200
O 	O 	0.76430 0.78617 0.70112 -0.45800
O 	O 	0.77410 0.70078 0.79938 -0.46600
O 	O 	0.30309 0.66218 0.39739 -0.82000
H 	H 	0.35900 0.63700 0.41200 0.25400
N 	N 	0.19840 0.57837 0.13963 -0.24600
N 	N 	0.09810 0.50170 0.88000 -0.26500
H 	H 	0.07050 0.46220 0.87750 0.14900
N 	N 	0.13590 0.60212 0.62836 -0.25800
C 	C 	0.89170 0.67261 0.31810 -0.15300
C 	C 	0.88300 0.68609 0.22300 0.07500
H 	H 	0.94770 0.68030 0.18590 0.02600
C 	C 	0.78000 0.70805 0.18270 -0.14600
C 	C 	0.68430 0.71638 0.23890 0.07100
H 	H 	0.61610 0.73320 0.21350 0.01900
C 	C 	0.68860 0.69998 0.33290 -0.14200
C 	C 	0.79280 0.67797 0.37411 0.10900
C 	C 	0.77440 0.72620 0.08160 0.36100
C 	C 	0.57660 0.70401 0.38540 0.34100
C 	C 	0.79120 0.65654 0.47380 -0.03100
C 	C 	0.78070 0.70141 0.54710 0.02300
H 	H 	0.78040 0.74660 0.53500 0.03900
C 	C 	0.77060 0.67868 0.63850 -0.12000
C 	C 	0.76630 0.61118 0.65620 0.05900
H 	H 	0.75740 0.59600 0.71670 0.03200
C 	C 	0.77530 0.56641 0.58350 -0.12200
C 	C 	0.79000 0.58951 0.49340 0.02400
H 	H 	0.79920 0.55930 0.44530 0.03800
C 	C 	0.76900 0.72622 0.71860 0.39100
C 	C 	0.77340 0.49335 0.60160 0.39200
C 	C 	0.14320 0.61553 0.07550 0.11700
H 	H 	0.12850 0.65960 0.08980 -0.00500
C 	C 	0.10730 0.59240 0.99040 -0.23000
H 	H 	0.06830 0.62000 0.94900 0.12000
C 	C 	0.13010 0.52684 0.96690 0.21400
C 	C 	0.18250 0.48666 0.03350 -0.23600
H 	H 	0.19510 0.44200 0.02190 0.11400
C 	C 	0.21540 0.51460 0.11770 0.11600
H 	H 	0.25130 0.48760 0.16150 -0.01200
C 	C 	0.10790 0.53669 0.79730 0.21700
C 	C 	0.04760 0.51634 0.71900 -0.23300
H 	H 	0.99720 0.48050 0.72170 0.12000
C 	C 	0.06350 0.55017 0.63670 0.13100
H 	H 	0.02210 0.53640 0.58450 -0.00500
C 	C 	0.19230 0.62074 0.70480 0.13700
H 	H 	0.24120 0.65710 0.70040 -0.03300
C 	C 	0.18404 0.59052 0.78913 -0.24000
H 	H 	0.22750 0.60510 0.83980 0.12200
C 	C 	0.01172 0.65564 0.35489 0.40100
Co	Co	0.75387 0.87822 0.76873 1.15300
Co	Co	0.68808 0.86144 0.99943 1.15600
Co	Co	0.85220 0.74467 0.90358 1.16900
O 	O 	0.58010 0.86603 0.79518 -0.45400
O 	O 	0.53370 0.83522 0.93872 -0.43600
O 	O 	0.35140 0.79687 0.52836 -0.45200
O 	O 	0.19430 0.73650 0.55460 -0.45100
O 	O 	0.01770 0.74382 0.87100 -0.43700
O 	O 	0.04490 0.84392 0.93330 -0.32500
O 	O 	0.31700 0.04205 0.04030 -0.46200
O 	O 	0.22980 0.02695 0.17615 -0.45300
O 	O 	0.26430 0.71383 0.20112 -0.45700
O 	O 	0.27410 0.79922 0.29938 -0.46500
O 	O 	0.80309 0.83782 0.89739 -0.82100
H 	H 	0.85900 0.86300 0.91200 0.25200
N 	N 	0.69840 0.92163 0.63963 -0.24500
N 	N 	0.59810 0.99830 0.38000 -0.26300
H 	H 	0.57050 0.03780 0.37750 0.14700
N 	N 	0.63590 0.89788 0.12836 -0.25700
C 	C 	0.39170 0.82739 0.81810 -0.15400
C 	C 	0.38300 0.81391 0.72300 0.07600
H 	H 	0.44770 0.81970 0.68590 0.02400
C 	C 	0.28000 0.79195 0.68270 -0.14700
C 	C 	0.18430 0.78362 0.73890 0.07200
H 	H 	0.11610 0.76680 0.71350 0.01900
C 	C 	0.18860 0.80002 0.83290 -0.14100
C 	C 	0.29280 0.82203 0.87411 0.10900
C 	C 	0.27440 0.77380 0.58160 0.36100
C 	C 	0.07660 0.79599 0.88540 0.34000
C 	C 	0.29120 0.84346 0.97380 -0.02900
C 	C 	0.28070 0.79859 0.04710 0.02100
H 	H 	0.28040 0.75340 0.03500 0.03900
C 	C 	0.27060 0.82132 0.13850 -0.11800
C 	C 	0.26630 0.88882 0.15620 0.05500
H 	H 	0.25740 0.90400 0.21670 0.03300
C 	C 	0.27530 0.93359 0.08350 -0.11600
C 	C 	0.29000 0.91049 0.99340 0.02000
H 	H 	0.29920 0.94070 0.94530 0.03900
C 	C 	0.26900 0.77378 0.21860 0.39000
C 	C 	0.27340 0.00665 0.10160 0.38700
C 	C 	0.64320 0.88447 0.57550 0.12200
H 	H 	0.62850 0.84040 0.58980 -0.00600
C 	C 	0.60730 0.90760 0.49040 -0.23300
H 	H 	0.56830 0.88000 0.44900 0.12000
C 	C 	0.63010 0.97316 0.46690 0.20600
C 	C 	0.68250 0.01334 0.53350 -0.22200
H 	H 	0.69510 0.05800 0.52190 0.11100
C 	C 	0.71540 0.98540 0.61770 0.10600
H 	H 	0.75130 0.01240 0.66150 -0.00700
C 	C 	0.60790 0.96331 0.29730 0.21700
C 	C 	0.54760 0.98366 0.21900 -0.23400
H 	H 	0.49720 0.01950 0.22170 0.12100
C 	C 	0.56350 0.94983 0.13670 0.13200
H 	H 	0.52210 0.96360 0.08450 -0.00400
C 	C 	0.69230 0.87926 0.20480 0.13700
H 	H 	0.74120 0.84290 0.20040 -0.03200
C 	C 	0.68404 0.90948 0.28913 -0.24000
H 	H 	0.72750 0.89490 0.33980 0.12200
C 	C 	0.51172 0.84436 0.85489 0.40300
Co	Co	0.74613 0.37822 0.73127 1.15300
Co	Co	0.81192 0.36144 0.50057 1.15800
Co	Co	0.64780 0.24467 0.59642 1.17200
O 	O 	0.91990 0.36603 0.70482 -0.45500
O 	O 	0.96630 0.33522 0.56128 -0.43400
O 	O 	0.14860 0.29687 0.97164 -0.44900
O 	O 	0.30570 0.23650 0.94540 -0.44900
O 	O 	0.48230 0.24382 0.62900 -0.43900
O 	O 	0.45510 0.34392 0.56670 -0.32700
O 	O 	0.18300 0.54205 0.45970 -0.46100
O 	O 	0.27020 0.52695 0.32385 -0.45200
O 	O 	0.23570 0.21383 0.29888 -0.45800
O 	O 	0.22590 0.29922 0.20062 -0.46600
O 	O 	0.69691 0.33782 0.60261 -0.82000
H 	H 	0.64100 0.36300 0.58800 0.25400
N 	N 	0.80160 0.42163 0.86037 -0.24600
N 	N 	0.90190 0.49830 0.12000 -0.26500
H 	H 	0.92950 0.53780 0.12250 0.14900
N 	N 	0.86410 0.39788 0.37164 -0.25800
C 	C 	0.10830 0.32739 0.68190 -0.15300
C 	C 	0.11700 0.31391 0.77700 0.07500
H 	H 	0.05230 0.31970 0.81410 0.02600
C 	C 	0.22000 0.29195 0.81730 -0.14600
C 	C 	0.31570 0.28362 0.76110 0.07100
H 	H 	0.38390 0.26680 0.78650 0.01900
C 	C 	0.31140 0.30002 0.66710 -0.14200
C 	C 	0.20720 0.32203 0.62589 0.10900
C 	C 	0.22560 0.27380 0.91840 0.36100
C 	C 	0.42340 0.29599 0.61460 0.34100
C 	C 	0.20880 0.34346 0.52620 -0.03100
C 	C 	0.21930 0.29859 0.45290 0.02300
H 	H 	0.21960 0.25340 0.46500 0.03900
C 	C 	0.22940 0.32132 0.36150 -0.12000
C 	C 	0.23370 0.38882 0.34380 0.05900
H 	H 	0.24260 0.40400 0.28330 0.03200
C 	C 	0.22470 0.43359 0.41650 -0.12200
C 	C 	0.21000 0.41049 0.50660 0.02400
H 	H 	0.20080 0.44070 0.55470 0.03800
C 	C 	0.23100 0.27378 0.28140 0.39100
C 	C 	0.22660 0.50665 0.39840 0.39200
C 	C 	0.85680 0.38447 0.92450 0.11700
H 	H 	0.87150 0.34040 0.91020 -0.00500
C 	C 	0.89270 0.40760 0.00960 -0.23000
H 	H 	0.93170 0.38000 0.05100 0.12000
C 	C 	0.86990 0.47316 0.03310 0.21400
C 	C 	0.81750 0.51334 0.96650 -0.23600
H 	H 	0.80490 0.55800 0.97810 0.11400
C 	C 	0.78460 0.48540 0.88230 0.11600
H 	H 	0.74870 0.51240 0.83850 -0.01200
C 	C 	0.89210 0.46331 0.20270 0.21700
C 	C 	0.95240 0.48366 0.28100 -0.23300
H 	H 	0.00280 0.51950 0.27830 0.12000
C 	C 	0.93650 0.44983 0.36330 0.13100
H 	H 	0.97790 0.46360 0.41550 -0.00500
C 	C 	0.80770 0.37926 0.29520 0.13700
H 	H 	0.75880 0.34290 0.29960 -0.03300
C 	C 	0.81596 0.40948 0.21087 -0.24000
H 	H 	0.77250 0.39490 0.16020 0.12200
C 	C 	0.98828 0.34436 0.64511 0.40100
