data_crystal

_cell_length_a 18.05200
_cell_length_b 18.05200
_cell_length_c 19.52300
_cell_angle_alpha 90.00000
_cell_angle_beta  90.00000
_cell_angle_gamma 90.00000

_symmetry_space_group_name_	'P 1'
_symmetry_space_group_name_H-M	'P 1'

loop_
_symmetry_equiv_pos_as_xyz
  x,y,z

loop_
_atom_site_label
_atom_site_type_symbol
_atom_site_fract_x
_atom_site_fract_y
_atom_site_fract_z
_atom_site_charge
C 	C 	0.21210 0.49750 0.98230 -0.62800
H 	H 	0.21990 0.54110 0.01220 0.19000
H 	H 	0.18460 0.45960 0.00870 0.19600
C 	C 	0.16810 0.51980 0.92050 0.44800
H 	H 	0.19370 0.56030 0.89590 -0.12800
H 	H 	0.16300 0.47720 0.88890 -0.12000
C 	C 	0.09310 0.54530 0.94400 -0.73000
H 	H 	0.09840 0.57650 0.98450 0.21300
H 	H 	0.06950 0.57390 0.90700 0.20900
H 	H 	0.06240 0.50210 0.95470 0.21100
Li	Li	0.37310 0.53100 0.07320 0.54700
C 	C 	0.28560 0.46680 0.96020 0.55200
O 	O 	0.29420 0.42390 0.90910 -0.46000
O 	O 	0.33610 0.48170 0.99950 -0.48900
C 	C 	0.28790 0.50250 0.48230 -0.62900
H 	H 	0.28010 0.45890 0.51220 0.18900
H 	H 	0.31540 0.54040 0.50870 0.19500
C 	C 	0.33190 0.48020 0.42050 0.44700
H 	H 	0.30630 0.43970 0.39590 -0.12900
H 	H 	0.33700 0.52280 0.38890 -0.12100
C 	C 	0.40690 0.45470 0.44400 -0.73100
H 	H 	0.40160 0.42350 0.48450 0.21200
H 	H 	0.43050 0.42610 0.40700 0.20800
H 	H 	0.43760 0.49790 0.45470 0.21000
Li	Li	0.12690 0.46900 0.57320 0.54600
C 	C 	0.21440 0.53320 0.46020 0.55100
O 	O 	0.20580 0.57610 0.40910 -0.46000
O 	O 	0.16390 0.51830 0.49950 -0.48800
C 	C 	0.25250 0.46210 0.23230 -0.62900
H 	H 	0.20890 0.46990 0.26220 0.19000
H 	H 	0.29040 0.43460 0.25870 0.19500
C 	C 	0.23020 0.41810 0.17050 0.44700
H 	H 	0.18970 0.44370 0.14590 -0.12900
H 	H 	0.27280 0.41300 0.13890 -0.12100
C 	C 	0.20470 0.34310 0.19400 -0.73100
H 	H 	0.17350 0.34840 0.23450 0.21200
H 	H 	0.17610 0.31950 0.15700 0.20800
H 	H 	0.24790 0.31240 0.20470 0.21000
Li	Li	0.21900 0.62310 0.32320 0.54600
C 	C 	0.28320 0.53560 0.21020 0.55100
O 	O 	0.32610 0.54420 0.15910 -0.46100
O 	O 	0.26830 0.58610 0.24950 -0.48900
C 	C 	0.24750 0.53790 0.73230 -0.62900
H 	H 	0.29110 0.53010 0.76220 0.18900
H 	H 	0.20960 0.56540 0.75870 0.19500
C 	C 	0.26980 0.58190 0.67050 0.44700
H 	H 	0.31030 0.55630 0.64590 -0.12900
H 	H 	0.22720 0.58700 0.63890 -0.12100
C 	C 	0.29530 0.65690 0.69400 -0.73100
H 	H 	0.32650 0.65160 0.73450 0.21200
H 	H 	0.32390 0.68050 0.65700 0.20800
H 	H 	0.25210 0.68760 0.70470 0.21000
Li	Li	0.28100 0.37690 0.82320 0.54600
C 	C 	0.21680 0.46440 0.71020 0.55100
O 	O 	0.17390 0.45580 0.65910 -0.46000
O 	O 	0.23170 0.41390 0.74950 -0.48800
C 	C 	0.71210 0.99750 0.48230 -0.62700
H 	H 	0.71990 0.04110 0.51220 0.18900
H 	H 	0.68460 0.95960 0.50870 0.19500
C 	C 	0.66810 0.01980 0.42050 0.44400
H 	H 	0.69370 0.06030 0.39590 -0.12900
H 	H 	0.66300 0.97720 0.38890 -0.12000
C 	C 	0.59310 0.04530 0.44400 -0.72900
H 	H 	0.59840 0.07650 0.48450 0.21100
H 	H 	0.56950 0.07390 0.40700 0.20700
H 	H 	0.56240 0.00210 0.45470 0.21000
Li	Li	0.87310 0.03100 0.57320 0.54600
C 	C 	0.78560 0.96680 0.46020 0.55100
O 	O 	0.79420 0.92390 0.40910 -0.46000
O 	O 	0.83610 0.98170 0.49950 -0.48800
C 	C 	0.78790 0.00250 0.98230 -0.62100
H 	H 	0.78010 0.95890 0.01220 0.18800
H 	H 	0.81540 0.04040 0.00870 0.19200
C 	C 	0.83190 0.98020 0.92050 0.43700
H 	H 	0.80630 0.93970 0.89590 -0.12700
H 	H 	0.83700 0.02280 0.88890 -0.11700
C 	C 	0.90690 0.95470 0.94400 -0.72300
H 	H 	0.90160 0.92350 0.98450 0.20900
H 	H 	0.93050 0.92610 0.90700 0.20500
H 	H 	0.93760 0.99790 0.95470 0.20800
Li	Li	0.62690 0.96900 0.07320 0.54600
C 	C 	0.71440 0.03320 0.96020 0.54900
O 	O 	0.70580 0.07610 0.90910 -0.46000
O 	O 	0.66390 0.01830 0.99950 -0.48800
C 	C 	0.75250 0.96210 0.73230 -0.63000
H 	H 	0.70890 0.96990 0.76220 0.18900
H 	H 	0.79040 0.93460 0.75870 0.19500
C 	C 	0.73020 0.91810 0.67050 0.44700
H 	H 	0.68970 0.94370 0.64590 -0.12900
H 	H 	0.77280 0.91300 0.63890 -0.12100
C 	C 	0.70470 0.84310 0.69400 -0.73100
H 	H 	0.67350 0.84840 0.73450 0.21200
H 	H 	0.67610 0.81950 0.65700 0.20800
H 	H 	0.74790 0.81240 0.70470 0.21000
Li	Li	0.71900 0.12310 0.82320 0.54600
C 	C 	0.78320 0.03560 0.71020 0.55200
O 	O 	0.82610 0.04420 0.65910 -0.46100
O 	O 	0.76830 0.08610 0.74950 -0.48900
C 	C 	0.74750 0.03790 0.23230 -0.63100
H 	H 	0.79110 0.03010 0.26220 0.19000
H 	H 	0.70960 0.06540 0.25870 0.19600
C 	C 	0.76980 0.08190 0.17050 0.44900
H 	H 	0.81030 0.05630 0.14590 -0.13000
H 	H 	0.72720 0.08700 0.13890 -0.12200
C 	C 	0.79530 0.15690 0.19400 -0.73200
H 	H 	0.82650 0.15160 0.23450 0.21200
H 	H 	0.82390 0.18050 0.15700 0.20800
H 	H 	0.75210 0.18760 0.20470 0.21100
Li	Li	0.78100 0.87690 0.32320 0.54600
C 	C 	0.71680 0.96440 0.21020 0.55300
O 	O 	0.67390 0.95580 0.15910 -0.46100
O 	O 	0.73170 0.91390 0.24950 -0.48900
C 	C 	0.78790 0.50250 0.01770 -0.62900
H 	H 	0.78010 0.45890 0.98780 0.18900
H 	H 	0.81540 0.54040 0.99130 0.19500
C 	C 	0.83190 0.48020 0.07950 0.44700
H 	H 	0.80630 0.43970 0.10410 -0.12900
H 	H 	0.83700 0.52280 0.11110 -0.12100
C 	C 	0.90690 0.45470 0.05600 -0.73100
H 	H 	0.90160 0.42350 0.01550 0.21200
H 	H 	0.93050 0.42610 0.09300 0.20800
H 	H 	0.93760 0.49790 0.04530 0.21000
Li	Li	0.62690 0.46900 0.92680 0.54600
C 	C 	0.71440 0.53320 0.03980 0.55100
O 	O 	0.70580 0.57610 0.09090 -0.46000
O 	O 	0.66390 0.51830 0.00050 -0.48900
C 	C 	0.71210 0.49750 0.51770 -0.62900
H 	H 	0.71990 0.54110 0.48780 0.18900
H 	H 	0.68460 0.45960 0.49130 0.19500
C 	C 	0.66810 0.51980 0.57950 0.44700
H 	H 	0.69370 0.56030 0.60410 -0.12900
H 	H 	0.66300 0.47720 0.61110 -0.12100
C 	C 	0.59310 0.54530 0.55600 -0.73100
H 	H 	0.59840 0.57650 0.51550 0.21200
H 	H 	0.56950 0.57390 0.59300 0.20800
H 	H 	0.56240 0.50210 0.54530 0.21000
Li	Li	0.87310 0.53100 0.42680 0.54600
C 	C 	0.78560 0.46680 0.53980 0.55100
O 	O 	0.79420 0.42390 0.59090 -0.46000
O 	O 	0.83610 0.48170 0.50050 -0.48800
C 	C 	0.74750 0.53790 0.76770 -0.62900
H 	H 	0.79110 0.53010 0.73780 0.19000
H 	H 	0.70960 0.56540 0.74130 0.19500
C 	C 	0.76980 0.58190 0.82950 0.44700
H 	H 	0.81030 0.55630 0.85410 -0.12900
H 	H 	0.72720 0.58700 0.86110 -0.12100
C 	C 	0.79530 0.65690 0.80600 -0.73100
H 	H 	0.82650 0.65160 0.76550 0.21200
H 	H 	0.82390 0.68050 0.84300 0.20800
H 	H 	0.75210 0.68760 0.79530 0.21000
Li	Li	0.78100 0.37690 0.67680 0.54600
C 	C 	0.71680 0.46440 0.78980 0.55100
O 	O 	0.67390 0.45580 0.84090 -0.46100
O 	O 	0.73170 0.41390 0.75050 -0.48900
C 	C 	0.75250 0.46210 0.26770 -0.62900
H 	H 	0.70890 0.46990 0.23780 0.18900
H 	H 	0.79040 0.43460 0.24130 0.19500
C 	C 	0.73020 0.41810 0.32950 0.44700
H 	H 	0.68970 0.44370 0.35410 -0.12900
H 	H 	0.77280 0.41300 0.36110 -0.12100
C 	C 	0.70470 0.34310 0.30600 -0.73100
H 	H 	0.67350 0.34840 0.26550 0.21200
H 	H 	0.67610 0.31950 0.34300 0.20800
H 	H 	0.74790 0.31240 0.29530 0.21000
Li	Li	0.71900 0.62310 0.17680 0.54600
C 	C 	0.78320 0.53560 0.28980 0.55100
O 	O 	0.82610 0.54420 0.34090 -0.46000
O 	O 	0.76830 0.58610 0.25050 -0.48800
C 	C 	0.28790 0.00250 0.51770 -0.62700
H 	H 	0.28010 0.95890 0.48780 0.18900
H 	H 	0.31540 0.04040 0.49130 0.19500
C 	C 	0.33190 0.98020 0.57950 0.44400
H 	H 	0.30630 0.93970 0.60410 -0.12900
H 	H 	0.33700 0.02280 0.61110 -0.12000
C 	C 	0.40690 0.95470 0.55600 -0.72900
H 	H 	0.40160 0.92350 0.51550 0.21100
H 	H 	0.43050 0.92610 0.59300 0.20700
H 	H 	0.43760 0.99790 0.54530 0.21000
Li	Li	0.12690 0.96900 0.42680 0.54600
C 	C 	0.21440 0.03320 0.53980 0.55100
O 	O 	0.20580 0.07610 0.59090 -0.46000
O 	O 	0.16390 0.01830 0.50050 -0.48800
C 	C 	0.21210 0.99750 0.01770 -0.62100
H 	H 	0.21990 0.04110 0.98780 0.18800
H 	H 	0.18460 0.95960 0.99130 0.19200
C 	C 	0.16810 0.01980 0.07950 0.43700
H 	H 	0.19370 0.06030 0.10410 -0.12700
H 	H 	0.16300 0.97720 0.11110 -0.11700
C 	C 	0.09310 0.04530 0.05600 -0.72300
H 	H 	0.09840 0.07650 0.01550 0.20900
H 	H 	0.06950 0.07390 0.09300 0.20500
H 	H 	0.06240 0.00210 0.04530 0.20800
Li	Li	0.37310 0.03100 0.92680 0.54600
C 	C 	0.28560 0.96680 0.03980 0.54900
O 	O 	0.29420 0.92390 0.09090 -0.46000
O 	O 	0.33610 0.98170 0.00050 -0.48800
C 	C 	0.24750 0.03790 0.26770 -0.63000
H 	H 	0.29110 0.03010 0.23780 0.18900
H 	H 	0.20960 0.06540 0.24130 0.19500
C 	C 	0.26980 0.08190 0.32950 0.44700
H 	H 	0.31030 0.05630 0.35410 -0.12900
H 	H 	0.22720 0.08700 0.36110 -0.12100
C 	C 	0.29530 0.15690 0.30600 -0.73100
H 	H 	0.32650 0.15160 0.26550 0.21200
H 	H 	0.32390 0.18050 0.34300 0.20800
H 	H 	0.25210 0.18760 0.29530 0.21000
Li	Li	0.28100 0.87690 0.17680 0.54600
C 	C 	0.21680 0.96440 0.28980 0.55200
O 	O 	0.17390 0.95580 0.34090 -0.46100
O 	O 	0.23170 0.91390 0.25050 -0.48900
C 	C 	0.25250 0.96210 0.76770 -0.63100
H 	H 	0.20890 0.96990 0.73780 0.19000
H 	H 	0.29040 0.93460 0.74130 0.19600
C 	C 	0.23020 0.91810 0.82950 0.44900
H 	H 	0.18970 0.94370 0.85410 -0.13000
H 	H 	0.27280 0.91300 0.86110 -0.12200
C 	C 	0.20470 0.84310 0.80600 -0.73200
H 	H 	0.17350 0.84840 0.76550 0.21200
H 	H 	0.17610 0.81950 0.84300 0.20800
H 	H 	0.24790 0.81240 0.79530 0.21100
Li	Li	0.21900 0.12310 0.67680 0.54600
C 	C 	0.28320 0.03560 0.78980 0.55300
O 	O 	0.32610 0.04420 0.84090 -0.46100
O 	O 	0.26830 0.08610 0.75050 -0.48900
