data_crystal

_cell_length_a 11.73020
_cell_length_b 11.90260
_cell_length_c 12.53350
_cell_angle_alpha 106.76900
_cell_angle_beta  106.19500
_cell_angle_gamma 113.46200

_symmetry_space_group_name_	'P 1'
_symmetry_space_group_name_H-M	'P 1'

loop_
_symmetry_equiv_pos_as_xyz
  x,y,z

loop_
_atom_site_label
_atom_site_type_symbol
_atom_site_fract_x
_atom_site_fract_y
_atom_site_fract_z
_atom_site_charge
Ag	Ag	0.40852 0.23169 0.60612 0.48600
Ag	Ag	0.73222 0.27957 0.87468 0.50600
Ag	Ag	0.69760 0.37443 0.60612 0.48500
Ag	Ag	0.64246 0.59511 0.87468 0.50600
Ag	Ag	0.59148 0.76831 0.39388 0.48500
Ag	Ag	0.26778 0.72043 0.12532 0.50500
Ag	Ag	0.30240 0.62557 0.39388 0.48500
Ag	Ag	0.35754 0.40489 0.12532 0.50600
H 	H 	0.59170 0.32610 0.07320 -0.02700
H 	H 	0.26940 0.35620 0.74320 0.00900
H 	H 	0.23400 0.36590 0.85580 0.00900
H 	H 	0.04730 0.18010 0.67560 0.13500
H 	H 	0.13940 0.11840 0.65440 0.11800
H 	H 	0.10390 0.12810 0.76720 0.13200
H 	H 	0.47920 0.70700 0.69320 -0.03400
H 	H 	0.23880 0.32860 0.30400 -0.01600
H 	H 	0.27240 0.23470 0.35600 -0.01200
H 	H 	0.03650 0.14570 0.26740 0.14300
H 	H 	0.05830 0.28270 0.35840 0.14200
H 	H 	0.09200 0.18890 0.41060 0.13900
H 	H 	0.98150 0.74710 0.07320 -0.02200
H 	H 	0.97380 0.38700 0.74320 0.00100
H 	H 	0.12180 0.48990 0.85580 0.00200
H 	H 	0.12830 0.49550 0.67560 0.14200
H 	H 	0.01500 0.53600 0.65440 0.12500
H 	H 	0.16330 0.63910 0.76720 0.13900
H 	H 	0.71400 0.98620 0.69320 -0.03300
H 	H 	0.56520 0.97540 0.30400 -0.01700
H 	H 	0.58360 0.12130 0.35600 -0.01300
H 	H 	0.73090 0.12170 0.26740 0.14500
H 	H 	0.80010 0.07570 0.35840 0.14500
H 	H 	0.81860 0.22170 0.41060 0.14100
H 	H 	0.40830 0.67390 0.92680 -0.02700
H 	H 	0.73060 0.64380 0.25680 0.00900
H 	H 	0.76600 0.63410 0.14420 0.00900
H 	H 	0.95270 0.81990 0.32440 0.13500
H 	H 	0.86060 0.88160 0.34560 0.11800
H 	H 	0.89610 0.87190 0.23280 0.13200
H 	H 	0.52080 0.29300 0.30680 -0.03400
H 	H 	0.76120 0.67140 0.69600 -0.01600
H 	H 	0.72760 0.76530 0.64400 -0.01200
H 	H 	0.96350 0.85430 0.73260 0.14300
H 	H 	0.94170 0.71730 0.64160 0.14200
H 	H 	0.90800 0.81110 0.58940 0.13900
H 	H 	0.01850 0.25290 0.92680 -0.02200
H 	H 	0.02620 0.61300 0.25680 0.00100
H 	H 	0.87820 0.51010 0.14420 0.00200
H 	H 	0.87170 0.50450 0.32440 0.14200
H 	H 	0.98500 0.46400 0.34560 0.12500
H 	H 	0.83670 0.36090 0.23280 0.13900
H 	H 	0.28600 0.01380 0.30680 -0.03300
H 	H 	0.43480 0.02460 0.69600 -0.01700
H 	H 	0.41640 0.87870 0.64400 -0.01300
H 	H 	0.26910 0.87830 0.73260 0.14500
H 	H 	0.19990 0.92430 0.64160 0.14500
H 	H 	0.18140 0.77830 0.58940 0.14100
C 	C 	0.37840 0.31220 0.86340 0.06600
C 	C 	0.53639 0.31849 0.99878 0.07500
C 	C 	0.25150 0.31180 0.79540 -0.02200
C 	C 	0.12420 0.17220 0.71620 -0.42300
C 	C 	0.33341 0.41761 0.49302 0.06400
C 	C 	0.44414 0.61434 0.64508 0.08100
C 	C 	0.23820 0.29710 0.36720 0.02000
C 	C 	0.09350 0.22200 0.34940 -0.46900
C 	C 	0.98500 0.55120 0.86340 0.05500
C 	C 	0.96239 0.68029 0.99878 0.06700
C 	C 	0.04390 0.48360 0.79540 0.00200
C 	C 	0.09200 0.54400 0.71620 -0.44700
C 	C 	0.65961 0.07541 0.49302 0.06300
C 	C 	0.70094 0.03074 0.64508 0.07900
C 	C 	0.62900 0.07010 0.36720 0.02400
C 	C 	0.75590 0.12740 0.34940 -0.47400
C 	C 	0.62160 0.68780 0.13660 0.06600
C 	C 	0.46361 0.68151 0.00122 0.07500
C 	C 	0.74850 0.68820 0.20460 -0.02200
C 	C 	0.87580 0.82780 0.28380 -0.42300
C 	C 	0.66659 0.58239 0.50698 0.06400
C 	C 	0.55586 0.38566 0.35492 0.08100
C 	C 	0.76180 0.70290 0.63280 0.02000
C 	C 	0.90650 0.77800 0.65060 -0.46900
C 	C 	0.01500 0.44880 0.13660 0.05500
C 	C 	0.03761 0.31971 0.00122 0.06700
C 	C 	0.95610 0.51640 0.20460 0.00200
C 	C 	0.90800 0.45600 0.28380 -0.44700
C 	C 	0.34039 0.92459 0.50698 0.06300
C 	C 	0.29906 0.96926 0.35492 0.07900
C 	C 	0.37100 0.92990 0.63280 0.02400
C 	C 	0.24410 0.87260 0.65060 -0.47400
N 	N 	0.45849 0.29299 0.81218 -0.18200
N 	N 	0.56217 0.29747 0.90194 -0.18400
N 	N 	0.42274 0.32834 0.98088 -0.19800
N 	N 	0.40351 0.40971 0.59022 -0.17700
N 	N 	0.47662 0.53872 0.68984 -0.17400
N 	N 	0.35500 0.54490 0.52220 -0.20900
N 	N 	0.85369 0.51919 0.81218 -0.18000
N 	N 	0.83977 0.60447 0.90194 -0.18300
N 	N 	0.05814 0.65254 0.98088 -0.19200
N 	N 	0.68671 0.18051 0.59022 -0.17600
N 	N 	0.71322 0.15112 0.68984 -0.17300
N 	N 	0.66720 0.97730 0.52220 -0.20800
N 	N 	0.54151 0.70701 0.18782 -0.18200
N 	N 	0.43783 0.70253 0.09806 -0.18400
N 	N 	0.57726 0.67166 0.01912 -0.19800
N 	N 	0.59649 0.59029 0.40978 -0.17700
N 	N 	0.52338 0.46128 0.31016 -0.17400
N 	N 	0.64500 0.45510 0.47780 -0.20900
N 	N 	0.14631 0.48081 0.18782 -0.18000
N 	N 	0.16023 0.39553 0.09806 -0.18300
N 	N 	0.94186 0.34746 0.01912 -0.19200
N 	N 	0.31329 0.81949 0.40978 -0.17600
N 	N 	0.28678 0.84888 0.31016 -0.17300
N 	N 	0.33280 0.02270 0.47780 -0.20800
