data_crystal

_cell_length_a 18.59440
_cell_length_b 18.59440
_cell_length_c 38.01200
_cell_angle_alpha 90.00000
_cell_angle_beta  90.00000
_cell_angle_gamma 120.00000

_symmetry_space_group_name_	'P 1'
_symmetry_space_group_name_H-M	'P 1'

loop_
_symmetry_equiv_pos_as_xyz
  x,y,z

loop_
_atom_site_label
_atom_site_type_symbol
_atom_site_fract_x
_atom_site_fract_y
_atom_site_fract_z
_atom_site_charge
C 	C 	0.46980 0.40140 0.58794 -0.04000
H 	H 	0.42160 0.36280 0.57650 0.06900
C 	C 	0.48450 0.38630 0.62218 -0.07000
C 	C 	0.42560 0.30560 0.63963 0.36200
C 	C 	0.54890 0.56720 0.52200 0.23200
H 	H 	0.57900 0.61220 0.53690 -0.03500
N 	N 	0.57850 0.53870 0.51300 -0.20500
O 	O 	0.44424 0.29552 0.67035 -0.40600
O 	O 	0.36460 0.25570 0.62219 -0.41000
C 	C 	0.13647 0.73473 0.92127 -0.03900
H 	H 	0.08827 0.69613 0.90983 0.07000
C 	C 	0.15117 0.71963 0.95551 -0.06900
C 	C 	0.09227 0.63893 0.97296 0.36300
C 	C 	0.21557 0.90053 0.85533 0.23300
H 	H 	0.24567 0.94553 0.87023 -0.03400
N 	N 	0.24517 0.87203 0.84633 -0.20400
O 	O 	0.11091 0.62885 0.00368 -0.40500
O 	O 	0.03127 0.58903 0.95552 -0.41000
C 	C 	0.80313 0.06807 0.25461 -0.03900
H 	H 	0.75493 0.02947 0.24317 0.07000
C 	C 	0.81783 0.05297 0.28885 -0.06900
C 	C 	0.75893 0.97227 0.30630 0.36300
C 	C 	0.88223 0.23387 0.18867 0.23300
H 	H 	0.91233 0.27887 0.20357 -0.03400
N 	N 	0.91183 0.20537 0.17967 -0.20400
O 	O 	0.77757 0.96219 0.33702 -0.40500
O 	O 	0.69793 0.92237 0.28886 -0.41000
C 	C 	0.59860 0.06840 0.58794 -0.03900
H 	H 	0.63720 0.05880 0.57650 0.07000
C 	C 	0.61370 0.09820 0.62218 -0.06900
C 	C 	0.69440 0.12000 0.63963 0.36300
C 	C 	0.43280 0.98170 0.52200 0.23300
H 	H 	0.38780 0.96680 0.53690 -0.03400
N 	N 	0.46130 0.03980 0.51300 -0.20400
O 	O 	0.70448 0.14872 0.67035 -0.40500
O 	O 	0.74430 0.10890 0.62219 -0.41000
C 	C 	0.26527 0.40173 0.92127 -0.03900
H 	H 	0.30387 0.39213 0.90983 0.07000
C 	C 	0.28037 0.43153 0.95551 -0.06900
C 	C 	0.36107 0.45333 0.97296 0.36300
C 	C 	0.09947 0.31503 0.85533 0.23300
H 	H 	0.05447 0.30013 0.87023 -0.03400
N 	N 	0.12797 0.37313 0.84633 -0.20400
O 	O 	0.37115 0.48205 0.00368 -0.40500
O 	O 	0.41097 0.44223 0.95552 -0.41000
C 	C 	0.93193 0.73507 0.25461 -0.03900
H 	H 	0.97053 0.72547 0.24317 0.07000
C 	C 	0.94703 0.76487 0.28885 -0.06900
C 	C 	0.02773 0.78667 0.30630 0.36300
C 	C 	0.76613 0.64837 0.18867 0.23300
H 	H 	0.72113 0.63347 0.20357 -0.03400
N 	N 	0.79463 0.70647 0.17967 -0.20400
O 	O 	0.03781 0.81539 0.33702 -0.40500
O 	O 	0.07763 0.77557 0.28886 -0.41000
C 	C 	0.93160 0.53020 0.58794 -0.03900
H 	H 	0.94120 0.57840 0.57650 0.07000
C 	C 	0.90180 0.51550 0.62218 -0.06900
C 	C 	0.88000 0.57440 0.63963 0.36300
C 	C 	0.01830 0.45110 0.52200 0.23300
H 	H 	0.03320 0.42100 0.53690 -0.03400
N 	N 	0.96020 0.42150 0.51300 -0.20400
O 	O 	0.85128 0.55576 0.67035 -0.40500
O 	O 	0.89110 0.63540 0.62219 -0.41000
C 	C 	0.59827 0.86353 0.92127 -0.03900
H 	H 	0.60787 0.91173 0.90983 0.07000
C 	C 	0.56847 0.84883 0.95551 -0.06900
C 	C 	0.54667 0.90773 0.97296 0.36300
C 	C 	0.68497 0.78443 0.85533 0.23300
H 	H 	0.69987 0.75433 0.87023 -0.03400
N 	N 	0.62687 0.75483 0.84633 -0.20400
O 	O 	0.51795 0.88909 0.00368 -0.40500
O 	O 	0.55777 0.96873 0.95552 -0.41000
C 	C 	0.26493 0.19687 0.25461 -0.03900
H 	H 	0.27453 0.24507 0.24317 0.07000
C 	C 	0.23513 0.18217 0.28885 -0.06900
C 	C 	0.21333 0.24107 0.30630 0.36300
C 	C 	0.35163 0.11777 0.18867 0.23300
H 	H 	0.36653 0.08767 0.20357 -0.03400
N 	N 	0.29353 0.08817 0.17967 -0.20400
O 	O 	0.18461 0.22243 0.33702 -0.40500
O 	O 	0.22443 0.30207 0.28886 -0.41000
C 	C 	0.40140 0.46980 0.41206 -0.03900
H 	H 	0.36280 0.42160 0.42350 0.07000
C 	C 	0.38630 0.48450 0.37782 -0.06900
C 	C 	0.30560 0.42560 0.36037 0.36300
C 	C 	0.56720 0.54890 0.47800 0.23300
H 	H 	0.61220 0.57900 0.46310 -0.03400
N 	N 	0.53870 0.57850 0.48700 -0.20400
O 	O 	0.29552 0.44424 0.32965 -0.40500
O 	O 	0.25570 0.36460 0.37781 -0.41000
C 	C 	0.06807 0.80313 0.74539 -0.03900
H 	H 	0.02947 0.75493 0.75683 0.07000
C 	C 	0.05297 0.81783 0.71115 -0.06900
C 	C 	0.97227 0.75893 0.69370 0.36300
C 	C 	0.23387 0.88223 0.81133 0.23300
H 	H 	0.27887 0.91233 0.79643 -0.03400
N 	N 	0.20537 0.91183 0.82033 -0.20400
O 	O 	0.96219 0.77757 0.66298 -0.40500
O 	O 	0.92237 0.69793 0.71114 -0.41000
C 	C 	0.73473 0.13647 0.07873 -0.03900
H 	H 	0.69613 0.08827 0.09017 0.07000
C 	C 	0.71963 0.15117 0.04449 -0.06900
C 	C 	0.63893 0.09227 0.02704 0.36300
C 	C 	0.90053 0.21557 0.14467 0.23300
H 	H 	0.94553 0.24567 0.12977 -0.03400
N 	N 	0.87203 0.24517 0.15367 -0.20400
O 	O 	0.62885 0.11091 0.99632 -0.40500
O 	O 	0.58903 0.03127 0.04448 -0.41000
C 	C 	0.06840 0.59860 0.41206 -0.03900
H 	H 	0.05880 0.63720 0.42350 0.07000
C 	C 	0.09820 0.61370 0.37782 -0.06900
C 	C 	0.12000 0.69440 0.36037 0.36300
C 	C 	0.98170 0.43280 0.47800 0.23300
H 	H 	0.96680 0.38780 0.46310 -0.03400
N 	N 	0.03980 0.46130 0.48700 -0.20400
O 	O 	0.14872 0.70448 0.32965 -0.40500
O 	O 	0.10890 0.74430 0.37781 -0.41000
C 	C 	0.73507 0.93193 0.74539 -0.03900
H 	H 	0.72547 0.97053 0.75683 0.07000
C 	C 	0.76487 0.94703 0.71115 -0.06900
C 	C 	0.78667 0.02773 0.69370 0.36300
C 	C 	0.64837 0.76613 0.81133 0.23300
H 	H 	0.63347 0.72113 0.79643 -0.03400
N 	N 	0.70647 0.79463 0.82033 -0.20400
O 	O 	0.81539 0.03781 0.66298 -0.40500
O 	O 	0.77557 0.07763 0.71114 -0.41000
C 	C 	0.40173 0.26527 0.07873 -0.03900
H 	H 	0.39213 0.30387 0.09017 0.07000
C 	C 	0.43153 0.28037 0.04449 -0.06900
C 	C 	0.45333 0.36107 0.02704 0.36300
C 	C 	0.31503 0.09947 0.14467 0.23300
H 	H 	0.30013 0.05447 0.12977 -0.03400
N 	N 	0.37313 0.12797 0.15367 -0.20400
O 	O 	0.48205 0.37115 0.99632 -0.40500
O 	O 	0.44223 0.41097 0.04448 -0.41000
C 	C 	0.53020 0.93160 0.41206 -0.03900
H 	H 	0.57840 0.94120 0.42350 0.07000
C 	C 	0.51550 0.90180 0.37782 -0.06900
C 	C 	0.57440 0.88000 0.36037 0.36300
C 	C 	0.45110 0.01830 0.47800 0.23300
H 	H 	0.42100 0.03320 0.46310 -0.03400
N 	N 	0.42150 0.96020 0.48700 -0.20400
O 	O 	0.55576 0.85128 0.32965 -0.40500
O 	O 	0.63540 0.89110 0.37781 -0.41000
C 	C 	0.19687 0.26493 0.74539 -0.03900
H 	H 	0.24507 0.27453 0.75683 0.07000
C 	C 	0.18217 0.23513 0.71115 -0.06900
C 	C 	0.24107 0.21333 0.69370 0.36300
C 	C 	0.11777 0.35163 0.81133 0.23300
H 	H 	0.08767 0.36653 0.79643 -0.03400
N 	N 	0.08817 0.29353 0.82033 -0.20400
O 	O 	0.22243 0.18461 0.66298 -0.40500
O 	O 	0.30207 0.22443 0.71114 -0.41000
C 	C 	0.86353 0.59827 0.07873 -0.03900
H 	H 	0.91173 0.60787 0.09017 0.07000
C 	C 	0.84883 0.56847 0.04449 -0.06900
C 	C 	0.90773 0.54667 0.02704 0.36300
C 	C 	0.78443 0.68497 0.14467 0.23300
H 	H 	0.75433 0.69987 0.12977 -0.03400
N 	N 	0.75483 0.62687 0.15367 -0.20400
O 	O 	0.88909 0.51795 0.99632 -0.40500
O 	O 	0.96873 0.55777 0.04448 -0.41000
C 	C 	0.53020 0.59860 0.41206 -0.03900
H 	H 	0.57840 0.63720 0.42350 0.07000
C 	C 	0.51550 0.61370 0.37782 -0.06900
C 	C 	0.57440 0.69440 0.36037 0.36300
C 	C 	0.45110 0.43280 0.47800 0.23300
H 	H 	0.42100 0.38780 0.46310 -0.03400
N 	N 	0.42150 0.46130 0.48700 -0.20400
O 	O 	0.55576 0.70448 0.32965 -0.40500
O 	O 	0.63540 0.74430 0.37781 -0.41000
C 	C 	0.19687 0.93193 0.74539 -0.03900
H 	H 	0.24507 0.97053 0.75683 0.07000
C 	C 	0.18217 0.94703 0.71115 -0.06900
C 	C 	0.24107 0.02773 0.69370 0.36300
C 	C 	0.11777 0.76613 0.81133 0.23300
H 	H 	0.08767 0.72113 0.79643 -0.03400
N 	N 	0.08817 0.79463 0.82033 -0.20400
O 	O 	0.22243 0.03781 0.66298 -0.40500
O 	O 	0.30207 0.07763 0.71114 -0.41000
C 	C 	0.86353 0.26527 0.07873 -0.03900
H 	H 	0.91173 0.30387 0.09017 0.07000
C 	C 	0.84883 0.28037 0.04449 -0.06900
C 	C 	0.90773 0.36107 0.02704 0.36300
C 	C 	0.78443 0.09947 0.14467 0.23300
H 	H 	0.75433 0.05447 0.12977 -0.03400
N 	N 	0.75483 0.12797 0.15367 -0.20400
O 	O 	0.88909 0.37115 0.99632 -0.40500
O 	O 	0.96873 0.41097 0.04448 -0.41000
C 	C 	0.40140 0.93160 0.41206 -0.03900
H 	H 	0.36280 0.94120 0.42350 0.07000
C 	C 	0.38630 0.90180 0.37782 -0.06900
C 	C 	0.30560 0.88000 0.36037 0.36300
C 	C 	0.56720 0.01830 0.47800 0.23300
H 	H 	0.61220 0.03320 0.46310 -0.03400
N 	N 	0.53870 0.96020 0.48700 -0.20400
O 	O 	0.29552 0.85128 0.32965 -0.40500
O 	O 	0.25570 0.89110 0.37781 -0.41000
C 	C 	0.06807 0.26493 0.74539 -0.03900
H 	H 	0.02947 0.27453 0.75683 0.07000
C 	C 	0.05297 0.23513 0.71115 -0.06900
C 	C 	0.97227 0.21333 0.69370 0.36300
C 	C 	0.23387 0.35163 0.81133 0.23300
H 	H 	0.27887 0.36653 0.79643 -0.03400
N 	N 	0.20537 0.29353 0.82033 -0.20400
O 	O 	0.96219 0.18461 0.66298 -0.40500
O 	O 	0.92237 0.22443 0.71114 -0.41000
C 	C 	0.73473 0.59827 0.07873 -0.03900
H 	H 	0.69613 0.60787 0.09017 0.07000
C 	C 	0.71963 0.56847 0.04449 -0.06900
C 	C 	0.63893 0.54667 0.02704 0.36300
C 	C 	0.90053 0.68497 0.14467 0.23300
H 	H 	0.94553 0.69987 0.12977 -0.03400
N 	N 	0.87203 0.62687 0.15367 -0.20400
O 	O 	0.62885 0.51795 0.99632 -0.40500
O 	O 	0.58903 0.55777 0.04448 -0.41000
C 	C 	0.06840 0.46980 0.41206 -0.03900
H 	H 	0.05880 0.42160 0.42350 0.07000
C 	C 	0.09820 0.48450 0.37782 -0.06900
C 	C 	0.12000 0.42560 0.36037 0.36300
C 	C 	0.98170 0.54890 0.47800 0.23300
H 	H 	0.96680 0.57900 0.46310 -0.03400
N 	N 	0.03980 0.57850 0.48700 -0.20400
O 	O 	0.14872 0.44424 0.32965 -0.40500
O 	O 	0.10890 0.36460 0.37781 -0.41000
C 	C 	0.73507 0.80313 0.74539 -0.03900
H 	H 	0.72547 0.75493 0.75683 0.07000
C 	C 	0.76487 0.81783 0.71115 -0.06900
C 	C 	0.78667 0.75893 0.69370 0.36300
C 	C 	0.64837 0.88223 0.81133 0.23300
H 	H 	0.63347 0.91233 0.79643 -0.03400
N 	N 	0.70647 0.91183 0.82033 -0.20400
O 	O 	0.81539 0.77757 0.66298 -0.40500
O 	O 	0.77557 0.69793 0.71114 -0.41000
C 	C 	0.40173 0.13647 0.07873 -0.03900
H 	H 	0.39213 0.08827 0.09017 0.07000
C 	C 	0.43153 0.15117 0.04449 -0.06900
C 	C 	0.45333 0.09227 0.02704 0.36300
C 	C 	0.31503 0.21557 0.14467 0.23300
H 	H 	0.30013 0.24567 0.12977 -0.03400
N 	N 	0.37313 0.24517 0.15367 -0.20400
O 	O 	0.48205 0.11091 0.99632 -0.40500
O 	O 	0.44223 0.03127 0.04448 -0.41000
C 	C 	0.59860 0.53020 0.58794 -0.03900
H 	H 	0.63720 0.57840 0.57650 0.07000
C 	C 	0.61370 0.51550 0.62218 -0.06900
C 	C 	0.69440 0.57440 0.63963 0.36300
C 	C 	0.43280 0.45110 0.52200 0.23300
H 	H 	0.38780 0.42100 0.53690 -0.03400
N 	N 	0.46130 0.42150 0.51300 -0.20400
O 	O 	0.70448 0.55576 0.67035 -0.40500
O 	O 	0.74430 0.63540 0.62219 -0.41000
C 	C 	0.26527 0.86353 0.92127 -0.03900
H 	H 	0.30387 0.91173 0.90983 0.07000
C 	C 	0.28037 0.84883 0.95551 -0.06900
C 	C 	0.36107 0.90773 0.97296 0.36300
C 	C 	0.09947 0.78443 0.85533 0.23300
H 	H 	0.05447 0.75433 0.87023 -0.03400
N 	N 	0.12797 0.75483 0.84633 -0.20400
O 	O 	0.37115 0.88909 0.00368 -0.40500
O 	O 	0.41097 0.96873 0.95552 -0.41000
C 	C 	0.93193 0.19687 0.25461 -0.03900
H 	H 	0.97053 0.24507 0.24317 0.07000
C 	C 	0.94703 0.18217 0.28885 -0.06900
C 	C 	0.02773 0.24107 0.30630 0.36300
C 	C 	0.76613 0.11777 0.18867 0.23300
H 	H 	0.72113 0.08767 0.20357 -0.03400
N 	N 	0.79463 0.08817 0.17967 -0.20400
O 	O 	0.03781 0.22243 0.33702 -0.40500
O 	O 	0.07763 0.30207 0.28886 -0.41000
C 	C 	0.93160 0.40140 0.58794 -0.03900
H 	H 	0.94120 0.36280 0.57650 0.07000
C 	C 	0.90180 0.38630 0.62218 -0.06900
C 	C 	0.88000 0.30560 0.63963 0.36300
C 	C 	0.01830 0.56720 0.52200 0.23300
H 	H 	0.03320 0.61220 0.53690 -0.03400
N 	N 	0.96020 0.53870 0.51300 -0.20400
O 	O 	0.85128 0.29552 0.67035 -0.40500
O 	O 	0.89110 0.25570 0.62219 -0.41000
C 	C 	0.59827 0.73473 0.92127 -0.03900
H 	H 	0.60787 0.69613 0.90983 0.07000
C 	C 	0.56847 0.71963 0.95551 -0.06900
C 	C 	0.54667 0.63893 0.97296 0.36300
C 	C 	0.68497 0.90053 0.85533 0.23300
H 	H 	0.69987 0.94553 0.87023 -0.03400
N 	N 	0.62687 0.87203 0.84633 -0.20400
O 	O 	0.51795 0.62885 0.00368 -0.40500
O 	O 	0.55777 0.58903 0.95552 -0.41000
C 	C 	0.26493 0.06807 0.25461 -0.03900
H 	H 	0.27453 0.02947 0.24317 0.07000
C 	C 	0.23513 0.05297 0.28885 -0.06900
C 	C 	0.21333 0.97227 0.30630 0.36300
C 	C 	0.35163 0.23387 0.18867 0.23300
H 	H 	0.36653 0.27887 0.20357 -0.03400
N 	N 	0.29353 0.20537 0.17967 -0.20400
O 	O 	0.18461 0.96219 0.33702 -0.40500
O 	O 	0.22443 0.92237 0.28886 -0.41000
C 	C 	0.46980 0.06840 0.58794 -0.03900
H 	H 	0.42160 0.05880 0.57650 0.07000
C 	C 	0.48450 0.09820 0.62218 -0.06900
C 	C 	0.42560 0.12000 0.63963 0.36300
C 	C 	0.54890 0.98170 0.52200 0.23300
H 	H 	0.57900 0.96680 0.53690 -0.03400
N 	N 	0.57850 0.03980 0.51300 -0.20400
O 	O 	0.44424 0.14872 0.67035 -0.40500
O 	O 	0.36460 0.10890 0.62219 -0.41000
C 	C 	0.13647 0.40173 0.92127 -0.03900
H 	H 	0.08827 0.39213 0.90983 0.07000
C 	C 	0.15117 0.43153 0.95551 -0.06900
C 	C 	0.09227 0.45333 0.97296 0.36300
C 	C 	0.21557 0.31503 0.85533 0.23300
H 	H 	0.24567 0.30013 0.87023 -0.03400
N 	N 	0.24517 0.37313 0.84633 -0.20400
O 	O 	0.11091 0.48205 0.00368 -0.40500
O 	O 	0.03127 0.44223 0.95552 -0.41000
C 	C 	0.80313 0.73507 0.25461 -0.03900
H 	H 	0.75493 0.72547 0.24317 0.07000
C 	C 	0.81783 0.76487 0.28885 -0.06900
C 	C 	0.75893 0.78667 0.30630 0.36300
C 	C 	0.88223 0.64837 0.18867 0.23300
H 	H 	0.91233 0.63347 0.20357 -0.03400
N 	N 	0.91183 0.70647 0.17967 -0.20400
O 	O 	0.77757 0.81539 0.33702 -0.40500
O 	O 	0.69793 0.77557 0.28886 -0.41000
C 	C 	0.51290 0.48710 0.53412 -0.03100
C 	C 	0.52640 0.47360 0.57055 0.03900
C 	C 	0.55620 0.44380 0.63927 0.01600
H 	H 	0.56570 0.43430 0.66240 0.05900
C 	C 	0.17957 0.82043 0.86745 -0.03100
C 	C 	0.19307 0.80693 0.90388 0.03900
C 	C 	0.22287 0.77713 0.97260 0.01600
H 	H 	0.23237 0.76763 0.99573 0.05800
C 	C 	0.84623 0.15377 0.20079 -0.03100
C 	C 	0.85973 0.14027 0.23722 0.04000
C 	C 	0.88953 0.11047 0.30594 0.01500
H 	H 	0.89903 0.10097 0.32907 0.05900
C 	C 	0.51290 0.02580 0.53412 -0.03100
C 	C 	0.52640 0.05280 0.57055 0.03900
C 	C 	0.55620 0.11240 0.63927 0.01600
H 	H 	0.56570 0.13140 0.66240 0.05800
C 	C 	0.17957 0.35913 0.86745 -0.03100
C 	C 	0.19307 0.38613 0.90388 0.03900
C 	C 	0.22287 0.44573 0.97260 0.01600
H 	H 	0.23237 0.46473 0.99573 0.05800
C 	C 	0.84623 0.69247 0.20079 -0.03100
C 	C 	0.85973 0.71947 0.23722 0.03900
C 	C 	0.88953 0.77907 0.30594 0.01600
H 	H 	0.89903 0.79807 0.32907 0.05900
C 	C 	0.97420 0.48710 0.53412 -0.03100
C 	C 	0.94720 0.47360 0.57055 0.03900
C 	C 	0.88760 0.44380 0.63927 0.01600
H 	H 	0.86860 0.43430 0.66240 0.05800
C 	C 	0.64087 0.82043 0.86745 -0.03100
C 	C 	0.61387 0.80693 0.90388 0.03900
C 	C 	0.55427 0.77713 0.97260 0.01600
H 	H 	0.53527 0.76763 0.99573 0.05800
C 	C 	0.30753 0.15377 0.20079 -0.03100
C 	C 	0.28053 0.14027 0.23722 0.03900
C 	C 	0.22093 0.11047 0.30594 0.01600
H 	H 	0.20193 0.10097 0.32907 0.05900
C 	C 	0.48710 0.51290 0.46588 -0.03100
C 	C 	0.47360 0.52640 0.42945 0.03900
C 	C 	0.44380 0.55620 0.36073 0.01600
H 	H 	0.43430 0.56570 0.33760 0.05900
C 	C 	0.15377 0.84623 0.79921 -0.03100
C 	C 	0.14027 0.85973 0.76278 0.04000
C 	C 	0.11047 0.88953 0.69406 0.01500
H 	H 	0.10097 0.89903 0.67093 0.05900
C 	C 	0.82043 0.17957 0.13255 -0.03100
C 	C 	0.80693 0.19307 0.09612 0.03900
C 	C 	0.77713 0.22287 0.02740 0.01600
H 	H 	0.76763 0.23237 0.00427 0.05800
C 	C 	0.02580 0.51290 0.46588 -0.03100
C 	C 	0.05280 0.52640 0.42945 0.03900
C 	C 	0.11240 0.55620 0.36073 0.01600
H 	H 	0.13140 0.56570 0.33760 0.05800
C 	C 	0.69247 0.84623 0.79921 -0.03100
C 	C 	0.71947 0.85973 0.76278 0.03900
C 	C 	0.77907 0.88953 0.69406 0.01600
H 	H 	0.79807 0.89903 0.67093 0.05900
C 	C 	0.35913 0.17957 0.13255 -0.03100
C 	C 	0.38613 0.19307 0.09612 0.03900
C 	C 	0.44573 0.22287 0.02740 0.01600
H 	H 	0.46473 0.23237 0.00427 0.05800
C 	C 	0.48710 0.97420 0.46588 -0.03100
C 	C 	0.47360 0.94720 0.42945 0.03900
C 	C 	0.44380 0.88760 0.36073 0.01600
H 	H 	0.43430 0.86860 0.33760 0.05800
C 	C 	0.15377 0.30753 0.79921 -0.03100
C 	C 	0.14027 0.28053 0.76278 0.03900
C 	C 	0.11047 0.22093 0.69406 0.01600
H 	H 	0.10097 0.20193 0.67093 0.05900
C 	C 	0.82043 0.64087 0.13255 -0.03100
C 	C 	0.80693 0.61387 0.09612 0.03900
C 	C 	0.77713 0.55427 0.02740 0.01600
H 	H 	0.76763 0.53527 0.00427 0.05800
Cu	Cu	0.38082 0.19041 0.69539 0.90800
Cu	Cu	0.04749 0.52374 0.02873 0.90800
Cu	Cu	0.71415 0.85708 0.36206 0.90800
Cu	Cu	0.80959 0.19041 0.69539 0.90800
Cu	Cu	0.47626 0.52374 0.02873 0.90800
Cu	Cu	0.14292 0.85708 0.36206 0.90800
Cu	Cu	0.80959 0.61918 0.69539 0.90800
Cu	Cu	0.47626 0.95251 0.02873 0.90800
Cu	Cu	0.14292 0.28585 0.36206 0.90800
Cu	Cu	0.19041 0.38082 0.30461 0.90800
Cu	Cu	0.85708 0.71415 0.63794 0.90800
Cu	Cu	0.52374 0.04749 0.97127 0.90800
Cu	Cu	0.19041 0.80959 0.30461 0.90800
Cu	Cu	0.85708 0.14292 0.63794 0.90800
Cu	Cu	0.52374 0.47626 0.97127 0.90800
Cu	Cu	0.61918 0.80959 0.30461 0.90800
Cu	Cu	0.28585 0.14292 0.63794 0.90800
Cu	Cu	0.95251 0.47626 0.97127 0.90800
