data_crystal

_cell_length_a 16.15900
_cell_length_b 14.03500
_cell_length_c 15.43800
_cell_angle_alpha 90.00000
_cell_angle_beta  109.09000
_cell_angle_gamma 90.00000

_symmetry_space_group_name_	'P 1'
_symmetry_space_group_name_H-M	'P 1'

loop_
_symmetry_equiv_pos_as_xyz
  x,y,z

loop_
_atom_site_label
_atom_site_type_symbol
_atom_site_fract_x
_atom_site_fract_y
_atom_site_fract_z
_atom_site_charge
N 	N 	0.53870 0.29960 0.35030 -0.23400
N 	N 	0.54340 0.17490 0.43780 -0.13800
N 	N 	0.46120 0.50220 0.15630 -0.23200
N 	N 	0.38650 0.62010 0.07540 -0.13700
C 	C 	0.50120 0.21860 0.35800 0.09500
H 	H 	0.45170 0.19440 0.31380 -0.01700
C 	C 	0.60950 0.30790 0.42960 -0.00600
H 	H 	0.64860 0.35870 0.44380 0.01700
C 	C 	0.61340 0.23120 0.48340 0.00100
H 	H 	0.65520 0.21900 0.54010 0.02600
C 	C 	0.52120 0.08500 0.46920 0.08800
C 	C 	0.58560 0.02230 0.51290 -0.07800
H 	H 	0.64380 0.03730 0.52120 0.05800
C 	C 	0.43500 0.06340 0.45510 -0.07900
H 	H 	0.39110 0.10590 0.42430 0.06000
C 	C 	0.38830 0.54970 0.13520 0.10200
H 	H 	0.34320 0.53670 0.15850 -0.02600
C 	C 	0.50920 0.54290 0.10870 0.00700
H 	H 	0.56480 0.52360 0.11050 0.00800
C 	C 	0.46380 0.61550 0.05850 -0.00500
H 	H 	0.48180 0.65500 0.01960 0.03300
C 	C 	0.31650 0.68660 0.03720 0.07800
C 	C 	0.29410 0.71040 0.94610 -0.06700
H 	H 	0.32410 0.68360 0.90990 0.04700
C 	C 	0.27330 0.72560 0.09170 -0.07600
H 	H 	0.28910 0.70930 0.15340 0.05400
N 	N 	0.03870 0.79960 0.35030 -0.23000
N 	N 	0.04340 0.67490 0.43780 -0.11800
N 	N 	0.96120 0.00220 0.15630 -0.20400
N 	N 	0.88650 0.12010 0.07540 -0.14800
C 	C 	0.00120 0.71860 0.35800 0.03700
H 	H 	0.95170 0.69440 0.31380 0.02100
C 	C 	0.10950 0.80790 0.42960 -0.00600
H 	H 	0.14860 0.85870 0.44380 0.01500
C 	C 	0.11340 0.73120 0.48340 -0.00700
H 	H 	0.15520 0.71900 0.54010 0.02700
C 	C 	0.02120 0.58500 0.46920 -0.00700
C 	C 	0.08560 0.52230 0.51290 0.01100
H 	H 	0.14380 0.53730 0.52120 0.02600
C 	C 	0.93500 0.56340 0.45510 0.03600
H 	H 	0.89110 0.60590 0.42430 0.02500
C 	C 	0.88830 0.04970 0.13520 0.10500
H 	H 	0.84320 0.03670 0.15850 -0.02500
C 	C 	0.00920 0.04290 0.10870 -0.07800
H 	H 	0.06480 0.02360 0.11050 0.03300
C 	C 	0.96380 0.11550 0.05850 0.06300
H 	H 	0.98180 0.15500 0.01960 0.02100
C 	C 	0.81650 0.18660 0.03720 0.08900
C 	C 	0.79410 0.21040 0.94610 -0.07500
H 	H 	0.82410 0.18360 0.90990 0.05300
C 	C 	0.77330 0.22560 0.09170 -0.08200
H 	H 	0.78910 0.20930 0.15340 0.05900
N 	N 	0.46130 0.29960 0.14970 -0.23500
N 	N 	0.45660 0.17490 0.06220 -0.13800
N 	N 	0.53880 0.50220 0.34370 -0.23300
N 	N 	0.61350 0.62010 0.42460 -0.13800
C 	C 	0.49880 0.21860 0.14200 0.09500
H 	H 	0.54830 0.19440 0.18620 -0.01700
C 	C 	0.39050 0.30790 0.07040 -0.00500
H 	H 	0.35140 0.35870 0.05620 0.01600
C 	C 	0.38660 0.23120 0.01660 -0.00300
H 	H 	0.34480 0.21900 0.95990 0.02800
C 	C 	0.47880 0.08500 0.03080 0.08100
C 	C 	0.41440 0.02230 0.98710 -0.07400
H 	H 	0.35620 0.03730 0.97880 0.05600
C 	C 	0.56500 0.06340 0.04490 -0.06800
H 	H 	0.60890 0.10590 0.07570 0.05600
C 	C 	0.61170 0.54970 0.36480 0.10200
H 	H 	0.65680 0.53670 0.34150 -0.02600
C 	C 	0.49080 0.54290 0.39130 0.00700
H 	H 	0.43520 0.52360 0.38950 0.00800
C 	C 	0.53620 0.61550 0.44150 -0.00500
H 	H 	0.51820 0.65500 0.48040 0.03400
C 	C 	0.68350 0.68660 0.46280 0.08300
C 	C 	0.70590 0.71040 0.55390 -0.07100
H 	H 	0.67590 0.68360 0.59010 0.04900
C 	C 	0.72670 0.72560 0.40830 -0.07700
H 	H 	0.71090 0.70930 0.34660 0.05600
N 	N 	0.96130 0.79960 0.14970 -0.23700
N 	N 	0.95660 0.67490 0.06220 -0.15800
N 	N 	0.03880 0.00220 0.34370 -0.25800
N 	N 	0.11350 0.12010 0.42460 -0.13000
C 	C 	0.99880 0.71860 0.14200 0.15300
H 	H 	0.04830 0.69440 0.18620 -0.05400
C 	C 	0.89050 0.80790 0.07040 -0.00400
H 	H 	0.85140 0.85870 0.05620 0.01700
C 	C 	0.88660 0.73120 0.01660 0.00000
H 	H 	0.84480 0.71900 0.95990 0.02800
C 	C 	0.97880 0.58500 0.03080 0.17300
C 	C 	0.91440 0.52230 0.98710 -0.15600
H 	H 	0.85620 0.53730 0.97880 0.08600
C 	C 	0.06500 0.56340 0.04490 -0.18300
H 	H 	0.10890 0.60590 0.07570 0.09100
C 	C 	0.11170 0.04970 0.36480 0.10000
H 	H 	0.15680 0.03670 0.34150 -0.02600
C 	C 	0.99080 0.04290 0.39130 0.09400
H 	H 	0.93520 0.02360 0.38950 -0.01500
C 	C 	0.03620 0.11550 0.44150 -0.07300
H 	H 	0.01820 0.15500 0.48040 0.04700
C 	C 	0.18350 0.18660 0.46280 0.07900
C 	C 	0.20590 0.21040 0.55390 -0.07200
H 	H 	0.17590 0.18360 0.59010 0.04600
C 	C 	0.22670 0.22560 0.40830 -0.07800
H 	H 	0.21090 0.20930 0.34660 0.05300
N 	N 	0.46130 0.70040 0.64970 -0.23500
N 	N 	0.45660 0.82510 0.56220 -0.13900
N 	N 	0.53880 0.49780 0.84370 -0.23300
N 	N 	0.61350 0.37990 0.92460 -0.13900
C 	C 	0.49880 0.78140 0.64200 0.09500
H 	H 	0.54830 0.80560 0.68620 -0.01700
C 	C 	0.39050 0.69210 0.57040 -0.00700
H 	H 	0.35140 0.64130 0.55620 0.01700
C 	C 	0.38660 0.76880 0.51660 0.00100
H 	H 	0.34480 0.78100 0.45990 0.02500
C 	C 	0.47880 0.91500 0.53080 0.08700
C 	C 	0.41440 0.97770 0.48710 -0.07700
H 	H 	0.35620 0.96270 0.47880 0.05700
C 	C 	0.56500 0.93660 0.54490 -0.07700
H 	H 	0.60890 0.89410 0.57570 0.06000
C 	C 	0.61170 0.45030 0.86480 0.10300
H 	H 	0.65680 0.46330 0.84150 -0.02600
C 	C 	0.49080 0.45710 0.89130 0.00800
H 	H 	0.43520 0.47640 0.88950 0.00900
C 	C 	0.53620 0.38450 0.94150 -0.00400
H 	H 	0.51820 0.34500 0.98040 0.03400
C 	C 	0.68350 0.31340 0.96280 0.08700
C 	C 	0.70590 0.28960 0.05390 -0.07600
H 	H 	0.67590 0.31640 0.09010 0.05000
C 	C 	0.72670 0.27440 0.90830 -0.08000
H 	H 	0.71090 0.29070 0.84660 0.05700
N 	N 	0.96130 0.20040 0.64970 -0.23700
N 	N 	0.95660 0.32510 0.56220 -0.16000
N 	N 	0.03880 0.99780 0.84370 -0.25700
N 	N 	0.11350 0.87990 0.92460 -0.13100
C 	C 	0.99880 0.28140 0.64200 0.15400
H 	H 	0.04830 0.30560 0.68620 -0.05500
C 	C 	0.89050 0.19210 0.57040 -0.00700
H 	H 	0.85140 0.14130 0.55620 0.01900
C 	C 	0.88660 0.26880 0.51660 0.00800
H 	H 	0.84480 0.28100 0.45990 0.02400
C 	C 	0.97880 0.41500 0.53080 0.18100
C 	C 	0.91440 0.47770 0.48710 -0.16700
H 	H 	0.85620 0.46270 0.47880 0.08900
C 	C 	0.06500 0.43660 0.54490 -0.19100
H 	H 	0.10890 0.39410 0.57570 0.09400
C 	C 	0.11170 0.95030 0.86480 0.10100
H 	H 	0.15680 0.96330 0.84150 -0.02600
C 	C 	0.99080 0.95710 0.89130 0.09100
H 	H 	0.93520 0.97640 0.88950 -0.01400
C 	C 	0.03620 0.88450 0.94150 -0.06900
H 	H 	0.01820 0.84500 0.98040 0.04800
C 	C 	0.18350 0.81340 0.96280 0.08900
C 	C 	0.20590 0.78960 0.05390 -0.08500
H 	H 	0.17590 0.81640 0.09010 0.04900
C 	C 	0.22670 0.77440 0.90830 -0.08800
H 	H 	0.21090 0.79070 0.84660 0.05700
N 	N 	0.53870 0.70040 0.85030 -0.23400
N 	N 	0.54340 0.82510 0.93780 -0.14100
N 	N 	0.46120 0.49780 0.65630 -0.23300
N 	N 	0.38650 0.37990 0.57540 -0.13900
C 	C 	0.50120 0.78140 0.85800 0.09600
H 	H 	0.45170 0.80560 0.81380 -0.01800
C 	C 	0.60950 0.69210 0.92960 -0.01000
H 	H 	0.64860 0.64130 0.94380 0.01800
C 	C 	0.61340 0.76880 0.98340 0.00900
H 	H 	0.65520 0.78100 0.04010 0.02100
C 	C 	0.52120 0.91500 0.96920 0.09600
C 	C 	0.58560 0.97770 0.01290 -0.09200
H 	H 	0.64380 0.96270 0.02120 0.06100
C 	C 	0.43500 0.93660 0.95510 -0.08200
H 	H 	0.39110 0.89410 0.92430 0.06100
C 	C 	0.38830 0.45030 0.63520 0.10300
H 	H 	0.34320 0.46330 0.65850 -0.02700
C 	C 	0.50920 0.45710 0.60870 0.00700
H 	H 	0.56480 0.47640 0.61050 0.00900
C 	C 	0.46380 0.38450 0.55850 -0.00400
H 	H 	0.48180 0.34500 0.51960 0.03400
C 	C 	0.31650 0.31340 0.53720 0.08800
C 	C 	0.29410 0.28960 0.44610 -0.07900
H 	H 	0.32410 0.31640 0.40990 0.05000
C 	C 	0.27330 0.27440 0.59170 -0.08600
H 	H 	0.28910 0.29070 0.65340 0.05700
N 	N 	0.03870 0.20040 0.85030 -0.23000
N 	N 	0.04340 0.32510 0.93780 -0.12000
N 	N 	0.96120 0.99780 0.65630 -0.20500
N 	N 	0.88650 0.87990 0.57540 -0.14800
C 	C 	0.00120 0.28140 0.85800 0.03800
H 	H 	0.95170 0.30560 0.81380 0.02000
C 	C 	0.10950 0.19210 0.92960 -0.00800
H 	H 	0.14860 0.14130 0.94380 0.01500
C 	C 	0.11340 0.26880 0.98340 -0.00200
H 	H 	0.15520 0.28100 0.04010 0.02500
C 	C 	0.02120 0.41500 0.96920 0.00300
C 	C 	0.08560 0.47770 0.01290 0.00100
H 	H 	0.14380 0.46270 0.02120 0.02900
C 	C 	0.93500 0.43660 0.95510 0.02600
H 	H 	0.89110 0.39410 0.92430 0.02800
C 	C 	0.88830 0.95030 0.63520 0.10600
H 	H 	0.84320 0.96330 0.65850 -0.02500
C 	C 	0.00920 0.95710 0.60870 -0.07700
H 	H 	0.06480 0.97640 0.61050 0.03300
C 	C 	0.96380 0.88450 0.55850 0.06200
H 	H 	0.98180 0.84500 0.51960 0.02100
C 	C 	0.81650 0.81340 0.53720 0.09200
C 	C 	0.79410 0.78960 0.44610 -0.07900
H 	H 	0.82410 0.81640 0.40990 0.05400
C 	C 	0.77330 0.77440 0.59170 -0.08500
H 	H 	0.78910 0.79070 0.65340 0.06000
Cu	Cu	0.50000 0.39685 0.25000 0.85100
Cu	Cu	-0.00000 0.89685 0.25000 0.83900
Cu	Cu	0.50000 0.60315 0.75000 0.85100
Cu	Cu	0.00000 0.10315 0.75000 0.83900
