data_crystal

_cell_length_a 26.01900
_cell_length_b 12.36980
_cell_length_c 19.56030
_cell_angle_alpha 90.00000
_cell_angle_beta  121.67200
_cell_angle_gamma 90.00000

_symmetry_space_group_name_	'P 1'
_symmetry_space_group_name_H-M	'P 1'

loop_
_symmetry_equiv_pos_as_xyz
  x,y,z

loop_
_atom_site_label
_atom_site_type_symbol
_atom_site_fract_x
_atom_site_fract_y
_atom_site_fract_z
_atom_site_charge
Eu	Eu	0.50318 0.97455 0.37554 1.88200
S 	S 	0.50132 0.59790 0.33050 -0.14200
S 	S 	0.49660 0.34560 0.32510 -0.11300
S 	S 	0.34259 0.25050 0.45750 -0.18100
S 	S 	0.21398 0.35520 0.36260 -0.18200
O 	O 	0.43920 0.07710 0.39850 -0.57300
O 	O 	0.45060 0.13640 0.51210 -0.59700
O 	O 	0.07910 0.35450 0.13720 -0.43800
O 	O 	0.09700 0.43740 0.24790 -0.45200
O 	O 	0.51540 0.82200 0.31490 -0.58000
O 	O 	0.48840 0.12440 0.29760 -0.60100
C 	C 	0.42220 0.12850 0.43820 0.59000
C 	C 	0.36220 0.18250 0.39310 -0.39400
C 	C 	0.27470 0.28290 0.37250 0.26500
C 	C 	0.26640 0.24440 0.30360 -0.36000
C 	C 	0.17510 0.32880 0.25590 -0.34900
C 	C 	0.11350 0.37540 0.21130 0.42100
C 	C 	0.50020 0.47380 0.22140 -0.15600
C 	C 	0.49900 0.47270 0.29060 -0.05400
C 	C 	0.32360 0.14120 0.24990 -0.37400
H 	H 	0.36550 0.14130 0.26680 0.17300
H 	H 	0.30120 0.18380 0.20200 0.11900
H 	H 	0.30860 0.06830 0.23920 0.15500
C 	C 	0.18290 0.22930 0.15140 -0.38800
H 	H 	0.13960 0.23480 0.12060 0.15900
H 	H 	0.19450 0.15510 0.15380 0.12600
H 	H 	0.19940 0.27180 0.12640 0.13300
C 	C 	0.49990 0.61050 0.12170 -0.60300
H 	H 	0.50390 0.68740 0.11980 0.23000
H 	H 	0.46280 0.58750 0.07490 0.19200
H 	H 	0.53330 0.57540 0.12310 0.19600
C 	C 	0.50120 0.34080 0.12050 -0.58500
H 	H 	0.54020 0.35840 0.12940 0.19300
H 	H 	0.47080 0.38230 0.07620 0.17700
H 	H 	0.49350 0.26510 0.10850 0.19300
C 	C 	0.31630 0.18900 0.31600 0.37100
C 	C 	0.20670 0.27080 0.23590 0.33800
C 	C 	0.49900 0.58080 0.19700 0.43500
C 	C 	0.49990 0.36690 0.19640 0.38400
S 	S 	0.32404 0.15460 0.28730 -0.20900
S 	S 	0.19398 0.25590 0.19090 -0.17900
C 	C 	0.27110 0.26910 0.34130 -0.38800
C 	C 	0.26280 0.22720 0.27460 0.25200
C 	C 	0.35270 0.27980 0.49680 -0.40900
H 	H 	0.39020 0.24430 0.53320 0.16800
H 	H 	0.32330 0.26130 0.51040 0.13500
H 	H 	0.35870 0.35670 0.50090 0.13000
C 	C 	0.21450 0.39180 0.39040 -0.36400
H 	H 	0.18170 0.44220 0.36360 0.14900
H 	H 	0.25130 0.43030 0.42490 0.11400
H 	H 	0.20660 0.34270 0.42190 0.13100
C 	C 	0.33060 0.24440 0.41280 0.33900
C 	C 	0.22050 0.32900 0.32880 0.33400
Eu	Eu	0.00318 0.47455 0.37554 1.87700
S 	S 	0.00132 0.09790 0.33050 -0.15100
S 	S 	0.99660 0.84560 0.32510 -0.11300
S 	S 	0.84259 0.75050 0.45750 -0.18200
S 	S 	0.71398 0.85520 0.36260 -0.18200
O 	O 	0.93920 0.57710 0.39850 -0.57200
O 	O 	0.95060 0.63640 0.51210 -0.59700
O 	O 	0.57910 0.85450 0.13720 -0.43800
O 	O 	0.59700 0.93740 0.24790 -0.45100
O 	O 	0.01540 0.32200 0.31490 -0.58000
O 	O 	0.98840 0.62440 0.29760 -0.59700
C 	C 	0.92220 0.62850 0.43820 0.59000
C 	C 	0.86220 0.68250 0.39310 -0.39300
C 	C 	0.77470 0.78290 0.37250 0.26500
C 	C 	0.76640 0.74440 0.30360 -0.36000
C 	C 	0.67510 0.82880 0.25590 -0.34800
C 	C 	0.61350 0.87540 0.21130 0.42000
C 	C 	0.00020 0.97380 0.22140 -0.16000
C 	C 	0.99900 0.97270 0.29060 -0.04900
C 	C 	0.82360 0.64120 0.24990 -0.37300
H 	H 	0.86550 0.64130 0.26680 0.17300
H 	H 	0.80120 0.68380 0.20200 0.11800
H 	H 	0.80860 0.56830 0.23920 0.15400
C 	C 	0.68290 0.72930 0.15140 -0.38600
H 	H 	0.63960 0.73480 0.12060 0.15700
H 	H 	0.69450 0.65510 0.15380 0.12500
H 	H 	0.69940 0.77180 0.12640 0.13100
C 	C 	0.99990 0.11050 0.12170 -0.60400
H 	H 	0.00390 0.18740 0.11980 0.23000
H 	H 	0.96280 0.08750 0.07490 0.19300
H 	H 	0.03330 0.07540 0.12310 0.19600
C 	C 	0.00120 0.84080 0.12050 -0.60900
H 	H 	0.04020 0.85840 0.12940 0.19900
H 	H 	0.97080 0.88230 0.07620 0.18300
H 	H 	0.99350 0.76510 0.10850 0.20100
C 	C 	0.81630 0.68900 0.31600 0.36900
C 	C 	0.70670 0.77080 0.23590 0.33600
C 	C 	0.99900 0.08080 0.19700 0.43800
C 	C 	0.99990 0.86690 0.19640 0.39100
S 	S 	0.82404 0.65460 0.28730 -0.20800
S 	S 	0.69398 0.75590 0.19090 -0.17800
C 	C 	0.77110 0.76910 0.34130 -0.38800
C 	C 	0.76280 0.72720 0.27460 0.25300
C 	C 	0.85270 0.77980 0.49680 -0.40900
H 	H 	0.89020 0.74430 0.53320 0.16900
H 	H 	0.82330 0.76130 0.51040 0.13500
H 	H 	0.85870 0.85670 0.50090 0.13000
C 	C 	0.71450 0.89180 0.39040 -0.36400
H 	H 	0.68170 0.94220 0.36360 0.14900
H 	H 	0.75130 0.93030 0.42490 0.11400
H 	H 	0.70660 0.84270 0.42190 0.13100
C 	C 	0.83060 0.74440 0.41280 0.33900
C 	C 	0.72050 0.82900 0.32880 0.33400
Eu	Eu	0.49682 0.97455 0.12446 1.87800
S 	S 	0.49868 0.59790 0.16950 -0.14300
S 	S 	0.50340 0.34560 0.17490 -0.11400
S 	S 	0.65741 0.25050 0.04250 -0.18000
S 	S 	0.78602 0.35520 0.13740 -0.18200
O 	O 	0.56080 0.07710 0.10150 -0.57300
O 	O 	0.54940 0.13640 0.98790 -0.59900
O 	O 	0.92090 0.35450 0.36280 -0.43700
O 	O 	0.90300 0.43740 0.25210 -0.45000
O 	O 	0.48460 0.82200 0.18510 -0.58000
O 	O 	0.51160 0.12440 0.20240 -0.60100
C 	C 	0.57780 0.12850 0.06180 0.59100
C 	C 	0.63780 0.18250 0.10690 -0.39300
C 	C 	0.72530 0.28290 0.12750 0.26500
C 	C 	0.73360 0.24440 0.19640 -0.35900
C 	C 	0.82490 0.32880 0.24410 -0.34800
C 	C 	0.88650 0.37540 0.28870 0.42000
C 	C 	0.49980 0.47380 0.27860 -0.15600
C 	C 	0.50100 0.47270 0.20940 -0.05400
C 	C 	0.67640 0.14120 0.25010 -0.37400
H 	H 	0.63450 0.14130 0.23320 0.17300
H 	H 	0.69880 0.18380 0.29800 0.11900
H 	H 	0.69140 0.06830 0.26080 0.15500
C 	C 	0.81710 0.22930 0.34860 -0.38700
H 	H 	0.86040 0.23480 0.37940 0.15700
H 	H 	0.80550 0.15510 0.34620 0.12500
H 	H 	0.80060 0.27180 0.37360 0.13200
C 	C 	0.50010 0.61050 0.37830 -0.60300
H 	H 	0.49610 0.68740 0.38020 0.23000
H 	H 	0.53720 0.58750 0.42510 0.19200
H 	H 	0.46670 0.57540 0.37690 0.19600
C 	C 	0.49880 0.34080 0.37950 -0.58500
H 	H 	0.45980 0.35840 0.37060 0.19300
H 	H 	0.52920 0.38230 0.42380 0.17600
H 	H 	0.50650 0.26510 0.39150 0.19300
C 	C 	0.68370 0.18900 0.18400 0.37100
C 	C 	0.79330 0.27080 0.26410 0.33700
C 	C 	0.50100 0.58080 0.30300 0.43500
C 	C 	0.50010 0.36690 0.30360 0.38300
S 	S 	0.67596 0.15460 0.21270 -0.20800
S 	S 	0.80602 0.25590 0.30910 -0.17800
C 	C 	0.72890 0.26910 0.15870 -0.38700
C 	C 	0.73720 0.22720 0.22540 0.25200
C 	C 	0.64730 0.27980 0.00320 -0.40600
H 	H 	0.60980 0.24430 0.96680 0.16700
H 	H 	0.67670 0.26130 0.98960 0.13300
H 	H 	0.64130 0.35670 0.99910 0.12900
C 	C 	0.78550 0.39180 0.10960 -0.36300
H 	H 	0.81830 0.44220 0.13640 0.14900
H 	H 	0.74870 0.43030 0.07510 0.11300
H 	H 	0.79340 0.34270 0.07810 0.13000
C 	C 	0.66940 0.24440 0.08720 0.33600
C 	C 	0.77950 0.32900 0.17120 0.33300
Eu	Eu	0.99682 0.47455 0.12446 1.88700
S 	S 	0.99868 0.09790 0.16950 -0.13700
S 	S 	0.00340 0.84560 0.17490 -0.11000
S 	S 	0.15741 0.75050 0.04250 -0.18100
S 	S 	0.28602 0.85520 0.13740 -0.18200
O 	O 	0.06080 0.57710 0.10150 -0.57500
O 	O 	0.04940 0.63640 0.98790 -0.59900
O 	O 	0.42090 0.85450 0.36280 -0.43800
O 	O 	0.40300 0.93740 0.25210 -0.45100
O 	O 	0.98460 0.32200 0.18510 -0.57900
O 	O 	0.01160 0.62440 0.20240 -0.60300
C 	C 	0.07780 0.62850 0.06180 0.59200
C 	C 	0.13780 0.68250 0.10690 -0.39400
C 	C 	0.22530 0.78290 0.12750 0.26600
C 	C 	0.23360 0.74440 0.19640 -0.36000
C 	C 	0.32490 0.82880 0.24410 -0.34800
C 	C 	0.38650 0.87540 0.28870 0.42000
C 	C 	0.99980 0.97380 0.27860 -0.15200
C 	C 	0.00100 0.97270 0.20940 -0.05900
C 	C 	0.17640 0.64120 0.25010 -0.37300
H 	H 	0.13450 0.64130 0.23320 0.17300
H 	H 	0.19880 0.68380 0.29800 0.11800
H 	H 	0.19140 0.56830 0.26080 0.15400
C 	C 	0.31710 0.72930 0.34860 -0.38700
H 	H 	0.36040 0.73480 0.37940 0.15800
H 	H 	0.30550 0.65510 0.34620 0.12500
H 	H 	0.30060 0.77180 0.37360 0.13200
C 	C 	0.00010 0.11050 0.37830 -0.61600
H 	H 	0.99610 0.18740 0.38020 0.23700
H 	H 	0.03720 0.08750 0.42510 0.19600
H 	H 	0.96670 0.07540 0.37690 0.20200
C 	C 	0.99880 0.84080 0.37950 -0.54400
H 	H 	0.95980 0.85840 0.37060 0.18100
H 	H 	0.02920 0.88230 0.42380 0.16300
H 	H 	0.00650 0.76510 0.39150 0.17900
C 	C 	0.18370 0.68900 0.18400 0.37000
C 	C 	0.29330 0.77080 0.26410 0.33600
C 	C 	0.00100 0.08080 0.30300 0.44500
C 	C 	0.00010 0.86690 0.30360 0.36800
S 	S 	0.17596 0.65460 0.21270 -0.20800
S 	S 	0.30602 0.75590 0.30910 -0.17800
C 	C 	0.22890 0.76910 0.15870 -0.38800
C 	C 	0.23720 0.72720 0.22540 0.25300
C 	C 	0.14730 0.77980 0.00320 -0.40800
H 	H 	0.10980 0.74430 0.96680 0.16700
H 	H 	0.17670 0.76130 0.98960 0.13400
H 	H 	0.14130 0.85670 0.99910 0.12900
C 	C 	0.28550 0.89180 0.10960 -0.36400
H 	H 	0.31830 0.94220 0.13640 0.14900
H 	H 	0.24870 0.93030 0.07510 0.11400
H 	H 	0.29340 0.84270 0.07810 0.13100
C 	C 	0.16940 0.74440 0.08720 0.33800
C 	C 	0.27950 0.82900 0.17120 0.33300
Eu	Eu	0.49682 0.02545 0.62446 1.88100
S 	S 	0.49868 0.40210 0.66950 -0.14300
S 	S 	0.50340 0.65440 0.67490 -0.11400
S 	S 	0.65741 0.74950 0.54250 -0.18200
S 	S 	0.78602 0.64480 0.63740 -0.18200
O 	O 	0.56080 0.92290 0.60150 -0.57300
O 	O 	0.54940 0.86360 0.48790 -0.59700
O 	O 	0.92090 0.64550 0.86280 -0.43500
O 	O 	0.90300 0.56260 0.75210 -0.44900
O 	O 	0.48460 0.17800 0.68510 -0.58000
O 	O 	0.51160 0.87560 0.70240 -0.60100
C 	C 	0.57780 0.87150 0.56180 0.59000
C 	C 	0.63780 0.81750 0.60690 -0.39400
C 	C 	0.72530 0.71710 0.62750 0.26500
C 	C 	0.73360 0.75560 0.69640 -0.35900
C 	C 	0.82490 0.67120 0.74410 -0.34900
C 	C 	0.88650 0.62460 0.78870 0.42000
C 	C 	0.49980 0.52620 0.77860 -0.15600
C 	C 	0.50100 0.52730 0.70940 -0.05400
C 	C 	0.67640 0.85880 0.75010 -0.37400
H 	H 	0.63450 0.85870 0.73320 0.17300
H 	H 	0.69880 0.81620 0.79800 0.11900
H 	H 	0.69140 0.93170 0.76080 0.15500
C 	C 	0.81710 0.77070 0.84860 -0.38800
H 	H 	0.86040 0.76520 0.87940 0.15900
H 	H 	0.80550 0.84490 0.84620 0.12600
H 	H 	0.80060 0.72820 0.87360 0.13200
C 	C 	0.50010 0.38950 0.87830 -0.60300
H 	H 	0.49610 0.31260 0.88020 0.23000
H 	H 	0.53720 0.41250 0.92510 0.19200
H 	H 	0.46670 0.42460 0.87690 0.19600
C 	C 	0.49880 0.65920 0.87950 -0.58500
H 	H 	0.45980 0.64160 0.87060 0.19300
H 	H 	0.52920 0.61770 0.92380 0.17700
H 	H 	0.50650 0.73490 0.89150 0.19300
C 	C 	0.68370 0.81100 0.68400 0.37100
C 	C 	0.79330 0.72920 0.76410 0.33800
C 	C 	0.50100 0.41920 0.80300 0.43500
C 	C 	0.50010 0.63310 0.80360 0.38400
S 	S 	0.67596 0.84540 0.71270 -0.20900
S 	S 	0.80602 0.74410 0.80910 -0.17900
C 	C 	0.72890 0.73090 0.65870 -0.38700
C 	C 	0.73720 0.77280 0.72540 0.25200
C 	C 	0.64730 0.72020 0.50320 -0.40900
H 	H 	0.60980 0.75570 0.46680 0.16800
H 	H 	0.67670 0.73870 0.48960 0.13500
H 	H 	0.64130 0.64330 0.49910 0.13000
C 	C 	0.78550 0.60820 0.60960 -0.36400
H 	H 	0.81830 0.55780 0.63640 0.14900
H 	H 	0.74870 0.56970 0.57510 0.11400
H 	H 	0.79340 0.65730 0.57810 0.13100
C 	C 	0.66940 0.75560 0.58720 0.33900
C 	C 	0.77950 0.67100 0.67120 0.33400
Eu	Eu	0.99682 0.52545 0.62446 1.89300
S 	S 	0.99868 0.90210 0.66950 -0.12800
S 	S 	0.00340 0.15440 0.67490 -0.10800
S 	S 	0.15741 0.24950 0.54250 -0.18200
S 	S 	0.28602 0.14480 0.63740 -0.18200
O 	O 	0.06080 0.42290 0.60150 -0.57700
O 	O 	0.04940 0.36360 0.48790 -0.59800
O 	O 	0.42090 0.14550 0.86280 -0.43800
O 	O 	0.40300 0.06260 0.75210 -0.45100
O 	O 	0.98460 0.67800 0.68510 -0.57600
O 	O 	0.01160 0.37560 0.70240 -0.60500
C 	C 	0.07780 0.37150 0.56180 0.59000
C 	C 	0.13780 0.31750 0.60690 -0.39400
C 	C 	0.22530 0.21710 0.62750 0.26500
C 	C 	0.23360 0.25560 0.69640 -0.36000
C 	C 	0.32490 0.17120 0.74410 -0.34800
C 	C 	0.38650 0.12460 0.78870 0.42000
C 	C 	0.99980 0.02620 0.77860 -0.14800
C 	C 	0.00100 0.02730 0.70940 -0.06600
C 	C 	0.17640 0.35880 0.75010 -0.37300
H 	H 	0.13450 0.35870 0.73320 0.17200
H 	H 	0.19880 0.31620 0.79800 0.11800
H 	H 	0.19140 0.43170 0.76080 0.15400
C 	C 	0.31710 0.27070 0.84860 -0.38600
H 	H 	0.36040 0.26520 0.87940 0.15700
H 	H 	0.30550 0.34490 0.84620 0.12500
H 	H 	0.30060 0.22820 0.87360 0.13100
C 	C 	0.00010 0.88950 0.87830 -0.62600
H 	H 	0.99610 0.81260 0.88020 0.24300
H 	H 	0.03720 0.91250 0.92510 0.19900
H 	H 	0.96670 0.92460 0.87690 0.20800
C 	C 	0.99880 0.15920 0.87950 -0.49700
H 	H 	0.95980 0.14160 0.87060 0.16800
H 	H 	0.02920 0.11770 0.92380 0.14600
H 	H 	0.00650 0.23490 0.89150 0.16300
C 	C 	0.18370 0.31100 0.68400 0.36900
C 	C 	0.29330 0.22920 0.76410 0.33600
C 	C 	0.00100 0.91920 0.80300 0.45100
C 	C 	0.00010 0.13310 0.80360 0.35200
S 	S 	0.17596 0.34540 0.71270 -0.20800
S 	S 	0.30602 0.24410 0.80910 -0.17800
C 	C 	0.22890 0.23090 0.65870 -0.38800
C 	C 	0.23720 0.27280 0.72540 0.25300
C 	C 	0.14730 0.22020 0.50320 -0.40900
H 	H 	0.10980 0.25570 0.46680 0.16800
H 	H 	0.17670 0.23870 0.48960 0.13500
H 	H 	0.14130 0.14330 0.49910 0.13000
C 	C 	0.28550 0.10820 0.60960 -0.36400
H 	H 	0.31830 0.05780 0.63640 0.14900
H 	H 	0.24870 0.06970 0.57510 0.11400
H 	H 	0.29340 0.15730 0.57810 0.13100
C 	C 	0.16940 0.25560 0.58720 0.33900
C 	C 	0.27950 0.17100 0.67120 0.33400
Eu	Eu	0.50318 0.02545 0.87554 1.87800
S 	S 	0.50132 0.40210 0.83050 -0.14300
S 	S 	0.49660 0.65440 0.82510 -0.11400
S 	S 	0.34259 0.74950 0.95750 -0.18000
S 	S 	0.21398 0.64480 0.86260 -0.18200
O 	O 	0.43920 0.92290 0.89850 -0.57300
O 	O 	0.45060 0.86360 0.01210 -0.59900
O 	O 	0.07910 0.64550 0.63720 -0.43900
O 	O 	0.09700 0.56260 0.74790 -0.45300
O 	O 	0.51540 0.17800 0.81490 -0.58000
O 	O 	0.48840 0.87560 0.79760 -0.60100
C 	C 	0.42220 0.87150 0.93820 0.59100
C 	C 	0.36220 0.81750 0.89310 -0.39300
C 	C 	0.27470 0.71710 0.87250 0.26600
C 	C 	0.26640 0.75560 0.80360 -0.35900
C 	C 	0.17510 0.67120 0.75590 -0.34800
C 	C 	0.11350 0.62460 0.71130 0.42100
C 	C 	0.50020 0.52620 0.72140 -0.15600
C 	C 	0.49900 0.52730 0.79060 -0.05400
C 	C 	0.32360 0.85880 0.74990 -0.37400
H 	H 	0.36550 0.85870 0.76680 0.17300
H 	H 	0.30120 0.81620 0.70200 0.11900
H 	H 	0.30860 0.93170 0.73920 0.15500
C 	C 	0.18290 0.77070 0.65140 -0.38700
H 	H 	0.13960 0.76520 0.62060 0.15800
H 	H 	0.19450 0.84490 0.65380 0.12500
H 	H 	0.19940 0.72820 0.62640 0.13200
C 	C 	0.49990 0.38950 0.62170 -0.60300
H 	H 	0.50390 0.31260 0.61980 0.23000
H 	H 	0.46280 0.41250 0.57490 0.19200
H 	H 	0.53330 0.42460 0.62310 0.19600
C 	C 	0.50120 0.65920 0.62050 -0.58400
H 	H 	0.54020 0.64160 0.62940 0.19300
H 	H 	0.47080 0.61770 0.57620 0.17600
H 	H 	0.49350 0.73490 0.60850 0.19300
C 	C 	0.31630 0.81100 0.81600 0.37000
C 	C 	0.20670 0.72920 0.73590 0.33700
C 	C 	0.49900 0.41920 0.69700 0.43500
C 	C 	0.49990 0.63310 0.69640 0.38300
S 	S 	0.32404 0.84540 0.78730 -0.20800
S 	S 	0.19398 0.74410 0.69090 -0.17800
C 	C 	0.27110 0.73090 0.84130 -0.38700
C 	C 	0.26280 0.77280 0.77460 0.25200
C 	C 	0.35270 0.72020 0.99680 -0.40600
H 	H 	0.39020 0.75570 0.03320 0.16700
H 	H 	0.32330 0.73870 0.01040 0.13300
H 	H 	0.35870 0.64330 0.00090 0.12900
C 	C 	0.21450 0.60820 0.89040 -0.36300
H 	H 	0.18170 0.55780 0.86360 0.14900
H 	H 	0.25130 0.56970 0.92490 0.11400
H 	H 	0.20660 0.65730 0.92190 0.13100
C 	C 	0.33060 0.75560 0.91280 0.33600
C 	C 	0.22050 0.67100 0.82880 0.33300
Eu	Eu	0.00318 0.52545 0.87554 1.86900
S 	S 	0.00132 0.90210 0.83050 -0.16000
S 	S 	0.99660 0.15440 0.82510 -0.11400
S 	S 	0.84259 0.24950 0.95750 -0.18200
S 	S 	0.71398 0.14480 0.86260 -0.18200
O 	O 	0.93920 0.42290 0.89850 -0.57000
O 	O 	0.95060 0.36360 0.01210 -0.59800
O 	O 	0.57910 0.14550 0.63720 -0.43800
O 	O 	0.59700 0.06260 0.74790 -0.45100
O 	O 	0.01540 0.67800 0.81490 -0.58000
O 	O 	0.98840 0.37560 0.79760 -0.59200
C 	C 	0.92220 0.37150 0.93820 0.59100
C 	C 	0.86220 0.31750 0.89310 -0.39300
C 	C 	0.77470 0.21710 0.87250 0.26600
C 	C 	0.76640 0.25560 0.80360 -0.36000
C 	C 	0.67510 0.17120 0.75590 -0.34800
C 	C 	0.61350 0.12460 0.71130 0.42000
C 	C 	0.00020 0.02620 0.72140 -0.16600
C 	C 	0.99900 0.02730 0.79060 -0.04300
C 	C 	0.82360 0.35880 0.74990 -0.37300
H 	H 	0.86550 0.35870 0.76680 0.17400
H 	H 	0.80120 0.31620 0.70200 0.11900
H 	H 	0.80860 0.43170 0.73920 0.15400
C 	C 	0.68290 0.27070 0.65140 -0.38700
H 	H 	0.63960 0.26520 0.62060 0.15800
H 	H 	0.69450 0.34490 0.65380 0.12500
H 	H 	0.69940 0.22820 0.62640 0.13200
C 	C 	0.99990 0.88950 0.62170 -0.59900
H 	H 	0.00390 0.81260 0.61980 0.22500
H 	H 	0.96280 0.91250 0.57490 0.19100
H 	H 	0.03330 0.92460 0.62310 0.19200
C 	C 	0.00120 0.15920 0.62050 -0.66200
H 	H 	0.04020 0.14160 0.62940 0.21500
H 	H 	0.97080 0.11770 0.57620 0.20200
H 	H 	0.99350 0.23490 0.60850 0.21900
C 	C 	0.81630 0.31100 0.81600 0.37000
C 	C 	0.70670 0.22920 0.73590 0.33700
C 	C 	0.99900 0.91920 0.69700 0.43600
C 	C 	0.99990 0.13310 0.69640 0.41200
S 	S 	0.82404 0.34540 0.78730 -0.20800
S 	S 	0.69398 0.24410 0.69090 -0.17800
C 	C 	0.77110 0.23090 0.84130 -0.38800
C 	C 	0.76280 0.27280 0.77460 0.25300
C 	C 	0.85270 0.22020 0.99680 -0.40800
H 	H 	0.89020 0.25570 0.03320 0.16800
H 	H 	0.82330 0.23870 0.01040 0.13400
H 	H 	0.85870 0.14330 0.00090 0.13000
C 	C 	0.71450 0.10820 0.89040 -0.36400
H 	H 	0.68170 0.05780 0.86360 0.14900
H 	H 	0.75130 0.06970 0.92490 0.11400
H 	H 	0.70660 0.15730 0.92190 0.13100
C 	C 	0.83060 0.25560 0.91280 0.33800
C 	C 	0.72050 0.17100 0.82880 0.33300
C 	C 	0.50000 0.77610 0.25000 0.62600
C 	C 	0.50000 0.65750 0.25000 -0.43600
C 	C 	0.50000 0.16920 0.25000 0.58200
C 	C 	0.50000 0.28970 0.25000 -0.38900
C 	C 	0.00000 0.27610 0.25000 0.62600
C 	C 	0.00000 0.15750 0.25000 -0.44100
C 	C 	0.00000 0.66920 0.25000 0.57800
C 	C 	0.00000 0.78970 0.25000 -0.38700
C 	C 	0.50000 0.22390 0.75000 0.62600
C 	C 	0.50000 0.34250 0.75000 -0.43600
C 	C 	0.50000 0.83080 0.75000 0.58200
C 	C 	0.50000 0.71030 0.75000 -0.38900
C 	C 	0.00000 0.72390 0.75000 0.62400
C 	C 	0.00000 0.84250 0.75000 -0.44400
C 	C 	0.00000 0.33080 0.75000 0.57500
C 	C 	0.00000 0.21030 0.75000 -0.39100
