data_crystal

_cell_length_a 25.93500
_cell_length_b 12.34340
_cell_length_c 22.86900
_cell_angle_alpha 90.00000
_cell_angle_beta  133.60500
_cell_angle_gamma 90.00000

_symmetry_space_group_name_	'P 1'
_symmetry_space_group_name_H-M	'P 1'

loop_
_symmetry_equiv_pos_as_xyz
  x,y,z

loop_
_atom_site_label
_atom_site_type_symbol
_atom_site_fract_x
_atom_site_fract_y
_atom_site_fract_z
_atom_site_charge
Tb	Tb	0.87758 0.27606 0.12472 1.81300
S 	S 	0.91950 0.65240 0.16860 -0.13800
S 	S 	0.91960 0.90540 0.17290 -0.12500
S 	S 	0.89930 0.39540 0.36290 -0.17700
S 	S 	0.86513 0.49940 0.45820 -0.17100
O 	O 	0.80880 0.39670 0.13700 -0.43100
O 	O 	0.90100 0.31330 0.24760 -0.43400
O 	O 	0.70850 0.67480 0.39760 -0.55800
O 	O 	0.81170 0.61420 0.51340 -0.56800
O 	O 	0.94980 0.42700 0.18520 -0.56000
O 	O 	0.94040 0.12790 0.20180 -0.58200
C 	C 	0.84770 0.37530 0.21070 0.40600
C 	C 	0.83080 0.42220 0.25520 -0.28900
C 	C 	0.84890 0.46350 0.37320 0.50400
C 	C 	0.78770 0.50630 0.30300 -0.51200
C 	C 	0.78060 0.56890 0.39350 -0.33800
C 	C 	0.76520 0.62300 0.43770 0.54900
C 	C 	0.95690 0.77800 0.21010 -0.03600
C 	C 	0.02800 0.77650 0.27860 -0.16700
C 	C 	0.71710 0.52010 0.15110 -0.40300
H 	H 	0.72650 0.50730 0.11780 0.16300
H 	H 	0.71060 0.59630 0.15240 0.12600
H 	H 	0.67480 0.48190 0.12930 0.13000
C 	C 	0.67340 0.61030 0.24740 -0.35900
H 	H 	0.65020 0.62090 0.26630 0.16900
H 	H 	0.64570 0.56140 0.20240 0.10800
H 	H 	0.67760 0.67860 0.23100 0.14300
C 	C 	0.12830 0.63880 0.37910 -0.63800
H 	H 	0.13190 0.62980 0.42350 0.21200
H 	H 	0.15990 0.69550 0.39140 0.19800
H 	H 	0.14120 0.57230 0.37010 0.23900
C 	C 	0.13130 0.91120 0.37810 -0.60400
H 	H 	0.14270 0.98310 0.37390 0.21500
H 	H 	0.16160 0.85990 0.38250 0.18900
H 	H 	0.13830 0.90660 0.42510 0.18300
C 	C 	0.77980 0.47990 0.23640 0.29600
C 	C 	0.74820 0.56210 0.31610 0.28500
C 	C 	0.05290 0.66810 0.30390 0.45600
C 	C 	0.05390 0.88590 0.30290 0.41200
S 	S 	0.74680 0.49630 0.19060 -0.17100
S 	S 	0.71240 0.59740 0.28590 -0.19300
C 	C 	0.82090 0.48260 0.34260 -0.53300
C 	C 	0.76020 0.52570 0.27340 0.49600
C 	C 	0.92710 0.36130 0.39360 -0.34800
H 	H 	0.95380 0.35730 0.37870 0.15200
H 	H 	0.91650 0.28940 0.39880 0.11500
H 	H 	0.95460 0.39860 0.44420 0.10800
C 	C 	0.89490 0.47050 0.49720 -0.41400
H 	H 	0.90210 0.51900 0.53510 0.16800
H 	H 	0.93630 0.47110 0.50490 0.12900
H 	H 	0.88710 0.39850 0.50560 0.13100
C 	C 	0.85920 0.42140 0.32990 0.25500
C 	C 	0.83150 0.50620 0.41320 0.29400
Tb	Tb	0.37758 0.77606 0.12472 1.81200
S 	S 	0.41950 0.15240 0.16860 -0.14100
S 	S 	0.41960 0.40540 0.17290 -0.12700
S 	S 	0.39930 0.89540 0.36290 -0.17300
S 	S 	0.36513 0.99940 0.45820 -0.16800
O 	O 	0.30880 0.89670 0.13700 -0.43000
O 	O 	0.40100 0.81330 0.24760 -0.43700
O 	O 	0.20850 0.17480 0.39760 -0.55700
O 	O 	0.31170 0.11420 0.51340 -0.56700
O 	O 	0.44980 0.92700 0.18520 -0.57200
O 	O 	0.44040 0.62790 0.20180 -0.59200
C 	C 	0.34770 0.87530 0.21070 0.40500
C 	C 	0.33080 0.92220 0.25520 -0.28700
C 	C 	0.34890 0.96350 0.37320 0.51200
C 	C 	0.28770 0.00630 0.30300 -0.51400
C 	C 	0.28060 0.06890 0.39350 -0.33500
C 	C 	0.26520 0.12300 0.43770 0.54700
C 	C 	0.45690 0.27800 0.21010 -0.04500
C 	C 	0.52800 0.27650 0.27860 -0.16600
C 	C 	0.21710 0.02010 0.15110 -0.40400
H 	H 	0.22650 0.00730 0.11780 0.16300
H 	H 	0.21060 0.09630 0.15240 0.12500
H 	H 	0.17480 0.98190 0.12930 0.13100
C 	C 	0.17340 0.11030 0.24740 -0.35900
H 	H 	0.15020 0.12090 0.26630 0.16800
H 	H 	0.14570 0.06140 0.20240 0.10700
H 	H 	0.17760 0.17860 0.23100 0.14200
C 	C 	0.62830 0.13880 0.37910 -0.63300
H 	H 	0.63190 0.12980 0.42350 0.21000
H 	H 	0.65990 0.19550 0.39140 0.19700
H 	H 	0.64120 0.07230 0.37010 0.23700
C 	C 	0.63130 0.41120 0.37810 -0.59900
H 	H 	0.64270 0.48310 0.37390 0.21300
H 	H 	0.66160 0.35990 0.38250 0.18700
H 	H 	0.63830 0.40660 0.42510 0.18300
C 	C 	0.27980 0.97990 0.23640 0.30100
C 	C 	0.24820 0.06210 0.31610 0.28200
C 	C 	0.55290 0.16810 0.30390 0.45100
C 	C 	0.55390 0.38590 0.30290 0.40800
S 	S 	0.24680 0.99630 0.19060 -0.17400
S 	S 	0.21240 0.09740 0.28590 -0.19200
C 	C 	0.32090 0.98260 0.34260 -0.53600
C 	C 	0.26020 0.02570 0.27340 0.49700
C 	C 	0.42710 0.86130 0.39360 -0.34200
H 	H 	0.45380 0.85730 0.37870 0.14600
H 	H 	0.41650 0.78940 0.39880 0.11100
H 	H 	0.45460 0.89860 0.44420 0.10200
C 	C 	0.39490 0.97050 0.49720 -0.40800
H 	H 	0.40210 0.01900 0.53510 0.16300
H 	H 	0.43630 0.97110 0.50490 0.12300
H 	H 	0.38710 0.89850 0.50560 0.12800
C 	C 	0.35920 0.92140 0.32990 0.24500
C 	C 	0.33150 0.00620 0.41320 0.28500
Tb	Tb	0.12242 0.27606 0.37528 1.80300
S 	S 	0.08050 0.65240 0.33140 -0.14200
S 	S 	0.08040 0.90540 0.32710 -0.12700
S 	S 	0.10070 0.39540 0.13710 -0.17000
S 	S 	0.13487 0.49940 0.04180 -0.15400
O 	O 	0.19120 0.39670 0.36300 -0.43000
O 	O 	0.09900 0.31330 0.25240 -0.43800
O 	O 	0.29150 0.67480 0.10240 -0.55700
O 	O 	0.18830 0.61420 0.98660 -0.56800
O 	O 	0.05020 0.42700 0.31480 -0.57100
O 	O 	0.05960 0.12790 0.29820 -0.59000
C 	C 	0.15230 0.37530 0.28930 0.40300
C 	C 	0.16920 0.42220 0.24480 -0.28400
C 	C 	0.15110 0.46350 0.12680 0.51100
C 	C 	0.21230 0.50630 0.19700 -0.51100
C 	C 	0.21940 0.56890 0.10650 -0.32900
C 	C 	0.23480 0.62300 0.06230 0.54700
C 	C 	0.04310 0.77800 0.28990 -0.05300
C 	C 	0.97200 0.77650 0.22140 -0.17300
C 	C 	0.28290 0.52010 0.34890 -0.40200
H 	H 	0.27350 0.50730 0.38220 0.16300
H 	H 	0.28940 0.59630 0.34760 0.12500
H 	H 	0.32520 0.48190 0.37070 0.13000
C 	C 	0.32660 0.61030 0.25260 -0.35900
H 	H 	0.34980 0.62090 0.23370 0.16900
H 	H 	0.35430 0.56140 0.29760 0.10800
H 	H 	0.32240 0.67860 0.26900 0.14300
C 	C 	0.87170 0.63880 0.12090 -0.65500
H 	H 	0.86810 0.62980 0.07650 0.21800
H 	H 	0.84010 0.69550 0.10860 0.20300
H 	H 	0.85880 0.57230 0.12990 0.24500
C 	C 	0.86870 0.91120 0.12190 -0.62000
H 	H 	0.85730 0.98310 0.12610 0.22100
H 	H 	0.83840 0.85990 0.11750 0.19400
H 	H 	0.86170 0.90660 0.07490 0.19000
C 	C 	0.22020 0.47990 0.26360 0.29500
C 	C 	0.25180 0.56210 0.18390 0.28300
C 	C 	0.94710 0.66810 0.19610 0.46900
C 	C 	0.94610 0.88590 0.19710 0.42500
S 	S 	0.25320 0.49630 0.30940 -0.17000
S 	S 	0.28760 0.59740 0.21410 -0.19200
C 	C 	0.17910 0.48260 0.15740 -0.53100
C 	C 	0.23980 0.52570 0.22660 0.49400
C 	C 	0.07290 0.36130 0.10640 -0.33700
H 	H 	0.04620 0.35730 0.12130 0.14100
H 	H 	0.08350 0.28940 0.10120 0.10800
H 	H 	0.04540 0.39860 0.05580 0.09800
C 	C 	0.10510 0.47050 0.00280 -0.38900
H 	H 	0.09790 0.51900 0.96490 0.15300
H 	H 	0.06370 0.47110 0.99510 0.11200
H 	H 	0.11290 0.39850 0.99440 0.12000
C 	C 	0.14080 0.42140 0.17010 0.23900
C 	C 	0.16850 0.50620 0.08680 0.26600
Tb	Tb	0.62242 0.77606 0.37528 1.81100
S 	S 	0.58050 0.15240 0.33140 -0.14100
S 	S 	0.58040 0.40540 0.32710 -0.12700
S 	S 	0.60070 0.89540 0.13710 -0.17400
S 	S 	0.63487 0.99940 0.04180 -0.16200
O 	O 	0.69120 0.89670 0.36300 -0.43000
O 	O 	0.59900 0.81330 0.25240 -0.43700
O 	O 	0.79150 0.17480 0.10240 -0.55700
O 	O 	0.68830 0.11420 0.98660 -0.56400
O 	O 	0.55020 0.92700 0.31480 -0.57200
O 	O 	0.55960 0.62790 0.29820 -0.59200
C 	C 	0.65230 0.87530 0.28930 0.40600
C 	C 	0.66920 0.92220 0.24480 -0.29000
C 	C 	0.65110 0.96350 0.12680 0.50300
C 	C 	0.71230 0.00630 0.19700 -0.50300
C 	C 	0.71940 0.06890 0.10650 -0.33100
C 	C 	0.73480 0.12300 0.06230 0.54200
C 	C 	0.54310 0.27800 0.28990 -0.04500
C 	C 	0.47200 0.27650 0.22140 -0.16600
C 	C 	0.78290 0.02010 0.34890 -0.40600
H 	H 	0.77350 0.00730 0.38220 0.16400
H 	H 	0.78940 0.09630 0.34760 0.12700
H 	H 	0.82520 0.98190 0.37070 0.13400
C 	C 	0.82660 0.11030 0.25260 -0.36200
H 	H 	0.84980 0.12090 0.23370 0.17000
H 	H 	0.85430 0.06140 0.29760 0.11100
H 	H 	0.82240 0.17860 0.26900 0.14400
C 	C 	0.37170 0.13880 0.12090 -0.63300
H 	H 	0.36810 0.12980 0.07650 0.21100
H 	H 	0.34010 0.19550 0.10860 0.19700
H 	H 	0.35880 0.07230 0.12990 0.23700
C 	C 	0.36870 0.41120 0.12190 -0.60000
H 	H 	0.35730 0.48310 0.12610 0.21400
H 	H 	0.33840 0.35990 0.11750 0.18800
H 	H 	0.36170 0.40660 0.07490 0.18300
C 	C 	0.72020 0.97990 0.26360 0.30600
C 	C 	0.75180 0.06210 0.18390 0.28900
C 	C 	0.44710 0.16810 0.19610 0.45100
C 	C 	0.44610 0.38590 0.19710 0.40800
S 	S 	0.75320 0.99630 0.30940 -0.17500
S 	S 	0.78760 0.09740 0.21410 -0.19300
C 	C 	0.67910 0.98260 0.15740 -0.52500
C 	C 	0.73980 0.02570 0.22660 0.47800
C 	C 	0.57290 0.86130 0.10640 -0.33900
H 	H 	0.54620 0.85730 0.12130 0.14600
H 	H 	0.58350 0.78940 0.10120 0.11100
H 	H 	0.54540 0.89860 0.05580 0.10300
C 	C 	0.60510 0.97050 0.00280 -0.38200
H 	H 	0.59790 0.01900 0.96490 0.15600
H 	H 	0.56370 0.97110 0.99510 0.11300
H 	H 	0.61290 0.89850 0.99440 0.11900
C 	C 	0.64080 0.92140 0.17010 0.24600
C 	C 	0.66850 0.00620 0.08680 0.26900
Tb	Tb	0.12242 0.72394 0.87528 1.80000
S 	S 	0.08050 0.34760 0.83140 -0.14200
S 	S 	0.08040 0.09460 0.82710 -0.12700
S 	S 	0.10070 0.60460 0.63710 -0.16900
S 	S 	0.13487 0.50060 0.54180 -0.16500
O 	O 	0.19120 0.60330 0.86300 -0.43000
O 	O 	0.09900 0.68670 0.75240 -0.43800
O 	O 	0.29150 0.32520 0.60240 -0.55700
O 	O 	0.18830 0.38580 0.48660 -0.56600
O 	O 	0.05020 0.57300 0.81480 -0.57000
O 	O 	0.05960 0.87210 0.79820 -0.59000
C 	C 	0.15230 0.62470 0.78930 0.40300
C 	C 	0.16920 0.57780 0.74480 -0.28400
C 	C 	0.15110 0.53650 0.62680 0.51200
C 	C 	0.21230 0.49370 0.69700 -0.51400
C 	C 	0.21940 0.43110 0.60650 -0.33300
C 	C 	0.23480 0.37700 0.56230 0.54600
C 	C 	0.04310 0.22200 0.78990 -0.05500
C 	C 	0.97200 0.22350 0.72140 -0.17400
C 	C 	0.28290 0.47990 0.84890 -0.40300
H 	H 	0.27350 0.49270 0.88220 0.16300
H 	H 	0.28940 0.40370 0.84760 0.12500
H 	H 	0.32520 0.51810 0.87070 0.13000
C 	C 	0.32660 0.38970 0.75260 -0.35900
H 	H 	0.34980 0.37910 0.73370 0.16900
H 	H 	0.35430 0.43860 0.79760 0.10800
H 	H 	0.32240 0.32140 0.76900 0.14200
C 	C 	0.87170 0.36120 0.62090 -0.65800
H 	H 	0.86810 0.37020 0.57650 0.21800
H 	H 	0.84010 0.30450 0.60860 0.20400
H 	H 	0.85880 0.42770 0.62990 0.24600
C 	C 	0.86870 0.08880 0.62190 -0.62000
H 	H 	0.85730 0.01690 0.62610 0.22000
H 	H 	0.83840 0.14010 0.61750 0.19300
H 	H 	0.86170 0.09340 0.57490 0.19000
C 	C 	0.22020 0.52010 0.76360 0.29400
C 	C 	0.25180 0.43790 0.68390 0.28200
C 	C 	0.94710 0.33190 0.69610 0.47100
C 	C 	0.94610 0.11410 0.69710 0.42600
S 	S 	0.25320 0.50370 0.80940 -0.17000
S 	S 	0.28760 0.40260 0.71410 -0.19300
C 	C 	0.17910 0.51740 0.65740 -0.53500
C 	C 	0.23980 0.47430 0.72660 0.49900
C 	C 	0.07290 0.63870 0.60640 -0.33900
H 	H 	0.04620 0.64270 0.62130 0.14100
H 	H 	0.08350 0.71060 0.60120 0.10800
H 	H 	0.04540 0.60140 0.55580 0.09700
C 	C 	0.10510 0.52950 0.50280 -0.40600
H 	H 	0.09790 0.48100 0.46490 0.16100
H 	H 	0.06370 0.52890 0.49510 0.11900
H 	H 	0.11290 0.60150 0.49440 0.12600
C 	C 	0.14080 0.57860 0.67010 0.23900
C 	C 	0.16850 0.49380 0.58680 0.28100
Tb	Tb	0.62242 0.22394 0.87528 1.81200
S 	S 	0.58050 0.84760 0.83140 -0.14100
S 	S 	0.58040 0.59460 0.82710 -0.12700
S 	S 	0.60070 0.10460 0.63710 -0.17300
S 	S 	0.63487 0.00060 0.54180 -0.16800
O 	O 	0.69120 0.10330 0.86300 -0.43000
O 	O 	0.59900 0.18670 0.75240 -0.43700
O 	O 	0.79150 0.82520 0.60240 -0.55800
O 	O 	0.68830 0.88580 0.48660 -0.56700
O 	O 	0.55020 0.07300 0.81480 -0.57100
O 	O 	0.55960 0.37210 0.79820 -0.59200
C 	C 	0.65230 0.12470 0.78930 0.40600
C 	C 	0.66920 0.07780 0.74480 -0.28900
C 	C 	0.65110 0.03650 0.62680 0.51100
C 	C 	0.71230 0.99370 0.69700 -0.51400
C 	C 	0.71940 0.93110 0.60650 -0.33600
C 	C 	0.73480 0.87700 0.56230 0.54800
C 	C 	0.54310 0.72200 0.78990 -0.04500
C 	C 	0.47200 0.72350 0.72140 -0.16600
C 	C 	0.78290 0.97990 0.84890 -0.40700
H 	H 	0.77350 0.99270 0.88220 0.16400
H 	H 	0.78940 0.90370 0.84760 0.12700
H 	H 	0.82520 0.01810 0.87070 0.13500
C 	C 	0.82660 0.88970 0.75260 -0.36200
H 	H 	0.84980 0.87910 0.73370 0.17000
H 	H 	0.85430 0.93860 0.79760 0.11000
H 	H 	0.82240 0.82140 0.76900 0.14400
C 	C 	0.37170 0.86120 0.62090 -0.63300
H 	H 	0.36810 0.87020 0.57650 0.21000
H 	H 	0.34010 0.80450 0.60860 0.19700
H 	H 	0.35880 0.92770 0.62990 0.23700
C 	C 	0.36870 0.58880 0.62190 -0.60000
H 	H 	0.35730 0.51690 0.62610 0.21300
H 	H 	0.33840 0.64010 0.61750 0.18800
H 	H 	0.36170 0.59340 0.57490 0.18300
C 	C 	0.72020 0.02010 0.76360 0.30500
C 	C 	0.75180 0.93790 0.68390 0.28600
C 	C 	0.44710 0.83190 0.69610 0.45100
C 	C 	0.44610 0.61410 0.69710 0.40800
S 	S 	0.75320 0.00370 0.80940 -0.17600
S 	S 	0.78760 0.90260 0.71410 -0.19400
C 	C 	0.67910 0.01740 0.65740 -0.53600
C 	C 	0.73980 0.97430 0.72660 0.49500
C 	C 	0.57290 0.13870 0.60640 -0.34200
H 	H 	0.54620 0.14270 0.62130 0.14600
H 	H 	0.58350 0.21060 0.60120 0.11100
H 	H 	0.54540 0.10140 0.55580 0.10200
C 	C 	0.60510 0.02950 0.50280 -0.40800
H 	H 	0.59790 0.98100 0.46490 0.16300
H 	H 	0.56370 0.02890 0.49510 0.12300
H 	H 	0.61290 0.10150 0.49440 0.12800
C 	C 	0.64080 0.07860 0.67010 0.24600
C 	C 	0.66850 0.99380 0.58680 0.28600
Tb	Tb	0.87758 0.72394 0.62472 1.81400
S 	S 	0.91950 0.34760 0.66860 -0.13900
S 	S 	0.91960 0.09460 0.67290 -0.12500
S 	S 	0.89930 0.60460 0.86290 -0.17800
S 	S 	0.86513 0.50060 0.95820 -0.16500
O 	O 	0.80880 0.60330 0.63700 -0.43100
O 	O 	0.90100 0.68670 0.74760 -0.43400
O 	O 	0.70850 0.32520 0.89760 -0.55800
O 	O 	0.81170 0.38580 0.01340 -0.56900
O 	O 	0.94980 0.57300 0.68520 -0.55800
O 	O 	0.94040 0.87210 0.70180 -0.57800
C 	C 	0.84770 0.62470 0.71070 0.40500
C 	C 	0.83080 0.57780 0.75520 -0.28800
C 	C 	0.84890 0.53650 0.87320 0.50400
C 	C 	0.78770 0.49370 0.80300 -0.51000
C 	C 	0.78060 0.43110 0.89350 -0.33600
C 	C 	0.76520 0.37700 0.93770 0.55000
C 	C 	0.95690 0.22200 0.71010 -0.03400
C 	C 	0.02800 0.22350 0.77860 -0.16700
C 	C 	0.71710 0.47990 0.65110 -0.40200
H 	H 	0.72650 0.49270 0.61780 0.16300
H 	H 	0.71060 0.40370 0.65240 0.12500
H 	H 	0.67480 0.51810 0.62930 0.13000
C 	C 	0.67340 0.38970 0.74740 -0.35900
H 	H 	0.65020 0.37910 0.76630 0.16900
H 	H 	0.64570 0.43860 0.70240 0.10800
H 	H 	0.67760 0.32140 0.73100 0.14300
C 	C 	0.12830 0.36120 0.87910 -0.63900
H 	H 	0.13190 0.37020 0.92350 0.21200
H 	H 	0.15990 0.30450 0.89140 0.19900
H 	H 	0.14120 0.42770 0.87010 0.24000
C 	C 	0.13130 0.08880 0.87810 -0.60500
H 	H 	0.14270 0.01690 0.87390 0.21600
H 	H 	0.16160 0.14010 0.88250 0.18900
H 	H 	0.13830 0.09340 0.92510 0.18400
C 	C 	0.77980 0.52010 0.73640 0.29600
C 	C 	0.74820 0.43790 0.81610 0.28500
C 	C 	0.05290 0.33190 0.80390 0.45800
C 	C 	0.05390 0.11410 0.80290 0.41300
S 	S 	0.74680 0.50370 0.69060 -0.17000
S 	S 	0.71240 0.40260 0.78590 -0.19300
C 	C 	0.82090 0.51740 0.84260 -0.53100
C 	C 	0.76020 0.47430 0.77340 0.49300
C 	C 	0.92710 0.63870 0.89360 -0.34700
H 	H 	0.95380 0.64270 0.87870 0.15200
H 	H 	0.91650 0.71060 0.89880 0.11400
H 	H 	0.95460 0.60140 0.94420 0.10800
C 	C 	0.89490 0.52950 0.99720 -0.40600
H 	H 	0.90210 0.48100 0.03510 0.16300
H 	H 	0.93630 0.52890 0.00490 0.12500
H 	H 	0.88710 0.60150 0.00560 0.12700
C 	C 	0.85920 0.57860 0.82990 0.25400
C 	C 	0.83150 0.49380 0.91320 0.28600
Tb	Tb	0.37758 0.22394 0.62472 1.81100
S 	S 	0.41950 0.84760 0.66860 -0.14100
S 	S 	0.41960 0.59460 0.67290 -0.12700
S 	S 	0.39930 0.10460 0.86290 -0.17400
S 	S 	0.36513 0.00060 0.95820 -0.16600
O 	O 	0.30880 0.10330 0.63700 -0.43000
O 	O 	0.40100 0.18670 0.74760 -0.43700
O 	O 	0.20850 0.82520 0.89760 -0.55600
O 	O 	0.31170 0.88580 0.01340 -0.56200
O 	O 	0.44980 0.07300 0.68520 -0.57200
O 	O 	0.44040 0.37210 0.70180 -0.59200
C 	C 	0.34770 0.12470 0.71070 0.40500
C 	C 	0.33080 0.07780 0.75520 -0.28900
C 	C 	0.34890 0.03650 0.87320 0.50500
C 	C 	0.28770 0.99370 0.80300 -0.50400
C 	C 	0.28060 0.93110 0.89350 -0.33100
C 	C 	0.26520 0.87700 0.93770 0.54000
C 	C 	0.45690 0.72200 0.71010 -0.04500
C 	C 	0.52800 0.72350 0.77860 -0.16600
C 	C 	0.21710 0.97990 0.65110 -0.40300
H 	H 	0.22650 0.99270 0.61780 0.16200
H 	H 	0.21060 0.90370 0.65240 0.12500
H 	H 	0.17480 0.01810 0.62930 0.13000
C 	C 	0.17340 0.88970 0.74740 -0.35900
H 	H 	0.15020 0.87910 0.76630 0.16700
H 	H 	0.14570 0.93860 0.70240 0.10700
H 	H 	0.17760 0.82140 0.73100 0.14200
C 	C 	0.62830 0.86120 0.87910 -0.63300
H 	H 	0.63190 0.87020 0.92350 0.21000
H 	H 	0.65990 0.80450 0.89140 0.19700
H 	H 	0.64120 0.92770 0.87010 0.23700
C 	C 	0.63130 0.58880 0.87810 -0.60000
H 	H 	0.64270 0.51690 0.87390 0.21300
H 	H 	0.66160 0.64010 0.88250 0.18800
H 	H 	0.63830 0.59340 0.92510 0.18300
C 	C 	0.27980 0.02010 0.73640 0.30300
C 	C 	0.24820 0.93790 0.81610 0.28400
C 	C 	0.55290 0.83190 0.80390 0.45100
C 	C 	0.55390 0.61410 0.80290 0.40800
S 	S 	0.24680 0.00370 0.69060 -0.17400
S 	S 	0.21240 0.90260 0.78590 -0.19200
C 	C 	0.32090 0.01740 0.84260 -0.52700
C 	C 	0.26020 0.97430 0.77340 0.48100
C 	C 	0.42710 0.13870 0.89360 -0.34000
H 	H 	0.45380 0.14270 0.87870 0.14600
H 	H 	0.41650 0.21060 0.89880 0.11100
H 	H 	0.45460 0.10140 0.94420 0.10200
C 	C 	0.39490 0.02950 0.99720 -0.38700
H 	H 	0.40210 0.98100 0.03510 0.15800
H 	H 	0.43630 0.02890 0.00490 0.11600
H 	H 	0.38710 0.10150 0.00560 0.12100
C 	C 	0.35920 0.07860 0.82990 0.24600
C 	C 	0.33150 0.99380 0.91320 0.27400
C 	C 	0.00000 0.47280 0.25000 0.61400
C 	C 	0.00000 0.59350 0.25000 -0.46300
C 	C 	0.00000 0.08140 0.25000 0.57200
C 	C 	0.00000 0.96180 0.25000 -0.43200
C 	C 	0.50000 0.97280 0.25000 0.62700
C 	C 	0.50000 0.09350 0.25000 -0.44900
C 	C 	0.50000 0.58140 0.25000 0.58400
C 	C 	0.50000 0.46180 0.25000 -0.41800
C 	C 	-0.00000 0.52720 0.75000 0.61100
C 	C 	-0.00000 0.40650 0.75000 -0.46500
C 	C 	-0.00000 0.91860 0.75000 0.56700
C 	C 	-0.00000 0.03820 0.75000 -0.43200
C 	C 	0.50000 0.02720 0.75000 0.62700
C 	C 	0.50000 0.90650 0.75000 -0.44900
C 	C 	0.50000 0.41860 0.75000 0.58300
C 	C 	0.50000 0.53820 0.75000 -0.41800
