data_crystal

_cell_length_a 31.98000
_cell_length_b 7.90400
_cell_length_c 26.80000
_cell_angle_alpha 90.00000
_cell_angle_beta  90.00000
_cell_angle_gamma 90.00000

_symmetry_space_group_name_	'P 1'
_symmetry_space_group_name_H-M	'P 1'

loop_
_symmetry_equiv_pos_as_xyz
  x,y,z

loop_
_atom_site_label
_atom_site_type_symbol
_atom_site_fract_x
_atom_site_fract_y
_atom_site_fract_z
_atom_site_charge
Cd	Cd	0.10837 0.63406 0.43443 1.21300
C 	C 	0.17500 0.98980 0.53070 0.14100
C 	C 	0.08100 0.23860 0.58440 -0.03400
H 	H 	0.09270 0.33560 0.59830 0.05600
C 	C 	0.09040 0.38390 0.50490 0.29700
C 	C 	0.24170 0.16430 0.63200 -0.15400
H 	H 	0.26640 0.22500 0.63530 0.08800
C 	C 	0.07800 0.22920 0.53650 -0.06900
C 	C 	0.06450 0.08470 0.51360 -0.02200
H 	H 	0.06300 0.07970 0.47900 0.04100
C 	C 	0.05290 0.94640 0.54170 -0.04900
N 	N 	0.17390 0.08830 0.48820 -0.22700
H 	H 	0.18340 0.18980 0.48590 0.13600
O 	O 	0.06990 0.40840 0.46470 -0.51000
C 	C 	0.19040 0.03430 0.57850 -0.12600
O 	O 	0.11970 0.47720 0.51850 -0.35100
C 	C 	0.05390 0.96040 0.59360 -0.03400
H 	H 	0.04540 0.86820 0.61260 0.05800
C 	C 	0.06700 0.10410 0.61800 0.01000
C 	C 	0.06990 0.11840 0.67440 -0.04600
C 	C 	0.15670 0.84520 0.51710 -0.06800
H 	H 	0.15290 0.75430 0.53860 0.05400
C 	C 	0.03770 0.78650 0.51650 0.28100
O 	O 	0.07910 0.07060 0.86040 -0.43000
O 	O 	0.11270 0.30310 0.84580 -0.34100
C 	C 	0.09200 0.17890 0.83190 0.30700
O 	O 	0.04260 0.77380 0.46850 -0.44000
O 	O 	0.02120 0.67150 0.54170 -0.38200
C 	C 	0.08240 0.16310 0.77580 0.00800
C 	C 	0.08600 0.26500 0.69540 -0.01300
H 	H 	0.09150 0.35660 0.67470 0.03600
C 	C 	0.09360 0.27970 0.74200 -0.06800
H 	H 	0.10760 0.37590 0.75300 0.06300
C 	C 	0.16850 0.98200 0.62050 0.09700
H 	H 	0.14410 0.91910 0.61710 0.00300
C 	C 	0.18360 0.02510 0.66880 -0.20000
H 	H 	0.16870 0.99220 0.69700 0.11600
C 	C 	0.22080 0.11750 0.67380 0.10600
C 	C 	0.22720 0.12410 0.58370 0.05500
H 	H 	0.24230 0.15770 0.55570 0.00800
C 	C 	0.23650 0.16340 0.72490 -0.03300
C 	C 	0.26830 0.28290 0.81660 0.03100
C 	C 	0.22490 0.27980 0.80880 -0.07300
H 	H 	0.20640 0.31900 0.83300 0.06100
C 	C 	0.27990 0.16720 0.73490 -0.02200
H 	H 	0.29850 0.13100 0.71040 0.03600
C 	C 	0.21050 0.21510 0.76310 -0.02100
H 	H 	0.18180 0.20660 0.75830 0.04200
C 	C 	0.29560 0.22390 0.78040 -0.07700
H 	H 	0.32420 0.22210 0.78650 0.06400
C 	C 	0.28490 0.35860 0.86140 0.03300
N 	N 	0.32480 0.41110 0.86750 -0.10600
C 	C 	0.26390 0.41320 0.90330 0.00800
H 	H 	0.23580 0.39680 0.91030 0.02600
N 	N 	0.14430 0.84380 0.46900 -0.22000
C 	C 	0.33030 0.48940 0.91130 -0.08000
N 	N 	0.29200 0.49510 0.93230 -0.17000
H 	H 	0.28620 0.54380 0.96020 0.10000
C 	C 	0.15570 0.00110 0.45100 0.08700
H 	H 	0.15140 0.04000 0.41870 -0.00600
C 	C 	0.06080 0.99320 0.70560 0.06300
H 	H 	0.05030 0.89200 0.69310 0.01100
N 	N 	0.06690 0.01200 0.75710 -0.20600
H 	H 	0.06110 0.93020 0.77700 0.14200
Cd	Cd	0.10837 0.13406 0.93443 1.20900
C 	C 	0.17500 0.48980 0.03070 0.07800
C 	C 	0.08100 0.73860 0.08440 -0.01100
H 	H 	0.09270 0.83560 0.09830 0.05000
C 	C 	0.09040 0.88390 0.00490 0.31600
C 	C 	0.24170 0.66430 0.13200 -0.07800
H 	H 	0.26640 0.72500 0.13530 0.06600
C 	C 	0.07800 0.72920 0.03650 -0.09400
C 	C 	0.06450 0.58470 0.01360 0.03400
H 	H 	0.06300 0.57970 0.97900 0.02000
C 	C 	0.05290 0.44640 0.04170 -0.08400
N 	N 	0.17390 0.58830 0.98820 -0.21600
H 	H 	0.18340 0.68980 0.98590 0.13200
O 	O 	0.06990 0.90840 0.96470 -0.51200
C 	C 	0.19040 0.53430 0.07850 -0.01800
O 	O 	0.11970 0.97720 0.01850 -0.34300
C 	C 	0.05390 0.46040 0.09360 -0.02700
H 	H 	0.04540 0.36820 0.11260 0.05100
C 	C 	0.06700 0.60410 0.11800 -0.00100
C 	C 	0.06990 0.61840 0.17440 -0.00500
C 	C 	0.15670 0.34520 0.01710 -0.02600
H 	H 	0.15290 0.25430 0.03860 0.03600
C 	C 	0.03770 0.28650 0.01650 0.30200
O 	O 	0.07910 0.57060 0.36040 -0.42400
O 	O 	0.11270 0.80310 0.34580 -0.33600
C 	C 	0.09200 0.67890 0.33190 0.31200
O 	O 	0.04260 0.27380 0.96850 -0.45600
O 	O 	0.02120 0.17150 0.04170 -0.39000
C 	C 	0.08240 0.66310 0.27580 -0.00100
C 	C 	0.08600 0.76500 0.19540 -0.04200
H 	H 	0.09150 0.85660 0.17470 0.05000
C 	C 	0.09360 0.77970 0.24200 -0.04200
H 	H 	0.10760 0.87590 0.25300 0.05700
C 	C 	0.16850 0.48200 0.12050 -0.03200
H 	H 	0.14410 0.41910 0.11710 0.04400
C 	C 	0.18360 0.52510 0.16880 -0.07700
H 	H 	0.16870 0.49220 0.19700 0.06100
C 	C 	0.22080 0.61750 0.17380 0.03600
C 	C 	0.22720 0.62410 0.08370 -0.02400
H 	H 	0.24230 0.65770 0.05570 0.04200
C 	C 	0.23650 0.66340 0.22490 0.00800
C 	C 	0.26830 0.78290 0.31660 0.02100
C 	C 	0.22490 0.77980 0.30880 -0.05200
H 	H 	0.20640 0.81900 0.33300 0.05800
C 	C 	0.27990 0.66720 0.23490 -0.04400
H 	H 	0.29850 0.63100 0.21040 0.04800
C 	C 	0.21050 0.71510 0.26310 -0.04400
H 	H 	0.18180 0.70660 0.25830 0.05400
C 	C 	0.29560 0.72390 0.28040 -0.05600
H 	H 	0.32420 0.72210 0.28650 0.06000
C 	C 	0.28490 0.85860 0.36140 0.04200
N 	N 	0.32480 0.91110 0.36750 -0.10500
C 	C 	0.26390 0.91320 0.40330 0.00500
H 	H 	0.23580 0.89680 0.41030 0.03300
N 	N 	0.14430 0.34380 0.96900 -0.24000
C 	C 	0.33030 0.98940 0.41130 -0.07100
N 	N 	0.29200 0.99510 0.43230 -0.15600
H 	H 	0.28620 0.04380 0.46020 0.08600
C 	C 	0.15570 0.50110 0.95100 0.10100
H 	H 	0.15140 0.54000 0.91870 -0.00700
C 	C 	0.06080 0.49320 0.20560 0.01400
H 	H 	0.05030 0.39200 0.19310 0.02500
N 	N 	0.06690 0.51200 0.25710 -0.17800
H 	H 	0.06110 0.43020 0.27700 0.12500
Cd	Cd	0.89163 0.36594 0.43443 1.21400
C 	C 	0.82500 0.01020 0.53070 0.04000
C 	C 	0.91900 0.76140 0.58440 -0.01800
H 	H 	0.90730 0.66440 0.59830 0.05200
C 	C 	0.90960 0.61610 0.50490 0.30100
C 	C 	0.75830 0.83570 0.63200 -0.04100
H 	H 	0.73360 0.77500 0.63530 0.05100
C 	C 	0.92200 0.77080 0.53650 -0.07700
C 	C 	0.93550 0.91530 0.51360 0.01700
H 	H 	0.93700 0.92030 0.47900 0.03900
C 	C 	0.94710 0.05360 0.54170 -0.06800
N 	N 	0.82610 0.91170 0.48820 -0.20300
H 	H 	0.81660 0.81020 0.48590 0.13000
O 	O 	0.93010 0.59160 0.46470 -0.50100
C 	C 	0.80960 0.96570 0.57850 0.03500
O 	O 	0.88030 0.52280 0.51850 -0.35100
C 	C 	0.94610 0.03960 0.59360 -0.04500
H 	H 	0.95460 0.13180 0.61260 0.06300
C 	C 	0.93300 0.89590 0.61800 0.01600
C 	C 	0.93010 0.88160 0.67440 0.01600
C 	C 	0.84330 0.15480 0.51710 -0.02000
H 	H 	0.84710 0.24570 0.53860 0.03500
C 	C 	0.96230 0.21350 0.51650 0.28700
O 	O 	0.92090 0.92940 0.86040 -0.41200
O 	O 	0.88730 0.69690 0.84580 -0.33700
C 	C 	0.90800 0.82110 0.83190 0.31400
O 	O 	0.95740 0.22620 0.46850 -0.43500
O 	O 	0.97880 0.32850 0.54170 -0.36600
C 	C 	0.91760 0.83690 0.77580 -0.00000
C 	C 	0.91400 0.73500 0.69540 -0.05200
H 	H 	0.90850 0.64340 0.67470 0.05200
C 	C 	0.90640 0.72030 0.74200 -0.03000
H 	H 	0.89240 0.62410 0.75300 0.05200
C 	C 	0.83150 0.01800 0.62050 -0.09500
H 	H 	0.85590 0.08090 0.61710 0.06600
C 	C 	0.81640 0.97490 0.66880 -0.01500
H 	H 	0.83130 0.00780 0.69700 0.03500
C 	C 	0.77920 0.88250 0.67380 -0.00100
C 	C 	0.77280 0.87590 0.58370 -0.06500
H 	H 	0.75770 0.84230 0.55570 0.05400
C 	C 	0.76350 0.83660 0.72490 0.02700
C 	C 	0.73170 0.71710 0.81660 0.01300
C 	C 	0.77510 0.72020 0.80880 -0.04300
H 	H 	0.79360 0.68100 0.83300 0.05300
C 	C 	0.72010 0.83280 0.73490 -0.05700
H 	H 	0.70150 0.86900 0.71040 0.05500
C 	C 	0.78950 0.78490 0.76310 -0.05800
H 	H 	0.81820 0.79340 0.75830 0.06000
C 	C 	0.70440 0.77610 0.78040 -0.04700
H 	H 	0.67580 0.77790 0.78650 0.05800
C 	C 	0.71510 0.64140 0.86140 0.04300
N 	N 	0.67520 0.58890 0.86750 -0.10600
C 	C 	0.73610 0.58680 0.90330 0.00400
H 	H 	0.76420 0.60320 0.91030 0.02900
N 	N 	0.85570 0.15620 0.46900 -0.24000
C 	C 	0.66970 0.51060 0.91130 -0.08000
N 	N 	0.70800 0.50490 0.93230 -0.16900
H 	H 	0.71380 0.45620 0.96020 0.09900
C 	C 	0.84430 0.99890 0.45100 0.10900
H 	H 	0.84860 0.96000 0.41870 -0.00600
C 	C 	0.93920 0.00680 0.70560 -0.01000
H 	H 	0.94970 0.10800 0.69310 0.03900
N 	N 	0.93310 0.98800 0.75710 -0.16100
H 	H 	0.93890 0.06980 0.77700 0.12100
Cd	Cd	0.89163 0.86594 0.93443 1.21600
C 	C 	0.82500 0.51020 0.03070 0.07700
C 	C 	0.91900 0.26140 0.08440 -0.01200
H 	H 	0.90730 0.16440 0.09830 0.04800
C 	C 	0.90960 0.11610 0.00490 0.31600
C 	C 	0.75830 0.33570 0.13200 -0.07800
H 	H 	0.73360 0.27500 0.13530 0.06200
C 	C 	0.92200 0.27080 0.03650 -0.08900
C 	C 	0.93550 0.41530 0.01360 0.03200
H 	H 	0.93700 0.42030 0.97900 0.02600
C 	C 	0.94710 0.55360 0.04170 -0.07100
N 	N 	0.82610 0.41170 0.98820 -0.21500
H 	H 	0.81660 0.31020 0.98590 0.13000
O 	O 	0.93010 0.09160 0.96470 -0.51500
C 	C 	0.80960 0.46570 0.07850 -0.01800
O 	O 	0.88030 0.02280 0.01850 -0.35600
C 	C 	0.94610 0.53960 0.09360 -0.03000
H 	H 	0.95460 0.63180 0.11260 0.06100
C 	C 	0.93300 0.39590 0.11800 0.00700
C 	C 	0.93010 0.38160 0.17440 -0.00500
C 	C 	0.84330 0.65480 0.01710 -0.02800
H 	H 	0.84710 0.74570 0.03860 0.04200
C 	C 	0.96230 0.71350 0.01650 0.29900
O 	O 	0.92090 0.42940 0.36040 -0.41700
O 	O 	0.88730 0.19690 0.34580 -0.34000
C 	C 	0.90800 0.32110 0.33190 0.31200
O 	O 	0.95740 0.72620 0.96850 -0.43800
O 	O 	0.97880 0.82850 0.04170 -0.36100
C 	C 	0.91760 0.33690 0.27580 0.00400
C 	C 	0.91400 0.23500 0.19540 -0.03700
H 	H 	0.90850 0.14340 0.17470 0.04600
C 	C 	0.90640 0.22030 0.24200 -0.04400
H 	H 	0.89240 0.12410 0.25300 0.05500
C 	C 	0.83150 0.51800 0.12050 -0.03200
H 	H 	0.85590 0.58090 0.11710 0.04600
C 	C 	0.81640 0.47490 0.16880 -0.07600
H 	H 	0.83130 0.50780 0.19700 0.06200
C 	C 	0.77920 0.38250 0.17380 0.03400
C 	C 	0.77280 0.37590 0.08370 -0.02600
H 	H 	0.75770 0.34230 0.05570 0.04000
C 	C 	0.76350 0.33660 0.22490 0.00700
C 	C 	0.73170 0.21710 0.31660 0.01800
C 	C 	0.77510 0.22020 0.30880 -0.05400
H 	H 	0.79360 0.18100 0.33300 0.05500
C 	C 	0.72010 0.33280 0.23490 -0.04600
H 	H 	0.70150 0.36900 0.21040 0.04800
C 	C 	0.78950 0.28490 0.26310 -0.04700
H 	H 	0.81820 0.29340 0.25830 0.05400
C 	C 	0.70440 0.27610 0.28040 -0.05700
H 	H 	0.67580 0.27790 0.28650 0.05900
C 	C 	0.71510 0.14140 0.36140 0.03800
N 	N 	0.67520 0.08890 0.36750 -0.10700
C 	C 	0.73610 0.08680 0.40330 0.00700
H 	H 	0.76420 0.10320 0.41030 0.02600
N 	N 	0.85570 0.65620 0.96900 -0.23700
C 	C 	0.66970 0.01060 0.41130 -0.08200
N 	N 	0.70800 0.00490 0.43230 -0.17700
H 	H 	0.71380 0.95620 0.46020 0.10900
C 	C 	0.84430 0.49890 0.95100 0.10000
H 	H 	0.84860 0.46000 0.91870 -0.00600
C 	C 	0.93920 0.50680 0.20560 0.02100
H 	H 	0.94970 0.60800 0.19310 0.03200
N 	N 	0.93310 0.48800 0.25710 -0.17900
H 	H 	0.93890 0.56980 0.27700 0.13400
Cd	Cd	0.60837 0.86594 0.43443 1.21600
C 	C 	0.67500 0.51020 0.53070 0.07400
C 	C 	0.58100 0.26140 0.58440 -0.02400
H 	H 	0.59270 0.16440 0.59830 0.05100
C 	C 	0.59040 0.11610 0.50490 0.30000
C 	C 	0.74170 0.33570 0.63200 -0.07900
H 	H 	0.76640 0.27500 0.63530 0.06200
C 	C 	0.57800 0.27080 0.53650 -0.07600
C 	C 	0.56450 0.41530 0.51360 0.00100
H 	H 	0.56300 0.42030 0.47900 0.03900
C 	C 	0.55290 0.55360 0.54170 -0.06100
N 	N 	0.67390 0.41170 0.48820 -0.21100
H 	H 	0.68340 0.31020 0.48590 0.13200
O 	O 	0.56990 0.09160 0.46470 -0.51100
C 	C 	0.69040 0.46570 0.57850 -0.01800
O 	O 	0.61970 0.02280 0.51850 -0.35600
C 	C 	0.55390 0.53960 0.59360 -0.04000
H 	H 	0.54540 0.63180 0.61260 0.06100
C 	C 	0.56700 0.39590 0.61800 0.01200
C 	C 	0.56990 0.38160 0.67440 -0.01000
C 	C 	0.65670 0.65480 0.51710 -0.03600
H 	H 	0.65290 0.74570 0.53860 0.04300
C 	C 	0.53770 0.71350 0.51650 0.28400
O 	O 	0.57910 0.42940 0.86040 -0.42000
O 	O 	0.61270 0.19690 0.84580 -0.34100
C 	C 	0.59200 0.32110 0.83190 0.31200
O 	O 	0.54260 0.72620 0.46850 -0.43600
O 	O 	0.52120 0.82850 0.54170 -0.37000
C 	C 	0.58240 0.33690 0.77580 0.00200
C 	C 	0.58600 0.23500 0.69540 -0.03700
H 	H 	0.59150 0.14340 0.67470 0.04400
C 	C 	0.59360 0.22030 0.74200 -0.04600
H 	H 	0.60760 0.12410 0.75300 0.05400
C 	C 	0.66850 0.51800 0.62050 -0.03200
H 	H 	0.64410 0.58090 0.61710 0.04600
C 	C 	0.68360 0.47490 0.66880 -0.07500
H 	H 	0.66870 0.50780 0.69700 0.06200
C 	C 	0.72080 0.38250 0.67380 0.03400
C 	C 	0.72720 0.37590 0.58370 -0.02600
H 	H 	0.74230 0.34230 0.55570 0.03800
C 	C 	0.73650 0.33660 0.72490 0.00700
C 	C 	0.76830 0.21710 0.81660 0.01800
C 	C 	0.72490 0.22020 0.80880 -0.05400
H 	H 	0.70640 0.18100 0.83300 0.05400
C 	C 	0.77990 0.33280 0.73490 -0.04600
H 	H 	0.79850 0.36900 0.71040 0.04800
C 	C 	0.71050 0.28490 0.76310 -0.04700
H 	H 	0.68180 0.29340 0.75830 0.05400
C 	C 	0.79560 0.27610 0.78040 -0.05700
H 	H 	0.82420 0.27790 0.78650 0.06000
C 	C 	0.78490 0.14140 0.86140 0.03800
N 	N 	0.82480 0.08890 0.86750 -0.10700
C 	C 	0.76390 0.08680 0.90330 0.00600
H 	H 	0.73580 0.10320 0.91030 0.02500
N 	N 	0.64430 0.65620 0.46900 -0.23200
C 	C 	0.83030 0.01060 0.91130 -0.08400
N 	N 	0.79200 0.00490 0.93230 -0.17600
H 	H 	0.78620 0.95620 0.96020 0.10700
C 	C 	0.65570 0.49890 0.45100 0.10200
H 	H 	0.65140 0.46000 0.41870 -0.00600
C 	C 	0.56080 0.50680 0.70560 0.02000
H 	H 	0.55030 0.60800 0.69310 0.02900
N 	N 	0.56690 0.48800 0.75710 -0.17900
H 	H 	0.56110 0.56980 0.77700 0.13000
Cd	Cd	0.60837 0.36594 0.93443 1.21300
C 	C 	0.67500 0.01020 0.03070 0.04500
C 	C 	0.58100 0.76140 0.08440 -0.00400
H 	H 	0.59270 0.66440 0.09830 0.04600
C 	C 	0.59040 0.61610 0.00490 0.31900
C 	C 	0.74170 0.83570 0.13200 -0.04200
H 	H 	0.76640 0.77500 0.13530 0.05100
C 	C 	0.57800 0.77080 0.03650 -0.09900
C 	C 	0.56450 0.91530 0.01360 0.05000
H 	H 	0.56300 0.92030 0.97900 0.02000
C 	C 	0.55290 0.05360 0.04170 -0.09000
N 	N 	0.67390 0.91170 0.98820 -0.20800
H 	H 	0.68340 0.81020 0.98590 0.12900
O 	O 	0.56990 0.59160 0.96470 -0.51600
C 	C 	0.69040 0.96570 0.07850 0.03300
O 	O 	0.61970 0.52280 0.01850 -0.35200
C 	C 	0.55390 0.03960 0.09360 -0.03200
H 	H 	0.54540 0.13180 0.11260 0.05500
C 	C 	0.56700 0.89590 0.11800 0.00200
C 	C 	0.56990 0.88160 0.17440 0.02100
C 	C 	0.65670 0.15480 0.01710 -0.01100
H 	H 	0.65290 0.24570 0.03860 0.03300
C 	C 	0.53770 0.21350 0.01650 0.30300
O 	O 	0.57910 0.92940 0.36040 -0.41600
O 	O 	0.61270 0.69690 0.34580 -0.33900
C 	C 	0.59200 0.82110 0.33190 0.31500
O 	O 	0.54260 0.22620 0.96850 -0.45100
O 	O 	0.52120 0.32850 0.04170 -0.37800
C 	C 	0.58240 0.83690 0.27580 -0.00500
C 	C 	0.58600 0.73500 0.19540 -0.06000
H 	H 	0.59150 0.64340 0.17470 0.05400
C 	C 	0.59360 0.72030 0.24200 -0.02600
H 	H 	0.60760 0.62410 0.25300 0.04900
C 	C 	0.66850 0.01800 0.12050 -0.09300
H 	H 	0.64410 0.08090 0.11710 0.06500
C 	C 	0.68360 0.97490 0.16880 -0.01600
H 	H 	0.66870 0.00780 0.19700 0.03600
C 	C 	0.72080 0.88250 0.17380 0.00100
C 	C 	0.72720 0.87590 0.08370 -0.06300
H 	H 	0.74230 0.84230 0.05570 0.05500
C 	C 	0.73650 0.83660 0.22490 0.02600
C 	C 	0.76830 0.71710 0.31660 0.01400
C 	C 	0.72490 0.72020 0.30880 -0.04400
H 	H 	0.70640 0.68100 0.33300 0.05300
C 	C 	0.77990 0.83280 0.23490 -0.05700
H 	H 	0.79850 0.86900 0.21040 0.05400
C 	C 	0.71050 0.78490 0.26310 -0.05800
H 	H 	0.68180 0.79340 0.25830 0.06000
C 	C 	0.79560 0.77610 0.28040 -0.04700
H 	H 	0.82420 0.77790 0.28650 0.05800
C 	C 	0.78490 0.64140 0.36140 0.04200
N 	N 	0.82480 0.58890 0.36750 -0.10600
C 	C 	0.76390 0.58680 0.40330 0.00500
H 	H 	0.73580 0.60320 0.41030 0.02900
N 	N 	0.64430 0.15620 0.96900 -0.24500
C 	C 	0.83030 0.51060 0.41130 -0.07800
N 	N 	0.79200 0.50490 0.43230 -0.17000
H 	H 	0.78620 0.45620 0.46020 0.10200
C 	C 	0.65570 0.99890 0.95100 0.10800
H 	H 	0.65140 0.96000 0.91870 -0.00600
C 	C 	0.56080 0.00680 0.20560 -0.01600
H 	H 	0.55030 0.10800 0.19310 0.03800
N 	N 	0.56690 0.98800 0.25710 -0.15900
H 	H 	0.56110 0.06980 0.27700 0.11700
Cd	Cd	0.39163 0.13406 0.43443 1.21000
C 	C 	0.32500 0.48980 0.53070 0.07400
C 	C 	0.41900 0.73860 0.58440 -0.02600
H 	H 	0.40730 0.83560 0.59830 0.05600
C 	C 	0.40960 0.88390 0.50490 0.29800
C 	C 	0.25830 0.66430 0.63200 -0.07800
H 	H 	0.23360 0.72500 0.63530 0.06600
C 	C 	0.42200 0.72920 0.53650 -0.07200
C 	C 	0.43550 0.58470 0.51360 -0.00000
H 	H 	0.43700 0.57970 0.47900 0.04000
C 	C 	0.44710 0.44640 0.54170 -0.06100
N 	N 	0.32610 0.58830 0.48820 -0.21200
H 	H 	0.31660 0.68980 0.48590 0.13400
O 	O 	0.43010 0.90840 0.46470 -0.49900
C 	C 	0.30960 0.53430 0.57850 -0.01800
O 	O 	0.38030 0.97720 0.51850 -0.34200
C 	C 	0.44610 0.46040 0.59360 -0.04100
H 	H 	0.45460 0.36820 0.61260 0.05900
C 	C 	0.43300 0.60410 0.61800 0.01300
C 	C 	0.43010 0.61840 0.67440 -0.01000
C 	C 	0.34330 0.34520 0.51710 -0.03500
H 	H 	0.34710 0.25430 0.53860 0.03800
C 	C 	0.46230 0.28650 0.51650 0.28500
O 	O 	0.42090 0.57060 0.86040 -0.42000
O 	O 	0.38730 0.80310 0.84580 -0.33500
C 	C 	0.40800 0.67890 0.83190 0.31100
O 	O 	0.45740 0.27380 0.46850 -0.44100
O 	O 	0.47880 0.17150 0.54170 -0.38000
C 	C 	0.41760 0.66310 0.77580 0.00400
C 	C 	0.41400 0.76500 0.69540 -0.03400
H 	H 	0.40850 0.85660 0.67470 0.04800
C 	C 	0.40640 0.77970 0.74200 -0.04600
H 	H 	0.39240 0.87590 0.75300 0.06000
C 	C 	0.33150 0.48200 0.62050 -0.03200
H 	H 	0.35590 0.41910 0.61710 0.04400
C 	C 	0.31640 0.52510 0.66880 -0.07700
H 	H 	0.33130 0.49220 0.69700 0.06100
C 	C 	0.27920 0.61750 0.67380 0.03600
C 	C 	0.27280 0.62410 0.58370 -0.02400
H 	H 	0.25770 0.65770 0.55570 0.04000
C 	C 	0.26350 0.66340 0.72490 0.00800
C 	C 	0.23170 0.78290 0.81660 0.02000
C 	C 	0.27510 0.77980 0.80880 -0.05200
H 	H 	0.29360 0.81900 0.83300 0.05800
C 	C 	0.22010 0.66720 0.73490 -0.04400
H 	H 	0.20150 0.63100 0.71040 0.04800
C 	C 	0.28950 0.71510 0.76310 -0.04400
H 	H 	0.31820 0.70660 0.75830 0.05400
C 	C 	0.20440 0.72390 0.78040 -0.05600
H 	H 	0.17580 0.72210 0.78650 0.06000
C 	C 	0.21510 0.85860 0.86140 0.04200
N 	N 	0.17520 0.91110 0.86750 -0.10500
C 	C 	0.23610 0.91320 0.90330 0.00400
H 	H 	0.26420 0.89680 0.91030 0.03300
N 	N 	0.35570 0.34380 0.46900 -0.23500
C 	C 	0.16970 0.98940 0.91130 -0.07200
N 	N 	0.20800 0.99510 0.93230 -0.15500
H 	H 	0.21380 0.04380 0.96020 0.08300
C 	C 	0.34430 0.50110 0.45100 0.10200
H 	H 	0.34860 0.54000 0.41870 -0.00700
C 	C 	0.43920 0.49320 0.70560 0.02000
H 	H 	0.44970 0.39200 0.69310 0.02600
N 	N 	0.43310 0.51200 0.75710 -0.17900
H 	H 	0.43890 0.43020 0.77700 0.12800
Cd	Cd	0.39163 0.63406 0.93443 1.21300
C 	C 	0.32500 0.98980 0.03070 0.14500
C 	C 	0.41900 0.23860 0.08440 -0.02000
H 	H 	0.40730 0.33560 0.09830 0.05200
C 	C 	0.40960 0.38390 0.00490 0.31300
C 	C 	0.25830 0.16430 0.13200 -0.15200
H 	H 	0.23360 0.22500 0.13530 0.08700
C 	C 	0.42200 0.22920 0.03650 -0.08400
C 	C 	0.43550 0.08470 0.01360 0.01200
H 	H 	0.43700 0.07970 0.97900 0.02600
C 	C 	0.44710 0.94640 0.04170 -0.06100
N 	N 	0.32610 0.08830 0.98820 -0.23100
H 	H 	0.31660 0.18980 0.98590 0.13400
O 	O 	0.43010 0.40840 0.96470 -0.51600
C 	C 	0.30960 0.03430 0.07850 -0.12300
O 	O 	0.38030 0.47720 0.01850 -0.35100
C 	C 	0.44610 0.96040 0.09360 -0.02300
H 	H 	0.45460 0.86820 0.11260 0.05700
C 	C 	0.43300 0.10410 0.11800 0.00400
C 	C 	0.43010 0.11840 0.17440 -0.03900
C 	C 	0.34330 0.84520 0.01710 -0.05900
H 	H 	0.34710 0.75430 0.03860 0.05300
C 	C 	0.46230 0.78650 0.01650 0.29700
O 	O 	0.42090 0.07060 0.36040 -0.42700
O 	O 	0.38730 0.30310 0.34580 -0.33900
C 	C 	0.40800 0.17890 0.33190 0.30700
O 	O 	0.45740 0.77380 0.96850 -0.44400
O 	O 	0.47880 0.67150 0.04170 -0.37500
C 	C 	0.41760 0.16310 0.27580 0.01000
C 	C 	0.41400 0.26500 0.19540 -0.01500
H 	H 	0.40850 0.35660 0.17470 0.03900
C 	C 	0.40640 0.27970 0.24200 -0.06500
H 	H 	0.39240 0.37590 0.25300 0.06300
C 	C 	0.33150 0.98200 0.12050 0.09300
H 	H 	0.35590 0.91910 0.11710 0.00400
C 	C 	0.31640 0.02510 0.16880 -0.19700
H 	H 	0.33130 0.99220 0.19700 0.11400
C 	C 	0.27920 0.11750 0.17380 0.10400
C 	C 	0.27280 0.12410 0.08370 0.05300
H 	H 	0.25770 0.15770 0.05570 0.01100
C 	C 	0.26350 0.16340 0.22490 -0.03200
C 	C 	0.23170 0.28290 0.31660 0.03100
C 	C 	0.27510 0.27980 0.30880 -0.07300
H 	H 	0.29360 0.31900 0.33300 0.06100
C 	C 	0.22010 0.16720 0.23490 -0.02200
H 	H 	0.20150 0.13100 0.21040 0.03600
C 	C 	0.28950 0.21510 0.26310 -0.02100
H 	H 	0.31820 0.20660 0.25830 0.04200
C 	C 	0.20440 0.22390 0.28040 -0.07600
H 	H 	0.17580 0.22210 0.28650 0.06300
C 	C 	0.21510 0.35860 0.36140 0.03300
N 	N 	0.17520 0.41110 0.36750 -0.10600
C 	C 	0.23610 0.41320 0.40330 0.00900
H 	H 	0.26420 0.39680 0.41030 0.02600
N 	N 	0.35570 0.84380 0.96900 -0.22500
C 	C 	0.16970 0.48940 0.41130 -0.07800
N 	N 	0.20800 0.49510 0.43230 -0.17100
H 	H 	0.21380 0.54380 0.46020 0.10200
C 	C 	0.34430 0.00110 0.95100 0.08500
H 	H 	0.34860 0.04000 0.91870 -0.00600
C 	C 	0.43920 0.99320 0.20560 0.06100
H 	H 	0.44970 0.89200 0.19310 0.01600
N 	N 	0.43310 0.01200 0.25710 -0.20400
H 	H 	0.43890 0.93020 0.27700 0.14500
Cd	Cd	-0.00000 0.50000 0.47714 1.20500
Cd	Cd	-0.00000 0.00000 0.97714 1.19800
Cd	Cd	0.50000 0.00000 0.47714 1.20700
Cd	Cd	0.50000 0.50000 0.97714 1.21000
