data_crystal

_cell_length_a 24.70400
_cell_length_b 5.70980
_cell_length_c 26.33500
_cell_angle_alpha 90.00000
_cell_angle_beta  114.87000
_cell_angle_gamma 90.00000

_symmetry_space_group_name_	'P 1'
_symmetry_space_group_name_H-M	'P 1'

loop_
_symmetry_equiv_pos_as_xyz
  x,y,z

loop_
_atom_site_label
_atom_site_type_symbol
_atom_site_fract_x
_atom_site_fract_y
_atom_site_fract_z
_atom_site_charge
Zn	Zn	0.25723 0.22360 0.53989 1.21800
S 	S 	0.10070 0.01940 0.72125 0.25700
S 	S 	0.50656 0.46390 0.39274 0.28200
O 	O 	0.24170 0.83790 0.55103 -0.49900
O 	O 	0.22030 0.47960 0.57097 -0.46500
O 	O 	0.83810 0.50630 0.57490 -0.37900
O 	O 	0.81689 0.85980 0.53735 -0.48500
O 	O 	0.12380 0.88260 0.77158 -0.21400
O 	O 	0.10370 0.27150 0.72470 -0.21700
O 	O 	0.30545 0.45590 0.50219 -0.46300
O 	O 	0.51896 0.71170 0.39648 -0.22800
O 	O 	0.55487 0.29790 0.41797 -0.27400
O 	O 	0.33230 0.35180 0.11687 -0.45700
O 	O 	0.36150 0.98280 0.13997 -0.36700
O 	O 	0.31928 0.07330 0.50006 -0.45100
C 	C 	0.22080 0.69700 0.57500 0.42800
C 	C 	0.19310 0.78930 0.61270 -0.16300
C 	C 	0.16380 0.00540 0.60340 0.07500
H 	H 	0.16380 0.10350 0.57520 -0.00400
C 	C 	0.13560 0.07230 0.63540 -0.11900
H 	H 	0.11520 0.21400 0.62830 0.08300
C 	C 	0.13710 0.92970 0.67880 0.03700
C 	C 	0.16700 0.71700 0.68910 -0.12500
H 	H 	0.16870 0.62220 0.71840 0.10000
C 	C 	0.19380 0.64920 0.65600 0.07800
H 	H 	0.21320 0.50530 0.66250 0.01800
C 	C 	0.02510 0.93880 0.68140 0.02000
C 	C 	0.98910 0.08460 0.63870 -0.09100
H 	H 	0.00340 0.22790 0.63280 0.07300
C 	C 	0.93210 0.01510 0.60520 0.03200
H 	H 	0.90760 0.11290 0.57650 0.03000
C 	C 	0.91060 0.80410 0.61330 -0.11100
C 	C 	0.94650 0.65830 0.65660 0.03600
H 	H 	0.93170 0.51600 0.66240 0.04500
C 	C 	0.00440 0.72490 0.69120 -0.08900
H 	H 	0.02890 0.62840 0.72020 0.09000
C 	C 	0.84920 0.71420 0.57130 0.40000
C 	C 	0.33010 0.28030 0.49050 0.34900
C 	C 	0.37330 0.32510 0.46600 -0.11700
C 	C 	0.37380 0.53890 0.44080 0.04300
H 	H 	0.34640 0.65410 0.43870 0.01100
C 	C 	0.41440 0.58080 0.41920 -0.09100
H 	H 	0.41450 0.72430 0.40260 0.07000
C 	C 	0.45560 0.40830 0.42200 0.01300
C 	C 	0.45600 0.19620 0.44600 -0.08800
H 	H 	0.48390 0.08240 0.44860 0.08200
C 	C 	0.41270 0.15410 0.46700 0.03700
H 	H 	0.41090 0.00770 0.48170 0.03400
C 	C 	0.46670 0.38850 0.32210 -0.00400
C 	C 	0.42590 0.54810 0.28580 -0.07300
H 	H 	0.42070 0.69390 0.29880 0.06500
C 	C 	0.39340 0.48830 0.23030 0.01800
H 	H 	0.36660 0.59510 0.20590 0.04000
C 	C 	0.40040 0.27020 0.21060 -0.10500
C 	C 	0.44260 0.11560 0.24720 0.02800
H 	H 	0.44830 0.97140 0.23380 0.03600
C 	C 	0.47610 0.17060 0.30280 -0.08100
H 	H 	0.50400 0.06580 0.32670 0.07900
C 	C 	0.36200 0.19300 0.15080 0.38400
Na	Na	0.65016 0.21630 0.42502 0.59000
Na	Na	0.22920 0.77910 0.45251 0.58200
Zn	Zn	0.74277 0.72360 0.96011 1.21700
S 	S 	0.89930 0.51940 0.77875 0.25700
S 	S 	0.49344 0.96390 0.10726 0.28000
O 	O 	0.75830 0.33790 0.94897 -0.49600
O 	O 	0.77970 0.97960 0.92903 -0.46000
O 	O 	0.16190 0.00630 0.92510 -0.37800
O 	O 	0.18311 0.35980 0.96265 -0.48700
O 	O 	0.87620 0.38260 0.72842 -0.21500
O 	O 	0.89630 0.77150 0.77530 -0.21500
O 	O 	0.69455 0.95590 0.99781 -0.46000
O 	O 	0.48104 0.21170 0.10352 -0.22700
O 	O 	0.44513 0.79790 0.08203 -0.27400
O 	O 	0.66770 0.85180 0.38313 -0.45500
O 	O 	0.63850 0.48280 0.36003 -0.36200
O 	O 	0.68072 0.57330 0.99994 -0.45300
C 	C 	0.77920 0.19700 0.92500 0.42100
C 	C 	0.80690 0.28930 0.88730 -0.15800
C 	C 	0.83620 0.50540 0.89660 0.06900
H 	H 	0.83620 0.60350 0.92480 -0.00200
C 	C 	0.86440 0.57230 0.86460 -0.11600
H 	H 	0.88480 0.71400 0.87170 0.08300
C 	C 	0.86290 0.42970 0.82120 0.03500
C 	C 	0.83300 0.21700 0.81090 -0.12300
H 	H 	0.83130 0.12220 0.78160 0.09800
C 	C 	0.80620 0.14920 0.84400 0.07500
H 	H 	0.78680 0.00530 0.83750 0.01700
C 	C 	0.97490 0.43880 0.81860 0.01900
C 	C 	0.01090 0.58460 0.86130 -0.09200
H 	H 	0.99660 0.72790 0.86720 0.07400
C 	C 	0.06790 0.51510 0.89480 0.03900
H 	H 	0.09240 0.61290 0.92350 0.02800
C 	C 	0.08940 0.30410 0.88670 -0.11600
C 	C 	0.05350 0.15830 0.84340 0.03800
H 	H 	0.06830 0.01600 0.83760 0.04400
C 	C 	0.99560 0.22490 0.80880 -0.09000
H 	H 	0.97110 0.12840 0.77980 0.08900
C 	C 	0.15080 0.21420 0.92870 0.40100
C 	C 	0.66990 0.78030 0.00950 0.34800
C 	C 	0.62670 0.82510 0.03400 -0.11400
C 	C 	0.62620 0.03890 0.05920 0.03800
H 	H 	0.65360 0.15410 0.06130 0.01200
C 	C 	0.58560 0.08080 0.08080 -0.08900
H 	H 	0.58550 0.22430 0.09740 0.07000
C 	C 	0.54440 0.90830 0.07800 0.01300
C 	C 	0.54400 0.69620 0.05400 -0.08700
H 	H 	0.51610 0.58240 0.05140 0.08200
C 	C 	0.58730 0.65410 0.03300 0.03500
H 	H 	0.58910 0.50770 0.01830 0.03400
C 	C 	0.53330 0.88850 0.17790 -0.00600
C 	C 	0.57410 0.04810 0.21420 -0.07100
H 	H 	0.57930 0.19390 0.20120 0.06500
C 	C 	0.60660 0.98830 0.26970 0.01600
H 	H 	0.63340 0.09510 0.29410 0.04000
C 	C 	0.59960 0.77020 0.28940 -0.10100
C 	C 	0.55740 0.61560 0.25280 0.01900
H 	H 	0.55170 0.47140 0.26620 0.04000
C 	C 	0.52390 0.67060 0.19720 -0.07700
H 	H 	0.49600 0.56580 0.17330 0.07700
C 	C 	0.63800 0.69300 0.34920 0.37700
Na	Na	0.34984 0.71630 0.07498 0.59000
Na	Na	0.77080 0.27910 0.04749 0.58200
Zn	Zn	0.74277 0.77640 0.46011 1.21700
S 	S 	0.89930 0.98060 0.27875 0.25600
S 	S 	0.49344 0.53610 0.60726 0.28200
O 	O 	0.75830 0.16210 0.44897 -0.49900
O 	O 	0.77970 0.52040 0.42903 -0.46500
O 	O 	0.16190 0.49370 0.42510 -0.37900
O 	O 	0.18311 0.14020 0.46265 -0.48500
O 	O 	0.87620 0.11740 0.22842 -0.21400
O 	O 	0.89630 0.72850 0.27530 -0.21700
O 	O 	0.69455 0.54410 0.49781 -0.46300
O 	O 	0.48104 0.28830 0.60352 -0.22800
O 	O 	0.44513 0.70210 0.58203 -0.27400
O 	O 	0.66770 0.64820 0.88313 -0.45700
O 	O 	0.63850 0.01720 0.86003 -0.36700
O 	O 	0.68072 0.92670 0.49994 -0.45100
C 	C 	0.77920 0.30300 0.42500 0.42800
C 	C 	0.80690 0.21070 0.38730 -0.16300
C 	C 	0.83620 0.99460 0.39660 0.07500
H 	H 	0.83620 0.89650 0.42480 -0.00400
C 	C 	0.86440 0.92770 0.36460 -0.11900
H 	H 	0.88480 0.78600 0.37170 0.08300
C 	C 	0.86290 0.07030 0.32120 0.03700
C 	C 	0.83300 0.28300 0.31090 -0.12500
H 	H 	0.83130 0.37780 0.28160 0.10000
C 	C 	0.80620 0.35080 0.34400 0.07800
H 	H 	0.78680 0.49470 0.33750 0.01800
C 	C 	0.97490 0.06120 0.31860 0.02000
C 	C 	0.01090 0.91540 0.36130 -0.09100
H 	H 	0.99660 0.77210 0.36720 0.07300
C 	C 	0.06790 0.98490 0.39480 0.03200
H 	H 	0.09240 0.88710 0.42350 0.03000
C 	C 	0.08940 0.19590 0.38670 -0.11100
C 	C 	0.05350 0.34170 0.34340 0.03600
H 	H 	0.06830 0.48400 0.33760 0.04500
C 	C 	0.99560 0.27510 0.30880 -0.08900
H 	H 	0.97110 0.37160 0.27980 0.09000
C 	C 	0.15080 0.28580 0.42870 0.40000
C 	C 	0.66990 0.71970 0.50950 0.34900
C 	C 	0.62670 0.67490 0.53400 -0.11700
C 	C 	0.62620 0.46110 0.55920 0.04300
H 	H 	0.65360 0.34590 0.56130 0.01100
C 	C 	0.58560 0.41920 0.58080 -0.09100
H 	H 	0.58550 0.27570 0.59740 0.07000
C 	C 	0.54440 0.59170 0.57800 0.01300
C 	C 	0.54400 0.80380 0.55400 -0.08800
H 	H 	0.51610 0.91760 0.55140 0.08200
C 	C 	0.58730 0.84590 0.53300 0.03700
H 	H 	0.58910 0.99230 0.51830 0.03400
C 	C 	0.53330 0.61150 0.67790 -0.00400
C 	C 	0.57410 0.45190 0.71420 -0.07300
H 	H 	0.57930 0.30610 0.70120 0.06500
C 	C 	0.60660 0.51170 0.76970 0.01800
H 	H 	0.63340 0.40490 0.79410 0.04000
C 	C 	0.59960 0.72980 0.78940 -0.10500
C 	C 	0.55740 0.88440 0.75280 0.02800
H 	H 	0.55170 0.02860 0.76620 0.03600
C 	C 	0.52390 0.82940 0.69720 -0.08100
H 	H 	0.49600 0.93420 0.67330 0.07900
C 	C 	0.63800 0.80700 0.84920 0.38400
Na	Na	0.34984 0.78370 0.57498 0.59000
Na	Na	0.77080 0.22090 0.54749 0.58200
Zn	Zn	0.25723 0.27640 0.03989 1.21700
S 	S 	0.10070 0.48060 0.22125 0.25700
S 	S 	0.50656 0.03610 0.89274 0.28000
O 	O 	0.24170 0.66210 0.05103 -0.49600
O 	O 	0.22030 0.02040 0.07097 -0.46000
O 	O 	0.83810 0.99370 0.07490 -0.37800
O 	O 	0.81689 0.64020 0.03735 -0.48700
O 	O 	0.12380 0.61740 0.27158 -0.21500
O 	O 	0.10370 0.22850 0.22470 -0.21500
O 	O 	0.30545 0.04410 0.00219 -0.46000
O 	O 	0.51896 0.78830 0.89648 -0.22700
O 	O 	0.55487 0.20210 0.91797 -0.27400
O 	O 	0.33230 0.14820 0.61687 -0.45500
O 	O 	0.36150 0.51720 0.63997 -0.36200
O 	O 	0.31928 0.42670 0.00006 -0.45300
C 	C 	0.22080 0.80300 0.07500 0.42100
C 	C 	0.19310 0.71070 0.11270 -0.15800
C 	C 	0.16380 0.49460 0.10340 0.06900
H 	H 	0.16380 0.39650 0.07520 -0.00200
C 	C 	0.13560 0.42770 0.13540 -0.11600
H 	H 	0.11520 0.28600 0.12830 0.08300
C 	C 	0.13710 0.57030 0.17880 0.03500
C 	C 	0.16700 0.78300 0.18910 -0.12300
H 	H 	0.16870 0.87780 0.21840 0.09800
C 	C 	0.19380 0.85080 0.15600 0.07500
H 	H 	0.21320 0.99470 0.16250 0.01700
C 	C 	0.02510 0.56120 0.18140 0.01900
C 	C 	0.98910 0.41540 0.13870 -0.09200
H 	H 	0.00340 0.27210 0.13280 0.07400
C 	C 	0.93210 0.48490 0.10520 0.03900
H 	H 	0.90760 0.38710 0.07650 0.02800
C 	C 	0.91060 0.69590 0.11330 -0.11600
C 	C 	0.94650 0.84170 0.15660 0.03800
H 	H 	0.93170 0.98400 0.16240 0.04400
C 	C 	0.00440 0.77510 0.19120 -0.09000
H 	H 	0.02890 0.87160 0.22020 0.08900
C 	C 	0.84920 0.78580 0.07130 0.40100
C 	C 	0.33010 0.21970 0.99050 0.34800
C 	C 	0.37330 0.17490 0.96600 -0.11400
C 	C 	0.37380 0.96110 0.94080 0.03800
H 	H 	0.34640 0.84590 0.93870 0.01200
C 	C 	0.41440 0.91920 0.91920 -0.08900
H 	H 	0.41450 0.77570 0.90260 0.07000
C 	C 	0.45560 0.09170 0.92200 0.01300
C 	C 	0.45600 0.30380 0.94600 -0.08700
H 	H 	0.48390 0.41760 0.94860 0.08200
C 	C 	0.41270 0.34590 0.96700 0.03500
H 	H 	0.41090 0.49230 0.98170 0.03400
C 	C 	0.46670 0.11150 0.82210 -0.00600
C 	C 	0.42590 0.95190 0.78580 -0.07100
H 	H 	0.42070 0.80610 0.79880 0.06500
C 	C 	0.39340 0.01170 0.73030 0.01600
H 	H 	0.36660 0.90490 0.70590 0.04000
C 	C 	0.40040 0.22980 0.71060 -0.10100
C 	C 	0.44260 0.38440 0.74720 0.01900
H 	H 	0.44830 0.52860 0.73380 0.04000
C 	C 	0.47610 0.32940 0.80280 -0.07700
H 	H 	0.50400 0.43420 0.82670 0.07700
C 	C 	0.36200 0.30700 0.65080 0.37700
Na	Na	0.65016 0.28370 0.92502 0.59000
Na	Na	0.22920 0.72090 0.95251 0.58200
