data_crystal

_cell_length_a 33.43170
_cell_length_b 7.15200
_cell_length_c 16.71810
_cell_angle_alpha 90.00000
_cell_angle_beta  90.00000
_cell_angle_gamma 90.00000

_symmetry_space_group_name_	'P 1'
_symmetry_space_group_name_H-M	'P 1'

loop_
_symmetry_equiv_pos_as_xyz
  x,y,z

loop_
_atom_site_label
_atom_site_type_symbol
_atom_site_fract_x
_atom_site_fract_y
_atom_site_fract_z
_atom_site_charge
O 	O 	0.78961 0.16270 0.90840 -0.46500
C 	C 	0.87961 0.15780 0.73920 -0.01800
C 	C 	0.84999 0.15630 0.80056 0.09000
O 	O 	0.28961 0.66270 0.90840 -0.46700
C 	C 	0.37961 0.65780 0.73920 -0.01900
C 	C 	0.34999 0.65630 0.80056 0.08800
O 	O 	0.21039 0.83730 0.90840 -0.47100
C 	C 	0.12039 0.84220 0.73920 -0.02200
C 	C 	0.15001 0.84370 0.80056 0.08500
O 	O 	0.71039 0.33730 0.90840 -0.46500
C 	C 	0.62039 0.34220 0.73920 -0.01500
C 	C 	0.65001 0.34370 0.80056 0.09100
O 	O 	0.21039 0.16270 0.09160 -0.55200
C 	C 	0.12039 0.15780 0.26080 -0.03200
C 	C 	0.15001 0.15630 0.19944 0.05800
O 	O 	0.71039 0.66270 0.09160 -0.55200
C 	C 	0.62039 0.65780 0.26080 -0.03400
C 	C 	0.65001 0.65630 0.19944 0.05600
O 	O 	0.78961 0.83730 0.09160 -0.55900
C 	C 	0.87961 0.84220 0.26080 -0.03800
C 	C 	0.84999 0.84370 0.19944 0.05200
O 	O 	0.28961 0.33730 0.09160 -0.54900
C 	C 	0.37961 0.34220 0.26080 -0.02900
C 	C 	0.34999 0.34370 0.19944 0.06000
O 	O 	0.21039 0.83730 0.09160 -0.55900
C 	C 	0.12039 0.84220 0.26080 -0.03800
C 	C 	0.15001 0.84370 0.19944 0.05200
O 	O 	0.71039 0.33730 0.09160 -0.54900
C 	C 	0.62039 0.34220 0.26080 -0.02900
C 	C 	0.65001 0.34370 0.19944 0.06000
O 	O 	0.78961 0.16270 0.09160 -0.55200
C 	C 	0.87961 0.15780 0.26080 -0.03200
C 	C 	0.84999 0.15630 0.19944 0.05800
O 	O 	0.28961 0.66270 0.09160 -0.55200
C 	C 	0.37961 0.65780 0.26080 -0.03400
C 	C 	0.34999 0.65630 0.19944 0.05600
O 	O 	0.78961 0.83730 0.90840 -0.47100
C 	C 	0.87961 0.84220 0.73920 -0.02200
C 	C 	0.84999 0.84370 0.80056 0.08500
O 	O 	0.28961 0.33730 0.90840 -0.46500
C 	C 	0.37961 0.34220 0.73920 -0.01500
C 	C 	0.34999 0.34370 0.80056 0.09100
O 	O 	0.21039 0.16270 0.90840 -0.46600
C 	C 	0.12039 0.15780 0.73920 -0.01800
C 	C 	0.15001 0.15630 0.80056 0.09000
O 	O 	0.71039 0.66270 0.90840 -0.46700
C 	C 	0.62039 0.65780 0.73920 -0.01900
C 	C 	0.65001 0.65630 0.80056 0.08800
C 	C 	0.80160 0.00000 0.89770 0.45600
C 	C 	0.96665 -0.00000 0.67280 0.07500
C 	C 	0.97974 0.00000 0.75230 0.00600
C 	C 	0.91234 0.00000 0.56790 0.07300
C 	C 	0.87367 0.00000 0.54067 -0.00600
C 	C 	0.92929 0.00000 0.64210 -0.03700
C 	C 	0.89674 0.00000 0.70400 0.03600
C 	C 	0.83332 0.00000 0.83560 -0.11600
C 	C 	0.30160 0.50000 0.89770 0.45100
C 	C 	0.46665 0.50000 0.67280 0.07500
C 	C 	0.47974 0.50000 0.75230 0.00900
C 	C 	0.41234 0.50000 0.56790 0.07200
C 	C 	0.37367 0.50000 0.54067 -0.00700
C 	C 	0.42929 0.50000 0.64210 -0.03600
C 	C 	0.39674 0.50000 0.70400 0.03100
C 	C 	0.33332 0.50000 0.83560 -0.12000
C 	C 	0.19840 0.00000 0.89770 0.45600
C 	C 	0.03335 -0.00000 0.67280 0.07500
C 	C 	0.02026 0.00000 0.75230 0.01100
C 	C 	0.08766 0.00000 0.56790 0.07300
C 	C 	0.12633 0.00000 0.54067 -0.00600
C 	C 	0.07071 0.00000 0.64210 -0.03600
C 	C 	0.10326 0.00000 0.70400 0.03500
C 	C 	0.16668 0.00000 0.83560 -0.11600
C 	C 	0.69840 0.50000 0.89770 0.45100
C 	C 	0.53335 0.50000 0.67280 0.07500
C 	C 	0.52026 0.50000 0.75230 0.00900
C 	C 	0.58766 0.50000 0.56790 0.07200
C 	C 	0.62633 0.50000 0.54067 -0.00700
C 	C 	0.57071 0.50000 0.64210 -0.03600
C 	C 	0.60326 0.50000 0.70400 0.03100
C 	C 	0.66668 0.50000 0.83560 -0.12000
C 	C 	0.19840 0.00000 0.10230 0.43200
C 	C 	0.03335 0.00000 0.32720 0.08100
C 	C 	0.02026 0.00000 0.24770 -0.02800
C 	C 	0.08766 0.00000 0.43210 0.07600
C 	C 	0.12633 0.00000 0.45933 -0.00800
C 	C 	0.07071 0.00000 0.35790 -0.04700
C 	C 	0.10326 0.00000 0.29600 0.03600
C 	C 	0.16668 0.00000 0.16440 -0.12600
C 	C 	0.69840 0.50000 0.10230 0.42200
C 	C 	0.53335 0.50000 0.32720 0.08000
C 	C 	0.52026 0.50000 0.24770 -0.03200
C 	C 	0.58766 0.50000 0.43210 0.07500
C 	C 	0.62633 0.50000 0.45933 -0.00900
C 	C 	0.57071 0.50000 0.35790 -0.04600
C 	C 	0.60326 0.50000 0.29600 0.02900
C 	C 	0.66668 0.50000 0.16440 -0.13100
C 	C 	0.80160 0.00000 0.10230 0.43200
C 	C 	0.96665 0.00000 0.32720 0.08000
C 	C 	0.97974 0.00000 0.24770 -0.03300
C 	C 	0.91234 0.00000 0.43210 0.07600
C 	C 	0.87367 0.00000 0.45933 -0.00800
C 	C 	0.92929 0.00000 0.35790 -0.04800
C 	C 	0.89674 0.00000 0.29600 0.03600
C 	C 	0.83332 0.00000 0.16440 -0.12600
C 	C 	0.30160 0.50000 0.10230 0.42200
C 	C 	0.46665 0.50000 0.32720 0.08000
C 	C 	0.47974 0.50000 0.24770 -0.03200
C 	C 	0.41234 0.50000 0.43210 0.07500
C 	C 	0.37367 0.50000 0.45933 -0.00900
C 	C 	0.42929 0.50000 0.35790 -0.04600
C 	C 	0.39674 0.50000 0.29600 0.02900
C 	C 	0.33332 0.50000 0.16440 -0.13100
N 	N 	0.93900 0.00000 0.50000 -0.09700
N 	N 	0.43900 0.50000 0.50000 -0.09700
N 	N 	0.06100 0.00000 0.50000 -0.09600
N 	N 	0.56100 0.50000 0.50000 -0.09700
N 	N 	0.00000 0.00000 0.62120 -0.09700
N 	N 	0.50000 0.50000 0.62120 -0.09800
N 	N 	0.00000 0.00000 0.37880 -0.10100
N 	N 	0.50000 0.50000 0.37880 -0.10200
In	In	0.75000 0.25000 -0.00000 2.02200
In	In	0.25000 0.75000 -0.00000 2.02100
In	In	0.25000 0.25000 -0.00000 2.02200
In	In	0.75000 0.75000 -0.00000 2.02100
O 	O 	0.73080 0.00000 -0.00000 -0.85100
O 	O 	0.23080 0.50000 -0.00000 -0.85700
O 	O 	0.26920 0.00000 -0.00000 -0.85100
O 	O 	0.76920 0.50000 -0.00000 -0.85700
