data_crystal

_cell_length_a 10.05460
_cell_length_b 17.74120
_cell_length_c 19.81160
_cell_angle_alpha 90.00000
_cell_angle_beta  90.00000
_cell_angle_gamma 90.00000

_symmetry_space_group_name_	'P 1'
_symmetry_space_group_name_H-M	'P 1'

loop_
_symmetry_equiv_pos_as_xyz
  x,y,z

loop_
_atom_site_label
_atom_site_type_symbol
_atom_site_fract_x
_atom_site_fract_y
_atom_site_fract_z
_atom_site_charge
Eu	Eu	0.53159 0.75000 0.75000 1.94200
Eu	Eu	0.96841 0.25000 0.25000 1.93700
Eu	Eu	0.46841 0.25000 0.25000 1.94200
Eu	Eu	0.03159 0.75000 0.75000 1.93700
H 	H 	0.67160 0.88570 0.07210 0.09600
H 	H 	0.62520 0.86350 0.95890 -0.01700
H 	H 	0.97330 0.75550 0.94110 -0.01400
H 	H 	0.01200 0.77250 0.05490 0.09900
H 	H 	0.86430 0.84080 0.11920 -0.01400
H 	H 	0.44870 0.93860 0.68490 -0.00300
H 	H 	0.76180 0.87080 0.58250 0.01300
H 	H 	0.69510 0.93880 0.49080 0.06800
H 	H 	0.37510 0.00530 0.59320 0.06800
H 	H 	0.67160 0.61430 0.42790 0.09300
H 	H 	0.62520 0.63650 0.54110 -0.01500
H 	H 	0.97330 0.74450 0.55890 -0.01200
H 	H 	0.01200 0.72750 0.44510 0.09500
H 	H 	0.86430 0.65920 0.38080 -0.01200
H 	H 	0.44870 0.56140 0.81510 -0.00200
H 	H 	0.76180 0.62920 0.91750 0.01300
H 	H 	0.69510 0.56120 0.00920 0.06700
H 	H 	0.37510 0.49470 0.90680 0.06700
H 	H 	0.82840 0.11430 0.57210 0.09500
H 	H 	0.87480 0.13650 0.45890 -0.01700
H 	H 	0.52670 0.24450 0.44110 -0.01500
H 	H 	0.48800 0.22750 0.55490 0.09800
H 	H 	0.63570 0.15920 0.61920 -0.01400
H 	H 	0.05130 0.06140 0.18490 -0.00000
H 	H 	0.73820 0.12920 0.08250 0.01300
H 	H 	0.80490 0.06120 0.99080 0.06800
H 	H 	0.12490 0.99470 0.09320 0.06200
H 	H 	0.82840 0.38570 0.92790 0.09400
H 	H 	0.87480 0.36350 0.04110 -0.01600
H 	H 	0.52670 0.25550 0.05890 -0.01400
H 	H 	0.48800 0.27250 0.94510 0.09800
H 	H 	0.63570 0.34080 0.88080 -0.01300
H 	H 	0.05130 0.43860 0.31510 -0.00200
H 	H 	0.73820 0.37080 0.41750 0.01300
H 	H 	0.80490 0.43880 0.50920 0.06800
H 	H 	0.12490 0.50530 0.40680 0.06800
H 	H 	0.32840 0.11430 0.92790 0.09600
H 	H 	0.37480 0.13650 0.04110 -0.01700
H 	H 	0.02670 0.24450 0.05890 -0.01400
H 	H 	0.98800 0.22750 0.94510 0.09900
H 	H 	0.13570 0.15920 0.88080 -0.01400
H 	H 	0.55130 0.06140 0.31510 -0.00300
H 	H 	0.23820 0.12920 0.41750 0.01300
H 	H 	0.30490 0.06120 0.50920 0.06800
H 	H 	0.62490 0.99470 0.40680 0.06800
H 	H 	0.32840 0.38570 0.57210 0.09300
H 	H 	0.37480 0.36350 0.45890 -0.01500
H 	H 	0.02670 0.25550 0.44110 -0.01200
H 	H 	0.98800 0.27250 0.55490 0.09500
H 	H 	0.13570 0.34080 0.61920 -0.01200
H 	H 	0.55130 0.43860 0.18490 -0.00200
H 	H 	0.23820 0.37080 0.08250 0.01300
H 	H 	0.30490 0.43880 0.99080 0.06700
H 	H 	0.62490 0.50530 0.09320 0.06700
H 	H 	0.17160 0.88570 0.42790 0.09500
H 	H 	0.12520 0.86350 0.54110 -0.01700
H 	H 	0.47330 0.75550 0.55890 -0.01500
H 	H 	0.51200 0.77250 0.44510 0.09800
H 	H 	0.36430 0.84080 0.38080 -0.01400
H 	H 	0.94870 0.93860 0.81510 -0.00000
H 	H 	0.26180 0.87080 0.91750 0.01300
H 	H 	0.19510 0.93880 0.00920 0.06800
H 	H 	0.87510 0.00530 0.90680 0.06200
H 	H 	0.17160 0.61430 0.07210 0.09400
H 	H 	0.12520 0.63650 0.95890 -0.01600
H 	H 	0.47330 0.74450 0.94110 -0.01400
H 	H 	0.51200 0.72750 0.05490 0.09800
H 	H 	0.36430 0.65920 0.11920 -0.01300
H 	H 	0.94870 0.56140 0.68490 -0.00200
H 	H 	0.26180 0.62920 0.58250 0.01300
H 	H 	0.19510 0.56120 0.49080 0.06800
H 	H 	0.87510 0.49470 0.59320 0.06800
C 	C 	0.77200 0.79573 0.86410 0.53900
C 	C 	0.79360 0.80770 0.93820 -0.23900
C 	C 	0.73170 0.85880 0.04570 -0.20100
C 	C 	0.70420 0.84600 0.97759 0.14000
C 	C 	0.91120 0.78090 0.96745 0.14300
C 	C 	0.93540 0.79210 0.03530 -0.20100
C 	C 	0.84640 0.83200 0.07380 0.11900
C 	C 	0.52390 0.97897 0.52980 0.05100
C 	C 	0.49710 0.93760 0.64488 0.06200
C 	C 	0.68260 0.89790 0.58429 0.05800
C 	C 	0.64230 0.93840 0.52931 -0.12100
C 	C 	0.45380 0.97790 0.58992 -0.12200
C 	C 	0.77200 0.70427 0.63590 0.53700
C 	C 	0.79360 0.69230 0.56180 -0.23500
C 	C 	0.73170 0.64120 0.45430 -0.19400
C 	C 	0.70420 0.65400 0.52241 0.13400
C 	C 	0.91120 0.71910 0.53255 0.13500
C 	C 	0.93540 0.70790 0.46470 -0.19200
C 	C 	0.84640 0.66800 0.42620 0.11100
C 	C 	0.52390 0.52103 0.97020 0.05000
C 	C 	0.49710 0.56240 0.85512 0.06000
C 	C 	0.68260 0.60210 0.91571 0.05700
C 	C 	0.64230 0.56160 0.97069 -0.11900
C 	C 	0.45380 0.52210 0.91008 -0.12000
C 	C 	0.72800 0.20427 0.36410 0.53900
C 	C 	0.70640 0.19230 0.43820 -0.23800
C 	C 	0.76830 0.14120 0.54570 -0.19900
C 	C 	0.79580 0.15400 0.47759 0.13800
C 	C 	0.58880 0.21910 0.46745 0.14000
C 	C 	0.56460 0.20790 0.53530 -0.20000
C 	C 	0.65360 0.16800 0.57380 0.11700
C 	C 	0.97610 0.02103 0.02980 0.04500
C 	C 	0.00290 0.06240 0.14488 0.06000
C 	C 	0.81740 0.10210 0.08429 0.05600
C 	C 	0.85770 0.06160 0.02931 -0.12000
C 	C 	0.04620 0.02210 0.08992 -0.10900
C 	C 	0.72800 0.29573 0.13590 0.53800
C 	C 	0.70640 0.30770 0.06180 -0.23700
C 	C 	0.76830 0.35880 0.95430 -0.19600
C 	C 	0.79580 0.34600 0.02241 0.13500
C 	C 	0.58880 0.28090 0.03255 0.13900
C 	C 	0.56460 0.29210 0.96470 -0.19800
C 	C 	0.65360 0.33200 0.92620 0.11500
C 	C 	0.97610 0.47897 0.47020 0.05000
C 	C 	0.00290 0.43760 0.35512 0.06200
C 	C 	0.81740 0.39790 0.41571 0.05700
C 	C 	0.85770 0.43840 0.47069 -0.12100
C 	C 	0.04620 0.47790 0.41008 -0.12000
C 	C 	0.22800 0.20427 0.13590 0.53900
C 	C 	0.20640 0.19230 0.06180 -0.23900
C 	C 	0.26830 0.14120 0.95430 -0.20100
C 	C 	0.29580 0.15400 0.02241 0.14000
C 	C 	0.08880 0.21910 0.03255 0.14300
C 	C 	0.06460 0.20790 0.96470 -0.20100
C 	C 	0.15360 0.16800 0.92620 0.11900
C 	C 	0.47610 0.02103 0.47020 0.05100
C 	C 	0.50290 0.06240 0.35512 0.06200
C 	C 	0.31740 0.10210 0.41571 0.05800
C 	C 	0.35770 0.06160 0.47069 -0.12100
C 	C 	0.54620 0.02210 0.41008 -0.12200
C 	C 	0.22800 0.29573 0.36410 0.53700
C 	C 	0.20640 0.30770 0.43820 -0.23500
C 	C 	0.26830 0.35880 0.54570 -0.19400
C 	C 	0.29580 0.34600 0.47759 0.13400
C 	C 	0.08880 0.28090 0.46745 0.13500
C 	C 	0.06460 0.29210 0.53530 -0.19200
C 	C 	0.15360 0.33200 0.57380 0.11100
C 	C 	0.47610 0.47897 0.02980 0.05000
C 	C 	0.50290 0.43760 0.14488 0.06000
C 	C 	0.31740 0.39790 0.08429 0.05700
C 	C 	0.35770 0.43840 0.02931 -0.11900
C 	C 	0.54620 0.47790 0.08992 -0.12000
C 	C 	0.27200 0.79573 0.63590 0.53900
C 	C 	0.29360 0.80770 0.56180 -0.23800
C 	C 	0.23170 0.85880 0.45430 -0.19900
C 	C 	0.20420 0.84600 0.52241 0.13800
C 	C 	0.41120 0.78090 0.53255 0.14000
C 	C 	0.43540 0.79210 0.46470 -0.20000
C 	C 	0.34640 0.83200 0.42620 0.11700
C 	C 	0.02390 0.97897 0.97020 0.04500
C 	C 	0.99710 0.93760 0.85512 0.06000
C 	C 	0.18260 0.89790 0.91571 0.05600
C 	C 	0.14230 0.93840 0.97069 -0.12000
C 	C 	0.95380 0.97790 0.91008 -0.10900
C 	C 	0.27200 0.70427 0.86410 0.53800
C 	C 	0.29360 0.69230 0.93820 -0.23700
C 	C 	0.23170 0.64120 0.04570 -0.19600
C 	C 	0.20420 0.65400 0.97759 0.13500
C 	C 	0.41120 0.71910 0.96745 0.13900
C 	C 	0.43540 0.70790 0.03530 -0.19800
C 	C 	0.34640 0.66800 0.07380 0.11500
C 	C 	0.02390 0.52103 0.52980 0.05000
C 	C 	0.99710 0.56240 0.64488 0.06200
C 	C 	0.18260 0.60210 0.58429 0.05700
C 	C 	0.14230 0.56160 0.52931 -0.12100
C 	C 	0.95380 0.52210 0.58992 -0.12000
N 	N 	0.60930 0.89658 0.64085 -0.07500
N 	N 	0.60930 0.60342 0.85915 -0.07500
N 	N 	0.89070 0.10342 0.14085 -0.07600
N 	N 	0.89070 0.39658 0.35915 -0.07500
N 	N 	0.39070 0.10342 0.35915 -0.07500
N 	N 	0.39070 0.39658 0.14085 -0.07500
N 	N 	0.10930 0.89658 0.85915 -0.07600
N 	N 	0.10930 0.60342 0.64085 -0.07500
O 	O 	0.65710 0.80246 0.84042 -0.53100
O 	O 	0.64920 0.85614 0.69403 -0.31400
O 	O 	0.87190 0.78030 0.82973 -0.56900
O 	O 	0.65710 0.69754 0.65958 -0.53000
O 	O 	0.64920 0.64386 0.80597 -0.31500
O 	O 	0.87190 0.71970 0.67027 -0.56800
O 	O 	0.84290 0.19754 0.34042 -0.53100
O 	O 	0.85080 0.14386 0.19403 -0.31500
O 	O 	0.62810 0.21970 0.32973 -0.57000
O 	O 	0.84290 0.30246 0.15958 -0.53100
O 	O 	0.85080 0.35614 0.30597 -0.31500
O 	O 	0.62810 0.28030 0.17027 -0.57000
O 	O 	0.34290 0.19754 0.15958 -0.53100
O 	O 	0.35080 0.14386 0.30597 -0.31400
O 	O 	0.12810 0.21970 0.17027 -0.56900
O 	O 	0.34290 0.30246 0.34042 -0.53000
O 	O 	0.35080 0.35614 0.19403 -0.31500
O 	O 	0.12810 0.28030 0.32973 -0.56800
O 	O 	0.15710 0.80246 0.65958 -0.53100
O 	O 	0.14920 0.85614 0.80597 -0.31500
O 	O 	0.37190 0.78030 0.67027 -0.57000
O 	O 	0.15710 0.69754 0.84042 -0.53100
O 	O 	0.14920 0.64386 0.69403 -0.31500
O 	O 	0.37190 0.71970 0.82973 -0.57000
