data_crystal

_cell_length_a 10.04000
_cell_length_b 17.78800
_cell_length_c 19.78600
_cell_angle_alpha 90.00000
_cell_angle_beta  90.00000
_cell_angle_gamma 90.00000

_symmetry_space_group_name_	'P 1'
_symmetry_space_group_name_H-M	'P 1'

loop_
_symmetry_equiv_pos_as_xyz
  x,y,z

loop_
_atom_site_label
_atom_site_type_symbol
_atom_site_fract_x
_atom_site_fract_y
_atom_site_fract_z
_atom_site_charge
Gd	Gd	0.46953 0.25000 0.25000 1.57300
Gd	Gd	0.03047 0.75000 0.75000 1.56900
Gd	Gd	0.53047 0.75000 0.75000 1.57300
Gd	Gd	0.96953 0.25000 0.25000 1.56900
H 	H 	0.33020 0.11490 0.57170 0.08100
H 	H 	0.23860 0.12900 0.08150 0.01700
H 	H 	0.30550 0.06180 0.99120 0.06900
H 	H 	0.37610 0.13660 0.45890 0.00300
H 	H 	0.98710 0.22510 0.55490 0.08100
H 	H 	0.02790 0.24480 0.44060 0.00700
H 	H 	0.13870 0.16070 0.61980 0.00300
H 	H 	0.62320 0.99340 0.09360 0.07100
H 	H 	0.55170 0.06190 0.18490 0.00400
H 	H 	0.33020 0.38510 0.92830 0.08400
H 	H 	0.23860 0.37100 0.41850 0.01600
H 	H 	0.30550 0.43820 0.50880 0.07000
H 	H 	0.37610 0.36340 0.04110 0.00000
H 	H 	0.98710 0.27490 0.94510 0.08500
H 	H 	0.02790 0.25520 0.05940 0.00500
H 	H 	0.13870 0.33930 0.88020 -0.00000
H 	H 	0.62320 0.50660 0.40640 0.07100
H 	H 	0.55170 0.43810 0.31510 0.00400
H 	H 	0.16980 0.88510 0.07170 0.08300
H 	H 	0.26140 0.87100 0.58150 0.01700
H 	H 	0.19450 0.93820 0.49120 0.06900
H 	H 	0.12390 0.86340 0.95890 0.00100
H 	H 	0.51290 0.77490 0.05490 0.08500
H 	H 	0.47210 0.75520 0.94060 0.00500
H 	H 	0.36130 0.83930 0.11980 0.00000
H 	H 	0.87680 0.00660 0.59360 0.06600
H 	H 	0.94830 0.93810 0.68490 0.00600
H 	H 	0.16980 0.61490 0.42830 0.08300
H 	H 	0.26140 0.62900 0.91850 0.01600
H 	H 	0.19450 0.56180 0.00880 0.07000
H 	H 	0.12390 0.63660 0.54110 0.00100
H 	H 	0.51290 0.72510 0.44510 0.08500
H 	H 	0.47210 0.74480 0.55940 0.00500
H 	H 	0.36130 0.66070 0.38020 0.00100
H 	H 	0.87680 0.49340 0.90640 0.07100
H 	H 	0.94830 0.56190 0.81510 0.00400
H 	H 	0.66980 0.88510 0.42830 0.08100
H 	H 	0.76140 0.87100 0.91850 0.01700
H 	H 	0.69450 0.93820 0.00880 0.06900
H 	H 	0.62390 0.86340 0.54110 0.00300
H 	H 	0.01290 0.77490 0.44510 0.08100
H 	H 	0.97210 0.75520 0.55940 0.00700
H 	H 	0.86130 0.83930 0.38020 0.00300
H 	H 	0.37680 0.00660 0.90640 0.07100
H 	H 	0.44830 0.93810 0.81510 0.00400
H 	H 	0.66980 0.61490 0.07170 0.08400
H 	H 	0.76140 0.62900 0.58150 0.01600
H 	H 	0.69450 0.56180 0.49120 0.07000
H 	H 	0.62390 0.63660 0.95890 0.00000
H 	H 	0.01290 0.72510 0.05490 0.08500
H 	H 	0.97210 0.74480 0.94060 0.00500
H 	H 	0.86130 0.66070 0.11980 -0.00000
H 	H 	0.37680 0.49340 0.59360 0.07100
H 	H 	0.44830 0.56190 0.68490 0.00400
H 	H 	0.83020 0.11490 0.92830 0.08300
H 	H 	0.73860 0.12900 0.41850 0.01700
H 	H 	0.80550 0.06180 0.50880 0.06900
H 	H 	0.87610 0.13660 0.04110 0.00100
H 	H 	0.48710 0.22510 0.94510 0.08500
H 	H 	0.52790 0.24480 0.05940 0.00500
H 	H 	0.63870 0.16070 0.88020 0.00000
H 	H 	0.12320 0.99340 0.40640 0.06600
H 	H 	0.05170 0.06190 0.31510 0.00600
H 	H 	0.83020 0.38510 0.57170 0.08300
H 	H 	0.73860 0.37100 0.08150 0.01600
H 	H 	0.80550 0.43820 0.99120 0.07000
H 	H 	0.87610 0.36340 0.45890 0.00100
H 	H 	0.48710 0.27490 0.55490 0.08500
H 	H 	0.52790 0.25520 0.44060 0.00500
H 	H 	0.63870 0.33930 0.61980 0.00100
H 	H 	0.12320 0.50660 0.09360 0.07100
H 	H 	0.05170 0.43810 0.18490 0.00400
C 	C 	0.22990 0.20440 0.36310 0.47800
C 	C 	0.47650 0.02140 0.03080 0.05400
C 	C 	0.20610 0.19300 0.43820 -0.18300
C 	C 	0.27000 0.14170 0.54540 -0.15400
C 	C 	0.31770 0.10180 0.08350 0.06000
C 	C 	0.35790 0.06220 0.03000 -0.12200
C 	C 	0.29720 0.15420 0.47770 0.09000
C 	C 	0.06510 0.20700 0.53540 -0.15000
C 	C 	0.08980 0.21910 0.46690 0.09300
C 	C 	0.15530 0.16860 0.57410 0.07200
C 	C 	0.54540 0.02160 0.09010 -0.12600
C 	C 	0.50260 0.06260 0.14500 0.06900
C 	C 	0.22990 0.29560 0.13690 0.48000
C 	C 	0.47650 0.47860 0.46920 0.05500
C 	C 	0.20610 0.30700 0.06180 -0.18800
C 	C 	0.27000 0.35830 0.95460 -0.16200
C 	C 	0.31770 0.39820 0.41650 0.06100
C 	C 	0.35790 0.43780 0.47000 -0.12400
C 	C 	0.29720 0.34580 0.02230 0.09600
C 	C 	0.06510 0.29300 0.96460 -0.16000
C 	C 	0.08980 0.28090 0.03310 0.10000
C 	C 	0.15530 0.33140 0.92590 0.08000
C 	C 	0.54540 0.47840 0.40990 -0.12600
C 	C 	0.50260 0.43740 0.35500 0.06900
C 	C 	0.27010 0.79560 0.86310 0.47900
C 	C 	0.02350 0.97860 0.53080 0.05100
C 	C 	0.29390 0.80700 0.93820 -0.18700
C 	C 	0.23000 0.85830 0.04540 -0.15900
C 	C 	0.18230 0.89820 0.58350 0.05900
C 	C 	0.14210 0.93780 0.53000 -0.12200
C 	C 	0.20280 0.84580 0.97770 0.09300
C 	C 	0.43490 0.79300 0.03540 -0.15800
C 	C 	0.41020 0.78090 0.96690 0.09800
C 	C 	0.34470 0.83140 0.07410 0.07800
C 	C 	0.95460 0.97840 0.59010 -0.11700
C 	C 	0.99740 0.93740 0.64500 0.06800
C 	C 	0.27010 0.70440 0.63690 0.47900
C 	C 	0.02350 0.52140 0.96920 0.05400
C 	C 	0.29390 0.69300 0.56180 -0.18700
C 	C 	0.23000 0.64170 0.45460 -0.15900
C 	C 	0.18230 0.60180 0.91650 0.06100
C 	C 	0.14210 0.56220 0.97000 -0.12500
C 	C 	0.20280 0.65420 0.52230 0.09300
C 	C 	0.43490 0.70700 0.46460 -0.15800
C 	C 	0.41020 0.71910 0.53310 0.09700
C 	C 	0.34470 0.66860 0.42590 0.07800
C 	C 	0.95460 0.52160 0.90990 -0.12500
C 	C 	0.99740 0.56260 0.85500 0.07000
C 	C 	0.77010 0.79560 0.63690 0.47800
C 	C 	0.52350 0.97860 0.96920 0.05400
C 	C 	0.79390 0.80700 0.56180 -0.18300
C 	C 	0.73000 0.85830 0.45460 -0.15400
C 	C 	0.68230 0.89820 0.91650 0.06000
C 	C 	0.64210 0.93780 0.97000 -0.12200
C 	C 	0.70280 0.84580 0.52230 0.09000
C 	C 	0.93490 0.79300 0.46460 -0.15000
C 	C 	0.91020 0.78090 0.53310 0.09300
C 	C 	0.84470 0.83140 0.42590 0.07200
C 	C 	0.45460 0.97840 0.90990 -0.12600
C 	C 	0.49740 0.93740 0.85500 0.06900
C 	C 	0.77010 0.70440 0.86310 0.48000
C 	C 	0.52350 0.52140 0.53080 0.05500
C 	C 	0.79390 0.69300 0.93820 -0.18800
C 	C 	0.73000 0.64170 0.04540 -0.16200
C 	C 	0.68230 0.60180 0.58350 0.06100
C 	C 	0.64210 0.56220 0.53000 -0.12400
C 	C 	0.70280 0.65420 0.97770 0.09600
C 	C 	0.93490 0.70700 0.03540 -0.16000
C 	C 	0.91020 0.71910 0.96690 0.10000
C 	C 	0.84470 0.66860 0.07410 0.08000
C 	C 	0.45460 0.52160 0.59010 -0.12600
C 	C 	0.49740 0.56260 0.64500 0.06900
C 	C 	0.72990 0.20440 0.13690 0.47900
C 	C 	0.97650 0.02140 0.46920 0.05100
C 	C 	0.70610 0.19300 0.06180 -0.18700
C 	C 	0.77000 0.14170 0.95460 -0.15900
C 	C 	0.81770 0.10180 0.41650 0.05900
C 	C 	0.85790 0.06220 0.47000 -0.12200
C 	C 	0.79720 0.15420 0.02230 0.09300
C 	C 	0.56510 0.20700 0.96460 -0.15800
C 	C 	0.58980 0.21910 0.03310 0.09800
C 	C 	0.65530 0.16860 0.92590 0.07800
C 	C 	0.04540 0.02160 0.40990 -0.11700
C 	C 	0.00260 0.06260 0.35500 0.06800
C 	C 	0.72990 0.29560 0.36310 0.47900
C 	C 	0.97650 0.47860 0.03080 0.05400
C 	C 	0.70610 0.30700 0.43820 -0.18700
C 	C 	0.77000 0.35830 0.54540 -0.15900
C 	C 	0.81770 0.39820 0.08350 0.06100
C 	C 	0.85790 0.43780 0.03000 -0.12500
C 	C 	0.79720 0.34580 0.47770 0.09300
C 	C 	0.56510 0.29300 0.53540 -0.15800
C 	C 	0.58980 0.28090 0.46690 0.09700
C 	C 	0.65530 0.33140 0.57410 0.07800
C 	C 	0.04540 0.47840 0.09010 -0.12500
C 	C 	0.00260 0.43740 0.14500 0.07000
N 	N 	0.39300 0.10260 0.14150 -0.07900
N 	N 	0.39300 0.39740 0.35850 -0.07900
N 	N 	0.10700 0.89740 0.64150 -0.07900
N 	N 	0.10700 0.60260 0.85850 -0.08000
N 	N 	0.60700 0.89740 0.85850 -0.07900
N 	N 	0.60700 0.60260 0.64150 -0.07900
N 	N 	0.89300 0.10260 0.35850 -0.07900
N 	N 	0.89300 0.39740 0.14150 -0.08000
O 	O 	0.35250 0.14490 0.19425 -0.26700
O 	O 	0.34500 0.19820 0.34085 -0.46300
O 	O 	0.12970 0.21980 0.32811 -0.49100
O 	O 	0.35250 0.35510 0.30575 -0.26700
O 	O 	0.34500 0.30180 0.15915 -0.46300
O 	O 	0.12970 0.28020 0.17189 -0.49100
O 	O 	0.14750 0.85510 0.69425 -0.26800
O 	O 	0.15500 0.80180 0.84085 -0.46300
O 	O 	0.37030 0.78020 0.82811 -0.49200
O 	O 	0.14750 0.64490 0.80575 -0.26700
O 	O 	0.15500 0.69820 0.65915 -0.46300
O 	O 	0.37030 0.71980 0.67189 -0.49200
O 	O 	0.64750 0.85510 0.80575 -0.26700
O 	O 	0.65500 0.80180 0.65915 -0.46300
O 	O 	0.87030 0.78020 0.67189 -0.49100
O 	O 	0.64750 0.64490 0.69425 -0.26700
O 	O 	0.65500 0.69820 0.84085 -0.46300
O 	O 	0.87030 0.71980 0.82811 -0.49100
O 	O 	0.85250 0.14490 0.30575 -0.26800
O 	O 	0.84500 0.19820 0.15915 -0.46300
O 	O 	0.62970 0.21980 0.17189 -0.49200
O 	O 	0.85250 0.35510 0.19425 -0.26700
O 	O 	0.84500 0.30180 0.34085 -0.46300
O 	O 	0.62970 0.28020 0.32811 -0.49200
