data_crystal

_cell_length_a 28.66260
_cell_length_b 10.69050
_cell_length_c 28.23210
_cell_angle_alpha 90.00000
_cell_angle_beta  111.52200
_cell_angle_gamma 90.00000

_symmetry_space_group_name_	'P 1'
_symmetry_space_group_name_H-M	'P 1'

loop_
_symmetry_equiv_pos_as_xyz
  x,y,z

loop_
_atom_site_label
_atom_site_type_symbol
_atom_site_fract_x
_atom_site_fract_y
_atom_site_fract_z
_atom_site_charge
Zn	Zn	0.10915 0.22393 0.48011 1.19000
O 	O 	0.15929 0.21220 0.55316 -0.45000
N 	N 	0.27907 0.37380 0.80858 -0.13300
N 	N 	0.14711 0.66470 0.94628 -0.28700
C 	C 	0.19971 0.53960 0.89500 0.08300
C 	C 	0.22714 0.48000 0.86550 0.03500
C 	C 	0.30255 0.39770 0.85838 0.07900
O 	O 	0.10797 0.37150 0.54225 -0.34900
C 	C 	0.23025 0.40370 0.78658 0.07900
C 	C 	0.27821 0.44980 0.88801 -0.11800
H 	H 	0.29560 0.46450 0.92250 0.06600
C 	C 	0.35681 0.36810 0.87985 0.02700
C 	C 	0.20703 0.37710 0.73111 0.02600
O 	O 	0.54234 0.34890 0.97732 -0.44000
C 	C 	0.20321 0.45430 0.81363 -0.12600
H 	H 	0.16920 0.47110 0.79740 0.07000
C 	C 	0.14293 0.30190 0.57033 0.31200
C 	C 	0.16487 0.32910 0.62664 -0.08300
C 	C 	0.44062 0.40660 0.94103 0.01000
H 	H 	0.46200 0.44960 0.96930 0.05000
C 	C 	0.38926 0.43310 0.92172 -0.08100
H 	H 	0.37670 0.49470 0.93700 0.05000
C 	C 	0.45948 0.31680 0.91812 -0.08900
O 	O 	0.53319 0.21670 0.91720 -0.38600
C 	C 	0.37605 0.27630 0.85731 -0.08700
H 	H 	0.35480 0.23200 0.82940 0.06800
C 	C 	0.20576 0.26120 0.65752 0.01300
H 	H 	0.21920 0.19890 0.64340 0.04400
C 	C 	0.16541 0.44360 0.70025 -0.08700
H 	H 	0.15090 0.50360 0.71440 0.05800
C 	C 	0.14520 0.42040 0.64778 0.01400
H 	H 	0.11810 0.46750 0.62710 0.04400
C 	C 	0.22687 0.28490 0.70924 -0.08300
H 	H 	0.25450 0.23880 0.72950 0.06900
C 	C 	0.42688 0.25090 0.87660 0.02000
H 	H 	0.43950 0.18870 0.86150 0.03700
C 	C 	0.51501 0.29100 0.93820 0.33600
C 	C 	0.22217 0.59650 0.93880 -0.17700
H 	H 	0.25700 0.59970 0.95290 0.08500
C 	C 	0.19347 0.65270 0.96420 0.12000
H 	H 	0.21050 0.68310 0.99690 -0.03700
C 	C 	0.12359 0.58920 0.90660 0.08100
H 	H 	0.08890 0.58200 0.89590 0.00100
C 	C 	0.14758 0.52220 0.88090 -0.15300
H 	H 	0.13010 0.46700 0.85500 0.08200
Zn	Zn	0.60915 0.72393 0.48011 1.19100
O 	O 	0.65929 0.71220 0.55316 -0.44900
N 	N 	0.77907 0.87380 0.80858 -0.13200
N 	N 	0.64711 0.16470 0.94628 -0.28500
C 	C 	0.69971 0.03960 0.89500 0.08400
C 	C 	0.72714 0.98000 0.86550 0.03600
C 	C 	0.80255 0.89770 0.85838 0.08000
O 	O 	0.60797 0.87150 0.54225 -0.34800
C 	C 	0.73025 0.90370 0.78658 0.07900
C 	C 	0.77821 0.94980 0.88801 -0.11700
H 	H 	0.79560 0.96450 0.92250 0.06700
C 	C 	0.85681 0.86810 0.87985 0.02800
C 	C 	0.70703 0.87710 0.73111 0.02700
O 	O 	0.04234 0.84890 0.97732 -0.43900
C 	C 	0.70321 0.95430 0.81363 -0.12500
H 	H 	0.66920 0.97110 0.79740 0.07100
C 	C 	0.64293 0.80190 0.57033 0.31300
C 	C 	0.66487 0.82910 0.62664 -0.08200
C 	C 	0.94062 0.90660 0.94103 0.01000
H 	H 	0.96200 0.94960 0.96930 0.05100
C 	C 	0.88926 0.93310 0.92172 -0.08100
H 	H 	0.87670 0.99470 0.93700 0.05000
C 	C 	0.95948 0.81680 0.91812 -0.08800
O 	O 	0.03319 0.71670 0.91720 -0.38600
C 	C 	0.87605 0.77630 0.85731 -0.08700
H 	H 	0.85480 0.73200 0.82940 0.06800
C 	C 	0.70576 0.76120 0.65752 0.01400
H 	H 	0.71920 0.69890 0.64340 0.04400
C 	C 	0.66541 0.94360 0.70025 -0.08700
H 	H 	0.65090 0.00360 0.71440 0.05800
C 	C 	0.64520 0.92040 0.64778 0.01400
H 	H 	0.61810 0.96750 0.62710 0.04400
C 	C 	0.72687 0.78490 0.70924 -0.08300
H 	H 	0.75450 0.73880 0.72950 0.06900
C 	C 	0.92688 0.75090 0.87660 0.02000
H 	H 	0.93950 0.68870 0.86150 0.03700
C 	C 	0.01501 0.79100 0.93820 0.33500
C 	C 	0.72217 0.09650 0.93880 -0.17700
H 	H 	0.75700 0.09970 0.95290 0.08500
C 	C 	0.69347 0.15270 0.96420 0.12000
H 	H 	0.71050 0.18310 0.99690 -0.03600
C 	C 	0.62359 0.08920 0.90660 0.08100
H 	H 	0.58890 0.08200 0.89590 0.00200
C 	C 	0.64758 0.02220 0.88090 -0.15300
H 	H 	0.63010 0.96700 0.85500 0.08200
Zn	Zn	0.10915 0.77607 0.98011 1.19100
O 	O 	0.15929 0.78780 0.05316 -0.44900
N 	N 	0.27907 0.62620 0.30858 -0.13200
N 	N 	0.14711 0.33530 0.44628 -0.28600
C 	C 	0.19971 0.46040 0.39500 0.08400
C 	C 	0.22714 0.52000 0.36550 0.03600
C 	C 	0.30255 0.60230 0.35838 0.08000
O 	O 	0.10797 0.62850 0.04225 -0.34700
C 	C 	0.23025 0.59630 0.28658 0.08000
C 	C 	0.27821 0.55020 0.38801 -0.11700
H 	H 	0.29560 0.53550 0.42250 0.06700
C 	C 	0.35681 0.63190 0.37985 0.02800
C 	C 	0.20703 0.62290 0.23111 0.02700
O 	O 	0.54234 0.65110 0.47732 -0.43900
C 	C 	0.20321 0.54570 0.31363 -0.12500
H 	H 	0.16920 0.52890 0.29740 0.07100
C 	C 	0.14293 0.69810 0.07033 0.31300
C 	C 	0.16487 0.67090 0.12664 -0.08200
C 	C 	0.44062 0.59340 0.44103 0.01000
H 	H 	0.46200 0.55040 0.46930 0.05000
C 	C 	0.38926 0.56690 0.42172 -0.08100
H 	H 	0.37670 0.50530 0.43700 0.05000
C 	C 	0.45948 0.68320 0.41812 -0.08900
O 	O 	0.53319 0.78330 0.41720 -0.38600
C 	C 	0.37605 0.72370 0.35731 -0.08700
H 	H 	0.35480 0.76800 0.32940 0.06800
C 	C 	0.20576 0.73880 0.15752 0.01300
H 	H 	0.21920 0.80110 0.14340 0.04400
C 	C 	0.16541 0.55640 0.20025 -0.08700
H 	H 	0.15090 0.49640 0.21440 0.05800
C 	C 	0.14520 0.57960 0.14778 0.01400
H 	H 	0.11810 0.53250 0.12710 0.04400
C 	C 	0.22687 0.71510 0.20924 -0.08300
H 	H 	0.25450 0.76120 0.22950 0.06900
C 	C 	0.42688 0.74910 0.37660 0.02000
H 	H 	0.43950 0.81130 0.36150 0.03700
C 	C 	0.51501 0.70900 0.43820 0.33600
C 	C 	0.22217 0.40350 0.43880 -0.17700
H 	H 	0.25700 0.40030 0.45290 0.08500
C 	C 	0.19347 0.34730 0.46420 0.12000
H 	H 	0.21050 0.31690 0.49690 -0.03700
C 	C 	0.12359 0.41080 0.40660 0.08100
H 	H 	0.08890 0.41800 0.39590 0.00100
C 	C 	0.14758 0.47780 0.38090 -0.15300
H 	H 	0.13010 0.53300 0.35500 0.08200
Zn	Zn	0.60915 0.27607 0.98011 1.19100
O 	O 	0.65929 0.28780 0.05316 -0.44900
N 	N 	0.77907 0.12620 0.30858 -0.13200
N 	N 	0.64711 0.83530 0.44628 -0.28600
C 	C 	0.69971 0.96040 0.39500 0.08400
C 	C 	0.72714 0.02000 0.36550 0.03600
C 	C 	0.80255 0.10230 0.35838 0.08000
O 	O 	0.60797 0.12850 0.04225 -0.34800
C 	C 	0.73025 0.09630 0.28658 0.07900
C 	C 	0.77821 0.05020 0.38801 -0.11700
H 	H 	0.79560 0.03550 0.42250 0.06700
C 	C 	0.85681 0.13190 0.37985 0.02800
C 	C 	0.70703 0.12290 0.23111 0.02700
O 	O 	0.04234 0.15110 0.47732 -0.43900
C 	C 	0.70321 0.04570 0.31363 -0.12500
H 	H 	0.66920 0.02890 0.29740 0.07100
C 	C 	0.64293 0.19810 0.07033 0.31300
C 	C 	0.66487 0.17090 0.12664 -0.08200
C 	C 	0.94062 0.09340 0.44103 0.01000
H 	H 	0.96200 0.05040 0.46930 0.05000
C 	C 	0.88926 0.06690 0.42172 -0.08100
H 	H 	0.87670 0.00530 0.43700 0.05000
C 	C 	0.95948 0.18320 0.41812 -0.08900
O 	O 	0.03319 0.28330 0.41720 -0.38600
C 	C 	0.87605 0.22370 0.35731 -0.08700
H 	H 	0.85480 0.26800 0.32940 0.06800
C 	C 	0.70576 0.23880 0.15752 0.01400
H 	H 	0.71920 0.30110 0.14340 0.04400
C 	C 	0.66541 0.05640 0.20025 -0.08700
H 	H 	0.65090 0.99640 0.21440 0.05800
C 	C 	0.64520 0.07960 0.14778 0.01400
H 	H 	0.61810 0.03250 0.12710 0.04400
C 	C 	0.72687 0.21510 0.20924 -0.08300
H 	H 	0.75450 0.26120 0.22950 0.06900
C 	C 	0.92688 0.24910 0.37660 0.02000
H 	H 	0.93950 0.31130 0.36150 0.03700
C 	C 	0.01501 0.20900 0.43820 0.33600
C 	C 	0.72217 0.90350 0.43880 -0.17700
H 	H 	0.75700 0.90030 0.45290 0.08500
C 	C 	0.69347 0.84730 0.46420 0.12000
H 	H 	0.71050 0.81690 0.49690 -0.03700
C 	C 	0.62359 0.91080 0.40660 0.08100
H 	H 	0.58890 0.91800 0.39590 0.00100
C 	C 	0.64758 0.97780 0.38090 -0.15300
H 	H 	0.63010 0.03300 0.35500 0.08200
Zn	Zn	0.89085 0.22393 0.01989 1.19100
O 	O 	0.84071 0.21220 0.94684 -0.44900
N 	N 	0.72093 0.37380 0.69142 -0.13200
N 	N 	0.85289 0.66470 0.55372 -0.28600
C 	C 	0.80029 0.53960 0.60500 0.08400
C 	C 	0.77286 0.48000 0.63450 0.03600
C 	C 	0.69745 0.39770 0.64162 0.08000
O 	O 	0.89203 0.37150 0.95775 -0.34700
C 	C 	0.76975 0.40370 0.71342 0.08000
C 	C 	0.72179 0.44980 0.61199 -0.11700
H 	H 	0.70440 0.46450 0.57750 0.06700
C 	C 	0.64319 0.36810 0.62015 0.02800
C 	C 	0.79297 0.37710 0.76889 0.02700
O 	O 	0.45766 0.34890 0.52268 -0.43900
C 	C 	0.79679 0.45430 0.68637 -0.12500
H 	H 	0.83080 0.47110 0.70260 0.07100
C 	C 	0.85707 0.30190 0.92967 0.31300
C 	C 	0.83513 0.32910 0.87336 -0.08200
C 	C 	0.55938 0.40660 0.55897 0.01000
H 	H 	0.53800 0.44960 0.53070 0.05000
C 	C 	0.61074 0.43310 0.57828 -0.08100
H 	H 	0.62330 0.49470 0.56300 0.05000
C 	C 	0.54052 0.31680 0.58188 -0.08900
O 	O 	0.46681 0.21670 0.58280 -0.38600
C 	C 	0.62395 0.27630 0.64269 -0.08700
H 	H 	0.64520 0.23200 0.67060 0.06800
C 	C 	0.79424 0.26120 0.84248 0.01300
H 	H 	0.78080 0.19890 0.85660 0.04400
C 	C 	0.83459 0.44360 0.79975 -0.08700
H 	H 	0.84910 0.50360 0.78560 0.05800
C 	C 	0.85480 0.42040 0.85222 0.01400
H 	H 	0.88190 0.46750 0.87290 0.04400
C 	C 	0.77313 0.28490 0.79076 -0.08300
H 	H 	0.74550 0.23880 0.77050 0.06900
C 	C 	0.57312 0.25090 0.62340 0.02000
H 	H 	0.56050 0.18870 0.63850 0.03700
C 	C 	0.48499 0.29100 0.56180 0.33600
C 	C 	0.77783 0.59650 0.56120 -0.17700
H 	H 	0.74300 0.59970 0.54710 0.08500
C 	C 	0.80653 0.65270 0.53580 0.12000
H 	H 	0.78950 0.68310 0.50310 -0.03700
C 	C 	0.87641 0.58920 0.59340 0.08100
H 	H 	0.91110 0.58200 0.60410 0.00100
C 	C 	0.85242 0.52220 0.61910 -0.15300
H 	H 	0.86990 0.46700 0.64500 0.08200
Zn	Zn	0.39085 0.72393 0.01989 1.19100
O 	O 	0.34071 0.71220 0.94684 -0.44900
N 	N 	0.22093 0.87380 0.69142 -0.13200
N 	N 	0.35289 0.16470 0.55372 -0.28600
C 	C 	0.30029 0.03960 0.60500 0.08400
C 	C 	0.27286 0.98000 0.63450 0.03600
C 	C 	0.19745 0.89770 0.64162 0.08000
O 	O 	0.39203 0.87150 0.95775 -0.34800
C 	C 	0.26975 0.90370 0.71342 0.07900
C 	C 	0.22179 0.94980 0.61199 -0.11700
H 	H 	0.20440 0.96450 0.57750 0.06700
C 	C 	0.14319 0.86810 0.62015 0.02800
C 	C 	0.29297 0.87710 0.76889 0.02700
O 	O 	0.95766 0.84890 0.52268 -0.43900
C 	C 	0.29679 0.95430 0.68637 -0.12500
H 	H 	0.33080 0.97110 0.70260 0.07100
C 	C 	0.35707 0.80190 0.92967 0.31300
C 	C 	0.33513 0.82910 0.87336 -0.08200
C 	C 	0.05938 0.90660 0.55897 0.01000
H 	H 	0.03800 0.94960 0.53070 0.05000
C 	C 	0.11074 0.93310 0.57828 -0.08100
H 	H 	0.12330 0.99470 0.56300 0.05000
C 	C 	0.04052 0.81680 0.58188 -0.08900
O 	O 	0.96681 0.71670 0.58280 -0.38600
C 	C 	0.12395 0.77630 0.64269 -0.08700
H 	H 	0.14520 0.73200 0.67060 0.06800
C 	C 	0.29424 0.76120 0.84248 0.01400
H 	H 	0.28080 0.69890 0.85660 0.04400
C 	C 	0.33459 0.94360 0.79975 -0.08700
H 	H 	0.34910 0.00360 0.78560 0.05800
C 	C 	0.35480 0.92040 0.85222 0.01400
H 	H 	0.38190 0.96750 0.87290 0.04400
C 	C 	0.27313 0.78490 0.79076 -0.08300
H 	H 	0.24550 0.73880 0.77050 0.06900
C 	C 	0.07312 0.75090 0.62340 0.02000
H 	H 	0.06050 0.68870 0.63850 0.03700
C 	C 	0.98499 0.79100 0.56180 0.33600
C 	C 	0.27783 0.09650 0.56120 -0.17700
H 	H 	0.24300 0.09970 0.54710 0.08500
C 	C 	0.30653 0.15270 0.53580 0.12000
H 	H 	0.28950 0.18310 0.50310 -0.03700
C 	C 	0.37641 0.08920 0.59340 0.08100
H 	H 	0.41110 0.08200 0.60410 0.00100
C 	C 	0.35242 0.02220 0.61910 -0.15300
H 	H 	0.36990 0.96700 0.64500 0.08200
Zn	Zn	0.89085 0.77607 0.51989 1.19100
O 	O 	0.84071 0.78780 0.44684 -0.44900
N 	N 	0.72093 0.62620 0.19142 -0.13200
N 	N 	0.85289 0.33530 0.05372 -0.28600
C 	C 	0.80029 0.46040 0.10500 0.08400
C 	C 	0.77286 0.52000 0.13450 0.03600
C 	C 	0.69745 0.60230 0.14162 0.08000
O 	O 	0.89203 0.62850 0.45775 -0.34800
C 	C 	0.76975 0.59630 0.21342 0.08000
C 	C 	0.72179 0.55020 0.11199 -0.11700
H 	H 	0.70440 0.53550 0.07750 0.06700
C 	C 	0.64319 0.63190 0.12015 0.02800
C 	C 	0.79297 0.62290 0.26889 0.02700
O 	O 	0.45766 0.65110 0.02268 -0.43900
C 	C 	0.79679 0.54570 0.18637 -0.12500
H 	H 	0.83080 0.52890 0.20260 0.07100
C 	C 	0.85707 0.69810 0.42967 0.31300
C 	C 	0.83513 0.67090 0.37336 -0.08200
C 	C 	0.55938 0.59340 0.05897 0.01000
H 	H 	0.53800 0.55040 0.03070 0.05000
C 	C 	0.61074 0.56690 0.07828 -0.08100
H 	H 	0.62330 0.50530 0.06300 0.05000
C 	C 	0.54052 0.68320 0.08188 -0.08900
O 	O 	0.46681 0.78330 0.08280 -0.38600
C 	C 	0.62395 0.72370 0.14269 -0.08700
H 	H 	0.64520 0.76800 0.17060 0.06800
C 	C 	0.79424 0.73880 0.34248 0.01300
H 	H 	0.78080 0.80110 0.35660 0.04400
C 	C 	0.83459 0.55640 0.29975 -0.08700
H 	H 	0.84910 0.49640 0.28560 0.05800
C 	C 	0.85480 0.57960 0.35222 0.01400
H 	H 	0.88190 0.53250 0.37290 0.04400
C 	C 	0.77313 0.71510 0.29076 -0.08300
H 	H 	0.74550 0.76120 0.27050 0.06900
C 	C 	0.57312 0.74910 0.12340 0.02000
H 	H 	0.56050 0.81130 0.13850 0.03700
C 	C 	0.48499 0.70900 0.06180 0.33600
C 	C 	0.77783 0.40350 0.06120 -0.17700
H 	H 	0.74300 0.40030 0.04710 0.08500
C 	C 	0.80653 0.34730 0.03580 0.12000
H 	H 	0.78950 0.31690 0.00310 -0.03700
C 	C 	0.87641 0.41080 0.09340 0.08100
H 	H 	0.91110 0.41800 0.10410 0.00100
C 	C 	0.85242 0.47780 0.11910 -0.15300
H 	H 	0.86990 0.53300 0.14500 0.08200
Zn	Zn	0.39085 0.27607 0.51989 1.19100
O 	O 	0.34071 0.28780 0.44684 -0.44900
N 	N 	0.22093 0.12620 0.19142 -0.13200
N 	N 	0.35289 0.83530 0.05372 -0.28500
C 	C 	0.30029 0.96040 0.10500 0.08400
C 	C 	0.27286 0.02000 0.13450 0.03600
C 	C 	0.19745 0.10230 0.14162 0.08000
O 	O 	0.39203 0.12850 0.45775 -0.34800
C 	C 	0.26975 0.09630 0.21342 0.07900
C 	C 	0.22179 0.05020 0.11199 -0.11700
H 	H 	0.20440 0.03550 0.07750 0.06700
C 	C 	0.14319 0.13190 0.12015 0.02800
C 	C 	0.29297 0.12290 0.26889 0.02700
O 	O 	0.95766 0.15110 0.02268 -0.43900
C 	C 	0.29679 0.04570 0.18637 -0.12500
H 	H 	0.33080 0.02890 0.20260 0.07100
C 	C 	0.35707 0.19810 0.42967 0.31300
C 	C 	0.33513 0.17090 0.37336 -0.08200
C 	C 	0.05938 0.09340 0.05897 0.01000
H 	H 	0.03800 0.05040 0.03070 0.05100
C 	C 	0.11074 0.06690 0.07828 -0.08100
H 	H 	0.12330 0.00530 0.06300 0.05000
C 	C 	0.04052 0.18320 0.08188 -0.08800
O 	O 	0.96681 0.28330 0.08280 -0.38600
C 	C 	0.12395 0.22370 0.14269 -0.08700
H 	H 	0.14520 0.26800 0.17060 0.06800
C 	C 	0.29424 0.23880 0.34248 0.01400
H 	H 	0.28080 0.30110 0.35660 0.04400
C 	C 	0.33459 0.05640 0.29975 -0.08700
H 	H 	0.34910 0.99640 0.28560 0.05800
C 	C 	0.35480 0.07960 0.35222 0.01400
H 	H 	0.38190 0.03250 0.37290 0.04400
C 	C 	0.27313 0.21510 0.29076 -0.08300
H 	H 	0.24550 0.26120 0.27050 0.06900
C 	C 	0.07312 0.24910 0.12340 0.02000
H 	H 	0.06050 0.31130 0.13850 0.03700
C 	C 	0.98499 0.20900 0.06180 0.33500
C 	C 	0.27783 0.90350 0.06120 -0.17700
H 	H 	0.24300 0.90030 0.04710 0.08500
C 	C 	0.30653 0.84730 0.03580 0.12000
H 	H 	0.28950 0.81690 0.00310 -0.03600
C 	C 	0.37641 0.91080 0.09340 0.08100
H 	H 	0.41110 0.91800 0.10410 0.00200
C 	C 	0.35242 0.97780 0.11910 -0.15300
H 	H 	0.36990 0.03300 0.14500 0.08200
