data_crystal

_cell_length_a 15.35200
_cell_length_b 15.35200
_cell_length_c 12.22600
_cell_angle_alpha 90.00000
_cell_angle_beta  90.00000
_cell_angle_gamma 90.00000

_symmetry_space_group_name_	'P 1'
_symmetry_space_group_name_H-M	'P 1'

loop_
_symmetry_equiv_pos_as_xyz
  x,y,z

loop_
_atom_site_label
_atom_site_type_symbol
_atom_site_fract_x
_atom_site_fract_y
_atom_site_fract_z
_atom_site_charge
O 	O 	0.90710 0.20950 0.75640 -0.53700
O 	O 	0.88870 0.11690 0.61420 -0.54200
C 	C 	0.96060 0.06730 0.76880 -0.06900
C 	C 	0.96280 0.06900 0.88150 -0.02400
H 	H 	0.93890 0.11730 0.91970 0.06800
C 	C 	0.91490 0.13650 0.70660 0.42600
O 	O 	0.40710 0.70950 0.25640 -0.55700
O 	O 	0.38870 0.61690 0.11420 -0.57500
C 	C 	0.46060 0.56730 0.26880 -0.14700
C 	C 	0.46280 0.56900 0.38150 0.02400
H 	H 	0.43890 0.61730 0.41970 0.02700
C 	C 	0.41490 0.63650 0.20660 0.44900
O 	O 	0.59290 0.29050 0.25640 -0.56000
O 	O 	0.61130 0.38310 0.11420 -0.57400
C 	C 	0.53940 0.43270 0.26880 -0.14800
C 	C 	0.53720 0.43100 0.38150 0.02400
H 	H 	0.56110 0.38270 0.41970 0.02600
C 	C 	0.58510 0.36350 0.20660 0.44900
O 	O 	0.09290 0.79050 0.75640 -0.54200
O 	O 	0.11130 0.88310 0.61420 -0.54700
C 	C 	0.03940 0.93270 0.76880 -0.08100
C 	C 	0.03720 0.93100 0.88150 -0.03700
H 	H 	0.06110 0.88270 0.91970 0.06700
C 	C 	0.08510 0.86350 0.70660 0.42600
O 	O 	0.79050 0.40710 0.00640 -0.65800
O 	O 	0.88310 0.38870 0.86420 -0.59800
C 	C 	0.93270 0.46060 0.01880 -0.45900
C 	C 	0.93100 0.46280 0.13150 0.25100
H 	H 	0.88270 0.43890 0.16970 -0.04900
C 	C 	0.86350 0.41490 0.95660 0.68300
O 	O 	0.29050 0.90710 0.50640 -0.55400
O 	O 	0.38310 0.88870 0.36420 -0.56000
C 	C 	0.43270 0.96060 0.51880 -0.15700
C 	C 	0.43100 0.96280 0.63150 0.07500
H 	H 	0.38270 0.93890 0.66970 0.01100
C 	C 	0.36350 0.91490 0.45660 0.45400
O 	O 	0.70950 0.09290 0.50640 -0.55500
O 	O 	0.61690 0.11130 0.36420 -0.56300
C 	C 	0.56730 0.03940 0.51880 -0.16300
C 	C 	0.56900 0.03720 0.63150 0.06700
H 	H 	0.61730 0.06110 0.66970 0.01300
C 	C 	0.63650 0.08510 0.45660 0.45500
O 	O 	0.20950 0.59290 0.00640 -0.65800
O 	O 	0.11690 0.61130 0.86420 -0.60500
C 	C 	0.06730 0.53940 0.01880 -0.47000
C 	C 	0.06900 0.53720 0.13150 0.23200
H 	H 	0.11730 0.56110 0.16970 -0.04600
C 	C 	0.13650 0.58510 0.95660 0.67900
O 	O 	0.59290 0.20950 0.99360 -0.44100
O 	O 	0.61130 0.11690 0.13580 -0.50300
C 	C 	0.53940 0.06730 0.98120 0.20800
C 	C 	0.53720 0.06900 0.86850 -0.20200
H 	H 	0.56110 0.11730 0.83030 0.10500
C 	C 	0.58510 0.13650 0.04340 0.20400
O 	O 	0.09290 0.70950 0.49360 -0.55100
O 	O 	0.11130 0.61690 0.63580 -0.54700
C 	C 	0.03940 0.56730 0.48120 -0.10200
C 	C 	0.03720 0.56900 0.36850 -0.03500
H 	H 	0.06110 0.61730 0.33030 0.04500
C 	C 	0.08510 0.63650 0.54340 0.43100
O 	O 	0.90710 0.29050 0.49360 -0.54600
O 	O 	0.88870 0.38310 0.63580 -0.53900
C 	C 	0.96060 0.43270 0.48120 -0.08500
C 	C 	0.96280 0.43100 0.36850 -0.01600
H 	H 	0.93890 0.38270 0.33030 0.04300
C 	C 	0.91490 0.36350 0.54340 0.43000
O 	O 	0.40710 0.79050 0.99360 -0.43800
O 	O 	0.38870 0.88310 0.13580 -0.50000
C 	C 	0.46060 0.93270 0.98120 0.21700
C 	C 	0.46280 0.93100 0.86850 -0.19400
H 	H 	0.43890 0.88270 0.83030 0.10400
C 	C 	0.41490 0.86350 0.04340 0.20100
O 	O 	0.70950 0.40710 0.74360 -0.54300
O 	O 	0.61690 0.38870 0.88580 -0.52800
C 	C 	0.56730 0.46060 0.73120 -0.12500
C 	C 	0.56900 0.46280 0.61850 0.01000
H 	H 	0.61730 0.43890 0.58030 0.03200
C 	C 	0.63650 0.41490 0.79340 0.44000
O 	O 	0.20950 0.90710 0.24360 -0.56200
O 	O 	0.11690 0.88870 0.38580 -0.55800
C 	C 	0.06730 0.96060 0.23120 -0.16300
C 	C 	0.06900 0.96280 0.11850 0.08200
H 	H 	0.11730 0.93890 0.08030 -0.01100
C 	C 	0.13650 0.91490 0.29340 0.45400
O 	O 	0.79050 0.09290 0.24360 -0.56100
O 	O 	0.88310 0.11130 0.38580 -0.55300
C 	C 	0.93270 0.03940 0.23120 -0.15400
C 	C 	0.93100 0.03720 0.11850 0.09200
H 	H 	0.88270 0.06110 0.08030 -0.01300
C 	C 	0.86350 0.08510 0.29340 0.45300
O 	O 	0.29050 0.59290 0.74360 -0.54600
O 	O 	0.38310 0.61130 0.88580 -0.52800
C 	C 	0.43270 0.53940 0.73120 -0.12500
C 	C 	0.43100 0.53720 0.61850 0.01000
H 	H 	0.38270 0.56110 0.58030 0.03100
C 	C 	0.36350 0.58510 0.79340 0.43900
In	In	0.81240 0.31240 0.75000 2.02000
In	In	0.31240 0.81240 0.25000 2.01600
In	In	0.68760 0.18760 0.25000 2.01600
In	In	0.18760 0.68760 0.75000 2.01900
In	In	0.68760 0.31240 -0.00000 2.00100
In	In	0.18760 0.81240 0.50000 2.01700
In	In	0.81240 0.18760 0.50000 2.01800
In	In	0.31240 0.68760 -0.00000 2.00100
O 	O 	0.75000 0.24500 0.87500 -0.84100
H 	H 	0.75000 0.18310 0.87500 0.24600
O 	O 	0.25000 0.74500 0.37500 -0.85800
H 	H 	0.25000 0.68310 0.37500 0.24000
O 	O 	0.75000 0.25500 0.37500 -0.85800
H 	H 	0.75000 0.31690 0.37500 0.24000
O 	O 	0.25000 0.75500 0.87500 -0.84100
H 	H 	0.25000 0.81690 0.87500 0.24600
O 	O 	0.75500 0.25000 0.12500 -0.86800
H 	H 	0.81690 0.25000 0.12500 0.23300
O 	O 	0.25500 0.75000 0.62500 -0.85700
H 	H 	0.31690 0.75000 0.62500 0.23900
O 	O 	0.74500 0.25000 0.62500 -0.85700
H 	H 	0.68310 0.25000 0.62500 0.23900
O 	O 	0.24500 0.75000 0.12500 -0.86800
H 	H 	0.18310 0.75000 0.12500 0.23200
C 	C 	-0.00000 -0.00000 0.71110 -0.00000
H 	H 	0.00000 0.00000 0.63340 0.06000
C 	C 	0.00000 0.00000 0.94040 0.08200
C 	C 	0.50000 0.50000 0.21110 0.08600
H 	H 	0.50000 0.50000 0.13340 0.02700
C 	C 	0.50000 0.50000 0.44040 -0.02300
C 	C 	0.00000 0.50000 0.96110 0.45600
H 	H 	-0.00000 0.50000 0.88340 -0.07900
C 	C 	-0.00000 0.50000 0.19040 -0.20400
C 	C 	0.50000 0.00000 0.46110 0.09400
H 	H 	0.50000 -0.00000 0.38340 0.03000
C 	C 	0.50000 -0.00000 0.69040 -0.10400
C 	C 	0.50000 -0.00000 0.03890 -0.34300
H 	H 	0.50000 -0.00000 0.11660 0.16900
C 	C 	0.50000 0.00000 0.80960 0.14900
C 	C 	-0.00000 0.50000 0.53890 0.02100
H 	H 	0.00000 0.50000 0.61660 0.06000
C 	C 	-0.00000 0.50000 0.30960 0.04700
C 	C 	0.50000 0.50000 0.78890 0.07000
H 	H 	0.50000 0.50000 0.86660 0.05900
C 	C 	0.50000 0.50000 0.55960 -0.00900
C 	C 	0.00000 0.00000 0.28890 0.07000
H 	H 	0.00000 -0.00000 0.36660 0.03500
C 	C 	0.00000 0.00000 0.05960 -0.16100
