data_crystal

_cell_length_a 31.97800
_cell_length_b 6.58120
_cell_length_c 16.86200
_cell_angle_alpha 90.00000
_cell_angle_beta  90.00000
_cell_angle_gamma 90.00000

_symmetry_space_group_name_	'P 1'
_symmetry_space_group_name_H-M	'P 1'

loop_
_symmetry_equiv_pos_as_xyz
  x,y,z

loop_
_atom_site_label
_atom_site_type_symbol
_atom_site_fract_x
_atom_site_fract_y
_atom_site_fract_z
_atom_site_charge
O 	O 	0.77950 0.15880 0.91820 -0.47600
C 	C 	0.84790 0.18040 0.78840 0.15500
C 	C 	0.87823 0.18040 0.73090 -0.20200
H 	H 	0.83690 0.31200 0.80940 0.01100
H 	H 	0.88929 0.31200 0.71000 0.09400
O 	O 	0.27950 0.65880 0.91820 -0.48200
C 	C 	0.34790 0.68040 0.78840 0.15500
C 	C 	0.37823 0.68040 0.73090 -0.19900
H 	H 	0.33690 0.81200 0.80940 0.00600
H 	H 	0.38929 0.81200 0.71000 0.09000
O 	O 	0.22050 0.84120 0.91820 -0.48800
C 	C 	0.15210 0.81960 0.78840 0.14300
C 	C 	0.12177 0.81960 0.73090 -0.21200
H 	H 	0.16310 0.68800 0.80940 0.01400
H 	H 	0.11071 0.68800 0.71000 0.09700
O 	O 	0.72050 0.34120 0.91820 -0.47600
C 	C 	0.65210 0.31960 0.78840 0.15700
C 	C 	0.62177 0.31960 0.73090 -0.19600
H 	H 	0.66310 0.18800 0.80940 0.01500
H 	H 	0.61071 0.18800 0.71000 0.10000
O 	O 	0.22050 0.15880 0.08180 -0.59800
C 	C 	0.15210 0.18040 0.21160 0.15200
C 	C 	0.12177 0.18040 0.26910 -0.21900
H 	H 	0.16310 0.31200 0.19060 -0.01300
H 	H 	0.11071 0.31200 0.29000 0.09000
O 	O 	0.72050 0.65880 0.08180 -0.60600
C 	C 	0.65210 0.68040 0.21160 0.15100
C 	C 	0.62177 0.68040 0.26910 -0.21600
H 	H 	0.66310 0.81200 0.19060 -0.01800
H 	H 	0.61071 0.81200 0.29000 0.08500
O 	O 	0.77950 0.84120 0.08180 -0.61300
C 	C 	0.84790 0.81960 0.21160 0.13800
C 	C 	0.87823 0.81960 0.26910 -0.23200
H 	H 	0.83690 0.68800 0.19060 -0.01100
H 	H 	0.88929 0.68800 0.29000 0.09100
O 	O 	0.27950 0.34120 0.08180 -0.60000
C 	C 	0.34790 0.31960 0.21160 0.15300
C 	C 	0.37823 0.31960 0.26910 -0.21400
H 	H 	0.33690 0.18800 0.19060 -0.00900
H 	H 	0.38929 0.18800 0.29000 0.09500
O 	O 	0.22050 0.84120 0.08180 -0.61300
C 	C 	0.15210 0.81960 0.21160 0.13800
C 	C 	0.12177 0.81960 0.26910 -0.23200
H 	H 	0.16310 0.68800 0.19060 -0.01100
H 	H 	0.11071 0.68800 0.29000 0.09200
O 	O 	0.72050 0.34120 0.08180 -0.60000
C 	C 	0.65210 0.31960 0.21160 0.15300
C 	C 	0.62177 0.31960 0.26910 -0.21400
H 	H 	0.66310 0.18800 0.19060 -0.00900
H 	H 	0.61071 0.18800 0.29000 0.09500
O 	O 	0.77950 0.15880 0.08180 -0.59900
C 	C 	0.84790 0.18040 0.21160 0.15200
C 	C 	0.87823 0.18040 0.26910 -0.22000
H 	H 	0.83690 0.31200 0.19060 -0.01300
H 	H 	0.88929 0.31200 0.29000 0.09000
O 	O 	0.27950 0.65880 0.08180 -0.60600
C 	C 	0.34790 0.68040 0.21160 0.15100
C 	C 	0.37823 0.68040 0.26910 -0.21600
H 	H 	0.33690 0.81200 0.19060 -0.01800
H 	H 	0.38929 0.81200 0.29000 0.08500
O 	O 	0.77950 0.84120 0.91820 -0.48800
C 	C 	0.84790 0.81960 0.78840 0.14400
C 	C 	0.87823 0.81960 0.73090 -0.21200
H 	H 	0.83690 0.68800 0.80940 0.01400
H 	H 	0.88929 0.68800 0.71000 0.09600
O 	O 	0.27950 0.34120 0.91820 -0.47600
C 	C 	0.34790 0.31960 0.78840 0.15700
C 	C 	0.37823 0.31960 0.73090 -0.19600
H 	H 	0.33690 0.18800 0.80940 0.01500
H 	H 	0.38929 0.18800 0.71000 0.10000
O 	O 	0.22050 0.15880 0.91820 -0.47500
C 	C 	0.15210 0.18040 0.78840 0.15600
C 	C 	0.12177 0.18040 0.73090 -0.20100
H 	H 	0.16310 0.31200 0.80940 0.01200
H 	H 	0.11071 0.31200 0.71000 0.09500
O 	O 	0.72050 0.65880 0.91820 -0.48100
C 	C 	0.65210 0.68040 0.78840 0.15600
C 	C 	0.62177 0.68040 0.73090 -0.19800
H 	H 	0.66310 0.81200 0.80940 0.00700
H 	H 	0.61071 0.81200 0.71000 0.09000
Al	Al	0.75000 0.25000 -0.00000 2.40000
Al	Al	0.25000 0.75000 -0.00000 2.40000
Al	Al	0.25000 0.25000 -0.00000 2.40000
Al	Al	0.75000 0.75000 -0.00000 2.40000
O 	O 	0.72510 0.00000 -0.00000 -1.07400
H 	H 	0.69380 0.00000 -0.00000 0.21100
O 	O 	0.22510 0.50000 -0.00000 -1.08300
H 	H 	0.19380 0.50000 -0.00000 0.20600
O 	O 	0.27490 0.00000 -0.00000 -1.07400
H 	H 	0.30620 0.00000 -0.00000 0.21100
O 	O 	0.77490 0.50000 -0.00000 -1.08300
H 	H 	0.80620 0.50000 -0.00000 0.20600
C 	C 	0.80620 0.00000 0.86750 0.39400
C 	C 	0.83280 0.00000 0.81710 -0.24900
C 	C 	0.89338 0.00000 0.70220 0.19500
C 	C 	0.92369 0.00000 0.64470 -0.17000
C 	C 	0.96660 0.00000 0.67140 0.15100
C 	C 	0.90959 0.00000 0.56330 0.14800
C 	C 	0.97940 0.00000 0.74580 -0.09100
C 	C 	0.87040 0.00000 0.53910 -0.09000
H 	H 	0.96100 0.00000 0.79380 0.08600
H 	H 	0.84510 0.00000 0.57400 0.06700
C 	C 	0.30620 0.50000 0.86750 0.38800
C 	C 	0.33280 0.50000 0.81710 -0.26200
C 	C 	0.39338 0.50000 0.70220 0.18000
C 	C 	0.42369 0.50000 0.64470 -0.16400
C 	C 	0.46660 0.50000 0.67140 0.14800
C 	C 	0.40959 0.50000 0.56330 0.14500
C 	C 	0.47940 0.50000 0.74580 -0.08500
C 	C 	0.37040 0.50000 0.53910 -0.09000
H 	H 	0.46100 0.50000 0.79380 0.08400
H 	H 	0.34510 0.50000 0.57400 0.06400
C 	C 	0.19380 0.00000 0.86750 0.39400
C 	C 	0.16720 0.00000 0.81710 -0.24900
C 	C 	0.10662 0.00000 0.70220 0.19500
C 	C 	0.07631 0.00000 0.64470 -0.16800
C 	C 	0.03340 0.00000 0.67140 0.15000
C 	C 	0.09041 0.00000 0.56330 0.14800
C 	C 	0.02060 0.00000 0.74580 -0.08000
C 	C 	0.12960 0.00000 0.53910 -0.09000
H 	H 	0.03900 0.00000 0.79380 0.08400
H 	H 	0.15490 0.00000 0.57400 0.06700
C 	C 	0.69380 0.50000 0.86750 0.38800
C 	C 	0.66720 0.50000 0.81710 -0.26200
C 	C 	0.60662 0.50000 0.70220 0.18000
C 	C 	0.57631 0.50000 0.64470 -0.16400
C 	C 	0.53340 0.50000 0.67140 0.14800
C 	C 	0.59041 0.50000 0.56330 0.14500
C 	C 	0.52060 0.50000 0.74580 -0.08500
C 	C 	0.62960 0.50000 0.53910 -0.09000
H 	H 	0.53900 0.50000 0.79380 0.08400
H 	H 	0.65490 0.50000 0.57400 0.06400
C 	C 	0.19380 0.00000 0.13250 0.38100
C 	C 	0.16720 0.00000 0.18290 -0.28000
C 	C 	0.10662 0.00000 0.29780 0.20000
C 	C 	0.07631 0.00000 0.35530 -0.17400
C 	C 	0.03340 0.00000 0.32860 0.14400
C 	C 	0.09041 0.00000 0.43670 0.15100
C 	C 	0.02060 0.00000 0.25420 -0.09200
C 	C 	0.12960 0.00000 0.46090 -0.09200
H 	H 	0.03900 0.00000 0.20620 0.04000
H 	H 	0.15490 0.00000 0.42600 0.06900
C 	C 	0.69380 0.50000 0.13250 0.37200
C 	C 	0.66720 0.50000 0.18290 -0.29400
C 	C 	0.60662 0.50000 0.29780 0.18200
C 	C 	0.57631 0.50000 0.35530 -0.17000
C 	C 	0.53340 0.50000 0.32860 0.14200
C 	C 	0.59041 0.50000 0.43670 0.14700
C 	C 	0.52060 0.50000 0.25420 -0.09800
C 	C 	0.62960 0.50000 0.46090 -0.09200
H 	H 	0.53900 0.50000 0.20620 0.03900
H 	H 	0.65490 0.50000 0.42600 0.06600
C 	C 	0.80620 0.00000 0.13250 0.38100
C 	C 	0.83280 0.00000 0.18290 -0.28000
C 	C 	0.89338 0.00000 0.29780 0.20000
C 	C 	0.92369 0.00000 0.35530 -0.17500
C 	C 	0.96660 0.00000 0.32860 0.14500
C 	C 	0.90959 0.00000 0.43670 0.15100
C 	C 	0.97940 0.00000 0.25420 -0.10300
C 	C 	0.87040 0.00000 0.46090 -0.09200
H 	H 	0.96100 0.00000 0.20620 0.04300
H 	H 	0.84510 0.00000 0.42600 0.06900
C 	C 	0.30620 0.50000 0.13250 0.37200
C 	C 	0.33280 0.50000 0.18290 -0.29400
C 	C 	0.39338 0.50000 0.29780 0.18200
C 	C 	0.42369 0.50000 0.35530 -0.17000
C 	C 	0.46660 0.50000 0.32860 0.14200
C 	C 	0.40959 0.50000 0.43670 0.14700
C 	C 	0.47940 0.50000 0.25420 -0.09800
C 	C 	0.37040 0.50000 0.46090 -0.09200
H 	H 	0.46100 0.50000 0.20620 0.03900
H 	H 	0.34510 0.50000 0.42600 0.06600
N 	N 	0.00000 0.00000 0.62550 -0.20200
H 	H 	0.00000 0.00000 0.56620 0.08800
N 	N 	0.50000 0.50000 0.62550 -0.20300
H 	H 	0.50000 0.50000 0.56620 0.08600
N 	N 	0.00000 0.00000 0.37450 -0.20300
H 	H 	0.00000 0.00000 0.43380 0.08700
N 	N 	0.50000 0.50000 0.37450 -0.20300
H 	H 	0.50000 0.50000 0.43380 0.08600
N 	N 	0.93380 0.00000 0.50000 -0.20400
H 	H 	0.96510 0.00000 0.50000 0.08500
N 	N 	0.43380 0.50000 0.50000 -0.20300
H 	H 	0.46510 0.50000 0.50000 0.08600
N 	N 	0.06620 0.00000 0.50000 -0.20400
H 	H 	0.03490 0.00000 0.50000 0.08700
N 	N 	0.56620 0.50000 0.50000 -0.20300
H 	H 	0.53490 0.50000 0.50000 0.08600
