data_crystal

_cell_length_a 26.32960
_cell_length_b 26.32960
_cell_length_c 23.31400
_cell_angle_alpha 90.00000
_cell_angle_beta  90.00000
_cell_angle_gamma 120.00000

_symmetry_space_group_name_	'P 1'
_symmetry_space_group_name_H-M	'P 1'

loop_
_symmetry_equiv_pos_as_xyz
  x,y,z

loop_
_atom_site_label
_atom_site_type_symbol
_atom_site_fract_x
_atom_site_fract_y
_atom_site_fract_z
_atom_site_charge
Cr	Cr	0.35819 0.00745 0.33737 1.52600
Mn	Mn	0.59854 0.09557 0.32759 1.30100
O 	O 	0.67420 0.27334 0.26663 -0.36900
O 	O 	0.61543 0.26560 0.36023 -0.37200
O 	O 	0.65160 0.17993 0.27460 -0.29600
O 	O 	0.59160 0.17260 0.37304 -0.27700
C 	C 	0.64960 0.22320 0.29150 0.22800
C 	C 	0.61620 0.21860 0.34640 0.22400
O 	O 	0.51960 0.09960 0.27920 -0.28500
O 	O 	0.51768 0.04805 0.38222 -0.34300
O 	O 	0.42268 0.05660 0.28422 -0.40400
O 	O 	0.42380 0.02106 0.38842 -0.41600
C 	C 	0.47250 0.06910 0.30320 0.22200
C 	C 	0.47300 0.04410 0.36350 0.25600
O 	O 	0.29964 0.98900 0.27680 -0.31200
O 	O 	0.35420 0.93533 0.30910 -0.34900
O 	O 	0.31750 0.87080 0.23850 -0.31800
O 	O 	0.26100 0.92850 0.20180 -0.21900
C 	C 	0.32370 0.91420 0.26530 0.27600
C 	C 	0.29110 0.94620 0.24490 0.22400
O 	O 	0.35381 0.07648 0.36480 -0.41900
O 	O 	0.29729 0.96700 0.39600 -0.20800
O 	O 	0.30390 0.10006 0.42360 -0.35100
O 	O 	0.24260 0.98510 0.45710 -0.08400
C 	C 	0.31500 0.06460 0.40180 0.33200
C 	C 	0.28190 0.00040 0.42160 -0.06800
Cr	Cr	0.02486 0.34078 0.67070 1.58500
Mn	Mn	0.26521 0.42890 0.66092 1.30900
O 	O 	0.34087 0.60667 0.59996 -0.36500
O 	O 	0.28210 0.59893 0.69356 -0.36700
O 	O 	0.31827 0.51326 0.60793 -0.29300
O 	O 	0.25827 0.50593 0.70637 -0.27300
C 	C 	0.31627 0.55653 0.62483 0.22900
C 	C 	0.28287 0.55193 0.67973 0.22400
O 	O 	0.18627 0.43293 0.61253 -0.27000
O 	O 	0.18435 0.38138 0.71555 -0.31000
O 	O 	0.08935 0.38993 0.61755 -0.36000
O 	O 	0.09047 0.35439 0.72175 -0.36900
C 	C 	0.13917 0.40243 0.63653 0.22800
C 	C 	0.13967 0.37743 0.69683 0.25700
O 	O 	0.96631 0.32233 0.61013 -0.40400
O 	O 	0.02087 0.26866 0.64243 -0.33100
O 	O 	0.98417 0.20413 0.57183 -0.33100
O 	O 	0.92767 0.26183 0.53513 -0.25500
C 	C 	0.99037 0.24753 0.59863 0.19500
C 	C 	0.95777 0.27953 0.57823 0.23700
O 	O 	0.02048 0.40981 0.69813 -0.31600
O 	O 	0.96396 0.30033 0.72933 -0.40100
O 	O 	0.97057 0.43339 0.75693 -0.31800
O 	O 	0.90927 0.31843 0.79043 -0.28500
C 	C 	0.98167 0.39793 0.73513 0.18300
C 	C 	0.94857 0.33373 0.75493 0.23000
Cr	Cr	0.69152 0.67412 0.00404 1.57300
Mn	Mn	0.93187 0.76224 0.99426 1.30200
O 	O 	0.00753 0.94001 0.93330 -0.25500
O 	O 	0.94876 0.93227 0.02690 -0.34300
O 	O 	0.98493 0.84660 0.94127 -0.28700
O 	O 	0.92493 0.83927 0.03971 -0.27500
C 	C 	0.98293 0.88987 0.95817 0.15500
C 	C 	0.94953 0.88527 0.01307 0.24500
O 	O 	0.85293 0.76627 0.94587 -0.27200
O 	O 	0.85101 0.71472 0.04889 -0.31100
O 	O 	0.75601 0.72327 0.95089 -0.37100
O 	O 	0.75713 0.68773 0.05509 -0.37700
C 	C 	0.80583 0.73577 0.96987 0.22500
C 	C 	0.80633 0.71077 0.03017 0.26500
O 	O 	0.63297 0.65567 0.94347 -0.37400
O 	O 	0.68753 0.60200 0.97577 -0.39500
O 	O 	0.65083 0.53747 0.90517 -0.32800
O 	O 	0.59433 0.59517 0.86847 -0.24200
C 	C 	0.65703 0.58087 0.93197 0.27200
C 	C 	0.62443 0.61287 0.91157 0.22300
O 	O 	0.68714 0.74315 0.03147 -0.37200
O 	O 	0.63062 0.63367 0.06267 -0.36500
O 	O 	0.63723 0.76673 0.09027 -0.31200
O 	O 	0.57593 0.65177 0.12377 -0.27200
C 	C 	0.64833 0.73127 0.06847 0.26000
C 	C 	0.61523 0.66707 0.08827 0.21600
Cr	Cr	0.99255 0.35074 0.33737 1.54700
Mn	Mn	0.90443 0.50297 0.32759 1.30500
O 	O 	0.72666 0.40086 0.26663 -0.36700
O 	O 	0.73440 0.34983 0.36023 -0.37000
O 	O 	0.82007 0.47167 0.27460 -0.29400
O 	O 	0.82740 0.41900 0.37304 -0.27600
C 	C 	0.77680 0.42640 0.29150 0.22800
C 	C 	0.78140 0.39760 0.34640 0.22400
O 	O 	0.90040 0.42000 0.27920 -0.28000
O 	O 	0.95195 0.46963 0.38222 -0.32900
O 	O 	0.94340 0.36608 0.28422 -0.38900
O 	O 	0.97894 0.40274 0.38842 -0.39800
C 	C 	0.93090 0.40340 0.30320 0.22600
C 	C 	0.95590 0.42890 0.36350 0.25700
O 	O 	0.01100 0.31064 0.27680 -0.34500
O 	O 	0.06467 0.41887 0.30910 -0.37000
O 	O 	0.12920 0.44670 0.23850 -0.32200
O 	O 	0.07150 0.33250 0.20180 -0.23400
C 	C 	0.08580 0.40950 0.26530 0.27300
C 	C 	0.05380 0.34490 0.24490 0.22400
O 	O 	0.92352 0.27733 0.36480 -0.40100
O 	O 	0.03300 0.33029 0.39600 -0.28700
O 	O 	0.89994 0.20384 0.42360 -0.33800
O 	O 	0.01490 0.25750 0.45710 -0.17800
C 	C 	0.93540 0.25040 0.40180 0.29600
C 	C 	0.99960 0.28150 0.42160 0.07000
Cr	Cr	0.65922 0.68407 0.67070 1.57000
Mn	Mn	0.57110 0.83630 0.66092 1.31000
O 	O 	0.39333 0.73419 0.59996 -0.36200
O 	O 	0.40107 0.68316 0.69356 -0.36800
O 	O 	0.48674 0.80500 0.60793 -0.28800
O 	O 	0.49407 0.75233 0.70637 -0.27300
C 	C 	0.44347 0.75973 0.62483 0.22900
C 	C 	0.44807 0.73093 0.67973 0.22500
O 	O 	0.56707 0.75333 0.61253 -0.27200
O 	O 	0.61862 0.80296 0.71555 -0.30900
O 	O 	0.61007 0.69941 0.61755 -0.37100
O 	O 	0.64561 0.73607 0.72175 -0.37600
C 	C 	0.59757 0.73673 0.63653 0.23000
C 	C 	0.62257 0.76223 0.69683 0.25900
O 	O 	0.67767 0.64397 0.61013 -0.37400
O 	O 	0.73134 0.75220 0.64243 -0.38700
O 	O 	0.79587 0.78003 0.57183 -0.32000
O 	O 	0.73817 0.66583 0.53513 -0.24300
C 	C 	0.75247 0.74283 0.59863 0.27100
C 	C 	0.72047 0.67823 0.57823 0.22400
O 	O 	0.59019 0.61066 0.69813 -0.37900
O 	O 	0.69967 0.66362 0.72933 -0.36700
O 	O 	0.56661 0.53717 0.75693 -0.31900
O 	O 	0.68157 0.59083 0.79043 -0.27300
C 	C 	0.60207 0.58373 0.73513 0.26000
C 	C 	0.66627 0.61483 0.75493 0.21500
Cr	Cr	0.32588 0.01741 0.00404 1.53000
Mn	Mn	0.23776 0.16964 0.99426 1.30600
O 	O 	0.05999 0.06753 0.93330 -0.37600
O 	O 	0.06773 0.01650 0.02690 -0.39000
O 	O 	0.15340 0.13834 0.94127 -0.29400
O 	O 	0.16073 0.08567 0.03971 -0.28500
C 	C 	0.11013 0.09307 0.95817 0.22000
C 	C 	0.11473 0.06427 0.01307 0.23300
O 	O 	0.23373 0.08667 0.94587 -0.28700
O 	O 	0.28528 0.13630 0.04889 -0.31900
O 	O 	0.27673 0.03275 0.95089 -0.40900
O 	O 	0.31227 0.06941 0.05509 -0.40900
C 	C 	0.26423 0.07007 0.96987 0.22200
C 	C 	0.28923 0.09557 0.03017 0.26500
O 	O 	0.34433 0.97731 0.94347 -0.21300
O 	O 	0.39800 0.08554 0.97577 -0.43500
O 	O 	0.46253 0.11337 0.90517 -0.35800
O 	O 	0.40483 0.99917 0.86847 -0.05200
C 	C 	0.41913 0.07617 0.93197 0.34300
C 	C 	0.38713 0.01157 0.91157 -0.06500
O 	O 	0.25685 0.94400 0.03147 -0.33200
O 	O 	0.36633 0.99696 0.06267 -0.30600
O 	O 	0.23327 0.87051 0.09027 -0.30700
O 	O 	0.34823 0.92417 0.12377 -0.25300
C 	C 	0.26873 0.91707 0.06847 0.26100
C 	C 	0.33293 0.94817 0.08827 0.21500
Cr	Cr	0.64926 0.64181 0.33737 1.57000
Mn	Mn	0.49703 0.40146 0.32759 1.30900
O 	O 	0.59914 0.32580 0.26663 -0.36800
O 	O 	0.65017 0.38457 0.36023 -0.37000
O 	O 	0.52833 0.34840 0.27460 -0.29500
O 	O 	0.58100 0.40840 0.37304 -0.27500
C 	C 	0.57360 0.35040 0.29150 0.22900
C 	C 	0.60240 0.38380 0.34640 0.22300
O 	O 	0.58000 0.48040 0.27920 -0.27400
O 	O 	0.53037 0.48232 0.38222 -0.31200
O 	O 	0.63392 0.57732 0.28422 -0.37200
O 	O 	0.59726 0.57620 0.38842 -0.37800
C 	C 	0.59660 0.52750 0.30320 0.22900
C 	C 	0.57110 0.52700 0.36350 0.25800
O 	O 	0.68936 0.70036 0.27680 -0.37000
O 	O 	0.58113 0.64580 0.30910 -0.39100
O 	O 	0.55330 0.68250 0.23850 -0.32600
O 	O 	0.66750 0.73900 0.20180 -0.23900
C 	C 	0.59050 0.67630 0.26530 0.27300
C 	C 	0.65510 0.70890 0.24490 0.22400
O 	O 	0.72267 0.64619 0.36480 -0.38000
O 	O 	0.66971 0.70271 0.39600 -0.36400
O 	O 	0.79616 0.69610 0.42360 -0.31900
O 	O 	0.74250 0.75740 0.45710 -0.26600
C 	C 	0.74960 0.68500 0.40180 0.26100
C 	C 	0.71850 0.71810 0.42160 0.21500
Cr	Cr	0.31593 0.97514 0.67070 1.59900
Mn	Mn	0.16370 0.73479 0.66092 1.31000
O 	O 	0.26581 0.65913 0.59996 -0.36300
O 	O 	0.31684 0.71790 0.69356 -0.36600
O 	O 	0.19500 0.68173 0.60793 -0.29000
O 	O 	0.24767 0.74173 0.70637 -0.27100
C 	C 	0.24027 0.68373 0.62483 0.22900
C 	C 	0.26907 0.71713 0.67973 0.22500
O 	O 	0.24667 0.81373 0.61253 -0.26600
O 	O 	0.19704 0.81565 0.71555 -0.30300
O 	O 	0.30059 0.91065 0.61755 -0.34700
O 	O 	0.26393 0.90953 0.72175 -0.35400
C 	C 	0.26327 0.86083 0.63653 0.22800
C 	C 	0.23777 0.86033 0.69683 0.25700
O 	O 	0.35603 0.03369 0.61013 -0.43100
O 	O 	0.24780 0.97913 0.64243 -0.26000
O 	O 	0.21997 0.01583 0.57183 -0.32200
O 	O 	0.33417 0.07233 0.53513 -0.26500
C 	C 	0.25717 0.00963 0.59863 0.12100
C 	C 	0.32177 0.04223 0.57823 0.25300
O 	O 	0.38934 0.97952 0.69813 -0.25600
O 	O 	0.33638 0.03604 0.72933 -0.42500
O 	O 	0.46283 0.02943 0.75693 -0.31800
O 	O 	0.40917 0.09073 0.79043 -0.29200
C 	C 	0.41627 0.01833 0.73513 0.11100
C 	C 	0.38517 0.05143 0.75493 0.24300
Cr	Cr	0.98259 0.30848 0.00404 1.55100
Mn	Mn	0.83036 0.06813 0.99426 1.29600
O 	O 	0.93247 0.99247 0.93330 -0.26000
O 	O 	0.98350 0.05124 0.02690 -0.42600
O 	O 	0.86166 0.01507 0.94127 -0.30700
O 	O 	0.91433 0.07507 0.03971 -0.30200
C 	C 	0.90693 0.01707 0.95817 0.09100
C 	C 	0.93573 0.05047 0.01307 0.25600
O 	O 	0.91333 0.14707 0.94587 -0.28700
O 	O 	0.86370 0.14899 0.04889 -0.31800
O 	O 	0.96725 0.24399 0.95089 -0.39500
O 	O 	0.93059 0.24287 0.05509 -0.39600
C 	C 	0.92993 0.19417 0.96987 0.22400
C 	C 	0.90443 0.19367 0.03017 0.26400
O 	O 	0.02269 0.36703 0.94347 -0.29400
O 	O 	0.91446 0.31247 0.97577 -0.41600
O 	O 	0.88663 0.34917 0.90517 -0.34400
O 	O 	0.00083 0.40567 0.86847 -0.14500
C 	C 	0.92383 0.34297 0.93197 0.30800
C 	C 	0.98843 0.37557 0.91157 0.07600
O 	O 	0.05600 0.31286 0.03147 -0.35600
O 	O 	0.00304 0.36938 0.06267 -0.33500
O 	O 	0.12949 0.36277 0.09027 -0.31500
O 	O 	0.07583 0.42407 0.12377 -0.26200
C 	C 	0.08293 0.35167 0.06847 0.26100
C 	C 	0.05183 0.38477 0.08827 0.21500
Cr	Cr	0.99255 0.64181 0.83737 1.54700
Mn	Mn	0.90443 0.40146 0.82759 1.30500
O 	O 	0.72666 0.32580 0.76663 -0.36900
O 	O 	0.73440 0.38457 0.86023 -0.37100
O 	O 	0.82007 0.34840 0.77460 -0.29600
O 	O 	0.82740 0.40840 0.87304 -0.27600
C 	C 	0.77680 0.35040 0.79150 0.22800
C 	C 	0.78140 0.38380 0.84640 0.22300
O 	O 	0.90040 0.48040 0.77920 -0.28000
O 	O 	0.95195 0.48232 0.88222 -0.32900
O 	O 	0.94340 0.57732 0.78422 -0.38900
O 	O 	0.97894 0.57620 0.88842 -0.39900
C 	C 	0.93090 0.52750 0.80320 0.22500
C 	C 	0.95590 0.52700 0.86350 0.25700
O 	O 	0.01100 0.70036 0.77680 -0.33800
O 	O 	0.06467 0.64580 0.80910 -0.36900
O 	O 	0.12920 0.68250 0.73850 -0.32200
O 	O 	0.07150 0.73900 0.70180 -0.22600
C 	C 	0.08580 0.67630 0.76530 0.27500
C 	C 	0.05380 0.70890 0.74490 0.22400
O 	O 	0.92352 0.64619 0.86480 -0.40000
O 	O 	0.03300 0.70271 0.89600 -0.28200
O 	O 	0.89994 0.69610 0.92360 -0.33600
O 	O 	0.01490 0.75740 0.95710 -0.17100
C 	C 	0.93540 0.68500 0.90180 0.29800
C 	C 	0.99960 0.71810 0.92160 0.06600
Cr	Cr	0.65922 0.97514 0.17070 1.59800
Mn	Mn	0.57110 0.73479 0.16092 1.30900
O 	O 	0.39333 0.65913 0.09996 -0.36400
O 	O 	0.40107 0.71790 0.19356 -0.36500
O 	O 	0.48674 0.68173 0.10793 -0.29100
O 	O 	0.49407 0.74173 0.20637 -0.27100
C 	C 	0.44347 0.68373 0.12483 0.22900
C 	C 	0.44807 0.71713 0.17973 0.22400
O 	O 	0.56707 0.81373 0.11253 -0.26600
O 	O 	0.61862 0.81565 0.21555 -0.30600
O 	O 	0.61007 0.91065 0.11755 -0.34800
O 	O 	0.64561 0.90953 0.22175 -0.35700
C 	C 	0.59757 0.86083 0.13653 0.22700
C 	C 	0.62257 0.86033 0.19683 0.25600
O 	O 	0.67767 0.03369 0.11013 -0.42800
O 	O 	0.73134 0.97913 0.14243 -0.27100
O 	O 	0.79587 0.01583 0.07183 -0.32600
O 	O 	0.73817 0.07233 0.03513 -0.26000
C 	C 	0.75247 0.00963 0.09863 0.12800
C 	C 	0.72047 0.04223 0.07823 0.25100
O 	O 	0.59019 0.97952 0.19813 -0.25900
O 	O 	0.69967 0.03604 0.22933 -0.42600
O 	O 	0.56661 0.02943 0.25693 -0.31800
O 	O 	0.68157 0.09073 0.29043 -0.29300
C 	C 	0.60207 0.01833 0.23513 0.11400
C 	C 	0.66627 0.05143 0.25493 0.24300
Cr	Cr	0.32588 0.30848 0.50404 1.57000
Mn	Mn	0.23776 0.06813 0.49426 1.29800
O 	O 	0.05999 0.99247 0.43330 -0.21500
O 	O 	0.06773 0.05124 0.52690 -0.38200
O 	O 	0.15340 0.01507 0.44127 -0.29800
O 	O 	0.16073 0.07507 0.53971 -0.29000
C 	C 	0.11013 0.01707 0.45817 0.09700
C 	C 	0.11473 0.05047 0.51307 0.25000
O 	O 	0.23373 0.14707 0.44587 -0.27700
O 	O 	0.28528 0.14899 0.54889 -0.31400
O 	O 	0.27673 0.24399 0.45089 -0.37300
O 	O 	0.31227 0.24287 0.55509 -0.37900
C 	C 	0.26423 0.19417 0.46987 0.23000
C 	C 	0.28923 0.19367 0.53017 0.25800
O 	O 	0.34433 0.36703 0.44347 -0.37200
O 	O 	0.39800 0.31247 0.47577 -0.39300
O 	O 	0.46253 0.34917 0.40517 -0.32700
O 	O 	0.40483 0.40567 0.36847 -0.24200
C 	C 	0.41913 0.34297 0.43197 0.27200
C 	C 	0.38713 0.37557 0.41157 0.22300
O 	O 	0.25685 0.31286 0.53147 -0.37800
O 	O 	0.36633 0.36938 0.56267 -0.36800
O 	O 	0.23327 0.36277 0.59027 -0.31600
O 	O 	0.34823 0.42407 0.62377 -0.27200
C 	C 	0.26873 0.35167 0.56847 0.26000
C 	C 	0.33293 0.38477 0.58827 0.21500
Cr	Cr	0.64926 0.00745 0.83737 1.52700
Mn	Mn	0.49703 0.09557 0.82759 1.30200
O 	O 	0.59914 0.27334 0.76663 -0.36800
O 	O 	0.65017 0.26560 0.86023 -0.37100
O 	O 	0.52833 0.17993 0.77460 -0.29600
O 	O 	0.58100 0.17260 0.87304 -0.27700
C 	C 	0.57360 0.22320 0.79150 0.22800
C 	C 	0.60240 0.21860 0.84640 0.22400
O 	O 	0.58000 0.09960 0.77920 -0.28500
O 	O 	0.53037 0.04805 0.88222 -0.34400
O 	O 	0.63392 0.05660 0.78422 -0.40500
O 	O 	0.59726 0.02106 0.88842 -0.41700
C 	C 	0.59660 0.06910 0.80320 0.22200
C 	C 	0.57110 0.04410 0.86350 0.25600
O 	O 	0.68936 0.98900 0.77680 -0.31600
O 	O 	0.58113 0.93533 0.80910 -0.35000
O 	O 	0.55330 0.87080 0.73850 -0.31900
O 	O 	0.66750 0.92850 0.70180 -0.22400
C 	C 	0.59050 0.91420 0.76530 0.27500
C 	C 	0.65510 0.94620 0.74490 0.22400
O 	O 	0.72267 0.07648 0.86480 -0.42000
O 	O 	0.66971 0.96700 0.89600 -0.21400
O 	O 	0.79616 0.10006 0.92360 -0.35300
O 	O 	0.74250 0.98510 0.95710 -0.09400
C 	C 	0.74960 0.06460 0.90180 0.32900
C 	C 	0.71850 0.00040 0.92160 -0.06300
Cr	Cr	0.31593 0.34078 0.17070 1.57000
Mn	Mn	0.16370 0.42890 0.16092 1.30900
O 	O 	0.26581 0.60667 0.09996 -0.36300
O 	O 	0.31684 0.59893 0.19356 -0.36800
O 	O 	0.19500 0.51326 0.10793 -0.28900
O 	O 	0.24767 0.50593 0.20637 -0.27300
C 	C 	0.24027 0.55653 0.12483 0.22900
C 	C 	0.26907 0.55193 0.17973 0.22500
O 	O 	0.24667 0.43293 0.11253 -0.27200
O 	O 	0.19704 0.38138 0.21555 -0.31200
O 	O 	0.30059 0.38993 0.11755 -0.37000
O 	O 	0.26393 0.35439 0.22175 -0.37800
C 	C 	0.26327 0.40243 0.13653 0.22900
C 	C 	0.23777 0.37743 0.19683 0.25800
O 	O 	0.35603 0.32233 0.11013 -0.37300
O 	O 	0.24780 0.26866 0.14243 -0.39200
O 	O 	0.21997 0.20413 0.07183 -0.32400
O 	O 	0.33417 0.26183 0.03513 -0.24000
C 	C 	0.25717 0.24753 0.09863 0.27100
C 	C 	0.32177 0.27953 0.07823 0.22300
O 	O 	0.38934 0.40981 0.19813 -0.37900
O 	O 	0.33638 0.30033 0.22933 -0.37000
O 	O 	0.46283 0.43339 0.25693 -0.31800
O 	O 	0.40917 0.31843 0.29043 -0.27400
C 	C 	0.41627 0.39793 0.23513 0.26000
C 	C 	0.38517 0.33373 0.25493 0.21500
Cr	Cr	0.98259 0.67412 0.50404 1.54700
Mn	Mn	0.83036 0.76224 0.49426 1.31000
O 	O 	0.93247 0.94001 0.43330 -0.34100
O 	O 	0.98350 0.93227 0.52690 -0.34900
O 	O 	0.86166 0.84660 0.44127 -0.28600
O 	O 	0.91433 0.83927 0.53971 -0.27300
C 	C 	0.90693 0.88987 0.45817 0.23000
C 	C 	0.93573 0.88527 0.51307 0.22600
O 	O 	0.91333 0.76627 0.44587 -0.27800
O 	O 	0.86370 0.71472 0.54889 -0.31500
O 	O 	0.96725 0.72327 0.45089 -0.38800
O 	O 	0.93059 0.68773 0.55509 -0.39400
C 	C 	0.92993 0.73577 0.46987 0.22900
C 	C 	0.90443 0.71077 0.53017 0.25800
O 	O 	0.02269 0.65567 0.44347 -0.28600
O 	O 	0.91446 0.60200 0.47577 -0.41300
O 	O 	0.88663 0.53747 0.40517 -0.34300
O 	O 	0.00083 0.59517 0.36847 -0.14100
C 	C 	0.92383 0.58087 0.43197 0.31000
C 	C 	0.98843 0.61287 0.41157 0.07100
O 	O 	0.05600 0.74315 0.53147 -0.35000
O 	O 	0.00304 0.63367 0.56267 -0.33600
O 	O 	0.12949 0.76673 0.59027 -0.30800
O 	O 	0.07583 0.65177 0.62377 -0.26200
C 	C 	0.08293 0.73127 0.56847 0.26000
C 	C 	0.05183 0.66707 0.58827 0.21600
Cr	Cr	0.35819 0.35074 0.83737 1.57000
Mn	Mn	0.59854 0.50297 0.82759 1.30900
O 	O 	0.67420 0.40086 0.76663 -0.36800
O 	O 	0.61543 0.34983 0.86023 -0.37000
O 	O 	0.65160 0.47167 0.77460 -0.29500
O 	O 	0.59160 0.41900 0.87304 -0.27600
C 	C 	0.64960 0.42640 0.79150 0.22800
C 	C 	0.61620 0.39760 0.84640 0.22400
O 	O 	0.51960 0.42000 0.77920 -0.27400
O 	O 	0.51768 0.46963 0.88222 -0.31300
O 	O 	0.42268 0.36608 0.78422 -0.37300
O 	O 	0.42380 0.40274 0.88842 -0.37900
C 	C 	0.47250 0.40340 0.80320 0.22900
C 	C 	0.47300 0.42890 0.86350 0.25800
O 	O 	0.29964 0.31064 0.77680 -0.37400
O 	O 	0.35420 0.41887 0.80910 -0.39200
O 	O 	0.31750 0.44670 0.73850 -0.32600
O 	O 	0.26100 0.33250 0.70180 -0.24200
C 	C 	0.32370 0.40950 0.76530 0.27200
C 	C 	0.29110 0.34490 0.74490 0.22400
O 	O 	0.35381 0.27733 0.86480 -0.38100
O 	O 	0.29729 0.33029 0.89600 -0.36700
O 	O 	0.30390 0.20384 0.92360 -0.32200
O 	O 	0.24260 0.25750 0.95710 -0.27200
C 	C 	0.31500 0.25040 0.90180 0.26000
C 	C 	0.28190 0.28150 0.92160 0.21400
Cr	Cr	0.02486 0.68407 0.17070 1.58500
Mn	Mn	0.26521 0.83630 0.16092 1.31000
O 	O 	0.34087 0.73419 0.09996 -0.36100
O 	O 	0.28210 0.68316 0.19356 -0.36600
O 	O 	0.31827 0.80500 0.10793 -0.28600
O 	O 	0.25827 0.75233 0.20637 -0.27100
C 	C 	0.31627 0.75973 0.12483 0.22900
C 	C 	0.28287 0.73093 0.17973 0.22500
O 	O 	0.18627 0.75333 0.11253 -0.26800
O 	O 	0.18435 0.80296 0.21555 -0.30400
O 	O 	0.08935 0.69941 0.11755 -0.35700
O 	O 	0.09047 0.73607 0.22175 -0.36300
C 	C 	0.13917 0.73673 0.13653 0.22900
C 	C 	0.13967 0.76223 0.19683 0.25800
O 	O 	0.96631 0.64397 0.11013 -0.40200
O 	O 	0.02087 0.75220 0.14243 -0.31800
O 	O 	0.98417 0.78003 0.07183 -0.31600
O 	O 	0.92767 0.66583 0.03513 -0.25100
C 	C 	0.99037 0.74283 0.09863 0.19300
C 	C 	0.95777 0.67823 0.07823 0.24000
O 	O 	0.02048 0.61066 0.19813 -0.31500
O 	O 	0.96396 0.66362 0.22933 -0.39500
O 	O 	0.97057 0.53717 0.25693 -0.31800
O 	O 	0.90927 0.59083 0.29043 -0.28200
C 	C 	0.98167 0.58373 0.23513 0.18300
C 	C 	0.94857 0.61483 0.25493 0.23000
Cr	Cr	0.69152 0.01741 0.50404 1.52700
Mn	Mn	0.93187 0.16964 0.49426 1.30300
O 	O 	0.00753 0.06753 0.43330 -0.33400
O 	O 	0.94876 0.01650 0.52690 -0.43400
O 	O 	0.98493 0.13834 0.44127 -0.30500
O 	O 	0.92493 0.08567 0.53971 -0.30100
C 	C 	0.98293 0.09307 0.45817 0.15800
C 	C 	0.94953 0.06427 0.51307 0.23700
O 	O 	0.85293 0.08667 0.44587 -0.29200
O 	O 	0.85101 0.13630 0.54889 -0.32200
O 	O 	0.75601 0.03275 0.45089 -0.41100
O 	O 	0.75713 0.06941 0.55509 -0.41100
C 	C 	0.80583 0.07007 0.46987 0.22900
C 	C 	0.80633 0.09557 0.53017 0.25600
O 	O 	0.63297 0.97731 0.44347 -0.21300
O 	O 	0.68753 0.08554 0.47577 -0.43200
O 	O 	0.65083 0.11337 0.40517 -0.35700
O 	O 	0.59433 0.99917 0.36847 -0.05400
C 	C 	0.65703 0.07617 0.43197 0.34200
C 	C 	0.62443 0.01157 0.41157 -0.06200
O 	O 	0.68714 0.94400 0.53147 -0.33800
O 	O 	0.63062 0.99696 0.56267 -0.30800
O 	O 	0.63723 0.87051 0.59027 -0.31200
O 	O 	0.57593 0.92417 0.62377 -0.25300
C 	C 	0.64833 0.91707 0.56847 0.26100
C 	C 	0.61523 0.94817 0.58827 0.21400
Cr	Cr	0.66667 0.33333 0.31186 1.56600
Cr	Cr	0.33333 0.66667 0.64519 1.56600
Cr	Cr	-0.00000 -0.00000 0.97853 1.54300
Cr	Cr	0.66667 0.33333 0.81186 1.56600
Cr	Cr	0.33333 0.66667 0.14519 1.56600
Cr	Cr	-0.00000 0.00000 0.47853 1.54600
