data_crystal

_cell_length_a 12.31560
_cell_length_b 15.51130
_cell_length_c 18.95210
_cell_angle_alpha 90.00000
_cell_angle_beta  90.00000
_cell_angle_gamma 90.00000

_symmetry_space_group_name_	'P 1'
_symmetry_space_group_name_H-M	'P 1'

loop_
_symmetry_equiv_pos_as_xyz
  x,y,z

loop_
_atom_site_label
_atom_site_type_symbol
_atom_site_fract_x
_atom_site_fract_y
_atom_site_fract_z
_atom_site_charge
C 	C 	0.50710 0.66496 0.93787 0.05500
H 	H 	0.49810 0.61900 0.90690 0.00600
C 	C 	0.43760 0.67141 0.99363 -0.08900
H 	H 	0.38460 0.62950 0.00040 0.07300
C 	C 	0.44539 0.73917 0.03972 -0.01000
C 	C 	0.52996 0.79594 0.02858 -0.08600
H 	H 	0.54090 0.84200 0.05910 0.07200
C 	C 	0.59746 0.78377 0.97222 0.05200
H 	H 	0.65460 0.82230 0.96630 0.01000
C 	C 	0.56106 0.57884 0.77416 0.29100
C 	C 	0.49908 0.49774 0.75491 -0.01400
C 	C 	0.52561 0.42024 0.78646 -0.09200
H 	H 	0.58080 0.41750 0.81990 0.08500
C 	C 	0.46888 0.34655 0.76764 0.04800
H 	H 	0.48730 0.29490 0.78940 0.00300
C 	C 	0.36345 0.42157 0.69067 0.04400
H 	H 	0.30720 0.42280 0.65790 0.02100
C 	C 	0.41615 0.49830 0.70663 -0.08400
H 	H 	0.39540 0.54940 0.68480 0.07900
C 	C 	0.36229 0.75298 0.09572 0.27500
Cd	Cd	0.68820 0.71601 0.81799 1.20400
N 	N 	0.58699 0.72046 0.92525 -0.21600
N 	N 	0.38980 0.34592 0.72019 -0.22900
O 	O 	0.64825 0.57056 0.80599 -0.39000
O 	O 	0.52076 0.64998 0.75884 -0.36800
O 	O 	0.34507 0.82863 0.11646 -0.36400
O 	O 	0.30927 0.68915 0.11708 -0.37100
C 	C 	0.99290 0.33504 0.43787 0.05500
H 	H 	0.00190 0.38100 0.40690 0.00500
C 	C 	0.06240 0.32859 0.49363 -0.09100
H 	H 	0.11540 0.37050 0.50040 0.07300
C 	C 	0.05461 0.26083 0.53972 -0.01000
C 	C 	0.97004 0.20406 0.52858 -0.08700
H 	H 	0.95910 0.15800 0.55910 0.07100
C 	C 	0.90254 0.21623 0.47222 0.05100
H 	H 	0.84540 0.17770 0.46630 0.01000
C 	C 	0.93894 0.42116 0.27416 0.29200
C 	C 	0.00092 0.50226 0.25491 -0.01500
C 	C 	0.97439 0.57976 0.28646 -0.09100
H 	H 	0.91920 0.58250 0.31990 0.08500
C 	C 	0.03112 0.65345 0.26764 0.04700
H 	H 	0.01270 0.70510 0.28940 0.00300
C 	C 	0.13655 0.57843 0.19067 0.04400
H 	H 	0.19280 0.57720 0.15790 0.02100
C 	C 	0.08385 0.50170 0.20663 -0.08300
H 	H 	0.10460 0.45060 0.18480 0.07800
C 	C 	0.13771 0.24702 0.59572 0.27500
Cd	Cd	0.81180 0.28399 0.31799 1.20400
N 	N 	0.91301 0.27954 0.42525 -0.21600
N 	N 	0.11020 0.65408 0.22019 -0.22800
O 	O 	0.85175 0.42944 0.30599 -0.39000
O 	O 	0.97924 0.35002 0.25884 -0.36800
O 	O 	0.15493 0.17137 0.61646 -0.36400
O 	O 	0.19073 0.31085 0.61708 -0.37100
C 	C 	0.49290 0.16496 0.56213 0.05500
H 	H 	0.50190 0.11900 0.59310 0.00500
C 	C 	0.56240 0.17141 0.50637 -0.09000
H 	H 	0.61540 0.12950 0.49960 0.07300
C 	C 	0.55461 0.23917 0.46028 -0.01000
C 	C 	0.47004 0.29594 0.47142 -0.08700
H 	H 	0.45910 0.34200 0.44090 0.07100
C 	C 	0.40254 0.28377 0.52778 0.05100
H 	H 	0.34540 0.32230 0.53370 0.01000
C 	C 	0.43894 0.07884 0.72584 0.29100
C 	C 	0.50092 0.99774 0.74509 -0.01400
C 	C 	0.47439 0.92024 0.71354 -0.09200
H 	H 	0.41920 0.91750 0.68010 0.08500
C 	C 	0.53112 0.84655 0.73236 0.04800
H 	H 	0.51270 0.79490 0.71060 0.00300
C 	C 	0.63655 0.92157 0.80933 0.04400
H 	H 	0.69280 0.92280 0.84210 0.02100
C 	C 	0.58385 0.99830 0.79337 -0.08400
H 	H 	0.60460 0.04940 0.81520 0.07900
C 	C 	0.63771 0.25298 0.40428 0.27500
Cd	Cd	0.31180 0.21601 0.68201 1.20400
N 	N 	0.41301 0.22046 0.57475 -0.21600
N 	N 	0.61020 0.84592 0.77981 -0.22900
O 	O 	0.35175 0.07056 0.69401 -0.39000
O 	O 	0.47924 0.14998 0.74116 -0.36800
O 	O 	0.65493 0.32863 0.38354 -0.36400
O 	O 	0.69073 0.18915 0.38292 -0.37100
C 	C 	0.00710 0.83504 0.06213 0.05200
H 	H 	0.99810 0.88100 0.09310 0.00600
C 	C 	0.93760 0.82859 0.00637 -0.08700
H 	H 	0.88460 0.87050 0.99960 0.07100
C 	C 	0.94539 0.76083 0.96028 -0.01400
C 	C 	0.02996 0.70406 0.97142 -0.08400
H 	H 	0.04090 0.65800 0.94090 0.07000
C 	C 	0.09746 0.71623 0.02778 0.04900
H 	H 	0.15460 0.67770 0.03370 0.01100
C 	C 	0.06106 0.92116 0.22584 0.29100
C 	C 	0.99908 0.00226 0.24509 -0.01300
C 	C 	0.02561 0.07976 0.21354 -0.09400
H 	H 	0.08080 0.08250 0.18010 0.08600
C 	C 	0.96888 0.15345 0.23236 0.04900
H 	H 	0.98730 0.20510 0.21060 0.00200
C 	C 	0.86345 0.07843 0.30933 0.04500
H 	H 	0.80720 0.07720 0.34210 0.02100
C 	C 	0.91615 0.00170 0.29337 -0.08400
H 	H 	0.89540 0.95060 0.31520 0.07900
C 	C 	0.86229 0.74702 0.90428 0.27600
Cd	Cd	0.18820 0.78399 0.18201 1.20400
N 	N 	0.08699 0.77954 0.07475 -0.21500
N 	N 	0.88980 0.15408 0.27981 -0.22900
O 	O 	0.14825 0.92944 0.19401 -0.39000
O 	O 	0.02076 0.85002 0.24116 -0.36800
O 	O 	0.84507 0.67137 0.88354 -0.36400
O 	O 	0.80927 0.81085 0.88292 -0.37100
C 	C 	0.49290 0.33504 0.06213 0.05400
H 	H 	0.50190 0.38100 0.09310 0.00500
C 	C 	0.56240 0.32859 0.00637 -0.09000
H 	H 	0.61540 0.37050 0.99960 0.07200
C 	C 	0.55461 0.26083 0.96028 -0.01100
C 	C 	0.47004 0.20406 0.97142 -0.08700
H 	H 	0.45910 0.15800 0.94090 0.07100
C 	C 	0.40254 0.21623 0.02778 0.05100
H 	H 	0.34540 0.17770 0.03370 0.01000
C 	C 	0.43894 0.42116 0.22584 0.29100
C 	C 	0.50092 0.50226 0.24509 -0.01400
C 	C 	0.47439 0.57976 0.21354 -0.09200
H 	H 	0.41920 0.58250 0.18010 0.08500
C 	C 	0.53112 0.65345 0.23236 0.04800
H 	H 	0.51270 0.70510 0.21060 0.00300
C 	C 	0.63655 0.57843 0.30933 0.04400
H 	H 	0.69280 0.57720 0.34210 0.02100
C 	C 	0.58385 0.50170 0.29337 -0.08400
H 	H 	0.60460 0.45060 0.31520 0.07900
C 	C 	0.63771 0.24702 0.90428 0.27500
Cd	Cd	0.31180 0.28399 0.18201 1.20400
N 	N 	0.41301 0.27954 0.07475 -0.21600
N 	N 	0.61020 0.65408 0.27981 -0.22900
O 	O 	0.35175 0.42944 0.19401 -0.39000
O 	O 	0.47924 0.35002 0.24116 -0.36800
O 	O 	0.65493 0.17137 0.88354 -0.36400
O 	O 	0.69073 0.31085 0.88292 -0.37100
C 	C 	0.00710 0.66496 0.56213 0.05500
H 	H 	0.99810 0.61900 0.59310 0.00500
C 	C 	0.93760 0.67141 0.50637 -0.09100
H 	H 	0.88460 0.62950 0.49960 0.07300
C 	C 	0.94539 0.73917 0.46028 -0.01000
C 	C 	0.02996 0.79594 0.47142 -0.08700
H 	H 	0.04090 0.84200 0.44090 0.07100
C 	C 	0.09746 0.78377 0.52778 0.05100
H 	H 	0.15460 0.82230 0.53370 0.01000
C 	C 	0.06106 0.57884 0.72584 0.29200
C 	C 	0.99908 0.49774 0.74509 -0.01500
C 	C 	0.02561 0.42024 0.71354 -0.09100
H 	H 	0.08080 0.41750 0.68010 0.08500
C 	C 	0.96888 0.34655 0.73236 0.04700
H 	H 	0.98730 0.29490 0.71060 0.00300
C 	C 	0.86345 0.42157 0.80933 0.04400
H 	H 	0.80720 0.42280 0.84210 0.02100
C 	C 	0.91615 0.49830 0.79337 -0.08300
H 	H 	0.89540 0.54940 0.81520 0.07800
C 	C 	0.86229 0.75298 0.40428 0.27500
Cd	Cd	0.18820 0.71601 0.68201 1.20400
N 	N 	0.08699 0.72046 0.57475 -0.21600
N 	N 	0.88980 0.34592 0.77981 -0.22800
O 	O 	0.14825 0.57056 0.69401 -0.39000
O 	O 	0.02076 0.64998 0.74116 -0.36800
O 	O 	0.84507 0.82863 0.38354 -0.36400
O 	O 	0.80927 0.68915 0.38292 -0.37100
C 	C 	0.50710 0.83504 0.43787 0.05500
H 	H 	0.49810 0.88100 0.40690 0.00500
C 	C 	0.43760 0.82859 0.49363 -0.09000
H 	H 	0.38460 0.87050 0.50040 0.07300
C 	C 	0.44539 0.76083 0.53972 -0.01000
C 	C 	0.52996 0.70406 0.52858 -0.08700
H 	H 	0.54090 0.65800 0.55910 0.07100
C 	C 	0.59746 0.71623 0.47222 0.05100
H 	H 	0.65460 0.67770 0.46630 0.01000
C 	C 	0.56106 0.92116 0.27416 0.29100
C 	C 	0.49908 0.00226 0.25491 -0.01400
C 	C 	0.52561 0.07976 0.28646 -0.09200
H 	H 	0.58080 0.08250 0.31990 0.08500
C 	C 	0.46888 0.15345 0.26764 0.04800
H 	H 	0.48730 0.20510 0.28940 0.00300
C 	C 	0.36345 0.07843 0.19067 0.04400
H 	H 	0.30720 0.07720 0.15790 0.02100
C 	C 	0.41615 0.00170 0.20663 -0.08400
H 	H 	0.39540 0.95060 0.18480 0.07900
C 	C 	0.36229 0.74702 0.59572 0.27500
Cd	Cd	0.68820 0.78399 0.31799 1.20400
N 	N 	0.58699 0.77954 0.42525 -0.21600
N 	N 	0.38980 0.15408 0.22019 -0.22900
O 	O 	0.64825 0.92944 0.30599 -0.39000
O 	O 	0.52076 0.85002 0.25884 -0.36800
O 	O 	0.34507 0.67137 0.61646 -0.36400
O 	O 	0.30927 0.81085 0.61708 -0.37100
C 	C 	0.99290 0.16496 0.93787 0.05200
H 	H 	0.00190 0.11900 0.90690 0.00600
C 	C 	0.06240 0.17141 0.99363 -0.08700
H 	H 	0.11540 0.12950 0.00040 0.07100
C 	C 	0.05461 0.23917 0.03972 -0.01400
C 	C 	0.97004 0.29594 0.02858 -0.08400
H 	H 	0.95910 0.34200 0.05910 0.07000
C 	C 	0.90254 0.28377 0.97222 0.04900
H 	H 	0.84540 0.32230 0.96630 0.01100
C 	C 	0.93894 0.07884 0.77416 0.29100
C 	C 	0.00092 0.99774 0.75491 -0.01300
C 	C 	0.97439 0.92024 0.78646 -0.09400
H 	H 	0.91920 0.91750 0.81990 0.08600
C 	C 	0.03112 0.84655 0.76764 0.04900
H 	H 	0.01270 0.79490 0.78940 0.00200
C 	C 	0.13655 0.92157 0.69067 0.04500
H 	H 	0.19280 0.92280 0.65790 0.02100
C 	C 	0.08385 0.99830 0.70663 -0.08400
H 	H 	0.10460 0.04940 0.68480 0.07900
C 	C 	0.13771 0.25298 0.09572 0.27600
Cd	Cd	0.81180 0.21601 0.81799 1.20400
N 	N 	0.91301 0.22046 0.92525 -0.21500
N 	N 	0.11020 0.84592 0.72019 -0.22900
O 	O 	0.85175 0.07056 0.80599 -0.39000
O 	O 	0.97924 0.14998 0.75884 -0.36800
O 	O 	0.15493 0.32863 0.11646 -0.36400
O 	O 	0.19073 0.18915 0.11708 -0.37100
