data_crystal

_cell_length_a 13.20900
_cell_length_b 13.92600
_cell_length_c 12.24300
_cell_angle_alpha 90.00000
_cell_angle_beta  90.00000
_cell_angle_gamma 90.00000

_symmetry_space_group_name_	'P 1'
_symmetry_space_group_name_H-M	'P 1'

loop_
_symmetry_equiv_pos_as_xyz
  x,y,z

loop_
_atom_site_label
_atom_site_type_symbol
_atom_site_fract_x
_atom_site_fract_y
_atom_site_fract_z
_atom_site_charge
C 	C 	0.40060 0.07340 0.15730 0.20700
C 	C 	0.47690 0.12470 0.09000 -0.12200
H 	H 	0.51630 0.08990 0.04100 0.06900
C 	C 	0.49030 0.21780 0.09780 -0.08000
H 	H 	0.45200 0.24950 0.15030 0.08300
C 	C 	0.55920 0.27700 0.03260 0.12700
C 	C 	0.62370 0.24140 0.95290 -0.18700
H 	H 	0.62740 0.17570 0.93990 0.10500
C 	C 	0.68210 0.30410 0.89320 0.09900
H 	H 	0.72550 0.27880 0.84070 -0.00800
C 	C 	0.62250 0.43320 0.98770 0.10000
H 	H 	0.62350 0.49880 0.00180 -0.02500
C 	C 	0.56230 0.37550 0.05110 -0.18400
H 	H 	0.52340 0.40230 0.10660 0.09300
N 	N 	0.68000 0.39918 0.90660 -0.25100
O 	O 	0.35460 0.11981 0.23000 -0.39300
O 	O 	0.38210 0.98755 0.13910 -0.26500
C 	C 	0.09940 0.92660 0.15730 0.49900
C 	C 	0.02310 0.87530 0.09000 -0.25100
H 	H 	0.98370 0.91010 0.04100 0.15500
C 	C 	0.00970 0.78220 0.09780 0.03600
H 	H 	0.04800 0.75050 0.15030 0.04600
C 	C 	0.94080 0.72300 0.03260 0.07000
C 	C 	0.87630 0.75860 0.95290 -0.14200
H 	H 	0.87260 0.82430 0.93990 0.09800
C 	C 	0.81790 0.69590 0.89320 0.08100
H 	H 	0.77450 0.72120 0.84070 0.00300
C 	C 	0.87750 0.56680 0.98770 0.08400
H 	H 	0.87650 0.50120 0.00180 -0.02200
C 	C 	0.93770 0.62450 0.05110 -0.14700
H 	H 	0.97660 0.59770 0.10660 0.07800
N 	N 	0.82000 0.60082 0.90660 -0.24400
O 	O 	0.14540 0.88019 0.23000 -0.42500
O 	O 	0.11790 0.01245 0.13910 -0.49500
C 	C 	0.90060 0.42660 0.65730 0.35900
C 	C 	0.97690 0.37530 0.59000 -0.20400
H 	H 	0.01630 0.41010 0.54100 0.12600
C 	C 	0.99030 0.28220 0.59780 -0.03000
H 	H 	0.95200 0.25050 0.65030 0.06100
C 	C 	0.05920 0.22300 0.53260 0.10600
C 	C 	0.12370 0.25860 0.45290 -0.17400
H 	H 	0.12740 0.32430 0.43990 0.10400
C 	C 	0.18210 0.19590 0.39320 0.08900
H 	H 	0.22550 0.22120 0.34070 -0.00600
C 	C 	0.12250 0.06680 0.48770 0.08300
H 	H 	0.12350 0.00120 0.50180 -0.05700
C 	C 	0.06230 0.12450 0.55110 -0.17800
H 	H 	0.02340 0.09770 0.60660 0.07400
N 	N 	0.18000 0.10082 0.40660 -0.26300
O 	O 	0.85460 0.38019 0.73000 -0.41700
O 	O 	0.88210 0.51245 0.63910 -0.38700
C 	C 	0.59940 0.57340 0.65730 0.35700
C 	C 	0.52310 0.62470 0.59000 -0.19200
H 	H 	0.48370 0.58990 0.54100 0.11800
C 	C 	0.50970 0.71780 0.59780 -0.02200
H 	H 	0.54800 0.74950 0.65030 0.06900
C 	C 	0.44080 0.77700 0.53260 0.10800
C 	C 	0.37630 0.74140 0.45290 -0.16500
H 	H 	0.37260 0.67570 0.43990 0.10300
C 	C 	0.31790 0.80410 0.39320 0.09700
H 	H 	0.27450 0.77880 0.34070 0.00200
C 	C 	0.37750 0.93320 0.48770 0.10100
H 	H 	0.37650 0.99880 0.50180 0.01700
C 	C 	0.43770 0.87550 0.55110 -0.15500
H 	H 	0.47660 0.90230 0.60660 0.10400
N 	N 	0.32000 0.89918 0.40660 -0.22600
O 	O 	0.64540 0.61981 0.73000 -0.41300
O 	O 	0.61790 0.48755 0.63910 -0.38700
Cd	Cd	0.25000 -0.00000 0.27918 1.18700
Cd	Cd	0.75000 0.50000 0.77918 1.21800
C 	C 	0.09940 0.57340 0.34270 0.35400
C 	C 	0.02310 0.62470 0.41000 -0.18100
H 	H 	0.98370 0.58990 0.45900 0.11000
C 	C 	0.00970 0.71780 0.40220 -0.01800
H 	H 	0.04800 0.74950 0.34970 0.06800
C 	C 	0.94080 0.77700 0.46740 0.10000
C 	C 	0.87630 0.74140 0.54710 -0.16100
H 	H 	0.87260 0.67570 0.56010 0.10000
C 	C 	0.81790 0.80410 0.60680 0.09400
H 	H 	0.77450 0.77880 0.65930 0.00200
C 	C 	0.87750 0.93320 0.51230 0.09800
H 	H 	0.87650 0.99880 0.49820 0.01700
C 	C 	0.93770 0.87550 0.44890 -0.15100
H 	H 	0.97660 0.90230 0.39340 0.10000
N 	N 	0.82000 0.89918 0.59340 -0.22500
O 	O 	0.14540 0.61981 0.27000 -0.41200
O 	O 	0.11790 0.48755 0.36090 -0.38500
C 	C 	0.40060 0.42660 0.34270 0.35600
C 	C 	0.47690 0.37530 0.41000 -0.19500
H 	H 	0.51630 0.41010 0.45900 0.11800
C 	C 	0.49030 0.28220 0.40220 -0.02500
H 	H 	0.45200 0.25050 0.34970 0.06100
C 	C 	0.55920 0.22300 0.46740 0.09900
C 	C 	0.62370 0.25860 0.54710 -0.17000
H 	H 	0.62740 0.32430 0.56010 0.10200
C 	C 	0.68210 0.19590 0.60680 0.08600
H 	H 	0.72550 0.22120 0.65930 -0.00500
C 	C 	0.62250 0.06680 0.51230 0.08000
H 	H 	0.62350 0.00120 0.49820 -0.05700
C 	C 	0.56230 0.12450 0.44890 -0.17500
H 	H 	0.52340 0.09770 0.39340 0.07000
N 	N 	0.68000 0.10082 0.59340 -0.26200
O 	O 	0.35460 0.38019 0.27000 -0.41600
O 	O 	0.38210 0.51245 0.36090 -0.38600
C 	C 	0.59940 0.92660 0.84270 0.50300
C 	C 	0.52310 0.87530 0.91000 -0.26400
H 	H 	0.48370 0.91010 0.95900 0.16500
C 	C 	0.50970 0.78220 0.90220 0.03200
H 	H 	0.54800 0.75050 0.84970 0.04600
C 	C 	0.44080 0.72300 0.96740 0.08000
C 	C 	0.37630 0.75860 0.04710 -0.14800
H 	H 	0.37260 0.82430 0.06010 0.10100
C 	C 	0.31790 0.69590 0.10680 0.08400
H 	H 	0.27450 0.72120 0.15930 0.00300
C 	C 	0.37750 0.56680 0.01230 0.08400
H 	H 	0.37650 0.50120 0.99820 -0.02000
C 	C 	0.43770 0.62450 0.94890 -0.14900
H 	H 	0.47660 0.59770 0.89340 0.08100
N 	N 	0.32000 0.60082 0.09340 -0.24400
O 	O 	0.64540 0.88019 0.77000 -0.42700
O 	O 	0.61790 0.01245 0.86090 -0.49800
C 	C 	0.90060 0.07340 0.84270 0.21200
C 	C 	0.97690 0.12470 0.91000 -0.12900
H 	H 	0.01630 0.08990 0.95900 0.07700
C 	C 	0.99030 0.21780 0.90220 -0.08400
H 	H 	0.95200 0.24950 0.84970 0.08300
C 	C 	0.05920 0.27700 0.96740 0.13300
C 	C 	0.12370 0.24140 0.04710 -0.18900
H 	H 	0.12740 0.17570 0.06010 0.10600
C 	C 	0.18210 0.30410 0.10680 0.10100
H 	H 	0.22550 0.27880 0.15930 -0.00800
C 	C 	0.12250 0.43320 0.01230 0.10500
H 	H 	0.12350 0.49880 0.99820 -0.02600
C 	C 	0.06230 0.37550 0.94890 -0.18800
H 	H 	0.02340 0.40230 0.89340 0.09600
N 	N 	0.18000 0.39918 0.09340 -0.25200
O 	O 	0.85460 0.11981 0.77000 -0.39400
O 	O 	0.88210 0.98755 0.86090 -0.26800
Cd	Cd	0.25000 0.50000 0.22082 1.21900
Cd	Cd	0.75000 0.00000 0.72082 1.18700
