data_crystal

_cell_length_a 10.83360
_cell_length_b 18.28670
_cell_length_c 15.12580
_cell_angle_alpha 90.00000
_cell_angle_beta  111.20800
_cell_angle_gamma 90.00000

_symmetry_space_group_name_	'P 1'
_symmetry_space_group_name_H-M	'P 1'

loop_
_symmetry_equiv_pos_as_xyz
  x,y,z

loop_
_atom_site_label
_atom_site_type_symbol
_atom_site_fract_x
_atom_site_fract_y
_atom_site_fract_z
_atom_site_charge
Mn	Mn	0.17170 0.01142 0.16771 1.29300
O 	O 	0.16510 0.02534 0.02401 -0.50400
O 	O 	0.48190 0.01778 0.35589 -0.47400
O 	O 	0.18040 0.00278 0.31144 -0.51400
O 	O 	0.01080 0.04998 0.88258 -0.47800
O 	O 	0.35490 0.07248 0.22139 -0.44600
O 	O 	0.30160 0.95136 0.45013 -0.44200
F 	F 	0.54350 0.20697 0.09785 -0.43700
C 	C 	0.20790 0.95146 0.37130 0.56900
N 	N 	0.71930 0.40126 0.32496 -0.15800
N 	N 	0.93840 0.62040 0.34799 -0.11200
C 	C 	0.10840 0.06669 0.95450 0.53400
N 	N 	0.42030 0.38400 0.00865 -0.18200
C 	C 	0.45000 0.07114 0.29890 0.47600
C 	C 	0.57690 0.26917 0.30280 -0.13400
C 	C 	0.06850 0.75718 0.37820 -0.37200
C 	C 	0.11870 0.88607 0.34470 -0.47400
H 	H 	0.04470 0.88740 0.28900 0.26300
C 	C 	0.05920 0.62851 0.41310 -0.22700
H 	H 	0.10000 0.58820 0.44930 0.14200
C 	C 	0.94300 0.74654 0.31100 0.48100
C 	C 	0.14190 0.82617 0.39810 0.38700
H 	H 	0.21360 0.82840 0.45520 -0.05200
F 	F 	0.87760 0.80109 0.25570 -0.47100
C 	C 	0.32230 0.24136 0.01310 -0.16900
C 	C 	0.24000 0.29953 0.96830 0.06900
H 	H 	0.14940 0.29190 0.93900 0.03900
C 	C 	0.45370 0.25947 0.05430 0.38800
C 	C 	0.77690 0.33622 0.33090 0.01500
H 	H 	0.86740 0.33510 0.34310 0.03300
C 	C 	0.49770 0.20167 0.28510 0.23400
H 	H 	0.41180 0.20440 0.24090 0.00700
C 	C 	0.71070 0.27035 0.32000 0.04500
H 	H 	0.75650 0.22670 0.32430 0.04800
C 	C 	0.53690 0.13794 0.32570 -0.34500
H 	H 	0.62070 0.13400 0.37240 0.18200
C 	C 	0.88140 0.67927 0.29690 -0.21900
H 	H 	0.79750 0.67470 0.25050 0.14000
C 	C 	0.12690 0.69457 0.42930 0.50200
C 	C 	0.16140 0.14205 0.95360 -0.29300
H 	H 	0.11220 0.17360 0.90550 0.19100
F 	F 	0.38930 0.34100 0.28260 -0.42600
C 	C 	0.50010 0.32927 0.05350 -0.15200
H 	H 	0.58970 0.33870 0.08510 0.11700
C 	C 	0.27250 0.16692 0.01580 0.16600
H 	H 	0.32230 0.13580 0.06420 0.02300
C 	C 	0.29220 0.36825 0.96730 0.02800
H 	H 	0.23470 0.40560 0.93590 0.04500
C 	C 	0.59020 0.40089 0.30920 -0.14000
H 	H 	0.54650 0.44520 0.30550 0.13100
C 	C 	0.51940 0.33694 0.29820 0.39700
F 	F 	0.25130 0.69500 0.48270 -0.47500
Mn	Mn	0.82830 0.51142 0.33229 1.30500
O 	O 	0.83490 0.52534 0.47599 -0.44700
O 	O 	0.51810 0.51778 0.14411 -0.46000
O 	O 	0.81960 0.50278 0.18856 -0.46800
O 	O 	0.98920 0.54998 0.61742 -0.45600
O 	O 	0.64510 0.57248 0.27861 -0.43600
O 	O 	0.69840 0.45136 0.04987 -0.46000
F 	F 	0.45650 0.70697 0.40215 -0.43000
C 	C 	0.79210 0.45146 0.12870 0.50700
N 	N 	0.28070 0.90126 0.17504 -0.14800
N 	N 	0.06160 0.12040 0.15201 -0.11500
C 	C 	0.89160 0.56669 0.54550 0.49900
N 	N 	0.57970 0.88400 0.49135 -0.15000
C 	C 	0.55000 0.57114 0.20110 0.47200
C 	C 	0.42310 0.76917 0.19720 -0.13700
C 	C 	0.93150 0.25718 0.12180 -0.37500
C 	C 	0.88130 0.38607 0.15530 -0.45700
H 	H 	0.95530 0.38740 0.21100 0.24900
C 	C 	0.94080 0.12851 0.08690 -0.23100
H 	H 	0.90000 0.08820 0.05070 0.12000
C 	C 	0.05700 0.24654 0.18900 0.48200
C 	C 	0.85810 0.32617 0.10190 0.37300
H 	H 	0.78640 0.32840 0.04480 -0.05600
F 	F 	0.12240 0.30109 0.24430 -0.47200
C 	C 	0.67770 0.74136 0.48690 -0.14200
C 	C 	0.76000 0.79953 0.53170 0.03400
H 	H 	0.85060 0.79190 0.56100 0.04200
C 	C 	0.54630 0.75947 0.44570 0.38900
C 	C 	0.22310 0.83622 0.16910 0.01000
H 	H 	0.13260 0.83510 0.15690 0.03300
C 	C 	0.50230 0.70167 0.21490 0.22800
H 	H 	0.58820 0.70440 0.25910 0.01000
C 	C 	0.28930 0.77035 0.18000 0.04300
H 	H 	0.24350 0.72670 0.17570 0.04700
C 	C 	0.46310 0.63794 0.17430 -0.34000
H 	H 	0.37930 0.63400 0.12760 0.17400
C 	C 	0.11860 0.17927 0.20310 -0.22100
H 	H 	0.20250 0.17470 0.24950 0.14200
C 	C 	0.87310 0.19457 0.07070 0.49300
C 	C 	0.83860 0.64205 0.54640 -0.34700
H 	H 	0.88780 0.67360 0.59450 0.20300
F 	F 	0.61070 0.84100 0.21740 -0.42400
C 	C 	0.49990 0.82927 0.44650 -0.14100
H 	H 	0.41030 0.83870 0.41490 0.11800
C 	C 	0.72750 0.66692 0.48420 0.22400
H 	H 	0.67770 0.63580 0.43580 0.01200
C 	C 	0.70780 0.86825 0.53270 -0.00200
H 	H 	0.76530 0.90560 0.56410 0.05700
C 	C 	0.40980 0.90089 0.19080 -0.14300
H 	H 	0.45350 0.94520 0.19450 0.14700
C 	C 	0.48060 0.83694 0.20180 0.39800
F 	F 	0.74870 0.19500 0.01730 -0.48800
Mn	Mn	0.82830 0.98858 0.83229 1.31900
O 	O 	0.83490 0.97466 0.97599 -0.38800
O 	O 	0.51810 0.98222 0.64411 -0.42600
O 	O 	0.81960 0.99722 0.68856 -0.41200
O 	O 	0.98920 0.95002 0.11742 -0.43000
O 	O 	0.64510 0.92752 0.77861 -0.42400
O 	O 	0.69840 0.04864 0.54987 -0.44600
F 	F 	0.45650 0.79303 0.90215 -0.42300
C 	C 	0.79210 0.04854 0.62870 0.43900
N 	N 	0.28070 0.59874 0.67504 -0.15800
N 	N 	0.06160 0.37960 0.65201 -0.10900
C 	C 	0.89160 0.93331 0.04550 0.46500
N 	N 	0.57970 0.61600 0.99135 -0.13400
C 	C 	0.55000 0.92886 0.70110 0.47200
C 	C 	0.42310 0.73083 0.69720 -0.12900
C 	C 	0.93150 0.24282 0.62180 -0.36500
C 	C 	0.88130 0.11393 0.65530 -0.42300
H 	H 	0.95530 0.11260 0.71100 0.23200
C 	C 	0.94080 0.37149 0.58690 -0.23000
H 	H 	0.90000 0.41180 0.55070 0.14300
C 	C 	0.05700 0.25346 0.68900 0.48200
C 	C 	0.85810 0.17383 0.60190 0.35200
H 	H 	0.78640 0.17160 0.54480 -0.04200
F 	F 	0.12240 0.19891 0.74430 -0.47000
C 	C 	0.67770 0.75864 0.98690 -0.11400
C 	C 	0.76000 0.70047 0.03170 -0.00500
H 	H 	0.85060 0.70810 0.06100 0.04400
C 	C 	0.54630 0.74053 0.94570 0.38800
C 	C 	0.22310 0.66378 0.66910 0.01800
H 	H 	0.13260 0.66490 0.65690 0.03400
C 	C 	0.50230 0.79833 0.71490 0.23000
H 	H 	0.58820 0.79560 0.75910 0.01000
C 	C 	0.28930 0.72965 0.68000 0.04200
H 	H 	0.24350 0.77330 0.67570 0.05500
C 	C 	0.46310 0.86206 0.67430 -0.33200
H 	H 	0.37930 0.86600 0.62760 0.18600
C 	C 	0.11860 0.32073 0.70310 -0.21800
H 	H 	0.20250 0.32530 0.74950 0.14200
C 	C 	0.87310 0.30543 0.57070 0.49900
C 	C 	0.83860 0.85795 0.04640 -0.39900
H 	H 	0.88780 0.82640 0.09450 0.21500
F 	F 	0.61070 0.65900 0.71740 -0.42200
C 	C 	0.49990 0.67073 0.94650 -0.13200
H 	H 	0.41030 0.66130 0.91490 0.11500
C 	C 	0.72750 0.83308 0.98420 0.27900
H 	H 	0.67770 0.86420 0.93580 0.00300
C 	C 	0.70780 0.63175 0.03270 -0.03200
H 	H 	0.76530 0.59440 0.06410 0.05200
C 	C 	0.40980 0.59911 0.69080 -0.13900
H 	H 	0.45350 0.55480 0.69450 0.13200
C 	C 	0.48060 0.66306 0.70180 0.39700
F 	F 	0.74870 0.30500 0.51730 -0.47400
Mn	Mn	0.17170 0.48858 0.66771 1.30600
O 	O 	0.16510 0.47466 0.52401 -0.44600
O 	O 	0.48190 0.48222 0.85589 -0.44300
O 	O 	0.18040 0.49722 0.81144 -0.46000
O 	O 	0.01080 0.45002 0.38258 -0.45400
O 	O 	0.35490 0.42752 0.72139 -0.43600
O 	O 	0.30160 0.54864 0.95013 -0.43000
F 	F 	0.54350 0.29303 0.59785 -0.43000
C 	C 	0.20790 0.54854 0.87130 0.50100
N 	N 	0.71930 0.09874 0.82496 -0.16800
N 	N 	0.93840 0.87960 0.84799 -0.10700
C 	C 	0.10840 0.43331 0.45450 0.49900
N 	N 	0.42030 0.11600 0.50865 -0.16400
C 	C 	0.45000 0.42886 0.79890 0.47600
C 	C 	0.57690 0.23083 0.80280 -0.12700
C 	C 	0.06850 0.74282 0.87820 -0.35900
C 	C 	0.11870 0.61393 0.84470 -0.44000
H 	H 	0.04470 0.61260 0.78900 0.24700
C 	C 	0.05920 0.87149 0.91310 -0.22300
H 	H 	0.10000 0.91180 0.94930 0.16500
C 	C 	0.94300 0.75346 0.81100 0.47800
C 	C 	0.14190 0.67383 0.89810 0.36500
H 	H 	0.21360 0.67160 0.95520 -0.03700
F 	F 	0.87760 0.69891 0.75570 -0.46800
C 	C 	0.32230 0.25864 0.51310 -0.14100
C 	C 	0.24000 0.20047 0.46830 0.02900
H 	H 	0.14940 0.20810 0.43900 0.04100
C 	C 	0.45370 0.24053 0.55430 0.38800
C 	C 	0.77690 0.16378 0.83090 0.02200
H 	H 	0.86740 0.16490 0.84310 0.03200
C 	C 	0.49770 0.29833 0.78510 0.23600
H 	H 	0.41180 0.29560 0.74090 0.00800
C 	C 	0.71070 0.22965 0.82000 0.04400
H 	H 	0.75650 0.27330 0.82430 0.05500
C 	C 	0.53690 0.36206 0.82570 -0.33700
H 	H 	0.62070 0.36600 0.87240 0.19400
C 	C 	0.88140 0.82073 0.79690 -0.21400
H 	H 	0.79750 0.82530 0.75050 0.14000
C 	C 	0.12690 0.80543 0.92930 0.50600
C 	C 	0.16140 0.35795 0.45360 -0.34600
H 	H 	0.11220 0.32640 0.40550 0.20300
F 	F 	0.38930 0.15900 0.78260 -0.42500
C 	C 	0.50010 0.17073 0.55350 -0.14300
H 	H 	0.58970 0.16130 0.58510 0.11400
C 	C 	0.27250 0.33308 0.51580 0.22300
H 	H 	0.32230 0.36420 0.56420 0.01300
C 	C 	0.29220 0.13175 0.46730 -0.00200
H 	H 	0.23470 0.09440 0.43590 0.04100
C 	C 	0.59020 0.09911 0.80920 -0.13700
H 	H 	0.54650 0.05480 0.80550 0.11700
C 	C 	0.51940 0.16306 0.79820 0.39600
F 	F 	0.25130 0.80500 0.98270 -0.46000
Mn	Mn	0.50000 0.50000 -0.00000 1.28900
Mn	Mn	0.50000 0.00000 0.50000 1.28600
