data_crystal

_cell_length_a 10.02690
_cell_length_b 16.43970
_cell_length_c 12.75480
_cell_angle_alpha 90.00000
_cell_angle_beta  90.64500
_cell_angle_gamma 90.00000

_symmetry_space_group_name_	'P 1'
_symmetry_space_group_name_H-M	'P 1'

loop_
_symmetry_equiv_pos_as_xyz
  x,y,z

loop_
_atom_site_label
_atom_site_type_symbol
_atom_site_fract_x
_atom_site_fract_y
_atom_site_fract_z
_atom_site_charge
Mn	Mn	0.75160 0.00013 0.49823 1.30600
C 	C 	0.76050 0.80600 0.45160 0.07900
H 	H 	0.72700 0.80300 0.51920 0.00100
C 	C 	0.58880 0.13410 0.61930 0.08800
H 	H 	0.51960 0.09880 0.60150 -0.00400
C 	C 	0.56050 0.20050 0.68040 -0.15000
H 	H 	0.47410 0.20900 0.70360 0.08600
O 	O 	0.37920 0.43302 0.90240 -0.45900
O 	O 	0.59160 0.47215 0.88830 -0.45300
C 	C 	0.78310 0.73430 0.39800 -0.14900
H 	H 	0.76470 0.68470 0.42960 0.08100
O 	O 	0.91320 0.51831 0.10970 -0.45200
C 	C 	0.86440 0.66020 0.24030 0.01200
H 	H 	0.81530 0.61400 0.25650 0.03800
O 	O 	0.11970 0.56881 0.10140 -0.45200
C 	C 	0.95680 0.65350 0.16830 -0.24900
H 	H 	0.99900 0.70060 0.14540 0.12200
C 	C 	0.52040 0.34890 0.80910 -0.24700
H 	H 	0.44800 0.31510 0.79510 0.12600
C 	C 	0.78720 0.23870 0.66940 -0.15700
H 	H 	0.85760 0.27390 0.68430 0.08900
C 	C 	0.80820 0.16990 0.60930 0.09700
H 	H 	0.89380 0.15970 0.58530 -0.00600
C 	C 	0.85500 0.81270 0.25470 -0.14600
H 	H 	0.88660 0.81760 0.18670 0.08000
C 	C 	0.83310 0.73620 0.29740 0.06900
N 	N 	0.78460 0.87959 0.41090 -0.22600
C 	C 	0.82990 0.88120 0.31290 0.08100
H 	H 	0.84540 0.93160 0.28230 0.00200
N 	N 	0.71190 0.11752 0.58420 -0.23000
C 	C 	0.66080 0.25510 0.70740 0.08400
C 	C 	0.63750 0.32770 0.77170 0.00900
H 	H 	0.71020 0.36100 0.78710 0.04500
C 	C 	0.99750 0.57360 0.12150 0.43400
C 	C 	0.49680 0.42380 0.87280 0.45100
Mn	Mn	0.24840 0.50013 0.00177 1.30500
C 	C 	0.23950 0.30600 0.04840 0.07600
H 	H 	0.27300 0.30300 0.98080 0.00300
C 	C 	0.41120 0.63410 0.88070 0.08800
H 	H 	0.48040 0.59880 0.89850 -0.00400
C 	C 	0.43950 0.70050 0.81960 -0.15000
H 	H 	0.52590 0.70900 0.79640 0.08600
O 	O 	0.62080 0.93302 0.59760 -0.46000
O 	O 	0.40840 0.97215 0.61170 -0.45200
C 	C 	0.21690 0.23430 0.10200 -0.14800
H 	H 	0.23530 0.18470 0.07040 0.08100
O 	O 	0.08680 0.01831 0.39030 -0.45200
C 	C 	0.13560 0.16020 0.25970 0.01100
H 	H 	0.18470 0.11400 0.24350 0.03800
O 	O 	0.88030 0.06881 0.39860 -0.45100
C 	C 	0.04320 0.15350 0.33170 -0.24900
H 	H 	0.00100 0.20060 0.35460 0.12100
C 	C 	0.47960 0.84890 0.69090 -0.24700
H 	H 	0.55200 0.81510 0.70490 0.12600
C 	C 	0.21280 0.73870 0.83060 -0.15700
H 	H 	0.14240 0.77390 0.81570 0.09000
C 	C 	0.19180 0.66990 0.89070 0.09800
H 	H 	0.10620 0.65970 0.91470 -0.00500
C 	C 	0.14500 0.31270 0.24530 -0.14600
H 	H 	0.11340 0.31760 0.31330 0.08000
C 	C 	0.16690 0.23620 0.20260 0.06900
N 	N 	0.21540 0.37959 0.08910 -0.22600
C 	C 	0.17010 0.38120 0.18710 0.08100
H 	H 	0.15460 0.43160 0.21770 0.00200
N 	N 	0.28810 0.61752 0.91580 -0.23000
C 	C 	0.33920 0.75510 0.79260 0.08400
C 	C 	0.36250 0.82770 0.72830 0.00900
H 	H 	0.28980 0.86100 0.71290 0.04500
C 	C 	0.00250 0.07360 0.37850 0.43300
C 	C 	0.50320 0.92380 0.62720 0.45200
Mn	Mn	0.24840 0.99987 0.50177 1.30500
C 	C 	0.23950 0.19400 0.54840 0.07800
H 	H 	0.27300 0.19700 0.48080 0.00100
C 	C 	0.41120 0.86590 0.38070 0.08800
H 	H 	0.48040 0.90120 0.39850 -0.00400
C 	C 	0.43950 0.79950 0.31960 -0.15000
H 	H 	0.52590 0.79100 0.29640 0.08600
O 	O 	0.62080 0.56698 0.09760 -0.45900
O 	O 	0.40840 0.52785 0.11170 -0.45300
C 	C 	0.21690 0.26570 0.60200 -0.14900
H 	H 	0.23530 0.31530 0.57040 0.08100
O 	O 	0.08680 0.48169 0.89030 -0.45200
C 	C 	0.13560 0.33980 0.75970 0.01200
H 	H 	0.18470 0.38600 0.74350 0.03800
O 	O 	0.88030 0.43119 0.89860 -0.45200
C 	C 	0.04320 0.34650 0.83170 -0.24900
H 	H 	0.00100 0.29940 0.85460 0.12200
C 	C 	0.47960 0.65110 0.19090 -0.24700
H 	H 	0.55200 0.68490 0.20490 0.12600
C 	C 	0.21280 0.76130 0.33060 -0.15700
H 	H 	0.14240 0.72610 0.31570 0.08900
C 	C 	0.19180 0.83010 0.39070 0.09700
H 	H 	0.10620 0.84030 0.41470 -0.00600
C 	C 	0.14500 0.18730 0.74530 -0.14600
H 	H 	0.11340 0.18240 0.81330 0.08000
C 	C 	0.16690 0.26380 0.70260 0.06900
N 	N 	0.21540 0.12041 0.58910 -0.22600
C 	C 	0.17010 0.11880 0.68710 0.08100
H 	H 	0.15460 0.06840 0.71770 0.00200
N 	N 	0.28810 0.88248 0.41580 -0.23000
C 	C 	0.33920 0.74490 0.29260 0.08400
C 	C 	0.36250 0.67230 0.22830 0.00900
H 	H 	0.28980 0.63900 0.21290 0.04500
C 	C 	0.00250 0.42640 0.87850 0.43400
C 	C 	0.50320 0.57620 0.12720 0.45100
Mn	Mn	0.75160 0.49987 0.99823 1.30500
C 	C 	0.76050 0.69400 0.95160 0.07600
H 	H 	0.72700 0.69700 0.01920 0.00300
C 	C 	0.58880 0.36590 0.11930 0.08800
H 	H 	0.51960 0.40120 0.10150 -0.00400
C 	C 	0.56050 0.29950 0.18040 -0.15000
H 	H 	0.47410 0.29100 0.20360 0.08600
O 	O 	0.37920 0.06698 0.40240 -0.46000
O 	O 	0.59160 0.02785 0.38830 -0.45200
C 	C 	0.78310 0.76570 0.89800 -0.14800
H 	H 	0.76470 0.81530 0.92960 0.08100
O 	O 	0.91320 0.98169 0.60970 -0.45200
C 	C 	0.86440 0.83980 0.74030 0.01100
H 	H 	0.81530 0.88600 0.75650 0.03800
O 	O 	0.11970 0.93119 0.60140 -0.45100
C 	C 	0.95680 0.84650 0.66830 -0.24900
H 	H 	0.99900 0.79940 0.64540 0.12100
C 	C 	0.52040 0.15110 0.30910 -0.24700
H 	H 	0.44800 0.18490 0.29510 0.12600
C 	C 	0.78720 0.26130 0.16940 -0.15700
H 	H 	0.85760 0.22610 0.18430 0.09000
C 	C 	0.80820 0.33010 0.10930 0.09800
H 	H 	0.89380 0.34030 0.08530 -0.00500
C 	C 	0.85500 0.68730 0.75470 -0.14600
H 	H 	0.88660 0.68240 0.68670 0.08000
C 	C 	0.83310 0.76380 0.79740 0.06900
N 	N 	0.78460 0.62041 0.91090 -0.22600
C 	C 	0.82990 0.61880 0.81290 0.08100
H 	H 	0.84540 0.56840 0.78230 0.00200
N 	N 	0.71190 0.38248 0.08420 -0.23000
C 	C 	0.66080 0.24490 0.20740 0.08400
C 	C 	0.63750 0.17230 0.27170 0.00900
H 	H 	0.71020 0.13900 0.28710 0.04500
C 	C 	0.99750 0.92640 0.62150 0.43300
C 	C 	0.49680 0.07620 0.37280 0.45200
