data_crystal

_cell_length_a 9.95450
_cell_length_b 13.13640
_cell_length_c 11.00940
_cell_angle_alpha 90.00000
_cell_angle_beta  101.70300
_cell_angle_gamma 90.00000

_symmetry_space_group_name_	'P 1'
_symmetry_space_group_name_H-M	'P 1'

loop_
_symmetry_equiv_pos_as_xyz
  x,y,z

loop_
_atom_site_label
_atom_site_type_symbol
_atom_site_fract_x
_atom_site_fract_y
_atom_site_fract_z
_atom_site_charge
C 	C 	0.40150 0.50470 0.98830 -0.06500
C 	C 	0.15060 0.38250 0.48100 -0.05800
C 	C 	0.16420 0.47870 0.43600 -0.05200
H 	H 	0.17890 0.48800 0.35600 0.05300
C 	C 	0.13060 0.37210 0.60020 -0.05500
H 	H 	0.11780 0.30810 0.63200 0.05800
C 	C 	0.12980 0.45690 0.67130 0.03800
H 	H 	0.12020 0.44860 0.75300 0.01600
C 	C 	0.46550 0.90020 0.46510 -0.06800
H 	H 	0.54280 0.85930 0.48750 0.07200
C 	C 	0.15580 0.56140 0.51160 0.03300
H 	H 	0.15980 0.62660 0.47960 0.01800
C 	C 	0.50880 0.36270 0.10760 0.04000
H 	H 	0.58780 0.32520 0.13790 0.00800
C 	C 	0.46720 0.98390 0.38930 0.04500
H 	H 	0.54740 0.99860 0.36170 0.01200
C 	C 	0.15570 0.29090 0.39720 0.38000
C 	C 	0.23460 0.94010 0.47010 -0.07200
H 	H 	0.15320 0.92710 0.49640 0.07000
C 	C 	0.24360 0.02230 0.39280 0.05400
H 	H 	0.16670 0.06310 0.36730 0.00700
C 	C 	0.28160 0.47710 0.02530 -0.05800
H 	H 	0.20230 0.51560 0.00050 0.06500
C 	C 	0.51740 0.44610 0.03210 -0.05000
H 	H 	0.60050 0.46270 0.01090 0.06500
C 	C 	0.28040 0.39300 0.09850 0.04500
H 	H 	0.19860 0.37570 0.12170 0.01400
C 	C 	0.40980 0.59590 0.90700 0.40800
C 	C 	0.09000 0.09650 0.09690 0.38800
C 	C 	0.10140 0.00410 0.01930 -0.07100
C 	C 	0.09900 0.90540 0.06310 -0.05700
H 	H 	0.09280 0.89420 0.14520 0.05300
C 	C 	0.11170 0.92780 0.82290 0.02000
H 	H 	0.11460 0.93680 0.73970 0.01900
C 	C 	0.10790 0.01360 0.89570 -0.03700
H 	H 	0.10970 0.07800 0.86100 0.04900
C 	C 	0.34600 0.87820 0.50740 -0.04300
C 	C 	0.10580 0.82310 0.98570 0.04300
H 	H 	0.10630 0.75790 0.01870 0.01100
C 	C 	0.34240 0.79070 0.59880 0.37900
Mn	Mn	0.87371 0.19264 0.25222 1.30200
Mn	Mn	0.37558 0.19159 0.24664 1.30200
N 	N 	0.14190 0.55070 0.63010 -0.20800
N 	N 	0.39030 0.33410 0.13850 -0.21500
N 	N 	0.35810 0.04480 0.35400 -0.21200
N 	N 	0.11150 0.83280 0.86650 -0.21100
O 	O 	0.26140 0.28380 0.35590 -0.43800
O 	O 	0.05810 0.22850 0.38890 -0.43300
O 	O 	0.18410 0.15900 0.11470 -0.43900
O 	O 	0.98590 0.09900 0.14570 -0.43800
O 	O 	0.51830 0.60690 0.86900 -0.45100
O 	O 	0.44040 0.72980 0.61570 -0.43800
O 	O 	0.23350 0.78650 0.63790 -0.44000
O 	O 	0.30550 0.65000 0.87780 -0.45700
C 	C 	0.59850 0.00470 0.01170 -0.05100
C 	C 	0.84940 0.88250 0.51900 -0.05800
C 	C 	0.83580 0.97870 0.56400 -0.06100
H 	H 	0.82110 0.98800 0.64400 0.05500
C 	C 	0.86940 0.87210 0.39980 -0.05500
H 	H 	0.88220 0.80810 0.36800 0.05700
C 	C 	0.87020 0.95690 0.32870 0.03300
H 	H 	0.87980 0.94860 0.24700 0.01600
C 	C 	0.53450 0.40020 0.53490 -0.06700
H 	H 	0.45720 0.35930 0.51250 0.07200
C 	C 	0.84420 0.06140 0.48840 0.04000
H 	H 	0.84020 0.12660 0.52040 0.01600
C 	C 	0.49120 0.86270 0.89240 0.04500
H 	H 	0.41220 0.82520 0.86210 0.00600
C 	C 	0.53280 0.48390 0.61070 0.04900
H 	H 	0.45260 0.49860 0.63830 0.01200
C 	C 	0.84430 0.79090 0.60280 0.37900
C 	C 	0.76540 0.44010 0.52990 -0.06200
H 	H 	0.84680 0.42710 0.50360 0.06800
C 	C 	0.75640 0.52230 0.60720 0.04500
H 	H 	0.83330 0.56310 0.63270 0.00900
C 	C 	0.71840 0.97710 0.97470 -0.07600
H 	H 	0.79770 0.01560 0.99950 0.07400
C 	C 	0.48260 0.94610 0.96790 -0.06100
H 	H 	0.39950 0.96270 0.98910 0.06700
C 	C 	0.71960 0.89300 0.90150 0.05400
H 	H 	0.80140 0.87570 0.87830 0.01100
C 	C 	0.59020 0.09590 0.09300 0.40300
C 	C 	0.91000 0.59650 0.90310 0.38900
C 	C 	0.89860 0.50410 0.98070 -0.07800
C 	C 	0.90100 0.40540 0.93690 -0.04200
H 	H 	0.90720 0.39420 0.85480 0.04900
C 	C 	0.88830 0.42780 0.17710 0.02500
H 	H 	0.88540 0.43680 0.26030 0.01800
C 	C 	0.89210 0.51360 0.10430 -0.04200
H 	H 	0.89030 0.57800 0.13900 0.05000
C 	C 	0.65400 0.37820 0.49260 -0.04600
C 	C 	0.89420 0.32310 0.01430 0.03200
H 	H 	0.89370 0.25790 0.98130 0.01600
C 	C 	0.65760 0.29070 0.40120 0.38000
Mn	Mn	0.12629 0.69264 0.74778 1.30200
Mn	Mn	0.62442 0.69159 0.75336 1.30200
N 	N 	0.85810 0.05070 0.36990 -0.20600
N 	N 	0.60970 0.83410 0.86150 -0.21700
N 	N 	0.64190 0.54480 0.64600 -0.21400
N 	N 	0.88850 0.33280 0.13350 -0.21000
O 	O 	0.73860 0.78380 0.64410 -0.43800
O 	O 	0.94190 0.72850 0.61110 -0.43300
O 	O 	0.81590 0.65900 0.88530 -0.43900
O 	O 	0.01410 0.59900 0.85430 -0.43800
O 	O 	0.48170 0.10690 0.13100 -0.44900
O 	O 	0.55960 0.22980 0.38430 -0.43700
O 	O 	0.76650 0.28650 0.36210 -0.44000
O 	O 	0.69450 0.15000 0.12220 -0.45500
