data_crystal

_cell_length_a 12.28200
_cell_length_b 22.79000
_cell_length_c 13.58000
_cell_angle_alpha 90.00000
_cell_angle_beta  91.87000
_cell_angle_gamma 90.00000

_symmetry_space_group_name_	'P 1'
_symmetry_space_group_name_H-M	'P 1'

loop_
_symmetry_equiv_pos_as_xyz
  x,y,z

loop_
_atom_site_label
_atom_site_type_symbol
_atom_site_fract_x
_atom_site_fract_y
_atom_site_fract_z
_atom_site_charge
N 	N 	0.41920 0.26468 0.48130 -0.21800
C 	C 	0.46990 0.23500 0.41020 0.08600
H 	H 	0.43100 0.20500 0.37570 -0.03300
C 	C 	0.57430 0.24629 0.38600 -0.18500
H 	H 	0.60650 0.22420 0.33530 0.07700
C 	C 	0.63490 0.29009 0.43470 0.12800
C 	C 	0.58300 0.31899 0.51060 -0.18500
H 	H 	0.62070 0.34830 0.54790 0.08200
C 	C 	0.47750 0.30520 0.53150 0.08800
H 	H 	0.44420 0.32520 0.58400 -0.02700
C 	C 	0.74680 0.30556 0.40300 -0.16300
H 	H 	0.79150 0.31710 0.46180 0.07600
H 	H 	0.78060 0.27020 0.37450 0.07200
N 	N 	0.74920 0.35347 0.33000 -0.08300
C 	C 	0.72800 0.41168 0.37130 -0.05500
H 	H 	0.77660 0.41850 0.42980 0.04000
H 	H 	0.65170 0.41390 0.39240 0.02700
C 	C 	0.74750 0.45815 0.29460 -0.07200
H 	H 	0.73480 0.49750 0.32270 0.03100
H 	H 	0.82400 0.45620 0.27400 0.05000
N 	N 	0.67270 0.44851 0.20800 -0.13700
C 	C 	0.69670 0.38963 0.16690 -0.07400
H 	H 	0.77290 0.38850 0.14530 0.03900
H 	H 	0.64810 0.38210 0.10870 0.02400
C 	C 	0.68030 0.34255 0.24350 -0.04700
H 	H 	0.60300 0.34200 0.26220 0.02400
H 	H 	0.69790 0.30370 0.21560 0.02100
C 	C 	0.69030 0.49452 0.13230 -0.09700
H 	H 	0.75650 0.48510 0.09570 0.04600
H 	H 	0.70180 0.53290 0.16510 0.04000
C 	C 	0.59380 0.49830 0.06150 -0.03900
C 	C 	0.50550 0.53396 0.08480 -0.04400
H 	H 	0.50930 0.55730 0.14270 0.01000
C 	C 	0.58730 0.46449 0.97560 0.00000
H 	H 	0.64700 0.44040 0.95860 0.01700
N 	N 	0.91920 0.76468 0.48130 -0.23000
C 	C 	0.96990 0.73500 0.41020 0.13300
H 	H 	0.93100 0.70500 0.37570 -0.04200
C 	C 	0.07430 0.74629 0.38600 -0.23700
H 	H 	0.10650 0.72420 0.33530 0.09100
C 	C 	0.13490 0.79009 0.43470 0.16100
C 	C 	0.08300 0.81899 0.51060 -0.23800
H 	H 	0.12070 0.84830 0.54790 0.09600
C 	C 	0.97750 0.80520 0.53150 0.13300
H 	H 	0.94420 0.82520 0.58400 -0.03700
C 	C 	0.24680 0.80556 0.40300 -0.18000
H 	H 	0.29150 0.81710 0.46180 0.07800
H 	H 	0.28060 0.77020 0.37450 0.07500
N 	N 	0.24920 0.85347 0.33000 -0.08200
C 	C 	0.22800 0.91168 0.37130 -0.05500
H 	H 	0.27660 0.91850 0.42980 0.03700
H 	H 	0.15170 0.91390 0.39240 0.02500
C 	C 	0.24750 0.95815 0.29460 -0.07100
H 	H 	0.23480 0.99750 0.32270 0.02800
H 	H 	0.32400 0.95620 0.27400 0.04700
N 	N 	0.17270 0.94851 0.20800 -0.13500
C 	C 	0.19670 0.88963 0.16690 -0.07500
H 	H 	0.27290 0.88850 0.14530 0.03700
H 	H 	0.14810 0.88210 0.10870 0.02300
C 	C 	0.18030 0.84255 0.24350 -0.04600
H 	H 	0.10300 0.84200 0.26220 0.02000
H 	H 	0.19790 0.80370 0.21560 0.01900
C 	C 	0.19030 0.99452 0.13230 -0.11700
H 	H 	0.25650 0.98510 0.09570 0.05000
H 	H 	0.20180 0.03290 0.16510 0.04300
C 	C 	0.09380 0.99830 0.06150 0.00400
C 	C 	0.00550 0.03396 0.08480 -0.10900
H 	H 	0.00930 0.05730 0.14270 0.02600
C 	C 	0.08730 0.96449 0.97560 -0.06600
H 	H 	0.14700 0.94040 0.95860 0.03600
N 	N 	0.58080 0.26468 0.01870 -0.22600
C 	C 	0.53010 0.23500 0.08980 0.07400
H 	H 	0.56900 0.20500 0.12430 -0.02900
C 	C 	0.42570 0.24629 0.11400 -0.17000
H 	H 	0.39350 0.22420 0.16470 0.07000
C 	C 	0.36510 0.29009 0.06530 0.09200
C 	C 	0.41700 0.31899 0.98940 -0.15200
H 	H 	0.37930 0.34830 0.95210 0.07400
C 	C 	0.52250 0.30520 0.96850 0.09600
H 	H 	0.55580 0.32520 0.91600 -0.02600
C 	C 	0.25320 0.30556 0.09700 -0.14300
H 	H 	0.20850 0.31710 0.03820 0.05900
H 	H 	0.21940 0.27020 0.12550 0.06100
N 	N 	0.25080 0.35347 0.17000 -0.08900
C 	C 	0.27200 0.41168 0.12870 -0.05100
H 	H 	0.22340 0.41850 0.07020 0.02900
H 	H 	0.34830 0.41390 0.10760 0.02200
C 	C 	0.25250 0.45815 0.20540 -0.07200
H 	H 	0.26520 0.49750 0.17730 0.02700
H 	H 	0.17600 0.45620 0.22600 0.04400
N 	N 	0.32730 0.44851 0.29200 -0.13300
C 	C 	0.30330 0.38963 0.33310 -0.07800
H 	H 	0.22710 0.38850 0.35470 0.03800
H 	H 	0.35190 0.38210 0.39130 0.02900
C 	C 	0.31970 0.34255 0.25650 -0.04400
H 	H 	0.39700 0.34200 0.23780 0.02300
H 	H 	0.30210 0.30370 0.28440 0.01900
C 	C 	0.30970 0.49452 0.36770 -0.12400
H 	H 	0.24350 0.48510 0.40430 0.05500
H 	H 	0.29820 0.53290 0.33490 0.04700
C 	C 	0.40620 0.49830 0.43850 0.01900
C 	C 	0.49450 0.53396 0.41520 -0.09200
H 	H 	0.49070 0.55730 0.35730 0.02700
C 	C 	0.41270 0.46449 0.52440 -0.06700
H 	H 	0.35300 0.44040 0.54140 0.03200
N 	N 	0.08080 0.76468 0.01870 -0.21200
C 	C 	0.03010 0.73500 0.08980 0.02900
H 	H 	0.06900 0.70500 0.12430 -0.01800
C 	C 	0.92570 0.74629 0.11400 -0.11600
H 	H 	0.89350 0.72420 0.16470 0.05700
C 	C 	0.86510 0.79009 0.06530 0.05800
C 	C 	0.91700 0.81899 0.98940 -0.09600
H 	H 	0.87930 0.84830 0.95210 0.06000
C 	C 	0.02250 0.80520 0.96850 0.04800
H 	H 	0.05580 0.82520 0.91600 -0.01600
C 	C 	0.75320 0.80556 0.09700 -0.12500
H 	H 	0.70850 0.81710 0.03820 0.05600
H 	H 	0.71940 0.77020 0.12550 0.05800
N 	N 	0.75080 0.85347 0.17000 -0.09000
C 	C 	0.77200 0.91168 0.12870 -0.05000
H 	H 	0.72340 0.91850 0.07020 0.03200
H 	H 	0.84830 0.91390 0.10760 0.02500
C 	C 	0.75250 0.95815 0.20540 -0.07200
H 	H 	0.76520 0.99750 0.17730 0.03000
H 	H 	0.67600 0.95620 0.22600 0.04700
N 	N 	0.82730 0.94851 0.29200 -0.13300
C 	C 	0.80330 0.88963 0.33310 -0.07600
H 	H 	0.72710 0.88850 0.35470 0.04000
H 	H 	0.85190 0.88210 0.39130 0.03100
C 	C 	0.81970 0.84255 0.25650 -0.04500
H 	H 	0.89700 0.84200 0.23780 0.02800
H 	H 	0.80210 0.80370 0.28440 0.02100
C 	C 	0.80970 0.99452 0.36770 -0.10200
H 	H 	0.74350 0.98510 0.40430 0.05100
H 	H 	0.79820 0.03290 0.33490 0.04200
C 	C 	0.90620 0.99830 0.43850 -0.01600
C 	C 	0.99450 0.03396 0.41520 -0.03200
H 	H 	0.99070 0.05730 0.35730 0.01300
C 	C 	0.91270 0.96449 0.52440 -0.00600
H 	H 	0.85300 0.94040 0.54140 0.01500
N 	N 	0.58080 0.73532 0.51870 -0.21700
C 	C 	0.53010 0.76500 0.58980 0.08500
H 	H 	0.56900 0.79500 0.62430 -0.03000
C 	C 	0.42570 0.75371 0.61400 -0.18200
H 	H 	0.39350 0.77580 0.66470 0.07700
C 	C 	0.36510 0.70991 0.56530 0.12500
C 	C 	0.41700 0.68101 0.48940 -0.18400
H 	H 	0.37930 0.65170 0.45210 0.08000
C 	C 	0.52250 0.69480 0.46850 0.08600
H 	H 	0.55580 0.67480 0.41600 -0.02700
C 	C 	0.25320 0.69444 0.59700 -0.16000
H 	H 	0.20850 0.68290 0.53820 0.07100
H 	H 	0.21940 0.72980 0.62550 0.06800
N 	N 	0.25080 0.64653 0.67000 -0.08600
C 	C 	0.27200 0.58832 0.62870 -0.05400
H 	H 	0.22340 0.58150 0.57020 0.03600
H 	H 	0.34830 0.58610 0.60760 0.02700
C 	C 	0.25250 0.54185 0.70540 -0.07200
H 	H 	0.26520 0.50250 0.67730 0.02900
H 	H 	0.17600 0.54380 0.72600 0.04600
N 	N 	0.32730 0.55149 0.79200 -0.12900
C 	C 	0.30330 0.61037 0.83310 -0.08200
H 	H 	0.22710 0.61150 0.85470 0.04300
H 	H 	0.35190 0.61790 0.89130 0.03600
C 	C 	0.31970 0.65745 0.75650 -0.04300
H 	H 	0.39700 0.65800 0.73780 0.02300
H 	H 	0.30210 0.69630 0.78440 0.02100
C 	C 	0.30970 0.50548 0.86770 -0.15400
H 	H 	0.24350 0.51490 0.90430 0.06900
H 	H 	0.29820 0.46710 0.83490 0.05700
C 	C 	0.40620 0.50170 0.93850 0.08000
C 	C 	0.49450 0.46604 0.91520 -0.14400
H 	H 	0.49070 0.44270 0.85730 0.04400
C 	C 	0.41270 0.53551 0.02440 -0.13700
H 	H 	0.35300 0.55960 0.04140 0.04900
N 	N 	0.08080 0.23532 0.51870 -0.20400
C 	C 	0.03010 0.26500 0.58980 0.03900
H 	H 	0.06900 0.29500 0.62430 -0.01900
C 	C 	0.92570 0.25371 0.61400 -0.12800
H 	H 	0.89350 0.27580 0.66470 0.06300
C 	C 	0.86510 0.20991 0.56530 0.09300
C 	C 	0.91700 0.18101 0.48940 -0.13100
H 	H 	0.87930 0.15170 0.45210 0.06600
C 	C 	0.02250 0.19480 0.46850 0.04100
H 	H 	0.05580 0.17480 0.41600 -0.01700
C 	C 	0.75320 0.19444 0.59700 -0.14300
H 	H 	0.70850 0.18290 0.53820 0.06800
H 	H 	0.71940 0.22980 0.62550 0.06600
N 	N 	0.75080 0.14653 0.67000 -0.08600
C 	C 	0.77200 0.08832 0.62870 -0.05400
H 	H 	0.72340 0.08150 0.57020 0.03800
H 	H 	0.84830 0.08610 0.60760 0.03000
C 	C 	0.75250 0.04185 0.70540 -0.07200
H 	H 	0.76520 0.00250 0.67730 0.03100
H 	H 	0.67600 0.04380 0.72600 0.04900
N 	N 	0.82730 0.05149 0.79200 -0.12800
C 	C 	0.80330 0.11037 0.83310 -0.08000
H 	H 	0.72710 0.11150 0.85470 0.04500
H 	H 	0.85190 0.11790 0.89130 0.03800
C 	C 	0.81970 0.15745 0.75650 -0.04400
H 	H 	0.89700 0.15800 0.73780 0.02800
H 	H 	0.80210 0.19630 0.78440 0.02300
C 	C 	0.80970 0.00548 0.86770 -0.13600
H 	H 	0.74350 0.01490 0.90430 0.06500
H 	H 	0.79820 0.96710 0.83490 0.05600
C 	C 	0.90620 0.00170 0.93850 0.04000
C 	C 	0.99450 0.96604 0.91520 -0.07500
H 	H 	0.99070 0.94270 0.85730 0.02900
C 	C 	0.91270 0.03551 0.02440 -0.07400
H 	H 	0.85300 0.05960 0.04140 0.03100
N 	N 	0.41920 0.73532 0.98130 -0.20600
C 	C 	0.46990 0.76500 0.91020 0.09900
H 	H 	0.43100 0.79500 0.87570 -0.03200
C 	C 	0.57430 0.75371 0.88600 -0.19700
H 	H 	0.60650 0.77580 0.83530 0.08400
C 	C 	0.63490 0.70991 0.93470 0.16300
C 	C 	0.58300 0.68101 0.01060 -0.21800
H 	H 	0.62070 0.65170 0.04790 0.08700
C 	C 	0.47750 0.69480 0.03150 0.07900
H 	H 	0.44420 0.67480 0.08400 -0.02700
C 	C 	0.74680 0.69444 0.90300 -0.18100
H 	H 	0.79150 0.68290 0.96180 0.08800
H 	H 	0.78060 0.72980 0.87450 0.08000
N 	N 	0.74920 0.64653 0.83000 -0.07900
C 	C 	0.72800 0.58832 0.87130 -0.05800
H 	H 	0.77660 0.58150 0.92980 0.04600
H 	H 	0.65170 0.58610 0.89240 0.03300
C 	C 	0.74750 0.54185 0.79460 -0.07200
H 	H 	0.73480 0.50250 0.82270 0.03300
H 	H 	0.82400 0.54380 0.77400 0.05300
N 	N 	0.67270 0.55149 0.70800 -0.13200
C 	C 	0.69670 0.61037 0.66690 -0.07800
H 	H 	0.77290 0.61150 0.64530 0.04300
H 	H 	0.64810 0.61790 0.60870 0.03000
C 	C 	0.68030 0.65745 0.74350 -0.04500
H 	H 	0.60300 0.65800 0.76220 0.02400
H 	H 	0.69790 0.69630 0.71560 0.02200
C 	C 	0.69030 0.50548 0.63230 -0.12800
H 	H 	0.75650 0.51490 0.59570 0.06000
H 	H 	0.70180 0.46710 0.66510 0.05100
C 	C 	0.59380 0.50170 0.56150 0.02300
C 	C 	0.50550 0.46604 0.58480 -0.09600
H 	H 	0.50930 0.44270 0.64270 0.02800
C 	C 	0.58730 0.53551 0.47560 -0.07000
H 	H 	0.64700 0.55960 0.45860 0.03400
N 	N 	0.91920 0.23532 0.98130 -0.21700
C 	C 	0.96990 0.26500 0.91020 0.14500
H 	H 	0.93100 0.29500 0.87570 -0.04200
C 	C 	0.07430 0.25371 0.88600 -0.25000
H 	H 	0.10650 0.27580 0.83530 0.09700
C 	C 	0.13490 0.20991 0.93470 0.19200
C 	C 	0.08300 0.18101 0.01060 -0.26500
H 	H 	0.12070 0.15170 0.04790 0.10000
C 	C 	0.97750 0.19480 0.03150 0.12000
H 	H 	0.94420 0.17480 0.08400 -0.03600
C 	C 	0.24680 0.19444 0.90300 -0.19600
H 	H 	0.29150 0.18290 0.96180 0.09000
H 	H 	0.28060 0.22980 0.87450 0.08200
N 	N 	0.24920 0.14653 0.83000 -0.07900
C 	C 	0.22800 0.08832 0.87130 -0.05800
H 	H 	0.27660 0.08150 0.92980 0.04300
H 	H 	0.15170 0.08610 0.89240 0.03000
C 	C 	0.24750 0.04185 0.79460 -0.07100
H 	H 	0.23480 0.00250 0.82270 0.02900
H 	H 	0.32400 0.04380 0.77400 0.04900
N 	N 	0.17270 0.05149 0.70800 -0.13100
C 	C 	0.19670 0.11037 0.66690 -0.07900
H 	H 	0.27290 0.11150 0.64530 0.04100
H 	H 	0.14810 0.11790 0.60870 0.02800
C 	C 	0.18030 0.15745 0.74350 -0.04500
H 	H 	0.10300 0.15800 0.76220 0.02000
H 	H 	0.19790 0.19630 0.71560 0.02000
C 	C 	0.19030 0.00548 0.63230 -0.14900
H 	H 	0.25650 0.01490 0.59570 0.06400
H 	H 	0.20180 0.96710 0.66510 0.05600
C 	C 	0.09380 0.00170 0.56150 0.05900
C 	C 	0.00550 0.96604 0.58480 -0.15500
H 	H 	0.00930 0.94270 0.64270 0.04200
C 	C 	0.08730 0.03551 0.47560 -0.13000
H 	H 	0.14700 0.05960 0.45860 0.05100
Ag	Ag	0.25000 0.25000 0.50000 0.50100
Ag	Ag	0.75000 0.25000 -0.00000 0.49300
Ag	Ag	0.75000 0.75000 0.50000 0.50400
Ag	Ag	0.25000 0.75000 -0.00000 0.49100
Ag	Ag	0.50000 0.45117 0.25000 0.52400
Ag	Ag	0.00000 0.95117 0.25000 0.51500
Ag	Ag	0.50000 0.54883 0.75000 0.52500
Ag	Ag	0.00000 0.04883 0.75000 0.51400
