data_crystal

_cell_length_a 9.73300
_cell_length_b 22.32300
_cell_length_c 15.63100
_cell_angle_alpha 90.00000
_cell_angle_beta  93.89000
_cell_angle_gamma 90.00000

_symmetry_space_group_name_	'P 1'
_symmetry_space_group_name_H-M	'P 1'

loop_
_symmetry_equiv_pos_as_xyz
  x,y,z

loop_
_atom_site_label
_atom_site_type_symbol
_atom_site_fract_x
_atom_site_fract_y
_atom_site_fract_z
_atom_site_charge
Ag	Ag	0.81176 0.25249 0.07738 0.50700
Ag	Ag	0.61360 0.45604 0.33182 0.52200
N 	N 	0.61700 0.27940 0.11320 -0.21500
C 	C 	0.56200 0.25230 0.18070 0.07200
H 	H 	0.61270 0.22080 0.20910 -0.02500
C 	C 	0.43400 0.26900 0.21040 -0.17400
H 	H 	0.40050 0.24880 0.25820 0.07500
C 	C 	0.35800 0.31400 0.17090 0.13000
C 	C 	0.41600 0.34140 0.10000 -0.17500
H 	H 	0.36900 0.37320 0.07030 0.08200
C 	C 	0.54100 0.32250 0.07380 0.08600
H 	H 	0.57600 0.34100 0.02490 -0.02200
C 	C 	0.22800 0.33700 0.20230 -0.16100
H 	H 	0.17610 0.30330 0.22570 0.06400
H 	H 	0.17110 0.35450 0.15370 0.06500
N 	N 	0.25460 0.38450 0.27180 -0.08500
C 	C 	0.30900 0.44060 0.23640 -0.04500
H 	H 	0.40250 0.43330 0.21660 0.02100
H 	H 	0.24890 0.45410 0.18670 0.03300
C 	C 	0.31670 0.48750 0.30340 -0.09000
H 	H 	0.22330 0.49570 0.32190 0.05100
H 	H 	0.35330 0.52500 0.28000 0.02800
N 	N 	0.41310 0.46620 0.38250 -0.13900
C 	C 	0.35700 0.41180 0.41310 -0.05800
H 	H 	0.26420 0.42000 0.43310 0.04100
H 	H 	0.41570 0.39720 0.46280 0.02600
C 	C 	0.34500 0.36350 0.34600 -0.05900
H 	H 	0.43710 0.35370 0.32710 0.02800
H 	H 	0.30550 0.32690 0.37030 0.02900
C 	C 	0.41600 0.51580 0.44440 -0.11600
H 	H 	0.32480 0.51930 0.46820 0.05500
H 	H 	0.43450 0.55370 0.41420 0.04100
C 	C 	0.52600 0.50700 0.51770 0.01800
C 	C 	0.65500 0.53240 0.50620 -0.07400
H 	H 	0.67140 0.55300 0.45470 0.01900
C 	C 	0.75700 0.52680 0.57160 -0.07600
H 	H 	0.84590 0.54210 0.56300 0.03800
C 	C 	0.73500 0.49990 0.64850 0.03400
C 	C 	0.60800 0.47290 0.65640 -0.08600
H 	H 	0.59310 0.45170 0.70760 0.02200
C 	C 	0.50400 0.47550 0.59350 -0.06000
H 	H 	0.41790 0.45640 0.60080 0.03100
C 	C 	0.84500 0.50070 0.72080 -0.13300
H 	H 	0.93550 0.50760 0.69690 0.06300
H 	H 	0.84860 0.46100 0.74910 0.04900
N 	N 	0.82300 0.54830 0.78740 -0.13500
C 	C 	0.84200 0.60870 0.74880 -0.08500
H 	H 	0.93630 0.61160 0.72920 0.05300
H 	H 	0.77630 0.61350 0.69810 0.03200
C 	C 	0.82100 0.65720 0.80980 -0.03700
H 	H 	0.72450 0.65620 0.82670 0.01700
H 	H 	0.83630 0.69630 0.78220 0.01900
N 	N 	0.91600 0.65090 0.88630 -0.08600
C 	C 	0.89500 0.59060 0.92250 -0.05900
H 	H 	0.79990 0.58740 0.94080 0.01800
H 	H 	0.95910 0.58510 0.97390 0.03700
C 	C 	0.91900 0.54240 0.85950 -0.04900
H 	H 	0.01370 0.54540 0.84090 0.04000
H 	H 	0.90800 0.50280 0.88660 0.02000
C 	C 	0.91300 0.70030 0.94360 -0.13600
H 	H 	0.94180 0.73660 0.91320 0.05700
H 	H 	0.98180 0.69320 0.99200 0.05600
C 	C 	0.77500 0.71320 0.98020 0.11000
C 	C 	0.69000 0.75530 0.94190 -0.15800
H 	H 	0.72190 0.77800 0.89570 0.06800
C 	C 	0.55900 0.76620 0.96820 0.04800
H 	H 	0.50130 0.79540 0.94000 -0.02100
N 	N 	0.51400 0.73330 0.03660 -0.20900
C 	C 	0.59700 0.69670 0.07570 0.09500
H 	H 	0.56800 0.67690 0.12520 -0.03100
C 	C 	0.72900 0.68400 0.04940 -0.16700
H 	H 	0.78550 0.65520 0.07950 0.08100
Ag	Ag	0.31176 0.75249 0.07738 0.50200
Ag	Ag	0.11360 0.95604 0.33182 0.51800
N 	N 	0.11700 0.77940 0.11320 -0.21100
C 	C 	0.06200 0.75230 0.18070 0.05400
H 	H 	0.11270 0.72080 0.20910 -0.02200
C 	C 	0.93400 0.76900 0.21040 -0.15300
H 	H 	0.90050 0.74880 0.25820 0.07000
C 	C 	0.85800 0.81400 0.17090 0.11700
C 	C 	0.91600 0.84140 0.10000 -0.15300
H 	H 	0.86900 0.87320 0.07030 0.07600
C 	C 	0.04100 0.82250 0.07380 0.06600
H 	H 	0.07600 0.84100 0.02490 -0.01800
C 	C 	0.72800 0.83700 0.20230 -0.15400
H 	H 	0.67610 0.80330 0.22570 0.06400
H 	H 	0.67110 0.85450 0.15370 0.06500
N 	N 	0.75460 0.88450 0.27180 -0.08500
C 	C 	0.80900 0.94060 0.23640 -0.04500
H 	H 	0.90250 0.93330 0.21660 0.02300
H 	H 	0.74890 0.95410 0.18670 0.03500
C 	C 	0.81670 0.98750 0.30340 -0.08900
H 	H 	0.72330 0.99570 0.32190 0.05200
H 	H 	0.85330 0.02500 0.28000 0.03000
N 	N 	0.91310 0.96620 0.38250 -0.13700
C 	C 	0.85700 0.91180 0.41310 -0.05900
H 	H 	0.76420 0.92000 0.43310 0.04300
H 	H 	0.91570 0.89720 0.46280 0.03000
C 	C 	0.84500 0.86350 0.34600 -0.05900
H 	H 	0.93710 0.85370 0.32710 0.03100
H 	H 	0.80550 0.82690 0.37030 0.03100
C 	C 	0.91600 0.01580 0.44440 -0.11100
H 	H 	0.82480 0.01930 0.46820 0.05500
H 	H 	0.93450 0.05370 0.41420 0.04200
C 	C 	0.02600 0.00700 0.51770 0.01800
C 	C 	0.15500 0.03240 0.50620 -0.07700
H 	H 	0.17140 0.05300 0.45470 0.01800
C 	C 	0.25700 0.02680 0.57160 -0.07100
H 	H 	0.34590 0.04210 0.56300 0.03500
C 	C 	0.23500 0.99990 0.64850 0.02700
C 	C 	0.10800 0.97290 0.65640 -0.07400
H 	H 	0.09310 0.95170 0.70760 0.01500
C 	C 	0.00400 0.97550 0.59350 -0.08200
H 	H 	0.91790 0.95640 0.60080 0.04400
C 	C 	0.34500 0.00070 0.72080 -0.12900
H 	H 	0.43550 0.00760 0.69690 0.06000
H 	H 	0.34860 0.96100 0.74910 0.04600
N 	N 	0.32300 0.04830 0.78740 -0.13400
C 	C 	0.34200 0.10870 0.74880 -0.08500
H 	H 	0.43630 0.11160 0.72920 0.05100
H 	H 	0.27630 0.11350 0.69810 0.03100
C 	C 	0.32100 0.15720 0.80980 -0.03700
H 	H 	0.22450 0.15620 0.82670 0.01500
H 	H 	0.33630 0.19630 0.78220 0.01700
N 	N 	0.41600 0.15090 0.88630 -0.08900
C 	C 	0.39500 0.09060 0.92250 -0.04900
H 	H 	0.29990 0.08740 0.94080 0.01500
H 	H 	0.45910 0.08510 0.97390 0.03100
C 	C 	0.41900 0.04240 0.85950 -0.07000
H 	H 	0.51370 0.04540 0.84090 0.05300
H 	H 	0.40800 0.00280 0.88660 0.02400
C 	C 	0.41300 0.20030 0.94360 -0.13200
H 	H 	0.44180 0.23660 0.91320 0.05400
H 	H 	0.48180 0.19320 0.99200 0.05200
C 	C 	0.27500 0.21320 0.98020 0.10600
C 	C 	0.19000 0.25530 0.94190 -0.15600
H 	H 	0.22190 0.27800 0.89570 0.06600
C 	C 	0.05900 0.26620 0.96820 0.04500
H 	H 	0.00130 0.29540 0.94000 -0.02300
N 	N 	0.01400 0.23330 0.03660 -0.21000
C 	C 	0.09700 0.19670 0.07570 0.09300
H 	H 	0.06800 0.17690 0.12520 -0.03200
C 	C 	0.22900 0.18400 0.04940 -0.16400
H 	H 	0.28550 0.15520 0.07950 0.07900
Ag	Ag	0.81176 0.74751 0.57738 0.50400
Ag	Ag	0.61360 0.54396 0.83182 0.52000
N 	N 	0.61700 0.72060 0.61320 -0.21600
C 	C 	0.56200 0.74770 0.68070 0.07100
H 	H 	0.61270 0.77920 0.70910 -0.02600
C 	C 	0.43400 0.73100 0.71040 -0.17300
H 	H 	0.40050 0.75120 0.75820 0.07400
C 	C 	0.35800 0.68600 0.67090 0.12800
C 	C 	0.41600 0.65860 0.60000 -0.17500
H 	H 	0.36900 0.62680 0.57030 0.08000
C 	C 	0.54100 0.67750 0.57380 0.08400
H 	H 	0.57600 0.65900 0.52490 -0.02400
C 	C 	0.22800 0.66300 0.70230 -0.15900
H 	H 	0.17610 0.69670 0.72570 0.06300
H 	H 	0.17110 0.64550 0.65370 0.06400
N 	N 	0.25460 0.61550 0.77180 -0.08500
C 	C 	0.30900 0.55940 0.73640 -0.04400
H 	H 	0.40250 0.56670 0.71660 0.02000
H 	H 	0.24890 0.54590 0.68670 0.03200
C 	C 	0.31670 0.51250 0.80340 -0.09000
H 	H 	0.22330 0.50430 0.82190 0.05000
H 	H 	0.35330 0.47500 0.78000 0.02700
N 	N 	0.41310 0.53380 0.88250 -0.13900
C 	C 	0.35700 0.58820 0.91310 -0.05700
H 	H 	0.26420 0.58000 0.93310 0.03900
H 	H 	0.41570 0.60280 0.96280 0.02300
C 	C 	0.34500 0.63650 0.84600 -0.06000
H 	H 	0.43710 0.64630 0.82710 0.02800
H 	H 	0.30550 0.67310 0.87030 0.02800
C 	C 	0.41600 0.48420 0.94440 -0.12300
H 	H 	0.32480 0.48070 0.96820 0.05300
H 	H 	0.43450 0.44630 0.91420 0.04100
C 	C 	0.52600 0.49300 0.01770 0.02000
C 	C 	0.65500 0.46760 0.00620 -0.05300
H 	H 	0.67140 0.44700 0.95470 0.00600
C 	C 	0.75700 0.47320 0.07160 -0.08700
H 	H 	0.84590 0.45790 0.06300 0.04400
C 	C 	0.73500 0.50010 0.14850 0.04100
C 	C 	0.60800 0.52710 0.15640 -0.09000
H 	H 	0.59310 0.54830 0.20760 0.02300
C 	C 	0.50400 0.52450 0.09350 -0.05700
H 	H 	0.41790 0.54360 0.10080 0.03300
C 	C 	0.84500 0.49930 0.22080 -0.13600
H 	H 	0.93550 0.49240 0.19690 0.06400
H 	H 	0.84860 0.53900 0.24910 0.05000
N 	N 	0.82300 0.45170 0.28740 -0.13500
C 	C 	0.84200 0.39130 0.24880 -0.08500
H 	H 	0.93630 0.38840 0.22920 0.05300
H 	H 	0.77630 0.38650 0.19810 0.03200
C 	C 	0.82100 0.34280 0.30980 -0.03800
H 	H 	0.72450 0.34380 0.32670 0.01700
H 	H 	0.83630 0.30370 0.28220 0.01900
N 	N 	0.91600 0.34910 0.38630 -0.08400
C 	C 	0.89500 0.40940 0.42250 -0.06000
H 	H 	0.79990 0.41260 0.44080 0.02100
H 	H 	0.95910 0.41490 0.47390 0.03900
C 	C 	0.91900 0.45760 0.35950 -0.05000
H 	H 	0.01370 0.45460 0.34090 0.04100
H 	H 	0.90800 0.49720 0.38660 0.02100
C 	C 	0.91300 0.29970 0.44360 -0.14800
H 	H 	0.94180 0.26340 0.41320 0.06100
H 	H 	0.98180 0.30680 0.49200 0.06200
C 	C 	0.77500 0.28680 0.48020 0.13300
C 	C 	0.69000 0.24470 0.44190 -0.17200
H 	H 	0.72190 0.22200 0.39570 0.07300
C 	C 	0.55900 0.23380 0.46820 0.06600
H 	H 	0.50130 0.20460 0.44000 -0.02400
N 	N 	0.51400 0.26670 0.53660 -0.21800
C 	C 	0.59700 0.30330 0.57570 0.10400
H 	H 	0.56800 0.32310 0.62520 -0.03400
C 	C 	0.72900 0.31600 0.54940 -0.19000
H 	H 	0.78550 0.34480 0.57950 0.08600
Ag	Ag	0.31176 0.24751 0.57738 0.50000
Ag	Ag	0.11360 0.04396 0.83182 0.51700
N 	N 	0.11700 0.22060 0.61320 -0.21100
C 	C 	0.06200 0.24770 0.68070 0.05100
H 	H 	0.11270 0.27920 0.70910 -0.02200
C 	C 	0.93400 0.23100 0.71040 -0.15000
H 	H 	0.90050 0.25120 0.75820 0.06900
C 	C 	0.85800 0.18600 0.67090 0.11400
C 	C 	0.91600 0.15860 0.60000 -0.15100
H 	H 	0.86900 0.12680 0.57030 0.07400
C 	C 	0.04100 0.17750 0.57380 0.06300
H 	H 	0.07600 0.15900 0.52490 -0.02000
C 	C 	0.72800 0.16300 0.70230 -0.15200
H 	H 	0.67610 0.19670 0.72570 0.06300
H 	H 	0.67110 0.14550 0.65370 0.06300
N 	N 	0.75460 0.11550 0.77180 -0.08500
C 	C 	0.80900 0.05940 0.73640 -0.04500
H 	H 	0.90250 0.06670 0.71660 0.02300
H 	H 	0.74890 0.04590 0.68670 0.03400
C 	C 	0.81670 0.01250 0.80340 -0.08900
H 	H 	0.72330 0.00430 0.82190 0.05100
H 	H 	0.85330 0.97500 0.78000 0.02900
N 	N 	0.91310 0.03380 0.88250 -0.13700
C 	C 	0.85700 0.08820 0.91310 -0.05700
H 	H 	0.76420 0.08000 0.93310 0.04100
H 	H 	0.91570 0.10280 0.96280 0.02700
C 	C 	0.84500 0.13650 0.84600 -0.06000
H 	H 	0.93710 0.14630 0.82710 0.03100
H 	H 	0.80550 0.17310 0.87030 0.03000
C 	C 	0.91600 0.98420 0.94440 -0.11600
H 	H 	0.82480 0.98070 0.96820 0.05300
H 	H 	0.93450 0.94630 0.91420 0.04200
C 	C 	0.02600 0.99300 0.01770 0.01800
C 	C 	0.15500 0.96760 0.00620 -0.05400
H 	H 	0.17140 0.94700 0.95470 0.00400
C 	C 	0.25700 0.97320 0.07160 -0.08400
H 	H 	0.34590 0.95790 0.06300 0.04200
C 	C 	0.23500 0.00010 0.14850 0.03500
C 	C 	0.10800 0.02710 0.15640 -0.08000
H 	H 	0.09310 0.04830 0.20760 0.01800
C 	C 	0.00400 0.02450 0.09350 -0.07600
H 	H 	0.91790 0.04360 0.10080 0.04400
C 	C 	0.34500 0.99930 0.22080 -0.13300
H 	H 	0.43550 0.99240 0.19690 0.06200
H 	H 	0.34860 0.03900 0.24910 0.04800
N 	N 	0.32300 0.95170 0.28740 -0.13300
C 	C 	0.34200 0.89130 0.24880 -0.08500
H 	H 	0.43630 0.88840 0.22920 0.05100
H 	H 	0.27630 0.88650 0.19810 0.03100
C 	C 	0.32100 0.84280 0.30980 -0.03700
H 	H 	0.22450 0.84380 0.32670 0.01600
H 	H 	0.33630 0.80370 0.28220 0.01800
N 	N 	0.41600 0.84910 0.38630 -0.08700
C 	C 	0.39500 0.90940 0.42250 -0.05100
H 	H 	0.29990 0.91260 0.44080 0.01800
H 	H 	0.45910 0.91490 0.47390 0.03400
C 	C 	0.41900 0.95760 0.35950 -0.06900
H 	H 	0.51370 0.95460 0.34090 0.05300
H 	H 	0.40800 0.99720 0.38660 0.02500
C 	C 	0.41300 0.79970 0.44360 -0.14500
H 	H 	0.44180 0.76340 0.41320 0.05800
H 	H 	0.48180 0.80680 0.49200 0.05900
C 	C 	0.27500 0.78680 0.48020 0.13000
C 	C 	0.19000 0.74470 0.44190 -0.17200
H 	H 	0.22190 0.72200 0.39570 0.07200
C 	C 	0.05900 0.73380 0.46820 0.06400
H 	H 	0.00130 0.70460 0.44000 -0.02600
N 	N 	0.01400 0.76670 0.53660 -0.22000
C 	C 	0.09700 0.80330 0.57570 0.10300
H 	H 	0.06800 0.82310 0.62520 -0.03600
C 	C 	0.22900 0.81600 0.54940 -0.19000
H 	H 	0.28550 0.84480 0.57950 0.08500
