data_crystal

_cell_length_a 22.91180
_cell_length_b 22.91180
_cell_length_c 22.91180
_cell_angle_alpha 90.00000
_cell_angle_beta  90.00000
_cell_angle_gamma 90.00000

_symmetry_space_group_name_	'P 1'
_symmetry_space_group_name_H-M	'P 1'

loop_
_symmetry_equiv_pos_as_xyz
  x,y,z

loop_
_atom_site_label
_atom_site_type_symbol
_atom_site_fract_x
_atom_site_fract_y
_atom_site_fract_z
_atom_site_charge
O 	O 	0.56709 0.93149 0.39170 -0.25600
O 	O 	0.58638 0.02090 0.40600 -0.69300
O 	O 	0.57680 0.09029 0.32368 -0.79100
C 	C 	0.57680 0.99042 0.30902 -0.26500
C 	C 	0.57680 0.04633 0.28780 0.39100
C 	C 	0.57680 0.05590 0.22878 -0.09100
C 	C 	0.57680 0.98014 0.37241 0.56100
H 	H 	0.57680 0.09589 0.21360 0.10800
O 	O 	0.06709 0.43149 0.89170 -0.25600
O 	O 	0.08638 0.52090 0.90600 -0.69400
O 	O 	0.07680 0.59029 0.82368 -0.79100
C 	C 	0.07680 0.49042 0.80902 -0.26600
C 	C 	0.07680 0.54633 0.78780 0.39000
C 	C 	0.07680 0.55590 0.72878 -0.09200
C 	C 	0.07680 0.48014 0.87241 0.56000
H 	H 	0.07680 0.59589 0.71360 0.10700
O 	O 	0.93291 0.06851 0.89170 -0.25700
O 	O 	0.91362 0.97910 0.90600 -0.69500
O 	O 	0.92320 0.90971 0.82368 -0.79200
C 	C 	0.92320 0.00958 0.80902 -0.26600
C 	C 	0.92320 0.95367 0.78780 0.38900
C 	C 	0.92320 0.94410 0.72878 -0.09200
C 	C 	0.92320 0.01986 0.87241 0.56000
H 	H 	0.92320 0.90411 0.71360 0.10700
O 	O 	0.43291 0.56851 0.39170 -0.25700
O 	O 	0.41362 0.47910 0.40600 -0.69400
O 	O 	0.42320 0.40971 0.32368 -0.79100
C 	C 	0.42320 0.50958 0.30902 -0.26600
C 	C 	0.42320 0.45367 0.28780 0.39000
C 	C 	0.42320 0.44410 0.22878 -0.09200
C 	C 	0.42320 0.51986 0.37241 0.56000
H 	H 	0.42320 0.40411 0.21360 0.10700
O 	O 	0.43291 0.43149 0.10830 -0.25700
O 	O 	0.41362 0.52090 0.09400 -0.69400
O 	O 	0.42320 0.59029 0.17632 -0.79100
C 	C 	0.42320 0.49042 0.19098 -0.26600
C 	C 	0.42320 0.54633 0.21220 0.39000
C 	C 	0.42320 0.55590 0.27122 -0.09200
C 	C 	0.42320 0.48014 0.12759 0.56000
H 	H 	0.42320 0.59589 0.28640 0.10700
O 	O 	0.93291 0.93149 0.60830 -0.25700
O 	O 	0.91362 0.02090 0.59400 -0.69400
O 	O 	0.92320 0.09029 0.67632 -0.79200
C 	C 	0.92320 0.99042 0.69098 -0.26600
C 	C 	0.92320 0.04633 0.71220 0.39000
C 	C 	0.92320 0.05590 0.77122 -0.09200
C 	C 	0.92320 0.98014 0.62759 0.56000
H 	H 	0.92320 0.09589 0.78640 0.10700
O 	O 	0.06709 0.56851 0.60830 -0.25700
O 	O 	0.08638 0.47910 0.59400 -0.69400
O 	O 	0.07680 0.40971 0.67632 -0.79200
C 	C 	0.07680 0.50958 0.69098 -0.26600
C 	C 	0.07680 0.45367 0.71220 0.39000
C 	C 	0.07680 0.44410 0.77122 -0.09200
C 	C 	0.07680 0.51986 0.62759 0.56000
H 	H 	0.07680 0.40411 0.78640 0.10700
O 	O 	0.56709 0.06851 0.10830 -0.25700
O 	O 	0.58638 0.97910 0.09400 -0.69500
O 	O 	0.57680 0.90971 0.17632 -0.79100
C 	C 	0.57680 0.00958 0.19098 -0.26600
C 	C 	0.57680 0.95367 0.21220 0.38900
C 	C 	0.57680 0.94410 0.27122 -0.09200
C 	C 	0.57680 0.01986 0.12759 0.56000
H 	H 	0.57680 0.90411 0.28640 0.10700
O 	O 	0.39170 0.56709 0.93149 -0.25700
O 	O 	0.40600 0.58638 0.02090 -0.69400
O 	O 	0.32368 0.57680 0.09029 -0.79200
C 	C 	0.30902 0.57680 0.99042 -0.26600
C 	C 	0.28780 0.57680 0.04633 0.39000
C 	C 	0.22878 0.57680 0.05590 -0.09200
C 	C 	0.37241 0.57680 0.98014 0.56000
H 	H 	0.21360 0.57680 0.09589 0.10700
O 	O 	0.89170 0.06709 0.43149 -0.25700
O 	O 	0.90600 0.08638 0.52090 -0.69500
O 	O 	0.82368 0.07680 0.59029 -0.79200
C 	C 	0.80902 0.07680 0.49042 -0.26600
C 	C 	0.78780 0.07680 0.54633 0.39000
C 	C 	0.72878 0.07680 0.55590 -0.09200
C 	C 	0.87241 0.07680 0.48014 0.56000
H 	H 	0.71360 0.07680 0.59589 0.10700
O 	O 	0.89170 0.93291 0.06851 -0.25700
O 	O 	0.90600 0.91362 0.97910 -0.69500
O 	O 	0.82368 0.92320 0.90971 -0.79200
C 	C 	0.80902 0.92320 0.00958 -0.26600
C 	C 	0.78780 0.92320 0.95367 0.38900
C 	C 	0.72878 0.92320 0.94410 -0.09200
C 	C 	0.87241 0.92320 0.01986 0.56000
H 	H 	0.71360 0.92320 0.90411 0.10700
O 	O 	0.39170 0.43291 0.56851 -0.25700
O 	O 	0.40600 0.41362 0.47910 -0.69400
O 	O 	0.32368 0.42320 0.40971 -0.79100
C 	C 	0.30902 0.42320 0.50958 -0.26600
C 	C 	0.28780 0.42320 0.45367 0.39000
C 	C 	0.22878 0.42320 0.44410 -0.09200
C 	C 	0.37241 0.42320 0.51986 0.56000
H 	H 	0.21360 0.42320 0.40411 0.10700
O 	O 	0.10830 0.43291 0.43149 -0.25700
O 	O 	0.09400 0.41362 0.52090 -0.69400
O 	O 	0.17632 0.42320 0.59029 -0.79100
C 	C 	0.19098 0.42320 0.49042 -0.26600
C 	C 	0.21220 0.42320 0.54633 0.39000
C 	C 	0.27122 0.42320 0.55590 -0.09200
C 	C 	0.12759 0.42320 0.48014 0.56000
H 	H 	0.28640 0.42320 0.59589 0.10700
O 	O 	0.60830 0.93291 0.93149 -0.25700
O 	O 	0.59400 0.91362 0.02090 -0.69400
O 	O 	0.67632 0.92320 0.09029 -0.79200
C 	C 	0.69098 0.92320 0.99042 -0.26600
C 	C 	0.71220 0.92320 0.04633 0.39000
C 	C 	0.77122 0.92320 0.05590 -0.09200
C 	C 	0.62759 0.92320 0.98014 0.56000
H 	H 	0.78640 0.92320 0.09589 0.10700
O 	O 	0.60830 0.06709 0.56851 -0.25700
O 	O 	0.59400 0.08638 0.47910 -0.69400
O 	O 	0.67632 0.07680 0.40971 -0.79200
C 	C 	0.69098 0.07680 0.50958 -0.26600
C 	C 	0.71220 0.07680 0.45367 0.39000
C 	C 	0.77122 0.07680 0.44410 -0.09200
C 	C 	0.62759 0.07680 0.51986 0.56000
H 	H 	0.78640 0.07680 0.40411 0.10700
O 	O 	0.10830 0.56709 0.06851 -0.25700
O 	O 	0.09400 0.58638 0.97910 -0.69500
O 	O 	0.17632 0.57680 0.90971 -0.79100
C 	C 	0.19098 0.57680 0.00958 -0.26600
C 	C 	0.21220 0.57680 0.95367 0.38900
C 	C 	0.27122 0.57680 0.94410 -0.09200
C 	C 	0.12759 0.57680 0.01986 0.56000
H 	H 	0.28640 0.57680 0.90411 0.10700
O 	O 	0.93149 0.39170 0.56709 -0.25700
O 	O 	0.02090 0.40600 0.58638 -0.69400
O 	O 	0.09029 0.32368 0.57680 -0.79200
C 	C 	0.99042 0.30902 0.57680 -0.26600
C 	C 	0.04633 0.28780 0.57680 0.39000
C 	C 	0.05590 0.22878 0.57680 -0.09200
C 	C 	0.98014 0.37241 0.57680 0.56000
H 	H 	0.09589 0.21360 0.57680 0.10700
O 	O 	0.43149 0.89170 0.06709 -0.25700
O 	O 	0.52090 0.90600 0.08638 -0.69500
O 	O 	0.59029 0.82368 0.07680 -0.79200
C 	C 	0.49042 0.80902 0.07680 -0.26600
C 	C 	0.54633 0.78780 0.07680 0.39000
C 	C 	0.55590 0.72878 0.07680 -0.09200
C 	C 	0.48014 0.87241 0.07680 0.56000
H 	H 	0.59589 0.71360 0.07680 0.10700
O 	O 	0.06851 0.89170 0.93291 -0.25700
O 	O 	0.97910 0.90600 0.91362 -0.69500
O 	O 	0.90971 0.82368 0.92320 -0.79200
C 	C 	0.00958 0.80902 0.92320 -0.26600
C 	C 	0.95367 0.78780 0.92320 0.38900
C 	C 	0.94410 0.72878 0.92320 -0.09200
C 	C 	0.01986 0.87241 0.92320 0.56000
H 	H 	0.90411 0.71360 0.92320 0.10700
O 	O 	0.56851 0.39170 0.43291 -0.25700
O 	O 	0.47910 0.40600 0.41362 -0.69400
O 	O 	0.40971 0.32368 0.42320 -0.79100
C 	C 	0.50958 0.30902 0.42320 -0.26600
C 	C 	0.45367 0.28780 0.42320 0.39000
C 	C 	0.44410 0.22878 0.42320 -0.09200
C 	C 	0.51986 0.37241 0.42320 0.56000
H 	H 	0.40411 0.21360 0.42320 0.10700
O 	O 	0.43149 0.10830 0.43291 -0.25700
O 	O 	0.52090 0.09400 0.41362 -0.69400
O 	O 	0.59029 0.17632 0.42320 -0.79100
C 	C 	0.49042 0.19098 0.42320 -0.26600
C 	C 	0.54633 0.21220 0.42320 0.39000
C 	C 	0.55590 0.27122 0.42320 -0.09200
C 	C 	0.48014 0.12759 0.42320 0.56000
H 	H 	0.59589 0.28640 0.42320 0.10700
O 	O 	0.93149 0.60830 0.93291 -0.25700
O 	O 	0.02090 0.59400 0.91362 -0.69400
O 	O 	0.09029 0.67632 0.92320 -0.79200
C 	C 	0.99042 0.69098 0.92320 -0.26600
C 	C 	0.04633 0.71220 0.92320 0.39000
C 	C 	0.05590 0.77122 0.92320 -0.09200
C 	C 	0.98014 0.62759 0.92320 0.56000
H 	H 	0.09589 0.78640 0.92320 0.10700
O 	O 	0.56851 0.60830 0.06709 -0.25700
O 	O 	0.47910 0.59400 0.08638 -0.69400
O 	O 	0.40971 0.67632 0.07680 -0.79200
C 	C 	0.50958 0.69098 0.07680 -0.26600
C 	C 	0.45367 0.71220 0.07680 0.39000
C 	C 	0.44410 0.77122 0.07680 -0.09200
C 	C 	0.51986 0.62759 0.07680 0.56000
H 	H 	0.40411 0.78640 0.07680 0.10700
O 	O 	0.06851 0.10830 0.56709 -0.25700
O 	O 	0.97910 0.09400 0.58638 -0.69500
O 	O 	0.90971 0.17632 0.57680 -0.79100
C 	C 	0.00958 0.19098 0.57680 -0.26600
C 	C 	0.95367 0.21220 0.57680 0.38900
C 	C 	0.94410 0.27122 0.57680 -0.09200
C 	C 	0.01986 0.12759 0.57680 0.56000
H 	H 	0.90411 0.28640 0.57680 0.10700
Ti	Ti	0.60095 0.89905 0.10095 3.13300
Ti	Ti	0.10095 0.39905 0.60095 3.13300
Ti	Ti	0.89905 0.10095 0.60095 3.13300
Ti	Ti	0.39905 0.60095 0.10095 3.13300
Ti	Ti	0.39905 0.39905 0.39905 3.13300
Ti	Ti	0.89905 0.89905 0.89905 3.13300
Ti	Ti	0.10095 0.60095 0.89905 3.13300
Ti	Ti	0.60095 0.10095 0.39905 3.13300
O 	O 	0.18149 0.81709 0.64170 -0.25700
O 	O 	0.27090 0.83638 0.65600 -0.69500
O 	O 	0.34029 0.82680 0.57368 -0.79200
C 	C 	0.24042 0.82680 0.55902 -0.26600
C 	C 	0.29633 0.82680 0.53780 0.39000
C 	C 	0.30590 0.82680 0.47878 -0.09200
C 	C 	0.23014 0.82680 0.62241 0.56000
H 	H 	0.34589 0.82680 0.46360 0.10700
O 	O 	0.68149 0.31709 0.14170 -0.25700
O 	O 	0.77090 0.33638 0.15600 -0.69500
O 	O 	0.84029 0.32680 0.07368 -0.79200
C 	C 	0.74042 0.32680 0.05902 -0.26600
C 	C 	0.79633 0.32680 0.03780 0.39000
C 	C 	0.80590 0.32680 0.97878 -0.09300
C 	C 	0.73014 0.32680 0.12241 0.56000
H 	H 	0.84589 0.32680 0.96360 0.10700
O 	O 	0.31851 0.18291 0.14170 -0.25700
O 	O 	0.22910 0.16362 0.15600 -0.69500
O 	O 	0.15971 0.17320 0.07368 -0.79200
C 	C 	0.25958 0.17320 0.05902 -0.26600
C 	C 	0.20367 0.17320 0.03780 0.39000
C 	C 	0.19410 0.17320 0.97878 -0.09300
C 	C 	0.26986 0.17320 0.12241 0.56000
H 	H 	0.15411 0.17320 0.96360 0.10700
O 	O 	0.81851 0.68291 0.64170 -0.25700
O 	O 	0.72910 0.66362 0.65600 -0.69500
O 	O 	0.65971 0.67320 0.57368 -0.79200
C 	C 	0.75958 0.67320 0.55902 -0.26600
C 	C 	0.70367 0.67320 0.53780 0.39000
C 	C 	0.69410 0.67320 0.47878 -0.09200
C 	C 	0.76986 0.67320 0.62241 0.56000
H 	H 	0.65411 0.67320 0.46360 0.10700
O 	O 	0.68149 0.68291 0.35830 -0.25700
O 	O 	0.77090 0.66362 0.34400 -0.69400
O 	O 	0.84029 0.67320 0.42632 -0.79200
C 	C 	0.74042 0.67320 0.44098 -0.26600
C 	C 	0.79633 0.67320 0.46220 0.39000
C 	C 	0.80590 0.67320 0.52122 -0.09200
C 	C 	0.73014 0.67320 0.37759 0.56000
H 	H 	0.84589 0.67320 0.53640 0.10700
O 	O 	0.18149 0.18291 0.85830 -0.25700
O 	O 	0.27090 0.16362 0.84400 -0.69400
O 	O 	0.34029 0.17320 0.92632 -0.79100
C 	C 	0.24042 0.17320 0.94098 -0.26600
C 	C 	0.29633 0.17320 0.96220 0.38900
C 	C 	0.30590 0.17320 0.02122 -0.09200
C 	C 	0.23014 0.17320 0.87759 0.56000
H 	H 	0.34589 0.17320 0.03640 0.10700
O 	O 	0.81851 0.31709 0.85830 -0.25700
O 	O 	0.72910 0.33638 0.84400 -0.69400
O 	O 	0.65971 0.32680 0.92632 -0.79100
C 	C 	0.75958 0.32680 0.94098 -0.26600
C 	C 	0.70367 0.32680 0.96220 0.38900
C 	C 	0.69410 0.32680 0.02122 -0.09200
C 	C 	0.76986 0.32680 0.87759 0.56000
H 	H 	0.65411 0.32680 0.03640 0.10700
O 	O 	0.31851 0.81709 0.35830 -0.25700
O 	O 	0.22910 0.83638 0.34400 -0.69500
O 	O 	0.15971 0.82680 0.42632 -0.79200
C 	C 	0.25958 0.82680 0.44098 -0.26600
C 	C 	0.20367 0.82680 0.46220 0.39000
C 	C 	0.19410 0.82680 0.52122 -0.09200
C 	C 	0.26986 0.82680 0.37759 0.56000
H 	H 	0.15411 0.82680 0.53640 0.10700
O 	O 	0.81709 0.64170 0.18149 -0.25700
O 	O 	0.83638 0.65600 0.27090 -0.69500
O 	O 	0.82680 0.57368 0.34029 -0.79200
C 	C 	0.82680 0.55902 0.24042 -0.26600
C 	C 	0.82680 0.53780 0.29633 0.39000
C 	C 	0.82680 0.47878 0.30590 -0.09200
C 	C 	0.82680 0.62241 0.23014 0.56000
H 	H 	0.82680 0.46360 0.34589 0.10700
O 	O 	0.31709 0.14170 0.68149 -0.25700
O 	O 	0.33638 0.15600 0.77090 -0.69500
O 	O 	0.32680 0.07368 0.84029 -0.79200
C 	C 	0.32680 0.05902 0.74042 -0.26600
C 	C 	0.32680 0.03780 0.79633 0.39000
C 	C 	0.32680 0.97878 0.80590 -0.09300
C 	C 	0.32680 0.12241 0.73014 0.56000
H 	H 	0.32680 0.96360 0.84589 0.10700
O 	O 	0.18291 0.14170 0.31851 -0.25700
O 	O 	0.16362 0.15600 0.22910 -0.69500
O 	O 	0.17320 0.07368 0.15971 -0.79200
C 	C 	0.17320 0.05902 0.25958 -0.26600
C 	C 	0.17320 0.03780 0.20367 0.39000
C 	C 	0.17320 0.97878 0.19410 -0.09300
C 	C 	0.17320 0.12241 0.26986 0.56000
H 	H 	0.17320 0.96360 0.15411 0.10700
O 	O 	0.68291 0.64170 0.81851 -0.25700
O 	O 	0.66362 0.65600 0.72910 -0.69500
O 	O 	0.67320 0.57368 0.65971 -0.79200
C 	C 	0.67320 0.55902 0.75958 -0.26600
C 	C 	0.67320 0.53780 0.70367 0.39000
C 	C 	0.67320 0.47878 0.69410 -0.09200
C 	C 	0.67320 0.62241 0.76986 0.56000
H 	H 	0.67320 0.46360 0.65411 0.10700
O 	O 	0.68291 0.35830 0.68149 -0.25700
O 	O 	0.66362 0.34400 0.77090 -0.69400
O 	O 	0.67320 0.42632 0.84029 -0.79200
C 	C 	0.67320 0.44098 0.74042 -0.26600
C 	C 	0.67320 0.46220 0.79633 0.39000
C 	C 	0.67320 0.52122 0.80590 -0.09200
C 	C 	0.67320 0.37759 0.73014 0.56000
H 	H 	0.67320 0.53640 0.84589 0.10700
O 	O 	0.18291 0.85830 0.18149 -0.25700
O 	O 	0.16362 0.84400 0.27090 -0.69400
O 	O 	0.17320 0.92632 0.34029 -0.79100
C 	C 	0.17320 0.94098 0.24042 -0.26600
C 	C 	0.17320 0.96220 0.29633 0.38900
C 	C 	0.17320 0.02122 0.30590 -0.09200
C 	C 	0.17320 0.87759 0.23014 0.56000
H 	H 	0.17320 0.03640 0.34589 0.10700
O 	O 	0.31709 0.85830 0.81851 -0.25700
O 	O 	0.33638 0.84400 0.72910 -0.69400
O 	O 	0.32680 0.92632 0.65971 -0.79100
C 	C 	0.32680 0.94098 0.75958 -0.26600
C 	C 	0.32680 0.96220 0.70367 0.38900
C 	C 	0.32680 0.02122 0.69410 -0.09200
C 	C 	0.32680 0.87759 0.76986 0.56000
H 	H 	0.32680 0.03640 0.65411 0.10700
O 	O 	0.81709 0.35830 0.31851 -0.25700
O 	O 	0.83638 0.34400 0.22910 -0.69500
O 	O 	0.82680 0.42632 0.15971 -0.79200
C 	C 	0.82680 0.44098 0.25958 -0.26600
C 	C 	0.82680 0.46220 0.20367 0.39000
C 	C 	0.82680 0.52122 0.19410 -0.09200
C 	C 	0.82680 0.37759 0.26986 0.56000
H 	H 	0.82680 0.53640 0.15411 0.10700
O 	O 	0.64170 0.18149 0.81709 -0.25700
O 	O 	0.65600 0.27090 0.83638 -0.69500
O 	O 	0.57368 0.34029 0.82680 -0.79200
C 	C 	0.55902 0.24042 0.82680 -0.26600
C 	C 	0.53780 0.29633 0.82680 0.39000
C 	C 	0.47878 0.30590 0.82680 -0.09200
C 	C 	0.62241 0.23014 0.82680 0.56000
H 	H 	0.46360 0.34589 0.82680 0.10700
O 	O 	0.14170 0.68149 0.31709 -0.25700
O 	O 	0.15600 0.77090 0.33638 -0.69500
O 	O 	0.07368 0.84029 0.32680 -0.79200
C 	C 	0.05902 0.74042 0.32680 -0.26600
C 	C 	0.03780 0.79633 0.32680 0.39000
C 	C 	0.97878 0.80590 0.32680 -0.09300
C 	C 	0.12241 0.73014 0.32680 0.56000
H 	H 	0.96360 0.84589 0.32680 0.10700
O 	O 	0.14170 0.31851 0.18291 -0.25700
O 	O 	0.15600 0.22910 0.16362 -0.69500
O 	O 	0.07368 0.15971 0.17320 -0.79200
C 	C 	0.05902 0.25958 0.17320 -0.26600
C 	C 	0.03780 0.20367 0.17320 0.39000
C 	C 	0.97878 0.19410 0.17320 -0.09300
C 	C 	0.12241 0.26986 0.17320 0.56000
H 	H 	0.96360 0.15411 0.17320 0.10700
O 	O 	0.64170 0.81851 0.68291 -0.25700
O 	O 	0.65600 0.72910 0.66362 -0.69500
O 	O 	0.57368 0.65971 0.67320 -0.79200
C 	C 	0.55902 0.75958 0.67320 -0.26600
C 	C 	0.53780 0.70367 0.67320 0.39000
C 	C 	0.47878 0.69410 0.67320 -0.09200
C 	C 	0.62241 0.76986 0.67320 0.56000
H 	H 	0.46360 0.65411 0.67320 0.10700
O 	O 	0.35830 0.68149 0.68291 -0.25700
O 	O 	0.34400 0.77090 0.66362 -0.69400
O 	O 	0.42632 0.84029 0.67320 -0.79200
C 	C 	0.44098 0.74042 0.67320 -0.26600
C 	C 	0.46220 0.79633 0.67320 0.39000
C 	C 	0.52122 0.80590 0.67320 -0.09200
C 	C 	0.37759 0.73014 0.67320 0.56000
H 	H 	0.53640 0.84589 0.67320 0.10700
O 	O 	0.85830 0.18149 0.18291 -0.25700
O 	O 	0.84400 0.27090 0.16362 -0.69400
O 	O 	0.92632 0.34029 0.17320 -0.79100
C 	C 	0.94098 0.24042 0.17320 -0.26600
C 	C 	0.96220 0.29633 0.17320 0.38900
C 	C 	0.02122 0.30590 0.17320 -0.09200
C 	C 	0.87759 0.23014 0.17320 0.56000
H 	H 	0.03640 0.34589 0.17320 0.10700
O 	O 	0.85830 0.81851 0.31709 -0.25700
O 	O 	0.84400 0.72910 0.33638 -0.69400
O 	O 	0.92632 0.65971 0.32680 -0.79100
C 	C 	0.94098 0.75958 0.32680 -0.26600
C 	C 	0.96220 0.70367 0.32680 0.38900
C 	C 	0.02122 0.69410 0.32680 -0.09200
C 	C 	0.87759 0.76986 0.32680 0.56000
H 	H 	0.03640 0.65411 0.32680 0.10700
O 	O 	0.35830 0.31851 0.81709 -0.25700
O 	O 	0.34400 0.22910 0.83638 -0.69500
O 	O 	0.42632 0.15971 0.82680 -0.79200
C 	C 	0.44098 0.25958 0.82680 -0.26600
C 	C 	0.46220 0.20367 0.82680 0.39000
C 	C 	0.52122 0.19410 0.82680 -0.09200
C 	C 	0.37759 0.26986 0.82680 0.56000
H 	H 	0.53640 0.15411 0.82680 0.10700
Ti	Ti	0.14905 0.85095 0.35095 3.13300
Ti	Ti	0.64905 0.35095 0.85095 3.13300
Ti	Ti	0.35095 0.14905 0.85095 3.13300
Ti	Ti	0.85095 0.64905 0.35095 3.13300
Ti	Ti	0.64905 0.64905 0.64905 3.13300
Ti	Ti	0.14905 0.14905 0.14905 3.13300
Ti	Ti	0.85095 0.35095 0.14905 3.13300
Ti	Ti	0.35095 0.85095 0.64905 3.13300
