data_crystal

_cell_length_a 8.53100
_cell_length_b 13.37600
_cell_length_c 13.63100
_cell_angle_alpha 90.00000
_cell_angle_beta  90.00000
_cell_angle_gamma 90.00000

_symmetry_space_group_name_	'P 1'
_symmetry_space_group_name_H-M	'P 1'

loop_
_symmetry_equiv_pos_as_xyz
  x,y,z

loop_
_atom_site_label
_atom_site_type_symbol
_atom_site_fract_x
_atom_site_fract_y
_atom_site_fract_z
_atom_site_charge
Mn	Mn	0.81501 0.75000 0.77540 1.21800
Mn	Mn	0.31501 0.25000 0.72460 1.18500
Mn	Mn	0.18499 0.25000 0.22460 1.16300
Mn	Mn	0.68499 0.75000 0.27540 1.19700
Fe	Fe	0.50000 0.00000 -0.00000 1.02700
Fe	Fe	0.00000 0.00000 0.50000 1.02800
Fe	Fe	0.50000 0.50000 -0.00000 1.09100
Fe	Fe	-0.00000 0.50000 0.50000 1.09300
C 	C 	0.62670 0.91553 0.91546 -0.03900
C 	C 	0.68640 0.07543 0.03067 -0.32600
C 	C 	0.55090 0.91459 0.11044 -0.17700
C 	C 	0.12670 0.08447 0.58454 -0.29900
C 	C 	0.18640 0.92457 0.46933 -0.20200
C 	C 	0.05090 0.08541 0.38956 -0.31300
C 	C 	0.37330 0.41553 0.08454 -0.26900
C 	C 	0.31360 0.57543 0.96933 -0.15400
C 	C 	0.44910 0.41459 0.88956 -0.12700
C 	C 	0.87330 0.58447 0.41546 -0.12700
C 	C 	0.81360 0.42457 0.53067 -0.15200
C 	C 	0.94910 0.58541 0.61044 -0.11500
C 	C 	0.37330 0.08447 0.08454 -0.31500
C 	C 	0.31360 0.92457 0.96933 -0.07900
C 	C 	0.44910 0.08541 0.88956 -0.17300
C 	C 	0.87330 0.91553 0.41546 -0.05500
C 	C 	0.81360 0.07543 0.53067 -0.19900
C 	C 	0.94910 0.91459 0.61044 -0.04400
C 	C 	0.62670 0.58447 0.91546 -0.11000
C 	C 	0.68640 0.42457 0.03067 -0.27900
C 	C 	0.55090 0.58541 0.11044 -0.25300
C 	C 	0.12670 0.41553 0.58454 -0.25300
C 	C 	0.18640 0.57543 0.46933 -0.28100
C 	C 	0.05090 0.41459 0.38956 -0.26700
N 	N 	0.70160 0.86591 0.86551 -0.22100
N 	N 	0.58540 0.86409 0.17437 -0.22200
N 	N 	0.79730 0.11793 0.04923 -0.08200
N 	N 	0.20160 0.13409 0.63449 -0.23200
N 	N 	0.08540 0.13591 0.32563 -0.24000
N 	N 	0.29730 0.88207 0.45077 -0.08900
N 	N 	0.29840 0.36591 0.13449 -0.24200
N 	N 	0.41460 0.36409 0.82563 -0.23000
N 	N 	0.20270 0.61793 0.95077 -0.10400
N 	N 	0.79840 0.63409 0.36551 -0.23100
N 	N 	0.91460 0.63591 0.67437 -0.21200
N 	N 	0.70270 0.38207 0.54923 -0.09200
N 	N 	0.29840 0.13409 0.13449 -0.24600
N 	N 	0.41460 0.13591 0.82563 -0.23300
N 	N 	0.20270 0.88207 0.95077 -0.10500
N 	N 	0.79840 0.86591 0.36551 -0.23400
N 	N 	0.91460 0.86409 0.67437 -0.21500
N 	N 	0.70270 0.11793 0.54923 -0.09900
N 	N 	0.70160 0.63409 0.86551 -0.21800
N 	N 	0.58540 0.63591 0.17437 -0.21900
N 	N 	0.79730 0.38207 0.04923 -0.07500
N 	N 	0.20160 0.36591 0.63449 -0.22800
N 	N 	0.08540 0.36409 0.32563 -0.23700
N 	N 	0.29730 0.61793 0.45077 -0.08800
