data_crystal

_cell_length_a 10.69450
_cell_length_b 18.57600
_cell_length_c 14.92080
_cell_angle_alpha 90.00000
_cell_angle_beta  107.75800
_cell_angle_gamma 90.00000

_symmetry_space_group_name_	'P 1'
_symmetry_space_group_name_H-M	'P 1'

loop_
_symmetry_equiv_pos_as_xyz
  x,y,z

loop_
_atom_site_label
_atom_site_type_symbol
_atom_site_fract_x
_atom_site_fract_y
_atom_site_fract_z
_atom_site_charge
Cd	Cd	0.67055 0.01133 0.67012 1.23200
O 	O 	0.67870 0.00245 0.82530 -0.47900
O 	O 	0.66470 0.47467 0.01360 -0.44700
O 	O 	0.98060 0.01926 0.84500 -0.44200
F 	F 	0.03880 0.29147 0.09460 -0.45200
C 	C 	0.70460 0.94950 0.88110 0.53900
O 	O 	0.85550 0.07884 0.71990 -0.43600
C 	C 	0.07410 0.27110 0.80530 -0.19800
C 	C 	0.61170 0.43130 0.94830 0.50100
F 	F 	0.38500 0.79970 0.76000 -0.46800
N 	N 	0.91760 0.11650 0.01150 -0.18500
O 	O 	0.79550 0.94681 0.95760 -0.40100
C 	C 	0.56930 0.75560 0.87980 -0.37000
C 	C 	0.94940 0.07490 0.79420 0.53200
C 	C 	0.64000 0.82420 0.90250 0.37200
H 	H 	0.70790 0.82570 0.95900 -0.03600
N 	N 	0.44300 0.62010 0.84590 -0.10600
C 	C 	0.95070 0.23980 0.05370 0.38800
C 	C 	0.03360 0.13990 0.82410 -0.47900
H 	H 	0.11510 0.13530 0.86940 0.22900
C 	C 	0.61860 0.88460 0.85160 -0.44900
H 	H 	0.54850 0.88650 0.79650 0.25400
C 	C 	0.99440 0.20480 0.78690 0.37200
H 	H 	0.90940 0.20840 0.74600 -0.02800
C 	C 	0.66310 0.35630 0.95250 -0.26500
H 	H 	0.61440 0.32370 0.90810 0.18200
C 	C 	0.99670 0.17010 0.05380 -0.08800
H 	H 	0.08490 0.16040 0.08400 0.07500
C 	C 	0.77200 0.33210 0.01390 0.14700
H 	H 	0.82040 0.36340 0.06020 0.03800
C 	C 	0.62440 0.69350 0.92930 0.53100
C 	C 	0.73990 0.20060 0.97070 0.05300
H 	H 	0.65060 0.20830 0.94250 0.04100
C 	C 	0.82050 0.25790 0.01260 -0.14900
C 	C 	0.20960 0.27270 0.82190 0.08800
H 	H 	0.25560 0.22970 0.82620 0.03500
C 	C 	0.44780 0.74570 0.81380 0.47900
C 	C 	0.79120 0.13230 0.97040 0.03000
H 	H 	0.73500 0.09560 0.94020 0.03700
N 	N 	0.21660 0.40150 0.82540 -0.14900
C 	C 	0.27600 0.33730 0.83210 -0.00100
H 	H 	0.36660 0.33630 0.84430 0.04600
C 	C 	0.55900 0.62790 0.91060 -0.23800
H 	H 	0.59820 0.58770 0.94490 0.15600
C 	C 	0.38810 0.67840 0.79620 -0.21200
H 	H 	0.30840 0.67370 0.74890 0.13500
C 	C 	0.01720 0.33850 0.80090 0.38900
O 	O 	0.51750 0.44485 0.87600 -0.42600
F 	F 	0.88560 0.34230 0.78480 -0.40400
C 	C 	0.08660 0.40130 0.81040 -0.14500
H 	H 	0.04260 0.44490 0.80630 0.12700
F 	F 	0.74310 0.69430 0.98030 -0.47700
Cd	Cd	0.32945 0.51133 0.82988 1.24100
O 	O 	0.32130 0.50245 0.67470 -0.43800
O 	O 	0.33530 0.97467 0.48640 -0.39500
O 	O 	0.01940 0.51926 0.65500 -0.42000
F 	F 	0.96120 0.79147 0.40540 -0.40500
C 	C 	0.29540 0.44950 0.61890 0.48800
O 	O 	0.14450 0.57884 0.78010 -0.39800
C 	C 	0.92590 0.77110 0.69470 -0.03000
C 	C 	0.38830 0.93130 0.55170 0.46800
F 	F 	0.61500 0.29970 0.74000 -0.46700
N 	N 	0.08240 0.61650 0.48850 -0.15500
O 	O 	0.20450 0.44681 0.54240 -0.43300
C 	C 	0.43070 0.25560 0.62020 -0.37300
C 	C 	0.05060 0.57490 0.70580 0.38100
C 	C 	0.36000 0.32420 0.59750 0.36300
H 	H 	0.29210 0.32570 0.54100 -0.04600
N 	N 	0.55700 0.12010 0.65410 -0.11100
C 	C 	0.04930 0.73980 0.44630 0.36900
C 	C 	0.96640 0.63990 0.67590 -0.15800
H 	H 	0.88490 0.63530 0.63060 0.12800
C 	C 	0.38140 0.38460 0.64840 -0.43800
H 	H 	0.45150 0.38650 0.70350 0.24400
C 	C 	0.00560 0.70480 0.71310 0.04200
H 	H 	0.09060 0.70840 0.75400 0.07100
C 	C 	0.33690 0.85630 0.54750 -0.31500
H 	H 	0.38560 0.82370 0.59190 0.19400
C 	C 	0.00330 0.67010 0.44620 -0.19000
H 	H 	0.91510 0.66040 0.41600 0.14800
C 	C 	0.22800 0.83210 0.48610 0.19500
H 	H 	0.17960 0.86340 0.43980 0.01800
C 	C 	0.37560 0.19350 0.57070 0.52200
C 	C 	0.26010 0.70060 0.52930 0.02500
H 	H 	0.34940 0.70830 0.55750 0.04300
C 	C 	0.17950 0.75790 0.48740 -0.12900
C 	C 	0.79040 0.77270 0.67810 -0.01400
H 	H 	0.74440 0.72970 0.67380 0.07500
C 	C 	0.55220 0.24570 0.68620 0.47800
C 	C 	0.20880 0.63230 0.52960 -0.00400
H 	H 	0.26500 0.59560 0.55980 0.04700
N 	N 	0.78340 0.90150 0.67460 -0.15200
C 	C 	0.72400 0.83730 0.66790 0.04700
H 	H 	0.63340 0.83630 0.65570 0.02700
C 	C 	0.44100 0.12790 0.58940 -0.23900
H 	H 	0.40180 0.08770 0.55510 0.13300
C 	C 	0.61190 0.17840 0.70380 -0.21300
H 	H 	0.69160 0.17370 0.75110 0.14000
C 	C 	0.98280 0.83850 0.69910 0.38500
O 	O 	0.48250 0.94485 0.62400 -0.40300
F 	F 	0.11440 0.84230 0.71520 -0.43100
C 	C 	0.91340 0.90130 0.68960 -0.13000
H 	H 	0.95740 0.94490 0.69370 0.15000
F 	F 	0.25690 0.19430 0.51970 -0.49500
Cd	Cd	0.32945 0.98867 0.32988 1.25000
O 	O 	0.32130 0.99755 0.17470 -0.39100
O 	O 	0.33530 0.52533 0.98640 -0.38300
O 	O 	0.01940 0.98074 0.15500 -0.40000
F 	F 	0.96120 0.70853 0.90540 -0.40400
C 	C 	0.29540 0.05050 0.11890 0.42600
O 	O 	0.14450 0.92116 0.28010 -0.39100
C 	C 	0.92590 0.72890 0.19470 -0.03300
C 	C 	0.38830 0.56870 0.05170 0.44600
F 	F 	0.61500 0.20030 0.24000 -0.47200
N 	N 	0.08240 0.88350 0.98850 -0.12500
O 	O 	0.20450 0.05319 0.04240 -0.44200
C 	C 	0.43070 0.24440 0.12020 -0.37200
C 	C 	0.05060 0.92510 0.20580 0.37800
C 	C 	0.36000 0.17580 0.09750 0.34800
H 	H 	0.29210 0.17430 0.04100 -0.04900
N 	N 	0.55700 0.37990 0.15410 -0.11000
C 	C 	0.04930 0.76020 0.94630 0.37000
C 	C 	0.96640 0.86010 0.17590 -0.15800
H 	H 	0.88490 0.86470 0.13060 0.12200
C 	C 	0.38140 0.11540 0.14840 -0.42000
H 	H 	0.45150 0.11350 0.20350 0.22900
C 	C 	0.00560 0.79520 0.21310 0.04000
H 	H 	0.09060 0.79160 0.25400 0.07000
C 	C 	0.33690 0.64370 0.04750 -0.37600
H 	H 	0.38560 0.67630 0.09190 0.20800
C 	C 	0.00330 0.82990 0.94620 -0.18000
H 	H 	0.91510 0.83960 0.91600 0.14900
C 	C 	0.22800 0.66790 0.98610 0.25200
H 	H 	0.17960 0.63660 0.93980 0.00100
C 	C 	0.37560 0.30650 0.07070 0.51700
C 	C 	0.26010 0.79940 0.02930 -0.00400
H 	H 	0.34940 0.79170 0.05750 0.04600
C 	C 	0.17950 0.74210 0.98740 -0.10900
C 	C 	0.79040 0.72730 0.17810 -0.01800
H 	H 	0.74440 0.77030 0.17380 0.07300
C 	C 	0.55220 0.25430 0.18620 0.47400
C 	C 	0.20880 0.86770 0.02960 -0.02900
H 	H 	0.26500 0.90440 0.05980 0.05700
N 	N 	0.78340 0.59850 0.17460 -0.16400
C 	C 	0.72400 0.66270 0.16790 0.04200
H 	H 	0.63340 0.66370 0.15570 0.02400
C 	C 	0.44100 0.37210 0.08940 -0.24200
H 	H 	0.40180 0.41230 0.05510 0.13400
C 	C 	0.61190 0.32160 0.20380 -0.21400
H 	H 	0.69160 0.32630 0.25110 0.13900
C 	C 	0.98280 0.66150 0.19910 0.37800
O 	O 	0.48250 0.55515 0.12400 -0.42200
F 	F 	0.11440 0.65770 0.21520 -0.44000
C 	C 	0.91340 0.59870 0.18960 -0.13500
H 	H 	0.95740 0.55510 0.19370 0.13300
F 	F 	0.25690 0.30570 0.01970 -0.50300
Cd	Cd	0.67055 0.48867 0.17012 1.23900
O 	O 	0.67870 0.49755 0.32530 -0.43700
O 	O 	0.66470 0.02533 0.51360 -0.43500
O 	O 	0.98060 0.48074 0.34500 -0.43200
F 	F 	0.03880 0.20853 0.59460 -0.45200
C 	C 	0.70460 0.55050 0.38110 0.48200
O 	O 	0.85550 0.42116 0.21990 -0.43100
C 	C 	0.07410 0.22890 0.30530 -0.20000
C 	C 	0.61170 0.06870 0.44830 0.47800
F 	F 	0.38500 0.70030 0.26000 -0.47300
N 	N 	0.91760 0.38350 0.51150 -0.15900
O 	O 	0.79550 0.55319 0.45760 -0.41700
C 	C 	0.56930 0.74440 0.37980 -0.37000
C 	C 	0.94940 0.42510 0.29420 0.52900
C 	C 	0.64000 0.67580 0.40250 0.35800
H 	H 	0.70790 0.67430 0.45900 -0.03900
N 	N 	0.44300 0.87990 0.34590 -0.10500
C 	C 	0.95070 0.26020 0.55370 0.39000
C 	C 	0.03360 0.36010 0.32410 -0.47700
H 	H 	0.11510 0.36470 0.36940 0.22200
C 	C 	0.61860 0.61540 0.35160 -0.43300
H 	H 	0.54850 0.61350 0.29650 0.24000
C 	C 	0.99440 0.29520 0.28690 0.36600
H 	H 	0.90940 0.29160 0.24600 -0.02800
C 	C 	0.66310 0.14370 0.45250 -0.32700
H 	H 	0.61440 0.17630 0.40810 0.19700
C 	C 	0.99670 0.32990 0.55380 -0.07800
H 	H 	0.08490 0.33960 0.58400 0.07600
C 	C 	0.77200 0.16790 0.51390 0.20600
H 	H 	0.82040 0.13660 0.56020 0.02100
C 	C 	0.62440 0.80650 0.42930 0.52600
C 	C 	0.73990 0.29940 0.47070 0.02300
H 	H 	0.65060 0.29170 0.44250 0.04400
C 	C 	0.82050 0.24210 0.51260 -0.12800
C 	C 	0.20960 0.22730 0.32190 0.08300
H 	H 	0.25560 0.27030 0.32620 0.03300
C 	C 	0.44780 0.75430 0.31380 0.47500
C 	C 	0.79120 0.36770 0.47040 0.00300
H 	H 	0.73500 0.40440 0.44020 0.04700
N 	N 	0.21660 0.09850 0.32540 -0.16100
C 	C 	0.27600 0.16270 0.33210 -0.00500
H 	H 	0.36660 0.16370 0.34430 0.04200
C 	C 	0.55900 0.87210 0.41060 -0.24100
H 	H 	0.59820 0.91230 0.44490 0.15700
C 	C 	0.38810 0.82160 0.29620 -0.21300
H 	H 	0.30840 0.82630 0.24890 0.13400
C 	C 	0.01720 0.16150 0.30090 0.38100
O 	O 	0.51750 0.05515 0.37600 -0.44400
F 	F 	0.88560 0.15770 0.28480 -0.41300
C 	C 	0.08660 0.09870 0.31040 -0.14900
H 	H 	0.04260 0.05510 0.30630 0.10900
F 	F 	0.74310 0.80570 0.48030 -0.48400
Cd	Cd	-0.00000 0.00000 -0.00000 1.20300
Cd	Cd	0.00000 0.50000 0.50000 1.22900
