data_crystal

_cell_length_a 9.73530
_cell_length_b 17.74350
_cell_length_c 11.76450
_cell_angle_alpha 90.00000
_cell_angle_beta  104.07000
_cell_angle_gamma 90.00000

_symmetry_space_group_name_	'P 1'
_symmetry_space_group_name_H-M	'P 1'

loop_
_symmetry_equiv_pos_as_xyz
  x,y,z

loop_
_atom_site_label
_atom_site_type_symbol
_atom_site_fract_x
_atom_site_fract_y
_atom_site_fract_z
_atom_site_charge
C 	C 	0.97160 0.16190 0.09650 -0.05900
H 	H 	0.87610 0.15320 0.06340 0.06500
C 	C 	0.20040 0.12162 0.13790 -0.21700
H 	H 	0.26770 0.08560 0.13230 0.09800
C 	C 	0.24450 0.18775 0.19730 0.45100
C 	C 	0.15120 0.24511 0.20640 -0.31500
C 	C 	0.01080 0.22991 0.15160 0.35100
C 	C 	0.20590 0.31430 0.26880 0.32400
H 	H 	0.30340 0.32100 0.28380 -0.02900
C 	C 	0.21070 0.43612 0.36862 0.49600
C 	C 	0.13540 0.36855 0.30650 -0.41500
H 	H 	0.03760 0.36480 0.29440 0.22100
F 	F 	0.37750 0.19383 0.25530 -0.49200
N 	N 	0.06453 0.10770 0.08829 -0.18600
O 	O 	0.34309 0.43591 0.39054 -0.43800
O 	O 	0.13607 0.48890 0.39211 -0.45700
C 	C 	0.31080 0.66100 0.22670 0.38800
C 	C 	0.45510 0.66920 0.44920 0.00900
H 	H 	0.50510 0.67270 0.52720 0.06000
C 	C 	0.35890 0.59705 0.28960 -0.13400
H 	H 	0.34070 0.55020 0.25350 0.11800
C 	C 	0.34800 0.86515 0.21510 -0.34400
H 	H 	0.43490 0.86970 0.26920 0.20800
C 	C 	0.40970 0.73479 0.38940 0.04000
H 	H 	0.42950 0.78100 0.42720 0.08300
C 	C 	0.33470 0.73245 0.27330 -0.12300
C 	C 	0.28850 0.93200 0.14220 0.47900
C 	C 	0.28130 0.80009 0.20530 0.24000
H 	H 	0.19420 0.79680 0.15130 -0.01400
F 	F 	0.23900 0.65315 0.11354 -0.46000
N 	N 	0.43120 0.60072 0.40102 -0.15900
O 	O 	0.15583 0.93794 0.11514 -0.40900
O 	O 	0.37476 0.97732 0.11705 -0.38100
F 	F 	0.91640 0.28200 0.14410 -0.44000
C 	C 	0.02840 0.66190 0.40350 -0.37900
H 	H 	0.12390 0.65320 0.43660 0.19300
C 	C 	0.79960 0.62162 0.36210 -0.25300
H 	H 	0.73230 0.58560 0.36770 0.15200
C 	C 	0.75550 0.68775 0.30270 0.53800
C 	C 	0.84880 0.74511 0.29360 -0.43400
C 	C 	0.98920 0.72991 0.34840 0.66500
C 	C 	0.79410 0.81430 0.23120 0.42400
H 	H 	0.69660 0.82100 0.21620 -0.05300
C 	C 	0.78930 0.93612 0.13138 0.50300
C 	C 	0.86460 0.86855 0.19350 -0.45300
H 	H 	0.96240 0.86480 0.20560 0.27400
F 	F 	0.62250 0.69383 0.24470 -0.50500
N 	N 	0.93547 0.60770 0.41171 -0.04200
O 	O 	0.65691 0.93591 0.10946 -0.40500
O 	O 	0.86393 0.98890 0.10789 -0.37000
C 	C 	0.68920 0.16100 0.27330 0.42300
C 	C 	0.54490 0.16920 0.05080 -0.24200
H 	H 	0.49490 0.17270 0.97280 0.21000
C 	C 	0.64110 0.09705 0.21040 -0.16000
H 	H 	0.65930 0.05020 0.24650 0.09900
C 	C 	0.65200 0.36515 0.28490 -0.35300
H 	H 	0.56510 0.36970 0.23080 0.18900
C 	C 	0.59030 0.23479 0.11060 0.17700
H 	H 	0.57050 0.28100 0.07280 -0.00000
C 	C 	0.66530 0.23245 0.22670 -0.18100
C 	C 	0.71150 0.43200 0.35780 0.48800
C 	C 	0.71870 0.30009 0.29470 0.26400
H 	H 	0.80580 0.29680 0.34870 0.01000
F 	F 	0.76100 0.15315 0.38646 -0.43600
N 	N 	0.56880 0.10072 0.09898 -0.14000
O 	O 	0.84417 0.43794 0.38486 -0.41000
O 	O 	0.62524 0.47732 0.38295 -0.44400
F 	F 	0.08360 0.78200 0.35590 -0.53500
C 	C 	0.02840 0.83810 0.90350 -0.34600
H 	H 	0.12390 0.84680 0.93660 0.21800
C 	C 	0.79960 0.87838 0.86210 -0.24000
H 	H 	0.73230 0.91440 0.86770 0.19500
C 	C 	0.75550 0.81225 0.80270 0.55400
C 	C 	0.84880 0.75489 0.79360 -0.42500
C 	C 	0.98920 0.77009 0.84840 0.66400
C 	C 	0.79410 0.68570 0.73120 0.44000
H 	H 	0.69660 0.67900 0.71620 -0.05500
C 	C 	0.78930 0.56388 0.63138 0.52600
C 	C 	0.86460 0.63145 0.69350 -0.46100
H 	H 	0.96240 0.63520 0.70560 0.28100
F 	F 	0.62250 0.80617 0.74470 -0.48800
N 	N 	0.93547 0.89230 0.91171 -0.00100
O 	O 	0.65691 0.56409 0.60946 -0.43800
O 	O 	0.86393 0.51110 0.60789 -0.42900
C 	C 	0.68920 0.33900 0.77330 0.39700
C 	C 	0.54490 0.33080 0.55080 0.01700
H 	H 	0.49490 0.32730 0.47280 0.05300
C 	C 	0.64110 0.40295 0.71040 -0.12400
H 	H 	0.65930 0.44980 0.74650 0.13900
C 	C 	0.65200 0.13485 0.78490 -0.31000
H 	H 	0.56510 0.13030 0.73080 0.17200
C 	C 	0.59030 0.26521 0.61060 0.02900
H 	H 	0.57050 0.21900 0.57280 0.07300
C 	C 	0.66530 0.26755 0.72670 -0.09800
C 	C 	0.71150 0.06800 0.85780 0.47500
C 	C 	0.71870 0.19991 0.79470 0.21300
H 	H 	0.80580 0.20320 0.84870 0.04800
F 	F 	0.76100 0.34685 0.88646 -0.38600
N 	N 	0.56880 0.39928 0.59898 -0.15900
O 	O 	0.84417 0.06206 0.88486 -0.39100
O 	O 	0.62524 0.02268 0.88295 -0.45400
F 	F 	0.08360 0.71800 0.85590 -0.52000
C 	C 	0.97160 0.33810 0.59650 -0.05900
H 	H 	0.87610 0.34680 0.56340 0.09800
C 	C 	0.20040 0.37838 0.63790 -0.20500
H 	H 	0.26770 0.41440 0.63230 0.13900
C 	C 	0.24450 0.31225 0.69730 0.47200
C 	C 	0.15120 0.25489 0.70640 -0.31300
C 	C 	0.01080 0.27009 0.65160 0.37800
C 	C 	0.20590 0.18570 0.76880 0.34000
H 	H 	0.30340 0.17900 0.78380 -0.03000
C 	C 	0.21070 0.06388 0.86862 0.50200
C 	C 	0.13540 0.13145 0.80650 -0.41200
H 	H 	0.03760 0.13520 0.79440 0.22800
F 	F 	0.37750 0.30617 0.75530 -0.47500
N 	N 	0.06453 0.39230 0.58829 -0.14900
O 	O 	0.34309 0.06409 0.89054 -0.43100
O 	O 	0.13607 0.01110 0.89211 -0.47000
C 	C 	0.31080 0.83900 0.72670 0.36900
C 	C 	0.45510 0.83080 0.94920 0.24200
H 	H 	0.50510 0.82730 0.02720 -0.07800
C 	C 	0.35890 0.90295 0.78960 -0.10200
H 	H 	0.34070 0.94980 0.75350 0.16200
C 	C 	0.34800 0.63485 0.71510 -0.32200
H 	H 	0.43490 0.63030 0.76920 0.19700
C 	C 	0.40970 0.76521 0.88940 -0.09000
H 	H 	0.42950 0.71900 0.92720 0.14900
C 	C 	0.33470 0.76755 0.77330 -0.05300
C 	C 	0.28850 0.56800 0.64220 0.48900
C 	C 	0.28130 0.69991 0.70530 0.20500
H 	H 	0.19420 0.70320 0.65130 0.01800
F 	F 	0.23900 0.84685 0.61354 -0.41000
N 	N 	0.43120 0.89928 0.90102 -0.15400
O 	O 	0.15583 0.56206 0.61514 -0.43400
O 	O 	0.37476 0.52268 0.61705 -0.43700
F 	F 	0.91640 0.21800 0.64410 -0.43400
Co	Co	-0.00000 0.00000 -0.00000 1.07100
Co	Co	-0.00000 0.50000 0.50000 1.17200
Co	Co	0.50000 0.50000 0.50000 1.19200
Co	Co	0.50000 0.00000 -0.00000 1.09300
