data_crystal

_cell_length_a 7.52530
_cell_length_b 34.22570
_cell_length_c 19.52510
_cell_angle_alpha 90.00000
_cell_angle_beta  90.48300
_cell_angle_gamma 90.00000

_symmetry_space_group_name_	'P 1'
_symmetry_space_group_name_H-M	'P 1'

loop_
_symmetry_equiv_pos_as_xyz
  x,y,z

loop_
_atom_site_label
_atom_site_type_symbol
_atom_site_fract_x
_atom_site_fract_y
_atom_site_fract_z
_atom_site_charge
Mo	Mo	0.21270 0.10086 0.97577 1.05700
Mo	Mo	0.73721 0.08835 0.60054 1.04900
Mo	Mo	0.73161 0.27931 0.81197 1.05300
Mn	Mn	0.72523 0.01873 0.84851 1.17000
Mn	Mn	0.23126 0.17401 0.73505 1.19500
Mn	Mn	0.23427 0.06695 0.40093 1.15800
Mn	Mn	0.22846 0.25913 0.01060 1.17300
Mn	Mn	0.72480 0.15044 0.14971 1.19600
C 	C 	0.38710 0.06195 0.92210 -0.16500
C 	C 	0.27480 0.12778 0.88150 -0.16900
C 	C 	0.19140 0.16316 0.98950 -0.16800
C 	C 	0.02890 0.10990 0.05630 -0.19100
C 	C 	0.20090 0.04601 0.03110 -0.16900
C 	C 	0.43230 0.11250 0.04350 -0.18400
C 	C 	0.98930 0.08197 0.91510 -0.18500
C 	C 	0.67970 0.05860 0.69410 -0.22100
C 	C 	0.53500 0.12019 0.65180 -0.21400
C 	C 	0.53970 0.07536 0.52450 -0.25000
C 	C 	0.24240 0.35256 0.05990 -0.16500
C 	C 	0.92520 0.08551 0.51850 -0.22200
C 	C 	0.80630 0.02787 0.58930 -0.24400
C 	C 	0.93290 0.11332 0.66700 -0.24500
C 	C 	0.91550 0.27492 0.89590 -0.16900
C 	C 	0.73940 0.33967 0.84950 -0.15800
C 	C 	0.41280 0.19580 0.23960 -0.18800
C 	C 	0.90470 0.23273 0.78660 -0.17600
C 	C 	0.56380 0.23445 0.77580 -0.18200
C 	C 	0.03680 0.19399 0.24460 -0.18000
C 	C 	0.54360 0.27086 0.89460 -0.16500
C 	C 	0.71510 0.11985 0.29900 0.17200
C 	C 	0.72620 0.13480 0.36940 -0.75400
N 	N 	0.48200 0.04137 0.89250 -0.25400
N 	N 	0.29460 0.14145 0.82818 -0.23100
N 	N 	0.19360 0.19611 0.99840 -0.26800
N 	N 	0.93170 0.11490 0.10103 -0.24200
N 	N 	0.20340 0.01782 0.06360 -0.25800
N 	N 	0.53970 0.12010 0.08350 -0.25500
N 	N 	0.87490 0.07047 0.88140 -0.23700
N 	N 	0.66350 0.04446 0.74740 -0.26600
N 	N 	0.42500 0.13657 0.68008 -0.25200
N 	N 	0.43540 0.06972 0.48150 -0.27300
N 	N 	0.24700 0.32029 0.04260 -0.26500
N 	N 	0.02470 0.08226 0.47420 -0.26200
N 	N 	0.82910 0.99506 0.58190 -0.27100
N 	N 	0.03000 0.12880 0.70410 -0.24000
N 	N 	0.01150 0.27235 0.94220 -0.26000
N 	N 	0.74850 0.37143 0.86820 -0.26600
N 	N 	0.50840 0.18179 0.20090 -0.25300
N 	N 	0.00770 0.20897 0.77250 -0.24800
N 	N 	0.45970 0.21162 0.75770 -0.24400
N 	N 	0.93380 0.18105 0.20670 -0.25300
N 	N 	0.44580 0.26561 0.93832 -0.25700
N 	N 	0.70850 0.10946 0.24320 -0.33900
K 	K 	0.23390 0.06502 0.61666 0.59100
H 	H 	0.83620 0.12670 0.38980 0.21200
H 	H 	0.72130 0.16270 0.36780 0.22400
H 	H 	0.62940 0.12480 0.39490 0.21200
Mo	Mo	0.28730 0.60086 0.52423 1.05600
Mo	Mo	0.76279 0.58835 0.89946 1.04900
Mo	Mo	0.76839 0.77931 0.68803 1.05400
Mn	Mn	0.77477 0.51873 0.65149 1.17000
Mn	Mn	0.26874 0.67401 0.76495 1.19500
Mn	Mn	0.26573 0.56695 0.09907 1.15800
Mn	Mn	0.27154 0.75913 0.48940 1.17300
Mn	Mn	0.77520 0.65044 0.35029 1.19600
C 	C 	0.11290 0.56195 0.57790 -0.16500
C 	C 	0.22520 0.62778 0.61850 -0.16900
C 	C 	0.30860 0.66316 0.51050 -0.16700
C 	C 	0.47110 0.60990 0.44370 -0.19000
C 	C 	0.29910 0.54601 0.46890 -0.16900
C 	C 	0.06770 0.61250 0.45650 -0.18300
C 	C 	0.51070 0.58197 0.58490 -0.18600
C 	C 	0.82030 0.55860 0.80590 -0.22100
C 	C 	0.96500 0.62019 0.84820 -0.21600
C 	C 	0.96030 0.57536 0.97550 -0.25000
C 	C 	0.25760 0.85256 0.44010 -0.16500
C 	C 	0.57480 0.58551 0.98150 -0.22300
C 	C 	0.69370 0.52787 0.91070 -0.24400
C 	C 	0.56710 0.61332 0.83300 -0.24700
C 	C 	0.58450 0.77492 0.60410 -0.17100
C 	C 	0.76060 0.83967 0.65050 -0.15800
C 	C 	0.08720 0.69580 0.26040 -0.18700
C 	C 	0.59530 0.73273 0.71340 -0.17800
C 	C 	0.93620 0.73445 0.72420 -0.18400
C 	C 	0.46320 0.69399 0.25540 -0.17800
C 	C 	0.95640 0.77086 0.60540 -0.16800
C 	C 	0.78490 0.61985 0.20100 0.17000
C 	C 	0.77380 0.63480 0.13060 -0.75100
N 	N 	0.01800 0.54137 0.60750 -0.25400
N 	N 	0.20540 0.64145 0.67182 -0.23100
N 	N 	0.30640 0.69611 0.50160 -0.26800
N 	N 	0.56830 0.61490 0.39897 -0.24400
N 	N 	0.29660 0.51782 0.43640 -0.25800
N 	N 	0.96030 0.62010 0.41650 -0.25600
N 	N 	0.62510 0.57047 0.61860 -0.23700
N 	N 	0.83650 0.54446 0.75260 -0.26700
N 	N 	0.07500 0.63657 0.81992 -0.25100
N 	N 	0.06460 0.56972 0.01850 -0.27200
N 	N 	0.25300 0.82029 0.45740 -0.26500
N 	N 	0.47530 0.58226 0.02580 -0.26000
N 	N 	0.67090 0.49506 0.91810 -0.27100
N 	N 	0.47000 0.62880 0.79590 -0.23900
N 	N 	0.48850 0.77235 0.55780 -0.25800
N 	N 	0.75150 0.87143 0.63180 -0.26600
N 	N 	0.99160 0.68179 0.29910 -0.25500
N 	N 	0.49230 0.70897 0.72750 -0.24600
N 	N 	0.04030 0.71162 0.74230 -0.24300
N 	N 	0.56620 0.68105 0.29330 -0.25500
N 	N 	0.05420 0.76561 0.56168 -0.25500
N 	N 	0.79150 0.60946 0.25680 -0.33800
K 	K 	0.26610 0.56502 0.88334 0.59100
H 	H 	0.66380 0.62670 0.11020 0.21100
H 	H 	0.77870 0.66270 0.13220 0.22200
H 	H 	0.87060 0.62480 0.10510 0.21100
Mo	Mo	0.78730 0.89914 0.02423 1.05600
Mo	Mo	0.26279 0.91165 0.39946 1.04800
Mo	Mo	0.26839 0.72069 0.18803 1.05300
Mn	Mn	0.27477 0.98127 0.15149 1.17000
Mn	Mn	0.76874 0.82599 0.26495 1.19500
Mn	Mn	0.76573 0.93305 0.59907 1.15800
Mn	Mn	0.77154 0.74087 0.98940 1.17300
Mn	Mn	0.27520 0.84956 0.85029 1.19600
C 	C 	0.61290 0.93805 0.07790 -0.16500
C 	C 	0.72520 0.87222 0.11850 -0.16900
C 	C 	0.80860 0.83684 0.01050 -0.16800
C 	C 	0.97110 0.89010 0.94370 -0.19100
C 	C 	0.79910 0.95399 0.96890 -0.16900
C 	C 	0.56770 0.88750 0.95650 -0.18400
C 	C 	0.01070 0.91803 0.08490 -0.18500
C 	C 	0.32030 0.94140 0.30590 -0.22100
C 	C 	0.46500 0.87981 0.34820 -0.21400
C 	C 	0.46030 0.92464 0.47550 -0.25000
C 	C 	0.75760 0.64744 0.94010 -0.16500
C 	C 	0.07480 0.91449 0.48150 -0.22200
C 	C 	0.19370 0.97213 0.41070 -0.24400
C 	C 	0.06710 0.88668 0.33300 -0.24500
C 	C 	0.08450 0.72508 0.10410 -0.16900
C 	C 	0.26060 0.66033 0.15050 -0.15800
C 	C 	0.58720 0.80420 0.76040 -0.18800
C 	C 	0.09530 0.76727 0.21340 -0.17600
C 	C 	0.43620 0.76555 0.22420 -0.18200
C 	C 	0.96320 0.80601 0.75540 -0.18000
C 	C 	0.45640 0.72914 0.10540 -0.16500
C 	C 	0.28490 0.88015 0.70100 0.17200
C 	C 	0.27380 0.86520 0.63060 -0.75400
N 	N 	0.51800 0.95863 0.10750 -0.25400
N 	N 	0.70540 0.85855 0.17182 -0.23100
N 	N 	0.80640 0.80389 0.00160 -0.26800
N 	N 	0.06830 0.88510 0.89897 -0.24200
N 	N 	0.79660 0.98218 0.93640 -0.25800
N 	N 	0.46030 0.87990 0.91650 -0.25500
N 	N 	0.12510 0.92953 0.11860 -0.23700
N 	N 	0.33650 0.95554 0.25260 -0.26600
N 	N 	0.57500 0.86343 0.31992 -0.25200
N 	N 	0.56460 0.93028 0.51850 -0.27300
N 	N 	0.75300 0.67971 0.95740 -0.26500
N 	N 	0.97530 0.91774 0.52580 -0.26200
N 	N 	0.17090 0.00494 0.41810 -0.27100
N 	N 	0.97000 0.87120 0.29590 -0.24000
N 	N 	0.98850 0.72765 0.05780 -0.26000
N 	N 	0.25150 0.62857 0.13180 -0.26600
N 	N 	0.49160 0.81821 0.79910 -0.25300
N 	N 	0.99230 0.79103 0.22750 -0.24800
N 	N 	0.54030 0.78838 0.24230 -0.24400
N 	N 	0.06620 0.81895 0.79330 -0.25300
N 	N 	0.55420 0.73439 0.06168 -0.25700
N 	N 	0.29150 0.89054 0.75680 -0.33900
K 	K 	0.76610 0.93498 0.38334 0.59100
H 	H 	0.16380 0.87330 0.61020 0.21200
H 	H 	0.27870 0.83730 0.63220 0.22400
H 	H 	0.37060 0.87520 0.60510 0.21200
Mo	Mo	0.71270 0.39914 0.47577 1.05600
Mo	Mo	0.23721 0.41165 0.10054 1.04900
Mo	Mo	0.23161 0.22069 0.31197 1.05400
Mn	Mn	0.22523 0.48127 0.34851 1.17000
Mn	Mn	0.73126 0.32599 0.23505 1.19500
Mn	Mn	0.73427 0.43305 0.90093 1.15800
Mn	Mn	0.72846 0.24087 0.51060 1.17300
Mn	Mn	0.22480 0.34956 0.64971 1.19600
C 	C 	0.88710 0.43805 0.42210 -0.16500
C 	C 	0.77480 0.37222 0.38150 -0.16900
C 	C 	0.69140 0.33684 0.48950 -0.16700
C 	C 	0.52890 0.39010 0.55630 -0.19000
C 	C 	0.70090 0.45399 0.53110 -0.16900
C 	C 	0.93230 0.38750 0.54350 -0.18300
C 	C 	0.48930 0.41803 0.41510 -0.18600
C 	C 	0.17970 0.44140 0.19410 -0.22100
C 	C 	0.03500 0.37981 0.15180 -0.21600
C 	C 	0.03970 0.42464 0.02450 -0.25000
C 	C 	0.74240 0.14744 0.55990 -0.16500
C 	C 	0.42520 0.41449 0.01850 -0.22300
C 	C 	0.30630 0.47213 0.08930 -0.24400
C 	C 	0.43290 0.38668 0.16700 -0.24700
C 	C 	0.41550 0.22508 0.39590 -0.17100
C 	C 	0.23940 0.16033 0.34950 -0.15800
C 	C 	0.91280 0.30420 0.73960 -0.18700
C 	C 	0.40470 0.26727 0.28660 -0.17800
C 	C 	0.06380 0.26555 0.27580 -0.18400
C 	C 	0.53680 0.30601 0.74460 -0.17800
C 	C 	0.04360 0.22914 0.39460 -0.16800
C 	C 	0.21510 0.38015 0.79900 0.17000
C 	C 	0.22620 0.36520 0.86940 -0.75100
N 	N 	0.98200 0.45863 0.39250 -0.25400
N 	N 	0.79460 0.35855 0.32818 -0.23100
N 	N 	0.69360 0.30389 0.49840 -0.26800
N 	N 	0.43170 0.38510 0.60103 -0.24400
N 	N 	0.70340 0.48218 0.56360 -0.25800
N 	N 	0.03970 0.37990 0.58350 -0.25600
N 	N 	0.37490 0.42953 0.38140 -0.23700
N 	N 	0.16350 0.45554 0.24740 -0.26700
N 	N 	0.92500 0.36343 0.18008 -0.25100
N 	N 	0.93540 0.43028 0.98150 -0.27200
N 	N 	0.74700 0.17971 0.54260 -0.26500
N 	N 	0.52470 0.41774 0.97420 -0.26000
N 	N 	0.32910 0.50494 0.08190 -0.27100
N 	N 	0.53000 0.37120 0.20410 -0.23900
N 	N 	0.51150 0.22765 0.44220 -0.25800
N 	N 	0.24850 0.12857 0.36820 -0.26600
N 	N 	0.00840 0.31821 0.70090 -0.25500
N 	N 	0.50770 0.29103 0.27250 -0.24600
N 	N 	0.95970 0.28838 0.25770 -0.24300
N 	N 	0.43380 0.31895 0.70670 -0.25500
N 	N 	0.94580 0.23439 0.43832 -0.25500
N 	N 	0.20850 0.39054 0.74320 -0.33800
K 	K 	0.73390 0.43498 0.11666 0.59100
H 	H 	0.33620 0.37330 0.88980 0.21100
H 	H 	0.22130 0.33730 0.86780 0.22200
H 	H 	0.12940 0.37520 0.89490 0.21100
