data_crystal

_cell_length_a 16.64460
_cell_length_b 16.64460
_cell_length_c 11.96280
_cell_angle_alpha 90.00000
_cell_angle_beta  90.00000
_cell_angle_gamma 90.00000

_symmetry_space_group_name_	'P 1'
_symmetry_space_group_name_H-M	'P 1'

loop_
_symmetry_equiv_pos_as_xyz
  x,y,z

loop_
_atom_site_label
_atom_site_type_symbol
_atom_site_fract_x
_atom_site_fract_y
_atom_site_fract_z
_atom_site_charge
O 	O 	0.39389 0.51183 0.61470 -0.40600
C 	C 	0.31870 0.59120 0.79220 0.01700
H 	H 	0.30990 0.53540 0.78830 0.03500
C 	C 	0.27370 0.63800 0.86510 -0.02400
H 	H 	0.23570 0.61300 0.91170 0.04800
C 	C 	0.29180 0.61000 0.73670 -0.01400
H 	H 	0.26830 0.56850 0.69460 0.04200
C 	C 	0.24510 0.65580 0.80750 -0.07600
H 	H 	0.18950 0.64670 0.81360 0.05500
O 	O 	0.60611 0.48817 0.61470 -0.40500
C 	C 	0.68130 0.40880 0.79220 0.01800
H 	H 	0.69010 0.46460 0.78830 0.03500
C 	C 	0.72630 0.36200 0.86510 -0.02400
H 	H 	0.76430 0.38700 0.91170 0.04800
C 	C 	0.70820 0.39000 0.73670 -0.01400
H 	H 	0.73170 0.43150 0.69460 0.04200
C 	C 	0.75490 0.34420 0.80750 -0.07600
H 	H 	0.81050 0.35330 0.81360 0.05500
O 	O 	0.98817 0.89389 0.11470 -0.41400
C 	C 	0.90880 0.81870 0.29220 0.01100
H 	H 	0.96460 0.80990 0.28830 0.03100
C 	C 	0.86200 0.77370 0.36510 -0.02700
H 	H 	0.88700 0.73570 0.41170 0.03500
C 	C 	0.89000 0.79180 0.23670 -0.00800
H 	H 	0.93150 0.76830 0.19460 0.03300
C 	C 	0.84420 0.74510 0.30750 -0.07700
H 	H 	0.85330 0.68950 0.31360 0.04800
O 	O 	0.01183 0.10611 0.11470 -0.41400
C 	C 	0.09120 0.18130 0.29220 0.01100
H 	H 	0.03540 0.19010 0.28830 0.03100
C 	C 	0.13800 0.22630 0.36510 -0.02700
H 	H 	0.11300 0.26430 0.41170 0.03500
C 	C 	0.11000 0.20820 0.23670 -0.00800
H 	H 	0.06850 0.23170 0.19460 0.03300
C 	C 	0.15580 0.25490 0.30750 -0.07700
H 	H 	0.14670 0.31050 0.31360 0.04800
O 	O 	0.10611 0.01183 0.88530 -0.38300
C 	C 	0.18130 0.09120 0.70780 -0.00200
H 	H 	0.19010 0.03540 0.71170 0.03600
C 	C 	0.22630 0.13800 0.63490 -0.05800
H 	H 	0.26430 0.11300 0.58830 0.04900
C 	C 	0.20820 0.11000 0.76330 0.02400
H 	H 	0.23170 0.06850 0.80540 0.03500
C 	C 	0.25490 0.15580 0.69250 -0.08700
H 	H 	0.31050 0.14670 0.68640 0.06000
O 	O 	0.89389 0.98817 0.88530 -0.38300
C 	C 	0.81870 0.90880 0.70780 -0.00200
H 	H 	0.80990 0.96460 0.71170 0.03600
C 	C 	0.77370 0.86200 0.63490 -0.05800
H 	H 	0.73570 0.88700 0.58830 0.04900
C 	C 	0.79180 0.89000 0.76330 0.02400
H 	H 	0.76830 0.93150 0.80540 0.03500
C 	C 	0.74510 0.84420 0.69250 -0.08700
H 	H 	0.68950 0.85330 0.68640 0.06000
O 	O 	0.51183 0.39389 0.38530 -0.40800
C 	C 	0.59120 0.31870 0.20780 -0.00700
H 	H 	0.53540 0.30990 0.21170 0.03100
C 	C 	0.63800 0.27370 0.13490 -0.05800
H 	H 	0.61300 0.23570 0.08830 0.03400
C 	C 	0.61000 0.29180 0.26330 0.02700
H 	H 	0.56850 0.26830 0.30540 0.02600
C 	C 	0.65580 0.24510 0.19250 -0.08600
H 	H 	0.64670 0.18950 0.18640 0.05200
O 	O 	0.48817 0.60611 0.38530 -0.40800
C 	C 	0.40880 0.68130 0.20780 -0.00700
H 	H 	0.46460 0.69010 0.21170 0.03100
C 	C 	0.36200 0.72630 0.13490 -0.05800
H 	H 	0.38700 0.76430 0.08830 0.03400
C 	C 	0.39000 0.70820 0.26330 0.02700
H 	H 	0.43150 0.73170 0.30540 0.02600
C 	C 	0.34420 0.75490 0.19250 -0.08600
H 	H 	0.35330 0.81050 0.18640 0.05200
O 	O 	0.60611 0.48817 0.38530 -0.40800
C 	C 	0.68130 0.40880 0.20780 -0.00700
H 	H 	0.69010 0.46460 0.21170 0.03100
C 	C 	0.72630 0.36200 0.13490 -0.05800
H 	H 	0.76430 0.38700 0.08830 0.03400
C 	C 	0.70820 0.39000 0.26330 0.02700
H 	H 	0.73170 0.43150 0.30540 0.02600
C 	C 	0.75490 0.34420 0.19250 -0.08600
H 	H 	0.81050 0.35330 0.18640 0.05200
O 	O 	0.39389 0.51183 0.38530 -0.40800
C 	C 	0.31870 0.59120 0.20780 -0.00700
H 	H 	0.30990 0.53540 0.21170 0.03100
C 	C 	0.27370 0.63800 0.13490 -0.05800
H 	H 	0.23570 0.61300 0.08830 0.03400
C 	C 	0.29180 0.61000 0.26330 0.02700
H 	H 	0.26830 0.56850 0.30540 0.02600
C 	C 	0.24510 0.65580 0.19250 -0.08600
H 	H 	0.18950 0.64670 0.18640 0.05200
O 	O 	0.01183 0.10611 0.88530 -0.38300
C 	C 	0.09120 0.18130 0.70780 -0.00200
H 	H 	0.03540 0.19010 0.71170 0.03600
C 	C 	0.13800 0.22630 0.63490 -0.05800
H 	H 	0.11300 0.26430 0.58830 0.04900
C 	C 	0.11000 0.20820 0.76330 0.02400
H 	H 	0.06850 0.23170 0.80540 0.03500
C 	C 	0.15580 0.25490 0.69250 -0.08700
H 	H 	0.14670 0.31050 0.68640 0.06000
O 	O 	0.98817 0.89389 0.88530 -0.38300
C 	C 	0.90880 0.81870 0.70780 -0.00200
H 	H 	0.96460 0.80990 0.71170 0.03600
C 	C 	0.86200 0.77370 0.63490 -0.05800
H 	H 	0.88700 0.73570 0.58830 0.04900
C 	C 	0.89000 0.79180 0.76330 0.02400
H 	H 	0.93150 0.76830 0.80540 0.03500
C 	C 	0.84420 0.74510 0.69250 -0.08700
H 	H 	0.85330 0.68950 0.68640 0.06000
O 	O 	0.89389 0.98817 0.11470 -0.41400
C 	C 	0.81870 0.90880 0.29220 0.01100
H 	H 	0.80990 0.96460 0.28830 0.03100
C 	C 	0.77370 0.86200 0.36510 -0.02700
H 	H 	0.73570 0.88700 0.41170 0.03500
C 	C 	0.79180 0.89000 0.23670 -0.00800
H 	H 	0.76830 0.93150 0.19460 0.03300
C 	C 	0.74510 0.84420 0.30750 -0.07700
H 	H 	0.68950 0.85330 0.31360 0.04800
O 	O 	0.10611 0.01183 0.11470 -0.41400
C 	C 	0.18130 0.09120 0.29220 0.01100
H 	H 	0.19010 0.03540 0.28830 0.03100
C 	C 	0.22630 0.13800 0.36510 -0.02700
H 	H 	0.26430 0.11300 0.41170 0.03500
C 	C 	0.20820 0.11000 0.23670 -0.00800
H 	H 	0.23170 0.06850 0.19460 0.03300
C 	C 	0.25490 0.15580 0.30750 -0.07700
H 	H 	0.31050 0.14670 0.31360 0.04800
O 	O 	0.48817 0.60611 0.61470 -0.40500
C 	C 	0.40880 0.68130 0.79220 0.01800
H 	H 	0.46460 0.69010 0.78830 0.03500
C 	C 	0.36200 0.72630 0.86510 -0.02400
H 	H 	0.38700 0.76430 0.91170 0.04800
C 	C 	0.39000 0.70820 0.73670 -0.01400
H 	H 	0.43150 0.73170 0.69460 0.04200
C 	C 	0.34420 0.75490 0.80750 -0.07600
H 	H 	0.35330 0.81050 0.81360 0.05500
O 	O 	0.51183 0.39389 0.61470 -0.40500
C 	C 	0.59120 0.31870 0.79220 0.01800
H 	H 	0.53540 0.30990 0.78830 0.03500
C 	C 	0.63800 0.27370 0.86510 -0.02400
H 	H 	0.61300 0.23570 0.91170 0.04800
C 	C 	0.61000 0.29180 0.73670 -0.01400
H 	H 	0.56850 0.26830 0.69460 0.04200
C 	C 	0.65580 0.24510 0.80750 -0.07600
H 	H 	0.64670 0.18950 0.81360 0.05500
C 	C 	0.42280 0.57720 0.64640 0.36400
C 	C 	0.37441 0.62559 0.72780 -0.09700
C 	C 	0.28298 0.71702 0.87080 0.04100
C 	C 	0.17941 0.82059 0.91040 0.07400
C 	C 	0.23314 0.76686 0.94310 0.04400
N 	N 	0.23314 0.76686 0.05690 -0.17100
C 	C 	0.57720 0.42280 0.64640 0.36400
C 	C 	0.62559 0.37441 0.72780 -0.09700
C 	C 	0.71702 0.28298 0.87080 0.04100
C 	C 	0.82059 0.17941 0.91040 0.07400
C 	C 	0.76686 0.23314 0.94310 0.04400
N 	N 	0.76686 0.23314 0.05690 -0.17100
C 	C 	0.92280 0.92280 0.14640 0.36100
C 	C 	0.87441 0.87441 0.22780 -0.10300
C 	C 	0.78298 0.78298 0.37080 0.04000
C 	C 	0.67941 0.67941 0.41040 0.04100
C 	C 	0.73314 0.73314 0.44310 0.01100
N 	N 	0.73314 0.73314 0.55690 -0.14900
C 	C 	0.07720 0.07720 0.14640 0.36100
C 	C 	0.12559 0.12559 0.22780 -0.10300
C 	C 	0.21702 0.21702 0.37080 0.04000
C 	C 	0.32059 0.32059 0.41040 0.04100
C 	C 	0.26686 0.26686 0.44310 0.01100
N 	N 	0.26686 0.26686 0.55690 -0.14900
C 	C 	0.07720 0.07720 0.85360 0.36200
C 	C 	0.12559 0.12559 0.77220 -0.10300
C 	C 	0.21702 0.21702 0.62920 0.12300
C 	C 	0.32059 0.32059 0.58960 0.10700
C 	C 	0.92280 0.92280 0.85360 0.36200
C 	C 	0.87441 0.87441 0.77220 -0.10300
C 	C 	0.78298 0.78298 0.62920 0.12300
C 	C 	0.67941 0.67941 0.58960 0.10700
C 	C 	0.57720 0.42280 0.35360 0.36500
C 	C 	0.62559 0.37441 0.27220 -0.11100
C 	C 	0.71702 0.28298 0.12920 0.11200
C 	C 	0.82059 0.17941 0.08960 0.09600
C 	C 	0.42280 0.57720 0.35360 0.36500
C 	C 	0.37441 0.62559 0.27220 -0.11100
C 	C 	0.28298 0.71702 0.12920 0.11200
C 	C 	0.17941 0.82059 0.08960 0.09600
Cu	Cu	0.44377 0.44377 0.50000 0.92000
Cu	Cu	0.55623 0.55623 0.50000 0.92000
Cu	Cu	0.05623 0.94377 -0.00000 0.89700
Cu	Cu	0.94377 0.05623 -0.00000 0.89700
N 	N 	0.14670 0.85330 -0.00000 -0.22300
N 	N 	0.85330 0.14670 -0.00000 -0.22300
N 	N 	0.64670 0.64670 0.50000 -0.19200
N 	N 	0.35330 0.35330 0.50000 -0.19200
