data_crystal

_cell_length_a 14.80200
_cell_length_b 14.78000
_cell_length_c 20.80100
_cell_angle_alpha 90.00000
_cell_angle_beta  90.36000
_cell_angle_gamma 90.00000

_symmetry_space_group_name_	'P 1'
_symmetry_space_group_name_H-M	'P 1'

loop_
_symmetry_equiv_pos_as_xyz
  x,y,z

loop_
_atom_site_label
_atom_site_type_symbol
_atom_site_fract_x
_atom_site_fract_y
_atom_site_fract_z
_atom_site_charge
As	As	0.54589 0.02503 0.37157 0.12200
As	As	0.38037 0.77363 0.12329 0.13000
As	As	0.33590 0.23164 0.12136 0.13700
As	As	0.09077 0.97933 0.32931 0.14300
Mn	Mn	0.47288 0.88906 0.24993 1.19000
Mn	Mn	0.44835 0.13526 0.24599 1.18800
Mn	Mn	0.31677 0.00072 0.36021 1.18800
Mn	Mn	0.22698 0.86539 0.22448 1.18900
Mn	Mn	0.35999 0.00260 0.11497 1.18700
Mn	Mn	0.20532 0.11259 0.22583 1.18700
S 	S 	0.33850 0.00040 0.23712 -1.25600
S 	S 	0.58380 0.02580 0.26670 -0.47200
S 	S 	0.46150 0.89890 0.37383 -0.46900
S 	S 	0.36200 0.75360 0.22943 -0.46900
S 	S 	0.48840 0.88130 0.12509 -0.46300
S 	S 	0.43660 0.12980 0.37156 -0.46700
S 	S 	0.46180 0.14740 0.12129 -0.46100
S 	S 	0.31630 0.24920 0.22787 -0.46900
S 	S 	0.23300 0.12340 0.10169 -0.45000
S 	S 	0.19660 0.87270 0.34842 -0.46100
S 	S 	0.25680 0.85640 0.10105 -0.43700
S 	S 	0.09150 0.97880 0.22129 -0.44800
S 	S 	0.17170 0.10450 0.34981 -0.44400
N 	N 	0.58780 0.78800 0.25950 -0.31000
H 	H 	0.63980 0.81850 0.25390 0.09000
H 	H 	0.58800 0.76770 0.30030 0.09200
N 	N 	0.59020 0.71170 0.21880 -0.31400
H 	H 	0.58830 0.73210 0.17810 0.09300
H 	H 	0.53880 0.68050 0.22520 0.09500
N 	N 	0.54650 0.25120 0.25230 -0.31600
H 	H 	0.51680 0.30200 0.24110 0.09500
H 	H 	0.56300 0.25740 0.29380 0.09300
N 	N 	0.62660 0.24660 0.21500 -0.30900
H 	H 	0.61030 0.24190 0.17340 0.09500
H 	H 	0.65600 0.19540 0.22570 0.09100
N 	N 	0.29750 0.00240 0.46910 -0.31500
H 	H 	0.26680 0.05280 0.47950 0.09700
H 	H 	0.26290 0.95470 0.47990 0.09700
N 	N 	0.37740 0.99950 0.50730 -0.31500
H 	H 	0.41130 0.04790 0.49720 0.09300
H 	H 	0.40880 0.94990 0.49600 0.09400
As	As	0.04589 0.52503 0.37157 0.20400
As	As	0.88037 0.27363 0.12329 0.11100
As	As	0.83590 0.73164 0.12136 0.12300
As	As	0.59077 0.47933 0.32931 0.12500
Mn	Mn	0.97288 0.38906 0.24993 1.17200
Mn	Mn	0.94835 0.63526 0.24599 1.17100
Mn	Mn	0.81677 0.50072 0.36021 1.18900
Mn	Mn	0.72698 0.36539 0.22448 1.19000
Mn	Mn	0.85999 0.50260 0.11497 1.18800
Mn	Mn	0.70532 0.61259 0.22583 1.18900
S 	S 	0.83850 0.50040 0.23712 -1.25900
S 	S 	0.08380 0.52580 0.26670 -0.41500
S 	S 	0.96150 0.39890 0.37383 -0.53500
S 	S 	0.86200 0.25360 0.22943 -0.49800
S 	S 	0.98840 0.38130 0.12509 -0.51000
S 	S 	0.93660 0.62980 0.37156 -0.53000
S 	S 	0.96180 0.64740 0.12129 -0.50400
S 	S 	0.81630 0.74920 0.22787 -0.49300
S 	S 	0.73300 0.62340 0.10169 -0.46100
S 	S 	0.69660 0.37270 0.34842 -0.47200
S 	S 	0.75680 0.35640 0.10105 -0.44900
S 	S 	0.59150 0.47880 0.22129 -0.47000
S 	S 	0.67170 0.60450 0.34981 -0.45700
N 	N 	0.08780 0.28800 0.25950 -0.29900
H 	H 	0.13980 0.31850 0.25390 0.09700
H 	H 	0.08800 0.26770 0.30030 0.10500
N 	N 	0.09020 0.21170 0.21880 -0.32200
H 	H 	0.08830 0.23210 0.17810 0.11300
H 	H 	0.03880 0.18050 0.22520 0.11600
N 	N 	0.04650 0.75120 0.25230 -0.30800
H 	H 	0.01680 0.80200 0.24110 0.11300
H 	H 	0.06300 0.75740 0.29380 0.10500
N 	N 	0.12660 0.74660 0.21500 -0.31300
H 	H 	0.11030 0.74190 0.17340 0.11200
H 	H 	0.15600 0.69540 0.22570 0.10000
N 	N 	0.79750 0.50240 0.46910 -0.31300
H 	H 	0.76680 0.55280 0.47950 0.09300
H 	H 	0.76290 0.45470 0.47990 0.09200
N 	N 	0.87740 0.49950 0.50730 -0.31300
H 	H 	0.91130 0.54790 0.49720 0.08600
H 	H 	0.90880 0.44990 0.49600 0.08600
As	As	0.54589 0.97497 0.87157 0.11900
As	As	0.38037 0.22637 0.62329 0.12500
As	As	0.33590 0.76836 0.62136 0.13200
As	As	0.09077 0.02067 0.82931 0.13900
Mn	Mn	0.47288 0.11094 0.74993 1.19000
Mn	Mn	0.44835 0.86474 0.74599 1.18800
Mn	Mn	0.31677 0.99928 0.86021 1.18800
Mn	Mn	0.22698 0.13461 0.72448 1.18900
Mn	Mn	0.35999 0.99740 0.61497 1.18700
Mn	Mn	0.20532 0.88741 0.72583 1.18800
S 	S 	0.33850 0.99960 0.73712 -1.25300
S 	S 	0.58380 0.97420 0.76670 -0.47200
S 	S 	0.46150 0.10110 0.87383 -0.47500
S 	S 	0.36200 0.24640 0.72943 -0.47000
S 	S 	0.48840 0.11870 0.62509 -0.47200
S 	S 	0.43660 0.87020 0.87156 -0.47100
S 	S 	0.46180 0.85260 0.62129 -0.46800
S 	S 	0.31630 0.75080 0.72787 -0.47000
S 	S 	0.23300 0.87660 0.60169 -0.45800
S 	S 	0.19660 0.12730 0.84842 -0.46600
S 	S 	0.25680 0.14360 0.60105 -0.44800
S 	S 	0.09150 0.02120 0.72129 -0.45100
S 	S 	0.17170 0.89550 0.84981 -0.44700
N 	N 	0.58780 0.21200 0.75950 -0.31000
H 	H 	0.63980 0.18150 0.75390 0.08900
H 	H 	0.58800 0.23230 0.80030 0.09000
N 	N 	0.59020 0.28830 0.71880 -0.31400
H 	H 	0.58830 0.26790 0.67810 0.09200
H 	H 	0.53880 0.31950 0.72520 0.09400
N 	N 	0.54650 0.74880 0.75230 -0.31600
H 	H 	0.51680 0.69800 0.74110 0.09400
H 	H 	0.56300 0.74260 0.79380 0.09100
N 	N 	0.62660 0.75340 0.71500 -0.30900
H 	H 	0.61030 0.75810 0.67340 0.09400
H 	H 	0.65600 0.80460 0.72570 0.09100
N 	N 	0.29750 0.99760 0.96910 -0.31800
H 	H 	0.26680 0.94720 0.97950 0.09100
H 	H 	0.26290 0.04530 0.97990 0.09000
N 	N 	0.37740 0.00050 0.00730 -0.27900
H 	H 	0.41130 0.95210 0.99720 0.07200
H 	H 	0.40880 0.05010 0.99600 0.07200
As	As	0.04589 0.47497 0.87157 0.20000
As	As	0.88037 0.72637 0.62329 0.10700
As	As	0.83590 0.26836 0.62136 0.11800
As	As	0.59077 0.52067 0.82931 0.12200
Mn	Mn	0.97288 0.61094 0.74993 1.17300
Mn	Mn	0.94835 0.36474 0.74599 1.17100
Mn	Mn	0.81677 0.49928 0.86021 1.18900
Mn	Mn	0.72698 0.63461 0.72448 1.19000
Mn	Mn	0.85999 0.49740 0.61497 1.18700
Mn	Mn	0.70532 0.38741 0.72583 1.18900
S 	S 	0.83850 0.49960 0.73712 -1.25900
S 	S 	0.08380 0.47420 0.76670 -0.41700
S 	S 	0.96150 0.60110 0.87383 -0.53800
S 	S 	0.86200 0.74640 0.72943 -0.49900
S 	S 	0.98840 0.61870 0.62509 -0.51700
S 	S 	0.93660 0.37020 0.87156 -0.53400
S 	S 	0.96180 0.35260 0.62129 -0.51200
S 	S 	0.81630 0.25080 0.72787 -0.49400
S 	S 	0.73300 0.37660 0.60169 -0.47000
S 	S 	0.69660 0.62730 0.84842 -0.47600
S 	S 	0.75680 0.64360 0.60105 -0.45800
S 	S 	0.59150 0.52120 0.72129 -0.47200
S 	S 	0.67170 0.39550 0.84981 -0.46100
N 	N 	0.08780 0.71200 0.75950 -0.29800
H 	H 	0.13980 0.68150 0.75390 0.09600
H 	H 	0.08800 0.73230 0.80030 0.10400
N 	N 	0.09020 0.78830 0.71880 -0.32100
H 	H 	0.08830 0.76790 0.67810 0.11200
H 	H 	0.03880 0.81950 0.72520 0.11600
N 	N 	0.04650 0.24880 0.75230 -0.30800
H 	H 	0.01680 0.19800 0.74110 0.11200
H 	H 	0.06300 0.24260 0.79380 0.10400
N 	N 	0.12660 0.25340 0.71500 -0.31300
H 	H 	0.11030 0.25810 0.67340 0.11100
H 	H 	0.15600 0.30460 0.72570 0.09900
N 	N 	0.79750 0.49760 0.96910 -0.31700
H 	H 	0.76680 0.44720 0.97950 0.08700
H 	H 	0.76290 0.54530 0.97990 0.08600
N 	N 	0.87740 0.50050 0.00730 -0.27400
H 	H 	0.91130 0.45210 0.99720 0.06300
H 	H 	0.90880 0.55010 0.99600 0.06400
