data_crystal

_cell_length_a 8.87490
_cell_length_b 9.64180
_cell_length_c 17.11860
_cell_angle_alpha 95.08350
_cell_angle_beta  90.00000
_cell_angle_gamma 117.40200

_symmetry_space_group_name_	'P 1'
_symmetry_space_group_name_H-M	'P 1'

loop_
_symmetry_equiv_pos_as_xyz
  x,y,z

loop_
_atom_site_label
_atom_site_type_symbol
_atom_site_fract_x
_atom_site_fract_y
_atom_site_fract_z
_atom_site_charge
Li	Li	0.36160 1.00000 0.75000 0.55900
Li	Li	0.63840 -0.00000 0.25000 0.55900
Mg	Mg	0.49107 0.13822 0.93420 1.46700
Mg	Mg	0.35285 0.86178 0.56580 1.46800
Mg	Mg	0.50893 0.86178 0.06580 1.46700
Mg	Mg	0.64715 0.13822 0.43420 1.46800
H 	H 	0.52950 0.53020 0.52470 0.24500
H 	H 	0.49740 0.82500 0.72540 -0.02900
H 	H 	0.43870 0.38600 0.69030 0.00900
H 	H 	0.41640 0.56660 0.90730 0.00300
H 	H 	0.99930 0.46980 0.97530 0.23900
H 	H 	0.67240 0.17500 0.77460 -0.02900
H 	H 	0.05270 0.61400 0.80970 0.01300
H 	H 	0.84980 0.43340 0.59270 0.00300
H 	H 	0.47050 0.46980 0.47530 0.24500
H 	H 	0.50260 0.17500 0.27460 -0.02900
H 	H 	0.56130 0.61400 0.30970 0.00900
H 	H 	0.58360 0.43340 0.09270 0.00300
H 	H 	0.00070 0.53020 0.02470 0.23900
H 	H 	0.32760 0.82500 0.22540 -0.02900
H 	H 	0.94730 0.38600 0.19030 0.01300
H 	H 	0.15020 0.56660 0.40730 0.00300
C 	C 	0.46788 0.85196 0.87824 0.49600
C 	C 	0.45682 0.71664 0.82453 -0.23000
C 	C 	0.47866 0.73172 0.74494 0.15800
C 	C 	0.47259 0.60838 0.69434 -0.22400
C 	C 	0.49379 0.62398 0.60833 0.49100
C 	C 	0.44429 0.46938 0.72410 0.14700
C 	C 	0.42430 0.45360 0.80319 -0.19000
C 	C 	0.41115 0.30650 0.83310 0.41900
C 	C 	0.43021 0.57702 0.85394 0.14800
C 	C 	0.61592 0.14804 0.62176 0.49600
C 	C 	0.74018 0.28336 0.67547 -0.22900
C 	C 	0.74694 0.26828 0.75506 0.15500
C 	C 	0.86421 0.39162 0.80566 -0.22000
C 	C 	0.86981 0.37602 0.89167 0.48300
C 	C 	0.97491 0.53062 0.77590 0.13900
C 	C 	0.97070 0.54640 0.69681 -0.18900
C 	C 	0.10465 0.69350 0.66690 0.41900
C 	C 	0.85319 0.42298 0.64606 0.14700
C 	C 	0.53212 0.14804 0.12176 0.49600
C 	C 	0.54318 0.28336 0.17547 -0.23000
C 	C 	0.52134 0.26828 0.25506 0.15800
C 	C 	0.52741 0.39162 0.30566 -0.22400
C 	C 	0.50621 0.37602 0.39167 0.49100
C 	C 	0.55571 0.53062 0.27590 0.14700
C 	C 	0.57570 0.54640 0.19681 -0.19000
C 	C 	0.58885 0.69350 0.16690 0.41900
C 	C 	0.56979 0.42298 0.14606 0.14800
C 	C 	0.38408 0.85196 0.37824 0.49600
C 	C 	0.25982 0.71664 0.32453 -0.22900
C 	C 	0.25306 0.73172 0.24494 0.15500
C 	C 	0.13579 0.60838 0.19434 -0.22000
C 	C 	0.13019 0.62398 0.10833 0.48300
C 	C 	0.02509 0.46938 0.22410 0.13900
C 	C 	0.02930 0.45360 0.30319 -0.18900
C 	C 	0.89535 0.30650 0.33310 0.41900
C 	C 	0.14681 0.57702 0.35394 0.14700
O 	O 	0.47777 0.84834 0.95054 -0.62400
O 	O 	0.47107 0.96854 0.84815 -0.58900
O 	O 	0.48631 0.73322 0.57832 -0.50900
O 	O 	0.51892 0.51604 0.57131 -0.50700
O 	O 	0.35821 0.18582 0.78530 -0.43300
O 	O 	0.46165 0.31690 0.90253 -0.52400
O 	O 	0.62943 0.15166 0.54946 -0.62500
O 	O 	0.50253 0.03146 0.65185 -0.59100
O 	O 	0.75309 0.26678 0.92168 -0.50900
O 	O 	0.00288 0.48396 0.92869 -0.49700
O 	O 	0.17239 0.81418 0.71470 -0.43200
O 	O 	0.14475 0.68310 0.59747 -0.52400
O 	O 	0.52223 0.15166 0.04946 -0.62400
O 	O 	0.52893 0.03146 0.15185 -0.58900
O 	O 	0.51369 0.26678 0.42168 -0.50900
O 	O 	0.48108 0.48396 0.42869 -0.50700
O 	O 	0.64179 0.81418 0.21470 -0.43300
O 	O 	0.53835 0.68310 0.09747 -0.52400
O 	O 	0.37057 0.84834 0.45054 -0.62500
O 	O 	0.49747 0.96854 0.34815 -0.59100
O 	O 	0.24691 0.73322 0.07832 -0.50900
O 	O 	0.99712 0.51604 0.07131 -0.49700
O 	O 	0.82761 0.18582 0.28530 -0.43200
O 	O 	0.85525 0.31690 0.40253 -0.52400
