data_crystal

_cell_length_a 10.04900
_cell_length_b 15.04100
_cell_length_c 20.70800
_cell_angle_alpha 101.56100
_cell_angle_beta  93.89400
_cell_angle_gamma 105.46100

_symmetry_space_group_name_	'P 1'
_symmetry_space_group_name_H-M	'P 1'

loop_
_symmetry_equiv_pos_as_xyz
  x,y,z

loop_
_atom_site_label
_atom_site_type_symbol
_atom_site_fract_x
_atom_site_fract_y
_atom_site_fract_z
_atom_site_charge
Zn	Zn	0.27000 0.37349 0.32972 1.18000
Zn	Zn	0.19172 0.07718 0.33140 1.17900
O 	O 	0.45100 0.33710 0.33255 -0.47500
O 	O 	0.36650 0.19380 0.35240 -0.50100
O 	O 	0.01770 0.11920 0.33679 -0.47600
O 	O 	0.10150 0.25840 0.30872 -0.50100
N 	N 	0.27050 0.35930 0.22360 -0.25000
N 	N 	0.26780 0.39580 0.43560 -0.26700
N 	N 	0.19370 0.07480 0.22740 -0.26300
N 	N 	0.21320 0.08780 0.43760 -0.25600
C 	C 	0.46050 0.25680 0.33910 0.40700
C 	C 	0.60120 0.23890 0.33170 -0.10400
C 	C 	0.71290 0.31210 0.32210 -0.02000
H 	H 	0.69920 0.37090 0.31780 0.04500
C 	C 	0.61810 0.15150 0.33340 -0.00100
H 	H 	0.54000 0.10060 0.33550 0.00800
C 	C 	0.74790 0.13780 0.33200 -0.02200
H 	H 	0.75950 0.07790 0.33470 0.04500
C 	C 	0.84380 0.29770 0.31880 -0.00500
H 	H 	0.91940 0.34640 0.31130 0.01000
C 	C 	0.86440 0.21210 0.32650 -0.10300
C 	C 	0.00570 0.19700 0.32470 0.39200
C 	C 	0.39130 0.38270 0.19800 0.07400
H 	H 	0.47530 0.39330 0.22620 -0.00400
C 	C 	0.15280 0.34550 0.18370 0.06800
H 	H 	0.06680 0.33090 0.20130 -0.01200
C 	C 	0.15080 0.35180 0.11650 -0.14700
H 	H 	0.06550 0.34120 0.08930 0.07700
C 	C 	0.40140 0.39210 0.13480 -0.14900
H 	H 	0.48950 0.41040 0.11950 0.08500
C 	C 	0.27550 0.37370 0.09170 0.09500
C 	C 	0.28000 0.38590 0.02390 -0.04700
C 	C 	0.28560 0.39730 0.96790 -0.01200
C 	C 	0.28430 0.40650 0.90020 0.03200
C 	C 	0.37100 0.37070 0.86180 -0.06700
H 	H 	0.43300 0.34160 0.88010 0.05500
C 	C 	0.20330 0.45550 0.87620 -0.07000
H 	H 	0.14860 0.48390 0.90470 0.05000
C 	C 	0.20000 0.46420 0.81090 -0.04800
H 	H 	0.14190 0.49730 0.79440 0.03700
C 	C 	0.36800 0.37700 0.79520 -0.04700
H 	H 	0.42440 0.34910 0.76740 0.03900
C 	C 	0.28260 0.42420 0.76970 0.00600
C 	C 	0.28140 0.42870 0.69960 -0.01300
C 	C 	0.28120 0.42830 0.64230 -0.06800
C 	C 	0.27840 0.42180 0.57400 0.07800
C 	C 	0.39720 0.42480 0.54240 -0.14300
H 	H 	0.48430 0.43570 0.56810 0.04800
C 	C 	0.15400 0.40520 0.52900 -0.22700
H 	H 	0.06910 0.40440 0.54680 0.09300
C 	C 	0.15350 0.39000 0.45970 0.21900
H 	H 	0.06880 0.37560 0.43120 -0.07700
C 	C 	0.38960 0.41150 0.47120 0.10700
H 	H 	0.47110 0.41410 0.45000 -0.02300
C 	C 	0.08650 0.08260 0.18890 0.08700
H 	H 	0.00040 0.07920 0.20600 -0.00600
C 	C 	0.31030 0.07200 0.19990 0.07900
H 	H 	0.38540 0.06260 0.22540 -0.03000
C 	C 	0.32480 0.08240 0.13480 -0.16400
H 	H 	0.40760 0.07800 0.11650 0.08500
C 	C 	0.09760 0.09530 0.12500 -0.15800
H 	H 	0.02040 0.10180 0.09920 0.08600
C 	C 	0.22240 0.09850 0.09850 0.11500
C 	C 	0.23650 0.11260 0.03120 -0.05800
C 	C 	0.24880 0.12440 0.97790 0.00100
C 	C 	0.25780 0.12930 0.91050 0.01800
C 	C 	0.37460 0.11730 0.87790 -0.05900
H 	H 	0.45300 0.11040 0.90260 0.04700
C 	C 	0.14330 0.13870 0.87120 -0.05800
H 	H 	0.06320 0.14490 0.89150 0.04800
C 	C 	0.14380 0.13940 0.80580 -0.04700
H 	H 	0.06660 0.14780 0.78110 0.02200
C 	C 	0.37520 0.11570 0.81030 -0.05000
H 	H 	0.45280 0.10670 0.78880 0.03600
C 	C 	0.26210 0.12730 0.77490 0.00800
C 	C 	0.26010 0.12620 0.70420 -0.01200
C 	C 	0.25060 0.11930 0.64620 -0.07000
C 	C 	0.24020 0.10980 0.57710 0.08500
C 	C 	0.35610 0.11280 0.53780 -0.19900
H 	H 	0.44710 0.12260 0.55940 0.08300
C 	C 	0.11080 0.09120 0.53660 -0.08300
H 	H 	0.02790 0.08250 0.55710 0.04300
C 	C 	0.10100 0.08540 0.46990 0.02900
H 	H 	0.01390 0.07950 0.44590 0.00800
C 	C 	0.33520 0.10150 0.47060 0.17800
H 	H 	0.41290 0.10370 0.44670 -0.05600
C 	C 	0.31750 0.35250 0.54120 0.00500
C 	C 	0.23340 0.48240 0.54240 0.08200
C 	C 	0.22780 0.46590 0.47310 -0.13500
C 	C 	0.30940 0.34050 0.47060 -0.05400
C 	C 	0.27550 0.03780 0.53710 0.04500
C 	C 	0.18970 0.17190 0.54860 -0.07600
C 	C 	0.17980 0.15570 0.47970 0.03400
C 	C 	0.25970 0.02720 0.46980 -0.10700
H 	H 	0.35020 0.31120 0.56320 0.02400
H 	H 	0.20680 0.53410 0.56690 -0.00400
H 	H 	0.19370 0.50660 0.45110 0.03000
H 	H 	0.33600 0.28860 0.44660 0.03600
H 	H 	0.31110 0.99510 0.55630 0.00600
H 	H 	0.16330 0.22250 0.57450 0.05100
H 	H 	0.14490 0.19840 0.46010 0.00500
H 	H 	0.28190 0.97510 0.44330 0.02400
Zn	Zn	0.73000 0.62651 0.67028 1.17900
Zn	Zn	0.80828 0.92282 0.66860 1.17800
O 	O 	0.54900 0.66290 0.66745 -0.47600
O 	O 	0.63350 0.80620 0.64760 -0.50200
O 	O 	0.98230 0.88080 0.66321 -0.47700
O 	O 	0.89850 0.74160 0.69128 -0.50200
N 	N 	0.72950 0.64070 0.77640 -0.25100
N 	N 	0.73220 0.60420 0.56440 -0.26800
N 	N 	0.80630 0.92520 0.77260 -0.26400
N 	N 	0.78680 0.91220 0.56240 -0.25700
C 	C 	0.53950 0.74320 0.66090 0.40700
C 	C 	0.39880 0.76110 0.66830 -0.10400
C 	C 	0.28710 0.68790 0.67790 -0.02000
H 	H 	0.30080 0.62910 0.68220 0.04500
C 	C 	0.38190 0.84850 0.66660 -0.00100
H 	H 	0.46000 0.89940 0.66450 0.00800
C 	C 	0.25210 0.86220 0.66800 -0.02200
H 	H 	0.24050 0.92210 0.66530 0.04500
C 	C 	0.15620 0.70230 0.68120 -0.00500
H 	H 	0.08060 0.65360 0.68870 0.01000
C 	C 	0.13560 0.78790 0.67350 -0.10300
C 	C 	0.99430 0.80300 0.67530 0.39200
C 	C 	0.60870 0.61730 0.80200 0.07400
H 	H 	0.52470 0.60670 0.77380 -0.00400
C 	C 	0.84720 0.65450 0.81630 0.06800
H 	H 	0.93320 0.66910 0.79870 -0.01200
C 	C 	0.84920 0.64820 0.88350 -0.14700
H 	H 	0.93450 0.65880 0.91070 0.07700
C 	C 	0.59860 0.60790 0.86520 -0.14900
H 	H 	0.51050 0.58960 0.88050 0.08500
C 	C 	0.72450 0.62630 0.90830 0.09500
C 	C 	0.72000 0.61410 0.97610 -0.04700
C 	C 	0.71440 0.60270 0.03210 -0.01200
C 	C 	0.71570 0.59350 0.09980 0.03200
C 	C 	0.62900 0.62930 0.13820 -0.06700
H 	H 	0.56700 0.65840 0.11990 0.05500
C 	C 	0.79670 0.54450 0.12380 -0.07000
H 	H 	0.85140 0.51610 0.09530 0.05000
C 	C 	0.80000 0.53580 0.18910 -0.04800
H 	H 	0.85810 0.50270 0.20560 0.03700
C 	C 	0.63200 0.62300 0.20480 -0.04700
H 	H 	0.57560 0.65090 0.23260 0.03900
C 	C 	0.71740 0.57580 0.23030 0.00600
C 	C 	0.71860 0.57130 0.30040 -0.01300
C 	C 	0.71880 0.57170 0.35770 -0.06800
C 	C 	0.72160 0.57820 0.42600 0.07800
C 	C 	0.60280 0.57520 0.45760 -0.14300
H 	H 	0.51570 0.56430 0.43190 0.04800
C 	C 	0.84600 0.59480 0.47100 -0.22700
H 	H 	0.93090 0.59560 0.45320 0.09300
C 	C 	0.84650 0.61000 0.54030 0.21900
H 	H 	0.93120 0.62440 0.56880 -0.07700
C 	C 	0.61040 0.58850 0.52880 0.10700
H 	H 	0.52890 0.58590 0.55000 -0.02300
C 	C 	0.91350 0.91740 0.81110 0.08700
H 	H 	0.99960 0.92080 0.79400 -0.00600
C 	C 	0.68970 0.92800 0.80010 0.07900
H 	H 	0.61460 0.93740 0.77460 -0.03000
C 	C 	0.67520 0.91760 0.86520 -0.16400
H 	H 	0.59240 0.92200 0.88350 0.08500
C 	C 	0.90240 0.90470 0.87500 -0.15800
H 	H 	0.97960 0.89820 0.90080 0.08600
C 	C 	0.77760 0.90150 0.90150 0.11500
C 	C 	0.76350 0.88740 0.96880 -0.05800
C 	C 	0.75120 0.87560 0.02210 0.00100
C 	C 	0.74220 0.87070 0.08950 0.01800
C 	C 	0.62540 0.88270 0.12210 -0.05900
H 	H 	0.54700 0.88960 0.09740 0.04700
C 	C 	0.85670 0.86130 0.12880 -0.05800
H 	H 	0.93680 0.85510 0.10850 0.04800
C 	C 	0.85620 0.86060 0.19420 -0.04700
H 	H 	0.93340 0.85220 0.21890 0.02200
C 	C 	0.62480 0.88430 0.18970 -0.05000
H 	H 	0.54720 0.89330 0.21120 0.03600
C 	C 	0.73790 0.87270 0.22510 0.00800
C 	C 	0.73990 0.87380 0.29580 -0.01200
C 	C 	0.74940 0.88070 0.35380 -0.07000
C 	C 	0.75980 0.89020 0.42290 0.08500
C 	C 	0.64390 0.88720 0.46220 -0.19900
H 	H 	0.55290 0.87740 0.44060 0.08300
C 	C 	0.88920 0.90880 0.46340 -0.08300
H 	H 	0.97210 0.91750 0.44290 0.04300
C 	C 	0.89900 0.91460 0.53010 0.02900
H 	H 	0.98610 0.92050 0.55410 0.00800
C 	C 	0.66480 0.89850 0.52940 0.17800
H 	H 	0.58710 0.89630 0.55330 -0.05600
C 	C 	0.68250 0.64750 0.45880 0.00500
C 	C 	0.76660 0.51760 0.45760 0.08200
C 	C 	0.77220 0.53410 0.52690 -0.13500
C 	C 	0.69060 0.65950 0.52940 -0.05400
C 	C 	0.72450 0.96220 0.46290 0.04500
C 	C 	0.81030 0.82810 0.45140 -0.07600
C 	C 	0.82020 0.84430 0.52030 0.03400
C 	C 	0.74030 0.97280 0.53020 -0.10700
H 	H 	0.64980 0.68880 0.43680 0.02400
H 	H 	0.79320 0.46590 0.43310 -0.00400
H 	H 	0.80630 0.49340 0.54890 0.03000
H 	H 	0.66400 0.71140 0.55340 0.03600
H 	H 	0.68890 0.00490 0.44370 0.00600
H 	H 	0.83670 0.77750 0.42550 0.05100
H 	H 	0.85510 0.80160 0.53990 0.00500
H 	H 	0.71810 0.02490 0.55670 0.02400
