data_crystal

_cell_length_a 10.09400
_cell_length_b 13.69900
_cell_length_c 13.72300
_cell_angle_alpha 90.00000
_cell_angle_beta  107.92000
_cell_angle_gamma 90.00000

_symmetry_space_group_name_	'P 1'
_symmetry_space_group_name_H-M	'P 1'

loop_
_symmetry_equiv_pos_as_xyz
  x,y,z

loop_
_atom_site_label
_atom_site_type_symbol
_atom_site_fract_x
_atom_site_fract_y
_atom_site_fract_z
_atom_site_charge
Cd	Cd	0.67340 0.55723 0.08155 1.23400
O 	O 	0.85290 0.45630 0.21810 -0.31200
O 	O 	0.62730 0.42920 0.17800 -0.36600
O 	O 	0.60450 0.05970 0.45570 -0.46100
O 	O 	0.45520 0.14930 0.33730 -0.37100
O 	O 	0.16650 0.18210 0.36050 -0.35000
O 	O 	0.11800 0.07670 0.46700 -0.33500
C 	C 	0.75240 0.40550 0.22380 0.30000
C 	C 	0.57820 0.12500 0.38700 0.35100
C 	C 	0.08420 0.14730 0.40510 0.29000
C 	C 	0.83260 0.14150 0.40170 0.02400
H 	H 	0.85110 0.08580 0.44240 0.05800
C 	C 	0.94100 0.18980 0.37870 -0.06200
C 	C 	0.91330 0.27710 0.32410 0.01500
H 	H 	0.98620 0.31140 0.31200 0.06600
C 	C 	0.77990 0.31350 0.28760 -0.07100
C 	C 	0.67070 0.26150 0.30550 0.02600
H 	H 	0.57980 0.28380 0.27820 0.05500
C 	C 	0.69690 0.17640 0.36390 -0.09200
Cd	Cd	0.32660 0.05723 0.41845 1.23400
O 	O 	0.14710 0.95630 0.28190 -0.31100
O 	O 	0.37270 0.92920 0.32200 -0.36600
O 	O 	0.39550 0.55970 0.04430 -0.46100
O 	O 	0.54480 0.64930 0.16270 -0.37100
O 	O 	0.83350 0.68210 0.13950 -0.35000
O 	O 	0.88200 0.57670 0.03300 -0.33400
C 	C 	0.24760 0.90550 0.27620 0.30000
C 	C 	0.42180 0.62500 0.11300 0.35100
C 	C 	0.91580 0.64730 0.09490 0.29000
C 	C 	0.16740 0.64150 0.09830 0.02400
H 	H 	0.14890 0.58580 0.05760 0.05700
C 	C 	0.05900 0.68980 0.12130 -0.06200
C 	C 	0.08670 0.77710 0.17590 0.01500
H 	H 	0.01380 0.81140 0.18800 0.06600
C 	C 	0.22010 0.81350 0.21240 -0.07000
C 	C 	0.32930 0.76150 0.19450 0.02600
H 	H 	0.42020 0.78380 0.22180 0.05500
C 	C 	0.30310 0.67640 0.13610 -0.09200
Cd	Cd	0.32660 0.44277 0.91845 1.23400
O 	O 	0.14710 0.54370 0.78190 -0.31200
O 	O 	0.37270 0.57080 0.82200 -0.36600
O 	O 	0.39550 0.94030 0.54430 -0.46100
O 	O 	0.54480 0.85070 0.66270 -0.37100
O 	O 	0.83350 0.81790 0.63950 -0.35000
O 	O 	0.88200 0.92330 0.53300 -0.33500
C 	C 	0.24760 0.59450 0.77620 0.30000
C 	C 	0.42180 0.87500 0.61300 0.35100
C 	C 	0.91580 0.85270 0.59490 0.29000
C 	C 	0.16740 0.85850 0.59830 0.02400
H 	H 	0.14890 0.91420 0.55760 0.05800
C 	C 	0.05900 0.81020 0.62130 -0.06200
C 	C 	0.08670 0.72290 0.67590 0.01500
H 	H 	0.01380 0.68860 0.68800 0.06600
C 	C 	0.22010 0.68650 0.71240 -0.07100
C 	C 	0.32930 0.73850 0.69450 0.02600
H 	H 	0.42020 0.71620 0.72180 0.05500
C 	C 	0.30310 0.82360 0.63610 -0.09200
Cd	Cd	0.67340 0.94277 0.58155 1.23400
O 	O 	0.85290 0.04370 0.71810 -0.31100
O 	O 	0.62730 0.07080 0.67800 -0.36600
O 	O 	0.60450 0.44030 0.95570 -0.46100
O 	O 	0.45520 0.35070 0.83730 -0.37100
O 	O 	0.16650 0.31790 0.86050 -0.35000
O 	O 	0.11800 0.42330 0.96700 -0.33400
C 	C 	0.75240 0.09450 0.72380 0.30000
C 	C 	0.57820 0.37500 0.88700 0.35100
C 	C 	0.08420 0.35270 0.90510 0.29000
C 	C 	0.83260 0.35850 0.90170 0.02400
H 	H 	0.85110 0.41420 0.94240 0.05700
C 	C 	0.94100 0.31020 0.87870 -0.06200
C 	C 	0.91330 0.22290 0.82410 0.01500
H 	H 	0.98620 0.18860 0.81200 0.06600
C 	C 	0.77990 0.18650 0.78760 -0.07000
C 	C 	0.67070 0.23850 0.80550 0.02600
H 	H 	0.57980 0.21620 0.77820 0.05500
C 	C 	0.69690 0.32360 0.86390 -0.09200
