data_crystal

_cell_length_a 14.30490
_cell_length_b 10.15370
_cell_length_c 18.31280
_cell_angle_alpha 90.00000
_cell_angle_beta  90.10700
_cell_angle_gamma 90.00000

_symmetry_space_group_name_	'P 1'
_symmetry_space_group_name_H-M	'P 1'

loop_
_symmetry_equiv_pos_as_xyz
  x,y,z

loop_
_atom_site_label
_atom_site_type_symbol
_atom_site_fract_x
_atom_site_fract_y
_atom_site_fract_z
_atom_site_charge
V 	V 	0.28821 0.20040 0.19680 1.69600
V 	V 	0.24235 0.68450 0.10383 1.69600
V 	V 	0.25322 0.84789 0.80339 1.69800
V 	V 	0.25326 0.36237 0.89246 1.69600
P 	P 	0.34595 0.63699 0.69779 0.54000
P 	P 	0.18414 0.64285 0.93046 0.64300
P 	P 	0.33320 0.42923 0.31365 0.55000
P 	P 	0.19833 0.38912 0.06685 0.55900
O 	O 	0.19700 0.71240 0.00388 -0.64400
O 	O 	0.42980 0.48740 0.29480 -0.26300
O 	O 	0.44440 0.67430 0.72460 -0.30400
O 	O 	0.28730 0.37140 0.24552 -0.60000
O 	O 	0.09610 0.55870 0.92851 -0.57300
O 	O 	0.21800 0.32600 0.99354 -0.54800
O 	O 	0.32590 0.70880 0.62652 -0.55900
O 	O 	0.09810 0.44400 0.07087 -0.59800
O 	O 	0.20650 0.28400 0.12597 -0.55600
O 	O 	0.27460 0.67680 0.75658 -0.60500
O 	O 	0.17250 0.74860 0.87146 -0.52700
O 	O 	0.28170 0.92570 0.70617 -0.67600
O 	O 	0.27230 0.54020 0.34112 -0.57300
O 	O 	0.26800 0.50050 0.08161 -0.62100
O 	O 	0.28380 0.11890 0.29521 -0.71800
O 	O 	0.34660 0.32540 0.37284 -0.55000
O 	O 	0.34090 0.48840 0.68434 -0.52600
O 	O 	0.26800 0.55390 0.91424 -0.58100
V 	V 	0.21179 0.70040 0.30320 1.69800
V 	V 	0.25765 0.18450 0.39617 1.69000
V 	V 	0.24678 0.34789 0.69661 1.68800
V 	V 	0.24674 0.86237 0.60754 1.70300
P 	P 	0.15405 0.13699 0.80221 0.50000
P 	P 	0.31586 0.14285 0.56954 0.59000
P 	P 	0.16680 0.92923 0.18635 0.59200
P 	P 	0.30167 0.88912 0.43315 0.65600
O 	O 	0.30300 0.21240 0.49612 -0.59900
O 	O 	0.07020 0.98740 0.20520 -0.28500
O 	O 	0.05560 0.17430 0.77540 -0.35700
O 	O 	0.21270 0.87140 0.25448 -0.58700
O 	O 	0.40390 0.05870 0.57149 -0.59400
O 	O 	0.28200 0.82600 0.50646 -0.59200
O 	O 	0.17410 0.20880 0.87348 -0.56600
O 	O 	0.40190 0.94400 0.42913 -0.53200
O 	O 	0.29350 0.78400 0.37403 -0.53800
O 	O 	0.22540 0.17680 0.74342 -0.61600
O 	O 	0.32750 0.24860 0.62854 -0.53200
O 	O 	0.21830 0.42570 0.79383 -0.70900
O 	O 	0.22770 0.04020 0.15888 -0.62800
O 	O 	0.23200 0.00050 0.41839 -0.67000
O 	O 	0.21620 0.61890 0.20479 -0.70200
O 	O 	0.15340 0.82540 0.12716 -0.56500
O 	O 	0.15910 0.98840 0.81566 -0.48500
O 	O 	0.23200 0.05390 0.58576 -0.63300
V 	V 	0.71179 0.79960 0.80320 1.71000
V 	V 	0.75765 0.31550 0.89617 1.69900
V 	V 	0.74678 0.15211 0.19661 1.68500
V 	V 	0.74674 0.63763 0.10754 1.69400
P 	P 	0.65405 0.36301 0.30221 0.54100
P 	P 	0.81586 0.35715 0.06954 0.53900
P 	P 	0.66680 0.57077 0.68635 0.55100
P 	P 	0.80167 0.61088 0.93315 0.66100
O 	O 	0.80300 0.28760 0.99612 -0.53200
O 	O 	0.57020 0.51260 0.70520 -0.26100
O 	O 	0.55560 0.32570 0.27540 -0.32500
O 	O 	0.71270 0.62860 0.75448 -0.58400
O 	O 	0.90390 0.44130 0.07149 -0.54300
O 	O 	0.78200 0.67400 0.00646 -0.63500
O 	O 	0.67410 0.29120 0.37348 -0.56200
O 	O 	0.90190 0.55600 0.92913 -0.50100
O 	O 	0.79350 0.71600 0.87403 -0.51600
O 	O 	0.72540 0.32320 0.24342 -0.60200
O 	O 	0.82750 0.25140 0.12854 -0.52100
O 	O 	0.71830 0.07430 0.29383 -0.72900
O 	O 	0.72770 0.45980 0.65888 -0.55700
O 	O 	0.73200 0.49950 0.91839 -0.59700
O 	O 	0.71620 0.88110 0.70479 -0.66600
O 	O 	0.65340 0.67460 0.62716 -0.53600
O 	O 	0.65910 0.51160 0.31566 -0.52100
O 	O 	0.73200 0.44610 0.08576 -0.60400
V 	V 	0.78821 0.29960 0.69680 1.70700
V 	V 	0.74235 0.81550 0.60383 1.70600
V 	V 	0.75322 0.65211 0.30339 1.69700
V 	V 	0.75326 0.13763 0.39246 1.68600
P 	P 	0.84595 0.86301 0.19779 0.58500
P 	P 	0.68414 0.85715 0.43046 0.59100
P 	P 	0.83320 0.07077 0.81365 0.50600
P 	P 	0.69833 0.11088 0.56685 0.56600
O 	O 	0.69700 0.78760 0.50388 -0.57500
O 	O 	0.92980 0.01260 0.79480 -0.24300
O 	O 	0.94440 0.82570 0.22460 -0.26700
O 	O 	0.78730 0.12860 0.74552 -0.59800
O 	O 	0.59610 0.94130 0.42851 -0.53900
O 	O 	0.71800 0.17400 0.49354 -0.59800
O 	O 	0.82590 0.79120 0.12652 -0.55200
O 	O 	0.59810 0.05600 0.57087 -0.58000
O 	O 	0.70650 0.21600 0.62597 -0.53400
O 	O 	0.77460 0.82320 0.25658 -0.59100
O 	O 	0.67250 0.75140 0.37146 -0.51700
O 	O 	0.78170 0.57430 0.20617 -0.69500
O 	O 	0.77230 0.95980 0.84112 -0.50100
O 	O 	0.76800 0.99950 0.58161 -0.54600
O 	O 	0.78380 0.38110 0.79521 -0.68200
O 	O 	0.84660 0.17460 0.87284 -0.52200
O 	O 	0.84090 0.01160 0.18434 -0.56600
O 	O 	0.76800 0.94610 0.41424 -0.55100
V 	V 	-0.00000 0.50000 -0.00000 1.65200
V 	V 	0.50000 0.00000 0.50000 1.69000
