data_crystal

_cell_length_a 20.46040
_cell_length_b 20.46040
_cell_length_c 21.92310
_cell_angle_alpha 82.51330
_cell_angle_beta  62.22770
_cell_angle_gamma 111.16900

_symmetry_space_group_name_	'P 1'
_symmetry_space_group_name_H-M	'P 1'

loop_
_symmetry_equiv_pos_as_xyz
  x,y,z

loop_
_atom_site_label
_atom_site_type_symbol
_atom_site_fract_x
_atom_site_fract_y
_atom_site_fract_z
_atom_site_charge
Mn	Mn	0.28072 0.20942 0.60390 1.30100
Mn	Mn	0.15323 0.27857 0.58824 1.29900
Mn	Mn	0.33717 0.33451 0.42090 1.22900
Mn	Mn	0.66848 0.38776 0.94080 1.24400
Mn	Mn	0.31332 0.88462 0.89610 1.30000
Mn	Mn	0.36681 0.74147 0.91176 1.29800
Mn	Mn	0.25541 0.75807 0.07910 1.22800
Mn	Mn	0.82856 0.60928 0.55920 1.24300
Mn	Mn	0.71928 0.79058 0.39610 1.30000
Mn	Mn	0.84677 0.72143 0.41176 1.29800
Mn	Mn	0.66283 0.66549 0.57910 1.22800
Mn	Mn	0.33152 0.61224 0.05920 1.24300
Mn	Mn	0.68668 0.11538 0.10390 1.30000
Mn	Mn	0.63319 0.25853 0.08824 1.29800
Mn	Mn	0.74459 0.24193 0.92090 1.22800
Mn	Mn	0.17144 0.39072 0.44080 1.24300
Mn	Mn	0.26069 0.01069 0.75000 1.19200
Mn	Mn	0.73931 0.98931 0.25000 1.19200
H 	H 	0.47850 0.16230 0.48780 0.03800
H 	H 	0.55930 0.32010 0.30180 0.02900
H 	H 	0.67520 0.30210 0.23650 0.06600
H 	H 	0.69170 0.21430 0.29560 0.03500
H 	H 	0.49360 0.97500 0.64500 0.04100
H 	H 	0.58660 0.85130 0.69890 0.03600
H 	H 	0.70280 0.90570 0.57750 0.04400
H 	H 	0.71100 0.98940 0.48940 0.04100
H 	H 	0.35010 0.34240 0.64430 0.02500
H 	H 	0.40230 0.53360 0.51050 0.03000
H 	H 	0.44130 0.59860 0.57670 0.06300
H 	H 	0.44130 0.53830 0.67300 0.02800
H 	H 	0.33600 0.17440 0.80940 0.02400
H 	H 	0.41910 0.08420 0.91310 0.02500
H 	H 	0.48230 0.19850 0.92220 0.06000
H 	H 	0.47780 0.30160 0.87220 0.02600
H 	H 	0.06460 0.97250 0.68910 0.02900
H 	H 	0.06150 0.11530 0.54780 0.04800
H 	H 	0.93460 0.01930 0.57630 0.05100
H 	H 	0.87250 0.90170 0.66240 0.05400
H 	H 	0.84440 0.60790 0.83530 0.04400
H 	H 	0.91150 0.54990 0.97060 0.04300
H 	H 	0.95540 0.67000 0.97500 0.04700
H 	H 	0.94820 0.76060 0.90700 0.05500
H 	H 	0.91630 0.28120 0.53650 0.05300
H 	H 	0.88290 0.10630 0.67740 0.03900
H 	H 	0.75460 0.03220 0.69500 0.04900
H 	H 	0.70560 0.08190 0.63530 0.06100
H 	H 	0.79820 0.42300 0.48800 0.03200
H 	H 	0.78830 0.53460 0.33030 0.03900
H 	H 	0.75130 0.42730 0.30020 0.05400
H 	H 	0.73710 0.31830 0.36480 0.04900
H 	H 	0.55800 0.14600 0.55400 0.15900
H 	H 	0.47900 0.08900 0.58000 0.14700
H 	H 	0.26260 0.24100 0.82440 0.14600
H 	H 	0.30400 0.24800 0.75000 0.15400
H 	H 	0.91330 0.37150 0.42320 0.13700
H 	H 	0.88800 0.38100 0.49100 0.12100
H 	H 	0.01900 0.89400 0.79700 0.11200
H 	H 	0.07090 0.88060 0.73570 0.10100
H 	H 	0.15010 0.96630 0.01220 0.03800
H 	H 	0.12190 0.86110 0.19820 0.02900
H 	H 	0.03860 0.91170 0.26350 0.06500
H 	H 	0.00990 0.98730 0.20440 0.03500
H 	H 	0.12000 0.13860 0.85500 0.04400
H 	H 	0.05020 0.28550 0.80110 0.04000
H 	H 	0.98320 0.28030 0.92250 0.03600
H 	H 	0.97880 0.20040 0.01060 0.04800
H 	H 	0.48670 0.99440 0.85570 0.02500
H 	H 	0.54410 0.91280 0.98950 0.02900
H 	H 	0.67530 0.01800 0.92330 0.06400
H 	H 	0.71130 0.11430 0.82700 0.02700
H 	H 	0.48380 0.14540 0.69060 0.02400
H 	H 	0.49730 0.33220 0.58690 0.02500
H 	H 	0.62070 0.40450 0.57780 0.06000
H 	H 	0.67380 0.35000 0.62780 0.02600
H 	H 	0.16160 0.75370 0.81090 0.03000
H 	H 	0.16310 0.60930 0.95220 0.05000
H 	H 	0.09560 0.51090 0.92370 0.05100
H 	H 	0.06410 0.53490 0.83760 0.05500
H 	H 	0.94320 0.67970 0.66470 0.04500
H 	H 	0.02050 0.88210 0.52940 0.04400
H 	H 	0.14500 0.93040 0.52500 0.04800
H 	H 	0.16760 0.85520 0.59300 0.05600
H 	H 	0.31770 0.45280 0.96350 0.05300
H 	H 	0.28370 0.56030 0.82260 0.03900
H 	H 	0.22720 0.44960 0.80500 0.05000
H 	H 	0.21720 0.34090 0.86470 0.06100
H 	H 	0.41100 0.28620 0.01200 0.03200
H 	H 	0.36490 0.11860 0.16970 0.03900
H 	H 	0.22750 0.05150 0.19980 0.05400
H 	H 	0.18310 0.10190 0.13520 0.04900
H 	H 	0.20000 0.11200 0.94600 0.16000
H 	H 	0.16900 0.05900 0.92000 0.14700
H 	H 	0.56540 0.08700 0.67560 0.14600
H 	H 	0.49800 0.05400 0.75000 0.15400
H 	H 	0.29470 0.33650 0.07680 0.13700
H 	H 	0.37200 0.37900 0.00900 0.12100
H 	H 	0.19100 0.81600 0.70300 0.11100
H 	H 	0.11630 0.80660 0.76430 0.10100
H 	H 	0.52150 0.83770 0.51220 0.03800
H 	H 	0.44070 0.67990 0.69820 0.02900
H 	H 	0.32480 0.69790 0.76350 0.06600
H 	H 	0.30830 0.78570 0.70440 0.03500
H 	H 	0.50640 0.02500 0.35500 0.04100
H 	H 	0.41340 0.14870 0.30110 0.03600
H 	H 	0.29720 0.09430 0.42250 0.04400
H 	H 	0.28900 0.01060 0.51060 0.04100
H 	H 	0.64990 0.65760 0.35570 0.02500
H 	H 	0.59770 0.46640 0.48950 0.03000
H 	H 	0.55870 0.40140 0.42330 0.06300
H 	H 	0.55870 0.46170 0.32700 0.02800
H 	H 	0.66400 0.82560 0.19060 0.02400
H 	H 	0.58090 0.91580 0.08690 0.02500
H 	H 	0.51770 0.80150 0.07780 0.06000
H 	H 	0.52220 0.69840 0.12780 0.02600
H 	H 	0.93540 0.02750 0.31090 0.02900
H 	H 	0.93850 0.88470 0.45220 0.04800
H 	H 	0.06540 0.98070 0.42370 0.05100
H 	H 	0.12750 0.09830 0.33760 0.05400
H 	H 	0.15560 0.39210 0.16470 0.04400
H 	H 	0.08850 0.45010 0.02940 0.04300
H 	H 	0.04460 0.33000 0.02500 0.04700
H 	H 	0.05180 0.23940 0.09300 0.05500
H 	H 	0.08370 0.71880 0.46350 0.05300
H 	H 	0.11710 0.89370 0.32260 0.03900
H 	H 	0.24540 0.96780 0.30500 0.04900
H 	H 	0.29440 0.91810 0.36470 0.06100
H 	H 	0.20180 0.57700 0.51200 0.03200
H 	H 	0.21170 0.46540 0.66970 0.03900
H 	H 	0.24870 0.57270 0.69980 0.05400
H 	H 	0.26290 0.68170 0.63520 0.04900
H 	H 	0.44200 0.85400 0.44600 0.15900
H 	H 	0.52100 0.91100 0.42000 0.14700
H 	H 	0.73740 0.75900 0.17560 0.14600
H 	H 	0.69600 0.75200 0.25000 0.15400
H 	H 	0.08670 0.62850 0.57680 0.13700
H 	H 	0.11200 0.61900 0.50900 0.12100
H 	H 	0.98100 0.10600 0.20300 0.11200
H 	H 	0.92910 0.11940 0.26430 0.10100
H 	H 	0.84990 0.03370 0.98780 0.03800
H 	H 	0.87810 0.13890 0.80180 0.02900
H 	H 	0.96140 0.08830 0.73650 0.06500
H 	H 	0.99010 0.01270 0.79560 0.03500
H 	H 	0.88000 0.86140 0.14500 0.04400
H 	H 	0.94980 0.71450 0.19890 0.04000
H 	H 	0.01680 0.71970 0.07750 0.03600
H 	H 	0.02120 0.79960 0.98940 0.04800
H 	H 	0.51330 0.00560 0.14430 0.02500
H 	H 	0.45590 0.08720 0.01050 0.02900
H 	H 	0.32470 0.98200 0.07670 0.06400
H 	H 	0.28870 0.88570 0.17300 0.02700
H 	H 	0.51620 0.85460 0.30940 0.02400
H 	H 	0.50270 0.66780 0.41310 0.02500
H 	H 	0.37930 0.59550 0.42220 0.06000
H 	H 	0.32620 0.65000 0.37220 0.02600
H 	H 	0.83840 0.24630 0.18910 0.03000
H 	H 	0.83690 0.39070 0.04780 0.05000
H 	H 	0.90440 0.48910 0.07630 0.05100
H 	H 	0.93590 0.46510 0.16240 0.05500
H 	H 	0.05680 0.32030 0.33530 0.04500
H 	H 	0.97950 0.11790 0.47060 0.04400
H 	H 	0.85500 0.06960 0.47500 0.04800
H 	H 	0.83240 0.14480 0.40700 0.05600
H 	H 	0.68230 0.54720 0.03650 0.05300
H 	H 	0.71630 0.43970 0.17740 0.03900
H 	H 	0.77280 0.55040 0.19500 0.05000
H 	H 	0.78280 0.65910 0.13530 0.06100
H 	H 	0.58900 0.71380 0.98800 0.03200
H 	H 	0.63510 0.88140 0.83030 0.03900
H 	H 	0.77250 0.94850 0.80020 0.05400
H 	H 	0.81690 0.89810 0.86480 0.04900
H 	H 	0.80000 0.88800 0.05400 0.16000
H 	H 	0.83100 0.94100 0.08000 0.14700
H 	H 	0.43460 0.91300 0.32440 0.14600
H 	H 	0.50200 0.94600 0.25000 0.15400
H 	H 	0.70530 0.66350 0.92320 0.13700
H 	H 	0.62800 0.62100 0.99100 0.12100
H 	H 	0.80900 0.18400 0.29700 0.11100
H 	H 	0.88370 0.19340 0.23570 0.10100
C 	C 	0.60259 0.12221 0.42940 0.11200
C 	C 	0.61070 0.04100 0.49790 0.12000
C 	C 	0.58737 0.17873 0.39850 -0.03800
C 	C 	0.51799 0.19029 0.43760 0.01500
C 	C 	0.50823 0.24327 0.40150 -0.11800
C 	C 	0.56664 0.28516 0.32580 0.02800
C 	C 	0.63572 0.27398 0.28670 -0.08100
C 	C 	0.64561 0.22169 0.32230 -0.00900
C 	C 	0.43186 0.25384 0.44270 0.41100
C 	C 	0.60350 0.99120 0.55790 -0.02400
C 	C 	0.53510 0.96056 0.63140 0.00300
C 	C 	0.52895 0.90865 0.68420 -0.09700
C 	C 	0.59117 0.88693 0.66390 0.00800
C 	C 	0.66019 0.91871 0.59090 -0.06300
C 	C 	0.66557 0.96953 0.53830 -0.02600
C 	C 	0.45426 0.87234 0.76260 0.38300
C 	C 	0.41251 0.39999 0.72050 0.11600
C 	C 	0.41670 0.31900 0.79270 0.11400
C 	C 	0.39848 0.43396 0.66720 -0.03300
C 	C 	0.37019 0.39411 0.62970 0.01600
C 	C 	0.37222 0.43128 0.57050 -0.12100
C 	C 	0.40005 0.50825 0.55050 0.03500
C 	C 	0.42455 0.54745 0.58960 -0.08500
C 	C 	0.42436 0.51154 0.64730 -0.00900
C 	C 	0.34757 0.39043 0.52700 0.36900
C 	C 	0.40832 0.24978 0.83290 -0.03400
C 	C 	0.36706 0.17994 0.83040 0.01500
C 	C 	0.37233 0.11867 0.85920 -0.12200
C 	C 	0.41583 0.12527 0.89370 0.03600
C 	C 	0.45413 0.19397 0.89850 -0.08300
C 	C 	0.45137 0.25593 0.86870 -0.00700
C 	C 	0.33490 0.04670 0.84840 0.38700
C 	C 	0.92039 0.84901 0.73960 0.10600
C 	C 	0.89154 0.74886 0.81700 0.11200
C 	C 	0.96102 0.92468 0.68630 -0.02400
C 	C 	0.03765 0.98185 0.66730 0.00000
C 	C 	0.07422 0.05238 0.61620 -0.10100
C 	C 	0.03661 0.06769 0.58190 -0.00400
C 	C 	0.96030 0.01010 0.59940 -0.05400
C 	C 	0.92310 0.93960 0.65110 -0.03600
C 	C 	0.15390 0.11310 0.60240 0.34900
C 	C 	0.89782 0.69428 0.86230 -0.00400
C 	C 	0.86846 0.62084 0.86190 -0.01800
C 	C 	0.87521 0.56829 0.90090 -0.07000
C 	C 	0.90776 0.58604 0.94380 -0.00700
C 	C 	0.93440 0.65820 0.94600 -0.04500
C 	C 	0.93000 0.71250 0.90550 -0.03800
C 	C 	0.84377 0.48983 0.89980 0.31800
C 	C 	0.77315 0.21705 0.54240 0.10900
C 	C 	0.75558 0.29092 0.47590 0.10700
C 	C 	0.80609 0.18721 0.57930 -0.00700
C 	C 	0.88381 0.23109 0.56790 -0.01600
C 	C 	0.91370 0.20020 0.60350 -0.09100
C 	C 	0.86432 0.12628 0.65220 -0.00100
C 	C 	0.78716 0.08224 0.66320 -0.05300
C 	C 	0.75751 0.11189 0.62740 -0.03900
C 	C 	0.00082 0.24898 0.58400 0.36200
C 	C 	0.76731 0.35929 0.43240 -0.02500
C 	C 	0.78853 0.42377 0.45050 0.00200
C 	C 	0.79543 0.48827 0.41350 -0.11000
C 	C 	0.78244 0.49086 0.35610 0.01200
C 	C 	0.76050 0.42650 0.33800 -0.06500
C 	C 	0.75247 0.36103 0.37650 -0.02100
C 	C 	0.81162 0.55348 0.43930 0.39900
C 	C 	0.05161 0.03199 0.07060 0.10600
C 	C 	0.03890 0.10860 0.00210 0.10900
C 	C 	0.07723 0.98587 0.10150 -0.03600
C 	C 	0.12789 0.95559 0.06240 0.01300
C 	C 	0.14477 0.90973 0.09850 -0.11600
C 	C 	0.11096 0.89244 0.17420 0.02700
C 	C 	0.06068 0.92242 0.21330 -0.07900
C 	C 	0.04399 0.96791 0.17770 -0.01200
C 	C 	0.19654 0.87456 0.05730 0.40700
C 	C 	0.04910 0.16140 0.94210 -0.01200
C 	C 	0.09196 0.16650 0.86860 -0.00500
C 	C 	0.09285 0.21315 0.81580 -0.09000
C 	C 	0.05083 0.25507 0.83610 -0.00100
C 	C 	0.00961 0.25109 0.90910 -0.04800
C 	C 	0.00783 0.20387 0.96170 -0.03900
C 	C 	0.13494 0.21686 0.73740 0.38100
C 	C 	0.62049 0.13301 0.77950 0.11700
C 	C 	0.61170 0.20940 0.70730 0.11400
C 	C 	0.60116 0.06568 0.83280 -0.03400
C 	C 	0.52381 0.99989 0.87030 0.01700
C 	C 	0.50178 0.94272 0.92950 -0.12300
C 	C 	0.55875 0.95055 0.94950 0.03700
C 	C 	0.63705 0.01415 0.91040 -0.08700
C 	C 	0.65884 0.07166 0.85270 -0.00700
C 	C 	0.41743 0.87457 0.97300 0.37100
C 	C 	0.58268 0.24122 0.66710 -0.03400
C 	C 	0.51034 0.19746 0.66960 0.01500
C 	C 	0.47787 0.23153 0.64080 -0.12200
C 	C 	0.51897 0.30953 0.60630 0.03600
C 	C 	0.59247 0.35263 0.60150 -0.08300
C 	C 	0.62463 0.32007 0.63130 -0.00700
C 	C 	0.39510 0.18330 0.65160 0.38700
C 	C 	0.08861 0.65999 0.76040 0.10500
C 	C 	0.06586 0.70854 0.68300 0.11200
C 	C 	0.11098 0.64732 0.81370 -0.01900
C 	C 	0.14915 0.70495 0.83270 -0.00600
C 	C 	0.16858 0.69042 0.88380 -0.09800
C 	C 	0.14959 0.61851 0.91810 -0.00500
C 	C 	0.10950 0.55970 0.90060 -0.05300
C 	C 	0.09070 0.57420 0.84890 -0.03700
C 	C 	0.21550 0.75630 0.89760 0.34800
C 	C 	0.05658 0.76012 0.63770 -0.00100
C 	C 	0.98274 0.73036 0.63810 -0.02000
C 	C 	0.96919 0.77611 0.59910 -0.07000
C 	C 	0.02984 0.85156 0.55620 -0.00500
C 	C 	0.10420 0.88040 0.55400 -0.04400
C 	C 	0.11800 0.83550 0.59450 -0.03800
C 	C 	0.88963 0.74357 0.60020 0.31800
C 	C 	0.25945 0.31555 0.95760 0.11000
C 	C 	0.26682 0.23148 0.02410 0.10600
C 	C 	0.26651 0.38539 0.92070 -0.00700
C 	C 	0.29899 0.45171 0.93210 -0.01600
C 	C 	0.30370 0.51720 0.89650 -0.09100
C 	C 	0.27848 0.51652 0.84780 -0.00100
C 	C 	0.24544 0.45036 0.83680 -0.05300
C 	C 	0.23929 0.38491 0.87260 -0.03800
C 	C 	0.33298 0.58482 0.91600 0.36300
C 	C 	0.29169 0.19971 0.06760 -0.02500
C 	C 	0.37427 0.23903 0.04950 0.00200
C 	C 	0.40177 0.20893 0.08650 -0.10900
C 	C 	0.34696 0.13854 0.14390 0.01200
C 	C 	0.26450 0.09850 0.16200 -0.06400
C 	C 	0.23753 0.12897 0.12350 -0.02200
C 	C 	0.49278 0.25092 0.06070 0.39900
C 	C 	0.39741 0.87779 0.57060 0.11200
C 	C 	0.38930 0.95900 0.50210 0.12000
C 	C 	0.41263 0.82127 0.60150 -0.03800
C 	C 	0.48201 0.80971 0.56240 0.01500
C 	C 	0.49177 0.75673 0.59850 -0.11800
C 	C 	0.43336 0.71484 0.67420 0.02800
C 	C 	0.36428 0.72602 0.71330 -0.08100
C 	C 	0.35439 0.77831 0.67770 -0.00900
C 	C 	0.56814 0.74616 0.55730 0.41100
C 	C 	0.39650 0.00880 0.44210 -0.02400
C 	C 	0.46490 0.03944 0.36860 0.00300
C 	C 	0.47105 0.09135 0.31580 -0.09700
C 	C 	0.40883 0.11307 0.33610 0.00800
C 	C 	0.33981 0.08129 0.40910 -0.06300
C 	C 	0.33443 0.03047 0.46170 -0.02600
C 	C 	0.54574 0.12766 0.23740 0.38300
C 	C 	0.58749 0.60001 0.27950 0.11600
C 	C 	0.58330 0.68100 0.20730 0.11400
C 	C 	0.60152 0.56604 0.33280 -0.03300
C 	C 	0.62981 0.60589 0.37030 0.01600
C 	C 	0.62778 0.56872 0.42950 -0.12100
C 	C 	0.59995 0.49175 0.44950 0.03500
C 	C 	0.57545 0.45255 0.41040 -0.08500
C 	C 	0.57564 0.48846 0.35270 -0.00900
C 	C 	0.65243 0.60957 0.47300 0.36900
C 	C 	0.59168 0.75022 0.16710 -0.03400
C 	C 	0.63294 0.82006 0.16960 0.01500
C 	C 	0.62767 0.88133 0.14080 -0.12200
C 	C 	0.58417 0.87473 0.10630 0.03600
C 	C 	0.54587 0.80603 0.10150 -0.08300
C 	C 	0.54863 0.74407 0.13130 -0.00700
C 	C 	0.66510 0.95330 0.15160 0.38700
C 	C 	0.07961 0.15099 0.26040 0.10600
C 	C 	0.10846 0.25114 0.18300 0.11200
C 	C 	0.03898 0.07532 0.31370 -0.02400
C 	C 	0.96235 0.01815 0.33270 0.00000
C 	C 	0.92578 0.94762 0.38380 -0.10100
C 	C 	0.96339 0.93231 0.41810 -0.00400
C 	C 	0.03970 0.98990 0.40060 -0.05400
C 	C 	0.07690 0.06040 0.34890 -0.03600
C 	C 	0.84610 0.88690 0.39760 0.34900
C 	C 	0.10218 0.30572 0.13770 -0.00400
C 	C 	0.13154 0.37916 0.13810 -0.01800
C 	C 	0.12479 0.43171 0.09910 -0.07000
C 	C 	0.09224 0.41396 0.05620 -0.00700
C 	C 	0.06560 0.34180 0.05400 -0.04500
C 	C 	0.07000 0.28750 0.09450 -0.03800
C 	C 	0.15623 0.51017 0.10020 0.31800
C 	C 	0.22685 0.78295 0.45760 0.10900
C 	C 	0.24442 0.70908 0.52410 0.10700
C 	C 	0.19391 0.81279 0.42070 -0.00700
C 	C 	0.11619 0.76891 0.43210 -0.01600
C 	C 	0.08630 0.79980 0.39650 -0.09100
C 	C 	0.13568 0.87372 0.34780 -0.00100
C 	C 	0.21284 0.91776 0.33680 -0.05300
C 	C 	0.24249 0.88811 0.37260 -0.03900
C 	C 	0.99918 0.75102 0.41600 0.36200
C 	C 	0.23269 0.64071 0.56760 -0.02500
C 	C 	0.21147 0.57623 0.54950 0.00200
C 	C 	0.20457 0.51173 0.58650 -0.11000
C 	C 	0.21756 0.50914 0.64390 0.01200
C 	C 	0.23950 0.57350 0.66200 -0.06500
C 	C 	0.24753 0.63897 0.62350 -0.02100
C 	C 	0.18838 0.44652 0.56070 0.39900
C 	C 	0.94839 0.96801 0.92940 0.10600
C 	C 	0.96110 0.89140 0.99790 0.10900
C 	C 	0.92277 0.01413 0.89850 -0.03600
C 	C 	0.87211 0.04441 0.93760 0.01300
C 	C 	0.85523 0.09027 0.90150 -0.11600
C 	C 	0.88904 0.10756 0.82580 0.02700
C 	C 	0.93932 0.07758 0.78670 -0.07900
C 	C 	0.95601 0.03209 0.82230 -0.01200
C 	C 	0.80346 0.12544 0.94270 0.40700
C 	C 	0.95090 0.83860 0.05790 -0.01200
C 	C 	0.90804 0.83350 0.13140 -0.00500
C 	C 	0.90715 0.78685 0.18420 -0.09000
C 	C 	0.94917 0.74493 0.16390 -0.00100
C 	C 	0.99039 0.74891 0.09090 -0.04800
C 	C 	0.99217 0.79613 0.03830 -0.03900
C 	C 	0.86506 0.78314 0.26260 0.38100
C 	C 	0.37951 0.86699 0.22050 0.11700
C 	C 	0.38830 0.79060 0.29270 0.11400
C 	C 	0.39884 0.93432 0.16720 -0.03400
C 	C 	0.47619 0.00011 0.12970 0.01700
C 	C 	0.49822 0.05728 0.07050 -0.12300
C 	C 	0.44125 0.04945 0.05050 0.03700
C 	C 	0.36295 0.98585 0.08960 -0.08700
C 	C 	0.34116 0.92834 0.14730 -0.00700
C 	C 	0.58257 0.12543 0.02700 0.37100
C 	C 	0.41732 0.75878 0.33290 -0.03400
C 	C 	0.48966 0.80254 0.33040 0.01500
C 	C 	0.52213 0.76847 0.35920 -0.12200
C 	C 	0.48103 0.69047 0.39370 0.03600
C 	C 	0.40753 0.64737 0.39850 -0.08300
C 	C 	0.37537 0.67993 0.36870 -0.00700
C 	C 	0.60490 0.81670 0.34840 0.38700
C 	C 	0.91139 0.34001 0.23960 0.10500
C 	C 	0.93414 0.29146 0.31700 0.11200
C 	C 	0.88902 0.35268 0.18630 -0.01900
C 	C 	0.85085 0.29505 0.16730 -0.00600
C 	C 	0.83142 0.30958 0.11620 -0.09800
C 	C 	0.85041 0.38149 0.08190 -0.00500
C 	C 	0.89050 0.44030 0.09940 -0.05300
C 	C 	0.90930 0.42580 0.15110 -0.03700
C 	C 	0.78450 0.24370 0.10240 0.34800
C 	C 	0.94342 0.23988 0.36230 -0.00100
C 	C 	0.01726 0.26964 0.36190 -0.02000
C 	C 	0.03081 0.22389 0.40090 -0.07000
C 	C 	0.97016 0.14844 0.44380 -0.00500
C 	C 	0.89580 0.11960 0.44600 -0.04400
C 	C 	0.88200 0.16450 0.40550 -0.03800
C 	C 	0.11037 0.25643 0.39980 0.31800
C 	C 	0.74055 0.68445 0.04240 0.11000
C 	C 	0.73318 0.76852 0.97590 0.10600
C 	C 	0.73349 0.61461 0.07930 -0.00700
C 	C 	0.70101 0.54829 0.06790 -0.01600
C 	C 	0.69630 0.48280 0.10350 -0.09100
C 	C 	0.72152 0.48348 0.15220 -0.00100
C 	C 	0.75456 0.54964 0.16320 -0.05300
C 	C 	0.76071 0.61509 0.12740 -0.03800
C 	C 	0.66702 0.41518 0.08400 0.36300
C 	C 	0.70831 0.80029 0.93240 -0.02500
C 	C 	0.62573 0.76097 0.95050 0.00200
C 	C 	0.59823 0.79107 0.91350 -0.10900
C 	C 	0.65304 0.86146 0.85610 0.01200
C 	C 	0.73550 0.90150 0.83800 -0.06400
C 	C 	0.76247 0.87103 0.87650 -0.02200
C 	C 	0.50722 0.74908 0.93930 0.39900
N 	N 	0.65269 0.09911 0.38560 -0.12200
N 	N 	0.65737 0.04803 0.42900 -0.12300
N 	N 	0.57364 0.08580 0.50080 -0.10400
N 	N 	0.52824 0.09868 0.56570 -0.26200
N 	N 	0.47402 0.43728 0.72830 -0.11600
N 	N 	0.47620 0.38624 0.77450 -0.11100
N 	N 	0.37435 0.32521 0.76120 -0.10800
N 	N 	0.29407 0.27227 0.77900 -0.24800
N 	N 	0.84859 0.79375 0.75610 -0.09300
N 	N 	0.83032 0.73014 0.80580 -0.10300
N 	N 	0.94827 0.82261 0.77770 -0.10700
N 	N 	0.02160 0.85880 0.77840 -0.21900
N 	N 	0.70219 0.17597 0.54820 -0.09500
N 	N 	0.69164 0.22292 0.50530 -0.09700
N 	N 	0.80863 0.28949 0.49750 -0.10700
N 	N 	0.89019 0.34883 0.47000 -0.24300
N 	N 	0.98471 0.03829 0.11440 -0.11900
N 	N 	0.97703 0.08637 0.07100 -0.11900
N 	N 	0.08660 0.07444 0.99920 -0.10000
N 	N 	0.16438 0.09394 0.93430 -0.26300
N 	N 	0.66558 0.20232 0.77170 -0.11600
N 	N 	0.66074 0.25070 0.72550 -0.11100
N 	N 	0.58641 0.13555 0.73880 -0.10800
N 	N 	0.55127 0.07307 0.72100 -0.24800
N 	N 	0.04985 0.60469 0.74390 -0.09300
N 	N 	0.03594 0.63612 0.69420 -0.10300
N 	N 	0.10031 0.72597 0.72230 -0.10600
N 	N 	0.13720 0.80000 0.72160 -0.22000
N 	N 	0.22417 0.25039 0.95180 -0.09500
N 	N 	0.22822 0.19694 0.99470 -0.09600
N 	N 	0.28699 0.30613 0.00250 -0.10800
N 	N 	0.31883 0.36019 0.03000 -0.24300
N 	N 	0.34731 0.90089 0.61440 -0.12200
N 	N 	0.34263 0.95197 0.57100 -0.12300
N 	N 	0.42636 0.91420 0.49920 -0.10400
N 	N 	0.47176 0.90132 0.43430 -0.26200
N 	N 	0.52598 0.56272 0.27170 -0.11600
N 	N 	0.52380 0.61376 0.22550 -0.11100
N 	N 	0.62565 0.67479 0.23880 -0.10800
N 	N 	0.70593 0.72773 0.22100 -0.24800
N 	N 	0.15141 0.20625 0.24390 -0.09300
N 	N 	0.16968 0.26986 0.19420 -0.10300
N 	N 	0.05173 0.17739 0.22230 -0.10700
N 	N 	0.97840 0.14120 0.22160 -0.21900
N 	N 	0.29781 0.82403 0.45180 -0.09500
N 	N 	0.30836 0.77708 0.49470 -0.09700
N 	N 	0.19137 0.71051 0.50250 -0.10700
N 	N 	0.10981 0.65117 0.53000 -0.24300
N 	N 	0.01529 0.96171 0.88560 -0.11900
N 	N 	0.02297 0.91363 0.92900 -0.11900
N 	N 	0.91340 0.92556 0.00080 -0.10000
N 	N 	0.83562 0.90606 0.06570 -0.26300
N 	N 	0.33442 0.79768 0.22830 -0.11600
N 	N 	0.33926 0.74930 0.27450 -0.11100
N 	N 	0.41359 0.86445 0.26120 -0.10800
N 	N 	0.44873 0.92693 0.27900 -0.24800
N 	N 	0.95015 0.39531 0.25610 -0.09300
N 	N 	0.96406 0.36388 0.30580 -0.10300
N 	N 	0.89969 0.27403 0.27770 -0.10600
N 	N 	0.86280 0.20000 0.27840 -0.22000
N 	N 	0.77583 0.74961 0.04820 -0.09500
N 	N 	0.77178 0.80306 0.00530 -0.09600
N 	N 	0.71301 0.69387 0.99750 -0.10800
N 	N 	0.68117 0.63981 0.97000 -0.24300
O 	O 	0.42755 0.30386 0.40751 -0.51600
O 	O 	0.37999 0.21269 0.50950 -0.47800
O 	O 	0.44280 0.81462 0.80214 -0.45300
O 	O 	0.40693 0.90298 0.78447 -0.44300
O 	O 	0.37197 0.42529 0.46326 -0.45600
O 	O 	0.29981 0.31802 0.55679 -0.58900
O 	O 	0.27829 0.03523 0.83596 -0.49300
O 	O 	0.36579 0.00317 0.84944 -0.45500
O 	O 	0.17726 0.18135 0.57301 -0.53100
O 	O 	0.19539 0.09436 0.62297 -0.43800
O 	O 	0.80010 0.47348 0.87120 -0.44800
O 	O 	0.86077 0.44531 0.92570 -0.29000
O 	O 	0.04444 0.31346 0.53270 -0.46600
O 	O 	0.02565 0.22397 0.61980 -0.43300
O 	O 	0.82772 0.61470 0.40050 -0.45500
O 	O 	0.80741 0.54109 0.49900 -0.50800
O 	O 	0.21411 0.31680 0.47197 -0.66700
O 	O 	0.21137 0.83506 0.09249 -0.51600
O 	O 	0.22219 0.88949 0.99050 -0.47500
O 	O 	0.11676 0.24494 0.69786 -0.45200
O 	O 	0.18745 0.19140 0.71553 -0.44200
O 	O 	0.38855 0.83523 0.03674 -0.45700
O 	O 	0.37481 0.85660 0.94321 -0.58900
O 	O 	0.37119 0.11425 0.66404 -0.49300
O 	O 	0.35261 0.21523 0.65056 -0.45500
O 	O 	0.25436 0.75027 0.92699 -0.53000
O 	O 	0.21733 0.81836 0.87703 -0.43700
O 	O 	0.84468 0.67130 0.62880 -0.44700
O 	O 	0.87101 0.78647 0.57430 -0.28900
O 	O 	0.34616 0.57714 0.96730 -0.46500
O 	O 	0.34377 0.64545 0.88020 -0.43300
O 	O 	0.51520 0.22822 0.09950 -0.45500
O 	O 	0.54009 0.30641 0.00100 -0.50700
O 	O 	0.28877 0.68608 0.02803 -0.66800
O 	O 	0.57245 0.69614 0.59249 -0.51600
O 	O 	0.62001 0.78731 0.49050 -0.47800
O 	O 	0.55720 0.18538 0.19786 -0.45300
O 	O 	0.59307 0.09702 0.21553 -0.44300
O 	O 	0.62803 0.57471 0.53674 -0.45600
O 	O 	0.70019 0.68198 0.44321 -0.58900
O 	O 	0.72171 0.96477 0.16404 -0.49300
O 	O 	0.63421 0.99683 0.15056 -0.45500
O 	O 	0.82274 0.81865 0.42699 -0.53100
O 	O 	0.80461 0.90564 0.37703 -0.43800
O 	O 	0.19990 0.52652 0.12880 -0.44800
O 	O 	0.13923 0.55469 0.07430 -0.29000
O 	O 	0.95556 0.68654 0.46730 -0.46600
O 	O 	0.97435 0.77603 0.38020 -0.43300
O 	O 	0.17228 0.38530 0.59950 -0.45500
O 	O 	0.19259 0.45891 0.50100 -0.50800
O 	O 	0.78589 0.68320 0.52803 -0.66700
O 	O 	0.78863 0.16494 0.90751 -0.51600
O 	O 	0.77781 0.11051 0.00950 -0.47500
O 	O 	0.88324 0.75506 0.30214 -0.45200
O 	O 	0.81255 0.80860 0.28447 -0.44200
O 	O 	0.61145 0.16477 0.96326 -0.45700
O 	O 	0.62519 0.14340 0.05679 -0.58900
O 	O 	0.62881 0.88575 0.33596 -0.49300
O 	O 	0.64739 0.78477 0.34944 -0.45500
O 	O 	0.74564 0.24973 0.07301 -0.53000
O 	O 	0.78267 0.18164 0.12297 -0.43700
O 	O 	0.15532 0.32870 0.37120 -0.44700
O 	O 	0.12899 0.21353 0.42570 -0.28900
O 	O 	0.65384 0.42286 0.03270 -0.46500
O 	O 	0.65623 0.35455 0.11980 -0.43300
O 	O 	0.48480 0.77178 0.90050 -0.45500
O 	O 	0.45991 0.69359 0.99900 -0.50700
O 	O 	0.71123 0.31392 0.97197 -0.66800
