data_crystal

_cell_length_a 12.96490
_cell_length_b 16.24390
_cell_length_c 22.57360
_cell_angle_alpha 106.40400
_cell_angle_beta  90.00000
_cell_angle_gamma 90.00000

_symmetry_space_group_name_	'P 1'
_symmetry_space_group_name_H-M	'P 1'

loop_
_symmetry_equiv_pos_as_xyz
  x,y,z

loop_
_atom_site_label
_atom_site_type_symbol
_atom_site_fract_x
_atom_site_fract_y
_atom_site_fract_z
_atom_site_charge
Cd	Cd	0.64739 0.19802 0.13997 1.24600
Cd	Cd	0.56540 0.42100 0.21351 1.20200
Cd	Cd	0.14739 0.80198 0.36003 1.24600
Cd	Cd	0.06540 0.57900 0.28649 1.20200
Cd	Cd	0.35261 0.80198 0.86003 1.24600
Cd	Cd	0.43460 0.57900 0.78649 1.20200
Cd	Cd	0.85261 0.19802 0.63997 1.24600
Cd	Cd	0.93460 0.42100 0.71351 1.20200
H 	H 	0.69900 0.33150 0.10870 0.48200
H 	H 	0.74940 0.34560 0.16310 0.46700
H 	H 	0.33180 0.11870 0.09090 0.00900
H 	H 	0.16150 0.08080 0.06720 0.10300
H 	H 	0.25100 0.36310 0.12090 -0.00600
H 	H 	0.01150 0.27640 0.97720 0.10000
H 	H 	0.99510 0.34400 0.89970 -0.00500
H 	H 	0.95810 0.11450 0.77900 0.00900
H 	H 	0.05050 0.32710 0.24590 -0.00900
H 	H 	0.09500 0.03800 0.20840 0.10200
H 	H 	0.93560 0.09080 0.19110 0.01700
H 	H 	0.27950 0.82690 0.20030 0.09800
H 	H 	0.27640 0.74030 0.09890 0.01000
H 	H 	0.29170 0.95130 0.04280 0.02100
H 	H 	0.77890 0.03350 0.08490 -0.02000
H 	H 	0.78230 0.88800 0.06300 0.13000
H 	H 	0.50150 0.89630 0.13730 0.13300
H 	H 	0.50440 0.04270 0.15640 -0.01900
H 	H 	0.63810 0.75870 0.11560 0.16100
H 	H 	0.70100 0.75470 0.05550 0.15400
H 	H 	0.53920 0.76910 0.00700 -0.02000
H 	H 	0.48470 0.75470 0.06520 -0.02700
H 	H 	0.48750 0.62690 0.98390 0.16100
H 	H 	0.60840 0.62940 0.98310 0.15200
H 	H 	0.70460 0.57160 0.05380 0.12500
H 	H 	0.70680 0.49990 0.12750 -0.04800
H 	H 	0.41010 0.52610 0.14990 -0.04700
H 	H 	0.40090 0.59960 0.07750 0.13400
H 	H 	0.19900 0.66850 0.39130 0.48200
H 	H 	0.24940 0.65440 0.33690 0.46700
H 	H 	0.83180 0.88130 0.40910 0.00900
H 	H 	0.66150 0.91920 0.43280 0.10300
H 	H 	0.75100 0.63690 0.37910 -0.00500
H 	H 	0.51150 0.72360 0.52280 0.09800
H 	H 	0.49510 0.65600 0.60030 -0.00400
H 	H 	0.45810 0.88550 0.72100 0.01000
H 	H 	0.55050 0.67290 0.25410 -0.00900
H 	H 	0.59500 0.96200 0.29160 0.10200
H 	H 	0.43560 0.90920 0.30890 0.01700
H 	H 	0.77950 0.17310 0.29970 0.09700
H 	H 	0.77640 0.25970 0.40110 0.01000
H 	H 	0.79170 0.04870 0.45720 0.02000
H 	H 	0.27890 0.96650 0.41510 -0.02000
H 	H 	0.28230 0.11200 0.43700 0.13000
H 	H 	0.00150 0.10370 0.36270 0.13300
H 	H 	0.00440 0.95730 0.34360 -0.02000
H 	H 	0.13810 0.24130 0.38440 0.16200
H 	H 	0.20100 0.24530 0.44450 0.15500
H 	H 	0.03920 0.23090 0.49300 -0.02000
H 	H 	0.98470 0.24530 0.43480 -0.02800
H 	H 	0.98750 0.37310 0.51610 0.16100
H 	H 	0.10840 0.37060 0.51690 0.15300
H 	H 	0.20460 0.42840 0.44620 0.12500
H 	H 	0.20680 0.50010 0.37250 -0.04800
H 	H 	0.91010 0.47390 0.35010 -0.04700
H 	H 	0.90090 0.40040 0.42250 0.13400
H 	H 	0.30100 0.66850 0.89130 0.48200
H 	H 	0.25060 0.65440 0.83690 0.46700
H 	H 	0.66820 0.88130 0.90910 0.00900
H 	H 	0.83850 0.91920 0.93280 0.10300
H 	H 	0.74900 0.63690 0.87910 -0.00600
H 	H 	0.98850 0.72360 0.02280 0.10000
H 	H 	0.00490 0.65600 0.10030 -0.00500
H 	H 	0.04190 0.88550 0.22100 0.00900
H 	H 	0.94950 0.67290 0.75410 -0.00900
H 	H 	0.90500 0.96200 0.79160 0.10200
H 	H 	0.06440 0.90920 0.80890 0.01700
H 	H 	0.72050 0.17310 0.79970 0.09800
H 	H 	0.72360 0.25970 0.90110 0.01000
H 	H 	0.70830 0.04870 0.95720 0.02100
H 	H 	0.22110 0.96650 0.91510 -0.02000
H 	H 	0.21770 0.11200 0.93700 0.13000
H 	H 	0.49850 0.10370 0.86270 0.13300
H 	H 	0.49560 0.95730 0.84360 -0.01900
H 	H 	0.36190 0.24130 0.88440 0.16100
H 	H 	0.29900 0.24530 0.94450 0.15400
H 	H 	0.46080 0.23090 0.99300 -0.02000
H 	H 	0.51530 0.24530 0.93480 -0.02700
H 	H 	0.51250 0.37310 0.01610 0.16100
H 	H 	0.39160 0.37060 0.01690 0.15200
H 	H 	0.29540 0.42840 0.94620 0.12500
H 	H 	0.29320 0.50010 0.87250 -0.04800
H 	H 	0.58990 0.47390 0.85010 -0.04700
H 	H 	0.59910 0.40040 0.92250 0.13400
H 	H 	0.80100 0.33150 0.60870 0.48200
H 	H 	0.75060 0.34560 0.66310 0.46700
H 	H 	0.16820 0.11870 0.59090 0.00900
H 	H 	0.33850 0.08080 0.56720 0.10300
H 	H 	0.24900 0.36310 0.62090 -0.00500
H 	H 	0.48850 0.27640 0.47720 0.09800
H 	H 	0.50490 0.34400 0.39970 -0.00400
H 	H 	0.54190 0.11450 0.27900 0.01000
H 	H 	0.44950 0.32710 0.74590 -0.00900
H 	H 	0.40500 0.03800 0.70840 0.10200
H 	H 	0.56440 0.09080 0.69110 0.01700
H 	H 	0.22050 0.82690 0.70030 0.09700
H 	H 	0.22360 0.74030 0.59890 0.01000
H 	H 	0.20830 0.95130 0.54280 0.02000
H 	H 	0.72110 0.03350 0.58490 -0.02000
H 	H 	0.71770 0.88800 0.56300 0.13000
H 	H 	0.99850 0.89630 0.63730 0.13300
H 	H 	0.99560 0.04270 0.65640 -0.02000
H 	H 	0.86190 0.75870 0.61560 0.16200
H 	H 	0.79900 0.75470 0.55550 0.15500
H 	H 	0.96080 0.76910 0.50700 -0.02000
H 	H 	0.01530 0.75470 0.56520 -0.02800
H 	H 	0.01250 0.62690 0.48390 0.16100
H 	H 	0.89160 0.62940 0.48310 0.15300
H 	H 	0.79540 0.57160 0.55380 0.12500
H 	H 	0.79320 0.49990 0.62750 -0.04800
H 	H 	0.08990 0.52610 0.64990 -0.04700
H 	H 	0.09910 0.59960 0.57750 0.13400
C 	C 	0.42000 0.27380 0.12729 0.42500
C 	C 	0.31030 0.24630 0.10875 -0.17400
C 	C 	0.28260 0.16070 0.09198 0.10700
C 	C 	0.18190 0.13800 0.07697 -0.17600
C 	C 	0.11180 0.20150 0.07665 0.11500
C 	C 	0.23380 0.30520 0.10855 0.10100
C 	C 	0.98830 0.15680 0.92058 0.11900
C 	C 	0.99860 0.24490 0.93663 -0.18700
C 	C 	0.98910 0.28470 0.89056 0.11200
C 	C 	0.97060 0.23590 0.83040 -0.18600
C 	C 	0.96730 0.14790 0.81957 0.11300
C 	C 	0.94840 0.27380 0.77833 0.43800
C 	C 	0.87290 0.25050 0.20387 0.36900
C 	C 	0.97500 0.21610 0.21759 -0.15700
C 	C 	0.05900 0.26830 0.23877 0.10400
C 	C 	0.16250 0.15490 0.23833 0.10900
C 	C 	0.08420 0.09670 0.21615 -0.16400
C 	C 	0.98990 0.12830 0.20594 0.08800
C 	C 	0.28540 0.93910 0.17731 0.10800
C 	C 	0.28130 0.85080 0.16736 -0.16500
C 	C 	0.28000 0.79970 0.10724 0.08400
C 	C 	0.28400 0.83720 0.05904 -0.14200
C 	C 	0.28860 0.92570 0.07475 0.08700
C 	C 	0.28590 0.78660 0.99191 0.36200
C 	C 	0.72190 0.00550 0.09503 0.15000
C 	C 	0.72420 0.91780 0.08170 -0.26900
C 	C 	0.64140 0.87320 0.09560 0.26300
C 	C 	0.55840 0.92270 0.12542 -0.26300
C 	C 	0.56100 0.01100 0.13715 0.14900
C 	C 	0.63890 0.77720 0.07830 -0.41900
C 	C 	0.54570 0.74090 0.03942 0.20300
C 	C 	0.54830 0.64380 0.00954 -0.42000
C 	C 	0.55160 0.59460 0.05657 0.26900
C 	C 	0.64340 0.56350 0.07288 -0.28700
C 	C 	0.64410 0.52040 0.11737 0.15400
C 	C 	0.47040 0.53590 0.13061 0.15400
C 	C 	0.46440 0.57970 0.08679 -0.28900
C 	C 	0.92000 0.72620 0.37271 0.42500
C 	C 	0.81030 0.75370 0.39125 -0.17300
C 	C 	0.78260 0.83930 0.40802 0.10700
C 	C 	0.68190 0.86200 0.42303 -0.17600
C 	C 	0.61180 0.79850 0.42335 0.11400
C 	C 	0.73380 0.69480 0.39145 0.10100
C 	C 	0.48830 0.84320 0.57942 0.11700
C 	C 	0.49860 0.75510 0.56337 -0.18300
C 	C 	0.48910 0.71530 0.60944 0.11000
C 	C 	0.47060 0.76410 0.66960 -0.18500
C 	C 	0.46730 0.85210 0.68043 0.11300
C 	C 	0.44840 0.72620 0.72167 0.43800
C 	C 	0.37290 0.74950 0.29613 0.37000
C 	C 	0.47500 0.78390 0.28241 -0.15700
C 	C 	0.55900 0.73170 0.26123 0.10300
C 	C 	0.66250 0.84510 0.26167 0.10900
C 	C 	0.58420 0.90330 0.28385 -0.16500
C 	C 	0.48990 0.87170 0.29406 0.08900
C 	C 	0.78540 0.06090 0.32269 0.10700
C 	C 	0.78130 0.14920 0.33264 -0.16400
C 	C 	0.78000 0.20030 0.39276 0.08300
C 	C 	0.78400 0.16280 0.44096 -0.14200
C 	C 	0.78860 0.07430 0.42525 0.08700
C 	C 	0.78590 0.21340 0.50809 0.36200
C 	C 	0.22190 0.99450 0.40497 0.15200
C 	C 	0.22420 0.08220 0.41830 -0.27100
C 	C 	0.14140 0.12680 0.40440 0.26400
C 	C 	0.05840 0.07730 0.37458 -0.26400
C 	C 	0.06100 0.98900 0.36285 0.14900
C 	C 	0.13890 0.22280 0.42170 -0.42100
C 	C 	0.04570 0.25910 0.46058 0.20600
C 	C 	0.04830 0.35620 0.49046 -0.42200
C 	C 	0.05160 0.40540 0.44343 0.27100
C 	C 	0.14340 0.43650 0.42712 -0.28800
C 	C 	0.14410 0.47960 0.38263 0.15400
C 	C 	0.97040 0.46410 0.36939 0.15500
C 	C 	0.96440 0.42030 0.41321 -0.29000
C 	C 	0.58000 0.72620 0.87271 0.42500
C 	C 	0.68970 0.75370 0.89125 -0.17400
C 	C 	0.71740 0.83930 0.90802 0.10700
C 	C 	0.81810 0.86200 0.92303 -0.17600
C 	C 	0.88820 0.79850 0.92335 0.11500
C 	C 	0.76620 0.69480 0.89145 0.10100
C 	C 	0.01170 0.84320 0.07942 0.11900
C 	C 	0.00140 0.75510 0.06337 -0.18700
C 	C 	0.01090 0.71530 0.10944 0.11200
C 	C 	0.02940 0.76410 0.16960 -0.18600
C 	C 	0.03270 0.85210 0.18043 0.11300
C 	C 	0.05160 0.72620 0.22167 0.43800
C 	C 	0.12710 0.74950 0.79613 0.36900
C 	C 	0.02500 0.78390 0.78241 -0.15700
C 	C 	0.94100 0.73170 0.76123 0.10400
C 	C 	0.83750 0.84510 0.76167 0.10900
C 	C 	0.91580 0.90330 0.78385 -0.16400
C 	C 	0.01010 0.87170 0.79406 0.08800
C 	C 	0.71460 0.06090 0.82269 0.10800
C 	C 	0.71870 0.14920 0.83264 -0.16500
C 	C 	0.72000 0.20030 0.89276 0.08400
C 	C 	0.71600 0.16280 0.94096 -0.14200
C 	C 	0.71140 0.07430 0.92525 0.08700
C 	C 	0.71410 0.21340 0.00809 0.36200
C 	C 	0.27810 0.99450 0.90497 0.15000
C 	C 	0.27580 0.08220 0.91830 -0.26900
C 	C 	0.35860 0.12680 0.90440 0.26300
C 	C 	0.44160 0.07730 0.87458 -0.26300
C 	C 	0.43900 0.98900 0.86285 0.14900
C 	C 	0.36110 0.22280 0.92170 -0.41900
C 	C 	0.45430 0.25910 0.96058 0.20300
C 	C 	0.45170 0.35620 0.99046 -0.42000
C 	C 	0.44840 0.40540 0.94343 0.26900
C 	C 	0.35660 0.43650 0.92712 -0.28700
C 	C 	0.35590 0.47960 0.88263 0.15400
C 	C 	0.52960 0.46410 0.86939 0.15400
C 	C 	0.53560 0.42030 0.91321 -0.28900
C 	C 	0.08000 0.27380 0.62729 0.42500
C 	C 	0.18970 0.24630 0.60875 -0.17300
C 	C 	0.21740 0.16070 0.59198 0.10700
C 	C 	0.31810 0.13800 0.57697 -0.17600
C 	C 	0.38820 0.20150 0.57665 0.11400
C 	C 	0.26620 0.30520 0.60855 0.10100
C 	C 	0.51170 0.15680 0.42058 0.11700
C 	C 	0.50140 0.24490 0.43663 -0.18300
C 	C 	0.51090 0.28470 0.39056 0.11000
C 	C 	0.52940 0.23590 0.33040 -0.18500
C 	C 	0.53270 0.14790 0.31957 0.11300
C 	C 	0.55160 0.27380 0.27833 0.43800
C 	C 	0.62710 0.25050 0.70387 0.37000
C 	C 	0.52500 0.21610 0.71759 -0.15700
C 	C 	0.44100 0.26830 0.73877 0.10300
C 	C 	0.33750 0.15490 0.73833 0.10900
C 	C 	0.41580 0.09670 0.71615 -0.16500
C 	C 	0.51010 0.12830 0.70594 0.08900
C 	C 	0.21460 0.93910 0.67731 0.10700
C 	C 	0.21870 0.85080 0.66736 -0.16400
C 	C 	0.22000 0.79970 0.60724 0.08300
C 	C 	0.21600 0.83720 0.55904 -0.14200
C 	C 	0.21140 0.92570 0.57475 0.08700
C 	C 	0.21410 0.78660 0.49191 0.36200
C 	C 	0.77810 0.00550 0.59503 0.15200
C 	C 	0.77580 0.91780 0.58170 -0.27100
C 	C 	0.85860 0.87320 0.59560 0.26400
C 	C 	0.94160 0.92270 0.62542 -0.26400
C 	C 	0.93900 0.01100 0.63715 0.14900
C 	C 	0.86110 0.77720 0.57830 -0.42100
C 	C 	0.95430 0.74090 0.53942 0.20600
C 	C 	0.95170 0.64380 0.50954 -0.42200
C 	C 	0.94840 0.59460 0.55657 0.27100
C 	C 	0.85660 0.56350 0.57288 -0.28800
C 	C 	0.85590 0.52040 0.61737 0.15400
C 	C 	0.02960 0.53590 0.63061 0.15500
C 	C 	0.03560 0.57970 0.58679 -0.29000
S 	S 	0.98767 0.09216 0.97276 -0.02700
S 	S 	0.97916 0.17725 0.05823 -0.02700
S 	S 	0.28133 0.00378 0.25579 -0.02800
S 	S 	0.29111 0.12691 0.25249 -0.01200
S 	S 	0.48767 0.90784 0.52724 -0.02600
S 	S 	0.47916 0.82275 0.44177 -0.02600
S 	S 	0.78133 0.99622 0.24421 -0.02600
S 	S 	0.79111 0.87309 0.24751 -0.01200
S 	S 	0.01233 0.90784 0.02724 -0.02700
S 	S 	0.02084 0.82275 0.94177 -0.02700
S 	S 	0.71867 0.99622 0.74421 -0.02800
S 	S 	0.70889 0.87309 0.74751 -0.01200
S 	S 	0.51233 0.09216 0.47276 -0.02600
S 	S 	0.52084 0.17725 0.55823 -0.02600
S 	S 	0.21867 0.00378 0.75579 -0.02600
S 	S 	0.20889 0.12691 0.75249 -0.01200
N 	N 	0.13640 0.28400 0.09170 -0.15300
N 	N 	0.97630 0.10778 0.86280 -0.14600
N 	N 	0.15180 0.23995 0.24972 -0.14600
N 	N 	0.28900 0.97723 0.13250 -0.13900
N 	N 	0.64070 0.05266 0.12221 -0.25100
N 	N 	0.55970 0.50653 0.14668 -0.27400
N 	N 	0.63640 0.71600 0.40830 -0.15200
N 	N 	0.47630 0.89222 0.63720 -0.14600
N 	N 	0.65180 0.76005 0.25028 -0.14600
N 	N 	0.78900 0.02277 0.36750 -0.14000
N 	N 	0.14070 0.94734 0.37779 -0.25100
N 	N 	0.05970 0.49347 0.35332 -0.27400
N 	N 	0.86360 0.71600 0.90830 -0.15300
N 	N 	0.02370 0.89222 0.13720 -0.14600
N 	N 	0.84820 0.76005 0.75028 -0.14600
N 	N 	0.71100 0.02277 0.86750 -0.13900
N 	N 	0.35930 0.94734 0.87779 -0.25100
N 	N 	0.44030 0.49347 0.85332 -0.27400
N 	N 	0.36360 0.28400 0.59170 -0.15200
N 	N 	0.52370 0.10778 0.36280 -0.14600
N 	N 	0.34820 0.23995 0.74972 -0.14600
N 	N 	0.21100 0.97723 0.63250 -0.14000
N 	N 	0.85930 0.05266 0.62221 -0.25100
N 	N 	0.94030 0.50653 0.64668 -0.27400
O 	O 	0.43080 0.34830 0.16230 -0.46100
O 	O 	0.48940 0.22255 0.10489 -0.43700
O 	O 	0.94010 0.35155 0.78850 -0.47600
O 	O 	0.94210 0.22040 0.72631 -0.46000
O 	O 	0.80030 0.19775 0.19075 -0.41700
O 	O 	0.86640 0.32883 0.20658 -0.35700
O 	O 	0.28220 0.83074 0.95448 -0.41600
O 	O 	0.29000 0.70635 0.97763 -0.33500
O 	O 	0.69290 0.34169 0.14623 -1.14100
O 	O 	0.93080 0.65170 0.33770 -0.46000
O 	O 	0.98940 0.77745 0.39511 -0.43600
O 	O 	0.44010 0.64845 0.71150 -0.47600
O 	O 	0.44210 0.77960 0.77369 -0.46000
O 	O 	0.30030 0.80225 0.30925 -0.41700
O 	O 	0.36640 0.67117 0.29342 -0.35700
O 	O 	0.78220 0.16926 0.54552 -0.41600
O 	O 	0.79000 0.29365 0.52237 -0.33500
O 	O 	0.19290 0.65831 0.35377 -1.14100
O 	O 	0.56920 0.65170 0.83770 -0.46100
O 	O 	0.51060 0.77745 0.89511 -0.43700
O 	O 	0.05990 0.64845 0.21150 -0.47600
O 	O 	0.05790 0.77960 0.27369 -0.46000
O 	O 	0.19970 0.80225 0.80925 -0.41700
O 	O 	0.13360 0.67117 0.79342 -0.35700
O 	O 	0.71780 0.16926 0.04552 -0.41600
O 	O 	0.71000 0.29365 0.02237 -0.33500
O 	O 	0.30710 0.65831 0.85377 -1.14100
O 	O 	0.06920 0.34830 0.66230 -0.46000
O 	O 	0.01060 0.22255 0.60489 -0.43600
O 	O 	0.55990 0.35155 0.28850 -0.47600
O 	O 	0.55790 0.22040 0.22631 -0.46000
O 	O 	0.69970 0.19775 0.69075 -0.41700
O 	O 	0.63360 0.32883 0.70658 -0.35700
O 	O 	0.21780 0.83074 0.45448 -0.41600
O 	O 	0.21000 0.70635 0.47763 -0.33500
O 	O 	0.80710 0.34169 0.64623 -1.14100
