data_crystal

_cell_length_a 15.43900
_cell_length_b 10.75800
_cell_length_c 28.81000
_cell_angle_alpha 90.00000
_cell_angle_beta  90.73000
_cell_angle_gamma 90.00000

_symmetry_space_group_name_	'P 1'
_symmetry_space_group_name_H-M	'P 1'

loop_
_symmetry_equiv_pos_as_xyz
  x,y,z

loop_
_atom_site_label
_atom_site_type_symbol
_atom_site_fract_x
_atom_site_fract_y
_atom_site_fract_z
_atom_site_charge
C 	C 	0.50280 0.27200 0.47150 0.10300
H 	H 	0.46710 0.34140 0.46920 -0.01900
C 	C 	0.46860 0.16610 0.48760 -0.14700
H 	H 	0.41100 0.16420 0.49680 0.09200
C 	C 	0.51850 0.05980 0.49070 0.07300
C 	C 	0.60280 0.07030 0.47720 -0.13000
H 	H 	0.63910 0.00130 0.47870 0.09400
C 	C 	0.63390 0.17980 0.46190 0.10200
H 	H 	0.69160 0.18380 0.45310 0.00100
C 	C 	0.52450 0.63670 0.42020 0.37500
C 	C 	0.50000 0.75980 0.40000 -0.13400
C 	C 	0.55850 0.82790 0.37470 0.06100
H 	H 	0.61310 0.79510 0.36900 0.00300
C 	C 	0.53730 0.94360 0.35770 0.04500
C 	C 	0.45760 0.99390 0.36730 0.09600
H 	H 	0.44400 0.07380 0.35720 0.07900
C 	C 	0.39730 0.92560 0.39190 -0.13700
C 	C 	0.41820 0.80680 0.40740 0.08300
H 	H 	0.37710 0.75910 0.42260 0.04700
C 	C 	0.67370 0.03200 0.33650 3.23800
C 	C 	0.71930 0.10630 0.30170 0.57900
C 	C 	0.79400 0.16600 0.31740 3.29500
H 	H 	0.81150 0.15840 0.34830 -1.14200
C 	C 	0.84240 0.23700 0.28690 -0.00700
H 	H 	0.89240 0.27700 0.29740 0.28800
C 	C 	0.81620 0.24800 0.24080 0.18300
H 	H 	0.84870 0.29590 0.22040 2.54700
C 	C 	0.74160 0.18870 0.22510 -0.50500
H 	H 	0.72400 0.19620 0.19420 0.14800
C 	C 	0.69310 0.11760 0.25560 -0.69000
H 	H 	0.64320 0.07760 0.24510 -0.46300
N 	N 	0.58540 0.28350 0.45860 -0.27900
N 	N 	0.59830 0.01240 0.33130 0.93900
C 	C 	0.31030 0.97930 0.40440 0.40100
O 	O 	0.25750 0.90610 0.42009 -0.49300
O 	O 	0.60500 0.61590 0.42260 -0.48000
O 	O 	0.47030 0.56470 0.43300 -0.34900
O 	O 	0.71170 0.98670 0.36960 -0.73700
O 	O 	0.29940 0.09180 0.39650 -0.31700
Zn	Zn	0.63857 0.44552 0.43449 1.19400
O 	O 	0.53450 0.05510 0.26830 -0.58800
C 	C 	0.60100 0.05790 0.29180 4.25300
C 	C 	0.68100 0.12160 0.27430 -0.57200
C 	C 	0.69090 0.13290 0.22660 2.00400
H 	H 	0.64970 0.09910 0.20640 -0.59200
C 	C 	0.76240 0.19500 0.20900 -0.72500
H 	H 	0.76900 0.20220 0.17710 0.17000
C 	C 	0.82400 0.24500 0.23910 0.08300
H 	H 	0.87190 0.28650 0.22740 -2.61600
C 	C 	0.81410 0.23400 0.28680 -0.49800
H 	H 	0.85540 0.26770 0.30700 -0.21100
C 	C 	0.74260 0.17210 0.30440 -2.96100
H 	H 	0.73600 0.16460 0.33630 0.10800
H 	H 	0.57640 0.04720 0.30620 -3.19700
H 	H 	0.64490 0.02830 0.34660 -2.69600
C 	C 	0.00280 0.77200 0.47150 0.13000
H 	H 	0.96710 0.84140 0.46920 -0.03100
C 	C 	0.96860 0.66610 0.48760 -0.18200
H 	H 	0.91100 0.66420 0.49680 0.10400
C 	C 	0.01850 0.55980 0.49070 0.10400
C 	C 	0.10280 0.57030 0.47720 -0.15000
H 	H 	0.13910 0.50130 0.47870 0.10100
C 	C 	0.13390 0.67980 0.46190 0.11400
H 	H 	0.19160 0.68380 0.45310 -0.00300
C 	C 	0.02450 0.13670 0.42020 0.37700
C 	C 	0.00000 0.25980 0.40000 -0.12600
C 	C 	0.05850 0.32790 0.37470 0.05400
H 	H 	0.11310 0.29510 0.36900 0.00500
C 	C 	0.03730 0.44360 0.35770 0.05300
C 	C 	0.95760 0.49390 0.36730 0.08000
H 	H 	0.94400 0.57380 0.35720 0.08500
C 	C 	0.89730 0.42560 0.39190 -0.12900
C 	C 	0.91820 0.30680 0.40740 0.07100
H 	H 	0.87710 0.25910 0.42260 0.05000
C 	C 	0.17370 0.53200 0.33650 3.23700
C 	C 	0.21930 0.60630 0.30170 0.58100
C 	C 	0.29400 0.66600 0.31740 3.29100
H 	H 	0.31150 0.65840 0.34830 -1.14000
C 	C 	0.34240 0.73700 0.28690 -0.00500
H 	H 	0.39240 0.77700 0.29740 0.29100
C 	C 	0.31620 0.74800 0.24080 0.18200
H 	H 	0.34870 0.79590 0.22040 2.56100
C 	C 	0.24160 0.68870 0.22510 -0.50500
H 	H 	0.22400 0.69620 0.19420 0.14700
C 	C 	0.19310 0.61760 0.25560 -0.69100
H 	H 	0.14320 0.57760 0.24510 -0.46200
N 	N 	0.08540 0.78350 0.45860 -0.28500
N 	N 	0.09830 0.51240 0.33130 0.93800
C 	C 	0.81030 0.47930 0.40440 0.39600
O 	O 	0.75750 0.40610 0.42009 -0.49200
O 	O 	0.10500 0.11590 0.42260 -0.48100
O 	O 	0.97030 0.06470 0.43300 -0.35300
O 	O 	0.21170 0.48670 0.36960 -0.73900
O 	O 	0.79940 0.59180 0.39650 -0.31500
Zn	Zn	0.13857 0.94552 0.43449 1.19500
O 	O 	0.03450 0.55510 0.26830 -0.58700
C 	C 	0.10100 0.55790 0.29180 4.25700
C 	C 	0.18100 0.62160 0.27430 -0.57300
C 	C 	0.19090 0.63290 0.22660 2.00700
H 	H 	0.14970 0.59910 0.20640 -0.59200
C 	C 	0.26240 0.69500 0.20900 -0.72500
H 	H 	0.26900 0.70220 0.17710 0.17000
C 	C 	0.32400 0.74500 0.23910 0.08100
H 	H 	0.37190 0.78650 0.22740 -2.62800
C 	C 	0.31410 0.73400 0.28680 -0.49500
H 	H 	0.35540 0.76770 0.30700 -0.21400
C 	C 	0.24260 0.67210 0.30440 -2.96000
H 	H 	0.23600 0.66460 0.33630 0.10900
H 	H 	0.07640 0.54720 0.30620 -3.19900
H 	H 	0.14490 0.52830 0.34660 -2.69500
C 	C 	0.49720 0.27200 0.02850 0.10300
H 	H 	0.53290 0.34140 0.03080 -0.01900
C 	C 	0.53140 0.16610 0.01240 -0.14700
H 	H 	0.58900 0.16420 0.00320 0.09200
C 	C 	0.48150 0.05980 0.00930 0.07400
C 	C 	0.39720 0.07030 0.02280 -0.13000
H 	H 	0.36090 0.00130 0.02130 0.09400
C 	C 	0.36610 0.17980 0.03810 0.10200
H 	H 	0.30840 0.18380 0.04690 0.00100
C 	C 	0.47550 0.63670 0.07980 0.37500
C 	C 	0.50000 0.75980 0.10000 -0.13400
C 	C 	0.44150 0.82790 0.12530 0.06100
H 	H 	0.38690 0.79510 0.13100 0.00300
C 	C 	0.46270 0.94360 0.14230 0.04500
C 	C 	0.54240 0.99390 0.13270 0.09700
H 	H 	0.55600 0.07380 0.14280 0.07900
C 	C 	0.60270 0.92560 0.10810 -0.13800
C 	C 	0.58180 0.80680 0.09260 0.08300
H 	H 	0.62290 0.75910 0.07740 0.04700
C 	C 	0.32630 0.03200 0.16350 3.23800
C 	C 	0.28070 0.10630 0.19830 0.57900
C 	C 	0.20600 0.16600 0.18260 3.29000
H 	H 	0.18850 0.15840 0.15170 -1.14000
C 	C 	0.15760 0.23700 0.21310 -0.00500
H 	H 	0.10760 0.27700 0.20260 0.29200
C 	C 	0.18380 0.24800 0.25920 0.18200
H 	H 	0.15130 0.29590 0.27960 2.56900
C 	C 	0.25840 0.18870 0.27490 -0.50400
H 	H 	0.27600 0.19620 0.30580 0.14700
C 	C 	0.30690 0.11760 0.24440 -0.69000
H 	H 	0.35680 0.07760 0.25490 -0.46200
N 	N 	0.41460 0.28350 0.04140 -0.27900
N 	N 	0.40170 0.01240 0.16870 0.93900
C 	C 	0.68970 0.97930 0.09560 0.40200
O 	O 	0.74250 0.90610 0.07991 -0.49400
O 	O 	0.39500 0.61590 0.07740 -0.48000
O 	O 	0.52970 0.56470 0.06700 -0.34900
O 	O 	0.28830 0.98670 0.13040 -0.73700
O 	O 	0.70060 0.09180 0.10350 -0.31800
Zn	Zn	0.36143 0.44552 0.06551 1.19400
O 	O 	0.46550 0.05510 0.23170 -0.58800
C 	C 	0.39900 0.05790 0.20820 4.25300
C 	C 	0.31900 0.12160 0.22570 -0.57200
C 	C 	0.30910 0.13290 0.27340 2.00400
H 	H 	0.35030 0.09910 0.29360 -0.59200
C 	C 	0.23760 0.19500 0.29100 -0.72400
H 	H 	0.23100 0.20220 0.32290 0.17000
C 	C 	0.17600 0.24500 0.26090 0.07900
H 	H 	0.12810 0.28650 0.27260 -2.63600
C 	C 	0.18590 0.23400 0.21320 -0.49300
H 	H 	0.14460 0.26770 0.19300 -0.21500
C 	C 	0.25740 0.17210 0.19560 -2.95900
H 	H 	0.26400 0.16460 0.16370 0.10900
H 	H 	0.42360 0.04720 0.19380 -3.19700
H 	H 	0.35510 0.02830 0.15340 -2.69600
C 	C 	0.99720 0.77200 0.02850 0.06900
H 	H 	0.03290 0.84140 0.03080 -0.00500
C 	C 	0.03140 0.66610 0.01240 -0.10700
H 	H 	0.08900 0.66420 0.00320 0.07800
C 	C 	0.98150 0.55980 0.00930 0.04000
C 	C 	0.89720 0.57030 0.02280 -0.10700
H 	H 	0.86090 0.50130 0.02130 0.08500
C 	C 	0.86610 0.67980 0.03810 0.08800
H 	H 	0.80840 0.68380 0.04690 0.00600
C 	C 	0.97550 0.13670 0.07980 0.36200
C 	C 	0.00000 0.25980 0.10000 -0.12000
C 	C 	0.94150 0.32790 0.12530 0.04900
H 	H 	0.88690 0.29510 0.13100 0.00700
C 	C 	0.96270 0.44360 0.14230 0.04400
C 	C 	0.04240 0.49390 0.13270 0.09300
H 	H 	0.05600 0.57380 0.14280 0.08200
C 	C 	0.10270 0.42560 0.10810 -0.13200
C 	C 	0.08180 0.30680 0.09260 0.07500
H 	H 	0.12290 0.25910 0.07740 0.05000
C 	C 	0.82630 0.53200 0.16350 3.22000
C 	C 	0.78070 0.60630 0.19830 0.57700
C 	C 	0.70600 0.66600 0.18260 3.27100
H 	H 	0.68850 0.65840 0.15170 -1.13300
C 	C 	0.65760 0.73700 0.21310 -0.00400
H 	H 	0.60760 0.77700 0.20260 0.29000
C 	C 	0.68380 0.74800 0.25920 0.18000
H 	H 	0.65130 0.79590 0.27960 2.55700
C 	C 	0.75840 0.68870 0.27490 -0.50200
H 	H 	0.77600 0.69620 0.30580 0.14600
C 	C 	0.80690 0.61760 0.24440 -0.68800
H 	H 	0.85680 0.57760 0.25490 -0.45900
N 	N 	0.91460 0.78350 0.04140 -0.27100
N 	N 	0.90170 0.51240 0.16870 0.93200
C 	C 	0.18970 0.47930 0.09560 0.39700
O 	O 	0.24250 0.40610 0.07991 -0.49200
O 	O 	0.89500 0.11590 0.07740 -0.47800
O 	O 	0.02970 0.06470 0.06700 -0.34300
O 	O 	0.78830 0.48670 0.13040 -0.73600
O 	O 	0.20060 0.59180 0.10350 -0.31500
Zn	Zn	0.86143 0.94552 0.06551 1.19400
O 	O 	0.96550 0.55510 0.23170 -0.58800
C 	C 	0.89900 0.55790 0.20820 4.23100
C 	C 	0.81900 0.62160 0.22570 -0.57000
C 	C 	0.80910 0.63290 0.27340 1.99500
H 	H 	0.85030 0.59910 0.29360 -0.58900
C 	C 	0.73760 0.69500 0.29100 -0.72000
H 	H 	0.73100 0.70220 0.32290 0.16900
C 	C 	0.67600 0.74500 0.26090 0.07800
H 	H 	0.62810 0.78650 0.27260 -2.62300
C 	C 	0.68590 0.73400 0.21320 -0.49100
H 	H 	0.64460 0.76770 0.19300 -0.21400
C 	C 	0.75740 0.67210 0.19560 -2.94300
H 	H 	0.76400 0.66460 0.16370 0.10800
H 	H 	0.92360 0.54720 0.19380 -3.17900
H 	H 	0.85510 0.52830 0.15340 -2.68000
C 	C 	0.49720 0.72800 0.52850 0.10300
H 	H 	0.53290 0.65860 0.53080 -0.01900
C 	C 	0.53140 0.83390 0.51240 -0.14700
H 	H 	0.58900 0.83580 0.50320 0.09100
C 	C 	0.48150 0.94020 0.50930 0.07300
C 	C 	0.39720 0.92970 0.52280 -0.13000
H 	H 	0.36090 0.99870 0.52130 0.09400
C 	C 	0.36610 0.82020 0.53810 0.10200
H 	H 	0.30840 0.81620 0.54690 0.00100
C 	C 	0.47550 0.36330 0.57980 0.37500
C 	C 	0.50000 0.24020 0.60000 -0.13400
C 	C 	0.44150 0.17210 0.62530 0.06100
H 	H 	0.38690 0.20490 0.63100 0.00300
C 	C 	0.46270 0.05640 0.64230 0.04500
C 	C 	0.54240 0.00610 0.63270 0.09600
H 	H 	0.55600 0.92620 0.64280 0.07900
C 	C 	0.60270 0.07440 0.60810 -0.13700
C 	C 	0.58180 0.19320 0.59260 0.08300
H 	H 	0.62290 0.24090 0.57740 0.04700
C 	C 	0.32630 0.96800 0.66350 3.23700
C 	C 	0.28070 0.89370 0.69830 0.57900
C 	C 	0.20600 0.83400 0.68260 3.29000
H 	H 	0.18850 0.84160 0.65170 -1.14000
C 	C 	0.15760 0.76300 0.71310 -0.00500
H 	H 	0.10760 0.72300 0.70260 0.29100
C 	C 	0.18380 0.75200 0.75920 0.18200
H 	H 	0.15130 0.70410 0.77960 2.56700
C 	C 	0.25840 0.81130 0.77490 -0.50400
H 	H 	0.27600 0.80380 0.80580 0.14700
C 	C 	0.30690 0.88240 0.74440 -0.69000
H 	H 	0.35680 0.92240 0.75490 -0.46200
N 	N 	0.41460 0.71650 0.54140 -0.27900
N 	N 	0.40170 0.98760 0.66870 0.93900
C 	C 	0.68970 0.02070 0.59560 0.40100
O 	O 	0.74250 0.09390 0.57991 -0.49300
O 	O 	0.39500 0.38410 0.57740 -0.48000
O 	O 	0.52970 0.43530 0.56700 -0.34900
O 	O 	0.28830 0.01330 0.63040 -0.73700
O 	O 	0.70060 0.90820 0.60350 -0.31800
Zn	Zn	0.36143 0.55448 0.56551 1.19400
O 	O 	0.46550 0.94490 0.73170 -0.58800
C 	C 	0.39900 0.94210 0.70820 4.25200
C 	C 	0.31900 0.87840 0.72570 -0.57200
C 	C 	0.30910 0.86710 0.77340 2.00400
H 	H 	0.35030 0.90090 0.79360 -0.59200
C 	C 	0.23760 0.80500 0.79100 -0.72400
H 	H 	0.23100 0.79780 0.82290 0.17000
C 	C 	0.17600 0.75500 0.76090 0.07900
H 	H 	0.12810 0.71350 0.77260 -2.63300
C 	C 	0.18590 0.76600 0.71320 -0.49400
H 	H 	0.14460 0.73230 0.69300 -0.21500
C 	C 	0.25740 0.82790 0.69560 -2.95900
H 	H 	0.26400 0.83540 0.66370 0.10900
H 	H 	0.42360 0.95280 0.69380 -3.19600
H 	H 	0.35510 0.97170 0.65340 -2.69600
C 	C 	0.99720 0.22800 0.52850 0.07200
H 	H 	0.03290 0.15860 0.53080 -0.00600
C 	C 	0.03140 0.33390 0.51240 -0.11100
H 	H 	0.08900 0.33580 0.50320 0.07900
C 	C 	0.98150 0.44020 0.50930 0.04100
C 	C 	0.89720 0.42970 0.52280 -0.10800
H 	H 	0.86090 0.49870 0.52130 0.08500
C 	C 	0.86610 0.32020 0.53810 0.08800
H 	H 	0.80840 0.31620 0.54690 0.00600
C 	C 	0.97550 0.86330 0.57980 0.36400
C 	C 	0.00000 0.74020 0.60000 -0.12200
C 	C 	0.94150 0.67210 0.62530 0.05100
H 	H 	0.88690 0.70490 0.63100 0.00600
C 	C 	0.96270 0.55640 0.64230 0.04400
C 	C 	0.04240 0.50610 0.63270 0.09200
H 	H 	0.05600 0.42620 0.64280 0.08200
C 	C 	0.10270 0.57440 0.60810 -0.13300
C 	C 	0.08180 0.69320 0.59260 0.07600
H 	H 	0.12290 0.74090 0.57740 0.04900
C 	C 	0.82630 0.46800 0.66350 3.22200
C 	C 	0.78070 0.39370 0.69830 0.57700
C 	C 	0.70600 0.33400 0.68260 3.27200
H 	H 	0.68850 0.34160 0.65170 -1.13400
C 	C 	0.65760 0.26300 0.71310 -0.00400
H 	H 	0.60760 0.22300 0.70260 0.29000
C 	C 	0.68380 0.25200 0.75920 0.18100
H 	H 	0.65130 0.20410 0.77960 2.55700
C 	C 	0.75840 0.31130 0.77490 -0.50200
H 	H 	0.77600 0.30380 0.80580 0.14600
C 	C 	0.80690 0.38240 0.74440 -0.68800
H 	H 	0.85680 0.42240 0.75490 -0.45900
N 	N 	0.91460 0.21650 0.54140 -0.27100
N 	N 	0.90170 0.48760 0.66870 0.93300
C 	C 	0.18970 0.52070 0.59560 0.39700
O 	O 	0.24250 0.59390 0.57991 -0.49200
O 	O 	0.89500 0.88410 0.57740 -0.47800
O 	O 	0.02970 0.93530 0.56700 -0.34400
O 	O 	0.78830 0.51330 0.63040 -0.73600
O 	O 	0.20060 0.40820 0.60350 -0.31600
Zn	Zn	0.86143 0.05448 0.56551 1.19400
O 	O 	0.96550 0.44490 0.73170 -0.58800
C 	C 	0.89900 0.44210 0.70820 4.23300
C 	C 	0.81900 0.37840 0.72570 -0.57000
C 	C 	0.80910 0.36710 0.77340 1.99600
H 	H 	0.85030 0.40090 0.79360 -0.58900
C 	C 	0.73760 0.30500 0.79100 -0.72000
H 	H 	0.73100 0.29780 0.82290 0.16900
C 	C 	0.67600 0.25500 0.76090 0.07900
H 	H 	0.62810 0.21350 0.77260 -2.62300
C 	C 	0.68590 0.26600 0.71320 -0.49100
H 	H 	0.64460 0.23230 0.69300 -0.21400
C 	C 	0.75740 0.32790 0.69560 -2.94400
H 	H 	0.76400 0.33540 0.66370 0.10800
H 	H 	0.92360 0.45280 0.69380 -3.18000
H 	H 	0.85510 0.47170 0.65340 -2.68100
C 	C 	0.50280 0.72800 0.97150 0.10200
H 	H 	0.46710 0.65860 0.96920 -0.01900
C 	C 	0.46860 0.83390 0.98760 -0.14600
H 	H 	0.41100 0.83580 0.99680 0.09100
C 	C 	0.51850 0.94020 0.99070 0.07200
C 	C 	0.60280 0.92970 0.97720 -0.12900
H 	H 	0.63910 0.99870 0.97870 0.09300
C 	C 	0.63390 0.82020 0.96190 0.10100
H 	H 	0.69160 0.81620 0.95310 0.00200
C 	C 	0.52450 0.36330 0.92020 0.37500
C 	C 	0.50000 0.24020 0.90000 -0.13400
C 	C 	0.55850 0.17210 0.87470 0.06100
H 	H 	0.61310 0.20490 0.86900 0.00300
C 	C 	0.53730 0.05640 0.85770 0.04500
C 	C 	0.45760 0.00610 0.86730 0.09600
H 	H 	0.44400 0.92620 0.85720 0.07900
C 	C 	0.39730 0.07440 0.89190 -0.13700
C 	C 	0.41820 0.19320 0.90740 0.08300
H 	H 	0.37710 0.24090 0.92260 0.04700
C 	C 	0.67370 0.96800 0.83650 3.23700
C 	C 	0.71930 0.89370 0.80170 0.57900
C 	C 	0.79400 0.83400 0.81740 3.29400
H 	H 	0.81150 0.84160 0.84830 -1.14200
C 	C 	0.84240 0.76300 0.78690 -0.00700
H 	H 	0.89240 0.72300 0.79740 0.28800
C 	C 	0.81620 0.75200 0.74080 0.18300
H 	H 	0.84870 0.70410 0.72040 2.54900
C 	C 	0.74160 0.81130 0.72510 -0.50500
H 	H 	0.72400 0.80380 0.69420 0.14800
C 	C 	0.69310 0.88240 0.75560 -0.69000
H 	H 	0.64320 0.92240 0.74510 -0.46300
N 	N 	0.58540 0.71650 0.95860 -0.27900
N 	N 	0.59830 0.98760 0.83130 0.93900
C 	C 	0.31030 0.02070 0.90440 0.40100
O 	O 	0.25750 0.09390 0.92009 -0.49300
O 	O 	0.60500 0.38410 0.92260 -0.48000
O 	O 	0.47030 0.43530 0.93300 -0.34900
O 	O 	0.71170 0.01330 0.86960 -0.73700
O 	O 	0.29940 0.90820 0.89650 -0.31700
Zn	Zn	0.63857 0.55448 0.93449 1.19400
O 	O 	0.53450 0.94490 0.76830 -0.58800
C 	C 	0.60100 0.94210 0.79180 4.25300
C 	C 	0.68100 0.87840 0.77430 -0.57200
C 	C 	0.69090 0.86710 0.72660 2.00400
H 	H 	0.64970 0.90090 0.70640 -0.59200
C 	C 	0.76240 0.80500 0.70900 -0.72400
H 	H 	0.76900 0.79780 0.67710 0.17000
C 	C 	0.82400 0.75500 0.73910 0.08300
H 	H 	0.87190 0.71350 0.72740 -2.61700
C 	C 	0.81410 0.76600 0.78680 -0.49800
H 	H 	0.85540 0.73230 0.80700 -0.21100
C 	C 	0.74260 0.82790 0.80440 -2.96100
H 	H 	0.73600 0.83540 0.83630 0.10800
H 	H 	0.57640 0.95280 0.80620 -3.19600
H 	H 	0.64490 0.97170 0.84660 -2.69600
C 	C 	0.00280 0.22800 0.97150 0.12500
H 	H 	0.96710 0.15860 0.96920 -0.02900
C 	C 	0.96860 0.33390 0.98760 -0.17700
H 	H 	0.91100 0.33580 0.99680 0.10200
C 	C 	0.01850 0.44020 0.99070 0.10100
C 	C 	0.10280 0.42970 0.97720 -0.14900
H 	H 	0.13910 0.49870 0.97870 0.10000
C 	C 	0.13390 0.32020 0.96190 0.11300
H 	H 	0.19160 0.31620 0.95310 -0.00200
C 	C 	0.02450 0.86330 0.92020 0.37700
C 	C 	0.00000 0.74020 0.90000 -0.12800
C 	C 	0.05850 0.67210 0.87470 0.05500
H 	H 	0.11310 0.70490 0.86900 0.00500
C 	C 	0.03730 0.55640 0.85770 0.05200
C 	C 	0.95760 0.50610 0.86730 0.08200
H 	H 	0.94400 0.42620 0.85720 0.08400
C 	C 	0.89730 0.57440 0.89190 -0.13000
C 	C 	0.91820 0.69320 0.90740 0.07300
H 	H 	0.87710 0.74090 0.92260 0.05000
C 	C 	0.17370 0.46800 0.83650 3.23500
C 	C 	0.21930 0.39370 0.80170 0.58000
C 	C 	0.29400 0.33400 0.81740 3.28900
H 	H 	0.31150 0.34160 0.84830 -1.14000
C 	C 	0.34240 0.26300 0.78690 -0.00500
H 	H 	0.39240 0.22300 0.79740 0.29100
C 	C 	0.31620 0.25200 0.74080 0.18200
H 	H 	0.34870 0.20410 0.72040 2.56100
C 	C 	0.24160 0.31130 0.72510 -0.50400
H 	H 	0.22400 0.30380 0.69420 0.14700
C 	C 	0.19310 0.38240 0.75560 -0.69100
H 	H 	0.14320 0.42240 0.74510 -0.46200
N 	N 	0.08540 0.21650 0.95860 -0.28400
N 	N 	0.09830 0.48760 0.83130 0.93800
C 	C 	0.81030 0.52070 0.90440 0.39600
O 	O 	0.75750 0.59390 0.92009 -0.49200
O 	O 	0.10500 0.88410 0.92260 -0.48100
O 	O 	0.97030 0.93530 0.93300 -0.35200
O 	O 	0.21170 0.51330 0.86960 -0.73900
O 	O 	0.79940 0.40820 0.89650 -0.31500
Zn	Zn	0.13857 0.05448 0.93449 1.19500
O 	O 	0.03450 0.44490 0.76830 -0.58700
C 	C 	0.10100 0.44210 0.79180 4.25400
C 	C 	0.18100 0.37840 0.77430 -0.57300
C 	C 	0.19090 0.36710 0.72660 2.00600
H 	H 	0.14970 0.40090 0.70640 -0.59200
C 	C 	0.26240 0.30500 0.70900 -0.72400
H 	H 	0.26900 0.29780 0.67710 0.17000
C 	C 	0.32400 0.25500 0.73910 0.08100
H 	H 	0.37190 0.21350 0.72740 -2.62700
C 	C 	0.31410 0.26600 0.78680 -0.49500
H 	H 	0.35540 0.23230 0.80700 -0.21400
C 	C 	0.24260 0.32790 0.80440 -2.95800
H 	H 	0.23600 0.33540 0.83630 0.10900
H 	H 	0.07640 0.45280 0.80620 -3.19600
H 	H 	0.14490 0.47170 0.84660 -2.69300
