data_crystal

_cell_length_a 11.11480
_cell_length_b 15.64850
_cell_length_c 18.83760
_cell_angle_alpha 90.00000
_cell_angle_beta  92.64700
_cell_angle_gamma 90.00000

_symmetry_space_group_name_	'P 1'
_symmetry_space_group_name_H-M	'P 1'

loop_
_symmetry_equiv_pos_as_xyz
  x,y,z

loop_
_atom_site_label
_atom_site_type_symbol
_atom_site_fract_x
_atom_site_fract_y
_atom_site_fract_z
_atom_site_charge
U 	U 	0.74068 0.26440 0.23751 0.00600
U 	U 	0.48825 0.21445 0.08908 0.01600
U 	U 	0.17037 0.22407 0.94513 0.03900
U 	U 	0.98968 0.30583 0.38733 0.01400
U 	U 	0.81212 0.23033 0.03102 0.03800
U 	U 	0.13787 0.51651 0.17973 0.00100
Co	Co	0.86120 0.00500 0.06050 1.15300
P 	P 	0.01420 0.29640 0.18831 0.45600
P 	P 	0.46330 0.23510 0.28432 0.45100
O 	O 	0.08620 0.37430 0.17280 -0.17400
O 	O 	0.90410 0.28460 0.13800 -0.15100
O 	O 	0.95820 0.29480 0.26160 -0.15800
O 	O 	0.29020 0.24370 0.12930 -0.21200
O 	O 	0.15040 0.17230 0.06690 -0.21200
O 	O 	0.38500 0.15790 0.29100 -0.17900
O 	O 	0.57340 0.23690 0.33600 -0.14900
O 	O 	0.52000 0.24570 0.21160 -0.15600
O 	O 	0.33110 0.34110 0.41600 -0.21300
O 	O 	0.18660 0.29100 0.34350 -0.22300
O 	O 	0.11330 0.11700 0.93140 -0.26000
O 	O 	0.87130 0.12810 0.05800 -0.26800
O 	O 	0.79200 0.29590 0.35200 -0.05000
O 	O 	0.68660 0.22620 0.12390 -0.04500
O 	O 	0.36660 0.17670 0.98760 -0.06000
O 	O 	0.61400 0.17360 0.99240 -0.05800
O 	O 	0.98940 0.27820 0.98520 -0.02500
O 	O 	0.90500 0.99460 0.95170 -0.19600
O 	O 	0.04500 0.00850 0.09200 -0.17200
C 	C 	0.11110 0.20300 0.18680 -0.41700
H 	H 	0.16250 0.20070 0.23110 0.20200
H 	H 	0.06120 0.15060 0.18410 0.18900
C 	C 	0.19070 0.20710 0.12240 0.41400
C 	C 	0.37100 0.33040 0.29440 -0.42200
H 	H 	0.42400 0.38060 0.30300 0.19000
H 	H 	0.32230 0.34060 0.24990 0.20000
C 	C 	0.28780 0.32120 0.35570 0.42200
U 	U 	0.75932 0.76440 0.26249 0.00800
U 	U 	0.01175 0.71445 0.41092 0.01700
U 	U 	0.32963 0.72407 0.55487 0.03900
U 	U 	0.51032 0.80583 0.11267 0.01700
U 	U 	0.68788 0.73033 0.46898 0.04100
U 	U 	0.36213 0.01651 0.32027 0.00300
Co	Co	0.63880 0.50500 0.43950 1.15600
P 	P 	0.48580 0.79640 0.31169 0.45300
P 	P 	0.03670 0.73510 0.21568 0.44800
O 	O 	0.41380 0.87430 0.32720 -0.17400
O 	O 	0.59590 0.78460 0.36200 -0.14900
O 	O 	0.54180 0.79480 0.23840 -0.15600
O 	O 	0.20980 0.74370 0.37070 -0.21200
O 	O 	0.34960 0.67230 0.43310 -0.21200
O 	O 	0.11500 0.65790 0.20900 -0.17900
O 	O 	0.92660 0.73690 0.16400 -0.14700
O 	O 	0.98000 0.74570 0.28840 -0.15300
O 	O 	0.16890 0.84110 0.08400 -0.21300
O 	O 	0.31340 0.79100 0.15650 -0.22300
O 	O 	0.38670 0.61700 0.56860 -0.26300
O 	O 	0.62870 0.62810 0.44200 -0.26500
O 	O 	0.70800 0.79590 0.14800 -0.04900
O 	O 	0.81340 0.72620 0.37610 -0.04400
O 	O 	0.13340 0.67670 0.51240 -0.06100
O 	O 	0.88600 0.67360 0.50760 -0.05800
O 	O 	0.51060 0.77820 0.51480 -0.02500
O 	O 	0.59500 0.49460 0.54830 -0.19600
O 	O 	0.45500 0.50850 0.40800 -0.17300
C 	C 	0.38890 0.70300 0.31320 -0.41600
H 	H 	0.33750 0.70070 0.26890 0.20100
H 	H 	0.43880 0.65060 0.31590 0.18800
C 	C 	0.30930 0.70710 0.37760 0.41400
C 	C 	0.12900 0.83040 0.20560 -0.42200
H 	H 	0.07600 0.88060 0.19700 0.18900
H 	H 	0.17770 0.84060 0.25010 0.20000
C 	C 	0.21220 0.82120 0.14430 0.42200
U 	U 	0.25932 0.73560 0.76249 0.00700
U 	U 	0.51175 0.78555 0.91092 0.01700
U 	U 	0.82963 0.77593 0.05487 0.04000
U 	U 	0.01032 0.69417 0.61267 0.01500
U 	U 	0.18788 0.76967 0.96898 0.03900
U 	U 	0.86213 0.48349 0.82027 0.00200
Co	Co	0.13880 0.99500 0.93950 1.15300
P 	P 	0.98580 0.70360 0.81169 0.45600
P 	P 	0.53670 0.76490 0.71568 0.45100
O 	O 	0.91380 0.62570 0.82720 -0.17400
O 	O 	0.09590 0.71540 0.86200 -0.15100
O 	O 	0.04180 0.70520 0.73840 -0.15800
O 	O 	0.70980 0.75630 0.87070 -0.21200
O 	O 	0.84960 0.82770 0.93310 -0.21200
O 	O 	0.61500 0.84210 0.70900 -0.17900
O 	O 	0.42660 0.76310 0.66400 -0.14900
O 	O 	0.48000 0.75430 0.78840 -0.15600
O 	O 	0.66890 0.65890 0.58400 -0.21300
O 	O 	0.81340 0.70900 0.65650 -0.22300
O 	O 	0.88670 0.88300 0.06860 -0.26000
O 	O 	0.12870 0.87190 0.94200 -0.26800
O 	O 	0.20800 0.70410 0.64800 -0.05000
O 	O 	0.31340 0.77380 0.87610 -0.04500
O 	O 	0.63340 0.82330 0.01240 -0.06000
O 	O 	0.38600 0.82640 0.00760 -0.05800
O 	O 	0.01060 0.72180 0.01480 -0.02500
O 	O 	0.09500 0.00540 0.04830 -0.19600
O 	O 	0.95500 0.99150 0.90800 -0.17200
C 	C 	0.88890 0.79700 0.81320 -0.41700
H 	H 	0.83750 0.79930 0.76890 0.20200
H 	H 	0.93880 0.84940 0.81590 0.18900
C 	C 	0.80930 0.79290 0.87760 0.41400
C 	C 	0.62900 0.66960 0.70560 -0.42200
H 	H 	0.57600 0.61940 0.69700 0.19000
H 	H 	0.67770 0.65940 0.75010 0.20000
C 	C 	0.71220 0.67880 0.64430 0.42200
U 	U 	0.24068 0.23560 0.73751 0.00800
U 	U 	0.98825 0.28555 0.58908 0.01700
U 	U 	0.67037 0.27593 0.44513 0.03900
U 	U 	0.48968 0.19417 0.88733 0.01700
U 	U 	0.31212 0.26967 0.53102 0.04100
U 	U 	0.63787 0.98349 0.67973 0.00300
Co	Co	0.36120 0.49500 0.56050 1.15600
P 	P 	0.51420 0.20360 0.68831 0.45300
P 	P 	0.96330 0.26490 0.78432 0.44800
O 	O 	0.58620 0.12570 0.67280 -0.17400
O 	O 	0.40410 0.21540 0.63800 -0.14900
O 	O 	0.45820 0.20520 0.76160 -0.15600
O 	O 	0.79020 0.25630 0.62930 -0.21200
O 	O 	0.65040 0.32770 0.56690 -0.21200
O 	O 	0.88500 0.34210 0.79100 -0.17900
O 	O 	0.07340 0.26310 0.83600 -0.14700
O 	O 	0.02000 0.25430 0.71160 -0.15300
O 	O 	0.83110 0.15890 0.91600 -0.21300
O 	O 	0.68660 0.20900 0.84350 -0.22300
O 	O 	0.61330 0.38300 0.43140 -0.26300
O 	O 	0.37130 0.37190 0.55800 -0.26500
O 	O 	0.29200 0.20410 0.85200 -0.04900
O 	O 	0.18660 0.27380 0.62390 -0.04400
O 	O 	0.86660 0.32330 0.48760 -0.06100
O 	O 	0.11400 0.32640 0.49240 -0.05800
O 	O 	0.48940 0.22180 0.48520 -0.02500
O 	O 	0.40500 0.50540 0.45170 -0.19600
O 	O 	0.54500 0.49150 0.59200 -0.17300
C 	C 	0.61110 0.29700 0.68680 -0.41600
H 	H 	0.66250 0.29930 0.73110 0.20100
H 	H 	0.56120 0.34940 0.68410 0.18800
C 	C 	0.69070 0.29290 0.62240 0.41400
C 	C 	0.87100 0.16960 0.79440 -0.42200
H 	H 	0.92400 0.11940 0.80300 0.18900
H 	H 	0.82230 0.15940 0.74990 0.20000
C 	C 	0.78780 0.17880 0.85570 0.42200
