data_crystal

_cell_length_a 17.65740
_cell_length_b 17.65740
_cell_length_c 18.65180
_cell_angle_alpha 90.00000
_cell_angle_beta  90.00000
_cell_angle_gamma 90.00000

_symmetry_space_group_name_	'P 1'
_symmetry_space_group_name_H-M	'P 1'

loop_
_symmetry_equiv_pos_as_xyz
  x,y,z

loop_
_atom_site_label
_atom_site_type_symbol
_atom_site_fract_x
_atom_site_fract_y
_atom_site_fract_z
_atom_site_charge
Ni	Ni	0.61779 0.41994 0.92630 1.06800
Ni	Ni	0.72392 0.53293 0.81345 1.11300
Ni	Ni	0.38221 0.58006 0.42630 1.06800
Ni	Ni	0.27608 0.46707 0.31345 1.11300
Ni	Ni	0.08006 0.11779 0.67630 1.06900
Ni	Ni	0.96707 0.22392 0.56345 1.11200
Ni	Ni	0.91994 0.88221 0.17630 1.06800
Ni	Ni	0.03293 0.77608 0.06345 1.11100
Ni	Ni	0.88221 0.91994 0.82370 1.06800
Ni	Ni	0.77608 0.03293 0.93655 1.11100
Ni	Ni	0.11779 0.08006 0.32370 1.06900
Ni	Ni	0.22392 0.96707 0.43655 1.11200
Ni	Ni	0.41994 0.61779 0.07370 1.06800
Ni	Ni	0.53293 0.72392 0.18655 1.11300
Ni	Ni	0.58006 0.38221 0.57370 1.06800
Ni	Ni	0.46707 0.27608 0.68655 1.11300
H 	H 	0.66830 0.07810 0.26310 0.15000
H 	H 	0.58390 0.08820 0.28710 0.14400
H 	H 	0.68480 0.96910 0.16130 0.13300
H 	H 	0.65660 0.84450 0.14130 -0.02500
H 	H 	0.50750 0.97990 0.29440 0.11900
H 	H 	0.48450 0.85450 0.27130 -0.01000
H 	H 	0.65780 0.69910 0.69680 0.13800
H 	H 	0.73860 0.68520 0.72980 0.12200
H 	H 	0.72460 0.76770 0.80520 0.05200
H 	H 	0.57430 0.63490 0.90450 0.06200
H 	H 	0.54070 0.64400 0.78050 0.15000
H 	H 	0.57620 0.59180 0.72150 0.15700
H 	H 	0.64480 0.82690 0.99950 0.04600
H 	H 	0.71820 0.37300 0.04920 -0.02400
H 	H 	0.71890 0.29820 0.14980 0.12000
H 	H 	0.50790 0.23980 0.10780 0.12900
H 	H 	0.51040 0.31550 0.00940 -0.04300
H 	H 	0.66130 0.21410 0.22960 0.15300
H 	H 	0.57350 0.22340 0.23760 0.15300
H 	H 	0.63730 0.11290 0.14670 -0.02400
H 	H 	0.55150 0.11850 0.16760 -0.03700
H 	H 	0.33170 0.92190 0.76310 0.15200
H 	H 	0.41610 0.91180 0.78710 0.14600
H 	H 	0.31520 0.03090 0.66130 0.13500
H 	H 	0.34340 0.15550 0.64130 -0.02400
H 	H 	0.49250 0.02010 0.79440 0.12000
H 	H 	0.51550 0.14550 0.77130 -0.00900
H 	H 	0.34220 0.30090 0.19680 0.13900
H 	H 	0.26140 0.31480 0.22980 0.12300
H 	H 	0.27540 0.23230 0.30520 0.05300
H 	H 	0.42570 0.36510 0.40450 0.06300
H 	H 	0.45930 0.35600 0.28050 0.15100
H 	H 	0.42380 0.40820 0.22150 0.15800
H 	H 	0.35520 0.17310 0.49950 0.04700
H 	H 	0.28180 0.62700 0.54920 -0.02400
H 	H 	0.28110 0.70180 0.64980 0.12200
H 	H 	0.49210 0.76020 0.60780 0.13000
H 	H 	0.48960 0.68450 0.50940 -0.04200
H 	H 	0.33870 0.78590 0.72960 0.15400
H 	H 	0.42650 0.77660 0.73760 0.15300
H 	H 	0.36270 0.88710 0.64670 -0.02500
H 	H 	0.44850 0.88150 0.66760 -0.03800
H 	H 	0.42190 0.16830 0.01310 0.15400
H 	H 	0.41180 0.08390 0.03710 0.14800
H 	H 	0.53090 0.18480 0.91130 0.13400
H 	H 	0.65550 0.15660 0.89130 -0.02400
H 	H 	0.52010 0.00750 0.04440 0.11700
H 	H 	0.64550 0.98450 0.02130 -0.00500
H 	H 	0.80090 0.15780 0.44680 0.13900
H 	H 	0.81480 0.23860 0.47980 0.12300
H 	H 	0.73230 0.22460 0.55520 0.05300
H 	H 	0.86510 0.07430 0.65450 0.06300
H 	H 	0.85600 0.04070 0.53050 0.14900
H 	H 	0.90820 0.07620 0.47150 0.15600
H 	H 	0.67310 0.14480 0.74950 0.04700
H 	H 	0.12700 0.21820 0.79920 -0.02300
H 	H 	0.20180 0.21890 0.89980 0.12200
H 	H 	0.26020 0.00790 0.85780 0.13000
H 	H 	0.18450 0.01040 0.75940 -0.04200
H 	H 	0.28590 0.16130 0.97960 0.15500
H 	H 	0.27660 0.07350 0.98760 0.15400
H 	H 	0.38710 0.13730 0.89670 -0.02600
H 	H 	0.38150 0.05150 0.91760 -0.03900
H 	H 	0.57810 0.83170 0.51310 0.15200
H 	H 	0.58820 0.91610 0.53710 0.14600
H 	H 	0.46910 0.81520 0.41130 0.13500
H 	H 	0.34450 0.84340 0.39130 -0.02400
H 	H 	0.47990 0.99250 0.54440 0.12000
H 	H 	0.35450 0.01550 0.52130 -0.00700
H 	H 	0.19910 0.84220 0.94680 0.13900
H 	H 	0.18520 0.76140 0.97980 0.12300
H 	H 	0.26770 0.77540 0.05520 0.05200
H 	H 	0.13490 0.92570 0.15450 0.06200
H 	H 	0.14400 0.95930 0.03050 0.15000
H 	H 	0.09180 0.92380 0.97150 0.16000
H 	H 	0.32690 0.85520 0.24950 0.04600
H 	H 	0.87300 0.78180 0.29920 -0.02300
H 	H 	0.79820 0.78110 0.39980 0.12200
H 	H 	0.73980 0.99210 0.35780 0.13000
H 	H 	0.81550 0.98960 0.25940 -0.04200
H 	H 	0.71410 0.83870 0.47960 0.15400
H 	H 	0.72340 0.92650 0.48760 0.15400
H 	H 	0.61290 0.86270 0.39670 -0.02500
H 	H 	0.61850 0.94850 0.41760 -0.03800
H 	H 	0.83170 0.57810 0.48690 0.15200
H 	H 	0.91610 0.58820 0.46290 0.14600
H 	H 	0.81520 0.46910 0.58870 0.13500
H 	H 	0.84340 0.34450 0.60870 -0.02400
H 	H 	0.99250 0.47990 0.45560 0.12000
H 	H 	0.01550 0.35450 0.47870 -0.00700
H 	H 	0.84220 0.19910 0.05320 0.13900
H 	H 	0.76140 0.18520 0.02020 0.12300
H 	H 	0.77540 0.26770 0.94480 0.05200
H 	H 	0.92570 0.13490 0.84550 0.06200
H 	H 	0.95930 0.14400 0.96950 0.15000
H 	H 	0.92380 0.09180 0.02850 0.16000
H 	H 	0.85520 0.32690 0.75050 0.04600
H 	H 	0.78180 0.87300 0.70080 -0.02300
H 	H 	0.78110 0.79820 0.60020 0.12200
H 	H 	0.99210 0.73980 0.64220 0.13000
H 	H 	0.98960 0.81550 0.74060 -0.04200
H 	H 	0.83870 0.71410 0.52040 0.15400
H 	H 	0.92650 0.72340 0.51240 0.15400
H 	H 	0.86270 0.61290 0.60330 -0.02500
H 	H 	0.94850 0.61850 0.58240 -0.03800
H 	H 	0.16830 0.42190 0.98690 0.15400
H 	H 	0.08390 0.41180 0.96290 0.14800
H 	H 	0.18480 0.53090 0.08870 0.13400
H 	H 	0.15660 0.65550 0.10870 -0.02400
H 	H 	0.00750 0.52010 0.95560 0.11700
H 	H 	0.98450 0.64550 0.97870 -0.00500
H 	H 	0.15780 0.80090 0.55320 0.13900
H 	H 	0.23860 0.81480 0.52020 0.12300
H 	H 	0.22460 0.73230 0.44480 0.05300
H 	H 	0.07430 0.86510 0.34550 0.06300
H 	H 	0.04070 0.85600 0.46950 0.14900
H 	H 	0.07620 0.90820 0.52850 0.15600
H 	H 	0.14480 0.67310 0.25050 0.04700
H 	H 	0.21820 0.12700 0.20080 -0.02300
H 	H 	0.21890 0.20180 0.10020 0.12200
H 	H 	0.00790 0.26020 0.14220 0.13000
H 	H 	0.01040 0.18450 0.24060 -0.04200
H 	H 	0.16130 0.28590 0.02040 0.15500
H 	H 	0.07350 0.27660 0.01240 0.15400
H 	H 	0.13730 0.38710 0.10330 -0.02600
H 	H 	0.05150 0.38150 0.08240 -0.03900
H 	H 	0.07810 0.66830 0.73690 0.15100
H 	H 	0.08820 0.58390 0.71290 0.14500
H 	H 	0.96910 0.68480 0.83870 0.13400
H 	H 	0.84450 0.65660 0.85870 -0.02400
H 	H 	0.97990 0.50750 0.70560 0.12000
H 	H 	0.85450 0.48450 0.72870 -0.00900
H 	H 	0.69910 0.65780 0.30320 0.13900
H 	H 	0.68520 0.73860 0.27020 0.12300
H 	H 	0.76770 0.72460 0.19480 0.05300
H 	H 	0.63490 0.57430 0.09550 0.06300
H 	H 	0.64400 0.54070 0.21950 0.15100
H 	H 	0.59180 0.57620 0.27850 0.15800
H 	H 	0.82690 0.64480 0.00050 0.04700
H 	H 	0.37300 0.71820 0.95080 -0.02300
H 	H 	0.29820 0.71890 0.85020 0.12100
H 	H 	0.23980 0.50790 0.89220 0.13000
H 	H 	0.31550 0.51040 0.99060 -0.04200
H 	H 	0.21410 0.66130 0.77040 0.15400
H 	H 	0.22340 0.57350 0.76240 0.15300
H 	H 	0.11290 0.63730 0.85330 -0.02400
H 	H 	0.11850 0.55150 0.83240 -0.03700
H 	H 	0.92190 0.33170 0.23690 0.15200
H 	H 	0.91180 0.41610 0.21290 0.14600
H 	H 	0.03090 0.31520 0.33870 0.13500
H 	H 	0.15550 0.34340 0.35870 -0.02400
H 	H 	0.02010 0.49250 0.20560 0.12000
H 	H 	0.14550 0.51550 0.22870 -0.00900
H 	H 	0.30090 0.34220 0.80320 0.13900
H 	H 	0.31480 0.26140 0.77020 0.12300
H 	H 	0.23230 0.27540 0.69480 0.05300
H 	H 	0.36510 0.42570 0.59550 0.06300
H 	H 	0.35600 0.45930 0.71950 0.15100
H 	H 	0.40820 0.42380 0.77850 0.15800
H 	H 	0.17310 0.35520 0.50050 0.04700
H 	H 	0.62700 0.28180 0.45080 -0.02400
H 	H 	0.70180 0.28110 0.35020 0.12200
H 	H 	0.76020 0.49210 0.39220 0.13000
H 	H 	0.68450 0.48960 0.49060 -0.04200
H 	H 	0.78590 0.33870 0.27040 0.15400
H 	H 	0.77660 0.42650 0.26240 0.15300
H 	H 	0.88710 0.36270 0.35330 -0.02500
H 	H 	0.88150 0.44850 0.33240 -0.03800
C 	C 	0.61610 0.07290 0.24760 -0.40700
C 	C 	0.60090 0.99000 0.23100 0.24600
C 	C 	0.64390 0.94720 0.18490 -0.27200
C 	C 	0.62690 0.87190 0.17330 0.14800
C 	C 	0.53920 0.95330 0.26350 -0.25500
C 	C 	0.52570 0.87780 0.24950 0.13900
C 	C 	0.70020 0.59380 0.67190 0.37300
C 	C 	0.68990 0.66190 0.72010 -0.33500
C 	C 	0.69380 0.75720 0.84440 -0.05000
C 	C 	0.65150 0.69107 0.84492 0.03900
C 	C 	0.60490 0.67780 0.90400 -0.05300
C 	C 	0.57850 0.60520 0.77180 -0.35600
C 	C 	0.55980 0.53570 0.81680 0.42000
C 	C 	0.69110 0.80830 0.90150 -0.08200
C 	C 	0.64610 0.79340 0.96110 0.01500
C 	C 	0.60280 0.72690 0.96218 -0.07300
C 	C 	0.55280 0.70620 0.02580 0.37700
C 	C 	0.73740 0.87880 0.89520 0.35600
C 	C 	0.67470 0.34610 0.06110 0.15800
C 	C 	0.67540 0.30090 0.12180 -0.28600
C 	C 	0.61230 0.25970 0.14130 0.28600
C 	C 	0.55180 0.26670 0.09750 -0.29600
C 	C 	0.55360 0.31250 0.03780 0.16200
C 	C 	0.61340 0.20840 0.20480 -0.43500
C 	C 	0.60260 0.12570 0.18520 0.21200
C 	C 	0.38390 0.92710 0.74760 -0.41000
C 	C 	0.39910 0.01000 0.73100 0.24800
C 	C 	0.35610 0.05280 0.68490 -0.27300
C 	C 	0.37310 0.12810 0.67330 0.14800
C 	C 	0.46080 0.04670 0.76350 -0.25500
C 	C 	0.47430 0.12220 0.74950 0.13900
C 	C 	0.29980 0.40620 0.17190 0.37300
C 	C 	0.31010 0.33810 0.22010 -0.33500
C 	C 	0.30620 0.24280 0.34440 -0.05000
C 	C 	0.34850 0.30893 0.34492 0.03900
C 	C 	0.39510 0.32220 0.40400 -0.05200
C 	C 	0.42150 0.39480 0.27180 -0.35600
C 	C 	0.44020 0.46430 0.31680 0.42000
C 	C 	0.30890 0.19170 0.40150 -0.08300
C 	C 	0.35390 0.20660 0.46110 0.01500
C 	C 	0.39720 0.27310 0.46218 -0.07400
C 	C 	0.44720 0.29380 0.52580 0.37800
C 	C 	0.26260 0.12120 0.39520 0.35600
C 	C 	0.32530 0.65390 0.56110 0.15800
C 	C 	0.32460 0.69910 0.62180 -0.28700
C 	C 	0.38770 0.74030 0.64130 0.28700
C 	C 	0.44820 0.73330 0.59750 -0.29600
C 	C 	0.44640 0.68750 0.53780 0.16200
C 	C 	0.38660 0.79160 0.70480 -0.43600
C 	C 	0.39740 0.87430 0.68520 0.21400
C 	C 	0.42710 0.11610 0.99760 -0.41500
C 	C 	0.51000 0.10090 0.98100 0.24300
C 	C 	0.55280 0.14390 0.93490 -0.27000
C 	C 	0.62810 0.12690 0.92330 0.14600
C 	C 	0.54670 0.03920 0.01350 -0.24400
C 	C 	0.62220 0.02570 0.99950 0.12800
C 	C 	0.90620 0.20020 0.42190 0.37300
C 	C 	0.83810 0.18990 0.47010 -0.33500
C 	C 	0.74280 0.19380 0.59440 -0.05000
C 	C 	0.80893 0.15150 0.59492 0.03900
C 	C 	0.82220 0.10490 0.65400 -0.05200
C 	C 	0.89480 0.07850 0.52180 -0.35100
C 	C 	0.96430 0.05980 0.56680 0.41000
C 	C 	0.69170 0.19110 0.65150 -0.08300
C 	C 	0.70660 0.14610 0.71110 0.01600
C 	C 	0.77310 0.10280 0.71218 -0.07400
C 	C 	0.79380 0.05280 0.77580 0.37800
C 	C 	0.62120 0.23740 0.64520 0.35600
C 	C 	0.15390 0.17470 0.81110 0.15900
C 	C 	0.19910 0.17540 0.87180 -0.28800
C 	C 	0.24030 0.11230 0.89130 0.28800
C 	C 	0.23330 0.05180 0.84750 -0.29700
C 	C 	0.18750 0.05360 0.78780 0.16200
C 	C 	0.29160 0.11340 0.95480 -0.43800
C 	C 	0.37430 0.10260 0.93520 0.21700
C 	C 	0.57290 0.88390 0.49760 -0.41000
C 	C 	0.49000 0.89910 0.48100 0.24800
C 	C 	0.44720 0.85610 0.43490 -0.27300
C 	C 	0.37190 0.87310 0.42330 0.14800
C 	C 	0.45330 0.96080 0.51350 -0.25400
C 	C 	0.37780 0.97430 0.49950 0.13700
C 	C 	0.09380 0.79980 0.92190 0.37200
C 	C 	0.16190 0.81010 0.97010 -0.33200
C 	C 	0.25720 0.80620 0.09440 -0.05000
C 	C 	0.19107 0.84850 0.09492 0.03800
C 	C 	0.17780 0.89510 0.15400 -0.05200
C 	C 	0.10520 0.92150 0.02180 -0.35800
C 	C 	0.03570 0.94020 0.06680 0.40800
C 	C 	0.30830 0.80890 0.15150 -0.08300
C 	C 	0.29340 0.85390 0.21110 0.01600
C 	C 	0.22690 0.89720 0.21218 -0.07500
C 	C 	0.20620 0.94720 0.27580 0.37800
C 	C 	0.37880 0.76260 0.14520 0.35700
C 	C 	0.84610 0.82530 0.31110 0.15800
C 	C 	0.80090 0.82460 0.37180 -0.28700
C 	C 	0.75970 0.88770 0.39130 0.28700
C 	C 	0.76670 0.94820 0.34750 -0.29600
C 	C 	0.81250 0.94640 0.28780 0.16200
C 	C 	0.70840 0.88660 0.45480 -0.43700
C 	C 	0.62570 0.89740 0.43520 0.21400
C 	C 	0.88390 0.57290 0.50240 -0.41000
C 	C 	0.89910 0.49000 0.51900 0.24800
C 	C 	0.85610 0.44720 0.56510 -0.27300
C 	C 	0.87310 0.37190 0.57670 0.14800
C 	C 	0.96080 0.45330 0.48650 -0.25400
C 	C 	0.97430 0.37780 0.50050 0.13700
C 	C 	0.79980 0.09380 0.07810 0.37200
C 	C 	0.81010 0.16190 0.02990 -0.33200
C 	C 	0.80620 0.25720 0.90560 -0.05000
C 	C 	0.84850 0.19107 0.90508 0.03800
C 	C 	0.89510 0.17780 0.84600 -0.05200
C 	C 	0.92150 0.10520 0.97820 -0.35800
C 	C 	0.94020 0.03570 0.93320 0.40800
C 	C 	0.80890 0.30830 0.84850 -0.08300
C 	C 	0.85390 0.29340 0.78890 0.01600
C 	C 	0.89720 0.22690 0.78782 -0.07500
C 	C 	0.94720 0.20620 0.72420 0.37800
C 	C 	0.76260 0.37880 0.85480 0.35700
C 	C 	0.82530 0.84610 0.68890 0.15800
C 	C 	0.82460 0.80090 0.62820 -0.28700
C 	C 	0.88770 0.75970 0.60870 0.28700
C 	C 	0.94820 0.76670 0.65250 -0.29600
C 	C 	0.94640 0.81250 0.71220 0.16200
C 	C 	0.88660 0.70840 0.54520 -0.43700
C 	C 	0.89740 0.62570 0.56480 0.21400
C 	C 	0.11610 0.42710 0.00240 -0.41500
C 	C 	0.10090 0.51000 0.01900 0.24300
C 	C 	0.14390 0.55280 0.06510 -0.27000
C 	C 	0.12690 0.62810 0.07670 0.14600
C 	C 	0.03920 0.54670 0.98650 -0.24400
C 	C 	0.02570 0.62220 0.00050 0.12800
C 	C 	0.20020 0.90620 0.57810 0.37300
C 	C 	0.18990 0.83810 0.52990 -0.33500
C 	C 	0.19380 0.74280 0.40560 -0.05000
C 	C 	0.15150 0.80893 0.40508 0.03900
C 	C 	0.10490 0.82220 0.34600 -0.05200
C 	C 	0.07850 0.89480 0.47820 -0.35100
C 	C 	0.05980 0.96430 0.43320 0.41000
C 	C 	0.19110 0.69170 0.34850 -0.08300
C 	C 	0.14610 0.70660 0.28890 0.01600
C 	C 	0.10280 0.77310 0.28782 -0.07400
C 	C 	0.05280 0.79380 0.22420 0.37800
C 	C 	0.23740 0.62120 0.35480 0.35600
C 	C 	0.17470 0.15390 0.18890 0.15900
C 	C 	0.17540 0.19910 0.12820 -0.28800
C 	C 	0.11230 0.24030 0.10870 0.28800
C 	C 	0.05180 0.23330 0.15250 -0.29700
C 	C 	0.05360 0.18750 0.21220 0.16200
C 	C 	0.11340 0.29160 0.04520 -0.43800
C 	C 	0.10260 0.37430 0.06480 0.21700
C 	C 	0.07290 0.61610 0.75240 -0.40700
C 	C 	0.99000 0.60090 0.76900 0.24600
C 	C 	0.94720 0.64390 0.81510 -0.27200
C 	C 	0.87190 0.62690 0.82670 0.14800
C 	C 	0.95330 0.53920 0.73650 -0.25500
C 	C 	0.87780 0.52570 0.75050 0.13900
C 	C 	0.59380 0.70020 0.32810 0.37300
C 	C 	0.66190 0.68990 0.27990 -0.33500
C 	C 	0.75720 0.69380 0.15560 -0.05000
C 	C 	0.69107 0.65150 0.15508 0.03900
C 	C 	0.67780 0.60490 0.09600 -0.05300
C 	C 	0.60520 0.57850 0.22820 -0.35600
C 	C 	0.53570 0.55980 0.18320 0.42000
C 	C 	0.80830 0.69110 0.09850 -0.08200
C 	C 	0.79340 0.64610 0.03890 0.01500
C 	C 	0.72690 0.60280 0.03782 -0.07300
C 	C 	0.70620 0.55280 0.97420 0.37700
C 	C 	0.87880 0.73740 0.10480 0.35600
C 	C 	0.34610 0.67470 0.93890 0.15800
C 	C 	0.30090 0.67540 0.87820 -0.28600
C 	C 	0.25970 0.61230 0.85870 0.28600
C 	C 	0.26670 0.55180 0.90250 -0.29600
C 	C 	0.31250 0.55360 0.96220 0.16200
C 	C 	0.20840 0.61340 0.79520 -0.43500
C 	C 	0.12570 0.60260 0.81480 0.21200
C 	C 	0.92710 0.38390 0.25240 -0.41000
C 	C 	0.01000 0.39910 0.26900 0.24800
C 	C 	0.05280 0.35610 0.31510 -0.27300
C 	C 	0.12810 0.37310 0.32670 0.14800
C 	C 	0.04670 0.46080 0.23650 -0.25500
C 	C 	0.12220 0.47430 0.25050 0.13900
C 	C 	0.40620 0.29980 0.82810 0.37300
C 	C 	0.33810 0.31010 0.77990 -0.33500
C 	C 	0.24280 0.30620 0.65560 -0.05000
C 	C 	0.30893 0.34850 0.65508 0.03900
C 	C 	0.32220 0.39510 0.59600 -0.05200
C 	C 	0.39480 0.42150 0.72820 -0.35600
C 	C 	0.46430 0.44020 0.68320 0.42000
C 	C 	0.19170 0.30890 0.59850 -0.08300
C 	C 	0.20660 0.35390 0.53890 0.01500
C 	C 	0.27310 0.39720 0.53782 -0.07400
C 	C 	0.29380 0.44720 0.47420 0.37800
C 	C 	0.12120 0.26260 0.60480 0.35600
C 	C 	0.65390 0.32530 0.43890 0.15800
C 	C 	0.69910 0.32460 0.37820 -0.28700
C 	C 	0.74030 0.38770 0.35870 0.28700
C 	C 	0.73330 0.44820 0.40250 -0.29600
C 	C 	0.68750 0.44640 0.46220 0.16200
C 	C 	0.79160 0.38660 0.29520 -0.43600
C 	C 	0.87430 0.39740 0.31480 0.21400
N 	N 	0.56930 0.83670 0.20607 -0.24500
N 	N 	0.61390 0.35240 0.01895 -0.26900
N 	N 	0.65469 0.63659 0.78793 -0.10700
N 	N 	0.43070 0.16330 0.70607 -0.24500
N 	N 	0.38610 0.64760 0.51895 -0.26900
N 	N 	0.34531 0.36341 0.28793 -0.10700
N 	N 	0.66330 0.06930 0.95607 -0.24300
N 	N 	0.14760 0.11390 0.76895 -0.26900
N 	N 	0.86341 0.15469 0.53793 -0.10700
N 	N 	0.33670 0.93070 0.45607 -0.24400
N 	N 	0.85240 0.88610 0.26895 -0.26900
N 	N 	0.13659 0.84531 0.03793 -0.10800
N 	N 	0.93070 0.33670 0.54393 -0.24400
N 	N 	0.88610 0.85240 0.73105 -0.26900
N 	N 	0.84531 0.13659 0.96207 -0.10800
N 	N 	0.06930 0.66330 0.04393 -0.24300
N 	N 	0.11390 0.14760 0.23105 -0.26900
N 	N 	0.15469 0.86341 0.46207 -0.10700
N 	N 	0.83670 0.56930 0.79393 -0.24500
N 	N 	0.35240 0.61390 0.98105 -0.26900
N 	N 	0.63659 0.65469 0.21207 -0.10700
N 	N 	0.16330 0.43070 0.29393 -0.24500
N 	N 	0.64760 0.38610 0.48105 -0.26900
N 	N 	0.36341 0.34531 0.71207 -0.10700
O 	O 	0.69850 0.60180 0.60671 -0.29400
O 	O 	0.71052 0.52965 0.70310 -0.39800
O 	O 	0.49343 0.52343 0.83125 -0.32300
O 	O 	0.61611 0.49458 0.83630 -0.53900
O 	O 	0.73780 0.92483 0.94618 -0.41300
O 	O 	0.77263 0.88769 0.83754 -0.43700
O 	O 	0.50910 0.65116 0.01523 -0.43500
O 	O 	0.56059 0.74350 0.08234 -0.43000
O 	O 	0.30150 0.39820 0.10671 -0.29400
O 	O 	0.28948 0.47035 0.20310 -0.39900
O 	O 	0.50657 0.47657 0.33125 -0.32300
O 	O 	0.38389 0.50542 0.33630 -0.53900
O 	O 	0.26220 0.07517 0.44618 -0.41400
O 	O 	0.22737 0.11231 0.33754 -0.43700
O 	O 	0.49090 0.34884 0.51523 -0.43500
O 	O 	0.43941 0.25650 0.58234 -0.43000
O 	O 	0.89820 0.19850 0.35671 -0.29500
O 	O 	0.97035 0.21052 0.45310 -0.39900
O 	O 	0.97657 0.99343 0.58125 -0.31700
O 	O 	0.00542 0.11611 0.58630 -0.53300
O 	O 	0.57517 0.23780 0.69618 -0.41500
O 	O 	0.61231 0.27263 0.58754 -0.43700
O 	O 	0.84884 0.00910 0.76523 -0.43700
O 	O 	0.75650 0.06059 0.83234 -0.43100
O 	O 	0.10180 0.80150 0.85671 -0.29400
O 	O 	0.02965 0.78948 0.95310 -0.39700
O 	O 	0.02343 0.00657 0.08125 -0.31600
O 	O 	0.99458 0.88389 0.08630 -0.53200
O 	O 	0.42483 0.76220 0.19618 -0.41500
O 	O 	0.38769 0.72737 0.08754 -0.43800
O 	O 	0.15116 0.99090 0.26523 -0.43700
O 	O 	0.24350 0.93941 0.33234 -0.43100
O 	O 	0.80150 0.10180 0.14329 -0.29400
O 	O 	0.78948 0.02965 0.04690 -0.39700
O 	O 	0.00657 0.02343 0.91875 -0.31600
O 	O 	0.88389 0.99458 0.91370 -0.53200
O 	O 	0.76220 0.42483 0.80382 -0.41500
O 	O 	0.72737 0.38769 0.91246 -0.43800
O 	O 	0.99090 0.15116 0.73477 -0.43700
O 	O 	0.93941 0.24350 0.66766 -0.43100
O 	O 	0.19850 0.89820 0.64329 -0.29500
O 	O 	0.21052 0.97035 0.54690 -0.39900
O 	O 	0.99343 0.97657 0.41875 -0.31700
O 	O 	0.11611 0.00542 0.41370 -0.53300
O 	O 	0.23780 0.57517 0.30382 -0.41500
O 	O 	0.27263 0.61231 0.41246 -0.43700
O 	O 	0.00910 0.84884 0.23477 -0.43700
O 	O 	0.06059 0.75650 0.16766 -0.43100
O 	O 	0.60180 0.69850 0.39329 -0.29400
O 	O 	0.52965 0.71052 0.29690 -0.39800
O 	O 	0.52343 0.49343 0.16875 -0.32300
O 	O 	0.49458 0.61611 0.16370 -0.53900
O 	O 	0.92483 0.73780 0.05382 -0.41300
O 	O 	0.88769 0.77263 0.16246 -0.43700
O 	O 	0.65116 0.50910 0.98477 -0.43500
O 	O 	0.74350 0.56059 0.91766 -0.43000
O 	O 	0.39820 0.30150 0.89329 -0.29400
O 	O 	0.47035 0.28948 0.79690 -0.39900
O 	O 	0.47657 0.50657 0.66875 -0.32300
O 	O 	0.50542 0.38389 0.66370 -0.53900
O 	O 	0.07517 0.26220 0.55382 -0.41400
O 	O 	0.11231 0.22737 0.66246 -0.43700
O 	O 	0.34884 0.49090 0.48477 -0.43500
O 	O 	0.25650 0.43941 0.41766 -0.43000
