data_crystal

_cell_length_a 12.79320
_cell_length_b 12.79320
_cell_length_c 18.03310
_cell_angle_alpha 91.86460
_cell_angle_beta  91.86460
_cell_angle_gamma 106.13300

_symmetry_space_group_name_	'P 1'
_symmetry_space_group_name_H-M	'P 1'

loop_
_symmetry_equiv_pos_as_xyz
  x,y,z

loop_
_atom_site_label
_atom_site_type_symbol
_atom_site_fract_x
_atom_site_fract_y
_atom_site_fract_z
_atom_site_charge
Ni	Ni	0.23711 0.27551 0.71057 1.08500
Ni	Ni	0.72449 0.76289 0.78943 1.09200
Ni	Ni	0.76289 0.72449 0.28943 1.09200
Ni	Ni	0.27551 0.23711 0.21057 1.08500
Ni	Ni	0.00000 0.00000 0.50000 1.01300
Ni	Ni	-0.00000 0.00000 -0.00000 1.00300
H 	H 	0.52310 0.46790 0.67950 0.05900
H 	H 	0.46090 0.68010 0.53380 0.05800
H 	H 	0.28330 0.36250 0.52030 0.05900
H 	H 	0.34700 0.22780 0.52600 0.15100
H 	H 	0.35800 0.13980 0.58440 0.13600
H 	H 	0.50700 0.24040 0.64980 0.14500
H 	H 	0.49010 0.32290 0.71420 0.13200
H 	H 	0.30830 0.52490 0.72100 -0.00700
H 	H 	0.04240 0.32300 0.62970 -0.04800
H 	H 	0.26650 0.67150 0.67120 0.10200
H 	H 	0.98740 0.46600 0.58360 0.18000
H 	H 	0.23780 0.75220 0.54290 0.06800
H 	H 	0.93560 0.64140 0.62150 0.09100
H 	H 	0.18810 0.89990 0.49980 0.02500
H 	H 	0.89490 0.78990 0.57550 0.00900
H 	H 	0.26660 0.65300 0.40800 0.24100
H 	H 	0.53210 0.47690 0.82050 0.06200
H 	H 	0.31990 0.53910 0.96620 0.06600
H 	H 	0.63750 0.71670 0.97970 0.07400
H 	H 	0.77220 0.65300 0.97400 0.16500
H 	H 	0.86020 0.64200 0.91560 0.15900
H 	H 	0.75960 0.49300 0.85020 0.15200
H 	H 	0.67710 0.50990 0.78580 0.13000
H 	H 	0.47510 0.69170 0.77900 0.01800
H 	H 	0.67700 0.95760 0.87030 0.04900
H 	H 	0.32850 0.73350 0.82880 0.05300
H 	H 	0.53400 0.01260 0.91640 -0.01600
H 	H 	0.24780 0.76220 0.95710 0.12200
H 	H 	0.35860 0.06440 0.87850 0.15000
H 	H 	0.10010 0.81190 0.00020 -0.06500
H 	H 	0.21010 0.10510 0.92450 -0.00100
H 	H 	0.34700 0.73340 0.09200 0.24100
H 	H 	0.47690 0.53210 0.32050 0.05900
H 	H 	0.53910 0.31990 0.46620 0.05200
H 	H 	0.71670 0.63750 0.47970 0.06100
H 	H 	0.65300 0.77220 0.47400 0.15700
H 	H 	0.64200 0.86020 0.41560 0.15500
H 	H 	0.49300 0.75960 0.35020 0.15000
H 	H 	0.50990 0.67710 0.28580 0.13000
H 	H 	0.69170 0.47510 0.27900 0.01800
H 	H 	0.95760 0.67700 0.37030 0.04600
H 	H 	0.73350 0.32850 0.32880 0.05300
H 	H 	0.01260 0.53400 0.41640 -0.02100
H 	H 	0.76220 0.24780 0.45710 0.10400
H 	H 	0.06440 0.35860 0.37850 0.14500
H 	H 	0.81190 0.10010 0.50020 -0.02400
H 	H 	0.10510 0.21010 0.42450 -0.00400
H 	H 	0.73340 0.34700 0.59200 0.24500
H 	H 	0.46790 0.52310 0.17950 0.05600
H 	H 	0.68010 0.46090 0.03380 0.04500
H 	H 	0.36250 0.28330 0.02030 0.04600
H 	H 	0.22780 0.34700 0.02600 0.14300
H 	H 	0.13980 0.35800 0.08440 0.13100
H 	H 	0.24040 0.50700 0.14980 0.14300
H 	H 	0.32290 0.49010 0.21420 0.13200
H 	H 	0.52490 0.30830 0.22100 -0.00700
H 	H 	0.32300 0.04240 0.12970 -0.05100
H 	H 	0.67150 0.26650 0.17120 0.10200
H 	H 	0.46600 0.98740 0.08360 0.17600
H 	H 	0.75220 0.23780 0.04290 0.05200
H 	H 	0.64140 0.93560 0.12150 0.08700
H 	H 	0.89990 0.18810 0.99980 0.06300
H 	H 	0.78990 0.89490 0.07550 0.00700
H 	H 	0.65300 0.26660 0.90800 0.24500
C 	C 	0.39904 0.39656 0.60390 0.03700
C 	C 	0.48190 0.48190 0.63810 -0.04100
C 	C 	0.50440 0.58660 0.61220 -0.06300
C 	C 	0.44540 0.60860 0.55170 0.00800
C 	C 	0.36330 0.52390 0.51780 -0.06500
C 	C 	0.34010 0.41910 0.54390 -0.05100
C 	C 	0.59310 0.67690 0.65090 0.33700
C 	C 	0.30030 0.54290 0.45100 0.35200
C 	C 	0.32500 0.19980 0.57540 -0.34000
C 	C 	0.20139 0.15421 0.57360 0.43600
C 	C 	0.45220 0.25980 0.68090 -0.31400
C 	C 	0.39770 0.16350 0.72730 0.38700
C 	C 	0.24350 0.51250 0.69080 0.11000
C 	C 	0.08820 0.39500 0.63870 0.15600
C 	C 	0.21850 0.60050 0.66230 -0.18600
C 	C 	0.05560 0.47980 0.61010 -0.29700
C 	C 	0.12230 0.58550 0.62000 0.15400
C 	C 	0.09250 0.67950 0.58820 -0.05200
C 	C 	0.16690 0.75870 0.55060 -0.07700
C 	C 	0.98930 0.69370 0.59660 -0.03200
C 	C 	0.13630 0.84630 0.52490 0.04200
C 	C 	0.96585 0.78215 0.56918 0.09900
C 	C 	0.60344 0.60096 0.89610 0.04800
C 	C 	0.51810 0.51810 0.86190 -0.04800
C 	C 	0.41340 0.49560 0.88780 -0.05400
C 	C 	0.39140 0.55460 0.94830 -0.00700
C 	C 	0.47610 0.63670 0.98220 -0.02800
C 	C 	0.58090 0.65990 0.95610 -0.06700
C 	C 	0.32310 0.40690 0.84910 0.33700
C 	C 	0.45710 0.69970 0.04900 0.32000
C 	C 	0.80020 0.67500 0.92460 -0.34100
C 	C 	0.84579 0.79861 0.92640 0.43100
C 	C 	0.74020 0.54780 0.81910 -0.30900
C 	C 	0.83650 0.60230 0.77270 0.38000
C 	C 	0.48750 0.75650 0.80920 0.04000
C 	C 	0.60500 0.91180 0.86130 -0.00600
C 	C 	0.39950 0.78150 0.83770 -0.05100
C 	C 	0.52020 0.94440 0.88990 0.06900
C 	C 	0.41450 0.87770 0.88000 -0.04600
C 	C 	0.32050 0.90750 0.91180 0.20900
C 	C 	0.24130 0.83310 0.94940 -0.23000
C 	C 	0.30630 0.01070 0.90340 -0.25900
C 	C 	0.15370 0.86370 0.97510 0.17900
C 	C 	0.21785 0.03415 0.93082 0.08000
C 	C 	0.60096 0.60344 0.39610 0.03600
C 	C 	0.51810 0.51810 0.36190 -0.03900
C 	C 	0.49560 0.41340 0.38780 -0.06800
C 	C 	0.55460 0.39140 0.44830 0.01100
C 	C 	0.63670 0.47610 0.48220 -0.06800
C 	C 	0.65990 0.58090 0.45610 -0.04900
C 	C 	0.40690 0.32310 0.34910 0.34100
C 	C 	0.69970 0.45710 0.54900 0.35300
C 	C 	0.67500 0.80020 0.42460 -0.33900
C 	C 	0.79861 0.84579 0.42640 0.43100
C 	C 	0.54780 0.74020 0.31910 -0.30800
C 	C 	0.60230 0.83650 0.27270 0.38000
C 	C 	0.75650 0.48750 0.30920 0.04000
C 	C 	0.91180 0.60500 0.36130 -0.00700
C 	C 	0.78150 0.39950 0.33770 -0.05300
C 	C 	0.94440 0.52020 0.38990 0.06800
C 	C 	0.87770 0.41450 0.38000 -0.04400
C 	C 	0.90750 0.32050 0.41180 0.19300
C 	C 	0.83310 0.24130 0.44940 -0.19900
C 	C 	0.01070 0.30630 0.40340 -0.25200
C 	C 	0.86370 0.15370 0.47510 0.11800
C 	C 	0.03415 0.21785 0.43082 0.06900
C 	C 	0.39656 0.39904 0.10390 0.02500
C 	C 	0.48190 0.48190 0.13810 -0.03200
C 	C 	0.58660 0.50440 0.11220 -0.07700
C 	C 	0.60860 0.44540 0.05170 0.02600
C 	C 	0.52390 0.36330 0.01780 -0.10500
C 	C 	0.41910 0.34010 0.04390 -0.03300
C 	C 	0.67690 0.59310 0.15090 0.34200
C 	C 	0.54290 0.30030 0.95100 0.38500
C 	C 	0.19980 0.32500 0.07540 -0.33700
C 	C 	0.15421 0.20139 0.07360 0.43400
C 	C 	0.25980 0.45220 0.18090 -0.31400
C 	C 	0.16350 0.39770 0.22730 0.38700
C 	C 	0.51250 0.24350 0.19080 0.11100
C 	C 	0.39500 0.08820 0.13870 0.15600
C 	C 	0.60050 0.21850 0.16230 -0.19000
C 	C 	0.47980 0.05560 0.11010 -0.30100
C 	C 	0.58550 0.12230 0.12000 0.15800
C 	C 	0.67950 0.09250 0.08820 -0.06900
C 	C 	0.75870 0.16690 0.05060 -0.04800
C 	C 	0.69370 0.98930 0.09660 -0.02300
C 	C 	0.84630 0.13630 0.02490 -0.01500
C 	C 	0.78215 0.96585 0.06918 0.08800
N 	N 	0.18170 0.40910 0.67862 -0.25500
N 	N 	0.36940 0.28876 0.63294 -0.11000
N 	N 	0.03738 0.85982 0.53330 -0.25000
N 	N 	0.59090 0.81830 0.82138 -0.20600
N 	N 	0.71124 0.63060 0.86706 -0.11100
N 	N 	0.14018 0.96262 0.96670 -0.22400
N 	N 	0.81830 0.59090 0.32138 -0.20600
N 	N 	0.63060 0.71124 0.36706 -0.11000
N 	N 	0.96262 0.14018 0.46670 -0.21900
N 	N 	0.40910 0.18170 0.17862 -0.25600
N 	N 	0.28876 0.36940 0.13294 -0.10900
N 	N 	0.85982 0.03738 0.03330 -0.24300
O 	O 	0.29807 0.14767 0.73835 -0.41200
O 	O 	0.45340 0.10380 0.74900 -0.28200
O 	O 	0.14857 0.18351 0.62424 -0.48500
O 	O 	0.16085 0.08785 0.52182 -0.48100
O 	O 	0.62718 0.65718 0.71325 -0.41200
O 	O 	0.62490 0.76450 0.61910 -0.27800
O 	O 	0.32238 0.64302 0.43135 -0.44100
O 	O 	0.23940 0.46660 0.41440 -0.27500
O 	O 	0.85233 0.70193 0.76165 -0.38100
O 	O 	0.89620 0.54660 0.75100 -0.24100
O 	O 	0.81649 0.85143 0.87576 -0.44200
O 	O 	0.91215 0.83915 0.97818 -0.39700
O 	O 	0.34282 0.37282 0.78675 -0.41400
O 	O 	0.23550 0.37510 0.88090 -0.29200
O 	O 	0.35698 0.67762 0.06865 -0.44600
O 	O 	0.53340 0.76060 0.08560 -0.26800
O 	O 	0.70193 0.85233 0.26165 -0.38200
O 	O 	0.54660 0.89620 0.25100 -0.24200
O 	O 	0.85143 0.81649 0.37576 -0.44500
O 	O 	0.83915 0.91215 0.47818 -0.41100
O 	O 	0.37282 0.34282 0.28675 -0.41600
O 	O 	0.37510 0.23550 0.38090 -0.30000
O 	O 	0.67762 0.35698 0.56865 -0.44700
O 	O 	0.76060 0.53340 0.58560 -0.27100
O 	O 	0.14767 0.29807 0.23835 -0.41300
O 	O 	0.10380 0.45340 0.24900 -0.28400
O 	O 	0.18351 0.14857 0.12424 -0.48800
O 	O 	0.08785 0.16085 0.02182 -0.49200
O 	O 	0.65718 0.62718 0.21325 -0.41300
O 	O 	0.76450 0.62490 0.11910 -0.28500
O 	O 	0.64302 0.32238 0.93135 -0.44200
O 	O 	0.46660 0.23940 0.91440 -0.27800
