data_crystal

_cell_length_a 12.42250
_cell_length_b 12.99810
_cell_length_c 14.77900
_cell_angle_alpha 64.38400
_cell_angle_beta  80.88500
_cell_angle_gamma 79.56200

_symmetry_space_group_name_	'P 1'
_symmetry_space_group_name_H-M	'P 1'

loop_
_symmetry_equiv_pos_as_xyz
  x,y,z

loop_
_atom_site_label
_atom_site_type_symbol
_atom_site_fract_x
_atom_site_fract_y
_atom_site_fract_z
_atom_site_charge
Ni	Ni	0.22886 0.21634 0.21228 1.06500
O 	O 	0.43991 0.20650 0.64687 -0.40600
N 	N 	0.28829 0.07016 0.34483 -0.10800
C 	C 	0.37072 0.17741 0.61139 0.34000
Ni	Ni	0.44943 0.17556 0.79524 1.09400
O 	O 	0.27609 0.15370 0.65467 -0.32400
N 	N 	0.74820 0.31700 0.04190 -0.12600
C 	C 	0.40290 0.16660 0.51310 -0.08000
Ni	Ni	0.80975 0.15484 0.16290 1.07300
O 	O 	0.72340 0.20080 0.36680 -0.29200
N 	N 	0.89730 0.68120 0.26320 -0.23800
C 	C 	0.50810 0.18380 0.46620 0.02400
Ni	Ni	0.84687 0.78284 0.11979 1.06900
O 	O 	0.67748 0.13930 0.26069 -0.42600
C 	C 	0.54120 0.15800 0.38330 -0.07400
O 	O 	0.47445 0.99093 0.16385 -0.43900
C 	C 	0.46880 0.11900 0.34610 -0.02500
O 	O 	0.33399 0.12858 0.13884 -0.42300
C 	C 	0.36160 0.10530 0.39060 0.01700
O 	O 	0.02820 0.97100 0.37950 -0.28800
C 	C 	0.32930 0.12860 0.47500 -0.02400
O 	O 	0.10403 0.11460 0.25306 -0.44800
C 	C 	0.65640 0.16790 0.33320 0.33700
O 	O 	0.35228 0.31240 0.17460 -0.42200
C 	C 	0.18740 0.02770 0.40830 -0.34400
O 	O 	0.30840 0.43830 0.24390 -0.29000
C 	C 	0.10030 0.03620 0.34190 0.37600
O 	O 	0.61182 0.65982 0.22845 -0.42500
C 	C 	0.34660 0.98350 0.30600 -0.39300
O 	O 	0.75495 0.66884 0.11274 -0.41600
C 	C 	0.38950 0.03830 0.19490 0.42200
O 	O 	0.94072 0.17233 0.05595 -0.47400
C 	C 	0.37390 0.38890 0.19660 0.33200
O 	O 	0.02277 0.30818 0.92558 -0.44300
C 	C 	0.66840 0.62830 0.16380 0.34600
O 	O 	0.73740 0.08855 0.08943 -0.46800
C 	C 	0.52250 0.50940 0.17790 0.01900
O 	O 	0.69470 0.12490 0.93860 -0.31800
C 	C 	0.62980 0.53500 0.14690 -0.08400
C 	C 	0.70230 0.47460 0.09950 -0.03800
C 	C 	0.67020 0.38740 0.08400 0.03000
C 	C 	0.56270 0.36230 0.11470 -0.04900
C 	C 	0.48880 0.42270 0.16180 -0.06700
O 	O 	0.28945 0.12953 0.83037 -1.00600
C 	C 	0.85200 0.36670 0.99360 -0.32300
C 	C 	0.94420 0.27330 0.99140 0.39400
C 	C 	0.70170 0.28530 0.97180 -0.27100
C 	C 	0.71280 0.15700 0.00180 0.38200
C 	C 	0.97830 0.53870 0.45030 0.05400
H 	H 	0.25930 0.15490 0.77490 0.35800
H 	H 	0.29070 0.05850 0.85850 0.42200
H 	H 	0.29630 0.93750 0.30340 0.14600
H 	H 	0.40440 0.93390 0.34430 0.16300
H 	H 	0.15440 0.07170 0.44080 0.14400
H 	H 	0.20520 0.94450 0.46460 0.14700
H 	H 	0.62170 0.31570 0.96200 0.10900
H 	H 	0.73300 0.32710 0.89950 0.11200
H 	H 	0.87510 0.39440 0.03200 0.12400
H 	H 	0.83240 0.41840 0.91370 0.11300
H 	H 	0.53920 0.30030 0.10930 0.06800
H 	H 	0.49670 0.10430 0.28220 0.05900
H 	H 	0.25310 0.11090 0.51410 0.04600
H 	H 	0.55950 0.20040 0.50050 0.04100
H 	H 	0.77750 0.49020 0.08510 0.04000
H 	H 	0.46420 0.54670 0.21920 0.03400
C 	C 	0.83409 0.61806 0.34060 0.08800
C 	C 	0.87149 0.54725 0.43370 -0.13000
C 	C 	0.00169 0.67746 0.28000 0.05600
C 	C 	0.04609 0.60845 0.37050 -0.10300
H 	H 	0.81740 0.51230 0.48440 0.08200
H 	H 	0.11960 0.62130 0.37760 0.06400
H 	H 	0.76040 0.63490 0.33340 0.00200
H 	H 	0.06010 0.72360 0.22080 -0.00400
Ni	Ni	0.77114 0.78366 0.78772 1.06400
O 	O 	0.56009 0.79350 0.35313 -0.40700
N 	N 	0.71171 0.92984 0.65517 -0.10900
C 	C 	0.62928 0.82259 0.38861 0.33900
Ni	Ni	0.55057 0.82444 0.20476 1.09300
O 	O 	0.72391 0.84630 0.34533 -0.32500
N 	N 	0.25180 0.68300 0.95810 -0.12600
C 	C 	0.59710 0.83340 0.48690 -0.08000
Ni	Ni	0.19025 0.84516 0.83710 1.07300
O 	O 	0.27660 0.79920 0.63320 -0.29200
N 	N 	0.10270 0.31880 0.73680 -0.23800
C 	C 	0.49190 0.81620 0.53380 0.02400
Ni	Ni	0.15313 0.21716 0.88021 1.06900
O 	O 	0.32252 0.86070 0.73931 -0.42600
C 	C 	0.45880 0.84200 0.61670 -0.07400
O 	O 	0.52555 0.00907 0.83615 -0.43900
C 	C 	0.53120 0.88100 0.65390 -0.02500
O 	O 	0.66601 0.87142 0.86116 -0.42300
C 	C 	0.63840 0.89470 0.60940 0.01700
O 	O 	0.97180 0.02900 0.62050 -0.28800
C 	C 	0.67070 0.87140 0.52500 -0.02400
O 	O 	0.89597 0.88540 0.74694 -0.44800
C 	C 	0.34360 0.83210 0.66680 0.33700
O 	O 	0.64772 0.68760 0.82540 -0.42200
C 	C 	0.81260 0.97230 0.59170 -0.34400
O 	O 	0.69160 0.56170 0.75610 -0.29000
C 	C 	0.89970 0.96380 0.65810 0.37600
O 	O 	0.38818 0.34018 0.77155 -0.42500
C 	C 	0.65340 0.01650 0.69400 -0.39300
O 	O 	0.24505 0.33116 0.88726 -0.41600
C 	C 	0.61050 0.96170 0.80510 0.42200
O 	O 	0.05928 0.82767 0.94405 -0.47400
C 	C 	0.62610 0.61110 0.80340 0.33200
O 	O 	0.97723 0.69182 0.07442 -0.44300
C 	C 	0.33160 0.37170 0.83620 0.34600
O 	O 	0.26260 0.91145 0.91057 -0.46800
C 	C 	0.47750 0.49060 0.82210 0.01900
O 	O 	0.30530 0.87510 0.06140 -0.31800
C 	C 	0.37020 0.46500 0.85310 -0.08400
C 	C 	0.29770 0.52540 0.90050 -0.03800
C 	C 	0.32980 0.61260 0.91600 0.03000
C 	C 	0.43730 0.63770 0.88530 -0.04900
C 	C 	0.51120 0.57730 0.83820 -0.06700
O 	O 	0.71055 0.87047 0.16963 -1.00600
C 	C 	0.14800 0.63330 0.00640 -0.32300
C 	C 	0.05580 0.72670 0.00860 0.39400
C 	C 	0.29830 0.71470 0.02820 -0.27100
C 	C 	0.28720 0.84300 0.99820 0.38200
C 	C 	0.02170 0.46130 0.54970 0.05400
H 	H 	0.74070 0.84510 0.22510 0.35800
H 	H 	0.70930 0.94150 0.14150 0.42200
H 	H 	0.70370 0.06250 0.69660 0.14600
H 	H 	0.59560 0.06610 0.65570 0.16300
H 	H 	0.84560 0.92830 0.55920 0.14400
H 	H 	0.79480 0.05550 0.53540 0.14700
H 	H 	0.37830 0.68430 0.03800 0.10900
H 	H 	0.26700 0.67290 0.10050 0.11200
H 	H 	0.12490 0.60560 0.96800 0.12400
H 	H 	0.16760 0.58160 0.08630 0.11300
H 	H 	0.46080 0.69970 0.89070 0.06800
H 	H 	0.50330 0.89570 0.71780 0.05900
H 	H 	0.74690 0.88910 0.48590 0.04600
H 	H 	0.44050 0.79960 0.49950 0.04100
H 	H 	0.22250 0.50980 0.91490 0.04000
H 	H 	0.53580 0.45330 0.78080 0.03400
C 	C 	0.16591 0.38194 0.65940 0.08800
C 	C 	0.12851 0.45275 0.56630 -0.13000
C 	C 	0.99831 0.32254 0.72000 0.05600
C 	C 	0.95391 0.39155 0.62950 -0.10300
H 	H 	0.18260 0.48770 0.51560 0.08200
H 	H 	0.88040 0.37870 0.62240 0.06400
H 	H 	0.23960 0.36510 0.66660 0.00200
H 	H 	0.93990 0.27640 0.77920 -0.00400
