data_crystal

_cell_length_a 8.54090
_cell_length_b 19.16050
_cell_length_c 11.30370
_cell_angle_alpha 90.00000
_cell_angle_beta  110.32700
_cell_angle_gamma 90.00000

_symmetry_space_group_name_	'P 1'
_symmetry_space_group_name_H-M	'P 1'

loop_
_symmetry_equiv_pos_as_xyz
  x,y,z

loop_
_atom_site_label
_atom_site_type_symbol
_atom_site_fract_x
_atom_site_fract_y
_atom_site_fract_z
_atom_site_charge
U 	U 	0.77227 0.50791 0.01616 0.07000
P 	P 	0.76597 0.61555 0.29046 0.38000
P 	P 	0.80105 0.43609 0.77488 0.37500
O 	O 	0.88460 0.67596 0.32430 -0.16100
O 	O 	0.78950 0.56419 0.19650 -0.13900
O 	O 	0.58160 0.64463 0.23690 -0.12300
O 	O 	0.82590 0.36145 0.74540 -0.16000
O 	O 	0.94080 0.46688 0.89100 -0.14900
O 	O 	0.64570 0.44823 0.81250 -0.14000
C 	C 	0.77980 0.56603 0.42850 -0.01500
C 	C 	0.80690 0.59870 0.54420 -0.02500
H 	H 	0.82160 0.64790 0.55090 0.07000
C 	C 	0.81270 0.56040 0.64900 -0.02300
H 	H 	0.83160 0.58320 0.72740 0.07600
C 	C 	0.79080 0.48784 0.64020 -0.01700
C 	C 	0.76710 0.45500 0.52580 -0.02500
H 	H 	0.75480 0.40580 0.51960 0.07800
C 	C 	0.76110 0.49380 0.42000 -0.02800
H 	H 	0.74430 0.47090 0.34200 0.09000
U 	U 	0.22773 0.00791 0.98384 0.03500
P 	P 	0.23403 0.11555 0.70954 0.37600
P 	P 	0.19895 0.93609 0.22512 0.37900
O 	O 	0.11540 0.17596 0.67570 -0.16600
O 	O 	0.21050 0.06419 0.80350 -0.14800
O 	O 	0.41840 0.14463 0.76310 -0.13000
O 	O 	0.17410 0.86145 0.25460 -0.15800
O 	O 	0.05920 0.96688 0.10900 -0.13300
O 	O 	0.35430 0.94823 0.18750 -0.12600
C 	C 	0.22020 0.06603 0.57150 0.00800
C 	C 	0.19310 0.09870 0.45580 -0.04500
H 	H 	0.17840 0.14790 0.44910 0.08000
C 	C 	0.18730 0.06040 0.35100 0.00800
H 	H 	0.16840 0.08320 0.27260 0.07800
C 	C 	0.20920 0.98784 0.35980 -0.04100
C 	C 	0.23290 0.95500 0.47420 -0.00600
H 	H 	0.24520 0.90580 0.48040 0.06700
C 	C 	0.23890 0.99380 0.58000 -0.06100
H 	H 	0.25570 0.97090 0.65800 0.08900
U 	U 	0.22773 0.49209 0.98384 0.02900
P 	P 	0.23403 0.38445 0.70954 0.38100
P 	P 	0.19895 0.56391 0.22512 0.37500
O 	O 	0.11540 0.32404 0.67570 -0.16600
O 	O 	0.21050 0.43581 0.80350 -0.15100
O 	O 	0.41840 0.35537 0.76310 -0.13100
O 	O 	0.17410 0.63855 0.25460 -0.15700
O 	O 	0.05920 0.53312 0.10900 -0.12700
O 	O 	0.35430 0.55177 0.18750 -0.12100
C 	C 	0.22020 0.43397 0.57150 -0.01900
C 	C 	0.19310 0.40130 0.45580 -0.02100
H 	H 	0.17840 0.35210 0.44910 0.07200
C 	C 	0.18730 0.43960 0.35100 -0.02700
H 	H 	0.16840 0.41680 0.27260 0.08700
C 	C 	0.20920 0.51216 0.35980 -0.01300
C 	C 	0.23290 0.54500 0.47420 -0.03000
H 	H 	0.24520 0.59420 0.48040 0.07500
C 	C 	0.23890 0.50620 0.58000 -0.02500
H 	H 	0.25570 0.52910 0.65800 0.08200
U 	U 	0.77227 0.99209 0.01616 0.06300
P 	P 	0.76597 0.88445 0.29046 0.38500
P 	P 	0.80105 0.06391 0.77488 0.37200
O 	O 	0.88460 0.82404 0.32430 -0.16100
O 	O 	0.78950 0.93581 0.19650 -0.14300
O 	O 	0.58160 0.85537 0.23690 -0.12400
O 	O 	0.82590 0.13855 0.74540 -0.16000
O 	O 	0.94080 0.03312 0.89100 -0.14300
O 	O 	0.64570 0.05177 0.81250 -0.13500
C 	C 	0.77980 0.93397 0.42850 -0.04300
C 	C 	0.80690 0.90130 0.54420 -0.00100
H 	H 	0.82160 0.85210 0.55090 0.06200
C 	C 	0.81270 0.93960 0.64900 -0.05900
H 	H 	0.83160 0.91680 0.72740 0.08500
C 	C 	0.79080 0.01216 0.64020 0.01200
C 	C 	0.76710 0.04500 0.52580 -0.04800
H 	H 	0.75480 0.09420 0.51960 0.08600
C 	C 	0.76110 0.00620 0.42000 0.00900
H 	H 	0.74430 0.02910 0.34200 0.08200
U 	U 	0.07705 0.75000 0.28024 0.02100
U 	U 	0.92295 0.25000 0.71976 0.02100
F 	F 	0.50000 0.50000 -0.00000 -0.27000
F 	F 	0.50000 0.00000 -0.00000 -0.26400
