data_crystal

_cell_length_a 38.65900
_cell_length_b 38.65900
_cell_length_c 8.56380
_cell_angle_alpha 90.00000
_cell_angle_beta  90.00000
_cell_angle_gamma 120.00000

_symmetry_space_group_name_	'P 1'
_symmetry_space_group_name_H-M	'P 1'

loop_
_symmetry_equiv_pos_as_xyz
  x,y,z

loop_
_atom_site_label
_atom_site_type_symbol
_atom_site_fract_x
_atom_site_fract_y
_atom_site_fract_z
_atom_site_charge
N 	N 	0.28370 0.96710 0.71900 -0.07500
C 	C 	0.25050 0.93220 0.76100 0.08400
C 	C 	0.21490 0.90690 0.69400 0.44900
H 	H 	0.20820 0.91270 0.59410 0.83300
C 	C 	0.18890 0.87310 0.77150 0.15200
N 	N 	0.28390 0.96420 0.71900 -0.12000
C 	C 	0.25460 0.92630 0.76300 -0.05200
C 	C 	0.22010 0.90050 0.67700 -0.48900
H 	H 	0.21400 0.90760 0.57890 -0.80900
C 	C 	0.19610 0.86460 0.74700 -0.05600
N 	N 	0.95037 0.30043 0.05233 -0.07000
C 	C 	0.91717 0.26553 0.09433 0.08800
C 	C 	0.88157 0.24023 0.02733 0.49600
H 	H 	0.87487 0.24603 0.92743 0.86100
C 	C 	0.85557 0.20643 0.10483 0.19700
N 	N 	0.95057 0.29753 0.05233 -0.11600
C 	C 	0.92127 0.25963 0.09633 -0.05400
C 	C 	0.88677 0.23383 0.01033 -0.49800
H 	H 	0.88067 0.24093 0.91223 -0.86500
C 	C 	0.86277 0.19793 0.08033 -0.09100
N 	N 	0.61703 0.63377 0.38567 -0.07300
C 	C 	0.58383 0.59887 0.42767 0.09600
C 	C 	0.54823 0.57357 0.36067 0.50400
H 	H 	0.54153 0.57937 0.26077 0.91000
C 	C 	0.52223 0.53977 0.43817 0.17700
N 	N 	0.61723 0.63087 0.38567 -0.12100
C 	C 	0.58793 0.59297 0.42967 -0.06500
C 	C 	0.55343 0.56717 0.34367 -0.53600
H 	H 	0.54733 0.57427 0.24557 -0.88800
C 	C 	0.52943 0.53127 0.41367 -0.08000
N 	N 	0.03290 0.31660 0.71900 -0.07400
C 	C 	0.06780 0.31830 0.76100 0.08500
C 	C 	0.09310 0.30800 0.69400 0.45200
H 	H 	0.08730 0.29550 0.59410 0.83900
C 	C 	0.12690 0.31580 0.77150 0.15100
N 	N 	0.03580 0.31970 0.71900 -0.12100
C 	C 	0.07370 0.32830 0.76300 -0.05300
C 	C 	0.09950 0.31960 0.67700 -0.49200
H 	H 	0.09240 0.30640 0.57890 -0.81500
C 	C 	0.13540 0.33150 0.74700 -0.05500
N 	N 	0.69957 0.64993 0.05233 -0.07000
C 	C 	0.73447 0.65163 0.09433 0.08800
C 	C 	0.75977 0.64133 0.02733 0.49800
H 	H 	0.75397 0.62883 0.92743 0.86400
C 	C 	0.79357 0.64913 0.10483 0.19800
N 	N 	0.70247 0.65303 0.05233 -0.11600
C 	C 	0.74037 0.66163 0.09633 -0.05500
C 	C 	0.76617 0.65293 0.01033 -0.50000
H 	H 	0.75907 0.63973 0.91223 -0.86900
C 	C 	0.80207 0.66483 0.08033 -0.09200
N 	N 	0.36623 0.98327 0.38567 -0.07300
C 	C 	0.40113 0.98497 0.42767 0.09800
C 	C 	0.42643 0.97467 0.36067 0.49600
H 	H 	0.42063 0.96217 0.26077 0.90200
C 	C 	0.46023 0.98247 0.43817 0.17300
N 	N 	0.36913 0.98637 0.38567 -0.12000
C 	C 	0.40703 0.99497 0.42967 -0.06200
C 	C 	0.43283 0.98627 0.34367 -0.53100
H 	H 	0.42573 0.97307 0.24557 -0.87900
C 	C 	0.46873 0.99817 0.41367 -0.07100
N 	N 	0.68340 0.71630 0.71900 -0.07400
C 	C 	0.68170 0.74950 0.76100 0.08500
C 	C 	0.69200 0.78510 0.69400 0.45200
H 	H 	0.70450 0.79180 0.59410 0.83800
C 	C 	0.68420 0.81110 0.77150 0.15400
N 	N 	0.68030 0.71610 0.71900 -0.12100
C 	C 	0.67170 0.74540 0.76300 -0.05300
C 	C 	0.68040 0.77990 0.67700 -0.49200
H 	H 	0.69360 0.78600 0.57890 -0.81400
C 	C 	0.66850 0.80390 0.74700 -0.05700
N 	N 	0.35007 0.04963 0.05233 -0.07000
C 	C 	0.34837 0.08283 0.09433 0.08900
C 	C 	0.35867 0.11843 0.02733 0.50700
H 	H 	0.37117 0.12513 0.92743 0.87500
C 	C 	0.35087 0.14443 0.10483 0.20200
N 	N 	0.34697 0.04943 0.05233 -0.11600
C 	C 	0.33837 0.07873 0.09633 -0.05700
C 	C 	0.34707 0.11323 0.01033 -0.50700
H 	H 	0.36027 0.11933 0.91223 -0.88100
C 	C 	0.33517 0.13723 0.08033 -0.09700
N 	N 	0.01673 0.38297 0.38567 -0.07300
C 	C 	0.01503 0.41617 0.42767 0.09400
C 	C 	0.02533 0.45177 0.36067 0.51600
H 	H 	0.03783 0.45847 0.26077 0.92500
C 	C 	0.01753 0.47777 0.43817 0.18300
N 	N 	0.01363 0.38277 0.38567 -0.12100
C 	C 	0.00503 0.41207 0.42967 -0.06800
C 	C 	0.01373 0.44657 0.34367 -0.54600
H 	H 	0.02693 0.45267 0.24557 -0.90600
C 	C 	0.00183 0.47057 0.41367 -0.09100
N 	N 	0.96710 0.28370 0.28100 -0.07100
C 	C 	0.93220 0.25050 0.23900 0.12700
C 	C 	0.90690 0.21490 0.30600 0.69700
H 	H 	0.91270 0.20820 0.40590 1.17200
C 	C 	0.87310 0.18890 0.22850 0.29200
N 	N 	0.96420 0.28390 0.28100 -0.12200
C 	C 	0.92630 0.25460 0.23700 -0.10700
C 	C 	0.90050 0.22010 0.32300 -0.70500
H 	H 	0.90760 0.21400 0.42110 -1.17000
C 	C 	0.86460 0.19610 0.25300 -0.20100
N 	N 	0.63377 0.61703 0.61433 -0.07300
C 	C 	0.59887 0.58383 0.57233 0.10600
C 	C 	0.57357 0.54823 0.63933 0.58200
H 	H 	0.57937 0.54153 0.73923 1.00600
C 	C 	0.53977 0.52223 0.56183 0.24400
N 	N 	0.63087 0.61723 0.61433 -0.12200
C 	C 	0.59297 0.58793 0.57033 -0.08400
C 	C 	0.56717 0.55343 0.65633 -0.60600
H 	H 	0.57427 0.54733 0.75443 -1.00000
C 	C 	0.53127 0.52943 0.58633 -0.15300
N 	N 	0.30043 0.95037 0.94767 -0.07500
C 	C 	0.26553 0.91717 0.90567 0.11600
C 	C 	0.24023 0.88157 0.97267 0.61400
H 	H 	0.24603 0.87487 0.07257 1.09000
C 	C 	0.20643 0.85557 0.89517 0.23300
N 	N 	0.29753 0.95057 0.94767 -0.12700
C 	C 	0.25963 0.92127 0.90367 -0.09500
C 	C 	0.23383 0.88677 0.98967 -0.65900
H 	H 	0.24093 0.88067 0.08777 -1.06100
C 	C 	0.19793 0.86277 0.91967 -0.14800
N 	N 	0.31660 0.03290 0.28100 -0.07100
C 	C 	0.31830 0.06780 0.23900 0.12800
C 	C 	0.30800 0.09310 0.30600 0.70000
H 	H 	0.29550 0.08730 0.40590 1.17900
C 	C 	0.31580 0.12690 0.22850 0.29200
N 	N 	0.31970 0.03580 0.28100 -0.12300
C 	C 	0.32830 0.07370 0.23700 -0.10800
C 	C 	0.31960 0.09950 0.32300 -0.70900
H 	H 	0.30640 0.09240 0.42110 -1.17700
C 	C 	0.33150 0.13540 0.25300 -0.20000
N 	N 	0.98327 0.36623 0.61433 -0.07300
C 	C 	0.98497 0.40113 0.57233 0.10800
C 	C 	0.97467 0.42643 0.63933 0.57500
H 	H 	0.96217 0.42063 0.73923 1.00100
C 	C 	0.98247 0.46023 0.56183 0.24100
N 	N 	0.98637 0.36913 0.61433 -0.12100
C 	C 	0.99497 0.40703 0.57033 -0.08200
C 	C 	0.98627 0.43283 0.65633 -0.60200
H 	H 	0.97307 0.42573 0.75443 -0.99200
C 	C 	0.99817 0.46873 0.58633 -0.14400
N 	N 	0.64993 0.69957 0.94767 -0.07500
C 	C 	0.65163 0.73447 0.90567 0.11600
C 	C 	0.64133 0.75977 0.97267 0.61600
H 	H 	0.62883 0.75397 0.07257 1.09400
C 	C 	0.64913 0.79357 0.89517 0.23400
N 	N 	0.65303 0.70247 0.94767 -0.12700
C 	C 	0.66163 0.74037 0.90367 -0.09600
C 	C 	0.65293 0.76617 0.98967 -0.66100
H 	H 	0.63973 0.75907 0.08777 -1.06500
C 	C 	0.66483 0.80207 0.91967 -0.14900
N 	N 	0.71630 0.68340 0.28100 -0.07100
C 	C 	0.74950 0.68170 0.23900 0.12700
C 	C 	0.78510 0.69200 0.30600 0.69900
H 	H 	0.79180 0.70450 0.40590 1.17600
C 	C 	0.81110 0.68420 0.22850 0.29400
N 	N 	0.71610 0.68030 0.28100 -0.12200
C 	C 	0.74540 0.67170 0.23700 -0.10800
C 	C 	0.77990 0.68040 0.32300 -0.70700
H 	H 	0.78600 0.69360 0.42110 -1.17400
C 	C 	0.80390 0.66850 0.25300 -0.20200
N 	N 	0.38297 0.01673 0.61433 -0.07300
C 	C 	0.41617 0.01503 0.57233 0.10400
C 	C 	0.45177 0.02533 0.63933 0.59400
H 	H 	0.45847 0.03783 0.73923 1.02100
C 	C 	0.47777 0.01753 0.56183 0.24900
N 	N 	0.38277 0.01363 0.61433 -0.12200
C 	C 	0.41207 0.00503 0.57033 -0.08700
C 	C 	0.44657 0.01373 0.65633 -0.61500
H 	H 	0.45267 0.02693 0.75443 -1.01700
C 	C 	0.47057 0.00183 0.58633 -0.16400
N 	N 	0.04963 0.35007 0.94767 -0.07500
C 	C 	0.08283 0.34837 0.90567 0.11800
C 	C 	0.11843 0.35867 0.97267 0.62500
H 	H 	0.12513 0.37117 0.07257 1.10600
C 	C 	0.14443 0.35087 0.89517 0.23900
N 	N 	0.04943 0.34697 0.94767 -0.12700
C 	C 	0.07873 0.33837 0.90367 -0.09800
C 	C 	0.11323 0.34707 0.98967 -0.66900
H 	H 	0.11933 0.36027 0.08777 -1.07800
C 	C 	0.13723 0.33517 0.91967 -0.15400
N 	N 	0.71630 0.03290 0.28100 -0.07100
C 	C 	0.74950 0.06780 0.23900 0.12800
C 	C 	0.78510 0.09310 0.30600 0.70200
H 	H 	0.79180 0.08730 0.40590 1.18000
C 	C 	0.81110 0.12690 0.22850 0.29300
N 	N 	0.71610 0.03580 0.28100 -0.12300
C 	C 	0.74540 0.07370 0.23700 -0.10800
C 	C 	0.77990 0.09950 0.32300 -0.71000
H 	H 	0.78600 0.09240 0.42110 -1.17900
C 	C 	0.80390 0.13540 0.25300 -0.20200
N 	N 	0.38297 0.36623 0.61433 -0.07300
C 	C 	0.41617 0.40113 0.57233 0.10600
C 	C 	0.45177 0.42643 0.63933 0.58300
H 	H 	0.45847 0.42063 0.73923 1.00800
C 	C 	0.47777 0.46023 0.56183 0.24400
N 	N 	0.38277 0.36913 0.61433 -0.12200
C 	C 	0.41207 0.40703 0.57033 -0.08400
C 	C 	0.44657 0.43283 0.65633 -0.60700
H 	H 	0.45267 0.42573 0.75443 -1.00100
C 	C 	0.47057 0.46873 0.58633 -0.15300
N 	N 	0.04963 0.69957 0.94767 -0.07500
C 	C 	0.08283 0.73447 0.90567 0.11700
C 	C 	0.11843 0.75977 0.97267 0.62100
H 	H 	0.12513 0.75397 0.07257 1.10100
C 	C 	0.14443 0.79357 0.89517 0.23700
N 	N 	0.04943 0.70247 0.94767 -0.12700
C 	C 	0.07873 0.74037 0.90367 -0.09700
C 	C 	0.11323 0.76617 0.98967 -0.66500
H 	H 	0.11933 0.75907 0.08777 -1.07200
C 	C 	0.13723 0.80207 0.91967 -0.15200
N 	N 	0.96710 0.68340 0.28100 -0.07100
C 	C 	0.93220 0.68170 0.23900 0.12700
C 	C 	0.90690 0.69200 0.30600 0.69600
H 	H 	0.91270 0.70450 0.40590 1.17100
C 	C 	0.87310 0.68420 0.22850 0.29300
N 	N 	0.96420 0.68030 0.28100 -0.12200
C 	C 	0.92630 0.67170 0.23700 -0.10700
C 	C 	0.90050 0.68040 0.32300 -0.70500
H 	H 	0.90760 0.69360 0.42110 -1.16800
C 	C 	0.86460 0.66850 0.25300 -0.20100
N 	N 	0.63377 0.01673 0.61433 -0.07300
C 	C 	0.59887 0.01503 0.57233 0.10400
C 	C 	0.57357 0.02533 0.63933 0.59400
H 	H 	0.57937 0.03783 0.73923 1.02100
C 	C 	0.53977 0.01753 0.56183 0.24900
N 	N 	0.63087 0.01363 0.61433 -0.12200
C 	C 	0.59297 0.00503 0.57033 -0.08700
C 	C 	0.56717 0.01373 0.65633 -0.61500
H 	H 	0.57427 0.02693 0.75443 -1.01600
C 	C 	0.53127 0.00183 0.58633 -0.16400
N 	N 	0.30043 0.35007 0.94767 -0.07500
C 	C 	0.26553 0.34837 0.90567 0.11700
C 	C 	0.24023 0.35867 0.97267 0.62200
H 	H 	0.24603 0.37117 0.07257 1.10200
C 	C 	0.20643 0.35087 0.89517 0.23700
N 	N 	0.29753 0.34697 0.94767 -0.12700
C 	C 	0.25963 0.33837 0.90367 -0.09700
C 	C 	0.23383 0.34707 0.98967 -0.66600
H 	H 	0.24093 0.36027 0.08777 -1.07300
C 	C 	0.19793 0.33517 0.91967 -0.15200
N 	N 	0.31660 0.28370 0.28100 -0.07100
C 	C 	0.31830 0.25050 0.23900 0.12700
C 	C 	0.30800 0.21490 0.30600 0.69800
H 	H 	0.29550 0.20820 0.40590 1.17500
C 	C 	0.31580 0.18890 0.22850 0.29100
N 	N 	0.31970 0.28390 0.28100 -0.12200
C 	C 	0.32830 0.25460 0.23700 -0.10700
C 	C 	0.31960 0.22010 0.32300 -0.70700
H 	H 	0.30640 0.21400 0.42110 -1.17300
C 	C 	0.33150 0.19610 0.25300 -0.20000
N 	N 	0.98327 0.61703 0.61433 -0.07300
C 	C 	0.98497 0.58383 0.57233 0.10800
C 	C 	0.97467 0.54823 0.63933 0.57500
H 	H 	0.96217 0.54153 0.73923 1.00000
C 	C 	0.98247 0.52223 0.56183 0.24000
N 	N 	0.98637 0.61723 0.61433 -0.12100
C 	C 	0.99497 0.58793 0.57033 -0.08100
C 	C 	0.98627 0.55343 0.65633 -0.60100
H 	H 	0.97307 0.54733 0.75443 -0.99100
C 	C 	0.99817 0.52943 0.58633 -0.14400
N 	N 	0.64993 0.95037 0.94767 -0.07500
C 	C 	0.65163 0.91717 0.90567 0.11600
C 	C 	0.64133 0.88157 0.97267 0.61200
H 	H 	0.62883 0.87487 0.07257 1.08800
C 	C 	0.64913 0.85557 0.89517 0.23200
N 	N 	0.65303 0.95057 0.94767 -0.12700
C 	C 	0.66163 0.92127 0.90367 -0.09500
C 	C 	0.65293 0.88677 0.98967 -0.65700
H 	H 	0.63973 0.88067 0.08777 -1.05800
C 	C 	0.66483 0.86277 0.91967 -0.14700
N 	N 	0.03290 0.71630 0.71900 -0.07400
C 	C 	0.06780 0.74950 0.76100 0.08500
C 	C 	0.09310 0.78510 0.69400 0.45400
H 	H 	0.08730 0.79180 0.59410 0.84200
C 	C 	0.12690 0.81110 0.77150 0.15400
N 	N 	0.03580 0.71610 0.71900 -0.12100
C 	C 	0.07370 0.74540 0.76300 -0.05400
C 	C 	0.09950 0.77990 0.67700 -0.49400
H 	H 	0.09240 0.78600 0.57890 -0.81800
C 	C 	0.13540 0.80390 0.74700 -0.05700
N 	N 	0.69957 0.04963 0.05233 -0.07000
C 	C 	0.73447 0.08283 0.09433 0.08900
C 	C 	0.75977 0.11843 0.02733 0.50400
H 	H 	0.75397 0.12513 0.92743 0.87100
C 	C 	0.79357 0.14443 0.10483 0.20100
N 	N 	0.70247 0.04943 0.05233 -0.11600
C 	C 	0.74037 0.07873 0.09633 -0.05600
C 	C 	0.76617 0.11323 0.01033 -0.50500
H 	H 	0.75907 0.11933 0.91223 -0.87600
C 	C 	0.80207 0.13723 0.08033 -0.09600
N 	N 	0.36623 0.38297 0.38567 -0.07300
C 	C 	0.40113 0.41617 0.42767 0.09600
C 	C 	0.42643 0.45177 0.36067 0.50400
H 	H 	0.42063 0.45847 0.26077 0.91100
C 	C 	0.46023 0.47777 0.43817 0.17800
N 	N 	0.36913 0.38277 0.38567 -0.12100
C 	C 	0.40703 0.41207 0.42967 -0.06500
C 	C 	0.43283 0.44657 0.34367 -0.53700
H 	H 	0.42573 0.45267 0.24557 -0.88900
C 	C 	0.46873 0.47057 0.41367 -0.08100
N 	N 	0.68340 0.96710 0.71900 -0.07400
C 	C 	0.68170 0.93220 0.76100 0.08400
C 	C 	0.69200 0.90690 0.69400 0.44900
H 	H 	0.70450 0.91270 0.59410 0.83300
C 	C 	0.68420 0.87310 0.77150 0.15300
N 	N 	0.68030 0.96420 0.71900 -0.12000
C 	C 	0.67170 0.92630 0.76300 -0.05200
C 	C 	0.68040 0.90050 0.67700 -0.48900
H 	H 	0.69360 0.90760 0.57890 -0.80800
C 	C 	0.66850 0.86460 0.74700 -0.05600
N 	N 	0.35007 0.30043 0.05233 -0.07000
C 	C 	0.34837 0.26553 0.09433 0.08900
C 	C 	0.35867 0.24023 0.02733 0.50300
H 	H 	0.37117 0.24603 0.92743 0.87100
C 	C 	0.35087 0.20643 0.10483 0.20000
N 	N 	0.34697 0.29753 0.05233 -0.11600
C 	C 	0.33837 0.25963 0.09633 -0.05600
C 	C 	0.34707 0.23383 0.01033 -0.50500
H 	H 	0.36027 0.24093 0.91223 -0.87600
C 	C 	0.33517 0.19793 0.08033 -0.09500
N 	N 	0.01673 0.63377 0.38567 -0.07300
C 	C 	0.01503 0.59887 0.42767 0.09400
C 	C 	0.02533 0.57357 0.36067 0.51600
H 	H 	0.03783 0.57937 0.26077 0.92500
C 	C 	0.01753 0.53977 0.43817 0.18300
N 	N 	0.01363 0.63087 0.38567 -0.12100
C 	C 	0.00503 0.59297 0.42967 -0.06800
C 	C 	0.01373 0.56717 0.34367 -0.54600
H 	H 	0.02693 0.57427 0.24557 -0.90500
C 	C 	0.00183 0.53127 0.41367 -0.09100
N 	N 	0.28370 0.31660 0.71900 -0.07400
C 	C 	0.25050 0.31830 0.76100 0.08400
C 	C 	0.21490 0.30800 0.69400 0.45000
H 	H 	0.20820 0.29550 0.59410 0.83600
C 	C 	0.18890 0.31580 0.77150 0.15100
N 	N 	0.28390 0.31970 0.71900 -0.12100
C 	C 	0.25460 0.32830 0.76300 -0.05300
C 	C 	0.22010 0.31960 0.67700 -0.49000
H 	H 	0.21400 0.30640 0.57890 -0.81100
C 	C 	0.19610 0.33150 0.74700 -0.05400
N 	N 	0.95037 0.64993 0.05233 -0.07000
C 	C 	0.91717 0.65163 0.09433 0.08800
C 	C 	0.88157 0.64133 0.02733 0.49500
H 	H 	0.87487 0.62883 0.92743 0.85900
C 	C 	0.85557 0.64913 0.10483 0.19600
N 	N 	0.95057 0.65303 0.05233 -0.11600
C 	C 	0.92127 0.66163 0.09633 -0.05400
C 	C 	0.88677 0.65293 0.01033 -0.49700
H 	H 	0.88067 0.63973 0.91223 -0.86300
C 	C 	0.86277 0.66483 0.08033 -0.09000
N 	N 	0.61703 0.98327 0.38567 -0.07300
C 	C 	0.58383 0.98497 0.42767 0.09800
C 	C 	0.54823 0.97467 0.36067 0.49500
H 	H 	0.54153 0.96217 0.26077 0.90100
C 	C 	0.52223 0.98247 0.43817 0.17300
N 	N 	0.61723 0.98637 0.38567 -0.12000
C 	C 	0.58793 0.99497 0.42967 -0.06200
C 	C 	0.55343 0.98627 0.34367 -0.53100
H 	H 	0.54733 0.97307 0.24557 -0.87800
C 	C 	0.52943 0.99817 0.41367 -0.07000
Mn	Mn	0.36959 0.03626 0.83333 1.21200
N 	N 	0.31042 0.97709 0.83333 -0.19500
Mn	Mn	0.96374 0.33333 0.83333 1.21300
N 	N 	0.02291 0.33333 0.83333 -0.19800
Mn	Mn	0.66667 0.63041 0.83333 1.21200
N 	N 	0.66667 0.68958 0.83333 -0.19700
Mn	Mn	0.03626 0.36959 0.16667 1.22300
N 	N 	0.97709 0.31042 0.16667 -0.18700
Mn	Mn	0.70292 0.70292 0.50000 1.21900
N 	N 	0.64375 0.64375 0.50000 -0.19200
Mn	Mn	0.33333 0.96374 0.16667 1.22400
N 	N 	0.33333 0.02291 0.16667 -0.18900
Mn	Mn	-0.00000 0.29708 0.50000 1.21800
N 	N 	-0.00000 0.35625 0.50000 -0.19400
Mn	Mn	0.63041 0.66667 0.16667 1.22300
N 	N 	0.68958 0.66667 0.16667 -0.18800
Mn	Mn	0.29708 0.00000 0.50000 1.21800
N 	N 	0.35625 0.00000 0.50000 -0.19400
Mn	Mn	0.63041 0.96374 0.16667 1.22400
N 	N 	0.68958 0.02291 0.16667 -0.18900
Mn	Mn	0.29708 0.29708 0.50000 1.21900
N 	N 	0.35625 0.35625 0.50000 -0.19200
Mn	Mn	0.03626 0.66667 0.16667 1.22300
N 	N 	0.97709 0.66667 0.16667 -0.18700
Mn	Mn	0.70292 0.00000 0.50000 1.21800
N 	N 	0.64375 0.00000 0.50000 -0.19400
Mn	Mn	0.33333 0.36959 0.16667 1.22300
N 	N 	0.33333 0.31042 0.16667 -0.18800
Mn	Mn	-0.00000 0.70292 0.50000 1.21800
N 	N 	-0.00000 0.64375 0.50000 -0.19400
Mn	Mn	0.96374 0.63041 0.83333 1.21300
N 	N 	0.02291 0.68958 0.83333 -0.19800
Mn	Mn	0.66667 0.03626 0.83333 1.21200
N 	N 	0.66667 0.97709 0.83333 -0.19500
Mn	Mn	0.36959 0.33333 0.83333 1.21200
N 	N 	0.31042 0.33333 0.83333 -0.19700
Cl	Cl	0.39684 0.00000 -0.00000 -0.61000
Cl	Cl	0.06351 0.33333 0.33333 -0.62600
Cl	Cl	0.73017 0.66667 0.66667 -0.62900
Cl	Cl	-0.00000 0.39684 -0.00000 -0.61000
Cl	Cl	0.66667 0.73017 0.33333 -0.62500
Cl	Cl	0.33333 0.06351 0.66667 -0.63000
Cl	Cl	0.60316 0.60316 -0.00000 -0.60700
Cl	Cl	0.26983 0.93649 0.33333 -0.62300
Cl	Cl	0.93649 0.26983 0.66667 -0.62700
Cl	Cl	0.60316 0.00000 -0.00000 -0.61000
Cl	Cl	0.26983 0.33333 0.33333 -0.62500
Cl	Cl	0.93649 0.66667 0.66667 -0.62700
Cl	Cl	-0.00000 0.60316 -0.00000 -0.61000
Cl	Cl	0.66667 0.93649 0.33333 -0.62300
Cl	Cl	0.33333 0.26983 0.66667 -0.62900
Cl	Cl	0.39684 0.39684 -0.00000 -0.60700
Cl	Cl	0.06351 0.73017 0.33333 -0.62600
Cl	Cl	0.73017 0.06351 0.66667 -0.63000
O 	O 	0.15150 0.84850 0.70820 -0.26100
O 	O 	0.16230 0.83770 0.66640 0.02800
O 	O 	0.81817 0.18183 0.04153 -0.21400
O 	O 	0.82897 0.17103 0.99973 -0.03000
O 	O 	0.48483 0.51517 0.37487 -0.28400
O 	O 	0.49563 0.50437 0.33307 0.05400
O 	O 	0.15150 0.30300 0.70820 -0.26000
O 	O 	0.16230 0.32460 0.66640 0.02700
O 	O 	0.81817 0.63633 0.04153 -0.21300
O 	O 	0.82897 0.65793 0.99973 -0.03100
O 	O 	0.48483 0.96967 0.37487 -0.27800
O 	O 	0.49563 0.99127 0.33307 0.04700
O 	O 	0.69700 0.84850 0.70820 -0.26100
O 	O 	0.67540 0.83770 0.66640 0.02800
O 	O 	0.36367 0.18183 0.04153 -0.21700
O 	O 	0.34207 0.17103 0.99973 -0.02700
O 	O 	0.03033 0.51517 0.37487 -0.29100
O 	O 	0.00873 0.50437 0.33307 0.06100
O 	O 	0.84850 0.15150 0.29180 -0.39100
O 	O 	0.83770 0.16230 0.33360 0.15800
O 	O 	0.51517 0.48483 0.62513 -0.34300
O 	O 	0.50437 0.49563 0.66693 0.10600
O 	O 	0.18183 0.81817 0.95847 -0.40600
O 	O 	0.17103 0.82897 0.00027 0.18100
O 	O 	0.30300 0.15150 0.29180 -0.39100
O 	O 	0.32460 0.16230 0.33360 0.15700
O 	O 	0.96967 0.48483 0.62513 -0.33800
O 	O 	0.99127 0.49563 0.66693 0.10000
O 	O 	0.63633 0.81817 0.95847 -0.40400
O 	O 	0.65793 0.82897 0.00027 0.18000
O 	O 	0.84850 0.69700 0.29180 -0.39100
O 	O 	0.83770 0.67540 0.33360 0.15800
O 	O 	0.51517 0.03033 0.62513 -0.35000
O 	O 	0.50437 0.00873 0.66693 0.11300
O 	O 	0.18183 0.36367 0.95847 -0.41000
O 	O 	0.17103 0.34207 0.00027 0.18500
