data_crystal

_cell_length_a 15.03500
_cell_length_b 15.03500
_cell_length_c 19.29400
_cell_angle_alpha 90.00000
_cell_angle_beta  90.00000
_cell_angle_gamma 90.00000

_symmetry_space_group_name_	'P 1'
_symmetry_space_group_name_H-M	'P 1'

loop_
_symmetry_equiv_pos_as_xyz
  x,y,z

loop_
_atom_site_label
_atom_site_type_symbol
_atom_site_fract_x
_atom_site_fract_y
_atom_site_fract_z
_atom_site_charge
O 	O 	0.05230 0.87790 0.05730 -0.48200
C 	C 	0.16900 0.73420 0.06230 0.21800
O 	O 	0.14160 0.75720 0.12160 -0.37700
H 	H 	0.10670 0.80050 0.11770 0.26900
C 	C 	0.02300 0.90930 0.20920 -0.19700
C 	C 	0.92300 0.05100 0.20830 -0.48200
O 	O 	0.55230 0.37790 0.55730 -0.49400
C 	C 	0.66900 0.23420 0.56230 0.21600
O 	O 	0.64160 0.25720 0.62160 -0.37300
H 	H 	0.60670 0.30050 0.61770 0.26900
C 	C 	0.52300 0.40930 0.70920 0.01400
C 	C 	0.42300 0.55100 0.70830 0.00400
O 	O 	0.94770 0.12210 0.05730 -0.47600
C 	C 	0.83100 0.26580 0.06230 0.21600
O 	O 	0.85840 0.24280 0.12160 -0.37200
H 	H 	0.89330 0.19950 0.11770 0.27100
C 	C 	0.97700 0.09070 0.20920 0.26900
C 	C 	0.07700 0.94900 0.20830 0.51000
O 	O 	0.44770 0.62210 0.55730 -0.49400
C 	C 	0.33100 0.76580 0.56230 0.21700
O 	O 	0.35840 0.74280 0.62160 -0.37000
H 	H 	0.39330 0.69950 0.61770 0.26900
C 	C 	0.47700 0.59070 0.70920 0.01900
C 	C 	0.57700 0.44900 0.70830 0.01000
O 	O 	0.12210 0.05230 0.05730 -0.51000
C 	C 	0.26580 0.16900 0.06230 0.21400
O 	O 	0.24280 0.14160 0.12160 -0.38300
H 	H 	0.19950 0.10670 0.11770 0.27000
C 	C 	0.09070 0.02300 0.20920 -0.51300
C 	C 	0.94900 0.92300 0.20830 -0.21100
O 	O 	0.62210 0.55230 0.55730 -0.49300
C 	C 	0.76580 0.66900 0.56230 0.21900
O 	O 	0.74280 0.64160 0.62160 -0.36700
H 	H 	0.69950 0.60670 0.61770 0.26900
C 	C 	0.59070 0.52300 0.70920 0.01600
C 	C 	0.44900 0.42300 0.70830 0.00500
O 	O 	0.87790 0.94770 0.05730 -0.45800
C 	C 	0.73420 0.83100 0.06230 0.21900
O 	O 	0.75720 0.85840 0.12160 -0.36800
H 	H 	0.80050 0.89330 0.11770 0.26800
C 	C 	0.90930 0.97700 0.20920 0.55800
C 	C 	0.05100 0.07700 0.20830 0.22500
O 	O 	0.37790 0.44770 0.55730 -0.49600
C 	C 	0.23420 0.33100 0.56230 0.21300
O 	O 	0.25720 0.35840 0.62160 -0.37700
H 	H 	0.30050 0.39330 0.61770 0.26800
C 	C 	0.40930 0.47700 0.70920 0.01800
C 	C 	0.55100 0.57700 0.70830 0.00900
O 	O 	0.94770 0.87790 0.44270 -0.46200
C 	C 	0.83100 0.73420 0.43770 0.21700
O 	O 	0.85840 0.75720 0.37840 -0.36600
H 	H 	0.89330 0.80050 0.38230 0.26700
C 	C 	0.97700 0.90930 0.29080 0.55800
C 	C 	0.07700 0.05100 0.29170 0.22300
O 	O 	0.44770 0.37790 0.94270 -0.46300
C 	C 	0.33100 0.23420 0.93770 0.24500
O 	O 	0.35840 0.25720 0.87840 -0.38500
H 	H 	0.39330 0.30050 0.88230 0.27500
C 	C 	0.47700 0.40930 0.79080 0.01800
C 	C 	0.57700 0.55100 0.79170 0.00800
O 	O 	0.05230 0.12210 0.44270 -0.51500
C 	C 	0.16900 0.26580 0.43770 0.21300
O 	O 	0.14160 0.24280 0.37840 -0.38100
H 	H 	0.10670 0.19950 0.38230 0.26900
C 	C 	0.02300 0.09070 0.29080 -0.51200
C 	C 	0.92300 0.94900 0.29170 -0.20900
O 	O 	0.55230 0.62210 0.94270 -0.46000
C 	C 	0.66900 0.76580 0.93770 0.25200
O 	O 	0.64160 0.74280 0.87840 -0.37600
H 	H 	0.60670 0.69950 0.88230 0.27600
C 	C 	0.52300 0.59070 0.79080 0.01600
C 	C 	0.42300 0.44900 0.79170 0.00500
O 	O 	0.87790 0.05230 0.44270 -0.48700
C 	C 	0.73420 0.16900 0.43770 0.21500
O 	O 	0.75720 0.14160 0.37840 -0.37600
H 	H 	0.80050 0.10670 0.38230 0.26700
C 	C 	0.90930 0.02300 0.29080 -0.20000
C 	C 	0.05100 0.92300 0.29170 -0.48500
O 	O 	0.37790 0.55230 0.94270 -0.46200
C 	C 	0.23420 0.66900 0.93770 0.24800
O 	O 	0.25720 0.64160 0.87840 -0.38200
H 	H 	0.30050 0.60670 0.88230 0.27500
C 	C 	0.40930 0.52300 0.79080 0.01500
C 	C 	0.55100 0.42300 0.79170 0.00400
O 	O 	0.12210 0.94770 0.44270 -0.47900
C 	C 	0.26580 0.83100 0.43770 0.21500
O 	O 	0.24280 0.85840 0.37840 -0.36900
H 	H 	0.19950 0.89330 0.38230 0.27000
C 	C 	0.09070 0.97700 0.29080 0.27300
C 	C 	0.94900 0.07700 0.29170 0.51300
O 	O 	0.62210 0.44770 0.94270 -0.46000
C 	C 	0.76580 0.33100 0.93770 0.24900
O 	O 	0.74280 0.35840 0.87840 -0.37800
H 	H 	0.69950 0.39330 0.88230 0.27600
C 	C 	0.59070 0.47700 0.79080 0.02000
C 	C 	0.44900 0.57700 0.79170 0.01000
O 	O 	0.94770 0.12210 0.94270 -0.44700
C 	C 	0.83100 0.26580 0.93770 0.24700
O 	O 	0.85840 0.24280 0.87840 -0.37600
H 	H 	0.89330 0.19950 0.88230 0.27700
C 	C 	0.97700 0.09070 0.79080 0.27100
C 	C 	0.07700 0.94900 0.79170 0.51100
O 	O 	0.44770 0.62210 0.44270 -0.49400
C 	C 	0.33100 0.76580 0.43770 0.21700
O 	O 	0.35840 0.74280 0.37840 -0.37100
H 	H 	0.39330 0.69950 0.38230 0.26900
C 	C 	0.47700 0.59070 0.29080 0.01900
C 	C 	0.57700 0.44900 0.29170 0.01000
O 	O 	0.05230 0.87790 0.94270 -0.45500
C 	C 	0.16900 0.73420 0.93770 0.24700
O 	O 	0.14160 0.75720 0.87840 -0.38300
H 	H 	0.10670 0.80050 0.88230 0.27400
C 	C 	0.02300 0.90930 0.79080 -0.19700
C 	C 	0.92300 0.05100 0.79170 -0.48300
O 	O 	0.55230 0.37790 0.44270 -0.49500
C 	C 	0.66900 0.23420 0.43770 0.21500
O 	O 	0.64160 0.25720 0.37840 -0.37500
H 	H 	0.60670 0.30050 0.38230 0.26900
C 	C 	0.52300 0.40930 0.29080 0.01400
C 	C 	0.42300 0.55100 0.29170 0.00300
O 	O 	0.87790 0.94770 0.94270 -0.43000
C 	C 	0.73420 0.83100 0.93770 0.24900
O 	O 	0.75720 0.85840 0.87840 -0.37200
H 	H 	0.80050 0.89330 0.88230 0.27400
C 	C 	0.90930 0.97700 0.79080 0.56000
C 	C 	0.05100 0.07700 0.79170 0.22500
O 	O 	0.37790 0.44770 0.44270 -0.49600
C 	C 	0.23420 0.33100 0.43770 0.21300
O 	O 	0.25720 0.35840 0.37840 -0.37800
H 	H 	0.30050 0.39330 0.38230 0.26800
C 	C 	0.40930 0.47700 0.29080 0.01800
C 	C 	0.55100 0.57700 0.29170 0.00800
O 	O 	0.12210 0.05230 0.94270 -0.48200
C 	C 	0.26580 0.16900 0.93770 0.24500
O 	O 	0.24280 0.14160 0.87840 -0.38800
H 	H 	0.19950 0.10670 0.88230 0.27600
C 	C 	0.09070 0.02300 0.79080 -0.51200
C 	C 	0.94900 0.92300 0.79170 -0.21100
O 	O 	0.62210 0.55230 0.44270 -0.49300
C 	C 	0.76580 0.66900 0.43770 0.21900
O 	O 	0.74280 0.64160 0.37840 -0.36900
H 	H 	0.69950 0.60670 0.38230 0.26900
C 	C 	0.59070 0.52300 0.29080 0.01600
C 	C 	0.44900 0.42300 0.29170 0.00400
O 	O 	0.05230 0.12210 0.55730 -0.51400
C 	C 	0.16900 0.26580 0.56230 0.21300
O 	O 	0.14160 0.24280 0.62160 -0.38000
H 	H 	0.10670 0.19950 0.61770 0.26900
C 	C 	0.02300 0.09070 0.70920 -0.51200
C 	C 	0.92300 0.94900 0.70830 -0.20900
O 	O 	0.55230 0.62210 0.05730 -0.48900
C 	C 	0.66900 0.76580 0.06230 0.22100
O 	O 	0.64160 0.74280 0.12160 -0.37100
H 	H 	0.60670 0.69950 0.11770 0.27000
C 	C 	0.52300 0.59070 0.20920 0.01500
C 	C 	0.42300 0.44900 0.20830 0.00400
O 	O 	0.94770 0.87790 0.55730 -0.46200
C 	C 	0.83100 0.73420 0.56230 0.21700
O 	O 	0.85840 0.75720 0.62160 -0.36400
H 	H 	0.89330 0.80050 0.61770 0.26700
C 	C 	0.97700 0.90930 0.70920 0.55900
C 	C 	0.07700 0.05100 0.70830 0.22400
O 	O 	0.44770 0.37790 0.05730 -0.49200
C 	C 	0.33100 0.23420 0.06230 0.21400
O 	O 	0.35840 0.25720 0.12160 -0.38000
H 	H 	0.39330 0.30050 0.11770 0.26900
C 	C 	0.47700 0.40930 0.20920 0.01700
C 	C 	0.57700 0.55100 0.20830 0.00800
O 	O 	0.12210 0.94770 0.55730 -0.47900
C 	C 	0.26580 0.83100 0.56230 0.21500
O 	O 	0.24280 0.85840 0.62160 -0.36800
H 	H 	0.19950 0.89330 0.61770 0.27000
C 	C 	0.09070 0.97700 0.70920 0.27300
C 	C 	0.94900 0.07700 0.70830 0.51300
O 	O 	0.62210 0.44770 0.05730 -0.49000
C 	C 	0.76580 0.33100 0.06230 0.21800
O 	O 	0.74280 0.35840 0.12160 -0.37300
H 	H 	0.69950 0.39330 0.11770 0.26900
C 	C 	0.59070 0.47700 0.20920 0.01800
C 	C 	0.44900 0.57700 0.20830 0.00900
O 	O 	0.87790 0.05230 0.55730 -0.48700
C 	C 	0.73420 0.16900 0.56230 0.21500
O 	O 	0.75720 0.14160 0.62160 -0.37500
H 	H 	0.80050 0.10670 0.61770 0.26700
C 	C 	0.90930 0.02300 0.70920 -0.20000
C 	C 	0.05100 0.92300 0.70830 -0.48500
O 	O 	0.37790 0.55230 0.05730 -0.49100
C 	C 	0.23420 0.66900 0.06230 0.21700
O 	O 	0.25720 0.64160 0.12160 -0.37800
H 	H 	0.30050 0.60670 0.11770 0.26900
C 	C 	0.40930 0.52300 0.20920 0.01400
C 	C 	0.55100 0.42300 0.20830 0.00300
Zn	Zn	-0.00000 -0.00000 0.07719 1.18900
N 	N 	0.00000 0.00000 0.18400 -0.28200
Zn	Zn	0.50000 0.50000 0.57719 1.22000
N 	N 	0.50000 0.50000 0.68400 -0.22100
Zn	Zn	0.00000 0.00000 0.42281 1.19200
N 	N 	-0.00000 -0.00000 0.31600 -0.28200
Zn	Zn	0.50000 0.50000 0.92281 1.22100
N 	N 	0.50000 0.50000 0.81600 -0.22100
Zn	Zn	0.00000 -0.00000 0.92281 1.19400
N 	N 	-0.00000 -0.00000 0.81600 -0.28300
Zn	Zn	0.50000 0.50000 0.42281 1.22000
N 	N 	0.50000 0.50000 0.31600 -0.22000
Zn	Zn	-0.00000 -0.00000 0.57719 1.19200
N 	N 	0.00000 -0.00000 0.68400 -0.28300
Zn	Zn	0.50000 0.50000 0.07719 1.21600
N 	N 	0.50000 0.50000 0.18400 -0.22000
C 	C 	0.07670 0.84800 -0.00000 0.43200
C 	C 	0.13750 0.76990 -0.00000 -0.28400
C 	C 	0.57670 0.34800 0.50000 0.47100
C 	C 	0.63750 0.26990 0.50000 -0.25500
C 	C 	0.92330 0.15200 -0.00000 0.42800
C 	C 	0.86250 0.23010 -0.00000 -0.28000
C 	C 	0.42330 0.65200 0.50000 0.47200
C 	C 	0.36250 0.73010 0.50000 -0.25300
C 	C 	0.15200 0.07670 -0.00000 0.43100
C 	C 	0.23010 0.13750 -0.00000 -0.29200
C 	C 	0.65200 0.57670 0.50000 0.47300
C 	C 	0.73010 0.63750 0.50000 -0.25100
C 	C 	0.84800 0.92330 -0.00000 0.43000
C 	C 	0.76990 0.86250 -0.00000 -0.27400
C 	C 	0.34800 0.42330 0.50000 0.47000
C 	C 	0.26990 0.36250 0.50000 -0.25700
C 	C 	0.92330 0.84800 0.50000 0.46800
C 	C 	0.86250 0.76990 0.50000 -0.24400
C 	C 	0.42330 0.34800 -0.00000 0.43200
C 	C 	0.36250 0.26990 -0.00000 -0.28700
C 	C 	0.07670 0.15200 0.50000 0.46800
C 	C 	0.13750 0.23010 0.50000 -0.26200
C 	C 	0.57670 0.65200 -0.00000 0.43400
C 	C 	0.63750 0.73010 -0.00000 -0.28200
C 	C 	0.84800 0.07670 0.50000 0.46900
C 	C 	0.76990 0.13750 0.50000 -0.25400
C 	C 	0.34800 0.57670 -0.00000 0.43300
C 	C 	0.26990 0.63750 -0.00000 -0.28500
C 	C 	0.15200 0.92330 0.50000 0.46500
C 	C 	0.23010 0.86250 0.50000 -0.24900
C 	C 	0.65200 0.42330 -0.00000 0.43300
C 	C 	0.73010 0.36250 -0.00000 -0.28400
