data_crystal

_cell_length_a 15.50190
_cell_length_b 15.50190
_cell_length_c 12.30600
_cell_angle_alpha 90.00000
_cell_angle_beta  90.00000
_cell_angle_gamma 90.00000

_symmetry_space_group_name_	'P 1'
_symmetry_space_group_name_H-M	'P 1'

loop_
_symmetry_equiv_pos_as_xyz
  x,y,z

loop_
_atom_site_label
_atom_site_type_symbol
_atom_site_fract_x
_atom_site_fract_y
_atom_site_fract_z
_atom_site_charge
O 	O 	0.61350 0.38170 0.61820 -0.66100
O 	O 	0.58810 0.29120 0.75450 -0.54000
C 	C 	0.58290 0.36430 0.71040 0.50400
C 	C 	0.53910 0.43248 0.76930 -0.16800
C 	C 	0.53910 0.43248 0.88280 0.01300
H 	H 	0.56840 0.38170 0.92540 0.05000
O 	O 	0.11350 0.88170 0.11820 -0.67900
O 	O 	0.08810 0.79120 0.25450 -0.55500
C 	C 	0.08290 0.86430 0.21040 0.50800
C 	C 	0.03910 0.93248 0.26930 -0.18300
C 	C 	0.03910 0.93248 0.38280 0.07100
H 	H 	0.06840 0.88170 0.42540 0.01300
O 	O 	0.88650 0.11830 0.11820 -0.68300
O 	O 	0.91190 0.20880 0.25450 -0.55500
C 	C 	0.91710 0.13570 0.21040 0.50900
C 	C 	0.96090 0.06752 0.26930 -0.19200
C 	C 	0.96090 0.06752 0.38280 0.06200
H 	H 	0.93160 0.11830 0.42540 0.01500
O 	O 	0.38650 0.61830 0.61820 -0.66200
O 	O 	0.41190 0.70880 0.75450 -0.53800
C 	C 	0.41710 0.63570 0.71040 0.50300
C 	C 	0.46090 0.56752 0.76930 -0.16800
C 	C 	0.46090 0.56752 0.88280 0.01200
H 	H 	0.43160 0.61830 0.92540 0.05100
O 	O 	0.61830 0.11350 0.86820 -0.71400
O 	O 	0.70880 0.08810 0.00450 -0.66300
C 	C 	0.63570 0.08290 0.96040 0.74700
C 	C 	0.56752 0.03910 0.01930 -0.49400
C 	C 	0.56752 0.03910 0.13280 0.20200
H 	H 	0.61830 0.06840 0.17540 -0.03000
O 	O 	0.11830 0.61350 0.36820 -0.67200
O 	O 	0.20880 0.58810 0.50450 -0.55200
C 	C 	0.13570 0.58290 0.46040 0.51600
C 	C 	0.06752 0.53910 0.51930 -0.20900
C 	C 	0.06752 0.53910 0.63280 0.07700
H 	H 	0.11830 0.56840 0.67540 0.01100
O 	O 	0.88170 0.38650 0.36820 -0.66900
O 	O 	0.79120 0.41190 0.50450 -0.55000
C 	C 	0.86430 0.41710 0.46040 0.51500
C 	C 	0.93248 0.46090 0.51930 -0.20100
C 	C 	0.93248 0.46090 0.63280 0.08400
H 	H 	0.88170 0.43160 0.67540 0.01000
O 	O 	0.38170 0.88650 0.86820 -0.70700
O 	O 	0.29120 0.91190 0.00450 -0.66100
C 	C 	0.36430 0.91710 0.96040 0.75000
C 	C 	0.43248 0.96090 0.01930 -0.48000
C 	C 	0.43248 0.96090 0.13280 0.22000
H 	H 	0.38170 0.93160 0.17540 -0.03000
O 	O 	0.88650 0.38170 0.13180 -0.61400
O 	O 	0.91190 0.29120 0.99550 -0.43000
C 	C 	0.91710 0.36430 0.03960 0.26800
C 	C 	0.96090 0.43248 0.98070 0.11700
C 	C 	0.96090 0.43248 0.86720 -0.09500
H 	H 	0.93160 0.38170 0.82460 0.06300
O 	O 	0.38650 0.88170 0.63180 -0.65300
O 	O 	0.41190 0.79120 0.49550 -0.54600
C 	C 	0.41710 0.86430 0.53960 0.50200
C 	C 	0.46090 0.93248 0.48070 -0.16200
C 	C 	0.46090 0.93248 0.36720 0.04200
H 	H 	0.43160 0.88170 0.32460 0.02100
O 	O 	0.61350 0.11830 0.63180 -0.66100
O 	O 	0.58810 0.20880 0.49550 -0.54900
C 	C 	0.58290 0.13570 0.53960 0.50400
C 	C 	0.53910 0.06752 0.48070 -0.17900
C 	C 	0.53910 0.06752 0.36720 0.02500
H 	H 	0.56840 0.11830 0.32460 0.02200
O 	O 	0.11350 0.61830 0.13180 -0.61700
O 	O 	0.08810 0.70880 0.99550 -0.43000
C 	C 	0.08290 0.63570 0.03960 0.26900
C 	C 	0.03910 0.56752 0.98070 0.11000
C 	C 	0.03910 0.56752 0.86720 -0.10300
H 	H 	0.06840 0.61830 0.82460 0.06300
O 	O 	0.88170 0.11350 0.88180 -0.63700
O 	O 	0.79120 0.08810 0.74550 -0.54200
C 	C 	0.86430 0.08290 0.78960 0.50200
C 	C 	0.93248 0.03910 0.73070 -0.17400
C 	C 	0.93248 0.03910 0.61720 0.05400
H 	H 	0.88170 0.06840 0.57460 0.01600
O 	O 	0.38170 0.61350 0.38180 -0.66900
O 	O 	0.29120 0.58810 0.24550 -0.56100
C 	C 	0.36430 0.58290 0.28960 0.52100
C 	C 	0.43248 0.53910 0.23070 -0.22500
C 	C 	0.43248 0.53910 0.11720 0.09100
H 	H 	0.38170 0.56840 0.07460 -0.01700
O 	O 	0.61830 0.38650 0.38180 -0.67000
O 	O 	0.70880 0.41190 0.24550 -0.55900
C 	C 	0.63570 0.41710 0.28960 0.52100
C 	C 	0.56752 0.46090 0.23070 -0.22400
C 	C 	0.56752 0.46090 0.11720 0.09100
H 	H 	0.61830 0.43160 0.07460 -0.01600
O 	O 	0.11830 0.88650 0.88180 -0.63200
O 	O 	0.20880 0.91190 0.74550 -0.53700
C 	C 	0.13570 0.91710 0.78960 0.50100
C 	C 	0.06752 0.96090 0.73070 -0.16300
C 	C 	0.06752 0.96090 0.61720 0.06400
H 	H 	0.11830 0.93160 0.57460 0.01700
In	In	0.67190 0.32810 0.50000 2.01600
In	In	0.17190 0.82810 -0.00000 1.99800
In	In	0.82810 0.17190 -0.00000 1.99800
In	In	0.32810 0.67190 0.50000 2.01600
In	In	0.67190 0.17190 0.75000 2.01900
In	In	0.17190 0.67190 0.25000 2.01300
In	In	0.82810 0.32810 0.25000 2.01300
In	In	0.32810 0.82810 0.75000 2.01900
O 	O 	0.75750 0.25000 0.62500 -0.71500
H 	H 	0.81550 0.25000 0.62500 0.25700
O 	O 	0.25750 0.75000 0.12500 -0.72800
H 	H 	0.31550 0.75000 0.12500 0.25000
O 	O 	0.74250 0.25000 0.12500 -0.72800
H 	H 	0.68450 0.25000 0.12500 0.25000
O 	O 	0.24250 0.75000 0.62500 -0.71500
H 	H 	0.18450 0.75000 0.62500 0.25700
O 	O 	0.75000 0.25750 0.87500 -0.69800
H 	H 	0.75000 0.31550 0.87500 0.26400
O 	O 	0.25000 0.75750 0.37500 -0.71600
H 	H 	0.25000 0.81550 0.37500 0.25900
O 	O 	0.75000 0.24250 0.37500 -0.71600
H 	H 	0.75000 0.18450 0.37500 0.25700
O 	O 	0.25000 0.74250 0.87500 -0.69800
H 	H 	0.25000 0.68450 0.87500 0.26400
C 	C 	0.50000 0.50000 0.71260 0.10700
C 	C 	0.50000 0.50000 0.93950 0.07600
H 	H 	0.50000 0.50000 0.62730 0.02300
C 	C 	0.00000 0.00000 0.21260 0.09100
C 	C 	-0.00000 -0.00000 0.43950 -0.06300
H 	H 	0.00000 0.00000 0.12730 0.00300
C 	C 	0.50000 0.00000 0.96260 0.43200
C 	C 	0.50000 0.00000 0.18950 -0.17100
H 	H 	0.50000 0.00000 0.87730 -0.06300
C 	C 	0.00000 0.50000 0.46260 0.12500
C 	C 	-0.00000 0.50000 0.68950 -0.08800
H 	H 	0.00000 0.50000 0.37730 0.01000
C 	C 	0.00000 0.50000 0.03740 -0.22100
C 	C 	-0.00000 0.50000 0.81050 0.08000
H 	H 	0.00000 0.50000 0.12270 0.09800
C 	C 	0.50000 0.00000 0.53740 0.08700
C 	C 	0.50000 0.00000 0.31050 -0.00500
H 	H 	0.50000 0.00000 0.62270 0.02500
C 	C 	0.00000 0.00000 0.78740 0.08100
C 	C 	0.00000 0.00000 0.56050 -0.05500
H 	H 	0.00000 0.00000 0.87270 0.03400
C 	C 	0.50000 0.50000 0.28740 0.14400
C 	C 	0.50000 0.50000 0.06050 -0.14300
H 	H 	0.50000 0.50000 0.37270 0.01100
