data_crystal

_cell_length_a 15.46360
_cell_length_b 15.46360
_cell_length_c 12.29040
_cell_angle_alpha 90.00000
_cell_angle_beta  90.00000
_cell_angle_gamma 90.00000

_symmetry_space_group_name_	'P 1'
_symmetry_space_group_name_H-M	'P 1'

loop_
_symmetry_equiv_pos_as_xyz
  x,y,z

loop_
_atom_site_label
_atom_site_type_symbol
_atom_site_fract_x
_atom_site_fract_y
_atom_site_fract_z
_atom_site_charge
O 	O 	0.61390 0.38060 0.61600 -0.56300
O 	O 	0.59380 0.29100 0.75120 -0.55800
C 	C 	0.58370 0.36440 0.70880 0.47800
C 	C 	0.53685 0.43088 0.76740 -0.15600
C 	C 	0.53685 0.43088 0.88125 0.00800
H 	H 	0.56450 0.37900 0.92400 0.04800
O 	O 	0.11390 0.88060 0.11600 -0.58200
O 	O 	0.09380 0.79100 0.25120 -0.57400
C 	C 	0.08370 0.86440 0.20880 0.48200
C 	C 	0.03685 0.93088 0.26740 -0.16900
C 	C 	0.03685 0.93088 0.38125 0.06500
H 	H 	0.06450 0.87900 0.42400 0.01300
O 	O 	0.88610 0.11940 0.11600 -0.58700
O 	O 	0.90620 0.20900 0.25120 -0.57400
C 	C 	0.91630 0.13560 0.20880 0.48300
C 	C 	0.96315 0.06912 0.26740 -0.17800
C 	C 	0.96315 0.06912 0.38125 0.05500
H 	H 	0.93550 0.12100 0.42400 0.01400
O 	O 	0.38610 0.61940 0.61600 -0.56400
O 	O 	0.40620 0.70900 0.75120 -0.55700
C 	C 	0.41630 0.63560 0.70880 0.47700
C 	C 	0.46315 0.56912 0.76740 -0.15700
C 	C 	0.46315 0.56912 0.88125 0.00800
H 	H 	0.43550 0.62100 0.92400 0.04900
O 	O 	0.61940 0.11390 0.86600 -0.61600
O 	O 	0.70900 0.09380 0.00120 -0.68200
C 	C 	0.63560 0.08370 0.95880 0.72100
C 	C 	0.56912 0.03685 0.01740 -0.47900
C 	C 	0.56912 0.03685 0.13125 0.19100
H 	H 	0.62100 0.06450 0.17400 -0.02900
O 	O 	0.11940 0.61390 0.36600 -0.57400
O 	O 	0.20900 0.59380 0.50120 -0.57000
C 	C 	0.13560 0.58370 0.45880 0.48900
C 	C 	0.06912 0.53685 0.51740 -0.19400
C 	C 	0.06912 0.53685 0.63125 0.06600
H 	H 	0.12100 0.56450 0.67400 0.01100
O 	O 	0.88060 0.38610 0.36600 -0.57100
O 	O 	0.79100 0.40620 0.50120 -0.56800
C 	C 	0.86440 0.41630 0.45880 0.48800
C 	C 	0.93088 0.46315 0.51740 -0.18600
C 	C 	0.93088 0.46315 0.63125 0.07500
H 	H 	0.87900 0.43550 0.67400 0.01100
O 	O 	0.38060 0.88610 0.86600 -0.60900
O 	O 	0.29100 0.90620 0.00120 -0.68000
C 	C 	0.36440 0.91630 0.95880 0.72400
C 	C 	0.43088 0.96315 0.01740 -0.46400
C 	C 	0.43088 0.96315 0.13125 0.21000
H 	H 	0.37900 0.93550 0.17400 -0.02900
O 	O 	0.88610 0.38060 0.13400 -0.51600
O 	O 	0.90620 0.29100 0.99880 -0.44600
C 	C 	0.91630 0.36440 0.04120 0.24000
C 	C 	0.96315 0.43088 0.98260 0.13000
C 	C 	0.96315 0.43088 0.86875 -0.09800
H 	H 	0.93550 0.37900 0.82600 0.06100
O 	O 	0.38610 0.88060 0.63400 -0.55500
O 	O 	0.40620 0.79100 0.49880 -0.56400
C 	C 	0.41630 0.86440 0.54120 0.47500
C 	C 	0.46315 0.93088 0.48260 -0.14900
C 	C 	0.46315 0.93088 0.36875 0.03800
H 	H 	0.43550 0.87900 0.32600 0.02000
O 	O 	0.61390 0.11940 0.63400 -0.56300
O 	O 	0.59380 0.20900 0.49880 -0.56700
C 	C 	0.58370 0.13560 0.54120 0.47700
C 	C 	0.53685 0.06912 0.48260 -0.16700
C 	C 	0.53685 0.06912 0.36875 0.02000
H 	H 	0.56450 0.12100 0.32600 0.02100
O 	O 	0.11390 0.61940 0.13400 -0.51900
O 	O 	0.09380 0.70900 0.99880 -0.44600
C 	C 	0.08370 0.63560 0.04120 0.24000
C 	C 	0.03685 0.56912 0.98260 0.12200
C 	C 	0.03685 0.56912 0.86875 -0.10700
H 	H 	0.06450 0.62100 0.82600 0.06200
O 	O 	0.88060 0.11390 0.88400 -0.53900
O 	O 	0.79100 0.09380 0.74880 -0.56000
C 	C 	0.86440 0.08370 0.79120 0.47400
C 	C 	0.93088 0.03685 0.73260 -0.15900
C 	C 	0.93088 0.03685 0.61875 0.04700
H 	H 	0.87900 0.06450 0.57600 0.01600
O 	O 	0.38060 0.61390 0.38400 -0.57100
O 	O 	0.29100 0.59380 0.24880 -0.57800
C 	C 	0.36440 0.58370 0.29120 0.49300
C 	C 	0.43088 0.53685 0.23260 -0.20900
C 	C 	0.43088 0.53685 0.11875 0.07900
H 	H 	0.37900 0.56450 0.07600 -0.01500
O 	O 	0.61940 0.38610 0.38400 -0.57100
O 	O 	0.70900 0.40620 0.24880 -0.57700
C 	C 	0.63560 0.41630 0.29120 0.49300
C 	C 	0.56912 0.46315 0.23260 -0.20900
C 	C 	0.56912 0.46315 0.11875 0.07900
H 	H 	0.62100 0.43550 0.07600 -0.01400
O 	O 	0.11940 0.88610 0.88400 -0.53400
O 	O 	0.20900 0.90620 0.74880 -0.55500
C 	C 	0.13560 0.91630 0.79120 0.47300
C 	C 	0.06912 0.96315 0.73260 -0.14800
C 	C 	0.06912 0.96315 0.61875 0.05700
H 	H 	0.12100 0.93550 0.57600 0.01700
In	In	0.68750 0.31250 0.50000 2.01400
In	In	0.18750 0.81250 -0.00000 1.99600
In	In	0.81250 0.18750 -0.00000 1.99600
In	In	0.31250 0.68750 0.50000 2.01400
In	In	0.68750 0.18750 0.75000 2.01600
In	In	0.18750 0.68750 0.25000 2.01100
In	In	0.81250 0.31250 0.25000 2.01100
In	In	0.31250 0.81250 0.75000 2.01600
O 	O 	0.76170 0.25000 0.62500 -0.85800
H 	H 	0.81990 0.25000 0.62500 0.28000
O 	O 	0.26170 0.75000 0.12500 -0.87000
H 	H 	0.31990 0.75000 0.12500 0.27300
O 	O 	0.73830 0.25000 0.12500 -0.87000
H 	H 	0.68010 0.25000 0.12500 0.27300
O 	O 	0.23830 0.75000 0.62500 -0.85800
H 	H 	0.18010 0.75000 0.62500 0.28000
O 	O 	0.75000 0.26170 0.87500 -0.84000
H 	H 	0.75000 0.31990 0.87500 0.28700
O 	O 	0.25000 0.76170 0.37500 -0.85900
H 	H 	0.25000 0.81990 0.37500 0.28200
O 	O 	0.75000 0.23830 0.37500 -0.85900
H 	H 	0.75000 0.18010 0.37500 0.28000
O 	O 	0.25000 0.73830 0.87500 -0.84000
H 	H 	0.25000 0.68010 0.87500 0.28700
C 	C 	0.50000 0.50000 0.71060 0.09800
C 	C 	0.50000 0.50000 0.93814 0.07200
H 	H 	0.50000 0.50000 0.62510 0.03500
C 	C 	0.00000 0.00000 0.21060 0.07900
C 	C 	-0.00000 -0.00000 0.43814 -0.06200
H 	H 	0.00000 0.00000 0.12510 0.01600
C 	C 	0.50000 0.00000 0.96060 0.41800
C 	C 	0.50000 -0.00000 0.18814 -0.16400
H 	H 	0.50000 0.00000 0.87510 -0.05000
C 	C 	-0.00000 0.50000 0.46060 0.11200
C 	C 	-0.00000 0.50000 0.68814 -0.08100
H 	H 	-0.00000 0.50000 0.37510 0.02300
C 	C 	-0.00000 0.50000 0.03940 -0.23000
C 	C 	-0.00000 0.50000 0.81186 0.07700
H 	H 	-0.00000 0.50000 0.12490 0.11000
C 	C 	0.50000 -0.00000 0.53940 0.07700
C 	C 	0.50000 0.00000 0.31186 -0.00800
H 	H 	0.50000 -0.00000 0.62490 0.03800
C 	C 	-0.00000 -0.00000 0.78940 0.06800
C 	C 	0.00000 0.00000 0.56186 -0.05300
H 	H 	-0.00000 -0.00000 0.87490 0.04700
C 	C 	0.50000 0.50000 0.28940 0.13100
C 	C 	0.50000 0.50000 0.06186 -0.13300
H 	H 	0.50000 0.50000 0.37490 0.02400
