data_crystal

_cell_length_a 15.49230
_cell_length_b 15.49230
_cell_length_c 12.31050
_cell_angle_alpha 90.00000
_cell_angle_beta  90.00000
_cell_angle_gamma 90.00000

_symmetry_space_group_name_	'P 1'
_symmetry_space_group_name_H-M	'P 1'

loop_
_symmetry_equiv_pos_as_xyz
  x,y,z

loop_
_atom_site_label
_atom_site_type_symbol
_atom_site_fract_x
_atom_site_fract_y
_atom_site_fract_z
_atom_site_charge
O 	O 	0.61250 0.38220 0.61580 -0.57700
O 	O 	0.59260 0.29180 0.75400 -0.55200
C 	C 	0.58360 0.36440 0.70900 0.46500
C 	C 	0.53747 0.43122 0.76760 -0.14700
C 	C 	0.53747 0.43122 0.88142 0.00300
H 	H 	0.56550 0.37970 0.92410 0.05100
O 	O 	0.11250 0.88220 0.11580 -0.59400
O 	O 	0.09260 0.79180 0.25400 -0.56500
C 	C 	0.08360 0.86440 0.20900 0.47000
C 	C 	0.03747 0.93122 0.26760 -0.15900
C 	C 	0.03747 0.93122 0.38142 0.05900
H 	H 	0.06550 0.87970 0.42410 0.01600
O 	O 	0.88750 0.11780 0.11580 -0.59800
O 	O 	0.90740 0.20820 0.25400 -0.56600
C 	C 	0.91640 0.13560 0.20900 0.47100
C 	C 	0.96253 0.06878 0.26760 -0.16800
C 	C 	0.96253 0.06878 0.38142 0.04900
H 	H 	0.93450 0.12030 0.42410 0.01700
O 	O 	0.38750 0.61780 0.61580 -0.57600
O 	O 	0.40740 0.70820 0.75400 -0.54900
C 	C 	0.41640 0.63560 0.70900 0.46500
C 	C 	0.46253 0.56878 0.76760 -0.14600
C 	C 	0.46253 0.56878 0.88142 0.00300
H 	H 	0.43450 0.62030 0.92410 0.05200
O 	O 	0.61780 0.11250 0.86580 -0.62700
O 	O 	0.70820 0.09260 0.00400 -0.67300
C 	C 	0.63560 0.08360 0.95900 0.70700
C 	C 	0.56878 0.03747 0.01760 -0.46500
C 	C 	0.56878 0.03747 0.13142 0.18300
H 	H 	0.62030 0.06550 0.17410 -0.02500
O 	O 	0.11780 0.61250 0.36580 -0.58600
O 	O 	0.20820 0.59260 0.50400 -0.56200
C 	C 	0.13560 0.58360 0.45900 0.47700
C 	C 	0.06878 0.53747 0.51760 -0.18300
C 	C 	0.06878 0.53747 0.63142 0.06100
H 	H 	0.12030 0.56550 0.67410 0.01400
O 	O 	0.88220 0.38750 0.36580 -0.58300
O 	O 	0.79180 0.40740 0.50400 -0.56000
C 	C 	0.86440 0.41640 0.45900 0.47600
C 	C 	0.93122 0.46253 0.51760 -0.17500
C 	C 	0.93122 0.46253 0.63142 0.06900
H 	H 	0.87970 0.43450 0.67410 0.01400
O 	O 	0.38220 0.88750 0.86580 -0.62000
O 	O 	0.29180 0.90740 0.00400 -0.67100
C 	C 	0.36440 0.91640 0.95900 0.71000
C 	C 	0.43122 0.96253 0.01760 -0.45100
C 	C 	0.43122 0.96253 0.13142 0.20200
H 	H 	0.37970 0.93450 0.17410 -0.02600
O 	O 	0.88750 0.38220 0.13420 -0.52900
O 	O 	0.90740 0.29180 0.99600 -0.44000
C 	C 	0.91640 0.36440 0.04100 0.23000
C 	C 	0.96253 0.43122 0.98240 0.13700
C 	C 	0.96253 0.43122 0.86858 -0.10100
H 	H 	0.93450 0.37970 0.82590 0.06300
O 	O 	0.38750 0.88220 0.63420 -0.56700
O 	O 	0.40740 0.79180 0.49600 -0.55600
C 	C 	0.41640 0.86440 0.54100 0.46400
C 	C 	0.46253 0.93122 0.48240 -0.13900
C 	C 	0.46253 0.93122 0.36858 0.03300
H 	H 	0.43450 0.87970 0.32590 0.02300
O 	O 	0.61250 0.11780 0.63420 -0.57500
O 	O 	0.59260 0.20820 0.49600 -0.55900
C 	C 	0.58360 0.13560 0.54100 0.46600
C 	C 	0.53747 0.06878 0.48240 -0.15700
C 	C 	0.53747 0.06878 0.36858 0.01600
H 	H 	0.56550 0.12030 0.32590 0.02300
O 	O 	0.11250 0.61780 0.13420 -0.53200
O 	O 	0.09260 0.70820 0.99600 -0.44000
C 	C 	0.08360 0.63560 0.04100 0.23100
C 	C 	0.03747 0.56878 0.98240 0.13000
C 	C 	0.03747 0.56878 0.86858 -0.10900
H 	H 	0.06550 0.62030 0.82590 0.06400
O 	O 	0.88220 0.11250 0.88420 -0.55100
O 	O 	0.79180 0.09260 0.74600 -0.55200
C 	C 	0.86440 0.08360 0.79100 0.46300
C 	C 	0.93122 0.03747 0.73240 -0.15000
C 	C 	0.93122 0.03747 0.61858 0.04200
H 	H 	0.87970 0.06550 0.57590 0.01900
O 	O 	0.38220 0.61250 0.38420 -0.58300
O 	O 	0.29180 0.59260 0.24600 -0.57000
C 	C 	0.36440 0.58360 0.29100 0.48100
C 	C 	0.43122 0.53747 0.23240 -0.19800
C 	C 	0.43122 0.53747 0.11858 0.07400
H 	H 	0.37970 0.56550 0.07590 -0.01300
O 	O 	0.61780 0.38750 0.38420 -0.58300
O 	O 	0.70820 0.40740 0.24600 -0.56900
C 	C 	0.63560 0.41640 0.29100 0.48100
C 	C 	0.56878 0.46253 0.23240 -0.19800
C 	C 	0.56878 0.46253 0.11858 0.07400
H 	H 	0.62030 0.43450 0.07590 -0.01200
O 	O 	0.11780 0.88750 0.88420 -0.54600
O 	O 	0.20820 0.90740 0.74600 -0.54800
C 	C 	0.13560 0.91640 0.79100 0.46200
C 	C 	0.06878 0.96253 0.73240 -0.13900
C 	C 	0.06878 0.96253 0.61858 0.05200
H 	H 	0.12030 0.93450 0.57590 0.01900
In	In	0.68400 0.31600 0.50000 2.00900
In	In	0.18400 0.81600 -0.00000 1.99100
In	In	0.81600 0.18400 -0.00000 1.99100
In	In	0.31600 0.68400 0.50000 2.00900
In	In	0.68400 0.18400 0.75000 2.01100
In	In	0.18400 0.68400 0.25000 2.00600
In	In	0.81600 0.31600 0.25000 2.00600
In	In	0.31600 0.81600 0.75000 2.01100
O 	O 	0.76040 0.25000 0.62500 -0.82900
H 	H 	0.81850 0.25000 0.62500 0.27600
O 	O 	0.26040 0.75000 0.12500 -0.84200
H 	H 	0.31850 0.75000 0.12500 0.26900
O 	O 	0.73960 0.25000 0.12500 -0.84200
H 	H 	0.68150 0.25000 0.12500 0.26800
O 	O 	0.23960 0.75000 0.62500 -0.82900
H 	H 	0.18150 0.75000 0.62500 0.27600
O 	O 	0.75000 0.26040 0.87500 -0.81200
H 	H 	0.75000 0.31850 0.87500 0.28300
O 	O 	0.25000 0.76040 0.37500 -0.83000
H 	H 	0.25000 0.81850 0.37500 0.27700
O 	O 	0.75000 0.23960 0.37500 -0.83000
H 	H 	0.75000 0.18150 0.37500 0.27500
O 	O 	0.25000 0.73960 0.87500 -0.81200
H 	H 	0.25000 0.68150 0.87500 0.28200
C 	C 	0.50000 0.50000 0.71070 0.08900
C 	C 	0.50000 0.50000 0.93833 0.07500
H 	H 	0.50000 0.50000 0.62540 0.03700
C 	C 	-0.00000 -0.00000 0.21070 0.07200
C 	C 	-0.00000 -0.00000 0.43833 -0.05800
H 	H 	0.00000 0.00000 0.12540 0.01800
C 	C 	0.50000 0.00000 0.96070 0.40700
C 	C 	0.50000 0.00000 0.18833 -0.15800
H 	H 	0.50000 0.00000 0.87540 -0.04700
C 	C 	-0.00000 0.50000 0.46070 0.10400
C 	C 	0.00000 0.50000 0.68833 -0.07700
H 	H 	-0.00000 0.50000 0.37540 0.02500
C 	C 	-0.00000 0.50000 0.03930 -0.23500
C 	C 	-0.00000 0.50000 0.81167 0.07800
H 	H 	-0.00000 0.50000 0.12460 0.11200
C 	C 	0.50000 0.00000 0.53930 0.06900
C 	C 	0.50000 0.00000 0.31167 -0.00500
H 	H 	0.50000 0.00000 0.62460 0.04000
C 	C 	0.00000 0.00000 0.78930 0.06100
C 	C 	0.00000 0.00000 0.56167 -0.05000
H 	H 	0.00000 0.00000 0.87460 0.04900
C 	C 	0.50000 0.50000 0.28930 0.12300
C 	C 	0.50000 0.50000 0.06167 -0.13100
H 	H 	0.50000 0.50000 0.37460 0.02700
