data_crystal

_cell_length_a 15.48890
_cell_length_b 15.48890
_cell_length_c 12.30830
_cell_angle_alpha 90.00000
_cell_angle_beta  90.00000
_cell_angle_gamma 90.00000

_symmetry_space_group_name_	'P 1'
_symmetry_space_group_name_H-M	'P 1'

loop_
_symmetry_equiv_pos_as_xyz
  x,y,z

loop_
_atom_site_label
_atom_site_type_symbol
_atom_site_fract_x
_atom_site_fract_y
_atom_site_fract_z
_atom_site_charge
O 	O 	0.61180 0.37970 0.61660 -0.60400
O 	O 	0.59240 0.29340 0.75310 -0.57000
C 	C 	0.58460 0.36420 0.70870 0.52400
C 	C 	0.54133 0.43280 0.76760 -0.17300
C 	C 	0.54133 0.43280 0.88230 0.01500
H 	H 	0.57210 0.38280 0.92490 0.04700
O 	O 	0.11180 0.87970 0.11660 -0.62100
O 	O 	0.09240 0.79340 0.25310 -0.58400
C 	C 	0.08460 0.86420 0.20870 0.53000
C 	C 	0.04133 0.93280 0.26760 -0.18400
C 	C 	0.04133 0.93280 0.38230 0.07100
H 	H 	0.07210 0.88280 0.42490 0.01100
O 	O 	0.88820 0.12030 0.11660 -0.62600
O 	O 	0.90760 0.20660 0.25310 -0.58400
C 	C 	0.91540 0.13580 0.20870 0.53200
C 	C 	0.95867 0.06720 0.26760 -0.19300
C 	C 	0.95867 0.06720 0.38230 0.06200
H 	H 	0.92790 0.11720 0.42490 0.01200
O 	O 	0.38820 0.62030 0.61660 -0.60300
O 	O 	0.40760 0.70660 0.75310 -0.56700
C 	C 	0.41540 0.63580 0.70870 0.52400
C 	C 	0.45867 0.56720 0.76760 -0.17300
C 	C 	0.45867 0.56720 0.88230 0.01500
H 	H 	0.42790 0.61720 0.92490 0.04700
O 	O 	0.62030 0.11180 0.86660 -0.65900
O 	O 	0.70660 0.09240 0.00310 -0.69800
C 	C 	0.63580 0.08460 0.95870 0.77500
C 	C 	0.56720 0.04133 0.01760 -0.48300
C 	C 	0.56720 0.04133 0.13230 0.18700
H 	H 	0.61720 0.07210 0.17490 -0.02800
O 	O 	0.12030 0.61180 0.36660 -0.61400
O 	O 	0.20660 0.59240 0.50310 -0.58000
C 	C 	0.13580 0.58460 0.45870 0.53700
C 	C 	0.06720 0.54133 0.51760 -0.20800
C 	C 	0.06720 0.54133 0.63230 0.07100
H 	H 	0.11720 0.57210 0.67490 0.00900
O 	O 	0.87970 0.38820 0.36660 -0.61000
O 	O 	0.79340 0.40760 0.50310 -0.57800
C 	C 	0.86420 0.41540 0.45870 0.53600
C 	C 	0.93280 0.45867 0.51760 -0.19900
C 	C 	0.93280 0.45867 0.63230 0.08000
H 	H 	0.88280 0.42790 0.67490 0.00900
O 	O 	0.37970 0.88820 0.86660 -0.65300
O 	O 	0.29340 0.90760 0.00310 -0.69600
C 	C 	0.36420 0.91540 0.95870 0.77800
C 	C 	0.43280 0.95867 0.01760 -0.46900
C 	C 	0.43280 0.95867 0.13230 0.20600
H 	H 	0.38280 0.92790 0.17490 -0.02900
O 	O 	0.88820 0.37970 0.13340 -0.55000
O 	O 	0.90760 0.29340 0.99690 -0.45100
C 	C 	0.91540 0.36420 0.04130 0.28100
C 	C 	0.95867 0.43280 0.98240 0.10500
C 	C 	0.95867 0.43280 0.86770 -0.08100
H 	H 	0.92790 0.38280 0.82510 0.05600
O 	O 	0.38820 0.87970 0.63340 -0.59300
O 	O 	0.40760 0.79340 0.49690 -0.57400
C 	C 	0.41540 0.86420 0.54130 0.52300
C 	C 	0.45867 0.93280 0.48240 -0.16500
C 	C 	0.45867 0.93280 0.36770 0.04600
H 	H 	0.42790 0.88280 0.32510 0.01800
O 	O 	0.61180 0.12030 0.63340 -0.60200
O 	O 	0.59240 0.20660 0.49690 -0.57700
C 	C 	0.58460 0.13580 0.54130 0.52500
C 	C 	0.54133 0.06720 0.48240 -0.18300
C 	C 	0.54133 0.06720 0.36770 0.02800
H 	H 	0.57210 0.11720 0.32510 0.01900
O 	O 	0.11180 0.62030 0.13340 -0.55400
O 	O 	0.09240 0.70660 0.99690 -0.45200
C 	C 	0.08460 0.63580 0.04130 0.28200
C 	C 	0.04133 0.56720 0.98240 0.09600
C 	C 	0.04133 0.56720 0.86770 -0.09000
H 	H 	0.07210 0.61720 0.82510 0.05700
O 	O 	0.87970 0.11180 0.88340 -0.57700
O 	O 	0.79340 0.09240 0.74690 -0.57000
C 	C 	0.86420 0.08460 0.79130 0.52100
C 	C 	0.93280 0.04133 0.73240 -0.17400
C 	C 	0.93280 0.04133 0.61770 0.05400
H 	H 	0.88280 0.07210 0.57510 0.01400
O 	O 	0.37970 0.61180 0.38340 -0.61000
O 	O 	0.29340 0.59240 0.24690 -0.58900
C 	C 	0.36420 0.58460 0.29130 0.54200
C 	C 	0.43280 0.54133 0.23240 -0.22400
C 	C 	0.43280 0.54133 0.11770 0.08500
H 	H 	0.38280 0.57210 0.07510 -0.01800
O 	O 	0.62030 0.38820 0.38340 -0.61100
O 	O 	0.70660 0.40760 0.24690 -0.58800
C 	C 	0.63580 0.41540 0.29130 0.54200
C 	C 	0.56720 0.45867 0.23240 -0.22300
C 	C 	0.56720 0.45867 0.11770 0.08500
H 	H 	0.61720 0.42790 0.07510 -0.01700
O 	O 	0.12030 0.88820 0.88340 -0.57200
O 	O 	0.20660 0.90760 0.74690 -0.56500
C 	C 	0.13580 0.91540 0.79130 0.52000
C 	C 	0.06720 0.95867 0.73240 -0.16300
C 	C 	0.06720 0.95867 0.61770 0.06400
H 	H 	0.11720 0.92790 0.57510 0.01400
In	In	0.68420 0.31580 0.50000 2.01000
In	In	0.18420 0.81580 -0.00000 1.99300
In	In	0.81580 0.18420 -0.00000 1.99300
In	In	0.31580 0.68420 0.50000 2.01000
In	In	0.68420 0.18420 0.75000 2.01300
In	In	0.18420 0.68420 0.25000 2.00800
In	In	0.81580 0.31580 0.25000 2.00800
In	In	0.31580 0.81580 0.75000 2.01300
O 	O 	0.76080 0.25000 0.62500 -0.82900
H 	H 	0.81890 0.25000 0.62500 0.27500
O 	O 	0.26080 0.75000 0.12500 -0.84100
H 	H 	0.31890 0.75000 0.12500 0.26900
O 	O 	0.73920 0.25000 0.12500 -0.84100
H 	H 	0.68110 0.25000 0.12500 0.26800
O 	O 	0.23920 0.75000 0.62500 -0.82800
H 	H 	0.18110 0.75000 0.62500 0.27500
O 	O 	0.75000 0.26080 0.87500 -0.81100
H 	H 	0.75000 0.31890 0.87500 0.28200
O 	O 	0.25000 0.76080 0.37500 -0.82900
H 	H 	0.25000 0.81890 0.37500 0.27700
O 	O 	0.75000 0.23920 0.37500 -0.82900
H 	H 	0.75000 0.18110 0.37500 0.27500
O 	O 	0.25000 0.73920 0.87500 -0.81100
H 	H 	0.25000 0.68110 0.87500 0.28100
C 	C 	0.50000 0.50000 0.71030 0.10800
C 	C 	0.50000 0.50000 0.93958 0.07300
H 	H 	0.50000 0.50000 0.62500 0.03100
C 	C 	-0.00000 -0.00000 0.21030 0.08700
C 	C 	0.00000 -0.00000 0.43958 -0.06300
H 	H 	-0.00000 -0.00000 0.12500 0.01200
C 	C 	0.50000 -0.00000 0.96030 0.41300
C 	C 	0.50000 -0.00000 0.18958 -0.15700
H 	H 	0.50000 -0.00000 0.87500 -0.05000
C 	C 	-0.00000 0.50000 0.46030 0.12000
C 	C 	-0.00000 0.50000 0.68958 -0.08100
H 	H 	-0.00000 0.50000 0.37500 0.01900
C 	C 	-0.00000 0.50000 0.03970 -0.20700
C 	C 	-0.00000 0.50000 0.81042 0.06700
H 	H 	-0.00000 0.50000 0.12500 0.10300
C 	C 	0.50000 -0.00000 0.53970 0.08700
C 	C 	0.50000 -0.00000 0.31042 -0.01100
H 	H 	0.50000 0.00000 0.62500 0.03400
C 	C 	-0.00000 -0.00000 0.78970 0.07700
C 	C 	-0.00000 -0.00000 0.56042 -0.05600
H 	H 	0.00000 -0.00000 0.87500 0.04300
C 	C 	0.50000 0.50000 0.28970 0.14000
C 	C 	0.50000 0.50000 0.06042 -0.13700
H 	H 	0.50000 0.50000 0.37500 0.02100
