data_crystal

_cell_length_a 9.90300
_cell_length_b 9.90300
_cell_length_c 15.72000
_cell_angle_alpha 90.00000
_cell_angle_beta  90.00000
_cell_angle_gamma 90.00000

_symmetry_space_group_name_	'P 1'
_symmetry_space_group_name_H-M	'P 1'

loop_
_symmetry_equiv_pos_as_xyz
  x,y,z

loop_
_atom_site_label
_atom_site_type_symbol
_atom_site_fract_x
_atom_site_fract_y
_atom_site_fract_z
_atom_site_charge
C 	C 	0.74090 0.16120 0.18750 0.01400
H 	H 	0.73690 0.10010 0.14260 0.03600
C 	C 	0.65930 0.23990 0.31340 -0.01100
H 	H 	0.59830 0.23610 0.35830 0.06200
C 	C 	0.24090 0.66120 0.68750 -0.00700
H 	H 	0.23690 0.60010 0.64260 0.06900
C 	C 	0.15930 0.73990 0.81340 0.02200
H 	H 	0.09830 0.73610 0.85830 0.00600
C 	C 	0.25910 0.83880 0.18750 -0.01800
H 	H 	0.26310 0.89990 0.14260 0.11400
C 	C 	0.34070 0.76010 0.31340 0.00700
H 	H 	0.40170 0.76390 0.35830 0.08000
C 	C 	0.75910 0.33880 0.68750 0.00300
H 	H 	0.76310 0.39990 0.64260 0.07900
C 	C 	0.84070 0.26010 0.81340 -0.02400
H 	H 	0.90170 0.26390 0.85830 0.11800
C 	C 	0.83880 0.74090 0.18750 0.01200
H 	H 	0.89990 0.73690 0.14260 0.12800
C 	C 	0.76010 0.65930 0.31340 -0.02900
H 	H 	0.76390 0.59830 0.35830 0.09300
C 	C 	0.33880 0.24090 0.68750 -0.00300
H 	H 	0.39990 0.23690 0.64260 0.06500
C 	C 	0.26010 0.15930 0.81340 -0.03400
H 	H 	0.26390 0.09830 0.85830 0.00700
C 	C 	0.16120 0.25910 0.18750 -0.01400
H 	H 	0.10010 0.26310 0.14260 0.02300
C 	C 	0.23990 0.34070 0.31340 0.02600
H 	H 	0.23610 0.40170 0.35830 0.04900
C 	C 	0.66120 0.75910 0.68750 -0.00100
H 	H 	0.60010 0.76310 0.64260 0.08300
C 	C 	0.73990 0.84070 0.81340 0.03200
H 	H 	0.73610 0.90170 0.85830 0.11800
C 	C 	0.25910 0.16120 0.31250 -0.01400
H 	H 	0.26310 0.10010 0.35740 0.02200
C 	C 	0.34070 0.23990 0.18660 0.02600
H 	H 	0.40170 0.23610 0.14170 0.05100
C 	C 	0.75910 0.66120 0.81250 -0.00100
H 	H 	0.76310 0.60010 0.85740 0.07400
C 	C 	0.84070 0.73990 0.68660 0.03200
H 	H 	0.90170 0.73610 0.64170 0.12800
C 	C 	0.74090 0.83880 0.31250 0.01100
H 	H 	0.73690 0.89990 0.35740 0.12700
C 	C 	0.65930 0.76010 0.18660 -0.02800
H 	H 	0.59830 0.76390 0.14170 0.09400
C 	C 	0.24090 0.33880 0.81250 -0.00100
H 	H 	0.23690 0.39990 0.85740 0.05700
C 	C 	0.15930 0.26010 0.68660 -0.03500
H 	H 	0.09830 0.26390 0.64170 0.01400
C 	C 	0.16120 0.74090 0.31250 0.01500
H 	H 	0.10010 0.73690 0.35740 0.03600
C 	C 	0.23990 0.65930 0.18660 -0.00900
H 	H 	0.23610 0.59830 0.14170 0.06300
C 	C 	0.66120 0.24090 0.81250 -0.00700
H 	H 	0.60010 0.23690 0.85740 0.06100
C 	C 	0.73990 0.15930 0.68660 0.02100
H 	H 	0.73610 0.09830 0.64170 0.01400
C 	C 	0.83880 0.25910 0.31250 -0.01800
H 	H 	0.89990 0.26310 0.35740 0.11300
C 	C 	0.76010 0.34070 0.18660 0.00700
H 	H 	0.76390 0.40170 0.14170 0.08200
C 	C 	0.33880 0.75910 0.81250 0.00400
H 	H 	0.39990 0.76310 0.85740 0.07000
C 	C 	0.26010 0.84070 0.68660 -0.02400
H 	H 	0.26390 0.90170 0.64170 0.12800
C 	C 	0.25910 0.83880 0.81250 -0.01900
H 	H 	0.26310 0.89990 0.85740 0.10300
C 	C 	0.34070 0.76010 0.68660 0.00700
H 	H 	0.40170 0.76390 0.64170 0.08000
C 	C 	0.75910 0.33880 0.31250 0.00300
H 	H 	0.76310 0.39990 0.35740 0.08000
C 	C 	0.84070 0.26010 0.18660 -0.02300
H 	H 	0.90170 0.26390 0.14170 0.13000
C 	C 	0.74090 0.16120 0.81250 0.01600
H 	H 	0.73690 0.10010 0.85740 0.02800
C 	C 	0.65930 0.23990 0.68660 -0.01100
H 	H 	0.59830 0.23610 0.64170 0.06200
C 	C 	0.24090 0.66120 0.31250 -0.00500
H 	H 	0.23690 0.60010 0.35740 0.06800
C 	C 	0.15930 0.73990 0.18660 0.02100
H 	H 	0.09830 0.73610 0.14170 0.01600
C 	C 	0.16120 0.25910 0.81250 -0.01400
H 	H 	0.10010 0.26310 0.85740 0.01500
C 	C 	0.23990 0.34070 0.68660 0.02600
H 	H 	0.23610 0.40170 0.64170 0.04900
C 	C 	0.66120 0.75910 0.31250 -0.00100
H 	H 	0.60010 0.76310 0.35740 0.08400
C 	C 	0.73990 0.84070 0.18660 0.03200
H 	H 	0.73610 0.90170 0.14170 0.13100
C 	C 	0.83880 0.74090 0.81250 0.01100
H 	H 	0.89990 0.73690 0.85740 0.11600
C 	C 	0.76010 0.65930 0.68660 -0.02900
H 	H 	0.76390 0.59830 0.64170 0.09300
C 	C 	0.33880 0.24090 0.31250 -0.00200
H 	H 	0.39990 0.23690 0.35740 0.06500
C 	C 	0.26010 0.15930 0.18660 -0.03500
H 	H 	0.26390 0.09830 0.14170 0.01500
C 	C 	0.74090 0.83880 0.68750 0.01000
H 	H 	0.73690 0.89990 0.64260 0.12600
C 	C 	0.65930 0.76010 0.81340 -0.02800
H 	H 	0.59830 0.76390 0.85830 0.08300
C 	C 	0.24090 0.33880 0.18750 -0.00100
H 	H 	0.23690 0.39990 0.14260 0.06600
C 	C 	0.15930 0.26010 0.31340 -0.03500
H 	H 	0.09830 0.26390 0.35830 0.01400
C 	C 	0.25910 0.16120 0.68750 -0.01300
H 	H 	0.26310 0.10010 0.64260 0.02200
C 	C 	0.34070 0.23990 0.81340 0.02600
H 	H 	0.40170 0.23610 0.85830 0.04100
C 	C 	0.75910 0.66120 0.18750 -0.00100
H 	H 	0.76310 0.60010 0.14260 0.08500
C 	C 	0.84070 0.73990 0.31340 0.03300
H 	H 	0.90170 0.73610 0.35830 0.12900
C 	C 	0.83880 0.25910 0.68750 -0.01900
H 	H 	0.89990 0.26310 0.64260 0.11200
C 	C 	0.76010 0.34070 0.81340 0.00800
H 	H 	0.76390 0.40170 0.85830 0.07100
C 	C 	0.33880 0.75910 0.18750 0.00200
H 	H 	0.39990 0.76310 0.14260 0.08100
C 	C 	0.26010 0.84070 0.31340 -0.02300
H 	H 	0.26390 0.90170 0.35830 0.12800
C 	C 	0.16120 0.74090 0.68750 0.01600
H 	H 	0.10010 0.73690 0.64260 0.03600
C 	C 	0.23990 0.65930 0.81340 -0.01100
H 	H 	0.23610 0.59830 0.85830 0.05400
C 	C 	0.66120 0.24090 0.18750 -0.00500
H 	H 	0.60010 0.23690 0.14260 0.07000
C 	C 	0.73990 0.15930 0.31340 0.02100
H 	H 	0.73610 0.09830 0.35830 0.01400
Nb	Nb	0.50000 0.00000 -0.00000 1.59500
Nb	Nb	-0.00000 0.50000 0.50000 1.58300
Nb	Nb	-0.00000 0.50000 -0.00000 1.59500
Nb	Nb	0.50000 -0.00000 0.50000 1.58300
Ni	Ni	0.50000 -0.00000 0.25000 1.04400
Ni	Ni	0.00000 0.50000 0.25000 1.04400
Ni	Ni	0.50000 -0.00000 0.75000 1.04500
Ni	Ni	-0.00000 0.50000 0.75000 1.04500
O 	O 	0.50000 -0.00000 0.12280 -0.53900
O 	O 	0.00000 0.50000 0.12280 -0.53900
O 	O 	0.50000 -0.00000 0.62280 -0.53600
O 	O 	0.50000 -0.00000 0.37720 -0.53700
O 	O 	-0.00000 0.50000 0.37720 -0.53700
O 	O 	0.50000 -0.00000 0.87720 -0.55300
O 	O 	-0.00000 0.50000 0.87720 -0.55300
O 	O 	-0.00000 0.50000 0.62280 -0.53600
F 	F 	0.69220 0.00960 -0.00000 -0.54200
F 	F 	0.19220 0.50960 0.50000 -0.51400
F 	F 	0.30780 0.99040 -0.00000 -0.40000
F 	F 	0.80780 0.49040 0.50000 -0.45800
F 	F 	0.99040 0.69220 -0.00000 -0.37100
F 	F 	0.49040 0.19220 0.50000 -0.51700
F 	F 	0.00960 0.30780 -0.00000 -0.57100
F 	F 	0.50960 0.80780 0.50000 -0.45500
F 	F 	0.30780 0.00960 0.50000 -0.58400
F 	F 	0.80780 0.50960 -0.00000 -0.43900
F 	F 	0.69220 0.99040 0.50000 -0.38700
F 	F 	0.19220 0.49040 -0.00000 -0.50300
F 	F 	0.00960 0.69220 0.50000 -0.55600
F 	F 	0.50960 0.19220 -0.00000 -0.49900
F 	F 	0.99040 0.30780 0.50000 -0.41500
F 	F 	0.49040 0.80780 -0.00000 -0.44300
N 	N 	0.65060 0.15060 0.25010 -0.22000
N 	N 	0.34940 0.84940 0.25010 -0.15400
N 	N 	0.84940 0.65060 0.25010 -0.15900
N 	N 	0.15060 0.34940 0.25010 -0.21500
N 	N 	0.65060 0.84940 0.75010 -0.16000
N 	N 	0.34940 0.15060 0.24990 -0.21500
N 	N 	0.65060 0.84940 0.24990 -0.15900
N 	N 	0.15060 0.65060 0.24990 -0.22000
N 	N 	0.84940 0.34940 0.24990 -0.15400
N 	N 	0.34940 0.84940 0.74990 -0.15500
N 	N 	0.65060 0.15060 0.74990 -0.21900
N 	N 	0.15060 0.34940 0.74990 -0.21400
N 	N 	0.84940 0.65060 0.74990 -0.16000
N 	N 	0.34940 0.15060 0.75010 -0.21400
N 	N 	0.84940 0.34940 0.75010 -0.15500
N 	N 	0.15060 0.65060 0.75010 -0.21900
