data_crystal

_cell_length_a 18.12600
_cell_length_b 20.01500
_cell_length_c 21.79000
_cell_angle_alpha 109.15500
_cell_angle_beta  103.79400
_cell_angle_gamma 99.70000

_symmetry_space_group_name_	'P 1'
_symmetry_space_group_name_H-M	'P 1'

loop_
_symmetry_equiv_pos_as_xyz
  x,y,z

loop_
_atom_site_label
_atom_site_type_symbol
_atom_site_fract_x
_atom_site_fract_y
_atom_site_fract_z
_atom_site_charge
Rh	Rh	0.92070 0.90710 0.34740 0.84300
Rh	Rh	0.55860 0.27010 0.54770 0.84000
Zr	Zr	0.92559 0.36712 0.94261 3.20800
Zr	Zr	0.99925 0.49645 0.11132 3.20700
Zr	Zr	0.12812 0.46769 0.01423 3.19600
Cl	Cl	0.58320 0.22910 0.44330 -0.47200
Cl	Cl	0.01730 0.02160 0.41300 -0.48100
P 	P 	0.42590 0.24610 0.50850 -0.04400
P 	P 	0.82960 0.96000 0.30770 -0.04700
O 	O 	0.04380 0.73200 0.08030 -0.65500
C 	C 	0.02690 0.76200 0.13560 0.32600
O 	O 	0.94990 0.74780 0.12630 -0.27700
O 	O 	0.02730 0.41680 0.92250 -1.29000
O 	O 	0.90120 0.44720 0.02160 -1.29400
O 	O 	0.02770 0.41220 0.03590 -1.22700
O 	O 	0.10060 0.54420 0.09080 -1.28500
O 	O 	0.24310 0.55430 0.06390 -0.62900
O 	O 	0.20400 0.66480 0.09400 -0.63900
O 	O 	0.18010 0.44980 0.10740 -0.68800
O 	O 	0.09850 0.46750 0.17180 -0.61200
O 	O 	0.18250 0.45220 0.92970 -0.78500
O 	O 	0.10180 0.47560 0.84880 -0.66200
O 	O 	0.88800 0.31460 0.82430 -0.64200
O 	O 	0.94270 0.40260 0.79020 -0.63200
O 	O 	0.94340 0.39290 0.12220 -0.61600
O 	O 	0.89070 0.31000 0.01040 -0.63100
C 	C 	0.91070 0.33150 0.07000 0.50700
C 	C 	0.16100 0.46210 0.88200 0.63300
C 	C 	0.89860 0.26880 0.10210 -0.10200
C 	C 	0.94020 0.28270 0.16940 0.04800
H 	H 	0.97590 0.32950 0.19770 0.03500
C 	C 	0.92950 0.22820 0.19530 -0.12100
H 	H 	0.95790 0.23770 0.24140 0.07400
C 	C 	0.87730 0.15980 0.15390 0.07900
C 	C 	0.83570 0.14580 0.08660 -0.12000
H 	H 	0.80000 0.09900 0.05830 0.07500
C 	C 	0.84630 0.20030 0.06070 0.04800
H 	H 	0.81790 0.19080 0.01460 0.03700
C 	C 	0.18500 0.96180 0.29420 0.05900
C 	C 	0.21100 0.91800 0.24400 -0.10900
H 	H 	0.26480 0.93010 0.24630 0.06500
C 	C 	0.15800 0.85580 0.19080 0.03500
H 	H 	0.17560 0.82580 0.15660 0.02500
C 	C 	0.07930 0.83780 0.18750 -0.09600
C 	C 	0.05360 0.88180 0.23760 0.03700
H 	H 	0.99980 0.86940 0.23540 0.00600
C 	C 	0.10700 0.94370 0.29090 -0.12800
H 	H 	0.08900 0.97380 0.32510 0.07900
C 	C 	0.68600 0.36500 0.61500 -0.06800
H 	H 	0.71790 0.39130 0.59300 0.04500
C 	C 	0.86700 0.10500 0.18100 -0.03500
C 	C 	0.92400 0.09000 0.22400 -0.01000
H 	H 	0.97790 0.11410 0.23290 0.03900
C 	C 	0.79400 0.05900 0.17600 -0.01200
H 	H 	0.74980 0.06090 0.14350 0.03800
C 	C 	0.77300 0.01200 0.20800 -0.08900
H 	H 	0.72080 0.98600 0.20050 0.06500
C 	C 	0.90900 0.04300 0.25600 -0.08500
H 	H 	0.95250 0.03350 0.28320 0.05900
C 	C 	0.83400 0.00800 0.24900 0.02800
C 	C 	0.36300 0.15100 0.45880 -0.00900
C 	C 	0.28610 0.13440 0.46050 -0.04200
H 	H 	0.27180 0.16500 0.49690 0.04600
C 	C 	0.23010 0.07290 0.40910 -0.05900
H 	H 	0.17750 0.06150 0.41030 0.06900
C 	C 	0.25100 0.02800 0.35600 0.00300
C 	C 	0.32800 0.04470 0.35420 -0.04100
H 	H 	0.34210 0.01400 0.31790 0.04300
C 	C 	0.38380 0.10620 0.40560 -0.05900
H 	H 	0.43640 0.11760 0.40440 0.05700
C 	C 	0.82980 0.01460 0.44110 -0.04700
H 	H 	0.83640 0.96760 0.43800 0.02600
C 	C 	0.82710 0.06400 0.50210 -0.04400
H 	H 	0.83180 0.05080 0.54070 0.05100
C 	C 	0.81740 0.13270 0.50670 -0.00500
C 	C 	0.81050 0.15210 0.45030 -0.04400
H 	H 	0.80390 0.19900 0.45340 0.05300
C 	C 	0.81330 0.10270 0.38930 -0.04100
H 	H 	0.80850 0.11590 0.35070 0.05400
C 	C 	0.82290 0.03390 0.38470 -0.00700
C 	C 	0.82940 0.21910 0.69120 0.07500
H 	H 	0.81330 0.20360 0.72400 0.02300
C 	C 	0.87350 0.29080 0.71070 -0.16500
C 	C 	0.89690 0.31340 0.66280 0.07900
H 	H 	0.92710 0.36240 0.67620 0.02400
C 	C 	0.87620 0.26420 0.59540 -0.13800
H 	H 	0.89230 0.27960 0.56260 0.07500
C 	C 	0.83210 0.19250 0.57590 0.07400
C 	C 	0.80870 0.16990 0.62380 -0.14300
H 	H 	0.77850 0.12090 0.61050 0.07600
C 	C 	0.90500 0.34000 0.78500 0.52200
C 	C 	0.72280 0.90200 0.26810 -0.01300
C 	C 	0.70700 0.84300 0.20200 -0.06300
H 	H 	0.74570 0.83810 0.17990 0.04100
C 	C 	0.63100 0.79370 0.17280 -0.04400
H 	H 	0.61700 0.75380 0.13000 0.04200
C 	C 	0.57600 0.80520 0.20890 -0.01100
C 	C 	0.58900 0.86700 0.27300 -0.04500
H 	H 	0.54820 0.87610 0.29270 0.04000
C 	C 	0.66600 0.91200 0.30200 -0.05700
H 	H 	0.68020 0.95000 0.34540 0.05200
C 	C 	0.43140 0.79320 0.18500 -0.11400
H 	H 	0.44150 0.84490 0.20690 0.06700
C 	C 	0.35430 0.74890 0.15740 0.04000
H 	H 	0.31170 0.77040 0.16030 0.03600
C 	C 	0.33960 0.67330 0.12540 -0.10300
C 	C 	0.40200 0.64190 0.12110 0.03800
H 	H 	0.39190 0.59020 0.09920 0.03200
C 	C 	0.47910 0.68620 0.14880 -0.11200
H 	H 	0.52170 0.66470 0.14580 0.06500
C 	C 	0.49380 0.76180 0.18070 0.06000
C 	C 	0.88800 0.79300 0.40000 -0.00100
H 	H 	0.86240 0.78590 0.43450 0.03400
C 	C 	0.25100 0.62440 0.08890 0.44600
C 	C 	0.16200 0.44970 0.16080 0.49300
C 	C 	0.21010 0.43140 0.21780 -0.17300
C 	C 	0.18680 0.43420 0.27470 0.08400
H 	H 	0.14370 0.45350 0.28160 0.01600
C 	C 	0.22660 0.40870 0.32150 -0.14800
H 	H 	0.21070 0.41060 0.36030 0.07800
C 	C 	0.28970 0.38050 0.31130 0.08600
C 	C 	0.31300 0.37780 0.25440 -0.14600
H 	H 	0.35610 0.35850 0.24750 0.08000
C 	C 	0.27320 0.40320 0.20760 0.08000
H 	H 	0.28920 0.40140 0.16870 0.00700
C 	C 	0.38790 0.29040 0.45020 0.00100
C 	C 	0.43680 0.32570 0.42350 -0.06600
H 	H 	0.49180 0.32970 0.43710 0.04800
C 	C 	0.40540 0.35520 0.37700 -0.02700
H 	H 	0.43890 0.37940 0.35870 0.04000
C 	C 	0.32500 0.34930 0.35710 -0.02400
C 	C 	0.27610 0.31400 0.38380 -0.03200
H 	H 	0.22120 0.31000 0.37030 0.04100
C 	C 	0.30750 0.28450 0.43040 -0.05700
H 	H 	0.27400 0.26030 0.44860 0.05400
C 	C 	0.39100 0.29050 0.57870 -0.02500
C 	C 	0.38950 0.26100 0.62810 -0.05000
H 	H 	0.40770 0.21860 0.62540 0.03200
C 	C 	0.36140 0.29350 0.68140 -0.04900
H 	H 	0.36040 0.27340 0.71520 0.04500
C 	C 	0.33470 0.35550 0.68540 -0.00500
C 	C 	0.33620 0.38500 0.63600 -0.04800
H 	H 	0.31800 0.42740 0.63860 0.04300
C 	C 	0.36430 0.35240 0.58260 -0.05200
H 	H 	0.36530 0.37260 0.54880 0.04500
C 	C 	0.29200 0.38600 0.73000 0.05600
C 	C 	0.29860 0.37110 0.79250 -0.10900
H 	H 	0.33260 0.34180 0.80170 0.06300
C 	C 	0.25950 0.39570 0.83860 0.05700
H 	H 	0.26760 0.38380 0.87810 0.01900
C 	C 	0.20740 0.43850 0.82750 -0.13900
C 	C 	0.19800 0.45820 0.77200 0.05400
H 	H 	0.16580 0.48860 0.76300 0.02900
C 	C 	0.24400 0.42800 0.72800 -0.11200
H 	H 	0.23680 0.44120 0.68920 0.06400
C 	C 	0.97400 0.85600 0.42400 -0.10400
H 	H 	0.00870 0.88500 0.47210 0.08400
C 	C 	0.00200 0.84500 0.35700 -0.22000
H 	H 	0.05730 0.85860 0.35750 0.09500
C 	C 	0.83600 0.80500 0.32700 -0.13300
H 	H 	0.77890 0.80210 0.31770 0.05300
C 	C 	0.93800 0.77100 0.30800 0.06200
H 	H 	0.95790 0.74000 0.27290 0.02100
C 	C 	0.86600 0.79210 0.27700 -0.16800
H 	H 	0.83620 0.77420 0.22700 0.06700
C 	C 	0.92300 0.73400 0.36000 -0.16900
H 	H 	0.88550 0.68500 0.33670 0.09000
H 	H 	0.97300 0.73150 0.38930 0.08900
C 	C 	0.64400 0.40500 0.66400 0.01500
H 	H 	0.65460 0.45970 0.68020 0.02800
C 	C 	0.56000 0.36000 0.64200 -0.16800
H 	H 	0.51430 0.38130 0.64640 0.06800
C 	C 	0.56900 0.28700 0.65700 -0.17400
H 	H 	0.53090 0.25870 0.67130 0.06600
C 	C 	0.68700 0.37000 0.71500 -0.16900
H 	H 	0.67040 0.38160 0.75640 0.09500
H 	H 	0.74480 0.38730 0.72780 0.09700
C 	C 	0.65300 0.28500 0.66600 0.05300
H 	H 	0.67050 0.25000 0.68620 0.01200
C 	C 	0.67500 0.28200 0.60000 -0.23000
H 	H 	0.70940 0.25220 0.58150 0.10100
Rh	Rh	0.07930 0.09290 0.65260 0.84200
Rh	Rh	0.44140 0.72990 0.45230 0.83900
Zr	Zr	0.07441 0.63288 0.05739 3.20700
Zr	Zr	0.00075 0.50355 0.88868 3.20600
Zr	Zr	0.87188 0.53231 0.98577 3.19500
Cl	Cl	0.41680 0.77090 0.55670 -0.47300
Cl	Cl	0.98270 0.97840 0.58700 -0.48100
P 	P 	0.57410 0.75390 0.49150 -0.04400
P 	P 	0.17040 0.04000 0.69230 -0.04700
O 	O 	0.95620 0.26800 0.91970 -0.65500
C 	C 	0.97310 0.23800 0.86440 0.32600
O 	O 	0.05010 0.25220 0.87370 -0.27700
O 	O 	0.97270 0.58320 0.07750 -1.29000
O 	O 	0.09880 0.55280 0.97840 -1.29400
O 	O 	0.97230 0.58780 0.96410 -1.22700
O 	O 	0.89940 0.45580 0.90920 -1.28500
O 	O 	0.75690 0.44570 0.93610 -0.62900
O 	O 	0.79600 0.33520 0.90600 -0.63900
O 	O 	0.81990 0.55020 0.89260 -0.68800
O 	O 	0.90150 0.53250 0.82820 -0.61200
O 	O 	0.81750 0.54780 0.07030 -0.78500
O 	O 	0.89820 0.52440 0.15120 -0.66200
O 	O 	0.11200 0.68540 0.17570 -0.64200
O 	O 	0.05730 0.59740 0.20980 -0.63200
O 	O 	0.05660 0.60710 0.87780 -0.61600
O 	O 	0.10930 0.69000 0.98960 -0.63100
C 	C 	0.08930 0.66850 0.93000 0.50700
C 	C 	0.83900 0.53790 0.11800 0.63300
C 	C 	0.10140 0.73120 0.89790 -0.10200
C 	C 	0.05980 0.71730 0.83060 0.04800
H 	H 	0.02410 0.67050 0.80230 0.03500
C 	C 	0.07050 0.77180 0.80470 -0.12100
H 	H 	0.04210 0.76230 0.75860 0.07400
C 	C 	0.12270 0.84020 0.84610 0.07900
C 	C 	0.16430 0.85420 0.91340 -0.12000
H 	H 	0.20000 0.90100 0.94170 0.07500
C 	C 	0.15370 0.79970 0.93930 0.04800
H 	H 	0.18210 0.80920 0.98540 0.03700
C 	C 	0.81500 0.03820 0.70580 0.05900
C 	C 	0.78900 0.08200 0.75600 -0.10900
H 	H 	0.73520 0.06990 0.75370 0.06500
C 	C 	0.84200 0.14420 0.80920 0.03500
H 	H 	0.82440 0.17420 0.84340 0.02500
C 	C 	0.92070 0.16220 0.81250 -0.09600
C 	C 	0.94640 0.11820 0.76240 0.03700
H 	H 	0.00020 0.13060 0.76460 0.00600
C 	C 	0.89300 0.05630 0.70910 -0.12800
H 	H 	0.91100 0.02620 0.67490 0.07900
C 	C 	0.31400 0.63500 0.38500 -0.06800
H 	H 	0.28210 0.60870 0.40700 0.04500
C 	C 	0.13300 0.89500 0.81900 -0.03500
C 	C 	0.07600 0.91000 0.77600 -0.01000
H 	H 	0.02210 0.88590 0.76710 0.03900
C 	C 	0.20600 0.94100 0.82400 -0.01200
H 	H 	0.25020 0.93910 0.85650 0.03800
C 	C 	0.22700 0.98800 0.79200 -0.08900
H 	H 	0.27920 0.01400 0.79950 0.06500
C 	C 	0.09100 0.95700 0.74400 -0.08500
H 	H 	0.04750 0.96650 0.71680 0.05900
C 	C 	0.16600 0.99200 0.75100 0.02800
C 	C 	0.63700 0.84900 0.54120 -0.00900
C 	C 	0.71390 0.86560 0.53950 -0.04200
H 	H 	0.72820 0.83500 0.50310 0.04600
C 	C 	0.76990 0.92710 0.59090 -0.05900
H 	H 	0.82250 0.93850 0.58970 0.06900
C 	C 	0.74900 0.97200 0.64400 0.00300
C 	C 	0.67200 0.95530 0.64580 -0.04100
H 	H 	0.65790 0.98600 0.68210 0.04300
C 	C 	0.61620 0.89380 0.59440 -0.05900
H 	H 	0.56360 0.88240 0.59560 0.05700
C 	C 	0.17020 0.98540 0.55890 -0.04700
H 	H 	0.16360 0.03240 0.56200 0.02600
C 	C 	0.17290 0.93600 0.49790 -0.04400
H 	H 	0.16820 0.94920 0.45930 0.05100
C 	C 	0.18260 0.86730 0.49330 -0.00500
C 	C 	0.18950 0.84790 0.54970 -0.04400
H 	H 	0.19610 0.80100 0.54660 0.05300
C 	C 	0.18670 0.89730 0.61070 -0.04100
H 	H 	0.19150 0.88410 0.64930 0.05400
C 	C 	0.17710 0.96610 0.61530 -0.00700
C 	C 	0.17060 0.78090 0.30880 0.07500
H 	H 	0.18670 0.79640 0.27600 0.02300
C 	C 	0.12650 0.70920 0.28930 -0.16500
C 	C 	0.10310 0.68660 0.33720 0.07900
H 	H 	0.07290 0.63760 0.32380 0.02400
C 	C 	0.12380 0.73580 0.40460 -0.13800
H 	H 	0.10770 0.72040 0.43740 0.07500
C 	C 	0.16790 0.80750 0.42410 0.07400
C 	C 	0.19130 0.83010 0.37620 -0.14300
H 	H 	0.22150 0.87910 0.38950 0.07600
C 	C 	0.09500 0.66000 0.21500 0.52200
C 	C 	0.27720 0.09800 0.73190 -0.01300
C 	C 	0.29300 0.15700 0.79800 -0.06300
H 	H 	0.25430 0.16190 0.82010 0.04100
C 	C 	0.36900 0.20630 0.82720 -0.04400
H 	H 	0.38300 0.24620 0.87000 0.04200
C 	C 	0.42400 0.19480 0.79110 -0.01100
C 	C 	0.41100 0.13300 0.72700 -0.04500
H 	H 	0.45180 0.12390 0.70730 0.04000
C 	C 	0.33400 0.08800 0.69800 -0.05700
H 	H 	0.31980 0.05000 0.65460 0.05200
C 	C 	0.56860 0.20680 0.81500 -0.11400
H 	H 	0.55850 0.15510 0.79310 0.06700
C 	C 	0.64570 0.25110 0.84260 0.04000
H 	H 	0.68830 0.22960 0.83970 0.03600
C 	C 	0.66040 0.32670 0.87460 -0.10300
C 	C 	0.59800 0.35810 0.87890 0.03800
H 	H 	0.60810 0.40980 0.90080 0.03200
C 	C 	0.52090 0.31380 0.85120 -0.11200
H 	H 	0.47830 0.33530 0.85420 0.06500
C 	C 	0.50620 0.23820 0.81930 0.06000
C 	C 	0.11200 0.20700 0.60000 -0.00100
H 	H 	0.13760 0.21410 0.56550 0.03400
C 	C 	0.74900 0.37560 0.91110 0.44600
C 	C 	0.83800 0.55030 0.83920 0.49300
C 	C 	0.78990 0.56860 0.78220 -0.17300
C 	C 	0.81320 0.56580 0.72530 0.08400
H 	H 	0.85630 0.54650 0.71840 0.01600
C 	C 	0.77340 0.59130 0.67850 -0.14800
H 	H 	0.78930 0.58940 0.63970 0.07800
C 	C 	0.71030 0.61950 0.68870 0.08600
C 	C 	0.68700 0.62220 0.74560 -0.14600
H 	H 	0.64390 0.64150 0.75250 0.08000
C 	C 	0.72680 0.59680 0.79240 0.08000
H 	H 	0.71080 0.59860 0.83130 0.00700
C 	C 	0.61210 0.70960 0.54980 0.00100
C 	C 	0.56320 0.67430 0.57650 -0.06600
H 	H 	0.50820 0.67030 0.56290 0.04800
C 	C 	0.59460 0.64480 0.62300 -0.02700
H 	H 	0.56110 0.62060 0.64130 0.04000
C 	C 	0.67500 0.65070 0.64290 -0.02400
C 	C 	0.72390 0.68600 0.61620 -0.03200
H 	H 	0.77880 0.69000 0.62970 0.04100
C 	C 	0.69250 0.71550 0.56960 -0.05700
H 	H 	0.72600 0.73970 0.55140 0.05400
C 	C 	0.60900 0.70950 0.42130 -0.02500
C 	C 	0.61050 0.73900 0.37190 -0.05000
H 	H 	0.59230 0.78140 0.37460 0.03200
C 	C 	0.63860 0.70650 0.31860 -0.04900
H 	H 	0.63960 0.72660 0.28480 0.04500
C 	C 	0.66530 0.64450 0.31460 -0.00500
C 	C 	0.66380 0.61500 0.36400 -0.04800
H 	H 	0.68200 0.57260 0.36140 0.04300
C 	C 	0.63570 0.64760 0.41740 -0.05200
H 	H 	0.63470 0.62740 0.45120 0.04500
C 	C 	0.70800 0.61400 0.27000 0.05600
C 	C 	0.70140 0.62890 0.20750 -0.10900
H 	H 	0.66740 0.65820 0.19830 0.06300
C 	C 	0.74050 0.60430 0.16140 0.05700
H 	H 	0.73240 0.61620 0.12190 0.01900
C 	C 	0.79260 0.56150 0.17250 -0.13900
C 	C 	0.80200 0.54180 0.22800 0.05400
H 	H 	0.83420 0.51140 0.23700 0.02900
C 	C 	0.75600 0.57200 0.27200 -0.11200
H 	H 	0.76320 0.55880 0.31080 0.06400
C 	C 	0.02600 0.14400 0.57600 -0.10400
H 	H 	0.99130 0.11500 0.52790 0.08400
C 	C 	0.99800 0.15500 0.64300 -0.22000
H 	H 	0.94270 0.14140 0.64250 0.09500
C 	C 	0.16400 0.19500 0.67300 -0.13300
H 	H 	0.22110 0.19790 0.68230 0.05300
C 	C 	0.06200 0.22900 0.69200 0.06200
H 	H 	0.04210 0.26000 0.72710 0.02100
C 	C 	0.13400 0.20790 0.72300 -0.16800
H 	H 	0.16380 0.22580 0.77300 0.06700
C 	C 	0.07700 0.26600 0.64000 -0.16900
H 	H 	0.11450 0.31500 0.66330 0.09000
H 	H 	0.02700 0.26850 0.61070 0.08900
C 	C 	0.35600 0.59500 0.33600 0.01500
H 	H 	0.34540 0.54030 0.31980 0.02800
C 	C 	0.44000 0.64000 0.35800 -0.16800
H 	H 	0.48570 0.61870 0.35360 0.06800
C 	C 	0.43100 0.71300 0.34300 -0.17400
H 	H 	0.46910 0.74130 0.32870 0.06600
C 	C 	0.31300 0.63000 0.28500 -0.16900
H 	H 	0.32960 0.61840 0.24360 0.09500
H 	H 	0.25520 0.61270 0.27220 0.09700
C 	C 	0.34700 0.71500 0.33400 0.05300
H 	H 	0.32950 0.75000 0.31380 0.01200
C 	C 	0.32500 0.71800 0.40000 -0.23000
H 	H 	0.29060 0.74780 0.41850 0.10100
