data_crystal

_cell_length_a 14.61110
_cell_length_b 15.93580
_cell_length_c 32.31300
_cell_angle_alpha 90.00000
_cell_angle_beta  90.00000
_cell_angle_gamma 90.00000

_symmetry_space_group_name_	'P 1'
_symmetry_space_group_name_H-M	'P 1'

loop_
_symmetry_equiv_pos_as_xyz
  x,y,z

loop_
_atom_site_label
_atom_site_type_symbol
_atom_site_fract_x
_atom_site_fract_y
_atom_site_fract_z
_atom_site_charge
C 	C 	0.94180 0.23630 0.93410 0.39400
N 	N 	0.05960 0.45170 0.87364 -0.28800
C 	C 	0.87030 0.23880 0.96740 -0.10400
C 	C 	0.13390 0.49420 0.86500 0.15700
H 	H 	0.18870 0.46390 0.85980 -0.02300
C 	C 	0.87310 0.30610 0.99411 -0.00300
H 	H 	0.91860 0.34800 0.99030 0.04800
C 	C 	0.98820 0.49690 0.88260 0.16000
H 	H 	0.93360 0.46900 0.89070 -0.03100
C 	C 	0.81130 0.31450 0.02642 -0.00800
H 	H 	0.81520 0.36200 0.04410 0.05000
C 	C 	0.74450 0.25550 0.03330 -0.09900
C 	C 	0.66420 0.12560 0.00975 -0.06900
H 	H 	0.62030 0.13220 0.03120 0.06500
C 	C 	0.65670 0.05950 0.98313 -0.02600
H 	H 	0.60900 0.01970 0.98660 0.04000
C 	C 	0.71960 0.05030 0.95053 -0.02200
H 	H 	0.71390 0.00420 0.93210 0.04100
C 	C 	0.78850 0.10680 0.94514 -0.07900
H 	H 	0.82980 0.09990 0.92270 0.07600
C 	C 	0.80010 0.17610 0.97249 0.05300
C 	C 	0.73650 0.18490 0.00590 0.04000
C 	C 	0.68380 0.26620 0.07019 0.38300
C 	C 	0.92540 0.22790 0.82316 0.37900
C 	C 	0.85110 0.22780 0.79117 -0.09900
C 	C 	0.85090 0.29380 0.76353 -0.00700
H 	H 	0.89360 0.33830 0.76670 0.04300
C 	C 	0.78830 0.29550 0.73101 -0.00800
H 	H 	0.78860 0.34160 0.71230 0.04800
C 	C 	0.72660 0.23210 0.72555 -0.09600
C 	C 	0.65200 0.10360 0.75293 -0.07100
H 	H 	0.60890 0.10450 0.73090 0.06900
C 	C 	0.64650 0.04250 0.78245 -0.02500
H 	H 	0.59980 0.00120 0.78080 0.04300
C 	C 	0.70950 0.04010 0.81520 -0.01800
H 	H 	0.70520 0.99710 0.83550 0.03800
C 	C 	0.77640 0.09900 0.81822 -0.07600
H 	H 	0.81840 0.09700 0.84060 0.06800
C 	C 	0.78390 0.16350 0.78801 0.05000
C 	C 	0.72100 0.16570 0.75480 0.04600
C 	C 	0.66700 0.23580 0.68756 0.38000
C 	C 	0.11660 0.97110 0.90010 0.14500
H 	H 	0.14740 0.99990 0.92180 -0.01600
C 	C 	0.12420 0.88430 0.89760 -0.23200
H 	H 	0.16240 0.85510 0.91650 0.13300
C 	C 	0.07820 0.84160 0.86880 0.21800
C 	C 	0.03110 0.88500 0.84130 -0.23100
H 	H 	0.99940 0.85680 0.81980 0.11600
C 	C 	0.02790 0.97160 0.84390 0.13600
H 	H 	0.99510 0.00180 0.82340 -0.01600
N 	N 	0.06850 0.01380 0.87370 -0.28300
O 	O 	0.96220 0.16650 0.91815 -0.46600
O 	O 	0.97920 0.30450 0.92510 -0.46500
O 	O 	0.65490 0.33862 0.07757 -0.45100
O 	O 	0.66800 0.20200 0.09180 -0.47000
O 	O 	0.94210 0.29700 0.84049 -0.45700
O 	O 	0.96720 0.16010 0.83030 -0.45400
O 	O 	0.65830 0.16950 0.66698 -0.46500
O 	O 	0.63070 0.30570 0.67898 -0.44900
Zn	Zn	0.06180 0.14106 0.87641 1.21300
Zn	Zn	0.05626 0.32493 0.87364 1.21600
N 	N 	0.10580 0.75430 0.87470 -0.08000
N 	N 	0.03740 0.71370 0.86740 -0.08900
C 	C 	0.06200 0.62510 0.87000 0.24300
C 	C 	0.13680 0.58120 0.86320 -0.25900
H 	H 	0.19270 0.60900 0.85710 0.14000
C 	C 	0.98800 0.58310 0.88100 -0.26100
H 	H 	0.93370 0.61280 0.88780 0.12800
N 	N 	0.05290 0.75410 0.86170 -0.01700
N 	N 	0.09790 0.71060 0.87090 -0.02500
C 	C 	0.44180 0.26370 0.06590 0.39300
N 	N 	0.55960 0.04830 0.12636 -0.28800
C 	C 	0.37030 0.26120 0.03260 -0.10500
C 	C 	0.63390 0.00580 0.13500 0.15600
H 	H 	0.68870 0.03610 0.14020 -0.02400
C 	C 	0.37310 0.19390 0.00589 -0.00600
H 	H 	0.41860 0.15200 0.00970 0.04700
C 	C 	0.48820 0.00310 0.11740 0.15600
H 	H 	0.43360 0.03100 0.10930 -0.03200
C 	C 	0.31130 0.18550 0.97358 -0.00700
H 	H 	0.31520 0.13800 0.95590 0.04800
C 	C 	0.24450 0.24450 0.96670 -0.10100
C 	C 	0.16420 0.37440 0.99025 -0.07100
H 	H 	0.12030 0.36780 0.96880 0.06400
C 	C 	0.15670 0.44050 0.01687 -0.02700
H 	H 	0.10900 0.48030 0.01340 0.04000
C 	C 	0.21960 0.44970 0.04947 -0.02200
H 	H 	0.21390 0.49580 0.06790 0.04000
C 	C 	0.28850 0.39320 0.05486 -0.07900
H 	H 	0.32980 0.40010 0.07730 0.07500
C 	C 	0.30010 0.32390 0.02751 0.05200
C 	C 	0.23650 0.31510 0.99410 0.04100
C 	C 	0.18380 0.23380 0.92981 0.38400
C 	C 	0.42540 0.27210 0.17684 0.37800
C 	C 	0.35110 0.27220 0.20883 -0.09800
C 	C 	0.35090 0.20620 0.23647 -0.00800
H 	H 	0.39360 0.16170 0.23330 0.04300
C 	C 	0.28830 0.20450 0.26899 -0.00700
H 	H 	0.28860 0.15840 0.28770 0.04800
C 	C 	0.22660 0.26790 0.27445 -0.09700
C 	C 	0.15200 0.39640 0.24707 -0.07500
H 	H 	0.10890 0.39550 0.26910 0.07000
C 	C 	0.14650 0.45750 0.21755 -0.02000
H 	H 	0.09980 0.49880 0.21920 0.04100
C 	C 	0.20950 0.45990 0.18480 -0.02700
H 	H 	0.20520 0.50290 0.16450 0.04300
C 	C 	0.27640 0.40100 0.18178 -0.07200
H 	H 	0.31840 0.40300 0.15940 0.06600
C 	C 	0.28390 0.33650 0.21199 0.04700
C 	C 	0.22100 0.33430 0.24520 0.04800
C 	C 	0.16700 0.26420 0.31244 0.38000
C 	C 	0.61660 0.52890 0.09990 0.14100
H 	H 	0.64740 0.50010 0.07820 -0.01600
C 	C 	0.62420 0.61570 0.10240 -0.23200
H 	H 	0.66240 0.64490 0.08350 0.13300
C 	C 	0.57820 0.65840 0.13120 0.22000
C 	C 	0.53110 0.61500 0.15870 -0.23700
H 	H 	0.49940 0.64320 0.18020 0.12100
C 	C 	0.52790 0.52840 0.15610 0.13700
H 	H 	0.49510 0.49820 0.17660 -0.01800
N 	N 	0.56850 0.48620 0.12630 -0.27900
O 	O 	0.46220 0.33350 0.08185 -0.46800
O 	O 	0.47920 0.19550 0.07490 -0.46600
O 	O 	0.15490 0.16138 0.92243 -0.45200
O 	O 	0.16800 0.29800 0.90820 -0.47000
O 	O 	0.44210 0.20300 0.15951 -0.45800
O 	O 	0.46720 0.33990 0.16970 -0.45600
O 	O 	0.15830 0.33050 0.33302 -0.46500
O 	O 	0.13070 0.19430 0.32102 -0.44900
Zn	Zn	0.56180 0.35894 0.12359 1.21400
Zn	Zn	0.55626 0.17507 0.12636 1.21600
N 	N 	0.60580 0.74570 0.12530 -0.08100
N 	N 	0.53740 0.78630 0.13260 -0.08900
C 	C 	0.56200 0.87490 0.13000 0.24100
C 	C 	0.63680 0.91880 0.13680 -0.25900
H 	H 	0.69270 0.89100 0.14290 0.14000
C 	C 	0.48800 0.91690 0.11900 -0.25800
H 	H 	0.43370 0.88720 0.11220 0.12800
N 	N 	0.55290 0.74590 0.13830 -0.01700
N 	N 	0.59790 0.78940 0.12910 -0.02400
C 	C 	0.44180 0.23630 0.56590 0.39300
N 	N 	0.55960 0.45170 0.62636 -0.28800
C 	C 	0.37030 0.23880 0.53260 -0.10500
C 	C 	0.63390 0.49420 0.63500 0.15500
H 	H 	0.68870 0.46390 0.64020 -0.02400
C 	C 	0.37310 0.30610 0.50589 -0.00600
H 	H 	0.41860 0.34800 0.50970 0.04700
C 	C 	0.48820 0.49690 0.61740 0.15700
H 	H 	0.43360 0.46900 0.60930 -0.03200
C 	C 	0.31130 0.31450 0.47358 -0.00700
H 	H 	0.31520 0.36200 0.45590 0.04900
C 	C 	0.24450 0.25550 0.46670 -0.10000
C 	C 	0.16420 0.12560 0.49025 -0.07000
H 	H 	0.12030 0.13220 0.46880 0.06300
C 	C 	0.15670 0.05950 0.51687 -0.02800
H 	H 	0.10900 0.01970 0.51340 0.03900
C 	C 	0.21960 0.05030 0.54947 -0.02200
H 	H 	0.21390 0.00420 0.56790 0.03900
C 	C 	0.28850 0.10680 0.55486 -0.08000
H 	H 	0.32980 0.09990 0.57730 0.07500
C 	C 	0.30010 0.17610 0.52751 0.05200
C 	C 	0.23650 0.18490 0.49410 0.04100
C 	C 	0.18380 0.26620 0.42981 0.38300
C 	C 	0.42540 0.22790 0.67684 0.37800
C 	C 	0.35110 0.22780 0.70883 -0.09700
C 	C 	0.35090 0.29380 0.73647 -0.00900
H 	H 	0.39360 0.33830 0.73330 0.04400
C 	C 	0.28830 0.29550 0.76899 -0.00600
H 	H 	0.28860 0.34160 0.78770 0.04800
C 	C 	0.22660 0.23210 0.77445 -0.09800
C 	C 	0.15200 0.10360 0.74707 -0.07800
H 	H 	0.10890 0.10450 0.76910 0.07100
C 	C 	0.14650 0.04250 0.71755 -0.01500
H 	H 	0.09980 0.00120 0.71920 0.03800
C 	C 	0.20950 0.04010 0.68480 -0.03500
H 	H 	0.20520 0.99710 0.66450 0.04700
C 	C 	0.27640 0.09900 0.68178 -0.06700
H 	H 	0.31840 0.09700 0.65940 0.06400
C 	C 	0.28390 0.16350 0.71199 0.04400
C 	C 	0.22100 0.16570 0.74520 0.05000
C 	C 	0.16700 0.23580 0.81244 0.38100
C 	C 	0.61660 0.97110 0.59990 0.13900
H 	H 	0.64740 0.99990 0.57820 -0.01600
C 	C 	0.62420 0.88430 0.60240 -0.23100
H 	H 	0.66240 0.85510 0.58350 0.13300
C 	C 	0.57820 0.84160 0.63120 0.21800
C 	C 	0.53110 0.88500 0.65870 -0.23600
H 	H 	0.49940 0.85680 0.68020 0.12000
C 	C 	0.52790 0.97160 0.65610 0.13400
H 	H 	0.49510 0.00180 0.67660 -0.01700
N 	N 	0.56850 0.01380 0.62630 -0.27800
O 	O 	0.46220 0.16650 0.58185 -0.46800
O 	O 	0.47920 0.30450 0.57490 -0.46600
O 	O 	0.15490 0.33862 0.42243 -0.45100
O 	O 	0.16800 0.20200 0.40820 -0.47000
O 	O 	0.44210 0.29700 0.65951 -0.45700
O 	O 	0.46720 0.16010 0.66970 -0.45500
O 	O 	0.15830 0.16950 0.83302 -0.46600
O 	O 	0.13070 0.30570 0.82102 -0.44900
Zn	Zn	0.56180 0.14106 0.62359 1.21500
Zn	Zn	0.55626 0.32493 0.62636 1.21600
N 	N 	0.60580 0.75430 0.62530 -0.08000
N 	N 	0.53740 0.71370 0.63260 -0.08900
C 	C 	0.56200 0.62510 0.63000 0.24100
C 	C 	0.63680 0.58120 0.63680 -0.25800
H 	H 	0.69270 0.60900 0.64290 0.14000
C 	C 	0.48800 0.58310 0.61900 -0.25900
H 	H 	0.43370 0.61280 0.61220 0.12800
N 	N 	0.55290 0.75410 0.63830 -0.01700
N 	N 	0.59790 0.71060 0.62910 -0.02400
C 	C 	0.94180 0.26370 0.43410 0.39300
N 	N 	0.05960 0.04830 0.37364 -0.29300
C 	C 	0.87030 0.26120 0.46740 -0.10400
C 	C 	0.13390 0.00580 0.36500 0.15400
H 	H 	0.18870 0.03610 0.35980 -0.02400
C 	C 	0.87310 0.19390 0.49411 -0.00600
H 	H 	0.91860 0.15200 0.49030 0.04800
C 	C 	0.98820 0.00310 0.38260 0.17500
H 	H 	0.93360 0.03100 0.39070 -0.03600
C 	C 	0.81130 0.18550 0.52642 -0.00700
H 	H 	0.81520 0.13800 0.54410 0.04900
C 	C 	0.74450 0.24450 0.53330 -0.10000
C 	C 	0.66420 0.37440 0.50975 -0.07000
H 	H 	0.62030 0.36780 0.53120 0.06400
C 	C 	0.65670 0.44050 0.48313 -0.02700
H 	H 	0.60900 0.48030 0.48660 0.04000
C 	C 	0.71960 0.44970 0.45053 -0.02100
H 	H 	0.71390 0.49580 0.43210 0.04000
C 	C 	0.78850 0.39320 0.44514 -0.07900
H 	H 	0.82980 0.40010 0.42270 0.07500
C 	C 	0.80010 0.32390 0.47249 0.05200
C 	C 	0.73650 0.31510 0.50590 0.04100
C 	C 	0.68380 0.23380 0.57019 0.38300
C 	C 	0.92540 0.27210 0.32316 0.37800
C 	C 	0.85110 0.27220 0.29117 -0.09800
C 	C 	0.85090 0.20620 0.26353 -0.00800
H 	H 	0.89360 0.16170 0.26670 0.04400
C 	C 	0.78830 0.20450 0.23101 -0.00600
H 	H 	0.78860 0.15840 0.21230 0.04800
C 	C 	0.72660 0.26790 0.22555 -0.09700
C 	C 	0.65200 0.39640 0.25293 -0.07500
H 	H 	0.60890 0.39550 0.23090 0.07000
C 	C 	0.64650 0.45750 0.28245 -0.02000
H 	H 	0.59980 0.49880 0.28080 0.04100
C 	C 	0.70950 0.45990 0.31520 -0.02700
H 	H 	0.70520 0.50290 0.33550 0.04300
C 	C 	0.77640 0.40100 0.31822 -0.07100
H 	H 	0.81840 0.40300 0.34060 0.06600
C 	C 	0.78390 0.33650 0.28801 0.04700
C 	C 	0.72100 0.33430 0.25480 0.04800
C 	C 	0.66700 0.26420 0.18756 0.38000
C 	C 	0.11660 0.52890 0.40010 0.14000
H 	H 	0.14740 0.50010 0.42180 -0.01500
C 	C 	0.12420 0.61570 0.39760 -0.23000
H 	H 	0.16240 0.64490 0.41650 0.13300
C 	C 	0.07820 0.65840 0.36880 0.21700
C 	C 	0.03110 0.61500 0.34130 -0.23300
H 	H 	0.99940 0.64320 0.31980 0.11800
C 	C 	0.02790 0.52840 0.34390 0.13500
H 	H 	0.99510 0.49820 0.32340 -0.01800
N 	N 	0.06850 0.48620 0.37370 -0.27900
O 	O 	0.96220 0.33350 0.41815 -0.46700
O 	O 	0.97920 0.19550 0.42510 -0.46400
O 	O 	0.65490 0.16138 0.57757 -0.45100
O 	O 	0.66800 0.29800 0.59180 -0.47000
O 	O 	0.94210 0.20300 0.34049 -0.45600
O 	O 	0.96720 0.33990 0.33030 -0.45500
O 	O 	0.65830 0.33050 0.16698 -0.46500
O 	O 	0.63070 0.19430 0.17898 -0.44900
Zn	Zn	0.06180 0.35894 0.37641 1.21400
Zn	Zn	0.05626 0.17507 0.37364 1.21500
N 	N 	0.10580 0.74570 0.37470 -0.07900
N 	N 	0.03740 0.78630 0.36740 -0.09000
C 	C 	0.06200 0.87490 0.37000 0.25300
C 	C 	0.13680 0.91880 0.36320 -0.26000
H 	H 	0.19270 0.89100 0.35710 0.14100
C 	C 	0.98800 0.91690 0.38100 -0.27900
H 	H 	0.93370 0.88720 0.38780 0.13400
N 	N 	0.05290 0.74590 0.36170 -0.01600
N 	N 	0.09790 0.78940 0.37090 -0.02700
C 	C 	0.55820 0.76370 0.43410 0.39300
N 	N 	0.44040 0.54830 0.37364 -0.28800
C 	C 	0.62970 0.76120 0.46740 -0.10500
C 	C 	0.36610 0.50580 0.36500 0.15500
H 	H 	0.31130 0.53610 0.35980 -0.02400
C 	C 	0.62690 0.69390 0.49411 -0.00600
H 	H 	0.58140 0.65200 0.49030 0.04700
C 	C 	0.51180 0.50310 0.38260 0.15700
H 	H 	0.56640 0.53100 0.39070 -0.03200
C 	C 	0.68870 0.68550 0.52642 -0.00700
H 	H 	0.68480 0.63800 0.54410 0.04900
C 	C 	0.75550 0.74450 0.53330 -0.10000
C 	C 	0.83580 0.87440 0.50975 -0.07000
H 	H 	0.87970 0.86780 0.53120 0.06300
C 	C 	0.84330 0.94050 0.48313 -0.02800
H 	H 	0.89100 0.98030 0.48660 0.03900
C 	C 	0.78040 0.94970 0.45053 -0.02200
H 	H 	0.78610 0.99580 0.43210 0.03900
C 	C 	0.71150 0.89320 0.44514 -0.08000
H 	H 	0.67020 0.90010 0.42270 0.07500
C 	C 	0.69990 0.82390 0.47249 0.05200
C 	C 	0.76350 0.81510 0.50590 0.04100
C 	C 	0.81620 0.73380 0.57019 0.38300
C 	C 	0.57460 0.77210 0.32316 0.37800
C 	C 	0.64890 0.77220 0.29117 -0.09700
C 	C 	0.64910 0.70620 0.26353 -0.00900
H 	H 	0.60640 0.66170 0.26670 0.04400
C 	C 	0.71170 0.70450 0.23101 -0.00600
H 	H 	0.71140 0.65840 0.21230 0.04800
C 	C 	0.77340 0.76790 0.22555 -0.09800
C 	C 	0.84800 0.89640 0.25293 -0.07800
H 	H 	0.89110 0.89550 0.23090 0.07100
C 	C 	0.85350 0.95750 0.28245 -0.01500
H 	H 	0.90020 0.99880 0.28080 0.03800
C 	C 	0.79050 0.95990 0.31520 -0.03500
H 	H 	0.79480 0.00290 0.33550 0.04700
C 	C 	0.72360 0.90100 0.31822 -0.06700
H 	H 	0.68160 0.90300 0.34060 0.06400
C 	C 	0.71610 0.83650 0.28801 0.04400
C 	C 	0.77900 0.83430 0.25480 0.05000
C 	C 	0.83300 0.76420 0.18756 0.38100
C 	C 	0.38340 0.02890 0.40010 0.13900
H 	H 	0.35260 0.00010 0.42180 -0.01600
C 	C 	0.37580 0.11570 0.39760 -0.23100
H 	H 	0.33760 0.14490 0.41650 0.13300
C 	C 	0.42180 0.15840 0.36880 0.21800
C 	C 	0.46890 0.11500 0.34130 -0.23600
H 	H 	0.50060 0.14320 0.31980 0.12000
C 	C 	0.47210 0.02840 0.34390 0.13400
H 	H 	0.50490 0.99820 0.32340 -0.01700
N 	N 	0.43150 0.98620 0.37370 -0.27800
O 	O 	0.53780 0.83350 0.41815 -0.46800
O 	O 	0.52080 0.69550 0.42510 -0.46600
O 	O 	0.84510 0.66138 0.57757 -0.45100
O 	O 	0.83200 0.79800 0.59180 -0.47000
O 	O 	0.55790 0.70300 0.34049 -0.45700
O 	O 	0.53280 0.83990 0.33030 -0.45500
O 	O 	0.84170 0.83050 0.16698 -0.46600
O 	O 	0.86930 0.69430 0.17898 -0.44900
Zn	Zn	0.43820 0.85894 0.37641 1.21500
Zn	Zn	0.44374 0.67507 0.37364 1.21600
N 	N 	0.39420 0.24570 0.37470 -0.08000
N 	N 	0.46260 0.28630 0.36740 -0.08900
C 	C 	0.43800 0.37490 0.37000 0.24100
C 	C 	0.36320 0.41880 0.36320 -0.25800
H 	H 	0.30730 0.39100 0.35710 0.14000
C 	C 	0.51200 0.41690 0.38100 -0.25900
H 	H 	0.56630 0.38720 0.38780 0.12800
N 	N 	0.44710 0.24590 0.36170 -0.01700
N 	N 	0.40210 0.28940 0.37090 -0.02400
C 	C 	0.05820 0.73630 0.56590 0.39300
N 	N 	0.94040 0.95170 0.62636 -0.29300
C 	C 	0.12970 0.73880 0.53260 -0.10400
C 	C 	0.86610 0.99420 0.63500 0.15400
H 	H 	0.81130 0.96390 0.64020 -0.02400
C 	C 	0.12690 0.80610 0.50589 -0.00600
H 	H 	0.08140 0.84800 0.50970 0.04800
C 	C 	0.01180 0.99690 0.61740 0.17500
H 	H 	0.06640 0.96900 0.60930 -0.03600
C 	C 	0.18870 0.81450 0.47358 -0.00700
H 	H 	0.18480 0.86200 0.45590 0.04900
C 	C 	0.25550 0.75550 0.46670 -0.10000
C 	C 	0.33580 0.62560 0.49025 -0.07000
H 	H 	0.37970 0.63220 0.46880 0.06400
C 	C 	0.34330 0.55950 0.51687 -0.02700
H 	H 	0.39100 0.51970 0.51340 0.04000
C 	C 	0.28040 0.55030 0.54947 -0.02100
H 	H 	0.28610 0.50420 0.56790 0.04000
C 	C 	0.21150 0.60680 0.55486 -0.07900
H 	H 	0.17020 0.59990 0.57730 0.07500
C 	C 	0.19990 0.67610 0.52751 0.05200
C 	C 	0.26350 0.68490 0.49410 0.04100
C 	C 	0.31620 0.76620 0.42981 0.38300
C 	C 	0.07460 0.72790 0.67684 0.37800
C 	C 	0.14890 0.72780 0.70883 -0.09800
C 	C 	0.14910 0.79380 0.73647 -0.00800
H 	H 	0.10640 0.83830 0.73330 0.04400
C 	C 	0.21170 0.79550 0.76899 -0.00600
H 	H 	0.21140 0.84160 0.78770 0.04800
C 	C 	0.27340 0.73210 0.77445 -0.09700
C 	C 	0.34800 0.60360 0.74707 -0.07500
H 	H 	0.39110 0.60450 0.76910 0.07000
C 	C 	0.35350 0.54250 0.71755 -0.02000
H 	H 	0.40020 0.50120 0.71920 0.04100
C 	C 	0.29050 0.54010 0.68480 -0.02700
H 	H 	0.29480 0.49710 0.66450 0.04300
C 	C 	0.22360 0.59900 0.68178 -0.07100
H 	H 	0.18160 0.59700 0.65940 0.06600
C 	C 	0.21610 0.66350 0.71199 0.04700
C 	C 	0.27900 0.66570 0.74520 0.04800
C 	C 	0.33300 0.73580 0.81244 0.38000
C 	C 	0.88340 0.47110 0.59990 0.14000
H 	H 	0.85260 0.49990 0.57820 -0.01500
C 	C 	0.87580 0.38430 0.60240 -0.23000
H 	H 	0.83760 0.35510 0.58350 0.13300
C 	C 	0.92180 0.34160 0.63120 0.21700
C 	C 	0.96890 0.38500 0.65870 -0.23300
H 	H 	0.00060 0.35680 0.68020 0.11800
C 	C 	0.97210 0.47160 0.65610 0.13500
H 	H 	0.00490 0.50180 0.67660 -0.01800
N 	N 	0.93150 0.51380 0.62630 -0.27900
O 	O 	0.03780 0.66650 0.58185 -0.46700
O 	O 	0.02080 0.80450 0.57490 -0.46400
O 	O 	0.34510 0.83862 0.42243 -0.45100
O 	O 	0.33200 0.70200 0.40820 -0.47000
O 	O 	0.05790 0.79700 0.65951 -0.45600
O 	O 	0.03280 0.66010 0.66970 -0.45500
O 	O 	0.34170 0.66950 0.83302 -0.46500
O 	O 	0.36930 0.80570 0.82102 -0.44900
Zn	Zn	0.93820 0.64106 0.62359 1.21400
Zn	Zn	0.94374 0.82493 0.62636 1.21500
N 	N 	0.89420 0.25430 0.62530 -0.07900
N 	N 	0.96260 0.21370 0.63260 -0.09000
C 	C 	0.93800 0.12510 0.63000 0.25300
C 	C 	0.86320 0.08120 0.63680 -0.26000
H 	H 	0.80730 0.10900 0.64290 0.14100
C 	C 	0.01200 0.08310 0.61900 -0.27900
H 	H 	0.06630 0.11280 0.61220 0.13400
N 	N 	0.94710 0.25410 0.63830 -0.01600
N 	N 	0.90210 0.21060 0.62910 -0.02700
C 	C 	0.05820 0.76370 0.06590 0.39300
N 	N 	0.94040 0.54830 0.12636 -0.28900
C 	C 	0.12970 0.76120 0.03260 -0.10500
C 	C 	0.86610 0.50580 0.13500 0.15600
H 	H 	0.81130 0.53610 0.14020 -0.02400
C 	C 	0.12690 0.69390 0.00589 -0.00400
H 	H 	0.08140 0.65200 0.00970 0.04700
C 	C 	0.01180 0.50310 0.11740 0.15900
H 	H 	0.06640 0.53100 0.10930 -0.03200
C 	C 	0.18870 0.68550 0.97358 -0.00900
H 	H 	0.18480 0.63800 0.95590 0.04900
C 	C 	0.25550 0.74450 0.96670 -0.10000
C 	C 	0.33580 0.87440 0.99025 -0.07000
H 	H 	0.37970 0.86780 0.96880 0.06400
C 	C 	0.34330 0.94050 0.01687 -0.02600
H 	H 	0.39100 0.98030 0.01340 0.04000
C 	C 	0.28040 0.94970 0.04947 -0.02200
H 	H 	0.28610 0.99580 0.06790 0.04100
C 	C 	0.21150 0.89320 0.05486 -0.07900
H 	H 	0.17020 0.90010 0.07730 0.07600
C 	C 	0.19990 0.82390 0.02751 0.05300
C 	C 	0.26350 0.81510 0.99410 0.04000
C 	C 	0.31620 0.73380 0.92981 0.38300
C 	C 	0.07460 0.77210 0.17684 0.37900
C 	C 	0.14890 0.77220 0.20883 -0.09900
C 	C 	0.14910 0.70620 0.23647 -0.00700
H 	H 	0.10640 0.66170 0.23330 0.04300
C 	C 	0.21170 0.70450 0.26899 -0.00800
H 	H 	0.21140 0.65840 0.28770 0.04800
C 	C 	0.27340 0.76790 0.27445 -0.09600
C 	C 	0.34800 0.89640 0.24707 -0.07100
H 	H 	0.39110 0.89550 0.26910 0.06900
C 	C 	0.35350 0.95750 0.21755 -0.02500
H 	H 	0.40020 0.99880 0.21920 0.04300
C 	C 	0.29050 0.95990 0.18480 -0.01800
H 	H 	0.29480 0.00290 0.16450 0.03800
C 	C 	0.22360 0.90100 0.18178 -0.07600
H 	H 	0.18160 0.90300 0.15940 0.06800
C 	C 	0.21610 0.83650 0.21199 0.05000
C 	C 	0.27900 0.83430 0.24520 0.04600
C 	C 	0.33300 0.76420 0.31244 0.38000
C 	C 	0.88340 0.02890 0.09990 0.14500
H 	H 	0.85260 0.00010 0.07820 -0.01600
C 	C 	0.87580 0.11570 0.10240 -0.23200
H 	H 	0.83760 0.14490 0.08350 0.13300
C 	C 	0.92180 0.15840 0.13120 0.21800
C 	C 	0.96890 0.11500 0.15870 -0.23100
H 	H 	0.00060 0.14320 0.18020 0.11600
C 	C 	0.97210 0.02840 0.15610 0.13600
H 	H 	0.00490 0.99820 0.17660 -0.01600
N 	N 	0.93150 0.98620 0.12630 -0.28300
O 	O 	0.03780 0.83350 0.08185 -0.46600
O 	O 	0.02080 0.69550 0.07490 -0.46500
O 	O 	0.34510 0.66138 0.92243 -0.45100
O 	O 	0.33200 0.79800 0.90820 -0.47000
O 	O 	0.05790 0.70300 0.15951 -0.45700
O 	O 	0.03280 0.83990 0.16970 -0.45400
O 	O 	0.34170 0.83050 0.33302 -0.46500
O 	O 	0.36930 0.69430 0.32102 -0.44900
Zn	Zn	0.93820 0.85894 0.12359 1.21300
Zn	Zn	0.94374 0.67507 0.12636 1.21600
N 	N 	0.89420 0.24570 0.12530 -0.08000
N 	N 	0.96260 0.28630 0.13260 -0.08900
C 	C 	0.93800 0.37490 0.13000 0.24300
C 	C 	0.86320 0.41880 0.13680 -0.25900
H 	H 	0.80730 0.39100 0.14290 0.14000
C 	C 	0.01200 0.41690 0.11900 -0.26100
H 	H 	0.06630 0.38720 0.11220 0.12800
N 	N 	0.94710 0.24590 0.13830 -0.01700
N 	N 	0.90210 0.28940 0.12910 -0.02500
C 	C 	0.55820 0.73630 0.93410 0.39300
N 	N 	0.44040 0.95170 0.87364 -0.28800
C 	C 	0.62970 0.73880 0.96740 -0.10500
C 	C 	0.36610 0.99420 0.86500 0.15600
H 	H 	0.31130 0.96390 0.85980 -0.02400
C 	C 	0.62690 0.80610 0.99411 -0.00600
H 	H 	0.58140 0.84800 0.99030 0.04700
C 	C 	0.51180 0.99690 0.88260 0.15600
H 	H 	0.56640 0.96900 0.89070 -0.03200
C 	C 	0.68870 0.81450 0.02642 -0.00700
H 	H 	0.68480 0.86200 0.04410 0.04800
C 	C 	0.75550 0.75550 0.03330 -0.10100
C 	C 	0.83580 0.62560 0.00975 -0.07100
H 	H 	0.87970 0.63220 0.03120 0.06400
C 	C 	0.84330 0.55950 0.98313 -0.02700
H 	H 	0.89100 0.51970 0.98660 0.04000
C 	C 	0.78040 0.55030 0.95053 -0.02200
H 	H 	0.78610 0.50420 0.93210 0.04000
C 	C 	0.71150 0.60680 0.94514 -0.07900
H 	H 	0.67020 0.59990 0.92270 0.07500
C 	C 	0.69990 0.67610 0.97249 0.05200
C 	C 	0.76350 0.68490 0.00590 0.04100
C 	C 	0.81620 0.76620 0.07019 0.38400
C 	C 	0.57460 0.72790 0.82316 0.37800
C 	C 	0.64890 0.72780 0.79117 -0.09800
C 	C 	0.64910 0.79380 0.76353 -0.00800
H 	H 	0.60640 0.83830 0.76670 0.04300
C 	C 	0.71170 0.79550 0.73101 -0.00700
H 	H 	0.71140 0.84160 0.71230 0.04800
C 	C 	0.77340 0.73210 0.72555 -0.09700
C 	C 	0.84800 0.60360 0.75293 -0.07500
H 	H 	0.89110 0.60450 0.73090 0.07000
C 	C 	0.85350 0.54250 0.78245 -0.02000
H 	H 	0.90020 0.50120 0.78080 0.04100
C 	C 	0.79050 0.54010 0.81520 -0.02700
H 	H 	0.79480 0.49710 0.83550 0.04300
C 	C 	0.72360 0.59900 0.81822 -0.07200
H 	H 	0.68160 0.59700 0.84060 0.06600
C 	C 	0.71610 0.66350 0.78801 0.04700
C 	C 	0.77900 0.66570 0.75480 0.04800
C 	C 	0.83300 0.73580 0.68756 0.38000
C 	C 	0.38340 0.47110 0.90010 0.14100
H 	H 	0.35260 0.49990 0.92180 -0.01600
C 	C 	0.37580 0.38430 0.89760 -0.23200
H 	H 	0.33760 0.35510 0.91650 0.13300
C 	C 	0.42180 0.34160 0.86880 0.22000
C 	C 	0.46890 0.38500 0.84130 -0.23700
H 	H 	0.50060 0.35680 0.81980 0.12100
C 	C 	0.47210 0.47160 0.84390 0.13700
H 	H 	0.50490 0.50180 0.82340 -0.01800
N 	N 	0.43150 0.51380 0.87370 -0.27900
O 	O 	0.53780 0.66650 0.91815 -0.46800
O 	O 	0.52080 0.80450 0.92510 -0.46600
O 	O 	0.84510 0.83862 0.07757 -0.45200
O 	O 	0.83200 0.70200 0.09180 -0.47000
O 	O 	0.55790 0.79700 0.84049 -0.45800
O 	O 	0.53280 0.66010 0.83030 -0.45600
O 	O 	0.84170 0.66950 0.66698 -0.46500
O 	O 	0.86930 0.80570 0.67898 -0.44900
Zn	Zn	0.43820 0.64106 0.87641 1.21400
Zn	Zn	0.44374 0.82493 0.87364 1.21600
N 	N 	0.39420 0.25430 0.87470 -0.08100
N 	N 	0.46260 0.21370 0.86740 -0.08900
C 	C 	0.43800 0.12510 0.87000 0.24100
C 	C 	0.36320 0.08120 0.86320 -0.25900
H 	H 	0.30730 0.10900 0.85710 0.14000
C 	C 	0.51200 0.08310 0.88100 -0.25800
H 	H 	0.56630 0.11280 0.88780 0.12800
N 	N 	0.44710 0.25410 0.86170 -0.01700
N 	N 	0.40210 0.21060 0.87090 -0.02400
