data_crystal

_cell_length_a 24.57600
_cell_length_b 12.41600
_cell_length_c 18.09400
_cell_angle_alpha 90.00000
_cell_angle_beta  102.53400
_cell_angle_gamma 90.00000

_symmetry_space_group_name_	'P 1'
_symmetry_space_group_name_H-M	'P 1'

loop_
_symmetry_equiv_pos_as_xyz
  x,y,z

loop_
_atom_site_label
_atom_site_type_symbol
_atom_site_fract_x
_atom_site_fract_y
_atom_site_fract_z
_atom_site_charge
Fe	Fe	0.13949 0.26931 0.07877 1.21300
Cd	Cd	0.63076 0.32710 0.71056 1.22200
C 	C 	0.83370 0.65400 0.52130 0.30900
C 	C 	0.82580 0.58300 0.58680 -0.11700
C 	C 	0.77560 0.53760 0.58780 0.04800
H 	H 	0.74460 0.55240 0.54940 0.02900
C 	C 	0.77090 0.46770 0.64760 -0.15500
C 	C 	0.81680 0.45120 0.70640 0.00800
H 	H 	0.81400 0.40490 0.74580 0.03000
C 	C 	0.86720 0.50330 0.70700 -0.06100
C 	C 	0.87120 0.56800 0.64580 -0.01700
H 	H 	0.90480 0.60160 0.64460 0.01200
C 	C 	0.71820 0.41840 0.65450 0.41900
C 	C 	0.91650 0.49040 0.77150 0.05300
H 	H 	0.94800 0.46340 0.75270 -0.03300
H 	H 	0.92660 0.55980 0.79500 -0.00100
C 	C 	0.94620 0.39510 0.88670 0.04200
C 	C 	0.93170 0.32630 0.94060 0.08200
H 	H 	0.89530 0.30080 0.93280 -0.03700
C 	C 	0.96990 0.29470 0.00530 -0.41500
C 	C 	0.02570 0.32940 0.01450 0.30400
C 	C 	0.03980 0.39970 0.95940 -0.14900
C 	C 	0.00010 0.43270 0.89620 -0.02300
H 	H 	0.00980 0.47930 0.86090 0.00400
C 	C 	0.95210 0.21760 0.06270 1.06400
C 	C 	0.88890 0.19900 0.04530 -1.50200
H 	H 	0.87960 0.15090 0.08220 0.46200
H 	H 	0.87730 0.16800 0.99570 0.44200
H 	H 	0.87020 0.26650 0.04700 0.45300
C 	C 	0.98000 0.10830 0.05800 -1.51000
H 	H 	0.96920 0.05920 0.09320 0.45200
H 	H 	0.01980 0.11710 0.07020 0.44900
H 	H 	0.96860 0.08020 0.00760 0.44900
C 	C 	0.96880 0.26190 0.14410 -1.51500
H 	H 	0.95700 0.21250 0.17840 0.44700
H 	H 	0.95120 0.33040 0.14670 0.45100
H 	H 	0.00850 0.27030 0.15800 0.47600
C 	C 	0.09510 0.44310 0.96730 0.08200
H 	H 	0.09910 0.50390 0.93890 -0.03900
C 	C 	0.19130 0.46160 0.02200 -0.05300
H 	H 	0.18660 0.53120 0.99710 0.01700
H 	H 	0.21840 0.42030 0.00220 0.04700
C 	C 	0.21040 0.47540 0.10750 -0.09300
H 	H 	0.24950 0.49520 0.12060 0.06600
H 	H 	0.18890 0.53160 0.12520 0.06100
C 	C 	0.23400 0.34570 0.20700 0.08100
H 	H 	0.26160 0.39510 0.22740 0.01300
C 	C 	0.23150 0.24960 0.24970 -0.16500
C 	C 	0.19280 0.16590 0.22580 0.37300
C 	C 	0.19570 0.07050 0.26870 -0.54300
C 	C 	0.23620 0.06560 0.33440 0.18100
H 	H 	0.23860 0.00340 0.36360 -0.05600
C 	C 	0.27340 0.14810 0.35950 0.01100
C 	C 	0.27180 0.24140 0.31780 0.00300
H 	H 	0.29670 0.29740 0.33420 0.04200
C 	C 	0.15420 0.97660 0.24300 1.37900
C 	C 	0.15950 0.93990 0.16270 -1.82000
H 	H 	0.13420 0.88160 0.14610 0.53600
H 	H 	0.19700 0.91640 0.16440 0.55100
H 	H 	0.15070 0.99910 0.12800 0.55800
C 	C 	0.09670 0.01470 0.24360 -1.97300
H 	H 	0.07060 0.95730 0.22770 0.57300
H 	H 	0.08740 0.07460 0.20970 0.60400
H 	H 	0.09500 0.03670 0.29390 0.60000
C 	C 	0.16720 0.88110 0.29680 -1.89800
H 	H 	0.14110 0.82410 0.27950 0.56300
H 	H 	0.16420 0.90290 0.34670 0.56800
H 	H 	0.20430 0.85620 0.29810 0.58400
C 	C 	0.34200 0.22060 0.45970 -0.03200
H 	H 	0.31760 0.27720 0.47030 0.06000
H 	H 	0.36350 0.24830 0.42480 0.05300
C 	C 	0.38050 0.18310 0.53240 0.02500
C 	C 	0.36580 0.10880 0.58010 -0.01400
H 	H 	0.33080 0.07700 0.56690 0.05500
C 	C 	0.40120 0.07920 0.64720 -0.11400
C 	C 	0.45170 0.13110 0.66920 0.04000
H 	H 	0.47520 0.11420 0.71530 0.04700
C 	C 	0.46740 0.20730 0.62350 -0.08900
C 	C 	0.43240 0.23330 0.55470 -0.03100
H 	H 	0.44350 0.28430 0.52340 0.06400
C 	C 	0.38540 0.99190 0.69470 0.41200
C 	C 	0.52350 0.25680 0.64790 0.36300
N 	N 	0.13890 0.40530 0.00980 -0.22200
N 	N 	0.20150 0.37080 0.14280 -0.20700
O 	O 	0.71690 0.35010 0.70510 -0.48500
O 	O 	0.79370 0.69480 0.47750 -0.36600
O 	O 	0.88250 0.66730 0.51030 -0.44200
O 	O 	0.90403 0.41850 0.82530 -0.23700
O 	O 	0.06369 0.30010 0.07580 -0.47100
O 	O 	0.15381 0.17760 0.16300 -0.51400
O 	O 	0.31060 0.13040 0.42830 -0.18000
O 	O 	0.35180 0.92030 0.66800 -0.39800
O 	O 	0.55130 0.23910 0.71170 -0.42600
O 	O 	0.53850 0.31610 0.60370 -0.34900
O 	O 	0.67780 0.44260 0.61300 -0.38200
O 	O 	0.40780 0.98170 0.75750 -0.42100
Fe	Fe	0.86051 0.76931 0.42123 1.21300
Cd	Cd	0.36924 0.82710 0.78944 1.22200
C 	C 	0.16630 0.15400 0.97870 0.30800
C 	C 	0.17420 0.08300 0.91320 -0.11600
C 	C 	0.22440 0.03760 0.91220 0.04400
H 	H 	0.25540 0.05240 0.95060 0.03000
C 	C 	0.22910 0.96770 0.85240 -0.15100
C 	C 	0.18320 0.95120 0.79360 0.01200
H 	H 	0.18600 0.90490 0.75420 0.02800
C 	C 	0.13280 0.00330 0.79300 -0.06600
C 	C 	0.12880 0.06800 0.85420 -0.01600
H 	H 	0.09520 0.10160 0.85540 0.01200
C 	C 	0.28180 0.91840 0.84550 0.41800
C 	C 	0.08350 0.99040 0.72850 0.05900
H 	H 	0.05200 0.96340 0.74730 -0.03100
H 	H 	0.07340 0.05980 0.70500 -0.00300
C 	C 	0.05380 0.89510 0.61330 0.03500
C 	C 	0.06830 0.82630 0.55940 0.10900
H 	H 	0.10470 0.80080 0.56720 -0.04700
C 	C 	0.03010 0.79470 0.49470 -0.45300
C 	C 	0.97430 0.82940 0.48550 0.32600
C 	C 	0.96020 0.89970 0.54060 -0.16200
C 	C 	0.99990 0.93270 0.60380 -0.01800
H 	H 	0.99020 0.97930 0.63910 0.00200
C 	C 	0.04790 0.71760 0.43730 1.12300
C 	C 	0.11110 0.69900 0.45470 -1.58700
H 	H 	0.12040 0.65090 0.41780 0.48600
H 	H 	0.12270 0.66800 0.50430 0.47200
H 	H 	0.12980 0.76650 0.45300 0.47800
C 	C 	0.02000 0.60830 0.44200 -1.58300
H 	H 	0.03080 0.55920 0.40680 0.47100
H 	H 	0.98020 0.61710 0.42980 0.47200
H 	H 	0.03140 0.58020 0.49240 0.46700
C 	C 	0.03120 0.76190 0.35590 -1.59400
H 	H 	0.04300 0.71250 0.32160 0.46900
H 	H 	0.04880 0.83040 0.35330 0.47400
H 	H 	0.99150 0.77030 0.34200 0.50200
C 	C 	0.90490 0.94310 0.53270 0.08700
H 	H 	0.90090 0.00390 0.56110 -0.04200
C 	C 	0.80870 0.96160 0.47800 -0.04200
H 	H 	0.81340 0.03120 0.50290 0.01100
H 	H 	0.78160 0.92030 0.49780 0.04500
C 	C 	0.78960 0.97540 0.39250 -0.09900
H 	H 	0.75050 0.99520 0.37940 0.06800
H 	H 	0.81110 0.03160 0.37480 0.06300
C 	C 	0.76600 0.84570 0.29300 0.08300
H 	H 	0.73840 0.89510 0.27260 0.01200
C 	C 	0.76850 0.74960 0.25030 -0.17100
C 	C 	0.80720 0.66590 0.27420 0.38100
C 	C 	0.80430 0.57050 0.23130 -0.56400
C 	C 	0.76380 0.56560 0.16560 0.19300
H 	H 	0.76140 0.50340 0.13640 -0.06100
C 	C 	0.72660 0.64810 0.14050 0.00500
C 	C 	0.72820 0.74140 0.18220 0.00900
H 	H 	0.70330 0.79740 0.16580 0.04000
C 	C 	0.84580 0.47660 0.25700 1.42400
C 	C 	0.84050 0.43990 0.33730 -1.86700
H 	H 	0.86580 0.38160 0.35390 0.55000
H 	H 	0.80300 0.41640 0.33560 0.56600
H 	H 	0.84930 0.49910 0.37200 0.57300
C 	C 	0.90330 0.51470 0.25640 -2.04200
H 	H 	0.92940 0.45730 0.27230 0.59700
H 	H 	0.91260 0.57460 0.29030 0.62300
H 	H 	0.90500 0.53670 0.20610 0.62000
C 	C 	0.83280 0.38110 0.20320 -1.94700
H 	H 	0.85890 0.32410 0.22050 0.57900
H 	H 	0.83580 0.40290 0.15330 0.58500
H 	H 	0.79570 0.35620 0.20190 0.60000
C 	C 	0.65800 0.72060 0.04030 -0.03500
H 	H 	0.68240 0.77720 0.02970 0.06000
H 	H 	0.63650 0.74830 0.07520 0.05300
C 	C 	0.61950 0.68310 0.96760 0.02800
C 	C 	0.63420 0.60880 0.91990 -0.01600
H 	H 	0.66920 0.57700 0.93310 0.05500
C 	C 	0.59880 0.57920 0.85280 -0.11100
C 	C 	0.54830 0.63110 0.83080 0.03800
H 	H 	0.52480 0.61420 0.78470 0.04900
C 	C 	0.53260 0.70730 0.87650 -0.08700
C 	C 	0.56760 0.73330 0.94530 -0.03300
H 	H 	0.55650 0.78430 0.97660 0.06600
C 	C 	0.61460 0.49190 0.80530 0.41000
C 	C 	0.47650 0.75680 0.85210 0.36200
N 	N 	0.86110 0.90530 0.49020 -0.22300
N 	N 	0.79850 0.87080 0.35720 -0.20700
O 	O 	0.28310 0.85010 0.79490 -0.48400
O 	O 	0.20630 0.19480 0.02250 -0.36400
O 	O 	0.11750 0.16730 0.98970 -0.44000
O 	O 	0.09597 0.91850 0.67470 -0.23600
O 	O 	0.93631 0.80010 0.42420 -0.47700
O 	O 	0.84619 0.67760 0.33700 -0.51900
O 	O 	0.68940 0.63040 0.07170 -0.17800
O 	O 	0.64820 0.42030 0.83200 -0.39800
O 	O 	0.44870 0.73910 0.78830 -0.42500
O 	O 	0.46150 0.81610 0.89630 -0.34800
O 	O 	0.32220 0.94260 0.88700 -0.38000
O 	O 	0.59220 0.48170 0.74250 -0.42100
Fe	Fe	0.86051 0.73069 0.92123 1.21300
Cd	Cd	0.36924 0.67290 0.28944 1.22200
C 	C 	0.16630 0.34600 0.47870 0.30900
C 	C 	0.17420 0.41700 0.41320 -0.11700
C 	C 	0.22440 0.46240 0.41220 0.04800
H 	H 	0.25540 0.44760 0.45060 0.02900
C 	C 	0.22910 0.53230 0.35240 -0.15500
C 	C 	0.18320 0.54880 0.29360 0.00800
H 	H 	0.18600 0.59510 0.25420 0.03000
C 	C 	0.13280 0.49670 0.29300 -0.06100
C 	C 	0.12880 0.43200 0.35420 -0.01700
H 	H 	0.09520 0.39840 0.35540 0.01200
C 	C 	0.28180 0.58160 0.34550 0.41900
C 	C 	0.08350 0.50960 0.22850 0.05300
H 	H 	0.05200 0.53660 0.24730 -0.03300
H 	H 	0.07340 0.44020 0.20500 -0.00100
C 	C 	0.05380 0.60490 0.11330 0.04200
C 	C 	0.06830 0.67370 0.05940 0.08200
H 	H 	0.10470 0.69920 0.06720 -0.03700
C 	C 	0.03010 0.70530 0.99470 -0.41500
C 	C 	0.97430 0.67060 0.98550 0.30400
C 	C 	0.96020 0.60030 0.04060 -0.14900
C 	C 	0.99990 0.56730 0.10380 -0.02300
H 	H 	0.99020 0.52070 0.13910 0.00400
C 	C 	0.04790 0.78240 0.93730 1.06400
C 	C 	0.11110 0.80100 0.95470 -1.50200
H 	H 	0.12040 0.84910 0.91780 0.46200
H 	H 	0.12270 0.83200 0.00430 0.44200
H 	H 	0.12980 0.73350 0.95300 0.45300
C 	C 	0.02000 0.89170 0.94200 -1.51000
H 	H 	0.03080 0.94080 0.90680 0.45200
H 	H 	0.98020 0.88290 0.92980 0.44900
H 	H 	0.03140 0.91980 0.99240 0.44900
C 	C 	0.03120 0.73810 0.85590 -1.51500
H 	H 	0.04300 0.78750 0.82160 0.44700
H 	H 	0.04880 0.66960 0.85330 0.45100
H 	H 	0.99150 0.72970 0.84200 0.47600
C 	C 	0.90490 0.55690 0.03270 0.08200
H 	H 	0.90090 0.49610 0.06110 -0.03900
C 	C 	0.80870 0.53840 0.97800 -0.05300
H 	H 	0.81340 0.46880 0.00290 0.01700
H 	H 	0.78160 0.57970 0.99780 0.04700
C 	C 	0.78960 0.52460 0.89250 -0.09300
H 	H 	0.75050 0.50480 0.87940 0.06600
H 	H 	0.81110 0.46840 0.87480 0.06100
C 	C 	0.76600 0.65430 0.79300 0.08100
H 	H 	0.73840 0.60490 0.77260 0.01300
C 	C 	0.76850 0.75040 0.75030 -0.16500
C 	C 	0.80720 0.83410 0.77420 0.37300
C 	C 	0.80430 0.92950 0.73130 -0.54300
C 	C 	0.76380 0.93440 0.66560 0.18100
H 	H 	0.76140 0.99660 0.63640 -0.05600
C 	C 	0.72660 0.85190 0.64050 0.01100
C 	C 	0.72820 0.75860 0.68220 0.00300
H 	H 	0.70330 0.70260 0.66580 0.04200
C 	C 	0.84580 0.02340 0.75700 1.37900
C 	C 	0.84050 0.06010 0.83730 -1.82000
H 	H 	0.86580 0.11840 0.85390 0.53600
H 	H 	0.80300 0.08360 0.83560 0.55100
H 	H 	0.84930 0.00090 0.87200 0.55800
C 	C 	0.90330 0.98530 0.75640 -1.97300
H 	H 	0.92940 0.04270 0.77230 0.57300
H 	H 	0.91260 0.92540 0.79030 0.60400
H 	H 	0.90500 0.96330 0.70610 0.60000
C 	C 	0.83280 0.11890 0.70320 -1.89800
H 	H 	0.85890 0.17590 0.72050 0.56300
H 	H 	0.83580 0.09710 0.65330 0.56800
H 	H 	0.79570 0.14380 0.70190 0.58400
C 	C 	0.65800 0.77940 0.54030 -0.03200
H 	H 	0.68240 0.72280 0.52970 0.06000
H 	H 	0.63650 0.75170 0.57520 0.05300
C 	C 	0.61950 0.81690 0.46760 0.02500
C 	C 	0.63420 0.89120 0.41990 -0.01400
H 	H 	0.66920 0.92300 0.43310 0.05500
C 	C 	0.59880 0.92080 0.35280 -0.11400
C 	C 	0.54830 0.86890 0.33080 0.04000
H 	H 	0.52480 0.88580 0.28470 0.04700
C 	C 	0.53260 0.79270 0.37650 -0.08900
C 	C 	0.56760 0.76670 0.44530 -0.03100
H 	H 	0.55650 0.71570 0.47660 0.06400
C 	C 	0.61460 0.00810 0.30530 0.41200
C 	C 	0.47650 0.74320 0.35210 0.36300
N 	N 	0.86110 0.59470 0.99020 -0.22200
N 	N 	0.79850 0.62920 0.85720 -0.20700
O 	O 	0.28310 0.64990 0.29490 -0.48500
O 	O 	0.20630 0.30520 0.52250 -0.36600
O 	O 	0.11750 0.33270 0.48970 -0.44200
O 	O 	0.09597 0.58150 0.17470 -0.23700
O 	O 	0.93631 0.69990 0.92420 -0.47100
O 	O 	0.84619 0.82240 0.83700 -0.51400
O 	O 	0.68940 0.86960 0.57170 -0.18000
O 	O 	0.64820 0.07970 0.33200 -0.39800
O 	O 	0.44870 0.76090 0.28830 -0.42600
O 	O 	0.46150 0.68390 0.39630 -0.34900
O 	O 	0.32220 0.55740 0.38700 -0.38200
O 	O 	0.59220 0.01830 0.24250 -0.42100
Fe	Fe	0.13949 0.23069 0.57877 1.21300
Cd	Cd	0.63076 0.17290 0.21056 1.22200
C 	C 	0.83370 0.84600 0.02130 0.30800
C 	C 	0.82580 0.91700 0.08680 -0.11600
C 	C 	0.77560 0.96240 0.08780 0.04400
H 	H 	0.74460 0.94760 0.04940 0.03000
C 	C 	0.77090 0.03230 0.14760 -0.15100
C 	C 	0.81680 0.04880 0.20640 0.01200
H 	H 	0.81400 0.09510 0.24580 0.02800
C 	C 	0.86720 0.99670 0.20700 -0.06600
C 	C 	0.87120 0.93200 0.14580 -0.01600
H 	H 	0.90480 0.89840 0.14460 0.01200
C 	C 	0.71820 0.08160 0.15450 0.41800
C 	C 	0.91650 0.00960 0.27150 0.05900
H 	H 	0.94800 0.03660 0.25270 -0.03100
H 	H 	0.92660 0.94020 0.29500 -0.00300
C 	C 	0.94620 0.10490 0.38670 0.03500
C 	C 	0.93170 0.17370 0.44060 0.10900
H 	H 	0.89530 0.19920 0.43280 -0.04700
C 	C 	0.96990 0.20530 0.50530 -0.45300
C 	C 	0.02570 0.17060 0.51450 0.32600
C 	C 	0.03980 0.10030 0.45940 -0.16200
C 	C 	0.00010 0.06730 0.39620 -0.01800
H 	H 	0.00980 0.02070 0.36090 0.00200
C 	C 	0.95210 0.28240 0.56270 1.12300
C 	C 	0.88890 0.30100 0.54530 -1.58700
H 	H 	0.87960 0.34910 0.58220 0.48600
H 	H 	0.87730 0.33200 0.49570 0.47200
H 	H 	0.87020 0.23350 0.54700 0.47800
C 	C 	0.98000 0.39170 0.55800 -1.58300
H 	H 	0.96920 0.44080 0.59320 0.47100
H 	H 	0.01980 0.38290 0.57020 0.47200
H 	H 	0.96860 0.41980 0.50760 0.46700
C 	C 	0.96880 0.23810 0.64410 -1.59400
H 	H 	0.95700 0.28750 0.67840 0.46900
H 	H 	0.95120 0.16960 0.64670 0.47400
H 	H 	0.00850 0.22970 0.65800 0.50200
C 	C 	0.09510 0.05690 0.46730 0.08700
H 	H 	0.09910 0.99610 0.43890 -0.04200
C 	C 	0.19130 0.03840 0.52200 -0.04200
H 	H 	0.18660 0.96880 0.49710 0.01100
H 	H 	0.21840 0.07970 0.50220 0.04500
C 	C 	0.21040 0.02460 0.60750 -0.09900
H 	H 	0.24950 0.00480 0.62060 0.06800
H 	H 	0.18890 0.96840 0.62520 0.06300
C 	C 	0.23400 0.15430 0.70700 0.08300
H 	H 	0.26160 0.10490 0.72740 0.01200
C 	C 	0.23150 0.25040 0.74970 -0.17100
C 	C 	0.19280 0.33410 0.72580 0.38100
C 	C 	0.19570 0.42950 0.76870 -0.56400
C 	C 	0.23620 0.43440 0.83440 0.19300
H 	H 	0.23860 0.49660 0.86360 -0.06100
C 	C 	0.27340 0.35190 0.85950 0.00500
C 	C 	0.27180 0.25860 0.81780 0.00900
H 	H 	0.29670 0.20260 0.83420 0.04000
C 	C 	0.15420 0.52340 0.74300 1.42400
C 	C 	0.15950 0.56010 0.66270 -1.86700
H 	H 	0.13420 0.61840 0.64610 0.55000
H 	H 	0.19700 0.58360 0.66440 0.56600
H 	H 	0.15070 0.50090 0.62800 0.57300
C 	C 	0.09670 0.48530 0.74360 -2.04200
H 	H 	0.07060 0.54270 0.72770 0.59700
H 	H 	0.08740 0.42540 0.70970 0.62300
H 	H 	0.09500 0.46330 0.79390 0.62000
C 	C 	0.16720 0.61890 0.79680 -1.94700
H 	H 	0.14110 0.67590 0.77950 0.57900
H 	H 	0.16420 0.59710 0.84670 0.58500
H 	H 	0.20430 0.64380 0.79810 0.60000
C 	C 	0.34200 0.27940 0.95970 -0.03500
H 	H 	0.31760 0.22280 0.97030 0.06000
H 	H 	0.36350 0.25170 0.92480 0.05300
C 	C 	0.38050 0.31690 0.03240 0.02800
C 	C 	0.36580 0.39120 0.08010 -0.01600
H 	H 	0.33080 0.42300 0.06690 0.05500
C 	C 	0.40120 0.42080 0.14720 -0.11100
C 	C 	0.45170 0.36890 0.16920 0.03800
H 	H 	0.47520 0.38580 0.21530 0.04900
C 	C 	0.46740 0.29270 0.12350 -0.08700
C 	C 	0.43240 0.26670 0.05470 -0.03300
H 	H 	0.44350 0.21570 0.02340 0.06600
C 	C 	0.38540 0.50810 0.19470 0.41000
C 	C 	0.52350 0.24320 0.14790 0.36200
N 	N 	0.13890 0.09470 0.50980 -0.22300
N 	N 	0.20150 0.12920 0.64280 -0.20700
O 	O 	0.71690 0.14990 0.20510 -0.48400
O 	O 	0.79370 0.80520 0.97750 -0.36400
O 	O 	0.88250 0.83270 0.01030 -0.44000
O 	O 	0.90403 0.08150 0.32530 -0.23600
O 	O 	0.06369 0.19990 0.57580 -0.47700
O 	O 	0.15381 0.32240 0.66300 -0.51900
O 	O 	0.31060 0.36960 0.92830 -0.17800
O 	O 	0.35180 0.57970 0.16800 -0.39800
O 	O 	0.55130 0.26090 0.21170 -0.42500
O 	O 	0.53850 0.18390 0.10370 -0.34800
O 	O 	0.67780 0.05740 0.11300 -0.38000
O 	O 	0.40780 0.51830 0.25750 -0.42100
