data_crystal

_cell_length_a 11.97000
_cell_length_b 16.34100
_cell_length_c 16.43600
_cell_angle_alpha 107.91300
_cell_angle_beta  103.40000
_cell_angle_gamma 100.53300

_symmetry_space_group_name_	'P 1'
_symmetry_space_group_name_H-M	'P 1'

loop_
_symmetry_equiv_pos_as_xyz
  x,y,z

loop_
_atom_site_label
_atom_site_type_symbol
_atom_site_fract_x
_atom_site_fract_y
_atom_site_fract_z
_atom_site_charge
Cd	Cd	0.19441 0.88805 0.39255 1.30200
N 	N 	0.06706 0.14812 0.47181 -0.21200
C 	C 	0.46137 0.34234 0.05829 -0.04400
O 	O 	0.48813 0.87959 0.41050 -0.42700
C 	C 	0.41457 0.41898 0.10263 0.12500
H 	H 	0.31922 0.40889 0.08763 0.00200
O 	O 	0.29308 0.81300 0.34809 -0.45400
O 	O 	0.67932 0.41267 0.13734 -0.21200
O 	O 	0.03195 0.82515 0.29475 -0.37100
O 	O 	0.09287 0.77594 0.39778 -0.37300
C 	C 	0.42126 0.72934 0.30241 -0.14600
O 	O 	0.41758 0.21020 0.92420 -0.22200
C 	C 	0.32444 0.65832 0.23768 0.07100
H 	H 	0.23388 0.66432 0.22470 0.03100
O 	O 	0.33362 0.94217 0.51098 -0.49500
C 	C 	0.34273 0.57781 0.18878 -0.14000
H 	H 	0.26565 0.52619 0.13940 0.07000
O 	O 	0.16295 0.97265 0.49922 -0.41600
C 	C 	0.40050 0.81263 0.35640 0.41100
O 	O 	0.35543 0.23805 0.11650 -0.21400
C 	C 	0.58766 0.38309 0.05192 0.04800
H 	H 	0.61244 0.33171 0.00262 0.03900
H 	H 	0.58162 0.43759 0.02551 0.03100
O 	O 	0.22476 0.97264 0.32752 -0.37900
C 	C 	0.75485 0.50143 0.17900 0.16800
O 	O 	0.41867 0.03877 0.40214 -0.44300
C 	C 	0.78782 0.55692 0.13253 -0.12000
H 	H 	0.75680 0.53307 0.05993 0.06300
C 	C 	0.86763 0.64327 0.17992 0.03400
H 	H 	0.89357 0.68327 0.14224 0.02900
C 	C 	0.91864 0.67543 0.27426 -0.09900
C 	C 	0.88707 0.61884 0.31952 0.03700
H 	H 	0.92543 0.64019 0.39157 0.02900
C 	C 	0.80708 0.53333 0.27245 -0.11800
H 	H 	0.78530 0.49096 0.30908 0.07200
C 	C 	1.01536 0.76189 0.32410 0.28300
C 	C 	0.37539 0.28535 0.96158 0.04100
H 	H 	0.37346 0.32716 0.91938 0.02500
H 	H 	0.28316 0.26131 0.96342 0.03300
C 	C 	0.37268 0.15863 0.83158 0.17700
C 	C 	0.44139 0.10516 0.79654 -0.14000
H 	H 	0.52475 0.10566 0.84004 0.07200
C 	C 	0.40454 0.05105 0.70603 0.07100
H 	H 	0.45976 0.01113 0.68228 0.00200
C 	C 	0.29817 0.04835 0.64703 -0.18100
C 	C 	0.22645 0.10080 0.68192 0.06800
H 	H 	0.14161 0.09840 0.63876 0.01800
C 	C 	0.26318 0.15546 0.77373 -0.14100
H 	H 	0.20533 0.19315 0.79930 0.07900
C 	C 	0.26211 0.98904 0.55072 0.36800
C 	C 	0.47103 0.28315 0.11684 0.05000
H 	H 	0.51780 0.23267 0.09098 0.03900
H 	H 	0.52512 0.32689 0.18701 0.04100
C 	C 	0.35039 0.18580 0.17124 0.16100
C 	C 	0.23771 0.14115 0.17089 -0.11900
H 	H 	0.15749 0.14603 0.12771 0.06800
C 	C 	0.22731 0.09009 0.22552 0.04100
H 	H 	0.13879 0.05674 0.22303 0.02000
C 	C 	0.32992 0.08341 0.28295 -0.11700
C 	C 	0.44212 0.12872 0.28339 0.04400
H 	H 	0.52308 0.12629 0.32670 0.02600
C 	C 	0.45264 0.17731 0.22758 -0.12500
H 	H 	0.54184 0.20797 0.22977 0.06400
C 	C 	0.32329 0.02909 0.34128 0.31700
C 	C 	0.01008 0.12352 0.37557 -0.07800
O 	O 	0.49096 0.49066 0.15933 -0.24700
C 	C 	0.45908 0.56668 0.20478 0.18600
C 	C 	0.53598 0.71792 0.31724 0.07100
H 	H 	0.61154 0.77048 0.36717 0.02500
C 	C 	0.55404 0.63778 0.26897 -0.13700
H 	H 	0.64356 0.63080 0.28191 0.08000
Cd	Cd	0.80594 0.11109 0.60924 1.30000
N 	N 	0.91033 0.84910 0.52921 -0.20800
C 	C 	0.53878 0.65747 0.94217 -0.04700
O 	O 	0.50954 0.12169 0.58756 -0.44500
C 	C 	0.58533 0.58064 0.89753 0.12500
H 	H 	0.68061 0.59053 0.91238 0.00100
O 	O 	0.70459 0.18323 0.65618 -0.45700
O 	O 	0.32090 0.58712 0.86308 -0.21000
O 	O 	0.97290 0.17240 0.70212 -0.39600
O 	O 	0.89762 0.22859 0.60900 -0.39400
C 	C 	0.57765 0.27020 0.69825 -0.14900
O 	O 	0.58272 0.78976 0.07652 -0.21000
C 	C 	0.67460 0.34111 0.76248 0.07200
H 	H 	0.76472 0.33425 0.77495 0.02700
O 	O 	0.66878 0.05786 0.49007 -0.50000
C 	C 	0.65664 0.42178 0.81092 -0.14300
H 	H 	0.73393 0.47311 0.85978 0.06900
O 	O 	0.83813 0.02387 0.50314 -0.41700
C 	C 	0.59736 0.18658 0.64448 0.41100
O 	O 	0.64411 0.76133 0.88338 -0.21400
C 	C 	0.41248 0.61679 0.94855 0.04900
H 	H 	0.38779 0.66838 0.99768 0.04000
H 	H 	0.41853 0.56240 0.97511 0.02800
O 	O 	0.77629 0.02926 0.67653 -0.48200
C 	C 	0.24487 0.49853 0.82160 0.17100
O 	O 	0.58332 0.96038 0.60012 -0.42600
C 	C 	0.21198 0.44319 0.86824 -0.12200
H 	H 	0.24370 0.46696 0.94083 0.06200
C 	C 	0.13139 0.35713 0.82101 0.04000
H 	H 	0.10559 0.31715 0.85877 0.02500
C 	C 	0.07927 0.32535 0.72685 -0.10900
C 	C 	0.11092 0.38166 0.68137 0.04300
H 	H 	0.07218 0.36017 0.60936 0.02900
C 	C 	0.19205 0.46675 0.72821 -0.11900
H 	H 	0.21425 0.50885 0.69146 0.07500
C 	C 	-0.01792 0.23927 0.67757 0.31100
C 	C 	0.62501 0.71461 0.03884 0.04400
H 	H 	0.71699 0.73888 0.03679 0.03800
H 	H 	0.62741 0.67289 0.08108 0.02500
C 	C 	0.62885 0.84181 0.16902 0.16400
C 	C 	0.56080 0.89558 0.20462 -0.10300
H 	H 	0.47687 0.89504 0.16156 0.08100
C 	C 	0.59823 0.94938 0.29528 0.02900
H 	H 	0.54302 0.98912 0.31935 0.05600
C 	C 	0.70428 0.95106 0.35417 -0.05600
C 	C 	0.77651 0.89999 0.31833 0.03200
H 	H 	0.86161 0.90257 0.36120 0.04300
C 	C 	0.73899 0.84528 0.22638 -0.11300
H 	H 	0.79644 0.80743 0.20068 0.07500
C 	C 	0.73961 0.00940 0.45095 0.24400
C 	C 	0.52881 0.71649 0.88348 0.05000
H 	H 	0.47442 0.67267 0.81342 0.04200
H 	H 	0.48230 0.76706 0.90952 0.04500
C 	C 	0.64911 0.81407 0.82927 0.17400
C 	C 	0.76183 0.85960 0.83116 -0.12500
H 	H 	0.84160 0.85444 0.87384 0.07900
C 	C 	0.77305 0.91211 0.77848 0.06800
H 	H 	0.86106 0.94792 0.78323 0.03400
C 	C 	0.67109 0.91730 0.71961 -0.14200
C 	C 	0.55813 0.87141 0.71738 0.06900
H 	H 	0.47709 0.87356 0.67311 0.03500
C 	C 	0.54699 0.82231 0.77258 -0.12900
H 	H 	0.45794 0.79072 0.76950 0.07200
C 	C 	0.67877 0.97171 0.66205 0.43200
C 	C 	0.98955 0.87614 0.62079 -0.08300
O 	O 	0.50884 0.50919 0.84054 -0.24700
C 	C 	0.54034 0.43307 0.79502 0.18700
C 	C 	0.46299 0.28194 0.68278 0.07300
H 	H 	0.38708 0.22942 0.63291 0.02300
C 	C 	0.44514 0.36219 0.73073 -0.13800
H 	H 	0.35551 0.36925 0.71749 0.07900
Cd	Cd	0.50022 -0.00043 0.50054 1.28400
H 	H 	0.10082 0.09694 0.48292 0.09100
H 	H 	0.00455 0.15782 0.50603 0.09400
H 	H 	0.00796 0.05347 0.33787 0.04000
H 	H 	0.06028 0.16876 0.34977 0.04500
H 	H 	-0.08334 0.12878 0.36251 0.04600
H 	H 	0.95629 0.87386 0.49118 0.10400
H 	H 	0.83630 0.87440 0.53020 0.09900
H 	H 	1.06474 0.93525 0.63621 0.07000
H 	H 	1.02674 0.82069 0.62941 0.05200
H 	H 	0.93988 0.89421 0.66973 0.05800
H 	H 	0.88056 0.77934 0.49960 0.08500
H 	H 	0.13728 0.20663 0.49726 0.08300
