data_crystal

_cell_length_a 11.86800
_cell_length_b 16.26500
_cell_length_c 16.37900
_cell_angle_alpha 108.09900
_cell_angle_beta  102.85500
_cell_angle_gamma 101.21600

_symmetry_space_group_name_	'P 1'
_symmetry_space_group_name_H-M	'P 1'

loop_
_symmetry_equiv_pos_as_xyz
  x,y,z

loop_
_atom_site_label
_atom_site_type_symbol
_atom_site_fract_x
_atom_site_fract_y
_atom_site_fract_z
_atom_site_charge
Co	Co	0.18269 0.89444 0.38414 1.16900
O 	O 	0.48380 0.48810 0.15750 -0.27000
C 	C 	0.45910 0.33990 0.05830 -0.03300
O 	O 	0.47470 0.86480 0.41050 -0.40200
C 	C 	0.40360 0.41240 0.10200 0.09800
H 	H 	0.35030 0.42460 0.05400 0.00000
H 	H 	0.35320 0.38940 0.13520 0.02200
O 	O 	0.27900 0.81010 0.33120 -0.43900
C 	C 	0.44950 0.56390 0.19450 0.30100
O 	O 	0.67230 0.40530 0.12960 -0.25200
C 	C 	0.54250 0.63470 0.25080 -0.27600
H 	H 	0.62250 0.63060 0.25700 0.14400
O 	O 	0.01790 0.80600 0.27590 -0.35900
O 	O 	0.04860 0.77800 0.39980 -0.32900
C 	C 	0.40710 0.72150 0.29230 -0.20300
O 	O 	0.41860 0.21030 0.92652 -0.24600
C 	C 	0.31320 0.64900 0.23390 0.16000
H 	H 	0.23290 0.65220 0.22810 -0.00300
O 	O 	0.32050 0.95766 0.52203 -0.46500
C 	C 	0.33350 0.56950 0.18220 -0.27300
H 	H 	0.26780 0.52050 0.13940 0.12600
O 	O 	0.14480 0.98790 0.50760 -0.33500
C 	C 	0.38460 0.80550 0.34840 0.41700
O 	O 	0.36080 0.23670 0.11490 -0.24700
C 	C 	0.58310 0.37960 0.04970 0.06800
H 	H 	0.60060 0.33390 0.00180 0.03500
H 	H 	0.58140 0.43250 0.03220 0.02400
O 	O 	0.21280 0.99530 0.33060 -0.36900
C 	C 	0.74800 0.49130 0.17070 0.27900
O 	O 	0.41330 0.03470 0.38990 -0.42900
C 	C 	0.78100 0.54650 0.12700 -0.25200
H 	H 	0.74930 0.52640 0.06330 0.11900
C 	C 	0.86070 0.63210 0.17540 0.12500
H 	H 	0.88210 0.67020 0.14410 0.00100
C 	C 	0.90890 0.66270 0.26690 -0.16100
C 	C 	0.87940 0.60630 0.31170 0.11500
H 	H 	0.91450 0.62540 0.37500 0.01300
C 	C 	0.79690 0.52040 0.26270 -0.23400
H 	H 	0.77460 0.48200 0.29350 0.12600
C 	C 	0.99610 0.75390 0.31680 0.31700
C 	C 	0.37220 0.28370 0.96330 0.03400
H 	H 	0.29020 0.26080 0.96610 0.03500
H 	H 	0.36850 0.32080 0.92540 0.02400
C 	C 	0.36980 0.15890 0.83640 0.27300
C 	C 	0.43810 0.10550 0.79990 -0.25800
H 	H 	0.51150 0.10500 0.83730 0.12700
C 	C 	0.39870 0.05350 0.70930 0.15800
H 	H 	0.44660 0.01870 0.68370 -0.02500
C 	C 	0.28950 0.05160 0.65520 -0.23100
C 	C 	0.21980 0.10320 0.69200 0.15800
H 	H 	0.14530 0.10220 0.65470 -0.00700
C 	C 	0.25960 0.15680 0.78380 -0.26100
H 	H 	0.21160 0.19120 0.80970 0.13300
C 	C 	0.24890 0.99700 0.55640 0.39700
C 	C 	0.47640 0.28200 0.11520 0.04800
H 	H 	0.51770 0.23750 0.08970 0.04200
H 	H 	0.52650 0.32050 0.17770 0.04000
C 	C 	0.35640 0.18830 0.16950 0.27500
C 	C 	0.24400 0.14440 0.16850 -0.25800
H 	H 	0.17410 0.14760 0.12930 0.12900
C 	C 	0.23090 0.09670 0.22250 0.14800
H 	H 	0.15240 0.06920 0.22230 -0.01000
C 	C 	0.32970 0.08790 0.27730 -0.18800
C 	C 	0.44260 0.13090 0.27770 0.13600
H 	H 	0.51180 0.12590 0.31600 -0.00400
C 	C 	0.45830 0.18100 0.22420 -0.25300
H 	H 	0.53670 0.20960 0.22520 0.12100
C 	C 	0.31780 0.03600 0.33750 0.34400
C 	C 	0.52310 0.71470 0.30070 0.16100
H 	H 	0.58990 0.76460 0.34060 -0.00100
Co	Co	0.81731 0.10556 0.61586 1.16600
O 	O 	0.51620 0.51190 0.84250 -0.27100
C 	C 	0.54090 0.66010 0.94170 -0.03600
O 	O 	0.52530 0.13520 0.58950 -0.42200
C 	C 	0.59640 0.58760 0.89800 0.10100
H 	H 	0.64970 0.57540 0.94600 -0.00200
H 	H 	0.64680 0.61060 0.86480 0.02300
O 	O 	0.72100 0.18990 0.66880 -0.44800
C 	C 	0.55050 0.43610 0.80550 0.30400
O 	O 	0.32770 0.59470 0.87040 -0.25100
C 	C 	0.45750 0.36530 0.74920 -0.28100
H 	H 	0.37750 0.36940 0.74300 0.14500
O 	O 	0.98210 0.19400 0.72410 -0.37300
O 	O 	0.95140 0.22200 0.60020 -0.34200
C 	C 	0.59290 0.27850 0.70770 -0.21000
O 	O 	0.58140 0.78970 0.07348 -0.22900
C 	C 	0.68680 0.35100 0.76610 0.16300
H 	H 	0.76710 0.34780 0.77190 -0.00600
O 	O 	0.67950 0.04234 0.47797 -0.47200
C 	C 	0.66650 0.43050 0.81780 -0.27700
H 	H 	0.73220 0.47950 0.86060 0.12700
O 	O 	0.85520 0.01210 0.49240 -0.34600
C 	C 	0.61540 0.19450 0.65160 0.42000
O 	O 	0.63920 0.76330 0.88510 -0.24700
C 	C 	0.41690 0.62040 0.95030 0.06900
H 	H 	0.39940 0.66610 0.99820 0.03500
H 	H 	0.41860 0.56750 0.96780 0.02200
O 	O 	0.78720 0.00470 0.66940 -0.46600
C 	C 	0.25200 0.50870 0.82930 0.28200
O 	O 	0.58670 0.96530 0.61010 -0.41300
C 	C 	0.21900 0.45350 0.87300 -0.25600
H 	H 	0.25070 0.47360 0.93670 0.11900
C 	C 	0.13930 0.36790 0.82460 0.13200
H 	H 	0.11790 0.32980 0.85590 -0.00300
C 	C 	0.09110 0.33730 0.73310 -0.17000
C 	C 	0.12060 0.39370 0.68830 0.12200
H 	H 	0.08550 0.37460 0.62500 0.01000
C 	C 	0.20310 0.47960 0.73730 -0.23800
H 	H 	0.22540 0.51800 0.70650 0.12900
C 	C 	0.00390 0.24610 0.68320 0.33200
C 	C 	0.62780 0.71630 0.03670 0.03400
H 	H 	0.70980 0.73920 0.03390 0.04100
H 	H 	0.63150 0.67920 0.07460 0.02600
C 	C 	0.63020 0.84110 0.16360 0.24000
C 	C 	0.56190 0.89450 0.20010 -0.19500
H 	H 	0.48850 0.89500 0.16270 0.12300
C 	C 	0.60130 0.94650 0.29070 0.08400
H 	H 	0.55340 0.98130 0.31630 0.03500
C 	C 	0.71050 0.94840 0.34480 -0.09500
C 	C 	0.78020 0.89680 0.30800 0.08800
H 	H 	0.85470 0.89780 0.34530 0.03200
C 	C 	0.74040 0.84320 0.21620 -0.20500
H 	H 	0.78840 0.80880 0.19030 0.11800
C 	C 	0.75110 0.00300 0.44360 0.28700
C 	C 	0.52360 0.71800 0.88480 0.04700
H 	H 	0.48230 0.76250 0.91030 0.04700
H 	H 	0.47350 0.67950 0.82230 0.04100
C 	C 	0.64360 0.81170 0.83050 0.29000
C 	C 	0.75600 0.85560 0.83150 -0.26900
H 	H 	0.82590 0.85240 0.87070 0.14200
C 	C 	0.76910 0.90330 0.77750 0.17900
H 	H 	0.84760 0.93080 0.77770 0.00400
C 	C 	0.67030 0.91210 0.72270 -0.21200
C 	C 	0.55740 0.86910 0.72230 0.16400
H 	H 	0.48820 0.87410 0.68400 0.00100
C 	C 	0.54170 0.81900 0.77580 -0.26200
H 	H 	0.46330 0.79040 0.77480 0.13100
C 	C 	0.68220 0.96400 0.66250 0.45700
C 	C 	0.47690 0.28530 0.69930 0.16600
H 	H 	0.41010 0.23540 0.65940 -0.00700
Co	Co	0.50000 0.00000 0.50000 1.15700
