data_crystal

_cell_length_a 18.98600
_cell_length_b 19.68300
_cell_length_c 12.08100
_cell_angle_alpha 90.00000
_cell_angle_beta  90.00000
_cell_angle_gamma 90.00000

_symmetry_space_group_name_	'P 1'
_symmetry_space_group_name_H-M	'P 1'

loop_
_symmetry_equiv_pos_as_xyz
  x,y,z

loop_
_atom_site_label
_atom_site_type_symbol
_atom_site_fract_x
_atom_site_fract_y
_atom_site_fract_z
_atom_site_charge
Co	Co	0.30923 0.16208 0.67025 1.15300
C 	C 	0.21350 0.03820 0.61180 0.03000
H 	H 	0.18700 0.05580 0.67200 0.02600
C 	C 	0.18910 0.98180 0.55830 -0.05000
H 	H 	0.14700 0.96020 0.58220 0.05100
C 	C 	0.22680 0.95600 0.46750 -0.06000
C 	C 	0.28840 0.98890 0.43810 -0.05700
H 	H 	0.31620 0.97290 0.37810 0.05400
C 	C 	0.30870 0.04520 0.49760 0.03900
H 	H 	0.35070 0.06750 0.47540 0.00300
C 	C 	0.20180 0.89560 0.40320 0.34500
C 	C 	0.00790 0.69210 0.42100 0.00700
H 	H 	0.03250 0.65040 0.42900 0.01200
C 	C 	0.93530 0.69020 0.40060 -0.04000
H 	H 	0.91130 0.64800 0.39400 0.04900
C 	C 	0.19120 0.79830 0.67290 0.00200
H 	H 	0.21720 0.83210 0.63440 0.01800
C 	C 	0.18900 0.80110 0.78570 -0.02200
H 	H 	0.20960 0.83840 0.82360 0.04100
N 	N 	0.27480 0.07050 0.58240 -0.20400
O 	O 	0.15990 0.85490 0.45040 -0.45300
O 	O 	0.22480 0.89010 0.30700 -0.45000
O 	O 	0.79280 0.69480 0.34780 -0.44900
O 	O 	0.15910 0.80540 0.01560 -0.48400
C 	C 	0.12530 0.70120 0.67030 0.01100
C 	C 	0.12370 0.69840 0.78510 -0.02600
H 	H 	0.10180 0.66660 0.62990 0.02100
H 	H 	0.10050 0.66220 0.82230 0.03600
Co	Co	0.19077 0.83792 0.17025 1.15200
C 	C 	0.28650 0.96180 0.11180 0.03000
H 	H 	0.31300 0.94420 0.17200 0.02500
C 	C 	0.31090 0.01820 0.05830 -0.05100
H 	H 	0.35300 0.03980 0.08220 0.05000
C 	C 	0.27320 0.04400 0.96750 -0.06200
C 	C 	0.21160 0.01110 0.93810 -0.05400
H 	H 	0.18380 0.02710 0.87810 0.05200
C 	C 	0.19130 0.95480 0.99760 0.03400
H 	H 	0.14930 0.93250 0.97540 0.00300
C 	C 	0.29820 0.10440 0.90320 0.34600
C 	C 	0.49210 0.30790 0.92100 0.00600
H 	H 	0.46750 0.34960 0.92900 0.01200
C 	C 	0.56470 0.30980 0.90060 -0.04000
H 	H 	0.58870 0.35200 0.89400 0.04900
C 	C 	0.30880 0.20170 0.17290 0.00200
H 	H 	0.28280 0.16790 0.13440 0.01800
C 	C 	0.31100 0.19890 0.28570 -0.02100
H 	H 	0.29040 0.16160 0.32360 0.04100
N 	N 	0.22520 0.92950 0.08240 -0.20200
O 	O 	0.34010 0.14510 0.95040 -0.45300
O 	O 	0.27520 0.10990 0.80700 -0.45000
O 	O 	0.70720 0.30520 0.84780 -0.44900
O 	O 	0.34090 0.19460 0.51560 -0.48700
C 	C 	0.37470 0.29880 0.17030 0.01100
C 	C 	0.37630 0.30160 0.28510 -0.02500
H 	H 	0.39820 0.33340 0.12990 0.02100
H 	H 	0.39950 0.33780 0.32230 0.03700
Co	Co	0.69077 0.66208 0.32975 1.15200
C 	C 	0.78650 0.53820 0.38820 0.02900
H 	H 	0.81300 0.55580 0.32800 0.02500
C 	C 	0.81090 0.48180 0.44170 -0.05000
H 	H 	0.85300 0.46020 0.41780 0.05000
C 	C 	0.77320 0.45600 0.53250 -0.06100
C 	C 	0.71160 0.48890 0.56190 -0.05700
H 	H 	0.68380 0.47290 0.62190 0.05300
C 	C 	0.69130 0.54520 0.50240 0.03900
H 	H 	0.64930 0.56750 0.52460 0.00300
C 	C 	0.79820 0.39560 0.59680 0.34500
C 	C 	0.99210 0.19210 0.57900 0.00700
H 	H 	0.96750 0.15040 0.57100 0.01200
C 	C 	0.06470 0.19020 0.59940 -0.04000
H 	H 	0.08870 0.14800 0.60600 0.04900
C 	C 	0.80880 0.29830 0.32710 0.00200
H 	H 	0.78280 0.33210 0.36560 0.01800
C 	C 	0.81100 0.30110 0.21430 -0.02200
H 	H 	0.79040 0.33840 0.17640 0.04100
N 	N 	0.72520 0.57050 0.41760 -0.20400
O 	O 	0.84010 0.35490 0.54960 -0.45300
O 	O 	0.77520 0.39010 0.69300 -0.45000
O 	O 	0.20720 0.19480 0.65220 -0.44900
O 	O 	0.84090 0.30540 0.98440 -0.48400
C 	C 	0.87470 0.20120 0.32970 0.01100
C 	C 	0.87630 0.19840 0.21490 -0.02600
H 	H 	0.89820 0.16660 0.37010 0.02100
H 	H 	0.89950 0.16220 0.17770 0.03600
Co	Co	0.80923 0.33792 0.82975 1.15200
C 	C 	0.71350 0.46180 0.88820 0.02800
H 	H 	0.68700 0.44420 0.82800 0.02500
C 	C 	0.68910 0.51820 0.94170 -0.04800
H 	H 	0.64700 0.53980 0.91780 0.04900
C 	C 	0.72680 0.54400 0.03250 -0.06300
C 	C 	0.78840 0.51110 0.06190 -0.05600
H 	H 	0.81620 0.52710 0.12190 0.05300
C 	C 	0.80870 0.45480 0.00240 0.03700
H 	H 	0.85070 0.43250 0.02460 0.00300
C 	C 	0.70180 0.60440 0.09680 0.34600
C 	C 	0.50790 0.80790 0.07900 0.00600
H 	H 	0.53250 0.84960 0.07100 0.01300
C 	C 	0.43530 0.80980 0.09940 -0.04000
H 	H 	0.41130 0.85200 0.10600 0.04900
C 	C 	0.69120 0.70170 0.82710 0.00200
H 	H 	0.71720 0.66790 0.86560 0.01800
C 	C 	0.68900 0.69890 0.71430 -0.02100
H 	H 	0.70960 0.66160 0.67640 0.04100
N 	N 	0.77480 0.42950 0.91760 -0.20300
O 	O 	0.65990 0.64510 0.04960 -0.45300
O 	O 	0.72480 0.60990 0.19300 -0.45000
O 	O 	0.29280 0.80520 0.15220 -0.44900
O 	O 	0.65910 0.69460 0.48440 -0.48700
C 	C 	0.62530 0.79880 0.82970 0.01100
C 	C 	0.62370 0.80160 0.71490 -0.02500
H 	H 	0.60180 0.83340 0.87010 0.02100
H 	H 	0.60050 0.83780 0.67770 0.03700
Co	Co	0.69077 0.83792 0.32975 1.15200
C 	C 	0.78650 0.96180 0.38820 0.02900
H 	H 	0.81300 0.94420 0.32800 0.02500
C 	C 	0.81090 0.01820 0.44170 -0.05100
H 	H 	0.85300 0.03980 0.41780 0.05000
C 	C 	0.77320 0.04400 0.53250 -0.06100
C 	C 	0.71160 0.01110 0.56190 -0.05800
H 	H 	0.68380 0.02710 0.62190 0.05300
C 	C 	0.69130 0.95480 0.50240 0.03900
H 	H 	0.64930 0.93250 0.52460 0.00300
C 	C 	0.79820 0.10440 0.59680 0.34500
C 	C 	0.99210 0.30790 0.57900 0.00700
H 	H 	0.96750 0.34960 0.57100 0.01200
C 	C 	0.06470 0.30980 0.59940 -0.04000
H 	H 	0.08870 0.35200 0.60600 0.04900
C 	C 	0.80880 0.20170 0.32710 0.00200
H 	H 	0.78280 0.16790 0.36560 0.01800
C 	C 	0.81100 0.19890 0.21430 -0.02200
H 	H 	0.79040 0.16160 0.17640 0.04100
N 	N 	0.72520 0.92950 0.41760 -0.20400
O 	O 	0.84010 0.14510 0.54960 -0.45300
O 	O 	0.77520 0.10990 0.69300 -0.45000
O 	O 	0.20720 0.30520 0.65220 -0.44900
O 	O 	0.84090 0.19460 0.98440 -0.48400
C 	C 	0.87470 0.29880 0.32970 0.01100
C 	C 	0.87630 0.30160 0.21490 -0.02600
H 	H 	0.89820 0.33340 0.37010 0.02100
H 	H 	0.89950 0.33780 0.17770 0.03600
Co	Co	0.80923 0.16208 0.82975 1.15200
C 	C 	0.71350 0.03820 0.88820 0.03000
H 	H 	0.68700 0.05580 0.82800 0.02500
C 	C 	0.68910 0.98180 0.94170 -0.05100
H 	H 	0.64700 0.96020 0.91780 0.05000
C 	C 	0.72680 0.95600 0.03250 -0.06200
C 	C 	0.78840 0.98890 0.06190 -0.05400
H 	H 	0.81620 0.97290 0.12190 0.05200
C 	C 	0.80870 0.04520 0.00240 0.03400
H 	H 	0.85070 0.06750 0.02460 0.00300
C 	C 	0.70180 0.89560 0.09680 0.34600
C 	C 	0.50790 0.69210 0.07900 0.00600
H 	H 	0.53250 0.65040 0.07100 0.01200
C 	C 	0.43530 0.69020 0.09940 -0.04000
H 	H 	0.41130 0.64800 0.10600 0.04900
C 	C 	0.69120 0.79830 0.82710 0.00200
H 	H 	0.71720 0.83210 0.86560 0.01800
C 	C 	0.68900 0.80110 0.71430 -0.02100
H 	H 	0.70960 0.83840 0.67640 0.04100
N 	N 	0.77480 0.07050 0.91760 -0.20200
O 	O 	0.65990 0.85490 0.04960 -0.45300
O 	O 	0.72480 0.89010 0.19300 -0.45000
O 	O 	0.29280 0.69480 0.15220 -0.44900
O 	O 	0.65910 0.80540 0.48440 -0.48700
C 	C 	0.62530 0.70120 0.82970 0.01100
C 	C 	0.62370 0.69840 0.71490 -0.02500
H 	H 	0.60180 0.66660 0.87010 0.02100
H 	H 	0.60050 0.66220 0.67770 0.03700
Co	Co	0.30923 0.33792 0.67025 1.15200
C 	C 	0.21350 0.46180 0.61180 0.02900
H 	H 	0.18700 0.44420 0.67200 0.02500
C 	C 	0.18910 0.51820 0.55830 -0.05000
H 	H 	0.14700 0.53980 0.58220 0.05000
C 	C 	0.22680 0.54400 0.46750 -0.06100
C 	C 	0.28840 0.51110 0.43810 -0.05700
H 	H 	0.31620 0.52710 0.37810 0.05300
C 	C 	0.30870 0.45480 0.49760 0.03900
H 	H 	0.35070 0.43250 0.47540 0.00300
C 	C 	0.20180 0.60440 0.40320 0.34500
C 	C 	0.00790 0.80790 0.42100 0.00700
H 	H 	0.03250 0.84960 0.42900 0.01200
C 	C 	0.93530 0.80980 0.40060 -0.04000
H 	H 	0.91130 0.85200 0.39400 0.04900
C 	C 	0.19120 0.70170 0.67290 0.00200
H 	H 	0.21720 0.66790 0.63440 0.01800
C 	C 	0.18900 0.69890 0.78570 -0.02200
H 	H 	0.20960 0.66160 0.82360 0.04100
N 	N 	0.27480 0.42950 0.58240 -0.20400
O 	O 	0.15990 0.64510 0.45040 -0.45300
O 	O 	0.22480 0.60990 0.30700 -0.45000
O 	O 	0.79280 0.80520 0.34780 -0.44900
O 	O 	0.15910 0.69460 0.01560 -0.48400
C 	C 	0.12530 0.79880 0.67030 0.01100
C 	C 	0.12370 0.80160 0.78510 -0.02600
H 	H 	0.10180 0.83340 0.62990 0.02100
H 	H 	0.10050 0.83780 0.82230 0.03600
Co	Co	0.19077 0.66208 0.17025 1.15200
C 	C 	0.28650 0.53820 0.11180 0.02800
H 	H 	0.31300 0.55580 0.17200 0.02500
C 	C 	0.31090 0.48180 0.05830 -0.04800
H 	H 	0.35300 0.46020 0.08220 0.04900
C 	C 	0.27320 0.45600 0.96750 -0.06300
C 	C 	0.21160 0.48890 0.93810 -0.05600
H 	H 	0.18380 0.47290 0.87810 0.05300
C 	C 	0.19130 0.54520 0.99760 0.03700
H 	H 	0.14930 0.56750 0.97540 0.00300
C 	C 	0.29820 0.39560 0.90320 0.34600
C 	C 	0.49210 0.19210 0.92100 0.00600
H 	H 	0.46750 0.15040 0.92900 0.01300
C 	C 	0.56470 0.19020 0.90060 -0.04000
H 	H 	0.58870 0.14800 0.89400 0.04900
C 	C 	0.30880 0.29830 0.17290 0.00200
H 	H 	0.28280 0.33210 0.13440 0.01800
C 	C 	0.31100 0.30110 0.28570 -0.02100
H 	H 	0.29040 0.33840 0.32360 0.04100
N 	N 	0.22520 0.57050 0.08240 -0.20300
O 	O 	0.34010 0.35490 0.95040 -0.45300
O 	O 	0.27520 0.39010 0.80700 -0.45000
O 	O 	0.70720 0.19480 0.84780 -0.44900
O 	O 	0.34090 0.30540 0.51560 -0.48700
C 	C 	0.37470 0.20120 0.17030 0.01100
C 	C 	0.37630 0.19840 0.28510 -0.02500
H 	H 	0.39820 0.16660 0.12990 0.02100
H 	H 	0.39950 0.16220 0.32230 0.03700
Co	Co	0.15669 0.75000 0.42999 1.13200
C 	C 	0.89960 0.75000 0.39050 -0.07800
C 	C 	0.82200 0.75000 0.35910 0.40200
C 	C 	0.15690 0.75000 0.84440 -0.08300
C 	C 	0.15930 0.75000 0.97130 0.42200
N 	N 	0.04410 0.75000 0.42960 -0.22200
N 	N 	0.15840 0.75000 0.61350 -0.20800
O 	O 	0.15630 0.75000 0.25500 -0.81800
H 	H 	0.11500 0.75000 0.24000 0.25800
Co	Co	0.34331 0.25000 0.92999 1.13200
C 	C 	0.60040 0.25000 0.89050 -0.07900
C 	C 	0.67800 0.25000 0.85910 0.40200
C 	C 	0.34310 0.25000 0.34440 -0.08500
C 	C 	0.34070 0.25000 0.47130 0.42800
N 	N 	0.45590 0.25000 0.92960 -0.22200
N 	N 	0.34160 0.25000 0.11350 -0.20800
O 	O 	0.34370 0.25000 0.75500 -0.81800
H 	H 	0.38500 0.25000 0.74000 0.25800
Co	Co	0.84331 0.25000 0.57001 1.13200
C 	C 	0.10040 0.25000 0.60950 -0.07800
C 	C 	0.17800 0.25000 0.64090 0.40200
C 	C 	0.84310 0.25000 0.15560 -0.08300
C 	C 	0.84070 0.25000 0.02870 0.42200
N 	N 	0.95590 0.25000 0.57040 -0.22200
N 	N 	0.84160 0.25000 0.38650 -0.20800
O 	O 	0.84370 0.25000 0.74500 -0.81800
H 	H 	0.88500 0.25000 0.76000 0.25800
Co	Co	0.65669 0.75000 0.07001 1.13200
C 	C 	0.39960 0.75000 0.10950 -0.07900
C 	C 	0.32200 0.75000 0.14090 0.40200
C 	C 	0.65690 0.75000 0.65560 -0.08500
C 	C 	0.65930 0.75000 0.52870 0.42800
N 	N 	0.54410 0.75000 0.07040 -0.22200
N 	N 	0.65840 0.75000 0.88650 -0.20800
O 	O 	0.65630 0.75000 0.24500 -0.81800
H 	H 	0.61500 0.75000 0.26000 0.25800
