data_crystal

_cell_length_a 18.78240
_cell_length_b 19.68420
_cell_length_c 12.04900
_cell_angle_alpha 90.00000
_cell_angle_beta  90.00000
_cell_angle_gamma 90.00000

_symmetry_space_group_name_	'P 1'
_symmetry_space_group_name_H-M	'P 1'

loop_
_symmetry_equiv_pos_as_xyz
  x,y,z

loop_
_atom_site_label
_atom_site_type_symbol
_atom_site_fract_x
_atom_site_fract_y
_atom_site_fract_z
_atom_site_charge
Co	Co	0.30798 0.83751 0.32270 1.15400
C 	C 	0.21490 0.96150 0.38100 0.03900
H 	H 	0.18840 0.94530 0.31940 0.02200
C 	C 	0.18960 0.01820 0.43810 -0.05200
H 	H 	0.14650 0.03940 0.41560 0.05100
C 	C 	0.22660 0.04290 0.52550 -0.06100
C 	C 	0.29050 0.00970 0.55570 -0.05200
H 	H 	0.31780 0.02500 0.61720 0.05300
C 	C 	0.31220 0.95460 0.49420 0.02600
H 	H 	0.35610 0.93340 0.51280 0.00700
C 	C 	0.20250 0.10460 0.59010 0.35200
C 	C 	0.99160 0.80720 0.42570 0.00300
H 	H 	0.96740 0.84920 0.43520 0.01500
C 	C 	0.06300 0.80920 0.40310 -0.02500
H 	H 	0.08710 0.85150 0.39900 0.04400
C 	C 	0.30240 0.79580 0.82170 0.00200
H 	H 	0.27500 0.82890 0.86010 0.01600
C 	C 	0.30350 0.79670 0.70430 -0.01400
H 	H 	0.27800 0.83110 0.66580 0.03800
N 	N 	0.27410 0.92930 0.40870 -0.20500
H 	H 	0.38370 0.75820 0.25850 0.09200
O 	O 	0.16210 0.14530 0.54290 -0.46100
O 	O 	0.22750 0.11060 0.68620 -0.44900
O 	O 	0.20440 0.80410 0.33980 -0.47400
O 	O 	0.34130 0.80510 0.47710 -0.49000
C 	C 	0.12660 0.29790 0.32270 0.00800
C 	C 	0.12460 0.30060 0.20770 -0.02100
H 	H 	0.10180 0.33190 0.36320 0.02200
H 	H 	0.09980 0.33610 0.17090 0.03700
Co	Co	0.19202 0.16249 0.82270 1.15300
C 	C 	0.28510 0.03850 0.88100 0.04000
H 	H 	0.31160 0.05470 0.81940 0.02200
C 	C 	0.31040 0.98180 0.93810 -0.05400
H 	H 	0.35350 0.96060 0.91560 0.05100
C 	C 	0.27340 0.95710 0.02550 -0.05900
C 	C 	0.20950 0.99030 0.05570 -0.05700
H 	H 	0.18220 0.97500 0.11720 0.05400
C 	C 	0.18780 0.04540 0.99420 0.03300
H 	H 	0.14390 0.06660 0.01280 0.00300
C 	C 	0.29750 0.89540 0.09010 0.35200
C 	C 	0.50840 0.19280 0.92570 0.00200
H 	H 	0.53260 0.15080 0.93520 0.01500
C 	C 	0.43700 0.19080 0.90310 -0.02400
H 	H 	0.41290 0.14850 0.89900 0.04400
C 	C 	0.19760 0.20420 0.32170 0.00300
H 	H 	0.22500 0.17110 0.36010 0.01600
C 	C 	0.19650 0.20330 0.20430 -0.01500
H 	H 	0.22200 0.16890 0.16580 0.03800
N 	N 	0.22590 0.07070 0.90870 -0.20600
H 	H 	0.11630 0.24180 0.75850 0.09300
O 	O 	0.33790 0.85470 0.04290 -0.46000
O 	O 	0.27250 0.88940 0.18620 -0.44900
O 	O 	0.29560 0.19590 0.83980 -0.47400
O 	O 	0.15870 0.19490 0.97710 -0.48700
C 	C 	0.37340 0.70210 0.82270 0.00700
C 	C 	0.37540 0.69940 0.70770 -0.02000
H 	H 	0.39820 0.66810 0.86320 0.02200
H 	H 	0.40020 0.66390 0.67090 0.03700
Co	Co	0.69202 0.33751 0.67730 1.15300
C 	C 	0.78510 0.46150 0.61900 0.03800
H 	H 	0.81160 0.44530 0.68060 0.02300
C 	C 	0.81040 0.51820 0.56190 -0.05200
H 	H 	0.85350 0.53940 0.58440 0.05100
C 	C 	0.77340 0.54290 0.47450 -0.06100
C 	C 	0.70950 0.50970 0.44430 -0.05200
H 	H 	0.68220 0.52500 0.38280 0.05200
C 	C 	0.68780 0.45460 0.50580 0.02600
H 	H 	0.64390 0.43340 0.48720 0.00700
C 	C 	0.79750 0.60460 0.40990 0.35300
C 	C 	0.00840 0.30720 0.57430 0.00300
H 	H 	0.03260 0.34920 0.56480 0.01500
C 	C 	0.93700 0.30920 0.59690 -0.02500
H 	H 	0.91290 0.35150 0.60100 0.04400
C 	C 	0.69760 0.29580 0.17830 0.00200
H 	H 	0.72500 0.32890 0.13990 0.01600
C 	C 	0.69650 0.29670 0.29570 -0.01400
H 	H 	0.72200 0.33110 0.33420 0.03800
N 	N 	0.72590 0.42930 0.59130 -0.20400
H 	H 	0.61630 0.25820 0.74150 0.09200
O 	O 	0.83790 0.64530 0.45710 -0.46100
O 	O 	0.77250 0.61060 0.31380 -0.44900
O 	O 	0.79560 0.30410 0.66020 -0.47400
O 	O 	0.65870 0.30510 0.52290 -0.49000
C 	C 	0.87340 0.79790 0.67730 0.00800
C 	C 	0.87540 0.80060 0.79230 -0.02100
H 	H 	0.89820 0.83190 0.63680 0.02200
H 	H 	0.90020 0.83610 0.82910 0.03700
Co	Co	0.80798 0.66249 0.17730 1.15300
C 	C 	0.71490 0.53850 0.11900 0.03800
H 	H 	0.68840 0.55470 0.18060 0.02300
C 	C 	0.68960 0.48180 0.06190 -0.05100
H 	H 	0.64650 0.46060 0.08440 0.05100
C 	C 	0.72660 0.45710 0.97450 -0.06100
C 	C 	0.79050 0.49030 0.94430 -0.05500
H 	H 	0.81780 0.47500 0.88280 0.05300
C 	C 	0.81220 0.54540 0.00580 0.03100
H 	H 	0.85610 0.56660 0.98720 0.00400
C 	C 	0.70250 0.39540 0.90990 0.35200
C 	C 	0.49160 0.69280 0.07430 0.00200
H 	H 	0.46740 0.65080 0.06480 0.01500
C 	C 	0.56300 0.69080 0.09690 -0.02400
H 	H 	0.58710 0.64850 0.10100 0.04400
C 	C 	0.80240 0.70420 0.67830 0.00300
H 	H 	0.77500 0.67110 0.63990 0.01600
C 	C 	0.80350 0.70330 0.79570 -0.01500
H 	H 	0.77800 0.66890 0.83420 0.03800
N 	N 	0.77410 0.57070 0.09130 -0.20500
H 	H 	0.88370 0.74180 0.24150 0.09300
O 	O 	0.66210 0.35470 0.95710 -0.46100
O 	O 	0.72750 0.38940 0.81380 -0.44900
O 	O 	0.70440 0.69590 0.16020 -0.47400
O 	O 	0.84130 0.69490 0.02290 -0.48700
C 	C 	0.62660 0.20210 0.17730 0.00800
C 	C 	0.62460 0.19940 0.29230 -0.02000
H 	H 	0.60180 0.16810 0.13680 0.02200
H 	H 	0.59980 0.16390 0.32910 0.03700
Co	Co	0.69202 0.16249 0.67730 1.15300
C 	C 	0.78510 0.03850 0.61900 0.03800
H 	H 	0.81160 0.05470 0.68060 0.02200
C 	C 	0.81040 0.98180 0.56190 -0.05200
H 	H 	0.85350 0.96060 0.58440 0.05100
C 	C 	0.77340 0.95710 0.47450 -0.06100
C 	C 	0.70950 0.99030 0.44430 -0.05200
H 	H 	0.68220 0.97500 0.38280 0.05300
C 	C 	0.68780 0.04540 0.50580 0.02600
H 	H 	0.64390 0.06660 0.48720 0.00700
C 	C 	0.79750 0.89540 0.40990 0.35200
C 	C 	0.00840 0.19280 0.57430 0.00300
H 	H 	0.03260 0.15080 0.56480 0.01500
C 	C 	0.93700 0.19080 0.59690 -0.02500
H 	H 	0.91290 0.14850 0.60100 0.04400
C 	C 	0.69760 0.20420 0.17830 0.00200
H 	H 	0.72500 0.17110 0.13990 0.01600
C 	C 	0.69650 0.20330 0.29570 -0.01400
H 	H 	0.72200 0.16890 0.33420 0.03800
N 	N 	0.72590 0.07070 0.59130 -0.20500
H 	H 	0.61630 0.24180 0.74150 0.09200
O 	O 	0.83790 0.85470 0.45710 -0.46100
O 	O 	0.77250 0.88940 0.31380 -0.44900
O 	O 	0.79560 0.19590 0.66020 -0.47400
O 	O 	0.65870 0.19490 0.52290 -0.49000
C 	C 	0.87340 0.70210 0.67730 0.00800
C 	C 	0.87540 0.69940 0.79230 -0.02100
H 	H 	0.89820 0.66810 0.63680 0.02200
H 	H 	0.90020 0.66390 0.82910 0.03700
Co	Co	0.80798 0.83751 0.17730 1.15300
C 	C 	0.71490 0.96150 0.11900 0.04000
H 	H 	0.68840 0.94530 0.18060 0.02200
C 	C 	0.68960 0.01820 0.06190 -0.05400
H 	H 	0.64650 0.03940 0.08440 0.05100
C 	C 	0.72660 0.04290 0.97450 -0.05900
C 	C 	0.79050 0.00970 0.94430 -0.05700
H 	H 	0.81780 0.02500 0.88280 0.05400
C 	C 	0.81220 0.95460 0.00580 0.03300
H 	H 	0.85610 0.93340 0.98720 0.00300
C 	C 	0.70250 0.10460 0.90990 0.35200
C 	C 	0.49160 0.80720 0.07430 0.00200
H 	H 	0.46740 0.84920 0.06480 0.01500
C 	C 	0.56300 0.80920 0.09690 -0.02400
H 	H 	0.58710 0.85150 0.10100 0.04400
C 	C 	0.80240 0.79580 0.67830 0.00300
H 	H 	0.77500 0.82890 0.63990 0.01600
C 	C 	0.80350 0.79670 0.79570 -0.01500
H 	H 	0.77800 0.83110 0.83420 0.03800
N 	N 	0.77410 0.92930 0.09130 -0.20600
H 	H 	0.88370 0.75820 0.24150 0.09300
O 	O 	0.66210 0.14530 0.95710 -0.46000
O 	O 	0.72750 0.11060 0.81380 -0.44900
O 	O 	0.70440 0.80410 0.16020 -0.47400
O 	O 	0.84130 0.80510 0.02290 -0.48700
C 	C 	0.62660 0.29790 0.17730 0.00700
C 	C 	0.62460 0.30060 0.29230 -0.02000
H 	H 	0.60180 0.33190 0.13680 0.02200
H 	H 	0.59980 0.33610 0.32910 0.03700
Co	Co	0.30798 0.66249 0.32270 1.15300
C 	C 	0.21490 0.53850 0.38100 0.03800
H 	H 	0.18840 0.55470 0.31940 0.02300
C 	C 	0.18960 0.48180 0.43810 -0.05200
H 	H 	0.14650 0.46060 0.41560 0.05100
C 	C 	0.22660 0.45710 0.52550 -0.06100
C 	C 	0.29050 0.49030 0.55570 -0.05200
H 	H 	0.31780 0.47500 0.61720 0.05200
C 	C 	0.31220 0.54540 0.49420 0.02600
H 	H 	0.35610 0.56660 0.51280 0.00700
C 	C 	0.20250 0.39540 0.59010 0.35300
C 	C 	0.99160 0.69280 0.42570 0.00300
H 	H 	0.96740 0.65080 0.43520 0.01500
C 	C 	0.06300 0.69080 0.40310 -0.02500
H 	H 	0.08710 0.64850 0.39900 0.04400
C 	C 	0.30240 0.70420 0.82170 0.00200
H 	H 	0.27500 0.67110 0.86010 0.01600
C 	C 	0.30350 0.70330 0.70430 -0.01400
H 	H 	0.27800 0.66890 0.66580 0.03800
N 	N 	0.27410 0.57070 0.40870 -0.20400
H 	H 	0.38370 0.74180 0.25850 0.09200
O 	O 	0.16210 0.35470 0.54290 -0.46100
O 	O 	0.22750 0.38940 0.68620 -0.44900
O 	O 	0.20440 0.69590 0.33980 -0.47400
O 	O 	0.34130 0.69490 0.47710 -0.49000
C 	C 	0.12660 0.20210 0.32270 0.00800
C 	C 	0.12460 0.19940 0.20770 -0.02100
H 	H 	0.10180 0.16810 0.36320 0.02200
H 	H 	0.09980 0.16390 0.17090 0.03700
Co	Co	0.19202 0.33751 0.82270 1.15300
C 	C 	0.28510 0.46150 0.88100 0.03800
H 	H 	0.31160 0.44530 0.81940 0.02300
C 	C 	0.31040 0.51820 0.93810 -0.05100
H 	H 	0.35350 0.53940 0.91560 0.05100
C 	C 	0.27340 0.54290 0.02550 -0.06100
C 	C 	0.20950 0.50970 0.05570 -0.05500
H 	H 	0.18220 0.52500 0.11720 0.05300
C 	C 	0.18780 0.45460 0.99420 0.03100
H 	H 	0.14390 0.43340 0.01280 0.00400
C 	C 	0.29750 0.60460 0.09010 0.35200
C 	C 	0.50840 0.30720 0.92570 0.00200
H 	H 	0.53260 0.34920 0.93520 0.01500
C 	C 	0.43700 0.30920 0.90310 -0.02400
H 	H 	0.41290 0.35150 0.89900 0.04400
C 	C 	0.19760 0.29580 0.32170 0.00300
H 	H 	0.22500 0.32890 0.36010 0.01600
C 	C 	0.19650 0.29670 0.20430 -0.01500
H 	H 	0.22200 0.33110 0.16580 0.03800
N 	N 	0.22590 0.42930 0.90870 -0.20500
H 	H 	0.11630 0.25820 0.75850 0.09300
O 	O 	0.33790 0.64530 0.04290 -0.46100
O 	O 	0.27250 0.61060 0.18620 -0.44900
O 	O 	0.29560 0.30410 0.83980 -0.47400
O 	O 	0.15870 0.30510 0.97710 -0.48700
C 	C 	0.37340 0.79790 0.82270 0.00800
C 	C 	0.37540 0.80060 0.70770 -0.02000
H 	H 	0.39820 0.83190 0.86320 0.02200
H 	H 	0.40020 0.83610 0.67090 0.03700
Co	Co	0.84040 0.75000 0.43741 1.13300
C 	C 	0.09920 0.75000 0.38640 -0.10500
C 	C 	0.17660 0.75000 0.35310 0.45800
C 	C 	0.34010 0.75000 0.64620 -0.10300
C 	C 	0.33820 0.75000 0.52200 0.43900
O 	O 	0.34120 0.75000 0.23810 -0.75100
N 	N 	0.95400 0.75000 0.43610 -0.21800
N 	N 	0.33840 0.75000 0.87980 -0.20800
Co	Co	0.65960 0.25000 0.93741 1.13300
C 	C 	0.40080 0.25000 0.88640 -0.10500
C 	C 	0.32340 0.25000 0.85310 0.45800
C 	C 	0.15990 0.25000 0.14620 -0.10100
C 	C 	0.16180 0.25000 0.02200 0.43300
O 	O 	0.15880 0.25000 0.73810 -0.75100
N 	N 	0.54600 0.25000 0.93610 -0.21800
N 	N 	0.16160 0.25000 0.37980 -0.20800
Co	Co	0.15960 0.25000 0.56259 1.13300
C 	C 	0.90080 0.25000 0.61360 -0.10500
C 	C 	0.82340 0.25000 0.64690 0.45800
C 	C 	0.65990 0.25000 0.35380 -0.10300
C 	C 	0.66180 0.25000 0.47800 0.43900
O 	O 	0.65880 0.25000 0.76190 -0.75100
N 	N 	0.04600 0.25000 0.56390 -0.21800
N 	N 	0.66160 0.25000 0.12020 -0.20800
Co	Co	0.34040 0.75000 0.06259 1.13300
C 	C 	0.59920 0.75000 0.11360 -0.10500
C 	C 	0.67660 0.75000 0.14690 0.45800
C 	C 	0.84010 0.75000 0.85380 -0.10100
C 	C 	0.83820 0.75000 0.97800 0.43300
O 	O 	0.84120 0.75000 0.26190 -0.75100
N 	N 	0.45400 0.75000 0.06390 -0.21800
N 	N 	0.83840 0.75000 0.62020 -0.20800
