data_crystal

_cell_length_a 18.95420
_cell_length_b 19.69700
_cell_length_c 12.02280
_cell_angle_alpha 90.00000
_cell_angle_beta  90.00000
_cell_angle_gamma 90.00000

_symmetry_space_group_name_	'P 1'
_symmetry_space_group_name_H-M	'P 1'

loop_
_symmetry_equiv_pos_as_xyz
  x,y,z

loop_
_atom_site_label
_atom_site_type_symbol
_atom_site_fract_x
_atom_site_fract_y
_atom_site_fract_z
_atom_site_charge
Co	Co	0.80589 0.16279 0.32238 1.15800
C 	C 	0.72640 0.95660 0.52490 -0.05600
C 	C 	0.68840 0.98120 0.43430 -0.05200
H 	H 	0.64650 0.95910 0.41050 0.05200
C 	C 	0.71240 0.03820 0.37970 0.03500
H 	H 	0.68590 0.05490 0.31840 0.02700
C 	C 	0.80720 0.04820 0.49580 0.03300
H 	H 	0.84830 0.07200 0.51880 0.00800
C 	C 	0.78750 0.99100 0.55470 -0.05200
H 	H 	0.81550 0.97540 0.61510 0.05700
C 	C 	0.70330 0.89460 0.58960 0.35700
C 	C 	0.43800 0.69060 0.59910 -0.02800
H 	H 	0.41430 0.64830 0.60500 0.04900
C 	C 	0.50930 0.69250 0.57610 0.00800
H 	H 	0.53360 0.65070 0.56660 0.01400
C 	C 	0.69380 0.70090 0.20960 -0.02300
H 	H 	0.71810 0.66540 0.17220 0.04200
C 	C 	0.62400 0.80060 0.20800 -0.02100
H 	H 	0.60040 0.83630 0.17000 0.03700
C 	C 	0.69320 0.70280 0.32250 0.00700
H 	H 	0.71850 0.66870 0.36170 0.02100
C 	C 	0.62410 0.79790 0.32290 0.00600
H 	H 	0.59840 0.83140 0.36260 0.02400
N 	N 	0.77180 0.07140 0.40920 -0.20400
H 	H 	0.61750 0.75810 0.76120 0.09000
O 	O 	0.66090 0.85470 0.54370 -0.44300
O 	O 	0.72930 0.88810 0.68440 -0.43400
O 	O 	0.29660 0.69550 0.65720 -0.44900
O 	O 	0.66250 0.80520 0.97710 -0.48400
Co	Co	0.69411 0.83721 0.82238 1.15700
C 	C 	0.77360 0.04340 0.02490 -0.05500
C 	C 	0.81160 0.01880 0.93430 -0.05600
H 	H 	0.85350 0.04090 0.91050 0.05200
C 	C 	0.78760 0.96180 0.87970 0.03600
H 	H 	0.81410 0.94510 0.81840 0.02500
C 	C 	0.69280 0.95180 0.99580 0.03700
H 	H 	0.65170 0.92800 0.01880 0.00500
C 	C 	0.71250 0.00900 0.05470 -0.05700
H 	H 	0.68450 0.02460 0.11510 0.05700
C 	C 	0.79670 0.10540 0.08960 0.35500
C 	C 	0.06200 0.30940 0.09910 -0.02600
H 	H 	0.08570 0.35170 0.10500 0.04700
C 	C 	0.99070 0.30750 0.07610 0.00400
H 	H 	0.96640 0.34930 0.06660 0.01400
C 	C 	0.80620 0.29910 0.70960 -0.02300
H 	H 	0.78190 0.33460 0.67220 0.04200
C 	C 	0.87600 0.19940 0.70800 -0.02000
H 	H 	0.89960 0.16370 0.67000 0.03600
C 	C 	0.80680 0.29720 0.82250 0.00600
H 	H 	0.78150 0.33130 0.86170 0.02200
C 	C 	0.87590 0.20210 0.82290 0.00500
H 	H 	0.90160 0.16860 0.86260 0.02400
N 	N 	0.72820 0.92860 0.90920 -0.20500
H 	H 	0.88250 0.24190 0.26120 0.09000
O 	O 	0.83910 0.14530 0.04370 -0.44300
O 	O 	0.77070 0.11190 0.18440 -0.43400
O 	O 	0.20340 0.30450 0.15720 -0.45000
O 	O 	0.83750 0.19480 0.47710 -0.48600
Co	Co	0.19411 0.66279 0.67762 1.15700
C 	C 	0.27360 0.45660 0.47510 -0.05700
C 	C 	0.31160 0.48120 0.56570 -0.05300
H 	H 	0.35350 0.45910 0.58950 0.05100
C 	C 	0.28760 0.53820 0.62030 0.03400
H 	H 	0.31410 0.55490 0.68160 0.02600
C 	C 	0.19280 0.54820 0.50420 0.03200
H 	H 	0.15170 0.57200 0.48120 0.00700
C 	C 	0.21250 0.49100 0.44530 -0.05300
H 	H 	0.18450 0.47540 0.38490 0.05600
C 	C 	0.29670 0.39460 0.41040 0.35600
C 	C 	0.56200 0.19060 0.40090 -0.02900
H 	H 	0.58570 0.14830 0.39500 0.04800
C 	C 	0.49070 0.19250 0.42390 0.00700
H 	H 	0.46640 0.15070 0.43340 0.01400
C 	C 	0.30620 0.20090 0.79040 -0.02300
H 	H 	0.28190 0.16540 0.82780 0.04200
C 	C 	0.37600 0.30060 0.79200 -0.02100
H 	H 	0.39960 0.33630 0.83000 0.03700
C 	C 	0.30680 0.20280 0.67750 0.00600
H 	H 	0.28150 0.16870 0.63830 0.02100
C 	C 	0.37590 0.29790 0.67710 0.00500
H 	H 	0.40160 0.33140 0.63740 0.02400
N 	N 	0.22820 0.57140 0.59080 -0.20400
H 	H 	0.38250 0.25810 0.23880 0.09000
O 	O 	0.33910 0.35470 0.45630 -0.44300
O 	O 	0.27070 0.38810 0.31560 -0.43400
O 	O 	0.70340 0.19550 0.34280 -0.44900
O 	O 	0.33750 0.30520 0.02290 -0.48400
Co	Co	0.30589 0.33721 0.17762 1.15700
C 	C 	0.22640 0.54340 0.97510 -0.05800
C 	C 	0.18840 0.51880 0.06570 -0.05200
H 	H 	0.14650 0.54090 0.08950 0.05100
C 	C 	0.21240 0.46180 0.12030 0.03400
H 	H 	0.18590 0.44510 0.18160 0.02600
C 	C 	0.30720 0.45180 0.00420 0.03400
H 	H 	0.34830 0.42800 0.98120 0.00600
C 	C 	0.28750 0.50900 0.94530 -0.05400
H 	H 	0.31550 0.52460 0.88490 0.05700
C 	C 	0.20330 0.60540 0.91040 0.35600
C 	C 	0.93800 0.80940 0.90090 -0.02600
H 	H 	0.91430 0.85170 0.89500 0.04800
C 	C 	0.00930 0.80750 0.92390 0.00400
H 	H 	0.03360 0.84930 0.93340 0.01400
C 	C 	0.19380 0.79910 0.29040 -0.02300
H 	H 	0.21810 0.83460 0.32780 0.04200
C 	C 	0.12400 0.69940 0.29200 -0.02000
H 	H 	0.10040 0.66370 0.33000 0.03700
C 	C 	0.19320 0.79720 0.17750 0.00600
H 	H 	0.21850 0.83130 0.13830 0.02100
C 	C 	0.12410 0.70210 0.17710 0.00500
H 	H 	0.09840 0.66860 0.13740 0.02400
N 	N 	0.27180 0.42860 0.09080 -0.20400
H 	H 	0.11750 0.74190 0.73880 0.09000
O 	O 	0.16090 0.64530 0.95630 -0.44300
O 	O 	0.22930 0.61190 0.81560 -0.43400
O 	O 	0.79660 0.80450 0.84280 -0.44900
O 	O 	0.16250 0.69480 0.52290 -0.48600
Co	Co	0.19411 0.83721 0.67762 1.15700
C 	C 	0.27360 0.04340 0.47510 -0.05700
C 	C 	0.31160 0.01880 0.56570 -0.05300
H 	H 	0.35350 0.04090 0.58950 0.05100
C 	C 	0.28760 0.96180 0.62030 0.03400
H 	H 	0.31410 0.94510 0.68160 0.02600
C 	C 	0.19280 0.95180 0.50420 0.03200
H 	H 	0.15170 0.92800 0.48120 0.00700
C 	C 	0.21250 0.00900 0.44530 -0.05300
H 	H 	0.18450 0.02460 0.38490 0.05600
C 	C 	0.29670 0.10540 0.41040 0.35600
C 	C 	0.56200 0.30940 0.40090 -0.02900
H 	H 	0.58570 0.35170 0.39500 0.04800
C 	C 	0.49070 0.30750 0.42390 0.00700
H 	H 	0.46640 0.34930 0.43340 0.01400
C 	C 	0.30620 0.29910 0.79040 -0.02300
H 	H 	0.28190 0.33460 0.82780 0.04200
C 	C 	0.37600 0.19940 0.79200 -0.02100
H 	H 	0.39960 0.16370 0.83000 0.03700
C 	C 	0.30680 0.29720 0.67750 0.00700
H 	H 	0.28150 0.33130 0.63830 0.02100
C 	C 	0.37590 0.20210 0.67710 0.00600
H 	H 	0.40160 0.16860 0.63740 0.02400
N 	N 	0.22820 0.92860 0.59080 -0.20400
H 	H 	0.38250 0.24190 0.23880 0.09000
O 	O 	0.33910 0.14530 0.45630 -0.44300
O 	O 	0.27070 0.11190 0.31560 -0.43400
O 	O 	0.70340 0.30450 0.34280 -0.44900
O 	O 	0.33750 0.19480 0.02290 -0.48400
Co	Co	0.30589 0.16279 0.17762 1.15700
C 	C 	0.22640 0.95660 0.97510 -0.05500
C 	C 	0.18840 0.98120 0.06570 -0.05600
H 	H 	0.14650 0.95910 0.08950 0.05200
C 	C 	0.21240 0.03820 0.12030 0.03600
H 	H 	0.18590 0.05490 0.18160 0.02500
C 	C 	0.30720 0.04820 0.00420 0.03700
H 	H 	0.34830 0.07200 0.98120 0.00500
C 	C 	0.28750 0.99100 0.94530 -0.05700
H 	H 	0.31550 0.97540 0.88490 0.05700
C 	C 	0.20330 0.89460 0.91040 0.35500
C 	C 	0.93800 0.69060 0.90090 -0.02600
H 	H 	0.91430 0.64830 0.89500 0.04700
C 	C 	0.00930 0.69250 0.92390 0.00400
H 	H 	0.03360 0.65070 0.93340 0.01400
C 	C 	0.19380 0.70090 0.29040 -0.02300
H 	H 	0.21810 0.66540 0.32780 0.04200
C 	C 	0.12400 0.80060 0.29200 -0.02000
H 	H 	0.10040 0.83630 0.33000 0.03600
C 	C 	0.19320 0.70280 0.17750 0.00600
H 	H 	0.21850 0.66870 0.13830 0.02200
C 	C 	0.12410 0.79790 0.17710 0.00500
H 	H 	0.09840 0.83140 0.13740 0.02400
N 	N 	0.27180 0.07140 0.09080 -0.20500
H 	H 	0.11750 0.75810 0.73880 0.09000
O 	O 	0.16090 0.85470 0.95630 -0.44300
O 	O 	0.22930 0.88810 0.81560 -0.43400
O 	O 	0.79660 0.69550 0.84280 -0.45000
O 	O 	0.16250 0.80520 0.52290 -0.48600
Co	Co	0.80589 0.33721 0.32238 1.15700
C 	C 	0.72640 0.54340 0.52490 -0.05700
C 	C 	0.68840 0.51880 0.43430 -0.05300
H 	H 	0.64650 0.54090 0.41050 0.05100
C 	C 	0.71240 0.46180 0.37970 0.03400
H 	H 	0.68590 0.44510 0.31840 0.02600
C 	C 	0.80720 0.45180 0.49580 0.03200
H 	H 	0.84830 0.42800 0.51880 0.00700
C 	C 	0.78750 0.50900 0.55470 -0.05300
H 	H 	0.81550 0.52460 0.61510 0.05600
C 	C 	0.70330 0.60540 0.58960 0.35600
C 	C 	0.43800 0.80940 0.59910 -0.02900
H 	H 	0.41430 0.85170 0.60500 0.04800
C 	C 	0.50930 0.80750 0.57610 0.00700
H 	H 	0.53360 0.84930 0.56660 0.01400
C 	C 	0.69380 0.79910 0.20960 -0.02300
H 	H 	0.71810 0.83460 0.17220 0.04200
C 	C 	0.62400 0.69940 0.20800 -0.02100
H 	H 	0.60040 0.66370 0.17000 0.03700
C 	C 	0.69320 0.79720 0.32250 0.00600
H 	H 	0.71850 0.83130 0.36170 0.02100
C 	C 	0.62410 0.70210 0.32290 0.00500
H 	H 	0.59840 0.66860 0.36260 0.02400
N 	N 	0.77180 0.42860 0.40920 -0.20400
H 	H 	0.61750 0.74190 0.76120 0.09000
O 	O 	0.66090 0.64530 0.54370 -0.44300
O 	O 	0.72930 0.61190 0.68440 -0.43400
O 	O 	0.29660 0.80450 0.65720 -0.44900
O 	O 	0.66250 0.69480 0.97710 -0.48400
Co	Co	0.69411 0.66279 0.82238 1.15700
C 	C 	0.77360 0.45660 0.02490 -0.05800
C 	C 	0.81160 0.48120 0.93430 -0.05200
H 	H 	0.85350 0.45910 0.91050 0.05100
C 	C 	0.78760 0.53820 0.87970 0.03400
H 	H 	0.81410 0.55490 0.81840 0.02600
C 	C 	0.69280 0.54820 0.99580 0.03400
H 	H 	0.65170 0.57200 0.01880 0.00600
C 	C 	0.71250 0.49100 0.05470 -0.05400
H 	H 	0.68450 0.47540 0.11510 0.05700
C 	C 	0.79670 0.39460 0.08960 0.35600
C 	C 	0.06200 0.19060 0.09910 -0.02600
H 	H 	0.08570 0.14830 0.10500 0.04800
C 	C 	0.99070 0.19250 0.07610 0.00400
H 	H 	0.96640 0.15070 0.06660 0.01400
C 	C 	0.80620 0.20090 0.70960 -0.02300
H 	H 	0.78190 0.16540 0.67220 0.04200
C 	C 	0.87600 0.30060 0.70800 -0.02000
H 	H 	0.89960 0.33630 0.67000 0.03700
C 	C 	0.80680 0.20280 0.82250 0.00600
H 	H 	0.78150 0.16870 0.86170 0.02100
C 	C 	0.87590 0.29790 0.82290 0.00500
H 	H 	0.90160 0.33140 0.86260 0.02400
N 	N 	0.72820 0.57140 0.90920 -0.20400
H 	H 	0.88250 0.25810 0.26120 0.09000
O 	O 	0.83910 0.35470 0.04370 -0.44300
O 	O 	0.77070 0.38810 0.18440 -0.43400
O 	O 	0.20340 0.19550 0.15720 -0.44900
O 	O 	0.83750 0.30520 0.47710 -0.48600
Co	Co	0.65833 0.75000 0.56412 1.16500
C 	C 	0.40170 0.75000 0.61330 -0.09100
C 	C 	0.32510 0.75000 0.64630 0.44400
C 	C 	0.65940 0.75000 0.14910 -0.08900
N 	N 	0.54550 0.75000 0.56650 -0.21800
N 	N 	0.65900 0.75000 0.38150 -0.20300
O 	O 	0.65930 0.75000 0.73940 -0.72800
O 	O 	0.77170 0.75000 0.57290 -0.45900
H 	H 	0.78850 0.75000 0.50830 0.22300
C 	C 	0.66210 0.75000 0.02260 0.42700
Co	Co	0.84167 0.25000 0.06412 1.16500
C 	C 	0.09830 0.25000 0.11330 -0.09400
C 	C 	0.17490 0.25000 0.14630 0.44500
C 	C 	0.84060 0.25000 0.64910 -0.09000
N 	N 	0.95450 0.25000 0.06650 -0.21700
N 	N 	0.84100 0.25000 0.88150 -0.20300
O 	O 	0.84070 0.25000 0.23940 -0.72800
O 	O 	0.72830 0.25000 0.07290 -0.45900
H 	H 	0.71150 0.25000 0.00830 0.22300
C 	C 	0.83790 0.25000 0.52260 0.43000
Co	Co	0.34167 0.25000 0.43588 1.16500
C 	C 	0.59830 0.25000 0.38670 -0.09100
C 	C 	0.67490 0.25000 0.35370 0.44400
C 	C 	0.34060 0.25000 0.85090 -0.08900
N 	N 	0.45450 0.25000 0.43350 -0.21800
N 	N 	0.34100 0.25000 0.61850 -0.20300
O 	O 	0.34070 0.25000 0.26060 -0.72800
O 	O 	0.22830 0.25000 0.42710 -0.45900
H 	H 	0.21150 0.25000 0.49170 0.22300
C 	C 	0.33790 0.25000 0.97740 0.42700
Co	Co	0.15833 0.75000 0.93588 1.16500
C 	C 	0.90170 0.75000 0.88670 -0.09400
C 	C 	0.82510 0.75000 0.85370 0.44500
C 	C 	0.15940 0.75000 0.35090 -0.09000
N 	N 	0.04550 0.75000 0.93350 -0.21700
N 	N 	0.15900 0.75000 0.11850 -0.20300
O 	O 	0.15930 0.75000 0.76060 -0.72800
O 	O 	0.27170 0.75000 0.92710 -0.45900
H 	H 	0.28850 0.75000 0.99170 0.22300
C 	C 	0.16210 0.75000 0.47740 0.43000
