data_crystal

_cell_length_a 8.30900
_cell_length_b 9.35000
_cell_length_c 16.15800
_cell_angle_alpha 90.00000
_cell_angle_beta  90.00000
_cell_angle_gamma 94.07800

_symmetry_space_group_name_	'P 1'
_symmetry_space_group_name_H-M	'P 1'

loop_
_symmetry_equiv_pos_as_xyz
  x,y,z

loop_
_atom_site_label
_atom_site_type_symbol
_atom_site_fract_x
_atom_site_fract_y
_atom_site_fract_z
_atom_site_charge
Pr	Pr	0.46810 0.39198 0.60653 2.04500
Pr	Pr	0.03190 0.60802 0.10653 2.04200
Pr	Pr	0.53190 0.60802 0.39347 2.04500
Pr	Pr	0.96810 0.39198 0.89347 2.04200
H 	H 	0.65400 0.96620 0.71550 0.05900
H 	H 	0.72350 0.76960 0.78230 -0.00200
H 	H 	0.89470 0.01850 0.96450 0.00000
H 	H 	0.22130 0.40630 0.45370 0.20200
H 	H 	0.34470 0.51940 0.44550 0.01400
H 	H 	0.84600 0.03380 0.21550 0.06700
H 	H 	0.77650 0.23040 0.28230 -0.00700
H 	H 	0.60530 0.98150 0.46450 -0.00100
H 	H 	0.27870 0.59370 0.95370 0.20200
H 	H 	0.15530 0.48060 0.94550 0.01600
H 	H 	0.34600 0.03380 0.28450 0.05900
H 	H 	0.27650 0.23040 0.21770 -0.00200
H 	H 	0.10530 0.98150 0.03550 0.00000
H 	H 	0.77870 0.59370 0.54630 0.20200
H 	H 	0.65530 0.48060 0.55450 0.01400
H 	H 	0.15400 0.96620 0.78450 0.06700
H 	H 	0.22350 0.76960 0.71770 -0.00700
H 	H 	0.39470 0.01850 0.53550 -0.00100
H 	H 	0.72130 0.40630 0.04630 0.20200
H 	H 	0.84470 0.51940 0.05450 0.01600
C 	C 	0.70700 0.24500 0.75400 0.39900
C 	C 	0.74200 0.10700 0.79660 -0.04900
C 	C 	0.70700 0.97600 0.76600 -0.07100
C 	C 	0.74400 0.86000 0.80600 0.05300
C 	C 	0.81500 0.87400 0.88350 -0.17100
C 	C 	0.84800 0.00800 0.91240 0.08900
C 	C 	0.87100 0.74400 0.92950 0.46600
C 	C 	0.79300 0.75500 0.25400 0.39400
C 	C 	0.75800 0.89300 0.29660 -0.03600
C 	C 	0.79300 0.02400 0.26600 -0.09100
C 	C 	0.75600 0.14000 0.30600 0.06900
C 	C 	0.68500 0.12600 0.38350 -0.18600
C 	C 	0.65200 0.99200 0.41240 0.10400
C 	C 	0.62900 0.25600 0.42950 0.47100
C 	C 	0.29300 0.75500 0.24600 0.39900
C 	C 	0.25800 0.89300 0.20340 -0.04900
C 	C 	0.29300 0.02400 0.23400 -0.07100
C 	C 	0.25600 0.14000 0.19400 0.05300
C 	C 	0.18500 0.12600 0.11650 -0.17100
C 	C 	0.15200 0.99200 0.08760 0.08900
C 	C 	0.12900 0.25600 0.07050 0.46600
C 	C 	0.20700 0.24500 0.74600 0.39400
C 	C 	0.24200 0.10700 0.70340 -0.03600
C 	C 	0.20700 0.97600 0.73400 -0.09100
C 	C 	0.24400 0.86000 0.69400 0.06900
C 	C 	0.31500 0.87400 0.61650 -0.18600
C 	C 	0.34800 0.00800 0.58760 0.10400
C 	C 	0.37100 0.74400 0.57050 0.47100
N 	N 	0.81600 0.12700 0.87020 -0.21200
N 	N 	0.68400 0.87300 0.37020 -0.21500
N 	N 	0.18400 0.87300 0.12980 -0.21200
N 	N 	0.31600 0.12700 0.62980 -0.21500
O 	O 	0.91900 0.76100 0.99880 -0.53600
O 	O 	0.85500 0.62560 0.89140 -0.54300
O 	O 	0.62200 0.23600 0.69250 -0.51500
O 	O 	0.76700 0.35700 0.78900 -0.55400
O 	O 	0.32400 0.44100 0.47090 -0.68200
O 	O 	0.58100 0.23900 0.49880 -0.53700
O 	O 	0.64500 0.37440 0.39140 -0.54300
O 	O 	0.87800 0.76400 0.19250 -0.51000
O 	O 	0.73300 0.64300 0.28900 -0.55100
O 	O 	0.17600 0.55900 0.97090 -0.68000
O 	O 	0.08100 0.23900 0.00120 -0.53600
O 	O 	0.14500 0.37440 0.10860 -0.54300
O 	O 	0.37800 0.76400 0.30750 -0.51500
O 	O 	0.23300 0.64300 0.21100 -0.55400
O 	O 	0.67600 0.55900 0.52910 -0.68200
O 	O 	0.41900 0.76100 0.50120 -0.53700
O 	O 	0.35500 0.62560 0.60860 -0.54300
O 	O 	0.12200 0.23600 0.80750 -0.51000
O 	O 	0.26700 0.35700 0.71100 -0.55100
O 	O 	0.82400 0.44100 0.02910 -0.68000
