data_crystal

_cell_length_a 15.31900
_cell_length_b 15.45600
_cell_length_c 16.23700
_cell_angle_alpha 90.00000
_cell_angle_beta  90.00000
_cell_angle_gamma 90.00000

_symmetry_space_group_name_	'P 1'
_symmetry_space_group_name_H-M	'P 1'

loop_
_symmetry_equiv_pos_as_xyz
  x,y,z

loop_
_atom_site_label
_atom_site_type_symbol
_atom_site_fract_x
_atom_site_fract_y
_atom_site_fract_z
_atom_site_charge
Ag	Ag	0.41560 0.89813 0.11812 0.50000
C 	C 	0.19420 0.82930 0.08370 -0.20000
H 	H 	0.18770 0.81900 0.14230 0.07000
H 	H 	0.18740 0.89080 0.07370 0.07500
C 	C 	0.12610 0.77900 0.03630 0.08000
C 	C 	0.12480 0.77600 0.94820 -0.13500
H 	H 	0.16590 0.80830 0.91930 0.07700
C 	C 	0.06550 0.72750 0.90440 0.08300
C 	C 	0.00660 0.68770 0.95390 -0.04400
H 	H 	0.96260 0.65570 0.92880 0.03700
C 	C 	0.06710 0.73420 0.07980 -0.04100
H 	H 	0.06950 0.73420 0.13700 0.01900
C 	C 	0.06590 0.71400 0.80850 -0.18500
H 	H 	0.11340 0.74720 0.78470 0.06700
H 	H 	0.01170 0.73600 0.78580 0.06600
C 	C 	0.18530 0.57340 0.81000 -0.17800
H 	H 	0.20240 0.51880 0.78520 0.06100
H 	H 	0.22430 0.61780 0.78930 0.06500
C 	C 	0.19650 0.56650 0.90540 0.08300
C 	C 	0.25030 0.62080 0.94840 -0.13600
H 	H 	0.28500 0.66000 0.91980 0.07900
C 	C 	0.25430 0.61850 0.03820 0.08600
C 	C 	0.20340 0.56270 0.08100 -0.05700
H 	H 	0.20460 0.56310 0.13830 0.02100
C 	C 	0.14870 0.50990 0.95350 -0.04500
H 	H 	0.11220 0.47100 0.92670 0.03700
C 	C 	0.30660 0.68020 0.08640 -0.20400
H 	H 	0.36740 0.66280 0.08400 0.07800
H 	H 	0.28830 0.67740 0.14350 0.07500
N 	N 	0.00720 0.69110 0.04210 -0.15300
N 	N 	0.15140 0.50680 0.04120 -0.15600
S 	S 	0.29760 0.79460 0.05030 -0.04800
S 	S 	0.07860 0.59800 0.77897 -0.08300
Ag	Ag	0.91560 0.39813 0.61812 0.50200
C 	C 	0.69420 0.32930 0.58370 -0.21200
H 	H 	0.68770 0.31900 0.64230 0.07500
H 	H 	0.68740 0.39080 0.57370 0.08200
C 	C 	0.62610 0.27900 0.53630 0.10100
C 	C 	0.62480 0.27600 0.44820 -0.15800
H 	H 	0.66590 0.30830 0.41930 0.08200
C 	C 	0.56550 0.22750 0.40440 0.09500
C 	C 	0.50660 0.18770 0.45390 -0.06100
H 	H 	0.46260 0.15570 0.42880 0.04000
C 	C 	0.56710 0.23420 0.57980 -0.05100
H 	H 	0.56950 0.23420 0.63700 0.02200
C 	C 	0.56590 0.21400 0.30850 -0.19200
H 	H 	0.61340 0.24720 0.28470 0.06800
H 	H 	0.51170 0.23600 0.28580 0.06700
C 	C 	0.68530 0.07340 0.31000 -0.18500
H 	H 	0.70240 0.01880 0.28520 0.06300
H 	H 	0.72430 0.11780 0.28930 0.06700
C 	C 	0.69650 0.06650 0.40540 0.09400
C 	C 	0.75030 0.12080 0.44840 -0.15900
H 	H 	0.78500 0.16000 0.41980 0.08400
C 	C 	0.75430 0.11850 0.53820 0.10600
C 	C 	0.70340 0.06270 0.58100 -0.06500
H 	H 	0.70460 0.06310 0.63830 0.02400
C 	C 	0.64870 0.00990 0.45350 -0.06100
H 	H 	0.61220 0.97100 0.42670 0.04100
C 	C 	0.80660 0.18020 0.58640 -0.21500
H 	H 	0.86740 0.16280 0.58400 0.08300
H 	H 	0.78830 0.17740 0.64350 0.07800
N 	N 	0.50720 0.19110 0.54210 -0.14500
N 	N 	0.65140 0.00680 0.54120 -0.14800
S 	S 	0.79760 0.29460 0.55030 -0.03800
S 	S 	0.57860 0.09800 0.27897 -0.08100
Ag	Ag	0.58440 0.10187 0.11812 0.50100
C 	C 	0.80580 0.17070 0.08370 -0.19900
H 	H 	0.81230 0.18100 0.14230 0.07100
H 	H 	0.81260 0.10920 0.07370 0.07600
C 	C 	0.87390 0.22100 0.03630 0.08000
C 	C 	0.87520 0.22400 0.94820 -0.13500
H 	H 	0.83410 0.19170 0.91930 0.07700
C 	C 	0.93450 0.27250 0.90440 0.08300
C 	C 	0.99340 0.31230 0.95390 -0.04400
H 	H 	0.03740 0.34430 0.92880 0.03700
C 	C 	0.93290 0.26580 0.07980 -0.04100
H 	H 	0.93050 0.26580 0.13700 0.01900
C 	C 	0.93410 0.28600 0.80850 -0.18500
H 	H 	0.88660 0.25280 0.78470 0.06700
H 	H 	0.98830 0.26400 0.78580 0.06600
C 	C 	0.81470 0.42660 0.81000 -0.17800
H 	H 	0.79760 0.48120 0.78520 0.06100
H 	H 	0.77570 0.38220 0.78930 0.06500
C 	C 	0.80350 0.43350 0.90540 0.08300
C 	C 	0.74970 0.37920 0.94840 -0.13600
H 	H 	0.71500 0.34000 0.91980 0.07900
C 	C 	0.74570 0.38150 0.03820 0.08600
C 	C 	0.79660 0.43730 0.08100 -0.05700
H 	H 	0.79540 0.43690 0.13830 0.02100
C 	C 	0.85130 0.49010 0.95350 -0.04500
H 	H 	0.88780 0.52900 0.92670 0.03700
C 	C 	0.69340 0.31980 0.08640 -0.20400
H 	H 	0.63260 0.33720 0.08400 0.07800
H 	H 	0.71170 0.32260 0.14350 0.07500
N 	N 	0.99280 0.30890 0.04210 -0.15300
N 	N 	0.84860 0.49320 0.04120 -0.15600
S 	S 	0.70240 0.20540 0.05030 -0.04800
S 	S 	0.92140 0.40200 0.77897 -0.08300
Ag	Ag	0.08440 0.60187 0.61812 0.50200
C 	C 	0.30580 0.67070 0.58370 -0.21200
H 	H 	0.31230 0.68100 0.64230 0.07500
H 	H 	0.31260 0.60920 0.57370 0.08200
C 	C 	0.37390 0.72100 0.53630 0.10100
C 	C 	0.37520 0.72400 0.44820 -0.15800
H 	H 	0.33410 0.69170 0.41930 0.08200
C 	C 	0.43450 0.77250 0.40440 0.09500
C 	C 	0.49340 0.81230 0.45390 -0.06100
H 	H 	0.53740 0.84430 0.42880 0.04000
C 	C 	0.43290 0.76580 0.57980 -0.05100
H 	H 	0.43050 0.76580 0.63700 0.02200
C 	C 	0.43410 0.78600 0.30850 -0.19200
H 	H 	0.38660 0.75280 0.28470 0.06800
H 	H 	0.48830 0.76400 0.28580 0.06700
C 	C 	0.31470 0.92660 0.31000 -0.18500
H 	H 	0.29760 0.98120 0.28520 0.06300
H 	H 	0.27570 0.88220 0.28930 0.06700
C 	C 	0.30350 0.93350 0.40540 0.09400
C 	C 	0.24970 0.87920 0.44840 -0.15900
H 	H 	0.21500 0.84000 0.41980 0.08400
C 	C 	0.24570 0.88150 0.53820 0.10600
C 	C 	0.29660 0.93730 0.58100 -0.06500
H 	H 	0.29540 0.93690 0.63830 0.02400
C 	C 	0.35130 0.99010 0.45350 -0.06100
H 	H 	0.38780 0.02900 0.42670 0.04100
C 	C 	0.19340 0.81980 0.58640 -0.21500
H 	H 	0.13260 0.83720 0.58400 0.08300
H 	H 	0.21170 0.82260 0.64350 0.07800
N 	N 	0.49280 0.80890 0.54210 -0.14500
N 	N 	0.34860 0.99320 0.54120 -0.14800
S 	S 	0.20240 0.70540 0.55030 -0.03800
S 	S 	0.42140 0.90200 0.27897 -0.08100
Ag	Ag	0.91560 0.60187 0.11812 0.50100
C 	C 	0.69420 0.67070 0.08370 -0.19900
H 	H 	0.68770 0.68100 0.14230 0.07100
H 	H 	0.68740 0.60920 0.07370 0.07600
C 	C 	0.62610 0.72100 0.03630 0.08000
C 	C 	0.62480 0.72400 0.94820 -0.13400
H 	H 	0.66590 0.69170 0.91930 0.07700
C 	C 	0.56550 0.77250 0.90440 0.08300
C 	C 	0.50660 0.81230 0.95390 -0.04400
H 	H 	0.46260 0.84430 0.92880 0.03700
C 	C 	0.56710 0.76580 0.07980 -0.04000
H 	H 	0.56950 0.76580 0.13700 0.01900
C 	C 	0.56590 0.78600 0.80850 -0.18500
H 	H 	0.61340 0.75280 0.78470 0.06600
H 	H 	0.51170 0.76400 0.78580 0.06600
C 	C 	0.68530 0.92660 0.81000 -0.17800
H 	H 	0.70240 0.98120 0.78520 0.06100
H 	H 	0.72430 0.88220 0.78930 0.06500
C 	C 	0.69650 0.93350 0.90540 0.08300
C 	C 	0.75030 0.87920 0.94840 -0.13700
H 	H 	0.78500 0.84000 0.91980 0.07900
C 	C 	0.75430 0.88150 0.03820 0.08600
C 	C 	0.70340 0.93730 0.08100 -0.05700
H 	H 	0.70460 0.93690 0.13830 0.02100
C 	C 	0.64870 0.99010 0.95350 -0.04500
H 	H 	0.61220 0.02900 0.92670 0.03700
C 	C 	0.80660 0.81980 0.08640 -0.20400
H 	H 	0.86740 0.83720 0.08400 0.07800
H 	H 	0.78830 0.82260 0.14350 0.07500
N 	N 	0.50720 0.80890 0.04210 -0.15300
N 	N 	0.65140 0.99320 0.04120 -0.15600
S 	S 	0.79760 0.70540 0.05030 -0.04800
S 	S 	0.57860 0.90200 0.77897 -0.08300
Ag	Ag	0.41560 0.10187 0.61812 0.50200
C 	C 	0.19420 0.17070 0.58370 -0.21200
H 	H 	0.18770 0.18100 0.64230 0.07500
H 	H 	0.18740 0.10920 0.57370 0.08200
C 	C 	0.12610 0.22100 0.53630 0.10100
C 	C 	0.12480 0.22400 0.44820 -0.15800
H 	H 	0.16590 0.19170 0.41930 0.08200
C 	C 	0.06550 0.27250 0.40440 0.09600
C 	C 	0.00660 0.31230 0.45390 -0.06100
H 	H 	0.96260 0.34430 0.42880 0.04000
C 	C 	0.06710 0.26580 0.57980 -0.05100
H 	H 	0.06950 0.26580 0.63700 0.02200
C 	C 	0.06590 0.28600 0.30850 -0.19200
H 	H 	0.11340 0.25280 0.28470 0.06800
H 	H 	0.01170 0.26400 0.28580 0.06700
C 	C 	0.18530 0.42660 0.31000 -0.18500
H 	H 	0.20240 0.48120 0.28520 0.06200
H 	H 	0.22430 0.38220 0.28930 0.06700
C 	C 	0.19650 0.43350 0.40540 0.09400
C 	C 	0.25030 0.37920 0.44840 -0.15900
H 	H 	0.28500 0.34000 0.41980 0.08400
C 	C 	0.25430 0.38150 0.53820 0.10600
C 	C 	0.20340 0.43730 0.58100 -0.06500
H 	H 	0.20460 0.43690 0.63830 0.02400
C 	C 	0.14870 0.49010 0.45350 -0.06100
H 	H 	0.11220 0.52900 0.42670 0.04100
C 	C 	0.30660 0.31980 0.58640 -0.21500
H 	H 	0.36740 0.33720 0.58400 0.08300
H 	H 	0.28830 0.32260 0.64350 0.07800
N 	N 	0.00720 0.30890 0.54210 -0.14500
N 	N 	0.15140 0.49320 0.54120 -0.14800
S 	S 	0.29760 0.20540 0.55030 -0.03800
S 	S 	0.07860 0.40200 0.27897 -0.08100
Ag	Ag	0.08440 0.39813 0.11812 0.50100
C 	C 	0.30580 0.32930 0.08370 -0.19900
H 	H 	0.31230 0.31900 0.14230 0.07100
H 	H 	0.31260 0.39080 0.07370 0.07600
C 	C 	0.37390 0.27900 0.03630 0.08000
C 	C 	0.37520 0.27600 0.94820 -0.13400
H 	H 	0.33410 0.30830 0.91930 0.07700
C 	C 	0.43450 0.22750 0.90440 0.08300
C 	C 	0.49340 0.18770 0.95390 -0.04400
H 	H 	0.53740 0.15570 0.92880 0.03700
C 	C 	0.43290 0.23420 0.07980 -0.04000
H 	H 	0.43050 0.23420 0.13700 0.01900
C 	C 	0.43410 0.21400 0.80850 -0.18500
H 	H 	0.38660 0.24720 0.78470 0.06600
H 	H 	0.48830 0.23600 0.78580 0.06600
C 	C 	0.31470 0.07340 0.81000 -0.17800
H 	H 	0.29760 0.01880 0.78520 0.06100
H 	H 	0.27570 0.11780 0.78930 0.06500
C 	C 	0.30350 0.06650 0.90540 0.08300
C 	C 	0.24970 0.12080 0.94840 -0.13700
H 	H 	0.21500 0.16000 0.91980 0.07900
C 	C 	0.24570 0.11850 0.03820 0.08600
C 	C 	0.29660 0.06270 0.08100 -0.05700
H 	H 	0.29540 0.06310 0.13830 0.02100
C 	C 	0.35130 0.00990 0.95350 -0.04500
H 	H 	0.38780 0.97100 0.92670 0.03700
C 	C 	0.19340 0.18020 0.08640 -0.20400
H 	H 	0.13260 0.16280 0.08400 0.07800
H 	H 	0.21170 0.17740 0.14350 0.07500
N 	N 	0.49280 0.19110 0.04210 -0.15300
N 	N 	0.34860 0.00680 0.04120 -0.15600
S 	S 	0.20240 0.29460 0.05030 -0.04800
S 	S 	0.42140 0.09800 0.77897 -0.08300
Ag	Ag	0.58440 0.89813 0.61812 0.50200
C 	C 	0.80580 0.82930 0.58370 -0.21200
H 	H 	0.81230 0.81900 0.64230 0.07500
H 	H 	0.81260 0.89080 0.57370 0.08200
C 	C 	0.87390 0.77900 0.53630 0.10100
C 	C 	0.87520 0.77600 0.44820 -0.15800
H 	H 	0.83410 0.80830 0.41930 0.08200
C 	C 	0.93450 0.72750 0.40440 0.09600
C 	C 	0.99340 0.68770 0.45390 -0.06100
H 	H 	0.03740 0.65570 0.42880 0.04000
C 	C 	0.93290 0.73420 0.57980 -0.05100
H 	H 	0.93050 0.73420 0.63700 0.02200
C 	C 	0.93410 0.71400 0.30850 -0.19200
H 	H 	0.88660 0.74720 0.28470 0.06800
H 	H 	0.98830 0.73600 0.28580 0.06700
C 	C 	0.81470 0.57340 0.31000 -0.18500
H 	H 	0.79760 0.51880 0.28520 0.06200
H 	H 	0.77570 0.61780 0.28930 0.06700
C 	C 	0.80350 0.56650 0.40540 0.09400
C 	C 	0.74970 0.62080 0.44840 -0.15900
H 	H 	0.71500 0.66000 0.41980 0.08400
C 	C 	0.74570 0.61850 0.53820 0.10600
C 	C 	0.79660 0.56270 0.58100 -0.06500
H 	H 	0.79540 0.56310 0.63830 0.02400
C 	C 	0.85130 0.50990 0.45350 -0.06100
H 	H 	0.88780 0.47100 0.42670 0.04100
C 	C 	0.69340 0.68020 0.58640 -0.21500
H 	H 	0.63260 0.66280 0.58400 0.08300
H 	H 	0.71170 0.67740 0.64350 0.07800
N 	N 	0.99280 0.69110 0.54210 -0.14500
N 	N 	0.84860 0.50680 0.54120 -0.14800
S 	S 	0.70240 0.79460 0.55030 -0.03800
S 	S 	0.92140 0.59800 0.27897 -0.08100
