data_crystal

_cell_length_a 7.33100
_cell_length_b 11.90100
_cell_length_c 15.83800
_cell_angle_alpha 103.50000
_cell_angle_beta  100.46000
_cell_angle_gamma 104.75000

_symmetry_space_group_name_	'P 1'
_symmetry_space_group_name_H-M	'P 1'

loop_
_symmetry_equiv_pos_as_xyz
  x,y,z

loop_
_atom_site_label
_atom_site_type_symbol
_atom_site_fract_x
_atom_site_fract_y
_atom_site_fract_z
_atom_site_charge
Co	Co	0.02743 0.95281 0.33490 1.15200
Co	Co	0.97257 0.04719 0.66510 1.08000
Co	Co	0.50000 0.00000 0.50000 1.13100
Co	Co	-0.00000 0.00000 -0.00000 0.95400
H 	H 	0.79280 0.25640 0.42290 0.07200
H 	H 	0.03870 0.58380 0.35250 0.04600
H 	H 	0.58950 0.30950 0.14370 0.00400
H 	H 	0.69510 0.61700 0.38650 0.05800
H 	H 	0.91450 0.39600 0.22300 0.07700
H 	H 	0.48160 0.44250 0.39580 0.08000
H 	H 	0.20720 0.74360 0.57710 0.05500
H 	H 	0.96130 0.41620 0.64750 0.06700
H 	H 	0.41050 0.69050 0.85630 0.05200
H 	H 	0.30490 0.38300 0.61350 0.04100
H 	H 	0.08550 0.60400 0.77700 0.04100
H 	H 	0.51840 0.55750 0.60420 0.07600
C 	C 	0.88980 0.33580 0.33260 0.04500
C 	C 	0.23540 0.49420 0.37440 0.01700
C 	C 	0.75200 0.26660 0.36690 -0.07700
C 	C 	0.17080 0.59150 0.36120 -0.05300
C 	C 	0.55550 0.21250 0.31950 -0.04900
C 	C 	0.30130 0.70020 0.36080 -0.03300
C 	C 	0.49300 0.22980 0.23500 -0.07700
C 	C 	0.50130 0.71080 0.36990 -0.06100
C 	C 	0.63030 0.29880 0.19960 0.00400
C 	C 	0.56460 0.61150 0.38150 0.00600
C 	C 	0.82590 0.35110 0.24730 -0.10000
C 	C 	0.43590 0.50550 0.38570 -0.06400
C 	C 	0.41960 0.13280 0.35860 0.34600
C 	C 	0.21470 0.80000 0.34770 0.28500
C 	C 	0.28520 0.17890 0.17830 0.32400
C 	C 	0.65010 0.82620 0.36990 0.31900
C 	C 	0.09990 0.37910 0.38190 0.07700
C 	C 	0.11020 0.66420 0.66740 -0.05700
C 	C 	0.76460 0.50580 0.62560 0.00700
C 	C 	0.24800 0.73340 0.63310 -0.01400
C 	C 	0.82920 0.40850 0.63880 -0.03700
C 	C 	0.44450 0.78750 0.68050 -0.05400
C 	C 	0.69870 0.29980 0.63920 -0.03400
C 	C 	0.50700 0.77020 0.76500 -0.02000
C 	C 	0.49870 0.28920 0.63010 -0.07900
C 	C 	0.36970 0.70120 0.80040 -0.03900
C 	C 	0.43540 0.38850 0.61850 0.01500
C 	C 	0.17410 0.64890 0.75270 -0.02800
C 	C 	0.56410 0.49450 0.61430 -0.05900
C 	C 	0.58040 0.86720 0.64140 0.35600
C 	C 	0.78530 0.20000 0.65230 0.29600
C 	C 	0.71480 0.82110 0.82170 0.29900
C 	C 	0.34990 0.17380 0.63010 0.33500
C 	C 	0.90010 0.62090 0.61810 0.16400
O 	O 	0.48310 0.13420 0.43900 -0.44800
O 	O 	0.12190 0.79360 0.27060 -0.35100
O 	O 	0.25500 0.06780 0.30620 -0.50800
O 	O 	0.22020 0.88570 0.41670 -0.44400
O 	O 	0.24870 0.08450 0.11020 -0.51700
O 	O 	0.62370 0.92870 0.39870 -0.35700
O 	O 	0.16770 0.23530 0.19590 -0.32800
O 	O 	0.79190 0.81230 0.33770 -0.38400
O 	O 	0.16500 0.32240 0.42950 -0.22200
O 	O 	0.51690 0.86580 0.56100 -0.37000
O 	O 	0.87810 0.20640 0.72940 -0.37100
O 	O 	0.74500 0.93220 0.69380 -0.36600
O 	O 	0.77980 0.11430 0.58330 -0.52700
O 	O 	0.75130 0.91550 0.88980 -0.35100
O 	O 	0.37630 0.07130 0.60130 -0.49500
O 	O 	0.83230 0.76470 0.80410 -0.25000
O 	O 	0.20810 0.18770 0.66230 -0.45100
O 	O 	0.83500 0.67760 0.57050 -0.20600
