data_crystal

_cell_length_a 21.88910
_cell_length_b 9.10700
_cell_length_c 32.03800
_cell_angle_alpha 90.00000
_cell_angle_beta  124.12100
_cell_angle_gamma 90.00000

_symmetry_space_group_name_	'P 1'
_symmetry_space_group_name_H-M	'P 1'

loop_
_symmetry_equiv_pos_as_xyz
  x,y,z

loop_
_atom_site_label
_atom_site_type_symbol
_atom_site_fract_x
_atom_site_fract_y
_atom_site_fract_z
_atom_site_charge
C 	C 	0.30740 0.72540 0.34260 0.13000
C 	C 	0.57130 0.90770 0.41640 -0.03800
O 	O 	0.89570 0.91830 0.45130 -0.53000
Tb	Tb	0.98233 0.79816 0.44478 1.69700
O 	O 	0.01300 0.05030 0.08260 -0.39300
C 	C 	0.29570 0.20940 0.39620 0.00100
H 	H 	0.30670 0.30990 0.39560 0.03000
O 	O 	0.05060 0.56580 0.46250 -0.42600
C 	C 	0.20170 0.28410 0.41490 0.08100
O 	O 	0.09570 0.89460 0.13950 -0.40900
C 	C 	0.07500 0.28400 0.15530 0.02700
H 	H 	0.02950 0.30490 0.12440 0.02500
N 	N 	0.35020 0.84050 0.37530 -0.16700
O 	O 	0.90380 0.12200 0.49310 -0.50900
O 	O 	0.04730 0.71820 0.40710 -0.39400
C 	C 	0.06760 0.02290 0.12670 0.31600
C 	C 	0.79190 0.98640 0.45340 -0.19000
C 	C 	0.64710 0.93040 0.42710 0.08400
C 	C 	0.11860 0.49120 0.42790 -0.11500
C 	C 	0.18590 0.26580 0.44980 -0.13300
H 	H 	0.20410 0.18100 0.47070 0.08100
C 	C 	0.31720 0.95330 0.38770 0.11600
C 	C 	0.10290 0.14440 0.16530 -0.10000
C 	C 	0.48150 0.89840 0.43940 -0.11800
H 	H 	0.47160 0.90740 0.46460 0.07100
C 	C 	0.22310 0.49210 0.27490 -0.05400
C 	C 	0.26620 0.91500 0.39890 -0.12300
H 	H 	0.25650 0.81440 0.40070 0.07600
C 	C 	0.06970 0.60010 0.43180 0.30400
C 	C 	0.33270 0.10040 0.38740 -0.12600
H 	H 	0.36880 0.12820 0.38120 0.07400
C 	C 	0.20220 0.23220 0.24900 -0.12100
H 	H 	0.24460 0.20850 0.28130 0.07100
C 	C 	0.69220 0.04860 0.46050 -0.14200
H 	H 	0.67290 0.10980 0.47450 0.07800
C 	C 	0.42450 0.85940 0.38960 0.11200
C 	C 	0.17840 0.37320 0.23850 0.07400
C 	C 	0.22890 0.02500 0.40750 -0.00100
H 	H 	0.19350 0.99810 0.41450 0.03500
C 	C 	0.11400 0.39740 0.19110 -0.11600
H 	H 	0.09520 0.49470 0.18230 0.06000
C 	C 	0.29680 0.47730 0.31290 0.01700
H 	H 	0.32020 0.38560 0.31690 0.02000
C 	C 	0.24380 0.17220 0.40580 -0.03900
C 	C 	0.86840 0.01060 0.46580 0.48100
C 	C 	0.14380 0.36710 0.45630 0.05600
H 	H 	0.13280 0.34900 0.48060 0.01100
C 	C 	0.67720 0.84150 0.40840 -0.14900
H 	H 	0.64980 0.76070 0.38730 0.07700
C 	C 	0.74860 0.87030 0.42050 0.08200
H 	H 	0.76810 0.81060 0.40630 -0.00600
C 	C 	0.13670 0.51350 0.39450 0.04500
H 	H 	0.12050 0.60180 0.37550 0.02800
C 	C 	0.33750 0.58940 0.34510 -0.14100
H 	H 	0.38840 0.57330 0.37010 0.08000
C 	C 	0.76430 0.07560 0.47280 0.08400
H 	H 	0.79280 0.15470 0.49440 0.01100
C 	C 	0.19290 0.62980 0.27300 0.01100
H 	H 	0.14190 0.64470 0.24810 0.02900
C 	C 	0.51360 0.86500 0.36640 -0.00500
H 	H 	0.52390 0.85210 0.34150 0.03000
C 	C 	0.17790 0.41420 0.38600 -0.12500
H 	H 	0.18920 0.43390 0.36200 0.07600
C 	C 	0.23290 0.74660 0.30540 -0.13600
H 	H 	0.20980 0.83810 0.30220 0.08200
C 	C 	0.16530 0.11980 0.21290 0.03500
H 	H 	0.18420 0.02280 0.22170 0.03100
C 	C 	0.44060 0.84180 0.35380 -0.12100
H 	H 	0.40260 0.81400 0.32040 0.07400
C 	C 	0.55350 0.92400 0.45150 -0.00400
H 	H 	0.59100 0.95340 0.48490 0.03300
C 	C 	0.69260 0.72540 0.15740 0.12900
C 	C 	0.42870 0.90770 0.08360 -0.03900
O 	O 	0.10430 0.91830 0.04870 -0.53100
Tb	Tb	0.01767 0.79816 0.05522 1.69300
O 	O 	0.98700 0.05030 0.41740 -0.39400
C 	C 	0.70430 0.20940 0.10380 0.00000
H 	H 	0.69330 0.30990 0.10440 0.03000
O 	O 	0.94940 0.56580 0.03750 -0.42500
C 	C 	0.79830 0.28410 0.08510 0.08100
O 	O 	0.90430 0.89460 0.36050 -0.40900
C 	C 	0.92500 0.28400 0.34470 0.02700
H 	H 	0.97050 0.30490 0.37560 0.02600
N 	N 	0.64980 0.84050 0.12470 -0.16700
O 	O 	0.09620 0.12200 0.00690 -0.50900
O 	O 	0.95270 0.71820 0.09290 -0.39300
C 	C 	0.93240 0.02290 0.37330 0.31600
C 	C 	0.20810 0.98640 0.04660 -0.19000
C 	C 	0.35290 0.93040 0.07290 0.08300
C 	C 	0.88140 0.49120 0.07210 -0.11500
C 	C 	0.81410 0.26580 0.05020 -0.13300
H 	H 	0.79590 0.18100 0.02930 0.08100
C 	C 	0.68280 0.95330 0.11230 0.11600
C 	C 	0.89710 0.14440 0.33470 -0.10000
C 	C 	0.51850 0.89840 0.06060 -0.11800
H 	H 	0.52840 0.90740 0.03540 0.07100
C 	C 	0.77690 0.49210 0.22510 -0.05300
C 	C 	0.73380 0.91500 0.10110 -0.12300
H 	H 	0.74350 0.81440 0.09930 0.07600
C 	C 	0.93030 0.60010 0.06820 0.30400
C 	C 	0.66730 0.10040 0.11260 -0.12600
H 	H 	0.63120 0.12820 0.11880 0.07300
C 	C 	0.79780 0.23220 0.25100 -0.12000
H 	H 	0.75540 0.20850 0.21870 0.07100
C 	C 	0.30780 0.04860 0.03950 -0.14200
H 	H 	0.32710 0.10980 0.02550 0.07800
C 	C 	0.57550 0.85940 0.11040 0.11200
C 	C 	0.82160 0.37320 0.26150 0.07400
C 	C 	0.77110 0.02500 0.09250 -0.00100
H 	H 	0.80650 0.99810 0.08550 0.03500
C 	C 	0.88600 0.39740 0.30890 -0.11600
H 	H 	0.90480 0.49470 0.31770 0.06000
C 	C 	0.70320 0.47730 0.18710 0.01700
H 	H 	0.67980 0.38560 0.18310 0.02000
C 	C 	0.75620 0.17220 0.09420 -0.03900
C 	C 	0.13160 0.01060 0.03420 0.48100
C 	C 	0.85620 0.36710 0.04370 0.05600
H 	H 	0.86720 0.34900 0.01940 0.01100
C 	C 	0.32280 0.84150 0.09160 -0.14900
H 	H 	0.35020 0.76070 0.11270 0.07700
C 	C 	0.25140 0.87030 0.07950 0.08200
H 	H 	0.23190 0.81060 0.09370 -0.00600
C 	C 	0.86330 0.51350 0.10550 0.04500
H 	H 	0.87950 0.60180 0.12450 0.02800
C 	C 	0.66250 0.58940 0.15490 -0.14100
H 	H 	0.61160 0.57330 0.12990 0.08000
C 	C 	0.23570 0.07560 0.02720 0.08400
H 	H 	0.20720 0.15470 0.00560 0.01000
C 	C 	0.80710 0.62980 0.22700 0.01100
H 	H 	0.85810 0.64470 0.25190 0.02900
C 	C 	0.48640 0.86500 0.13360 -0.00500
H 	H 	0.47610 0.85210 0.15850 0.03000
C 	C 	0.82210 0.41420 0.11400 -0.12500
H 	H 	0.81080 0.43390 0.13800 0.07600
C 	C 	0.76710 0.74660 0.19460 -0.13500
H 	H 	0.79020 0.83810 0.19780 0.08200
C 	C 	0.83470 0.11980 0.28710 0.03500
H 	H 	0.81580 0.02280 0.27830 0.03100
C 	C 	0.55940 0.84180 0.14620 -0.12100
H 	H 	0.59740 0.81400 0.17960 0.07400
C 	C 	0.44650 0.92400 0.04850 -0.00400
H 	H 	0.40900 0.95340 0.01510 0.03200
C 	C 	0.69260 0.27460 0.65740 0.12900
C 	C 	0.42870 0.09230 0.58360 -0.03900
O 	O 	0.10430 0.08170 0.54870 -0.53100
Tb	Tb	0.01767 0.20184 0.55522 1.69600
O 	O 	0.98700 0.94970 0.91740 -0.39400
C 	C 	0.70430 0.79060 0.60380 0.00000
H 	H 	0.69330 0.69010 0.60440 0.03000
O 	O 	0.94940 0.43420 0.53750 -0.42600
C 	C 	0.79830 0.71590 0.58510 0.08100
O 	O 	0.90430 0.10540 0.86050 -0.40900
C 	C 	0.92500 0.71600 0.84470 0.02700
H 	H 	0.97050 0.69510 0.87560 0.02500
N 	N 	0.64980 0.15950 0.62470 -0.16700
O 	O 	0.09620 0.87800 0.50690 -0.50900
O 	O 	0.95270 0.28180 0.59290 -0.39400
C 	C 	0.93240 0.97710 0.87330 0.31600
C 	C 	0.20810 0.01360 0.54660 -0.19000
C 	C 	0.35290 0.06960 0.57290 0.08400
C 	C 	0.88140 0.50880 0.57210 -0.11500
C 	C 	0.81410 0.73420 0.55020 -0.13300
H 	H 	0.79590 0.81900 0.52930 0.08100
C 	C 	0.68280 0.04670 0.61230 0.11600
C 	C 	0.89710 0.85560 0.83470 -0.10000
C 	C 	0.51850 0.10160 0.56060 -0.11800
H 	H 	0.52840 0.09260 0.53540 0.07100
C 	C 	0.77690 0.50790 0.72510 -0.05400
C 	C 	0.73380 0.08500 0.60110 -0.12300
H 	H 	0.74350 0.18560 0.59930 0.07600
C 	C 	0.93030 0.39990 0.56820 0.30400
C 	C 	0.66730 0.89960 0.61260 -0.12600
H 	H 	0.63120 0.87180 0.61880 0.07400
C 	C 	0.79780 0.76780 0.75100 -0.12100
H 	H 	0.75540 0.79150 0.71870 0.07100
C 	C 	0.30780 0.95140 0.53950 -0.14200
H 	H 	0.32710 0.89020 0.52550 0.07800
C 	C 	0.57550 0.14060 0.61040 0.11200
C 	C 	0.82160 0.62680 0.76150 0.07400
C 	C 	0.77110 0.97500 0.59250 -0.00100
H 	H 	0.80650 0.00190 0.58550 0.03500
C 	C 	0.88600 0.60260 0.80890 -0.11600
H 	H 	0.90480 0.50530 0.81770 0.06000
C 	C 	0.70320 0.52270 0.68710 0.01700
H 	H 	0.67980 0.61440 0.68310 0.02000
C 	C 	0.75620 0.82780 0.59420 -0.03900
C 	C 	0.13160 0.98940 0.53420 0.48100
C 	C 	0.85620 0.63290 0.54370 0.05600
H 	H 	0.86720 0.65100 0.51940 0.01100
C 	C 	0.32280 0.15850 0.59160 -0.14900
H 	H 	0.35020 0.23930 0.61270 0.07700
C 	C 	0.25140 0.12970 0.57950 0.08200
H 	H 	0.23190 0.18940 0.59370 -0.00600
C 	C 	0.86330 0.48650 0.60550 0.04500
H 	H 	0.87950 0.39820 0.62450 0.02800
C 	C 	0.66250 0.41060 0.65490 -0.14100
H 	H 	0.61160 0.42670 0.62990 0.08000
C 	C 	0.23570 0.92440 0.52720 0.08400
H 	H 	0.20720 0.84530 0.50560 0.01100
C 	C 	0.80710 0.37020 0.72700 0.01100
H 	H 	0.85810 0.35530 0.75190 0.02900
C 	C 	0.48640 0.13500 0.63360 -0.00500
H 	H 	0.47610 0.14790 0.65850 0.03000
C 	C 	0.82210 0.58580 0.61400 -0.12500
H 	H 	0.81080 0.56610 0.63800 0.07600
C 	C 	0.76710 0.25340 0.69460 -0.13600
H 	H 	0.79020 0.16190 0.69780 0.08200
C 	C 	0.83470 0.88020 0.78710 0.03500
H 	H 	0.81580 0.97720 0.77830 0.03100
C 	C 	0.55940 0.15820 0.64620 -0.12100
H 	H 	0.59740 0.18600 0.67960 0.07400
C 	C 	0.44650 0.07600 0.54850 -0.00400
H 	H 	0.40900 0.04660 0.51510 0.03300
C 	C 	0.30740 0.27460 0.84260 0.12900
C 	C 	0.57130 0.09230 0.91640 -0.03900
O 	O 	0.89570 0.08170 0.95130 -0.53100
Tb	Tb	0.98233 0.20184 0.94478 1.69300
O 	O 	0.01300 0.94970 0.58260 -0.39400
C 	C 	0.29570 0.79060 0.89620 0.00000
H 	H 	0.30670 0.69010 0.89560 0.03000
O 	O 	0.05060 0.43420 0.96250 -0.42500
C 	C 	0.20170 0.71590 0.91490 0.08100
O 	O 	0.09570 0.10540 0.63950 -0.40900
C 	C 	0.07500 0.71600 0.65530 0.02700
H 	H 	0.02950 0.69510 0.62440 0.02600
N 	N 	0.35020 0.15950 0.87530 -0.16700
O 	O 	0.90380 0.87800 0.99310 -0.50900
O 	O 	0.04730 0.28180 0.90710 -0.39300
C 	C 	0.06760 0.97710 0.62670 0.31600
C 	C 	0.79190 0.01360 0.95340 -0.19000
C 	C 	0.64710 0.06960 0.92710 0.08300
C 	C 	0.11860 0.50880 0.92790 -0.11500
C 	C 	0.18590 0.73420 0.94980 -0.13300
H 	H 	0.20410 0.81900 0.97070 0.08100
C 	C 	0.31720 0.04670 0.88770 0.11600
C 	C 	0.10290 0.85560 0.66530 -0.10000
C 	C 	0.48150 0.10160 0.93940 -0.11800
H 	H 	0.47160 0.09260 0.96460 0.07100
C 	C 	0.22310 0.50790 0.77490 -0.05300
C 	C 	0.26620 0.08500 0.89890 -0.12300
H 	H 	0.25650 0.18560 0.90070 0.07600
C 	C 	0.06970 0.39990 0.93180 0.30400
C 	C 	0.33270 0.89960 0.88740 -0.12600
H 	H 	0.36880 0.87180 0.88120 0.07300
C 	C 	0.20220 0.76780 0.74900 -0.12000
H 	H 	0.24460 0.79150 0.78130 0.07100
C 	C 	0.69220 0.95140 0.96050 -0.14200
H 	H 	0.67290 0.89020 0.97450 0.07800
C 	C 	0.42450 0.14060 0.88960 0.11200
C 	C 	0.17840 0.62680 0.73850 0.07400
C 	C 	0.22890 0.97500 0.90750 -0.00100
H 	H 	0.19350 0.00190 0.91450 0.03500
C 	C 	0.11400 0.60260 0.69110 -0.11600
H 	H 	0.09520 0.50530 0.68230 0.06000
C 	C 	0.29680 0.52270 0.81290 0.01700
H 	H 	0.32020 0.61440 0.81690 0.02000
C 	C 	0.24380 0.82780 0.90580 -0.03900
C 	C 	0.86840 0.98940 0.96580 0.48100
C 	C 	0.14380 0.63290 0.95630 0.05600
H 	H 	0.13280 0.65100 0.98060 0.01100
C 	C 	0.67720 0.15850 0.90840 -0.14900
H 	H 	0.64980 0.23930 0.88730 0.07700
C 	C 	0.74860 0.12970 0.92050 0.08200
H 	H 	0.76810 0.18940 0.90630 -0.00600
C 	C 	0.13670 0.48650 0.89450 0.04500
H 	H 	0.12050 0.39820 0.87550 0.02800
C 	C 	0.33750 0.41060 0.84510 -0.14100
H 	H 	0.38840 0.42670 0.87010 0.08000
C 	C 	0.76430 0.92440 0.97280 0.08400
H 	H 	0.79280 0.84530 0.99440 0.01000
C 	C 	0.19290 0.37020 0.77300 0.01100
H 	H 	0.14190 0.35530 0.74810 0.02900
C 	C 	0.51360 0.13500 0.86640 -0.00500
H 	H 	0.52390 0.14790 0.84150 0.03000
C 	C 	0.17790 0.58580 0.88600 -0.12500
H 	H 	0.18920 0.56610 0.86200 0.07600
C 	C 	0.23290 0.25340 0.80540 -0.13500
H 	H 	0.20980 0.16190 0.80220 0.08200
C 	C 	0.16530 0.88020 0.71290 0.03500
H 	H 	0.18420 0.97720 0.72170 0.03100
C 	C 	0.44060 0.15820 0.85380 -0.12100
H 	H 	0.40260 0.18600 0.82040 0.07400
C 	C 	0.55350 0.07600 0.95150 -0.00400
H 	H 	0.59100 0.04660 0.98490 0.03200
