data_crystal

_cell_length_a 7.80100
_cell_length_b 20.35390
_cell_length_c 20.35390
_cell_angle_alpha 90.00000
_cell_angle_beta  90.00000
_cell_angle_gamma 90.00000

_symmetry_space_group_name_	'P 1'
_symmetry_space_group_name_H-M	'P 1'

loop_
_symmetry_equiv_pos_as_xyz
  x,y,z

loop_
_atom_site_label
_atom_site_type_symbol
_atom_site_fract_x
_atom_site_fract_y
_atom_site_fract_z
_atom_site_charge
U 	U 	0.79162 0.59742 0.75000 0.03100
U 	U 	0.79162 0.90258 0.75000 0.03100
U 	U 	0.29162 0.75000 0.59742 0.03100
U 	U 	0.29162 0.75000 0.90258 0.03100
U 	U 	0.20838 0.40258 0.25000 0.03000
U 	U 	0.20838 0.09742 0.25000 0.03000
U 	U 	0.70838 0.25000 0.09742 0.03100
U 	U 	0.70838 0.25000 0.40258 0.03100
P 	P 	0.43150 0.57439 0.86427 0.39300
P 	P 	0.43150 0.92561 0.63573 0.39300
P 	P 	0.93150 0.63573 0.57439 0.39200
P 	P 	0.93150 0.86427 0.92561 0.39100
P 	P 	0.56850 0.42561 0.36427 0.39300
P 	P 	0.56850 0.07439 0.13573 0.39300
P 	P 	0.06850 0.36427 0.07439 0.39100
P 	P 	0.06850 0.13573 0.42561 0.39200
P 	P 	0.56850 0.42561 0.13573 0.39300
P 	P 	0.56850 0.07439 0.36427 0.39300
P 	P 	0.06850 0.36427 0.42561 0.39200
P 	P 	0.06850 0.13573 0.07439 0.39100
P 	P 	0.43150 0.57439 0.63573 0.39300
P 	P 	0.43150 0.92561 0.86427 0.39300
P 	P 	0.93150 0.63573 0.92561 0.39100
P 	P 	0.93150 0.86427 0.57439 0.39200
H 	H 	0.41900 0.60900 0.99850 0.09400
H 	H 	0.41900 0.89100 0.50150 0.09400
H 	H 	0.91900 0.50150 0.60900 0.09400
H 	H 	0.91900 0.99850 0.89100 0.09400
H 	H 	0.58100 0.39100 0.49850 0.09400
H 	H 	0.58100 0.10900 0.00150 0.09400
H 	H 	0.08100 0.49850 0.10900 0.09400
H 	H 	0.08100 0.00150 0.39100 0.09400
H 	H 	0.58100 0.39100 0.00150 0.09400
H 	H 	0.58100 0.10900 0.49850 0.09400
H 	H 	0.08100 0.49850 0.39100 0.09400
H 	H 	0.08100 0.00150 0.10900 0.09400
H 	H 	0.41900 0.60900 0.50150 0.09400
H 	H 	0.41900 0.89100 0.99850 0.09400
H 	H 	0.91900 0.50150 0.89100 0.09400
H 	H 	0.91900 0.99850 0.60900 0.09400
C 	C 	0.46710 0.53210 0.94070 -0.03400
C 	C 	0.51050 0.46610 0.94200 0.05700
C 	C 	0.45380 0.56430 0.99850 -0.05700
C 	C 	0.46710 0.96790 0.55930 -0.03400
C 	C 	0.51050 0.03390 0.55800 0.05700
C 	C 	0.45380 0.93570 0.50150 -0.05700
C 	C 	0.96710 0.55930 0.53210 -0.03500
C 	C 	0.01050 0.55800 0.46610 0.05700
C 	C 	0.95380 0.50150 0.56430 -0.05700
C 	C 	0.96710 0.94070 0.96790 -0.03500
C 	C 	0.01050 0.94200 0.03390 0.05700
C 	C 	0.95380 0.99850 0.93570 -0.05700
C 	C 	0.53290 0.46790 0.44070 -0.03400
C 	C 	0.48950 0.53390 0.44200 0.05700
C 	C 	0.54620 0.43570 0.49850 -0.05700
C 	C 	0.53290 0.03210 0.05930 -0.03400
C 	C 	0.48950 0.96610 0.05800 0.05500
C 	C 	0.54620 0.06430 0.00150 -0.05600
C 	C 	0.03290 0.44070 0.03210 -0.03500
C 	C 	0.98950 0.44200 0.96610 0.05700
C 	C 	0.04620 0.49850 0.06430 -0.05700
C 	C 	0.03290 0.05930 0.46790 -0.03500
C 	C 	0.98950 0.05800 0.53390 0.05800
C 	C 	0.04620 0.00150 0.43570 -0.05800
C 	C 	0.53290 0.46790 0.05930 -0.03400
C 	C 	0.48950 0.53390 0.05800 0.05700
C 	C 	0.54620 0.43570 0.00150 -0.05700
C 	C 	0.53290 0.03210 0.44070 -0.03400
C 	C 	0.48950 0.96610 0.44200 0.05700
C 	C 	0.54620 0.06430 0.49850 -0.05700
C 	C 	0.03290 0.44070 0.46790 -0.03500
C 	C 	0.98950 0.44200 0.53390 0.05700
C 	C 	0.04620 0.49850 0.43570 -0.05700
C 	C 	0.03290 0.05930 0.03210 -0.03500
C 	C 	0.98950 0.05800 0.96610 0.05700
C 	C 	0.04620 0.00150 0.06430 -0.05700
C 	C 	0.46710 0.53210 0.55930 -0.03400
C 	C 	0.51050 0.46610 0.55800 0.05700
C 	C 	0.45380 0.56430 0.50150 -0.05700
C 	C 	0.46710 0.96790 0.94070 -0.03400
C 	C 	0.51050 0.03390 0.94200 0.05500
C 	C 	0.45380 0.93570 0.99850 -0.05600
C 	C 	0.96710 0.55930 0.96790 -0.03500
C 	C 	0.01050 0.55800 0.03390 0.05700
C 	C 	0.95380 0.50150 0.93570 -0.05700
C 	C 	0.96710 0.94070 0.53210 -0.03500
C 	C 	0.01050 0.94200 0.46610 0.05800
C 	C 	0.95380 0.99850 0.56430 -0.05800
O 	O 	0.58150 0.56060 0.82010 -0.15800
O 	O 	0.39840 0.64510 0.87830 -0.15300
O 	O 	0.26630 0.54340 0.83360 -0.15700
O 	O 	0.58150 0.93940 0.67990 -0.15700
O 	O 	0.39840 0.85490 0.62170 -0.15300
O 	O 	0.26630 0.95660 0.66640 -0.15700
O 	O 	0.08150 0.67990 0.56060 -0.15700
O 	O 	0.89840 0.62170 0.64510 -0.15300
O 	O 	0.76630 0.66640 0.54340 -0.15700
O 	O 	0.08150 0.82010 0.93940 -0.15600
O 	O 	0.89840 0.87830 0.85490 -0.15400
O 	O 	0.76630 0.83360 0.95660 -0.15700
O 	O 	0.41850 0.43940 0.32010 -0.15800
O 	O 	0.60160 0.35490 0.37830 -0.15300
O 	O 	0.73370 0.45660 0.33360 -0.15700
O 	O 	0.41850 0.06060 0.17990 -0.15700
O 	O 	0.60160 0.14510 0.12170 -0.15300
O 	O 	0.73370 0.04340 0.16640 -0.15600
O 	O 	0.91850 0.32010 0.06060 -0.15600
O 	O 	0.10160 0.37830 0.14510 -0.15300
O 	O 	0.23370 0.33360 0.04340 -0.15700
O 	O 	0.91850 0.17990 0.43940 -0.15600
O 	O 	0.10160 0.12170 0.35490 -0.15400
O 	O 	0.23370 0.16640 0.45660 -0.15700
O 	O 	0.41850 0.43940 0.17990 -0.15800
O 	O 	0.60160 0.35490 0.12170 -0.15300
O 	O 	0.73370 0.45660 0.16640 -0.15700
O 	O 	0.41850 0.06060 0.32010 -0.15700
O 	O 	0.60160 0.14510 0.37830 -0.15300
O 	O 	0.73370 0.04340 0.33360 -0.15700
O 	O 	0.91850 0.32010 0.43940 -0.15700
O 	O 	0.10160 0.37830 0.35490 -0.15300
O 	O 	0.23370 0.33360 0.45660 -0.15700
O 	O 	0.91850 0.17990 0.06060 -0.15600
O 	O 	0.10160 0.12170 0.14510 -0.15400
O 	O 	0.23370 0.16640 0.04340 -0.15700
O 	O 	0.58150 0.56060 0.67990 -0.15800
O 	O 	0.39840 0.64510 0.62170 -0.15300
O 	O 	0.26630 0.54340 0.66640 -0.15700
O 	O 	0.58150 0.93940 0.82010 -0.15700
O 	O 	0.39840 0.85490 0.87830 -0.15300
O 	O 	0.26630 0.95660 0.83360 -0.15600
O 	O 	0.08150 0.67990 0.93940 -0.15600
O 	O 	0.89840 0.62170 0.85490 -0.15300
O 	O 	0.76630 0.66640 0.95660 -0.15700
O 	O 	0.08150 0.82010 0.56060 -0.15600
O 	O 	0.89840 0.87830 0.64510 -0.15400
O 	O 	0.76630 0.83360 0.54340 -0.15700
