data_crystal

_cell_length_a 22.73740
_cell_length_b 22.73740
_cell_length_c 17.82380
_cell_angle_alpha 90.00000
_cell_angle_beta  90.00000
_cell_angle_gamma 120.00000

_symmetry_space_group_name_	'P 1'
_symmetry_space_group_name_H-M	'P 1'

loop_
_symmetry_equiv_pos_as_xyz
  x,y,z

loop_
_atom_site_label
_atom_site_type_symbol
_atom_site_fract_x
_atom_site_fract_y
_atom_site_fract_z
_atom_site_charge
O 	O 	0.05280 0.24080 0.09390 -0.44100
C 	C 	0.94170 0.27000 0.20320 0.07100
H 	H 	0.90300 0.24600 0.17110 0.01000
C 	C 	0.94180 0.31220 0.25970 -0.12300
H 	H 	0.90300 0.31750 0.26730 0.06500
C 	C 	0.05650 0.34260 0.29210 -0.05700
H 	H 	0.09540 0.36680 0.32390 0.04600
C 	C 	0.05430 0.29810 0.23750 0.05000
H 	H 	0.09300 0.29210 0.23140 0.01900
H 	H 	0.16520 0.34200 0.96020 0.15800
H 	H 	0.02010 0.10150 0.24480 0.19900
O 	O 	0.04230 0.20140 0.14110 -0.40400
O 	O 	0.75920 0.81200 0.09390 -0.44000
C 	C 	0.73000 0.67170 0.20320 0.07200
H 	H 	0.75400 0.65700 0.17110 0.00900
C 	C 	0.68780 0.62960 0.25970 -0.12200
H 	H 	0.68250 0.58550 0.26730 0.06500
C 	C 	0.65740 0.71390 0.29210 -0.05800
H 	H 	0.63320 0.72860 0.32390 0.04500
C 	C 	0.70190 0.75620 0.23750 0.04800
H 	H 	0.70790 0.80090 0.23140 0.01800
H 	H 	0.65800 0.82320 0.96020 0.15900
H 	H 	0.89850 0.91860 0.24480 0.19100
O 	O 	0.79860 0.84090 0.14110 -0.40300
O 	O 	0.18800 0.94720 0.09390 -0.44500
C 	C 	0.32830 0.05830 0.20320 0.07200
H 	H 	0.34300 0.09700 0.17110 0.00900
C 	C 	0.37040 0.05820 0.25970 -0.12300
H 	H 	0.41450 0.09700 0.26730 0.06500
C 	C 	0.28610 0.94350 0.29210 -0.06200
H 	H 	0.27140 0.90460 0.32390 0.04500
C 	C 	0.24380 0.94570 0.23750 0.04600
H 	H 	0.19910 0.90700 0.23140 0.01900
H 	H 	0.17680 0.83480 0.96020 0.15700
H 	H 	0.08140 0.97990 0.24480 0.18500
O 	O 	0.15910 0.95770 0.14110 -0.40800
O 	O 	0.94720 0.75920 0.09390 -0.44300
C 	C 	0.05830 0.73000 0.20320 0.07200
H 	H 	0.09700 0.75400 0.17110 0.00900
C 	C 	0.05820 0.68780 0.25970 -0.12200
H 	H 	0.09700 0.68250 0.26730 0.06500
C 	C 	0.94350 0.65740 0.29210 -0.06100
H 	H 	0.90460 0.63320 0.32390 0.04500
C 	C 	0.94570 0.70190 0.23750 0.04600
H 	H 	0.90700 0.70790 0.23140 0.01900
H 	H 	0.83480 0.65800 0.96020 0.15800
H 	H 	0.97990 0.89850 0.24480 0.18800
O 	O 	0.95770 0.79860 0.14110 -0.40700
O 	O 	0.24080 0.18800 0.09390 -0.44100
C 	C 	0.27000 0.32830 0.20320 0.07200
H 	H 	0.24600 0.34300 0.17110 0.00900
C 	C 	0.31220 0.37040 0.25970 -0.12200
H 	H 	0.31750 0.41450 0.26730 0.06500
C 	C 	0.34260 0.28610 0.29210 -0.05800
H 	H 	0.36680 0.27140 0.32390 0.04500
C 	C 	0.29810 0.24380 0.23750 0.04900
H 	H 	0.29210 0.19910 0.23140 0.01800
H 	H 	0.34200 0.17680 0.96020 0.15600
H 	H 	0.10150 0.08140 0.24480 0.19200
O 	O 	0.20140 0.15910 0.14110 -0.40500
O 	O 	0.81200 0.05280 0.09390 -0.44100
C 	C 	0.67170 0.94170 0.20320 0.07000
H 	H 	0.65700 0.90300 0.17110 0.00900
C 	C 	0.62960 0.94180 0.25970 -0.12400
H 	H 	0.58550 0.90300 0.26730 0.06400
C 	C 	0.71390 0.05650 0.29210 -0.05900
H 	H 	0.72860 0.09540 0.32390 0.04500
C 	C 	0.75620 0.05430 0.23750 0.04800
H 	H 	0.80090 0.09300 0.23140 0.01800
H 	H 	0.82320 0.16520 0.96020 0.15800
H 	H 	0.91860 0.02010 0.24480 0.19400
O 	O 	0.84090 0.04230 0.14110 -0.40300
O 	O 	0.24080 0.05280 0.90610 -0.44300
C 	C 	0.27000 0.94170 0.79680 0.07100
H 	H 	0.24600 0.90300 0.82890 0.00800
C 	C 	0.31220 0.94180 0.74030 -0.12300
H 	H 	0.31750 0.90300 0.73270 0.06400
C 	C 	0.34260 0.05650 0.70790 -0.05800
H 	H 	0.36680 0.09540 0.67610 0.04500
C 	C 	0.29810 0.05430 0.76250 0.04900
H 	H 	0.29210 0.09300 0.76860 0.01800
H 	H 	0.34200 0.16520 0.03980 0.15800
H 	H 	0.10150 0.02010 0.75520 0.19600
O 	O 	0.20140 0.04230 0.85890 -0.40400
O 	O 	0.81200 0.75920 0.90610 -0.44000
C 	C 	0.67170 0.73000 0.79680 0.07100
H 	H 	0.65700 0.75400 0.82890 0.00900
C 	C 	0.62960 0.68780 0.74030 -0.12200
H 	H 	0.58550 0.68250 0.73270 0.06500
C 	C 	0.71390 0.65740 0.70790 -0.05800
H 	H 	0.72860 0.63320 0.67610 0.04500
C 	C 	0.75620 0.70190 0.76250 0.04800
H 	H 	0.80090 0.70790 0.76860 0.01800
H 	H 	0.82320 0.65800 0.03980 0.15800
H 	H 	0.91860 0.89850 0.75520 0.19100
O 	O 	0.84090 0.79860 0.85890 -0.40400
O 	O 	0.94720 0.18800 0.90610 -0.44400
C 	C 	0.05830 0.32830 0.79680 0.07100
H 	H 	0.09700 0.34300 0.82890 0.00900
C 	C 	0.05820 0.37040 0.74030 -0.12400
H 	H 	0.09700 0.41450 0.73270 0.06500
C 	C 	0.94350 0.28610 0.70790 -0.06100
H 	H 	0.90460 0.27140 0.67610 0.04500
C 	C 	0.94570 0.24380 0.76250 0.04600
H 	H 	0.90700 0.19910 0.76860 0.01900
H 	H 	0.83480 0.17680 0.03980 0.15800
H 	H 	0.97990 0.08140 0.75520 0.18700
O 	O 	0.95770 0.15910 0.85890 -0.40600
O 	O 	0.75920 0.94720 0.90610 -0.44100
C 	C 	0.73000 0.05830 0.79680 0.07100
H 	H 	0.75400 0.09700 0.82890 0.00900
C 	C 	0.68780 0.05820 0.74030 -0.12300
H 	H 	0.68250 0.09700 0.73270 0.06500
C 	C 	0.65740 0.94350 0.70790 -0.06000
H 	H 	0.63320 0.90460 0.67610 0.04500
C 	C 	0.70190 0.94570 0.76250 0.04700
H 	H 	0.70790 0.90700 0.76860 0.01800
H 	H 	0.65800 0.83480 0.03980 0.15800
H 	H 	0.89850 0.97990 0.75520 0.19000
O 	O 	0.79860 0.95770 0.85890 -0.40500
O 	O 	0.18800 0.24080 0.90610 -0.44200
C 	C 	0.32830 0.27000 0.79680 0.07100
H 	H 	0.34300 0.24600 0.82890 0.00900
C 	C 	0.37040 0.31220 0.74030 -0.12300
H 	H 	0.41450 0.31750 0.73270 0.06500
C 	C 	0.28610 0.34260 0.70790 -0.05800
H 	H 	0.27140 0.36680 0.67610 0.04500
C 	C 	0.24380 0.29810 0.76250 0.04900
H 	H 	0.19910 0.29210 0.76860 0.01800
H 	H 	0.17680 0.34200 0.03980 0.15800
H 	H 	0.08140 0.10150 0.75520 0.19200
O 	O 	0.15910 0.20140 0.85890 -0.40400
O 	O 	0.05280 0.81200 0.90610 -0.44100
C 	C 	0.94170 0.67170 0.79680 0.07100
H 	H 	0.90300 0.65700 0.82890 0.00900
C 	C 	0.94180 0.62960 0.74030 -0.12300
H 	H 	0.90300 0.58550 0.73270 0.06400
C 	C 	0.05650 0.71390 0.70790 -0.05800
H 	H 	0.09540 0.72860 0.67610 0.04500
C 	C 	0.05430 0.75620 0.76250 0.04900
H 	H 	0.09300 0.80090 0.76860 0.01800
H 	H 	0.16520 0.82320 0.03980 0.15800
H 	H 	0.02010 0.91860 0.75520 0.19200
O 	O 	0.04230 0.84090 0.85890 -0.40300
O 	O 	0.94720 0.75920 0.90610 -0.44100
C 	C 	0.05830 0.73000 0.79680 0.07100
H 	H 	0.09700 0.75400 0.82890 0.00900
C 	C 	0.05820 0.68780 0.74030 -0.12300
H 	H 	0.09700 0.68250 0.73270 0.06500
C 	C 	0.94350 0.65740 0.70790 -0.06000
H 	H 	0.90460 0.63320 0.67610 0.04500
C 	C 	0.94570 0.70190 0.76250 0.04700
H 	H 	0.90700 0.70790 0.76860 0.01800
H 	H 	0.83480 0.65800 0.03980 0.15800
H 	H 	0.97990 0.89850 0.75520 0.19000
O 	O 	0.95770 0.79860 0.85890 -0.40500
O 	O 	0.24080 0.18800 0.90610 -0.44200
C 	C 	0.27000 0.32830 0.79680 0.07100
H 	H 	0.24600 0.34300 0.82890 0.00900
C 	C 	0.31220 0.37040 0.74030 -0.12300
H 	H 	0.31750 0.41450 0.73270 0.06500
C 	C 	0.34260 0.28610 0.70790 -0.05800
H 	H 	0.36680 0.27140 0.67610 0.04500
C 	C 	0.29810 0.24380 0.76250 0.04900
H 	H 	0.29210 0.19910 0.76860 0.01800
H 	H 	0.34200 0.17680 0.03980 0.15800
H 	H 	0.10150 0.08140 0.75520 0.19200
O 	O 	0.20140 0.15910 0.85890 -0.40400
O 	O 	0.81200 0.05280 0.90610 -0.44100
C 	C 	0.67170 0.94170 0.79680 0.07100
H 	H 	0.65700 0.90300 0.82890 0.00900
C 	C 	0.62960 0.94180 0.74030 -0.12300
H 	H 	0.58550 0.90300 0.73270 0.06400
C 	C 	0.71390 0.05650 0.70790 -0.05800
H 	H 	0.72860 0.09540 0.67610 0.04500
C 	C 	0.75620 0.05430 0.76250 0.04900
H 	H 	0.80090 0.09300 0.76860 0.01800
H 	H 	0.82320 0.16520 0.03980 0.15800
H 	H 	0.91860 0.02010 0.75520 0.19200
O 	O 	0.84090 0.04230 0.85890 -0.40300
O 	O 	0.05280 0.24080 0.90610 -0.44300
C 	C 	0.94170 0.27000 0.79680 0.07100
H 	H 	0.90300 0.24600 0.82890 0.00800
C 	C 	0.94180 0.31220 0.74030 -0.12300
H 	H 	0.90300 0.31750 0.73270 0.06400
C 	C 	0.05650 0.34260 0.70790 -0.05800
H 	H 	0.09540 0.36680 0.67610 0.04500
C 	C 	0.05430 0.29810 0.76250 0.04900
H 	H 	0.09300 0.29210 0.76860 0.01800
H 	H 	0.16520 0.34200 0.03980 0.15800
H 	H 	0.02010 0.10150 0.75520 0.19600
O 	O 	0.04230 0.20140 0.85890 -0.40400
O 	O 	0.75920 0.81200 0.90610 -0.44000
C 	C 	0.73000 0.67170 0.79680 0.07100
H 	H 	0.75400 0.65700 0.82890 0.00900
C 	C 	0.68780 0.62960 0.74030 -0.12200
H 	H 	0.68250 0.58550 0.73270 0.06500
C 	C 	0.65740 0.71390 0.70790 -0.05800
H 	H 	0.63320 0.72860 0.67610 0.04500
C 	C 	0.70190 0.75620 0.76250 0.04800
H 	H 	0.70790 0.80090 0.76860 0.01800
H 	H 	0.65800 0.82320 0.03980 0.15800
H 	H 	0.89850 0.91860 0.75520 0.19100
O 	O 	0.79860 0.84090 0.85890 -0.40300
O 	O 	0.18800 0.94720 0.90610 -0.44400
C 	C 	0.32830 0.05830 0.79680 0.07100
H 	H 	0.34300 0.09700 0.82890 0.00900
C 	C 	0.37040 0.05820 0.74030 -0.12400
H 	H 	0.41450 0.09700 0.73270 0.06500
C 	C 	0.28610 0.94350 0.70790 -0.06100
H 	H 	0.27140 0.90460 0.67610 0.04500
C 	C 	0.24380 0.94570 0.76250 0.04600
H 	H 	0.19910 0.90700 0.76860 0.01900
H 	H 	0.17680 0.83480 0.03980 0.15800
H 	H 	0.08140 0.97990 0.75520 0.18700
O 	O 	0.15910 0.95770 0.85890 -0.40600
O 	O 	0.75920 0.94720 0.09390 -0.44300
C 	C 	0.73000 0.05830 0.20320 0.07200
H 	H 	0.75400 0.09700 0.17110 0.00900
C 	C 	0.68780 0.05820 0.25970 -0.12200
H 	H 	0.68250 0.09700 0.26730 0.06500
C 	C 	0.65740 0.94350 0.29210 -0.06100
H 	H 	0.63320 0.90460 0.32390 0.04500
C 	C 	0.70190 0.94570 0.23750 0.04600
H 	H 	0.70790 0.90700 0.23140 0.01900
H 	H 	0.65800 0.83480 0.96020 0.15800
H 	H 	0.89850 0.97990 0.24480 0.18800
O 	O 	0.79860 0.95770 0.14110 -0.40700
O 	O 	0.18800 0.24080 0.09390 -0.44100
C 	C 	0.32830 0.27000 0.20320 0.07200
H 	H 	0.34300 0.24600 0.17110 0.00900
C 	C 	0.37040 0.31220 0.25970 -0.12200
H 	H 	0.41450 0.31750 0.26730 0.06500
C 	C 	0.28610 0.34260 0.29210 -0.05800
H 	H 	0.27140 0.36680 0.32390 0.04500
C 	C 	0.24380 0.29810 0.23750 0.04900
H 	H 	0.19910 0.29210 0.23140 0.01800
H 	H 	0.17680 0.34200 0.96020 0.15600
H 	H 	0.08140 0.10150 0.24480 0.19200
O 	O 	0.15910 0.20140 0.14110 -0.40500
O 	O 	0.05280 0.81200 0.09390 -0.44100
C 	C 	0.94170 0.67170 0.20320 0.07000
H 	H 	0.90300 0.65700 0.17110 0.00900
C 	C 	0.94180 0.62960 0.25970 -0.12400
H 	H 	0.90300 0.58550 0.26730 0.06400
C 	C 	0.05650 0.71390 0.29210 -0.05900
H 	H 	0.09540 0.72860 0.32390 0.04500
C 	C 	0.05430 0.75620 0.23750 0.04800
H 	H 	0.09300 0.80090 0.23140 0.01800
H 	H 	0.16520 0.82320 0.96020 0.15800
H 	H 	0.02010 0.91860 0.24480 0.19400
O 	O 	0.04230 0.84090 0.14110 -0.40300
O 	O 	0.24080 0.05280 0.09390 -0.44200
C 	C 	0.27000 0.94170 0.20320 0.07000
H 	H 	0.24600 0.90300 0.17110 0.00900
C 	C 	0.31220 0.94180 0.25970 -0.12400
H 	H 	0.31750 0.90300 0.26730 0.06400
C 	C 	0.34260 0.05650 0.29210 -0.05800
H 	H 	0.36680 0.09540 0.32390 0.04500
C 	C 	0.29810 0.05430 0.23750 0.04900
H 	H 	0.29210 0.09300 0.23140 0.01800
H 	H 	0.34200 0.16520 0.96020 0.15700
H 	H 	0.10150 0.02010 0.24480 0.19800
O 	O 	0.20140 0.04230 0.14110 -0.40500
O 	O 	0.81200 0.75920 0.09390 -0.44000
C 	C 	0.67170 0.73000 0.20320 0.07200
H 	H 	0.65700 0.75400 0.17110 0.00900
C 	C 	0.62960 0.68780 0.25970 -0.12200
H 	H 	0.58550 0.68250 0.26730 0.06500
C 	C 	0.71390 0.65740 0.29210 -0.05800
H 	H 	0.72860 0.63320 0.32390 0.04500
C 	C 	0.75620 0.70190 0.23750 0.04800
H 	H 	0.80090 0.70790 0.23140 0.01800
H 	H 	0.82320 0.65800 0.96020 0.15900
H 	H 	0.91860 0.89850 0.24480 0.19100
O 	O 	0.84090 0.79860 0.14110 -0.40300
O 	O 	0.94720 0.18800 0.09390 -0.44500
C 	C 	0.05830 0.32830 0.20320 0.07200
H 	H 	0.09700 0.34300 0.17110 0.00900
C 	C 	0.05820 0.37040 0.25970 -0.12300
H 	H 	0.09700 0.41450 0.26730 0.06500
C 	C 	0.94350 0.28610 0.29210 -0.06200
H 	H 	0.90460 0.27140 0.32390 0.04500
C 	C 	0.94570 0.24380 0.23750 0.04600
H 	H 	0.90700 0.19910 0.23140 0.01900
H 	H 	0.83480 0.17680 0.96020 0.15700
H 	H 	0.97990 0.08140 0.24480 0.18500
O 	O 	0.95770 0.15910 0.14110 -0.40800
Gd	Gd	0.05684 0.11369 0.10801 0.82100
O 	O 	0.04265 0.08530 0.22360 -0.53700
Gd	Gd	0.88631 0.94316 0.10801 0.81000
O 	O 	0.91470 0.95735 0.22360 -0.53500
Gd	Gd	0.05684 0.94316 0.10801 0.80800
O 	O 	0.04265 0.95735 0.22360 -0.53300
Gd	Gd	0.94316 0.88631 0.10801 0.81000
O 	O 	0.95735 0.91470 0.22360 -0.53500
Gd	Gd	0.11369 0.05684 0.10801 0.82100
O 	O 	0.08530 0.04265 0.22360 -0.53700
Gd	Gd	0.94315 0.05684 0.10801 0.80800
O 	O 	0.95735 0.04265 0.22360 -0.53300
Gd	Gd	0.11369 0.05684 0.89199 0.81500
O 	O 	0.08530 0.04265 0.77640 -0.53600
Gd	Gd	0.94315 0.88631 0.89199 0.81400
O 	O 	0.95735 0.91470 0.77640 -0.53600
Gd	Gd	0.94316 0.05684 0.89199 0.80700
O 	O 	0.95735 0.04265 0.77640 -0.53300
Gd	Gd	0.88631 0.94316 0.89199 0.81400
O 	O 	0.91470 0.95735 0.77640 -0.53600
Gd	Gd	0.05684 0.11369 0.89199 0.81500
O 	O 	0.04265 0.08530 0.77640 -0.53600
Gd	Gd	0.05684 0.94316 0.89199 0.80700
O 	O 	0.04265 0.95735 0.77640 -0.53300
Gd	Gd	0.10329 0.20659 -0.00000 1.69900
Gd	Gd	0.79341 0.89671 -0.00000 1.69100
Gd	Gd	0.10329 0.89671 -0.00000 1.69600
Gd	Gd	0.89671 0.79341 -0.00000 1.69100
Gd	Gd	0.20659 0.10329 -0.00000 1.69900
Gd	Gd	0.89671 0.10329 -0.00000 1.69600
N 	N 	0.00000 0.40910 0.50000 -0.15800
N 	N 	0.59090 0.59090 0.50000 -0.15800
N 	N 	0.40910 -0.00000 0.50000 -0.15800
N 	N 	0.00000 0.59090 0.50000 -0.15800
N 	N 	0.40910 0.40910 0.50000 -0.15800
N 	N 	0.59090 -0.00000 0.50000 -0.15800
N 	N 	-0.00000 0.50000 0.39030 -0.23400
H 	H 	0.00000 0.50000 0.43850 0.14900
N 	N 	0.50000 0.50000 0.39030 -0.23400
H 	H 	0.50000 0.50000 0.43850 0.14900
N 	N 	0.50000 -0.00000 0.39030 -0.23400
H 	H 	0.50000 0.00000 0.43850 0.14900
N 	N 	0.50000 -0.00000 0.60970 -0.23400
H 	H 	0.50000 0.00000 0.56150 0.14900
N 	N 	0.50000 0.50000 0.60970 -0.23400
H 	H 	0.50000 0.50000 0.56150 0.14900
N 	N 	0.00000 0.50000 0.60970 -0.23400
H 	H 	0.00000 0.50000 0.56150 0.14900
O 	O 	0.00000 0.12190 -0.00000 -0.86300
O 	O 	0.87810 0.87810 -0.00000 -0.86800
O 	O 	0.12190 0.00000 -0.00000 -0.86300
O 	O 	-0.00000 0.87810 -0.00000 -0.86400
O 	O 	0.12190 0.12190 -0.00000 -0.86800
O 	O 	0.87810 0.00000 -0.00000 -0.86400
O 	O 	-0.00000 0.00000 0.07590 -0.83300
H 	H 	-0.00000 -0.00000 0.02820 0.17400
O 	O 	-0.00000 0.00000 0.92410 -0.83300
H 	H 	-0.00000 0.00000 0.97180 0.16800
O 	O 	0.14250 0.32440 -0.00000 -0.41900
O 	O 	0.67560 0.81810 -0.00000 -0.42200
O 	O 	0.18190 0.85750 -0.00000 -0.42200
O 	O 	0.85750 0.67560 -0.00000 -0.42300
O 	O 	0.32440 0.18190 -0.00000 -0.42000
O 	O 	0.81810 0.14250 -0.00000 -0.42000
O 	O 	0.32440 0.14250 -0.00000 -0.41900
O 	O 	0.81810 0.67560 -0.00000 -0.42200
O 	O 	0.85750 0.18190 -0.00000 -0.42200
O 	O 	0.67560 0.85750 -0.00000 -0.42300
O 	O 	0.18190 0.32440 -0.00000 -0.42000
O 	O 	0.14250 0.81810 -0.00000 -0.42000
C 	C 	-0.00000 0.21790 0.13020 0.91000
C 	C 	-0.00000 0.26440 0.19230 -0.28300
C 	C 	0.00000 0.34840 0.30470 0.12800
C 	C 	-0.00000 0.39440 0.36510 -0.14400
C 	C 	0.00000 0.37600 0.43980 0.12700
C 	C 	0.00000 0.31810 0.46590 -0.08800
H 	H 	0.00000 0.28470 0.43570 0.05800
C 	C 	-0.00000 0.45280 0.34240 0.13900
C 	C 	0.00000 0.47120 0.26690 -0.09500
H 	H 	0.00000 0.44700 0.22490 0.06700
C 	C 	0.78210 0.78210 0.13020 0.89900
C 	C 	0.73560 0.73560 0.19230 -0.28600
C 	C 	0.65160 0.65160 0.30470 0.12200
C 	C 	0.60560 0.60560 0.36510 -0.14300
C 	C 	0.62400 0.62400 0.43980 0.12500
C 	C 	0.68190 0.68190 0.46590 -0.08800
H 	H 	0.71530 0.71530 0.43570 0.05700
C 	C 	0.54720 0.54720 0.34240 0.13700
C 	C 	0.52880 0.52880 0.26690 -0.09500
H 	H 	0.55300 0.55300 0.22490 0.06600
C 	C 	0.21790 -0.00000 0.13020 0.91000
C 	C 	0.26440 0.00000 0.19230 -0.28300
C 	C 	0.34840 0.00000 0.30470 0.12800
C 	C 	0.39440 0.00000 0.36510 -0.14400
C 	C 	0.37600 -0.00000 0.43980 0.12700
C 	C 	0.31810 -0.00000 0.46590 -0.08800
H 	H 	0.28470 -0.00000 0.43570 0.05800
C 	C 	0.45280 0.00000 0.34240 0.13900
C 	C 	0.47120 0.00000 0.26690 -0.09500
H 	H 	0.44700 -0.00000 0.22490 0.06700
C 	C 	0.00000 0.78210 0.13020 0.90600
C 	C 	-0.00000 0.73560 0.19230 -0.28300
C 	C 	-0.00000 0.65160 0.30470 0.12700
C 	C 	0.00000 0.60560 0.36510 -0.14400
C 	C 	0.00000 0.62400 0.43980 0.12700
C 	C 	-0.00000 0.68190 0.46590 -0.08800
H 	H 	0.00000 0.71530 0.43570 0.05800
C 	C 	0.00000 0.54720 0.34240 0.13800
C 	C 	-0.00000 0.52880 0.26690 -0.09500
H 	H 	-0.00000 0.55300 0.22490 0.06700
C 	C 	0.21790 0.21790 0.13020 0.90100
C 	C 	0.26440 0.26440 0.19230 -0.28700
C 	C 	0.34840 0.34840 0.30470 0.12200
C 	C 	0.39440 0.39440 0.36510 -0.14300
C 	C 	0.37600 0.37600 0.43980 0.12600
C 	C 	0.31810 0.31810 0.46590 -0.08800
H 	H 	0.28470 0.28470 0.43570 0.05700
C 	C 	0.45280 0.45280 0.34240 0.13700
C 	C 	0.47120 0.47120 0.26690 -0.09500
H 	H 	0.44700 0.44700 0.22490 0.06600
C 	C 	0.78210 -0.00000 0.13020 0.90600
C 	C 	0.73560 0.00000 0.19230 -0.28300
C 	C 	0.65160 0.00000 0.30470 0.12700
C 	C 	0.60560 0.00000 0.36510 -0.14400
C 	C 	0.62400 -0.00000 0.43980 0.12700
C 	C 	0.68190 -0.00000 0.46590 -0.08800
H 	H 	0.71530 -0.00000 0.43570 0.05800
C 	C 	0.54720 0.00000 0.34240 0.13800
C 	C 	0.52880 0.00000 0.26690 -0.09500
H 	H 	0.55300 -0.00000 0.22490 0.06700
C 	C 	0.21790 -0.00000 0.86980 0.90600
C 	C 	0.26440 0.00000 0.80770 -0.28400
C 	C 	0.34840 -0.00000 0.69530 0.12700
C 	C 	0.39440 0.00000 0.63490 -0.14400
C 	C 	0.37600 -0.00000 0.56020 0.12700
C 	C 	0.31810 -0.00000 0.53410 -0.08800
H 	H 	0.28470 0.00000 0.56430 0.05800
C 	C 	0.45280 -0.00000 0.65760 0.13800
C 	C 	0.47120 0.00000 0.73310 -0.09500
H 	H 	0.44700 0.00000 0.77510 0.06700
C 	C 	0.78210 0.78210 0.86980 0.89900
C 	C 	0.73560 0.73560 0.80770 -0.28600
C 	C 	0.65160 0.65160 0.69530 0.12200
C 	C 	0.60560 0.60560 0.63490 -0.14300
C 	C 	0.62400 0.62400 0.56020 0.12500
C 	C 	0.68190 0.68190 0.53410 -0.08800
H 	H 	0.71530 0.71530 0.56430 0.05700
C 	C 	0.54720 0.54720 0.65760 0.13700
C 	C 	0.52880 0.52880 0.73310 -0.09500
H 	H 	0.55300 0.55300 0.77510 0.06600
C 	C 	0.00000 0.21790 0.86980 0.90600
C 	C 	0.00000 0.26440 0.80770 -0.28400
C 	C 	-0.00000 0.34840 0.69530 0.12700
C 	C 	-0.00000 0.39440 0.63490 -0.14400
C 	C 	0.00000 0.37600 0.56020 0.12700
C 	C 	0.00000 0.31810 0.53410 -0.08800
H 	H 	0.00000 0.28470 0.56430 0.05800
C 	C 	0.00000 0.45280 0.65760 0.13800
C 	C 	0.00000 0.47120 0.73310 -0.09500
H 	H 	0.00000 0.44700 0.77510 0.06700
C 	C 	0.78210 -0.00000 0.86980 0.90200
C 	C 	0.73560 0.00000 0.80770 -0.28500
C 	C 	0.65160 -0.00000 0.69530 0.12600
C 	C 	0.60560 0.00000 0.63490 -0.14300
C 	C 	0.62400 -0.00000 0.56020 0.12600
C 	C 	0.68190 -0.00000 0.53410 -0.08800
H 	H 	0.71530 0.00000 0.56430 0.05800
C 	C 	0.54720 -0.00000 0.65760 0.13800
C 	C 	0.52880 0.00000 0.73310 -0.09500
H 	H 	0.55300 0.00000 0.77510 0.06600
C 	C 	0.21790 0.21790 0.86980 0.90200
C 	C 	0.26440 0.26440 0.80770 -0.28700
C 	C 	0.34840 0.34840 0.69530 0.12200
C 	C 	0.39440 0.39440 0.63490 -0.14300
C 	C 	0.37600 0.37600 0.56020 0.12600
C 	C 	0.31810 0.31810 0.53410 -0.08800
H 	H 	0.28470 0.28470 0.56430 0.05700
C 	C 	0.45280 0.45280 0.65760 0.13700
C 	C 	0.47120 0.47120 0.73310 -0.09500
H 	H 	0.44700 0.44700 0.77510 0.06600
C 	C 	0.00000 0.78210 0.86980 0.90200
C 	C 	-0.00000 0.73560 0.80770 -0.28500
C 	C 	0.00000 0.65160 0.69530 0.12600
C 	C 	-0.00000 0.60560 0.63490 -0.14300
C 	C 	0.00000 0.62400 0.56020 0.12600
C 	C 	0.00000 0.68190 0.53410 -0.08800
H 	H 	0.00000 0.71530 0.56430 0.05800
C 	C 	0.00000 0.54720 0.65760 0.13800
C 	C 	-0.00000 0.52880 0.73310 -0.09500
H 	H 	0.00000 0.55300 0.77510 0.06600
