data_crystal

_cell_length_a 20.77200
_cell_length_b 20.77200
_cell_length_c 21.05300
_cell_angle_alpha 90.00000
_cell_angle_beta  90.00000
_cell_angle_gamma 120.00000

_symmetry_space_group_name_	'P 1'
_symmetry_space_group_name_H-M	'P 1'

loop_
_symmetry_equiv_pos_as_xyz
  x,y,z

loop_
_atom_site_label
_atom_site_type_symbol
_atom_site_fract_x
_atom_site_fract_y
_atom_site_fract_z
_atom_site_charge
O 	O 	0.73180 0.46960 0.31810 -0.53500
O 	O 	0.60770 0.41090 0.31640 -0.56000
C 	C 	0.66880 0.45530 0.33840 0.46900
C 	C 	0.67310 0.50150 0.39390 -0.18500
C 	C 	0.60580 0.48720 0.42190 0.08500
H 	H 	0.56080 0.44960 0.40360 -0.03600
N 	N 	0.60120 0.52350 0.47290 -0.27500
C 	C 	0.66650 0.57480 0.49930 0.06800
H 	H 	0.66420 0.60250 0.53420 -0.03500
C 	C 	0.73650 0.58990 0.47950 -0.15600
H 	H 	0.78020 0.62280 0.50230 0.07000
C 	C 	0.73940 0.55420 0.42410 0.08000
H 	H 	0.78610 0.56550 0.40680 0.00400
O 	O 	0.53040 0.26220 0.31810 -0.54000
O 	O 	0.58910 0.19680 0.31640 -0.56200
C 	C 	0.54470 0.21350 0.33840 0.47000
C 	C 	0.49850 0.17160 0.39390 -0.19100
C 	C 	0.51280 0.11860 0.42190 0.08200
H 	H 	0.55040 0.11120 0.40360 -0.04000
N 	N 	0.47650 0.07770 0.47290 -0.28000
C 	C 	0.42520 0.09170 0.49930 0.06300
H 	H 	0.39750 0.06170 0.53420 -0.04800
C 	C 	0.41010 0.14660 0.47950 -0.16200
H 	H 	0.37720 0.15740 0.50230 0.05600
C 	C 	0.44580 0.18520 0.42410 0.07700
H 	H 	0.43450 0.22060 0.40680 -0.00600
O 	O 	0.73780 0.26820 0.31810 -0.53900
O 	O 	0.80320 0.39230 0.31640 -0.55400
C 	C 	0.78650 0.33120 0.33840 0.47000
C 	C 	0.82840 0.32690 0.39390 -0.18500
C 	C 	0.88140 0.39420 0.42190 0.08600
H 	H 	0.88880 0.43920 0.40360 -0.02800
N 	N 	0.92230 0.39880 0.47290 -0.26400
C 	C 	0.90830 0.33350 0.49930 0.06800
H 	H 	0.93830 0.33580 0.53420 -0.03000
C 	C 	0.85340 0.26350 0.47950 -0.15600
H 	H 	0.84260 0.21980 0.50230 0.06000
C 	C 	0.81480 0.26060 0.42410 0.07800
H 	H 	0.77940 0.21390 0.40680 -0.00500
O 	O 	0.26820 0.53040 0.81810 -0.53800
O 	O 	0.39230 0.58910 0.81640 -0.55500
C 	C 	0.33120 0.54470 0.83840 0.46500
C 	C 	0.32690 0.49850 0.89390 -0.17400
C 	C 	0.39420 0.51280 0.92190 0.08000
H 	H 	0.43920 0.55040 0.90360 -0.02800
N 	N 	0.39880 0.47650 0.97290 -0.26900
C 	C 	0.33350 0.42520 0.99930 0.10100
H 	H 	0.33580 0.39750 0.03420 -0.08000
C 	C 	0.26350 0.41010 0.97950 -0.09800
H 	H 	0.21980 0.37720 0.00230 0.00500
C 	C 	0.26060 0.44580 0.92410 0.04800
H 	H 	0.21390 0.43450 0.90680 0.00800
O 	O 	0.46960 0.73780 0.81810 -0.53200
O 	O 	0.41090 0.80320 0.81640 -0.55100
C 	C 	0.45530 0.78650 0.83840 0.46600
C 	C 	0.50150 0.82840 0.89390 -0.16900
C 	C 	0.48720 0.88140 0.92190 0.08300
H 	H 	0.44960 0.88880 0.90360 -0.02200
N 	N 	0.52350 0.92230 0.97290 -0.25800
C 	C 	0.57480 0.90830 0.99930 0.10500
H 	H 	0.60250 0.93830 0.03420 -0.06400
C 	C 	0.58990 0.85340 0.97950 -0.09300
H 	H 	0.62280 0.84260 0.00230 0.02000
C 	C 	0.55420 0.81480 0.92410 0.05200
H 	H 	0.56550 0.77940 0.90680 0.01700
O 	O 	0.26220 0.73180 0.81810 -0.53300
O 	O 	0.19680 0.60770 0.81640 -0.55800
C 	C 	0.21350 0.66880 0.83840 0.46500
C 	C 	0.17160 0.67310 0.89390 -0.17400
C 	C 	0.11860 0.60580 0.92190 0.07900
H 	H 	0.11120 0.56080 0.90360 -0.03400
N 	N 	0.07770 0.60120 0.97290 -0.27300
C 	C 	0.09170 0.66650 0.99930 0.10300
H 	H 	0.06170 0.66420 0.03420 -0.08400
C 	C 	0.14660 0.73650 0.97950 -0.09700
H 	H 	0.15740 0.78020 0.00230 0.01400
C 	C 	0.18520 0.73940 0.92410 0.05000
H 	H 	0.22060 0.78610 0.90680 0.01600
O 	O 	0.26820 0.53040 0.68190 -0.54000
O 	O 	0.39230 0.58910 0.68360 -0.55700
C 	C 	0.33120 0.54470 0.66160 0.46900
C 	C 	0.32690 0.49850 0.60610 -0.18800
C 	C 	0.39420 0.51280 0.57810 0.08300
H 	H 	0.43920 0.55040 0.59640 -0.03400
N 	N 	0.39880 0.47650 0.52710 -0.27500
C 	C 	0.33350 0.42520 0.50070 0.06400
H 	H 	0.33580 0.39750 0.46580 -0.04400
C 	C 	0.26350 0.41010 0.52050 -0.16000
H 	H 	0.21980 0.37720 0.49770 0.05300
C 	C 	0.26060 0.44580 0.57590 0.07600
H 	H 	0.21390 0.43450 0.59320 -0.00700
O 	O 	0.46960 0.73780 0.68190 -0.53400
O 	O 	0.41090 0.80320 0.68360 -0.55300
C 	C 	0.45530 0.78650 0.66160 0.46900
C 	C 	0.50150 0.82840 0.60610 -0.18200
C 	C 	0.48720 0.88140 0.57810 0.08600
H 	H 	0.44960 0.88880 0.59640 -0.02800
N 	N 	0.52350 0.92230 0.52710 -0.26400
C 	C 	0.57480 0.90830 0.50070 0.06900
H 	H 	0.60250 0.93830 0.46580 -0.02900
C 	C 	0.58990 0.85340 0.52050 -0.15300
H 	H 	0.62280 0.84260 0.49770 0.06600
C 	C 	0.55420 0.81480 0.57590 0.07900
H 	H 	0.56550 0.77940 0.59320 0.00200
O 	O 	0.26220 0.73180 0.68190 -0.53600
O 	O 	0.19680 0.60770 0.68360 -0.56000
C 	C 	0.21350 0.66880 0.66160 0.46900
C 	C 	0.17160 0.67310 0.60610 -0.18800
C 	C 	0.11860 0.60580 0.57810 0.08200
H 	H 	0.11120 0.56080 0.59640 -0.04000
N 	N 	0.07770 0.60120 0.52710 -0.28000
C 	C 	0.09170 0.66650 0.50070 0.06400
H 	H 	0.06170 0.66420 0.46580 -0.04700
C 	C 	0.14660 0.73650 0.52050 -0.16000
H 	H 	0.15740 0.78020 0.49770 0.06200
C 	C 	0.18520 0.73940 0.57590 0.07800
H 	H 	0.22060 0.78610 0.59320 0.00100
O 	O 	0.73180 0.46960 0.18190 -0.53600
O 	O 	0.60770 0.41090 0.18360 -0.56000
C 	C 	0.66880 0.45530 0.16160 0.47300
C 	C 	0.67310 0.50150 0.10610 -0.19700
C 	C 	0.60580 0.48720 0.07810 0.08800
H 	H 	0.56080 0.44960 0.09640 -0.04100
N 	N 	0.60120 0.52350 0.02710 -0.27600
C 	C 	0.66650 0.57480 0.00070 0.03100
H 	H 	0.66420 0.60250 0.96580 0.00200
C 	C 	0.73650 0.58990 0.02050 -0.21300
H 	H 	0.78020 0.62280 0.99770 0.11500
C 	C 	0.73940 0.55420 0.07590 0.10600
H 	H 	0.78610 0.56550 0.09320 -0.01000
O 	O 	0.53040 0.26220 0.18190 -0.54200
O 	O 	0.58910 0.19680 0.18360 -0.56400
C 	C 	0.54470 0.21350 0.16160 0.47300
C 	C 	0.49850 0.17160 0.10610 -0.20300
C 	C 	0.51280 0.11860 0.07810 0.08600
H 	H 	0.55040 0.11120 0.09640 -0.04400
N 	N 	0.47650 0.07770 0.02710 -0.28100
C 	C 	0.42520 0.09170 0.00070 0.02700
H 	H 	0.39750 0.06170 0.96580 -0.01200
C 	C 	0.41010 0.14660 0.02050 -0.22300
H 	H 	0.37720 0.15740 0.99770 0.10300
C 	C 	0.44580 0.18520 0.07590 0.10500
H 	H 	0.43450 0.22060 0.09320 -0.02100
O 	O 	0.73780 0.26820 0.18190 -0.54100
O 	O 	0.80320 0.39230 0.18360 -0.55600
C 	C 	0.78650 0.33120 0.16160 0.47300
C 	C 	0.82840 0.32690 0.10610 -0.19600
C 	C 	0.88140 0.39420 0.07810 0.08900
H 	H 	0.88880 0.43920 0.09640 -0.03200
N 	N 	0.92230 0.39880 0.02710 -0.26500
C 	C 	0.90830 0.33350 0.00070 0.03300
H 	H 	0.93830 0.33580 0.96580 0.00500
C 	C 	0.85340 0.26350 0.02050 -0.21300
H 	H 	0.84260 0.21980 0.99770 0.10500
C 	C 	0.81480 0.26060 0.07590 0.10400
H 	H 	0.77940 0.21390 0.09320 -0.01800
Cr	Cr	0.75976 0.42354 0.25000 1.55700
Cr	Cr	0.57646 0.33622 0.25000 1.55500
Cr	Cr	0.66378 0.24024 0.25000 1.55500
Cr	Cr	0.24024 0.57646 0.75000 1.55500
Cr	Cr	0.42354 0.66378 0.75000 1.55600
Cr	Cr	0.33622 0.75976 0.75000 1.55700
O 	O 	0.66667 0.33333 0.25000 -0.81700
O 	O 	0.33333 0.66667 0.75000 -0.81600
Cu	Cu	0.50000 0.50000 0.50000 0.78600
Cu	Cu	0.50000 0.00000 0.50000 0.77000
Cu	Cu	0.00000 0.50000 0.50000 0.76900
Cu	Cu	0.50000 0.50000 -0.00000 0.77100
Cu	Cu	0.50000 0.00000 -0.00000 0.75500
Cu	Cu	-0.00000 0.50000 -0.00000 0.75300
