data_crystal

_cell_length_a 20.60800
_cell_length_b 20.60800
_cell_length_c 22.35000
_cell_angle_alpha 90.00000
_cell_angle_beta  90.00000
_cell_angle_gamma 90.00000

_symmetry_space_group_name_	'P 1'
_symmetry_space_group_name_H-M	'P 1'

loop_
_symmetry_equiv_pos_as_xyz
  x,y,z

loop_
_atom_site_label
_atom_site_type_symbol
_atom_site_fract_x
_atom_site_fract_y
_atom_site_fract_z
_atom_site_charge
Cd	Cd	0.71886 0.20871 0.11437 1.12900
N 	N 	0.61340 0.19860 0.14970 -0.28600
N 	N 	0.81530 0.23990 0.07130 -0.28600
N 	N 	0.67630 0.21870 0.01660 -0.26300
C 	C 	0.59790 0.15080 0.18620 0.10300
C 	C 	0.56690 0.24160 0.13240 0.07600
H 	H 	0.63040 0.12070 0.19800 -0.05400
C 	C 	0.53460 0.14340 0.20770 -0.20200
C 	C 	0.50510 0.23790 0.15180 -0.16500
H 	H 	0.57840 0.27550 0.10570 -0.04100
C 	C 	0.52030 0.08810 0.24800 0.46300
C 	C 	0.48800 0.18710 0.19130 0.09400
H 	H 	0.47370 0.26880 0.13910 0.06600
O 	O 	0.46320 0.08740 0.27030 -0.53500
O 	O 	0.56320 0.04810 0.25730 -0.55600
H 	H 	0.44490 0.18350 0.20610 -0.00800
Cr	Cr	0.42236 0.01945 0.31920 1.54300
O 	O 	0.37040 0.95450 0.36170 -0.52600
O 	O 	0.39580 0.08960 0.37420 -0.54000
C 	C 	0.37310 0.93900 0.41620 0.43700
C 	C 	0.42040 0.11360 0.42100 0.44200
O 	O 	0.53630 0.91210 0.45300 -0.51900
O 	O 	0.41370 0.95880 0.45400 -0.51900
C 	C 	0.32200 0.89220 0.43730 -0.17400
C 	C 	0.39540 0.17720 0.44100 -0.18500
C 	C 	0.32500 0.86710 0.49440 0.08700
C 	C 	0.27250 0.87320 0.39980 0.07800
C 	C 	0.34290 0.20470 0.41110 0.09200
C 	C 	0.42290 0.21030 0.49000 0.08100
H 	H 	0.35960 0.88070 0.51960 -0.02200
C 	C 	0.22590 0.83070 0.42260 -0.15500
H 	H 	0.27020 0.88850 0.35980 -0.00600
H 	H 	0.32610 0.18320 0.37680 -0.05000
C 	C 	0.39330 0.26800 0.50710 -0.16300
H 	H 	0.46000 0.19400 0.51030 -0.00500
C 	C 	0.23380 0.80630 0.48030 0.07500
H 	H 	0.18940 0.81850 0.39920 0.06100
C 	C 	0.34270 0.29160 0.47580 0.07700
H 	H 	0.40890 0.29080 0.54110 0.06000
H 	H 	0.20320 0.77530 0.49430 -0.03100
H 	H 	0.32520 0.33240 0.48730 -0.04400
Cd	Cd	0.28114 0.79129 0.11437 1.13100
N 	N 	0.38660 0.80140 0.14970 -0.28400
N 	N 	0.18470 0.76010 0.07130 -0.28400
N 	N 	0.32370 0.78130 0.01660 -0.26400
C 	C 	0.40210 0.84920 0.18620 0.10200
C 	C 	0.43310 0.75840 0.13240 0.07500
H 	H 	0.36960 0.87930 0.19800 -0.05000
C 	C 	0.46540 0.85660 0.20770 -0.19800
C 	C 	0.49490 0.76210 0.15180 -0.16300
H 	H 	0.42160 0.72450 0.10570 -0.04100
C 	C 	0.47970 0.91190 0.24800 0.46100
C 	C 	0.51200 0.81290 0.19130 0.09300
H 	H 	0.52630 0.73120 0.13910 0.06600
O 	O 	0.53680 0.91260 0.27030 -0.52700
O 	O 	0.43680 0.95190 0.25730 -0.54000
H 	H 	0.55510 0.81650 0.20610 -0.00500
Cr	Cr	0.57764 0.98055 0.31920 1.55800
O 	O 	0.62960 0.04550 0.36170 -0.54000
O 	O 	0.60420 0.91040 0.37420 -0.52900
C 	C 	0.62690 0.06100 0.41620 0.43900
C 	C 	0.57960 0.88640 0.42100 0.44200
O 	O 	0.46370 0.08790 0.45300 -0.53000
O 	O 	0.58630 0.04120 0.45400 -0.53400
C 	C 	0.67800 0.10780 0.43730 -0.17900
C 	C 	0.60460 0.82280 0.44100 -0.18200
C 	C 	0.67500 0.13290 0.49440 0.08800
C 	C 	0.72750 0.12680 0.39980 0.07900
C 	C 	0.65710 0.79530 0.41110 0.09100
C 	C 	0.57710 0.78970 0.49000 0.08000
H 	H 	0.64040 0.11930 0.51960 -0.02500
C 	C 	0.77410 0.16930 0.42260 -0.15700
H 	H 	0.72980 0.11150 0.35980 -0.00900
H 	H 	0.67390 0.81680 0.37680 -0.04600
C 	C 	0.60670 0.73200 0.50710 -0.16100
H 	H 	0.54000 0.80600 0.51030 -0.00300
C 	C 	0.76620 0.19370 0.48030 0.07600
H 	H 	0.81060 0.18150 0.39920 0.06200
C 	C 	0.65730 0.70840 0.47580 0.07700
H 	H 	0.59110 0.70920 0.54110 0.06000
H 	H 	0.79680 0.22470 0.49430 -0.02900
H 	H 	0.67480 0.66760 0.48730 -0.04400
Cd	Cd	0.20871 0.28114 0.88563 1.12900
N 	N 	0.19860 0.38660 0.85030 -0.28500
N 	N 	0.23990 0.18470 0.92870 -0.28600
N 	N 	0.21870 0.32370 0.98340 -0.26400
C 	C 	0.15080 0.40210 0.81380 0.10300
C 	C 	0.24160 0.43310 0.86760 0.07600
H 	H 	0.12070 0.36960 0.80200 -0.05500
C 	C 	0.14340 0.46540 0.79230 -0.20200
C 	C 	0.23790 0.49490 0.84820 -0.16500
H 	H 	0.27550 0.42160 0.89430 -0.04100
C 	C 	0.08810 0.47970 0.75200 0.46300
C 	C 	0.18710 0.51200 0.80870 0.09400
H 	H 	0.26880 0.52630 0.86090 0.06600
O 	O 	0.08740 0.53680 0.72970 -0.53500
O 	O 	0.04810 0.43680 0.74270 -0.55700
H 	H 	0.18350 0.55510 0.79390 -0.00700
Cr	Cr	0.01945 0.57764 0.68080 1.54300
O 	O 	0.95450 0.62960 0.63830 -0.52500
O 	O 	0.08960 0.60420 0.62580 -0.53900
C 	C 	0.93900 0.62690 0.58380 0.43700
C 	C 	0.11360 0.57960 0.57900 0.44200
O 	O 	0.91210 0.46370 0.54700 -0.52000
O 	O 	0.95880 0.58630 0.54600 -0.51900
C 	C 	0.89220 0.67800 0.56270 -0.17300
C 	C 	0.17720 0.60460 0.55900 -0.18500
C 	C 	0.86710 0.67500 0.50560 0.08700
C 	C 	0.87320 0.72750 0.60020 0.07800
C 	C 	0.20470 0.65710 0.58890 0.09200
C 	C 	0.21030 0.57710 0.51000 0.08100
H 	H 	0.88070 0.64040 0.48040 -0.02200
C 	C 	0.83070 0.77410 0.57740 -0.15400
H 	H 	0.88850 0.72980 0.64020 -0.00400
H 	H 	0.18320 0.67390 0.62320 -0.04900
C 	C 	0.26800 0.60670 0.49290 -0.16200
H 	H 	0.19400 0.54000 0.48970 -0.00500
C 	C 	0.80630 0.76620 0.51970 0.07600
H 	H 	0.81850 0.81060 0.60080 0.06300
C 	C 	0.29160 0.65730 0.52420 0.07700
H 	H 	0.29080 0.59110 0.45890 0.06000
H 	H 	0.77530 0.79680 0.50570 -0.02800
H 	H 	0.33240 0.67480 0.51270 -0.04400
Cd	Cd	0.79129 0.71886 0.88563 1.13200
N 	N 	0.80140 0.61340 0.85030 -0.28300
N 	N 	0.76010 0.81530 0.92870 -0.28300
N 	N 	0.78130 0.67630 0.98340 -0.26300
C 	C 	0.84920 0.59790 0.81380 0.10300
C 	C 	0.75840 0.56690 0.86760 0.07500
H 	H 	0.87930 0.63040 0.80200 -0.04900
C 	C 	0.85660 0.53460 0.79230 -0.19700
C 	C 	0.76210 0.50510 0.84820 -0.16300
H 	H 	0.72450 0.57840 0.89430 -0.04100
C 	C 	0.91190 0.52030 0.75200 0.46100
C 	C 	0.81290 0.48800 0.80870 0.09300
H 	H 	0.73120 0.47370 0.86090 0.06600
O 	O 	0.91260 0.46320 0.72970 -0.52700
O 	O 	0.95190 0.56320 0.74270 -0.53900
H 	H 	0.81650 0.44490 0.79390 -0.00500
Cr	Cr	0.98055 0.42236 0.68080 1.55700
O 	O 	0.04550 0.37040 0.63830 -0.54100
O 	O 	0.91040 0.39580 0.62580 -0.53000
C 	C 	0.06100 0.37310 0.58380 0.43900
C 	C 	0.88640 0.42040 0.57900 0.44200
O 	O 	0.08790 0.53630 0.54700 -0.53000
O 	O 	0.04120 0.41370 0.54600 -0.53400
C 	C 	0.10780 0.32200 0.56270 -0.18000
C 	C 	0.82280 0.39540 0.55900 -0.18200
C 	C 	0.13290 0.32500 0.50560 0.08800
C 	C 	0.12680 0.27250 0.60020 0.07900
C 	C 	0.79530 0.34290 0.58890 0.09100
C 	C 	0.78970 0.42290 0.51000 0.08000
H 	H 	0.11930 0.35960 0.48040 -0.02500
C 	C 	0.16930 0.22590 0.57740 -0.15900
H 	H 	0.11150 0.27020 0.64020 -0.01000
H 	H 	0.81680 0.32610 0.62320 -0.04700
C 	C 	0.73200 0.39330 0.49290 -0.16100
H 	H 	0.80600 0.46000 0.48970 -0.00400
C 	C 	0.19370 0.23380 0.51970 0.07500
H 	H 	0.18150 0.18940 0.60080 0.05900
C 	C 	0.70840 0.34270 0.52420 0.07700
H 	H 	0.70920 0.40890 0.45890 0.06000
H 	H 	0.22470 0.20320 0.50570 -0.03200
H 	H 	0.66760 0.32520 0.51270 -0.04400
Cd	Cd	0.78114 0.70871 0.38563 1.13100
N 	N 	0.88660 0.69860 0.35030 -0.26700
N 	N 	0.68470 0.73990 0.42870 -0.28400
N 	N 	0.82370 0.71870 0.48340 -0.26200
C 	C 	0.90210 0.65080 0.31380 0.07600
C 	C 	0.93310 0.74160 0.36760 0.02000
H 	H 	0.86960 0.62070 0.30200 -0.04300
C 	C 	0.96540 0.64340 0.29230 -0.14100
C 	C 	0.99490 0.73790 0.34820 -0.04400
H 	H 	0.92160 0.77550 0.39430 -0.01700
C 	C 	0.97970 0.58810 0.25200 0.46600
C 	C 	0.01200 0.68710 0.30870 -0.01400
H 	H 	0.02630 0.76880 0.36090 0.01500
O 	O 	0.03680 0.58740 0.22970 -0.54400
O 	O 	0.93680 0.54810 0.24270 -0.54500
H 	H 	0.05510 0.68350 0.29390 0.02600
Cr	Cr	0.07764 0.51945 0.18080 1.54800
O 	O 	0.12960 0.45450 0.13830 -0.53500
O 	O 	0.10420 0.58960 0.12580 -0.53600
C 	C 	0.12690 0.43900 0.08380 0.43800
C 	C 	0.07960 0.61360 0.07900 0.44200
O 	O 	0.96370 0.41210 0.04700 -0.51700
O 	O 	0.08630 0.45880 0.04600 -0.53300
C 	C 	0.17800 0.39220 0.06270 -0.17800
C 	C 	0.10460 0.67720 0.05900 -0.18400
C 	C 	0.17500 0.36710 0.00560 0.08600
C 	C 	0.22750 0.37320 0.10020 0.07800
C 	C 	0.15710 0.70470 0.08890 0.09100
C 	C 	0.07710 0.71030 0.01000 0.07600
H 	H 	0.14040 0.38070 0.98040 -0.02600
C 	C 	0.27410 0.33070 0.07740 -0.15700
H 	H 	0.22980 0.38850 0.14020 -0.00800
H 	H 	0.17390 0.68320 0.12320 -0.04800
C 	C 	0.10670 0.76800 0.99290 -0.15800
H 	H 	0.04000 0.69400 0.98970 -0.00600
C 	C 	0.26620 0.30630 0.01970 0.07500
H 	H 	0.31060 0.31850 0.10080 0.06100
C 	C 	0.15730 0.79160 0.02420 0.07400
H 	H 	0.09110 0.79080 0.95890 0.05700
H 	H 	0.29680 0.27530 0.00570 -0.03000
H 	H 	0.17480 0.83240 0.01270 -0.04200
Cd	Cd	0.21886 0.29129 0.38563 1.13000
N 	N 	0.11340 0.30140 0.35030 -0.30100
N 	N 	0.31530 0.26010 0.42870 -0.28500
N 	N 	0.17630 0.28130 0.48340 -0.26400
C 	C 	0.09790 0.34920 0.31380 0.13000
C 	C 	0.06690 0.25840 0.36760 0.13100
H 	H 	0.13040 0.37930 0.30200 -0.06100
C 	C 	0.03460 0.35660 0.29230 -0.25900
C 	C 	0.00510 0.26210 0.34820 -0.28400
H 	H 	0.07840 0.22450 0.39430 -0.06500
C 	C 	0.02030 0.41190 0.25200 0.45900
C 	C 	0.98800 0.31290 0.30870 0.20200
H 	H 	0.97370 0.23120 0.36090 0.11700
O 	O 	0.96320 0.41260 0.22970 -0.51800
O 	O 	0.06320 0.45190 0.24270 -0.55100
H 	H 	0.94490 0.31650 0.29390 -0.03900
Cr	Cr	0.92236 0.48055 0.18080 1.55200
O 	O 	0.87040 0.54550 0.13830 -0.53100
O 	O 	0.89580 0.41040 0.12580 -0.53300
C 	C 	0.87310 0.56100 0.08380 0.43800
C 	C 	0.92040 0.38640 0.07900 0.44200
O 	O 	0.03630 0.58790 0.04700 -0.53200
O 	O 	0.91370 0.54120 0.04600 -0.52100
C 	C 	0.82200 0.60780 0.06270 -0.17500
C 	C 	0.89540 0.32280 0.05900 -0.18300
C 	C 	0.82500 0.63290 0.00560 0.08800
C 	C 	0.77250 0.62680 0.10020 0.07800
C 	C 	0.84290 0.29530 0.08890 0.09200
C 	C 	0.92290 0.28970 0.01000 0.08500
H 	H 	0.85960 0.61930 0.98040 -0.02100
C 	C 	0.72590 0.66930 0.07740 -0.15500
H 	H 	0.77020 0.61150 0.14020 -0.00700
H 	H 	0.82610 0.31680 0.12320 -0.04800
C 	C 	0.89330 0.23200 0.99290 -0.16600
H 	H 	0.96000 0.30600 0.98970 -0.00300
C 	C 	0.73380 0.69370 0.01970 0.07600
H 	H 	0.68940 0.68150 0.10080 0.06200
C 	C 	0.84270 0.20840 0.02420 0.08000
H 	H 	0.90890 0.20920 0.95890 0.06200
H 	H 	0.70320 0.72470 0.00570 -0.03000
H 	H 	0.82520 0.16760 0.01270 -0.04600
Cd	Cd	0.29129 0.78114 0.61437 1.13100
N 	N 	0.30140 0.88660 0.64970 -0.26800
N 	N 	0.26010 0.68470 0.57130 -0.28500
N 	N 	0.28130 0.82370 0.51660 -0.26300
C 	C 	0.34920 0.90210 0.68620 0.07500
C 	C 	0.25840 0.93310 0.63240 0.01800
H 	H 	0.37930 0.86960 0.69800 -0.04300
C 	C 	0.35660 0.96540 0.70770 -0.14100
C 	C 	0.26210 0.99490 0.65180 -0.04500
H 	H 	0.22450 0.92160 0.60570 -0.02000
C 	C 	0.41190 0.97970 0.74800 0.46600
C 	C 	0.31290 0.01200 0.69130 -0.01500
H 	H 	0.23120 0.02630 0.63910 0.01300
O 	O 	0.41260 0.03680 0.77030 -0.54400
O 	O 	0.45190 0.93680 0.75730 -0.54500
H 	H 	0.31650 0.05510 0.70610 0.02500
Cr	Cr	0.48055 0.07764 0.81920 1.54800
O 	O 	0.54550 0.12960 0.86170 -0.53400
O 	O 	0.41040 0.10420 0.87420 -0.53700
C 	C 	0.56100 0.12690 0.91620 0.43800
C 	C 	0.38640 0.07960 0.92100 0.44200
O 	O 	0.58790 0.96370 0.95300 -0.51700
O 	O 	0.54120 0.08630 0.95400 -0.53300
C 	C 	0.60780 0.17800 0.93730 -0.17700
C 	C 	0.32280 0.10460 0.94100 -0.18600
C 	C 	0.63290 0.17500 0.99440 0.08600
C 	C 	0.62680 0.22750 0.89980 0.07800
C 	C 	0.29530 0.15710 0.91110 0.09100
C 	C 	0.28970 0.07710 0.99000 0.07900
H 	H 	0.61930 0.14040 0.01960 -0.02500
C 	C 	0.66930 0.27410 0.92260 -0.15600
H 	H 	0.61150 0.22980 0.85980 -0.00800
H 	H 	0.31680 0.17390 0.87680 -0.04900
C 	C 	0.23200 0.10670 0.00710 -0.16300
H 	H 	0.30600 0.04000 0.01030 -0.00800
C 	C 	0.69370 0.26620 0.98030 0.07400
H 	H 	0.68150 0.31060 0.89920 0.06100
C 	C 	0.20840 0.15730 0.97580 0.07500
H 	H 	0.20920 0.09110 0.04110 0.05500
H 	H 	0.72470 0.29680 0.99430 -0.03000
H 	H 	0.16760 0.17480 0.98730 -0.04800
Cd	Cd	0.70871 0.21886 0.61437 1.13100
N 	N 	0.69860 0.11340 0.64970 -0.30100
N 	N 	0.73990 0.31530 0.57130 -0.28400
N 	N 	0.71870 0.17630 0.51660 -0.26400
C 	C 	0.65080 0.09790 0.68620 0.13000
C 	C 	0.74160 0.06690 0.63240 0.13300
H 	H 	0.62070 0.13040 0.69800 -0.06100
C 	C 	0.64340 0.03460 0.70770 -0.25900
C 	C 	0.73790 0.00510 0.65180 -0.28300
H 	H 	0.77550 0.07840 0.60570 -0.06200
C 	C 	0.58810 0.02030 0.74800 0.45900
C 	C 	0.68710 0.98800 0.69130 0.20200
H 	H 	0.76880 0.97370 0.63910 0.12000
O 	O 	0.58740 0.96320 0.77030 -0.51800
O 	O 	0.54810 0.06320 0.75730 -0.55100
H 	H 	0.68350 0.94490 0.70610 -0.03800
Cr	Cr	0.51945 0.92236 0.81920 1.55200
O 	O 	0.45450 0.87040 0.86170 -0.53100
O 	O 	0.58960 0.89580 0.87420 -0.53200
C 	C 	0.43900 0.87310 0.91620 0.43800
C 	C 	0.61360 0.92040 0.92100 0.44200
O 	O 	0.41210 0.03630 0.95300 -0.53300
O 	O 	0.45880 0.91370 0.95400 -0.52100
C 	C 	0.39220 0.82200 0.93730 -0.17600
C 	C 	0.67720 0.89540 0.94100 -0.18100
C 	C 	0.36710 0.82500 0.99440 0.08900
C 	C 	0.37320 0.77250 0.89980 0.07900
C 	C 	0.70470 0.84290 0.91110 0.09200
C 	C 	0.71030 0.92290 0.99000 0.08300
H 	H 	0.38070 0.85960 0.01960 -0.02200
C 	C 	0.33070 0.72590 0.92260 -0.15600
H 	H 	0.38850 0.77020 0.85980 -0.00700
H 	H 	0.68320 0.82610 0.87680 -0.04700
C 	C 	0.76800 0.89330 0.00710 -0.16100
H 	H 	0.69400 0.96000 0.01030 -0.00000
C 	C 	0.30630 0.73380 0.98030 0.07600
H 	H 	0.31850 0.68940 0.89920 0.06100
C 	C 	0.79160 0.84270 0.97580 0.07900
H 	H 	0.79080 0.90890 0.04110 0.06500
H 	H 	0.27530 0.70320 0.99430 -0.03000
H 	H 	0.83240 0.82520 0.98730 -0.04100
O 	O 	0.50000 0.00000 0.36150 -0.83100
Cr	Cr	0.50000 0.00000 0.44649 1.54400
O 	O 	0.00000 0.50000 0.63850 -0.83100
Cr	Cr	0.00000 0.50000 0.55351 1.54400
O 	O 	0.00000 0.50000 0.13850 -0.83100
Cr	Cr	0.00000 0.50000 0.05351 1.54400
O 	O 	0.50000 0.00000 0.86150 -0.83100
Cr	Cr	0.50000 0.00000 0.94649 1.54400
