data_crystal

_cell_length_a 16.27960
_cell_length_b 16.75540
_cell_length_c 33.21170
_cell_angle_alpha 90.00000
_cell_angle_beta  90.00000
_cell_angle_gamma 90.00000

_symmetry_space_group_name_	'P 1'
_symmetry_space_group_name_H-M	'P 1'

loop_
_symmetry_equiv_pos_as_xyz
  x,y,z

loop_
_atom_site_label
_atom_site_type_symbol
_atom_site_fract_x
_atom_site_fract_y
_atom_site_fract_z
_atom_site_charge
Al	Al	0.35705 0.61657 0.09137 2.38900
O 	O 	0.39311 0.64412 0.04026 -1.39100
O 	O 	0.28927 0.70900 0.09323 -0.75500
O 	O 	0.31729 0.59462 0.14495 -0.70800
O 	O 	0.44171 0.68295 0.11441 -0.68300
O 	O 	0.42205 0.52722 0.09238 -1.29900
H 	H 	0.43810 0.62170 0.03460 0.36600
C 	C 	0.29790 0.77573 0.07544 0.56800
O 	O 	0.31177 0.78340 0.03838 -0.78300
C 	C 	0.29320 0.84790 0.10028 -0.24500
C 	C 	0.29130 0.84248 0.14222 0.16400
C 	C 	0.29400 0.92364 0.08284 0.09800
C 	C 	0.29390 0.91030 0.16552 -0.24800
H 	H 	0.28840 0.79270 0.15450 -0.00700
C 	C 	0.29480 0.99130 0.10642 -0.11300
H 	H 	0.29400 0.92850 0.05490 0.00300
H 	H 	0.29460 0.90550 0.19340 0.13600
C 	C 	0.29550 0.98550 0.14830 0.21800
H 	H 	0.29480 0.04140 0.09430 0.01200
N 	N 	0.29770 0.05430 0.17181 -0.22800
C 	C 	0.26000 0.05604 0.21052 0.17500
C 	C 	0.34460 0.12170 0.15903 0.17600
C 	C 	0.30040 0.09250 0.24298 -0.24100
C 	C 	0.18200 0.02330 0.21596 -0.24300
C 	C 	0.31110 0.19780 0.16389 -0.23700
C 	C 	0.42330 0.11420 0.14307 -0.23800
C 	C 	0.26360 0.09370 0.28040 0.14800
H 	H 	0.35170 0.11580 0.23930 0.11000
C 	C 	0.14590 0.02410 0.25424 0.14100
H 	H 	0.15410 0.00110 0.19430 0.08400
H 	H 	0.25810 0.20380 0.17400 0.10000
C 	C 	0.35680 0.26410 0.15371 0.13900
C 	C 	0.46850 0.18030 0.13258 0.13800
H 	H 	0.44560 0.06370 0.13940 0.08900
C 	C 	0.18610 0.06010 0.28602 -0.24500
H 	H 	0.29070 0.11710 0.30200 -0.01900
H 	H 	0.09500 0.00030 0.25820 -0.02800
C 	C 	0.43560 0.25669 0.13720 -0.24100
H 	H 	0.33490 0.31470 0.15790 -0.01800
H 	H 	0.52120 0.17410 0.12230 -0.01700
C 	C 	0.14440 0.06148 0.32642 0.54700
C 	C 	0.48572 0.32890 0.12742 0.53000
O 	O 	0.07363 0.02969 0.32790 -0.70900
O 	O 	0.45224 0.39540 0.13323 -0.68100
H 	H 	0.08490 0.99350 0.42620 0.44200
Al	Al	0.64295 0.38343 0.09137 2.39100
O 	O 	0.60689 0.35588 0.04026 -1.38600
O 	O 	0.71073 0.29100 0.09323 -0.75300
O 	O 	0.68271 0.40538 0.14495 -0.69900
O 	O 	0.55829 0.31705 0.11441 -0.68400
O 	O 	0.57795 0.47278 0.09238 -1.29800
H 	H 	0.56190 0.37830 0.03460 0.36300
C 	C 	0.70210 0.22427 0.07544 0.60000
O 	O 	0.68823 0.21660 0.03838 -0.79200
C 	C 	0.70680 0.15210 0.10028 -0.32900
C 	C 	0.70870 0.15752 0.14222 0.22300
C 	C 	0.70600 0.07636 0.08284 0.27200
C 	C 	0.70610 0.08970 0.16552 -0.29800
H 	H 	0.71160 0.20730 0.15450 -0.02800
C 	C 	0.70520 0.00870 0.10642 -0.42900
H 	H 	0.70600 0.07150 0.05490 -0.07600
H 	H 	0.70540 0.09450 0.19340 0.12000
C 	C 	0.70450 0.01450 0.14830 0.22000
H 	H 	0.70520 0.95860 0.09430 0.21100
N 	N 	0.70230 0.94570 0.17181 -0.18900
C 	C 	0.74000 0.94396 0.21052 0.19900
C 	C 	0.65540 0.87830 0.15903 0.20800
C 	C 	0.69960 0.90750 0.24298 -0.22400
C 	C 	0.81800 0.97670 0.21596 -0.21200
C 	C 	0.68890 0.80220 0.16389 -0.25100
C 	C 	0.57670 0.88580 0.14307 -0.25500
C 	C 	0.73640 0.90630 0.28040 0.14600
H 	H 	0.64830 0.88420 0.23930 0.11800
C 	C 	0.85410 0.97590 0.25424 0.14000
H 	H 	0.84590 0.99890 0.19430 0.13500
H 	H 	0.74190 0.79620 0.17400 0.12300
C 	C 	0.64320 0.73590 0.15371 0.16000
C 	C 	0.53150 0.81970 0.13258 0.16400
H 	H 	0.55440 0.93630 0.13940 0.13500
C 	C 	0.81390 0.93990 0.28602 -0.20100
H 	H 	0.70930 0.88290 0.30200 -0.00400
H 	H 	0.90500 0.99970 0.25820 0.03800
C 	C 	0.56440 0.74331 0.13720 -0.24800
H 	H 	0.66510 0.68530 0.15790 -0.01500
H 	H 	0.47880 0.82590 0.12230 -0.01600
C 	C 	0.85560 0.93852 0.32642 0.53700
C 	C 	0.51428 0.67110 0.12742 0.53700
O 	O 	0.92637 0.97031 0.32790 -0.60400
O 	O 	0.54776 0.60460 0.13323 -0.67800
H 	H 	0.91510 0.00650 0.42620 0.29600
Al	Al	0.14295 0.11657 0.40863 2.39100
O 	O 	0.10689 0.14412 0.45974 -1.38400
O 	O 	0.21073 0.20900 0.40677 -0.75300
O 	O 	0.18271 0.09462 0.35505 -0.71300
O 	O 	0.05829 0.18295 0.38559 -0.75700
O 	O 	0.07795 0.02722 0.40762 -1.40600
H 	H 	0.06190 0.12170 0.46540 0.35000
C 	C 	0.20210 0.27573 0.42456 0.58100
O 	O 	0.18823 0.28340 0.46162 -0.77800
C 	C 	0.20680 0.34790 0.39972 -0.28100
C 	C 	0.20870 0.34248 0.35778 0.18700
C 	C 	0.20600 0.42364 0.41716 0.17700
C 	C 	0.20610 0.41030 0.33448 -0.27000
H 	H 	0.21160 0.29270 0.34550 -0.01900
C 	C 	0.20520 0.49130 0.39358 -0.26500
H 	H 	0.20600 0.42850 0.44510 -0.03000
H 	H 	0.20540 0.40550 0.30660 0.12000
C 	C 	0.20450 0.48550 0.35170 0.21100
H 	H 	0.20520 0.54140 0.40570 0.11200
N 	N 	0.20230 0.55430 0.32819 -0.19400
C 	C 	0.24000 0.55604 0.28948 0.18200
C 	C 	0.15540 0.62170 0.34097 0.10700
C 	C 	0.19960 0.59250 0.25702 -0.23100
C 	C 	0.31800 0.52330 0.28404 -0.22500
C 	C 	0.18890 0.69780 0.33611 -0.14900
C 	C 	0.07670 0.61420 0.35693 -0.08800
C 	C 	0.23640 0.59370 0.21960 0.14400
H 	H 	0.14830 0.61580 0.26070 0.10600
C 	C 	0.35410 0.52410 0.24576 0.13900
H 	H 	0.34590 0.50110 0.30570 0.11000
H 	H 	0.24190 0.70380 0.32600 0.08400
C 	C 	0.14320 0.76410 0.34629 0.03900
C 	C 	0.03150 0.68030 0.36742 -0.11200
H 	H 	0.05440 0.56370 0.36060 0.03600
C 	C 	0.31390 0.56010 0.21398 -0.22400
H 	H 	0.20930 0.61710 0.19800 -0.01700
H 	H 	0.40500 0.50030 0.24180 0.00500
C 	C 	0.06440 0.75669 0.36280 -0.10600
H 	H 	0.16510 0.81470 0.34210 0.03100
H 	H 	0.97880 0.67410 0.37770 0.12200
C 	C 	0.35560 0.56148 0.17358 0.54200
C 	C 	0.01428 0.82890 0.37258 0.39600
O 	O 	0.42637 0.52969 0.17210 -0.65900
O 	O 	0.04776 0.89540 0.36677 -0.64500
H 	H 	0.41510 0.49350 0.07380 0.36100
Al	Al	0.85705 0.88343 0.40863 2.39100
O 	O 	0.89311 0.85588 0.45974 -1.37200
O 	O 	0.78927 0.79100 0.40677 -0.74400
O 	O 	0.81729 0.90538 0.35505 -0.68900
O 	O 	0.94171 0.81705 0.38559 -0.60900
O 	O 	0.92205 0.97278 0.40762 -1.18700
H 	H 	0.93810 0.87830 0.46540 0.39300
C 	C 	0.79790 0.72427 0.42456 0.58100
O 	O 	0.81177 0.71660 0.46162 -0.76300
C 	C 	0.79320 0.65210 0.39972 -0.28100
C 	C 	0.79130 0.65752 0.35778 0.19400
C 	C 	0.79400 0.57636 0.41716 0.18800
C 	C 	0.79390 0.58970 0.33448 -0.27000
H 	H 	0.78840 0.70730 0.34550 -0.01300
C 	C 	0.79480 0.50870 0.39358 -0.26900
H 	H 	0.79400 0.57150 0.44510 -0.02500
H 	H 	0.79460 0.59450 0.30660 0.13400
C 	C 	0.79550 0.51450 0.35170 0.22500
H 	H 	0.79480 0.45860 0.40570 0.11800
N 	N 	0.79770 0.44570 0.32819 -0.22200
C 	C 	0.76000 0.44396 0.28948 0.19300
C 	C 	0.84460 0.37830 0.34097 0.27900
C 	C 	0.80040 0.40750 0.25702 -0.23600
C 	C 	0.68200 0.47670 0.28404 -0.23100
C 	C 	0.81110 0.30220 0.33611 -0.33700
C 	C 	0.92330 0.38580 0.35693 -0.40400
C 	C 	0.76360 0.40630 0.21960 0.15200
H 	H 	0.85170 0.38420 0.26070 0.12200
C 	C 	0.64590 0.47590 0.24576 0.14400
H 	H 	0.65410 0.49890 0.30570 0.11200
H 	H 	0.75810 0.29620 0.32600 0.14100
C 	C 	0.85680 0.23590 0.34629 0.26200
C 	C 	0.96850 0.31970 0.36742 0.41700
H 	H 	0.94560 0.43630 0.36060 0.18900
C 	C 	0.68610 0.43990 0.21398 -0.22400
H 	H 	0.79070 0.38290 0.19800 -0.00900
H 	H 	0.59500 0.49970 0.24180 0.00500
C 	C 	0.93560 0.24331 0.36280 -0.38000
H 	H 	0.83490 0.18530 0.34210 -0.06100
H 	H 	0.02120 0.32590 0.37770 -0.15200
C 	C 	0.64440 0.43852 0.17358 0.54400
C 	C 	0.98572 0.17110 0.37258 0.67300
O 	O 	0.57363 0.47031 0.17210 -0.65800
O 	O 	0.95224 0.10460 0.36677 -0.70800
H 	H 	0.58490 0.50650 0.07380 0.36600
Al	Al	0.64295 0.38343 0.90863 2.39100
O 	O 	0.60689 0.35588 0.95974 -1.36500
O 	O 	0.71073 0.29100 0.90677 -0.74300
O 	O 	0.68271 0.40538 0.85505 -0.69500
O 	O 	0.55829 0.31705 0.88559 -0.68200
O 	O 	0.57795 0.47278 0.90762 -1.29700
H 	H 	0.56190 0.37830 0.96540 0.37700
C 	C 	0.70210 0.22427 0.92456 0.59300
O 	O 	0.68823 0.21660 0.96162 -0.75700
C 	C 	0.70680 0.15210 0.89972 -0.31600
C 	C 	0.70870 0.15752 0.85778 0.21700
C 	C 	0.70600 0.07636 0.91716 0.26600
C 	C 	0.70610 0.08970 0.83448 -0.29200
H 	H 	0.71160 0.20730 0.84550 -0.02500
C 	C 	0.70520 0.00870 0.89358 -0.42000
H 	H 	0.70600 0.07150 0.94510 -0.05800
H 	H 	0.70540 0.09450 0.80660 0.11900
C 	C 	0.70450 0.01450 0.85170 0.21800
H 	H 	0.70520 0.95860 0.90570 0.21800
N 	N 	0.70230 0.94570 0.82819 -0.18800
C 	C 	0.74000 0.94396 0.78948 0.20000
C 	C 	0.65540 0.87830 0.84097 0.20900
C 	C 	0.69960 0.90750 0.75702 -0.22500
C 	C 	0.81800 0.97670 0.78404 -0.21200
C 	C 	0.68890 0.80220 0.83611 -0.24800
C 	C 	0.57670 0.88580 0.85693 -0.25300
C 	C 	0.73640 0.90630 0.71960 0.14700
H 	H 	0.64830 0.88420 0.76070 0.11800
C 	C 	0.85410 0.97590 0.74576 0.14200
H 	H 	0.84590 0.99890 0.80570 0.13800
H 	H 	0.74190 0.79620 0.82600 0.12500
C 	C 	0.64320 0.73590 0.84629 0.16100
C 	C 	0.53150 0.81970 0.86742 0.16600
H 	H 	0.55440 0.93630 0.86060 0.13600
C 	C 	0.81390 0.93990 0.71398 -0.20200
H 	H 	0.70930 0.88290 0.69800 -0.00400
H 	H 	0.90500 0.99970 0.74180 0.03800
C 	C 	0.56440 0.74331 0.86280 -0.24400
H 	H 	0.66510 0.68530 0.84210 -0.01300
H 	H 	0.47880 0.82590 0.87770 -0.01400
C 	C 	0.85560 0.93852 0.67358 0.53700
C 	C 	0.51428 0.67110 0.87258 0.53900
O 	O 	0.92637 0.97031 0.67210 -0.60400
O 	O 	0.54776 0.60460 0.86677 -0.67500
H 	H 	0.91510 0.00650 0.57380 0.29600
Al	Al	0.35705 0.61657 0.90863 2.39100
O 	O 	0.39311 0.64412 0.95974 -1.36900
O 	O 	0.28927 0.70900 0.90677 -0.74300
O 	O 	0.31729 0.59462 0.85505 -0.70300
O 	O 	0.44171 0.68295 0.88559 -0.68100
O 	O 	0.42205 0.52722 0.90762 -1.29800
H 	H 	0.43810 0.62170 0.96540 0.38000
C 	C 	0.29790 0.77573 0.92456 0.56100
O 	O 	0.31177 0.78340 0.96162 -0.74800
C 	C 	0.29320 0.84790 0.89972 -0.23200
C 	C 	0.29130 0.84248 0.85778 0.15700
C 	C 	0.29400 0.92364 0.91716 0.09300
C 	C 	0.29390 0.91030 0.83448 -0.24200
H 	H 	0.28840 0.79270 0.84550 -0.00400
C 	C 	0.29480 0.99130 0.89358 -0.10400
H 	H 	0.29400 0.92850 0.94510 0.02200
H 	H 	0.29460 0.90550 0.80660 0.13400
C 	C 	0.29550 0.98550 0.85170 0.21600
H 	H 	0.29480 0.04140 0.90570 0.01800
N 	N 	0.29770 0.05430 0.82819 -0.22700
C 	C 	0.26000 0.05604 0.78948 0.17600
C 	C 	0.34460 0.12170 0.84097 0.17800
C 	C 	0.30040 0.09250 0.75702 -0.24100
C 	C 	0.18200 0.02330 0.78404 -0.24300
C 	C 	0.31110 0.19780 0.83611 -0.23500
C 	C 	0.42330 0.11420 0.85693 -0.23600
C 	C 	0.26360 0.09370 0.71960 0.14900
H 	H 	0.35170 0.11580 0.76070 0.11000
C 	C 	0.14590 0.02410 0.74576 0.14200
H 	H 	0.15410 0.00110 0.80570 0.08600
H 	H 	0.25810 0.20380 0.82600 0.10200
C 	C 	0.35680 0.26410 0.84629 0.14100
C 	C 	0.46850 0.18030 0.86742 0.14000
H 	H 	0.44560 0.06370 0.86060 0.09100
C 	C 	0.18610 0.06010 0.71398 -0.24500
H 	H 	0.29070 0.11710 0.69800 -0.02000
H 	H 	0.09500 0.00030 0.74180 -0.02800
C 	C 	0.43560 0.25669 0.86280 -0.23800
H 	H 	0.33490 0.31470 0.84210 -0.01500
H 	H 	0.52120 0.17410 0.87770 -0.01400
C 	C 	0.14440 0.06148 0.67358 0.54800
C 	C 	0.48572 0.32890 0.87258 0.53200
O 	O 	0.07363 0.02969 0.67210 -0.70900
O 	O 	0.45224 0.39540 0.86677 -0.67800
H 	H 	0.08490 0.99350 0.57380 0.44200
Al	Al	0.85705 0.88343 0.59137 2.39100
O 	O 	0.89311 0.85588 0.54026 -1.37200
O 	O 	0.78927 0.79100 0.59323 -0.74400
O 	O 	0.81729 0.90538 0.64495 -0.68900
O 	O 	0.94171 0.81705 0.61441 -0.60900
O 	O 	0.92205 0.97278 0.59238 -1.18700
H 	H 	0.93810 0.87830 0.53460 0.39300
C 	C 	0.79790 0.72427 0.57544 0.58100
O 	O 	0.81177 0.71660 0.53838 -0.76300
C 	C 	0.79320 0.65210 0.60028 -0.28100
C 	C 	0.79130 0.65752 0.64222 0.19400
C 	C 	0.79400 0.57636 0.58284 0.18800
C 	C 	0.79390 0.58970 0.66552 -0.27000
H 	H 	0.78840 0.70730 0.65450 -0.01300
C 	C 	0.79480 0.50870 0.60642 -0.26900
H 	H 	0.79400 0.57150 0.55490 -0.02500
H 	H 	0.79460 0.59450 0.69340 0.13500
C 	C 	0.79550 0.51450 0.64830 0.22500
H 	H 	0.79480 0.45860 0.59430 0.11800
N 	N 	0.79770 0.44570 0.67181 -0.22200
C 	C 	0.76000 0.44396 0.71052 0.19300
C 	C 	0.84460 0.37830 0.65903 0.27900
C 	C 	0.80040 0.40750 0.74298 -0.23500
C 	C 	0.68200 0.47670 0.71596 -0.23100
C 	C 	0.81110 0.30220 0.66389 -0.33700
C 	C 	0.92330 0.38580 0.64307 -0.40400
C 	C 	0.76360 0.40630 0.78040 0.15100
H 	H 	0.85170 0.38420 0.73930 0.12300
C 	C 	0.64590 0.47590 0.75424 0.14300
H 	H 	0.65410 0.49890 0.69430 0.11200
H 	H 	0.75810 0.29620 0.67400 0.14100
C 	C 	0.85680 0.23590 0.65371 0.26200
C 	C 	0.96850 0.31970 0.63258 0.41700
H 	H 	0.94560 0.43630 0.63940 0.18900
C 	C 	0.68610 0.43990 0.78602 -0.22300
H 	H 	0.79070 0.38290 0.80200 -0.00600
H 	H 	0.59500 0.49970 0.75820 0.00500
C 	C 	0.93560 0.24331 0.63720 -0.38000
H 	H 	0.83490 0.18530 0.65790 -0.06100
H 	H 	0.02120 0.32590 0.62230 -0.15200
C 	C 	0.64440 0.43852 0.82642 0.54300
C 	C 	0.98572 0.17110 0.62742 0.67300
O 	O 	0.57363 0.47031 0.82790 -0.65700
O 	O 	0.95224 0.10460 0.63323 -0.70800
H 	H 	0.58490 0.50650 0.92620 0.37700
Al	Al	0.14295 0.11657 0.59137 2.39100
O 	O 	0.10689 0.14412 0.54026 -1.38400
O 	O 	0.21073 0.20900 0.59323 -0.75300
O 	O 	0.18271 0.09462 0.64495 -0.71300
O 	O 	0.05829 0.18295 0.61441 -0.75700
O 	O 	0.07795 0.02722 0.59238 -1.40600
H 	H 	0.06190 0.12170 0.53460 0.35000
C 	C 	0.20210 0.27573 0.57544 0.58100
O 	O 	0.18823 0.28340 0.53838 -0.77800
C 	C 	0.20680 0.34790 0.60028 -0.28100
C 	C 	0.20870 0.34248 0.64222 0.18700
C 	C 	0.20600 0.42364 0.58284 0.17700
C 	C 	0.20610 0.41030 0.66552 -0.27000
H 	H 	0.21160 0.29270 0.65450 -0.01900
C 	C 	0.20520 0.49130 0.60642 -0.26500
H 	H 	0.20600 0.42850 0.55490 -0.03000
H 	H 	0.20540 0.40550 0.69340 0.12100
C 	C 	0.20450 0.48550 0.64830 0.21100
H 	H 	0.20520 0.54140 0.59430 0.11200
N 	N 	0.20230 0.55430 0.67181 -0.19400
C 	C 	0.24000 0.55604 0.71052 0.18200
C 	C 	0.15540 0.62170 0.65903 0.10700
C 	C 	0.19960 0.59250 0.74298 -0.22900
C 	C 	0.31800 0.52330 0.71596 -0.22400
C 	C 	0.18890 0.69780 0.66389 -0.14900
C 	C 	0.07670 0.61420 0.64307 -0.08800
C 	C 	0.23640 0.59370 0.78040 0.14300
H 	H 	0.14830 0.61580 0.73930 0.10600
C 	C 	0.35410 0.52410 0.75424 0.13800
H 	H 	0.34590 0.50110 0.69430 0.10900
H 	H 	0.24190 0.70380 0.67400 0.08400
C 	C 	0.14320 0.76410 0.65371 0.03900
C 	C 	0.03150 0.68030 0.63258 -0.11200
H 	H 	0.05440 0.56370 0.63940 0.03600
C 	C 	0.31390 0.56010 0.78602 -0.22200
H 	H 	0.20930 0.61710 0.80200 -0.01400
H 	H 	0.40500 0.50030 0.75820 0.00500
C 	C 	0.06440 0.75669 0.63720 -0.10600
H 	H 	0.16510 0.81470 0.65790 0.03100
H 	H 	0.97880 0.67410 0.62230 0.12200
C 	C 	0.35560 0.56148 0.82642 0.54200
C 	C 	0.01428 0.82890 0.62742 0.39600
O 	O 	0.42637 0.52969 0.82790 -0.65800
O 	O 	0.04776 0.89540 0.63323 -0.64500
H 	H 	0.41510 0.49350 0.92620 0.37200
Al	Al	0.35382 0.70892 -0.00000 2.37900
Al	Al	0.64618 0.29108 -0.00000 2.37900
Al	Al	0.14618 0.20892 0.50000 2.38100
Al	Al	0.85382 0.79108 0.50000 2.38300
Al	Al	-0.00000 0.00000 0.36977 2.39400
Al	Al	0.50000 0.50000 0.13023 2.40300
Al	Al	0.00000 0.00000 0.63023 2.39400
Al	Al	0.50000 0.50000 0.86977 2.40300
