data_crystal

_cell_length_a 13.46400
_cell_length_b 19.71700
_cell_length_c 29.98500
_cell_angle_alpha 90.00000
_cell_angle_beta  90.00000
_cell_angle_gamma 90.00000

_symmetry_space_group_name_	'P 1'
_symmetry_space_group_name_H-M	'P 1'

loop_
_symmetry_equiv_pos_as_xyz
  x,y,z

loop_
_atom_site_label
_atom_site_type_symbol
_atom_site_fract_x
_atom_site_fract_y
_atom_site_fract_z
_atom_site_charge
Cu	Cu	0.11557 0.46943 0.64195 0.89900
Cu	Cu	0.56885 0.46836 0.61918 0.92500
Cu	Cu	0.34981 0.46895 0.69931 0.90800
Cu	Cu	0.02667 0.96990 0.54216 0.84300
Cu	Cu	0.88443 0.46943 0.35805 0.89900
Cu	Cu	0.43115 0.46836 0.38082 0.92500
Cu	Cu	0.65019 0.46895 0.30069 0.90800
Cu	Cu	0.97333 0.96990 0.45784 0.85000
Cu	Cu	0.61557 0.96943 0.85805 0.85200
Cu	Cu	0.06885 0.96836 0.88082 0.87500
Cu	Cu	0.84981 0.96895 0.80069 0.85900
Cu	Cu	0.52667 0.46990 0.95784 0.90200
Cu	Cu	0.38443 0.96943 0.14195 0.85000
Cu	Cu	0.93115 0.96836 0.11918 0.87600
Cu	Cu	0.15019 0.96895 0.19931 0.85700
Cu	Cu	0.47333 0.46990 0.04216 0.90000
Cu	Cu	0.50000 0.47202 0.50000 0.88200
Cu	Cu	-0.00000 0.97202 -0.00000 0.83000
H 	H 	0.76470 0.13730 0.46310 0.06600
H 	H 	0.67660 0.23670 0.47520 0.06600
H 	H 	0.78080 0.24430 0.60070 0.06300
H 	H 	0.86890 0.14490 0.58850 0.06200
H 	H 	0.18500 0.13980 0.82160 0.06500
H 	H 	0.23980 0.23890 0.78780 0.05800
H 	H 	0.00660 0.23330 0.70430 0.05400
H 	H 	0.95180 0.13420 0.73800 0.07800
H 	H 	0.21310 0.36610 0.50970 0.06700
H 	H 	0.10470 0.36910 0.44960 0.04300
H 	H 	0.07710 0.57080 0.46390 0.04200
H 	H 	0.18550 0.56790 0.52400 0.06800
H 	H 	0.24290 0.70640 0.78550 0.12700
H 	H 	0.18960 0.80940 0.81330 -0.04100
H 	H 	0.93260 0.78840 0.75460 -0.05100
H 	H 	0.98440 0.68620 0.72190 0.15000
H 	H 	0.75450 0.81150 0.45980 0.02200
H 	H 	0.66360 0.71300 0.47090 0.07800
H 	H 	0.73220 0.71730 0.60130 0.07600
H 	H 	0.82310 0.81580 0.59020 0.02000
H 	H 	0.23530 0.13730 0.53690 0.06500
H 	H 	0.32340 0.23670 0.52480 0.06600
H 	H 	0.21920 0.24430 0.39930 0.06100
H 	H 	0.13110 0.14490 0.41150 0.05900
H 	H 	0.81500 0.13980 0.17840 0.05700
H 	H 	0.76020 0.23890 0.21220 0.06500
H 	H 	0.99340 0.23330 0.29570 0.07000
H 	H 	0.04820 0.13420 0.26200 0.04900
H 	H 	0.78690 0.36610 0.49030 0.07000
H 	H 	0.89530 0.36910 0.55040 0.04200
H 	H 	0.92290 0.57080 0.53610 0.04200
H 	H 	0.81450 0.56790 0.47600 0.07200
H 	H 	0.75710 0.70640 0.21450 0.10000
H 	H 	0.81040 0.80940 0.18670 -0.01400
H 	H 	0.06740 0.78840 0.24540 -0.00500
H 	H 	0.01560 0.68620 0.27810 0.09000
H 	H 	0.24550 0.81150 0.54020 0.02000
H 	H 	0.33640 0.71300 0.52910 0.07800
H 	H 	0.26780 0.71730 0.39870 0.07600
H 	H 	0.17690 0.81580 0.40980 0.01800
H 	H 	0.26470 0.63730 0.03690 0.05100
H 	H 	0.17660 0.73670 0.02480 0.06600
H 	H 	0.28080 0.74430 0.89930 0.06200
H 	H 	0.36890 0.64490 0.91150 0.04700
H 	H 	0.68500 0.63980 0.67840 0.05100
H 	H 	0.73980 0.73890 0.71220 0.05800
H 	H 	0.50660 0.73330 0.79570 0.05900
H 	H 	0.45180 0.63420 0.76200 0.05100
H 	H 	0.71310 0.86610 0.99030 0.04500
H 	H 	0.60470 0.86910 0.05040 0.05000
H 	H 	0.57710 0.07080 0.03610 0.02800
H 	H 	0.68550 0.06790 0.97600 0.03100
H 	H 	0.74290 0.20640 0.71450 0.12000
H 	H 	0.68960 0.30940 0.68670 -0.01500
H 	H 	0.43260 0.28840 0.74540 -0.02000
H 	H 	0.48440 0.18620 0.77810 0.12700
H 	H 	0.25450 0.31150 0.04020 0.03600
H 	H 	0.16360 0.21300 0.02910 0.08600
H 	H 	0.23220 0.21730 0.89870 0.08000
H 	H 	0.32310 0.31580 0.90980 0.03300
H 	H 	0.73530 0.63730 0.96310 0.05100
H 	H 	0.82340 0.73670 0.97520 0.06600
H 	H 	0.71920 0.74430 0.10070 0.05900
H 	H 	0.63110 0.64490 0.08850 0.04700
H 	H 	0.31500 0.63980 0.32160 0.05000
H 	H 	0.26020 0.73890 0.28780 0.05600
H 	H 	0.49340 0.73330 0.20430 0.05800
H 	H 	0.54820 0.63420 0.23800 0.05200
H 	H 	0.28690 0.86610 0.00970 0.05900
H 	H 	0.39530 0.86910 0.94960 0.03300
H 	H 	0.42290 0.07080 0.96390 0.01300
H 	H 	0.31450 0.06790 0.02400 0.04500
H 	H 	0.25710 0.20640 0.28550 0.11800
H 	H 	0.31040 0.30940 0.31330 -0.01600
H 	H 	0.56740 0.28840 0.25460 -0.02000
H 	H 	0.51560 0.18620 0.22190 0.12700
H 	H 	0.74550 0.31150 0.95980 0.03600
H 	H 	0.83640 0.21300 0.97090 0.08500
H 	H 	0.76780 0.21730 0.10130 0.07800
H 	H 	0.67690 0.31580 0.09020 0.03400
C 	C 	0.66820 0.31250 0.54650 0.12900
C 	C 	0.76790 0.15880 0.49060 -0.01400
C 	C 	0.71520 0.21830 0.49790 -0.05100
C 	C 	0.72000 0.25040 0.53920 -0.00000
C 	C 	0.77760 0.22280 0.57310 -0.05100
C 	C 	0.83030 0.16330 0.56580 -0.01200
C 	C 	0.82550 0.13120 0.52460 -0.03500
C 	C 	0.88120 0.06400 0.51680 0.28700
C 	C 	0.86880 0.87980 0.51400 0.35200
C 	C 	0.01920 0.06260 0.80380 0.25900
C 	C 	0.06300 0.12720 0.78310 -0.01800
C 	C 	0.14930 0.15860 0.79800 -0.02400
C 	C 	0.18210 0.21790 0.77780 -0.04700
C 	C 	0.12860 0.24590 0.74270 0.00100
C 	C 	0.04230 0.21450 0.72780 -0.03900
C 	C 	0.00950 0.15520 0.74800 -0.04300
C 	C 	0.17110 0.63260 0.72010 0.06800
C 	C 	0.15360 0.31470 0.72700 0.11700
C 	C 	0.28180 0.46700 0.55990 0.11600
C 	C 	0.21010 0.46670 0.52278 0.00200
C 	C 	0.18590 0.40710 0.50050 -0.07100
C 	C 	0.12090 0.40890 0.46450 0.01200
C 	C 	0.08010 0.47020 0.45077 -0.09300
C 	C 	0.10430 0.52980 0.47310 0.01900
C 	C 	0.16930 0.52800 0.50910 -0.07200
C 	C 	0.00710 0.46310 0.41420 0.31600
C 	C 	0.12360 0.69110 0.74760 0.16900
C 	C 	0.18160 0.72400 0.77720 -0.26600
C 	C 	0.14800 0.78430 0.79480 0.22000
C 	C 	0.05390 0.80840 0.78560 -0.36300
C 	C 	0.99670 0.77280 0.75990 0.28800
C 	C 	0.02720 0.71150 0.73970 -0.29900
C 	C 	0.03170 0.87520 0.81270 0.75600
C 	C 	0.79780 0.82340 0.52400 -0.12500
C 	C 	0.75000 0.79260 0.48820 0.04500
C 	C 	0.69560 0.73360 0.49480 -0.11400
C 	C 	0.68890 0.70530 0.53720 0.04800
C 	C 	0.73660 0.73610 0.57290 -0.11300
C 	C 	0.79110 0.79520 0.56630 0.04600
C 	C 	0.64910 0.63820 0.54360 0.07800
C 	C 	0.33180 0.31250 0.45350 0.12900
C 	C 	0.23210 0.15880 0.50940 -0.01400
C 	C 	0.28480 0.21830 0.50210 -0.05200
C 	C 	0.28000 0.25040 0.46080 -0.00000
C 	C 	0.22240 0.22280 0.42690 -0.05200
C 	C 	0.16970 0.16330 0.43420 -0.01200
C 	C 	0.17450 0.13120 0.47540 -0.03700
C 	C 	0.11880 0.06400 0.48320 0.28700
C 	C 	0.13120 0.87980 0.48600 0.35300
C 	C 	0.98080 0.06260 0.19620 0.28600
C 	C 	0.93700 0.12720 0.21690 -0.04400
C 	C 	0.85070 0.15860 0.20200 -0.00200
C 	C 	0.81790 0.21790 0.22220 -0.06600
C 	C 	0.87140 0.24590 0.25730 0.02000
C 	C 	0.95770 0.21450 0.27220 -0.07100
C 	C 	0.99050 0.15520 0.25200 0.01100
C 	C 	0.82890 0.63260 0.27990 0.09100
C 	C 	0.84640 0.31470 0.27300 0.11300
C 	C 	0.71820 0.46700 0.44010 0.11400
C 	C 	0.78990 0.46670 0.47722 0.00900
C 	C 	0.81410 0.40710 0.49950 -0.07800
C 	C 	0.87910 0.40890 0.53550 0.02500
C 	C 	0.91990 0.47020 0.54923 -0.10800
C 	C 	0.89570 0.52980 0.52690 0.03300
C 	C 	0.83070 0.52800 0.49090 -0.07900
C 	C 	0.99290 0.46310 0.58580 0.36100
C 	C 	0.87640 0.69110 0.25240 0.09500
C 	C 	0.81840 0.72400 0.22280 -0.18600
C 	C 	0.85200 0.78430 0.20520 0.13900
C 	C 	0.94610 0.80840 0.21440 -0.26500
C 	C 	0.00330 0.77280 0.24010 0.14300
C 	C 	0.97280 0.71150 0.26030 -0.16000
C 	C 	0.96830 0.87520 0.18730 0.73900
C 	C 	0.20220 0.82340 0.47600 -0.12800
C 	C 	0.25000 0.79260 0.51180 0.04700
C 	C 	0.30440 0.73360 0.50520 -0.11600
C 	C 	0.31110 0.70530 0.46280 0.04900
C 	C 	0.26340 0.73610 0.42710 -0.11500
C 	C 	0.20890 0.79520 0.43370 0.04700
C 	C 	0.35090 0.63820 0.45640 0.07700
C 	C 	0.16820 0.81250 0.95350 0.12100
C 	C 	0.26790 0.65880 0.00940 -0.01200
C 	C 	0.21520 0.71830 0.00210 -0.07400
C 	C 	0.22000 0.75040 0.96080 0.01400
C 	C 	0.27760 0.72280 0.92690 -0.06700
C 	C 	0.33030 0.66330 0.93420 -0.00300
C 	C 	0.32550 0.63120 0.97540 -0.05100
C 	C 	0.38120 0.56400 0.98320 0.30400
C 	C 	0.36880 0.37980 0.98600 0.36900
C 	C 	0.51920 0.56260 0.69620 0.27100
C 	C 	0.56300 0.62720 0.71690 -0.04800
C 	C 	0.64930 0.65860 0.70200 -0.01100
C 	C 	0.68210 0.71790 0.72220 -0.06800
C 	C 	0.62860 0.74590 0.75730 0.01000
C 	C 	0.54230 0.71450 0.77220 -0.06700
C 	C 	0.50950 0.65520 0.75200 -0.01300
C 	C 	0.67110 0.13260 0.77990 0.09000
C 	C 	0.65360 0.81470 0.77300 0.10400
C 	C 	0.78180 0.96700 0.94010 0.14400
C 	C 	0.71010 0.96670 0.97722 -0.17700
C 	C 	0.68590 0.90710 0.99950 -0.00000
C 	C 	0.62090 0.90890 0.03550 -0.01400
C 	C 	0.58010 0.97020 0.04923 -0.19700
C 	C 	0.60430 0.02980 0.02690 0.10800
C 	C 	0.66930 0.02800 0.99090 0.11400
C 	C 	0.50710 0.96310 0.08580 0.22900
C 	C 	0.62360 0.19110 0.75240 0.13800
C 	C 	0.68160 0.22400 0.72280 -0.21600
C 	C 	0.64800 0.28430 0.70520 0.17800
C 	C 	0.55390 0.30840 0.71440 -0.29700
C 	C 	0.49670 0.27280 0.74010 0.21200
C 	C 	0.52720 0.21150 0.76030 -0.22000
C 	C 	0.53170 0.37520 0.68730 0.74300
C 	C 	0.29780 0.32340 0.97600 -0.10400
C 	C 	0.25000 0.29260 0.01180 0.03700
C 	C 	0.19560 0.23360 0.00520 -0.11400
C 	C 	0.18890 0.20530 0.96280 0.05800
C 	C 	0.23660 0.23610 0.92710 -0.10600
C 	C 	0.29110 0.29520 0.93370 0.04400
C 	C 	0.14910 0.13820 0.95640 0.08400
C 	C 	0.83180 0.81250 0.04650 0.12600
C 	C 	0.73210 0.65880 0.99060 0.00100
C 	C 	0.78480 0.71830 0.99790 -0.05400
C 	C 	0.78000 0.75040 0.03920 -0.00500
C 	C 	0.72240 0.72280 0.07310 -0.06100
C 	C 	0.66970 0.66330 0.06580 -0.00400
C 	C 	0.67450 0.63120 0.02460 -0.06300
C 	C 	0.61880 0.56400 0.01680 0.29100
C 	C 	0.63120 0.37980 0.01400 0.35200
C 	C 	0.48080 0.56260 0.30380 0.27100
C 	C 	0.43700 0.62720 0.28310 -0.04800
C 	C 	0.35070 0.65860 0.29800 -0.01200
C 	C 	0.31790 0.71790 0.27780 -0.06800
C 	C 	0.37140 0.74590 0.24270 0.00800
C 	C 	0.45770 0.71450 0.22780 -0.06600
C 	C 	0.49050 0.65520 0.24800 -0.01400
C 	C 	0.32890 0.13260 0.22010 0.08900
C 	C 	0.34640 0.81470 0.22700 0.10300
C 	C 	0.21820 0.96700 0.05990 0.13000
C 	C 	0.28990 0.96670 0.02278 -0.14600
C 	C 	0.31410 0.90710 0.00050 -0.05700
C 	C 	0.37910 0.90890 0.96450 0.04200
C 	C 	0.41990 0.97020 0.95077 -0.23100
C 	C 	0.39570 0.02980 0.97310 0.16100
C 	C 	0.33070 0.02800 0.00910 0.06300
C 	C 	0.49290 0.96310 0.91420 0.24400
C 	C 	0.37640 0.19110 0.24760 0.13700
C 	C 	0.31840 0.22400 0.27720 -0.21700
C 	C 	0.35200 0.28430 0.29480 0.17700
C 	C 	0.44610 0.30840 0.28560 -0.29700
C 	C 	0.50330 0.27280 0.25990 0.21200
C 	C 	0.47280 0.21150 0.23970 -0.22000
C 	C 	0.46830 0.37520 0.31270 0.74300
C 	C 	0.70220 0.32340 0.02400 -0.11200
C 	C 	0.75000 0.29260 0.98820 0.04900
C 	C 	0.80440 0.23360 0.99480 -0.09400
C 	C 	0.81110 0.20530 0.03720 0.04100
C 	C 	0.76340 0.23610 0.07290 -0.09900
C 	C 	0.70890 0.29520 0.06630 0.04200
C 	C 	0.85090 0.13820 0.04360 0.08800
N 	N 	0.65970 0.34180 0.58350 -0.09600
N 	N 	0.62320 0.34330 0.51280 -0.10300
N 	N 	0.58190 0.39260 0.53410 -0.12400
N 	N 	0.60220 0.39600 0.57330 -0.13200
N 	N 	0.41170 0.47610 0.59930 -0.12900
N 	N 	0.37780 0.47490 0.55724 -0.15400
N 	N 	0.25250 0.47800 0.60300 -0.17000
N 	N 	0.33830 0.46750 0.62700 -0.13900
N 	N 	0.59690 0.59950 0.51130 -0.08500
N 	N 	0.57080 0.53640 0.53110 -0.17300
N 	N 	0.60700 0.53620 0.57550 -0.15700
N 	N 	0.65540 0.59910 0.58330 -0.08400
N 	N 	0.15430 0.54230 0.68410 -0.15500
N 	N 	0.24400 0.54450 0.70390 -0.14300
N 	N 	0.24790 0.60250 0.72850 -0.09200
N 	N 	0.09870 0.59690 0.69260 -0.08900
N 	N 	0.16650 0.39810 0.68130 -0.16200
N 	N 	0.23930 0.39770 0.71040 -0.13100
N 	N 	0.24180 0.34800 0.73700 -0.08800
N 	N 	0.11350 0.34540 0.69580 -0.10100
N 	N 	0.34030 0.34180 0.41650 -0.09700
N 	N 	0.37680 0.34330 0.48720 -0.10300
N 	N 	0.41810 0.39260 0.46590 -0.12400
N 	N 	0.39780 0.39600 0.42670 -0.13200
N 	N 	0.58830 0.47610 0.40070 -0.12900
N 	N 	0.62220 0.47490 0.44276 -0.15300
N 	N 	0.74750 0.47800 0.39700 -0.16900
N 	N 	0.66170 0.46750 0.37300 -0.13900
N 	N 	0.40310 0.59950 0.48870 -0.08500
N 	N 	0.42920 0.53640 0.46890 -0.17300
N 	N 	0.39300 0.53620 0.42450 -0.15700
N 	N 	0.34460 0.59910 0.41670 -0.08500
N 	N 	0.84570 0.54230 0.31590 -0.15500
N 	N 	0.75600 0.54450 0.29610 -0.14300
N 	N 	0.75210 0.60250 0.27150 -0.09600
N 	N 	0.90130 0.59690 0.30740 -0.08900
N 	N 	0.83350 0.39810 0.31870 -0.16100
N 	N 	0.76070 0.39770 0.28960 -0.13100
N 	N 	0.75820 0.34800 0.26300 -0.08700
N 	N 	0.88650 0.34540 0.30420 -0.09800
N 	N 	0.15970 0.84180 0.91650 -0.10000
N 	N 	0.12320 0.84330 0.98720 -0.10100
N 	N 	0.08190 0.89260 0.96590 -0.13200
N 	N 	0.10220 0.89600 0.92670 -0.14500
N 	N 	0.91170 0.97610 0.90070 -0.15000
N 	N 	0.87780 0.97490 0.94276 -0.18200
N 	N 	0.75250 0.97800 0.89700 -0.20200
N 	N 	0.83830 0.96750 0.87300 -0.15600
N 	N 	0.09690 0.09950 0.98870 -0.07000
N 	N 	0.07080 0.03640 0.96890 -0.12400
N 	N 	0.10700 0.03620 0.92450 -0.11400
N 	N 	0.15540 0.09910 0.91670 -0.07500
N 	N 	0.65430 0.04230 0.81590 -0.11400
N 	N 	0.74400 0.04450 0.79610 -0.10400
N 	N 	0.74790 0.10250 0.77150 -0.08500
N 	N 	0.59870 0.09690 0.80740 -0.07700
N 	N 	0.66650 0.89810 0.81870 -0.17500
N 	N 	0.73930 0.89770 0.78960 -0.14600
N 	N 	0.74180 0.84800 0.76300 -0.09500
N 	N 	0.61350 0.84540 0.80420 -0.10600
N 	N 	0.84030 0.84180 0.08350 -0.10200
N 	N 	0.87680 0.84330 0.01280 -0.10500
N 	N 	0.91810 0.89260 0.03410 -0.13200
N 	N 	0.89780 0.89600 0.07330 -0.14400
N 	N 	0.08830 0.97610 0.09930 -0.15600
N 	N 	0.12220 0.97490 0.05724 -0.18600
N 	N 	0.24750 0.97800 0.10300 -0.20100
N 	N 	0.16170 0.96750 0.12700 -0.15800
N 	N 	0.90310 0.09950 0.01130 -0.07300
N 	N 	0.92920 0.03640 0.03110 -0.12400
N 	N 	0.89300 0.03620 0.07550 -0.11300
N 	N 	0.84460 0.09910 0.08330 -0.07600
N 	N 	0.34570 0.04230 0.18410 -0.11400
N 	N 	0.25600 0.04450 0.20390 -0.10400
N 	N 	0.25210 0.10250 0.22850 -0.08600
N 	N 	0.40130 0.09690 0.19260 -0.07700
N 	N 	0.33350 0.89810 0.18130 -0.17500
N 	N 	0.26070 0.89770 0.21040 -0.14700
N 	N 	0.25820 0.84800 0.23700 -0.09700
N 	N 	0.38650 0.84540 0.19580 -0.10700
O 	O 	0.94270 0.03790 0.78690 -0.32300
O 	O 	0.09250 0.03020 0.83280 -0.27800
O 	O 	0.94670 0.89370 0.79690 -0.50400
O 	O 	0.06510 0.89580 0.83860 -0.69200
O 	O 	0.91530 0.03890 0.54970 -0.33500
O 	O 	0.86950 0.03540 0.47530 -0.31000
O 	O 	0.97410 0.41770 0.39680 -0.40200
O 	O 	0.97380 0.52520 0.39840 -0.33400
O 	O 	0.88940 0.89610 0.47670 -0.43300
O 	O 	0.93510 0.89730 0.54630 -0.40300
O 	O 	0.05730 0.03790 0.21310 -0.33900
O 	O 	0.90750 0.03020 0.16720 -0.28100
O 	O 	0.05330 0.89370 0.20310 -0.51300
O 	O 	0.93490 0.89580 0.16140 -0.68000
O 	O 	0.08470 0.03890 0.45030 -0.34000
O 	O 	0.13050 0.03540 0.52470 -0.31300
O 	O 	0.02590 0.41770 0.60320 -0.42800
O 	O 	0.02620 0.52520 0.60160 -0.35400
O 	O 	0.11060 0.89610 0.52330 -0.43900
O 	O 	0.06490 0.89730 0.45370 -0.41100
O 	O 	0.44270 0.53790 0.71310 -0.39300
O 	O 	0.59250 0.53020 0.66720 -0.34500
O 	O 	0.44670 0.39370 0.70310 -0.48300
O 	O 	0.56510 0.39580 0.66140 -0.65800
O 	O 	0.41530 0.53890 0.95030 -0.39900
O 	O 	0.36950 0.53540 0.02470 -0.38100
O 	O 	0.47410 0.91770 0.10320 -0.39800
O 	O 	0.47380 0.02520 0.10160 -0.22300
O 	O 	0.38940 0.39610 0.02330 -0.41800
O 	O 	0.43510 0.39730 0.95370 -0.38100
O 	O 	0.55730 0.53790 0.28690 -0.39300
O 	O 	0.40750 0.53020 0.33280 -0.34500
O 	O 	0.55330 0.39370 0.29690 -0.48300
O 	O 	0.43490 0.39580 0.33860 -0.65800
O 	O 	0.58470 0.53890 0.04970 -0.39700
O 	O 	0.63050 0.53540 0.97530 -0.36800
O 	O 	0.52590 0.91770 0.89680 -0.40200
O 	O 	0.52620 0.02520 0.89840 -0.22500
O 	O 	0.61060 0.39610 0.97670 -0.40200
O 	O 	0.56490 0.39730 0.04630 -0.38000
