data_crystal

_cell_length_a 7.52730
_cell_length_b 9.65200
_cell_length_c 22.10600
_cell_angle_alpha 90.00000
_cell_angle_beta  90.00000
_cell_angle_gamma 110.75900

_symmetry_space_group_name_	'P 1'
_symmetry_space_group_name_H-M	'P 1'

loop_
_symmetry_equiv_pos_as_xyz
  x,y,z

loop_
_atom_site_label
_atom_site_type_symbol
_atom_site_fract_x
_atom_site_fract_y
_atom_site_fract_z
_atom_site_charge
Mn	Mn	0.63094 0.65031 0.75367 1.27000
Mn	Mn	0.86906 0.34969 0.25367 1.27000
Mn	Mn	0.36906 0.34969 0.24633 1.27000
Mn	Mn	0.13094 0.65031 0.74633 1.27000
H 	H 	0.10350 0.62240 0.60730 0.02700
H 	H 	0.55660 0.42840 0.56030 0.03400
H 	H 	0.64290 0.37400 0.46650 0.06900
H 	H 	0.77310 0.92730 0.90530 0.05600
H 	H 	0.28070 0.87980 0.90720 0.03600
H 	H 	0.66750 0.03300 0.99590 0.05900
H 	H 	0.39650 0.37760 0.10730 0.02700
H 	H 	0.94340 0.57160 0.06030 0.03400
H 	H 	0.85710 0.62600 0.96650 0.06900
H 	H 	0.72690 0.07270 0.40530 0.05600
H 	H 	0.21930 0.12020 0.40720 0.03500
H 	H 	0.83250 0.96700 0.49590 0.06100
H 	H 	0.89650 0.37760 0.39270 0.02700
H 	H 	0.44340 0.57160 0.43970 0.03400
H 	H 	0.35710 0.62600 0.53350 0.06900
H 	H 	0.22690 0.07270 0.09470 0.05600
H 	H 	0.71930 0.12020 0.09280 0.03600
H 	H 	0.33250 0.96700 0.00410 0.05900
H 	H 	0.60350 0.62240 0.89270 0.02700
H 	H 	0.05660 0.42840 0.93970 0.03400
H 	H 	0.14290 0.37400 0.03350 0.06900
H 	H 	0.27310 0.92730 0.59470 0.05600
H 	H 	0.78070 0.87980 0.59280 0.03500
H 	H 	0.16750 0.03300 0.50410 0.06100
C 	C 	0.76070 0.56231 0.65478 0.35000
C 	C 	0.82450 0.53013 0.59373 -0.10700
C 	C 	0.01210 0.57143 0.57910 -0.03200
C 	C 	0.68460 0.45540 0.55052 0.02400
C 	C 	0.73640 0.42280 0.49454 -0.09700
C 	C 	0.07030 0.53797 0.52137 0.02300
C 	C 	0.98230 0.83135 0.83371 0.38700
C 	C 	0.02100 0.89740 0.89631 -0.09300
C 	C 	0.88590 0.93738 0.92524 -0.03600
C 	C 	0.91470 0.99381 0.98498 0.02300
C 	C 	0.18980 0.90840 0.92666 0.01400
C 	C 	0.77930 0.03910 0.01550 -0.08900
C 	C 	0.73930 0.43769 0.15478 0.35000
C 	C 	0.67550 0.46987 0.09373 -0.10700
C 	C 	0.48790 0.42857 0.07910 -0.03100
C 	C 	0.81540 0.54460 0.05052 0.02400
C 	C 	0.76360 0.57720 0.99454 -0.09800
C 	C 	0.42970 0.46203 0.02137 0.02300
C 	C 	0.51770 0.16865 0.33371 0.38800
C 	C 	0.47900 0.10260 0.39631 -0.09600
C 	C 	0.61410 0.06262 0.42524 -0.03500
C 	C 	0.58530 0.00619 0.48498 0.02500
C 	C 	0.31020 0.09160 0.42666 0.01700
C 	C 	0.72070 0.96090 0.51550 -0.09400
C 	C 	0.23930 0.43769 0.34522 0.35000
C 	C 	0.17550 0.46987 0.40627 -0.10700
C 	C 	0.98790 0.42857 0.42090 -0.03200
C 	C 	0.31540 0.54460 0.44948 0.02400
C 	C 	0.26360 0.57720 0.50546 -0.09700
C 	C 	0.92970 0.46203 0.47863 0.02300
C 	C 	0.01770 0.16865 0.16629 0.38700
C 	C 	0.97900 0.10260 0.10369 -0.09300
C 	C 	0.11410 0.06262 0.07476 -0.03600
C 	C 	0.08530 0.00619 0.01502 0.02300
C 	C 	0.81020 0.09160 0.07334 0.01400
C 	C 	0.22070 0.96090 0.98450 -0.08900
C 	C 	0.26070 0.56231 0.84522 0.35000
C 	C 	0.32450 0.53013 0.90627 -0.10700
C 	C 	0.51210 0.57143 0.92090 -0.03100
C 	C 	0.18460 0.45540 0.94948 0.02400
C 	C 	0.23640 0.42280 0.00546 -0.09800
C 	C 	0.57030 0.53797 0.97863 0.02300
C 	C 	0.48230 0.83135 0.66629 0.38800
C 	C 	0.52100 0.89740 0.60369 -0.09600
C 	C 	0.38590 0.93738 0.57476 -0.03500
C 	C 	0.41470 0.99381 0.51502 0.02500
C 	C 	0.68980 0.90840 0.57334 0.01700
C 	C 	0.27930 0.03910 0.48450 -0.09400
O 	O 	0.88320 0.63428 0.69412 -0.55600
O 	O 	0.58752 0.52099 0.66596 -0.43600
O 	O 	0.81471 0.79299 0.81536 -0.47800
O 	O 	0.12023 0.82073 0.80495 -0.44800
O 	O 	0.61680 0.36572 0.19412 -0.55600
O 	O 	0.91248 0.47901 0.16596 -0.43600
O 	O 	0.68529 0.20701 0.31536 -0.47800
O 	O 	0.37977 0.17927 0.30495 -0.44800
O 	O 	0.11680 0.36572 0.30588 -0.55600
O 	O 	0.41248 0.47901 0.33404 -0.43600
O 	O 	0.18529 0.20701 0.18464 -0.47800
O 	O 	0.87977 0.17927 0.19505 -0.44800
O 	O 	0.38320 0.63428 0.80588 -0.55600
O 	O 	0.08752 0.52099 0.83404 -0.43600
O 	O 	0.31471 0.79299 0.68464 -0.47800
O 	O 	0.62023 0.82073 0.69505 -0.44800
