data_crystal

_cell_length_a 6.13600
_cell_length_b 16.86300
_cell_length_c 12.23700
_cell_angle_alpha 90.00000
_cell_angle_beta  92.17900
_cell_angle_gamma 90.00000

_symmetry_space_group_name_	'P 1'
_symmetry_space_group_name_H-M	'P 1'

loop_
_symmetry_equiv_pos_as_xyz
  x,y,z

loop_
_atom_site_label
_atom_site_type_symbol
_atom_site_fract_x
_atom_site_fract_y
_atom_site_fract_z
_atom_site_charge
C 	C 	0.20800 0.89460 0.36590 0.38500
C 	C 	0.30420 0.63150 0.12590 0.40100
C 	C 	0.21090 0.70450 0.17790 -0.13800
C 	C 	0.00200 0.73200 0.17600 0.00700
H 	H 	0.88710 0.70750 0.13750 -0.00200
C 	C 	0.97820 0.80160 0.23880 -0.02800
H 	H 	0.84580 0.82760 0.24560 0.01700
C 	C 	0.16840 0.82680 0.28820 -0.12100
O 	O 	0.50910 0.62393 0.13210 -0.46200
O 	O 	0.40100 0.91020 0.39700 -0.51400
O 	O 	0.04210 0.93134 0.39740 -0.54200
O 	O 	0.16930 0.58391 0.08140 -0.53900
S 	S 	0.38289 0.76487 0.25684 0.03100
Sr	Sr	0.21929 0.48403 0.91179 1.50800
C 	C 	0.29200 0.39460 0.13410 0.38800
C 	C 	0.19580 0.13150 0.37410 0.39700
C 	C 	0.28910 0.20450 0.32210 -0.13100
C 	C 	0.49800 0.23200 0.32400 -0.01800
H 	H 	0.61290 0.20750 0.36250 0.01000
C 	C 	0.52180 0.30160 0.26120 -0.00400
H 	H 	0.65420 0.32760 0.25440 0.00800
C 	C 	0.33160 0.32680 0.21180 -0.13300
O 	O 	0.99090 0.12393 0.36790 -0.46200
O 	O 	0.09900 0.41020 0.10300 -0.51400
O 	O 	0.45790 0.43134 0.10260 -0.54400
O 	O 	0.33070 0.08391 0.41860 -0.54000
S 	S 	0.11711 0.26487 0.24316 0.03200
Sr	Sr	0.28071 0.98403 0.58821 1.50900
C 	C 	0.79200 0.10540 0.63410 0.38400
C 	C 	0.69580 0.36850 0.87410 0.40000
C 	C 	0.78910 0.29550 0.82210 -0.13800
C 	C 	0.99800 0.26800 0.82400 0.00700
H 	H 	0.11290 0.29250 0.86250 -0.00200
C 	C 	0.02180 0.19840 0.76120 -0.02800
H 	H 	0.15420 0.17240 0.75440 0.01700
C 	C 	0.83160 0.17320 0.71180 -0.12100
O 	O 	0.49090 0.37607 0.86790 -0.46200
O 	O 	0.59900 0.08980 0.60300 -0.51400
O 	O 	0.95790 0.06866 0.60260 -0.54200
O 	O 	0.83070 0.41609 0.91860 -0.53900
S 	S 	0.61711 0.23513 0.74316 0.03100
Sr	Sr	0.78071 0.51597 0.08821 1.50800
C 	C 	0.70800 0.60540 0.86590 0.38800
C 	C 	0.80420 0.86850 0.62590 0.39700
C 	C 	0.71090 0.79550 0.67790 -0.13100
C 	C 	0.50200 0.76800 0.67600 -0.01800
H 	H 	0.38710 0.79250 0.63750 0.01000
C 	C 	0.47820 0.69840 0.73880 -0.00400
H 	H 	0.34580 0.67240 0.74560 0.00800
C 	C 	0.66840 0.67320 0.78820 -0.13300
O 	O 	0.00910 0.87607 0.63210 -0.46200
O 	O 	0.90100 0.58980 0.89700 -0.51400
O 	O 	0.54210 0.56866 0.89740 -0.54400
O 	O 	0.66930 0.91609 0.58140 -0.54000
S 	S 	0.88289 0.73513 0.75684 0.03200
Sr	Sr	0.71929 0.01597 0.41179 1.50900
