data_crystal

_cell_length_a 6.78620
_cell_length_b 11.09500
_cell_length_c 18.35100
_cell_angle_alpha 90.00000
_cell_angle_beta  95.68800
_cell_angle_gamma 90.00000

_symmetry_space_group_name_	'P 1'
_symmetry_space_group_name_H-M	'P 1'

loop_
_symmetry_equiv_pos_as_xyz
  x,y,z

loop_
_atom_site_label
_atom_site_type_symbol
_atom_site_fract_x
_atom_site_fract_y
_atom_site_fract_z
_atom_site_charge
C 	C 	0.81000 0.27280 0.79610 -0.07300
C 	C 	0.99300 0.31300 0.78370 -0.06200
H 	H 	0.10310 0.30810 0.81790 0.04500
C 	C 	0.99600 0.36260 0.71370 0.03800
H 	H 	0.10930 0.39530 0.69670 -0.03100
C 	C 	0.81500 0.35820 0.67230 -0.17600
C 	C 	0.76600 0.39910 0.59580 0.44200
C 	C 	0.75300 0.21710 0.86570 0.31600
O 	O 	0.89540 0.19120 0.91290 -0.44500
O 	O 	0.57640 0.20270 0.87460 -0.37100
O 	O 	0.59040 0.39980 0.56940 -0.56800
O 	O 	0.90860 0.43320 0.56160 -0.62200
S 	S 	0.63940 0.29480 0.72134 0.00300
Sr	Sr	0.74280 0.10484 0.02063 1.50300
C 	C 	0.69000 0.77280 0.70390 -0.07100
C 	C 	0.50700 0.81300 0.71630 -0.06500
H 	H 	0.39690 0.80810 0.68210 0.04800
C 	C 	0.50400 0.86260 0.78630 0.03600
H 	H 	0.39070 0.89530 0.80330 -0.03000
C 	C 	0.68500 0.85820 0.82770 -0.17600
C 	C 	0.73400 0.89910 0.90420 0.44200
C 	C 	0.74700 0.71710 0.63430 0.31500
O 	O 	0.60460 0.69120 0.58710 -0.44700
O 	O 	0.92360 0.70270 0.62540 -0.37100
O 	O 	0.90960 0.89980 0.93060 -0.56600
O 	O 	0.59140 0.93320 0.93840 -0.62300
S 	S 	0.86060 0.79480 0.77866 0.00400
Sr	Sr	0.75720 0.60484 0.47937 1.50400
C 	C 	0.19000 0.72720 0.20390 -0.07200
C 	C 	0.00700 0.68700 0.21630 -0.06100
H 	H 	0.89690 0.69190 0.18210 0.04500
C 	C 	0.00400 0.63740 0.28630 0.03800
H 	H 	0.89070 0.60470 0.30330 -0.03100
C 	C 	0.18500 0.64180 0.32770 -0.17600
C 	C 	0.23400 0.60090 0.40420 0.44200
C 	C 	0.24700 0.78290 0.13430 0.31600
O 	O 	0.10460 0.80880 0.08710 -0.44500
O 	O 	0.42360 0.79730 0.12540 -0.37100
O 	O 	0.40960 0.60020 0.43060 -0.56800
O 	O 	0.09140 0.56680 0.43840 -0.62200
S 	S 	0.36060 0.70520 0.27866 0.00300
Sr	Sr	0.25720 0.89516 0.97937 1.50300
C 	C 	0.31000 0.22720 0.29610 -0.07100
C 	C 	0.49300 0.18700 0.28370 -0.06500
H 	H 	0.60310 0.19190 0.31790 0.04800
C 	C 	0.49600 0.13740 0.21370 0.03600
H 	H 	0.60930 0.10470 0.19670 -0.03000
C 	C 	0.31500 0.14180 0.17230 -0.17600
C 	C 	0.26600 0.10090 0.09580 0.44200
C 	C 	0.25300 0.28290 0.36570 0.31500
O 	O 	0.39540 0.30880 0.41290 -0.44700
O 	O 	0.07640 0.29730 0.37460 -0.37100
O 	O 	0.09040 0.10020 0.06940 -0.56600
O 	O 	0.40860 0.06680 0.06160 -0.62300
S 	S 	0.13940 0.20520 0.22134 0.00400
Sr	Sr	0.24280 0.39516 0.52063 1.50400
