data_crystal

_cell_length_a 26.43630
_cell_length_b 26.43630
_cell_length_c 7.10680
_cell_angle_alpha 90.00000
_cell_angle_beta  90.00000
_cell_angle_gamma 120.00000

_symmetry_space_group_name_	'P 1'
_symmetry_space_group_name_H-M	'P 1'

loop_
_symmetry_equiv_pos_as_xyz
  x,y,z

loop_
_atom_site_label
_atom_site_type_symbol
_atom_site_fract_x
_atom_site_fract_y
_atom_site_fract_z
_atom_site_charge
Mn	Mn	0.96290 0.64300 0.99600 1.29700
C 	C 	0.01950 0.59790 0.76700 0.37000
C 	C 	0.99980 0.54940 0.91900 -0.16700
C 	C 	0.98830 0.53800 0.11000 0.18000
C 	C 	0.98560 0.49370 0.17700 -0.04800
O 	O 	0.02610 0.58590 0.59900 -0.37300
O 	O 	0.00130 0.63580 0.79600 -0.70700
O 	O 	0.97940 0.58620 0.16000 -0.55000
Mn	Mn	0.62957 0.97633 0.32933 1.29600
C 	C 	0.68617 0.93123 0.10033 0.36600
C 	C 	0.66647 0.88273 0.25233 -0.16300
C 	C 	0.65497 0.87133 0.44333 0.17800
C 	C 	0.65227 0.82703 0.51033 -0.04900
O 	O 	0.69277 0.91923 0.93233 -0.37100
O 	O 	0.66797 0.96913 0.12933 -0.70700
O 	O 	0.64607 0.91953 0.49333 -0.55000
Mn	Mn	0.29623 0.30967 0.66267 1.29700
C 	C 	0.35283 0.26457 0.43367 0.36700
C 	C 	0.33313 0.21607 0.58567 -0.16400
C 	C 	0.32163 0.20467 0.77667 0.17900
C 	C 	0.31893 0.16037 0.84367 -0.05000
O 	O 	0.35943 0.25257 0.26567 -0.37200
O 	O 	0.33463 0.30247 0.46267 -0.70700
O 	O 	0.31273 0.25287 0.82667 -0.55100
Mn	Mn	0.35700 0.31990 0.99600 1.29600
C 	C 	0.40210 0.42160 0.76700 0.36700
C 	C 	0.45060 0.45040 0.91900 -0.16400
C 	C 	0.46200 0.45030 0.11000 0.17900
C 	C 	0.50630 0.49190 0.17700 -0.04900
O 	O 	0.41410 0.44020 0.59900 -0.37300
O 	O 	0.36420 0.36550 0.79600 -0.70700
O 	O 	0.41380 0.39320 0.16000 -0.55000
Mn	Mn	0.02367 0.65323 0.32933 1.29600
C 	C 	0.06877 0.75493 0.10033 0.36400
C 	C 	0.11727 0.78373 0.25233 -0.16300
C 	C 	0.12867 0.78363 0.44333 0.17800
C 	C 	0.17297 0.82523 0.51033 -0.04800
O 	O 	0.08077 0.77353 0.93233 -0.37000
O 	O 	0.03087 0.69883 0.12933 -0.70700
O 	O 	0.08047 0.72653 0.49333 -0.55000
Mn	Mn	0.69033 0.98657 0.66267 1.29700
C 	C 	0.73543 0.08827 0.43367 0.36700
C 	C 	0.78393 0.11707 0.58567 -0.16400
C 	C 	0.79533 0.11697 0.77667 0.17900
C 	C 	0.83963 0.15857 0.84367 -0.05000
O 	O 	0.74743 0.10687 0.26567 -0.37100
O 	O 	0.69753 0.03217 0.46267 -0.70700
O 	O 	0.74713 0.05987 0.82667 -0.55100
Mn	Mn	0.68010 0.03710 0.99600 1.29600
C 	C 	0.57840 0.98050 0.76700 0.36900
C 	C 	0.54960 0.00020 0.91900 -0.16700
C 	C 	0.54970 0.01170 0.11000 0.18100
C 	C 	0.50810 0.01440 0.17700 -0.04800
O 	O 	0.55980 0.97390 0.59900 -0.37300
O 	O 	0.63450 0.99870 0.79600 -0.70700
O 	O 	0.60680 0.02060 0.16000 -0.55000
Mn	Mn	0.34677 0.37043 0.32933 1.29700
C 	C 	0.24507 0.31383 0.10033 0.36600
C 	C 	0.21627 0.33353 0.25233 -0.16300
C 	C 	0.21637 0.34503 0.44333 0.17900
C 	C 	0.17477 0.34773 0.51033 -0.04900
O 	O 	0.22647 0.30723 0.93233 -0.37200
O 	O 	0.30117 0.33203 0.12933 -0.70700
O 	O 	0.27347 0.35393 0.49333 -0.55000
Mn	Mn	0.01343 0.70377 0.66267 1.29700
C 	C 	0.91173 0.64717 0.43367 0.36700
C 	C 	0.88293 0.66687 0.58567 -0.16400
C 	C 	0.88303 0.67837 0.77667 0.17900
C 	C 	0.84143 0.68107 0.84367 -0.05000
O 	O 	0.89313 0.64057 0.26567 -0.37200
O 	O 	0.96783 0.66537 0.46267 -0.70700
O 	O 	0.94013 0.68727 0.82667 -0.55100
Mn	Mn	0.03710 0.35700 0.00400 1.29600
C 	C 	0.98050 0.40210 0.23300 0.36900
C 	C 	0.00020 0.45060 0.08100 -0.16700
C 	C 	0.01170 0.46200 0.89000 0.18000
C 	C 	0.01440 0.50630 0.82300 -0.04800
O 	O 	0.97390 0.41410 0.40100 -0.37300
O 	O 	0.99870 0.36420 0.20400 -0.70700
O 	O 	0.02060 0.41380 0.84000 -0.55000
Mn	Mn	0.70377 0.69033 0.33733 1.29700
C 	C 	0.64717 0.73543 0.56633 0.36700
C 	C 	0.66687 0.78393 0.41433 -0.16400
C 	C 	0.67837 0.79533 0.22333 0.17900
C 	C 	0.68107 0.83963 0.15633 -0.05000
O 	O 	0.64057 0.74743 0.73433 -0.37200
O 	O 	0.66537 0.69753 0.53733 -0.70700
O 	O 	0.68727 0.74713 0.17333 -0.55100
Mn	Mn	0.37043 0.02367 0.67067 1.29600
C 	C 	0.31383 0.06877 0.89967 0.36600
C 	C 	0.33353 0.11727 0.74767 -0.16300
C 	C 	0.34503 0.12867 0.55667 0.17800
C 	C 	0.34773 0.17297 0.48967 -0.04900
O 	O 	0.30723 0.08077 0.06767 -0.37100
O 	O 	0.33203 0.03087 0.87067 -0.70700
O 	O 	0.35393 0.08047 0.50667 -0.55000
Mn	Mn	0.64300 0.68010 0.00400 1.29600
C 	C 	0.59790 0.57840 0.23300 0.36700
C 	C 	0.54940 0.54960 0.08100 -0.16400
C 	C 	0.53800 0.54970 0.89000 0.17900
C 	C 	0.49370 0.50810 0.82300 -0.04900
O 	O 	0.58590 0.55980 0.40100 -0.37300
O 	O 	0.63580 0.63450 0.20400 -0.70700
O 	O 	0.58620 0.60680 0.84000 -0.55000
Mn	Mn	0.30967 0.01343 0.33733 1.29700
C 	C 	0.26457 0.91173 0.56633 0.36700
C 	C 	0.21607 0.88293 0.41433 -0.16400
C 	C 	0.20467 0.88303 0.22333 0.17900
C 	C 	0.16037 0.84143 0.15633 -0.05000
O 	O 	0.25257 0.89313 0.73433 -0.37100
O 	O 	0.30247 0.96783 0.53733 -0.70700
O 	O 	0.25287 0.94013 0.17333 -0.55100
Mn	Mn	0.97633 0.34677 0.67067 1.29600
C 	C 	0.93123 0.24507 0.89967 0.36400
C 	C 	0.88273 0.21627 0.74767 -0.16300
C 	C 	0.87133 0.21637 0.55667 0.17800
C 	C 	0.82703 0.17477 0.48967 -0.04800
O 	O 	0.91923 0.22647 0.06767 -0.37000
O 	O 	0.96913 0.30117 0.87067 -0.70700
O 	O 	0.91953 0.27347 0.50667 -0.55000
Mn	Mn	0.31990 0.96290 0.00400 1.29600
C 	C 	0.42160 0.01950 0.23300 0.36900
C 	C 	0.45040 0.99980 0.08100 -0.16700
C 	C 	0.45030 0.98830 0.89000 0.18100
C 	C 	0.49190 0.98560 0.82300 -0.04800
O 	O 	0.44020 0.02610 0.40100 -0.37300
O 	O 	0.36550 0.00130 0.20400 -0.70700
O 	O 	0.39320 0.97940 0.84000 -0.55000
Mn	Mn	0.98657 0.29623 0.33733 1.29700
C 	C 	0.08827 0.35283 0.56633 0.36700
C 	C 	0.11707 0.33313 0.41433 -0.16400
C 	C 	0.11697 0.32163 0.22333 0.17900
C 	C 	0.15857 0.31893 0.15633 -0.05000
O 	O 	0.10687 0.35943 0.73433 -0.37200
O 	O 	0.03217 0.33463 0.53733 -0.70700
O 	O 	0.05987 0.31273 0.17333 -0.55100
Mn	Mn	0.65323 0.62957 0.67067 1.29700
C 	C 	0.75493 0.68617 0.89967 0.36600
C 	C 	0.78373 0.66647 0.74767 -0.16300
C 	C 	0.78363 0.65497 0.55667 0.17900
C 	C 	0.82523 0.65227 0.48967 -0.04900
O 	O 	0.77353 0.69277 0.06767 -0.37200
O 	O 	0.69883 0.66797 0.87067 -0.70700
O 	O 	0.72653 0.64607 0.50667 -0.55000
