data_crystal

_cell_length_a 26.28850
_cell_length_b 26.28850
_cell_length_c 7.06080
_cell_angle_alpha 90.00000
_cell_angle_beta  90.00000
_cell_angle_gamma 120.00000

_symmetry_space_group_name_	'P 1'
_symmetry_space_group_name_H-M	'P 1'

loop_
_symmetry_equiv_pos_as_xyz
  x,y,z

loop_
_atom_site_label
_atom_site_type_symbol
_atom_site_fract_x
_atom_site_fract_y
_atom_site_fract_z
_atom_site_charge
Mn	Mn	0.95090 0.63460 0.02200 1.27500
C 	C 	0.01560 0.59280 0.75900 0.40000
C 	C 	0.00690 0.54570 0.89000 -0.19300
C 	C 	0.98790 0.54210 0.08700 0.21100
C 	C 	0.98330 0.49500 0.19000 -0.08300
H 	H 	0.97257 0.49750 0.33724 0.04600
O 	O 	0.02860 0.59240 0.58600 -0.46600
O 	O 	0.00450 0.63460 0.80100 -0.60700
O 	O 	0.97730 0.58340 0.13900 -0.57900
Mn	Mn	0.61757 0.96793 0.35533 1.27500
C 	C 	0.68227 0.92613 0.09233 0.39900
C 	C 	0.67357 0.87903 0.22333 -0.19500
C 	C 	0.65457 0.87543 0.42033 0.21000
C 	C 	0.64997 0.82833 0.52333 -0.08300
H 	H 	0.63924 0.83083 0.67057 0.04600
O 	O 	0.69527 0.92573 0.91933 -0.46600
O 	O 	0.67117 0.96793 0.13433 -0.60700
O 	O 	0.64397 0.91673 0.47233 -0.57900
Mn	Mn	0.28423 0.30127 0.68867 1.27500
C 	C 	0.34893 0.25947 0.42567 0.39900
C 	C 	0.34023 0.21237 0.55667 -0.19400
C 	C 	0.32123 0.20877 0.75367 0.20900
C 	C 	0.31663 0.16167 0.85667 -0.08200
H 	H 	0.30590 0.16417 0.00391 0.04500
O 	O 	0.36193 0.25907 0.25267 -0.46600
O 	O 	0.33783 0.30127 0.46767 -0.60800
O 	O 	0.31063 0.25007 0.80567 -0.57800
Mn	Mn	0.36540 0.31630 0.02200 1.27400
C 	C 	0.40720 0.42280 0.75900 0.39900
C 	C 	0.45430 0.46120 0.89000 -0.19400
C 	C 	0.45790 0.44580 0.08700 0.21000
C 	C 	0.50500 0.48830 0.19000 -0.08300
H 	H 	0.50250 0.47507 0.33724 0.04600
O 	O 	0.40760 0.43620 0.58600 -0.46600
O 	O 	0.36540 0.36990 0.80100 -0.60700
O 	O 	0.41660 0.39390 0.13900 -0.57900
Mn	Mn	0.03207 0.64963 0.35533 1.27500
C 	C 	0.07387 0.75613 0.09233 0.40000
C 	C 	0.12097 0.79453 0.22333 -0.19500
C 	C 	0.12457 0.77913 0.42033 0.21000
C 	C 	0.17167 0.82163 0.52333 -0.08300
H 	H 	0.16917 0.80840 0.67057 0.04600
O 	O 	0.07427 0.76953 0.91933 -0.46700
O 	O 	0.03207 0.70323 0.13433 -0.60800
O 	O 	0.08327 0.72723 0.47233 -0.57900
Mn	Mn	0.69873 0.98297 0.68867 1.27400
C 	C 	0.74053 0.08947 0.42567 0.39900
C 	C 	0.78763 0.12787 0.55667 -0.19400
C 	C 	0.79123 0.11247 0.75367 0.20900
C 	C 	0.83833 0.15497 0.85667 -0.08100
H 	H 	0.83583 0.14174 0.00391 0.04500
O 	O 	0.74093 0.10287 0.25267 -0.46600
O 	O 	0.69873 0.03657 0.46767 -0.60700
O 	O 	0.74993 0.06057 0.80567 -0.57800
Mn	Mn	0.68370 0.04910 0.02200 1.27400
C 	C 	0.57720 0.98440 0.75900 0.39900
C 	C 	0.53880 0.99310 0.89000 -0.19400
C 	C 	0.55420 0.01210 0.08700 0.20900
C 	C 	0.51170 0.01670 0.19000 -0.08300
H 	H 	0.52493 0.02743 0.33724 0.04600
O 	O 	0.56380 0.97140 0.58600 -0.46600
O 	O 	0.63010 0.99550 0.80100 -0.60700
O 	O 	0.60610 0.02270 0.13900 -0.57900
Mn	Mn	0.35037 0.38243 0.35533 1.27500
C 	C 	0.24387 0.31773 0.09233 0.39900
C 	C 	0.20547 0.32643 0.22333 -0.19500
C 	C 	0.22087 0.34543 0.42033 0.21000
C 	C 	0.17837 0.35003 0.52333 -0.08300
H 	H 	0.19160 0.36076 0.67057 0.04600
O 	O 	0.23047 0.30473 0.91933 -0.46600
O 	O 	0.29677 0.32883 0.13433 -0.60800
O 	O 	0.27277 0.35603 0.47233 -0.57900
Mn	Mn	0.01703 0.71577 0.68867 1.27400
C 	C 	0.91053 0.65107 0.42567 0.39900
C 	C 	0.87213 0.65977 0.55667 -0.19400
C 	C 	0.88753 0.67877 0.75367 0.20900
C 	C 	0.84503 0.68337 0.85667 -0.08200
H 	H 	0.85826 0.69410 0.00391 0.04500
O 	O 	0.89713 0.63807 0.25267 -0.46600
O 	O 	0.96343 0.66217 0.46767 -0.60700
O 	O 	0.93943 0.68937 0.80567 -0.57800
Mn	Mn	0.04910 0.36540 0.97800 1.27400
C 	C 	0.98440 0.40720 0.24100 0.39900
C 	C 	0.99310 0.45430 0.11000 -0.19400
C 	C 	0.01210 0.45790 0.91300 0.21000
C 	C 	0.01670 0.50500 0.81000 -0.08300
H 	H 	0.02743 0.50250 0.66276 0.04600
O 	O 	0.97140 0.40760 0.41400 -0.46600
O 	O 	0.99550 0.36540 0.19900 -0.60700
O 	O 	0.02270 0.41660 0.86100 -0.57900
Mn	Mn	0.71577 0.69873 0.31133 1.27500
C 	C 	0.65107 0.74053 0.57433 0.39900
C 	C 	0.65977 0.78763 0.44333 -0.19400
C 	C 	0.67877 0.79123 0.24633 0.20900
C 	C 	0.68337 0.83833 0.14333 -0.08200
H 	H 	0.69410 0.83583 0.99609 0.04500
O 	O 	0.63807 0.74093 0.74733 -0.46600
O 	O 	0.66217 0.69873 0.53233 -0.60800
O 	O 	0.68937 0.74993 0.19433 -0.57800
Mn	Mn	0.38243 0.03207 0.64467 1.27500
C 	C 	0.31773 0.07387 0.90767 0.39900
C 	C 	0.32643 0.12097 0.77667 -0.19500
C 	C 	0.34543 0.12457 0.57967 0.21000
C 	C 	0.35003 0.17167 0.47667 -0.08300
H 	H 	0.36076 0.16917 0.32943 0.04600
O 	O 	0.30473 0.07427 0.08067 -0.46600
O 	O 	0.32883 0.03207 0.86567 -0.60700
O 	O 	0.35603 0.08327 0.52767 -0.57900
Mn	Mn	0.63460 0.68370 0.97800 1.27400
C 	C 	0.59280 0.57720 0.24100 0.39900
C 	C 	0.54570 0.53880 0.11000 -0.19400
C 	C 	0.54210 0.55420 0.91300 0.21000
C 	C 	0.49500 0.51170 0.81000 -0.08300
H 	H 	0.49750 0.52493 0.66276 0.04600
O 	O 	0.59240 0.56380 0.41400 -0.46600
O 	O 	0.63460 0.63010 0.19900 -0.60700
O 	O 	0.58340 0.60610 0.86100 -0.57900
Mn	Mn	0.30127 0.01703 0.31133 1.27400
C 	C 	0.25947 0.91053 0.57433 0.39900
C 	C 	0.21237 0.87213 0.44333 -0.19400
C 	C 	0.20877 0.88753 0.24633 0.20900
C 	C 	0.16167 0.84503 0.14333 -0.08100
H 	H 	0.16417 0.85826 0.99609 0.04500
O 	O 	0.25907 0.89713 0.74733 -0.46600
O 	O 	0.30127 0.96343 0.53233 -0.60700
O 	O 	0.25007 0.93943 0.19433 -0.57800
Mn	Mn	0.96793 0.35037 0.64467 1.27500
C 	C 	0.92613 0.24387 0.90767 0.40000
C 	C 	0.87903 0.20547 0.77667 -0.19500
C 	C 	0.87543 0.22087 0.57967 0.21000
C 	C 	0.82833 0.17837 0.47667 -0.08300
H 	H 	0.83083 0.19160 0.32943 0.04600
O 	O 	0.92573 0.23047 0.08067 -0.46700
O 	O 	0.96793 0.29677 0.86567 -0.60800
O 	O 	0.91673 0.27277 0.52767 -0.57900
Mn	Mn	0.31630 0.95090 0.97800 1.27400
C 	C 	0.42280 0.01560 0.24100 0.39900
C 	C 	0.46120 0.00690 0.11000 -0.19400
C 	C 	0.44580 0.98790 0.91300 0.20900
C 	C 	0.48830 0.98330 0.81000 -0.08300
H 	H 	0.47507 0.97257 0.66276 0.04600
O 	O 	0.43620 0.02860 0.41400 -0.46600
O 	O 	0.36990 0.00450 0.19900 -0.60700
O 	O 	0.39390 0.97730 0.86100 -0.57900
Mn	Mn	0.98297 0.28423 0.31133 1.27400
C 	C 	0.08947 0.34893 0.57433 0.39900
C 	C 	0.12787 0.34023 0.44333 -0.19400
C 	C 	0.11247 0.32123 0.24633 0.20900
C 	C 	0.15497 0.31663 0.14333 -0.08200
H 	H 	0.14174 0.30590 0.99609 0.04500
O 	O 	0.10287 0.36193 0.74733 -0.46600
O 	O 	0.03657 0.33783 0.53233 -0.60700
O 	O 	0.06057 0.31063 0.19433 -0.57800
Mn	Mn	0.64963 0.61757 0.64467 1.27500
C 	C 	0.75613 0.68227 0.90767 0.39900
C 	C 	0.79453 0.67357 0.77667 -0.19500
C 	C 	0.77913 0.65457 0.57967 0.21000
C 	C 	0.82163 0.64997 0.47667 -0.08300
H 	H 	0.80840 0.63924 0.32943 0.04600
O 	O 	0.76953 0.69527 0.08067 -0.46600
O 	O 	0.70323 0.67117 0.86567 -0.60800
O 	O 	0.72723 0.64397 0.52767 -0.57900
