data_crystal

_cell_length_a 19.08990
_cell_length_b 11.12240
_cell_length_c 6.17480
_cell_angle_alpha 90.00000
_cell_angle_beta  94.07400
_cell_angle_gamma 90.00000

_symmetry_space_group_name_	'P 1'
_symmetry_space_group_name_H-M	'P 1'

loop_
_symmetry_equiv_pos_as_xyz
  x,y,z

loop_
_atom_site_label
_atom_site_type_symbol
_atom_site_fract_x
_atom_site_fract_y
_atom_site_fract_z
_atom_site_charge
Cu	Cu	0.34337 0.14552 0.36457 0.87800
Cu	Cu	0.99688 0.85561 0.21138 0.86400
Cl	Cl	0.34939 0.34214 0.48934 -0.64400
Cl	Cl	0.98773 0.84009 0.84092 -0.70100
S 	S 	0.18002 0.99055 0.20507 -0.07200
S 	S 	0.25495 0.90265 0.66125 -0.06600
S 	S 	0.18167 0.16574 0.62447 -0.07500
P 	P 	0.24895 0.05559 0.45936 -0.03100
P 	P 	0.09749 0.92861 0.37932 -0.06300
P 	P 	0.14904 0.86315 0.69660 0.05300
P 	P 	0.09917 0.04763 0.66685 -0.04200
N 	N 	0.43705 0.06110 0.44780 -0.19900
C 	C 	0.46120 0.97530 0.31960 0.05500
C 	C 	0.47670 0.08520 0.62810 -0.05300
H 	H 	0.43470 0.95550 0.18840 0.00500
H 	H 	0.46190 0.14570 0.72360 0.04100
C 	C 	0.48760 0.05340 0.31000 -0.05900
C 	C 	0.45030 0.00800 0.63900 0.04300
H 	H 	0.48080 0.09140 0.17280 0.04800
H 	H 	0.41630 0.01230 0.74390 0.02000
Cu	Cu	0.65663 0.64552 0.13543 0.87700
Cu	Cu	0.00312 0.35561 0.28862 0.86400
Cl	Cl	0.65061 0.84214 0.01066 -0.64500
Cl	Cl	0.01227 0.34009 0.65908 -0.70200
S 	S 	0.81998 0.49055 0.29493 -0.07200
S 	S 	0.74505 0.40265 0.83875 -0.06700
S 	S 	0.81833 0.66574 0.87553 -0.07500
P 	P 	0.75105 0.55559 0.04064 -0.03000
P 	P 	0.90251 0.42861 0.12068 -0.06400
P 	P 	0.85096 0.36315 0.80340 0.05300
P 	P 	0.90083 0.54763 0.83315 -0.04100
N 	N 	0.56295 0.56110 0.05220 -0.19900
C 	C 	0.53880 0.47530 0.18040 0.05400
C 	C 	0.52330 0.58520 0.87190 -0.05200
H 	H 	0.56530 0.45550 0.31160 0.00600
H 	H 	0.53810 0.64570 0.77640 0.04100
C 	C 	0.51240 0.55340 0.19000 -0.05800
C 	C 	0.54970 0.50800 0.86100 0.04200
H 	H 	0.51920 0.59140 0.32720 0.04800
H 	H 	0.58370 0.51230 0.75610 0.02000
Cu	Cu	0.65663 0.85448 0.63543 0.87700
Cu	Cu	0.00312 0.14439 0.78862 0.86300
Cl	Cl	0.65061 0.65786 0.51066 -0.64500
Cl	Cl	0.01227 0.15991 0.15908 -0.70200
S 	S 	0.81998 0.00945 0.79493 -0.07200
S 	S 	0.74505 0.09735 0.33875 -0.06600
S 	S 	0.81833 0.83426 0.37553 -0.07500
P 	P 	0.75105 0.94441 0.54064 -0.03100
P 	P 	0.90251 0.07139 0.62068 -0.06300
P 	P 	0.85096 0.13685 0.30340 0.05300
P 	P 	0.90083 0.95237 0.33315 -0.04200
N 	N 	0.56295 0.93890 0.55220 -0.19900
C 	C 	0.53880 0.02470 0.68040 0.05500
C 	C 	0.52330 0.91480 0.37190 -0.05300
H 	H 	0.56530 0.04450 0.81160 0.00500
H 	H 	0.53810 0.85430 0.27640 0.04100
C 	C 	0.51240 0.94660 0.69000 -0.05900
C 	C 	0.54970 0.99200 0.36100 0.04300
H 	H 	0.51920 0.90860 0.82720 0.04800
H 	H 	0.58370 0.98770 0.25610 0.02000
Cu	Cu	0.34337 0.35448 0.86457 0.87700
Cu	Cu	0.99688 0.64439 0.71138 0.86400
Cl	Cl	0.34939 0.15786 0.98934 -0.64500
Cl	Cl	0.98773 0.65991 0.34092 -0.70200
S 	S 	0.18002 0.50945 0.70507 -0.07200
S 	S 	0.25495 0.59735 0.16125 -0.06700
S 	S 	0.18167 0.33426 0.12447 -0.07500
P 	P 	0.24895 0.44441 0.95936 -0.03000
P 	P 	0.09749 0.57139 0.87932 -0.06400
P 	P 	0.14904 0.63685 0.19660 0.05300
P 	P 	0.09917 0.45237 0.16685 -0.04100
N 	N 	0.43705 0.43890 0.94780 -0.19900
C 	C 	0.46120 0.52470 0.81960 0.05400
C 	C 	0.47670 0.41480 0.12810 -0.05200
H 	H 	0.43470 0.54450 0.68840 0.00600
H 	H 	0.46190 0.35430 0.22360 0.04100
C 	C 	0.48760 0.44660 0.81000 -0.05800
C 	C 	0.45030 0.49200 0.13900 0.04200
H 	H 	0.48080 0.40860 0.67280 0.04800
H 	H 	0.41630 0.48770 0.24390 0.02000
