data_crystal

_cell_length_a 25.87760
_cell_length_b 25.87760
_cell_length_c 6.26230
_cell_angle_alpha 90.00000
_cell_angle_beta  90.00000
_cell_angle_gamma 120.00000

_symmetry_space_group_name_	'P 1'
_symmetry_space_group_name_H-M	'P 1'

loop_
_symmetry_equiv_pos_as_xyz
  x,y,z

loop_
_atom_site_label
_atom_site_type_symbol
_atom_site_fract_x
_atom_site_fract_y
_atom_site_fract_z
_atom_site_charge
Cu	Cu	0.94630 0.63150 0.97900 0.92800
C 	C 	0.00640 0.58560 0.71100 0.34700
C 	C 	0.02360 0.50620 0.78800 -0.06800
C 	C 	0.00390 0.54320 0.87300 -0.14700
C 	C 	0.98480 0.54280 0.08700 0.15800
H 	H 	0.03830 0.51200 0.63600 0.06800
O 	O 	0.04060 0.60200 0.54200 -0.38800
O 	O 	0.97860 0.61530 0.72600 -0.46100
O 	O 	0.96940 0.58540 0.14700 -0.44500
Cu	Cu	0.61297 0.96483 0.31233 0.92900
C 	C 	0.67307 0.91893 0.04433 0.34500
C 	C 	0.69027 0.83953 0.12133 -0.07100
C 	C 	0.67057 0.87653 0.20633 -0.14400
C 	C 	0.65147 0.87613 0.42033 0.15800
H 	H 	0.70497 0.84533 0.96933 0.07100
O 	O 	0.70727 0.93533 0.87533 -0.38600
O 	O 	0.64527 0.94863 0.05933 -0.45900
O 	O 	0.63607 0.91873 0.48033 -0.44500
Cu	Cu	0.27963 0.29817 0.64567 0.93000
C 	C 	0.33973 0.25227 0.37767 0.34700
C 	C 	0.35693 0.17287 0.45467 -0.06700
C 	C 	0.33723 0.20987 0.53967 -0.14600
C 	C 	0.31813 0.20947 0.75367 0.15900
H 	H 	0.37163 0.17867 0.30267 0.07000
O 	O 	0.37393 0.26867 0.20867 -0.38600
O 	O 	0.31193 0.28197 0.39267 -0.45900
O 	O 	0.30273 0.25207 0.81367 -0.44600
Cu	Cu	0.36850 0.31480 0.97900 0.92900
C 	C 	0.41440 0.42080 0.71100 0.34700
C 	C 	0.49380 0.51740 0.78800 -0.06700
C 	C 	0.45680 0.46070 0.87300 -0.14600
C 	C 	0.45720 0.44200 0.08700 0.15900
H 	H 	0.48800 0.52630 0.63600 0.06900
O 	O 	0.39800 0.43860 0.54200 -0.38700
O 	O 	0.38470 0.36330 0.72600 -0.46000
O 	O 	0.41460 0.38400 0.14700 -0.44500
Cu	Cu	0.03517 0.64813 0.31233 0.92900
C 	C 	0.08107 0.75413 0.04433 0.34500
C 	C 	0.16047 0.85073 0.12133 -0.07200
C 	C 	0.12347 0.79403 0.20633 -0.14300
C 	C 	0.12387 0.77533 0.42033 0.15800
H 	H 	0.15467 0.85963 0.96933 0.07200
O 	O 	0.06467 0.77193 0.87533 -0.38500
O 	O 	0.05137 0.69663 0.05933 -0.45900
O 	O 	0.08127 0.71733 0.48033 -0.44500
Cu	Cu	0.70183 0.98147 0.64567 0.93000
C 	C 	0.74773 0.08747 0.37767 0.34700
C 	C 	0.82713 0.18407 0.45467 -0.06700
C 	C 	0.79013 0.12737 0.53967 -0.14600
C 	C 	0.79053 0.10867 0.75367 0.16000
H 	H 	0.82133 0.19297 0.30267 0.07000
O 	O 	0.73133 0.10527 0.20867 -0.38600
O 	O 	0.71803 0.02997 0.39267 -0.45900
O 	O 	0.74793 0.05067 0.81367 -0.44600
Cu	Cu	0.68520 0.05370 0.97900 0.92900
C 	C 	0.57920 0.99360 0.71100 0.34800
C 	C 	0.48260 0.97640 0.78800 -0.06700
C 	C 	0.53930 0.99610 0.87300 -0.14600
C 	C 	0.55800 0.01520 0.08700 0.15900
H 	H 	0.47370 0.96170 0.63600 0.06900
O 	O 	0.56140 0.95940 0.54200 -0.38700
O 	O 	0.63670 0.02140 0.72600 -0.46000
O 	O 	0.61600 0.03060 0.14700 -0.44500
Cu	Cu	0.35187 0.38703 0.31233 0.93000
C 	C 	0.24587 0.32693 0.04433 0.34600
C 	C 	0.14927 0.30973 0.12133 -0.07100
C 	C 	0.20597 0.32943 0.20633 -0.14400
C 	C 	0.22467 0.34853 0.42033 0.15800
H 	H 	0.14037 0.29503 0.96933 0.07100
O 	O 	0.22807 0.29273 0.87533 -0.38600
O 	O 	0.30337 0.35473 0.05933 -0.45900
O 	O 	0.28267 0.36393 0.48033 -0.44500
Cu	Cu	0.01853 0.72037 0.64567 0.93000
C 	C 	0.91253 0.66027 0.37767 0.34700
C 	C 	0.81593 0.64307 0.45467 -0.06700
C 	C 	0.87263 0.66277 0.53967 -0.14600
C 	C 	0.89133 0.68187 0.75367 0.15900
H 	H 	0.80703 0.62837 0.30267 0.07000
O 	O 	0.89473 0.62607 0.20867 -0.38600
O 	O 	0.97003 0.68807 0.39267 -0.45900
O 	O 	0.94933 0.69727 0.81367 -0.44600
Cu	Cu	0.05370 0.36850 0.02100 0.92900
C 	C 	0.99360 0.41440 0.28900 0.34800
C 	C 	0.97640 0.49380 0.21200 -0.06700
C 	C 	0.99610 0.45680 0.12700 -0.14600
C 	C 	0.01520 0.45720 0.91300 0.15900
H 	H 	0.96170 0.48800 0.36400 0.06900
O 	O 	0.95940 0.39800 0.45800 -0.38700
O 	O 	0.02140 0.38470 0.27400 -0.46000
O 	O 	0.03060 0.41460 0.85300 -0.44500
Cu	Cu	0.72037 0.70183 0.35433 0.93000
C 	C 	0.66027 0.74773 0.62233 0.34700
C 	C 	0.64307 0.82713 0.54533 -0.06700
C 	C 	0.66277 0.79013 0.46033 -0.14600
C 	C 	0.68187 0.79053 0.24633 0.15900
H 	H 	0.62837 0.82133 0.69733 0.07000
O 	O 	0.62607 0.73133 0.79133 -0.38600
O 	O 	0.68807 0.71803 0.60733 -0.45900
O 	O 	0.69727 0.74793 0.18633 -0.44600
Cu	Cu	0.38703 0.03517 0.68767 0.92900
C 	C 	0.32693 0.08107 0.95567 0.34500
C 	C 	0.30973 0.16047 0.87867 -0.07100
C 	C 	0.32943 0.12347 0.79367 -0.14400
C 	C 	0.34853 0.12387 0.57967 0.15800
H 	H 	0.29503 0.15467 0.03067 0.07100
O 	O 	0.29273 0.06467 0.12467 -0.38600
O 	O 	0.35473 0.05137 0.94067 -0.45900
O 	O 	0.36393 0.08127 0.51967 -0.44500
Cu	Cu	0.63150 0.68520 0.02100 0.92900
C 	C 	0.58560 0.57920 0.28900 0.34700
C 	C 	0.50620 0.48260 0.21200 -0.06700
C 	C 	0.54320 0.53930 0.12700 -0.14600
C 	C 	0.54280 0.55800 0.91300 0.15900
H 	H 	0.51200 0.47370 0.36400 0.06900
O 	O 	0.60200 0.56140 0.45800 -0.38700
O 	O 	0.61530 0.63670 0.27400 -0.46000
O 	O 	0.58540 0.61600 0.85300 -0.44500
Cu	Cu	0.29817 0.01853 0.35433 0.93000
C 	C 	0.25227 0.91253 0.62233 0.34700
C 	C 	0.17287 0.81593 0.54533 -0.06700
C 	C 	0.20987 0.87263 0.46033 -0.14600
C 	C 	0.20947 0.89133 0.24633 0.16000
H 	H 	0.17867 0.80703 0.69733 0.07000
O 	O 	0.26867 0.89473 0.79133 -0.38600
O 	O 	0.28197 0.97003 0.60733 -0.45900
O 	O 	0.25207 0.94933 0.18633 -0.44600
Cu	Cu	0.96483 0.35187 0.68767 0.92900
C 	C 	0.91893 0.24587 0.95567 0.34500
C 	C 	0.83953 0.14927 0.87867 -0.07200
C 	C 	0.87653 0.20597 0.79367 -0.14300
C 	C 	0.87613 0.22467 0.57967 0.15800
H 	H 	0.84533 0.14037 0.03067 0.07200
O 	O 	0.93533 0.22807 0.12467 -0.38500
O 	O 	0.94863 0.30337 0.94067 -0.45900
O 	O 	0.91873 0.28267 0.51967 -0.44500
Cu	Cu	0.31480 0.94630 0.02100 0.92900
C 	C 	0.42080 0.00640 0.28900 0.34800
C 	C 	0.51740 0.02360 0.21200 -0.06700
C 	C 	0.46070 0.00390 0.12700 -0.14600
C 	C 	0.44200 0.98480 0.91300 0.15900
H 	H 	0.52630 0.03830 0.36400 0.06900
O 	O 	0.43860 0.04060 0.45800 -0.38700
O 	O 	0.36330 0.97860 0.27400 -0.46000
O 	O 	0.38400 0.96940 0.85300 -0.44500
Cu	Cu	0.98147 0.27963 0.35433 0.93000
C 	C 	0.08747 0.33973 0.62233 0.34700
C 	C 	0.18407 0.35693 0.54533 -0.06700
C 	C 	0.12737 0.33723 0.46033 -0.14600
C 	C 	0.10867 0.31813 0.24633 0.15900
H 	H 	0.19297 0.37163 0.69733 0.07000
O 	O 	0.10527 0.37393 0.79133 -0.38600
O 	O 	0.02997 0.31193 0.60733 -0.45900
O 	O 	0.05067 0.30273 0.18633 -0.44600
Cu	Cu	0.64813 0.61297 0.68767 0.93000
C 	C 	0.75413 0.67307 0.95567 0.34600
C 	C 	0.85073 0.69027 0.87867 -0.07100
C 	C 	0.79403 0.67057 0.79367 -0.14400
C 	C 	0.77533 0.65147 0.57967 0.15800
H 	H 	0.85963 0.70497 0.03067 0.07100
O 	O 	0.77193 0.70727 0.12467 -0.38600
O 	O 	0.69663 0.64527 0.94067 -0.45900
O 	O 	0.71733 0.63607 0.51967 -0.44500
