data_crystal

_cell_length_a 25.87170
_cell_length_b 25.87170
_cell_length_c 6.26310
_cell_angle_alpha 90.00000
_cell_angle_beta  90.00000
_cell_angle_gamma 120.00000

_symmetry_space_group_name_	'P 1'
_symmetry_space_group_name_H-M	'P 1'

loop_
_symmetry_equiv_pos_as_xyz
  x,y,z

loop_
_atom_site_label
_atom_site_type_symbol
_atom_site_fract_x
_atom_site_fract_y
_atom_site_fract_z
_atom_site_charge
Cu	Cu	0.94680 0.63170 0.98590 0.92800
C 	C 	0.00620 0.58660 0.69600 0.35500
C 	C 	0.02200 0.50560 0.79900 -0.05700
C 	C 	0.00470 0.54540 0.86600 -0.13900
C 	C 	0.98840 0.54320 0.08300 0.16600
H 	H 	0.03800 0.50930 0.63000 0.06200
O 	O 	0.04240 0.60190 0.53900 -0.40600
O 	O 	0.97800 0.61520 0.74300 -0.47400
O 	O 	0.97080 0.58360 0.14500 -0.43600
Cu	Cu	0.61347 0.96503 0.31923 0.92900
C 	C 	0.67287 0.91993 0.02933 0.35200
C 	C 	0.68867 0.83893 0.13233 -0.06000
C 	C 	0.67137 0.87873 0.19933 -0.13800
C 	C 	0.65507 0.87653 0.41633 0.16500
H 	H 	0.70467 0.84263 0.96333 0.06400
O 	O 	0.70907 0.93523 0.87233 -0.40400
O 	O 	0.64467 0.94853 0.07633 -0.47300
O 	O 	0.63747 0.91693 0.47833 -0.43600
Cu	Cu	0.28013 0.29837 0.65257 0.93000
C 	C 	0.33953 0.25327 0.36267 0.35400
C 	C 	0.35533 0.17227 0.46567 -0.05700
C 	C 	0.33803 0.21207 0.53267 -0.13900
C 	C 	0.32173 0.20987 0.74967 0.16600
H 	H 	0.37133 0.17597 0.29667 0.06200
O 	O 	0.37573 0.26857 0.20567 -0.40500
O 	O 	0.31133 0.28187 0.40967 -0.47300
O 	O 	0.30413 0.25027 0.81167 -0.43700
Cu	Cu	0.36830 0.31510 0.98590 0.92900
C 	C 	0.41340 0.41960 0.69600 0.35400
C 	C 	0.49440 0.51640 0.79900 -0.05700
C 	C 	0.45460 0.45930 0.86600 -0.13900
C 	C 	0.45680 0.44520 0.08300 0.16600
H 	H 	0.49070 0.52870 0.63000 0.06200
O 	O 	0.39810 0.44050 0.53900 -0.40600
O 	O 	0.38480 0.36280 0.74300 -0.47400
O 	O 	0.41640 0.38720 0.14500 -0.43600
Cu	Cu	0.03497 0.64843 0.31923 0.92900
C 	C 	0.08007 0.75293 0.02933 0.35100
C 	C 	0.16107 0.84973 0.13233 -0.06100
C 	C 	0.12127 0.79263 0.19933 -0.13700
C 	C 	0.12347 0.77853 0.41633 0.16500
H 	H 	0.15737 0.86203 0.96333 0.06500
O 	O 	0.06477 0.77383 0.87233 -0.40400
O 	O 	0.05147 0.69613 0.07633 -0.47300
O 	O 	0.08307 0.72053 0.47833 -0.43600
Cu	Cu	0.70163 0.98177 0.65257 0.93000
C 	C 	0.74673 0.08627 0.36267 0.35400
C 	C 	0.82773 0.18307 0.46567 -0.05700
C 	C 	0.78793 0.12597 0.53267 -0.13900
C 	C 	0.79013 0.11187 0.74967 0.16600
H 	H 	0.82403 0.19537 0.29667 0.06300
O 	O 	0.73143 0.10717 0.20567 -0.40400
O 	O 	0.71813 0.02947 0.40967 -0.47300
O 	O 	0.74973 0.05387 0.81167 -0.43700
Cu	Cu	0.68490 0.05320 0.98590 0.92800
C 	C 	0.58040 0.99380 0.69600 0.35500
C 	C 	0.48360 0.97800 0.79900 -0.05700
C 	C 	0.54070 0.99530 0.86600 -0.13900
C 	C 	0.55480 0.01160 0.08300 0.16600
H 	H 	0.47130 0.96200 0.63000 0.06200
O 	O 	0.55950 0.95760 0.53900 -0.40600
O 	O 	0.63720 0.02200 0.74300 -0.47400
O 	O 	0.61280 0.02920 0.14500 -0.43600
Cu	Cu	0.35157 0.38653 0.31923 0.92900
C 	C 	0.24707 0.32713 0.02933 0.35300
C 	C 	0.15027 0.31133 0.13233 -0.06000
C 	C 	0.20737 0.32863 0.19933 -0.13800
C 	C 	0.22147 0.34493 0.41633 0.16500
H 	H 	0.13797 0.29533 0.96333 0.06400
O 	O 	0.22617 0.29093 0.87233 -0.40500
O 	O 	0.30387 0.35533 0.07633 -0.47300
O 	O 	0.27947 0.36253 0.47833 -0.43600
Cu	Cu	0.01823 0.71987 0.65257 0.93000
C 	C 	0.91373 0.66047 0.36267 0.35400
C 	C 	0.81693 0.64467 0.46567 -0.05700
C 	C 	0.87403 0.66197 0.53267 -0.13900
C 	C 	0.88813 0.67827 0.74967 0.16600
H 	H 	0.80463 0.62867 0.29667 0.06200
O 	O 	0.89283 0.62427 0.20567 -0.40400
O 	O 	0.97053 0.68867 0.40967 -0.47300
O 	O 	0.94613 0.69587 0.81167 -0.43700
Cu	Cu	0.05320 0.36830 0.01410 0.92800
C 	C 	0.99380 0.41340 0.30400 0.35500
C 	C 	0.97800 0.49440 0.20100 -0.05700
C 	C 	0.99530 0.45460 0.13400 -0.13900
C 	C 	0.01160 0.45680 0.91700 0.16600
H 	H 	0.96200 0.49070 0.37000 0.06200
O 	O 	0.95760 0.39810 0.46100 -0.40600
O 	O 	0.02200 0.38480 0.25700 -0.47400
O 	O 	0.02920 0.41640 0.85500 -0.43600
Cu	Cu	0.71987 0.70163 0.34743 0.93000
C 	C 	0.66047 0.74673 0.63733 0.35400
C 	C 	0.64467 0.82773 0.53433 -0.05700
C 	C 	0.66197 0.78793 0.46733 -0.13900
C 	C 	0.67827 0.79013 0.25033 0.16600
H 	H 	0.62867 0.82403 0.70333 0.06200
O 	O 	0.62427 0.73143 0.79433 -0.40500
O 	O 	0.68867 0.71813 0.59033 -0.47300
O 	O 	0.69587 0.74973 0.18833 -0.43700
Cu	Cu	0.38653 0.03497 0.68077 0.92900
C 	C 	0.32713 0.08007 0.97067 0.35200
C 	C 	0.31133 0.16107 0.86767 -0.06000
C 	C 	0.32863 0.12127 0.80067 -0.13800
C 	C 	0.34493 0.12347 0.58367 0.16500
H 	H 	0.29533 0.15737 0.03667 0.06400
O 	O 	0.29093 0.06477 0.12767 -0.40400
O 	O 	0.35533 0.05147 0.92367 -0.47300
O 	O 	0.36253 0.08307 0.52167 -0.43600
Cu	Cu	0.63170 0.68490 0.01410 0.92900
C 	C 	0.58660 0.58040 0.30400 0.35400
C 	C 	0.50560 0.48360 0.20100 -0.05700
C 	C 	0.54540 0.54070 0.13400 -0.13900
C 	C 	0.54320 0.55480 0.91700 0.16600
H 	H 	0.50930 0.47130 0.37000 0.06200
O 	O 	0.60190 0.55950 0.46100 -0.40600
O 	O 	0.61520 0.63720 0.25700 -0.47400
O 	O 	0.58360 0.61280 0.85500 -0.43600
Cu	Cu	0.29837 0.01823 0.34743 0.93000
C 	C 	0.25327 0.91373 0.63733 0.35400
C 	C 	0.17227 0.81693 0.53433 -0.05700
C 	C 	0.21207 0.87403 0.46733 -0.13900
C 	C 	0.20987 0.88813 0.25033 0.16600
H 	H 	0.17597 0.80463 0.70333 0.06300
O 	O 	0.26857 0.89283 0.79433 -0.40400
O 	O 	0.28187 0.97053 0.59033 -0.47300
O 	O 	0.25027 0.94613 0.18833 -0.43700
Cu	Cu	0.96503 0.35157 0.68077 0.92900
C 	C 	0.91993 0.24707 0.97067 0.35100
C 	C 	0.83893 0.15027 0.86767 -0.06100
C 	C 	0.87873 0.20737 0.80067 -0.13700
C 	C 	0.87653 0.22147 0.58367 0.16500
H 	H 	0.84263 0.13797 0.03667 0.06500
O 	O 	0.93523 0.22617 0.12767 -0.40400
O 	O 	0.94853 0.30387 0.92367 -0.47300
O 	O 	0.91693 0.27947 0.52167 -0.43600
Cu	Cu	0.31510 0.94680 0.01410 0.92800
C 	C 	0.41960 0.00620 0.30400 0.35500
C 	C 	0.51640 0.02200 0.20100 -0.05700
C 	C 	0.45930 0.00470 0.13400 -0.13900
C 	C 	0.44520 0.98840 0.91700 0.16600
H 	H 	0.52870 0.03800 0.37000 0.06200
O 	O 	0.44050 0.04240 0.46100 -0.40600
O 	O 	0.36280 0.97800 0.25700 -0.47400
O 	O 	0.38720 0.97080 0.85500 -0.43600
Cu	Cu	0.98177 0.28013 0.34743 0.93000
C 	C 	0.08627 0.33953 0.63733 0.35400
C 	C 	0.18307 0.35533 0.53433 -0.05700
C 	C 	0.12597 0.33803 0.46733 -0.13900
C 	C 	0.11187 0.32173 0.25033 0.16600
H 	H 	0.19537 0.37133 0.70333 0.06200
O 	O 	0.10717 0.37573 0.79433 -0.40400
O 	O 	0.02947 0.31133 0.59033 -0.47300
O 	O 	0.05387 0.30413 0.18833 -0.43700
Cu	Cu	0.64843 0.61347 0.68077 0.92900
C 	C 	0.75293 0.67287 0.97067 0.35300
C 	C 	0.84973 0.68867 0.86767 -0.06000
C 	C 	0.79263 0.67137 0.80067 -0.13800
C 	C 	0.77853 0.65507 0.58367 0.16500
H 	H 	0.86203 0.70467 0.03667 0.06400
O 	O 	0.77383 0.70907 0.12767 -0.40500
O 	O 	0.69613 0.64467 0.92367 -0.47300
O 	O 	0.72053 0.63747 0.52167 -0.43600
