data_crystal

_cell_length_a 25.87610
_cell_length_b 25.87610
_cell_length_c 6.26260
_cell_angle_alpha 90.00000
_cell_angle_beta  90.00000
_cell_angle_gamma 120.00000

_symmetry_space_group_name_	'P 1'
_symmetry_space_group_name_H-M	'P 1'

loop_
_symmetry_equiv_pos_as_xyz
  x,y,z

loop_
_atom_site_label
_atom_site_type_symbol
_atom_site_fract_x
_atom_site_fract_y
_atom_site_fract_z
_atom_site_charge
Cu	Cu	0.94730 0.62980 0.98400 0.91700
C 	C 	0.00720 0.58920 0.71100 0.41500
C 	C 	0.02030 0.50190 0.79500 -0.03000
C 	C 	0.00530 0.54440 0.85900 -0.17500
C 	C 	0.98500 0.54300 0.07100 0.14900
H 	H 	0.03650 0.50500 0.62900 0.06300
O 	O 	0.04090 0.59910 0.54700 -0.39300
O 	O 	0.97960 0.61530 0.72400 -0.51300
O 	O 	0.96870 0.58200 0.16500 -0.43000
Cu	Cu	0.61397 0.96313 0.31733 0.91600
C 	C 	0.67387 0.92253 0.04433 0.41100
C 	C 	0.68697 0.83523 0.12833 -0.03300
C 	C 	0.67197 0.87773 0.19233 -0.17400
C 	C 	0.65167 0.87633 0.40433 0.14800
H 	H 	0.70317 0.83833 0.96233 0.06400
O 	O 	0.70757 0.93243 0.88033 -0.39200
O 	O 	0.64627 0.94863 0.05733 -0.51200
O 	O 	0.63537 0.91533 0.49833 -0.43100
Cu	Cu	0.28063 0.29647 0.65067 0.91700
C 	C 	0.34053 0.25587 0.37767 0.41300
C 	C 	0.35363 0.16857 0.46167 -0.03000
C 	C 	0.33863 0.21107 0.52567 -0.17500
C 	C 	0.31833 0.20967 0.73767 0.14900
H 	H 	0.36983 0.17167 0.29567 0.06300
O 	O 	0.37423 0.26577 0.21367 -0.39200
O 	O 	0.31293 0.28197 0.39067 -0.51200
O 	O 	0.30203 0.24867 0.83167 -0.43100
Cu	Cu	0.37020 0.31750 0.98400 0.91600
C 	C 	0.41080 0.41800 0.71100 0.41300
C 	C 	0.49810 0.51840 0.79500 -0.03000
C 	C 	0.45560 0.46090 0.85900 -0.17500
C 	C 	0.45700 0.44200 0.07100 0.14900
H 	H 	0.49500 0.53150 0.62900 0.06300
O 	O 	0.40090 0.44180 0.54700 -0.39300
O 	O 	0.38470 0.36430 0.72400 -0.51300
O 	O 	0.41800 0.38670 0.16500 -0.43000
Cu	Cu	0.03687 0.65083 0.31733 0.91600
C 	C 	0.07747 0.75133 0.04433 0.41000
C 	C 	0.16477 0.85173 0.12833 -0.03400
C 	C 	0.12227 0.79423 0.19233 -0.17300
C 	C 	0.12367 0.77533 0.40433 0.14800
H 	H 	0.16167 0.86483 0.96233 0.06500
O 	O 	0.06757 0.77513 0.88033 -0.39100
O 	O 	0.05137 0.69763 0.05733 -0.51200
O 	O 	0.08467 0.72003 0.49833 -0.43100
Cu	Cu	0.70353 0.98417 0.65067 0.91700
C 	C 	0.74413 0.08467 0.37767 0.41300
C 	C 	0.83143 0.18507 0.46167 -0.03000
C 	C 	0.78893 0.12757 0.52567 -0.17500
C 	C 	0.79033 0.10867 0.73767 0.14900
H 	H 	0.82833 0.19817 0.29567 0.06300
O 	O 	0.73423 0.10847 0.21367 -0.39200
O 	O 	0.71803 0.03097 0.39067 -0.51200
O 	O 	0.75133 0.05337 0.83167 -0.43200
Cu	Cu	0.68250 0.05270 0.98400 0.91500
C 	C 	0.58200 0.99280 0.71100 0.41400
C 	C 	0.48160 0.97970 0.79500 -0.03000
C 	C 	0.53910 0.99470 0.85900 -0.17500
C 	C 	0.55800 0.01500 0.07100 0.14900
H 	H 	0.46850 0.96350 0.62900 0.06300
O 	O 	0.55820 0.95910 0.54700 -0.39300
O 	O 	0.63570 0.02040 0.72400 -0.51300
O 	O 	0.61330 0.03130 0.16500 -0.43000
Cu	Cu	0.34917 0.38603 0.31733 0.91700
C 	C 	0.24867 0.32613 0.04433 0.41200
C 	C 	0.14827 0.31303 0.12833 -0.03300
C 	C 	0.20577 0.32803 0.19233 -0.17400
C 	C 	0.22467 0.34833 0.40433 0.14800
H 	H 	0.13517 0.29683 0.96233 0.06400
O 	O 	0.22487 0.29243 0.88033 -0.39200
O 	O 	0.30237 0.35373 0.05733 -0.51200
O 	O 	0.27997 0.36463 0.49833 -0.43100
Cu	Cu	0.01583 0.71937 0.65067 0.91700
C 	C 	0.91533 0.65947 0.37767 0.41300
C 	C 	0.81493 0.64637 0.46167 -0.03000
C 	C 	0.87243 0.66137 0.52567 -0.17500
C 	C 	0.89133 0.68167 0.73767 0.14900
H 	H 	0.80183 0.63017 0.29567 0.06300
O 	O 	0.89153 0.62577 0.21367 -0.39200
O 	O 	0.96903 0.68707 0.39067 -0.51200
O 	O 	0.94663 0.69797 0.83167 -0.43200
Cu	Cu	0.05270 0.37020 0.01600 0.91600
C 	C 	0.99280 0.41080 0.28900 0.41400
C 	C 	0.97970 0.49810 0.20500 -0.03000
C 	C 	0.99470 0.45560 0.14100 -0.17500
C 	C 	0.01500 0.45700 0.92900 0.14900
H 	H 	0.96350 0.49500 0.37100 0.06300
O 	O 	0.95910 0.40090 0.45300 -0.39300
O 	O 	0.02040 0.38470 0.27600 -0.51300
O 	O 	0.03130 0.41800 0.83500 -0.43000
Cu	Cu	0.71937 0.70353 0.34933 0.91700
C 	C 	0.65947 0.74413 0.62233 0.41300
C 	C 	0.64637 0.83143 0.53833 -0.03000
C 	C 	0.66137 0.78893 0.47433 -0.17500
C 	C 	0.68167 0.79033 0.26233 0.14900
H 	H 	0.63017 0.82833 0.70433 0.06300
O 	O 	0.62577 0.73423 0.78633 -0.39200
O 	O 	0.68707 0.71803 0.60933 -0.51200
O 	O 	0.69797 0.75133 0.16833 -0.43100
Cu	Cu	0.38603 0.03687 0.68267 0.91600
C 	C 	0.32613 0.07747 0.95567 0.41100
C 	C 	0.31303 0.16477 0.87167 -0.03300
C 	C 	0.32803 0.12227 0.80767 -0.17400
C 	C 	0.34833 0.12367 0.59567 0.14800
H 	H 	0.29683 0.16167 0.03767 0.06400
O 	O 	0.29243 0.06757 0.11967 -0.39200
O 	O 	0.35373 0.05137 0.94267 -0.51200
O 	O 	0.36463 0.08467 0.50167 -0.43100
Cu	Cu	0.62980 0.68250 0.01600 0.91600
C 	C 	0.58920 0.58200 0.28900 0.41300
C 	C 	0.50190 0.48160 0.20500 -0.03000
C 	C 	0.54440 0.53910 0.14100 -0.17500
C 	C 	0.54300 0.55800 0.92900 0.14900
H 	H 	0.50500 0.46850 0.37100 0.06300
O 	O 	0.59910 0.55820 0.45300 -0.39300
O 	O 	0.61530 0.63570 0.27600 -0.51300
O 	O 	0.58200 0.61330 0.83500 -0.43000
Cu	Cu	0.29647 0.01583 0.34933 0.91700
C 	C 	0.25587 0.91533 0.62233 0.41300
C 	C 	0.16857 0.81493 0.53833 -0.03000
C 	C 	0.21107 0.87243 0.47433 -0.17500
C 	C 	0.20967 0.89133 0.26233 0.14900
H 	H 	0.17167 0.80183 0.70433 0.06300
O 	O 	0.26577 0.89153 0.78633 -0.39200
O 	O 	0.28197 0.96903 0.60933 -0.51200
O 	O 	0.24867 0.94663 0.16833 -0.43200
Cu	Cu	0.96313 0.34917 0.68267 0.91600
C 	C 	0.92253 0.24867 0.95567 0.41000
C 	C 	0.83523 0.14827 0.87167 -0.03400
C 	C 	0.87773 0.20577 0.80767 -0.17300
C 	C 	0.87633 0.22467 0.59567 0.14800
H 	H 	0.83833 0.13517 0.03767 0.06500
O 	O 	0.93243 0.22487 0.11967 -0.39100
O 	O 	0.94863 0.30237 0.94267 -0.51200
O 	O 	0.91533 0.27997 0.50167 -0.43100
Cu	Cu	0.31750 0.94730 0.01600 0.91500
C 	C 	0.41800 0.00720 0.28900 0.41400
C 	C 	0.51840 0.02030 0.20500 -0.03000
C 	C 	0.46090 0.00530 0.14100 -0.17500
C 	C 	0.44200 0.98500 0.92900 0.14900
H 	H 	0.53150 0.03650 0.37100 0.06300
O 	O 	0.44180 0.04090 0.45300 -0.39300
O 	O 	0.36430 0.97960 0.27600 -0.51300
O 	O 	0.38670 0.96870 0.83500 -0.43000
Cu	Cu	0.98417 0.28063 0.34933 0.91700
C 	C 	0.08467 0.34053 0.62233 0.41300
C 	C 	0.18507 0.35363 0.53833 -0.03000
C 	C 	0.12757 0.33863 0.47433 -0.17500
C 	C 	0.10867 0.31833 0.26233 0.14900
H 	H 	0.19817 0.36983 0.70433 0.06300
O 	O 	0.10847 0.37423 0.78633 -0.39200
O 	O 	0.03097 0.31293 0.60933 -0.51200
O 	O 	0.05337 0.30203 0.16833 -0.43200
Cu	Cu	0.65083 0.61397 0.68267 0.91700
C 	C 	0.75133 0.67387 0.95567 0.41200
C 	C 	0.85173 0.68697 0.87167 -0.03300
C 	C 	0.79423 0.67197 0.80767 -0.17400
C 	C 	0.77533 0.65167 0.59567 0.14800
H 	H 	0.86483 0.70317 0.03767 0.06400
O 	O 	0.77513 0.70757 0.11967 -0.39200
O 	O 	0.69763 0.64627 0.94267 -0.51200
O 	O 	0.72003 0.63537 0.50167 -0.43100
