data_crystal

_cell_length_a 8.98280
_cell_length_b 10.89000
_cell_length_c 12.56920
_cell_angle_alpha 64.73700
_cell_angle_beta  81.95900
_cell_angle_gamma 72.24900

_symmetry_space_group_name_	'P 1'
_symmetry_space_group_name_H-M	'P 1'

loop_
_symmetry_equiv_pos_as_xyz
  x,y,z

loop_
_atom_site_label
_atom_site_type_symbol
_atom_site_fract_x
_atom_site_fract_y
_atom_site_fract_z
_atom_site_charge
Ag	Ag	0.86032 0.51620 0.30463 0.47700
C 	C 	0.37460 0.60210 0.01970 0.08400
C 	C 	0.11770 0.66190 0.11490 0.12400
C 	C 	0.24310 0.71780 0.03810 -0.29300
H 	H 	0.28470 0.76420 0.07320 0.09200
H 	H 	0.19960 0.78780 0.96250 0.09400
C 	C 	0.52880 0.60260 0.02490 -0.09300
H 	H 	0.54820 0.67110 0.04220 0.03600
C 	C 	0.65240 0.50300 0.00460 -0.09300
H 	H 	0.75430 0.50570 0.00720 0.04300
C 	C 	0.64520 0.31460 0.30100 0.13600
C 	C 	0.54370 0.24030 0.28670 -0.30900
H 	H 	0.58730 0.20690 0.22570 0.10800
H 	H 	0.44180 0.30610 0.26090 0.10700
C 	C 	0.52360 0.11400 0.40060 0.08600
C 	C 	0.47510 0.01040 0.39040 -0.10000
H 	H 	0.45760 0.01810 0.31630 0.04100
C 	C 	0.45260 0.89610 0.48900 -0.09600
H 	H 	0.42150 0.82610 0.48170 0.03900
N 	N 	0.02350 0.61900 0.17440 -0.24300
N 	N 	0.72460 0.37390 0.30880 -0.24000
Ag	Ag	0.13968 0.48380 0.69537 0.47700
C 	C 	0.62540 0.39790 0.98030 0.08400
C 	C 	0.88230 0.33810 0.88510 0.12400
C 	C 	0.75690 0.28220 0.96190 -0.29300
H 	H 	0.71530 0.23580 0.92680 0.09200
H 	H 	0.80040 0.21220 0.03750 0.09400
C 	C 	0.47120 0.39740 0.97510 -0.09300
H 	H 	0.45180 0.32890 0.95780 0.03600
C 	C 	0.34760 0.49700 0.99540 -0.09300
H 	H 	0.24570 0.49430 0.99280 0.04300
C 	C 	0.35480 0.68540 0.69900 0.13600
C 	C 	0.45630 0.75970 0.71330 -0.30900
H 	H 	0.41270 0.79310 0.77430 0.10800
H 	H 	0.55820 0.69390 0.73910 0.10700
C 	C 	0.47640 0.88600 0.59940 0.08600
C 	C 	0.52490 0.98960 0.60960 -0.10000
H 	H 	0.54240 0.98190 0.68370 0.04100
C 	C 	0.54740 0.10390 0.51100 -0.09600
H 	H 	0.57850 0.17390 0.51830 0.03900
N 	N 	0.97650 0.38100 0.82560 -0.24300
N 	N 	0.27540 0.62610 0.69120 -0.24000
