data_crystal

_cell_length_a 10.57780
_cell_length_b 19.64930
_cell_length_c 19.18720
_cell_angle_alpha 90.00000
_cell_angle_beta  90.00000
_cell_angle_gamma 90.00000

_symmetry_space_group_name_	'P 1'
_symmetry_space_group_name_H-M	'P 1'

loop_
_symmetry_equiv_pos_as_xyz
  x,y,z

loop_
_atom_site_label
_atom_site_type_symbol
_atom_site_fract_x
_atom_site_fract_y
_atom_site_fract_z
_atom_site_charge
Zn	Zn	0.61168 0.96894 0.53736 1.20300
C 	C 	0.60210 0.97571 0.11868 0.41300
O 	O 	0.35380 0.92831 0.47670 -0.46100
O 	O 	0.66070 0.95837 0.06462 -0.47500
O 	O 	0.51910 0.87920 0.52904 -0.49500
O 	O 	0.49660 0.00477 0.12068 -0.48200
C 	C 	0.21060 0.81087 0.49930 0.05200
H 	H 	0.16550 0.85270 0.49810 0.01500
C 	C 	0.66370 0.95813 0.18710 -0.14700
C 	C 	0.34200 0.81114 0.50047 -0.14200
C 	C 	0.41030 0.87842 0.50210 0.40700
C 	C 	0.77980 0.92451 0.31267 0.06700
H 	H 	0.81970 0.91290 0.14460 0.00200
N 	N 	0.20500 0.04510 0.07020 -1.89100
C 	C 	0.11480 0.01830 0.02920 0.53700
H 	H 	0.14050 0.99460 0.98850 -0.12900
C 	C 	0.98580 0.02330 0.04300 -0.19100
H 	H 	0.92480 0.00370 0.01270 0.03000
C 	C 	0.94970 0.05830 0.10330 -0.23100
H 	H 	0.86290 0.06270 0.11510 0.12000
C 	C 	0.16790 0.07880 0.12740 -1.74700
C 	C 	0.26930 0.10610 0.17510 0.79400
H 	H 	0.30750 0.06840 0.20110 -0.20600
H 	H 	0.23190 0.13860 0.20780 -0.17100
H 	H 	0.33450 0.12890 0.14740 -0.26700
C 	C 	0.04030 0.08600 0.14490 -0.42900
H 	H 	0.01680 0.11020 0.18580 0.03900
C 	C 	0.00800 0.05500 0.33210 0.73200
H 	H 	0.93090 0.05550 0.30670 -0.20500
C 	C 	0.20660 0.00520 0.35860 0.22300
H 	H 	0.26790 0.97070 0.35090 -0.06900
C 	C 	0.09690 0.00460 0.31990 -0.18500
H 	H 	0.08260 0.97060 0.28560 0.08000
N 	N 	0.22960 0.05300 0.40680 1.71800
C 	C 	0.03200 0.10420 0.38140 0.21300
H 	H 	0.97210 0.13940 0.38940 -0.03600
C 	C 	0.14580 0.10240 0.41980 1.57800
C 	C 	0.17630 0.15530 0.47240 -1.92100
H 	H 	0.26200 0.14780 0.49020 0.56000
H 	H 	0.17130 0.20040 0.45080 0.54800
H 	H 	0.11570 0.15260 0.51100 0.54900
Zn	Zn	0.38832 0.03106 0.03736 1.20200
C 	C 	0.39790 0.02429 0.61868 0.41200
O 	O 	0.64620 0.07169 0.97670 -0.46000
O 	O 	0.33930 0.04163 0.56462 -0.47700
O 	O 	0.48090 0.12080 0.02904 -0.49600
O 	O 	0.50340 0.99523 0.62068 -0.48200
C 	C 	0.78940 0.18913 0.99930 0.05300
H 	H 	0.83450 0.14730 0.99810 0.01300
C 	C 	0.33630 0.04187 0.68710 -0.14800
C 	C 	0.65800 0.18886 0.00047 -0.14300
C 	C 	0.58970 0.12158 0.00210 0.40600
C 	C 	0.22020 0.07549 0.81267 0.06700
H 	H 	0.18030 0.08710 0.64460 0.00200
N 	N 	0.79500 0.95490 0.57020 -1.89900
C 	C 	0.88520 0.98170 0.52920 0.54000
H 	H 	0.85950 0.00540 0.48850 -0.12900
C 	C 	0.01420 0.97670 0.54300 -0.19100
H 	H 	0.07520 0.99630 0.51270 0.03000
C 	C 	0.05030 0.94170 0.60330 -0.23200
H 	H 	0.13710 0.93730 0.61510 0.12000
C 	C 	0.83210 0.92120 0.62740 -1.75600
C 	C 	0.73070 0.89390 0.67510 0.80000
H 	H 	0.69250 0.93160 0.70110 -0.20800
H 	H 	0.76810 0.86140 0.70780 -0.17300
H 	H 	0.66550 0.87110 0.64740 -0.26900
C 	C 	0.95970 0.91400 0.64490 -0.43100
H 	H 	0.98320 0.88980 0.68580 0.03900
C 	C 	0.99200 0.94500 0.83210 0.73100
H 	H 	0.06910 0.94450 0.80670 -0.20500
C 	C 	0.79340 0.99480 0.85860 0.22200
H 	H 	0.73210 0.02930 0.85090 -0.06800
C 	C 	0.90310 0.99540 0.81990 -0.18400
H 	H 	0.91740 0.02940 0.78560 0.08000
N 	N 	0.77040 0.94700 0.90680 1.71600
C 	C 	0.96800 0.89580 0.88140 0.21300
H 	H 	0.02790 0.86060 0.88940 -0.03600
C 	C 	0.85420 0.89760 0.91980 1.57600
C 	C 	0.82370 0.84470 0.97240 -1.92200
H 	H 	0.73800 0.85220 0.99020 0.56000
H 	H 	0.82870 0.79960 0.95080 0.54800
H 	H 	0.88430 0.84740 0.01100 0.55000
Zn	Zn	0.38832 0.46894 0.96264 1.20400
C 	C 	0.39790 0.47571 0.38132 0.41100
O 	O 	0.64620 0.42831 0.02330 -0.46300
O 	O 	0.33930 0.45837 0.43538 -0.47500
O 	O 	0.48090 0.37920 0.97096 -0.49500
O 	O 	0.50340 0.50477 0.37932 -0.48200
C 	C 	0.78940 0.31087 0.00070 0.05100
H 	H 	0.83450 0.35270 0.00190 0.01400
C 	C 	0.33630 0.45813 0.31290 -0.14700
C 	C 	0.65800 0.31114 0.99953 -0.14100
C 	C 	0.58970 0.37842 0.99790 0.40700
C 	C 	0.22020 0.42451 0.18733 0.06700
H 	H 	0.18030 0.41290 0.35540 0.00400
N 	N 	0.79500 0.54510 0.42980 -1.78200
C 	C 	0.88520 0.51830 0.47080 0.52100
H 	H 	0.85950 0.49460 0.51150 -0.13200
C 	C 	0.01420 0.52330 0.45700 -0.20100
H 	H 	0.07520 0.50370 0.48730 0.04000
C 	C 	0.05030 0.55830 0.39670 -0.21300
H 	H 	0.13710 0.56270 0.38490 0.11200
C 	C 	0.83210 0.57880 0.37260 -1.62400
C 	C 	0.73070 0.60610 0.32490 0.70800
H 	H 	0.69250 0.56840 0.29890 -0.18100
H 	H 	0.76810 0.63860 0.29220 -0.15000
H 	H 	0.66550 0.62890 0.35260 -0.23900
C 	C 	0.95970 0.58600 0.35510 -0.40100
H 	H 	0.98320 0.61020 0.31420 0.03900
C 	C 	0.99200 0.55500 0.16790 0.68800
H 	H 	0.06910 0.55550 0.19330 -0.19500
C 	C 	0.79340 0.50520 0.14140 0.21000
H 	H 	0.73210 0.47070 0.14910 -0.06600
C 	C 	0.90310 0.50460 0.18010 -0.17000
H 	H 	0.91740 0.47060 0.21440 0.07100
N 	N 	0.77040 0.55300 0.09320 1.59600
C 	C 	0.96800 0.60420 0.11860 0.18700
H 	H 	0.02790 0.63940 0.11060 -0.03000
C 	C 	0.85420 0.60240 0.08020 1.48400
C 	C 	0.82370 0.65530 0.02760 -1.82700
H 	H 	0.73800 0.64780 0.00980 0.53300
H 	H 	0.82870 0.70040 0.04920 0.52200
H 	H 	0.88430 0.65260 0.98900 0.52400
Zn	Zn	0.61168 0.53106 0.46264 1.20400
C 	C 	0.60210 0.52429 0.88132 0.41100
O 	O 	0.35380 0.57169 0.52330 -0.46300
O 	O 	0.66070 0.54163 0.93538 -0.47500
O 	O 	0.51910 0.62080 0.47096 -0.49500
O 	O 	0.49660 0.49523 0.87932 -0.48200
C 	C 	0.21060 0.68913 0.50070 0.05100
H 	H 	0.16550 0.64730 0.50190 0.01400
C 	C 	0.66370 0.54187 0.81290 -0.14700
C 	C 	0.34200 0.68886 0.49953 -0.14200
C 	C 	0.41030 0.62158 0.49790 0.40700
C 	C 	0.77980 0.57549 0.68733 0.06700
H 	H 	0.81970 0.58710 0.85540 0.00400
N 	N 	0.20500 0.45490 0.92980 -1.78000
C 	C 	0.11480 0.48170 0.97080 0.52000
H 	H 	0.14050 0.50540 0.01150 -0.13200
C 	C 	0.98580 0.47670 0.95700 -0.20000
H 	H 	0.92480 0.49630 0.98730 0.03900
C 	C 	0.94970 0.44170 0.89670 -0.21400
H 	H 	0.86290 0.43730 0.88490 0.11300
C 	C 	0.16790 0.42120 0.87260 -1.62300
C 	C 	0.26930 0.39390 0.82490 0.70700
H 	H 	0.30750 0.43160 0.79890 -0.18100
H 	H 	0.23190 0.36140 0.79220 -0.15000
H 	H 	0.33450 0.37110 0.85260 -0.23800
C 	C 	0.04030 0.41400 0.85510 -0.40000
H 	H 	0.01680 0.38980 0.81420 0.03900
C 	C 	0.00800 0.44500 0.66790 0.68700
H 	H 	0.93090 0.44450 0.69330 -0.19500
C 	C 	0.20660 0.49480 0.64140 0.21000
H 	H 	0.26790 0.52930 0.64910 -0.06600
C 	C 	0.09690 0.49540 0.68010 -0.17000
H 	H 	0.08260 0.52940 0.71440 0.07200
N 	N 	0.22960 0.44700 0.59320 1.59100
C 	C 	0.03200 0.39580 0.61860 0.18600
H 	H 	0.97210 0.36060 0.61060 -0.03000
C 	C 	0.14580 0.39760 0.58020 1.48200
C 	C 	0.17630 0.34470 0.52760 -1.82600
H 	H 	0.26200 0.35220 0.50980 0.53300
H 	H 	0.17130 0.29960 0.54920 0.52100
H 	H 	0.11570 0.34740 0.48900 0.52400
Zn	Zn	0.38832 0.03106 0.46264 1.20200
C 	C 	0.39790 0.02429 0.88132 0.41200
O 	O 	0.64620 0.07169 0.52330 -0.46200
O 	O 	0.33930 0.04163 0.93538 -0.47600
O 	O 	0.48090 0.12080 0.47096 -0.49600
O 	O 	0.50340 0.99523 0.87932 -0.48300
C 	C 	0.78940 0.18913 0.50070 0.05100
H 	H 	0.83450 0.14730 0.50190 0.01400
C 	C 	0.33630 0.04187 0.81290 -0.14800
C 	C 	0.65800 0.18886 0.49953 -0.14200
C 	C 	0.58970 0.12158 0.49790 0.40700
C 	C 	0.22020 0.07549 0.68733 0.06700
H 	H 	0.18030 0.08710 0.85540 0.00300
N 	N 	0.79500 0.95490 0.92980 -1.89400
C 	C 	0.88520 0.98170 0.97080 0.53800
H 	H 	0.85950 0.00540 0.01150 -0.12900
C 	C 	0.01420 0.97670 0.95700 -0.19200
H 	H 	0.07520 0.99630 0.98730 0.03100
C 	C 	0.05030 0.94170 0.89670 -0.23100
H 	H 	0.13710 0.93730 0.88490 0.12000
C 	C 	0.83210 0.92120 0.87260 -1.75000
C 	C 	0.73070 0.89390 0.82490 0.79500
H 	H 	0.69250 0.93160 0.79890 -0.20600
H 	H 	0.76810 0.86140 0.79220 -0.17200
H 	H 	0.66550 0.87110 0.85260 -0.26700
C 	C 	0.95970 0.91400 0.85510 -0.43000
H 	H 	0.98320 0.88980 0.81420 0.03900
C 	C 	0.99200 0.94500 0.66790 0.73200
H 	H 	0.06910 0.94450 0.69330 -0.20500
C 	C 	0.79340 0.99480 0.64140 0.22300
H 	H 	0.73210 0.02930 0.64910 -0.06900
C 	C 	0.90310 0.99540 0.68010 -0.18500
H 	H 	0.91740 0.02940 0.71440 0.07900
N 	N 	0.77040 0.94700 0.59320 1.72200
C 	C 	0.96800 0.89580 0.61860 0.21400
H 	H 	0.02790 0.86060 0.61060 -0.03700
C 	C 	0.85420 0.89760 0.58020 1.58000
C 	C 	0.82370 0.84470 0.52760 -1.92300
H 	H 	0.73800 0.85220 0.50980 0.56000
H 	H 	0.82870 0.79960 0.54920 0.54900
H 	H 	0.88430 0.84740 0.48900 0.55000
Zn	Zn	0.61168 0.96894 0.96264 1.20200
C 	C 	0.60210 0.97571 0.38132 0.41200
O 	O 	0.35380 0.92831 0.02330 -0.46000
O 	O 	0.66070 0.95837 0.43538 -0.47700
O 	O 	0.51910 0.87920 0.97096 -0.49600
O 	O 	0.49660 0.00477 0.37932 -0.48200
C 	C 	0.21060 0.81087 0.00070 0.05200
H 	H 	0.16550 0.85270 0.00190 0.01400
C 	C 	0.66370 0.95813 0.31290 -0.14800
C 	C 	0.34200 0.81114 0.99953 -0.14300
C 	C 	0.41030 0.87842 0.99790 0.40600
C 	C 	0.77980 0.92451 0.18733 0.06700
H 	H 	0.81970 0.91290 0.35540 0.00200
N 	N 	0.20500 0.04510 0.42980 -1.89600
C 	C 	0.11480 0.01830 0.47080 0.53900
H 	H 	0.14050 0.99460 0.51150 -0.12900
C 	C 	0.98580 0.02330 0.45700 -0.19100
H 	H 	0.92480 0.00370 0.48730 0.02900
C 	C 	0.94970 0.05830 0.39670 -0.23200
H 	H 	0.86290 0.06270 0.38490 0.12000
C 	C 	0.16790 0.07880 0.37260 -1.75300
C 	C 	0.26930 0.10610 0.32490 0.79800
H 	H 	0.30750 0.06840 0.29890 -0.20700
H 	H 	0.23190 0.13860 0.29220 -0.17300
H 	H 	0.33450 0.12890 0.35260 -0.26800
C 	C 	0.04030 0.08600 0.35510 -0.43000
H 	H 	0.01680 0.11020 0.31420 0.03900
C 	C 	0.00800 0.05500 0.16790 0.73000
H 	H 	0.93090 0.05550 0.19330 -0.20500
C 	C 	0.20660 0.00520 0.14140 0.22200
H 	H 	0.26790 0.97070 0.14910 -0.06800
C 	C 	0.09690 0.00460 0.18010 -0.18500
H 	H 	0.08260 0.97060 0.21440 0.08000
N 	N 	0.22960 0.05300 0.09320 1.71200
C 	C 	0.03200 0.10420 0.11860 0.21200
H 	H 	0.97210 0.13940 0.11060 -0.03600
C 	C 	0.14580 0.10240 0.08020 1.57400
C 	C 	0.17630 0.15530 0.02760 -1.92000
H 	H 	0.26200 0.14780 0.00980 0.55900
H 	H 	0.17130 0.20040 0.04920 0.54800
H 	H 	0.11570 0.15260 0.98900 0.55000
Zn	Zn	0.61168 0.53106 0.03736 1.20400
C 	C 	0.60210 0.52429 0.61868 0.41100
O 	O 	0.35380 0.57169 0.97670 -0.46300
O 	O 	0.66070 0.54163 0.56462 -0.47500
O 	O 	0.51910 0.62080 0.02904 -0.49500
O 	O 	0.49660 0.49523 0.62068 -0.48200
C 	C 	0.21060 0.68913 0.99930 0.05000
H 	H 	0.16550 0.64730 0.99810 0.01400
C 	C 	0.66370 0.54187 0.68710 -0.14700
C 	C 	0.34200 0.68886 0.00047 -0.14200
C 	C 	0.41030 0.62158 0.00210 0.40700
C 	C 	0.77980 0.57549 0.81267 0.06700
H 	H 	0.81970 0.58710 0.64460 0.00400
N 	N 	0.20500 0.45490 0.57020 -1.77900
C 	C 	0.11480 0.48170 0.52920 0.52000
H 	H 	0.14050 0.50540 0.48850 -0.13200
C 	C 	0.98580 0.47670 0.54300 -0.20000
H 	H 	0.92480 0.49630 0.51270 0.03900
C 	C 	0.94970 0.44170 0.60330 -0.21300
H 	H 	0.86290 0.43730 0.61510 0.11300
C 	C 	0.16790 0.42120 0.62740 -1.62200
C 	C 	0.26930 0.39390 0.67510 0.70700
H 	H 	0.30750 0.43160 0.70110 -0.18000
H 	H 	0.23190 0.36140 0.70780 -0.15000
H 	H 	0.33450 0.37110 0.64740 -0.23800
C 	C 	0.04030 0.41400 0.64490 -0.39900
H 	H 	0.01680 0.38980 0.68580 0.03900
C 	C 	0.00800 0.44500 0.83210 0.68700
H 	H 	0.93090 0.44450 0.80670 -0.19500
C 	C 	0.20660 0.49480 0.85860 0.21000
H 	H 	0.26790 0.52930 0.85090 -0.06600
C 	C 	0.09690 0.49540 0.81990 -0.17000
H 	H 	0.08260 0.52940 0.78560 0.07200
N 	N 	0.22960 0.44700 0.90680 1.59300
C 	C 	0.03200 0.39580 0.88140 0.18600
H 	H 	0.97210 0.36060 0.88940 -0.03000
C 	C 	0.14580 0.39760 0.91980 1.48200
C 	C 	0.17630 0.34470 0.97240 -1.82600
H 	H 	0.26200 0.35220 0.99020 0.53300
H 	H 	0.17130 0.29960 0.95080 0.52100
H 	H 	0.11570 0.34740 0.01100 0.52400
Zn	Zn	0.38832 0.46894 0.53736 1.20400
C 	C 	0.39790 0.47571 0.11868 0.41100
O 	O 	0.64620 0.42831 0.47670 -0.46300
O 	O 	0.33930 0.45837 0.06462 -0.47500
O 	O 	0.48090 0.37920 0.52904 -0.49500
O 	O 	0.50340 0.50477 0.12068 -0.48200
C 	C 	0.78940 0.31087 0.49930 0.05100
H 	H 	0.83450 0.35270 0.49810 0.01400
C 	C 	0.33630 0.45813 0.18710 -0.14700
C 	C 	0.65800 0.31114 0.50047 -0.14200
C 	C 	0.58970 0.37842 0.50210 0.40700
C 	C 	0.22020 0.42451 0.31267 0.06700
H 	H 	0.18030 0.41290 0.14460 0.00400
N 	N 	0.79500 0.54510 0.07020 -1.78300
C 	C 	0.88520 0.51830 0.02920 0.52200
H 	H 	0.85950 0.49460 0.98850 -0.13200
C 	C 	0.01420 0.52330 0.04300 -0.20100
H 	H 	0.07520 0.50370 0.01270 0.04000
C 	C 	0.05030 0.55830 0.10330 -0.21300
H 	H 	0.13710 0.56270 0.11510 0.11300
C 	C 	0.83210 0.57880 0.12740 -1.62600
C 	C 	0.73070 0.60610 0.17510 0.70900
H 	H 	0.69250 0.56840 0.20110 -0.18100
H 	H 	0.76810 0.63860 0.20780 -0.15000
H 	H 	0.66550 0.62890 0.14740 -0.23900
C 	C 	0.95970 0.58600 0.14490 -0.40100
H 	H 	0.98320 0.61020 0.18580 0.03900
C 	C 	0.99200 0.55500 0.33210 0.68700
H 	H 	0.06910 0.55550 0.30670 -0.19500
C 	C 	0.79340 0.50520 0.35860 0.21000
H 	H 	0.73210 0.47070 0.35090 -0.06600
C 	C 	0.90310 0.50460 0.31990 -0.17000
H 	H 	0.91740 0.47060 0.28560 0.07100
N 	N 	0.77040 0.55300 0.40680 1.59400
C 	C 	0.96800 0.60420 0.38140 0.18700
H 	H 	0.02790 0.63940 0.38940 -0.03000
C 	C 	0.85420 0.60240 0.41980 1.48300
C 	C 	0.82370 0.65530 0.47240 -1.82800
H 	H 	0.73800 0.64780 0.49020 0.53300
H 	H 	0.82870 0.70040 0.45080 0.52200
H 	H 	0.88430 0.65260 0.51100 0.52400
C 	C 	0.60680 0.97530 0.25000 0.08200
H 	H 	0.52840 0.99890 0.25000 0.03700
C 	C 	0.83650 0.90820 0.25000 -0.13600
H 	H 	0.91580 0.88540 0.25000 0.05900
C 	C 	0.39320 0.02470 0.75000 0.08200
H 	H 	0.47160 0.00110 0.75000 0.03700
C 	C 	0.16350 0.09180 0.75000 -0.13600
H 	H 	0.08420 0.11460 0.75000 0.05900
C 	C 	0.39320 0.47530 0.25000 0.08200
H 	H 	0.47160 0.49890 0.25000 0.03500
C 	C 	0.16350 0.40820 0.25000 -0.13500
H 	H 	0.08420 0.38540 0.25000 0.06100
C 	C 	0.60680 0.52470 0.75000 0.08200
H 	H 	0.52840 0.50110 0.75000 0.03500
C 	C 	0.83650 0.59180 0.75000 -0.13500
H 	H 	0.91580 0.61460 0.75000 0.06100
C 	C 	0.14530 0.75000 0.50000 -0.11800
H 	H 	0.05550 0.75000 0.50000 0.02500
C 	C 	0.40740 0.75000 0.50000 0.08500
H 	H 	0.49730 0.75000 0.50000 0.00700
C 	C 	0.85470 0.25000 -0.00000 -0.11900
H 	H 	0.94450 0.25000 -0.00000 0.02500
C 	C 	0.59260 0.25000 -0.00000 0.08400
H 	H 	0.50270 0.25000 -0.00000 0.00800
C 	C 	0.85470 0.25000 0.50000 -0.11800
H 	H 	0.94450 0.25000 0.50000 0.02500
C 	C 	0.59260 0.25000 0.50000 0.08500
H 	H 	0.50270 0.25000 0.50000 0.00700
C 	C 	0.14530 0.75000 -0.00000 -0.11800
H 	H 	0.05550 0.75000 -0.00000 0.02500
C 	C 	0.40740 0.75000 -0.00000 0.08600
H 	H 	0.49730 0.75000 -0.00000 0.00700
