data_crystal

_cell_length_a 13.46080
_cell_length_b 13.47070
_cell_length_c 13.50760
_cell_angle_alpha 90.00000
_cell_angle_beta  90.00000
_cell_angle_gamma 90.00000

_symmetry_space_group_name_	'P 1'
_symmetry_space_group_name_H-M	'P 1'

loop_
_symmetry_equiv_pos_as_xyz
  x,y,z

loop_
_atom_site_label
_atom_site_type_symbol
_atom_site_fract_x
_atom_site_fract_y
_atom_site_fract_z
_atom_site_charge
C 	C 	0.06960 0.94870 0.98250 -0.07100
H 	H 	0.12560 0.90850 0.96740 -0.00600
C 	C 	0.00380 0.93440 0.06140 -0.07200
H 	H 	0.00720 0.88270 0.10920 -0.00800
C 	C 	0.06810 0.99060 0.94250 -0.07200
H 	H 	0.12190 0.98230 0.89780 -0.00700
C 	C 	0.04660 0.92980 0.02380 -0.07200
H 	H 	0.08330 0.87310 0.04400 -0.00400
C 	C 	0.03860 0.03260 0.92990 -0.07400
H 	H 	0.06970 0.05940 0.87270 -0.00300
C 	C 	0.06960 0.44870 0.48250 -0.07400
H 	H 	0.12560 0.40850 0.46740 -0.00700
C 	C 	0.00380 0.43440 0.56140 -0.07100
H 	H 	0.00720 0.38270 0.60920 -0.01000
C 	C 	0.06810 0.49060 0.44250 -0.07200
H 	H 	0.12190 0.48230 0.39780 -0.00900
C 	C 	0.04660 0.42980 0.52380 -0.07500
H 	H 	0.08330 0.37310 0.54400 -0.00500
C 	C 	0.03860 0.53260 0.42990 -0.07600
H 	H 	0.06970 0.55940 0.37270 -0.00300
C 	C 	0.56960 0.94870 0.48250 -0.07400
H 	H 	0.62560 0.90850 0.46740 -0.00700
C 	C 	0.50380 0.93440 0.56140 -0.07100
H 	H 	0.50720 0.88270 0.60920 -0.01000
C 	C 	0.56810 0.99060 0.44250 -0.07100
H 	H 	0.62190 0.98230 0.39780 -0.00900
C 	C 	0.54660 0.92980 0.52380 -0.07500
H 	H 	0.58330 0.87310 0.54400 -0.00500
C 	C 	0.53860 0.03260 0.42990 -0.07700
H 	H 	0.56970 0.05940 0.37270 -0.00300
C 	C 	0.56960 0.44870 0.98250 -0.07300
H 	H 	0.62560 0.40850 0.96740 -0.00700
C 	C 	0.50380 0.43440 0.06140 -0.07100
H 	H 	0.50720 0.38270 0.10920 -0.01000
C 	C 	0.56810 0.49060 0.94250 -0.07200
H 	H 	0.62190 0.48230 0.89780 -0.00900
C 	C 	0.54660 0.42980 0.02380 -0.07500
H 	H 	0.58330 0.37310 0.04400 -0.00500
C 	C 	0.53860 0.53260 0.92990 -0.07700
H 	H 	0.56970 0.55940 0.87270 -0.00300
C 	C 	0.68040 0.80130 0.98250 -0.06700
H 	H 	0.62440 0.84150 0.96740 -0.00900
C 	C 	0.74620 0.81560 0.06140 -0.07100
H 	H 	0.74280 0.86730 0.10920 -0.00900
C 	C 	0.68190 0.75940 0.94250 -0.07200
H 	H 	0.62810 0.76770 0.89780 -0.00900
C 	C 	0.70340 0.82020 0.02380 -0.08100
H 	H 	0.66670 0.87690 0.04400 -0.00200
C 	C 	0.71140 0.71740 0.92990 -0.08200
H 	H 	0.68030 0.69060 0.87270 -0.00100
C 	C 	0.68040 0.30130 0.48250 -0.07400
H 	H 	0.62440 0.34150 0.46740 -0.00600
C 	C 	0.74620 0.31560 0.56140 -0.07100
H 	H 	0.74280 0.36730 0.60920 -0.01000
C 	C 	0.68190 0.25940 0.44250 -0.07200
H 	H 	0.62810 0.26770 0.39780 -0.00900
C 	C 	0.70340 0.32020 0.52380 -0.07500
H 	H 	0.66670 0.37690 0.54400 -0.00500
C 	C 	0.71140 0.21740 0.42990 -0.07700
H 	H 	0.68030 0.19060 0.37270 -0.00300
C 	C 	0.18040 0.80130 0.48250 -0.07400
H 	H 	0.12440 0.84150 0.46740 -0.00600
C 	C 	0.24620 0.81560 0.56140 -0.07100
H 	H 	0.24280 0.86730 0.60920 -0.00900
C 	C 	0.18190 0.75940 0.44250 -0.07200
H 	H 	0.12810 0.76770 0.39780 -0.00900
C 	C 	0.20340 0.82020 0.52380 -0.07500
H 	H 	0.16670 0.87690 0.54400 -0.00500
C 	C 	0.21140 0.71740 0.42990 -0.07700
H 	H 	0.18030 0.69060 0.37270 -0.00300
C 	C 	0.18040 0.30130 0.98250 -0.08000
H 	H 	0.12440 0.34150 0.96740 -0.00400
C 	C 	0.24620 0.31560 0.06140 -0.07100
H 	H 	0.24280 0.36730 0.10920 -0.01000
C 	C 	0.18190 0.25940 0.94250 -0.07100
H 	H 	0.12810 0.26770 0.89780 -0.00900
C 	C 	0.20340 0.32020 0.02380 -0.06800
H 	H 	0.16670 0.37690 0.04400 -0.00800
C 	C 	0.21140 0.21740 0.92990 -0.07100
H 	H 	0.18030 0.19060 0.87270 -0.00500
C 	C 	0.68040 0.94870 0.76750 -0.07400
H 	H 	0.62440 0.90850 0.78260 -0.00600
C 	C 	0.74620 0.93440 0.68860 -0.07000
H 	H 	0.74280 0.88270 0.64080 -0.01000
C 	C 	0.68190 0.99060 0.80750 -0.06300
H 	H 	0.62810 0.98230 0.85220 -0.01300
C 	C 	0.70340 0.92980 0.72620 -0.08100
H 	H 	0.66670 0.87310 0.70600 -0.00300
C 	C 	0.71140 0.03260 0.82010 -0.08400
H 	H 	0.68030 0.05940 0.87730 -0.00000
C 	C 	0.68040 0.44870 0.26750 -0.07300
H 	H 	0.62440 0.40850 0.28260 -0.00700
C 	C 	0.74620 0.43440 0.18860 -0.07100
H 	H 	0.74280 0.38270 0.14080 -0.00900
C 	C 	0.68190 0.49060 0.30750 -0.07200
H 	H 	0.62810 0.48230 0.35220 -0.00900
C 	C 	0.70340 0.42980 0.22620 -0.07500
H 	H 	0.66670 0.37310 0.20600 -0.00500
C 	C 	0.71140 0.53260 0.32010 -0.07700
H 	H 	0.68030 0.55940 0.37730 -0.00300
C 	C 	0.18040 0.94870 0.26750 -0.07200
H 	H 	0.12440 0.90850 0.28260 -0.00600
C 	C 	0.24620 0.93440 0.18860 -0.07200
H 	H 	0.24280 0.88270 0.14080 -0.00900
C 	C 	0.18190 0.99060 0.30750 -0.08000
H 	H 	0.12810 0.98230 0.35220 -0.00500
C 	C 	0.20340 0.92980 0.22620 -0.06700
H 	H 	0.16670 0.87310 0.20600 -0.00700
C 	C 	0.21140 0.03260 0.32010 -0.06900
H 	H 	0.18030 0.05940 0.37730 -0.00600
C 	C 	0.18040 0.44870 0.76750 -0.07400
H 	H 	0.12440 0.40850 0.78260 -0.00600
C 	C 	0.24620 0.43440 0.68860 -0.07100
H 	H 	0.24280 0.38270 0.64080 -0.01000
C 	C 	0.18190 0.49060 0.80750 -0.07200
H 	H 	0.12810 0.48230 0.85220 -0.00800
C 	C 	0.20340 0.42980 0.72620 -0.07500
H 	H 	0.16670 0.37310 0.70600 -0.00500
C 	C 	0.21140 0.53260 0.82010 -0.07700
H 	H 	0.18030 0.55940 0.87730 -0.00300
C 	C 	0.06960 0.80130 0.76750 -0.06600
H 	H 	0.12560 0.84150 0.78260 -0.00900
C 	C 	0.00380 0.81560 0.68860 -0.08000
H 	H 	0.00720 0.86730 0.64080 -0.00600
C 	C 	0.06810 0.75940 0.80750 -0.07200
H 	H 	0.12190 0.76770 0.85220 -0.00800
C 	C 	0.04660 0.82020 0.72620 -0.07300
H 	H 	0.08330 0.87690 0.70600 -0.00500
C 	C 	0.03860 0.71740 0.82010 -0.08400
H 	H 	0.06970 0.69060 0.87730 -0.00000
C 	C 	0.06960 0.30130 0.26750 -0.08000
H 	H 	0.12560 0.34150 0.28260 -0.00400
C 	C 	0.00380 0.31560 0.18860 -0.06300
H 	H 	0.00720 0.36730 0.14080 -0.01300
C 	C 	0.06810 0.25940 0.30750 -0.07000
H 	H 	0.12190 0.26770 0.35220 -0.00900
C 	C 	0.04660 0.32020 0.22620 -0.07600
H 	H 	0.08330 0.37690 0.20600 -0.00500
C 	C 	0.03860 0.21740 0.32010 -0.06900
H 	H 	0.06970 0.19060 0.37730 -0.00600
C 	C 	0.56960 0.80130 0.26750 -0.07300
H 	H 	0.62560 0.84150 0.28260 -0.00700
C 	C 	0.50380 0.81560 0.18860 -0.07100
H 	H 	0.50720 0.86730 0.14080 -0.00900
C 	C 	0.56810 0.75940 0.30750 -0.07100
H 	H 	0.62190 0.76770 0.35220 -0.00900
C 	C 	0.54660 0.82020 0.22620 -0.07500
H 	H 	0.58330 0.87690 0.20600 -0.00500
C 	C 	0.53860 0.71740 0.32010 -0.07700
H 	H 	0.56970 0.69060 0.37730 -0.00300
C 	C 	0.56960 0.30130 0.76750 -0.07300
H 	H 	0.62560 0.34150 0.78260 -0.00700
C 	C 	0.50380 0.31560 0.68860 -0.07200
H 	H 	0.50720 0.36730 0.64080 -0.01000
C 	C 	0.56810 0.25940 0.80750 -0.07200
H 	H 	0.62190 0.26770 0.85220 -0.00900
C 	C 	0.54660 0.32020 0.72620 -0.07500
H 	H 	0.58330 0.37690 0.70600 -0.00500
C 	C 	0.53860 0.21740 0.82010 -0.07700
H 	H 	0.56970 0.19060 0.87730 -0.00300
C 	C 	0.93040 0.05130 0.01750 -0.07200
H 	H 	0.87440 0.09150 0.03260 -0.00700
C 	C 	0.99620 0.06560 0.93860 -0.07300
H 	H 	0.99280 0.11730 0.89080 -0.00900
C 	C 	0.93190 0.00940 0.05750 -0.07300
H 	H 	0.87810 0.01770 0.10220 -0.00800
C 	C 	0.95340 0.07020 0.97620 -0.07300
H 	H 	0.91670 0.12690 0.95600 -0.00500
C 	C 	0.96140 0.96740 0.07010 -0.07500
H 	H 	0.93030 0.94060 0.12730 -0.00400
C 	C 	0.93040 0.55130 0.51750 -0.07400
H 	H 	0.87440 0.59150 0.53260 -0.00700
C 	C 	0.99620 0.56560 0.43860 -0.07100
H 	H 	0.99280 0.61730 0.39080 -0.01000
C 	C 	0.93190 0.50940 0.55750 -0.07200
H 	H 	0.87810 0.51770 0.60220 -0.00900
C 	C 	0.95340 0.57020 0.47620 -0.07500
H 	H 	0.91670 0.62690 0.45600 -0.00500
C 	C 	0.96140 0.46740 0.57010 -0.07600
H 	H 	0.93030 0.44060 0.62730 -0.00300
C 	C 	0.43040 0.05130 0.51750 -0.07400
H 	H 	0.37440 0.09150 0.53260 -0.00700
C 	C 	0.49620 0.06560 0.43860 -0.07100
H 	H 	0.49280 0.11730 0.39080 -0.01000
C 	C 	0.43190 0.00940 0.55750 -0.07100
H 	H 	0.37810 0.01770 0.60220 -0.00900
C 	C 	0.45340 0.07020 0.47620 -0.07500
H 	H 	0.41670 0.12690 0.45600 -0.00500
C 	C 	0.46140 0.96740 0.57010 -0.07700
H 	H 	0.43030 0.94060 0.62730 -0.00300
C 	C 	0.43040 0.55130 0.01750 -0.07300
H 	H 	0.37440 0.59150 0.03260 -0.00700
C 	C 	0.49620 0.56560 0.93860 -0.07100
H 	H 	0.49280 0.61730 0.89080 -0.01000
C 	C 	0.43190 0.50940 0.05750 -0.07200
H 	H 	0.37810 0.51770 0.10220 -0.00900
C 	C 	0.45340 0.57020 0.97620 -0.07500
H 	H 	0.41670 0.62690 0.95600 -0.00500
C 	C 	0.46140 0.46740 0.07010 -0.07700
H 	H 	0.43030 0.44060 0.12730 -0.00300
C 	C 	0.31960 0.19870 0.01750 -0.06700
H 	H 	0.37560 0.15850 0.03260 -0.00900
C 	C 	0.25380 0.18440 0.93860 -0.07100
H 	H 	0.25720 0.13270 0.89080 -0.00900
C 	C 	0.31810 0.24060 0.05750 -0.07200
H 	H 	0.37190 0.23230 0.10220 -0.00900
C 	C 	0.29660 0.17980 0.97620 -0.08100
H 	H 	0.33330 0.12310 0.95600 -0.00200
C 	C 	0.28860 0.28260 0.07010 -0.08200
H 	H 	0.31970 0.30940 0.12730 -0.00100
C 	C 	0.31960 0.69870 0.51750 -0.07400
H 	H 	0.37560 0.65850 0.53260 -0.00600
C 	C 	0.25380 0.68440 0.43860 -0.07100
H 	H 	0.25720 0.63270 0.39080 -0.01000
C 	C 	0.31810 0.74060 0.55750 -0.07200
H 	H 	0.37190 0.73230 0.60220 -0.00900
C 	C 	0.29660 0.67980 0.47620 -0.07500
H 	H 	0.33330 0.62310 0.45600 -0.00500
C 	C 	0.28860 0.78260 0.57010 -0.07700
H 	H 	0.31970 0.80940 0.62730 -0.00300
C 	C 	0.81960 0.19870 0.51750 -0.07400
H 	H 	0.87560 0.15850 0.53260 -0.00600
C 	C 	0.75380 0.18440 0.43860 -0.07100
H 	H 	0.75720 0.13270 0.39080 -0.00900
C 	C 	0.81810 0.24060 0.55750 -0.07200
H 	H 	0.87190 0.23230 0.60220 -0.00900
C 	C 	0.79660 0.17980 0.47620 -0.07500
H 	H 	0.83330 0.12310 0.45600 -0.00500
C 	C 	0.78860 0.28260 0.57010 -0.07700
H 	H 	0.81970 0.30940 0.62730 -0.00300
C 	C 	0.81960 0.69870 0.01750 -0.08000
H 	H 	0.87560 0.65850 0.03260 -0.00400
C 	C 	0.75380 0.68440 0.93860 -0.07100
H 	H 	0.75720 0.63270 0.89080 -0.01000
C 	C 	0.81810 0.74060 0.05750 -0.07100
H 	H 	0.87190 0.73230 0.10220 -0.00900
C 	C 	0.79660 0.67980 0.97620 -0.06800
H 	H 	0.83330 0.62310 0.95600 -0.00800
C 	C 	0.78860 0.78260 0.07010 -0.07100
H 	H 	0.81970 0.80940 0.12730 -0.00500
C 	C 	0.31960 0.05130 0.23250 -0.07400
H 	H 	0.37560 0.09150 0.21740 -0.00600
C 	C 	0.25380 0.06560 0.31140 -0.07000
H 	H 	0.25720 0.11730 0.35920 -0.01000
C 	C 	0.31810 0.00940 0.19250 -0.06300
H 	H 	0.37190 0.01770 0.14780 -0.01300
C 	C 	0.29660 0.07020 0.27380 -0.08100
H 	H 	0.33330 0.12690 0.29400 -0.00300
C 	C 	0.28860 0.96740 0.17990 -0.08400
H 	H 	0.31970 0.94060 0.12270 -0.00000
C 	C 	0.31960 0.55130 0.73250 -0.07300
H 	H 	0.37560 0.59150 0.71740 -0.00700
C 	C 	0.25380 0.56560 0.81140 -0.07100
H 	H 	0.25720 0.61730 0.85920 -0.00900
C 	C 	0.31810 0.50940 0.69250 -0.07200
H 	H 	0.37190 0.51770 0.64780 -0.00900
C 	C 	0.29660 0.57020 0.77380 -0.07500
H 	H 	0.33330 0.62690 0.79400 -0.00500
C 	C 	0.28860 0.46740 0.67990 -0.07700
H 	H 	0.31970 0.44060 0.62270 -0.00300
C 	C 	0.81960 0.05130 0.73250 -0.07200
H 	H 	0.87560 0.09150 0.71740 -0.00600
C 	C 	0.75380 0.06560 0.81140 -0.07200
H 	H 	0.75720 0.11730 0.85920 -0.00900
C 	C 	0.81810 0.00940 0.69250 -0.08000
H 	H 	0.87190 0.01770 0.64780 -0.00500
C 	C 	0.79660 0.07020 0.77380 -0.06700
H 	H 	0.83330 0.12690 0.79400 -0.00700
C 	C 	0.78860 0.96740 0.67990 -0.06900
H 	H 	0.81970 0.94060 0.62270 -0.00600
C 	C 	0.81960 0.55130 0.23250 -0.07400
H 	H 	0.87560 0.59150 0.21740 -0.00600
C 	C 	0.75380 0.56560 0.31140 -0.07100
H 	H 	0.75720 0.61730 0.35920 -0.01000
C 	C 	0.81810 0.50940 0.19250 -0.07200
H 	H 	0.87190 0.51770 0.14780 -0.00800
C 	C 	0.79660 0.57020 0.27380 -0.07500
H 	H 	0.83330 0.62690 0.29400 -0.00500
C 	C 	0.78860 0.46740 0.17990 -0.07700
H 	H 	0.81970 0.44060 0.12270 -0.00300
C 	C 	0.93040 0.19870 0.23250 -0.06600
H 	H 	0.87440 0.15850 0.21740 -0.00900
C 	C 	0.99620 0.18440 0.31140 -0.08000
H 	H 	0.99280 0.13270 0.35920 -0.00600
C 	C 	0.93190 0.24060 0.19250 -0.07200
H 	H 	0.87810 0.23230 0.14780 -0.00800
C 	C 	0.95340 0.17980 0.27380 -0.07300
H 	H 	0.91670 0.12310 0.29400 -0.00500
C 	C 	0.96140 0.28260 0.17990 -0.08400
H 	H 	0.93030 0.30940 0.12270 -0.00000
C 	C 	0.93040 0.69870 0.73250 -0.08000
H 	H 	0.87440 0.65850 0.71740 -0.00400
C 	C 	0.99620 0.68440 0.81140 -0.06300
H 	H 	0.99280 0.63270 0.85920 -0.01300
C 	C 	0.93190 0.74060 0.69250 -0.07000
H 	H 	0.87810 0.73230 0.64780 -0.00900
C 	C 	0.95340 0.67980 0.77380 -0.07600
H 	H 	0.91670 0.62310 0.79400 -0.00500
C 	C 	0.96140 0.78260 0.67990 -0.06900
H 	H 	0.93030 0.80940 0.62270 -0.00600
C 	C 	0.43040 0.19870 0.73250 -0.07300
H 	H 	0.37440 0.15850 0.71740 -0.00700
C 	C 	0.49620 0.18440 0.81140 -0.07100
H 	H 	0.49280 0.13270 0.85920 -0.00900
C 	C 	0.43190 0.24060 0.69250 -0.07100
H 	H 	0.37810 0.23230 0.64780 -0.00900
C 	C 	0.45340 0.17980 0.77380 -0.07500
H 	H 	0.41670 0.12310 0.79400 -0.00500
C 	C 	0.46140 0.28260 0.67990 -0.07700
H 	H 	0.43030 0.30940 0.62270 -0.00300
C 	C 	0.43040 0.69870 0.23250 -0.07300
H 	H 	0.37440 0.65850 0.21740 -0.00700
C 	C 	0.49620 0.68440 0.31140 -0.07200
H 	H 	0.49280 0.63270 0.35920 -0.01000
C 	C 	0.43190 0.74060 0.19250 -0.07200
H 	H 	0.37810 0.73230 0.14780 -0.00900
C 	C 	0.45340 0.67980 0.27380 -0.07500
H 	H 	0.41670 0.62310 0.29400 -0.00500
C 	C 	0.46140 0.78260 0.17990 -0.07700
H 	H 	0.43030 0.80940 0.12270 -0.00300
Ba	Ba	0.12500 0.12500 0.12500 1.58900
Ba	Ba	0.12500 0.62500 0.62500 1.60500
Ba	Ba	0.62500 0.12500 0.62500 1.60500
Ba	Ba	0.62500 0.62500 0.12500 1.60400
Ba	Ba	0.87500 0.87500 0.87500 1.58900
Ba	Ba	0.87500 0.37500 0.37500 1.60500
Ba	Ba	0.37500 0.87500 0.37500 1.60500
Ba	Ba	0.37500 0.37500 0.87500 1.60400
