data_crystal

_cell_length_a 14.87700
_cell_length_b 16.99800
_cell_length_c 16.09500
_cell_angle_alpha 90.00000
_cell_angle_beta  112.49800
_cell_angle_gamma 90.00000

_symmetry_space_group_name_	'P 1'
_symmetry_space_group_name_H-M	'P 1'

loop_
_symmetry_equiv_pos_as_xyz
  x,y,z

loop_
_atom_site_label
_atom_site_type_symbol
_atom_site_fract_x
_atom_site_fract_y
_atom_site_fract_z
_atom_site_charge
Cd	Cd	0.61809 0.19602 0.30127 1.12600
Cd	Cd	0.33358 0.22295 0.18731 1.19900
O 	O 	0.19270 0.27160 0.19860 -0.43800
O 	O 	0.23220 0.33160 0.09850 -0.46100
O 	O 	0.17300 0.61080 0.23470 -0.45200
O 	O 	0.03290 0.62714 0.24670 -0.59800
N 	N 	0.51870 0.27890 0.36040 -0.22500
N 	N 	0.41970 0.28540 0.32550 -0.20300
N 	N 	0.47540 0.34770 0.45390 -0.14900
N 	N 	0.54290 0.26410 0.16540 -0.24300
N 	N 	0.44270 0.27620 0.13050 -0.22700
N 	N 	0.50360 0.33860 0.04480 -0.14700
C 	C 	0.51360 0.53690 0.76000 -0.29700
H 	H 	0.46150 0.57510 0.74510 0.09500
H 	H 	0.57480 0.56530 0.77960 0.11100
C 	C 	0.50200 0.48920 0.67750 0.12900
C 	C 	0.41480 0.48660 0.60390 -0.11900
H 	H 	0.36260 0.51680 0.60340 0.04100
C 	C 	0.40460 0.43880 0.53000 -0.05300
H 	H 	0.34530 0.43600 0.48130 0.04000
C 	C 	0.48270 0.39620 0.53020 0.05700
C 	C 	0.56990 0.39900 0.60310 -0.02400
H 	H 	0.62240 0.36920 0.60340 0.01800
C 	C 	0.57930 0.44620 0.67600 -0.13600
H 	H 	0.63870 0.44890 0.72450 0.08900
C 	C 	0.51190 0.48470 0.83620 0.13400
C 	C 	0.43130 0.44070 0.82620 -0.14400
H 	H 	0.37720 0.44400 0.77250 0.04800
C 	C 	0.42740 0.39130 0.89360 -0.02600
H 	H 	0.37240 0.36130 0.88530 -0.02200
C 	C 	0.50860 0.38810 0.97410 0.04100
C 	C 	0.59010 0.43210 0.98680 -0.03000
H 	H 	0.64350 0.43040 0.04110 0.02400
C 	C 	0.59130 0.47930 0.91680 -0.13200
H 	H 	0.64700 0.50820 0.92440 0.06900
C 	C 	0.55060 0.31670 0.43660 0.09200
H 	H 	0.61580 0.32170 0.47400 -0.06000
C 	C 	0.39530 0.32640 0.38180 0.09800
H 	H 	0.33180 0.33940 0.37380 -0.00800
C 	C 	0.57730 0.30260 0.11310 0.07400
H 	H 	0.64270 0.30500 0.12140 -0.04200
C 	C 	0.42160 0.32060 0.05920 0.08200
H 	H 	0.35930 0.33740 0.02330 -0.04100
C 	C 	0.17710 0.32320 0.13910 0.45700
C 	C 	0.09220 0.38030 0.12240 -0.57400
H 	H 	0.06110 0.39170 0.05860 0.18100
H 	H 	0.04430 0.35660 0.14190 0.19600
C 	C 	0.12940 0.45480 0.17330 0.38100
H 	H 	0.17470 0.47920 0.15100 -0.07900
H 	H 	0.16480 0.44210 0.23620 -0.08500
C 	C 	0.05100 0.51280 0.16630 -0.58600
H 	H 	0.00530 0.48810 0.18790 0.17300
H 	H 	0.01600 0.52590 0.10340 0.17400
C 	C 	0.08790 0.58850 0.21870 0.47800
Cd	Cd	0.88191 0.69602 0.19873 1.12400
Cd	Cd	0.16642 0.72295 0.31269 1.19800
O 	O 	0.30730 0.77160 0.30140 -0.43900
O 	O 	0.26780 0.83160 0.40150 -0.46200
O 	O 	0.32700 0.11080 0.26530 -0.45200
O 	O 	0.46710 0.12714 0.25330 -0.59800
N 	N 	0.98130 0.77890 0.13960 -0.22600
N 	N 	0.08030 0.78540 0.17450 -0.20200
N 	N 	0.02460 0.84770 0.04610 -0.14700
N 	N 	0.95710 0.76410 0.33460 -0.24400
N 	N 	0.05730 0.77620 0.36950 -0.22700
N 	N 	0.99640 0.83860 0.45520 -0.14900
C 	C 	0.98640 0.03690 0.74000 -0.27500
H 	H 	0.03850 0.07510 0.75490 0.08600
H 	H 	0.92520 0.06530 0.72040 0.10500
C 	C 	0.99800 0.98920 0.82250 0.11500
C 	C 	0.08520 0.98660 0.89610 -0.10200
H 	H 	0.13740 0.01680 0.89660 0.03300
C 	C 	0.09540 0.93880 0.97000 -0.06400
H 	H 	0.15470 0.93600 0.01870 0.04500
C 	C 	0.01730 0.89620 0.96980 0.06100
C 	C 	0.93010 0.89900 0.89690 -0.03000
H 	H 	0.87760 0.86920 0.89660 0.02000
C 	C 	0.92070 0.94620 0.82400 -0.12600
H 	H 	0.86130 0.94890 0.77550 0.08500
C 	C 	0.98810 0.98470 0.66380 0.12400
C 	C 	0.06870 0.94070 0.67380 -0.13600
H 	H 	0.12280 0.94400 0.72750 0.04600
C 	C 	0.07260 0.89130 0.60640 -0.02900
H 	H 	0.12760 0.86130 0.61470 -0.02100
C 	C 	0.99140 0.88810 0.52590 0.04300
C 	C 	0.90990 0.93210 0.51320 -0.03500
H 	H 	0.85650 0.93040 0.45890 0.02600
C 	C 	0.90870 0.97930 0.58320 -0.12700
H 	H 	0.85300 0.00820 0.57560 0.06900
C 	C 	0.94940 0.81670 0.06340 0.08700
H 	H 	0.88420 0.82170 0.02600 -0.06000
C 	C 	0.10470 0.82640 0.11820 0.09900
H 	H 	0.16820 0.83940 0.12620 -0.00800
C 	C 	0.92270 0.80260 0.38690 0.07400
H 	H 	0.85730 0.80500 0.37860 -0.04200
C 	C 	0.07840 0.82060 0.44080 0.08400
H 	H 	0.14070 0.83740 0.47670 -0.04200
C 	C 	0.32290 0.82320 0.36090 0.45700
C 	C 	0.40780 0.88030 0.37760 -0.57300
H 	H 	0.43890 0.89170 0.44140 0.18000
H 	H 	0.45570 0.85660 0.35810 0.19500
C 	C 	0.37060 0.95480 0.32670 0.37900
H 	H 	0.32530 0.97920 0.34900 -0.07800
H 	H 	0.33520 0.94210 0.26380 -0.08400
C 	C 	0.44900 0.01280 0.33370 -0.58300
H 	H 	0.49470 0.98810 0.31210 0.17200
H 	H 	0.48400 0.02590 0.39660 0.17300
C 	C 	0.41210 0.08850 0.28130 0.47700
Cd	Cd	0.38191 0.80398 0.69873 1.12500
Cd	Cd	0.66642 0.77705 0.81269 1.19800
O 	O 	0.80730 0.72840 0.80140 -0.43900
O 	O 	0.76780 0.66840 0.90150 -0.46200
O 	O 	0.82700 0.38920 0.76530 -0.45200
O 	O 	0.96710 0.37286 0.75330 -0.59800
N 	N 	0.48130 0.72110 0.63960 -0.22500
N 	N 	0.58030 0.71460 0.67450 -0.20300
N 	N 	0.52460 0.65230 0.54610 -0.14900
N 	N 	0.45710 0.73590 0.83460 -0.24300
N 	N 	0.55730 0.72380 0.86950 -0.22700
N 	N 	0.49640 0.66140 0.95520 -0.14700
C 	C 	0.48640 0.46310 0.24000 -0.29700
H 	H 	0.53850 0.42490 0.25490 0.09500
H 	H 	0.42520 0.43470 0.22040 0.11100
C 	C 	0.49800 0.51080 0.32250 0.12900
C 	C 	0.58520 0.51340 0.39610 -0.11900
H 	H 	0.63740 0.48320 0.39660 0.04100
C 	C 	0.59540 0.56120 0.47000 -0.05300
H 	H 	0.65470 0.56400 0.51870 0.04000
C 	C 	0.51730 0.60380 0.46980 0.05700
C 	C 	0.43010 0.60100 0.39690 -0.02400
H 	H 	0.37760 0.63080 0.39660 0.01800
C 	C 	0.42070 0.55380 0.32400 -0.13600
H 	H 	0.36130 0.55110 0.27550 0.08900
C 	C 	0.48810 0.51530 0.16380 0.13400
C 	C 	0.56870 0.55930 0.17380 -0.14400
H 	H 	0.62280 0.55600 0.22750 0.04800
C 	C 	0.57260 0.60870 0.10640 -0.02600
H 	H 	0.62760 0.63870 0.11470 -0.02200
C 	C 	0.49140 0.61190 0.02590 0.04100
C 	C 	0.40990 0.56790 0.01320 -0.03000
H 	H 	0.35650 0.56960 0.95890 0.02400
C 	C 	0.40870 0.52070 0.08320 -0.13200
H 	H 	0.35300 0.49180 0.07560 0.06900
C 	C 	0.44940 0.68330 0.56340 0.09200
H 	H 	0.38420 0.67830 0.52600 -0.06000
C 	C 	0.60470 0.67360 0.61820 0.09800
H 	H 	0.66820 0.66060 0.62620 -0.00800
C 	C 	0.42270 0.69740 0.88690 0.07400
H 	H 	0.35730 0.69500 0.87860 -0.04200
C 	C 	0.57840 0.67940 0.94080 0.08200
H 	H 	0.64070 0.66260 0.97670 -0.04100
C 	C 	0.82290 0.67680 0.86090 0.45700
C 	C 	0.90780 0.61970 0.87760 -0.57400
H 	H 	0.93890 0.60830 0.94140 0.18100
H 	H 	0.95570 0.64340 0.85810 0.19600
C 	C 	0.87060 0.54520 0.82670 0.38100
H 	H 	0.82530 0.52080 0.84900 -0.07900
H 	H 	0.83520 0.55790 0.76380 -0.08500
C 	C 	0.94900 0.48720 0.83370 -0.58600
H 	H 	0.99470 0.51190 0.81210 0.17300
H 	H 	0.98400 0.47410 0.89660 0.17400
C 	C 	0.91210 0.41150 0.78130 0.47800
Cd	Cd	0.11809 0.30398 0.80127 1.12400
Cd	Cd	0.83358 0.27705 0.68731 1.19800
O 	O 	0.69270 0.22840 0.69860 -0.43900
O 	O 	0.73220 0.16840 0.59850 -0.46200
O 	O 	0.67300 0.88920 0.73470 -0.45200
O 	O 	0.53290 0.87286 0.74670 -0.59800
N 	N 	0.01870 0.22110 0.86040 -0.22600
N 	N 	0.91970 0.21460 0.82550 -0.20200
N 	N 	0.97540 0.15230 0.95390 -0.14700
N 	N 	0.04290 0.23590 0.66540 -0.24400
N 	N 	0.94270 0.22380 0.63050 -0.22700
N 	N 	0.00360 0.16140 0.54480 -0.14900
C 	C 	0.01360 0.96310 0.26000 -0.27500
H 	H 	0.96150 0.92490 0.24510 0.08600
H 	H 	0.07480 0.93470 0.27960 0.10500
C 	C 	0.00200 0.01080 0.17750 0.11500
C 	C 	0.91480 0.01340 0.10390 -0.10200
H 	H 	0.86260 0.98320 0.10340 0.03300
C 	C 	0.90460 0.06120 0.03000 -0.06400
H 	H 	0.84530 0.06400 0.98130 0.04500
C 	C 	0.98270 0.10380 0.03020 0.06100
C 	C 	0.06990 0.10100 0.10310 -0.03000
H 	H 	0.12240 0.13080 0.10340 0.02000
C 	C 	0.07930 0.05380 0.17600 -0.12600
H 	H 	0.13870 0.05110 0.22450 0.08500
C 	C 	0.01190 0.01530 0.33620 0.12400
C 	C 	0.93130 0.05930 0.32620 -0.13600
H 	H 	0.87720 0.05600 0.27250 0.04600
C 	C 	0.92740 0.10870 0.39360 -0.02900
H 	H 	0.87240 0.13870 0.38530 -0.02100
C 	C 	0.00860 0.11190 0.47410 0.04300
C 	C 	0.09010 0.06790 0.48680 -0.03500
H 	H 	0.14350 0.06960 0.54110 0.02600
C 	C 	0.09130 0.02070 0.41680 -0.12700
H 	H 	0.14700 0.99180 0.42440 0.06900
C 	C 	0.05060 0.18330 0.93660 0.08700
H 	H 	0.11580 0.17830 0.97400 -0.06000
C 	C 	0.89530 0.17360 0.88180 0.09900
H 	H 	0.83180 0.16060 0.87380 -0.00800
C 	C 	0.07730 0.19740 0.61310 0.07400
H 	H 	0.14270 0.19500 0.62140 -0.04200
C 	C 	0.92160 0.17940 0.55920 0.08400
H 	H 	0.85930 0.16260 0.52330 -0.04200
C 	C 	0.67710 0.17680 0.63910 0.45700
C 	C 	0.59220 0.11970 0.62240 -0.57300
H 	H 	0.56110 0.10830 0.55860 0.18000
H 	H 	0.54430 0.14340 0.64190 0.19500
C 	C 	0.62940 0.04520 0.67330 0.37900
H 	H 	0.67470 0.02080 0.65100 -0.07800
H 	H 	0.66480 0.05790 0.73620 -0.08400
C 	C 	0.55100 0.98720 0.66630 -0.58300
H 	H 	0.50530 0.01190 0.68790 0.17200
H 	H 	0.51600 0.97410 0.60340 0.17300
C 	C 	0.58790 0.91150 0.71870 0.47700
