data_crystal

_cell_length_a 7.23380
_cell_length_b 15.02380
_cell_length_c 9.21530
_cell_angle_alpha 90.00000
_cell_angle_beta  107.74100
_cell_angle_gamma 90.00000

_symmetry_space_group_name_	'P 1'
_symmetry_space_group_name_H-M	'P 1'

loop_
_symmetry_equiv_pos_as_xyz
  x,y,z

loop_
_atom_site_label
_atom_site_type_symbol
_atom_site_fract_x
_atom_site_fract_y
_atom_site_fract_z
_atom_site_charge
Zn	Zn	0.48795 0.23994 0.02498 1.21000
P 	P 	0.23097 0.34172 0.72520 0.45700
H 	H 	0.11100 0.28100 0.66100 -0.11900
P 	P 	0.76667 0.31754 0.33530 0.44200
H 	H 	0.84600 0.23400 0.38800 -0.01100
O 	O 	0.31340 0.32230 0.89390 -0.43800
O 	O 	0.68630 0.31420 0.16130 -0.43200
O 	O 	0.38450 0.34210 0.64160 -0.47800
O 	O 	0.60740 0.33680 0.40880 -0.46400
O 	O 	0.11990 0.42870 0.70370 -0.43400
O 	O 	0.93380 0.38120 0.38220 -0.33900
Zn	Zn	0.51205 0.73994 0.47502 1.23300
P 	P 	0.76903 0.84172 0.77480 0.46500
H 	H 	0.88900 0.78100 0.83900 -0.00200
P 	P 	0.23333 0.81754 0.16470 0.43200
H 	H 	0.15400 0.73400 0.11200 -0.09600
O 	O 	0.68660 0.82230 0.60610 -0.40800
O 	O 	0.31370 0.81420 0.33870 -0.43100
O 	O 	0.61550 0.84210 0.85840 -0.42800
O 	O 	0.39260 0.83680 0.09120 -0.47200
O 	O 	0.88010 0.92870 0.79630 -0.26800
O 	O 	0.06620 0.88120 0.11780 -0.45800
Zn	Zn	0.51205 0.76006 0.97502 1.25100
P 	P 	0.76903 0.65828 0.27480 0.46700
H 	H 	0.88900 0.71900 0.33900 -0.01400
P 	P 	0.23333 0.68246 0.66470 0.43300
H 	H 	0.15400 0.76600 0.61200 -0.07400
O 	O 	0.68660 0.67770 0.10610 -0.44600
O 	O 	0.31370 0.68580 0.83870 -0.42400
O 	O 	0.61550 0.65790 0.35840 -0.46500
O 	O 	0.39260 0.66320 0.59120 -0.46600
O 	O 	0.88010 0.57130 0.29630 -0.33500
O 	O 	0.06620 0.61880 0.61780 -0.47500
Zn	Zn	0.48795 0.26006 0.52498 1.22800
P 	P 	0.23097 0.15828 0.22520 0.45800
H 	H 	0.11100 0.21900 0.16100 -0.13300
P 	P 	0.76667 0.18246 0.83530 0.44100
H 	H 	0.84600 0.26600 0.88800 0.01200
O 	O 	0.31340 0.17770 0.39390 -0.48000
O 	O 	0.68630 0.18580 0.66130 -0.42300
O 	O 	0.38450 0.15790 0.14160 -0.51400
O 	O 	0.60740 0.16320 0.90880 -0.44700
O 	O 	0.11990 0.07130 0.20370 -0.48900
O 	O 	0.93380 0.11880 0.88220 -0.33200
Zn	Zn	0.00000 0.50000 0.50000 1.15800
Zn	Zn	-0.00000 0.00000 -0.00000 1.10800
