data_crystal

_cell_length_a 17.32660
_cell_length_b 21.97860
_cell_length_c 23.21720
_cell_angle_alpha 99.59000
_cell_angle_beta  108.83200
_cell_angle_gamma 107.22800

_symmetry_space_group_name_	'P 1'
_symmetry_space_group_name_H-M	'P 1'

loop_
_symmetry_equiv_pos_as_xyz
  x,y,z

loop_
_atom_site_label
_atom_site_type_symbol
_atom_site_fract_x
_atom_site_fract_y
_atom_site_fract_z
_atom_site_charge
Ag	Ag	0.07168 0.87655 0.17179 0.53900
N 	N 	0.19190 0.88446 0.26521 -0.17600
N 	N 	0.01000 0.76471 0.13771 -0.18500
N 	N 	0.03090 0.96442 0.18317 -0.18500
N 	N 	0.16300 0.91056 0.11276 -0.17500
C 	C 	0.22880 0.83890 0.26020 0.05800
C 	C 	0.22360 0.92760 0.32180 0.06700
C 	C 	0.96330 0.72890 0.16430 0.06200
C 	C 	0.02860 0.73140 0.09340 0.05600
C 	C 	0.29660 0.83660 0.30980 -0.10500
H 	H 	0.20690 0.80660 0.22020 0.00400
H 	H 	0.19900 0.96060 0.32620 0.01000
C 	C 	0.28940 0.92870 0.37480 -0.11200
C 	C 	0.93350 0.66030 0.14920 -0.10500
H 	H 	0.94960 0.75190 0.19560 -0.00200
H 	H 	0.06160 0.75610 0.07360 0.00100
C 	C 	0.00180 0.66270 0.07520 -0.10800
C 	C 	0.32790 0.88180 0.36884 0.03200
H 	H 	0.32160 0.80420 0.30360 0.08100
H 	H 	0.30820 0.96050 0.41450 0.07200
C 	C 	0.95420 0.62600 0.10360 0.02700
H 	H 	0.89980 0.63690 0.16930 0.07600
H 	H 	0.01610 0.64110 0.04340 0.06300
C 	C 	0.39820 0.88030 0.42360 0.12800
C 	C 	0.92130 0.55360 0.08200 0.12700
O 	O 	0.43735 0.83684 0.40972 -0.22200
C 	C 	0.43190 0.91220 0.48660 -0.14900
O 	O 	0.88640 0.52090 0.11901 -0.23100
C 	C 	0.91160 0.50880 0.02930 -0.14900
C 	C 	0.49900 0.84220 0.46726 0.09500
C 	C 	0.49760 0.88730 0.51620 0.04900
H 	H 	0.41540 0.94450 0.50690 0.08400
C 	C 	0.85170 0.45460 0.08690 0.09900
H 	H 	0.93230 0.51900 0.99750 0.08000
C 	C 	0.86510 0.44450 0.03050 0.04600
C 	C 	0.55500 0.80840 0.47616 -0.02400
C 	C 	0.55540 0.89680 0.57786 -0.11200
C 	C 	0.80460 0.40448 0.10380 -0.03900
C 	C 	0.82830 0.37990 0.99070 -0.10900
N 	N 	0.61060 0.81811 0.53513 -0.22700
H 	H 	0.55420 0.77860 0.44100 0.04000
C 	C 	0.60930 0.86096 0.58561 0.04000
H 	H 	0.55760 0.92700 0.61330 0.06900
N 	N 	0.76530 0.34154 0.06330 -0.22900
H 	H 	0.79930 0.41330 0.14360 0.04000
H 	H 	0.83770 0.36990 0.95260 0.06500
C 	C 	0.77720 0.33010 0.00790 0.03700
Fe	Fe	0.70133 0.77885 0.56034 1.18300
C 	C 	0.67000 0.86292 0.64719 0.05200
Fe	Fe	0.67591 0.26649 0.07026 1.18400
C 	C 	0.72580 0.26130 0.96720 0.05800
N 	N 	0.79120 0.74890 0.61156 -0.23000
N 	N 	0.71480 0.82288 0.64161 -0.26200
N 	N 	0.60800 0.69192 0.54245 -0.22800
N 	N 	0.69100 0.73797 0.47848 -0.26300
N 	N 	0.78610 0.85460 0.55043 -0.23100
C 	C 	0.68420 0.89990 0.70747 -0.10400
N 	N 	0.76100 0.23471 0.12385 -0.22900
N 	N 	0.68500 0.30996 0.15070 -0.26300
N 	N 	0.58960 0.30890 0.04262 -0.22800
N 	N 	0.67240 0.22641 0.99072 -0.26400
N 	N 	0.57970 0.18090 0.04880 -0.23100
C 	C 	0.72700 0.23200 0.90950 -0.11100
C 	C 	0.82000 0.70411 0.58862 -0.03100
C 	C 	0.81570 0.77190 0.67598 0.04100
C 	C 	0.77470 0.81810 0.69370 0.05100
C 	C 	0.56770 0.67470 0.58107 -0.03100
C 	C 	0.58070 0.64960 0.48297 0.03900
C 	C 	0.63210 0.67619 0.44739 0.05700
C 	C 	0.74100 0.77320 0.45220 0.05500
C 	C 	0.79340 0.84222 0.49241 0.03600
C 	C 	0.82340 0.91670 0.58861 -0.03100
C 	C 	0.74360 0.89390 0.76040 0.02500
H 	H 	0.65340 0.92860 0.71190 0.06200
C 	C 	0.79230 0.19060 0.10320 -0.03300
C 	C 	0.78150 0.25718 0.18816 0.03700
C 	C 	0.74110 0.30358 0.20319 0.05200
C 	C 	0.64050 0.35000 0.15469 0.05500
C 	C 	0.58560 0.35048 0.09155 0.04000
C 	C 	0.54030 0.30170 0.98230 -0.02800
C 	C 	0.61520 0.16370 0.95830 0.05800
C 	C 	0.55860 0.13690 0.99120 0.03900
C 	C 	0.53130 0.16400 0.08299 -0.03100
H 	H 	0.76590 0.25630 0.89310 0.06400
C 	C 	0.67100 0.16740 0.87680 0.03600
H 	H 	0.80510 0.68860 0.54430 0.03700
C 	C 	0.87180 0.68100 0.63100 0.09300
C 	C 	0.86870 0.75090 0.71960 -0.11300
C 	C 	0.79040 0.85330 0.75420 -0.10200
H 	H 	0.58710 0.70300 0.62270 0.04200
C 	C 	0.49760 0.61490 0.55890 0.10300
C 	C 	0.51030 0.58960 0.45900 -0.10700
C 	C 	0.62230 0.64440 0.38700 -0.10500
C 	C 	0.73550 0.74500 0.39240 -0.10800
C 	C 	0.83940 0.89100 0.47220 -0.11200
C 	C 	0.86670 0.96687 0.56910 0.09800
H 	H 	0.82000 0.92620 0.62900 0.03800
H 	H 	0.75260 0.91780 0.80150 0.02300
H 	H 	0.78000 0.17550 0.05920 0.03700
C 	C 	0.84290 0.16750 0.14660 0.09700
C 	C 	0.83470 0.23721 0.23314 -0.11000
C 	C 	0.75390 0.33840 0.26380 -0.10300
C 	C 	0.64930 0.38500 0.21320 -0.10700
C 	C 	0.53450 0.38870 0.08175 -0.11200
C 	C 	0.48700 0.33760 0.97132 0.09900
H 	H 	0.54210 0.27270 0.94800 0.04100
C 	C 	0.61390 0.13260 0.90110 -0.11000
C 	C 	0.48960 0.07650 0.96540 -0.10400
C 	C 	0.46320 0.10370 0.05910 0.09900
H 	H 	0.54420 0.19330 0.12280 0.04200
H 	H 	0.67110 0.14650 0.83760 0.01800
O 	O 	0.90060 0.63146 0.61512 -0.23200
C 	C 	0.89780 0.70300 0.69630 0.05000
H 	H 	0.88500 0.76830 0.76390 0.07200
H 	H 	0.83210 0.84980 0.79070 0.06500
O 	O 	0.44840 0.59088 0.59061 -0.22600
C 	C 	0.46580 0.57160 0.49820 0.04800
H 	H 	0.49250 0.56150 0.41740 0.07100
H 	H 	0.58080 0.60030 0.36470 0.06700
C 	C 	0.67560 0.67960 0.36020 0.02900
H 	H 	0.77110 0.76920 0.37380 0.06400
H 	H 	0.84580 0.88040 0.43300 0.06900
C 	C 	0.87590 0.95600 0.51120 0.04500
O 	O 	0.89840 0.03244 0.59993 -0.23100
O 	O 	0.87610 0.12100 0.13270 -0.23200
C 	C 	0.86540 0.19020 0.21190 0.04700
H 	H 	0.84970 0.25510 0.27720 0.07000
H 	H 	0.79350 0.33440 0.30100 0.06600
C 	C 	0.70700 0.37900 0.26790 0.02600
H 	H 	0.61670 0.41250 0.21610 0.06300
H 	H 	0.53390 0.41790 0.11660 0.06900
C 	C 	0.48420 0.38320 0.01941 0.04800
O 	O 	0.43280 0.33552 0.91292 -0.22400
H 	H 	0.57460 0.08800 0.87860 0.06900
H 	H 	0.47680 0.04780 0.92530 0.07000
C 	C 	0.43830 0.05890 0.00080 0.04200
O 	O 	0.40820 0.07935 0.08826 -0.22200
C 	C 	0.94570 0.62310 0.67250 0.12900
C 	C 	0.94570 0.66420 0.72230 -0.15000
C 	C 	0.38220 0.53240 0.54830 0.12700
C 	C 	0.39050 0.51840 0.49240 -0.14800
H 	H 	0.67120 0.65880 0.31930 0.02000
C 	C 	0.91760 0.02050 0.50670 -0.14800
C 	C 	0.92890 0.06420 0.56010 0.12300
C 	C 	0.91980 0.11270 0.19110 0.12600
C 	C 	0.91640 0.15310 0.23970 -0.14700
H 	H 	0.71410 0.40310 0.30850 0.02400
C 	C 	0.42480 0.41140 0.98720 -0.15200
C 	C 	0.39610 0.38190 0.92500 0.12900
C 	C 	0.36200 0.00430 0.99270 -0.13400
C 	C 	0.34680 0.01860 0.04660 0.11800
C 	C 	0.97820 0.56900 0.66910 0.02700
H 	H 	0.97210 0.66690 0.76590 0.08400
C 	C 	0.31980 0.49620 0.57180 0.03400
H 	H 	0.35360 0.48070 0.45650 0.08700
H 	H 	0.93410 0.03070 0.47310 0.08200
C 	C 	0.96470 0.13720 0.58350 0.03400
C 	C 	0.96100 0.06360 0.18840 0.02800
H 	H 	0.94240 0.15670 0.28350 0.08300
H 	H 	0.40870 0.44480 0.00630 0.08500
C 	C 	0.33040 0.38536 0.86823 0.03000
H 	H 	0.32870 0.96590 0.95700 0.08300
C 	C 	0.28330 0.98270 0.06900 0.03900
C 	C 	0.97560 0.53380 0.61390 -0.10500
C 	C 	0.01370 0.55160 0.72370 -0.10600
C 	C 	0.33970 0.50400 0.63560 -0.10900
C 	C 	0.23670 0.45210 0.52900 -0.11900
C 	C 	0.96190 0.17020 0.63720 -0.10900
C 	C 	0.00260 0.17440 0.54940 -0.11700
C 	C 	0.97460 0.03910 0.13520 -0.10600
C 	C 	0.98600 0.03880 0.24020 -0.10900
C 	C 	0.28970 0.33350 0.81270 -0.10400
C 	C 	0.30860 0.44150 0.86920 -0.11000
C 	C 	0.30330 0.99400 0.13360 -0.11100
C 	C 	0.20150 0.93570 0.02670 -0.12100
H 	H 	0.95210 0.54430 0.57550 0.07500
C 	C 	0.00710 0.48320 0.61340 0.05900
C 	C 	0.04250 0.49950 0.71950 0.05800
H 	H 	0.01820 0.57540 0.76350 0.06600
H 	H 	0.39540 0.53450 0.66640 0.07700
C 	C 	0.27690 0.46640 0.65420 0.05900
C 	C 	0.17810 0.41820 0.55120 0.06900
H 	H 	0.22070 0.44560 0.48460 0.08300
H 	H 	0.93620 0.14620 0.66110 0.07500
C 	C 	0.99690 0.23900 0.65680 0.06000
C 	C 	0.03610 0.24270 0.57240 0.06400
H 	H 	0.00510 0.15300 0.51140 0.06800
H 	H 	0.96000 0.05560 0.09950 0.07400
C 	C 	0.00970 0.99020 0.13460 0.05800
C 	C 	0.01940 0.98960 0.23460 0.06100
H 	H 	0.98000 0.05540 0.27830 0.06600
H 	H 	0.30410 0.29490 0.81020 0.07900
C 	C 	0.22760 0.33880 0.76080 0.05300
C 	C 	0.24700 0.44240 0.81530 0.06000
H 	H 	0.33590 0.47830 0.90650 0.07100
H 	H 	0.35750 0.02670 0.16420 0.07800
C 	C 	0.24040 0.95540 0.15170 0.06100
C 	C 	0.14440 0.90110 0.05030 0.06700
H 	H 	0.18530 0.92750 0.98220 0.08300
N 	N 	0.04030 0.46550 0.66560 -0.18600
H 	H 	0.00500 0.45970 0.57430 -0.00200
H 	H 	0.06490 0.48730 0.75700 0.00900
N 	N 	0.19750 0.42545 0.61309 -0.17800
H 	H 	0.29170 0.47040 0.69810 -0.00000
H 	H 	0.12140 0.38830 0.52150 0.00500
N 	N 	0.03400 0.27512 0.62512 -0.18700
H 	H 	0.99440 0.26160 0.69450 -0.00200
H 	H 	0.06210 0.26800 0.54940 -0.00200
H 	H 	0.01920 0.97410 0.09790 0.00000
H 	H 	0.03540 0.97250 0.26980 0.00600
N 	N 	0.20550 0.39232 0.76048 -0.17600
H 	H 	0.19880 0.30240 0.72310 0.00300
H 	H 	0.23240 0.48090 0.81640 0.01000
H 	H 	0.25490 0.96210 0.19600 -0.00200
H 	H 	0.08900 0.86890 0.02090 0.00300
Ag	Ag	0.09824 0.38745 0.66252 0.54100
Ag	Ag	0.92832 0.12345 0.82821 0.53800
N 	N 	0.80810 0.11554 0.73479 -0.17700
N 	N 	0.99000 0.23529 0.86229 -0.18600
N 	N 	0.96910 0.03558 0.81683 -0.18600
N 	N 	0.83700 0.08944 0.88724 -0.17600
C 	C 	0.77120 0.16110 0.73980 0.05700
C 	C 	0.77640 0.07240 0.67820 0.06600
C 	C 	0.03670 0.27110 0.83570 0.06100
C 	C 	0.97140 0.26860 0.90660 0.05500
C 	C 	0.70340 0.16340 0.69020 -0.10600
H 	H 	0.79310 0.19340 0.77980 0.00300
H 	H 	0.80100 0.03940 0.67380 0.00900
C 	C 	0.71060 0.07130 0.62520 -0.11300
C 	C 	0.06650 0.33970 0.85080 -0.10600
H 	H 	0.05040 0.24810 0.80440 -0.00300
H 	H 	0.93840 0.24390 0.92640 0.00000
C 	C 	0.99820 0.33730 0.92480 -0.10800
C 	C 	0.67210 0.11820 0.63116 0.03200
H 	H 	0.67840 0.19580 0.69640 0.08100
H 	H 	0.69180 0.03950 0.58550 0.07200
C 	C 	0.04580 0.37400 0.89640 0.02700
H 	H 	0.10020 0.36310 0.83070 0.07600
H 	H 	0.98390 0.35890 0.95660 0.06300
C 	C 	0.60180 0.11970 0.57640 0.12800
C 	C 	0.07870 0.44640 0.91800 0.12700
O 	O 	0.56265 0.16316 0.59028 -0.22200
C 	C 	0.56810 0.08780 0.51340 -0.14900
O 	O 	0.11360 0.47910 0.88099 -0.23100
C 	C 	0.08840 0.49120 0.97070 -0.14900
C 	C 	0.50100 0.15780 0.53274 0.09500
C 	C 	0.50240 0.11270 0.48380 0.04900
H 	H 	0.58460 0.05550 0.49310 0.08400
C 	C 	0.14830 0.54540 0.91310 0.09900
H 	H 	0.06770 0.48100 0.00250 0.08000
C 	C 	0.13490 0.55550 0.96950 0.04600
C 	C 	0.44500 0.19160 0.52384 -0.02400
C 	C 	0.44460 0.10320 0.42214 -0.11200
C 	C 	0.19540 0.59552 0.89620 -0.03900
C 	C 	0.17170 0.62010 0.00930 -0.10900
N 	N 	0.38940 0.18189 0.46487 -0.22700
H 	H 	0.44580 0.22140 0.55900 0.04000
C 	C 	0.39070 0.13904 0.41439 0.04000
H 	H 	0.44240 0.07300 0.38670 0.06900
N 	N 	0.23470 0.65846 0.93670 -0.22900
H 	H 	0.20070 0.58670 0.85640 0.04000
H 	H 	0.16230 0.63010 0.04740 0.06500
C 	C 	0.22280 0.66990 0.99210 0.03700
Fe	Fe	0.29867 0.22115 0.43966 1.18300
C 	C 	0.33000 0.13708 0.35281 0.05200
Fe	Fe	0.32409 0.73351 0.92974 1.18400
C 	C 	0.27420 0.73870 0.03280 0.05800
N 	N 	0.20880 0.25110 0.38844 -0.23000
N 	N 	0.28520 0.17712 0.35839 -0.26200
N 	N 	0.39200 0.30808 0.45755 -0.22800
N 	N 	0.30900 0.26203 0.52152 -0.26300
N 	N 	0.21390 0.14540 0.44957 -0.23100
C 	C 	0.31580 0.10010 0.29253 -0.10400
N 	N 	0.23900 0.76529 0.87615 -0.22900
N 	N 	0.31500 0.69004 0.84930 -0.26300
N 	N 	0.41040 0.69110 0.95738 -0.22800
N 	N 	0.32760 0.77359 0.00928 -0.26400
N 	N 	0.42030 0.81910 0.95120 -0.23100
C 	C 	0.27300 0.76800 0.09050 -0.11100
C 	C 	0.18000 0.29589 0.41138 -0.03100
C 	C 	0.18430 0.22810 0.32402 0.04100
C 	C 	0.22530 0.18190 0.30630 0.05100
C 	C 	0.43230 0.32530 0.41893 -0.03100
C 	C 	0.41930 0.35040 0.51703 0.03900
C 	C 	0.36790 0.32381 0.55261 0.05700
C 	C 	0.25900 0.22680 0.54780 0.05500
C 	C 	0.20660 0.15778 0.50759 0.03600
C 	C 	0.17660 0.08330 0.41139 -0.03100
C 	C 	0.25640 0.10610 0.23960 0.02500
H 	H 	0.34660 0.07140 0.28810 0.06200
C 	C 	0.20770 0.80940 0.89680 -0.03300
C 	C 	0.21850 0.74282 0.81184 0.03700
C 	C 	0.25890 0.69642 0.79681 0.05200
C 	C 	0.35950 0.65000 0.84531 0.05500
C 	C 	0.41440 0.64952 0.90845 0.04000
C 	C 	0.45970 0.69830 0.01770 -0.02800
C 	C 	0.38480 0.83630 0.04170 0.05800
C 	C 	0.44140 0.86310 0.00880 0.03900
C 	C 	0.46870 0.83600 0.91701 -0.03100
H 	H 	0.23410 0.74370 0.10690 0.06400
C 	C 	0.32900 0.83260 0.12320 0.03600
H 	H 	0.19490 0.31140 0.45570 0.03700
C 	C 	0.12820 0.31900 0.36900 0.09300
C 	C 	0.13130 0.24910 0.28040 -0.11300
C 	C 	0.20960 0.14670 0.24580 -0.10200
H 	H 	0.41290 0.29700 0.37730 0.04200
C 	C 	0.50240 0.38510 0.44110 0.10300
C 	C 	0.48970 0.41040 0.54100 -0.10700
C 	C 	0.37770 0.35560 0.61300 -0.10500
C 	C 	0.26450 0.25500 0.60760 -0.10800
C 	C 	0.16060 0.10900 0.52780 -0.11200
C 	C 	0.13330 0.03313 0.43090 0.09800
H 	H 	0.18000 0.07380 0.37100 0.03800
H 	H 	0.24740 0.08220 0.19850 0.02300
H 	H 	0.22000 0.82450 0.94080 0.03700
C 	C 	0.15710 0.83250 0.85340 0.09700
C 	C 	0.16530 0.76279 0.76686 -0.11000
C 	C 	0.24610 0.66160 0.73620 -0.10300
C 	C 	0.35070 0.61500 0.78680 -0.10700
C 	C 	0.46550 0.61130 0.91825 -0.11200
C 	C 	0.51300 0.66240 0.02868 0.09900
H 	H 	0.45790 0.72730 0.05200 0.04100
C 	C 	0.38610 0.86740 0.09890 -0.11000
C 	C 	0.51040 0.92350 0.03460 -0.10400
C 	C 	0.53680 0.89630 0.94090 0.09900
H 	H 	0.45580 0.80670 0.87720 0.04200
H 	H 	0.32890 0.85350 0.16240 0.01800
O 	O 	0.09940 0.36854 0.38488 -0.23200
C 	C 	0.10220 0.29700 0.30370 0.05000
H 	H 	0.11500 0.23170 0.23610 0.07200
H 	H 	0.16790 0.15020 0.20930 0.06500
O 	O 	0.55160 0.40912 0.40939 -0.22600
C 	C 	0.53420 0.42840 0.50180 0.04800
H 	H 	0.50750 0.43850 0.58260 0.07100
H 	H 	0.41920 0.39970 0.63530 0.06700
C 	C 	0.32440 0.32040 0.63980 0.02900
H 	H 	0.22890 0.23080 0.62620 0.06400
H 	H 	0.15420 0.11960 0.56700 0.06900
C 	C 	0.12410 0.04400 0.48880 0.04500
O 	O 	0.10160 0.96756 0.40007 -0.23100
O 	O 	0.12390 0.87900 0.86730 -0.23200
C 	C 	0.13460 0.80980 0.78810 0.04700
H 	H 	0.15030 0.74490 0.72280 0.07000
H 	H 	0.20650 0.66560 0.69900 0.06600
C 	C 	0.29300 0.62100 0.73210 0.02600
H 	H 	0.38330 0.58750 0.78390 0.06300
H 	H 	0.46610 0.58210 0.88340 0.06900
C 	C 	0.51580 0.61680 0.98059 0.04800
O 	O 	0.56720 0.66448 0.08708 -0.22400
H 	H 	0.42540 0.91200 0.12140 0.06900
H 	H 	0.52320 0.95220 0.07470 0.07000
C 	C 	0.56170 0.94110 0.99920 0.04200
O 	O 	0.59180 0.92065 0.91174 -0.22200
C 	C 	0.05430 0.37690 0.32750 0.12900
C 	C 	0.05430 0.33580 0.27770 -0.15000
C 	C 	0.61780 0.46760 0.45170 0.12700
C 	C 	0.60950 0.48160 0.50760 -0.14800
H 	H 	0.32880 0.34120 0.68070 0.02000
C 	C 	0.08240 0.97950 0.49330 -0.14800
C 	C 	0.07110 0.93580 0.43990 0.12300
C 	C 	0.08020 0.88730 0.80890 0.12600
C 	C 	0.08360 0.84690 0.76030 -0.14700
H 	H 	0.28590 0.59690 0.69150 0.02400
C 	C 	0.57520 0.58860 0.01280 -0.15200
C 	C 	0.60390 0.61810 0.07500 0.12900
C 	C 	0.63800 0.99570 0.00730 -0.13400
C 	C 	0.65320 0.98140 0.95340 0.11800
C 	C 	0.02180 0.43100 0.33090 0.02700
H 	H 	0.02790 0.33310 0.23410 0.08400
C 	C 	0.68020 0.50380 0.42820 0.03400
H 	H 	0.64640 0.51930 0.54350 0.08700
H 	H 	0.06590 0.96930 0.52690 0.08200
C 	C 	0.03530 0.86280 0.41650 0.03400
C 	C 	0.03900 0.93640 0.81160 0.02800
H 	H 	0.05760 0.84330 0.71650 0.08300
H 	H 	0.59130 0.55520 0.99370 0.08500
C 	C 	0.66960 0.61464 0.13177 0.03000
H 	H 	0.67130 0.03410 0.04300 0.08300
C 	C 	0.71670 0.01730 0.93100 0.03900
C 	C 	0.02440 0.46620 0.38610 -0.10500
C 	C 	0.98630 0.44840 0.27630 -0.10600
C 	C 	0.66030 0.49600 0.36440 -0.10900
C 	C 	0.76330 0.54790 0.47100 -0.11900
C 	C 	0.03810 0.82980 0.36280 -0.10900
C 	C 	0.99740 0.82560 0.45060 -0.11700
C 	C 	0.02540 0.96090 0.86480 -0.10600
C 	C 	0.01400 0.96120 0.75980 -0.10900
C 	C 	0.71030 0.66650 0.18730 -0.10400
C 	C 	0.69140 0.55850 0.13080 -0.11000
C 	C 	0.69670 0.00600 0.86640 -0.11100
C 	C 	0.79850 0.06430 0.97330 -0.12100
H 	H 	0.04790 0.45570 0.42450 0.07500
C 	C 	0.99290 0.51680 0.38660 0.05900
C 	C 	0.95750 0.50050 0.28050 0.05800
H 	H 	0.98180 0.42460 0.23650 0.06600
H 	H 	0.60460 0.46550 0.33360 0.07700
C 	C 	0.72310 0.53360 0.34580 0.05900
C 	C 	0.82190 0.58180 0.44880 0.06900
H 	H 	0.77930 0.55440 0.51540 0.08300
H 	H 	0.06380 0.85380 0.33890 0.07500
C 	C 	0.00310 0.76100 0.34320 0.06000
C 	C 	0.96390 0.75730 0.42760 0.06400
H 	H 	0.99490 0.84700 0.48860 0.06800
H 	H 	0.04000 0.94440 0.90050 0.07400
C 	C 	0.99030 0.00980 0.86540 0.05800
C 	C 	0.98060 0.01040 0.76540 0.06100
H 	H 	0.02000 0.94460 0.72170 0.06600
H 	H 	0.69590 0.70510 0.18980 0.07900
C 	C 	0.77240 0.66120 0.23920 0.05300
C 	C 	0.75300 0.55760 0.18470 0.06000
H 	H 	0.66410 0.52170 0.09350 0.07100
H 	H 	0.64250 0.97330 0.83580 0.07800
C 	C 	0.75960 0.04460 0.84830 0.06100
C 	C 	0.85560 0.09890 0.94970 0.06700
H 	H 	0.81470 0.07250 0.01780 0.08300
N 	N 	0.95970 0.53450 0.33440 -0.18600
H 	H 	0.99500 0.54030 0.42570 -0.00200
H 	H 	0.93510 0.51270 0.24300 0.00900
N 	N 	0.80250 0.57455 0.38691 -0.17800
H 	H 	0.70830 0.52960 0.30190 -0.00000
H 	H 	0.87860 0.61170 0.47850 0.00500
N 	N 	0.96600 0.72488 0.37488 -0.18700
H 	H 	0.00560 0.73840 0.30550 -0.00200
H 	H 	0.93790 0.73200 0.45060 -0.00200
H 	H 	0.98080 0.02590 0.90210 0.00000
H 	H 	0.96460 0.02750 0.73020 0.00600
N 	N 	0.79450 0.60768 0.23952 -0.17600
H 	H 	0.80120 0.69760 0.27690 0.00300
H 	H 	0.76760 0.51910 0.18360 0.01000
H 	H 	0.74510 0.03790 0.80400 -0.00200
H 	H 	0.91100 0.13110 0.97910 0.00300
Ag	Ag	0.90176 0.61255 0.33748 0.54100
