data_crystal

_cell_length_a 9.62560
_cell_length_b 23.43600
_cell_length_c 41.59300
_cell_angle_alpha 90.00000
_cell_angle_beta  90.00000
_cell_angle_gamma 90.00000

_symmetry_space_group_name_	'P 1'
_symmetry_space_group_name_H-M	'P 1'

loop_
_symmetry_equiv_pos_as_xyz
  x,y,z

loop_
_atom_site_label
_atom_site_type_symbol
_atom_site_fract_x
_atom_site_fract_y
_atom_site_fract_z
_atom_site_charge
Zn	Zn	0.79659 0.50188 0.91714 1.17700
Zn	Zn	0.70094 0.37572 0.03945 1.17500
Zn	Zn	0.79692 0.37473 0.79179 1.17500
N 	N 	0.74970 0.44120 0.94650 -0.29400
N 	N 	0.71420 0.39250 0.99328 -0.29000
N 	N 	0.75430 0.47810 0.87299 -0.28500
N 	N 	0.75480 0.42990 0.82595 -0.28400
N 	N 	0.67940 0.56630 0.92830 -0.28800
N 	N 	0.48680 0.61290 0.94460 -0.28800
N 	N 	0.81770 0.42760 0.06370 -0.29100
N 	N 	0.01080 0.47340 0.08070 -0.29000
N 	N 	0.67320 0.39450 0.75680 -0.28200
N 	N 	0.48290 0.39050 0.72360 -0.28100
N 	N 	0.75700 0.29680 0.04830 -0.29900
N 	N 	0.77440 0.29650 0.80850 -0.28400
C 	C 	0.75910 0.44210 0.97950 0.06500
H 	H 	0.79250 0.47310 0.99110 -0.05300
C 	C 	0.67180 0.35810 0.96790 -0.01500
H 	H 	0.63680 0.32130 0.96960 -0.00200
C 	C 	0.69060 0.38830 0.93920 -0.01800
H 	H 	0.66770 0.37540 0.91870 0.00200
C 	C 	0.81250 0.43330 0.85600 0.06500
H 	H 	0.88090 0.40900 0.86390 -0.04800
C 	C 	0.65610 0.47320 0.82350 -0.01700
H 	H 	0.59750 0.47980 0.80610 0.00600
C 	C 	0.66150 0.50490 0.85200 -0.01400
H 	H 	0.61180 0.53810 0.85620 0.00400
C 	C 	0.55280 0.56130 0.94330 0.06000
H 	H 	0.51690 0.52740 0.95140 -0.04900
C 	C 	0.56920 0.65230 0.92810 -0.01800
H 	H 	0.54810 0.69040 0.92410 0.00300
C 	C 	0.68920 0.62340 0.91850 -0.01000
H 	H 	0.76360 0.63940 0.90740 0.00100
C 	C 	0.95480 0.43810 0.05770 0.06300
H 	H 	0.00390 0.42330 0.04030 -0.05200
C 	C 	0.90870 0.48130 0.10380 -0.01500
H 	H 	0.91850 0.50110 0.12310 0.00100
C 	C 	0.78810 0.45380 0.09290 -0.01200
H 	H 	0.70280 0.45330 0.10340 0.00200
C 	C 	0.53840 0.36340 0.74970 0.01700
H 	H 	0.50150 0.33240 0.76070 -0.03400
C 	C 	0.56980 0.43530 0.71450 -0.01700
H 	H 	0.55240 0.46050 0.69770 0.00400
C 	C 	0.68560 0.43680 0.73410 -0.00300
H 	H 	0.75940 0.46210 0.73230 0.00100
C 	C 	0.85330 0.27890 0.06970 -0.00800
H 	H 	0.90980 0.30230 0.08220 -0.00100
C 	C 	0.73270 0.27890 0.83870 -0.01200
H 	H 	0.70900 0.30240 0.85590 -0.00000
Zn	Zn	0.70341 0.49812 0.41714 1.17800
Zn	Zn	0.79906 0.62428 0.53945 1.17600
Zn	Zn	0.70308 0.62527 0.29179 1.17600
N 	N 	0.75030 0.55880 0.44650 -0.29300
N 	N 	0.78580 0.60750 0.49328 -0.28900
N 	N 	0.74570 0.52190 0.37299 -0.28400
N 	N 	0.74520 0.57010 0.32595 -0.28300
N 	N 	0.82060 0.43370 0.42830 -0.28700
N 	N 	0.01320 0.38710 0.44460 -0.28700
N 	N 	0.68230 0.57240 0.56370 -0.29000
N 	N 	0.48920 0.52660 0.58070 -0.28900
N 	N 	0.82680 0.60550 0.25680 -0.28100
N 	N 	0.01710 0.60950 0.22360 -0.28100
N 	N 	0.74300 0.70320 0.54830 -0.29800
N 	N 	0.72560 0.70350 0.30850 -0.28300
C 	C 	0.74090 0.55790 0.47950 0.06600
H 	H 	0.70750 0.52690 0.49110 -0.05200
C 	C 	0.82820 0.64190 0.46790 -0.01400
H 	H 	0.86320 0.67870 0.46960 -0.00100
C 	C 	0.80940 0.61170 0.43920 -0.01700
H 	H 	0.83230 0.62460 0.41870 0.00200
C 	C 	0.68750 0.56670 0.35600 0.06500
H 	H 	0.61910 0.59100 0.36390 -0.04800
C 	C 	0.84390 0.52680 0.32350 -0.01700
H 	H 	0.90250 0.52020 0.30610 0.00600
C 	C 	0.83850 0.49510 0.35200 -0.01400
H 	H 	0.88820 0.46190 0.35620 0.00400
C 	C 	0.94720 0.43870 0.44330 0.06000
H 	H 	0.98310 0.47260 0.45140 -0.04900
C 	C 	0.93080 0.34770 0.42810 -0.01800
H 	H 	0.95190 0.30960 0.42410 0.00300
C 	C 	0.81080 0.37660 0.41850 -0.01000
H 	H 	0.73640 0.36060 0.40740 0.00100
C 	C 	0.54520 0.56190 0.55770 0.06300
H 	H 	0.49610 0.57670 0.54030 -0.05200
C 	C 	0.59130 0.51870 0.60380 -0.01500
H 	H 	0.58150 0.49890 0.62310 0.00100
C 	C 	0.71190 0.54620 0.59290 -0.01200
H 	H 	0.79720 0.54670 0.60340 0.00200
C 	C 	0.96160 0.63660 0.24970 0.01700
H 	H 	0.99850 0.66760 0.26070 -0.03400
C 	C 	0.93020 0.56470 0.21450 -0.01700
H 	H 	0.94760 0.53950 0.19770 0.00400
C 	C 	0.81440 0.56320 0.23410 -0.00300
H 	H 	0.74060 0.53790 0.23230 0.00100
C 	C 	0.64670 0.72110 0.56970 -0.00800
H 	H 	0.59020 0.69770 0.58220 -0.00100
C 	C 	0.76730 0.72110 0.33870 -0.01200
H 	H 	0.79100 0.69760 0.35590 -0.00000
Zn	Zn	0.20341 0.00188 0.08286 1.17800
Zn	Zn	0.29906 0.87572 0.96055 1.17600
Zn	Zn	0.20308 0.87473 0.20821 1.17600
N 	N 	0.25030 0.94120 0.05350 -0.29300
N 	N 	0.28580 0.89250 0.00672 -0.28900
N 	N 	0.24570 0.97810 0.12701 -0.28300
N 	N 	0.24520 0.92990 0.17405 -0.28300
N 	N 	0.32060 0.06630 0.07170 -0.28700
N 	N 	0.51320 0.11290 0.05540 -0.28700
N 	N 	0.18230 0.92760 0.93630 -0.29000
N 	N 	0.98920 0.97340 0.91930 -0.28900
N 	N 	0.32680 0.89450 0.24320 -0.28100
N 	N 	0.51710 0.89050 0.27640 -0.28000
N 	N 	0.24300 0.79680 0.95170 -0.29800
N 	N 	0.22560 0.79650 0.19150 -0.28300
C 	C 	0.24090 0.94210 0.02050 0.06600
H 	H 	0.20750 0.97310 0.00890 -0.05200
C 	C 	0.32820 0.85810 0.03210 -0.01400
H 	H 	0.36320 0.82130 0.03040 -0.00100
C 	C 	0.30940 0.88830 0.06080 -0.01700
H 	H 	0.33230 0.87540 0.08130 0.00200
C 	C 	0.18750 0.93330 0.14400 0.06500
H 	H 	0.11910 0.90900 0.13610 -0.04800
C 	C 	0.34390 0.97320 0.17650 -0.01600
H 	H 	0.40250 0.97980 0.19390 0.00600
C 	C 	0.33850 0.00490 0.14800 -0.01500
H 	H 	0.38820 0.03810 0.14380 0.00400
C 	C 	0.44720 0.06130 0.05670 0.06000
H 	H 	0.48310 0.02740 0.04860 -0.04900
C 	C 	0.43080 0.15230 0.07190 -0.01800
H 	H 	0.45190 0.19040 0.07590 0.00300
C 	C 	0.31080 0.12340 0.08150 -0.01000
H 	H 	0.23640 0.13940 0.09260 0.00100
C 	C 	0.04520 0.93810 0.94230 0.06300
H 	H 	0.99610 0.92330 0.95970 -0.05200
C 	C 	0.09130 0.98130 0.89620 -0.01600
H 	H 	0.08150 0.00110 0.87690 0.00200
C 	C 	0.21190 0.95380 0.90710 -0.01200
H 	H 	0.29720 0.95330 0.89660 0.00200
C 	C 	0.46160 0.86340 0.25030 0.01700
H 	H 	0.49850 0.83240 0.23930 -0.03400
C 	C 	0.43020 0.93530 0.28550 -0.01700
H 	H 	0.44760 0.96050 0.30230 0.00500
C 	C 	0.31440 0.93680 0.26590 -0.00300
H 	H 	0.24060 0.96210 0.26770 0.00100
C 	C 	0.14670 0.77890 0.93030 -0.00800
H 	H 	0.09020 0.80230 0.91780 -0.00100
C 	C 	0.26730 0.77890 0.16130 -0.01200
H 	H 	0.29100 0.80240 0.14410 0.00000
Zn	Zn	0.29659 0.99812 0.58286 1.17800
Zn	Zn	0.20094 0.12428 0.46055 1.17600
Zn	Zn	0.29692 0.12527 0.70821 1.17600
N 	N 	0.24970 0.05880 0.55350 -0.29300
N 	N 	0.21420 0.10750 0.50672 -0.28900
N 	N 	0.25430 0.02190 0.62701 -0.28400
N 	N 	0.25480 0.07010 0.67405 -0.28300
N 	N 	0.17940 0.93370 0.57170 -0.28700
N 	N 	0.98680 0.88710 0.55540 -0.28700
N 	N 	0.31770 0.07240 0.43630 -0.29000
N 	N 	0.51080 0.02660 0.41930 -0.28900
N 	N 	0.17320 0.10550 0.74320 -0.28100
N 	N 	0.98290 0.10950 0.77640 -0.28100
N 	N 	0.25700 0.20320 0.45170 -0.29800
N 	N 	0.27440 0.20350 0.69150 -0.28300
C 	C 	0.25910 0.05790 0.52050 0.06600
H 	H 	0.29250 0.02690 0.50890 -0.05200
C 	C 	0.17180 0.14190 0.53210 -0.01400
H 	H 	0.13680 0.17870 0.53040 -0.00100
C 	C 	0.19060 0.11170 0.56080 -0.01700
H 	H 	0.16770 0.12460 0.58130 0.00200
C 	C 	0.31250 0.06670 0.64400 0.06500
H 	H 	0.38090 0.09100 0.63610 -0.04800
C 	C 	0.15610 0.02680 0.67650 -0.01600
H 	H 	0.09750 0.02020 0.69390 0.00600
C 	C 	0.16150 0.99510 0.64800 -0.01500
H 	H 	0.11180 0.96190 0.64380 0.00400
C 	C 	0.05280 0.93870 0.55670 0.06000
H 	H 	0.01690 0.97260 0.54860 -0.04900
C 	C 	0.06920 0.84770 0.57190 -0.01800
H 	H 	0.04810 0.80960 0.57590 0.00300
C 	C 	0.18920 0.87660 0.58150 -0.01000
H 	H 	0.26360 0.86060 0.59260 0.00100
C 	C 	0.45480 0.06190 0.44230 0.06300
H 	H 	0.50390 0.07670 0.45970 -0.05200
C 	C 	0.40870 0.01870 0.39620 -0.01600
H 	H 	0.41850 0.99890 0.37690 0.00200
C 	C 	0.28810 0.04620 0.40710 -0.01200
H 	H 	0.20280 0.04670 0.39660 0.00200
C 	C 	0.03840 0.13660 0.75030 0.01700
H 	H 	0.00150 0.16760 0.73930 -0.03400
C 	C 	0.06980 0.06470 0.78550 -0.01700
H 	H 	0.05240 0.03950 0.80230 0.00500
C 	C 	0.18560 0.06320 0.76590 -0.00300
H 	H 	0.25940 0.03790 0.76770 0.00100
C 	C 	0.35330 0.22110 0.43030 -0.00800
H 	H 	0.40980 0.19770 0.41780 -0.00100
C 	C 	0.23270 0.22110 0.66130 -0.01200
H 	H 	0.20900 0.19760 0.64410 -0.00000
Zn	Zn	0.20341 0.49812 0.08286 1.17800
Zn	Zn	0.29906 0.62428 0.96055 1.17600
Zn	Zn	0.20308 0.62527 0.20821 1.17600
N 	N 	0.25030 0.55880 0.05350 -0.29300
N 	N 	0.28580 0.60750 0.00672 -0.28900
N 	N 	0.24570 0.52190 0.12701 -0.28400
N 	N 	0.24520 0.57010 0.17405 -0.28300
N 	N 	0.32060 0.43370 0.07170 -0.28700
N 	N 	0.51320 0.38710 0.05540 -0.28700
N 	N 	0.18230 0.57240 0.93630 -0.29000
N 	N 	0.98920 0.52660 0.91930 -0.28900
N 	N 	0.32680 0.60550 0.24320 -0.28100
N 	N 	0.51710 0.60950 0.27640 -0.28000
N 	N 	0.24300 0.70320 0.95170 -0.29800
N 	N 	0.22560 0.70350 0.19150 -0.28300
C 	C 	0.24090 0.55790 0.02050 0.06600
H 	H 	0.20750 0.52690 0.00890 -0.05200
C 	C 	0.32820 0.64190 0.03210 -0.01400
H 	H 	0.36320 0.67870 0.03040 -0.00100
C 	C 	0.30940 0.61170 0.06080 -0.01700
H 	H 	0.33230 0.62460 0.08130 0.00200
C 	C 	0.18750 0.56670 0.14400 0.06500
H 	H 	0.11910 0.59100 0.13610 -0.04800
C 	C 	0.34390 0.52680 0.17650 -0.01700
H 	H 	0.40250 0.52020 0.19390 0.00600
C 	C 	0.33850 0.49510 0.14800 -0.01400
H 	H 	0.38820 0.46190 0.14380 0.00400
C 	C 	0.44720 0.43870 0.05670 0.06000
H 	H 	0.48310 0.47260 0.04860 -0.04900
C 	C 	0.43080 0.34770 0.07190 -0.01800
H 	H 	0.45190 0.30960 0.07590 0.00300
C 	C 	0.31080 0.37660 0.08150 -0.01000
H 	H 	0.23640 0.36060 0.09260 0.00100
C 	C 	0.04520 0.56190 0.94230 0.06300
H 	H 	0.99610 0.57670 0.95970 -0.05200
C 	C 	0.09130 0.51870 0.89620 -0.01500
H 	H 	0.08150 0.49890 0.87690 0.00100
C 	C 	0.21190 0.54620 0.90710 -0.01200
H 	H 	0.29720 0.54670 0.89660 0.00200
C 	C 	0.46160 0.63660 0.25030 0.01700
H 	H 	0.49850 0.66760 0.23930 -0.03400
C 	C 	0.43020 0.56470 0.28550 -0.01700
H 	H 	0.44760 0.53950 0.30230 0.00400
C 	C 	0.31440 0.56320 0.26590 -0.00300
H 	H 	0.24060 0.53790 0.26770 0.00100
C 	C 	0.14670 0.72110 0.93030 -0.00800
H 	H 	0.09020 0.69770 0.91780 -0.00100
C 	C 	0.26730 0.72110 0.16130 -0.01200
H 	H 	0.29100 0.69760 0.14410 -0.00000
Zn	Zn	0.29659 0.50188 0.58286 1.17800
Zn	Zn	0.20094 0.37572 0.46055 1.17600
Zn	Zn	0.29692 0.37473 0.70821 1.17600
N 	N 	0.24970 0.44120 0.55350 -0.29300
N 	N 	0.21420 0.39250 0.50672 -0.28900
N 	N 	0.25430 0.47810 0.62701 -0.28400
N 	N 	0.25480 0.42990 0.67405 -0.28300
N 	N 	0.17940 0.56630 0.57170 -0.28700
N 	N 	0.98680 0.61290 0.55540 -0.28700
N 	N 	0.31770 0.42760 0.43630 -0.29000
N 	N 	0.51080 0.47340 0.41930 -0.28900
N 	N 	0.17320 0.39450 0.74320 -0.28100
N 	N 	0.98290 0.39050 0.77640 -0.28100
N 	N 	0.25700 0.29680 0.45170 -0.29800
N 	N 	0.27440 0.29650 0.69150 -0.28300
C 	C 	0.25910 0.44210 0.52050 0.06600
H 	H 	0.29250 0.47310 0.50890 -0.05200
C 	C 	0.17180 0.35810 0.53210 -0.01400
H 	H 	0.13680 0.32130 0.53040 -0.00100
C 	C 	0.19060 0.38830 0.56080 -0.01700
H 	H 	0.16770 0.37540 0.58130 0.00200
C 	C 	0.31250 0.43330 0.64400 0.06500
H 	H 	0.38090 0.40900 0.63610 -0.04800
C 	C 	0.15610 0.47320 0.67650 -0.01700
H 	H 	0.09750 0.47980 0.69390 0.00600
C 	C 	0.16150 0.50490 0.64800 -0.01400
H 	H 	0.11180 0.53810 0.64380 0.00400
C 	C 	0.05280 0.56130 0.55670 0.06000
H 	H 	0.01690 0.52740 0.54860 -0.04900
C 	C 	0.06920 0.65230 0.57190 -0.01800
H 	H 	0.04810 0.69040 0.57590 0.00300
C 	C 	0.18920 0.62340 0.58150 -0.01000
H 	H 	0.26360 0.63940 0.59260 0.00100
C 	C 	0.45480 0.43810 0.44230 0.06300
H 	H 	0.50390 0.42330 0.45970 -0.05200
C 	C 	0.40870 0.48130 0.39620 -0.01500
H 	H 	0.41850 0.50110 0.37690 0.00100
C 	C 	0.28810 0.45380 0.40710 -0.01200
H 	H 	0.20280 0.45330 0.39660 0.00200
C 	C 	0.03840 0.36340 0.75030 0.01700
H 	H 	0.00150 0.33240 0.73930 -0.03400
C 	C 	0.06980 0.43530 0.78550 -0.01700
H 	H 	0.05240 0.46050 0.80230 0.00400
C 	C 	0.18560 0.43680 0.76590 -0.00300
H 	H 	0.25940 0.46210 0.76770 0.00100
C 	C 	0.35330 0.27890 0.43030 -0.00800
H 	H 	0.40980 0.30230 0.41780 -0.00100
C 	C 	0.23270 0.27890 0.66130 -0.01200
H 	H 	0.20900 0.30240 0.64410 -0.00000
Zn	Zn	0.79659 0.99812 0.91714 1.17800
Zn	Zn	0.70094 0.12428 0.03945 1.17600
Zn	Zn	0.79692 0.12527 0.79179 1.17600
N 	N 	0.74970 0.05880 0.94650 -0.29300
N 	N 	0.71420 0.10750 0.99328 -0.28900
N 	N 	0.75430 0.02190 0.87299 -0.28300
N 	N 	0.75480 0.07010 0.82595 -0.28300
N 	N 	0.67940 0.93370 0.92830 -0.28700
N 	N 	0.48680 0.88710 0.94460 -0.28700
N 	N 	0.81770 0.07240 0.06370 -0.29000
N 	N 	0.01080 0.02660 0.08070 -0.28900
N 	N 	0.67320 0.10550 0.75680 -0.28100
N 	N 	0.48290 0.10950 0.72360 -0.28000
N 	N 	0.75700 0.20320 0.04830 -0.29800
N 	N 	0.77440 0.20350 0.80850 -0.28300
C 	C 	0.75910 0.05790 0.97950 0.06600
H 	H 	0.79250 0.02690 0.99110 -0.05200
C 	C 	0.67180 0.14190 0.96790 -0.01400
H 	H 	0.63680 0.17870 0.96960 -0.00100
C 	C 	0.69060 0.11170 0.93920 -0.01700
H 	H 	0.66770 0.12460 0.91870 0.00200
C 	C 	0.81250 0.06670 0.85600 0.06500
H 	H 	0.88090 0.09100 0.86390 -0.04800
C 	C 	0.65610 0.02680 0.82350 -0.01600
H 	H 	0.59750 0.02020 0.80610 0.00600
C 	C 	0.66150 0.99510 0.85200 -0.01500
H 	H 	0.61180 0.96190 0.85620 0.00400
C 	C 	0.55280 0.93870 0.94330 0.06000
H 	H 	0.51690 0.97260 0.95140 -0.04900
C 	C 	0.56920 0.84770 0.92810 -0.01800
H 	H 	0.54810 0.80960 0.92410 0.00300
C 	C 	0.68920 0.87660 0.91850 -0.01000
H 	H 	0.76360 0.86060 0.90740 0.00100
C 	C 	0.95480 0.06190 0.05770 0.06300
H 	H 	0.00390 0.07670 0.04030 -0.05200
C 	C 	0.90870 0.01870 0.10380 -0.01600
H 	H 	0.91850 0.99890 0.12310 0.00200
C 	C 	0.78810 0.04620 0.09290 -0.01200
H 	H 	0.70280 0.04670 0.10340 0.00200
C 	C 	0.53840 0.13660 0.74970 0.01700
H 	H 	0.50150 0.16760 0.76070 -0.03400
C 	C 	0.56980 0.06470 0.71450 -0.01700
H 	H 	0.55240 0.03950 0.69770 0.00500
C 	C 	0.68560 0.06320 0.73410 -0.00300
H 	H 	0.75940 0.03790 0.73230 0.00100
C 	C 	0.85330 0.22110 0.06970 -0.00800
H 	H 	0.90980 0.19770 0.08220 -0.00100
C 	C 	0.73270 0.22110 0.83870 -0.01200
H 	H 	0.70900 0.19760 0.85590 0.00000
Zn	Zn	0.70341 0.00188 0.41714 1.17800
Zn	Zn	0.79906 0.87572 0.53945 1.17600
Zn	Zn	0.70308 0.87473 0.29179 1.17600
N 	N 	0.75030 0.94120 0.44650 -0.29300
N 	N 	0.78580 0.89250 0.49328 -0.28900
N 	N 	0.74570 0.97810 0.37299 -0.28400
N 	N 	0.74520 0.92990 0.32595 -0.28300
N 	N 	0.82060 0.06630 0.42830 -0.28700
N 	N 	0.01320 0.11290 0.44460 -0.28700
N 	N 	0.68230 0.92760 0.56370 -0.29000
N 	N 	0.48920 0.97340 0.58070 -0.28900
N 	N 	0.82680 0.89450 0.25680 -0.28100
N 	N 	0.01710 0.89050 0.22360 -0.28100
N 	N 	0.74300 0.79680 0.54830 -0.29800
N 	N 	0.72560 0.79650 0.30850 -0.28300
C 	C 	0.74090 0.94210 0.47950 0.06600
H 	H 	0.70750 0.97310 0.49110 -0.05200
C 	C 	0.82820 0.85810 0.46790 -0.01400
H 	H 	0.86320 0.82130 0.46960 -0.00100
C 	C 	0.80940 0.88830 0.43920 -0.01700
H 	H 	0.83230 0.87540 0.41870 0.00200
C 	C 	0.68750 0.93330 0.35600 0.06500
H 	H 	0.61910 0.90900 0.36390 -0.04800
C 	C 	0.84390 0.97320 0.32350 -0.01600
H 	H 	0.90250 0.97980 0.30610 0.00600
C 	C 	0.83850 0.00490 0.35200 -0.01500
H 	H 	0.88820 0.03810 0.35620 0.00400
C 	C 	0.94720 0.06130 0.44330 0.06000
H 	H 	0.98310 0.02740 0.45140 -0.04900
C 	C 	0.93080 0.15230 0.42810 -0.01800
H 	H 	0.95190 0.19040 0.42410 0.00300
C 	C 	0.81080 0.12340 0.41850 -0.01000
H 	H 	0.73640 0.13940 0.40740 0.00100
C 	C 	0.54520 0.93810 0.55770 0.06300
H 	H 	0.49610 0.92330 0.54030 -0.05200
C 	C 	0.59130 0.98130 0.60380 -0.01600
H 	H 	0.58150 0.00110 0.62310 0.00200
C 	C 	0.71190 0.95380 0.59290 -0.01200
H 	H 	0.79720 0.95330 0.60340 0.00200
C 	C 	0.96160 0.86340 0.24970 0.01700
H 	H 	0.99850 0.83240 0.26070 -0.03400
C 	C 	0.93020 0.93530 0.21450 -0.01700
H 	H 	0.94760 0.96050 0.19770 0.00500
C 	C 	0.81440 0.93680 0.23410 -0.00300
H 	H 	0.74060 0.96210 0.23230 0.00100
C 	C 	0.64670 0.77890 0.56970 -0.00800
H 	H 	0.59020 0.80230 0.58220 -0.00100
C 	C 	0.76730 0.77890 0.33870 -0.01200
H 	H 	0.79100 0.80240 0.35590 -0.00000
C 	C 	0.70390 0.25000 0.03600 0.10700
H 	H 	0.63580 0.25000 0.02010 -0.06800
C 	C 	0.79900 0.25000 0.78950 0.04500
H 	H 	0.82670 0.25000 0.76810 -0.05400
C 	C 	0.79610 0.75000 0.53600 0.10700
H 	H 	0.86420 0.75000 0.52010 -0.06800
C 	C 	0.70100 0.75000 0.28950 0.04500
H 	H 	0.67330 0.75000 0.26810 -0.05300
C 	C 	0.29610 0.75000 0.96400 0.10700
H 	H 	0.36420 0.75000 0.97990 -0.06800
C 	C 	0.20100 0.75000 0.21050 0.04500
H 	H 	0.17330 0.75000 0.23190 -0.05400
C 	C 	0.20390 0.25000 0.46400 0.10700
H 	H 	0.13580 0.25000 0.47990 -0.06800
C 	C 	0.29900 0.25000 0.71050 0.04500
H 	H 	0.32670 0.25000 0.73190 -0.05300
