data_crystal

_cell_length_a 12.23830
_cell_length_b 25.49100
_cell_length_c 7.55390
_cell_angle_alpha 90.00000
_cell_angle_beta  94.32900
_cell_angle_gamma 90.00000

_symmetry_space_group_name_	'P 1'
_symmetry_space_group_name_H-M	'P 1'

loop_
_symmetry_equiv_pos_as_xyz
  x,y,z

loop_
_atom_site_label
_atom_site_type_symbol
_atom_site_fract_x
_atom_site_fract_y
_atom_site_fract_z
_atom_site_charge
C 	C 	0.86520 0.88960 0.39280 -0.11500
C 	C 	0.86470 0.95740 0.91220 -0.13800
C 	C 	0.76570 0.75594 0.75710 0.01300
H 	H 	0.70280 0.75030 0.68250 0.01900
C 	C 	0.82150 0.71271 0.83000 -0.00800
H 	H 	0.79550 0.67900 0.80550 0.02900
C 	C 	0.91480 0.72001 0.93790 -0.11700
C 	C 	0.95270 0.77076 0.96600 0.09300
H 	H 	0.01770 0.77720 0.03450 -0.04200
C 	C 	0.89250 0.81110 0.89080 -0.03600
H 	H 	0.91840 0.84500 0.91120 0.00400
C 	C 	0.97220 0.67370 0.03030 0.41300
Mn	Mn	0.68809 0.87537 0.70307 1.23800
N 	N 	0.79280 0.88396 0.47840 -0.23900
N 	N 	0.79260 0.93132 0.85970 -0.24500
N 	N 	0.79790 0.80516 0.78880 -0.20600
O 	O 	0.07380 0.67752 0.06520 -0.50000
O 	O 	0.91310 0.63492 0.06610 -0.49200
C 	C 	0.36520 0.38960 0.39280 -0.14600
C 	C 	0.36470 0.45740 0.91220 -0.18200
C 	C 	0.26570 0.25594 0.75710 0.03500
H 	H 	0.20280 0.25030 0.68250 0.01000
C 	C 	0.32150 0.21271 0.83000 -0.05000
H 	H 	0.29550 0.17900 0.80550 0.04100
C 	C 	0.41480 0.22001 0.93790 -0.05900
C 	C 	0.45270 0.27076 0.96600 -0.03300
H 	H 	0.51770 0.27720 0.03450 0.02500
C 	C 	0.39250 0.31110 0.89080 0.02300
H 	H 	0.41840 0.34500 0.91120 -0.02800
C 	C 	0.47220 0.17370 0.03030 0.34600
Mn	Mn	0.18809 0.37537 0.70307 1.23300
N 	N 	0.29280 0.38396 0.47840 -0.23900
N 	N 	0.29260 0.43132 0.85970 -0.24500
N 	N 	0.29790 0.30516 0.78880 -0.22200
O 	O 	0.57380 0.17752 0.06520 -0.46200
O 	O 	0.41310 0.13492 0.06610 -0.48800
C 	C 	0.13480 0.88960 0.10720 -0.14800
C 	C 	0.13530 0.95740 0.58780 -0.17500
C 	C 	0.23430 0.75594 0.74290 0.06000
H 	H 	0.29720 0.75030 0.81750 0.00200
C 	C 	0.17850 0.71271 0.67000 -0.09800
H 	H 	0.20450 0.67900 0.69450 0.05400
C 	C 	0.08520 0.72001 0.56210 0.00100
C 	C 	0.04730 0.77076 0.53400 -0.19300
H 	H 	0.98230 0.77720 0.46550 0.11500
C 	C 	0.10750 0.81110 0.60920 0.09800
H 	H 	0.08160 0.84500 0.58880 -0.06600
C 	C 	0.02780 0.67370 0.46970 0.28500
Mn	Mn	0.31191 0.87537 0.79693 1.23800
N 	N 	0.20720 0.88396 0.02160 -0.24000
N 	N 	0.20740 0.93132 0.64030 -0.24100
N 	N 	0.20210 0.80516 0.71120 -0.24100
O 	O 	0.92620 0.67752 0.43480 -0.41700
O 	O 	0.08690 0.63492 0.43390 -0.47600
C 	C 	0.63480 0.38960 0.10720 -0.14400
C 	C 	0.63530 0.45740 0.58780 -0.18500
C 	C 	0.73430 0.25594 0.74290 0.03700
H 	H 	0.79720 0.25030 0.81750 0.01000
C 	C 	0.67850 0.21271 0.67000 -0.05300
H 	H 	0.70450 0.17900 0.69450 0.04100
C 	C 	0.58520 0.22001 0.56210 -0.06000
C 	C 	0.54730 0.27076 0.53400 -0.06400
H 	H 	0.48230 0.27720 0.46550 0.04500
C 	C 	0.60750 0.31110 0.60920 0.03700
H 	H 	0.58160 0.34500 0.58880 -0.03600
C 	C 	0.52780 0.17370 0.46970 0.35500
Mn	Mn	0.81191 0.37537 0.79693 1.24000
N 	N 	0.70720 0.38396 0.02160 -0.24000
N 	N 	0.70740 0.43132 0.64030 -0.23900
N 	N 	0.70210 0.30516 0.71120 -0.22500
O 	O 	0.42620 0.17752 0.43480 -0.45900
O 	O 	0.58690 0.13492 0.43390 -0.48400
C 	C 	0.13480 0.11040 0.60720 -0.15100
C 	C 	0.13530 0.04260 0.08780 -0.20800
C 	C 	0.23430 0.24406 0.24290 0.05900
H 	H 	0.29720 0.24970 0.31750 -0.00100
C 	C 	0.17850 0.28729 0.17000 -0.10100
H 	H 	0.20450 0.32100 0.19450 0.05100
C 	C 	0.08520 0.27999 0.06210 -0.00100
C 	C 	0.04730 0.22924 0.03400 -0.22400
H 	H 	0.98230 0.22280 0.96550 0.13500
C 	C 	0.10750 0.18890 0.10920 0.11000
H 	H 	0.08160 0.15500 0.08880 -0.07500
C 	C 	0.02780 0.32630 0.96970 0.29100
Mn	Mn	0.31191 0.12463 0.29693 1.23300
N 	N 	0.20720 0.11604 0.52160 -0.23800
N 	N 	0.20740 0.06868 0.14030 -0.24400
N 	N 	0.20210 0.19484 0.21120 -0.24600
O 	O 	0.92620 0.32248 0.93480 -0.41300
O 	O 	0.08690 0.36508 0.93390 -0.47300
C 	C 	0.63480 0.61040 0.60720 -0.13800
C 	C 	0.63530 0.54260 0.08780 -0.19200
C 	C 	0.73430 0.74406 0.24290 0.03500
H 	H 	0.79720 0.74970 0.31750 0.00700
C 	C 	0.67850 0.78729 0.17000 -0.05700
H 	H 	0.70450 0.82100 0.19450 0.03900
C 	C 	0.58520 0.77999 0.06210 -0.06200
C 	C 	0.54730 0.72924 0.03400 -0.09400
H 	H 	0.48230 0.72280 0.96550 0.06400
C 	C 	0.60750 0.68890 0.10920 0.04900
H 	H 	0.58160 0.65500 0.08880 -0.04500
C 	C 	0.52780 0.82630 0.96970 0.36200
Mn	Mn	0.81191 0.62463 0.29693 1.23700
N 	N 	0.70720 0.61604 0.52160 -0.23600
N 	N 	0.70740 0.56868 0.14030 -0.24100
N 	N 	0.70210 0.69484 0.21120 -0.23000
O 	O 	0.42620 0.82248 0.93480 -0.45400
O 	O 	0.58690 0.86508 0.93390 -0.47700
C 	C 	0.86520 0.11040 0.89280 -0.11600
C 	C 	0.86470 0.04260 0.41220 -0.17300
C 	C 	0.76570 0.24406 0.25710 0.00900
H 	H 	0.70280 0.24970 0.18250 0.01600
C 	C 	0.82150 0.28729 0.33000 -0.00800
H 	H 	0.79550 0.32100 0.30550 0.02400
C 	C 	0.91480 0.27999 0.43790 -0.12400
C 	C 	0.95270 0.22924 0.46600 0.07100
H 	H 	0.01770 0.22280 0.53450 -0.02700
C 	C 	0.89250 0.18890 0.39080 -0.02700
H 	H 	0.91840 0.15500 0.41120 -0.00300
C 	C 	0.97220 0.32630 0.53030 0.42500
Mn	Mn	0.68809 0.12463 0.20307 1.23200
N 	N 	0.79280 0.11604 0.97840 -0.23700
N 	N 	0.79260 0.06868 0.35970 -0.24800
N 	N 	0.79790 0.19484 0.28880 -0.21000
O 	O 	0.07380 0.32248 0.56520 -0.50000
O 	O 	0.91310 0.36508 0.56610 -0.49000
C 	C 	0.36520 0.61040 0.89280 -0.13900
C 	C 	0.36470 0.54260 0.41220 -0.19200
C 	C 	0.26570 0.74406 0.25710 0.03400
H 	H 	0.20280 0.74970 0.18250 0.00800
C 	C 	0.32150 0.78729 0.33000 -0.05500
H 	H 	0.29550 0.82100 0.30550 0.03900
C 	C 	0.41480 0.77999 0.43790 -0.06100
C 	C 	0.45270 0.72924 0.46600 -0.06300
H 	H 	0.51770 0.72280 0.53450 0.04500
C 	C 	0.39250 0.68890 0.39080 0.03600
H 	H 	0.41840 0.65500 0.41120 -0.03700
C 	C 	0.47220 0.82630 0.53030 0.35300
Mn	Mn	0.18809 0.62463 0.20307 1.23000
N 	N 	0.29280 0.61604 0.97840 -0.23500
N 	N 	0.29260 0.56868 0.35970 -0.24600
N 	N 	0.29790 0.69484 0.28880 -0.22700
O 	O 	0.57380 0.82248 0.56520 -0.45700
O 	O 	0.41310 0.86508 0.56610 -0.48000
Ag	Ag	0.00000 0.89711 0.25000 0.43700
Ag	Ag	0.50000 0.39711 0.25000 0.45200
Ag	Ag	0.00000 0.10289 0.75000 0.43600
Ag	Ag	0.50000 0.60289 0.75000 0.45700
Ag	Ag	-0.00000 0.00000 -0.00000 0.38600
Ag	Ag	0.50000 0.50000 -0.00000 0.41500
Ag	Ag	0.00000 0.00000 0.50000 0.39200
Ag	Ag	0.50000 0.50000 0.50000 0.42300
