data_crystal

_cell_length_a 12.13300
_cell_length_b 25.15600
_cell_length_c 7.63730
_cell_angle_alpha 90.00000
_cell_angle_beta  93.31700
_cell_angle_gamma 90.00000

_symmetry_space_group_name_	'P 1'
_symmetry_space_group_name_H-M	'P 1'

loop_
_symmetry_equiv_pos_as_xyz
  x,y,z

loop_
_atom_site_label
_atom_site_type_symbol
_atom_site_fract_x
_atom_site_fract_y
_atom_site_fract_z
_atom_site_charge
Mn	Mn	0.80938 0.62358 0.29714 1.23700
N 	N 	0.70550 0.61660 0.52640 -0.24800
N 	N 	0.70310 0.56620 0.14940 -0.25500
N 	N 	0.69960 0.69475 0.21120 -0.22600
O 	O 	0.42610 0.82293 0.93100 -0.45000
O 	O 	0.58740 0.86691 0.93310 -0.47200
C 	C 	0.63230 0.61230 0.61080 -0.06100
C 	C 	0.63070 0.54070 0.09420 -0.09300
C 	C 	0.60570 0.68830 0.11010 0.03500
H 	H 	0.57860 0.65430 0.08630 -0.02500
C 	C 	0.54910 0.73260 0.04120 -0.07300
H 	H 	0.48260 0.72730 0.97680 0.06000
C 	C 	0.58430 0.77930 0.06250 -0.05000
C 	C 	0.67880 0.78800 0.16730 -0.06500
H 	H 	0.70590 0.82230 0.18660 0.04500
C 	C 	0.73180 0.74480 0.24240 0.04100
H 	H 	0.79320 0.75070 0.31870 0.00600
C 	C 	0.52790 0.82740 0.96910 0.34800
Mn	Mn	0.30938 0.12358 0.29714 1.23600
N 	N 	0.20550 0.11660 0.52640 -0.24800
N 	N 	0.20310 0.06620 0.14940 -0.25700
N 	N 	0.19960 0.19475 0.21120 -0.23600
O 	O 	0.92610 0.32293 0.93100 -0.42700
O 	O 	0.08740 0.36691 0.93310 -0.47000
C 	C 	0.13230 0.11230 0.61080 -0.06600
C 	C 	0.13070 0.04070 0.09420 -0.09900
C 	C 	0.10570 0.18830 0.11010 0.07300
H 	H 	0.07860 0.15430 0.08630 -0.04300
C 	C 	0.04910 0.23260 0.04120 -0.15700
H 	H 	0.98260 0.22730 0.97680 0.10300
C 	C 	0.08430 0.27930 0.06250 -0.00300
C 	C 	0.17880 0.28800 0.16730 -0.09700
H 	H 	0.20590 0.32230 0.18660 0.05400
C 	C 	0.23180 0.24480 0.24240 0.05900
H 	H 	0.29320 0.25070 0.31870 0.00000
C 	C 	0.02790 0.32740 0.96910 0.30600
Mn	Mn	0.19062 0.62358 0.20286 1.23500
N 	N 	0.29450 0.61660 0.97360 -0.24600
N 	N 	0.29690 0.56620 0.35060 -0.25800
N 	N 	0.30040 0.69475 0.28880 -0.22400
O 	O 	0.57390 0.82293 0.56900 -0.45200
O 	O 	0.41260 0.86691 0.56690 -0.47400
C 	C 	0.36770 0.61230 0.88920 -0.06100
C 	C 	0.36930 0.54070 0.40580 -0.09300
C 	C 	0.39430 0.68830 0.38990 0.02700
H 	H 	0.42140 0.65430 0.41370 -0.02100
C 	C 	0.45090 0.73260 0.45880 -0.05400
H 	H 	0.51740 0.72730 0.52320 0.04900
C 	C 	0.41570 0.77930 0.43750 -0.05300
C 	C 	0.32120 0.78800 0.33270 -0.06100
H 	H 	0.29410 0.82230 0.31340 0.04400
C 	C 	0.26820 0.74480 0.25760 0.03800
H 	H 	0.20680 0.75070 0.18130 0.00700
C 	C 	0.47210 0.82740 0.53090 0.34500
Mn	Mn	0.69062 0.12358 0.20286 1.23600
N 	N 	0.79450 0.11660 0.97360 -0.24800
N 	N 	0.79690 0.06620 0.35060 -0.25900
N 	N 	0.80040 0.19475 0.28880 -0.21300
O 	O 	0.07390 0.32293 0.56900 -0.47600
O 	O 	0.91260 0.36691 0.56690 -0.48100
C 	C 	0.86770 0.11230 0.88920 -0.04700
C 	C 	0.86930 0.04070 0.40580 -0.08000
C 	C 	0.89430 0.18830 0.38990 -0.01200
H 	H 	0.92140 0.15430 0.41370 -0.00000
C 	C 	0.95090 0.23260 0.45880 0.03200
H 	H 	0.01740 0.22730 0.52320 0.00600
C 	C 	0.91570 0.27930 0.43750 -0.10200
C 	C 	0.82120 0.28800 0.33270 -0.02800
H 	H 	0.79410 0.32230 0.31340 0.03300
C 	C 	0.76820 0.24480 0.25760 0.01900
H 	H 	0.70680 0.25070 0.18130 0.01300
C 	C 	0.97210 0.32740 0.53090 0.38800
Mn	Mn	0.19062 0.37642 0.70286 1.23600
N 	N 	0.29450 0.38340 0.47360 -0.24900
N 	N 	0.29690 0.43380 0.85060 -0.25700
N 	N 	0.30040 0.30525 0.78880 -0.22100
O 	O 	0.57390 0.17707 0.06900 -0.45500
O 	O 	0.41260 0.13309 0.06690 -0.47900
C 	C 	0.36770 0.38770 0.38920 -0.06500
C 	C 	0.36930 0.45930 0.90580 -0.08700
C 	C 	0.39430 0.31170 0.88990 0.01900
H 	H 	0.42140 0.34570 0.91370 -0.01600
C 	C 	0.45090 0.26740 0.95880 -0.03500
H 	H 	0.51740 0.27270 0.02320 0.03700
C 	C 	0.41570 0.22070 0.93750 -0.05500
C 	C 	0.32120 0.21200 0.83270 -0.05700
H 	H 	0.29410 0.17770 0.81340 0.04400
C 	C 	0.26820 0.25520 0.75760 0.03800
H 	H 	0.20680 0.24930 0.68130 0.00900
C 	C 	0.47210 0.17260 0.03090 0.34200
Mn	Mn	0.69062 0.87642 0.70286 1.23900
N 	N 	0.79450 0.88340 0.47360 -0.24900
N 	N 	0.79690 0.93380 0.85060 -0.25800
N 	N 	0.80040 0.80525 0.78880 -0.21100
O 	O 	0.07390 0.67707 0.06900 -0.47500
O 	O 	0.91260 0.63309 0.06690 -0.48200
C 	C 	0.86770 0.88770 0.38920 -0.04700
C 	C 	0.86930 0.95930 0.90580 -0.06000
C 	C 	0.89430 0.81170 0.88990 -0.01600
H 	H 	0.92140 0.84570 0.91370 0.00400
C 	C 	0.95090 0.76740 0.95880 0.04500
H 	H 	0.01740 0.77270 0.02320 -0.00300
C 	C 	0.91570 0.72070 0.93750 -0.09900
C 	C 	0.82120 0.71200 0.83270 -0.02700
H 	H 	0.79410 0.67770 0.81340 0.03600
C 	C 	0.76820 0.75520 0.75760 0.02100
H 	H 	0.70680 0.74930 0.68130 0.01400
C 	C 	0.97210 0.67260 0.03090 0.38100
Mn	Mn	0.80938 0.37642 0.79714 1.24000
N 	N 	0.70550 0.38340 0.02640 -0.25000
N 	N 	0.70310 0.43380 0.64940 -0.25400
N 	N 	0.69960 0.30525 0.71120 -0.22300
O 	O 	0.42610 0.17707 0.43100 -0.45300
O 	O 	0.58740 0.13309 0.43310 -0.47700
C 	C 	0.63230 0.38770 0.11080 -0.06400
C 	C 	0.63070 0.45930 0.59420 -0.08900
C 	C 	0.60570 0.31170 0.61010 0.02800
H 	H 	0.57860 0.34570 0.58630 -0.02000
C 	C 	0.54910 0.26740 0.54120 -0.05400
H 	H 	0.48260 0.27270 0.47680 0.04900
C 	C 	0.58430 0.22070 0.56250 -0.05200
C 	C 	0.67880 0.21200 0.66730 -0.06100
H 	H 	0.70590 0.17770 0.68660 0.04500
C 	C 	0.73180 0.25520 0.74240 0.04000
H 	H 	0.79320 0.24930 0.81870 0.00800
C 	C 	0.52790 0.17260 0.46910 0.34500
Mn	Mn	0.30938 0.87642 0.79714 1.23900
N 	N 	0.20550 0.88340 0.02640 -0.24900
N 	N 	0.20310 0.93380 0.64940 -0.25500
N 	N 	0.19960 0.80525 0.71120 -0.23300
O 	O 	0.92610 0.67707 0.43100 -0.43000
O 	O 	0.08740 0.63309 0.43310 -0.47100
C 	C 	0.13230 0.88770 0.11080 -0.06500
C 	C 	0.13070 0.95930 0.59420 -0.08100
C 	C 	0.10570 0.81170 0.61010 0.06500
H 	H 	0.07860 0.84570 0.58630 -0.03800
C 	C 	0.04910 0.76740 0.54120 -0.13700
H 	H 	0.98260 0.77270 0.47680 0.09100
C 	C 	0.08430 0.72070 0.56250 -0.00600
C 	C 	0.17880 0.71200 0.66730 -0.09300
H 	H 	0.20590 0.67770 0.68660 0.05500
C 	C 	0.23180 0.75520 0.74240 0.05800
H 	H 	0.29320 0.74930 0.81870 0.00200
C 	C 	0.02790 0.67260 0.46910 0.30400
Au	Au	0.50000 0.60729 0.75000 0.26300
Au	Au	-0.00000 0.10729 0.75000 0.24800
Au	Au	0.50000 0.39271 0.25000 0.26000
Au	Au	0.00000 0.89271 0.25000 0.24900
Au	Au	0.50000 0.50000 -0.00000 0.23100
Au	Au	-0.00000 0.00000 -0.00000 0.21000
Au	Au	0.50000 0.50000 0.50000 0.23700
Au	Au	0.00000 -0.00000 0.50000 0.21500
