data_crystal

_cell_length_a 12.84540
_cell_length_b 24.99590
_cell_length_c 24.99590
_cell_angle_alpha 62.87170
_cell_angle_beta  80.13660
_cell_angle_gamma 99.86340

_symmetry_space_group_name_	'P 1'
_symmetry_space_group_name_H-M	'P 1'

loop_
_symmetry_equiv_pos_as_xyz
  x,y,z

loop_
_atom_site_label
_atom_site_type_symbol
_atom_site_fract_x
_atom_site_fract_y
_atom_site_fract_z
_atom_site_charge
Cu	Cu	0.54680 0.45688 -0.00000 0.88400
Cu	Cu	0.54680 1.00000 0.54312 0.90500
Cu	Cu	0.08992 0.54312 0.45688 0.90300
Cu	Cu	0.45320 0.54311 -0.00000 0.88400
Cu	Cu	0.91009 0.45689 0.54311 0.90400
Cu	Cu	0.45320 0.00000 0.45688 0.90300
H 	H 	0.42370 0.42900 0.86460 0.07100
H 	H 	0.28590 0.56380 0.86260 0.06300
H 	H 	0.64710 0.33020 0.78170 0.03900
H 	H 	0.44890 0.30540 0.82710 0.03400
H 	H 	0.81550 0.45220 0.70360 0.12800
H 	H 	0.76340 0.50720 0.69980 0.11800
H 	H 	0.75540 0.48310 0.65080 0.12500
H 	H 	0.30130 0.36630 0.81420 0.06400
H 	H 	0.32980 0.41850 0.74190 0.06800
H 	H 	0.28830 0.86460 0.70640 0.06700
H 	H 	0.14850 0.86260 0.57360 0.05900
H 	H 	0.42880 0.78170 0.88810 0.04400
H 	H 	0.27600 0.82710 0.86750 0.03400
H 	H 	0.51910 0.70360 0.84420 0.13000
H 	H 	0.46320 0.69980 0.79300 0.11800
H 	H 	0.40620 0.65080 0.86610 0.12800
H 	H 	0.11550 0.81420 0.81950 0.06400
H 	H 	0.07170 0.74190 0.83960 0.07100
H 	H 	0.99470 0.70640 0.42900 0.06600
H 	H 	0.72210 0.57360 0.56380 0.05900
H 	H 	0.31690 0.88810 0.33020 0.03600
H 	H 	0.14350 0.86750 0.30540 0.02700
H 	H 	0.36330 0.84420 0.45220 0.12800
H 	H 	0.25620 0.79300 0.50720 0.11800
H 	H 	0.27230 0.86610 0.48310 0.12400
H 	H 	0.93500 0.81950 0.36630 0.05800
H 	H 	0.91130 0.83960 0.41850 0.06600
H 	H 	0.71170 0.70640 0.86460 0.07100
H 	H 	0.85150 0.57360 0.86260 0.06300
H 	H 	0.57120 0.88810 0.78170 0.04000
H 	H 	0.72400 0.86750 0.82710 0.03400
H 	H 	0.48090 0.84420 0.70360 0.12800
H 	H 	0.53680 0.79300 0.69980 0.11800
H 	H 	0.59380 0.86610 0.65080 0.12500
H 	H 	0.88450 0.81950 0.81420 0.06500
H 	H 	0.92830 0.83960 0.74190 0.06900
H 	H 	0.00530 0.42900 0.70640 0.06600
H 	H 	0.27790 0.56380 0.57360 0.05900
H 	H 	0.68310 0.33020 0.88810 0.04400
H 	H 	0.85650 0.30540 0.86750 0.03500
H 	H 	0.63670 0.45220 0.84420 0.13000
H 	H 	0.74380 0.50720 0.79300 0.11800
H 	H 	0.72770 0.48310 0.86610 0.12800
H 	H 	0.06500 0.36630 0.81950 0.06300
H 	H 	0.08870 0.41850 0.83960 0.07100
H 	H 	0.57630 0.86460 0.42900 0.06600
H 	H 	0.71410 0.86260 0.56380 0.05900
H 	H 	0.35290 0.78170 0.33020 0.03600
H 	H 	0.55110 0.82710 0.30540 0.02700
H 	H 	0.18450 0.70360 0.45220 0.12700
H 	H 	0.23660 0.69980 0.50720 0.11800
H 	H 	0.24460 0.65080 0.48310 0.12400
H 	H 	0.69870 0.81420 0.36630 0.05900
H 	H 	0.67020 0.74190 0.41850 0.06600
H 	H 	0.57630 0.57100 0.13540 0.06200
H 	H 	0.71410 0.43620 0.13740 0.05500
H 	H 	0.35290 0.66980 0.21830 0.03600
H 	H 	0.55110 0.69460 0.17290 0.02400
H 	H 	0.18450 0.54780 0.29640 0.12700
H 	H 	0.23660 0.49280 0.30020 0.11800
H 	H 	0.24460 0.51690 0.34920 0.12400
H 	H 	0.69870 0.63370 0.18580 0.05600
H 	H 	0.67020 0.58150 0.25810 0.06500
H 	H 	0.71170 0.13540 0.29360 0.06500
H 	H 	0.85150 0.13740 0.42640 0.05900
H 	H 	0.57120 0.21830 0.11190 0.03100
H 	H 	0.72400 0.17290 0.13250 0.02400
H 	H 	0.48090 0.29640 0.15580 0.12600
H 	H 	0.53680 0.30020 0.20700 0.11800
H 	H 	0.59380 0.34920 0.13390 0.12100
H 	H 	0.88450 0.18580 0.18050 0.05600
H 	H 	0.92830 0.25810 0.16040 0.06300
H 	H 	0.00530 0.29360 0.57100 0.06600
H 	H 	0.27790 0.42640 0.43620 0.05900
H 	H 	0.68310 0.11190 0.66980 0.03800
H 	H 	0.85650 0.13250 0.69460 0.03200
H 	H 	0.63670 0.15580 0.54780 0.12800
H 	H 	0.74380 0.20700 0.49280 0.11800
H 	H 	0.72770 0.13390 0.51690 0.12400
H 	H 	0.06500 0.18050 0.63370 0.06100
H 	H 	0.08870 0.16040 0.58150 0.06700
H 	H 	0.28830 0.29360 0.13540 0.06200
H 	H 	0.14850 0.42640 0.13740 0.05500
H 	H 	0.42880 0.11190 0.21830 0.03500
H 	H 	0.27600 0.13250 0.17290 0.02300
H 	H 	0.51910 0.15580 0.29640 0.12700
H 	H 	0.46320 0.20700 0.30020 0.11800
H 	H 	0.40620 0.13390 0.34920 0.12400
H 	H 	0.11550 0.18050 0.18580 0.05500
H 	H 	0.07170 0.16040 0.25810 0.06400
H 	H 	0.99470 0.57100 0.29360 0.06600
H 	H 	0.72210 0.43620 0.42640 0.05900
H 	H 	0.31690 0.66980 0.11190 0.03200
H 	H 	0.14350 0.69460 0.13250 0.02400
H 	H 	0.36330 0.54780 0.15580 0.12600
H 	H 	0.25620 0.49280 0.20700 0.11800
H 	H 	0.27230 0.51690 0.13390 0.12100
H 	H 	0.93500 0.63370 0.18050 0.05600
H 	H 	0.91130 0.58150 0.16040 0.06200
H 	H 	0.42370 0.13540 0.57100 0.06600
H 	H 	0.28590 0.13740 0.43620 0.05800
H 	H 	0.64710 0.21830 0.66980 0.03900
H 	H 	0.44890 0.17290 0.69460 0.03100
H 	H 	0.81550 0.29640 0.54780 0.12800
H 	H 	0.76340 0.30020 0.49280 0.11800
H 	H 	0.75540 0.34920 0.51690 0.12500
H 	H 	0.30130 0.18580 0.63370 0.06100
H 	H 	0.32980 0.25810 0.58150 0.06700
C 	C 	0.41658 0.49911 0.91797 0.32400
C 	C 	0.36601 0.49705 0.86812 -0.03700
C 	C 	0.38226 0.45709 0.84661 -0.06100
C 	C 	0.34025 0.45595 0.79930 0.03900
C 	C 	0.27280 0.49630 0.77620 -0.02100
C 	C 	0.25090 0.54010 0.79810 0.00700
C 	C 	0.29860 0.53786 0.84536 -0.04900
C 	C 	0.60600 0.35980 0.77380 -0.01500
C 	C 	0.49660 0.34590 0.79680 0.00300
C 	C 	0.75470 0.47040 0.69420 -0.29500
C 	C 	0.35280 0.40740 0.78060 -0.09900
C 	C 	0.55960 0.44290 0.73300 0.08500
C 	C 	0.33455 0.91797 0.58292 0.32600
C 	C 	0.23413 0.86812 0.63483 -0.04300
C 	C 	0.22887 0.84661 0.69630 -0.05900
C 	C 	0.13955 0.79930 0.74475 0.03700
C 	C 	0.04900 0.77620 0.72750 -0.02100
C 	C 	0.04900 0.79810 0.66180 0.00400
C 	C 	0.14396 0.84536 0.61678 -0.04800
C 	C 	0.37980 0.77380 0.86640 -0.01300
C 	C 	0.29340 0.79680 0.85730 0.00500
C 	C 	0.44890 0.69420 0.83540 -0.29600
C 	C 	0.13340 0.78060 0.81200 -0.09900
C 	C 	0.29260 0.73300 0.82410 0.08800
C 	C 	0.91747 0.58292 0.49911 0.32800
C 	C 	0.86896 0.63483 0.49705 -0.04500
C 	C 	0.92517 0.69630 0.45709 -0.05800
C 	C 	0.88430 0.74475 0.45595 0.03500
C 	C 	0.77650 0.72750 0.49630 -0.01900
C 	C 	0.71080 0.66180 0.54010 0.00400
C 	C 	0.76074 0.61678 0.53786 -0.04800
C 	C 	0.24620 0.86640 0.35980 -0.01600
C 	C 	0.15070 0.85730 0.34590 0.00200
C 	C 	0.28430 0.83540 0.47040 -0.29500
C 	C 	0.94540 0.81200 0.40740 -0.09600
C 	C 	0.11670 0.82410 0.44290 0.08500
C 	C 	0.66545 0.58292 0.91797 0.32400
C 	C 	0.76587 0.63483 0.86812 -0.03700
C 	C 	0.77113 0.69630 0.84661 -0.06000
C 	C 	0.86045 0.74475 0.79930 0.03900
C 	C 	0.95100 0.72750 0.77620 -0.01900
C 	C 	0.95100 0.66180 0.79810 0.00800
C 	C 	0.85604 0.61678 0.84536 -0.04900
C 	C 	0.62020 0.86640 0.77380 -0.01400
C 	C 	0.70660 0.85730 0.79680 0.00300
C 	C 	0.55110 0.83540 0.69420 -0.29500
C 	C 	0.86660 0.81200 0.78060 -0.10000
C 	C 	0.70740 0.82410 0.73300 0.08600
C 	C 	0.08253 0.49911 0.58292 0.32400
C 	C 	0.13104 0.49705 0.63483 -0.04300
C 	C 	0.07483 0.45709 0.69630 -0.06000
C 	C 	0.11570 0.45595 0.74475 0.03700
C 	C 	0.22350 0.49630 0.72750 -0.02000
C 	C 	0.28920 0.54010 0.66180 0.00500
C 	C 	0.23926 0.53786 0.61678 -0.04800
C 	C 	0.75380 0.35980 0.86640 -0.01300
C 	C 	0.84930 0.34590 0.85730 0.00500
C 	C 	0.71570 0.47040 0.83540 -0.29600
C 	C 	0.05460 0.40740 0.81200 -0.10100
C 	C 	0.88330 0.44290 0.82410 0.08900
C 	C 	0.58342 0.91797 0.49911 0.32600
C 	C 	0.63399 0.86812 0.49705 -0.04400
C 	C 	0.61774 0.84661 0.45709 -0.05800
C 	C 	0.65975 0.79930 0.45595 0.03500
C 	C 	0.72720 0.77620 0.49630 -0.02000
C 	C 	0.74910 0.79810 0.54010 0.00500
C 	C 	0.70140 0.84536 0.53786 -0.04800
C 	C 	0.39400 0.77380 0.35980 -0.01600
C 	C 	0.50340 0.79680 0.34590 0.00200
C 	C 	0.24530 0.69420 0.47040 -0.29400
C 	C 	0.64720 0.78060 0.40740 -0.09700
C 	C 	0.44040 0.73300 0.44290 0.08500
C 	C 	0.58342 0.50089 0.08203 0.32600
C 	C 	0.63399 0.50295 0.13188 -0.04900
C 	C 	0.61774 0.54291 0.15339 -0.05700
C 	C 	0.65975 0.54405 0.20070 0.03200
C 	C 	0.72720 0.50370 0.22380 -0.01900
C 	C 	0.74910 0.45990 0.20190 0.00200
C 	C 	0.70140 0.46214 0.15464 -0.04700
C 	C 	0.39400 0.64020 0.22620 -0.01700
C 	C 	0.50340 0.65410 0.20320 0.00100
C 	C 	0.24530 0.52960 0.30580 -0.29500
C 	C 	0.64720 0.59260 0.21940 -0.09500
C 	C 	0.44040 0.55710 0.26700 0.08500
C 	C 	0.66545 0.08203 0.41708 0.32700
C 	C 	0.76587 0.13188 0.36517 -0.04500
C 	C 	0.77113 0.15339 0.30370 -0.05700
C 	C 	0.86045 0.20070 0.25525 0.03300
C 	C 	0.95100 0.22380 0.27250 -0.01800
C 	C 	0.95100 0.20190 0.33820 0.00500
C 	C 	0.85604 0.15464 0.38322 -0.04800
C 	C 	0.62020 0.22620 0.13360 -0.01800
C 	C 	0.70660 0.20320 0.14270 -0.00100
C 	C 	0.55110 0.30580 0.16460 -0.29400
C 	C 	0.86660 0.21940 0.18800 -0.09500
C 	C 	0.70740 0.26700 0.17590 0.08200
C 	C 	0.08253 0.41708 0.50089 0.32400
C 	C 	0.13104 0.36517 0.50295 -0.04300
C 	C 	0.07483 0.30370 0.54291 -0.05900
C 	C 	0.11570 0.25525 0.54405 0.03600
C 	C 	0.22350 0.27250 0.50370 -0.02000
C 	C 	0.28920 0.33820 0.45990 0.00500
C 	C 	0.23926 0.38322 0.46214 -0.04800
C 	C 	0.75380 0.13360 0.64020 -0.01500
C 	C 	0.84930 0.14270 0.65410 0.00200
C 	C 	0.71570 0.16460 0.52960 -0.29500
C 	C 	0.05460 0.18800 0.59260 -0.09900
C 	C 	0.88330 0.17590 0.55710 0.08600
C 	C 	0.33455 0.41708 0.08203 0.32600
C 	C 	0.23413 0.36517 0.13188 -0.04900
C 	C 	0.22887 0.30370 0.15339 -0.05700
C 	C 	0.13955 0.25525 0.20070 0.03200
C 	C 	0.04900 0.27250 0.22380 -0.02100
C 	C 	0.04900 0.33820 0.20190 0.00100
C 	C 	0.14396 0.38322 0.15464 -0.04700
C 	C 	0.37980 0.13360 0.22620 -0.01700
C 	C 	0.29340 0.14270 0.20320 0.00100
C 	C 	0.44890 0.16460 0.30580 -0.29500
C 	C 	0.13340 0.18800 0.21940 -0.09500
C 	C 	0.29260 0.17590 0.26700 0.08500
C 	C 	0.91747 0.50089 0.41708 0.32800
C 	C 	0.86896 0.50295 0.36517 -0.04500
C 	C 	0.92517 0.54291 0.30370 -0.05700
C 	C 	0.88430 0.54405 0.25525 0.03400
C 	C 	0.77650 0.50370 0.27250 -0.02000
C 	C 	0.71080 0.45990 0.33820 0.00400
C 	C 	0.76074 0.46214 0.38322 -0.04800
C 	C 	0.24620 0.64020 0.13360 -0.01900
C 	C 	0.15070 0.65410 0.14270 -0.00100
C 	C 	0.28430 0.52960 0.16460 -0.29400
C 	C 	0.94540 0.59260 0.18800 -0.09400
C 	C 	0.11670 0.55710 0.17590 0.08200
C 	C 	0.41658 0.08203 0.50089 0.32600
C 	C 	0.36601 0.13188 0.50295 -0.04400
C 	C 	0.38226 0.15339 0.54291 -0.05800
C 	C 	0.34025 0.20070 0.54405 0.03500
C 	C 	0.27280 0.22380 0.50370 -0.02000
C 	C 	0.25090 0.20190 0.45990 0.00400
C 	C 	0.29860 0.15464 0.46214 -0.04800
C 	C 	0.60600 0.22620 0.64020 -0.01500
C 	C 	0.49660 0.20320 0.65410 0.00200
C 	C 	0.75470 0.30580 0.52960 -0.29500
C 	C 	0.35280 0.21940 0.59260 -0.09800
C 	C 	0.55960 0.26700 0.55710 0.08500
N 	N 	0.46440 0.39950 0.76970 -0.11100
N 	N 	0.64940 0.42370 0.73690 -0.08500
N 	N 	0.23410 0.76970 0.83080 -0.11100
N 	N 	0.38630 0.73690 0.83940 -0.08400
N 	N 	0.06490 0.83080 0.39950 -0.11300
N 	N 	0.22570 0.83940 0.42370 -0.08500
N 	N 	0.76590 0.83080 0.76970 -0.11100
N 	N 	0.61370 0.83940 0.73690 -0.08500
N 	N 	0.93510 0.39950 0.83080 -0.11000
N 	N 	0.77430 0.42370 0.83940 -0.08400
N 	N 	0.53560 0.76970 0.39950 -0.11200
N 	N 	0.35060 0.73690 0.42370 -0.08500
N 	N 	0.53560 0.60050 0.23030 -0.11300
N 	N 	0.35060 0.57630 0.26310 -0.08500
N 	N 	0.76590 0.23030 0.16920 -0.11300
N 	N 	0.61370 0.26310 0.16060 -0.08600
N 	N 	0.93510 0.16920 0.60050 -0.11100
N 	N 	0.77430 0.16060 0.57630 -0.08500
N 	N 	0.23410 0.16920 0.23030 -0.11300
N 	N 	0.38630 0.16060 0.26310 -0.08500
N 	N 	0.06490 0.60050 0.16920 -0.11400
N 	N 	0.22570 0.57630 0.16060 -0.08600
N 	N 	0.46440 0.23030 0.60050 -0.11200
N 	N 	0.64940 0.26310 0.57630 -0.08500
O 	O 	0.47535 0.46145 0.93650 -0.38700
O 	O 	0.39430 0.53606 0.93626 -0.39300
O 	O 	0.41185 0.93650 0.60205 -0.40500
O 	O 	0.33056 0.93626 0.52768 -0.41000
O 	O 	0.01390 0.60205 0.46145 -0.40800
O 	O 	0.85824 0.52768 0.53606 -0.41200
O 	O 	0.58815 0.60205 0.93650 -0.38700
O 	O 	0.66944 0.52768 0.93626 -0.39200
O 	O 	0.98610 0.46145 0.60205 -0.40400
O 	O 	0.14176 0.53606 0.52768 -0.41100
O 	O 	0.52465 0.93650 0.46145 -0.40500
O 	O 	0.60570 0.93626 0.53606 -0.41100
O 	O 	0.52465 0.53855 0.06350 -0.41600
O 	O 	0.60570 0.46394 0.06374 -0.42100
O 	O 	0.58815 0.06350 0.39795 -0.40800
O 	O 	0.66944 0.06374 0.47232 -0.41300
O 	O 	0.98610 0.39795 0.53855 -0.40400
O 	O 	0.14176 0.47232 0.46394 -0.41100
O 	O 	0.41185 0.39795 0.06350 -0.41700
O 	O 	0.33056 0.47232 0.06374 -0.42200
O 	O 	0.01390 0.53855 0.39795 -0.40800
O 	O 	0.85824 0.46394 0.47232 -0.41200
O 	O 	0.47535 0.06350 0.53855 -0.40800
O 	O 	0.39430 0.06374 0.46394 -0.41300
