data_crystal

_cell_length_a 18.82260
_cell_length_b 18.82260
_cell_length_c 18.82260
_cell_angle_alpha 62.89810
_cell_angle_beta  62.89810
_cell_angle_gamma 62.89810

_symmetry_space_group_name_	'P 1'
_symmetry_space_group_name_H-M	'P 1'

loop_
_symmetry_equiv_pos_as_xyz
  x,y,z

loop_
_atom_site_label
_atom_site_type_symbol
_atom_site_fract_x
_atom_site_fract_y
_atom_site_fract_z
_atom_site_charge
Er	Er	0.99556 0.55932 0.56628 1.71900
Er	Er	0.56628 0.99556 0.55932 1.71900
Er	Er	0.55932 0.56628 0.99556 1.71900
Er	Er	0.00444 0.44068 0.43372 1.71900
Er	Er	0.43372 0.00444 0.44068 1.71900
Er	Er	0.44068 0.43372 0.00444 1.71900
H 	H 	0.22500 0.51810 0.23590 0.02600
H 	H 	0.38990 0.63730 0.15520 0.04400
H 	H 	0.19430 0.65530 0.36580 0.07800
H 	H 	0.43990 0.66700 0.22820 0.07400
H 	H 	0.39640 0.75030 0.16770 0.06000
H 	H 	0.39410 0.87930 0.16580 0.10100
H 	H 	0.40480 0.95470 0.22610 0.00000
H 	H 	0.43900 0.75300 0.42120 0.00400
H 	H 	0.43380 0.67560 0.35830 0.10500
H 	H 	0.23590 0.22500 0.51810 0.02600
H 	H 	0.15520 0.38990 0.63730 0.04400
H 	H 	0.36580 0.19430 0.65530 0.07800
H 	H 	0.22820 0.43990 0.66700 0.07400
H 	H 	0.16770 0.39640 0.75030 0.06000
H 	H 	0.16580 0.39410 0.87930 0.10100
H 	H 	0.22610 0.40480 0.95470 0.00000
H 	H 	0.42120 0.43900 0.75300 0.00400
H 	H 	0.35830 0.43380 0.67560 0.10500
H 	H 	0.51810 0.23590 0.22500 0.02600
H 	H 	0.63730 0.15520 0.38990 0.04400
H 	H 	0.65530 0.36580 0.19430 0.07800
H 	H 	0.66700 0.22820 0.43990 0.07400
H 	H 	0.75030 0.16770 0.39640 0.06000
H 	H 	0.87930 0.16580 0.39410 0.10100
H 	H 	0.95470 0.22610 0.40480 0.00000
H 	H 	0.75300 0.42120 0.43900 0.00400
H 	H 	0.67560 0.35830 0.43380 0.10500
H 	H 	0.77500 0.48190 0.76410 0.02600
H 	H 	0.61010 0.36270 0.84480 0.04400
H 	H 	0.80570 0.34470 0.63420 0.07800
H 	H 	0.56010 0.33300 0.77180 0.07400
H 	H 	0.60360 0.24970 0.83230 0.06000
H 	H 	0.60590 0.12070 0.83420 0.10100
H 	H 	0.59520 0.04530 0.77390 0.00000
H 	H 	0.56100 0.24700 0.57880 0.00400
H 	H 	0.56620 0.32440 0.64170 0.10500
H 	H 	0.76410 0.77500 0.48190 0.02600
H 	H 	0.84480 0.61010 0.36270 0.04400
H 	H 	0.63420 0.80570 0.34470 0.07800
H 	H 	0.77180 0.56010 0.33300 0.07400
H 	H 	0.83230 0.60360 0.24970 0.06000
H 	H 	0.83420 0.60590 0.12070 0.10100
H 	H 	0.77390 0.59520 0.04530 0.00000
H 	H 	0.57880 0.56100 0.24700 0.00400
H 	H 	0.64170 0.56620 0.32440 0.10500
H 	H 	0.48190 0.76410 0.77500 0.02600
H 	H 	0.36270 0.84480 0.61010 0.04400
H 	H 	0.34470 0.63420 0.80570 0.07800
H 	H 	0.33300 0.77180 0.56010 0.07400
H 	H 	0.24970 0.83230 0.60360 0.06000
H 	H 	0.12070 0.83420 0.60590 0.10100
H 	H 	0.04530 0.77390 0.59520 0.00000
H 	H 	0.24700 0.57880 0.56100 0.00400
H 	H 	0.32440 0.64170 0.56620 0.10500
C 	C 	0.11956 0.56096 0.37516 0.47200
C 	C 	0.19652 0.58542 0.31022 -0.11500
C 	C 	0.24302 0.55242 0.24272 0.05300
C 	C 	0.31564 0.57144 0.18684 -0.12800
C 	C 	0.34179 0.62339 0.19439 -0.04500
C 	C 	0.29541 0.65551 0.26211 0.12300
C 	C 	0.22384 0.63504 0.32004 -0.05700
C 	C 	0.39530 0.72040 0.22570 -0.10300
C 	C 	0.40670 0.77070 0.25940 0.16300
C 	C 	0.40220 0.85320 0.21830 -0.20500
C 	C 	0.40940 0.89810 0.25440 0.12000
C 	C 	0.42282 0.86272 0.32862 -0.16900
C 	C 	0.42821 0.91161 0.36881 0.35700
C 	C 	0.43030 0.77900 0.36910 0.11000
C 	C 	0.42480 0.73310 0.33230 -0.19700
C 	C 	0.36351 0.53501 0.11741 0.44600
C 	C 	0.37516 0.11956 0.56096 0.47200
C 	C 	0.31022 0.19652 0.58542 -0.11500
C 	C 	0.24272 0.24302 0.55242 0.05300
C 	C 	0.18684 0.31564 0.57144 -0.12800
C 	C 	0.19439 0.34179 0.62339 -0.04500
C 	C 	0.26211 0.29541 0.65551 0.12300
C 	C 	0.32004 0.22384 0.63504 -0.05700
C 	C 	0.22570 0.39530 0.72040 -0.10300
C 	C 	0.25940 0.40670 0.77070 0.16300
C 	C 	0.21830 0.40220 0.85320 -0.20500
C 	C 	0.25440 0.40940 0.89810 0.12000
C 	C 	0.32862 0.42282 0.86272 -0.16900
C 	C 	0.36881 0.42821 0.91161 0.35700
C 	C 	0.36910 0.43030 0.77900 0.11000
C 	C 	0.33230 0.42480 0.73310 -0.19700
C 	C 	0.11741 0.36351 0.53501 0.44600
C 	C 	0.56096 0.37516 0.11956 0.47200
C 	C 	0.58542 0.31022 0.19652 -0.11500
C 	C 	0.55242 0.24272 0.24302 0.05300
C 	C 	0.57144 0.18684 0.31564 -0.12800
C 	C 	0.62339 0.19439 0.34179 -0.04500
C 	C 	0.65551 0.26211 0.29541 0.12300
C 	C 	0.63504 0.32004 0.22384 -0.05700
C 	C 	0.72040 0.22570 0.39530 -0.10300
C 	C 	0.77070 0.25940 0.40670 0.16300
C 	C 	0.85320 0.21830 0.40220 -0.20500
C 	C 	0.89810 0.25440 0.40940 0.12000
C 	C 	0.86272 0.32862 0.42282 -0.16900
C 	C 	0.91161 0.36881 0.42821 0.35700
C 	C 	0.77900 0.36910 0.43030 0.11000
C 	C 	0.73310 0.33230 0.42480 -0.19700
C 	C 	0.53501 0.11741 0.36351 0.44600
C 	C 	0.88044 0.43904 0.62484 0.47200
C 	C 	0.80348 0.41458 0.68978 -0.11500
C 	C 	0.75698 0.44758 0.75728 0.05300
C 	C 	0.68436 0.42856 0.81316 -0.12800
C 	C 	0.65821 0.37661 0.80561 -0.04500
C 	C 	0.70459 0.34449 0.73789 0.12300
C 	C 	0.77616 0.36496 0.67996 -0.05700
C 	C 	0.60470 0.27960 0.77430 -0.10300
C 	C 	0.59330 0.22930 0.74060 0.16300
C 	C 	0.59780 0.14680 0.78170 -0.20500
C 	C 	0.59060 0.10190 0.74560 0.12000
C 	C 	0.57718 0.13728 0.67138 -0.16900
C 	C 	0.57179 0.08839 0.63119 0.35700
C 	C 	0.56970 0.22100 0.63090 0.11000
C 	C 	0.57520 0.26690 0.66770 -0.19700
C 	C 	0.63649 0.46499 0.88259 0.44600
C 	C 	0.62484 0.88044 0.43904 0.47200
C 	C 	0.68978 0.80348 0.41458 -0.11500
C 	C 	0.75728 0.75698 0.44758 0.05300
C 	C 	0.81316 0.68436 0.42856 -0.12800
C 	C 	0.80561 0.65821 0.37661 -0.04500
C 	C 	0.73789 0.70459 0.34449 0.12300
C 	C 	0.67996 0.77616 0.36496 -0.05700
C 	C 	0.77430 0.60470 0.27960 -0.10300
C 	C 	0.74060 0.59330 0.22930 0.16300
C 	C 	0.78170 0.59780 0.14680 -0.20500
C 	C 	0.74560 0.59060 0.10190 0.12000
C 	C 	0.67138 0.57718 0.13728 -0.16900
C 	C 	0.63119 0.57179 0.08839 0.35700
C 	C 	0.63090 0.56970 0.22100 0.11000
C 	C 	0.66770 0.57520 0.26690 -0.19700
C 	C 	0.88259 0.63649 0.46499 0.44600
C 	C 	0.43904 0.62484 0.88044 0.47200
C 	C 	0.41458 0.68978 0.80348 -0.11500
C 	C 	0.44758 0.75728 0.75698 0.05300
C 	C 	0.42856 0.81316 0.68436 -0.12800
C 	C 	0.37661 0.80561 0.65821 -0.04500
C 	C 	0.34449 0.73789 0.70459 0.12300
C 	C 	0.36496 0.67996 0.77616 -0.05700
C 	C 	0.27960 0.77430 0.60470 -0.10300
C 	C 	0.22930 0.74060 0.59330 0.16300
C 	C 	0.14680 0.78170 0.59780 -0.20500
C 	C 	0.10190 0.74560 0.59060 0.12000
C 	C 	0.13728 0.67138 0.57718 -0.16900
C 	C 	0.08839 0.63119 0.57179 0.35700
C 	C 	0.22100 0.63090 0.56970 0.11000
C 	C 	0.26690 0.66770 0.57520 -0.19700
C 	C 	0.46499 0.88259 0.63649 0.44600
O 	O 	0.07871 0.59521 0.43021 -0.47800
O 	O 	0.10472 0.50602 0.36832 -0.51100
O 	O 	0.43792 0.98262 0.32502 -0.42300
O 	O 	0.42128 0.88278 0.44468 -0.43100
O 	O 	0.33639 0.49199 0.10709 -0.46500
O 	O 	0.43322 0.54722 0.07002 -0.54100
O 	O 	0.31635 0.70715 0.27605 -0.18700
O 	O 	0.43021 0.07871 0.59521 -0.47800
O 	O 	0.36832 0.10472 0.50602 -0.51100
O 	O 	0.32502 0.43792 0.98262 -0.42300
O 	O 	0.44468 0.42128 0.88278 -0.43100
O 	O 	0.10709 0.33639 0.49199 -0.46500
O 	O 	0.07002 0.43322 0.54722 -0.54100
O 	O 	0.27605 0.31635 0.70715 -0.18700
O 	O 	0.59521 0.43021 0.07871 -0.47800
O 	O 	0.50602 0.36832 0.10472 -0.51100
O 	O 	0.98262 0.32502 0.43792 -0.42300
O 	O 	0.88278 0.44468 0.42128 -0.43100
O 	O 	0.49199 0.10709 0.33639 -0.46500
O 	O 	0.54722 0.07002 0.43322 -0.54100
O 	O 	0.70715 0.27605 0.31635 -0.18700
O 	O 	0.92129 0.40479 0.56979 -0.47800
O 	O 	0.89528 0.49398 0.63168 -0.51100
O 	O 	0.56208 0.01738 0.67498 -0.42300
O 	O 	0.57872 0.11722 0.55532 -0.43100
O 	O 	0.66361 0.50801 0.89291 -0.46500
O 	O 	0.56678 0.45278 0.92998 -0.54100
O 	O 	0.68365 0.29285 0.72395 -0.18700
O 	O 	0.56979 0.92129 0.40479 -0.47800
O 	O 	0.63168 0.89528 0.49398 -0.51100
O 	O 	0.67498 0.56208 0.01738 -0.42300
O 	O 	0.55532 0.57872 0.11722 -0.43100
O 	O 	0.89291 0.66361 0.50801 -0.46500
O 	O 	0.92998 0.56678 0.45278 -0.54100
O 	O 	0.72395 0.68365 0.29285 -0.18700
O 	O 	0.40479 0.56979 0.92129 -0.47800
O 	O 	0.49398 0.63168 0.89528 -0.51100
O 	O 	0.01738 0.67498 0.56208 -0.42300
O 	O 	0.11722 0.55532 0.57872 -0.43100
O 	O 	0.50801 0.89291 0.66361 -0.46500
O 	O 	0.45278 0.92998 0.56678 -0.54100
O 	O 	0.29285 0.72395 0.68365 -0.18700
