data_crystal

_cell_length_a 19.01200
_cell_length_b 19.01200
_cell_length_c 19.01200
_cell_angle_alpha 62.95870
_cell_angle_beta  62.95870
_cell_angle_gamma 62.95870

_symmetry_space_group_name_	'P 1'
_symmetry_space_group_name_H-M	'P 1'

loop_
_symmetry_equiv_pos_as_xyz
  x,y,z

loop_
_atom_site_label
_atom_site_type_symbol
_atom_site_fract_x
_atom_site_fract_y
_atom_site_fract_z
_atom_site_charge
Tb	Tb	0.50435 0.94053 0.93305 1.79700
Tb	Tb	0.93305 0.50435 0.94053 1.79700
Tb	Tb	0.94053 0.93305 0.50435 1.79700
Tb	Tb	0.49565 0.05947 0.06695 1.79700
Tb	Tb	0.06695 0.49565 0.05947 1.79700
Tb	Tb	0.05947 0.06695 0.49565 1.79700
H 	H 	0.27340 0.98350 0.26260 0.02300
H 	H 	0.10800 0.86720 0.34240 0.03600
H 	H 	0.30200 0.84770 0.13400 0.07500
H 	H 	0.10710 0.62700 0.33060 0.09400
H 	H 	0.08490 0.55160 0.27610 0.00200
H 	H 	0.05780 0.74900 0.08120 0.00200
H 	H 	0.06750 0.82540 0.14000 0.12300
H 	H 	0.06010 0.80890 0.30850 0.07900
H 	H 	0.13660 0.72790 0.32320 0.06700
H 	H 	0.26260 0.27340 0.98350 0.02300
H 	H 	0.34240 0.10800 0.86720 0.03600
H 	H 	0.13400 0.30200 0.84770 0.07500
H 	H 	0.33060 0.10710 0.62700 0.09400
H 	H 	0.27610 0.08490 0.55160 0.00200
H 	H 	0.08120 0.05780 0.74900 0.00200
H 	H 	0.14000 0.06750 0.82540 0.12300
H 	H 	0.30850 0.06010 0.80890 0.07900
H 	H 	0.32320 0.13660 0.72790 0.06700
H 	H 	0.98350 0.26260 0.27340 0.02300
H 	H 	0.86720 0.34240 0.10800 0.03600
H 	H 	0.84770 0.13400 0.30200 0.07500
H 	H 	0.62700 0.33060 0.10710 0.09400
H 	H 	0.55160 0.27610 0.08490 0.00200
H 	H 	0.74900 0.08120 0.05780 0.00200
H 	H 	0.82540 0.14000 0.06750 0.12300
H 	H 	0.80890 0.30850 0.06010 0.07900
H 	H 	0.72790 0.32320 0.13660 0.06700
H 	H 	0.72660 0.01650 0.73740 0.02300
H 	H 	0.89200 0.13280 0.65760 0.03600
H 	H 	0.69800 0.15230 0.86600 0.07500
H 	H 	0.89290 0.37300 0.66940 0.09400
H 	H 	0.91510 0.44840 0.72390 0.00200
H 	H 	0.94220 0.25100 0.91880 0.00200
H 	H 	0.93250 0.17460 0.86000 0.12300
H 	H 	0.93990 0.19110 0.69150 0.07900
H 	H 	0.86340 0.27210 0.67680 0.06700
H 	H 	0.73740 0.72660 0.01650 0.02300
H 	H 	0.65760 0.89200 0.13280 0.03600
H 	H 	0.86600 0.69800 0.15230 0.07500
H 	H 	0.66940 0.89290 0.37300 0.09400
H 	H 	0.72390 0.91510 0.44840 0.00200
H 	H 	0.91880 0.94220 0.25100 0.00200
H 	H 	0.86000 0.93250 0.17460 0.12300
H 	H 	0.69150 0.93990 0.19110 0.07900
H 	H 	0.67680 0.86340 0.27210 0.06700
H 	H 	0.01650 0.73740 0.72660 0.02300
H 	H 	0.13280 0.65760 0.89200 0.03600
H 	H 	0.15230 0.86600 0.69800 0.07500
H 	H 	0.37300 0.66940 0.89290 0.09400
H 	H 	0.44840 0.72390 0.91510 0.00200
H 	H 	0.25100 0.91880 0.94220 0.00200
H 	H 	0.17460 0.86000 0.93250 0.12300
H 	H 	0.19110 0.69150 0.93990 0.07900
H 	H 	0.27210 0.67680 0.86340 0.06700
C 	C 	0.37940 0.93980 0.12470 0.46600
C 	C 	0.30144 0.91654 0.18944 -0.11400
C 	C 	0.25570 0.94910 0.25650 0.05400
C 	C 	0.18439 0.92949 0.31289 -0.13400
C 	C 	0.15640 0.87980 0.30420 -0.03400
C 	C 	0.20210 0.84870 0.23680 0.10600
C 	C 	0.27330 0.86770 0.17930 -0.05100
C 	C 	0.09090 0.73460 0.23770 0.18300
C 	C 	0.09630 0.65240 0.28000 -0.20200
C 	C 	0.08560 0.60600 0.24590 0.10400
C 	C 	0.07650 0.64210 0.16910 -0.17200
C 	C 	0.06830 0.72280 0.13200 0.13000
C 	C 	0.07470 0.76900 0.16730 -0.22500
C 	C 	0.13719 0.96539 0.38209 0.44700
C 	C 	0.07120 0.59080 0.13150 0.35700
C 	C 	0.10990 0.77110 0.28210 -0.13600
C 	C 	0.12470 0.37940 0.93980 0.46600
C 	C 	0.18944 0.30144 0.91654 -0.11400
C 	C 	0.25650 0.25570 0.94910 0.05400
C 	C 	0.31289 0.18439 0.92949 -0.13400
C 	C 	0.30420 0.15640 0.87980 -0.03400
C 	C 	0.23680 0.20210 0.84870 0.10600
C 	C 	0.17930 0.27330 0.86770 -0.05100
C 	C 	0.23770 0.09090 0.73460 0.18300
C 	C 	0.28000 0.09630 0.65240 -0.20200
C 	C 	0.24590 0.08560 0.60600 0.10400
C 	C 	0.16910 0.07650 0.64210 -0.17200
C 	C 	0.13200 0.06830 0.72280 0.13000
C 	C 	0.16730 0.07470 0.76900 -0.22500
C 	C 	0.38209 0.13719 0.96539 0.44700
C 	C 	0.13150 0.07120 0.59080 0.35700
C 	C 	0.28210 0.10990 0.77110 -0.13600
C 	C 	0.93980 0.12470 0.37940 0.46600
C 	C 	0.91654 0.18944 0.30144 -0.11400
C 	C 	0.94910 0.25650 0.25570 0.05400
C 	C 	0.92949 0.31289 0.18439 -0.13400
C 	C 	0.87980 0.30420 0.15640 -0.03400
C 	C 	0.84870 0.23680 0.20210 0.10600
C 	C 	0.86770 0.17930 0.27330 -0.05100
C 	C 	0.73460 0.23770 0.09090 0.18300
C 	C 	0.65240 0.28000 0.09630 -0.20200
C 	C 	0.60600 0.24590 0.08560 0.10400
C 	C 	0.64210 0.16910 0.07650 -0.17200
C 	C 	0.72280 0.13200 0.06830 0.13000
C 	C 	0.76900 0.16730 0.07470 -0.22500
C 	C 	0.96539 0.38209 0.13719 0.44700
C 	C 	0.59080 0.13150 0.07120 0.35700
C 	C 	0.77110 0.28210 0.10990 -0.13600
C 	C 	0.62060 0.06020 0.87530 0.46600
C 	C 	0.69856 0.08346 0.81056 -0.11400
C 	C 	0.74430 0.05090 0.74350 0.05400
C 	C 	0.81561 0.07051 0.68711 -0.13400
C 	C 	0.84360 0.12020 0.69580 -0.03400
C 	C 	0.79790 0.15130 0.76320 0.10600
C 	C 	0.72670 0.13230 0.82070 -0.05100
C 	C 	0.90910 0.26540 0.76230 0.18300
C 	C 	0.90370 0.34760 0.72000 -0.20200
C 	C 	0.91440 0.39400 0.75410 0.10400
C 	C 	0.92350 0.35790 0.83090 -0.17200
C 	C 	0.93170 0.27720 0.86800 0.13000
C 	C 	0.92530 0.23100 0.83270 -0.22500
C 	C 	0.86281 0.03461 0.61791 0.44700
C 	C 	0.92880 0.40920 0.86850 0.35700
C 	C 	0.89010 0.22890 0.71790 -0.13600
C 	C 	0.87530 0.62060 0.06020 0.46600
C 	C 	0.81056 0.69856 0.08346 -0.11400
C 	C 	0.74350 0.74430 0.05090 0.05400
C 	C 	0.68711 0.81561 0.07051 -0.13400
C 	C 	0.69580 0.84360 0.12020 -0.03400
C 	C 	0.76320 0.79790 0.15130 0.10600
C 	C 	0.82070 0.72670 0.13230 -0.05100
C 	C 	0.76230 0.90910 0.26540 0.18300
C 	C 	0.72000 0.90370 0.34760 -0.20200
C 	C 	0.75410 0.91440 0.39400 0.10400
C 	C 	0.83090 0.92350 0.35790 -0.17200
C 	C 	0.86800 0.93170 0.27720 0.13000
C 	C 	0.83270 0.92530 0.23100 -0.22500
C 	C 	0.61791 0.86281 0.03461 0.44700
C 	C 	0.86850 0.92880 0.40920 0.35700
C 	C 	0.71790 0.89010 0.22890 -0.13600
C 	C 	0.06020 0.87530 0.62060 0.46600
C 	C 	0.08346 0.81056 0.69856 -0.11400
C 	C 	0.05090 0.74350 0.74430 0.05400
C 	C 	0.07051 0.68711 0.81561 -0.13400
C 	C 	0.12020 0.69580 0.84360 -0.03400
C 	C 	0.15130 0.76320 0.79790 0.10600
C 	C 	0.13230 0.82070 0.72670 -0.05100
C 	C 	0.26540 0.76230 0.90910 0.18300
C 	C 	0.34760 0.72000 0.90370 -0.20200
C 	C 	0.39400 0.75410 0.91440 0.10400
C 	C 	0.35790 0.83090 0.92350 -0.17200
C 	C 	0.27720 0.86800 0.93170 0.13000
C 	C 	0.23100 0.83270 0.92530 -0.22500
C 	C 	0.03461 0.61791 0.86281 0.44700
C 	C 	0.40920 0.86850 0.92880 0.35700
C 	C 	0.22890 0.71790 0.89010 -0.13600
O 	O 	0.41983 0.90543 0.07013 -0.48100
O 	O 	0.39545 0.99275 0.13235 -0.51900
O 	O 	0.16515 0.00735 0.39275 -0.47800
O 	O 	0.06798 0.95458 0.42878 -0.55000
O 	O 	0.07808 0.61858 0.05658 -0.43900
O 	O 	0.06141 0.52031 0.17521 -0.43500
O 	O 	0.16920 0.81710 0.20830 -0.17500
O 	O 	0.07013 0.41983 0.90543 -0.48100
O 	O 	0.13235 0.39545 0.99275 -0.51900
O 	O 	0.39275 0.16515 0.00735 -0.47800
O 	O 	0.42878 0.06798 0.95458 -0.55000
O 	O 	0.05658 0.07808 0.61858 -0.43900
O 	O 	0.17521 0.06141 0.52031 -0.43500
O 	O 	0.20830 0.16920 0.81710 -0.17500
O 	O 	0.90543 0.07013 0.41983 -0.48100
O 	O 	0.99275 0.13235 0.39545 -0.51900
O 	O 	0.00735 0.39275 0.16515 -0.47800
O 	O 	0.95458 0.42878 0.06798 -0.55000
O 	O 	0.61858 0.05658 0.07808 -0.43900
O 	O 	0.52031 0.17521 0.06141 -0.43500
O 	O 	0.81710 0.20830 0.16920 -0.17500
O 	O 	0.58017 0.09457 0.92987 -0.48100
O 	O 	0.60455 0.00725 0.86765 -0.51900
O 	O 	0.83485 0.99265 0.60725 -0.47800
O 	O 	0.93202 0.04542 0.57122 -0.55000
O 	O 	0.92192 0.38142 0.94342 -0.43900
O 	O 	0.93859 0.47969 0.82479 -0.43500
O 	O 	0.83080 0.18290 0.79170 -0.17500
O 	O 	0.92987 0.58017 0.09457 -0.48100
O 	O 	0.86765 0.60455 0.00725 -0.51900
O 	O 	0.60725 0.83485 0.99265 -0.47800
O 	O 	0.57122 0.93202 0.04542 -0.55000
O 	O 	0.94342 0.92192 0.38142 -0.43900
O 	O 	0.82479 0.93859 0.47969 -0.43500
O 	O 	0.79170 0.83080 0.18290 -0.17500
O 	O 	0.09457 0.92987 0.58017 -0.48100
O 	O 	0.00725 0.86765 0.60455 -0.51900
O 	O 	0.99265 0.60725 0.83485 -0.47800
O 	O 	0.04542 0.57122 0.93202 -0.55000
O 	O 	0.38142 0.94342 0.92192 -0.43900
O 	O 	0.47969 0.82479 0.93859 -0.43500
O 	O 	0.18290 0.79170 0.83080 -0.17500
