data_crystal

_cell_length_a 13.80000
_cell_length_b 13.80000
_cell_length_c 14.82500
_cell_angle_alpha 90.00000
_cell_angle_beta  90.00000
_cell_angle_gamma 120.00000

_symmetry_space_group_name_	'P 1'
_symmetry_space_group_name_H-M	'P 1'

loop_
_symmetry_equiv_pos_as_xyz
  x,y,z

loop_
_atom_site_label
_atom_site_type_symbol
_atom_site_fract_x
_atom_site_fract_y
_atom_site_fract_z
_atom_site_charge
Al	Al	0.99590 0.22500 0.10240 2.39300
P 	P 	0.99500 0.22300 0.88900 0.84900
O 	O 	0.99470 0.25360 0.98710 -0.83200
O 	O 	0.88380 0.12300 0.86300 -0.78400
O 	O 	0.08620 0.19400 0.87170 -0.83700
O 	O 	0.01270 0.32010 0.82970 -0.78400
Al	Al	0.66257 0.55833 0.43573 2.39500
P 	P 	0.66167 0.55633 0.22233 0.84000
O 	O 	0.66137 0.58693 0.32043 -0.83800
O 	O 	0.55047 0.45633 0.19633 -0.78800
O 	O 	0.75287 0.52733 0.20503 -0.83200
O 	O 	0.67937 0.65343 0.16303 -0.77700
Al	Al	0.32923 0.89167 0.76907 2.39500
P 	P 	0.32833 0.88967 0.55567 0.84000
O 	O 	0.32803 0.92027 0.65377 -0.83900
O 	O 	0.21713 0.78967 0.52967 -0.78700
O 	O 	0.41953 0.86067 0.53837 -0.83000
O 	O 	0.34603 0.98677 0.49637 -0.77600
Al	Al	0.77500 0.77090 0.10240 2.39500
P 	P 	0.77700 0.77200 0.88900 0.84000
O 	O 	0.74640 0.74110 0.98710 -0.83900
O 	O 	0.87700 0.76080 0.86300 -0.78600
O 	O 	0.80600 0.89220 0.87170 -0.83200
O 	O 	0.67990 0.69260 0.82970 -0.77700
Al	Al	0.44167 0.10423 0.43573 2.39500
P 	P 	0.44367 0.10533 0.22233 0.84000
O 	O 	0.41307 0.07443 0.32043 -0.83900
O 	O 	0.54367 0.09413 0.19633 -0.78900
O 	O 	0.47267 0.22553 0.20503 -0.83200
O 	O 	0.34657 0.02593 0.16303 -0.77900
Al	Al	0.10833 0.43757 0.76907 2.39500
P 	P 	0.11033 0.43867 0.55567 0.84000
O 	O 	0.07973 0.40777 0.65377 -0.83900
O 	O 	0.21033 0.42747 0.52967 -0.78700
O 	O 	0.13933 0.55887 0.53837 -0.83000
O 	O 	0.01323 0.35927 0.49637 -0.77600
Al	Al	0.22910 0.00410 0.10240 2.39400
P 	P 	0.22800 0.00500 0.88900 0.85000
O 	O 	0.25890 0.00530 0.98710 -0.83700
O 	O 	0.23920 0.11620 0.86300 -0.78800
O 	O 	0.10780 0.91380 0.87170 -0.84100
O 	O 	0.30740 0.98730 0.82970 -0.78400
Al	Al	0.89577 0.33743 0.43573 2.39500
P 	P 	0.89467 0.33833 0.22233 0.84000
O 	O 	0.92557 0.33863 0.32043 -0.83900
O 	O 	0.90587 0.44953 0.19633 -0.79000
O 	O 	0.77447 0.24713 0.20503 -0.83200
O 	O 	0.97407 0.32063 0.16303 -0.78100
Al	Al	0.56243 0.67077 0.76907 2.39500
P 	P 	0.56133 0.67167 0.55567 0.84000
O 	O 	0.59223 0.67197 0.65377 -0.83800
O 	O 	0.57253 0.78287 0.52967 -0.78700
O 	O 	0.44113 0.58047 0.53837 -0.83100
O 	O 	0.64073 0.65397 0.49637 -0.77700
Al	Al	0.00410 0.77500 0.89760 2.39400
P 	P 	0.00500 0.77700 0.11100 0.85000
O 	O 	0.00530 0.74640 0.01290 -0.83100
O 	O 	0.11620 0.87700 0.13700 -0.78300
O 	O 	0.91380 0.80600 0.12830 -0.83600
O 	O 	0.98730 0.67990 0.17030 -0.78300
Al	Al	0.67077 0.10833 0.23093 2.39500
P 	P 	0.67167 0.11033 0.44433 0.84000
O 	O 	0.67197 0.07973 0.34623 -0.83900
O 	O 	0.78287 0.21033 0.47033 -0.78700
O 	O 	0.58047 0.13933 0.46163 -0.83000
O 	O 	0.65397 0.01323 0.50363 -0.77600
Al	Al	0.33743 0.44167 0.56427 2.39500
P 	P 	0.33833 0.44367 0.77767 0.84000
O 	O 	0.33863 0.41307 0.67957 -0.83800
O 	O 	0.44953 0.54367 0.80367 -0.78800
O 	O 	0.24713 0.47267 0.79497 -0.83200
O 	O 	0.32063 0.34657 0.83697 -0.77700
Al	Al	0.22500 0.22910 0.89760 2.39500
P 	P 	0.22300 0.22800 0.11100 0.84000
O 	O 	0.25360 0.25890 0.01290 -0.83900
O 	O 	0.12300 0.23920 0.13700 -0.78600
O 	O 	0.19400 0.10780 0.12830 -0.83200
O 	O 	0.32010 0.30740 0.17030 -0.77700
Al	Al	0.89167 0.56243 0.23093 2.39500
P 	P 	0.88967 0.56133 0.44433 0.84000
O 	O 	0.92027 0.59223 0.34623 -0.83900
O 	O 	0.78967 0.57253 0.47033 -0.78700
O 	O 	0.86067 0.44113 0.46163 -0.83000
O 	O 	0.98677 0.64073 0.50363 -0.77600
Al	Al	0.55833 0.89577 0.56427 2.39500
P 	P 	0.55633 0.89467 0.77767 0.84000
O 	O 	0.58693 0.92557 0.67957 -0.83900
O 	O 	0.45633 0.90587 0.80367 -0.78900
O 	O 	0.52733 0.77447 0.79497 -0.83200
O 	O 	0.65343 0.97407 0.83697 -0.77900
Al	Al	0.77090 0.99590 0.89760 2.39400
P 	P 	0.77200 0.99500 0.11100 0.85000
O 	O 	0.74110 0.99470 0.01290 -0.83700
O 	O 	0.76080 0.88380 0.13700 -0.78800
O 	O 	0.89220 0.08620 0.12830 -0.84100
O 	O 	0.69260 0.01270 0.17030 -0.78400
Al	Al	0.43757 0.32923 0.23093 2.39500
P 	P 	0.43867 0.32833 0.44433 0.84000
O 	O 	0.40777 0.32803 0.34623 -0.83800
O 	O 	0.42747 0.21713 0.47033 -0.78700
O 	O 	0.55887 0.41953 0.46163 -0.83100
O 	O 	0.35927 0.34603 0.50363 -0.77700
Al	Al	0.10423 0.66257 0.56427 2.39500
P 	P 	0.10533 0.66167 0.77767 0.84000
O 	O 	0.07443 0.66137 0.67957 -0.83900
O 	O 	0.09413 0.55047 0.80367 -0.79000
O 	O 	0.22553 0.75287 0.79497 -0.83200
O 	O 	0.02593 0.67937 0.83697 -0.78100
