data_crystal

_cell_length_a 16.63040
_cell_length_b 12.42360
_cell_length_c 21.11030
_cell_angle_alpha 90.00000
_cell_angle_beta  92.09900
_cell_angle_gamma 90.00000

_symmetry_space_group_name_	'P 1'
_symmetry_space_group_name_H-M	'P 1'

loop_
_symmetry_equiv_pos_as_xyz
  x,y,z

loop_
_atom_site_label
_atom_site_type_symbol
_atom_site_fract_x
_atom_site_fract_y
_atom_site_fract_z
_atom_site_charge
Cu	Cu	0.14678 0.26485 0.45167 0.91900
Cu	Cu	0.63868 0.78172 0.43907 0.91600
S 	S 	0.91056 0.03513 0.44861 0.07400
S 	S 	0.41821 0.52690 0.44184 0.07100
O 	O 	0.55243 0.67510 0.42346 -0.37100
O 	O 	0.05481 0.16476 0.43887 -0.36800
O 	O 	0.20159 0.40200 0.43667 -0.39300
O 	O 	0.69182 0.92140 0.42529 -0.39000
O 	O 	0.79984 0.85940 0.48009 -0.38000
O 	O 	0.31558 0.34850 0.48681 -0.36400
O 	O 	0.00566 0.28640 0.36966 -0.30300
O 	O 	0.49143 0.78190 0.35054 -0.29400
N 	N 	0.93625 0.46180 0.19508 -0.17600
H 	H 	0.95940 0.40452 0.18187 0.15300
N 	N 	0.07985 0.65970 0.01334 -0.21000
N 	N 	0.70410 0.71500 0.37115 -0.21200
N 	N 	0.20457 0.19570 0.38026 -0.21100
N 	N 	0.59033 0.17170 0.02649 -0.20900
N 	N 	0.90329 0.63190 0.20244 -0.13500
N 	N 	0.42839 0.95890 0.19092 -0.17600
H 	H 	0.44996 0.90276 0.17480 0.15600
N 	N 	0.88347 0.46520 0.24285 -0.08000
N 	N 	0.37400 0.95730 0.23703 -0.08000
N 	N 	0.40105 0.12860 0.20748 -0.13400
C 	C 	0.76590 0.92560 0.44461 0.35200
C 	C 	0.35946 0.06180 0.24511 0.08900
C 	C 	0.30243 0.10390 0.29057 0.05900
C 	C 	0.86561 0.56990 0.24491 0.09000
C 	C 	0.99587 0.59150 0.11807 0.04600
C 	C 	0.94677 0.56130 0.17160 0.11800
C 	C 	0.27690 0.40950 0.45141 0.35600
C 	C 	0.44385 0.06080 0.17395 0.11700
C 	C 	0.80850 0.61700 0.28866 0.06000
C 	C 	0.49820 0.09530 0.12442 0.05100
C 	C 	0.27030 0.04110 0.33802 -0.12400
H 	H 	0.28106 0.96768 0.34034 0.08300
C 	C 	0.92330 0.14240 0.39865 -0.08000
C 	C 	0.22170 0.09010 0.38196 0.07400
H 	H 	0.20024 0.04816 0.41368 0.01400
C 	C 	0.00020 0.20320 0.40166 0.32000
C 	C 	0.71590 0.60850 0.37207 0.07500
H 	H 	0.68830 0.56728 0.40094 0.01400
C 	C 	0.41970 0.63560 0.39160 -0.07800
C 	C 	0.49350 0.70350 0.38703 0.31800
C 	C 	0.76740 0.55690 0.33201 -0.12700
H 	H 	0.77430 0.48271 0.33423 0.08400
C 	C 	0.04430 0.52060 0.08571 -0.12300
H 	H 	0.04931 0.44928 0.09860 0.08600
C 	C 	0.79380 0.72780 0.28546 -0.12800
H 	H 	0.81884 0.77028 0.25572 0.08600
C 	C 	0.31902 0.50130 0.42176 -0.09500
C 	C 	0.28040 0.21180 0.28709 -0.12600
H 	H 	0.29812 0.25497 0.25440 0.08500
C 	C 	0.08500 0.55770 0.03402 0.07200
H 	H 	0.11730 0.50981 0.01265 0.01400
C 	C 	0.81378 0.01630 0.41970 -0.09700
C 	C 	0.74170 0.77280 0.32706 0.07700
H 	H 	0.73199 0.84644 0.32466 0.01400
C 	C 	0.23220 0.25410 0.33252 0.07900
H 	H 	0.21827 0.32646 0.32988 0.01500
C 	C 	0.85570 0.16160 0.36130 -0.01900
H 	H 	0.85173 0.21621 0.33120 0.05300
C 	C 	0.58350 0.06650 0.03736 0.07500
H 	H 	0.61014 0.01880 0.01145 0.01400
C 	C 	0.34670 0.65150 0.36100 -0.01900
H 	H 	0.33609 0.70703 0.33234 0.05200
C 	C 	0.53820 0.02490 0.08568 -0.12800
H 	H 	0.53487 0.95097 0.09191 0.09200
C 	C 	0.79250 0.08900 0.37367 -0.00600
H 	H 	0.74233 0.09073 0.35281 0.05100
C 	C 	0.99190 0.69800 0.09758 -0.11400
H 	H 	0.96107 0.74797 0.11878 0.08300
C 	C 	0.03410 0.72860 0.04562 0.06800
H 	H 	0.03079 0.79988 0.03224 0.02100
C 	C 	0.28930 0.57390 0.37802 -0.00700
H 	H 	0.23680 0.57227 0.36128 0.05200
C 	C 	0.55450 0.23990 0.06630 0.07300
H 	H 	0.56115 0.31356 0.06050 0.01800
C 	C 	0.50860 0.20480 0.11512 -0.12000
H 	H 	0.48461 0.25419 0.14165 0.08500
Cu	Cu	0.35322 0.76485 0.04833 0.92000
Cu	Cu	0.86132 0.28172 0.06093 0.91700
S 	S 	0.58944 0.53513 0.05139 0.07500
S 	S 	0.08179 0.02690 0.05816 0.07200
O 	O 	0.94757 0.17510 0.07654 -0.37100
O 	O 	0.44519 0.66476 0.06113 -0.36800
O 	O 	0.29841 0.90200 0.06333 -0.39300
O 	O 	0.80818 0.42140 0.07471 -0.39000
O 	O 	0.70016 0.35940 0.01991 -0.38000
O 	O 	0.18442 0.84850 0.01319 -0.36400
O 	O 	0.49434 0.78640 0.13034 -0.30300
O 	O 	0.00857 0.28190 0.14946 -0.29400
N 	N 	0.56375 0.96180 0.30492 -0.17600
H 	H 	0.54060 0.90452 0.31813 0.15300
N 	N 	0.42015 0.15970 0.48666 -0.21000
N 	N 	0.79590 0.21500 0.12885 -0.21200
N 	N 	0.29543 0.69570 0.11974 -0.21100
N 	N 	0.90967 0.67170 0.47351 -0.20900
N 	N 	0.59671 0.13190 0.29756 -0.13500
N 	N 	0.07161 0.45890 0.30908 -0.17600
H 	H 	0.05004 0.40276 0.32520 0.15600
N 	N 	0.61653 0.96520 0.25715 -0.08100
N 	N 	0.12600 0.45730 0.26297 -0.08000
N 	N 	0.09895 0.62860 0.29252 -0.13400
C 	C 	0.73410 0.42560 0.05539 0.35200
C 	C 	0.14054 0.56180 0.25489 0.08900
C 	C 	0.19757 0.60390 0.20943 0.06000
C 	C 	0.63439 0.06990 0.25509 0.09000
C 	C 	0.50413 0.09150 0.38193 0.04600
C 	C 	0.55323 0.06130 0.32840 0.11800
C 	C 	0.22310 0.90950 0.04859 0.35500
C 	C 	0.05615 0.56080 0.32605 0.11600
C 	C 	0.69150 0.11700 0.21134 0.06000
C 	C 	0.00180 0.59530 0.37558 0.05200
C 	C 	0.22970 0.54110 0.16198 -0.12400
H 	H 	0.21894 0.46768 0.15966 0.08300
C 	C 	0.57670 0.64240 0.10135 -0.08000
C 	C 	0.27830 0.59010 0.11804 0.07400
H 	H 	0.29976 0.54816 0.08632 0.01400
C 	C 	0.49980 0.70320 0.09834 0.32100
C 	C 	0.78410 0.10850 0.12793 0.07500
H 	H 	0.81170 0.06728 0.09906 0.01400
C 	C 	0.08030 0.13560 0.10840 -0.07800
C 	C 	0.00650 0.20350 0.11297 0.31800
C 	C 	0.73260 0.05690 0.16799 -0.12600
H 	H 	0.72570 0.98271 0.16577 0.08400
C 	C 	0.45570 0.02060 0.41429 -0.12400
H 	H 	0.45069 0.94928 0.40140 0.08600
C 	C 	0.70620 0.22780 0.21454 -0.12800
H 	H 	0.68116 0.27028 0.24428 0.08600
C 	C 	0.18098 0.00130 0.07824 -0.09500
C 	C 	0.21960 0.71180 0.21291 -0.12600
H 	H 	0.20188 0.75497 0.24560 0.08500
C 	C 	0.41500 0.05770 0.46598 0.07200
H 	H 	0.38270 0.00981 0.48735 0.01400
C 	C 	0.68622 0.51630 0.08030 -0.09800
C 	C 	0.75830 0.27280 0.17294 0.07700
H 	H 	0.76801 0.34644 0.17534 0.01400
C 	C 	0.26780 0.75410 0.16748 0.07900
H 	H 	0.28173 0.82646 0.17012 0.01500
C 	C 	0.64430 0.66160 0.13870 -0.01900
H 	H 	0.64827 0.71621 0.16880 0.05300
C 	C 	0.91650 0.56650 0.46264 0.07600
H 	H 	0.88986 0.51880 0.48855 0.01400
C 	C 	0.15330 0.15150 0.13900 -0.01900
H 	H 	0.16391 0.20703 0.16766 0.05200
C 	C 	0.96180 0.52490 0.41432 -0.12800
H 	H 	0.96513 0.45097 0.40809 0.09200
C 	C 	0.70750 0.58900 0.12633 -0.00600
H 	H 	0.75767 0.59073 0.14719 0.05100
C 	C 	0.50810 0.19800 0.40242 -0.11400
H 	H 	0.53893 0.24797 0.38122 0.08300
C 	C 	0.46590 0.22860 0.45438 0.06800
H 	H 	0.46921 0.29988 0.46776 0.02100
C 	C 	0.21070 0.07390 0.12198 -0.00700
H 	H 	0.26320 0.07227 0.13872 0.05200
C 	C 	0.94550 0.73990 0.43370 0.07300
H 	H 	0.93885 0.81356 0.43950 0.01800
C 	C 	0.99140 0.70480 0.38488 -0.12000
H 	H 	0.01539 0.75419 0.35835 0.08500
Cu	Cu	0.85322 0.73515 0.54833 0.92000
Cu	Cu	0.36132 0.21828 0.56093 0.91700
S 	S 	0.08944 0.96487 0.55139 0.07500
S 	S 	0.58179 0.47310 0.55816 0.07200
O 	O 	0.44757 0.32490 0.57654 -0.37100
O 	O 	0.94519 0.83524 0.56113 -0.36800
O 	O 	0.79841 0.59800 0.56333 -0.39300
O 	O 	0.30818 0.07860 0.57471 -0.39000
O 	O 	0.20016 0.14060 0.51991 -0.38000
O 	O 	0.68442 0.65150 0.51319 -0.36400
O 	O 	0.99434 0.71360 0.63034 -0.30300
O 	O 	0.50857 0.21810 0.64946 -0.29400
N 	N 	0.06375 0.53820 0.80492 -0.17600
H 	H 	0.04060 0.59548 0.81813 0.15300
N 	N 	0.92015 0.34030 0.98666 -0.21000
N 	N 	0.29590 0.28500 0.62885 -0.21200
N 	N 	0.79543 0.80430 0.61974 -0.21100
N 	N 	0.40967 0.82830 0.97351 -0.20900
N 	N 	0.09671 0.36810 0.79756 -0.13500
N 	N 	0.57161 0.04110 0.80908 -0.17600
H 	H 	0.55004 0.09724 0.82520 0.15600
N 	N 	0.11653 0.53480 0.75715 -0.08000
N 	N 	0.62600 0.04270 0.76297 -0.08000
N 	N 	0.59895 0.87140 0.79252 -0.13400
C 	C 	0.23410 0.07440 0.55539 0.35200
C 	C 	0.64054 0.93820 0.75489 0.08900
C 	C 	0.69757 0.89610 0.70943 0.05900
C 	C 	0.13439 0.43010 0.75509 0.09000
C 	C 	0.00413 0.40850 0.88193 0.04600
C 	C 	0.05323 0.43870 0.82840 0.11800
C 	C 	0.72310 0.59050 0.54859 0.35600
C 	C 	0.55615 0.93920 0.82605 0.11700
C 	C 	0.19150 0.38300 0.71134 0.06000
C 	C 	0.50180 0.90470 0.87558 0.05100
C 	C 	0.72970 0.95890 0.66198 -0.12400
H 	H 	0.71894 0.03232 0.65966 0.08300
C 	C 	0.07670 0.85760 0.60135 -0.08000
C 	C 	0.77830 0.90990 0.61804 0.07400
H 	H 	0.79976 0.95184 0.58632 0.01400
C 	C 	0.99980 0.79680 0.59834 0.32000
C 	C 	0.28410 0.39150 0.62793 0.07500
H 	H 	0.31170 0.43272 0.59906 0.01400
C 	C 	0.58030 0.36440 0.60840 -0.07800
C 	C 	0.50650 0.29650 0.61297 0.31800
C 	C 	0.23260 0.44310 0.66799 -0.12700
H 	H 	0.22570 0.51729 0.66577 0.08400
C 	C 	0.95570 0.47940 0.91429 -0.12300
H 	H 	0.95069 0.55072 0.90140 0.08600
C 	C 	0.20620 0.27220 0.71454 -0.12800
H 	H 	0.18116 0.22972 0.74428 0.08600
C 	C 	0.68098 0.49870 0.57824 -0.09500
C 	C 	0.71960 0.78820 0.71291 -0.12600
H 	H 	0.70188 0.74503 0.74560 0.08500
C 	C 	0.91500 0.44230 0.96598 0.07200
H 	H 	0.88270 0.49019 0.98735 0.01400
C 	C 	0.18622 0.98370 0.58030 -0.09700
C 	C 	0.25830 0.22720 0.67294 0.07700
H 	H 	0.26801 0.15356 0.67534 0.01400
C 	C 	0.76780 0.74590 0.66748 0.07900
H 	H 	0.78173 0.67354 0.67012 0.01500
C 	C 	0.14430 0.83840 0.63870 -0.01900
H 	H 	0.14827 0.78379 0.66880 0.05300
C 	C 	0.41650 0.93350 0.96264 0.07500
H 	H 	0.38986 0.98120 0.98855 0.01400
C 	C 	0.65330 0.34850 0.63900 -0.01900
H 	H 	0.66391 0.29297 0.66766 0.05200
C 	C 	0.46180 0.97510 0.91432 -0.12800
H 	H 	0.46513 0.04903 0.90809 0.09200
C 	C 	0.20750 0.91100 0.62633 -0.00600
H 	H 	0.25767 0.90927 0.64719 0.05100
C 	C 	0.00810 0.30200 0.90242 -0.11400
H 	H 	0.03893 0.25203 0.88122 0.08300
C 	C 	0.96590 0.27140 0.95438 0.06800
H 	H 	0.96921 0.20012 0.96776 0.02100
C 	C 	0.71070 0.42610 0.62198 -0.00700
H 	H 	0.76320 0.42773 0.63872 0.05200
C 	C 	0.44550 0.76010 0.93370 0.07300
H 	H 	0.43885 0.68644 0.93950 0.01800
C 	C 	0.49140 0.79520 0.88488 -0.12000
H 	H 	0.51539 0.74581 0.85835 0.08500
Cu	Cu	0.64678 0.23515 0.95167 0.92000
Cu	Cu	0.13868 0.71828 0.93907 0.91700
S 	S 	0.41056 0.46487 0.94861 0.07500
S 	S 	0.91821 0.97310 0.94184 0.07200
O 	O 	0.05243 0.82490 0.92346 -0.37100
O 	O 	0.55481 0.33524 0.93887 -0.36800
O 	O 	0.70159 0.09800 0.93667 -0.39300
O 	O 	0.19182 0.57860 0.92529 -0.39000
O 	O 	0.29984 0.64060 0.98009 -0.38000
O 	O 	0.81558 0.15150 0.98681 -0.36400
O 	O 	0.50566 0.21360 0.86966 -0.30300
O 	O 	0.99143 0.71810 0.85054 -0.29400
N 	N 	0.43625 0.03820 0.69508 -0.17600
H 	H 	0.45940 0.09548 0.68187 0.15300
N 	N 	0.57985 0.84030 0.51334 -0.21000
N 	N 	0.20410 0.78500 0.87115 -0.21200
N 	N 	0.70457 0.30430 0.88026 -0.21100
N 	N 	0.09033 0.32830 0.52649 -0.20900
N 	N 	0.40329 0.86810 0.70244 -0.13500
N 	N 	0.92839 0.54110 0.69092 -0.17600
H 	H 	0.94996 0.59724 0.67480 0.15600
N 	N 	0.38347 0.03480 0.74285 -0.08100
N 	N 	0.87400 0.54270 0.73703 -0.08000
N 	N 	0.90105 0.37140 0.70748 -0.13400
C 	C 	0.26590 0.57440 0.94461 0.35200
C 	C 	0.85946 0.43820 0.74511 0.08900
C 	C 	0.80243 0.39610 0.79057 0.06000
C 	C 	0.36561 0.93010 0.74491 0.09000
C 	C 	0.49587 0.90850 0.61807 0.04600
C 	C 	0.44677 0.93870 0.67160 0.11800
C 	C 	0.77690 0.09050 0.95141 0.35500
C 	C 	0.94385 0.43920 0.67395 0.11600
C 	C 	0.30850 0.88300 0.78866 0.06000
C 	C 	0.99820 0.40470 0.62442 0.05200
C 	C 	0.77030 0.45890 0.83802 -0.12400
H 	H 	0.78106 0.53232 0.84034 0.08300
C 	C 	0.42330 0.35760 0.89865 -0.08000
C 	C 	0.72170 0.40990 0.88196 0.07400
H 	H 	0.70024 0.45184 0.91368 0.01400
C 	C 	0.50020 0.29680 0.90166 0.32100
C 	C 	0.21590 0.89150 0.87207 0.07500
H 	H 	0.18830 0.93272 0.90094 0.01400
C 	C 	0.91970 0.86440 0.89160 -0.07800
C 	C 	0.99350 0.79650 0.88703 0.31800
C 	C 	0.26740 0.94310 0.83201 -0.12600
H 	H 	0.27430 0.01729 0.83423 0.08400
C 	C 	0.54430 0.97940 0.58571 -0.12400
H 	H 	0.54931 0.05072 0.59860 0.08600
C 	C 	0.29380 0.77220 0.78546 -0.12800
H 	H 	0.31884 0.72972 0.75572 0.08600
C 	C 	0.81902 0.99870 0.92176 -0.09500
C 	C 	0.78040 0.28820 0.78709 -0.12600
H 	H 	0.79812 0.24503 0.75440 0.08500
C 	C 	0.58500 0.94230 0.53402 0.07200
H 	H 	0.61730 0.99019 0.51265 0.01400
C 	C 	0.31378 0.48370 0.91970 -0.09800
C 	C 	0.24170 0.72720 0.82706 0.07700
H 	H 	0.23199 0.65356 0.82466 0.01400
C 	C 	0.73220 0.24590 0.83252 0.07900
H 	H 	0.71827 0.17354 0.82988 0.01500
C 	C 	0.35570 0.33840 0.86130 -0.01900
H 	H 	0.35173 0.28379 0.83120 0.05300
C 	C 	0.08350 0.43350 0.53736 0.07600
H 	H 	0.11014 0.48120 0.51145 0.01400
C 	C 	0.84670 0.84850 0.86100 -0.01900
H 	H 	0.83609 0.79297 0.83234 0.05200
C 	C 	0.03820 0.47510 0.58568 -0.12800
H 	H 	0.03487 0.54903 0.59191 0.09200
C 	C 	0.29250 0.41100 0.87367 -0.00600
H 	H 	0.24233 0.40927 0.85281 0.05100
C 	C 	0.49190 0.80200 0.59758 -0.11400
H 	H 	0.46107 0.75203 0.61878 0.08300
C 	C 	0.53410 0.77140 0.54562 0.06800
H 	H 	0.53079 0.70012 0.53224 0.02100
C 	C 	0.78930 0.92610 0.87802 -0.00700
H 	H 	0.73680 0.92773 0.86128 0.05200
C 	C 	0.05450 0.26010 0.56630 0.07300
H 	H 	0.06115 0.18644 0.56050 0.01800
C 	C 	0.00860 0.29520 0.61512 -0.12000
H 	H 	0.98461 0.24581 0.64165 0.08500
