data_crystal

_cell_length_a 30.17400
_cell_length_b 9.98390
_cell_length_c 14.09900
_cell_angle_alpha 90.00000
_cell_angle_beta  97.35300
_cell_angle_gamma 90.00000

_symmetry_space_group_name_	'P 1'
_symmetry_space_group_name_H-M	'P 1'

loop_
_symmetry_equiv_pos_as_xyz
  x,y,z

loop_
_atom_site_label
_atom_site_type_symbol
_atom_site_fract_x
_atom_site_fract_y
_atom_site_fract_z
_atom_site_charge
O 	O 	0.95055 0.58930 0.10540 -0.62200
O 	O 	0.91890 0.71850 0.19390 -0.52800
O 	O 	0.53090 0.80560 0.09590 -0.53400
O 	O 	0.53300 0.98160 0.17740 -0.61900
O 	O 	0.06700 0.63960 0.00790 -0.58700
O 	O 	0.02540 0.73030 0.09910 -0.67800
C 	C 	0.91710 0.65900 0.11940 0.63000
C 	C 	0.87800 0.65730 0.04290 -0.70400
H 	H 	0.87730 0.56970 0.00980 0.21500
H 	H 	0.88240 0.72730 0.99540 0.27100
C 	C 	0.83310 0.67990 0.07740 0.35300
C 	C 	0.81840 0.80290 0.09780 -0.30800
H 	H 	0.83720 0.87810 0.09210 0.14100
C 	C 	0.77700 0.82230 0.12670 0.11100
H 	H 	0.76790 0.91070 0.13980 0.00700
C 	C 	0.74860 0.71790 0.13720 -0.09900
C 	C 	0.76360 0.59530 0.11640 0.11000
H 	H 	0.74490 0.51980 0.12120 -0.01000
C 	C 	0.80520 0.57620 0.08840 -0.31200
H 	H 	0.81470 0.48780 0.07650 0.12800
C 	C 	0.70400 0.73720 0.16950 -0.00800
C 	C 	0.68840 0.86220 0.18990 0.01900
H 	H 	0.70680 0.93820 0.18450 0.04200
C 	C 	0.64640 0.87990 0.21780 -0.20600
H 	H 	0.63700 0.96780 0.23160 0.11900
C 	C 	0.61830 0.77540 0.22630 0.23800
C 	C 	0.63360 0.65350 0.20630 -0.20800
H 	H 	0.61510 0.57790 0.21200 0.07900
C 	C 	0.67540 0.63350 0.17770 0.01200
H 	H 	0.68430 0.54520 0.16340 0.02200
C 	C 	0.57190 0.79590 0.25460 -0.52500
H 	H 	0.55880 0.70860 0.26940 0.15700
H 	H 	0.57350 0.85340 0.31210 0.18900
C 	C 	0.54340 0.86160 0.17200 0.57100
C 	C 	0.06240 0.72400 0.06630 0.63900
C 	C 	0.09580 0.82800 0.09280 -0.63500
H 	H 	0.09880 0.84030 0.16300 0.21100
H 	H 	0.08460 0.91330 0.06300 0.19100
C 	C 	0.14130 0.80170 0.06490 0.31400
C 	C 	0.17480 0.74990 0.12800 -0.32500
H 	H 	0.16900 0.72770 0.19070 0.14600
C 	C 	0.21700 0.72870 0.10360 0.18800
H 	H 	0.23940 0.69150 0.14940 -0.03400
C 	C 	0.22710 0.76070 0.01330 -0.26200
C 	C 	0.19320 0.81280 0.94980 0.22800
H 	H 	0.19890 0.83570 0.88700 -0.03200
C 	C 	0.15080 0.83240 0.97570 -0.25600
H 	H 	0.12790 0.86810 0.93010 0.12900
O 	O 	0.45055 0.08930 0.10540 -0.75100
O 	O 	0.41890 0.21850 0.19390 -0.60800
O 	O 	0.03090 0.30560 0.09590 -0.57500
O 	O 	0.03300 0.48160 0.17740 -0.66100
O 	O 	0.56700 0.13960 0.00790 -0.61200
O 	O 	0.52540 0.23030 0.09910 -0.68100
C 	C 	0.41710 0.15900 0.11940 0.68200
C 	C 	0.37800 0.15730 0.04290 -0.82700
H 	H 	0.37730 0.06970 0.00980 0.22400
H 	H 	0.38240 0.22730 0.99540 0.29700
C 	C 	0.33310 0.17990 0.07740 0.51300
C 	C 	0.31840 0.30290 0.09780 -0.45000
H 	H 	0.33720 0.37810 0.09210 0.16600
C 	C 	0.27700 0.32230 0.12670 0.24000
H 	H 	0.26790 0.41070 0.13980 -0.05600
C 	C 	0.24860 0.21790 0.13720 -0.24000
C 	C 	0.26360 0.09530 0.11640 0.30300
H 	H 	0.24490 0.01980 0.12120 -0.10200
C 	C 	0.30520 0.07620 0.08840 -0.60500
H 	H 	0.31470 0.98780 0.07650 0.27600
C 	C 	0.20400 0.23720 0.16950 0.06900
C 	C 	0.18840 0.36220 0.18990 -0.04800
H 	H 	0.20680 0.43820 0.18450 0.04500
C 	C 	0.14640 0.37990 0.21780 -0.15500
H 	H 	0.13700 0.46780 0.23160 0.07900
C 	C 	0.11830 0.27540 0.22630 0.18500
C 	C 	0.13360 0.15350 0.20630 -0.15800
H 	H 	0.11510 0.07790 0.21200 0.03900
C 	C 	0.17540 0.13350 0.17770 -0.05800
H 	H 	0.18430 0.04520 0.16340 0.02600
C 	C 	0.07190 0.29590 0.25460 -0.49000
H 	H 	0.05880 0.20860 0.26940 0.12100
H 	H 	0.07350 0.35340 0.31210 0.16000
C 	C 	0.04340 0.36160 0.17200 0.54900
C 	C 	0.56240 0.22400 0.06630 0.63500
C 	C 	0.59580 0.32800 0.09280 -0.62100
H 	H 	0.59880 0.34030 0.16300 0.19300
H 	H 	0.58460 0.41330 0.06300 0.17600
C 	C 	0.64130 0.30170 0.06490 0.29100
C 	C 	0.67480 0.24990 0.12800 -0.33100
H 	H 	0.66900 0.22770 0.19070 0.13400
C 	C 	0.71700 0.22870 0.10360 0.17600
H 	H 	0.73940 0.19150 0.14940 -0.04400
C 	C 	0.72710 0.26070 0.01330 -0.28000
C 	C 	0.69320 0.31280 0.94980 0.22200
H 	H 	0.69890 0.33570 0.88700 -0.04200
C 	C 	0.65080 0.33240 0.97570 -0.25500
H 	H 	0.62790 0.36810 0.93010 0.12100
O 	O 	0.04945 0.58930 0.39460 -0.70600
O 	O 	0.08110 0.71850 0.30610 -0.55600
O 	O 	0.46910 0.80560 0.40410 -0.53100
O 	O 	0.46700 0.98160 0.32260 -0.62800
O 	O 	0.93300 0.63960 0.49210 -0.52900
O 	O 	0.97460 0.73030 0.40090 -0.56200
C 	C 	0.08290 0.65900 0.38060 0.62300
C 	C 	0.12200 0.65730 0.45710 -0.59700
H 	H 	0.12270 0.56970 0.49020 0.20400
H 	H 	0.11760 0.72730 0.50460 0.19500
C 	C 	0.16690 0.67990 0.42260 0.31400
C 	C 	0.18160 0.80290 0.40220 -0.26500
H 	H 	0.16280 0.87810 0.40790 0.13200
C 	C 	0.22300 0.82230 0.37330 0.08900
H 	H 	0.23210 0.91070 0.36020 0.01900
C 	C 	0.25140 0.71790 0.36280 -0.07300
C 	C 	0.23640 0.59530 0.38360 0.09100
H 	H 	0.25510 0.51980 0.37880 0.00300
C 	C 	0.19480 0.57620 0.41160 -0.27200
H 	H 	0.18530 0.48780 0.42350 0.12500
C 	C 	0.29600 0.73720 0.33050 -0.01300
C 	C 	0.31160 0.86220 0.31010 0.02800
H 	H 	0.29320 0.93820 0.31550 0.04300
C 	C 	0.35360 0.87990 0.28220 -0.20700
H 	H 	0.36300 0.96780 0.26840 0.12100
C 	C 	0.38170 0.77540 0.27370 0.23900
C 	C 	0.36640 0.65350 0.29370 -0.21000
H 	H 	0.38490 0.57790 0.28800 0.08000
C 	C 	0.32460 0.63350 0.32230 0.01900
H 	H 	0.31570 0.54520 0.33660 0.02400
C 	C 	0.42810 0.79590 0.24540 -0.52100
H 	H 	0.44120 0.70860 0.23060 0.15400
H 	H 	0.42650 0.85340 0.18790 0.18300
C 	C 	0.45660 0.86160 0.32800 0.57000
C 	C 	0.93760 0.72400 0.43370 0.62600
C 	C 	0.90420 0.82800 0.40720 -0.62800
H 	H 	0.90120 0.84030 0.33700 0.21700
H 	H 	0.91540 0.91330 0.43700 0.22500
C 	C 	0.85870 0.80170 0.43510 0.33200
C 	C 	0.82520 0.74990 0.37200 -0.27000
H 	H 	0.83100 0.72770 0.30930 0.12900
C 	C 	0.78300 0.72870 0.39640 0.08600
H 	H 	0.76060 0.69150 0.35060 0.00600
C 	C 	0.77290 0.76070 0.48670 -0.05300
C 	C 	0.80680 0.81280 0.55020 0.07800
H 	H 	0.80110 0.83570 0.61300 0.01600
C 	C 	0.84920 0.83240 0.52430 -0.25600
H 	H 	0.87210 0.86810 0.56990 0.12500
O 	O 	0.54945 0.08930 0.39460 -0.74500
O 	O 	0.58110 0.21850 0.30610 -0.59600
O 	O 	0.96910 0.30560 0.40410 -0.47600
O 	O 	0.96700 0.48160 0.32260 -0.58700
O 	O 	0.43300 0.13960 0.49210 -0.59900
O 	O 	0.47460 0.23030 0.40090 -0.68000
C 	C 	0.58290 0.15900 0.38060 0.65100
C 	C 	0.62200 0.15730 0.45710 -0.68600
H 	H 	0.62270 0.06970 0.49020 0.20500
H 	H 	0.61760 0.22730 0.50460 0.21400
C 	C 	0.66690 0.17990 0.42260 0.45700
C 	C 	0.68160 0.30290 0.40220 -0.39400
H 	H 	0.66280 0.37810 0.40790 0.15700
C 	C 	0.72300 0.32230 0.37330 0.20600
H 	H 	0.73210 0.41070 0.36020 -0.03900
C 	C 	0.75140 0.21790 0.36280 -0.20100
C 	C 	0.73640 0.09530 0.38360 0.27000
H 	H 	0.75510 0.01980 0.37880 -0.08400
C 	C 	0.69480 0.07620 0.41160 -0.54900
H 	H 	0.68530 0.98780 0.42350 0.26600
C 	C 	0.79600 0.23720 0.33050 0.05300
C 	C 	0.81160 0.36220 0.31010 -0.02900
H 	H 	0.79320 0.43820 0.31550 0.04300
C 	C 	0.85360 0.37990 0.28220 -0.16800
H 	H 	0.86300 0.46780 0.26840 0.08500
C 	C 	0.88170 0.27540 0.27370 0.19900
C 	C 	0.86640 0.15350 0.29370 -0.17100
H 	H 	0.88490 0.07790 0.28800 0.05400
C 	C 	0.82460 0.13350 0.32230 -0.03800
H 	H 	0.81570 0.04520 0.33660 0.02400
C 	C 	0.92810 0.29590 0.24540 -0.49600
H 	H 	0.94120 0.20860 0.23060 0.16300
H 	H 	0.92650 0.35340 0.18790 0.17800
C 	C 	0.95660 0.36160 0.32800 0.55700
C 	C 	0.43760 0.22400 0.43370 0.64000
C 	C 	0.40420 0.32800 0.40720 -0.62200
H 	H 	0.40120 0.34030 0.33700 0.19300
H 	H 	0.41540 0.41330 0.43700 0.18900
C 	C 	0.35870 0.30170 0.43510 0.31000
C 	C 	0.32520 0.24990 0.37200 -0.27400
H 	H 	0.33100 0.22770 0.30930 0.11600
C 	C 	0.28300 0.22870 0.39640 0.07000
H 	H 	0.26060 0.19150 0.35060 -0.00200
C 	C 	0.27290 0.26070 0.48670 -0.06200
C 	C 	0.30680 0.31280 0.55020 0.06400
H 	H 	0.30110 0.33570 0.61300 0.00800
C 	C 	0.34920 0.33240 0.52430 -0.25400
H 	H 	0.37210 0.36810 0.56990 0.10600
O 	O 	0.04945 0.41070 0.89460 -0.65600
O 	O 	0.08110 0.28150 0.80610 -0.54800
O 	O 	0.46910 0.19440 0.90410 -0.51300
O 	O 	0.46700 0.01840 0.82260 -0.71600
O 	O 	0.93300 0.36040 0.99210 -0.47300
O 	O 	0.97460 0.26970 0.90090 -0.54500
C 	C 	0.08290 0.34100 0.88060 0.56900
C 	C 	0.12200 0.34270 0.95710 -0.44700
H 	H 	0.12270 0.43030 0.99020 0.18500
H 	H 	0.11760 0.27270 0.00460 0.10300
C 	C 	0.16690 0.32010 0.92260 0.25300
C 	C 	0.18160 0.19710 0.90220 -0.21100
H 	H 	0.16280 0.12190 0.90790 0.09000
C 	C 	0.22300 0.17770 0.87330 0.05600
H 	H 	0.23210 0.08930 0.86020 -0.00100
C 	C 	0.25140 0.28210 0.86280 -0.04400
C 	C 	0.23640 0.40470 0.88360 0.06300
H 	H 	0.25510 0.48020 0.87880 0.01800
C 	C 	0.19480 0.42380 0.91160 -0.21800
H 	H 	0.18530 0.51220 0.92350 0.11600
C 	C 	0.29600 0.26280 0.83050 -0.02400
C 	C 	0.31160 0.13780 0.81010 0.02600
H 	H 	0.29320 0.06180 0.81550 0.00600
C 	C 	0.35360 0.12010 0.78220 -0.20700
H 	H 	0.36300 0.03220 0.76840 0.07500
C 	C 	0.38170 0.22460 0.77370 0.23200
C 	C 	0.36640 0.34650 0.79370 -0.21100
H 	H 	0.38490 0.42210 0.78800 0.08200
C 	C 	0.32460 0.36650 0.82230 0.02600
H 	H 	0.31570 0.45480 0.83660 0.02300
C 	C 	0.42810 0.20410 0.74540 -0.52600
H 	H 	0.44120 0.29140 0.73060 0.15700
H 	H 	0.42650 0.14660 0.68790 0.16600
C 	C 	0.45660 0.13840 0.82800 0.58200
C 	C 	0.93760 0.27600 0.93370 0.59500
C 	C 	0.90420 0.17200 0.90720 -0.57100
H 	H 	0.90120 0.15970 0.83700 0.17700
H 	H 	0.91540 0.08670 0.93700 0.18400
C 	C 	0.85870 0.19830 0.93510 0.29400
C 	C 	0.82520 0.25010 0.87200 -0.19200
H 	H 	0.83100 0.27230 0.80930 0.09500
C 	C 	0.78300 0.27130 0.89640 -0.05800
H 	H 	0.76060 0.30850 0.85060 0.05400
C 	C 	0.77290 0.23930 0.98670 0.17100
C 	C 	0.80680 0.18720 0.05020 -0.12100
H 	H 	0.80110 0.16430 0.11300 0.05900
C 	C 	0.84920 0.16760 0.02430 -0.23600
H 	H 	0.87210 0.13190 0.06990 0.08000
O 	O 	0.54945 0.91070 0.89460 -0.63200
O 	O 	0.58110 0.78150 0.80610 -0.55500
O 	O 	0.96910 0.69440 0.90410 -0.42900
O 	O 	0.96700 0.51840 0.82260 -0.56900
O 	O 	0.43300 0.86040 0.99210 -0.49200
O 	O 	0.47460 0.76970 0.90090 -0.65500
C 	C 	0.58290 0.84100 0.88060 0.55900
C 	C 	0.62200 0.84270 0.95710 -0.36900
H 	H 	0.62270 0.93030 0.99020 0.18300
H 	H 	0.61760 0.77270 0.00460 0.09200
C 	C 	0.66690 0.82010 0.92260 0.11900
C 	C 	0.68160 0.69710 0.90220 -0.09100
H 	H 	0.66280 0.62190 0.90790 0.06800
C 	C 	0.72300 0.67770 0.87330 -0.05600
H 	H 	0.73210 0.58930 0.86020 0.05500
C 	C 	0.75140 0.78210 0.86280 0.07900
C 	C 	0.73640 0.90470 0.88360 -0.10900
H 	H 	0.75510 0.98020 0.87880 0.10100
C 	C 	0.69480 0.92380 0.91160 0.04200
H 	H 	0.68530 0.01220 0.92350 -0.01800
C 	C 	0.79600 0.76280 0.83050 -0.09400
C 	C 	0.81160 0.63780 0.81010 0.08800
H 	H 	0.79320 0.56180 0.81550 0.00300
C 	C 	0.85360 0.62010 0.78220 -0.25400
H 	H 	0.86300 0.53220 0.76840 0.11600
C 	C 	0.88170 0.72460 0.77370 0.28200
C 	C 	0.86640 0.84650 0.79370 -0.25700
H 	H 	0.88490 0.92210 0.78800 0.12400
C 	C 	0.82460 0.86650 0.82230 0.09100
H 	H 	0.81570 0.95480 0.83660 0.02000
C 	C 	0.92810 0.70410 0.74540 -0.54400
H 	H 	0.94120 0.79140 0.73060 0.19700
H 	H 	0.92650 0.64660 0.68790 0.19800
C 	C 	0.95660 0.63840 0.82800 0.56500
C 	C 	0.43760 0.77600 0.93370 0.63300
C 	C 	0.40420 0.67200 0.90720 -0.60200
H 	H 	0.40120 0.65970 0.83700 0.18900
H 	H 	0.41540 0.58670 0.93700 0.19500
C 	C 	0.35870 0.69830 0.93510 0.32100
C 	C 	0.32520 0.75010 0.87200 -0.19500
H 	H 	0.33100 0.77230 0.80930 0.10900
C 	C 	0.28300 0.77130 0.89640 -0.03600
H 	H 	0.26060 0.80850 0.85060 0.05900
C 	C 	0.27290 0.73930 0.98670 0.17100
C 	C 	0.30680 0.68720 0.05020 -0.10200
H 	H 	0.30110 0.66430 0.11300 0.06500
C 	C 	0.34920 0.66760 0.02430 -0.24100
H 	H 	0.37210 0.63190 0.06990 0.08800
O 	O 	0.95055 0.41070 0.60540 -0.61300
O 	O 	0.91890 0.28150 0.69390 -0.52600
O 	O 	0.53090 0.19440 0.59590 -0.55600
O 	O 	0.53300 0.01840 0.67740 -0.74000
O 	O 	0.06700 0.36040 0.50790 -0.56800
O 	O 	0.02540 0.26970 0.59910 -0.68300
C 	C 	0.91710 0.34100 0.61940 0.59500
C 	C 	0.87800 0.34270 0.54290 -0.57300
H 	H 	0.87730 0.43030 0.50980 0.19700
H 	H 	0.88240 0.27270 0.49540 0.18500
C 	C 	0.83310 0.32010 0.57740 0.29900
C 	C 	0.81840 0.19710 0.59780 -0.26000
H 	H 	0.83720 0.12190 0.59210 0.10000
C 	C 	0.77700 0.17770 0.62670 0.08200
H 	H 	0.76790 0.08930 0.63980 -0.01500
C 	C 	0.74860 0.28210 0.63720 -0.07400
C 	C 	0.76360 0.40470 0.61640 0.08600
H 	H 	0.74490 0.48020 0.62120 0.00300
C 	C 	0.80520 0.42380 0.58840 -0.26400
H 	H 	0.81470 0.51220 0.57650 0.12100
C 	C 	0.70400 0.26280 0.66950 -0.02000
C 	C 	0.68840 0.13780 0.68990 0.01900
H 	H 	0.70680 0.06180 0.68450 0.00400
C 	C 	0.64640 0.12010 0.71780 -0.21000
H 	H 	0.63700 0.03220 0.73160 0.07300
C 	C 	0.61830 0.22460 0.72630 0.23600
C 	C 	0.63360 0.34650 0.70630 -0.21300
H 	H 	0.61510 0.42210 0.71200 0.08200
C 	C 	0.67540 0.36650 0.67770 0.02100
H 	H 	0.68430 0.45480 0.66340 0.02100
C 	C 	0.57190 0.20410 0.75460 -0.54300
H 	H 	0.55880 0.29140 0.76940 0.16500
H 	H 	0.57350 0.14660 0.81210 0.17900
C 	C 	0.54340 0.13840 0.67200 0.59700
C 	C 	0.06240 0.27600 0.56630 0.61700
C 	C 	0.09580 0.17200 0.59280 -0.58200
H 	H 	0.09880 0.15970 0.66300 0.17100
H 	H 	0.08460 0.08670 0.56300 0.15000
C 	C 	0.14130 0.19830 0.56490 0.27700
C 	C 	0.17480 0.25010 0.62800 -0.25000
H 	H 	0.16900 0.27230 0.69070 0.11200
C 	C 	0.21700 0.27130 0.60360 0.04800
H 	H 	0.23940 0.30850 0.64940 0.01200
C 	C 	0.22710 0.23930 0.51330 -0.04600
C 	C 	0.19320 0.18720 0.44980 0.03500
H 	H 	0.19890 0.16430 0.38700 0.01000
C 	C 	0.15080 0.16760 0.47570 -0.23600
H 	H 	0.12790 0.13190 0.43010 0.08500
O 	O 	0.45055 0.91070 0.60540 -0.67900
O 	O 	0.41890 0.78150 0.69390 -0.57200
O 	O 	0.03090 0.69440 0.59590 -0.56200
O 	O 	0.03300 0.51840 0.67740 -0.67200
O 	O 	0.56700 0.86040 0.50790 -0.54300
O 	O 	0.52540 0.76970 0.59910 -0.67900
C 	C 	0.41710 0.84100 0.61940 0.60400
C 	C 	0.37800 0.84270 0.54290 -0.50400
H 	H 	0.37730 0.93030 0.50980 0.19900
H 	H 	0.38240 0.77270 0.49540 0.16700
C 	C 	0.33310 0.82010 0.57740 0.16600
C 	C 	0.31840 0.69710 0.59780 -0.13900
H 	H 	0.33720 0.62190 0.59210 0.07500
C 	C 	0.27700 0.67770 0.62670 -0.03000
H 	H 	0.26790 0.58930 0.63980 0.04000
C 	C 	0.24860 0.78210 0.63720 0.04900
C 	C 	0.26360 0.90470 0.61640 -0.08600
H 	H 	0.24490 0.98020 0.62120 0.08800
C 	C 	0.30520 0.92380 0.58840 0.00300
H 	H 	0.31470 0.01220 0.57650 -0.01700
C 	C 	0.20400 0.76280 0.66950 -0.08300
C 	C 	0.18840 0.63780 0.68990 0.07400
H 	H 	0.20680 0.56180 0.68450 0.00400
C 	C 	0.14640 0.62010 0.71780 -0.24700
H 	H 	0.13700 0.53220 0.73160 0.11100
C 	C 	0.11830 0.72460 0.72630 0.27300
C 	C 	0.13360 0.84650 0.70630 -0.24900
H 	H 	0.11510 0.92210 0.71200 0.11100
C 	C 	0.17540 0.86650 0.67770 0.07700
H 	H 	0.18430 0.95480 0.66340 0.02200
C 	C 	0.07190 0.70410 0.75460 -0.54900
H 	H 	0.05880 0.79140 0.76940 0.16000
H 	H 	0.07350 0.64660 0.81210 0.18600
C 	C 	0.04340 0.63840 0.67200 0.56900
C 	C 	0.56240 0.77600 0.56630 0.64000
C 	C 	0.59580 0.67200 0.59280 -0.60700
H 	H 	0.59880 0.65970 0.66300 0.18900
H 	H 	0.58460 0.58670 0.56300 0.18300
C 	C 	0.64130 0.69830 0.56490 0.30500
C 	C 	0.67480 0.75010 0.62800 -0.25200
H 	H 	0.66900 0.77230 0.69070 0.12600
C 	C 	0.71700 0.77130 0.60360 0.06700
H 	H 	0.73940 0.80850 0.64940 0.01800
C 	C 	0.72710 0.73930 0.51330 -0.04000
C 	C 	0.69320 0.68720 0.44980 0.05100
H 	H 	0.69890 0.66430 0.38700 0.01600
C 	C 	0.65080 0.66760 0.47570 -0.24200
H 	H 	0.62790 0.63190 0.43010 0.10200
Nd	Nd	-0.00000 0.67398 0.25000 1.95400
Nd	Nd	0.50000 0.17398 0.25000 2.16700
Nd	Nd	0.00000 0.32602 0.75000 1.91800
Nd	Nd	0.50000 0.82602 0.75000 2.37500
Nd	Nd	-0.00000 0.50000 -0.00000 1.94100
Nd	Nd	0.50000 0.00000 -0.00000 2.06600
Nd	Nd	-0.00000 0.50000 0.50000 2.09600
Nd	Nd	0.50000 0.00000 0.50000 2.23400
