data_crystal

_cell_length_a 30.23100
_cell_length_b 9.87500
_cell_length_c 14.19100
_cell_angle_alpha 90.00000
_cell_angle_beta  97.12800
_cell_angle_gamma 90.00000

_symmetry_space_group_name_	'P 1'
_symmetry_space_group_name_H-M	'P 1'

loop_
_symmetry_equiv_pos_as_xyz
  x,y,z

loop_
_atom_site_label
_atom_site_type_symbol
_atom_site_fract_x
_atom_site_fract_y
_atom_site_fract_z
_atom_site_charge
O 	O 	0.58170 0.22360 0.80710 -0.55400
O 	O 	0.54963 0.09300 0.89470 -0.67600
O 	O 	0.96600 0.48370 0.82250 -0.59100
O 	O 	0.96900 0.30170 0.90180 -0.43500
O 	O 	0.47420 0.23280 0.90120 -0.63100
O 	O 	0.43270 0.13870 0.99230 -0.50800
C 	C 	0.58260 0.16520 0.88070 0.56900
C 	C 	0.62230 0.16310 0.95710 -0.54600
H 	H 	0.62280 0.07540 0.99100 0.19800
H 	H 	0.61860 0.23550 0.00370 0.13700
C 	C 	0.66700 0.18250 0.91980 0.44900
C 	C 	0.68130 0.30530 0.90110 -0.37800
H 	H 	0.66260 0.38110 0.90790 0.16700
C 	C 	0.72310 0.32580 0.87170 0.20900
H 	H 	0.73220 0.41530 0.85870 -0.03300
C 	C 	0.75110 0.22110 0.86110 -0.20300
C 	C 	0.73670 0.10030 0.88320 0.28500
H 	H 	0.75540 0.02400 0.87830 -0.08100
C 	C 	0.69550 0.08060 0.91320 -0.54000
H 	H 	0.68710 0.99170 0.92960 0.27400
C 	C 	0.79610 0.24070 0.83110 0.05300
C 	C 	0.81200 0.36630 0.80990 -0.01200
H 	H 	0.79370 0.44360 0.81460 0.04200
C 	C 	0.85380 0.38340 0.78220 -0.18600
H 	H 	0.86350 0.47200 0.76890 0.09900
C 	C 	0.88100 0.27740 0.77350 0.22100
C 	C 	0.86660 0.15110 0.79180 -0.18000
H 	H 	0.88510 0.07500 0.78490 0.06200
C 	C 	0.82460 0.13310 0.82070 -0.02900
H 	H 	0.81520 0.04400 0.83380 0.02600
C 	C 	0.92780 0.29730 0.74580 -0.51400
H 	H 	0.94040 0.20880 0.73050 0.18100
H 	H 	0.92640 0.35580 0.68890 0.19300
C 	C 	0.95700 0.36260 0.82770 0.53400
C 	C 	0.43760 0.22600 0.93340 0.55600
C 	C 	0.40350 0.33220 0.90560 -0.56800
H 	H 	0.40060 0.34380 0.83580 0.18600
H 	H 	0.41430 0.41910 0.93470 0.19900
C 	C 	0.35780 0.30370 0.93390 0.29700
C 	C 	0.32460 0.25090 0.87180 -0.18600
H 	H 	0.33020 0.22740 0.80940 0.08900
C 	C 	0.28340 0.23130 0.89770 -0.06300
H 	H 	0.26070 0.19550 0.85200 0.05000
C 	C 	0.27270 0.26090 0.98720 0.19800
C 	C 	0.30730 0.31150 0.05100 -0.12700
H 	H 	0.30190 0.33310 0.11390 0.07000
C 	C 	0.34900 0.33070 0.02500 -0.22400
H 	H 	0.37220 0.36330 0.07060 0.08500
O 	O 	0.08170 0.72360 0.80710 -0.53800
O 	O 	0.04963 0.59300 0.89470 -0.67300
O 	O 	0.46600 0.98370 0.82250 -0.59900
O 	O 	0.46900 0.80170 0.90180 -0.47100
O 	O 	0.97420 0.73280 0.90120 -0.54800
O 	O 	0.93270 0.63870 0.99230 -0.45900
C 	C 	0.08260 0.66520 0.88070 0.55300
C 	C 	0.12230 0.66310 0.95710 -0.46200
H 	H 	0.12280 0.57540 0.99100 0.19700
H 	H 	0.11860 0.73550 0.00370 0.12100
C 	C 	0.16700 0.68250 0.91980 0.29300
C 	C 	0.18130 0.80530 0.90110 -0.23600
H 	H 	0.16260 0.88110 0.90790 0.13600
C 	C 	0.22310 0.82580 0.87170 0.07900
H 	H 	0.23220 0.91530 0.85870 0.02900
C 	C 	0.25110 0.72110 0.86110 -0.05700
C 	C 	0.23670 0.60030 0.88320 0.08800
H 	H 	0.25540 0.52400 0.87830 0.01200
C 	C 	0.19550 0.58060 0.91320 -0.25100
H 	H 	0.18710 0.49170 0.92960 0.13200
C 	C 	0.29610 0.74070 0.83110 -0.01900
C 	C 	0.31200 0.86630 0.80990 0.05000
H 	H 	0.29370 0.94360 0.81460 0.04100
C 	C 	0.35380 0.88340 0.78220 -0.22800
H 	H 	0.36350 0.97200 0.76890 0.13700
C 	C 	0.38100 0.77740 0.77350 0.26200
C 	C 	0.36660 0.65110 0.79180 -0.21800
H 	H 	0.38510 0.57500 0.78490 0.08900
C 	C 	0.32460 0.63310 0.82070 0.03100
H 	H 	0.31520 0.54400 0.83380 0.02500
C 	C 	0.42780 0.79730 0.74580 -0.53300
H 	H 	0.44040 0.70880 0.73050 0.17300
H 	H 	0.42640 0.85580 0.68890 0.19900
C 	C 	0.45700 0.86260 0.82770 0.53200
C 	C 	0.93760 0.72600 0.93340 0.55400
C 	C 	0.90350 0.83220 0.90560 -0.57800
H 	H 	0.90060 0.84380 0.83580 0.20800
H 	H 	0.91430 0.91910 0.93470 0.23100
C 	C 	0.85780 0.80370 0.93390 0.31800
C 	C 	0.82460 0.75090 0.87180 -0.18900
H 	H 	0.83020 0.72740 0.80940 0.10400
C 	C 	0.78340 0.73130 0.89770 -0.03800
H 	H 	0.76070 0.69550 0.85200 0.05400
C 	C 	0.77270 0.76090 0.98720 0.18800
C 	C 	0.80730 0.81150 0.05100 -0.10300
H 	H 	0.80190 0.83310 0.11390 0.07500
C 	C 	0.84900 0.83070 0.02500 -0.22600
H 	H 	0.87220 0.86330 0.07060 0.10300
O 	O 	0.41830 0.22360 0.69290 -0.57200
O 	O 	0.45037 0.09300 0.60530 -0.71100
O 	O 	0.03400 0.48370 0.67750 -0.68100
O 	O 	0.03100 0.30170 0.59820 -0.55700
O 	O 	0.52580 0.23280 0.59880 -0.64800
O 	O 	0.56730 0.13870 0.50770 -0.55000
C 	C 	0.41740 0.16520 0.61930 0.61400
C 	C 	0.37770 0.16310 0.54290 -0.71100
H 	H 	0.37720 0.07540 0.50900 0.21900
H 	H 	0.38140 0.23550 0.49630 0.23000
C 	C 	0.33300 0.18250 0.58020 0.52500
C 	C 	0.31870 0.30530 0.59890 -0.45200
H 	H 	0.33740 0.38110 0.59210 0.18000
C 	C 	0.27690 0.32580 0.62830 0.25600
H 	H 	0.26780 0.41530 0.64130 -0.05500
C 	C 	0.24890 0.22110 0.63890 -0.25400
C 	C 	0.26330 0.10030 0.61680 0.33600
H 	H 	0.24460 0.02400 0.62170 -0.10500
C 	C 	0.30450 0.08060 0.58680 -0.61800
H 	H 	0.31290 0.99170 0.57040 0.29100
C 	C 	0.20390 0.24070 0.66890 0.07300
C 	C 	0.18800 0.36630 0.69010 -0.03400
H 	H 	0.20630 0.44360 0.68540 0.04500
C 	C 	0.14620 0.38340 0.71780 -0.17100
H 	H 	0.13650 0.47200 0.73110 0.09200
C 	C 	0.11900 0.27740 0.72650 0.20700
C 	C 	0.13340 0.15110 0.70820 -0.16500
H 	H 	0.11490 0.07500 0.71510 0.04600
C 	C 	0.17540 0.13310 0.67930 -0.05000
H 	H 	0.18480 0.04400 0.66620 0.02900
C 	C 	0.07220 0.29730 0.75420 -0.51200
H 	H 	0.05960 0.20880 0.76950 0.14200
H 	H 	0.07360 0.35580 0.81110 0.17800
C 	C 	0.04300 0.36260 0.67230 0.53000
C 	C 	0.56240 0.22600 0.56660 0.56000
C 	C 	0.59650 0.33220 0.59440 -0.57800
H 	H 	0.59940 0.34380 0.66420 0.18800
H 	H 	0.58570 0.41910 0.56530 0.18800
C 	C 	0.64220 0.30370 0.56610 0.28800
C 	C 	0.67540 0.25090 0.62820 -0.26400
H 	H 	0.66980 0.22740 0.69060 0.11300
C 	C 	0.71660 0.23130 0.60230 0.06900
H 	H 	0.73930 0.19550 0.64800 -0.00200
C 	C 	0.72730 0.26090 0.51280 -0.05800
C 	C 	0.69270 0.31150 0.44900 0.05800
H 	H 	0.69810 0.33310 0.38610 0.01100
C 	C 	0.65100 0.33070 0.47500 -0.23800
H 	H 	0.62780 0.36330 0.42940 0.10600
O 	O 	0.91830 0.72360 0.69290 -0.51400
O 	O 	0.95037 0.59300 0.60530 -0.61400
O 	O 	0.53400 0.98370 0.67750 -0.60700
O 	O 	0.53100 0.80170 0.59820 -0.49800
O 	O 	0.02580 0.73280 0.59880 -0.68000
O 	O 	0.06730 0.63870 0.50770 -0.54200
C 	C 	0.91740 0.66520 0.61930 0.57500
C 	C 	0.87770 0.66310 0.54290 -0.59600
H 	H 	0.87720 0.57540 0.50900 0.21000
H 	H 	0.88140 0.73550 0.49630 0.21000
C 	C 	0.83300 0.68250 0.58020 0.34800
C 	C 	0.81870 0.80530 0.59890 -0.29300
H 	H 	0.83740 0.88110 0.59210 0.14800
C 	C 	0.77690 0.82580 0.62830 0.11100
H 	H 	0.76780 0.91530 0.64130 0.01300
C 	C 	0.74890 0.72110 0.63890 -0.09300
C 	C 	0.76330 0.60030 0.61680 0.11900
H 	H 	0.74460 0.52400 0.62170 -0.00600
C 	C 	0.80450 0.58060 0.58680 -0.30500
H 	H 	0.81290 0.49170 0.57040 0.13700
C 	C 	0.70390 0.74070 0.66890 -0.01100
C 	C 	0.68800 0.86630 0.69010 0.03900
H 	H 	0.70630 0.94360 0.68540 0.04000
C 	C 	0.64620 0.88340 0.71780 -0.22700
H 	H 	0.63650 0.97200 0.73110 0.13400
C 	C 	0.61900 0.77740 0.72650 0.26200
C 	C 	0.63340 0.65110 0.70820 -0.21600
H 	H 	0.61490 0.57500 0.71510 0.08800
C 	C 	0.67540 0.63310 0.67930 0.02200
H 	H 	0.68480 0.54400 0.66620 0.02400
C 	C 	0.57220 0.79730 0.75420 -0.54300
H 	H 	0.55960 0.70880 0.76950 0.18000
H 	H 	0.57360 0.85580 0.81110 0.20800
C 	C 	0.54300 0.86260 0.67230 0.54000
C 	C 	0.06240 0.72600 0.56660 0.57300
C 	C 	0.09650 0.83220 0.59440 -0.59400
H 	H 	0.09940 0.84380 0.66420 0.20400
H 	H 	0.08570 0.91910 0.56530 0.20000
C 	C 	0.14220 0.80370 0.56610 0.31000
C 	C 	0.17540 0.75090 0.62820 -0.26100
H 	H 	0.16980 0.72740 0.69060 0.12700
C 	C 	0.21660 0.73130 0.60230 0.08500
H 	H 	0.23930 0.69550 0.64800 0.00700
C 	C 	0.22730 0.76090 0.51280 -0.04900
C 	C 	0.19270 0.81150 0.44900 0.06900
H 	H 	0.19810 0.83310 0.38610 0.02000
C 	C 	0.15100 0.83070 0.47500 -0.23700
H 	H 	0.12780 0.86330 0.42940 0.11200
O 	O 	0.41830 0.77640 0.19290 -0.54000
O 	O 	0.45037 0.90700 0.10530 -0.65000
O 	O 	0.03400 0.51630 0.17750 -0.68800
O 	O 	0.03100 0.69830 0.09820 -0.56500
O 	O 	0.52580 0.76720 0.09880 -0.63500
O 	O 	0.56730 0.86130 0.00770 -0.52300
C 	C 	0.41740 0.83480 0.11930 0.59000
C 	C 	0.37770 0.83690 0.04290 -0.64300
H 	H 	0.37720 0.92460 0.00900 0.22200
H 	H 	0.38140 0.76450 0.99630 0.25900
C 	C 	0.33300 0.81750 0.08020 0.23000
C 	C 	0.31870 0.69470 0.09890 -0.20100
H 	H 	0.33740 0.61890 0.09210 0.08800
C 	C 	0.27690 0.67420 0.12830 -0.00100
H 	H 	0.26780 0.58470 0.14130 0.02500
C 	C 	0.24890 0.77890 0.13890 0.01900
C 	C 	0.26330 0.89970 0.11680 -0.05800
H 	H 	0.24460 0.97600 0.12170 0.07300
C 	C 	0.30450 0.91940 0.08680 -0.04900
H 	H 	0.31290 0.00830 0.07040 -0.01300
C 	C 	0.20390 0.75930 0.16890 -0.07700
C 	C 	0.18800 0.63370 0.19010 0.07200
H 	H 	0.20630 0.55640 0.18540 0.00200
C 	C 	0.14620 0.61660 0.21780 -0.26000
H 	H 	0.13650 0.52800 0.23110 0.12000
C 	C 	0.11900 0.72260 0.22650 0.27700
C 	C 	0.13340 0.84890 0.20820 -0.24200
H 	H 	0.11490 0.92500 0.21510 0.11000
C 	C 	0.17540 0.86690 0.17930 0.06100
H 	H 	0.18480 0.95600 0.16620 0.02600
C 	C 	0.07220 0.70270 0.25420 -0.55300
H 	H 	0.05960 0.79120 0.26950 0.16400
H 	H 	0.07360 0.64420 0.31110 0.18400
C 	C 	0.04300 0.63740 0.17230 0.54600
C 	C 	0.56240 0.77400 0.06660 0.55600
C 	C 	0.59650 0.66780 0.09440 -0.56700
H 	H 	0.59940 0.65620 0.16420 0.18900
H 	H 	0.58570 0.58090 0.06530 0.16800
C 	C 	0.64220 0.69630 0.06610 0.27500
C 	C 	0.67540 0.74910 0.12820 -0.31800
H 	H 	0.66980 0.77260 0.19060 0.15100
C 	C 	0.71660 0.76870 0.10230 0.19200
H 	H 	0.73930 0.80450 0.14800 -0.02800
C 	C 	0.72730 0.73910 0.01280 -0.28000
C 	C 	0.69270 0.68850 0.94900 0.22100
H 	H 	0.69810 0.66690 0.88610 -0.03800
C 	C 	0.65100 0.66930 0.97500 -0.23900
H 	H 	0.62780 0.63670 0.92940 0.12000
O 	O 	0.91830 0.27640 0.19290 -0.54700
O 	O 	0.95037 0.40700 0.10530 -0.64200
O 	O 	0.53400 0.01630 0.17750 -0.69900
O 	O 	0.53100 0.19830 0.09820 -0.54000
O 	O 	0.02580 0.26720 0.09880 -0.70300
O 	O 	0.06730 0.36130 0.00770 -0.57000
C 	C 	0.91740 0.33480 0.11930 0.60700
C 	C 	0.87770 0.33690 0.04290 -0.74300
H 	H 	0.87720 0.42460 0.00900 0.22700
H 	H 	0.88140 0.26450 0.99630 0.28300
C 	C 	0.83300 0.31750 0.08020 0.40300
C 	C 	0.81870 0.19470 0.09890 -0.35800
H 	H 	0.83740 0.11890 0.09210 0.12200
C 	C 	0.77690 0.17420 0.12830 0.14200
H 	H 	0.76780 0.08470 0.14130 -0.04300
C 	C 	0.74890 0.27890 0.13890 -0.14100
C 	C 	0.76330 0.39970 0.11680 0.15700
H 	H 	0.74460 0.47600 0.12170 -0.02700
C 	C 	0.80450 0.41940 0.08680 -0.36500
H 	H 	0.81290 0.50830 0.07040 0.14300
C 	C 	0.70390 0.25930 0.16890 0.00200
C 	C 	0.68800 0.13370 0.19010 0.00500
H 	H 	0.70630 0.05640 0.18540 0.00400
C 	C 	0.64620 0.11660 0.21780 -0.21400
H 	H 	0.63650 0.02800 0.23110 0.07900
C 	C 	0.61900 0.22260 0.22650 0.23400
C 	C 	0.63340 0.34890 0.20820 -0.20000
H 	H 	0.61490 0.42500 0.21510 0.08000
C 	C 	0.67540 0.36690 0.17930 -0.00300
H 	H 	0.68480 0.45600 0.16620 0.02700
C 	C 	0.57220 0.20270 0.25420 -0.53600
H 	H 	0.55960 0.29120 0.26950 0.17100
H 	H 	0.57360 0.14420 0.31110 0.17700
C 	C 	0.54300 0.13740 0.17230 0.55200
C 	C 	0.06240 0.27400 0.06660 0.55400
C 	C 	0.09650 0.16780 0.09440 -0.55400
H 	H 	0.09940 0.15620 0.16420 0.16600
H 	H 	0.08570 0.08090 0.06530 0.13400
C 	C 	0.14220 0.19630 0.06610 0.25100
C 	C 	0.17540 0.24910 0.12820 -0.32400
H 	H 	0.16980 0.27260 0.19060 0.13900
C 	C 	0.21660 0.26870 0.10230 0.18200
H 	H 	0.23930 0.30450 0.14800 -0.03900
C 	C 	0.22730 0.23910 0.01280 -0.30300
C 	C 	0.19270 0.18850 0.94900 0.21800
H 	H 	0.19810 0.16690 0.88610 -0.04900
C 	C 	0.15100 0.16930 0.97500 -0.23700
H 	H 	0.12780 0.13670 0.92940 0.10500
O 	O 	0.58170 0.77640 0.30710 -0.52500
O 	O 	0.54963 0.90700 0.39470 -0.62400
O 	O 	0.96600 0.51630 0.32250 -0.60300
O 	O 	0.96900 0.69830 0.40180 -0.45000
O 	O 	0.47420 0.76720 0.40120 -0.62300
O 	O 	0.43270 0.86130 0.49230 -0.49000
C 	C 	0.58260 0.83480 0.38070 0.55200
C 	C 	0.62230 0.83690 0.45710 -0.49400
H 	H 	0.62280 0.92460 0.49100 0.20300
H 	H 	0.61860 0.76450 0.50370 0.17300
C 	C 	0.66700 0.81750 0.41980 0.16900
C 	C 	0.68130 0.69470 0.40110 -0.14000
H 	H 	0.66260 0.61890 0.40790 0.07800
C 	C 	0.72310 0.67420 0.37170 -0.03600
H 	H 	0.73220 0.58470 0.35870 0.04300
C 	C 	0.75110 0.77890 0.36110 0.05900
C 	C 	0.73670 0.89970 0.38320 -0.09300
H 	H 	0.75540 0.97600 0.37830 0.09100
C 	C 	0.69550 0.91940 0.41320 0.00700
H 	H 	0.68710 0.00830 0.42960 -0.01800
C 	C 	0.79610 0.75930 0.33110 -0.09100
C 	C 	0.81200 0.63370 0.30990 0.09000
H 	H 	0.79370 0.55640 0.31460 -0.00100
C 	C 	0.85380 0.61660 0.28220 -0.27200
H 	H 	0.86350 0.52800 0.26890 0.12500
C 	C 	0.88100 0.72260 0.27350 0.29000
C 	C 	0.86660 0.84890 0.29180 -0.25400
H 	H 	0.88510 0.92500 0.28490 0.12500
C 	C 	0.82460 0.86690 0.32070 0.07900
H 	H 	0.81520 0.95600 0.33380 0.02300
C 	C 	0.92780 0.70270 0.24580 -0.55700
H 	H 	0.94040 0.79120 0.23050 0.20400
H 	H 	0.92640 0.64420 0.18890 0.20100
C 	C 	0.95700 0.63740 0.32770 0.55100
C 	C 	0.43760 0.77400 0.43340 0.55500
C 	C 	0.40350 0.66780 0.40560 -0.56100
H 	H 	0.40060 0.65620 0.33580 0.18700
H 	H 	0.41430 0.58090 0.43470 0.18000
C 	C 	0.35780 0.69630 0.43390 0.28600
C 	C 	0.32460 0.74910 0.37180 -0.24600
H 	H 	0.33020 0.77260 0.30940 0.12900
C 	C 	0.28340 0.76870 0.39770 0.07000
H 	H 	0.26070 0.80450 0.35200 0.02000
C 	C 	0.27270 0.73910 0.48720 -0.04100
C 	C 	0.30730 0.68850 0.55100 0.04800
H 	H 	0.30190 0.66690 0.61390 0.01700
C 	C 	0.34900 0.66930 0.52500 -0.22900
H 	H 	0.37220 0.63670 0.57060 0.10100
O 	O 	0.08170 0.27640 0.30710 -0.57100
O 	O 	0.04963 0.40700 0.39470 -0.70700
O 	O 	0.46600 0.01630 0.32250 -0.69400
O 	O 	0.46900 0.19830 0.40180 -0.51700
O 	O 	0.97420 0.26720 0.40120 -0.57400
O 	O 	0.93270 0.36130 0.49230 -0.49200
C 	C 	0.08260 0.33480 0.38070 0.58600
C 	C 	0.12230 0.33690 0.45710 -0.60700
H 	H 	0.12280 0.42460 0.49100 0.21200
H 	H 	0.11860 0.26450 0.50370 0.19300
C 	C 	0.16700 0.31750 0.41980 0.34700
C 	C 	0.18130 0.19470 0.40110 -0.30000
H 	H 	0.16260 0.11890 0.40790 0.11000
C 	C 	0.22310 0.17420 0.37170 0.11000
H 	H 	0.23220 0.08470 0.35870 -0.02600
C 	C 	0.25110 0.27890 0.36110 -0.10400
C 	C 	0.23670 0.39970 0.38320 0.12500
H 	H 	0.25540 0.47600 0.37830 -0.00900
C 	C 	0.19550 0.41940 0.41320 -0.30900
H 	H 	0.18710 0.50830 0.42960 0.13700
C 	C 	0.29610 0.25930 0.33110 -0.00600
C 	C 	0.31200 0.13370 0.30990 0.01500
H 	H 	0.29370 0.05640 0.31460 0.00500
C 	C 	0.35380 0.11660 0.28220 -0.21500
H 	H 	0.36350 0.02800 0.26890 0.08200
C 	C 	0.38100 0.22260 0.27350 0.23400
C 	C 	0.36660 0.34890 0.29180 -0.20200
H 	H 	0.38510 0.42500 0.28490 0.08100
C 	C 	0.32460 0.36690 0.32070 0.00500
H 	H 	0.31520 0.45600 0.33380 0.02800
C 	C 	0.42780 0.20270 0.24580 -0.52600
H 	H 	0.44040 0.29120 0.23050 0.16400
H 	H 	0.42640 0.14420 0.18890 0.16800
C 	C 	0.45700 0.13740 0.32770 0.54500
C 	C 	0.93760 0.27400 0.43340 0.53700
C 	C 	0.90350 0.16780 0.40560 -0.54000
H 	H 	0.90060 0.15620 0.33580 0.17100
H 	H 	0.91430 0.08090 0.43470 0.16800
C 	C 	0.85780 0.19630 0.43390 0.26300
C 	C 	0.82460 0.24910 0.37180 -0.24800
H 	H 	0.83020 0.27260 0.30940 0.11500
C 	C 	0.78340 0.26870 0.39770 0.05200
H 	H 	0.76070 0.30450 0.35200 0.01100
C 	C 	0.77270 0.23910 0.48720 -0.04900
C 	C 	0.80730 0.18850 0.55100 0.03600
H 	H 	0.80190 0.16690 0.61390 0.00900
C 	C 	0.84900 0.16930 0.52500 -0.22900
H 	H 	0.87220 0.13670 0.57060 0.09500
Pr	Pr	0.50000 0.17736 0.75000 2.05600
Pr	Pr	0.00000 0.67736 0.75000 2.02400
Pr	Pr	0.50000 0.82264 0.25000 2.08400
Pr	Pr	0.00000 0.32264 0.25000 2.01600
Pr	Pr	0.50000 0.00000 -0.00000 2.03700
Pr	Pr	-0.00000 0.50000 -0.00000 2.02000
Pr	Pr	0.50000 0.00000 0.50000 2.06400
Pr	Pr	0.00000 0.50000 0.50000 2.04400
