data_crystal

_cell_length_a 13.67440
_cell_length_b 13.67440
_cell_length_c 15.02250
_cell_angle_alpha 90.00000
_cell_angle_beta  90.00000
_cell_angle_gamma 120.00000

_symmetry_space_group_name_	'P 1'
_symmetry_space_group_name_H-M	'P 1'

loop_
_symmetry_equiv_pos_as_xyz
  x,y,z

loop_
_atom_site_label
_atom_site_type_symbol
_atom_site_fract_x
_atom_site_fract_y
_atom_site_fract_z
_atom_site_charge
N 	N 	0.84300 0.65920 0.28390 -0.19000
C 	C 	0.76660 0.68560 0.31300 0.01200
H 	H 	0.78500 0.73520 0.36060 0.01200
C 	C 	0.66080 0.64110 0.27440 -0.01000
H 	H 	0.60630 0.65420 0.29950 0.05600
C 	C 	0.63730 0.57620 0.19720 -0.12500
H 	H 	0.56920 0.55050 0.16720 0.10600
C 	C 	0.71620 0.55130 0.16680 0.14400
C 	C 	0.81870 0.59140 0.21150 -0.05700
H 	H 	0.87080 0.57150 0.19150 0.08200
N 	N 	0.69230 0.48940 0.08520 -0.24400
H 	H 	0.62740 0.46880 0.06180 0.16300
C 	C 	0.75840 0.45940 0.04050 0.21500
O 	O 	0.84520 0.46670 0.06870 -0.21300
C 	C 	0.72920 0.44160 0.93350 0.01700
C 	C 	0.78300 0.55010 0.87720 0.04900
N 	N 	0.74910 0.34360 0.91140 -0.23600
C 	C 	0.72110 0.26940 0.94030 0.40000
O 	O 	0.66370 0.24330 0.00720 -0.28600
C 	C 	0.74320 0.16010 0.91670 -0.09200
C 	C 	0.74420 0.14050 0.82670 0.06000
H 	H 	0.72550 0.18020 0.78650 0.02300
N 	N 	0.77190 0.06400 0.79580 -0.21600
C 	C 	0.80590 0.01550 0.85540 0.05100
H 	H 	0.82880 0.96580 0.83520 0.00600
C 	C 	0.80900 0.03500 0.94470 -0.13000
H 	H 	0.83740 0.00200 0.98330 0.07200
C 	C 	0.77070 0.10240 0.97760 0.07100
H 	H 	0.76350 0.10930 0.03850 0.01200
C 	C 	0.47450 0.79000 0.36790 0.03900
O 	O 	0.43540 0.82380 0.31180 0.01000
C 	C 	0.30740 0.60680 0.37410 0.01800
C 	C 	0.25370 0.50660 0.43890 -0.01700
N 	N 	0.34080 0.18380 0.95057 -0.20100
C 	C 	0.31440 0.08100 0.97967 0.07000
H 	H 	0.26480 0.04980 0.02727 -0.02100
C 	C 	0.35890 0.01970 0.94107 -0.07600
H 	H 	0.34580 0.95210 0.96617 0.09400
C 	C 	0.42380 0.06110 0.86387 -0.08800
H 	H 	0.44950 0.01870 0.83387 0.09000
C 	C 	0.44870 0.16490 0.83347 0.12600
C 	C 	0.40860 0.22730 0.87817 -0.04700
H 	H 	0.42850 0.29930 0.85817 0.07500
N 	N 	0.51060 0.20290 0.75187 -0.24400
H 	H 	0.53120 0.15860 0.72847 0.16500
C 	C 	0.54060 0.29900 0.70717 0.23000
O 	O 	0.53330 0.37850 0.73537 -0.21700
C 	C 	0.55840 0.28760 0.60017 0.02900
C 	C 	0.44990 0.23290 0.54387 0.02500
N 	N 	0.65640 0.40550 0.57807 -0.20800
C 	C 	0.73060 0.45170 0.60697 0.32400
O 	O 	0.75670 0.42040 0.67387 -0.27100
C 	C 	0.83990 0.58310 0.58337 -0.09800
C 	C 	0.85950 0.60370 0.49337 0.06700
H 	H 	0.81980 0.54530 0.45317 0.02300
N 	N 	0.93600 0.70790 0.46247 -0.22200
C 	C 	0.98450 0.79040 0.52207 0.12100
H 	H 	0.03420 0.86300 0.50187 -0.03900
C 	C 	0.96500 0.77400 0.61137 -0.15900
H 	H 	0.99800 0.83540 0.64997 0.08800
C 	C 	0.89760 0.66830 0.64427 0.06700
H 	H 	0.89070 0.65420 0.70517 0.02300
C 	C 	0.21000 0.68450 0.03457 0.10700
O 	O 	0.17620 0.61160 0.97847 -0.01700
C 	C 	0.39320 0.70060 0.04077 0.00300
C 	C 	0.49340 0.74710 0.10557 -0.01300
N 	N 	0.81620 0.15700 0.61723 -0.18900
C 	C 	0.91900 0.23340 0.64633 -0.00600
H 	H 	0.95020 0.21500 0.69393 0.02000
C 	C 	0.98030 0.33920 0.60773 0.03100
H 	H 	0.04790 0.39370 0.63283 0.03400
C 	C 	0.93890 0.36270 0.53053 -0.14800
H 	H 	0.98130 0.43080 0.50053 0.11900
C 	C 	0.83510 0.28380 0.50013 0.15400
C 	C 	0.77270 0.18130 0.54483 -0.06500
H 	H 	0.70070 0.12920 0.52483 0.07600
N 	N 	0.79710 0.30770 0.41853 -0.25000
H 	H 	0.84140 0.37260 0.39513 0.17100
C 	C 	0.70100 0.24160 0.37383 0.23200
O 	O 	0.62150 0.15480 0.40203 -0.22300
C 	C 	0.71240 0.27080 0.26683 0.02800
C 	C 	0.76710 0.21700 0.21053 0.02900
N 	N 	0.59450 0.25090 0.24473 -0.20800
C 	C 	0.54830 0.27890 0.27363 0.31800
O 	O 	0.57960 0.33630 0.34053 -0.26800
C 	C 	0.41690 0.25680 0.25003 -0.09200
C 	C 	0.39630 0.25580 0.16003 0.05900
H 	H 	0.45470 0.27450 0.11983 0.02100
N 	N 	0.29210 0.22810 0.12913 -0.22000
C 	C 	0.20960 0.19410 0.18873 0.07800
H 	H 	0.13700 0.17120 0.16853 -0.02200
C 	C 	0.22600 0.19100 0.27803 -0.13400
H 	H 	0.16460 0.16260 0.31663 0.06700
C 	C 	0.33170 0.22930 0.31093 0.04700
H 	H 	0.34580 0.23650 0.37183 0.02700
C 	C 	0.31550 0.52550 0.70123 0.04200
O 	O 	0.38840 0.56460 0.64513 0.00600
C 	C 	0.29940 0.69260 0.70743 0.02100
C 	C 	0.25290 0.74630 0.77223 -0.01900
N 	N 	0.65920 0.84300 0.71610 -0.18900
C 	C 	0.68560 0.76660 0.68700 0.01300
H 	H 	0.73520 0.78500 0.63940 0.01300
C 	C 	0.64110 0.66080 0.72560 -0.00700
H 	H 	0.65420 0.60630 0.70050 0.05600
C 	C 	0.57620 0.63730 0.80280 -0.12800
H 	H 	0.55050 0.56920 0.83280 0.10900
C 	C 	0.55130 0.71620 0.83320 0.14800
C 	C 	0.59140 0.81870 0.78850 -0.05900
H 	H 	0.57150 0.87080 0.80850 0.08300
N 	N 	0.48940 0.69230 0.91480 -0.25000
H 	H 	0.46880 0.62740 0.93820 0.17300
C 	C 	0.45940 0.75840 0.95950 0.24800
O 	O 	0.46670 0.84520 0.93130 -0.21500
C 	C 	0.44160 0.72920 0.06650 0.02500
C 	C 	0.55010 0.78300 0.12280 0.02400
N 	N 	0.34360 0.74910 0.08860 -0.16500
C 	C 	0.26940 0.72110 0.05970 0.20900
O 	O 	0.24330 0.66370 0.99280 -0.24300
C 	C 	0.16010 0.74320 0.08330 -0.06700
C 	C 	0.14050 0.74420 0.17330 0.04600
H 	H 	0.18020 0.72550 0.21350 0.02900
N 	N 	0.06400 0.77190 0.20420 -0.20700
C 	C 	0.01550 0.80590 0.14460 0.01700
H 	H 	0.96580 0.82880 0.16480 0.01600
C 	C 	0.03500 0.80900 0.05530 -0.07000
H 	H 	0.00200 0.83740 0.01670 0.04200
C 	C 	0.10240 0.77070 0.02240 -0.02300
H 	H 	0.10930 0.76350 0.96150 0.06000
C 	C 	0.79000 0.47450 0.63210 0.04000
O 	O 	0.82380 0.43540 0.68820 0.01100
C 	C 	0.60680 0.30740 0.62590 0.01900
C 	C 	0.50660 0.25370 0.56110 -0.01700
N 	N 	0.18380 0.34080 0.04943 -0.19300
C 	C 	0.08100 0.31440 0.02033 -0.00500
H 	H 	0.04980 0.26480 0.97273 0.02300
C 	C 	0.01970 0.35890 0.05893 -0.03400
H 	H 	0.95210 0.34580 0.03383 0.07000
C 	C 	0.06110 0.42380 0.13613 -0.11600
H 	H 	0.01870 0.44950 0.16613 0.09800
C 	C 	0.16490 0.44870 0.16653 0.13900
C 	C 	0.22730 0.40860 0.12183 -0.05700
H 	H 	0.29930 0.42850 0.14183 0.07700
N 	N 	0.20290 0.51060 0.24813 -0.24700
H 	H 	0.15860 0.53120 0.27153 0.16600
C 	C 	0.29900 0.54060 0.29283 0.23100
O 	O 	0.37850 0.53330 0.26463 -0.21800
C 	C 	0.28760 0.55840 0.39983 0.02900
C 	C 	0.23290 0.44990 0.45613 0.02400
N 	N 	0.40550 0.65640 0.42193 -0.20900
C 	C 	0.45170 0.73060 0.39303 0.32500
O 	O 	0.42040 0.75670 0.32613 -0.27100
C 	C 	0.58310 0.83990 0.41663 -0.09800
C 	C 	0.60370 0.85950 0.50663 0.06700
H 	H 	0.54530 0.81980 0.54683 0.02200
N 	N 	0.70790 0.93600 0.53753 -0.22300
C 	C 	0.79040 0.98450 0.47793 0.12200
H 	H 	0.86300 0.03420 0.49813 -0.04000
C 	C 	0.77400 0.96500 0.38863 -0.16000
H 	H 	0.83540 0.99800 0.35003 0.08800
C 	C 	0.66830 0.89760 0.35573 0.06800
H 	H 	0.65420 0.89070 0.29483 0.02300
C 	C 	0.68450 0.21000 0.96543 -0.01200
O 	O 	0.61160 0.17620 0.02153 0.01900
C 	C 	0.70060 0.39320 0.95923 0.05100
C 	C 	0.74710 0.49340 0.89443 -0.02600
N 	N 	0.15700 0.81620 0.38277 -0.18900
C 	C 	0.23340 0.91900 0.35367 -0.00700
H 	H 	0.21500 0.95020 0.30607 0.02100
C 	C 	0.33920 0.98030 0.39227 0.03400
H 	H 	0.39370 0.04790 0.36717 0.03300
C 	C 	0.36270 0.93890 0.46947 -0.15000
H 	H 	0.43080 0.98130 0.49947 0.12000
C 	C 	0.28380 0.83510 0.49987 0.15500
C 	C 	0.18130 0.77270 0.45517 -0.06500
H 	H 	0.12920 0.70070 0.47517 0.07700
N 	N 	0.30770 0.79710 0.58147 -0.25000
H 	H 	0.37260 0.84140 0.60487 0.17100
C 	C 	0.24160 0.70100 0.62617 0.23200
O 	O 	0.15480 0.62150 0.59797 -0.22200
C 	C 	0.27080 0.71240 0.73317 0.02700
C 	C 	0.21700 0.76710 0.78947 0.03100
N 	N 	0.25090 0.59450 0.75527 -0.20600
C 	C 	0.27890 0.54830 0.72637 0.31800
O 	O 	0.33630 0.57960 0.65947 -0.26800
C 	C 	0.25680 0.41690 0.74997 -0.09000
C 	C 	0.25580 0.39630 0.83997 0.05900
H 	H 	0.27450 0.45470 0.88017 0.02700
N 	N 	0.22810 0.29210 0.87087 -0.21600
C 	C 	0.19410 0.20960 0.81127 0.07700
H 	H 	0.17120 0.13700 0.83147 -0.01900
C 	C 	0.19100 0.22600 0.72197 -0.13200
H 	H 	0.16260 0.16460 0.68337 0.06700
C 	C 	0.22930 0.33170 0.68907 0.04600
H 	H 	0.23650 0.34580 0.62817 0.02700
C 	C 	0.52550 0.31550 0.29877 0.04100
O 	O 	0.56460 0.38840 0.35487 0.00600
C 	C 	0.69260 0.29940 0.29257 0.02100
C 	C 	0.74630 0.25290 0.22777 -0.01900
Cu	Cu	0.00000 0.73534 0.33333 0.86600
Br	Br	0.00000 0.53739 0.33333 -0.39100
Cu	Cu	0.26466 0.26466 -0.00000 0.86500
Br	Br	0.46261 0.46261 -0.00000 -0.39000
Cu	Cu	0.73534 0.00000 0.66667 0.86600
Br	Br	0.53739 0.00000 0.66667 -0.39100
