data_crystal

_cell_length_a 13.08420
_cell_length_b 13.08420
_cell_length_c 19.87800
_cell_angle_alpha 90.00000
_cell_angle_beta  90.00000
_cell_angle_gamma 120.00000

_symmetry_space_group_name_	'P 1'
_symmetry_space_group_name_H-M	'P 1'

loop_
_symmetry_equiv_pos_as_xyz
  x,y,z

loop_
_atom_site_label
_atom_site_type_symbol
_atom_site_fract_x
_atom_site_fract_y
_atom_site_fract_z
_atom_site_charge
N 	N 	0.28890 0.02910 0.59370 -0.22700
C 	C 	0.17880 0.95730 0.58480 0.07200
C 	C 	0.11920 0.96070 0.52730 0.00100
C 	C 	0.18650 0.05020 0.47630 -0.01200
C 	C 	0.30530 0.12550 0.49010 0.06100
C 	C 	0.35360 0.11620 0.55060 0.02500
N 	N 	0.38350 0.21960 0.44770 -0.13400
C 	C 	0.35850 0.27320 0.39770 0.20100
O 	O 	0.25710 0.23810 0.37730 -0.20800
C 	C 	0.46740 0.37700 0.36630 0.01600
C 	C 	0.50220 0.47700 0.41170 0.01100
C 	C 	0.61420 0.58040 0.39920 0.00200
C 	C 	0.72200 0.58300 0.39240 0.00800
C 	C 	0.83800 0.69600 0.38670 0.00200
C 	C 	0.84300 0.79900 0.38580 0.01600
C 	C 	0.73500 0.79500 0.39750 0.01400
C 	C 	0.62600 0.69000 0.40050 0.01000
N 	N 	0.43530 0.40350 0.29960 -0.12800
C 	C 	0.49620 0.40700 0.24390 0.23400
O 	O 	0.57660 0.38810 0.24340 -0.22700
C 	C 	0.44750 0.42900 0.17940 -0.08400
C 	C 	0.33110 0.39430 0.17120 0.03900
C 	C 	0.29750 0.42600 0.10970 -0.02300
C 	C 	0.38500 0.48850 0.06290 0.03300
N 	N 	0.50010 0.52030 0.07100 -0.23100
C 	C 	0.52930 0.49070 0.12770 0.07200
N 	N 	0.97090 0.25980 0.26037 -0.20300
C 	C 	0.04270 0.22150 0.25147 0.04100
C 	C 	0.03930 0.15850 0.19397 -0.03600
C 	C 	0.94980 0.13630 0.14297 0.02700
C 	C 	0.87450 0.17980 0.15677 0.05300
C 	C 	0.88380 0.23740 0.21727 0.03200
N 	N 	0.78040 0.16390 0.11437 -0.13400
C 	C 	0.72680 0.08530 0.06437 0.20000
O 	O 	0.76190 0.01900 0.04397 -0.22400
C 	C 	0.62300 0.09040 0.03297 -0.00800
C 	C 	0.52300 0.02520 0.07837 0.00700
C 	C 	0.41960 0.03380 0.06587 -0.02000
C 	C 	0.41700 0.13900 0.05907 0.00100
C 	C 	0.30400 0.14200 0.05337 -0.00600
C 	C 	0.20100 0.04400 0.05247 -0.02700
C 	C 	0.20500 0.94000 0.06417 0.01900
C 	C 	0.31000 0.93600 0.06717 0.02100
N 	N 	0.59650 0.03180 0.96627 -0.11400
C 	C 	0.59300 0.08920 0.91057 0.23900
O 	O 	0.61190 0.18850 0.91007 -0.21800
C 	C 	0.57100 0.01850 0.84607 -0.10500
C 	C 	0.60570 0.93680 0.83787 0.07000
C 	C 	0.57400 0.87150 0.77637 -0.02100
C 	C 	0.51150 0.89650 0.72957 0.05200
N 	N 	0.47970 0.97980 0.73767 -0.21500
C 	C 	0.50930 0.03860 0.79437 0.06300
N 	N 	0.74020 0.71110 0.92703 -0.21100
C 	C 	0.77850 0.82120 0.91813 0.07700
C 	C 	0.84150 0.88080 0.86063 -0.00200
C 	C 	0.86370 0.81350 0.80963 0.02100
C 	C 	0.82020 0.69470 0.82343 0.05600
C 	C 	0.76260 0.64640 0.88393 0.04000
N 	N 	0.83610 0.61650 0.78103 -0.12900
C 	C 	0.91470 0.64150 0.73103 0.20100
O 	O 	0.98100 0.74290 0.71063 -0.19400
C 	C 	0.90960 0.53260 0.69963 0.01800
C 	C 	0.97480 0.49780 0.74503 0.01600
C 	C 	0.96620 0.38580 0.73253 0.02200
C 	C 	0.86100 0.27800 0.72573 0.00700
C 	C 	0.85800 0.16200 0.72003 -0.01000
C 	C 	0.95600 0.15700 0.71913 0.02700
C 	C 	0.06000 0.26500 0.73083 -0.00700
C 	C 	0.06400 0.37400 0.73383 -0.00800
N 	N 	0.96820 0.56470 0.63293 -0.12200
C 	C 	0.91080 0.50380 0.57723 0.23200
O 	O 	0.81150 0.42340 0.57673 -0.22500
C 	C 	0.98150 0.55250 0.51273 -0.06200
C 	C 	0.06320 0.66890 0.50453 0.01400
C 	C 	0.12850 0.70250 0.44303 -0.01200
C 	C 	0.10350 0.61500 0.39623 0.03800
N 	N 	0.02020 0.49990 0.40433 -0.24000
C 	C 	0.96140 0.47070 0.46103 0.08900
N 	N 	0.02910 0.28890 0.40630 -0.22900
C 	C 	0.95730 0.17880 0.41520 0.07200
C 	C 	0.96070 0.11920 0.47270 0.00100
C 	C 	0.05020 0.18650 0.52370 -0.01300
C 	C 	0.12550 0.30530 0.50990 0.06100
C 	C 	0.11620 0.35360 0.44940 0.02500
N 	N 	0.21960 0.38350 0.55230 -0.13400
C 	C 	0.27320 0.35850 0.60230 0.20100
O 	O 	0.23810 0.25710 0.62270 -0.20800
C 	C 	0.37700 0.46740 0.63370 0.01600
C 	C 	0.47700 0.50220 0.58830 0.01100
C 	C 	0.58040 0.61420 0.60080 0.00200
C 	C 	0.58300 0.72200 0.60760 0.00800
C 	C 	0.69600 0.83800 0.61330 0.00200
C 	C 	0.79900 0.84300 0.61420 0.01600
C 	C 	0.79500 0.73500 0.60250 0.01400
C 	C 	0.69000 0.62600 0.59950 0.01100
N 	N 	0.40350 0.43530 0.70040 -0.12800
C 	C 	0.40700 0.49620 0.75610 0.23500
O 	O 	0.38810 0.57660 0.75660 -0.22500
C 	C 	0.42900 0.44750 0.82060 -0.08500
C 	C 	0.39430 0.33110 0.82880 0.04100
C 	C 	0.42600 0.29750 0.89030 -0.01600
C 	C 	0.48850 0.38500 0.93710 0.05900
N 	N 	0.52030 0.50010 0.92900 -0.22200
C 	C 	0.49070 0.52930 0.87230 0.07900
N 	N 	0.25980 0.97090 0.73963 -0.20300
C 	C 	0.22150 0.04270 0.74853 0.04200
C 	C 	0.15850 0.03930 0.80603 -0.03400
C 	C 	0.13630 0.94980 0.85703 0.03600
C 	C 	0.17980 0.87450 0.84323 0.05500
C 	C 	0.23740 0.88380 0.78273 0.03400
N 	N 	0.16390 0.78040 0.88563 -0.12800
C 	C 	0.08530 0.72680 0.93563 0.19600
O 	O 	0.01900 0.76190 0.95603 -0.19700
C 	C 	0.09040 0.62300 0.96703 0.04400
C 	C 	0.02520 0.52300 0.92163 0.00500
C 	C 	0.03380 0.41960 0.93413 -0.01500
C 	C 	0.13900 0.41700 0.94093 0.01500
C 	C 	0.14200 0.30400 0.94663 0.00800
C 	C 	0.04400 0.20100 0.94753 -0.01100
C 	C 	0.94000 0.20500 0.93583 0.03100
C 	C 	0.93600 0.31000 0.93283 0.03500
N 	N 	0.03180 0.59650 0.03373 -0.15300
C 	C 	0.08920 0.59300 0.08943 0.23500
O 	O 	0.18850 0.61190 0.08993 -0.23500
C 	C 	0.01850 0.57100 0.15393 -0.10700
C 	C 	0.93680 0.60570 0.16213 0.06400
C 	C 	0.87150 0.57400 0.22363 -0.02100
C 	C 	0.89650 0.51150 0.27043 0.05200
N 	N 	0.97980 0.47970 0.26233 -0.21400
C 	C 	0.03860 0.50930 0.20563 0.06000
N 	N 	0.71110 0.74020 0.07297 -0.21900
C 	C 	0.82120 0.77850 0.08187 0.05400
C 	C 	0.88080 0.84150 0.13937 -0.00200
C 	C 	0.81350 0.86370 0.19037 0.01900
C 	C 	0.69470 0.82020 0.17657 0.05900
C 	C 	0.64640 0.76260 0.11607 0.03100
N 	N 	0.61650 0.83610 0.21897 -0.13100
C 	C 	0.64150 0.91470 0.26897 0.20100
O 	O 	0.74290 0.98100 0.28937 -0.19500
C 	C 	0.53260 0.90960 0.30037 0.01800
C 	C 	0.49780 0.97480 0.25497 0.01500
C 	C 	0.38580 0.96620 0.26747 0.02100
C 	C 	0.27800 0.86100 0.27427 0.00600
C 	C 	0.16200 0.85800 0.27997 -0.01000
C 	C 	0.15700 0.95600 0.28087 0.02600
C 	C 	0.26500 0.06000 0.26917 -0.00600
C 	C 	0.37400 0.06400 0.26617 -0.00700
N 	N 	0.56470 0.96820 0.36707 -0.12300
C 	C 	0.50380 0.91080 0.42277 0.23200
O 	O 	0.42340 0.81150 0.42327 -0.22500
C 	C 	0.55250 0.98150 0.48727 -0.06300
C 	C 	0.66890 0.06320 0.49547 0.01600
C 	C 	0.70250 0.12850 0.55697 -0.01300
C 	C 	0.61500 0.10350 0.60377 0.03800
N 	N 	0.49990 0.02020 0.59567 -0.23900
C 	C 	0.47070 0.96140 0.53897 0.08800
Cu	Cu	0.61840 0.61840 -0.00000 0.84700
Cu	Cu	0.38160 0.00000 0.66667 0.85100
Cu	Cu	0.00000 0.38160 0.33333 0.85000
