data_crystal

_cell_length_a 12.92920
_cell_length_b 12.92920
_cell_length_c 20.10390
_cell_angle_alpha 90.00000
_cell_angle_beta  90.00000
_cell_angle_gamma 120.00000

_symmetry_space_group_name_	'P 1'
_symmetry_space_group_name_H-M	'P 1'

loop_
_symmetry_equiv_pos_as_xyz
  x,y,z

loop_
_atom_site_label
_atom_site_type_symbol
_atom_site_fract_x
_atom_site_fract_y
_atom_site_fract_z
_atom_site_charge
Cu	Cu	0.62047 1.00000 -0.00000 0.83200
Cu	Cu	0.37953 0.37953 0.33333 0.84600
Cu	Cu	0.00000 0.62047 0.66667 0.84100
H 	H 	0.87140 0.10010 0.94650 0.01900
H 	H 	0.95910 0.08800 0.84930 0.00900
H 	H 	0.84660 0.94510 0.77020 0.08200
H 	H 	0.56870 0.82170 0.89440 0.01900
H 	H 	0.54230 0.73750 0.79270 0.10400
H 	H 	0.47250 0.64050 0.69160 -0.07800
H 	H 	0.47850 0.52610 0.78050 0.27700
H 	H 	0.56550 0.49810 0.74050 0.30400
H 	H 	0.40630 0.39440 0.66050 -0.40300
H 	H 	0.21300 0.33060 0.69820 0.62000
H 	H 	0.28550 0.46950 0.68870 0.64900
H 	H 	0.26590 0.41440 0.76020 0.59200
H 	H 	0.37590 0.29660 0.78890 0.55400
H 	H 	0.44700 0.28030 0.73060 0.61600
H 	H 	0.30760 0.21970 0.72660 0.60900
H 	H 	0.63840 0.60750 0.62340 0.13700
H 	H 	0.72890 0.64970 0.53250 -0.01200
H 	H 	0.78550 0.60570 0.43160 0.08100
H 	H 	0.64220 0.49590 0.35420 -0.05400
H 	H 	0.39360 0.48920 0.46690 -0.00900
H 	H 	0.22870 0.12860 0.27983 0.01300
H 	H 	0.12890 0.04090 0.18263 0.01300
H 	H 	0.09850 0.15340 0.10353 0.07400
H 	H 	0.25300 0.43130 0.22773 0.01500
H 	H 	0.19520 0.45770 0.12603 0.10500
H 	H 	0.16800 0.52750 0.02493 -0.06100
H 	H 	0.04760 0.52150 0.11383 0.23800
H 	H 	0.93260 0.43450 0.07383 0.27100
H 	H 	0.98810 0.59370 0.99383 -0.29900
H 	H 	0.11760 0.78700 0.03153 0.52100
H 	H 	0.18400 0.71450 0.02203 0.54900
H 	H 	0.14850 0.73410 0.09353 0.50100
H 	H 	0.92070 0.62410 0.12223 0.46900
H 	H 	0.83330 0.55300 0.06393 0.52300
H 	H 	0.91210 0.69240 0.05993 0.51700
H 	H 	0.96910 0.36160 0.95673 0.14900
H 	H 	0.92080 0.27110 0.86583 -0.01700
H 	H 	0.82020 0.21450 0.76493 0.08500
H 	H 	0.85370 0.35780 0.68753 -0.05600
H 	H 	0.09560 0.60640 0.80023 -0.00900
H 	H 	0.89990 0.77130 0.61317 0.01100
H 	H 	0.91200 0.87110 0.51597 0.00300
H 	H 	0.05490 0.90150 0.43687 0.07800
H 	H 	0.17830 0.74700 0.56107 0.01700
H 	H 	0.26250 0.80480 0.45937 0.10400
H 	H 	0.35950 0.83200 0.35827 -0.07000
H 	H 	0.47390 0.95240 0.44717 0.26300
H 	H 	0.50190 0.06740 0.40717 0.30000
H 	H 	0.60560 0.01190 0.32717 -0.35100
H 	H 	0.66940 0.88240 0.36487 0.57700
H 	H 	0.53050 0.81600 0.35537 0.60700
H 	H 	0.58560 0.85150 0.42687 0.55200
H 	H 	0.70340 0.07930 0.45557 0.51500
H 	H 	0.71970 0.16670 0.39727 0.57200
H 	H 	0.78030 0.08790 0.39327 0.56900
H 	H 	0.39250 0.03090 0.29007 0.15100
H 	H 	0.35030 0.07920 0.19917 -0.02100
H 	H 	0.39430 0.17980 0.09827 0.08500
H 	H 	0.50410 0.14630 0.02087 -0.06100
H 	H 	0.51080 0.90440 0.13357 -0.00900
H 	H 	0.77130 0.89990 0.05350 0.00700
H 	H 	0.87110 0.91200 0.15070 0.02000
H 	H 	0.90150 0.05490 0.22980 0.07000
H 	H 	0.74700 0.17830 0.10560 0.01500
H 	H 	0.80480 0.26250 0.20730 0.10500
H 	H 	0.83200 0.35950 0.30840 -0.08600
H 	H 	0.95240 0.47390 0.21950 0.30700
H 	H 	0.06740 0.50190 0.25950 0.32000
H 	H 	0.01190 0.60560 0.33950 -0.46300
H 	H 	0.88240 0.66940 0.30180 0.68100
H 	H 	0.81600 0.53050 0.31130 0.70800
H 	H 	0.85150 0.58560 0.23980 0.65600
H 	H 	0.07930 0.70340 0.21110 0.61900
H 	H 	0.16670 0.71970 0.26940 0.67600
H 	H 	0.08790 0.78030 0.27340 0.66400
H 	H 	0.03090 0.39250 0.37660 0.12700
H 	H 	0.07920 0.35030 0.46750 -0.00500
H 	H 	0.17980 0.39430 0.56840 0.07500
H 	H 	0.14630 0.50410 0.64580 -0.05100
H 	H 	0.90440 0.51080 0.53310 -0.00900
H 	H 	0.10010 0.87140 0.72017 0.00800
H 	H 	0.08800 0.95910 0.81737 0.01200
H 	H 	0.94510 0.84660 0.89647 0.07200
H 	H 	0.82170 0.56870 0.77227 0.01500
H 	H 	0.73750 0.54230 0.87397 0.10400
H 	H 	0.64050 0.47250 0.97507 -0.08700
H 	H 	0.52610 0.47850 0.88617 0.31000
H 	H 	0.49810 0.56550 0.92617 0.33800
H 	H 	0.39440 0.40630 0.00617 -0.46800
H 	H 	0.33060 0.21300 0.96847 0.68900
H 	H 	0.46950 0.28550 0.97797 0.71900
H 	H 	0.41440 0.26590 0.90647 0.65800
H 	H 	0.29660 0.37590 0.87777 0.61500
H 	H 	0.28030 0.44700 0.93607 0.67800
H 	H 	0.21970 0.30760 0.94007 0.67000
H 	H 	0.60750 0.63840 0.04327 0.13600
H 	H 	0.64970 0.72890 0.13417 -0.01200
H 	H 	0.60570 0.78550 0.23507 0.07800
H 	H 	0.49590 0.64220 0.31247 -0.05000
H 	H 	0.48920 0.39360 0.19977 -0.00900
H 	H 	0.12860 0.22870 0.38683 0.00900
H 	H 	0.04090 0.12890 0.48403 0.01000
H 	H 	0.15340 0.09850 0.56313 0.07500
H 	H 	0.43130 0.25300 0.43893 0.01700
H 	H 	0.45770 0.19520 0.54063 0.10400
H 	H 	0.52750 0.16800 0.64173 -0.08600
H 	H 	0.52150 0.04760 0.55283 0.30400
H 	H 	0.43450 0.93260 0.59283 0.31700
H 	H 	0.59370 0.98810 0.67283 -0.46300
H 	H 	0.78700 0.11760 0.63513 0.68400
H 	H 	0.71450 0.18400 0.64463 0.70900
H 	H 	0.73410 0.14850 0.57313 0.65500
H 	H 	0.62410 0.92070 0.54443 0.61600
H 	H 	0.55300 0.83330 0.60273 0.67500
H 	H 	0.69240 0.91210 0.60673 0.66600
H 	H 	0.36160 0.96910 0.70993 0.12600
H 	H 	0.27110 0.92080 0.80083 -0.00500
H 	H 	0.21450 0.82020 0.90173 0.07700
H 	H 	0.35780 0.85370 0.97913 -0.03900
H 	H 	0.60640 0.09560 0.86643 -0.00700
C 	C 	0.82580 0.04160 0.91544 0.00600
C 	C 	0.87870 0.03450 0.85704 -0.00200
C 	C 	0.81240 0.94820 0.81029 -0.13200
C 	C 	0.69490 0.86670 0.82412 0.11900
C 	C 	0.64740 0.87780 0.88414 -0.04400
C 	C 	0.64600 0.73240 0.72703 0.10200
C 	C 	0.53880 0.62440 0.69501 0.28900
C 	C 	0.49880 0.51220 0.73625 -0.97800
C 	C 	0.39160 0.39910 0.70788 1.43900
C 	C 	0.27890 0.40380 0.71430 -2.04000
C 	C 	0.37940 0.28880 0.74160 -1.97800
C 	C 	0.50700 0.59540 0.57425 0.24700
C 	C 	0.55370 0.57270 0.51081 -0.14300
C 	C 	0.67210 0.60790 0.49983 0.06200
C 	C 	0.70570 0.58070 0.44013 -0.17800
C 	C 	0.61970 0.51640 0.39375 0.08900
C 	C 	0.47320 0.51120 0.46051 0.07300
C 	C 	0.21580 0.17420 0.24877 0.00300
C 	C 	0.15580 0.12130 0.19037 -0.02400
C 	C 	0.13580 0.18760 0.14362 -0.11200
C 	C 	0.17180 0.30510 0.15745 0.11200
C 	C 	0.23040 0.35260 0.21747 -0.04000
C 	C 	0.08640 0.35400 0.06036 0.11600
C 	C 	0.08560 0.46120 0.02834 0.22700
C 	C 	0.01340 0.50120 0.06958 -0.84700
C 	C 	0.00750 0.60840 0.04121 1.16600
C 	C 	0.12490 0.72110 0.04763 -1.73500
C 	C 	0.90940 0.62060 0.07493 -1.67700
C 	C 	0.08840 0.49300 0.90758 0.24600
C 	C 	0.01900 0.44630 0.84414 -0.15900
C 	C 	0.93580 0.32790 0.83316 0.08400
C 	C 	0.87500 0.29430 0.77346 -0.18800
C 	C 	0.89670 0.38030 0.72708 0.09600
C 	C 	0.03800 0.52680 0.79384 0.06500
C 	C 	0.95840 0.78420 0.58211 0.00700
C 	C 	0.96550 0.84420 0.52371 -0.00400
C 	C 	0.05180 0.86420 0.47696 -0.13500
C 	C 	0.13330 0.82820 0.49079 0.11800
C 	C 	0.12220 0.76960 0.55081 -0.04600
C 	C 	0.26760 0.91360 0.39370 0.10600
C 	C 	0.37560 0.91440 0.36168 0.27000
C 	C 	0.48780 0.98660 0.40292 -0.93700
C 	C 	0.60090 0.99250 0.37455 1.30800
C 	C 	0.59620 0.87510 0.38097 -1.90200
C 	C 	0.71120 0.09060 0.40827 -1.82900
C 	C 	0.40460 0.91160 0.24092 0.25100
C 	C 	0.42730 0.98100 0.17748 -0.16700
C 	C 	0.39210 0.06420 0.16650 0.09500
C 	C 	0.41930 0.12500 0.10680 -0.19400
C 	C 	0.48360 0.10330 0.06042 0.10000
C 	C 	0.48880 0.96200 0.12718 0.06200
C 	C 	0.78420 0.95840 0.08456 -0.00100
C 	C 	0.84420 0.96550 0.14296 -0.05400
C 	C 	0.86420 0.05180 0.18971 -0.07700
C 	C 	0.82820 0.13330 0.17588 0.10400
C 	C 	0.76960 0.12220 0.11586 -0.03000
C 	C 	0.91360 0.26760 0.27297 0.09600
C 	C 	0.91440 0.37560 0.30499 0.31900
C 	C 	0.98660 0.48780 0.26375 -1.05300
C 	C 	0.99250 0.60090 0.29212 1.60800
C 	C 	0.87510 0.59620 0.28570 -2.23200
C 	C 	0.09060 0.71120 0.25840 -2.17700
C 	C 	0.91160 0.40460 0.42575 0.24700
C 	C 	0.98100 0.42730 0.48919 -0.12500
C 	C 	0.06420 0.39210 0.50017 0.03700
C 	C 	0.12500 0.41930 0.55987 -0.16400
C 	C 	0.10330 0.48360 0.60625 0.07800
C 	C 	0.96200 0.48880 0.53949 0.07800
C 	C 	0.04160 0.82580 0.75123 -0.00100
C 	C 	0.03450 0.87870 0.80963 -0.04400
C 	C 	0.94820 0.81240 0.85638 -0.08900
C 	C 	0.86670 0.69490 0.84255 0.10600
C 	C 	0.87780 0.64740 0.78253 -0.03400
C 	C 	0.73240 0.64600 0.93964 0.09000
C 	C 	0.62440 0.53880 0.97166 0.34100
C 	C 	0.51220 0.49880 0.93042 -1.08600
C 	C 	0.39910 0.39160 0.95879 1.61900
C 	C 	0.40380 0.27890 0.95237 -2.25000
C 	C 	0.28880 0.37940 0.92507 -2.17400
C 	C 	0.59540 0.50700 0.09242 0.25200
C 	C 	0.57270 0.55370 0.15586 -0.14300
C 	C 	0.60790 0.67210 0.16684 0.05900
C 	C 	0.58070 0.70570 0.22654 -0.17400
C 	C 	0.51640 0.61970 0.27292 0.08600
C 	C 	0.51120 0.47320 0.20616 0.07200
C 	C 	0.17420 0.21580 0.41789 0.00500
C 	C 	0.12130 0.15580 0.47629 -0.02300
C 	C 	0.18760 0.13580 0.52304 -0.11000
C 	C 	0.30510 0.17180 0.50921 0.11400
C 	C 	0.35260 0.23040 0.44919 -0.03800
C 	C 	0.35400 0.08640 0.60630 0.09600
C 	C 	0.46120 0.08560 0.63832 0.31700
C 	C 	0.50120 0.01340 0.59708 -1.04800
C 	C 	0.60840 0.00750 0.62545 1.60800
C 	C 	0.72110 0.12490 0.61903 -2.23300
C 	C 	0.62060 0.90940 0.59173 -2.17600
C 	C 	0.49300 0.08840 0.75908 0.24500
C 	C 	0.44630 0.01900 0.82252 -0.12500
C 	C 	0.32790 0.93580 0.83350 0.03500
C 	C 	0.29430 0.87500 0.89320 -0.15900
C 	C 	0.38030 0.89670 0.93958 0.07700
C 	C 	0.52680 0.03800 0.87282 0.07500
N 	N 	0.71040 0.96600 0.92799 -0.20200
N 	N 	0.61680 0.77310 0.78228 -0.21400
N 	N 	0.57280 0.60850 0.62824 -0.27500
N 	N 	0.50420 0.48180 0.40315 -0.24400
N 	N 	0.25560 0.28960 0.26132 -0.20300
N 	N 	0.15630 0.38320 0.11561 -0.21700
N 	N 	0.03570 0.42720 0.96157 -0.27200
N 	N 	0.97760 0.49580 0.73648 -0.23800
N 	N 	0.03400 0.74440 0.59466 -0.20800
N 	N 	0.22690 0.84370 0.44895 -0.21600
N 	N 	0.39150 0.96430 0.29491 -0.28800
N 	N 	0.51820 0.02240 0.06982 -0.23700
N 	N 	0.74440 0.03400 0.07201 -0.19500
N 	N 	0.84370 0.22690 0.21772 -0.20800
N 	N 	0.96430 0.39150 0.37176 -0.26800
N 	N 	0.02240 0.51820 0.59685 -0.24900
N 	N 	0.96600 0.71040 0.73868 -0.19700
N 	N 	0.77310 0.61680 0.88439 -0.20800
N 	N 	0.60850 0.57280 0.03843 -0.28800
N 	N 	0.48180 0.50420 0.26352 -0.24400
N 	N 	0.28960 0.25560 0.40534 -0.20300
N 	N 	0.38320 0.15630 0.55105 -0.21000
N 	N 	0.42720 0.03570 0.70509 -0.26800
N 	N 	0.49580 0.97760 0.93018 -0.24300
O 	O 	0.74620 0.77410 0.70578 -0.23600
O 	O 	0.41490 0.60030 0.57535 -0.30100
O 	O 	0.02790 0.25380 0.03911 -0.25000
O 	O 	0.18540 0.58510 0.90868 -0.29600
O 	O 	0.22590 0.97210 0.37245 -0.24600
O 	O 	0.39970 0.81460 0.24202 -0.30200
O 	O 	0.97210 0.22590 0.29422 -0.22400
O 	O 	0.81460 0.39970 0.42465 -0.29700
O 	O 	0.77410 0.74620 0.96089 -0.22100
O 	O 	0.60030 0.41490 0.09132 -0.30100
O 	O 	0.25380 0.02790 0.62755 -0.22800
O 	O 	0.58510 0.18540 0.75798 -0.29800
