data_crystal

_cell_length_a 13.38600
_cell_length_b 13.38600
_cell_length_c 14.46460
_cell_angle_alpha 90.00000
_cell_angle_beta  90.00000
_cell_angle_gamma 120.00000

_symmetry_space_group_name_	'P 1'
_symmetry_space_group_name_H-M	'P 1'

loop_
_symmetry_equiv_pos_as_xyz
  x,y,z

loop_
_atom_site_label
_atom_site_type_symbol
_atom_site_fract_x
_atom_site_fract_y
_atom_site_fract_z
_atom_site_charge
Tb	Tb	0.33333 0.66666 0.83226 2.01000
Tb	Tb	0.66667 0.33334 0.66774 2.01000
Tb	Tb	0.66667 0.33334 0.16774 2.00600
Tb	Tb	0.33333 0.66666 0.33226 2.00500
Cu	Cu	-0.00000 0.50000 -0.00000 0.87100
Cu	Cu	0.50000 0.00000 -0.00000 0.86900
Cu	Cu	0.50000 0.50000 -0.00000 0.90000
Cu	Cu	0.50000 0.50000 0.50000 0.92700
Cu	Cu	0.50000 0.00000 0.50000 0.89600
Cu	Cu	-0.00000 0.50000 0.50000 0.89800
H 	H 	0.97710 0.65060 0.07820 0.15500
H 	H 	0.08390 0.68470 0.19380 0.12900
H 	H 	0.19260 0.73260 0.12960 0.15100
H 	H 	0.13940 0.82040 0.01990 0.02600
H 	H 	0.04080 0.74660 0.94910 0.05800
H 	H 	0.67350 0.02290 0.07820 0.03400
H 	H 	0.60080 0.91610 0.19380 0.17200
H 	H 	0.54000 0.80740 0.12960 0.15600
H 	H 	0.68100 0.86060 0.01990 0.04800
H 	H 	0.70580 0.95920 0.94910 0.11700
H 	H 	0.34940 0.32650 0.07820 0.09000
H 	H 	0.31530 0.39920 0.19380 0.14000
H 	H 	0.26740 0.46000 0.12960 0.14600
H 	H 	0.17960 0.31900 0.01990 0.00500
H 	H 	0.25340 0.29420 0.94910 0.06400
H 	H 	0.32650 0.34940 0.42180 0.09100
H 	H 	0.39920 0.31530 0.30620 0.14400
H 	H 	0.46000 0.26740 0.37040 0.15900
H 	H 	0.31900 0.17960 0.48010 0.11000
H 	H 	0.29420 0.25340 0.55090 0.11400
H 	H 	0.65060 0.97710 0.42180 0.15900
H 	H 	0.68470 0.08390 0.30620 0.13100
H 	H 	0.73260 0.19260 0.37040 0.16300
H 	H 	0.82040 0.13940 0.48010 0.12700
H 	H 	0.74660 0.04080 0.55090 0.10400
H 	H 	0.02290 0.67350 0.42180 0.03900
H 	H 	0.91610 0.60080 0.30620 0.17500
H 	H 	0.80740 0.54000 0.37040 0.16800
H 	H 	0.86060 0.68100 0.48010 0.14700
H 	H 	0.95920 0.70580 0.55090 0.16300
H 	H 	0.02290 0.34940 0.92180 0.04100
H 	H 	0.91610 0.31530 0.80620 0.17000
H 	H 	0.80740 0.26740 0.87040 0.17500
H 	H 	0.86060 0.17960 0.98010 0.22800
H 	H 	0.95920 0.25340 0.05090 0.19600
H 	H 	0.32650 0.97710 0.92180 0.15600
H 	H 	0.39920 0.08390 0.80620 0.12800
H 	H 	0.46000 0.19260 0.87040 0.17100
H 	H 	0.31900 0.13940 0.98010 0.21400
H 	H 	0.29420 0.04080 0.05090 0.14000
H 	H 	0.65060 0.67350 0.92180 0.10100
H 	H 	0.68470 0.60080 0.80620 0.16000
H 	H 	0.73260 0.54000 0.87040 0.18100
H 	H 	0.82040 0.68100 0.98010 0.24700
H 	H 	0.74660 0.70580 0.05090 0.18800
H 	H 	0.67350 0.65060 0.57820 0.09900
H 	H 	0.60080 0.68470 0.69380 0.15800
H 	H 	0.54000 0.73260 0.62960 0.17000
H 	H 	0.68100 0.82040 0.51990 0.14800
H 	H 	0.70580 0.74660 0.44910 0.14100
H 	H 	0.34940 0.02290 0.57820 0.03300
H 	H 	0.31530 0.91610 0.69380 0.16900
H 	H 	0.26740 0.80740 0.62960 0.16400
H 	H 	0.17960 0.86060 0.51990 0.13000
H 	H 	0.25340 0.95920 0.44910 0.15100
H 	H 	0.97710 0.32650 0.57820 0.15200
H 	H 	0.08390 0.39920 0.69380 0.12700
H 	H 	0.19260 0.46000 0.62960 0.15900
H 	H 	0.13940 0.31900 0.51990 0.11000
H 	H 	0.04080 0.29420 0.44910 0.09100
C 	C 	0.12590 0.56360 0.16020 0.47300
C 	C 	0.11600 0.66730 0.14010 -0.37300
C 	C 	0.18400 0.73110 0.92990 0.34100
C 	C 	0.09930 0.74650 0.98860 -0.09700
C 	C 	0.43770 0.87410 0.16020 0.48800
C 	C 	0.55130 0.88400 0.14010 -0.39000
C 	C 	0.54710 0.81600 0.92990 0.36400
C 	C 	0.64720 0.90070 0.98860 -0.13700
C 	C 	0.43640 0.56230 0.16020 0.47800
C 	C 	0.33270 0.44870 0.14010 -0.37700
C 	C 	0.26890 0.45290 0.92990 0.34300
C 	C 	0.25350 0.35280 0.98860 -0.09100
C 	C 	0.56230 0.43640 0.33980 0.48600
C 	C 	0.44870 0.33270 0.35990 -0.38700
C 	C 	0.45290 0.26890 0.57010 0.39400
C 	C 	0.35280 0.25350 0.51140 -0.30200
C 	C 	0.56360 0.12590 0.33980 0.48000
C 	C 	0.66730 0.11600 0.35990 -0.38300
C 	C 	0.73110 0.18400 0.57010 0.39000
C 	C 	0.74650 0.09930 0.51140 -0.30100
C 	C 	0.87410 0.43770 0.33980 0.49500
C 	C 	0.88400 0.55130 0.35990 -0.40000
C 	C 	0.81600 0.54710 0.57010 0.41200
C 	C 	0.90070 0.64720 0.51140 -0.33400
C 	C 	0.87410 0.43640 0.83980 0.49900
C 	C 	0.88400 0.33270 0.85990 -0.40100
C 	C 	0.81600 0.26890 0.07010 0.45600
C 	C 	0.90070 0.25350 0.01140 -0.51800
C 	C 	0.56230 0.12590 0.83980 0.48500
C 	C 	0.44870 0.11600 0.85990 -0.38500
C 	C 	0.45290 0.18400 0.07010 0.43700
C 	C 	0.35280 0.09930 0.01140 -0.49700
C 	C 	0.56360 0.43770 0.83980 0.49600
C 	C 	0.66730 0.55130 0.85990 -0.40200
C 	C 	0.73110 0.54710 0.07010 0.45300
C 	C 	0.74650 0.64720 0.01140 -0.52200
C 	C 	0.43770 0.56360 0.66020 0.49000
C 	C 	0.55130 0.66730 0.64010 -0.39700
C 	C 	0.54710 0.73110 0.42990 0.40400
C 	C 	0.64720 0.74650 0.48860 -0.32600
C 	C 	0.43640 0.87410 0.66020 0.49300
C 	C 	0.33270 0.88400 0.64010 -0.39600
C 	C 	0.26890 0.81600 0.42990 0.40800
C 	C 	0.25350 0.90070 0.48860 -0.32300
C 	C 	0.12590 0.56230 0.66020 0.47900
C 	C 	0.11600 0.44870 0.64010 -0.38000
C 	C 	0.18400 0.45290 0.42990 0.38500
C 	C 	0.09930 0.35280 0.48860 -0.29000
N 	N 	0.04270 0.65280 0.05840 -0.25300
N 	N 	0.61010 0.95730 0.05840 -0.13600
N 	N 	0.34720 0.38990 0.05840 -0.20500
N 	N 	0.38990 0.34720 0.44160 -0.15500
N 	N 	0.65280 0.04270 0.44160 -0.20800
N 	N 	0.95730 0.61010 0.44160 -0.09300
N 	N 	0.95730 0.34720 0.94160 -0.04500
N 	N 	0.38990 0.04270 0.94160 -0.15300
N 	N 	0.65280 0.61010 0.94160 -0.09700
N 	N 	0.61010 0.65280 0.55840 -0.15000
N 	N 	0.34720 0.95730 0.55840 -0.09200
N 	N 	0.04270 0.38990 0.55840 -0.20600
O 	O 	0.18850 0.63950 0.94130 -0.47000
O 	O 	0.07440 0.47610 0.10830 -0.45800
O 	O 	0.24580 0.80560 0.87280 -0.36300
O 	O 	0.18420 0.56530 0.22840 -0.51300
O 	O 	0.45100 0.81150 0.94130 -0.46100
O 	O 	0.40170 0.92560 0.10830 -0.40300
O 	O 	0.55980 0.75420 0.87280 -0.36700
O 	O 	0.38110 0.81580 0.22840 -0.50000
O 	O 	0.36050 0.54900 0.94130 -0.46700
O 	O 	0.52390 0.59830 0.10830 -0.43300
O 	O 	0.19440 0.44020 0.87280 -0.37600
O 	O 	0.43470 0.61890 0.22840 -0.50400
O 	O 	0.54900 0.36050 0.55870 -0.50200
O 	O 	0.59830 0.52390 0.39170 -0.42500
O 	O 	0.44020 0.19440 0.62720 -0.40000
O 	O 	0.61890 0.43470 0.27160 -0.50400
O 	O 	0.63950 0.18850 0.55870 -0.50400
O 	O 	0.47610 0.07440 0.39170 -0.45000
O 	O 	0.80560 0.24580 0.62720 -0.38600
O 	O 	0.56530 0.18420 0.27160 -0.51300
O 	O 	0.81150 0.45100 0.55870 -0.49500
O 	O 	0.92560 0.40170 0.39170 -0.39700
O 	O 	0.75420 0.55980 0.62720 -0.38900
O 	O 	0.81580 0.38110 0.27160 -0.49900
O 	O 	0.81150 0.36050 0.05870 -0.52100
O 	O 	0.92560 0.52390 0.89170 -0.37800
O 	O 	0.75420 0.19440 0.12720 -0.41800
O 	O 	0.81580 0.43470 0.77160 -0.49900
O 	O 	0.54900 0.18850 0.05870 -0.53200
O 	O 	0.59830 0.07440 0.89170 -0.42900
O 	O 	0.44020 0.24580 0.12720 -0.41800
O 	O 	0.61890 0.18420 0.77160 -0.51200
O 	O 	0.63950 0.45100 0.05870 -0.53000
O 	O 	0.47610 0.40170 0.89170 -0.41100
O 	O 	0.80560 0.55980 0.12720 -0.40500
O 	O 	0.56530 0.38110 0.77160 -0.50800
O 	O 	0.45100 0.63950 0.44130 -0.50200
O 	O 	0.40170 0.47610 0.60830 -0.43000
O 	O 	0.55980 0.80560 0.37280 -0.38300
O 	O 	0.38110 0.56530 0.72840 -0.50900
O 	O 	0.36050 0.81150 0.44130 -0.49300
O 	O 	0.52390 0.92560 0.60830 -0.39300
O 	O 	0.19440 0.75420 0.37280 -0.39700
O 	O 	0.43470 0.81580 0.72840 -0.49900
O 	O 	0.18850 0.54900 0.44130 -0.50300
O 	O 	0.07440 0.59830 0.60830 -0.44600
O 	O 	0.24580 0.44020 0.37280 -0.39500
O 	O 	0.18420 0.61890 0.72840 -0.51200
