data_crystal

_cell_length_a 7.48810
_cell_length_b 13.25390
_cell_length_c 13.25390
_cell_angle_alpha 120.00000
_cell_angle_beta  90.00000
_cell_angle_gamma 90.00000

_symmetry_space_group_name_	'P 1'
_symmetry_space_group_name_H-M	'P 1'

loop_
_symmetry_equiv_pos_as_xyz
  x,y,z

loop_
_atom_site_label
_atom_site_type_symbol
_atom_site_fract_x
_atom_site_fract_y
_atom_site_fract_z
_atom_site_charge
La	La	0.33051 0.66667 0.33334 1.72200
La	La	0.66949 0.33333 0.66666 1.73700
Ni	Ni	0.00000 0.50000 0.50000 1.08700
Ni	Ni	0.00000 0.00000 0.50000 1.05800
Ni	Ni	-0.00000 0.50000 -0.00000 1.05800
H 	H 	0.71470 0.73120 0.55750 0.16500
H 	H 	0.60520 0.66650 0.60860 0.16000
H 	H 	0.83890 0.64550 0.68200 0.12200
H 	H 	0.06630 0.75570 0.71780 0.01400
H 	H 	0.93510 0.81630 0.67220 0.09100
H 	H 	0.71470 0.82630 0.26880 0.15900
H 	H 	0.60520 0.94210 0.33350 0.17400
H 	H 	0.83890 0.03650 0.35450 0.05600
H 	H 	0.06630 0.96210 0.24430 0.01300
H 	H 	0.93510 0.85590 0.18370 0.06900
H 	H 	0.71470 0.44250 0.17370 0.15100
H 	H 	0.60520 0.39140 0.05790 0.12700
H 	H 	0.83890 0.31800 0.96350 0.16600
H 	H 	0.06630 0.28220 0.03790 -0.04500
H 	H 	0.93510 0.32780 0.14410 0.05100
H 	H 	0.28530 0.26880 0.44250 0.15600
H 	H 	0.39480 0.33350 0.39140 0.15700
H 	H 	0.16110 0.35450 0.31800 0.07300
H 	H 	0.93370 0.24430 0.28220 0.24700
H 	H 	0.06490 0.18370 0.32780 0.18200
H 	H 	0.28530 0.17370 0.73120 0.16000
H 	H 	0.39480 0.05790 0.66650 0.14200
H 	H 	0.16110 0.96350 0.64550 0.14100
H 	H 	0.93370 0.03790 0.75570 0.22600
H 	H 	0.06490 0.14410 0.81630 0.19500
H 	H 	0.28530 0.55750 0.82630 0.16800
H 	H 	0.39480 0.60860 0.94210 0.18900
H 	H 	0.16110 0.68200 0.03650 0.02300
H 	H 	0.93370 0.71780 0.96210 0.28200
H 	H 	0.06490 0.67220 0.85590 0.20900
C 	C 	0.67660 0.56040 0.44020 0.44900
C 	C 	0.70760 0.65990 0.56090 -0.37400
C 	C 	0.99850 0.74450 0.65060 -0.07200
C 	C 	0.12580 0.71780 0.55110 0.25800
C 	C 	0.67660 0.87980 0.43960 0.45400
C 	C 	0.70760 0.90100 0.34010 -0.37500
C 	C 	0.99850 0.90610 0.25550 -0.05000
C 	C 	0.12580 0.83330 0.28220 0.25400
C 	C 	0.67660 0.55980 0.12020 0.43600
C 	C 	0.70760 0.43910 0.09900 -0.35400
C 	C 	0.99850 0.34940 0.09390 -0.01400
C 	C 	0.12580 0.44890 0.16670 0.23000
C 	C 	0.32340 0.43960 0.55980 0.45200
C 	C 	0.29240 0.34010 0.43910 -0.40400
C 	C 	0.00150 0.25550 0.34940 -0.60000
C 	C 	0.87420 0.28220 0.44890 0.51200
C 	C 	0.32340 0.12020 0.56040 0.44500
C 	C 	0.29240 0.09900 0.65990 -0.39700
C 	C 	0.00150 0.09390 0.74450 -0.57400
C 	C 	0.87420 0.16670 0.71780 0.49400
C 	C 	0.32340 0.44020 0.87980 0.46200
C 	C 	0.29240 0.56090 0.90100 -0.41800
C 	C 	0.00150 0.65060 0.90610 -0.60600
C 	C 	0.87420 0.55110 0.83330 0.51700
N 	N 	0.86950 0.65014 0.61804 -0.18200
N 	N 	0.86950 0.96790 0.34986 -0.12600
N 	N 	0.86950 0.38196 0.03210 -0.23400
N 	N 	0.13050 0.34986 0.38196 -0.13100
N 	N 	0.13050 0.03210 0.65014 -0.18600
N 	N 	0.13050 0.61804 0.96790 -0.07200
O 	O 	0.53950 0.56580 0.38970 -0.44600
O 	O 	0.78510 0.47644 0.39616 -0.41200
O 	O 	0.11050 0.62027 0.45805 -0.48700
O 	O 	0.23940 0.79012 0.56127 -0.34500
O 	O 	0.53950 0.82390 0.43420 -0.43600
O 	O 	0.78510 0.91972 0.52356 -0.37900
O 	O 	0.11050 0.83778 0.37973 -0.47200
O 	O 	0.23940 0.77115 0.20988 -0.35600
O 	O 	0.53950 0.61030 0.17610 -0.45000
O 	O 	0.78510 0.60384 0.08028 -0.42500
O 	O 	0.11050 0.54195 0.16222 -0.48900
O 	O 	0.23940 0.43873 0.22885 -0.35400
O 	O 	0.46050 0.43420 0.61030 -0.45000
O 	O 	0.21490 0.52356 0.60384 -0.45100
O 	O 	0.88950 0.37973 0.54195 -0.49900
O 	O 	0.76060 0.20988 0.43873 -0.42200
O 	O 	0.46050 0.17610 0.56580 -0.45900
O 	O 	0.21490 0.08028 0.47644 -0.47500
O 	O 	0.88950 0.16222 0.62027 -0.50200
O 	O 	0.76060 0.22885 0.79012 -0.40600
O 	O 	0.46050 0.38970 0.82390 -0.44500
O 	O 	0.21490 0.39616 0.91972 -0.42500
O 	O 	0.88950 0.45805 0.83778 -0.48700
O 	O 	0.76060 0.56127 0.77115 -0.40700
