data_crystal

_cell_length_a 19.86900
_cell_length_b 19.86900
_cell_length_c 27.47000
_cell_angle_alpha 90.00000
_cell_angle_beta  90.00000
_cell_angle_gamma 120.00000

_symmetry_space_group_name_	'P 1'
_symmetry_space_group_name_H-M	'P 1'

loop_
_symmetry_equiv_pos_as_xyz
  x,y,z

loop_
_atom_site_label
_atom_site_type_symbol
_atom_site_fract_x
_atom_site_fract_y
_atom_site_fract_z
_atom_site_charge
Pr	Pr	0.48494 0.52753 0.92978 1.97000
C 	C 	0.10750 0.46160 0.03050 0.55600
C 	C 	0.16390 0.43760 0.04540 -0.25100
C 	C 	0.22920 0.45820 0.01830 0.17400
H 	H 	0.23680 0.48610 0.98960 -0.04200
O 	O 	0.35570 0.48730 0.96290 -0.57000
C 	C 	0.28320 0.43930 0.03200 -0.24800
C 	C 	0.35460 0.46330 0.00530 0.49100
O 	O 	0.41130 0.46080 0.02230 -0.65800
C 	C 	0.27290 0.39840 0.07480 0.02100
H 	H 	0.31000 0.38640 0.08540 -0.03600
O 	O 	0.05460 0.45030 0.05950 -0.61900
C 	C 	0.20710 0.37640 0.10060 0.03900
O 	O 	0.11650 0.49060 0.99100 -0.61600
C 	C 	0.15320 0.39720 0.08730 0.03100
H 	H 	0.11000 0.38380 0.10670 0.00900
O 	O 	0.18500 0.33140 0.14410 -0.23600
C 	C 	0.23590 0.30340 0.15930 0.13100
H 	H 	0.28760 0.34640 0.16580 -0.05600
H 	H 	0.23940 0.27070 0.13440 -0.05100
C 	C 	0.14880 0.17910 0.20590 0.35300
C 	C 	0.12850 0.14530 0.15610 -0.84600
H 	H 	0.15280 0.18600 0.13240 0.27500
H 	H 	0.07310 0.11910 0.15190 0.26000
H 	H 	0.14640 0.10880 0.15190 0.25300
C 	C 	0.19890 0.25590 0.20630 -0.20700
Pr	Pr	0.47247 0.95741 0.92978 1.96800
C 	C 	0.53840 0.64590 0.03050 0.55300
C 	C 	0.56240 0.72630 0.04540 -0.25200
C 	C 	0.54180 0.77100 0.01830 0.17300
H 	H 	0.51390 0.75070 0.98960 -0.04300
O 	O 	0.51270 0.86840 0.96290 -0.57200
C 	C 	0.56070 0.84390 0.03200 -0.24900
C 	C 	0.53670 0.89130 0.00530 0.49100
O 	O 	0.53920 0.95050 0.02230 -0.65800
C 	C 	0.60160 0.87450 0.07480 0.02000
H 	H 	0.61360 0.92360 0.08540 -0.03600
O 	O 	0.54970 0.60430 0.05950 -0.61900
C 	C 	0.62360 0.83070 0.10060 0.03900
O 	O 	0.50940 0.62590 0.99100 -0.61400
C 	C 	0.60280 0.75600 0.08730 0.03000
H 	H 	0.61620 0.72620 0.10670 0.00900
O 	O 	0.66860 0.85360 0.14410 -0.23600
C 	C 	0.69660 0.93250 0.15930 0.12900
H 	H 	0.65360 0.94120 0.16580 -0.05500
H 	H 	0.72930 0.96870 0.13440 -0.05000
C 	C 	0.82090 0.96970 0.20590 0.34700
C 	C 	0.85470 0.98320 0.15610 -0.83100
H 	H 	0.81400 0.96680 0.13240 0.27100
H 	H 	0.88090 0.95400 0.15190 0.25600
H 	H 	0.89120 0.03760 0.15190 0.24700
C 	C 	0.74410 0.94300 0.20630 -0.20400
Pr	Pr	0.04259 0.51506 0.92978 1.96800
C 	C 	0.35410 0.89250 0.03050 0.55700
C 	C 	0.27370 0.83610 0.04540 -0.25600
C 	C 	0.22900 0.77080 0.01830 0.18000
H 	H 	0.24930 0.76320 0.98960 -0.04600
O 	O 	0.13160 0.64430 0.96290 -0.57400
C 	C 	0.15610 0.71680 0.03200 -0.25200
C 	C 	0.10870 0.64540 0.00530 0.49400
O 	O 	0.04950 0.58870 0.02230 -0.65900
C 	C 	0.12550 0.72710 0.07480 0.02300
H 	H 	0.07640 0.69000 0.08540 -0.03700
O 	O 	0.39570 0.94540 0.05950 -0.62000
C 	C 	0.16930 0.79290 0.10060 0.03700
O 	O 	0.37410 0.88350 0.99100 -0.61700
C 	C 	0.24400 0.84680 0.08730 0.03400
H 	H 	0.27380 0.89000 0.10670 0.00800
O 	O 	0.14640 0.81500 0.14410 -0.23500
C 	C 	0.06750 0.76410 0.15930 0.12900
H 	H 	0.05880 0.71240 0.16580 -0.05500
H 	H 	0.03130 0.76060 0.13440 -0.04900
C 	C 	0.03030 0.85120 0.20590 0.34800
C 	C 	0.01680 0.87150 0.15610 -0.83300
H 	H 	0.03320 0.84720 0.13240 0.27200
H 	H 	0.04600 0.92690 0.15190 0.25700
H 	H 	0.96240 0.85360 0.15190 0.24800
C 	C 	0.05700 0.80110 0.20630 -0.20400
Pr	Pr	0.51506 0.47247 0.42978 1.96900
C 	C 	0.89250 0.53840 0.53050 0.55000
C 	C 	0.83610 0.56240 0.54540 -0.24900
C 	C 	0.77080 0.54180 0.51830 0.16700
H 	H 	0.76320 0.51390 0.48960 -0.04000
O 	O 	0.64430 0.51270 0.46290 -0.57000
C 	C 	0.71680 0.56070 0.53200 -0.24500
C 	C 	0.64540 0.53670 0.50530 0.48800
O 	O 	0.58870 0.53920 0.52230 -0.65800
C 	C 	0.72710 0.60160 0.57480 0.01800
H 	H 	0.69000 0.61360 0.58540 -0.03500
O 	O 	0.94540 0.54970 0.55950 -0.61900
C 	C 	0.79290 0.62360 0.60060 0.04100
O 	O 	0.88350 0.50940 0.49100 -0.61300
C 	C 	0.84680 0.60280 0.58730 0.02800
H 	H 	0.89000 0.61620 0.60670 0.01000
O 	O 	0.81500 0.66860 0.64410 -0.23600
C 	C 	0.76410 0.69660 0.65930 0.13100
H 	H 	0.71240 0.65360 0.66580 -0.05600
H 	H 	0.76060 0.72930 0.63440 -0.05100
C 	C 	0.85120 0.82090 0.70590 0.35300
C 	C 	0.87150 0.85470 0.65610 -0.84600
H 	H 	0.84720 0.81400 0.63240 0.27600
H 	H 	0.92690 0.88090 0.65190 0.26000
H 	H 	0.85360 0.89120 0.65190 0.25300
C 	C 	0.80110 0.74410 0.70630 -0.20700
Pr	Pr	0.52753 0.04259 0.42978 1.96900
C 	C 	0.46160 0.35410 0.53050 0.55100
C 	C 	0.43760 0.27370 0.54540 -0.24900
C 	C 	0.45820 0.22900 0.51830 0.16800
H 	H 	0.48610 0.24930 0.48960 -0.04000
O 	O 	0.48730 0.13160 0.46290 -0.57000
C 	C 	0.43930 0.15610 0.53200 -0.24500
C 	C 	0.46330 0.10870 0.50530 0.48800
O 	O 	0.46080 0.04950 0.52230 -0.65800
C 	C 	0.39840 0.12550 0.57480 0.01800
H 	H 	0.38640 0.07640 0.58540 -0.03500
O 	O 	0.45030 0.39570 0.55950 -0.61900
C 	C 	0.37640 0.16930 0.60060 0.04100
O 	O 	0.49060 0.37410 0.49100 -0.61300
C 	C 	0.39720 0.24400 0.58730 0.02800
H 	H 	0.38380 0.27380 0.60670 0.01000
O 	O 	0.33140 0.14640 0.64410 -0.23600
C 	C 	0.30340 0.06750 0.65930 0.13000
H 	H 	0.34640 0.05880 0.66580 -0.05600
H 	H 	0.27070 0.03130 0.63440 -0.05000
C 	C 	0.17910 0.03030 0.70590 0.34900
C 	C 	0.14530 0.01680 0.65610 -0.83700
H 	H 	0.18600 0.03320 0.63240 0.27300
H 	H 	0.11910 0.04600 0.65190 0.25800
H 	H 	0.10880 0.96240 0.65190 0.25000
C 	C 	0.25590 0.05700 0.70630 -0.20500
Pr	Pr	0.95741 0.48494 0.42978 1.96900
C 	C 	0.64590 0.10750 0.53050 0.55000
C 	C 	0.72630 0.16390 0.54540 -0.24900
C 	C 	0.77100 0.22920 0.51830 0.16700
H 	H 	0.75070 0.23680 0.48960 -0.04000
O 	O 	0.86840 0.35570 0.46290 -0.57000
C 	C 	0.84390 0.28320 0.53200 -0.24500
C 	C 	0.89130 0.35460 0.50530 0.48800
O 	O 	0.95050 0.41130 0.52230 -0.65800
C 	C 	0.87450 0.27290 0.57480 0.01800
H 	H 	0.92360 0.31000 0.58540 -0.03500
O 	O 	0.60430 0.05460 0.55950 -0.61900
C 	C 	0.83070 0.20710 0.60060 0.04100
O 	O 	0.62590 0.11650 0.49100 -0.61300
C 	C 	0.75600 0.15320 0.58730 0.02800
H 	H 	0.72620 0.11000 0.60670 0.01000
O 	O 	0.85360 0.18500 0.64410 -0.23600
C 	C 	0.93250 0.23590 0.65930 0.13000
H 	H 	0.94120 0.28760 0.66580 -0.05600
H 	H 	0.96870 0.23940 0.63440 -0.05000
C 	C 	0.96970 0.14880 0.70590 0.35000
C 	C 	0.98320 0.12850 0.65610 -0.83800
H 	H 	0.96680 0.15280 0.63240 0.27300
H 	H 	0.95400 0.07310 0.65190 0.25800
H 	H 	0.03760 0.14640 0.65190 0.25000
C 	C 	0.94300 0.19890 0.70630 -0.20500
Pr	Pr	0.51506 0.47247 0.07022 1.96900
C 	C 	0.89250 0.53840 0.96950 0.55500
C 	C 	0.83610 0.56240 0.95460 -0.25200
C 	C 	0.77080 0.54180 0.98170 0.17300
H 	H 	0.76320 0.51390 0.01040 -0.04300
O 	O 	0.64430 0.51270 0.03710 -0.57100
C 	C 	0.71680 0.56070 0.96800 -0.24900
C 	C 	0.64540 0.53670 0.99470 0.49000
O 	O 	0.58870 0.53920 0.97770 -0.65900
C 	C 	0.72710 0.60160 0.92520 0.02000
H 	H 	0.69000 0.61360 0.91460 -0.03600
O 	O 	0.94540 0.54970 0.94050 -0.61900
C 	C 	0.79290 0.62360 0.89940 0.03900
O 	O 	0.88350 0.50940 0.00900 -0.61600
C 	C 	0.84680 0.60280 0.91270 0.03100
H 	H 	0.89000 0.61620 0.89330 0.00900
O 	O 	0.81500 0.66860 0.85590 -0.23600
C 	C 	0.76410 0.69660 0.84070 0.13100
H 	H 	0.71240 0.65360 0.83420 -0.05600
H 	H 	0.76060 0.72930 0.86560 -0.05100
C 	C 	0.85120 0.82090 0.79410 0.35300
C 	C 	0.87150 0.85470 0.84390 -0.84600
H 	H 	0.84720 0.81400 0.86760 0.27500
H 	H 	0.92690 0.88090 0.84810 0.26000
H 	H 	0.85360 0.89120 0.84810 0.25300
C 	C 	0.80110 0.74410 0.79370 -0.20700
Pr	Pr	0.52753 0.04259 0.07022 1.96800
C 	C 	0.46160 0.35410 0.96950 0.55300
C 	C 	0.43760 0.27370 0.95460 -0.25200
C 	C 	0.45820 0.22900 0.98170 0.17300
H 	H 	0.48610 0.24930 0.01040 -0.04300
O 	O 	0.48730 0.13160 0.03710 -0.57200
C 	C 	0.43930 0.15610 0.96800 -0.24900
C 	C 	0.46330 0.10870 0.99470 0.49100
O 	O 	0.46080 0.04950 0.97770 -0.65800
C 	C 	0.39840 0.12550 0.92520 0.02000
H 	H 	0.38640 0.07640 0.91460 -0.03600
O 	O 	0.45030 0.39570 0.94050 -0.61900
C 	C 	0.37640 0.16930 0.89940 0.03900
O 	O 	0.49060 0.37410 0.00900 -0.61400
C 	C 	0.39720 0.24400 0.91270 0.03000
H 	H 	0.38380 0.27380 0.89330 0.00900
O 	O 	0.33140 0.14640 0.85590 -0.23600
C 	C 	0.30340 0.06750 0.84070 0.12900
H 	H 	0.34640 0.05880 0.83420 -0.05500
H 	H 	0.27070 0.03130 0.86560 -0.05000
C 	C 	0.17910 0.03030 0.79410 0.34700
C 	C 	0.14530 0.01680 0.84390 -0.83100
H 	H 	0.18600 0.03320 0.86760 0.27100
H 	H 	0.11910 0.04600 0.84810 0.25600
H 	H 	0.10880 0.96240 0.84810 0.24700
C 	C 	0.25590 0.05700 0.79370 -0.20400
Pr	Pr	0.95741 0.48494 0.07022 1.96800
C 	C 	0.64590 0.10750 0.96950 0.55700
C 	C 	0.72630 0.16390 0.95460 -0.25600
C 	C 	0.77100 0.22920 0.98170 0.18000
H 	H 	0.75070 0.23680 0.01040 -0.04600
O 	O 	0.86840 0.35570 0.03710 -0.57400
C 	C 	0.84390 0.28320 0.96800 -0.25200
C 	C 	0.89130 0.35460 0.99470 0.49400
O 	O 	0.95050 0.41130 0.97770 -0.65900
C 	C 	0.87450 0.27290 0.92520 0.02300
H 	H 	0.92360 0.31000 0.91460 -0.03700
O 	O 	0.60430 0.05460 0.94050 -0.62000
C 	C 	0.83070 0.20710 0.89940 0.03700
O 	O 	0.62590 0.11650 0.00900 -0.61700
C 	C 	0.75600 0.15320 0.91270 0.03400
H 	H 	0.72620 0.11000 0.89330 0.00800
O 	O 	0.85360 0.18500 0.85590 -0.23500
C 	C 	0.93250 0.23590 0.84070 0.12900
H 	H 	0.94120 0.28760 0.83420 -0.05500
H 	H 	0.96870 0.23940 0.86560 -0.04900
C 	C 	0.96970 0.14880 0.79410 0.34800
C 	C 	0.98320 0.12850 0.84390 -0.83300
H 	H 	0.96680 0.15280 0.86760 0.27200
H 	H 	0.95400 0.07310 0.84810 0.25700
H 	H 	0.03760 0.14640 0.84810 0.24800
C 	C 	0.94300 0.19890 0.79370 -0.20400
Pr	Pr	0.48494 0.52753 0.57022 1.96900
C 	C 	0.10750 0.46160 0.46950 0.55000
C 	C 	0.16390 0.43760 0.45460 -0.24900
C 	C 	0.22920 0.45820 0.48170 0.16700
H 	H 	0.23680 0.48610 0.51040 -0.04000
O 	O 	0.35570 0.48730 0.53710 -0.57000
C 	C 	0.28320 0.43930 0.46800 -0.24500
C 	C 	0.35460 0.46330 0.49470 0.48800
O 	O 	0.41130 0.46080 0.47770 -0.65800
C 	C 	0.27290 0.39840 0.42520 0.01800
H 	H 	0.31000 0.38640 0.41460 -0.03500
O 	O 	0.05460 0.45030 0.44050 -0.61900
C 	C 	0.20710 0.37640 0.39940 0.04100
O 	O 	0.11650 0.49060 0.50900 -0.61300
C 	C 	0.15320 0.39720 0.41270 0.02800
H 	H 	0.11000 0.38380 0.39330 0.01000
O 	O 	0.18500 0.33140 0.35590 -0.23600
C 	C 	0.23590 0.30340 0.34070 0.13100
H 	H 	0.28760 0.34640 0.33420 -0.05600
H 	H 	0.23940 0.27070 0.36560 -0.05100
C 	C 	0.14880 0.17910 0.29410 0.35300
C 	C 	0.12850 0.14530 0.34390 -0.84600
H 	H 	0.15280 0.18600 0.36760 0.27600
H 	H 	0.07310 0.11910 0.34810 0.26000
H 	H 	0.14640 0.10880 0.34810 0.25300
C 	C 	0.19890 0.25590 0.29370 -0.20700
Pr	Pr	0.47247 0.95741 0.57022 1.96900
C 	C 	0.53840 0.64590 0.46950 0.55100
C 	C 	0.56240 0.72630 0.45460 -0.24900
C 	C 	0.54180 0.77100 0.48170 0.16800
H 	H 	0.51390 0.75070 0.51040 -0.04000
O 	O 	0.51270 0.86840 0.53710 -0.57000
C 	C 	0.56070 0.84390 0.46800 -0.24500
C 	C 	0.53670 0.89130 0.49470 0.48800
O 	O 	0.53920 0.95050 0.47770 -0.65800
C 	C 	0.60160 0.87450 0.42520 0.01800
H 	H 	0.61360 0.92360 0.41460 -0.03500
O 	O 	0.54970 0.60430 0.44050 -0.61900
C 	C 	0.62360 0.83070 0.39940 0.04100
O 	O 	0.50940 0.62590 0.50900 -0.61300
C 	C 	0.60280 0.75600 0.41270 0.02800
H 	H 	0.61620 0.72620 0.39330 0.01000
O 	O 	0.66860 0.85360 0.35590 -0.23600
C 	C 	0.69660 0.93250 0.34070 0.13000
H 	H 	0.65360 0.94120 0.33420 -0.05600
H 	H 	0.72930 0.96870 0.36560 -0.05000
C 	C 	0.82090 0.96970 0.29410 0.34900
C 	C 	0.85470 0.98320 0.34390 -0.83700
H 	H 	0.81400 0.96680 0.36760 0.27300
H 	H 	0.88090 0.95400 0.34810 0.25800
H 	H 	0.89120 0.03760 0.34810 0.25000
C 	C 	0.74410 0.94300 0.29370 -0.20500
Pr	Pr	0.04259 0.51506 0.57022 1.96900
C 	C 	0.35410 0.89250 0.46950 0.55000
C 	C 	0.27370 0.83610 0.45460 -0.24900
C 	C 	0.22900 0.77080 0.48170 0.16700
H 	H 	0.24930 0.76320 0.51040 -0.04000
O 	O 	0.13160 0.64430 0.53710 -0.57000
C 	C 	0.15610 0.71680 0.46800 -0.24500
C 	C 	0.10870 0.64540 0.49470 0.48800
O 	O 	0.04950 0.58870 0.47770 -0.65800
C 	C 	0.12550 0.72710 0.42520 0.01800
H 	H 	0.07640 0.69000 0.41460 -0.03500
O 	O 	0.39570 0.94540 0.44050 -0.61900
C 	C 	0.16930 0.79290 0.39940 0.04100
O 	O 	0.37410 0.88350 0.50900 -0.61300
C 	C 	0.24400 0.84680 0.41270 0.02800
H 	H 	0.27380 0.89000 0.39330 0.01000
O 	O 	0.14640 0.81500 0.35590 -0.23600
C 	C 	0.06750 0.76410 0.34070 0.13000
H 	H 	0.05880 0.71240 0.33420 -0.05600
H 	H 	0.03130 0.76060 0.36560 -0.05000
C 	C 	0.03030 0.85120 0.29410 0.35000
C 	C 	0.01680 0.87150 0.34390 -0.83800
H 	H 	0.03320 0.84720 0.36760 0.27300
H 	H 	0.04600 0.92690 0.34810 0.25800
H 	H 	0.96240 0.85360 0.34810 0.25000
C 	C 	0.05700 0.80110 0.29370 -0.20500
C 	C 	0.12720 0.14470 0.25000 -0.30100
C 	C 	0.22390 0.30250 0.25000 0.06200
C 	C 	0.85530 0.98250 0.25000 -0.29700
C 	C 	0.69750 0.92140 0.25000 0.06100
C 	C 	0.01750 0.87280 0.25000 -0.29700
C 	C 	0.07860 0.77610 0.25000 0.06100
C 	C 	0.87280 0.85530 0.75000 -0.30100
C 	C 	0.77610 0.69750 0.75000 0.06200
C 	C 	0.14470 0.01750 0.75000 -0.29700
C 	C 	0.30250 0.07860 0.75000 0.06100
C 	C 	0.98250 0.12720 0.75000 -0.29700
C 	C 	0.92140 0.22390 0.75000 0.06100
