data_crystal

_cell_length_a 18.14190
_cell_length_b 18.94670
_cell_length_c 24.09740
_cell_angle_alpha 90.00000
_cell_angle_beta  94.41800
_cell_angle_gamma 90.00000

_symmetry_space_group_name_	'P 1'
_symmetry_space_group_name_H-M	'P 1'

loop_
_symmetry_equiv_pos_as_xyz
  x,y,z

loop_
_atom_site_label
_atom_site_type_symbol
_atom_site_fract_x
_atom_site_fract_y
_atom_site_fract_z
_atom_site_charge
U 	U 	0.32509 0.56600 0.36112 0.04300
U 	U 	0.26307 0.63525 0.14326 0.02400
Cs	Cs	0.90873 0.36986 0.32124 0.63200
Cs	Cs	0.72782 0.26373 0.21571 0.61200
S 	S 	0.61864 0.33015 0.52016 0.45400
S 	S 	0.12503 0.30127 0.36001 0.47200
S 	S 	0.16511 0.88576 0.41936 0.46600
O 	O 	0.25150 0.56280 0.40508 -0.07800
O 	O 	0.39780 0.56610 0.31609 -0.08200
O 	O 	0.17570 0.67720 0.13210 -0.10300
O 	O 	0.34750 0.58960 0.15108 -0.07900
O 	O 	0.41280 0.50298 0.42749 -0.19100
O 	O 	0.33550 0.43703 0.37526 -0.19400
O 	O 	0.61230 0.34855 0.57967 -0.18600
O 	O 	0.65340 0.38570 0.48989 -0.24000
O 	O 	0.65030 0.26110 0.51450 -0.24100
O 	O 	0.24650 0.53010 0.28796 -0.17200
O 	O 	0.20940 0.54720 0.19949 -0.18300
O 	O 	0.18500 0.24930 0.36120 -0.20100
O 	O 	0.05150 0.27160 0.36090 -0.31500
O 	O 	0.14110 0.35440 0.40180 -0.26600
O 	O 	0.28060 0.67270 0.32486 -0.17400
O 	O 	0.27020 0.68240 0.23382 -0.17000
O 	O 	0.10230 0.93350 0.41781 -0.23900
O 	O 	0.23450 0.92250 0.43544 -0.22300
O 	O 	0.15690 0.82310 0.45283 -0.24600
C 	C 	0.38830 0.44300 0.41330 0.27000
C 	C 	0.42090 0.37870 0.44117 -0.06000
C 	C 	0.49170 0.38390 0.46850 -0.00300
H 	H 	0.51620 0.42710 0.47080 0.06300
C 	C 	0.52470 0.32420 0.49220 -0.06500
C 	C 	0.48620 0.26070 0.49290 -0.00700
H 	H 	0.50820 0.22140 0.51040 0.04000
C 	C 	0.41550 0.25610 0.46760 -0.06700
H 	H 	0.38950 0.21380 0.46840 0.06300
C 	C 	0.38320 0.31490 0.44110 -0.01100
H 	H 	0.33610 0.31150 0.42320 0.06500
C 	C 	0.21260 0.51050 0.24290 0.26900
C 	C 	0.17270 0.44180 0.24360 -0.05800
C 	C 	0.16780 0.40730 0.29400 -0.00600
H 	H 	0.19040 0.42620 0.32660 0.07400
C 	C 	0.12900 0.34440 0.29520 -0.09200
C 	C 	0.09510 0.31480 0.24640 -0.00900
H 	H 	0.06790 0.27330 0.24760 0.02700
C 	C 	0.10310 0.34890 0.19670 -0.07700
H 	H 	0.08210 0.32910 0.16380 0.05600
C 	C 	0.14100 0.41090 0.19440 -0.01200
H 	H 	0.14580 0.43270 0.16030 0.05800
C 	C 	0.26000 0.70500 0.28069 0.27600
C 	C 	0.22000 0.77290 0.28800 -0.04700
C 	C 	0.21100 0.79610 0.34180 -0.00300
H 	H 	0.23110 0.77030 0.37210 0.07300
C 	C 	0.17250 0.85730 0.35030 -0.06600
C 	C 	0.14230 0.89650 0.30470 0.00300
H 	H 	0.11670 0.93810 0.31050 0.05700
C 	C 	0.15040 0.87330 0.25150 -0.06600
H 	H 	0.13050 0.89940 0.22140 0.08000
C 	C 	0.18830 0.81090 0.24230 -0.00800
H 	H 	0.19250 0.79480 0.20620 0.07000
U 	U 	0.17491 0.06600 0.13888 0.04200
U 	U 	0.23693 0.13525 0.35674 0.02300
Cs	Cs	0.59127 0.86986 0.17876 0.63100
Cs	Cs	0.77218 0.76373 0.28429 0.61100
S 	S 	0.88136 0.83015 0.97984 0.45700
S 	S 	0.37497 0.80127 0.13999 0.47100
S 	S 	0.33489 0.38576 0.08064 0.46500
O 	O 	0.24850 0.06280 0.09492 -0.07900
O 	O 	0.10220 0.06610 0.18391 -0.08200
O 	O 	0.32430 0.17720 0.36790 -0.10400
O 	O 	0.15250 0.08960 0.34892 -0.07800
O 	O 	0.08720 0.00298 0.07251 -0.18900
O 	O 	0.16450 0.93703 0.12474 -0.19400
O 	O 	0.88770 0.84855 0.92033 -0.18600
O 	O 	0.84660 0.88570 0.01011 -0.24200
O 	O 	0.84970 0.76110 0.98550 -0.24100
O 	O 	0.25350 0.03010 0.21204 -0.17200
O 	O 	0.29060 0.04720 0.30051 -0.18400
O 	O 	0.31500 0.74930 0.13880 -0.20100
O 	O 	0.44850 0.77160 0.13910 -0.31500
O 	O 	0.35890 0.85440 0.09820 -0.26600
O 	O 	0.21940 0.17270 0.17514 -0.17400
O 	O 	0.22980 0.18240 0.26618 -0.17000
O 	O 	0.39770 0.43350 0.08219 -0.23900
O 	O 	0.26550 0.42250 0.06456 -0.22300
O 	O 	0.34310 0.32310 0.04717 -0.24600
C 	C 	0.11170 0.94300 0.08670 0.26900
C 	C 	0.07910 0.87870 0.05883 -0.06200
C 	C 	0.00830 0.88390 0.03150 0.00200
H 	H 	0.98380 0.92710 0.02920 0.06100
C 	C 	0.97530 0.82420 0.00780 -0.07000
C 	C 	0.01380 0.76070 0.00710 -0.00400
H 	H 	0.99180 0.72140 0.98960 0.04000
C 	C 	0.08450 0.75610 0.03240 -0.06900
H 	H 	0.11050 0.71380 0.03160 0.06400
C 	C 	0.11680 0.81490 0.05890 -0.00900
H 	H 	0.16390 0.81150 0.07680 0.06500
C 	C 	0.28740 0.01050 0.25710 0.27000
C 	C 	0.32730 0.94180 0.25640 -0.05900
C 	C 	0.33220 0.90730 0.20600 -0.00600
H 	H 	0.30960 0.92620 0.17340 0.07400
C 	C 	0.37100 0.84440 0.20480 -0.09300
C 	C 	0.40490 0.81480 0.25360 -0.00800
H 	H 	0.43210 0.77330 0.25240 0.02600
C 	C 	0.39690 0.84890 0.30330 -0.07800
H 	H 	0.41790 0.82910 0.33620 0.05600
C 	C 	0.35900 0.91090 0.30560 -0.01200
H 	H 	0.35420 0.93270 0.33970 0.05700
C 	C 	0.24000 0.20500 0.21931 0.27600
C 	C 	0.28000 0.27290 0.21200 -0.04700
C 	C 	0.28900 0.29610 0.15820 -0.00300
H 	H 	0.26890 0.27030 0.12790 0.07300
C 	C 	0.32750 0.35730 0.14970 -0.06600
C 	C 	0.35770 0.39650 0.19530 0.00300
H 	H 	0.38330 0.43810 0.18950 0.05700
C 	C 	0.34960 0.37330 0.24850 -0.06600
H 	H 	0.36950 0.39940 0.27860 0.08000
C 	C 	0.31170 0.31090 0.25770 -0.00800
H 	H 	0.30750 0.29480 0.29380 0.07000
U 	U 	0.67491 0.43400 0.63888 0.04200
U 	U 	0.73693 0.36475 0.85674 0.02300
Cs	Cs	0.09127 0.63014 0.67876 0.63100
Cs	Cs	0.27218 0.73627 0.78429 0.61100
S 	S 	0.38136 0.66985 0.47984 0.45300
S 	S 	0.87497 0.69873 0.63999 0.47100
S 	S 	0.83489 0.11424 0.58064 0.46500
O 	O 	0.74850 0.43720 0.59492 -0.07900
O 	O 	0.60220 0.43390 0.68391 -0.08300
O 	O 	0.82430 0.32280 0.86790 -0.10400
O 	O 	0.65250 0.41040 0.84892 -0.07900
O 	O 	0.58720 0.49702 0.57251 -0.19100
O 	O 	0.66450 0.56297 0.62474 -0.19400
O 	O 	0.38770 0.65145 0.42033 -0.18600
O 	O 	0.34660 0.61430 0.51011 -0.24000
O 	O 	0.34970 0.73890 0.48550 -0.24100
O 	O 	0.75350 0.46990 0.71204 -0.17200
O 	O 	0.79060 0.45280 0.80051 -0.18300
O 	O 	0.81500 0.75070 0.63880 -0.20100
O 	O 	0.94850 0.72840 0.63910 -0.31500
O 	O 	0.85890 0.64560 0.59820 -0.26600
O 	O 	0.71940 0.32730 0.67514 -0.17400
O 	O 	0.72980 0.31760 0.76618 -0.17000
O 	O 	0.89770 0.06650 0.58219 -0.23900
O 	O 	0.76550 0.07750 0.56456 -0.22300
O 	O 	0.84310 0.17690 0.54717 -0.24600
C 	C 	0.61170 0.55700 0.58670 0.27000
C 	C 	0.57910 0.62130 0.55883 -0.06000
C 	C 	0.50830 0.61610 0.53150 -0.00300
H 	H 	0.48380 0.57290 0.52920 0.06300
C 	C 	0.47530 0.67580 0.50780 -0.06500
C 	C 	0.51380 0.73930 0.50710 -0.00700
H 	H 	0.49180 0.77860 0.48960 0.04000
C 	C 	0.58450 0.74390 0.53240 -0.06700
H 	H 	0.61050 0.78620 0.53160 0.06300
C 	C 	0.61680 0.68510 0.55890 -0.01100
H 	H 	0.66390 0.68850 0.57680 0.06500
C 	C 	0.78740 0.48950 0.75710 0.26900
C 	C 	0.82730 0.55820 0.75640 -0.05800
C 	C 	0.83220 0.59270 0.70600 -0.00600
H 	H 	0.80960 0.57380 0.67340 0.07400
C 	C 	0.87100 0.65560 0.70480 -0.09200
C 	C 	0.90490 0.68520 0.75360 -0.00900
H 	H 	0.93210 0.72670 0.75240 0.02700
C 	C 	0.89690 0.65110 0.80330 -0.07700
H 	H 	0.91790 0.67090 0.83620 0.05600
C 	C 	0.85900 0.58910 0.80560 -0.01200
H 	H 	0.85420 0.56730 0.83970 0.05800
C 	C 	0.74000 0.29500 0.71931 0.27600
C 	C 	0.78000 0.22710 0.71200 -0.04700
C 	C 	0.78900 0.20390 0.65820 -0.00300
H 	H 	0.76890 0.22970 0.62790 0.07300
C 	C 	0.82750 0.14270 0.64970 -0.06600
C 	C 	0.85770 0.10350 0.69530 0.00300
H 	H 	0.88330 0.06190 0.68950 0.05700
C 	C 	0.84960 0.12670 0.74850 -0.06600
H 	H 	0.86950 0.10060 0.77860 0.08000
C 	C 	0.81170 0.18910 0.75770 -0.00800
H 	H 	0.80750 0.20520 0.79380 0.07000
U 	U 	0.82509 0.93400 0.86112 0.04200
U 	U 	0.76307 0.86475 0.64326 0.02300
Cs	Cs	0.40873 0.13014 0.82124 0.63100
Cs	Cs	0.22782 0.23627 0.71571 0.61100
S 	S 	0.11864 0.16985 0.02016 0.45700
S 	S 	0.62503 0.19873 0.86001 0.47100
S 	S 	0.66511 0.61424 0.91936 0.46500
O 	O 	0.75150 0.93720 0.90508 -0.07900
O 	O 	0.89780 0.93390 0.81609 -0.08200
O 	O 	0.67570 0.82280 0.63210 -0.10400
O 	O 	0.84750 0.91040 0.65108 -0.07800
O 	O 	0.91280 0.99702 0.92749 -0.18900
O 	O 	0.83550 0.06297 0.87526 -0.19400
O 	O 	0.11230 0.15145 0.07967 -0.18600
O 	O 	0.15340 0.11430 0.98989 -0.24200
O 	O 	0.15030 0.23890 0.01450 -0.24100
O 	O 	0.74650 0.96990 0.78796 -0.17200
O 	O 	0.70940 0.95280 0.69949 -0.18400
O 	O 	0.68500 0.25070 0.86120 -0.20100
O 	O 	0.55150 0.22840 0.86090 -0.31500
O 	O 	0.64110 0.14560 0.90180 -0.26600
O 	O 	0.78060 0.82730 0.82486 -0.17400
O 	O 	0.77020 0.81760 0.73382 -0.17000
O 	O 	0.60230 0.56650 0.91781 -0.23900
O 	O 	0.73450 0.57750 0.93544 -0.22300
O 	O 	0.65690 0.67690 0.95283 -0.24600
C 	C 	0.88830 0.05700 0.91330 0.26900
C 	C 	0.92090 0.12130 0.94117 -0.06200
C 	C 	0.99170 0.11610 0.96850 0.00200
H 	H 	0.01620 0.07290 0.97080 0.06100
C 	C 	0.02470 0.17580 0.99220 -0.07000
C 	C 	0.98620 0.23930 0.99290 -0.00400
H 	H 	0.00820 0.27860 0.01040 0.04000
C 	C 	0.91550 0.24390 0.96760 -0.06900
H 	H 	0.88950 0.28620 0.96840 0.06400
C 	C 	0.88320 0.18510 0.94110 -0.00900
H 	H 	0.83610 0.18850 0.92320 0.06500
C 	C 	0.71260 0.98950 0.74290 0.27000
C 	C 	0.67270 0.05820 0.74360 -0.05900
C 	C 	0.66780 0.09270 0.79400 -0.00600
H 	H 	0.69040 0.07380 0.82660 0.07400
C 	C 	0.62900 0.15560 0.79520 -0.09300
C 	C 	0.59510 0.18520 0.74640 -0.00800
H 	H 	0.56790 0.22670 0.74760 0.02600
C 	C 	0.60310 0.15110 0.69670 -0.07800
H 	H 	0.58210 0.17090 0.66380 0.05600
C 	C 	0.64100 0.08910 0.69440 -0.01200
H 	H 	0.64580 0.06730 0.66030 0.05700
C 	C 	0.76000 0.79500 0.78069 0.27600
C 	C 	0.72000 0.72710 0.78800 -0.04700
C 	C 	0.71100 0.70390 0.84180 -0.00300
H 	H 	0.73110 0.72970 0.87210 0.07300
C 	C 	0.67250 0.64270 0.85030 -0.06600
C 	C 	0.64230 0.60350 0.80470 0.00300
H 	H 	0.61670 0.56190 0.81050 0.05700
C 	C 	0.65040 0.62670 0.75150 -0.06600
H 	H 	0.63050 0.60060 0.72140 0.08000
C 	C 	0.68830 0.68910 0.74230 -0.00800
H 	H 	0.69250 0.70520 0.70620 0.07000
