data_crystal

_cell_length_a 17.58590
_cell_length_b 11.44700
_cell_length_c 21.68310
_cell_angle_alpha 90.00000
_cell_angle_beta  114.47200
_cell_angle_gamma 90.00000

_symmetry_space_group_name_	'P 1'
_symmetry_space_group_name_H-M	'P 1'

loop_
_symmetry_equiv_pos_as_xyz
  x,y,z

loop_
_atom_site_label
_atom_site_type_symbol
_atom_site_fract_x
_atom_site_fract_y
_atom_site_fract_z
_atom_site_charge
Cu	Cu	0.50835 0.67468 0.75466 0.88500
N 	N 	0.25190 0.66970 0.69150 -0.14400
N 	N 	0.38530 0.65770 0.70940 -0.22700
N 	N 	0.76230 0.72230 0.80660 -0.15100
N 	N 	0.63230 0.70200 0.79790 -0.22500
O 	O 	0.52620 0.51930 0.72020 -0.42000
O 	O 	0.51160 0.32730 0.71060 -0.43200
C 	C 	0.50270 0.42130 0.73540 0.44700
H 	H 	0.47820 0.42080 0.76600 -0.16200
C 	C 	0.33310 0.69560 0.73220 0.10300
H 	H 	0.34910 0.73680 0.77260 -0.00400
C 	C 	0.25780 0.60700 0.63890 -0.00100
H 	H 	0.21370 0.57310 0.60260 0.02800
C 	C 	0.33860 0.60410 0.64980 0.00500
H 	H 	0.35950 0.57060 0.62090 0.02100
C 	C 	0.18260 0.69010 0.70510 0.11100
C 	C 	0.10880 0.61980 0.67030 -0.10500
H 	H 	0.10690 0.56620 0.63750 0.06700
C 	C 	0.04070 0.63330 0.68660 -0.02200
H 	H 	0.99360 0.58790 0.66320 0.03600
C 	C 	0.03800 0.71130 0.73610 -0.00000
C 	C 	0.11120 0.78240 0.76690 -0.01400
H 	H 	0.11280 0.83890 0.79830 0.03300
C 	C 	0.17830 0.76980 0.75170 -0.11800
H 	H 	0.22430 0.81770 0.77400 0.07400
C 	C 	0.68480 0.68070 0.77180 0.11000
H 	H 	0.66990 0.63940 0.73150 -0.01200
C 	C 	0.67580 0.76310 0.85500 0.00400
H 	H 	0.65480 0.79180 0.88500 0.02200
C 	C 	0.75370 0.77500 0.86100 0.00100
H 	H 	0.79630 0.81300 0.89650 0.02800
C 	C 	0.82870 0.71580 0.78890 0.13200
C 	C 	0.82770 0.65260 0.73550 -0.14300
H 	H 	0.78040 0.60930 0.70970 0.08100
C 	C 	0.89360 0.65150 0.71910 0.00800
H 	H 	0.89020 0.60450 0.68310 0.02500
C 	C 	0.96770 0.71660 0.75290 -0.01900
C 	C 	0.96840 0.77930 0.80760 -0.00200
H 	H 	0.01590 0.82250 0.83300 0.02900
C 	C 	0.90300 0.78130 0.82650 -0.12500
H 	H 	0.90690 0.82520 0.86380 0.07400
Cu	Cu	0.49165 0.17468 0.74534 0.88600
N 	N 	0.74810 0.16970 0.80850 -0.14300
N 	N 	0.61470 0.15770 0.79060 -0.22700
N 	N 	0.23770 0.22230 0.69340 -0.15100
N 	N 	0.36770 0.20200 0.70210 -0.22500
O 	O 	0.47380 0.01930 0.77980 -0.42000
O 	O 	0.48840 0.82730 0.78940 -0.43200
C 	C 	0.49730 0.92130 0.76460 0.44700
H 	H 	0.52180 0.92080 0.73400 -0.16100
C 	C 	0.66690 0.19560 0.76780 0.10300
H 	H 	0.65090 0.23680 0.72740 -0.00400
C 	C 	0.74220 0.10700 0.86110 -0.00100
H 	H 	0.78630 0.07310 0.89740 0.02800
C 	C 	0.66140 0.10410 0.85020 0.00500
H 	H 	0.64050 0.07060 0.87910 0.02100
C 	C 	0.81740 0.19010 0.79490 0.11200
C 	C 	0.89120 0.11980 0.82970 -0.10500
H 	H 	0.89310 0.06620 0.86250 0.06700
C 	C 	0.95930 0.13330 0.81340 -0.02200
H 	H 	0.00640 0.08790 0.83680 0.03600
C 	C 	0.96200 0.21130 0.76390 0.00000
C 	C 	0.88880 0.28240 0.73310 -0.01400
H 	H 	0.88720 0.33890 0.70170 0.03300
C 	C 	0.82170 0.26980 0.74830 -0.11800
H 	H 	0.77570 0.31770 0.72600 0.07400
C 	C 	0.31520 0.18070 0.72820 0.11000
H 	H 	0.33010 0.13940 0.76850 -0.01200
C 	C 	0.32420 0.26310 0.64500 0.00400
H 	H 	0.34520 0.29180 0.61500 0.02200
C 	C 	0.24630 0.27500 0.63900 0.00100
H 	H 	0.20370 0.31300 0.60350 0.02800
C 	C 	0.17130 0.21580 0.71110 0.13200
C 	C 	0.17230 0.15260 0.76450 -0.14200
H 	H 	0.21960 0.10930 0.79030 0.08100
C 	C 	0.10640 0.15150 0.78090 0.00700
H 	H 	0.10980 0.10450 0.81690 0.02500
C 	C 	0.03230 0.21660 0.74710 -0.01900
C 	C 	0.03160 0.27930 0.69240 -0.00300
H 	H 	0.98410 0.32250 0.66700 0.02900
C 	C 	0.09700 0.28130 0.67350 -0.12500
H 	H 	0.09310 0.32520 0.63620 0.07400
Cu	Cu	0.49165 0.32532 0.24534 0.88600
N 	N 	0.74810 0.33030 0.30850 -0.14300
N 	N 	0.61470 0.34230 0.29060 -0.22700
N 	N 	0.23770 0.27770 0.19340 -0.15100
N 	N 	0.36770 0.29800 0.20210 -0.22500
O 	O 	0.47380 0.48070 0.27980 -0.42000
O 	O 	0.48840 0.67270 0.28940 -0.43200
C 	C 	0.49730 0.57870 0.26460 0.44700
H 	H 	0.52180 0.57920 0.23400 -0.16200
C 	C 	0.66690 0.30440 0.26780 0.10300
H 	H 	0.65090 0.26320 0.22740 -0.00400
C 	C 	0.74220 0.39300 0.36110 -0.00100
H 	H 	0.78630 0.42690 0.39740 0.02800
C 	C 	0.66140 0.39590 0.35020 0.00500
H 	H 	0.64050 0.42940 0.37910 0.02100
C 	C 	0.81740 0.30990 0.29490 0.11100
C 	C 	0.89120 0.38020 0.32970 -0.10500
H 	H 	0.89310 0.43380 0.36250 0.06700
C 	C 	0.95930 0.36670 0.31340 -0.02200
H 	H 	0.00640 0.41210 0.33680 0.03600
C 	C 	0.96200 0.28870 0.26390 -0.00000
C 	C 	0.88880 0.21760 0.23310 -0.01400
H 	H 	0.88720 0.16110 0.20170 0.03300
C 	C 	0.82170 0.23020 0.24830 -0.11800
H 	H 	0.77570 0.18230 0.22600 0.07400
C 	C 	0.31520 0.31930 0.22820 0.11000
H 	H 	0.33010 0.36060 0.26850 -0.01200
C 	C 	0.32420 0.23690 0.14500 0.00400
H 	H 	0.34520 0.20820 0.11500 0.02200
C 	C 	0.24630 0.22500 0.13900 0.00100
H 	H 	0.20370 0.18700 0.10350 0.02800
C 	C 	0.17130 0.28420 0.21110 0.13200
C 	C 	0.17230 0.34740 0.26450 -0.14300
H 	H 	0.21960 0.39070 0.29030 0.08100
C 	C 	0.10640 0.34850 0.28090 0.00800
H 	H 	0.10980 0.39550 0.31690 0.02500
C 	C 	0.03230 0.28340 0.24710 -0.01900
C 	C 	0.03160 0.22070 0.19240 -0.00200
H 	H 	0.98410 0.17750 0.16700 0.02900
C 	C 	0.09700 0.21870 0.17350 -0.12500
H 	H 	0.09310 0.17480 0.13620 0.07400
Cu	Cu	0.50835 0.82532 0.25466 0.88600
N 	N 	0.25190 0.83030 0.19150 -0.14300
N 	N 	0.38530 0.84230 0.20940 -0.22700
N 	N 	0.76230 0.77770 0.30660 -0.15100
N 	N 	0.63230 0.79800 0.29790 -0.22500
O 	O 	0.52620 0.98070 0.22020 -0.42000
O 	O 	0.51160 0.17270 0.21060 -0.43200
C 	C 	0.50270 0.07870 0.23540 0.44700
H 	H 	0.47820 0.07920 0.26600 -0.16100
C 	C 	0.33310 0.80440 0.23220 0.10300
H 	H 	0.34910 0.76320 0.27260 -0.00400
C 	C 	0.25780 0.89300 0.13890 -0.00100
H 	H 	0.21370 0.92690 0.10260 0.02800
C 	C 	0.33860 0.89590 0.14980 0.00500
H 	H 	0.35950 0.92940 0.12090 0.02100
C 	C 	0.18260 0.80990 0.20510 0.11200
C 	C 	0.10880 0.88020 0.17030 -0.10500
H 	H 	0.10690 0.93380 0.13750 0.06700
C 	C 	0.04070 0.86670 0.18660 -0.02200
H 	H 	0.99360 0.91210 0.16320 0.03600
C 	C 	0.03800 0.78870 0.23610 0.00000
C 	C 	0.11120 0.71760 0.26690 -0.01400
H 	H 	0.11280 0.66110 0.29830 0.03300
C 	C 	0.17830 0.73020 0.25170 -0.11800
H 	H 	0.22430 0.68230 0.27400 0.07400
C 	C 	0.68480 0.81930 0.27180 0.11000
H 	H 	0.66990 0.86060 0.23150 -0.01200
C 	C 	0.67580 0.73690 0.35500 0.00400
H 	H 	0.65480 0.70820 0.38500 0.02200
C 	C 	0.75370 0.72500 0.36100 0.00100
H 	H 	0.79630 0.68700 0.39650 0.02800
C 	C 	0.82870 0.78420 0.28890 0.13200
C 	C 	0.82770 0.84740 0.23550 -0.14200
H 	H 	0.78040 0.89070 0.20970 0.08100
C 	C 	0.89360 0.84850 0.21910 0.00700
H 	H 	0.89020 0.89550 0.18310 0.02500
C 	C 	0.96770 0.78340 0.25290 -0.01900
C 	C 	0.96840 0.72070 0.30760 -0.00300
H 	H 	0.01590 0.67750 0.33300 0.02900
C 	C 	0.90300 0.71870 0.32650 -0.12500
H 	H 	0.90690 0.67480 0.36380 0.07400
