data_crystal

_cell_length_a 12.72600
_cell_length_b 12.72600
_cell_length_c 30.93900
_cell_angle_alpha 90.00000
_cell_angle_beta  90.00000
_cell_angle_gamma 120.00000

_symmetry_space_group_name_	'P 1'
_symmetry_space_group_name_H-M	'P 1'

loop_
_symmetry_equiv_pos_as_xyz
  x,y,z

loop_
_atom_site_label
_atom_site_type_symbol
_atom_site_fract_x
_atom_site_fract_y
_atom_site_fract_z
_atom_site_charge
Al	Al	0.75330 0.75722 0.29540 2.40000
Al	Al	0.57616 0.90230 0.21646 2.39800
P 	P 	0.57783 0.90432 0.11444 0.87700
P 	P 	0.75682 0.00127 0.29140 0.94900
O 	O 	0.61376 0.93930 0.16168 -0.80200
O 	O 	0.53414 0.75325 0.22506 -0.88900
O 	O 	0.79283 0.90717 0.29395 -0.87700
O 	O 	0.46125 0.92799 0.23103 -0.82500
O 	O 	0.70143 0.99588 0.24720 -0.81000
O 	O 	0.87760 0.74202 0.29679 -0.81900
O 	O 	0.66441 0.68355 0.33993 -0.83500
O 	O 	0.67590 0.68627 0.24778 -0.76800
Al	Al	0.41997 0.09055 0.62873 2.40100
Al	Al	0.24283 0.23563 0.54979 2.39900
P 	P 	0.24450 0.23765 0.44777 0.87900
P 	P 	0.42349 0.33460 0.62473 0.94400
O 	O 	0.28043 0.27263 0.49501 -0.80200
O 	O 	0.20081 0.08658 0.55839 -0.88900
O 	O 	0.45950 0.24050 0.62728 -0.87600
O 	O 	0.12792 0.26132 0.56436 -0.82400
O 	O 	0.36810 0.32921 0.58053 -0.80800
O 	O 	0.54427 0.07535 0.63012 -0.81900
O 	O 	0.33108 0.01688 0.67326 -0.83700
O 	O 	0.34257 0.01960 0.58111 -0.76900
Al	Al	0.08663 0.42389 0.96207 2.40100
Al	Al	0.90949 0.56897 0.88313 2.39800
P 	P 	0.91116 0.57099 0.78111 0.87900
P 	P 	0.09015 0.66794 0.95807 0.94400
O 	O 	0.94709 0.60597 0.82835 -0.80300
O 	O 	0.86747 0.41992 0.89173 -0.88900
O 	O 	0.12616 0.57384 0.96062 -0.87500
O 	O 	0.79458 0.59466 0.89770 -0.82500
O 	O 	0.03476 0.66255 0.91387 -0.80700
O 	O 	0.21093 0.40869 0.96346 -0.81900
O 	O 	0.99774 0.35022 0.00660 -0.83500
O 	O 	0.00923 0.35294 0.91445 -0.76700
Al	Al	0.24278 0.99608 0.29540 2.40100
Al	Al	0.09770 0.67386 0.21646 2.39900
P 	P 	0.09568 0.67351 0.11444 0.87700
P 	P 	0.99873 0.75555 0.29140 0.94900
O 	O 	0.06070 0.67446 0.16168 -0.80300
O 	O 	0.24675 0.78089 0.22506 -0.88900
O 	O 	0.09283 0.88566 0.29395 -0.87800
O 	O 	0.07201 0.53326 0.23103 -0.82500
O 	O 	0.00412 0.70555 0.24720 -0.81100
O 	O 	0.25798 0.13558 0.29679 -0.81800
O 	O 	0.31645 0.98086 0.33993 -0.83600
O 	O 	0.31373 0.98963 0.24778 -0.77000
Al	Al	0.90945 0.32941 0.62873 2.40100
Al	Al	0.76437 0.00719 0.54979 2.39900
P 	P 	0.76235 0.00684 0.44777 0.88100
P 	P 	0.66540 0.08888 0.62473 0.94400
O 	O 	0.72737 0.00779 0.49501 -0.80200
O 	O 	0.91342 0.11422 0.55839 -0.88900
O 	O 	0.75950 0.21899 0.62728 -0.87600
O 	O 	0.73868 0.86659 0.56436 -0.82400
O 	O 	0.67079 0.03888 0.58053 -0.80900
O 	O 	0.92465 0.46891 0.63012 -0.81900
O 	O 	0.98312 0.31419 0.67326 -0.83700
O 	O 	0.98040 0.32296 0.58111 -0.76900
Al	Al	0.57611 0.66275 0.96207 2.40100
Al	Al	0.43103 0.34053 0.88313 2.39900
P 	P 	0.42901 0.34018 0.78111 0.87900
P 	P 	0.33206 0.42222 0.95807 0.94400
O 	O 	0.39403 0.34113 0.82835 -0.80200
O 	O 	0.58008 0.44756 0.89173 -0.88900
O 	O 	0.42616 0.55233 0.96062 -0.87600
O 	O 	0.40534 0.19993 0.89770 -0.82500
O 	O 	0.33745 0.37222 0.91387 -0.80800
O 	O 	0.59131 0.80225 0.96346 -0.81900
O 	O 	0.64978 0.64753 0.00660 -0.83600
O 	O 	0.64706 0.65630 0.91445 -0.76900
Al	Al	0.00392 0.24670 0.29540 2.40100
Al	Al	0.32614 0.42384 0.21646 2.39900
P 	P 	0.32649 0.42217 0.11444 0.87900
P 	P 	0.24445 0.24318 0.29140 0.94400
O 	O 	0.32554 0.38624 0.16168 -0.80200
O 	O 	0.21911 0.46586 0.22506 -0.88900
O 	O 	0.11434 0.20717 0.29395 -0.87600
O 	O 	0.46674 0.53875 0.23103 -0.82400
O 	O 	0.29445 0.29857 0.24720 -0.80800
O 	O 	0.86442 0.12240 0.29679 -0.81800
O 	O 	0.01914 0.33559 0.33993 -0.83600
O 	O 	0.01037 0.32410 0.24778 -0.76900
Al	Al	0.67059 0.58003 0.62873 2.40100
Al	Al	0.99281 0.75717 0.54979 2.39900
P 	P 	0.99316 0.75550 0.44777 0.88100
P 	P 	0.91112 0.57651 0.62473 0.94400
O 	O 	0.99221 0.71957 0.49501 -0.80200
O 	O 	0.88578 0.79919 0.55839 -0.88900
O 	O 	0.78101 0.54050 0.62728 -0.87600
O 	O 	0.13341 0.87208 0.56436 -0.82400
O 	O 	0.96112 0.63190 0.58053 -0.80800
O 	O 	0.53109 0.45573 0.63012 -0.81900
O 	O 	0.68581 0.66892 0.67326 -0.83500
O 	O 	0.67704 0.65743 0.58111 -0.76900
Al	Al	0.33725 0.91337 0.96207 2.40100
Al	Al	0.65947 0.09051 0.88313 2.39800
P 	P 	0.65982 0.08884 0.78111 0.87900
P 	P 	0.57778 0.90985 0.95807 0.94400
O 	O 	0.65887 0.05291 0.82835 -0.80300
O 	O 	0.55244 0.13253 0.89173 -0.88900
O 	O 	0.44767 0.87384 0.96062 -0.87500
O 	O 	0.80007 0.20542 0.89770 -0.82500
O 	O 	0.62778 0.96524 0.91387 -0.80800
O 	O 	0.19775 0.78907 0.96346 -0.81900
O 	O 	0.35247 0.00226 0.00660 -0.83600
O 	O 	0.34370 0.99077 0.91445 -0.76700
Al	Al	0.24670 0.24278 0.70460 2.40100
Al	Al	0.42384 0.09770 0.78354 2.39900
P 	P 	0.42217 0.09568 0.88556 0.87700
P 	P 	0.24318 0.99873 0.70860 0.94900
O 	O 	0.38624 0.06070 0.83832 -0.80200
O 	O 	0.46586 0.24675 0.77494 -0.88900
O 	O 	0.20717 0.09283 0.70605 -0.87700
O 	O 	0.53875 0.07201 0.76897 -0.82500
O 	O 	0.29857 0.00412 0.75280 -0.81000
O 	O 	0.12240 0.25798 0.70321 -0.81900
O 	O 	0.33559 0.31645 0.66007 -0.83500
O 	O 	0.32410 0.31373 0.75222 -0.76800
Al	Al	0.91337 0.57611 0.03793 2.40100
Al	Al	0.09051 0.43103 0.11687 2.39800
P 	P 	0.08884 0.42901 0.21889 0.87900
P 	P 	0.90985 0.33206 0.04193 0.94400
O 	O 	0.05291 0.39403 0.17165 -0.80300
O 	O 	0.13253 0.58008 0.10827 -0.88900
O 	O 	0.87384 0.42616 0.03938 -0.87500
O 	O 	0.20542 0.40534 0.10230 -0.82500
O 	O 	0.96524 0.33745 0.08613 -0.80700
O 	O 	0.78907 0.59131 0.03654 -0.81900
O 	O 	0.00226 0.64978 0.99340 -0.83500
O 	O 	0.99077 0.64706 0.08555 -0.76700
Al	Al	0.58003 0.90945 0.37127 2.40100
Al	Al	0.75717 0.76437 0.45021 2.39900
P 	P 	0.75550 0.76235 0.55223 0.87900
P 	P 	0.57651 0.66540 0.37527 0.94400
O 	O 	0.71957 0.72737 0.50499 -0.80200
O 	O 	0.79919 0.91342 0.44161 -0.88900
O 	O 	0.54050 0.75950 0.37272 -0.87600
O 	O 	0.87208 0.73868 0.43564 -0.82400
O 	O 	0.63190 0.67079 0.41947 -0.80800
O 	O 	0.45573 0.92465 0.36988 -0.81900
O 	O 	0.66892 0.98312 0.32674 -0.83700
O 	O 	0.65743 0.98040 0.41889 -0.76900
Al	Al	0.75722 0.00392 0.70460 2.40100
Al	Al	0.90230 0.32614 0.78354 2.39900
P 	P 	0.90432 0.32649 0.88556 0.87700
P 	P 	0.00127 0.24445 0.70860 0.94900
O 	O 	0.93930 0.32554 0.83832 -0.80300
O 	O 	0.75325 0.21911 0.77494 -0.88900
O 	O 	0.90717 0.11434 0.70605 -0.87800
O 	O 	0.92799 0.46674 0.76897 -0.82500
O 	O 	0.99588 0.29445 0.75280 -0.81100
O 	O 	0.74202 0.86442 0.70321 -0.81800
O 	O 	0.68355 0.01914 0.66007 -0.83600
O 	O 	0.68627 0.01037 0.75222 -0.77000
Al	Al	0.42389 0.33725 0.03793 2.40100
Al	Al	0.56897 0.65947 0.11687 2.39900
P 	P 	0.57099 0.65982 0.21889 0.87900
P 	P 	0.66794 0.57778 0.04193 0.94400
O 	O 	0.60597 0.65887 0.17165 -0.80200
O 	O 	0.41992 0.55244 0.10827 -0.88900
O 	O 	0.57384 0.44767 0.03938 -0.87600
O 	O 	0.59466 0.80007 0.10230 -0.82500
O 	O 	0.66255 0.62778 0.08613 -0.80800
O 	O 	0.40869 0.19775 0.03654 -0.81900
O 	O 	0.35022 0.35247 0.99340 -0.83600
O 	O 	0.35294 0.34370 0.08555 -0.76900
Al	Al	0.09055 0.67059 0.37127 2.40100
Al	Al	0.23563 0.99281 0.45021 2.39900
P 	P 	0.23765 0.99316 0.55223 0.88100
P 	P 	0.33460 0.91112 0.37527 0.94400
O 	O 	0.27263 0.99221 0.50499 -0.80200
O 	O 	0.08658 0.88578 0.44161 -0.88900
O 	O 	0.24050 0.78101 0.37272 -0.87600
O 	O 	0.26132 0.13341 0.43564 -0.82400
O 	O 	0.32921 0.96112 0.41947 -0.80900
O 	O 	0.07535 0.53109 0.36988 -0.81900
O 	O 	0.01688 0.68581 0.32674 -0.83700
O 	O 	0.01960 0.67704 0.41889 -0.76900
Al	Al	0.99608 0.75330 0.70460 2.40100
Al	Al	0.67386 0.57616 0.78354 2.39900
P 	P 	0.67351 0.57783 0.88556 0.87900
P 	P 	0.75555 0.75682 0.70860 0.94400
O 	O 	0.67446 0.61376 0.83832 -0.80200
O 	O 	0.78089 0.53414 0.77494 -0.88900
O 	O 	0.88566 0.79283 0.70605 -0.87600
O 	O 	0.53326 0.46125 0.76897 -0.82400
O 	O 	0.70555 0.70143 0.75280 -0.80800
O 	O 	0.13558 0.87760 0.70321 -0.81800
O 	O 	0.98086 0.66441 0.66007 -0.83600
O 	O 	0.98963 0.67590 0.75222 -0.76900
Al	Al	0.66275 0.08663 0.03793 2.40100
Al	Al	0.34053 0.90949 0.11687 2.39800
P 	P 	0.34018 0.91116 0.21889 0.87900
P 	P 	0.42222 0.09015 0.04193 0.94400
O 	O 	0.34113 0.94709 0.17165 -0.80300
O 	O 	0.44756 0.86747 0.10827 -0.88900
O 	O 	0.55233 0.12616 0.03938 -0.87500
O 	O 	0.19993 0.79458 0.10230 -0.82500
O 	O 	0.37222 0.03476 0.08613 -0.80800
O 	O 	0.80225 0.21093 0.03654 -0.81900
O 	O 	0.64753 0.99774 0.99340 -0.83600
O 	O 	0.65630 0.00923 0.08555 -0.76700
Al	Al	0.32941 0.41997 0.37127 2.40100
Al	Al	0.00719 0.24283 0.45021 2.39900
P 	P 	0.00684 0.24450 0.55223 0.88100
P 	P 	0.08888 0.42349 0.37527 0.94400
O 	O 	0.00779 0.28043 0.50499 -0.80200
O 	O 	0.11422 0.20081 0.44161 -0.88900
O 	O 	0.21899 0.45950 0.37272 -0.87600
O 	O 	0.86659 0.12792 0.43564 -0.82400
O 	O 	0.03888 0.36810 0.41947 -0.80800
O 	O 	0.46891 0.54427 0.36988 -0.81900
O 	O 	0.31419 0.33108 0.32674 -0.83500
O 	O 	0.32296 0.34257 0.41889 -0.76900
