data_crystal

_cell_length_a 13.84860
_cell_length_b 22.10700
_cell_length_c 25.02200
_cell_angle_alpha 90.00000
_cell_angle_beta  95.00300
_cell_angle_gamma 90.00000

_symmetry_space_group_name_	'P 1'
_symmetry_space_group_name_H-M	'P 1'

loop_
_symmetry_equiv_pos_as_xyz
  x,y,z

loop_
_atom_site_label
_atom_site_type_symbol
_atom_site_fract_x
_atom_site_fract_y
_atom_site_fract_z
_atom_site_charge
Mo	Mo	0.92253 0.63384 0.07232 1.09700
Mo	Mo	0.69379 0.65052 0.11996 1.07400
Mo	Mo	0.62257 0.75882 0.12939 1.07800
Mo	Mo	0.75244 0.88493 0.09545 1.08500
Mo	Mo	0.92288 0.87280 0.06086 1.08600
Mo	Mo	0.02065 0.72809 0.04801 1.06600
Mn	Mn	0.92330 0.73645 0.28028 1.21800
Mn	Mn	0.86510 0.38992 0.16242 1.22100
Mn	Mn	0.72030 0.42731 0.19410 1.16500
P 	P 	0.87268 0.75733 0.14719 0.53100
P 	P 	0.84820 0.54736 0.17004 0.51400
P 	P 	0.62850 0.88390 0.20376 0.56200
P 	P 	0.15960 0.84660 0.08320 0.37700
P 	P 	0.13950 0.83130 0.12390 0.30800
O 	O 	0.03790 0.67240 0.10790 -0.58200
O 	O 	0.88840 0.70290 0.02490 -0.62300
O 	O 	0.77570 0.60920 0.06220 -0.47300
O 	O 	0.92720 0.57730 0.13830 -0.40900
O 	O 	0.81370 0.48820 0.14440 -0.56300
O 	O 	0.89310 0.53730 0.22760 -0.49200
O 	O 	0.76300 0.59070 0.17260 -0.44800
O 	O 	0.67070 0.69900 0.18240 -0.53000
O 	O 	0.67490 0.71830 0.06760 -0.63500
O 	O 	0.61170 0.81610 0.19460 -0.44600
O 	O 	0.62570 0.83700 0.08610 -0.49200
O 	O 	0.53280 0.91870 0.18890 -0.58000
O 	O 	0.66090 0.89510 0.26230 -0.73800
O 	O 	0.70800 0.90660 0.16980 -0.44300
O 	O 	0.88240 0.90410 0.12790 -0.51700
O 	O 	0.79600 0.83610 0.03600 -0.63600
O 	O 	0.06320 0.88090 0.09500 -0.48000
O 	O 	0.20310 0.86100 0.03110 -0.33800
O 	O 	0.23400 0.86190 0.12610 -0.63600
O 	O 	0.13390 0.77660 0.08640 -0.45200
O 	O 	0.12280 0.81350 0.18180 -0.50200
O 	O 	0.98380 0.81050 0.00910 -0.45800
O 	O 	0.84640 0.69180 0.13020 -0.45500
O 	O 	0.77770 0.79480 0.14260 -0.43100
O 	O 	0.94010 0.78280 0.10560 -0.43700
O 	O 	0.92360 0.75880 0.20300 -0.62000
C 	C 	0.94020 0.44040 0.06790 -0.01100
H 	H 	0.00430 0.44210 0.05510 -0.04700
H 	H 	0.93840 0.47110 0.09540 0.00800
C 	C 	0.86690 0.45930 0.02080 -0.06200
H 	H 	0.89190 0.49480 0.00380 -0.01700
H 	H 	0.86260 0.42700 0.99440 0.05500
N 	N 	0.93110 0.38070 0.09440 -0.36700
H 	H 	0.98860 0.37030 0.11050 0.09000
H 	H 	0.91220 0.35310 0.06980 0.07500
N 	N 	0.76930 0.47280 0.03540 -0.18300
H 	H 	0.75970 0.51260 0.03480 0.06300
H 	H 	0.76320 0.45880 0.06830 0.09200
H 	H 	0.72420 0.89150 0.48100 0.17700
H 	H 	0.72820 0.92310 0.53210 0.07800
N 	N 	0.72440 0.92770 0.49670 -0.23400
Mo	Mo	0.42253 0.13384 0.07232 1.08700
Mo	Mo	0.19379 0.15052 0.11996 1.07200
Mo	Mo	0.12257 0.25882 0.12939 1.07400
Mo	Mo	0.25244 0.38493 0.09545 1.08400
Mo	Mo	0.42288 0.37280 0.06086 1.07700
Mo	Mo	0.52065 0.22809 0.04801 1.08500
Mn	Mn	0.42330 0.23645 0.28028 1.20900
Mn	Mn	0.36510 0.88992 0.16242 1.21600
Mn	Mn	0.22030 0.92731 0.19410 1.16200
P 	P 	0.37268 0.25733 0.14719 0.53000
P 	P 	0.34820 0.04736 0.17004 0.51300
P 	P 	0.12850 0.38390 0.20376 0.56100
P 	P 	0.65960 0.34660 0.08320 0.37700
P 	P 	0.63950 0.33130 0.12390 0.31000
O 	O 	0.53790 0.17240 0.10790 -0.56100
O 	O 	0.38840 0.20290 0.02490 -0.63300
O 	O 	0.27570 0.10920 0.06220 -0.47500
O 	O 	0.42720 0.07730 0.13830 -0.42300
O 	O 	0.31370 0.98820 0.14440 -0.56700
O 	O 	0.39310 0.03730 0.22760 -0.50700
O 	O 	0.26300 0.09070 0.17260 -0.45200
O 	O 	0.17070 0.19900 0.18240 -0.53700
O 	O 	0.17490 0.21830 0.06760 -0.63700
O 	O 	0.11170 0.31610 0.19460 -0.45500
O 	O 	0.12570 0.33700 0.08610 -0.50200
O 	O 	0.03280 0.41870 0.18890 -0.59900
O 	O 	0.16090 0.39510 0.26230 -0.74300
O 	O 	0.20800 0.40660 0.16980 -0.44700
O 	O 	0.38240 0.40410 0.12790 -0.52800
O 	O 	0.29600 0.33610 0.03600 -0.63700
O 	O 	0.56320 0.38090 0.09500 -0.46200
O 	O 	0.70310 0.36100 0.03110 -0.33100
O 	O 	0.73400 0.36190 0.12610 -0.63400
O 	O 	0.63390 0.27660 0.08640 -0.44400
O 	O 	0.62280 0.31350 0.18180 -0.49300
O 	O 	0.48380 0.31050 0.00910 -0.47900
O 	O 	0.34640 0.19180 0.13020 -0.45900
O 	O 	0.27770 0.29480 0.14260 -0.43100
O 	O 	0.44010 0.28280 0.10560 -0.45300
O 	O 	0.42360 0.25880 0.20300 -0.63400
C 	C 	0.44020 0.94040 0.06790 -0.10300
H 	H 	0.50430 0.94210 0.05510 0.00700
H 	H 	0.43840 0.97110 0.09540 0.02700
C 	C 	0.36690 0.95930 0.02080 -0.02100
H 	H 	0.39190 0.99480 0.00380 -0.03600
H 	H 	0.36260 0.92700 0.99440 0.03900
N 	N 	0.43110 0.88070 0.09440 -0.34900
H 	H 	0.48860 0.87030 0.11050 0.06700
H 	H 	0.41220 0.85310 0.06980 0.06400
N 	N 	0.26930 0.97280 0.03540 -0.18900
H 	H 	0.25970 0.01260 0.03480 0.06200
H 	H 	0.26320 0.95880 0.06830 0.09300
H 	H 	0.22420 0.39150 0.48100 0.17800
H 	H 	0.22820 0.42310 0.53210 0.07500
N 	N 	0.22440 0.42770 0.49670 -0.23700
Mo	Mo	0.07747 0.63384 0.42768 1.07800
Mo	Mo	0.30621 0.65052 0.38004 1.07700
Mo	Mo	0.37743 0.75882 0.37061 1.08100
Mo	Mo	0.24756 0.88493 0.40455 1.08700
Mo	Mo	0.07712 0.87280 0.43914 1.07200
Mo	Mo	0.97935 0.72809 0.45199 1.10800
Mn	Mn	0.07670 0.73645 0.21972 1.20100
Mn	Mn	0.13490 0.38992 0.33758 1.21200
Mn	Mn	0.27970 0.42731 0.30590 1.16500
P 	P 	0.12732 0.75733 0.35281 0.53000
P 	P 	0.15180 0.54736 0.32996 0.51300
P 	P 	0.37150 0.88390 0.29624 0.56200
P 	P 	0.84040 0.84660 0.41680 0.37700
P 	P 	0.86050 0.83130 0.37610 0.31100
O 	O 	0.96210 0.67240 0.39210 -0.53900
O 	O 	0.11160 0.70290 0.47510 -0.63100
O 	O 	0.22430 0.60920 0.43780 -0.46600
O 	O 	0.07280 0.57730 0.36170 -0.43600
O 	O 	0.18630 0.48820 0.35560 -0.56900
O 	O 	0.10690 0.53730 0.27240 -0.51500
O 	O 	0.23700 0.59070 0.32740 -0.45000
O 	O 	0.32930 0.69900 0.31760 -0.53100
O 	O 	0.32510 0.71830 0.43240 -0.62400
O 	O 	0.38830 0.81610 0.30540 -0.44600
O 	O 	0.37430 0.83700 0.41390 -0.48500
O 	O 	0.46720 0.91870 0.31110 -0.58000
O 	O 	0.33910 0.89510 0.23770 -0.73900
O 	O 	0.29200 0.90660 0.33020 -0.44600
O 	O 	0.11760 0.90410 0.37210 -0.53600
O 	O 	0.20400 0.83610 0.46400 -0.62500
O 	O 	0.93680 0.88090 0.40500 -0.43900
O 	O 	0.79690 0.86100 0.46890 -0.31600
O 	O 	0.76600 0.86190 0.37390 -0.63400
O 	O 	0.86610 0.77660 0.41360 -0.43500
O 	O 	0.87720 0.81350 0.31820 -0.48500
O 	O 	0.01620 0.81050 0.49090 -0.48500
O 	O 	0.15360 0.69180 0.36980 -0.46400
O 	O 	0.22230 0.79480 0.35740 -0.43200
O 	O 	0.05990 0.78280 0.39440 -0.46900
O 	O 	0.07640 0.75880 0.29700 -0.64800
C 	C 	0.05980 0.44040 0.43210 -0.22200
H 	H 	0.99570 0.44210 0.44490 0.07700
H 	H 	0.06160 0.47110 0.40460 0.05400
C 	C 	0.13310 0.45930 0.47920 0.09100
H 	H 	0.10810 0.49480 0.49620 -0.06300
H 	H 	0.13740 0.42700 0.50560 -0.02600
N 	N 	0.06890 0.38070 0.40560 -0.33000
H 	H 	0.01140 0.37030 0.38950 0.04700
H 	H 	0.08780 0.35310 0.43020 0.06100
N 	N 	0.23070 0.47280 0.46460 -0.20900
H 	H 	0.24030 0.51260 0.46520 0.07500
H 	H 	0.23680 0.45880 0.43170 0.09900
H 	H 	0.27580 0.89150 0.01900 0.17700
H 	H 	0.27180 0.92310 0.96790 0.09800
N 	N 	0.27560 0.92770 0.00330 -0.26700
Mo	Mo	0.57747 0.13384 0.42768 1.08900
Mo	Mo	0.80621 0.15052 0.38004 1.07900
Mo	Mo	0.87743 0.25882 0.37061 1.08500
Mo	Mo	0.74756 0.38493 0.40455 1.08800
Mo	Mo	0.57712 0.37280 0.43914 1.08100
Mo	Mo	0.47935 0.22809 0.45199 1.08900
Mn	Mn	0.57670 0.23645 0.21972 1.21000
Mn	Mn	0.63490 0.88992 0.33758 1.21600
Mn	Mn	0.77970 0.92731 0.30590 1.16800
P 	P 	0.62732 0.25733 0.35281 0.53000
P 	P 	0.65180 0.04736 0.32996 0.51300
P 	P 	0.87150 0.38390 0.29624 0.56200
P 	P 	0.34040 0.34660 0.41680 0.37700
P 	P 	0.36050 0.33130 0.37610 0.30900
O 	O 	0.46210 0.17240 0.39210 -0.56100
O 	O 	0.61160 0.20290 0.47510 -0.62100
O 	O 	0.72430 0.10920 0.43780 -0.46400
O 	O 	0.57280 0.07730 0.36170 -0.42300
O 	O 	0.68630 0.98820 0.35560 -0.56500
O 	O 	0.60690 0.03730 0.27240 -0.50500
O 	O 	0.73700 0.09070 0.32740 -0.44500
O 	O 	0.82930 0.19900 0.31760 -0.52400
O 	O 	0.82510 0.21830 0.43240 -0.62100
O 	O 	0.88830 0.31610 0.30540 -0.43600
O 	O 	0.87430 0.33700 0.41390 -0.47600
O 	O 	0.96720 0.41870 0.31110 -0.55500
O 	O 	0.83910 0.39510 0.23770 -0.73300
O 	O 	0.79200 0.40660 0.33020 -0.44300
O 	O 	0.61760 0.40410 0.37210 -0.52600
O 	O 	0.70400 0.33610 0.46400 -0.62400
O 	O 	0.43680 0.38090 0.40500 -0.45900
O 	O 	0.29690 0.36100 0.46890 -0.32200
O 	O 	0.26600 0.36190 0.37390 -0.63600
O 	O 	0.36610 0.27660 0.41360 -0.44300
O 	O 	0.37720 0.31350 0.31820 -0.49400
O 	O 	0.51620 0.31050 0.49090 -0.46500
O 	O 	0.65360 0.19180 0.36980 -0.46000
O 	O 	0.72230 0.29480 0.35740 -0.43200
O 	O 	0.55990 0.28280 0.39440 -0.45300
O 	O 	0.57640 0.25880 0.29700 -0.63400
C 	C 	0.55980 0.94040 0.43210 -0.12900
H 	H 	0.49570 0.94210 0.44490 0.02300
H 	H 	0.56160 0.97110 0.40460 0.03500
C 	C 	0.63310 0.95930 0.47920 0.04800
H 	H 	0.60810 0.99480 0.49620 -0.04300
H 	H 	0.63740 0.92700 0.50560 -0.00900
N 	N 	0.56890 0.88070 0.40560 -0.34700
H 	H 	0.51140 0.87030 0.38950 0.06900
H 	H 	0.58780 0.85310 0.43020 0.07200
N 	N 	0.73070 0.97280 0.46460 -0.20200
H 	H 	0.74030 0.01260 0.46520 0.07500
H 	H 	0.73680 0.95880 0.43170 0.09800
H 	H 	0.77580 0.39150 0.01900 0.17600
H 	H 	0.77180 0.42310 0.96790 0.10000
N 	N 	0.77560 0.42770 0.00330 -0.26400
Mo	Mo	0.07747 0.36616 0.92768 1.08100
Mo	Mo	0.30621 0.34948 0.88004 1.07900
Mo	Mo	0.37743 0.24118 0.87061 1.08200
Mo	Mo	0.24756 0.11507 0.90455 1.09000
Mo	Mo	0.07712 0.12720 0.93914 1.07600
Mo	Mo	0.97935 0.27191 0.95199 1.11100
Mn	Mn	0.07670 0.26355 0.71972 1.20200
Mn	Mn	0.13490 0.61008 0.83758 1.21200
Mn	Mn	0.27970 0.57269 0.80590 1.16600
P 	P 	0.12732 0.24267 0.85281 0.53000
P 	P 	0.15180 0.45264 0.82996 0.51300
P 	P 	0.37150 0.11610 0.79624 0.56200
P 	P 	0.84040 0.15340 0.91680 0.37700
P 	P 	0.86050 0.16870 0.87610 0.31000
O 	O 	0.96210 0.32760 0.89210 -0.53800
O 	O 	0.11160 0.29710 0.97510 -0.61600
O 	O 	0.22430 0.39080 0.93780 -0.45700
O 	O 	0.07280 0.42270 0.86170 -0.43500
O 	O 	0.18630 0.51180 0.85560 -0.56900
O 	O 	0.10690 0.46270 0.77240 -0.51400
O 	O 	0.23700 0.40930 0.82740 -0.44900
O 	O 	0.32930 0.30100 0.81760 -0.52900
O 	O 	0.32510 0.28170 0.93240 -0.60900
O 	O 	0.38830 0.18390 0.80540 -0.44500
O 	O 	0.37430 0.16300 0.91390 -0.47700
O 	O 	0.46720 0.08130 0.81110 -0.58000
O 	O 	0.33910 0.10490 0.73770 -0.73900
O 	O 	0.29200 0.09340 0.83020 -0.44600
O 	O 	0.11760 0.09590 0.87210 -0.53400
O 	O 	0.20400 0.16390 0.96400 -0.60900
O 	O 	0.93680 0.11910 0.90500 -0.43800
O 	O 	0.79690 0.13900 0.96890 -0.30500
O 	O 	0.76600 0.13810 0.87390 -0.63400
O 	O 	0.86610 0.22340 0.91360 -0.43200
O 	O 	0.87720 0.18650 0.81820 -0.48500
O 	O 	0.01620 0.18950 0.99090 -0.47100
O 	O 	0.15360 0.30820 0.86980 -0.46400
O 	O 	0.22230 0.20520 0.85740 -0.43200
O 	O 	0.05990 0.21720 0.89440 -0.46900
O 	O 	0.07640 0.24120 0.79700 -0.64800
C 	C 	0.05980 0.55960 0.93210 -0.24600
H 	H 	0.99570 0.55790 0.94490 0.09100
H 	H 	0.06160 0.52890 0.90460 0.06100
C 	C 	0.13310 0.54070 0.97920 0.16100
H 	H 	0.10810 0.50520 0.99620 -0.07000
H 	H 	0.13740 0.57300 0.00560 -0.07500
N 	N 	0.06890 0.61930 0.90560 -0.32800
H 	H 	0.01140 0.62970 0.88950 0.04800
H 	H 	0.08780 0.64690 0.93020 0.06900
N 	N 	0.23070 0.52720 0.96460 -0.22300
H 	H 	0.24030 0.48740 0.96520 0.08500
H 	H 	0.23680 0.54120 0.93170 0.10200
H 	H 	0.27580 0.10850 0.51900 0.17700
H 	H 	0.27180 0.07690 0.46790 0.07200
N 	N 	0.27560 0.07230 0.50330 -0.23500
Mo	Mo	0.57747 0.86616 0.92768 1.09200
Mo	Mo	0.80621 0.84948 0.88004 1.08100
Mo	Mo	0.87743 0.74118 0.87061 1.08700
Mo	Mo	0.74756 0.61507 0.90455 1.09100
Mo	Mo	0.57712 0.62720 0.93914 1.08500
Mo	Mo	0.47935 0.77191 0.95199 1.09300
Mn	Mn	0.57670 0.76355 0.71972 1.21000
Mn	Mn	0.63490 0.11008 0.83758 1.21600
Mn	Mn	0.77970 0.07269 0.80590 1.16800
P 	P 	0.62732 0.74267 0.85281 0.53000
P 	P 	0.65180 0.95264 0.82996 0.51400
P 	P 	0.87150 0.61610 0.79624 0.56200
P 	P 	0.34040 0.65340 0.91680 0.37700
P 	P 	0.36050 0.66870 0.87610 0.30800
O 	O 	0.46210 0.82760 0.89210 -0.55900
O 	O 	0.61160 0.79710 0.97510 -0.60600
O 	O 	0.72430 0.89080 0.93780 -0.45600
O 	O 	0.57280 0.92270 0.86170 -0.42300
O 	O 	0.68630 0.01180 0.85560 -0.56600
O 	O 	0.60690 0.96270 0.77240 -0.50500
O 	O 	0.73700 0.90930 0.82740 -0.44500
O 	O 	0.82930 0.80100 0.81760 -0.52300
O 	O 	0.82510 0.78170 0.93240 -0.60700
O 	O 	0.88830 0.68390 0.80540 -0.43600
O 	O 	0.87430 0.66300 0.91390 -0.46800
O 	O 	0.96720 0.58130 0.81110 -0.55500
O 	O 	0.83910 0.60490 0.73770 -0.73200
O 	O 	0.79200 0.59340 0.83020 -0.44200
O 	O 	0.61760 0.59590 0.87210 -0.52300
O 	O 	0.70400 0.66390 0.96400 -0.60900
O 	O 	0.43680 0.61910 0.90500 -0.45600
O 	O 	0.29690 0.63900 0.96890 -0.31100
O 	O 	0.26600 0.63810 0.87390 -0.63500
O 	O 	0.36610 0.72340 0.91360 -0.43900
O 	O 	0.37720 0.68650 0.81820 -0.49400
O 	O 	0.51620 0.68950 0.99090 -0.45200
O 	O 	0.65360 0.80820 0.86980 -0.46000
O 	O 	0.72230 0.70520 0.85740 -0.43200
O 	O 	0.55990 0.71720 0.89440 -0.45400
O 	O 	0.57640 0.74120 0.79700 -0.63400
C 	C 	0.55980 0.05960 0.93210 -0.15600
H 	H 	0.49570 0.05790 0.94490 0.03800
H 	H 	0.56160 0.02890 0.90460 0.04200
C 	C 	0.63310 0.04070 0.97920 0.11700
H 	H 	0.60810 0.00520 0.99620 -0.05100
H 	H 	0.63740 0.07300 0.00560 -0.05700
N 	N 	0.56890 0.11930 0.90560 -0.34500
H 	H 	0.51140 0.12970 0.88950 0.07000
H 	H 	0.58780 0.14690 0.93020 0.07800
N 	N 	0.73070 0.02720 0.96460 -0.21700
H 	H 	0.74030 0.98740 0.96520 0.08600
H 	H 	0.73680 0.04120 0.93170 0.10100
H 	H 	0.77580 0.60850 0.51900 0.17600
H 	H 	0.77180 0.57690 0.46790 0.07400
N 	N 	0.77560 0.57230 0.50330 -0.23200
Mo	Mo	0.92253 0.36616 0.57232 1.10000
Mo	Mo	0.69379 0.34948 0.61996 1.07600
Mo	Mo	0.62257 0.24118 0.62939 1.08000
Mo	Mo	0.75244 0.11507 0.59545 1.08800
Mo	Mo	0.92288 0.12720 0.56086 1.08900
Mo	Mo	0.02065 0.27191 0.54801 1.07000
Mn	Mn	0.92330 0.26355 0.78028 1.21800
Mn	Mn	0.86510 0.61008 0.66242 1.22100
Mn	Mn	0.72030 0.57269 0.69410 1.16600
P 	P 	0.87268 0.24267 0.64719 0.53100
P 	P 	0.84820 0.45264 0.67004 0.51400
P 	P 	0.62850 0.11610 0.70376 0.56200
P 	P 	0.15960 0.15340 0.58320 0.37700
P 	P 	0.13950 0.16870 0.62390 0.30700
O 	O 	0.03790 0.32760 0.60790 -0.58000
O 	O 	0.88840 0.29710 0.52490 -0.61100
O 	O 	0.77570 0.39080 0.56220 -0.46500
O 	O 	0.92720 0.42270 0.63830 -0.40900
O 	O 	0.81370 0.51180 0.64440 -0.56400
O 	O 	0.89310 0.46270 0.72760 -0.49200
O 	O 	0.76300 0.40930 0.67260 -0.44700
O 	O 	0.67070 0.30100 0.68240 -0.52900
O 	O 	0.67490 0.28170 0.56760 -0.62400
O 	O 	0.61170 0.18390 0.69460 -0.44500
O 	O 	0.62570 0.16300 0.58610 -0.48500
O 	O 	0.53280 0.08130 0.68890 -0.58000
O 	O 	0.66090 0.10490 0.76230 -0.73700
O 	O 	0.70800 0.09340 0.66980 -0.44300
O 	O 	0.88240 0.09590 0.62790 -0.51500
O 	O 	0.79600 0.16390 0.53600 -0.62400
O 	O 	0.06320 0.11910 0.59500 -0.47800
O 	O 	0.20310 0.13900 0.53110 -0.32700
O 	O 	0.23400 0.13810 0.62610 -0.63500
O 	O 	0.13390 0.22340 0.58640 -0.44800
O 	O 	0.12280 0.18650 0.68180 -0.50200
O 	O 	0.98380 0.18950 0.50910 -0.44500
O 	O 	0.84640 0.30820 0.63020 -0.45600
O 	O 	0.77770 0.20520 0.64260 -0.43200
O 	O 	0.94010 0.21720 0.60560 -0.43800
O 	O 	0.92360 0.24120 0.70300 -0.62000
C 	C 	0.94020 0.55960 0.56790 -0.03800
H 	H 	0.00430 0.55790 0.55510 -0.03100
H 	H 	0.93840 0.52890 0.59540 0.01600
C 	C 	0.86690 0.54070 0.52080 0.00600
H 	H 	0.89190 0.50520 0.50380 -0.02400
H 	H 	0.86260 0.57300 0.49440 0.00700
N 	N 	0.93110 0.61930 0.59440 -0.36400
H 	H 	0.98860 0.62970 0.61050 0.09100
H 	H 	0.91220 0.64690 0.56980 0.08100
N 	N 	0.76930 0.52720 0.53540 -0.19600
H 	H 	0.75970 0.48740 0.53480 0.07300
H 	H 	0.76320 0.54120 0.56830 0.09500
H 	H 	0.72420 0.10850 0.98100 0.17700
H 	H 	0.72820 0.07690 0.03210 0.05200
N 	N 	0.72440 0.07230 0.99670 -0.20300
Mo	Mo	0.42253 0.86616 0.57232 1.08900
Mo	Mo	0.19379 0.84948 0.61996 1.07400
Mo	Mo	0.12257 0.74118 0.62939 1.07600
Mo	Mo	0.25244 0.61507 0.59545 1.08700
Mo	Mo	0.42288 0.62720 0.56086 1.08100
Mo	Mo	0.52065 0.77191 0.54801 1.08900
Mn	Mn	0.42330 0.76355 0.78028 1.21000
Mn	Mn	0.36510 0.11008 0.66242 1.21600
Mn	Mn	0.22030 0.07269 0.69410 1.16300
P 	P 	0.37268 0.74267 0.64719 0.53000
P 	P 	0.34820 0.95264 0.67004 0.51400
P 	P 	0.12850 0.61610 0.70376 0.56100
P 	P 	0.65960 0.65340 0.58320 0.37700
P 	P 	0.63950 0.66870 0.62390 0.30900
O 	O 	0.53790 0.82760 0.60790 -0.55900
O 	O 	0.38840 0.79710 0.52490 -0.62100
O 	O 	0.27570 0.89080 0.56220 -0.46700
O 	O 	0.42720 0.92270 0.63830 -0.42200
O 	O 	0.31370 0.01180 0.64440 -0.56800
O 	O 	0.39310 0.96270 0.72760 -0.50600
O 	O 	0.26300 0.90930 0.67260 -0.45100
O 	O 	0.17070 0.80100 0.68240 -0.53500
O 	O 	0.17490 0.78170 0.56760 -0.62600
O 	O 	0.11170 0.68390 0.69460 -0.45400
O 	O 	0.12570 0.66300 0.58610 -0.49400
O 	O 	0.03280 0.58130 0.68890 -0.59900
O 	O 	0.16090 0.60490 0.76230 -0.74200
O 	O 	0.20800 0.59340 0.66980 -0.44600
O 	O 	0.38240 0.59590 0.62790 -0.52600
O 	O 	0.29600 0.66390 0.53600 -0.62400
O 	O 	0.56320 0.61910 0.59500 -0.45900
O 	O 	0.70310 0.63900 0.53110 -0.32000
O 	O 	0.73400 0.63810 0.62610 -0.63300
O 	O 	0.63390 0.72340 0.58640 -0.44000
O 	O 	0.62280 0.68650 0.68180 -0.49300
O 	O 	0.48380 0.68950 0.50910 -0.46500
O 	O 	0.34640 0.80820 0.63020 -0.46000
O 	O 	0.27770 0.70520 0.64260 -0.43200
O 	O 	0.44010 0.71720 0.60560 -0.45300
O 	O 	0.42360 0.74120 0.70300 -0.63400
C 	C 	0.44020 0.05960 0.56790 -0.13000
H 	H 	0.50430 0.05790 0.55510 0.02300
H 	H 	0.43840 0.02890 0.59540 0.03500
C 	C 	0.36690 0.04070 0.52080 0.04900
H 	H 	0.39190 0.00520 0.50380 -0.04400
H 	H 	0.36260 0.07300 0.49440 -0.01000
N 	N 	0.43110 0.11930 0.59440 -0.34700
H 	H 	0.48860 0.12970 0.61050 0.06900
H 	H 	0.41220 0.14690 0.56980 0.07100
N 	N 	0.26930 0.02720 0.53540 -0.20400
H 	H 	0.25970 0.98740 0.53480 0.07200
H 	H 	0.26320 0.04120 0.56830 0.09600
H 	H 	0.22420 0.60850 0.98100 0.17800
H 	H 	0.22820 0.57690 0.03210 0.04800
N 	N 	0.22440 0.57230 0.99670 -0.20500
Mn	Mn	0.75000 0.75000 -0.00000 1.30800
Mn	Mn	0.25000 0.75000 0.50000 1.32300
Mn	Mn	0.25000 0.25000 -0.00000 1.30800
Mn	Mn	0.75000 0.25000 0.50000 1.32200
Mn	Mn	0.00000 0.47564 0.25000 1.24900
Mn	Mn	0.50000 0.97564 0.25000 1.26400
Mn	Mn	0.00000 0.52436 0.75000 1.25000
Mn	Mn	0.50000 0.02436 0.75000 1.26300
