data_crystal

_cell_length_a 16.24690
_cell_length_b 11.87750
_cell_length_c 18.02800
_cell_angle_alpha 90.00000
_cell_angle_beta  103.74900
_cell_angle_gamma 90.00000

_symmetry_space_group_name_	'P 1'
_symmetry_space_group_name_H-M	'P 1'

loop_
_symmetry_equiv_pos_as_xyz
  x,y,z

loop_
_atom_site_label
_atom_site_type_symbol
_atom_site_fract_x
_atom_site_fract_y
_atom_site_fract_z
_atom_site_charge
Mo	Mo	0.61768 0.26730 0.96685 1.09700
Mo	Mo	0.47931 0.14621 0.80525 1.07700
Mo	Mo	0.47622 0.92960 0.78693 1.09700
Mo	Mo	0.61101 0.75571 0.92163 1.09700
Mo	Mo	0.71561 0.84817 0.03684 1.07000
Mo	Mo	0.71678 0.14143 0.06753 1.05500
Mn	Mn	0.87551 0.00304 0.86546 1.30100
P 	P 	0.67256 0.02521 0.88577 0.49000
P 	P 	0.62316 0.33710 0.78995 0.52100
P 	P 	0.56102 0.70151 0.73712 0.50800
P 	P 	0.88903 0.00800 0.05862 0.43300
O 	O 	0.74000 0.04030 0.84210 -0.35900
O 	O 	0.61370 0.92260 0.85850 -0.38700
O 	O 	0.61540 0.13240 0.87680 -0.40600
O 	O 	0.71180 0.01000 0.97320 -0.43000
O 	O 	0.63010 0.44440 0.74800 -0.37700
O 	O 	0.53850 0.27580 0.76050 -0.38600
O 	O 	0.69940 0.25950 0.78020 -0.18800
O 	O 	0.63440 0.36320 0.87620 -0.37600
O 	O 	0.60830 0.67040 0.67710 -0.33100
O 	O 	0.48490 0.62250 0.73390 -0.25900
O 	O 	0.52920 0.82490 0.72180 -0.35500
O 	O 	0.62180 0.69610 0.81800 -0.35600
O 	O 	0.97750 0.99640 0.11740 -0.26200
O 	O 	0.90190 0.03900 0.98170 -0.37100
O 	O 	0.84110 0.10110 0.09170 -0.41300
O 	O 	0.84310 0.89400 0.06050 -0.36000
O 	O 	0.73880 0.24570 0.99240 -0.45600
O 	O 	0.59300 0.13530 0.02420 -0.66800
O 	O 	0.49180 0.25480 0.90110 -0.46300
O 	O 	0.51730 0.05060 0.73300 -0.48800
O 	O 	0.46420 0.02330 0.87510 -0.62800
O 	O 	0.48600 0.79100 0.86240 -0.46000
O 	O 	0.59170 0.86090 0.00080 -0.63400
O 	O 	0.73370 0.77390 0.94610 -0.46400
O 	O 	0.70410 0.98030 0.11450 -0.44300
Mo	Mo	0.88232 0.76730 0.53315 1.09400
Mo	Mo	0.02069 0.64621 0.69475 1.06100
Mo	Mo	0.02378 0.42960 0.71307 1.06300
Mo	Mo	0.88899 0.25571 0.57837 1.08900
Mo	Mo	0.78439 0.34817 0.46316 1.07800
Mo	Mo	0.78322 0.64143 0.43247 1.08300
Mn	Mn	0.62449 0.50304 0.63454 1.30500
P 	P 	0.82744 0.52521 0.61423 0.51200
P 	P 	0.87684 0.83710 0.71005 0.52100
P 	P 	0.93898 0.20151 0.76288 0.53200
P 	P 	0.61097 0.50800 0.44138 0.54400
O 	O 	0.76000 0.54030 0.65790 -0.35100
O 	O 	0.88630 0.42260 0.64150 -0.40600
O 	O 	0.88460 0.63240 0.62320 -0.40000
O 	O 	0.78820 0.51000 0.52680 -0.44500
O 	O 	0.86990 0.94440 0.75200 -0.34600
O 	O 	0.96150 0.77580 0.73950 -0.35400
O 	O 	0.80060 0.75950 0.71980 -0.18000
O 	O 	0.86560 0.86320 0.62380 -0.36300
O 	O 	0.89170 0.17040 0.82290 -0.33100
O 	O 	0.01510 0.12250 0.76610 -0.29600
O 	O 	0.97080 0.32490 0.77820 -0.34400
O 	O 	0.87820 0.19610 0.68200 -0.36500
O 	O 	0.52250 0.49640 0.38260 -0.32500
O 	O 	0.59810 0.53900 0.51830 -0.41900
O 	O 	0.65890 0.60110 0.40830 -0.39900
O 	O 	0.65690 0.39400 0.43950 -0.39400
O 	O 	0.76120 0.74570 0.50760 -0.48000
O 	O 	0.90700 0.63530 0.47580 -0.61300
O 	O 	0.00820 0.75480 0.59890 -0.49400
O 	O 	0.98270 0.55060 0.76700 -0.43800
O 	O 	0.03580 0.52330 0.62490 -0.63200
O 	O 	0.01400 0.29100 0.63760 -0.49300
O 	O 	0.90830 0.36090 0.49920 -0.61200
O 	O 	0.76630 0.27390 0.55390 -0.49700
O 	O 	0.79590 0.48030 0.38550 -0.46800
Mo	Mo	0.38232 0.73270 0.03315 1.06900
Mo	Mo	0.52069 0.85379 0.19475 1.08400
Mo	Mo	0.52378 0.07040 0.21307 1.06000
Mo	Mo	0.38899 0.24429 0.07837 1.07100
Mo	Mo	0.28439 0.15183 0.96316 1.09100
Mo	Mo	0.28322 0.85857 0.93247 1.09900
Mn	Mn	0.12449 0.99696 0.13454 1.30700
P 	P 	0.32744 0.97479 0.11423 0.54100
P 	P 	0.37684 0.66290 0.21005 0.52100
P 	P 	0.43898 0.29849 0.26288 0.50900
P 	P 	0.11097 0.99200 0.94138 0.59900
O 	O 	0.26000 0.95970 0.15790 -0.34600
O 	O 	0.38630 0.07740 0.14150 -0.45300
O 	O 	0.38460 0.86760 0.12320 -0.41500
O 	O 	0.28820 0.99000 0.02680 -0.45300
O 	O 	0.36990 0.55560 0.25200 -0.38000
O 	O 	0.46150 0.72420 0.23950 -0.38300
O 	O 	0.30060 0.74050 0.21980 -0.18700
O 	O 	0.36560 0.63680 0.12380 -0.38700
O 	O 	0.39170 0.32960 0.32290 -0.33800
O 	O 	0.51510 0.37750 0.26610 -0.26500
O 	O 	0.47080 0.17510 0.27820 -0.37300
O 	O 	0.37820 0.30390 0.18200 -0.36400
O 	O 	0.02250 0.00360 0.88260 -0.36400
O 	O 	0.09810 0.96100 0.01830 -0.45000
O 	O 	0.15890 0.89890 0.90830 -0.39600
O 	O 	0.15690 0.10600 0.93950 -0.40300
O 	O 	0.26120 0.75430 0.00760 -0.50700
O 	O 	0.40700 0.86470 0.97580 -0.59100
O 	O 	0.50820 0.74520 0.09890 -0.48000
O 	O 	0.48270 0.94940 0.26700 -0.44700
O 	O 	0.53580 0.97670 0.12490 -0.59700
O 	O 	0.51400 0.20900 0.13760 -0.48400
O 	O 	0.40830 0.13910 0.99920 -0.59500
O 	O 	0.26630 0.22610 0.05390 -0.52200
O 	O 	0.29590 0.01970 0.88550 -0.48100
Mo	Mo	0.11768 0.23270 0.46685 1.07200
Mo	Mo	0.97931 0.35379 0.30525 1.09400
Mo	Mo	0.97622 0.57040 0.28693 1.09800
Mo	Mo	0.11101 0.74429 0.42163 1.07800
Mo	Mo	0.21561 0.65183 0.53684 1.08100
Mo	Mo	0.21678 0.35857 0.56753 1.08100
Mn	Mn	0.37551 0.49696 0.36546 1.30500
P 	P 	0.17256 0.47479 0.38577 0.51400
P 	P 	0.12316 0.16290 0.28995 0.52000
P 	P 	0.06102 0.79849 0.23712 0.48000
P 	P 	0.38903 0.49200 0.55862 0.54400
O 	O 	0.24000 0.45970 0.34210 -0.35400
O 	O 	0.11370 0.57740 0.35850 -0.42800
O 	O 	0.11540 0.36760 0.37680 -0.42100
O 	O 	0.21180 0.49000 0.47320 -0.44600
O 	O 	0.13010 0.05560 0.24800 -0.41000
O 	O 	0.03850 0.22420 0.26050 -0.40900
O 	O 	0.19940 0.24050 0.28020 -0.19400
O 	O 	0.13440 0.13680 0.37620 -0.39600
O 	O 	0.10830 0.82960 0.17710 -0.33700
O 	O 	0.98490 0.87750 0.23390 -0.22000
O 	O 	0.02920 0.67510 0.22180 -0.38200
O 	O 	0.12180 0.80390 0.31800 -0.35700
O 	O 	0.47750 0.50360 0.61740 -0.32500
O 	O 	0.40190 0.46100 0.48170 -0.42000
O 	O 	0.34110 0.39890 0.59170 -0.40200
O 	O 	0.34310 0.60600 0.56050 -0.38900
O 	O 	0.23880 0.25430 0.49240 -0.49000
O 	O 	0.09300 0.36470 0.52420 -0.63700
O 	O 	0.99180 0.24520 0.40110 -0.46000
O 	O 	0.01730 0.44940 0.23300 -0.49600
O 	O 	0.96420 0.47670 0.37510 -0.60700
O 	O 	0.98600 0.70900 0.36240 -0.44400
O 	O 	0.09170 0.63910 0.50080 -0.63100
O 	O 	0.23370 0.72610 0.44610 -0.48700
O 	O 	0.20410 0.51970 0.61450 -0.46700
Mn	Mn	0.50000 0.00000 -0.00000 1.28400
Mn	Mn	0.00000 0.50000 0.50000 1.30500
