data_crystal

_cell_length_a 10.18700
_cell_length_b 10.24100
_cell_length_c 8.21370
_cell_angle_alpha 90.39800
_cell_angle_beta  95.93000
_cell_angle_gamma 117.32500

_symmetry_space_group_name_	'P 1'
_symmetry_space_group_name_H-M	'P 1'

loop_
_symmetry_equiv_pos_as_xyz
  x,y,z

loop_
_atom_site_label
_atom_site_type_symbol
_atom_site_fract_x
_atom_site_fract_y
_atom_site_fract_z
_atom_site_charge
V 	V 	0.98656 0.21530 0.35432 1.80000
V 	V 	0.51973 0.78346 0.15204 1.70200
V 	V 	0.78684 0.14798 0.69350 1.70500
P 	P 	0.78310 0.88430 0.45570 0.59200
P 	P 	0.18590 0.53680 0.20530 0.55200
P 	P 	0.28670 0.87930 0.94100 0.58200
O 	O 	0.11980 0.43050 0.33830 -0.45300
O 	O 	0.36620 0.78480 0.98090 -0.54500
O 	O 	0.88800 0.99750 0.34720 -0.55200
O 	O 	0.62720 0.79420 0.36820 -0.55700
O 	O 	0.13630 0.77400 0.84120 -0.48900
O 	O 	0.77280 0.95860 0.61480 -0.56600
O 	O 	0.26060 0.94160 0.09710 -0.60200
O 	O 	0.12600 0.44450 0.03460 -0.24100
O 	O 	0.89520 0.23600 0.49700 -0.77900
O 	O 	0.35300 0.60180 0.22480 -0.55300
O 	O 	0.12760 0.65040 0.20220 -0.49900
O 	O 	0.84430 0.77690 0.50500 -0.50300
O 	O 	0.37820 0.00280 0.83620 -0.59400
V 	V 	0.01344 0.78470 0.64568 1.80000
V 	V 	0.48027 0.21654 0.84796 1.70200
V 	V 	0.21316 0.85202 0.30650 1.70500
P 	P 	0.21690 0.11570 0.54430 0.59200
P 	P 	0.81410 0.46320 0.79470 0.55200
P 	P 	0.71330 0.12070 0.05900 0.58200
O 	O 	0.88020 0.56950 0.66170 -0.45300
O 	O 	0.63380 0.21520 0.01910 -0.54500
O 	O 	0.11200 0.00250 0.65280 -0.55200
O 	O 	0.37280 0.20580 0.63180 -0.55700
O 	O 	0.86370 0.22600 0.15880 -0.48900
O 	O 	0.22720 0.04140 0.38520 -0.56600
O 	O 	0.73940 0.05840 0.90290 -0.60200
O 	O 	0.87400 0.55550 0.96540 -0.24100
O 	O 	0.10480 0.76400 0.50300 -0.77900
O 	O 	0.64700 0.39820 0.77520 -0.55300
O 	O 	0.87240 0.34960 0.79780 -0.49900
O 	O 	0.15570 0.22310 0.49500 -0.50300
O 	O 	0.62180 0.99720 0.16380 -0.59400
