data_crystal

_cell_length_a 7.23830
_cell_length_b 24.67300
_cell_length_c 30.07290
_cell_angle_alpha 90.00000
_cell_angle_beta  94.67100
_cell_angle_gamma 90.00000

_symmetry_space_group_name_	'P 1'
_symmetry_space_group_name_H-M	'P 1'

loop_
_symmetry_equiv_pos_as_xyz
  x,y,z

loop_
_atom_site_label
_atom_site_type_symbol
_atom_site_fract_x
_atom_site_fract_y
_atom_site_fract_z
_atom_site_charge
Rb	Rb	0.49940 0.22847 0.26939 0.57200
C 	C 	0.26760 0.08820 0.52990 0.09500
C 	C 	0.42470 0.11770 0.51690 -0.08400
H 	H 	0.48610 0.14570 0.53260 0.06100
C 	C 	0.46680 0.09660 0.47740 -0.09600
H 	H 	0.56350 0.10710 0.46080 0.05700
C 	C 	0.33190 0.05460 0.46620 0.11000
N 	N 	0.20940 0.04970 0.49910 -0.28800
C 	C 	0.32330 0.02660 0.42641 -0.19900
C 	C 	0.19320 0.98700 0.41610 0.14500
C 	C 	0.18450 0.95640 0.37510 -0.08300
H 	H 	0.26060 0.96070 0.35190 0.07600
C 	C 	0.04640 0.92050 0.37670 -0.12200
H 	H 	0.00770 0.89540 0.35480 0.07600
C 	C 	0.96900 0.92840 0.41910 0.15600
N 	N 	0.05910 0.96980 0.44298 -0.29400
C 	C 	0.18180 0.10080 0.56840 -0.14400
C 	C 	0.45250 0.04250 0.39250 0.14800
C 	C 	0.64150 0.03040 0.39770 -0.18800
H 	H 	0.69000 0.01090 0.42240 0.06500
C 	C 	0.75600 0.04770 0.36590 0.08300
H 	H 	0.88200 0.03990 0.36960 0.00800
C 	C 	0.68650 0.07640 0.32880 -0.15800
C 	C 	0.49780 0.08680 0.32280 0.08900
H 	H 	0.44950 0.10540 0.29760 -0.00100
C 	C 	0.38070 0.06960 0.35440 -0.20000
H 	H 	0.25410 0.07630 0.35010 0.11100
C 	C 	0.81070 0.09970 0.29669 0.33500
O 	O 	0.98100 0.09090 0.30010 -0.35900
O 	O 	0.74320 0.13181 0.26623 -0.45300
C 	C 	0.26250 0.14330 0.59950 0.14500
C 	C 	0.16630 0.18970 0.60720 -0.19700
H 	H 	0.05040 0.19600 0.59240 0.08700
C 	C 	0.24580 0.22760 0.63790 0.08700
H 	H 	0.18240 0.25940 0.64320 -0.02300
C 	C 	0.41680 0.21820 0.66010 -0.15800
C 	C 	0.51430 0.17380 0.65130 0.09400
H 	H 	0.63230 0.16830 0.66520 0.00500
C 	C 	0.43600 0.13600 0.62100 -0.19100
H 	H 	0.50260 0.10490 0.61520 0.09800
C 	C 	0.52100 0.26000 0.69500 0.39500
O 	O 	0.66600 0.24730 0.71340 -0.43100
O 	O 	0.40650 0.29760 0.70320 -0.48300
O 	O 	0.48700 0.34800 0.23080 -0.28800
C 	C 	0.35500 0.36370 0.25100 0.26400
N 	N 	0.28400 0.42020 0.25480 -0.13900
C 	C 	0.44500 0.45620 0.25470 0.03300
C 	C 	0.08600 0.43500 0.25580 0.00200
Rb	Rb	0.99940 0.72847 0.26939 0.57600
C 	C 	0.76760 0.58820 0.52990 0.10300
C 	C 	0.92470 0.61770 0.51690 -0.10600
H 	H 	0.98610 0.64570 0.53260 0.07200
C 	C 	0.96680 0.59660 0.47740 -0.04700
H 	H 	0.06350 0.60710 0.46080 0.02300
C 	C 	0.83190 0.55460 0.46620 0.09400
N 	N 	0.70940 0.54970 0.49910 -0.27800
C 	C 	0.82330 0.52660 0.42641 -0.16400
C 	C 	0.69320 0.48700 0.41610 0.11100
C 	C 	0.68450 0.45640 0.37510 -0.08400
H 	H 	0.76060 0.46070 0.35190 0.07100
C 	C 	0.54640 0.42050 0.37670 -0.08900
H 	H 	0.50770 0.39540 0.35480 0.07400
C 	C 	0.46900 0.42840 0.41910 0.11800
N 	N 	0.55910 0.46980 0.44298 -0.28200
C 	C 	0.68180 0.60080 0.56840 -0.12700
C 	C 	0.95250 0.54250 0.39250 0.18700
C 	C 	0.14150 0.53040 0.39770 -0.23800
H 	H 	0.19000 0.51090 0.42240 0.08600
C 	C 	0.25600 0.54770 0.36590 0.12800
H 	H 	0.38200 0.53990 0.36960 -0.00700
C 	C 	0.18650 0.57640 0.32880 -0.20500
C 	C 	0.99780 0.58680 0.32280 0.14800
H 	H 	0.94950 0.60540 0.29760 -0.01600
C 	C 	0.88070 0.56960 0.35440 -0.23400
H 	H 	0.75410 0.57630 0.35010 0.13200
C 	C 	0.31070 0.59970 0.29669 0.35400
O 	O 	0.48100 0.59090 0.30010 -0.37600
O 	O 	0.24320 0.63181 0.26623 -0.46700
C 	C 	0.76250 0.64330 0.59950 0.06900
C 	C 	0.66630 0.68970 0.60720 -0.11200
H 	H 	0.55040 0.69600 0.59240 0.06300
C 	C 	0.74580 0.72760 0.63790 -0.00500
H 	H 	0.68240 0.75940 0.64320 0.01100
C 	C 	0.91680 0.71820 0.66010 -0.03600
C 	C 	0.01430 0.67380 0.65130 -0.07200
H 	H 	0.13230 0.66830 0.66520 0.05900
C 	C 	0.93600 0.63600 0.62100 -0.03600
H 	H 	0.00260 0.60490 0.61520 0.03500
C 	C 	0.02100 0.76000 0.69500 0.32200
O 	O 	0.16600 0.74730 0.71340 -0.41700
O 	O 	0.90650 0.79760 0.70320 -0.44900
O 	O 	0.98700 0.84800 0.23080 -0.26100
C 	C 	0.85500 0.86370 0.25100 0.28200
N 	N 	0.78400 0.92020 0.25480 -0.16000
C 	C 	0.94500 0.95620 0.25470 0.17500
C 	C 	0.58600 0.93500 0.25580 0.03800
Rb	Rb	0.50060 0.22847 0.23061 0.56900
C 	C 	0.73240 0.08820 0.97010 0.12200
C 	C 	0.57530 0.11770 0.98310 -0.05400
H 	H 	0.51390 0.14570 0.96740 0.05100
C 	C 	0.53320 0.09660 0.02260 -0.13900
H 	H 	0.43650 0.10710 0.03920 0.06100
C 	C 	0.66810 0.05460 0.03380 0.12200
N 	N 	0.79060 0.04970 0.00090 -0.29800
C 	C 	0.67670 0.02660 0.07359 -0.21300
C 	C 	0.80680 0.98700 0.08390 0.17000
C 	C 	0.81550 0.95640 0.12490 -0.12800
H 	H 	0.73940 0.96070 0.14810 0.09500
C 	C 	0.95360 0.92050 0.12330 -0.01500
H 	H 	0.99230 0.89540 0.14520 0.05700
C 	C 	0.03100 0.92840 0.08090 0.05200
N 	N 	0.94090 0.96980 0.05702 -0.26000
C 	C 	0.81820 0.10080 0.93160 -0.18200
C 	C 	0.54750 0.04250 0.10750 0.16400
C 	C 	0.35850 0.03040 0.10230 -0.20800
H 	H 	0.31000 0.01090 0.07760 0.06500
C 	C 	0.24400 0.04770 0.13410 0.09800
H 	H 	0.11800 0.03990 0.13040 -0.01100
C 	C 	0.31350 0.07640 0.17120 -0.17600
C 	C 	0.50220 0.08680 0.17720 0.10600
H 	H 	0.55050 0.10540 0.20240 -0.00700
C 	C 	0.61930 0.06960 0.14560 -0.21900
H 	H 	0.74590 0.07630 0.14990 0.12800
C 	C 	0.18930 0.09970 0.20331 0.34400
O 	O 	0.01900 0.09090 0.19990 -0.39100
O 	O 	0.25680 0.13181 0.23377 -0.46200
C 	C 	0.73750 0.14330 0.90050 0.17600
C 	C 	0.83370 0.18970 0.89280 -0.21400
H 	H 	0.94960 0.19600 0.90760 0.10800
C 	C 	0.75420 0.22760 0.86210 0.10600
H 	H 	0.81760 0.25940 0.85680 -0.02300
C 	C 	0.58320 0.21820 0.83990 -0.16900
C 	C 	0.48570 0.17380 0.84870 0.11000
H 	H 	0.36770 0.16830 0.83480 -0.00300
C 	C 	0.56400 0.13600 0.87900 -0.21200
H 	H 	0.49740 0.10490 0.88480 0.10500
C 	C 	0.47900 0.26000 0.80500 0.39800
O 	O 	0.33400 0.24730 0.78660 -0.43800
O 	O 	0.59350 0.29760 0.79680 -0.48200
O 	O 	0.51300 0.34800 0.26920 -0.28400
C 	C 	0.64500 0.36370 0.24900 0.27300
N 	N 	0.71600 0.42020 0.24520 -0.14500
C 	C 	0.55500 0.45620 0.24530 0.04100
C 	C 	0.91400 0.43500 0.24420 0.05200
Rb	Rb	0.00060 0.72847 0.23061 0.56300
C 	C 	0.23240 0.58820 0.97010 0.12100
C 	C 	0.07530 0.61770 0.98310 -0.04100
H 	H 	0.01390 0.64570 0.96740 0.04300
C 	C 	0.03320 0.59660 0.02260 -0.16800
H 	H 	0.93650 0.60710 0.03920 0.08500
C 	C 	0.16810 0.55460 0.03380 0.11200
N 	N 	0.29060 0.54970 0.00090 -0.29600
C 	C 	0.17670 0.52660 0.07359 -0.15300
C 	C 	0.30680 0.48700 0.08390 0.10400
C 	C 	0.31550 0.45640 0.12490 -0.08700
H 	H 	0.23940 0.46070 0.14810 0.07100
C 	C 	0.45360 0.42050 0.12330 -0.07400
H 	H 	0.49230 0.39540 0.14520 0.06700
C 	C 	0.53100 0.42840 0.08090 0.08900
N 	N 	0.44090 0.46980 0.05702 -0.28100
C 	C 	0.31820 0.60080 0.93160 -0.19200
C 	C 	0.04750 0.54250 0.10750 0.09700
C 	C 	0.85850 0.53040 0.10230 -0.12400
H 	H 	0.81000 0.51090 0.07760 0.05100
C 	C 	0.74400 0.54770 0.13410 0.03800
H 	H 	0.61800 0.53990 0.13040 0.02500
C 	C 	0.81350 0.57640 0.17120 -0.10700
C 	C 	0.00220 0.58680 0.17720 0.03100
H 	H 	0.05050 0.60540 0.20240 0.01600
C 	C 	0.11930 0.56960 0.14560 -0.15100
H 	H 	0.24590 0.57630 0.14990 0.10100
C 	C 	0.68930 0.59970 0.20331 0.32200
O 	O 	0.51900 0.59090 0.19990 -0.36600
O 	O 	0.75680 0.63181 0.23377 -0.44900
C 	C 	0.23750 0.64330 0.90050 0.24600
C 	C 	0.33370 0.68970 0.89280 -0.29100
H 	H 	0.44960 0.69600 0.90760 0.13000
C 	C 	0.25420 0.72760 0.86210 0.19000
H 	H 	0.31760 0.75940 0.85680 -0.05500
C 	C 	0.08320 0.71820 0.83990 -0.28100
C 	C 	0.98570 0.67380 0.84870 0.26100
H 	H 	0.86770 0.66830 0.83480 -0.05100
C 	C 	0.06400 0.63600 0.87900 -0.35200
H 	H 	0.99740 0.60490 0.88480 0.16700
C 	C 	0.97900 0.76000 0.80500 0.46500
O 	O 	0.83400 0.74730 0.78660 -0.45000
O 	O 	0.09350 0.79760 0.79680 -0.51000
O 	O 	0.01300 0.84800 0.26920 -0.31100
C 	C 	0.14500 0.86370 0.24900 0.25700
N 	N 	0.21600 0.92020 0.24520 -0.12200
C 	C 	0.05500 0.95620 0.24530 -0.08600
C 	C 	0.41400 0.93500 0.24420 0.03000
Rb	Rb	0.50060 0.77153 0.73061 0.56900
C 	C 	0.73240 0.91180 0.47010 0.12400
C 	C 	0.57530 0.88230 0.48310 -0.10200
H 	H 	0.51390 0.85430 0.46740 0.06400
C 	C 	0.53320 0.90340 0.52260 -0.07400
H 	H 	0.43650 0.89290 0.53920 0.04400
C 	C 	0.66810 0.94540 0.53380 0.09100
N 	N 	0.79060 0.95030 0.50090 -0.26600
C 	C 	0.67670 0.97340 0.57359 -0.11100
C 	C 	0.80680 0.01300 0.58390 0.07100
C 	C 	0.81550 0.04360 0.62490 -0.08800
H 	H 	0.73940 0.03930 0.64810 0.06500
C 	C 	0.95360 0.07950 0.62330 -0.04100
H 	H 	0.99230 0.10460 0.64520 0.06400
C 	C 	0.03100 0.07160 0.58090 0.05200
N 	N 	0.94090 0.03020 0.55702 -0.25800
C 	C 	0.81820 0.89920 0.43160 -0.17600
C 	C 	0.54750 0.95750 0.60750 0.13600
C 	C 	0.35850 0.96960 0.60230 -0.17300
H 	H 	0.31000 0.98910 0.57760 0.07600
C 	C 	0.24400 0.95230 0.63410 0.08400
H 	H 	0.11800 0.96010 0.63040 0.01100
C 	C 	0.31350 0.92360 0.67120 -0.15300
C 	C 	0.50220 0.91320 0.67720 0.09000
H 	H 	0.55050 0.89460 0.70240 0.00200
C 	C 	0.61930 0.93040 0.64560 -0.18400
H 	H 	0.74590 0.92370 0.64990 0.12200
C 	C 	0.18930 0.90030 0.70331 0.34200
O 	O 	0.01900 0.90910 0.69990 -0.37900
O 	O 	0.25680 0.86819 0.73377 -0.45900
C 	C 	0.73750 0.85670 0.40050 0.17700
C 	C 	0.83370 0.81030 0.39280 -0.21500
H 	H 	0.94960 0.80400 0.40760 0.10600
C 	C 	0.75420 0.77240 0.36210 0.10500
H 	H 	0.81760 0.74060 0.35680 -0.02400
C 	C 	0.58320 0.78180 0.33990 -0.17000
C 	C 	0.48570 0.82620 0.34870 0.11100
H 	H 	0.36770 0.83170 0.33480 -0.00300
C 	C 	0.56400 0.86400 0.37900 -0.21200
H 	H 	0.49740 0.89510 0.38480 0.11100
C 	C 	0.47900 0.74000 0.30500 0.39800
O 	O 	0.33400 0.75270 0.28660 -0.43800
O 	O 	0.59350 0.70240 0.29680 -0.48200
O 	O 	0.51300 0.65200 0.76920 -0.28400
C 	C 	0.64500 0.63630 0.74900 0.27300
N 	N 	0.71600 0.57980 0.74520 -0.14500
C 	C 	0.55500 0.54380 0.74530 0.04100
C 	C 	0.91400 0.56500 0.74420 0.05200
Rb	Rb	0.00060 0.27153 0.73061 0.56300
C 	C 	0.23240 0.41180 0.47010 0.11400
C 	C 	0.07530 0.38230 0.48310 -0.08200
H 	H 	0.01390 0.35430 0.46740 0.05200
C 	C 	0.03320 0.40340 0.52260 -0.12300
H 	H 	0.93650 0.39290 0.53920 0.07500
C 	C 	0.16810 0.44540 0.53380 0.10300
N 	N 	0.29060 0.45030 0.50090 -0.28300
C 	C 	0.17670 0.47340 0.57359 -0.14600
C 	C 	0.30680 0.51300 0.58390 0.10200
C 	C 	0.31550 0.54360 0.62490 -0.08500
H 	H 	0.23940 0.53930 0.64810 0.07000
C 	C 	0.45360 0.57950 0.62330 -0.07600
H 	H 	0.49230 0.60460 0.64520 0.06800
C 	C 	0.53100 0.57160 0.58090 0.09200
N 	N 	0.44090 0.53020 0.55702 -0.27800
C 	C 	0.31820 0.39920 0.43160 -0.19500
C 	C 	0.04750 0.45750 0.60750 0.09400
C 	C 	0.85850 0.46960 0.60230 -0.12100
H 	H 	0.81000 0.48910 0.57760 0.05300
C 	C 	0.74400 0.45230 0.63410 0.03700
H 	H 	0.61800 0.46010 0.63040 0.02600
C 	C 	0.81350 0.42360 0.67120 -0.10500
C 	C 	0.00220 0.41320 0.67720 0.02900
H 	H 	0.05050 0.39460 0.70240 0.01700
C 	C 	0.11930 0.43040 0.64560 -0.14800
H 	H 	0.24590 0.42370 0.64990 0.10100
C 	C 	0.68930 0.40030 0.70331 0.32200
O 	O 	0.51900 0.40910 0.69990 -0.36600
O 	O 	0.75680 0.36819 0.73377 -0.44900
C 	C 	0.23750 0.35670 0.40050 0.25000
C 	C 	0.33370 0.31030 0.39280 -0.29600
H 	H 	0.44960 0.30400 0.40760 0.12900
C 	C 	0.25420 0.27240 0.36210 0.19400
H 	H 	0.31760 0.24060 0.35680 -0.05700
C 	C 	0.08320 0.28180 0.33990 -0.28800
C 	C 	0.98570 0.32620 0.34870 0.27100
H 	H 	0.86770 0.33170 0.33480 -0.05400
C 	C 	0.06400 0.36400 0.37900 -0.36100
H 	H 	0.99740 0.39510 0.38480 0.17100
C 	C 	0.97900 0.24000 0.30500 0.46800
O 	O 	0.83400 0.25270 0.28660 -0.45100
O 	O 	0.09350 0.20240 0.29680 -0.51100
O 	O 	0.01300 0.15200 0.76920 -0.31100
C 	C 	0.14500 0.13630 0.74900 0.25500
N 	N 	0.21600 0.07980 0.74520 -0.12300
C 	C 	0.05500 0.04380 0.74530 -0.10600
C 	C 	0.41400 0.06500 0.74420 0.01700
Rb	Rb	0.49940 0.77153 0.76939 0.57000
C 	C 	0.26760 0.91180 0.02990 0.09600
C 	C 	0.42470 0.88230 0.01690 -0.13300
H 	H 	0.48610 0.85430 0.03260 0.07300
C 	C 	0.46680 0.90340 0.97740 -0.03200
H 	H 	0.56350 0.89290 0.96080 0.03800
C 	C 	0.33190 0.94540 0.96620 0.07700
N 	N 	0.20940 0.95030 0.99910 -0.25300
C 	C 	0.32330 0.97340 0.92641 -0.09500
C 	C 	0.19320 0.01300 0.91610 0.04400
C 	C 	0.18450 0.04360 0.87510 -0.04100
H 	H 	0.26060 0.03930 0.85190 0.04500
C 	C 	0.04640 0.07950 0.87670 -0.15200
H 	H 	0.00770 0.10460 0.85480 0.08500
C 	C 	0.96900 0.07160 0.91910 0.16000
N 	N 	0.05910 0.03020 0.94298 -0.29100
C 	C 	0.18180 0.89920 0.06840 -0.13900
C 	C 	0.45250 0.95750 0.89250 0.11800
C 	C 	0.64150 0.96960 0.89770 -0.15400
H 	H 	0.69000 0.98910 0.92240 0.07600
C 	C 	0.75600 0.95230 0.86590 0.06900
H 	H 	0.88200 0.96010 0.86960 0.02900
C 	C 	0.68650 0.92360 0.82880 -0.13600
C 	C 	0.49780 0.91320 0.82280 0.07400
H 	H 	0.44950 0.89460 0.79760 0.00800
C 	C 	0.38070 0.93040 0.85440 -0.16500
H 	H 	0.25410 0.92370 0.85010 0.10600
C 	C 	0.81070 0.90030 0.79669 0.33200
O 	O 	0.98100 0.90910 0.80010 -0.34800
O 	O 	0.74320 0.86819 0.76623 -0.45000
C 	C 	0.26250 0.85670 0.09950 0.14600
C 	C 	0.16630 0.81030 0.10720 -0.19800
H 	H 	0.05040 0.80400 0.09240 0.08600
C 	C 	0.24580 0.77240 0.13790 0.08700
H 	H 	0.18240 0.74060 0.14320 -0.02400
C 	C 	0.41680 0.78180 0.16010 -0.15900
C 	C 	0.51430 0.82620 0.15130 0.09500
H 	H 	0.63230 0.83170 0.16520 0.00400
C 	C 	0.43600 0.86400 0.12100 -0.19200
H 	H 	0.50260 0.89510 0.11520 0.10400
C 	C 	0.52100 0.74000 0.19500 0.39400
O 	O 	0.66600 0.75270 0.21340 -0.43100
O 	O 	0.40650 0.70240 0.20320 -0.48300
O 	O 	0.48700 0.65200 0.73080 -0.28800
C 	C 	0.35500 0.63630 0.75100 0.26400
N 	N 	0.28400 0.57980 0.75480 -0.13900
C 	C 	0.44500 0.54380 0.75470 0.03300
C 	C 	0.08600 0.56500 0.75580 0.00200
Rb	Rb	0.99940 0.27153 0.76939 0.57600
C 	C 	0.76760 0.41180 0.02990 0.09600
C 	C 	0.92470 0.38230 0.01690 -0.14400
H 	H 	0.98610 0.35430 0.03260 0.08100
C 	C 	0.96680 0.40340 0.97740 -0.00400
H 	H 	0.06350 0.39290 0.96080 0.01400
C 	C 	0.83190 0.44540 0.96620 0.08700
N 	N 	0.70940 0.45030 0.99910 -0.26100
C 	C 	0.82330 0.47340 0.92641 -0.15700
C 	C 	0.69320 0.51300 0.91610 0.11000
C 	C 	0.68450 0.54360 0.87510 -0.08300
H 	H 	0.76060 0.53930 0.85190 0.07000
C 	C 	0.54640 0.57950 0.87670 -0.09000
H 	H 	0.50770 0.60460 0.85480 0.07400
C 	C 	0.46900 0.57160 0.91910 0.12000
N 	N 	0.55910 0.53020 0.94298 -0.27700
C 	C 	0.68180 0.39920 0.06840 -0.12600
C 	C 	0.95250 0.45750 0.89250 0.18300
C 	C 	0.14150 0.46960 0.89770 -0.23400
H 	H 	0.19000 0.48910 0.92240 0.08800
C 	C 	0.25600 0.45230 0.86590 0.12600
H 	H 	0.38200 0.46010 0.86960 -0.00500
C 	C 	0.18650 0.42360 0.82880 -0.20300
C 	C 	0.99780 0.41320 0.82280 0.14600
H 	H 	0.94950 0.39460 0.79760 -0.01500
C 	C 	0.88070 0.43040 0.85440 -0.23100
H 	H 	0.75410 0.42370 0.85010 0.13100
C 	C 	0.31070 0.40030 0.79669 0.35400
O 	O 	0.48100 0.40910 0.80010 -0.37500
O 	O 	0.24320 0.36819 0.76623 -0.46700
C 	C 	0.76250 0.35670 0.09950 0.06700
C 	C 	0.66630 0.31030 0.10720 -0.11100
H 	H 	0.55040 0.30400 0.09240 0.06000
C 	C 	0.74580 0.27240 0.13790 -0.00800
H 	H 	0.68240 0.24060 0.14320 0.01200
C 	C 	0.91680 0.28180 0.16010 -0.03400
C 	C 	0.01430 0.32620 0.15130 -0.07500
H 	H 	0.13230 0.33170 0.16520 0.05900
C 	C 	0.93600 0.36400 0.12100 -0.03400
H 	H 	0.00260 0.39510 0.11520 0.03400
C 	C 	0.02100 0.24000 0.19500 0.32000
O 	O 	0.16600 0.25270 0.21340 -0.41700
O 	O 	0.90650 0.20240 0.20320 -0.44800
O 	O 	0.98700 0.15200 0.73080 -0.26000
C 	C 	0.85500 0.13630 0.75100 0.28100
N 	N 	0.78400 0.07980 0.75480 -0.16300
C 	C 	0.94500 0.04380 0.75470 0.16600
C 	C 	0.58600 0.06500 0.75580 0.02400
Fe	Fe	0.00000 0.15416 0.25000 1.21900
Fe	Fe	0.50000 0.65416 0.25000 1.23100
Fe	Fe	0.00000 0.84584 0.75000 1.21900
Fe	Fe	0.50000 0.34584 0.75000 1.23100
Ni	Ni	0.00000 -0.00000 0.50000 1.02400
Ni	Ni	0.50000 0.50000 0.50000 1.04700
Ni	Ni	-0.00000 0.00000 -0.00000 1.01500
Ni	Ni	0.50000 0.50000 -0.00000 1.03800
