data_crystal

_cell_length_a 7.35990
_cell_length_b 24.79210
_cell_length_c 29.74280
_cell_angle_alpha 90.00000
_cell_angle_beta  94.43800
_cell_angle_gamma 90.00000

_symmetry_space_group_name_	'P 1'
_symmetry_space_group_name_H-M	'P 1'

loop_
_symmetry_equiv_pos_as_xyz
  x,y,z

loop_
_atom_site_label
_atom_site_type_symbol
_atom_site_fract_x
_atom_site_fract_y
_atom_site_fract_z
_atom_site_charge
Cs	Cs	0.50432 0.76916 0.27118 0.59200
C 	C 	0.67120 0.05380 0.53435 0.11600
C 	C 	0.54010 0.09540 0.52325 -0.09600
H 	H 	0.44420 0.10540 0.54010 0.05000
N 	N 	0.79280 0.04926 0.50128 -0.28200
C 	C 	0.58170 0.11730 0.48400 -0.09100
H 	H 	0.52090 0.14540 0.46860 0.05800
C 	C 	0.73880 0.08865 0.47040 0.11200
C 	C 	0.82200 0.10099 0.43147 -0.18100
C 	C 	0.97230 0.07251 0.41853 0.17000
C 	C 	0.04940 0.08120 0.37586 -0.16300
H 	H 	0.01200 0.10640 0.35390 0.08300
N 	N 	0.05970 0.03103 0.44253 -0.30100
C 	C 	0.18680 0.04530 0.37435 -0.03900
H 	H 	0.26280 0.04110 0.35100 0.04400
C 	C 	0.19360 0.01468 0.41562 0.04000
C 	C 	0.67720 0.02514 0.57401 -0.20400
C 	C 	0.74350 0.14360 0.40093 0.16200
C 	C 	0.83740 0.19090 0.39320 -0.20100
H 	H 	0.95170 0.19710 0.40790 0.10100
C 	C 	0.75760 0.22930 0.36300 0.09000
H 	H 	0.81880 0.26130 0.35790 -0.02300
C 	C 	0.58780 0.21980 0.34050 -0.16400
C 	C 	0.49470 0.17380 0.34860 0.09600
H 	H 	0.37990 0.16790 0.33410 -0.00000
C 	C 	0.57120 0.13550 0.37860 -0.19600
H 	H 	0.50690 0.10410 0.38390 0.09900
C 	C 	0.47960 0.26010 0.30490 0.42700
O 	O 	0.34320 0.24550 0.28630 -0.45400
O 	O 	0.58810 0.29760 0.29721 -0.49400
C 	C 	0.54880 0.04010 0.60844 0.15900
C 	C 	0.61590 0.06780 0.64696 -0.21500
H 	H 	0.74020 0.07450 0.65190 0.12700
C 	C 	0.49780 0.08550 0.67801 0.10300
H 	H 	0.54290 0.10470 0.70340 -0.00800
C 	C 	0.31310 0.07483 0.67133 -0.17300
C 	C 	0.24510 0.04526 0.63391 0.08800
H 	H 	0.12170 0.03690 0.63000 -0.01100
C 	C 	0.36310 0.02826 0.60228 -0.20100
H 	H 	0.31800 0.00900 0.57700 0.06600
C 	C 	0.18760 0.09841 0.70273 0.33600
O 	O 	0.25200 0.13042 0.73408 -0.46000
O 	O 	0.01960 0.09047 0.69884 -0.39300
O 	O 	0.56900 0.64150 0.24190 -0.17700
N 	N 	0.78900 0.57240 0.24930 -0.11500
C 	C 	0.61500 0.53870 0.24640 0.05300
C 	C 	0.73700 0.62980 0.24750 0.13000
Cs	Cs	0.00432 0.26916 0.27118 0.58200
C 	C 	0.17120 0.55380 0.53435 0.12200
C 	C 	0.04010 0.59540 0.52325 -0.15400
H 	H 	0.94420 0.60540 0.54010 0.09000
N 	N 	0.29280 0.54926 0.50128 -0.28200
C 	C 	0.08170 0.61730 0.48400 -0.05900
H 	H 	0.02090 0.64540 0.46860 0.04200
C 	C 	0.23880 0.58865 0.47040 0.10000
C 	C 	0.32200 0.60099 0.43147 -0.17600
C 	C 	0.47230 0.57251 0.41853 0.11200
C 	C 	0.54940 0.58120 0.37586 -0.08700
H 	H 	0.51200 0.60640 0.35390 0.07100
N 	N 	0.55970 0.53103 0.44253 -0.27800
C 	C 	0.68680 0.54530 0.37435 -0.07800
H 	H 	0.76280 0.54110 0.35100 0.07200
C 	C 	0.69360 0.51468 0.41562 0.09900
C 	C 	0.17720 0.52514 0.57401 -0.17300
C 	C 	0.24350 0.64360 0.40093 0.20800
C 	C 	0.33740 0.69090 0.39320 -0.26400
H 	H 	0.45170 0.69710 0.40790 0.11600
C 	C 	0.25760 0.72930 0.36300 0.16700
H 	H 	0.31880 0.76130 0.35790 -0.05400
C 	C 	0.08780 0.71980 0.34050 -0.28000
C 	C 	0.99470 0.67380 0.34860 0.24500
H 	H 	0.87990 0.66790 0.33410 -0.04400
C 	C 	0.07120 0.63550 0.37860 -0.30200
H 	H 	0.00690 0.60410 0.38390 0.13100
C 	C 	0.97960 0.76010 0.30490 0.51100
O 	O 	0.84320 0.74550 0.28630 -0.46900
O 	O 	0.08810 0.79760 0.29721 -0.53300
C 	C 	0.04880 0.54010 0.60844 0.15100
C 	C 	0.11590 0.56780 0.64696 -0.27200
H 	H 	0.24020 0.57450 0.65190 0.14300
C 	C 	0.99780 0.58550 0.67801 0.20300
H 	H 	0.04290 0.60470 0.70340 -0.05700
C 	C 	0.81310 0.57483 0.67133 -0.19600
C 	C 	0.74510 0.54526 0.63391 0.10200
H 	H 	0.62170 0.53690 0.63000 0.00300
C 	C 	0.86310 0.52826 0.60228 -0.17600
H 	H 	0.81800 0.50900 0.57700 0.07300
C 	C 	0.68760 0.59841 0.70273 0.35100
O 	O 	0.75200 0.63042 0.73408 -0.45600
O 	O 	0.51960 0.59047 0.69884 -0.37500
O 	O 	0.06900 0.14150 0.24190 -0.20600
N 	N 	0.28900 0.07240 0.24930 -0.12400
C 	C 	0.11500 0.03870 0.24640 0.01400
C 	C 	0.23700 0.12980 0.24750 0.12400
Cs	Cs	0.49568 0.76916 0.22882 0.59100
C 	C 	0.32880 0.05380 0.96565 0.10000
C 	C 	0.45990 0.09540 0.97675 -0.05000
H 	H 	0.55580 0.10540 0.95990 0.04500
N 	N 	0.20720 0.04926 0.99872 -0.26900
C 	C 	0.41830 0.11730 0.01600 -0.12200
H 	H 	0.47910 0.14540 0.03140 0.06800
C 	C 	0.26120 0.08865 0.02960 0.07800
C 	C 	0.17800 0.10099 0.06853 -0.13200
C 	C 	0.02770 0.07251 0.08147 0.03200
C 	C 	0.95060 0.08120 0.12414 -0.02400
H 	H 	0.98800 0.10640 0.14610 0.06000
N 	N 	0.94030 0.03103 0.05747 -0.25400
C 	C 	0.81320 0.04530 0.12565 -0.09600
H 	H 	0.73720 0.04110 0.14900 0.07000
C 	C 	0.80640 0.01468 0.08438 0.07400
C 	C 	0.32280 0.02514 0.92599 -0.18600
C 	C 	0.25650 0.14360 0.09907 0.12400
C 	C 	0.16260 0.19090 0.10680 -0.18200
H 	H 	0.04830 0.19710 0.09210 0.07500
C 	C 	0.24240 0.22930 0.13700 0.07000
H 	H 	0.18120 0.26130 0.14210 -0.02600
C 	C 	0.41220 0.21980 0.15950 -0.15200
C 	C 	0.50530 0.17380 0.15140 0.07800
H 	H 	0.62010 0.16790 0.16590 0.01000
C 	C 	0.42880 0.13550 0.12140 -0.17200
H 	H 	0.49310 0.10410 0.11610 0.09100
C 	C 	0.52040 0.26010 0.19510 0.42300
O 	O 	0.65680 0.24550 0.21370 -0.44500
O 	O 	0.41190 0.29760 0.20279 -0.49700
C 	C 	0.45120 0.04010 0.89156 0.13900
C 	C 	0.38410 0.06780 0.85304 -0.19200
H 	H 	0.25980 0.07450 0.84810 0.10600
C 	C 	0.50220 0.08550 0.82199 0.08300
H 	H 	0.45710 0.10470 0.79660 -0.00100
C 	C 	0.68690 0.07483 0.82867 -0.15000
C 	C 	0.75490 0.04526 0.86609 0.07200
H 	H 	0.87830 0.03690 0.87000 0.01400
C 	C 	0.63690 0.02826 0.89772 -0.17700
H 	H 	0.68200 0.00900 0.92300 0.06600
C 	C 	0.81240 0.09841 0.79727 0.32700
O 	O 	0.74800 0.13042 0.76592 -0.44800
O 	O 	0.98040 0.09047 0.80116 -0.35200
O 	O 	0.43100 0.64150 0.25810 -0.17200
N 	N 	0.21100 0.57240 0.25070 -0.12300
C 	C 	0.38500 0.53870 0.25360 0.04800
C 	C 	0.26300 0.62980 0.25250 0.11200
Cs	Cs	0.99568 0.26916 0.22882 0.60200
C 	C 	0.82880 0.55380 0.96565 0.07100
C 	C 	0.95990 0.59540 0.97675 0.02600
H 	H 	0.05580 0.60540 0.95990 -0.00100
N 	N 	0.70720 0.54926 0.99872 -0.25800
C 	C 	0.91830 0.61730 0.01600 -0.16000
H 	H 	0.97910 0.64540 0.03140 0.08700
C 	C 	0.76120 0.58865 0.02960 0.09800
C 	C 	0.67800 0.60099 0.06853 -0.13100
C 	C 	0.52770 0.57251 0.08147 0.08800
C 	C 	0.45060 0.58120 0.12414 -0.07200
H 	H 	0.48800 0.60640 0.14610 0.06400
N 	N 	0.44030 0.53103 0.05747 -0.28200
C 	C 	0.31320 0.54530 0.12565 -0.09600
H 	H 	0.23720 0.54110 0.14900 0.07200
C 	C 	0.30640 0.51468 0.08438 0.11300
C 	C 	0.82280 0.52514 0.92599 -0.12700
C 	C 	0.75650 0.64360 0.09907 0.07700
C 	C 	0.66260 0.69090 0.10680 -0.11600
H 	H 	0.54830 0.69710 0.09210 0.05800
C 	C 	0.74240 0.72930 0.13700 -0.00900
H 	H 	0.68120 0.76130 0.14210 0.00600
C 	C 	0.91220 0.71980 0.15950 -0.03100
C 	C 	0.00530 0.67380 0.15140 -0.07500
H 	H 	0.12010 0.66790 0.16590 0.05600
C 	C 	0.92880 0.63550 0.12140 -0.06100
H 	H 	0.99310 0.60410 0.11610 0.06500
C 	C 	0.02040 0.76010 0.19510 0.33600
O 	O 	0.15680 0.74550 0.21370 -0.42800
O 	O 	0.91190 0.79760 0.20279 -0.45200
C 	C 	0.95120 0.54010 0.89156 0.12200
C 	C 	0.88410 0.56780 0.85304 -0.10400
H 	H 	0.75980 0.57450 0.84810 0.08600
C 	C 	0.00220 0.58550 0.82199 -0.03000
H 	H 	0.95710 0.60470 0.79660 0.05600
C 	C 	0.18690 0.57483 0.82867 -0.10500
C 	C 	0.25490 0.54526 0.86609 0.04600
H 	H 	0.37830 0.53690 0.87000 0.02100
C 	C 	0.13690 0.52826 0.89772 -0.17000
H 	H 	0.18200 0.50900 0.92300 0.06600
C 	C 	0.31240 0.59841 0.79727 0.31200
O 	O 	0.24800 0.63042 0.76592 -0.45400
O 	O 	0.48040 0.59047 0.80116 -0.36200
O 	O 	0.93100 0.14150 0.25810 -0.14300
N 	N 	0.71100 0.07240 0.25070 -0.12500
C 	C 	0.88500 0.03870 0.25360 0.06400
C 	C 	0.76300 0.12980 0.25250 0.11400
Cs	Cs	0.49568 0.23084 0.72882 0.59100
C 	C 	0.32880 0.94620 0.46565 0.08800
C 	C 	0.45990 0.90460 0.47675 -0.08000
H 	H 	0.55580 0.89460 0.45990 0.05100
N 	N 	0.20720 0.95074 0.49872 -0.26800
C 	C 	0.41830 0.88270 0.51600 -0.08500
H 	H 	0.47910 0.85460 0.53140 0.06000
C 	C 	0.26120 0.91135 0.52960 0.09400
C 	C 	0.17800 0.89901 0.56853 -0.12700
C 	C 	0.02770 0.92749 0.58147 0.03800
C 	C 	0.95060 0.91880 0.62414 -0.00200
H 	H 	0.98800 0.89360 0.64610 0.05300
N 	N 	0.94030 0.96897 0.55747 -0.25000
C 	C 	0.81320 0.95470 0.62565 -0.13100
H 	H 	0.73720 0.95890 0.64900 0.09700
C 	C 	0.80640 0.98532 0.58438 0.16900
C 	C 	0.32280 0.97486 0.42599 -0.10000
C 	C 	0.25650 0.85640 0.59907 0.12800
C 	C 	0.16260 0.80910 0.60680 -0.18300
H 	H 	0.04830 0.80290 0.59210 0.07800
C 	C 	0.24240 0.77070 0.63700 0.07300
H 	H 	0.18120 0.73870 0.64210 -0.02600
C 	C 	0.41220 0.78020 0.65950 -0.15300
C 	C 	0.50530 0.82620 0.65140 0.08100
H 	H 	0.62010 0.83210 0.66590 0.01000
C 	C 	0.42880 0.86450 0.62140 -0.17300
H 	H 	0.49310 0.89590 0.61610 0.09800
C 	C 	0.52040 0.73990 0.69510 0.42400
O 	O 	0.65680 0.75450 0.71370 -0.44500
O 	O 	0.41190 0.70240 0.70279 -0.49700
C 	C 	0.45120 0.95990 0.39156 0.11700
C 	C 	0.38410 0.93220 0.35304 -0.16300
H 	H 	0.25980 0.92550 0.34810 0.10300
C 	C 	0.50220 0.91450 0.32199 0.07000
H 	H 	0.45710 0.89530 0.29660 0.00600
C 	C 	0.68690 0.92517 0.32867 -0.13000
C 	C 	0.75490 0.95474 0.36609 0.06000
H 	H 	0.87830 0.96310 0.37000 0.03400
C 	C 	0.63690 0.97174 0.39772 -0.14800
H 	H 	0.68200 0.99100 0.42300 0.07300
C 	C 	0.81240 0.90159 0.29727 0.32500
O 	O 	0.74800 0.86958 0.26592 -0.44500
O 	O 	0.98040 0.90953 0.30116 -0.34100
O 	O 	0.43100 0.35850 0.75810 -0.17200
N 	N 	0.21100 0.42760 0.75070 -0.12300
C 	C 	0.38500 0.46130 0.75360 0.04800
C 	C 	0.26300 0.37020 0.75250 0.11200
Cs	Cs	0.99568 0.73084 0.72882 0.60200
C 	C 	0.82880 0.44620 0.46565 0.08000
C 	C 	0.95990 0.40460 0.47675 -0.01900
H 	H 	0.05580 0.39460 0.45990 0.00900
N 	N 	0.70720 0.45074 0.49872 -0.27500
C 	C 	0.91830 0.38270 0.51600 -0.11800
H 	H 	0.97910 0.35460 0.53140 0.07700
C 	C 	0.76120 0.41135 0.52960 0.10500
C 	C 	0.67800 0.39901 0.56853 -0.13200
C 	C 	0.52770 0.42749 0.58147 0.09100
C 	C 	0.45060 0.41880 0.62414 -0.07300
H 	H 	0.48800 0.39360 0.64610 0.06400
N 	N 	0.44030 0.46897 0.55747 -0.28000
C 	C 	0.31320 0.45470 0.62565 -0.09400
H 	H 	0.23720 0.45890 0.64900 0.07200
C 	C 	0.30640 0.48532 0.58438 0.11100
C 	C 	0.82280 0.47486 0.42599 -0.13400
C 	C 	0.75650 0.35640 0.59907 0.07700
C 	C 	0.66260 0.30910 0.60680 -0.11500
H 	H 	0.54830 0.30290 0.59210 0.06100
C 	C 	0.74240 0.27070 0.63700 -0.00900
H 	H 	0.68120 0.23870 0.64210 0.00700
C 	C 	0.91220 0.28020 0.65950 -0.02900
C 	C 	0.00530 0.32620 0.65140 -0.07600
H 	H 	0.12010 0.33210 0.66590 0.05700
C 	C 	0.92880 0.36450 0.62140 -0.05900
H 	H 	0.99310 0.39590 0.61610 0.06400
C 	C 	0.02040 0.23990 0.69510 0.33600
O 	O 	0.15680 0.25450 0.71370 -0.42800
O 	O 	0.91190 0.20240 0.70279 -0.45000
C 	C 	0.95120 0.45990 0.39156 0.12400
C 	C 	0.88410 0.43220 0.35304 -0.10400
H 	H 	0.75980 0.42550 0.34810 0.08600
C 	C 	0.00220 0.41450 0.32199 -0.03200
H 	H 	0.95710 0.39530 0.29660 0.05700
C 	C 	0.18690 0.42517 0.32867 -0.10500
C 	C 	0.25490 0.45474 0.36609 0.04500
H 	H 	0.37830 0.46310 0.37000 0.02100
C 	C 	0.13690 0.47174 0.39772 -0.17200
H 	H 	0.18200 0.49100 0.42300 0.06400
C 	C 	0.31240 0.40159 0.29727 0.31100
O 	O 	0.24800 0.36958 0.26592 -0.45400
O 	O 	0.48040 0.40953 0.30116 -0.36200
O 	O 	0.93100 0.85850 0.75810 -0.14400
N 	N 	0.71100 0.92760 0.75070 -0.12400
C 	C 	0.88500 0.96130 0.75360 0.08500
C 	C 	0.76300 0.87020 0.75250 0.11500
Cs	Cs	0.50432 0.23084 0.77118 0.59300
C 	C 	0.67120 0.94620 0.03435 0.10400
C 	C 	0.54010 0.90460 0.02325 -0.12400
H 	H 	0.44420 0.89460 0.04010 0.05600
N 	N 	0.79280 0.95074 0.00128 -0.27700
C 	C 	0.58170 0.88270 0.98400 -0.05400
H 	H 	0.52090 0.85460 0.96860 0.05100
C 	C 	0.73880 0.91135 0.97040 0.12600
C 	C 	0.82200 0.89901 0.93147 -0.17300
C 	C 	0.97230 0.92749 0.91853 0.17000
C 	C 	0.04940 0.91880 0.87586 -0.13500
H 	H 	0.01200 0.89360 0.85390 0.07600
N 	N 	0.05970 0.96897 0.94253 -0.29200
C 	C 	0.18680 0.95470 0.87435 -0.07600
H 	H 	0.26280 0.95890 0.85100 0.07300
C 	C 	0.19360 0.98532 0.91562 0.13700
C 	C 	0.67720 0.97486 0.07401 -0.11800
C 	C 	0.74350 0.85640 0.90093 0.16300
C 	C 	0.83740 0.80910 0.89320 -0.20100
H 	H 	0.95170 0.80290 0.90790 0.10300
C 	C 	0.75760 0.77070 0.86300 0.09200
H 	H 	0.81880 0.73870 0.85790 -0.02200
C 	C 	0.58780 0.78020 0.84050 -0.16400
C 	C 	0.49470 0.82620 0.84860 0.09800
H 	H 	0.37990 0.83210 0.83410 -0.00000
C 	C 	0.57120 0.86450 0.87860 -0.19600
H 	H 	0.50690 0.89590 0.88390 0.10600
C 	C 	0.47960 0.73990 0.80490 0.42800
O 	O 	0.34320 0.75450 0.78630 -0.45400
O 	O 	0.58810 0.70240 0.79721 -0.49400
C 	C 	0.54880 0.95990 0.10844 0.13700
C 	C 	0.61590 0.93220 0.14696 -0.18600
H 	H 	0.74020 0.92550 0.15190 0.12400
C 	C 	0.49780 0.91450 0.17801 0.09100
H 	H 	0.54290 0.89530 0.20340 -0.00000
C 	C 	0.31310 0.92517 0.17133 -0.15200
C 	C 	0.24510 0.95474 0.13391 0.07700
H 	H 	0.12170 0.96310 0.13000 0.01000
C 	C 	0.36310 0.97174 0.10228 -0.17100
H 	H 	0.31800 0.99100 0.07700 0.07500
C 	C 	0.18760 0.90159 0.20273 0.33500
O 	O 	0.25200 0.86958 0.23408 -0.45700
O 	O 	0.01960 0.90953 0.19884 -0.38100
O 	O 	0.56900 0.35850 0.74190 -0.17700
N 	N 	0.78900 0.42760 0.74930 -0.11500
C 	C 	0.61500 0.46130 0.74640 0.05300
C 	C 	0.73700 0.37020 0.74750 0.13000
Cs	Cs	0.00432 0.73084 0.77118 0.58200
C 	C 	0.17120 0.44620 0.03435 0.13300
C 	C 	0.04010 0.40460 0.02325 -0.20500
H 	H 	0.94420 0.39460 0.04010 0.10300
N 	N 	0.29280 0.45074 0.00128 -0.29700
C 	C 	0.08170 0.38270 0.98400 -0.01400
H 	H 	0.02090 0.35460 0.96860 0.03100
C 	C 	0.23880 0.41135 0.97040 0.10700
C 	C 	0.32200 0.39901 0.93147 -0.17500
C 	C 	0.47230 0.42749 0.91853 0.11500
C 	C 	0.54940 0.41880 0.87586 -0.08900
H 	H 	0.51200 0.39360 0.85390 0.07200
N 	N 	0.55970 0.46897 0.94253 -0.27300
C 	C 	0.68680 0.45470 0.87435 -0.07700
H 	H 	0.76280 0.45890 0.85100 0.07100
C 	C 	0.69360 0.48532 0.91562 0.09800
C 	C 	0.17720 0.47486 0.07401 -0.18100
C 	C 	0.24350 0.35640 0.90093 0.20900
C 	C 	0.33740 0.30910 0.89320 -0.26400
H 	H 	0.45170 0.30290 0.90790 0.11900
C 	C 	0.25760 0.27070 0.86300 0.16800
H 	H 	0.31880 0.23870 0.85790 -0.05300
C 	C 	0.08780 0.28020 0.84050 -0.28000
C 	C 	0.99470 0.32620 0.84860 0.24600
H 	H 	0.87990 0.33210 0.83410 -0.04400
C 	C 	0.07120 0.36450 0.87860 -0.30200
H 	H 	0.00690 0.39590 0.88390 0.13200
C 	C 	0.97960 0.23990 0.80490 0.51200
O 	O 	0.84320 0.25450 0.78630 -0.46900
O 	O 	0.08810 0.20240 0.79721 -0.53300
C 	C 	0.04880 0.45990 0.10844 0.15400
C 	C 	0.11590 0.43220 0.14696 -0.27500
H 	H 	0.24020 0.42550 0.15190 0.14400
C 	C 	0.99780 0.41450 0.17801 0.20600
H 	H 	0.04290 0.39530 0.20340 -0.05800
C 	C 	0.81310 0.42517 0.17133 -0.19800
C 	C 	0.74510 0.45474 0.13391 0.10300
H 	H 	0.62170 0.46310 0.13000 0.00200
C 	C 	0.86310 0.47174 0.10228 -0.17800
H 	H 	0.81800 0.49100 0.07700 0.07200
C 	C 	0.68760 0.40159 0.20273 0.35100
O 	O 	0.75200 0.36958 0.23408 -0.45600
O 	O 	0.51960 0.40953 0.19884 -0.37500
O 	O 	0.06900 0.85850 0.74190 -0.20500
N 	N 	0.28900 0.92760 0.74930 -0.12300
C 	C 	0.11500 0.96130 0.74640 0.03800
C 	C 	0.23700 0.87020 0.74750 0.12500
Ni	Ni	0.00000 -0.00000 0.50000 1.02000
Ni	Ni	0.50000 0.50000 0.50000 1.04600
Ni	Ni	-0.00000 0.00000 -0.00000 1.01100
Ni	Ni	0.50000 0.50000 -0.00000 1.03700
Fe	Fe	0.00000 0.84657 0.25000 1.21400
C 	C 	0.00000 0.56420 0.25000 0.04500
Fe	Fe	0.50000 0.34657 0.25000 1.23000
C 	C 	0.50000 0.06420 0.25000 0.05700
Fe	Fe	0.00000 0.15343 0.75000 1.21400
C 	C 	0.00000 0.43580 0.75000 0.04500
Fe	Fe	0.50000 0.65343 0.75000 1.23000
C 	C 	0.50000 0.93580 0.75000 0.07600
