data_crystal

_cell_length_a 8.38620
_cell_length_b 15.03630
_cell_length_c 15.03630
_cell_angle_alpha 90.00000
_cell_angle_beta  90.00000
_cell_angle_gamma 90.00000

_symmetry_space_group_name_	'P 1'
_symmetry_space_group_name_H-M	'P 1'

loop_
_symmetry_equiv_pos_as_xyz
  x,y,z

loop_
_atom_site_label
_atom_site_type_symbol
_atom_site_fract_x
_atom_site_fract_y
_atom_site_fract_z
_atom_site_charge
Ni	Ni	-0.00000 0.25580 0.25580 1.08400
Ni	Ni	0.50000 0.74420 0.74420 1.09500
Ni	Ni	0.25000 0.24420 0.75580 1.09400
Ni	Ni	0.75000 0.75580 0.24420 1.09400
H 	H 	0.17540 0.27420 0.07710 -0.00400
H 	H 	0.06850 0.27380 0.93150 0.14000
H 	H 	0.75700 0.25800 0.86100 0.10000
H 	H 	0.43700 0.22100 0.05100 0.04600
H 	H 	0.63400 0.23100 0.16300 0.07400
H 	H 	0.67540 0.72580 0.92290 -0.01100
H 	H 	0.56850 0.72620 0.06850 0.14400
H 	H 	0.25700 0.74200 0.13900 0.08800
H 	H 	0.93700 0.77900 0.94900 0.07300
H 	H 	0.13400 0.76900 0.83700 0.06400
H 	H 	0.42540 0.42290 0.77420 -0.01200
H 	H 	0.31850 0.56850 0.77380 0.13900
H 	H 	0.00700 0.63900 0.75800 0.03200
H 	H 	0.68700 0.44900 0.72100 0.03900
H 	H 	0.88400 0.33700 0.73100 0.07900
H 	H 	0.92540 0.57710 0.22580 -0.00500
H 	H 	0.81850 0.43150 0.22620 0.15000
H 	H 	0.50700 0.36100 0.24200 0.09100
H 	H 	0.18700 0.55100 0.27900 0.04000
H 	H 	0.38400 0.66300 0.26900 0.07500
H 	H 	0.07460 0.22580 0.57710 -0.02000
H 	H 	0.18150 0.22620 0.43150 0.13700
H 	H 	0.49300 0.24200 0.36100 0.09300
H 	H 	0.81300 0.27900 0.55100 0.05200
H 	H 	0.61600 0.26900 0.66300 0.07500
H 	H 	0.57460 0.77420 0.42290 -0.01400
H 	H 	0.68150 0.77380 0.56850 0.14700
H 	H 	0.99300 0.75800 0.63900 0.15300
H 	H 	0.31300 0.72100 0.44900 0.05300
H 	H 	0.11600 0.73100 0.33700 0.07200
H 	H 	0.82460 0.07710 0.27420 -0.02100
H 	H 	0.93150 0.93150 0.27380 0.14600
H 	H 	0.24300 0.86100 0.25800 0.08400
H 	H 	0.56300 0.05100 0.22100 0.04600
H 	H 	0.36600 0.16300 0.23100 0.07600
H 	H 	0.32460 0.92290 0.72580 -0.01400
H 	H 	0.43150 0.06850 0.72620 0.14300
H 	H 	0.74300 0.13900 0.74200 0.09600
H 	H 	0.06300 0.94900 0.77900 0.01800
H 	H 	0.86600 0.83700 0.76900 0.08600
C 	C 	0.44810 0.24100 0.87770 0.29100
C 	C 	0.57900 0.24220 0.94480 -0.03400
C 	C 	0.54250 0.23300 0.03600 -0.00200
C 	C 	0.65780 0.23730 0.10110 -0.09900
C 	C 	0.81570 0.25130 0.07420 0.05500
C 	C 	0.84980 0.25680 0.98350 0.10800
C 	C 	0.73390 0.25300 0.91820 -0.11200
C 	C 	0.06790 0.26860 0.06290 0.10000
C 	C 	0.94810 0.75900 0.12230 0.31200
C 	C 	0.07900 0.75780 0.05520 -0.05200
C 	C 	0.04250 0.76700 0.96400 -0.04000
C 	C 	0.15780 0.76270 0.89890 -0.08500
C 	C 	0.31570 0.74870 0.92580 0.05000
C 	C 	0.34980 0.74320 0.01650 0.08900
C 	C 	0.23390 0.74700 0.08180 -0.10000
C 	C 	0.56790 0.73140 0.93710 0.13200
C 	C 	0.69810 0.62230 0.74100 0.31100
C 	C 	0.82900 0.55520 0.74220 -0.08300
C 	C 	0.79250 0.46400 0.73300 0.02500
C 	C 	0.90780 0.39890 0.73730 -0.09600
C 	C 	0.06570 0.42580 0.75130 0.05500
C 	C 	0.09980 0.51650 0.75680 0.03100
C 	C 	0.98390 0.58180 0.75300 0.01500
C 	C 	0.31790 0.43710 0.76860 0.13200
C 	C 	0.19810 0.37770 0.25900 0.29500
C 	C 	0.32900 0.44480 0.25780 -0.04500
C 	C 	0.29250 0.53600 0.26700 0.00600
C 	C 	0.40780 0.60110 0.26270 -0.10800
C 	C 	0.56570 0.57420 0.24870 0.05900
C 	C 	0.59980 0.48350 0.24320 0.08700
C 	C 	0.48390 0.41820 0.24700 -0.09800
C 	C 	0.81790 0.56290 0.23140 0.13600
C 	C 	0.80190 0.25900 0.37770 0.29000
C 	C 	0.67100 0.25780 0.44480 -0.03600
C 	C 	0.70750 0.26700 0.53600 -0.00000
C 	C 	0.59220 0.26270 0.60110 -0.10100
C 	C 	0.43430 0.24870 0.57420 0.05600
C 	C 	0.40020 0.24320 0.48350 0.08700
C 	C 	0.51610 0.24700 0.41820 -0.10300
C 	C 	0.18210 0.23140 0.56290 0.13100
C 	C 	0.30190 0.74100 0.62230 0.27400
C 	C 	0.17100 0.74220 0.55520 0.00300
C 	C 	0.20750 0.73300 0.46400 -0.01900
C 	C 	0.09220 0.73730 0.39890 -0.11400
C 	C 	0.93430 0.75130 0.42580 0.06200
C 	C 	0.90020 0.75680 0.51650 0.14300
C 	C 	0.01610 0.75300 0.58180 -0.21700
C 	C 	0.68210 0.76860 0.43710 0.13500
C 	C 	0.55190 0.87770 0.24100 0.29400
C 	C 	0.42100 0.94480 0.24220 -0.04600
C 	C 	0.45750 0.03600 0.23300 0.00500
C 	C 	0.34220 0.10110 0.23730 -0.10900
C 	C 	0.18430 0.07420 0.25130 0.06100
C 	C 	0.15020 0.98350 0.25680 0.06400
C 	C 	0.26610 0.91820 0.25300 -0.08900
C 	C 	0.93210 0.06290 0.26860 0.16400
C 	C 	0.05190 0.12230 0.75900 0.27500
C 	C 	0.92100 0.05520 0.75780 -0.03000
C 	C 	0.95750 0.96400 0.76700 0.04500
C 	C 	0.84220 0.89890 0.76270 -0.12400
C 	C 	0.68430 0.92580 0.74870 0.06400
C 	C 	0.65020 0.01650 0.74320 0.08600
C 	C 	0.76610 0.08180 0.74700 -0.10200
C 	C 	0.43210 0.93710 0.73140 0.13200
N 	N 	0.95540 0.26020 0.12252 -0.22500
N 	N 	0.01260 0.26810 0.97910 -0.22500
N 	N 	0.45540 0.73980 0.87748 -0.24600
N 	N 	0.51260 0.73190 0.02090 -0.21800
N 	N 	0.20540 0.37748 0.76020 -0.24800
N 	N 	0.26260 0.52090 0.76810 -0.20700
N 	N 	0.70540 0.62252 0.23980 -0.24700
N 	N 	0.76260 0.47910 0.23190 -0.21800
N 	N 	0.29460 0.23980 0.62252 -0.24800
N 	N 	0.23740 0.23190 0.47910 -0.21900
N 	N 	0.79460 0.76020 0.37748 -0.24600
N 	N 	0.73740 0.76810 0.52090 -0.23000
N 	N 	0.04460 0.12252 0.26020 -0.26600
N 	N 	0.98740 0.97910 0.26810 -0.21000
N 	N 	0.54460 0.87748 0.73980 -0.24800
N 	N 	0.48740 0.02090 0.73190 -0.21800
O 	O 	0.30480 0.23930 0.90034 -0.36000
O 	O 	0.48470 0.24495 0.79588 -0.39200
O 	O 	0.80480 0.76070 0.09966 -0.36100
O 	O 	0.98470 0.75505 0.20412 -0.38600
O 	O 	0.55480 0.59966 0.73930 -0.36400
O 	O 	0.73470 0.70412 0.74495 -0.39600
O 	O 	0.05480 0.40034 0.26070 -0.37300
O 	O 	0.23470 0.29588 0.25505 -0.39700
O 	O 	0.94520 0.26070 0.40034 -0.34300
O 	O 	0.76530 0.25505 0.29588 -0.38600
O 	O 	0.44520 0.73930 0.59966 -0.35500
O 	O 	0.26530 0.74495 0.70412 -0.39100
O 	O 	0.69520 0.90034 0.23930 -0.35800
O 	O 	0.51530 0.79588 0.24495 -0.39400
O 	O 	0.19520 0.09966 0.76070 -0.35800
O 	O 	0.01530 0.20412 0.75505 -0.40000
