data_crystal

_cell_length_a 16.15440
_cell_length_b 16.15440
_cell_length_c 21.82000
_cell_angle_alpha 84.60060
_cell_angle_beta  84.60060
_cell_angle_gamma 60.48220

_symmetry_space_group_name_	'P 1'
_symmetry_space_group_name_H-M	'P 1'

loop_
_symmetry_equiv_pos_as_xyz
  x,y,z

loop_
_atom_site_label
_atom_site_type_symbol
_atom_site_fract_x
_atom_site_fract_y
_atom_site_fract_z
_atom_site_charge
Cu	Cu	0.49445 0.98977 0.81322 0.88500
Cu	Cu	0.46042 0.44122 0.50512 0.88400
Cu	Cu	0.51023 0.00555 0.68678 0.88400
Cu	Cu	0.05878 0.03958 0.99488 0.87800
Cu	Cu	0.50555 0.01023 0.18678 0.88500
Cu	Cu	0.53958 0.55878 0.49488 0.88400
Cu	Cu	0.48977 0.99445 0.31322 0.88400
Cu	Cu	0.94122 0.96042 0.00512 0.87800
H 	H 	0.73410 0.14810 0.86650 0.05700
H 	H 	0.65950 0.21410 0.63280 0.03600
H 	H 	0.80480 0.39660 0.78880 0.07800
H 	H 	0.19520 0.03640 0.82150 0.02900
H 	H 	0.03870 0.06310 0.81400 0.10200
H 	H 	0.54990 0.70830 0.65460 0.02400
H 	H 	0.59570 0.68670 0.83940 0.02600
H 	H 	0.21910 0.08490 0.63380 0.02300
H 	H 	0.91640 0.26320 0.85050 0.04000
H 	H 	0.79670 0.09350 0.68690 0.09700
H 	H 	0.06160 0.11780 0.62520 0.08900
H 	H 	0.60270 0.54130 0.65860 0.11700
H 	H 	0.78830 0.38310 0.60540 0.02800
H 	H 	0.91740 0.26920 0.66640 0.09300
H 	H 	0.65160 0.52020 0.84190 0.09100
H 	H 	0.35190 0.76590 0.63350 0.05700
H 	H 	0.28590 0.84050 0.86720 0.03700
H 	H 	0.10340 0.69520 0.71120 0.07800
H 	H 	0.46360 0.30480 0.67850 0.03000
H 	H 	0.43690 0.46130 0.68600 0.10600
H 	H 	0.79170 0.95010 0.84540 0.02400
H 	H 	0.81330 0.90430 0.66060 0.02600
H 	H 	0.41510 0.28090 0.86620 0.02200
H 	H 	0.23680 0.58360 0.64950 0.03900
H 	H 	0.40650 0.70330 0.81310 0.09600
H 	H 	0.38220 0.43840 0.87480 0.09200
H 	H 	0.95870 0.89730 0.84140 0.11400
H 	H 	0.11690 0.71170 0.89460 0.02800
H 	H 	0.23080 0.58260 0.83360 0.09100
H 	H 	0.97980 0.84840 0.65810 0.08900
H 	H 	0.26590 0.85190 0.13350 0.05700
H 	H 	0.34050 0.78590 0.36720 0.03600
H 	H 	0.19520 0.60340 0.21120 0.07800
H 	H 	0.80480 0.96360 0.17850 0.02900
H 	H 	0.96130 0.93690 0.18600 0.10200
H 	H 	0.45010 0.29170 0.34540 0.02400
H 	H 	0.40430 0.31330 0.16060 0.02600
H 	H 	0.78090 0.91510 0.36620 0.02300
H 	H 	0.08360 0.73680 0.14950 0.04000
H 	H 	0.20330 0.90650 0.31310 0.09700
H 	H 	0.93840 0.88220 0.37480 0.08900
H 	H 	0.39730 0.45870 0.34140 0.11700
H 	H 	0.21170 0.61690 0.39460 0.02800
H 	H 	0.08260 0.73080 0.33360 0.09300
H 	H 	0.34840 0.47980 0.15810 0.09100
H 	H 	0.64810 0.23410 0.36650 0.05700
H 	H 	0.71410 0.15950 0.13280 0.03700
H 	H 	0.89660 0.30480 0.28880 0.07800
H 	H 	0.53640 0.69520 0.32150 0.03000
H 	H 	0.56310 0.53870 0.31400 0.10600
H 	H 	0.20830 0.04990 0.15460 0.02400
H 	H 	0.18670 0.09570 0.33940 0.02600
H 	H 	0.58490 0.71910 0.13380 0.02200
H 	H 	0.76320 0.41640 0.35050 0.03900
H 	H 	0.59350 0.29670 0.18690 0.09600
H 	H 	0.61780 0.56160 0.12520 0.09200
H 	H 	0.04130 0.10270 0.15860 0.11400
H 	H 	0.88310 0.28830 0.10540 0.02800
H 	H 	0.76920 0.41740 0.16640 0.09100
H 	H 	0.02020 0.15160 0.34190 0.08900
C 	C 	0.57560 0.71380 0.74720 -0.10400
C 	C 	0.54900 0.81880 0.74650 0.30400
C 	C 	0.22290 0.05970 0.72750 -0.10300
C 	C 	0.74700 0.19880 0.85110 -0.01700
C 	C 	0.62860 0.38260 0.57370 0.30000
C 	C 	0.68240 0.27660 0.81120 -0.02200
C 	C 	0.71230 0.22410 0.63760 0.04000
C 	C 	0.62320 0.51820 0.74860 0.21300
C 	C 	0.83080 0.19580 0.86840 -0.05500
C 	C 	0.79220 0.34560 0.80420 -0.12600
C 	C 	0.70640 0.34900 0.78960 0.14300
C 	C 	0.70980 0.31180 0.61260 -0.08600
C 	C 	0.16770 0.05270 0.78190 0.05100
C 	C 	0.07470 0.06870 0.77800 -0.14400
C 	C 	0.57150 0.66990 0.69240 0.06400
C 	C 	0.03440 0.09400 0.71720 0.18100
C 	C 	0.59930 0.65730 0.80230 0.05600
C 	C 	0.32760 0.04060 0.73110 0.33100
C 	C 	0.18260 0.08160 0.67020 0.05900
C 	C 	0.85670 0.26910 0.84210 0.01700
C 	C 	0.79380 0.15280 0.67090 -0.13700
C 	C 	0.87380 0.16920 0.67900 0.19900
C 	C 	0.89820 0.11720 0.91490 0.29500
C 	C 	0.08890 0.10010 0.66490 -0.16600
C 	C 	0.60020 0.57120 0.69520 -0.18500
C 	C 	0.78880 0.32560 0.62280 0.05300
C 	C 	0.86810 0.25610 0.65770 -0.16800
C 	C 	0.62840 0.55980 0.80470 -0.16200
C 	C 	0.78620 0.92440 0.75280 -0.10300
C 	C 	0.68120 0.95100 0.75350 0.30300
C 	C 	0.44030 0.27710 0.77250 -0.10400
C 	C 	0.30120 0.75300 0.64890 -0.01700
C 	C 	0.11740 0.87140 0.92630 0.30000
C 	C 	0.22340 0.81760 0.68880 -0.02000
C 	C 	0.27590 0.78770 0.86240 0.03900
C 	C 	0.98180 0.87680 0.75140 0.20700
C 	C 	0.30420 0.66920 0.63160 -0.05600
C 	C 	0.15440 0.70780 0.69580 -0.12500
C 	C 	0.15100 0.79360 0.71040 0.14300
C 	C 	0.18820 0.79020 0.88740 -0.08600
C 	C 	0.44730 0.33230 0.71810 0.05400
C 	C 	0.43130 0.42530 0.72200 -0.14700
C 	C 	0.83010 0.92850 0.80760 0.06200
C 	C 	0.40600 0.46560 0.78280 0.18900
C 	C 	0.84270 0.90070 0.69770 0.05300
C 	C 	0.45940 0.17240 0.76890 0.33200
C 	C 	0.41840 0.31740 0.82980 0.06200
C 	C 	0.23090 0.64330 0.65790 0.01600
C 	C 	0.34720 0.70620 0.82910 -0.13800
C 	C 	0.33080 0.62620 0.82100 0.19800
C 	C 	0.38280 0.60180 0.58510 0.29500
C 	C 	0.39990 0.41110 0.83510 -0.16900
C 	C 	0.92880 0.89980 0.80480 -0.18200
C 	C 	0.17440 0.71120 0.87720 0.05200
C 	C 	0.24390 0.63190 0.84230 -0.16800
C 	C 	0.94020 0.87160 0.69530 -0.16000
C 	C 	0.42440 0.28620 0.25280 -0.10400
C 	C 	0.45100 0.18120 0.25350 0.30400
C 	C 	0.77710 0.94030 0.27250 -0.10300
C 	C 	0.25300 0.80120 0.14890 -0.01700
C 	C 	0.37140 0.61740 0.42630 0.30000
C 	C 	0.31760 0.72340 0.18880 -0.02200
C 	C 	0.28770 0.77590 0.36240 0.04000
C 	C 	0.37680 0.48180 0.25140 0.21300
C 	C 	0.16920 0.80420 0.13160 -0.05500
C 	C 	0.20780 0.65440 0.19580 -0.12600
C 	C 	0.29360 0.65100 0.21040 0.14300
C 	C 	0.29020 0.68820 0.38740 -0.08600
C 	C 	0.83230 0.94730 0.21810 0.05100
C 	C 	0.92530 0.93130 0.22200 -0.14400
C 	C 	0.42850 0.33010 0.30760 0.06400
C 	C 	0.96560 0.90600 0.28280 0.18100
C 	C 	0.40070 0.34270 0.19770 0.05600
C 	C 	0.67240 0.95940 0.26890 0.33100
C 	C 	0.81740 0.91840 0.32980 0.05900
C 	C 	0.14330 0.73090 0.15790 0.01700
C 	C 	0.20620 0.84720 0.32910 -0.13700
C 	C 	0.12620 0.83080 0.32100 0.19900
C 	C 	0.10180 0.88280 0.08510 0.29500
C 	C 	0.91110 0.89990 0.33510 -0.16600
C 	C 	0.39980 0.42880 0.30480 -0.18500
C 	C 	0.21120 0.67440 0.37720 0.05300
C 	C 	0.13190 0.74390 0.34230 -0.16800
C 	C 	0.37160 0.44020 0.19530 -0.16200
C 	C 	0.21380 0.07560 0.24720 -0.10300
C 	C 	0.31880 0.04900 0.24650 0.30300
C 	C 	0.55970 0.72290 0.22750 -0.10400
C 	C 	0.69880 0.24700 0.35110 -0.01700
C 	C 	0.88260 0.12860 0.07370 0.30000
C 	C 	0.77660 0.18240 0.31120 -0.02000
C 	C 	0.72410 0.21230 0.13760 0.03900
C 	C 	0.01820 0.12320 0.24860 0.20700
C 	C 	0.69580 0.33080 0.36840 -0.05600
C 	C 	0.84560 0.29220 0.30420 -0.12500
C 	C 	0.84900 0.20640 0.28960 0.14300
C 	C 	0.81180 0.20980 0.11260 -0.08600
C 	C 	0.55270 0.66770 0.28190 0.05400
C 	C 	0.56870 0.57470 0.27800 -0.14700
C 	C 	0.16990 0.07150 0.19240 0.06200
C 	C 	0.59400 0.53440 0.21720 0.18900
C 	C 	0.15730 0.09930 0.30230 0.05300
C 	C 	0.54060 0.82760 0.23110 0.33200
C 	C 	0.58160 0.68260 0.17020 0.06200
C 	C 	0.76910 0.35670 0.34210 0.01600
C 	C 	0.65280 0.29380 0.17090 -0.13800
C 	C 	0.66920 0.37380 0.17900 0.19800
C 	C 	0.61720 0.39820 0.41490 0.29500
C 	C 	0.60010 0.58890 0.16490 -0.16900
C 	C 	0.07120 0.10020 0.19520 -0.18200
C 	C 	0.82560 0.28880 0.12280 0.05200
C 	C 	0.75610 0.36810 0.15770 -0.16800
C 	C 	0.05980 0.12840 0.30470 -0.16000
O 	O 	0.56300 0.36100 0.56480 -0.37800
O 	O 	0.63020 0.46140 0.55560 -0.38200
O 	O 	0.54080 0.85200 0.80010 -0.38400
O 	O 	0.53390 0.86690 0.69310 -0.36700
O 	O 	0.64130 0.42330 0.74940 -0.23500
O 	O 	0.87210 0.05410 0.93530 -0.37400
O 	O 	0.97180 0.12140 0.92710 -0.38400
O 	O 	0.36120 0.01660 0.78850 -0.37100
O 	O 	0.37250 0.04890 0.68550 -0.41000
O 	O 	0.94200 0.09900 0.71550 -0.24000
O 	O 	0.13900 0.93700 0.93520 -0.37500
O 	O 	0.03860 0.86980 0.94440 -0.38000
O 	O 	0.64800 0.95920 0.69990 -0.38500
O 	O 	0.63310 0.96610 0.80690 -0.36700
O 	O 	0.07670 0.85870 0.75060 -0.23000
O 	O 	0.44590 0.62790 0.56470 -0.37600
O 	O 	0.37860 0.52820 0.57290 -0.38700
O 	O 	0.48340 0.13880 0.71150 -0.37000
O 	O 	0.45110 0.12750 0.81450 -0.41000
O 	O 	0.40100 0.55800 0.78450 -0.24600
O 	O 	0.43700 0.63900 0.43520 -0.37800
O 	O 	0.36980 0.53860 0.44440 -0.38200
O 	O 	0.45920 0.14800 0.19990 -0.38400
O 	O 	0.46610 0.13310 0.30690 -0.36700
O 	O 	0.35870 0.57670 0.25060 -0.23500
O 	O 	0.12790 0.94590 0.06470 -0.37400
O 	O 	0.02820 0.87860 0.07290 -0.38400
O 	O 	0.63880 0.98340 0.21150 -0.37100
O 	O 	0.62750 0.95110 0.31450 -0.41000
O 	O 	0.05800 0.90100 0.28450 -0.24000
O 	O 	0.86100 0.06300 0.06480 -0.37500
O 	O 	0.96140 0.13020 0.05560 -0.38000
O 	O 	0.35200 0.04080 0.30010 -0.38500
O 	O 	0.36690 0.03390 0.19310 -0.36700
O 	O 	0.92330 0.14130 0.24940 -0.23000
O 	O 	0.55410 0.37210 0.43530 -0.37600
O 	O 	0.62140 0.47180 0.42710 -0.38700
O 	O 	0.51660 0.86120 0.28850 -0.37000
O 	O 	0.54890 0.87250 0.18550 -0.41000
O 	O 	0.59900 0.44200 0.21550 -0.24600
