data_crystal

_cell_length_a 15.38620
_cell_length_b 15.38620
_cell_length_c 20.80800
_cell_angle_alpha 85.35160
_cell_angle_beta  85.35160
_cell_angle_gamma 62.86250

_symmetry_space_group_name_	'P 1'
_symmetry_space_group_name_H-M	'P 1'

loop_
_symmetry_equiv_pos_as_xyz
  x,y,z

loop_
_atom_site_label
_atom_site_type_symbol
_atom_site_fract_x
_atom_site_fract_y
_atom_site_fract_z
_atom_site_charge
Cu	Cu	0.98967 0.99215 0.31369 0.89600
Cu	Cu	0.04121 0.55865 0.49695 0.90300
Cu	Cu	0.00785 0.01033 0.18631 0.89600
Cu	Cu	0.44135 0.95879 0.00305 0.90200
Cu	Cu	0.01033 0.00785 0.68631 0.89600
Cu	Cu	0.95879 0.44135 0.50305 0.90300
Cu	Cu	0.99215 0.98967 0.81369 0.89500
Cu	Cu	0.55865 0.04121 0.99695 0.90100
H 	H 	0.30730 0.97090 0.17890 0.00500
H 	H 	0.46550 0.94870 0.19070 0.15400
H 	H 	0.27720 0.92060 0.36900 -0.00700
H 	H 	0.43530 0.89750 0.38250 0.13500
H 	H 	0.57350 0.74490 0.34530 0.13800
H 	H 	0.84440 0.79580 0.36790 -0.00900
H 	H 	0.27620 0.13360 0.29540 0.15500
H 	H 	0.54290 0.10530 0.14960 0.16300
H 	H 	0.14750 0.23890 0.36070 -0.01300
H 	H 	0.68140 0.11380 0.33670 -0.01800
H 	H 	0.70810 0.05850 0.14900 -0.01700
H 	H 	0.71180 0.91360 0.31520 0.14900
H 	H 	0.39060 0.32220 0.28120 0.14600
H 	H 	0.70760 0.62740 0.39780 -0.01300
H 	H 	0.26570 0.42450 0.34810 -0.01800
H 	H 	0.51660 0.15960 0.33810 0.14800
H 	H 	0.02910 0.69270 0.32110 0.00500
H 	H 	0.05130 0.53450 0.30930 0.15400
H 	H 	0.07940 0.72280 0.13100 -0.00700
H 	H 	0.10250 0.56470 0.11750 0.13500
H 	H 	0.25510 0.42650 0.15470 0.13800
H 	H 	0.20420 0.15560 0.13210 -0.00900
H 	H 	0.86640 0.72380 0.20460 0.15500
H 	H 	0.89470 0.45710 0.35040 0.16300
H 	H 	0.76110 0.85250 0.13930 -0.01300
H 	H 	0.88620 0.31860 0.16330 -0.01800
H 	H 	0.94150 0.29190 0.35100 -0.01700
H 	H 	0.08640 0.28820 0.18480 0.14900
H 	H 	0.67780 0.60940 0.21880 0.14600
H 	H 	0.37260 0.29240 0.10220 -0.01300
H 	H 	0.57550 0.73430 0.15190 -0.01800
H 	H 	0.84040 0.48340 0.16190 0.14800
H 	H 	0.69270 0.02910 0.82110 0.00500
H 	H 	0.53450 0.05130 0.80930 0.15400
H 	H 	0.72280 0.07940 0.63100 -0.00700
H 	H 	0.56470 0.10250 0.61750 0.13500
H 	H 	0.42650 0.25510 0.65470 0.13800
H 	H 	0.15560 0.20420 0.63210 -0.00900
H 	H 	0.72380 0.86640 0.70460 0.15500
H 	H 	0.45710 0.89470 0.85040 0.16300
H 	H 	0.85250 0.76110 0.63930 -0.01300
H 	H 	0.31860 0.88620 0.66330 -0.01800
H 	H 	0.29190 0.94150 0.85100 -0.01700
H 	H 	0.28820 0.08640 0.68480 0.14900
H 	H 	0.60940 0.67780 0.71880 0.14600
H 	H 	0.29240 0.37260 0.60220 -0.01300
H 	H 	0.73430 0.57550 0.65190 -0.01800
H 	H 	0.48340 0.84040 0.66190 0.14800
H 	H 	0.97090 0.30730 0.67890 0.00500
H 	H 	0.94870 0.46550 0.69070 0.15400
H 	H 	0.92060 0.27720 0.86900 -0.00700
H 	H 	0.89750 0.43530 0.88250 0.13500
H 	H 	0.74490 0.57350 0.84530 0.13800
H 	H 	0.79580 0.84440 0.86790 -0.00900
H 	H 	0.13360 0.27620 0.79540 0.15500
H 	H 	0.10530 0.54290 0.64960 0.16300
H 	H 	0.23890 0.14750 0.86070 -0.01300
H 	H 	0.11380 0.68140 0.83670 -0.01800
H 	H 	0.05850 0.70810 0.64900 -0.01700
H 	H 	0.91360 0.71180 0.81520 0.14900
H 	H 	0.32220 0.39060 0.78120 0.14600
H 	H 	0.62740 0.70760 0.89780 -0.01300
H 	H 	0.42450 0.26570 0.84810 -0.01800
H 	H 	0.15960 0.51660 0.83810 0.14800
C 	C 	0.17440 0.96220 0.26520 0.38700
C 	C 	0.27630 0.94670 0.27350 -0.19400
C 	C 	0.33310 0.95590 0.21960 0.14900
C 	C 	0.42790 0.94250 0.22650 -0.26700
C 	C 	0.31510 0.92570 0.33320 0.15600
C 	C 	0.40980 0.91180 0.34170 -0.28400
C 	C 	0.46530 0.92010 0.28710 0.30200
C 	C 	0.62940 0.84100 0.32590 0.30700
C 	C 	0.62760 0.75540 0.35010 -0.29500
C 	C 	0.81910 0.04930 0.24340 0.39400
C 	C 	0.79010 0.78570 0.36380 0.16600
C 	C 	0.87340 0.62520 0.42580 0.38800
C 	C 	0.11700 0.40520 0.41030 0.38800
C 	C 	0.71200 0.08100 0.24280 -0.21800
C 	C 	0.27380 0.19220 0.30620 -0.29800
C 	C 	0.57130 0.10610 0.18720 -0.30300
C 	C 	0.34640 0.21740 0.28320 0.32700
C 	C 	0.19720 0.25500 0.34570 0.17900
C 	C 	0.19450 0.34130 0.36280 -0.20800
C 	C 	0.78940 0.69940 0.38960 -0.19700
C 	C 	0.65330 0.11170 0.29930 0.18600
C 	C 	0.66970 0.07870 0.18690 0.18900
C 	C 	0.71080 0.85620 0.33220 -0.28000
C 	C 	0.34250 0.30470 0.29810 -0.31800
C 	C 	0.70810 0.68530 0.38160 0.17400
C 	C 	0.26770 0.36590 0.33780 0.18600
C 	C 	0.51430 0.13510 0.24440 0.33000
C 	C 	0.55520 0.13880 0.30030 -0.31500
C 	C 	0.03780 0.82560 0.23480 0.38700
C 	C 	0.05330 0.72370 0.22650 -0.19400
C 	C 	0.04410 0.66690 0.28040 0.14900
C 	C 	0.05750 0.57210 0.27350 -0.26700
C 	C 	0.07430 0.68490 0.16680 0.15600
C 	C 	0.08820 0.59020 0.15830 -0.28400
C 	C 	0.07990 0.53470 0.21290 0.30200
C 	C 	0.15900 0.37060 0.17410 0.30700
C 	C 	0.24460 0.37240 0.14990 -0.29500
C 	C 	0.95070 0.18090 0.25660 0.39400
C 	C 	0.21430 0.20990 0.13620 0.16600
C 	C 	0.37480 0.12660 0.07420 0.38800
C 	C 	0.59480 0.88300 0.08970 0.38900
C 	C 	0.91900 0.28800 0.25720 -0.21800
C 	C 	0.80780 0.72620 0.19380 -0.29800
C 	C 	0.89390 0.42870 0.31280 -0.30300
C 	C 	0.78260 0.65360 0.21680 0.32700
C 	C 	0.74500 0.80280 0.15430 0.17900
C 	C 	0.65870 0.80550 0.13720 -0.20800
C 	C 	0.30060 0.21060 0.11040 -0.19700
C 	C 	0.88830 0.34670 0.20070 0.18600
C 	C 	0.92130 0.33030 0.31310 0.18900
C 	C 	0.14380 0.28920 0.16780 -0.28000
C 	C 	0.69530 0.65750 0.20190 -0.31800
C 	C 	0.31470 0.29190 0.11840 0.17400
C 	C 	0.63410 0.73230 0.16220 0.18600
C 	C 	0.86490 0.48570 0.25560 0.33000
C 	C 	0.86120 0.44480 0.19970 -0.31500
C 	C 	0.82560 0.03780 0.73480 0.38700
C 	C 	0.72370 0.05330 0.72650 -0.19400
C 	C 	0.66690 0.04410 0.78040 0.14900
C 	C 	0.57210 0.05750 0.77350 -0.26700
C 	C 	0.68490 0.07430 0.66680 0.15600
C 	C 	0.59020 0.08820 0.65830 -0.28400
C 	C 	0.53470 0.07990 0.71290 0.30200
C 	C 	0.37060 0.15900 0.67410 0.30700
C 	C 	0.37240 0.24460 0.64990 -0.29500
C 	C 	0.18090 0.95070 0.75660 0.39400
C 	C 	0.20990 0.21430 0.63620 0.16600
C 	C 	0.12660 0.37480 0.57420 0.38800
C 	C 	0.88300 0.59480 0.58970 0.38800
C 	C 	0.28800 0.91900 0.75720 -0.21800
C 	C 	0.72620 0.80780 0.69380 -0.29800
C 	C 	0.42870 0.89390 0.81280 -0.30300
C 	C 	0.65360 0.78260 0.71680 0.32700
C 	C 	0.80280 0.74500 0.65430 0.17900
C 	C 	0.80550 0.65870 0.63720 -0.20800
C 	C 	0.21060 0.30060 0.61040 -0.19700
C 	C 	0.34670 0.88830 0.70070 0.18600
C 	C 	0.33030 0.92130 0.81310 0.18900
C 	C 	0.28920 0.14380 0.66780 -0.28000
C 	C 	0.65750 0.69530 0.70190 -0.31800
C 	C 	0.29190 0.31470 0.61840 0.17400
C 	C 	0.73230 0.63410 0.66220 0.18600
C 	C 	0.48570 0.86490 0.75560 0.33000
C 	C 	0.44480 0.86120 0.69970 -0.31500
C 	C 	0.96220 0.17440 0.76520 0.38700
C 	C 	0.94670 0.27630 0.77350 -0.19400
C 	C 	0.95590 0.33310 0.71960 0.14900
C 	C 	0.94250 0.42790 0.72650 -0.26700
C 	C 	0.92570 0.31510 0.83320 0.15600
C 	C 	0.91180 0.40980 0.84170 -0.28400
C 	C 	0.92010 0.46530 0.78710 0.30200
C 	C 	0.84100 0.62940 0.82590 0.30700
C 	C 	0.75540 0.62760 0.85010 -0.29500
C 	C 	0.04930 0.81910 0.74340 0.39400
C 	C 	0.78570 0.79010 0.86380 0.16600
C 	C 	0.62520 0.87340 0.92580 0.38800
C 	C 	0.40520 0.11700 0.91030 0.38900
C 	C 	0.08100 0.71200 0.74280 -0.21800
C 	C 	0.19220 0.27380 0.80620 -0.29800
C 	C 	0.10610 0.57130 0.68720 -0.30300
C 	C 	0.21740 0.34640 0.78320 0.32700
C 	C 	0.25500 0.19720 0.84570 0.17900
C 	C 	0.34130 0.19450 0.86280 -0.20800
C 	C 	0.69940 0.78940 0.88960 -0.19700
C 	C 	0.11170 0.65330 0.79930 0.18600
C 	C 	0.07870 0.66970 0.68690 0.18900
C 	C 	0.85620 0.71080 0.83220 -0.28000
C 	C 	0.30470 0.34250 0.79810 -0.31800
C 	C 	0.68530 0.70810 0.88160 0.17400
C 	C 	0.36590 0.26770 0.83780 0.18600
C 	C 	0.13510 0.51430 0.74440 0.33000
C 	C 	0.13880 0.55520 0.80030 -0.31500
O 	O 	0.12773 0.95273 0.31613 -0.41100
O 	O 	0.14200 0.98360 0.20944 -0.40700
O 	O 	0.55641 0.91561 0.29080 -0.30600
O 	O 	0.12222 0.48022 0.42540 -0.41700
O 	O 	0.86983 0.54623 0.44453 -0.42200
O 	O 	0.85292 0.03892 0.29871 -0.41700
O 	O 	0.86883 0.03403 0.19063 -0.40300
O 	O 	0.94143 0.64583 0.43667 -0.40900
O 	O 	0.05364 0.37784 0.43186 -0.41900
O 	O 	0.41799 0.15319 0.24190 -0.31700
O 	O 	0.04727 0.87227 0.18387 -0.41100
O 	O 	0.01640 0.85800 0.29056 -0.40700
O 	O 	0.08439 0.44359 0.20920 -0.30600
O 	O 	0.51978 0.87778 0.07460 -0.41800
O 	O 	0.45377 0.13017 0.05547 -0.42100
O 	O 	0.96108 0.14708 0.20129 -0.41700
O 	O 	0.96597 0.13117 0.30937 -0.40300
O 	O 	0.35417 0.05857 0.06333 -0.40800
O 	O 	0.62216 0.94636 0.06814 -0.41900
O 	O 	0.84681 0.58201 0.25810 -0.31700
O 	O 	0.87227 0.04727 0.68387 -0.41100
O 	O 	0.85800 0.01640 0.79056 -0.40700
O 	O 	0.44359 0.08439 0.70920 -0.30600
O 	O 	0.87778 0.51978 0.57460 -0.41700
O 	O 	0.13017 0.45377 0.55547 -0.42200
O 	O 	0.14708 0.96108 0.70129 -0.41700
O 	O 	0.13117 0.96597 0.80937 -0.40300
O 	O 	0.05857 0.35417 0.56333 -0.40900
O 	O 	0.94636 0.62216 0.56814 -0.41900
O 	O 	0.58201 0.84681 0.75810 -0.31700
O 	O 	0.95273 0.12773 0.81613 -0.41100
O 	O 	0.98360 0.14200 0.70944 -0.40700
O 	O 	0.91561 0.55641 0.79080 -0.30600
O 	O 	0.48022 0.12222 0.92540 -0.41800
O 	O 	0.54623 0.86983 0.94453 -0.42100
O 	O 	0.03892 0.85292 0.79871 -0.41700
O 	O 	0.03403 0.86883 0.69063 -0.40300
O 	O 	0.64583 0.94143 0.93667 -0.40800
O 	O 	0.37784 0.05364 0.93186 -0.41900
O 	O 	0.15319 0.41799 0.74190 -0.31700
