data_crystal

_cell_length_a 24.59800
_cell_length_b 7.53050
_cell_length_c 6.54720
_cell_angle_alpha 90.00000
_cell_angle_beta  106.86300
_cell_angle_gamma 90.00000

_symmetry_space_group_name_	'P 1'
_symmetry_space_group_name_H-M	'P 1'

loop_
_symmetry_equiv_pos_as_xyz
  x,y,z

loop_
_atom_site_label
_atom_site_type_symbol
_atom_site_fract_x
_atom_site_fract_y
_atom_site_fract_z
_atom_site_charge
O 	O 	0.95350 0.17500 0.84600 -0.58700
O 	O 	0.93220 0.13820 0.51600 -0.61900
C 	C 	0.85580 0.23100 0.64300 -0.19200
C 	C 	0.81650 0.18800 0.43200 -0.04200
C 	C 	0.71970 0.18200 0.21000 -0.15400
C 	C 	0.91300 0.17600 0.67200 0.50200
C 	C 	0.75800 0.20300 0.42000 -0.00300
C 	C 	0.83900 0.29400 0.80700 0.12000
O 	O 	0.45350 0.67500 0.84600 -0.56100
O 	O 	0.43220 0.63820 0.51600 -0.56300
C 	C 	0.35580 0.73100 0.64300 -0.17800
C 	C 	0.31650 0.68800 0.43200 0.07300
C 	C 	0.21970 0.68200 0.21000 -0.04800
C 	C 	0.41300 0.67600 0.67200 0.55900
C 	C 	0.25800 0.70300 0.42000 0.02200
C 	C 	0.33900 0.79400 0.80700 0.20200
O 	O 	0.04650 0.17500 0.65400 -0.73800
O 	O 	0.06780 0.13820 0.98400 -0.56300
C 	C 	0.14420 0.23100 0.85700 -0.02300
C 	C 	0.18350 0.18800 0.06800 -0.16400
C 	C 	0.28030 0.18200 0.29000 -0.09400
C 	C 	0.08700 0.17600 0.82800 0.46800
C 	C 	0.24200 0.20300 0.08000 -0.16700
C 	C 	0.16100 0.29400 0.69300 0.02600
O 	O 	0.54650 0.67500 0.65400 -0.61100
O 	O 	0.56780 0.63820 0.98400 -0.43900
C 	C 	0.64420 0.73100 0.85700 0.00000
C 	C 	0.68350 0.68800 0.06800 -0.04300
C 	C 	0.78030 0.68200 0.29000 0.01500
C 	C 	0.58700 0.67600 0.82800 0.50500
C 	C 	0.74200 0.70300 0.08000 -0.13700
C 	C 	0.66100 0.79400 0.69300 0.12100
O 	O 	0.04650 0.82500 0.15400 -0.68000
O 	O 	0.06780 0.86180 0.48400 -0.49400
C 	C 	0.14420 0.76900 0.35700 -0.20000
C 	C 	0.18350 0.81200 0.56800 0.18500
C 	C 	0.28030 0.81800 0.79000 0.10800
C 	C 	0.08700 0.82400 0.32800 0.57100
C 	C 	0.24200 0.79700 0.58000 -0.00700
C 	C 	0.16100 0.70600 0.19300 0.08200
O 	O 	0.54650 0.32500 0.15400 -0.75500
O 	O 	0.56780 0.36180 0.48400 -0.59100
C 	C 	0.64420 0.26900 0.35700 -0.22200
C 	C 	0.68350 0.31200 0.56800 0.07000
C 	C 	0.78030 0.31800 0.79000 0.00400
C 	C 	0.58700 0.32400 0.32800 0.52500
C 	C 	0.74200 0.29700 0.58000 -0.03300
C 	C 	0.66100 0.20600 0.19300 -0.00500
O 	O 	0.95350 0.82500 0.34600 -0.53900
O 	O 	0.93220 0.86180 0.01600 -0.54700
C 	C 	0.85580 0.76900 0.14300 -0.36200
C 	C 	0.81650 0.81200 0.93200 0.29800
C 	C 	0.71970 0.81800 0.71000 0.04800
C 	C 	0.91300 0.82400 0.17200 0.60300
C 	C 	0.75800 0.79700 0.92000 0.15000
C 	C 	0.83900 0.70600 0.30700 0.17200
O 	O 	0.45350 0.32500 0.34600 -0.70800
O 	O 	0.43220 0.36180 0.01600 -0.71400
C 	C 	0.35580 0.26900 0.14300 -0.40800
C 	C 	0.31650 0.31200 0.93200 0.18900
C 	C 	0.21970 0.31800 0.71000 -0.06000
C 	C 	0.41300 0.32400 0.17200 0.58100
C 	C 	0.25800 0.29700 0.92000 0.13100
C 	C 	0.33900 0.20600 0.30700 0.07700
Al	Al	-0.00000 0.00000 -0.00000 2.36900
Al	Al	0.50000 0.50000 -0.00000 2.39200
Al	Al	0.00000 0.00000 0.50000 2.38000
Al	Al	0.50000 0.50000 0.50000 2.40300
O 	O 	0.00000 0.90100 0.75000 -0.75700
O 	O 	0.50000 0.40100 0.75000 -0.86700
O 	O 	-0.00000 0.09900 0.25000 -1.15300
O 	O 	0.50000 0.59900 0.25000 -0.92300
