data_crystal

_cell_length_a 19.56150
_cell_length_b 19.56150
_cell_length_c 24.30400
_cell_angle_alpha 90.00000
_cell_angle_beta  90.00000
_cell_angle_gamma 90.00000

_symmetry_space_group_name_	'P 1'
_symmetry_space_group_name_H-M	'P 1'

loop_
_symmetry_equiv_pos_as_xyz
  x,y,z

loop_
_atom_site_label
_atom_site_type_symbol
_atom_site_fract_x
_atom_site_fract_y
_atom_site_fract_z
_atom_site_charge
O 	O 	0.06240 0.53900 0.28800 -0.52000
O 	O 	0.00530 0.60070 0.22960 -0.53800
O 	O 	0.15860 0.77800 0.45200 -0.46400
O 	O 	0.19150 0.67250 0.43570 -0.40900
O 	O 	0.00670 0.89580 0.33010 -0.51700
O 	O 	0.94990 0.84210 0.26180 -0.45800
O 	O 	0.15750 0.30420 0.31250 -0.23300
C 	C 	0.03700 0.59560 0.27400 0.40900
C 	C 	0.15420 0.72240 0.42640 0.31800
C 	C 	0.98790 0.84100 0.30220 0.38700
C 	C 	0.04690 0.65850 0.30690 -0.17400
C 	C 	0.01350 0.71750 0.29100 0.07900
H 	H 	0.98520 0.71780 0.26030 0.00400
C 	C 	0.02340 0.77710 0.32210 -0.14700
C 	C 	0.06740 0.77780 0.36430 0.06800
H 	H 	0.07490 0.81810 0.38380 0.05200
C 	C 	0.10210 0.71800 0.37920 -0.11500
C 	C 	0.09150 0.65870 0.35160 0.07900
H 	H 	0.11380 0.61880 0.36220 0.01600
C 	C 	0.16200 0.27650 0.26660 0.05100
H 	H 	0.16560 0.30590 0.23510 -0.00400
N 	N 	0.16690 0.20160 0.26880 0.11200
H 	H 	0.16980 0.12360 0.21430 0.33600
H 	H 	0.13630 0.19080 0.19150 0.18400
H 	H 	0.21590 0.18680 0.19980 0.27500
H 	H 	0.16110 0.10930 0.30930 0.16400
H 	H 	0.20010 0.16510 0.34360 0.24500
H 	H 	0.12030 0.16910 0.33730 0.19600
O 	O 	0.03970 0.48620 0.40830 -0.35800
H 	H 	0.00560 0.51230 0.40230 0.12800
H 	H 	0.04910 0.47360 0.44100 0.13100
O 	O 	0.43760 0.96100 0.28800 -0.51600
O 	O 	0.49470 0.89930 0.22960 -0.53700
O 	O 	0.34140 0.72200 0.45200 -0.46500
O 	O 	0.30850 0.82750 0.43570 -0.40800
O 	O 	0.49330 0.60420 0.33010 -0.52600
O 	O 	0.55010 0.65790 0.26180 -0.46000
O 	O 	0.34250 0.19580 0.31250 -0.23200
C 	C 	0.46300 0.90440 0.27400 0.40800
C 	C 	0.34580 0.77760 0.42640 0.31900
C 	C 	0.51210 0.65900 0.30220 0.39900
C 	C 	0.45310 0.84150 0.30690 -0.17400
C 	C 	0.48650 0.78250 0.29100 0.07700
H 	H 	0.51480 0.78220 0.26030 0.00600
C 	C 	0.47660 0.72290 0.32210 -0.15500
C 	C 	0.43260 0.72220 0.36430 0.07200
H 	H 	0.42510 0.68190 0.38380 0.04900
C 	C 	0.39790 0.78200 0.37920 -0.11700
C 	C 	0.40850 0.84130 0.35160 0.07900
H 	H 	0.38620 0.88120 0.36220 0.01600
C 	C 	0.33800 0.22350 0.26660 0.04900
H 	H 	0.33440 0.19410 0.23510 -0.00300
N 	N 	0.33310 0.29840 0.26880 0.11700
H 	H 	0.33020 0.37640 0.21430 0.34400
H 	H 	0.36370 0.30920 0.19150 0.18900
H 	H 	0.28410 0.31320 0.19980 0.28200
H 	H 	0.33890 0.39070 0.30930 0.16800
H 	H 	0.29990 0.33490 0.34360 0.24900
H 	H 	0.37970 0.33090 0.33730 0.20000
O 	O 	0.46030 0.01380 0.40830 -0.34600
H 	H 	0.49440 0.98770 0.40230 0.12800
H 	H 	0.45090 0.02640 0.44100 0.12100
O 	O 	0.96100 0.06240 0.78800 -0.51200
O 	O 	0.89930 0.00530 0.72960 -0.53200
O 	O 	0.72200 0.15860 0.95200 -0.43400
O 	O 	0.82750 0.19150 0.93570 -0.38300
O 	O 	0.60420 0.00670 0.83010 -0.51800
O 	O 	0.65790 0.94990 0.76180 -0.45700
O 	O 	0.19580 0.15750 0.81250 -0.22900
C 	C 	0.90440 0.03700 0.77400 0.40800
C 	C 	0.77760 0.15420 0.92640 0.31400
C 	C 	0.65900 0.98790 0.80220 0.39300
C 	C 	0.84150 0.04690 0.80690 -0.17100
C 	C 	0.78250 0.01350 0.79100 0.08400
H 	H 	0.78220 0.98520 0.76030 -0.00000
C 	C 	0.72290 0.02340 0.82210 -0.14700
C 	C 	0.72220 0.06740 0.86430 0.06800
H 	H 	0.68190 0.07490 0.88380 0.05700
C 	C 	0.78200 0.10210 0.87920 -0.10500
C 	C 	0.84130 0.09150 0.85160 0.07600
H 	H 	0.88120 0.11380 0.86220 0.02200
C 	C 	0.22350 0.16200 0.76660 0.04500
H 	H 	0.19410 0.16560 0.73510 -0.00200
N 	N 	0.29840 0.16690 0.76880 0.12700
H 	H 	0.37640 0.16980 0.71430 0.35800
H 	H 	0.30920 0.13630 0.69150 0.20100
H 	H 	0.31320 0.21590 0.69980 0.29500
H 	H 	0.39070 0.16110 0.80930 0.17400
H 	H 	0.33490 0.20010 0.84360 0.26300
H 	H 	0.33090 0.12030 0.83730 0.21300
O 	O 	0.01380 0.03970 0.90830 -0.36000
H 	H 	0.98770 0.00560 0.90230 0.13800
H 	H 	0.02640 0.04910 0.94100 0.13700
O 	O 	0.53900 0.43760 0.78800 -0.51600
O 	O 	0.60070 0.49470 0.72960 -0.53600
O 	O 	0.77800 0.34140 0.95200 -0.43400
O 	O 	0.67250 0.30850 0.93570 -0.38400
O 	O 	0.89580 0.49330 0.83010 -0.52000
O 	O 	0.84210 0.55010 0.76180 -0.45800
O 	O 	0.30420 0.34250 0.81250 -0.22800
C 	C 	0.59560 0.46300 0.77400 0.40700
C 	C 	0.72240 0.34580 0.92640 0.31400
C 	C 	0.84100 0.51210 0.80220 0.39700
C 	C 	0.65850 0.45310 0.80690 -0.16800
C 	C 	0.71750 0.48650 0.79100 0.07300
H 	H 	0.71780 0.51480 0.76030 0.00700
C 	C 	0.77710 0.47660 0.82210 -0.14700
C 	C 	0.77780 0.43260 0.86430 0.06700
H 	H 	0.81810 0.42510 0.88380 0.05700
C 	C 	0.71800 0.39790 0.87920 -0.10400
C 	C 	0.65870 0.40850 0.85160 0.07400
H 	H 	0.61880 0.38620 0.86220 0.02200
C 	C 	0.27650 0.33800 0.76660 0.04500
H 	H 	0.30590 0.33440 0.73510 -0.00100
N 	N 	0.20160 0.33310 0.76880 0.12700
H 	H 	0.12360 0.33020 0.71430 0.35700
H 	H 	0.19080 0.36370 0.69150 0.20100
H 	H 	0.18680 0.28410 0.69980 0.29500
H 	H 	0.10930 0.33890 0.80930 0.17400
H 	H 	0.16510 0.29990 0.84360 0.26300
H 	H 	0.16910 0.37970 0.83730 0.21300
O 	O 	0.48620 0.46030 0.90830 -0.35100
H 	H 	0.51230 0.49440 0.90230 0.13200
H 	H 	0.47360 0.45090 0.94100 0.13600
O 	O 	0.93760 0.03900 0.21200 -0.51800
O 	O 	0.99470 0.10070 0.27040 -0.53200
O 	O 	0.84140 0.27800 0.04800 -0.49100
O 	O 	0.80850 0.17250 0.06430 -0.42900
O 	O 	0.99330 0.39580 0.16990 -0.52500
O 	O 	0.05010 0.34210 0.23820 -0.45900
O 	O 	0.84250 0.80420 0.18750 -0.23500
C 	C 	0.96300 0.09560 0.22600 0.41200
C 	C 	0.84580 0.22240 0.07360 0.32400
C 	C 	0.01210 0.34100 0.19780 0.39000
C 	C 	0.95310 0.15850 0.19310 -0.18400
C 	C 	0.98650 0.21750 0.20900 0.09700
H 	H 	0.01480 0.21780 0.23970 -0.00600
C 	C 	0.97660 0.27710 0.17790 -0.16000
C 	C 	0.93260 0.27780 0.13570 0.07800
H 	H 	0.92510 0.31810 0.11620 0.04100
C 	C 	0.89790 0.21800 0.12080 -0.13000
C 	C 	0.90850 0.15870 0.14840 0.08800
H 	H 	0.88620 0.11880 0.13780 0.00900
C 	C 	0.83800 0.77650 0.23340 0.05000
H 	H 	0.83440 0.80590 0.26490 -0.00300
N 	N 	0.83310 0.70160 0.23120 0.11600
H 	H 	0.83020 0.62360 0.28570 0.35000
H 	H 	0.86370 0.69080 0.30850 0.19600
H 	H 	0.78410 0.68680 0.30020 0.28800
H 	H 	0.83890 0.60930 0.19070 0.16400
H 	H 	0.79990 0.66510 0.15640 0.23900
H 	H 	0.87970 0.66910 0.16270 0.19100
O 	O 	0.96030 0.98620 0.09170 -0.35700
H 	H 	0.99440 0.01230 0.09770 0.12700
H 	H 	0.95090 0.97360 0.05900 0.11600
O 	O 	0.56240 0.46100 0.21200 -0.52100
O 	O 	0.50530 0.39930 0.27040 -0.53700
O 	O 	0.65860 0.22200 0.04800 -0.49100
O 	O 	0.69150 0.32750 0.06430 -0.43000
O 	O 	0.50670 0.10420 0.16990 -0.53100
O 	O 	0.44990 0.15790 0.23820 -0.46000
O 	O 	0.65750 0.69580 0.18750 -0.23500
C 	C 	0.53700 0.40440 0.22600 0.41000
C 	C 	0.65420 0.27760 0.07360 0.32300
C 	C 	0.48790 0.15900 0.19780 0.39900
C 	C 	0.54690 0.34150 0.19310 -0.18000
C 	C 	0.51350 0.28250 0.20900 0.08100
H 	H 	0.48520 0.28220 0.23970 0.00500
C 	C 	0.52340 0.22290 0.17790 -0.16200
C 	C 	0.56740 0.22220 0.13570 0.07700
H 	H 	0.57490 0.18190 0.11620 0.04000
C 	C 	0.60210 0.28200 0.12080 -0.13000
C 	C 	0.59150 0.34130 0.14840 0.08500
H 	H 	0.61380 0.38120 0.13780 0.00900
C 	C 	0.66200 0.72350 0.23340 0.05000
H 	H 	0.66560 0.69410 0.26490 -0.00200
N 	N 	0.66690 0.79840 0.23120 0.11600
H 	H 	0.66980 0.87640 0.28570 0.35000
H 	H 	0.63630 0.80920 0.30850 0.19600
H 	H 	0.71590 0.81320 0.30020 0.28800
H 	H 	0.66110 0.89070 0.19070 0.16400
H 	H 	0.70010 0.83490 0.15640 0.23900
H 	H 	0.62030 0.83090 0.16270 0.19100
O 	O 	0.53970 0.51380 0.09170 -0.35100
H 	H 	0.50560 0.48770 0.09770 0.12200
H 	H 	0.54910 0.52640 0.05900 0.11500
O 	O 	0.03900 0.56240 0.71200 -0.51800
O 	O 	0.10070 0.50530 0.77040 -0.53600
O 	O 	0.27800 0.65860 0.54800 -0.46500
O 	O 	0.17250 0.69150 0.56430 -0.40800
O 	O 	0.39580 0.50670 0.66990 -0.52600
O 	O 	0.34210 0.44990 0.73820 -0.45800
O 	O 	0.80420 0.65750 0.68750 -0.23100
C 	C 	0.09560 0.53700 0.72600 0.40800
C 	C 	0.22240 0.65420 0.57360 0.31900
C 	C 	0.34100 0.48790 0.69780 0.39800
C 	C 	0.15850 0.54690 0.69310 -0.17400
C 	C 	0.21750 0.51350 0.70900 0.07600
H 	H 	0.21780 0.48520 0.73970 0.00700
C 	C 	0.27710 0.52340 0.67790 -0.15400
C 	C 	0.27780 0.56740 0.63570 0.07200
H 	H 	0.31810 0.57490 0.61620 0.04900
C 	C 	0.21800 0.60210 0.62080 -0.11700
C 	C 	0.15870 0.59150 0.64840 0.07900
H 	H 	0.11880 0.61380 0.63780 0.01600
C 	C 	0.77650 0.66200 0.73340 0.04400
H 	H 	0.80590 0.66560 0.76490 -0.00000
N 	N 	0.70160 0.66690 0.73120 0.12700
H 	H 	0.62360 0.66980 0.78570 0.36500
H 	H 	0.69080 0.63630 0.80850 0.21000
H 	H 	0.68680 0.71590 0.80020 0.30400
H 	H 	0.60930 0.66110 0.69070 0.17100
H 	H 	0.66510 0.70010 0.65640 0.25400
H 	H 	0.66910 0.62030 0.66270 0.20500
O 	O 	0.98620 0.53970 0.59170 -0.35500
H 	H 	0.01230 0.50560 0.59770 0.12700
H 	H 	0.97360 0.54910 0.55900 0.12800
O 	O 	0.46100 0.93760 0.71200 -0.51900
O 	O 	0.39930 0.99470 0.77040 -0.53400
O 	O 	0.22200 0.84140 0.54800 -0.46400
O 	O 	0.32750 0.80850 0.56430 -0.40900
O 	O 	0.10420 0.99330 0.66990 -0.51500
O 	O 	0.15790 0.05010 0.73820 -0.45600
O 	O 	0.69580 0.84250 0.68750 -0.23200
C 	C 	0.40440 0.96300 0.72600 0.40900
C 	C 	0.27760 0.84580 0.57360 0.31800
C 	C 	0.15900 0.01210 0.69780 0.38100
C 	C 	0.34150 0.95310 0.69310 -0.17500
C 	C 	0.28250 0.98650 0.70900 0.08300
H 	H 	0.28220 0.01480 0.73970 0.00100
C 	C 	0.22290 0.97660 0.67790 -0.14500
C 	C 	0.22220 0.93260 0.63570 0.06700
H 	H 	0.18190 0.92510 0.61620 0.05200
C 	C 	0.28200 0.89790 0.62080 -0.11500
C 	C 	0.34130 0.90850 0.64840 0.07900
H 	H 	0.38120 0.88620 0.63780 0.01600
C 	C 	0.72350 0.83800 0.73340 0.04600
H 	H 	0.69410 0.83440 0.76490 -0.00100
N 	N 	0.79840 0.83310 0.73120 0.12400
H 	H 	0.87640 0.83020 0.78570 0.35900
H 	H 	0.80920 0.86370 0.80850 0.20600
H 	H 	0.81320 0.78410 0.80020 0.29900
H 	H 	0.89070 0.83890 0.69070 0.16800
H 	H 	0.83490 0.79990 0.65640 0.25200
H 	H 	0.83090 0.87970 0.66270 0.20300
O 	O 	0.51380 0.96030 0.59170 -0.34700
H 	H 	0.48770 0.99440 0.59770 0.12700
H 	H 	0.52640 0.95090 0.55900 0.12300
O 	O 	0.93760 0.46100 0.71200 -0.51900
O 	O 	0.99470 0.39930 0.77040 -0.53400
O 	O 	0.84140 0.22200 0.54800 -0.46400
O 	O 	0.80850 0.32750 0.56430 -0.40900
O 	O 	0.99330 0.10420 0.66990 -0.51500
O 	O 	0.05010 0.15790 0.73820 -0.45600
O 	O 	0.84250 0.69580 0.68750 -0.23200
C 	C 	0.96300 0.40440 0.72600 0.40900
C 	C 	0.84580 0.27760 0.57360 0.31800
C 	C 	0.01210 0.15900 0.69780 0.38100
C 	C 	0.95310 0.34150 0.69310 -0.17500
C 	C 	0.98650 0.28250 0.70900 0.08300
H 	H 	0.01480 0.28220 0.73970 0.00100
C 	C 	0.97660 0.22290 0.67790 -0.14500
C 	C 	0.93260 0.22220 0.63570 0.06700
H 	H 	0.92510 0.18190 0.61620 0.05200
C 	C 	0.89790 0.28200 0.62080 -0.11500
C 	C 	0.90850 0.34130 0.64840 0.07900
H 	H 	0.88620 0.38120 0.63780 0.01600
C 	C 	0.83800 0.72350 0.73340 0.04600
H 	H 	0.83440 0.69410 0.76490 -0.00100
N 	N 	0.83310 0.79840 0.73120 0.12400
H 	H 	0.83020 0.87640 0.78570 0.35900
H 	H 	0.86370 0.80920 0.80850 0.20600
H 	H 	0.78410 0.81320 0.80020 0.29900
H 	H 	0.83890 0.89070 0.69070 0.16800
H 	H 	0.79990 0.83490 0.65640 0.25200
H 	H 	0.87970 0.83090 0.66270 0.20300
O 	O 	0.96030 0.51380 0.59170 -0.34700
H 	H 	0.99440 0.48770 0.59770 0.12700
H 	H 	0.95090 0.52640 0.55900 0.12300
O 	O 	0.56240 0.03900 0.71200 -0.51800
O 	O 	0.50530 0.10070 0.77040 -0.53600
O 	O 	0.65860 0.27800 0.54800 -0.46500
O 	O 	0.69150 0.17250 0.56430 -0.40800
O 	O 	0.50670 0.39580 0.66990 -0.52600
O 	O 	0.44990 0.34210 0.73820 -0.45800
O 	O 	0.65750 0.80420 0.68750 -0.23100
C 	C 	0.53700 0.09560 0.72600 0.40800
C 	C 	0.65420 0.22240 0.57360 0.31900
C 	C 	0.48790 0.34100 0.69780 0.39800
C 	C 	0.54690 0.15850 0.69310 -0.17400
C 	C 	0.51350 0.21750 0.70900 0.07600
H 	H 	0.48520 0.21780 0.73970 0.00700
C 	C 	0.52340 0.27710 0.67790 -0.15400
C 	C 	0.56740 0.27780 0.63570 0.07200
H 	H 	0.57490 0.31810 0.61620 0.04900
C 	C 	0.60210 0.21800 0.62080 -0.11700
C 	C 	0.59150 0.15870 0.64840 0.07900
H 	H 	0.61380 0.11880 0.63780 0.01600
C 	C 	0.66200 0.77650 0.73340 0.04400
H 	H 	0.66560 0.80590 0.76490 -0.00000
N 	N 	0.66690 0.70160 0.73120 0.12700
H 	H 	0.66980 0.62360 0.78570 0.36500
H 	H 	0.63630 0.69080 0.80850 0.21000
H 	H 	0.71590 0.68680 0.80020 0.30400
H 	H 	0.66110 0.60930 0.69070 0.17100
H 	H 	0.70010 0.66510 0.65640 0.25400
H 	H 	0.62030 0.66910 0.66270 0.20500
O 	O 	0.53970 0.98620 0.59170 -0.35500
H 	H 	0.50560 0.01230 0.59770 0.12700
H 	H 	0.54910 0.97360 0.55900 0.12800
O 	O 	0.03900 0.93760 0.21200 -0.51800
O 	O 	0.10070 0.99470 0.27040 -0.53200
O 	O 	0.27800 0.84140 0.04800 -0.49100
O 	O 	0.17250 0.80850 0.06430 -0.42900
O 	O 	0.39580 0.99330 0.16990 -0.52500
O 	O 	0.34210 0.05010 0.23820 -0.45900
O 	O 	0.80420 0.84250 0.18750 -0.23500
C 	C 	0.09560 0.96300 0.22600 0.41200
C 	C 	0.22240 0.84580 0.07360 0.32400
C 	C 	0.34100 0.01210 0.19780 0.39000
C 	C 	0.15850 0.95310 0.19310 -0.18400
C 	C 	0.21750 0.98650 0.20900 0.09700
H 	H 	0.21780 0.01480 0.23970 -0.00600
C 	C 	0.27710 0.97660 0.17790 -0.16000
C 	C 	0.27780 0.93260 0.13570 0.07800
H 	H 	0.31810 0.92510 0.11620 0.04100
C 	C 	0.21800 0.89790 0.12080 -0.13000
C 	C 	0.15870 0.90850 0.14840 0.08800
H 	H 	0.11880 0.88620 0.13780 0.00900
C 	C 	0.77650 0.83800 0.23340 0.05000
H 	H 	0.80590 0.83440 0.26490 -0.00300
N 	N 	0.70160 0.83310 0.23120 0.11600
H 	H 	0.62360 0.83020 0.28570 0.35000
H 	H 	0.69080 0.86370 0.30850 0.19600
H 	H 	0.68680 0.78410 0.30020 0.28800
H 	H 	0.60930 0.83890 0.19070 0.16400
H 	H 	0.66510 0.79990 0.15640 0.23900
H 	H 	0.66910 0.87970 0.16270 0.19100
O 	O 	0.98620 0.96030 0.09170 -0.35700
H 	H 	0.01230 0.99440 0.09770 0.12700
H 	H 	0.97360 0.95090 0.05900 0.11600
O 	O 	0.46100 0.56240 0.21200 -0.52100
O 	O 	0.39930 0.50530 0.27040 -0.53700
O 	O 	0.22200 0.65860 0.04800 -0.49100
O 	O 	0.32750 0.69150 0.06430 -0.43000
O 	O 	0.10420 0.50670 0.16990 -0.53100
O 	O 	0.15790 0.44990 0.23820 -0.46000
O 	O 	0.69580 0.65750 0.18750 -0.23500
C 	C 	0.40440 0.53700 0.22600 0.41000
C 	C 	0.27760 0.65420 0.07360 0.32300
C 	C 	0.15900 0.48790 0.19780 0.39900
C 	C 	0.34150 0.54690 0.19310 -0.18000
C 	C 	0.28250 0.51350 0.20900 0.08100
H 	H 	0.28220 0.48520 0.23970 0.00500
C 	C 	0.22290 0.52340 0.17790 -0.16200
C 	C 	0.22220 0.56740 0.13570 0.07700
H 	H 	0.18190 0.57490 0.11620 0.04000
C 	C 	0.28200 0.60210 0.12080 -0.13000
C 	C 	0.34130 0.59150 0.14840 0.08500
H 	H 	0.38120 0.61380 0.13780 0.00900
C 	C 	0.72350 0.66200 0.23340 0.05000
H 	H 	0.69410 0.66560 0.26490 -0.00200
N 	N 	0.79840 0.66690 0.23120 0.11600
H 	H 	0.87640 0.66980 0.28570 0.35000
H 	H 	0.80920 0.63630 0.30850 0.19600
H 	H 	0.81320 0.71590 0.30020 0.28800
H 	H 	0.89070 0.66110 0.19070 0.16400
H 	H 	0.83490 0.70010 0.15640 0.23900
H 	H 	0.83090 0.62030 0.16270 0.19100
O 	O 	0.51380 0.53970 0.09170 -0.35100
H 	H 	0.48770 0.50560 0.09770 0.12200
H 	H 	0.52640 0.54910 0.05900 0.11500
O 	O 	0.06240 0.96100 0.78800 -0.51200
O 	O 	0.00530 0.89930 0.72960 -0.53200
O 	O 	0.15860 0.72200 0.95200 -0.43400
O 	O 	0.19150 0.82750 0.93570 -0.38300
O 	O 	0.00670 0.60420 0.83010 -0.51800
O 	O 	0.94990 0.65790 0.76180 -0.45700
O 	O 	0.15750 0.19580 0.81250 -0.22900
C 	C 	0.03700 0.90440 0.77400 0.40800
C 	C 	0.15420 0.77760 0.92640 0.31400
C 	C 	0.98790 0.65900 0.80220 0.39300
C 	C 	0.04690 0.84150 0.80690 -0.17100
C 	C 	0.01350 0.78250 0.79100 0.08400
H 	H 	0.98520 0.78220 0.76030 -0.00000
C 	C 	0.02340 0.72290 0.82210 -0.14700
C 	C 	0.06740 0.72220 0.86430 0.06800
H 	H 	0.07490 0.68190 0.88380 0.05700
C 	C 	0.10210 0.78200 0.87920 -0.10500
C 	C 	0.09150 0.84130 0.85160 0.07600
H 	H 	0.11380 0.88120 0.86220 0.02200
C 	C 	0.16200 0.22350 0.76660 0.04500
H 	H 	0.16560 0.19410 0.73510 -0.00200
N 	N 	0.16690 0.29840 0.76880 0.12700
H 	H 	0.16980 0.37640 0.71430 0.35800
H 	H 	0.13630 0.30920 0.69150 0.20100
H 	H 	0.21590 0.31320 0.69980 0.29500
H 	H 	0.16110 0.39070 0.80930 0.17400
H 	H 	0.20010 0.33490 0.84360 0.26300
H 	H 	0.12030 0.33090 0.83730 0.21300
O 	O 	0.03970 0.01380 0.90830 -0.36000
H 	H 	0.00560 0.98770 0.90230 0.13800
H 	H 	0.04910 0.02640 0.94100 0.13700
O 	O 	0.43760 0.53900 0.78800 -0.51600
O 	O 	0.49470 0.60070 0.72960 -0.53600
O 	O 	0.34140 0.77800 0.95200 -0.43400
O 	O 	0.30850 0.67250 0.93570 -0.38400
O 	O 	0.49330 0.89580 0.83010 -0.52000
O 	O 	0.55010 0.84210 0.76180 -0.45800
O 	O 	0.34250 0.30420 0.81250 -0.22800
C 	C 	0.46300 0.59560 0.77400 0.40700
C 	C 	0.34580 0.72240 0.92640 0.31400
C 	C 	0.51210 0.84100 0.80220 0.39700
C 	C 	0.45310 0.65850 0.80690 -0.16800
C 	C 	0.48650 0.71750 0.79100 0.07300
H 	H 	0.51480 0.71780 0.76030 0.00700
C 	C 	0.47660 0.77710 0.82210 -0.14700
C 	C 	0.43260 0.77780 0.86430 0.06700
H 	H 	0.42510 0.81810 0.88380 0.05700
C 	C 	0.39790 0.71800 0.87920 -0.10400
C 	C 	0.40850 0.65870 0.85160 0.07400
H 	H 	0.38620 0.61880 0.86220 0.02200
C 	C 	0.33800 0.27650 0.76660 0.04500
H 	H 	0.33440 0.30590 0.73510 -0.00100
N 	N 	0.33310 0.20160 0.76880 0.12700
H 	H 	0.33020 0.12360 0.71430 0.35700
H 	H 	0.36370 0.19080 0.69150 0.20100
H 	H 	0.28410 0.18680 0.69980 0.29500
H 	H 	0.33890 0.10930 0.80930 0.17400
H 	H 	0.29990 0.16510 0.84360 0.26300
H 	H 	0.37970 0.16910 0.83730 0.21300
O 	O 	0.46030 0.48620 0.90830 -0.35100
H 	H 	0.49440 0.51230 0.90230 0.13200
H 	H 	0.45090 0.47360 0.94100 0.13600
O 	O 	0.96100 0.43760 0.28800 -0.51600
O 	O 	0.89930 0.49470 0.22960 -0.53700
O 	O 	0.72200 0.34140 0.45200 -0.46500
O 	O 	0.82750 0.30850 0.43570 -0.40800
O 	O 	0.60420 0.49330 0.33010 -0.52600
O 	O 	0.65790 0.55010 0.26180 -0.46000
O 	O 	0.19580 0.34250 0.31250 -0.23200
C 	C 	0.90440 0.46300 0.27400 0.40800
C 	C 	0.77760 0.34580 0.42640 0.31900
C 	C 	0.65900 0.51210 0.30220 0.39900
C 	C 	0.84150 0.45310 0.30690 -0.17400
C 	C 	0.78250 0.48650 0.29100 0.07700
H 	H 	0.78220 0.51480 0.26030 0.00600
C 	C 	0.72290 0.47660 0.32210 -0.15500
C 	C 	0.72220 0.43260 0.36430 0.07200
H 	H 	0.68190 0.42510 0.38380 0.04900
C 	C 	0.78200 0.39790 0.37920 -0.11700
C 	C 	0.84130 0.40850 0.35160 0.07900
H 	H 	0.88120 0.38620 0.36220 0.01600
C 	C 	0.22350 0.33800 0.26660 0.04900
H 	H 	0.19410 0.33440 0.23510 -0.00300
N 	N 	0.29840 0.33310 0.26880 0.11700
H 	H 	0.37640 0.33020 0.21430 0.34400
H 	H 	0.30920 0.36370 0.19150 0.18900
H 	H 	0.31320 0.28410 0.19980 0.28200
H 	H 	0.39070 0.33890 0.30930 0.16800
H 	H 	0.33490 0.29990 0.34360 0.24900
H 	H 	0.33090 0.37970 0.33730 0.20000
O 	O 	0.01380 0.46030 0.40830 -0.34600
H 	H 	0.98770 0.49440 0.40230 0.12800
H 	H 	0.02640 0.45090 0.44100 0.12100
O 	O 	0.53900 0.06240 0.28800 -0.51900
O 	O 	0.60070 0.00530 0.22960 -0.53700
O 	O 	0.77800 0.15860 0.45200 -0.46400
O 	O 	0.67250 0.19150 0.43570 -0.40900
O 	O 	0.89580 0.00670 0.33010 -0.51700
O 	O 	0.84210 0.94990 0.26180 -0.45800
O 	O 	0.30420 0.15750 0.31250 -0.23300
C 	C 	0.59560 0.03700 0.27400 0.40900
C 	C 	0.72240 0.15420 0.42640 0.31800
C 	C 	0.84100 0.98790 0.30220 0.38700
C 	C 	0.65850 0.04690 0.30690 -0.17400
C 	C 	0.71750 0.01350 0.29100 0.07900
H 	H 	0.71780 0.98520 0.26030 0.00400
C 	C 	0.77710 0.02340 0.32210 -0.14700
C 	C 	0.77780 0.06740 0.36430 0.06800
H 	H 	0.81810 0.07490 0.38380 0.05200
C 	C 	0.71800 0.10210 0.37920 -0.11500
C 	C 	0.65870 0.09150 0.35160 0.07900
H 	H 	0.61880 0.11380 0.36220 0.01600
C 	C 	0.27650 0.16200 0.26660 0.05100
H 	H 	0.30590 0.16560 0.23510 -0.00400
N 	N 	0.20160 0.16690 0.26880 0.11200
H 	H 	0.12360 0.16980 0.21430 0.33600
H 	H 	0.19080 0.13630 0.19150 0.18400
H 	H 	0.18680 0.21590 0.19980 0.27500
H 	H 	0.10930 0.16110 0.30930 0.16400
H 	H 	0.16510 0.20010 0.34360 0.24500
H 	H 	0.16910 0.12030 0.33730 0.19600
O 	O 	0.48620 0.03970 0.40830 -0.35800
H 	H 	0.51230 0.00560 0.40230 0.12800
H 	H 	0.47360 0.04910 0.44100 0.13100
In	In	0.00029 0.49971 0.19268 1.99600
Sr	Sr	0.08500 0.41500 0.31997 1.51800
Cl	Cl	0.95950 0.54050 0.10600 -0.61300
In	In	0.49971 0.00029 0.19268 1.99600
Sr	Sr	0.41500 0.08500 0.31997 1.51800
Cl	Cl	0.54050 0.95950 0.10600 -0.61300
In	In	0.00029 0.00029 0.69268 1.99200
Sr	Sr	0.08500 0.08500 0.81997 1.51800
Cl	Cl	0.95950 0.95950 0.60600 -0.59700
In	In	0.49971 0.49971 0.69268 1.99600
Sr	Sr	0.41500 0.41500 0.81997 1.51900
Cl	Cl	0.54050 0.54050 0.60600 -0.59100
In	In	0.99971 0.99971 0.30732 1.99400
Sr	Sr	0.91500 0.91500 0.18003 1.51600
Cl	Cl	0.04050 0.04050 0.39400 -0.59900
In	In	0.50029 0.50029 0.30732 1.99700
Sr	Sr	0.58500 0.58500 0.18003 1.51600
Cl	Cl	0.45950 0.45950 0.39400 -0.59000
In	In	0.99971 0.50029 0.80732 1.99700
Sr	Sr	0.91500 0.58500 0.68003 1.51800
Cl	Cl	0.04050 0.45950 0.89400 -0.56800
In	In	0.50029 0.99971 0.80732 1.99700
Sr	Sr	0.58500 0.91500 0.68003 1.51800
Cl	Cl	0.45950 0.04050 0.89400 -0.56800
In	In	0.25000 0.75000 0.50000 1.98900
In	In	0.75000 0.25000 -0.00000 1.97100
In	In	0.75000 0.25000 0.50000 1.98900
In	In	0.25000 0.75000 -0.00000 1.97100
C 	C 	0.17230 0.17230 0.21420 -1.47300
C 	C 	0.16230 0.16230 0.31920 -1.07500
C 	C 	0.32770 0.32770 0.21420 -1.50700
C 	C 	0.33770 0.33770 0.31920 -1.09400
C 	C 	0.32770 0.17230 0.71420 -1.57300
C 	C 	0.33770 0.16230 0.81920 -1.14900
C 	C 	0.17230 0.32770 0.71420 -1.57300
C 	C 	0.16230 0.33770 0.81920 -1.14900
C 	C 	0.82770 0.67230 0.28580 -1.53300
C 	C 	0.83770 0.66230 0.18080 -1.06300
C 	C 	0.67230 0.82770 0.28580 -1.53300
C 	C 	0.66230 0.83770 0.18080 -1.06300
C 	C 	0.67230 0.67230 0.78580 -1.61000
C 	C 	0.66230 0.66230 0.68080 -1.12300
C 	C 	0.82770 0.82770 0.78580 -1.58500
C 	C 	0.83770 0.83770 0.68080 -1.11000
