data_crystal

_cell_length_a 19.51890
_cell_length_b 19.51890
_cell_length_c 24.25300
_cell_angle_alpha 90.00000
_cell_angle_beta  90.00000
_cell_angle_gamma 90.00000

_symmetry_space_group_name_	'P 1'
_symmetry_space_group_name_H-M	'P 1'

loop_
_symmetry_equiv_pos_as_xyz
  x,y,z

loop_
_atom_site_label
_atom_site_type_symbol
_atom_site_fract_x
_atom_site_fract_y
_atom_site_fract_z
_atom_site_charge
O 	O 	0.05620 0.54100 0.28770 -0.53600
O 	O 	0.00230 0.60230 0.22900 -0.53100
O 	O 	0.16090 0.77810 0.45110 -0.47900
O 	O 	0.19140 0.67380 0.43560 -0.41100
O 	O 	0.00900 0.89890 0.32990 -0.53200
O 	O 	0.95250 0.84580 0.26170 -0.47700
O 	O 	0.14150 0.31810 0.32490 -0.25100
C 	C 	0.03440 0.59660 0.27490 0.45700
C 	C 	0.15340 0.72390 0.42560 0.35600
C 	C 	0.99010 0.84600 0.30130 0.43100
C 	C 	0.04420 0.66000 0.30590 -0.20700
C 	C 	0.01300 0.72050 0.29110 0.12700
H 	H 	0.98380 0.72120 0.26080 -0.00100
C 	C 	0.02410 0.77990 0.32040 -0.16300
C 	C 	0.06860 0.77970 0.36540 0.08600
H 	H 	0.07600 0.81970 0.38540 0.04900
C 	C 	0.10200 0.71910 0.38040 -0.14200
C 	C 	0.08910 0.65940 0.35050 0.10400
H 	H 	0.11070 0.61880 0.36040 0.00900
C 	C 	0.15410 0.27940 0.28560 0.09400
H 	H 	0.15350 0.29460 0.24800 -0.00500
H 	H 	0.18980 0.13200 0.24810 0.22300
H 	H 	0.13900 0.18620 0.22360 0.08000
H 	H 	0.21700 0.20390 0.22960 0.12000
H 	H 	0.18760 0.13190 0.35300 0.24700
H 	H 	0.21920 0.20270 0.36990 0.15500
H 	H 	0.14060 0.18920 0.37790 0.10900
N 	N 	0.16680 0.20720 0.30030 0.02600
O 	O 	0.01940 0.43620 0.39750 -0.57900
H 	H 	0.98220 0.45890 0.39840 0.25800
H 	H 	0.03530 0.41870 0.42690 0.23400
O 	O 	0.44380 0.95900 0.28770 -0.53500
O 	O 	0.49770 0.89770 0.22900 -0.53200
O 	O 	0.33910 0.72190 0.45110 -0.48100
O 	O 	0.30860 0.82620 0.43560 -0.41100
O 	O 	0.49100 0.60110 0.32990 -0.54000
O 	O 	0.54750 0.65420 0.26170 -0.47900
O 	O 	0.35850 0.18190 0.32490 -0.25100
C 	C 	0.46560 0.90340 0.27490 0.45700
C 	C 	0.34660 0.77610 0.42560 0.35600
C 	C 	0.50990 0.65400 0.30130 0.44200
C 	C 	0.45580 0.84000 0.30590 -0.20600
C 	C 	0.48700 0.77950 0.29110 0.12400
H 	H 	0.51620 0.77880 0.26080 0.00100
C 	C 	0.47590 0.72010 0.32040 -0.16900
C 	C 	0.43140 0.72030 0.36540 0.08900
H 	H 	0.42400 0.68030 0.38540 0.04600
C 	C 	0.39800 0.78090 0.38040 -0.14300
C 	C 	0.41090 0.84060 0.35050 0.10400
H 	H 	0.38930 0.88120 0.36040 0.01000
C 	C 	0.34590 0.22060 0.28560 0.09400
H 	H 	0.34650 0.20540 0.24800 -0.00500
H 	H 	0.31020 0.36800 0.24810 0.22500
H 	H 	0.36100 0.31380 0.22360 0.08100
H 	H 	0.28300 0.29610 0.22960 0.12100
H 	H 	0.31240 0.36810 0.35300 0.24900
H 	H 	0.28080 0.29730 0.36990 0.15700
H 	H 	0.35940 0.31080 0.37790 0.11000
N 	N 	0.33320 0.29280 0.30030 0.02800
O 	O 	0.48060 0.06380 0.39750 -0.57200
H 	H 	0.51780 0.04110 0.39840 0.25300
H 	H 	0.46470 0.08130 0.42690 0.23100
O 	O 	0.95900 0.05620 0.78770 -0.53200
O 	O 	0.89770 0.00230 0.72900 -0.52800
O 	O 	0.72190 0.16090 0.95110 -0.44900
O 	O 	0.82620 0.19140 0.93560 -0.38600
O 	O 	0.60110 0.00900 0.82990 -0.53400
O 	O 	0.65420 0.95250 0.76170 -0.47700
O 	O 	0.18190 0.14150 0.82490 -0.24800
C 	C 	0.90340 0.03440 0.77490 0.45600
C 	C 	0.77610 0.15340 0.92560 0.35000
C 	C 	0.65400 0.99010 0.80130 0.44000
C 	C 	0.84000 0.04420 0.80590 -0.20200
C 	C 	0.77950 0.01300 0.79110 0.12900
H 	H 	0.77880 0.98380 0.76080 -0.00200
C 	C 	0.72010 0.02410 0.82040 -0.16300
C 	C 	0.72030 0.06860 0.86540 0.08500
H 	H 	0.68030 0.07600 0.88540 0.05500
C 	C 	0.78090 0.10200 0.88040 -0.13100
C 	C 	0.84060 0.08910 0.85050 0.10100
H 	H 	0.88120 0.11070 0.86040 0.01500
C 	C 	0.22060 0.15410 0.78560 0.09100
H 	H 	0.20540 0.15350 0.74800 -0.00300
H 	H 	0.36800 0.18980 0.74810 0.22800
H 	H 	0.31380 0.13900 0.72360 0.08700
H 	H 	0.29610 0.21700 0.72960 0.12500
H 	H 	0.36810 0.18760 0.85300 0.25600
H 	H 	0.29730 0.21920 0.86990 0.16500
H 	H 	0.31080 0.14060 0.87790 0.12200
N 	N 	0.29280 0.16680 0.80030 0.03300
O 	O 	0.06380 0.01940 0.89750 -0.59200
H 	H 	0.04110 0.98220 0.89840 0.27400
H 	H 	0.08130 0.03530 0.92690 0.24800
O 	O 	0.54100 0.44380 0.78770 -0.53500
O 	O 	0.60230 0.49770 0.72900 -0.53100
O 	O 	0.77810 0.33910 0.95110 -0.44900
O 	O 	0.67380 0.30860 0.93560 -0.38700
O 	O 	0.89890 0.49100 0.82990 -0.53500
O 	O 	0.84580 0.54750 0.76170 -0.47700
O 	O 	0.31810 0.35850 0.82490 -0.24700
C 	C 	0.59660 0.46560 0.77490 0.45600
C 	C 	0.72390 0.34660 0.92560 0.35000
C 	C 	0.84600 0.50990 0.80130 0.44200
C 	C 	0.66000 0.45580 0.80590 -0.20000
C 	C 	0.72050 0.48700 0.79110 0.12100
H 	H 	0.72120 0.51620 0.76080 0.00400
C 	C 	0.77990 0.47590 0.82040 -0.16200
C 	C 	0.77970 0.43140 0.86540 0.08400
H 	H 	0.81970 0.42400 0.88540 0.05500
C 	C 	0.71910 0.39800 0.88040 -0.13000
C 	C 	0.65940 0.41090 0.85050 0.10000
H 	H 	0.61880 0.38930 0.86040 0.01400
C 	C 	0.27940 0.34590 0.78560 0.09100
H 	H 	0.29460 0.34650 0.74800 -0.00200
H 	H 	0.13200 0.31020 0.74810 0.22800
H 	H 	0.18620 0.36100 0.72360 0.08700
H 	H 	0.20390 0.28300 0.72960 0.12500
H 	H 	0.13190 0.31240 0.85300 0.25500
H 	H 	0.20270 0.28080 0.86990 0.16400
H 	H 	0.18920 0.35940 0.87790 0.12200
N 	N 	0.20720 0.33320 0.80030 0.03300
O 	O 	0.43620 0.48060 0.89750 -0.58000
H 	H 	0.45890 0.51780 0.89840 0.26500
H 	H 	0.41870 0.46470 0.92690 0.24600
O 	O 	0.94380 0.04100 0.21230 -0.53600
O 	O 	0.99770 0.10230 0.27100 -0.52800
O 	O 	0.83910 0.27810 0.04890 -0.50700
O 	O 	0.80860 0.17380 0.06440 -0.43200
O 	O 	0.99100 0.39890 0.17010 -0.54100
O 	O 	0.04750 0.34580 0.23830 -0.47900
O 	O 	0.85850 0.81810 0.17510 -0.25400
C 	C 	0.96560 0.09660 0.22510 0.45900
C 	C 	0.84660 0.22390 0.07440 0.36200
C 	C 	0.00990 0.34600 0.19870 0.43600
C 	C 	0.95580 0.16000 0.19410 -0.21600
C 	C 	0.98700 0.22050 0.20890 0.14100
H 	H 	0.01620 0.22120 0.23920 -0.00900
C 	C 	0.97590 0.27990 0.17960 -0.17600
C 	C 	0.93140 0.27970 0.13460 0.09400
H 	H 	0.92400 0.31970 0.11460 0.03800
C 	C 	0.89800 0.21910 0.11960 -0.15700
C 	C 	0.91090 0.15940 0.14950 0.11100
H 	H 	0.88930 0.11880 0.13960 0.00400
C 	C 	0.84590 0.77940 0.21440 0.09400
H 	H 	0.84650 0.79460 0.25200 -0.00300
H 	H 	0.81020 0.63200 0.25190 0.22400
H 	H 	0.86100 0.68620 0.27640 0.08500
H 	H 	0.78300 0.70390 0.27040 0.12300
H 	H 	0.81240 0.63190 0.14700 0.24300
H 	H 	0.78080 0.70270 0.13010 0.14900
H 	H 	0.85940 0.68920 0.12210 0.09900
N 	N 	0.83320 0.70720 0.19970 0.02500
O 	O 	0.98060 0.93620 0.10250 -0.57700
H 	H 	0.01780 0.95890 0.10160 0.25200
H 	H 	0.96470 0.91870 0.07310 0.22100
O 	O 	0.55620 0.45900 0.21230 -0.53900
O 	O 	0.50230 0.39770 0.27100 -0.53200
O 	O 	0.66090 0.22190 0.04890 -0.50700
O 	O 	0.69140 0.32620 0.06440 -0.43300
O 	O 	0.50900 0.10110 0.17010 -0.54600
O 	O 	0.45250 0.15420 0.23830 -0.48000
O 	O 	0.64150 0.68190 0.17510 -0.25400
C 	C 	0.53440 0.40340 0.22510 0.45800
C 	C 	0.65340 0.27610 0.07440 0.36100
C 	C 	0.49010 0.15400 0.19870 0.44300
C 	C 	0.54420 0.34000 0.19410 -0.21200
C 	C 	0.51300 0.27950 0.20890 0.12700
H 	H 	0.48380 0.27880 0.23920 0.00000
C 	C 	0.52410 0.22010 0.17960 -0.17600
C 	C 	0.56860 0.22030 0.13460 0.09300
H 	H 	0.57600 0.18030 0.11460 0.03800
C 	C 	0.60200 0.28090 0.11960 -0.15600
C 	C 	0.58910 0.34060 0.14950 0.10900
H 	H 	0.61070 0.38120 0.13960 0.00400
C 	C 	0.65410 0.72060 0.21440 0.09400
H 	H 	0.65350 0.70540 0.25200 -0.00300
H 	H 	0.68980 0.86800 0.25190 0.22400
H 	H 	0.63900 0.81380 0.27640 0.08500
H 	H 	0.71700 0.79610 0.27040 0.12300
H 	H 	0.68760 0.86810 0.14700 0.24300
H 	H 	0.71920 0.79730 0.13010 0.14900
H 	H 	0.64060 0.81080 0.12210 0.09900
N 	N 	0.66680 0.79280 0.19970 0.02500
O 	O 	0.51940 0.56380 0.10250 -0.56800
H 	H 	0.48220 0.54110 0.10160 0.24400
H 	H 	0.53530 0.58130 0.07310 0.21900
O 	O 	0.04100 0.55620 0.71230 -0.53700
O 	O 	0.10230 0.50230 0.77100 -0.53100
O 	O 	0.27810 0.66090 0.54890 -0.48100
O 	O 	0.17380 0.69140 0.56440 -0.41100
O 	O 	0.39890 0.50900 0.67010 -0.54000
O 	O 	0.34580 0.45250 0.73830 -0.47800
O 	O 	0.81810 0.64150 0.67510 -0.25000
C 	C 	0.09660 0.53440 0.72510 0.45600
C 	C 	0.22390 0.65340 0.57440 0.35600
C 	C 	0.34600 0.49010 0.69870 0.44200
C 	C 	0.16000 0.54420 0.69410 -0.20600
C 	C 	0.22050 0.51300 0.70890 0.12400
H 	H 	0.22120 0.48380 0.73920 0.00300
C 	C 	0.27990 0.52410 0.67960 -0.16900
C 	C 	0.27970 0.56860 0.63460 0.08800
H 	H 	0.31970 0.57600 0.61460 0.04600
C 	C 	0.21910 0.60200 0.61960 -0.14300
C 	C 	0.15940 0.58910 0.64950 0.10400
H 	H 	0.11880 0.61070 0.63960 0.00900
C 	C 	0.77940 0.65410 0.71440 0.09200
H 	H 	0.79460 0.65350 0.75200 -0.00100
H 	H 	0.63200 0.68980 0.75190 0.22800
H 	H 	0.68620 0.63900 0.77640 0.09200
H 	H 	0.70390 0.71700 0.77040 0.12700
H 	H 	0.63190 0.68760 0.64700 0.25000
H 	H 	0.70270 0.71920 0.63010 0.15800
H 	H 	0.68920 0.64060 0.62210 0.11100
N 	N 	0.70720 0.66680 0.69970 0.03100
O 	O 	0.93620 0.51940 0.60250 -0.57500
H 	H 	0.95890 0.48220 0.60160 0.25500
H 	H 	0.91870 0.53530 0.57310 0.23300
O 	O 	0.45900 0.94380 0.71230 -0.53700
O 	O 	0.39770 0.99770 0.77100 -0.52900
O 	O 	0.22190 0.83910 0.54890 -0.48000
O 	O 	0.32620 0.80860 0.56440 -0.41100
O 	O 	0.10110 0.99100 0.67010 -0.53000
O 	O 	0.15420 0.04750 0.73830 -0.47600
O 	O 	0.68190 0.85850 0.67510 -0.25100
C 	C 	0.40340 0.96560 0.72510 0.45800
C 	C 	0.27610 0.84660 0.57440 0.35600
C 	C 	0.15400 0.00990 0.69870 0.42600
C 	C 	0.34000 0.95580 0.69410 -0.20700
C 	C 	0.27950 0.98700 0.70890 0.13100
H 	H 	0.27880 0.01620 0.73920 -0.00300
C 	C 	0.22010 0.97590 0.67960 -0.16100
C 	C 	0.22030 0.93140 0.63460 0.08500
H 	H 	0.18030 0.92400 0.61460 0.04900
C 	C 	0.28090 0.89800 0.61960 -0.14200
C 	C 	0.34060 0.91090 0.64950 0.10400
H 	H 	0.38120 0.88930 0.63960 0.00900
C 	C 	0.72060 0.84590 0.71440 0.09200
H 	H 	0.70540 0.84650 0.75200 -0.00100
H 	H 	0.86800 0.81020 0.75190 0.22600
H 	H 	0.81380 0.86100 0.77640 0.09000
H 	H 	0.79610 0.78300 0.77040 0.12600
H 	H 	0.86810 0.81240 0.64700 0.24900
H 	H 	0.79730 0.78080 0.63010 0.15700
H 	H 	0.81080 0.85940 0.62210 0.11100
N 	N 	0.79280 0.83320 0.69970 0.03000
O 	O 	0.56380 0.98060 0.60250 -0.57200
H 	H 	0.54110 0.01780 0.60160 0.25400
H 	H 	0.58130 0.96470 0.57310 0.23200
O 	O 	0.94380 0.45900 0.71230 -0.53700
O 	O 	0.99770 0.39770 0.77100 -0.52900
O 	O 	0.83910 0.22190 0.54890 -0.48000
O 	O 	0.80860 0.32620 0.56440 -0.41100
O 	O 	0.99100 0.10110 0.67010 -0.53000
O 	O 	0.04750 0.15420 0.73830 -0.47600
O 	O 	0.85850 0.68190 0.67510 -0.25100
C 	C 	0.96560 0.40340 0.72510 0.45800
C 	C 	0.84660 0.27610 0.57440 0.35600
C 	C 	0.00990 0.15400 0.69870 0.42600
C 	C 	0.95580 0.34000 0.69410 -0.20700
C 	C 	0.98700 0.27950 0.70890 0.13100
H 	H 	0.01620 0.27880 0.73920 -0.00300
C 	C 	0.97590 0.22010 0.67960 -0.16100
C 	C 	0.93140 0.22030 0.63460 0.08500
H 	H 	0.92400 0.18030 0.61460 0.04900
C 	C 	0.89800 0.28090 0.61960 -0.14200
C 	C 	0.91090 0.34060 0.64950 0.10400
H 	H 	0.88930 0.38120 0.63960 0.00900
C 	C 	0.84590 0.72060 0.71440 0.09200
H 	H 	0.84650 0.70540 0.75200 -0.00100
H 	H 	0.81020 0.86800 0.75190 0.22600
H 	H 	0.86100 0.81380 0.77640 0.09000
H 	H 	0.78300 0.79610 0.77040 0.12600
H 	H 	0.81240 0.86810 0.64700 0.24900
H 	H 	0.78080 0.79730 0.63010 0.15700
H 	H 	0.85940 0.81080 0.62210 0.11100
N 	N 	0.83320 0.79280 0.69970 0.03000
O 	O 	0.98060 0.56380 0.60250 -0.57200
H 	H 	0.01780 0.54110 0.60160 0.25400
H 	H 	0.96470 0.58130 0.57310 0.23200
O 	O 	0.55620 0.04100 0.71230 -0.53700
O 	O 	0.50230 0.10230 0.77100 -0.53100
O 	O 	0.66090 0.27810 0.54890 -0.48100
O 	O 	0.69140 0.17380 0.56440 -0.41100
O 	O 	0.50900 0.39890 0.67010 -0.54000
O 	O 	0.45250 0.34580 0.73830 -0.47800
O 	O 	0.64150 0.81810 0.67510 -0.25000
C 	C 	0.53440 0.09660 0.72510 0.45600
C 	C 	0.65340 0.22390 0.57440 0.35600
C 	C 	0.49010 0.34600 0.69870 0.44200
C 	C 	0.54420 0.16000 0.69410 -0.20600
C 	C 	0.51300 0.22050 0.70890 0.12400
H 	H 	0.48380 0.22120 0.73920 0.00300
C 	C 	0.52410 0.27990 0.67960 -0.16900
C 	C 	0.56860 0.27970 0.63460 0.08800
H 	H 	0.57600 0.31970 0.61460 0.04600
C 	C 	0.60200 0.21910 0.61960 -0.14300
C 	C 	0.58910 0.15940 0.64950 0.10400
H 	H 	0.61070 0.11880 0.63960 0.00900
C 	C 	0.65410 0.77940 0.71440 0.09200
H 	H 	0.65350 0.79460 0.75200 -0.00100
H 	H 	0.68980 0.63200 0.75190 0.22800
H 	H 	0.63900 0.68620 0.77640 0.09200
H 	H 	0.71700 0.70390 0.77040 0.12700
H 	H 	0.68760 0.63190 0.64700 0.25000
H 	H 	0.71920 0.70270 0.63010 0.15800
H 	H 	0.64060 0.68920 0.62210 0.11100
N 	N 	0.66680 0.70720 0.69970 0.03100
O 	O 	0.51940 0.93620 0.60250 -0.57500
H 	H 	0.48220 0.95890 0.60160 0.25500
H 	H 	0.53530 0.91870 0.57310 0.23300
O 	O 	0.04100 0.94380 0.21230 -0.53600
O 	O 	0.10230 0.99770 0.27100 -0.52800
O 	O 	0.27810 0.83910 0.04890 -0.50700
O 	O 	0.17380 0.80860 0.06440 -0.43200
O 	O 	0.39890 0.99100 0.17010 -0.54100
O 	O 	0.34580 0.04750 0.23830 -0.47900
O 	O 	0.81810 0.85850 0.17510 -0.25400
C 	C 	0.09660 0.96560 0.22510 0.45900
C 	C 	0.22390 0.84660 0.07440 0.36200
C 	C 	0.34600 0.00990 0.19870 0.43600
C 	C 	0.16000 0.95580 0.19410 -0.21600
C 	C 	0.22050 0.98700 0.20890 0.14100
H 	H 	0.22120 0.01620 0.23920 -0.00900
C 	C 	0.27990 0.97590 0.17960 -0.17600
C 	C 	0.27970 0.93140 0.13460 0.09400
H 	H 	0.31970 0.92400 0.11460 0.03800
C 	C 	0.21910 0.89800 0.11960 -0.15700
C 	C 	0.15940 0.91090 0.14950 0.11100
H 	H 	0.11880 0.88930 0.13960 0.00400
C 	C 	0.77940 0.84590 0.21440 0.09400
H 	H 	0.79460 0.84650 0.25200 -0.00300
H 	H 	0.63200 0.81020 0.25190 0.22400
H 	H 	0.68620 0.86100 0.27640 0.08500
H 	H 	0.70390 0.78300 0.27040 0.12300
H 	H 	0.63190 0.81240 0.14700 0.24300
H 	H 	0.70270 0.78080 0.13010 0.14900
H 	H 	0.68920 0.85940 0.12210 0.09900
N 	N 	0.70720 0.83320 0.19970 0.02500
O 	O 	0.93620 0.98060 0.10250 -0.57700
H 	H 	0.95890 0.01780 0.10160 0.25200
H 	H 	0.91870 0.96470 0.07310 0.22100
O 	O 	0.45900 0.55620 0.21230 -0.53900
O 	O 	0.39770 0.50230 0.27100 -0.53200
O 	O 	0.22190 0.66090 0.04890 -0.50700
O 	O 	0.32620 0.69140 0.06440 -0.43300
O 	O 	0.10110 0.50900 0.17010 -0.54600
O 	O 	0.15420 0.45250 0.23830 -0.48000
O 	O 	0.68190 0.64150 0.17510 -0.25400
C 	C 	0.40340 0.53440 0.22510 0.45800
C 	C 	0.27610 0.65340 0.07440 0.36100
C 	C 	0.15400 0.49010 0.19870 0.44300
C 	C 	0.34000 0.54420 0.19410 -0.21200
C 	C 	0.27950 0.51300 0.20890 0.12700
H 	H 	0.27880 0.48380 0.23920 0.00000
C 	C 	0.22010 0.52410 0.17960 -0.17600
C 	C 	0.22030 0.56860 0.13460 0.09300
H 	H 	0.18030 0.57600 0.11460 0.03800
C 	C 	0.28090 0.60200 0.11960 -0.15600
C 	C 	0.34060 0.58910 0.14950 0.10900
H 	H 	0.38120 0.61070 0.13960 0.00400
C 	C 	0.72060 0.65410 0.21440 0.09400
H 	H 	0.70540 0.65350 0.25200 -0.00300
H 	H 	0.86800 0.68980 0.25190 0.22400
H 	H 	0.81380 0.63900 0.27640 0.08500
H 	H 	0.79610 0.71700 0.27040 0.12300
H 	H 	0.86810 0.68760 0.14700 0.24300
H 	H 	0.79730 0.71920 0.13010 0.14900
H 	H 	0.81080 0.64060 0.12210 0.09900
N 	N 	0.79280 0.66680 0.19970 0.02500
O 	O 	0.56380 0.51940 0.10250 -0.56800
H 	H 	0.54110 0.48220 0.10160 0.24400
H 	H 	0.58130 0.53530 0.07310 0.21900
O 	O 	0.05620 0.95900 0.78770 -0.53200
O 	O 	0.00230 0.89770 0.72900 -0.52800
O 	O 	0.16090 0.72190 0.95110 -0.44900
O 	O 	0.19140 0.82620 0.93560 -0.38600
O 	O 	0.00900 0.60110 0.82990 -0.53400
O 	O 	0.95250 0.65420 0.76170 -0.47700
O 	O 	0.14150 0.18190 0.82490 -0.24800
C 	C 	0.03440 0.90340 0.77490 0.45600
C 	C 	0.15340 0.77610 0.92560 0.35000
C 	C 	0.99010 0.65400 0.80130 0.44000
C 	C 	0.04420 0.84000 0.80590 -0.20200
C 	C 	0.01300 0.77950 0.79110 0.12900
H 	H 	0.98380 0.77880 0.76080 -0.00200
C 	C 	0.02410 0.72010 0.82040 -0.16300
C 	C 	0.06860 0.72030 0.86540 0.08500
H 	H 	0.07600 0.68030 0.88540 0.05500
C 	C 	0.10200 0.78090 0.88040 -0.13100
C 	C 	0.08910 0.84060 0.85050 0.10100
H 	H 	0.11070 0.88120 0.86040 0.01500
C 	C 	0.15410 0.22060 0.78560 0.09100
H 	H 	0.15350 0.20540 0.74800 -0.00300
H 	H 	0.18980 0.36800 0.74810 0.22800
H 	H 	0.13900 0.31380 0.72360 0.08700
H 	H 	0.21700 0.29610 0.72960 0.12500
H 	H 	0.18760 0.36810 0.85300 0.25600
H 	H 	0.21920 0.29730 0.86990 0.16500
H 	H 	0.14060 0.31080 0.87790 0.12200
N 	N 	0.16680 0.29280 0.80030 0.03300
O 	O 	0.01940 0.06380 0.89750 -0.59200
H 	H 	0.98220 0.04110 0.89840 0.27400
H 	H 	0.03530 0.08130 0.92690 0.24800
O 	O 	0.44380 0.54100 0.78770 -0.53500
O 	O 	0.49770 0.60230 0.72900 -0.53100
O 	O 	0.33910 0.77810 0.95110 -0.44900
O 	O 	0.30860 0.67380 0.93560 -0.38700
O 	O 	0.49100 0.89890 0.82990 -0.53500
O 	O 	0.54750 0.84580 0.76170 -0.47700
O 	O 	0.35850 0.31810 0.82490 -0.24700
C 	C 	0.46560 0.59660 0.77490 0.45600
C 	C 	0.34660 0.72390 0.92560 0.35000
C 	C 	0.50990 0.84600 0.80130 0.44200
C 	C 	0.45580 0.66000 0.80590 -0.20000
C 	C 	0.48700 0.72050 0.79110 0.12100
H 	H 	0.51620 0.72120 0.76080 0.00400
C 	C 	0.47590 0.77990 0.82040 -0.16200
C 	C 	0.43140 0.77970 0.86540 0.08400
H 	H 	0.42400 0.81970 0.88540 0.05500
C 	C 	0.39800 0.71910 0.88040 -0.13000
C 	C 	0.41090 0.65940 0.85050 0.10000
H 	H 	0.38930 0.61880 0.86040 0.01400
C 	C 	0.34590 0.27940 0.78560 0.09100
H 	H 	0.34650 0.29460 0.74800 -0.00200
H 	H 	0.31020 0.13200 0.74810 0.22800
H 	H 	0.36100 0.18620 0.72360 0.08700
H 	H 	0.28300 0.20390 0.72960 0.12500
H 	H 	0.31240 0.13190 0.85300 0.25500
H 	H 	0.28080 0.20270 0.86990 0.16400
H 	H 	0.35940 0.18920 0.87790 0.12200
N 	N 	0.33320 0.20720 0.80030 0.03300
O 	O 	0.48060 0.43620 0.89750 -0.58000
H 	H 	0.51780 0.45890 0.89840 0.26500
H 	H 	0.46470 0.41870 0.92690 0.24600
O 	O 	0.95900 0.44380 0.28770 -0.53500
O 	O 	0.89770 0.49770 0.22900 -0.53200
O 	O 	0.72190 0.33910 0.45110 -0.48100
O 	O 	0.82620 0.30860 0.43560 -0.41100
O 	O 	0.60110 0.49100 0.32990 -0.54000
O 	O 	0.65420 0.54750 0.26170 -0.47900
O 	O 	0.18190 0.35850 0.32490 -0.25100
C 	C 	0.90340 0.46560 0.27490 0.45700
C 	C 	0.77610 0.34660 0.42560 0.35600
C 	C 	0.65400 0.50990 0.30130 0.44200
C 	C 	0.84000 0.45580 0.30590 -0.20600
C 	C 	0.77950 0.48700 0.29110 0.12400
H 	H 	0.77880 0.51620 0.26080 0.00100
C 	C 	0.72010 0.47590 0.32040 -0.16900
C 	C 	0.72030 0.43140 0.36540 0.08900
H 	H 	0.68030 0.42400 0.38540 0.04600
C 	C 	0.78090 0.39800 0.38040 -0.14300
C 	C 	0.84060 0.41090 0.35050 0.10400
H 	H 	0.88120 0.38930 0.36040 0.01000
C 	C 	0.22060 0.34590 0.28560 0.09400
H 	H 	0.20540 0.34650 0.24800 -0.00500
H 	H 	0.36800 0.31020 0.24810 0.22500
H 	H 	0.31380 0.36100 0.22360 0.08100
H 	H 	0.29610 0.28300 0.22960 0.12100
H 	H 	0.36810 0.31240 0.35300 0.24900
H 	H 	0.29730 0.28080 0.36990 0.15700
H 	H 	0.31080 0.35940 0.37790 0.11000
N 	N 	0.29280 0.33320 0.30030 0.02800
O 	O 	0.06380 0.48060 0.39750 -0.57200
H 	H 	0.04110 0.51780 0.39840 0.25300
H 	H 	0.08130 0.46470 0.42690 0.23100
O 	O 	0.54100 0.05620 0.28770 -0.53700
O 	O 	0.60230 0.00230 0.22900 -0.53200
O 	O 	0.77810 0.16090 0.45110 -0.48000
O 	O 	0.67380 0.19140 0.43560 -0.41100
O 	O 	0.89890 0.00900 0.32990 -0.53200
O 	O 	0.84580 0.95250 0.26170 -0.47700
O 	O 	0.31810 0.14150 0.32490 -0.25100
C 	C 	0.59660 0.03440 0.27490 0.45700
C 	C 	0.72390 0.15340 0.42560 0.35600
C 	C 	0.84600 0.99010 0.30130 0.43100
C 	C 	0.66000 0.04420 0.30590 -0.20700
C 	C 	0.72050 0.01300 0.29110 0.12700
H 	H 	0.72120 0.98380 0.26080 -0.00100
C 	C 	0.77990 0.02410 0.32040 -0.16300
C 	C 	0.77970 0.06860 0.36540 0.08600
H 	H 	0.81970 0.07600 0.38540 0.04900
C 	C 	0.71910 0.10200 0.38040 -0.14200
C 	C 	0.65940 0.08910 0.35050 0.10400
H 	H 	0.61880 0.11070 0.36040 0.00900
C 	C 	0.27940 0.15410 0.28560 0.09400
H 	H 	0.29460 0.15350 0.24800 -0.00500
H 	H 	0.13200 0.18980 0.24810 0.22300
H 	H 	0.18620 0.13900 0.22360 0.08000
H 	H 	0.20390 0.21700 0.22960 0.12000
H 	H 	0.13190 0.18760 0.35300 0.24700
H 	H 	0.20270 0.21920 0.36990 0.15500
H 	H 	0.18920 0.14060 0.37790 0.10900
N 	N 	0.20720 0.16680 0.30030 0.02600
O 	O 	0.43620 0.01940 0.39750 -0.57900
H 	H 	0.45890 0.98220 0.39840 0.25800
H 	H 	0.41870 0.03530 0.42690 0.23400
In	In	0.99606 0.50394 0.18996 2.00200
Ca	Ca	0.07921 0.42079 0.31218 1.51800
Cl	Cl	0.95749 0.54251 0.10279 -0.60100
In	In	0.50394 0.99606 0.18996 2.00200
Ca	Ca	0.42079 0.07921 0.31218 1.51800
Cl	Cl	0.54251 0.95749 0.10279 -0.60100
In	In	0.99606 0.99606 0.68996 1.99900
Ca	Ca	0.07921 0.07921 0.81218 1.51700
Cl	Cl	0.95749 0.95749 0.60279 -0.58300
In	In	0.50394 0.50394 0.68996 2.00100
Ca	Ca	0.42079 0.42079 0.81218 1.51800
Cl	Cl	0.54251 0.54251 0.60279 -0.57800
In	In	0.00394 0.00394 0.31004 1.99800
Ca	Ca	0.92079 0.92079 0.18782 1.51700
Cl	Cl	0.04251 0.04251 0.39721 -0.58500
In	In	0.49606 0.49606 0.31004 2.00200
Ca	Ca	0.57921 0.57921 0.18782 1.51700
Cl	Cl	0.45749 0.45749 0.39721 -0.57800
In	In	0.00394 0.49606 0.81004 2.00100
Ca	Ca	0.92079 0.57921 0.68782 1.51800
Cl	Cl	0.04251 0.45749 0.89721 -0.55500
In	In	0.49606 0.00394 0.81004 2.00100
Ca	Ca	0.57921 0.92079 0.68782 1.51800
Cl	Cl	0.45749 0.04251 0.89721 -0.55500
In	In	0.25000 0.75000 0.50000 1.99700
In	In	0.75000 0.25000 -0.00000 1.97900
In	In	0.75000 0.25000 0.50000 1.99700
In	In	0.25000 0.75000 -0.00000 1.97900
C 	C 	0.17900 0.17900 0.24590 -0.76800
C 	C 	0.17960 0.17960 0.35480 -0.88100
C 	C 	0.32100 0.32100 0.24590 -0.77500
C 	C 	0.32040 0.32040 0.35480 -0.88700
C 	C 	0.32100 0.17900 0.74590 -0.79700
C 	C 	0.32040 0.17960 0.85480 -0.92600
C 	C 	0.17900 0.32100 0.74590 -0.79700
C 	C 	0.17960 0.32040 0.85480 -0.92600
C 	C 	0.82100 0.67900 0.25410 -0.77600
C 	C 	0.82040 0.67960 0.14520 -0.85400
C 	C 	0.67900 0.82100 0.25410 -0.77600
C 	C 	0.67960 0.82040 0.14520 -0.85400
C 	C 	0.67900 0.67900 0.75410 -0.80000
C 	C 	0.67960 0.67960 0.64520 -0.89600
C 	C 	0.82100 0.82100 0.75410 -0.79500
C 	C 	0.82040 0.82040 0.64520 -0.89200
