data_crystal

_cell_length_a 8.38630
_cell_length_b 9.52190
_cell_length_c 27.08760
_cell_angle_alpha 83.10510
_cell_angle_beta  81.09480
_cell_angle_gamma 63.87250

_symmetry_space_group_name_	'P 1'
_symmetry_space_group_name_H-M	'P 1'

loop_
_symmetry_equiv_pos_as_xyz
  x,y,z

loop_
_atom_site_label
_atom_site_type_symbol
_atom_site_fract_x
_atom_site_fract_y
_atom_site_fract_z
_atom_site_charge
Cu	Cu	0.45276 0.71066 0.41822 0.91800
Cu	Cu	0.10587 0.13551 0.22443 0.89800
Cu	Cu	0.58164 0.78934 0.08178 0.91800
Cu	Cu	0.46581 0.36449 0.27557 0.90100
Cu	Cu	0.54724 0.28934 0.58178 0.91800
Cu	Cu	0.89413 0.86449 0.77557 0.89800
Cu	Cu	0.41836 0.21066 0.91822 0.91800
Cu	Cu	0.53419 0.63551 0.72443 0.90100
Cu	Cu	0.76199 0.75000 0.25000 0.87200
Cu	Cu	0.23801 0.25000 0.75000 0.87200
H 	H 	0.96840 0.40460 0.38220 0.07700
H 	H 	0.74320 0.44150 0.44230 0.04400
H 	H 	0.97950 0.21500 0.45080 0.08100
H 	H 	0.05710 0.98200 0.42240 0.06900
H 	H 	0.15260 0.13950 0.37290 0.06600
H 	H 	0.03620 0.30270 0.30850 0.03500
H 	H 	0.79920 0.93480 0.45000 0.30900
H 	H 	0.75520 0.09540 0.11780 0.07400
H 	H 	0.62700 0.05850 0.05770 0.04600
H 	H 	0.64530 0.28500 0.04920 0.07700
H 	H 	0.46150 0.51800 0.07760 0.07500
H 	H 	0.66500 0.36050 0.12710 0.06000
H 	H 	0.64740 0.19730 0.19150 0.04600
H 	H 	0.18400 0.56520 0.05000 0.31300
H 	H 	0.03160 0.59540 0.61780 0.07700
H 	H 	0.25680 0.55850 0.55770 0.04400
H 	H 	0.02050 0.78500 0.54920 0.08100
H 	H 	0.94290 0.01800 0.57760 0.06900
H 	H 	0.84740 0.86050 0.62710 0.06600
H 	H 	0.96380 0.69730 0.69150 0.03500
H 	H 	0.20080 0.06520 0.55000 0.30900
H 	H 	0.24480 0.90460 0.88220 0.07400
H 	H 	0.37300 0.94150 0.94230 0.04600
H 	H 	0.35470 0.71500 0.95080 0.07700
H 	H 	0.53850 0.48200 0.92240 0.07500
H 	H 	0.33500 0.63950 0.87290 0.06000
H 	H 	0.35260 0.80270 0.80850 0.04600
H 	H 	0.81600 0.43480 0.95000 0.31300
C 	C 	0.86560 0.40191 0.37009 -0.13300
C 	C 	0.76014 0.36539 0.41833 -0.07600
C 	C 	0.87830 0.20283 0.44137 -0.09800
C 	C 	0.96500 0.06868 0.40492 -0.09200
C 	C 	0.06592 0.11713 0.35883 -0.12900
C 	C 	0.95110 0.27432 0.33148 -0.07000
C 	C 	0.77411 0.56246 0.34412 0.39700
C 	C 	0.57389 0.38007 0.41355 0.31500
C 	C 	0.78698 0.16445 0.49079 0.33500
C 	C 	0.85217 0.99962 0.38804 0.37800
C 	C 	0.18186 0.97689 0.32719 0.35200
C 	C 	0.81473 0.27787 0.29907 0.35800
C 	C 	0.63760 0.09809 0.12991 -0.12200
C 	C 	0.54386 0.13461 0.08167 -0.08300
C 	C 	0.52250 0.29717 0.05863 -0.08800
C 	C 	0.43860 0.43132 0.09508 -0.11700
C 	C 	0.54188 0.38287 0.14117 -0.10000
C 	C 	0.55690 0.22568 0.16852 -0.09500
C 	C 	0.68069 0.93754 0.15588 0.39300
C 	C 	0.36751 0.11993 0.08645 0.31500
C 	C 	0.44222 0.33555 0.00921 0.33100
C 	C 	0.23983 0.50038 0.11196 0.39600
C 	C 	0.48594 0.52311 0.17281 0.34100
C 	C 	0.39167 0.22213 0.20093 0.36500
C 	C 	0.13440 0.59809 0.62991 -0.13300
C 	C 	0.23986 0.63461 0.58167 -0.07600
C 	C 	0.12170 0.79717 0.55863 -0.09800
C 	C 	0.03500 0.93132 0.59508 -0.09200
C 	C 	0.93408 0.88287 0.64117 -0.12900
C 	C 	0.04890 0.72568 0.66852 -0.07000
C 	C 	0.22589 0.43754 0.65588 0.39700
C 	C 	0.42611 0.61993 0.58645 0.31500
C 	C 	0.21302 0.83555 0.50921 0.33500
C 	C 	0.14783 0.00038 0.61196 0.37800
C 	C 	0.81814 0.02311 0.67281 0.35200
C 	C 	0.18527 0.72213 0.70093 0.35800
C 	C 	0.36240 0.90191 0.87009 -0.12200
C 	C 	0.45614 0.86539 0.91833 -0.08300
C 	C 	0.47750 0.70283 0.94137 -0.08800
C 	C 	0.56140 0.56868 0.90492 -0.11700
C 	C 	0.45812 0.61713 0.85883 -0.10000
C 	C 	0.44310 0.77432 0.83148 -0.09500
C 	C 	0.31931 0.06246 0.84412 0.39300
C 	C 	0.63249 0.88007 0.91355 0.31500
C 	C 	0.55778 0.66445 0.99079 0.33100
C 	C 	0.76017 0.49962 0.88804 0.39600
C 	C 	0.51406 0.47689 0.82719 0.34100
C 	C 	0.60833 0.77787 0.79907 0.36500
O 	O 	0.83961 0.57798 0.30060 -0.44200
O 	O 	0.65015 0.67573 0.36697 -0.42900
O 	O 	0.44500 0.51679 0.41061 -0.36700
O 	O 	0.55089 0.25913 0.41589 -0.24000
O 	O 	0.71426 0.27259 0.52089 -0.38600
O 	O 	0.79344 0.02948 0.50084 -0.30500
O 	O 	0.78845 0.91878 0.42192 -0.47300
O 	O 	0.83686 0.00157 0.34431 -0.27200
O 	O 	0.25111 0.84635 0.34983 -0.32400
O 	O 	0.21844 0.99683 0.28009 -0.40000
O 	O 	0.86655 0.20729 0.25901 -0.43700
O 	O 	0.65262 0.36030 0.31246 -0.39200
O 	O 	0.71819 0.92202 0.19940 -0.44300
O 	O 	0.69285 0.82427 0.13303 -0.42700
O 	O 	0.37240 0.98321 0.08939 -0.36600
O 	O 	0.22591 0.24087 0.08411 -0.24200
O 	O 	0.50774 0.22741 0.97911 -0.38500
O 	O 	0.32376 0.47052 0.99916 -0.30500
O 	O 	0.12915 0.58122 0.07808 -0.47900
O 	O 	0.18274 0.49843 0.15569 -0.28200
O 	O 	0.44729 0.65365 0.15017 -0.32100
O 	O 	0.49536 0.50317 0.21991 -0.39800
O 	O 	0.33285 0.29271 0.24099 -0.44200
O 	O 	0.32538 0.13970 0.18754 -0.39500
O 	O 	0.16039 0.42202 0.69940 -0.44200
O 	O 	0.34985 0.32427 0.63303 -0.42900
O 	O 	0.55500 0.48321 0.58939 -0.36700
O 	O 	0.44911 0.74087 0.58411 -0.24000
O 	O 	0.28574 0.72741 0.47911 -0.38600
O 	O 	0.20656 0.97052 0.49916 -0.30500
O 	O 	0.21155 0.08122 0.57808 -0.47300
O 	O 	0.16314 0.99843 0.65569 -0.27200
O 	O 	0.74889 0.15365 0.65017 -0.32400
O 	O 	0.78156 0.00317 0.71991 -0.40000
O 	O 	0.13345 0.79271 0.74099 -0.43700
O 	O 	0.34738 0.63970 0.68754 -0.39200
O 	O 	0.28181 0.07798 0.80060 -0.44300
O 	O 	0.30715 0.17573 0.86697 -0.42700
O 	O 	0.62760 0.01679 0.91061 -0.36600
O 	O 	0.77409 0.75913 0.91589 -0.24200
O 	O 	0.49226 0.77259 0.02089 -0.38500
O 	O 	0.67624 0.52948 0.00084 -0.30500
O 	O 	0.87085 0.41878 0.92192 -0.47900
O 	O 	0.81726 0.50157 0.84431 -0.28200
O 	O 	0.55271 0.34635 0.84983 -0.32100
O 	O 	0.50464 0.49683 0.78009 -0.39800
O 	O 	0.66715 0.70729 0.75901 -0.44200
O 	O 	0.67462 0.86030 0.81246 -0.39500
