data_crystal

_cell_length_a 11.77490
_cell_length_b 13.78690
_cell_length_c 16.25900
_cell_angle_alpha 90.00000
_cell_angle_beta  90.00000
_cell_angle_gamma 112.61100

_symmetry_space_group_name_	'P 1'
_symmetry_space_group_name_H-M	'P 1'

loop_
_symmetry_equiv_pos_as_xyz
  x,y,z

loop_
_atom_site_label
_atom_site_type_symbol
_atom_site_fract_x
_atom_site_fract_y
_atom_site_fract_z
_atom_site_charge
Co	Co	0.26231 0.71993 0.54818 1.09300
Co	Co	0.60077 0.59897 0.45411 1.15000
Co	Co	0.55175 0.62692 0.13014 1.13700
Co	Co	0.23769 0.78007 0.04818 1.09400
Co	Co	0.89923 0.90103 0.95411 1.14100
Co	Co	0.94825 0.87308 0.63014 1.13200
Co	Co	0.73769 0.28007 0.45182 1.09200
Co	Co	0.39923 0.40103 0.54589 1.14900
Co	Co	0.44825 0.37308 0.86986 1.13600
Co	Co	0.76231 0.21993 0.95182 1.09300
Co	Co	0.10077 0.09897 0.04589 1.14100
Co	Co	0.05175 0.12692 0.36986 1.13200
H 	H 	0.52420 0.58500 0.60340 0.42200
H 	H 	0.42170 0.58130 0.55170 0.38600
H 	H 	0.10160 0.54050 0.42090 0.07800
H 	H 	0.16420 0.60650 0.29470 0.03300
H 	H 	0.33280 0.63010 0.22400 0.05100
H 	H 	0.17420 0.48050 0.20080 0.03700
H 	H 	0.11570 0.32120 0.25530 0.06700
H 	H 	0.04730 0.43950 0.30760 0.05400
H 	H 	0.97580 0.91500 0.10340 0.40900
H 	H 	0.07830 0.91870 0.05170 0.38100
H 	H 	0.39840 0.95950 0.92090 0.07600
H 	H 	0.33580 0.89350 0.79470 0.03200
H 	H 	0.16720 0.86990 0.72400 0.05300
H 	H 	0.32580 0.01950 0.70080 0.03600
H 	H 	0.38430 0.17880 0.75530 0.07000
H 	H 	0.45270 0.06050 0.80760 0.05400
H 	H 	0.47580 0.41500 0.39660 0.42200
H 	H 	0.57830 0.41870 0.44830 0.38600
H 	H 	0.89840 0.45950 0.57910 0.07800
H 	H 	0.83580 0.39350 0.70530 0.03300
H 	H 	0.66720 0.36990 0.77600 0.05100
H 	H 	0.82580 0.51950 0.79920 0.03700
H 	H 	0.88430 0.67880 0.74470 0.06700
H 	H 	0.95270 0.56050 0.69240 0.05400
H 	H 	0.02420 0.08500 0.89660 0.40900
H 	H 	0.92170 0.08130 0.94830 0.38100
H 	H 	0.60160 0.04050 0.07910 0.07600
H 	H 	0.66420 0.10650 0.20530 0.03200
H 	H 	0.83280 0.13010 0.27600 0.05300
H 	H 	0.67420 0.98050 0.29920 0.03600
H 	H 	0.61570 0.82120 0.24470 0.07000
H 	H 	0.54730 0.93950 0.19240 0.05400
C 	C 	0.24500 0.50780 0.46663 0.40300
C 	C 	0.16610 0.51950 0.39549 -0.13100
C 	C 	0.23300 0.60550 0.33029 -0.06400
C 	C 	0.31610 0.57790 0.26975 -0.12700
C 	C 	0.24290 0.46910 0.22989 -0.07600
C 	C 	0.17510 0.37850 0.28950 -0.11700
C 	C 	0.09640 0.41650 0.34760 -0.08300
C 	C 	0.29430 0.71970 0.35960 0.31700
C 	C 	0.44130 0.59540 0.30611 0.38900
C 	C 	0.30710 0.43510 0.16087 0.33600
C 	C 	0.26340 0.33320 0.32692 0.37700
C 	C 	0.99570 0.33190 0.39620 0.35300
C 	C 	0.25500 0.99220 0.96663 0.39600
C 	C 	0.33390 0.98050 0.89549 -0.13100
C 	C 	0.26700 0.89450 0.83029 -0.06300
C 	C 	0.18390 0.92210 0.76975 -0.13000
C 	C 	0.25710 0.03090 0.72989 -0.07400
C 	C 	0.32490 0.12150 0.78950 -0.12000
C 	C 	0.40360 0.08350 0.84760 -0.07800
C 	C 	0.20570 0.78030 0.85960 0.31600
C 	C 	0.05870 0.90460 0.80611 0.40200
C 	C 	0.19290 0.06490 0.66087 0.32600
C 	C 	0.23660 0.16680 0.82692 0.37800
C 	C 	0.50430 0.16810 0.89620 0.34900
C 	C 	0.75500 0.49220 0.53337 0.40300
C 	C 	0.83390 0.48050 0.60451 -0.13100
C 	C 	0.76700 0.39450 0.66971 -0.06400
C 	C 	0.68390 0.42210 0.73025 -0.12700
C 	C 	0.75710 0.53090 0.77011 -0.07600
C 	C 	0.82490 0.62150 0.71050 -0.11700
C 	C 	0.90360 0.58350 0.65240 -0.08300
C 	C 	0.70570 0.28030 0.64040 0.31700
C 	C 	0.55870 0.40460 0.69389 0.38900
C 	C 	0.69290 0.56490 0.83913 0.33600
C 	C 	0.73660 0.66680 0.67308 0.37700
C 	C 	0.00430 0.66810 0.60380 0.35300
C 	C 	0.74500 0.00780 0.03337 0.39600
C 	C 	0.66610 0.01950 0.10451 -0.13100
C 	C 	0.73300 0.10550 0.16971 -0.06300
C 	C 	0.81610 0.07790 0.23025 -0.13000
C 	C 	0.74290 0.96910 0.27011 -0.07400
C 	C 	0.67510 0.87850 0.21050 -0.12000
C 	C 	0.59640 0.91650 0.15240 -0.07800
C 	C 	0.79430 0.21970 0.14040 0.31600
C 	C 	0.94130 0.09540 0.19389 0.40200
C 	C 	0.80710 0.93510 0.33913 0.32600
C 	C 	0.76340 0.83320 0.17308 0.37800
C 	C 	0.49570 0.83190 0.10380 0.34900
O 	O 	0.26711 0.42592 0.47167 -0.44100
O 	O 	0.28033 0.57941 0.52166 -0.51300
O 	O 	0.25745 0.74665 0.42621 -0.44800
O 	O 	0.37059 0.78389 0.31230 -0.29500
O 	O 	0.45659 0.60577 0.38273 -0.43300
O 	O 	0.52890 0.60540 0.25650 -0.45400
O 	O 	0.38257 0.50377 0.11432 -0.45800
O 	O 	0.27255 0.33895 0.14736 -0.32200
O 	O 	0.37698 0.38602 0.31697 -0.33700
O 	O 	0.22298 0.24467 0.36151 -0.47100
O 	O 	0.97325 0.23615 0.38567 -0.46500
O 	O 	0.92747 0.36467 0.43876 -0.42900
O 	O 	0.48295 0.56421 0.55934 -1.02000
O 	O 	0.23289 0.07408 0.97167 -0.43800
O 	O 	0.21967 0.92059 0.02166 -0.50400
O 	O 	0.24255 0.75335 0.92621 -0.44900
O 	O 	0.12941 0.71611 0.81230 -0.29400
O 	O 	0.04341 0.89423 0.88273 -0.43300
O 	O 	0.97110 0.89460 0.75650 -0.46600
O 	O 	0.11743 0.99623 0.61432 -0.44800
O 	O 	0.22745 0.16105 0.64736 -0.31900
O 	O 	0.12302 0.11398 0.81697 -0.33700
O 	O 	0.27702 0.25533 0.86151 -0.46900
O 	O 	0.52675 0.26385 0.88567 -0.46700
O 	O 	0.57253 0.13533 0.93876 -0.42600
O 	O 	0.01705 0.93579 0.05934 -0.99600
O 	O 	0.73289 0.57408 0.52833 -0.44100
O 	O 	0.71967 0.42059 0.47834 -0.51300
O 	O 	0.74255 0.25335 0.57379 -0.44800
O 	O 	0.62941 0.21611 0.68770 -0.29500
O 	O 	0.54341 0.39423 0.61727 -0.43300
O 	O 	0.47110 0.39460 0.74350 -0.45400
O 	O 	0.61743 0.49623 0.88568 -0.45800
O 	O 	0.72745 0.66105 0.85264 -0.32200
O 	O 	0.62302 0.61398 0.68303 -0.33700
O 	O 	0.77702 0.75533 0.63849 -0.47100
O 	O 	0.02675 0.76385 0.61433 -0.46500
O 	O 	0.07253 0.63533 0.56124 -0.42900
O 	O 	0.51705 0.43579 0.44066 -1.02000
O 	O 	0.76711 0.92592 0.02833 -0.43800
O 	O 	0.78033 0.07941 0.97834 -0.50400
O 	O 	0.75745 0.24665 0.07379 -0.44900
O 	O 	0.87059 0.28389 0.18770 -0.29400
O 	O 	0.95659 0.10577 0.11727 -0.43300
O 	O 	0.02890 0.10540 0.24350 -0.46600
O 	O 	0.88257 0.00377 0.38568 -0.44800
O 	O 	0.77255 0.83895 0.35264 -0.31900
O 	O 	0.87698 0.88602 0.18303 -0.33700
O 	O 	0.72298 0.74467 0.13849 -0.46900
O 	O 	0.47325 0.73615 0.11433 -0.46700
O 	O 	0.42747 0.86467 0.06124 -0.42600
O 	O 	0.98295 0.06421 0.94066 -0.99600
