data_crystal

_cell_length_a 13.90170
_cell_length_b 13.90170
_cell_length_c 13.90170
_cell_angle_alpha 108.01700
_cell_angle_beta  108.01700
_cell_angle_gamma 108.01700

_symmetry_space_group_name_	'P 1'
_symmetry_space_group_name_H-M	'P 1'

loop_
_symmetry_equiv_pos_as_xyz
  x,y,z

loop_
_atom_site_label
_atom_site_type_symbol
_atom_site_fract_x
_atom_site_fract_y
_atom_site_fract_z
_atom_site_charge
Cd	Cd	0.96475 0.47813 0.61612 1.19700
Cd	Cd	0.61612 0.96475 0.47813 1.19700
Cd	Cd	0.47813 0.61612 0.96475 1.19700
Cd	Cd	0.03525 0.52187 0.38388 1.19700
Cd	Cd	0.38388 0.03525 0.52187 1.19700
Cd	Cd	0.52187 0.38388 0.03525 1.19700
H 	H 	0.71140 0.46930 0.41420 0.01100
H 	H 	0.57400 0.14360 0.25960 0.02600
H 	H 	0.72520 0.10820 0.38500 0.08000
H 	H 	0.84280 0.20350 0.41780 0.11100
H 	H 	0.02310 0.45560 0.86920 0.04100
H 	H 	0.00510 0.39880 0.00490 0.03300
H 	H 	0.87700 0.21900 0.95400 0.03000
H 	H 	0.76020 0.09130 0.76680 0.06800
H 	H 	0.41420 0.71140 0.46930 0.01100
H 	H 	0.25960 0.57400 0.14360 0.02600
H 	H 	0.38500 0.72520 0.10820 0.08000
H 	H 	0.41780 0.84280 0.20350 0.11100
H 	H 	0.86920 0.02310 0.45560 0.04100
H 	H 	0.00490 0.00510 0.39880 0.03300
H 	H 	0.95400 0.87700 0.21900 0.03000
H 	H 	0.76680 0.76020 0.09130 0.06800
H 	H 	0.46930 0.41420 0.71140 0.01100
H 	H 	0.14360 0.25960 0.57400 0.02600
H 	H 	0.10820 0.38500 0.72520 0.08000
H 	H 	0.20350 0.41780 0.84280 0.11100
H 	H 	0.45560 0.86920 0.02310 0.04100
H 	H 	0.39880 0.00490 0.00510 0.03300
H 	H 	0.21900 0.95400 0.87700 0.03000
H 	H 	0.09130 0.76680 0.76020 0.06800
H 	H 	0.28860 0.53070 0.58580 0.01100
H 	H 	0.42600 0.85640 0.74040 0.02600
H 	H 	0.27480 0.89180 0.61500 0.08000
H 	H 	0.15720 0.79650 0.58220 0.11100
H 	H 	0.97690 0.54440 0.13080 0.04100
H 	H 	0.99490 0.60120 0.99510 0.03300
H 	H 	0.12300 0.78100 0.04600 0.03000
H 	H 	0.23980 0.90870 0.23320 0.06800
H 	H 	0.58580 0.28860 0.53070 0.01100
H 	H 	0.74040 0.42600 0.85640 0.02600
H 	H 	0.61500 0.27480 0.89180 0.08000
H 	H 	0.58220 0.15720 0.79650 0.11100
H 	H 	0.13080 0.97690 0.54440 0.04100
H 	H 	0.99510 0.99490 0.60120 0.03300
H 	H 	0.04600 0.12300 0.78100 0.03000
H 	H 	0.23320 0.23980 0.90870 0.06800
H 	H 	0.53070 0.58580 0.28860 0.01100
H 	H 	0.85640 0.74040 0.42600 0.02600
H 	H 	0.89180 0.61500 0.27480 0.08000
H 	H 	0.79650 0.58220 0.15720 0.11100
H 	H 	0.54440 0.13080 0.97690 0.04100
H 	H 	0.60120 0.99510 0.99490 0.03300
H 	H 	0.78100 0.04600 0.12300 0.03000
H 	H 	0.90870 0.23320 0.23980 0.06800
C 	C 	0.69930 0.39500 0.39530 0.09200
C 	C 	0.62330 0.21890 0.31050 0.07900
C 	C 	0.77650 0.18820 0.43130 -0.22000
C 	C 	0.81140 0.21540 0.55370 0.15100
C 	C 	0.90070 0.30570 0.73500 0.03900
C 	C 	0.97070 0.38310 0.84860 -0.09400
C 	C 	0.95970 0.34860 0.92860 -0.03000
C 	C 	0.88190 0.24010 0.89770 -0.01000
C 	C 	0.81250 0.16360 0.78680 -0.11700
C 	C 	0.82280 0.19740 0.70520 0.05700
C 	C 	0.39530 0.69930 0.39500 0.09200
C 	C 	0.31050 0.62330 0.21890 0.07900
C 	C 	0.43130 0.77650 0.18820 -0.22000
C 	C 	0.55370 0.81140 0.21540 0.15100
C 	C 	0.73500 0.90070 0.30570 0.03900
C 	C 	0.84860 0.97070 0.38310 -0.09400
C 	C 	0.92860 0.95970 0.34860 -0.03000
C 	C 	0.89770 0.88190 0.24010 -0.01000
C 	C 	0.78680 0.81250 0.16360 -0.11700
C 	C 	0.70520 0.82280 0.19740 0.05700
C 	C 	0.39500 0.39530 0.69930 0.09200
C 	C 	0.21890 0.31050 0.62330 0.07900
C 	C 	0.18820 0.43130 0.77650 -0.22000
C 	C 	0.21540 0.55370 0.81140 0.15100
C 	C 	0.30570 0.73500 0.90070 0.03900
C 	C 	0.38310 0.84860 0.97070 -0.09400
C 	C 	0.34860 0.92860 0.95970 -0.03000
C 	C 	0.24010 0.89770 0.88190 -0.01000
C 	C 	0.16360 0.78680 0.81250 -0.11700
C 	C 	0.19740 0.70520 0.82280 0.05700
C 	C 	0.30070 0.60500 0.60470 0.09200
C 	C 	0.37670 0.78110 0.68950 0.07900
C 	C 	0.22350 0.81180 0.56870 -0.22000
C 	C 	0.18860 0.78460 0.44630 0.15100
C 	C 	0.09930 0.69430 0.26500 0.03900
C 	C 	0.02930 0.61690 0.15140 -0.09400
C 	C 	0.04030 0.65140 0.07140 -0.03000
C 	C 	0.11810 0.75990 0.10230 -0.01000
C 	C 	0.18750 0.83640 0.21320 -0.11700
C 	C 	0.17720 0.80260 0.29480 0.05700
C 	C 	0.60470 0.30070 0.60500 0.09200
C 	C 	0.68950 0.37670 0.78110 0.07900
C 	C 	0.56870 0.22350 0.81180 -0.22000
C 	C 	0.44630 0.18860 0.78460 0.15100
C 	C 	0.26500 0.09930 0.69430 0.03900
C 	C 	0.15140 0.02930 0.61690 -0.09400
C 	C 	0.07140 0.04030 0.65140 -0.03000
C 	C 	0.10230 0.11810 0.75990 -0.01000
C 	C 	0.21320 0.18750 0.83640 -0.11700
C 	C 	0.29480 0.17720 0.80260 0.05700
C 	C 	0.60500 0.60470 0.30070 0.09200
C 	C 	0.78110 0.68950 0.37670 0.07900
C 	C 	0.81180 0.56870 0.22350 -0.22000
C 	C 	0.78460 0.44630 0.18860 0.15100
C 	C 	0.69430 0.26500 0.09930 0.03900
C 	C 	0.61690 0.15140 0.02930 -0.09400
C 	C 	0.65140 0.07140 0.04030 -0.03000
C 	C 	0.75990 0.10230 0.11810 -0.01000
C 	C 	0.83640 0.21320 0.18750 -0.11700
C 	C 	0.80260 0.29480 0.17720 0.05700
N 	N 	0.60560 0.30670 0.30640 -0.14300
N 	N 	0.77280 0.36900 0.45370 -0.18200
N 	N 	0.72100 0.25400 0.39730 -0.06800
N 	N 	0.89290 0.31680 0.63720 -0.24800
N 	N 	0.76510 0.13950 0.58680 -0.26000
N 	N 	0.30640 0.60560 0.30670 -0.14300
N 	N 	0.45370 0.77280 0.36900 -0.18200
N 	N 	0.39730 0.72100 0.25400 -0.06800
N 	N 	0.63720 0.89290 0.31680 -0.24800
N 	N 	0.58680 0.76510 0.13950 -0.26000
N 	N 	0.30670 0.30640 0.60560 -0.14300
N 	N 	0.36900 0.45370 0.77280 -0.18200
N 	N 	0.25400 0.39730 0.72100 -0.06800
N 	N 	0.31680 0.63720 0.89290 -0.24800
N 	N 	0.13950 0.58680 0.76510 -0.26000
N 	N 	0.39440 0.69330 0.69360 -0.14300
N 	N 	0.22720 0.63100 0.54630 -0.18200
N 	N 	0.27900 0.74600 0.60270 -0.06800
N 	N 	0.10710 0.68320 0.36280 -0.24800
N 	N 	0.23490 0.86050 0.41320 -0.26000
N 	N 	0.69360 0.39440 0.69330 -0.14300
N 	N 	0.54630 0.22720 0.63100 -0.18200
N 	N 	0.60270 0.27900 0.74600 -0.06800
N 	N 	0.36280 0.10710 0.68320 -0.24800
N 	N 	0.41320 0.23490 0.86050 -0.26000
N 	N 	0.69330 0.69360 0.39440 -0.14300
N 	N 	0.63100 0.54630 0.22720 -0.18200
N 	N 	0.74600 0.60270 0.27900 -0.06800
N 	N 	0.68320 0.36280 0.10710 -0.24800
N 	N 	0.86050 0.41320 0.23490 -0.26000
Cl	Cl	0.96415 0.61849 0.52538 -0.64300
Cl	Cl	0.52538 0.96415 0.61849 -0.64300
Cl	Cl	0.61849 0.52538 0.96415 -0.64300
Cl	Cl	0.03585 0.38151 0.47462 -0.64300
Cl	Cl	0.47462 0.03585 0.38151 -0.64300
Cl	Cl	0.38151 0.47462 0.03585 -0.64300
