data_crystal

_cell_length_a 16.20190
_cell_length_b 16.20190
_cell_length_c 6.89470
_cell_angle_alpha 90.00000
_cell_angle_beta  90.00000
_cell_angle_gamma 90.00000

_symmetry_space_group_name_	'P 1'
_symmetry_space_group_name_H-M	'P 1'

loop_
_symmetry_equiv_pos_as_xyz
  x,y,z

loop_
_atom_site_label
_atom_site_type_symbol
_atom_site_fract_x
_atom_site_fract_y
_atom_site_fract_z
_atom_site_charge
O 	O 	0.42740 0.01790 0.56790 -0.53200
O 	O 	0.32990 0.08020 0.73940 -0.45800
N 	N 	0.31900 0.97260 0.28450 -0.21700
C 	C 	0.35320 0.03880 0.59500 0.38400
C 	C 	0.29250 0.01050 0.45140 -0.03900
H 	H 	0.29800 0.92680 0.92710 0.00200
H 	H 	0.29840 0.80340 0.09350 -0.17300
H 	H 	0.36990 0.09190 0.80660 0.24800
H 	H 	0.28790 0.86410 0.00030 -0.40200
H 	H 	0.26980 0.94870 0.90450 -0.15600
C 	C 	0.17650 0.87800 0.91500 0.05500
H 	H 	0.18890 0.85290 0.79240 0.01600
H 	H 	0.13770 0.92180 0.89730 -0.00500
H 	H 	0.15330 0.83710 0.00060 0.04300
O 	O 	0.07260 0.48210 0.56790 -0.52800
O 	O 	0.17010 0.41980 0.73940 -0.46200
N 	N 	0.18100 0.52740 0.28450 -0.21600
C 	C 	0.14680 0.46120 0.59500 0.37800
C 	C 	0.20750 0.48950 0.45140 -0.03900
H 	H 	0.20200 0.57320 0.92710 -0.18600
H 	H 	0.20160 0.69660 0.09350 -0.19600
H 	H 	0.13010 0.40810 0.80660 0.24600
H 	H 	0.21210 0.63590 0.00030 -0.22800
H 	H 	0.23020 0.55130 0.90450 0.24000
C 	C 	0.32350 0.62200 0.91500 0.46000
H 	H 	0.31110 0.64710 0.79240 -0.09300
H 	H 	0.36230 0.57820 0.89730 -0.13800
H 	H 	0.34670 0.66290 0.00060 -0.04300
O 	O 	0.48210 0.42740 0.06790 -0.52500
O 	O 	0.41980 0.32990 0.23940 -0.45900
N 	N 	0.52740 0.31900 0.78450 -0.21300
C 	C 	0.46120 0.35320 0.09500 0.38400
C 	C 	0.48950 0.29250 0.95140 -0.03900
H 	H 	0.57320 0.29800 0.42710 -0.01600
H 	H 	0.69660 0.29840 0.59350 -0.15600
H 	H 	0.40810 0.36990 0.30660 0.24900
H 	H 	0.63590 0.28790 0.50030 -0.41300
H 	H 	0.55130 0.26980 0.40450 -0.16700
C 	C 	0.62200 0.17650 0.41500 0.06300
H 	H 	0.64710 0.18890 0.29240 0.03200
H 	H 	0.57820 0.13770 0.39730 0.00200
H 	H 	0.66290 0.15330 0.50060 0.04200
O 	O 	0.01790 0.07260 0.06790 -0.53000
O 	O 	0.08020 0.17010 0.23940 -0.46200
N 	N 	0.97260 0.18100 0.78450 -0.22400
C 	C 	0.03880 0.14680 0.09500 0.37900
C 	C 	0.01050 0.20750 0.95140 -0.03700
H 	H 	0.92680 0.20200 0.42710 -0.15100
H 	H 	0.80340 0.20160 0.59350 -0.20700
H 	H 	0.09190 0.13010 0.30660 0.24700
H 	H 	0.86410 0.21210 0.50030 -0.23800
H 	H 	0.94870 0.23020 0.40450 0.20600
C 	C 	0.87800 0.32350 0.41500 0.42300
H 	H 	0.85290 0.31110 0.29240 -0.10400
H 	H 	0.92180 0.36230 0.39730 -0.13200
H 	H 	0.83710 0.34670 0.50060 -0.03700
O 	O 	0.57260 0.51790 0.43210 -0.52500
O 	O 	0.67010 0.58020 0.26060 -0.45900
N 	N 	0.68100 0.47260 0.71550 -0.21300
C 	C 	0.64680 0.53880 0.40500 0.38400
C 	C 	0.70750 0.51050 0.54860 -0.03900
H 	H 	0.70200 0.42680 0.07290 -0.01000
H 	H 	0.70160 0.30340 0.90650 -0.15700
H 	H 	0.63010 0.59190 0.19340 0.24900
H 	H 	0.71210 0.36410 0.99970 -0.41800
H 	H 	0.73020 0.44870 0.09550 -0.17800
C 	C 	0.82350 0.37800 0.08500 0.04800
H 	H 	0.81110 0.35290 0.20760 0.03700
H 	H 	0.86230 0.42180 0.10270 0.00700
H 	H 	0.84670 0.33710 0.99940 0.04600
O 	O 	0.92740 0.98210 0.43210 -0.53000
O 	O 	0.82990 0.91980 0.26060 -0.46200
N 	N 	0.81900 0.02740 0.71550 -0.22200
C 	C 	0.85320 0.96120 0.40500 0.37700
C 	C 	0.79250 0.98950 0.54860 -0.03500
H 	H 	0.79800 0.07320 0.07290 -0.15200
H 	H 	0.79840 0.19660 0.90650 -0.20700
H 	H 	0.86990 0.90810 0.19340 0.24700
H 	H 	0.78790 0.13590 0.99970 -0.23600
H 	H 	0.76980 0.05130 0.09550 0.21000
C 	C 	0.67650 0.12200 0.08500 0.41500
H 	H 	0.68890 0.14710 0.20760 -0.10100
H 	H 	0.63770 0.07820 0.10270 -0.13000
H 	H 	0.65330 0.16290 0.99940 -0.03400
O 	O 	0.51790 0.92740 0.93210 -0.52700
O 	O 	0.58020 0.82990 0.76060 -0.46300
N 	N 	0.47260 0.81900 0.21550 -0.21600
C 	C 	0.53880 0.85320 0.90500 0.37900
C 	C 	0.51050 0.79250 0.04860 -0.04100
H 	H 	0.42680 0.79800 0.57290 -0.18500
H 	H 	0.30340 0.79840 0.40650 -0.19300
H 	H 	0.59190 0.86990 0.69340 0.24700
H 	H 	0.36410 0.78790 0.49970 -0.23100
H 	H 	0.44870 0.76980 0.59550 0.23300
C 	C 	0.37800 0.67650 0.58500 0.45800
H 	H 	0.35290 0.68890 0.70760 -0.09200
H 	H 	0.42180 0.63770 0.60270 -0.13600
H 	H 	0.33710 0.65330 0.49940 -0.04300
O 	O 	0.98210 0.57260 0.93210 -0.53400
O 	O 	0.91980 0.67010 0.76060 -0.45900
N 	N 	0.02740 0.68100 0.21550 -0.21900
C 	C 	0.96120 0.64680 0.90500 0.38400
C 	C 	0.98950 0.70750 0.04860 -0.03900
H 	H 	0.07320 0.70200 0.57290 -0.00400
H 	H 	0.19660 0.70160 0.40650 -0.17500
H 	H 	0.90810 0.63010 0.69340 0.24900
H 	H 	0.13590 0.71210 0.49970 -0.39600
H 	H 	0.05130 0.73020 0.59550 -0.14300
C 	C 	0.12200 0.82350 0.58500 0.08000
H 	H 	0.14710 0.81110 0.70760 0.00600
H 	H 	0.07820 0.86230 0.60270 -0.01300
H 	H 	0.16290 0.84670 0.49940 0.03700
O 	O 	0.57260 0.98210 0.43210 -0.53300
O 	O 	0.67010 0.91980 0.26060 -0.45900
N 	N 	0.68100 0.02740 0.71550 -0.21800
C 	C 	0.64680 0.96120 0.40500 0.38300
C 	C 	0.70750 0.98950 0.54860 -0.03900
H 	H 	0.70200 0.07320 0.07290 0.00200
H 	H 	0.70160 0.19660 0.90650 -0.17300
H 	H 	0.63010 0.90810 0.19340 0.24800
H 	H 	0.71210 0.13590 0.99970 -0.40200
H 	H 	0.73020 0.05130 0.09550 -0.15600
C 	C 	0.82350 0.12200 0.08500 0.05500
H 	H 	0.81110 0.14710 0.20760 0.01600
H 	H 	0.86230 0.07820 0.10270 -0.00500
H 	H 	0.84670 0.16290 0.99940 0.04300
O 	O 	0.92740 0.51790 0.43210 -0.52800
O 	O 	0.82990 0.58020 0.26060 -0.46200
N 	N 	0.81900 0.47260 0.71550 -0.21600
C 	C 	0.85320 0.53880 0.40500 0.37800
C 	C 	0.79250 0.51050 0.54860 -0.03900
H 	H 	0.79800 0.42680 0.07290 -0.18600
H 	H 	0.79840 0.30340 0.90650 -0.19600
H 	H 	0.86990 0.59190 0.19340 0.24600
H 	H 	0.78790 0.36410 0.99970 -0.22800
H 	H 	0.76980 0.44870 0.09550 0.24000
C 	C 	0.67650 0.37800 0.08500 0.46000
H 	H 	0.68890 0.35290 0.20760 -0.09300
H 	H 	0.63770 0.42180 0.10270 -0.13800
H 	H 	0.65330 0.33710 0.99940 -0.04300
O 	O 	0.51790 0.57260 0.93210 -0.52500
O 	O 	0.58020 0.67010 0.76060 -0.45900
N 	N 	0.47260 0.68100 0.21550 -0.21300
C 	C 	0.53880 0.64680 0.90500 0.38400
C 	C 	0.51050 0.70750 0.04860 -0.03900
H 	H 	0.42680 0.70200 0.57290 -0.01600
H 	H 	0.30340 0.70160 0.40650 -0.15600
H 	H 	0.59190 0.63010 0.69340 0.24900
H 	H 	0.36410 0.71210 0.49970 -0.41300
H 	H 	0.44870 0.73020 0.59550 -0.16700
C 	C 	0.37800 0.82350 0.58500 0.06300
H 	H 	0.35290 0.81110 0.70760 0.03200
H 	H 	0.42180 0.86230 0.60270 0.00200
H 	H 	0.33710 0.84670 0.49940 0.04200
O 	O 	0.98210 0.92740 0.93210 -0.53000
O 	O 	0.91980 0.82990 0.76060 -0.46200
N 	N 	0.02740 0.81900 0.21550 -0.22400
C 	C 	0.96120 0.85320 0.90500 0.37900
C 	C 	0.98950 0.79250 0.04860 -0.03700
H 	H 	0.07320 0.79800 0.57290 -0.15100
H 	H 	0.19660 0.79840 0.40650 -0.20700
H 	H 	0.90810 0.86990 0.69340 0.24700
H 	H 	0.13590 0.78790 0.49970 -0.23800
H 	H 	0.05130 0.76980 0.59550 0.20600
C 	C 	0.12200 0.67650 0.58500 0.42300
H 	H 	0.14710 0.68890 0.70760 -0.10400
H 	H 	0.07820 0.63770 0.60270 -0.13200
H 	H 	0.16290 0.65330 0.49940 -0.03700
O 	O 	0.42740 0.48210 0.56790 -0.52500
O 	O 	0.32990 0.41980 0.73940 -0.45900
N 	N 	0.31900 0.52740 0.28450 -0.21300
C 	C 	0.35320 0.46120 0.59500 0.38400
C 	C 	0.29250 0.48950 0.45140 -0.03900
H 	H 	0.29800 0.57320 0.92710 -0.01000
H 	H 	0.29840 0.69660 0.09350 -0.15700
H 	H 	0.36990 0.40810 0.80660 0.24900
H 	H 	0.28790 0.63590 0.00030 -0.41800
H 	H 	0.26980 0.55130 0.90450 -0.17800
C 	C 	0.17650 0.62200 0.91500 0.04800
H 	H 	0.18890 0.64710 0.79240 0.03700
H 	H 	0.13770 0.57820 0.89730 0.00700
H 	H 	0.15330 0.66290 0.00060 0.04600
O 	O 	0.07260 0.01790 0.56790 -0.53000
O 	O 	0.17010 0.08020 0.73940 -0.46200
N 	N 	0.18100 0.97260 0.28450 -0.22200
C 	C 	0.14680 0.03880 0.59500 0.37700
C 	C 	0.20750 0.01050 0.45140 -0.03500
H 	H 	0.20200 0.92680 0.92710 -0.15200
H 	H 	0.20160 0.80340 0.09350 -0.20700
H 	H 	0.13010 0.09190 0.80660 0.24700
H 	H 	0.21210 0.86410 0.00030 -0.23600
H 	H 	0.23020 0.94870 0.90450 0.21000
C 	C 	0.32350 0.87800 0.91500 0.41500
H 	H 	0.31110 0.85290 0.79240 -0.10100
H 	H 	0.36230 0.92180 0.89730 -0.13000
H 	H 	0.34670 0.83710 0.00060 -0.03400
O 	O 	0.48210 0.07260 0.06790 -0.52700
O 	O 	0.41980 0.17010 0.23940 -0.46300
N 	N 	0.52740 0.18100 0.78450 -0.21600
C 	C 	0.46120 0.14680 0.09500 0.37900
C 	C 	0.48950 0.20750 0.95140 -0.04100
H 	H 	0.57320 0.20200 0.42710 -0.18500
H 	H 	0.69660 0.20160 0.59350 -0.19300
H 	H 	0.40810 0.13010 0.30660 0.24700
H 	H 	0.63590 0.21210 0.50030 -0.23100
H 	H 	0.55130 0.23020 0.40450 0.23300
C 	C 	0.62200 0.32350 0.41500 0.45800
H 	H 	0.64710 0.31110 0.29240 -0.09200
H 	H 	0.57820 0.36230 0.39730 -0.13600
H 	H 	0.66290 0.34670 0.50060 -0.04300
O 	O 	0.01790 0.42740 0.06790 -0.53400
O 	O 	0.08020 0.32990 0.23940 -0.45900
N 	N 	0.97260 0.31900 0.78450 -0.21900
C 	C 	0.03880 0.35320 0.09500 0.38400
C 	C 	0.01050 0.29250 0.95140 -0.03900
H 	H 	0.92680 0.29800 0.42710 -0.00400
H 	H 	0.80340 0.29840 0.59350 -0.17500
H 	H 	0.09190 0.36990 0.30660 0.24900
H 	H 	0.86410 0.28790 0.50030 -0.39600
H 	H 	0.94870 0.26980 0.40450 -0.14300
C 	C 	0.87800 0.17650 0.41500 0.08000
H 	H 	0.85290 0.18890 0.29240 0.00600
H 	H 	0.92180 0.13770 0.39730 -0.01300
H 	H 	0.83710 0.15330 0.50060 0.03700
Cd	Cd	0.45735 0.95735 0.25000 1.22000
Cd	Cd	0.04265 0.54265 0.25000 1.22000
Cd	Cd	0.54265 0.45735 0.75000 1.22300
Cd	Cd	0.95735 0.04265 0.75000 1.21600
Cd	Cd	0.54265 0.04265 0.75000 1.22000
Cd	Cd	0.95735 0.45735 0.75000 1.22000
Cd	Cd	0.45735 0.54265 0.25000 1.22300
Cd	Cd	0.04265 0.95735 0.25000 1.21600
C 	C 	0.25000 0.95140 0.18750 0.08000
C 	C 	0.25000 0.90960 0.99820 0.15200
C 	C 	0.25000 0.81920 0.02200 0.80800
H 	H 	0.25000 0.79220 0.89830 -0.19500
C 	C 	0.25000 0.54860 0.18750 0.07500
C 	C 	0.25000 0.59040 0.99820 0.18600
C 	C 	0.25000 0.68080 0.02200 0.76800
H 	H 	0.25000 0.70780 0.89830 -0.18100
C 	C 	0.54860 0.25000 0.68750 0.07700
C 	C 	0.59040 0.25000 0.49820 0.18100
C 	C 	0.68080 0.25000 0.52200 0.76400
H 	H 	0.70780 0.25000 0.39830 -0.18000
C 	C 	0.95140 0.25000 0.68750 0.08800
C 	C 	0.90960 0.25000 0.49820 0.13100
C 	C 	0.81920 0.25000 0.52200 0.81200
H 	H 	0.79220 0.25000 0.39830 -0.19700
C 	C 	0.75000 0.45140 0.81250 0.07500
C 	C 	0.75000 0.40960 0.00180 0.18600
C 	C 	0.75000 0.31920 0.97800 0.76800
H 	H 	0.75000 0.29220 0.10170 -0.18100
C 	C 	0.75000 0.04860 0.81250 0.08000
C 	C 	0.75000 0.09040 0.00180 0.15200
C 	C 	0.75000 0.18080 0.97800 0.80800
H 	H 	0.75000 0.20780 0.10170 -0.19500
C 	C 	0.45140 0.75000 0.31250 0.07700
C 	C 	0.40960 0.75000 0.50180 0.18100
C 	C 	0.31920 0.75000 0.47800 0.76400
H 	H 	0.29220 0.75000 0.60170 -0.18000
C 	C 	0.04860 0.75000 0.31250 0.08800
C 	C 	0.09040 0.75000 0.50180 0.13100
C 	C 	0.18080 0.75000 0.47800 0.81200
H 	H 	0.20780 0.75000 0.60170 -0.19700
