data_crystal

_cell_length_a 16.07200
_cell_length_b 16.34400
_cell_length_c 18.11100
_cell_angle_alpha 72.64100
_cell_angle_beta  86.88200
_cell_angle_gamma 60.58000

_symmetry_space_group_name_	'P 1'
_symmetry_space_group_name_H-M	'P 1'

loop_
_symmetry_equiv_pos_as_xyz
  x,y,z

loop_
_atom_site_label
_atom_site_type_symbol
_atom_site_fract_x
_atom_site_fract_y
_atom_site_fract_z
_atom_site_charge
Ag	Ag	0.40072 0.82669 0.22353 0.47600
Ag	Ag	0.74268 0.68538 0.03325 0.57900
Ag	Ag	0.09884 0.22059 0.28525 0.47500
Ag	Ag	0.61202 0.61524 0.36695 0.51900
Ag	Ag	0.89863 0.37723 0.13368 0.51300
Ag	Ag	0.74209 0.29474 0.45891 0.58100
N 	N 	0.87840 0.72230 0.83830 -0.13000
N 	N 	0.95060 0.66710 0.89670 -0.16100
N 	N 	0.79800 0.73870 0.86550 -0.07100
N 	N 	0.81560 0.69450 0.94260 -0.16000
N 	N 	0.93130 0.60730 0.39930 -0.20700
N 	N 	0.87590 0.18190 0.51170 -0.18000
N 	N 	0.33060 0.72290 0.45320 -0.16300
N 	N 	0.39490 0.59950 0.59440 -0.19100
N 	N 	0.39330 0.75290 0.34880 -0.13300
N 	N 	0.46570 0.67860 0.40410 -0.16300
N 	N 	0.31160 0.77880 0.37930 -0.07700
N 	N 	0.67150 0.68370 0.12660 -0.15800
N 	N 	0.60660 0.65930 0.23060 -0.11700
N 	N 	0.54080 0.74340 0.17740 -0.16900
N 	N 	0.68830 0.62150 0.20040 -0.06500
N 	N 	0.61210 0.80670 0.98590 -0.18300
N 	N 	0.89660 0.46950 0.48710 -0.15700
N 	N 	0.86260 0.40640 0.52280 -0.05900
N 	N 	0.78260 0.43480 0.48470 -0.08400
N 	N 	0.76100 0.51720 0.42210 -0.15300
N 	N 	0.87930 0.59980 0.09000 -0.18400
N 	N 	0.58660 0.37060 0.08340 -0.18800
N 	N 	0.63610 0.59230 0.98460 -0.05100
N 	N 	0.81650 0.30790 0.37240 -0.16500
N 	N 	0.79830 0.36930 0.29630 -0.06600
N 	N 	0.95410 0.26840 0.32860 -0.16800
N 	N 	0.88450 0.34550 0.27050 -0.11800
N 	N 	0.72110 0.55820 0.02230 -0.11000
N 	N 	0.74740 0.46950 0.07660 -0.15200
N 	N 	0.60700 0.52360 0.01510 -0.16600
C 	C 	0.89980 0.12050 0.58190 0.05400
H 	H 	0.85120 0.12640 0.61390 0.00000
C 	C 	0.96080 0.66170 0.35540 0.11100
H 	H 	0.01950 0.65390 0.36990 -0.01700
C 	C 	0.72600 0.28960 0.17410 -0.09800
H 	H 	0.77990 0.28790 0.19260 0.04100
C 	C 	0.07000 0.50150 0.15080 -0.02300
H 	H 	0.13390 0.46830 0.17170 0.02800
C 	C 	0.90630 0.73470 0.28430 -0.17400
H 	H 	0.92820 0.77520 0.25330 0.08100
C 	C 	0.94650 0.17480 0.46290 0.02800
C 	C 	0.54670 0.82830 0.03910 0.02200
C 	C 	0.70520 0.21360 0.21130 0.01500
H 	H 	0.74420 0.16170 0.25470 0.01200
C 	C 	0.04000 0.10430 0.48640 -0.08900
H 	H 	0.08750 0.10060 0.45360 0.02400
C 	C 	0.94870 0.59500 0.04210 0.00100
C 	C 	0.62670 0.21850 0.18180 -0.11200
H 	H 	0.61320 0.16760 0.20340 0.05800
C 	C 	0.66660 0.36620 0.11070 0.02700
C 	C 	0.55960 0.52720 0.57190 -0.10500
H 	H 	0.60610 0.52250 0.53790 0.04800
C 	C 	0.46350 0.59140 0.54680 0.02900
C 	C 	0.90830 0.65060 0.96070 0.10100
C 	C 	0.84950 0.61330 0.37570 0.05000
C 	C 	0.82960 0.53890 0.42720 0.06200
C 	C 	0.90990 0.24880 0.38710 0.09600
C 	C 	0.99810 0.50810 0.19740 -0.07300
H 	H 	0.01270 0.48060 0.25120 0.03000
C 	C 	0.49790 0.94640 0.88950 -0.16900
H 	H 	0.48240 0.98330 0.83700 0.06600
C 	C 	0.06290 0.03640 0.56260 -0.01200
H 	H 	0.12540 0.98440 0.57970 0.01900
C 	C 	0.67890 0.44760 0.07060 0.07000
C 	C 	0.04320 0.54690 0.07020 -0.07500
H 	H 	0.08950 0.54410 0.03640 0.02900
C 	C 	0.82290 0.74400 0.26310 0.08400
H 	H 	0.78600 0.79070 0.21680 -0.01300
C 	C 	0.43180 0.97320 0.94260 0.07000
H 	H 	0.37230 0.03060 0.92730 -0.00600
C 	C 	0.51270 0.47930 0.69750 -0.13100
H 	H 	0.52750 0.44130 0.74970 0.05900
C 	C 	0.90590 0.55470 0.16510 0.01700
H 	H 	0.85910 0.55480 0.19760 0.01800
C 	C 	0.99070 0.04860 0.61160 -0.08000
H 	H 	0.00460 0.00860 0.66320 0.03200
C 	C 	0.58230 0.75530 0.11550 0.08900
C 	C 	0.56500 0.30090 0.11800 0.04800
H 	H 	0.50880 0.30600 0.10050 0.01100
C 	C 	0.58430 0.86600 0.91580 0.10500
H 	H 	0.62870 0.85160 0.87990 -0.01900
C 	C 	0.41970 0.54480 0.66800 0.04500
H 	H 	0.37180 0.55140 0.70080 0.00800
C 	C 	0.79360 0.68530 0.30930 -0.14800
H 	H 	0.73430 0.69320 0.29640 0.05800
C 	C 	0.42530 0.66190 0.46710 0.07900
C 	C 	0.58520 0.46890 0.65040 0.02600
H 	H 	0.64930 0.42460 0.67010 0.01400
C 	C 	0.45740 0.91110 0.02030 -0.13200
H 	H 	0.41500 0.92580 0.05770 0.03500
Ag	Ag	0.59928 0.17331 0.77647 0.48100
Ag	Ag	0.25732 0.31462 0.96675 0.59300
Ag	Ag	0.90116 0.77941 0.71475 0.48200
Ag	Ag	0.38798 0.38476 0.63305 0.52000
Ag	Ag	0.10137 0.62277 0.86632 0.51200
Ag	Ag	0.25791 0.70526 0.54109 0.58000
N 	N 	0.12160 0.27770 0.16170 -0.13300
N 	N 	0.04940 0.33290 0.10330 -0.16400
N 	N 	0.20200 0.26130 0.13450 -0.07300
N 	N 	0.18440 0.30550 0.05740 -0.16300
N 	N 	0.06870 0.39270 0.60070 -0.19900
N 	N 	0.12410 0.81810 0.48830 -0.18800
N 	N 	0.66940 0.27710 0.54680 -0.16200
N 	N 	0.60510 0.40050 0.40560 -0.19100
N 	N 	0.60670 0.24710 0.65120 -0.13200
N 	N 	0.53430 0.32140 0.59590 -0.16300
N 	N 	0.68840 0.22120 0.62070 -0.07600
N 	N 	0.32850 0.31630 0.87340 -0.15700
N 	N 	0.39340 0.34070 0.76940 -0.11700
N 	N 	0.45920 0.25660 0.82260 -0.16800
N 	N 	0.31170 0.37850 0.79960 -0.06400
N 	N 	0.38790 0.19330 0.01410 -0.19700
N 	N 	0.10340 0.53050 0.51290 -0.16100
N 	N 	0.13740 0.59360 0.47720 -0.06000
N 	N 	0.21740 0.56520 0.51530 -0.08500
N 	N 	0.23900 0.48280 0.57790 -0.15300
N 	N 	0.12070 0.40020 0.91000 -0.19800
N 	N 	0.41340 0.62940 0.91660 -0.18300
N 	N 	0.36390 0.40770 0.01540 -0.07600
N 	N 	0.18350 0.69210 0.62760 -0.16500
N 	N 	0.20170 0.63070 0.70370 -0.06600
N 	N 	0.04590 0.73160 0.67140 -0.17400
N 	N 	0.11550 0.65450 0.72950 -0.11900
N 	N 	0.27890 0.44180 0.97770 -0.09300
N 	N 	0.25260 0.53050 0.92340 -0.15000
N 	N 	0.39300 0.47640 0.98490 -0.14900
C 	C 	0.10020 0.87950 0.41810 0.09400
H 	H 	0.14880 0.87360 0.38610 -0.01700
C 	C 	0.03920 0.33830 0.64460 0.06200
H 	H 	0.98050 0.34610 0.63010 0.01200
C 	C 	0.27400 0.71040 0.82590 -0.09800
H 	H 	0.22010 0.71210 0.80740 0.04100
C 	C 	0.93000 0.49850 0.84920 0.06700
H 	H 	0.86610 0.53170 0.82830 0.00000
C 	C 	0.09370 0.26530 0.71570 -0.13900
H 	H 	0.07180 0.22480 0.74670 0.06800
C 	C 	0.05350 0.82520 0.53710 0.01800
C 	C 	0.45330 0.17170 0.96090 0.02900
C 	C 	0.29480 0.78640 0.78870 0.01600
H 	H 	0.25580 0.83830 0.74530 0.01100
C 	C 	0.96000 0.89570 0.51360 -0.09000
H 	H 	0.91250 0.89940 0.54640 0.02800
C 	C 	0.05130 0.40500 0.95790 0.03800
C 	C 	0.37330 0.78150 0.81820 -0.11100
H 	H 	0.38680 0.83240 0.79660 0.05900
C 	C 	0.33340 0.63380 0.88930 0.02900
C 	C 	0.44040 0.47280 0.42810 -0.10500
H 	H 	0.39390 0.47750 0.46210 0.04800
C 	C 	0.53650 0.40860 0.45320 0.02900
C 	C 	0.09170 0.34940 0.03930 0.06200
C 	C 	0.15050 0.38670 0.62430 0.03900
C 	C 	0.17040 0.46110 0.57280 0.06300
C 	C 	0.09010 0.75120 0.61290 0.09500
C 	C 	0.00190 0.49190 0.80260 -0.18600
H 	H 	0.98730 0.51940 0.74880 0.08200
C 	C 	0.50210 0.05360 0.11050 -0.13600
H 	H 	0.51760 0.01670 0.16300 0.05400
C 	C 	0.93710 0.96360 0.43740 0.04200
H 	H 	0.87460 0.01560 0.42030 0.00300
C 	C 	0.32110 0.55240 0.92940 0.07400
C 	C 	0.95680 0.45310 0.92980 -0.11200
H 	H 	0.91050 0.45590 0.96360 0.05700
C 	C 	0.17710 0.25600 0.73690 0.05500
H 	H 	0.21400 0.20930 0.78320 -0.00100
C 	C 	0.56820 0.02680 0.05740 0.00700
H 	H 	0.62770 0.96940 0.07270 0.00900
C 	C 	0.48730 0.52070 0.30250 -0.13100
H 	H 	0.47250 0.55870 0.25030 0.05700
C 	C 	0.09410 0.44530 0.83490 0.07400
H 	H 	0.14090 0.44520 0.80240 -0.00300
C 	C 	0.00930 0.95140 0.38840 -0.16800
H 	H 	0.99540 0.99140 0.33680 0.07200
C 	C 	0.41770 0.24470 0.88450 0.09200
C 	C 	0.43500 0.69910 0.88200 0.05100
H 	H 	0.49120 0.69400 0.89950 0.01500
C 	C 	0.41570 0.13400 0.08420 0.08200
H 	H 	0.37130 0.14840 0.12010 -0.01400
C 	C 	0.58030 0.45520 0.33200 0.04400
H 	H 	0.62820 0.44860 0.29920 0.00800
C 	C 	0.20640 0.31470 0.69070 -0.12700
H 	H 	0.26570 0.30680 0.70360 0.05100
C 	C 	0.57470 0.33810 0.53290 0.07900
C 	C 	0.41480 0.53110 0.34960 0.02500
H 	H 	0.35070 0.57540 0.32990 0.01200
C 	C 	0.54260 0.08890 0.97970 -0.07400
H 	H 	0.58500 0.07420 0.94230 0.02200
Ag	Ag	0.00000 0.50000 0.50000 0.56600
Ag	Ag	0.50000 0.50000 -0.00000 0.56400
