data_crystal

_cell_length_a 12.66100
_cell_length_b 22.23800
_cell_length_c 12.95300
_cell_angle_alpha 90.00000
_cell_angle_beta  111.82900
_cell_angle_gamma 90.00000

_symmetry_space_group_name_	'P 1'
_symmetry_space_group_name_H-M	'P 1'

loop_
_symmetry_equiv_pos_as_xyz
  x,y,z

loop_
_atom_site_label
_atom_site_type_symbol
_atom_site_fract_x
_atom_site_fract_y
_atom_site_fract_z
_atom_site_charge
Ag	Ag	0.62740 0.05378 0.85510 0.46800
Ag	Ag	0.92246 0.07003 0.93808 0.48900
Ag	Ag	0.79820 0.79489 0.83920 0.56500
C 	C 	0.41870 0.85610 0.76580 0.03300
H 	H 	0.34450 0.86990 0.74640 -0.00700
C 	C 	0.50960 0.89680 0.79130 -0.11900
H 	H 	0.49730 0.93810 0.78820 0.02300
C 	C 	0.44020 0.79780 0.76970 -0.14100
H 	H 	0.38030 0.77060 0.75250 0.06200
C 	C 	0.34400 0.27400 0.59600 -0.13800
H 	H 	0.27560 0.29330 0.55550 0.06300
C 	C 	0.55030 0.77640 0.79910 0.06800
H 	H 	0.56430 0.73530 0.80420 -0.01000
C 	C 	0.44520 0.19510 0.71180 -0.11400
H 	H 	0.44840 0.16010 0.75230 0.03100
C 	C 	0.34500 0.21910 0.65600 0.02800
H 	H 	0.27770 0.20160 0.65560 0.00000
C 	C 	0.54510 0.21920 0.71260 0.03400
C 	C 	0.71960 0.91100 0.86100 0.06300
C 	C 	0.61710 0.87350 0.82100 0.03200
C 	C 	0.44430 0.29660 0.60100 0.07800
H 	H 	0.44360 0.33190 0.56240 -0.03800
C 	C 	0.65570 0.19520 0.76700 0.06200
N 	N 	0.73180 0.96930 0.86970 -0.17400
N 	N 	0.82080 0.88250 0.89810 -0.16300
N 	N 	0.84680 0.97660 0.91860 -0.14400
N 	N 	0.89760 0.92690 0.93010 -0.12400
N 	N 	0.63550 0.81500 0.81970 -0.19400
N 	N 	0.69320 0.14530 0.83190 -0.16700
N 	N 	0.74510 0.22470 0.76230 -0.15900
N 	N 	0.83780 0.19310 0.81940 -0.07000
N 	N 	0.80690 0.14590 0.85710 -0.13300
N 	N 	0.54710 0.27070 0.65900 -0.19900
Ag	Ag	0.87260 0.55378 0.64490 0.46700
Ag	Ag	0.57754 0.57003 0.56192 0.48900
Ag	Ag	0.70180 0.29489 0.66080 0.56300
C 	C 	0.08130 0.35610 0.73420 0.03300
H 	H 	0.15550 0.36990 0.75360 -0.00700
C 	C 	0.99040 0.39680 0.70870 -0.12200
H 	H 	0.00270 0.43810 0.71180 0.02300
C 	C 	0.05980 0.29780 0.73030 -0.14100
H 	H 	0.11970 0.27060 0.74750 0.06200
C 	C 	0.15600 0.77400 0.90400 -0.13800
H 	H 	0.22440 0.79330 0.94450 0.06400
C 	C 	0.94970 0.27640 0.70090 0.06700
H 	H 	0.93570 0.23530 0.69580 -0.01000
C 	C 	0.05480 0.69510 0.78820 -0.11400
H 	H 	0.05160 0.66010 0.74770 0.03100
C 	C 	0.15500 0.71910 0.84400 0.02800
H 	H 	0.22230 0.70160 0.84440 0.00000
C 	C 	0.95490 0.71920 0.78740 0.03400
C 	C 	0.78040 0.41100 0.63900 0.06200
C 	C 	0.88290 0.37350 0.67900 0.03200
C 	C 	0.05570 0.79660 0.89900 0.07800
H 	H 	0.05640 0.83190 0.93760 -0.03800
C 	C 	0.84430 0.69520 0.73300 0.06200
N 	N 	0.76820 0.46930 0.63030 -0.17400
N 	N 	0.67920 0.38250 0.60190 -0.16300
N 	N 	0.65320 0.47660 0.58140 -0.14500
N 	N 	0.60240 0.42690 0.56990 -0.12500
N 	N 	0.86450 0.31500 0.68030 -0.19500
N 	N 	0.80680 0.64530 0.66810 -0.16700
N 	N 	0.75490 0.72470 0.73770 -0.15900
N 	N 	0.66220 0.69310 0.68060 -0.07000
N 	N 	0.69310 0.64590 0.64290 -0.13200
N 	N 	0.95290 0.77070 0.84100 -0.19800
Ag	Ag	0.37260 0.94622 0.14490 0.46700
Ag	Ag	0.07754 0.92997 0.06192 0.48800
Ag	Ag	0.20180 0.20511 0.16080 0.56400
C 	C 	0.58130 0.14390 0.23420 0.03200
H 	H 	0.65550 0.13010 0.25360 -0.00700
C 	C 	0.49040 0.10320 0.20870 -0.11900
H 	H 	0.50270 0.06190 0.21180 0.02300
C 	C 	0.55980 0.20220 0.23030 -0.14100
H 	H 	0.61970 0.22940 0.24750 0.06200
C 	C 	0.65600 0.72600 0.40400 -0.13800
H 	H 	0.72440 0.70670 0.44450 0.06300
C 	C 	0.44970 0.22360 0.20090 0.06800
H 	H 	0.43570 0.26470 0.19580 -0.01000
C 	C 	0.55480 0.80490 0.28820 -0.11400
H 	H 	0.55160 0.83990 0.24770 0.03100
C 	C 	0.65500 0.78090 0.34400 0.02800
H 	H 	0.72230 0.79840 0.34440 0.00000
C 	C 	0.45490 0.78080 0.28740 0.03400
C 	C 	0.28040 0.08900 0.13900 0.06300
C 	C 	0.38290 0.12650 0.17900 0.03200
C 	C 	0.55570 0.70340 0.39900 0.07800
H 	H 	0.55640 0.66810 0.43760 -0.03800
C 	C 	0.34430 0.80480 0.23300 0.06200
N 	N 	0.26820 0.03070 0.13030 -0.17400
N 	N 	0.17920 0.11750 0.10190 -0.16300
N 	N 	0.15320 0.02340 0.08140 -0.14400
N 	N 	0.10240 0.07310 0.06990 -0.12400
N 	N 	0.36450 0.18500 0.18030 -0.19400
N 	N 	0.30680 0.85470 0.16810 -0.16700
N 	N 	0.25490 0.77530 0.23770 -0.15900
N 	N 	0.16220 0.80690 0.18060 -0.07000
N 	N 	0.19310 0.85410 0.14290 -0.13300
N 	N 	0.45290 0.72930 0.34100 -0.19900
Ag	Ag	0.12740 0.44622 0.35510 0.46700
Ag	Ag	0.42246 0.42997 0.43808 0.48900
Ag	Ag	0.29820 0.70511 0.33920 0.56300
C 	C 	0.91870 0.64390 0.26580 0.03300
H 	H 	0.84450 0.63010 0.24640 -0.00700
C 	C 	0.00960 0.60320 0.29130 -0.12200
H 	H 	0.99730 0.56190 0.28820 0.02300
C 	C 	0.94020 0.70220 0.26970 -0.14100
H 	H 	0.88030 0.72940 0.25250 0.06200
C 	C 	0.84400 0.22600 0.09600 -0.13800
H 	H 	0.77560 0.20670 0.05550 0.06400
C 	C 	0.05030 0.72360 0.29910 0.06700
H 	H 	0.06430 0.76470 0.30420 -0.01000
C 	C 	0.94520 0.30490 0.21180 -0.11400
H 	H 	0.94840 0.33990 0.25230 0.03100
C 	C 	0.84500 0.28090 0.15600 0.02800
H 	H 	0.77770 0.29840 0.15560 0.00000
C 	C 	0.04510 0.28080 0.21260 0.03400
C 	C 	0.21960 0.58900 0.36100 0.06200
C 	C 	0.11710 0.62650 0.32100 0.03200
C 	C 	0.94430 0.20340 0.10100 0.07800
H 	H 	0.94360 0.16810 0.06240 -0.03800
C 	C 	0.15570 0.30480 0.26700 0.06200
N 	N 	0.23180 0.53070 0.36970 -0.17400
N 	N 	0.32080 0.61750 0.39810 -0.16300
N 	N 	0.34680 0.52340 0.41860 -0.14500
N 	N 	0.39760 0.57310 0.43010 -0.12500
N 	N 	0.13550 0.68500 0.31970 -0.19500
N 	N 	0.19320 0.35470 0.33190 -0.16700
N 	N 	0.24510 0.27530 0.26230 -0.15900
N 	N 	0.33780 0.30690 0.31940 -0.07000
N 	N 	0.30690 0.35410 0.35710 -0.13200
N 	N 	0.04710 0.22930 0.15900 -0.19800
