data_crystal

_cell_length_a 9.93900
_cell_length_b 14.02100
_cell_length_c 20.34100
_cell_angle_alpha 90.00000
_cell_angle_beta  107.32500
_cell_angle_gamma 90.00000

_symmetry_space_group_name_	'P 1'
_symmetry_space_group_name_H-M	'P 1'

loop_
_symmetry_equiv_pos_as_xyz
  x,y,z

loop_
_atom_site_label
_atom_site_type_symbol
_atom_site_fract_x
_atom_site_fract_y
_atom_site_fract_z
_atom_site_charge
Ag	Ag	0.32829 0.15419 0.71823 0.48100
Ag	Ag	0.84294 0.97224 0.45241 0.46700
Ag	Ag	0.70060 0.87044 0.63515 0.47100
S 	S 	0.77680 0.98247 0.55917 -0.34000
N 	N 	0.08670 0.13290 0.66830 -0.13400
C 	C 	0.56210 0.41290 0.81120 0.09800
N 	N 	0.03020 0.07040 0.61590 -0.19000
N 	N 	0.46900 0.28060 0.76510 -0.13500
N 	N 	0.87280 0.11640 0.66240 -0.07000
N 	N 	0.45460 0.35440 0.80710 -0.18200
N 	N 	0.63800 0.37480 0.77320 -0.08100
N 	N 	0.99270 0.16100 0.69550 -0.08900
C 	C 	0.74600 0.13370 0.68190 -0.32800
H 	H 	0.76620 0.17820 0.71940 0.12100
H 	H 	0.71360 0.07480 0.69590 0.10100
H 	H 	0.67430 0.15950 0.64330 0.11200
C 	C 	0.76780 0.40820 0.76130 -0.29300
H 	H 	0.79530 0.46780 0.78460 0.08100
H 	H 	0.75240 0.41680 0.71280 0.09200
H 	H 	0.84100 0.36200 0.77860 0.09200
C 	C 	0.89730 0.05880 0.61340 0.09500
N 	N 	0.57850 0.29170 0.74520 -0.08600
S 	S 	0.59070 0.52089 0.85390 -0.28700
Ag	Ag	0.67171 0.65419 0.78177 0.48200
Ag	Ag	0.15706 0.47224 0.04759 0.46800
Ag	Ag	0.29940 0.37044 0.86485 0.47300
S 	S 	0.22320 0.48247 0.94083 -0.33800
N 	N 	0.91330 0.63290 0.83170 -0.13400
C 	C 	0.43790 0.91290 0.68880 0.09800
N 	N 	0.96980 0.57040 0.88410 -0.19000
N 	N 	0.53100 0.78060 0.73490 -0.13500
N 	N 	0.12720 0.61640 0.83760 -0.07000
N 	N 	0.54540 0.85440 0.69290 -0.18200
N 	N 	0.36200 0.87480 0.72680 -0.08100
N 	N 	0.00730 0.66100 0.80450 -0.08900
C 	C 	0.25400 0.63370 0.81810 -0.32900
H 	H 	0.23380 0.67820 0.78060 0.12100
H 	H 	0.28640 0.57480 0.80410 0.10100
H 	H 	0.32570 0.65950 0.85670 0.11200
C 	C 	0.23220 0.90820 0.73870 -0.29400
H 	H 	0.20470 0.96780 0.71540 0.08100
H 	H 	0.24760 0.91680 0.78720 0.09300
H 	H 	0.15900 0.86200 0.72140 0.09300
C 	C 	0.10270 0.55880 0.88660 0.09500
N 	N 	0.42150 0.79170 0.75480 -0.08600
S 	S 	0.40930 0.02089 0.64610 -0.28700
Ag	Ag	0.67171 0.84581 0.28177 0.48200
Ag	Ag	0.15706 0.02776 0.54759 0.46800
Ag	Ag	0.29940 0.12956 0.36485 0.47200
S 	S 	0.22320 0.01753 0.44083 -0.33900
N 	N 	0.91330 0.86710 0.33170 -0.13400
C 	C 	0.43790 0.58710 0.18880 0.09800
N 	N 	0.96980 0.92960 0.38410 -0.19000
N 	N 	0.53100 0.71940 0.23490 -0.13500
N 	N 	0.12720 0.88360 0.33760 -0.07000
N 	N 	0.54540 0.64560 0.19290 -0.18200
N 	N 	0.36200 0.62520 0.22680 -0.08100
N 	N 	0.00730 0.83900 0.30450 -0.08900
C 	C 	0.25400 0.86630 0.31810 -0.32800
H 	H 	0.23380 0.82180 0.28060 0.12100
H 	H 	0.28640 0.92520 0.30410 0.10100
H 	H 	0.32570 0.84050 0.35670 0.11200
C 	C 	0.23220 0.59180 0.23870 -0.29300
H 	H 	0.20470 0.53220 0.21540 0.08100
H 	H 	0.24760 0.58320 0.28720 0.09200
H 	H 	0.15900 0.63800 0.22140 0.09200
C 	C 	0.10270 0.94120 0.38660 0.09500
N 	N 	0.42150 0.70830 0.25480 -0.08600
S 	S 	0.40930 0.47911 0.14610 -0.28700
Ag	Ag	0.32829 0.34581 0.21823 0.48200
Ag	Ag	0.84294 0.52776 0.95241 0.46800
Ag	Ag	0.70060 0.62956 0.13515 0.47300
S 	S 	0.77680 0.51753 0.05917 -0.33800
N 	N 	0.08670 0.36710 0.16830 -0.13400
C 	C 	0.56210 0.08710 0.31120 0.09800
N 	N 	0.03020 0.42960 0.11590 -0.19000
N 	N 	0.46900 0.21940 0.26510 -0.13500
N 	N 	0.87280 0.38360 0.16240 -0.07000
N 	N 	0.45460 0.14560 0.30710 -0.18200
N 	N 	0.63800 0.12520 0.27320 -0.08100
N 	N 	0.99270 0.33900 0.19550 -0.08900
C 	C 	0.74600 0.36630 0.18190 -0.32900
H 	H 	0.76620 0.32180 0.21940 0.12100
H 	H 	0.71360 0.42520 0.19590 0.10100
H 	H 	0.67430 0.34050 0.14330 0.11200
C 	C 	0.76780 0.09180 0.26130 -0.29400
H 	H 	0.79530 0.03220 0.28460 0.08100
H 	H 	0.75240 0.08320 0.21280 0.09300
H 	H 	0.84100 0.13800 0.27860 0.09300
C 	C 	0.89730 0.44120 0.11340 0.09500
N 	N 	0.57850 0.20830 0.24520 -0.08600
S 	S 	0.59070 0.97911 0.35390 -0.28700
