data_crystal

_cell_length_a 9.47100
_cell_length_b 17.35790
_cell_length_c 19.68310
_cell_angle_alpha 76.22700
_cell_angle_beta  83.23200
_cell_angle_gamma 88.40700

_symmetry_space_group_name_	'P 1'
_symmetry_space_group_name_H-M	'P 1'

loop_
_symmetry_equiv_pos_as_xyz
  x,y,z

loop_
_atom_site_label
_atom_site_type_symbol
_atom_site_fract_x
_atom_site_fract_y
_atom_site_fract_z
_atom_site_charge
Zn	Zn	0.13134 0.95381 0.01047 1.20400
O 	O 	0.81330 0.40570 0.91056 -0.29700
O 	O 	0.97420 0.88535 0.07429 -0.47300
O 	O 	0.94790 0.07520 0.07305 -0.47500
O 	O 	0.15290 0.01141 0.08719 -0.47700
C 	C 	0.20490 0.08850 0.19090 0.12300
H 	H 	0.26390 0.04600 0.18560 0.00100
O 	O 	0.77120 0.95222 0.06010 -0.46800
O 	O 	0.96080 0.50764 0.89818 -0.43800
N 	N 	0.32690 0.41573 0.39502 -0.17300
N 	N 	0.15780 0.40890 0.99084 -0.23800
N 	N 	0.70480 0.12438 0.98473 -0.23700
C 	C 	0.24730 0.22680 0.34940 0.04400
H 	H 	0.25600 0.17260 0.36760 0.01200
C 	C 	0.23350 0.13460 0.23620 -0.20500
H 	H 	0.31010 0.12180 0.26240 0.10200
C 	C 	0.29230 0.27960 0.38490 -0.16500
H 	H 	0.33240 0.26060 0.42670 0.09100
C 	C 	0.90270 0.45410 0.87590 0.34000
C 	C 	0.61780 0.83120 0.15930 0.08200
H 	H 	0.57090 0.87920 0.14540 0.01500
C 	C 	0.05000 0.40580 0.54690 -0.03200
H 	H 	0.95370 0.39410 0.55860 0.04800
C 	C 	0.02920 0.21450 0.20790 -0.27000
H 	H 	0.96830 0.25590 0.21420 0.13200
C 	C 	0.08720 0.10590 0.15310 -0.21500
C 	C 	0.54510 0.76770 0.20290 -0.15600
H 	H 	0.44980 0.77360 0.21870 0.08500
C 	C 	0.82880 0.75220 0.15770 0.08600
H 	H 	0.92500 0.74690 0.14340 0.02000
C 	C 	0.21780 0.38930 0.29730 -0.16600
H 	H 	0.20660 0.44360 0.28010 0.09800
C 	C 	0.89710 0.39580 0.77100 0.01800
H 	H 	0.82420 0.36230 0.79630 0.03600
C 	C 	0.18870 0.25500 0.28590 -0.09400
C 	C 	0.75590 0.68840 0.20040 -0.15900
H 	H 	0.80310 0.64040 0.21390 0.09600
C 	C 	0.99880 0.16800 0.16310 0.18300
H 	H 	0.91820 0.17870 0.13960 -0.02000
C 	C 	0.17360 0.33600 0.26060 0.04100
H 	H 	0.13380 0.35520 0.21880 0.01700
C 	C 	0.76230 0.82470 0.13540 -0.15200
C 	C 	0.43110 0.62770 0.32450 0.02900
H 	H 	0.40780 0.67690 0.33380 0.01700
C 	C 	0.25820 0.41590 0.46300 0.11400
C 	C 	0.33680 0.43510 0.51260 -0.12300
H 	H 	0.43450 0.44250 0.50190 0.07500
C 	C 	0.06020 0.05930 0.10070 0.41900
C 	C 	0.94940 0.38970 0.70380 -0.09000
H 	H 	0.91140 0.35210 0.68440 0.06500
C 	C 	0.45950 0.15410 0.01320 -0.17100
H 	H 	0.36800 0.13600 0.03150 0.09200
C 	C 	0.26810 0.42000 0.94080 0.11000
H 	H 	0.27210 0.46710 0.90620 -0.02600
C 	C 	0.37500 0.36670 0.93710 -0.16400
H 	H 	0.45010 0.37800 0.90130 0.09300
C 	C 	0.49770 0.48130 0.29760 -0.15500
H 	H 	0.52000 0.43220 0.28790 0.08600
C 	C 	0.48630 0.23520 0.98690 0.09200
C 	C 	0.25710 0.28290 0.04040 -0.19100
H 	H 	0.25040 0.23670 0.07610 0.09800
C 	C 	0.62370 0.25840 0.95920 -0.15400
H 	H 	0.64490 0.31180 0.94070 0.10800
C 	C 	0.14850 0.20060 0.24340 0.15700
C 	C 	0.61120 0.69380 0.22410 0.10400
C 	C 	0.39490 0.48590 0.35430 0.13800
C 	C 	0.53390 0.62270 0.26890 -0.06700
C 	C 	0.11440 0.39990 0.48190 -0.11500
H 	H 	0.06100 0.38500 0.45040 0.07100
C 	C 	0.10770 0.49790 0.69440 -0.10600
H 	H 	0.17600 0.53390 0.66820 0.06400
C 	C 	0.12530 0.42910 0.59590 -0.02000
C 	C 	0.27210 0.44310 0.57670 -0.01100
H 	H 	0.32600 0.45810 0.60800 0.03800
C 	C 	0.05860 0.43940 0.66480 0.03900
C 	C 	0.95240 0.45110 0.80110 -0.09200
C 	C 	0.57070 0.10120 0.01180 0.06400
H 	H 	0.55260 0.04740 0.03010 0.00100
C 	C 	0.37100 0.29540 0.98720 0.10500
C 	C 	0.27830 0.36070 0.35910 0.14500
C 	C 	0.56450 0.54710 0.25730 0.03100
H 	H 	0.63300 0.54210 0.22060 0.01700
C 	C 	0.84210 0.89240 0.08600 0.40600
C 	C 	0.05720 0.50320 0.76170 0.00600
H 	H 	0.09300 0.54170 0.78080 0.03100
C 	C 	0.36380 0.56060 0.36580 -0.15600
H 	H 	0.29540 0.56550 0.40260 0.08600
C 	C 	0.72910 0.20220 0.95910 0.09900
H 	H 	0.82100 0.21890 0.94040 0.00200
C 	C 	0.15400 0.34160 0.03820 0.07500
H 	H 	0.07670 0.33240 0.07280 -0.02500
Zn	Zn	0.86866 0.04619 0.98953 1.22400
O 	O 	0.18670 0.59430 0.08944 -0.32600
O 	O 	0.02580 0.11465 0.92571 -0.47600
O 	O 	0.05210 0.92480 0.92695 -0.46800
O 	O 	0.84710 0.98859 0.91281 -0.45500
C 	C 	0.79510 0.91150 0.80910 0.02100
H 	H 	0.73610 0.95400 0.81440 0.03800
O 	O 	0.22880 0.04778 0.93990 -0.44600
O 	O 	0.03920 0.49236 0.10182 -0.47400
N 	N 	0.67310 0.58427 0.60498 -0.17700
N 	N 	0.84220 0.59110 0.00916 -0.27300
N 	N 	0.29520 0.87562 0.01527 -0.27300
C 	C 	0.75270 0.77320 0.65060 0.00200
H 	H 	0.74400 0.82740 0.63240 0.03100
C 	C 	0.76650 0.86540 0.76380 -0.09800
H 	H 	0.68990 0.87820 0.73760 0.06700
C 	C 	0.70770 0.72040 0.61510 -0.13400
H 	H 	0.66760 0.73940 0.57330 0.08100
C 	C 	0.09730 0.54590 0.12410 0.37400
C 	C 	0.38220 0.16880 0.84070 0.08300
H 	H 	0.42910 0.12080 0.85460 0.02000
C 	C 	0.95000 0.59420 0.45310 0.09800
H 	H 	0.04630 0.60590 0.44140 -0.01700
C 	C 	0.97080 0.78550 0.79210 -0.04900
H 	H 	0.03170 0.74410 0.78580 0.03700
C 	C 	0.91280 0.89410 0.84690 -0.08800
C 	C 	0.45490 0.23230 0.79710 -0.15600
H 	H 	0.55020 0.22640 0.78130 0.08700
C 	C 	0.17120 0.24780 0.84230 0.08800
H 	H 	0.07500 0.25310 0.85660 0.01500
C 	C 	0.78220 0.61070 0.70270 -0.13500
H 	H 	0.79340 0.55640 0.71990 0.09100
C 	C 	0.10290 0.60420 0.22900 0.11600
H 	H 	0.17580 0.63770 0.20370 -0.00100
C 	C 	0.81130 0.74500 0.71410 -0.02800
C 	C 	0.24410 0.31160 0.79960 -0.16100
H 	H 	0.19690 0.35960 0.78610 0.09300
C 	C 	0.00120 0.83200 0.83690 -0.02700
H 	H 	0.08180 0.82130 0.86040 0.05300
C 	C 	0.82640 0.66400 0.73940 0.00100
H 	H 	0.86620 0.64480 0.78120 0.03900
C 	C 	0.23770 0.17530 0.86460 -0.15000
C 	C 	0.56890 0.37230 0.67550 0.02900
H 	H 	0.59220 0.32310 0.66620 0.01800
C 	C 	0.74180 0.58410 0.53700 0.15900
C 	C 	0.66320 0.56490 0.48740 -0.17500
H 	H 	0.56550 0.55750 0.49810 0.09300
C 	C 	0.93980 0.94070 0.89930 0.40800
C 	C 	0.05060 0.61030 0.29620 -0.22200
H 	H 	0.08860 0.64790 0.31560 0.10500
C 	C 	0.54050 0.84590 0.98680 -0.09100
H 	H 	0.63200 0.86400 0.96850 0.08200
C 	C 	0.73190 0.58000 0.05920 0.08600
H 	H 	0.72790 0.53290 0.09380 -0.02100
C 	C 	0.62500 0.63330 0.06290 -0.14500
H 	H 	0.54990 0.62200 0.09870 0.08500
C 	C 	0.50230 0.51870 0.70240 -0.15500
H 	H 	0.48000 0.56780 0.71210 0.08700
C 	C 	0.51370 0.76480 0.01310 0.02700
C 	C 	0.74290 0.71710 0.95960 -0.11400
H 	H 	0.74960 0.76330 0.92390 0.08300
C 	C 	0.37630 0.74160 0.04080 -0.14000
H 	H 	0.35510 0.68820 0.05930 0.09700
C 	C 	0.85150 0.79940 0.75660 0.04200
C 	C 	0.38880 0.30620 0.77590 0.10400
C 	C 	0.60510 0.51410 0.64570 0.13800
C 	C 	0.46610 0.37730 0.73110 -0.06800
C 	C 	0.88560 0.60010 0.51810 -0.19400
H 	H 	0.93900 0.61500 0.54960 0.10700
C 	C 	0.89230 0.50210 0.30560 -0.21100
H 	H 	0.82400 0.46610 0.33180 0.10400
C 	C 	0.87470 0.57090 0.40410 -0.10900
C 	C 	0.72790 0.55690 0.42330 0.05600
H 	H 	0.67400 0.54190 0.39200 0.01400
C 	C 	0.94140 0.56060 0.33520 0.16400
C 	C 	0.04760 0.54890 0.19890 -0.19700
C 	C 	0.42930 0.89880 0.98820 0.10700
H 	H 	0.44740 0.95260 0.96990 0.00400
C 	C 	0.62900 0.70460 0.01280 0.04000
C 	C 	0.72170 0.63930 0.64090 0.12700
C 	C 	0.43550 0.45290 0.74270 0.03100
H 	H 	0.36700 0.45790 0.77940 0.01800
C 	C 	0.15790 0.10760 0.91400 0.40900
C 	C 	0.94280 0.49680 0.23830 0.13300
H 	H 	0.90700 0.45830 0.21920 -0.00700
C 	C 	0.63620 0.43940 0.63420 -0.15600
H 	H 	0.70460 0.43450 0.59740 0.08600
C 	C 	0.27090 0.79780 0.04090 0.07400
H 	H 	0.17900 0.78110 0.05960 -0.00400
C 	C 	0.84600 0.65840 0.96180 0.12500
H 	H 	0.92330 0.66760 0.92720 -0.02300
Zn	Zn	-0.00000 0.50000 -0.00000 1.16800
