data_crystal

_cell_length_a 10.76750
_cell_length_b 10.76750
_cell_length_c 13.99400
_cell_angle_alpha 90.00000
_cell_angle_beta  90.00000
_cell_angle_gamma 90.00000

_symmetry_space_group_name_	'P 1'
_symmetry_space_group_name_H-M	'P 1'

loop_
_symmetry_equiv_pos_as_xyz
  x,y,z

loop_
_atom_site_label
_atom_site_type_symbol
_atom_site_fract_x
_atom_site_fract_y
_atom_site_fract_z
_atom_site_charge
Ag	Ag	0.50000 0.50000 0.18206 0.55400
Ag	Ag	0.50000 0.50000 0.81794 0.55000
N 	N 	0.11010 0.11010 0.54960 -0.16800
N 	N 	0.35050 0.35050 0.77600 -0.15800
N 	N 	0.16960 0.16960 0.74240 -0.14800
C 	C 	0.19060 0.19060 0.57460 0.16000
C 	C 	0.22830 0.22830 0.67220 -0.01100
C 	C 	0.31580 0.31580 0.68860 0.01500
H 	H 	0.35350 0.35350 0.63640 0.02900
C 	C 	0.29190 0.29190 0.84590 0.00000
H 	H 	0.31170 0.31170 0.90880 0.01000
C 	C 	0.20470 0.20470 0.82940 -0.00100
H 	H 	0.16700 0.16700 0.88170 0.00100
N 	N 	0.88990 0.88990 0.54960 -0.11400
N 	N 	0.64950 0.64950 0.77600 -0.15400
N 	N 	0.83040 0.83040 0.74240 -0.10900
C 	C 	0.80940 0.80940 0.57460 0.18500
C 	C 	0.77170 0.77170 0.67220 0.01100
C 	C 	0.68420 0.68420 0.68860 0.02500
H 	H 	0.64650 0.64650 0.63640 0.03400
C 	C 	0.70810 0.70810 0.84590 0.01900
H 	H 	0.68830 0.68830 0.90880 0.01800
C 	C 	0.79530 0.79530 0.82940 0.01100
H 	H 	0.83300 0.83300 0.88170 0.04500
N 	N 	0.88990 0.88990 0.45040 -0.11300
N 	N 	0.64950 0.64950 0.22400 -0.15200
N 	N 	0.83040 0.83040 0.25760 -0.10700
C 	C 	0.80940 0.80940 0.42540 0.18500
C 	C 	0.77170 0.77170 0.32780 0.01200
C 	C 	0.68420 0.68420 0.31140 0.02600
H 	H 	0.64650 0.64650 0.36360 0.03400
C 	C 	0.70810 0.70810 0.15410 0.02000
H 	H 	0.68830 0.68830 0.09120 0.03300
C 	C 	0.79530 0.79530 0.17060 0.01500
H 	H 	0.83300 0.83300 0.11830 0.05600
N 	N 	0.11010 0.11010 0.45040 -0.16900
N 	N 	0.35050 0.35050 0.22400 -0.15600
N 	N 	0.16960 0.16960 0.25760 -0.14700
C 	C 	0.19060 0.19060 0.42540 0.16000
C 	C 	0.22830 0.22830 0.32780 -0.01000
C 	C 	0.31580 0.31580 0.31140 0.01600
H 	H 	0.35350 0.35350 0.36360 0.02900
C 	C 	0.29190 0.29190 0.15410 0.00100
H 	H 	0.31170 0.31170 0.09120 0.02500
C 	C 	0.20470 0.20470 0.17060 0.00200
H 	H 	0.16700 0.16700 0.11830 0.01200
O 	O 	0.24590 0.24590 0.50000 -0.25900
O 	O 	0.75410 0.75410 0.50000 -0.25000
Ag	Ag	0.00000 0.00000 0.68206 0.48000
Ag	Ag	0.00000 0.00000 0.31794 0.48100
N 	N 	0.61010 0.38990 0.04960 -0.13500
N 	N 	0.85050 0.14950 0.27600 -0.14500
N 	N 	0.66960 0.33040 0.24240 -0.13300
C 	C 	0.69060 0.30940 0.07460 0.17000
C 	C 	0.72830 0.27170 0.17220 0.00400
C 	C 	0.81580 0.18420 0.18860 0.01900
H 	H 	0.85350 0.14650 0.13640 0.03800
C 	C 	0.79190 0.20810 0.34590 0.00900
H 	H 	0.81170 0.18830 0.40880 0.02600
C 	C 	0.70470 0.29530 0.32940 0.00900
H 	H 	0.66700 0.33300 0.38170 0.02700
N 	N 	0.38990 0.61010 0.04960 -0.13500
N 	N 	0.14950 0.85050 0.27600 -0.14500
N 	N 	0.33040 0.66960 0.24240 -0.13300
C 	C 	0.30940 0.69060 0.07460 0.17000
C 	C 	0.27170 0.72830 0.17220 0.00400
C 	C 	0.18420 0.81580 0.18860 0.01900
H 	H 	0.14650 0.85350 0.13640 0.03800
C 	C 	0.20810 0.79190 0.34590 0.00900
H 	H 	0.18830 0.81170 0.40880 0.02600
C 	C 	0.29530 0.70470 0.32940 0.00900
H 	H 	0.33300 0.66700 0.38170 0.02700
N 	N 	0.38990 0.61010 0.95040 -0.15600
N 	N 	0.14950 0.85050 0.72400 -0.14600
N 	N 	0.33040 0.66960 0.75760 -0.13400
C 	C 	0.30940 0.69060 0.92540 0.13900
C 	C 	0.27170 0.72830 0.82780 0.00500
C 	C 	0.18420 0.81580 0.81140 0.01500
H 	H 	0.14650 0.85350 0.86360 0.02900
C 	C 	0.20810 0.79190 0.65410 0.00900
H 	H 	0.18830 0.81170 0.59120 0.02600
C 	C 	0.29530 0.70470 0.67060 0.00800
H 	H 	0.33300 0.66700 0.61830 0.02700
N 	N 	0.61010 0.38990 0.95040 -0.15600
N 	N 	0.85050 0.14950 0.72400 -0.14600
N 	N 	0.66960 0.33040 0.75760 -0.13400
C 	C 	0.69060 0.30940 0.92540 0.13900
C 	C 	0.72830 0.27170 0.82780 0.00500
C 	C 	0.81580 0.18420 0.81140 0.01500
H 	H 	0.85350 0.14650 0.86360 0.02900
C 	C 	0.79190 0.20810 0.65410 0.00900
H 	H 	0.81170 0.18830 0.59120 0.02600
C 	C 	0.70470 0.29530 0.67060 0.00800
H 	H 	0.66700 0.33300 0.61830 0.02700
O 	O 	0.74590 0.25410 -0.00000 -0.22500
O 	O 	0.25410 0.74590 -0.00000 -0.22500
