data_crystal

_cell_length_a 10.87060
_cell_length_b 10.87060
_cell_length_c 13.95900
_cell_angle_alpha 90.00000
_cell_angle_beta  90.00000
_cell_angle_gamma 90.00000

_symmetry_space_group_name_	'P 1'
_symmetry_space_group_name_H-M	'P 1'

loop_
_symmetry_equiv_pos_as_xyz
  x,y,z

loop_
_atom_site_label
_atom_site_type_symbol
_atom_site_fract_x
_atom_site_fract_y
_atom_site_fract_z
_atom_site_charge
Ag	Ag	0.50000 0.50000 0.18513 0.55000
Ag	Ag	0.50000 0.50000 0.81487 0.54800
N 	N 	0.10840 0.10840 0.54980 -0.16600
N 	N 	0.35000 0.35000 0.77530 -0.15700
N 	N 	0.16920 0.16920 0.74350 -0.14800
C 	C 	0.18940 0.18940 0.57530 0.15500
C 	C 	0.22650 0.22650 0.67190 -0.01000
C 	C 	0.31440 0.31440 0.68740 0.01200
H 	H 	0.35130 0.35130 0.63460 0.03000
C 	C 	0.29260 0.29260 0.84550 0.00100
H 	H 	0.31290 0.31290 0.90820 0.01100
C 	C 	0.20410 0.20410 0.83030 -0.00200
H 	H 	0.16730 0.16730 0.88320 0.00100
N 	N 	0.89160 0.89160 0.54980 -0.11000
N 	N 	0.65000 0.65000 0.77530 -0.15300
N 	N 	0.83080 0.83080 0.74350 -0.10900
C 	C 	0.81060 0.81060 0.57530 0.18000
C 	C 	0.77350 0.77350 0.67190 0.01200
C 	C 	0.68560 0.68560 0.68740 0.02200
H 	H 	0.64870 0.64870 0.63460 0.03500
C 	C 	0.70740 0.70740 0.84550 0.02000
H 	H 	0.68710 0.68710 0.90820 0.01800
C 	C 	0.79590 0.79590 0.83030 0.01200
H 	H 	0.83270 0.83270 0.88320 0.04400
N 	N 	0.89160 0.89160 0.45020 -0.11000
N 	N 	0.65000 0.65000 0.22470 -0.15100
N 	N 	0.83080 0.83080 0.25650 -0.10800
C 	C 	0.81060 0.81060 0.42470 0.18100
C 	C 	0.77350 0.77350 0.32810 0.01200
C 	C 	0.68560 0.68560 0.31260 0.02300
H 	H 	0.64870 0.64870 0.36540 0.03500
C 	C 	0.70740 0.70740 0.15450 0.02100
H 	H 	0.68710 0.68710 0.09180 0.03300
C 	C 	0.79590 0.79590 0.16970 0.01500
H 	H 	0.83270 0.83270 0.11680 0.05500
N 	N 	0.10840 0.10840 0.45020 -0.16600
N 	N 	0.35000 0.35000 0.22470 -0.15500
N 	N 	0.16920 0.16920 0.25650 -0.14600
C 	C 	0.18940 0.18940 0.42470 0.15600
C 	C 	0.22650 0.22650 0.32810 -0.00900
C 	C 	0.31440 0.31440 0.31260 0.01300
H 	H 	0.35130 0.35130 0.36540 0.03000
C 	C 	0.29260 0.29260 0.15450 0.00300
H 	H 	0.31290 0.31290 0.09180 0.02600
C 	C 	0.20410 0.20410 0.16970 0.00200
H 	H 	0.16730 0.16730 0.11680 0.01200
O 	O 	0.24380 0.24380 0.50000 -0.25600
O 	O 	0.75620 0.75620 0.50000 -0.24700
Ag	Ag	-0.00000 -0.00000 0.68513 0.47900
Ag	Ag	-0.00000 -0.00000 0.31487 0.48000
N 	N 	0.60840 0.39160 0.04980 -0.13200
N 	N 	0.85000 0.15000 0.27530 -0.14500
N 	N 	0.66920 0.33080 0.24350 -0.13300
C 	C 	0.68940 0.31060 0.07530 0.16500
C 	C 	0.72650 0.27350 0.17190 0.00400
C 	C 	0.81440 0.18560 0.18740 0.01700
H 	H 	0.85130 0.14870 0.13460 0.03900
C 	C 	0.79260 0.20740 0.34550 0.01100
H 	H 	0.81290 0.18710 0.40820 0.02600
C 	C 	0.70410 0.29590 0.33030 0.00900
H 	H 	0.66730 0.33270 0.38320 0.02700
N 	N 	0.39160 0.60840 0.04980 -0.13200
N 	N 	0.15000 0.85000 0.27530 -0.14500
N 	N 	0.33080 0.66920 0.24350 -0.13300
C 	C 	0.31060 0.68940 0.07530 0.16500
C 	C 	0.27350 0.72650 0.17190 0.00400
C 	C 	0.18560 0.81440 0.18740 0.01700
H 	H 	0.14870 0.85130 0.13460 0.03900
C 	C 	0.20740 0.79260 0.34550 0.01100
H 	H 	0.18710 0.81290 0.40820 0.02600
C 	C 	0.29590 0.70410 0.33030 0.00900
H 	H 	0.33270 0.66730 0.38320 0.02700
N 	N 	0.39160 0.60840 0.95020 -0.15300
N 	N 	0.15000 0.85000 0.72470 -0.14500
N 	N 	0.33080 0.66920 0.75650 -0.13400
C 	C 	0.31060 0.68940 0.92470 0.13500
C 	C 	0.27350 0.72650 0.82810 0.00600
C 	C 	0.18560 0.81440 0.81260 0.01300
H 	H 	0.14870 0.85130 0.86540 0.03000
C 	C 	0.20740 0.79260 0.65450 0.01000
H 	H 	0.18710 0.81290 0.59180 0.02600
C 	C 	0.29590 0.70410 0.66970 0.00800
H 	H 	0.33270 0.66730 0.61680 0.02700
N 	N 	0.60840 0.39160 0.95020 -0.15300
N 	N 	0.85000 0.15000 0.72470 -0.14500
N 	N 	0.66920 0.33080 0.75650 -0.13400
C 	C 	0.68940 0.31060 0.92470 0.13500
C 	C 	0.72650 0.27350 0.82810 0.00600
C 	C 	0.81440 0.18560 0.81260 0.01300
H 	H 	0.85130 0.14870 0.86540 0.03000
C 	C 	0.79260 0.20740 0.65450 0.01000
H 	H 	0.81290 0.18710 0.59180 0.02600
C 	C 	0.70410 0.29590 0.66970 0.00800
H 	H 	0.66730 0.33270 0.61680 0.02700
O 	O 	0.74380 0.25620 -0.00000 -0.22300
O 	O 	0.25620 0.74380 -0.00000 -0.22300
