data_crystal

_cell_length_a 28.52800
_cell_length_b 8.42600
_cell_length_c 16.15900
_cell_angle_alpha 90.00000
_cell_angle_beta  90.00000
_cell_angle_gamma 90.00000

_symmetry_space_group_name_	'P 1'
_symmetry_space_group_name_H-M	'P 1'

loop_
_symmetry_equiv_pos_as_xyz
  x,y,z

loop_
_atom_site_label
_atom_site_type_symbol
_atom_site_fract_x
_atom_site_fract_y
_atom_site_fract_z
_atom_site_charge
Zn	Zn	0.12261 0.25865 0.23405 1.23300
O 	O 	0.05331 0.06490 0.43360 -0.45000
O 	O 	0.07547 0.24490 0.31710 -0.47100
O 	O 	0.10473 0.29450 0.46288 -0.45800
O 	O 	0.09382 0.82310 0.62941 -0.43500
O 	O 	0.07814 0.66050 0.50150 -0.45200
O 	O 	0.01282 0.81430 0.56638 -0.43600
P 	P 	0.06586 0.23337 0.40852 0.46600
H 	H 	0.02910 0.32300 0.42500 -0.07400
P 	P 	0.05834 0.72480 0.58173 0.44400
H 	H 	0.04760 0.59900 0.62600 -0.07000
Zn	Zn	0.12261 0.75865 0.73405 1.23500
O 	O 	0.05331 0.56490 0.93360 -0.47000
O 	O 	0.07547 0.74490 0.81710 -0.46500
O 	O 	0.10473 0.79450 0.96288 -0.47300
O 	O 	0.09382 0.32310 0.12941 -0.43400
O 	O 	0.07814 0.16050 0.00150 -0.41600
O 	O 	0.01282 0.31430 0.06638 -0.42700
P 	P 	0.06586 0.73337 0.90852 0.46800
H 	H 	0.02910 0.82300 0.92500 -0.08500
P 	P 	0.05834 0.22480 0.08173 0.44200
H 	H 	0.04760 0.09900 0.12600 -0.07200
Zn	Zn	0.62261 0.25865 0.73405 1.23300
O 	O 	0.55331 0.06490 0.93360 -0.47600
O 	O 	0.57547 0.24490 0.81710 -0.46900
O 	O 	0.60473 0.29450 0.96288 -0.48900
O 	O 	0.59382 0.82310 0.12941 -0.41600
O 	O 	0.57814 0.66050 0.00150 -0.39100
O 	O 	0.51282 0.81430 0.06638 -0.38400
P 	P 	0.56586 0.23337 0.90852 0.46800
H 	H 	0.52910 0.32300 0.92500 -0.08300
P 	P 	0.55834 0.72480 0.08173 0.44400
H 	H 	0.54760 0.59900 0.12600 -0.05100
Zn	Zn	0.62261 0.75865 0.23405 1.23700
O 	O 	0.55331 0.56490 0.43360 -0.42000
O 	O 	0.57547 0.74490 0.31710 -0.45200
O 	O 	0.60473 0.79450 0.46288 -0.43500
O 	O 	0.59382 0.32310 0.62941 -0.44400
O 	O 	0.57814 0.16050 0.50150 -0.46200
O 	O 	0.51282 0.31430 0.56638 -0.43400
P 	P 	0.56586 0.73337 0.40852 0.46900
H 	H 	0.52910 0.82300 0.42500 -0.04800
P 	P 	0.55834 0.22480 0.58173 0.44200
H 	H 	0.54760 0.09900 0.62600 -0.07200
Zn	Zn	0.87739 0.74135 0.23405 1.23600
O 	O 	0.94669 0.93510 0.43360 -0.37900
O 	O 	0.92453 0.75510 0.31710 -0.44600
O 	O 	0.89527 0.70550 0.46288 -0.44000
O 	O 	0.90618 0.17690 0.62941 -0.44900
O 	O 	0.92186 0.33950 0.50150 -0.44800
O 	O 	0.98718 0.18570 0.56638 -0.41200
P 	P 	0.93414 0.76663 0.40852 0.46900
H 	H 	0.97090 0.67700 0.42500 -0.04000
P 	P 	0.94166 0.27520 0.58173 0.44200
H 	H 	0.95240 0.40100 0.62600 -0.05000
Zn	Zn	0.87739 0.24135 0.73405 1.23300
O 	O 	0.94669 0.43510 0.93360 -0.44200
O 	O 	0.92453 0.25510 0.81710 -0.46300
O 	O 	0.89527 0.20550 0.96288 -0.49300
O 	O 	0.90618 0.67690 0.12941 -0.42200
O 	O 	0.92186 0.83950 0.00150 -0.37900
O 	O 	0.98718 0.68570 0.06638 -0.36900
P 	P 	0.93414 0.26663 0.90852 0.46900
H 	H 	0.97090 0.17700 0.92500 -0.07500
P 	P 	0.94166 0.77520 0.08173 0.44400
H 	H 	0.95240 0.90100 0.12600 -0.03000
Zn	Zn	0.37739 0.74135 0.73405 1.23400
O 	O 	0.44669 0.93510 0.93360 -0.43600
O 	O 	0.42453 0.75510 0.81710 -0.46000
O 	O 	0.39527 0.70550 0.96288 -0.47800
O 	O 	0.40618 0.17690 0.12941 -0.44000
O 	O 	0.42186 0.33950 0.00150 -0.40300
O 	O 	0.48718 0.18570 0.06638 -0.41200
P 	P 	0.43414 0.76663 0.90852 0.46800
H 	H 	0.47090 0.67700 0.92500 -0.07900
P 	P 	0.44166 0.27520 0.08173 0.44300
H 	H 	0.45240 0.40100 0.12600 -0.05000
Zn	Zn	0.37739 0.24135 0.23405 1.23300
O 	O 	0.44669 0.43510 0.43360 -0.41900
O 	O 	0.42453 0.25510 0.31710 -0.46400
O 	O 	0.39527 0.20550 0.46288 -0.46200
O 	O 	0.40618 0.67690 0.62941 -0.44100
O 	O 	0.42186 0.83950 0.50150 -0.43900
O 	O 	0.48718 0.68570 0.56638 -0.42500
P 	P 	0.43414 0.26663 0.40852 0.46800
H 	H 	0.47090 0.17700 0.42500 -0.06700
P 	P 	0.44166 0.77520 0.58173 0.44500
H 	H 	0.45240 0.90100 0.62600 -0.04900
Zn	Zn	0.37261 0.99135 0.48405 1.24800
O 	O 	0.30331 0.18510 0.68360 -0.42200
O 	O 	0.32547 0.00510 0.56710 -0.47700
O 	O 	0.35473 0.95550 0.71288 -0.41400
O 	O 	0.34382 0.42690 0.87941 -0.46800
O 	O 	0.32814 0.58950 0.75150 -0.45100
O 	O 	0.26282 0.43570 0.81638 -0.44100
P 	P 	0.31586 0.01663 0.65852 0.40700
H 	H 	0.27910 0.92700 0.67500 -0.02600
P 	P 	0.30834 0.52520 0.83173 0.44300
H 	H 	0.29760 0.65100 0.87600 -0.06800
Zn	Zn	0.37261 0.49135 0.98405 1.20700
O 	O 	0.30331 0.68510 0.18360 -0.40100
O 	O 	0.32547 0.50510 0.06710 -0.41800
O 	O 	0.35473 0.45550 0.21288 -0.44300
O 	O 	0.34382 0.92690 0.37941 -0.40200
O 	O 	0.32814 0.08950 0.25150 -0.45100
O 	O 	0.26282 0.93570 0.31638 -0.38700
P 	P 	0.31586 0.51663 0.15852 0.46700
H 	H 	0.27910 0.42700 0.17500 -0.05300
P 	P 	0.30834 0.02520 0.33173 0.37900
H 	H 	0.29760 0.15100 0.37600 -0.05700
Zn	Zn	0.87261 0.99135 0.98405 1.22000
O 	O 	0.80331 0.18510 0.18360 -0.40800
O 	O 	0.82547 0.00510 0.06710 -0.43500
O 	O 	0.85473 0.95550 0.21288 -0.40400
O 	O 	0.84382 0.42690 0.37941 -0.44400
O 	O 	0.82814 0.58950 0.25150 -0.44300
O 	O 	0.76282 0.43570 0.31638 -0.42900
P 	P 	0.81586 0.01663 0.15852 0.40500
H 	H 	0.77910 0.92700 0.17500 -0.01900
P 	P 	0.80834 0.52520 0.33173 0.44300
H 	H 	0.79760 0.65100 0.37600 -0.05500
Zn	Zn	0.87261 0.49135 0.48405 1.23500
O 	O 	0.80331 0.68510 0.68360 -0.41300
O 	O 	0.82547 0.50510 0.56710 -0.45900
O 	O 	0.85473 0.45550 0.71288 -0.44900
O 	O 	0.84382 0.92690 0.87941 -0.42400
O 	O 	0.82814 0.08950 0.75150 -0.45600
O 	O 	0.76282 0.93570 0.81638 -0.40000
P 	P 	0.81586 0.51663 0.65852 0.46800
H 	H 	0.77910 0.42700 0.67500 -0.06000
P 	P 	0.80834 0.02520 0.83173 0.38300
H 	H 	0.79760 0.15100 0.87600 -0.07000
Zn	Zn	0.12739 0.50865 0.48405 1.23400
O 	O 	0.19669 0.31490 0.68360 -0.43100
O 	O 	0.17453 0.49490 0.56710 -0.46000
O 	O 	0.14527 0.54450 0.71288 -0.45600
O 	O 	0.15618 0.07310 0.87941 -0.50200
O 	O 	0.17186 0.91050 0.75150 -0.44800
O 	O 	0.23718 0.06430 0.81638 -0.47800
P 	P 	0.18414 0.48337 0.65852 0.46800
H 	H 	0.22090 0.57300 0.67500 -0.05700
P 	P 	0.19166 0.97480 0.83173 0.50500
H 	H 	0.20240 0.84900 0.87600 -0.07300
Zn	Zn	0.12739 0.00865 0.98405 1.19400
O 	O 	0.19669 0.81490 0.18360 -0.41000
O 	O 	0.17453 0.99490 0.06710 -0.40200
O 	O 	0.14527 0.04450 0.21288 -0.48600
O 	O 	0.15618 0.57310 0.37941 -0.43800
O 	O 	0.17186 0.41050 0.25150 -0.44700
O 	O 	0.23718 0.56430 0.31638 -0.42600
P 	P 	0.18414 0.98337 0.15852 0.53000
H 	H 	0.22090 0.07300 0.17500 -0.08500
P 	P 	0.19166 0.47480 0.33173 0.44400
H 	H 	0.20240 0.34900 0.37600 -0.06200
Zn	Zn	0.62739 0.50865 0.98405 1.20700
O 	O 	0.69669 0.31490 0.18360 -0.41700
O 	O 	0.67453 0.49490 0.06710 -0.41900
O 	O 	0.64527 0.54450 0.21288 -0.44600
O 	O 	0.65618 0.07310 0.37941 -0.48000
O 	O 	0.67186 0.91050 0.25150 -0.44000
O 	O 	0.73718 0.06430 0.31638 -0.46800
P 	P 	0.68414 0.48337 0.15852 0.46800
H 	H 	0.72090 0.57300 0.17500 -0.04900
P 	P 	0.69166 0.97480 0.33173 0.50700
H 	H 	0.70240 0.84900 0.37600 -0.06100
Zn	Zn	0.62739 0.00865 0.48405 1.22100
O 	O 	0.69669 0.81490 0.68360 -0.42200
O 	O 	0.67453 0.99490 0.56710 -0.44200
O 	O 	0.64527 0.04450 0.71288 -0.49000
O 	O 	0.65618 0.57310 0.87941 -0.45800
O 	O 	0.67186 0.41050 0.75150 -0.45300
O 	O 	0.73718 0.56430 0.81638 -0.43700
P 	P 	0.68414 0.98337 0.65852 0.52900
H 	H 	0.72090 0.07300 0.67500 -0.09000
P 	P 	0.69166 0.47480 0.83173 0.44300
H 	H 	0.70240 0.34900 0.87600 -0.07500
Zn	Zn	0.00000 0.00000 0.50018 1.21100
Zn	Zn	0.00000 0.50000 0.00018 1.25200
Zn	Zn	0.50000 0.00000 0.00018 1.25200
Zn	Zn	0.50000 0.50000 0.50018 1.23900
Zn	Zn	0.25000 0.25000 0.75018 1.23600
Zn	Zn	0.25000 0.75000 0.25018 1.24200
Zn	Zn	0.75000 0.25000 0.25018 1.23800
Zn	Zn	0.75000 0.75000 0.75018 1.24000
