data_crystal

_cell_length_a 8.86800
_cell_length_b 9.84800
_cell_length_c 13.75200
_cell_angle_alpha 90.00000
_cell_angle_beta  90.00000
_cell_angle_gamma 116.35000

_symmetry_space_group_name_	'P 1'
_symmetry_space_group_name_H-M	'P 1'

loop_
_symmetry_equiv_pos_as_xyz
  x,y,z

loop_
_atom_site_label
_atom_site_type_symbol
_atom_site_fract_x
_atom_site_fract_y
_atom_site_fract_z
_atom_site_charge
Cu	Cu	0.91802 0.47113 0.64837 0.82400
Cu	Cu	0.00000 0.00000 0.84897 0.90800
Cu	Cu	0.41802 0.97113 0.35163 0.82800
Cu	Cu	0.50000 0.50000 0.15103 0.91000
H 	H 	0.32660 0.98710 0.91390 0.02300
H 	H 	0.43900 0.81370 0.89190 0.10600
H 	H 	0.28850 0.59770 0.79870 0.01600
H 	H 	0.65230 0.89170 0.72760 -0.00800
H 	H 	0.49200 0.68290 0.62960 0.06200
H 	H 	0.58720 0.49490 0.60770 -0.02700
H 	H 	0.72860 0.04620 0.96480 0.02200
H 	H 	0.58530 0.20010 0.95500 0.09800
H 	H 	0.67200 0.38520 0.81190 0.01000
H 	H 	0.27680 0.11990 0.63780 -0.02600
H 	H 	0.34250 0.30850 0.51900 0.06300
H 	H 	0.17020 0.45610 0.52580 -0.05100
H 	H 	0.82660 0.48710 0.08610 0.01900
H 	H 	0.93900 0.31370 0.10810 0.10400
H 	H 	0.78850 0.09770 0.20130 0.01500
H 	H 	0.15230 0.39170 0.27240 -0.00700
H 	H 	0.99200 0.18290 0.37040 0.05400
H 	H 	0.08720 0.99490 0.39230 -0.01800
H 	H 	0.22860 0.54620 0.03520 0.02500
H 	H 	0.08530 0.70010 0.04500 0.10000
H 	H 	0.17200 0.88520 0.18810 0.01200
H 	H 	0.77680 0.61990 0.36220 -0.02500
H 	H 	0.84250 0.80850 0.48100 0.06300
H 	H 	0.67020 0.95610 0.47420 -0.05000
C 	C 	0.04430 0.74840 0.78220 0.07100
C 	C 	0.66840 0.20900 0.90740 -0.13400
C 	C 	0.88260 0.72550 0.73870 0.07400
C 	C 	0.70810 0.31080 0.83160 0.09200
C 	C 	0.65190 0.58380 0.64560 0.07400
C 	C 	0.24480 0.67010 0.80810 0.08800
C 	C 	0.89810 0.22990 0.77420 0.06400
C 	C 	0.02530 0.24800 0.69960 0.06800
C 	C 	0.68980 0.81530 0.71630 0.09200
C 	C 	0.21840 0.18190 0.63710 0.08900
C 	C 	0.75190 0.11660 0.91200 0.07600
C 	C 	0.25660 0.29250 0.56630 -0.16900
C 	C 	0.59480 0.69370 0.65920 -0.13800
C 	C 	0.16990 0.37570 0.56540 0.10100
C 	C 	0.33400 0.79710 0.86250 -0.14800
C 	C 	0.26760 0.89780 0.87520 0.08800
C 	C 	0.54430 0.24840 0.21780 0.06700
C 	C 	0.16840 0.70900 0.09260 -0.13300
C 	C 	0.38260 0.22550 0.26130 0.07500
C 	C 	0.20810 0.81080 0.16840 0.09300
C 	C 	0.15190 0.08380 0.35440 0.06000
C 	C 	0.74480 0.17010 0.19190 0.08700
C 	C 	0.39810 0.72990 0.22580 0.06800
C 	C 	0.52530 0.74800 0.30040 0.06600
C 	C 	0.18980 0.31530 0.28370 0.08500
C 	C 	0.71840 0.68190 0.36290 0.09000
C 	C 	0.25190 0.61660 0.08800 0.07700
C 	C 	0.75660 0.79250 0.43370 -0.16800
C 	C 	0.09480 0.19370 0.34080 -0.12600
C 	C 	0.66990 0.87570 0.43460 0.10100
C 	C 	0.83400 0.29710 0.13750 -0.14800
C 	C 	0.76760 0.39780 0.12480 0.08700
S 	S 	0.22800 0.20150 0.02080 0.68700
S 	S 	0.72800 0.70150 0.97920 0.68600
N 	N 	0.12130 0.87530 0.83350 -0.22000
N 	N 	0.09760 0.64390 0.76680 -0.19600
N 	N 	0.83390 0.83160 0.75690 -0.21400
N 	N 	0.79860 0.60310 0.68440 -0.23800
N 	N 	0.86610 0.12700 0.84440 -0.20600
N 	N 	0.82310 0.32040 0.76510 -0.22500
N 	N 	0.09970 0.15710 0.70350 -0.18500
N 	N 	0.05380 0.35530 0.63320 -0.25200
N 	N 	0.62130 0.37530 0.16650 -0.22200
N 	N 	0.59760 0.14390 0.23320 -0.19800
N 	N 	0.33390 0.33160 0.24310 -0.21400
N 	N 	0.29860 0.10310 0.31560 -0.23700
N 	N 	0.36610 0.62700 0.15560 -0.20500
N 	N 	0.32310 0.82040 0.23490 -0.22400
N 	N 	0.59970 0.65710 0.29650 -0.18400
N 	N 	0.55380 0.85530 0.36680 -0.25200
O 	O 	0.18720 0.16440 0.91480 -0.40100
O 	O 	0.34590 0.36200 0.02370 -0.36300
O 	O 	0.30540 0.10860 0.05840 -0.30000
O 	O 	0.07430 0.17280 0.07250 -0.29900
O 	O 	0.68720 0.66440 0.08520 -0.39900
O 	O 	0.84590 0.86200 0.97630 -0.36000
O 	O 	0.80540 0.60860 0.94160 -0.29900
O 	O 	0.57430 0.67280 0.92750 -0.29900
