data_crystal

_cell_length_a 9.36600
_cell_length_b 9.88200
_cell_length_c 19.18300
_cell_angle_alpha 85.40600
_cell_angle_beta  85.02900
_cell_angle_gamma 114.48500

_symmetry_space_group_name_	'P 1'
_symmetry_space_group_name_H-M	'P 1'

loop_
_symmetry_equiv_pos_as_xyz
  x,y,z

loop_
_atom_site_label
_atom_site_type_symbol
_atom_site_fract_x
_atom_site_fract_y
_atom_site_fract_z
_atom_site_charge
Zn	Zn	0.74600 0.45930 0.66678 1.21000
Zn	Zn	0.36080 0.06030 0.81849 1.24000
Zn	Zn	0.11170 0.12550 0.56979 1.23200
Zn	Zn	0.66700 0.66490 0.94415 1.23500
Zn	Zn	0.79140 0.88620 0.73017 1.23500
P 	P 	0.39020 0.24110 0.67450 0.56100
P 	P 	0.43270 0.35090 0.89880 0.52000
P 	P 	0.00100 0.81600 0.84070 0.60900
P 	P 	0.85010 0.19150 0.65370 0.55300
P 	P 	0.47940 0.78930 0.84930 0.61800
P 	P 	0.85800 0.77840 0.58730 0.52000
O 	O 	0.86400 0.33980 0.67440 -0.44500
O 	O 	0.88850 0.63580 0.60300 -0.41600
O 	O 	0.53800 0.37600 0.63820 -0.44200
O 	O 	0.13300 0.97000 0.84170 -0.43900
O 	O 	0.44190 0.14100 0.72110 -0.49900
O 	O 	0.45830 0.21060 0.88220 -0.41000
O 	O 	0.42100 0.91000 0.85630 -0.43800
O 	O 	0.29200 0.16200 0.62150 -0.43100
O 	O 	0.95800 0.21000 0.58790 -0.42900
O 	O 	0.77050 0.76090 0.52210 -0.40000
O 	O 	0.01920 0.91210 0.57390 -0.47600
O 	O 	0.58110 0.45890 0.92560 -0.47400
O 	O 	0.29200 0.30400 0.95760 -0.40600
O 	O 	0.54300 0.76900 0.91660 -0.45800
O 	O 	0.89000 0.77300 0.90700 -0.44500
O 	O 	0.74660 0.78400 0.64880 -0.47400
O 	O 	0.87500 0.10000 0.71500 -0.46600
O 	O 	0.91600 0.79800 0.77670 -0.49300
O 	O 	0.58800 0.81500 0.78570 -0.49900
O 	O 	0.28600 0.29800 0.72200 -0.37200
O 	O 	0.39800 0.41900 0.83210 -0.33900
O 	O 	0.06600 0.69300 0.83800 -0.36100
O 	O 	0.67500 0.10400 0.63420 -0.35400
O 	O 	0.32800 0.64300 0.84330 -0.37600
H 	H 	0.32900 0.34500 0.76440 0.19300
H 	H 	0.16300 0.67500 0.84000 0.22400
H 	H 	0.59200 0.11700 0.66530 0.18000
H 	H 	0.35500 0.55600 0.83890 0.21300
Zn	Zn	0.25400 0.54070 0.33322 1.20900
Zn	Zn	0.63920 0.93970 0.18151 1.23900
Zn	Zn	0.88830 0.87450 0.43021 1.23200
Zn	Zn	0.33300 0.33510 0.05585 1.23500
Zn	Zn	0.20860 0.11380 0.26983 1.23500
P 	P 	0.60980 0.75890 0.32550 0.56100
P 	P 	0.56730 0.64910 0.10120 0.52000
P 	P 	0.99900 0.18400 0.15930 0.60900
P 	P 	0.14990 0.80850 0.34630 0.55300
P 	P 	0.52060 0.21070 0.15070 0.61800
P 	P 	0.14200 0.22160 0.41270 0.52000
O 	O 	0.13600 0.66020 0.32560 -0.44500
O 	O 	0.11150 0.36420 0.39700 -0.41600
O 	O 	0.46200 0.62400 0.36180 -0.44200
O 	O 	0.86700 0.03000 0.15830 -0.43900
O 	O 	0.55810 0.85900 0.27890 -0.49900
O 	O 	0.54170 0.78940 0.11780 -0.41000
O 	O 	0.57900 0.09000 0.14370 -0.43800
O 	O 	0.70800 0.83800 0.37850 -0.43100
O 	O 	0.04200 0.79000 0.41210 -0.42900
O 	O 	0.22950 0.23910 0.47790 -0.40000
O 	O 	0.98080 0.08790 0.42610 -0.47600
O 	O 	0.41890 0.54110 0.07440 -0.47400
O 	O 	0.70800 0.69600 0.04240 -0.40600
O 	O 	0.45700 0.23100 0.08340 -0.45800
O 	O 	0.11000 0.22700 0.09300 -0.44500
O 	O 	0.25340 0.21600 0.35120 -0.47400
O 	O 	0.12500 0.90000 0.28500 -0.46600
O 	O 	0.08400 0.20200 0.22330 -0.49300
O 	O 	0.41200 0.18500 0.21430 -0.49900
O 	O 	0.71400 0.70200 0.27800 -0.37200
O 	O 	0.60200 0.58100 0.16790 -0.33900
O 	O 	0.93400 0.30700 0.16200 -0.36100
O 	O 	0.32500 0.89600 0.36580 -0.35400
O 	O 	0.67200 0.35700 0.15670 -0.37600
H 	H 	0.67100 0.65500 0.23560 0.19300
H 	H 	0.83700 0.32500 0.16000 0.22400
H 	H 	0.40800 0.88300 0.33470 0.18000
H 	H 	0.64500 0.44400 0.16110 0.21300
