data_crystal

_cell_length_a 7.47400
_cell_length_b 11.68230
_cell_length_c 28.15500
_cell_angle_alpha 88.01700
_cell_angle_beta  83.79000
_cell_angle_gamma 71.34400

_symmetry_space_group_name_	'P 1'
_symmetry_space_group_name_H-M	'P 1'

loop_
_symmetry_equiv_pos_as_xyz
  x,y,z

loop_
_atom_site_label
_atom_site_type_symbol
_atom_site_fract_x
_atom_site_fract_y
_atom_site_fract_z
_atom_site_charge
Co	Co	0.11902 0.76196 0.25000 1.16000
Co	Co	0.88098 0.23804 0.75000 1.16000
Cu	Cu	0.41121 0.13316 0.03193 0.91600
Cu	Cu	0.45563 0.13316 0.46807 0.91600
Cu	Cu	0.58879 0.86684 0.96807 0.91600
Cu	Cu	0.54437 0.86684 0.53193 0.91600
H 	H 	0.44100 0.95000 0.11900 0.04800
H 	H 	0.66800 0.92800 0.18000 0.11200
H 	H 	0.89500 0.04200 0.15400 0.03400
H 	H 	0.78600 0.17200 0.03800 0.10700
H 	H 	0.92200 0.17000 0.07700 0.12300
H 	H 	0.78300 0.44600 0.05300 0.09500
H 	H 	0.50100 0.68400 0.02000 0.07300
H 	H 	0.66500 0.58600 0.99100 0.08300
H 	H 	0.05800 0.44200 0.92100 0.05300
H 	H 	0.07700 0.10600 0.97000 0.05900
H 	H 	0.56700 0.29200 0.15200 0.09800
H 	H 	0.43500 0.44800 0.21000 0.08600
H 	H 	0.41700 0.58200 0.19800 0.07300
H 	H 	0.15700 0.38400 0.16000 0.06300
H 	H 	0.79700 0.49200 0.17600 0.05800
H 	H 	0.76690 0.68800 0.20900 0.02700
H 	H 	0.60900 0.95000 0.38100 0.04900
H 	H 	0.40400 0.92800 0.32000 0.11300
H 	H 	0.06300 0.04200 0.34600 0.03200
H 	H 	0.04200 0.17200 0.46200 0.10800
H 	H 	0.90800 0.17000 0.42300 0.12400
H 	H 	0.77100 0.44600 0.44700 0.09400
H 	H 	0.81500 0.68400 0.48000 0.07200
H 	H 	0.74900 0.58600 0.50900 0.08300
H 	H 	0.50000 0.44200 0.57900 0.05200
H 	H 	0.81700 0.10600 0.53000 0.05700
H 	H 	0.14100 0.29200 0.34800 0.09700
H 	H 	0.11700 0.44800 0.29000 0.08400
H 	H 	0.00100 0.58200 0.30200 0.06900
H 	H 	0.45900 0.38400 0.34000 0.06200
H 	H 	0.71100 0.49200 0.32400 0.06000
H 	H 	0.54510 0.68800 0.29100 0.02800
H 	H 	0.55900 0.05000 0.88100 0.04800
H 	H 	0.33200 0.07200 0.82000 0.11200
H 	H 	0.10500 0.95800 0.84600 0.03400
H 	H 	0.21400 0.82800 0.96200 0.10700
H 	H 	0.07800 0.83000 0.92300 0.12300
H 	H 	0.21700 0.55400 0.94700 0.09500
H 	H 	0.49900 0.31600 0.98000 0.07300
H 	H 	0.33500 0.41400 0.00900 0.08300
H 	H 	0.94200 0.55800 0.07900 0.05300
H 	H 	0.92300 0.89400 0.03000 0.05900
H 	H 	0.43300 0.70800 0.84800 0.09800
H 	H 	0.56500 0.55200 0.79000 0.08600
H 	H 	0.58300 0.41800 0.80200 0.07300
H 	H 	0.84300 0.61600 0.84000 0.06300
H 	H 	0.20300 0.50800 0.82400 0.05800
H 	H 	0.23310 0.31200 0.79100 0.02700
H 	H 	0.39100 0.05000 0.61900 0.04900
H 	H 	0.59600 0.07200 0.68000 0.11300
H 	H 	0.93700 0.95800 0.65400 0.03200
H 	H 	0.95800 0.82800 0.53800 0.10800
H 	H 	0.09200 0.83000 0.57700 0.12400
H 	H 	0.22900 0.55400 0.55300 0.09400
H 	H 	0.18500 0.31600 0.52000 0.07200
H 	H 	0.25100 0.41400 0.49100 0.08300
H 	H 	0.50000 0.55800 0.42100 0.05200
H 	H 	0.18300 0.89400 0.47000 0.05700
H 	H 	0.85900 0.70800 0.65200 0.09700
H 	H 	0.88300 0.55200 0.71000 0.08400
H 	H 	0.99900 0.41800 0.69800 0.06900
H 	H 	0.54100 0.61600 0.66000 0.06200
H 	H 	0.28900 0.50800 0.67600 0.06000
H 	H 	0.45490 0.31200 0.70900 0.02800
C 	C 	0.53700 0.99140 0.11910 0.09200
C 	C 	0.66570 0.97220 0.15320 -0.13000
C 	C 	0.77550 0.04100 0.14030 0.06600
C 	C 	0.78580 0.18660 0.07250 -0.18800
C 	C 	0.68110 0.31760 0.08400 0.14800
C 	C 	0.69320 0.40200 0.05010 -0.14900
C 	C 	0.60160 0.52900 0.06030 0.06000
C 	C 	0.62940 0.62100 0.02330 -0.12500
C 	C 	0.09640 0.36000 0.93560 0.00800
C 	C 	0.00950 0.27240 0.93420 0.01600
C 	C 	0.10950 0.18300 0.96260 0.02300
C 	C 	0.50170 0.56400 0.10420 -0.04200
C 	C 	0.48890 0.47480 0.13880 0.10600
C 	C 	0.57730 0.35560 0.12770 -0.16000
C 	C 	0.38800 0.51300 0.18750 -0.16200
C 	C 	0.09280 0.46980 0.17510 0.03200
C 	C 	0.90290 0.52720 0.18350 -0.06900
C 	C 	0.89050 0.63380 0.20410 0.04500
C 	C 	0.47160 0.99140 0.38090 0.09200
C 	C 	0.36210 0.97220 0.34680 -0.13600
C 	C 	0.18350 0.04100 0.35970 0.07000
C 	C 	0.02760 0.18660 0.42750 -0.18900
C 	C 	0.00130 0.31760 0.41600 0.14400
C 	C 	0.90480 0.40200 0.44990 -0.14500
C 	C 	0.86940 0.52900 0.43970 0.05800
C 	C 	0.74960 0.62100 0.47670 -0.12400
C 	C 	0.54360 0.36000 0.56440 0.00900
C 	C 	0.71810 0.27240 0.56580 0.01300
C 	C 	0.70750 0.18300 0.53740 0.02400
C 	C 	0.93430 0.56400 0.39580 -0.03500
C 	C 	0.03630 0.47480 0.36120 0.09900
C 	C 	0.06710 0.35560 0.37230 -0.15700
C 	C 	0.09900 0.51300 0.31250 -0.15700
C 	C 	0.43740 0.46980 0.32490 0.03800
C 	C 	0.56990 0.52720 0.31650 -0.07400
C 	C 	0.47570 0.63380 0.29590 0.04100
C 	C 	0.46300 0.00860 0.88090 0.09200
C 	C 	0.33430 0.02780 0.84680 -0.13000
C 	C 	0.22450 0.95900 0.85970 0.06600
C 	C 	0.21420 0.81340 0.92750 -0.18800
C 	C 	0.31890 0.68240 0.91600 0.14800
C 	C 	0.30680 0.59800 0.94990 -0.14900
C 	C 	0.39840 0.47100 0.93970 0.06000
C 	C 	0.37060 0.37900 0.97670 -0.12500
C 	C 	0.90360 0.64000 0.06440 0.00800
C 	C 	0.99050 0.72760 0.06580 0.01600
C 	C 	0.89050 0.81700 0.03740 0.02300
C 	C 	0.49830 0.43600 0.89580 -0.04200
C 	C 	0.51110 0.52520 0.86120 0.10600
C 	C 	0.42270 0.64440 0.87230 -0.16000
C 	C 	0.61200 0.48700 0.81250 -0.16200
C 	C 	0.90720 0.53020 0.82490 0.03200
C 	C 	0.09710 0.47280 0.81650 -0.06900
C 	C 	0.10950 0.36620 0.79590 0.04500
C 	C 	0.52840 0.00860 0.61910 0.09200
C 	C 	0.63790 0.02780 0.65320 -0.13600
C 	C 	0.81650 0.95900 0.64030 0.07000
C 	C 	0.97240 0.81340 0.57250 -0.18900
C 	C 	0.99870 0.68240 0.58400 0.14400
C 	C 	0.09520 0.59800 0.55010 -0.14500
C 	C 	0.13060 0.47100 0.56030 0.05800
C 	C 	0.25040 0.37900 0.52330 -0.12400
C 	C 	0.45640 0.64000 0.43560 0.00900
C 	C 	0.28190 0.72760 0.43420 0.01300
C 	C 	0.29250 0.81700 0.46260 0.02400
C 	C 	0.06570 0.43600 0.60420 -0.03500
C 	C 	0.96370 0.52520 0.63880 0.09900
C 	C 	0.93290 0.64440 0.62770 -0.15700
C 	C 	0.90100 0.48700 0.68750 -0.15700
C 	C 	0.56260 0.53020 0.67510 0.03800
C 	C 	0.43010 0.47280 0.68350 -0.07400
C 	C 	0.52430 0.36620 0.70410 0.04100
N 	N 	0.56790 0.06740 0.08570 -0.17400
N 	N 	0.71750 0.09680 0.09960 -0.06400
N 	N 	0.23590 0.32120 0.96320 -0.06300
N 	N 	0.24850 0.20900 0.98020 -0.16000
N 	N 	0.18000 0.54180 0.18840 -0.07000
N 	N 	0.05970 0.64660 0.20890 -0.21800
N 	N 	0.36470 0.06740 0.41430 -0.17400
N 	N 	0.18570 0.09680 0.40040 -0.06400
N 	N 	0.44290 0.32120 0.53680 -0.06300
N 	N 	0.54250 0.20900 0.51980 -0.16100
N 	N 	0.27820 0.54180 0.31160 -0.07100
N 	N 	0.29370 0.64660 0.29110 -0.21500
N 	N 	0.43210 0.93260 0.91430 -0.17400
N 	N 	0.28250 0.90320 0.90040 -0.06400
N 	N 	0.76410 0.67880 0.03680 -0.06300
N 	N 	0.75150 0.79100 0.01980 -0.16000
N 	N 	0.82000 0.45820 0.81160 -0.07000
N 	N 	0.94030 0.35340 0.79110 -0.21800
N 	N 	0.63530 0.93260 0.58570 -0.17400
N 	N 	0.81430 0.90320 0.59960 -0.06400
N 	N 	0.55710 0.67880 0.46320 -0.06300
N 	N 	0.45750 0.79100 0.48020 -0.16100
N 	N 	0.72180 0.45820 0.68840 -0.07100
N 	N 	0.70630 0.35340 0.70890 -0.21500
Cl	Cl	0.30153 0.85554 0.20950 -0.52100
Cl	Cl	0.19758 0.26624 0.08367 -0.46100
Cl	Cl	0.67717 0.06366 0.97294 -0.52900
Cl	Cl	0.84293 0.85554 0.29050 -0.51500
Cl	Cl	0.53618 0.26624 0.41633 -0.45900
Cl	Cl	0.25917 0.06366 0.52706 -0.52800
Cl	Cl	0.69847 0.14446 0.79050 -0.52100
Cl	Cl	0.80242 0.73376 0.91633 -0.46100
Cl	Cl	0.32283 0.93634 0.02706 -0.52900
Cl	Cl	0.15707 0.14446 0.70950 -0.51500
Cl	Cl	0.46382 0.73376 0.58367 -0.45900
Cl	Cl	0.74083 0.93634 0.47294 -0.52800
