data_crystal

_cell_length_a 12.35100
_cell_length_b 16.58300
_cell_length_c 18.98700
_cell_angle_alpha 90.00000
_cell_angle_beta  115.83700
_cell_angle_gamma 90.00000

_symmetry_space_group_name_	'P 1'
_symmetry_space_group_name_H-M	'P 1'

loop_
_symmetry_equiv_pos_as_xyz
  x,y,z

loop_
_atom_site_label
_atom_site_type_symbol
_atom_site_fract_x
_atom_site_fract_y
_atom_site_fract_z
_atom_site_charge
Co	Co	0.12336 0.98162 0.29140 1.07100
C 	C 	0.99970 0.05740 0.38890 0.08600
H 	H 	0.92520 0.05040 0.34630 -0.03100
N 	N 	0.10330 0.04350 0.38330 -0.26400
C 	C 	0.18540 0.06200 0.45270 0.07000
H 	H 	0.26790 0.06260 0.46800 0.00000
N 	N 	0.00850 0.08080 0.45630 -0.10100
C 	C 	0.19000 0.10590 0.58020 -0.28400
H 	H 	0.27490 0.09490 0.59950 0.11600
H 	H 	0.15990 0.07190 0.60950 0.11100
N 	N 	0.13090 0.08010 0.49870 -0.06100
C 	C 	0.17800 0.17970 0.59690 0.23600
H 	H 	0.13940 0.17590 0.63140 -0.04000
H 	H 	0.26010 0.19680 0.62980 -0.04800
N 	N 	0.05310 0.32430 0.63170 -0.12200
C 	C 	0.12280 0.25030 0.54840 -0.36200
H 	H 	0.09620 0.23530 0.49400 0.15000
H 	H 	0.18390 0.29160 0.56040 0.13600
N 	N 	0.05190 0.28080 0.69260 -0.10900
C 	C 	0.02150 0.28510 0.55710 0.12000
H 	H 	0.96370 0.24270 0.55060 -0.00400
H 	H 	0.98250 0.32420 0.51570 -0.00800
N 	N 	0.09800 0.41060 0.72730 -0.26700
C 	C 	0.07810 0.39970 0.65320 0.09300
H 	H 	0.08150 0.44060 0.62070 -0.02300
N 	N 	0.13420 0.89450 0.21240 -0.27300
C 	C 	0.07970 0.33430 0.74720 0.08500
H 	H 	0.08690 0.32170 0.79670 -0.01000
N 	N 	0.08370 0.77880 0.14390 -0.10200
C 	C 	0.04700 0.84430 0.16640 0.07900
H 	H 	0.96600 0.85490 0.15140 -0.02600
N 	N 	0.20470 0.78780 0.18250 -0.10500
C 	C 	0.23150 0.85580 0.22090 0.08900
H 	H 	0.30950 0.87430 0.25050 -0.01700
N 	N 	0.50960 0.54760 0.11880 -0.09300
C 	C 	0.29000 0.72340 0.18180 -0.00400
H 	H 	0.28180 0.67680 0.21000 0.02800
H 	H 	0.37160 0.74330 0.20980 0.03000
N 	N 	0.48440 0.47790 0.07880 -0.10300
C 	C 	0.27150 0.69750 0.10320 -0.17200
H 	H 	0.20530 0.65940 0.08240 0.08400
H 	H 	0.25050 0.74380 0.06850 0.08200
N 	N 	0.68290 0.49310 0.15250 -0.25900
C 	C 	0.38500 0.65800 0.10600 -0.01500
H 	H 	0.45480 0.68610 0.14400 -0.03200
H 	H 	0.38520 0.66370 0.05520 0.00800
C 	C 	0.67700 0.38700 0.89270 0.00500
H 	H 	0.72820 0.41900 0.93770 0.00100
H 	H 	0.66770 0.41460 0.84530 0.01800
C 	C 	0.39400 0.57140 0.12700 -0.13000
H 	H 	0.40370 0.56350 0.17980 0.05600
H 	H 	0.32490 0.54130 0.09080 0.07000
C 	C 	0.56700 0.37290 0.89200 0.00700
H 	H 	0.57960 0.34770 0.94160 0.02000
H 	H 	0.52180 0.33550 0.85070 0.06200
C 	C 	0.62460 0.55540 0.16110 0.08900
H 	H 	0.66070 0.59930 0.19310 -0.01600
C 	C 	0.59160 0.44680 0.10280 0.10100
H 	H 	0.60440 0.39610 0.08680 -0.02100
Co	Co	0.87664 0.48162 0.20860 1.07100
C 	C 	0.00030 0.55740 0.11110 0.09400
H 	H 	0.07480 0.55040 0.15370 -0.03300
N 	N 	0.89670 0.54350 0.11670 -0.26700
C 	C 	0.81460 0.56200 0.04730 0.06900
H 	H 	0.73210 0.56260 0.03200 0.00000
N 	N 	0.99150 0.58080 0.04370 -0.10500
C 	C 	0.81000 0.60590 0.91980 -0.28400
H 	H 	0.72510 0.59490 0.90050 0.11500
H 	H 	0.84010 0.57190 0.89050 0.11000
N 	N 	0.86910 0.58010 0.00130 -0.06100
C 	C 	0.82200 0.67970 0.90310 0.23800
H 	H 	0.86060 0.67590 0.86860 -0.04100
H 	H 	0.73990 0.69680 0.87020 -0.04800
N 	N 	0.94690 0.82430 0.86830 -0.12200
C 	C 	0.87720 0.75030 0.95160 -0.36400
H 	H 	0.90380 0.73530 0.00600 0.15000
H 	H 	0.81610 0.79160 0.93960 0.13600
N 	N 	0.94810 0.78080 0.80740 -0.10900
C 	C 	0.97850 0.78510 0.94290 0.12600
H 	H 	0.03630 0.74270 0.94940 -0.00600
H 	H 	0.01750 0.82420 0.98430 -0.01100
N 	N 	0.90200 0.91060 0.77270 -0.26600
C 	C 	0.92190 0.89970 0.84680 0.09300
H 	H 	0.91850 0.94060 0.87930 -0.02200
N 	N 	0.86580 0.39450 0.28760 -0.27200
C 	C 	0.92030 0.83430 0.75280 0.08600
H 	H 	0.91310 0.82170 0.70330 -0.01000
N 	N 	0.91630 0.27880 0.35610 -0.10200
C 	C 	0.95300 0.34430 0.33360 0.08100
H 	H 	0.03400 0.35490 0.34860 -0.02800
N 	N 	0.79530 0.28780 0.31750 -0.10500
C 	C 	0.76850 0.35580 0.27910 0.08900
H 	H 	0.69050 0.37430 0.24950 -0.01700
N 	N 	0.49040 0.04760 0.38120 -0.09300
C 	C 	0.71000 0.22340 0.31820 -0.00500
H 	H 	0.71820 0.17680 0.29000 0.02800
H 	H 	0.62840 0.24330 0.29020 0.03000
N 	N 	0.51560 0.97790 0.42120 -0.10300
C 	C 	0.72850 0.19750 0.39680 -0.17200
H 	H 	0.79470 0.15940 0.41760 0.08400
H 	H 	0.74950 0.24380 0.43150 0.08200
N 	N 	0.31710 0.99310 0.34750 -0.26000
C 	C 	0.61500 0.15800 0.39400 -0.01500
H 	H 	0.54520 0.18610 0.35600 -0.03100
H 	H 	0.61480 0.16370 0.44480 0.00800
C 	C 	0.32300 0.88700 0.60730 0.00400
H 	H 	0.27180 0.91900 0.56230 0.00100
H 	H 	0.33230 0.91460 0.65470 0.01800
C 	C 	0.60600 0.07140 0.37300 -0.12900
H 	H 	0.59630 0.06350 0.32020 0.05600
H 	H 	0.67510 0.04130 0.40920 0.06900
C 	C 	0.43300 0.87290 0.60800 0.00600
H 	H 	0.42040 0.84770 0.55840 0.02000
H 	H 	0.47820 0.83550 0.64930 0.06200
C 	C 	0.37540 0.05540 0.33890 0.09100
H 	H 	0.33930 0.09930 0.30690 -0.01600
C 	C 	0.40840 0.94680 0.39720 0.10100
H 	H 	0.39560 0.89610 0.41320 -0.02100
Co	Co	0.87664 0.01838 0.70860 1.07000
C 	C 	0.00030 0.94260 0.61110 0.08500
H 	H 	0.07480 0.94960 0.65370 -0.03100
N 	N 	0.89670 0.95650 0.61670 -0.26400
C 	C 	0.81460 0.93800 0.54730 0.07000
H 	H 	0.73210 0.93740 0.53200 0.00000
N 	N 	0.99150 0.91920 0.54370 -0.10100
C 	C 	0.81000 0.89410 0.41980 -0.28400
H 	H 	0.72510 0.90510 0.40050 0.11600
H 	H 	0.84010 0.92810 0.39050 0.11100
N 	N 	0.86910 0.91990 0.50130 -0.06100
C 	C 	0.82200 0.82030 0.40310 0.23600
H 	H 	0.86060 0.82410 0.36860 -0.04000
H 	H 	0.73990 0.80320 0.37020 -0.04800
N 	N 	0.94690 0.67570 0.36830 -0.12200
C 	C 	0.87720 0.74970 0.45160 -0.36200
H 	H 	0.90380 0.76470 0.50600 0.15000
H 	H 	0.81610 0.70840 0.43960 0.13600
N 	N 	0.94810 0.71920 0.30740 -0.10900
C 	C 	0.97850 0.71490 0.44290 0.12000
H 	H 	0.03630 0.75730 0.44940 -0.00400
H 	H 	0.01750 0.67580 0.48430 -0.00800
N 	N 	0.90200 0.58940 0.27270 -0.26700
C 	C 	0.92190 0.60030 0.34680 0.09300
H 	H 	0.91850 0.55940 0.37930 -0.02300
N 	N 	0.86580 0.10550 0.78760 -0.27300
C 	C 	0.92030 0.66570 0.25280 0.08500
H 	H 	0.91310 0.67830 0.20330 -0.01000
N 	N 	0.91630 0.22120 0.85610 -0.10200
C 	C 	0.95300 0.15570 0.83360 0.07900
H 	H 	0.03400 0.14510 0.84860 -0.02600
N 	N 	0.79530 0.21220 0.81750 -0.10500
C 	C 	0.76850 0.14420 0.77910 0.08900
H 	H 	0.69050 0.12570 0.74950 -0.01700
N 	N 	0.49040 0.45240 0.88120 -0.09300
C 	C 	0.71000 0.27660 0.81820 -0.00400
H 	H 	0.71820 0.32320 0.79000 0.02800
H 	H 	0.62840 0.25670 0.79020 0.03000
N 	N 	0.51560 0.52210 0.92120 -0.10300
C 	C 	0.72850 0.30250 0.89680 -0.17200
H 	H 	0.79470 0.34060 0.91760 0.08400
H 	H 	0.74950 0.25620 0.93150 0.08200
N 	N 	0.31710 0.50690 0.84750 -0.25900
C 	C 	0.61500 0.34200 0.89400 -0.01500
H 	H 	0.54520 0.31390 0.85600 -0.03200
H 	H 	0.61480 0.33630 0.94480 0.00800
C 	C 	0.32300 0.61300 0.10730 0.00500
H 	H 	0.27180 0.58100 0.06230 0.00100
H 	H 	0.33230 0.58540 0.15470 0.01800
C 	C 	0.60600 0.42860 0.87300 -0.13000
H 	H 	0.59630 0.43650 0.82020 0.05600
H 	H 	0.67510 0.45870 0.90920 0.07000
C 	C 	0.43300 0.62710 0.10800 0.00700
H 	H 	0.42040 0.65230 0.05840 0.02000
H 	H 	0.47820 0.66450 0.14930 0.06200
C 	C 	0.37540 0.44460 0.83890 0.08900
H 	H 	0.33930 0.40070 0.80690 -0.01600
C 	C 	0.40840 0.55320 0.89720 0.10100
H 	H 	0.39560 0.60390 0.91320 -0.02100
Co	Co	0.12336 0.51838 0.79140 1.07100
C 	C 	0.99970 0.44260 0.88890 0.09400
H 	H 	0.92520 0.44960 0.84630 -0.03300
N 	N 	0.10330 0.45650 0.88330 -0.26700
C 	C 	0.18540 0.43800 0.95270 0.06900
H 	H 	0.26790 0.43740 0.96800 0.00000
N 	N 	0.00850 0.41920 0.95630 -0.10500
C 	C 	0.19000 0.39410 0.08020 -0.28400
H 	H 	0.27490 0.40510 0.09950 0.11500
H 	H 	0.15990 0.42810 0.10950 0.11000
N 	N 	0.13090 0.41990 0.99870 -0.06100
C 	C 	0.17800 0.32030 0.09690 0.23800
H 	H 	0.13940 0.32410 0.13140 -0.04100
H 	H 	0.26010 0.30320 0.12980 -0.04800
N 	N 	0.05310 0.17570 0.13170 -0.12200
C 	C 	0.12280 0.24970 0.04840 -0.36400
H 	H 	0.09620 0.26470 0.99400 0.15000
H 	H 	0.18390 0.20840 0.06040 0.13600
N 	N 	0.05190 0.21920 0.19260 -0.10900
C 	C 	0.02150 0.21490 0.05710 0.12600
H 	H 	0.96370 0.25730 0.05060 -0.00600
H 	H 	0.98250 0.17580 0.01570 -0.01100
N 	N 	0.09800 0.08940 0.22730 -0.26600
C 	C 	0.07810 0.10030 0.15320 0.09300
H 	H 	0.08150 0.05940 0.12070 -0.02200
N 	N 	0.13420 0.60550 0.71240 -0.27200
C 	C 	0.07970 0.16570 0.24720 0.08600
H 	H 	0.08690 0.17830 0.29670 -0.01000
N 	N 	0.08370 0.72120 0.64390 -0.10200
C 	C 	0.04700 0.65570 0.66640 0.08100
H 	H 	0.96600 0.64510 0.65140 -0.02800
N 	N 	0.20470 0.71220 0.68250 -0.10500
C 	C 	0.23150 0.64420 0.72090 0.08900
H 	H 	0.30950 0.62570 0.75050 -0.01700
N 	N 	0.50960 0.95240 0.61880 -0.09300
C 	C 	0.29000 0.77660 0.68180 -0.00500
H 	H 	0.28180 0.82320 0.71000 0.02800
H 	H 	0.37160 0.75670 0.70980 0.03000
N 	N 	0.48440 0.02210 0.57880 -0.10300
C 	C 	0.27150 0.80250 0.60320 -0.17200
H 	H 	0.20530 0.84060 0.58240 0.08400
H 	H 	0.25050 0.75620 0.56850 0.08200
N 	N 	0.68290 0.00690 0.65250 -0.26000
C 	C 	0.38500 0.84200 0.60600 -0.01500
H 	H 	0.45480 0.81390 0.64400 -0.03100
H 	H 	0.38520 0.83630 0.55520 0.00800
C 	C 	0.67700 0.11300 0.39270 0.00400
H 	H 	0.72820 0.08100 0.43770 0.00100
H 	H 	0.66770 0.08540 0.34530 0.01800
C 	C 	0.39400 0.92860 0.62700 -0.12900
H 	H 	0.40370 0.93650 0.67980 0.05600
H 	H 	0.32490 0.95870 0.59080 0.06900
C 	C 	0.56700 0.12710 0.39200 0.00600
H 	H 	0.57960 0.15230 0.44160 0.02000
H 	H 	0.52180 0.16450 0.35070 0.06200
C 	C 	0.62460 0.94460 0.66110 0.09100
H 	H 	0.66070 0.90070 0.69310 -0.01600
C 	C 	0.59160 0.05320 0.60280 0.10100
H 	H 	0.60440 0.10390 0.58680 -0.02100
