data_crystal

_cell_length_a 12.13000
_cell_length_b 12.13000
_cell_length_c 30.55500
_cell_angle_alpha 90.00000
_cell_angle_beta  90.00000
_cell_angle_gamma 90.00000

_symmetry_space_group_name_	'P 1'
_symmetry_space_group_name_H-M	'P 1'

loop_
_symmetry_equiv_pos_as_xyz
  x,y,z

loop_
_atom_site_label
_atom_site_type_symbol
_atom_site_fract_x
_atom_site_fract_y
_atom_site_fract_z
_atom_site_charge
V 	V 	0.50270 0.76940 0.37710 1.81400
V 	V 	0.56560 0.63500 0.27210 1.77800
V 	V 	0.40800 0.85810 0.48800 1.70800
V 	V 	0.76450 0.48590 0.30160 1.79800
V 	V 	0.23890 0.01240 0.43950 1.80100
V 	V 	0.00310 0.77110 0.36340 1.81900
V 	V 	0.36520 0.06090 0.21780 1.77900
V 	V 	0.91140 0.85760 0.25370 1.70500
V 	V 	0.74220 0.01460 0.30000 1.79300
V 	V 	0.25960 0.48500 0.44060 1.81000
P 	P 	0.50240 0.60630 0.45710 0.60200
P 	P 	0.75260 0.75120 0.32980 0.61100
P 	P 	0.50020 0.89170 0.28340 0.59300
P 	P 	0.25090 0.75120 0.41260 0.59800
P 	P 	0.60700 0.99250 0.53580 0.59500
P 	P 	0.75230 0.25100 0.24650 0.60000
P 	P 	0.99570 0.89290 0.45680 0.59400
O 	O 	0.50140 0.86170 0.41550 -0.72300
O 	O 	0.50300 0.64060 0.31970 -0.72300
O 	O 	0.74430 0.45430 0.35210 -0.61900
O 	O 	0.25580 0.03840 0.38940 -0.66800
O 	O 	0.61970 0.48250 0.27420 -0.65500
O 	O 	0.37240 0.01060 0.47550 -0.67700
O 	O 	0.00380 0.86000 0.32500 -0.72100
O 	O 	0.36540 0.99980 0.17090 -0.73200
O 	O 	0.23960 0.45380 0.39210 -0.69700
O 	O 	0.76740 0.04790 0.35020 -0.64700
O 	O 	0.51030 0.12770 0.22530 -0.67700
O 	O 	0.88310 0.01520 0.27130 -0.65200
O 	O 	0.54920 0.63730 0.41180 -0.53600
O 	O 	0.59910 0.55260 0.48180 -0.60000
O 	O 	0.46000 0.70570 0.48340 -0.62800
O 	O 	0.41240 0.52020 0.45380 -0.53700
O 	O 	0.65770 0.78570 0.35820 -0.59200
O 	O 	0.72020 0.65180 0.29970 -0.70700
O 	O 	0.85020 0.71740 0.35690 -0.56900
O 	O 	0.78240 0.84630 0.29710 -0.72100
O 	O 	0.44830 0.85520 0.32660 -0.56000
O 	O 	0.55180 0.79370 0.26000 -0.59600
O 	O 	0.40580 0.93580 0.25470 -0.59500
O 	O 	0.58810 0.98260 0.29120 -0.54400
O 	O 	0.34740 0.71370 0.38450 -0.55700
O 	O 	0.28380 0.84870 0.44320 -0.72900
O 	O 	0.15670 0.79450 0.38520 -0.57800
O 	O 	0.21520 0.65060 0.44070 -0.71000
O 	O 	0.56000 0.90030 0.50710 -0.57900
O 	O 	0.51720 0.08140 0.54380 -0.55100
O 	O 	0.64760 0.94140 0.57860 -0.55200
O 	O 	0.70350 0.04080 0.51090 -0.61900
O 	O 	0.80000 0.34120 0.27740 -0.49400
O 	O 	0.84450 0.20300 0.21980 -0.51300
O 	O 	0.65440 0.29990 0.22170 -0.49600
O 	O 	0.70710 0.16070 0.27800 -0.49600
O 	O 	0.08650 0.97910 0.45500 -0.55200
O 	O 	0.94800 0.86510 0.41180 -0.55500
O 	O 	0.03760 0.79310 0.48300 -0.59400
O 	O 	0.89960 0.94430 0.48290 -0.59300
K 	K 	0.41050 0.77510 0.18030 0.64200
K 	K 	0.43920 0.29050 0.06720 0.63300
K 	K 	0.07280 0.22980 0.06190 0.64400
K 	K 	0.04630 0.70960 0.17400 0.62900
V 	V 	0.49730 0.23060 0.87710 1.81300
V 	V 	0.43440 0.36500 0.77210 1.77800
V 	V 	0.59200 0.14190 0.98800 1.70800
V 	V 	0.23550 0.51410 0.80160 1.79800
V 	V 	0.76110 0.98760 0.93950 1.80000
V 	V 	0.99690 0.22890 0.86340 1.81900
V 	V 	0.63480 0.93910 0.71780 1.77900
V 	V 	0.08860 0.14240 0.75370 1.70500
V 	V 	0.25780 0.98540 0.80000 1.79300
V 	V 	0.74040 0.51500 0.94060 1.81000
P 	P 	0.49760 0.39370 0.95710 0.60200
P 	P 	0.24740 0.24880 0.82980 0.61100
P 	P 	0.49980 0.10830 0.78340 0.59300
P 	P 	0.74910 0.24880 0.91260 0.59800
P 	P 	0.39300 0.00750 0.03580 0.59400
P 	P 	0.24770 0.74900 0.74650 0.60000
P 	P 	0.00430 0.10710 0.95680 0.59500
O 	O 	0.49860 0.13830 0.91550 -0.72400
O 	O 	0.49700 0.35940 0.81970 -0.72300
O 	O 	0.25570 0.54570 0.85210 -0.62000
O 	O 	0.74420 0.96160 0.88940 -0.66900
O 	O 	0.38030 0.51750 0.77420 -0.65500
O 	O 	0.62760 0.98940 0.97550 -0.68000
O 	O 	0.99620 0.14000 0.82500 -0.72100
O 	O 	0.63460 0.00020 0.67090 -0.73200
O 	O 	0.76040 0.54620 0.89210 -0.69700
O 	O 	0.23260 0.95210 0.85020 -0.64800
O 	O 	0.48970 0.87230 0.72530 -0.67800
O 	O 	0.11690 0.98480 0.77130 -0.65300
O 	O 	0.45080 0.36270 0.91180 -0.53600
O 	O 	0.40090 0.44740 0.98180 -0.60300
O 	O 	0.54000 0.29430 0.98340 -0.63000
O 	O 	0.58760 0.47980 0.95380 -0.53800
O 	O 	0.34230 0.21430 0.85820 -0.59200
O 	O 	0.27980 0.34820 0.79970 -0.70700
O 	O 	0.14980 0.28260 0.85690 -0.56900
O 	O 	0.21760 0.15370 0.79710 -0.72100
O 	O 	0.55170 0.14480 0.82660 -0.56000
O 	O 	0.44820 0.20630 0.76000 -0.59600
O 	O 	0.59420 0.06420 0.75470 -0.59500
O 	O 	0.41190 0.01740 0.79120 -0.54300
O 	O 	0.65260 0.28630 0.88450 -0.55700
O 	O 	0.71620 0.15130 0.94320 -0.72800
O 	O 	0.84330 0.20550 0.88520 -0.57800
O 	O 	0.78480 0.34940 0.94070 -0.71100
O 	O 	0.44000 0.09970 0.00710 -0.57700
O 	O 	0.48280 0.91860 0.04380 -0.54900
O 	O 	0.35240 0.05860 0.07860 -0.55200
O 	O 	0.29650 0.95920 0.01090 -0.61700
O 	O 	0.20000 0.65880 0.77740 -0.49400
O 	O 	0.15550 0.79700 0.71980 -0.51300
O 	O 	0.34560 0.70010 0.72170 -0.49700
O 	O 	0.29290 0.83930 0.77800 -0.49600
O 	O 	0.91350 0.02090 0.95500 -0.55300
O 	O 	0.05200 0.13490 0.91180 -0.55500
O 	O 	0.96240 0.20690 0.98300 -0.59600
O 	O 	0.10040 0.05570 0.98290 -0.59500
K 	K 	0.58950 0.22490 0.68030 0.64200
K 	K 	0.56080 0.70950 0.56720 0.63300
K 	K 	0.92720 0.77020 0.56190 0.64400
K 	K 	0.95370 0.29040 0.67400 0.62900
V 	V 	0.23060 0.50270 0.12710 1.81300
V 	V 	0.36500 0.56560 0.02210 1.77900
V 	V 	0.14190 0.40800 0.23800 1.70800
V 	V 	0.51410 0.76450 0.05160 1.79800
V 	V 	0.98760 0.23890 0.18950 1.80100
V 	V 	0.22890 0.00310 0.11340 1.81900
V 	V 	0.93910 0.36520 0.96780 1.77900
V 	V 	0.14240 0.91140 0.00370 1.70500
V 	V 	0.98540 0.74220 0.05000 1.79400
V 	V 	0.51500 0.25960 0.19060 1.81000
P 	P 	0.39370 0.50240 0.20710 0.60200
P 	P 	0.24880 0.75260 0.07980 0.61100
P 	P 	0.10830 0.50020 0.03340 0.59400
P 	P 	0.24880 0.25090 0.16260 0.59800
P 	P 	0.00750 0.60700 0.28580 0.59400
P 	P 	0.74900 0.75230 0.99650 0.59300
P 	P 	0.10710 0.99570 0.20680 0.59500
O 	O 	0.13830 0.50140 0.16550 -0.72300
O 	O 	0.35940 0.50300 0.06970 -0.72200
O 	O 	0.54570 0.74430 0.10210 -0.61900
O 	O 	0.96160 0.25580 0.13940 -0.66700
O 	O 	0.51750 0.61970 0.02420 -0.65200
O 	O 	0.98940 0.37240 0.22550 -0.67700
O 	O 	0.14000 0.00380 0.07500 -0.72100
O 	O 	0.00020 0.36540 0.92090 -0.73300
O 	O 	0.54620 0.23960 0.14210 -0.69700
O 	O 	0.95210 0.76740 0.10020 -0.64600
O 	O 	0.87230 0.51030 0.97530 -0.68000
O 	O 	0.98480 0.88310 0.02130 -0.64900
O 	O 	0.36270 0.54920 0.16180 -0.53600
O 	O 	0.44740 0.59910 0.23180 -0.60000
O 	O 	0.29430 0.46000 0.23340 -0.62800
O 	O 	0.47980 0.41240 0.20380 -0.53700
O 	O 	0.21430 0.65770 0.10820 -0.59200
O 	O 	0.34820 0.72020 0.04970 -0.70600
O 	O 	0.28260 0.85020 0.10690 -0.56900
O 	O 	0.15370 0.78240 0.04710 -0.72100
O 	O 	0.14480 0.44830 0.07660 -0.56000
O 	O 	0.20630 0.55180 0.01000 -0.59500
O 	O 	0.06420 0.40580 0.00470 -0.59300
O 	O 	0.01740 0.58810 0.04120 -0.54300
O 	O 	0.28630 0.34740 0.13450 -0.55700
O 	O 	0.15130 0.28380 0.19320 -0.72900
O 	O 	0.20550 0.15670 0.13520 -0.57800
O 	O 	0.34940 0.21520 0.19070 -0.71000
O 	O 	0.09970 0.56000 0.25710 -0.57900
O 	O 	0.91860 0.51720 0.29380 -0.55100
O 	O 	0.05860 0.64760 0.32860 -0.55200
O 	O 	0.95920 0.70350 0.26090 -0.61900
O 	O 	0.65880 0.80000 0.02740 -0.48900
O 	O 	0.79700 0.84450 0.96980 -0.51400
O 	O 	0.70010 0.65440 0.97170 -0.49700
O 	O 	0.83930 0.70710 0.02800 -0.49100
O 	O 	0.02090 0.08650 0.20500 -0.55300
O 	O 	0.13490 0.94800 0.16180 -0.55500
O 	O 	0.20690 0.03760 0.23300 -0.59400
O 	O 	0.05570 0.89960 0.23290 -0.59300
K 	K 	0.22490 0.41050 0.93030 0.64100
K 	K 	0.70950 0.43920 0.81720 0.63300
K 	K 	0.77020 0.07280 0.81190 0.64400
K 	K 	0.29040 0.04630 0.92400 0.62800
V 	V 	0.76940 0.49730 0.62710 1.81300
V 	V 	0.63500 0.43440 0.52210 1.77800
V 	V 	0.85810 0.59200 0.73800 1.70800
V 	V 	0.48590 0.23550 0.55160 1.79800
V 	V 	0.01240 0.76110 0.68950 1.80100
V 	V 	0.77110 0.99690 0.61340 1.81900
V 	V 	0.06090 0.63480 0.46780 1.77900
V 	V 	0.85760 0.08860 0.50370 1.70400
V 	V 	0.01460 0.25780 0.55000 1.79300
V 	V 	0.48500 0.74040 0.69060 1.81000
P 	P 	0.60630 0.49760 0.70710 0.60200
P 	P 	0.75120 0.24740 0.57980 0.61100
P 	P 	0.89170 0.49980 0.53340 0.59300
P 	P 	0.75120 0.74910 0.66260 0.59800
P 	P 	0.99250 0.39300 0.78580 0.59500
P 	P 	0.25100 0.24770 0.49650 0.60000
P 	P 	0.89290 0.00430 0.70680 0.59500
O 	O 	0.86170 0.49860 0.66550 -0.72300
O 	O 	0.64060 0.49700 0.56970 -0.72300
O 	O 	0.45430 0.25570 0.60210 -0.61900
O 	O 	0.03840 0.74420 0.63940 -0.66800
O 	O 	0.48250 0.38030 0.52420 -0.65500
O 	O 	0.01060 0.62760 0.72550 -0.67700
O 	O 	0.86000 0.99620 0.57500 -0.72100
O 	O 	0.99980 0.63460 0.42090 -0.73200
O 	O 	0.45380 0.76040 0.64210 -0.69700
O 	O 	0.04790 0.23260 0.60020 -0.64700
O 	O 	0.12770 0.48970 0.47530 -0.67700
O 	O 	0.01520 0.11690 0.52130 -0.65300
O 	O 	0.63730 0.45080 0.66180 -0.53600
O 	O 	0.55260 0.40090 0.73180 -0.60000
O 	O 	0.70570 0.54000 0.73340 -0.62800
O 	O 	0.52020 0.58760 0.70380 -0.53700
O 	O 	0.78570 0.34230 0.60820 -0.59200
O 	O 	0.65180 0.27980 0.54970 -0.70700
O 	O 	0.71740 0.14980 0.60690 -0.56900
O 	O 	0.84630 0.21760 0.54710 -0.72100
O 	O 	0.85520 0.55170 0.57660 -0.56000
O 	O 	0.79370 0.44820 0.51000 -0.59600
O 	O 	0.93580 0.59420 0.50470 -0.59500
O 	O 	0.98260 0.41190 0.54120 -0.54400
O 	O 	0.71370 0.65260 0.63450 -0.55700
O 	O 	0.84870 0.71620 0.69320 -0.72900
O 	O 	0.79450 0.84330 0.63520 -0.57800
O 	O 	0.65060 0.78480 0.69070 -0.71000
O 	O 	0.90030 0.44000 0.75710 -0.57900
O 	O 	0.08140 0.48280 0.79380 -0.55100
O 	O 	0.94140 0.35240 0.82860 -0.55200
O 	O 	0.04080 0.29650 0.76090 -0.61900
O 	O 	0.34120 0.20000 0.52740 -0.49400
O 	O 	0.20300 0.15550 0.46980 -0.51300
O 	O 	0.29990 0.34560 0.47170 -0.49600
O 	O 	0.16070 0.29290 0.52800 -0.49600
O 	O 	0.97910 0.91350 0.70500 -0.55200
O 	O 	0.86510 0.05200 0.66180 -0.55500
O 	O 	0.79310 0.96240 0.73300 -0.59500
O 	O 	0.94430 0.10040 0.73290 -0.59200
K 	K 	0.77510 0.58950 0.43030 0.64200
K 	K 	0.29050 0.56080 0.31720 0.63300
K 	K 	0.22980 0.92720 0.31190 0.64400
K 	K 	0.70960 0.95370 0.42400 0.62900
