data_crystal

_cell_length_a 19.11300
_cell_length_b 18.61700
_cell_length_c 15.95900
_cell_angle_alpha 90.00000
_cell_angle_beta  90.00000
_cell_angle_gamma 90.00000

_symmetry_space_group_name_	'P 1'
_symmetry_space_group_name_H-M	'P 1'

loop_
_symmetry_equiv_pos_as_xyz
  x,y,z

loop_
_atom_site_label
_atom_site_type_symbol
_atom_site_fract_x
_atom_site_fract_y
_atom_site_fract_z
_atom_site_charge
Mo	Mo	0.42039 0.90974 0.14083 1.17500
Mo	Mo	0.46992 0.83938 0.32244 1.07300
Mo	Mo	0.49130 0.83691 0.94374 1.16300
Cu	Cu	0.55773 0.02130 0.21896 0.89400
O 	O 	0.48880 0.97080 0.14940 -0.55000
O 	O 	0.40900 0.89800 0.25970 -0.53400
O 	O 	0.45030 0.88000 0.86300 -0.48000
O 	O 	0.49810 0.81780 0.17960 -0.41400
O 	O 	0.44020 0.87680 0.03280 -0.50300
O 	O 	0.85270 0.68430 0.35630 -0.34100
N 	N 	0.64040 0.98570 0.15940 -0.24200
N 	N 	0.48920 0.05450 0.30050 -0.25100
N 	N 	0.62790 0.04620 0.31070 -0.15600
C 	C 	0.64700 0.97510 0.07730 0.08400
H 	H 	0.60800 0.98320 0.04160 -0.03400
C 	C 	0.69560 0.97760 0.21040 0.11600
C 	C 	0.76120 0.95700 0.17960 -0.17100
H 	H 	0.80050 0.95230 0.21570 0.07800
C 	C 	0.68320 0.98960 0.30200 -0.18900
H 	H 	0.72690 0.00550 0.32960 0.07000
H 	H 	0.66760 0.94440 0.32890 0.05400
C 	C 	0.66020 0.11820 0.29890 -0.03000
H 	H 	0.69840 0.12340 0.34040 0.03000
H 	H 	0.68170 0.11960 0.24260 0.03500
C 	C 	0.61320 0.18110 0.30710 -0.16500
H 	H 	0.59430 0.18380 0.36480 0.06300
H 	H 	0.57340 0.17660 0.26770 0.08000
C 	C 	0.42260 0.07180 0.28440 0.07700
H 	H 	0.40660 0.07050 0.22800 -0.03900
C 	C 	0.37710 0.09120 0.34580 -0.14300
H 	H 	0.32930 0.10050 0.33330 0.07100
C 	C 	0.76650 0.94380 0.09460 0.07800
H 	H 	0.80990 0.92850 0.07180 -0.01900
C 	C 	0.71000 0.95250 0.04300 -0.15400
H 	H 	0.71380 0.94320 0.98460 0.04900
C 	C 	0.51430 0.06020 0.37910 0.08800
C 	C 	0.58960 0.04230 0.39130 -0.17600
H 	H 	0.61070 0.07630 0.43170 0.06700
H 	H 	0.59380 0.99330 0.41480 0.04900
C 	C 	0.47140 0.08130 0.44310 -0.14900
H 	H 	0.48950 0.08510 0.49830 0.02400
C 	C 	0.40230 0.09710 0.42830 0.04000
H 	H 	0.37230 0.11160 0.47260 -0.00200
C 	C 	0.74350 0.78360 0.18490 -0.01400
C 	C 	0.65870 0.79700 0.17400 0.02500
Mo	Mo	0.07961 0.09026 0.64083 1.17300
Mo	Mo	0.03008 0.16062 0.82244 1.07200
Mo	Mo	0.00870 0.16309 0.44374 1.16100
Cu	Cu	0.94227 0.97870 0.71896 0.89100
O 	O 	0.01120 0.02920 0.64940 -0.55300
O 	O 	0.09100 0.10200 0.75970 -0.53500
O 	O 	0.04970 0.12000 0.36300 -0.48000
O 	O 	0.00190 0.18220 0.67960 -0.41700
O 	O 	0.05980 0.12320 0.53280 -0.50700
O 	O 	0.64730 0.31570 0.85630 -0.34100
N 	N 	0.85960 0.01430 0.65940 -0.24100
N 	N 	0.01080 0.94550 0.80050 -0.24300
N 	N 	0.87210 0.95380 0.81070 -0.16000
C 	C 	0.85300 0.02490 0.57730 0.09000
H 	H 	0.89200 0.01680 0.54160 -0.03500
C 	C 	0.80440 0.02240 0.71040 0.11400
C 	C 	0.73880 0.04300 0.67960 -0.17200
H 	H 	0.69950 0.04770 0.71570 0.08000
C 	C 	0.81680 0.01040 0.80200 -0.16800
H 	H 	0.77310 0.99450 0.82960 0.05800
H 	H 	0.83240 0.05560 0.82890 0.05000
C 	C 	0.83980 0.88180 0.79890 -0.03000
H 	H 	0.80160 0.87660 0.84040 0.02900
H 	H 	0.81830 0.88040 0.74260 0.03400
C 	C 	0.88680 0.81890 0.80710 -0.16500
H 	H 	0.90570 0.81620 0.86480 0.06200
H 	H 	0.92660 0.82340 0.76770 0.08000
C 	C 	0.07740 0.92820 0.78440 0.07400
H 	H 	0.09340 0.92950 0.72800 -0.03600
C 	C 	0.12290 0.90880 0.84580 -0.13600
H 	H 	0.17070 0.89950 0.83330 0.07000
C 	C 	0.73350 0.05620 0.59460 0.08600
H 	H 	0.69010 0.07150 0.57180 -0.02200
C 	C 	0.79000 0.04750 0.54300 -0.16800
H 	H 	0.78620 0.05680 0.48460 0.05800
C 	C 	0.98570 0.93980 0.87910 0.07500
C 	C 	0.91040 0.95770 0.89130 -0.18700
H 	H 	0.88930 0.92370 0.93170 0.06700
H 	H 	0.90620 0.00670 0.91480 0.05800
C 	C 	0.02860 0.91870 0.94310 -0.13400
H 	H 	0.01050 0.91490 0.99830 0.02100
C 	C 	0.09770 0.90290 0.92830 0.03200
H 	H 	0.12770 0.88840 0.97260 0.00100
C 	C 	0.75650 0.21640 0.68490 -0.01400
C 	C 	0.84130 0.20300 0.67400 0.02600
Mo	Mo	0.57961 0.40974 0.85917 1.17400
Mo	Mo	0.53008 0.33938 0.67756 1.07200
Mo	Mo	0.50870 0.33691 0.05626 1.16200
Cu	Cu	0.44227 0.52130 0.78104 0.89400
O 	O 	0.51120 0.47080 0.85060 -0.55200
O 	O 	0.59100 0.39800 0.74030 -0.53500
O 	O 	0.54970 0.38000 0.13700 -0.47900
O 	O 	0.50190 0.31780 0.82040 -0.41400
O 	O 	0.55980 0.37680 0.96720 -0.50500
O 	O 	0.14730 0.18430 0.64370 -0.34200
N 	N 	0.35960 0.48570 0.84060 -0.24400
N 	N 	0.51080 0.55450 0.69950 -0.25000
N 	N 	0.37210 0.54620 0.68930 -0.15600
C 	C 	0.35300 0.47510 0.92270 0.08900
H 	H 	0.39200 0.48320 0.95840 -0.03700
C 	C 	0.30440 0.47760 0.78960 0.11800
C 	C 	0.23880 0.45700 0.82040 -0.17500
H 	H 	0.19950 0.45230 0.78430 0.08000
C 	C 	0.31680 0.48960 0.69800 -0.18800
H 	H 	0.27310 0.50550 0.67040 0.06900
H 	H 	0.33240 0.44440 0.67110 0.05400
C 	C 	0.33980 0.61820 0.70110 -0.03000
H 	H 	0.30160 0.62340 0.65960 0.03000
H 	H 	0.31830 0.61960 0.75740 0.03500
C 	C 	0.38680 0.68110 0.69290 -0.16500
H 	H 	0.40570 0.68380 0.63520 0.06300
H 	H 	0.42660 0.67660 0.73230 0.08000
C 	C 	0.57740 0.57180 0.71560 0.07800
H 	H 	0.59340 0.57050 0.77200 -0.03800
C 	C 	0.62290 0.59120 0.65420 -0.14200
H 	H 	0.67070 0.60050 0.66670 0.07200
C 	C 	0.23350 0.44380 0.90540 0.08600
H 	H 	0.19010 0.42850 0.92820 -0.02200
C 	C 	0.29000 0.45250 0.95700 -0.16600
H 	H 	0.28620 0.44320 0.01540 0.05600
C 	C 	0.48570 0.56020 0.62090 0.08900
C 	C 	0.41040 0.54230 0.60870 -0.17700
H 	H 	0.38930 0.57630 0.56830 0.06700
H 	H 	0.40620 0.49330 0.58520 0.04900
C 	C 	0.52860 0.58130 0.55690 -0.14900
H 	H 	0.51050 0.58510 0.50170 0.02400
C 	C 	0.59770 0.59710 0.57170 0.04000
H 	H 	0.62770 0.61160 0.52740 -0.00200
C 	C 	0.25650 0.28360 0.81510 -0.01400
C 	C 	0.34130 0.29700 0.82600 0.02500
Mo	Mo	0.92039 0.59026 0.35917 1.17400
Mo	Mo	0.96992 0.66062 0.17756 1.07200
Mo	Mo	0.99130 0.66309 0.55626 1.16200
Cu	Cu	0.05773 0.47870 0.28104 0.89400
O 	O 	0.98880 0.52920 0.35060 -0.55100
O 	O 	0.90900 0.60200 0.24030 -0.53400
O 	O 	0.95030 0.62000 0.63700 -0.47900
O 	O 	0.99810 0.68220 0.32040 -0.41600
O 	O 	0.94020 0.62320 0.46720 -0.50600
O 	O 	0.35270 0.81570 0.14370 -0.34100
N 	N 	0.14040 0.51430 0.34060 -0.24500
N 	N 	0.98920 0.44550 0.19950 -0.24800
N 	N 	0.12790 0.45380 0.18930 -0.15600
C 	C 	0.14700 0.52490 0.42270 0.09100
H 	H 	0.10800 0.51680 0.45840 -0.03700
C 	C 	0.19560 0.52240 0.28960 0.11800
C 	C 	0.26120 0.54300 0.32040 -0.17600
H 	H 	0.30050 0.54770 0.28430 0.08000
C 	C 	0.18320 0.51040 0.19800 -0.18900
H 	H 	0.22690 0.49450 0.17040 0.06900
H 	H 	0.16760 0.55560 0.17110 0.05400
C 	C 	0.16020 0.38180 0.20110 -0.03100
H 	H 	0.19840 0.37660 0.15960 0.03000
H 	H 	0.18170 0.38040 0.25740 0.03500
C 	C 	0.11320 0.31890 0.19290 -0.16400
H 	H 	0.09430 0.31620 0.13520 0.06200
H 	H 	0.07340 0.32340 0.23230 0.08000
C 	C 	0.92260 0.42820 0.21560 0.07700
H 	H 	0.90660 0.42950 0.27200 -0.03800
C 	C 	0.87710 0.40880 0.15420 -0.14000
H 	H 	0.82930 0.39950 0.16670 0.07100
C 	C 	0.26650 0.55620 0.40540 0.08800
H 	H 	0.30990 0.57150 0.42820 -0.02300
C 	C 	0.21000 0.54750 0.45700 -0.17000
H 	H 	0.21380 0.55680 0.51540 0.05900
C 	C 	0.01430 0.43980 0.12090 0.08400
C 	C 	0.08960 0.45770 0.10870 -0.17400
H 	H 	0.11070 0.42370 0.06830 0.06500
H 	H 	0.09380 0.50670 0.08520 0.04800
C 	C 	0.97140 0.41870 0.05690 -0.14300
H 	H 	0.98950 0.41490 0.00170 0.02300
C 	C 	0.90230 0.40290 0.07170 0.03700
H 	H 	0.87230 0.38840 0.02740 -0.00000
C 	C 	0.24350 0.71640 0.31510 -0.01400
C 	C 	0.15870 0.70300 0.32600 0.02500
Mo	Mo	0.57961 0.09026 0.85917 1.17400
Mo	Mo	0.53008 0.16062 0.67756 1.07200
Mo	Mo	0.50870 0.16309 0.05626 1.16200
Cu	Cu	0.44227 0.97870 0.78104 0.89300
O 	O 	0.51120 0.02920 0.85060 -0.55000
O 	O 	0.59100 0.10200 0.74030 -0.53400
O 	O 	0.54970 0.12000 0.13700 -0.48000
O 	O 	0.50190 0.18220 0.82040 -0.41400
O 	O 	0.55980 0.12320 0.96720 -0.50300
O 	O 	0.14730 0.31570 0.64370 -0.34100
N 	N 	0.35960 0.01430 0.84060 -0.24200
N 	N 	0.51080 0.94550 0.69950 -0.25100
N 	N 	0.37210 0.95380 0.68930 -0.15600
C 	C 	0.35300 0.02490 0.92270 0.08400
H 	H 	0.39200 0.01680 0.95840 -0.03400
C 	C 	0.30440 0.02240 0.78960 0.11600
C 	C 	0.23880 0.04300 0.82040 -0.17100
H 	H 	0.19950 0.04770 0.78430 0.07800
C 	C 	0.31680 0.01040 0.69800 -0.18900
H 	H 	0.27310 0.99450 0.67040 0.07000
H 	H 	0.33240 0.05560 0.67110 0.05400
C 	C 	0.33980 0.88180 0.70110 -0.03000
H 	H 	0.30160 0.87660 0.65960 0.03000
H 	H 	0.31830 0.88040 0.75740 0.03500
C 	C 	0.38680 0.81890 0.69290 -0.16500
H 	H 	0.40570 0.81620 0.63520 0.06300
H 	H 	0.42660 0.82340 0.73230 0.08000
C 	C 	0.57740 0.92820 0.71560 0.07700
H 	H 	0.59340 0.92950 0.77200 -0.03900
C 	C 	0.62290 0.90880 0.65420 -0.14300
H 	H 	0.67070 0.89950 0.66670 0.07100
C 	C 	0.23350 0.05620 0.90540 0.07800
H 	H 	0.19010 0.07150 0.92820 -0.01900
C 	C 	0.29000 0.04750 0.95700 -0.15400
H 	H 	0.28620 0.05680 0.01540 0.04900
C 	C 	0.48570 0.93980 0.62090 0.08800
C 	C 	0.41040 0.95770 0.60870 -0.17600
H 	H 	0.38930 0.92370 0.56830 0.06700
H 	H 	0.40620 0.00670 0.58520 0.04900
C 	C 	0.52860 0.91870 0.55690 -0.14900
H 	H 	0.51050 0.91490 0.50170 0.02400
C 	C 	0.59770 0.90290 0.57170 0.04000
H 	H 	0.62770 0.88840 0.52740 -0.00200
C 	C 	0.25650 0.21640 0.81510 -0.01400
C 	C 	0.34130 0.20300 0.82600 0.02500
Mo	Mo	0.92039 0.90974 0.35917 1.17300
Mo	Mo	0.96992 0.83938 0.17756 1.07200
Mo	Mo	0.99130 0.83691 0.55626 1.16100
Cu	Cu	0.05773 0.02130 0.28104 0.89100
O 	O 	0.98880 0.97080 0.35060 -0.55300
O 	O 	0.90900 0.89800 0.24030 -0.53500
O 	O 	0.95030 0.88000 0.63700 -0.48000
O 	O 	0.99810 0.81780 0.32040 -0.41700
O 	O 	0.94020 0.87680 0.46720 -0.50700
O 	O 	0.35270 0.68430 0.14370 -0.34100
N 	N 	0.14040 0.98570 0.34060 -0.24100
N 	N 	0.98920 0.05450 0.19950 -0.24300
N 	N 	0.12790 0.04620 0.18930 -0.16000
C 	C 	0.14700 0.97510 0.42270 0.09000
H 	H 	0.10800 0.98320 0.45840 -0.03500
C 	C 	0.19560 0.97760 0.28960 0.11400
C 	C 	0.26120 0.95700 0.32040 -0.17200
H 	H 	0.30050 0.95230 0.28430 0.08000
C 	C 	0.18320 0.98960 0.19800 -0.16800
H 	H 	0.22690 0.00550 0.17040 0.05800
H 	H 	0.16760 0.94440 0.17110 0.05000
C 	C 	0.16020 0.11820 0.20110 -0.03000
H 	H 	0.19840 0.12340 0.15960 0.02900
H 	H 	0.18170 0.11960 0.25740 0.03400
C 	C 	0.11320 0.18110 0.19290 -0.16500
H 	H 	0.09430 0.18380 0.13520 0.06200
H 	H 	0.07340 0.17660 0.23230 0.08000
C 	C 	0.92260 0.07180 0.21560 0.07400
H 	H 	0.90660 0.07050 0.27200 -0.03600
C 	C 	0.87710 0.09120 0.15420 -0.13600
H 	H 	0.82930 0.10050 0.16670 0.07000
C 	C 	0.26650 0.94380 0.40540 0.08600
H 	H 	0.30990 0.92850 0.42820 -0.02200
C 	C 	0.21000 0.95250 0.45700 -0.16800
H 	H 	0.21380 0.94320 0.51540 0.05800
C 	C 	0.01430 0.06020 0.12090 0.07500
C 	C 	0.08960 0.04230 0.10870 -0.18700
H 	H 	0.11070 0.07630 0.06830 0.06700
H 	H 	0.09380 0.99330 0.08520 0.05800
C 	C 	0.97140 0.08130 0.05690 -0.13400
H 	H 	0.98950 0.08510 0.00170 0.02100
C 	C 	0.90230 0.09710 0.07170 0.03200
H 	H 	0.87230 0.11160 0.02740 0.00100
C 	C 	0.24350 0.78360 0.31510 -0.01400
C 	C 	0.15870 0.79700 0.32600 0.02600
Mo	Mo	0.42039 0.59026 0.14083 1.17400
Mo	Mo	0.46992 0.66062 0.32244 1.07200
Mo	Mo	0.49130 0.66309 0.94374 1.16200
Cu	Cu	0.55773 0.47870 0.21896 0.89400
O 	O 	0.48880 0.52920 0.14940 -0.55200
O 	O 	0.40900 0.60200 0.25970 -0.53500
O 	O 	0.45030 0.62000 0.86300 -0.47900
O 	O 	0.49810 0.68220 0.17960 -0.41400
O 	O 	0.44020 0.62320 0.03280 -0.50500
O 	O 	0.85270 0.81570 0.35630 -0.34200
N 	N 	0.64040 0.51430 0.15940 -0.24400
N 	N 	0.48920 0.44550 0.30050 -0.25000
N 	N 	0.62790 0.45380 0.31070 -0.15600
C 	C 	0.64700 0.52490 0.07730 0.08900
H 	H 	0.60800 0.51680 0.04160 -0.03700
C 	C 	0.69560 0.52240 0.21040 0.11800
C 	C 	0.76120 0.54300 0.17960 -0.17500
H 	H 	0.80050 0.54770 0.21570 0.08000
C 	C 	0.68320 0.51040 0.30200 -0.18800
H 	H 	0.72690 0.49450 0.32960 0.06900
H 	H 	0.66760 0.55560 0.32890 0.05400
C 	C 	0.66020 0.38180 0.29890 -0.03000
H 	H 	0.69840 0.37660 0.34040 0.03000
H 	H 	0.68170 0.38040 0.24260 0.03500
C 	C 	0.61320 0.31890 0.30710 -0.16500
H 	H 	0.59430 0.31620 0.36480 0.06300
H 	H 	0.57340 0.32340 0.26770 0.08000
C 	C 	0.42260 0.42820 0.28440 0.07800
H 	H 	0.40660 0.42950 0.22800 -0.03800
C 	C 	0.37710 0.40880 0.34580 -0.14200
H 	H 	0.32930 0.39950 0.33330 0.07200
C 	C 	0.76650 0.55620 0.09460 0.08600
H 	H 	0.80990 0.57150 0.07180 -0.02200
C 	C 	0.71000 0.54750 0.04300 -0.16600
H 	H 	0.71380 0.55680 0.98460 0.05600
C 	C 	0.51430 0.43980 0.37910 0.08900
C 	C 	0.58960 0.45770 0.39130 -0.17700
H 	H 	0.61070 0.42370 0.43170 0.06700
H 	H 	0.59380 0.50670 0.41480 0.04900
C 	C 	0.47140 0.41870 0.44310 -0.14900
H 	H 	0.48950 0.41490 0.49830 0.02400
C 	C 	0.40230 0.40290 0.42830 0.04000
H 	H 	0.37230 0.38840 0.47260 -0.00200
C 	C 	0.74350 0.71640 0.18490 -0.01400
C 	C 	0.65870 0.70300 0.17400 0.02500
Mo	Mo	0.07961 0.40974 0.64083 1.17400
Mo	Mo	0.03008 0.33938 0.82244 1.07200
Mo	Mo	0.00870 0.33691 0.44374 1.16200
Cu	Cu	0.94227 0.52130 0.71896 0.89400
O 	O 	0.01120 0.47080 0.64940 -0.55100
O 	O 	0.09100 0.39800 0.75970 -0.53400
O 	O 	0.04970 0.38000 0.36300 -0.47900
O 	O 	0.00190 0.31780 0.67960 -0.41600
O 	O 	0.05980 0.37680 0.53280 -0.50600
O 	O 	0.64730 0.18430 0.85630 -0.34100
N 	N 	0.85960 0.48570 0.65940 -0.24500
N 	N 	0.01080 0.55450 0.80050 -0.24800
N 	N 	0.87210 0.54620 0.81070 -0.15600
C 	C 	0.85300 0.47510 0.57730 0.09100
H 	H 	0.89200 0.48320 0.54160 -0.03700
C 	C 	0.80440 0.47760 0.71040 0.11800
C 	C 	0.73880 0.45700 0.67960 -0.17600
H 	H 	0.69950 0.45230 0.71570 0.08000
C 	C 	0.81680 0.48960 0.80200 -0.18900
H 	H 	0.77310 0.50550 0.82960 0.06900
H 	H 	0.83240 0.44440 0.82890 0.05400
C 	C 	0.83980 0.61820 0.79890 -0.03100
H 	H 	0.80160 0.62340 0.84040 0.03000
H 	H 	0.81830 0.61960 0.74260 0.03500
C 	C 	0.88680 0.68110 0.80710 -0.16400
H 	H 	0.90570 0.68380 0.86480 0.06200
H 	H 	0.92660 0.67660 0.76770 0.08000
C 	C 	0.07740 0.57180 0.78440 0.07700
H 	H 	0.09340 0.57050 0.72800 -0.03800
C 	C 	0.12290 0.59120 0.84580 -0.14000
H 	H 	0.17070 0.60050 0.83330 0.07100
C 	C 	0.73350 0.44380 0.59460 0.08800
H 	H 	0.69010 0.42850 0.57180 -0.02300
C 	C 	0.79000 0.45250 0.54300 -0.17000
H 	H 	0.78620 0.44320 0.48460 0.05900
C 	C 	0.98570 0.56020 0.87910 0.08400
C 	C 	0.91040 0.54230 0.89130 -0.17400
H 	H 	0.88930 0.57630 0.93170 0.06500
H 	H 	0.90620 0.49330 0.91480 0.04800
C 	C 	0.02860 0.58130 0.94310 -0.14300
H 	H 	0.01050 0.58510 0.99830 0.02300
C 	C 	0.09770 0.59710 0.92830 0.03700
H 	H 	0.12770 0.61160 0.97260 -0.00000
C 	C 	0.75650 0.28360 0.68490 -0.01400
C 	C 	0.84130 0.29700 0.67400 0.02500
P 	P 	0.52772 0.75000 0.14020 0.45600
P 	P 	0.84509 0.75000 0.30190 0.44700
O 	O 	0.39450 0.75000 0.96170 -0.24500
O 	O 	0.89460 0.75000 0.22470 -0.43100
O 	O 	0.51880 0.75000 0.33540 -0.55200
O 	O 	0.51570 0.75000 0.88730 -0.50700
O 	O 	0.51530 0.75000 0.04470 -0.42300
C 	C 	0.61790 0.75000 0.15770 -0.14800
C 	C 	0.75700 0.75000 0.26390 -0.07700
P 	P 	0.97228 0.25000 0.64020 0.46000
P 	P 	0.65491 0.25000 0.80190 0.44700
O 	O 	0.10550 0.25000 0.46170 -0.24400
O 	O 	0.60540 0.25000 0.72470 -0.43100
O 	O 	0.98120 0.25000 0.83540 -0.55000
O 	O 	0.98430 0.25000 0.38730 -0.50400
O 	O 	0.98470 0.25000 0.54470 -0.42300
C 	C 	0.88210 0.25000 0.65770 -0.14800
C 	C 	0.74300 0.25000 0.76390 -0.07600
P 	P 	0.47228 0.25000 0.85980 0.45600
P 	P 	0.15491 0.25000 0.69810 0.44700
O 	O 	0.60550 0.25000 0.03830 -0.24500
O 	O 	0.10540 0.25000 0.77530 -0.43100
O 	O 	0.48120 0.25000 0.66460 -0.55200
O 	O 	0.48430 0.25000 0.11270 -0.50700
O 	O 	0.48470 0.25000 0.95530 -0.42300
C 	C 	0.38210 0.25000 0.84230 -0.14800
C 	C 	0.24300 0.25000 0.73610 -0.07700
P 	P 	0.02772 0.75000 0.35980 0.46000
P 	P 	0.34509 0.75000 0.19810 0.44700
O 	O 	0.89450 0.75000 0.53830 -0.24400
O 	O 	0.39460 0.75000 0.27530 -0.43100
O 	O 	0.01880 0.75000 0.16460 -0.55000
O 	O 	0.01570 0.75000 0.61270 -0.50400
O 	O 	0.01530 0.75000 0.45530 -0.42300
C 	C 	0.11790 0.75000 0.34230 -0.14800
C 	C 	0.25700 0.75000 0.23610 -0.07600
C 	C 	0.65610 0.25000 0.28690 0.03000
C 	C 	0.84390 0.75000 0.78690 0.02900
C 	C 	0.34390 0.75000 0.71310 0.03000
C 	C 	0.15610 0.25000 0.21310 0.02900
