data_crystal

_cell_length_a 13.50540
_cell_length_b 19.81500
_cell_length_c 11.63530
_cell_angle_alpha 90.00000
_cell_angle_beta  96.57790
_cell_angle_gamma 90.00000

_symmetry_space_group_name_	'P 1'
_symmetry_space_group_name_H-M	'P 1'

loop_
_symmetry_equiv_pos_as_xyz
  x,y,z

loop_
_atom_site_label
_atom_site_type_symbol
_atom_site_fract_x
_atom_site_fract_y
_atom_site_fract_z
_atom_site_charge
Co	Co	0.42731 0.21497 0.31493 1.12600
O 	O 	0.91760 0.13680 0.33300 -0.43000
H 	H 	0.88330 0.12560 0.38360 0.24400
O 	O 	0.93740 0.20660 0.46820 -0.43100
H 	H 	0.89570 0.17960 0.48570 0.22900
O 	O 	0.92250 0.22910 0.16240 -0.38600
H 	H 	0.92000 0.26240 0.12050 0.24500
O 	O 	0.93070 0.31480 0.30330 -0.37600
H 	H 	0.96970 0.32810 0.25920 0.24100
O 	O 	0.02190 0.00850 0.15380 -0.42100
H 	H 	0.08290 0.00680 0.15780 0.23200
O 	O 	0.01450 0.91910 0.05580 -0.41300
H 	H 	0.07560 0.91940 0.06150 0.25800
N 	N 	0.45955 0.21140 0.49790 -0.19200
N 	N 	0.42569 0.24501 0.56660 -0.03900
N 	N 	0.39075 0.27853 0.63400 -0.19500
N 	N 	0.43682 0.10801 0.30020 -0.19600
N 	N 	0.47547 0.07325 0.23640 -0.03800
N 	N 	0.51464 0.03659 0.17710 -0.19600
N 	N 	0.51624 0.09990 0.94450 -0.18600
N 	N 	0.46578 0.13732 0.88450 -0.03200
N 	N 	0.41738 0.17572 0.82670 -0.17800
N 	N 	0.58410 0.22635 0.29800 -0.26100
N 	N 	0.27045 0.20847 0.33134 -0.24000
N 	N 	0.65920 0.98956 0.01950 -0.22800
C 	C 	0.64450 0.26195 0.37620 0.11200
C 	C 	0.62640 0.20013 0.21020 0.18900
C 	C 	0.74450 0.27113 0.36880 -0.21600
C 	C 	0.72600 0.20666 0.19850 -0.34300
C 	C 	0.78830 0.24190 0.27830 0.16100
C 	C 	0.89900 0.24746 0.27200 0.14200
C 	C 	0.21390 0.16004 0.28040 0.09000
C 	C 	0.22360 0.25229 0.39430 0.07100
C 	C 	0.11330 0.15450 0.28550 -0.14000
C 	C 	0.12350 0.24880 0.40590 -0.10100
C 	C 	0.06530 0.19969 0.34750 0.04900
C 	C 	0.95420 0.19620 0.35560 0.30100
C 	C 	0.70740 0.93636 0.98410 0.09400
C 	C 	0.71630 0.03956 0.06510 0.04300
C 	C 	0.81900 0.03810 0.07920 -0.17100
C 	C 	0.81000 0.93132 0.99310 -0.03700
C 	C 	0.86840 0.98363 0.04040 0.02200
C 	C 	0.98130 0.98152 0.05070 0.26600
H 	H 	0.58080 0.17590 0.15500 -0.04600
H 	H 	0.78000 0.29430 0.42400 0.13200
H 	H 	0.85000 0.88680 0.95700 0.06900
H 	H 	0.66900 0.90430 0.95400 0.00200
H 	H 	0.75300 0.19100 0.14700 0.19600
H 	H 	0.60900 0.28110 0.44700 -0.00500
H 	H 	0.85700 0.07200 0.11300 0.11700
H 	H 	0.24600 0.12540 0.24300 -0.01600
H 	H 	0.68200 0.07190 0.10100 -0.00500
H 	H 	0.26500 0.29500 0.42600 0.01100
H 	H 	0.08500 0.11700 0.25700 0.11800
H 	H 	0.08000 0.28220 0.43900 0.10200
Co	Co	0.57269 0.71497 0.18507 1.12500
O 	O 	0.08240 0.63680 0.16700 -0.43000
H 	H 	0.11670 0.62560 0.11640 0.24300
O 	O 	0.06260 0.70660 0.03180 -0.44100
H 	H 	0.10430 0.67960 0.01430 0.22500
O 	O 	0.07750 0.72910 0.33760 -0.38100
H 	H 	0.08000 0.76240 0.37950 0.25900
O 	O 	0.06930 0.81480 0.19670 -0.37500
H 	H 	0.03030 0.82810 0.24080 0.25100
O 	O 	0.97810 0.50850 0.34620 -0.39800
H 	H 	0.91710 0.50680 0.34220 0.23600
O 	O 	0.98550 0.41910 0.44420 -0.40900
H 	H 	0.92440 0.41940 0.43850 0.25400
N 	N 	0.54045 0.71140 0.00210 -0.21100
N 	N 	0.57431 0.74501 0.93340 -0.01600
N 	N 	0.60925 0.77853 0.86600 -0.19000
N 	N 	0.56318 0.60801 0.19980 -0.19500
N 	N 	0.52453 0.57325 0.26360 -0.03500
N 	N 	0.48536 0.53659 0.32290 -0.18500
N 	N 	0.48376 0.59990 0.55550 -0.19500
N 	N 	0.53422 0.63732 0.61550 -0.03200
N 	N 	0.58262 0.67572 0.67330 -0.17600
N 	N 	0.41590 0.72635 0.20200 -0.26100
N 	N 	0.72955 0.70847 0.16866 -0.23800
N 	N 	0.34080 0.48956 0.48050 -0.23600
C 	C 	0.35550 0.76195 0.12380 0.11300
C 	C 	0.37360 0.70013 0.28980 0.19500
C 	C 	0.25550 0.77113 0.13120 -0.21500
C 	C 	0.27400 0.70666 0.30150 -0.34500
C 	C 	0.21170 0.74190 0.22170 0.16500
C 	C 	0.10100 0.74746 0.22800 0.14100
C 	C 	0.78610 0.66004 0.21960 0.08600
C 	C 	0.77640 0.75229 0.10570 0.06500
C 	C 	0.88670 0.65450 0.21450 -0.13000
C 	C 	0.87650 0.74880 0.09410 -0.09700
C 	C 	0.93470 0.69969 0.15250 0.03400
C 	C 	0.04580 0.69620 0.14440 0.31200
C 	C 	0.29260 0.43636 0.51590 0.05400
C 	C 	0.28370 0.53956 0.43490 0.08700
C 	C 	0.18100 0.53810 0.42080 -0.13900
C 	C 	0.19000 0.43132 0.50690 -0.06500
C 	C 	0.13160 0.48363 0.45960 0.02200
C 	C 	0.01870 0.48152 0.44930 0.24600
H 	H 	0.41920 0.67590 0.34500 -0.04000
H 	H 	0.22000 0.79430 0.07600 0.12700
H 	H 	0.15000 0.38680 0.54300 0.06400
H 	H 	0.33100 0.40430 0.54600 0.00500
H 	H 	0.24700 0.69100 0.35300 0.20500
H 	H 	0.39100 0.78110 0.05300 -0.01300
H 	H 	0.14300 0.57200 0.38700 0.11600
H 	H 	0.75400 0.62540 0.25700 -0.01200
H 	H 	0.31800 0.57190 0.39900 -0.01100
H 	H 	0.73500 0.79500 0.07400 0.00400
H 	H 	0.91500 0.61700 0.24300 0.11500
H 	H 	0.92000 0.78220 0.06100 0.09100
Co	Co	0.57269 0.78503 0.68507 1.12800
O 	O 	0.08240 0.86320 0.66700 -0.42500
H 	H 	0.11670 0.87440 0.61640 0.25000
O 	O 	0.06260 0.79340 0.53180 -0.43200
H 	H 	0.10430 0.82040 0.51430 0.23300
O 	O 	0.07750 0.77090 0.83760 -0.37800
H 	H 	0.08000 0.73760 0.87950 0.26800
O 	O 	0.06930 0.68520 0.69670 -0.37400
H 	H 	0.03030 0.67190 0.74080 0.25100
O 	O 	0.97810 0.99150 0.84620 -0.35500
H 	H 	0.91710 0.99320 0.84220 0.23700
O 	O 	0.98550 0.08090 0.94420 -0.38100
H 	H 	0.92440 0.08060 0.93850 0.24800
N 	N 	0.54045 0.78860 0.50210 -0.18700
N 	N 	0.57431 0.75499 0.43340 -0.03700
N 	N 	0.60925 0.72147 0.36600 -0.19400
N 	N 	0.56318 0.89199 0.69980 -0.18600
N 	N 	0.52453 0.92675 0.76360 -0.02900
N 	N 	0.48536 0.96341 0.82290 -0.16300
N 	N 	0.48376 0.90010 0.05550 -0.19700
N 	N 	0.53422 0.86268 0.11550 -0.03400
N 	N 	0.58262 0.82428 0.17330 -0.17900
N 	N 	0.41590 0.77365 0.70200 -0.26000
N 	N 	0.72955 0.79153 0.66866 -0.23600
N 	N 	0.34080 0.01044 0.98050 -0.23300
C 	C 	0.35550 0.73805 0.62380 0.11800
C 	C 	0.37360 0.79987 0.78980 0.20100
C 	C 	0.25550 0.72887 0.63120 -0.21800
C 	C 	0.27400 0.79334 0.80150 -0.34700
C 	C 	0.21170 0.75810 0.72170 0.17100
C 	C 	0.10100 0.75254 0.72800 0.14200
C 	C 	0.78610 0.83996 0.71960 0.09400
C 	C 	0.77640 0.74771 0.60570 0.07300
C 	C 	0.88670 0.84550 0.71450 -0.13000
C 	C 	0.87650 0.75120 0.59410 -0.09500
C 	C 	0.93470 0.80031 0.65250 0.04300
C 	C 	0.04580 0.80380 0.64440 0.30800
C 	C 	0.29260 0.06364 0.01590 0.01400
C 	C 	0.28370 0.96044 0.93490 0.13100
C 	C 	0.18100 0.96190 0.92080 -0.11400
C 	C 	0.19000 0.06868 0.00690 -0.09800
C 	C 	0.13160 0.01637 0.95960 0.03600
C 	C 	0.01870 0.01848 0.94930 0.19200
H 	H 	0.41920 0.82410 0.84500 -0.03400
H 	H 	0.22000 0.70570 0.57600 0.13500
H 	H 	0.15000 0.11320 0.04300 0.05900
H 	H 	0.33100 0.09570 0.04600 0.01000
H 	H 	0.24700 0.80900 0.85300 0.21400
H 	H 	0.39100 0.71890 0.55300 -0.00500
H 	H 	0.14300 0.92800 0.88700 0.11700
H 	H 	0.75400 0.87460 0.75700 -0.00900
H 	H 	0.31800 0.92810 0.89900 -0.01400
H 	H 	0.73500 0.70500 0.57400 0.01200
H 	H 	0.91500 0.88300 0.74300 0.12100
H 	H 	0.92000 0.71780 0.56100 0.09900
Co	Co	0.42731 0.28503 0.81493 1.12800
O 	O 	0.91760 0.36320 0.83300 -0.42700
H 	H 	0.88330 0.37440 0.88360 0.25100
O 	O 	0.93740 0.29340 0.96820 -0.42200
H 	H 	0.89570 0.32040 0.98570 0.23700
O 	O 	0.92250 0.27090 0.66240 -0.38300
H 	H 	0.92000 0.23760 0.62050 0.25600
O 	O 	0.93070 0.18520 0.80330 -0.37400
H 	H 	0.96970 0.17190 0.75920 0.24300
O 	O 	0.02190 0.49150 0.65380 -0.38000
H 	H 	0.08290 0.49320 0.65780 0.23400
O 	O 	0.01450 0.58090 0.55580 -0.39300
H 	H 	0.07560 0.58060 0.56150 0.25100
N 	N 	0.45955 0.28860 0.99790 -0.16700
N 	N 	0.42569 0.25499 0.06660 -0.06100
N 	N 	0.39075 0.22147 0.13400 -0.19800
N 	N 	0.43682 0.39199 0.80020 -0.18700
N 	N 	0.47547 0.42675 0.73640 -0.03200
N 	N 	0.51464 0.46341 0.67710 -0.18100
N 	N 	0.51624 0.40010 0.44450 -0.19700
N 	N 	0.46578 0.36268 0.38450 -0.03500
N 	N 	0.41738 0.32428 0.32670 -0.18200
N 	N 	0.58410 0.27365 0.79800 -0.26100
N 	N 	0.27045 0.29153 0.83134 -0.23700
N 	N 	0.65920 0.51044 0.51950 -0.23700
C 	C 	0.64450 0.23805 0.87620 0.11900
C 	C 	0.62640 0.29987 0.71020 0.19700
C 	C 	0.74450 0.22887 0.86880 -0.22000
C 	C 	0.72600 0.29334 0.69850 -0.34800
C 	C 	0.78830 0.25810 0.77830 0.16800
C 	C 	0.89900 0.25254 0.77200 0.14100
C 	C 	0.21390 0.33996 0.78040 0.09600
C 	C 	0.22360 0.24771 0.89430 0.07700
C 	C 	0.11330 0.34550 0.78550 -0.13700
C 	C 	0.12350 0.25120 0.90590 -0.09600
C 	C 	0.06530 0.30031 0.84750 0.05200
C 	C 	0.95420 0.30380 0.85560 0.30200
C 	C 	0.70740 0.56364 0.48410 0.05700
C 	C 	0.71630 0.46044 0.56510 0.09100
C 	C 	0.81900 0.46190 0.57920 -0.14400
C 	C 	0.81000 0.56868 0.49310 -0.07000
C 	C 	0.86840 0.51637 0.54040 0.03200
C 	C 	0.98130 0.51848 0.55070 0.21800
H 	H 	0.58080 0.32410 0.65500 -0.04100
H 	H 	0.78000 0.20570 0.92400 0.14200
H 	H 	0.85000 0.61320 0.45700 0.06400
H 	H 	0.66900 0.59570 0.45400 0.00400
H 	H 	0.75300 0.30900 0.64700 0.20600
H 	H 	0.60900 0.21890 0.94700 0.00300
H 	H 	0.85700 0.42800 0.61300 0.11800
H 	H 	0.24600 0.37460 0.74300 -0.01200
H 	H 	0.68200 0.42810 0.60100 -0.01000
H 	H 	0.26500 0.20500 0.92600 0.02000
H 	H 	0.08500 0.38300 0.75700 0.12300
H 	H 	0.08000 0.21780 0.93900 0.10800
Co	Co	0.50000 0.00000 -0.00000 1.09400
Co	Co	0.50000 0.50000 0.50000 1.12600
