data_crystal

_cell_length_a 10.02200
_cell_length_b 10.18200
_cell_length_c 10.61900
_cell_angle_alpha 72.98300
_cell_angle_beta  62.18200
_cell_angle_gamma 63.99700

_symmetry_space_group_name_	'P 1'
_symmetry_space_group_name_H-M	'P 1'

loop_
_symmetry_equiv_pos_as_xyz
  x,y,z

loop_
_atom_site_label
_atom_site_type_symbol
_atom_site_fract_x
_atom_site_fract_y
_atom_site_fract_z
_atom_site_charge
Cu	Cu	0.22877 0.49947 0.53742 0.92500
Cu	Cu	0.42925 0.18211 0.80104 0.86600
Cu	Cu	0.24864 0.14313 0.18630 0.86400
Cu	Cu	0.77123 0.50053 0.46258 0.92400
Cu	Cu	0.57075 0.81789 0.19896 0.86500
Cu	Cu	0.75136 0.85687 0.81370 0.86400
P 	P 	0.85454 0.54252 0.71595 0.46100
P 	P 	0.59272 0.10921 0.00747 0.41300
P 	P 	0.57944 0.48551 0.30451 0.43100
P 	P 	0.14546 0.45748 0.28405 0.46100
P 	P 	0.40728 0.89079 0.99253 0.41300
P 	P 	0.42056 0.51449 0.69549 0.43100
H 	H 	0.73100 0.31200 0.79300 0.02500
H 	H 	0.54700 0.25100 0.21700 0.03400
H 	H 	0.75900 0.54200 0.01800 -0.00600
H 	H 	0.26900 0.68800 0.20700 0.02500
H 	H 	0.45300 0.74900 0.78300 0.03400
H 	H 	0.24100 0.45800 0.98200 -0.00600
C 	C 	0.76250 0.44400 0.88230 -0.10700
C 	C 	0.72240 0.32810 0.88230 0.03300
C 	C 	0.64420 0.25530 0.01140 -0.09100
C 	C 	0.60230 0.30000 0.14080 0.02300
C 	C 	0.64350 0.41310 0.14180 -0.09800
C 	C 	0.72590 0.48140 0.01230 0.04200
C 	C 	0.23750 0.55600 0.11770 -0.10700
C 	C 	0.27760 0.67190 0.11770 0.03300
C 	C 	0.35580 0.74470 0.98860 -0.09100
C 	C 	0.39770 0.70000 0.85920 0.02300
C 	C 	0.35650 0.58690 0.85820 -0.09800
C 	C 	0.27410 0.51860 0.98770 0.04200
O 	O 	0.45900 0.41730 0.42410 -0.38700
O 	O 	0.83390 0.50180 0.60330 -0.40300
O 	O 	0.03160 0.48930 0.69380 -0.40800
O 	O 	0.73330 0.43970 0.32930 -0.40200
O 	O 	0.42730 0.17350 0.99470 -0.47700
O 	O 	0.72110 0.03470 0.87350 -0.43800
O 	O 	0.76880 0.70640 0.73060 -0.42700
O 	O 	0.49950 0.65280 0.28140 -0.42000
O 	O 	0.57750 0.01380 0.15030 -0.45200
O 	O 	0.54100 0.58270 0.57590 -0.38700
O 	O 	0.16610 0.49820 0.39670 -0.40300
O 	O 	0.96840 0.51070 0.30620 -0.40800
O 	O 	0.26670 0.56030 0.67070 -0.40200
O 	O 	0.57270 0.82650 0.00530 -0.47700
O 	O 	0.27890 0.96530 0.12650 -0.43800
O 	O 	0.23120 0.29360 0.26940 -0.42700
O 	O 	0.50050 0.34720 0.71860 -0.42000
O 	O 	0.42250 0.98620 0.84970 -0.45200
