data_crystal

_cell_length_a 25.88210
_cell_length_b 25.88210
_cell_length_c 25.88210
_cell_angle_alpha 90.00000
_cell_angle_beta  90.00000
_cell_angle_gamma 90.00000

_symmetry_space_group_name_	'P 1'
_symmetry_space_group_name_H-M	'P 1'

loop_
_symmetry_equiv_pos_as_xyz
  x,y,z

loop_
_atom_site_label
_atom_site_type_symbol
_atom_site_fract_x
_atom_site_fract_y
_atom_site_fract_z
_atom_site_charge
Zn	Zn	0.29340 0.29340 0.20660 1.21100
Zn	Zn	0.70660 0.70660 0.20660 1.21100
Zn	Zn	0.20660 0.20660 0.20660 1.21100
Zn	Zn	0.70660 0.29340 0.79340 1.21100
Zn	Zn	0.20660 0.29340 0.29340 1.21100
Zn	Zn	0.29340 0.70660 0.79340 1.21100
Zn	Zn	0.29340 0.20660 0.29340 1.21100
Zn	Zn	0.20660 0.79340 0.79340 1.21100
Zn	Zn	0.20660 0.70660 0.70660 1.21100
Zn	Zn	0.79340 0.70660 0.29340 1.21100
Zn	Zn	0.79340 0.20660 0.79340 1.21100
Zn	Zn	0.79340 0.29340 0.70660 1.21100
Zn	Zn	0.79340 0.79340 0.20660 1.21100
Zn	Zn	0.70660 0.20660 0.70660 1.21100
Zn	Zn	0.29340 0.79340 0.70660 1.21100
Zn	Zn	0.70660 0.79340 0.29340 1.21100
Zn	Zn	0.29340 0.29340 0.79340 1.21100
Zn	Zn	0.70660 0.70660 0.79340 1.21100
Zn	Zn	0.70660 0.20660 0.29340 1.21100
Zn	Zn	0.20660 0.70660 0.29340 1.21100
Zn	Zn	0.29340 0.70660 0.20660 1.21100
Zn	Zn	0.70660 0.29340 0.20660 1.21100
Zn	Zn	0.20660 0.79340 0.20660 1.21100
Zn	Zn	0.29340 0.20660 0.70660 1.21100
Zn	Zn	0.20660 0.20660 0.79340 1.21100
Zn	Zn	0.70660 0.79340 0.70660 1.21100
Zn	Zn	0.20660 0.29340 0.70660 1.21100
Zn	Zn	0.29340 0.79340 0.29340 1.21100
Zn	Zn	0.79340 0.29340 0.29340 1.21100
Zn	Zn	0.79340 0.79340 0.79340 1.21100
Zn	Zn	0.79340 0.70660 0.70660 1.21100
Zn	Zn	0.79340 0.20660 0.20660 1.21100
O 	O 	0.25000 0.25000 0.25000 -0.96000
O 	O 	0.75000 0.75000 0.25000 -0.96000
O 	O 	0.75000 0.25000 0.75000 -0.96000
O 	O 	0.25000 0.75000 0.75000 -0.96000
O 	O 	0.25000 0.25000 0.75000 -0.96000
O 	O 	0.75000 0.75000 0.75000 -0.96000
O 	O 	0.75000 0.25000 0.25000 -0.96000
O 	O 	0.25000 0.75000 0.25000 -0.96000
O 	O 	0.28070 0.36610 0.21930 -0.50200
C 	C 	0.28310 0.47360 0.21690 -0.00400
H 	H 	0.30770 0.45220 0.19230 0.04200
O 	O 	0.28070 0.86610 0.71930 -0.50200
C 	C 	0.28310 0.97360 0.71690 -0.00400
H 	H 	0.30770 0.95220 0.69230 0.04200
O 	O 	0.71930 0.63390 0.21930 -0.50200
C 	C 	0.71690 0.52640 0.21690 -0.00400
H 	H 	0.69230 0.54780 0.19230 0.04200
O 	O 	0.71930 0.13390 0.71930 -0.50200
C 	C 	0.71690 0.02640 0.71690 -0.00400
H 	H 	0.69230 0.04780 0.69230 0.04200
O 	O 	0.21930 0.13390 0.21930 -0.50200
C 	C 	0.21690 0.02640 0.21690 -0.00400
H 	H 	0.19230 0.04780 0.19230 0.04100
O 	O 	0.71930 0.36610 0.78070 -0.50200
C 	C 	0.71690 0.47360 0.78310 -0.00400
H 	H 	0.69230 0.45220 0.80770 0.04200
O 	O 	0.71930 0.86610 0.28070 -0.50200
C 	C 	0.71690 0.97360 0.28310 -0.00400
H 	H 	0.69230 0.95220 0.30770 0.04200
O 	O 	0.21930 0.36610 0.28070 -0.50200
C 	C 	0.21690 0.47360 0.28310 -0.00400
H 	H 	0.19230 0.45220 0.30770 0.04200
O 	O 	0.28070 0.63390 0.78070 -0.50200
C 	C 	0.28310 0.52640 0.78310 -0.00400
H 	H 	0.30770 0.54780 0.80770 0.04200
O 	O 	0.28070 0.13390 0.28070 -0.50200
C 	C 	0.28310 0.02640 0.28310 -0.00400
H 	H 	0.30770 0.04780 0.30770 0.04200
O 	O 	0.21930 0.28070 0.36610 -0.50200
C 	C 	0.21690 0.28310 0.47360 -0.00400
H 	H 	0.19230 0.30770 0.45220 0.04200
O 	O 	0.21930 0.78070 0.86610 -0.50200
C 	C 	0.21690 0.78310 0.97360 -0.00400
H 	H 	0.19230 0.80770 0.95220 0.04100
O 	O 	0.21930 0.71930 0.63390 -0.50200
C 	C 	0.21690 0.71690 0.52640 -0.00400
H 	H 	0.19230 0.69230 0.54780 0.04200
O 	O 	0.21930 0.21930 0.13390 -0.50200
C 	C 	0.21690 0.21690 0.02640 -0.00300
H 	H 	0.19230 0.19230 0.04780 0.04200
O 	O 	0.78070 0.71930 0.36610 -0.50100
C 	C 	0.78310 0.71690 0.47360 -0.00300
H 	H 	0.80770 0.69230 0.45220 0.04300
O 	O 	0.78070 0.21930 0.86610 -0.50100
C 	C 	0.78310 0.21690 0.97360 -0.00300
H 	H 	0.80770 0.19230 0.95220 0.04200
O 	O 	0.28070 0.21930 0.36610 -0.50100
C 	C 	0.28310 0.21690 0.47360 -0.00300
H 	H 	0.30770 0.19230 0.45220 0.04300
O 	O 	0.78070 0.28070 0.63390 -0.50100
C 	C 	0.78310 0.28310 0.52640 -0.00300
H 	H 	0.80770 0.30770 0.54780 0.04300
O 	O 	0.78070 0.78070 0.13390 -0.50100
C 	C 	0.78310 0.78310 0.02640 -0.00300
H 	H 	0.80770 0.80770 0.04780 0.04200
O 	O 	0.28070 0.28070 0.13390 -0.50100
C 	C 	0.28310 0.28310 0.02640 -0.00300
H 	H 	0.30770 0.30770 0.04780 0.04300
O 	O 	0.36610 0.21930 0.28070 -0.50100
C 	C 	0.47360 0.21690 0.28310 -0.00300
H 	H 	0.45220 0.19230 0.30770 0.04300
O 	O 	0.86610 0.21930 0.78070 -0.50100
C 	C 	0.97360 0.21690 0.78310 -0.00300
H 	H 	0.95220 0.19230 0.80770 0.04200
O 	O 	0.63390 0.21930 0.71930 -0.50100
C 	C 	0.52640 0.21690 0.71690 -0.00300
H 	H 	0.54780 0.19230 0.69230 0.04300
O 	O 	0.13390 0.21930 0.21930 -0.50100
C 	C 	0.02640 0.21690 0.21690 -0.00300
H 	H 	0.04780 0.19230 0.19230 0.04200
O 	O 	0.36610 0.78070 0.71930 -0.50100
C 	C 	0.47360 0.78310 0.71690 -0.00300
H 	H 	0.45220 0.80770 0.69230 0.04300
O 	O 	0.36610 0.28070 0.21930 -0.50100
C 	C 	0.47360 0.28310 0.21690 -0.00300
H 	H 	0.45220 0.30770 0.19230 0.04300
O 	O 	0.86610 0.78070 0.21930 -0.50100
C 	C 	0.97360 0.78310 0.21690 -0.00300
H 	H 	0.95220 0.80770 0.19230 0.04200
O 	O 	0.63390 0.78070 0.28070 -0.50100
C 	C 	0.52640 0.78310 0.28310 -0.00300
H 	H 	0.54780 0.80770 0.30770 0.04300
O 	O 	0.13390 0.78070 0.78070 -0.50100
C 	C 	0.02640 0.78310 0.78310 -0.00300
H 	H 	0.04780 0.80770 0.80770 0.04200
O 	O 	0.13390 0.28070 0.28070 -0.50100
C 	C 	0.02640 0.28310 0.28310 -0.00300
H 	H 	0.04780 0.30770 0.30770 0.04300
O 	O 	0.36610 0.28070 0.78070 -0.50100
C 	C 	0.47360 0.28310 0.78310 -0.00300
H 	H 	0.45220 0.30770 0.80770 0.04300
O 	O 	0.86610 0.28070 0.28070 -0.50100
C 	C 	0.97360 0.28310 0.28310 -0.00300
H 	H 	0.95220 0.30770 0.30770 0.04300
O 	O 	0.63390 0.71930 0.78070 -0.50100
C 	C 	0.52640 0.71690 0.78310 -0.00300
H 	H 	0.54780 0.69230 0.80770 0.04300
O 	O 	0.63390 0.21930 0.28070 -0.50100
C 	C 	0.52640 0.21690 0.28310 -0.00300
H 	H 	0.54780 0.19230 0.30770 0.04300
O 	O 	0.13390 0.71930 0.28070 -0.50100
C 	C 	0.02640 0.71690 0.28310 -0.00300
H 	H 	0.04780 0.69230 0.30770 0.04300
O 	O 	0.36610 0.71930 0.21930 -0.50100
C 	C 	0.47360 0.71690 0.21690 -0.00300
H 	H 	0.45220 0.69230 0.19230 0.04300
O 	O 	0.86610 0.71930 0.71930 -0.50100
C 	C 	0.97360 0.71690 0.71690 -0.00300
H 	H 	0.95220 0.69230 0.69230 0.04300
O 	O 	0.86610 0.21930 0.21930 -0.50100
C 	C 	0.97360 0.21690 0.21690 -0.00300
H 	H 	0.95220 0.19230 0.19230 0.04200
O 	O 	0.63390 0.28070 0.21930 -0.50100
C 	C 	0.52640 0.28310 0.21690 -0.00300
H 	H 	0.54780 0.30770 0.19230 0.04300
O 	O 	0.13390 0.28070 0.71930 -0.50100
C 	C 	0.02640 0.28310 0.71690 -0.00300
H 	H 	0.04780 0.30770 0.69230 0.04300
O 	O 	0.28070 0.21930 0.63390 -0.50100
C 	C 	0.28310 0.21690 0.52640 -0.00300
H 	H 	0.30770 0.19230 0.54780 0.04300
O 	O 	0.28070 0.71930 0.13390 -0.50100
C 	C 	0.28310 0.71690 0.02640 -0.00300
H 	H 	0.30770 0.69230 0.04780 0.04300
O 	O 	0.71930 0.21930 0.36610 -0.50100
C 	C 	0.71690 0.21690 0.47360 -0.00300
H 	H 	0.69230 0.19230 0.45220 0.04300
O 	O 	0.71930 0.71930 0.86610 -0.50100
C 	C 	0.71690 0.71690 0.97360 -0.00300
H 	H 	0.69230 0.69230 0.95220 0.04300
O 	O 	0.21930 0.21930 0.86610 -0.50100
C 	C 	0.21690 0.21690 0.97360 -0.00300
H 	H 	0.19230 0.19230 0.95220 0.04200
O 	O 	0.71930 0.78070 0.63390 -0.50100
C 	C 	0.71690 0.78310 0.52640 -0.00300
H 	H 	0.69230 0.80770 0.54780 0.04300
O 	O 	0.71930 0.28070 0.13390 -0.50100
C 	C 	0.71690 0.28310 0.02640 -0.00300
H 	H 	0.69230 0.30770 0.04780 0.04300
O 	O 	0.21930 0.28070 0.63390 -0.50100
C 	C 	0.21690 0.28310 0.52640 -0.00300
H 	H 	0.19230 0.30770 0.54780 0.04300
O 	O 	0.28070 0.78070 0.36610 -0.50100
C 	C 	0.28310 0.78310 0.47360 -0.00300
H 	H 	0.30770 0.80770 0.45220 0.04300
O 	O 	0.28070 0.28070 0.86610 -0.50100
C 	C 	0.28310 0.28310 0.97360 -0.00300
H 	H 	0.30770 0.30770 0.95220 0.04300
O 	O 	0.21930 0.36610 0.71930 -0.50100
C 	C 	0.21690 0.47360 0.71690 -0.00300
H 	H 	0.19230 0.45220 0.69230 0.04300
O 	O 	0.21930 0.86610 0.21930 -0.50100
C 	C 	0.21690 0.97360 0.21690 -0.00300
H 	H 	0.19230 0.95220 0.19230 0.04200
O 	O 	0.21930 0.63390 0.28070 -0.50100
C 	C 	0.21690 0.52640 0.28310 -0.00300
H 	H 	0.19230 0.54780 0.30770 0.04300
O 	O 	0.21930 0.13390 0.78070 -0.50100
C 	C 	0.21690 0.02640 0.78310 -0.00300
H 	H 	0.19230 0.04780 0.80770 0.04200
O 	O 	0.78070 0.36610 0.28070 -0.50100
C 	C 	0.78310 0.47360 0.28310 -0.00300
H 	H 	0.80770 0.45220 0.30770 0.04300
O 	O 	0.78070 0.86610 0.78070 -0.50100
C 	C 	0.78310 0.97360 0.78310 -0.00300
H 	H 	0.80770 0.95220 0.80770 0.04200
O 	O 	0.28070 0.86610 0.28070 -0.50100
C 	C 	0.28310 0.97360 0.28310 -0.00300
H 	H 	0.30770 0.95220 0.30770 0.04300
O 	O 	0.78070 0.63390 0.71930 -0.50100
C 	C 	0.78310 0.52640 0.71690 -0.00300
H 	H 	0.80770 0.54780 0.69230 0.04300
O 	O 	0.78070 0.13390 0.21930 -0.50100
C 	C 	0.78310 0.02640 0.21690 -0.00300
H 	H 	0.80770 0.04780 0.19230 0.04200
O 	O 	0.28070 0.63390 0.21930 -0.50100
C 	C 	0.28310 0.52640 0.21690 -0.00300
H 	H 	0.30770 0.54780 0.19230 0.04300
O 	O 	0.71930 0.63390 0.78070 -0.50100
C 	C 	0.71690 0.52640 0.78310 -0.00300
H 	H 	0.69230 0.54780 0.80770 0.04300
O 	O 	0.71930 0.13390 0.28070 -0.50100
C 	C 	0.71690 0.02640 0.28310 -0.00300
H 	H 	0.69230 0.04780 0.30770 0.04300
O 	O 	0.28070 0.36610 0.78070 -0.50100
C 	C 	0.28310 0.47360 0.78310 -0.00300
H 	H 	0.30770 0.45220 0.80770 0.04300
O 	O 	0.28070 0.13390 0.71930 -0.50100
C 	C 	0.28310 0.02640 0.71690 -0.00300
H 	H 	0.30770 0.04780 0.69230 0.04300
O 	O 	0.71930 0.36610 0.21930 -0.50100
C 	C 	0.71690 0.47360 0.21690 -0.00300
H 	H 	0.69230 0.45220 0.19230 0.04300
O 	O 	0.71930 0.86610 0.71930 -0.50100
C 	C 	0.71690 0.97360 0.71690 -0.00300
H 	H 	0.69230 0.95220 0.69230 0.04300
O 	O 	0.78070 0.71930 0.63390 -0.50100
C 	C 	0.78310 0.71690 0.52640 -0.00300
H 	H 	0.80770 0.69230 0.54780 0.04300
O 	O 	0.78070 0.21930 0.13390 -0.50100
C 	C 	0.78310 0.21690 0.02640 -0.00300
H 	H 	0.80770 0.19230 0.04780 0.04200
O 	O 	0.78070 0.28070 0.36610 -0.50100
C 	C 	0.78310 0.28310 0.47360 -0.00300
H 	H 	0.80770 0.30770 0.45220 0.04300
O 	O 	0.78070 0.78070 0.86610 -0.50100
C 	C 	0.78310 0.78310 0.97360 -0.00300
H 	H 	0.80770 0.80770 0.95220 0.04200
O 	O 	0.21930 0.78070 0.13390 -0.50100
C 	C 	0.21690 0.78310 0.02640 -0.00300
H 	H 	0.19230 0.80770 0.04780 0.04200
O 	O 	0.21930 0.71930 0.36610 -0.50100
C 	C 	0.21690 0.71690 0.47360 -0.00300
H 	H 	0.19230 0.69230 0.45220 0.04300
O 	O 	0.63390 0.78070 0.71930 -0.50100
C 	C 	0.52640 0.78310 0.71690 -0.00300
H 	H 	0.54780 0.80770 0.69230 0.04300
O 	O 	0.13390 0.78070 0.21930 -0.50100
C 	C 	0.02640 0.78310 0.21690 -0.00300
H 	H 	0.04780 0.80770 0.19230 0.04200
O 	O 	0.36610 0.78070 0.28070 -0.50100
C 	C 	0.47360 0.78310 0.28310 -0.00300
H 	H 	0.45220 0.80770 0.30770 0.04300
O 	O 	0.86610 0.78070 0.78070 -0.50100
C 	C 	0.97360 0.78310 0.78310 -0.00300
H 	H 	0.95220 0.80770 0.80770 0.04200
O 	O 	0.13390 0.21930 0.78070 -0.50100
C 	C 	0.02640 0.21690 0.78310 -0.00300
H 	H 	0.04780 0.19230 0.80770 0.04200
O 	O 	0.36610 0.21930 0.71930 -0.50100
C 	C 	0.47360 0.21690 0.71690 -0.00300
H 	H 	0.45220 0.19230 0.69230 0.04300
O 	O 	0.63390 0.71930 0.21930 -0.50100
C 	C 	0.52640 0.71690 0.21690 -0.00300
H 	H 	0.54780 0.69230 0.19230 0.04300
O 	O 	0.13390 0.71930 0.71930 -0.50100
C 	C 	0.02640 0.71690 0.71690 -0.00300
H 	H 	0.04780 0.69230 0.69230 0.04300
O 	O 	0.86610 0.28070 0.71930 -0.50100
C 	C 	0.97360 0.28310 0.71690 -0.00300
H 	H 	0.95220 0.30770 0.69230 0.04300
O 	O 	0.63390 0.28070 0.78070 -0.50100
C 	C 	0.52640 0.28310 0.78310 -0.00300
H 	H 	0.54780 0.30770 0.80770 0.04300
O 	O 	0.36610 0.71930 0.78070 -0.50100
C 	C 	0.47360 0.71690 0.78310 -0.00300
H 	H 	0.45220 0.69230 0.80770 0.04300
O 	O 	0.86610 0.71930 0.28070 -0.50100
C 	C 	0.97360 0.71690 0.28310 -0.00300
H 	H 	0.95220 0.69230 0.30770 0.04300
O 	O 	0.71930 0.78070 0.36610 -0.50100
C 	C 	0.71690 0.78310 0.47360 -0.00300
H 	H 	0.69230 0.80770 0.45220 0.04300
O 	O 	0.71930 0.28070 0.86610 -0.50100
C 	C 	0.71690 0.28310 0.97360 -0.00300
H 	H 	0.69230 0.30770 0.95220 0.04300
O 	O 	0.28070 0.78070 0.63390 -0.50100
C 	C 	0.28310 0.78310 0.52640 -0.00300
H 	H 	0.30770 0.80770 0.54780 0.04300
O 	O 	0.28070 0.71930 0.86610 -0.50100
C 	C 	0.28310 0.71690 0.97360 -0.00300
H 	H 	0.30770 0.69230 0.95220 0.04300
O 	O 	0.71930 0.21930 0.63390 -0.50100
C 	C 	0.71690 0.21690 0.52640 -0.00300
H 	H 	0.69230 0.19230 0.54780 0.04300
O 	O 	0.71930 0.71930 0.13390 -0.50100
C 	C 	0.71690 0.71690 0.02640 -0.00300
H 	H 	0.69230 0.69230 0.04780 0.04300
O 	O 	0.78070 0.63390 0.28070 -0.50100
C 	C 	0.78310 0.52640 0.28310 -0.00300
H 	H 	0.80770 0.54780 0.30770 0.04300
O 	O 	0.78070 0.13390 0.78070 -0.50100
C 	C 	0.78310 0.02640 0.78310 -0.00300
H 	H 	0.80770 0.04780 0.80770 0.04200
O 	O 	0.78070 0.36610 0.71930 -0.50100
C 	C 	0.78310 0.47360 0.71690 -0.00300
H 	H 	0.80770 0.45220 0.69230 0.04300
O 	O 	0.78070 0.86610 0.21930 -0.50100
C 	C 	0.78310 0.97360 0.21690 -0.00300
H 	H 	0.80770 0.95220 0.19230 0.04200
O 	O 	0.21930 0.63390 0.71930 -0.50100
C 	C 	0.21690 0.52640 0.71690 -0.00300
H 	H 	0.19230 0.54780 0.69230 0.04300
O 	O 	0.21930 0.86610 0.78070 -0.50100
C 	C 	0.21690 0.97360 0.78310 -0.00300
H 	H 	0.19230 0.95220 0.80770 0.04200
C 	C 	0.25000 0.38950 0.25000 0.38100
C 	C 	0.25000 0.44520 0.25000 -0.10500
C 	C 	0.25000 0.88950 0.75000 0.38100
C 	C 	0.25000 0.94520 0.75000 -0.10500
C 	C 	0.75000 0.61050 0.25000 0.38100
C 	C 	0.75000 0.55480 0.25000 -0.10500
C 	C 	0.75000 0.11050 0.75000 0.38100
C 	C 	0.75000 0.05480 0.75000 -0.10500
C 	C 	0.25000 0.11050 0.25000 0.38100
C 	C 	0.25000 0.05480 0.25000 -0.10500
C 	C 	0.75000 0.38950 0.75000 0.38100
C 	C 	0.75000 0.44520 0.75000 -0.10500
C 	C 	0.75000 0.88950 0.25000 0.38100
C 	C 	0.75000 0.94520 0.25000 -0.10500
C 	C 	0.25000 0.61050 0.75000 0.38100
C 	C 	0.25000 0.55480 0.75000 -0.10500
C 	C 	0.25000 0.25000 0.38950 0.38100
C 	C 	0.25000 0.25000 0.44520 -0.10500
C 	C 	0.25000 0.75000 0.88950 0.38100
C 	C 	0.25000 0.75000 0.94520 -0.10500
C 	C 	0.25000 0.75000 0.61050 0.38100
C 	C 	0.25000 0.75000 0.55480 -0.10500
C 	C 	0.25000 0.25000 0.11050 0.38100
C 	C 	0.25000 0.25000 0.05480 -0.10500
C 	C 	0.75000 0.75000 0.38950 0.38100
C 	C 	0.75000 0.75000 0.44520 -0.10500
C 	C 	0.75000 0.25000 0.88950 0.38100
C 	C 	0.75000 0.25000 0.94520 -0.10500
C 	C 	0.75000 0.25000 0.61050 0.38100
C 	C 	0.75000 0.25000 0.55480 -0.10500
C 	C 	0.75000 0.75000 0.11050 0.38100
C 	C 	0.75000 0.75000 0.05480 -0.10500
C 	C 	0.38950 0.25000 0.25000 0.38100
C 	C 	0.44520 0.25000 0.25000 -0.10500
C 	C 	0.88950 0.25000 0.75000 0.38100
C 	C 	0.94520 0.25000 0.75000 -0.10500
C 	C 	0.61050 0.25000 0.75000 0.38100
C 	C 	0.55480 0.25000 0.75000 -0.10500
C 	C 	0.11050 0.25000 0.25000 0.38100
C 	C 	0.05480 0.25000 0.25000 -0.10500
C 	C 	0.38950 0.75000 0.75000 0.38100
C 	C 	0.44520 0.75000 0.75000 -0.10500
C 	C 	0.88950 0.75000 0.25000 0.38100
C 	C 	0.94520 0.75000 0.25000 -0.10500
C 	C 	0.61050 0.75000 0.25000 0.38100
C 	C 	0.55480 0.75000 0.25000 -0.10500
C 	C 	0.11050 0.75000 0.75000 0.38100
C 	C 	0.05480 0.75000 0.75000 -0.10500
C 	C 	0.38950 0.25000 0.75000 0.38100
C 	C 	0.44520 0.25000 0.75000 -0.10500
C 	C 	0.88950 0.25000 0.25000 0.38100
C 	C 	0.94520 0.25000 0.25000 -0.10500
C 	C 	0.61050 0.75000 0.75000 0.38100
C 	C 	0.55480 0.75000 0.75000 -0.10500
C 	C 	0.61050 0.25000 0.25000 0.38100
C 	C 	0.55480 0.25000 0.25000 -0.10500
C 	C 	0.11050 0.75000 0.25000 0.38100
C 	C 	0.05480 0.75000 0.25000 -0.10500
C 	C 	0.38950 0.75000 0.25000 0.38100
C 	C 	0.44520 0.75000 0.25000 -0.10500
C 	C 	0.88950 0.75000 0.75000 0.38100
C 	C 	0.94520 0.75000 0.75000 -0.10500
C 	C 	0.11050 0.25000 0.75000 0.38100
C 	C 	0.05480 0.25000 0.75000 -0.10500
C 	C 	0.25000 0.25000 0.61050 0.38100
C 	C 	0.25000 0.25000 0.55480 -0.10500
C 	C 	0.25000 0.75000 0.11050 0.38100
C 	C 	0.25000 0.75000 0.05480 -0.10500
C 	C 	0.75000 0.25000 0.38950 0.38100
C 	C 	0.75000 0.25000 0.44520 -0.10500
C 	C 	0.75000 0.75000 0.88950 0.38100
C 	C 	0.75000 0.75000 0.94520 -0.10500
C 	C 	0.25000 0.25000 0.88950 0.38100
C 	C 	0.25000 0.25000 0.94520 -0.10500
C 	C 	0.75000 0.75000 0.61050 0.38100
C 	C 	0.75000 0.75000 0.55480 -0.10500
C 	C 	0.75000 0.25000 0.11050 0.38100
C 	C 	0.75000 0.25000 0.05480 -0.10500
C 	C 	0.25000 0.75000 0.38950 0.38100
C 	C 	0.25000 0.75000 0.44520 -0.10500
C 	C 	0.25000 0.38950 0.75000 0.38100
C 	C 	0.25000 0.44520 0.75000 -0.10500
C 	C 	0.25000 0.88950 0.25000 0.38100
C 	C 	0.25000 0.94520 0.25000 -0.10500
C 	C 	0.25000 0.61050 0.25000 0.38100
C 	C 	0.25000 0.55480 0.25000 -0.10500
C 	C 	0.25000 0.11050 0.75000 0.38100
C 	C 	0.25000 0.05480 0.75000 -0.10500
C 	C 	0.75000 0.38950 0.25000 0.38100
C 	C 	0.75000 0.44520 0.25000 -0.10500
C 	C 	0.75000 0.88950 0.75000 0.38100
C 	C 	0.75000 0.94520 0.75000 -0.10500
C 	C 	0.75000 0.61050 0.75000 0.38100
C 	C 	0.75000 0.55480 0.75000 -0.10500
C 	C 	0.75000 0.11050 0.25000 0.38100
C 	C 	0.75000 0.05480 0.25000 -0.10500
