data_crystal

_cell_length_a 32.03500
_cell_length_b 14.30800
_cell_length_c 8.85200
_cell_angle_alpha 90.00000
_cell_angle_beta  104.65000
_cell_angle_gamma 90.00000

_symmetry_space_group_name_	'P 1'
_symmetry_space_group_name_H-M	'P 1'

loop_
_symmetry_equiv_pos_as_xyz
  x,y,z

loop_
_atom_site_label
_atom_site_type_symbol
_atom_site_fract_x
_atom_site_fract_y
_atom_site_fract_z
_atom_site_charge
P 	P 	0.95700 0.61940 0.90730 0.73500
P 	P 	0.81130 0.46490 0.98310 0.81700
P 	P 	0.81920 0.78310 0.99490 0.71400
Al	Al	0.77140 0.62780 0.14540 2.39500
Al	Al	0.85450 0.61890 0.82330 2.39500
O 	O 	0.96430 0.52920 0.82100 -0.78000
O 	O 	0.98010 0.70140 0.85300 -0.21200
O 	O 	0.90960 0.64000 0.86800 -0.75200
O 	O 	0.97130 0.60900 0.08700 -0.70500
O 	O 	0.77960 0.52900 0.03400 -0.79800
O 	O 	0.78640 0.40320 0.84900 -0.73600
O 	O 	0.84500 0.52200 0.93000 -0.83300
O 	O 	0.83410 0.40240 0.11800 -0.74400
O 	O 	0.78170 0.84620 0.90900 -0.78800
O 	O 	0.80310 0.72000 0.11400 -0.79800
O 	O 	0.82890 0.72000 0.86400 -0.76000
O 	O 	0.85820 0.83500 0.07900 -0.23800
P 	P 	0.45700 0.11940 0.90730 0.73900
P 	P 	0.31130 0.96490 0.98310 0.81100
P 	P 	0.31920 0.28310 0.99490 0.72200
Al	Al	0.27140 0.12780 0.14540 2.39500
Al	Al	0.35450 0.11890 0.82330 2.39500
O 	O 	0.46430 0.02920 0.82100 -0.80500
O 	O 	0.48010 0.20140 0.85300 -0.24200
O 	O 	0.40960 0.14000 0.86800 -0.75600
O 	O 	0.47130 0.10900 0.08700 -0.73800
O 	O 	0.27960 0.02900 0.03400 -0.80000
O 	O 	0.28640 0.90320 0.84900 -0.73800
O 	O 	0.34500 0.02200 0.93000 -0.83100
O 	O 	0.33410 0.90240 0.11800 -0.74300
O 	O 	0.28170 0.34620 0.90900 -0.78900
O 	O 	0.30310 0.22000 0.11400 -0.80400
O 	O 	0.32890 0.22000 0.86400 -0.76200
O 	O 	0.35820 0.33500 0.07900 -0.25200
P 	P 	0.04300 0.61940 0.59270 0.73600
P 	P 	0.18870 0.46490 0.51690 0.81900
P 	P 	0.18080 0.78310 0.50510 0.72100
Al	Al	0.22860 0.62780 0.35460 2.39500
Al	Al	0.14550 0.61890 0.67670 2.39500
O 	O 	0.03570 0.52920 0.67900 -0.83000
O 	O 	0.01990 0.70140 0.64700 -0.27300
O 	O 	0.09040 0.64000 0.63200 -0.76100
O 	O 	0.02870 0.60900 0.41300 -0.76000
O 	O 	0.22040 0.52900 0.46600 -0.79900
O 	O 	0.21360 0.40320 0.65100 -0.73800
O 	O 	0.15500 0.52200 0.57000 -0.83600
O 	O 	0.16590 0.40240 0.38200 -0.74900
O 	O 	0.21830 0.84620 0.59100 -0.79100
O 	O 	0.19690 0.72000 0.38600 -0.80400
O 	O 	0.17110 0.72000 0.63600 -0.76400
O 	O 	0.14180 0.83500 0.42100 -0.25900
P 	P 	0.54300 0.11940 0.59270 0.73700
P 	P 	0.68870 0.96490 0.51690 0.81900
P 	P 	0.68080 0.28310 0.50510 0.72000
Al	Al	0.72860 0.12780 0.35460 2.39500
Al	Al	0.64550 0.11890 0.67670 2.39500
O 	O 	0.53570 0.02920 0.67900 -0.80500
O 	O 	0.51990 0.20140 0.64700 -0.24200
O 	O 	0.59040 0.14000 0.63200 -0.75600
O 	O 	0.52870 0.10900 0.41300 -0.73600
O 	O 	0.72040 0.02900 0.46600 -0.79900
O 	O 	0.71360 0.90320 0.65100 -0.73700
O 	O 	0.65500 0.02200 0.57000 -0.83400
O 	O 	0.66590 0.90240 0.38200 -0.74700
O 	O 	0.71830 0.34620 0.59100 -0.78900
O 	O 	0.69690 0.22000 0.38600 -0.80400
O 	O 	0.67110 0.22000 0.63600 -0.76200
O 	O 	0.64180 0.33500 0.42100 -0.25200
P 	P 	0.04300 0.38060 0.09270 0.73700
P 	P 	0.18870 0.53510 0.01690 0.82100
P 	P 	0.18080 0.21690 0.00510 0.71900
Al	Al	0.22860 0.37220 0.85460 2.39500
Al	Al	0.14550 0.38110 0.17670 2.39500
O 	O 	0.03570 0.47080 0.17900 -0.82900
O 	O 	0.01990 0.29860 0.14700 -0.27300
O 	O 	0.09040 0.36000 0.13200 -0.76000
O 	O 	0.02870 0.39100 0.91300 -0.76200
O 	O 	0.22040 0.47100 0.96600 -0.80100
O 	O 	0.21360 0.59680 0.15100 -0.73700
O 	O 	0.15500 0.47800 0.07000 -0.83600
O 	O 	0.16590 0.59760 0.88200 -0.75100
O 	O 	0.21830 0.15380 0.09100 -0.79100
O 	O 	0.19690 0.28000 0.88600 -0.80400
O 	O 	0.17110 0.28000 0.13600 -0.76400
O 	O 	0.14180 0.16500 0.92100 -0.25800
P 	P 	0.54300 0.88060 0.09270 0.74000
P 	P 	0.68870 0.03510 0.01690 0.81400
P 	P 	0.68080 0.71690 0.00510 0.72500
Al	Al	0.72860 0.87220 0.85460 2.39500
Al	Al	0.64550 0.88110 0.17670 2.39500
O 	O 	0.53570 0.97080 0.17900 -0.80500
O 	O 	0.51990 0.79860 0.14700 -0.24100
O 	O 	0.59040 0.86000 0.13200 -0.75600
O 	O 	0.52870 0.89100 0.91300 -0.73900
O 	O 	0.72040 0.97100 0.96600 -0.80100
O 	O 	0.71360 0.09680 0.15100 -0.73600
O 	O 	0.65500 0.97800 0.07000 -0.83000
O 	O 	0.66590 0.09760 0.88200 -0.74500
O 	O 	0.71830 0.65380 0.09100 -0.78900
O 	O 	0.69690 0.78000 0.88600 -0.80600
O 	O 	0.67110 0.78000 0.13600 -0.76200
O 	O 	0.64180 0.66500 0.92100 -0.25400
P 	P 	0.95700 0.38060 0.40730 0.73800
P 	P 	0.81130 0.53510 0.48310 0.81900
P 	P 	0.81920 0.21690 0.49490 0.72000
Al	Al	0.77140 0.37220 0.64540 2.39500
Al	Al	0.85450 0.38110 0.32330 2.39500
O 	O 	0.96430 0.47080 0.32100 -0.77900
O 	O 	0.98010 0.29860 0.35300 -0.21000
O 	O 	0.90960 0.36000 0.36800 -0.75100
O 	O 	0.97130 0.39100 0.58700 -0.70900
O 	O 	0.77960 0.47100 0.53400 -0.79900
O 	O 	0.78640 0.59680 0.34900 -0.73600
O 	O 	0.84500 0.47800 0.43000 -0.83200
O 	O 	0.83410 0.59760 0.61800 -0.74500
O 	O 	0.78170 0.15380 0.40900 -0.78800
O 	O 	0.80310 0.28000 0.61400 -0.80200
O 	O 	0.82890 0.28000 0.36400 -0.76000
O 	O 	0.85820 0.16500 0.57900 -0.24300
P 	P 	0.45700 0.88060 0.40730 0.73700
P 	P 	0.31130 0.03510 0.48310 0.81900
P 	P 	0.31920 0.71690 0.49490 0.72000
Al	Al	0.27140 0.87220 0.64540 2.39500
Al	Al	0.35450 0.88110 0.32330 2.39500
O 	O 	0.46430 0.97080 0.32100 -0.80500
O 	O 	0.48010 0.79860 0.35300 -0.24200
O 	O 	0.40960 0.86000 0.36800 -0.75600
O 	O 	0.47130 0.89100 0.58700 -0.73600
O 	O 	0.27960 0.97100 0.53400 -0.80000
O 	O 	0.28640 0.09680 0.34900 -0.73700
O 	O 	0.34500 0.97800 0.43000 -0.83400
O 	O 	0.33410 0.09760 0.61800 -0.74700
O 	O 	0.28170 0.65380 0.40900 -0.78900
O 	O 	0.30310 0.78000 0.61400 -0.80400
O 	O 	0.32890 0.78000 0.36400 -0.76200
O 	O 	0.35820 0.66500 0.57900 -0.25200
Al	Al	0.00000 0.46030 0.75000 2.38800
Al	Al	0.50000 0.96030 0.75000 2.39200
Al	Al	0.00000 0.53970 0.25000 2.38800
Al	Al	0.50000 0.03970 0.25000 2.39200
