data_crystal

_cell_length_a 11.35100
_cell_length_b 27.09510
_cell_length_c 17.01840
_cell_angle_alpha 98.21800
_cell_angle_beta  90.00000
_cell_angle_gamma 90.00000

_symmetry_space_group_name_	'P 1'
_symmetry_space_group_name_H-M	'P 1'

loop_
_symmetry_equiv_pos_as_xyz
  x,y,z

loop_
_atom_site_label
_atom_site_type_symbol
_atom_site_fract_x
_atom_site_fract_y
_atom_site_fract_z
_atom_site_charge
Sm	Sm	0.12356 0.75181 0.69044 2.10200
Sm	Sm	0.68661 0.24912 0.53017 2.06500
Sm	Sm	0.62356 0.24819 0.80956 2.10300
Sm	Sm	0.18661 0.75088 0.96983 2.06400
Sm	Sm	0.87644 0.24819 0.30956 2.10200
Sm	Sm	0.31339 0.75088 0.46983 2.06500
Sm	Sm	0.37644 0.75181 0.19044 2.10200
Sm	Sm	0.81339 0.24912 0.03017 2.06300
H 	H 	0.93020 0.89430 0.61990 0.00300
H 	H 	0.17060 0.87860 0.44480 0.00500
H 	H 	0.13190 0.95920 0.42070 0.09300
H 	H 	0.08640 0.51570 0.38820 0.08700
H 	H 	0.13810 0.59860 0.38940 0.00200
H 	H 	0.00440 0.63180 0.60930 -0.00900
H 	H 	0.46400 0.85820 0.55670 -0.02200
H 	H 	0.34450 0.89790 0.77890 0.00200
H 	H 	0.43060 0.97590 0.78210 0.08600
H 	H 	0.49700 0.03850 0.77540 0.09100
H 	H 	0.53200 0.12160 0.76430 -0.00800
H 	H 	0.62770 0.08250 0.53660 0.01000
H 	H 	0.43710 0.48670 0.77190 0.07800
H 	H 	0.47540 0.40380 0.78250 0.00500
H 	H 	0.63810 0.38740 0.57060 0.00500
H 	H 	0.51410 0.61810 0.54390 0.01100
H 	H 	0.30850 0.62680 0.73760 0.00100
H 	H 	0.36540 0.54700 0.75560 0.08200
H 	H 	0.43020 0.10570 0.88010 0.00300
H 	H 	0.67060 0.12140 0.05520 0.00500
H 	H 	0.63190 0.04080 0.07930 0.09300
H 	H 	0.58640 0.48430 0.11180 0.08700
H 	H 	0.63810 0.40140 0.11060 0.00200
H 	H 	0.50440 0.36820 0.89070 -0.00900
H 	H 	0.96400 0.14180 0.94330 -0.02200
H 	H 	0.84450 0.10210 0.72110 0.00200
H 	H 	0.93060 0.02410 0.71790 0.08700
H 	H 	0.99700 0.96150 0.72460 0.09200
H 	H 	0.03200 0.87840 0.73570 -0.00900
H 	H 	0.12770 0.91750 0.96340 0.01000
H 	H 	0.93710 0.51330 0.72810 0.07600
H 	H 	0.97540 0.59620 0.71750 0.00700
H 	H 	0.13810 0.61260 0.92940 0.00500
H 	H 	0.01410 0.38190 0.95610 0.00900
H 	H 	0.80850 0.37320 0.76240 -0.00000
H 	H 	0.86540 0.45300 0.74440 0.08300
H 	H 	0.06980 0.10570 0.38010 0.00300
H 	H 	0.82940 0.12140 0.55520 0.00500
H 	H 	0.86810 0.04080 0.57930 0.09300
H 	H 	0.91360 0.48430 0.61180 0.08700
H 	H 	0.86190 0.40140 0.61060 0.00200
H 	H 	0.99560 0.36820 0.39070 -0.00900
H 	H 	0.53600 0.14180 0.44330 -0.02200
H 	H 	0.65550 0.10210 0.22110 0.00200
H 	H 	0.56940 0.02410 0.21790 0.08600
H 	H 	0.50300 0.96150 0.22460 0.09100
H 	H 	0.46800 0.87840 0.23570 -0.00800
H 	H 	0.37230 0.91750 0.46340 0.01000
H 	H 	0.56290 0.51330 0.22810 0.07800
H 	H 	0.52460 0.59620 0.21750 0.00500
H 	H 	0.36190 0.61260 0.42940 0.00500
H 	H 	0.48590 0.38190 0.45610 0.01100
H 	H 	0.69150 0.37320 0.26240 0.00100
H 	H 	0.63460 0.45300 0.24440 0.08200
H 	H 	0.56980 0.89430 0.11990 0.00300
H 	H 	0.32940 0.87860 0.94480 0.00500
H 	H 	0.36810 0.95920 0.92070 0.09300
H 	H 	0.41360 0.51570 0.88820 0.08700
H 	H 	0.36190 0.59860 0.88940 0.00200
H 	H 	0.49560 0.63180 0.10930 -0.00900
H 	H 	0.03600 0.85820 0.05670 -0.02200
H 	H 	0.15550 0.89790 0.27890 0.00200
H 	H 	0.06940 0.97590 0.28210 0.08700
H 	H 	0.00300 0.03850 0.27540 0.09200
H 	H 	0.96800 0.12160 0.26430 -0.00900
H 	H 	0.87230 0.08250 0.03660 0.01000
H 	H 	0.06290 0.48670 0.27190 0.07600
H 	H 	0.02460 0.40380 0.28250 0.00700
H 	H 	0.86190 0.38740 0.07060 0.00500
H 	H 	0.98590 0.61810 0.04390 0.00900
H 	H 	0.19150 0.62680 0.23760 -0.00000
H 	H 	0.13460 0.54700 0.25560 0.08300
C 	C 	0.00790 0.97500 0.50590 0.07700
C 	C 	0.97060 0.90730 0.57990 0.10700
C 	C 	0.05420 0.87844 0.53470 -0.20700
C 	C 	0.11470 0.89790 0.47500 0.10600
C 	C 	0.09150 0.94620 0.46060 -0.14900
C 	C 	0.08310 0.82770 0.55170 0.51300
C 	C 	0.01450 0.52400 0.49800 0.07700
C 	C 	0.07000 0.53890 0.43250 -0.14400
C 	C 	0.10100 0.58860 0.43320 0.10500
C 	C 	0.07640 0.62340 0.49950 -0.20700
C 	C 	0.02090 0.60850 0.56500 0.11700
C 	C 	0.12020 0.67560 0.50410 0.51800
C 	C 	0.49890 0.96368 0.67120 0.07800
C 	C 	0.45730 0.88170 0.60180 0.13200
C 	C 	0.39570 0.87030 0.66750 -0.23300
C 	C 	0.38570 0.90560 0.73500 0.11600
C 	C 	0.43730 0.95230 0.73690 -0.15500
C 	C 	0.32580 0.82360 0.66460 0.56400
C 	C 	0.54140 0.01073 0.66270 0.08400
C 	C 	0.52320 0.04730 0.72760 -0.16400
C 	C 	0.54420 0.09710 0.72090 0.12500
C 	C 	0.58330 0.11028 0.64930 -0.22700
C 	C 	0.60150 0.07370 0.58440 0.12000
C 	C 	0.59210 0.16430 0.64200 0.56300
C 	C 	0.51470 0.48671 0.66490 0.07700
C 	C 	0.47740 0.46680 0.73150 -0.14200
C 	C 	0.50030 0.41710 0.73790 0.09700
C 	C 	0.56050 0.38738 0.67760 -0.20000
C 	C 	0.59780 0.40730 0.61100 0.11000
C 	C 	0.58030 0.33440 0.68850 0.50300
C 	C 	0.47380 0.53470 0.66060 0.07900
C 	C 	0.48430 0.60380 0.58630 0.10900
C 	C 	0.40560 0.63040 0.63890 -0.20400
C 	C 	0.36110 0.60910 0.70240 0.10900
C 	C 	0.39520 0.56120 0.71320 -0.15000
C 	C 	0.35700 0.67830 0.62030 0.51300
C 	C 	0.50790 0.02500 0.99410 0.07700
C 	C 	0.47060 0.09270 0.92010 0.10700
C 	C 	0.55420 0.12156 0.96530 -0.20600
C 	C 	0.61470 0.10210 0.02500 0.10500
C 	C 	0.59150 0.05380 0.03940 -0.14900
C 	C 	0.58310 0.17230 0.94830 0.51300
C 	C 	0.51450 0.47600 0.00200 0.07800
C 	C 	0.57000 0.46110 0.06750 -0.14400
C 	C 	0.60100 0.41140 0.06680 0.10500
C 	C 	0.57640 0.37660 0.00050 -0.20800
C 	C 	0.52090 0.39150 0.93500 0.11800
C 	C 	0.62020 0.32440 0.99590 0.51900
C 	C 	0.99890 0.03632 0.82880 0.08000
C 	C 	0.95730 0.11830 0.89820 0.13300
C 	C 	0.89570 0.12970 0.83250 -0.23400
C 	C 	0.88570 0.09440 0.76500 0.11700
C 	C 	0.93730 0.04770 0.76310 -0.15600
C 	C 	0.82580 0.17640 0.83540 0.56400
C 	C 	0.04140 0.98927 0.83730 0.08300
C 	C 	0.02320 0.95270 0.77240 -0.16500
C 	C 	0.04420 0.90290 0.77910 0.12600
C 	C 	0.08330 0.88972 0.85070 -0.22800
C 	C 	0.10150 0.92630 0.91560 0.12000
C 	C 	0.09210 0.83570 0.85800 0.56300
C 	C 	0.01470 0.51329 0.83510 0.07300
C 	C 	0.97740 0.53320 0.76850 -0.13700
C 	C 	0.00030 0.58290 0.76210 0.09200
C 	C 	0.06050 0.61262 0.82240 -0.19800
C 	C 	0.09780 0.59270 0.88900 0.10900
C 	C 	0.08030 0.66560 0.81150 0.50200
C 	C 	0.97380 0.46530 0.83940 0.08200
C 	C 	0.98430 0.39620 0.91370 0.11200
C 	C 	0.90560 0.36960 0.86110 -0.20500
C 	C 	0.86110 0.39090 0.79760 0.11100
C 	C 	0.89520 0.43880 0.78680 -0.15200
C 	C 	0.85700 0.32170 0.87970 0.51300
C 	C 	0.99210 0.02500 0.49410 0.07700
C 	C 	0.02940 0.09270 0.42010 0.10700
C 	C 	0.94580 0.12156 0.46530 -0.20700
C 	C 	0.88530 0.10210 0.52500 0.10600
C 	C 	0.90850 0.05380 0.53940 -0.14900
C 	C 	0.91690 0.17230 0.44830 0.51300
C 	C 	0.98550 0.47600 0.50200 0.07700
C 	C 	0.93000 0.46110 0.56750 -0.14400
C 	C 	0.89900 0.41140 0.56680 0.10500
C 	C 	0.92360 0.37660 0.50050 -0.20700
C 	C 	0.97910 0.39150 0.43500 0.11700
C 	C 	0.87980 0.32440 0.49590 0.51800
C 	C 	0.50110 0.03632 0.32880 0.07800
C 	C 	0.54270 0.11830 0.39820 0.13200
C 	C 	0.60430 0.12970 0.33250 -0.23300
C 	C 	0.61430 0.09440 0.26500 0.11600
C 	C 	0.56270 0.04770 0.26310 -0.15500
C 	C 	0.67420 0.17640 0.33540 0.56400
C 	C 	0.45860 0.98927 0.33730 0.08400
C 	C 	0.47680 0.95270 0.27240 -0.16400
C 	C 	0.45580 0.90290 0.27910 0.12500
C 	C 	0.41670 0.88972 0.35070 -0.22700
C 	C 	0.39850 0.92630 0.41560 0.12000
C 	C 	0.40790 0.83570 0.35800 0.56300
C 	C 	0.48530 0.51329 0.33510 0.07700
C 	C 	0.52260 0.53320 0.26850 -0.14200
C 	C 	0.49970 0.58290 0.26210 0.09700
C 	C 	0.43950 0.61262 0.32240 -0.20000
C 	C 	0.40220 0.59270 0.38900 0.11000
C 	C 	0.41970 0.66560 0.31150 0.50300
C 	C 	0.52620 0.46530 0.33940 0.07900
C 	C 	0.51570 0.39620 0.41370 0.10900
C 	C 	0.59440 0.36960 0.36110 -0.20400
C 	C 	0.63890 0.39090 0.29760 0.10900
C 	C 	0.60480 0.43880 0.28680 -0.15000
C 	C 	0.64300 0.32170 0.37970 0.51300
C 	C 	0.49210 0.97500 0.00590 0.07700
C 	C 	0.52940 0.90730 0.07990 0.10700
C 	C 	0.44580 0.87844 0.03470 -0.20600
C 	C 	0.38530 0.89790 0.97500 0.10500
C 	C 	0.40850 0.94620 0.96060 -0.14900
C 	C 	0.41690 0.82770 0.05170 0.51300
C 	C 	0.48550 0.52400 0.99800 0.07800
C 	C 	0.43000 0.53890 0.93250 -0.14400
C 	C 	0.39900 0.58860 0.93320 0.10500
C 	C 	0.42360 0.62340 0.99950 -0.20800
C 	C 	0.47910 0.60850 0.06500 0.11800
C 	C 	0.37980 0.67560 0.00410 0.51900
C 	C 	0.00110 0.96368 0.17120 0.08000
C 	C 	0.04270 0.88170 0.10180 0.13300
C 	C 	0.10430 0.87030 0.16750 -0.23400
C 	C 	0.11430 0.90560 0.23500 0.11700
C 	C 	0.06270 0.95230 0.23690 -0.15600
C 	C 	0.17420 0.82360 0.16460 0.56400
C 	C 	0.95860 0.01073 0.16270 0.08300
C 	C 	0.97680 0.04730 0.22760 -0.16500
C 	C 	0.95580 0.09710 0.22090 0.12600
C 	C 	0.91670 0.11028 0.14930 -0.22800
C 	C 	0.89850 0.07370 0.08440 0.12000
C 	C 	0.90790 0.16430 0.14200 0.56300
C 	C 	0.98530 0.48671 0.16490 0.07300
C 	C 	0.02260 0.46680 0.23150 -0.13700
C 	C 	0.99970 0.41710 0.23790 0.09200
C 	C 	0.93950 0.38738 0.17760 -0.19800
C 	C 	0.90220 0.40730 0.11100 0.10900
C 	C 	0.91970 0.33440 0.18850 0.50200
C 	C 	0.02620 0.53470 0.16060 0.08200
C 	C 	0.01570 0.60380 0.08630 0.11200
C 	C 	0.09440 0.63040 0.13890 -0.20500
C 	C 	0.13890 0.60910 0.20240 0.11100
C 	C 	0.10480 0.56120 0.21320 -0.15200
C 	C 	0.14300 0.67830 0.12030 0.51300
N 	N 	0.94740 0.95550 0.56550 -0.13500
N 	N 	0.98990 0.55880 0.56430 -0.13400
N 	N 	0.50890 0.92840 0.60370 -0.12900
N 	N 	0.58050 0.02390 0.59110 -0.12300
N 	N 	0.57490 0.45700 0.60460 -0.12100
N 	N 	0.51840 0.55600 0.59710 -0.12000
N 	N 	0.44740 0.04450 0.93450 -0.13500
N 	N 	0.48990 0.44120 0.93570 -0.13500
N 	N 	0.00890 0.07160 0.89630 -0.13000
N 	N 	0.08050 0.97610 0.90890 -0.12300
N 	N 	0.07490 0.54300 0.89540 -0.12100
N 	N 	0.01840 0.44400 0.90290 -0.12100
N 	N 	0.05260 0.04450 0.43450 -0.13500
N 	N 	0.01010 0.44120 0.43570 -0.13400
N 	N 	0.49110 0.07160 0.39630 -0.12900
N 	N 	0.41950 0.97610 0.40890 -0.12300
N 	N 	0.42510 0.54300 0.39540 -0.12100
N 	N 	0.48160 0.44400 0.40290 -0.12000
N 	N 	0.55260 0.95550 0.06550 -0.13500
N 	N 	0.51010 0.55880 0.06430 -0.13500
N 	N 	0.99110 0.92840 0.10370 -0.13000
N 	N 	0.91950 0.02390 0.09110 -0.12300
N 	N 	0.92510 0.45700 0.10460 -0.12100
N 	N 	0.98160 0.55600 0.09710 -0.12100
O 	O 	0.10040 0.70300 0.56820 -0.60200
O 	O 	0.27420 0.81520 0.72300 -0.54900
O 	O 	0.30130 0.70310 0.67590 -0.53300
O 	O 	0.05430 0.81660 0.61610 -0.54100
O 	O 	0.56130 0.19500 0.69840 -0.61700
O 	O 	0.58910 0.32210 0.75400 -0.56900
O 	O 	0.63820 0.17460 0.58000 -0.57200
O 	O 	0.32940 0.79660 0.60110 -0.60400
O 	O 	0.14110 0.80080 0.49760 -0.53400
O 	O 	0.17150 0.68660 0.44450 -0.54600
O 	O 	0.37700 0.68900 0.55350 -0.52200
O 	O 	0.57580 0.30480 0.62090 -0.55400
O 	O 	0.60040 0.29700 0.93180 -0.60200
O 	O 	0.77420 0.18480 0.77700 -0.54900
O 	O 	0.80130 0.29690 0.82410 -0.53300
O 	O 	0.55430 0.18340 0.88390 -0.54100
O 	O 	0.06130 0.80500 0.80160 -0.61700
O 	O 	0.08910 0.67790 0.74600 -0.56900
O 	O 	0.13820 0.82540 0.92000 -0.57300
O 	O 	0.82940 0.20340 0.89890 -0.60300
O 	O 	0.64110 0.19920 0.00240 -0.53400
O 	O 	0.67150 0.31340 0.05550 -0.54600
O 	O 	0.87700 0.31100 0.94650 -0.52200
O 	O 	0.07580 0.69520 0.87910 -0.55400
O 	O 	0.89960 0.29700 0.43180 -0.60200
O 	O 	0.72580 0.18480 0.27700 -0.54900
O 	O 	0.69870 0.29690 0.32410 -0.53300
O 	O 	0.94570 0.18340 0.38390 -0.54100
O 	O 	0.43870 0.80500 0.30160 -0.61700
O 	O 	0.41090 0.67790 0.24600 -0.56900
O 	O 	0.36180 0.82540 0.42000 -0.57200
O 	O 	0.67060 0.20340 0.39890 -0.60400
O 	O 	0.85890 0.19920 0.50240 -0.53400
O 	O 	0.82850 0.31340 0.55550 -0.54600
O 	O 	0.62300 0.31100 0.44650 -0.52200
O 	O 	0.42420 0.69520 0.37910 -0.55400
O 	O 	0.39960 0.70300 0.06820 -0.60200
O 	O 	0.22580 0.81520 0.22300 -0.54900
O 	O 	0.19870 0.70310 0.17590 -0.53300
O 	O 	0.44570 0.81660 0.11610 -0.54100
O 	O 	0.93870 0.19500 0.19840 -0.61700
O 	O 	0.91090 0.32210 0.25400 -0.56900
O 	O 	0.86180 0.17460 0.08000 -0.57300
O 	O 	0.17060 0.79660 0.10110 -0.60300
O 	O 	0.35890 0.80080 0.99760 -0.53400
O 	O 	0.32850 0.68660 0.94450 -0.54600
O 	O 	0.12300 0.68900 0.05350 -0.52200
O 	O 	0.92420 0.30480 0.12090 -0.55400
