data_crystal

_cell_length_a 15.18750
_cell_length_b 25.64870
_cell_length_c 17.03780
_cell_angle_alpha 97.91000
_cell_angle_beta  90.00000
_cell_angle_gamma 90.00000

_symmetry_space_group_name_	'P 1'
_symmetry_space_group_name_H-M	'P 1'

loop_
_symmetry_equiv_pos_as_xyz
  x,y,z

loop_
_atom_site_label
_atom_site_type_symbol
_atom_site_fract_x
_atom_site_fract_y
_atom_site_fract_z
_atom_site_charge
Gd	Gd	0.67076 0.75029 0.31498 1.61900
Gd	Gd	0.20429 0.25038 0.46322 1.60400
Gd	Gd	0.17076 0.24971 0.18502 1.62000
Gd	Gd	0.70429 0.74962 0.03678 1.60300
Gd	Gd	0.32924 0.24971 0.68502 1.62000
Gd	Gd	0.79571 0.74962 0.53678 1.60500
Gd	Gd	0.82924 0.75029 0.81498 1.62100
Gd	Gd	0.29571 0.25038 0.96322 1.60400
H 	H 	0.50120 0.61580 0.38300 0.01100
H 	H 	0.65980 0.61310 0.57120 0.02000
H 	H 	0.60340 0.53150 0.58930 0.08400
H 	H 	0.56450 0.86710 0.39150 -0.00000
H 	H 	0.63890 0.91180 0.61710 0.01100
H 	H 	0.56650 0.99140 0.61680 0.09300
H 	H 	0.91530 0.63950 0.45490 -0.00800
H 	H 	0.84260 0.59520 0.22870 0.01300
H 	H 	0.93010 0.52060 0.22390 0.08100
H 	H 	0.14530 0.42740 0.45020 0.02000
H 	H 	0.03960 0.37100 0.23930 0.00600
H 	H 	0.97460 0.45210 0.23250 0.08300
H 	H 	0.03350 0.09360 0.20980 0.00700
H 	H 	0.14220 0.10420 0.42640 0.00400
H 	H 	0.08750 0.02150 0.44040 0.10100
H 	H 	0.97670 0.87560 0.46560 0.01500
H 	H 	0.83560 0.87740 0.26650 0.02100
H 	H 	0.90790 0.95340 0.24310 0.08400
H 	H 	0.00120 0.38420 0.11700 0.01100
H 	H 	0.15980 0.38690 0.92880 0.02000
H 	H 	0.10340 0.46850 0.91070 0.08500
H 	H 	0.06450 0.13290 0.10850 -0.00100
H 	H 	0.13890 0.08820 0.88290 0.01100
H 	H 	0.06650 0.00860 0.88320 0.09300
H 	H 	0.41530 0.36050 0.04510 -0.00800
H 	H 	0.34260 0.40480 0.27130 0.01300
H 	H 	0.43010 0.47940 0.27610 0.08100
H 	H 	0.64530 0.57260 0.04980 0.02000
H 	H 	0.53960 0.62900 0.26070 0.00600
H 	H 	0.47460 0.54790 0.26750 0.08300
H 	H 	0.53350 0.90640 0.29020 0.00700
H 	H 	0.64220 0.89580 0.07360 0.00500
H 	H 	0.58750 0.97850 0.05960 0.10000
H 	H 	0.47670 0.12440 0.03440 0.01500
H 	H 	0.33560 0.12260 0.23350 0.02000
H 	H 	0.40790 0.04660 0.25690 0.08500
H 	H 	0.49880 0.38420 0.61700 0.01100
H 	H 	0.34020 0.38690 0.42880 0.02000
H 	H 	0.39660 0.46850 0.41070 0.08400
H 	H 	0.43550 0.13290 0.60850 -0.00000
H 	H 	0.36110 0.08820 0.38290 0.01100
H 	H 	0.43350 0.00860 0.38320 0.09300
H 	H 	0.08470 0.36050 0.54510 -0.00800
H 	H 	0.15740 0.40480 0.77130 0.01300
H 	H 	0.06990 0.47940 0.77610 0.08100
H 	H 	0.85470 0.57260 0.54980 0.02000
H 	H 	0.96040 0.62900 0.76070 0.00600
H 	H 	0.02540 0.54790 0.76750 0.08300
H 	H 	0.96650 0.90640 0.79020 0.00700
H 	H 	0.85780 0.89580 0.57360 0.00400
H 	H 	0.91250 0.97850 0.55960 0.10100
H 	H 	0.02330 0.12440 0.53440 0.01500
H 	H 	0.16440 0.12260 0.73350 0.02100
H 	H 	0.09210 0.04660 0.75690 0.08400
H 	H 	0.99880 0.61580 0.88300 0.01100
H 	H 	0.84020 0.61310 0.07120 0.02000
H 	H 	0.89660 0.53150 0.08930 0.08500
H 	H 	0.93550 0.86710 0.89150 -0.00100
H 	H 	0.86110 0.91180 0.11710 0.01100
H 	H 	0.93350 0.99140 0.11680 0.09300
H 	H 	0.58470 0.63950 0.95490 -0.00800
H 	H 	0.65740 0.59520 0.72870 0.01300
H 	H 	0.56990 0.52060 0.72390 0.08100
H 	H 	0.35470 0.42740 0.95020 0.02000
H 	H 	0.46040 0.37100 0.73930 0.00600
H 	H 	0.52540 0.45210 0.73250 0.08300
H 	H 	0.46650 0.09360 0.70980 0.00700
H 	H 	0.35780 0.10420 0.92640 0.00500
H 	H 	0.41250 0.02150 0.94040 0.10000
H 	H 	0.52330 0.87560 0.96560 0.01500
H 	H 	0.66440 0.87740 0.76650 0.02000
H 	H 	0.59210 0.95340 0.74310 0.08500
C 	C 	0.51850 0.52480 0.49700 0.07400
C 	C 	0.52170 0.59890 0.42440 0.09400
C 	C 	0.58610 0.62250 0.47530 -0.16800
C 	C 	0.61670 0.59730 0.53710 0.07900
C 	C 	0.58290 0.54840 0.54800 -0.13000
C 	C 	0.62750 0.67350 0.46100 0.46300
C 	C 	0.52220 0.97700 0.50390 0.07700
C 	C 	0.56490 0.89200 0.43660 0.10500
C 	C 	0.60890 0.88150 0.50430 -0.18200
C 	C 	0.60950 0.91880 0.57180 0.08900
C 	C 	0.56610 0.96650 0.57160 -0.13900
C 	C 	0.66050 0.83170 0.50380 0.46800
C 	C 	0.97510 0.53540 0.33650 0.07800
C 	C 	0.91830 0.61570 0.40860 0.11000
C 	C 	0.87030 0.62480 0.34230 -0.19200
C 	C 	0.87470 0.58910 0.27310 0.09400
C 	C 	0.92710 0.54450 0.27020 -0.14200
C 	C 	0.81550 0.67150 0.34360 0.44700
C 	C 	0.02100 0.48840 0.33720 0.07800
C 	C 	0.11100 0.43240 0.40660 0.10000
C 	C 	0.09890 0.39120 0.34540 -0.18000
C 	C 	0.04770 0.39860 0.28020 0.09200
C 	C 	0.00880 0.44720 0.27610 -0.14100
C 	C 	0.13200 0.33670 0.34870 0.46400
C 	C 	0.02770 0.00800 0.33350 0.08600
C 	C 	0.04430 0.07910 0.25600 0.11400
C 	C 	0.09330 0.10710 0.31670 -0.21600
C 	C 	0.10950 0.08550 0.38580 0.11700
C 	C 	0.07670 0.03600 0.39420 -0.15600
C 	C 	0.12430 0.16060 0.30550 0.53800
C 	C 	0.98560 0.96010 0.34030 0.06700
C 	C 	0.96290 0.89120 0.42100 0.09000
C 	C 	0.89900 0.86900 0.36840 -0.16700
C 	C 	0.87840 0.89230 0.30170 0.07800
C 	C 	0.92170 0.93780 0.28770 -0.12600
C 	C 	0.84690 0.82070 0.38320 0.47900
C 	C 	0.01850 0.47520 0.00300 0.07500
C 	C 	0.02170 0.40110 0.07560 0.09500
C 	C 	0.08610 0.37750 0.02470 -0.16700
C 	C 	0.11670 0.40270 0.96290 0.07900
C 	C 	0.08290 0.45160 0.95200 -0.13100
C 	C 	0.12750 0.32650 0.03900 0.46500
C 	C 	0.02220 0.02300 0.99610 0.07600
C 	C 	0.06490 0.10800 0.06340 0.10800
C 	C 	0.10890 0.11850 0.99570 -0.18400
C 	C 	0.10950 0.08120 0.92820 0.08900
C 	C 	0.06610 0.03350 0.92840 -0.13900
C 	C 	0.16050 0.16830 0.99620 0.46700
C 	C 	0.47510 0.46460 0.16350 0.07800
C 	C 	0.41830 0.38430 0.09140 0.11000
C 	C 	0.37030 0.37520 0.15770 -0.19200
C 	C 	0.37470 0.41090 0.22690 0.09400
C 	C 	0.42710 0.45550 0.22980 -0.14200
C 	C 	0.31550 0.32850 0.15640 0.44600
C 	C 	0.52100 0.51160 0.16280 0.07800
C 	C 	0.61100 0.56760 0.09340 0.10000
C 	C 	0.59890 0.60880 0.15460 -0.18000
C 	C 	0.54770 0.60140 0.21980 0.09200
C 	C 	0.50880 0.55280 0.22390 -0.14200
C 	C 	0.63200 0.66330 0.15130 0.46400
C 	C 	0.52770 0.99200 0.16650 0.08300
C 	C 	0.54430 0.92090 0.24400 0.11300
C 	C 	0.59330 0.89290 0.18330 -0.21500
C 	C 	0.60950 0.91450 0.11420 0.11600
C 	C 	0.57670 0.96400 0.10580 -0.15500
C 	C 	0.62430 0.83940 0.19450 0.53800
C 	C 	0.48560 0.03990 0.15970 0.07000
C 	C 	0.46290 0.10880 0.07900 0.09100
C 	C 	0.39900 0.13100 0.13160 -0.16700
C 	C 	0.37840 0.10770 0.19830 0.07900
C 	C 	0.42170 0.06220 0.21230 -0.12800
C 	C 	0.34690 0.17930 0.11680 0.47900
C 	C 	0.48150 0.47520 0.50300 0.07400
C 	C 	0.47830 0.40110 0.57560 0.09400
C 	C 	0.41390 0.37750 0.52470 -0.16800
C 	C 	0.38330 0.40270 0.46290 0.07900
C 	C 	0.41710 0.45160 0.45200 -0.13000
C 	C 	0.37250 0.32650 0.53900 0.46300
C 	C 	0.47780 0.02300 0.49610 0.07700
C 	C 	0.43510 0.10800 0.56340 0.10500
C 	C 	0.39110 0.11850 0.49570 -0.18200
C 	C 	0.39050 0.08120 0.42820 0.08900
C 	C 	0.43390 0.03350 0.42840 -0.13900
C 	C 	0.33950 0.16830 0.49620 0.46800
C 	C 	0.02490 0.46460 0.66350 0.07800
C 	C 	0.08170 0.38430 0.59140 0.11000
C 	C 	0.12970 0.37520 0.65770 -0.19200
C 	C 	0.12530 0.41090 0.72690 0.09400
C 	C 	0.07290 0.45550 0.72980 -0.14200
C 	C 	0.18450 0.32850 0.65640 0.44700
C 	C 	0.97900 0.51160 0.66280 0.07800
C 	C 	0.88900 0.56760 0.59340 0.10000
C 	C 	0.90110 0.60880 0.65460 -0.18000
C 	C 	0.95230 0.60140 0.71980 0.09200
C 	C 	0.99120 0.55280 0.72390 -0.14100
C 	C 	0.86800 0.66330 0.65130 0.46400
C 	C 	0.97230 0.99200 0.66650 0.08600
C 	C 	0.95570 0.92090 0.74400 0.11400
C 	C 	0.90670 0.89290 0.68330 -0.21600
C 	C 	0.89050 0.91450 0.61420 0.11700
C 	C 	0.92330 0.96400 0.60580 -0.15600
C 	C 	0.87570 0.83940 0.69450 0.53800
C 	C 	0.01440 0.03990 0.65970 0.06700
C 	C 	0.03710 0.10880 0.57900 0.09000
C 	C 	0.10100 0.13100 0.63160 -0.16700
C 	C 	0.12160 0.10770 0.69830 0.07800
C 	C 	0.07830 0.06220 0.71230 -0.12600
C 	C 	0.15310 0.17930 0.61680 0.47900
C 	C 	0.98150 0.52480 0.99700 0.07500
C 	C 	0.97830 0.59890 0.92440 0.09500
C 	C 	0.91390 0.62250 0.97530 -0.16700
C 	C 	0.88330 0.59730 0.03710 0.07900
C 	C 	0.91710 0.54840 0.04800 -0.13100
C 	C 	0.87250 0.67350 0.96100 0.46500
C 	C 	0.97780 0.97700 0.00390 0.07600
C 	C 	0.93510 0.89200 0.93660 0.10800
C 	C 	0.89110 0.88150 0.00430 -0.18400
C 	C 	0.89050 0.91880 0.07180 0.08900
C 	C 	0.93390 0.96650 0.07160 -0.13900
C 	C 	0.83950 0.83170 0.00380 0.46700
C 	C 	0.52490 0.53540 0.83650 0.07800
C 	C 	0.58170 0.61570 0.90860 0.11000
C 	C 	0.62970 0.62480 0.84230 -0.19200
C 	C 	0.62530 0.58910 0.77310 0.09400
C 	C 	0.57290 0.54450 0.77020 -0.14200
C 	C 	0.68450 0.67150 0.84360 0.44600
C 	C 	0.47900 0.48840 0.83720 0.07800
C 	C 	0.38900 0.43240 0.90660 0.10000
C 	C 	0.40110 0.39120 0.84540 -0.18000
C 	C 	0.45230 0.39860 0.78020 0.09200
C 	C 	0.49120 0.44720 0.77610 -0.14200
C 	C 	0.36800 0.33670 0.84870 0.46400
C 	C 	0.47230 0.00800 0.83350 0.08300
C 	C 	0.45570 0.07910 0.75600 0.11300
C 	C 	0.40670 0.10710 0.81670 -0.21500
C 	C 	0.39050 0.08550 0.88580 0.11600
C 	C 	0.42330 0.03600 0.89420 -0.15500
C 	C 	0.37570 0.16060 0.80550 0.53800
C 	C 	0.51440 0.96010 0.84030 0.07000
C 	C 	0.53710 0.89120 0.92100 0.09100
C 	C 	0.60100 0.86900 0.86840 -0.16700
C 	C 	0.62160 0.89230 0.80170 0.07900
C 	C 	0.57830 0.93780 0.78770 -0.12800
C 	C 	0.65310 0.82070 0.88320 0.47900
N 	N 	0.48790 0.55010 0.43520 -0.13100
N 	N 	0.52160 0.93970 0.43650 -0.13000
N 	N 	0.97060 0.57100 0.40570 -0.12200
N 	N 	0.07210 0.48100 0.40250 -0.11700
N 	N 	0.01150 0.02960 0.26440 -0.13300
N 	N 	0.00620 0.93680 0.40700 -0.12600
N 	N 	0.98790 0.44990 0.06480 -0.13200
N 	N 	0.02160 0.06030 0.06350 -0.12900
N 	N 	0.47060 0.42900 0.09430 -0.12200
N 	N 	0.57210 0.51900 0.09750 -0.11700
N 	N 	0.51150 0.97040 0.23560 -0.13300
N 	N 	0.50620 0.06320 0.09300 -0.12600
N 	N 	0.51210 0.44990 0.56480 -0.13100
N 	N 	0.47840 0.06030 0.56350 -0.13000
N 	N 	0.02940 0.42900 0.59430 -0.12200
N 	N 	0.92790 0.51900 0.59750 -0.11700
N 	N 	0.98850 0.97040 0.73560 -0.13300
N 	N 	0.99380 0.06320 0.59300 -0.12600
N 	N 	0.01210 0.55010 0.93520 -0.13200
N 	N 	0.97840 0.93970 0.93650 -0.12900
N 	N 	0.52940 0.57100 0.90570 -0.12200
N 	N 	0.42790 0.48100 0.90250 -0.11700
N 	N 	0.48850 0.02960 0.76440 -0.13300
N 	N 	0.49380 0.93680 0.90700 -0.12600
O 	O 	0.66020 0.80180 0.44090 -0.49800
O 	O 	0.77550 0.67930 0.28230 -0.42900
O 	O 	0.80250 0.79930 0.32910 -0.47100
O 	O 	0.61350 0.68510 0.39150 -0.44200
O 	O 	0.11480 0.30130 0.29510 -0.50800
O 	O 	0.13820 0.17240 0.24100 -0.50100
O 	O 	0.17620 0.33120 0.41040 -0.44900
O 	O 	0.80610 0.70130 0.40810 -0.49000
O 	O 	0.66270 0.70080 0.51530 -0.46300
O 	O 	0.69700 0.82200 0.56520 -0.44100
O 	O 	0.85120 0.81080 0.45290 -0.45100
O 	O 	0.13770 0.19160 0.36700 -0.51100
O 	O 	0.16020 0.19820 0.05910 -0.49600
O 	O 	0.27550 0.32070 0.21770 -0.42900
O 	O 	0.30250 0.20070 0.17090 -0.47100
O 	O 	0.11350 0.31490 0.10850 -0.44300
O 	O 	0.61480 0.69870 0.20490 -0.50800
O 	O 	0.63820 0.82760 0.25900 -0.50100
O 	O 	0.67620 0.66880 0.08960 -0.44900
O 	O 	0.30610 0.29870 0.09190 -0.49000
O 	O 	0.16270 0.29920 0.98470 -0.46400
O 	O 	0.19700 0.17800 0.93480 -0.44100
O 	O 	0.35120 0.18920 0.04710 -0.45000
O 	O 	0.63770 0.80840 0.13300 -0.51100
O 	O 	0.33980 0.19820 0.55910 -0.49800
O 	O 	0.22450 0.32070 0.71770 -0.42900
O 	O 	0.19750 0.20070 0.67090 -0.47100
O 	O 	0.38650 0.31490 0.60850 -0.44200
O 	O 	0.88520 0.69870 0.70490 -0.50800
O 	O 	0.86180 0.82760 0.75900 -0.50100
O 	O 	0.82380 0.66880 0.58960 -0.44900
O 	O 	0.19390 0.29870 0.59190 -0.49000
O 	O 	0.33730 0.29920 0.48470 -0.46300
O 	O 	0.30300 0.17800 0.43480 -0.44100
O 	O 	0.14880 0.18920 0.54710 -0.45100
O 	O 	0.86230 0.80840 0.63300 -0.51100
O 	O 	0.83980 0.80180 0.94090 -0.49600
O 	O 	0.72450 0.67930 0.78230 -0.42900
O 	O 	0.69750 0.79930 0.82910 -0.47100
O 	O 	0.88650 0.68510 0.89150 -0.44300
O 	O 	0.38520 0.30130 0.79510 -0.50800
O 	O 	0.36180 0.17240 0.74100 -0.50100
O 	O 	0.32380 0.33120 0.91040 -0.44900
O 	O 	0.69390 0.70130 0.90810 -0.49000
O 	O 	0.83730 0.70080 0.01530 -0.46400
O 	O 	0.80300 0.82200 0.06520 -0.44100
O 	O 	0.64880 0.81080 0.95290 -0.45000
O 	O 	0.36230 0.19160 0.86700 -0.51100
