data_crystal

_cell_length_a 11.52130
_cell_length_b 27.01540
_cell_length_c 16.99500
_cell_angle_alpha 98.13700
_cell_angle_beta  90.00000
_cell_angle_gamma 90.00000

_symmetry_space_group_name_	'P 1'
_symmetry_space_group_name_H-M	'P 1'

loop_
_symmetry_equiv_pos_as_xyz
  x,y,z

loop_
_atom_site_label
_atom_site_type_symbol
_atom_site_fract_x
_atom_site_fract_y
_atom_site_fract_z
_atom_site_charge
Gd	Gd	0.61987 0.75190 0.69105 1.65300
Gd	Gd	0.19120 0.24916 0.53076 1.63800
Gd	Gd	0.11987 0.24810 0.80895 1.65300
Gd	Gd	0.69120 0.75084 0.96924 1.63700
Gd	Gd	0.38013 0.24810 0.30895 1.65300
Gd	Gd	0.80880 0.75084 0.46924 1.63800
Gd	Gd	0.88013 0.75190 0.19105 1.65200
Gd	Gd	0.30880 0.24916 0.03076 1.63600
H 	H 	0.43220 0.89490 0.62130 0.01600
H 	H 	0.66910 0.87830 0.44590 0.01700
H 	H 	0.63080 0.95890 0.42050 0.08700
H 	H 	0.63280 0.60070 0.39020 0.01200
H 	H 	0.50180 0.63200 0.61080 0.00400
H 	H 	0.45460 0.54830 0.60890 0.09700
H 	H 	0.96570 0.85740 0.55650 -0.00600
H 	H 	0.83120 0.89890 0.77400 0.00500
H 	H 	0.91660 0.97700 0.77840 0.09700
H 	H 	0.02510 0.12290 0.76370 0.01100
H 	H 	0.13190 0.08230 0.53870 0.01200
H 	H 	0.09090 0.99950 0.54930 0.09400
H 	H 	0.98100 0.40410 0.78320 -0.00100
H 	H 	0.13610 0.38780 0.56930 0.00100
H 	H 	0.09250 0.47020 0.55720 0.10300
H 	H 	0.86250 0.54590 0.75480 0.09300
H 	H 	0.79600 0.62400 0.73340 0.01100
H 	H 	0.00220 0.61820 0.54160 0.01600
H 	H 	0.93220 0.10510 0.87870 0.01600
H 	H 	0.16910 0.12170 0.05410 0.01700
H 	H 	0.13080 0.04110 0.07950 0.08700
H 	H 	0.13280 0.39930 0.10980 0.01200
H 	H 	0.00180 0.36800 0.88920 0.00300
H 	H 	0.95460 0.45170 0.89110 0.09700
H 	H 	0.46570 0.14260 0.94350 -0.00600
H 	H 	0.33120 0.10110 0.72600 0.00500
H 	H 	0.41660 0.02300 0.72160 0.09800
H 	H 	0.52510 0.87710 0.73630 0.01100
H 	H 	0.63190 0.91770 0.96130 0.01200
H 	H 	0.59090 0.00050 0.95070 0.09500
H 	H 	0.48100 0.59590 0.71680 -0.00000
H 	H 	0.63610 0.61220 0.93070 0.00200
H 	H 	0.59250 0.52980 0.94280 0.10300
H 	H 	0.36250 0.45410 0.74520 0.09300
H 	H 	0.29600 0.37600 0.76660 0.01100
H 	H 	0.50220 0.38180 0.95840 0.01600
H 	H 	0.56780 0.10510 0.37870 0.01600
H 	H 	0.33090 0.12170 0.55410 0.01700
H 	H 	0.36920 0.04110 0.57950 0.08700
H 	H 	0.36720 0.39930 0.60980 0.01200
H 	H 	0.49820 0.36800 0.38920 0.00400
H 	H 	0.54540 0.45170 0.39110 0.09700
H 	H 	0.03430 0.14260 0.44350 -0.00600
H 	H 	0.16880 0.10110 0.22600 0.00500
H 	H 	0.08340 0.02300 0.22160 0.09700
H 	H 	0.97490 0.87710 0.23630 0.01100
H 	H 	0.86810 0.91770 0.46130 0.01200
H 	H 	0.90910 0.00050 0.45070 0.09400
H 	H 	0.01900 0.59590 0.21680 -0.00100
H 	H 	0.86390 0.61220 0.43070 0.00100
H 	H 	0.90750 0.52980 0.44280 0.10300
H 	H 	0.13750 0.45410 0.24520 0.09300
H 	H 	0.20400 0.37600 0.26660 0.01100
H 	H 	0.99780 0.38180 0.45840 0.01600
H 	H 	0.06780 0.89490 0.12130 0.01600
H 	H 	0.83090 0.87830 0.94590 0.01700
H 	H 	0.86920 0.95890 0.92050 0.08700
H 	H 	0.86720 0.60070 0.89020 0.01200
H 	H 	0.99820 0.63200 0.11080 0.00300
H 	H 	0.04540 0.54830 0.10890 0.09700
H 	H 	0.53430 0.85740 0.05650 -0.00600
H 	H 	0.66880 0.89890 0.27400 0.00500
H 	H 	0.58340 0.97700 0.27840 0.09800
H 	H 	0.47490 0.12290 0.26370 0.01100
H 	H 	0.36810 0.08230 0.03870 0.01200
H 	H 	0.40910 0.99950 0.04930 0.09500
H 	H 	0.51900 0.40410 0.28320 -0.00000
H 	H 	0.36390 0.38780 0.06930 0.00200
H 	H 	0.40750 0.47020 0.05720 0.10300
H 	H 	0.63750 0.54590 0.25480 0.09300
H 	H 	0.70400 0.62400 0.23340 0.01100
H 	H 	0.49780 0.61820 0.04160 0.01600
C 	C 	0.50860 0.97520 0.50570 0.07400
C 	C 	0.47200 0.90770 0.58100 0.09600
C 	C 	0.55440 0.87860 0.53610 -0.17300
C 	C 	0.61390 0.89780 0.47600 0.08300
C 	C 	0.59100 0.94610 0.46080 -0.13400
C 	C 	0.58370 0.82700 0.55330 0.46400
C 	C 	0.51550 0.52440 0.49850 0.07800
C 	C 	0.59710 0.59020 0.43400 0.10500
C 	C 	0.57200 0.62460 0.50070 -0.19100
C 	C 	0.51860 0.60890 0.56620 0.10100
C 	C 	0.49040 0.55880 0.56510 -0.14600
C 	C 	0.60900 0.67760 0.50780 0.49000
C 	C 	0.99230 0.96400 0.67010 0.08000
C 	C 	0.95590 0.88140 0.60100 0.12200
C 	C 	0.89000 0.87040 0.66480 -0.21800
C 	C 	0.87530 0.90620 0.73130 0.11200
C 	C 	0.92640 0.95300 0.73390 -0.15100
C 	C 	0.82660 0.82300 0.66020 0.52300
C 	C 	0.03340 0.01150 0.66280 0.07600
C 	C 	0.03830 0.09810 0.72070 0.10600
C 	C 	0.08260 0.11082 0.65010 -0.19200
C 	C 	0.10230 0.07380 0.58590 0.09400
C 	C 	0.07770 0.02420 0.59220 -0.14400
C 	C 	0.09810 0.16400 0.63990 0.48400
C 	C 	0.01060 0.48650 0.66300 0.08800
C 	C 	0.00330 0.41730 0.73790 0.12100
C 	C 	0.06280 0.38770 0.67740 -0.22900
C 	C 	0.09620 0.40760 0.60970 0.12500
C 	C 	0.07010 0.45690 0.60250 -0.16100
C 	C 	0.08420 0.33450 0.68610 0.56400
C 	C 	0.97210 0.53530 0.66100 0.07200
C 	C 	0.89050 0.56040 0.71210 -0.13400
C 	C 	0.85060 0.60720 0.69930 0.08800
C 	C 	0.89250 0.62890 0.63540 -0.17500
C 	C 	0.97420 0.60370 0.58430 0.09300
C 	C 	0.84590 0.67730 0.62030 0.44700
C 	C 	0.00860 0.02480 0.99430 0.07600
C 	C 	0.97200 0.09230 0.91900 0.09500
C 	C 	0.05440 0.12140 0.96390 -0.17000
C 	C 	0.11390 0.10220 0.02400 0.08100
C 	C 	0.09100 0.05390 0.03920 -0.13600
C 	C 	0.08370 0.17300 0.94670 0.46300
C 	C 	0.01550 0.47560 0.00150 0.07800
C 	C 	0.09710 0.40980 0.06600 0.10400
C 	C 	0.07200 0.37540 0.99930 -0.19100
C 	C 	0.01860 0.39110 0.93380 0.10200
C 	C 	0.99040 0.44120 0.93490 -0.14700
C 	C 	0.10900 0.32240 0.99220 0.49100
C 	C 	0.49230 0.03600 0.82990 0.08200
C 	C 	0.45590 0.11860 0.89900 0.12300
C 	C 	0.39000 0.12960 0.83520 -0.21900
C 	C 	0.37530 0.09380 0.76870 0.11300
C 	C 	0.42640 0.04700 0.76610 -0.15200
C 	C 	0.32660 0.17700 0.83980 0.52300
C 	C 	0.53340 0.98850 0.83720 0.07500
C 	C 	0.53830 0.90190 0.77930 0.10700
C 	C 	0.58260 0.88918 0.84990 -0.19300
C 	C 	0.60230 0.92620 0.91410 0.09500
C 	C 	0.57770 0.97580 0.90780 -0.14600
C 	C 	0.59810 0.83600 0.86010 0.48400
C 	C 	0.51060 0.51350 0.83700 0.08700
C 	C 	0.50330 0.58270 0.76210 0.12000
C 	C 	0.56280 0.61230 0.82260 -0.22800
C 	C 	0.59620 0.59240 0.89030 0.12400
C 	C 	0.57010 0.54310 0.89750 -0.16000
C 	C 	0.58420 0.66550 0.81390 0.56300
C 	C 	0.47210 0.46470 0.83900 0.07300
C 	C 	0.39050 0.43960 0.78790 -0.13500
C 	C 	0.35060 0.39280 0.80070 0.08900
C 	C 	0.39250 0.37110 0.86460 -0.17600
C 	C 	0.47420 0.39630 0.91570 0.09400
C 	C 	0.34590 0.32270 0.87970 0.44700
C 	C 	0.49140 0.02480 0.49430 0.07400
C 	C 	0.52800 0.09230 0.41900 0.09600
C 	C 	0.44560 0.12140 0.46390 -0.17300
C 	C 	0.38610 0.10220 0.52400 0.08300
C 	C 	0.40900 0.05390 0.53920 -0.13400
C 	C 	0.41630 0.17300 0.44670 0.46400
C 	C 	0.48450 0.47560 0.50150 0.07800
C 	C 	0.40290 0.40980 0.56600 0.10500
C 	C 	0.42800 0.37540 0.49930 -0.19100
C 	C 	0.48140 0.39110 0.43380 0.10100
C 	C 	0.50960 0.44120 0.43490 -0.14600
C 	C 	0.39100 0.32240 0.49220 0.49000
C 	C 	0.00770 0.03600 0.32990 0.08000
C 	C 	0.04410 0.11860 0.39900 0.12200
C 	C 	0.11000 0.12960 0.33520 -0.21800
C 	C 	0.12470 0.09380 0.26870 0.11200
C 	C 	0.07360 0.04700 0.26610 -0.15100
C 	C 	0.17340 0.17700 0.33980 0.52300
C 	C 	0.96660 0.98850 0.33720 0.07600
C 	C 	0.96170 0.90190 0.27930 0.10600
C 	C 	0.91740 0.88918 0.34990 -0.19200
C 	C 	0.89770 0.92620 0.41410 0.09400
C 	C 	0.92230 0.97580 0.40780 -0.14400
C 	C 	0.90190 0.83600 0.36010 0.48400
C 	C 	0.98940 0.51350 0.33700 0.08800
C 	C 	0.99670 0.58270 0.26210 0.12100
C 	C 	0.93720 0.61230 0.32260 -0.22900
C 	C 	0.90380 0.59240 0.39030 0.12500
C 	C 	0.92990 0.54310 0.39750 -0.16100
C 	C 	0.91580 0.66550 0.31390 0.56400
C 	C 	0.02790 0.46470 0.33900 0.07200
C 	C 	0.10950 0.43960 0.28790 -0.13400
C 	C 	0.14940 0.39280 0.30070 0.08800
C 	C 	0.10750 0.37110 0.36460 -0.17500
C 	C 	0.02580 0.39630 0.41570 0.09300
C 	C 	0.15410 0.32270 0.37970 0.44700
C 	C 	0.99140 0.97520 0.00570 0.07600
C 	C 	0.02800 0.90770 0.08100 0.09500
C 	C 	0.94560 0.87860 0.03610 -0.17000
C 	C 	0.88610 0.89780 0.97600 0.08100
C 	C 	0.90900 0.94610 0.96080 -0.13600
C 	C 	0.91630 0.82700 0.05330 0.46300
C 	C 	0.98450 0.52440 0.99850 0.07800
C 	C 	0.90290 0.59020 0.93400 0.10400
C 	C 	0.92800 0.62460 0.00070 -0.19100
C 	C 	0.98140 0.60890 0.06620 0.10200
C 	C 	0.00960 0.55880 0.06510 -0.14700
C 	C 	0.89100 0.67760 0.00780 0.49100
C 	C 	0.50770 0.96400 0.17010 0.08200
C 	C 	0.54410 0.88140 0.10100 0.12300
C 	C 	0.61000 0.87040 0.16480 -0.21900
C 	C 	0.62470 0.90620 0.23130 0.11300
C 	C 	0.57360 0.95300 0.23390 -0.15200
C 	C 	0.67340 0.82300 0.16020 0.52300
C 	C 	0.46660 0.01150 0.16280 0.07500
C 	C 	0.46170 0.09810 0.22070 0.10700
C 	C 	0.41740 0.11082 0.15010 -0.19300
C 	C 	0.39770 0.07380 0.08590 0.09500
C 	C 	0.42230 0.02420 0.09220 -0.14600
C 	C 	0.40190 0.16400 0.13990 0.48400
C 	C 	0.48940 0.48650 0.16300 0.08700
C 	C 	0.49670 0.41730 0.23790 0.12000
C 	C 	0.43720 0.38770 0.17740 -0.22800
C 	C 	0.40380 0.40760 0.10970 0.12400
C 	C 	0.42990 0.45690 0.10250 -0.16000
C 	C 	0.41580 0.33450 0.18610 0.56300
C 	C 	0.52790 0.53530 0.16100 0.07300
C 	C 	0.60950 0.56040 0.21210 -0.13500
C 	C 	0.64940 0.60720 0.19930 0.08900
C 	C 	0.60750 0.62890 0.13540 -0.17600
C 	C 	0.52580 0.60370 0.08430 0.09400
C 	C 	0.65410 0.67730 0.12030 0.44700
N 	N 	0.44920 0.95600 0.56580 -0.12800
N 	N 	0.56890 0.54010 0.43290 -0.12900
N 	N 	0.00700 0.92820 0.60360 -0.13500
N 	N 	0.01370 0.04850 0.72700 -0.12800
N 	N 	0.97720 0.46670 0.73070 -0.13400
N 	N 	0.01400 0.55700 0.59710 -0.12700
N 	N 	0.94920 0.04400 0.93420 -0.12800
N 	N 	0.06890 0.45990 0.06710 -0.12900
N 	N 	0.50700 0.07180 0.89640 -0.13500
N 	N 	0.51370 0.95150 0.77300 -0.12900
N 	N 	0.47720 0.53330 0.76930 -0.13400
N 	N 	0.51400 0.44300 0.90290 -0.12800
N 	N 	0.55080 0.04400 0.43420 -0.12800
N 	N 	0.43110 0.45990 0.56710 -0.12900
N 	N 	0.99300 0.07180 0.39640 -0.13500
N 	N 	0.98630 0.95150 0.27300 -0.12800
N 	N 	0.02280 0.53330 0.26930 -0.13400
N 	N 	0.98600 0.44300 0.40290 -0.12700
N 	N 	0.05080 0.95600 0.06580 -0.12800
N 	N 	0.93110 0.54010 0.93290 -0.12900
N 	N 	0.49300 0.92820 0.10360 -0.13500
N 	N 	0.48630 0.04850 0.22700 -0.12900
N 	N 	0.52280 0.46670 0.23070 -0.13400
N 	N 	0.48600 0.55700 0.09710 -0.12800
O 	O 	0.58690 0.70380 0.57230 -0.51300
O 	O 	0.77100 0.81430 0.71790 -0.46800
O 	O 	0.78970 0.70230 0.67430 -0.45700
O 	O 	0.55210 0.81520 0.61730 -0.46400
O 	O 	0.06360 0.19660 0.69730 -0.50200
O 	O 	0.07600 0.32000 0.74960 -0.51400
O 	O 	0.14110 0.17430 0.57890 -0.48800
O 	O 	0.83270 0.79560 0.59760 -0.51600
O 	O 	0.64440 0.80060 0.50140 -0.46200
O 	O 	0.66170 0.68910 0.44990 -0.46500
O 	O 	0.86820 0.68840 0.55150 -0.43200
O 	O 	0.10600 0.30710 0.62440 -0.53600
O 	O 	0.08690 0.29620 0.92770 -0.51300
O 	O 	0.27100 0.18570 0.78210 -0.46800
O 	O 	0.28970 0.29770 0.82570 -0.45700
O 	O 	0.05210 0.18480 0.88270 -0.46400
O 	O 	0.56360 0.80340 0.80270 -0.50200
O 	O 	0.57600 0.68000 0.75040 -0.51400
O 	O 	0.64110 0.82570 0.92110 -0.48800
O 	O 	0.33270 0.20440 0.90240 -0.51500
O 	O 	0.14440 0.19940 0.99860 -0.46000
O 	O 	0.16170 0.31090 0.05010 -0.46600
O 	O 	0.36820 0.31160 0.94850 -0.43100
O 	O 	0.60600 0.69290 0.87560 -0.53600
O 	O 	0.41310 0.29620 0.42770 -0.51300
O 	O 	0.22900 0.18570 0.28210 -0.46800
O 	O 	0.21030 0.29770 0.32570 -0.45700
O 	O 	0.44790 0.18480 0.38270 -0.46400
O 	O 	0.93640 0.80340 0.30270 -0.50200
O 	O 	0.92400 0.68000 0.25040 -0.51400
O 	O 	0.85890 0.82570 0.42110 -0.48800
O 	O 	0.16730 0.20440 0.40240 -0.51600
O 	O 	0.35560 0.19940 0.49860 -0.46200
O 	O 	0.33830 0.31090 0.55010 -0.46500
O 	O 	0.13180 0.31160 0.44850 -0.43200
O 	O 	0.89400 0.69290 0.37560 -0.53600
O 	O 	0.91310 0.70380 0.07230 -0.51300
O 	O 	0.72900 0.81430 0.21790 -0.46800
O 	O 	0.71030 0.70230 0.17430 -0.45700
O 	O 	0.94790 0.81520 0.11730 -0.46400
O 	O 	0.43640 0.19660 0.19730 -0.50200
O 	O 	0.42400 0.32000 0.24960 -0.51400
O 	O 	0.35890 0.17430 0.07890 -0.48800
O 	O 	0.66730 0.79560 0.09760 -0.51500
O 	O 	0.85560 0.80060 0.00140 -0.46000
O 	O 	0.83830 0.68910 0.94990 -0.46600
O 	O 	0.63180 0.68840 0.05150 -0.43100
O 	O 	0.39400 0.30710 0.12440 -0.53600
