data_crystal

_cell_length_a 9.72400
_cell_length_b 10.76400
_cell_length_c 26.96900
_cell_angle_alpha 90.00000
_cell_angle_beta  90.00000
_cell_angle_gamma 90.00000

_symmetry_space_group_name_	'P 1'
_symmetry_space_group_name_H-M	'P 1'

loop_
_symmetry_equiv_pos_as_xyz
  x,y,z

loop_
_atom_site_label
_atom_site_type_symbol
_atom_site_fract_x
_atom_site_fract_y
_atom_site_fract_z
_atom_site_charge
Cu	Cu	0.81320 0.11000 0.83391 0.90600
Cu	Cu	0.68646 0.88519 0.66774 0.90200
Cu	Cu	0.81320 0.89000 0.16609 0.90600
Cu	Cu	0.68646 0.11481 0.33226 0.90200
Cu	Cu	0.18680 0.39000 0.33391 0.90600
Cu	Cu	0.31354 0.61481 0.16774 0.90200
Cu	Cu	0.18680 0.61000 0.66609 0.90600
Cu	Cu	0.31354 0.38519 0.83226 0.90200
H 	H 	0.03440 0.18090 0.73690 0.00600
H 	H 	0.41830 0.92410 0.75620 0.00800
H 	H 	0.91290 0.78830 0.60150 0.14300
H 	H 	0.94320 0.95940 0.90130 0.21000
H 	H 	0.96130 0.95440 0.95900 0.22200
H 	H 	0.86740 0.85680 0.93220 0.22300
H 	H 	0.54290 0.03140 0.59990 0.19100
H 	H 	0.60220 0.13270 0.56410 0.19900
H 	H 	0.52020 0.01950 0.54260 0.19900
H 	H 	0.07960 0.77910 0.53690 0.25000
H 	H 	0.01010 0.79440 0.48480 0.23800
H 	H 	0.09200 0.90530 0.50820 0.23600
H 	H 	0.58610 0.22270 0.90060 0.14900
H 	H 	0.51740 0.77490 0.80880 0.18200
H 	H 	0.39060 0.71590 0.78170 0.17200
H 	H 	0.54020 0.68520 0.76380 0.18000
H 	H 	0.45120 0.13270 0.01690 0.25400
H 	H 	0.47370 0.25960 0.98960 0.25400
H 	H 	0.38530 0.15520 0.96460 0.26000
H 	H 	0.09600 0.97790 0.71620 0.21200
H 	H 	0.22060 0.04090 0.74310 0.19600
H 	H 	0.12640 0.94740 0.77190 0.19100
H 	H 	0.03440 0.81910 0.26310 0.00600
H 	H 	0.41830 0.07590 0.24380 0.00800
H 	H 	0.91290 0.21170 0.39850 0.14300
H 	H 	0.94320 0.04060 0.09870 0.21000
H 	H 	0.96130 0.04560 0.04100 0.22200
H 	H 	0.86740 0.14320 0.06780 0.22300
H 	H 	0.54290 0.96860 0.40010 0.19100
H 	H 	0.60220 0.86730 0.43590 0.19900
H 	H 	0.52020 0.98050 0.45740 0.19900
H 	H 	0.07960 0.22090 0.46310 0.25000
H 	H 	0.01010 0.20560 0.51520 0.23800
H 	H 	0.09200 0.09470 0.49180 0.23600
H 	H 	0.58610 0.77730 0.09940 0.14900
H 	H 	0.51740 0.22510 0.19120 0.18200
H 	H 	0.39060 0.28410 0.21830 0.17200
H 	H 	0.54020 0.31480 0.23620 0.18000
H 	H 	0.45120 0.86730 0.98310 0.25400
H 	H 	0.47370 0.74040 0.01040 0.25400
H 	H 	0.38530 0.84480 0.03540 0.26000
H 	H 	0.09600 0.02210 0.28380 0.21200
H 	H 	0.22060 0.95910 0.25690 0.19600
H 	H 	0.12640 0.05260 0.22810 0.19100
H 	H 	0.96560 0.31910 0.23690 0.00500
H 	H 	0.58170 0.57590 0.25620 0.00800
H 	H 	0.08710 0.71170 0.10150 0.14300
H 	H 	0.05680 0.54060 0.40130 0.20900
H 	H 	0.03870 0.54560 0.45900 0.22100
H 	H 	0.13260 0.64320 0.43220 0.22200
H 	H 	0.45710 0.46860 0.09990 0.19100
H 	H 	0.39780 0.36730 0.06410 0.20000
H 	H 	0.47980 0.48050 0.04260 0.19900
H 	H 	0.92040 0.72090 0.03690 0.25000
H 	H 	0.98990 0.70560 0.98480 0.23700
H 	H 	0.90800 0.59470 0.00820 0.23500
H 	H 	0.41390 0.27730 0.40060 0.14900
H 	H 	0.48260 0.72510 0.30880 0.18300
H 	H 	0.60940 0.78410 0.28170 0.17300
H 	H 	0.45980 0.81480 0.26380 0.18100
H 	H 	0.54880 0.36730 0.51690 0.25600
H 	H 	0.52630 0.24040 0.48960 0.25500
H 	H 	0.61470 0.34480 0.46460 0.26100
H 	H 	0.90400 0.52210 0.21620 0.21800
H 	H 	0.77940 0.45910 0.24310 0.20000
H 	H 	0.87360 0.55260 0.27190 0.19700
H 	H 	0.96560 0.68090 0.76310 0.00500
H 	H 	0.58170 0.42410 0.74380 0.00800
H 	H 	0.08710 0.28830 0.89850 0.14300
H 	H 	0.05680 0.45940 0.59870 0.20900
H 	H 	0.03870 0.45440 0.54100 0.22100
H 	H 	0.13260 0.35680 0.56780 0.22200
H 	H 	0.45710 0.53140 0.90010 0.19100
H 	H 	0.39780 0.63270 0.93590 0.20000
H 	H 	0.47980 0.51950 0.95740 0.19900
H 	H 	0.92040 0.27910 0.96310 0.25000
H 	H 	0.98990 0.29440 0.01520 0.23700
H 	H 	0.90800 0.40530 0.99180 0.23500
H 	H 	0.41390 0.72270 0.59940 0.14900
H 	H 	0.48260 0.27490 0.69120 0.18300
H 	H 	0.60940 0.21590 0.71830 0.17300
H 	H 	0.45980 0.18520 0.73620 0.18100
H 	H 	0.54880 0.63270 0.48310 0.25600
H 	H 	0.52630 0.75960 0.51040 0.25500
H 	H 	0.61470 0.65520 0.53540 0.26100
H 	H 	0.90400 0.47790 0.78380 0.21800
H 	H 	0.77940 0.54090 0.75690 0.20000
H 	H 	0.87360 0.44740 0.72810 0.19700
C 	C 	0.82040 0.01200 0.73970 0.13400
C 	C 	0.68550 0.97350 0.76234 0.10000
C 	C 	0.80840 0.96450 0.52336 -0.15700
C 	C 	0.90590 0.88050 0.53930 0.28000
C 	C 	0.41630 0.81810 0.69130 0.26200
C 	C 	0.03650 0.11690 0.76280 0.07300
C 	C 	0.08390 0.17320 0.81170 0.26300
C 	C 	0.71770 0.97150 0.56350 0.21600
C 	C 	0.47690 0.85920 0.74190 0.06400
C 	C 	0.89810 0.94160 0.93210 -0.73300
C 	C 	0.58310 0.04570 0.56790 -0.66000
C 	C 	0.03300 0.83600 0.51520 -0.77500
C 	C 	0.68430 0.03520 0.97646 -0.17500
C 	C 	0.48170 0.74850 0.77740 -0.52500
C 	C 	0.77830 0.02530 0.93810 0.24800
C 	C 	0.58780 0.12160 0.96150 0.29800
C 	C 	0.46380 0.17160 0.98520 -0.82000
C 	C 	0.12820 0.01120 0.74710 -0.55600
C 	C 	0.82040 0.98800 0.26030 0.13400
C 	C 	0.68550 0.02650 0.23766 0.10000
C 	C 	0.80840 0.03550 0.47664 -0.15700
C 	C 	0.90590 0.11950 0.46070 0.28000
C 	C 	0.41630 0.18190 0.30870 0.26200
C 	C 	0.03650 0.88310 0.23720 0.07300
C 	C 	0.08390 0.82680 0.18830 0.26300
C 	C 	0.71770 0.02850 0.43650 0.21600
C 	C 	0.47690 0.14080 0.25810 0.06400
C 	C 	0.89810 0.05840 0.06790 -0.73300
C 	C 	0.58310 0.95430 0.43210 -0.66000
C 	C 	0.03300 0.16400 0.48480 -0.77500
C 	C 	0.68430 0.96480 0.02354 -0.17500
C 	C 	0.48170 0.25150 0.22260 -0.52500
C 	C 	0.77830 0.97470 0.06190 0.24800
C 	C 	0.58780 0.87840 0.03850 0.29800
C 	C 	0.46380 0.82840 0.01480 -0.82000
C 	C 	0.12820 0.98880 0.25290 -0.55600
C 	C 	0.17960 0.48800 0.23970 0.13000
C 	C 	0.31450 0.52650 0.26234 0.10400
C 	C 	0.19160 0.53550 0.02336 -0.15700
C 	C 	0.09410 0.61950 0.03930 0.28000
C 	C 	0.58370 0.68190 0.19130 0.26200
C 	C 	0.96350 0.38310 0.26280 0.07900
C 	C 	0.91610 0.32680 0.31170 0.26000
C 	C 	0.28230 0.52850 0.06350 0.21700
C 	C 	0.52310 0.64080 0.24190 0.06500
C 	C 	0.10190 0.55840 0.43210 -0.73000
C 	C 	0.41690 0.45430 0.06790 -0.66100
C 	C 	0.96700 0.66400 0.01520 -0.77300
C 	C 	0.31570 0.46480 0.47646 -0.17500
C 	C 	0.51830 0.75150 0.27740 -0.52700
C 	C 	0.22170 0.47470 0.43810 0.24700
C 	C 	0.41220 0.37840 0.46150 0.29900
C 	C 	0.53620 0.32840 0.48520 -0.82400
C 	C 	0.87180 0.48880 0.24710 -0.57400
C 	C 	0.17960 0.51200 0.76030 0.13000
C 	C 	0.31450 0.47350 0.73766 0.10400
C 	C 	0.19160 0.46450 0.97664 -0.15700
C 	C 	0.09410 0.38050 0.96070 0.28000
C 	C 	0.58370 0.31810 0.80870 0.26200
C 	C 	0.96350 0.61690 0.73720 0.07900
C 	C 	0.91610 0.67320 0.68830 0.26000
C 	C 	0.28230 0.47150 0.93650 0.21700
C 	C 	0.52310 0.35920 0.75810 0.06500
C 	C 	0.10190 0.44160 0.56790 -0.73000
C 	C 	0.41690 0.54570 0.93210 -0.66100
C 	C 	0.96700 0.33600 0.98480 -0.77300
C 	C 	0.31570 0.53520 0.52354 -0.17500
C 	C 	0.51830 0.24850 0.72260 -0.52700
C 	C 	0.22170 0.52530 0.56190 0.24700
C 	C 	0.41220 0.62160 0.53850 0.29900
C 	C 	0.53620 0.67160 0.51480 -0.82400
C 	C 	0.87180 0.51120 0.75290 -0.57400
N 	N 	0.75220 0.89620 0.59911 -0.21700
N 	N 	0.74700 0.10720 0.90131 -0.22400
N 	N 	0.60910 0.90950 0.73205 -0.24000
N 	N 	0.89660 0.06990 0.77203 -0.24700
N 	N 	0.86800 0.84190 0.58422 -0.22500
N 	N 	0.62840 0.16570 0.91699 -0.22900
N 	N 	0.75220 0.10380 0.40089 -0.21700
N 	N 	0.74700 0.89280 0.09869 -0.22400
N 	N 	0.60910 0.09050 0.26795 -0.24000
N 	N 	0.89660 0.93010 0.22797 -0.24700
N 	N 	0.86800 0.15810 0.41578 -0.22500
N 	N 	0.62840 0.83430 0.08301 -0.22900
N 	N 	0.24780 0.60380 0.09911 -0.21700
N 	N 	0.25300 0.39280 0.40131 -0.22400
N 	N 	0.39090 0.59050 0.23205 -0.24100
N 	N 	0.10340 0.43010 0.27203 -0.24700
N 	N 	0.13200 0.65810 0.08422 -0.22500
N 	N 	0.37160 0.33430 0.41699 -0.22900
N 	N 	0.24780 0.39620 0.90089 -0.21700
N 	N 	0.25300 0.60720 0.59869 -0.22400
N 	N 	0.39090 0.40950 0.76795 -0.24100
N 	N 	0.10340 0.56990 0.72797 -0.24700
N 	N 	0.13200 0.34190 0.91578 -0.22500
N 	N 	0.37160 0.66570 0.58301 -0.22900
O 	O 	0.84440 0.98640 0.69519 -0.34400
O 	O 	0.65880 0.00180 0.80780 -0.32400
O 	O 	0.99500 0.18400 0.84680 -0.39400
O 	O 	0.49750 0.82010 0.65393 -0.39000
O 	O 	0.29380 0.78470 0.68789 -0.34600
O 	O 	0.20630 0.20340 0.81409 -0.34200
O 	O 	0.84440 0.01360 0.30481 -0.34400
O 	O 	0.65880 0.99820 0.19220 -0.32400
O 	O 	0.99500 0.81600 0.15320 -0.39400
O 	O 	0.49750 0.17990 0.34607 -0.39000
O 	O 	0.29380 0.21530 0.31211 -0.34600
O 	O 	0.20630 0.79660 0.18591 -0.34200
O 	O 	0.15560 0.51360 0.19519 -0.34200
O 	O 	0.34120 0.49820 0.30780 -0.32600
O 	O 	0.00500 0.31600 0.34680 -0.39300
O 	O 	0.50250 0.67990 0.15393 -0.38900
O 	O 	0.70620 0.71530 0.18789 -0.34600
O 	O 	0.79370 0.29660 0.31409 -0.34200
O 	O 	0.15560 0.48640 0.80481 -0.34200
O 	O 	0.34120 0.50180 0.69220 -0.32600
O 	O 	0.00500 0.68400 0.65320 -0.39300
O 	O 	0.50250 0.32010 0.84607 -0.38900
O 	O 	0.70620 0.28470 0.81211 -0.34600
O 	O 	0.79370 0.70340 0.68591 -0.34200
