data_crystal

_cell_length_a 9.69720
_cell_length_b 10.79570
_cell_length_c 26.96710
_cell_angle_alpha 90.00000
_cell_angle_beta  90.00000
_cell_angle_gamma 90.00000

_symmetry_space_group_name_	'P 1'
_symmetry_space_group_name_H-M	'P 1'

loop_
_symmetry_equiv_pos_as_xyz
  x,y,z

loop_
_atom_site_label
_atom_site_type_symbol
_atom_site_fract_x
_atom_site_fract_y
_atom_site_fract_z
_atom_site_charge
Cu	Cu	0.31405 0.61493 0.33212 0.90600
Cu	Cu	0.18675 0.38980 0.16609 0.90900
Cu	Cu	0.31405 0.38507 0.66788 0.90600
Cu	Cu	0.18675 0.61020 0.83391 0.90900
Cu	Cu	0.68595 0.88507 0.83212 0.90600
Cu	Cu	0.81325 0.11020 0.66609 0.90900
Cu	Cu	0.68595 0.11493 0.16788 0.90600
Cu	Cu	0.81325 0.88980 0.33391 0.90900
H 	H 	0.08780 0.71400 0.39860 0.13600
H 	H 	0.41770 0.27980 0.10070 0.13900
H 	H 	0.48290 0.72370 0.19070 0.13800
H 	H 	0.45900 0.81420 0.23690 0.13600
H 	H 	0.61220 0.78450 0.21840 0.12900
H 	H 	0.58610 0.57520 0.24330 0.02800
H 	H 	0.96950 0.31740 0.26290 0.02500
H 	H 	0.90300 0.51900 0.28640 0.16300
H 	H 	0.86460 0.55140 0.23020 0.14500
H 	H 	0.77610 0.45090 0.26000 0.14500
H 	H 	0.45480 0.46630 0.39950 0.15000
H 	H 	0.47970 0.47720 0.45800 0.16400
H 	H 	0.39150 0.36440 0.43610 0.16200
H 	H 	0.92520 0.72820 0.46400 0.19200
H 	H 	0.90860 0.60140 0.49410 0.18000
H 	H 	0.99950 0.71180 0.51650 0.18200
H 	H 	0.58990 0.27280 0.03720 0.18500
H 	H 	0.52630 0.29790 0.98340 0.17300
H 	H 	0.60870 0.40540 0.01150 0.17300
H 	H 	0.05140 0.53540 0.09770 0.14800
H 	H 	0.12720 0.64040 0.06590 0.16200
H 	H 	0.03540 0.53760 0.03860 0.16200
H 	H 	0.08780 0.28600 0.60140 0.13600
H 	H 	0.41770 0.72020 0.89930 0.13900
H 	H 	0.48290 0.27630 0.80930 0.13800
H 	H 	0.45900 0.18580 0.76310 0.13600
H 	H 	0.61220 0.21550 0.78160 0.12900
H 	H 	0.58610 0.42480 0.75670 0.02800
H 	H 	0.96950 0.68260 0.73710 0.02500
H 	H 	0.90300 0.48100 0.71360 0.16300
H 	H 	0.86460 0.44860 0.76980 0.14500
H 	H 	0.77610 0.54910 0.74000 0.14500
H 	H 	0.45480 0.53370 0.60050 0.15000
H 	H 	0.47970 0.52280 0.54200 0.16400
H 	H 	0.39150 0.63560 0.56390 0.16200
H 	H 	0.92520 0.27180 0.53600 0.19200
H 	H 	0.90860 0.39860 0.50590 0.18000
H 	H 	0.99950 0.28820 0.48350 0.18200
H 	H 	0.58990 0.72720 0.96280 0.18500
H 	H 	0.52630 0.70210 0.01660 0.17300
H 	H 	0.60870 0.59460 0.98850 0.17300
H 	H 	0.05140 0.46460 0.90230 0.14800
H 	H 	0.12720 0.35960 0.93410 0.16200
H 	H 	0.03540 0.46240 0.96140 0.16200
H 	H 	0.91220 0.78600 0.89860 0.13600
H 	H 	0.58230 0.22020 0.60070 0.13900
H 	H 	0.51710 0.77630 0.69070 0.13800
H 	H 	0.54100 0.68580 0.73690 0.13600
H 	H 	0.38780 0.71550 0.71840 0.12900
H 	H 	0.41390 0.92480 0.74330 0.02800
H 	H 	0.03050 0.18260 0.76290 0.02600
H 	H 	0.09700 0.98100 0.78640 0.16000
H 	H 	0.13540 0.94860 0.73020 0.14200
H 	H 	0.22390 0.04910 0.76000 0.14300
H 	H 	0.54520 0.03370 0.89950 0.15000
H 	H 	0.52030 0.02280 0.95800 0.16400
H 	H 	0.60850 0.13560 0.93610 0.16200
H 	H 	0.07480 0.77180 0.96400 0.19200
H 	H 	0.09140 0.89860 0.99410 0.18000
H 	H 	0.00050 0.78820 0.01650 0.18200
H 	H 	0.41010 0.22720 0.53720 0.18500
H 	H 	0.47370 0.20210 0.48340 0.17300
H 	H 	0.39130 0.09460 0.51150 0.17400
H 	H 	0.94860 0.96460 0.59770 0.14800
H 	H 	0.87280 0.85960 0.56590 0.16200
H 	H 	0.96460 0.96240 0.53860 0.16200
H 	H 	0.91220 0.21400 0.10140 0.13600
H 	H 	0.58230 0.77980 0.39930 0.13900
H 	H 	0.51710 0.22370 0.30930 0.13800
H 	H 	0.54100 0.31420 0.26310 0.13600
H 	H 	0.38780 0.28450 0.28160 0.12900
H 	H 	0.41390 0.07520 0.25670 0.02800
H 	H 	0.03050 0.81740 0.23710 0.02600
H 	H 	0.09700 0.01900 0.21360 0.16000
H 	H 	0.13540 0.05140 0.26980 0.14200
H 	H 	0.22390 0.95090 0.24000 0.14300
H 	H 	0.54520 0.96630 0.10050 0.15000
H 	H 	0.52030 0.97720 0.04200 0.16400
H 	H 	0.60850 0.86440 0.06390 0.16200
H 	H 	0.07480 0.22820 0.03600 0.19200
H 	H 	0.09140 0.10140 0.00590 0.18000
H 	H 	0.00050 0.21180 0.98350 0.18200
H 	H 	0.41010 0.77280 0.46280 0.18500
H 	H 	0.47370 0.79790 0.51660 0.17300
H 	H 	0.39130 0.90540 0.48850 0.17400
H 	H 	0.94860 0.03540 0.40230 0.14800
H 	H 	0.87280 0.14040 0.43410 0.16200
H 	H 	0.96460 0.03760 0.46140 0.16200
C 	C 	0.51940 0.75050 0.22285 -0.38400
C 	C 	0.52550 0.64100 0.25768 0.01600
C 	C 	0.58350 0.68260 0.30823 0.28800
C 	C 	0.31660 0.52700 0.23703 0.11600
C 	C 	0.18110 0.48690 0.25987 0.12200
C 	C 	0.96500 0.38370 0.23709 0.02000
C 	C 	0.86860 0.48520 0.25500 -0.40200
C 	C 	0.91390 0.32670 0.18863 0.28000
C 	C 	0.41390 0.45240 0.43220 -0.53700
C 	C 	0.28530 0.52770 0.43708 0.19400
C 	C 	0.19350 0.53520 0.47644 -0.13300
C 	C 	0.09470 0.61940 0.46104 0.23000
C 	C 	0.97180 0.66940 0.48600 -0.59000
C 	C 	0.54620 0.33480 0.01580 -0.56200
C 	C 	0.41470 0.37810 0.03913 0.21700
C 	C 	0.31970 0.46430 0.02330 -0.12500
C 	C 	0.22220 0.47220 0.06151 0.18300
C 	C 	0.09840 0.55340 0.06630 -0.53000
C 	C 	0.51940 0.24950 0.77715 -0.38400
C 	C 	0.52550 0.35900 0.74232 0.01600
C 	C 	0.58350 0.31740 0.69177 0.28800
C 	C 	0.31660 0.47300 0.76297 0.11600
C 	C 	0.18110 0.51310 0.74013 0.12200
C 	C 	0.96500 0.61630 0.76291 0.02000
C 	C 	0.86860 0.51480 0.74500 -0.40200
C 	C 	0.91390 0.67330 0.81137 0.28000
C 	C 	0.41390 0.54760 0.56780 -0.53700
C 	C 	0.28530 0.47230 0.56292 0.19400
C 	C 	0.19350 0.46480 0.52356 -0.13300
C 	C 	0.09470 0.38060 0.53896 0.23000
C 	C 	0.97180 0.33060 0.51400 -0.59000
C 	C 	0.54620 0.66520 0.98420 -0.56200
C 	C 	0.41470 0.62190 0.96087 0.21700
C 	C 	0.31970 0.53570 0.97670 -0.12500
C 	C 	0.22220 0.52780 0.93849 0.18300
C 	C 	0.09840 0.44660 0.93370 -0.53000
C 	C 	0.48060 0.74950 0.72285 -0.38400
C 	C 	0.47450 0.85900 0.75768 0.01600
C 	C 	0.41650 0.81740 0.80823 0.28800
C 	C 	0.68340 0.97300 0.73703 0.11400
C 	C 	0.81890 0.01310 0.75987 0.12400
C 	C 	0.03500 0.11630 0.73709 0.01800
C 	C 	0.13140 0.01480 0.75500 -0.39600
C 	C 	0.08610 0.17330 0.68863 0.28000
C 	C 	0.58610 0.04760 0.93220 -0.53700
C 	C 	0.71470 0.97230 0.93708 0.19400
C 	C 	0.80650 0.96480 0.97644 -0.13300
C 	C 	0.90530 0.88060 0.96104 0.23000
C 	C 	0.02820 0.83060 0.98600 -0.59000
C 	C 	0.45380 0.16520 0.51580 -0.56300
C 	C 	0.58530 0.12190 0.53913 0.21700
C 	C 	0.68030 0.03570 0.52330 -0.12500
C 	C 	0.77780 0.02780 0.56151 0.18400
C 	C 	0.90160 0.94660 0.56630 -0.53100
C 	C 	0.48060 0.25050 0.27715 -0.38400
C 	C 	0.47450 0.14100 0.24232 0.01600
C 	C 	0.41650 0.18260 0.19177 0.28800
C 	C 	0.68340 0.02700 0.26297 0.11400
C 	C 	0.81890 0.98690 0.24013 0.12400
C 	C 	0.03500 0.88370 0.26291 0.01800
C 	C 	0.13140 0.98520 0.24500 -0.39600
C 	C 	0.08610 0.82670 0.31137 0.28000
C 	C 	0.58610 0.95240 0.06780 -0.53700
C 	C 	0.71470 0.02770 0.06292 0.19400
C 	C 	0.80650 0.03520 0.02356 -0.13300
C 	C 	0.90530 0.11940 0.03896 0.23000
C 	C 	0.02820 0.16940 0.01400 -0.59000
C 	C 	0.45380 0.83480 0.48420 -0.56300
C 	C 	0.58530 0.87810 0.46087 0.21700
C 	C 	0.68030 0.96430 0.47670 -0.12500
C 	C 	0.77780 0.97220 0.43849 0.18400
C 	C 	0.90160 0.05340 0.43370 -0.53100
N 	N 	0.39070 0.59010 0.26792 -0.23600
N 	N 	0.10320 0.42960 0.22803 -0.23600
N 	N 	0.24780 0.60350 0.40102 -0.20900
N 	N 	0.13320 0.65840 0.41609 -0.20400
N 	N 	0.37350 0.33660 0.08349 -0.20200
N 	N 	0.25520 0.39260 0.09877 -0.20900
N 	N 	0.39070 0.40990 0.73208 -0.23600
N 	N 	0.10320 0.57040 0.77197 -0.23600
N 	N 	0.24780 0.39650 0.59898 -0.20900
N 	N 	0.13320 0.34160 0.58391 -0.20400
N 	N 	0.37350 0.66340 0.91651 -0.20200
N 	N 	0.25520 0.60740 0.90123 -0.20900
N 	N 	0.60930 0.90990 0.76792 -0.23600
N 	N 	0.89680 0.07040 0.72803 -0.23600
N 	N 	0.75220 0.89650 0.90102 -0.20900
N 	N 	0.86680 0.84160 0.91609 -0.20400
N 	N 	0.62650 0.16340 0.58349 -0.20200
N 	N 	0.74480 0.10740 0.59877 -0.20900
N 	N 	0.60930 0.09010 0.23208 -0.23600
N 	N 	0.89680 0.92960 0.27197 -0.23600
N 	N 	0.75220 0.10350 0.09898 -0.20900
N 	N 	0.86680 0.15840 0.08391 -0.20400
N 	N 	0.62650 0.83660 0.41651 -0.20200
N 	N 	0.74480 0.89260 0.40123 -0.20900
O 	O 	0.50180 0.68290 0.34531 -0.39300
O 	O 	0.15700 0.51300 0.30488 -0.33500
O 	O 	0.34280 0.49680 0.19227 -0.32500
O 	O 	0.00190 0.31760 0.15277 -0.38900
O 	O 	0.79220 0.29600 0.18490 -0.34400
O 	O 	0.70540 0.71670 0.31043 -0.35100
O 	O 	0.50180 0.31710 0.65469 -0.39300
O 	O 	0.15700 0.48700 0.69512 -0.33500
O 	O 	0.34280 0.50320 0.80773 -0.32500
O 	O 	0.00190 0.68240 0.84723 -0.38900
O 	O 	0.79220 0.70400 0.81510 -0.34400
O 	O 	0.70540 0.28330 0.68957 -0.35100
O 	O 	0.49820 0.81710 0.84531 -0.39400
O 	O 	0.84300 0.98700 0.80488 -0.33600
O 	O 	0.65720 0.00320 0.69227 -0.32400
O 	O 	0.99810 0.18240 0.65277 -0.38900
O 	O 	0.20780 0.20400 0.68490 -0.34400
O 	O 	0.29460 0.78330 0.81043 -0.35100
O 	O 	0.49820 0.18290 0.15469 -0.39400
O 	O 	0.84300 0.01300 0.19512 -0.33600
O 	O 	0.65720 0.99680 0.30773 -0.32400
O 	O 	0.99810 0.81760 0.34723 -0.38900
O 	O 	0.20780 0.79600 0.31510 -0.34400
O 	O 	0.29460 0.21670 0.18957 -0.35100
