data_crystal

_cell_length_a 19.29300
_cell_length_b 19.29300
_cell_length_c 20.83800
_cell_angle_alpha 90.00000
_cell_angle_beta  90.00000
_cell_angle_gamma 120.00000

_symmetry_space_group_name_	'P 1'
_symmetry_space_group_name_H-M	'P 1'

loop_
_symmetry_equiv_pos_as_xyz
  x,y,z

loop_
_atom_site_label
_atom_site_type_symbol
_atom_site_fract_x
_atom_site_fract_y
_atom_site_fract_z
_atom_site_charge
Zn	Zn	0.43569 0.72284 0.87987 1.23500
Zn	Zn	0.36887 0.64659 0.04281 1.19300
Zn	Zn	0.28715 0.56431 0.21320 1.23300
Zn	Zn	0.27772 0.63113 0.37614 1.19500
Zn	Zn	0.27716 0.71285 0.54654 1.23300
Zn	Zn	0.35341 0.72228 0.70948 1.19500
Zn	Zn	0.56431 0.27716 0.37987 1.23300
Zn	Zn	0.63113 0.35341 0.54281 1.19500
Zn	Zn	0.71285 0.43569 0.71320 1.23300
Zn	Zn	0.72228 0.36887 0.87614 1.19500
Zn	Zn	0.72284 0.28715 0.04654 1.23000
Zn	Zn	0.64659 0.27772 0.20948 1.19400
H 	H 	0.94450 0.35110 0.85180 0.02200
H 	H 	0.93010 0.15730 0.99380 0.08900
H 	H 	0.03870 0.30980 0.84550 0.08300
H 	H 	0.83720 0.20080 0.00090 0.00000
H 	H 	0.21450 0.48980 0.97690 0.00500
H 	H 	0.12770 0.35120 0.98000 0.08500
H 	H 	0.25350 0.32360 0.83550 0.07400
H 	H 	0.34010 0.46170 0.83320 0.02300
H 	H 	0.19570 0.73530 0.78550 0.00500
H 	H 	0.11250 0.78990 0.79510 0.08300
H 	H 	0.25720 0.93920 0.93400 0.07800
H 	H 	0.33960 0.88430 0.92460 0.02100
H 	H 	0.82300 0.67350 0.77680 0.01900
H 	H 	0.91670 0.80620 0.79940 0.08000
H 	H 	0.02900 0.73160 0.92160 0.08400
H 	H 	0.93390 0.59910 0.89900 0.02700
H 	H 	0.40660 0.05550 0.18513 0.02600
H 	H 	0.22720 0.06990 0.32713 0.07600
H 	H 	0.27110 0.96130 0.17883 0.07800
H 	H 	0.36360 0.16280 0.33423 0.02700
H 	H 	0.27530 0.78550 0.31023 0.00100
H 	H 	0.22350 0.87230 0.31333 0.08300
H 	H 	0.07010 0.74650 0.16883 0.07400
H 	H 	0.12160 0.65990 0.16653 0.02000
H 	H 	0.53960 0.80430 0.11883 0.00300
H 	H 	0.67740 0.88750 0.12843 0.08200
H 	H 	0.68200 0.74280 0.26733 0.07400
H 	H 	0.54470 0.66040 0.25793 0.01800
H 	H 	0.85050 0.17700 0.11013 0.01700
H 	H 	0.88950 0.08330 0.13273 0.07800
H 	H 	0.70260 0.97100 0.25493 0.08200
H 	H 	0.66520 0.06610 0.23233 0.02400
H 	H 	0.64890 0.59340 0.51847 0.02700
H 	H 	0.84270 0.77280 0.66047 0.07600
H 	H 	0.69020 0.72890 0.51217 0.07800
H 	H 	0.79920 0.63640 0.66757 0.02700
H 	H 	0.51020 0.72470 0.64357 0.00100
H 	H 	0.64880 0.77650 0.64667 0.08300
H 	H 	0.67640 0.92990 0.50217 0.07400
H 	H 	0.53830 0.87840 0.49987 0.02200
H 	H 	0.26470 0.46040 0.45217 0.00500
H 	H 	0.21010 0.32260 0.46177 0.08300
H 	H 	0.06080 0.31800 0.60067 0.07400
H 	H 	0.11570 0.45530 0.59127 0.01900
H 	H 	0.32650 0.14950 0.44347 0.01900
H 	H 	0.19380 0.11050 0.46607 0.08000
H 	H 	0.26840 0.29740 0.58827 0.08200
H 	H 	0.40090 0.33480 0.56567 0.02500
H 	H 	0.05550 0.64890 0.35180 0.02700
H 	H 	0.06990 0.84270 0.49380 0.07500
H 	H 	0.96130 0.69020 0.34550 0.07800
H 	H 	0.16280 0.79920 0.50090 0.02700
H 	H 	0.78550 0.51020 0.47690 0.00100
H 	H 	0.87230 0.64880 0.48000 0.08300
H 	H 	0.74650 0.67640 0.33550 0.07400
H 	H 	0.65990 0.53830 0.33320 0.02100
H 	H 	0.80430 0.26470 0.28550 0.00500
H 	H 	0.88750 0.21010 0.29510 0.08300
H 	H 	0.74280 0.06080 0.43400 0.07400
H 	H 	0.66040 0.11570 0.42460 0.01900
H 	H 	0.17700 0.32650 0.27680 0.01900
H 	H 	0.08330 0.19380 0.29940 0.08000
H 	H 	0.97100 0.26840 0.42160 0.08200
H 	H 	0.06610 0.40090 0.39900 0.02500
H 	H 	0.59340 0.94450 0.68513 0.02700
H 	H 	0.77280 0.93010 0.82713 0.07600
H 	H 	0.72890 0.03870 0.67883 0.07900
H 	H 	0.63640 0.83720 0.83423 0.02800
H 	H 	0.72470 0.21450 0.81023 0.00200
H 	H 	0.77650 0.12770 0.81333 0.08300
H 	H 	0.92990 0.25350 0.66883 0.07400
H 	H 	0.87840 0.34010 0.66653 0.02200
H 	H 	0.46040 0.19570 0.61883 0.00500
H 	H 	0.32260 0.11250 0.62843 0.08300
H 	H 	0.31800 0.25720 0.76733 0.07500
H 	H 	0.45530 0.33960 0.75793 0.01900
H 	H 	0.14950 0.82300 0.61013 0.01900
H 	H 	0.11050 0.91670 0.63273 0.08000
H 	H 	0.29740 0.02900 0.75493 0.08300
H 	H 	0.33480 0.93390 0.73233 0.02500
H 	H 	0.35110 0.40660 0.01847 0.02300
H 	H 	0.15730 0.22720 0.16047 0.07600
H 	H 	0.30980 0.27110 0.01217 0.07500
H 	H 	0.20080 0.36360 0.16757 0.02600
H 	H 	0.48980 0.27530 0.14357 0.00500
H 	H 	0.35120 0.22350 0.14667 0.07800
H 	H 	0.32360 0.07010 0.00217 0.06100
H 	H 	0.46170 0.12160 0.99987 0.04800
H 	H 	0.73530 0.53960 0.95217 0.00400
H 	H 	0.78990 0.67740 0.96177 0.08100
H 	H 	0.93920 0.68200 0.10067 0.07200
H 	H 	0.88430 0.54470 0.09127 0.01800
H 	H 	0.67350 0.85050 0.94347 0.00900
H 	H 	0.80620 0.88950 0.96607 0.08300
H 	H 	0.73160 0.70260 0.08827 0.08500
H 	H 	0.59910 0.66520 0.06567 0.01600
C 	C 	0.08810 0.08570 0.90433 -0.00200
C 	C 	0.08700 0.01700 0.89686 -0.00200
C 	C 	0.04820 0.19640 0.91328 -0.03000
C 	C 	0.12840 0.23580 0.90953 -0.02300
C 	C 	0.12250 0.90420 0.87460 -0.02500
C 	C 	0.04230 0.86740 0.87424 -0.02800
C 	C 	0.87990 0.27750 0.92562 -0.15300
C 	C 	0.94130 0.31120 0.88031 0.07600
C 	C 	0.93300 0.19660 0.96483 -0.15200
C 	C 	0.99320 0.22890 0.91878 0.09300
C 	C 	0.99730 0.28700 0.87672 -0.14200
C 	C 	0.87733 0.22191 0.96859 0.10000
C 	C 	0.81477 0.29873 0.92801 0.39300
C 	C 	0.28502 0.48866 0.90490 -0.14200
C 	C 	0.22234 0.45596 0.94839 0.07100
C 	C 	0.17090 0.37360 0.95030 -0.13000
C 	C 	0.18270 0.32360 0.90835 0.08100
C 	C 	0.24570 0.35710 0.86443 -0.13000
C 	C 	0.29690 0.43910 0.86288 0.05900
C 	C 	0.34110 0.57630 0.90207 0.36000
C 	C 	0.27560 0.80350 0.85422 -0.14700
C 	C 	0.20800 0.77650 0.81602 0.07300
C 	C 	0.15830 0.80880 0.82181 -0.13700
C 	C 	0.17500 0.86900 0.86658 0.08300
C 	C 	0.24400 0.89710 0.90413 -0.13300
C 	C 	0.29330 0.86480 0.89835 0.06400
C 	C 	0.32800 0.76740 0.84909 0.37900
C 	C 	0.86950 0.62320 0.83543 -0.14700
C 	C 	0.86510 0.68530 0.80621 0.06900
C 	C 	0.92110 0.76430 0.81918 -0.14000
C 	C 	0.98330 0.78170 0.86108 0.08800
C 	C 	0.98750 0.72000 0.89167 -0.13700
C 	C 	0.93070 0.64140 0.87827 0.07100
C 	C 	0.81000 0.53830 0.81970 0.40000
C 	C 	0.99760 0.91190 0.23766 -0.00300
C 	C 	0.93000 0.91300 0.23019 -0.00200
C 	C 	0.14820 0.95180 0.24661 -0.02600
C 	C 	0.10740 0.87160 0.24286 -0.02600
C 	C 	0.78170 0.87750 0.20793 -0.02500
C 	C 	0.82510 0.95770 0.20757 -0.02800
C 	C 	0.39760 0.12010 0.25895 -0.13500
C 	C 	0.36990 0.05870 0.21364 0.06000
C 	C 	0.26360 0.06700 0.29816 -0.12700
C 	C 	0.23570 0.00680 0.25211 0.07800
C 	C 	0.28970 0.00270 0.21005 -0.12800
C 	C 	0.34458 0.12267 0.30192 0.05500
C 	C 	0.48396 0.18523 0.26134 0.38600
C 	C 	0.20364 0.71498 0.23823 -0.14600
C 	C 	0.23362 0.77766 0.28172 0.07100
C 	C 	0.20270 0.82910 0.28363 -0.13400
C 	C 	0.14090 0.81730 0.24168 0.08100
C 	C 	0.11140 0.75430 0.19776 -0.13300
C 	C 	0.14220 0.70310 0.19621 0.05900
C 	C 	0.23520 0.65890 0.23540 0.36000
C 	C 	0.52790 0.72440 0.18755 -0.14900
C 	C 	0.56850 0.79200 0.14935 0.07300
C 	C 	0.65050 0.84170 0.15514 -0.13700
C 	C 	0.69400 0.82500 0.19991 0.08100
C 	C 	0.65310 0.75600 0.23746 -0.13400
C 	C 	0.57150 0.70670 0.23168 0.06300
C 	C 	0.43940 0.67200 0.18242 0.38000
C 	C 	0.75370 0.13050 0.16876 -0.14900
C 	C 	0.82020 0.13490 0.13954 0.06800
C 	C 	0.84320 0.07890 0.15251 -0.14200
C 	C 	0.79840 0.01670 0.19441 0.08700
C 	C 	0.73250 0.01250 0.22500 -0.13900
C 	C 	0.71070 0.06930 0.21160 0.07100
C 	C 	0.72830 0.19000 0.15303 0.40100
C 	C 	0.91430 0.00240 0.57100 -0.00300
C 	C 	0.98300 0.07000 0.56353 -0.00300
C 	C 	0.80360 0.85180 0.57995 -0.02600
C 	C 	0.76420 0.89260 0.57620 -0.02600
C 	C 	0.09580 0.21830 0.54127 -0.02500
C 	C 	0.13260 0.17490 0.54091 -0.02800
C 	C 	0.72250 0.60240 0.59229 -0.13500
C 	C 	0.68880 0.63010 0.54698 0.06000
C 	C 	0.80340 0.73640 0.63150 -0.12700
C 	C 	0.77110 0.76430 0.58545 0.07800
C 	C 	0.71300 0.71030 0.54339 -0.12900
C 	C 	0.77809 0.65542 0.63526 0.05500
C 	C 	0.70127 0.51604 0.59468 0.38600
C 	C 	0.51134 0.79636 0.57157 -0.14500
C 	C 	0.54404 0.76638 0.61506 0.07100
C 	C 	0.62640 0.79730 0.61697 -0.13300
C 	C 	0.67640 0.85910 0.57502 0.08000
C 	C 	0.64290 0.88860 0.53110 -0.13200
C 	C 	0.56090 0.85780 0.52955 0.05900
C 	C 	0.42370 0.76480 0.56874 0.36000
C 	C 	0.19650 0.47210 0.52089 -0.14800
C 	C 	0.22350 0.43150 0.48269 0.07300
C 	C 	0.19120 0.34950 0.48848 -0.13700
C 	C 	0.13100 0.30600 0.53325 0.08100
C 	C 	0.10290 0.34690 0.57080 -0.13300
C 	C 	0.13520 0.42850 0.56502 0.06300
C 	C 	0.23260 0.56060 0.51576 0.37900
C 	C 	0.37680 0.24630 0.50210 -0.14700
C 	C 	0.31470 0.17980 0.47288 0.06900
C 	C 	0.23570 0.15680 0.48585 -0.14100
C 	C 	0.21830 0.20160 0.52775 0.08700
C 	C 	0.28000 0.26750 0.55834 -0.13900
C 	C 	0.35860 0.28930 0.54494 0.07100
C 	C 	0.46170 0.27170 0.48637 0.40100
C 	C 	0.91190 0.91430 0.40433 -0.00300
C 	C 	0.91300 0.98300 0.39686 -0.00300
C 	C 	0.95180 0.80360 0.41328 -0.02500
C 	C 	0.87160 0.76420 0.40953 -0.02600
C 	C 	0.87750 0.09580 0.37460 -0.02500
C 	C 	0.95770 0.13260 0.37424 -0.02800
C 	C 	0.12010 0.72250 0.42562 -0.13500
C 	C 	0.05870 0.68880 0.38031 0.06000
C 	C 	0.06700 0.80340 0.46483 -0.12700
C 	C 	0.00680 0.77110 0.41878 0.07800
C 	C 	0.00270 0.71300 0.37672 -0.12800
C 	C 	0.12267 0.77809 0.46859 0.05400
C 	C 	0.18523 0.70127 0.42801 0.38600
C 	C 	0.71498 0.51134 0.40490 -0.14500
C 	C 	0.77766 0.54404 0.44839 0.07100
C 	C 	0.82910 0.62640 0.45030 -0.13300
C 	C 	0.81730 0.67640 0.40835 0.08000
C 	C 	0.75430 0.64290 0.36443 -0.13200
C 	C 	0.70310 0.56090 0.36288 0.05900
C 	C 	0.65890 0.42370 0.40207 0.36000
C 	C 	0.72440 0.19650 0.35422 -0.14800
C 	C 	0.79200 0.22350 0.31602 0.07300
C 	C 	0.84170 0.19120 0.32181 -0.13700
C 	C 	0.82500 0.13100 0.36658 0.08100
C 	C 	0.75600 0.10290 0.40413 -0.13300
C 	C 	0.70670 0.13520 0.39835 0.06300
C 	C 	0.67200 0.23260 0.34909 0.37900
C 	C 	0.13050 0.37680 0.33543 -0.14700
C 	C 	0.13490 0.31470 0.30621 0.06800
C 	C 	0.07890 0.23570 0.31918 -0.14100
C 	C 	0.01670 0.21830 0.36108 0.08700
C 	C 	0.01250 0.28000 0.39167 -0.13900
C 	C 	0.06930 0.35860 0.37827 0.07100
C 	C 	0.19000 0.46170 0.31970 0.40100
C 	C 	0.00240 0.08810 0.73766 -0.00300
C 	C 	0.07000 0.08700 0.73019 -0.00200
C 	C 	0.85180 0.04820 0.74661 -0.02500
C 	C 	0.89260 0.12840 0.74286 -0.02600
C 	C 	0.21830 0.12250 0.70793 -0.02500
C 	C 	0.17490 0.04230 0.70757 -0.02700
C 	C 	0.60240 0.87990 0.75895 -0.13400
C 	C 	0.63010 0.94130 0.71364 0.06000
C 	C 	0.73640 0.93300 0.79816 -0.12700
C 	C 	0.76430 0.99320 0.75211 0.07800
C 	C 	0.71030 0.99730 0.71005 -0.12900
C 	C 	0.65542 0.87733 0.80192 0.05500
C 	C 	0.51604 0.81477 0.76134 0.38600
C 	C 	0.79636 0.28502 0.73823 -0.14400
C 	C 	0.76638 0.22234 0.78172 0.07100
C 	C 	0.79730 0.17090 0.78363 -0.13300
C 	C 	0.85910 0.18270 0.74168 0.08000
C 	C 	0.88860 0.24570 0.69776 -0.13200
C 	C 	0.85780 0.29690 0.69621 0.05900
C 	C 	0.76480 0.34110 0.73540 0.35900
C 	C 	0.47210 0.27560 0.68755 -0.14800
C 	C 	0.43150 0.20800 0.64935 0.07300
C 	C 	0.34950 0.15830 0.65514 -0.13700
C 	C 	0.30600 0.17500 0.69991 0.08200
C 	C 	0.34690 0.24400 0.73746 -0.13300
C 	C 	0.42850 0.29330 0.73168 0.06300
C 	C 	0.56060 0.32800 0.68242 0.37900
C 	C 	0.24630 0.86950 0.66876 -0.14800
C 	C 	0.17980 0.86510 0.63954 0.06900
C 	C 	0.15680 0.92110 0.65251 -0.14100
C 	C 	0.20160 0.98330 0.69441 0.08700
C 	C 	0.26750 0.98750 0.72500 -0.14000
C 	C 	0.28930 0.93070 0.71160 0.07100
C 	C 	0.27170 0.81000 0.65303 0.40100
C 	C 	0.08570 0.99760 0.07100 -0.00400
C 	C 	0.01700 0.93000 0.06353 -0.00300
C 	C 	0.19640 0.14820 0.07995 -0.02900
C 	C 	0.23580 0.10740 0.07620 -0.02100
C 	C 	0.90420 0.78170 0.04127 -0.02300
C 	C 	0.86740 0.82510 0.04091 -0.03000
C 	C 	0.27750 0.39760 0.09229 -0.13800
C 	C 	0.31120 0.36990 0.04698 0.06000
C 	C 	0.19660 0.26360 0.13150 -0.12900
C 	C 	0.22890 0.23570 0.08545 0.07800
C 	C 	0.28700 0.28970 0.04339 -0.13100
C 	C 	0.22191 0.34458 0.13526 0.05500
C 	C 	0.29873 0.48396 0.09468 0.38500
C 	C 	0.48866 0.20364 0.07157 -0.12700
C 	C 	0.45596 0.23362 0.11506 0.05600
C 	C 	0.37360 0.20270 0.11697 -0.12000
C 	C 	0.32360 0.14090 0.07502 0.06600
C 	C 	0.35710 0.11140 0.03110 -0.10700
C 	C 	0.43910 0.14220 0.02955 0.01500
C 	C 	0.57630 0.23520 0.06874 0.35200
C 	C 	0.80350 0.52790 0.02089 -0.16000
C 	C 	0.77650 0.56850 0.98269 0.08500
C 	C 	0.80880 0.65050 0.98848 -0.11800
C 	C 	0.86900 0.69400 0.03325 0.06300
C 	C 	0.89710 0.65310 0.07080 -0.12900
C 	C 	0.86480 0.57150 0.06502 0.06000
C 	C 	0.76740 0.43940 0.01576 0.36300
C 	C 	0.62320 0.75370 0.00210 -0.19600
C 	C 	0.68530 0.82020 0.97288 0.10400
C 	C 	0.76430 0.84320 0.98585 -0.13800
C 	C 	0.78170 0.79840 0.02775 0.08000
C 	C 	0.72000 0.73250 0.05834 -0.15100
C 	C 	0.64140 0.71070 0.04494 0.09300
C 	C 	0.53830 0.72830 0.98637 0.44500
S 	S 	0.00042 0.09099 0.91411 0.00100
S 	S 	0.17664 0.17868 0.90634 -0.00000
S 	S 	0.17354 0.00849 0.89073 -0.00200
S 	S 	0.99750 0.92454 0.89310 0.00300
S 	S 	0.09057 0.99958 0.24744 -0.00300
S 	S 	0.00204 0.82336 0.23967 -0.00600
S 	S 	0.83495 0.82646 0.22406 -0.00800
S 	S 	0.92704 0.00250 0.22643 -0.00300
S 	S 	0.90901 0.90943 0.58078 -0.00400
S 	S 	0.82132 0.99796 0.57301 -0.00700
S 	S 	0.99151 0.16505 0.55740 -0.00800
S 	S 	0.07546 0.07296 0.55977 -0.00200
S 	S 	0.99958 0.90901 0.41411 -0.00400
S 	S 	0.82336 0.82132 0.40634 -0.00600
S 	S 	0.82646 0.99151 0.39073 -0.00800
S 	S 	0.00250 0.07546 0.39310 -0.00200
S 	S 	0.90943 0.00042 0.74744 -0.00400
S 	S 	0.99796 0.17664 0.73967 -0.00700
S 	S 	0.16505 0.17354 0.72406 -0.00800
S 	S 	0.07296 0.99750 0.72643 -0.00400
S 	S 	0.09099 0.09057 0.08078 -0.00800
S 	S 	0.17868 0.00204 0.07301 -0.01200
S 	S 	0.00849 0.83495 0.05740 -0.01400
S 	S 	0.92454 0.92704 0.05977 -0.00900
O 	O 	0.81767 0.35149 0.89125 -0.44300
O 	O 	0.75846 0.25851 0.96673 -0.47300
O 	O 	0.39328 0.60548 0.85854 -0.43700
O 	O 	0.33547 0.62294 0.94249 -0.52400
O 	O 	0.38503 0.78968 0.88983 -0.46500
O 	O 	0.31534 0.71610 0.80649 -0.49600
O 	O 	0.80755 0.48500 0.85467 -0.46100
O 	O 	0.76654 0.52756 0.77018 -0.48100
O 	O 	0.53382 0.18233 0.22458 -0.44400
O 	O 	0.50005 0.24154 0.30006 -0.47900
O 	O 	0.21220 0.60672 0.19187 -0.44000
O 	O 	0.28747 0.66453 0.27582 -0.52900
O 	O 	0.40465 0.61497 0.22316 -0.46700
O 	O 	0.40076 0.68466 0.13982 -0.49800
O 	O 	0.67745 0.19245 0.18800 -0.46300
O 	O 	0.76102 0.23346 0.10351 -0.48400
O 	O 	0.64851 0.46618 0.55792 -0.44300
O 	O 	0.74149 0.49995 0.63340 -0.47900
O 	O 	0.39452 0.78780 0.52521 -0.43800
O 	O 	0.37706 0.71253 0.60916 -0.52900
O 	O 	0.21032 0.59535 0.55650 -0.46700
O 	O 	0.28390 0.59924 0.47316 -0.49700
O 	O 	0.51500 0.32255 0.52134 -0.46200
O 	O 	0.47244 0.23898 0.43685 -0.48200
O 	O 	0.18233 0.64851 0.39125 -0.44300
O 	O 	0.24154 0.74149 0.46673 -0.47900
O 	O 	0.60672 0.39452 0.35854 -0.43800
O 	O 	0.66453 0.37706 0.44249 -0.52900
O 	O 	0.61497 0.21032 0.38983 -0.46700
O 	O 	0.68466 0.28390 0.30649 -0.49700
O 	O 	0.19245 0.51500 0.35467 -0.46200
O 	O 	0.23346 0.47244 0.27018 -0.48200
O 	O 	0.46618 0.81767 0.72458 -0.44300
O 	O 	0.49995 0.75846 0.80006 -0.47800
O 	O 	0.78780 0.39328 0.69187 -0.43800
O 	O 	0.71253 0.33547 0.77582 -0.52900
O 	O 	0.59535 0.38503 0.72316 -0.46700
O 	O 	0.59924 0.31534 0.63982 -0.49700
O 	O 	0.32255 0.80755 0.68800 -0.46200
O 	O 	0.23898 0.76654 0.60351 -0.48200
O 	O 	0.35149 0.53382 0.05792 -0.44700
O 	O 	0.25851 0.50005 0.13340 -0.48100
O 	O 	0.60548 0.21220 0.02521 -0.44400
O 	O 	0.62294 0.28747 0.10916 -0.52900
O 	O 	0.78968 0.40465 0.05650 -0.46700
O 	O 	0.71610 0.40076 0.97316 -0.48100
O 	O 	0.48500 0.67745 0.02134 -0.48400
O 	O 	0.52756 0.76102 0.93685 -0.48900
