data_crystal

_cell_length_a 20.15470
_cell_length_b 20.15470
_cell_length_c 15.90500
_cell_angle_alpha 90.00000
_cell_angle_beta  90.00000
_cell_angle_gamma 90.00000

_symmetry_space_group_name_	'P 1'
_symmetry_space_group_name_H-M	'P 1'

loop_
_symmetry_equiv_pos_as_xyz
  x,y,z

loop_
_atom_site_label
_atom_site_type_symbol
_atom_site_fract_x
_atom_site_fract_y
_atom_site_fract_z
_atom_site_charge
Y 	Y 	0.29266 0.17302 0.90881 2.35800
Y 	Y 	0.29327 0.81910 0.83083 2.37200
C 	C 	0.27790 0.99810 0.84870 0.16900
H 	H 	0.24620 0.00310 0.80670 -0.06500
C 	C 	0.34720 0.01940 0.94310 -0.14200
C 	C 	0.34360 0.95080 0.93580 -0.09300
C 	C 	0.37810 0.89490 0.97430 0.42300
C 	C 	0.38280 0.06290 0.99960 0.38800
C 	C 	0.16250 0.07800 0.97360 0.10100
H 	H 	0.15770 0.05900 0.92070 -0.05600
C 	C 	0.19670 0.14060 0.07330 -0.07700
C 	C 	0.14710 0.09960 0.10300 -0.09300
C 	C 	0.11860 0.08700 0.18720 0.40900
C 	C 	0.23790 0.19280 0.10890 0.37400
N 	N 	0.29950 0.93690 0.87340 -0.27100
N 	N 	0.30360 0.04850 0.88620 -0.28200
N 	N 	0.20610 0.12550 0.98980 -0.31900
N 	N 	0.12650 0.05990 0.03910 -0.28300
O 	O 	0.36570 0.83830 0.94310 -0.59000
O 	O 	0.41770 0.90090 0.03480 -0.64500
O 	O 	0.41430 0.04240 0.06260 -0.60000
O 	O 	0.37990 0.12480 0.98360 -0.59500
O 	O 	0.08080 0.03670 0.19250 -0.54100
O 	O 	0.13270 0.12500 0.24720 -0.59600
O 	O 	0.22980 0.21670 0.18240 -0.72600
O 	O 	0.28270 0.21650 0.06230 -0.64100
Y 	Y 	0.79266 0.67302 0.40881 2.36000
Y 	Y 	0.79327 0.31910 0.33083 2.37300
C 	C 	0.77790 0.49810 0.34870 0.14000
H 	H 	0.74620 0.50310 0.30670 -0.04700
C 	C 	0.84720 0.51940 0.44310 -0.13100
C 	C 	0.84360 0.45080 0.43580 -0.10100
C 	C 	0.87810 0.39490 0.47430 0.41300
C 	C 	0.88280 0.56290 0.49960 0.40300
C 	C 	0.66250 0.57800 0.47360 0.11800
H 	H 	0.65770 0.55900 0.42070 -0.05700
C 	C 	0.69670 0.64060 0.57330 -0.08500
C 	C 	0.64710 0.59960 0.60300 -0.09100
C 	C 	0.61860 0.58700 0.68720 0.40900
C 	C 	0.73790 0.69280 0.60890 0.37800
N 	N 	0.79950 0.43690 0.37340 -0.26500
N 	N 	0.80360 0.54850 0.38620 -0.27200
N 	N 	0.70610 0.62550 0.48980 -0.31300
N 	N 	0.62650 0.55990 0.53910 -0.29000
O 	O 	0.86570 0.33830 0.44310 -0.58800
O 	O 	0.91770 0.40090 0.53480 -0.63200
O 	O 	0.91430 0.54240 0.56260 -0.61400
O 	O 	0.87990 0.62480 0.48360 -0.59400
O 	O 	0.58080 0.53670 0.69250 -0.54500
O 	O 	0.63270 0.62500 0.74720 -0.59600
O 	O 	0.72980 0.71670 0.68240 -0.72700
O 	O 	0.78270 0.71650 0.56230 -0.64400
Y 	Y 	0.20734 0.82698 0.40881 2.36000
Y 	Y 	0.20673 0.18090 0.33083 2.37300
C 	C 	0.22210 0.00190 0.34870 0.15600
H 	H 	0.25380 0.99690 0.30670 -0.05600
C 	C 	0.15280 0.98060 0.44310 -0.13300
C 	C 	0.15640 0.04920 0.43580 -0.09900
C 	C 	0.12190 0.10510 0.47430 0.41200
C 	C 	0.11720 0.93710 0.49960 0.40300
C 	C 	0.33750 0.92200 0.47360 0.11800
H 	H 	0.34230 0.94100 0.42070 -0.05800
C 	C 	0.30330 0.85940 0.57330 -0.08500
C 	C 	0.35290 0.90040 0.60300 -0.09000
C 	C 	0.38140 0.91300 0.68720 0.40900
C 	C 	0.26210 0.80720 0.60890 0.37800
N 	N 	0.20050 0.06310 0.37340 -0.26700
N 	N 	0.19640 0.95150 0.38620 -0.27600
N 	N 	0.29390 0.87450 0.48980 -0.31300
N 	N 	0.37350 0.94010 0.53910 -0.29000
O 	O 	0.13430 0.16170 0.44310 -0.58800
O 	O 	0.08230 0.09910 0.53480 -0.63100
O 	O 	0.08570 0.95760 0.56260 -0.61300
O 	O 	0.12010 0.87520 0.48360 -0.59400
O 	O 	0.41920 0.96330 0.69250 -0.54200
O 	O 	0.36730 0.87500 0.74720 -0.59500
O 	O 	0.27020 0.78330 0.68240 -0.72700
O 	O 	0.21730 0.78350 0.56230 -0.64400
Y 	Y 	0.70734 0.32698 0.90881 2.35900
Y 	Y 	0.70673 0.68090 0.83083 2.37300
C 	C 	0.72210 0.50190 0.84870 0.14000
H 	H 	0.75380 0.49690 0.80670 -0.04700
C 	C 	0.65280 0.48060 0.94310 -0.13000
C 	C 	0.65640 0.54920 0.93580 -0.10200
C 	C 	0.62190 0.60510 0.97430 0.41600
C 	C 	0.61720 0.43710 0.99960 0.40100
C 	C 	0.83750 0.42200 0.97360 0.11500
H 	H 	0.84230 0.44100 0.92070 -0.05600
C 	C 	0.80330 0.35940 0.07330 -0.08200
C 	C 	0.85290 0.40040 0.10300 -0.09200
C 	C 	0.88140 0.41300 0.18720 0.41000
C 	C 	0.76210 0.30720 0.10890 0.37700
N 	N 	0.70050 0.56310 0.87340 -0.26500
N 	N 	0.69640 0.45150 0.88620 -0.27200
N 	N 	0.79390 0.37450 0.98980 -0.31600
N 	N 	0.87350 0.44010 0.03910 -0.28900
O 	O 	0.63430 0.66170 0.94310 -0.58800
O 	O 	0.58230 0.59910 0.03480 -0.63500
O 	O 	0.58570 0.45760 0.06260 -0.61200
O 	O 	0.62010 0.37520 0.98360 -0.59600
O 	O 	0.91920 0.46330 0.19250 -0.54500
O 	O 	0.86730 0.37500 0.24720 -0.59600
O 	O 	0.77020 0.28330 0.18240 -0.72700
O 	O 	0.71730 0.28350 0.06230 -0.64200
Y 	Y 	0.57698 0.54266 0.15881 2.36000
Y 	Y 	0.93090 0.54327 0.08083 2.37300
C 	C 	0.75190 0.52790 0.09870 0.14000
H 	H 	0.74690 0.49620 0.05670 -0.04700
C 	C 	0.73060 0.59720 0.19310 -0.13100
C 	C 	0.79920 0.59360 0.18580 -0.10200
C 	C 	0.85510 0.62810 0.22430 0.41300
C 	C 	0.68710 0.63280 0.24960 0.40300
C 	C 	0.67200 0.41250 0.22360 0.11800
H 	H 	0.69100 0.40770 0.17070 -0.05700
C 	C 	0.60940 0.44670 0.32330 -0.08500
C 	C 	0.65040 0.39710 0.35300 -0.09100
C 	C 	0.66300 0.36860 0.43720 0.40900
C 	C 	0.55720 0.48790 0.35890 0.37800
N 	N 	0.81310 0.54950 0.12340 -0.26500
N 	N 	0.70150 0.55360 0.13620 -0.27200
N 	N 	0.62450 0.45610 0.23980 -0.31300
N 	N 	0.69010 0.37650 0.28910 -0.29000
O 	O 	0.91170 0.61570 0.19310 -0.58900
O 	O 	0.84910 0.66770 0.28480 -0.63200
O 	O 	0.70760 0.66430 0.31260 -0.61400
O 	O 	0.62520 0.62990 0.23360 -0.59400
O 	O 	0.71330 0.33080 0.44250 -0.54500
O 	O 	0.62500 0.38270 0.49720 -0.59600
O 	O 	0.53330 0.47980 0.43240 -0.72700
O 	O 	0.53350 0.53270 0.31230 -0.64400
Y 	Y 	0.07698 0.04266 0.65881 2.35900
Y 	Y 	0.43090 0.04327 0.58083 2.37300
C 	C 	0.25190 0.02790 0.59870 0.13700
H 	H 	0.24690 0.99620 0.55670 -0.04400
C 	C 	0.23060 0.09720 0.69310 -0.13100
C 	C 	0.29920 0.09360 0.68580 -0.10200
C 	C 	0.35510 0.12810 0.72430 0.41300
C 	C 	0.18710 0.13280 0.74960 0.40300
C 	C 	0.17200 0.91250 0.72360 0.11900
H 	H 	0.19100 0.90770 0.67070 -0.05700
C 	C 	0.10940 0.94670 0.82330 -0.08600
C 	C 	0.15040 0.89710 0.85300 -0.08900
C 	C 	0.16300 0.86860 0.93720 0.40900
C 	C 	0.05720 0.98790 0.85890 0.38900
N 	N 	0.31310 0.04950 0.62340 -0.26500
N 	N 	0.20150 0.05360 0.63620 -0.27200
N 	N 	0.12450 0.95610 0.73980 -0.31100
N 	N 	0.19010 0.87650 0.78910 -0.29000
O 	O 	0.41170 0.11570 0.69310 -0.58900
O 	O 	0.34910 0.16770 0.78480 -0.63200
O 	O 	0.20760 0.16430 0.81260 -0.61500
O 	O 	0.12520 0.12990 0.73360 -0.59500
O 	O 	0.21330 0.83080 0.94250 -0.54300
O 	O 	0.12500 0.88270 0.99720 -0.59200
O 	O 	0.03330 0.97980 0.93240 -0.72600
O 	O 	0.03350 0.03270 0.81230 -0.65500
Y 	Y 	0.92302 0.45734 0.65881 2.36000
Y 	Y 	0.56910 0.45673 0.58083 2.37300
C 	C 	0.74810 0.47210 0.59870 0.14000
H 	H 	0.75310 0.50380 0.55670 -0.04700
C 	C 	0.76940 0.40280 0.69310 -0.13100
C 	C 	0.70080 0.40640 0.68580 -0.10100
C 	C 	0.64490 0.37190 0.72430 0.41300
C 	C 	0.81290 0.36720 0.74960 0.40300
C 	C 	0.82800 0.58750 0.72360 0.11800
H 	H 	0.80900 0.59230 0.67070 -0.05700
C 	C 	0.89060 0.55330 0.82330 -0.08500
C 	C 	0.84960 0.60290 0.85300 -0.09100
C 	C 	0.83700 0.63140 0.93720 0.40900
C 	C 	0.94280 0.51210 0.85890 0.37800
N 	N 	0.68690 0.45050 0.62340 -0.26500
N 	N 	0.79850 0.44640 0.63620 -0.27200
N 	N 	0.87550 0.54390 0.73980 -0.31300
N 	N 	0.80990 0.62350 0.78910 -0.29000
O 	O 	0.58830 0.38430 0.69310 -0.58800
O 	O 	0.65090 0.33230 0.78480 -0.63200
O 	O 	0.79240 0.33570 0.81260 -0.61500
O 	O 	0.87480 0.37010 0.73360 -0.59400
O 	O 	0.78670 0.66920 0.94250 -0.54400
O 	O 	0.87500 0.61730 0.99720 -0.59500
O 	O 	0.96670 0.52020 0.93240 -0.72700
O 	O 	0.96650 0.46730 0.81230 -0.64500
Y 	Y 	0.42302 0.95734 0.15881 2.35900
Y 	Y 	0.06910 0.95673 0.08083 2.37100
C 	C 	0.24810 0.97210 0.09870 0.11400
H 	H 	0.25310 0.00380 0.05670 -0.02800
C 	C 	0.26940 0.90280 0.19310 -0.13100
C 	C 	0.20080 0.90640 0.18580 -0.10200
C 	C 	0.14490 0.87190 0.22430 0.41200
C 	C 	0.31290 0.86720 0.24960 0.40200
C 	C 	0.32800 0.08750 0.22360 0.11900
H 	H 	0.30900 0.09230 0.17070 -0.05500
C 	C 	0.39060 0.05330 0.32330 -0.08600
C 	C 	0.34960 0.10290 0.35300 -0.09000
C 	C 	0.33700 0.13140 0.43720 0.40900
C 	C 	0.44280 0.01210 0.35890 0.38500
N 	N 	0.18690 0.95050 0.12340 -0.26500
N 	N 	0.29850 0.94640 0.13620 -0.27000
N 	N 	0.37550 0.04390 0.23980 -0.31100
N 	N 	0.30990 0.12350 0.28910 -0.29000
O 	O 	0.08830 0.88430 0.19310 -0.59100
O 	O 	0.15090 0.83230 0.28480 -0.63200
O 	O 	0.29240 0.83570 0.31260 -0.61400
O 	O 	0.37480 0.87010 0.23360 -0.59500
O 	O 	0.28670 0.16920 0.44250 -0.54500
O 	O 	0.37500 0.11730 0.49720 -0.59600
O 	O 	0.46670 0.02020 0.43240 -0.72800
O 	O 	0.46650 0.96730 0.31230 -0.65000
Y 	Y 	0.70734 0.82698 0.09119 2.35900
Y 	Y 	0.70673 0.18090 0.16917 2.37300
C 	C 	0.72210 0.00190 0.15130 0.17000
H 	H 	0.75380 0.99690 0.19330 -0.06400
C 	C 	0.65280 0.98060 0.05690 -0.14100
C 	C 	0.65640 0.04920 0.06420 -0.09200
C 	C 	0.62190 0.10510 0.02570 0.42400
C 	C 	0.61720 0.93710 0.00040 0.38900
C 	C 	0.83750 0.92200 0.02640 0.10200
H 	H 	0.84230 0.94100 0.07930 -0.05500
C 	C 	0.80330 0.85940 0.92670 -0.07600
C 	C 	0.85290 0.90040 0.89700 -0.09200
C 	C 	0.88140 0.91300 0.81280 0.41000
C 	C 	0.76210 0.80720 0.89110 0.37500
N 	N 	0.70050 0.06310 0.12660 -0.27000
N 	N 	0.69640 0.95150 0.11380 -0.28100
N 	N 	0.79390 0.87450 0.01020 -0.31800
N 	N 	0.87350 0.94010 0.96090 -0.28200
O 	O 	0.63430 0.16170 0.05690 -0.58900
O 	O 	0.58230 0.09910 0.96520 -0.64400
O 	O 	0.58570 0.95760 0.93740 -0.60000
O 	O 	0.62010 0.87520 0.01640 -0.59500
O 	O 	0.91920 0.96330 0.80750 -0.54100
O 	O 	0.86730 0.87500 0.75280 -0.59600
O 	O 	0.77020 0.78330 0.81760 -0.72600
O 	O 	0.71730 0.78350 0.93770 -0.64100
Y 	Y 	0.20734 0.32698 0.59119 2.36000
Y 	Y 	0.20673 0.68090 0.66917 2.37300
C 	C 	0.22210 0.50190 0.65130 0.14000
H 	H 	0.25380 0.49690 0.69330 -0.04700
C 	C 	0.15280 0.48060 0.55690 -0.13100
C 	C 	0.15640 0.54920 0.56420 -0.10100
C 	C 	0.12190 0.60510 0.52570 0.41300
C 	C 	0.11720 0.43710 0.50040 0.40300
C 	C 	0.33750 0.42200 0.52640 0.11800
H 	H 	0.34230 0.44100 0.57930 -0.05700
C 	C 	0.30330 0.35940 0.42670 -0.08500
C 	C 	0.35290 0.40040 0.39700 -0.09100
C 	C 	0.38140 0.41300 0.31280 0.40900
C 	C 	0.26210 0.30720 0.39110 0.37800
N 	N 	0.20050 0.56310 0.62660 -0.26500
N 	N 	0.19640 0.45150 0.61380 -0.27200
N 	N 	0.29390 0.37450 0.51020 -0.31300
N 	N 	0.37350 0.44010 0.46090 -0.29000
O 	O 	0.13430 0.66170 0.55690 -0.58800
O 	O 	0.08230 0.59910 0.46520 -0.63200
O 	O 	0.08570 0.45760 0.43740 -0.61400
O 	O 	0.12010 0.37520 0.51640 -0.59400
O 	O 	0.41920 0.46330 0.30750 -0.54500
O 	O 	0.36730 0.37500 0.25280 -0.59600
O 	O 	0.27020 0.28330 0.31760 -0.72700
O 	O 	0.21730 0.28350 0.43770 -0.64400
Y 	Y 	0.79266 0.17302 0.59119 2.36000
Y 	Y 	0.79327 0.81910 0.66917 2.37300
C 	C 	0.77790 0.99810 0.65130 0.15600
H 	H 	0.74620 0.00310 0.69330 -0.05600
C 	C 	0.84720 0.01940 0.55690 -0.13300
C 	C 	0.84360 0.95080 0.56420 -0.09900
C 	C 	0.87810 0.89490 0.52570 0.41200
C 	C 	0.88280 0.06290 0.50040 0.40300
C 	C 	0.66250 0.07800 0.52640 0.11800
H 	H 	0.65770 0.05900 0.57930 -0.05800
C 	C 	0.69670 0.14060 0.42670 -0.08500
C 	C 	0.64710 0.09960 0.39700 -0.09000
C 	C 	0.61860 0.08700 0.31280 0.40900
C 	C 	0.73790 0.19280 0.39110 0.37800
N 	N 	0.79950 0.93690 0.62660 -0.26700
N 	N 	0.80360 0.04850 0.61380 -0.27600
N 	N 	0.70610 0.12550 0.51020 -0.31300
N 	N 	0.62650 0.05990 0.46090 -0.29000
O 	O 	0.86570 0.83830 0.55690 -0.58800
O 	O 	0.91770 0.90090 0.46520 -0.63100
O 	O 	0.91430 0.04240 0.43740 -0.61300
O 	O 	0.87990 0.12480 0.51640 -0.59400
O 	O 	0.58080 0.03670 0.30750 -0.54200
O 	O 	0.63270 0.12500 0.25280 -0.59500
O 	O 	0.72980 0.21670 0.31760 -0.72700
O 	O 	0.78270 0.21650 0.43770 -0.64400
Y 	Y 	0.29266 0.67302 0.09119 2.35900
Y 	Y 	0.29327 0.31910 0.16917 2.37300
C 	C 	0.27790 0.49810 0.15130 0.14000
H 	H 	0.24620 0.50310 0.19330 -0.04700
C 	C 	0.34720 0.51940 0.05690 -0.13000
C 	C 	0.34360 0.45080 0.06420 -0.10200
C 	C 	0.37810 0.39490 0.02570 0.41600
C 	C 	0.38280 0.56290 0.00040 0.40100
C 	C 	0.16250 0.57800 0.02640 0.11500
H 	H 	0.15770 0.55900 0.07930 -0.05600
C 	C 	0.19670 0.64060 0.92670 -0.08200
C 	C 	0.14710 0.59960 0.89700 -0.09200
C 	C 	0.11860 0.58700 0.81280 0.41000
C 	C 	0.23790 0.69280 0.89110 0.37700
N 	N 	0.29950 0.43690 0.12660 -0.26500
N 	N 	0.30360 0.54850 0.11380 -0.27200
N 	N 	0.20610 0.62550 0.01020 -0.31600
N 	N 	0.12650 0.55990 0.96090 -0.28900
O 	O 	0.36570 0.33830 0.05690 -0.58800
O 	O 	0.41770 0.40090 0.96520 -0.63500
O 	O 	0.41430 0.54240 0.93740 -0.61200
O 	O 	0.37990 0.62480 0.01640 -0.59600
O 	O 	0.08080 0.53670 0.80750 -0.54500
O 	O 	0.13270 0.62500 0.75280 -0.59600
O 	O 	0.22980 0.71670 0.81760 -0.72700
O 	O 	0.28270 0.71650 0.93770 -0.64200
Y 	Y 	0.42302 0.45734 0.84119 2.36000
Y 	Y 	0.06910 0.45673 0.91917 2.37300
C 	C 	0.24810 0.47210 0.90130 0.14000
H 	H 	0.25310 0.50380 0.94330 -0.04700
C 	C 	0.26940 0.40280 0.80690 -0.13100
C 	C 	0.20080 0.40640 0.81420 -0.10200
C 	C 	0.14490 0.37190 0.77570 0.41300
C 	C 	0.31290 0.36720 0.75040 0.40300
C 	C 	0.32800 0.58750 0.77640 0.11800
H 	H 	0.30900 0.59230 0.82930 -0.05700
C 	C 	0.39060 0.55330 0.67670 -0.08500
C 	C 	0.34960 0.60290 0.64700 -0.09100
C 	C 	0.33700 0.63140 0.56280 0.40900
C 	C 	0.44280 0.51210 0.64110 0.37800
N 	N 	0.18690 0.45050 0.87660 -0.26500
N 	N 	0.29850 0.44640 0.86380 -0.27200
N 	N 	0.37550 0.54390 0.76020 -0.31300
N 	N 	0.30990 0.62350 0.71090 -0.29000
O 	O 	0.08830 0.38430 0.80690 -0.58900
O 	O 	0.15090 0.33230 0.71520 -0.63200
O 	O 	0.29240 0.33570 0.68740 -0.61400
O 	O 	0.37480 0.37010 0.76640 -0.59400
O 	O 	0.28670 0.66920 0.55750 -0.54500
O 	O 	0.37500 0.61730 0.50280 -0.59600
O 	O 	0.46670 0.52020 0.56760 -0.72700
O 	O 	0.46650 0.46730 0.68770 -0.64400
Y 	Y 	0.92302 0.95734 0.34119 2.35900
Y 	Y 	0.56910 0.95673 0.41917 2.37300
C 	C 	0.74810 0.97210 0.40130 0.13700
H 	H 	0.75310 0.00380 0.44330 -0.04400
C 	C 	0.76940 0.90280 0.30690 -0.13100
C 	C 	0.70080 0.90640 0.31420 -0.10200
C 	C 	0.64490 0.87190 0.27570 0.41300
C 	C 	0.81290 0.86720 0.25040 0.40300
C 	C 	0.82800 0.08750 0.27640 0.11900
H 	H 	0.80900 0.09230 0.32930 -0.05700
C 	C 	0.89060 0.05330 0.17670 -0.08600
C 	C 	0.84960 0.10290 0.14700 -0.08900
C 	C 	0.83700 0.13140 0.06280 0.40900
C 	C 	0.94280 0.01210 0.14110 0.38900
N 	N 	0.68690 0.95050 0.37660 -0.26500
N 	N 	0.79850 0.94640 0.36380 -0.27200
N 	N 	0.87550 0.04390 0.26020 -0.31100
N 	N 	0.80990 0.12350 0.21090 -0.29000
O 	O 	0.58830 0.88430 0.30690 -0.58900
O 	O 	0.65090 0.83230 0.21520 -0.63200
O 	O 	0.79240 0.83570 0.18740 -0.61500
O 	O 	0.87480 0.87010 0.26640 -0.59500
O 	O 	0.78670 0.16920 0.05750 -0.54300
O 	O 	0.87500 0.11730 0.00280 -0.59200
O 	O 	0.96670 0.02020 0.06760 -0.72600
O 	O 	0.96650 0.96730 0.18770 -0.65500
Y 	Y 	0.07698 0.54266 0.34119 2.36000
Y 	Y 	0.43090 0.54327 0.41917 2.37300
C 	C 	0.25190 0.52790 0.40130 0.14000
H 	H 	0.24690 0.49620 0.44330 -0.04700
C 	C 	0.23060 0.59720 0.30690 -0.13100
C 	C 	0.29920 0.59360 0.31420 -0.10100
C 	C 	0.35510 0.62810 0.27570 0.41300
C 	C 	0.18710 0.63280 0.25040 0.40300
C 	C 	0.17200 0.41250 0.27640 0.11800
H 	H 	0.19100 0.40770 0.32930 -0.05700
C 	C 	0.10940 0.44670 0.17670 -0.08500
C 	C 	0.15040 0.39710 0.14700 -0.09100
C 	C 	0.16300 0.36860 0.06280 0.40900
C 	C 	0.05720 0.48790 0.14110 0.37800
N 	N 	0.31310 0.54950 0.37660 -0.26500
N 	N 	0.20150 0.55360 0.36380 -0.27200
N 	N 	0.12450 0.45610 0.26020 -0.31300
N 	N 	0.19010 0.37650 0.21090 -0.29000
O 	O 	0.41170 0.61570 0.30690 -0.58800
O 	O 	0.34910 0.66770 0.21520 -0.63200
O 	O 	0.20760 0.66430 0.18740 -0.61500
O 	O 	0.12520 0.62990 0.26640 -0.59400
O 	O 	0.21330 0.33080 0.05750 -0.54400
O 	O 	0.12500 0.38270 0.00280 -0.59500
O 	O 	0.03330 0.47980 0.06760 -0.72700
O 	O 	0.03350 0.53270 0.18770 -0.64500
Y 	Y 	0.57698 0.04266 0.84119 2.35900
Y 	Y 	0.93090 0.04327 0.91917 2.37100
C 	C 	0.75190 0.02790 0.90130 0.11400
H 	H 	0.74690 0.99620 0.94330 -0.02800
C 	C 	0.73060 0.09720 0.80690 -0.13100
C 	C 	0.79920 0.09360 0.81420 -0.10200
C 	C 	0.85510 0.12810 0.77570 0.41200
C 	C 	0.68710 0.13280 0.75040 0.40200
C 	C 	0.67200 0.91250 0.77640 0.11900
H 	H 	0.69100 0.90770 0.82930 -0.05500
C 	C 	0.60940 0.94670 0.67670 -0.08600
C 	C 	0.65040 0.89710 0.64700 -0.09000
C 	C 	0.66300 0.86860 0.56280 0.40900
C 	C 	0.55720 0.98790 0.64110 0.38500
N 	N 	0.81310 0.04950 0.87660 -0.26500
N 	N 	0.70150 0.05360 0.86380 -0.27000
N 	N 	0.62450 0.95610 0.76020 -0.31100
N 	N 	0.69010 0.87650 0.71090 -0.29000
O 	O 	0.91170 0.11570 0.80690 -0.59100
O 	O 	0.84910 0.16770 0.71520 -0.63200
O 	O 	0.70760 0.16430 0.68740 -0.61400
O 	O 	0.62520 0.12990 0.76640 -0.59500
O 	O 	0.71330 0.83080 0.55750 -0.54500
O 	O 	0.62500 0.88270 0.50280 -0.59600
O 	O 	0.53330 0.97980 0.56760 -0.72800
O 	O 	0.53350 0.03270 0.68770 -0.65000
