data_crystal

_cell_length_a 16.54410
_cell_length_b 16.54410
_cell_length_c 16.54410
_cell_angle_alpha 60.10360
_cell_angle_beta  75.47610
_cell_angle_gamma 104.52400

_symmetry_space_group_name_	'P 1'
_symmetry_space_group_name_H-M	'P 1'

loop_
_symmetry_equiv_pos_as_xyz
  x,y,z

loop_
_atom_site_label
_atom_site_type_symbol
_atom_site_fract_x
_atom_site_fract_y
_atom_site_fract_z
_atom_site_charge
Nd	Nd	0.63902 0.40079 0.61579 1.91000
Nd	Nd	0.98184 0.85283 0.52945 2.07000
Nd	Nd	0.86098 0.24519 0.23823 1.91300
Nd	Nd	0.51816 0.98871 0.12901 2.08600
Nd	Nd	0.98342 0.38421 0.75481 1.90500
Nd	Nd	0.61772 0.47055 0.01129 2.10100
Nd	Nd	0.51658 0.76177 0.59921 1.91000
Nd	Nd	0.88228 0.87099 0.14717 2.08300
Nd	Nd	0.36098 0.59921 0.38421 1.91100
Nd	Nd	0.01816 0.14717 0.47055 2.07100
Nd	Nd	0.13902 0.75481 0.76177 1.91400
Nd	Nd	0.48184 0.01129 0.87099 2.08700
Nd	Nd	0.01658 0.61579 0.24519 1.90600
Nd	Nd	0.38228 0.52945 0.98871 2.10200
Nd	Nd	0.48342 0.23823 0.40079 1.91100
Nd	Nd	0.11772 0.12901 0.85283 2.08400
H 	H 	0.76050 0.67850 0.55060 -0.05900
H 	H 	0.61550 0.51420 0.76190 -0.07000
H 	H 	0.73950 0.18890 0.08200 -0.05700
H 	H 	0.88450 0.12260 0.10130 -0.06600
H 	H 	0.77090 0.44940 0.81110 -0.05900
H 	H 	0.72390 0.23810 0.87740 -0.06900
H 	H 	0.72910 0.91800 0.32150 -0.06200
H 	H 	0.77610 0.89870 0.48580 -0.07200
H 	H 	0.23950 0.32150 0.44940 -0.05900
H 	H 	0.38450 0.48580 0.23810 -0.07000
H 	H 	0.26050 0.81110 0.91800 -0.05700
H 	H 	0.11550 0.87740 0.89870 -0.06600
H 	H 	0.22910 0.55060 0.18890 -0.05900
H 	H 	0.27610 0.76190 0.12260 -0.06900
H 	H 	0.27090 0.08200 0.67850 -0.06200
H 	H 	0.22390 0.10130 0.51420 -0.07200
C 	C 	0.79630 0.64290 0.56580 0.14900
C 	C 	0.84470 0.52430 0.60400 -0.10600
C 	C 	0.90810 0.60770 0.59300 -0.07300
C 	C 	0.99680 0.63220 0.59980 0.40200
C 	C 	0.83850 0.42260 0.63050 0.43700
C 	C 	0.59960 0.44430 0.81010 0.16000
C 	C 	0.56740 0.28270 0.87770 -0.08600
C 	C 	0.55750 0.30000 0.95470 -0.08100
C 	C 	0.53520 0.23250 0.06590 0.40200
C 	C 	0.55270 0.19620 0.87390 0.39100
C 	C 	0.70370 0.13790 0.15340 0.15000
C 	C 	0.65530 0.05130 0.32040 -0.09800
C 	C 	0.59190 0.99890 0.30040 -0.08800
C 	C 	0.50320 0.90340 0.36460 0.41800
C 	C 	0.66150 0.03100 0.41590 0.43900
C 	C 	0.90040 0.09030 0.15530 0.16200
C 	C 	0.93260 0.05490 0.28470 -0.06500
C 	C 	0.94250 0.98780 0.25750 -0.10200
C 	C 	0.96480 0.89890 0.30270 0.40400
C 	C 	0.94730 0.07340 0.35650 0.38600
C 	C 	0.79130 0.43420 0.86210 0.14800
C 	C 	0.87170 0.39600 0.94870 -0.11000
C 	C 	0.79930 0.40700 0.00110 -0.06700
C 	C 	0.76800 0.40020 0.09660 0.41200
C 	C 	0.94690 0.36950 0.96900 0.42300
C 	C 	0.74560 0.18990 0.90970 0.15800
C 	C 	0.83960 0.12230 0.94510 -0.10300
C 	C 	0.74530 0.04530 0.01220 -0.04600
C 	C 	0.70160 0.93410 0.10110 0.37900
C 	C 	0.92990 0.12610 0.92660 0.39800
C 	C 	0.70870 0.84660 0.35710 0.14900
C 	C 	0.62830 0.67960 0.47570 -0.10400
C 	C 	0.70070 0.69960 0.39230 -0.07700
C 	C 	0.73200 0.63540 0.36780 0.41500
C 	C 	0.55310 0.58410 0.57740 0.43700
C 	C 	0.75440 0.84470 0.55570 0.15900
C 	C 	0.66040 0.71530 0.71730 -0.08700
C 	C 	0.75470 0.74250 0.70000 -0.07700
C 	C 	0.79840 0.69730 0.76750 0.39800
C 	C 	0.57010 0.64350 0.80380 0.39200
C 	C 	0.20370 0.35710 0.43420 0.14900
C 	C 	0.15530 0.47570 0.39600 -0.10600
C 	C 	0.09190 0.39230 0.40700 -0.07300
C 	C 	0.00320 0.36780 0.40020 0.40200
C 	C 	0.16150 0.57740 0.36950 0.43700
C 	C 	0.40040 0.55570 0.18990 0.16000
C 	C 	0.43260 0.71730 0.12230 -0.08600
C 	C 	0.44250 0.70000 0.04530 -0.08100
C 	C 	0.46480 0.76750 0.93410 0.40200
C 	C 	0.44730 0.80380 0.12610 0.39100
C 	C 	0.29630 0.86210 0.84660 0.15000
C 	C 	0.34470 0.94870 0.67960 -0.09800
C 	C 	0.40810 0.00110 0.69960 -0.08800
C 	C 	0.49680 0.09660 0.63540 0.41800
C 	C 	0.33850 0.96900 0.58410 0.43900
C 	C 	0.09960 0.90970 0.84470 0.16200
C 	C 	0.06740 0.94510 0.71530 -0.06500
C 	C 	0.05750 0.01220 0.74250 -0.10200
C 	C 	0.03520 0.10110 0.69730 0.40400
C 	C 	0.05270 0.92660 0.64350 0.38600
C 	C 	0.20870 0.56580 0.13790 0.14800
C 	C 	0.12830 0.60400 0.05130 -0.11000
C 	C 	0.20070 0.59300 0.99890 -0.06700
C 	C 	0.23200 0.59980 0.90340 0.41200
C 	C 	0.05310 0.63050 0.03100 0.42300
C 	C 	0.25440 0.81010 0.09030 0.15800
C 	C 	0.16040 0.87770 0.05490 -0.10300
C 	C 	0.25470 0.95470 0.98780 -0.04600
C 	C 	0.29840 0.06590 0.89890 0.37900
C 	C 	0.07010 0.87390 0.07340 0.39800
C 	C 	0.29130 0.15340 0.64290 0.14900
C 	C 	0.37170 0.32040 0.52430 -0.10400
C 	C 	0.29930 0.30040 0.60770 -0.07700
C 	C 	0.26800 0.36460 0.63220 0.41500
C 	C 	0.44690 0.41590 0.42260 0.43700
C 	C 	0.24560 0.15530 0.44430 0.15900
C 	C 	0.33960 0.28470 0.28270 -0.08700
C 	C 	0.24530 0.25750 0.30000 -0.07700
C 	C 	0.20160 0.30270 0.23250 0.39800
C 	C 	0.42990 0.35650 0.19620 0.39200
N 	N 	0.87540 0.67980 0.56940 -0.24200
N 	N 	0.77370 0.54890 0.58640 -0.24200
N 	N 	0.59660 0.37990 0.78370 -0.25700
N 	N 	0.57840 0.40270 0.90910 -0.26800
N 	N 	0.62460 0.05520 0.19560 -0.23700
N 	N 	0.72630 0.13990 0.22480 -0.24300
N 	N 	0.90340 0.11970 0.21670 -0.25800
N 	N 	0.92160 0.01250 0.17570 -0.25300
N 	N 	0.75080 0.43060 0.94480 -0.24700
N 	N 	0.86470 0.41360 0.86010 -0.24200
N 	N 	0.83640 0.21630 0.88030 -0.25400
N 	N 	0.68820 0.09090 0.98750 -0.27500
N 	N 	0.74920 0.80440 0.32020 -0.24300
N 	N 	0.63530 0.77520 0.45110 -0.24300
N 	N 	0.66360 0.78330 0.62010 -0.25700
N 	N 	0.81180 0.82430 0.59730 -0.26700
N 	N 	0.12460 0.32020 0.43060 -0.24200
N 	N 	0.22630 0.45110 0.41360 -0.24200
N 	N 	0.40340 0.62010 0.21630 -0.25700
N 	N 	0.42160 0.59730 0.09090 -0.26800
N 	N 	0.37540 0.94480 0.80440 -0.23700
N 	N 	0.27370 0.86010 0.77520 -0.24300
N 	N 	0.09660 0.88030 0.78330 -0.25800
N 	N 	0.07840 0.98750 0.82430 -0.25300
N 	N 	0.24920 0.56940 0.05520 -0.24700
N 	N 	0.13530 0.58640 0.13990 -0.24200
N 	N 	0.16360 0.78370 0.11970 -0.25400
N 	N 	0.31180 0.90910 0.01250 -0.27500
N 	N 	0.25080 0.19560 0.67980 -0.24300
N 	N 	0.36470 0.22480 0.54890 -0.24300
N 	N 	0.33640 0.21670 0.37990 -0.25700
N 	N 	0.18820 0.17570 0.40270 -0.26700
O 	O 	0.04230 0.72520 0.56670 -0.53800
O 	O 	0.02730 0.56560 0.63330 -0.55500
O 	O 	0.89250 0.38980 0.66350 -0.54400
O 	O 	0.77180 0.37010 0.62830 -0.54600
O 	O 	0.54680 0.28030 0.10670 -0.50600
O 	O 	0.50380 0.13440 0.11480 -0.54000
O 	O 	0.51610 0.10140 0.95690 -0.63600
O 	O 	0.57320 0.21200 0.78660 -0.58500
O 	O 	0.45770 0.89100 0.31710 -0.54900
O 	O 	0.47270 0.83940 0.46170 -0.56300
O 	O 	0.60750 0.94400 0.50270 -0.54800
O 	O 	0.72820 0.09990 0.40170 -0.54700
O 	O 	0.95320 0.84650 0.26650 -0.50700
O 	O 	0.99620 0.88140 0.36940 -0.54500
O 	O 	0.98390 0.02700 0.41470 -0.62300
O 	O 	0.92680 0.14020 0.36120 -0.57900
O 	O 	0.70810 0.43330 0.10900 -0.54900
O 	O 	0.80110 0.36670 0.16060 -0.56100
O 	O 	0.94670 0.33650 0.05600 -0.53500
O 	O 	0.00160 0.37170 0.90010 -0.54000
O 	O 	0.61300 0.89330 0.15350 -0.50100
O 	O 	0.75080 0.88520 0.11860 -0.53900
O 	O 	0.94170 0.04310 0.97300 -0.63700
O 	O 	0.00140 0.21340 0.85980 -0.58700
O 	O 	0.79190 0.68290 0.27480 -0.54800
O 	O 	0.69890 0.53830 0.43440 -0.56200
O 	O 	0.55330 0.49730 0.61020 -0.54500
O 	O 	0.49840 0.59830 0.62990 -0.54700
O 	O 	0.88700 0.73350 0.71970 -0.50700
O 	O 	0.74920 0.63060 0.86560 -0.54500
O 	O 	0.55830 0.58530 0.89860 -0.63800
O 	O 	0.49860 0.63880 0.78800 -0.58600
O 	O 	0.95770 0.27480 0.43330 -0.53800
O 	O 	0.97270 0.43440 0.36670 -0.55500
O 	O 	0.10750 0.61020 0.33650 -0.54400
O 	O 	0.22820 0.62990 0.37170 -0.54600
O 	O 	0.45320 0.71970 0.89330 -0.50600
O 	O 	0.49620 0.86560 0.88520 -0.54000
O 	O 	0.48390 0.89860 0.04310 -0.63600
O 	O 	0.42680 0.78800 0.21340 -0.58500
O 	O 	0.54230 0.10900 0.68290 -0.54900
O 	O 	0.52730 0.16060 0.53830 -0.56300
O 	O 	0.39250 0.05600 0.49730 -0.54800
O 	O 	0.27180 0.90010 0.59830 -0.54700
O 	O 	0.04680 0.15350 0.73350 -0.50700
O 	O 	0.00380 0.11860 0.63060 -0.54500
O 	O 	0.01610 0.97300 0.58530 -0.62300
O 	O 	0.07320 0.85980 0.63880 -0.57900
O 	O 	0.29190 0.56670 0.89100 -0.54900
O 	O 	0.19890 0.63330 0.83940 -0.56100
O 	O 	0.05330 0.66350 0.94400 -0.53500
O 	O 	0.99840 0.62830 0.09990 -0.54000
O 	O 	0.38700 0.10670 0.84650 -0.50100
O 	O 	0.24920 0.11480 0.88140 -0.53900
O 	O 	0.05830 0.95690 0.02700 -0.63700
O 	O 	0.99860 0.78660 0.14020 -0.58700
O 	O 	0.20810 0.31710 0.72520 -0.54800
O 	O 	0.30110 0.46170 0.56560 -0.56200
O 	O 	0.44670 0.50270 0.38980 -0.54500
O 	O 	0.50160 0.40170 0.37010 -0.54700
O 	O 	0.11300 0.26650 0.28030 -0.50700
O 	O 	0.25080 0.36940 0.13440 -0.54500
O 	O 	0.44170 0.41470 0.10140 -0.63800
O 	O 	0.50140 0.36120 0.21200 -0.58600
