data_crystal

_cell_length_a 15.87300
_cell_length_b 16.30620
_cell_length_c 16.30620
_cell_angle_alpha 76.29670
_cell_angle_beta  60.87500
_cell_angle_gamma 60.87500

_symmetry_space_group_name_	'P 1'
_symmetry_space_group_name_H-M	'P 1'

loop_
_symmetry_equiv_pos_as_xyz
  x,y,z

loop_
_atom_site_label
_atom_site_type_symbol
_atom_site_fract_x
_atom_site_fract_y
_atom_site_fract_z
_atom_site_charge
Er	Er	0.73569 0.46531 0.88016 1.51200
Er	Er	0.01111 0.11265 0.52625 1.59200
Er	Er	0.58115 0.03469 0.61984 1.50900
Er	Er	0.15001 0.38735 0.97375 1.59700
Er	Er	0.61584 0.11984 0.96532 1.50000
Er	Er	0.53736 0.47375 0.61265 1.62300
Er	Er	0.20100 0.38016 0.53468 1.51100
Er	Er	0.12376 0.02625 0.88735 1.57100
Er	Er	0.26431 0.53469 0.11984 1.51300
Er	Er	0.98889 0.88735 0.47375 1.59300
Er	Er	0.41885 0.96531 0.38016 1.50900
Er	Er	0.84999 0.61265 0.02625 1.59700
Er	Er	0.38416 0.88016 0.03468 1.50000
Er	Er	0.46264 0.52625 0.38735 1.62300
Er	Er	0.79900 0.61984 0.46532 1.51100
Er	Er	0.87624 0.97375 0.11265 1.57100
H 	H 	0.80450 0.24590 0.75610 -0.03800
H 	H 	0.85910 0.21660 0.90360 -0.04800
H 	H 	0.30650 0.25410 0.74390 -0.03900
H 	H 	0.47930 0.28340 0.59640 -0.04900
H 	H 	0.56060 0.24390 0.74590 -0.03900
H 	H 	0.76270 0.09640 0.71660 -0.04800
H 	H 	0.05040 0.25610 0.75410 -0.04300
H 	H 	0.07570 0.40360 0.78340 -0.05200
H 	H 	0.19550 0.75410 0.24390 -0.03800
H 	H 	0.14090 0.78340 0.09640 -0.04800
H 	H 	0.69350 0.74590 0.25610 -0.03900
H 	H 	0.52070 0.71660 0.40360 -0.04900
H 	H 	0.43940 0.75610 0.25410 -0.03900
H 	H 	0.23730 0.90360 0.28340 -0.04800
H 	H 	0.94960 0.74390 0.24590 -0.04300
H 	H 	0.92430 0.59640 0.21660 -0.05200
C 	C 	0.85080 0.27340 0.71960 0.14100
C 	C 	0.92390 0.36690 0.67290 -0.08200
C 	C 	0.98340 0.29560 0.60720 -0.04400
C 	C 	0.07780 0.27460 0.51700 0.35700
C 	C 	0.93610 0.44770 0.68070 0.39700
C 	C 	0.89420 0.24010 0.91670 0.15300
C 	C 	0.93200 0.33750 0.94450 -0.02100
C 	C 	0.00460 0.24590 0.95130 -0.10400
C 	C 	0.10050 0.20620 0.96820 0.40200
C 	C 	0.91510 0.43120 0.95560 0.34200
C 	C 	0.34380 0.22660 0.78040 0.14000
C 	C 	0.46370 0.13310 0.82710 -0.08200
C 	C 	0.38620 0.20440 0.89280 -0.04800
C 	C 	0.36940 0.22540 0.98300 0.34100
C 	C 	0.56450 0.05230 0.81930 0.38500
C 	C 	0.55100 0.25990 0.58330 0.15100
C 	C 	0.71400 0.16250 0.55550 -0.04800
C 	C 	0.70180 0.25410 0.54870 -0.06700
C 	C 	0.77490 0.29380 0.53180 0.39200
C 	C 	0.80190 0.06880 0.54440 0.34900
C 	C 	0.57040 0.28040 0.77340 0.14000
C 	C 	0.59680 0.32710 0.86690 -0.07900
C 	C 	0.59060 0.39280 0.79560 -0.05500
C 	C 	0.59480 0.48300 0.77460 0.36700
C 	C 	0.61680 0.31930 0.94770 0.38400
C 	C 	0.81090 0.08330 0.74010 0.15100
C 	C 	0.87650 0.05550 0.83750 -0.05100
C 	C 	0.95590 0.04870 0.74590 -0.04700
C 	C 	0.06870 0.03180 0.70620 0.37100
C 	C 	0.87070 0.04440 0.93120 0.35200
C 	C 	0.12420 0.21960 0.72660 0.14000
C 	C 	0.29080 0.17290 0.63310 -0.08200
C 	C 	0.27900 0.10720 0.70440 -0.04800
C 	C 	0.35240 0.01700 0.72540 0.34400
C 	C 	0.38380 0.18070 0.55230 0.39000
C 	C 	0.13430 0.41670 0.75990 0.15100
C 	C 	0.26950 0.44450 0.66250 -0.05000
C 	C 	0.25050 0.45130 0.75410 -0.06700
C 	C 	0.30670 0.46820 0.79380 0.39400
C 	C 	0.34630 0.45560 0.56880 0.35100
C 	C 	0.14920 0.72660 0.28040 0.14100
C 	C 	0.07610 0.63310 0.32710 -0.08200
C 	C 	0.01660 0.70440 0.39280 -0.04400
C 	C 	0.92220 0.72540 0.48300 0.35700
C 	C 	0.06390 0.55230 0.31930 0.39700
C 	C 	0.10580 0.75990 0.08330 0.15300
C 	C 	0.06800 0.66250 0.05550 -0.02100
C 	C 	0.99540 0.75410 0.04870 -0.10400
C 	C 	0.89950 0.79380 0.03180 0.40200
C 	C 	0.08490 0.56880 0.04440 0.34200
C 	C 	0.65620 0.77340 0.21960 0.14000
C 	C 	0.53630 0.86690 0.17290 -0.08200
C 	C 	0.61380 0.79560 0.10720 -0.04800
C 	C 	0.63060 0.77460 0.01700 0.34100
C 	C 	0.43550 0.94770 0.18070 0.38500
C 	C 	0.44900 0.74010 0.41670 0.15100
C 	C 	0.28600 0.83750 0.44450 -0.04800
C 	C 	0.29820 0.74590 0.45130 -0.06700
C 	C 	0.22510 0.70620 0.46820 0.39200
C 	C 	0.19810 0.93120 0.45560 0.34900
C 	C 	0.42960 0.71960 0.22660 0.14000
C 	C 	0.40320 0.67290 0.13310 -0.07900
C 	C 	0.40940 0.60720 0.20440 -0.05500
C 	C 	0.40520 0.51700 0.22540 0.36700
C 	C 	0.38320 0.68070 0.05230 0.38400
C 	C 	0.18910 0.91670 0.25990 0.15100
C 	C 	0.12350 0.94450 0.16250 -0.05100
C 	C 	0.04410 0.95130 0.25410 -0.04700
C 	C 	0.93130 0.96820 0.29380 0.37100
C 	C 	0.12930 0.95560 0.06880 0.35200
C 	C 	0.87580 0.78040 0.27340 0.14000
C 	C 	0.70920 0.82710 0.36690 -0.08200
C 	C 	0.72100 0.89280 0.29560 -0.04800
C 	C 	0.64760 0.98300 0.27460 0.34400
C 	C 	0.61620 0.81930 0.44770 0.39000
C 	C 	0.86570 0.58330 0.24010 0.15100
C 	C 	0.73050 0.55550 0.33750 -0.05000
C 	C 	0.74950 0.54870 0.24590 -0.06700
C 	C 	0.69330 0.53180 0.20620 0.39400
C 	C 	0.65370 0.54440 0.43120 0.35100
N 	N 	0.93580 0.23640 0.63820 -0.20900
N 	N 	0.83760 0.35340 0.74440 -0.20500
N 	N 	0.86310 0.33190 0.91990 -0.24000
N 	N 	0.97900 0.18460 0.93340 -0.21200
N 	N 	0.31040 0.26360 0.86180 -0.21200
N 	N 	0.43540 0.14660 0.75560 -0.20600
N 	N 	0.61490 0.16810 0.58010 -0.23700
N 	N 	0.59700 0.31540 0.56660 -0.23200
N 	N 	0.57400 0.36180 0.73640 -0.21200
N 	N 	0.58200 0.25560 0.85340 -0.20600
N 	N 	0.78300 0.08010 0.83190 -0.23600
N 	N 	0.91240 0.06660 0.68460 -0.22900
N 	N 	0.17220 0.13820 0.76360 -0.21200
N 	N 	0.19100 0.24440 0.64660 -0.20600
N 	N 	0.19500 0.41990 0.66810 -0.23800
N 	N 	0.16360 0.43340 0.81540 -0.23200
N 	N 	0.06420 0.76360 0.36180 -0.20900
N 	N 	0.16240 0.64660 0.25560 -0.20500
N 	N 	0.13690 0.66810 0.08010 -0.24000
N 	N 	0.02100 0.81540 0.06660 -0.21200
N 	N 	0.68960 0.73640 0.13820 -0.21200
N 	N 	0.56460 0.85340 0.24440 -0.20600
N 	N 	0.38510 0.83190 0.41990 -0.23700
N 	N 	0.40300 0.68460 0.43340 -0.23200
N 	N 	0.42600 0.63820 0.26360 -0.21200
N 	N 	0.41800 0.74440 0.14660 -0.20600
N 	N 	0.21700 0.91990 0.16810 -0.23600
N 	N 	0.08760 0.93340 0.31540 -0.22900
N 	N 	0.82780 0.86180 0.23640 -0.21200
N 	N 	0.80900 0.75560 0.35340 -0.20600
N 	N 	0.80500 0.58010 0.33190 -0.23800
N 	N 	0.83640 0.56660 0.18460 -0.23200
O 	O 	0.10460 0.20370 0.47170 -0.43000
O 	O 	0.13410 0.31900 0.48280 -0.45800
O 	O 	0.02090 0.45580 0.62760 -0.47500
O 	O 	0.85760 0.50560 0.74560 -0.44700
O 	O 	0.15530 0.11840 0.95620 -0.43400
O 	O 	0.12100 0.25760 0.99440 -0.47900
O 	O 	0.96470 0.44710 0.98790 -0.51700
O 	O 	0.84580 0.49970 0.93310 -0.45000
O 	O 	0.28000 0.29630 0.02830 -0.41600
O 	O 	0.43590 0.18100 0.01720 -0.44400
O 	O 	0.60430 0.04420 0.87240 -0.46800
O 	O 	0.60880 0.99440 0.75440 -0.44000
O 	O 	0.72990 0.38160 0.54380 -0.42700
O 	O 	0.87300 0.24240 0.50560 -0.46600
O 	O 	0.89970 0.05290 0.51210 -0.52200
O 	O 	0.77860 0.00030 0.56690 -0.45000
O 	O 	0.57630 0.52830 0.70370 -0.43300
O 	O 	0.61690 0.51720 0.81900 -0.46000
O 	O 	0.64850 0.37240 0.95580 -0.46900
O 	O 	0.60320 0.25440 0.00560 -0.44100
O 	O 	0.11150 0.04380 0.61840 -0.42400
O 	O 	0.11540 0.00560 0.75760 -0.46900
O 	O 	0.95260 0.01210 0.94710 -0.51400
O 	O 	0.77890 0.06690 0.99970 -0.45100
O 	O 	0.30830 0.97170 0.79630 -0.41100
O 	O 	0.45310 0.98280 0.68100 -0.44800
O 	O 	0.47670 0.12760 0.54420 -0.46900
O 	O 	0.36320 0.24560 0.49440 -0.44500
O 	O 	0.27370 0.45620 0.88160 -0.42800
O 	O 	0.37860 0.49440 0.74240 -0.47200
O 	O 	0.41180 0.48790 0.55290 -0.53200
O 	O 	0.34550 0.43310 0.50030 -0.45700
O 	O 	0.89540 0.79630 0.52830 -0.43000
O 	O 	0.86590 0.68100 0.51720 -0.45800
O 	O 	0.97910 0.54420 0.37240 -0.47500
O 	O 	0.14240 0.49440 0.25440 -0.44700
O 	O 	0.84470 0.88160 0.04380 -0.43400
O 	O 	0.87900 0.74240 0.00560 -0.47900
O 	O 	0.03530 0.55290 0.01210 -0.51700
O 	O 	0.15420 0.50030 0.06690 -0.45000
O 	O 	0.72000 0.70370 0.97170 -0.41600
O 	O 	0.56410 0.81900 0.98280 -0.44400
O 	O 	0.39570 0.95580 0.12760 -0.46800
O 	O 	0.39120 0.00560 0.24560 -0.44000
O 	O 	0.27010 0.61840 0.45620 -0.42700
O 	O 	0.12700 0.75760 0.49440 -0.46600
O 	O 	0.10030 0.94710 0.48790 -0.52200
O 	O 	0.22140 0.99970 0.43310 -0.45000
O 	O 	0.42370 0.47170 0.29630 -0.43300
O 	O 	0.38310 0.48280 0.18100 -0.46000
O 	O 	0.35150 0.62760 0.04420 -0.46900
O 	O 	0.39680 0.74560 0.99440 -0.44100
O 	O 	0.88850 0.95620 0.38160 -0.42400
O 	O 	0.88460 0.99440 0.24240 -0.46900
O 	O 	0.04740 0.98790 0.05290 -0.51400
O 	O 	0.22110 0.93310 0.00030 -0.45100
O 	O 	0.69170 0.02830 0.20370 -0.41100
O 	O 	0.54690 0.01720 0.31900 -0.44800
O 	O 	0.52330 0.87240 0.45580 -0.46900
O 	O 	0.63680 0.75440 0.50560 -0.44500
O 	O 	0.72630 0.54380 0.11840 -0.42800
O 	O 	0.62140 0.50560 0.25760 -0.47200
O 	O 	0.58820 0.51210 0.44710 -0.53200
O 	O 	0.65450 0.56690 0.49970 -0.45700
