data_crystal

_cell_length_a 16.02300
_cell_length_b 16.38330
_cell_length_c 16.38330
_cell_angle_alpha 76.16510
_cell_angle_beta  60.72490
_cell_angle_gamma 60.72480

_symmetry_space_group_name_	'P 1'
_symmetry_space_group_name_H-M	'P 1'

loop_
_symmetry_equiv_pos_as_xyz
  x,y,z

loop_
_atom_site_label
_atom_site_type_symbol
_atom_site_fract_x
_atom_site_fract_y
_atom_site_fract_z
_atom_site_charge
Tb	Tb	0.23673 0.87967 0.46665 1.62100
Tb	Tb	0.51185 0.52469 0.11309 1.75700
Tb	Tb	0.08305 0.62033 0.03335 1.60400
Tb	Tb	0.64963 0.97531 0.38691 1.75300
Tb	Tb	0.70338 0.53335 0.37967 1.62300
Tb	Tb	0.62494 0.88691 0.02469 1.75000
Tb	Tb	0.11640 0.96665 0.12033 1.59600
Tb	Tb	0.03654 0.61309 0.47531 1.75100
Tb	Tb	0.76327 0.12033 0.53335 1.62100
Tb	Tb	0.48815 0.47531 0.88691 1.75700
Tb	Tb	0.91695 0.37967 0.96665 1.60400
Tb	Tb	0.35037 0.02469 0.61309 1.75300
Tb	Tb	0.29662 0.46665 0.62033 1.62300
Tb	Tb	0.37506 0.11309 0.97531 1.75000
Tb	Tb	0.88360 0.03335 0.87967 1.59500
Tb	Tb	0.96346 0.38691 0.52469 1.75000
H 	H 	0.30820 0.75280 0.24600 -0.04400
H 	H 	0.36180 0.90060 0.21900 -0.05800
H 	H 	0.80700 0.74720 0.25400 -0.04400
H 	H 	0.98140 0.59940 0.28100 -0.05400
H 	H 	0.55420 0.75400 0.25280 -0.04400
H 	H 	0.58080 0.78100 0.40060 -0.05800
H 	H 	0.06100 0.74600 0.24720 -0.04500
H 	H 	0.26240 0.71900 0.09940 -0.05800
H 	H 	0.69180 0.24720 0.75400 -0.04400
H 	H 	0.63820 0.09940 0.78100 -0.05800
H 	H 	0.19300 0.25280 0.74600 -0.04400
H 	H 	0.01860 0.40060 0.71900 -0.05400
H 	H 	0.44580 0.24600 0.74720 -0.04400
H 	H 	0.41920 0.21900 0.59940 -0.05800
H 	H 	0.93900 0.25400 0.75280 -0.04500
H 	H 	0.73760 0.28100 0.90060 -0.05800
C 	C 	0.35400 0.71650 0.27370 0.14200
C 	C 	0.42560 0.67170 0.36750 -0.09100
C 	C 	0.48530 0.60640 0.29620 -0.06500
C 	C 	0.57950 0.51630 0.27450 0.39400
C 	C 	0.43720 0.67860 0.44760 0.39400
C 	C 	0.39570 0.91540 0.24180 0.15600
C 	C 	0.43690 0.94300 0.33580 -0.05800
C 	C 	0.50490 0.95110 0.24670 -0.07400
C 	C 	0.60080 0.96740 0.20380 0.40500
C 	C 	0.41570 0.95330 0.43030 0.35800
C 	C 	0.84420 0.78350 0.22630 0.14200
C 	C 	0.96480 0.82830 0.13250 -0.07900
C 	C 	0.88790 0.89360 0.20380 -0.06600
C 	C 	0.87030 0.98370 0.22550 0.39000
C 	C 	0.06340 0.82140 0.05240 0.37200
C 	C 	0.05290 0.58460 0.25820 0.15100
C 	C 	0.21570 0.55700 0.16420 -0.05700
C 	C 	0.20270 0.54890 0.25330 -0.07300
C 	C 	0.27200 0.53260 0.29620 0.40600
C 	C 	0.29930 0.54670 0.06970 0.35900
C 	C 	0.62770 0.72630 0.21650 0.14200
C 	C 	0.79310 0.63250 0.17170 -0.09100
C 	C 	0.78150 0.70380 0.10640 -0.06200
C 	C 	0.85400 0.72550 0.01630 0.38600
C 	C 	0.88480 0.55240 0.17860 0.39300
C 	C 	0.63750 0.75820 0.41540 0.15700
C 	C 	0.77270 0.66420 0.44300 -0.05700
C 	C 	0.75160 0.75330 0.45110 -0.07200
C 	C 	0.80460 0.79620 0.46740 0.40600
C 	C 	0.84600 0.56970 0.45330 0.35900
C 	C 	0.07050 0.77370 0.28350 0.14100
C 	C 	0.09730 0.86750 0.32830 -0.08800
C 	C 	0.09170 0.79620 0.39360 -0.06700
C 	C 	0.09580 0.77450 0.48370 0.39500
C 	C 	0.11580 0.94760 0.32140 0.38000
C 	C 	0.31110 0.74180 0.08460 0.15600
C 	C 	0.37990 0.83580 0.05700 -0.05900
C 	C 	0.45600 0.74670 0.04890 -0.07300
C 	C 	0.56820 0.70380 0.03260 0.40500
C 	C 	0.36900 0.93030 0.04670 0.35900
C 	C 	0.64600 0.28350 0.72630 0.14200
C 	C 	0.57440 0.32830 0.63250 -0.09100
C 	C 	0.51470 0.39360 0.70380 -0.06500
C 	C 	0.42050 0.48370 0.72550 0.39400
C 	C 	0.56280 0.32140 0.55240 0.39400
C 	C 	0.60430 0.08460 0.75820 0.15600
C 	C 	0.56310 0.05700 0.66420 -0.05800
C 	C 	0.49510 0.04890 0.75330 -0.07400
C 	C 	0.39920 0.03260 0.79620 0.40500
C 	C 	0.58430 0.04670 0.56970 0.35800
C 	C 	0.15580 0.21650 0.77370 0.14200
C 	C 	0.03520 0.17170 0.86750 -0.07900
C 	C 	0.11210 0.10640 0.79620 -0.06600
C 	C 	0.12970 0.01630 0.77450 0.39000
C 	C 	0.93660 0.17860 0.94760 0.37200
C 	C 	0.94710 0.41540 0.74180 0.15100
C 	C 	0.78430 0.44300 0.83580 -0.05700
C 	C 	0.79730 0.45110 0.74670 -0.07300
C 	C 	0.72800 0.46740 0.70380 0.40600
C 	C 	0.70070 0.45330 0.93030 0.35900
C 	C 	0.37230 0.27370 0.78350 0.14200
C 	C 	0.20690 0.36750 0.82830 -0.09100
C 	C 	0.21850 0.29620 0.89360 -0.06200
C 	C 	0.14600 0.27450 0.98370 0.38600
C 	C 	0.11520 0.44760 0.82140 0.39300
C 	C 	0.36250 0.24180 0.58460 0.15700
C 	C 	0.22730 0.33580 0.55700 -0.05700
C 	C 	0.24840 0.24670 0.54890 -0.07200
C 	C 	0.19540 0.20380 0.53260 0.40600
C 	C 	0.15400 0.43030 0.54670 0.35900
C 	C 	0.92950 0.22630 0.71650 0.14100
C 	C 	0.90270 0.13250 0.67170 -0.08800
C 	C 	0.90830 0.20380 0.60640 -0.06700
C 	C 	0.90420 0.22550 0.51630 0.39500
C 	C 	0.88420 0.05240 0.67860 0.38000
C 	C 	0.68890 0.25820 0.91540 0.15600
C 	C 	0.62010 0.16420 0.94300 -0.05900
C 	C 	0.54400 0.25330 0.95110 -0.07300
C 	C 	0.43180 0.29620 0.96740 0.40500
C 	C 	0.63100 0.06970 0.95330 0.35900
N 	N 	0.43790 0.63400 0.23720 -0.22600
N 	N 	0.33990 0.74370 0.35270 -0.21500
N 	N 	0.36480 0.92050 0.33150 -0.25000
N 	N 	0.47970 0.93280 0.18540 -0.24300
N 	N 	0.80910 0.86600 0.26280 -0.22600
N 	N 	0.93630 0.75630 0.14730 -0.21500
N 	N 	0.11680 0.57950 0.16850 -0.24800
N 	N 	0.09790 0.56720 0.31460 -0.24200
N 	N 	0.67510 0.76280 0.13400 -0.22700
N 	N 	0.69260 0.64730 0.24370 -0.21500
N 	N 	0.69630 0.66850 0.42050 -0.25000
N 	N 	0.66510 0.81460 0.43280 -0.24300
N 	N 	0.07190 0.73720 0.36600 -0.22600
N 	N 	0.08360 0.85270 0.25630 -0.21600
N 	N 	0.28530 0.83150 0.07950 -0.24900
N 	N 	0.41250 0.68540 0.06720 -0.24300
N 	N 	0.56210 0.36600 0.76280 -0.22600
N 	N 	0.66010 0.25630 0.64730 -0.21500
N 	N 	0.63520 0.07950 0.66850 -0.25000
N 	N 	0.52030 0.06720 0.81460 -0.24300
N 	N 	0.19090 0.13400 0.73720 -0.22600
N 	N 	0.06370 0.24370 0.85270 -0.21500
N 	N 	0.88320 0.42050 0.83150 -0.24800
N 	N 	0.90210 0.43280 0.68540 -0.24200
N 	N 	0.32490 0.23720 0.86600 -0.22700
N 	N 	0.30740 0.35270 0.75630 -0.21500
N 	N 	0.30370 0.33150 0.57950 -0.25000
N 	N 	0.33490 0.18540 0.56720 -0.24300
N 	N 	0.92810 0.26280 0.63400 -0.22600
N 	N 	0.91640 0.14730 0.74370 -0.21600
N 	N 	0.71470 0.16850 0.92050 -0.24900
N 	N 	0.58750 0.31460 0.93280 -0.24300
O 	O 	0.60430 0.47020 0.20720 -0.46500
O 	O 	0.63310 0.48220 0.31960 -0.48800
O 	O 	0.52050 0.62830 0.45510 -0.48900
O 	O 	0.35700 0.74270 0.50810 -0.46300
O 	O 	0.65520 0.95700 0.11760 -0.45600
O 	O 	0.62020 0.99350 0.25610 -0.49000
O 	O 	0.46730 0.98680 0.44520 -0.55400
O 	O 	0.34900 0.93260 0.49800 -0.49700
O 	O 	0.78170 0.02980 0.29280 -0.46200
O 	O 	0.93490 0.01780 0.18040 -0.47800
O 	O 	0.10390 0.87170 0.04490 -0.48500
O 	O 	0.10780 0.75730 0.99190 -0.44700
O 	O 	0.22980 0.54300 0.38240 -0.45600
O 	O 	0.36980 0.50650 0.24390 -0.48900
O 	O 	0.39930 0.51320 0.05480 -0.55300
O 	O 	0.27960 0.56740 0.00200 -0.49700
O 	O 	0.81150 0.79280 0.97020 -0.45600
O 	O 	0.95270 0.68040 0.98220 -0.48200
O 	O 	0.97560 0.54490 0.12830 -0.48500
O 	O 	0.86510 0.49190 0.24270 -0.46200
O 	O 	0.77280 0.88240 0.45700 -0.45400
O 	O 	0.87630 0.74390 0.49350 -0.48700
O 	O 	0.91250 0.55480 0.48680 -0.55300
O 	O 	0.84700 0.50200 0.43260 -0.49600
O 	O 	0.07450 0.70720 0.52980 -0.46600
O 	O 	0.11530 0.81960 0.51780 -0.48800
O 	O 	0.14880 0.95510 0.37170 -0.48700
O 	O 	0.09970 0.00810 0.25730 -0.44600
O 	O 	0.61220 0.61760 0.04300 -0.45500
O 	O 	0.61370 0.75610 0.00650 -0.48900
O 	O 	0.45410 0.94520 0.01320 -0.55600
O 	O 	0.28160 0.99800 0.06740 -0.50000
O 	O 	0.39570 0.52980 0.79280 -0.46500
O 	O 	0.36690 0.51780 0.68040 -0.48800
O 	O 	0.47950 0.37170 0.54490 -0.48900
O 	O 	0.64300 0.25730 0.49190 -0.46300
O 	O 	0.34480 0.04300 0.88240 -0.45600
O 	O 	0.37980 0.00650 0.74390 -0.49000
O 	O 	0.53270 0.01320 0.55480 -0.55400
O 	O 	0.65100 0.06740 0.50200 -0.49700
O 	O 	0.21830 0.97020 0.70720 -0.46200
O 	O 	0.06510 0.98220 0.81960 -0.47800
O 	O 	0.89610 0.12830 0.95510 -0.48500
O 	O 	0.89220 0.24270 0.00810 -0.44700
O 	O 	0.77020 0.45700 0.61760 -0.45600
O 	O 	0.63020 0.49350 0.75610 -0.48900
O 	O 	0.60070 0.48680 0.94520 -0.55300
O 	O 	0.72040 0.43260 0.99800 -0.49700
O 	O 	0.18850 0.20720 0.02980 -0.45600
O 	O 	0.04730 0.31960 0.01780 -0.48200
O 	O 	0.02440 0.45510 0.87170 -0.48500
O 	O 	0.13490 0.50810 0.75730 -0.46200
O 	O 	0.22720 0.11760 0.54300 -0.45400
O 	O 	0.12370 0.25610 0.50650 -0.48700
O 	O 	0.08750 0.44520 0.51320 -0.55300
O 	O 	0.15300 0.49800 0.56740 -0.49600
O 	O 	0.92550 0.29280 0.47020 -0.46600
O 	O 	0.88470 0.18040 0.48220 -0.48800
O 	O 	0.85120 0.04490 0.62830 -0.48700
O 	O 	0.90030 0.99190 0.74270 -0.44600
O 	O 	0.38780 0.38240 0.95700 -0.45500
O 	O 	0.38630 0.24390 0.99350 -0.48900
O 	O 	0.54590 0.05480 0.98680 -0.55600
O 	O 	0.71840 0.00200 0.93260 -0.50000
