data_crystal

_cell_length_a 20.13100
_cell_length_b 15.67000
_cell_length_c 9.09700
_cell_angle_alpha 90.00000
_cell_angle_beta  105.98800
_cell_angle_gamma 90.00000

_symmetry_space_group_name_	'P 1'
_symmetry_space_group_name_H-M	'P 1'

loop_
_symmetry_equiv_pos_as_xyz
  x,y,z

loop_
_atom_site_label
_atom_site_type_symbol
_atom_site_fract_x
_atom_site_fract_y
_atom_site_fract_z
_atom_site_charge
Ga	Ga	0.16196 0.13569 0.33238 2.08100
Ga	Ga	0.25196 0.88372 0.43563 2.07900
P 	P 	0.21073 0.97965 0.13595 0.67400
P 	P 	0.14413 0.23309 0.00449 0.64100
C 	C 	0.21980 0.27570 0.51130 0.22800
O 	O 	0.16080 0.24590 0.45850 -0.42000
O 	O 	0.23390 0.34580 0.58260 -0.45500
O 	O 	0.06300 0.13340 0.26960 -0.51400
O 	O 	0.16970 0.21360 0.17260 -0.61200
O 	O 	0.17070 0.03510 0.21780 -0.60400
O 	O 	0.25660 0.91600 0.24770 -0.62300
O 	O 	0.15960 0.93280 0.00820 -0.56000
O 	O 	0.26250 0.03080 0.07450 -0.62900
O 	O 	0.16780 0.16460 0.90950 -0.63700
O 	O 	0.17400 0.31900 0.97250 -0.63100
O 	O 	0.06630 0.23810 0.94380 -0.18900
O 	O 	0.00730 0.24890 0.38670 -0.19500
Ga	Ga	0.66196 0.63569 0.33238 2.08200
Ga	Ga	0.75196 0.38372 0.43563 2.08000
P 	P 	0.71073 0.47965 0.13595 0.68000
P 	P 	0.64413 0.73309 0.00449 0.63300
C 	C 	0.71980 0.77570 0.51130 0.22800
O 	O 	0.66080 0.74590 0.45850 -0.41700
O 	O 	0.73390 0.84580 0.58260 -0.45300
O 	O 	0.56300 0.63340 0.26960 -0.51200
O 	O 	0.66970 0.71360 0.17260 -0.60900
O 	O 	0.67070 0.53510 0.21780 -0.60300
O 	O 	0.75660 0.41600 0.24770 -0.62000
O 	O 	0.65960 0.43280 0.00820 -0.55300
O 	O 	0.76250 0.53080 0.07450 -0.62900
O 	O 	0.66780 0.66460 0.90950 -0.63000
O 	O 	0.67400 0.81900 0.97250 -0.62200
O 	O 	0.56630 0.73810 0.94380 -0.16500
O 	O 	0.50730 0.74890 0.38670 -0.18000
Ga	Ga	0.83804 0.13569 0.16762 2.08200
Ga	Ga	0.74804 0.88372 0.06437 2.08000
P 	P 	0.78927 0.97965 0.36405 0.67800
P 	P 	0.85587 0.23309 0.49551 0.63700
C 	C 	0.78020 0.27570 0.98870 0.22000
O 	O 	0.83920 0.24590 0.04150 -0.40900
O 	O 	0.76610 0.34580 0.91740 -0.44900
O 	O 	0.93700 0.13340 0.23040 -0.47700
O 	O 	0.83030 0.21360 0.32740 -0.60600
O 	O 	0.82930 0.03510 0.28220 -0.59800
O 	O 	0.74340 0.91600 0.25230 -0.62300
O 	O 	0.84040 0.93280 0.49180 -0.55000
O 	O 	0.73750 0.03080 0.42550 -0.63100
O 	O 	0.83220 0.16460 0.59050 -0.62800
O 	O 	0.82600 0.31900 0.52750 -0.62100
O 	O 	0.93370 0.23810 0.55620 -0.14900
O 	O 	0.99270 0.24890 0.11330 -0.13300
Ga	Ga	0.33804 0.63569 0.16762 2.08200
Ga	Ga	0.24804 0.38372 0.06437 2.08000
P 	P 	0.28927 0.47965 0.36405 0.68000
P 	P 	0.35587 0.73309 0.49551 0.63800
C 	C 	0.28020 0.77570 0.98870 0.23500
O 	O 	0.33920 0.74590 0.04150 -0.42100
O 	O 	0.26610 0.84580 0.91740 -0.45300
O 	O 	0.43700 0.63340 0.23040 -0.51200
O 	O 	0.33030 0.71360 0.32740 -0.61000
O 	O 	0.32930 0.53510 0.28220 -0.60300
O 	O 	0.24340 0.41600 0.25230 -0.62500
O 	O 	0.34040 0.43280 0.49180 -0.55400
O 	O 	0.23750 0.53080 0.42550 -0.63500
O 	O 	0.33220 0.66460 0.59050 -0.63100
O 	O 	0.32600 0.81900 0.52750 -0.62500
O 	O 	0.43370 0.73810 0.55620 -0.16800
O 	O 	0.49270 0.74890 0.11330 -0.18000
Ga	Ga	0.83804 0.86431 0.66762 2.08200
Ga	Ga	0.74804 0.11628 0.56437 2.08000
P 	P 	0.78927 0.02035 0.86405 0.67500
P 	P 	0.85587 0.76691 0.99551 0.64100
C 	C 	0.78020 0.72430 0.48870 0.22700
O 	O 	0.83920 0.75410 0.54150 -0.41200
O 	O 	0.76610 0.65420 0.41740 -0.45100
O 	O 	0.93700 0.86660 0.73040 -0.47900
O 	O 	0.83030 0.78640 0.82740 -0.60700
O 	O 	0.82930 0.96490 0.78220 -0.59800
O 	O 	0.74340 0.08400 0.75230 -0.62300
O 	O 	0.84040 0.06720 0.99180 -0.55200
O 	O 	0.73750 0.96920 0.92550 -0.62900
O 	O 	0.83220 0.83540 0.09050 -0.63000
O 	O 	0.82600 0.68100 0.02750 -0.62300
O 	O 	0.93370 0.76190 0.05620 -0.15100
O 	O 	0.99270 0.75110 0.61330 -0.13600
Ga	Ga	0.33804 0.36431 0.66762 2.08200
Ga	Ga	0.24804 0.61628 0.56437 2.08000
P 	P 	0.28927 0.52035 0.86405 0.68000
P 	P 	0.35587 0.26691 0.99551 0.63500
C 	C 	0.28020 0.22430 0.48870 0.22700
O 	O 	0.33920 0.25410 0.54150 -0.41700
O 	O 	0.26610 0.15420 0.41740 -0.45300
O 	O 	0.43700 0.36660 0.73040 -0.51200
O 	O 	0.33030 0.28640 0.82740 -0.60900
O 	O 	0.32930 0.46490 0.78220 -0.60300
O 	O 	0.24340 0.58400 0.75230 -0.62500
O 	O 	0.34040 0.56720 0.99180 -0.55200
O 	O 	0.23750 0.46920 0.92550 -0.63500
O 	O 	0.33220 0.33540 0.09050 -0.63000
O 	O 	0.32600 0.18100 0.02750 -0.62300
O 	O 	0.43370 0.26190 0.05620 -0.16600
O 	O 	0.49270 0.25110 0.61330 -0.18000
Ga	Ga	0.16196 0.86431 0.83238 2.08200
Ga	Ga	0.25196 0.11628 0.93563 2.08000
P 	P 	0.21073 0.02035 0.63595 0.67700
P 	P 	0.14413 0.76691 0.50449 0.63800
C 	C 	0.21980 0.72430 0.01130 0.22000
O 	O 	0.16080 0.75410 0.95850 -0.41600
O 	O 	0.23390 0.65420 0.08260 -0.45400
O 	O 	0.06300 0.86660 0.76960 -0.51300
O 	O 	0.16970 0.78640 0.67260 -0.61200
O 	O 	0.17070 0.96490 0.71780 -0.60400
O 	O 	0.25660 0.08400 0.74770 -0.62400
O 	O 	0.15960 0.06720 0.50820 -0.55700
O 	O 	0.26250 0.96920 0.57450 -0.63100
O 	O 	0.16780 0.83540 0.40950 -0.63500
O 	O 	0.17400 0.68100 0.47250 -0.63000
O 	O 	0.06630 0.76190 0.44380 -0.18800
O 	O 	0.00730 0.75110 0.88670 -0.19400
Ga	Ga	0.66196 0.36431 0.83238 2.08200
Ga	Ga	0.75196 0.61628 0.93563 2.08100
P 	P 	0.71073 0.52035 0.63595 0.68000
P 	P 	0.64413 0.26691 0.50449 0.63800
C 	C 	0.71980 0.22430 0.01130 0.23400
O 	O 	0.66080 0.25410 0.95850 -0.42000
O 	O 	0.73390 0.15420 0.08260 -0.45300
O 	O 	0.56300 0.36660 0.76960 -0.51200
O 	O 	0.66970 0.28640 0.67260 -0.61000
O 	O 	0.67070 0.46490 0.71780 -0.60300
O 	O 	0.75660 0.58400 0.74770 -0.62000
O 	O 	0.65960 0.56720 0.50820 -0.55300
O 	O 	0.76250 0.46920 0.57450 -0.63000
O 	O 	0.66780 0.33540 0.40950 -0.63100
O 	O 	0.67400 0.18100 0.47250 -0.62500
O 	O 	0.56630 0.26190 0.44380 -0.16800
O 	O 	0.50730 0.25110 0.88670 -0.18000
P 	P 	0.00000 0.18896 0.25000 0.53700
P 	P 	0.50000 0.68896 0.25000 0.59900
P 	P 	0.00000 0.81104 0.75000 0.53800
P 	P 	0.50000 0.31104 0.75000 0.59900
