data_crystal

_cell_length_a 7.97300
_cell_length_b 8.42300
_cell_length_c 8.83400
_cell_angle_alpha 116.83400
_cell_angle_beta  100.99200
_cell_angle_gamma 103.42800

_symmetry_space_group_name_	'P 1'
_symmetry_space_group_name_H-M	'P 1'

loop_
_symmetry_equiv_pos_as_xyz
  x,y,z

loop_
_atom_site_label
_atom_site_type_symbol
_atom_site_fract_x
_atom_site_fract_y
_atom_site_fract_z
_atom_site_charge
Ga	Ga	0.67761 0.27979 0.31353 2.08100
Ga	Ga	0.23079 0.46236 0.00653 2.07300
P 	P 	0.45955 0.19027 0.91224 0.68400
P 	P 	0.96110 0.50767 0.73468 0.64200
C 	C 	0.55850 0.58270 0.49610 0.24200
O 	O 	0.67350 0.55440 0.41950 -0.46900
O 	O 	0.52710 0.73520 0.57160 -0.42500
O 	O 	0.49480 0.21200 0.09590 -0.61700
O 	O 	0.36860 0.98330 0.75740 -0.51900
O 	O 	0.32970 0.29350 0.88500 -0.65500
O 	O 	0.63630 0.28300 0.88770 -0.63800
O 	O 	0.02520 0.39920 0.82450 -0.65400
O 	O 	0.83060 0.59170 0.82810 -0.62300
O 	O 	0.85510 0.35630 0.53930 -0.54300
O 	O 	0.12210 0.67140 0.76990 -0.58000
Ga	Ga	0.32239 0.72021 0.68647 2.08200
Ga	Ga	0.76921 0.53764 0.99347 2.07400
P 	P 	0.54045 0.80973 0.08776 0.68400
P 	P 	0.03890 0.49233 0.26532 0.64200
C 	C 	0.44150 0.41730 0.50390 0.24200
O 	O 	0.32650 0.44560 0.58050 -0.46900
O 	O 	0.47290 0.26480 0.42840 -0.42500
O 	O 	0.50520 0.78800 0.90410 -0.61700
O 	O 	0.63140 0.01670 0.24260 -0.51900
O 	O 	0.67030 0.70650 0.11500 -0.65500
O 	O 	0.36370 0.71700 0.11230 -0.63800
O 	O 	0.97480 0.60080 0.17550 -0.65400
O 	O 	0.16940 0.40830 0.17190 -0.62300
O 	O 	0.14490 0.64370 0.46070 -0.54300
O 	O 	0.87790 0.32860 0.23010 -0.58000
