data_crystal

_cell_length_a 10.80700
_cell_length_b 14.06600
_cell_length_c 13.08400
_cell_angle_alpha 90.00000
_cell_angle_beta  96.34200
_cell_angle_gamma 90.00000

_symmetry_space_group_name_	'P 1'
_symmetry_space_group_name_H-M	'P 1'

loop_
_symmetry_equiv_pos_as_xyz
  x,y,z

loop_
_atom_site_label
_atom_site_type_symbol
_atom_site_fract_x
_atom_site_fract_y
_atom_site_fract_z
_atom_site_charge
Ga	Ga	0.13120 0.38305 0.93900 2.08200
Ga	Ga	0.15087 0.23357 0.36637 2.07600
P 	P 	0.13356 0.22613 0.12294 0.65600
O 	O 	0.97000 0.39140 0.98610 -0.59400
P 	P 	0.83258 0.40275 0.98333 0.67100
O 	O 	0.05240 0.28330 0.82950 -0.43800
O 	O 	0.06570 0.47220 0.82190 -0.46100
O 	O 	0.17500 0.30400 0.05460 -0.58500
O 	O 	0.21530 0.13790 0.12150 -0.55100
O 	O 	0.14220 0.26920 0.23240 -0.65400
O 	O 	0.99680 0.19450 0.09350 -0.63000
O 	O 	0.78420 0.34160 0.07000 -0.66600
O 	O 	0.79360 0.50570 0.99290 -0.51700
O 	O 	0.76310 0.36530 0.88050 -0.61400
Ga	Ga	0.63120 0.88305 0.93900 2.08400
Ga	Ga	0.65087 0.73357 0.36637 2.07600
P 	P 	0.63356 0.72613 0.12294 0.67600
O 	O 	0.47000 0.89140 0.98610 -0.62000
P 	P 	0.33258 0.90275 0.98333 0.65700
O 	O 	0.55240 0.78330 0.82950 -0.43500
O 	O 	0.56570 0.97220 0.82190 -0.46000
O 	O 	0.67500 0.80400 0.05460 -0.57700
O 	O 	0.71530 0.63790 0.12150 -0.54600
O 	O 	0.64220 0.76920 0.23240 -0.64600
O 	O 	0.49680 0.69450 0.09350 -0.65000
O 	O 	0.28420 0.84160 0.07000 -0.66000
O 	O 	0.29360 0.00570 0.99290 -0.51800
O 	O 	0.26310 0.86530 0.88050 -0.62300
Ga	Ga	0.86880 0.38305 0.56100 2.08700
Ga	Ga	0.84913 0.23357 0.13363 2.07600
P 	P 	0.86644 0.22613 0.37706 0.69800
O 	O 	0.03000 0.39140 0.51390 -0.63900
P 	P 	0.16742 0.40275 0.51667 0.66900
O 	O 	0.94760 0.28330 0.67050 -0.39600
O 	O 	0.93430 0.47220 0.67810 -0.42200
O 	O 	0.82500 0.30400 0.44540 -0.57800
O 	O 	0.78470 0.13790 0.37850 -0.54600
O 	O 	0.85780 0.26920 0.26760 -0.64300
O 	O 	0.00320 0.19450 0.40650 -0.67800
O 	O 	0.21580 0.34160 0.43000 -0.66700
O 	O 	0.20640 0.50570 0.50710 -0.52600
O 	O 	0.23690 0.36530 0.61950 -0.62200
Ga	Ga	0.36880 0.88305 0.56100 2.08500
Ga	Ga	0.34913 0.73357 0.13363 2.07600
P 	P 	0.36644 0.72613 0.37706 0.67600
O 	O 	0.53000 0.89140 0.51390 -0.61800
P 	P 	0.66742 0.90275 0.51667 0.66800
O 	O 	0.44760 0.78330 0.67050 -0.43400
O 	O 	0.43430 0.97220 0.67810 -0.46100
O 	O 	0.32500 0.80400 0.44540 -0.58300
O 	O 	0.28470 0.63790 0.37850 -0.54800
O 	O 	0.35780 0.76920 0.26760 -0.64900
O 	O 	0.50320 0.69450 0.40650 -0.65100
O 	O 	0.71580 0.84160 0.43000 -0.66100
O 	O 	0.70640 0.00570 0.50710 -0.51800
O 	O 	0.73690 0.86530 0.61950 -0.61700
Ga	Ga	0.86880 0.61695 0.06100 2.08700
Ga	Ga	0.84913 0.76643 0.63363 2.07600
P 	P 	0.86644 0.77387 0.87706 0.70200
O 	O 	0.03000 0.60860 0.01390 -0.63500
P 	P 	0.16742 0.59725 0.01667 0.67400
O 	O 	0.94760 0.71670 0.17050 -0.40000
O 	O 	0.93430 0.52780 0.17810 -0.42800
O 	O 	0.82500 0.69600 0.94540 -0.57800
O 	O 	0.78470 0.86210 0.87850 -0.54700
O 	O 	0.85780 0.73080 0.76760 -0.64300
O 	O 	0.00320 0.80550 0.90650 -0.68500
O 	O 	0.21580 0.65840 0.93000 -0.67200
O 	O 	0.20640 0.49430 0.00710 -0.52400
O 	O 	0.23690 0.63470 0.11950 -0.62100
Ga	Ga	0.36880 0.11695 0.06100 2.08400
Ga	Ga	0.34913 0.26643 0.63363 2.07500
P 	P 	0.36644 0.27387 0.87706 0.67600
O 	O 	0.53000 0.10860 0.01390 -0.61900
P 	P 	0.66742 0.09725 0.01667 0.65800
O 	O 	0.44760 0.21670 0.17050 -0.43400
O 	O 	0.43430 0.02780 0.17810 -0.46100
O 	O 	0.32500 0.19600 0.94540 -0.58200
O 	O 	0.28470 0.36210 0.87850 -0.54900
O 	O 	0.35780 0.23080 0.76760 -0.64900
O 	O 	0.50320 0.30550 0.90650 -0.65000
O 	O 	0.71580 0.15840 0.93000 -0.65500
O 	O 	0.70640 0.99430 0.00710 -0.51000
O 	O 	0.73690 0.13470 0.11950 -0.61800
Ga	Ga	0.13120 0.61695 0.43900 2.08200
Ga	Ga	0.15087 0.76643 0.86637 2.07400
P 	P 	0.13356 0.77387 0.62294 0.65100
O 	O 	0.97000 0.60860 0.48610 -0.59700
P 	P 	0.83258 0.59725 0.48333 0.66800
O 	O 	0.05240 0.71670 0.32950 -0.43800
O 	O 	0.06570 0.52780 0.32190 -0.46000
O 	O 	0.17500 0.69600 0.55460 -0.58600
O 	O 	0.21530 0.86210 0.62150 -0.55000
O 	O 	0.14220 0.73080 0.73240 -0.65500
O 	O 	0.99680 0.80550 0.59350 -0.62400
O 	O 	0.78420 0.65840 0.57000 -0.66300
O 	O 	0.79360 0.49430 0.49290 -0.51700
O 	O 	0.76310 0.63470 0.38050 -0.61500
Ga	Ga	0.63120 0.11695 0.43900 2.08500
Ga	Ga	0.65087 0.26643 0.86637 2.07600
P 	P 	0.63356 0.27387 0.62294 0.67600
O 	O 	0.47000 0.10860 0.48610 -0.61800
P 	P 	0.33258 0.09725 0.48333 0.66800
O 	O 	0.55240 0.21670 0.32950 -0.43400
O 	O 	0.56570 0.02780 0.32190 -0.45900
O 	O 	0.67500 0.19600 0.55460 -0.58000
O 	O 	0.71530 0.36210 0.62150 -0.54600
O 	O 	0.64220 0.23080 0.73240 -0.64600
O 	O 	0.49680 0.30550 0.59350 -0.65100
O 	O 	0.28420 0.15840 0.57000 -0.66800
O 	O 	0.29360 0.99430 0.49290 -0.52500
O 	O 	0.26310 0.13470 0.38050 -0.62300
C 	C 	-0.00000 0.32240 0.75000 0.18200
C 	C 	0.00000 0.43210 0.75000 0.22600
C 	C 	0.50000 0.82240 0.75000 0.21900
C 	C 	0.50000 0.93210 0.75000 0.26400
C 	C 	0.00000 0.67760 0.25000 0.18700
C 	C 	0.00000 0.56790 0.25000 0.23100
C 	C 	0.50000 0.17760 0.25000 0.21900
C 	C 	0.50000 0.06790 0.25000 0.26400
