data_crystal

_cell_length_a 22.55570
_cell_length_b 22.55570
_cell_length_c 22.55570
_cell_angle_alpha 90.00000
_cell_angle_beta  90.00000
_cell_angle_gamma 90.00000

_symmetry_space_group_name_	'P 1'
_symmetry_space_group_name_H-M	'P 1'

loop_
_symmetry_equiv_pos_as_xyz
  x,y,z

loop_
_atom_site_label
_atom_site_type_symbol
_atom_site_fract_x
_atom_site_fract_y
_atom_site_fract_z
_atom_site_charge
O 	O 	0.43701 0.24728 0.24567 -0.37300
O 	O 	0.34068 0.25989 0.24766 -0.33500
N 	N 	0.43330 0.13360 0.23400 -0.10400
N 	N 	0.42370 0.07560 0.23280 -0.04300
C 	C 	0.38010 0.16270 0.24960 -0.03900
C 	C 	0.38450 0.22775 0.24780 0.32900
N 	N 	0.23790 0.36480 0.06770 -0.10000
O 	O 	0.56299 0.75272 0.24567 -0.37000
O 	O 	0.65932 0.74011 0.24766 -0.33300
N 	N 	0.56670 0.86640 0.23400 -0.10000
N 	N 	0.57630 0.92440 0.23280 -0.02600
C 	C 	0.61990 0.83730 0.24960 -0.03800
C 	C 	0.61550 0.77225 0.24780 0.33200
N 	N 	0.76210 0.63520 0.06770 -0.09300
O 	O 	0.56299 0.24728 0.75433 -0.36700
O 	O 	0.65932 0.25989 0.75234 -0.33200
N 	N 	0.56670 0.13360 0.76600 -0.09700
N 	N 	0.57630 0.07560 0.76720 -0.03800
C 	C 	0.61990 0.16270 0.75040 -0.03600
C 	C 	0.61550 0.22775 0.75220 0.33000
N 	N 	0.76210 0.36480 0.93230 -0.08100
O 	O 	0.43701 0.75272 0.75433 -0.36300
O 	O 	0.34068 0.74011 0.75234 -0.33000
N 	N 	0.43330 0.86640 0.76600 -0.09200
N 	N 	0.42370 0.92440 0.76720 -0.02200
C 	C 	0.38010 0.83730 0.75040 -0.03400
C 	C 	0.38450 0.77225 0.75220 0.33300
N 	N 	0.23790 0.63520 0.93230 -0.08800
O 	O 	0.24567 0.43701 0.24728 -0.37400
O 	O 	0.24766 0.34068 0.25989 -0.33600
N 	N 	0.23400 0.43330 0.13360 -0.10500
N 	N 	0.23280 0.42370 0.07560 -0.04400
C 	C 	0.24960 0.38010 0.16270 -0.04000
C 	C 	0.24780 0.38450 0.22775 0.32800
N 	N 	0.06770 0.23790 0.36480 -0.10100
O 	O 	0.24567 0.56299 0.75272 -0.37100
O 	O 	0.24766 0.65932 0.74011 -0.33400
N 	N 	0.23400 0.56670 0.86640 -0.10100
N 	N 	0.23280 0.57630 0.92440 -0.02700
C 	C 	0.24960 0.61990 0.83730 -0.03800
C 	C 	0.24780 0.61550 0.77225 0.33200
N 	N 	0.06770 0.76210 0.63520 -0.09300
O 	O 	0.75433 0.56299 0.24728 -0.36700
O 	O 	0.75234 0.65932 0.25989 -0.33200
N 	N 	0.76600 0.56670 0.13360 -0.09700
N 	N 	0.76720 0.57630 0.07560 -0.03800
C 	C 	0.75040 0.61990 0.16270 -0.03600
C 	C 	0.75220 0.61550 0.22775 0.33000
N 	N 	0.93230 0.76210 0.36480 -0.08100
O 	O 	0.75433 0.43701 0.75272 -0.36300
O 	O 	0.75234 0.34068 0.74011 -0.33000
N 	N 	0.76600 0.43330 0.86640 -0.09200
N 	N 	0.76720 0.42370 0.92440 -0.02200
C 	C 	0.75040 0.38010 0.83730 -0.03400
C 	C 	0.75220 0.38450 0.77225 0.33300
N 	N 	0.93230 0.23790 0.63520 -0.08800
O 	O 	0.24728 0.24567 0.43701 -0.37400
O 	O 	0.25989 0.24766 0.34068 -0.33600
N 	N 	0.13360 0.23400 0.43330 -0.10500
N 	N 	0.07560 0.23280 0.42370 -0.04400
C 	C 	0.16270 0.24960 0.38010 -0.04000
C 	C 	0.22775 0.24780 0.38450 0.32800
N 	N 	0.36480 0.06770 0.23790 -0.10100
O 	O 	0.75272 0.24567 0.56299 -0.37100
O 	O 	0.74011 0.24766 0.65932 -0.33400
N 	N 	0.86640 0.23400 0.56670 -0.10100
N 	N 	0.92440 0.23280 0.57630 -0.02700
C 	C 	0.83730 0.24960 0.61990 -0.03800
C 	C 	0.77225 0.24780 0.61550 0.33200
N 	N 	0.63520 0.06770 0.76210 -0.09300
O 	O 	0.24728 0.75433 0.56299 -0.36700
O 	O 	0.25989 0.75234 0.65932 -0.33200
N 	N 	0.13360 0.76600 0.56670 -0.09700
N 	N 	0.07560 0.76720 0.57630 -0.03800
C 	C 	0.16270 0.75040 0.61990 -0.03600
C 	C 	0.22775 0.75220 0.61550 0.33000
N 	N 	0.36480 0.93230 0.76210 -0.08100
O 	O 	0.75272 0.75433 0.43701 -0.36300
O 	O 	0.74011 0.75234 0.34068 -0.33000
N 	N 	0.86640 0.76600 0.43330 -0.09200
N 	N 	0.92440 0.76720 0.42370 -0.02200
C 	C 	0.83730 0.75040 0.38010 -0.03400
C 	C 	0.77225 0.75220 0.38450 0.33300
N 	N 	0.63520 0.93230 0.23790 -0.08800
O 	O 	0.74728 0.93701 0.25433 -0.33400
O 	O 	0.75989 0.84068 0.25234 -0.32400
N 	N 	0.63360 0.93330 0.26600 -0.08600
N 	N 	0.57560 0.92370 0.26720 -0.02500
C 	C 	0.66270 0.88010 0.25040 -0.02900
C 	C 	0.72775 0.88450 0.25220 0.32700
N 	N 	0.86480 0.73790 0.43230 -0.09400
O 	O 	0.25272 0.06299 0.25433 -0.39900
O 	O 	0.24011 0.15932 0.25234 -0.34600
N 	N 	0.36640 0.06670 0.26600 -0.10300
N 	N 	0.42440 0.07630 0.26720 -0.04100
C 	C 	0.33730 0.11990 0.25040 -0.04400
C 	C 	0.27225 0.11550 0.25220 0.33100
N 	N 	0.13520 0.26210 0.43230 -0.09200
O 	O 	0.74728 0.06299 0.74567 -0.38000
O 	O 	0.75989 0.15932 0.74766 -0.33300
N 	N 	0.63360 0.06670 0.73400 -0.10700
N 	N 	0.57560 0.07630 0.73280 -0.04100
C 	C 	0.66270 0.11990 0.74960 -0.03900
C 	C 	0.72775 0.11550 0.74780 0.33300
N 	N 	0.86480 0.26210 0.56770 -0.09000
O 	O 	0.25272 0.93701 0.74567 -0.33700
O 	O 	0.24011 0.84068 0.74766 -0.32700
N 	N 	0.36640 0.93330 0.73400 -0.09000
N 	N 	0.42440 0.92370 0.73280 -0.02600
C 	C 	0.33730 0.88010 0.74960 -0.02800
C 	C 	0.27225 0.88450 0.74780 0.33000
N 	N 	0.13520 0.73790 0.56770 -0.09700
O 	O 	0.93701 0.74567 0.25272 -0.33700
O 	O 	0.84068 0.74766 0.24011 -0.32700
N 	N 	0.93330 0.73400 0.36640 -0.09000
N 	N 	0.92370 0.73280 0.42440 -0.02600
C 	C 	0.88010 0.74960 0.33730 -0.02800
C 	C 	0.88450 0.74780 0.27225 0.33000
N 	N 	0.73790 0.56770 0.13520 -0.09700
O 	O 	0.06299 0.74567 0.74728 -0.38000
O 	O 	0.15932 0.74766 0.75989 -0.33300
N 	N 	0.06670 0.73400 0.63360 -0.10700
N 	N 	0.07630 0.73280 0.57560 -0.04100
C 	C 	0.11990 0.74960 0.66270 -0.03900
C 	C 	0.11550 0.74780 0.72775 0.33300
N 	N 	0.26210 0.56770 0.86480 -0.09000
O 	O 	0.06299 0.25433 0.25272 -0.39900
O 	O 	0.15932 0.25234 0.24011 -0.34600
N 	N 	0.06670 0.26600 0.36640 -0.10300
N 	N 	0.07630 0.26720 0.42440 -0.04100
C 	C 	0.11990 0.25040 0.33730 -0.04400
C 	C 	0.11550 0.25220 0.27225 0.33100
N 	N 	0.26210 0.43230 0.13520 -0.09200
O 	O 	0.93701 0.25433 0.74728 -0.33400
O 	O 	0.84068 0.25234 0.75989 -0.32400
N 	N 	0.93330 0.26600 0.63360 -0.08600
N 	N 	0.92370 0.26720 0.57560 -0.02500
C 	C 	0.88010 0.25040 0.66270 -0.02900
C 	C 	0.88450 0.25220 0.72775 0.32700
N 	N 	0.73790 0.43230 0.86480 -0.09400
O 	O 	0.74567 0.74728 0.06299 -0.38000
O 	O 	0.74766 0.75989 0.15932 -0.33300
N 	N 	0.73400 0.63360 0.06670 -0.10700
N 	N 	0.73280 0.57560 0.07630 -0.04100
C 	C 	0.74960 0.66270 0.11990 -0.03900
C 	C 	0.74780 0.72775 0.11550 0.33300
N 	N 	0.56770 0.86480 0.26210 -0.09000
O 	O 	0.74567 0.25272 0.93701 -0.33700
O 	O 	0.74766 0.24011 0.84068 -0.32700
N 	N 	0.73400 0.36640 0.93330 -0.09000
N 	N 	0.73280 0.42440 0.92370 -0.02600
C 	C 	0.74960 0.33730 0.88010 -0.02800
C 	C 	0.74780 0.27225 0.88450 0.33000
N 	N 	0.56770 0.13520 0.73790 -0.09700
O 	O 	0.25433 0.74728 0.93701 -0.33400
O 	O 	0.25234 0.75989 0.84068 -0.32400
N 	N 	0.26600 0.63360 0.93330 -0.08600
N 	N 	0.26720 0.57560 0.92370 -0.02500
C 	C 	0.25040 0.66270 0.88010 -0.02900
C 	C 	0.25220 0.72775 0.88450 0.32700
N 	N 	0.43230 0.86480 0.73790 -0.09400
O 	O 	0.25433 0.25272 0.06299 -0.39900
O 	O 	0.25234 0.24011 0.15932 -0.34600
N 	N 	0.26600 0.36640 0.06670 -0.10300
N 	N 	0.26720 0.42440 0.07630 -0.04100
C 	C 	0.25040 0.33730 0.11990 -0.04400
C 	C 	0.25220 0.27225 0.11550 0.33100
N 	N 	0.43230 0.13520 0.26210 -0.09200
O 	O 	0.56299 0.75272 0.75433 -0.36300
O 	O 	0.65932 0.74011 0.75234 -0.33000
N 	N 	0.56670 0.86640 0.76600 -0.09200
N 	N 	0.57630 0.92440 0.76720 -0.02100
C 	C 	0.61990 0.83730 0.75040 -0.03400
C 	C 	0.61550 0.77225 0.75220 0.33400
N 	N 	0.76210 0.63520 0.93230 -0.08100
O 	O 	0.43701 0.24728 0.75433 -0.36700
O 	O 	0.34068 0.25989 0.75234 -0.33200
N 	N 	0.43330 0.13360 0.76600 -0.09700
N 	N 	0.42370 0.07560 0.76720 -0.03800
C 	C 	0.38010 0.16270 0.75040 -0.03600
C 	C 	0.38450 0.22775 0.75220 0.33000
N 	N 	0.23790 0.36480 0.93230 -0.08800
O 	O 	0.43701 0.75272 0.24567 -0.37100
O 	O 	0.34068 0.74011 0.24766 -0.33500
N 	N 	0.43330 0.86640 0.23400 -0.10100
N 	N 	0.42370 0.92440 0.23280 -0.02800
C 	C 	0.38010 0.83730 0.24960 -0.03800
C 	C 	0.38450 0.77225 0.24780 0.33200
N 	N 	0.23790 0.63520 0.06770 -0.10000
O 	O 	0.56299 0.24728 0.24567 -0.37400
O 	O 	0.65932 0.25989 0.24766 -0.33600
N 	N 	0.56670 0.13360 0.23400 -0.10500
N 	N 	0.57630 0.07560 0.23280 -0.04400
C 	C 	0.61990 0.16270 0.24960 -0.04000
C 	C 	0.61550 0.22775 0.24780 0.32900
N 	N 	0.76210 0.36480 0.06770 -0.09400
O 	O 	0.75433 0.56299 0.75272 -0.36300
O 	O 	0.75234 0.65932 0.74011 -0.33000
N 	N 	0.76600 0.56670 0.86640 -0.09200
N 	N 	0.76720 0.57630 0.92440 -0.02100
C 	C 	0.75040 0.61990 0.83730 -0.03400
C 	C 	0.75220 0.61550 0.77225 0.33400
N 	N 	0.93230 0.76210 0.63520 -0.08100
O 	O 	0.75433 0.43701 0.24728 -0.36700
O 	O 	0.75234 0.34068 0.25989 -0.33200
N 	N 	0.76600 0.43330 0.13360 -0.09700
N 	N 	0.76720 0.42370 0.07560 -0.03800
C 	C 	0.75040 0.38010 0.16270 -0.03600
C 	C 	0.75220 0.38450 0.22775 0.33000
N 	N 	0.93230 0.23790 0.36480 -0.08800
O 	O 	0.24567 0.43701 0.75272 -0.37100
O 	O 	0.24766 0.34068 0.74011 -0.33500
N 	N 	0.23400 0.43330 0.86640 -0.10100
N 	N 	0.23280 0.42370 0.92440 -0.02800
C 	C 	0.24960 0.38010 0.83730 -0.03800
C 	C 	0.24780 0.38450 0.77225 0.33200
N 	N 	0.06770 0.23790 0.63520 -0.10000
O 	O 	0.24567 0.56299 0.24728 -0.37400
O 	O 	0.24766 0.65932 0.25989 -0.33600
N 	N 	0.23400 0.56670 0.13360 -0.10500
N 	N 	0.23280 0.57630 0.07560 -0.04400
C 	C 	0.24960 0.61990 0.16270 -0.04000
C 	C 	0.24780 0.61550 0.22775 0.32900
N 	N 	0.06770 0.76210 0.36480 -0.09400
O 	O 	0.75272 0.75433 0.56299 -0.36300
O 	O 	0.74011 0.75234 0.65932 -0.33000
N 	N 	0.86640 0.76600 0.56670 -0.09200
N 	N 	0.92440 0.76720 0.57630 -0.02100
C 	C 	0.83730 0.75040 0.61990 -0.03400
C 	C 	0.77225 0.75220 0.61550 0.33400
N 	N 	0.63520 0.93230 0.76210 -0.08100
O 	O 	0.24728 0.75433 0.43701 -0.36700
O 	O 	0.25989 0.75234 0.34068 -0.33200
N 	N 	0.13360 0.76600 0.43330 -0.09700
N 	N 	0.07560 0.76720 0.42370 -0.03800
C 	C 	0.16270 0.75040 0.38010 -0.03600
C 	C 	0.22775 0.75220 0.38450 0.33000
N 	N 	0.36480 0.93230 0.23790 -0.08800
O 	O 	0.75272 0.24567 0.43701 -0.37100
O 	O 	0.74011 0.24766 0.34068 -0.33500
N 	N 	0.86640 0.23400 0.43330 -0.10100
N 	N 	0.92440 0.23280 0.42370 -0.02800
C 	C 	0.83730 0.24960 0.38010 -0.03800
C 	C 	0.77225 0.24780 0.38450 0.33200
N 	N 	0.63520 0.06770 0.23790 -0.10000
O 	O 	0.24728 0.24567 0.56299 -0.37400
O 	O 	0.25989 0.24766 0.65932 -0.33600
N 	N 	0.13360 0.23400 0.56670 -0.10500
N 	N 	0.07560 0.23280 0.57630 -0.04400
C 	C 	0.16270 0.24960 0.61990 -0.04000
C 	C 	0.22775 0.24780 0.61550 0.32900
N 	N 	0.36480 0.06770 0.76210 -0.09400
O 	O 	0.25272 0.06299 0.74567 -0.39100
O 	O 	0.24011 0.15932 0.74766 -0.34100
N 	N 	0.36640 0.06670 0.73400 -0.10700
N 	N 	0.42440 0.07630 0.73280 -0.04100
C 	C 	0.33730 0.11990 0.74960 -0.04100
C 	C 	0.27225 0.11550 0.74780 0.33300
N 	N 	0.13520 0.26210 0.56770 -0.09200
O 	O 	0.74728 0.93701 0.74567 -0.32600
O 	O 	0.75989 0.84068 0.74766 -0.31900
N 	N 	0.63360 0.93330 0.73400 -0.09000
N 	N 	0.57560 0.92370 0.73280 -0.02600
C 	C 	0.66270 0.88010 0.74960 -0.02600
C 	C 	0.72775 0.88450 0.74780 0.32900
N 	N 	0.86480 0.73790 0.56770 -0.09400
O 	O 	0.25272 0.93701 0.25433 -0.34500
O 	O 	0.24011 0.84068 0.25234 -0.33200
N 	N 	0.36640 0.93330 0.26600 -0.08600
N 	N 	0.42440 0.92370 0.26720 -0.02500
C 	C 	0.33730 0.88010 0.25040 -0.03100
C 	C 	0.27225 0.88450 0.25220 0.32800
N 	N 	0.13520 0.73790 0.43230 -0.09700
O 	O 	0.74728 0.06299 0.25433 -0.38800
O 	O 	0.75989 0.15932 0.25234 -0.33800
N 	N 	0.63360 0.06670 0.26600 -0.10300
N 	N 	0.57560 0.07630 0.26720 -0.04000
C 	C 	0.66270 0.11990 0.25040 -0.04200
C 	C 	0.72775 0.11550 0.25220 0.33100
N 	N 	0.86480 0.26210 0.43230 -0.09000
O 	O 	0.06299 0.25433 0.74728 -0.38800
O 	O 	0.15932 0.25234 0.75989 -0.33800
N 	N 	0.06670 0.26600 0.63360 -0.10300
N 	N 	0.07630 0.26720 0.57560 -0.04000
C 	C 	0.11990 0.25040 0.66270 -0.04200
C 	C 	0.11550 0.25220 0.72775 0.33100
N 	N 	0.26210 0.43230 0.86480 -0.09000
O 	O 	0.93701 0.25433 0.25272 -0.34500
O 	O 	0.84068 0.25234 0.24011 -0.33200
N 	N 	0.93330 0.26600 0.36640 -0.08600
N 	N 	0.92370 0.26720 0.42440 -0.02500
C 	C 	0.88010 0.25040 0.33730 -0.03100
C 	C 	0.88450 0.25220 0.27225 0.32800
N 	N 	0.73790 0.43230 0.13520 -0.09700
O 	O 	0.93701 0.74567 0.74728 -0.32600
O 	O 	0.84068 0.74766 0.75989 -0.31900
N 	N 	0.93330 0.73400 0.63360 -0.09000
N 	N 	0.92370 0.73280 0.57560 -0.02600
C 	C 	0.88010 0.74960 0.66270 -0.02600
C 	C 	0.88450 0.74780 0.72775 0.32900
N 	N 	0.73790 0.56770 0.86480 -0.09400
O 	O 	0.06299 0.74567 0.25272 -0.39100
O 	O 	0.15932 0.74766 0.24011 -0.34100
N 	N 	0.06670 0.73400 0.36640 -0.10700
N 	N 	0.07630 0.73280 0.42440 -0.04100
C 	C 	0.11990 0.74960 0.33730 -0.04100
C 	C 	0.11550 0.74780 0.27225 0.33300
N 	N 	0.26210 0.56770 0.13520 -0.09200
O 	O 	0.25433 0.25272 0.93701 -0.34500
O 	O 	0.25234 0.24011 0.84068 -0.33200
N 	N 	0.26600 0.36640 0.93330 -0.08600
N 	N 	0.26720 0.42440 0.92370 -0.02500
C 	C 	0.25040 0.33730 0.88010 -0.03100
C 	C 	0.25220 0.27225 0.88450 0.32800
N 	N 	0.43230 0.13520 0.73790 -0.09700
O 	O 	0.25433 0.74728 0.06299 -0.38800
O 	O 	0.25234 0.75989 0.15932 -0.33800
N 	N 	0.26600 0.63360 0.06670 -0.10300
N 	N 	0.26720 0.57560 0.07630 -0.04000
C 	C 	0.25040 0.66270 0.11990 -0.04200
C 	C 	0.25220 0.72775 0.11550 0.33100
N 	N 	0.43230 0.86480 0.26210 -0.09000
O 	O 	0.74567 0.25272 0.06299 -0.39100
O 	O 	0.74766 0.24011 0.15932 -0.34100
N 	N 	0.73400 0.36640 0.06670 -0.10700
N 	N 	0.73280 0.42440 0.07630 -0.04100
C 	C 	0.74960 0.33730 0.11990 -0.04100
C 	C 	0.74780 0.27225 0.11550 0.33300
N 	N 	0.56770 0.13520 0.26210 -0.09200
O 	O 	0.74567 0.74728 0.93701 -0.32600
O 	O 	0.74766 0.75989 0.84068 -0.31900
N 	N 	0.73400 0.63360 0.93330 -0.09000
N 	N 	0.73280 0.57560 0.92370 -0.02600
C 	C 	0.74960 0.66270 0.88010 -0.02600
C 	C 	0.74780 0.72775 0.88450 0.32900
N 	N 	0.56770 0.86480 0.73790 -0.09400
Cu	Cu	0.50000 0.18740 0.23640 0.46300
Cu	Cu	0.50000 0.81260 0.23640 0.46600
Cu	Cu	0.50000 0.18740 0.76360 0.47400
Cu	Cu	0.50000 0.81260 0.76360 0.47700
Cu	Cu	0.23640 0.50000 0.18740 0.46300
Cu	Cu	0.23640 0.50000 0.81260 0.46600
Cu	Cu	0.76360 0.50000 0.18740 0.47400
Cu	Cu	0.76360 0.50000 0.81260 0.47700
Cu	Cu	0.18740 0.23640 0.50000 0.46300
Cu	Cu	0.81260 0.23640 0.50000 0.46600
Cu	Cu	0.18740 0.76360 0.50000 0.47400
Cu	Cu	0.81260 0.76360 0.50000 0.47700
Cu	Cu	0.68740 0.00000 0.26360 0.45800
Cu	Cu	0.31260 0.00000 0.26360 0.45800
Cu	Cu	0.68740 0.00000 0.73640 0.45100
Cu	Cu	0.31260 0.00000 0.73640 0.45100
Cu	Cu	-0.00000 0.73640 0.31260 0.45100
Cu	Cu	-0.00000 0.73640 0.68740 0.45100
Cu	Cu	-0.00000 0.26360 0.31260 0.45800
Cu	Cu	-0.00000 0.26360 0.68740 0.45800
Cu	Cu	0.73640 0.68740 -0.00000 0.45100
Cu	Cu	0.73640 0.31260 -0.00000 0.45100
Cu	Cu	0.26360 0.68740 -0.00000 0.45800
Cu	Cu	0.26360 0.31260 -0.00000 0.45800
Cu	Cu	0.25000 0.25000 0.25000 0.96400
Cu	Cu	0.75000 0.75000 0.25000 0.96500
Cu	Cu	0.75000 0.25000 0.75000 0.96500
Cu	Cu	0.25000 0.75000 0.75000 0.96500
Cu	Cu	0.75000 0.75000 0.75000 0.96600
Cu	Cu	0.25000 0.25000 0.75000 0.96400
Cu	Cu	0.25000 0.75000 0.25000 0.96400
Cu	Cu	0.75000 0.25000 0.25000 0.96400
Cu	Cu	0.24200 0.31200 -0.00000 0.45500
Cu	Cu	0.75800 0.68800 -0.00000 0.46700
Cu	Cu	0.75800 0.31200 -0.00000 0.46600
Cu	Cu	0.24200 0.68800 -0.00000 0.45600
Cu	Cu	0.00000 0.24200 0.31200 0.45500
Cu	Cu	-0.00000 0.75800 0.68800 0.46700
Cu	Cu	0.00000 0.75800 0.31200 0.46600
Cu	Cu	-0.00000 0.24200 0.68800 0.45600
Cu	Cu	0.31200 0.00000 0.24200 0.45500
Cu	Cu	0.68800 -0.00000 0.75800 0.46700
Cu	Cu	0.31200 -0.00000 0.75800 0.46600
Cu	Cu	0.68800 0.00000 0.24200 0.45600
Cu	Cu	0.81200 0.74200 0.50000 0.47400
Cu	Cu	0.18800 0.25800 0.50000 0.47800
Cu	Cu	0.81200 0.25800 0.50000 0.48100
Cu	Cu	0.18800 0.74200 0.50000 0.47100
Cu	Cu	0.74200 0.50000 0.18800 0.47100
Cu	Cu	0.25800 0.50000 0.81200 0.48100
Cu	Cu	0.25800 0.50000 0.18800 0.47800
Cu	Cu	0.74200 0.50000 0.81200 0.47400
Cu	Cu	0.50000 0.81200 0.25800 0.48100
Cu	Cu	0.50000 0.18800 0.74200 0.47100
Cu	Cu	0.50000 0.81200 0.74200 0.47400
Cu	Cu	0.50000 0.18800 0.25800 0.47800
