data_crystal

_cell_length_a 16.96500
_cell_length_b 15.51710
_cell_length_c 14.07260
_cell_angle_alpha 90.00000
_cell_angle_beta  108.11900
_cell_angle_gamma 90.00000

_symmetry_space_group_name_	'P 1'
_symmetry_space_group_name_H-M	'P 1'

loop_
_symmetry_equiv_pos_as_xyz
  x,y,z

loop_
_atom_site_label
_atom_site_type_symbol
_atom_site_fract_x
_atom_site_fract_y
_atom_site_fract_z
_atom_site_charge
Zn	Zn	0.51225 0.70437 0.63636 1.24200
O 	O 	0.48060 0.31930 0.49330 -0.45900
O 	O 	0.49880 0.19470 0.56770 -0.27900
O 	O 	0.51010 0.58480 0.67620 -0.49800
O 	O 	0.40540 0.75400 0.62490 -0.50700
O 	O 	0.39540 0.76630 0.77790 -0.51200
O 	O 	0.05560 0.88360 0.36280 -0.46900
O 	O 	0.17090 0.84070 0.33160 -0.27000
O 	O 	0.06580 0.97850 0.68750 -0.48000
O 	O 	0.15380 0.92270 0.82510 -0.29300
C 	C 	0.49730 0.40690 0.66410 0.10700
H 	H 	0.49630 0.43700 0.60650 0.03300
C 	C 	0.49590 0.31830 0.66200 -0.15100
C 	C 	0.49120 0.27230 0.56850 0.40900
C 	C 	0.13390 0.89180 0.56310 0.11000
H 	H 	0.08330 0.91960 0.53600 0.01500
C 	C 	0.17000 0.85460 0.49990 -0.16500
C 	C 	0.24560 0.81640 0.53960 0.11200
H 	H 	0.27090 0.79140 0.49650 0.02700
C 	C 	0.28680 0.81360 0.64300 -0.17900
C 	C 	0.24380 0.85020 0.70550 0.10100
H 	H 	0.26700 0.84690 0.77460 0.03100
C 	C 	0.16840 0.89060 0.66520 -0.15600
C 	C 	0.36790 0.77460 0.68500 0.46000
C 	C 	0.13130 0.85980 0.39110 0.36800
C 	C 	0.12960 0.93430 0.73350 0.37500
Zn	Zn	0.48775 0.70437 0.86364 1.24300
O 	O 	0.51940 0.31930 0.00670 -0.45300
O 	O 	0.50120 0.19470 0.93230 -0.27900
O 	O 	0.48990 0.58480 0.82380 -0.50000
O 	O 	0.59460 0.75400 0.87510 -0.49900
O 	O 	0.60460 0.76630 0.72210 -0.50300
O 	O 	0.94440 0.88360 0.13720 -0.36200
O 	O 	0.82910 0.84070 0.16840 -0.22400
O 	O 	0.93420 0.97850 0.81250 -0.37900
O 	O 	0.84620 0.92270 0.67490 -0.24400
C 	C 	0.50270 0.40690 0.83590 0.10600
H 	H 	0.50370 0.43700 0.89350 0.03300
C 	C 	0.50410 0.31830 0.83800 -0.15000
C 	C 	0.50880 0.27230 0.93150 0.40500
C 	C 	0.86610 0.89180 0.93690 0.06200
H 	H 	0.91670 0.91960 0.96400 0.07400
C 	C 	0.83000 0.85460 0.00010 -0.09800
C 	C 	0.75440 0.81640 0.96040 0.07500
H 	H 	0.72910 0.79140 0.00350 0.05000
C 	C 	0.71320 0.81360 0.85700 -0.14200
C 	C 	0.75620 0.85020 0.79450 0.07100
H 	H 	0.73300 0.84690 0.72540 0.05000
C 	C 	0.83160 0.89060 0.83480 -0.09400
C 	C 	0.63210 0.77460 0.81500 0.45100
C 	C 	0.86870 0.85980 0.10890 0.33900
C 	C 	0.87040 0.93430 0.76650 0.35000
Zn	Zn	0.48775 0.29563 0.36364 1.24300
O 	O 	0.51940 0.68070 0.50670 -0.45600
O 	O 	0.50120 0.80530 0.43230 -0.27800
O 	O 	0.48990 0.41520 0.32380 -0.49900
O 	O 	0.59460 0.24600 0.37510 -0.49900
O 	O 	0.60460 0.23370 0.22210 -0.50300
O 	O 	0.94440 0.11640 0.63720 -0.36300
O 	O 	0.82910 0.15930 0.66840 -0.22600
O 	O 	0.93420 0.02150 0.31250 -0.37800
O 	O 	0.84620 0.07730 0.17490 -0.24300
C 	C 	0.50270 0.59310 0.33590 0.10700
H 	H 	0.50370 0.56300 0.39350 0.03400
C 	C 	0.50410 0.68170 0.33800 -0.15100
C 	C 	0.50880 0.72770 0.43150 0.40900
C 	C 	0.86610 0.10820 0.43690 0.06800
H 	H 	0.91670 0.08040 0.46400 0.07400
C 	C 	0.83000 0.14540 0.50010 -0.10500
C 	C 	0.75440 0.18360 0.46040 0.08400
H 	H 	0.72910 0.20860 0.50350 0.04600
C 	C 	0.71320 0.18640 0.35700 -0.14600
C 	C 	0.75620 0.14980 0.29450 0.07400
H 	H 	0.73300 0.15310 0.22540 0.05000
C 	C 	0.83160 0.10940 0.33480 -0.09600
C 	C 	0.63210 0.22540 0.31500 0.45300
C 	C 	0.86870 0.14020 0.60890 0.34200
C 	C 	0.87040 0.06570 0.26650 0.35100
Zn	Zn	0.51225 0.29563 0.13636 1.24300
O 	O 	0.48060 0.68070 0.99330 -0.46100
O 	O 	0.49880 0.80530 0.06770 -0.27900
O 	O 	0.51010 0.41520 0.17620 -0.49700
O 	O 	0.40540 0.24600 0.12490 -0.50700
O 	O 	0.39540 0.23370 0.27790 -0.51300
O 	O 	0.05560 0.11640 0.86280 -0.47100
O 	O 	0.17090 0.15930 0.83160 -0.27200
O 	O 	0.06580 0.02150 0.18750 -0.48000
O 	O 	0.15380 0.07730 0.32510 -0.29400
C 	C 	0.49730 0.59310 0.16410 0.10800
H 	H 	0.49630 0.56300 0.10650 0.03400
C 	C 	0.49590 0.68170 0.16200 -0.15200
C 	C 	0.49120 0.72770 0.06850 0.41100
C 	C 	0.13390 0.10820 0.06310 0.12500
H 	H 	0.08330 0.08040 0.03600 0.01100
C 	C 	0.17000 0.14540 0.99990 -0.18300
C 	C 	0.24560 0.18360 0.03960 0.13300
H 	H 	0.27090 0.20860 0.99650 0.01800
C 	C 	0.28680 0.18640 0.14300 -0.18800
C 	C 	0.24380 0.14980 0.20550 0.11000
H 	H 	0.26700 0.15310 0.27460 0.02800
C 	C 	0.16840 0.10940 0.16520 -0.16400
C 	C 	0.36790 0.22540 0.18500 0.46500
C 	C 	0.13130 0.14020 0.89110 0.37400
C 	C 	0.12960 0.06570 0.23350 0.37800
Zn	Zn	-0.00000 0.95650 0.25000 1.21500
Zn	Zn	-0.00000 0.04350 0.75000 1.21500
C 	C 	0.50000 0.27400 0.75000 0.09600
H 	H 	0.50000 0.21400 0.75000 0.03900
C 	C 	0.50000 0.45260 0.75000 -0.16900
C 	C 	0.50000 0.54840 0.75000 0.45700
C 	C 	0.50000 0.72600 0.25000 0.09700
H 	H 	0.50000 0.78600 0.25000 0.03900
C 	C 	0.50000 0.54740 0.25000 -0.17000
C 	C 	0.50000 0.45160 0.25000 0.45800
