data_crystal

_cell_length_a 24.00000
_cell_length_b 11.07680
_cell_length_c 34.99100
_cell_angle_alpha 90.00000
_cell_angle_beta  99.66000
_cell_angle_gamma 90.00000

_symmetry_space_group_name_	'P 1'
_symmetry_space_group_name_H-M	'P 1'

loop_
_symmetry_equiv_pos_as_xyz
  x,y,z

loop_
_atom_site_label
_atom_site_type_symbol
_atom_site_fract_x
_atom_site_fract_y
_atom_site_fract_z
_atom_site_charge
Mn	Mn	0.67387 0.53518 0.50519 1.25300
Mn	Mn	0.74580 0.25600 0.49870 0.62000
C 	C 	0.77511 0.43600 0.61449 -0.29000
C 	C 	0.79659 0.33890 0.63604 0.24100
H 	H 	0.79330 0.26280 0.62470 -0.03900
C 	C 	0.82300 0.34940 0.67405 -0.35100
H 	H 	0.83660 0.28130 0.68820 0.15700
C 	C 	0.82880 0.46170 0.69068 0.34600
C 	C 	0.80690 0.56040 0.66949 -0.35800
H 	H 	0.80960 0.63650 0.68090 0.16500
C 	C 	0.78140 0.54760 0.63223 0.24500
H 	H 	0.76780 0.61580 0.61820 -0.04700
C 	C 	0.88705 0.39060 0.74925 0.02000
H 	H 	0.86230 0.33130 0.75810 0.03900
H 	H 	0.91060 0.35040 0.73320 0.03600
C 	C 	0.92372 0.45230 0.78396 0.01500
C 	C 	0.96422 0.54060 0.76973 -0.02300
H 	H 	0.98620 0.58300 0.79140 0.05200
H 	H 	0.94340 0.59960 0.75240 0.05200
C 	C 	0.88740 0.51960 0.80835 0.02100
H 	H 	0.86640 0.58340 0.79330 0.04100
H 	H 	0.91080 0.55550 0.83080 0.03400
C 	C 	0.95557 0.35130 0.80827 0.03300
H 	H 	0.97630 0.30230 0.79250 0.03000
H 	H 	0.92930 0.29980 0.81900 0.02900
C 	C 	0.02292 0.33860 0.86686 0.35300
C 	C 	0.06670 0.39300 0.89057 -0.35100
H 	H 	0.07510 0.47330 0.88640 0.16600
C 	C 	0.09846 0.33130 0.92043 0.23400
H 	H 	0.12840 0.37000 0.93600 -0.04100
C 	C 	0.08681 0.21380 0.92763 -0.26200
C 	C 	0.12240 0.14040 0.95926 0.43500
C 	C 	0.04250 0.15830 0.90371 0.21200
H 	H 	0.03370 0.07820 0.90800 -0.03500
C 	C 	0.01090 0.22140 0.87329 -0.34000
H 	H 	0.98140 0.18320 0.85720 0.14400
C 	C 	0.74810 0.42380 0.57305 0.46300
C 	C 	0.75830 0.49360 0.95696 0.43500
C 	C 	0.78237 0.47890 0.92048 -0.25000
C 	C 	0.78200 0.36910 0.90201 0.19800
H 	H 	0.76660 0.30230 0.91250 -0.03500
C 	C 	0.82750 0.45480 0.85315 0.31100
C 	C 	0.82820 0.56660 0.87074 -0.30700
H 	H 	0.84330 0.63350 0.86010 0.13900
C 	C 	0.80380 0.35620 0.86848 -0.31500
H 	H 	0.80270 0.28160 0.85610 0.14600
C 	C 	0.80560 0.57650 0.90481 0.19200
H 	H 	0.80640 0.65090 0.91720 -0.02400
O 	O 	0.85449 0.48520 0.72782 -0.26000
O 	O 	0.84937 0.43340 0.82037 -0.25400
O 	O 	0.99356 0.40860 0.83865 -0.27100
O 	O 	0.75050 0.32420 0.55702 -0.46000
O 	O 	0.72506 0.51730 0.55694 -0.52700
O 	O 	0.72513 0.41300 0.96501 -0.48100
O 	O 	0.11142 0.03230 0.96194 -0.49700
O 	O 	0.16083 0.19420 0.98152 -0.49300
O 	O 	0.77270 0.58340 0.97762 -0.47500
Mn	Mn	0.17387 0.03518 0.50519 1.25400
Mn	Mn	0.24580 0.75600 0.49870 0.62100
C 	C 	0.27511 0.93600 0.61449 -0.28900
C 	C 	0.29659 0.83890 0.63604 0.24100
H 	H 	0.29330 0.76280 0.62470 -0.03900
C 	C 	0.32300 0.84940 0.67405 -0.35100
H 	H 	0.33660 0.78130 0.68820 0.15700
C 	C 	0.32880 0.96170 0.69068 0.34700
C 	C 	0.30690 0.06040 0.66949 -0.35800
H 	H 	0.30960 0.13650 0.68090 0.16500
C 	C 	0.28140 0.04760 0.63223 0.24500
H 	H 	0.26780 0.11580 0.61820 -0.04700
C 	C 	0.38705 0.89060 0.74925 0.02000
H 	H 	0.36230 0.83130 0.75810 0.03900
H 	H 	0.41060 0.85040 0.73320 0.03700
C 	C 	0.42372 0.95230 0.78396 0.01500
C 	C 	0.46422 0.04060 0.76973 -0.01800
H 	H 	0.48620 0.08300 0.79140 0.05200
H 	H 	0.44340 0.09960 0.75240 0.05100
C 	C 	0.38740 0.01960 0.80835 0.02100
H 	H 	0.36640 0.08340 0.79330 0.04100
H 	H 	0.41080 0.05550 0.83080 0.03500
C 	C 	0.45557 0.85130 0.80827 0.03200
H 	H 	0.47630 0.80230 0.79250 0.03200
H 	H 	0.42930 0.79980 0.81900 0.03000
C 	C 	0.52292 0.83860 0.86686 0.35300
C 	C 	0.56670 0.89300 0.89057 -0.35300
H 	H 	0.57510 0.97330 0.88640 0.16500
C 	C 	0.59846 0.83130 0.92043 0.23600
H 	H 	0.62840 0.87000 0.93600 -0.04200
C 	C 	0.58681 0.71380 0.92763 -0.26500
C 	C 	0.62240 0.64040 0.95926 0.43600
C 	C 	0.54250 0.65830 0.90371 0.21800
H 	H 	0.53370 0.57820 0.90800 -0.03900
C 	C 	0.51090 0.72140 0.87329 -0.35100
H 	H 	0.48140 0.68320 0.85720 0.15100
C 	C 	0.24810 0.92380 0.57305 0.46300
C 	C 	0.25830 0.99360 0.95696 0.43500
C 	C 	0.28237 0.97890 0.92048 -0.25000
C 	C 	0.28200 0.86910 0.90201 0.19900
H 	H 	0.26660 0.80230 0.91250 -0.03500
C 	C 	0.32750 0.95480 0.85315 0.31100
C 	C 	0.32820 0.06660 0.87074 -0.30700
H 	H 	0.34330 0.13350 0.86010 0.13900
C 	C 	0.30380 0.85620 0.86848 -0.31400
H 	H 	0.30270 0.78160 0.85610 0.14600
C 	C 	0.30560 0.07650 0.90481 0.19200
H 	H 	0.30640 0.15090 0.91720 -0.02400
O 	O 	0.35449 0.98520 0.72782 -0.25900
O 	O 	0.34937 0.93340 0.82037 -0.25400
O 	O 	0.49356 0.90860 0.83865 -0.26700
O 	O 	0.25050 0.82420 0.55702 -0.46000
O 	O 	0.22506 0.01730 0.55694 -0.52700
O 	O 	0.22513 0.91300 0.96501 -0.48100
O 	O 	0.61142 0.53230 0.96194 -0.49800
O 	O 	0.66083 0.69420 0.98152 -0.49400
O 	O 	0.27270 0.08340 0.97762 -0.47400
Mn	Mn	0.32613 0.53518 0.99481 1.25400
Mn	Mn	0.25420 0.25600 0.00130 0.62200
C 	C 	0.22489 0.43600 0.88551 -0.28900
C 	C 	0.20341 0.33890 0.86396 0.24100
H 	H 	0.20670 0.26280 0.87530 -0.03900
C 	C 	0.17700 0.34940 0.82595 -0.35100
H 	H 	0.16340 0.28130 0.81180 0.15700
C 	C 	0.17120 0.46170 0.80932 0.34700
C 	C 	0.19310 0.56040 0.83051 -0.35800
H 	H 	0.19040 0.63650 0.81910 0.16500
C 	C 	0.21860 0.54760 0.86777 0.24600
H 	H 	0.23220 0.61580 0.88180 -0.04700
C 	C 	0.11295 0.39060 0.75075 0.01900
H 	H 	0.13770 0.33130 0.74190 0.04000
H 	H 	0.08940 0.35040 0.76680 0.03800
C 	C 	0.07628 0.45230 0.71604 0.01700
C 	C 	0.03578 0.54060 0.73027 -0.02100
H 	H 	0.01380 0.58300 0.70860 0.05400
H 	H 	0.05660 0.59960 0.74760 0.05300
C 	C 	0.11260 0.51960 0.69165 0.02000
H 	H 	0.13360 0.58340 0.70670 0.04100
H 	H 	0.08920 0.55550 0.66920 0.03600
C 	C 	0.04443 0.35130 0.69173 0.02900
H 	H 	0.02370 0.30230 0.70750 0.03400
H 	H 	0.07070 0.29980 0.68100 0.03100
C 	C 	0.97708 0.33860 0.63314 0.35200
C 	C 	0.93330 0.39300 0.60943 -0.35400
H 	H 	0.92490 0.47330 0.61360 0.16500
C 	C 	0.90154 0.33130 0.57957 0.23800
H 	H 	0.87160 0.37000 0.56400 -0.04300
C 	C 	0.91319 0.21380 0.57237 -0.26900
C 	C 	0.87760 0.14040 0.54074 0.43700
C 	C 	0.95750 0.15830 0.59629 0.22400
H 	H 	0.96630 0.07820 0.59200 -0.04200
C 	C 	0.98910 0.22140 0.62671 -0.36200
H 	H 	0.01860 0.18320 0.64280 0.15700
C 	C 	0.25190 0.42380 0.92695 0.46300
C 	C 	0.24170 0.49360 0.54304 0.43500
C 	C 	0.21763 0.47890 0.57952 -0.25000
C 	C 	0.21800 0.36910 0.59799 0.19900
H 	H 	0.23340 0.30230 0.58750 -0.03500
C 	C 	0.17250 0.45480 0.64685 0.31100
C 	C 	0.17180 0.56660 0.62926 -0.30700
H 	H 	0.15670 0.63350 0.63990 0.13900
C 	C 	0.19620 0.35620 0.63152 -0.31400
H 	H 	0.19730 0.28160 0.64390 0.14600
C 	C 	0.19440 0.57650 0.59519 0.19200
H 	H 	0.19360 0.65090 0.58280 -0.02400
O 	O 	0.14551 0.48520 0.77218 -0.25900
O 	O 	0.15063 0.43340 0.67963 -0.25400
O 	O 	0.00644 0.40860 0.66135 -0.26400
O 	O 	0.24950 0.32420 0.94298 -0.46000
O 	O 	0.27494 0.51730 0.94306 -0.52700
O 	O 	0.27487 0.41300 0.53499 -0.48100
O 	O 	0.88858 0.03230 0.53806 -0.49900
O 	O 	0.83917 0.19420 0.51848 -0.49400
O 	O 	0.22730 0.58340 0.52238 -0.47400
Mn	Mn	0.82613 0.03518 0.99481 1.25400
Mn	Mn	0.75420 0.75600 0.00130 0.62100
C 	C 	0.72489 0.93600 0.88551 -0.28900
C 	C 	0.70341 0.83890 0.86396 0.24100
H 	H 	0.70670 0.76280 0.87530 -0.03900
C 	C 	0.67700 0.84940 0.82595 -0.35100
H 	H 	0.66340 0.78130 0.81180 0.15700
C 	C 	0.67120 0.96170 0.80932 0.34700
C 	C 	0.69310 0.06040 0.83051 -0.35800
H 	H 	0.69040 0.13650 0.81910 0.16500
C 	C 	0.71860 0.04760 0.86777 0.24500
H 	H 	0.73220 0.11580 0.88180 -0.04700
C 	C 	0.61295 0.89060 0.75075 0.02000
H 	H 	0.63770 0.83130 0.74190 0.03900
H 	H 	0.58940 0.85040 0.76680 0.03700
C 	C 	0.57628 0.95230 0.71604 0.01500
C 	C 	0.53578 0.04060 0.73027 -0.01800
H 	H 	0.51380 0.08300 0.70860 0.05200
H 	H 	0.55660 0.09960 0.74760 0.05100
C 	C 	0.61260 0.01960 0.69165 0.02100
H 	H 	0.63360 0.08340 0.70670 0.04100
H 	H 	0.58920 0.05550 0.66920 0.03500
C 	C 	0.54443 0.85130 0.69173 0.03200
H 	H 	0.52370 0.80230 0.70750 0.03200
H 	H 	0.57070 0.79980 0.68100 0.03000
C 	C 	0.47708 0.83860 0.63314 0.35300
C 	C 	0.43330 0.89300 0.60943 -0.35300
H 	H 	0.42490 0.97330 0.61360 0.16500
C 	C 	0.40154 0.83130 0.57957 0.23600
H 	H 	0.37160 0.87000 0.56400 -0.04200
C 	C 	0.41319 0.71380 0.57237 -0.26500
C 	C 	0.37760 0.64040 0.54074 0.43600
C 	C 	0.45750 0.65830 0.59629 0.21800
H 	H 	0.46630 0.57820 0.59200 -0.03900
C 	C 	0.48910 0.72140 0.62671 -0.35100
H 	H 	0.51860 0.68320 0.64280 0.15100
C 	C 	0.75190 0.92380 0.92695 0.46300
C 	C 	0.74170 0.99360 0.54304 0.43500
C 	C 	0.71763 0.97890 0.57952 -0.25000
C 	C 	0.71800 0.86910 0.59799 0.19900
H 	H 	0.73340 0.80230 0.58750 -0.03500
C 	C 	0.67250 0.95480 0.64685 0.31100
C 	C 	0.67180 0.06660 0.62926 -0.30700
H 	H 	0.65670 0.13350 0.63990 0.13900
C 	C 	0.69620 0.85620 0.63152 -0.31500
H 	H 	0.69730 0.78160 0.64390 0.14600
C 	C 	0.69440 0.07650 0.59519 0.19300
H 	H 	0.69360 0.15090 0.58280 -0.02400
O 	O 	0.64551 0.98520 0.77218 -0.25900
O 	O 	0.65063 0.93340 0.67963 -0.25400
O 	O 	0.50644 0.90860 0.66135 -0.26700
O 	O 	0.74950 0.82420 0.94298 -0.46000
O 	O 	0.77494 0.01730 0.94306 -0.52700
O 	O 	0.77487 0.91300 0.53499 -0.48200
O 	O 	0.38858 0.53230 0.53806 -0.49800
O 	O 	0.33917 0.69420 0.51848 -0.49400
O 	O 	0.72730 0.08340 0.52238 -0.47400
Mn	Mn	0.32613 0.46482 0.49481 1.25400
Mn	Mn	0.25420 0.74400 0.50130 0.62100
C 	C 	0.22489 0.56400 0.38551 -0.28900
C 	C 	0.20341 0.66110 0.36396 0.24100
H 	H 	0.20670 0.73720 0.37530 -0.03900
C 	C 	0.17700 0.65060 0.32595 -0.35100
H 	H 	0.16340 0.71870 0.31180 0.15700
C 	C 	0.17120 0.53830 0.30932 0.34700
C 	C 	0.19310 0.43960 0.33051 -0.35800
H 	H 	0.19040 0.36350 0.31910 0.16500
C 	C 	0.21860 0.45240 0.36777 0.24600
H 	H 	0.23220 0.38420 0.38180 -0.04700
C 	C 	0.11295 0.60940 0.25075 0.01900
H 	H 	0.13770 0.66870 0.24190 0.04000
H 	H 	0.08940 0.64960 0.26680 0.03800
C 	C 	0.07628 0.54770 0.21604 0.01700
C 	C 	0.03578 0.45940 0.23027 -0.02100
H 	H 	0.01380 0.41700 0.20860 0.05400
H 	H 	0.05660 0.40040 0.24760 0.05300
C 	C 	0.11260 0.48040 0.19165 0.02000
H 	H 	0.13360 0.41660 0.20670 0.04100
H 	H 	0.08920 0.44450 0.16920 0.03500
C 	C 	0.04443 0.64870 0.19173 0.03000
H 	H 	0.02370 0.69770 0.20750 0.03400
H 	H 	0.07070 0.70020 0.18100 0.03100
C 	C 	0.97708 0.66140 0.13314 0.35200
C 	C 	0.93330 0.60700 0.10943 -0.35400
H 	H 	0.92490 0.52670 0.11360 0.16500
C 	C 	0.90154 0.66870 0.07957 0.23800
H 	H 	0.87160 0.63000 0.06400 -0.04200
C 	C 	0.91319 0.78620 0.07237 -0.26800
C 	C 	0.87760 0.85960 0.04074 0.43700
C 	C 	0.95750 0.84170 0.09629 0.22400
H 	H 	0.96630 0.92180 0.09200 -0.04200
C 	C 	0.98910 0.77860 0.12671 -0.36100
H 	H 	0.01860 0.81680 0.14280 0.15700
C 	C 	0.25190 0.57620 0.42695 0.46300
C 	C 	0.24170 0.50640 0.04304 0.43500
C 	C 	0.21763 0.52110 0.07952 -0.25000
C 	C 	0.21800 0.63090 0.09799 0.19900
H 	H 	0.23340 0.69770 0.08750 -0.03500
C 	C 	0.17250 0.54520 0.14685 0.31100
C 	C 	0.17180 0.43340 0.12926 -0.30700
H 	H 	0.15670 0.36650 0.13990 0.13900
C 	C 	0.19620 0.64380 0.13152 -0.31400
H 	H 	0.19730 0.71840 0.14390 0.14600
C 	C 	0.19440 0.42350 0.09519 0.19200
H 	H 	0.19360 0.34910 0.08280 -0.02400
O 	O 	0.14551 0.51480 0.27218 -0.25900
O 	O 	0.15063 0.56660 0.17963 -0.25400
O 	O 	0.00644 0.59140 0.16135 -0.26500
O 	O 	0.24950 0.67580 0.44298 -0.46000
O 	O 	0.27494 0.48270 0.44306 -0.52700
O 	O 	0.27487 0.58700 0.03499 -0.48100
O 	O 	0.88858 0.96770 0.03806 -0.49900
O 	O 	0.83917 0.80580 0.01848 -0.49400
O 	O 	0.22730 0.41660 0.02238 -0.47400
Mn	Mn	0.82613 0.96482 0.49481 1.25400
Mn	Mn	0.75420 0.24400 0.50130 0.62100
C 	C 	0.72489 0.06400 0.38551 -0.28900
C 	C 	0.70341 0.16110 0.36396 0.24100
H 	H 	0.70670 0.23720 0.37530 -0.03900
C 	C 	0.67700 0.15060 0.32595 -0.35100
H 	H 	0.66340 0.21870 0.31180 0.15700
C 	C 	0.67120 0.03830 0.30932 0.34700
C 	C 	0.69310 0.93960 0.33051 -0.35800
H 	H 	0.69040 0.86350 0.31910 0.16500
C 	C 	0.71860 0.95240 0.36777 0.24500
H 	H 	0.73220 0.88420 0.38180 -0.04700
C 	C 	0.61295 0.10940 0.25075 0.02000
H 	H 	0.63770 0.16870 0.24190 0.03900
H 	H 	0.58940 0.14960 0.26680 0.03700
C 	C 	0.57628 0.04770 0.21604 0.01500
C 	C 	0.53578 0.95940 0.23027 -0.01800
H 	H 	0.51380 0.91700 0.20860 0.05200
H 	H 	0.55660 0.90040 0.24760 0.05100
C 	C 	0.61260 0.98040 0.19165 0.02100
H 	H 	0.63360 0.91660 0.20670 0.04100
H 	H 	0.58920 0.94450 0.16920 0.03500
C 	C 	0.54443 0.14870 0.19173 0.03200
H 	H 	0.52370 0.19770 0.20750 0.03200
H 	H 	0.57070 0.20020 0.18100 0.03000
C 	C 	0.47708 0.16140 0.13314 0.35300
C 	C 	0.43330 0.10700 0.10943 -0.35300
H 	H 	0.42490 0.02670 0.11360 0.16500
C 	C 	0.40154 0.16870 0.07957 0.23600
H 	H 	0.37160 0.13000 0.06400 -0.04200
C 	C 	0.41319 0.28620 0.07237 -0.26500
C 	C 	0.37760 0.35960 0.04074 0.43600
C 	C 	0.45750 0.34170 0.09629 0.21800
H 	H 	0.46630 0.42180 0.09200 -0.03900
C 	C 	0.48910 0.27860 0.12671 -0.35100
H 	H 	0.51860 0.31680 0.14280 0.15100
C 	C 	0.75190 0.07620 0.42695 0.46300
C 	C 	0.74170 0.00640 0.04304 0.43500
C 	C 	0.71763 0.02110 0.07952 -0.25000
C 	C 	0.71800 0.13090 0.09799 0.19900
H 	H 	0.73340 0.19770 0.08750 -0.03500
C 	C 	0.67250 0.04520 0.14685 0.31100
C 	C 	0.67180 0.93340 0.12926 -0.30700
H 	H 	0.65670 0.86650 0.13990 0.13900
C 	C 	0.69620 0.14380 0.13152 -0.31500
H 	H 	0.69730 0.21840 0.14390 0.14600
C 	C 	0.69440 0.92350 0.09519 0.19300
H 	H 	0.69360 0.84910 0.08280 -0.02400
O 	O 	0.64551 0.01480 0.27218 -0.25900
O 	O 	0.65063 0.06660 0.17963 -0.25400
O 	O 	0.50644 0.09140 0.16135 -0.26700
O 	O 	0.74950 0.17580 0.44298 -0.46000
O 	O 	0.77494 0.98270 0.44306 -0.52700
O 	O 	0.77487 0.08700 0.03499 -0.48100
O 	O 	0.38858 0.46770 0.03806 -0.49800
O 	O 	0.33917 0.30580 0.01848 -0.49400
O 	O 	0.72730 0.91660 0.02238 -0.47400
Mn	Mn	0.67387 0.46482 0.00519 1.25400
Mn	Mn	0.74580 0.74400 0.99870 0.62200
C 	C 	0.77511 0.56400 0.11449 -0.28900
C 	C 	0.79659 0.66110 0.13604 0.24100
H 	H 	0.79330 0.73720 0.12470 -0.03900
C 	C 	0.82300 0.65060 0.17405 -0.35100
H 	H 	0.83660 0.71870 0.18820 0.15700
C 	C 	0.82880 0.53830 0.19068 0.34600
C 	C 	0.80690 0.43960 0.16949 -0.35800
H 	H 	0.80960 0.36350 0.18090 0.16500
C 	C 	0.78140 0.45240 0.13223 0.24500
H 	H 	0.76780 0.38420 0.11820 -0.04700
C 	C 	0.88705 0.60940 0.24925 0.02000
H 	H 	0.86230 0.66870 0.25810 0.03900
H 	H 	0.91060 0.64960 0.23320 0.03600
C 	C 	0.92372 0.54770 0.28396 0.01500
C 	C 	0.96422 0.45940 0.26973 -0.02200
H 	H 	0.98620 0.41700 0.29140 0.05200
H 	H 	0.94340 0.40040 0.25240 0.05200
C 	C 	0.88740 0.48040 0.30835 0.02100
H 	H 	0.86640 0.41660 0.29330 0.04100
H 	H 	0.91080 0.44450 0.33080 0.03400
C 	C 	0.95557 0.64870 0.30827 0.03300
H 	H 	0.97630 0.69770 0.29250 0.03000
H 	H 	0.92930 0.70020 0.31900 0.02900
C 	C 	0.02292 0.66140 0.36686 0.35300
C 	C 	0.06670 0.60700 0.39057 -0.35100
H 	H 	0.07510 0.52670 0.38640 0.16500
C 	C 	0.09846 0.66870 0.42043 0.23400
H 	H 	0.12840 0.63000 0.43600 -0.04100
C 	C 	0.08681 0.78620 0.42763 -0.26200
C 	C 	0.12240 0.85960 0.45926 0.43500
C 	C 	0.04250 0.84170 0.40371 0.21300
H 	H 	0.03370 0.92180 0.40800 -0.03600
C 	C 	0.01090 0.77860 0.37329 -0.34100
H 	H 	0.98140 0.81680 0.35720 0.14500
C 	C 	0.74810 0.57620 0.07305 0.46300
C 	C 	0.75830 0.50640 0.45696 0.43500
C 	C 	0.78237 0.52110 0.42048 -0.25000
C 	C 	0.78200 0.63090 0.40201 0.19800
H 	H 	0.76660 0.69770 0.41250 -0.03500
C 	C 	0.82750 0.54520 0.35315 0.31100
C 	C 	0.82820 0.43340 0.37074 -0.30700
H 	H 	0.84330 0.36650 0.36010 0.13900
C 	C 	0.80380 0.64380 0.36848 -0.31500
H 	H 	0.80270 0.71840 0.35610 0.14600
C 	C 	0.80560 0.42350 0.40481 0.19200
H 	H 	0.80640 0.34910 0.41720 -0.02400
O 	O 	0.85449 0.51480 0.22782 -0.26000
O 	O 	0.84937 0.56660 0.32037 -0.25400
O 	O 	0.99356 0.59140 0.33865 -0.27000
O 	O 	0.75050 0.67580 0.05702 -0.46000
O 	O 	0.72506 0.48270 0.05694 -0.52700
O 	O 	0.72513 0.58700 0.46501 -0.48100
O 	O 	0.11142 0.96770 0.46194 -0.49700
O 	O 	0.16083 0.80580 0.48152 -0.49300
O 	O 	0.77270 0.41660 0.47762 -0.47500
Mn	Mn	0.17387 0.96482 0.00519 1.25400
Mn	Mn	0.24580 0.24400 0.99870 0.62100
C 	C 	0.27511 0.06400 0.11449 -0.28900
C 	C 	0.29659 0.16110 0.13604 0.24100
H 	H 	0.29330 0.23720 0.12470 -0.03900
C 	C 	0.32300 0.15060 0.17405 -0.35100
H 	H 	0.33660 0.21870 0.18820 0.15700
C 	C 	0.32880 0.03830 0.19068 0.34700
C 	C 	0.30690 0.93960 0.16949 -0.35800
H 	H 	0.30960 0.86350 0.18090 0.16500
C 	C 	0.28140 0.95240 0.13223 0.24500
H 	H 	0.26780 0.88420 0.11820 -0.04700
C 	C 	0.38705 0.10940 0.24925 0.02000
H 	H 	0.36230 0.16870 0.25810 0.03900
H 	H 	0.41060 0.14960 0.23320 0.03700
C 	C 	0.42372 0.04770 0.28396 0.01500
C 	C 	0.46422 0.95940 0.26973 -0.01800
H 	H 	0.48620 0.91700 0.29140 0.05200
H 	H 	0.44340 0.90040 0.25240 0.05100
C 	C 	0.38740 0.98040 0.30835 0.02100
H 	H 	0.36640 0.91660 0.29330 0.04100
H 	H 	0.41080 0.94450 0.33080 0.03500
C 	C 	0.45557 0.14870 0.30827 0.03200
H 	H 	0.47630 0.19770 0.29250 0.03200
H 	H 	0.42930 0.20020 0.31900 0.03000
C 	C 	0.52292 0.16140 0.36686 0.35300
C 	C 	0.56670 0.10700 0.39057 -0.35300
H 	H 	0.57510 0.02670 0.38640 0.16500
C 	C 	0.59846 0.16870 0.42043 0.23600
H 	H 	0.62840 0.13000 0.43600 -0.04200
C 	C 	0.58681 0.28620 0.42763 -0.26500
C 	C 	0.62240 0.35960 0.45926 0.43600
C 	C 	0.54250 0.34170 0.40371 0.21800
H 	H 	0.53370 0.42180 0.40800 -0.03900
C 	C 	0.51090 0.27860 0.37329 -0.35100
H 	H 	0.48140 0.31680 0.35720 0.15100
C 	C 	0.24810 0.07620 0.07305 0.46300
C 	C 	0.25830 0.00640 0.45696 0.43500
C 	C 	0.28237 0.02110 0.42048 -0.25000
C 	C 	0.28200 0.13090 0.40201 0.19900
H 	H 	0.26660 0.19770 0.41250 -0.03500
C 	C 	0.32750 0.04520 0.35315 0.31100
C 	C 	0.32820 0.93340 0.37074 -0.30700
H 	H 	0.34330 0.86650 0.36010 0.13900
C 	C 	0.30380 0.14380 0.36848 -0.31400
H 	H 	0.30270 0.21840 0.35610 0.14600
C 	C 	0.30560 0.92350 0.40481 0.19300
H 	H 	0.30640 0.84910 0.41720 -0.02400
O 	O 	0.35449 0.01480 0.22782 -0.25900
O 	O 	0.34937 0.06660 0.32037 -0.25400
O 	O 	0.49356 0.09140 0.33865 -0.26700
O 	O 	0.25050 0.17580 0.05702 -0.46000
O 	O 	0.22506 0.98270 0.05694 -0.52700
O 	O 	0.22513 0.08700 0.46501 -0.48100
O 	O 	0.61142 0.46770 0.46194 -0.49800
O 	O 	0.66083 0.30580 0.48152 -0.49400
O 	O 	0.27270 0.91660 0.47762 -0.47400
O 	O 	0.00000 0.47210 0.75000 -0.16000
O 	O 	0.50000 0.97210 0.75000 -0.16500
O 	O 	0.00000 0.52790 0.25000 -0.16000
O 	O 	0.50000 0.02790 0.25000 -0.16500
