data_crystal

_cell_length_a 10.37330
_cell_length_b 14.19080
_cell_length_c 34.21520
_cell_angle_alpha 78.30070
_cell_angle_beta  81.28100
_cell_angle_gamma 68.56200

_symmetry_space_group_name_	'P 1'
_symmetry_space_group_name_H-M	'P 1'

loop_
_symmetry_equiv_pos_as_xyz
  x,y,z

loop_
_atom_site_label
_atom_site_type_symbol
_atom_site_fract_x
_atom_site_fract_y
_atom_site_fract_z
_atom_site_charge
Mn	Mn	0.39962 0.82683 0.83793 1.31400
Mn	Mn	0.02523 0.94114 0.85526 1.23500
Mn	Mn	0.77482 0.71320 0.81838 1.23400
Mn	Mn	0.93562 0.32683 0.33793 1.30400
Mn	Mn	0.17837 0.44114 0.35526 1.24500
Mn	Mn	0.69360 0.21320 0.31838 1.23600
H 	H 	0.73910 0.80130 0.11730 0.03200
H 	H 	0.65850 0.81780 0.15960 0.02900
H 	H 	0.46990 0.80860 0.08260 0.04400
H 	H 	0.42180 0.92540 0.06360 0.03700
H 	H 	0.59040 0.00580 0.12680 0.09900
H 	H 	0.65550 0.97600 0.08460 0.06900
H 	H 	0.32190 0.96920 0.12920 0.03100
H 	H 	0.37500 0.85400 0.15020 0.03600
H 	H 	0.78540 0.67790 0.19470 0.12600
H 	H 	0.81660 0.54480 0.24880 -0.02500
H 	H 	0.55100 0.44990 0.20910 -0.01900
H 	H 	0.52120 0.57940 0.15420 0.14100
H 	H 	0.42150 0.82370 0.01610 0.11100
H 	H 	0.43640 0.78920 0.95120 -0.00500
H 	H 	0.81760 0.80840 0.92960 -0.01200
H 	H 	0.80720 0.83470 0.99430 0.11800
H 	H 	0.44270 0.04090 0.22710 0.12400
H 	H 	0.27000 0.12560 0.27240 -0.01400
H 	H 	0.99110 0.05080 0.22780 -0.07600
H 	H 	0.16230 0.96830 0.18170 0.15200
H 	H 	0.18280 0.27580 0.03140 0.04100
H 	H 	0.24490 0.16110 0.05270 0.04300
H 	H 	0.43960 0.32490 0.01410 0.03800
H 	H 	0.44640 0.35950 0.05450 0.04300
H 	H 	0.24450 0.21780 0.11640 0.04600
H 	H 	0.17650 0.33170 0.09550 0.04800
H 	H 	0.53270 0.17880 0.09180 0.05700
H 	H 	0.54920 0.15190 0.04850 0.05700
H 	H 	0.11510 0.17010 0.99770 0.13300
H 	H 	0.07040 0.09440 0.94960 -0.00600
H 	H 	0.46300 0.03040 0.90200 -0.00600
H 	H 	0.50520 0.11280 0.94700 0.13200
H 	H 	0.44790 0.47500 0.98100 0.12400
H 	H 	0.40750 0.60890 0.92670 -0.01000
H 	H 	0.00090 0.69380 0.96040 -0.00300
H 	H 	0.04060 0.55580 0.01200 0.13200
H 	H 	0.09520 0.32410 0.16550 0.13500
H 	H 	0.03100 0.35960 0.22960 -0.00700
H 	H 	0.41690 0.35270 0.23850 -0.00600
H 	H 	0.47730 0.32810 0.17250 0.12900
H 	H 	0.34230 0.30130 0.61730 0.04200
H 	H 	0.36410 0.31780 0.65960 0.03500
H 	H 	0.63890 0.30860 0.58260 0.04000
H 	H 	0.58920 0.42540 0.56360 0.03800
H 	H 	0.27700 0.50580 0.62680 0.06000
H 	H 	0.28390 0.47600 0.58460 0.05600
H 	H 	0.57970 0.46920 0.62920 0.03200
H 	H 	0.62080 0.35400 0.65020 0.03200
H 	H 	0.34200 0.17790 0.69470 0.13900
H 	H 	0.38980 0.04480 0.74880 -0.01800
H 	H 	0.79000 0.94990 0.70910 -0.01600
H 	H 	0.74520 0.07940 0.65420 0.13000
H 	H 	0.73870 0.32370 0.51610 0.13000
H 	H 	0.82320 0.28920 0.45120 -0.02100
H 	H 	0.44440 0.30840 0.42960 -0.01200
H 	H 	0.36380 0.33470 0.49430 0.14000
H 	H 	0.28930 0.54090 0.72710 0.13200
H 	H 	0.33200 0.62560 0.77240 -0.01800
H 	H 	0.73030 0.55080 0.72780 -0.02800
H 	H 	0.68770 0.46830 0.68170 0.12600
H 	H 	0.51000 0.77580 0.53140 0.02900
H 	H 	0.54130 0.66110 0.55270 0.03200
H 	H 	0.22140 0.82490 0.51410 0.03500
H 	H 	0.13960 0.85950 0.55450 0.04100
H 	H 	0.42130 0.71780 0.61640 0.03500
H 	H 	0.39630 0.83170 0.59550 0.03600
H 	H 	0.19670 0.67880 0.59180 0.05400
H 	H 	0.25040 0.65190 0.54850 0.05300
H 	H 	0.71710 0.67010 0.49770 0.13000
H 	H 	0.88560 0.59440 0.44960 -0.03500
H 	H 	0.60460 0.53040 0.40200 -0.02800
H 	H 	0.43500 0.61280 0.44700 0.13900
H 	H 	0.09610 0.97500 0.48100 0.10100
H 	H 	0.05690 0.10890 0.42670 0.00400
H 	H 	0.34490 0.19380 0.46040 -0.01800
H 	H 	0.39160 0.05580 0.51200 0.15000
H 	H 	0.41520 0.82410 0.66550 0.13700
H 	H 	0.37980 0.85960 0.72960 -0.03000
H 	H 	0.99190 0.85270 0.73850 -0.05300
H 	H 	0.02210 0.82810 0.67250 0.15400
C 	C 	0.53100 0.89461 0.11299 0.03900
C 	C 	0.65180 0.80601 0.13319 0.02100
C 	C 	0.49750 0.86865 0.07575 0.00100
C 	C 	0.57280 0.98934 0.10266 -0.12100
C 	C 	0.39910 0.91545 0.14195 0.01000
C 	C 	0.64870 0.64259 0.16961 0.29100
C 	C 	0.73780 0.63228 0.19752 -0.29200
C 	C 	0.75580 0.55251 0.23009 0.17000
C 	C 	0.68480 0.48563 0.23477 -0.22900
C 	C 	0.59800 0.49595 0.20625 0.17100
C 	C 	0.57930 0.57359 0.17341 -0.28700
C 	C 	0.70010 0.40046 0.27054 0.42700
C 	C 	0.61270 0.83192 0.01128 0.24700
C 	C 	0.50140 0.81929 0.99891 -0.23600
C 	C 	0.51030 0.79969 0.95971 0.12900
C 	C 	0.62700 0.79576 0.93384 -0.19300
C 	C 	0.73880 0.81009 0.94691 0.12300
C 	C 	0.73190 0.82678 0.98542 -0.24400
C 	C 	0.63870 0.77474 0.89206 0.37300
C 	C 	0.31860 0.99505 0.20055 0.27900
C 	C 	0.35190 0.04294 0.22726 -0.24800
C 	C 	0.24825 0.09405 0.25425 0.15500
C 	C 	0.11291 0.09808 0.25430 -0.21000
C 	C 	0.08150 0.04955 0.22745 0.26900
C 	C 	0.18410 0.99912 0.20008 -0.35800
C 	C 	0.99995 0.15517 0.28333 0.37100
C 	C 	0.35030 0.25117 0.06303 0.03100
C 	C 	0.26830 0.21956 0.03804 0.00800
C 	C 	0.38890 0.34153 0.03947 0.00300
C 	C 	0.26410 0.27732 0.10128 0.00200
C 	C 	0.48700 0.16275 0.07265 -0.04000
C 	C 	0.31570 0.14900 0.97700 0.29100
C 	C 	0.18440 0.14337 0.97823 -0.27200
C 	C 	0.15900 0.09651 0.94949 0.14700
C 	C 	0.26030 0.05375 0.92105 -0.17400
C 	C 	0.39220 0.05962 0.92078 0.15000
C 	C 	0.41780 0.10781 0.94799 -0.26800
C 	C 	0.23310 0.99953 0.89127 0.36900
C 	C 	0.24880 0.50286 0.00074 0.26900
C 	C 	0.35750 0.51828 0.97632 -0.26600
C 	C 	0.33340 0.59937 0.94403 0.15000
C 	C 	0.19800 0.66595 0.93785 -0.21000
C 	C 	0.09140 0.64894 0.96386 0.15200
C 	C 	0.11450 0.56706 0.99514 -0.25100
C 	C 	0.16950 0.75061 0.90319 0.41700
C 	C 	0.29220 0.32449 0.16251 0.27200
C 	C 	0.15850 0.33201 0.17999 -0.26700
C 	C 	0.12120 0.35143 0.21857 0.16100
C 	C 	0.21574 0.35908 0.24144 -0.20200
C 	C 	0.35170 0.34881 0.22359 0.13600
C 	C 	0.38870 0.33298 0.18422 -0.25900
C 	C 	0.17897 0.37815 0.28311 0.37600
C 	C 	0.46140 0.39461 0.61299 0.01800
C 	C 	0.40900 0.30601 0.63319 0.02400
C 	C 	0.55810 0.36865 0.57575 0.01500
C 	C 	0.33520 0.48934 0.60266 -0.03300
C 	C 	0.54350 0.41545 0.64195 0.02100
C 	C 	0.53910 0.14259 0.66961 0.28900
C 	C 	0.43240 0.13228 0.69752 -0.29400
C 	C 	0.46160 0.05251 0.73009 0.20700
C 	C 	0.59480 0.98563 0.73477 -0.24800
C 	C 	0.69980 0.99595 0.70625 0.13800
C 	C 	0.67370 0.07359 0.67341 -0.25000
C 	C 	0.62890 0.90046 0.77054 0.43100
C 	C 	0.54410 0.33192 0.51128 0.28900
C 	C 	0.68040 0.31929 0.49891 -0.28200
C 	C 	0.73030 0.29969 0.45971 0.16300
C 	C 	0.64340 0.29576 0.43384 -0.21200
C 	C 	0.50420 0.31009 0.44691 0.15300
C 	C 	0.45590 0.32678 0.48542 -0.27400
C 	C 	0.69450 0.27474 0.39206 0.38400
C 	C 	0.48580 0.49505 0.70055 0.28600
C 	C 	0.37790 0.54294 0.72726 -0.27400
C 	C 	0.40345 0.59405 0.75425 0.16400
C 	C 	0.53471 0.59808 0.75430 -0.22100
C 	C 	0.64150 0.54955 0.72745 0.16500
C 	C 	0.61670 0.49912 0.70008 -0.29000
C 	C 	0.56155 0.65517 0.78333 0.43200
C 	C 	0.33550 0.75117 0.56303 0.01400
C 	C 	0.47410 0.71956 0.53804 0.02500
C 	C 	0.23010 0.84153 0.53947 0.01800
C 	C 	0.35730 0.77732 0.60128 0.02200
C 	C 	0.27760 0.66275 0.57265 -0.02000
C 	C 	0.55830 0.64900 0.47700 0.30000
C 	C 	0.69400 0.64337 0.47823 -0.30400
C 	C 	0.79500 0.59651 0.44949 0.18100
C 	C 	0.76490 0.55375 0.42105 -0.23900
C 	C 	0.62740 0.55962 0.42078 0.18500
C 	C 	0.52640 0.60781 0.44799 -0.29900
C 	C 	0.87610 0.49953 0.39127 0.43900
C 	C 	0.24760 0.00286 0.50074 0.30900
C 	C 	0.14790 0.01828 0.47632 -0.23900
C 	C 	0.12320 0.09937 0.44403 0.14500
C 	C 	0.19820 0.16595 0.43785 -0.21300
C 	C 	0.29580 0.14894 0.46386 0.17200
C 	C 	0.32330 0.06706 0.49514 -0.29000
C 	C 	0.17670 0.25061 0.40319 0.42000
C 	C 	0.22080 0.82449 0.66251 0.29900
C 	C 	0.32950 0.83201 0.67999 -0.30000
C 	C 	0.30880 0.85143 0.71857 0.19200
C 	C 	0.18374 0.85908 0.74144 -0.24400
C 	C 	0.07590 0.84881 0.72359 0.21500
C 	C 	0.09410 0.83298 0.68422 -0.31000
C 	C 	0.15977 0.87815 0.78311 0.39300
O 	O 	0.45434 0.07372 0.08880 -0.12900
O 	O 	0.62359 0.71501 0.13601 -0.25100
O 	O 	0.62061 0.84907 0.04851 -0.23800
O 	O 	0.42876 0.94606 0.17562 -0.25700
O 	O 	0.77525 0.39489 0.29681 -0.48900
O 	O 	0.63423 0.34137 0.27197 -0.47300
O 	O 	0.55185 0.74439 0.88151 -0.47900
O 	O 	0.74121 0.78748 0.86870 -0.49300
O 	O 	0.88013 0.15095 0.28339 -0.49200
O 	O 	0.03286 0.20224 0.30484 -0.42500
O 	O 	0.35581 0.19365 0.00233 -0.25100
O 	O 	0.25878 0.42559 0.03305 -0.23600
O 	O 	0.34068 0.30954 0.12370 -0.23800
O 	O 	0.33613 0.95344 0.86950 -0.45700
O 	O 	0.10943 0.00618 0.89036 -0.45700
O 	O 	0.26739 0.75598 0.87744 -0.47700
O 	O 	0.04618 0.81336 0.90168 -0.46400
O 	O 	0.05363 0.41151 0.29683 -0.47400
O 	O 	0.27633 0.36559 0.30455 -0.47200
O 	O 	0.38314 0.57372 0.58880 -0.16300
O 	O 	0.52539 0.21501 0.63601 -0.24700
O 	O 	0.48181 0.34907 0.54851 -0.24200
O 	O 	0.44956 0.44606 0.67562 -0.25000
O 	O 	0.53305 0.89489 0.79681 -0.48900
O 	O 	0.75243 0.84137 0.77197 -0.47800
O 	O 	0.82225 0.24439 0.38151 -0.48800
O 	O 	0.60261 0.28748 0.36870 -0.48700
O 	O 	0.68553 0.65095 0.78339 -0.50500
O 	O 	0.46006 0.70224 0.80484 -0.46600
O 	O 	0.44821 0.69365 0.50233 -0.25500
O 	O 	0.28258 0.92559 0.53305 -0.26200
O 	O 	0.22608 0.80954 0.62370 -0.24800
O 	O 	0.84093 0.45344 0.36950 -0.47500
O 	O 	0.99403 0.50618 0.39036 -0.52300
O 	O 	0.09919 0.25598 0.37744 -0.46500
O 	O 	0.23878 0.31336 0.40168 -0.46300
O 	O 	0.23803 0.91151 0.79683 -0.49600
O 	O 	0.05353 0.86559 0.80455 -0.47200
