data_crystal

_cell_length_a 9.52130
_cell_length_b 10.58170
_cell_length_c 18.33190
_cell_angle_alpha 95.92700
_cell_angle_beta  99.68100
_cell_angle_gamma 114.19400

_symmetry_space_group_name_	'P 1'
_symmetry_space_group_name_H-M	'P 1'

loop_
_symmetry_equiv_pos_as_xyz
  x,y,z

loop_
_atom_site_label
_atom_site_type_symbol
_atom_site_fract_x
_atom_site_fract_y
_atom_site_fract_z
_atom_site_charge
U 	U 	0.29407 0.81252 0.25744 -0.01800
U 	U 	0.64642 0.69363 0.24719 -0.04200
U 	U 	0.00028 0.24162 0.24751 -0.02200
Ba	Ba	0.56914 0.31604 0.27747 1.73600
P 	P 	0.64802 0.03902 0.32640 0.36100
P 	P 	0.94670 0.03636 0.66519 0.38100
P 	P 	0.30371 0.48399 0.15877 0.38700
P 	P 	0.11606 0.48527 0.80697 0.37700
O 	O 	0.58970 0.88730 0.28250 -0.16500
O 	O 	0.49410 0.05660 0.31920 -0.35800
O 	O 	0.76990 0.15300 0.29670 -0.29900
O 	O 	0.11740 0.14650 0.68460 -0.18800
O 	O 	0.85190 0.06770 0.71840 -0.18400
O 	O 	0.93170 0.88750 0.66710 -0.20600
O 	O 	0.36200 0.63690 0.20280 -0.17800
O 	O 	0.45040 0.45640 0.17970 -0.34600
O 	O 	0.15430 0.37830 0.17490 -0.20400
O 	O 	0.14130 0.63380 0.79610 -0.28500
O 	O 	0.22390 0.44630 0.76500 -0.34100
O 	O 	0.94470 0.37510 0.78190 -0.18500
O 	O 	0.22610 0.17010 0.22010 -0.22900
C 	C 	0.73280 0.04670 0.42320 -0.03400
C 	C 	0.64080 0.95500 0.46440 -0.06100
H 	H 	0.53550 0.89390 0.44220 0.05500
C 	C 	0.70470 0.95440 0.53740 -0.00300
H 	H 	0.64170 0.89420 0.56450 0.01000
C 	C 	0.86180 0.04270 0.57090 -0.05600
C 	C 	0.95210 0.13780 0.53210 -0.02100
H 	H 	0.05650 0.20040 0.55510 0.03500
C 	C 	0.88660 0.14020 0.45810 -0.05400
H 	H 	0.94740 0.20540 0.43240 0.04800
C 	C 	0.25930 0.48530 0.05970 -0.03300
C 	C 	0.37580 0.53690 0.01860 -0.02900
H 	H 	0.48190 0.57060 0.04270 0.04700
C 	C 	0.33560 0.53840 0.94380 -0.01800
H 	H 	0.41470 0.57350 0.91760 0.02800
C 	C 	0.17820 0.48820 0.90630 -0.03900
C 	C 	0.11140 0.36310 0.93280 -0.01000
H 	H 	0.08060 0.27090 0.90890 0.05600
C 	C 	0.10080 0.42540 0.02290 -0.02200
H 	H 	0.01330 0.41990 0.04110 0.04800
C 	C 	0.05970 0.42820 0.94570 -0.03700
C 	C 	0.15330 0.36590 0.00980 -0.02900
C 	C 	0.32960 0.61190 0.03110 -0.03800
C 	C 	0.29260 0.61370 0.95540 -0.01700
H 	H 	0.95870 0.42380 0.93870 0.05400
H 	H 	0.13610 0.27300 0.01060 0.04800
H 	H 	0.40180 0.69470 0.06430 0.05800
H 	H 	0.34170 0.69560 0.93700 0.02000
U 	U 	0.70593 0.18748 0.74256 -0.01700
U 	U 	0.35358 0.30637 0.75281 -0.04100
U 	U 	0.99972 0.75838 0.75249 -0.02100
Ba	Ba	0.43086 0.68396 0.72253 1.73700
P 	P 	0.35198 0.96098 0.67360 0.36100
P 	P 	0.05330 0.96364 0.33481 0.38100
P 	P 	0.69629 0.51601 0.84123 0.38700
P 	P 	0.88394 0.51473 0.19303 0.37700
O 	O 	0.41030 0.11270 0.71750 -0.16500
O 	O 	0.50590 0.94340 0.68080 -0.35800
O 	O 	0.23010 0.84700 0.70330 -0.29900
O 	O 	0.88260 0.85350 0.31540 -0.18800
O 	O 	0.14810 0.93230 0.28160 -0.18400
O 	O 	0.06830 0.11250 0.33290 -0.20600
O 	O 	0.63800 0.36310 0.79720 -0.17800
O 	O 	0.54960 0.54360 0.82030 -0.34600
O 	O 	0.84570 0.62170 0.82510 -0.20400
O 	O 	0.85870 0.36620 0.20390 -0.28500
O 	O 	0.77610 0.55370 0.23500 -0.34100
O 	O 	0.05530 0.62490 0.21810 -0.18500
O 	O 	0.77390 0.82990 0.77990 -0.22900
C 	C 	0.26720 0.95330 0.57680 -0.03400
C 	C 	0.35920 0.04500 0.53560 -0.06100
H 	H 	0.46450 0.10610 0.55780 0.05500
C 	C 	0.29530 0.04560 0.46260 -0.00300
H 	H 	0.35830 0.10580 0.43550 0.01000
C 	C 	0.13820 0.95730 0.42910 -0.05600
C 	C 	0.04790 0.86220 0.46790 -0.02100
H 	H 	0.94350 0.79960 0.44490 0.03500
C 	C 	0.11340 0.85980 0.54190 -0.05400
H 	H 	0.05260 0.79460 0.56760 0.04800
C 	C 	0.74070 0.51470 0.94030 -0.03300
C 	C 	0.62420 0.46310 0.98140 -0.02900
H 	H 	0.51810 0.42940 0.95730 0.04700
C 	C 	0.66440 0.46160 0.05620 -0.01800
H 	H 	0.58530 0.42650 0.08240 0.02800
C 	C 	0.82180 0.51180 0.09370 -0.03900
C 	C 	0.88860 0.63690 0.06720 -0.01000
H 	H 	0.91940 0.72910 0.09110 0.05600
C 	C 	0.89920 0.57460 0.97710 -0.02200
H 	H 	0.98670 0.58010 0.95890 0.04800
C 	C 	0.94030 0.57180 0.05430 -0.03700
C 	C 	0.84670 0.63410 0.99020 -0.02900
C 	C 	0.67040 0.38810 0.96890 -0.03800
C 	C 	0.70740 0.38630 0.04460 -0.01700
H 	H 	0.04130 0.57620 0.06130 0.05400
H 	H 	0.86390 0.72700 0.98940 0.04800
H 	H 	0.59820 0.30530 0.93570 0.05800
H 	H 	0.65830 0.30440 0.06300 0.02000
