data_crystal

_cell_length_a 7.11900
_cell_length_b 14.10510
_cell_length_c 17.69800
_cell_angle_alpha 90.00000
_cell_angle_beta  90.00000
_cell_angle_gamma 90.00000

_symmetry_space_group_name_	'P 1'
_symmetry_space_group_name_H-M	'P 1'

loop_
_symmetry_equiv_pos_as_xyz
  x,y,z

loop_
_atom_site_label
_atom_site_type_symbol
_atom_site_fract_x
_atom_site_fract_y
_atom_site_fract_z
_atom_site_charge
O 	O 	0.82610 0.23020 0.88780 -0.22700
C 	C 	0.83250 0.04500 0.98410 0.07500
H 	H 	0.71880 0.07470 0.97350 0.04200
O 	O 	0.32610 0.73020 0.88780 -0.31200
C 	C 	0.33250 0.54500 0.98410 -0.04600
H 	H 	0.21880 0.57470 0.97350 0.05100
O 	O 	0.17390 0.76980 0.38780 -0.31700
C 	C 	0.16750 0.95500 0.48410 -0.02800
H 	H 	0.28120 0.92530 0.47350 0.06100
O 	O 	0.67390 0.26980 0.38780 -0.27400
C 	C 	0.66750 0.45500 0.48410 -0.04000
H 	H 	0.78120 0.42530 0.47350 0.09800
O 	O 	0.17390 0.23020 0.61220 -0.31700
C 	C 	0.16750 0.04500 0.51590 -0.02800
H 	H 	0.28120 0.07470 0.52650 0.06100
O 	O 	0.67390 0.73020 0.61220 -0.27400
C 	C 	0.66750 0.54500 0.51590 -0.04000
H 	H 	0.78120 0.57470 0.52650 0.09800
O 	O 	0.82610 0.76980 0.11220 -0.22600
C 	C 	0.83250 0.95500 0.01590 0.07600
H 	H 	0.71880 0.92530 0.02650 0.04200
O 	O 	0.32610 0.26980 0.11220 -0.31200
C 	C 	0.33250 0.45500 0.01590 -0.04600
H 	H 	0.21880 0.42530 0.02650 0.05100
O 	O 	0.17390 0.76980 0.11220 -0.31700
C 	C 	0.16750 0.95500 0.01590 -0.02800
H 	H 	0.28120 0.92530 0.02650 0.06100
O 	O 	0.67390 0.26980 0.11220 -0.27400
C 	C 	0.66750 0.45500 0.01590 -0.04000
H 	H 	0.78120 0.42530 0.02650 0.09800
O 	O 	0.82610 0.23020 0.61220 -0.22500
C 	C 	0.83250 0.04500 0.51590 0.07700
H 	H 	0.71880 0.07470 0.52650 0.04100
O 	O 	0.32610 0.73020 0.61220 -0.31200
C 	C 	0.33250 0.54500 0.51590 -0.04600
H 	H 	0.21880 0.57470 0.52650 0.05100
O 	O 	0.82610 0.76980 0.38780 -0.22500
C 	C 	0.83250 0.95500 0.48410 0.07700
H 	H 	0.71880 0.92530 0.47350 0.04100
O 	O 	0.32610 0.26980 0.38780 -0.31200
C 	C 	0.33250 0.45500 0.48410 -0.04600
H 	H 	0.21880 0.42530 0.47350 0.05100
O 	O 	0.17390 0.23020 0.88780 -0.31700
C 	C 	0.16750 0.04500 0.98410 -0.02800
H 	H 	0.28120 0.07470 0.97350 0.06100
O 	O 	0.67390 0.73020 0.88780 -0.27400
C 	C 	0.66750 0.54500 0.98410 -0.04000
H 	H 	0.78120 0.57470 0.97350 0.09800
U 	U 	0.50000 0.23000 0.86501 -0.02900
U 	U 	0.00000 0.73000 0.86501 -0.08600
U 	U 	0.50000 0.77000 0.36501 -0.02900
U 	U 	-0.00000 0.27000 0.36501 -0.08600
U 	U 	0.50000 0.23000 0.63499 -0.02900
U 	U 	0.00000 0.73000 0.63499 -0.08600
U 	U 	0.50000 0.77000 0.13499 -0.02900
U 	U 	0.00000 0.27000 0.13499 -0.08600
Sr	Sr	-0.00000 0.27511 0.75000 1.48500
Sr	Sr	0.50000 0.77511 0.75000 1.50700
Sr	Sr	0.00000 0.72489 0.25000 1.48500
Sr	Sr	0.50000 0.22489 0.25000 1.50700
P 	P 	-0.00000 0.21240 0.93622 0.29700
O 	O 	0.00000 0.27440 0.00670 -0.22300
C 	C 	0.00000 0.09140 0.96780 -0.14700
P 	P 	0.50000 0.71240 0.93622 0.36400
O 	O 	0.50000 0.77440 0.00670 -0.18000
C 	C 	0.50000 0.59140 0.96780 -0.02400
P 	P 	0.00000 0.78760 0.43622 0.29700
O 	O 	-0.00000 0.72560 0.50670 -0.22300
C 	C 	0.00000 0.90860 0.46780 -0.14800
P 	P 	0.50000 0.28760 0.43622 0.36400
O 	O 	0.50000 0.22560 0.50670 -0.17900
C 	C 	0.50000 0.40860 0.46780 -0.02300
P 	P 	0.00000 0.21240 0.56378 0.29700
O 	O 	-0.00000 0.27440 0.49330 -0.22300
C 	C 	-0.00000 0.09140 0.53220 -0.14800
P 	P 	0.50000 0.71240 0.56378 0.36400
O 	O 	0.50000 0.77440 0.49330 -0.17900
C 	C 	0.50000 0.59140 0.53220 -0.02300
P 	P 	-0.00000 0.78760 0.06378 0.29700
O 	O 	-0.00000 0.72560 0.99330 -0.22300
C 	C 	-0.00000 0.90860 0.03220 -0.14700
P 	P 	0.50000 0.28760 0.06378 0.36400
O 	O 	0.50000 0.22560 0.99330 -0.18000
C 	C 	0.50000 0.40860 0.03220 -0.02400
O 	O 	0.67160 0.23350 0.75000 -0.26500
O 	O 	0.17160 0.73350 0.75000 -0.31700
O 	O 	0.32840 0.76650 0.25000 -0.30200
O 	O 	0.82840 0.26650 0.25000 -0.22300
O 	O 	0.32840 0.23350 0.75000 -0.30200
O 	O 	0.82840 0.73350 0.75000 -0.22300
O 	O 	0.67160 0.76650 0.25000 -0.26500
O 	O 	0.17160 0.26650 0.25000 -0.31700
