data_crystal

_cell_length_a 5.58640
_cell_length_b 12.76900
_cell_length_c 15.62100
_cell_angle_alpha 90.00000
_cell_angle_beta  90.00000
_cell_angle_gamma 90.00000

_symmetry_space_group_name_	'P 1'
_symmetry_space_group_name_H-M	'P 1'

loop_
_symmetry_equiv_pos_as_xyz
  x,y,z

loop_
_atom_site_label
_atom_site_type_symbol
_atom_site_fract_x
_atom_site_fract_y
_atom_site_fract_z
_atom_site_charge
N 	N 	0.98500 0.66170 0.56370 -0.25300
C 	C 	0.84530 0.61420 0.62110 0.06700
H 	H 	0.87610 0.62490 0.67900 -0.00300
C 	C 	0.65790 0.55020 0.59850 -0.15900
H 	H 	0.56820 0.51730 0.64080 0.06800
C 	C 	0.60170 0.53420 0.51370 0.03500
C 	C 	0.74340 0.58510 0.45460 -0.14700
H 	H 	0.71260 0.57780 0.39640 0.06800
C 	C 	0.93140 0.64710 0.48210 0.08000
H 	H 	0.02520 0.68020 0.44100 -0.02900
N 	N 	0.51500 0.83830 0.56370 -0.25300
C 	C 	0.65470 0.88580 0.62110 0.06700
H 	H 	0.62390 0.87510 0.67900 -0.00400
C 	C 	0.84210 0.94980 0.59850 -0.15900
H 	H 	0.93180 0.98270 0.64080 0.06900
C 	C 	0.89830 0.96580 0.51370 0.03500
C 	C 	0.75660 0.91490 0.45460 -0.14600
H 	H 	0.78740 0.92220 0.39640 0.06800
C 	C 	0.56860 0.85290 0.48210 0.07900
H 	H 	0.47480 0.81980 0.44100 -0.02800
N 	N 	0.51500 0.66170 0.93630 -0.25300
C 	C 	0.65470 0.61420 0.87890 0.06800
H 	H 	0.62390 0.62490 0.82100 -0.00400
C 	C 	0.84210 0.55020 0.90150 -0.15900
H 	H 	0.93180 0.51730 0.85920 0.06900
C 	C 	0.89830 0.53420 0.98630 0.03600
C 	C 	0.75660 0.58510 0.04540 -0.14800
H 	H 	0.78740 0.57780 0.10360 0.06800
C 	C 	0.56860 0.64710 0.01790 0.08000
H 	H 	0.47480 0.68020 0.05900 -0.02800
N 	N 	0.98500 0.83830 0.93630 -0.25100
C 	C 	0.84530 0.88580 0.87890 0.06700
H 	H 	0.87610 0.87510 0.82100 -0.00300
C 	C 	0.65790 0.94980 0.90150 -0.15800
H 	H 	0.56820 0.98270 0.85920 0.06800
C 	C 	0.60170 0.96580 0.98630 0.03400
C 	C 	0.74340 0.91490 0.04540 -0.14500
H 	H 	0.71260 0.92220 0.10360 0.06700
C 	C 	0.93140 0.85290 0.01790 0.07700
H 	H 	0.02520 0.81980 0.05900 -0.02800
N 	N 	0.01500 0.33830 0.43630 -0.25300
C 	C 	0.15470 0.38580 0.37890 0.06700
H 	H 	0.12390 0.37510 0.32100 -0.00300
C 	C 	0.34210 0.44980 0.40150 -0.15900
H 	H 	0.43180 0.48270 0.35920 0.06800
C 	C 	0.39830 0.46580 0.48630 0.03500
C 	C 	0.25660 0.41490 0.54540 -0.14700
H 	H 	0.28740 0.42220 0.60360 0.06800
C 	C 	0.06860 0.35290 0.51790 0.08000
H 	H 	0.97480 0.31980 0.55900 -0.02900
N 	N 	0.48500 0.16170 0.43630 -0.25300
C 	C 	0.34530 0.11420 0.37890 0.06700
H 	H 	0.37610 0.12490 0.32100 -0.00400
C 	C 	0.15790 0.05020 0.40150 -0.15900
H 	H 	0.06820 0.01730 0.35920 0.06900
C 	C 	0.10170 0.03420 0.48630 0.03500
C 	C 	0.24340 0.08510 0.54540 -0.14600
H 	H 	0.21260 0.07780 0.60360 0.06800
C 	C 	0.43140 0.14710 0.51790 0.07900
H 	H 	0.52520 0.18020 0.55900 -0.02800
N 	N 	0.48500 0.33830 0.06370 -0.25300
C 	C 	0.34530 0.38580 0.12110 0.06800
H 	H 	0.37610 0.37510 0.17900 -0.00400
C 	C 	0.15790 0.44980 0.09850 -0.15900
H 	H 	0.06820 0.48270 0.14080 0.06900
C 	C 	0.10170 0.46580 0.01370 0.03600
C 	C 	0.24340 0.41490 0.95460 -0.14800
H 	H 	0.21260 0.42220 0.89640 0.06800
C 	C 	0.43140 0.35290 0.98210 0.08000
H 	H 	0.52520 0.31980 0.94100 -0.02800
N 	N 	0.01500 0.16170 0.06370 -0.25100
C 	C 	0.15470 0.11420 0.12110 0.06700
H 	H 	0.12390 0.12490 0.17900 -0.00300
C 	C 	0.34210 0.05020 0.09850 -0.15800
H 	H 	0.43180 0.01730 0.14080 0.06800
C 	C 	0.39830 0.03420 0.01370 0.03400
C 	C 	0.25660 0.08510 0.95460 -0.14500
H 	H 	0.28740 0.07780 0.89640 0.06700
C 	C 	0.06860 0.14710 0.98210 0.07700
H 	H 	0.97480 0.18020 0.94100 -0.02800
Cu	Cu	0.25000 0.75000 0.59770 0.86200
Cu	Cu	0.25000 0.75000 0.90230 0.86200
Cu	Cu	0.75000 0.25000 0.40230 0.86200
Cu	Cu	0.75000 0.25000 0.09770 0.86200
Cl	Cl	0.25000 0.75000 0.75000 -0.63600
Cl	Cl	0.75000 0.25000 0.25000 -0.63600
