data_crystal

_cell_length_a 11.42840
_cell_length_b 11.42840
_cell_length_c 30.74300
_cell_angle_alpha 90.00000
_cell_angle_beta  90.00000
_cell_angle_gamma 120.00000

_symmetry_space_group_name_	'P 1'
_symmetry_space_group_name_H-M	'P 1'

loop_
_symmetry_equiv_pos_as_xyz
  x,y,z

loop_
_atom_site_label
_atom_site_type_symbol
_atom_site_fract_x
_atom_site_fract_y
_atom_site_fract_z
_atom_site_charge
Co	Co	-0.00000 0.93788 0.16667 1.11100
Co	Co	0.93788 0.00000 0.50000 1.11600
Co	Co	0.06212 0.06212 0.83333 1.08800
Co	Co	0.91430 0.00000 -0.00000 1.16500
Co	Co	0.08570 0.08570 0.33333 1.16000
Co	Co	-0.00000 0.91430 0.66667 1.17000
H 	H 	0.44150 0.57220 0.00240 0.05800
H 	H 	0.42930 0.20460 0.99930 0.06400
H 	H 	0.22160 0.19820 0.99710 0.03900
H 	H 	0.59350 0.83610 0.12800 0.04700
H 	H 	0.36740 0.73440 0.10850 0.04900
H 	H 	0.02370 0.36160 0.10150 0.08900
H 	H 	0.02330 0.15780 0.10310 -0.01000
H 	H 	0.96870 0.51160 0.10180 0.07300
H 	H 	0.44340 0.87850 0.94720 0.07100
H 	H 	0.65020 0.88740 0.94790 -0.00100
H 	H 	0.96100 0.71060 0.10440 0.02800
H 	H 	0.28930 0.60100 0.04560 0.06700
H 	H 	0.13070 0.55850 0.33573 0.04900
H 	H 	0.77530 0.57070 0.33263 0.08000
H 	H 	0.97660 0.77840 0.33043 0.04500
H 	H 	0.24260 0.40650 0.46133 0.03700
H 	H 	0.36700 0.63260 0.44183 0.05000
H 	H 	0.33790 0.97630 0.43483 0.09300
H 	H 	0.13450 0.97670 0.43643 -0.00000
H 	H 	0.54290 0.03130 0.43513 0.07500
H 	H 	0.43510 0.55660 0.28053 0.08100
H 	H 	0.23720 0.34980 0.28123 -0.00600
H 	H 	0.74960 0.03900 0.43773 0.01000
H 	H 	0.31170 0.71070 0.37893 0.07400
H 	H 	0.42780 0.86930 0.66907 0.07700
H 	H 	0.79540 0.22470 0.66597 0.06600
H 	H 	0.80180 0.02340 0.66377 0.00600
H 	H 	0.16390 0.75740 0.79467 0.02700
H 	H 	0.26560 0.63300 0.77517 0.05000
H 	H 	0.63840 0.66210 0.76817 0.09600
H 	H 	0.84220 0.86550 0.76977 0.01800
H 	H 	0.48840 0.45710 0.76847 0.08700
H 	H 	0.12150 0.56490 0.61387 0.07100
H 	H 	0.11260 0.76280 0.61457 0.00800
H 	H 	0.28940 0.25040 0.77107 0.00100
H 	H 	0.39900 0.68830 0.71227 0.06400
H 	H 	0.86930 0.42780 0.99760 0.08100
H 	H 	0.22470 0.79540 0.00070 0.05400
H 	H 	0.02340 0.80180 0.00290 0.01700
H 	H 	0.75740 0.16390 0.87200 0.02800
H 	H 	0.63300 0.26560 0.89150 0.05000
H 	H 	0.66210 0.63840 0.89850 0.09600
H 	H 	0.86550 0.84220 0.89690 0.01900
H 	H 	0.45710 0.48840 0.89820 0.08700
H 	H 	0.56490 0.12150 0.05280 0.07100
H 	H 	0.76280 0.11260 0.05210 0.00800
H 	H 	0.25040 0.28940 0.89560 0.00100
H 	H 	0.68830 0.39900 0.95440 0.06500
H 	H 	0.57220 0.44150 0.66427 0.06100
H 	H 	0.20460 0.42930 0.66737 0.07400
H 	H 	0.19820 0.22160 0.66957 0.02600
H 	H 	0.83610 0.59350 0.53867 0.04800
H 	H 	0.73440 0.36740 0.55817 0.04900
H 	H 	0.36160 0.02370 0.56517 0.08600
H 	H 	0.15780 0.02330 0.56357 -0.00800
H 	H 	0.51160 0.96870 0.56487 0.08700
H 	H 	0.87850 0.44340 0.71947 0.07000
H 	H 	0.88740 0.65020 0.71877 0.00100
H 	H 	0.71060 0.96100 0.56227 0.01000
H 	H 	0.60100 0.28930 0.62107 0.06800
H 	H 	0.55850 0.13070 0.33093 0.05000
H 	H 	0.57070 0.77530 0.33403 0.08000
H 	H 	0.77840 0.97660 0.33623 0.04400
H 	H 	0.40650 0.24260 0.20533 0.03700
H 	H 	0.63260 0.36700 0.22483 0.05000
H 	H 	0.97630 0.33790 0.23183 0.09600
H 	H 	0.97670 0.13450 0.23023 -0.00100
H 	H 	0.03130 0.54290 0.23153 0.06100
H 	H 	0.55660 0.43510 0.38613 0.08100
H 	H 	0.34980 0.23720 0.38543 -0.00500
H 	H 	0.03900 0.74960 0.22893 0.02700
H 	H 	0.71070 0.31170 0.28773 0.07400
C 	C 	0.47310 0.62870 0.02736 -0.01900
C 	C 	0.80430 0.85490 0.08966 0.37500
C 	C 	0.65720 0.77510 0.07497 -0.07400
C 	C 	0.34760 0.12020 0.99931 -0.07000
C 	C 	0.22260 0.11560 0.99862 0.00700
C 	C 	0.61130 0.69590 0.03760 -0.04600
C 	C 	0.56370 0.78550 0.10175 -0.00300
C 	C 	0.42890 0.72320 0.09057 -0.03800
C 	C 	0.01390 0.31680 0.12843 -0.13400
C 	C 	0.01350 0.19440 0.12967 0.06100
C 	C 	0.98060 0.55680 0.12878 -0.03800
C 	C 	0.50830 0.92930 0.96888 -0.08200
C 	C 	0.63170 0.93410 0.96995 0.12100
C 	C 	0.97850 0.67730 0.13042 0.04600
C 	C 	0.38220 0.64400 0.05325 -0.04000
C 	C 	0.15560 0.52690 0.36069 -0.00500
C 	C 	0.05060 0.19570 0.42299 0.37700
C 	C 	0.11790 0.34280 0.40830 -0.07800
C 	C 	0.77260 0.65240 0.33264 -0.10600
C 	C 	0.89300 0.77740 0.33195 0.06200
C 	C 	0.08460 0.38870 0.37093 -0.08100
C 	C 	0.22180 0.43630 0.43508 -0.00900
C 	C 	0.29430 0.57110 0.42390 -0.03700
C 	C 	0.30290 0.98610 0.46176 -0.08900
C 	C 	0.18090 0.98650 0.46300 0.08800
C 	C 	0.57620 0.01940 0.46211 -0.11500
C 	C 	0.42100 0.49170 0.30221 -0.13500
C 	C 	0.30240 0.36830 0.30328 0.08600
C 	C 	0.69880 0.02150 0.46375 0.06200
C 	C 	0.26180 0.61780 0.38658 -0.05100
C 	C 	0.37130 0.84440 0.69403 -0.03500
C 	C 	0.14510 0.94940 0.75633 0.38500
C 	C 	0.22490 0.88210 0.74164 -0.09500
C 	C 	0.87980 0.22740 0.66598 -0.07900
C 	C 	0.88440 0.10700 0.66529 0.07200
C 	C 	0.30410 0.91540 0.70427 -0.01200
C 	C 	0.21450 0.77820 0.76842 0.00800
C 	C 	0.27680 0.70570 0.75724 -0.05700
C 	C 	0.68320 0.69710 0.79510 -0.12400
C 	C 	0.80560 0.81910 0.79634 0.07500
C 	C 	0.44320 0.42380 0.79545 -0.12500
C 	C 	0.07070 0.57900 0.63555 -0.11900
C 	C 	0.06590 0.69760 0.63662 0.06500
C 	C 	0.32270 0.30120 0.79709 0.07100
C 	C 	0.35600 0.73820 0.71992 -0.02300
C 	C 	0.84440 0.37130 0.97264 -0.03300
C 	C 	0.94940 0.14510 0.91034 0.38500
C 	C 	0.88210 0.22490 0.92503 -0.09300
C 	C 	0.22740 0.87980 0.00069 -0.05000
C 	C 	0.10700 0.88440 0.00138 0.02600
C 	C 	0.91540 0.30410 0.96240 -0.01200
C 	C 	0.77820 0.21450 0.89825 0.00800
C 	C 	0.70570 0.27680 0.90943 -0.05600
C 	C 	0.69710 0.68320 0.87157 -0.12300
C 	C 	0.81910 0.80560 0.87033 0.07500
C 	C 	0.42380 0.44320 0.87122 -0.12500
C 	C 	0.57900 0.07070 0.03112 -0.12300
C 	C 	0.69760 0.06590 0.03005 0.06500
C 	C 	0.30120 0.32270 0.86958 0.07100
C 	C 	0.73820 0.35600 0.94675 -0.02200
C 	C 	0.62870 0.47310 0.63931 -0.01500
C 	C 	0.85490 0.80430 0.57701 0.37300
C 	C 	0.77510 0.65720 0.59170 -0.07100
C 	C 	0.12020 0.34760 0.66736 -0.10700
C 	C 	0.11560 0.22260 0.66805 0.04300
C 	C 	0.69590 0.61130 0.62907 -0.05000
C 	C 	0.78550 0.56370 0.56492 -0.00400
C 	C 	0.72320 0.42890 0.57610 -0.03700
C 	C 	0.31680 0.01390 0.53824 -0.12500
C 	C 	0.19440 0.01350 0.53700 0.05800
C 	C 	0.55680 0.98060 0.53789 -0.08100
C 	C 	0.92930 0.50830 0.69779 -0.08700
C 	C 	0.93410 0.63170 0.69672 0.11200
C 	C 	0.67730 0.97850 0.53625 0.10500
C 	C 	0.64400 0.38220 0.61342 -0.04100
C 	C 	0.52690 0.15560 0.30597 -0.00500
C 	C 	0.19570 0.05060 0.24367 0.37800
C 	C 	0.34280 0.11790 0.25836 -0.07900
C 	C 	0.65240 0.77260 0.33402 -0.10600
C 	C 	0.77740 0.89300 0.33471 0.06200
C 	C 	0.38870 0.08460 0.29573 -0.07900
C 	C 	0.43630 0.22180 0.23158 -0.00900
C 	C 	0.57110 0.29430 0.24276 -0.03800
C 	C 	0.98610 0.30290 0.20490 -0.09600
C 	C 	0.98650 0.18090 0.20366 0.09400
C 	C 	0.01940 0.57620 0.20455 -0.07500
C 	C 	0.49170 0.42100 0.36445 -0.13500
C 	C 	0.36830 0.30240 0.36338 0.08600
C 	C 	0.02150 0.69880 0.20291 0.00100
C 	C 	0.61780 0.26180 0.28008 -0.05000
C 	C 	0.00000 0.50260 0.16667 -0.01700
C 	C 	0.00000 0.37190 0.16667 0.04000
C 	C 	0.50260 0.00000 0.50000 0.01600
C 	C 	0.37190 0.00000 0.50000 0.02800
C 	C 	0.49740 0.49740 0.83333 0.05400
C 	C 	0.62810 0.62810 0.83333 0.06000
C 	C 	0.48130 0.00000 -0.00000 0.02100
C 	C 	0.35080 0.00000 -0.00000 -0.02200
C 	C 	0.51870 0.51870 0.33333 0.06800
C 	C 	0.64920 0.64920 0.33333 0.03900
C 	C 	-0.00000 0.48130 0.66667 0.02100
C 	C 	0.00000 0.35080 0.66667 0.00700
S 	S 	0.72094 0.66746 0.00296 0.44900
S 	S 	0.94652 0.27906 0.33629 0.50600
S 	S 	0.33254 0.05348 0.66963 0.44100
S 	S 	0.05348 0.33254 0.99704 0.45900
S 	S 	0.66746 0.72094 0.66371 0.47300
S 	S 	0.27906 0.94652 0.33037 0.50500
N 	N 	0.00000 0.12620 0.16667 -0.26700
N 	N 	1.00000 0.74780 0.16667 -0.18800
N 	N 	0.12620 0.00000 0.50000 -0.26400
N 	N 	0.74780 0.00000 0.50000 -0.25600
N 	N 	0.87380 0.87380 0.83333 -0.22100
N 	N 	0.25220 0.25220 0.83333 -0.24400
N 	N 	0.10560 1.00000 -0.00000 -0.19200
N 	N 	0.72590 0.00000 -0.00000 -0.25600
N 	N 	0.89440 0.89440 0.33333 -0.18700
N 	N 	0.27410 0.27410 0.33333 -0.23200
N 	N 	0.00000 0.10560 0.66667 -0.23600
N 	N 	-0.00000 0.72590 0.66667 -0.25000
O 	O 	0.89560 0.93200 0.06328 -0.40200
O 	O 	0.80580 0.79520 0.97903 -0.35400
O 	O 	0.63230 0.56130 0.97314 -0.25200
O 	O 	0.82560 0.84380 0.12866 -0.42000
O 	O 	0.80020 0.63300 0.03148 -0.24900
O 	O 	0.03640 0.10440 0.39661 -0.46500
O 	O 	0.98940 0.19420 0.31236 -0.38400
O 	O 	0.92900 0.36770 0.30647 -0.25700
O 	O 	0.01820 0.17440 0.46199 -0.46100
O 	O 	0.83280 0.19980 0.36481 -0.26700
O 	O 	0.06800 0.96360 0.72995 -0.44400
O 	O 	0.20480 0.01060 0.64570 -0.40100
O 	O 	0.43870 0.07100 0.63981 -0.27100
O 	O 	0.15620 0.98180 0.79533 -0.43700
O 	O 	0.36700 0.16720 0.69815 -0.26200
O 	O 	0.96360 0.06800 0.93672 -0.44200
O 	O 	0.01060 0.20480 0.02097 -0.41200
O 	O 	0.07100 0.43870 0.02686 -0.28000
O 	O 	0.98180 0.15620 0.87134 -0.43700
O 	O 	0.16720 0.36700 0.96852 -0.26400
O 	O 	0.93200 0.89560 0.60339 -0.39900
O 	O 	0.79520 0.80580 0.68764 -0.36600
O 	O 	0.56130 0.63230 0.69353 -0.26300
O 	O 	0.84380 0.82560 0.53801 -0.41700
O 	O 	0.63300 0.80020 0.63519 -0.25100
O 	O 	0.10440 0.03640 0.27005 -0.46600
O 	O 	0.19420 0.98940 0.35430 -0.38500
O 	O 	0.36770 0.92900 0.36019 -0.25800
O 	O 	0.17440 0.01820 0.20467 -0.46400
O 	O 	0.19980 0.83280 0.30185 -0.26800
