data_crystal

_cell_length_a 13.58420
_cell_length_b 13.58420
_cell_length_c 14.85020
_cell_angle_alpha 90.00000
_cell_angle_beta  90.00000
_cell_angle_gamma 120.00000

_symmetry_space_group_name_	'P 1'
_symmetry_space_group_name_H-M	'P 1'

loop_
_symmetry_equiv_pos_as_xyz
  x,y,z

loop_
_atom_site_label
_atom_site_type_symbol
_atom_site_fract_x
_atom_site_fract_y
_atom_site_fract_z
_atom_site_charge
N 	N 	0.17947 0.33922 0.54881 -0.22000
C 	C 	0.07803 0.31500 0.51724 0.06200
H 	H 	0.04870 0.26750 0.46750 -0.01700
C 	C 	0.01529 0.35760 0.55543 -0.11800
H 	H 	0.94610 0.34170 0.53040 0.09400
C 	C 	0.05569 0.42420 0.63117 -0.05900
H 	H 	0.01320 0.45200 0.65900 0.04200
C 	C 	0.16016 0.44930 0.66546 0.08700
C 	C 	0.22238 0.40815 0.62046 -0.03300
H 	H 	0.29510 0.42890 0.64050 0.04300
N 	N 	0.19757 0.51184 0.74579 -0.21900
H 	H 	0.15330 0.53360 0.76840 0.10900
C 	C 	0.29440 0.54220 0.79208 0.15200
O 	O 	0.37445 0.53582 0.76350 -0.22300
C 	C 	0.28890 0.57840 0.88833 0.20000
H 	H 	0.23950 0.61180 0.88960 -0.02600
C 	C 	0.23820 0.47460 0.94830 -0.71100
H 	H 	0.28680 0.44210 0.94850 0.24500
H 	H 	0.16450 0.41970 0.92600 0.23000
H 	H 	0.23110 0.49610 0.00850 0.26000
N 	N 	0.40160 0.66290 0.91895 -0.26100
H 	H 	0.43070 0.64750 0.96440 0.15300
C 	C 	0.46030 0.76190 0.87950 0.24900
O 	O 	0.42310 0.78970 0.81351 -0.24500
C 	C 	0.57740 0.84220 0.91301 -0.10700
C 	C 	0.60380 0.86380 0.00454 0.06500
H 	H 	0.54610 0.82530 0.04640 -0.00400
N 	N 	0.70790 0.93705 0.03449 -0.22600
C 	C 	0.79190 0.98560 0.97384 0.09700
H 	H 	0.86570 0.03280 0.99430 -0.03800
C 	C 	0.77390 0.96880 0.88259 -0.10200
H 	H 	0.83430 0.00410 0.84240 0.03900
C 	C 	0.66630 0.89960 0.85210 0.03700
H 	H 	0.65210 0.89060 0.79050 0.01600
N 	N 	0.66078 0.84025 0.21548 -0.20400
C 	C 	0.68500 0.76303 0.18391 0.02300
H 	H 	0.73250 0.78120 0.13417 0.00700
C 	C 	0.64240 0.65769 0.22210 -0.03300
H 	H 	0.65830 0.60440 0.19707 0.05000
C 	C 	0.57580 0.63149 0.29784 -0.10600
H 	H 	0.54800 0.56120 0.32567 0.06700
C 	C 	0.55070 0.71086 0.33213 0.11200
C 	C 	0.59185 0.81423 0.28713 -0.04500
H 	H 	0.57110 0.86620 0.30717 0.05400
N 	N 	0.48816 0.68573 0.41246 -0.22300
H 	H 	0.46640 0.61970 0.43507 0.11300
C 	C 	0.45780 0.75220 0.45875 0.15100
O 	O 	0.46418 0.83863 0.43017 -0.21700
C 	C 	0.42160 0.71050 0.55500 0.20900
H 	H 	0.38820 0.62770 0.55627 -0.02700
C 	C 	0.52540 0.76360 0.61497 -0.72900
H 	H 	0.55790 0.84470 0.61517 0.25600
H 	H 	0.58030 0.74480 0.59267 0.24300
H 	H 	0.50390 0.73500 0.67517 0.26700
N 	N 	0.33710 0.73870 0.58562 -0.26500
H 	H 	0.35250 0.78320 0.63107 0.15600
C 	C 	0.23810 0.69840 0.54617 0.25700
O 	O 	0.21030 0.63340 0.48018 -0.25100
C 	C 	0.15780 0.73520 0.57968 -0.12700
C 	C 	0.13620 0.74000 0.67121 0.07200
H 	H 	0.17470 0.72080 0.71307 -0.00800
N 	N 	0.06295 0.77085 0.70116 -0.23200
C 	C 	0.01440 0.80630 0.64051 0.05500
H 	H 	0.96720 0.83290 0.66097 0.00500
C 	C 	0.03120 0.80510 0.54926 -0.19000
H 	H 	0.99590 0.83020 0.50907 0.10200
C 	C 	0.10040 0.76670 0.51877 0.08400
H 	H 	0.10940 0.76150 0.45717 -0.00900
N 	N 	0.15975 0.82053 0.88214 -0.20400
C 	C 	0.23697 0.92197 0.85057 -0.01300
H 	H 	0.21880 0.95130 0.80083 0.02100
C 	C 	0.34231 0.98471 0.88876 0.03800
H 	H 	0.39560 0.05390 0.86373 0.01100
C 	C 	0.36851 0.94431 0.96450 -0.14500
H 	H 	0.43880 0.98680 0.99233 0.08800
C 	C 	0.28914 0.83984 0.99879 0.12600
C 	C 	0.18577 0.77762 0.95379 -0.05500
H 	H 	0.13380 0.70490 0.97383 0.04400
N 	N 	0.31427 0.80243 0.07912 -0.22700
H 	H 	0.38030 0.84670 0.10173 0.11700
C 	C 	0.24780 0.70560 0.12541 0.15700
O 	O 	0.16137 0.62555 0.09683 -0.23000
C 	C 	0.28950 0.71110 0.22166 0.19900
H 	H 	0.37230 0.76050 0.22293 -0.02200
C 	C 	0.23640 0.76180 0.28163 -0.71300
H 	H 	0.15530 0.71320 0.28183 0.24300
H 	H 	0.25520 0.83550 0.25933 0.23900
H 	H 	0.26500 0.76890 0.34183 0.26300
N 	N 	0.26130 0.59840 0.25228 -0.26200
H 	H 	0.21680 0.56930 0.29773 0.15200
C 	C 	0.30160 0.53970 0.21283 0.25200
O 	O 	0.36660 0.57690 0.14684 -0.24800
C 	C 	0.26480 0.42260 0.24634 -0.11700
C 	C 	0.26000 0.39620 0.33787 0.06600
H 	H 	0.27920 0.45390 0.37973 -0.00600
N 	N 	0.22915 0.29210 0.36782 -0.23200
C 	C 	0.19370 0.20810 0.30717 0.07700
H 	H 	0.16710 0.13430 0.32763 -0.03000
C 	C 	0.19490 0.22610 0.21592 -0.14900
H 	H 	0.16980 0.16570 0.17573 0.06000
C 	C 	0.23330 0.33370 0.18543 0.05700
H 	H 	0.23850 0.34790 0.12383 0.00100
N 	N 	0.33922 0.17947 0.45119 -0.22100
C 	C 	0.31500 0.07803 0.48276 0.06100
H 	H 	0.26750 0.04870 0.53250 -0.01800
C 	C 	0.35760 0.01529 0.44457 -0.11800
H 	H 	0.34170 0.94610 0.46960 0.09400
C 	C 	0.42420 0.05569 0.36883 -0.05900
H 	H 	0.45200 0.01320 0.34100 0.04200
C 	C 	0.44930 0.16016 0.33454 0.08700
C 	C 	0.40815 0.22238 0.37954 -0.03300
H 	H 	0.42890 0.29510 0.35950 0.04300
N 	N 	0.51184 0.19757 0.25421 -0.21900
H 	H 	0.53360 0.15330 0.23160 0.10900
C 	C 	0.54220 0.29440 0.20792 0.15200
O 	O 	0.53582 0.37445 0.23650 -0.22300
C 	C 	0.57840 0.28890 0.11167 0.20000
H 	H 	0.61180 0.23950 0.11040 -0.02600
C 	C 	0.47460 0.23820 0.05170 -0.71100
H 	H 	0.44210 0.28680 0.05150 0.24500
H 	H 	0.41970 0.16450 0.07400 0.23000
H 	H 	0.49610 0.23110 0.99150 0.26000
N 	N 	0.66290 0.40160 0.08105 -0.26100
H 	H 	0.64750 0.43070 0.03560 0.15300
C 	C 	0.76190 0.46030 0.12050 0.24900
O 	O 	0.78970 0.42310 0.18649 -0.24500
C 	C 	0.84220 0.57740 0.08699 -0.10700
C 	C 	0.86380 0.60380 0.99546 0.06500
H 	H 	0.82530 0.54610 0.95360 -0.00400
N 	N 	0.93705 0.70790 0.96551 -0.22600
C 	C 	0.98560 0.79190 0.02616 0.09700
H 	H 	0.03280 0.86570 0.00570 -0.03800
C 	C 	0.96880 0.77390 0.11741 -0.10200
H 	H 	0.00410 0.83430 0.15760 0.03900
C 	C 	0.89960 0.66630 0.14790 0.03700
H 	H 	0.89060 0.65210 0.20950 0.01600
N 	N 	0.84025 0.66078 0.78452 -0.20400
C 	C 	0.76303 0.68500 0.81609 0.02300
H 	H 	0.78120 0.73250 0.86583 0.00700
C 	C 	0.65769 0.64240 0.77790 -0.03300
H 	H 	0.60440 0.65830 0.80293 0.05000
C 	C 	0.63149 0.57580 0.70216 -0.10600
H 	H 	0.56120 0.54800 0.67433 0.06700
C 	C 	0.71086 0.55070 0.66787 0.11200
C 	C 	0.81423 0.59185 0.71287 -0.04500
H 	H 	0.86620 0.57110 0.69283 0.05400
N 	N 	0.68573 0.48816 0.58754 -0.22300
H 	H 	0.61970 0.46640 0.56493 0.11300
C 	C 	0.75220 0.45780 0.54125 0.15100
O 	O 	0.83863 0.46418 0.56983 -0.21700
C 	C 	0.71050 0.42160 0.44500 0.20900
H 	H 	0.62770 0.38820 0.44373 -0.02700
C 	C 	0.76360 0.52540 0.38503 -0.72900
H 	H 	0.84470 0.55790 0.38483 0.25600
H 	H 	0.74480 0.58030 0.40733 0.24300
H 	H 	0.73500 0.50390 0.32483 0.26700
N 	N 	0.73870 0.33710 0.41438 -0.26500
H 	H 	0.78320 0.35250 0.36893 0.15600
C 	C 	0.69840 0.23810 0.45383 0.25700
O 	O 	0.63340 0.21030 0.51982 -0.25100
C 	C 	0.73520 0.15780 0.42032 -0.12700
C 	C 	0.74000 0.13620 0.32879 0.07200
H 	H 	0.72080 0.17470 0.28693 -0.00800
N 	N 	0.77085 0.06295 0.29884 -0.23200
C 	C 	0.80630 0.01440 0.35949 0.05500
H 	H 	0.83290 0.96720 0.33903 0.00500
C 	C 	0.80510 0.03120 0.45074 -0.19000
H 	H 	0.83020 0.99590 0.49093 0.10200
C 	C 	0.76670 0.10040 0.48123 0.08400
H 	H 	0.76150 0.10940 0.54283 -0.00900
N 	N 	0.82053 0.15975 0.11786 -0.20400
C 	C 	0.92197 0.23697 0.14943 -0.01300
H 	H 	0.95130 0.21880 0.19917 0.02100
C 	C 	0.98471 0.34231 0.11124 0.03800
H 	H 	0.05390 0.39560 0.13627 0.01100
C 	C 	0.94431 0.36851 0.03550 -0.14500
H 	H 	0.98680 0.43880 0.00767 0.08800
C 	C 	0.83984 0.28914 0.00121 0.12600
C 	C 	0.77762 0.18577 0.04621 -0.05500
H 	H 	0.70490 0.13380 0.02617 0.04400
N 	N 	0.80243 0.31427 0.92088 -0.22700
H 	H 	0.84670 0.38030 0.89827 0.11700
C 	C 	0.70560 0.24780 0.87459 0.15700
O 	O 	0.62555 0.16137 0.90317 -0.23000
C 	C 	0.71110 0.28950 0.77834 0.19900
H 	H 	0.76050 0.37230 0.77707 -0.02200
C 	C 	0.76180 0.23640 0.71837 -0.71300
H 	H 	0.71320 0.15530 0.71817 0.24300
H 	H 	0.83550 0.25520 0.74067 0.23900
H 	H 	0.76890 0.26500 0.65817 0.26300
N 	N 	0.59840 0.26130 0.74772 -0.26200
H 	H 	0.56930 0.21680 0.70227 0.15200
C 	C 	0.53970 0.30160 0.78717 0.25200
O 	O 	0.57690 0.36660 0.85316 -0.24800
C 	C 	0.42260 0.26480 0.75366 -0.11700
C 	C 	0.39620 0.26000 0.66213 0.06600
H 	H 	0.45390 0.27920 0.62027 -0.00600
N 	N 	0.29210 0.22915 0.63218 -0.23200
C 	C 	0.20810 0.19370 0.69283 0.07700
H 	H 	0.13430 0.16710 0.67237 -0.03000
C 	C 	0.22610 0.19490 0.78408 -0.14900
H 	H 	0.16570 0.16980 0.82427 0.06000
C 	C 	0.33370 0.23330 0.81457 0.05700
H 	H 	0.34790 0.23850 0.87617 0.00100
Cu	Cu	0.26264 0.26264 0.50000 0.84300
Cu	Cu	0.73736 0.00000 0.16667 0.83400
Cu	Cu	-0.00000 0.73736 0.83333 0.83400
