data_crystal

_cell_length_a 7.05030
_cell_length_b 10.91020
_cell_length_c 15.03410
_cell_angle_alpha 90.00000
_cell_angle_beta  90.00000
_cell_angle_gamma 90.00000

_symmetry_space_group_name_	'P 1'
_symmetry_space_group_name_H-M	'P 1'

loop_
_symmetry_equiv_pos_as_xyz
  x,y,z

loop_
_atom_site_label
_atom_site_type_symbol
_atom_site_fract_x
_atom_site_fract_y
_atom_site_fract_z
_atom_site_charge
Ag	Ag	0.84487 0.16622 0.03586 0.35200
Ag	Ag	0.04017 0.98935 0.21697 0.39600
N 	N 	0.92630 0.89240 0.09880 -0.16800
N 	N 	0.86540 0.96070 0.03340 -0.16000
N 	N 	0.81100 0.88590 0.96680 -0.16000
H 	H 	0.76720 0.91070 0.91650 0.04100
C 	C 	0.90940 0.77200 0.07540 -0.00800
C 	C 	0.95180 0.66380 0.12130 -0.05000
H 	H 	0.00410 0.66530 0.17810 -0.02300
C 	C 	0.91270 0.55530 0.07870 -0.13600
H 	H 	0.93770 0.48180 0.10790 -0.02800
C 	C 	0.83620 0.55200 0.99260 0.04100
H 	H 	0.81320 0.47640 0.96620 -0.06900
C 	C 	0.79400 0.65740 0.94600 -0.15700
H 	H 	0.74190 0.65490 0.88920 0.02100
C 	C 	0.83400 0.76820 0.98900 0.10400
Ag	Ag	0.15513 0.83378 0.53586 0.36000
Ag	Ag	0.95983 0.01065 0.71697 0.39600
N 	N 	0.07370 0.10760 0.59880 -0.17200
N 	N 	0.13460 0.03930 0.53340 -0.15000
N 	N 	0.18900 0.11410 0.46680 -0.15900
H 	H 	0.23280 0.08930 0.41650 0.03800
C 	C 	0.09060 0.22800 0.57540 0.04000
C 	C 	0.04820 0.33620 0.62130 -0.09800
H 	H 	0.99590 0.33470 0.67810 -0.00700
C 	C 	0.08730 0.44470 0.57870 -0.05600
H 	H 	0.06230 0.51820 0.60790 -0.05200
C 	C 	0.16380 0.44800 0.49260 -0.04100
H 	H 	0.18680 0.52360 0.46620 -0.04700
C 	C 	0.20600 0.34260 0.44600 -0.10300
H 	H 	0.25810 0.34510 0.38920 0.00100
C 	C 	0.16600 0.23180 0.48900 0.05600
Ag	Ag	0.34487 0.33378 0.03586 0.35300
Ag	Ag	0.54017 0.51065 0.21697 0.39700
N 	N 	0.42630 0.60760 0.09880 -0.17000
N 	N 	0.36540 0.53930 0.03340 -0.16200
N 	N 	0.31100 0.61410 0.96680 -0.15800
H 	H 	0.26720 0.58930 0.91650 0.04100
C 	C 	0.40940 0.72800 0.07540 -0.00600
C 	C 	0.45180 0.83620 0.12130 -0.05700
H 	H 	0.50410 0.83470 0.17810 -0.02000
C 	C 	0.41270 0.94470 0.07870 -0.12600
H 	H 	0.43770 0.01820 0.10790 -0.03100
C 	C 	0.33620 0.94800 0.99260 0.02700
H 	H 	0.31320 0.02360 0.96620 -0.06100
C 	C 	0.29400 0.84260 0.94600 -0.14900
H 	H 	0.24190 0.84510 0.88920 0.01800
C 	C 	0.33400 0.73180 0.98900 0.10200
Ag	Ag	0.65513 0.66622 0.53586 0.36000
Ag	Ag	0.45983 0.48935 0.71697 0.39900
N 	N 	0.57370 0.39240 0.59880 -0.17600
N 	N 	0.63460 0.46070 0.53340 -0.15200
N 	N 	0.68900 0.38590 0.46680 -0.15800
H 	H 	0.73280 0.41070 0.41650 0.03700
C 	C 	0.59060 0.27200 0.57540 0.04600
C 	C 	0.54820 0.16380 0.62130 -0.11400
H 	H 	0.49590 0.16530 0.67810 0.00200
C 	C 	0.58730 0.05530 0.57870 -0.04400
H 	H 	0.56230 0.98180 0.60790 -0.05700
C 	C 	0.66380 0.05200 0.49260 -0.05200
H 	H 	0.68680 0.97640 0.46620 -0.04300
C 	C 	0.70600 0.15740 0.44600 -0.09600
H 	H 	0.75810 0.15490 0.38920 -0.00200
C 	C 	0.66600 0.26820 0.48900 0.05000
