data_crystal

_cell_length_a 14.44010
_cell_length_b 19.69770
_cell_length_c 19.69770
_cell_angle_alpha 82.27870
_cell_angle_beta  68.49750
_cell_angle_gamma 68.49740

_symmetry_space_group_name_	'P 1'
_symmetry_space_group_name_H-M	'P 1'

loop_
_symmetry_equiv_pos_as_xyz
  x,y,z

loop_
_atom_site_label
_atom_site_type_symbol
_atom_site_fract_x
_atom_site_fract_y
_atom_site_fract_z
_atom_site_charge
Co	Co	0.16931 0.80950 0.17798 1.12500
Co	Co	0.15679 0.19050 0.82203 1.12600
Co	Co	0.65271 0.17797 0.19051 1.13000
Co	Co	0.02118 0.82203 0.80950 1.10900
Co	Co	0.09322 0.67797 0.30949 1.11800
Co	Co	0.08068 0.32203 0.69050 1.11900
Co	Co	0.22882 0.69050 0.67797 1.12500
Co	Co	0.59729 0.30950 0.32202 1.13000
H 	H 	0.76760 0.78520 0.33340 0.07200
H 	H 	0.86580 0.95030 0.22950 0.05900
H 	H 	0.55270 0.97480 0.29800 0.07500
H 	H 	0.88620 0.21480 0.66660 0.07900
H 	H 	0.04560 0.04970 0.77050 -0.01300
H 	H 	0.82550 0.02520 0.70200 0.06700
H 	H 	0.89900 0.33340 0.21480 0.03900
H 	H 	0.90470 0.22950 0.04970 0.02100
H 	H 	0.14930 0.29800 0.02520 0.04800
H 	H 	0.44720 0.66660 0.78520 0.07100
H 	H 	0.18390 0.77050 0.95030 0.04500
H 	H 	0.47250 0.70200 0.97480 0.07700
H 	H 	0.36380 0.83340 0.28520 0.06900
H 	H 	0.20440 0.72950 0.45030 0.04400
H 	H 	0.42450 0.79800 0.47480 0.07500
H 	H 	0.48240 0.16660 0.71480 0.07100
H 	H 	0.38420 0.27050 0.54970 0.04800
H 	H 	0.69730 0.20200 0.52520 0.07900
H 	H 	0.80280 0.71480 0.83340 0.08000
H 	H 	0.06610 0.54970 0.72950 -0.00600
H 	H 	0.77750 0.52520 0.79800 0.07100
H 	H 	0.35100 0.28520 0.16660 0.06800
H 	H 	0.34530 0.45030 0.27050 0.04800
H 	H 	0.10070 0.47480 0.20200 0.06300
C 	C 	0.94279 0.81530 0.27452 0.43900
C 	C 	0.64704 0.87659 0.32393 0.01900
C 	C 	0.75182 0.83385 0.31551 -0.00400
C 	C 	0.81033 0.93102 0.25292 0.02600
C 	C 	0.68520 0.05000 0.22840 0.29500
C 	C 	0.83162 0.86101 0.28195 -0.10300
C 	C 	0.62347 0.94605 0.29421 -0.03000
C 	C 	0.70630 0.97246 0.25874 -0.05700
C 	C 	0.56300 0.84585 0.36035 0.05400
C 	C 	0.03261 0.18470 0.72548 0.34700
C 	C 	0.84756 0.12341 0.67607 0.00900
C 	C 	0.90118 0.16615 0.68449 -0.00400
C 	C 	0.99427 0.06898 0.74708 0.12000
C 	C 	0.96360 0.95000 0.77160 0.38200
C 	C 	0.97458 0.13899 0.71805 -0.08200
C 	C 	0.86373 0.05395 0.70579 0.00100
C 	C 	0.93750 0.02754 0.74126 -0.11300
C 	C 	0.76920 0.15415 0.63965 0.06000
C 	C 	0.78269 0.27452 0.18470 0.41100
C 	C 	0.02903 0.32393 0.12341 -0.08200
C 	C 	0.93267 0.31551 0.16615 0.11000
C 	C 	0.93675 0.25292 0.06898 0.14300
C 	C 	0.08640 0.22840 0.95000 0.33000
C 	C 	0.88643 0.28195 0.13899 -0.16800
C 	C 	0.08232 0.29421 0.05395 0.04500
C 	C 	0.03496 0.25874 0.02754 -0.17100
C 	C 	0.07665 0.36035 0.15415 0.04300
C 	C 	0.24191 0.72548 0.81530 0.38200
C 	C 	0.47637 0.67607 0.87659 0.02100
C 	C 	0.41433 0.68449 0.83385 -0.01300
C 	C 	0.25865 0.74708 0.93102 0.01700
C 	C 	0.26480 0.77160 0.05000 0.29700
C 	C 	0.30737 0.71805 0.86101 -0.09500
C 	C 	0.43048 0.70579 0.94605 -0.03300
C 	C 	0.32124 0.74126 0.97246 -0.06000
C 	C 	0.59115 0.63965 0.84585 0.05300
C 	C 	0.21739 0.77452 0.31530 0.38200
C 	C 	0.40244 0.82393 0.37659 0.01800
C 	C 	0.34882 0.81551 0.33385 -0.01200
C 	C 	0.25573 0.75292 0.43102 0.01800
C 	C 	0.28640 0.72840 0.55000 0.29900
C 	C 	0.27542 0.78195 0.36101 -0.09800
C 	C 	0.38627 0.79421 0.44605 -0.03200
C 	C 	0.31250 0.75874 0.47246 -0.06500
C 	C 	0.48080 0.86035 0.34585 0.05300
C 	C 	0.30721 0.22548 0.68470 0.38100
C 	C 	0.60296 0.17607 0.62341 0.02300
C 	C 	0.49818 0.18449 0.66615 -0.01400
C 	C 	0.43967 0.24708 0.56898 0.01700
C 	C 	0.56480 0.27160 0.45000 0.29800
C 	C 	0.41838 0.21805 0.63899 -0.09400
C 	C 	0.62653 0.20579 0.55395 -0.03400
C 	C 	0.54370 0.24126 0.52754 -0.05900
C 	C 	0.68700 0.13965 0.65415 0.05100
C 	C 	0.00809 0.68470 0.77452 0.27900
C 	C 	0.77363 0.62341 0.82393 0.01900
C 	C 	0.83567 0.66615 0.81551 -0.02300
C 	C 	0.99135 0.56898 0.75292 0.10400
C 	C 	0.98520 0.45000 0.72840 0.37300
C 	C 	0.94263 0.63899 0.78195 -0.05500
C 	C 	0.81952 0.55395 0.79421 -0.01000
C 	C 	0.92876 0.52754 0.75874 -0.09800
C 	C 	0.65885 0.65415 0.86035 0.05600
C 	C 	0.46731 0.31530 0.22548 0.38200
C 	C 	0.22097 0.37659 0.17607 0.01000
C 	C 	0.31733 0.33385 0.18449 -0.01000
C 	C 	0.31325 0.43102 0.24708 0.02000
C 	C 	0.16360 0.55000 0.27160 0.30100
C 	C 	0.36357 0.36101 0.21805 -0.09800
C 	C 	0.16768 0.44605 0.20579 -0.02900
C 	C 	0.21504 0.47246 0.24126 -0.06900
C 	C 	0.17335 0.34585 0.13965 0.05200
O 	O 	0.01358 0.84345 0.23909 -0.52100
O 	O 	0.75944 0.07451 0.20315 -0.40400
O 	O 	0.95849 0.75366 0.30386 -0.45500
O 	O 	0.59492 0.08688 0.22816 -0.38500
O 	O 	0.60100 0.77770 0.40010 -0.15500
O 	O 	0.09612 0.15655 0.76091 -0.47200
O 	O 	0.03710 0.92549 0.79685 -0.46300
O 	O 	0.01601 0.24634 0.69614 -0.48000
O 	O 	0.90996 0.91312 0.77184 -0.38800
O 	O 	0.77880 0.22230 0.59990 -0.15300
O 	O 	0.74733 0.23909 0.15655 -0.47400
O 	O 	0.03741 0.20315 0.92549 -0.43600
O 	O 	0.73765 0.30386 0.24634 -0.47100
O 	O 	0.17692 0.22816 0.91312 -0.39600
O 	O 	0.99890 0.40010 0.22230 -0.11900
O 	O 	0.14297 0.76091 0.84345 -0.47900
O 	O 	0.16605 0.79685 0.07451 -0.42000
O 	O 	0.28785 0.69614 0.75366 -0.46900
O 	O 	0.31820 0.77184 0.08688 -0.38600
O 	O 	0.62130 0.59990 0.77770 -0.15600
O 	O 	0.15388 0.73909 0.34345 -0.48000
O 	O 	0.21290 0.70315 0.57451 -0.41900
O 	O 	0.23399 0.80386 0.25366 -0.47100
O 	O 	0.34004 0.72816 0.58688 -0.38500
O 	O 	0.47120 0.90010 0.27770 -0.16000
O 	O 	0.23642 0.26091 0.65655 -0.47400
O 	O 	0.49056 0.29685 0.42549 -0.41200
O 	O 	0.29151 0.19614 0.74634 -0.46900
O 	O 	0.65508 0.27184 0.41312 -0.38000
O 	O 	0.64900 0.09990 0.72230 -0.15700
O 	O 	0.10703 0.65655 0.73909 -0.45600
O 	O 	0.08395 0.42549 0.70315 -0.46000
O 	O 	0.96215 0.74634 0.80386 -0.39800
O 	O 	0.93180 0.41312 0.72816 -0.38200
O 	O 	0.62870 0.72230 0.90010 -0.15600
O 	O 	0.50267 0.34345 0.26091 -0.47100
O 	O 	0.21259 0.57451 0.29685 -0.41500
O 	O 	0.51235 0.25366 0.19614 -0.46800
O 	O 	0.07308 0.58688 0.27184 -0.40100
O 	O 	0.25110 0.27770 0.09990 -0.16100
