data_crystal

_cell_length_a 25.51470
_cell_length_b 25.51470
_cell_length_c 14.54260
_cell_angle_alpha 90.00000
_cell_angle_beta  90.00000
_cell_angle_gamma 90.00000

_symmetry_space_group_name_	'P 1'
_symmetry_space_group_name_H-M	'P 1'

loop_
_symmetry_equiv_pos_as_xyz
  x,y,z

loop_
_atom_site_label
_atom_site_type_symbol
_atom_site_fract_x
_atom_site_fract_y
_atom_site_fract_z
_atom_site_charge
Co	Co	0.49964 0.31661 0.16363 1.18800
O 	O 	0.55830 0.36450 0.10410 -0.36400
O 	O 	0.56510 0.34310 0.25090 -0.33900
O 	O 	0.77520 0.46600 0.01250 -0.45200
O 	O 	0.69600 0.45530 0.94800 -0.44200
C 	C 	0.63790 0.38580 0.18120 -0.05600
C 	C 	0.75620 0.40110 0.33500 0.05600
C 	C 	0.65630 0.40800 0.10220 0.01600
H 	H 	0.63420 0.41050 0.04970 0.05500
C 	C 	0.70840 0.42720 0.09860 -0.09000
C 	C 	0.73920 0.42450 0.17870 -0.01800
H 	H 	0.77380 0.43820 0.17820 0.07400
C 	C 	0.72000 0.40260 0.25710 0.02200
C 	C 	0.66930 0.38360 0.25860 -0.03200
H 	H 	0.65580 0.36870 0.31370 0.08000
C 	C 	0.58470 0.36380 0.17960 0.27500
C 	C 	0.72930 0.45200 0.01380 0.39800
O 	O 	0.81060 0.41010 0.30690 -0.16300
N 	N 	0.45210 0.38290 0.19480 -0.20400
C 	C 	0.41950 0.38050 0.27130 0.04600
H 	H 	0.42400 0.35340 0.31530 0.03100
C 	C 	0.38040 0.41780 0.28330 -0.08500
H 	H 	0.35820 0.41620 0.33550 0.07500
C 	C 	0.37400 0.45750 0.21900 0.02500
H 	H 	0.34720 0.48300 0.22700 0.03700
C 	C 	0.40660 0.45990 0.14230 -0.08700
H 	H 	0.40210 0.48700 0.09830 0.07200
C 	C 	0.44570 0.42260 0.13030 0.05300
H 	H 	0.46790 0.42420 0.07810 0.01600
C 	C 	0.58820 0.25800 0.08410 0.18400
C 	C 	0.60240 0.27400 0.98590 -0.04500
C 	C 	0.62940 0.26300 0.02920 0.01600
Co	Co	0.99964 0.81661 0.66363 1.18700
O 	O 	0.05830 0.86450 0.60410 -0.36500
O 	O 	0.06510 0.84310 0.75090 -0.34000
O 	O 	0.27520 0.96600 0.51250 -0.45300
O 	O 	0.19600 0.95530 0.44800 -0.44300
C 	C 	0.13790 0.88580 0.68120 -0.05700
C 	C 	0.25620 0.90110 0.83500 0.05500
C 	C 	0.15630 0.90800 0.60220 0.01500
H 	H 	0.13420 0.91050 0.54970 0.05400
C 	C 	0.20840 0.92720 0.59860 -0.09100
C 	C 	0.23920 0.92450 0.67870 -0.01900
H 	H 	0.27380 0.93820 0.67820 0.07300
C 	C 	0.22000 0.90260 0.75710 0.02100
C 	C 	0.16930 0.88360 0.75860 -0.03300
H 	H 	0.15580 0.86870 0.81370 0.07900
C 	C 	0.08470 0.86380 0.67960 0.27400
C 	C 	0.22930 0.95200 0.51380 0.39700
O 	O 	0.31060 0.91010 0.80690 -0.16400
N 	N 	0.95210 0.88290 0.69480 -0.20500
C 	C 	0.91950 0.88050 0.77130 0.04500
H 	H 	0.92400 0.85340 0.81530 0.03000
C 	C 	0.88040 0.91780 0.78330 -0.08500
H 	H 	0.85820 0.91620 0.83550 0.07400
C 	C 	0.87400 0.95750 0.71900 0.02500
H 	H 	0.84720 0.98300 0.72700 0.03700
C 	C 	0.90660 0.95990 0.64230 -0.08800
H 	H 	0.90210 0.98700 0.59830 0.07100
C 	C 	0.94570 0.92260 0.63030 0.05200
H 	H 	0.96790 0.92420 0.57810 0.01600
C 	C 	0.08820 0.75800 0.58410 0.18400
C 	C 	0.10240 0.77400 0.48590 -0.04500
C 	C 	0.12940 0.76300 0.52920 0.01600
Co	Co	0.50036 0.68339 0.16363 1.18700
O 	O 	0.44170 0.63550 0.10410 -0.36500
O 	O 	0.43490 0.65690 0.25090 -0.34000
O 	O 	0.22480 0.53400 0.01250 -0.45300
O 	O 	0.30400 0.54470 0.94800 -0.44300
C 	C 	0.36210 0.61420 0.18120 -0.05700
C 	C 	0.24380 0.59890 0.33500 0.05500
C 	C 	0.34370 0.59200 0.10220 0.01500
H 	H 	0.36580 0.58950 0.04970 0.05400
C 	C 	0.29160 0.57280 0.09860 -0.09100
C 	C 	0.26080 0.57550 0.17870 -0.01900
H 	H 	0.22620 0.56180 0.17820 0.07300
C 	C 	0.28000 0.59740 0.25710 0.02100
C 	C 	0.33070 0.61640 0.25860 -0.03300
H 	H 	0.34420 0.63130 0.31370 0.07900
C 	C 	0.41530 0.63620 0.17960 0.27400
C 	C 	0.27070 0.54800 0.01380 0.39700
O 	O 	0.18940 0.58990 0.30690 -0.16400
N 	N 	0.54790 0.61710 0.19480 -0.20500
C 	C 	0.58050 0.61950 0.27130 0.04500
H 	H 	0.57600 0.64660 0.31530 0.03000
C 	C 	0.61960 0.58220 0.28330 -0.08600
H 	H 	0.64180 0.58380 0.33550 0.07400
C 	C 	0.62600 0.54250 0.21900 0.02400
H 	H 	0.65280 0.51700 0.22700 0.03600
C 	C 	0.59340 0.54010 0.14230 -0.08800
H 	H 	0.59790 0.51300 0.09830 0.07100
C 	C 	0.55430 0.57740 0.13030 0.05200
H 	H 	0.53210 0.57580 0.07810 0.01600
C 	C 	0.41180 0.74200 0.08410 0.18400
C 	C 	0.39760 0.72600 0.98590 -0.04500
C 	C 	0.37060 0.73700 0.02920 0.01600
Co	Co	0.00036 0.18339 0.66363 1.18700
O 	O 	0.94170 0.13550 0.60410 -0.36500
O 	O 	0.93490 0.15690 0.75090 -0.34000
O 	O 	0.72480 0.03400 0.51250 -0.45300
O 	O 	0.80400 0.04470 0.44800 -0.44300
C 	C 	0.86210 0.11420 0.68120 -0.05700
C 	C 	0.74380 0.09890 0.83500 0.05500
C 	C 	0.84370 0.09200 0.60220 0.01500
H 	H 	0.86580 0.08950 0.54970 0.05400
C 	C 	0.79160 0.07280 0.59860 -0.09100
C 	C 	0.76080 0.07550 0.67870 -0.01900
H 	H 	0.72620 0.06180 0.67820 0.07300
C 	C 	0.78000 0.09740 0.75710 0.02100
C 	C 	0.83070 0.11640 0.75860 -0.03300
H 	H 	0.84420 0.13130 0.81370 0.07900
C 	C 	0.91530 0.13620 0.67960 0.27400
C 	C 	0.77070 0.04800 0.51380 0.39700
O 	O 	0.68940 0.08990 0.80690 -0.16400
N 	N 	0.04790 0.11710 0.69480 -0.20500
C 	C 	0.08050 0.11950 0.77130 0.04500
H 	H 	0.07600 0.14660 0.81530 0.03000
C 	C 	0.11960 0.08220 0.78330 -0.08500
H 	H 	0.14180 0.08380 0.83550 0.07400
C 	C 	0.12600 0.04250 0.71900 0.02500
H 	H 	0.15280 0.01700 0.72700 0.03700
C 	C 	0.09340 0.04010 0.64230 -0.08800
H 	H 	0.09790 0.01300 0.59830 0.07100
C 	C 	0.05430 0.07740 0.63030 0.05200
H 	H 	0.03210 0.07580 0.57810 0.01600
C 	C 	0.91180 0.24200 0.58410 0.18400
C 	C 	0.89760 0.22600 0.48590 -0.04500
C 	C 	0.87060 0.23700 0.52920 0.01600
Co	Co	0.31661 0.50036 0.83637 1.18700
O 	O 	0.36450 0.44170 0.89590 -0.36500
O 	O 	0.34310 0.43490 0.74910 -0.34000
O 	O 	0.46600 0.22480 0.98750 -0.45300
O 	O 	0.45530 0.30400 0.05200 -0.44300
C 	C 	0.38580 0.36210 0.81880 -0.05700
C 	C 	0.40110 0.24380 0.66500 0.05500
C 	C 	0.40800 0.34370 0.89780 0.01500
H 	H 	0.41050 0.36580 0.95030 0.05400
C 	C 	0.42720 0.29160 0.90140 -0.09100
C 	C 	0.42450 0.26080 0.82130 -0.01900
H 	H 	0.43820 0.22620 0.82180 0.07300
C 	C 	0.40260 0.28000 0.74290 0.02100
C 	C 	0.38360 0.33070 0.74140 -0.03300
H 	H 	0.36870 0.34420 0.68630 0.07900
C 	C 	0.36380 0.41530 0.82040 0.27400
C 	C 	0.45200 0.27070 0.98620 0.39700
O 	O 	0.41010 0.18940 0.69310 -0.16400
N 	N 	0.38290 0.54790 0.80520 -0.20500
C 	C 	0.38050 0.58050 0.72870 0.04500
H 	H 	0.35340 0.57600 0.68470 0.03000
C 	C 	0.41780 0.61960 0.71670 -0.08600
H 	H 	0.41620 0.64180 0.66450 0.07400
C 	C 	0.45750 0.62600 0.78100 0.02400
H 	H 	0.48300 0.65280 0.77300 0.03600
C 	C 	0.45990 0.59340 0.85770 -0.08800
H 	H 	0.48700 0.59790 0.90170 0.07100
C 	C 	0.42260 0.55430 0.86970 0.05200
H 	H 	0.42420 0.53210 0.92190 0.01600
C 	C 	0.25800 0.41180 0.91590 0.18400
C 	C 	0.27400 0.39760 0.01410 -0.04500
C 	C 	0.26300 0.37060 0.97080 0.01600
Co	Co	0.81661 0.00036 0.33637 1.18700
O 	O 	0.86450 0.94170 0.39590 -0.36500
O 	O 	0.84310 0.93490 0.24910 -0.34000
O 	O 	0.96600 0.72480 0.48750 -0.45300
O 	O 	0.95530 0.80400 0.55200 -0.44300
C 	C 	0.88580 0.86210 0.31880 -0.05700
C 	C 	0.90110 0.74380 0.16500 0.05500
C 	C 	0.90800 0.84370 0.39780 0.01500
H 	H 	0.91050 0.86580 0.45030 0.05400
C 	C 	0.92720 0.79160 0.40140 -0.09100
C 	C 	0.92450 0.76080 0.32130 -0.01900
H 	H 	0.93820 0.72620 0.32180 0.07300
C 	C 	0.90260 0.78000 0.24290 0.02100
C 	C 	0.88360 0.83070 0.24140 -0.03300
H 	H 	0.86870 0.84420 0.18630 0.07900
C 	C 	0.86380 0.91530 0.32040 0.27400
C 	C 	0.95200 0.77070 0.48620 0.39700
O 	O 	0.91010 0.68940 0.19310 -0.16400
N 	N 	0.88290 0.04790 0.30520 -0.20500
C 	C 	0.88050 0.08050 0.22870 0.04500
H 	H 	0.85340 0.07600 0.18470 0.03000
C 	C 	0.91780 0.11960 0.21670 -0.08500
H 	H 	0.91620 0.14180 0.16450 0.07400
C 	C 	0.95750 0.12600 0.28100 0.02500
H 	H 	0.98300 0.15280 0.27300 0.03700
C 	C 	0.95990 0.09340 0.35770 -0.08800
H 	H 	0.98700 0.09790 0.40170 0.07100
C 	C 	0.92260 0.05430 0.36970 0.05200
H 	H 	0.92420 0.03210 0.42190 0.01600
C 	C 	0.75800 0.91180 0.41590 0.18400
C 	C 	0.77400 0.89760 0.51410 -0.04500
C 	C 	0.76300 0.87060 0.47080 0.01600
Co	Co	0.68339 0.49964 0.83637 1.18700
O 	O 	0.63550 0.55830 0.89590 -0.36500
O 	O 	0.65690 0.56510 0.74910 -0.34000
O 	O 	0.53400 0.77520 0.98750 -0.45300
O 	O 	0.54470 0.69600 0.05200 -0.44300
C 	C 	0.61420 0.63790 0.81880 -0.05700
C 	C 	0.59890 0.75620 0.66500 0.05500
C 	C 	0.59200 0.65630 0.89780 0.01500
H 	H 	0.58950 0.63420 0.95030 0.05400
C 	C 	0.57280 0.70840 0.90140 -0.09100
C 	C 	0.57550 0.73920 0.82130 -0.01900
H 	H 	0.56180 0.77380 0.82180 0.07300
C 	C 	0.59740 0.72000 0.74290 0.02100
C 	C 	0.61640 0.66930 0.74140 -0.03300
H 	H 	0.63130 0.65580 0.68630 0.07900
C 	C 	0.63620 0.58470 0.82040 0.27400
C 	C 	0.54800 0.72930 0.98620 0.39700
O 	O 	0.58990 0.81060 0.69310 -0.16400
N 	N 	0.61710 0.45210 0.80520 -0.20500
C 	C 	0.61950 0.41950 0.72870 0.04500
H 	H 	0.64660 0.42400 0.68470 0.03000
C 	C 	0.58220 0.38040 0.71670 -0.08600
H 	H 	0.58380 0.35820 0.66450 0.07400
C 	C 	0.54250 0.37400 0.78100 0.02400
H 	H 	0.51700 0.34720 0.77300 0.03600
C 	C 	0.54010 0.40660 0.85770 -0.08800
H 	H 	0.51300 0.40210 0.90170 0.07100
C 	C 	0.57740 0.44570 0.86970 0.05200
H 	H 	0.57580 0.46790 0.92190 0.01600
C 	C 	0.74200 0.58820 0.91590 0.18400
C 	C 	0.72600 0.60240 0.01410 -0.04500
C 	C 	0.73700 0.62940 0.97080 0.01600
Co	Co	0.18339 0.99964 0.33637 1.18700
O 	O 	0.13550 0.05830 0.39590 -0.36500
O 	O 	0.15690 0.06510 0.24910 -0.34000
O 	O 	0.03400 0.27520 0.48750 -0.45300
O 	O 	0.04470 0.19600 0.55200 -0.44300
C 	C 	0.11420 0.13790 0.31880 -0.05700
C 	C 	0.09890 0.25620 0.16500 0.05500
C 	C 	0.09200 0.15630 0.39780 0.01500
H 	H 	0.08950 0.13420 0.45030 0.05400
C 	C 	0.07280 0.20840 0.40140 -0.09100
C 	C 	0.07550 0.23920 0.32130 -0.01900
H 	H 	0.06180 0.27380 0.32180 0.07300
C 	C 	0.09740 0.22000 0.24290 0.02100
C 	C 	0.11640 0.16930 0.24140 -0.03300
H 	H 	0.13130 0.15580 0.18630 0.07900
C 	C 	0.13620 0.08470 0.32040 0.27400
C 	C 	0.04800 0.22930 0.48620 0.39700
O 	O 	0.08990 0.31060 0.19310 -0.16400
N 	N 	0.11710 0.95210 0.30520 -0.20500
C 	C 	0.11950 0.91950 0.22870 0.04500
H 	H 	0.14660 0.92400 0.18470 0.03000
C 	C 	0.08220 0.88040 0.21670 -0.08500
H 	H 	0.08380 0.85820 0.16450 0.07400
C 	C 	0.04250 0.87400 0.28100 0.02500
H 	H 	0.01700 0.84720 0.27300 0.03700
C 	C 	0.04010 0.90660 0.35770 -0.08800
H 	H 	0.01300 0.90210 0.40170 0.07100
C 	C 	0.07740 0.94570 0.36970 0.05200
H 	H 	0.07580 0.96790 0.42190 0.01600
C 	C 	0.24200 0.08820 0.41590 0.18400
C 	C 	0.22600 0.10240 0.51410 -0.04500
C 	C 	0.23700 0.12940 0.47080 0.01600
Co	Co	0.00036 0.31661 0.58637 1.18700
O 	O 	0.94170 0.36450 0.64590 -0.36500
O 	O 	0.93490 0.34310 0.49910 -0.34000
O 	O 	0.72480 0.46600 0.73750 -0.45300
O 	O 	0.80400 0.45530 0.80200 -0.44300
C 	C 	0.86210 0.38580 0.56880 -0.05700
C 	C 	0.74380 0.40110 0.41500 0.05500
C 	C 	0.84370 0.40800 0.64780 0.01500
H 	H 	0.86580 0.41050 0.70030 0.05400
C 	C 	0.79160 0.42720 0.65140 -0.09100
C 	C 	0.76080 0.42450 0.57130 -0.01900
H 	H 	0.72620 0.43820 0.57180 0.07300
C 	C 	0.78000 0.40260 0.49290 0.02100
C 	C 	0.83070 0.38360 0.49140 -0.03300
H 	H 	0.84420 0.36870 0.43630 0.07900
C 	C 	0.91530 0.36380 0.57040 0.27400
C 	C 	0.77070 0.45200 0.73620 0.39700
O 	O 	0.68940 0.41010 0.44310 -0.16400
N 	N 	0.04790 0.38290 0.55520 -0.20500
C 	C 	0.08050 0.38050 0.47870 0.04500
H 	H 	0.07600 0.35340 0.43470 0.03000
C 	C 	0.11960 0.41780 0.46670 -0.08600
H 	H 	0.14180 0.41620 0.41450 0.07400
C 	C 	0.12600 0.45750 0.53100 0.02500
H 	H 	0.15280 0.48300 0.52300 0.03600
C 	C 	0.09340 0.45990 0.60770 -0.08800
H 	H 	0.09790 0.48700 0.65170 0.07100
C 	C 	0.05430 0.42260 0.61970 0.05200
H 	H 	0.03210 0.42420 0.67190 0.01600
C 	C 	0.91180 0.25800 0.66590 0.18400
C 	C 	0.89760 0.27400 0.76410 -0.04500
C 	C 	0.87060 0.26300 0.72080 0.01600
Co	Co	0.50036 0.81661 0.08637 1.18700
O 	O 	0.44170 0.86450 0.14590 -0.36500
O 	O 	0.43490 0.84310 0.99910 -0.34000
O 	O 	0.22480 0.96600 0.23750 -0.45300
O 	O 	0.30400 0.95530 0.30200 -0.44300
C 	C 	0.36210 0.88580 0.06880 -0.05700
C 	C 	0.24380 0.90110 0.91500 0.05500
C 	C 	0.34370 0.90800 0.14780 0.01500
H 	H 	0.36580 0.91050 0.20030 0.05400
C 	C 	0.29160 0.92720 0.15140 -0.09100
C 	C 	0.26080 0.92450 0.07130 -0.01900
H 	H 	0.22620 0.93820 0.07180 0.07300
C 	C 	0.28000 0.90260 0.99290 0.02100
C 	C 	0.33070 0.88360 0.99140 -0.03300
H 	H 	0.34420 0.86870 0.93630 0.07900
C 	C 	0.41530 0.86380 0.07040 0.27400
C 	C 	0.27070 0.95200 0.23620 0.39700
O 	O 	0.18940 0.91010 0.94310 -0.16400
N 	N 	0.54790 0.88290 0.05520 -0.20500
C 	C 	0.58050 0.88050 0.97870 0.04500
H 	H 	0.57600 0.85340 0.93470 0.03000
C 	C 	0.61960 0.91780 0.96670 -0.08500
H 	H 	0.64180 0.91620 0.91450 0.07400
C 	C 	0.62600 0.95750 0.03100 0.02400
H 	H 	0.65280 0.98300 0.02300 0.03700
C 	C 	0.59340 0.95990 0.10770 -0.08800
H 	H 	0.59790 0.98700 0.15170 0.07100
C 	C 	0.55430 0.92260 0.11970 0.05200
H 	H 	0.53210 0.92420 0.17190 0.01600
C 	C 	0.41180 0.75800 0.16590 0.18400
C 	C 	0.39760 0.77400 0.26410 -0.04500
C 	C 	0.37060 0.76300 0.22080 0.01700
Co	Co	0.99964 0.68339 0.58637 1.18700
O 	O 	0.05830 0.63550 0.64590 -0.36500
O 	O 	0.06510 0.65690 0.49910 -0.34000
O 	O 	0.27520 0.53400 0.73750 -0.45300
O 	O 	0.19600 0.54470 0.80200 -0.44300
C 	C 	0.13790 0.61420 0.56880 -0.05700
C 	C 	0.25620 0.59890 0.41500 0.05500
C 	C 	0.15630 0.59200 0.64780 0.01500
H 	H 	0.13420 0.58950 0.70030 0.05400
C 	C 	0.20840 0.57280 0.65140 -0.09100
C 	C 	0.23920 0.57550 0.57130 -0.01900
H 	H 	0.27380 0.56180 0.57180 0.07300
C 	C 	0.22000 0.59740 0.49290 0.02100
C 	C 	0.16930 0.61640 0.49140 -0.03300
H 	H 	0.15580 0.63130 0.43630 0.07900
C 	C 	0.08470 0.63620 0.57040 0.27400
C 	C 	0.22930 0.54800 0.73620 0.39700
O 	O 	0.31060 0.58990 0.44310 -0.16400
N 	N 	0.95210 0.61710 0.55520 -0.20500
C 	C 	0.91950 0.61950 0.47870 0.04500
H 	H 	0.92400 0.64660 0.43470 0.03000
C 	C 	0.88040 0.58220 0.46670 -0.08600
H 	H 	0.85820 0.58380 0.41450 0.07400
C 	C 	0.87400 0.54250 0.53100 0.02500
H 	H 	0.84720 0.51700 0.52300 0.03600
C 	C 	0.90660 0.54010 0.60770 -0.08800
H 	H 	0.90210 0.51300 0.65170 0.07100
C 	C 	0.94570 0.57740 0.61970 0.05200
H 	H 	0.96790 0.57580 0.67190 0.01600
C 	C 	0.08820 0.74200 0.66590 0.18400
C 	C 	0.10240 0.72600 0.76410 -0.04500
C 	C 	0.12940 0.73700 0.72080 0.01600
Co	Co	0.49964 0.18339 0.08637 1.18700
O 	O 	0.55830 0.13550 0.14590 -0.36500
O 	O 	0.56510 0.15690 0.99910 -0.34000
O 	O 	0.77520 0.03400 0.23750 -0.45300
O 	O 	0.69600 0.04470 0.30200 -0.44300
C 	C 	0.63790 0.11420 0.06880 -0.05700
C 	C 	0.75620 0.09890 0.91500 0.05500
C 	C 	0.65630 0.09200 0.14780 0.01500
H 	H 	0.63420 0.08950 0.20030 0.05400
C 	C 	0.70840 0.07280 0.15140 -0.09100
C 	C 	0.73920 0.07550 0.07130 -0.01900
H 	H 	0.77380 0.06180 0.07180 0.07300
C 	C 	0.72000 0.09740 0.99290 0.02100
C 	C 	0.66930 0.11640 0.99140 -0.03300
H 	H 	0.65580 0.13130 0.93630 0.07900
C 	C 	0.58470 0.13620 0.07040 0.27400
C 	C 	0.72930 0.04800 0.23620 0.39700
O 	O 	0.81060 0.08990 0.94310 -0.16400
N 	N 	0.45210 0.11710 0.05520 -0.20500
C 	C 	0.41950 0.11950 0.97870 0.04500
H 	H 	0.42400 0.14660 0.93470 0.03000
C 	C 	0.38040 0.08220 0.96670 -0.08500
H 	H 	0.35820 0.08380 0.91450 0.07400
C 	C 	0.37400 0.04250 0.03100 0.02400
H 	H 	0.34720 0.01700 0.02300 0.03700
C 	C 	0.40660 0.04010 0.10770 -0.08800
H 	H 	0.40210 0.01300 0.15170 0.07100
C 	C 	0.44570 0.07740 0.11970 0.05200
H 	H 	0.46790 0.07580 0.17190 0.01600
C 	C 	0.58820 0.24200 0.16590 0.18400
C 	C 	0.60240 0.22600 0.26410 -0.04500
C 	C 	0.62940 0.23700 0.22080 0.01700
Co	Co	0.18339 0.50036 0.91363 1.18700
O 	O 	0.13550 0.44170 0.85410 -0.36500
O 	O 	0.15690 0.43490 0.00090 -0.34000
O 	O 	0.03400 0.22480 0.76250 -0.45300
O 	O 	0.04470 0.30400 0.69800 -0.44300
C 	C 	0.11420 0.36210 0.93120 -0.05700
C 	C 	0.09890 0.24380 0.08500 0.05500
C 	C 	0.09200 0.34370 0.85220 0.01500
H 	H 	0.08950 0.36580 0.79970 0.05400
C 	C 	0.07280 0.29160 0.84860 -0.09100
C 	C 	0.07550 0.26080 0.92870 -0.01900
H 	H 	0.06180 0.22620 0.92820 0.07300
C 	C 	0.09740 0.28000 0.00710 0.02100
C 	C 	0.11640 0.33070 0.00860 -0.03300
H 	H 	0.13130 0.34420 0.06370 0.07900
C 	C 	0.13620 0.41530 0.92960 0.27400
C 	C 	0.04800 0.27070 0.76380 0.39700
O 	O 	0.08990 0.18940 0.05690 -0.16400
N 	N 	0.11710 0.54790 0.94480 -0.20500
C 	C 	0.11950 0.58050 0.02130 0.04500
H 	H 	0.14660 0.57600 0.06530 0.03000
C 	C 	0.08220 0.61960 0.03330 -0.08500
H 	H 	0.08380 0.64180 0.08550 0.07400
C 	C 	0.04250 0.62600 0.96900 0.02400
H 	H 	0.01700 0.65280 0.97700 0.03700
C 	C 	0.04010 0.59340 0.89230 -0.08800
H 	H 	0.01300 0.59790 0.84830 0.07100
C 	C 	0.07740 0.55430 0.88030 0.05200
H 	H 	0.07580 0.53210 0.82810 0.01600
C 	C 	0.24200 0.41180 0.83410 0.18400
C 	C 	0.22600 0.39760 0.73590 -0.04500
C 	C 	0.23700 0.37060 0.77920 0.01700
Co	Co	0.68339 0.00036 0.41363 1.18700
O 	O 	0.63550 0.94170 0.35410 -0.36500
O 	O 	0.65690 0.93490 0.50090 -0.34000
O 	O 	0.53400 0.72480 0.26250 -0.45300
O 	O 	0.54470 0.80400 0.19800 -0.44300
C 	C 	0.61420 0.86210 0.43120 -0.05700
C 	C 	0.59890 0.74380 0.58500 0.05500
C 	C 	0.59200 0.84370 0.35220 0.01500
H 	H 	0.58950 0.86580 0.29970 0.05400
C 	C 	0.57280 0.79160 0.34860 -0.09100
C 	C 	0.57550 0.76080 0.42870 -0.01900
H 	H 	0.56180 0.72620 0.42820 0.07300
C 	C 	0.59740 0.78000 0.50710 0.02100
C 	C 	0.61640 0.83070 0.50860 -0.03300
H 	H 	0.63130 0.84420 0.56370 0.07900
C 	C 	0.63620 0.91530 0.42960 0.27400
C 	C 	0.54800 0.77070 0.26380 0.39700
O 	O 	0.58990 0.68940 0.55690 -0.16400
N 	N 	0.61710 0.04790 0.44480 -0.20500
C 	C 	0.61950 0.08050 0.52130 0.04500
H 	H 	0.64660 0.07600 0.56530 0.03000
C 	C 	0.58220 0.11960 0.53330 -0.08600
H 	H 	0.58380 0.14180 0.58550 0.07400
C 	C 	0.54250 0.12600 0.46900 0.02500
H 	H 	0.51700 0.15280 0.47700 0.03600
C 	C 	0.54010 0.09340 0.39230 -0.08800
H 	H 	0.51300 0.09790 0.34830 0.07100
C 	C 	0.57740 0.05430 0.38030 0.05200
H 	H 	0.57580 0.03210 0.32810 0.01600
C 	C 	0.74200 0.91180 0.33410 0.18400
C 	C 	0.72600 0.89760 0.23590 -0.04500
C 	C 	0.73700 0.87060 0.27920 0.01600
Co	Co	0.81661 0.49964 0.91363 1.18700
O 	O 	0.86450 0.55830 0.85410 -0.36500
O 	O 	0.84310 0.56510 0.00090 -0.34000
O 	O 	0.96600 0.77520 0.76250 -0.45300
O 	O 	0.95530 0.69600 0.69800 -0.44300
C 	C 	0.88580 0.63790 0.93120 -0.05700
C 	C 	0.90110 0.75620 0.08500 0.05500
C 	C 	0.90800 0.65630 0.85220 0.01500
H 	H 	0.91050 0.63420 0.79970 0.05400
C 	C 	0.92720 0.70840 0.84860 -0.09100
C 	C 	0.92450 0.73920 0.92870 -0.01900
H 	H 	0.93820 0.77380 0.92820 0.07300
C 	C 	0.90260 0.72000 0.00710 0.02100
C 	C 	0.88360 0.66930 0.00860 -0.03300
H 	H 	0.86870 0.65580 0.06370 0.07900
C 	C 	0.86380 0.58470 0.92960 0.27400
C 	C 	0.95200 0.72930 0.76380 0.39700
O 	O 	0.91010 0.81060 0.05690 -0.16400
N 	N 	0.88290 0.45210 0.94480 -0.20500
C 	C 	0.88050 0.41950 0.02130 0.04500
H 	H 	0.85340 0.42400 0.06530 0.03000
C 	C 	0.91780 0.38040 0.03330 -0.08500
H 	H 	0.91620 0.35820 0.08550 0.07400
C 	C 	0.95750 0.37400 0.96900 0.02400
H 	H 	0.98300 0.34720 0.97700 0.03700
C 	C 	0.95990 0.40660 0.89230 -0.08800
H 	H 	0.98700 0.40210 0.84830 0.07100
C 	C 	0.92260 0.44570 0.88030 0.05200
H 	H 	0.92420 0.46790 0.82810 0.01600
C 	C 	0.75800 0.58820 0.83410 0.18400
C 	C 	0.77400 0.60240 0.73590 -0.04500
C 	C 	0.76300 0.62940 0.77920 0.01700
Co	Co	0.31661 0.99964 0.41363 1.18700
O 	O 	0.36450 0.05830 0.35410 -0.36500
O 	O 	0.34310 0.06510 0.50090 -0.34000
O 	O 	0.46600 0.27520 0.26250 -0.45300
O 	O 	0.45530 0.19600 0.19800 -0.44300
C 	C 	0.38580 0.13790 0.43120 -0.05700
C 	C 	0.40110 0.25620 0.58500 0.05500
C 	C 	0.40800 0.15630 0.35220 0.01500
H 	H 	0.41050 0.13420 0.29970 0.05400
C 	C 	0.42720 0.20840 0.34860 -0.09100
C 	C 	0.42450 0.23920 0.42870 -0.01900
H 	H 	0.43820 0.27380 0.42820 0.07300
C 	C 	0.40260 0.22000 0.50710 0.02100
C 	C 	0.38360 0.16930 0.50860 -0.03300
H 	H 	0.36870 0.15580 0.56370 0.07900
C 	C 	0.36380 0.08470 0.42960 0.27400
C 	C 	0.45200 0.22930 0.26380 0.39700
O 	O 	0.41010 0.31060 0.55690 -0.16400
N 	N 	0.38290 0.95210 0.44480 -0.20500
C 	C 	0.38050 0.91950 0.52130 0.04500
H 	H 	0.35340 0.92400 0.56530 0.03000
C 	C 	0.41780 0.88040 0.53330 -0.08600
H 	H 	0.41620 0.85820 0.58550 0.07400
C 	C 	0.45750 0.87400 0.46900 0.02500
H 	H 	0.48300 0.84720 0.47700 0.03600
C 	C 	0.45990 0.90660 0.39230 -0.08800
H 	H 	0.48700 0.90210 0.34830 0.07100
C 	C 	0.42260 0.94570 0.38030 0.05200
H 	H 	0.42420 0.96790 0.32810 0.01600
C 	C 	0.25800 0.08820 0.33410 0.18400
C 	C 	0.27400 0.10240 0.23590 -0.04500
C 	C 	0.26300 0.12940 0.27920 0.01600
O 	O 	0.54820 0.25000 0.12500 -0.52500
N 	N 	0.63760 0.25000 0.12500 -0.17100
C 	C 	0.69380 0.25000 0.12500 0.06100
O 	O 	0.45180 0.75000 0.12500 -0.52500
N 	N 	0.36240 0.75000 0.12500 -0.17100
C 	C 	0.30620 0.75000 0.12500 0.06100
O 	O 	0.25000 0.45180 0.87500 -0.52500
N 	N 	0.25000 0.36240 0.87500 -0.17100
C 	C 	0.25000 0.30620 0.87500 0.06100
O 	O 	0.75000 0.95180 0.37500 -0.52500
N 	N 	0.75000 0.86240 0.37500 -0.17100
C 	C 	0.75000 0.80620 0.37500 0.06100
O 	O 	0.75000 0.54820 0.87500 -0.52500
N 	N 	0.75000 0.63760 0.87500 -0.17100
C 	C 	0.75000 0.69380 0.87500 0.06100
O 	O 	0.25000 0.04820 0.37500 -0.52500
N 	N 	0.25000 0.13760 0.37500 -0.17100
C 	C 	0.25000 0.19380 0.37500 0.06100
O 	O 	0.95180 0.25000 0.62500 -0.52500
N 	N 	0.86240 0.25000 0.62500 -0.17100
C 	C 	0.80620 0.25000 0.62500 0.06100
O 	O 	0.04820 0.75000 0.62500 -0.52500
N 	N 	0.13760 0.75000 0.62500 -0.17100
C 	C 	0.19380 0.75000 0.62500 0.06100
