data_crystal

_cell_length_a 9.09820
_cell_length_b 11.85490
_cell_length_c 12.01130
_cell_angle_alpha 103.12800
_cell_angle_beta  90.77500
_cell_angle_gamma 91.88700

_symmetry_space_group_name_	'P 1'
_symmetry_space_group_name_H-M	'P 1'

loop_
_symmetry_equiv_pos_as_xyz
  x,y,z

loop_
_atom_site_label
_atom_site_type_symbol
_atom_site_fract_x
_atom_site_fract_y
_atom_site_fract_z
_atom_site_charge
P 	P 	0.80197 0.65389 0.43883 0.48100
P 	P 	0.40715 0.72522 0.47226 0.47900
P 	P 	0.77133 0.95765 0.14093 0.58600
P 	P 	0.37561 0.96021 0.23712 0.57100
F 	F 	0.93460 0.52165 0.59946 -0.73300
F 	F 	0.04170 0.89542 0.99232 -0.70300
O 	O 	0.77220 0.52200 0.40700 -0.47900
O 	O 	0.26090 0.65870 0.46830 -0.45700
O 	O 	0.96220 0.68890 0.48100 -0.44600
O 	O 	0.77320 0.70630 0.33540 -0.44800
O 	O 	0.47090 0.69230 0.35240 -0.45500
O 	O 	0.58500 0.63850 0.14150 -0.58800
H 	H 	0.63770 0.58520 0.15310 0.26800
O 	O 	0.74720 0.84410 0.18020 -0.44300
O 	O 	0.44060 0.83980 0.20440 -0.44200
O 	O 	0.38760 0.85600 0.51320 -0.45200
O 	O 	0.62800 0.90820 0.39800 -0.57500
O 	O 	0.37190 0.00750 0.36630 -0.55400
O 	O 	0.21990 0.95360 0.18430 -0.40200
O 	O 	0.75090 0.93640 0.01100 -0.45600
O 	O 	0.92510 0.00760 0.18660 -0.53400
C 	C 	0.69390 0.71690 0.56110 -0.19000
H 	H 	0.74560 0.70410 0.62990 0.06300
H 	H 	0.69530 0.80160 0.56740 0.08100
C 	C 	0.53200 0.67620 0.56670 -0.22300
H 	H 	0.49870 0.70350 0.64610 0.07200
H 	H 	0.52670 0.59040 0.54860 0.10300
C 	C 	0.64900 0.06820 0.20710 -0.24600
H 	H 	0.65630 0.07520 0.29080 0.07400
H 	H 	0.68710 0.14260 0.19250 0.07700
C 	C 	0.48480 0.05590 0.17310 -0.28400
H 	H 	0.47620 0.02820 0.08900 0.09000
H 	H 	0.44280 0.13370 0.19320 0.06900
V 	V 	0.89297 0.39316 0.43911 1.75600
V 	V 	0.60797 0.76668 0.26382 1.81100
V 	V 	0.10120 0.05789 0.11035 1.72800
P 	P 	0.19803 0.34611 0.56117 0.48000
P 	P 	0.59285 0.27478 0.52774 0.48300
P 	P 	0.22867 0.04235 0.85907 0.38700
P 	P 	0.62439 0.03979 0.76288 0.37100
F 	F 	0.06540 0.47835 0.40054 -0.73600
F 	F 	0.95830 0.10458 0.00768 -0.74200
O 	O 	0.22780 0.47800 0.59300 -0.47900
O 	O 	0.73910 0.34130 0.53170 -0.46300
O 	O 	0.03780 0.31110 0.51900 -0.46200
O 	O 	0.22680 0.29370 0.66460 -0.45800
O 	O 	0.52910 0.30770 0.64760 -0.46000
O 	O 	0.41500 0.36150 0.85850 -0.59600
H 	H 	0.36230 0.41480 0.84690 0.26800
O 	O 	0.25280 0.15590 0.81980 -0.44600
O 	O 	0.55940 0.16020 0.79560 -0.44100
O 	O 	0.61240 0.14400 0.48680 -0.49900
O 	O 	0.37200 0.09180 0.60200 -0.64000
O 	O 	0.62810 0.99250 0.63370 -0.40200
O 	O 	0.78010 0.04640 0.81570 -0.46800
O 	O 	0.24910 0.06360 0.98900 -0.49800
O 	O 	0.07490 0.99240 0.81340 -0.39100
C 	C 	0.30610 0.28310 0.43890 -0.18400
H 	H 	0.25440 0.29590 0.37010 0.05600
H 	H 	0.30470 0.19840 0.43260 0.07000
C 	C 	0.46800 0.32380 0.43330 -0.22700
H 	H 	0.50130 0.29650 0.35390 0.07100
H 	H 	0.47330 0.40960 0.45140 0.10500
C 	C 	0.35100 0.93180 0.79290 -0.12400
H 	H 	0.34370 0.92480 0.70920 0.07700
H 	H 	0.31290 0.85740 0.80750 0.05500
C 	C 	0.51520 0.94410 0.82690 -0.18100
H 	H 	0.52380 0.97180 0.91100 0.12100
H 	H 	0.55720 0.86630 0.80680 0.05300
V 	V 	0.10703 0.60684 0.56089 1.75600
V 	V 	0.39203 0.23332 0.73618 1.80600
V 	V 	0.89880 0.94211 0.88965 1.76400
V 	V 	0.50000 0.00000 0.50000 1.77500
