data_crystal

_cell_length_a 7.15640
_cell_length_b 18.22650
_cell_length_c 8.13970
_cell_angle_alpha 90.00000
_cell_angle_beta  95.03800
_cell_angle_gamma 90.00000

_symmetry_space_group_name_	'P 1'
_symmetry_space_group_name_H-M	'P 1'

loop_
_symmetry_equiv_pos_as_xyz
  x,y,z

loop_
_atom_site_label
_atom_site_type_symbol
_atom_site_fract_x
_atom_site_fract_y
_atom_site_fract_z
_atom_site_charge
V 	V 	0.25250 0.26127 0.99980 1.80400
P 	P 	0.97394 0.34764 0.73120 0.51300
P 	P 	0.51945 0.15107 0.22678 0.50200
O 	O 	0.97800 0.42648 0.67200 -0.50100
O 	O 	0.16540 0.32720 0.81820 -0.49100
O 	O 	0.81280 0.33749 0.84240 -0.47100
O 	O 	0.34070 0.19430 0.18250 -0.44500
O 	O 	0.68990 0.18650 0.16200 -0.44500
O 	O 	0.55700 0.07730 0.14500 -0.32900
O 	O 	0.52790 0.07240 0.81240 -0.15200
C 	C 	0.92850 0.28580 0.56340 -0.20200
H 	H 	0.92070 0.23550 0.60830 0.09800
H 	H 	0.80420 0.29780 0.50660 0.08900
C 	C 	0.55500 0.16820 0.45500 -0.25500
H 	H 	0.64970 0.13200 0.49790 0.00500
H 	H 	0.61630 0.21680 0.46690 0.08800
C 	C 	0.56840 0.13070 0.43510 0.09100
H 	H 	0.62500 0.08110 0.43860 0.00900
H 	H 	0.66990 0.16480 0.47560 0.09500
V 	V 	0.74750 0.26127 0.00020 1.85200
P 	P 	0.02606 0.34764 0.26880 0.49100
P 	P 	0.48055 0.15107 0.77322 0.49900
O 	O 	0.02200 0.42648 0.32800 -0.50200
O 	O 	0.83460 0.32720 0.18180 -0.43700
O 	O 	0.18720 0.33749 0.15760 -0.42400
O 	O 	0.65930 0.19430 0.81750 -0.48100
O 	O 	0.31010 0.18650 0.83800 -0.47700
O 	O 	0.44300 0.07730 0.85500 -0.36800
O 	O 	0.47210 0.07240 0.18760 -0.16200
C 	C 	0.07150 0.28580 0.43660 -0.24300
H 	H 	0.07930 0.23550 0.39170 0.10500
H 	H 	0.19580 0.29780 0.49340 0.09600
C 	C 	0.44500 0.16820 0.54500 -0.25400
H 	H 	0.35030 0.13200 0.50210 0.00400
H 	H 	0.38370 0.21680 0.53310 0.08700
C 	C 	0.43160 0.13070 0.56490 0.09500
H 	H 	0.37500 0.08110 0.56140 0.00700
H 	H 	0.33010 0.16480 0.52440 0.09300
V 	V 	0.74750 0.73873 0.00020 1.85300
P 	P 	0.02606 0.65236 0.26880 0.49100
P 	P 	0.48055 0.84893 0.77322 0.49500
O 	O 	0.02200 0.57352 0.32800 -0.50200
O 	O 	0.83460 0.67280 0.18180 -0.43700
O 	O 	0.18720 0.66251 0.15760 -0.42300
O 	O 	0.65930 0.80570 0.81750 -0.47500
O 	O 	0.31010 0.81350 0.83800 -0.47000
O 	O 	0.44300 0.92270 0.85500 -0.35300
O 	O 	0.47210 0.92760 0.18760 -0.12200
C 	C 	0.07150 0.71420 0.43660 -0.24500
H 	H 	0.07930 0.76450 0.39170 0.10900
H 	H 	0.19580 0.70220 0.49340 0.09700
C 	C 	0.44500 0.83180 0.54500 -0.26400
H 	H 	0.35030 0.86800 0.50210 -0.00000
H 	H 	0.38370 0.78320 0.53310 0.08900
C 	C 	0.43160 0.86930 0.56490 0.10600
H 	H 	0.37500 0.91890 0.56140 0.03500
H 	H 	0.33010 0.83520 0.52440 0.10200
V 	V 	0.25250 0.73873 0.99980 1.80200
P 	P 	0.97394 0.65236 0.73120 0.51200
P 	P 	0.51945 0.84893 0.22678 0.49700
O 	O 	0.97800 0.57352 0.67200 -0.50100
O 	O 	0.16540 0.67280 0.81820 -0.49200
O 	O 	0.81280 0.66251 0.84240 -0.47200
O 	O 	0.34070 0.80570 0.18250 -0.43600
O 	O 	0.68990 0.81350 0.16200 -0.43600
O 	O 	0.55700 0.92270 0.14500 -0.30800
O 	O 	0.52790 0.92760 0.81240 -0.11300
C 	C 	0.92850 0.71420 0.56340 -0.20300
H 	H 	0.92070 0.76450 0.60830 0.10300
H 	H 	0.80420 0.70220 0.50660 0.09000
C 	C 	0.55500 0.83180 0.45500 -0.26500
H 	H 	0.64970 0.86800 0.49790 0.00100
H 	H 	0.61630 0.78320 0.46690 0.09100
C 	C 	0.56840 0.86930 0.43510 0.10400
H 	H 	0.62500 0.91890 0.43860 0.03800
H 	H 	0.66990 0.83520 0.47560 0.10400
V 	V 	0.00000 0.50000 0.50000 1.72300
V 	V 	0.50000 0.00000 -0.00000 1.84700
F 	F 	-0.00000 0.21781 -0.00000 -0.72800
F 	F 	-0.00000 0.78219 -0.00000 -0.71900
F 	F 	0.50000 0.30502 -0.00000 -0.74400
F 	F 	0.50000 0.69498 -0.00000 -0.74300
O 	O 	0.24230 0.00000 0.95550 -0.38300
O 	O 	0.80000 -0.00000 0.91700 -0.13700
O 	O 	0.75770 -0.00000 0.04450 -0.26900
O 	O 	0.20000 0.00000 0.08300 -0.03300
