data_crystal

_cell_length_a 19.72700
_cell_length_b 28.38420
_cell_length_c 28.38420
_cell_angle_alpha 61.48530
_cell_angle_beta  69.66550
_cell_angle_gamma 69.66550

_symmetry_space_group_name_	'P 1'
_symmetry_space_group_name_H-M	'P 1'

loop_
_symmetry_equiv_pos_as_xyz
  x,y,z

loop_
_atom_site_label
_atom_site_type_symbol
_atom_site_fract_x
_atom_site_fract_y
_atom_site_fract_z
_atom_site_charge
Zn	Zn	0.65742 0.52065 0.01443 1.19700
Zn	Zn	0.87351 0.44990 0.31938 1.23300
Zn	Zn	0.64709 0.69766 0.55642 1.17300
Zn	Zn	0.34258 0.98557 0.47935 1.19700
Zn	Zn	0.12649 0.68062 0.55010 1.23300
Zn	Zn	0.35291 0.44358 0.30234 1.17300
Zn	Zn	0.19250 0.97935 0.48557 1.19700
Zn	Zn	0.64279 0.05010 0.18062 1.23300
Zn	Zn	0.90117 0.80234 0.94358 1.17300
Zn	Zn	0.80750 0.51443 0.02065 1.19700
Zn	Zn	0.35721 0.81938 0.94990 1.23400
Zn	Zn	0.09883 0.05642 0.19766 1.17400
Zn	Zn	0.34258 0.47935 0.98557 1.19800
Zn	Zn	0.12649 0.55010 0.68062 1.23400
Zn	Zn	0.35291 0.30234 0.44358 1.17400
Zn	Zn	0.65742 0.01443 0.52065 1.19800
Zn	Zn	0.87351 0.31938 0.44990 1.23400
Zn	Zn	0.64709 0.55642 0.69766 1.17400
Zn	Zn	0.80750 0.02065 0.51443 1.19800
Zn	Zn	0.35721 0.94990 0.81938 1.23400
Zn	Zn	0.09883 0.19766 0.05642 1.17400
Zn	Zn	0.19250 0.48557 0.97935 1.19800
Zn	Zn	0.64279 0.18062 0.05010 1.23400
Zn	Zn	0.90117 0.94358 0.80234 1.17400
Zn	Zn	0.73645 0.42438 0.42438 1.21900
Zn	Zn	0.26355 0.57562 0.57562 1.21900
Zn	Zn	0.58521 0.07562 0.07562 1.21900
Zn	Zn	0.41479 0.92438 0.92438 1.21900
Zn	Zn	0.75908 0.60435 0.60435 1.18400
Zn	Zn	0.60806 0.59320 0.59320 1.20900
Zn	Zn	0.24092 0.39565 0.39565 1.18400
Zn	Zn	0.39194 0.40680 0.40680 1.20900
Zn	Zn	0.96778 0.89565 0.89565 1.18400
Zn	Zn	0.79446 0.90680 0.90680 1.20900
Zn	Zn	0.03222 0.10435 0.10435 1.18400
Zn	Zn	0.20554 0.09320 0.09320 1.20900
Zn	Zn	0.03293 0.71707 0.21707 1.19900
Zn	Zn	0.96707 0.78293 0.28293 1.19900
Zn	Zn	0.96707 0.28293 0.78293 1.19900
Zn	Zn	0.03293 0.21707 0.71707 1.19900
H 	H 	0.72340 0.56110 0.44950 0.02700
H 	H 	0.80800 0.68970 0.40350 0.00700
H 	H 	0.88300 0.60310 0.31270 0.02100
H 	H 	0.56630 0.47250 0.18930 0.01700
H 	H 	0.60170 0.44150 0.33250 0.02100
H 	H 	0.76280 0.47910 0.19470 0.02400
H 	H 	0.71180 0.55840 0.83360 0.01900
H 	H 	0.90880 0.54170 0.85670 0.01900
H 	H 	0.89050 0.57500 0.70820 0.02500
H 	H 	0.27660 0.55050 0.43890 0.02700
H 	H 	0.19200 0.59650 0.31030 0.00700
H 	H 	0.11700 0.68730 0.39690 0.02100
H 	H 	0.43370 0.81070 0.52750 0.01700
H 	H 	0.39830 0.66750 0.55850 0.02100
H 	H 	0.23720 0.80530 0.52090 0.02400
H 	H 	0.28820 0.16640 0.44160 0.01900
H 	H 	0.09120 0.14330 0.45830 0.01900
H 	H 	0.10950 0.29180 0.42500 0.02500
H 	H 	0.73400 0.93890 0.05050 0.02700
H 	H 	0.90120 0.81030 0.09650 0.00700
H 	H 	0.79880 0.89690 0.18730 0.02000
H 	H 	0.22810 0.02750 0.31070 0.01600
H 	H 	0.37570 0.05850 0.16750 0.02100
H 	H 	0.43660 0.02090 0.30530 0.02400
H 	H 	0.10380 0.94160 0.66640 0.01900
H 	H 	0.30720 0.95830 0.64330 0.01900
H 	H 	0.17370 0.92500 0.79180 0.02500
H 	H 	0.26600 0.94950 0.06110 0.02700
H 	H 	0.09880 0.90350 0.18970 0.00700
H 	H 	0.20120 0.81270 0.10310 0.02000
H 	H 	0.77190 0.68930 0.97250 0.01600
H 	H 	0.62430 0.83250 0.94150 0.02100
H 	H 	0.56340 0.69470 0.97910 0.02400
H 	H 	0.89620 0.33360 0.05840 0.01900
H 	H 	0.69280 0.35670 0.04170 0.01900
H 	H 	0.82630 0.20820 0.07500 0.02500
H 	H 	0.27660 0.43890 0.55050 0.02700
H 	H 	0.19200 0.31030 0.59650 0.00700
H 	H 	0.11700 0.39690 0.68730 0.02100
H 	H 	0.43370 0.52750 0.81070 0.01700
H 	H 	0.39830 0.55850 0.66750 0.02100
H 	H 	0.23720 0.52090 0.80530 0.02400
H 	H 	0.28820 0.44160 0.16640 0.01900
H 	H 	0.09120 0.45830 0.14330 0.01900
H 	H 	0.10950 0.42500 0.29180 0.02500
H 	H 	0.72340 0.44950 0.56110 0.02700
H 	H 	0.80800 0.40350 0.68970 0.00700
H 	H 	0.88300 0.31270 0.60310 0.02100
H 	H 	0.56630 0.18930 0.47250 0.01700
H 	H 	0.60170 0.33250 0.44150 0.02100
H 	H 	0.76280 0.19470 0.47910 0.02400
H 	H 	0.71180 0.83360 0.55840 0.01900
H 	H 	0.90880 0.85670 0.54170 0.01900
H 	H 	0.89050 0.70820 0.57500 0.02500
H 	H 	0.26600 0.06110 0.94950 0.02700
H 	H 	0.09880 0.18970 0.90350 0.00700
H 	H 	0.20120 0.10310 0.81270 0.02000
H 	H 	0.77190 0.97250 0.68930 0.01600
H 	H 	0.62430 0.94150 0.83250 0.02100
H 	H 	0.56340 0.97910 0.69470 0.02400
H 	H 	0.89620 0.05840 0.33360 0.01900
H 	H 	0.69280 0.04170 0.35670 0.01900
H 	H 	0.82630 0.07500 0.20820 0.02500
H 	H 	0.73400 0.05050 0.93890 0.02700
H 	H 	0.90120 0.09650 0.81030 0.00700
H 	H 	0.79880 0.18730 0.89690 0.02000
H 	H 	0.22810 0.31070 0.02750 0.01600
H 	H 	0.37570 0.16750 0.05850 0.02100
H 	H 	0.43660 0.30530 0.02090 0.02400
H 	H 	0.10380 0.66640 0.94160 0.01900
H 	H 	0.30720 0.64330 0.95830 0.01900
H 	H 	0.17370 0.79180 0.92500 0.02500
C 	C 	0.80253 0.57507 0.37947 -0.16600
C 	C 	0.75651 0.58359 0.42559 0.09900
C 	C 	0.75952 0.62568 0.43628 -0.16400
C 	C 	0.80773 0.65997 0.39817 0.10800
C 	C 	0.85493 0.65097 0.35297 -0.18200
C 	C 	0.85184 0.60906 0.34346 0.11200
C 	C 	0.80242 0.52678 0.37098 0.41700
C 	C 	0.71464 0.63126 0.48686 0.35200
C 	C 	0.90589 0.68851 0.31431 0.43900
C 	C 	0.66880 0.47910 0.18250 -0.17000
C 	C 	0.59739 0.46921 0.20941 0.11100
C 	C 	0.57242 0.45458 0.26578 -0.18300
C 	C 	0.61818 0.45042 0.29502 0.11200
C 	C 	0.69012 0.45978 0.26838 -0.16900
C 	C 	0.71496 0.47354 0.21214 0.10900
C 	C 	0.69476 0.49444 0.12184 0.42000
C 	C 	0.49671 0.44309 0.29509 0.45600
C 	C 	0.73966 0.45294 0.30314 0.44400
C 	C 	0.79350 0.56730 0.76550 -0.18100
C 	C 	0.76198 0.55862 0.82002 0.10900
C 	C 	0.80405 0.55035 0.85435 -0.16600
C 	C 	0.87973 0.54867 0.83347 0.09700
C 	C 	0.91203 0.55697 0.78017 -0.15000
C 	C 	0.86917 0.56763 0.74523 0.09700
C 	C 	0.74995 0.57495 0.72735 0.45900
C 	C 	0.77148 0.53922 0.91342 0.40600
C 	C 	0.99520 0.55200 0.75860 0.36400
C 	C 	0.19747 0.62053 0.42493 -0.16600
C 	C 	0.24349 0.57441 0.41641 0.09900
C 	C 	0.24048 0.56372 0.37432 -0.16400
C 	C 	0.19227 0.60183 0.34003 0.10800
C 	C 	0.14507 0.64703 0.34903 -0.18200
C 	C 	0.14816 0.65654 0.39094 0.11200
C 	C 	0.19758 0.62902 0.47322 0.41700
C 	C 	0.28536 0.51314 0.36874 0.35200
C 	C 	0.09411 0.68569 0.31149 0.43900
C 	C 	0.33120 0.81750 0.52090 -0.17000
C 	C 	0.40261 0.79059 0.53079 0.11100
C 	C 	0.42758 0.73422 0.54542 -0.18300
C 	C 	0.38182 0.70498 0.54958 0.11200
C 	C 	0.30988 0.73162 0.54022 -0.16900
C 	C 	0.28504 0.78786 0.52646 0.10900
C 	C 	0.30524 0.87816 0.50556 0.42000
C 	C 	0.50329 0.70491 0.55691 0.45600
C 	C 	0.26034 0.69686 0.54706 0.44400
C 	C 	0.20650 0.23450 0.43270 -0.18100
C 	C 	0.23802 0.17998 0.44138 0.10900
C 	C 	0.19595 0.14565 0.44965 -0.16600
C 	C 	0.12027 0.16653 0.45133 0.09700
C 	C 	0.08797 0.21983 0.44303 -0.15000
C 	C 	0.13083 0.25477 0.43237 0.09700
C 	C 	0.25005 0.27265 0.42505 0.45900
C 	C 	0.22852 0.08658 0.46078 0.40600
C 	C 	0.00480 0.24140 0.44800 0.36400
C 	C 	0.75707 0.92493 0.12053 -0.16700
C 	C 	0.76569 0.91641 0.07441 0.10100
C 	C 	0.82148 0.87432 0.06372 -0.16600
C 	C 	0.86587 0.84003 0.10183 0.11000
C 	C 	0.85887 0.84903 0.14703 -0.18300
C 	C 	0.80436 0.89094 0.15654 0.11300
C 	C 	0.70018 0.97322 0.12902 0.41700
C 	C 	0.83276 0.86874 0.01314 0.35700
C 	C 	0.90871 0.81149 0.18569 0.43900
C 	C 	0.33040 0.02090 0.31750 -0.17000
C 	C 	0.27601 0.03079 0.29059 0.11100
C 	C 	0.29278 0.04542 0.23422 -0.18400
C 	C 	0.36362 0.04958 0.20498 0.11200
C 	C 	0.41828 0.04022 0.23162 -0.16900
C 	C 	0.40064 0.02646 0.28786 0.10900
C 	C 	0.31104 0.00556 0.37816 0.41900
C 	C 	0.23489 0.05691 0.20491 0.45600
C 	C 	0.49574 0.04706 0.19686 0.44400
C 	C 	0.12630 0.93270 0.73450 -0.18000
C 	C 	0.14062 0.94138 0.67998 0.10900
C 	C 	0.20875 0.94965 0.64565 -0.16600
C 	C 	0.26187 0.95133 0.66653 0.09700
C 	C 	0.24917 0.94303 0.71983 -0.15000
C 	C 	0.18203 0.93237 0.75477 0.09800
C 	C 	0.05225 0.92505 0.77265 0.45900
C 	C 	0.22412 0.96078 0.58658 0.40600
C 	C 	0.30580 0.94800 0.74140 0.36600
C 	C 	0.24293 0.87947 0.07507 -0.16700
C 	C 	0.23431 0.92559 0.08359 0.10100
C 	C 	0.17852 0.93628 0.12568 -0.16600
C 	C 	0.13413 0.89817 0.15997 0.11000
C 	C 	0.14113 0.85297 0.15097 -0.18300
C 	C 	0.19564 0.84346 0.10906 0.11300
C 	C 	0.29982 0.87098 0.02678 0.41700
C 	C 	0.16724 0.98686 0.13126 0.35700
C 	C 	0.09129 0.81431 0.18851 0.43900
C 	C 	0.66960 0.68250 0.97910 -0.17000
C 	C 	0.72399 0.70941 0.96921 0.11100
C 	C 	0.70722 0.76578 0.95458 -0.18400
C 	C 	0.63638 0.79502 0.95042 0.11200
C 	C 	0.58172 0.76838 0.95978 -0.16900
C 	C 	0.59936 0.71214 0.97354 0.10900
C 	C 	0.68896 0.62184 0.99444 0.41900
C 	C 	0.76511 0.79509 0.94309 0.45600
C 	C 	0.50426 0.80314 0.95294 0.44400
C 	C 	0.87370 0.26550 0.06730 -0.18000
C 	C 	0.85938 0.32002 0.05862 0.10900
C 	C 	0.79125 0.35435 0.05035 -0.16600
C 	C 	0.73813 0.33347 0.04867 0.09700
C 	C 	0.75083 0.28017 0.05697 -0.15000
C 	C 	0.81797 0.24523 0.06763 0.09800
C 	C 	0.94775 0.22735 0.07495 0.45900
C 	C 	0.77588 0.41342 0.03922 0.40600
C 	C 	0.69420 0.25860 0.05200 0.36600
C 	C 	0.19747 0.42493 0.62053 -0.16600
C 	C 	0.24349 0.41641 0.57441 0.09900
C 	C 	0.24048 0.37432 0.56372 -0.16400
C 	C 	0.19227 0.34003 0.60183 0.10800
C 	C 	0.14507 0.34903 0.64703 -0.18200
C 	C 	0.14816 0.39094 0.65654 0.11200
C 	C 	0.19758 0.47322 0.62902 0.41700
C 	C 	0.28536 0.36874 0.51314 0.35200
C 	C 	0.09411 0.31149 0.68569 0.43900
C 	C 	0.33120 0.52090 0.81750 -0.17000
C 	C 	0.40261 0.53079 0.79059 0.11100
C 	C 	0.42758 0.54542 0.73422 -0.18300
C 	C 	0.38182 0.54958 0.70498 0.11200
C 	C 	0.30988 0.54022 0.73162 -0.16900
C 	C 	0.28504 0.52646 0.78786 0.10900
C 	C 	0.30524 0.50556 0.87816 0.42000
C 	C 	0.50329 0.55691 0.70491 0.45600
C 	C 	0.26034 0.54706 0.69686 0.44400
C 	C 	0.20650 0.43270 0.23450 -0.18100
C 	C 	0.23802 0.44138 0.17998 0.10900
C 	C 	0.19595 0.44965 0.14565 -0.16600
C 	C 	0.12027 0.45133 0.16653 0.09700
C 	C 	0.08797 0.44303 0.21983 -0.15000
C 	C 	0.13083 0.43237 0.25477 0.09700
C 	C 	0.25005 0.42505 0.27265 0.45900
C 	C 	0.22852 0.46078 0.08658 0.40600
C 	C 	0.00480 0.44800 0.24140 0.36400
C 	C 	0.80253 0.37947 0.57507 -0.16600
C 	C 	0.75651 0.42559 0.58359 0.09900
C 	C 	0.75952 0.43628 0.62568 -0.16400
C 	C 	0.80773 0.39817 0.65997 0.10800
C 	C 	0.85493 0.35297 0.65097 -0.18200
C 	C 	0.85184 0.34346 0.60906 0.11200
C 	C 	0.80242 0.37098 0.52678 0.41700
C 	C 	0.71464 0.48686 0.63126 0.35200
C 	C 	0.90589 0.31431 0.68851 0.43900
C 	C 	0.66880 0.18250 0.47910 -0.17000
C 	C 	0.59739 0.20941 0.46921 0.11100
C 	C 	0.57242 0.26578 0.45458 -0.18300
C 	C 	0.61818 0.29502 0.45042 0.11200
C 	C 	0.69012 0.26838 0.45978 -0.16900
C 	C 	0.71496 0.21214 0.47354 0.10900
C 	C 	0.69476 0.12184 0.49444 0.42000
C 	C 	0.49671 0.29509 0.44309 0.45600
C 	C 	0.73966 0.30314 0.45294 0.44400
C 	C 	0.79350 0.76550 0.56730 -0.18100
C 	C 	0.76198 0.82002 0.55862 0.10900
C 	C 	0.80405 0.85435 0.55035 -0.16600
C 	C 	0.87973 0.83347 0.54867 0.09700
C 	C 	0.91203 0.78017 0.55697 -0.15000
C 	C 	0.86917 0.74523 0.56763 0.09700
C 	C 	0.74995 0.72735 0.57495 0.45900
C 	C 	0.77148 0.91342 0.53922 0.40600
C 	C 	0.99520 0.75860 0.55200 0.36400
C 	C 	0.24293 0.07507 0.87947 -0.16700
C 	C 	0.23431 0.08359 0.92559 0.10100
C 	C 	0.17852 0.12568 0.93628 -0.16600
C 	C 	0.13413 0.15997 0.89817 0.11000
C 	C 	0.14113 0.15097 0.85297 -0.18300
C 	C 	0.19564 0.10906 0.84346 0.11300
C 	C 	0.29982 0.02678 0.87098 0.41700
C 	C 	0.16724 0.13126 0.98686 0.35700
C 	C 	0.09129 0.18851 0.81431 0.43900
C 	C 	0.66960 0.97910 0.68250 -0.17000
C 	C 	0.72399 0.96921 0.70941 0.11100
C 	C 	0.70722 0.95458 0.76578 -0.18400
C 	C 	0.63638 0.95042 0.79502 0.11200
C 	C 	0.58172 0.95978 0.76838 -0.16900
C 	C 	0.59936 0.97354 0.71214 0.10900
C 	C 	0.68896 0.99444 0.62184 0.41900
C 	C 	0.76511 0.94309 0.79509 0.45600
C 	C 	0.50426 0.95294 0.80314 0.44400
C 	C 	0.87370 0.06730 0.26550 -0.18000
C 	C 	0.85938 0.05862 0.32002 0.10900
C 	C 	0.79125 0.05035 0.35435 -0.16600
C 	C 	0.73813 0.04867 0.33347 0.09700
C 	C 	0.75083 0.05697 0.28017 -0.15000
C 	C 	0.81797 0.06763 0.24523 0.09800
C 	C 	0.94775 0.07495 0.22735 0.45900
C 	C 	0.77588 0.03922 0.41342 0.40600
C 	C 	0.69420 0.05200 0.25860 0.36600
C 	C 	0.75707 0.12053 0.92493 -0.16700
C 	C 	0.76569 0.07441 0.91641 0.10100
C 	C 	0.82148 0.06372 0.87432 -0.16600
C 	C 	0.86587 0.10183 0.84003 0.11000
C 	C 	0.85887 0.14703 0.84903 -0.18300
C 	C 	0.80436 0.15654 0.89094 0.11300
C 	C 	0.70018 0.12902 0.97322 0.41700
C 	C 	0.83276 0.01314 0.86874 0.35700
C 	C 	0.90871 0.18569 0.81149 0.43900
C 	C 	0.33040 0.31750 0.02090 -0.17000
C 	C 	0.27601 0.29059 0.03079 0.11100
C 	C 	0.29278 0.23422 0.04542 -0.18400
C 	C 	0.36362 0.20498 0.04958 0.11200
C 	C 	0.41828 0.23162 0.04022 -0.16900
C 	C 	0.40064 0.28786 0.02646 0.10900
C 	C 	0.31104 0.37816 0.00556 0.41900
C 	C 	0.23489 0.20491 0.05691 0.45600
C 	C 	0.49574 0.19686 0.04706 0.44400
C 	C 	0.12630 0.73450 0.93270 -0.18000
C 	C 	0.14062 0.67998 0.94138 0.10900
C 	C 	0.20875 0.64565 0.94965 -0.16600
C 	C 	0.26187 0.66653 0.95133 0.09700
C 	C 	0.24917 0.71983 0.94303 -0.15000
C 	C 	0.18203 0.75477 0.93237 0.09800
C 	C 	0.05225 0.77265 0.92505 0.45900
C 	C 	0.22412 0.58658 0.96078 0.40600
C 	C 	0.30580 0.74140 0.94800 0.36600
O 	O 	0.85264 0.51697 0.33115 -0.46600
O 	O 	0.75476 0.50060 0.40168 -0.47500
O 	O 	0.66560 0.60754 0.51386 -0.48300
O 	O 	0.94885 0.67835 0.27395 -0.47700
O 	O 	0.90497 0.72623 0.32503 -0.49800
O 	O 	0.76077 0.49866 0.10000 -0.48100
O 	O 	0.64871 0.50131 0.09607 -0.47700
O 	O 	0.46114 0.43986 0.26886 -0.51200
O 	O 	0.47558 0.43717 0.34247 -0.51300
O 	O 	0.71151 0.44773 0.34985 -0.50200
O 	O 	0.80684 0.45454 0.27958 -0.49000
O 	O 	0.78216 0.58079 0.68089 -0.52100
O 	O 	0.68491 0.57059 0.74619 -0.50200
O 	O 	0.70292 0.54052 0.93144 -0.45900
O 	O 	0.81623 0.52888 0.94206 -0.48700
O 	O 	0.02151 0.56465 0.70973 -0.47400
O 	O 	0.03650 0.51870 0.79350 -0.28700
O 	O 	0.75270 0.64220 0.51140 -0.49100
O 	O 	0.14736 0.66885 0.48303 -0.46600
O 	O 	0.24524 0.59832 0.49940 -0.47500
O 	O 	0.33440 0.48614 0.39246 -0.48300
O 	O 	0.05115 0.72605 0.32165 -0.47700
O 	O 	0.09503 0.67497 0.27377 -0.49800
O 	O 	0.23923 0.90000 0.50134 -0.48100
O 	O 	0.35129 0.90393 0.49869 -0.47700
O 	O 	0.53886 0.73114 0.56014 -0.51200
O 	O 	0.52442 0.65753 0.56283 -0.51300
O 	O 	0.28849 0.65015 0.55227 -0.50200
O 	O 	0.19316 0.72042 0.54546 -0.49000
O 	O 	0.21784 0.31911 0.41921 -0.52100
O 	O 	0.31509 0.25381 0.42941 -0.50200
O 	O 	0.29708 0.06856 0.45948 -0.45900
O 	O 	0.18377 0.05794 0.47112 -0.48700
O 	O 	0.97849 0.29027 0.43535 -0.47400
O 	O 	0.96350 0.20650 0.48130 -0.28700
O 	O 	0.24730 0.48860 0.35780 -0.49100
O 	O 	0.70076 0.98303 0.16885 -0.46600
O 	O 	0.65704 0.99940 0.09832 -0.47500
O 	O 	0.78700 0.89246 0.98614 -0.48600
O 	O 	0.90115 0.82165 0.22605 -0.47700
O 	O 	0.95623 0.77377 0.17497 -0.49800
O 	O 	0.35943 0.00134 0.40000 -0.48100
O 	O 	0.24609 0.99869 0.40393 -0.47600
O 	O 	0.16986 0.06014 0.23114 -0.51200
O 	O 	0.25522 0.06283 0.15753 -0.51300
O 	O 	0.50909 0.05227 0.15015 -0.50200
O 	O 	0.54096 0.04546 0.22042 -0.49000
O 	O 	0.04384 0.91921 0.81911 -0.51900
O 	O 	0.00169 0.92941 0.75381 -0.50100
O 	O 	0.17488 0.95948 0.56856 -0.45800
O 	O 	0.28717 0.97112 0.55794 -0.48700
O 	O 	0.29589 0.93535 0.79027 -0.47500
O 	O 	0.34870 0.98130 0.70650 -0.28800
O 	O 	0.90630 0.85780 0.98860 -0.49400
O 	O 	0.29924 0.83115 0.01697 -0.46600
O 	O 	0.34296 0.90168 0.00060 -0.47500
O 	O 	0.21300 0.01386 0.10754 -0.48600
O 	O 	0.09885 0.77395 0.17835 -0.47700
O 	O 	0.04377 0.82503 0.22623 -0.49800
O 	O 	0.64057 0.60000 0.99866 -0.48100
O 	O 	0.75391 0.59607 0.00131 -0.47600
O 	O 	0.83014 0.76886 0.93986 -0.51200
O 	O 	0.74478 0.84247 0.93717 -0.51300
O 	O 	0.49091 0.84985 0.94773 -0.50200
O 	O 	0.45904 0.77958 0.95454 -0.49000
O 	O 	0.95616 0.18089 0.08079 -0.51900
O 	O 	0.99831 0.24619 0.07059 -0.50100
O 	O 	0.82512 0.43144 0.04052 -0.45800
O 	O 	0.71283 0.44206 0.02888 -0.48700
O 	O 	0.70411 0.20973 0.06465 -0.47500
O 	O 	0.65130 0.29350 0.01870 -0.28800
O 	O 	0.09370 0.01140 0.14220 -0.49400
O 	O 	0.14736 0.48303 0.66885 -0.46600
O 	O 	0.24524 0.49940 0.59832 -0.47500
O 	O 	0.33440 0.39246 0.48614 -0.48300
O 	O 	0.05115 0.32165 0.72605 -0.47700
O 	O 	0.09503 0.27377 0.67497 -0.49800
O 	O 	0.23923 0.50134 0.90000 -0.48100
O 	O 	0.35129 0.49869 0.90393 -0.47700
O 	O 	0.53886 0.56014 0.73114 -0.51200
O 	O 	0.52442 0.56283 0.65753 -0.51300
O 	O 	0.28849 0.55227 0.65015 -0.50200
O 	O 	0.19316 0.54546 0.72042 -0.49000
O 	O 	0.21784 0.41921 0.31911 -0.52100
O 	O 	0.31509 0.42941 0.25381 -0.50200
O 	O 	0.29708 0.45948 0.06856 -0.45900
O 	O 	0.18377 0.47112 0.05794 -0.48700
O 	O 	0.97849 0.43535 0.29027 -0.47400
O 	O 	0.96350 0.48130 0.20650 -0.28700
O 	O 	0.24730 0.35780 0.48860 -0.49100
O 	O 	0.85264 0.33115 0.51697 -0.46600
O 	O 	0.75476 0.40168 0.50060 -0.47500
O 	O 	0.66560 0.51386 0.60754 -0.48300
O 	O 	0.94885 0.27395 0.67835 -0.47700
O 	O 	0.90497 0.32503 0.72623 -0.49800
O 	O 	0.76077 0.10000 0.49866 -0.48100
O 	O 	0.64871 0.09607 0.50131 -0.47700
O 	O 	0.46114 0.26886 0.43986 -0.51200
O 	O 	0.47558 0.34247 0.43717 -0.51300
O 	O 	0.71151 0.34985 0.44773 -0.50200
O 	O 	0.80684 0.27958 0.45454 -0.49000
O 	O 	0.78216 0.68089 0.58079 -0.52100
O 	O 	0.68491 0.74619 0.57059 -0.50200
O 	O 	0.70292 0.93144 0.54052 -0.45900
O 	O 	0.81623 0.94206 0.52888 -0.48700
O 	O 	0.02151 0.70973 0.56465 -0.47400
O 	O 	0.03650 0.79350 0.51870 -0.28700
O 	O 	0.75270 0.51140 0.64220 -0.49100
O 	O 	0.29924 0.01697 0.83115 -0.46600
O 	O 	0.34296 0.00060 0.90168 -0.47500
O 	O 	0.21300 0.10754 0.01386 -0.48600
O 	O 	0.09885 0.17835 0.77395 -0.47700
O 	O 	0.04377 0.22623 0.82503 -0.49800
O 	O 	0.64057 0.99866 0.60000 -0.48100
O 	O 	0.75391 0.00131 0.59607 -0.47600
O 	O 	0.83014 0.93986 0.76886 -0.51200
O 	O 	0.74478 0.93717 0.84247 -0.51300
O 	O 	0.49091 0.94773 0.84985 -0.50200
O 	O 	0.45904 0.95454 0.77958 -0.49000
O 	O 	0.95616 0.08079 0.18089 -0.51900
O 	O 	0.99831 0.07059 0.24619 -0.50100
O 	O 	0.82512 0.04052 0.43144 -0.45800
O 	O 	0.71283 0.02888 0.44206 -0.48700
O 	O 	0.70411 0.06465 0.20973 -0.47500
O 	O 	0.65130 0.01870 0.29350 -0.28800
O 	O 	0.09370 0.14220 0.01140 -0.49400
O 	O 	0.70076 0.16885 0.98303 -0.46600
O 	O 	0.65704 0.09832 0.99940 -0.47500
O 	O 	0.78700 0.98614 0.89246 -0.48600
O 	O 	0.90115 0.22605 0.82165 -0.47700
O 	O 	0.95623 0.17497 0.77377 -0.49800
O 	O 	0.35943 0.40000 0.00134 -0.48100
O 	O 	0.24609 0.40393 0.99869 -0.47600
O 	O 	0.16986 0.23114 0.06014 -0.51200
O 	O 	0.25522 0.15753 0.06283 -0.51300
O 	O 	0.50909 0.15015 0.05227 -0.50200
O 	O 	0.54096 0.22042 0.04546 -0.49000
O 	O 	0.04384 0.81911 0.91921 -0.51900
O 	O 	0.00169 0.75381 0.92941 -0.50100
O 	O 	0.17488 0.56856 0.95948 -0.45800
O 	O 	0.28717 0.55794 0.97112 -0.48700
O 	O 	0.29589 0.79027 0.93535 -0.47500
O 	O 	0.34870 0.70650 0.98130 -0.28800
O 	O 	0.90630 0.98860 0.85780 -0.49400
O 	O 	0.85250 0.39550 0.39550 -0.66500
O 	O 	0.14750 0.60450 0.60450 -0.66500
O 	O 	0.64350 0.10450 0.10450 -0.66500
O 	O 	0.35650 0.89550 0.89550 -0.66500
O 	O 	0.65502 0.62178 0.62178 -0.88800
O 	O 	0.34498 0.37822 0.37822 -0.88800
O 	O 	0.89858 0.87822 0.87822 -0.88900
O 	O 	0.10142 0.12178 0.12178 -0.88900
