data_crystal

_cell_length_a 6.56970
_cell_length_b 22.61670
_cell_length_c 7.85110
_cell_angle_alpha 90.00000
_cell_angle_beta  90.15400
_cell_angle_gamma 90.00000

_symmetry_space_group_name_	'P 1'
_symmetry_space_group_name_H-M	'P 1'

loop_
_symmetry_equiv_pos_as_xyz
  x,y,z

loop_
_atom_site_label
_atom_site_type_symbol
_atom_site_fract_x
_atom_site_fract_y
_atom_site_fract_z
_atom_site_charge
Ni	Ni	0.54677 0.20982 0.60598 1.12000
O 	O 	0.34240 0.18020 0.42758 -0.39600
O 	O 	0.37820 0.16868 0.80041 -0.41700
N 	N 	0.92190 0.20830 0.14290 -0.33700
H 	H 	0.87220 0.19370 0.04460 0.13800
H 	H 	0.82070 0.20990 0.21980 0.14200
O 	O 	0.23800 0.26308 0.29880 -0.40300
C 	C 	0.23630 0.20823 0.32110 0.31100
N 	N 	0.71540 0.13234 0.56450 -0.21800
O 	O 	0.23620 0.24599 0.93120 -0.43300
C 	C 	0.90610 0.12695 0.62150 0.08500
H 	H 	0.96400 0.15880 0.67860 0.00900
C 	C 	0.02280 0.07627 0.60000 -0.14500
H 	H 	0.15450 0.07460 0.64340 0.08600
C 	C 	0.94140 0.02794 0.51300 0.05800
C 	C 	0.09250 0.17153 0.20670 -0.00700
H 	H 	0.03740 0.13850 0.27310 0.04000
C 	C 	0.27910 0.19184 0.92040 0.43400
C 	C 	0.74450 0.03446 0.45030 -0.13400
H 	H 	0.68430 0.00390 0.38880 0.07400
C 	C 	0.63830 0.08610 0.47900 0.07200
H 	H 	0.50630 0.08900 0.43680 0.00800
C 	C 	0.21170 0.14706 0.05680 -0.38900
H 	H 	0.12900 0.11710 0.00160 0.14600
H 	H 	0.33240 0.12760 0.10080 0.15300
Ni	Ni	0.95323 0.70982 0.89402 1.11500
O 	O 	0.15760 0.68020 0.07242 -0.39100
O 	O 	0.12180 0.66868 0.69959 -0.41200
N 	N 	0.57810 0.70830 0.35710 -0.34300
H 	H 	0.62780 0.69370 0.45540 0.13700
H 	H 	0.67930 0.70990 0.28020 0.14100
O 	O 	0.26200 0.76308 0.20120 -0.39900
C 	C 	0.26370 0.70823 0.17890 0.31000
N 	N 	0.78460 0.63234 0.93550 -0.22100
O 	O 	0.26380 0.74599 0.56880 -0.43100
C 	C 	0.59390 0.62695 0.87850 0.07300
H 	H 	0.53600 0.65880 0.82140 0.00900
C 	C 	0.47720 0.57627 0.90000 -0.13200
H 	H 	0.34550 0.57460 0.85660 0.08200
C 	C 	0.55860 0.52794 0.98700 0.05100
C 	C 	0.40750 0.67153 0.29330 0.00100
H 	H 	0.46260 0.63850 0.22690 0.04100
C 	C 	0.22090 0.69184 0.57960 0.43100
C 	C 	0.75550 0.53446 0.04970 -0.13200
H 	H 	0.81570 0.50390 0.11120 0.07400
C 	C 	0.86170 0.58610 0.02100 0.07400
H 	H 	0.99370 0.58900 0.06320 0.00700
C 	C 	0.28830 0.64706 0.44320 -0.38600
H 	H 	0.37100 0.61710 0.49840 0.14900
H 	H 	0.16760 0.62760 0.39920 0.15400
Ni	Ni	0.45323 0.79018 0.39402 1.12100
O 	O 	0.65760 0.81980 0.57242 -0.39500
O 	O 	0.62180 0.83132 0.19959 -0.41700
N 	N 	0.07810 0.79170 0.85710 -0.33700
H 	H 	0.12780 0.80630 0.95540 0.13800
H 	H 	0.17930 0.79010 0.78020 0.14200
O 	O 	0.76200 0.73692 0.70120 -0.40300
C 	C 	0.76370 0.79177 0.67890 0.31100
N 	N 	0.28460 0.86766 0.43550 -0.21800
O 	O 	0.76380 0.75401 0.06880 -0.43300
C 	C 	0.09390 0.87305 0.37850 0.08500
H 	H 	0.03600 0.84120 0.32140 0.00900
C 	C 	0.97720 0.92373 0.40000 -0.14500
H 	H 	0.84550 0.92540 0.35660 0.08600
C 	C 	0.05860 0.97206 0.48700 0.05800
C 	C 	0.90750 0.82847 0.79330 -0.00700
H 	H 	0.96260 0.86150 0.72690 0.04000
C 	C 	0.72090 0.80816 0.07960 0.43400
C 	C 	0.25550 0.96554 0.54970 -0.13400
H 	H 	0.31570 0.99610 0.61120 0.07400
C 	C 	0.36170 0.91390 0.52100 0.07200
H 	H 	0.49370 0.91100 0.56320 0.00800
C 	C 	0.78830 0.85294 0.94320 -0.38900
H 	H 	0.87100 0.88290 0.99840 0.14600
H 	H 	0.66760 0.87240 0.89920 0.15300
Ni	Ni	0.04677 0.29018 0.10598 1.11500
O 	O 	0.84240 0.31980 0.92758 -0.39100
O 	O 	0.87820 0.33132 0.30041 -0.41200
N 	N 	0.42190 0.29170 0.64290 -0.34300
H 	H 	0.37220 0.30630 0.54460 0.13700
H 	H 	0.32070 0.29010 0.71980 0.14100
O 	O 	0.73800 0.23692 0.79880 -0.39900
C 	C 	0.73630 0.29177 0.82110 0.31000
N 	N 	0.21540 0.36766 0.06450 -0.22100
O 	O 	0.73620 0.25401 0.43120 -0.43100
C 	C 	0.40610 0.37305 0.12150 0.07300
H 	H 	0.46400 0.34120 0.17860 0.00900
C 	C 	0.52280 0.42373 0.10000 -0.13200
H 	H 	0.65450 0.42540 0.14340 0.08200
C 	C 	0.44140 0.47206 0.01300 0.05100
C 	C 	0.59250 0.32847 0.70670 0.00100
H 	H 	0.53740 0.36150 0.77310 0.04100
C 	C 	0.77910 0.30816 0.42040 0.43100
C 	C 	0.24450 0.46554 0.95030 -0.13200
H 	H 	0.18430 0.49610 0.88880 0.07400
C 	C 	0.13830 0.41390 0.97900 0.07400
H 	H 	0.00630 0.41100 0.93680 0.00700
C 	C 	0.71170 0.35294 0.55680 -0.38600
H 	H 	0.62900 0.38290 0.50160 0.14900
H 	H 	0.83240 0.37240 0.60080 0.15400
