data_crystal

_cell_length_a 6.83710
_cell_length_b 22.27210
_cell_length_c 7.73080
_cell_angle_alpha 90.00000
_cell_angle_beta  90.00000
_cell_angle_gamma 90.00000

_symmetry_space_group_name_	'P 1'
_symmetry_space_group_name_H-M	'P 1'

loop_
_symmetry_equiv_pos_as_xyz
  x,y,z

loop_
_atom_site_label
_atom_site_type_symbol
_atom_site_fract_x
_atom_site_fract_y
_atom_site_fract_z
_atom_site_charge
Ni	Ni	0.94392 0.78741 0.74172 1.11800
Ni	Ni	0.05608 0.21259 0.74172 1.11800
Ni	Ni	0.44392 0.71259 0.25828 1.12100
Ni	Ni	0.55608 0.28741 0.25828 1.12100
H 	H 	0.15540 0.69970 0.65010 0.13600
H 	H 	0.09500 0.68860 0.83340 0.12400
H 	H 	0.83810 0.61580 0.88610 0.13600
H 	H 	0.64520 0.62500 0.77310 0.13900
H 	H 	0.93900 0.62810 0.60640 0.03800
H 	H 	0.52410 0.82810 0.76570 0.01000
H 	H 	0.33830 0.91470 0.73260 0.08300
H 	H 	0.81910 0.00740 0.65290 0.06800
H 	H 	0.98790 0.91810 0.62910 0.00900
H 	H 	0.84460 0.30030 0.65010 0.13700
H 	H 	0.90500 0.31140 0.83340 0.12500
H 	H 	0.16190 0.38420 0.88610 0.13700
H 	H 	0.35480 0.37500 0.77310 0.14000
H 	H 	0.06100 0.37190 0.60640 0.03800
H 	H 	0.47590 0.17190 0.76570 0.01000
H 	H 	0.66170 0.08530 0.73260 0.08300
H 	H 	0.18090 0.99260 0.65290 0.06800
H 	H 	0.01210 0.08190 0.62910 0.00900
H 	H 	0.65540 0.80030 0.34990 0.13600
H 	H 	0.59500 0.81140 0.16660 0.12300
H 	H 	0.33810 0.88420 0.11390 0.13800
H 	H 	0.14520 0.87500 0.22690 0.14100
H 	H 	0.43900 0.87190 0.39360 0.03800
H 	H 	0.02410 0.67190 0.23430 0.01000
H 	H 	0.83830 0.58530 0.26740 0.08500
H 	H 	0.31910 0.49260 0.34710 0.06700
H 	H 	0.48790 0.58190 0.37090 0.01100
H 	H 	0.34460 0.19970 0.34990 0.13600
H 	H 	0.40500 0.18860 0.16660 0.12300
H 	H 	0.66190 0.11580 0.11390 0.13800
H 	H 	0.85480 0.12500 0.22690 0.14100
H 	H 	0.56100 0.12810 0.39360 0.03800
H 	H 	0.97590 0.32810 0.23430 0.01000
H 	H 	0.16170 0.41470 0.26740 0.08500
H 	H 	0.68090 0.50740 0.34710 0.06700
H 	H 	0.51210 0.41810 0.37090 0.01100
C 	C 	0.69590 0.69582 0.94200 0.43000
C 	C 	0.76310 0.64561 0.81820 -0.35100
C 	C 	0.88700 0.66473 0.66560 -0.01200
C 	C 	0.76270 0.70098 0.53660 0.30700
C 	C 	0.58800 0.86578 0.75560 0.07800
C 	C 	0.47380 0.91691 0.75900 -0.12900
C 	C 	0.55720 0.97170 0.71560 0.04800
C 	C 	0.75420 0.97070 0.67790 -0.11900
C 	C 	0.85910 0.91840 0.67530 0.05800
C 	C 	0.30410 0.30418 0.94200 0.43000
C 	C 	0.23690 0.35439 0.81820 -0.35100
C 	C 	0.11300 0.33527 0.66560 -0.01200
C 	C 	0.23730 0.29902 0.53660 0.30700
C 	C 	0.41200 0.13422 0.75560 0.07800
C 	C 	0.52620 0.08309 0.75900 -0.12900
C 	C 	0.44280 0.02830 0.71560 0.04800
C 	C 	0.24580 0.02930 0.67790 -0.11900
C 	C 	0.14090 0.08160 0.67530 0.05800
C 	C 	0.19590 0.80418 0.05800 0.43100
C 	C 	0.26310 0.85439 0.18180 -0.35300
C 	C 	0.38700 0.83527 0.33440 -0.00600
C 	C 	0.26270 0.79902 0.46340 0.30600
C 	C 	0.08800 0.63422 0.24440 0.08700
C 	C 	0.97380 0.58309 0.24100 -0.14000
C 	C 	0.05720 0.52830 0.28440 0.05300
C 	C 	0.25420 0.52930 0.32210 -0.11900
C 	C 	0.35910 0.58160 0.32470 0.06000
C 	C 	0.80410 0.19582 0.05800 0.43100
C 	C 	0.73690 0.14561 0.18180 -0.35300
C 	C 	0.61300 0.16473 0.33440 -0.00600
C 	C 	0.73730 0.20098 0.46340 0.30600
C 	C 	0.91200 0.36578 0.24440 0.08700
C 	C 	0.02620 0.41691 0.24100 -0.14000
C 	C 	0.94280 0.47170 0.28440 0.05300
C 	C 	0.74580 0.47070 0.32210 -0.11900
C 	C 	0.64090 0.41840 0.32470 0.06000
N 	N 	0.05270 0.70155 0.72680 -0.32300
N 	N 	0.77940 0.86588 0.73910 -0.21400
N 	N 	0.94730 0.29845 0.72680 -0.32300
N 	N 	0.22060 0.13412 0.73910 -0.21400
N 	N 	0.55270 0.79845 0.27320 -0.32700
N 	N 	0.27940 0.63412 0.26090 -0.21500
N 	N 	0.44730 0.20155 0.27320 -0.32700
N 	N 	0.72060 0.36588 0.26090 -0.21500
O 	O 	0.73630 0.74976 0.91720 -0.42900
O 	O 	0.60000 0.67495 0.06760 -0.43400
O 	O 	0.64860 0.67299 0.43840 -0.37400
O 	O 	0.78570 0.75705 0.53870 -0.41200
O 	O 	0.26370 0.25024 0.91720 -0.42900
O 	O 	0.40000 0.32505 0.06760 -0.43400
O 	O 	0.35140 0.32701 0.43840 -0.37400
O 	O 	0.21430 0.24295 0.53870 -0.41200
O 	O 	0.23630 0.75024 0.08280 -0.42600
O 	O 	0.10000 0.82505 0.93240 -0.42900
O 	O 	0.14860 0.82701 0.56160 -0.37000
O 	O 	0.28570 0.74295 0.46130 -0.40900
O 	O 	0.76370 0.24976 0.08280 -0.42600
O 	O 	0.90000 0.17495 0.93240 -0.42900
O 	O 	0.85140 0.17299 0.56160 -0.37000
O 	O 	0.71430 0.25705 0.46130 -0.40900
