data_crystal

_cell_length_a 6.78580
_cell_length_b 12.61800
_cell_length_c 17.08600
_cell_angle_alpha 90.00000
_cell_angle_beta  90.00000
_cell_angle_gamma 90.00000

_symmetry_space_group_name_	'P 1'
_symmetry_space_group_name_H-M	'P 1'

loop_
_symmetry_equiv_pos_as_xyz
  x,y,z

loop_
_atom_site_label
_atom_site_type_symbol
_atom_site_fract_x
_atom_site_fract_y
_atom_site_fract_z
_atom_site_charge
V 	V 	0.94114 0.26540 0.00074 1.83600
V 	V 	0.55886 0.73460 0.50074 1.83700
V 	V 	0.05886 0.76540 0.49926 1.83500
V 	V 	0.44114 0.23460 0.99926 1.83700
H 	H 	0.94950 0.46360 0.19440 0.05100
H 	H 	0.54530 0.50450 0.32330 0.05900
H 	H 	0.53020 0.40370 0.21110 0.05500
H 	H 	0.96850 0.56550 0.30790 0.06200
H 	H 	0.55050 0.53640 0.69440 0.05400
H 	H 	0.95470 0.49550 0.82330 0.05600
H 	H 	0.96980 0.59630 0.71110 0.05900
H 	H 	0.53150 0.43450 0.80790 0.05900
H 	H 	0.05050 0.96360 0.30560 0.04200
H 	H 	0.45470 0.00450 0.17670 0.06100
H 	H 	0.46980 0.90370 0.28890 0.05100
H 	H 	0.03150 0.06550 0.19210 0.07200
H 	H 	0.44950 0.03640 0.80560 0.05500
H 	H 	0.04530 0.99550 0.67670 0.05200
H 	H 	0.03020 0.09630 0.78890 0.05900
H 	H 	0.46850 0.93450 0.69210 0.05800
C 	C 	0.23930 0.42560 0.19070 -0.09500
C 	C 	0.06950 0.47250 0.21990 0.00300
C 	C 	0.22740 0.36250 0.11740 0.43200
C 	C 	0.42560 0.49670 0.29740 -0.01600
C 	C 	0.41730 0.43660 0.23010 -0.00100
C 	C 	0.26030 0.54500 0.32680 -0.07700
C 	C 	0.08100 0.53300 0.28810 -0.02100
C 	C 	0.27020 0.61540 0.39680 0.41200
C 	C 	0.26070 0.57440 0.69070 -0.09000
C 	C 	0.43050 0.52750 0.71990 -0.00600
C 	C 	0.27260 0.63750 0.61740 0.43000
C 	C 	0.07440 0.50330 0.79740 -0.01000
C 	C 	0.08270 0.56340 0.73010 -0.01000
C 	C 	0.23970 0.45500 0.82680 -0.08100
C 	C 	0.41900 0.46700 0.78810 -0.01300
C 	C 	0.22980 0.38460 0.89680 0.41400
C 	C 	0.76070 0.92560 0.30930 -0.10500
C 	C 	0.93050 0.97250 0.28010 0.02200
C 	C 	0.77260 0.86250 0.38260 0.43500
C 	C 	0.57440 0.99670 0.20260 -0.02500
C 	C 	0.58270 0.93660 0.26990 0.00800
C 	C 	0.73970 0.04500 0.17320 -0.06700
C 	C 	0.91900 0.03300 0.21190 -0.04300
C 	C 	0.72980 0.11540 0.10320 0.40800
C 	C 	0.73930 0.07440 0.80930 -0.08900
C 	C 	0.56950 0.02750 0.78010 -0.00800
C 	C 	0.72740 0.13750 0.88260 0.42900
C 	C 	0.92560 0.00330 0.70260 -0.00800
C 	C 	0.91730 0.06340 0.76990 -0.01200
C 	C 	0.76030 0.95500 0.67320 -0.08000
C 	C 	0.58100 0.96700 0.71190 -0.01300
C 	C 	0.77020 0.88460 0.60320 0.41400
O 	O 	0.22240 0.18534 0.99604 -0.68000
O 	O 	0.06200 0.34490 0.08833 -0.51600
O 	O 	0.44100 0.63500 0.42387 -0.50300
O 	O 	0.10960 0.65050 0.42316 -0.49900
O 	O 	0.39020 0.32990 0.08930 -0.49700
O 	O 	0.27760 0.81466 0.49604 -0.68100
O 	O 	0.43800 0.65510 0.58833 -0.51900
O 	O 	0.05900 0.36500 0.92387 -0.50300
O 	O 	0.39040 0.34950 0.92316 -0.49800
O 	O 	0.10980 0.67010 0.58930 -0.49900
O 	O 	0.77760 0.68534 0.50396 -0.67900
O 	O 	0.93800 0.84490 0.41167 -0.51800
O 	O 	0.55900 0.13500 0.07613 -0.50200
O 	O 	0.89040 0.15050 0.07684 -0.49900
O 	O 	0.60980 0.82990 0.41070 -0.49800
O 	O 	0.72240 0.31466 0.00396 -0.68000
O 	O 	0.56200 0.15510 0.91167 -0.51900
O 	O 	0.94100 0.86500 0.57613 -0.50100
O 	O 	0.60960 0.84950 0.57684 -0.49800
O 	O 	0.89020 0.17010 0.91070 -0.49800
