data_crystal

_cell_length_a 6.79600
_cell_length_b 10.21400
_cell_length_c 18.41000
_cell_angle_alpha 90.00000
_cell_angle_beta  90.00000
_cell_angle_gamma 90.00000

_symmetry_space_group_name_	'P 1'
_symmetry_space_group_name_H-M	'P 1'

loop_
_symmetry_equiv_pos_as_xyz
  x,y,z

loop_
_atom_site_label
_atom_site_type_symbol
_atom_site_fract_x
_atom_site_fract_y
_atom_site_fract_z
_atom_site_charge
V 	V 	0.80070 0.26770 0.25000 1.84000
V 	V 	0.69930 0.76770 0.75000 1.84000
V 	V 	0.19930 0.73230 0.75000 1.84000
V 	V 	0.30070 0.23230 0.25000 1.84000
H 	H 	0.29740 0.02400 0.44210 0.05400
H 	H 	0.71410 0.05990 0.44160 0.05500
H 	H 	0.20260 0.52400 0.55790 0.05500
H 	H 	0.78590 0.55990 0.55840 0.05700
H 	H 	0.70260 0.97600 0.94210 0.05500
H 	H 	0.28590 0.94010 0.94160 0.05600
H 	H 	0.79740 0.47600 0.05790 0.05500
H 	H 	0.21410 0.44010 0.05840 0.05700
H 	H 	0.70260 0.97600 0.55790 0.05500
H 	H 	0.28590 0.94010 0.55840 0.05600
H 	H 	0.79740 0.47600 0.44210 0.05500
H 	H 	0.21410 0.44010 0.44160 0.05700
H 	H 	0.29740 0.02400 0.05790 0.05500
H 	H 	0.71410 0.05990 0.05840 0.05600
H 	H 	0.20260 0.52400 0.94210 0.05500
H 	H 	0.78590 0.55990 0.94160 0.05700
C 	C 	0.01380 0.10840 0.35630 0.42400
C 	C 	0.00720 0.04770 0.43030 -0.08700
C 	C 	0.17700 0.01390 0.46540 -0.00900
C 	C 	0.83000 0.03520 0.46500 -0.00700
C 	C 	0.48620 0.60840 0.64370 0.42300
C 	C 	0.49280 0.54770 0.56970 -0.08600
C 	C 	0.32300 0.51390 0.53460 -0.00800
C 	C 	0.67000 0.53520 0.53500 -0.00900
C 	C 	0.98620 0.89160 0.85630 0.42400
C 	C 	0.99280 0.95230 0.93030 -0.08600
C 	C 	0.82300 0.98610 0.96540 -0.00900
C 	C 	0.17000 0.96480 0.96500 -0.00800
C 	C 	0.51380 0.39160 0.14370 0.42300
C 	C 	0.50720 0.45230 0.06970 -0.08600
C 	C 	0.67700 0.48610 0.03460 -0.00800
C 	C 	0.33000 0.46480 0.03500 -0.00900
C 	C 	0.98620 0.89160 0.64370 0.42400
C 	C 	0.99280 0.95230 0.56970 -0.08700
C 	C 	0.82300 0.98610 0.53460 -0.00900
C 	C 	0.17000 0.96480 0.53500 -0.00700
C 	C 	0.51380 0.39160 0.35630 0.42300
C 	C 	0.50720 0.45230 0.43030 -0.08600
C 	C 	0.67700 0.48610 0.46540 -0.00800
C 	C 	0.33000 0.46480 0.46500 -0.00900
C 	C 	0.01380 0.10840 0.14370 0.42400
C 	C 	0.00720 0.04770 0.06970 -0.08600
C 	C 	0.17700 0.01390 0.03460 -0.00900
C 	C 	0.83000 0.03520 0.03500 -0.00800
C 	C 	0.48620 0.60840 0.85630 0.42300
C 	C 	0.49280 0.54770 0.93030 -0.08600
C 	C 	0.32300 0.51390 0.96540 -0.00800
C 	C 	0.67000 0.53520 0.96500 -0.00900
O 	O 	0.85170 0.13970 0.32750 -0.50000
O 	O 	0.18070 0.12420 0.32830 -0.50700
O 	O 	0.64830 0.63970 0.67250 -0.50000
O 	O 	0.31930 0.62420 0.67170 -0.50700
O 	O 	0.14830 0.86030 0.82750 -0.50000
O 	O 	0.81930 0.87580 0.82830 -0.50700
O 	O 	0.35170 0.36030 0.17250 -0.50000
O 	O 	0.68070 0.37580 0.17170 -0.50700
O 	O 	0.14830 0.86030 0.67250 -0.50000
O 	O 	0.81930 0.87580 0.67170 -0.50700
O 	O 	0.35170 0.36030 0.32750 -0.50000
O 	O 	0.68070 0.37580 0.32830 -0.50700
O 	O 	0.85170 0.13970 0.17250 -0.50000
O 	O 	0.18070 0.12420 0.17170 -0.50700
O 	O 	0.64830 0.63970 0.82750 -0.50000
O 	O 	0.31930 0.62420 0.82830 -0.50700
O 	O 	0.01600 0.32840 0.25000 -0.68900
O 	O 	0.48400 0.82840 0.75000 -0.69000
O 	O 	0.98400 0.67160 0.75000 -0.68900
O 	O 	0.51600 0.17160 0.25000 -0.69000
