data_crystal

_cell_length_a 6.78490
_cell_length_b 13.03090
_cell_length_c 16.85100
_cell_angle_alpha 90.00000
_cell_angle_beta  90.00000
_cell_angle_gamma 90.00000

_symmetry_space_group_name_	'P 1'
_symmetry_space_group_name_H-M	'P 1'

loop_
_symmetry_equiv_pos_as_xyz
  x,y,z

loop_
_atom_site_label
_atom_site_type_symbol
_atom_site_fract_x
_atom_site_fract_y
_atom_site_fract_z
_atom_site_charge
V 	V 	0.94078 0.23536 0.50034 1.83200
V 	V 	0.55922 0.76464 0.00034 1.83300
V 	V 	0.05922 0.73536 0.99966 1.83200
V 	V 	0.44078 0.26464 0.49966 1.83400
H 	H 	0.03040 0.41720 0.29610 0.06200
H 	H 	0.05140 0.52070 0.18500 0.05300
H 	H 	0.46580 0.57040 0.19750 0.05600
H 	H 	0.45040 0.47070 0.31110 0.05800
H 	H 	0.46960 0.58280 0.79610 0.05800
H 	H 	0.44860 0.47930 0.68500 0.05500
H 	H 	0.03420 0.42960 0.69750 0.05800
H 	H 	0.04960 0.52930 0.81110 0.05300
H 	H 	0.96960 0.91720 0.20390 0.06600
H 	H 	0.94860 0.02070 0.31500 0.04400
H 	H 	0.53420 0.07040 0.30250 0.05500
H 	H 	0.54960 0.97070 0.18890 0.05900
H 	H 	0.53040 0.08280 0.70390 0.05600
H 	H 	0.55140 0.97930 0.81500 0.05700
H 	H 	0.96580 0.92960 0.80250 0.06700
H 	H 	0.95040 0.02930 0.68890 0.04700
C 	C 	0.72960 0.36770 0.38699 0.42100
C 	C 	0.73930 0.43480 0.31463 -0.07800
C 	C 	0.91780 0.44920 0.27657 -0.01900
C 	C 	0.93070 0.51060 0.20994 -0.00400
C 	C 	0.57980 0.54090 0.21787 -0.00400
C 	C 	0.57030 0.48050 0.28543 -0.01500
C 	C 	0.77200 0.62470 0.10949 0.42600
C 	C 	0.76040 0.55740 0.18045 -0.09100
C 	C 	0.77040 0.63230 0.88699 0.42300
C 	C 	0.76070 0.56520 0.81463 -0.08300
C 	C 	0.58220 0.55080 0.77657 -0.01000
C 	C 	0.56930 0.48940 0.70994 -0.00900
C 	C 	0.92020 0.45910 0.71787 -0.01100
C 	C 	0.92970 0.51950 0.78543 -0.00500
C 	C 	0.72800 0.37530 0.60949 0.42500
C 	C 	0.73960 0.44260 0.68045 -0.08700
C 	C 	0.27040 0.86770 0.11301 0.42000
C 	C 	0.26070 0.93480 0.18537 -0.07400
C 	C 	0.08220 0.94920 0.22343 -0.02800
C 	C 	0.06930 0.01060 0.29006 0.01100
C 	C 	0.42020 0.04090 0.28213 -0.00300
C 	C 	0.42970 0.98050 0.21457 -0.01600
C 	C 	0.22800 0.12470 0.39051 0.42800
C 	C 	0.23960 0.05740 0.31955 -0.09600
C 	C 	0.22960 0.13230 0.61301 0.42400
C 	C 	0.23930 0.06520 0.68537 -0.08800
C 	C 	0.41780 0.05080 0.72343 -0.00800
C 	C 	0.43070 0.98940 0.79006 -0.01200
C 	C 	0.07980 0.95910 0.78213 -0.02600
C 	C 	0.07030 0.01950 0.71457 0.00600
C 	C 	0.27200 0.87530 0.89051 0.42200
C 	C 	0.26040 0.94260 0.81955 -0.08100
O 	O 	0.72116 0.18710 0.50119 -0.67900
O 	O 	0.89010 0.33489 0.41407 -0.50400
O 	O 	0.93960 0.64397 0.08128 -0.51000
O 	O 	0.55960 0.34897 0.41396 -0.51000
O 	O 	0.61100 0.65977 0.08309 -0.49900
O 	O 	0.77884 0.81290 0.00119 -0.67800
O 	O 	0.60990 0.66511 0.91407 -0.50200
O 	O 	0.56040 0.35603 0.58128 -0.51000
O 	O 	0.94040 0.65103 0.91396 -0.50700
O 	O 	0.88900 0.34023 0.58309 -0.49900
O 	O 	0.27884 0.68710 0.99881 -0.67800
O 	O 	0.10990 0.83489 0.08593 -0.50300
O 	O 	0.06040 0.14397 0.41872 -0.50900
O 	O 	0.44040 0.84897 0.08604 -0.50900
O 	O 	0.38900 0.15977 0.41691 -0.49900
O 	O 	0.22116 0.31290 0.49881 -0.67700
O 	O 	0.39010 0.16511 0.58593 -0.50300
O 	O 	0.43960 0.85603 0.91872 -0.50900
O 	O 	0.05960 0.15103 0.58604 -0.50900
O 	O 	0.11100 0.84023 0.91691 -0.49900
