data_crystal

_cell_length_a 7.53500
_cell_length_b 10.46600
_cell_length_c 21.51300
_cell_angle_alpha 90.00000
_cell_angle_beta  90.00000
_cell_angle_gamma 96.66600

_symmetry_space_group_name_	'P 1'
_symmetry_space_group_name_H-M	'P 1'

loop_
_symmetry_equiv_pos_as_xyz
  x,y,z

loop_
_atom_site_label
_atom_site_type_symbol
_atom_site_fract_x
_atom_site_fract_y
_atom_site_fract_z
_atom_site_charge
Mn	Mn	0.62560 0.66741 0.76239 1.27700
Mn	Mn	0.87440 0.33259 0.26239 1.27700
Mn	Mn	0.37440 0.33259 0.23761 1.27700
Mn	Mn	0.12560 0.66741 0.73761 1.27700
H 	H 	0.75310 0.92860 0.62540 0.03400
H 	H 	0.83630 0.03600 0.53520 0.06200
H 	H 	0.59630 0.42810 0.57310 0.03200
H 	H 	0.06680 0.64440 0.59960 0.02900
H 	H 	0.69250 0.35760 0.48020 0.07000
H 	H 	0.24270 0.88090 0.56880 0.05300
H 	H 	0.74690 0.07140 0.12540 0.03400
H 	H 	0.66370 0.96400 0.03520 0.06200
H 	H 	0.90370 0.57190 0.07310 0.03200
H 	H 	0.43320 0.35560 0.09960 0.02900
H 	H 	0.80750 0.64240 0.98020 0.07000
H 	H 	0.25730 0.11910 0.06880 0.05300
H 	H 	0.24690 0.07140 0.37460 0.03400
H 	H 	0.16370 0.96400 0.46480 0.06200
H 	H 	0.40370 0.57190 0.42690 0.03200
H 	H 	0.93320 0.35560 0.40040 0.02900
H 	H 	0.30750 0.64240 0.51980 0.07000
H 	H 	0.75730 0.11910 0.43120 0.05300
H 	H 	0.25310 0.92860 0.87460 0.03400
H 	H 	0.33630 0.03600 0.96480 0.06200
H 	H 	0.09630 0.42810 0.92690 0.03200
H 	H 	0.56680 0.64440 0.90040 0.02900
H 	H 	0.19250 0.35760 0.01980 0.07000
H 	H 	0.74270 0.88090 0.93120 0.05300
C 	C 	0.66750 0.94100 0.59549 0.01800
C 	C 	0.82570 0.54240 0.59694 -0.11300
C 	C 	0.75910 0.58310 0.65791 0.34800
C 	C 	0.71700 0.00480 0.54138 -0.09400
C 	C 	0.48600 0.89380 0.60589 -0.09500
C 	C 	0.59070 0.02400 0.49508 0.02400
C 	C 	0.71140 0.45600 0.55947 0.02700
C 	C 	0.99310 0.58630 0.57567 -0.03400
C 	C 	0.76880 0.41400 0.50409 -0.10200
C 	C 	0.05580 0.54460 0.51785 0.02300
C 	C 	0.36180 0.91170 0.56162 -0.03400
C 	C 	0.43430 0.82290 0.66541 0.39200
C 	C 	0.83250 0.05900 0.09549 0.01800
C 	C 	0.67430 0.45760 0.09694 -0.11300
C 	C 	0.74090 0.41690 0.15791 0.34800
C 	C 	0.78300 0.99520 0.04138 -0.09300
C 	C 	0.01400 0.10620 0.10589 -0.09500
C 	C 	0.90930 0.97600 0.99508 0.02300
C 	C 	0.78860 0.54400 0.05947 0.02700
C 	C 	0.50690 0.41370 0.07567 -0.03500
C 	C 	0.73120 0.58600 0.00409 -0.10200
C 	C 	0.44420 0.45540 0.01785 0.02300
C 	C 	0.13820 0.08830 0.06162 -0.03300
C 	C 	0.06570 0.17710 0.16541 0.39200
C 	C 	0.33250 0.05900 0.40451 0.01800
C 	C 	0.17430 0.45760 0.40306 -0.11300
C 	C 	0.24090 0.41690 0.34209 0.34800
C 	C 	0.28300 0.99520 0.45862 -0.09400
C 	C 	0.51400 0.10620 0.39411 -0.09500
C 	C 	0.40930 0.97600 0.50492 0.02400
C 	C 	0.28860 0.54400 0.44053 0.02700
C 	C 	0.00690 0.41370 0.42433 -0.03400
C 	C 	0.23120 0.58600 0.49591 -0.10200
C 	C 	0.94420 0.45540 0.48215 0.02300
C 	C 	0.63820 0.08830 0.43838 -0.03400
C 	C 	0.56570 0.17710 0.33459 0.39200
C 	C 	0.16750 0.94100 0.90451 0.01800
C 	C 	0.32570 0.54240 0.90306 -0.11300
C 	C 	0.25910 0.58310 0.84209 0.34800
C 	C 	0.21700 0.00480 0.95862 -0.09300
C 	C 	0.98600 0.89380 0.89411 -0.09500
C 	C 	0.09070 0.02400 0.00492 0.02300
C 	C 	0.21140 0.45600 0.94053 0.02700
C 	C 	0.49310 0.58630 0.92433 -0.03500
C 	C 	0.26880 0.41400 0.99591 -0.10200
C 	C 	0.55580 0.54460 0.98215 0.02300
C 	C 	0.86180 0.91170 0.93838 -0.03300
C 	C 	0.93430 0.82290 0.83459 0.39200
O 	O 	0.86480 0.64742 0.69632 -0.55900
O 	O 	0.59840 0.55448 0.67149 -0.42900
O 	O 	0.55160 0.81905 0.70607 -0.45400
O 	O 	0.27390 0.77418 0.66993 -0.47500
O 	O 	0.63520 0.35258 0.19632 -0.55900
O 	O 	0.90160 0.44552 0.17149 -0.42900
O 	O 	0.94840 0.18095 0.20607 -0.45400
O 	O 	0.22610 0.22582 0.16993 -0.47500
O 	O 	0.13520 0.35258 0.30368 -0.55900
O 	O 	0.40160 0.44552 0.32851 -0.42900
O 	O 	0.44840 0.18095 0.29393 -0.45400
O 	O 	0.72610 0.22582 0.33007 -0.47500
O 	O 	0.36480 0.64742 0.80368 -0.55900
O 	O 	0.09840 0.55448 0.82851 -0.42900
O 	O 	0.05160 0.81905 0.79393 -0.45400
O 	O 	0.77390 0.77418 0.83007 -0.47500
