data_crystal

_cell_length_a 6.30570
_cell_length_b 8.35290
_cell_length_c 9.10640
_cell_angle_alpha 98.20000
_cell_angle_beta  91.28000
_cell_angle_gamma 103.20000

_symmetry_space_group_name_	'P 1'
_symmetry_space_group_name_H-M	'P 1'

loop_
_symmetry_equiv_pos_as_xyz
  x,y,z

loop_
_atom_site_label
_atom_site_type_symbol
_atom_site_fract_x
_atom_site_fract_y
_atom_site_fract_z
_atom_site_charge
U 	U 	0.50000 0.50000 -0.00000 -0.00100
Zn	Zn	0.00000 0.50000 0.50000 1.13200
H 	H 	0.59300 0.95800 0.25500 0.22600
H 	H 	0.40700 0.04200 0.74500 0.20200
C 	C 	0.13220 0.29120 0.22960 0.38600
C 	C 	0.06030 0.13680 0.11270 -0.19500
C 	C 	0.77350 0.26900 0.01840 0.24500
C 	C 	0.34970 0.02070 0.21900 0.30600
C 	C 	0.17130 0.00920 0.10310 0.05900
C 	C 	0.88830 0.12780 0.01040 0.15200
C 	C 	0.86780 0.70880 0.77040 0.30200
C 	C 	0.93970 0.86320 0.88730 0.14700
C 	C 	0.22650 0.73100 0.98160 0.33600
C 	C 	0.65030 0.97930 0.78100 0.36900
C 	C 	0.82870 0.99080 0.89690 -0.10700
C 	C 	0.11170 0.87220 0.98960 -0.18300
O 	O 	0.35180 0.09950 0.34250 -0.26200
O 	O 	0.02000 0.29910 0.34065 -0.49600
O 	O 	0.49510 0.93940 0.17530 -0.35000
O 	O 	0.29260 0.40182 0.20554 -0.25700
O 	O 	0.64570 0.29020 0.11866 -0.16800
O 	O 	0.80720 0.36540 0.92294 -0.15000
O 	O 	0.64820 0.90050 0.65750 -0.27000
O 	O 	0.98000 0.70090 0.65935 -0.37400
O 	O 	0.50490 0.06060 0.82470 -0.36400
O 	O 	0.70740 0.59818 0.79446 -0.21600
O 	O 	0.35430 0.70980 0.88134 -0.22900
O 	O 	0.19280 0.63460 0.07706 -0.24000
