data_crystal

_cell_length_a 9.46100
_cell_length_b 9.40280
_cell_length_c 20.96300
_cell_angle_alpha 90.00000
_cell_angle_beta  100.18600
_cell_angle_gamma 90.00000

_symmetry_space_group_name_	'P 1'
_symmetry_space_group_name_H-M	'P 1'

loop_
_symmetry_equiv_pos_as_xyz
  x,y,z

loop_
_atom_site_label
_atom_site_type_symbol
_atom_site_fract_x
_atom_site_fract_y
_atom_site_fract_z
_atom_site_charge
O 	O 	0.24670 0.15010 0.41042 -0.49200
In	In	0.37242 0.33423 0.40330 2.00900
In	In	0.12489 0.16450 0.59038 2.01200
P 	P 	0.61911 0.58904 0.43992 0.47000
P 	P 	0.66610 0.12552 0.44278 0.53400
P 	P 	0.20846 0.26340 0.25262 0.45000
P 	P 	0.09600 0.11886 0.42294 0.47300
P 	P 	0.03491 0.51114 0.39719 0.51300
O 	O 	0.33810 0.32410 0.29886 -0.42700
O 	O 	0.06620 0.17900 0.48677 -0.53500
O 	O 	0.23340 0.10890 0.23631 -0.22800
O 	O 	0.49460 0.52390 0.39095 -0.43000
O 	O 	0.16940 0.35640 0.19323 -0.45000
O 	O 	0.02710 0.67100 0.40296 -0.47000
O 	O 	0.06680 0.95970 0.41465 -0.45500
O 	O 	0.70330 0.69090 0.40464 -0.49200
O 	O 	0.56160 0.65890 0.49552 -0.51500
O 	O 	0.18680 0.46490 0.39765 -0.48600
O 	O 	0.55470 0.20460 0.39651 -0.46900
O 	O 	0.74410 0.01630 0.41190 -0.50800
H 	H 	0.09000 0.26000 0.28000 -0.01200
H 	H 	0.00600 0.19200 0.38000 -0.03600
H 	H 	0.71300 0.48100 0.46200 -0.04200
H 	H 	0.98700 0.43900 0.44700 -0.04700
O 	O 	0.93670 0.45660 0.33600 -0.44500
H 	H 	0.85400 0.48220 0.33630 0.28600
O 	O 	0.76990 0.23360 0.47950 -0.46400
H 	H 	0.85230 0.21280 0.47590 0.28000
H 	H 	0.59200 0.04700 0.48500 -0.02600
O 	O 	0.75330 0.65010 0.08958 -0.49100
In	In	0.62758 0.83423 0.09670 2.01000
In	In	0.87511 0.66450 0.90962 2.01200
P 	P 	0.38089 0.08904 0.06008 0.46800
P 	P 	0.33390 0.62552 0.05722 0.53400
P 	P 	0.79154 0.76340 0.24738 0.45000
P 	P 	0.90400 0.61886 0.07706 0.47900
P 	P 	0.96509 0.01114 0.10281 0.52700
O 	O 	0.66190 0.82410 0.20114 -0.42800
O 	O 	0.93380 0.67900 0.01323 -0.53400
O 	O 	0.76660 0.60890 0.26369 -0.22500
O 	O 	0.50540 0.02390 0.10905 -0.42800
O 	O 	0.83060 0.85640 0.30677 -0.45100
O 	O 	0.97290 0.17100 0.09704 -0.47000
O 	O 	0.93320 0.45970 0.08535 -0.45900
O 	O 	0.29670 0.19090 0.09536 -0.49300
O 	O 	0.43840 0.15890 0.00448 -0.51400
O 	O 	0.81320 0.96490 0.10235 -0.49300
O 	O 	0.44530 0.70460 0.10349 -0.46900
O 	O 	0.25590 0.51630 0.08810 -0.51200
H 	H 	0.91000 0.76000 0.22000 -0.01200
H 	H 	0.99400 0.69200 0.12000 -0.03500
H 	H 	0.28700 0.98100 0.03800 -0.04200
H 	H 	0.01300 0.93900 0.05300 -0.04900
O 	O 	0.06330 0.95660 0.16400 -0.44800
H 	H 	0.14600 0.98220 0.16370 0.28800
O 	O 	0.23010 0.73360 0.02050 -0.46500
H 	H 	0.14770 0.71280 0.02410 0.27800
H 	H 	0.40800 0.54700 0.01500 -0.02700
O 	O 	0.75330 0.84990 0.58958 -0.49100
In	In	0.62758 0.66577 0.59670 2.01000
In	In	0.87511 0.83550 0.40962 2.01200
P 	P 	0.38089 0.41096 0.56008 0.47000
P 	P 	0.33390 0.87448 0.55722 0.53400
P 	P 	0.79154 0.73660 0.74738 0.45000
P 	P 	0.90400 0.88114 0.57706 0.47300
P 	P 	0.96509 0.48886 0.60281 0.51300
O 	O 	0.66190 0.67590 0.70114 -0.42700
O 	O 	0.93380 0.82100 0.51323 -0.53500
O 	O 	0.76660 0.89110 0.76369 -0.22800
O 	O 	0.50540 0.47610 0.60905 -0.43000
O 	O 	0.83060 0.64360 0.80677 -0.45000
O 	O 	0.97290 0.32900 0.59704 -0.47000
O 	O 	0.93320 0.04030 0.58535 -0.45500
O 	O 	0.29670 0.30910 0.59536 -0.49200
O 	O 	0.43840 0.34110 0.50448 -0.51500
O 	O 	0.81320 0.53510 0.60235 -0.48600
O 	O 	0.44530 0.79540 0.60349 -0.46900
O 	O 	0.25590 0.98370 0.58810 -0.50800
H 	H 	0.91000 0.74000 0.72000 -0.01200
H 	H 	0.99400 0.80800 0.62000 -0.03600
H 	H 	0.28700 0.51900 0.53800 -0.04200
H 	H 	0.01300 0.56100 0.55300 -0.04700
O 	O 	0.06330 0.54340 0.66400 -0.44500
H 	H 	0.14600 0.51780 0.66370 0.28600
O 	O 	0.23010 0.76640 0.52050 -0.46400
H 	H 	0.14770 0.78720 0.52410 0.28000
H 	H 	0.40800 0.95300 0.51500 -0.02600
O 	O 	0.24670 0.34990 0.91042 -0.49100
In	In	0.37242 0.16577 0.90330 2.01000
In	In	0.12489 0.33550 0.09038 2.01200
P 	P 	0.61911 0.91096 0.93992 0.46800
P 	P 	0.66610 0.37448 0.94278 0.53400
P 	P 	0.20846 0.23660 0.75262 0.45000
P 	P 	0.09600 0.38114 0.92294 0.47900
P 	P 	0.03491 0.98886 0.89719 0.52700
O 	O 	0.33810 0.17590 0.79886 -0.42800
O 	O 	0.06620 0.32100 0.98677 -0.53400
O 	O 	0.23340 0.39110 0.73631 -0.22500
O 	O 	0.49460 0.97610 0.89095 -0.42800
O 	O 	0.16940 0.14360 0.69323 -0.45100
O 	O 	0.02710 0.82900 0.90296 -0.47000
O 	O 	0.06680 0.54030 0.91465 -0.45900
O 	O 	0.70330 0.80910 0.90464 -0.49300
O 	O 	0.56160 0.84110 0.99552 -0.51400
O 	O 	0.18680 0.03510 0.89765 -0.49300
O 	O 	0.55470 0.29540 0.89651 -0.46900
O 	O 	0.74410 0.48370 0.91190 -0.51200
H 	H 	0.09000 0.24000 0.78000 -0.01200
H 	H 	0.00600 0.30800 0.88000 -0.03500
H 	H 	0.71300 0.01900 0.96200 -0.04200
H 	H 	0.98700 0.06100 0.94700 -0.04900
O 	O 	0.93670 0.04340 0.83600 -0.44800
H 	H 	0.85400 0.01780 0.83630 0.28800
O 	O 	0.76990 0.26640 0.97950 -0.46500
H 	H 	0.85230 0.28720 0.97590 0.27800
H 	H 	0.59200 0.45300 0.98500 -0.02700
