data_crystal

_cell_length_a 22.20610
_cell_length_b 22.20610
_cell_length_c 23.91720
_cell_angle_alpha 62.33970
_cell_angle_beta  62.33970
_cell_angle_gamma 90.00000

_symmetry_space_group_name_	'P 1'
_symmetry_space_group_name_H-M	'P 1'

loop_
_symmetry_equiv_pos_as_xyz
  x,y,z

loop_
_atom_site_label
_atom_site_type_symbol
_atom_site_fract_x
_atom_site_fract_y
_atom_site_fract_z
_atom_site_charge
Na	Na	0.83743 0.66711 0.81096 0.57000
Na	Na	0.85161 0.52193 0.81096 0.57000
Na	Na	0.64839 0.83289 0.18904 0.57000
Na	Na	0.66257 0.97807 0.18904 0.57000
Na	Na	0.83289 0.64839 0.68904 0.57000
Na	Na	0.97807 0.66257 0.68904 0.57000
Na	Na	0.52193 0.85161 0.31096 0.57000
Na	Na	0.66711 0.83743 0.31096 0.57000
Fe	Fe	0.76529 0.81464 0.94984 1.14900
Fe	Fe	0.78487 0.23552 0.94984 1.14800
Fe	Fe	0.71513 0.68536 0.05016 1.14900
Fe	Fe	0.73471 0.26448 0.05016 1.14900
Fe	Fe	0.68536 0.71513 0.55016 1.14900
Fe	Fe	0.26448 0.73471 0.55016 1.14900
Fe	Fe	0.23552 0.78487 0.44984 1.14900
Fe	Fe	0.81464 0.76529 0.44984 1.14900
H 	H 	0.65830 0.87660 0.99620 0.05000
H 	H 	0.64190 0.80470 0.94660 0.05600
H 	H 	0.75560 0.83690 0.82940 0.05200
H 	H 	0.84460 0.92730 0.80680 0.06500
H 	H 	0.78610 0.95280 0.91080 0.06300
H 	H 	0.84550 0.12720 0.99620 0.05000
H 	H 	0.91150 0.24870 0.94660 0.05600
H 	H 	0.91500 0.33370 0.82940 0.05200
H 	H 	0.84860 0.26590 0.80680 0.06500
H 	H 	0.80310 0.13640 0.91080 0.06300
H 	H 	0.65450 0.62340 0.00380 0.05000
H 	H 	0.58850 0.69530 0.05340 0.05600
H 	H 	0.58500 0.66310 0.17060 0.05300
H 	H 	0.65140 0.57270 0.19320 0.06600
H 	H 	0.69690 0.54720 0.08920 0.06400
H 	H 	0.84170 0.37280 0.00380 0.05100
H 	H 	0.85810 0.25130 0.05340 0.05700
H 	H 	0.74440 0.16630 0.17060 0.05300
H 	H 	0.65540 0.23410 0.19320 0.06600
H 	H 	0.71390 0.36360 0.08920 0.06400
H 	H 	0.62340 0.65450 0.50380 0.05100
H 	H 	0.69530 0.58850 0.55340 0.05700
H 	H 	0.66310 0.58500 0.67060 0.05300
H 	H 	0.57270 0.65140 0.69320 0.06600
H 	H 	0.54720 0.69690 0.58920 0.06400
H 	H 	0.37280 0.84170 0.50380 0.05100
H 	H 	0.25130 0.85810 0.55340 0.05700
H 	H 	0.16630 0.74440 0.67060 0.05300
H 	H 	0.23410 0.65540 0.69320 0.06600
H 	H 	0.36360 0.71390 0.58920 0.06400
H 	H 	0.12720 0.84550 0.49620 0.05100
H 	H 	0.24870 0.91150 0.44660 0.05700
H 	H 	0.33370 0.91500 0.32940 0.05300
H 	H 	0.26590 0.84860 0.30680 0.06600
H 	H 	0.13640 0.80310 0.41080 0.06400
H 	H 	0.87660 0.65830 0.49620 0.05100
H 	H 	0.80470 0.64190 0.44660 0.05700
H 	H 	0.83690 0.75560 0.32940 0.05300
H 	H 	0.92730 0.84460 0.30680 0.06600
H 	H 	0.95280 0.78610 0.41080 0.06400
C 	C 	0.77400 0.73090 0.94520 -0.42700
C 	C 	0.84860 0.82810 0.94100 -0.24900
C 	C 	0.69350 0.87800 0.95280 -0.12500
C 	C 	0.68430 0.83830 0.92500 -0.16500
C 	C 	0.74790 0.85600 0.85960 -0.11800
C 	C 	0.79700 0.90610 0.84720 -0.14200
C 	C 	0.76450 0.92070 0.90520 -0.15200
C 	C 	0.78080 0.32390 0.94520 -0.42800
C 	C 	0.71040 0.23090 0.94100 -0.24900
C 	C 	0.85370 0.16920 0.95280 -0.12500
C 	C 	0.89070 0.23670 0.92500 -0.16500
C 	C 	0.89250 0.28440 0.85960 -0.11800
C 	C 	0.85580 0.24670 0.84720 -0.14200
C 	C 	0.83030 0.17410 0.90520 -0.15200
C 	C 	0.71920 0.76910 0.05480 -0.42700
C 	C 	0.78960 0.67190 0.05900 -0.24900
C 	C 	0.64630 0.62200 0.04720 -0.12500
C 	C 	0.60930 0.66170 0.07500 -0.16500
C 	C 	0.60750 0.64400 0.14040 -0.11800
C 	C 	0.64420 0.59390 0.15280 -0.14200
C 	C 	0.66970 0.57930 0.09480 -0.15200
C 	C 	0.72600 0.17610 0.05480 -0.42700
C 	C 	0.65140 0.26910 0.05900 -0.24900
C 	C 	0.80650 0.33080 0.04720 -0.12500
C 	C 	0.81570 0.26330 0.07500 -0.16500
C 	C 	0.75210 0.21560 0.14040 -0.11800
C 	C 	0.70300 0.25330 0.15280 -0.14200
C 	C 	0.73550 0.32590 0.09480 -0.15200
C 	C 	0.76910 0.71920 0.55480 -0.42700
C 	C 	0.67190 0.78960 0.55900 -0.24900
C 	C 	0.62200 0.64630 0.54720 -0.12500
C 	C 	0.66170 0.60930 0.57500 -0.16500
C 	C 	0.64400 0.60750 0.64040 -0.11800
C 	C 	0.59390 0.64420 0.65280 -0.14200
C 	C 	0.57930 0.66970 0.59480 -0.15200
C 	C 	0.17610 0.72600 0.55480 -0.42700
C 	C 	0.26910 0.65140 0.55900 -0.24900
C 	C 	0.33080 0.80650 0.54720 -0.12500
C 	C 	0.26330 0.81570 0.57500 -0.16500
C 	C 	0.21560 0.75210 0.64040 -0.11800
C 	C 	0.25330 0.70300 0.65280 -0.14200
C 	C 	0.32590 0.73550 0.59480 -0.15200
C 	C 	0.32390 0.78080 0.44520 -0.42700
C 	C 	0.23090 0.71040 0.44100 -0.24900
C 	C 	0.16920 0.85370 0.45280 -0.12500
C 	C 	0.23670 0.89070 0.42500 -0.16500
C 	C 	0.28440 0.89250 0.35960 -0.11800
C 	C 	0.24670 0.85580 0.34720 -0.14200
C 	C 	0.17410 0.83030 0.40520 -0.15200
C 	C 	0.73090 0.77400 0.44520 -0.42700
C 	C 	0.82810 0.84860 0.44100 -0.24900
C 	C 	0.87800 0.69350 0.45280 -0.12500
C 	C 	0.83830 0.68430 0.42500 -0.16500
C 	C 	0.85600 0.74790 0.35960 -0.11800
C 	C 	0.90610 0.79700 0.34720 -0.14200
C 	C 	0.92070 0.76450 0.40520 -0.15200
O 	O 	0.90002 0.73119 0.68456 -0.39400
O 	O 	0.80117 0.71507 0.89846 -0.15400
O 	O 	0.90260 0.83700 0.93520 -0.08400
O 	O 	0.91542 0.58425 0.68456 -0.39400
O 	O 	0.80037 0.38647 0.89846 -0.15400
O 	O 	0.66220 0.22780 0.93520 -0.08400
O 	O 	0.58458 0.76881 0.31544 -0.39400
O 	O 	0.69963 0.78493 0.10154 -0.15400
O 	O 	0.83780 0.66300 0.06480 -0.08400
O 	O 	0.59998 0.91575 0.31544 -0.39400
O 	O 	0.69883 0.11353 0.10154 -0.15400
O 	O 	0.59740 0.27220 0.06480 -0.08400
O 	O 	0.76881 0.58458 0.81544 -0.39400
O 	O 	0.78493 0.69963 0.60154 -0.15400
O 	O 	0.66300 0.83780 0.56480 -0.08400
O 	O 	0.91575 0.59998 0.81544 -0.39400
O 	O 	0.11353 0.69883 0.60154 -0.15400
O 	O 	0.27220 0.59740 0.56480 -0.08400
O 	O 	0.58425 0.91542 0.18456 -0.39400
O 	O 	0.38647 0.80037 0.39846 -0.15400
O 	O 	0.22780 0.66220 0.43520 -0.08400
O 	O 	0.73119 0.90002 0.18456 -0.39400
O 	O 	0.71507 0.80117 0.39846 -0.15400
O 	O 	0.83700 0.90260 0.43520 -0.08400
Na	Na	0.16711 0.35161 0.31096 0.57100
Na	Na	0.02193 0.33743 0.31096 0.57100
Na	Na	0.47807 0.14839 0.68904 0.57100
Na	Na	0.33289 0.16257 0.68904 0.57100
Na	Na	0.16257 0.33289 0.18904 0.57100
Na	Na	0.14839 0.47807 0.18904 0.57100
Na	Na	0.35161 0.16711 0.81096 0.57100
Na	Na	0.33743 0.02193 0.81096 0.57100
Fe	Fe	0.31464 0.28487 0.44984 1.15000
Fe	Fe	0.73552 0.26529 0.44984 1.15000
Fe	Fe	0.76448 0.21513 0.55016 1.15000
Fe	Fe	0.18536 0.23471 0.55016 1.15000
Fe	Fe	0.23471 0.18536 0.05016 1.15000
Fe	Fe	0.21513 0.76448 0.05016 1.14900
Fe	Fe	0.28487 0.31464 0.94984 1.15000
Fe	Fe	0.26529 0.73552 0.94984 1.15000
H 	H 	0.37660 0.34550 0.49620 0.05100
H 	H 	0.30470 0.41150 0.44660 0.05700
H 	H 	0.33690 0.41500 0.32940 0.05300
H 	H 	0.42730 0.34860 0.30680 0.06600
H 	H 	0.45280 0.30310 0.41080 0.06400
H 	H 	0.62720 0.15830 0.49620 0.05100
H 	H 	0.74870 0.14190 0.44660 0.05700
H 	H 	0.83370 0.25560 0.32940 0.05300
H 	H 	0.76590 0.34460 0.30680 0.06600
H 	H 	0.63640 0.28610 0.41080 0.06400
H 	H 	0.87280 0.15450 0.50380 0.05100
H 	H 	0.75130 0.08850 0.55340 0.05700
H 	H 	0.66630 0.08500 0.67060 0.05300
H 	H 	0.73410 0.15140 0.69320 0.06600
H 	H 	0.86360 0.19690 0.58920 0.06400
H 	H 	0.12340 0.34170 0.50380 0.05100
H 	H 	0.19530 0.35810 0.55340 0.05700
H 	H 	0.16310 0.24440 0.67060 0.05300
H 	H 	0.07270 0.15540 0.69320 0.06600
H 	H 	0.04720 0.21390 0.58920 0.06400
H 	H 	0.34170 0.12340 0.00380 0.05100
H 	H 	0.35810 0.19530 0.05340 0.05700
H 	H 	0.24440 0.16310 0.17060 0.05300
H 	H 	0.15540 0.07270 0.19320 0.06600
H 	H 	0.21390 0.04720 0.08920 0.06400
H 	H 	0.15450 0.87280 0.00380 0.05100
H 	H 	0.08850 0.75130 0.05340 0.05700
H 	H 	0.08500 0.66630 0.17060 0.05300
H 	H 	0.15140 0.73410 0.19320 0.06600
H 	H 	0.19690 0.86360 0.08920 0.06400
H 	H 	0.34550 0.37660 0.99620 0.05100
H 	H 	0.41150 0.30470 0.94660 0.05700
H 	H 	0.41500 0.33690 0.82940 0.05300
H 	H 	0.34860 0.42730 0.80680 0.06600
H 	H 	0.30310 0.45280 0.91080 0.06400
H 	H 	0.15830 0.62720 0.99620 0.05100
H 	H 	0.14190 0.74870 0.94660 0.05700
H 	H 	0.25560 0.83370 0.82940 0.05300
H 	H 	0.34460 0.76590 0.80680 0.06600
H 	H 	0.28610 0.63640 0.91080 0.06400
C 	C 	0.23090 0.28080 0.44520 -0.42700
C 	C 	0.32810 0.21040 0.44100 -0.24900
C 	C 	0.37800 0.35370 0.45280 -0.12500
C 	C 	0.33830 0.39070 0.42500 -0.16500
C 	C 	0.35600 0.39250 0.35960 -0.11800
C 	C 	0.40610 0.35580 0.34720 -0.14200
C 	C 	0.42070 0.33030 0.40520 -0.15200
C 	C 	0.82390 0.27400 0.44520 -0.42700
C 	C 	0.73090 0.34860 0.44100 -0.24900
C 	C 	0.66920 0.19350 0.45280 -0.12500
C 	C 	0.73670 0.18430 0.42500 -0.16500
C 	C 	0.78440 0.24790 0.35960 -0.11800
C 	C 	0.74670 0.29700 0.34720 -0.14200
C 	C 	0.67410 0.26450 0.40520 -0.15200
C 	C 	0.67610 0.21920 0.55480 -0.42700
C 	C 	0.76910 0.28960 0.55900 -0.24900
C 	C 	0.83080 0.14630 0.54720 -0.12500
C 	C 	0.76330 0.10930 0.57500 -0.16500
C 	C 	0.71560 0.10750 0.64040 -0.11800
C 	C 	0.75330 0.14420 0.65280 -0.14200
C 	C 	0.82590 0.16970 0.59480 -0.15200
C 	C 	0.26910 0.22600 0.55480 -0.42700
C 	C 	0.17190 0.15140 0.55900 -0.24900
C 	C 	0.12200 0.30650 0.54720 -0.12500
C 	C 	0.16170 0.31570 0.57500 -0.16500
C 	C 	0.14400 0.25210 0.64040 -0.11800
C 	C 	0.09390 0.20300 0.65280 -0.14200
C 	C 	0.07930 0.23550 0.59480 -0.15200
C 	C 	0.22600 0.26910 0.05480 -0.42700
C 	C 	0.15140 0.17190 0.05900 -0.24900
C 	C 	0.30650 0.12200 0.04720 -0.12500
C 	C 	0.31570 0.16170 0.07500 -0.16500
C 	C 	0.25210 0.14400 0.14040 -0.11800
C 	C 	0.20300 0.09390 0.15280 -0.14200
C 	C 	0.23550 0.07930 0.09480 -0.15200
C 	C 	0.21920 0.67610 0.05480 -0.42800
C 	C 	0.28960 0.76910 0.05900 -0.24900
C 	C 	0.14630 0.83080 0.04720 -0.12500
C 	C 	0.10930 0.76330 0.07500 -0.16500
C 	C 	0.10750 0.71560 0.14040 -0.11800
C 	C 	0.14420 0.75330 0.15280 -0.14200
C 	C 	0.16970 0.82590 0.09480 -0.15200
C 	C 	0.28080 0.23090 0.94520 -0.42700
C 	C 	0.21040 0.32810 0.94100 -0.24900
C 	C 	0.35370 0.37800 0.95280 -0.12500
C 	C 	0.39070 0.33830 0.92500 -0.16500
C 	C 	0.39250 0.35600 0.85960 -0.11800
C 	C 	0.35580 0.40610 0.84720 -0.14200
C 	C 	0.33030 0.42070 0.90520 -0.15200
C 	C 	0.27400 0.82390 0.94520 -0.42700
C 	C 	0.34860 0.73090 0.94100 -0.24900
C 	C 	0.19350 0.66920 0.95280 -0.12500
C 	C 	0.18430 0.73670 0.92500 -0.16500
C 	C 	0.24790 0.78440 0.85960 -0.11800
C 	C 	0.29700 0.74670 0.84720 -0.14200
C 	C 	0.26450 0.67410 0.90520 -0.15200
O 	O 	0.23119 0.41542 0.18456 -0.39400
O 	O 	0.21507 0.30037 0.39846 -0.15400
O 	O 	0.33700 0.16220 0.43520 -0.08400
O 	O 	0.08425 0.40002 0.18456 -0.39400
O 	O 	0.88647 0.30117 0.39846 -0.15400
O 	O 	0.72780 0.40260 0.43520 -0.08400
O 	O 	0.41575 0.08458 0.81544 -0.39400
O 	O 	0.61353 0.19963 0.60154 -0.15400
O 	O 	0.77220 0.33780 0.56480 -0.08400
O 	O 	0.26881 0.09998 0.81544 -0.39400
O 	O 	0.28493 0.19883 0.60154 -0.15400
O 	O 	0.16300 0.09740 0.56480 -0.08400
O 	O 	0.09998 0.26881 0.31544 -0.39400
O 	O 	0.19883 0.28493 0.10154 -0.15400
O 	O 	0.09740 0.16300 0.06480 -0.08400
O 	O 	0.08458 0.41575 0.31544 -0.39400
O 	O 	0.19963 0.61353 0.10154 -0.15400
O 	O 	0.33780 0.77220 0.06480 -0.08400
O 	O 	0.41542 0.23119 0.68456 -0.39400
O 	O 	0.30037 0.21507 0.89846 -0.15400
O 	O 	0.16220 0.33700 0.93520 -0.08400
O 	O 	0.40002 0.08425 0.68456 -0.39400
O 	O 	0.30117 0.88647 0.89846 -0.15400
O 	O 	0.40260 0.72780 0.93520 -0.08400
