data_crystal

_cell_length_a 10.19800
_cell_length_b 13.28500
_cell_length_c 22.36700
_cell_angle_alpha 90.00000
_cell_angle_beta  90.00000
_cell_angle_gamma 97.77500

_symmetry_space_group_name_	'P 1'
_symmetry_space_group_name_H-M	'P 1'

loop_
_symmetry_equiv_pos_as_xyz
  x,y,z

loop_
_atom_site_label
_atom_site_type_symbol
_atom_site_fract_x
_atom_site_fract_y
_atom_site_fract_z
_atom_site_charge
Cd	Cd	0.20680 0.31683 0.58015 1.17200
Cd	Cd	0.21163 0.21535 0.74358 1.14000
Cd	Cd	0.66231 0.00876 0.60692 1.14300
Cd	Cd	0.79320 0.18317 0.08015 1.17300
Cd	Cd	0.78837 0.28465 0.24358 1.14100
Cd	Cd	0.33769 0.49124 0.10692 1.14300
Cd	Cd	0.79320 0.68317 0.41985 1.17300
Cd	Cd	0.78837 0.78465 0.25642 1.14100
Cd	Cd	0.33769 0.99124 0.39308 1.14300
Cd	Cd	0.20680 0.81683 0.91985 1.17300
Cd	Cd	0.21163 0.71535 0.75642 1.14100
Cd	Cd	0.66231 0.50876 0.89308 1.14300
H 	H 	0.04040 0.49150 0.41480 -0.01600
H 	H 	0.05440 0.57120 0.32120 0.10100
H 	H 	0.44390 0.64910 0.34670 0.10600
H 	H 	0.42920 0.56630 0.43910 -0.01200
H 	H 	0.19030 0.46080 0.79470 -0.07900
H 	H 	0.24300 0.56250 0.63370 -0.05600
H 	H 	0.88970 0.08440 0.71940 -0.03800
H 	H 	0.89610 0.19900 0.56190 -0.07900
H 	H 	0.46210 0.08420 0.70420 -0.03900
H 	H 	0.46940 0.17530 0.54050 -0.09700
H 	H 	0.32480 0.72800 0.26470 0.16400
H 	H 	0.17560 0.68660 0.25330 0.16600
H 	H 	0.95960 0.00850 0.91480 -0.02300
H 	H 	0.94560 0.92880 0.82120 0.10400
H 	H 	0.55610 0.85090 0.84670 0.10600
H 	H 	0.57080 0.93370 0.93910 -0.01100
H 	H 	0.80970 0.03920 0.29470 -0.07900
H 	H 	0.75700 0.93750 0.13370 -0.05600
H 	H 	0.11030 0.41560 0.21940 -0.03800
H 	H 	0.10390 0.30100 0.06190 -0.07900
H 	H 	0.53790 0.41580 0.20420 -0.03800
H 	H 	0.53060 0.32470 0.04050 -0.09700
H 	H 	0.67520 0.77200 0.76470 0.16400
H 	H 	0.82440 0.81340 0.75330 0.16700
H 	H 	0.95960 0.50850 0.58520 -0.01600
H 	H 	0.94560 0.42880 0.67880 0.10100
H 	H 	0.55610 0.35090 0.65330 0.10600
H 	H 	0.57080 0.43370 0.56090 -0.01200
H 	H 	0.80970 0.53920 0.20530 -0.07900
H 	H 	0.75700 0.43750 0.36630 -0.05600
H 	H 	0.11030 0.91560 0.28060 -0.03800
H 	H 	0.10390 0.80100 0.43810 -0.07900
H 	H 	0.53790 0.91580 0.29580 -0.03900
H 	H 	0.53060 0.82470 0.45950 -0.09700
H 	H 	0.67520 0.27200 0.73530 0.16400
H 	H 	0.82440 0.31340 0.74670 0.16600
H 	H 	0.04040 0.99150 0.08520 -0.02300
H 	H 	0.05440 0.07120 0.17880 0.10400
H 	H 	0.44390 0.14910 0.15330 0.10600
H 	H 	0.42920 0.06630 0.06090 -0.01100
H 	H 	0.19030 0.96080 0.70530 -0.07900
H 	H 	0.24300 0.06250 0.86630 -0.05600
H 	H 	0.88970 0.58440 0.78060 -0.03800
H 	H 	0.89610 0.69900 0.93810 -0.07900
H 	H 	0.46210 0.58420 0.79580 -0.03800
H 	H 	0.46940 0.67530 0.95950 -0.09700
H 	H 	0.32480 0.22800 0.23530 0.16400
H 	H 	0.17560 0.18660 0.24670 0.16700
C 	C 	0.23250 0.51810 0.43450 -0.18600
C 	C 	0.12210 0.52170 0.40070 0.12000
C 	C 	0.12980 0.57070 0.34450 -0.27700
C 	C 	0.25250 0.61840 0.32450 0.27700
C 	C 	0.36250 0.61670 0.35980 -0.27500
C 	C 	0.35420 0.56670 0.41550 0.12000
C 	C 	0.22150 0.45600 0.49120 0.33800
C 	C 	0.30120 0.59780 0.21460 0.44300
C 	C 	0.20410 0.46440 0.75360 0.09500
C 	C 	0.23260 0.51930 0.66660 0.08300
C 	C 	0.91660 0.12140 0.68520 0.08500
C 	C 	0.91990 0.18300 0.60060 0.07900
C 	C 	0.44200 0.11670 0.66920 0.06100
C 	C 	0.44650 0.16580 0.58060 0.08200
C 	C 	0.26100 0.66680 0.26340 -0.52000
C 	C 	0.76750 0.98190 0.93450 -0.18300
C 	C 	0.87790 0.97830 0.90070 0.12900
C 	C 	0.87020 0.92930 0.84450 -0.28200
C 	C 	0.74750 0.88160 0.82450 0.28000
C 	C 	0.63750 0.88330 0.85980 -0.27500
C 	C 	0.64580 0.93330 0.91550 0.12000
C 	C 	0.77850 0.04400 0.99120 0.32600
C 	C 	0.69880 0.90220 0.71460 0.44400
C 	C 	0.79590 0.03560 0.25360 0.09600
C 	C 	0.76740 0.98070 0.16660 0.08100
C 	C 	0.08340 0.37860 0.18520 0.08700
C 	C 	0.08010 0.31700 0.10060 0.08100
C 	C 	0.55800 0.38330 0.16920 0.06100
C 	C 	0.55350 0.33420 0.08060 0.08100
C 	C 	0.73900 0.83320 0.76340 -0.52100
C 	C 	0.76750 0.48190 0.56550 -0.18600
C 	C 	0.87790 0.47830 0.59930 0.12000
C 	C 	0.87020 0.42930 0.65550 -0.27700
C 	C 	0.74750 0.38160 0.67550 0.27700
C 	C 	0.63750 0.38330 0.64020 -0.27500
C 	C 	0.64580 0.43330 0.58450 0.12000
C 	C 	0.77850 0.54400 0.50880 0.33800
C 	C 	0.69880 0.40220 0.78540 0.44300
C 	C 	0.79590 0.53560 0.24640 0.09500
C 	C 	0.76740 0.48070 0.33340 0.08300
C 	C 	0.08340 0.87860 0.31480 0.08500
C 	C 	0.08010 0.81700 0.39940 0.07900
C 	C 	0.55800 0.88330 0.33080 0.06100
C 	C 	0.55350 0.83420 0.41940 0.08200
C 	C 	0.73900 0.33320 0.73660 -0.52000
C 	C 	0.23250 0.01810 0.06550 -0.18300
C 	C 	0.12210 0.02170 0.09930 0.12900
C 	C 	0.12980 0.07070 0.15550 -0.28200
C 	C 	0.25250 0.11840 0.17550 0.28000
C 	C 	0.36250 0.11670 0.14020 -0.27500
C 	C 	0.35420 0.06670 0.08450 0.12000
C 	C 	0.22150 0.95600 0.00880 0.32600
C 	C 	0.30120 0.09780 0.28540 0.44400
C 	C 	0.20410 0.96440 0.74640 0.09600
C 	C 	0.23260 0.01930 0.83340 0.08100
C 	C 	0.91660 0.62140 0.81480 0.08700
C 	C 	0.91990 0.68300 0.89940 0.08100
C 	C 	0.44200 0.61670 0.83080 0.06100
C 	C 	0.44650 0.66580 0.91940 0.08100
C 	C 	0.26100 0.16680 0.23660 -0.52100
N 	N 	0.21570 0.38390 0.72040 -0.25800
N 	N 	0.23440 0.42080 0.66290 -0.23000
N 	N 	0.21390 0.55170 0.72300 -0.28300
N 	N 	0.03090 0.17970 0.68130 -0.24500
N 	N 	0.03220 0.22040 0.62470 -0.24900
N 	N 	0.84200 0.11990 0.63580 -0.27700
N 	N 	0.35220 0.18020 0.66620 -0.24400
N 	N 	0.35550 0.21260 0.60780 -0.25100
N 	N 	0.50060 0.10430 0.61670 -0.30100
N 	N 	0.78430 0.11610 0.22040 -0.25800
N 	N 	0.76560 0.07920 0.16290 -0.22900
N 	N 	0.78610 0.94830 0.22300 -0.28400
N 	N 	0.96910 0.32030 0.18130 -0.24600
N 	N 	0.96780 0.27960 0.12470 -0.25000
N 	N 	0.15800 0.38010 0.13580 -0.27700
N 	N 	0.64780 0.31980 0.16620 -0.24300
N 	N 	0.64450 0.28740 0.10780 -0.25100
N 	N 	0.49940 0.39570 0.11670 -0.30100
N 	N 	0.78430 0.61610 0.27960 -0.25800
N 	N 	0.76560 0.57920 0.33710 -0.23000
N 	N 	0.78610 0.44830 0.27700 -0.28300
N 	N 	0.96910 0.82030 0.31870 -0.24500
N 	N 	0.96780 0.77960 0.37530 -0.24900
N 	N 	0.15800 0.88010 0.36420 -0.27700
N 	N 	0.64780 0.81980 0.33380 -0.24400
N 	N 	0.64450 0.78740 0.39220 -0.25100
N 	N 	0.49940 0.89570 0.38330 -0.30100
N 	N 	0.21570 0.88390 0.77960 -0.25800
N 	N 	0.23440 0.92080 0.83710 -0.22900
N 	N 	0.21390 0.05170 0.77700 -0.28400
N 	N 	0.03090 0.67970 0.81870 -0.24600
N 	N 	0.03220 0.72040 0.87530 -0.25000
N 	N 	0.84200 0.61990 0.86420 -0.27700
N 	N 	0.35220 0.68020 0.83380 -0.24300
N 	N 	0.35550 0.71260 0.89220 -0.25100
N 	N 	0.50060 0.60430 0.88330 -0.30100
O 	O 	0.32610 0.43630 0.51510 -0.42000
O 	O 	0.11080 0.42020 0.51080 -0.42100
O 	O 	0.36350 0.52580 0.22640 -0.40900
O 	O 	0.27010 0.61720 0.16220 -0.52000
O 	O 	0.67390 0.06370 0.01510 -0.41500
O 	O 	0.88920 0.07980 0.01080 -0.41500
O 	O 	0.63650 0.97420 0.72640 -0.40800
O 	O 	0.72990 0.88280 0.66220 -0.51900
O 	O 	0.67390 0.56370 0.48490 -0.42000
O 	O 	0.88920 0.57980 0.48920 -0.42100
O 	O 	0.63650 0.47420 0.77360 -0.40900
O 	O 	0.72990 0.38280 0.83780 -0.52000
O 	O 	0.32610 0.93630 0.98490 -0.41500
O 	O 	0.11080 0.92020 0.98920 -0.41500
O 	O 	0.36350 0.02580 0.27360 -0.40800
O 	O 	0.27010 0.11720 0.33780 -0.51900
