data_crystal

_cell_length_a 15.21350
_cell_length_b 15.21350
_cell_length_c 15.21350
_cell_angle_alpha 60.00000
_cell_angle_beta  60.00000
_cell_angle_gamma 60.00000

_symmetry_space_group_name_	'P 1'
_symmetry_space_group_name_H-M	'P 1'

loop_
_symmetry_equiv_pos_as_xyz
  x,y,z

loop_
_atom_site_label
_atom_site_type_symbol
_atom_site_fract_x
_atom_site_fract_y
_atom_site_fract_z
_atom_site_charge
U 	U 	0.87399 0.87399 0.12601 0.04700
U 	U 	0.12601 0.12601 0.87399 0.03400
U 	U 	0.87399 0.12601 0.12601 0.03400
U 	U 	0.12601 0.87399 0.87399 0.04600
U 	U 	0.87399 0.12601 0.87399 0.04800
U 	U 	0.12601 0.87399 0.12601 0.03300
H 	H 	0.86432 0.57830 0.42170 0.06200
H 	H 	0.57830 0.86432 0.13568 0.06000
H 	H 	0.42170 0.13568 0.86432 0.05900
H 	H 	0.13568 0.42170 0.57830 0.06500
H 	H 	0.86432 0.42170 0.13568 0.05900
H 	H 	0.57830 0.13568 0.42170 0.04300
H 	H 	0.42170 0.86432 0.57830 0.10000
H 	H 	0.13568 0.57830 0.86432 0.05900
H 	H 	0.86432 0.13568 0.57830 0.06000
H 	H 	0.57830 0.42170 0.86432 0.06200
H 	H 	0.42170 0.57830 0.13568 0.06600
H 	H 	0.13568 0.86432 0.42170 0.05900
H 	H 	0.42170 0.13568 0.57830 0.10300
H 	H 	0.13568 0.42170 0.86432 0.05900
H 	H 	0.86432 0.57830 0.13568 0.06000
H 	H 	0.57830 0.86432 0.42170 0.04000
H 	H 	0.57830 0.13568 0.86432 0.06000
H 	H 	0.86432 0.42170 0.57830 0.06200
H 	H 	0.13568 0.57830 0.42170 0.06600
H 	H 	0.42170 0.86432 0.13568 0.05900
H 	H 	0.86432 0.13568 0.42170 0.05900
H 	H 	0.57830 0.42170 0.13568 0.06600
H 	H 	0.42170 0.57830 0.86432 0.06100
H 	H 	0.13568 0.86432 0.57830 0.06000
C 	C 	0.91870 0.54630 0.45370 0.01600
C 	C 	0.54630 0.91870 0.08130 0.01300
C 	C 	0.45370 0.08130 0.91870 0.01800
C 	C 	0.08130 0.45370 0.54630 -0.02100
C 	C 	0.91870 0.45370 0.08130 0.01800
C 	C 	0.54630 0.08130 0.45370 0.04900
C 	C 	0.45370 0.91870 0.54630 -0.10900
C 	C 	0.08130 0.54630 0.91870 0.01800
C 	C 	0.91870 0.08130 0.54630 0.01800
C 	C 	0.54630 0.45370 0.91870 0.01600
C 	C 	0.45370 0.54630 0.08130 -0.02100
C 	C 	0.08130 0.91870 0.45370 0.01400
C 	C 	0.45370 0.08130 0.54630 -0.14200
C 	C 	0.08130 0.45370 0.91870 0.01800
C 	C 	0.91870 0.54630 0.08130 0.01800
C 	C 	0.54630 0.91870 0.45370 0.08200
C 	C 	0.54630 0.08130 0.91870 0.01700
C 	C 	0.91870 0.45370 0.54630 0.01600
C 	C 	0.08130 0.54630 0.45370 -0.02100
C 	C 	0.45370 0.91870 0.08130 0.01400
C 	C 	0.91870 0.08130 0.45370 0.01800
C 	C 	0.54630 0.45370 0.08130 -0.02100
C 	C 	0.45370 0.54630 0.91870 0.01600
C 	C 	0.08130 0.91870 0.54630 0.01400
C 	C 	0.00000 0.69020 0.30980 0.22700
C 	C 	0.00000 0.59160 0.40840 -0.06000
C 	C 	0.69020 0.00000 -0.00000 0.19000
C 	C 	0.59160 0.00000 -0.00000 -0.09100
C 	C 	0.30980 0.00000 -0.00000 0.18800
C 	C 	0.40840 0.00000 -0.00000 -0.09300
C 	C 	0.00000 0.30980 0.69020 0.22800
C 	C 	0.00000 0.40840 0.59160 -0.06100
C 	C 	0.00000 0.30980 -0.00000 0.18300
C 	C 	0.00000 0.40840 -0.00000 -0.09700
C 	C 	0.69020 0.00000 0.30980 0.24900
C 	C 	0.59160 0.00000 0.40840 -0.10600
C 	C 	0.30980 0.00000 0.69020 0.15800
C 	C 	0.40840 1.00000 0.59160 0.11200
C 	C 	-0.00000 0.69020 -0.00000 0.18600
C 	C 	-0.00000 0.59160 -0.00000 -0.09500
C 	C 	0.00000 0.00000 0.69020 0.19100
C 	C 	0.00000 0.00000 0.59160 -0.09200
C 	C 	0.69020 0.30980 -0.00000 0.22700
C 	C 	0.59160 0.40840 -0.00000 -0.06000
C 	C 	0.30980 0.69020 -0.00000 0.22800
C 	C 	0.40840 0.59160 -0.00000 -0.06100
C 	C 	0.00000 0.00000 0.30980 0.18800
C 	C 	0.00000 0.00000 0.40840 -0.09300
O 	O 	0.92530 0.72710 0.27290 -0.12900
O 	O 	0.72710 0.92530 0.07470 -0.13000
O 	O 	0.27290 0.07470 0.92530 -0.12700
O 	O 	0.07470 0.27290 0.72710 -0.16500
O 	O 	0.92530 0.27290 0.07470 -0.12600
O 	O 	0.72710 0.07470 0.27290 -0.16900
O 	O 	0.27290 0.92530 0.72710 -0.11800
O 	O 	0.07470 0.72710 0.92530 -0.12600
O 	O 	0.92530 0.07470 0.72710 -0.12600
O 	O 	0.72710 0.27290 0.92530 -0.12900
O 	O 	0.27290 0.72710 0.07470 -0.16500
O 	O 	0.07470 0.92530 0.27290 -0.13000
O 	O 	0.27290 0.07470 0.72710 -0.14900
O 	O 	0.07470 0.27290 0.92530 -0.12600
O 	O 	0.92530 0.72710 0.07470 -0.12600
O 	O 	0.72710 0.92530 0.27290 -0.13800
O 	O 	0.72710 0.07470 0.92530 -0.12600
O 	O 	0.92530 0.27290 0.72710 -0.12900
O 	O 	0.07470 0.72710 0.27290 -0.16500
O 	O 	0.27290 0.92530 0.07470 -0.13000
O 	O 	0.92530 0.07470 0.27290 -0.12600
O 	O 	0.72710 0.27290 0.07470 -0.16400
O 	O 	0.27290 0.72710 0.92530 -0.13000
O 	O 	0.07470 0.92530 0.72710 -0.13100
O 	O 	0.81970 0.06010 0.06010 -0.06000
O 	O 	0.06010 0.81970 0.06010 -0.06200
O 	O 	0.06010 0.06010 0.81970 -0.06000
O 	O 	0.06010 0.06010 0.06010 -0.08300
O 	O 	0.93990 0.18030 0.93990 0.02000
O 	O 	0.18030 0.93990 0.93990 0.01700
O 	O 	0.93990 0.93990 0.18030 0.01700
O 	O 	0.93990 0.93990 0.93990 0.03600
