data_crystal

_cell_length_a 16.99480
_cell_length_b 16.99480
_cell_length_c 16.99480
_cell_angle_alpha 90.00000
_cell_angle_beta  90.00000
_cell_angle_gamma 90.00000

_symmetry_space_group_name_	'P 1'
_symmetry_space_group_name_H-M	'P 1'

loop_
_symmetry_equiv_pos_as_xyz
  x,y,z

loop_
_atom_site_label
_atom_site_type_symbol
_atom_site_fract_x
_atom_site_fract_y
_atom_site_fract_z
_atom_site_charge
C 	C 	0.37027 0.90048 0.68776 -0.01700
N 	N 	0.41228 0.97171 0.68107 -0.22300
H 	H 	0.38570 0.86410 0.72840 -0.00800
H 	H 	0.43120 0.12180 0.63410 0.13400
C 	C 	0.87027 0.40048 0.18776 -0.02200
N 	N 	0.91228 0.47171 0.18107 -0.29300
H 	H 	0.88570 0.36410 0.22840 0.00100
H 	H 	0.93120 0.62180 0.13410 0.23100
C 	C 	0.62973 0.09952 0.68776 -0.03000
N 	N 	0.58772 0.02829 0.68107 -0.39900
H 	H 	0.61430 0.13590 0.72840 -0.00700
H 	H 	0.56880 0.87820 0.63410 0.28300
C 	C 	0.12973 0.59952 0.18776 -0.03700
N 	N 	0.08772 0.52829 0.18107 -0.31900
H 	H 	0.11430 0.63590 0.22840 -0.02100
H 	H 	0.06880 0.37820 0.13410 0.11100
C 	C 	0.62973 0.90048 0.31224 -0.01600
N 	N 	0.58772 0.97171 0.31893 -0.22200
H 	H 	0.61430 0.86410 0.27160 -0.00600
H 	H 	0.56880 0.12180 0.36590 0.13600
C 	C 	0.12973 0.40048 0.81224 -0.03000
N 	N 	0.08772 0.47171 0.81893 -0.33000
H 	H 	0.11430 0.36410 0.77160 -0.02000
H 	H 	0.06880 0.62180 0.86590 0.20100
C 	C 	0.37027 0.09952 0.31224 -0.03500
N 	N 	0.41228 0.02829 0.31893 -0.40000
H 	H 	0.38570 0.13590 0.27160 -0.00900
H 	H 	0.43120 0.87820 0.36590 0.28300
C 	C 	0.87027 0.59952 0.81224 -0.00900
N 	N 	0.91228 0.52829 0.81893 -0.30100
H 	H 	0.88570 0.63590 0.77160 0.01100
H 	H 	0.93120 0.37820 0.86590 0.29500
C 	C 	0.68776 0.37027 0.90048 -0.01600
N 	N 	0.68107 0.41228 0.97171 -0.22200
H 	H 	0.72840 0.38570 0.86410 -0.00700
H 	H 	0.63410 0.43120 0.12180 0.13500
C 	C 	0.18776 0.87027 0.40048 -0.02100
N 	N 	0.18107 0.91228 0.47171 -0.29200
H 	H 	0.22840 0.88570 0.36410 0.00100
H 	H 	0.13410 0.93120 0.62180 0.23100
C 	C 	0.68776 0.62973 0.09952 -0.03000
N 	N 	0.68107 0.58772 0.02829 -0.39900
H 	H 	0.72840 0.61430 0.13590 -0.00700
H 	H 	0.63410 0.56880 0.87820 0.28300
C 	C 	0.18776 0.12973 0.59952 -0.03700
N 	N 	0.18107 0.08772 0.52829 -0.31900
H 	H 	0.22840 0.11430 0.63590 -0.02100
H 	H 	0.13410 0.06880 0.37820 0.11100
C 	C 	0.31224 0.62973 0.90048 -0.01600
N 	N 	0.31893 0.58772 0.97171 -0.22200
H 	H 	0.27160 0.61430 0.86410 -0.00600
H 	H 	0.36590 0.56880 0.12180 0.13600
C 	C 	0.81224 0.12973 0.40048 -0.03000
N 	N 	0.81893 0.08772 0.47171 -0.33000
H 	H 	0.77160 0.11430 0.36410 -0.02000
H 	H 	0.86590 0.06880 0.62180 0.20100
C 	C 	0.31224 0.37027 0.09952 -0.03500
N 	N 	0.31893 0.41228 0.02829 -0.40000
H 	H 	0.27160 0.38570 0.13590 -0.00900
H 	H 	0.36590 0.43120 0.87820 0.28300
C 	C 	0.81224 0.87027 0.59952 -0.00900
N 	N 	0.81893 0.91228 0.52829 -0.30100
H 	H 	0.77160 0.88570 0.63590 0.01100
H 	H 	0.86590 0.93120 0.37820 0.29500
C 	C 	0.90048 0.68776 0.37027 -0.01600
N 	N 	0.97171 0.68107 0.41228 -0.22200
H 	H 	0.86410 0.72840 0.38570 -0.00700
H 	H 	0.12180 0.63410 0.43120 0.13500
C 	C 	0.40048 0.18776 0.87027 -0.02100
N 	N 	0.47171 0.18107 0.91228 -0.29200
H 	H 	0.36410 0.22840 0.88570 0.00100
H 	H 	0.62180 0.13410 0.93120 0.23100
C 	C 	0.09952 0.68776 0.62973 -0.03000
N 	N 	0.02829 0.68107 0.58772 -0.39900
H 	H 	0.13590 0.72840 0.61430 -0.00700
H 	H 	0.87820 0.63410 0.56880 0.28300
C 	C 	0.59952 0.18776 0.12973 -0.03700
N 	N 	0.52829 0.18107 0.08772 -0.31900
H 	H 	0.63590 0.22840 0.11430 -0.02100
H 	H 	0.37820 0.13410 0.06880 0.11100
C 	C 	0.90048 0.31224 0.62973 -0.01600
N 	N 	0.97171 0.31893 0.58772 -0.22200
H 	H 	0.86410 0.27160 0.61430 -0.00600
H 	H 	0.12180 0.36590 0.56880 0.13600
C 	C 	0.40048 0.81224 0.12973 -0.03000
N 	N 	0.47171 0.81893 0.08772 -0.33000
H 	H 	0.36410 0.77160 0.11430 -0.02000
H 	H 	0.62180 0.86590 0.06880 0.20100
C 	C 	0.09952 0.31224 0.37027 -0.03500
N 	N 	0.02829 0.31893 0.41228 -0.40000
H 	H 	0.13590 0.27160 0.38570 -0.00900
H 	H 	0.87820 0.36590 0.43120 0.28300
C 	C 	0.59952 0.81224 0.87027 -0.00900
N 	N 	0.52829 0.81893 0.91228 -0.30100
H 	H 	0.63590 0.77160 0.88570 0.01100
H 	H 	0.37820 0.86590 0.93120 0.29500
C 	C 	0.90048 0.37027 0.68776 -0.01600
N 	N 	0.97171 0.41228 0.68107 -0.22200
H 	H 	0.86410 0.38570 0.72840 -0.00700
H 	H 	0.12180 0.43120 0.63410 0.13500
C 	C 	0.40048 0.87027 0.18776 -0.02100
N 	N 	0.47171 0.91228 0.18107 -0.29200
H 	H 	0.36410 0.88570 0.22840 0.00100
H 	H 	0.62180 0.93120 0.13410 0.23100
C 	C 	0.09952 0.62973 0.68776 -0.03000
N 	N 	0.02829 0.58772 0.68107 -0.39900
H 	H 	0.13590 0.61430 0.72840 -0.00700
H 	H 	0.87820 0.56880 0.63410 0.28300
C 	C 	0.59952 0.12973 0.18776 -0.03700
N 	N 	0.52829 0.08772 0.18107 -0.31900
H 	H 	0.63590 0.11430 0.22840 -0.02100
H 	H 	0.37820 0.06880 0.13410 0.11100
C 	C 	0.90048 0.62973 0.31224 -0.01600
N 	N 	0.97171 0.58772 0.31893 -0.22200
H 	H 	0.86410 0.61430 0.27160 -0.00600
H 	H 	0.12180 0.56880 0.36590 0.13600
C 	C 	0.40048 0.12973 0.81224 -0.03000
N 	N 	0.47171 0.08772 0.81893 -0.33000
H 	H 	0.36410 0.11430 0.77160 -0.02000
H 	H 	0.62180 0.06880 0.86590 0.20100
C 	C 	0.09952 0.37027 0.31224 -0.03500
N 	N 	0.02829 0.41228 0.31893 -0.40000
H 	H 	0.13590 0.38570 0.27160 -0.00900
H 	H 	0.87820 0.43120 0.36590 0.28300
C 	C 	0.59952 0.87027 0.81224 -0.00900
N 	N 	0.52829 0.91228 0.81893 -0.30100
H 	H 	0.63590 0.88570 0.77160 0.01100
H 	H 	0.37820 0.93120 0.86590 0.29500
C 	C 	0.37027 0.68776 0.90048 -0.01600
N 	N 	0.41228 0.68107 0.97171 -0.22200
H 	H 	0.38570 0.72840 0.86410 -0.00700
H 	H 	0.43120 0.63410 0.12180 0.13500
C 	C 	0.87027 0.18776 0.40048 -0.02100
N 	N 	0.91228 0.18107 0.47171 -0.29200
H 	H 	0.88570 0.22840 0.36410 0.00100
H 	H 	0.93120 0.13410 0.62180 0.23100
C 	C 	0.62973 0.68776 0.09952 -0.03000
N 	N 	0.58772 0.68107 0.02829 -0.39900
H 	H 	0.61430 0.72840 0.13590 -0.00700
H 	H 	0.56880 0.63410 0.87820 0.28300
C 	C 	0.12973 0.18776 0.59952 -0.03700
N 	N 	0.08772 0.18107 0.52829 -0.31900
H 	H 	0.11430 0.22840 0.63590 -0.02100
H 	H 	0.06880 0.13410 0.37820 0.11100
C 	C 	0.62973 0.31224 0.90048 -0.01600
N 	N 	0.58772 0.31893 0.97171 -0.22200
H 	H 	0.61430 0.27160 0.86410 -0.00600
H 	H 	0.56880 0.36590 0.12180 0.13600
C 	C 	0.12973 0.81224 0.40048 -0.03000
N 	N 	0.08772 0.81893 0.47171 -0.33000
H 	H 	0.11430 0.77160 0.36410 -0.02000
H 	H 	0.06880 0.86590 0.62180 0.20100
C 	C 	0.37027 0.31224 0.09952 -0.03500
N 	N 	0.41228 0.31893 0.02829 -0.40000
H 	H 	0.38570 0.27160 0.13590 -0.00900
H 	H 	0.43120 0.36590 0.87820 0.28300
C 	C 	0.87027 0.81224 0.59952 -0.00900
N 	N 	0.91228 0.81893 0.52829 -0.30100
H 	H 	0.88570 0.77160 0.63590 0.01100
H 	H 	0.93120 0.86590 0.37820 0.29500
C 	C 	0.68776 0.90048 0.37027 -0.01600
N 	N 	0.68107 0.97171 0.41228 -0.22200
H 	H 	0.72840 0.86410 0.38570 -0.00700
H 	H 	0.63410 0.12180 0.43120 0.13500
C 	C 	0.18776 0.40048 0.87027 -0.02100
N 	N 	0.18107 0.47171 0.91228 -0.29200
H 	H 	0.22840 0.36410 0.88570 0.00100
H 	H 	0.13410 0.62180 0.93120 0.23100
C 	C 	0.68776 0.09952 0.62973 -0.03000
N 	N 	0.68107 0.02829 0.58772 -0.39900
H 	H 	0.72840 0.13590 0.61430 -0.00700
H 	H 	0.63410 0.87820 0.56880 0.28300
C 	C 	0.18776 0.59952 0.12973 -0.03700
N 	N 	0.18107 0.52829 0.08772 -0.31900
H 	H 	0.22840 0.63590 0.11430 -0.02100
H 	H 	0.13410 0.37820 0.06880 0.11100
C 	C 	0.31224 0.90048 0.62973 -0.01600
N 	N 	0.31893 0.97171 0.58772 -0.22200
H 	H 	0.27160 0.86410 0.61430 -0.00600
H 	H 	0.36590 0.12180 0.56880 0.13600
C 	C 	0.81224 0.40048 0.12973 -0.03000
N 	N 	0.81893 0.47171 0.08772 -0.33000
H 	H 	0.77160 0.36410 0.11430 -0.02000
H 	H 	0.86590 0.62180 0.06880 0.20100
C 	C 	0.31224 0.09952 0.37027 -0.03500
N 	N 	0.31893 0.02829 0.41228 -0.40000
H 	H 	0.27160 0.13590 0.38570 -0.00900
H 	H 	0.36590 0.87820 0.43120 0.28300
C 	C 	0.81224 0.59952 0.87027 -0.00900
N 	N 	0.81893 0.52829 0.91228 -0.30100
H 	H 	0.77160 0.63590 0.88570 0.01100
H 	H 	0.86590 0.37820 0.93120 0.29500
Zn	Zn	0.50000 0.00000 0.75000 1.14300
Zn	Zn	0.50000 0.00000 0.25000 1.14200
Zn	Zn	0.75000 0.50000 -0.00000 1.14300
Zn	Zn	0.25000 0.50000 -0.00000 1.14200
Zn	Zn	0.00000 0.75000 0.50000 1.14300
Zn	Zn	0.00000 0.25000 0.50000 1.14200
Zn	Zn	0.00000 0.50000 0.75000 1.14300
Zn	Zn	0.00000 0.50000 0.25000 1.14200
Zn	Zn	0.50000 0.75000 -0.00000 1.14300
Zn	Zn	0.50000 0.25000 -0.00000 1.14200
Zn	Zn	0.75000 0.00000 0.50000 1.14300
Zn	Zn	0.25000 0.00000 0.50000 1.14200
C 	C 	0.38079 0.01510 0.61921 0.01000
C 	C 	0.40864 0.09237 0.59136 -0.51800
H 	H 	0.44803 0.08410 0.55197 0.12700
C 	C 	0.88079 0.51510 0.11921 0.23400
C 	C 	0.90864 0.59237 0.09136 -0.76100
H 	H 	0.94803 0.58410 0.05197 0.21800
C 	C 	0.61921 0.98490 0.61921 0.45300
C 	C 	0.59136 0.90763 0.59136 -0.98100
H 	H 	0.55197 0.91590 0.55197 0.29900
C 	C 	0.11921 0.48490 0.11921 0.14500
C 	C 	0.09136 0.40763 0.09136 -0.53500
H 	H 	0.05197 0.41590 0.05197 0.08000
C 	C 	0.61921 0.01510 0.38079 0.01000
C 	C 	0.59136 0.09237 0.40864 -0.51800
H 	H 	0.55197 0.08410 0.44803 0.12700
C 	C 	0.11921 0.51510 0.88079 0.23400
C 	C 	0.09136 0.59237 0.90864 -0.76100
H 	H 	0.05197 0.58410 0.94803 0.21800
C 	C 	0.38079 0.98490 0.38079 0.45100
C 	C 	0.40864 0.90763 0.40864 -0.98000
H 	H 	0.44803 0.91590 0.44803 0.29900
C 	C 	0.88079 0.48490 0.88079 0.31000
C 	C 	0.90864 0.40763 0.90864 -0.94200
H 	H 	0.94803 0.41590 0.94803 0.33700
C 	C 	0.61921 0.38079 0.01510 0.01000
C 	C 	0.59136 0.40864 0.09237 -0.51800
H 	H 	0.55197 0.44803 0.08410 0.12700
C 	C 	0.11921 0.88079 0.51510 0.23400
C 	C 	0.09136 0.90864 0.59237 -0.76100
H 	H 	0.05197 0.94803 0.58410 0.21800
C 	C 	0.61921 0.61921 0.98490 0.45300
C 	C 	0.59136 0.59136 0.90763 -0.98100
H 	H 	0.55197 0.55197 0.91590 0.29900
C 	C 	0.11921 0.11921 0.48490 0.14500
C 	C 	0.09136 0.09136 0.40763 -0.53500
H 	H 	0.05197 0.05197 0.41590 0.08000
C 	C 	0.38079 0.61921 0.01510 0.01000
C 	C 	0.40864 0.59136 0.09237 -0.51800
H 	H 	0.44803 0.55197 0.08410 0.12700
C 	C 	0.88079 0.11921 0.51510 0.23400
C 	C 	0.90864 0.09136 0.59237 -0.76100
H 	H 	0.94803 0.05197 0.58410 0.21800
C 	C 	0.38079 0.38079 0.98490 0.45100
C 	C 	0.40864 0.40864 0.90763 -0.98000
H 	H 	0.44803 0.44803 0.91590 0.29900
C 	C 	0.88079 0.88079 0.48490 0.31000
C 	C 	0.90864 0.90864 0.40763 -0.94200
H 	H 	0.94803 0.94803 0.41590 0.33700
C 	C 	0.01510 0.61921 0.38079 0.01000
C 	C 	0.09237 0.59136 0.40864 -0.51800
H 	H 	0.08410 0.55197 0.44803 0.12700
C 	C 	0.51510 0.11921 0.88079 0.23400
C 	C 	0.59237 0.09136 0.90864 -0.76100
H 	H 	0.58410 0.05197 0.94803 0.21800
C 	C 	0.98490 0.61921 0.61921 0.45300
C 	C 	0.90763 0.59136 0.59136 -0.98100
H 	H 	0.91590 0.55197 0.55197 0.29900
C 	C 	0.48490 0.11921 0.11921 0.14500
C 	C 	0.40763 0.09136 0.09136 -0.53500
H 	H 	0.41590 0.05197 0.05197 0.08000
C 	C 	0.01510 0.38079 0.61921 0.01000
C 	C 	0.09237 0.40864 0.59136 -0.51800
H 	H 	0.08410 0.44803 0.55197 0.12700
C 	C 	0.51510 0.88079 0.11921 0.23400
C 	C 	0.59237 0.90864 0.09136 -0.76100
H 	H 	0.58410 0.94803 0.05197 0.21800
C 	C 	0.98490 0.38079 0.38079 0.45100
C 	C 	0.90763 0.40864 0.40864 -0.98000
H 	H 	0.91590 0.44803 0.44803 0.29900
C 	C 	0.48490 0.88079 0.88079 0.31000
C 	C 	0.40763 0.90864 0.90864 -0.94200
H 	H 	0.41590 0.94803 0.94803 0.33700
