data_crystal

_cell_length_a 6.66270
_cell_length_b 9.67400
_cell_length_c 10.71180
_cell_angle_alpha 116.84400
_cell_angle_beta  104.87400
_cell_angle_gamma 90.00000

_symmetry_space_group_name_	'P 1'
_symmetry_space_group_name_H-M	'P 1'

loop_
_symmetry_equiv_pos_as_xyz
  x,y,z

loop_
_atom_site_label
_atom_site_type_symbol
_atom_site_fract_x
_atom_site_fract_y
_atom_site_fract_z
_atom_site_charge
Pr	Pr	0.97560 0.29116 0.10326 1.99500
Pr	Pr	0.47560 0.81210 0.10326 2.06300
H 	H 	0.96320 0.52250 0.71700 0.20600
H 	H 	0.78420 0.34670 0.48800 -0.16400
H 	H 	0.88820 0.00730 0.59380 -0.11100
H 	H 	0.02340 0.94970 0.76140 0.20500
H 	H 	0.23590 0.02310 0.76340 0.21500
H 	H 	0.46320 0.19450 0.71700 -0.12200
H 	H 	0.28420 0.14130 0.48800 0.21900
H 	H 	0.38820 0.58650 0.59380 0.20700
H 	H 	0.52340 0.81170 0.76140 0.11200
H 	H 	0.73590 0.74030 0.76340 0.09000
C 	C 	0.99510 0.22010 0.75900 -0.39600
C 	C 	0.01530 0.37270 0.79740 0.38800
C 	C 	0.94230 0.41730 0.69280 -0.61900
C 	C 	0.84200 0.31420 0.55740 0.50700
C 	C 	0.82480 0.16250 0.52180 -0.51200
C 	C 	0.90050 0.11330 0.62040 0.37100
C 	C 	0.13940 0.03350 0.82020 -0.47000
C 	C 	0.24700 0.02620 0.95560 0.80200
C 	C 	0.12310 0.49460 0.94480 0.45900
C 	C 	0.71930 0.04370 0.37380 0.61200
C 	C 	0.49510 0.53890 0.75900 0.53500
C 	C 	0.51530 0.42470 0.79740 -0.59400
C 	C 	0.44230 0.27550 0.69280 0.49500
C 	C 	0.34200 0.24320 0.55740 -0.45400
C 	C 	0.32480 0.35930 0.52180 0.29500
C 	C 	0.40050 0.50710 0.62040 -0.47900
C 	C 	0.63940 0.78670 0.82020 -0.27700
C 	C 	0.74700 0.92940 0.95560 0.62600
C 	C 	0.62310 0.45020 0.94480 0.84300
C 	C 	0.21930 0.33010 0.37380 0.23800
O 	O 	0.06610 0.17880 0.86200 -0.00400
O 	O 	0.31790 0.90930 0.94060 -0.61800
O 	O 	0.26030 0.14350 0.06840 -0.65800
O 	O 	0.13460 0.46520 0.04660 -0.57800
O 	O 	0.19430 0.61470 0.95840 -0.47700
O 	O 	0.58300 0.08220 0.29820 -0.52700
O 	O 	0.75730 0.91330 0.33160 -0.62600
O 	O 	0.56610 0.68320 0.86200 -0.35200
O 	O 	0.81790 0.03130 0.94060 -0.57000
O 	O 	0.76030 0.92490 0.06840 -0.68600
O 	O 	0.63460 0.58140 0.04660 -0.75200
O 	O 	0.69430 0.34370 0.95840 -0.64700
O 	O 	0.08300 0.21600 0.29820 -0.35900
O 	O 	0.25730 0.41830 0.33160 -0.43100
