data_crystal

_cell_length_a 25.65400
_cell_length_b 25.65400
_cell_length_c 25.65400
_cell_angle_alpha 90.00000
_cell_angle_beta  90.00000
_cell_angle_gamma 90.00000

_symmetry_space_group_name_	'P 1'
_symmetry_space_group_name_H-M	'P 1'

loop_
_symmetry_equiv_pos_as_xyz
  x,y,z

loop_
_atom_site_label
_atom_site_type_symbol
_atom_site_fract_x
_atom_site_fract_y
_atom_site_fract_z
_atom_site_charge
O 	O 	0.21460 0.13340 0.21460 -0.44500
C 	C 	0.21890 0.02300 0.21890 -0.01600
O 	O 	0.21460 0.63340 0.71460 -0.44500
C 	C 	0.21890 0.52300 0.71890 -0.01600
O 	O 	0.71460 0.13340 0.71460 -0.44500
C 	C 	0.71890 0.02300 0.71890 -0.01600
O 	O 	0.71460 0.63340 0.21460 -0.44500
C 	C 	0.71890 0.52300 0.21890 -0.01600
O 	O 	0.78540 0.86660 0.21460 -0.44500
C 	C 	0.78110 0.97700 0.21890 -0.01600
O 	O 	0.78540 0.36660 0.71460 -0.44500
C 	C 	0.78110 0.47700 0.71890 -0.01600
O 	O 	0.28540 0.86660 0.71460 -0.44500
C 	C 	0.28110 0.97700 0.71890 -0.01600
O 	O 	0.28540 0.36660 0.21460 -0.44500
C 	C 	0.28110 0.47700 0.21890 -0.01600
O 	O 	0.78540 0.13340 0.78540 -0.44500
C 	C 	0.78110 0.02300 0.78110 -0.01600
O 	O 	0.78540 0.63340 0.28540 -0.44500
C 	C 	0.78110 0.52300 0.28110 -0.01600
O 	O 	0.28540 0.13340 0.28540 -0.44500
C 	C 	0.28110 0.02300 0.28110 -0.01600
O 	O 	0.28540 0.63340 0.78540 -0.44500
C 	C 	0.28110 0.52300 0.78110 -0.01600
O 	O 	0.21460 0.86660 0.78540 -0.44500
C 	C 	0.21890 0.97700 0.78110 -0.01600
O 	O 	0.21460 0.36660 0.28540 -0.44500
C 	C 	0.21890 0.47700 0.28110 -0.01600
O 	O 	0.71460 0.86660 0.28540 -0.44500
C 	C 	0.71890 0.97700 0.28110 -0.01600
O 	O 	0.71460 0.36660 0.78540 -0.44500
C 	C 	0.71890 0.47700 0.78110 -0.01600
O 	O 	0.21460 0.21460 0.13340 -0.44400
C 	C 	0.21890 0.21890 0.02300 -0.01500
O 	O 	0.21460 0.71460 0.63340 -0.44400
C 	C 	0.21890 0.71890 0.52300 -0.01500
O 	O 	0.71460 0.21460 0.63340 -0.44400
C 	C 	0.71890 0.21890 0.52300 -0.01500
O 	O 	0.71460 0.71460 0.13340 -0.44400
C 	C 	0.71890 0.71890 0.02300 -0.01500
O 	O 	0.21460 0.78540 0.86660 -0.44400
C 	C 	0.21890 0.78110 0.97700 -0.01500
O 	O 	0.21460 0.28540 0.36660 -0.44400
C 	C 	0.21890 0.28110 0.47700 -0.01500
O 	O 	0.71460 0.78540 0.36660 -0.44400
C 	C 	0.71890 0.78110 0.47700 -0.01500
O 	O 	0.71460 0.28540 0.86660 -0.44400
C 	C 	0.71890 0.28110 0.97700 -0.01500
O 	O 	0.78540 0.78540 0.13340 -0.44400
C 	C 	0.78110 0.78110 0.02300 -0.01500
O 	O 	0.78540 0.28540 0.63340 -0.44400
C 	C 	0.78110 0.28110 0.52300 -0.01500
O 	O 	0.28540 0.78540 0.63340 -0.44400
C 	C 	0.28110 0.78110 0.52300 -0.01500
O 	O 	0.28540 0.28540 0.13340 -0.44400
C 	C 	0.28110 0.28110 0.02300 -0.01500
O 	O 	0.78540 0.21460 0.86660 -0.44400
C 	C 	0.78110 0.21890 0.97700 -0.01500
O 	O 	0.78540 0.71460 0.36660 -0.44400
C 	C 	0.78110 0.71890 0.47700 -0.01500
O 	O 	0.28540 0.21460 0.36660 -0.44400
C 	C 	0.28110 0.21890 0.47700 -0.01500
O 	O 	0.28540 0.71460 0.86660 -0.44400
C 	C 	0.28110 0.71890 0.97700 -0.01500
O 	O 	0.13340 0.21460 0.21460 -0.44400
C 	C 	0.02300 0.21890 0.21890 -0.01500
O 	O 	0.13340 0.71460 0.71460 -0.44400
C 	C 	0.02300 0.71890 0.71890 -0.01500
O 	O 	0.63340 0.21460 0.71460 -0.44400
C 	C 	0.52300 0.21890 0.71890 -0.01500
O 	O 	0.63340 0.71460 0.21460 -0.44400
C 	C 	0.52300 0.71890 0.21890 -0.01500
O 	O 	0.86660 0.21460 0.78540 -0.44400
C 	C 	0.97700 0.21890 0.78110 -0.01500
O 	O 	0.86660 0.71460 0.28540 -0.44400
C 	C 	0.97700 0.71890 0.28110 -0.01500
O 	O 	0.36660 0.21460 0.28540 -0.44400
C 	C 	0.47700 0.21890 0.28110 -0.01500
O 	O 	0.36660 0.71460 0.78540 -0.44400
C 	C 	0.47700 0.71890 0.78110 -0.01500
O 	O 	0.13340 0.78540 0.78540 -0.44400
C 	C 	0.02300 0.78110 0.78110 -0.01500
O 	O 	0.13340 0.28540 0.28540 -0.44400
C 	C 	0.02300 0.28110 0.28110 -0.01500
O 	O 	0.63340 0.78540 0.28540 -0.44400
C 	C 	0.52300 0.78110 0.28110 -0.01500
O 	O 	0.63340 0.28540 0.78540 -0.44400
C 	C 	0.52300 0.28110 0.78110 -0.01500
O 	O 	0.86660 0.78540 0.21460 -0.44400
C 	C 	0.97700 0.78110 0.21890 -0.01500
O 	O 	0.86660 0.28540 0.71460 -0.44400
C 	C 	0.97700 0.28110 0.71890 -0.01500
O 	O 	0.36660 0.78540 0.71460 -0.44400
C 	C 	0.47700 0.78110 0.71890 -0.01500
O 	O 	0.36660 0.28540 0.21460 -0.44400
C 	C 	0.47700 0.28110 0.21890 -0.01500
O 	O 	0.13340 0.21460 0.78540 -0.44400
C 	C 	0.02300 0.21890 0.78110 -0.01500
O 	O 	0.13340 0.71460 0.28540 -0.44400
C 	C 	0.02300 0.71890 0.28110 -0.01500
O 	O 	0.63340 0.21460 0.28540 -0.44400
C 	C 	0.52300 0.21890 0.28110 -0.01500
O 	O 	0.63340 0.71460 0.78540 -0.44400
C 	C 	0.52300 0.71890 0.78110 -0.01500
O 	O 	0.86660 0.78540 0.78540 -0.44400
C 	C 	0.97700 0.78110 0.78110 -0.01500
O 	O 	0.86660 0.28540 0.28540 -0.44400
C 	C 	0.97700 0.28110 0.28110 -0.01500
O 	O 	0.36660 0.78540 0.28540 -0.44400
C 	C 	0.47700 0.78110 0.28110 -0.01500
O 	O 	0.36660 0.28540 0.78540 -0.44400
C 	C 	0.47700 0.28110 0.78110 -0.01500
O 	O 	0.13340 0.78540 0.21460 -0.44400
C 	C 	0.02300 0.78110 0.21890 -0.01500
O 	O 	0.13340 0.28540 0.71460 -0.44400
C 	C 	0.02300 0.28110 0.71890 -0.01500
O 	O 	0.63340 0.78540 0.71460 -0.44400
C 	C 	0.52300 0.78110 0.71890 -0.01500
O 	O 	0.63340 0.28540 0.21460 -0.44400
C 	C 	0.52300 0.28110 0.21890 -0.01500
O 	O 	0.86660 0.21460 0.21460 -0.44400
C 	C 	0.97700 0.21890 0.21890 -0.01500
O 	O 	0.86660 0.71460 0.71460 -0.44400
C 	C 	0.97700 0.71890 0.71890 -0.01500
O 	O 	0.36660 0.21460 0.71460 -0.44400
C 	C 	0.47700 0.21890 0.71890 -0.01500
O 	O 	0.36660 0.71460 0.21460 -0.44400
C 	C 	0.47700 0.71890 0.21890 -0.01500
O 	O 	0.21460 0.21460 0.86660 -0.44400
C 	C 	0.21890 0.21890 0.97700 -0.01500
O 	O 	0.21460 0.71460 0.36660 -0.44400
C 	C 	0.21890 0.71890 0.47700 -0.01500
O 	O 	0.71460 0.21460 0.36660 -0.44400
C 	C 	0.71890 0.21890 0.47700 -0.01500
O 	O 	0.71460 0.71460 0.86660 -0.44400
C 	C 	0.71890 0.71890 0.97700 -0.01500
O 	O 	0.78540 0.21460 0.13340 -0.44400
C 	C 	0.78110 0.21890 0.02300 -0.01500
O 	O 	0.78540 0.71460 0.63340 -0.44400
C 	C 	0.78110 0.71890 0.52300 -0.01500
O 	O 	0.28540 0.21460 0.63340 -0.44400
C 	C 	0.28110 0.21890 0.52300 -0.01500
O 	O 	0.28540 0.71460 0.13340 -0.44400
C 	C 	0.28110 0.71890 0.02300 -0.01500
O 	O 	0.78540 0.78540 0.86660 -0.44400
C 	C 	0.78110 0.78110 0.97700 -0.01500
O 	O 	0.78540 0.28540 0.36660 -0.44400
C 	C 	0.78110 0.28110 0.47700 -0.01500
O 	O 	0.28540 0.78540 0.36660 -0.44400
C 	C 	0.28110 0.78110 0.47700 -0.01500
O 	O 	0.28540 0.28540 0.86660 -0.44400
C 	C 	0.28110 0.28110 0.97700 -0.01500
O 	O 	0.21460 0.78540 0.13340 -0.44400
C 	C 	0.21890 0.78110 0.02300 -0.01500
O 	O 	0.21460 0.28540 0.63340 -0.44400
C 	C 	0.21890 0.28110 0.52300 -0.01500
O 	O 	0.71460 0.78540 0.63340 -0.44400
C 	C 	0.71890 0.78110 0.52300 -0.01500
O 	O 	0.71460 0.28540 0.13340 -0.44400
C 	C 	0.71890 0.28110 0.02300 -0.01500
O 	O 	0.21460 0.13340 0.78540 -0.44400
C 	C 	0.21890 0.02300 0.78110 -0.01500
O 	O 	0.21460 0.63340 0.28540 -0.44400
C 	C 	0.21890 0.52300 0.28110 -0.01500
O 	O 	0.71460 0.13340 0.28540 -0.44400
C 	C 	0.71890 0.02300 0.28110 -0.01500
O 	O 	0.71460 0.63340 0.78540 -0.44400
C 	C 	0.71890 0.52300 0.78110 -0.01500
O 	O 	0.21460 0.86660 0.21460 -0.44400
C 	C 	0.21890 0.97700 0.21890 -0.01500
O 	O 	0.21460 0.36660 0.71460 -0.44400
C 	C 	0.21890 0.47700 0.71890 -0.01500
O 	O 	0.71460 0.86660 0.71460 -0.44400
C 	C 	0.71890 0.97700 0.71890 -0.01500
O 	O 	0.71460 0.36660 0.21460 -0.44400
C 	C 	0.71890 0.47700 0.21890 -0.01500
O 	O 	0.78540 0.13340 0.21460 -0.44400
C 	C 	0.78110 0.02300 0.21890 -0.01500
O 	O 	0.78540 0.63340 0.71460 -0.44400
C 	C 	0.78110 0.52300 0.71890 -0.01500
O 	O 	0.28540 0.13340 0.71460 -0.44400
C 	C 	0.28110 0.02300 0.71890 -0.01500
O 	O 	0.28540 0.63340 0.21460 -0.44400
C 	C 	0.28110 0.52300 0.21890 -0.01500
O 	O 	0.78540 0.86660 0.78540 -0.44400
C 	C 	0.78110 0.97700 0.78110 -0.01500
O 	O 	0.78540 0.36660 0.28540 -0.44400
C 	C 	0.78110 0.47700 0.28110 -0.01500
O 	O 	0.28540 0.86660 0.28540 -0.44400
C 	C 	0.28110 0.97700 0.28110 -0.01500
O 	O 	0.28540 0.36660 0.78540 -0.44400
C 	C 	0.28110 0.47700 0.78110 -0.01500
O 	O 	0.25000 0.25000 0.25000 -0.98800
O 	O 	0.75000 0.75000 0.25000 -0.98800
O 	O 	0.75000 0.25000 0.75000 -0.98800
O 	O 	0.25000 0.75000 0.75000 -0.98800
O 	O 	0.25000 0.25000 0.75000 -0.98800
O 	O 	0.75000 0.75000 0.75000 -0.98800
O 	O 	0.75000 0.25000 0.25000 -0.98800
O 	O 	0.25000 0.75000 0.25000 -0.98800
C 	C 	0.25000 0.11520 0.25000 0.20900
C 	C 	0.25000 0.05620 0.25000 -0.02700
C 	C 	0.25000 0.61520 0.75000 0.20900
C 	C 	0.25000 0.55620 0.75000 -0.02700
C 	C 	0.75000 0.88480 0.25000 0.20900
C 	C 	0.75000 0.94380 0.25000 -0.02700
C 	C 	0.75000 0.38480 0.75000 0.20900
C 	C 	0.75000 0.44380 0.75000 -0.02700
C 	C 	0.25000 0.38480 0.25000 0.20900
C 	C 	0.25000 0.44380 0.25000 -0.02700
C 	C 	0.75000 0.11520 0.75000 0.20900
C 	C 	0.75000 0.05620 0.75000 -0.02700
C 	C 	0.75000 0.61520 0.25000 0.20900
C 	C 	0.75000 0.55620 0.25000 -0.02700
C 	C 	0.25000 0.88480 0.75000 0.20900
C 	C 	0.25000 0.94380 0.75000 -0.02700
C 	C 	0.25000 0.25000 0.11520 0.20900
C 	C 	0.25000 0.25000 0.05620 -0.02700
C 	C 	0.25000 0.75000 0.61520 0.20900
C 	C 	0.25000 0.75000 0.55620 -0.02700
C 	C 	0.25000 0.75000 0.88480 0.20900
C 	C 	0.25000 0.75000 0.94380 -0.02700
C 	C 	0.25000 0.25000 0.38480 0.20900
C 	C 	0.25000 0.25000 0.44380 -0.02700
C 	C 	0.75000 0.75000 0.11520 0.20900
C 	C 	0.75000 0.75000 0.05620 -0.02700
C 	C 	0.75000 0.25000 0.61520 0.20900
C 	C 	0.75000 0.25000 0.55620 -0.02700
C 	C 	0.75000 0.25000 0.88480 0.20900
C 	C 	0.75000 0.25000 0.94380 -0.02700
C 	C 	0.75000 0.75000 0.38480 0.20900
C 	C 	0.75000 0.75000 0.44380 -0.02700
C 	C 	0.11520 0.25000 0.25000 0.20900
C 	C 	0.05620 0.25000 0.25000 -0.02700
C 	C 	0.61520 0.25000 0.75000 0.20900
C 	C 	0.55620 0.25000 0.75000 -0.02700
C 	C 	0.88480 0.25000 0.75000 0.20900
C 	C 	0.94380 0.25000 0.75000 -0.02700
C 	C 	0.38480 0.25000 0.25000 0.20900
C 	C 	0.44380 0.25000 0.25000 -0.02700
C 	C 	0.11520 0.75000 0.75000 0.20900
C 	C 	0.05620 0.75000 0.75000 -0.02700
C 	C 	0.61520 0.75000 0.25000 0.20900
C 	C 	0.55620 0.75000 0.25000 -0.02700
C 	C 	0.88480 0.75000 0.25000 0.20900
C 	C 	0.94380 0.75000 0.25000 -0.02700
C 	C 	0.38480 0.75000 0.75000 0.20900
C 	C 	0.44380 0.75000 0.75000 -0.02700
C 	C 	0.11520 0.25000 0.75000 0.20900
C 	C 	0.05620 0.25000 0.75000 -0.02700
C 	C 	0.61520 0.25000 0.25000 0.20900
C 	C 	0.55620 0.25000 0.25000 -0.02700
C 	C 	0.88480 0.75000 0.75000 0.20900
C 	C 	0.94380 0.75000 0.75000 -0.02700
C 	C 	0.88480 0.25000 0.25000 0.20900
C 	C 	0.94380 0.25000 0.25000 -0.02700
C 	C 	0.38480 0.75000 0.25000 0.20900
C 	C 	0.44380 0.75000 0.25000 -0.02700
C 	C 	0.11520 0.75000 0.25000 0.20900
C 	C 	0.05620 0.75000 0.25000 -0.02700
C 	C 	0.61520 0.75000 0.75000 0.20900
C 	C 	0.55620 0.75000 0.75000 -0.02700
C 	C 	0.38480 0.25000 0.75000 0.20900
C 	C 	0.44380 0.25000 0.75000 -0.02700
C 	C 	0.25000 0.25000 0.88480 0.20900
C 	C 	0.25000 0.25000 0.94380 -0.02700
C 	C 	0.25000 0.75000 0.38480 0.20900
C 	C 	0.25000 0.75000 0.44380 -0.02700
C 	C 	0.75000 0.25000 0.11520 0.20900
C 	C 	0.75000 0.25000 0.05620 -0.02700
C 	C 	0.75000 0.75000 0.61520 0.20900
C 	C 	0.75000 0.75000 0.55620 -0.02700
C 	C 	0.25000 0.25000 0.61520 0.20900
C 	C 	0.25000 0.25000 0.55620 -0.02700
C 	C 	0.75000 0.75000 0.88480 0.20900
C 	C 	0.75000 0.75000 0.94380 -0.02700
C 	C 	0.75000 0.25000 0.38480 0.20900
C 	C 	0.75000 0.25000 0.44380 -0.02700
C 	C 	0.25000 0.75000 0.11520 0.20900
C 	C 	0.25000 0.75000 0.05620 -0.02700
C 	C 	0.25000 0.11520 0.75000 0.20900
C 	C 	0.25000 0.05620 0.75000 -0.02700
C 	C 	0.25000 0.61520 0.25000 0.20900
C 	C 	0.25000 0.55620 0.25000 -0.02700
C 	C 	0.25000 0.88480 0.25000 0.20900
C 	C 	0.25000 0.94380 0.25000 -0.02700
C 	C 	0.25000 0.38480 0.75000 0.20900
C 	C 	0.25000 0.44380 0.75000 -0.02700
C 	C 	0.75000 0.11520 0.25000 0.20900
C 	C 	0.75000 0.05620 0.25000 -0.02700
C 	C 	0.75000 0.61520 0.75000 0.20900
C 	C 	0.75000 0.55620 0.75000 -0.02700
C 	C 	0.75000 0.88480 0.75000 0.20900
C 	C 	0.75000 0.94380 0.75000 -0.02700
C 	C 	0.75000 0.38480 0.25000 0.20900
C 	C 	0.75000 0.44380 0.25000 -0.02700
Zn	Zn	0.20639 0.20639 0.20639 1.20800
Zn	Zn	0.20639 0.70639 0.70639 1.20800
Zn	Zn	0.70639 0.20639 0.70639 1.20800
Zn	Zn	0.70639 0.70639 0.20639 1.20800
Zn	Zn	0.79361 0.79361 0.20639 1.20800
Zn	Zn	0.79361 0.29361 0.70639 1.20800
Zn	Zn	0.29361 0.79361 0.70639 1.20800
Zn	Zn	0.29361 0.29361 0.20639 1.20800
Zn	Zn	0.79361 0.20639 0.79361 1.20800
Zn	Zn	0.79361 0.70639 0.29361 1.20800
Zn	Zn	0.29361 0.20639 0.29361 1.20800
Zn	Zn	0.29361 0.70639 0.79361 1.20800
Zn	Zn	0.20639 0.79361 0.79361 1.20800
Zn	Zn	0.20639 0.29361 0.29361 1.20800
Zn	Zn	0.70639 0.79361 0.29361 1.20800
Zn	Zn	0.70639 0.29361 0.79361 1.20800
Zn	Zn	0.20639 0.20639 0.79361 1.20800
Zn	Zn	0.20639 0.70639 0.29361 1.20800
Zn	Zn	0.70639 0.20639 0.29361 1.20800
Zn	Zn	0.70639 0.70639 0.79361 1.20800
Zn	Zn	0.79361 0.79361 0.79361 1.20800
Zn	Zn	0.79361 0.29361 0.29361 1.20800
Zn	Zn	0.29361 0.79361 0.29361 1.20800
Zn	Zn	0.29361 0.29361 0.79361 1.20800
Zn	Zn	0.20639 0.79361 0.20639 1.20800
Zn	Zn	0.20639 0.29361 0.70639 1.20800
Zn	Zn	0.70639 0.79361 0.70639 1.20800
Zn	Zn	0.70639 0.29361 0.20639 1.20800
Zn	Zn	0.79361 0.20639 0.20639 1.20800
Zn	Zn	0.79361 0.70639 0.70639 1.20800
Zn	Zn	0.29361 0.20639 0.70639 1.20800
Zn	Zn	0.29361 0.70639 0.20639 1.20800
H 	H 	0.18997 0.04033 0.18997 0.04800
H 	H 	0.18997 0.54033 0.68997 0.04800
H 	H 	0.68997 0.04033 0.68997 0.04800
H 	H 	0.68997 0.54033 0.18997 0.04800
H 	H 	0.81003 0.95967 0.18997 0.04800
H 	H 	0.81003 0.45967 0.68997 0.04800
H 	H 	0.31003 0.95967 0.68997 0.04800
H 	H 	0.31003 0.45967 0.18997 0.04800
H 	H 	0.81003 0.04033 0.81003 0.04800
H 	H 	0.81003 0.54033 0.31003 0.04800
H 	H 	0.31003 0.04033 0.31003 0.04800
H 	H 	0.31003 0.54033 0.81003 0.04800
H 	H 	0.18997 0.95967 0.81003 0.04800
H 	H 	0.18997 0.45967 0.31003 0.04800
H 	H 	0.68997 0.95967 0.31003 0.04800
H 	H 	0.68997 0.45967 0.81003 0.04800
H 	H 	0.18997 0.18997 0.04033 0.04800
H 	H 	0.18997 0.68997 0.54033 0.04800
H 	H 	0.68997 0.18997 0.54033 0.04800
H 	H 	0.68997 0.68997 0.04033 0.04800
H 	H 	0.18997 0.81003 0.95967 0.04800
H 	H 	0.18997 0.31003 0.45967 0.04800
H 	H 	0.68997 0.81003 0.45967 0.04800
H 	H 	0.68997 0.31003 0.95967 0.04800
H 	H 	0.81003 0.81003 0.04033 0.04800
H 	H 	0.81003 0.31003 0.54033 0.04800
H 	H 	0.31003 0.81003 0.54033 0.04800
H 	H 	0.31003 0.31003 0.04033 0.04800
H 	H 	0.81003 0.18997 0.95967 0.04800
H 	H 	0.81003 0.68997 0.45967 0.04800
H 	H 	0.31003 0.18997 0.45967 0.04800
H 	H 	0.31003 0.68997 0.95967 0.04800
H 	H 	0.04033 0.18997 0.18997 0.04800
H 	H 	0.04033 0.68997 0.68997 0.04800
H 	H 	0.54033 0.18997 0.68997 0.04800
H 	H 	0.54033 0.68997 0.18997 0.04800
H 	H 	0.95967 0.18997 0.81003 0.04800
H 	H 	0.95967 0.68997 0.31003 0.04800
H 	H 	0.45967 0.18997 0.31003 0.04800
H 	H 	0.45967 0.68997 0.81003 0.04800
H 	H 	0.04033 0.81003 0.81003 0.04800
H 	H 	0.04033 0.31003 0.31003 0.04800
H 	H 	0.54033 0.81003 0.31003 0.04800
H 	H 	0.54033 0.31003 0.81003 0.04800
H 	H 	0.95967 0.81003 0.18997 0.04800
H 	H 	0.95967 0.31003 0.68997 0.04800
H 	H 	0.45967 0.81003 0.68997 0.04800
H 	H 	0.45967 0.31003 0.18997 0.04800
H 	H 	0.04033 0.18997 0.81003 0.04800
H 	H 	0.04033 0.68997 0.31003 0.04800
H 	H 	0.54033 0.18997 0.31003 0.04800
H 	H 	0.54033 0.68997 0.81003 0.04800
H 	H 	0.95967 0.81003 0.81003 0.04800
H 	H 	0.95967 0.31003 0.31003 0.04800
H 	H 	0.45967 0.81003 0.31003 0.04800
H 	H 	0.45967 0.31003 0.81003 0.04800
H 	H 	0.04033 0.81003 0.18997 0.04800
H 	H 	0.04033 0.31003 0.68997 0.04800
H 	H 	0.54033 0.81003 0.68997 0.04800
H 	H 	0.54033 0.31003 0.18997 0.04800
H 	H 	0.95967 0.18997 0.18997 0.04800
H 	H 	0.95967 0.68997 0.68997 0.04800
H 	H 	0.45967 0.18997 0.68997 0.04800
H 	H 	0.45967 0.68997 0.18997 0.04800
H 	H 	0.18997 0.18997 0.95967 0.04800
H 	H 	0.18997 0.68997 0.45967 0.04800
H 	H 	0.68997 0.18997 0.45967 0.04800
H 	H 	0.68997 0.68997 0.95967 0.04800
H 	H 	0.81003 0.18997 0.04033 0.04800
H 	H 	0.81003 0.68997 0.54033 0.04800
H 	H 	0.31003 0.18997 0.54033 0.04800
H 	H 	0.31003 0.68997 0.04033 0.04800
H 	H 	0.81003 0.81003 0.95967 0.04800
H 	H 	0.81003 0.31003 0.45967 0.04800
H 	H 	0.31003 0.81003 0.45967 0.04800
H 	H 	0.31003 0.31003 0.95967 0.04800
H 	H 	0.18997 0.81003 0.04033 0.04800
H 	H 	0.18997 0.31003 0.54033 0.04800
H 	H 	0.68997 0.81003 0.54033 0.04800
H 	H 	0.68997 0.31003 0.04033 0.04800
H 	H 	0.18997 0.04033 0.81003 0.04800
H 	H 	0.18997 0.54033 0.31003 0.04800
H 	H 	0.68997 0.04033 0.31003 0.04800
H 	H 	0.68997 0.54033 0.81003 0.04800
H 	H 	0.18997 0.95967 0.18997 0.04800
H 	H 	0.18997 0.45967 0.68997 0.04800
H 	H 	0.68997 0.95967 0.68997 0.04800
H 	H 	0.68997 0.45967 0.18997 0.04800
H 	H 	0.81003 0.04033 0.18997 0.04800
H 	H 	0.81003 0.54033 0.68997 0.04800
H 	H 	0.31003 0.04033 0.68997 0.04800
H 	H 	0.31003 0.54033 0.18997 0.04800
H 	H 	0.81003 0.95967 0.81003 0.04800
H 	H 	0.81003 0.45967 0.31003 0.04800
H 	H 	0.31003 0.95967 0.31003 0.04800
H 	H 	0.31003 0.45967 0.81003 0.04800
