data_crystal

_cell_length_a 25.54300
_cell_length_b 25.54300
_cell_length_c 25.54300
_cell_angle_alpha 90.00000
_cell_angle_beta  90.00000
_cell_angle_gamma 90.00000

_symmetry_space_group_name_	'P 1'
_symmetry_space_group_name_H-M	'P 1'

loop_
_symmetry_equiv_pos_as_xyz
  x,y,z

loop_
_atom_site_label
_atom_site_type_symbol
_atom_site_fract_x
_atom_site_fract_y
_atom_site_fract_z
_atom_site_charge
Zn	Zn	0.79368 0.70632 0.29368 1.22100
Zn	Zn	0.79368 0.20632 0.79368 1.22100
Zn	Zn	0.20632 0.29368 0.29368 1.22100
Zn	Zn	0.20632 0.79368 0.79368 1.22100
Zn	Zn	0.20632 0.70632 0.70632 1.22100
Zn	Zn	0.20632 0.20632 0.20632 1.22100
Zn	Zn	0.79368 0.29368 0.70632 1.22100
Zn	Zn	0.79368 0.79368 0.20632 1.22100
Zn	Zn	0.29368 0.79368 0.70632 1.22100
Zn	Zn	0.29368 0.20632 0.29368 1.22100
Zn	Zn	0.70632 0.20632 0.70632 1.22100
Zn	Zn	0.70632 0.79368 0.29368 1.22100
Zn	Zn	0.70632 0.29368 0.79368 1.22100
Zn	Zn	0.29368 0.29368 0.20632 1.22100
Zn	Zn	0.70632 0.70632 0.20632 1.22100
Zn	Zn	0.29368 0.70632 0.79368 1.22100
Zn	Zn	0.70632 0.79368 0.70632 1.22100
Zn	Zn	0.29368 0.20632 0.70632 1.22100
Zn	Zn	0.70632 0.20632 0.29368 1.22100
Zn	Zn	0.29368 0.79368 0.29368 1.22100
Zn	Zn	0.79368 0.29368 0.29368 1.22100
Zn	Zn	0.79368 0.79368 0.79368 1.22100
Zn	Zn	0.20632 0.29368 0.70632 1.22100
Zn	Zn	0.20632 0.79368 0.20632 1.22100
Zn	Zn	0.20632 0.70632 0.29368 1.22100
Zn	Zn	0.20632 0.20632 0.79368 1.22100
Zn	Zn	0.79368 0.70632 0.70632 1.22100
Zn	Zn	0.79368 0.20632 0.20632 1.22100
Zn	Zn	0.29368 0.70632 0.20632 1.22100
Zn	Zn	0.29368 0.29368 0.79368 1.22100
Zn	Zn	0.70632 0.70632 0.79368 1.22100
Zn	Zn	0.70632 0.29368 0.20632 1.22100
O 	O 	0.78240 0.63430 0.28240 -0.49300
C 	C 	0.72230 0.52380 0.22230 0.00600
O 	O 	0.78240 0.13430 0.78240 -0.49300
C 	C 	0.72230 0.02380 0.72230 0.00600
O 	O 	0.21760 0.36570 0.28240 -0.49300
C 	C 	0.27770 0.47620 0.22230 0.00600
O 	O 	0.21760 0.86570 0.78240 -0.49300
C 	C 	0.27770 0.97620 0.72230 0.00600
O 	O 	0.71760 0.36570 0.78240 -0.49300
C 	C 	0.77770 0.47620 0.72230 0.00600
O 	O 	0.21760 0.63430 0.71760 -0.49300
C 	C 	0.27770 0.52380 0.77770 0.00600
O 	O 	0.21760 0.13430 0.21760 -0.49300
C 	C 	0.27770 0.02380 0.27770 0.00600
O 	O 	0.71760 0.13430 0.71760 -0.49300
C 	C 	0.77770 0.02380 0.77770 0.00600
O 	O 	0.78240 0.36570 0.71760 -0.49400
C 	C 	0.72230 0.47620 0.77770 0.00500
O 	O 	0.78240 0.86570 0.21760 -0.49400
C 	C 	0.72230 0.97620 0.27770 0.00500
O 	O 	0.28240 0.78240 0.63430 -0.49400
C 	C 	0.22230 0.72230 0.52380 0.00500
O 	O 	0.28240 0.28240 0.13430 -0.49400
C 	C 	0.22230 0.22230 0.02380 0.00500
O 	O 	0.78240 0.78240 0.13430 -0.49400
C 	C 	0.72230 0.72230 0.02380 0.00500
O 	O 	0.28240 0.21760 0.36570 -0.49400
C 	C 	0.22230 0.27770 0.47620 0.00500
O 	O 	0.28240 0.71760 0.86570 -0.49400
C 	C 	0.22230 0.77770 0.97620 0.00500
O 	O 	0.78240 0.71760 0.36570 -0.49400
C 	C 	0.72230 0.77770 0.47620 0.00500
O 	O 	0.71760 0.21760 0.63430 -0.49400
C 	C 	0.77770 0.27770 0.52380 0.00500
O 	O 	0.71760 0.71760 0.13430 -0.49400
C 	C 	0.77770 0.77770 0.02380 0.00500
O 	O 	0.71760 0.78240 0.36570 -0.49400
C 	C 	0.77770 0.72230 0.47620 0.00500
O 	O 	0.71760 0.28240 0.86570 -0.49400
C 	C 	0.77770 0.22230 0.97620 0.00500
O 	O 	0.63430 0.28240 0.78240 -0.49400
C 	C 	0.52380 0.22230 0.72230 0.00500
O 	O 	0.13430 0.28240 0.28240 -0.49400
C 	C 	0.02380 0.22230 0.22230 0.00500
O 	O 	0.13430 0.78240 0.78240 -0.49400
C 	C 	0.02380 0.72230 0.72230 0.00500
O 	O 	0.36570 0.28240 0.21760 -0.49400
C 	C 	0.47620 0.22230 0.27770 0.00500
O 	O 	0.36570 0.78240 0.71760 -0.49400
C 	C 	0.47620 0.72230 0.77770 0.00500
O 	O 	0.86570 0.28240 0.71760 -0.49400
C 	C 	0.97620 0.22230 0.77770 0.00500
O 	O 	0.63430 0.71760 0.21760 -0.49400
C 	C 	0.52380 0.77770 0.27770 0.00500
O 	O 	0.13430 0.71760 0.71760 -0.49400
C 	C 	0.02380 0.77770 0.77770 0.00500
O 	O 	0.36570 0.71760 0.78240 -0.49400
C 	C 	0.47620 0.77770 0.72230 0.00500
O 	O 	0.86570 0.71760 0.28240 -0.49400
C 	C 	0.97620 0.77770 0.22230 0.00500
O 	O 	0.63430 0.78240 0.71760 -0.49400
C 	C 	0.52380 0.72230 0.77770 0.00500
O 	O 	0.13430 0.78240 0.21760 -0.49400
C 	C 	0.02380 0.72230 0.27770 0.00500
O 	O 	0.36570 0.21760 0.71760 -0.49400
C 	C 	0.47620 0.27770 0.77770 0.00500
O 	O 	0.86570 0.21760 0.21760 -0.49400
C 	C 	0.97620 0.27770 0.27770 0.00500
O 	O 	0.86570 0.71760 0.71760 -0.49400
C 	C 	0.97620 0.77770 0.77770 0.00500
O 	O 	0.63430 0.21760 0.28240 -0.49400
C 	C 	0.52380 0.27770 0.22230 0.00500
O 	O 	0.63430 0.71760 0.78240 -0.49400
C 	C 	0.52380 0.77770 0.72230 0.00500
O 	O 	0.13430 0.21760 0.78240 -0.49400
C 	C 	0.02380 0.27770 0.72230 0.00500
O 	O 	0.36570 0.78240 0.28240 -0.49400
C 	C 	0.47620 0.72230 0.22230 0.00500
O 	O 	0.86570 0.78240 0.78240 -0.49400
C 	C 	0.97620 0.72230 0.72230 0.00500
O 	O 	0.78240 0.28240 0.36570 -0.49400
C 	C 	0.72230 0.22230 0.47620 0.00500
O 	O 	0.78240 0.78240 0.86570 -0.49400
C 	C 	0.72230 0.72230 0.97620 0.00500
O 	O 	0.21760 0.28240 0.63430 -0.49400
C 	C 	0.27770 0.22230 0.52380 0.00500
O 	O 	0.21760 0.78240 0.13430 -0.49400
C 	C 	0.27770 0.72230 0.02380 0.00500
O 	O 	0.71760 0.78240 0.63430 -0.49400
C 	C 	0.77770 0.72230 0.52380 0.00500
O 	O 	0.21760 0.71760 0.36570 -0.49400
C 	C 	0.27770 0.77770 0.47620 0.00500
O 	O 	0.21760 0.21760 0.86570 -0.49400
C 	C 	0.27770 0.27770 0.97620 0.00500
O 	O 	0.71760 0.71760 0.86570 -0.49400
C 	C 	0.77770 0.77770 0.97620 0.00500
O 	O 	0.78240 0.71760 0.63430 -0.49400
C 	C 	0.72230 0.77770 0.52380 0.00500
O 	O 	0.78240 0.21760 0.13430 -0.49400
C 	C 	0.72230 0.27770 0.02380 0.00500
O 	O 	0.28240 0.63430 0.21760 -0.49400
C 	C 	0.22230 0.52380 0.27770 0.00500
O 	O 	0.28240 0.13430 0.71760 -0.49400
C 	C 	0.22230 0.02380 0.77770 0.00500
O 	O 	0.78240 0.63430 0.71760 -0.49400
C 	C 	0.72230 0.52380 0.77770 0.00500
O 	O 	0.28240 0.36570 0.78240 -0.49400
C 	C 	0.22230 0.47620 0.72230 0.00500
O 	O 	0.28240 0.86570 0.28240 -0.49400
C 	C 	0.22230 0.97620 0.22230 0.00500
O 	O 	0.78240 0.86570 0.78240 -0.49400
C 	C 	0.72230 0.97620 0.72230 0.00500
O 	O 	0.71760 0.63430 0.78240 -0.49400
C 	C 	0.77770 0.52380 0.72230 0.00500
O 	O 	0.71760 0.13430 0.28240 -0.49400
C 	C 	0.77770 0.02380 0.22230 0.00500
O 	O 	0.71760 0.36570 0.21760 -0.49400
C 	C 	0.77770 0.47620 0.27770 0.00500
O 	O 	0.71760 0.86570 0.71760 -0.49400
C 	C 	0.77770 0.97620 0.77770 0.00500
O 	O 	0.21760 0.36570 0.71760 -0.49400
C 	C 	0.27770 0.47620 0.77770 0.00500
O 	O 	0.21760 0.86570 0.21760 -0.49400
C 	C 	0.27770 0.97620 0.27770 0.00500
O 	O 	0.78240 0.13430 0.21760 -0.49400
C 	C 	0.72230 0.02380 0.27770 0.00500
O 	O 	0.78240 0.36570 0.28240 -0.49400
C 	C 	0.72230 0.47620 0.22230 0.00500
O 	O 	0.21760 0.63430 0.28240 -0.49400
C 	C 	0.27770 0.52380 0.22230 0.00500
O 	O 	0.21760 0.13430 0.78240 -0.49400
C 	C 	0.27770 0.02380 0.72230 0.00500
O 	O 	0.71760 0.21760 0.36570 -0.49400
C 	C 	0.77770 0.27770 0.47620 0.00500
O 	O 	0.71760 0.28240 0.13430 -0.49400
C 	C 	0.77770 0.22230 0.02380 0.00500
O 	O 	0.28240 0.78240 0.36570 -0.49400
C 	C 	0.22230 0.72230 0.47620 0.00500
O 	O 	0.28240 0.28240 0.86570 -0.49400
C 	C 	0.22230 0.22230 0.97620 0.00500
O 	O 	0.28240 0.21760 0.63430 -0.49400
C 	C 	0.22230 0.27770 0.52380 0.00500
O 	O 	0.28240 0.71760 0.13430 -0.49400
C 	C 	0.22230 0.77770 0.02380 0.00500
O 	O 	0.36570 0.71760 0.21760 -0.49400
C 	C 	0.47620 0.77770 0.27770 0.00500
O 	O 	0.13430 0.71760 0.28240 -0.49400
C 	C 	0.02380 0.77770 0.22230 0.00500
O 	O 	0.36570 0.28240 0.78240 -0.49400
C 	C 	0.47620 0.22230 0.72230 0.00500
O 	O 	0.86570 0.28240 0.28240 -0.49400
C 	C 	0.97620 0.22230 0.22230 0.00500
O 	O 	0.63430 0.28240 0.21760 -0.49400
C 	C 	0.52380 0.22230 0.27770 0.00500
O 	O 	0.13430 0.28240 0.71760 -0.49400
C 	C 	0.02380 0.22230 0.77770 0.00500
O 	O 	0.36570 0.21760 0.28240 -0.49400
C 	C 	0.47620 0.27770 0.22230 0.00500
O 	O 	0.86570 0.21760 0.78240 -0.49400
C 	C 	0.97620 0.27770 0.72230 0.00500
O 	O 	0.63430 0.78240 0.28240 -0.49400
C 	C 	0.52380 0.72230 0.22230 0.00500
O 	O 	0.86570 0.78240 0.21760 -0.49400
C 	C 	0.97620 0.72230 0.27770 0.00500
O 	O 	0.63430 0.21760 0.71760 -0.49400
C 	C 	0.52380 0.27770 0.77770 0.00500
O 	O 	0.13430 0.21760 0.21760 -0.49400
C 	C 	0.02380 0.27770 0.27770 0.00500
O 	O 	0.21760 0.71760 0.63430 -0.49400
C 	C 	0.27770 0.77770 0.52380 0.00500
O 	O 	0.21760 0.21760 0.13430 -0.49400
C 	C 	0.27770 0.27770 0.02380 0.00500
O 	O 	0.78240 0.21760 0.86570 -0.49400
C 	C 	0.72230 0.27770 0.97620 0.00500
O 	O 	0.78240 0.28240 0.63430 -0.49400
C 	C 	0.72230 0.22230 0.52380 0.00500
O 	O 	0.21760 0.28240 0.36570 -0.49400
C 	C 	0.27770 0.22230 0.47620 0.00500
O 	O 	0.21760 0.78240 0.86570 -0.49400
C 	C 	0.27770 0.72230 0.97620 0.00500
O 	O 	0.71760 0.86570 0.28240 -0.49400
C 	C 	0.77770 0.97620 0.22230 0.00500
O 	O 	0.71760 0.63430 0.21760 -0.49400
C 	C 	0.77770 0.52380 0.27770 0.00500
O 	O 	0.28240 0.36570 0.21760 -0.49400
C 	C 	0.22230 0.47620 0.27770 0.00500
O 	O 	0.28240 0.86570 0.71760 -0.49400
C 	C 	0.22230 0.97620 0.77770 0.00500
O 	O 	0.28240 0.63430 0.78240 -0.49400
C 	C 	0.22230 0.52380 0.72230 0.00500
O 	O 	0.28240 0.13430 0.28240 -0.49400
C 	C 	0.22230 0.02380 0.22230 0.00500
O 	O 	0.75000 0.75000 0.25000 -0.96800
O 	O 	0.25000 0.25000 0.25000 -0.96800
O 	O 	0.25000 0.75000 0.75000 -0.96800
O 	O 	0.75000 0.25000 0.75000 -0.96800
O 	O 	0.75000 0.75000 0.75000 -0.96800
O 	O 	0.25000 0.25000 0.75000 -0.96800
O 	O 	0.75000 0.25000 0.25000 -0.96800
O 	O 	0.25000 0.75000 0.25000 -0.96800
C 	C 	0.75000 0.61260 0.25000 0.34200
C 	C 	0.75000 0.55520 0.25000 -0.09500
C 	C 	0.75000 0.11260 0.75000 0.34200
C 	C 	0.75000 0.05520 0.75000 -0.09500
C 	C 	0.25000 0.38740 0.25000 0.34200
C 	C 	0.25000 0.44480 0.25000 -0.09500
C 	C 	0.25000 0.88740 0.75000 0.34200
C 	C 	0.25000 0.94480 0.75000 -0.09500
C 	C 	0.25000 0.61260 0.75000 0.34200
C 	C 	0.25000 0.55520 0.75000 -0.09500
C 	C 	0.25000 0.11260 0.25000 0.34200
C 	C 	0.25000 0.05520 0.25000 -0.09500
C 	C 	0.75000 0.38740 0.75000 0.34200
C 	C 	0.75000 0.44480 0.75000 -0.09500
C 	C 	0.75000 0.88740 0.25000 0.34200
C 	C 	0.75000 0.94480 0.25000 -0.09500
C 	C 	0.25000 0.75000 0.61260 0.34200
C 	C 	0.25000 0.75000 0.55520 -0.09500
C 	C 	0.25000 0.25000 0.11260 0.34200
C 	C 	0.25000 0.25000 0.05520 -0.09500
C 	C 	0.25000 0.25000 0.38740 0.34200
C 	C 	0.25000 0.25000 0.44480 -0.09500
C 	C 	0.25000 0.75000 0.88740 0.34200
C 	C 	0.25000 0.75000 0.94480 -0.09500
C 	C 	0.75000 0.25000 0.61260 0.34200
C 	C 	0.75000 0.25000 0.55520 -0.09500
C 	C 	0.75000 0.75000 0.11260 0.34200
C 	C 	0.75000 0.75000 0.05520 -0.09500
C 	C 	0.75000 0.75000 0.38740 0.34200
C 	C 	0.75000 0.75000 0.44480 -0.09500
C 	C 	0.75000 0.25000 0.88740 0.34200
C 	C 	0.75000 0.25000 0.94480 -0.09500
C 	C 	0.61260 0.25000 0.75000 0.34200
C 	C 	0.55520 0.25000 0.75000 -0.09500
C 	C 	0.11260 0.25000 0.25000 0.34200
C 	C 	0.05520 0.25000 0.25000 -0.09500
C 	C 	0.38740 0.25000 0.25000 0.34200
C 	C 	0.44480 0.25000 0.25000 -0.09500
C 	C 	0.88740 0.25000 0.75000 0.34200
C 	C 	0.94480 0.25000 0.75000 -0.09500
C 	C 	0.61260 0.75000 0.25000 0.34200
C 	C 	0.55520 0.75000 0.25000 -0.09500
C 	C 	0.11260 0.75000 0.75000 0.34200
C 	C 	0.05520 0.75000 0.75000 -0.09500
C 	C 	0.38740 0.75000 0.75000 0.34200
C 	C 	0.44480 0.75000 0.75000 -0.09500
C 	C 	0.88740 0.75000 0.25000 0.34200
C 	C 	0.94480 0.75000 0.25000 -0.09500
C 	C 	0.61260 0.75000 0.75000 0.34200
C 	C 	0.55520 0.75000 0.75000 -0.09500
C 	C 	0.11260 0.75000 0.25000 0.34200
C 	C 	0.05520 0.75000 0.25000 -0.09500
C 	C 	0.38740 0.25000 0.75000 0.34200
C 	C 	0.44480 0.25000 0.75000 -0.09500
C 	C 	0.88740 0.25000 0.25000 0.34200
C 	C 	0.94480 0.25000 0.25000 -0.09500
C 	C 	0.61260 0.25000 0.25000 0.34200
C 	C 	0.55520 0.25000 0.25000 -0.09500
C 	C 	0.11260 0.25000 0.75000 0.34200
C 	C 	0.05520 0.25000 0.75000 -0.09500
C 	C 	0.38740 0.75000 0.25000 0.34200
C 	C 	0.44480 0.75000 0.25000 -0.09500
C 	C 	0.88740 0.75000 0.75000 0.34200
C 	C 	0.94480 0.75000 0.75000 -0.09500
C 	C 	0.75000 0.25000 0.38740 0.34200
C 	C 	0.75000 0.25000 0.44480 -0.09500
C 	C 	0.75000 0.75000 0.88740 0.34200
C 	C 	0.75000 0.75000 0.94480 -0.09500
C 	C 	0.25000 0.25000 0.61260 0.34200
C 	C 	0.25000 0.25000 0.55520 -0.09500
C 	C 	0.25000 0.75000 0.11260 0.34200
C 	C 	0.25000 0.75000 0.05520 -0.09500
C 	C 	0.25000 0.75000 0.38740 0.34200
C 	C 	0.25000 0.75000 0.44480 -0.09500
C 	C 	0.25000 0.25000 0.88740 0.34200
C 	C 	0.25000 0.25000 0.94480 -0.09500
C 	C 	0.75000 0.75000 0.61260 0.34200
C 	C 	0.75000 0.75000 0.55520 -0.09500
C 	C 	0.75000 0.25000 0.11260 0.34200
C 	C 	0.75000 0.25000 0.05520 -0.09500
C 	C 	0.25000 0.61260 0.25000 0.34200
C 	C 	0.25000 0.55520 0.25000 -0.09500
C 	C 	0.25000 0.11260 0.75000 0.34200
C 	C 	0.25000 0.05520 0.75000 -0.09500
C 	C 	0.25000 0.38740 0.75000 0.34200
C 	C 	0.25000 0.44480 0.75000 -0.09500
C 	C 	0.25000 0.88740 0.25000 0.34200
C 	C 	0.25000 0.94480 0.25000 -0.09500
C 	C 	0.75000 0.61260 0.75000 0.34200
C 	C 	0.75000 0.55520 0.75000 -0.09500
C 	C 	0.75000 0.11260 0.25000 0.34200
C 	C 	0.75000 0.05520 0.25000 -0.09500
C 	C 	0.75000 0.38740 0.25000 0.34200
C 	C 	0.75000 0.44480 0.25000 -0.09500
C 	C 	0.75000 0.88740 0.75000 0.34200
C 	C 	0.75000 0.94480 0.75000 -0.09500
H 	H 	0.69289 0.54000 0.19289 0.03900
H 	H 	0.69289 0.04000 0.69289 0.03900
H 	H 	0.30711 0.46000 0.19289 0.03900
H 	H 	0.30711 0.96000 0.69289 0.03900
H 	H 	0.80711 0.46000 0.69289 0.03900
H 	H 	0.30711 0.54000 0.80711 0.03900
H 	H 	0.30711 0.04000 0.30711 0.03900
H 	H 	0.80711 0.04000 0.80711 0.03900
H 	H 	0.69289 0.46000 0.80711 0.03900
H 	H 	0.69289 0.96000 0.30711 0.03900
H 	H 	0.19289 0.69289 0.54000 0.03900
H 	H 	0.19289 0.19289 0.04000 0.03900
H 	H 	0.69289 0.69289 0.04000 0.03900
H 	H 	0.19289 0.30711 0.46000 0.03900
H 	H 	0.19289 0.80711 0.96000 0.03900
H 	H 	0.69289 0.80711 0.46000 0.03900
H 	H 	0.80711 0.30711 0.54000 0.03900
H 	H 	0.80711 0.80711 0.04000 0.03900
H 	H 	0.80711 0.69289 0.46000 0.03900
H 	H 	0.80711 0.19289 0.96000 0.03900
H 	H 	0.54000 0.19289 0.69289 0.03900
H 	H 	0.04000 0.19289 0.19289 0.03900
H 	H 	0.04000 0.69289 0.69289 0.03900
H 	H 	0.46000 0.19289 0.30711 0.03900
H 	H 	0.46000 0.69289 0.80711 0.03900
H 	H 	0.96000 0.19289 0.80711 0.03900
H 	H 	0.54000 0.80711 0.30711 0.03900
H 	H 	0.04000 0.80711 0.80711 0.03900
H 	H 	0.46000 0.80711 0.69289 0.03900
H 	H 	0.96000 0.80711 0.19289 0.03900
H 	H 	0.54000 0.69289 0.80711 0.03900
H 	H 	0.04000 0.69289 0.30711 0.03900
H 	H 	0.46000 0.30711 0.80711 0.03900
H 	H 	0.96000 0.30711 0.30711 0.03900
H 	H 	0.96000 0.80711 0.80711 0.03900
H 	H 	0.54000 0.30711 0.19289 0.03900
H 	H 	0.54000 0.80711 0.69289 0.03900
H 	H 	0.04000 0.30711 0.69289 0.03900
H 	H 	0.46000 0.69289 0.19289 0.03900
H 	H 	0.96000 0.69289 0.69289 0.03900
H 	H 	0.69289 0.19289 0.46000 0.03900
H 	H 	0.69289 0.69289 0.96000 0.03900
H 	H 	0.30711 0.19289 0.54000 0.03900
H 	H 	0.30711 0.69289 0.04000 0.03900
H 	H 	0.80711 0.69289 0.54000 0.03900
H 	H 	0.30711 0.80711 0.46000 0.03900
H 	H 	0.30711 0.30711 0.96000 0.03900
H 	H 	0.80711 0.80711 0.96000 0.03900
H 	H 	0.69289 0.80711 0.54000 0.03900
H 	H 	0.69289 0.30711 0.04000 0.03900
H 	H 	0.19289 0.54000 0.30711 0.03900
H 	H 	0.19289 0.04000 0.80711 0.03900
H 	H 	0.69289 0.54000 0.80711 0.03900
H 	H 	0.19289 0.46000 0.69289 0.03900
H 	H 	0.19289 0.96000 0.19289 0.03900
H 	H 	0.69289 0.96000 0.69289 0.03900
H 	H 	0.80711 0.54000 0.69289 0.03900
H 	H 	0.80711 0.04000 0.19289 0.03900
H 	H 	0.80711 0.46000 0.30711 0.03900
H 	H 	0.80711 0.96000 0.80711 0.03900
H 	H 	0.30711 0.46000 0.80711 0.03900
H 	H 	0.30711 0.96000 0.30711 0.03900
H 	H 	0.69289 0.04000 0.30711 0.03900
H 	H 	0.69289 0.46000 0.19289 0.03900
H 	H 	0.30711 0.54000 0.19289 0.03900
H 	H 	0.30711 0.04000 0.69289 0.03900
H 	H 	0.80711 0.30711 0.46000 0.03900
H 	H 	0.80711 0.19289 0.04000 0.03900
H 	H 	0.19289 0.69289 0.46000 0.03900
H 	H 	0.19289 0.19289 0.96000 0.03900
H 	H 	0.19289 0.30711 0.54000 0.03900
H 	H 	0.19289 0.80711 0.04000 0.03900
H 	H 	0.46000 0.80711 0.30711 0.03900
H 	H 	0.04000 0.80711 0.19289 0.03900
H 	H 	0.46000 0.19289 0.69289 0.03900
H 	H 	0.96000 0.19289 0.19289 0.03900
H 	H 	0.54000 0.19289 0.30711 0.03900
H 	H 	0.04000 0.19289 0.80711 0.03900
H 	H 	0.46000 0.30711 0.19289 0.03900
H 	H 	0.96000 0.30711 0.69289 0.03900
H 	H 	0.54000 0.69289 0.19289 0.03900
H 	H 	0.96000 0.69289 0.30711 0.03900
H 	H 	0.54000 0.30711 0.80711 0.03900
H 	H 	0.04000 0.30711 0.30711 0.03900
H 	H 	0.30711 0.80711 0.54000 0.03900
H 	H 	0.30711 0.30711 0.04000 0.03900
H 	H 	0.69289 0.30711 0.96000 0.03900
H 	H 	0.69289 0.19289 0.54000 0.03900
H 	H 	0.30711 0.19289 0.46000 0.03900
H 	H 	0.30711 0.69289 0.96000 0.03900
H 	H 	0.80711 0.96000 0.19289 0.03900
H 	H 	0.80711 0.54000 0.30711 0.03900
H 	H 	0.19289 0.46000 0.30711 0.03900
H 	H 	0.19289 0.96000 0.80711 0.03900
H 	H 	0.19289 0.54000 0.69289 0.03900
H 	H 	0.19289 0.04000 0.19289 0.03900
