data_crystal

_cell_length_a 9.98700
_cell_length_b 12.27500
_cell_length_c 17.46200
_cell_angle_alpha 90.00000
_cell_angle_beta  102.80000
_cell_angle_gamma 90.00000

_symmetry_space_group_name_	'P 1'
_symmetry_space_group_name_H-M	'P 1'

loop_
_symmetry_equiv_pos_as_xyz
  x,y,z

loop_
_atom_site_label
_atom_site_type_symbol
_atom_site_fract_x
_atom_site_fract_y
_atom_site_fract_z
_atom_site_charge
O 	O 	0.90970 0.25870 0.71670 -0.43300
O 	O 	0.81680 0.41410 0.62980 -0.39700
O 	O 	0.35970 0.11870 0.64500 -0.35700
O 	O 	0.94830 0.98820 0.90530 -0.42000
O 	O 	0.17920 0.94920 0.87630 -0.37200
O 	O 	0.12020 0.14530 0.66500 -0.35800
O 	O 	0.68560 0.02430 0.48090 -0.35000
O 	O 	0.15410 0.09860 0.96870 -0.38700
O 	O 	0.59390 0.04920 0.60280 -0.42400
O 	O 	0.04940 0.12250 0.82690 -0.37500
O 	O 	0.30700 0.07980 0.77720 -0.35100
O 	O 	0.94270 0.45090 0.76640 -0.38300
O 	O 	0.84690 0.06950 0.60800 -0.35800
O 	O 	0.06840 0.38750 0.66400 -0.36700
O 	O 	0.31480 0.27140 0.72740 -0.33000
O 	O 	0.68000 0.21020 0.53950 -0.41400
Fe	Fe	0.24580 0.92420 0.77950 1.31600
Fe	Fe	0.64960 0.35850 0.57260 1.22400
Fe	Fe	0.56500 0.02390 0.37230 1.26200
Fe	Fe	0.96480 0.10830 0.71070 1.26000
P 	P 	0.70110 0.08760 0.55890 0.55300
P 	P 	0.08330 0.03940 0.89370 0.56000
P 	P 	0.27290 0.15380 0.70420 0.53900
P 	P 	0.93810 0.37550 0.69560 0.55900
F 	F 	0.04980 0.95800 0.72250 -0.59100
F 	F 	0.71260 0.09020 0.32650 -0.60200
O 	O 	0.59030 0.75870 0.78330 -0.43300
O 	O 	0.68320 0.91410 0.87020 -0.39800
O 	O 	0.14030 0.61870 0.85500 -0.35800
O 	O 	0.55170 0.48820 0.59470 -0.42000
O 	O 	0.32080 0.44920 0.62370 -0.37000
O 	O 	0.37980 0.64530 0.83500 -0.36000
O 	O 	0.81440 0.52430 0.01910 -0.34900
O 	O 	0.34590 0.59860 0.53130 -0.38700
O 	O 	0.90610 0.54920 0.89720 -0.42500
O 	O 	0.45060 0.62250 0.67310 -0.37600
O 	O 	0.19300 0.57980 0.72280 -0.35100
O 	O 	0.55730 0.95090 0.73360 -0.38300
O 	O 	0.65310 0.56950 0.89200 -0.35800
O 	O 	0.43160 0.88750 0.83600 -0.36800
O 	O 	0.18520 0.77140 0.77260 -0.33000
O 	O 	0.82000 0.71020 0.96050 -0.41500
Fe	Fe	0.25420 0.42420 0.72050 1.31600
Fe	Fe	0.85040 0.85850 0.92740 1.22400
Fe	Fe	0.93500 0.52390 0.12770 1.26300
Fe	Fe	0.53520 0.60830 0.78930 1.26100
P 	P 	0.79890 0.58760 0.94110 0.55200
P 	P 	0.41670 0.53940 0.60630 0.55700
P 	P 	0.22710 0.65380 0.79580 0.53900
P 	P 	0.56190 0.87550 0.80440 0.55900
F 	F 	0.45020 0.45800 0.77750 -0.59000
F 	F 	0.78740 0.59020 0.17350 -0.60200
O 	O 	0.09030 0.74130 0.28330 -0.43400
O 	O 	0.18320 0.58590 0.37020 -0.39800
O 	O 	0.64030 0.88130 0.35500 -0.35800
O 	O 	0.05170 0.01180 0.09470 -0.42100
O 	O 	0.82080 0.05080 0.12370 -0.37200
O 	O 	0.87980 0.85470 0.33500 -0.35800
O 	O 	0.31440 0.97570 0.51910 -0.35000
O 	O 	0.84590 0.90140 0.03130 -0.38700
O 	O 	0.40610 0.95080 0.39720 -0.42400
O 	O 	0.95060 0.87750 0.17310 -0.37500
O 	O 	0.69300 0.92020 0.22280 -0.35100
O 	O 	0.05730 0.54910 0.23360 -0.38300
O 	O 	0.15310 0.93050 0.39200 -0.35800
O 	O 	0.93160 0.61250 0.33600 -0.36700
O 	O 	0.68520 0.72860 0.27260 -0.33000
O 	O 	0.32000 0.78980 0.46050 -0.41400
Fe	Fe	0.75420 0.07580 0.22050 1.31600
Fe	Fe	0.35040 0.64150 0.42740 1.22400
Fe	Fe	0.43500 0.97610 0.62770 1.26200
Fe	Fe	0.03520 0.89170 0.28930 1.26000
P 	P 	0.29890 0.91240 0.44110 0.55300
P 	P 	0.91670 0.96060 0.10630 0.56000
P 	P 	0.72710 0.84620 0.29580 0.53900
P 	P 	0.06190 0.62450 0.30440 0.55900
F 	F 	0.95020 0.04200 0.27750 -0.59100
F 	F 	0.28740 0.90980 0.67350 -0.60200
O 	O 	0.40970 0.24130 0.21670 -0.43300
O 	O 	0.31680 0.08590 0.12980 -0.39800
O 	O 	0.85970 0.38130 0.14500 -0.35800
O 	O 	0.44830 0.51180 0.40530 -0.42000
O 	O 	0.67920 0.55080 0.37630 -0.37000
O 	O 	0.62020 0.35470 0.16500 -0.36000
O 	O 	0.18560 0.47570 0.98090 -0.34900
O 	O 	0.65410 0.40140 0.46870 -0.38700
O 	O 	0.09390 0.45080 0.10280 -0.42500
O 	O 	0.54940 0.37750 0.32690 -0.37600
O 	O 	0.80700 0.42020 0.27720 -0.35100
O 	O 	0.44270 0.04910 0.26640 -0.38300
O 	O 	0.34690 0.43050 0.10800 -0.35800
O 	O 	0.56840 0.11250 0.16400 -0.36800
O 	O 	0.81480 0.22860 0.22740 -0.33000
O 	O 	0.18000 0.28980 0.03950 -0.41500
Fe	Fe	0.74580 0.57580 0.27950 1.31600
Fe	Fe	0.14960 0.14150 0.07260 1.22400
Fe	Fe	0.06500 0.47610 0.87230 1.26300
Fe	Fe	0.46480 0.39170 0.21070 1.26100
P 	P 	0.20110 0.41240 0.05890 0.55200
P 	P 	0.58330 0.46060 0.39370 0.55700
P 	P 	0.77290 0.34620 0.20420 0.53900
P 	P 	0.43810 0.12450 0.19560 0.55900
F 	F 	0.54980 0.54200 0.22250 -0.59000
F 	F 	0.21260 0.40980 0.82650 -0.60200
