data_crystal

_cell_length_a 14.99760
_cell_length_b 16.31810
_cell_length_c 19.69170
_cell_angle_alpha 98.36000
_cell_angle_beta  90.00000
_cell_angle_gamma 90.00000

_symmetry_space_group_name_	'P 1'
_symmetry_space_group_name_H-M	'P 1'

loop_
_symmetry_equiv_pos_as_xyz
  x,y,z

loop_
_atom_site_label
_atom_site_type_symbol
_atom_site_fract_x
_atom_site_fract_y
_atom_site_fract_z
_atom_site_charge
Ni	Ni	0.74339 0.87905 0.75686 1.05300
Ni	Ni	0.74432 0.37515 0.23925 1.05200
Ni	Ni	0.24339 0.12095 0.74314 1.05300
Ni	Ni	0.24432 0.62485 0.26075 1.05200
Ni	Ni	0.25661 0.12095 0.24314 1.05300
Ni	Ni	0.25568 0.62485 0.76075 1.05200
Ni	Ni	0.75661 0.87905 0.25686 1.05300
Ni	Ni	0.75568 0.37515 0.73925 1.05200
H 	H 	0.75770 0.00690 0.65760 -0.02000
H 	H 	0.76590 0.00900 0.54070 0.04700
H 	H 	0.76850 0.88330 0.46570 0.05500
H 	H 	0.76770 0.76270 0.62960 0.04500
H 	H 	0.77990 0.72720 0.44850 0.07300
H 	H 	0.78440 0.53020 0.54530 0.07300
H 	H 	0.77750 0.24880 0.33690 -0.02100
H 	H 	0.78210 0.24790 0.45360 0.04800
H 	H 	0.78340 0.37310 0.52800 0.05700
H 	H 	0.78740 0.49320 0.36310 0.04500
H 	H 	0.91860 0.82220 0.68630 0.00700
H 	H 	0.07020 0.82190 0.70960 0.04700
H 	H 	0.12330 0.87490 0.81790 0.01800
H 	H 	0.86920 0.93560 0.87270 0.00700
H 	H 	0.09090 0.93880 0.93910 0.03300
H 	H 	0.56660 0.33280 0.18010 -0.00600
H 	H 	0.41430 0.33600 0.20500 0.08600
H 	H 	0.36650 0.38200 0.31560 0.07900
H 	H 	0.62440 0.43610 0.36760 0.03300
H 	H 	0.40610 0.44480 0.43930 0.05400
H 	H 	0.57560 0.92660 0.83920 -0.01100
H 	H 	0.42340 0.92880 0.82760 0.04900
H 	H 	0.35610 0.87850 0.72340 0.01100
H 	H 	0.60280 0.82040 0.64820 0.02800
H 	H 	0.37830 0.81850 0.59510 0.02900
H 	H 	0.56320 0.69920 0.47360 0.05100
H 	H 	0.43130 0.58210 0.20970 0.00800
H 	H 	0.57830 0.59120 0.24490 0.09500
H 	H 	0.61130 0.64220 0.35760 0.06600
H 	H 	0.34810 0.68120 0.39200 0.00900
H 	H 	0.25770 0.99310 0.84240 -0.02100
H 	H 	0.26590 0.99100 0.95930 0.04600
H 	H 	0.26850 0.11670 0.03430 0.05500
H 	H 	0.26770 0.23730 0.87040 0.04500
H 	H 	0.27990 0.27280 0.05150 0.07300
H 	H 	0.28440 0.46980 0.95470 0.07200
H 	H 	0.27750 0.75120 0.16310 -0.02100
H 	H 	0.28210 0.75210 0.04640 0.04800
H 	H 	0.28340 0.62690 0.97200 0.05600
H 	H 	0.28740 0.50680 0.13690 0.04500
H 	H 	0.41860 0.17780 0.81370 0.00700
H 	H 	0.57020 0.17810 0.79040 0.04700
H 	H 	0.62330 0.12510 0.68210 0.01800
H 	H 	0.36920 0.06440 0.62730 0.00700
H 	H 	0.59090 0.06120 0.56090 0.03300
H 	H 	0.06660 0.66720 0.31990 -0.00600
H 	H 	0.91430 0.66400 0.29500 0.08600
H 	H 	0.86650 0.61800 0.18440 0.07900
H 	H 	0.12440 0.56390 0.13240 0.03300
H 	H 	0.90610 0.55520 0.06070 0.05400
H 	H 	0.07560 0.07340 0.66080 -0.01100
H 	H 	0.92340 0.07120 0.67240 0.04900
H 	H 	0.85610 0.12150 0.77660 0.01100
H 	H 	0.10280 0.17960 0.85180 0.02800
H 	H 	0.87830 0.18150 0.90490 0.02900
H 	H 	0.06320 0.30080 0.02640 0.05100
H 	H 	0.93130 0.41790 0.29030 0.00800
H 	H 	0.07830 0.40880 0.25510 0.09500
H 	H 	0.11130 0.35780 0.14240 0.06600
H 	H 	0.84810 0.31880 0.10800 0.00900
H 	H 	0.24230 0.99310 0.34240 -0.02100
H 	H 	0.23410 0.99100 0.45930 0.04600
H 	H 	0.23150 0.11670 0.53430 0.05500
H 	H 	0.23230 0.23730 0.37040 0.04500
H 	H 	0.22010 0.27280 0.55150 0.07300
H 	H 	0.21560 0.46980 0.45470 0.07300
H 	H 	0.22250 0.75120 0.66310 -0.02100
H 	H 	0.21790 0.75210 0.54640 0.04800
H 	H 	0.21660 0.62690 0.47200 0.05700
H 	H 	0.21260 0.50680 0.63690 0.04500
H 	H 	0.08140 0.17780 0.31370 0.00700
H 	H 	0.92980 0.17810 0.29040 0.04700
H 	H 	0.87670 0.12510 0.18210 0.01800
H 	H 	0.13080 0.06440 0.12730 0.00700
H 	H 	0.90910 0.06120 0.06090 0.03300
H 	H 	0.43340 0.66720 0.81990 -0.00600
H 	H 	0.58570 0.66400 0.79500 0.08600
H 	H 	0.63350 0.61800 0.68440 0.07900
H 	H 	0.37560 0.56390 0.63240 0.03300
H 	H 	0.59390 0.55520 0.56070 0.05400
H 	H 	0.42440 0.07340 0.16080 -0.01100
H 	H 	0.57660 0.07120 0.17240 0.04900
H 	H 	0.64390 0.12150 0.27660 0.01100
H 	H 	0.39720 0.17960 0.35180 0.02800
H 	H 	0.62170 0.18150 0.40490 0.02900
H 	H 	0.43680 0.30080 0.52640 0.05100
H 	H 	0.56870 0.41790 0.79030 0.00800
H 	H 	0.42170 0.40880 0.75510 0.09500
H 	H 	0.38870 0.35780 0.64240 0.06600
H 	H 	0.65190 0.31880 0.60800 0.00900
H 	H 	0.74230 0.00690 0.15760 -0.02100
H 	H 	0.73410 0.00900 0.04070 0.04600
H 	H 	0.73150 0.88330 0.96570 0.05500
H 	H 	0.73230 0.76270 0.12960 0.04500
H 	H 	0.72010 0.72720 0.94850 0.07300
H 	H 	0.71560 0.53020 0.04530 0.07200
H 	H 	0.72250 0.24880 0.83690 -0.02100
H 	H 	0.71790 0.24790 0.95360 0.04800
H 	H 	0.71660 0.37310 0.02800 0.05600
H 	H 	0.71260 0.49320 0.86310 0.04500
H 	H 	0.58140 0.82220 0.18630 0.00700
H 	H 	0.42980 0.82190 0.20960 0.04700
H 	H 	0.37670 0.87490 0.31790 0.01800
H 	H 	0.63080 0.93560 0.37270 0.00700
H 	H 	0.40910 0.93880 0.43910 0.03300
H 	H 	0.93340 0.33280 0.68010 -0.00600
H 	H 	0.08570 0.33600 0.70500 0.08600
H 	H 	0.13350 0.38200 0.81560 0.07900
H 	H 	0.87560 0.43610 0.86760 0.03300
H 	H 	0.09390 0.44480 0.93930 0.05400
H 	H 	0.92440 0.92660 0.33920 -0.01100
H 	H 	0.07660 0.92880 0.32760 0.04900
H 	H 	0.14390 0.87850 0.22340 0.01100
H 	H 	0.89720 0.82040 0.14820 0.02800
H 	H 	0.12170 0.81850 0.09510 0.02900
H 	H 	0.93680 0.69920 0.97360 0.05100
H 	H 	0.06870 0.58210 0.70970 0.00800
H 	H 	0.92170 0.59120 0.74490 0.09500
H 	H 	0.88870 0.64220 0.85760 0.06600
H 	H 	0.15190 0.68120 0.89200 0.00900
C 	C 	0.76090 0.95590 0.62740 0.04000
C 	C 	0.76470 0.95770 0.55810 -0.07100
C 	C 	0.76690 0.88360 0.51390 -0.04300
C 	C 	0.76670 0.81000 0.54090 0.01900
C 	C 	0.76550 0.81320 0.61090 -0.00400
C 	C 	0.76930 0.72940 0.49630 -0.00300
C 	C 	0.77680 0.52730 0.49710 0.00000
C 	C 	0.77930 0.30010 0.36670 0.04000
C 	C 	0.78140 0.29900 0.43600 -0.06800
C 	C 	0.78230 0.37260 0.47970 -0.03900
C 	C 	0.78170 0.44650 0.45210 0.02000
C 	C 	0.78350 0.44300 0.38200 -0.00300
C 	C 	0.93950 0.84630 0.73030 0.05200
C 	C 	0.02980 0.84500 0.74440 -0.08700
C 	C 	0.06150 0.87660 0.80770 -0.02200
C 	C 	0.00100 0.91140 0.85670 -0.01600
C 	C 	0.91080 0.91190 0.83910 0.02900
C 	C 	0.03090 0.94660 0.92600 0.02400
C 	C 	0.54740 0.35450 0.22510 0.05000
C 	C 	0.45620 0.35520 0.23990 -0.07100
C 	C 	0.42800 0.38350 0.30440 -0.02700
C 	C 	0.49060 0.41500 0.35440 0.00600
C 	C 	0.58110 0.41400 0.33480 0.02100
C 	C 	0.46620 0.45010 0.42530 0.01800
C 	C 	0.54990 0.90490 0.79620 0.05100
C 	C 	0.45900 0.90650 0.78950 -0.09400
C 	C 	0.41900 0.87660 0.72870 -0.02400
C 	C 	0.47360 0.84320 0.67470 -0.01700
C 	C 	0.56550 0.84330 0.68520 0.02500
C 	C 	0.43860 0.80910 0.60660 0.02100
C 	C 	0.50360 0.70360 0.45810 0.02400
C 	C 	0.44430 0.60500 0.25580 0.05900
C 	C 	0.53200 0.60930 0.27640 -0.08400
C 	C 	0.55120 0.63980 0.34220 -0.01200
C 	C 	0.48270 0.66770 0.38760 -0.00600
C 	C 	0.39570 0.66210 0.36200 0.02700
C 	C 	0.26090 0.04410 0.87260 0.04000
C 	C 	0.26470 0.04230 0.94190 -0.07000
C 	C 	0.26690 0.11640 0.98610 -0.04300
C 	C 	0.26670 0.19000 0.95910 0.01900
C 	C 	0.26550 0.18680 0.88910 -0.00400
C 	C 	0.26930 0.27060 0.00370 -0.00400
C 	C 	0.27680 0.47270 0.00290 0.00100
C 	C 	0.27930 0.69990 0.13330 0.04100
C 	C 	0.28140 0.70100 0.06400 -0.06800
C 	C 	0.28230 0.62740 0.02030 -0.03800
C 	C 	0.28170 0.55350 0.04790 0.02000
C 	C 	0.28350 0.55700 0.11800 -0.00300
C 	C 	0.43950 0.15370 0.76970 0.05200
C 	C 	0.52980 0.15500 0.75560 -0.08600
C 	C 	0.56150 0.12340 0.69230 -0.02200
C 	C 	0.50100 0.08860 0.64330 -0.01500
C 	C 	0.41080 0.08810 0.66090 0.02800
C 	C 	0.53090 0.05340 0.57400 0.02500
C 	C 	0.04740 0.64550 0.27490 0.05100
C 	C 	0.95620 0.64480 0.26010 -0.07200
C 	C 	0.92800 0.61650 0.19560 -0.02600
C 	C 	0.99060 0.58500 0.14560 0.00600
C 	C 	0.08110 0.58600 0.16520 0.02100
C 	C 	0.96620 0.54990 0.07470 0.01800
C 	C 	0.04990 0.09510 0.70380 0.05000
C 	C 	0.95900 0.09350 0.71050 -0.09300
C 	C 	0.91900 0.12340 0.77130 -0.02400
C 	C 	0.97360 0.15680 0.82530 -0.01600
C 	C 	0.06550 0.15670 0.81480 0.02400
C 	C 	0.93860 0.19090 0.89340 0.02100
C 	C 	0.00360 0.29640 0.04190 0.02500
C 	C 	0.94430 0.39500 0.24420 0.05800
C 	C 	0.03200 0.39070 0.22360 -0.08500
C 	C 	0.05120 0.36020 0.15780 -0.01100
C 	C 	0.98270 0.33230 0.11240 -0.00800
C 	C 	0.89570 0.33790 0.13800 0.02700
C 	C 	0.23910 0.04410 0.37260 0.04000
C 	C 	0.23530 0.04230 0.44190 -0.07100
C 	C 	0.23310 0.11640 0.48610 -0.04300
C 	C 	0.23330 0.19000 0.45910 0.01900
C 	C 	0.23450 0.18680 0.38910 -0.00400
C 	C 	0.23070 0.27060 0.50370 -0.00300
C 	C 	0.22320 0.47270 0.50290 0.00000
C 	C 	0.22070 0.69990 0.63330 0.04000
C 	C 	0.21860 0.70100 0.56400 -0.06800
C 	C 	0.21770 0.62740 0.52030 -0.03900
C 	C 	0.21830 0.55350 0.54790 0.02000
C 	C 	0.21650 0.55700 0.61800 -0.00300
C 	C 	0.06050 0.15370 0.26970 0.05200
C 	C 	0.97020 0.15500 0.25560 -0.08700
C 	C 	0.93850 0.12340 0.19230 -0.02200
C 	C 	0.99900 0.08860 0.14330 -0.01600
C 	C 	0.08920 0.08810 0.16090 0.02900
C 	C 	0.96910 0.05340 0.07400 0.02400
C 	C 	0.45260 0.64550 0.77490 0.05000
C 	C 	0.54380 0.64480 0.76010 -0.07100
C 	C 	0.57200 0.61650 0.69560 -0.02700
C 	C 	0.50940 0.58500 0.64560 0.00600
C 	C 	0.41890 0.58600 0.66520 0.02100
C 	C 	0.53380 0.54990 0.57470 0.01800
C 	C 	0.45010 0.09510 0.20380 0.05100
C 	C 	0.54100 0.09350 0.21050 -0.09400
C 	C 	0.58100 0.12340 0.27130 -0.02400
C 	C 	0.52640 0.15680 0.32530 -0.01700
C 	C 	0.43450 0.15670 0.31480 0.02500
C 	C 	0.56140 0.19090 0.39340 0.02100
C 	C 	0.49640 0.29640 0.54190 0.02400
C 	C 	0.55570 0.39500 0.74420 0.05900
C 	C 	0.46800 0.39070 0.72360 -0.08400
C 	C 	0.44880 0.36020 0.65780 -0.01200
C 	C 	0.51730 0.33230 0.61240 -0.00600
C 	C 	0.60430 0.33790 0.63800 0.02700
C 	C 	0.73910 0.95590 0.12740 0.04000
C 	C 	0.73530 0.95770 0.05810 -0.07000
C 	C 	0.73310 0.88360 0.01390 -0.04300
C 	C 	0.73330 0.81000 0.04090 0.01900
C 	C 	0.73450 0.81320 0.11090 -0.00400
C 	C 	0.73070 0.72940 0.99630 -0.00400
C 	C 	0.72320 0.52730 0.99710 0.00100
C 	C 	0.72070 0.30010 0.86670 0.04100
C 	C 	0.71860 0.29900 0.93600 -0.06800
C 	C 	0.71770 0.37260 0.97970 -0.03800
C 	C 	0.71830 0.44650 0.95210 0.02000
C 	C 	0.71650 0.44300 0.88200 -0.00300
C 	C 	0.56050 0.84630 0.23030 0.05200
C 	C 	0.47020 0.84500 0.24440 -0.08600
C 	C 	0.43850 0.87660 0.30770 -0.02200
C 	C 	0.49900 0.91140 0.35670 -0.01500
C 	C 	0.58920 0.91190 0.33910 0.02800
C 	C 	0.46910 0.94660 0.42600 0.02500
C 	C 	0.95260 0.35450 0.72510 0.05100
C 	C 	0.04380 0.35520 0.73990 -0.07200
C 	C 	0.07200 0.38350 0.80440 -0.02600
C 	C 	0.00940 0.41500 0.85440 0.00600
C 	C 	0.91890 0.41400 0.83480 0.02100
C 	C 	0.03380 0.45010 0.92530 0.01800
C 	C 	0.95010 0.90490 0.29620 0.05000
C 	C 	0.04100 0.90650 0.28950 -0.09300
C 	C 	0.08100 0.87660 0.22870 -0.02400
C 	C 	0.02640 0.84320 0.17470 -0.01600
C 	C 	0.93450 0.84330 0.18520 0.02400
C 	C 	0.06140 0.80910 0.10660 0.02100
C 	C 	0.99640 0.70360 0.95810 0.02500
C 	C 	0.05570 0.60500 0.75580 0.05800
C 	C 	0.96800 0.60930 0.77640 -0.08500
C 	C 	0.94880 0.63980 0.84220 -0.01100
C 	C 	0.01730 0.66770 0.88760 -0.00800
C 	C 	0.10430 0.66210 0.86200 0.02700
N 	N 	0.76130 0.88500 0.65420 -0.23200
N 	N 	0.75740 0.66260 0.52140 -0.07300
N 	N 	0.76220 0.59260 0.47110 -0.07300
N 	N 	0.77980 0.37070 0.33910 -0.23200
N 	N 	0.88090 0.88080 0.77730 -0.22600
N 	N 	0.97880 0.98660 0.96790 -0.08700
N 	N 	0.60790 0.38290 0.27130 -0.21800
N 	N 	0.52000 0.48660 0.46820 -0.07900
N 	N 	0.60370 0.87400 0.74480 -0.22600
N 	N 	0.48900 0.76740 0.56380 -0.08300
N 	N 	0.44820 0.73980 0.49960 -0.08500
N 	N 	0.37650 0.63130 0.29750 -0.22700
N 	N 	0.73760 0.74720 0.80790 0.05000
N 	N 	0.72050 0.50450 0.18710 0.05100
N 	N 	0.26130 0.11500 0.84580 -0.23200
N 	N 	0.25740 0.33740 0.97860 -0.07300
N 	N 	0.26220 0.40740 0.02890 -0.07300
N 	N 	0.27980 0.62930 0.16090 -0.23200
N 	N 	0.38090 0.11920 0.72270 -0.22600
N 	N 	0.47880 0.01340 0.53210 -0.08700
N 	N 	0.10790 0.61710 0.22870 -0.21900
N 	N 	0.02000 0.51340 0.03180 -0.07900
N 	N 	0.10370 0.12600 0.75520 -0.22600
N 	N 	0.98900 0.23260 0.93620 -0.08300
N 	N 	0.94820 0.26020 0.00040 -0.08600
N 	N 	0.87650 0.36870 0.20250 -0.22800
N 	N 	0.23760 0.25280 0.69210 0.05000
N 	N 	0.22050 0.49550 0.31290 0.05100
N 	N 	0.23870 0.11500 0.34580 -0.23200
N 	N 	0.24260 0.33740 0.47860 -0.07300
N 	N 	0.23780 0.40740 0.52890 -0.07300
N 	N 	0.22020 0.62930 0.66090 -0.23200
N 	N 	0.11910 0.11920 0.22270 -0.22600
N 	N 	0.02120 0.01340 0.03210 -0.08700
N 	N 	0.39210 0.61710 0.72870 -0.21800
N 	N 	0.48000 0.51340 0.53180 -0.07900
N 	N 	0.39630 0.12600 0.25520 -0.22600
N 	N 	0.51100 0.23260 0.43620 -0.08300
N 	N 	0.55180 0.26020 0.50040 -0.08500
N 	N 	0.62350 0.36870 0.70250 -0.22700
N 	N 	0.26240 0.25280 0.19210 0.05000
N 	N 	0.27950 0.49550 0.81290 0.05100
N 	N 	0.73870 0.88500 0.15420 -0.23200
N 	N 	0.74260 0.66260 0.02140 -0.07300
N 	N 	0.73780 0.59260 0.97110 -0.07300
N 	N 	0.72020 0.37070 0.83910 -0.23200
N 	N 	0.61910 0.88080 0.27730 -0.22600
N 	N 	0.52120 0.98660 0.46790 -0.08700
N 	N 	0.89210 0.38290 0.77130 -0.21900
N 	N 	0.98000 0.48660 0.96820 -0.07900
N 	N 	0.89630 0.87400 0.24480 -0.22600
N 	N 	0.01100 0.76740 0.06380 -0.08300
N 	N 	0.05180 0.73980 0.99960 -0.08600
N 	N 	0.12350 0.63130 0.79750 -0.22800
N 	N 	0.76240 0.74720 0.30790 0.05000
N 	N 	0.77950 0.50450 0.68710 0.05100
O 	O 	0.72740 0.81790 0.84524 -0.27400
O 	O 	0.74920 0.74980 0.74412 -0.25600
O 	O 	0.73700 0.68240 0.83150 -0.11900
O 	O 	0.74840 0.50460 0.24800 -0.25500
O 	O 	0.70680 0.43370 0.15274 -0.27100
O 	O 	0.70750 0.56900 0.16320 -0.11800
O 	O 	0.22740 0.18210 0.65476 -0.27400
O 	O 	0.24920 0.25020 0.75588 -0.25600
O 	O 	0.23700 0.31760 0.66850 -0.11900
O 	O 	0.24840 0.49540 0.25200 -0.25500
O 	O 	0.20680 0.56630 0.34726 -0.27100
O 	O 	0.20750 0.43100 0.33680 -0.11800
O 	O 	0.27260 0.18210 0.15476 -0.27400
O 	O 	0.25080 0.25020 0.25588 -0.25600
O 	O 	0.26300 0.31760 0.16850 -0.11900
O 	O 	0.25160 0.49540 0.75200 -0.25500
O 	O 	0.29320 0.56630 0.84726 -0.27100
O 	O 	0.29250 0.43100 0.83680 -0.11800
O 	O 	0.77260 0.81790 0.34524 -0.27400
O 	O 	0.75080 0.74980 0.24412 -0.25600
O 	O 	0.76300 0.68240 0.33150 -0.11900
O 	O 	0.75160 0.50460 0.74800 -0.25500
O 	O 	0.79320 0.43370 0.65274 -0.27100
O 	O 	0.79250 0.56900 0.66320 -0.11800
