data_crystal

_cell_length_a 13.45500
_cell_length_b 13.56400
_cell_length_c 9.70000
_cell_angle_alpha 90.00000
_cell_angle_beta  90.00000
_cell_angle_gamma 90.00000

_symmetry_space_group_name_	'P 1'
_symmetry_space_group_name_H-M	'P 1'

loop_
_symmetry_equiv_pos_as_xyz
  x,y,z

loop_
_atom_site_label
_atom_site_type_symbol
_atom_site_fract_x
_atom_site_fract_y
_atom_site_fract_z
_atom_site_charge
O 	O 	0.13940 0.44750 0.11880 -0.40400
O 	O 	0.14770 0.47690 0.89040 -0.33800
O 	O 	0.44750 0.13940 0.88120 -0.33200
O 	O 	0.47690 0.14770 0.10960 -0.36600
C 	C 	0.18510 0.45080 0.00430 0.26400
C 	C 	0.29510 0.42120 0.00380 0.61500
C 	C 	0.34420 0.48480 0.13510 -0.26300
C 	C 	0.31130 0.30630 0.05210 -0.29000
C 	C 	0.35190 0.43190 0.87770 4.01900
C 	C 	0.24280 0.24470 0.95620 0.27300
C 	C 	0.43530 0.35240 0.87590 -2.24300
C 	C 	0.28920 0.27420 0.19870 0.59100
C 	C 	0.45080 0.18510 0.99570 0.04700
C 	C 	0.42120 0.29510 0.99620 1.10600
H 	H 	0.33527 0.55408 0.11911 0.06200
H 	H 	0.41385 0.47026 0.14197 -0.08900
H 	H 	0.30860 0.42289 0.79875 -1.16100
H 	H 	0.38136 0.49712 0.87413 -0.77500
H 	H 	0.26230 0.25464 0.86202 -0.17700
H 	H 	0.24879 0.17612 0.97922 0.00000
H 	H 	0.42953 0.31147 0.79429 -2.40300
H 	H 	0.33030 0.31080 0.26135 -0.18200
H 	H 	0.22049 0.28648 0.21909 -0.11800
H 	H 	0.30288 0.20506 0.20813 -0.07600
H 	H 	0.46343 0.32577 0.06647 -0.60500
H 	H 	0.48687 0.41457 0.87511 -0.48700
H 	H 	0.17625 0.26272 0.04195 -0.01500
H 	H 	0.31097 0.42996 0.20560 0.34100
C 	C 	0.50245 0.08359 0.41943 -0.00200
H 	H 	0.50439 0.14996 0.36582 0.01600
C 	C 	0.50245 0.08359 0.55446 0.00700
H 	H 	0.49561 0.85004 0.60805 -0.01400
C 	C 	0.48480 0.34420 0.86490 0.52600
C 	C 	0.30630 0.31130 0.94790 -0.52100
C 	C 	0.24470 0.24280 0.04380 0.27000
C 	C 	0.35240 0.43530 0.12410 -0.56500
C 	C 	0.27420 0.28920 0.80130 0.53600
C 	C 	0.43190 0.35190 0.12230 0.62300
H 	H 	0.32622 0.46294 0.93353 -1.84700
H 	H 	0.31153 0.46640 0.21924 -0.09100
H 	H 	0.50022 0.38348 0.87729 0.74600
H 	H 	0.45263 0.32765 0.77964 2.90000
H 	H 	0.38413 0.49950 0.12261 0.46600
H 	H 	0.17513 0.26540 0.96831 -0.05300
H 	H 	0.26969 0.24756 0.13626 -0.26900
H 	H 	0.25025 0.17595 0.01221 -0.05700
H 	H 	0.42241 0.30912 0.20135 -0.15900
H 	H 	0.49783 0.38070 0.12599 -0.03300
H 	H 	0.20489 0.30429 0.79101 -0.08900
H 	H 	0.31236 0.32872 0.73853 0.00500
H 	H 	0.28510 0.22065 0.78187 -0.04200
H 	H 	0.55126 0.31846 0.86485 -0.29200
O 	O 	0.86060 0.55250 0.11880 -0.49500
O 	O 	0.85230 0.52310 0.89040 -0.40700
O 	O 	0.55250 0.86060 0.88120 -0.28300
O 	O 	0.52310 0.85230 0.10960 -0.32100
C 	C 	0.81490 0.54920 0.00430 0.27300
C 	C 	0.70490 0.57880 0.00380 0.58300
C 	C 	0.65580 0.51520 0.13510 -0.25000
C 	C 	0.68870 0.69370 0.05210 -0.32500
C 	C 	0.64810 0.56810 0.87770 4.10900
C 	C 	0.75720 0.75530 0.95620 0.39900
C 	C 	0.56470 0.64760 0.87590 -2.29900
C 	C 	0.71080 0.72580 0.19870 0.71200
C 	C 	0.54920 0.81490 0.99570 0.02800
C 	C 	0.57880 0.70490 0.99620 1.13400
H 	H 	0.66473 0.44592 0.11911 0.06600
H 	H 	0.58615 0.52974 0.14197 -0.08600
H 	H 	0.69140 0.57711 0.79875 -1.19700
H 	H 	0.61864 0.50288 0.87413 -0.79600
H 	H 	0.73770 0.74536 0.86202 -0.12800
H 	H 	0.75121 0.82388 0.97922 0.04600
H 	H 	0.57047 0.68853 0.79429 -2.45900
H 	H 	0.66970 0.68920 0.26135 -0.22300
H 	H 	0.77951 0.71352 0.21909 -0.17400
H 	H 	0.69712 0.79494 0.20813 -0.11100
H 	H 	0.53657 0.67423 0.06647 -0.60400
H 	H 	0.51313 0.58543 0.87511 -0.50700
H 	H 	0.82375 0.73728 0.04195 0.01900
H 	H 	0.68903 0.57004 0.20560 0.33400
C 	C 	0.49755 0.91641 0.41943 0.09100
H 	H 	0.49561 0.85004 0.36582 0.00400
C 	C 	0.49755 0.91641 0.55446 0.09600
H 	H 	0.50439 0.14996 0.60805 -0.00300
C 	C 	0.51520 0.65580 0.86490 0.53900
C 	C 	0.69370 0.68870 0.94790 -0.47000
C 	C 	0.75530 0.75720 0.04380 0.12900
C 	C 	0.64760 0.56470 0.12410 -0.54000
C 	C 	0.72580 0.71080 0.80130 0.25800
C 	C 	0.56810 0.64810 0.12230 0.59900
H 	H 	0.67378 0.53706 0.93353 -1.86700
H 	H 	0.68847 0.53360 0.21924 -0.09700
H 	H 	0.49978 0.61652 0.87729 0.77100
H 	H 	0.54737 0.67235 0.77964 2.96600
H 	H 	0.61587 0.50050 0.12261 0.44800
H 	H 	0.82487 0.73460 0.96831 -0.12600
H 	H 	0.73031 0.75244 0.13626 -0.26000
H 	H 	0.74975 0.82405 0.01221 -0.12000
H 	H 	0.57759 0.69088 0.20135 -0.15000
H 	H 	0.50217 0.61930 0.12599 -0.02800
H 	H 	0.79511 0.69571 0.79101 -0.03600
H 	H 	0.68764 0.67128 0.73853 0.09400
H 	H 	0.71490 0.77935 0.78187 0.02400
H 	H 	0.44874 0.68154 0.86485 -0.30200
O 	O 	0.36060 0.94750 0.88120 -0.35400
O 	O 	0.35230 0.97690 0.10960 -0.21600
O 	O 	0.05250 0.63940 0.11880 -0.21200
O 	O 	0.02310 0.64770 0.89040 -0.21400
C 	C 	0.31490 0.95080 0.99570 0.14000
C 	C 	0.20490 0.92120 0.99620 1.22700
C 	C 	0.15580 0.98480 0.86490 -0.65200
C 	C 	0.18870 0.80630 0.94790 -0.56800
C 	C 	0.14810 0.93190 0.12230 6.58000
C 	C 	0.25720 0.74470 0.04380 0.50700
C 	C 	0.06470 0.85240 0.12410 -3.30400
C 	C 	0.21080 0.77420 0.80130 0.44200
C 	C 	0.04920 0.68510 0.00430 -0.14000
C 	C 	0.07880 0.79510 0.00380 1.92600
H 	H 	0.16473 0.05408 0.88089 0.00700
H 	H 	0.08615 0.97026 0.85803 -0.31000
H 	H 	0.19140 0.92289 0.20125 -1.91000
H 	H 	0.11864 0.99712 0.12587 -1.15400
H 	H 	0.23770 0.75464 0.13798 0.03400
H 	H 	0.25121 0.67612 0.02078 -0.00900
H 	H 	0.07047 0.81147 0.20571 -2.03100
H 	H 	0.16970 0.81080 0.73865 -0.10100
H 	H 	0.27951 0.78648 0.78091 -0.09700
H 	H 	0.19712 0.70506 0.79187 -0.04200
H 	H 	0.03657 0.82577 0.93353 -1.39300
H 	H 	0.01313 0.91457 0.12489 -1.40200
H 	H 	0.32375 0.76272 0.95805 -0.02100
H 	H 	0.18903 0.92996 0.79440 0.51900
C 	C 	0.99755 0.58359 0.58057 -0.13000
H 	H 	0.99561 0.64996 0.63418 -0.00500
C 	C 	0.99755 0.58359 0.44554 -0.12600
H 	H 	0.00439 0.35004 0.39195 0.04800
C 	C 	0.01520 0.84420 0.13510 -0.09900
C 	C 	0.19370 0.81130 0.05210 -0.85000
C 	C 	0.25530 0.74280 0.95620 0.28300
C 	C 	0.14760 0.93530 0.87590 -1.09800
C 	C 	0.22580 0.78920 0.19870 -0.10100
C 	C 	0.06810 0.85190 0.87770 1.85900
H 	H 	0.17378 0.96294 0.06647 -3.11100
H 	H 	0.18847 0.96640 0.78076 0.00400
H 	H 	0.99978 0.88348 0.12271 2.24500
H 	H 	0.04737 0.82765 0.22036 3.00400
H 	H 	0.11587 0.99950 0.87739 1.15600
H 	H 	0.32487 0.76540 0.03169 -0.15300
H 	H 	0.23031 0.74756 0.86374 -0.17300
H 	H 	0.24975 0.67595 0.98779 -0.14300
H 	H 	0.07759 0.80912 0.79865 -0.50200
H 	H 	0.00217 0.88070 0.87401 -0.14000
H 	H 	0.29511 0.80429 0.20899 0.08800
H 	H 	0.18764 0.82872 0.26147 0.25300
H 	H 	0.21490 0.72065 0.21813 0.07500
H 	H 	0.94874 0.81846 0.13515 -0.40000
O 	O 	0.63940 0.05250 0.88120 -0.48700
O 	O 	0.64770 0.02310 0.10960 -0.46800
O 	O 	0.94750 0.36060 0.11880 -0.45200
O 	O 	0.97690 0.35230 0.89040 -0.51600
C 	C 	0.68510 0.04920 0.99570 0.36200
C 	C 	0.79510 0.07880 0.99620 0.03900
C 	C 	0.84420 0.01520 0.86490 0.09200
C 	C 	0.81130 0.19370 0.94790 -0.06900
C 	C 	0.85190 0.06810 0.12230 1.68400
C 	C 	0.74280 0.25530 0.04380 0.16500
C 	C 	0.93530 0.14760 0.12410 -1.28900
C 	C 	0.78920 0.22580 0.80130 0.82400
C 	C 	0.95080 0.31490 0.00430 0.22700
C 	C 	0.92120 0.20490 0.00380 0.35500
H 	H 	0.83527 0.94592 0.88089 0.11400
H 	H 	0.91385 0.02974 0.85803 0.10700
H 	H 	0.80860 0.07711 0.20125 -0.48600
H 	H 	0.88136 0.00288 0.12587 -0.43500
H 	H 	0.76230 0.24536 0.13798 -0.33000
H 	H 	0.74879 0.32388 0.02078 0.04700
H 	H 	0.92953 0.18853 0.20571 -2.79400
H 	H 	0.83030 0.18920 0.73865 -0.28900
H 	H 	0.72049 0.21352 0.78091 -0.18400
H 	H 	0.80288 0.29494 0.79187 -0.14000
H 	H 	0.96343 0.17423 0.93353 0.10700
H 	H 	0.98687 0.08543 0.12489 0.35700
H 	H 	0.67625 0.23728 0.95805 0.01800
H 	H 	0.81097 0.07004 0.79440 0.17900
C 	C 	0.00245 0.41641 0.58057 0.04600
H 	H 	0.00439 0.35004 0.63418 0.05700
C 	C 	0.00245 0.41641 0.44554 0.04700
H 	H 	0.99561 0.64996 0.39195 -0.03300
C 	C 	0.98480 0.15580 0.13510 1.12200
C 	C 	0.80630 0.18870 0.05210 -0.16800
C 	C 	0.74470 0.25720 0.95620 0.13600
C 	C 	0.85240 0.06470 0.87590 -0.07500
C 	C 	0.77420 0.21080 0.19870 0.88500
C 	C 	0.93190 0.14810 0.87770 -0.48300
H 	H 	0.82622 0.03706 0.06647 -0.68300
H 	H 	0.81153 0.03360 0.78076 -0.18200
H 	H 	0.00022 0.11652 0.12271 -0.64200
H 	H 	0.95263 0.17235 0.22036 2.85000
H 	H 	0.88413 0.00050 0.87739 -0.16400
H 	H 	0.67513 0.23460 0.03169 -0.02400
H 	H 	0.76969 0.25244 0.86374 -0.34400
H 	H 	0.75025 0.32405 0.98779 -0.03300
H 	H 	0.92241 0.19088 0.79865 0.14700
H 	H 	0.99783 0.11930 0.87401 0.05300
H 	H 	0.70489 0.19571 0.20899 -0.20700
H 	H 	0.81236 0.17128 0.26147 -0.14800
H 	H 	0.78510 0.27935 0.21813 -0.09500
H 	H 	0.05126 0.18154 0.13515 -0.19700
Zn	Zn	0.50000 0.00000 0.84593 1.17200
Zn	Zn	0.50000 0.00000 0.14538 1.17500
N 	N 	0.50000 0.00000 0.62197 -0.28200
N 	N 	0.50000 0.00000 0.35191 -0.29700
Zn	Zn	-0.00000 0.50000 0.15407 1.25200
Zn	Zn	-0.00000 0.50000 0.85462 1.24800
N 	N 	0.00000 0.50000 0.37803 -0.10000
N 	N 	0.00000 0.50000 0.64809 -0.12000
