data_crystal

_cell_length_a 7.10700
_cell_length_b 7.22340
_cell_length_c 9.20500
_cell_angle_alpha 95.37700
_cell_angle_beta  91.25600
_cell_angle_gamma 114.89300

_symmetry_space_group_name_	'P 1'
_symmetry_space_group_name_H-M	'P 1'

loop_
_symmetry_equiv_pos_as_xyz
  x,y,z

loop_
_atom_site_label
_atom_site_type_symbol
_atom_site_fract_x
_atom_site_fract_y
_atom_site_fract_z
_atom_site_charge
U 	U 	0.50000 0.50000 0.50000 -0.02300
Cu	Cu	-0.00000 0.00000 0.50000 0.81200
H 	H 	0.28860 0.43140 0.97320 0.03900
H 	H 	0.71140 0.56860 0.02680 0.10200
C 	C 	0.04140 0.43280 0.86239 -0.13400
C 	C 	0.09380 0.35510 0.71816 0.34900
C 	C 	0.86780 0.47530 0.87764 0.06200
C 	C 	0.17250 0.45850 0.98397 0.04800
C 	C 	0.72990 0.46090 0.74862 0.23900
C 	C 	0.95860 0.56720 0.13761 0.07000
C 	C 	0.90620 0.64490 0.28184 0.29400
C 	C 	0.13220 0.52470 0.12236 -0.12000
C 	C 	0.82750 0.54150 0.01603 -0.07400
C 	C 	0.27010 0.53910 0.25138 0.29000
O 	O 	0.22210 0.48518 0.64632 -0.22400
O 	O 	0.76030 0.40070 0.62212 -0.18800
O 	O 	0.01020 0.16313 0.68625 -0.44300
O 	O 	0.58430 0.51730 0.76575 -0.18500
O 	O 	0.77790 0.51482 0.35368 -0.20100
O 	O 	0.23970 0.59930 0.37788 -0.21100
O 	O 	0.98980 0.83687 0.31375 -0.28600
O 	O 	0.41570 0.48270 0.23425 -0.21600
