data_crystal

_cell_length_a 7.11620
_cell_length_b 7.23530
_cell_length_c 9.21390
_cell_angle_alpha 95.36100
_cell_angle_beta  91.21900
_cell_angle_gamma 114.92900

_symmetry_space_group_name_	'P 1'
_symmetry_space_group_name_H-M	'P 1'

loop_
_symmetry_equiv_pos_as_xyz
  x,y,z

loop_
_atom_site_label
_atom_site_type_symbol
_atom_site_fract_x
_atom_site_fract_y
_atom_site_fract_z
_atom_site_charge
O 	O 	0.77770 0.01530 0.35410 -0.18900
O 	O 	0.23960 0.09950 0.37800 -0.23400
O 	O 	0.41570 0.98320 0.23430 -0.22800
O 	O 	0.98950 0.33670 0.31370 -0.32300
C 	C 	0.27110 0.04010 0.25080 0.30900
C 	C 	0.13230 0.02410 0.12220 -0.15700
C 	C 	0.17240 0.95850 0.98450 0.06200
H 	H 	0.28850 0.93160 0.97390 0.03400
C 	C 	0.95840 0.06760 0.13750 0.11000
C 	C 	0.90630 0.14490 0.28250 0.29100
O 	O 	0.22230 0.98470 0.64590 -0.24700
O 	O 	0.76040 0.90050 0.62200 -0.16900
O 	O 	0.58430 0.01680 0.76570 -0.17500
O 	O 	0.01050 0.66330 0.68630 -0.42100
C 	C 	0.72890 0.95990 0.74920 0.21400
C 	C 	0.86770 0.97590 0.87780 0.09400
C 	C 	0.82760 0.04150 0.01550 -0.08800
H 	H 	0.71150 0.06840 0.02610 0.10500
C 	C 	0.04160 0.93240 0.86250 -0.17200
C 	C 	0.09370 0.85510 0.71750 0.35500
U 	U 	0.50000 0.00000 0.50000 -0.01900
Cu	Cu	0.00000 0.50000 0.50000 0.84800
