data_crystal

_cell_length_a 11.57330
_cell_length_b 14.60660
_cell_length_c 14.60660
_cell_angle_alpha 66.71110
_cell_angle_beta  74.68580
_cell_angle_gamma 105.31400

_symmetry_space_group_name_	'P 1'
_symmetry_space_group_name_H-M	'P 1'

loop_
_symmetry_equiv_pos_as_xyz
  x,y,z

loop_
_atom_site_label
_atom_site_type_symbol
_atom_site_fract_x
_atom_site_fract_y
_atom_site_fract_z
_atom_site_charge
Cu	Cu	0.08442 0.88186 0.51668 0.86400
Cu	Cu	0.60110 0.51668 0.60146 0.85200
Cu	Cu	0.20256 0.60146 0.88186 0.84500
Cu	Cu	0.60110 0.39854 0.48332 0.85400
Cu	Cu	0.20256 0.11814 0.39854 0.86000
Cu	Cu	0.08442 0.48332 0.11814 0.86900
Cu	Cu	0.91586 1.00000 0.40469 0.78400
Cu	Cu	0.32055 0.40469 0.59531 0.81000
Cu	Cu	0.91586 0.59531 -0.00000 0.79600
H 	H 	0.66150 0.85940 0.41880 0.09200
H 	H 	0.55110 0.74880 0.52720 0.12700
H 	H 	0.62380 0.74520 0.41980 0.10400
H 	H 	0.82650 0.54850 0.70790 0.11200
H 	H 	0.97710 0.62930 0.62490 0.11100
H 	H 	0.88980 0.54910 0.59600 0.12500
H 	H 	0.08030 0.41880 0.72180 0.11400
H 	H 	0.07830 0.52720 0.72400 0.14800
H 	H 	0.04360 0.41980 0.83500 0.12100
H 	H 	0.53440 0.70790 0.74360 0.12100
H 	H 	0.60200 0.62490 0.74580 0.13400
H 	H 	0.48580 0.59600 0.85490 0.13300
H 	H 	0.80210 0.72180 0.85940 0.05800
H 	H 	0.80230 0.72400 0.74880 0.09700
H 	H 	0.87860 0.83500 0.74520 0.06300
H 	H 	0.27800 0.74360 0.54850 0.13400
H 	H 	0.34780 0.74580 0.62930 0.13900
H 	H 	0.34070 0.85490 0.54910 0.14200
H 	H 	0.08030 0.27820 0.58120 0.11700
H 	H 	0.07830 0.27600 0.47280 0.15200
H 	H 	0.04360 0.16500 0.58020 0.13000
H 	H 	0.53440 0.25640 0.29210 0.13200
H 	H 	0.60200 0.25420 0.37510 0.14100
H 	H 	0.48580 0.14510 0.40400 0.14800
H 	H 	0.80210 0.14060 0.27820 0.07700
H 	H 	0.80230 0.25120 0.27600 0.10700
H 	H 	0.87860 0.25480 0.16500 0.08000
H 	H 	0.27800 0.45150 0.25640 0.13800
H 	H 	0.34780 0.37070 0.25420 0.14500
H 	H 	0.34070 0.45090 0.14510 0.15300
H 	H 	0.66150 0.58120 0.14060 0.10000
H 	H 	0.55110 0.47280 0.25120 0.13100
H 	H 	0.62380 0.58020 0.25480 0.10700
H 	H 	0.82650 0.29210 0.45150 0.11500
H 	H 	0.97710 0.37510 0.37070 0.11200
H 	H 	0.88980 0.40400 0.45090 0.12600
H 	H 	0.13290 0.00000 0.32990 0.24200
H 	H 	0.46280 0.32990 0.67010 0.22100
H 	H 	0.13290 0.67010 -0.00000 0.22800
C 	C 	0.63470 0.78040 0.46370 -0.49800
C 	C 	0.73810 0.76190 0.50220 0.17400
C 	C 	0.84660 0.68130 0.57340 0.17700
C 	C 	0.88870 0.59460 0.63040 -0.50300
C 	C 	0.09840 0.46370 0.75590 -0.53000
C 	C 	0.24030 0.50220 0.73590 0.18700
C 	C 	0.42000 0.57340 0.74530 0.18400
C 	C 	0.51910 0.63040 0.77500 -0.52300
C 	C 	0.85430 0.75590 0.78040 -0.40600
C 	C 	0.97620 0.73590 0.76190 0.07600
C 	C 	0.16530 0.74530 0.68130 0.19700
C 	C 	0.29410 0.77500 0.59460 -0.54000
C 	C 	0.09840 0.24410 0.53630 -0.53800
C 	C 	0.24030 0.26410 0.49780 0.19200
C 	C 	0.42000 0.25470 0.42660 0.19300
C 	C 	0.51910 0.22500 0.36960 -0.54200
C 	C 	0.85430 0.21960 0.24410 -0.43000
C 	C 	0.97620 0.23810 0.26410 0.08700
C 	C 	0.16530 0.31870 0.25470 0.20400
C 	C 	0.29410 0.40540 0.22500 -0.55100
C 	C 	0.63470 0.53630 0.21960 -0.50600
C 	C 	0.73810 0.49780 0.23810 0.17800
C 	C 	0.84660 0.42660 0.31870 0.17800
C 	C 	0.88870 0.36960 0.40540 -0.50600
N 	N 	0.84390 0.83740 0.48440 -0.26800
N 	N 	0.91510 0.78810 0.53080 -0.26000
N 	N 	0.73320 0.66040 0.55820 -0.29200
N 	N 	0.32830 0.48440 0.67820 -0.26300
N 	N 	0.44590 0.53080 0.68110 -0.24800
N 	N 	0.29140 0.55820 0.78140 -0.29600
N 	N 	0.00650 0.67820 0.83740 -0.22100
N 	N 	0.12700 0.68110 0.78810 -0.25000
N 	N 	0.07280 0.78140 0.66040 -0.25600
N 	N 	0.32830 0.32180 0.51560 -0.26300
N 	N 	0.44590 0.31890 0.46920 -0.24900
N 	N 	0.29140 0.21860 0.44180 -0.29500
N 	N 	0.00650 0.16260 0.32180 -0.21200
N 	N 	0.12700 0.21190 0.31890 -0.24600
N 	N 	0.07280 0.33960 0.21860 -0.25600
N 	N 	0.84390 0.51560 0.16260 -0.26700
N 	N 	0.91510 0.46920 0.21190 -0.26000
N 	N 	0.73320 0.44180 0.33960 -0.29200
O 	O 	0.08925 1.00000 0.38645 -0.77800
O 	O 	0.24110 -0.00000 0.48260 -0.48600
O 	O 	0.47570 0.38645 0.61355 -0.77800
O 	O 	0.72370 0.48260 0.51740 -0.50200
O 	O 	0.08925 0.61355 -0.00000 -0.74900
O 	O 	0.24110 0.51740 -0.00000 -0.47800
