data_crystal

_cell_length_a 8.63000
_cell_length_b 13.51450
_cell_length_c 13.51450
_cell_angle_alpha 94.88800
_cell_angle_beta  96.88520
_cell_angle_gamma 96.88520

_symmetry_space_group_name_	'P 1'
_symmetry_space_group_name_H-M	'P 1'

loop_
_symmetry_equiv_pos_as_xyz
  x,y,z

loop_
_atom_site_label
_atom_site_type_symbol
_atom_site_fract_x
_atom_site_fract_y
_atom_site_fract_z
_atom_site_charge
Ni	Ni	0.75000 0.67556 0.32444 1.06500
H 	H 	0.50320 0.60520 0.13680 -0.01700
H 	H 	0.48500 0.60040 0.96320 0.08700
H 	H 	0.92990 0.74540 0.99480 0.07700
H 	H 	0.93860 0.74610 0.16870 -0.01500
H 	H 	0.67150 0.59850 0.81970 0.09600
H 	H 	0.61170 0.70230 0.82270 0.09900
H 	H 	0.90210 0.57220 0.49880 -0.00700
H 	H 	0.91740 0.57270 0.67230 0.07500
H 	H 	0.70500 0.82610 0.67650 0.07200
H 	H 	0.67740 0.80890 0.50130 -0.01300
H 	H 	0.92260 0.67440 0.83140 0.05300
H 	H 	0.86220 0.77800 0.83360 0.05300
H 	H 	0.99680 0.86320 0.39480 -0.01600
H 	H 	0.01500 0.03680 0.39960 0.08700
H 	H 	0.57010 0.00520 0.25460 0.07900
H 	H 	0.56140 0.83130 0.25390 -0.01600
H 	H 	0.82850 0.18030 0.40150 0.09600
H 	H 	0.88830 0.17730 0.29770 0.09900
H 	H 	0.59790 0.50120 0.42780 -0.00700
H 	H 	0.58260 0.32770 0.42730 0.07500
H 	H 	0.79500 0.32350 0.17390 0.07200
H 	H 	0.82260 0.49870 0.19110 -0.01300
H 	H 	0.57740 0.16860 0.32560 0.05300
H 	H 	0.63780 0.16640 0.22200 0.05300
C 	C 	0.59200 0.63410 0.10730 0.09400
C 	C 	0.57900 0.63160 0.00420 -0.18600
C 	C 	0.70400 0.67230 0.95990 0.13900
C 	C 	0.84100 0.71400 0.02280 -0.17000
C 	C 	0.84400 0.71400 0.12480 0.09000
C 	C 	0.69400 0.66780 0.84700 -0.22000
C 	C 	0.85500 0.62320 0.53600 0.08300
C 	C 	0.86800 0.62650 0.63870 -0.14700
C 	C 	0.81500 0.70270 0.69330 0.10200
C 	C 	0.74600 0.77110 0.64190 -0.16200
C 	C 	0.73100 0.76090 0.53790 0.08100
C 	C 	0.83300 0.70890 0.80650 -0.10900
C 	C 	0.38300 0.65270 0.34710 0.17200
C 	C 	0.90800 0.89270 0.36590 0.09400
C 	C 	0.92100 0.99580 0.36840 -0.18500
C 	C 	0.79600 0.04010 0.32770 0.13900
C 	C 	0.65900 0.97720 0.28600 -0.17200
C 	C 	0.65600 0.87520 0.28600 0.09100
C 	C 	0.80600 0.15300 0.33220 -0.22000
C 	C 	0.64500 0.46400 0.37680 0.08300
C 	C 	0.63200 0.36130 0.37350 -0.14700
C 	C 	0.68500 0.30670 0.29730 0.10200
C 	C 	0.75400 0.35810 0.22890 -0.16200
C 	C 	0.76900 0.46210 0.23910 0.08100
C 	C 	0.66700 0.19350 0.29110 -0.10900
C 	C 	0.11700 0.65290 0.34730 0.17100
N 	N 	0.72440 0.67320 0.16800 -0.24700
N 	N 	0.78300 0.68790 0.48450 -0.24000
N 	N 	0.51050 0.66840 0.33060 -0.27600
N 	N 	0.77560 0.83200 0.32680 -0.24700
N 	N 	0.71700 0.51550 0.31210 -0.24000
N 	N 	0.98950 0.66940 0.33160 -0.27500
N 	N 	0.25000 0.62430 0.37570 -0.19500
Ni	Ni	0.25000 0.32444 0.67556 1.06500
H 	H 	0.49680 0.39480 0.86320 -0.01700
H 	H 	0.51500 0.39960 0.03680 0.08700
H 	H 	0.07010 0.25460 0.00520 0.07700
H 	H 	0.06140 0.25390 0.83130 -0.01500
H 	H 	0.32850 0.40150 0.18030 0.09600
H 	H 	0.38830 0.29770 0.17730 0.09900
H 	H 	0.09790 0.42780 0.50120 -0.00700
H 	H 	0.08260 0.42730 0.32770 0.07500
H 	H 	0.29500 0.17390 0.32350 0.07200
H 	H 	0.32260 0.19110 0.49870 -0.01300
H 	H 	0.07740 0.32560 0.16860 0.05300
H 	H 	0.13780 0.22200 0.16640 0.05300
H 	H 	0.00320 0.13680 0.60520 -0.01600
H 	H 	0.98500 0.96320 0.60040 0.08700
H 	H 	0.42990 0.99480 0.74540 0.07900
H 	H 	0.43860 0.16870 0.74610 -0.01600
H 	H 	0.17150 0.81970 0.59850 0.09600
H 	H 	0.11170 0.82270 0.70230 0.09900
H 	H 	0.40210 0.49880 0.57220 -0.00700
H 	H 	0.41740 0.67230 0.57270 0.07500
H 	H 	0.20500 0.67650 0.82610 0.07200
H 	H 	0.17740 0.50130 0.80890 -0.01300
H 	H 	0.42260 0.83140 0.67440 0.05300
H 	H 	0.36220 0.83360 0.77800 0.05300
C 	C 	0.40800 0.36590 0.89270 0.09400
C 	C 	0.42100 0.36840 0.99580 -0.18600
C 	C 	0.29600 0.32770 0.04010 0.13900
C 	C 	0.15900 0.28600 0.97720 -0.17000
C 	C 	0.15600 0.28600 0.87520 0.09000
C 	C 	0.30600 0.33220 0.15300 -0.22000
C 	C 	0.14500 0.37680 0.46400 0.08300
C 	C 	0.13200 0.37350 0.36130 -0.14700
C 	C 	0.18500 0.29730 0.30670 0.10200
C 	C 	0.25400 0.22890 0.35810 -0.16200
C 	C 	0.26900 0.23910 0.46210 0.08100
C 	C 	0.16700 0.29110 0.19350 -0.10900
C 	C 	0.61700 0.34730 0.65290 0.17200
C 	C 	0.09200 0.10730 0.63410 0.09400
C 	C 	0.07900 0.00420 0.63160 -0.18500
C 	C 	0.20400 0.95990 0.67230 0.13900
C 	C 	0.34100 0.02280 0.71400 -0.17200
C 	C 	0.34400 0.12480 0.71400 0.09100
C 	C 	0.19400 0.84700 0.66780 -0.22000
C 	C 	0.35500 0.53600 0.62320 0.08300
C 	C 	0.36800 0.63870 0.62650 -0.14700
C 	C 	0.31500 0.69330 0.70270 0.10200
C 	C 	0.24600 0.64190 0.77110 -0.16200
C 	C 	0.23100 0.53790 0.76090 0.08100
C 	C 	0.33300 0.80650 0.70890 -0.10900
C 	C 	0.88300 0.34710 0.65270 0.17100
N 	N 	0.27560 0.32680 0.83200 -0.24700
N 	N 	0.21700 0.31210 0.51550 -0.24000
N 	N 	0.48950 0.33160 0.66940 -0.27600
N 	N 	0.22440 0.16800 0.67320 -0.24700
N 	N 	0.28300 0.48450 0.68790 -0.24000
N 	N 	0.01050 0.33060 0.66840 -0.27500
N 	N 	0.75000 0.37570 0.62430 -0.19500
