data_crystal

_cell_length_a 8.63200
_cell_length_b 13.52040
_cell_length_c 13.52040
_cell_angle_alpha 95.33570
_cell_angle_beta  96.97580
_cell_angle_gamma 96.97580

_symmetry_space_group_name_	'P 1'
_symmetry_space_group_name_H-M	'P 1'

loop_
_symmetry_equiv_pos_as_xyz
  x,y,z

loop_
_atom_site_label
_atom_site_type_symbol
_atom_site_fract_x
_atom_site_fract_y
_atom_site_fract_z
_atom_site_charge
Ni	Ni	0.75000 0.67731 0.32269 1.06400
H 	H 	0.50870 0.60200 0.13380 -0.01600
H 	H 	0.48730 0.60130 0.96050 0.07700
H 	H 	0.92650 0.75600 0.99600 0.07300
H 	H 	0.93640 0.75130 0.16770 -0.01500
H 	H 	0.61210 0.70850 0.82230 0.08200
H 	H 	0.66630 0.60310 0.81770 0.07800
H 	H 	0.67500 0.81290 0.50010 -0.01100
H 	H 	0.70750 0.82980 0.67600 0.07100
H 	H 	0.92080 0.57860 0.67140 0.08200
H 	H 	0.89940 0.57320 0.49820 -0.00700
H 	H 	0.86580 0.77970 0.83330 0.06600
H 	H 	0.91990 0.67430 0.82850 0.06300
H 	H 	0.99130 0.86620 0.39800 -0.01500
H 	H 	0.01270 0.03950 0.39870 0.07800
H 	H 	0.57350 0.00400 0.24400 0.07600
H 	H 	0.56360 0.83230 0.24870 -0.01500
H 	H 	0.88790 0.17770 0.29150 0.08300
H 	H 	0.83370 0.18230 0.39690 0.07800
H 	H 	0.82500 0.49990 0.18710 -0.01100
H 	H 	0.79250 0.32400 0.17020 0.07100
H 	H 	0.57920 0.32860 0.42140 0.08200
H 	H 	0.60060 0.50180 0.42680 -0.00700
H 	H 	0.63420 0.16670 0.22030 0.06600
H 	H 	0.58010 0.17150 0.32570 0.06300
C 	C 	0.59550 0.63310 0.10490 0.08900
C 	C 	0.58360 0.63260 0.00260 -0.16800
C 	C 	0.70620 0.67700 0.95880 0.11900
C 	C 	0.83880 0.72280 0.02260 -0.16000
C 	C 	0.84450 0.71960 0.12480 0.08400
C 	C 	0.69520 0.67420 0.84580 -0.17200
C 	C 	0.85540 0.62550 0.53450 0.08200
C 	C 	0.86930 0.62910 0.63830 -0.15800
C 	C 	0.81580 0.70450 0.69310 0.11200
C 	C 	0.74490 0.77380 0.64020 -0.15900
C 	C 	0.72830 0.76420 0.53560 0.07600
C 	C 	0.83350 0.71220 0.80580 -0.14200
C 	C 	0.38460 0.65350 0.34510 0.17500
C 	C 	0.90450 0.89510 0.36690 0.08900
C 	C 	0.91640 0.99740 0.36740 -0.16700
C 	C 	0.79380 0.04120 0.32300 0.11900
C 	C 	0.66120 0.97740 0.27720 -0.16200
C 	C 	0.65550 0.87520 0.28040 0.08500
C 	C 	0.80480 0.15420 0.32580 -0.17200
C 	C 	0.64460 0.46550 0.37450 0.08200
C 	C 	0.63070 0.36170 0.37090 -0.15800
C 	C 	0.68420 0.30690 0.29550 0.11200
C 	C 	0.75510 0.35980 0.22620 -0.15900
C 	C 	0.77170 0.46440 0.23580 0.07600
C 	C 	0.66650 0.19420 0.28780 -0.14200
C 	C 	0.11540 0.65490 0.34650 0.17400
N 	N 	0.72550 0.67460 0.16640 -0.24500
N 	N 	0.78310 0.69100 0.48280 -0.23800
N 	N 	0.50980 0.66970 0.32830 -0.27800
N 	N 	0.77450 0.83360 0.32540 -0.24500
N 	N 	0.71690 0.51720 0.30900 -0.23800
N 	N 	0.99020 0.67170 0.33030 -0.27700
N 	N 	0.25000 0.62560 0.37440 -0.19300
Ni	Ni	0.25000 0.32269 0.67731 1.06500
H 	H 	0.49130 0.39800 0.86620 -0.01500
H 	H 	0.51270 0.39870 0.03950 0.07800
H 	H 	0.07350 0.24400 0.00400 0.07400
H 	H 	0.06360 0.24870 0.83230 -0.01400
H 	H 	0.38790 0.29150 0.17770 0.08300
H 	H 	0.33370 0.39690 0.18230 0.07800
H 	H 	0.32500 0.18710 0.49990 -0.01100
H 	H 	0.29250 0.17020 0.32400 0.07100
H 	H 	0.07920 0.42140 0.32860 0.08200
H 	H 	0.10060 0.42680 0.50180 -0.00700
H 	H 	0.13420 0.22030 0.16670 0.06600
H 	H 	0.08010 0.32570 0.17150 0.06300
H 	H 	0.00870 0.13380 0.60200 -0.01500
H 	H 	0.98730 0.96050 0.60130 0.07800
H 	H 	0.42650 0.99600 0.75600 0.07600
H 	H 	0.43640 0.16770 0.75130 -0.01500
H 	H 	0.11210 0.82230 0.70850 0.08300
H 	H 	0.16630 0.81770 0.60310 0.07800
H 	H 	0.17500 0.50010 0.81290 -0.01100
H 	H 	0.20750 0.67600 0.82980 0.07100
H 	H 	0.42080 0.67140 0.57860 0.08200
H 	H 	0.39940 0.49820 0.57320 -0.00700
H 	H 	0.36580 0.83330 0.77970 0.06600
H 	H 	0.41990 0.82850 0.67430 0.06300
C 	C 	0.40450 0.36690 0.89510 0.08900
C 	C 	0.41640 0.36740 0.99740 -0.16800
C 	C 	0.29380 0.32300 0.04120 0.11900
C 	C 	0.16120 0.27720 0.97740 -0.16000
C 	C 	0.15550 0.28040 0.87520 0.08400
C 	C 	0.30480 0.32580 0.15420 -0.17200
C 	C 	0.14460 0.37450 0.46550 0.08200
C 	C 	0.13070 0.37090 0.36170 -0.15800
C 	C 	0.18420 0.29550 0.30690 0.11200
C 	C 	0.25510 0.22620 0.35980 -0.15900
C 	C 	0.27170 0.23580 0.46440 0.07600
C 	C 	0.16650 0.28780 0.19420 -0.14200
C 	C 	0.61540 0.34650 0.65490 0.17500
C 	C 	0.09550 0.10490 0.63310 0.08900
C 	C 	0.08360 0.00260 0.63260 -0.16700
C 	C 	0.20620 0.95880 0.67700 0.11900
C 	C 	0.33880 0.02260 0.72280 -0.16200
C 	C 	0.34450 0.12480 0.71960 0.08500
C 	C 	0.19520 0.84580 0.67420 -0.17200
C 	C 	0.35540 0.53450 0.62550 0.08200
C 	C 	0.36930 0.63830 0.62910 -0.15800
C 	C 	0.31580 0.69310 0.70450 0.11200
C 	C 	0.24490 0.64020 0.77380 -0.15900
C 	C 	0.22830 0.53560 0.76420 0.07600
C 	C 	0.33350 0.80580 0.71220 -0.14200
C 	C 	0.88460 0.34510 0.65350 0.17400
N 	N 	0.27450 0.32540 0.83360 -0.24500
N 	N 	0.21690 0.30900 0.51720 -0.23800
N 	N 	0.49020 0.33030 0.67170 -0.27800
N 	N 	0.22550 0.16640 0.67460 -0.24500
N 	N 	0.28310 0.48280 0.69100 -0.23800
N 	N 	0.00980 0.32830 0.66970 -0.27700
N 	N 	0.75000 0.37440 0.62560 -0.19300
