data_crystal

_cell_length_a 16.66200
_cell_length_b 14.86100
_cell_length_c 17.97770
_cell_angle_alpha 90.00000
_cell_angle_beta  113.11700
_cell_angle_gamma 90.00000

_symmetry_space_group_name_	'P 1'
_symmetry_space_group_name_H-M	'P 1'

loop_
_symmetry_equiv_pos_as_xyz
  x,y,z

loop_
_atom_site_label
_atom_site_type_symbol
_atom_site_fract_x
_atom_site_fract_y
_atom_site_fract_z
_atom_site_charge
C 	C 	0.28250 0.96640 0.41061 0.08200
H 	H 	0.27250 0.02780 0.40110 0.00900
C 	C 	0.27360 0.82370 0.39731 0.02600
H 	H 	0.25520 0.76670 0.37620 0.01400
C 	C 	0.34050 0.84010 0.46762 -0.01000
H 	H 	0.37640 0.79790 0.50350 0.04700
C 	C 	0.40950 0.98140 0.54304 -0.02800
H 	H 	0.41460 0.95430 0.59380 0.02400
H 	H 	0.38920 0.04270 0.54210 0.04500
C 	C 	0.49870 0.98290 0.53876 -0.10800
H 	H 	0.53710 0.02000 0.58270 0.07400
H 	H 	0.52200 0.92230 0.54780 0.07300
C 	C 	0.12240 0.02830 0.09532 0.08400
H 	H 	0.13120 0.08230 0.12350 0.00400
C 	C 	0.10300 0.88860 0.06480 0.00400
H 	H 	0.09530 0.82700 0.06840 0.03100
C 	C 	0.10340 0.93240 0.99900 -0.00400
H 	H 	0.09710 0.90650 0.94990 0.03900
C 	C 	0.12520 0.09620 0.96900 -0.03600
H 	H 	0.12180 0.15260 0.99480 0.05100
H 	H 	0.07790 0.09500 0.91600 0.03400
C 	C 	0.21030 0.09160 0.95960 -0.10800
H 	H 	0.21450 0.14260 0.92770 0.07400
H 	H 	0.21140 0.03740 0.93010 0.07300
C 	C 	0.92360 0.95530 0.24426 0.06300
H 	H 	0.92120 0.89280 0.24240 0.01300
C 	C 	0.84990 0.00280 0.23683 -0.13500
H 	H 	0.79860 0.97310 0.23110 0.07200
C 	C 	0.85390 0.09560 0.23810 0.04600
H 	H 	0.80480 0.12910 0.23310 -0.00600
C 	C 	0.93050 0.13920 0.24671 -0.08800
C 	C 	0.00470 0.08790 0.25790 -0.00900
C 	C 	0.09510 0.12650 0.27980 0.30400
C 	C 	0.93060 0.24090 0.24284 0.34900
Cd	Cd	0.11805 0.92415 0.24950 1.21000
N 	N 	0.11564 0.94972 0.12545 -0.23500
N 	N 	0.23631 0.90166 0.36119 -0.24100
N 	N 	0.99886 0.99652 0.25410 -0.22200
N 	N 	0.11475 0.02058 0.01782 -0.11600
N 	N 	0.34510 0.93092 0.47563 -0.11400
O 	O 	0.91354 0.28140 0.29541 -0.41700
O 	O 	0.93902 0.27982 0.18631 -0.33600
O 	O 	0.15231 0.07845 0.27351 -0.38500
O 	O 	0.10523 0.20463 0.30458 -0.24200
C 	C 	0.78250 0.46640 0.91061 0.08200
H 	H 	0.77250 0.52780 0.90110 0.00700
C 	C 	0.77360 0.32370 0.89731 0.02500
H 	H 	0.75520 0.26670 0.87620 0.01300
C 	C 	0.84050 0.34010 0.96762 -0.01100
H 	H 	0.87640 0.29790 0.00350 0.04600
C 	C 	0.90950 0.48140 0.04304 -0.02800
H 	H 	0.91460 0.45430 0.09380 0.02300
H 	H 	0.88920 0.54270 0.04210 0.04400
C 	C 	0.99870 0.48290 0.03876 -0.10800
H 	H 	0.03710 0.52000 0.08270 0.07400
H 	H 	0.02200 0.42230 0.04780 0.07300
C 	C 	0.62240 0.52830 0.59532 0.08300
H 	H 	0.63120 0.58230 0.62350 0.00500
C 	C 	0.60300 0.38860 0.56480 0.00300
H 	H 	0.59530 0.32700 0.56840 0.03200
C 	C 	0.60340 0.43240 0.49900 -0.00200
H 	H 	0.59710 0.40650 0.44990 0.03800
C 	C 	0.62520 0.59620 0.46900 -0.03600
H 	H 	0.62180 0.65260 0.49480 0.05100
H 	H 	0.57790 0.59500 0.41600 0.03400
C 	C 	0.71030 0.59160 0.45960 -0.10800
H 	H 	0.71450 0.64260 0.42770 0.07400
H 	H 	0.71140 0.53740 0.43010 0.07300
C 	C 	0.42360 0.45530 0.74426 0.05700
H 	H 	0.42120 0.39280 0.74240 0.01500
C 	C 	0.34990 0.50280 0.73683 -0.12600
H 	H 	0.29860 0.47310 0.73110 0.06800
C 	C 	0.35390 0.59560 0.73810 0.04000
H 	H 	0.30480 0.62910 0.73310 -0.00400
C 	C 	0.43050 0.63920 0.74671 -0.08400
C 	C 	0.50470 0.58790 0.75790 -0.01200
C 	C 	0.59510 0.62650 0.77980 0.30500
C 	C 	0.43060 0.74090 0.74284 0.34700
Cd	Cd	0.61805 0.42415 0.74950 1.21100
N 	N 	0.61564 0.44972 0.62545 -0.23400
N 	N 	0.73631 0.40166 0.86119 -0.24100
N 	N 	0.49886 0.49652 0.75410 -0.22100
N 	N 	0.61475 0.52058 0.51782 -0.11600
N 	N 	0.84510 0.43092 0.97563 -0.11500
O 	O 	0.41354 0.78140 0.79541 -0.41600
O 	O 	0.43902 0.77982 0.68631 -0.33500
O 	O 	0.65231 0.57845 0.77351 -0.38600
O 	O 	0.60523 0.70463 0.80458 -0.24200
C 	C 	0.21750 0.96640 0.58939 0.08000
H 	H 	0.22750 0.02780 0.59890 0.00800
C 	C 	0.22640 0.82370 0.60269 0.02500
H 	H 	0.24480 0.76670 0.62380 0.01300
C 	C 	0.15950 0.84010 0.53238 -0.01100
H 	H 	0.12360 0.79790 0.49650 0.04600
C 	C 	0.09050 0.98140 0.45696 -0.03000
H 	H 	0.08540 0.95430 0.40620 0.02300
H 	H 	0.11080 0.04270 0.45790 0.04600
C 	C 	0.00130 0.98290 0.46124 -0.11000
H 	H 	0.96290 0.02000 0.41730 0.07400
H 	H 	0.97800 0.92230 0.45220 0.07500
C 	C 	0.37760 0.02830 0.90468 0.08400
H 	H 	0.36880 0.08230 0.87650 0.00400
C 	C 	0.39700 0.88860 0.93520 0.00300
H 	H 	0.40470 0.82700 0.93160 0.03200
C 	C 	0.39660 0.93240 0.00100 -0.00200
H 	H 	0.40290 0.90650 0.05010 0.03800
C 	C 	0.37480 0.09620 0.03100 -0.03600
H 	H 	0.37820 0.15260 0.00520 0.05100
H 	H 	0.42210 0.09500 0.08400 0.03400
C 	C 	0.28970 0.09160 0.04040 -0.10800
H 	H 	0.28550 0.14260 0.07230 0.07400
H 	H 	0.28860 0.03740 0.06990 0.07300
C 	C 	0.57640 0.95530 0.75574 0.05900
H 	H 	0.57880 0.89280 0.75760 0.01500
C 	C 	0.65010 0.00280 0.76317 -0.12800
H 	H 	0.70140 0.97310 0.76890 0.06900
C 	C 	0.64610 0.09560 0.76190 0.04200
H 	H 	0.69520 0.12910 0.76690 -0.00400
C 	C 	0.56950 0.13920 0.75329 -0.08400
C 	C 	0.49530 0.08790 0.74210 -0.01100
C 	C 	0.40490 0.12650 0.72020 0.30500
C 	C 	0.56940 0.24090 0.75716 0.34800
Cd	Cd	0.38195 0.92415 0.75050 1.21100
N 	N 	0.38436 0.94972 0.87455 -0.23400
N 	N 	0.26369 0.90166 0.63881 -0.24100
N 	N 	0.50114 0.99652 0.74590 -0.22200
N 	N 	0.38525 0.02058 0.98218 -0.11600
N 	N 	0.15490 0.93092 0.52437 -0.11400
O 	O 	0.58646 0.28140 0.70459 -0.41600
O 	O 	0.56098 0.27982 0.81369 -0.33500
O 	O 	0.34769 0.07845 0.72649 -0.38500
O 	O 	0.39477 0.20463 0.69542 -0.24200
C 	C 	0.71750 0.46640 0.08939 0.08200
H 	H 	0.72750 0.52780 0.09890 0.00700
C 	C 	0.72640 0.32370 0.10269 0.02500
H 	H 	0.74480 0.26670 0.12380 0.01300
C 	C 	0.65950 0.34010 0.03238 -0.01100
H 	H 	0.62360 0.29790 0.99650 0.04600
C 	C 	0.59050 0.48140 0.95696 -0.02800
H 	H 	0.58540 0.45430 0.90620 0.02300
H 	H 	0.61080 0.54270 0.95790 0.04400
C 	C 	0.50130 0.48290 0.96124 -0.10800
H 	H 	0.46290 0.52000 0.91730 0.07400
H 	H 	0.47800 0.42230 0.95220 0.07300
C 	C 	0.87760 0.52830 0.40468 0.08300
H 	H 	0.86880 0.58230 0.37650 0.00500
C 	C 	0.89700 0.38860 0.43520 0.00300
H 	H 	0.90470 0.32700 0.43160 0.03200
C 	C 	0.89660 0.43240 0.50100 -0.00200
H 	H 	0.90290 0.40650 0.55010 0.03800
C 	C 	0.87480 0.59620 0.53100 -0.03600
H 	H 	0.87820 0.65260 0.50520 0.05100
H 	H 	0.92210 0.59500 0.58400 0.03400
C 	C 	0.78970 0.59160 0.54040 -0.10800
H 	H 	0.78550 0.64260 0.57230 0.07400
H 	H 	0.78860 0.53740 0.56990 0.07200
C 	C 	0.07640 0.45530 0.25574 0.05700
H 	H 	0.07880 0.39280 0.25760 0.01500
C 	C 	0.15010 0.50280 0.26317 -0.12600
H 	H 	0.20140 0.47310 0.26890 0.06800
C 	C 	0.14610 0.59560 0.26190 0.04100
H 	H 	0.19520 0.62910 0.26690 -0.00400
C 	C 	0.06950 0.63920 0.25329 -0.08500
C 	C 	0.99530 0.58790 0.24210 -0.01100
C 	C 	0.90490 0.62650 0.22020 0.30500
C 	C 	0.06940 0.74090 0.25716 0.34800
Cd	Cd	0.88195 0.42415 0.25050 1.21100
N 	N 	0.88436 0.44972 0.37455 -0.23400
N 	N 	0.76369 0.40166 0.13881 -0.24100
N 	N 	0.00114 0.49652 0.24590 -0.22200
N 	N 	0.88525 0.52058 0.48218 -0.11600
N 	N 	0.65490 0.43092 0.02437 -0.11500
O 	O 	0.08646 0.78140 0.20459 -0.41600
O 	O 	0.06098 0.77982 0.31369 -0.33600
O 	O 	0.84769 0.57845 0.22649 -0.38500
O 	O 	0.89477 0.70463 0.19542 -0.24200
C 	C 	0.71750 0.03360 0.58939 0.08100
H 	H 	0.72750 0.97220 0.59890 0.00800
C 	C 	0.72640 0.17630 0.60269 0.02500
H 	H 	0.74480 0.23330 0.62380 0.01300
C 	C 	0.65950 0.15990 0.53238 -0.01100
H 	H 	0.62360 0.20210 0.49650 0.04600
C 	C 	0.59050 0.01860 0.45696 -0.02900
H 	H 	0.58540 0.04570 0.40620 0.02300
H 	H 	0.61080 0.95730 0.45790 0.04500
C 	C 	0.50130 0.01710 0.46124 -0.10800
H 	H 	0.46290 0.98000 0.41730 0.07400
H 	H 	0.47800 0.07770 0.45220 0.07300
C 	C 	0.87760 0.97170 0.90468 0.08400
H 	H 	0.86880 0.91770 0.87650 0.00400
C 	C 	0.89700 0.11140 0.93520 0.00400
H 	H 	0.90470 0.17300 0.93160 0.03100
C 	C 	0.89660 0.06760 0.00100 -0.00400
H 	H 	0.90290 0.09350 0.05010 0.03900
C 	C 	0.87480 0.90380 0.03100 -0.03600
H 	H 	0.87820 0.84740 0.00520 0.05100
H 	H 	0.92210 0.90500 0.08400 0.03400
C 	C 	0.78970 0.90840 0.04040 -0.10800
H 	H 	0.78550 0.85740 0.07230 0.07400
H 	H 	0.78860 0.96260 0.06990 0.07300
C 	C 	0.07640 0.04470 0.75574 0.06300
H 	H 	0.07880 0.10720 0.75760 0.01300
C 	C 	0.15010 0.99720 0.76317 -0.13500
H 	H 	0.20140 0.02690 0.76890 0.07200
C 	C 	0.14610 0.90440 0.76190 0.04600
H 	H 	0.19520 0.87090 0.76690 -0.00600
C 	C 	0.06950 0.86080 0.75329 -0.08800
C 	C 	0.99530 0.91210 0.74210 -0.00900
C 	C 	0.90490 0.87350 0.72020 0.30400
C 	C 	0.06940 0.75910 0.75716 0.34900
Cd	Cd	0.88195 0.07585 0.75050 1.21000
N 	N 	0.88436 0.05028 0.87455 -0.23500
N 	N 	0.76369 0.09834 0.63881 -0.24100
N 	N 	0.00114 0.00348 0.74590 -0.22200
N 	N 	0.88525 0.97942 0.98218 -0.11600
N 	N 	0.65490 0.06908 0.52437 -0.11400
O 	O 	0.08646 0.71860 0.70459 -0.41700
O 	O 	0.06098 0.72018 0.81369 -0.33600
O 	O 	0.84769 0.92155 0.72649 -0.38500
O 	O 	0.89477 0.79537 0.69542 -0.24200
C 	C 	0.21750 0.53360 0.08939 0.08200
H 	H 	0.22750 0.47220 0.09890 0.00700
C 	C 	0.22640 0.67630 0.10269 0.02500
H 	H 	0.24480 0.73330 0.12380 0.01300
C 	C 	0.15950 0.65990 0.03238 -0.01100
H 	H 	0.12360 0.70210 0.99650 0.04600
C 	C 	0.09050 0.51860 0.95696 -0.02800
H 	H 	0.08540 0.54570 0.90620 0.02300
H 	H 	0.11080 0.45730 0.95790 0.04400
C 	C 	0.00130 0.51710 0.96124 -0.10800
H 	H 	0.96290 0.48000 0.91730 0.07400
H 	H 	0.97800 0.57770 0.95220 0.07300
C 	C 	0.37760 0.47170 0.40468 0.08300
H 	H 	0.36880 0.41770 0.37650 0.00500
C 	C 	0.39700 0.61140 0.43520 0.00300
H 	H 	0.40470 0.67300 0.43160 0.03200
C 	C 	0.39660 0.56760 0.50100 -0.00200
H 	H 	0.40290 0.59350 0.55010 0.03800
C 	C 	0.37480 0.40380 0.53100 -0.03600
H 	H 	0.37820 0.34740 0.50520 0.05100
H 	H 	0.42210 0.40500 0.58400 0.03400
C 	C 	0.28970 0.40840 0.54040 -0.10800
H 	H 	0.28550 0.35740 0.57230 0.07400
H 	H 	0.28860 0.46260 0.56990 0.07300
C 	C 	0.57640 0.54470 0.25574 0.05700
H 	H 	0.57880 0.60720 0.25760 0.01500
C 	C 	0.65010 0.49720 0.26317 -0.12600
H 	H 	0.70140 0.52690 0.26890 0.06800
C 	C 	0.64610 0.40440 0.26190 0.04000
H 	H 	0.69520 0.37090 0.26690 -0.00400
C 	C 	0.56950 0.36080 0.25329 -0.08400
C 	C 	0.49530 0.41210 0.24210 -0.01200
C 	C 	0.40490 0.37350 0.22020 0.30500
C 	C 	0.56940 0.25910 0.25716 0.34700
Cd	Cd	0.38195 0.57585 0.25050 1.21100
N 	N 	0.38436 0.55028 0.37455 -0.23400
N 	N 	0.26369 0.59834 0.13881 -0.24100
N 	N 	0.50114 0.50348 0.24590 -0.22100
N 	N 	0.38525 0.47942 0.48218 -0.11600
N 	N 	0.15490 0.56908 0.02437 -0.11500
O 	O 	0.58646 0.21860 0.20459 -0.41600
O 	O 	0.56098 0.22018 0.31369 -0.33500
O 	O 	0.34769 0.42155 0.22649 -0.38600
O 	O 	0.39477 0.29537 0.19542 -0.24200
C 	C 	0.78250 0.03360 0.41061 0.08000
H 	H 	0.77250 0.97220 0.40110 0.00800
C 	C 	0.77360 0.17630 0.39731 0.02500
H 	H 	0.75520 0.23330 0.37620 0.01300
C 	C 	0.84050 0.15990 0.46762 -0.01100
H 	H 	0.87640 0.20210 0.50350 0.04600
C 	C 	0.90950 0.01860 0.54304 -0.03000
H 	H 	0.91460 0.04570 0.59380 0.02300
H 	H 	0.88920 0.95730 0.54210 0.04600
C 	C 	0.99870 0.01710 0.53876 -0.11000
H 	H 	0.03710 0.98000 0.58270 0.07400
H 	H 	0.02200 0.07770 0.54780 0.07500
C 	C 	0.62240 0.97170 0.09532 0.08400
H 	H 	0.63120 0.91770 0.12350 0.00400
C 	C 	0.60300 0.11140 0.06480 0.00300
H 	H 	0.59530 0.17300 0.06840 0.03200
C 	C 	0.60340 0.06760 0.99900 -0.00200
H 	H 	0.59710 0.09350 0.94990 0.03800
C 	C 	0.62520 0.90380 0.96900 -0.03600
H 	H 	0.62180 0.84740 0.99480 0.05100
H 	H 	0.57790 0.90500 0.91600 0.03400
C 	C 	0.71030 0.90840 0.95960 -0.10800
H 	H 	0.71450 0.85740 0.92770 0.07400
H 	H 	0.71140 0.96260 0.93010 0.07300
C 	C 	0.42360 0.04470 0.24426 0.05900
H 	H 	0.42120 0.10720 0.24240 0.01500
C 	C 	0.34990 0.99720 0.23683 -0.12800
H 	H 	0.29860 0.02690 0.23110 0.06900
C 	C 	0.35390 0.90440 0.23810 0.04200
H 	H 	0.30480 0.87090 0.23310 -0.00400
C 	C 	0.43050 0.86080 0.24671 -0.08400
C 	C 	0.50470 0.91210 0.25790 -0.01100
C 	C 	0.59510 0.87350 0.27980 0.30500
C 	C 	0.43060 0.75910 0.24284 0.34800
Cd	Cd	0.61805 0.07585 0.24950 1.21100
N 	N 	0.61564 0.05028 0.12545 -0.23400
N 	N 	0.73631 0.09834 0.36119 -0.24100
N 	N 	0.49886 0.00348 0.25410 -0.22200
N 	N 	0.61475 0.97942 0.01782 -0.11600
N 	N 	0.84510 0.06908 0.47563 -0.11400
O 	O 	0.41354 0.71860 0.29541 -0.41600
O 	O 	0.43902 0.72018 0.18631 -0.33500
O 	O 	0.65231 0.92155 0.27351 -0.38500
O 	O 	0.60523 0.79537 0.30458 -0.24200
C 	C 	0.28250 0.53360 0.91061 0.08200
H 	H 	0.27250 0.47220 0.90110 0.00700
C 	C 	0.27360 0.67630 0.89731 0.02500
H 	H 	0.25520 0.73330 0.87620 0.01300
C 	C 	0.34050 0.65990 0.96762 -0.01100
H 	H 	0.37640 0.70210 0.00350 0.04600
C 	C 	0.40950 0.51860 0.04304 -0.02800
H 	H 	0.41460 0.54570 0.09380 0.02300
H 	H 	0.38920 0.45730 0.04210 0.04400
C 	C 	0.49870 0.51710 0.03876 -0.10800
H 	H 	0.53710 0.48000 0.08270 0.07400
H 	H 	0.52200 0.57770 0.04780 0.07300
C 	C 	0.12240 0.47170 0.59532 0.08300
H 	H 	0.13120 0.41770 0.62350 0.00500
C 	C 	0.10300 0.61140 0.56480 0.00300
H 	H 	0.09530 0.67300 0.56840 0.03200
C 	C 	0.10340 0.56760 0.49900 -0.00200
H 	H 	0.09710 0.59350 0.44990 0.03800
C 	C 	0.12520 0.40380 0.46900 -0.03600
H 	H 	0.12180 0.34740 0.49480 0.05100
H 	H 	0.07790 0.40500 0.41600 0.03400
C 	C 	0.21030 0.40840 0.45960 -0.10800
H 	H 	0.21450 0.35740 0.42770 0.07400
H 	H 	0.21140 0.46260 0.43010 0.07200
C 	C 	0.92360 0.54470 0.74426 0.05700
H 	H 	0.92120 0.60720 0.74240 0.01500
C 	C 	0.84990 0.49720 0.73683 -0.12600
H 	H 	0.79860 0.52690 0.73110 0.06800
C 	C 	0.85390 0.40440 0.73810 0.04100
H 	H 	0.80480 0.37090 0.73310 -0.00400
C 	C 	0.93050 0.36080 0.74671 -0.08500
C 	C 	0.00470 0.41210 0.75790 -0.01100
C 	C 	0.09510 0.37350 0.77980 0.30500
C 	C 	0.93060 0.25910 0.74284 0.34800
Cd	Cd	0.11805 0.57585 0.74950 1.21100
N 	N 	0.11564 0.55028 0.62545 -0.23400
N 	N 	0.23631 0.59834 0.86119 -0.24100
N 	N 	0.99886 0.50348 0.75410 -0.22200
N 	N 	0.11475 0.47942 0.51782 -0.11600
N 	N 	0.34510 0.56908 0.97563 -0.11500
O 	O 	0.91354 0.21860 0.79541 -0.41600
O 	O 	0.93902 0.22018 0.68631 -0.33600
O 	O 	0.15231 0.42155 0.77351 -0.38500
O 	O 	0.10523 0.29537 0.80458 -0.24200
