data_crystal

_cell_length_a 12.53700
_cell_length_b 14.97700
_cell_length_c 15.40400
_cell_angle_alpha 90.00000
_cell_angle_beta  90.00000
_cell_angle_gamma 90.00000

_symmetry_space_group_name_	'P 1'
_symmetry_space_group_name_H-M	'P 1'

loop_
_symmetry_equiv_pos_as_xyz
  x,y,z

loop_
_atom_site_label
_atom_site_type_symbol
_atom_site_fract_x
_atom_site_fract_y
_atom_site_fract_z
_atom_site_charge
Mg	Mg	0.99616 0.53021 0.94990 1.59100
Mg	Mg	0.79941 0.67543 0.83546 1.34800
C 	C 	0.90680 0.33610 0.71890 0.07600
H 	H 	0.95810 0.32260 0.76140 -0.42000
C 	C 	0.81650 0.30010 0.58600 0.24500
H 	H 	0.80590 0.26120 0.53880 -0.34100
C 	C 	0.89060 0.27820 0.64980 -1.02200
O 	O 	0.94190 0.46190 0.85070 -0.50700
O 	O 	0.80510 0.54390 0.80390 -1.27700
C 	C 	0.84770 0.41350 0.72520 -1.05600
C 	C 	0.86700 0.47880 0.79930 0.14700
C 	C 	0.75790 0.37860 0.59120 -0.94300
C 	C 	0.77380 0.43510 0.66190 0.27200
H 	H 	0.73400 0.48820 0.66660 -0.70100
C 	C 	0.13470 0.44460 0.04280 55.41000
O 	O 	0.10790 0.52050 0.06750 -17.22500
C 	C 	0.95640 0.19400 0.64290 0.71200
O 	O 	0.09380 0.42220 0.97760 -19.49300
O 	O 	0.03890 0.18990 0.68810 -1.50000
O 	O 	0.92380 0.13490 0.59140 -0.71100
C 	C 	0.67490 0.40310 0.52580 0.61400
O 	O 	0.65870 0.35250 0.46340 -0.72900
O 	O 	0.62210 0.47340 0.53650 -0.54400
C 	C 	0.19570 0.39920 0.08350 -96.64300
H 	H 	0.24980 0.43680 0.10970 26.91500
H 	H 	0.22950 0.35640 0.04500 26.90800
H 	H 	0.15720 0.36760 0.12860 26.72900
Mg	Mg	0.50384 0.46979 0.44990 1.76800
Mg	Mg	0.70059 0.32457 0.33546 1.38000
C 	C 	0.59320 0.66390 0.21890 -0.17100
H 	H 	0.54190 0.67740 0.26140 -0.14500
C 	C 	0.68350 0.69990 0.08600 0.04400
H 	H 	0.69410 0.73880 0.03880 -0.33500
C 	C 	0.60940 0.72180 0.14980 -0.70800
O 	O 	0.55810 0.53810 0.35070 0.66700
O 	O 	0.69490 0.45610 0.30390 -0.93700
C 	C 	0.65230 0.58650 0.22520 -0.50500
C 	C 	0.63300 0.52120 0.29930 -0.19400
C 	C 	0.74210 0.62140 0.09120 -0.68200
C 	C 	0.72620 0.56490 0.16190 -0.00700
H 	H 	0.76600 0.51180 0.16660 -0.38400
C 	C 	0.36530 0.55540 0.54280 138.87500
O 	O 	0.39210 0.47950 0.56750 -41.42600
C 	C 	0.54360 0.80600 0.14290 0.29300
O 	O 	0.40620 0.57780 0.47760 -47.11800
O 	O 	0.46110 0.81010 0.18810 -1.11700
O 	O 	0.57620 0.86510 0.09140 -0.73900
C 	C 	0.82510 0.59690 0.02580 0.41400
O 	O 	0.84130 0.64750 0.96340 -0.80300
O 	O 	0.87790 0.52660 0.03650 -0.63300
C 	C 	0.30430 0.60080 0.58350 -242.51700
H 	H 	0.25020 0.56320 0.60970 68.03700
H 	H 	0.27050 0.64360 0.54500 68.12900
H 	H 	0.34280 0.63240 0.62860 67.70800
Mg	Mg	0.00384 0.03021 0.55010 1.52200
Mg	Mg	0.20059 0.17543 0.66454 1.36300
C 	C 	0.09320 0.83610 0.78110 -0.08000
H 	H 	0.04190 0.82260 0.73860 -0.77800
C 	C 	0.18350 0.80010 0.91400 0.11800
H 	H 	0.19410 0.76120 0.96120 -0.39600
C 	C 	0.10940 0.77820 0.85020 -1.18300
O 	O 	0.05810 0.96190 0.64930 -0.82200
O 	O 	0.19490 0.04390 0.69610 -1.28000
C 	C 	0.15230 0.91350 0.77480 -1.17600
C 	C 	0.13300 0.97880 0.70070 0.26600
C 	C 	0.24210 0.87860 0.90880 -1.05000
C 	C 	0.22620 0.93510 0.83810 0.21100
H 	H 	0.26600 0.98820 0.83340 -0.52400
C 	C 	0.86530 0.94460 0.45720 46.88700
O 	O 	0.89210 0.02050 0.43250 -14.33100
C 	C 	0.04360 0.69400 0.85710 -0.16900
O 	O 	0.90620 0.92220 0.52240 -16.64000
O 	O 	0.96110 0.68990 0.81190 -1.16800
O 	O 	0.07620 0.63490 0.90860 -0.98400
C 	C 	0.32510 0.90310 0.97420 0.72400
O 	O 	0.34130 0.85250 0.03660 -1.19900
O 	O 	0.37790 0.97340 0.96350 -0.82800
C 	C 	0.80430 0.89920 0.41650 -81.65800
H 	H 	0.75020 0.93680 0.39030 22.75300
H 	H 	0.77050 0.85640 0.45500 22.61000
H 	H 	0.84280 0.86760 0.37140 22.53700
Mg	Mg	0.49616 0.96979 0.05010 1.55000
Mg	Mg	0.29941 0.82457 0.16454 1.35500
C 	C 	0.40680 0.16390 0.28110 0.04900
H 	H 	0.45810 0.17740 0.23860 -0.34600
C 	C 	0.31650 0.19990 0.41400 0.15000
H 	H 	0.30590 0.23880 0.46120 -0.32000
C 	C 	0.39060 0.22180 0.35020 -0.78300
O 	O 	0.44190 0.03810 0.14930 -0.38900
O 	O 	0.30510 0.95610 0.19610 -1.25100
C 	C 	0.34770 0.08650 0.27480 -0.86600
C 	C 	0.36700 0.02120 0.20070 0.33600
C 	C 	0.25790 0.12140 0.40880 -0.94100
C 	C 	0.27380 0.06490 0.33810 0.24100
H 	H 	0.23400 0.01180 0.33340 -0.60900
C 	C 	0.63470 0.05540 0.95720 51.30300
O 	O 	0.60790 0.97950 0.93250 -15.72500
C 	C 	0.45640 0.30600 0.35710 0.20500
O 	O 	0.59380 0.07780 0.02240 -17.83000
O 	O 	0.53890 0.31010 0.31190 -0.96000
O 	O 	0.42380 0.36510 0.40860 -0.24700
C 	C 	0.17490 0.09690 0.47420 0.54200
O 	O 	0.15870 0.14750 0.53660 -1.07900
O 	O 	0.12210 0.02660 0.46350 -1.15800
C 	C 	0.69570 0.10080 0.91650 -89.64600
H 	H 	0.74980 0.06320 0.89030 25.04300
H 	H 	0.72950 0.14360 0.95500 25.04700
H 	H 	0.65720 0.13240 0.87140 24.85500
