data_crystal

_cell_length_a 10.22600
_cell_length_b 10.81400
_cell_length_c 29.87600
_cell_angle_alpha 90.00000
_cell_angle_beta  99.43700
_cell_angle_gamma 90.00000

_symmetry_space_group_name_	'P 1'
_symmetry_space_group_name_H-M	'P 1'

loop_
_symmetry_equiv_pos_as_xyz
  x,y,z

loop_
_atom_site_label
_atom_site_type_symbol
_atom_site_fract_x
_atom_site_fract_y
_atom_site_fract_z
_atom_site_charge
Cd	Cd	0.02927 0.20337 0.89667 1.22000
Cd	Cd	0.72814 0.37372 0.84909 1.21700
Cd	Cd	0.97073 0.70337 0.60333 1.22000
Cd	Cd	0.27186 0.87372 0.65091 1.21900
Cd	Cd	0.97073 0.79663 0.10333 1.22000
Cd	Cd	0.27186 0.62628 0.15091 1.21700
Cd	Cd	0.02927 0.29663 0.39667 1.22000
Cd	Cd	0.72814 0.12628 0.34909 1.21600
Cd	Cd	0.50000 0.50000 -0.00000 1.16100
Cd	Cd	0.50000 -0.00000 0.50000 1.16000
H 	H 	0.75290 0.92320 0.95390 0.01600
H 	H 	0.36090 0.88630 0.94950 0.02400
H 	H 	0.50840 0.20550 0.91070 0.00900
H 	H 	0.24150 0.39410 0.84790 0.02800
H 	H 	0.37440 0.56080 0.74450 0.04500
H 	H 	0.98520 0.55360 0.74890 0.04400
H 	H 	0.24710 0.42320 0.54610 0.02800
H 	H 	0.63910 0.38630 0.55050 0.03500
H 	H 	0.49160 0.70550 0.58930 0.02500
H 	H 	0.75850 0.89410 0.65210 0.04600
H 	H 	0.62560 0.06080 0.75550 0.06300
H 	H 	0.01480 0.05360 0.75110 0.05800
H 	H 	0.24710 0.07680 0.04610 0.04300
H 	H 	0.63910 0.11370 0.05050 0.05200
H 	H 	0.49160 0.79450 0.08930 0.03900
H 	H 	0.75850 0.60590 0.15210 0.02600
H 	H 	0.62560 0.43920 0.25550 0.04400
H 	H 	0.01480 0.44640 0.25110 0.04300
H 	H 	0.75290 0.57680 0.45390 0.03100
H 	H 	0.36090 0.61370 0.44950 0.04000
H 	H 	0.50840 0.29450 0.41070 0.02400
H 	H 	0.24150 0.10590 0.34790 0.00600
H 	H 	0.37440 0.93920 0.24450 0.02400
H 	H 	0.98520 0.94640 0.24890 0.02100
C 	C 	0.76530 0.14940 0.92144 0.39300
C 	C 	0.64940 0.07650 0.93128 -0.19400
C 	C 	0.66770 0.95600 0.94760 0.14400
C 	C 	0.56090 0.88500 0.95440 -0.16800
C 	C 	0.43320 0.93410 0.94490 0.13500
C 	C 	0.41370 0.05360 0.92870 -0.17100
C 	C 	0.52150 0.12520 0.92170 0.10600
C 	C 	0.58110 0.75330 0.97080 0.38100
C 	C 	0.27520 0.10420 0.91700 0.34800
C 	C 	0.98160 0.43450 0.82560 0.36900
C 	C 	0.09620 0.46890 0.80240 -0.12900
C 	C 	0.22460 0.43700 0.82060 0.05700
C 	C 	0.32920 0.46880 0.79810 -0.11300
C 	C 	0.30410 0.53630 0.75870 0.05800
C 	C 	0.17570 0.56850 0.73960 -0.12000
C 	C 	0.07190 0.53360 0.76160 0.06500
C 	C 	0.47100 0.43320 0.81670 0.33700
C 	C 	0.14910 0.64020 0.69580 0.38100
C 	C 	0.23470 0.64940 0.57856 0.37400
C 	C 	0.35060 0.57650 0.56872 -0.13800
C 	C 	0.33230 0.45600 0.55240 0.07400
C 	C 	0.43910 0.38500 0.54560 -0.13500
C 	C 	0.56680 0.43410 0.55510 0.06300
C 	C 	0.58630 0.55360 0.57130 -0.11400
C 	C 	0.47850 0.62520 0.57830 0.06000
C 	C 	0.41890 0.25330 0.52920 0.36700
C 	C 	0.72480 0.60420 0.58300 0.32900
C 	C 	0.01840 0.93450 0.67440 0.35200
C 	C 	0.90380 0.96890 0.69760 -0.06700
C 	C 	0.77540 0.93700 0.67940 0.00900
C 	C 	0.67080 0.96880 0.70190 -0.04600
C 	C 	0.69590 0.03630 0.74130 -0.02000
C 	C 	0.82430 0.06850 0.76040 -0.07800
C 	C 	0.92810 0.03360 0.73840 -0.00600
C 	C 	0.52900 0.93320 0.68330 0.31800
C 	C 	0.85090 0.14020 0.80420 0.36300
C 	C 	0.23470 0.85060 0.07856 0.35500
C 	C 	0.35060 0.92350 0.06872 -0.08000
C 	C 	0.33230 0.04400 0.05240 0.00100
C 	C 	0.43910 0.11500 0.04560 -0.09400
C 	C 	0.56680 0.06590 0.05510 -0.01100
C 	C 	0.58630 0.94640 0.07130 -0.05500
C 	C 	0.47850 0.87480 0.07830 0.01100
C 	C 	0.41890 0.24670 0.02920 0.35000
C 	C 	0.72480 0.89580 0.08300 0.30800
C 	C 	0.01840 0.56550 0.17440 0.37000
C 	C 	0.90380 0.53110 0.19760 -0.13200
C 	C 	0.77540 0.56300 0.17940 0.06000
C 	C 	0.67080 0.53120 0.20190 -0.11400
C 	C 	0.69590 0.46370 0.24130 0.05900
C 	C 	0.82430 0.43150 0.26040 -0.12200
C 	C 	0.92810 0.46640 0.23840 0.06600
C 	C 	0.52900 0.56680 0.18330 0.33900
C 	C 	0.85090 0.35980 0.30420 0.38100
C 	C 	0.76530 0.35060 0.42144 0.37400
C 	C 	0.64940 0.42350 0.43128 -0.13700
C 	C 	0.66770 0.54400 0.44760 0.07200
C 	C 	0.56090 0.61500 0.45440 -0.12800
C 	C 	0.43320 0.56590 0.44490 0.06000
C 	C 	0.41370 0.44640 0.42870 -0.11100
C 	C 	0.52150 0.37480 0.42170 0.05800
C 	C 	0.58110 0.74670 0.47080 0.36400
C 	C 	0.27520 0.39580 0.41700 0.32700
C 	C 	0.98160 0.06550 0.32560 0.39400
C 	C 	0.09620 0.03110 0.30240 -0.20600
C 	C 	0.22460 0.06300 0.32060 0.11600
C 	C 	0.32920 0.03120 0.29810 -0.18700
C 	C 	0.30410 0.96370 0.25870 0.14300
C 	C 	0.17570 0.93150 0.23960 -0.17200
C 	C 	0.07190 0.96640 0.26160 0.15200
C 	C 	0.47100 0.06680 0.31670 0.36000
C 	C 	0.14910 0.85980 0.19580 0.40100
O 	O 	0.75200 0.26570 0.91553 -0.48400
O 	O 	0.86970 0.09220 0.91960 -0.43900
O 	O 	0.47880 0.68840 0.97080 -0.45700
O 	O 	0.69390 0.71420 0.98330 -0.35100
O 	O 	0.18000 0.03500 0.91970 -0.37400
O 	O 	0.25900 0.21380 0.90368 -0.39400
O 	O 	0.00380 0.39760 0.86585 -0.49400
O 	O 	0.86720 0.44670 0.80340 -0.40700
O 	O 	0.49920 0.39210 0.85604 -0.39500
O 	O 	0.55580 0.44690 0.79240 -0.37400
O 	O 	0.03200 0.64410 0.67613 -0.42100
O 	O 	0.24920 0.68690 0.68257 -0.42600
O 	O 	0.24800 0.76570 0.58447 -0.47900
O 	O 	0.13030 0.59220 0.58040 -0.43100
O 	O 	0.52120 0.18840 0.52920 -0.47100
O 	O 	0.30610 0.21420 0.51670 -0.36500
O 	O 	0.82000 0.53500 0.58030 -0.36400
O 	O 	0.74100 0.71380 0.59632 -0.39100
O 	O 	0.99620 0.89760 0.63415 -0.48900
O 	O 	0.13280 0.94670 0.69660 -0.39500
O 	O 	0.50080 0.89210 0.64396 -0.38700
O 	O 	0.44420 0.94690 0.70760 -0.35900
O 	O 	0.96800 0.14410 0.82387 -0.41900
O 	O 	0.75080 0.18690 0.81743 -0.42500
O 	O 	0.24800 0.73430 0.08447 -0.48100
O 	O 	0.13030 0.90780 0.08040 -0.42100
O 	O 	0.52120 0.31160 0.02920 -0.46800
O 	O 	0.30610 0.28580 0.01670 -0.36400
O 	O 	0.82000 0.96500 0.08030 -0.35300
O 	O 	0.74100 0.78620 0.09632 -0.38800
O 	O 	0.99620 0.60240 0.13415 -0.50000
O 	O 	0.13280 0.55330 0.19660 -0.40900
O 	O 	0.50080 0.60790 0.14396 -0.39900
O 	O 	0.44420 0.55310 0.20760 -0.37300
O 	O 	0.96800 0.35590 0.32387 -0.42000
O 	O 	0.75080 0.31310 0.31743 -0.42600
O 	O 	0.75200 0.23430 0.41553 -0.48600
O 	O 	0.86970 0.40780 0.41960 -0.43000
O 	O 	0.47880 0.81160 0.47080 -0.45300
O 	O 	0.69390 0.78580 0.48330 -0.35000
O 	O 	0.18000 0.46500 0.41970 -0.36100
O 	O 	0.25900 0.28620 0.40368 -0.39100
O 	O 	0.00380 0.10240 0.36585 -0.50900
O 	O 	0.86720 0.05330 0.30340 -0.42200
O 	O 	0.49920 0.10790 0.35604 -0.40700
O 	O 	0.55580 0.05310 0.29240 -0.38800
O 	O 	0.03200 0.85590 0.17613 -0.42200
O 	O 	0.24920 0.81310 0.18257 -0.42800
