data_crystal

_cell_length_a 8.63000
_cell_length_b 13.53300
_cell_length_c 13.53300
_cell_angle_alpha 93.41340
_cell_angle_beta  97.03600
_cell_angle_gamma 97.03600

_symmetry_space_group_name_	'P 1'
_symmetry_space_group_name_H-M	'P 1'

loop_
_symmetry_equiv_pos_as_xyz
  x,y,z

loop_
_atom_site_label
_atom_site_type_symbol
_atom_site_fract_x
_atom_site_fract_y
_atom_site_fract_z
_atom_site_charge
Ni	Ni	0.75000 0.67710 0.32290 1.06300
H 	H 	0.94430 0.74560 0.16040 -0.00800
H 	H 	0.92430 0.73500 0.98060 0.06600
H 	H 	0.46750 0.60170 0.96150 0.07000
H 	H 	0.50460 0.60590 0.14070 -0.01400
H 	H 	0.59640 0.69580 0.82180 0.08600
H 	H 	0.66680 0.59580 0.82240 0.09700
H 	H 	0.67350 0.81460 0.49000 -0.00200
H 	H 	0.70140 0.82920 0.67260 0.05700
H 	H 	0.92170 0.57250 0.66610 0.07600
H 	H 	0.88450 0.55870 0.49710 -0.00100
H 	H 	0.83300 0.77990 0.83450 0.05400
H 	H 	0.90840 0.68190 0.84250 0.04800
H 	H 	0.55570 0.83960 0.25440 -0.00700
H 	H 	0.57570 0.01940 0.26500 0.06700
H 	H 	0.03250 0.03850 0.39830 0.07100
H 	H 	0.99540 0.85930 0.39410 -0.01300
H 	H 	0.90360 0.17820 0.30420 0.08600
H 	H 	0.83320 0.17760 0.40420 0.09700
H 	H 	0.82650 0.51000 0.18540 -0.00200
H 	H 	0.79860 0.32740 0.17080 0.05700
H 	H 	0.57830 0.33390 0.42750 0.07600
H 	H 	0.61550 0.50290 0.44130 -0.00100
H 	H 	0.66700 0.16550 0.22010 0.05400
H 	H 	0.59160 0.15750 0.31810 0.04800
C 	C 	0.83800 0.71300 0.12300 0.07000
C 	C 	0.83200 0.71110 0.01490 -0.15000
C 	C 	0.69600 0.66900 0.95900 0.13600
C 	C 	0.57400 0.62800 0.00400 -0.16400
C 	C 	0.58800 0.63610 0.10590 0.08800
C 	C 	0.68800 0.66200 0.85000 -0.21000
C 	C 	0.72600 0.76400 0.53000 0.04900
C 	C 	0.74100 0.77100 0.63900 -0.12100
C 	C 	0.81000 0.69700 0.68900 0.08200
C 	C 	0.86500 0.62400 0.63600 -0.14000
C 	C 	0.85200 0.62000 0.53600 0.06900
C 	C 	0.81600 0.71400 0.80600 -0.09800
C 	C 	0.10900 0.65610 0.34590 0.17400
C 	C 	0.66200 0.87700 0.28700 0.07000
C 	C 	0.66800 0.98510 0.28890 -0.15100
C 	C 	0.80400 0.04100 0.33100 0.13500
C 	C 	0.92600 0.99600 0.37200 -0.16200
C 	C 	0.91200 0.89410 0.36390 0.08700
C 	C 	0.81200 0.15000 0.33800 -0.20900
C 	C 	0.77400 0.47000 0.23600 0.04900
C 	C 	0.75900 0.36100 0.22900 -0.12100
C 	C 	0.69000 0.31100 0.30300 0.08200
C 	C 	0.63500 0.36400 0.37600 -0.14100
C 	C 	0.64800 0.46400 0.38000 0.06900
C 	C 	0.68400 0.19400 0.28600 -0.09800
C 	C 	0.39100 0.65410 0.34390 0.17500
N 	N 	0.72000 0.67450 0.16570 -0.24300
N 	N 	0.77900 0.68800 0.48380 -0.22700
N 	N 	0.98800 0.67180 0.33040 -0.28600
N 	N 	0.78000 0.83430 0.32550 -0.24300
N 	N 	0.72100 0.51620 0.31200 -0.22700
N 	N 	0.51200 0.66960 0.32820 -0.28700
N 	N 	0.25000 0.62400 0.37600 -0.18400
Ni	Ni	0.25000 0.32290 0.67710 1.06400
H 	H 	0.05570 0.25440 0.83960 -0.00700
H 	H 	0.07570 0.26500 0.01940 0.06700
H 	H 	0.53250 0.39830 0.03850 0.07100
H 	H 	0.49540 0.39410 0.85930 -0.01400
H 	H 	0.40360 0.30420 0.17820 0.08600
H 	H 	0.33320 0.40420 0.17760 0.09700
H 	H 	0.32650 0.18540 0.51000 -0.00200
H 	H 	0.29860 0.17080 0.32740 0.05700
H 	H 	0.07830 0.42750 0.33390 0.07600
H 	H 	0.11550 0.44130 0.50290 -0.00100
H 	H 	0.16700 0.22010 0.16550 0.05400
H 	H 	0.09160 0.31810 0.15750 0.04800
H 	H 	0.44430 0.16040 0.74560 -0.00700
H 	H 	0.42430 0.98060 0.73500 0.06700
H 	H 	0.96750 0.96150 0.60170 0.07100
H 	H 	0.00460 0.14070 0.60590 -0.01300
H 	H 	0.09640 0.82180 0.69580 0.08600
H 	H 	0.16680 0.82240 0.59580 0.09700
H 	H 	0.17350 0.49000 0.81460 -0.00200
H 	H 	0.20140 0.67260 0.82920 0.05700
H 	H 	0.42170 0.66610 0.57250 0.07600
H 	H 	0.38450 0.49710 0.55870 -0.00100
H 	H 	0.33300 0.83450 0.77990 0.05400
H 	H 	0.40840 0.84250 0.68190 0.04800
C 	C 	0.16200 0.28700 0.87700 0.07000
C 	C 	0.16800 0.28890 0.98510 -0.15000
C 	C 	0.30400 0.33100 0.04100 0.13600
C 	C 	0.42600 0.37200 0.99600 -0.16400
C 	C 	0.41200 0.36390 0.89410 0.08800
C 	C 	0.31200 0.33800 0.15000 -0.21000
C 	C 	0.27400 0.23600 0.47000 0.04900
C 	C 	0.25900 0.22900 0.36100 -0.12100
C 	C 	0.19000 0.30300 0.31100 0.08200
C 	C 	0.13500 0.37600 0.36400 -0.14000
C 	C 	0.14800 0.38000 0.46400 0.06900
C 	C 	0.18400 0.28600 0.19400 -0.09800
C 	C 	0.89100 0.34390 0.65410 0.17400
C 	C 	0.33800 0.12300 0.71300 0.07000
C 	C 	0.33200 0.01490 0.71110 -0.15100
C 	C 	0.19600 0.95900 0.66900 0.13500
C 	C 	0.07400 0.00400 0.62800 -0.16200
C 	C 	0.08800 0.10590 0.63610 0.08700
C 	C 	0.18800 0.85000 0.66200 -0.20900
C 	C 	0.22600 0.53000 0.76400 0.04900
C 	C 	0.24100 0.63900 0.77100 -0.12100
C 	C 	0.31000 0.68900 0.69700 0.08200
C 	C 	0.36500 0.63600 0.62400 -0.14100
C 	C 	0.35200 0.53600 0.62000 0.06900
C 	C 	0.31600 0.80600 0.71400 -0.09800
C 	C 	0.60900 0.34590 0.65610 0.17500
N 	N 	0.28000 0.32550 0.83430 -0.24300
N 	N 	0.22100 0.31200 0.51620 -0.22700
N 	N 	0.01200 0.32820 0.66960 -0.28600
N 	N 	0.22000 0.16570 0.67450 -0.24300
N 	N 	0.27900 0.48380 0.68800 -0.22700
N 	N 	0.48800 0.33040 0.67180 -0.28700
N 	N 	0.75000 0.37600 0.62400 -0.18400
