data_crystal

_cell_length_a 15.32130
_cell_length_b 15.32130
_cell_length_c 32.57100
_cell_angle_alpha 90.00000
_cell_angle_beta  90.00000
_cell_angle_gamma 120.00000

_symmetry_space_group_name_	'P 1'
_symmetry_space_group_name_H-M	'P 1'

loop_
_symmetry_equiv_pos_as_xyz
  x,y,z

loop_
_atom_site_label
_atom_site_type_symbol
_atom_site_fract_x
_atom_site_fract_y
_atom_site_fract_z
_atom_site_charge
In	In	0.42035 0.84070 0.40789 1.97400
In	In	0.42035 0.57965 0.40789 1.97400
In	In	0.15930 0.57965 0.40789 1.97300
In	In	0.57965 0.15930 0.90789 1.97400
In	In	0.57965 0.42035 0.90789 1.97400
In	In	0.84070 0.42035 0.90789 1.97400
In	In	0.57965 0.15930 0.59211 1.97300
In	In	0.84070 0.42035 0.59211 1.97400
In	In	0.57965 0.42035 0.59211 1.97400
In	In	0.42035 0.84070 0.09211 1.97400
In	In	0.15930 0.57965 0.09211 1.97300
In	In	0.42035 0.57965 0.09211 1.97300
In	In	0.50000 0.00000 0.50000 2.00100
In	In	0.50000 0.50000 0.50000 2.00800
In	In	0.00000 0.50000 0.50000 2.00100
In	In	0.50000 0.00000 -0.00000 1.98700
In	In	0.50000 0.50000 -0.00000 1.99400
In	In	-0.00000 0.50000 -0.00000 1.98600
In	In	0.07726 0.15452 0.25000 1.96800
In	In	0.07726 0.92274 0.25000 1.97500
In	In	0.84548 0.92274 0.25000 1.98600
In	In	0.92274 0.84548 0.75000 1.98600
In	In	0.92274 0.07726 0.75000 1.97500
In	In	0.15452 0.07726 0.75000 1.96900
H 	H 	0.28280 0.01020 0.35520 -0.02400
H 	H 	0.72740 0.71720 0.35520 -0.01200
H 	H 	0.98980 0.27260 0.35520 -0.00700
H 	H 	0.71720 0.98980 0.85520 -0.00300
H 	H 	0.27260 0.28280 0.85520 -0.01500
H 	H 	0.01020 0.72740 0.85520 -0.01900
H 	H 	0.27260 0.98980 0.64480 -0.00800
H 	H 	0.01020 0.28280 0.64480 -0.02400
H 	H 	0.71720 0.72740 0.64480 -0.01200
H 	H 	0.72740 0.01020 0.14480 -0.02300
H 	H 	0.98980 0.71720 0.14480 -0.00700
H 	H 	0.28280 0.27260 0.14480 -0.02100
H 	H 	0.71720 0.98980 0.64480 -0.00500
H 	H 	0.27260 0.28280 0.64480 -0.01800
H 	H 	0.01020 0.72740 0.64480 -0.02200
H 	H 	0.28280 0.01020 0.14480 -0.02600
H 	H 	0.72740 0.71720 0.14480 -0.01500
H 	H 	0.98980 0.27260 0.14480 -0.01000
H 	H 	0.72740 0.01020 0.35520 -0.02100
H 	H 	0.98980 0.71720 0.35520 -0.00500
H 	H 	0.28280 0.27260 0.35520 -0.01800
H 	H 	0.27260 0.98980 0.85520 -0.00600
H 	H 	0.01020 0.28280 0.85520 -0.02100
H 	H 	0.71720 0.72740 0.85520 -0.01000
H 	H 	0.42460 0.21230 0.44560 0.01200
H 	H 	0.78770 0.57540 0.44560 0.01100
H 	H 	0.78770 0.21230 0.44560 0.01100
H 	H 	0.57540 0.78770 0.94560 0.02400
H 	H 	0.21230 0.42460 0.94560 0.02500
H 	H 	0.21230 0.78770 0.94560 0.02400
H 	H 	0.21230 0.78770 0.55440 0.01100
H 	H 	0.21230 0.42460 0.55440 0.01200
H 	H 	0.57540 0.78770 0.55440 0.01100
H 	H 	0.78770 0.21230 0.05440 -0.00100
H 	H 	0.78770 0.57540 0.05440 -0.00100
H 	H 	0.42460 0.21230 0.05440 -0.00100
C 	C 	0.39110 0.03180 0.42270 0.45500
C 	C 	0.35880 0.09940 0.40310 -0.21100
C 	C 	0.30200 0.07210 0.36730 0.14100
C 	C 	0.64070 0.60890 0.42270 0.49100
C 	C 	0.74060 0.64120 0.40310 -0.21400
C 	C 	0.77010 0.69800 0.36730 0.14800
C 	C 	0.96820 0.35930 0.42270 0.53000
C 	C 	0.90060 0.25940 0.40310 -0.22100
C 	C 	0.92790 0.22990 0.36730 0.15100
C 	C 	0.60890 0.96820 0.92270 0.52500
C 	C 	0.64120 0.90060 0.90310 -0.20900
C 	C 	0.69800 0.92790 0.86730 0.14800
C 	C 	0.35930 0.39110 0.92270 0.48300
C 	C 	0.25940 0.35880 0.90310 -0.20600
C 	C 	0.22990 0.30200 0.86730 0.14000
C 	C 	0.03180 0.64070 0.92270 0.44800
C 	C 	0.09940 0.74060 0.90310 -0.19900
C 	C 	0.07210 0.77010 0.86730 0.13700
C 	C 	0.35930 0.96820 0.57730 0.52700
C 	C 	0.25940 0.90060 0.59690 -0.22100
C 	C 	0.22990 0.92790 0.63270 0.15100
C 	C 	0.03180 0.39110 0.57730 0.45200
C 	C 	0.09940 0.35880 0.59690 -0.21100
C 	C 	0.07210 0.30200 0.63270 0.14000
C 	C 	0.60890 0.64070 0.57730 0.49100
C 	C 	0.64120 0.74060 0.59690 -0.21400
C 	C 	0.69800 0.77010 0.63270 0.14700
C 	C 	0.64070 0.03180 0.07730 0.45900
C 	C 	0.74060 0.09940 0.09690 -0.21900
C 	C 	0.77010 0.07210 0.13270 0.14600
C 	C 	0.96820 0.60890 0.07730 0.53700
C 	C 	0.90060 0.64120 0.09690 -0.23000
C 	C 	0.92790 0.69800 0.13270 0.15700
C 	C 	0.39110 0.35930 0.07730 0.49200
C 	C 	0.35880 0.25940 0.09690 -0.22600
C 	C 	0.30200 0.22990 0.13270 0.14900
C 	C 	0.60890 0.96820 0.57730 0.53000
C 	C 	0.64120 0.90060 0.59690 -0.22000
C 	C 	0.69800 0.92790 0.63270 0.15200
C 	C 	0.35930 0.39110 0.57730 0.48800
C 	C 	0.25940 0.35880 0.59690 -0.21600
C 	C 	0.22990 0.30200 0.63270 0.14500
C 	C 	0.03180 0.64070 0.57730 0.45200
C 	C 	0.09940 0.74060 0.59690 -0.20900
C 	C 	0.07210 0.77010 0.63270 0.14100
C 	C 	0.39110 0.03180 0.07730 0.45900
C 	C 	0.35880 0.09940 0.09690 -0.22100
C 	C 	0.30200 0.07210 0.13270 0.14400
C 	C 	0.64070 0.60890 0.07730 0.49400
C 	C 	0.74060 0.64120 0.09690 -0.22300
C 	C 	0.77010 0.69800 0.13270 0.15100
C 	C 	0.96820 0.35930 0.07730 0.53500
C 	C 	0.90060 0.25940 0.09690 -0.23100
C 	C 	0.92790 0.22990 0.13270 0.15500
C 	C 	0.64070 0.03180 0.42270 0.45400
C 	C 	0.74060 0.09940 0.40310 -0.20900
C 	C 	0.77010 0.07210 0.36730 0.14200
C 	C 	0.96820 0.60890 0.42270 0.53200
C 	C 	0.90060 0.64120 0.40310 -0.22000
C 	C 	0.92790 0.69800 0.36730 0.15300
C 	C 	0.39110 0.35930 0.42270 0.48800
C 	C 	0.35880 0.25940 0.40310 -0.21600
C 	C 	0.30200 0.22990 0.36730 0.14500
C 	C 	0.35930 0.96820 0.92270 0.52200
C 	C 	0.25940 0.90060 0.90310 -0.21000
C 	C 	0.22990 0.92790 0.86730 0.14600
C 	C 	0.03180 0.39110 0.92270 0.44900
C 	C 	0.09940 0.35880 0.90310 -0.20000
C 	C 	0.07210 0.30200 0.86730 0.13600
C 	C 	0.60890 0.64070 0.92270 0.48500
C 	C 	0.64120 0.74060 0.90310 -0.20300
C 	C 	0.69800 0.77010 0.86730 0.14300
C 	C 	0.20640 0.10320 0.31120 0.48700
C 	C 	0.27360 0.13680 0.34940 -0.22400
C 	C 	0.38720 0.19360 0.42150 0.12800
C 	C 	0.89680 0.79360 0.31120 0.48600
C 	C 	0.86320 0.72640 0.34940 -0.21300
C 	C 	0.80640 0.61280 0.42150 0.14000
C 	C 	0.89680 0.10320 0.31120 0.48600
C 	C 	0.86320 0.13680 0.34940 -0.21800
C 	C 	0.80640 0.19360 0.42150 0.13400
C 	C 	0.79360 0.89680 0.81120 0.48500
C 	C 	0.72640 0.86320 0.84940 -0.20800
C 	C 	0.61280 0.80640 0.92150 0.13300
C 	C 	0.10320 0.20640 0.81120 0.48600
C 	C 	0.13680 0.27360 0.84940 -0.21900
C 	C 	0.19360 0.38720 0.92150 0.12200
C 	C 	0.10320 0.89680 0.81120 0.48600
C 	C 	0.13680 0.86320 0.84940 -0.21400
C 	C 	0.19360 0.80640 0.92150 0.12700
C 	C 	0.10320 0.89680 0.68880 0.48600
C 	C 	0.13680 0.86320 0.65060 -0.21900
C 	C 	0.19360 0.80640 0.57850 0.13300
C 	C 	0.10320 0.20640 0.68880 0.48700
C 	C 	0.13680 0.27360 0.65060 -0.22400
C 	C 	0.19360 0.38720 0.57850 0.12800
C 	C 	0.79360 0.89680 0.68880 0.48600
C 	C 	0.72640 0.86320 0.65060 -0.21300
C 	C 	0.61280 0.80640 0.57850 0.13900
C 	C 	0.89680 0.10320 0.18880 0.48700
C 	C 	0.86320 0.13680 0.15060 -0.22300
C 	C 	0.80640 0.19360 0.07850 0.13900
C 	C 	0.89680 0.79360 0.18880 0.48700
C 	C 	0.86320 0.72640 0.15060 -0.21800
C 	C 	0.80640 0.61280 0.07850 0.14500
C 	C 	0.20640 0.10320 0.18880 0.48800
C 	C 	0.27360 0.13680 0.15060 -0.22900
C 	C 	0.38720 0.19360 0.07850 0.13300
O 	O 	0.18310 0.16500 0.29715 -0.62200
O 	O 	0.37990 0.95830 0.40149 -0.57300
O 	O 	0.42770 0.05410 0.45822 -0.56800
O 	O 	0.98190 0.81690 0.29715 -0.59000
O 	O 	0.57840 0.62010 0.40149 -0.60000
O 	O 	0.62640 0.57230 0.45822 -0.56500
O 	O 	0.83500 0.01810 0.29715 -0.62000
O 	O 	0.04170 0.42160 0.40149 -0.63800
O 	O 	0.94590 0.37360 0.45822 -0.56500
O 	O 	0.81690 0.83500 0.79715 -0.60100
O 	O 	0.62010 0.04170 0.90149 -0.63200
O 	O 	0.57230 0.94590 0.95822 -0.53900
O 	O 	0.01810 0.18310 0.79715 -0.63000
O 	O 	0.42160 0.37990 0.90149 -0.59900
O 	O 	0.37360 0.42770 0.95822 -0.54300
O 	O 	0.16500 0.98190 0.79715 -0.60100
O 	O 	0.95830 0.57840 0.90149 -0.56400
O 	O 	0.05410 0.62640 0.95822 -0.54100
O 	O 	0.01810 0.83500 0.70285 -0.62100
O 	O 	0.42160 0.04170 0.59851 -0.63600
O 	O 	0.37360 0.94590 0.54178 -0.56600
O 	O 	0.16500 0.18310 0.70285 -0.62200
O 	O 	0.95830 0.37990 0.59851 -0.57100
O 	O 	0.05410 0.42770 0.54178 -0.56800
O 	O 	0.81690 0.98190 0.70285 -0.59100
O 	O 	0.62010 0.57840 0.59851 -0.60000
O 	O 	0.57230 0.62640 0.54178 -0.56500
O 	O 	0.98190 0.16500 0.20285 -0.60100
O 	O 	0.57840 0.95830 0.09851 -0.57400
O 	O 	0.62640 0.05410 0.04178 -0.58600
O 	O 	0.83500 0.81690 0.20285 -0.60200
O 	O 	0.04170 0.62010 0.09851 -0.64300
O 	O 	0.94590 0.57230 0.04178 -0.58300
O 	O 	0.18310 0.01810 0.20285 -0.63100
O 	O 	0.37990 0.42160 0.09851 -0.60700
O 	O 	0.42770 0.37360 0.04178 -0.58800
O 	O 	0.81690 0.83500 0.70285 -0.60100
O 	O 	0.62010 0.04170 0.59851 -0.63600
O 	O 	0.57230 0.94590 0.54178 -0.56400
O 	O 	0.01810 0.18310 0.70285 -0.63100
O 	O 	0.42160 0.37990 0.59851 -0.60300
O 	O 	0.37360 0.42770 0.54178 -0.56800
O 	O 	0.16500 0.98190 0.70285 -0.60200
O 	O 	0.95830 0.57840 0.59851 -0.56800
O 	O 	0.05410 0.62640 0.54178 -0.56600
O 	O 	0.18310 0.16500 0.20285 -0.62300
O 	O 	0.37990 0.95830 0.09851 -0.57700
O 	O 	0.42770 0.05410 0.04178 -0.58800
O 	O 	0.98190 0.81690 0.20285 -0.59100
O 	O 	0.57840 0.62010 0.09851 -0.60400
O 	O 	0.62640 0.57230 0.04178 -0.58500
O 	O 	0.83500 0.01810 0.20285 -0.62000
O 	O 	0.04170 0.42160 0.09851 -0.64300
O 	O 	0.94590 0.37360 0.04178 -0.58500
O 	O 	0.98190 0.16500 0.29715 -0.60100
O 	O 	0.57840 0.95830 0.40149 -0.57000
O 	O 	0.62640 0.05410 0.45822 -0.56600
O 	O 	0.83500 0.81690 0.29715 -0.60100
O 	O 	0.04170 0.62010 0.40149 -0.63800
O 	O 	0.94590 0.57230 0.45822 -0.56400
O 	O 	0.18310 0.01810 0.29715 -0.63000
O 	O 	0.37990 0.42160 0.40149 -0.60300
O 	O 	0.42770 0.37360 0.45822 -0.56800
O 	O 	0.01810 0.83500 0.79715 -0.62000
O 	O 	0.42160 0.04170 0.90149 -0.63100
O 	O 	0.37360 0.94590 0.95822 -0.54100
O 	O 	0.16500 0.18310 0.79715 -0.62100
O 	O 	0.95830 0.37990 0.90149 -0.56800
O 	O 	0.05410 0.42770 0.95822 -0.54300
O 	O 	0.81690 0.98190 0.79715 -0.59000
O 	O 	0.62010 0.57840 0.90149 -0.59500
O 	O 	0.57230 0.62640 0.95822 -0.54000
O 	O 	0.42870 0.85740 0.47270 -0.67400
O 	O 	0.42870 0.57130 0.47270 -0.68200
O 	O 	0.14260 0.57130 0.47270 -0.68900
O 	O 	0.57130 0.14260 0.97270 -0.66000
O 	O 	0.57130 0.42870 0.97270 -0.65300
O 	O 	0.85740 0.42870 0.97270 -0.64600
O 	O 	0.57130 0.14260 0.52730 -0.68800
O 	O 	0.85740 0.42870 0.52730 -0.67400
O 	O 	0.57130 0.42870 0.52730 -0.68200
O 	O 	0.42870 0.85740 0.02730 -0.69800
O 	O 	0.14260 0.57130 0.02730 -0.71300
O 	O 	0.42870 0.57130 0.02730 -0.70600
O 	O 	0.00000 0.00000 0.25000 -1.07400
O 	O 	-0.00000 0.00000 0.75000 -1.07300
O 	O 	0.47110 0.73555 0.40620 -0.76700
O 	O 	0.26445 0.52890 0.40620 -0.77300
O 	O 	0.26445 0.73555 0.40620 -0.77100
O 	O 	0.52890 0.26445 0.90620 -0.76900
O 	O 	0.73555 0.47110 0.90620 -0.76300
O 	O 	0.73555 0.26445 0.90620 -0.76600
O 	O 	0.73555 0.26445 0.59380 -0.77100
O 	O 	0.73555 0.47110 0.59380 -0.76700
O 	O 	0.52890 0.26445 0.59380 -0.77300
O 	O 	0.26445 0.73555 0.09380 -0.77600
O 	O 	0.26445 0.52890 0.09380 -0.77800
O 	O 	0.47110 0.73555 0.09380 -0.77200
