data_crystal

_cell_length_a 28.76400
_cell_length_b 28.76400
_cell_length_c 12.56300
_cell_angle_alpha 90.00000
_cell_angle_beta  90.00000
_cell_angle_gamma 120.00000

_symmetry_space_group_name_	'P 1'
_symmetry_space_group_name_H-M	'P 1'

loop_
_symmetry_equiv_pos_as_xyz
  x,y,z

loop_
_atom_site_label
_atom_site_type_symbol
_atom_site_fract_x
_atom_site_fract_y
_atom_site_fract_z
_atom_site_charge
C 	C 	0.42150 0.02210 0.88020 0.32000
C 	C 	0.47270 0.02170 0.86580 -0.12100
C 	C 	0.51830 0.06000 0.91810 0.04600
H 	H 	0.51740 0.08690 0.95910 0.04900
C 	C 	0.56520 0.05770 0.90870 -0.09100
H 	H 	0.59660 0.08420 0.94190 0.07900
C 	C 	0.56680 0.01710 0.85090 0.03000
C 	C 	0.52170 0.97930 0.79790 -0.08100
H 	H 	0.52300 0.95330 0.75490 0.06800
C 	C 	0.47350 0.98050 0.80920 0.06700
H 	H 	0.44180 0.95320 0.77840 0.01600
C 	C 	0.61830 0.01580 0.84060 0.03900
C 	C 	0.61860 0.96830 0.84140 -0.08500
H 	H 	0.58580 0.93580 0.84750 0.07200
C 	C 	0.70270 0.90860 0.76990 -0.08800
H 	H 	0.72770 0.93730 0.72770 0.06900
C 	C 	0.70220 0.86070 0.76800 0.02700
H 	H 	0.72560 0.85590 0.72320 0.03800
O 	O 	0.42093 0.05521 0.94630 -0.32300
O 	O 	0.37871 0.98678 0.83300 -0.43600
O 	O 	0.68300 0.75396 0.75020 -0.42400
C 	C 	0.08817 0.35543 0.21353 0.33600
C 	C 	0.13937 0.35503 0.19913 -0.13000
C 	C 	0.18497 0.39333 0.25143 0.03900
H 	H 	0.18407 0.42023 0.29243 0.02800
C 	C 	0.23187 0.39103 0.24203 -0.11200
H 	H 	0.26327 0.41753 0.27523 0.06400
C 	C 	0.23347 0.35043 0.18423 0.03800
C 	C 	0.18837 0.31263 0.13123 -0.12200
H 	H 	0.18967 0.28663 0.08823 0.05000
C 	C 	0.14017 0.31383 0.14253 0.03700
H 	H 	0.10847 0.28653 0.11173 -0.00400
C 	C 	0.28497 0.34913 0.17393 0.02900
C 	C 	0.28527 0.30163 0.17473 -0.10400
H 	H 	0.25247 0.26913 0.18083 0.05500
C 	C 	0.36937 0.24193 0.10323 -0.11500
H 	H 	0.39437 0.27063 0.06103 0.04600
C 	C 	0.36887 0.19403 0.10133 0.02800
H 	H 	0.39227 0.18923 0.05653 0.00800
O 	O 	0.08760 0.38854 0.27963 -0.37500
O 	O 	0.04538 0.32011 0.16633 -0.48700
O 	O 	0.34967 0.08729 0.08353 -0.45600
C 	C 	0.75483 0.68877 0.54687 0.33600
C 	C 	0.80603 0.68837 0.53247 -0.11800
C 	C 	0.85163 0.72667 0.58477 0.03800
H 	H 	0.85073 0.75357 0.62577 0.03700
C 	C 	0.89853 0.72437 0.57537 -0.10000
H 	H 	0.92993 0.75087 0.60857 0.06900
C 	C 	0.90013 0.68377 0.51757 0.03700
C 	C 	0.85503 0.64597 0.46457 -0.10700
H 	H 	0.85633 0.61997 0.42157 0.06600
C 	C 	0.80683 0.64717 0.47587 0.04100
H 	H 	0.77513 0.61987 0.44507 0.01100
C 	C 	0.95163 0.68247 0.50727 0.06100
C 	C 	0.95193 0.63497 0.50807 -0.09000
H 	H 	0.91913 0.60247 0.51417 0.06100
C 	C 	0.03603 0.57527 0.43657 -0.10200
H 	H 	0.06103 0.60397 0.39437 0.06400
C 	C 	0.03553 0.52737 0.43467 0.03400
H 	H 	0.05893 0.52257 0.38987 0.02800
O 	O 	0.75426 0.72188 0.61297 -0.36700
O 	O 	0.71204 0.65345 0.49967 -0.47700
O 	O 	0.01633 0.42063 0.41687 -0.43800
C 	C 	0.97790 0.39940 0.88020 0.35500
C 	C 	0.97830 0.45100 0.86580 -0.08800
C 	C 	0.94000 0.45830 0.91810 0.04500
H 	H 	0.91310 0.43050 0.95910 0.05000
C 	C 	0.94230 0.50750 0.90870 -0.09400
H 	H 	0.91580 0.51240 0.94190 0.08100
C 	C 	0.98290 0.54970 0.85090 0.06600
C 	C 	0.02070 0.54240 0.79790 -0.12100
H 	H 	0.04670 0.56970 0.75490 0.07300
C 	C 	0.01950 0.49300 0.80920 0.03000
H 	H 	0.04680 0.48860 0.77840 0.02200
C 	C 	0.98420 0.60250 0.84060 0.07000
C 	C 	0.03170 0.65030 0.84140 -0.12100
H 	H 	0.06420 0.65000 0.84750 0.07900
C 	C 	0.09140 0.79410 0.76990 -0.09500
H 	H 	0.06270 0.79040 0.72770 0.06300
C 	C 	0.13930 0.84150 0.76800 0.02900
H 	H 	0.14410 0.86970 0.72320 0.03600
O 	O 	0.94479 0.36572 0.94630 -0.32400
O 	O 	0.01322 0.39193 0.83300 -0.47100
O 	O 	0.24604 0.92904 0.75020 -0.42100
C 	C 	0.64457 0.73273 0.21353 0.33500
C 	C 	0.64497 0.78433 0.19913 -0.13000
C 	C 	0.60667 0.79163 0.25143 0.04000
H 	H 	0.57977 0.76383 0.29243 0.02800
C 	C 	0.60897 0.84083 0.24203 -0.11400
H 	H 	0.58247 0.84573 0.27523 0.06500
C 	C 	0.64957 0.88303 0.18423 0.04200
C 	C 	0.68737 0.87573 0.13123 -0.12400
H 	H 	0.71337 0.90303 0.08823 0.05500
C 	C 	0.68617 0.82633 0.14253 0.03900
H 	H 	0.71347 0.82193 0.11173 -0.00100
C 	C 	0.65087 0.93583 0.17393 0.02400
C 	C 	0.69837 0.98363 0.17473 -0.07500
H 	H 	0.73087 0.98333 0.18083 0.05400
C 	C 	0.75807 0.12743 0.10323 -0.11800
H 	H 	0.72937 0.12373 0.06103 0.04600
C 	C 	0.80597 0.17483 0.10133 0.02900
H 	H 	0.81077 0.20303 0.05653 0.00800
O 	O 	0.61146 0.69905 0.27963 -0.37100
O 	O 	0.67989 0.72526 0.16633 -0.48000
O 	O 	0.91271 0.26237 0.08353 -0.45100
C 	C 	0.31123 0.06607 0.54687 0.33700
C 	C 	0.31163 0.11767 0.53247 -0.12300
C 	C 	0.27333 0.12497 0.58477 0.04000
H 	H 	0.24643 0.09717 0.62577 0.03000
C 	C 	0.27563 0.17417 0.57537 -0.10700
H 	H 	0.24913 0.17907 0.60857 0.06500
C 	C 	0.31623 0.21637 0.51757 0.04300
C 	C 	0.35403 0.20907 0.46457 -0.11200
H 	H 	0.38003 0.23637 0.42157 0.06800
C 	C 	0.35283 0.15967 0.47587 0.04500
H 	H 	0.38013 0.15527 0.44507 0.01000
C 	C 	0.31753 0.26917 0.50727 0.04100
C 	C 	0.36503 0.31697 0.50807 -0.10300
H 	H 	0.39753 0.31667 0.51417 0.06300
C 	C 	0.42473 0.46077 0.43657 -0.10200
H 	H 	0.39603 0.45707 0.39437 0.06500
C 	C 	0.47263 0.50817 0.43467 0.03200
H 	H 	0.47743 0.53637 0.38987 0.03000
O 	O 	0.27812 0.03239 0.61297 -0.38000
O 	O 	0.34655 0.05860 0.49967 -0.48200
O 	O 	0.57937 0.59571 0.41687 -0.43400
C 	C 	0.60060 0.57850 0.88020 0.33800
C 	C 	0.54900 0.52730 0.86580 -0.10500
C 	C 	0.54170 0.48170 0.91810 0.04600
H 	H 	0.56950 0.48260 0.95910 0.05000
C 	C 	0.49250 0.43480 0.90870 -0.09300
H 	H 	0.48760 0.40340 0.94190 0.08100
C 	C 	0.45030 0.43320 0.85090 0.04900
C 	C 	0.45760 0.47830 0.79790 -0.10200
H 	H 	0.43030 0.47700 0.75490 0.07000
C 	C 	0.50700 0.52650 0.80920 0.04700
H 	H 	0.51140 0.55820 0.77840 0.01900
C 	C 	0.39750 0.38170 0.84060 0.05500
C 	C 	0.34970 0.38140 0.84140 -0.10300
H 	H 	0.35000 0.41420 0.84750 0.07500
C 	C 	0.20590 0.29730 0.76990 -0.09300
H 	H 	0.20960 0.27230 0.72770 0.06400
C 	C 	0.15850 0.29780 0.76800 0.02900
H 	H 	0.13030 0.27440 0.72320 0.03300
O 	O 	0.63428 0.57907 0.94630 -0.32600
O 	O 	0.60807 0.62129 0.83300 -0.45600
O 	O 	0.07096 0.31700 0.75020 -0.42800
C 	C 	0.26727 0.91183 0.21353 0.33100
C 	C 	0.21567 0.86063 0.19913 -0.12400
C 	C 	0.20837 0.81503 0.25143 0.03400
H 	H 	0.23617 0.81593 0.29243 0.03000
C 	C 	0.15917 0.76813 0.24203 -0.10700
H 	H 	0.15427 0.73673 0.27523 0.06200
C 	C 	0.11697 0.76653 0.18423 0.03200
C 	C 	0.12427 0.81163 0.13123 -0.11600
H 	H 	0.09697 0.81033 0.08823 0.04900
C 	C 	0.17367 0.85983 0.14253 0.03200
H 	H 	0.17807 0.89153 0.11173 0.00200
C 	C 	0.06417 0.71503 0.17393 0.03700
C 	C 	0.01637 0.71473 0.17473 -0.13000
H 	H 	0.01667 0.74753 0.18083 0.06100
C 	C 	0.87257 0.63063 0.10323 -0.11000
H 	H 	0.87627 0.60563 0.06103 0.04500
C 	C 	0.82517 0.63113 0.10133 0.02500
H 	H 	0.79697 0.60773 0.05653 0.00900
O 	O 	0.30095 0.91240 0.27963 -0.36500
O 	O 	0.27474 0.95462 0.16633 -0.46700
O 	O 	0.73763 0.65033 0.08353 -0.45600
C 	C 	0.93393 0.24517 0.54687 0.33600
C 	C 	0.88233 0.19397 0.53247 -0.11700
C 	C 	0.87503 0.14837 0.58477 0.03500
H 	H 	0.90283 0.14927 0.62577 0.03600
C 	C 	0.82583 0.10147 0.57537 -0.10000
H 	H 	0.82093 0.07007 0.60857 0.06200
C 	C 	0.78363 0.09987 0.51757 0.03600
C 	C 	0.79093 0.14497 0.46457 -0.10700
H 	H 	0.76363 0.14367 0.42157 0.06600
C 	C 	0.84033 0.19317 0.47587 0.04000
H 	H 	0.84473 0.22487 0.44507 0.01200
C 	C 	0.73083 0.04837 0.50727 0.05100
C 	C 	0.68303 0.04807 0.50807 -0.10800
H 	H 	0.68333 0.08087 0.51417 0.06500
C 	C 	0.53923 0.96397 0.43657 -0.08200
H 	H 	0.54293 0.93897 0.39437 0.06200
C 	C 	0.49183 0.96447 0.43467 0.05400
H 	H 	0.46363 0.94107 0.38987 0.02600
O 	O 	0.96761 0.24574 0.61297 -0.35900
O 	O 	0.94140 0.28796 0.49967 -0.47200
O 	O 	0.40429 0.98367 0.41687 -0.40900
C 	C 	0.02210 0.42150 0.11980 0.31900
C 	C 	0.02170 0.47270 0.13420 -0.15100
C 	C 	0.06000 0.51830 0.08190 0.03600
H 	H 	0.08690 0.51740 0.04090 0.01200
C 	C 	0.05770 0.56520 0.09130 -0.11500
H 	H 	0.08420 0.59660 0.05810 0.04700
C 	C 	0.01710 0.56680 0.14910 0.01900
C 	C 	0.97930 0.52170 0.20210 -0.10000
H 	H 	0.95330 0.52300 0.24510 0.06400
C 	C 	0.98050 0.47350 0.19080 0.05800
H 	H 	0.95320 0.44180 0.22160 0.00200
C 	C 	0.01580 0.61830 0.15940 0.01600
C 	C 	0.96830 0.61860 0.15860 -0.08800
H 	H 	0.93580 0.58580 0.15250 0.05000
C 	C 	0.90860 0.70270 0.23010 -0.10500
H 	H 	0.93730 0.72770 0.27230 0.06800
C 	C 	0.86070 0.70220 0.23200 0.03000
H 	H 	0.85590 0.72560 0.27680 0.02800
O 	O 	0.05521 0.42093 0.05370 -0.39400
O 	O 	0.98678 0.37871 0.16700 -0.46600
O 	O 	0.75396 0.68300 0.24980 -0.43600
C 	C 	0.68877 0.75483 0.45313 0.33800
C 	C 	0.68837 0.80603 0.46753 -0.11800
C 	C 	0.72667 0.85163 0.41523 0.04000
H 	H 	0.75357 0.85073 0.37423 0.03200
C 	C 	0.72437 0.89853 0.42463 -0.10000
H 	H 	0.75087 0.92993 0.39143 0.06600
C 	C 	0.68377 0.90013 0.48243 0.03800
C 	C 	0.64597 0.85503 0.53543 -0.10700
H 	H 	0.61997 0.85633 0.57843 0.06800
C 	C 	0.64717 0.80683 0.52413 0.04200
H 	H 	0.61987 0.77513 0.55493 0.01400
C 	C 	0.68247 0.95163 0.49273 0.06400
C 	C 	0.63497 0.95193 0.49193 -0.08800
H 	H 	0.60247 0.91913 0.48583 0.06200
C 	C 	0.57527 0.03603 0.56343 -0.10300
H 	H 	0.60397 0.06103 0.60563 0.06400
C 	C 	0.52737 0.03553 0.56533 0.03300
H 	H 	0.52257 0.05893 0.61013 0.02800
O 	O 	0.72188 0.75426 0.38703 -0.37000
O 	O 	0.65345 0.71204 0.50033 -0.47600
O 	O 	0.42063 0.01633 0.58313 -0.43800
C 	C 	0.35543 0.08817 0.78647 0.33700
C 	C 	0.35503 0.13937 0.80087 -0.10700
C 	C 	0.39333 0.18497 0.74857 0.04100
H 	H 	0.42023 0.18407 0.70757 0.03400
C 	C 	0.39103 0.23187 0.75797 -0.09700
H 	H 	0.41753 0.26327 0.72477 0.06400
C 	C 	0.35043 0.23347 0.81577 0.04700
C 	C 	0.31263 0.18837 0.86877 -0.10000
H 	H 	0.28663 0.18967 0.91177 0.08500
C 	C 	0.31383 0.14017 0.85747 0.04900
H 	H 	0.28653 0.10847 0.88827 0.02700
C 	C 	0.34913 0.28497 0.82607 0.05500
C 	C 	0.30163 0.28527 0.82527 -0.10300
H 	H 	0.26913 0.25247 0.81917 0.07100
C 	C 	0.24193 0.36937 0.89677 -0.08800
H 	H 	0.27063 0.39437 0.93897 0.08400
C 	C 	0.19403 0.36887 0.89867 0.03300
H 	H 	0.18923 0.39227 0.94347 0.05300
O 	O 	0.38854 0.08760 0.72037 -0.37200
O 	O 	0.32011 0.04538 0.83367 -0.45600
O 	O 	0.08729 0.34967 0.91647 -0.38800
C 	C 	0.39940 0.97790 0.11980 0.35700
C 	C 	0.45100 0.97830 0.13420 -0.11600
C 	C 	0.45830 0.94000 0.08190 0.03400
H 	H 	0.43050 0.91310 0.04090 0.01400
C 	C 	0.50750 0.94230 0.09130 -0.11800
H 	H 	0.51240 0.91580 0.05810 0.04900
C 	C 	0.54970 0.98290 0.14910 0.05700
C 	C 	0.54240 0.02070 0.20210 -0.14200
H 	H 	0.56970 0.04670 0.24510 0.07000
C 	C 	0.49300 0.01950 0.19080 0.01900
H 	H 	0.48860 0.04680 0.22160 0.00800
C 	C 	0.60250 0.98420 0.15940 0.04900
C 	C 	0.65030 0.03170 0.15860 -0.12600
H 	H 	0.65000 0.06420 0.15250 0.05700
C 	C 	0.79410 0.09140 0.23010 -0.11400
H 	H 	0.79040 0.06270 0.27230 0.06200
C 	C 	0.84150 0.13930 0.23200 0.03300
H 	H 	0.86970 0.14410 0.27680 0.02600
O 	O 	0.36572 0.94479 0.05370 -0.39500
O 	O 	0.39193 0.01322 0.16700 -0.50200
O 	O 	0.92904 0.24604 0.24980 -0.43300
C 	C 	0.06607 0.31123 0.45313 0.33900
C 	C 	0.11767 0.31163 0.46753 -0.12300
C 	C 	0.12497 0.27333 0.41523 0.04300
H 	H 	0.09717 0.24643 0.37423 0.02500
C 	C 	0.17417 0.27563 0.42463 -0.10700
H 	H 	0.17907 0.24913 0.39143 0.06200
C 	C 	0.21637 0.31623 0.48243 0.04400
C 	C 	0.20907 0.35403 0.53543 -0.11300
H 	H 	0.23637 0.38003 0.57843 0.07000
C 	C 	0.15967 0.35283 0.52413 0.04600
H 	H 	0.15527 0.38013 0.55493 0.01200
C 	C 	0.26917 0.31753 0.49273 0.04100
C 	C 	0.31697 0.36503 0.49193 -0.10300
H 	H 	0.31667 0.39753 0.48583 0.06400
C 	C 	0.46077 0.42473 0.56343 -0.10300
H 	H 	0.45707 0.39603 0.60563 0.06500
C 	C 	0.50817 0.47263 0.56533 0.03100
H 	H 	0.53637 0.47743 0.61013 0.03000
O 	O 	0.03239 0.27812 0.38703 -0.38200
O 	O 	0.05860 0.34655 0.50033 -0.48100
O 	O 	0.59571 0.57937 0.58313 -0.43400
C 	C 	0.73273 0.64457 0.78647 0.33600
C 	C 	0.78433 0.64497 0.80087 -0.10700
C 	C 	0.79163 0.60667 0.74857 0.04100
H 	H 	0.76383 0.57977 0.70757 0.03400
C 	C 	0.84083 0.60897 0.75797 -0.09900
H 	H 	0.84573 0.58247 0.72477 0.06500
C 	C 	0.88303 0.64957 0.81577 0.05000
C 	C 	0.87573 0.68737 0.86877 -0.10100
H 	H 	0.90303 0.71337 0.91177 0.08900
C 	C 	0.82633 0.68617 0.85747 0.05000
H 	H 	0.82193 0.71347 0.88827 0.03000
C 	C 	0.93583 0.65087 0.82607 0.05000
C 	C 	0.98363 0.69837 0.82527 -0.08000
H 	H 	0.98333 0.73087 0.81917 0.07000
C 	C 	0.12743 0.75807 0.89677 -0.09100
H 	H 	0.12373 0.72937 0.93897 0.08400
C 	C 	0.17483 0.80597 0.89867 0.03400
H 	H 	0.20303 0.81077 0.94347 0.05200
O 	O 	0.69905 0.61146 0.72037 -0.36700
O 	O 	0.72526 0.67989 0.83367 -0.44900
O 	O 	0.26237 0.91271 0.91647 -0.38300
C 	C 	0.57850 0.60060 0.11980 0.33600
C 	C 	0.52730 0.54900 0.13420 -0.13500
C 	C 	0.48170 0.54170 0.08190 0.03500
H 	H 	0.48260 0.56950 0.04090 0.01300
C 	C 	0.43480 0.49250 0.09130 -0.11700
H 	H 	0.40340 0.48760 0.05810 0.04800
C 	C 	0.43320 0.45030 0.14910 0.03600
C 	C 	0.47830 0.45760 0.20210 -0.12000
H 	H 	0.47700 0.43030 0.24510 0.06700
C 	C 	0.52650 0.50700 0.19080 0.04000
H 	H 	0.55820 0.51140 0.22160 0.00500
C 	C 	0.38170 0.39750 0.15940 0.03000
C 	C 	0.38140 0.34970 0.15860 -0.10500
H 	H 	0.41420 0.35000 0.15250 0.05300
C 	C 	0.29730 0.20590 0.23010 -0.11100
H 	H 	0.27230 0.20960 0.27230 0.06300
C 	C 	0.29780 0.15850 0.23200 0.03200
H 	H 	0.27440 0.13030 0.27680 0.02300
O 	O 	0.57907 0.63428 0.05370 -0.39700
O 	O 	0.62129 0.60807 0.16700 -0.48400
O 	O 	0.31700 0.07096 0.24980 -0.44000
C 	C 	0.24517 0.93393 0.45313 0.33700
C 	C 	0.19397 0.88233 0.46753 -0.11700
C 	C 	0.14837 0.87503 0.41523 0.03800
H 	H 	0.14927 0.90283 0.37423 0.03100
C 	C 	0.10147 0.82583 0.42463 -0.10000
H 	H 	0.07007 0.82093 0.39143 0.06000
C 	C 	0.09987 0.78363 0.48243 0.03800
C 	C 	0.14497 0.79093 0.53543 -0.10700
H 	H 	0.14367 0.76363 0.57843 0.06800
C 	C 	0.19317 0.84033 0.52413 0.04100
H 	H 	0.22487 0.84473 0.55493 0.01400
C 	C 	0.04837 0.73083 0.49273 0.05000
C 	C 	0.04807 0.68303 0.49193 -0.10700
H 	H 	0.08087 0.68333 0.48583 0.06600
C 	C 	0.96397 0.53923 0.56343 -0.08600
H 	H 	0.93897 0.54293 0.60563 0.06200
C 	C 	0.96447 0.49183 0.56533 0.05000
H 	H 	0.94107 0.46363 0.61013 0.02700
O 	O 	0.24574 0.96761 0.38703 -0.36100
O 	O 	0.28796 0.94140 0.50033 -0.47000
O 	O 	0.98367 0.40429 0.58313 -0.41300
C 	C 	0.91183 0.26727 0.78647 0.33300
C 	C 	0.86063 0.21567 0.80087 -0.10200
C 	C 	0.81503 0.20837 0.74857 0.03600
H 	H 	0.81593 0.23617 0.70757 0.03600
C 	C 	0.76813 0.15917 0.75797 -0.09200
H 	H 	0.73673 0.15427 0.72477 0.06200
C 	C 	0.76653 0.11697 0.81577 0.04000
C 	C 	0.81163 0.12427 0.86877 -0.09400
H 	H 	0.81033 0.09697 0.91177 0.08300
C 	C 	0.85983 0.17367 0.85747 0.04400
H 	H 	0.89153 0.17807 0.88827 0.03300
C 	C 	0.71503 0.06417 0.82607 0.06300
C 	C 	0.71473 0.01637 0.82527 -0.13200
H 	H 	0.74753 0.01667 0.81917 0.07600
C 	C 	0.63063 0.87257 0.89677 -0.08400
H 	H 	0.60563 0.87627 0.93897 0.08200
C 	C 	0.63113 0.82517 0.89867 0.03000
H 	H 	0.60773 0.79697 0.94347 0.05400
O 	O 	0.91240 0.30095 0.72037 -0.36200
O 	O 	0.95462 0.27474 0.83367 -0.43800
O 	O 	0.65033 0.73763 0.91647 -0.38800
C 	C 	0.66667 0.06348 0.83333 -0.11000
H 	H 	0.66667 0.09618 0.83333 0.07300
C 	C 	0.66667 0.96688 0.83333 0.07300
C 	C 	0.66667 0.91578 0.83333 0.03300
C 	C 	0.66667 0.81978 0.83333 -0.09700
C 	C 	0.66667 0.76628 0.83333 0.34400
C 	C 	0.93652 0.60318 0.83333 -0.10800
H 	H 	0.90382 0.57048 0.83333 0.07200
C 	C 	0.03312 0.69978 0.83333 0.03800
C 	C 	0.08422 0.75088 0.83333 0.04100
C 	C 	0.18022 0.84688 0.83333 -0.10000
C 	C 	0.23372 0.90038 0.83333 0.34400
C 	C 	0.39682 0.33333 0.83333 -0.10800
H 	H 	0.42952 0.33333 0.83333 0.07200
C 	C 	0.30022 0.33333 0.83333 0.05300
C 	C 	0.24912 0.33333 0.83333 0.03800
C 	C 	0.15312 0.33333 0.83333 -0.10100
C 	C 	0.09962 0.33333 0.83333 0.34400
C 	C 	0.06348 0.66667 0.16667 -0.11200
H 	H 	0.09618 0.66667 0.16667 0.05700
C 	C 	0.96688 0.66667 0.16667 0.04600
C 	C 	0.91578 0.66667 0.16667 0.02700
C 	C 	0.81978 0.66667 0.16667 -0.12800
C 	C 	0.76628 0.66667 0.16667 0.35000
C 	C 	0.73015 0.00000 0.50000 -0.14100
H 	H 	0.76285 0.00000 0.50000 0.06900
C 	C 	0.63355 0.00000 0.50000 0.02500
C 	C 	0.58245 0.00000 0.50000 0.01700
C 	C 	0.48645 0.00000 0.50000 -0.13700
C 	C 	0.43295 0.00000 0.50000 0.32900
C 	C 	0.60318 0.93652 0.16667 -0.11000
H 	H 	0.57048 0.90382 0.16667 0.05600
C 	C 	0.69978 0.03312 0.16667 0.00800
C 	C 	0.75088 0.08422 0.16667 0.03500
C 	C 	0.84688 0.18022 0.16667 -0.13100
C 	C 	0.90038 0.23372 0.16667 0.35000
C 	C 	0.26985 0.26985 0.50000 -0.10800
H 	H 	0.23715 0.23715 0.50000 0.06200
C 	C 	0.36645 0.36645 0.50000 0.04000
C 	C 	0.41755 0.41755 0.50000 0.03500
C 	C 	0.51355 0.51355 0.50000 -0.11700
C 	C 	0.56705 0.56705 0.50000 0.35000
C 	C 	0.33333 0.39682 0.16667 -0.11000
H 	H 	0.33333 0.42952 0.16667 0.05600
C 	C 	0.33333 0.30022 0.16667 0.02700
C 	C 	0.33333 0.24912 0.16667 0.03100
C 	C 	0.33333 0.15312 0.16667 -0.13200
C 	C 	0.33333 0.09962 0.16667 0.34900
C 	C 	-0.00000 0.73015 0.50000 -0.13700
H 	H 	0.00000 0.76285 0.50000 0.06800
C 	C 	-0.00000 0.63355 0.50000 0.02700
C 	C 	-0.00000 0.58245 0.50000 0.01900
C 	C 	-0.00000 0.48645 0.50000 -0.13500
C 	C 	-0.00000 0.43295 0.50000 0.33200
La	La	0.32222 0.00000 -0.00000 1.52300
La	La	0.98888 0.33333 0.33333 1.65700
La	La	0.65555 0.66667 0.66667 1.64100
La	La	-0.00000 0.32222 -0.00000 1.52700
La	La	0.66667 0.65555 0.33333 1.63700
La	La	0.33333 0.98888 0.66667 1.66400
La	La	0.67778 0.67778 -0.00000 1.54900
La	La	0.34445 0.01112 0.33333 1.61400
La	La	0.01112 0.34445 0.66667 1.62200
