data_crystal

_cell_length_a 16.91000
_cell_length_b 16.91000
_cell_length_c 10.00000
_cell_angle_alpha 90.00000
_cell_angle_beta  90.00000
_cell_angle_gamma 120.00000

_symmetry_space_group_name_	'P 1'
_symmetry_space_group_name_H-M	'P 1'

loop_
_symmetry_equiv_pos_as_xyz
  x,y,z

loop_
_atom_site_label
_atom_site_type_symbol
_atom_site_fract_x
_atom_site_fract_y
_atom_site_fract_z
_atom_site_charge
Au	Au	0.50000 0.00000 0.50000 0.42100
Au	Au	0.00000 0.50000 0.50000 0.42100
Au	Au	0.50000 0.50000 0.50000 0.43800
O 	O 	0.09557 0.46295 0.50000 -0.28400
O 	O 	0.53705 0.63259 0.50000 -0.27500
O 	O 	0.36751 0.90439 0.50000 -0.26400
O 	O 	0.90443 0.53705 0.50000 -0.26200
O 	O 	0.46295 0.36741 0.50000 -0.27800
O 	O 	0.63249 0.09561 0.50000 -0.28200
N 	N 	0.09534 0.63045 0.50000 -0.21100
N 	N 	0.36950 0.46476 0.50000 -0.21000
N 	N 	0.53523 0.90471 0.50000 -0.20300
N 	N 	0.90466 0.36955 0.50000 -0.20400
N 	N 	0.63050 0.53524 0.50000 -0.21000
N 	N 	0.46477 0.09529 0.50000 -0.21100
H 	H 	0.07055 0.67424 0.50000 0.09100
H 	H 	0.32565 0.39619 0.50000 0.09200
H 	H 	0.60381 0.92949 0.50000 0.10300
H 	H 	0.92945 0.32576 0.50000 0.10000
H 	H 	0.67435 0.60381 0.50000 0.09800
H 	H 	0.39619 0.07051 0.50000 0.08800
H 	H 	0.20350 0.80463 0.50000 0.09000
H 	H 	0.19536 0.39882 0.50000 0.08500
H 	H 	0.60120 0.79654 0.50000 0.09400
H 	H 	0.79650 0.19537 0.50000 0.08900
H 	H 	0.80464 0.60118 0.50000 0.09400
H 	H 	0.39880 0.20346 0.50000 0.08500
C 	C 	0.18627 0.51987 0.50000 0.22300
C 	C 	0.48016 0.66639 0.50000 0.22500
C 	C 	0.33365 0.81371 0.50000 0.22300
C 	C 	0.81373 0.48013 0.50000 0.22400
C 	C 	0.51984 0.33361 0.50000 0.22300
C 	C 	0.66635 0.18629 0.50000 0.22400
C 	C 	0.51804 0.18742 0.50000 0.16400
C 	C 	0.81254 0.33065 0.50000 0.16800
C 	C 	0.66934 0.48195 0.50000 0.16700
C 	C 	0.48196 0.81258 0.50000 0.16900
C 	C 	0.18746 0.66935 0.50000 0.16500
C 	C 	0.33066 0.51805 0.50000 0.16500
C 	C 	0.33337 0.66665 0.50000 0.14100
C 	C 	0.66663 0.33335 0.50000 0.14100
C 	C 	0.23854 0.76528 0.50000 -0.18600
C 	C 	0.23473 0.47321 0.50000 -0.18900
C 	C 	0.52681 0.76149 0.50000 -0.18700
C 	C 	0.76146 0.23472 0.50000 -0.18800
C 	C 	0.76527 0.52679 0.50000 -0.18500
C 	C 	0.47319 0.23851 0.50000 -0.18800
C 	C 	0.38201 0.61645 0.50000 -0.16600
C 	C 	0.38356 0.76549 0.50000 -0.16400
C 	C 	0.23452 0.61800 0.50000 -0.16700
C 	C 	0.61799 0.38355 0.50000 -0.16600
C 	C 	0.61644 0.23451 0.50000 -0.16700
C 	C 	0.76548 0.38200 0.50000 -0.16400
