data_crystal

_cell_length_a 25.63490
_cell_length_b 25.63490
_cell_length_c 25.63490
_cell_angle_alpha 90.00000
_cell_angle_beta  90.00000
_cell_angle_gamma 90.00000

_symmetry_space_group_name_	'P 1'
_symmetry_space_group_name_H-M	'P 1'

loop_
_symmetry_equiv_pos_as_xyz
  x,y,z

loop_
_atom_site_label
_atom_site_type_symbol
_atom_site_fract_x
_atom_site_fract_y
_atom_site_fract_z
_atom_site_charge
Zn	Zn	0.12500 0.62500 0.87500 1.25100
Zn	Zn	0.37500 0.37500 0.37500 1.25100
Zn	Zn	0.87500 0.12500 0.62500 1.25100
Zn	Zn	0.62500 0.87500 0.12500 1.25100
Zn	Zn	0.04477 0.54477 0.95523 1.19900
Zn	Zn	0.45523 0.45523 0.45523 1.19900
Zn	Zn	0.95523 0.04477 0.54477 1.19900
Zn	Zn	0.54477 0.95523 0.04477 1.19900
Zn	Zn	0.29477 0.29477 0.29477 1.19900
Zn	Zn	0.20523 0.70523 0.79477 1.19900
Zn	Zn	0.79477 0.20523 0.70523 1.20000
Zn	Zn	0.70523 0.79477 0.20523 1.20000
H 	H 	0.18830 0.68280 0.99930 0.02600
H 	H 	0.25530 0.70610 0.05510 0.07800
H 	H 	0.23320 0.57150 0.13380 0.07600
H 	H 	0.16690 0.54930 0.07640 0.01900
H 	H 	0.31170 0.31720 0.49930 0.02700
H 	H 	0.24470 0.29390 0.55510 0.07800
H 	H 	0.26680 0.42850 0.63380 0.07600
H 	H 	0.33310 0.45070 0.57640 0.01900
H 	H 	0.81170 0.18280 0.50070 0.02700
H 	H 	0.74470 0.20610 0.44490 0.07800
H 	H 	0.76680 0.07150 0.36620 0.07600
H 	H 	0.83310 0.04930 0.42360 0.01900
H 	H 	0.68830 0.81720 0.00070 0.02600
H 	H 	0.75530 0.79390 0.94490 0.07800
H 	H 	0.73320 0.92850 0.86620 0.07600
H 	H 	0.66690 0.95070 0.92360 0.01900
H 	H 	0.99930 0.18830 0.68280 0.02600
H 	H 	0.05510 0.25530 0.70610 0.07800
H 	H 	0.13380 0.23320 0.57150 0.07600
H 	H 	0.07640 0.16690 0.54930 0.01900
H 	H 	0.49930 0.31170 0.31720 0.02700
H 	H 	0.55510 0.24470 0.29390 0.07800
H 	H 	0.63380 0.26680 0.42850 0.07600
H 	H 	0.57640 0.33310 0.45070 0.01900
H 	H 	0.50070 0.81170 0.18280 0.02700
H 	H 	0.44490 0.74470 0.20610 0.07800
H 	H 	0.36620 0.76680 0.07150 0.07600
H 	H 	0.42360 0.83310 0.04930 0.01900
H 	H 	0.00070 0.68830 0.81720 0.02600
H 	H 	0.94490 0.75530 0.79390 0.07800
H 	H 	0.86620 0.73320 0.92850 0.07600
H 	H 	0.92360 0.66690 0.95070 0.01900
H 	H 	0.68280 0.99930 0.18830 0.02600
H 	H 	0.70610 0.05510 0.25530 0.07800
H 	H 	0.57150 0.13380 0.23320 0.07600
H 	H 	0.54930 0.07640 0.16690 0.01900
H 	H 	0.31720 0.49930 0.31170 0.02700
H 	H 	0.29390 0.55510 0.24470 0.07800
H 	H 	0.42850 0.63380 0.26680 0.07600
H 	H 	0.45070 0.57640 0.33310 0.01900
H 	H 	0.18280 0.50070 0.81170 0.02700
H 	H 	0.20610 0.44490 0.74470 0.07800
H 	H 	0.07150 0.36620 0.76680 0.07600
H 	H 	0.04930 0.42360 0.83310 0.01900
H 	H 	0.81720 0.00070 0.68830 0.02600
H 	H 	0.79390 0.94490 0.75530 0.07800
H 	H 	0.92850 0.86620 0.73320 0.07600
H 	H 	0.95070 0.92360 0.66690 0.01900
H 	H 	0.43280 0.43830 0.25070 0.02700
H 	H 	0.45610 0.50530 0.19490 0.07800
H 	H 	0.32150 0.48320 0.11620 0.07600
H 	H 	0.29930 0.41690 0.17360 0.01900
H 	H 	0.06720 0.56170 0.75070 0.02700
H 	H 	0.04390 0.49470 0.69490 0.07800
H 	H 	0.17850 0.51680 0.61620 0.07600
H 	H 	0.20070 0.58310 0.67360 0.01900
H 	H 	0.93280 0.06170 0.74930 0.02500
H 	H 	0.95610 0.99470 0.80510 0.08100
H 	H 	0.82150 0.01680 0.88380 0.07700
H 	H 	0.79930 0.08310 0.82640 0.01800
H 	H 	0.56720 0.93830 0.24930 0.02600
H 	H 	0.54390 0.00530 0.30510 0.07900
H 	H 	0.67850 0.98320 0.38380 0.07600
H 	H 	0.70070 0.91690 0.32640 0.01900
H 	H 	0.93830 0.24930 0.56720 0.02600
H 	H 	0.00530 0.30510 0.54390 0.07900
H 	H 	0.98320 0.38380 0.67850 0.07600
H 	H 	0.91690 0.32640 0.70070 0.01900
H 	H 	0.06170 0.74930 0.93280 0.02500
H 	H 	0.99470 0.80510 0.95610 0.08100
H 	H 	0.01680 0.88380 0.82150 0.07700
H 	H 	0.08310 0.82640 0.79930 0.01800
H 	H 	0.56170 0.75070 0.06720 0.02700
H 	H 	0.49470 0.69490 0.04390 0.07800
H 	H 	0.51680 0.61620 0.17850 0.07600
H 	H 	0.58310 0.67360 0.20070 0.01900
H 	H 	0.43830 0.25070 0.43280 0.02700
H 	H 	0.50530 0.19490 0.45610 0.07800
H 	H 	0.48320 0.11620 0.32150 0.07600
H 	H 	0.41690 0.17360 0.29930 0.01900
H 	H 	0.74930 0.93280 0.06170 0.02500
H 	H 	0.80510 0.95610 0.99470 0.08100
H 	H 	0.88380 0.82150 0.01680 0.07700
H 	H 	0.82640 0.79930 0.08310 0.01800
H 	H 	0.24930 0.56720 0.93830 0.02600
H 	H 	0.30510 0.54390 0.00530 0.07900
H 	H 	0.38380 0.67850 0.98320 0.07600
H 	H 	0.32640 0.70070 0.91690 0.01900
H 	H 	0.25070 0.43280 0.43830 0.02700
H 	H 	0.19490 0.45610 0.50530 0.07800
H 	H 	0.11620 0.32150 0.48320 0.07600
H 	H 	0.17360 0.29930 0.41690 0.01900
H 	H 	0.75070 0.06720 0.56170 0.02700
H 	H 	0.69490 0.04390 0.49470 0.07800
H 	H 	0.61620 0.17850 0.51680 0.07600
H 	H 	0.67360 0.20070 0.58310 0.01900
C 	C 	0.29661 0.65192 0.13352 0.10500
C 	C 	0.12818 0.60060 0.99377 0.41700
C 	C 	0.17111 0.61468 0.03224 -0.13800
C 	C 	0.19759 0.66038 0.02631 0.05700
C 	C 	0.23802 0.67446 0.05929 -0.11300
C 	C 	0.25203 0.64007 0.09872 0.04700
C 	C 	0.22464 0.59358 0.10630 -0.11500
C 	C 	0.18469 0.58070 0.07239 0.05300
C 	C 	0.20339 0.34808 0.63352 0.10500
C 	C 	0.37182 0.39940 0.49377 0.41800
C 	C 	0.32889 0.38532 0.53224 -0.13900
C 	C 	0.30241 0.33962 0.52631 0.05600
C 	C 	0.26198 0.32554 0.55929 -0.11300
C 	C 	0.24797 0.35993 0.59872 0.04700
C 	C 	0.27536 0.40642 0.60630 -0.11500
C 	C 	0.31531 0.41930 0.57239 0.05300
C 	C 	0.70339 0.15192 0.36648 0.10500
C 	C 	0.87182 0.10060 0.50623 0.41800
C 	C 	0.82889 0.11468 0.46776 -0.13900
C 	C 	0.80241 0.16038 0.47369 0.05600
C 	C 	0.76198 0.17446 0.44071 -0.11300
C 	C 	0.74797 0.14007 0.40128 0.04700
C 	C 	0.77536 0.09358 0.39370 -0.11500
C 	C 	0.81531 0.08070 0.42761 0.05300
C 	C 	0.79661 0.84808 0.86648 0.10500
C 	C 	0.62818 0.89940 0.00623 0.41700
C 	C 	0.67111 0.88532 0.96776 -0.13900
C 	C 	0.69759 0.83962 0.97369 0.05700
C 	C 	0.73802 0.82554 0.94071 -0.11300
C 	C 	0.75203 0.85993 0.90128 0.04700
C 	C 	0.72464 0.90642 0.89370 -0.11500
C 	C 	0.68469 0.91930 0.92761 0.05300
C 	C 	0.13352 0.29661 0.65192 0.10500
C 	C 	0.99377 0.12818 0.60060 0.41700
C 	C 	0.03224 0.17111 0.61468 -0.13800
C 	C 	0.02631 0.19759 0.66038 0.05700
C 	C 	0.05929 0.23802 0.67446 -0.11300
C 	C 	0.09872 0.25203 0.64007 0.04700
C 	C 	0.10630 0.22464 0.59358 -0.11500
C 	C 	0.07239 0.18469 0.58070 0.05300
C 	C 	0.63352 0.20339 0.34808 0.10500
C 	C 	0.49377 0.37182 0.39940 0.41800
C 	C 	0.53224 0.32889 0.38532 -0.13900
C 	C 	0.52631 0.30241 0.33962 0.05600
C 	C 	0.55929 0.26198 0.32554 -0.11300
C 	C 	0.59872 0.24797 0.35993 0.04700
C 	C 	0.60630 0.27536 0.40642 -0.11500
C 	C 	0.57239 0.31531 0.41930 0.05300
C 	C 	0.36648 0.70339 0.15192 0.10500
C 	C 	0.50623 0.87182 0.10060 0.41800
C 	C 	0.46776 0.82889 0.11468 -0.13900
C 	C 	0.47369 0.80241 0.16038 0.05600
C 	C 	0.44071 0.76198 0.17446 -0.11300
C 	C 	0.40128 0.74797 0.14007 0.04700
C 	C 	0.39370 0.77536 0.09358 -0.11500
C 	C 	0.42761 0.81531 0.08070 0.05300
C 	C 	0.86648 0.79661 0.84808 0.10500
C 	C 	0.00623 0.62818 0.89940 0.41700
C 	C 	0.96776 0.67111 0.88532 -0.13900
C 	C 	0.97369 0.69759 0.83962 0.05700
C 	C 	0.94071 0.73802 0.82554 -0.11300
C 	C 	0.90128 0.75203 0.85993 0.04700
C 	C 	0.89370 0.72464 0.90642 -0.11500
C 	C 	0.92761 0.68469 0.91930 0.05300
C 	C 	0.65192 0.13352 0.29661 0.10500
C 	C 	0.60060 0.99377 0.12818 0.41700
C 	C 	0.61468 0.03224 0.17111 -0.13800
C 	C 	0.66038 0.02631 0.19759 0.05700
C 	C 	0.67446 0.05929 0.23802 -0.11300
C 	C 	0.64007 0.09872 0.25203 0.04700
C 	C 	0.59358 0.10630 0.22464 -0.11500
C 	C 	0.58070 0.07239 0.18469 0.05300
C 	C 	0.34808 0.63352 0.20339 0.10500
C 	C 	0.39940 0.49377 0.37182 0.41800
C 	C 	0.38532 0.53224 0.32889 -0.13900
C 	C 	0.33962 0.52631 0.30241 0.05600
C 	C 	0.32554 0.55929 0.26198 -0.11300
C 	C 	0.35993 0.59872 0.24797 0.04700
C 	C 	0.40642 0.60630 0.27536 -0.11500
C 	C 	0.41930 0.57239 0.31531 0.05300
C 	C 	0.15192 0.36648 0.70339 0.10500
C 	C 	0.10060 0.50623 0.87182 0.41800
C 	C 	0.11468 0.46776 0.82889 -0.13900
C 	C 	0.16038 0.47369 0.80241 0.05600
C 	C 	0.17446 0.44071 0.76198 -0.11300
C 	C 	0.14007 0.40128 0.74797 0.04700
C 	C 	0.09358 0.39370 0.77536 -0.11500
C 	C 	0.08070 0.42761 0.81531 0.05300
C 	C 	0.84808 0.86648 0.79661 0.10500
C 	C 	0.89940 0.00623 0.62818 0.41700
C 	C 	0.88532 0.96776 0.67111 -0.13900
C 	C 	0.83962 0.97369 0.69759 0.05700
C 	C 	0.82554 0.94071 0.73802 -0.11300
C 	C 	0.85993 0.90128 0.75203 0.04700
C 	C 	0.90642 0.89370 0.72464 -0.11500
C 	C 	0.91930 0.92761 0.68469 0.05300
C 	C 	0.40192 0.54661 0.11648 0.10500
C 	C 	0.35060 0.37818 0.25623 0.41800
C 	C 	0.36468 0.42111 0.21776 -0.13900
C 	C 	0.41038 0.44759 0.22369 0.05600
C 	C 	0.42446 0.48802 0.19071 -0.11300
C 	C 	0.39007 0.50203 0.15128 0.04700
C 	C 	0.34358 0.47464 0.14370 -0.11500
C 	C 	0.33070 0.43469 0.17761 0.05300
C 	C 	0.09808 0.45339 0.61648 0.10500
C 	C 	0.14940 0.62182 0.75623 0.41800
C 	C 	0.13532 0.57889 0.71776 -0.13900
C 	C 	0.08962 0.55241 0.72369 0.05600
C 	C 	0.07554 0.51198 0.69071 -0.11300
C 	C 	0.10993 0.49797 0.65128 0.04700
C 	C 	0.15642 0.52536 0.64370 -0.11500
C 	C 	0.16930 0.56531 0.67761 0.05300
C 	C 	0.90192 0.95339 0.88352 0.10300
C 	C 	0.85060 0.12182 0.74377 0.41900
C 	C 	0.86468 0.07889 0.78224 -0.14200
C 	C 	0.91038 0.05241 0.77631 0.06000
C 	C 	0.92446 0.01198 0.80929 -0.11900
C 	C 	0.89007 0.99797 0.84872 0.05200
C 	C 	0.84358 0.02536 0.85630 -0.11900
C 	C 	0.83070 0.06531 0.82239 0.05600
C 	C 	0.59808 0.04661 0.38352 0.10400
C 	C 	0.64940 0.87818 0.24377 0.41900
C 	C 	0.63532 0.92111 0.28224 -0.14000
C 	C 	0.58962 0.94759 0.27631 0.05800
C 	C 	0.57554 0.98802 0.30929 -0.11500
C 	C 	0.60993 0.00203 0.34872 0.04800
C 	C 	0.65642 0.97464 0.35630 -0.11600
C 	C 	0.66930 0.93469 0.32239 0.05400
C 	C 	0.04661 0.38352 0.59808 0.10400
C 	C 	0.87818 0.24377 0.64940 0.41900
C 	C 	0.92111 0.28224 0.63532 -0.14000
C 	C 	0.94759 0.27631 0.58962 0.05800
C 	C 	0.98802 0.30929 0.57554 -0.11500
C 	C 	0.00203 0.34872 0.60993 0.04800
C 	C 	0.97464 0.35630 0.65642 -0.11600
C 	C 	0.93469 0.32239 0.66930 0.05400
C 	C 	0.95339 0.88352 0.90192 0.10300
C 	C 	0.12182 0.74377 0.85060 0.41900
C 	C 	0.07889 0.78224 0.86468 -0.14200
C 	C 	0.05241 0.77631 0.91038 0.06000
C 	C 	0.01198 0.80929 0.92446 -0.11900
C 	C 	0.99797 0.84872 0.89007 0.05200
C 	C 	0.02536 0.85630 0.84358 -0.11900
C 	C 	0.06531 0.82239 0.83070 0.05600
C 	C 	0.45339 0.61648 0.09808 0.10500
C 	C 	0.62182 0.75623 0.14940 0.41800
C 	C 	0.57889 0.71776 0.13532 -0.13900
C 	C 	0.55241 0.72369 0.08962 0.05600
C 	C 	0.51198 0.69071 0.07554 -0.11300
C 	C 	0.49797 0.65128 0.10993 0.04700
C 	C 	0.52536 0.64370 0.15642 -0.11500
C 	C 	0.56531 0.67761 0.16930 0.05300
C 	C 	0.54661 0.11648 0.40192 0.10500
C 	C 	0.37818 0.25623 0.35060 0.41800
C 	C 	0.42111 0.21776 0.36468 -0.13900
C 	C 	0.44759 0.22369 0.41038 0.05600
C 	C 	0.48802 0.19071 0.42446 -0.11300
C 	C 	0.50203 0.15128 0.39007 0.04700
C 	C 	0.47464 0.14370 0.34358 -0.11500
C 	C 	0.43469 0.17761 0.33070 0.05300
C 	C 	0.88352 0.90192 0.95339 0.10300
C 	C 	0.74377 0.85060 0.12182 0.41900
C 	C 	0.78224 0.86468 0.07889 -0.14200
C 	C 	0.77631 0.91038 0.05241 0.06000
C 	C 	0.80929 0.92446 0.01198 -0.11900
C 	C 	0.84872 0.89007 0.99797 0.05200
C 	C 	0.85630 0.84358 0.02536 -0.11900
C 	C 	0.82239 0.83070 0.06531 0.05600
C 	C 	0.38352 0.59808 0.04661 0.10400
C 	C 	0.24377 0.64940 0.87818 0.41900
C 	C 	0.28224 0.63532 0.92111 -0.14000
C 	C 	0.27631 0.58962 0.94759 0.05800
C 	C 	0.30929 0.57554 0.98802 -0.11500
C 	C 	0.34872 0.60993 0.00203 0.04800
C 	C 	0.35630 0.65642 0.97464 -0.11600
C 	C 	0.32239 0.66930 0.93469 0.05400
C 	C 	0.11648 0.40192 0.54661 0.10500
C 	C 	0.25623 0.35060 0.37818 0.41800
C 	C 	0.21776 0.36468 0.42111 -0.13900
C 	C 	0.22369 0.41038 0.44759 0.05600
C 	C 	0.19071 0.42446 0.48802 -0.11300
C 	C 	0.15128 0.39007 0.50203 0.04700
C 	C 	0.14370 0.34358 0.47464 -0.11500
C 	C 	0.17761 0.33070 0.43469 0.05300
C 	C 	0.61648 0.09808 0.45339 0.10500
C 	C 	0.75623 0.14940 0.62182 0.41800
C 	C 	0.71776 0.13532 0.57889 -0.13900
C 	C 	0.72369 0.08962 0.55241 0.05600
C 	C 	0.69071 0.07554 0.51198 -0.11300
C 	C 	0.65128 0.10993 0.49797 0.04700
C 	C 	0.64370 0.15642 0.52536 -0.11500
C 	C 	0.67761 0.16930 0.56531 0.05300
N 	N 	0.32539 0.69446 0.12166 -0.14000
N 	N 	0.17461 0.30554 0.62166 -0.14000
N 	N 	0.67461 0.19446 0.37834 -0.14000
N 	N 	0.82539 0.80554 0.87834 -0.14000
N 	N 	0.12166 0.32539 0.69446 -0.14000
N 	N 	0.62166 0.17461 0.30554 -0.14000
N 	N 	0.37834 0.67461 0.19446 -0.14000
N 	N 	0.87834 0.82539 0.80554 -0.14000
N 	N 	0.69446 0.12166 0.32539 -0.14000
N 	N 	0.30554 0.62166 0.17461 -0.14000
N 	N 	0.19446 0.37834 0.67461 -0.14000
N 	N 	0.80554 0.87834 0.82539 -0.14000
N 	N 	0.44446 0.57539 0.12834 -0.14000
N 	N 	0.05554 0.42461 0.62834 -0.14000
N 	N 	0.94446 0.92461 0.87166 -0.13900
N 	N 	0.55554 0.07539 0.37166 -0.14000
N 	N 	0.07539 0.37166 0.55554 -0.14000
N 	N 	0.92461 0.87166 0.94446 -0.13900
N 	N 	0.42461 0.62834 0.05554 -0.14000
N 	N 	0.57539 0.12834 0.44446 -0.14000
N 	N 	0.87166 0.94446 0.92461 -0.13900
N 	N 	0.37166 0.55554 0.07539 -0.14000
N 	N 	0.12834 0.44446 0.57539 -0.14000
N 	N 	0.62834 0.05554 0.42461 -0.14000
O 	O 	0.12263 0.62917 0.95571 -0.47000
O 	O 	0.10113 0.56096 0.00337 -0.50900
O 	O 	0.37737 0.37083 0.45571 -0.47000
O 	O 	0.39887 0.43904 0.50337 -0.51000
O 	O 	0.87737 0.12917 0.54429 -0.47100
O 	O 	0.89887 0.06096 0.49663 -0.51000
O 	O 	0.62263 0.87083 0.04429 -0.47000
O 	O 	0.60113 0.93904 0.99663 -0.50900
O 	O 	0.95571 0.12263 0.62917 -0.47000
O 	O 	0.00337 0.10113 0.56096 -0.50900
O 	O 	0.45571 0.37737 0.37083 -0.47000
O 	O 	0.50337 0.39887 0.43904 -0.51000
O 	O 	0.54429 0.87737 0.12917 -0.47100
O 	O 	0.49663 0.89887 0.06096 -0.51000
O 	O 	0.04429 0.62263 0.87083 -0.47000
O 	O 	0.99663 0.60113 0.93904 -0.50900
O 	O 	0.62917 0.95571 0.12263 -0.47000
O 	O 	0.56096 0.00337 0.10113 -0.50900
O 	O 	0.37083 0.45571 0.37737 -0.47000
O 	O 	0.43904 0.50337 0.39887 -0.51000
O 	O 	0.12917 0.54429 0.87737 -0.47100
O 	O 	0.06096 0.49663 0.89887 -0.51000
O 	O 	0.87083 0.04429 0.62263 -0.47000
O 	O 	0.93904 0.99663 0.60113 -0.50900
O 	O 	0.37917 0.37263 0.29429 -0.47000
O 	O 	0.31096 0.35113 0.24663 -0.51000
O 	O 	0.12083 0.62737 0.79429 -0.47000
O 	O 	0.18904 0.64887 0.74663 -0.51000
O 	O 	0.87917 0.12737 0.70571 -0.47100
O 	O 	0.81096 0.14887 0.75337 -0.51000
O 	O 	0.62083 0.87263 0.20571 -0.47100
O 	O 	0.68904 0.85113 0.25337 -0.51000
O 	O 	0.87263 0.20571 0.62083 -0.47100
O 	O 	0.85113 0.25337 0.68904 -0.51000
O 	O 	0.12737 0.70571 0.87917 -0.47100
O 	O 	0.14887 0.75337 0.81096 -0.51000
O 	O 	0.62737 0.79429 0.12083 -0.47000
O 	O 	0.64887 0.74663 0.18904 -0.51000
O 	O 	0.37263 0.29429 0.37917 -0.47000
O 	O 	0.35113 0.24663 0.31096 -0.51000
O 	O 	0.70571 0.87917 0.12737 -0.47100
O 	O 	0.75337 0.81096 0.14887 -0.51000
O 	O 	0.20571 0.62083 0.87263 -0.47100
O 	O 	0.25337 0.68904 0.85113 -0.51000
O 	O 	0.29429 0.37917 0.37263 -0.47000
O 	O 	0.24663 0.31096 0.35113 -0.51000
O 	O 	0.79429 0.12083 0.62737 -0.47000
O 	O 	0.74663 0.18904 0.64887 -0.51000
