data_crystal

_cell_length_a 25.64150
_cell_length_b 25.64150
_cell_length_c 25.64150
_cell_angle_alpha 90.00000
_cell_angle_beta  90.00000
_cell_angle_gamma 90.00000

_symmetry_space_group_name_	'P 1'
_symmetry_space_group_name_H-M	'P 1'

loop_
_symmetry_equiv_pos_as_xyz
  x,y,z

loop_
_atom_site_label
_atom_site_type_symbol
_atom_site_fract_x
_atom_site_fract_y
_atom_site_fract_z
_atom_site_charge
Zn	Zn	0.62500 0.37500 0.87500 1.24700
Zn	Zn	0.87500 0.62500 0.37500 1.24700
Zn	Zn	0.37500 0.87500 0.62500 1.24700
Zn	Zn	0.12500 0.12500 0.12500 1.24700
Zn	Zn	0.54498 0.45502 0.95502 1.19900
Zn	Zn	0.95502 0.54498 0.45502 1.20000
Zn	Zn	0.45502 0.95502 0.54498 1.20000
Zn	Zn	0.04498 0.04498 0.04498 1.19900
Zn	Zn	0.70502 0.29498 0.79498 1.20000
Zn	Zn	0.79498 0.70502 0.29498 1.20000
Zn	Zn	0.20502 0.20502 0.20502 1.20000
Zn	Zn	0.29498 0.79498 0.70502 1.20000
H 	H 	0.73350 0.42770 0.13400 0.07500
H 	H 	0.66700 0.45070 0.07640 0.01800
H 	H 	0.68770 0.31650 0.00050 0.02400
H 	H 	0.75520 0.29410 0.05610 0.07700
H 	H 	0.76650 0.57230 0.63400 0.07500
H 	H 	0.83300 0.54930 0.57640 0.01700
H 	H 	0.81230 0.68350 0.50050 0.02400
H 	H 	0.74480 0.70590 0.55610 0.07700
H 	H 	0.26650 0.92770 0.36600 0.07500
H 	H 	0.33300 0.95070 0.42360 0.01700
H 	H 	0.31230 0.81650 0.49950 0.02400
H 	H 	0.24480 0.79410 0.44390 0.07700
H 	H 	0.23350 0.07230 0.86600 0.07500
H 	H 	0.16700 0.04930 0.92360 0.01800
H 	H 	0.18770 0.18350 0.99950 0.02500
H 	H 	0.25520 0.20590 0.94390 0.07700
H 	H 	0.13400 0.73350 0.42770 0.07500
H 	H 	0.07640 0.66700 0.45070 0.01800
H 	H 	0.00050 0.68770 0.31650 0.02400
H 	H 	0.05610 0.75520 0.29410 0.07700
H 	H 	0.63400 0.76650 0.57230 0.07500
H 	H 	0.57640 0.83300 0.54930 0.01700
H 	H 	0.50050 0.81230 0.68350 0.02400
H 	H 	0.55610 0.74480 0.70590 0.07700
H 	H 	0.36600 0.26650 0.92770 0.07500
H 	H 	0.42360 0.33300 0.95070 0.01700
H 	H 	0.49950 0.31230 0.81650 0.02400
H 	H 	0.44390 0.24480 0.79410 0.07700
H 	H 	0.86600 0.23350 0.07230 0.07500
H 	H 	0.92360 0.16700 0.04930 0.01800
H 	H 	0.99950 0.18770 0.18350 0.02500
H 	H 	0.94390 0.25520 0.20590 0.07700
H 	H 	0.42770 0.13400 0.73350 0.07500
H 	H 	0.45070 0.07640 0.66700 0.01800
H 	H 	0.31650 0.00050 0.68770 0.02400
H 	H 	0.29410 0.05610 0.75520 0.07700
H 	H 	0.57230 0.63400 0.76650 0.07500
H 	H 	0.54930 0.57640 0.83300 0.01700
H 	H 	0.68350 0.50050 0.81230 0.02400
H 	H 	0.70590 0.55610 0.74480 0.07700
H 	H 	0.92770 0.36600 0.26650 0.07500
H 	H 	0.95070 0.42360 0.33300 0.01700
H 	H 	0.81650 0.49950 0.31230 0.02400
H 	H 	0.79410 0.44390 0.24480 0.07700
H 	H 	0.07230 0.86600 0.23350 0.07500
H 	H 	0.04930 0.92360 0.16700 0.01800
H 	H 	0.18350 0.99950 0.18770 0.02500
H 	H 	0.20590 0.94390 0.25520 0.07700
H 	H 	0.67770 0.48350 0.61600 0.07500
H 	H 	0.70070 0.41700 0.67360 0.01700
H 	H 	0.56650 0.43770 0.74950 0.02400
H 	H 	0.54410 0.50520 0.69390 0.07700
H 	H 	0.82230 0.51650 0.11600 0.07500
H 	H 	0.79930 0.58300 0.17360 0.01700
H 	H 	0.93350 0.56230 0.24950 0.02400
H 	H 	0.95590 0.49480 0.19390 0.07700
H 	H 	0.17770 0.01650 0.38400 0.07600
H 	H 	0.20070 0.08300 0.32640 0.01700
H 	H 	0.06650 0.06230 0.25050 0.02300
H 	H 	0.04410 0.99480 0.30610 0.07900
H 	H 	0.32230 0.98350 0.88400 0.07600
H 	H 	0.29930 0.91700 0.82640 0.01700
H 	H 	0.43350 0.93770 0.75050 0.02300
H 	H 	0.45590 0.00520 0.80610 0.07900
H 	H 	0.98350 0.88400 0.32230 0.07600
H 	H 	0.91700 0.82640 0.29930 0.01700
H 	H 	0.93770 0.75050 0.43350 0.02300
H 	H 	0.00520 0.80610 0.45590 0.07900
H 	H 	0.01650 0.38400 0.17770 0.07600
H 	H 	0.08300 0.32640 0.20070 0.01700
H 	H 	0.06230 0.25050 0.06650 0.02300
H 	H 	0.99480 0.30610 0.04410 0.07900
H 	H 	0.51650 0.11600 0.82230 0.07500
H 	H 	0.58300 0.17360 0.79930 0.01700
H 	H 	0.56230 0.24950 0.93350 0.02400
H 	H 	0.49480 0.19390 0.95590 0.07700
H 	H 	0.48350 0.61600 0.67770 0.07500
H 	H 	0.41700 0.67360 0.70070 0.01700
H 	H 	0.43770 0.74950 0.56650 0.02400
H 	H 	0.50520 0.69390 0.54410 0.07700
H 	H 	0.38400 0.17770 0.01650 0.07600
H 	H 	0.32640 0.20070 0.08300 0.01700
H 	H 	0.25050 0.06650 0.06230 0.02300
H 	H 	0.30610 0.04410 0.99480 0.07900
H 	H 	0.88400 0.32230 0.98350 0.07600
H 	H 	0.82640 0.29930 0.91700 0.01700
H 	H 	0.75050 0.43350 0.93770 0.02300
H 	H 	0.80610 0.45590 0.00520 0.07900
H 	H 	0.61600 0.67770 0.48350 0.07500
H 	H 	0.67360 0.70070 0.41700 0.01700
H 	H 	0.74950 0.56650 0.43770 0.02400
H 	H 	0.69390 0.54410 0.50520 0.07700
H 	H 	0.11600 0.82230 0.51650 0.07500
H 	H 	0.17360 0.79930 0.58300 0.01700
H 	H 	0.24950 0.93350 0.56230 0.02400
H 	H 	0.19390 0.95590 0.49480 0.07700
C 	C 	0.75296 0.36005 0.09903 0.04800
C 	C 	0.72516 0.40553 0.10601 -0.11400
C 	C 	0.68496 0.41900 0.07222 0.05600
C 	C 	0.67187 0.38529 0.03242 -0.14600
C 	C 	0.69756 0.33968 0.02720 0.06200
C 	C 	0.73799 0.32621 0.06017 -0.11400
C 	C 	0.79623 0.34754 0.13387 0.10300
C 	C 	0.62906 0.39979 0.99458 0.41500
C 	C 	0.74704 0.63995 0.59903 0.04900
C 	C 	0.77484 0.59447 0.60601 -0.11400
C 	C 	0.81504 0.58100 0.57222 0.05600
C 	C 	0.82813 0.61471 0.53242 -0.14700
C 	C 	0.80244 0.66032 0.52720 0.06300
C 	C 	0.76201 0.67379 0.56017 -0.11400
C 	C 	0.70377 0.65246 0.63387 0.10300
C 	C 	0.87094 0.60021 0.49458 0.41600
C 	C 	0.24704 0.86005 0.40097 0.04900
C 	C 	0.27484 0.90553 0.39399 -0.11400
C 	C 	0.31504 0.91900 0.42778 0.05600
C 	C 	0.32813 0.88529 0.46758 -0.14700
C 	C 	0.30244 0.83968 0.47280 0.06300
C 	C 	0.26201 0.82621 0.43983 -0.11400
C 	C 	0.20377 0.84754 0.36613 0.10300
C 	C 	0.37094 0.89979 0.50542 0.41600
C 	C 	0.25296 0.13995 0.90097 0.04800
C 	C 	0.22516 0.09447 0.89399 -0.11300
C 	C 	0.18496 0.08100 0.92778 0.05500
C 	C 	0.17187 0.11471 0.96758 -0.14500
C 	C 	0.19756 0.16032 0.97280 0.06200
C 	C 	0.23799 0.17379 0.93983 -0.11300
C 	C 	0.29623 0.15246 0.86613 0.10300
C 	C 	0.12906 0.10021 0.00542 0.41400
C 	C 	0.09903 0.75296 0.36005 0.04800
C 	C 	0.10601 0.72516 0.40553 -0.11400
C 	C 	0.07222 0.68496 0.41900 0.05600
C 	C 	0.03242 0.67187 0.38529 -0.14600
C 	C 	0.02720 0.69756 0.33968 0.06200
C 	C 	0.06017 0.73799 0.32621 -0.11400
C 	C 	0.13387 0.79623 0.34754 0.10300
C 	C 	0.99458 0.62906 0.39979 0.41500
C 	C 	0.59903 0.74704 0.63995 0.04900
C 	C 	0.60601 0.77484 0.59447 -0.11400
C 	C 	0.57222 0.81504 0.58100 0.05600
C 	C 	0.53242 0.82813 0.61471 -0.14700
C 	C 	0.52720 0.80244 0.66032 0.06300
C 	C 	0.56017 0.76201 0.67379 -0.11400
C 	C 	0.63387 0.70377 0.65246 0.10300
C 	C 	0.49458 0.87094 0.60021 0.41600
C 	C 	0.40097 0.24704 0.86005 0.04900
C 	C 	0.39399 0.27484 0.90553 -0.11400
C 	C 	0.42778 0.31504 0.91900 0.05600
C 	C 	0.46758 0.32813 0.88529 -0.14700
C 	C 	0.47280 0.30244 0.83968 0.06300
C 	C 	0.43983 0.26201 0.82621 -0.11400
C 	C 	0.36613 0.20377 0.84754 0.10300
C 	C 	0.50542 0.37094 0.89979 0.41600
C 	C 	0.90097 0.25296 0.13995 0.04800
C 	C 	0.89399 0.22516 0.09447 -0.11300
C 	C 	0.92778 0.18496 0.08100 0.05500
C 	C 	0.96758 0.17187 0.11471 -0.14500
C 	C 	0.97280 0.19756 0.16032 0.06200
C 	C 	0.93983 0.23799 0.17379 -0.11300
C 	C 	0.86613 0.29623 0.15246 0.10300
C 	C 	0.00542 0.12906 0.10021 0.41400
C 	C 	0.36005 0.09903 0.75296 0.04800
C 	C 	0.40553 0.10601 0.72516 -0.11400
C 	C 	0.41900 0.07222 0.68496 0.05600
C 	C 	0.38529 0.03242 0.67187 -0.14600
C 	C 	0.33968 0.02720 0.69756 0.06200
C 	C 	0.32621 0.06017 0.73799 -0.11400
C 	C 	0.34754 0.13387 0.79623 0.10300
C 	C 	0.39979 0.99458 0.62906 0.41500
C 	C 	0.63995 0.59903 0.74704 0.04900
C 	C 	0.59447 0.60601 0.77484 -0.11400
C 	C 	0.58100 0.57222 0.81504 0.05600
C 	C 	0.61471 0.53242 0.82813 -0.14700
C 	C 	0.66032 0.52720 0.80244 0.06300
C 	C 	0.67379 0.56017 0.76201 -0.11400
C 	C 	0.65246 0.63387 0.70377 0.10300
C 	C 	0.60021 0.49458 0.87094 0.41600
C 	C 	0.86005 0.40097 0.24704 0.04900
C 	C 	0.90553 0.39399 0.27484 -0.11400
C 	C 	0.91900 0.42778 0.31504 0.05600
C 	C 	0.88529 0.46758 0.32813 -0.14700
C 	C 	0.83968 0.47280 0.30244 0.06300
C 	C 	0.82621 0.43983 0.26201 -0.11400
C 	C 	0.84754 0.36613 0.20377 0.10300
C 	C 	0.89979 0.50542 0.37094 0.41600
C 	C 	0.13995 0.90097 0.25296 0.04800
C 	C 	0.09447 0.89399 0.22516 -0.11300
C 	C 	0.08100 0.92778 0.18496 0.05500
C 	C 	0.11471 0.96758 0.17187 -0.14500
C 	C 	0.16032 0.97280 0.19756 0.06200
C 	C 	0.17379 0.93983 0.23799 -0.11300
C 	C 	0.15246 0.86613 0.29623 0.10300
C 	C 	0.10021 0.00542 0.12906 0.41400
C 	C 	0.61005 0.50296 0.65097 0.04900
C 	C 	0.65553 0.47516 0.64399 -0.11400
C 	C 	0.66900 0.43496 0.67778 0.05600
C 	C 	0.63529 0.42187 0.71758 -0.14700
C 	C 	0.58968 0.44756 0.72280 0.06300
C 	C 	0.57621 0.48799 0.68983 -0.11400
C 	C 	0.59754 0.54623 0.61613 0.10300
C 	C 	0.64979 0.37906 0.75542 0.41600
C 	C 	0.88995 0.49704 0.15097 0.04900
C 	C 	0.84447 0.52484 0.14399 -0.11400
C 	C 	0.83100 0.56504 0.17778 0.05600
C 	C 	0.86471 0.57813 0.21758 -0.14700
C 	C 	0.91032 0.55244 0.22280 0.06300
C 	C 	0.92379 0.51201 0.18983 -0.11400
C 	C 	0.90246 0.45377 0.11613 0.10300
C 	C 	0.85021 0.62094 0.25542 0.41600
C 	C 	0.11005 0.99704 0.34903 0.05100
C 	C 	0.15553 0.02484 0.35601 -0.11600
C 	C 	0.16900 0.06504 0.32222 0.05800
C 	C 	0.13529 0.07813 0.28242 -0.14800
C 	C 	0.08968 0.05244 0.27720 0.06500
C 	C 	0.07621 0.01201 0.31017 -0.11800
C 	C 	0.09754 0.95377 0.38387 0.10200
C 	C 	0.14979 0.12094 0.24458 0.41600
C 	C 	0.38995 0.00296 0.84903 0.05200
C 	C 	0.34447 0.97516 0.85601 -0.11700
C 	C 	0.33100 0.93496 0.82222 0.05800
C 	C 	0.36471 0.92187 0.78242 -0.14900
C 	C 	0.41032 0.94756 0.77720 0.06600
C 	C 	0.42379 0.98799 0.81017 -0.11900
C 	C 	0.40246 0.04623 0.88387 0.10200
C 	C 	0.35021 0.87906 0.74458 0.41700
C 	C 	0.00296 0.84903 0.38995 0.05200
C 	C 	0.97516 0.85601 0.34447 -0.11700
C 	C 	0.93496 0.82222 0.33100 0.05800
C 	C 	0.92187 0.78242 0.36471 -0.14900
C 	C 	0.94756 0.77720 0.41032 0.06600
C 	C 	0.98799 0.81017 0.42379 -0.11900
C 	C 	0.04623 0.88387 0.40246 0.10200
C 	C 	0.87906 0.74458 0.35021 0.41700
C 	C 	0.99704 0.34903 0.11005 0.05100
C 	C 	0.02484 0.35601 0.15553 -0.11600
C 	C 	0.06504 0.32222 0.16900 0.05800
C 	C 	0.07813 0.28242 0.13529 -0.14800
C 	C 	0.05244 0.27720 0.08968 0.06500
C 	C 	0.01201 0.31017 0.07621 -0.11800
C 	C 	0.95377 0.38387 0.09754 0.10200
C 	C 	0.12094 0.24458 0.14979 0.41600
C 	C 	0.49704 0.15097 0.88995 0.04900
C 	C 	0.52484 0.14399 0.84447 -0.11400
C 	C 	0.56504 0.17778 0.83100 0.05600
C 	C 	0.57813 0.21758 0.86471 -0.14700
C 	C 	0.55244 0.22280 0.91032 0.06300
C 	C 	0.51201 0.18983 0.92379 -0.11400
C 	C 	0.45377 0.11613 0.90246 0.10300
C 	C 	0.62094 0.25542 0.85021 0.41600
C 	C 	0.50296 0.65097 0.61005 0.04900
C 	C 	0.47516 0.64399 0.65553 -0.11400
C 	C 	0.43496 0.67778 0.66900 0.05600
C 	C 	0.42187 0.71758 0.63529 -0.14700
C 	C 	0.44756 0.72280 0.58968 0.06300
C 	C 	0.48799 0.68983 0.57621 -0.11400
C 	C 	0.54623 0.61613 0.59754 0.10300
C 	C 	0.37906 0.75542 0.64979 0.41600
C 	C 	0.34903 0.11005 0.99704 0.05100
C 	C 	0.35601 0.15553 0.02484 -0.11600
C 	C 	0.32222 0.16900 0.06504 0.05800
C 	C 	0.28242 0.13529 0.07813 -0.14800
C 	C 	0.27720 0.08968 0.05244 0.06500
C 	C 	0.31017 0.07621 0.01201 -0.11800
C 	C 	0.38387 0.09754 0.95377 0.10200
C 	C 	0.24458 0.14979 0.12094 0.41600
C 	C 	0.84903 0.38995 0.00296 0.05200
C 	C 	0.85601 0.34447 0.97516 -0.11700
C 	C 	0.82222 0.33100 0.93496 0.05800
C 	C 	0.78242 0.36471 0.92187 -0.14900
C 	C 	0.77720 0.41032 0.94756 0.06600
C 	C 	0.81017 0.42379 0.98799 -0.11900
C 	C 	0.88387 0.40246 0.04623 0.10200
C 	C 	0.74458 0.35021 0.87906 0.41700
C 	C 	0.65097 0.61005 0.50296 0.04900
C 	C 	0.64399 0.65553 0.47516 -0.11400
C 	C 	0.67778 0.66900 0.43496 0.05600
C 	C 	0.71758 0.63529 0.42187 -0.14700
C 	C 	0.72280 0.58968 0.44756 0.06300
C 	C 	0.68983 0.57621 0.48799 -0.11400
C 	C 	0.61613 0.59754 0.54623 0.10300
C 	C 	0.75542 0.64979 0.37906 0.41600
C 	C 	0.15097 0.88995 0.49704 0.04900
C 	C 	0.14399 0.84447 0.52484 -0.11400
C 	C 	0.17778 0.83100 0.56504 0.05600
C 	C 	0.21758 0.86471 0.57813 -0.14700
C 	C 	0.22280 0.91032 0.55244 0.06300
C 	C 	0.18983 0.92379 0.51201 -0.11400
C 	C 	0.11613 0.90246 0.45377 0.10300
C 	C 	0.25542 0.85021 0.62094 0.41600
N 	N 	0.82525 0.30532 0.12166 -0.13900
N 	N 	0.67475 0.69468 0.62166 -0.13900
N 	N 	0.17475 0.80532 0.37834 -0.13900
N 	N 	0.32525 0.19468 0.87834 -0.13900
N 	N 	0.12166 0.82525 0.30532 -0.13900
N 	N 	0.62166 0.67475 0.69468 -0.13900
N 	N 	0.37834 0.17475 0.80532 -0.13900
N 	N 	0.87834 0.32525 0.19468 -0.13900
N 	N 	0.30532 0.12166 0.82525 -0.13900
N 	N 	0.69468 0.62166 0.67475 -0.13900
N 	N 	0.80532 0.37834 0.17475 -0.13900
N 	N 	0.19468 0.87834 0.32525 -0.13900
N 	N 	0.55532 0.57525 0.62834 -0.13900
N 	N 	0.94468 0.42475 0.12834 -0.13900
N 	N 	0.05532 0.92475 0.37166 -0.13900
N 	N 	0.44468 0.07525 0.87166 -0.13900
N 	N 	0.07525 0.87166 0.44468 -0.13900
N 	N 	0.92475 0.37166 0.05532 -0.13900
N 	N 	0.42475 0.12834 0.94468 -0.13900
N 	N 	0.57525 0.62834 0.55532 -0.13900
N 	N 	0.37166 0.05532 0.92475 -0.13900
N 	N 	0.87166 0.44468 0.07525 -0.13900
N 	N 	0.62834 0.55532 0.57525 -0.13900
N 	N 	0.12834 0.94468 0.42475 -0.13900
O 	O 	0.62257 0.37080 0.95604 -0.46400
O 	O 	0.60150 0.43887 0.00328 -0.50900
O 	O 	0.87743 0.62920 0.45604 -0.46400
O 	O 	0.89850 0.56113 0.50328 -0.51000
O 	O 	0.37743 0.87080 0.54396 -0.46400
O 	O 	0.39850 0.93887 0.49672 -0.51000
O 	O 	0.12257 0.12920 0.04396 -0.46400
O 	O 	0.10150 0.06113 0.99672 -0.50900
O 	O 	0.95604 0.62257 0.37080 -0.46400
O 	O 	0.00328 0.60150 0.43887 -0.50900
O 	O 	0.45604 0.87743 0.62920 -0.46400
O 	O 	0.50328 0.89850 0.56113 -0.51000
O 	O 	0.54396 0.37743 0.87080 -0.46400
O 	O 	0.49672 0.39850 0.93887 -0.51000
O 	O 	0.04396 0.12257 0.12920 -0.46400
O 	O 	0.99672 0.10150 0.06113 -0.50900
O 	O 	0.37080 0.95604 0.62257 -0.46400
O 	O 	0.43887 0.00328 0.60150 -0.50900
O 	O 	0.62920 0.45604 0.87743 -0.46400
O 	O 	0.56113 0.50328 0.89850 -0.51000
O 	O 	0.87080 0.54396 0.37743 -0.46400
O 	O 	0.93887 0.49672 0.39850 -0.51000
O 	O 	0.12920 0.04396 0.12257 -0.46400
O 	O 	0.06113 0.99672 0.10150 -0.50900
O 	O 	0.62080 0.37257 0.79396 -0.46400
O 	O 	0.68887 0.35150 0.74672 -0.51000
O 	O 	0.87920 0.62743 0.29396 -0.46400
O 	O 	0.81113 0.64850 0.24672 -0.51000
O 	O 	0.12080 0.12743 0.20604 -0.46400
O 	O 	0.18887 0.14850 0.25328 -0.51000
O 	O 	0.37920 0.87257 0.70604 -0.46400
O 	O 	0.31113 0.85150 0.75328 -0.51000
O 	O 	0.87257 0.70604 0.37920 -0.46400
O 	O 	0.85150 0.75328 0.31113 -0.51000
O 	O 	0.12743 0.20604 0.12080 -0.46400
O 	O 	0.14850 0.25328 0.18887 -0.51000
O 	O 	0.62743 0.29396 0.87920 -0.46400
O 	O 	0.64850 0.24672 0.81113 -0.51000
O 	O 	0.37257 0.79396 0.62080 -0.46400
O 	O 	0.35150 0.74672 0.68887 -0.51000
O 	O 	0.20604 0.12080 0.12743 -0.46400
O 	O 	0.25328 0.18887 0.14850 -0.51000
O 	O 	0.70604 0.37920 0.87257 -0.46400
O 	O 	0.75328 0.31113 0.85150 -0.51000
O 	O 	0.79396 0.62080 0.37257 -0.46400
O 	O 	0.74672 0.68887 0.35150 -0.51000
O 	O 	0.29396 0.87920 0.62743 -0.46400
O 	O 	0.24672 0.81113 0.64850 -0.51000
