data_crystal

_cell_length_a 17.87370
_cell_length_b 17.87370
_cell_length_c 26.29720
_cell_angle_alpha 90.00000
_cell_angle_beta  90.00000
_cell_angle_gamma 90.00000

_symmetry_space_group_name_	'P 1'
_symmetry_space_group_name_H-M	'P 1'

loop_
_symmetry_equiv_pos_as_xyz
  x,y,z

loop_
_atom_site_label
_atom_site_type_symbol
_atom_site_fract_x
_atom_site_fract_y
_atom_site_fract_z
_atom_site_charge
C 	C 	0.46700 0.69450 0.15550 -0.11700
C 	C 	0.80880 0.78210 0.11590 0.20800
C 	C 	0.48940 0.64260 0.19220 0.03400
H 	H 	0.53940 0.62660 0.19410 0.03600
C 	C 	0.43620 0.61540 0.22570 -0.08800
H 	H 	0.45070 0.57990 0.25010 0.07100
C 	C 	0.36220 0.63870 0.22440 0.03000
C 	C 	0.34290 0.69190 0.18740 -0.08700
H 	H 	0.29310 0.70880 0.18580 0.07400
C 	C 	0.39380 0.72030 0.15330 0.03600
H 	H 	0.37940 0.75630 0.12920 0.03900
C 	C 	0.52100 0.72050 0.11580 0.39300
C 	C 	0.30510 0.60790 0.25830 0.11700
C 	C 	0.95300 0.61500 0.24020 -0.11000
C 	C 	0.00710 0.64230 0.20800 0.04000
H 	H 	0.99310 0.66490 0.17710 0.04200
C 	C 	0.08100 0.63670 0.22070 -0.09300
H 	H 	0.11730 0.65740 0.19890 0.07500
C 	C 	0.10360 0.60150 0.26470 0.03600
C 	C 	0.04830 0.57430 0.29900 -0.08900
H 	H 	0.06200 0.55330 0.33040 0.07500
C 	C 	0.97380 0.57970 0.28490 0.03600
H 	H 	0.93670 0.55900 0.30610 0.03900
C 	C 	0.87160 0.61720 0.22700 0.38500
C 	C 	0.18370 0.59040 0.27690 0.11200
C 	C 	0.33160 0.39450 0.44980 -0.10600
C 	C 	0.25740 0.40100 0.43540 0.03000
H 	H 	0.22010 0.37470 0.45320 0.04400
C 	C 	0.23820 0.44670 0.39450 -0.08600
H 	H 	0.18790 0.45060 0.38440 0.07300
C 	C 	0.29290 0.48650 0.36860 0.03200
C 	C 	0.36760 0.47830 0.38310 -0.08500
H 	H 	0.40520 0.50380 0.36510 0.06900
C 	C 	0.38690 0.43270 0.42380 0.02800
H 	H 	0.43730 0.42790 0.43370 0.03400
C 	C 	0.35330 0.34370 0.49290 0.37100
C 	C 	0.27190 0.53650 0.32610 0.11400
N 	N 	0.20030 0.54610 0.31730 -0.14100
N 	N 	0.32770 0.56550 0.29690 -0.14000
N 	N 	0.23430 0.62180 0.24660 -0.14200
O 	O 	0.49520 0.75440 0.07803 -0.45500
O 	O 	0.59020 0.70830 0.12318 -0.48400
O 	O 	0.82180 0.82480 0.07930 -0.22700
O 	O 	0.82720 0.58450 0.25497 -0.45400
O 	O 	0.85440 0.65490 0.18744 -0.44100
O 	O 	0.42070 0.33840 0.50414 -0.45900
O 	O 	0.30090 0.31110 0.51710 -0.45000
Zn	Zn	0.66334 0.74596 0.07503 1.23600
C 	C 	0.53300 0.30550 0.65550 -0.11500
C 	C 	0.19120 0.21790 0.61590 0.21000
C 	C 	0.51060 0.35740 0.69220 0.03400
H 	H 	0.46060 0.37340 0.69410 0.03700
C 	C 	0.56380 0.38460 0.72570 -0.08700
H 	H 	0.54930 0.42010 0.75010 0.07200
C 	C 	0.63780 0.36130 0.72440 0.03100
C 	C 	0.65710 0.30810 0.68740 -0.08600
H 	H 	0.70690 0.29120 0.68580 0.07500
C 	C 	0.60620 0.27970 0.65330 0.03500
H 	H 	0.62060 0.24370 0.62920 0.04000
C 	C 	0.47900 0.27950 0.61580 0.39300
C 	C 	0.69490 0.39210 0.75830 0.11700
C 	C 	0.04700 0.38500 0.74020 -0.11100
C 	C 	0.99290 0.35770 0.70800 0.04200
H 	H 	0.00690 0.33510 0.67710 0.04200
C 	C 	0.91900 0.36330 0.72070 -0.09300
H 	H 	0.88270 0.34260 0.69890 0.07600
C 	C 	0.89640 0.39850 0.76470 0.03700
C 	C 	0.95170 0.42570 0.79900 -0.08900
H 	H 	0.93800 0.44670 0.83040 0.07600
C 	C 	0.02620 0.42030 0.78490 0.03600
H 	H 	0.06330 0.44100 0.80610 0.04000
C 	C 	0.12840 0.38280 0.72700 0.38500
C 	C 	0.81630 0.40960 0.77690 0.11200
C 	C 	0.66840 0.60550 0.94980 -0.11700
C 	C 	0.74260 0.59900 0.93540 0.04000
H 	H 	0.77990 0.62530 0.95320 0.04400
C 	C 	0.76180 0.55330 0.89450 -0.09100
H 	H 	0.81210 0.54940 0.88440 0.07600
C 	C 	0.70710 0.51350 0.86860 0.03600
C 	C 	0.63240 0.52170 0.88310 -0.09000
H 	H 	0.59480 0.49620 0.86510 0.07100
C 	C 	0.61310 0.56730 0.92380 0.03800
H 	H 	0.56270 0.57210 0.93370 0.03200
C 	C 	0.64670 0.65630 0.99290 0.40800
C 	C 	0.72810 0.46350 0.82610 0.11300
N 	N 	0.79970 0.45390 0.81730 -0.14000
N 	N 	0.67230 0.43450 0.79690 -0.14000
N 	N 	0.76570 0.37820 0.74660 -0.14100
O 	O 	0.50480 0.24560 0.57803 -0.45300
O 	O 	0.40980 0.29170 0.62318 -0.48400
O 	O 	0.17820 0.17520 0.57930 -0.22400
O 	O 	0.17280 0.41550 0.75497 -0.45400
O 	O 	0.14560 0.34510 0.68744 -0.44100
O 	O 	0.57930 0.66160 0.00414 -0.48100
O 	O 	0.69910 0.68890 0.01710 -0.46900
Zn	Zn	0.33666 0.25404 0.57503 1.23600
C 	C 	0.30550 0.46700 0.90550 -0.10900
C 	C 	0.21790 0.80880 0.86590 0.20900
C 	C 	0.35740 0.48940 0.94220 0.02100
H 	H 	0.37340 0.53940 0.94410 0.04400
C 	C 	0.38460 0.43620 0.97570 -0.06000
H 	H 	0.42010 0.45070 0.00010 0.05300
C 	C 	0.36130 0.36220 0.97440 0.03800
C 	C 	0.30810 0.34290 0.93740 -0.08700
H 	H 	0.29120 0.29310 0.93580 0.07700
C 	C 	0.27970 0.39380 0.90330 0.03400
H 	H 	0.24370 0.37940 0.87920 0.04200
C 	C 	0.27950 0.52100 0.86580 0.39100
C 	C 	0.39210 0.30510 0.00830 0.09400
C 	C 	0.38500 0.95300 0.99020 -0.07600
C 	C 	0.35770 0.00710 0.95800 0.00900
H 	H 	0.33510 0.99310 0.92710 0.05400
C 	C 	0.36330 0.08100 0.97070 -0.04900
H 	H 	0.34260 0.11730 0.94890 0.06300
C 	C 	0.39850 0.10360 0.01470 0.00200
C 	C 	0.42570 0.04830 0.04900 -0.05900
H 	H 	0.44670 0.06200 0.08040 0.06400
C 	C 	0.42030 0.97380 0.03490 -0.00700
H 	H 	0.44100 0.93670 0.05610 0.05200
C 	C 	0.38280 0.87160 0.97700 0.39200
C 	C 	0.40960 0.18370 0.02690 0.10800
C 	C 	0.60550 0.33160 0.19980 -0.10600
C 	C 	0.59900 0.25740 0.18540 0.03100
H 	H 	0.62530 0.22010 0.20320 0.04300
C 	C 	0.55330 0.23820 0.14450 -0.08700
H 	H 	0.54940 0.18790 0.13440 0.07300
C 	C 	0.51350 0.29290 0.11860 0.03200
C 	C 	0.52170 0.36760 0.13310 -0.08500
H 	H 	0.49620 0.40520 0.11510 0.06900
C 	C 	0.56730 0.38690 0.17380 0.02900
H 	H 	0.57210 0.43730 0.18370 0.03400
C 	C 	0.65630 0.35330 0.24290 0.37100
C 	C 	0.46350 0.27190 0.07610 0.11100
N 	N 	0.45390 0.20030 0.06730 -0.14000
N 	N 	0.43450 0.32770 0.04690 -0.13900
N 	N 	0.37820 0.23430 0.99660 -0.12700
O 	O 	0.24560 0.49520 0.82803 -0.45200
O 	O 	0.29170 0.59020 0.87318 -0.48200
O 	O 	0.17520 0.82180 0.82930 -0.22300
O 	O 	0.41550 0.82720 0.00497 -0.46800
O 	O 	0.34510 0.85440 0.93744 -0.44100
O 	O 	0.66160 0.42070 0.25414 -0.45900
O 	O 	0.68890 0.30090 0.26710 -0.45000
Zn	Zn	0.25404 0.66334 0.82503 1.23600
C 	C 	0.69450 0.53300 0.40550 -0.11500
C 	C 	0.78210 0.19120 0.36590 0.21000
C 	C 	0.64260 0.51060 0.44220 0.03400
H 	H 	0.62660 0.46060 0.44410 0.03700
C 	C 	0.61540 0.56380 0.47570 -0.08700
H 	H 	0.57990 0.54930 0.50010 0.07200
C 	C 	0.63870 0.63780 0.47440 0.03100
C 	C 	0.69190 0.65710 0.43740 -0.08600
H 	H 	0.70880 0.70690 0.43580 0.07500
C 	C 	0.72030 0.60620 0.40330 0.03500
H 	H 	0.75630 0.62060 0.37920 0.04000
C 	C 	0.72050 0.47900 0.36580 0.39300
C 	C 	0.60790 0.69490 0.50830 0.11700
C 	C 	0.61500 0.04700 0.49020 -0.11100
C 	C 	0.64230 0.99290 0.45800 0.04200
H 	H 	0.66490 0.00690 0.42710 0.04200
C 	C 	0.63670 0.91900 0.47070 -0.09300
H 	H 	0.65740 0.88270 0.44890 0.07600
C 	C 	0.60150 0.89640 0.51470 0.03600
C 	C 	0.57430 0.95170 0.54900 -0.08800
H 	H 	0.55330 0.93800 0.58040 0.07500
C 	C 	0.57970 0.02620 0.53490 0.03600
H 	H 	0.55900 0.06330 0.55610 0.03900
C 	C 	0.61720 0.12840 0.47700 0.38500
C 	C 	0.59040 0.81630 0.52690 0.11200
C 	C 	0.39450 0.66840 0.69980 -0.10600
C 	C 	0.40100 0.74260 0.68540 0.03000
H 	H 	0.37470 0.77990 0.70320 0.04400
C 	C 	0.44670 0.76180 0.64450 -0.08600
H 	H 	0.45060 0.81210 0.63440 0.07300
C 	C 	0.48650 0.70710 0.61860 0.03200
C 	C 	0.47830 0.63240 0.63310 -0.08500
H 	H 	0.50380 0.59480 0.61510 0.06900
C 	C 	0.43270 0.61310 0.67380 0.02800
H 	H 	0.42790 0.56270 0.68370 0.03400
C 	C 	0.34370 0.64670 0.74290 0.37100
C 	C 	0.53650 0.72810 0.57610 0.11400
N 	N 	0.54610 0.79970 0.56730 -0.14100
N 	N 	0.56550 0.67230 0.54690 -0.14000
N 	N 	0.62180 0.76570 0.49660 -0.14200
O 	O 	0.75440 0.50480 0.32803 -0.45300
O 	O 	0.70830 0.40980 0.37318 -0.48400
O 	O 	0.82480 0.17820 0.32930 -0.22400
O 	O 	0.58450 0.17280 0.50497 -0.45400
O 	O 	0.65490 0.14560 0.43744 -0.44100
O 	O 	0.33840 0.57930 0.75414 -0.45900
O 	O 	0.31110 0.69910 0.76710 -0.45000
Zn	Zn	0.74596 0.33666 0.32503 1.23600
C 	C 	0.53300 0.69450 0.84450 -0.11400
C 	C 	0.19120 0.78210 0.88410 0.21100
C 	C 	0.51060 0.64260 0.80780 0.03400
H 	H 	0.46060 0.62660 0.80590 0.03700
C 	C 	0.56380 0.61540 0.77430 -0.08700
H 	H 	0.54930 0.57990 0.74990 0.07200
C 	C 	0.63780 0.63870 0.77560 0.03000
C 	C 	0.65710 0.69190 0.81260 -0.08500
H 	H 	0.70690 0.70880 0.81420 0.07500
C 	C 	0.60620 0.72030 0.84670 0.03500
H 	H 	0.62060 0.75630 0.87080 0.04100
C 	C 	0.47900 0.72050 0.88420 0.39200
C 	C 	0.69490 0.60790 0.74170 0.11700
C 	C 	0.04700 0.61500 0.75980 -0.11000
C 	C 	0.99290 0.64230 0.79200 0.04100
H 	H 	0.00690 0.66490 0.82290 0.04400
C 	C 	0.91900 0.63670 0.77930 -0.09300
H 	H 	0.88270 0.65740 0.80110 0.07600
C 	C 	0.89640 0.60150 0.73530 0.03600
C 	C 	0.95170 0.57430 0.70100 -0.08800
H 	H 	0.93800 0.55330 0.66960 0.07500
C 	C 	0.02620 0.57970 0.71510 0.03500
H 	H 	0.06330 0.55900 0.69390 0.03900
C 	C 	0.12840 0.61720 0.77300 0.38500
C 	C 	0.81630 0.59040 0.72310 0.11200
C 	C 	0.66840 0.39450 0.55020 -0.10600
C 	C 	0.74260 0.40100 0.56460 0.03000
H 	H 	0.77990 0.37470 0.54680 0.04400
C 	C 	0.76180 0.44670 0.60550 -0.08600
H 	H 	0.81210 0.45060 0.61560 0.07300
C 	C 	0.70710 0.48650 0.63140 0.03200
C 	C 	0.63240 0.47830 0.61690 -0.08500
H 	H 	0.59480 0.50380 0.63490 0.06900
C 	C 	0.61310 0.43270 0.57620 0.02800
H 	H 	0.56270 0.42790 0.56630 0.03400
C 	C 	0.64670 0.34370 0.50710 0.37100
C 	C 	0.72810 0.53650 0.67390 0.11400
N 	N 	0.79970 0.54610 0.68270 -0.14100
N 	N 	0.67230 0.56550 0.70310 -0.14000
N 	N 	0.76570 0.62180 0.75340 -0.14100
O 	O 	0.50480 0.75440 0.92197 -0.44900
O 	O 	0.40980 0.70830 0.87682 -0.48300
O 	O 	0.17820 0.82480 0.92070 -0.22100
O 	O 	0.17280 0.58450 0.74503 -0.45400
O 	O 	0.14560 0.65490 0.81256 -0.44000
O 	O 	0.57930 0.33840 0.49586 -0.45900
O 	O 	0.69910 0.31110 0.48290 -0.45000
Zn	Zn	0.33666 0.74596 0.92497 1.23600
C 	C 	0.46700 0.30550 0.34450 -0.11500
C 	C 	0.80880 0.21790 0.38410 0.21000
C 	C 	0.48940 0.35740 0.30780 0.03400
H 	H 	0.53940 0.37340 0.30590 0.03700
C 	C 	0.43620 0.38460 0.27430 -0.08700
H 	H 	0.45070 0.42010 0.24990 0.07200
C 	C 	0.36220 0.36130 0.27560 0.03000
C 	C 	0.34290 0.30810 0.31260 -0.08600
H 	H 	0.29310 0.29120 0.31420 0.07500
C 	C 	0.39380 0.27970 0.34670 0.03500
H 	H 	0.37940 0.24370 0.37080 0.04000
C 	C 	0.52100 0.27950 0.38420 0.39300
C 	C 	0.30510 0.39210 0.24170 0.11700
C 	C 	0.95300 0.38500 0.25980 -0.11000
C 	C 	0.00710 0.35770 0.29200 0.04000
H 	H 	0.99310 0.33510 0.32290 0.04300
C 	C 	0.08100 0.36330 0.27930 -0.09300
H 	H 	0.11730 0.34260 0.30110 0.07600
C 	C 	0.10360 0.39850 0.23530 0.03600
C 	C 	0.04830 0.42570 0.20100 -0.08900
H 	H 	0.06200 0.44670 0.16960 0.07400
C 	C 	0.97380 0.42030 0.21510 0.03600
H 	H 	0.93670 0.44100 0.19390 0.03900
C 	C 	0.87160 0.38280 0.27300 0.38500
C 	C 	0.18370 0.40960 0.22310 0.11100
C 	C 	0.33160 0.60550 0.05020 -0.09400
C 	C 	0.25740 0.59900 0.06460 0.02000
H 	H 	0.22010 0.62530 0.04680 0.04300
C 	C 	0.23820 0.55330 0.10550 -0.08100
H 	H 	0.18790 0.54940 0.11560 0.07000
C 	C 	0.29290 0.51350 0.13140 0.02700
C 	C 	0.36760 0.52170 0.11690 -0.07900
H 	H 	0.40520 0.49620 0.13490 0.06700
C 	C 	0.38690 0.56730 0.07620 0.01900
H 	H 	0.43730 0.57210 0.06630 0.03500
C 	C 	0.35330 0.65630 0.00710 0.33300
C 	C 	0.27190 0.46350 0.17390 0.11500
N 	N 	0.20030 0.45390 0.18270 -0.14100
N 	N 	0.32770 0.43450 0.20310 -0.14100
N 	N 	0.23430 0.37820 0.25340 -0.14200
O 	O 	0.49520 0.24560 0.42197 -0.45300
O 	O 	0.59020 0.29170 0.37682 -0.48400
O 	O 	0.82180 0.17520 0.42070 -0.22400
O 	O 	0.82720 0.41550 0.24503 -0.45500
O 	O 	0.85440 0.34510 0.31256 -0.44100
O 	O 	0.42070 0.66160 0.99586 -0.43500
O 	O 	0.30090 0.68890 0.98290 -0.43000
Zn	Zn	0.66334 0.25404 0.42497 1.23600
C 	C 	0.69450 0.46700 0.09450 -0.12100
C 	C 	0.78210 0.80880 0.13410 0.21100
C 	C 	0.64260 0.48940 0.05780 0.04700
H 	H 	0.62660 0.53940 0.05590 0.03000
C 	C 	0.61540 0.43620 0.02430 -0.11400
H 	H 	0.57990 0.45070 0.99990 0.09100
C 	C 	0.63870 0.36220 0.02560 0.02300
C 	C 	0.69190 0.34290 0.06260 -0.08500
H 	H 	0.70880 0.29310 0.06420 0.07200
C 	C 	0.72030 0.39380 0.09670 0.03700
H 	H 	0.75630 0.37940 0.12080 0.03900
C 	C 	0.72050 0.52100 0.13420 0.39400
C 	C 	0.60790 0.30510 0.99170 0.13900
C 	C 	0.61500 0.95300 0.00980 -0.14500
C 	C 	0.64230 0.00710 0.04200 0.07400
H 	H 	0.66490 0.99310 0.07290 0.03100
C 	C 	0.63670 0.08100 0.02930 -0.13700
H 	H 	0.65740 0.11730 0.05110 0.08900
C 	C 	0.60150 0.10360 0.98530 0.07000
C 	C 	0.57430 0.04830 0.95100 -0.11700
H 	H 	0.55330 0.06200 0.91960 0.08500
C 	C 	0.57970 0.97380 0.96510 0.07800
H 	H 	0.55900 0.93670 0.94390 0.02700
C 	C 	0.61720 0.87160 0.02300 0.37800
C 	C 	0.59040 0.18370 0.97310 0.11500
C 	C 	0.39450 0.33160 0.80020 -0.10600
C 	C 	0.40100 0.25740 0.81460 0.03000
H 	H 	0.37470 0.22010 0.79680 0.04400
C 	C 	0.44670 0.23820 0.85550 -0.08600
H 	H 	0.45060 0.18790 0.86560 0.07300
C 	C 	0.48650 0.29290 0.88140 0.03200
C 	C 	0.47830 0.36760 0.86690 -0.08400
H 	H 	0.50380 0.40520 0.88490 0.06900
C 	C 	0.43270 0.38690 0.82620 0.02800
H 	H 	0.42790 0.43730 0.81630 0.03400
C 	C 	0.34370 0.35330 0.75710 0.37100
C 	C 	0.53650 0.27190 0.92390 0.11700
N 	N 	0.54610 0.20030 0.93270 -0.14100
N 	N 	0.56550 0.32770 0.95310 -0.14200
N 	N 	0.62180 0.23430 0.00340 -0.15600
O 	O 	0.75440 0.49520 0.17197 -0.45300
O 	O 	0.70830 0.59020 0.12682 -0.48500
O 	O 	0.82480 0.82180 0.17070 -0.22500
O 	O 	0.58450 0.82720 0.99503 -0.43900
O 	O 	0.65490 0.85440 0.06256 -0.44100
O 	O 	0.33840 0.42070 0.74586 -0.45900
O 	O 	0.31110 0.30090 0.73290 -0.45000
Zn	Zn	0.74596 0.66334 0.17497 1.23600
C 	C 	0.30550 0.53300 0.59450 -0.11500
C 	C 	0.21790 0.19120 0.63410 0.21000
C 	C 	0.35740 0.51060 0.55780 0.03400
H 	H 	0.37340 0.46060 0.55590 0.03700
C 	C 	0.38460 0.56380 0.52430 -0.08700
H 	H 	0.42010 0.54930 0.49990 0.07200
C 	C 	0.36130 0.63780 0.52560 0.03100
C 	C 	0.30810 0.65710 0.56260 -0.08600
H 	H 	0.29120 0.70690 0.56420 0.07500
C 	C 	0.27970 0.60620 0.59670 0.03500
H 	H 	0.24370 0.62060 0.62080 0.04000
C 	C 	0.27950 0.47900 0.63420 0.39300
C 	C 	0.39210 0.69490 0.49170 0.11700
C 	C 	0.38500 0.04700 0.50980 -0.11100
C 	C 	0.35770 0.99290 0.54200 0.04200
H 	H 	0.33510 0.00690 0.57290 0.04200
C 	C 	0.36330 0.91900 0.52930 -0.09400
H 	H 	0.34260 0.88270 0.55110 0.07600
C 	C 	0.39850 0.89640 0.48530 0.03600
C 	C 	0.42570 0.95170 0.45100 -0.08900
H 	H 	0.44670 0.93800 0.41960 0.07500
C 	C 	0.42030 0.02620 0.46510 0.03600
H 	H 	0.44100 0.06330 0.44390 0.03900
C 	C 	0.38280 0.12840 0.52300 0.38500
C 	C 	0.40960 0.81630 0.47310 0.11200
C 	C 	0.60550 0.66840 0.30020 -0.10600
C 	C 	0.59900 0.74260 0.31460 0.03000
H 	H 	0.62530 0.77990 0.29680 0.04400
C 	C 	0.55330 0.76180 0.35550 -0.08600
H 	H 	0.54940 0.81210 0.36560 0.07300
C 	C 	0.51350 0.70710 0.38140 0.03200
C 	C 	0.52170 0.63240 0.36690 -0.08500
H 	H 	0.49620 0.59480 0.38490 0.06900
C 	C 	0.56730 0.61310 0.32620 0.02800
H 	H 	0.57210 0.56270 0.31630 0.03400
C 	C 	0.65630 0.64670 0.25710 0.37100
C 	C 	0.46350 0.72810 0.42390 0.11400
N 	N 	0.45390 0.79970 0.43270 -0.14100
N 	N 	0.43450 0.67230 0.45310 -0.14000
N 	N 	0.37820 0.76570 0.50340 -0.14200
O 	O 	0.24560 0.50480 0.67197 -0.45300
O 	O 	0.29170 0.40980 0.62682 -0.48400
O 	O 	0.17520 0.17820 0.67070 -0.22400
O 	O 	0.41550 0.17280 0.49503 -0.45500
O 	O 	0.34510 0.14560 0.56256 -0.44100
O 	O 	0.66160 0.57930 0.24586 -0.45900
O 	O 	0.68890 0.69910 0.23290 -0.45000
Zn	Zn	0.25404 0.33666 0.67497 1.23600
O 	O 	0.74750 0.74750 0.12500 -0.59100
O 	O 	0.25250 0.25250 0.62500 -0.59000
O 	O 	0.25250 0.74750 0.87500 -0.59000
O 	O 	0.74750 0.25250 0.37500 -0.59000
Zn	Zn	0.50000 0.74718 -0.00000 1.24200
Zn	Zn	0.50000 0.25282 0.50000 1.24700
Zn	Zn	0.25282 0.50000 0.75000 1.24700
Zn	Zn	0.74718 0.50000 0.25000 1.24700
