data_crystal

_cell_length_a 26.00100
_cell_length_b 26.00100
_cell_length_c 26.00100
_cell_angle_alpha 90.00000
_cell_angle_beta  90.00000
_cell_angle_gamma 90.00000

_symmetry_space_group_name_	'P 1'
_symmetry_space_group_name_H-M	'P 1'

loop_
_symmetry_equiv_pos_as_xyz
  x,y,z

loop_
_atom_site_label
_atom_site_type_symbol
_atom_site_fract_x
_atom_site_fract_y
_atom_site_fract_z
_atom_site_charge
Cd	Cd	0.87500 0.87500 0.87500 1.23500
Cd	Cd	0.62500 0.12500 0.37500 1.23500
Cd	Cd	0.12500 0.37500 0.62500 1.23500
Cd	Cd	0.37500 0.62500 0.12500 1.23500
Cd	Cd	0.79375 0.79375 0.79375 1.20900
Cd	Cd	0.70625 0.20625 0.29375 1.21000
Cd	Cd	0.20625 0.29375 0.70625 1.21000
Cd	Cd	0.29375 0.70625 0.20625 1.21000
Cd	Cd	0.54375 0.04375 0.45625 1.21000
Cd	Cd	0.95625 0.95625 0.95625 1.21000
Cd	Cd	0.04375 0.45625 0.54375 1.21000
Cd	Cd	0.45625 0.54375 0.04375 1.21000
H 	H 	0.93930 0.74880 0.93970 0.02600
H 	H 	0.98330 0.61470 0.82280 0.06400
H 	H 	0.00590 0.69480 0.95400 0.06700
H 	H 	0.91950 0.67570 0.80240 0.03000
H 	H 	0.56070 0.25120 0.43970 0.02600
H 	H 	0.51670 0.38530 0.32280 0.06400
H 	H 	0.49410 0.30520 0.45400 0.06700
H 	H 	0.58050 0.32430 0.30240 0.03000
H 	H 	0.06070 0.24880 0.56030 0.02500
H 	H 	0.01670 0.11470 0.67720 0.06400
H 	H 	0.99410 0.19480 0.54600 0.06700
H 	H 	0.08050 0.17570 0.69760 0.03000
H 	H 	0.43930 0.75120 0.06030 0.02600
H 	H 	0.48330 0.88530 0.17720 0.06400
H 	H 	0.50590 0.80520 0.04600 0.06700
H 	H 	0.41950 0.82430 0.19760 0.03000
H 	H 	0.93970 0.93930 0.74880 0.02600
H 	H 	0.82280 0.98330 0.61470 0.06400
H 	H 	0.95400 0.00590 0.69480 0.06700
H 	H 	0.80240 0.91950 0.67570 0.03000
H 	H 	0.43970 0.56070 0.25120 0.02600
H 	H 	0.32280 0.51670 0.38530 0.06400
H 	H 	0.45400 0.49410 0.30520 0.06700
H 	H 	0.30240 0.58050 0.32430 0.03000
H 	H 	0.56030 0.06070 0.24880 0.02500
H 	H 	0.67720 0.01670 0.11470 0.06400
H 	H 	0.54600 0.99410 0.19480 0.06700
H 	H 	0.69760 0.08050 0.17570 0.03000
H 	H 	0.06030 0.43930 0.75120 0.02600
H 	H 	0.17720 0.48330 0.88530 0.06400
H 	H 	0.04600 0.50590 0.80520 0.06700
H 	H 	0.19760 0.41950 0.82430 0.03000
H 	H 	0.74880 0.93970 0.93930 0.02600
H 	H 	0.61470 0.82280 0.98330 0.06400
H 	H 	0.69480 0.95400 0.00590 0.06700
H 	H 	0.67570 0.80240 0.91950 0.03000
H 	H 	0.25120 0.43970 0.56070 0.02600
H 	H 	0.38530 0.32280 0.51670 0.06400
H 	H 	0.30520 0.45400 0.49410 0.06700
H 	H 	0.32430 0.30240 0.58050 0.03000
H 	H 	0.24880 0.56030 0.06070 0.02500
H 	H 	0.11470 0.67720 0.01670 0.06400
H 	H 	0.19480 0.54600 0.99410 0.06700
H 	H 	0.17570 0.69760 0.08050 0.03000
H 	H 	0.75120 0.06030 0.43930 0.02600
H 	H 	0.88530 0.17720 0.48330 0.06400
H 	H 	0.80520 0.04600 0.50590 0.06700
H 	H 	0.82430 0.19760 0.41950 0.03000
H 	H 	0.49880 0.18930 0.31030 0.02600
H 	H 	0.36470 0.23330 0.42720 0.06400
H 	H 	0.44480 0.25590 0.29600 0.06700
H 	H 	0.42570 0.16950 0.44760 0.03000
H 	H 	0.00120 0.81070 0.81030 0.02600
H 	H 	0.13530 0.76670 0.92720 0.06400
H 	H 	0.05520 0.74410 0.79600 0.06700
H 	H 	0.07430 0.83050 0.94760 0.03000
H 	H 	0.99880 0.31070 0.68970 0.02600
H 	H 	0.86470 0.26670 0.57280 0.06400
H 	H 	0.94480 0.24410 0.70400 0.06700
H 	H 	0.92570 0.33050 0.55240 0.03000
H 	H 	0.50120 0.68930 0.18970 0.02600
H 	H 	0.63530 0.73330 0.07280 0.06400
H 	H 	0.55520 0.75590 0.20400 0.06700
H 	H 	0.57430 0.66950 0.05240 0.03000
H 	H 	0.68930 0.18970 0.50120 0.02600
H 	H 	0.73330 0.07280 0.63530 0.06400
H 	H 	0.75590 0.20400 0.55520 0.06700
H 	H 	0.66950 0.05240 0.57430 0.03000
H 	H 	0.31070 0.68970 0.99880 0.02600
H 	H 	0.26670 0.57280 0.86470 0.06400
H 	H 	0.24410 0.70400 0.94480 0.06700
H 	H 	0.33050 0.55240 0.92570 0.03000
H 	H 	0.81070 0.81030 0.00120 0.02600
H 	H 	0.76670 0.92720 0.13530 0.06400
H 	H 	0.74410 0.79600 0.05520 0.06700
H 	H 	0.83050 0.94760 0.07430 0.03000
H 	H 	0.18930 0.31030 0.49880 0.02600
H 	H 	0.23330 0.42720 0.36470 0.06400
H 	H 	0.25590 0.29600 0.44480 0.06700
H 	H 	0.16950 0.44760 0.42570 0.03000
H 	H 	0.68970 0.99880 0.31070 0.02600
H 	H 	0.57280 0.86470 0.26670 0.06400
H 	H 	0.70400 0.94480 0.24410 0.06700
H 	H 	0.55240 0.92570 0.33050 0.03000
H 	H 	0.18970 0.50120 0.68930 0.02600
H 	H 	0.07280 0.63530 0.73330 0.06400
H 	H 	0.20400 0.55520 0.75590 0.06700
H 	H 	0.05240 0.57430 0.66950 0.03000
H 	H 	0.31030 0.49880 0.18930 0.02600
H 	H 	0.42720 0.36470 0.23330 0.06400
H 	H 	0.29600 0.44480 0.25590 0.06700
H 	H 	0.44760 0.42570 0.16950 0.03000
H 	H 	0.81030 0.00120 0.81070 0.02600
H 	H 	0.92720 0.13530 0.76670 0.06400
H 	H 	0.79600 0.05520 0.74410 0.06700
H 	H 	0.94760 0.07430 0.83050 0.03000
C 	C 	0.04600 0.61530 0.90200 0.11800
C 	C 	0.94920 0.72390 0.91600 0.03500
C 	C 	0.97630 0.64190 0.84490 -0.08300
C 	C 	0.98740 0.69060 0.92370 -0.08500
C 	C 	0.00380 0.64850 0.89050 0.01800
C 	C 	0.92560 0.71710 0.86790 -0.11500
C 	C 	0.87950 0.74940 0.84540 0.44200
C 	C 	0.93730 0.67800 0.83330 0.01500
C 	C 	0.45400 0.38470 0.40200 0.11800
C 	C 	0.55080 0.27610 0.41600 0.03400
C 	C 	0.52370 0.35810 0.34490 -0.08200
C 	C 	0.51260 0.30940 0.42370 -0.08500
C 	C 	0.49620 0.35150 0.39050 0.01700
C 	C 	0.57440 0.28290 0.36790 -0.11500
C 	C 	0.62050 0.25060 0.34540 0.44200
C 	C 	0.56270 0.32200 0.33330 0.01500
C 	C 	0.95400 0.11530 0.59800 0.11700
C 	C 	0.05080 0.22390 0.58400 0.03500
C 	C 	0.02370 0.14190 0.65510 -0.08300
C 	C 	0.01260 0.19060 0.57630 -0.08600
C 	C 	0.99620 0.14850 0.60950 0.01800
C 	C 	0.07440 0.21710 0.63210 -0.11600
C 	C 	0.12050 0.24940 0.65460 0.44200
C 	C 	0.06270 0.17800 0.66670 0.01600
C 	C 	0.54600 0.88470 0.09800 0.11800
C 	C 	0.44920 0.77610 0.08400 0.03400
C 	C 	0.47630 0.85810 0.15510 -0.08200
C 	C 	0.48740 0.80940 0.07630 -0.08500
C 	C 	0.50380 0.85150 0.10950 0.01700
C 	C 	0.42560 0.78290 0.13210 -0.11500
C 	C 	0.37950 0.75060 0.15460 0.44200
C 	C 	0.43730 0.82200 0.16670 0.01500
C 	C 	0.90200 0.04600 0.61530 0.11800
C 	C 	0.91600 0.94920 0.72390 0.03500
C 	C 	0.84490 0.97630 0.64190 -0.08300
C 	C 	0.92370 0.98740 0.69060 -0.08500
C 	C 	0.89050 0.00380 0.64850 0.01800
C 	C 	0.86790 0.92560 0.71710 -0.11500
C 	C 	0.84540 0.87950 0.74940 0.44200
C 	C 	0.83330 0.93730 0.67800 0.01500
C 	C 	0.40200 0.45400 0.38470 0.11800
C 	C 	0.41600 0.55080 0.27610 0.03400
C 	C 	0.34490 0.52370 0.35810 -0.08200
C 	C 	0.42370 0.51260 0.30940 -0.08500
C 	C 	0.39050 0.49620 0.35150 0.01700
C 	C 	0.36790 0.57440 0.28290 -0.11500
C 	C 	0.34540 0.62050 0.25060 0.44200
C 	C 	0.33330 0.56270 0.32200 0.01500
C 	C 	0.59800 0.95400 0.11530 0.11700
C 	C 	0.58400 0.05080 0.22390 0.03500
C 	C 	0.65510 0.02370 0.14190 -0.08300
C 	C 	0.57630 0.01260 0.19060 -0.08600
C 	C 	0.60950 0.99620 0.14850 0.01800
C 	C 	0.63210 0.07440 0.21710 -0.11600
C 	C 	0.65460 0.12050 0.24940 0.44200
C 	C 	0.66670 0.06270 0.17800 0.01600
C 	C 	0.09800 0.54600 0.88470 0.11800
C 	C 	0.08400 0.44920 0.77610 0.03400
C 	C 	0.15510 0.47630 0.85810 -0.08200
C 	C 	0.07630 0.48740 0.80940 -0.08500
C 	C 	0.10950 0.50380 0.85150 0.01700
C 	C 	0.13210 0.42560 0.78290 -0.11500
C 	C 	0.15460 0.37950 0.75060 0.44200
C 	C 	0.16670 0.43730 0.82200 0.01500
C 	C 	0.61530 0.90200 0.04600 0.11800
C 	C 	0.72390 0.91600 0.94920 0.03500
C 	C 	0.64190 0.84490 0.97630 -0.08300
C 	C 	0.69060 0.92370 0.98740 -0.08500
C 	C 	0.64850 0.89050 0.00380 0.01800
C 	C 	0.71710 0.86790 0.92560 -0.11500
C 	C 	0.74940 0.84540 0.87950 0.44200
C 	C 	0.67800 0.83330 0.93730 0.01500
C 	C 	0.38470 0.40200 0.45400 0.11800
C 	C 	0.27610 0.41600 0.55080 0.03400
C 	C 	0.35810 0.34490 0.52370 -0.08200
C 	C 	0.30940 0.42370 0.51260 -0.08500
C 	C 	0.35150 0.39050 0.49620 0.01700
C 	C 	0.28290 0.36790 0.57440 -0.11500
C 	C 	0.25060 0.34540 0.62050 0.44200
C 	C 	0.32200 0.33330 0.56270 0.01500
C 	C 	0.11530 0.59800 0.95400 0.11700
C 	C 	0.22390 0.58400 0.05080 0.03500
C 	C 	0.14190 0.65510 0.02370 -0.08300
C 	C 	0.19060 0.57630 0.01260 -0.08600
C 	C 	0.14850 0.60950 0.99620 0.01800
C 	C 	0.21710 0.63210 0.07440 -0.11600
C 	C 	0.24940 0.65460 0.12050 0.44200
C 	C 	0.17800 0.66670 0.06270 0.01600
C 	C 	0.88470 0.09800 0.54600 0.11800
C 	C 	0.77610 0.08400 0.44920 0.03400
C 	C 	0.85810 0.15510 0.47630 -0.08200
C 	C 	0.80940 0.07630 0.48740 -0.08500
C 	C 	0.85150 0.10950 0.50380 0.01700
C 	C 	0.78290 0.13210 0.42560 -0.11500
C 	C 	0.75060 0.15460 0.37950 0.44200
C 	C 	0.82200 0.16670 0.43730 0.01500
C 	C 	0.36530 0.29600 0.34800 0.11800
C 	C 	0.47390 0.19920 0.33400 0.03400
C 	C 	0.39190 0.22630 0.40510 -0.08200
C 	C 	0.44060 0.23740 0.32630 -0.08500
C 	C 	0.39850 0.25380 0.35950 0.01700
C 	C 	0.46710 0.17560 0.38210 -0.11500
C 	C 	0.49940 0.12950 0.40460 0.44200
C 	C 	0.42800 0.18730 0.41670 0.01500
C 	C 	0.13470 0.70400 0.84800 0.11800
C 	C 	0.02610 0.80080 0.83400 0.03400
C 	C 	0.10810 0.77370 0.90510 -0.08200
C 	C 	0.05940 0.76260 0.82630 -0.08500
C 	C 	0.10150 0.74620 0.85950 0.01700
C 	C 	0.03290 0.82440 0.88210 -0.11500
C 	C 	0.00060 0.87050 0.90460 0.44200
C 	C 	0.07200 0.81270 0.91670 0.01500
C 	C 	0.86530 0.20400 0.65200 0.11800
C 	C 	0.97390 0.30080 0.66600 0.03400
C 	C 	0.89190 0.27370 0.59490 -0.08200
C 	C 	0.94060 0.26260 0.67370 -0.08500
C 	C 	0.89850 0.24620 0.64050 0.01700
C 	C 	0.96710 0.32440 0.61790 -0.11500
C 	C 	0.99940 0.37050 0.59540 0.44200
C 	C 	0.92800 0.31270 0.58330 0.01500
C 	C 	0.63470 0.79600 0.15200 0.11800
C 	C 	0.52610 0.69920 0.16600 0.03400
C 	C 	0.60810 0.72630 0.09490 -0.08200
C 	C 	0.55940 0.73740 0.17370 -0.08500
C 	C 	0.60150 0.75380 0.14050 0.01700
C 	C 	0.53290 0.67560 0.11790 -0.11500
C 	C 	0.50060 0.62950 0.09540 0.44200
C 	C 	0.57200 0.68730 0.08330 0.01500
C 	C 	0.79600 0.15200 0.63470 0.11800
C 	C 	0.69920 0.16600 0.52610 0.03400
C 	C 	0.72630 0.09490 0.60810 -0.08200
C 	C 	0.73740 0.17370 0.55940 -0.08500
C 	C 	0.75380 0.14050 0.60150 0.01700
C 	C 	0.67560 0.11790 0.53290 -0.11500
C 	C 	0.62950 0.09540 0.50060 0.44200
C 	C 	0.68730 0.08330 0.57200 0.01500
C 	C 	0.20400 0.65200 0.86530 0.11800
C 	C 	0.30080 0.66600 0.97390 0.03400
C 	C 	0.27370 0.59490 0.89190 -0.08200
C 	C 	0.26260 0.67370 0.94060 -0.08500
C 	C 	0.24620 0.64050 0.89850 0.01700
C 	C 	0.32440 0.61790 0.96710 -0.11500
C 	C 	0.37050 0.59540 0.99940 0.44200
C 	C 	0.31270 0.58330 0.92800 0.01500
C 	C 	0.70400 0.84800 0.13470 0.11800
C 	C 	0.80080 0.83400 0.02610 0.03400
C 	C 	0.77370 0.90510 0.10810 -0.08200
C 	C 	0.76260 0.82630 0.05940 -0.08500
C 	C 	0.74620 0.85950 0.10150 0.01700
C 	C 	0.82440 0.88210 0.03290 -0.11500
C 	C 	0.87050 0.90460 0.00060 0.44200
C 	C 	0.81270 0.91670 0.07200 0.01500
C 	C 	0.29600 0.34800 0.36530 0.11800
C 	C 	0.19920 0.33400 0.47390 0.03400
C 	C 	0.22630 0.40510 0.39190 -0.08200
C 	C 	0.23740 0.32630 0.44060 -0.08500
C 	C 	0.25380 0.35950 0.39850 0.01700
C 	C 	0.17560 0.38210 0.46710 -0.11500
C 	C 	0.12950 0.40460 0.49940 0.44200
C 	C 	0.18730 0.41670 0.42800 0.01500
C 	C 	0.65200 0.86530 0.20400 0.11800
C 	C 	0.66600 0.97390 0.30080 0.03400
C 	C 	0.59490 0.89190 0.27370 -0.08200
C 	C 	0.67370 0.94060 0.26260 -0.08500
C 	C 	0.64050 0.89850 0.24620 0.01700
C 	C 	0.61790 0.96710 0.32440 -0.11500
C 	C 	0.59540 0.99940 0.37050 0.44200
C 	C 	0.58330 0.92800 0.31270 0.01500
C 	C 	0.15200 0.63470 0.79600 0.11800
C 	C 	0.16600 0.52610 0.69920 0.03400
C 	C 	0.09490 0.60810 0.72630 -0.08200
C 	C 	0.17370 0.55940 0.73740 -0.08500
C 	C 	0.14050 0.60150 0.75380 0.01700
C 	C 	0.11790 0.53290 0.67560 -0.11500
C 	C 	0.09540 0.50060 0.62950 0.44200
C 	C 	0.08330 0.57200 0.68730 0.01500
C 	C 	0.34800 0.36530 0.29600 0.11800
C 	C 	0.33400 0.47390 0.19920 0.03400
C 	C 	0.40510 0.39190 0.22630 -0.08200
C 	C 	0.32630 0.44060 0.23740 -0.08500
C 	C 	0.35950 0.39850 0.25380 0.01700
C 	C 	0.38210 0.46710 0.17560 -0.11500
C 	C 	0.40460 0.49940 0.12950 0.44200
C 	C 	0.41670 0.42800 0.18730 0.01500
C 	C 	0.84800 0.13470 0.70400 0.11800
C 	C 	0.83400 0.02610 0.80080 0.03400
C 	C 	0.90510 0.10810 0.77370 -0.08200
C 	C 	0.82630 0.05940 0.76260 -0.08500
C 	C 	0.85950 0.10150 0.74620 0.01700
C 	C 	0.88210 0.03290 0.82440 -0.11500
C 	C 	0.90460 0.00060 0.87050 0.44200
C 	C 	0.91670 0.07200 0.81270 0.01500
N 	N 	0.05700 0.57420 0.87330 -0.14500
N 	N 	0.44300 0.42580 0.37330 -0.14500
N 	N 	0.94300 0.07420 0.62670 -0.14500
N 	N 	0.55700 0.92580 0.12670 -0.14500
N 	N 	0.87330 0.05700 0.57420 -0.14500
N 	N 	0.37330 0.44300 0.42580 -0.14500
N 	N 	0.62670 0.94300 0.07420 -0.14500
N 	N 	0.12670 0.55700 0.92580 -0.14500
N 	N 	0.57420 0.87330 0.05700 -0.14500
N 	N 	0.42580 0.37330 0.44300 -0.14500
N 	N 	0.07420 0.62670 0.94300 -0.14500
N 	N 	0.92580 0.12670 0.55700 -0.14500
N 	N 	0.32420 0.30700 0.37670 -0.14500
N 	N 	0.17580 0.69300 0.87670 -0.14500
N 	N 	0.82420 0.19300 0.62330 -0.14500
N 	N 	0.67580 0.80700 0.12330 -0.14500
N 	N 	0.80700 0.12330 0.67580 -0.14500
N 	N 	0.19300 0.62330 0.82420 -0.14500
N 	N 	0.69300 0.87670 0.17580 -0.14500
N 	N 	0.30700 0.37670 0.32420 -0.14500
N 	N 	0.62330 0.82420 0.19300 -0.14500
N 	N 	0.12330 0.67580 0.80700 -0.14500
N 	N 	0.37670 0.32420 0.30700 -0.14500
N 	N 	0.87670 0.17580 0.69300 -0.14500
O 	O 	0.85280 0.74000 0.81060 -0.52400
O 	O 	0.87230 0.78580 0.87560 -0.47100
O 	O 	0.64720 0.26000 0.31060 -0.52400
O 	O 	0.62770 0.21420 0.37560 -0.47100
O 	O 	0.14720 0.24000 0.68940 -0.52400
O 	O 	0.12770 0.28580 0.62440 -0.47100
O 	O 	0.35280 0.76000 0.18940 -0.52400
O 	O 	0.37230 0.71420 0.12440 -0.47100
O 	O 	0.81060 0.85280 0.74000 -0.52400
O 	O 	0.87560 0.87230 0.78580 -0.47100
O 	O 	0.31060 0.64720 0.26000 -0.52400
O 	O 	0.37560 0.62770 0.21420 -0.47100
O 	O 	0.68940 0.14720 0.24000 -0.52400
O 	O 	0.62440 0.12770 0.28580 -0.47100
O 	O 	0.18940 0.35280 0.76000 -0.52400
O 	O 	0.12440 0.37230 0.71420 -0.47100
O 	O 	0.74000 0.81060 0.85280 -0.52400
O 	O 	0.78580 0.87560 0.87230 -0.47100
O 	O 	0.26000 0.31060 0.64720 -0.52400
O 	O 	0.21420 0.37560 0.62770 -0.47100
O 	O 	0.24000 0.68940 0.14720 -0.52400
O 	O 	0.28580 0.62440 0.12770 -0.47100
O 	O 	0.76000 0.18940 0.35280 -0.52400
O 	O 	0.71420 0.12440 0.37230 -0.47100
O 	O 	0.49000 0.10280 0.43940 -0.52400
O 	O 	0.53580 0.12230 0.37440 -0.47100
O 	O 	0.01000 0.89720 0.93940 -0.52400
O 	O 	0.96420 0.87770 0.87440 -0.47100
O 	O 	0.99000 0.39720 0.56060 -0.52400
O 	O 	0.03580 0.37770 0.62560 -0.47100
O 	O 	0.51000 0.60280 0.06060 -0.52400
O 	O 	0.46420 0.62230 0.12560 -0.47100
O 	O 	0.60280 0.06060 0.51000 -0.52400
O 	O 	0.62230 0.12560 0.46420 -0.47100
O 	O 	0.39720 0.56060 0.99000 -0.52400
O 	O 	0.37770 0.62560 0.03580 -0.47100
O 	O 	0.89720 0.93940 0.01000 -0.52400
O 	O 	0.87770 0.87440 0.96420 -0.47100
O 	O 	0.10280 0.43940 0.49000 -0.52400
O 	O 	0.12230 0.37440 0.53580 -0.47100
O 	O 	0.56060 0.99000 0.39720 -0.52400
O 	O 	0.62560 0.03580 0.37770 -0.47100
O 	O 	0.06060 0.51000 0.60280 -0.52400
O 	O 	0.12560 0.46420 0.62230 -0.47100
O 	O 	0.43940 0.49000 0.10280 -0.52400
O 	O 	0.37440 0.53580 0.12230 -0.47100
O 	O 	0.93940 0.01000 0.89720 -0.52400
O 	O 	0.87440 0.96420 0.87770 -0.47100
