data_crystal

_cell_length_a 17.99800
_cell_length_b 17.99800
_cell_length_c 25.95770
_cell_angle_alpha 90.00000
_cell_angle_beta  90.00000
_cell_angle_gamma 90.00000

_symmetry_space_group_name_	'P 1'
_symmetry_space_group_name_H-M	'P 1'

loop_
_symmetry_equiv_pos_as_xyz
  x,y,z

loop_
_atom_site_label
_atom_site_type_symbol
_atom_site_fract_x
_atom_site_fract_y
_atom_site_fract_z
_atom_site_charge
C 	C 	0.33360 0.60990 0.94880 -0.10700
C 	C 	0.22690 0.81260 0.14080 0.24000
C 	C 	0.38780 0.57000 0.92341 0.01400
C 	C 	0.36880 0.52290 0.88358 -0.03800
C 	C 	0.29410 0.51500 0.86910 0.01300
C 	C 	0.24010 0.55670 0.89400 -0.07400
H 	H 	0.18970 0.55320 0.88350 0.06800
C 	C 	0.25940 0.60310 0.93390 0.02500
H 	H 	0.22210 0.63060 0.95130 0.04700
C 	C 	0.35490 0.66100 0.99171 0.40800
C 	C 	0.27400 0.46560 0.82510 0.12300
C 	C 	0.46840 0.30410 0.65517 -0.31500
C 	C 	0.39540 0.28010 0.65300 0.39600
C 	C 	0.34420 0.30840 0.68690 -0.81700
C 	C 	0.36360 0.35970 0.72450 0.38800
C 	C 	0.43700 0.38290 0.72760 -0.33600
H 	H 	0.45150 0.41710 0.75360 0.15300
C 	C 	0.48930 0.35630 0.69280 0.24700
H 	H 	0.53920 0.37340 0.69440 -0.03300
C 	C 	0.52170 0.27670 0.61580 0.46700
C 	C 	0.30590 0.39180 0.75810 -0.00200
C 	C 	0.95730 0.38710 0.73940 -0.10500
C 	C 	0.97760 0.42120 0.78570 0.03900
C 	C 	0.05060 0.42760 0.79790 -0.08600
H 	H 	0.06450 0.45080 0.82940 0.07300
C 	C 	0.10600 0.40050 0.76470 0.03000
C 	C 	0.08360 0.36660 0.71910 -0.08500
H 	H 	0.12020 0.34820 0.69600 0.06800
C 	C 	0.01050 0.35930 0.70680 0.03400
H 	H 	0.99630 0.33500 0.67580 0.04200
C 	C 	0.87510 0.38420 0.72644 0.38000
C 	C 	0.18560 0.41200 0.77660 0.11700
N 	N 	0.23560 0.37840 0.74690 -0.12300
N 	N 	0.20190 0.45480 0.81646 -0.14100
N 	N 	0.32890 0.43590 0.79758 -0.12300
O 	O 	0.42265 0.66643 0.00216 -0.47600
O 	O 	0.30332 0.69392 0.01581 -0.47100
O 	O 	0.59067 0.29020 0.62349 -0.49600
O 	O 	0.49712 0.24045 0.57924 -0.48000
O 	O 	0.85763 0.34640 0.68619 -0.44400
O 	O 	0.83134 0.41616 0.75494 -0.45300
O 	O 	0.18600 0.82340 0.17770 -0.24000
Zn	Zn	0.33706 0.75018 0.07541 1.23500
H 	H 	0.44300 0.57700 0.93360 0.04000
H 	H 	0.37600 0.24700 0.61960 -0.05600
H 	H 	0.42400 0.49900 0.86800 0.04100
H 	H 	0.94000 0.44000 0.81300 0.03900
H 	H 	0.30700 0.29400 0.68200 0.45900
C 	C 	0.66640 0.39010 0.44880 -0.09600
C 	C 	0.77310 0.18740 0.64080 0.24100
C 	C 	0.61220 0.43000 0.42341 0.00700
C 	C 	0.63120 0.47710 0.38358 -0.03400
C 	C 	0.70590 0.48500 0.36910 0.01000
C 	C 	0.75990 0.44330 0.39400 -0.07000
H 	H 	0.81030 0.44680 0.38350 0.06500
C 	C 	0.74060 0.39690 0.43390 0.01600
H 	H 	0.77790 0.36940 0.45130 0.04600
C 	C 	0.64510 0.33900 0.49171 0.37000
C 	C 	0.72600 0.53440 0.32510 0.12300
C 	C 	0.53160 0.69590 0.15517 -0.31500
C 	C 	0.60460 0.71990 0.15300 0.39500
C 	C 	0.65580 0.69160 0.18690 -0.81500
C 	C 	0.63640 0.64030 0.22450 0.38700
C 	C 	0.56300 0.61710 0.22760 -0.33600
H 	H 	0.54850 0.58290 0.25360 0.15300
C 	C 	0.51070 0.64370 0.19280 0.24700
H 	H 	0.46080 0.62660 0.19440 -0.03300
C 	C 	0.47830 0.72330 0.11580 0.46700
C 	C 	0.69410 0.60820 0.25810 -0.00200
C 	C 	0.04270 0.61290 0.23940 -0.10400
C 	C 	0.02240 0.57880 0.28570 0.03800
C 	C 	0.94940 0.57240 0.29790 -0.08600
H 	H 	0.93550 0.54920 0.32940 0.07200
C 	C 	0.89400 0.59950 0.26470 0.02900
C 	C 	0.91640 0.63340 0.21910 -0.08500
H 	H 	0.87980 0.65180 0.19600 0.06700
C 	C 	0.98950 0.64070 0.20680 0.03200
H 	H 	0.00370 0.66500 0.17580 0.04200
C 	C 	0.12490 0.61580 0.22644 0.38000
C 	C 	0.81440 0.58800 0.27660 0.11700
N 	N 	0.76440 0.62160 0.24690 -0.12300
N 	N 	0.79810 0.54520 0.31646 -0.14200
N 	N 	0.67110 0.56410 0.29758 -0.12300
O 	O 	0.57735 0.33357 0.50216 -0.45400
O 	O 	0.69668 0.30608 0.51581 -0.45100
O 	O 	0.40933 0.70980 0.12349 -0.49600
O 	O 	0.50288 0.75955 0.07924 -0.48200
O 	O 	0.14237 0.65360 0.18619 -0.44500
O 	O 	0.16866 0.58384 0.25494 -0.45300
O 	O 	0.81400 0.17660 0.67770 -0.23900
Zn	Zn	0.66294 0.24982 0.57541 1.23500
H 	H 	0.55700 0.42300 0.43360 0.04000
H 	H 	0.62400 0.75300 0.11960 -0.05700
H 	H 	0.57600 0.50100 0.36800 0.04000
H 	H 	0.06000 0.56000 0.31300 0.03800
H 	H 	0.69300 0.70600 0.18200 0.45800
C 	C 	0.39010 0.33360 0.19880 -0.09600
C 	C 	0.18740 0.22690 0.39080 0.24100
C 	C 	0.43000 0.38780 0.17341 0.00800
C 	C 	0.47710 0.36880 0.13358 -0.03500
C 	C 	0.48500 0.29410 0.11910 0.01000
C 	C 	0.44330 0.24010 0.14400 -0.07100
H 	H 	0.44680 0.18970 0.13350 0.06500
C 	C 	0.39690 0.25940 0.18390 0.01700
H 	H 	0.36940 0.22210 0.20130 0.04600
C 	C 	0.33900 0.35490 0.24171 0.37000
C 	C 	0.53440 0.27400 0.07510 0.12000
C 	C 	0.69590 0.46840 0.90517 -0.31400
C 	C 	0.71990 0.39540 0.90300 0.40300
C 	C 	0.69160 0.34420 0.93690 -0.83400
C 	C 	0.64030 0.36360 0.97450 0.40400
C 	C 	0.61710 0.43700 0.97760 -0.31600
H 	H 	0.58290 0.45150 0.00360 0.13700
C 	C 	0.64370 0.48930 0.94280 0.24000
H 	H 	0.62660 0.53920 0.94440 -0.02700
C 	C 	0.72330 0.52170 0.86580 0.46700
C 	C 	0.60820 0.30590 0.00810 -0.02800
C 	C 	0.61290 0.95730 0.98940 -0.07400
C 	C 	0.57880 0.97760 0.03570 0.00200
C 	C 	0.57240 0.05060 0.04790 -0.06100
H 	H 	0.54920 0.06450 0.07940 0.06300
C 	C 	0.59950 0.10600 0.01470 -0.00300
C 	C 	0.63340 0.08360 0.96910 -0.04500
H 	H 	0.65180 0.12020 0.94600 0.05600
C 	C 	0.64070 0.01050 0.95680 0.00500
H 	H 	0.66500 0.99630 0.92580 0.05200
C 	C 	0.61580 0.87510 0.97644 0.38900
C 	C 	0.58800 0.18560 0.02660 0.11200
N 	N 	0.62160 0.23560 0.99690 -0.10800
N 	N 	0.54520 0.20190 0.06646 -0.14200
N 	N 	0.56410 0.32890 0.04758 -0.12100
O 	O 	0.33357 0.42265 0.25216 -0.45400
O 	O 	0.30608 0.30332 0.26581 -0.45100
O 	O 	0.70980 0.59067 0.87349 -0.49500
O 	O 	0.75955 0.49712 0.82924 -0.48000
O 	O 	0.65360 0.85763 0.93619 -0.44500
O 	O 	0.58384 0.83134 0.00494 -0.46800
O 	O 	0.17660 0.18600 0.42770 -0.24000
Zn	Zn	0.24982 0.33706 0.32541 1.23500
H 	H 	0.42300 0.44300 0.18360 0.04000
H 	H 	0.75300 0.37600 0.86960 -0.05700
H 	H 	0.50100 0.42400 0.11800 0.04000
H 	H 	0.56000 0.94000 0.06300 0.04600
H 	H 	0.70600 0.30700 0.93200 0.47000
C 	C 	0.60990 0.66640 0.69880 -0.09600
C 	C 	0.81260 0.77310 0.89080 0.24100
C 	C 	0.57000 0.61220 0.67341 0.00700
C 	C 	0.52290 0.63120 0.63358 -0.03400
C 	C 	0.51500 0.70590 0.61910 0.01000
C 	C 	0.55670 0.75990 0.64400 -0.07000
H 	H 	0.55320 0.81030 0.63350 0.06500
C 	C 	0.60310 0.74060 0.68390 0.01600
H 	H 	0.63060 0.77790 0.70130 0.04600
C 	C 	0.66100 0.64510 0.74171 0.37000
C 	C 	0.46560 0.72600 0.57510 0.12300
C 	C 	0.30410 0.53160 0.40517 -0.31500
C 	C 	0.28010 0.60460 0.40300 0.39500
C 	C 	0.30840 0.65580 0.43690 -0.81700
C 	C 	0.35970 0.63640 0.47450 0.38800
C 	C 	0.38290 0.56300 0.47760 -0.33600
H 	H 	0.41710 0.54850 0.50360 0.15300
C 	C 	0.35630 0.51070 0.44280 0.24700
H 	H 	0.37340 0.46080 0.44440 -0.03300
C 	C 	0.27670 0.47830 0.36580 0.46700
C 	C 	0.39180 0.69410 0.50810 -0.00200
C 	C 	0.38710 0.04270 0.48940 -0.10500
C 	C 	0.42120 0.02240 0.53570 0.03800
C 	C 	0.42760 0.94940 0.54790 -0.08600
H 	H 	0.45080 0.93550 0.57940 0.07200
C 	C 	0.40050 0.89400 0.51470 0.02900
C 	C 	0.36660 0.91640 0.46910 -0.08500
H 	H 	0.34820 0.87980 0.44600 0.06700
C 	C 	0.35930 0.98950 0.45680 0.03400
H 	H 	0.33500 0.00370 0.42580 0.04200
C 	C 	0.38420 0.12490 0.47644 0.38000
C 	C 	0.41200 0.81440 0.52660 0.11700
N 	N 	0.37840 0.76440 0.49690 -0.12300
N 	N 	0.45480 0.79810 0.56646 -0.14200
N 	N 	0.43590 0.67110 0.54758 -0.12300
O 	O 	0.66643 0.57735 0.75216 -0.45400
O 	O 	0.69392 0.69668 0.76581 -0.45100
O 	O 	0.29020 0.40933 0.37349 -0.49600
O 	O 	0.24045 0.50288 0.32924 -0.48000
O 	O 	0.34640 0.14237 0.43619 -0.44400
O 	O 	0.41616 0.16866 0.50494 -0.45300
O 	O 	0.82340 0.81400 0.92770 -0.23700
Zn	Zn	0.75018 0.66294 0.82541 1.23500
H 	H 	0.57700 0.55700 0.68360 0.04000
H 	H 	0.24700 0.62400 0.36960 -0.05600
H 	H 	0.49900 0.57600 0.61800 0.04000
H 	H 	0.44000 0.06000 0.56300 0.03800
H 	H 	0.29400 0.69300 0.43200 0.45900
C 	C 	0.66640 0.60990 0.05120 -0.08500
C 	C 	0.77310 0.81260 0.85920 0.24100
C 	C 	0.61220 0.57000 0.07659 -0.00100
C 	C 	0.63120 0.52290 0.11642 -0.03100
C 	C 	0.70590 0.51500 0.13090 0.00600
C 	C 	0.75990 0.55670 0.10600 -0.06600
H 	H 	0.81030 0.55320 0.11650 0.06200
C 	C 	0.74060 0.60310 0.06610 0.00700
H 	H 	0.77790 0.63060 0.04870 0.04500
C 	C 	0.64510 0.66100 0.00829 0.33200
C 	C 	0.72600 0.46560 0.17490 0.12400
C 	C 	0.53160 0.30410 0.34483 -0.31500
C 	C 	0.60460 0.28010 0.34700 0.39500
C 	C 	0.65580 0.30840 0.31310 -0.81600
C 	C 	0.63640 0.35970 0.27550 0.38800
C 	C 	0.56300 0.38290 0.27240 -0.33600
H 	H 	0.54850 0.41710 0.24640 0.15300
C 	C 	0.51070 0.35630 0.30720 0.24700
H 	H 	0.46080 0.37340 0.30560 -0.03300
C 	C 	0.47830 0.27670 0.38420 0.46700
C 	C 	0.69410 0.39180 0.24190 -0.00200
C 	C 	0.04270 0.38710 0.26060 -0.10400
C 	C 	0.02240 0.42120 0.21430 0.03800
C 	C 	0.94940 0.42760 0.20210 -0.08600
H 	H 	0.93550 0.45080 0.17060 0.07100
C 	C 	0.89400 0.40050 0.23530 0.02900
C 	C 	0.91640 0.36660 0.28090 -0.08500
H 	H 	0.87980 0.34820 0.30400 0.06700
C 	C 	0.98950 0.35930 0.29320 0.03300
H 	H 	0.00370 0.33500 0.32420 0.04200
C 	C 	0.12490 0.38420 0.27356 0.38000
C 	C 	0.81440 0.41200 0.22340 0.11600
N 	N 	0.76440 0.37840 0.25310 -0.12300
N 	N 	0.79810 0.45480 0.18354 -0.14300
N 	N 	0.67110 0.43590 0.20242 -0.12400
O 	O 	0.57735 0.66643 0.99784 -0.42900
O 	O 	0.69668 0.69392 0.98419 -0.43100
O 	O 	0.40933 0.29020 0.37651 -0.49600
O 	O 	0.50288 0.24045 0.42076 -0.48000
O 	O 	0.14237 0.34640 0.31381 -0.44400
O 	O 	0.16866 0.41616 0.24506 -0.45300
O 	O 	0.81400 0.82340 0.82230 -0.23900
Zn	Zn	0.66294 0.75018 0.92459 1.23600
H 	H 	0.55700 0.57700 0.06640 0.04000
H 	H 	0.62400 0.24700 0.38040 -0.05600
H 	H 	0.57600 0.49900 0.13200 0.03900
H 	H 	0.06000 0.44000 0.18700 0.03700
H 	H 	0.69300 0.29400 0.31800 0.45900
C 	C 	0.33360 0.39010 0.55120 -0.09600
C 	C 	0.22690 0.18740 0.35920 0.24100
C 	C 	0.38780 0.43000 0.57659 0.00700
C 	C 	0.36880 0.47710 0.61642 -0.03400
C 	C 	0.29410 0.48500 0.63090 0.01000
C 	C 	0.24010 0.44330 0.60600 -0.07000
H 	H 	0.18970 0.44680 0.61650 0.06500
C 	C 	0.25940 0.39690 0.56610 0.01600
H 	H 	0.22210 0.36940 0.54870 0.04600
C 	C 	0.35490 0.33900 0.50829 0.37000
C 	C 	0.27400 0.53440 0.67490 0.12300
C 	C 	0.46840 0.69590 0.84483 -0.31400
C 	C 	0.39540 0.71990 0.84700 0.39600
C 	C 	0.34420 0.69160 0.81310 -0.81700
C 	C 	0.36360 0.64030 0.77550 0.38800
C 	C 	0.43700 0.61710 0.77240 -0.33600
H 	H 	0.45150 0.58290 0.74640 0.15300
C 	C 	0.48930 0.64370 0.80720 0.24700
H 	H 	0.53920 0.62660 0.80560 -0.03300
C 	C 	0.52170 0.72330 0.88420 0.46600
C 	C 	0.30590 0.60820 0.74190 -0.00200
C 	C 	0.95730 0.61290 0.76060 -0.10400
C 	C 	0.97760 0.57880 0.71430 0.03800
C 	C 	0.05060 0.57240 0.70210 -0.08600
H 	H 	0.06450 0.54920 0.67060 0.07200
C 	C 	0.10600 0.59950 0.73530 0.02900
C 	C 	0.08360 0.63340 0.78090 -0.08400
H 	H 	0.12020 0.65180 0.80400 0.06800
C 	C 	0.01050 0.64070 0.79320 0.03400
H 	H 	0.99630 0.66500 0.82420 0.04300
C 	C 	0.87510 0.61580 0.77356 0.38000
C 	C 	0.18560 0.58800 0.72340 0.11700
N 	N 	0.23560 0.62160 0.75310 -0.12300
N 	N 	0.20190 0.54520 0.68354 -0.14200
N 	N 	0.32890 0.56410 0.70242 -0.12300
O 	O 	0.42265 0.33357 0.49784 -0.45400
O 	O 	0.30332 0.30608 0.48419 -0.45100
O 	O 	0.59067 0.70980 0.87651 -0.49500
O 	O 	0.49712 0.75955 0.92076 -0.47600
O 	O 	0.85763 0.65360 0.81381 -0.44400
O 	O 	0.83134 0.58384 0.74506 -0.45300
O 	O 	0.18600 0.17660 0.32230 -0.24000
Zn	Zn	0.33706 0.24982 0.42459 1.23500
H 	H 	0.44300 0.42300 0.56640 0.04000
H 	H 	0.37600 0.75300 0.88040 -0.05500
H 	H 	0.42400 0.50100 0.63200 0.04000
H 	H 	0.94000 0.56000 0.68700 0.03800
H 	H 	0.30700 0.70600 0.81800 0.46000
C 	C 	0.60990 0.33360 0.80120 -0.09500
C 	C 	0.81260 0.22690 0.60920 0.24100
C 	C 	0.57000 0.38780 0.82659 0.00700
C 	C 	0.52290 0.36880 0.86642 -0.03400
C 	C 	0.51500 0.29410 0.88090 0.01000
C 	C 	0.55670 0.24010 0.85600 -0.07000
H 	H 	0.55320 0.18970 0.86650 0.06500
C 	C 	0.60310 0.25940 0.81610 0.01600
H 	H 	0.63060 0.22210 0.79870 0.04700
C 	C 	0.66100 0.35490 0.75829 0.37000
C 	C 	0.46560 0.27400 0.92490 0.12600
C 	C 	0.30410 0.46840 0.09483 -0.31600
C 	C 	0.28010 0.39540 0.09700 0.38800
C 	C 	0.30840 0.34420 0.06310 -0.79900
C 	C 	0.35970 0.36360 0.02550 0.37200
C 	C 	0.38290 0.43700 0.02240 -0.35700
H 	H 	0.41710 0.45150 0.99640 0.16900
C 	C 	0.35630 0.48930 0.05720 0.25400
H 	H 	0.37340 0.53920 0.05560 -0.03800
C 	C 	0.27670 0.52170 0.13420 0.46700
C 	C 	0.39180 0.30590 0.99190 0.02300
C 	C 	0.38710 0.95730 0.01060 -0.13500
C 	C 	0.42120 0.97760 0.96430 0.07400
C 	C 	0.42760 0.05060 0.95210 -0.11100
H 	H 	0.45080 0.06450 0.92060 0.08100
C 	C 	0.40050 0.10600 0.98530 0.06100
C 	C 	0.36660 0.08360 0.03090 -0.12500
H 	H 	0.34820 0.12020 0.05400 0.07900
C 	C 	0.35930 0.01050 0.04320 0.06300
H 	H 	0.33500 0.99630 0.07420 0.03100
C 	C 	0.38420 0.87510 0.02356 0.37100
C 	C 	0.41200 0.18560 0.97340 0.12100
N 	N 	0.37840 0.23560 0.00310 -0.13900
N 	N 	0.45480 0.20190 0.93354 -0.14200
N 	N 	0.43590 0.32890 0.95242 -0.12500
O 	O 	0.66643 0.42265 0.74784 -0.45400
O 	O 	0.69392 0.30332 0.73419 -0.45100
O 	O 	0.29020 0.59067 0.12651 -0.49600
O 	O 	0.24045 0.49712 0.17076 -0.48000
O 	O 	0.34640 0.85763 0.06381 -0.44300
O 	O 	0.41616 0.83134 0.99506 -0.43700
O 	O 	0.82340 0.18600 0.57230 -0.24000
Zn	Zn	0.75018 0.33706 0.67459 1.23500
H 	H 	0.57700 0.44300 0.81640 0.04000
H 	H 	0.24700 0.37600 0.13040 -0.05500
H 	H 	0.49900 0.42400 0.88200 0.04000
H 	H 	0.44000 0.94000 0.93700 0.03000
H 	H 	0.29400 0.30700 0.06800 0.44900
C 	C 	0.39010 0.66640 0.30120 -0.09600
C 	C 	0.18740 0.77310 0.10920 0.24000
C 	C 	0.43000 0.61220 0.32659 0.00700
C 	C 	0.47710 0.63120 0.36642 -0.03400
C 	C 	0.48500 0.70590 0.38090 0.01000
C 	C 	0.44330 0.75990 0.35600 -0.07000
H 	H 	0.44680 0.81030 0.36650 0.06500
C 	C 	0.39690 0.74060 0.31610 0.01600
H 	H 	0.36940 0.77790 0.29870 0.04600
C 	C 	0.33900 0.64510 0.25829 0.37000
C 	C 	0.53440 0.72600 0.42490 0.12300
C 	C 	0.69590 0.53160 0.59483 -0.31500
C 	C 	0.71990 0.60460 0.59700 0.39500
C 	C 	0.69160 0.65580 0.56310 -0.81700
C 	C 	0.64030 0.63640 0.52550 0.38800
C 	C 	0.61710 0.56300 0.52240 -0.33600
H 	H 	0.58290 0.54850 0.49640 0.15300
C 	C 	0.64370 0.51070 0.55720 0.24700
H 	H 	0.62660 0.46080 0.55560 -0.03300
C 	C 	0.72330 0.47830 0.63420 0.46700
C 	C 	0.60820 0.69410 0.49190 -0.00200
C 	C 	0.61290 0.04270 0.51060 -0.10500
C 	C 	0.57880 0.02240 0.46430 0.03800
C 	C 	0.57240 0.94940 0.45210 -0.08600
H 	H 	0.54920 0.93550 0.42060 0.07200
C 	C 	0.59950 0.89400 0.48530 0.02900
C 	C 	0.63340 0.91640 0.53090 -0.08500
H 	H 	0.65180 0.87980 0.55400 0.06700
C 	C 	0.64070 0.98950 0.54320 0.03400
H 	H 	0.66500 0.00370 0.57420 0.04200
C 	C 	0.61580 0.12490 0.52356 0.38000
C 	C 	0.58800 0.81440 0.47340 0.11700
N 	N 	0.62160 0.76440 0.50310 -0.12300
N 	N 	0.54520 0.79810 0.43354 -0.14200
N 	N 	0.56410 0.67110 0.45242 -0.12300
O 	O 	0.33357 0.57735 0.24784 -0.45400
O 	O 	0.30608 0.69668 0.23419 -0.45100
O 	O 	0.70980 0.40933 0.62651 -0.49600
O 	O 	0.75955 0.50288 0.67076 -0.48000
O 	O 	0.65360 0.14237 0.56381 -0.44400
O 	O 	0.58384 0.16866 0.49506 -0.45300
O 	O 	0.17660 0.81400 0.07230 -0.24300
Zn	Zn	0.24982 0.66294 0.17459 1.23500
H 	H 	0.42300 0.55700 0.31640 0.04000
H 	H 	0.75300 0.62400 0.63040 -0.05600
H 	H 	0.50100 0.57600 0.38200 0.04000
H 	H 	0.56000 0.06000 0.43700 0.03800
H 	H 	0.70600 0.69300 0.56800 0.45900
O 	O 	0.25149 0.74851 0.12500 -0.60800
O 	O 	0.74851 0.25149 0.62500 -0.60800
O 	O 	0.25149 0.25149 0.37500 -0.60800
O 	O 	0.74851 0.74851 0.87500 -0.60800
Zn	Zn	0.50000 0.75194 -0.00000 1.24400
Zn	Zn	0.50000 0.24806 0.50000 1.24900
Zn	Zn	0.24806 0.50000 0.25000 1.24900
Zn	Zn	0.75194 0.50000 0.75000 1.24900
