data_crystal

_cell_length_a 9.76690
_cell_length_b 17.36050
_cell_length_c 18.22600
_cell_angle_alpha 93.53310
_cell_angle_beta  90.00000
_cell_angle_gamma 106.33800

_symmetry_space_group_name_	'P 1'
_symmetry_space_group_name_H-M	'P 1'

loop_
_symmetry_equiv_pos_as_xyz
  x,y,z

loop_
_atom_site_label
_atom_site_type_symbol
_atom_site_fract_x
_atom_site_fract_y
_atom_site_fract_z
_atom_site_charge
Zn	Zn	0.14831 0.69440 0.51618 1.23700
Zn	Zn	0.45391 0.30560 0.98382 1.24900
Zn	Zn	0.85169 0.30560 0.48382 1.23900
Zn	Zn	0.54609 0.69440 0.01618 1.22600
Zn	Zn	-0.00000 0.50000 0.50000 1.22600
Zn	Zn	0.50000 0.50000 -0.00000 1.22600
H 	H 	0.53760 0.57880 0.60890 0.05800
H 	H 	0.85600 0.50140 0.72020 0.05900
H 	H 	0.31310 0.49860 0.42150 0.05600
H 	H 	0.80100 0.74220 0.81700 0.07000
H 	H 	0.75160 0.50740 0.83200 0.06300
H 	H 	0.91080 0.73680 0.70590 0.06600
H 	H 	0.32190 0.95040 0.58160 0.05700
H 	H 	0.56090 0.91300 0.41380 0.05900
H 	H 	0.95880 0.42120 0.89110 0.04600
H 	H 	0.35460 0.49860 0.77980 0.05400
H 	H 	0.81450 0.50140 0.07850 0.04400
H 	H 	0.05880 0.25780 0.68300 0.05400
H 	H 	0.24420 0.49260 0.66800 0.06000
H 	H 	0.17400 0.26320 0.79410 0.05500
H 	H 	0.37150 0.04960 0.91840 0.03000
H 	H 	0.64790 0.08700 0.08620 0.03400
H 	H 	0.46240 0.42120 0.39110 0.05800
H 	H 	0.14400 0.49860 0.27980 0.05700
H 	H 	0.68690 0.50140 0.57850 0.05900
H 	H 	0.19900 0.25780 0.18300 0.04900
H 	H 	0.24840 0.49260 0.16800 0.05300
H 	H 	0.08920 0.26320 0.29410 0.05400
H 	H 	0.67810 0.04960 0.41840 0.06800
H 	H 	0.43910 0.08700 0.58620 0.06200
H 	H 	0.04120 0.57880 0.10890 0.07100
H 	H 	0.64540 0.50140 0.22020 0.06200
H 	H 	0.18550 0.49860 0.92150 0.07100
H 	H 	0.94120 0.74220 0.31700 0.06500
H 	H 	0.75580 0.50740 0.33200 0.05700
H 	H 	0.82600 0.73680 0.20590 0.06500
H 	H 	0.62850 0.95040 0.08160 0.09800
H 	H 	0.35210 0.91300 0.91380 0.08600
C 	C 	0.34660 0.83100 0.49040 0.34000
C 	C 	0.52279 0.54718 0.56490 -0.01500
C 	C 	0.41125 0.54790 0.51840 -0.05800
C 	C 	0.76494 0.62608 0.83610 -0.06200
C 	C 	0.84553 0.55006 0.73980 -0.00100
C 	C 	0.89437 0.61914 0.70070 -0.08800
C 	C 	0.69201 0.62842 0.90790 0.38100
C 	C 	0.38854 0.49928 0.45290 -0.01900
C 	C 	0.81259 0.69358 0.79780 -0.01800
C 	C 	0.96448 0.61476 0.62790 0.43600
C 	C 	0.78268 0.55356 0.80630 -0.02000
C 	C 	0.87770 0.69020 0.73080 0.00500
C 	C 	0.31683 0.60066 0.53810 0.32100
C 	C 	0.42782 0.91764 0.49560 -0.06600
C 	C 	0.39338 0.97016 0.54820 -0.01000
C 	C 	0.53498 0.94756 0.44850 -0.01000
C 	C 	0.51560 0.16900 0.00960 0.32300
C 	C 	0.97561 0.45282 0.93510 0.05800
C 	C 	0.86335 0.45210 0.98160 -0.06300
C 	C 	0.13886 0.37392 0.66390 -0.06200
C 	C 	0.29547 0.44994 0.76020 -0.00900
C 	C 	0.27523 0.38086 0.79930 -0.08300
C 	C 	0.06359 0.37158 0.59210 0.33300
C 	C 	0.88926 0.50072 0.04710 0.02200
C 	C 	0.11901 0.30642 0.70220 -0.02600
C 	C 	0.34972 0.38524 0.87210 0.38800
C 	C 	0.22912 0.44644 0.69370 -0.02800
C 	C 	0.18750 0.30980 0.76920 -0.00700
C 	C 	0.71617 0.39934 0.96190 0.36900
C 	C 	0.51018 0.08236 0.00440 -0.14600
C 	C 	0.42322 0.02984 0.95180 0.08800
C 	C 	0.58742 0.05244 0.05150 0.06200
C 	C 	0.65340 0.16900 0.50960 0.33500
C 	C 	0.47721 0.45282 0.43510 -0.01900
C 	C 	0.58875 0.45210 0.48160 -0.05400
C 	C 	0.23506 0.37392 0.16390 -0.08900
C 	C 	0.15447 0.44994 0.26020 -0.03100
C 	C 	0.10563 0.38086 0.29930 -0.06300
C 	C 	0.30799 0.37158 0.09210 0.39000
C 	C 	0.61146 0.50072 0.54710 -0.02000
C 	C 	0.18741 0.30642 0.20220 -0.00200
C 	C 	0.03552 0.38524 0.37210 0.33600
C 	C 	0.21732 0.44644 0.19370 -0.00600
C 	C 	0.12230 0.30980 0.26920 -0.03100
C 	C 	0.68317 0.39934 0.46190 0.31900
C 	C 	0.57218 0.08236 0.50440 -0.05200
C 	C 	0.60662 0.02984 0.45180 -0.02500
C 	C 	0.46502 0.05244 0.55150 -0.02600
C 	C 	0.48440 0.83100 0.99040 0.35500
C 	C 	0.02439 0.54718 0.06490 -0.09200
C 	C 	0.13665 0.54790 0.01840 -0.04900
C 	C 	0.86114 0.62608 0.33610 -0.08900
C 	C 	0.70453 0.55006 0.23980 -0.02200
C 	C 	0.72477 0.61914 0.20070 -0.06800
C 	C 	0.93641 0.62842 0.40790 0.43800
C 	C 	0.11074 0.49928 0.95290 -0.06000
C 	C 	0.88099 0.69358 0.29780 0.00500
C 	C 	0.65028 0.61476 0.12790 0.38500
C 	C 	0.77088 0.55356 0.30630 0.00200
C 	C 	0.81250 0.69020 0.23080 -0.01900
C 	C 	0.28383 0.60066 0.03810 0.27000
C 	C 	0.48982 0.91764 0.99560 0.03100
C 	C 	0.57678 0.97016 0.04820 -0.13100
C 	C 	0.41258 0.94756 0.94850 -0.09300
O 	O 	0.02189 0.68098 0.60045 -0.50100
O 	O 	0.96366 0.54692 0.60088 -0.44700
O 	O 	0.66761 0.56802 0.94483 -0.44000
O 	O 	0.34590 0.64960 0.59180 -0.30800
O 	O 	0.65867 0.69174 0.92598 -0.43000
O 	O 	0.20967 0.59574 0.49436 -0.53300
O 	O 	0.25284 0.80728 0.53700 -0.43000
O 	O 	0.37370 0.78540 0.44190 -0.30000
O 	O 	0.34091 0.31902 0.89955 -0.45300
O 	O 	0.41674 0.45308 0.89912 -0.44500
O 	O 	0.09959 0.43198 0.55517 -0.45700
O 	O 	0.69630 0.35040 0.90820 -0.30700
O 	O 	0.96693 0.30826 0.57402 -0.40300
O 	O 	0.61393 0.40426 0.00564 -0.56600
O 	O 	0.44556 0.19272 0.96300 -0.39800
O 	O 	0.58830 0.21460 0.05810 -0.29900
O 	O 	0.97811 0.31902 0.39955 -0.41300
O 	O 	0.03634 0.45308 0.39912 -0.45500
O 	O 	0.33239 0.43198 0.05517 -0.47300
O 	O 	0.65410 0.35040 0.40820 -0.30200
O 	O 	0.34133 0.30826 0.07402 -0.46300
O 	O 	0.79033 0.40426 0.50564 -0.51700
O 	O 	0.74716 0.19272 0.46300 -0.42200
O 	O 	0.62630 0.21460 0.55810 -0.29600
O 	O 	0.65909 0.68098 0.10045 -0.46300
O 	O 	0.58326 0.54692 0.10088 -0.45700
O 	O 	0.90041 0.56802 0.44483 -0.45700
O 	O 	0.30370 0.64960 0.09180 -0.30300
O 	O 	0.03307 0.69174 0.42598 -0.49000
O 	O 	0.38607 0.59574 0.99436 -0.48300
O 	O 	0.55444 0.80728 0.03700 -0.45600
O 	O 	0.41170 0.78540 0.94190 -0.29600
