data_crystal

_cell_length_a 13.75800
_cell_length_b 25.21560
_cell_length_c 14.92050
_cell_angle_alpha 90.00000
_cell_angle_beta  111.39900
_cell_angle_gamma 90.00000

_symmetry_space_group_name_	'P 1'
_symmetry_space_group_name_H-M	'P 1'

loop_
_symmetry_equiv_pos_as_xyz
  x,y,z

loop_
_atom_site_label
_atom_site_type_symbol
_atom_site_fract_x
_atom_site_fract_y
_atom_site_fract_z
_atom_site_charge
N 	N 	0.42140 0.01529 0.16930 -0.21000
O 	O 	0.37610 0.07082 0.95920 -0.35300
O 	O 	0.24260 0.08881 0.00200 -0.41400
C 	C 	0.17610 0.31290 0.68360 0.09500
C 	C 	0.36010 0.16950 0.86930 -0.09800
H 	H 	0.41340 0.14670 0.86980 0.10300
C 	C 	0.35030 0.21800 0.82420 0.10900
C 	C 	0.30590 0.10020 0.96090 0.28800
C 	C 	0.26040 0.30430 0.76680 -0.01200
C 	C 	0.21560 0.18880 0.91210 -0.09600
H 	H 	0.17010 0.17950 0.94270 0.12100
C 	C 	0.17420 0.35940 0.63010 -0.09100
H 	H 	0.11810 0.36520 0.57280 0.10400
C 	C 	0.29340 0.15440 0.91320 0.02700
C 	C 	0.20440 0.23780 0.86510 0.10800
C 	C 	0.27260 0.25360 0.82040 -0.01600
O 	O 	0.17780 0.44710 0.52090 -0.45200
O 	O 	0.31680 0.47990 0.63060 -0.33200
C 	C 	0.25220 0.39610 0.66020 0.00600
C 	C 	0.33870 0.34390 0.79560 0.10300
C 	C 	0.33440 0.38880 0.74330 -0.10300
H 	H 	0.38730 0.41400 0.76450 0.10400
C 	C 	0.24780 0.44610 0.59860 0.32000
C 	C 	0.39880 0.98600 0.24960 -0.07200
H 	H 	0.33650 0.00050 0.25630 0.06400
H 	H 	0.38660 0.94870 0.23330 0.04200
C 	C 	0.50970 0.99180 0.15680 0.01900
H 	H 	0.53040 0.01360 0.11310 0.08400
H 	H 	0.49040 0.95720 0.12750 -0.04600
C 	C 	0.44840 0.07000 0.20700 0.02000
H 	H 	0.39340 0.08400 0.22650 -0.06800
H 	H 	0.45430 0.09270 0.15680 0.00900
N 	N 	0.43440 0.34610 0.88570 -0.01000
N 	N 	0.10900 0.26680 0.86990 -0.00600
O 	O 	0.04090 0.24570 0.88690 -0.04200
O 	O 	0.10810 0.31340 0.85400 -0.08800
O 	O 	0.43570 0.31490 0.94800 -0.08700
O 	O 	0.51150 0.37560 0.89670 -0.10700
Zn	Zn	0.29612 0.01403 0.03865 1.19200
C 	C 	0.46050 0.95920 0.20130 -0.06000
H 	H 	0.40230 0.93700 0.19960 0.01700
H 	H 	0.49020 0.94440 0.15700 0.09600
C 	C 	0.51610 0.04420 0.16250 -0.06500
H 	H 	0.49860 0.08100 0.14570 0.06100
H 	H 	0.53590 0.02810 0.11260 -0.03700
C 	C 	0.39180 0.04080 0.23980 -0.01500
H 	H 	0.33480 0.02140 0.24810 -0.03200
H 	H 	0.36720 0.07630 0.21810 0.09600
N 	N 	0.93430 0.28360 0.85390 -0.00600
N 	N 	0.43400 0.21780 0.77710 -0.02800
O 	O 	0.46820 0.26080 0.76360 -0.04600
O 	O 	0.93430 0.23670 0.83610 -0.06800
O 	O 	0.02070 0.30570 0.90120 -0.06600
N 	N 	0.92140 0.51529 0.16930 -0.21300
O 	O 	0.87610 0.57082 0.95920 -0.35500
O 	O 	0.74260 0.58881 0.00200 -0.41500
C 	C 	0.67610 0.81290 0.68360 0.09500
C 	C 	0.86010 0.66950 0.86930 -0.09800
H 	H 	0.91340 0.64670 0.86980 0.10300
C 	C 	0.85030 0.71800 0.82420 0.10800
C 	C 	0.80590 0.60020 0.96090 0.28800
C 	C 	0.76040 0.80430 0.76680 -0.01200
C 	C 	0.71560 0.68880 0.91210 -0.09600
H 	H 	0.67010 0.67950 0.94270 0.12000
C 	C 	0.67420 0.85940 0.63010 -0.09100
H 	H 	0.61810 0.86520 0.57280 0.10400
C 	C 	0.79340 0.65440 0.91320 0.02600
C 	C 	0.70440 0.73780 0.86510 0.10800
C 	C 	0.77260 0.75360 0.82040 -0.01600
O 	O 	0.67780 0.94710 0.52090 -0.45200
O 	O 	0.81680 0.97990 0.63060 -0.33300
C 	C 	0.75220 0.89610 0.66020 0.00600
C 	C 	0.83870 0.84390 0.79560 0.10300
C 	C 	0.83440 0.88880 0.74330 -0.10300
H 	H 	0.88730 0.91400 0.76450 0.10400
C 	C 	0.74780 0.94610 0.59860 0.32000
C 	C 	0.89880 0.48600 0.24960 -0.08300
H 	H 	0.83650 0.50050 0.25630 0.08300
H 	H 	0.88660 0.44870 0.23330 0.04400
C 	C 	0.00970 0.49180 0.15680 0.02600
H 	H 	0.03040 0.51360 0.11310 0.08000
H 	H 	0.99040 0.45720 0.12750 -0.05800
C 	C 	0.94840 0.57000 0.20700 0.01100
H 	H 	0.89340 0.58400 0.22650 -0.08900
H 	H 	0.95430 0.59270 0.15680 0.01500
N 	N 	0.93440 0.84610 0.88570 -0.01100
N 	N 	0.60900 0.76680 0.86990 -0.00600
O 	O 	0.54090 0.74570 0.88690 -0.04300
O 	O 	0.60810 0.81340 0.85400 -0.08800
O 	O 	0.93570 0.81490 0.94800 -0.08700
O 	O 	0.01150 0.87560 0.89670 -0.10700
Zn	Zn	0.79612 0.51403 0.03865 1.19200
C 	C 	0.96050 0.45920 0.20130 -0.07500
H 	H 	0.90230 0.43700 0.19960 0.02000
H 	H 	0.99020 0.44440 0.15700 0.10700
C 	C 	0.01610 0.54420 0.16250 -0.05100
H 	H 	0.99860 0.58100 0.14570 0.05200
H 	H 	0.03590 0.52810 0.11260 -0.03700
C 	C 	0.89180 0.54080 0.23980 0.00500
H 	H 	0.83480 0.52140 0.24810 -0.05500
H 	H 	0.86720 0.57630 0.21810 0.11300
N 	N 	0.43430 0.78360 0.85390 -0.00500
N 	N 	0.93400 0.71780 0.77710 -0.02900
O 	O 	0.96820 0.76080 0.76360 -0.04700
O 	O 	0.43430 0.73670 0.83610 -0.06800
O 	O 	0.52070 0.80570 0.90120 -0.06600
N 	N 	0.57860 0.01529 0.33070 -0.21100
O 	O 	0.62390 0.07082 0.54080 -0.35400
O 	O 	0.75740 0.08881 0.49800 -0.41400
C 	C 	0.82390 0.31290 0.81640 0.09400
C 	C 	0.63990 0.16950 0.63070 -0.09800
H 	H 	0.58660 0.14670 0.63020 0.10300
C 	C 	0.64970 0.21800 0.67580 0.10800
C 	C 	0.69410 0.10020 0.53910 0.28800
C 	C 	0.73960 0.30430 0.73320 -0.01200
C 	C 	0.78440 0.18880 0.58790 -0.09600
H 	H 	0.82990 0.17950 0.55730 0.12000
C 	C 	0.82580 0.35940 0.86990 -0.09100
H 	H 	0.88190 0.36520 0.92720 0.10300
C 	C 	0.70660 0.15440 0.58680 0.02700
C 	C 	0.79560 0.23780 0.63490 0.10800
C 	C 	0.72740 0.25360 0.67960 -0.01600
O 	O 	0.82220 0.44710 0.97910 -0.45200
O 	O 	0.68320 0.47990 0.86940 -0.33300
C 	C 	0.74780 0.39610 0.83980 0.00600
C 	C 	0.66130 0.34390 0.70440 0.10300
C 	C 	0.66560 0.38880 0.75670 -0.10300
H 	H 	0.61270 0.41400 0.73550 0.10400
C 	C 	0.75220 0.44610 0.90140 0.32000
C 	C 	0.60120 0.98600 0.25040 -0.07200
H 	H 	0.66350 0.00050 0.24370 0.06200
H 	H 	0.61340 0.94870 0.26670 0.04200
C 	C 	0.49030 0.99180 0.34320 0.01800
H 	H 	0.46960 0.01360 0.38690 0.08400
H 	H 	0.50960 0.95720 0.37250 -0.04600
C 	C 	0.55160 0.07000 0.29300 0.02100
H 	H 	0.60660 0.08400 0.27350 -0.06700
H 	H 	0.54570 0.09270 0.34320 0.00800
N 	N 	0.56560 0.34610 0.61430 -0.01000
N 	N 	0.89100 0.26680 0.63010 -0.00500
O 	O 	0.95910 0.24570 0.61310 -0.04400
O 	O 	0.89190 0.31340 0.64600 -0.08800
O 	O 	0.56430 0.31490 0.55200 -0.08700
O 	O 	0.48850 0.37560 0.60330 -0.10700
Zn	Zn	0.70388 0.01403 0.46135 1.19200
C 	C 	0.53950 0.95920 0.29870 -0.05900
H 	H 	0.59770 0.93700 0.30040 0.01600
H 	H 	0.50980 0.94440 0.34300 0.09500
C 	C 	0.48390 0.04420 0.33750 -0.06600
H 	H 	0.50140 0.08100 0.35430 0.06100
H 	H 	0.46410 0.02810 0.38740 -0.03600
C 	C 	0.60820 0.04080 0.26020 -0.01600
H 	H 	0.66520 0.02140 0.25190 -0.03000
H 	H 	0.63280 0.07630 0.28190 0.09500
N 	N 	0.06570 0.28360 0.64610 -0.00400
N 	N 	0.56600 0.21780 0.72290 -0.02800
O 	O 	0.53180 0.26080 0.73640 -0.04600
O 	O 	0.06570 0.23670 0.66390 -0.06700
O 	O 	0.97930 0.30570 0.59880 -0.06800
N 	N 	0.07860 0.51529 0.33070 -0.20800
O 	O 	0.12390 0.57082 0.54080 -0.35400
O 	O 	0.25740 0.58881 0.49800 -0.41400
C 	C 	0.32390 0.81290 0.81640 0.09500
C 	C 	0.13990 0.66950 0.63070 -0.09800
H 	H 	0.08660 0.64670 0.63020 0.10300
C 	C 	0.14970 0.71800 0.67580 0.10900
C 	C 	0.19410 0.60020 0.53910 0.28800
C 	C 	0.23960 0.80430 0.73320 -0.01200
C 	C 	0.28440 0.68880 0.58790 -0.09700
H 	H 	0.32990 0.67950 0.55730 0.12100
C 	C 	0.32580 0.85940 0.86990 -0.09100
H 	H 	0.38190 0.86520 0.92720 0.10400
C 	C 	0.20660 0.65440 0.58680 0.02700
C 	C 	0.29560 0.73780 0.63490 0.10800
C 	C 	0.22740 0.75360 0.67960 -0.01600
O 	O 	0.32220 0.94710 0.97910 -0.45200
O 	O 	0.18320 0.97990 0.86940 -0.33200
C 	C 	0.24780 0.89610 0.83980 0.00600
C 	C 	0.16130 0.84390 0.70440 0.10300
C 	C 	0.16560 0.88880 0.75670 -0.10300
H 	H 	0.11270 0.91400 0.73550 0.10400
C 	C 	0.25220 0.94610 0.90140 0.32000
C 	C 	0.10120 0.48600 0.25040 -0.05800
H 	H 	0.16350 0.50050 0.24370 0.03900
H 	H 	0.11340 0.44870 0.26670 0.03800
C 	C 	0.99030 0.49180 0.34320 0.00900
H 	H 	0.96960 0.51360 0.38690 0.08600
H 	H 	0.00960 0.45720 0.37250 -0.03500
C 	C 	0.05160 0.57000 0.29300 0.02900
H 	H 	0.10660 0.58400 0.27350 -0.04400
H 	H 	0.04570 0.59270 0.34320 0.00200
N 	N 	0.06560 0.84610 0.61430 -0.00900
N 	N 	0.39100 0.76680 0.63010 -0.00600
O 	O 	0.45910 0.74570 0.61310 -0.04300
O 	O 	0.39190 0.81340 0.64600 -0.08800
O 	O 	0.06430 0.81490 0.55200 -0.08700
O 	O 	0.98850 0.87560 0.60330 -0.10900
Zn	Zn	0.20388 0.51403 0.46135 1.19200
C 	C 	0.03950 0.45920 0.29870 -0.04600
H 	H 	0.09770 0.43700 0.30040 0.01400
H 	H 	0.00980 0.44440 0.34300 0.08400
C 	C 	0.98390 0.54420 0.33750 -0.07800
H 	H 	0.00140 0.58100 0.35430 0.06900
H 	H 	0.96410 0.52810 0.38740 -0.03400
C 	C 	0.10820 0.54080 0.26020 -0.04000
H 	H 	0.16520 0.52140 0.25190 -0.00400
H 	H 	0.13280 0.57630 0.28190 0.07600
N 	N 	0.56570 0.78360 0.64610 -0.00500
N 	N 	0.06600 0.71780 0.72290 -0.02900
O 	O 	0.03180 0.76080 0.73640 -0.04400
O 	O 	0.56570 0.73670 0.66390 -0.06800
O 	O 	0.47930 0.80570 0.59880 -0.06600
O 	O 	0.50000 0.17370 0.75000 -0.10500
O 	O 	-0.00000 0.67370 0.75000 -0.10400
N 	N 	0.57860 0.98471 0.83070 -0.21100
O 	O 	0.62390 0.92918 0.04080 -0.35400
O 	O 	0.75740 0.91119 0.99800 -0.41400
C 	C 	0.82390 0.68710 0.31640 0.09400
C 	C 	0.63990 0.83050 0.13070 -0.09800
H 	H 	0.58660 0.85330 0.13020 0.10300
C 	C 	0.64970 0.78200 0.17580 0.10800
C 	C 	0.69410 0.89980 0.03910 0.28800
C 	C 	0.73960 0.69570 0.23320 -0.01200
C 	C 	0.78440 0.81120 0.08790 -0.09600
H 	H 	0.82990 0.82050 0.05730 0.12000
C 	C 	0.82580 0.64060 0.36990 -0.09100
H 	H 	0.88190 0.63480 0.42720 0.10300
C 	C 	0.70660 0.84560 0.08680 0.02700
C 	C 	0.79560 0.76220 0.13490 0.10800
C 	C 	0.72740 0.74640 0.17960 -0.01600
O 	O 	0.82220 0.55290 0.47910 -0.45200
O 	O 	0.68320 0.52010 0.36940 -0.33300
C 	C 	0.74780 0.60390 0.33980 0.00600
C 	C 	0.66130 0.65610 0.20440 0.10300
C 	C 	0.66560 0.61120 0.25670 -0.10300
H 	H 	0.61270 0.58600 0.23550 0.10400
C 	C 	0.75220 0.55390 0.40140 0.32000
C 	C 	0.60120 0.01400 0.75040 -0.07200
H 	H 	0.66350 0.99950 0.74370 0.06300
H 	H 	0.61340 0.05130 0.76670 0.04200
C 	C 	0.49030 0.00820 0.84320 0.01800
H 	H 	0.46960 0.98640 0.88690 0.08400
H 	H 	0.50960 0.04280 0.87250 -0.04600
C 	C 	0.55160 0.93000 0.79300 0.02000
H 	H 	0.60660 0.91600 0.77350 -0.06700
H 	H 	0.54570 0.90730 0.84320 0.00800
N 	N 	0.56560 0.65390 0.11430 -0.01000
N 	N 	0.89100 0.73320 0.13010 -0.00500
O 	O 	0.95910 0.75430 0.11310 -0.04500
O 	O 	0.89190 0.68660 0.14600 -0.08800
O 	O 	0.56430 0.68510 0.05200 -0.08700
O 	O 	0.48850 0.62440 0.10330 -0.10700
Zn	Zn	0.70388 0.98597 0.96135 1.19200
C 	C 	0.53950 0.04080 0.79870 -0.06000
H 	H 	0.59770 0.06300 0.80040 0.01700
H 	H 	0.50980 0.05560 0.84300 0.09500
C 	C 	0.48390 0.95580 0.83750 -0.06500
H 	H 	0.50140 0.91900 0.85430 0.06100
H 	H 	0.46410 0.97190 0.88740 -0.03700
C 	C 	0.60820 0.95920 0.76020 -0.01500
H 	H 	0.66520 0.97860 0.75190 -0.03200
H 	H 	0.63280 0.92370 0.78190 0.09500
N 	N 	0.06570 0.71640 0.14610 -0.00400
N 	N 	0.56600 0.78220 0.22290 -0.02800
O 	O 	0.53180 0.73920 0.23640 -0.04600
O 	O 	0.06570 0.76330 0.16390 -0.06600
O 	O 	0.97930 0.69430 0.09880 -0.06800
N 	N 	0.07860 0.48471 0.83070 -0.20900
O 	O 	0.12390 0.42918 0.04080 -0.35300
O 	O 	0.25740 0.41119 0.99800 -0.41400
C 	C 	0.32390 0.18710 0.31640 0.09500
C 	C 	0.13990 0.33050 0.13070 -0.09800
H 	H 	0.08660 0.35330 0.13020 0.10400
C 	C 	0.14970 0.28200 0.17580 0.10900
C 	C 	0.19410 0.39980 0.03910 0.28800
C 	C 	0.23960 0.19570 0.23320 -0.01200
C 	C 	0.28440 0.31120 0.08790 -0.09700
H 	H 	0.32990 0.32050 0.05730 0.12100
C 	C 	0.32580 0.14060 0.36990 -0.09100
H 	H 	0.38190 0.13480 0.42720 0.10400
C 	C 	0.20660 0.34560 0.08680 0.02700
C 	C 	0.29560 0.26220 0.13490 0.10800
C 	C 	0.22740 0.24640 0.17960 -0.01600
O 	O 	0.32220 0.05290 0.47910 -0.45200
O 	O 	0.18320 0.02010 0.36940 -0.33200
C 	C 	0.24780 0.10390 0.33980 0.00600
C 	C 	0.16130 0.15610 0.20440 0.10400
C 	C 	0.16560 0.11120 0.25670 -0.10300
H 	H 	0.11270 0.08600 0.23550 0.10500
C 	C 	0.25220 0.05390 0.40140 0.32000
C 	C 	0.10120 0.51400 0.75040 -0.06300
H 	H 	0.16350 0.49950 0.74370 0.04700
H 	H 	0.11340 0.55130 0.76670 0.03900
C 	C 	0.99030 0.50820 0.84320 0.01200
H 	H 	0.96960 0.48640 0.88690 0.08500
H 	H 	0.00960 0.54280 0.87250 -0.03900
C 	C 	0.05160 0.43000 0.79300 0.02600
H 	H 	0.10660 0.41600 0.77350 -0.05200
H 	H 	0.04570 0.40730 0.84320 0.00400
N 	N 	0.06560 0.15390 0.11430 -0.00900
N 	N 	0.39100 0.23320 0.13010 -0.00600
O 	O 	0.45910 0.25430 0.11310 -0.04300
O 	O 	0.39190 0.18660 0.14600 -0.08800
O 	O 	0.06430 0.18510 0.05200 -0.08700
O 	O 	0.98850 0.12440 0.10330 -0.11000
Zn	Zn	0.20388 0.48597 0.96135 1.19200
C 	C 	0.03950 0.54080 0.79870 -0.05100
H 	H 	0.09770 0.56300 0.80040 0.01500
H 	H 	0.00980 0.55560 0.84300 0.08800
C 	C 	0.98390 0.45580 0.83750 -0.07300
H 	H 	0.00140 0.41900 0.85430 0.06600
H 	H 	0.96410 0.47190 0.88740 -0.03500
C 	C 	0.10820 0.45920 0.76020 -0.03200
H 	H 	0.16520 0.47860 0.75190 -0.01300
H 	H 	0.13280 0.42370 0.78190 0.08200
N 	N 	0.56570 0.21640 0.14610 -0.00500
N 	N 	0.06600 0.28220 0.22290 -0.02900
O 	O 	0.03180 0.23920 0.23640 -0.04300
O 	O 	0.56570 0.26330 0.16390 -0.06800
O 	O 	0.47930 0.19430 0.09880 -0.06700
N 	N 	0.42140 0.98471 0.66930 -0.21100
O 	O 	0.37610 0.92918 0.45920 -0.35400
O 	O 	0.24260 0.91119 0.50200 -0.41400
C 	C 	0.17610 0.68710 0.18360 0.09500
C 	C 	0.36010 0.83050 0.36930 -0.09800
H 	H 	0.41340 0.85330 0.36980 0.10300
C 	C 	0.35030 0.78200 0.32420 0.10800
C 	C 	0.30590 0.89980 0.46090 0.28800
C 	C 	0.26040 0.69570 0.26680 -0.01200
C 	C 	0.21560 0.81120 0.41210 -0.09600
H 	H 	0.17010 0.82050 0.44270 0.12100
C 	C 	0.17420 0.64060 0.13010 -0.09100
H 	H 	0.11810 0.63480 0.07280 0.10400
C 	C 	0.29340 0.84560 0.41320 0.02700
C 	C 	0.20440 0.76220 0.36510 0.10800
C 	C 	0.27260 0.74640 0.32040 -0.01600
O 	O 	0.17780 0.55290 0.02090 -0.45100
O 	O 	0.31680 0.52010 0.13060 -0.33200
C 	C 	0.25220 0.60390 0.16020 0.00600
C 	C 	0.33870 0.65610 0.29560 0.10400
C 	C 	0.33440 0.61120 0.24330 -0.10300
H 	H 	0.38730 0.58600 0.26450 0.10400
C 	C 	0.24780 0.55390 0.09860 0.32000
C 	C 	0.39880 0.01400 0.74960 -0.07200
H 	H 	0.33650 0.99950 0.75630 0.06300
H 	H 	0.38660 0.05130 0.73330 0.04200
C 	C 	0.50970 0.00820 0.65680 0.01800
H 	H 	0.53040 0.98640 0.61310 0.08400
H 	H 	0.49040 0.04280 0.62750 -0.04600
C 	C 	0.44840 0.93000 0.70700 0.02000
H 	H 	0.39340 0.91600 0.72650 -0.06700
H 	H 	0.45430 0.90730 0.65680 0.00800
N 	N 	0.43440 0.65390 0.38570 -0.01000
N 	N 	0.10900 0.73320 0.36990 -0.00600
O 	O 	0.04090 0.75430 0.38690 -0.04200
O 	O 	0.10810 0.68660 0.35400 -0.08800
O 	O 	0.43570 0.68510 0.44800 -0.08700
O 	O 	0.51150 0.62440 0.39670 -0.10700
Zn	Zn	0.29612 0.98597 0.53865 1.19200
C 	C 	0.46050 0.04080 0.70130 -0.05900
H 	H 	0.40230 0.06300 0.69960 0.01600
H 	H 	0.49020 0.05560 0.65700 0.09500
C 	C 	0.51610 0.95580 0.66250 -0.06600
H 	H 	0.49860 0.91900 0.64570 0.06100
H 	H 	0.53590 0.97190 0.61260 -0.03600
C 	C 	0.39180 0.95920 0.73980 -0.01600
H 	H 	0.33480 0.97860 0.74810 -0.03100
H 	H 	0.36720 0.92370 0.71810 0.09500
N 	N 	0.93430 0.71640 0.35390 -0.00600
N 	N 	0.43400 0.78220 0.27710 -0.02800
O 	O 	0.46820 0.73920 0.26360 -0.04600
O 	O 	0.93430 0.76330 0.33610 -0.06900
O 	O 	0.02070 0.69430 0.40120 -0.06500
N 	N 	0.92140 0.48471 0.66930 -0.21200
O 	O 	0.87610 0.42918 0.45920 -0.35500
O 	O 	0.74260 0.41119 0.50200 -0.41500
C 	C 	0.67610 0.18710 0.18360 0.09400
C 	C 	0.86010 0.33050 0.36930 -0.09800
H 	H 	0.91340 0.35330 0.36980 0.10200
C 	C 	0.85030 0.28200 0.32420 0.10800
C 	C 	0.80590 0.39980 0.46090 0.28800
C 	C 	0.76040 0.19570 0.26680 -0.01200
C 	C 	0.71560 0.31120 0.41210 -0.09600
H 	H 	0.67010 0.32050 0.44270 0.12000
C 	C 	0.67420 0.14060 0.13010 -0.09100
H 	H 	0.61810 0.13480 0.07280 0.10300
C 	C 	0.79340 0.34560 0.41320 0.02600
C 	C 	0.70440 0.26220 0.36510 0.10800
C 	C 	0.77260 0.24640 0.32040 -0.01600
O 	O 	0.67780 0.05290 0.02090 -0.45200
O 	O 	0.81680 0.02010 0.13060 -0.33300
C 	C 	0.75220 0.10390 0.16020 0.00600
C 	C 	0.83870 0.15610 0.29560 0.10300
C 	C 	0.83440 0.11120 0.24330 -0.10300
H 	H 	0.88730 0.08600 0.26450 0.10300
C 	C 	0.74780 0.05390 0.09860 0.32000
C 	C 	0.89880 0.51400 0.74960 -0.07900
H 	H 	0.83650 0.49950 0.75630 0.07600
H 	H 	0.88660 0.55130 0.73330 0.04300
C 	C 	0.00970 0.50820 0.65680 0.02300
H 	H 	0.03040 0.48640 0.61310 0.08100
H 	H 	0.99040 0.54280 0.62750 -0.05400
C 	C 	0.94840 0.43000 0.70700 0.01400
H 	H 	0.89340 0.41600 0.72650 -0.08100
H 	H 	0.95430 0.40730 0.65680 0.01300
N 	N 	0.93440 0.15390 0.38570 -0.01100
N 	N 	0.60900 0.23320 0.36990 -0.00600
O 	O 	0.54090 0.25430 0.38690 -0.04300
O 	O 	0.60810 0.18660 0.35400 -0.08800
O 	O 	0.93570 0.18510 0.44800 -0.08800
O 	O 	0.01150 0.12440 0.39670 -0.10600
Zn	Zn	0.79612 0.48597 0.53865 1.19200
C 	C 	0.96050 0.54080 0.70130 -0.07000
H 	H 	0.90230 0.56300 0.69960 0.01900
H 	H 	0.99020 0.55560 0.65700 0.10300
C 	C 	0.01610 0.45580 0.66250 -0.05600
H 	H 	0.99860 0.41900 0.64570 0.05500
H 	H 	0.03590 0.47190 0.61260 -0.03700
C 	C 	0.89180 0.45920 0.73980 -0.00300
H 	H 	0.83480 0.47860 0.74810 -0.04600
H 	H 	0.86720 0.42370 0.71810 0.10700
N 	N 	0.43430 0.21640 0.35390 -0.00500
N 	N 	0.93400 0.28220 0.27710 -0.02900
O 	O 	0.96820 0.23920 0.26360 -0.04900
O 	O 	0.43430 0.26330 0.33610 -0.06800
O 	O 	0.52070 0.19430 0.40120 -0.06600
O 	O 	0.50000 0.82630 0.25000 -0.10500
O 	O 	-0.00000 0.32630 0.25000 -0.10400
