data_crystal

_cell_length_a 21.37990
_cell_length_b 21.45970
_cell_length_c 27.94400
_cell_angle_alpha 90.00000
_cell_angle_beta  90.00000
_cell_angle_gamma 90.00000

_symmetry_space_group_name_	'P 1'
_symmetry_space_group_name_H-M	'P 1'

loop_
_symmetry_equiv_pos_as_xyz
  x,y,z

loop_
_atom_site_label
_atom_site_type_symbol
_atom_site_fract_x
_atom_site_fract_y
_atom_site_fract_z
_atom_site_charge
C 	C 	0.77457 0.22502 0.25067 -0.00500
C 	C 	0.85811 0.17215 0.28851 -0.03000
H 	H 	0.88410 0.16790 0.31500 0.06300
C 	C 	0.81400 0.21656 0.28946 0.00800
C 	C 	0.96070 0.03680 0.10110 0.03400
C 	C 	0.95930 0.03950 0.05200 0.00500
C 	C 	0.91591 0.08392 0.25049 0.38800
O 	O 	0.92671 0.05725 0.21112 -0.45400
O 	O 	0.94273 0.07342 0.28860 -0.45500
C 	C 	0.86675 0.13325 0.25105 -0.06900
C 	C 	0.82870 0.14163 0.21149 -0.03100
H 	H 	0.83420 0.11630 0.18480 0.06000
C 	C 	0.78370 0.18595 0.21077 0.00600
C 	C 	0.05220 0.01380 0.10160 0.00100
C 	C 	0.01240 0.05320 0.10070 -0.00600
C 	C 	0.01490 0.05380 0.05210 -0.01100
C 	C 	0.94620 0.98610 0.05200 0.02700
C 	C 	0.27457 0.72502 0.25067 -0.00300
C 	C 	0.35811 0.67215 0.28851 -0.02800
H 	H 	0.38410 0.66790 0.31500 0.06200
C 	C 	0.31400 0.71656 0.28946 0.00800
C 	C 	0.46070 0.53680 0.10110 0.02200
C 	C 	0.45930 0.53950 0.05200 -0.01000
C 	C 	0.41591 0.58392 0.25049 0.39100
O 	O 	0.42671 0.55725 0.21112 -0.46000
O 	O 	0.44273 0.57342 0.28860 -0.46500
C 	C 	0.36675 0.63325 0.25105 -0.07200
C 	C 	0.32870 0.64163 0.21149 -0.03000
H 	H 	0.33420 0.61630 0.18480 0.06100
C 	C 	0.28370 0.68595 0.21077 0.00500
C 	C 	0.55220 0.51380 0.10160 0.02300
C 	C 	0.51240 0.55320 0.10070 0.01800
C 	C 	0.51490 0.55380 0.05210 -0.00700
C 	C 	0.44620 0.48610 0.05200 -0.01100
C 	C 	0.22543 0.77498 0.25067 -0.00400
C 	C 	0.14189 0.82785 0.28851 -0.02800
H 	H 	0.11590 0.83210 0.31500 0.05900
C 	C 	0.18600 0.78344 0.28946 0.00400
C 	C 	0.03930 0.96320 0.10110 0.03500
C 	C 	0.04070 0.96050 0.05200 0.00800
C 	C 	0.08409 0.91608 0.25049 0.38800
O 	O 	0.07329 0.94275 0.21112 -0.45000
O 	O 	0.05727 0.92658 0.28860 -0.46100
C 	C 	0.13325 0.86675 0.25105 -0.07000
C 	C 	0.17130 0.85837 0.21149 -0.03300
H 	H 	0.16580 0.88370 0.18480 0.06600
C 	C 	0.21630 0.81405 0.21077 0.01000
C 	C 	0.94780 0.98620 0.10160 0.05000
C 	C 	0.98760 0.94680 0.10070 0.04100
C 	C 	0.98510 0.94620 0.05210 0.02600
C 	C 	0.05380 0.01390 0.05200 -0.02000
C 	C 	0.72543 0.27498 0.25067 -0.00300
C 	C 	0.64189 0.32785 0.28851 -0.02600
H 	H 	0.61590 0.33210 0.31500 0.06000
C 	C 	0.68600 0.28344 0.28946 0.00400
C 	C 	0.53930 0.46320 0.10110 0.02200
C 	C 	0.54070 0.46050 0.05200 -0.01000
C 	C 	0.58409 0.41608 0.25049 0.39100
O 	O 	0.57329 0.44275 0.21112 -0.45900
O 	O 	0.55727 0.42658 0.28860 -0.46600
C 	C 	0.63325 0.36675 0.25105 -0.07100
C 	C 	0.67130 0.35837 0.21149 -0.03100
H 	H 	0.66580 0.38370 0.18480 0.06400
C 	C 	0.71630 0.31405 0.21077 0.00900
C 	C 	0.44780 0.48620 0.10160 0.02200
C 	C 	0.48760 0.44680 0.10070 0.01600
C 	C 	0.48510 0.44620 0.05210 -0.00800
C 	C 	0.55380 0.51390 0.05200 -0.00800
C 	C 	0.22543 0.22502 0.24933 -0.00200
C 	C 	0.14189 0.17215 0.21149 -0.02200
H 	H 	0.11590 0.16790 0.18500 0.05400
C 	C 	0.18600 0.21656 0.21054 -0.00300
C 	C 	0.03930 0.03680 0.39890 -0.06600
C 	C 	0.04070 0.03950 0.44800 -0.20700
C 	C 	0.08409 0.08392 0.24951 0.39100
O 	O 	0.07329 0.05725 0.28888 -0.47600
O 	O 	0.05727 0.07342 0.21140 -0.48000
C 	C 	0.13325 0.13325 0.24895 -0.08300
C 	C 	0.17130 0.14163 0.28851 -0.02600
H 	H 	0.16580 0.11630 0.31520 0.05500
C 	C 	0.21630 0.18595 0.28923 -0.00200
C 	C 	0.94780 0.01380 0.39840 -0.03500
C 	C 	0.98760 0.05320 0.39930 0.08900
C 	C 	0.98510 0.05380 0.44790 0.19700
C 	C 	0.05380 0.98610 0.44800 0.20100
C 	C 	0.72543 0.72502 0.24933 -0.00200
C 	C 	0.64189 0.67215 0.21149 -0.02900
H 	H 	0.61590 0.66790 0.18500 0.06400
C 	C 	0.68600 0.71656 0.21054 0.01100
C 	C 	0.53930 0.53680 0.39890 0.02300
C 	C 	0.54070 0.53950 0.44800 -0.00900
C 	C 	0.58409 0.58392 0.24951 0.39000
O 	O 	0.57329 0.55725 0.28888 -0.45800
O 	O 	0.55727 0.57342 0.21140 -0.46500
C 	C 	0.63325 0.63325 0.24895 -0.06800
C 	C 	0.67130 0.64163 0.28851 -0.03300
H 	H 	0.66580 0.61630 0.31520 0.06500
C 	C 	0.71630 0.68595 0.28923 0.01300
C 	C 	0.44780 0.51380 0.39840 0.02200
C 	C 	0.48760 0.55320 0.39930 0.01700
C 	C 	0.48510 0.55380 0.44790 -0.00700
C 	C 	0.55380 0.48610 0.44800 -0.00800
C 	C 	0.77457 0.77498 0.24933 -0.00500
C 	C 	0.85811 0.82785 0.21149 -0.03400
H 	H 	0.88410 0.83210 0.18500 0.06900
C 	C 	0.81400 0.78344 0.21054 0.01600
C 	C 	0.96070 0.96320 0.39890 0.11200
C 	C 	0.95930 0.96050 0.44800 0.20700
C 	C 	0.91591 0.91608 0.24951 0.38500
O 	O 	0.92671 0.94275 0.28888 -0.43200
O 	O 	0.94273 0.92658 0.21140 -0.44000
C 	C 	0.86675 0.86675 0.24895 -0.05800
C 	C 	0.82870 0.85837 0.28851 -0.03600
H 	H 	0.83420 0.88370 0.31520 0.07000
C 	C 	0.78370 0.81405 0.28923 0.01700
C 	C 	0.05220 0.98620 0.39840 0.09900
C 	C 	0.01240 0.94680 0.39930 -0.04300
C 	C 	0.01490 0.94620 0.44790 -0.17500
C 	C 	0.94620 0.01390 0.44800 -0.18500
C 	C 	0.27457 0.27498 0.24933 -0.00400
C 	C 	0.35811 0.32785 0.21149 -0.02500
H 	H 	0.38410 0.33210 0.18500 0.05800
C 	C 	0.31400 0.28344 0.21054 0.00100
C 	C 	0.46070 0.46320 0.39890 0.02100
C 	C 	0.45930 0.46050 0.44800 -0.01100
C 	C 	0.41591 0.41608 0.24951 0.39100
O 	O 	0.42671 0.44275 0.28888 -0.46000
O 	O 	0.44273 0.42658 0.21140 -0.46700
C 	C 	0.36675 0.36675 0.24895 -0.07500
C 	C 	0.32870 0.35837 0.28851 -0.02900
H 	H 	0.33420 0.38370 0.31520 0.06000
C 	C 	0.28370 0.31405 0.28923 0.00200
C 	C 	0.55220 0.48620 0.39840 0.02200
C 	C 	0.51240 0.44680 0.39930 0.01700
C 	C 	0.51490 0.44620 0.44790 -0.00800
C 	C 	0.44620 0.51390 0.44800 -0.01000
C 	C 	0.22543 0.77498 0.74933 -0.00400
C 	C 	0.14189 0.82785 0.71149 -0.02800
H 	H 	0.11590 0.83210 0.68500 0.05900
C 	C 	0.18600 0.78344 0.71054 0.00400
C 	C 	0.03930 0.96320 0.89890 0.03500
C 	C 	0.04070 0.96050 0.94800 0.00800
C 	C 	0.08409 0.91608 0.74951 0.38800
O 	O 	0.07329 0.94275 0.78888 -0.45000
O 	O 	0.05727 0.92658 0.71140 -0.46100
C 	C 	0.13325 0.86675 0.74895 -0.07000
C 	C 	0.17130 0.85837 0.78851 -0.03300
H 	H 	0.16580 0.88370 0.81520 0.06600
C 	C 	0.21630 0.81405 0.78923 0.01000
C 	C 	0.94780 0.98620 0.89840 0.05000
C 	C 	0.98760 0.94680 0.89930 0.04100
C 	C 	0.98510 0.94620 0.94790 0.02600
C 	C 	0.05380 0.01390 0.94800 -0.02000
C 	C 	0.72543 0.27498 0.74933 -0.00300
C 	C 	0.64189 0.32785 0.71149 -0.02600
H 	H 	0.61590 0.33210 0.68500 0.06000
C 	C 	0.68600 0.28344 0.71054 0.00400
C 	C 	0.53930 0.46320 0.89890 0.02200
C 	C 	0.54070 0.46050 0.94800 -0.01000
C 	C 	0.58409 0.41608 0.74951 0.39100
O 	O 	0.57329 0.44275 0.78888 -0.45900
O 	O 	0.55727 0.42658 0.71140 -0.46600
C 	C 	0.63325 0.36675 0.74895 -0.07100
C 	C 	0.67130 0.35837 0.78851 -0.03100
H 	H 	0.66580 0.38370 0.81520 0.06400
C 	C 	0.71630 0.31405 0.78923 0.00900
C 	C 	0.44780 0.48620 0.89840 0.02200
C 	C 	0.48760 0.44680 0.89930 0.01600
C 	C 	0.48510 0.44620 0.94790 -0.00800
C 	C 	0.55380 0.51390 0.94800 -0.00800
C 	C 	0.77457 0.22502 0.74933 -0.00400
C 	C 	0.85811 0.17215 0.71149 -0.02900
H 	H 	0.88410 0.16790 0.68500 0.06400
C 	C 	0.81400 0.21656 0.71054 0.00900
C 	C 	0.96070 0.03680 0.89890 0.03400
C 	C 	0.95930 0.03950 0.94800 0.00500
C 	C 	0.91591 0.08392 0.74951 0.38800
O 	O 	0.92671 0.05725 0.78888 -0.45400
O 	O 	0.94273 0.07342 0.71140 -0.45500
C 	C 	0.86675 0.13325 0.74895 -0.06900
C 	C 	0.82870 0.14163 0.78851 -0.03100
H 	H 	0.83420 0.11630 0.81520 0.06000
C 	C 	0.78370 0.18595 0.78923 0.00600
C 	C 	0.05220 0.01380 0.89840 0.00100
C 	C 	0.01240 0.05320 0.89930 -0.00600
C 	C 	0.01490 0.05380 0.94790 -0.01100
C 	C 	0.94620 0.98610 0.94800 0.02700
C 	C 	0.27457 0.72502 0.74933 -0.00300
C 	C 	0.35811 0.67215 0.71149 -0.02800
H 	H 	0.38410 0.66790 0.68500 0.06200
C 	C 	0.31400 0.71656 0.71054 0.00800
C 	C 	0.46070 0.53680 0.89890 0.02200
C 	C 	0.45930 0.53950 0.94800 -0.01000
C 	C 	0.41591 0.58392 0.74951 0.39100
O 	O 	0.42671 0.55725 0.78888 -0.46000
O 	O 	0.44273 0.57342 0.71140 -0.46500
C 	C 	0.36675 0.63325 0.74895 -0.07200
C 	C 	0.32870 0.64163 0.78851 -0.03000
H 	H 	0.33420 0.61630 0.81520 0.06100
C 	C 	0.28370 0.68595 0.78923 0.00500
C 	C 	0.55220 0.51380 0.89840 0.02300
C 	C 	0.51240 0.55320 0.89930 0.01800
C 	C 	0.51490 0.55380 0.94790 -0.00700
C 	C 	0.44620 0.48610 0.94800 -0.01100
C 	C 	0.77457 0.77498 0.75067 -0.00500
C 	C 	0.85811 0.82785 0.78851 -0.03400
H 	H 	0.88410 0.83210 0.81500 0.06900
C 	C 	0.81400 0.78344 0.78946 0.01600
C 	C 	0.96070 0.96320 0.60110 0.11200
C 	C 	0.95930 0.96050 0.55200 0.20700
C 	C 	0.91591 0.91608 0.75049 0.38500
O 	O 	0.92671 0.94275 0.71112 -0.43200
O 	O 	0.94273 0.92658 0.78860 -0.44000
C 	C 	0.86675 0.86675 0.75105 -0.05800
C 	C 	0.82870 0.85837 0.71149 -0.03600
H 	H 	0.83420 0.88370 0.68480 0.07000
C 	C 	0.78370 0.81405 0.71077 0.01700
C 	C 	0.05220 0.98620 0.60160 0.09900
C 	C 	0.01240 0.94680 0.60070 -0.04300
C 	C 	0.01490 0.94620 0.55210 -0.17500
C 	C 	0.94620 0.01390 0.55200 -0.18500
C 	C 	0.27457 0.27498 0.75067 -0.00400
C 	C 	0.35811 0.32785 0.78851 -0.02500
H 	H 	0.38410 0.33210 0.81500 0.05800
C 	C 	0.31400 0.28344 0.78946 0.00100
C 	C 	0.46070 0.46320 0.60110 0.02100
C 	C 	0.45930 0.46050 0.55200 -0.01100
C 	C 	0.41591 0.41608 0.75049 0.39100
O 	O 	0.42671 0.44275 0.71112 -0.46000
O 	O 	0.44273 0.42658 0.78860 -0.46700
C 	C 	0.36675 0.36675 0.75105 -0.07500
C 	C 	0.32870 0.35837 0.71149 -0.02900
H 	H 	0.33420 0.38370 0.68480 0.06000
C 	C 	0.28370 0.31405 0.71077 0.00200
C 	C 	0.55220 0.48620 0.60160 0.02200
C 	C 	0.51240 0.44680 0.60070 0.01700
C 	C 	0.51490 0.44620 0.55210 -0.00800
C 	C 	0.44620 0.51390 0.55200 -0.01000
C 	C 	0.22543 0.22502 0.75067 -0.00200
C 	C 	0.14189 0.17215 0.78851 -0.02200
H 	H 	0.11590 0.16790 0.81500 0.05400
C 	C 	0.18600 0.21656 0.78946 -0.00300
C 	C 	0.03930 0.03680 0.60110 -0.06600
C 	C 	0.04070 0.03950 0.55200 -0.20700
C 	C 	0.08409 0.08392 0.75049 0.39100
O 	O 	0.07329 0.05725 0.71112 -0.47600
O 	O 	0.05727 0.07342 0.78860 -0.48000
C 	C 	0.13325 0.13325 0.75105 -0.08300
C 	C 	0.17130 0.14163 0.71149 -0.02600
H 	H 	0.16580 0.11630 0.68480 0.05500
C 	C 	0.21630 0.18595 0.71077 -0.00200
C 	C 	0.94780 0.01380 0.60160 -0.03500
C 	C 	0.98760 0.05320 0.60070 0.08900
C 	C 	0.98510 0.05380 0.55210 0.19700
C 	C 	0.05380 0.98610 0.55200 0.20100
C 	C 	0.72543 0.72502 0.75067 -0.00200
C 	C 	0.64189 0.67215 0.78851 -0.02900
H 	H 	0.61590 0.66790 0.81500 0.06400
C 	C 	0.68600 0.71656 0.78946 0.01100
C 	C 	0.53930 0.53680 0.60110 0.02300
C 	C 	0.54070 0.53950 0.55200 -0.00900
C 	C 	0.58409 0.58392 0.75049 0.39000
O 	O 	0.57329 0.55725 0.71112 -0.45800
O 	O 	0.55727 0.57342 0.78860 -0.46500
C 	C 	0.63325 0.63325 0.75105 -0.06800
C 	C 	0.67130 0.64163 0.71149 -0.03300
H 	H 	0.66580 0.61630 0.68480 0.06500
C 	C 	0.71630 0.68595 0.71077 0.01300
C 	C 	0.44780 0.51380 0.60160 0.02200
C 	C 	0.48760 0.55320 0.60070 0.01700
C 	C 	0.48510 0.55380 0.55210 -0.00700
C 	C 	0.55380 0.48610 0.55200 -0.00800
N 	N 	0.00000 0.00000 0.12550 -0.28800
C 	C 	0.00000 0.00000 0.02646 -0.06100
Zn	Zn	0.00000 0.00000 0.19825 1.19900
N 	N 	0.50000 0.50000 0.12550 -0.24400
C 	C 	0.50000 0.50000 0.02646 0.01500
Zn	Zn	0.50000 0.50000 0.19825 1.21800
N 	N 	0.00000 -0.00000 0.37450 -0.28900
C 	C 	0.00000 0.00000 0.47354 -0.06300
Zn	Zn	0.00000 0.00000 0.30175 1.19900
N 	N 	0.50000 0.50000 0.37450 -0.24400
C 	C 	0.50000 0.50000 0.47354 0.01500
Zn	Zn	0.50000 0.50000 0.30175 1.21800
N 	N 	0.00000 0.00000 0.87450 -0.28800
C 	C 	0.00000 0.00000 0.97354 -0.06100
Zn	Zn	0.00000 0.00000 0.80175 1.19900
N 	N 	0.50000 0.50000 0.87450 -0.24400
C 	C 	0.50000 0.50000 0.97354 0.01500
Zn	Zn	0.50000 0.50000 0.80175 1.21800
N 	N 	0.00000 0.00000 0.62550 -0.28900
C 	C 	0.00000 0.00000 0.52646 -0.06300
Zn	Zn	0.00000 0.00000 0.69825 1.19900
N 	N 	0.50000 0.50000 0.62550 -0.24400
C 	C 	0.50000 0.50000 0.52646 0.01500
Zn	Zn	0.50000 0.50000 0.69825 1.21800
