data_crystal

_cell_length_a 13.33300
_cell_length_b 22.71040
_cell_length_c 18.46810
_cell_angle_alpha 90.00000
_cell_angle_beta  109.12700
_cell_angle_gamma 90.00000

_symmetry_space_group_name_	'P 1'
_symmetry_space_group_name_H-M	'P 1'

loop_
_symmetry_equiv_pos_as_xyz
  x,y,z

loop_
_atom_site_label
_atom_site_type_symbol
_atom_site_fract_x
_atom_site_fract_y
_atom_site_fract_z
_atom_site_charge
Cu	Cu	0.44228 0.26260 0.50671 0.90500
N 	N 	0.49180 0.26259 0.41490 -0.20700
C 	C 	0.52440 0.30689 0.38220 0.04200
H 	H 	0.52030 0.34540 0.39980 0.01700
C 	C 	0.56500 0.29810 0.32210 -0.06800
H 	H 	0.58700 0.33050 0.29950 0.05300
C 	C 	0.57250 0.24310 0.29640 -0.04700
H 	H 	0.60120 0.23730 0.25670 0.05900
C 	C 	0.53780 0.19470 0.32870 0.02700
C 	C 	0.49690 0.20698 0.38822 0.01400
C 	C 	0.45760 0.16077 0.42300 0.02400
C 	C 	0.46010 0.10245 0.39870 0.00600
C 	C 	0.41870 0.05952 0.43530 -0.04000
H 	H 	0.41680 0.01990 0.42030 0.04100
C 	C 	0.38110 0.07526 0.49300 -0.07800
H 	H 	0.35360 0.04650 0.51810 0.05300
C 	C 	0.38370 0.13441 0.51470 0.04600
H 	H 	0.35900 0.14470 0.55520 0.01600
N 	N 	0.41970 0.17629 0.48016 -0.20900
C 	C 	0.53860 0.13460 0.30460 -0.06900
H 	H 	0.56580 0.12570 0.26490 0.06700
C 	C 	0.50110 0.09100 0.33790 -0.04700
H 	H 	0.50210 0.05220 0.32060 0.04300
Cu	Cu	0.25066 0.36917 0.50728 0.91700
N 	N 	0.22960 0.43322 0.42918 -0.20400
C 	C 	0.21200 0.42938 0.35450 0.04700
H 	H 	0.20520 0.39190 0.33180 0.01900
C 	C 	0.20330 0.47875 0.30850 -0.07700
H 	H 	0.19100 0.47410 0.25570 0.05400
C 	C 	0.21240 0.53347 0.33900 -0.04200
H 	H 	0.20700 0.56670 0.30760 0.04700
C 	C 	0.23000 0.54018 0.41800 0.01500
C 	C 	0.23950 0.48805 0.46074 0.02300
C 	C 	0.26040 0.49089 0.54184 0.02300
C 	C 	0.27000 0.54504 0.57880 0.01600
C 	C 	0.28690 0.54396 0.65810 -0.04300
H 	H 	0.29220 0.57930 0.68570 0.04800
C 	C 	0.29530 0.49129 0.69420 -0.07500
H 	H 	0.30700 0.49020 0.74720 0.05200
C 	C 	0.28670 0.43903 0.65356 0.04400
H 	H 	0.29270 0.40310 0.67990 0.02100
N 	N 	0.27020 0.43820 0.57859 -0.20300
C 	C 	0.24130 0.59516 0.45780 -0.05400
H 	H 	0.23580 0.63040 0.43010 0.05400
C 	C 	0.25940 0.59758 0.53370 -0.05400
H 	H 	0.26530 0.63450 0.55780 0.05400
Cu	Cu	0.06278 0.23727 0.01493 0.90200
N 	N 	0.07590 0.32281 0.04651 -0.20900
C 	C 	0.10560 0.36827 0.01370 0.03600
H 	H 	0.13390 0.36160 0.97400 0.02400
C 	C 	0.09610 0.42588 0.03650 -0.07700
H 	H 	0.11830 0.45740 0.01250 0.05200
C 	C 	0.05490 0.43662 0.09320 -0.03700
H 	H 	0.04830 0.47560 0.10830 0.03800
C 	C 	0.02190 0.38962 0.12940 -0.00500
C 	C 	0.03490 0.33301 0.10330 0.02700
C 	C 	0.00120 0.28269 0.13550 0.00600
C 	C 	0.95730 0.28910 0.19430 0.03400
C 	C 	0.92810 0.23770 0.22380 -0.05000
H 	H 	0.89790 0.24000 0.26310 0.05600
C 	C 	0.94350 0.18480 0.19580 -0.07100
H 	H 	0.92550 0.15000 0.21630 0.05200
C 	C 	0.98630 0.18192 0.13630 0.04800
H 	H 	0.99610 0.14480 0.11710 0.01500
N 	N 	0.01350 0.22916 0.10587 -0.21100
C 	C 	0.97810 0.39480 0.19030 -0.03400
H 	H 	0.97120 0.43230 0.20950 0.04100
C 	C 	0.94680 0.34750 0.22060 -0.07900
H 	H 	0.91720 0.35280 0.26000 0.07400
O 	O 	0.38900 0.24810 0.59110 -0.44300
O 	O 	0.26457 0.31467 0.59035 -0.46300
C 	C 	0.32220 0.27060 0.61711 0.43200
C 	C 	0.30880 0.24201 0.68512 -0.26200
H 	H 	0.33740 0.20420 0.69860 0.12900
C 	C 	0.25830 0.26729 0.72823 0.03600
H 	H 	0.22860 0.30480 0.71400 0.02900
O 	O 	0.45010 0.34780 0.51846 -0.44100
O 	O 	0.58060 0.35064 0.63178 -0.30200
C 	C 	0.51680 0.37493 0.57530 0.36600
C 	C 	0.51850 0.43980 0.56950 -0.22700
H 	H 	0.53800 0.46190 0.61510 0.11600
C 	C 	0.49380 0.46867 0.50330 0.02500
H 	H 	0.46650 0.44680 0.45780 0.03200
O 	O 	0.23975 0.19043 0.93012 -0.46200
O 	O 	0.11700 0.25745 0.93308 -0.43800
C 	C 	0.18360 0.23539 0.90587 0.43000
C 	C 	0.19520 0.26484 0.83822 -0.26200
H 	H 	0.16510 0.30240 0.82480 0.13100
C 	C 	0.24660 0.24040 0.79538 0.03800
H 	H 	0.27730 0.20310 0.80990 0.02800
O 	O 	0.05509 0.15300 0.99465 -0.44100
O 	O 	0.91510 0.15651 0.88727 -0.30800
C 	C 	0.98310 0.12932 0.93820 0.37500
C 	C 	0.98070 0.06447 0.93650 -0.24600
H 	H 	0.95990 0.04550 0.88860 0.12100
C 	C 	0.00670 0.03139 0.99960 0.04500
H 	H 	0.03580 0.05050 0.04700 0.01900
Cu	Cu	0.55772 0.76260 0.99329 0.90300
N 	N 	0.50820 0.76259 0.08510 -0.20800
C 	C 	0.47560 0.80689 0.11780 0.04200
H 	H 	0.47970 0.84540 0.10020 0.01600
C 	C 	0.43500 0.79810 0.17790 -0.06900
H 	H 	0.41300 0.83050 0.20050 0.05200
C 	C 	0.42750 0.74310 0.20360 -0.04700
H 	H 	0.39880 0.73730 0.24330 0.05800
C 	C 	0.46220 0.69470 0.17130 0.02500
C 	C 	0.50310 0.70698 0.11178 0.01400
C 	C 	0.54240 0.66077 0.07700 0.02100
C 	C 	0.53990 0.60245 0.10130 0.00900
C 	C 	0.58130 0.55952 0.06470 -0.04800
H 	H 	0.58320 0.51990 0.07970 0.04400
C 	C 	0.61890 0.57526 0.00700 -0.06500
H 	H 	0.64640 0.54650 0.98190 0.04700
C 	C 	0.61630 0.63441 0.98530 0.03600
H 	H 	0.64100 0.64470 0.94480 0.01900
N 	N 	0.58030 0.67629 0.01984 -0.20500
C 	C 	0.46140 0.63460 0.19540 -0.06700
H 	H 	0.43420 0.62570 0.23510 0.06700
C 	C 	0.49890 0.59100 0.16210 -0.05000
H 	H 	0.49790 0.55220 0.17940 0.04400
Cu	Cu	0.74934 0.86917 0.99272 0.91500
N 	N 	0.77040 0.93322 0.07082 -0.20400
C 	C 	0.78800 0.92938 0.14550 0.04700
H 	H 	0.79480 0.89190 0.16820 0.02000
C 	C 	0.79670 0.97875 0.19150 -0.07300
H 	H 	0.80900 0.97410 0.24430 0.05300
C 	C 	0.78760 0.03347 0.16100 -0.04300
H 	H 	0.79300 0.06670 0.19240 0.04700
C 	C 	0.77000 0.04018 0.08200 0.00700
C 	C 	0.76050 0.98805 0.03926 0.03600
C 	C 	0.73960 0.99089 0.95816 0.01000
C 	C 	0.73000 0.04504 0.92120 0.02300
C 	C 	0.71310 0.04396 0.84190 -0.04300
H 	H 	0.70780 0.07930 0.81430 0.04800
C 	C 	0.70470 0.99129 0.80580 -0.07700
H 	H 	0.69300 0.99020 0.75280 0.05200
C 	C 	0.71330 0.93903 0.84644 0.04400
H 	H 	0.70730 0.90310 0.82010 0.02000
N 	N 	0.72980 0.93820 0.92141 -0.20200
C 	C 	0.75870 0.09516 0.04220 -0.04900
H 	H 	0.76420 0.13040 0.06990 0.05200
C 	C 	0.74060 0.09758 0.96630 -0.05900
H 	H 	0.73470 0.13450 0.94220 0.05600
Cu	Cu	0.93722 0.73727 0.48507 0.90400
N 	N 	0.92410 0.82281 0.45349 -0.20900
C 	C 	0.89440 0.86827 0.48630 0.04500
H 	H 	0.86610 0.86160 0.52600 0.01700
C 	C 	0.90390 0.92588 0.46350 -0.07900
H 	H 	0.88170 0.95740 0.48750 0.05300
C 	C 	0.94510 0.93662 0.40680 -0.04000
H 	H 	0.95170 0.97560 0.39170 0.04000
C 	C 	0.97810 0.88962 0.37060 0.00600
C 	C 	0.96510 0.83301 0.39670 0.02200
C 	C 	0.99880 0.78269 0.36450 0.01600
C 	C 	0.04270 0.78910 0.30570 0.02200
C 	C 	0.07190 0.73770 0.27620 -0.04600
H 	H 	0.10210 0.74000 0.23690 0.05400
C 	C 	0.05650 0.68480 0.30420 -0.07300
H 	H 	0.07450 0.65000 0.28370 0.05200
C 	C 	0.01370 0.68192 0.36370 0.04400
H 	H 	0.00390 0.64480 0.38290 0.01500
N 	N 	0.98650 0.72916 0.39413 -0.20900
C 	C 	0.02190 0.89480 0.30970 -0.04900
H 	H 	0.02880 0.93230 0.29050 0.04400
C 	C 	0.05320 0.84750 0.27940 -0.06900
H 	H 	0.08280 0.85280 0.24000 0.07000
O 	O 	0.61100 0.74810 0.90890 -0.44400
O 	O 	0.73543 0.81467 0.90965 -0.46500
C 	C 	0.67780 0.77060 0.88289 0.43200
C 	C 	0.69120 0.74201 0.81488 -0.26200
H 	H 	0.66260 0.70420 0.80140 0.12900
C 	C 	0.74170 0.76729 0.77177 0.03600
H 	H 	0.77140 0.80480 0.78600 0.02800
O 	O 	0.54990 0.84780 0.98154 -0.44300
O 	O 	0.41940 0.85064 0.86822 -0.30200
C 	C 	0.48320 0.87493 0.92470 0.36500
C 	C 	0.48150 0.93980 0.93050 -0.22500
H 	H 	0.46200 0.96190 0.88490 0.11500
C 	C 	0.50620 0.96867 0.99670 0.01900
H 	H 	0.53350 0.94680 0.04220 0.03700
O 	O 	0.76025 0.69043 0.56988 -0.46500
O 	O 	0.88300 0.75745 0.56692 -0.44200
C 	C 	0.81640 0.73539 0.59413 0.43100
C 	C 	0.80480 0.76484 0.66178 -0.26300
H 	H 	0.83490 0.80240 0.67520 0.13000
C 	C 	0.75340 0.74040 0.70462 0.03800
H 	H 	0.72270 0.70310 0.69010 0.02700
O 	O 	0.94491 0.65300 0.50535 -0.44900
O 	O 	0.08490 0.65651 0.61273 -0.30800
C 	C 	0.01690 0.62932 0.56180 0.37800
C 	C 	0.01930 0.56447 0.56350 -0.23300
H 	H 	0.04010 0.54550 0.61140 0.11800
C 	C 	0.99330 0.53139 0.50040 0.02600
H 	H 	0.96420 0.55050 0.45300 0.03100
Cu	Cu	0.55772 0.73740 0.49329 0.90400
N 	N 	0.50820 0.73741 0.58510 -0.20800
C 	C 	0.47560 0.69311 0.61780 0.04100
H 	H 	0.47970 0.65460 0.60020 0.01600
C 	C 	0.43500 0.70190 0.67790 -0.06900
H 	H 	0.41300 0.66950 0.70050 0.05200
C 	C 	0.42750 0.75690 0.70360 -0.04800
H 	H 	0.39880 0.76270 0.74330 0.05800
C 	C 	0.46220 0.80530 0.67130 0.02600
C 	C 	0.50310 0.79302 0.61178 0.01300
C 	C 	0.54240 0.83923 0.57700 0.02300
C 	C 	0.53990 0.89755 0.60130 0.00500
C 	C 	0.58130 0.94048 0.56470 -0.04000
H 	H 	0.58320 0.98010 0.57970 0.04100
C 	C 	0.61890 0.92474 0.50700 -0.07800
H 	H 	0.64640 0.95350 0.48190 0.05300
C 	C 	0.61630 0.86559 0.48530 0.04600
H 	H 	0.64100 0.85530 0.44480 0.01600
N 	N 	0.58030 0.82371 0.51984 -0.20900
C 	C 	0.46140 0.86540 0.69540 -0.06900
H 	H 	0.43420 0.87430 0.73510 0.06700
C 	C 	0.49890 0.90900 0.66210 -0.04700
H 	H 	0.49790 0.94780 0.67940 0.04300
Cu	Cu	0.74934 0.63083 0.49272 0.91700
N 	N 	0.77040 0.56678 0.57082 -0.20400
C 	C 	0.78800 0.57062 0.64550 0.04700
H 	H 	0.79480 0.60810 0.66820 0.01900
C 	C 	0.79670 0.52125 0.69150 -0.07700
H 	H 	0.80900 0.52590 0.74430 0.05400
C 	C 	0.78760 0.46653 0.66100 -0.04200
H 	H 	0.79300 0.43330 0.69240 0.04700
C 	C 	0.77000 0.45982 0.58200 0.01500
C 	C 	0.76050 0.51195 0.53926 0.02300
C 	C 	0.73960 0.50911 0.45816 0.02300
C 	C 	0.73000 0.45496 0.42120 0.01600
C 	C 	0.71310 0.45604 0.34190 -0.04300
H 	H 	0.70780 0.42070 0.31430 0.04800
C 	C 	0.70470 0.50871 0.30580 -0.07500
H 	H 	0.69300 0.50980 0.25280 0.05200
C 	C 	0.71330 0.56097 0.34644 0.04400
H 	H 	0.70730 0.59690 0.32010 0.02100
N 	N 	0.72980 0.56180 0.42141 -0.20300
C 	C 	0.75870 0.40484 0.54220 -0.05400
H 	H 	0.76420 0.36960 0.56990 0.05400
C 	C 	0.74060 0.40242 0.46630 -0.05400
H 	H 	0.73470 0.36550 0.44220 0.05400
Cu	Cu	0.93722 0.76273 0.98507 0.90200
N 	N 	0.92410 0.67719 0.95349 -0.20900
C 	C 	0.89440 0.63173 0.98630 0.03600
H 	H 	0.86610 0.63840 0.02600 0.02400
C 	C 	0.90390 0.57412 0.96350 -0.07700
H 	H 	0.88170 0.54260 0.98750 0.05200
C 	C 	0.94510 0.56338 0.90680 -0.03700
H 	H 	0.95170 0.52440 0.89170 0.03800
C 	C 	0.97810 0.61038 0.87060 -0.00500
C 	C 	0.96510 0.66699 0.89670 0.02700
C 	C 	0.99880 0.71731 0.86450 0.00600
C 	C 	0.04270 0.71090 0.80570 0.03400
C 	C 	0.07190 0.76230 0.77620 -0.05000
H 	H 	0.10210 0.76000 0.73690 0.05600
C 	C 	0.05650 0.81520 0.80420 -0.07100
H 	H 	0.07450 0.85000 0.78370 0.05200
C 	C 	0.01370 0.81808 0.86370 0.04800
H 	H 	0.00390 0.85520 0.88290 0.01500
N 	N 	0.98650 0.77084 0.89413 -0.21100
C 	C 	0.02190 0.60520 0.80970 -0.03400
H 	H 	0.02880 0.56770 0.79050 0.04100
C 	C 	0.05320 0.65250 0.77940 -0.07900
H 	H 	0.08280 0.64720 0.74000 0.07400
O 	O 	0.61100 0.75190 0.40890 -0.44300
O 	O 	0.73543 0.68533 0.40965 -0.46300
C 	C 	0.67780 0.72940 0.38289 0.43200
C 	C 	0.69120 0.75799 0.31488 -0.26200
H 	H 	0.66260 0.79580 0.30140 0.12900
C 	C 	0.74170 0.73271 0.27177 0.03600
H 	H 	0.77140 0.69520 0.28600 0.02900
O 	O 	0.54990 0.65220 0.48154 -0.44100
O 	O 	0.41940 0.64936 0.36822 -0.30200
C 	C 	0.48320 0.62507 0.42470 0.36600
C 	C 	0.48150 0.56020 0.43050 -0.22700
H 	H 	0.46200 0.53810 0.38490 0.11600
C 	C 	0.50620 0.53133 0.49670 0.02500
H 	H 	0.53350 0.55320 0.54220 0.03200
O 	O 	0.76025 0.80957 0.06988 -0.46200
O 	O 	0.88300 0.74255 0.06692 -0.43800
C 	C 	0.81640 0.76461 0.09413 0.43000
C 	C 	0.80480 0.73516 0.16178 -0.26200
H 	H 	0.83490 0.69760 0.17520 0.13100
C 	C 	0.75340 0.75960 0.20462 0.03800
H 	H 	0.72270 0.79690 0.19010 0.02800
O 	O 	0.94491 0.84700 0.00535 -0.44100
O 	O 	0.08490 0.84349 0.11273 -0.30800
C 	C 	0.01690 0.87068 0.06180 0.37500
C 	C 	0.01930 0.93553 0.06350 -0.24600
H 	H 	0.04010 0.95450 0.11140 0.12100
C 	C 	0.99330 0.96861 0.00040 0.04500
H 	H 	0.96420 0.94950 0.95300 0.01900
Cu	Cu	0.44228 0.23740 0.00671 0.90300
N 	N 	0.49180 0.23741 0.91490 -0.20800
C 	C 	0.52440 0.19311 0.88220 0.04200
H 	H 	0.52030 0.15460 0.89980 0.01600
C 	C 	0.56500 0.20190 0.82210 -0.06900
H 	H 	0.58700 0.16950 0.79950 0.05200
C 	C 	0.57250 0.25690 0.79640 -0.04700
H 	H 	0.60120 0.26270 0.75670 0.05800
C 	C 	0.53780 0.30530 0.82870 0.02500
C 	C 	0.49690 0.29302 0.88822 0.01400
C 	C 	0.45760 0.33923 0.92300 0.02100
C 	C 	0.46010 0.39755 0.89870 0.00900
C 	C 	0.41870 0.44048 0.93530 -0.04800
H 	H 	0.41680 0.48010 0.92030 0.04400
C 	C 	0.38110 0.42474 0.99300 -0.06500
H 	H 	0.35360 0.45350 0.01810 0.04700
C 	C 	0.38370 0.36559 0.01470 0.03600
H 	H 	0.35900 0.35530 0.05520 0.01900
N 	N 	0.41970 0.32371 0.98016 -0.20500
C 	C 	0.53860 0.36540 0.80460 -0.06700
H 	H 	0.56580 0.37430 0.76490 0.06700
C 	C 	0.50110 0.40900 0.83790 -0.05000
H 	H 	0.50210 0.44780 0.82060 0.04400
Cu	Cu	0.25066 0.13083 0.00728 0.91500
N 	N 	0.22960 0.06678 0.92918 -0.20400
C 	C 	0.21200 0.07062 0.85450 0.04700
H 	H 	0.20520 0.10810 0.83180 0.02000
C 	C 	0.20330 0.02125 0.80850 -0.07300
H 	H 	0.19100 0.02590 0.75570 0.05300
C 	C 	0.21240 0.96653 0.83900 -0.04300
H 	H 	0.20700 0.93330 0.80760 0.04700
C 	C 	0.23000 0.95982 0.91800 0.00700
C 	C 	0.23950 0.01195 0.96074 0.03600
C 	C 	0.26040 0.00911 0.04184 0.01000
C 	C 	0.27000 0.95496 0.07880 0.02300
C 	C 	0.28690 0.95604 0.15810 -0.04300
H 	H 	0.29220 0.92070 0.18570 0.04800
C 	C 	0.29530 0.00871 0.19420 -0.07700
H 	H 	0.30700 0.00980 0.24720 0.05200
C 	C 	0.28670 0.06097 0.15356 0.04400
H 	H 	0.29270 0.09690 0.17990 0.02000
N 	N 	0.27020 0.06180 0.07859 -0.20200
C 	C 	0.24130 0.90484 0.95780 -0.04900
H 	H 	0.23580 0.86960 0.93010 0.05200
C 	C 	0.25940 0.90242 0.03370 -0.05900
H 	H 	0.26530 0.86550 0.05780 0.05600
Cu	Cu	0.06278 0.26273 0.51493 0.90400
N 	N 	0.07590 0.17719 0.54651 -0.20900
C 	C 	0.10560 0.13173 0.51370 0.04500
H 	H 	0.13390 0.13840 0.47400 0.01700
C 	C 	0.09610 0.07412 0.53650 -0.07900
H 	H 	0.11830 0.04260 0.51250 0.05300
C 	C 	0.05490 0.06338 0.59320 -0.04000
H 	H 	0.04830 0.02440 0.60830 0.04000
C 	C 	0.02190 0.11038 0.62940 0.00600
C 	C 	0.03490 0.16699 0.60330 0.02200
C 	C 	0.00120 0.21731 0.63550 0.01600
C 	C 	0.95730 0.21090 0.69430 0.02200
C 	C 	0.92810 0.26230 0.72380 -0.04600
H 	H 	0.89790 0.26000 0.76310 0.05400
C 	C 	0.94350 0.31520 0.69580 -0.07300
H 	H 	0.92550 0.35000 0.71630 0.05200
C 	C 	0.98630 0.31808 0.63630 0.04400
H 	H 	0.99610 0.35520 0.61710 0.01500
N 	N 	0.01350 0.27084 0.60587 -0.20900
C 	C 	0.97810 0.10520 0.69030 -0.04900
H 	H 	0.97120 0.06770 0.70950 0.04400
C 	C 	0.94680 0.15250 0.72060 -0.06900
H 	H 	0.91720 0.14720 0.76000 0.07000
O 	O 	0.38900 0.25190 0.09110 -0.44400
O 	O 	0.26457 0.18533 0.09035 -0.46500
C 	C 	0.32220 0.22940 0.11711 0.43200
C 	C 	0.30880 0.25799 0.18512 -0.26200
H 	H 	0.33740 0.29580 0.19860 0.12900
C 	C 	0.25830 0.23271 0.22823 0.03600
H 	H 	0.22860 0.19520 0.21400 0.02800
O 	O 	0.45010 0.15220 0.01846 -0.44300
O 	O 	0.58060 0.14936 0.13178 -0.30200
C 	C 	0.51680 0.12507 0.07530 0.36500
C 	C 	0.51850 0.06020 0.06950 -0.22500
H 	H 	0.53800 0.03810 0.11510 0.11500
C 	C 	0.49380 0.03133 0.00330 0.01900
H 	H 	0.46650 0.05320 0.95780 0.03700
O 	O 	0.23975 0.30957 0.43012 -0.46500
O 	O 	0.11700 0.24255 0.43308 -0.44200
C 	C 	0.18360 0.26461 0.40587 0.43100
C 	C 	0.19520 0.23516 0.33822 -0.26300
H 	H 	0.16510 0.19760 0.32480 0.13000
C 	C 	0.24660 0.25960 0.29538 0.03800
H 	H 	0.27730 0.29690 0.30990 0.02700
O 	O 	0.05509 0.34700 0.49465 -0.44900
O 	O 	0.91510 0.34349 0.38727 -0.30800
C 	C 	0.98310 0.37068 0.43820 0.37800
C 	C 	0.98070 0.43553 0.43650 -0.23300
H 	H 	0.95990 0.45450 0.38860 0.11800
C 	C 	0.00670 0.46861 0.49960 0.02600
H 	H 	0.03580 0.44950 0.54700 0.03100
