data_crystal

_cell_length_a 19.09490
_cell_length_b 22.76670
_cell_length_c 13.39520
_cell_angle_alpha 90.00000
_cell_angle_beta  113.18500
_cell_angle_gamma 90.00000

_symmetry_space_group_name_	'P 1'
_symmetry_space_group_name_H-M	'P 1'

loop_
_symmetry_equiv_pos_as_xyz
  x,y,z

loop_
_atom_site_label
_atom_site_type_symbol
_atom_site_fract_x
_atom_site_fract_y
_atom_site_fract_z
_atom_site_charge
Cu	Cu	0.49585 0.76335 0.55696 0.90400
N 	N 	0.46740 0.67755 0.54490 -0.21000
N 	N 	0.40514 0.76713 0.41590 -0.21000
N 	N 	0.57436 0.93534 0.80450 -0.20400
O 	O 	0.51142 0.84794 0.56520 -0.44600
O 	O 	0.62055 0.84719 0.54070 -0.30900
O 	O 	0.57906 0.74621 0.69370 -0.44600
O 	O 	0.57967 0.81169 0.81850 -0.46800
C 	C 	0.50110 0.63365 0.61110 0.04800
H 	H 	0.54170 0.64200 0.67750 0.01600
C 	C 	0.47870 0.57570 0.58590 -0.08200
H 	H 	0.50330 0.54560 0.63530 0.05400
C 	C 	0.42130 0.56250 0.49010 -0.03700
H 	H 	0.40600 0.52330 0.47310 0.03900
C 	C 	0.38470 0.60730 0.41650 0.00200
C 	C 	0.32400 0.59970 0.31340 -0.04300
H 	H 	0.30580 0.56150 0.29110 0.04300
C 	C 	0.29210 0.64430 0.24740 -0.07200
H 	H 	0.25260 0.63690 0.17960 0.07000
C 	C 	0.31670 0.70380 0.27740 0.02600
C 	C 	0.28620 0.75390 0.21440 -0.04800
H 	H 	0.24680 0.74990 0.14530 0.05600
C 	C 	0.31330 0.80800 0.25270 -0.07000
H 	H 	0.29180 0.84170 0.21140 0.05200
C 	C 	0.37350 0.81310 0.35420 0.04200
H 	H 	0.39230 0.85080 0.37980 0.01600
C 	C 	0.37680 0.71300 0.37890 0.01400
C 	C 	0.41010 0.66493 0.44860 0.02400
C 	C 	0.64910 0.93375 0.86130 0.04300
H 	H 	0.67370 0.89720 0.87870 0.02100
C 	C 	0.69200 0.98490 0.89600 -0.07300
H 	H 	0.74480 0.98230 0.93680 0.05200
C 	C 	0.65850 0.03820 0.87140 -0.04500
H 	H 	0.68750 0.07250 0.89530 0.04800
C 	C 	0.58010 0.04172 0.80990 0.01500
C 	C 	0.53790 0.09580 0.77880 -0.05500
H 	H 	0.56370 0.13180 0.79900 0.05400
C 	C 	0.54040 0.98872 0.77950 0.02300
C 	C 	0.56780 0.87288 0.55220 0.37700
C 	C 	0.56570 0.93778 0.54720 -0.23200
H 	H 	0.61220 0.95830 0.57290 0.11800
C 	C 	0.50170 0.96852 0.50850 0.02800
H 	H 	0.45550 0.94820 0.49080 0.03100
C 	C 	0.60550 0.76806 0.78680 0.43800
C 	C 	0.67360 0.73914 0.86740 -0.26300
H 	H 	0.68710 0.70170 0.85100 0.12900
C 	C 	0.71630 0.76331 0.96100 0.03700
H 	H 	0.70180 0.80030 0.97770 0.02700
Cu	Cu	0.99585 0.26335 0.55696 0.91200
N 	N 	0.96740 0.17755 0.54490 -0.18600
N 	N 	0.90514 0.26713 0.41590 -0.21000
N 	N 	0.07436 0.43534 0.80450 -0.19900
O 	O 	0.01142 0.34794 0.56520 -0.44900
O 	O 	0.12055 0.34719 0.54070 -0.30500
O 	O 	0.07906 0.24621 0.69370 -0.45100
O 	O 	0.07967 0.31169 0.81850 -0.47100
C 	C 	0.00110 0.13365 0.61110 -0.02800
H 	H 	0.04170 0.14200 0.67750 0.03800
C 	C 	0.97870 0.07570 0.58590 0.01900
H 	H 	0.00330 0.04560 0.63530 0.00900
C 	C 	0.92130 0.06250 0.49010 -0.09700
H 	H 	0.90600 0.02330 0.47310 0.06200
C 	C 	0.88470 0.10730 0.41650 0.03500
C 	C 	0.82400 0.09970 0.31340 -0.06600
H 	H 	0.80580 0.06150 0.29110 0.05000
C 	C 	0.79210 0.14430 0.24740 -0.05600
H 	H 	0.75260 0.13690 0.17960 0.06500
C 	C 	0.81670 0.20380 0.27740 0.01700
C 	C 	0.78620 0.25390 0.21440 -0.04100
H 	H 	0.74680 0.24990 0.14530 0.05400
C 	C 	0.81330 0.30800 0.25270 -0.07400
H 	H 	0.79180 0.34170 0.21140 0.05400
C 	C 	0.87350 0.31310 0.35420 0.04600
H 	H 	0.89230 0.35080 0.37980 0.01600
C 	C 	0.87680 0.21300 0.37890 0.02300
C 	C 	0.91010 0.16493 0.44860 0.01000
C 	C 	0.14910 0.43375 0.86130 0.03600
H 	H 	0.17370 0.39720 0.87870 0.02300
C 	C 	0.19200 0.48490 0.89600 -0.06100
H 	H 	0.24480 0.48230 0.93680 0.04700
C 	C 	0.15850 0.53820 0.87140 -0.06300
H 	H 	0.18750 0.57250 0.89530 0.05400
C 	C 	0.08010 0.54172 0.80990 0.04200
C 	C 	0.03790 0.59580 0.77880 -0.10600
H 	H 	0.06370 0.63180 0.79900 0.06800
C 	C 	0.04040 0.48872 0.77950 -0.00600
C 	C 	0.06780 0.37288 0.55220 0.35500
C 	C 	0.06570 0.43778 0.54720 -0.17400
H 	H 	0.11220 0.45830 0.57290 0.09800
C 	C 	0.00170 0.46852 0.50850 -0.07800
H 	H 	0.95550 0.44820 0.49080 0.07400
C 	C 	0.10550 0.26806 0.78680 0.43700
C 	C 	0.17360 0.23914 0.86740 -0.26100
H 	H 	0.18710 0.20170 0.85100 0.12800
C 	C 	0.21630 0.26331 0.96100 0.03200
H 	H 	0.20180 0.30030 0.97770 0.02800
Cu	Cu	0.50415 0.76335 0.94304 0.90400
N 	N 	0.53260 0.67755 0.95510 -0.21100
N 	N 	0.59486 0.76713 0.08410 -0.20900
N 	N 	0.42564 0.93534 0.69550 -0.20300
O 	O 	0.48858 0.84794 0.93480 -0.44600
O 	O 	0.37945 0.84719 0.95930 -0.30900
O 	O 	0.42094 0.74621 0.80630 -0.44600
O 	O 	0.42033 0.81169 0.68150 -0.46800
C 	C 	0.49890 0.63365 0.88890 0.05000
H 	H 	0.45830 0.64200 0.82250 0.01500
C 	C 	0.52130 0.57570 0.91410 -0.08700
H 	H 	0.49670 0.54560 0.86470 0.05500
C 	C 	0.57870 0.56250 0.00990 -0.03100
H 	H 	0.59400 0.52330 0.02690 0.03700
C 	C 	0.61530 0.60730 0.08350 -0.00100
C 	C 	0.67600 0.59970 0.18660 -0.04000
H 	H 	0.69420 0.56150 0.20890 0.04100
C 	C 	0.70790 0.64430 0.25260 -0.07400
H 	H 	0.74740 0.63690 0.32040 0.07100
C 	C 	0.68330 0.70380 0.22260 0.02800
C 	C 	0.71380 0.75390 0.28560 -0.04900
H 	H 	0.75320 0.74990 0.35470 0.05700
C 	C 	0.68670 0.80800 0.24730 -0.06900
H 	H 	0.70820 0.84170 0.28860 0.05200
C 	C 	0.62650 0.81310 0.14580 0.04100
H 	H 	0.60770 0.85080 0.12020 0.01700
C 	C 	0.62320 0.71300 0.12110 0.01200
C 	C 	0.58990 0.66493 0.05140 0.02700
C 	C 	0.35090 0.93375 0.63870 0.04400
H 	H 	0.32630 0.89720 0.62130 0.02000
C 	C 	0.30800 0.98490 0.60400 -0.07300
H 	H 	0.25520 0.98230 0.56320 0.05200
C 	C 	0.34150 0.03820 0.62860 -0.04500
H 	H 	0.31250 0.07250 0.60470 0.04800
C 	C 	0.41990 0.04172 0.69010 0.01500
C 	C 	0.46210 0.09580 0.72120 -0.05400
H 	H 	0.43630 0.13180 0.70100 0.05400
C 	C 	0.45960 0.98872 0.72050 0.02400
C 	C 	0.43220 0.87288 0.94780 0.37400
C 	C 	0.43430 0.93778 0.95280 -0.22400
H 	H 	0.38780 0.95830 0.92710 0.11500
C 	C 	0.49830 0.96852 0.99150 0.01400
H 	H 	0.54450 0.94820 0.00920 0.03700
C 	C 	0.39450 0.76806 0.71320 0.43800
C 	C 	0.32640 0.73914 0.63260 -0.26400
H 	H 	0.31290 0.70170 0.64900 0.13000
C 	C 	0.28370 0.76331 0.53900 0.03900
H 	H 	0.29820 0.80030 0.52230 0.02700
Cu	Cu	0.00415 0.26335 0.94304 0.89700
N 	N 	0.03260 0.17755 0.95510 -0.23800
N 	N 	0.09486 0.26713 0.08410 -0.20700
N 	N 	0.92564 0.43534 0.69550 -0.20500
O 	O 	0.98858 0.34794 0.93480 -0.44000
O 	O 	0.87945 0.34719 0.95930 -0.31200
O 	O 	0.92094 0.24621 0.80630 -0.43900
O 	O 	0.92033 0.31169 0.68150 -0.46100
C 	C 	0.99890 0.13365 0.88890 0.13700
H 	H 	0.95830 0.14200 0.82250 -0.01100
C 	C 	0.02130 0.07570 0.91410 -0.20200
H 	H 	0.99670 0.04560 0.86470 0.10600
C 	C 	0.07870 0.06250 0.00990 0.04100
H 	H 	0.09400 0.02330 0.02690 0.01100
C 	C 	0.11530 0.10730 0.08350 -0.04100
C 	C 	0.17600 0.09970 0.18660 -0.01400
H 	H 	0.19420 0.06150 0.20890 0.03200
C 	C 	0.20790 0.14430 0.25260 -0.09300
H 	H 	0.24740 0.13690 0.32040 0.07700
C 	C 	0.18330 0.20380 0.22260 0.03900
C 	C 	0.21380 0.25390 0.28560 -0.05700
H 	H 	0.25320 0.24990 0.35470 0.05900
C 	C 	0.18670 0.30800 0.24730 -0.06400
H 	H 	0.20820 0.34170 0.28860 0.04900
C 	C 	0.12650 0.31310 0.14580 0.03700
H 	H 	0.10770 0.35080 0.12020 0.01700
C 	C 	0.12320 0.21300 0.12110 0.00200
C 	C 	0.08990 0.16493 0.05140 0.04700
C 	C 	0.85090 0.43375 0.63870 0.05100
H 	H 	0.82630 0.39720 0.62130 0.01800
C 	C 	0.80800 0.48490 0.60400 -0.08700
H 	H 	0.75520 0.48230 0.56320 0.05600
C 	C 	0.84150 0.53820 0.62860 -0.02500
H 	H 	0.81250 0.57250 0.60470 0.04100
C 	C 	0.91990 0.54172 0.69010 -0.01200
C 	C 	0.96210 0.59580 0.72120 -0.00300
H 	H 	0.93630 0.63180 0.70100 0.04000
C 	C 	0.95960 0.48872 0.72050 0.05400
C 	C 	0.93220 0.37288 0.94780 0.39500
C 	C 	0.93430 0.43778 0.95280 -0.28000
H 	H 	0.88780 0.45830 0.92710 0.13400
C 	C 	0.99830 0.46852 0.99150 0.11700
H 	H 	0.04450 0.44820 0.00920 -0.00500
C 	C 	0.89450 0.26806 0.71320 0.43600
C 	C 	0.82640 0.23914 0.63260 -0.26200
H 	H 	0.81290 0.20170 0.64900 0.13000
C 	C 	0.78370 0.26331 0.53900 0.03800
H 	H 	0.79820 0.30030 0.52230 0.02700
Cu	Cu	0.50415 0.23665 0.44304 0.90500
N 	N 	0.53260 0.32245 0.45510 -0.20900
N 	N 	0.59486 0.23287 0.58410 -0.20900
N 	N 	0.42564 0.06466 0.19550 -0.20300
O 	O 	0.48858 0.15206 0.43480 -0.44600
O 	O 	0.37945 0.15281 0.45930 -0.30900
O 	O 	0.42094 0.25379 0.30630 -0.44600
O 	O 	0.42033 0.18831 0.18150 -0.46800
C 	C 	0.49890 0.36635 0.38890 0.04800
H 	H 	0.45830 0.35800 0.32250 0.01600
C 	C 	0.52130 0.42430 0.41410 -0.08200
H 	H 	0.49670 0.45440 0.36470 0.05400
C 	C 	0.57870 0.43750 0.50990 -0.03700
H 	H 	0.59400 0.47670 0.52690 0.03900
C 	C 	0.61530 0.39270 0.58350 0.00100
C 	C 	0.67600 0.40030 0.68660 -0.04300
H 	H 	0.69420 0.43850 0.70890 0.04200
C 	C 	0.70790 0.35570 0.75260 -0.07200
H 	H 	0.74740 0.36310 0.82040 0.07000
C 	C 	0.68330 0.29620 0.72260 0.02600
C 	C 	0.71380 0.24610 0.78560 -0.04900
H 	H 	0.75320 0.25010 0.85470 0.05700
C 	C 	0.68670 0.19200 0.74730 -0.06900
H 	H 	0.70820 0.15830 0.78860 0.05200
C 	C 	0.62650 0.18690 0.64580 0.04200
H 	H 	0.60770 0.14920 0.62020 0.01600
C 	C 	0.62320 0.28700 0.62110 0.01300
C 	C 	0.58990 0.33507 0.55140 0.02400
C 	C 	0.35090 0.06625 0.13870 0.04400
H 	H 	0.32630 0.10280 0.12130 0.02100
C 	C 	0.30800 0.01510 0.10400 -0.07400
H 	H 	0.25520 0.01770 0.06320 0.05200
C 	C 	0.34150 0.96180 0.12860 -0.04400
H 	H 	0.31250 0.92750 0.10470 0.04800
C 	C 	0.41990 0.95828 0.19010 0.01600
C 	C 	0.46210 0.90420 0.22120 -0.05400
H 	H 	0.43630 0.86820 0.20100 0.05400
C 	C 	0.45960 0.01128 0.22050 0.02300
C 	C 	0.43220 0.12712 0.44780 0.37700
C 	C 	0.43430 0.06222 0.45280 -0.23100
H 	H 	0.38780 0.04170 0.42710 0.11700
C 	C 	0.49830 0.03148 0.49150 0.02700
H 	H 	0.54450 0.05180 0.50920 0.03100
C 	C 	0.39450 0.23194 0.21320 0.44000
C 	C 	0.32640 0.26086 0.13260 -0.26800
H 	H 	0.31290 0.29830 0.14900 0.13200
C 	C 	0.28370 0.23669 0.03900 0.04700
H 	H 	0.29820 0.19970 0.02230 0.02500
Cu	Cu	0.00415 0.73665 0.44304 0.89900
N 	N 	0.03260 0.82245 0.45510 -0.23200
N 	N 	0.09486 0.73287 0.58410 -0.20900
N 	N 	0.92564 0.56466 0.19550 -0.20500
O 	O 	0.98858 0.65206 0.43480 -0.44100
O 	O 	0.87945 0.65281 0.45930 -0.31300
O 	O 	0.92094 0.75379 0.30630 -0.44000
O 	O 	0.92033 0.68831 0.18150 -0.46200
C 	C 	0.99890 0.86635 0.38890 0.12300
H 	H 	0.95830 0.85800 0.32250 -0.00600
C 	C 	0.02130 0.92430 0.41410 -0.17800
H 	H 	0.99670 0.95440 0.36470 0.09700
C 	C 	0.07870 0.93750 0.50990 0.02100
H 	H 	0.09400 0.97670 0.52690 0.01700
C 	C 	0.11530 0.89270 0.58350 -0.03100
C 	C 	0.17600 0.90030 0.68660 -0.02100
H 	H 	0.19420 0.93850 0.70890 0.03400
C 	C 	0.20790 0.85570 0.75260 -0.08800
H 	H 	0.24740 0.86310 0.82040 0.07400
C 	C 	0.18330 0.79620 0.72260 0.03500
C 	C 	0.21380 0.74610 0.78560 -0.05500
H 	H 	0.25320 0.75010 0.85470 0.05800
C 	C 	0.18670 0.69200 0.74730 -0.06600
H 	H 	0.20820 0.65830 0.78860 0.05000
C 	C 	0.12650 0.68690 0.64580 0.03800
H 	H 	0.10770 0.64920 0.62020 0.01600
C 	C 	0.12320 0.78700 0.62110 0.00500
C 	C 	0.08990 0.83507 0.55140 0.03900
C 	C 	0.85090 0.56625 0.13870 0.05000
H 	H 	0.82630 0.60280 0.12130 0.01900
C 	C 	0.80800 0.51510 0.10400 -0.08500
H 	H 	0.75520 0.51770 0.06320 0.05600
C 	C 	0.84150 0.46180 0.12860 -0.02800
H 	H 	0.81250 0.42750 0.10470 0.04200
C 	C 	0.91990 0.45828 0.19010 -0.00800
C 	C 	0.96210 0.40420 0.22120 -0.00900
H 	H 	0.93630 0.36820 0.20100 0.04200
C 	C 	0.95960 0.51128 0.22050 0.05000
C 	C 	0.93220 0.62712 0.44780 0.39900
C 	C 	0.93430 0.56222 0.45280 -0.29000
H 	H 	0.88780 0.54170 0.42710 0.13700
C 	C 	0.99830 0.53148 0.49150 0.13500
H 	H 	0.04450 0.55180 0.50920 -0.01200
C 	C 	0.89450 0.73194 0.21320 0.43700
C 	C 	0.82640 0.76086 0.13260 -0.26400
H 	H 	0.81290 0.79830 0.14900 0.13100
C 	C 	0.78370 0.73669 0.03900 0.04100
H 	H 	0.79820 0.69970 0.02230 0.02700
Cu	Cu	0.49585 0.23665 0.05696 0.90500
N 	N 	0.46740 0.32245 0.04490 -0.20700
N 	N 	0.40514 0.23287 0.91590 -0.21000
N 	N 	0.57436 0.06466 0.30450 -0.20300
O 	O 	0.51142 0.15206 0.06520 -0.44600
O 	O 	0.62055 0.15281 0.04070 -0.30900
O 	O 	0.57906 0.25379 0.19370 -0.44600
O 	O 	0.57967 0.18831 0.31850 -0.46800
C 	C 	0.50110 0.36635 0.11110 0.04500
H 	H 	0.54170 0.35800 0.17750 0.01700
C 	C 	0.47870 0.42430 0.08590 -0.07400
H 	H 	0.50330 0.45440 0.13530 0.05200
C 	C 	0.42130 0.43750 0.99010 -0.04400
H 	H 	0.40600 0.47670 0.97310 0.04100
C 	C 	0.38470 0.39270 0.91650 0.00600
C 	C 	0.32400 0.40030 0.81340 -0.04600
H 	H 	0.30580 0.43850 0.79110 0.04300
C 	C 	0.29210 0.35570 0.74740 -0.07000
H 	H 	0.25260 0.36310 0.67960 0.06900
C 	C 	0.31670 0.29620 0.77740 0.02400
C 	C 	0.28620 0.24610 0.71440 -0.04700
H 	H 	0.24680 0.25010 0.64530 0.05500
C 	C 	0.31330 0.19200 0.75270 -0.07100
H 	H 	0.29180 0.15830 0.71140 0.05200
C 	C 	0.37350 0.18690 0.85420 0.04200
H 	H 	0.39230 0.14920 0.87980 0.01600
C 	C 	0.37680 0.28700 0.87890 0.01500
C 	C 	0.41010 0.33507 0.94860 0.02000
C 	C 	0.64910 0.06625 0.36130 0.04400
H 	H 	0.67370 0.10280 0.37870 0.02000
C 	C 	0.69200 0.01510 0.39600 -0.07500
H 	H 	0.74480 0.01770 0.43680 0.05200
C 	C 	0.65850 0.96180 0.37140 -0.04400
H 	H 	0.68750 0.92750 0.39530 0.04800
C 	C 	0.58010 0.95828 0.30990 0.01600
C 	C 	0.53790 0.90420 0.27880 -0.05400
H 	H 	0.56370 0.86820 0.29900 0.05400
C 	C 	0.54040 0.01128 0.27950 0.02300
C 	C 	0.56780 0.12712 0.05220 0.38000
C 	C 	0.56570 0.06222 0.04720 -0.23900
H 	H 	0.61220 0.04170 0.07290 0.12000
C 	C 	0.50170 0.03148 0.00850 0.04200
H 	H 	0.45550 0.05180 0.99080 0.02500
C 	C 	0.60550 0.23194 0.28680 0.43800
C 	C 	0.67360 0.26086 0.36740 -0.26500
H 	H 	0.68710 0.29830 0.35100 0.13000
C 	C 	0.71630 0.23669 0.46100 0.04000
H 	H 	0.70180 0.19970 0.47770 0.02700
Cu	Cu	0.99585 0.73665 0.05696 0.91100
N 	N 	0.96740 0.82245 0.04490 -0.18900
N 	N 	0.90514 0.73287 0.91590 -0.21000
N 	N 	0.07436 0.56466 0.30450 -0.19900
O 	O 	0.01142 0.65206 0.06520 -0.44900
O 	O 	0.12055 0.65281 0.04070 -0.30500
O 	O 	0.07906 0.75379 0.19370 -0.45100
O 	O 	0.07967 0.68831 0.31850 -0.47100
C 	C 	0.00110 0.86635 0.11110 -0.01800
H 	H 	0.04170 0.85800 0.17750 0.03500
C 	C 	0.97870 0.92430 0.08590 0.00600
H 	H 	0.00330 0.95440 0.13530 0.01600
C 	C 	0.92130 0.93750 0.99010 -0.08900
H 	H 	0.90600 0.97670 0.97310 0.05900
C 	C 	0.88470 0.89270 0.91650 0.03100
C 	C 	0.82400 0.90030 0.81340 -0.06300
H 	H 	0.80580 0.93850 0.79110 0.04900
C 	C 	0.79210 0.85570 0.74740 -0.05800
H 	H 	0.75260 0.86310 0.67960 0.06500
C 	C 	0.81670 0.79620 0.77740 0.01800
C 	C 	0.78620 0.74610 0.71440 -0.04200
H 	H 	0.74680 0.75010 0.64530 0.05500
C 	C 	0.81330 0.69200 0.75270 -0.07300
H 	H 	0.79180 0.65830 0.71140 0.05300
C 	C 	0.87350 0.68690 0.85420 0.04500
H 	H 	0.89230 0.64920 0.87980 0.01600
C 	C 	0.87680 0.78700 0.87890 0.02200
C 	C 	0.91010 0.83507 0.94860 0.01200
C 	C 	0.14910 0.56625 0.36130 0.03800
H 	H 	0.17370 0.60280 0.37870 0.02200
C 	C 	0.19200 0.51510 0.39600 -0.06200
H 	H 	0.24480 0.51770 0.43680 0.04800
C 	C 	0.15850 0.46180 0.37140 -0.06000
H 	H 	0.18750 0.42750 0.39530 0.05400
C 	C 	0.08010 0.45828 0.30990 0.03900
C 	C 	0.03790 0.40420 0.27880 -0.09800
H 	H 	0.06370 0.36820 0.29900 0.06600
C 	C 	0.04040 0.51128 0.27950 -0.00200
C 	C 	0.06780 0.62712 0.05220 0.35800
C 	C 	0.06570 0.56222 0.04720 -0.18300
H 	H 	0.11220 0.54170 0.07290 0.10200
C 	C 	0.00170 0.53148 0.00850 -0.06000
H 	H 	0.95550 0.55180 0.99080 0.06700
C 	C 	0.10550 0.73194 0.28680 0.43900
C 	C 	0.17360 0.76086 0.36740 -0.26500
H 	H 	0.18710 0.79830 0.35100 0.13000
C 	C 	0.21630 0.73669 0.46100 0.04000
H 	H 	0.20180 0.69970 0.47770 0.02700
Cu	Cu	0.50000 0.86874 0.75000 0.91700
Cu	Cu	-0.00000 0.36874 0.75000 0.91100
Cu	Cu	0.50000 0.13126 0.25000 0.91700
Cu	Cu	0.00000 0.63126 0.25000 0.91200
