data_crystal

_cell_length_a 16.03710
_cell_length_b 16.03710
_cell_length_c 16.03710
_cell_angle_alpha 109.47100
_cell_angle_beta  109.47100
_cell_angle_gamma 109.47100

_symmetry_space_group_name_	'P 1'
_symmetry_space_group_name_H-M	'P 1'

loop_
_symmetry_equiv_pos_as_xyz
  x,y,z

loop_
_atom_site_label
_atom_site_type_symbol
_atom_site_fract_x
_atom_site_fract_y
_atom_site_fract_z
_atom_site_charge
Cd	Cd	0.37500 0.62500 0.75000 1.25300
Cd	Cd	0.12500 0.87500 0.25000 1.25200
Cd	Cd	0.75000 0.12500 0.37500 1.25200
Cd	Cd	0.25000 0.37500 0.12500 1.25200
Cd	Cd	0.62500 0.25000 0.87500 1.25200
Cd	Cd	0.87500 0.75000 0.62500 1.25200
Cd	Cd	0.16760 0.41760 0.75000 1.25800
Cd	Cd	0.33240 0.08240 0.25000 1.25800
Cd	Cd	0.75000 0.33240 0.58240 1.25800
Cd	Cd	0.25000 0.16760 0.91760 1.25800
Cd	Cd	0.41760 0.25000 0.66760 1.25800
Cd	Cd	0.08240 0.75000 0.83240 1.25800
Cd	Cd	0.91760 0.66760 0.25000 1.25800
Cd	Cd	0.58240 0.83240 0.75000 1.25800
Cd	Cd	0.66760 0.75000 0.41760 1.25800
Cd	Cd	0.83240 0.25000 0.08240 1.25800
Cd	Cd	0.25000 0.58240 0.33240 1.25800
Cd	Cd	0.75000 0.91760 0.16760 1.25800
C 	C 	0.34810 0.40530 0.71080 0.25300
C 	C 	0.44250 0.45620 0.70330 0.21600
C 	C 	0.19450 0.63730 0.78920 0.25300
C 	C 	0.25290 0.73920 0.79670 0.21600
C 	C 	0.30550 0.09470 0.44280 0.25300
C 	C 	0.24710 0.04380 0.48630 0.21600
C 	C 	0.15190 0.86270 0.05720 0.25300
C 	C 	0.05750 0.76080 0.01370 0.21600
C 	C 	0.94280 0.30550 0.59470 0.25200
C 	C 	0.98630 0.24710 0.54380 0.21500
C 	C 	0.55720 0.15190 0.36270 0.25300
C 	C 	0.51370 0.05750 0.26080 0.21600
C 	C 	0.21080 0.34810 0.90530 0.25300
C 	C 	0.20330 0.44250 0.95620 0.21500
C 	C 	0.28920 0.19450 0.13730 0.25300
C 	C 	0.29670 0.25290 0.23920 0.21600
C 	C 	0.63730 0.28920 0.69450 0.25300
C 	C 	0.73920 0.29670 0.75290 0.21600
C 	C 	0.40530 0.21080 0.84810 0.25300
C 	C 	0.45620 0.20330 0.94250 0.21600
C 	C 	0.86270 0.55720 0.65190 0.25300
C 	C 	0.76080 0.51370 0.55750 0.21600
C 	C 	0.09470 0.94280 0.80550 0.25300
C 	C 	0.04380 0.98630 0.74710 0.21500
C 	C 	0.13730 0.69450 0.28920 0.25300
C 	C 	0.23920 0.75290 0.29670 0.21600
C 	C 	0.90530 0.84810 0.21080 0.25300
C 	C 	0.95620 0.94250 0.20330 0.21600
C 	C 	0.36270 0.65190 0.55720 0.25300
C 	C 	0.26080 0.55750 0.51370 0.21600
C 	C 	0.59470 0.80550 0.94280 0.25300
C 	C 	0.54380 0.74710 0.98630 0.21500
C 	C 	0.84810 0.71080 0.40530 0.25300
C 	C 	0.94250 0.70330 0.45620 0.21600
C 	C 	0.69450 0.78920 0.63730 0.25300
C 	C 	0.75290 0.79670 0.73920 0.21600
C 	C 	0.80550 0.44280 0.09470 0.25300
C 	C 	0.74710 0.48630 0.04380 0.21600
C 	C 	0.65190 0.05720 0.86270 0.25200
C 	C 	0.55750 0.01370 0.76080 0.21500
C 	C 	0.44280 0.59470 0.30550 0.25300
C 	C 	0.48630 0.54380 0.24710 0.21600
C 	C 	0.05720 0.36270 0.15190 0.25300
C 	C 	0.01370 0.26080 0.05750 0.21600
C 	C 	0.71080 0.90530 0.34810 0.25300
C 	C 	0.70330 0.95620 0.44250 0.21600
C 	C 	0.78920 0.13730 0.19450 0.25300
C 	C 	0.79670 0.23920 0.25290 0.21600
O 	O 	0.30790 0.45850 0.73300 -0.44600
O 	O 	0.47110 0.54560 0.71910 -0.31000
O 	O 	0.48400 0.40410 0.68110 -0.31700
O 	O 	0.31520 0.31450 0.69150 -0.33800
O 	O 	0.22550 0.57490 0.76700 -0.44600
O 	O 	0.32650 0.75200 0.78090 -0.31000
O 	O 	0.22300 0.80290 0.81890 -0.31700
O 	O 	0.12300 0.62370 0.80850 -0.33800
O 	O 	0.27450 0.04150 0.34940 -0.44600
O 	O 	0.17350 0.95440 0.42550 -0.31000
O 	O 	0.27700 0.09590 0.57990 -0.31700
O 	O 	0.37700 0.18550 0.50070 -0.33800
O 	O 	0.19210 0.92510 0.15060 -0.44600
O 	O 	0.02890 0.74800 0.07450 -0.31000
O 	O 	0.01600 0.69710 0.92010 -0.31700
O 	O 	0.18480 0.87630 0.99930 -0.33800
O 	O 	0.84940 0.27450 0.54150 -0.44600
O 	O 	0.92550 0.17350 0.45440 -0.31000
O 	O 	0.07990 0.27700 0.59590 -0.31600
O 	O 	0.00070 0.37700 0.68550 -0.33800
O 	O 	0.65060 0.19210 0.42510 -0.44600
O 	O 	0.57450 0.02890 0.24800 -0.31000
O 	O 	0.42010 0.01600 0.19710 -0.31700
O 	O 	0.49930 0.18480 0.37630 -0.33800
O 	O 	0.23300 0.30790 0.95850 -0.44600
O 	O 	0.21910 0.47110 0.04560 -0.31000
O 	O 	0.18110 0.48400 0.90410 -0.31700
O 	O 	0.19150 0.31520 0.81450 -0.33800
O 	O 	0.26700 0.22550 0.07490 -0.44600
O 	O 	0.28090 0.32650 0.25200 -0.31000
O 	O 	0.31890 0.22300 0.30290 -0.31700
O 	O 	0.30850 0.12300 0.12370 -0.33800
O 	O 	0.57490 0.26700 0.72550 -0.44600
O 	O 	0.75200 0.28090 0.82650 -0.31000
O 	O 	0.80290 0.31890 0.72300 -0.31700
O 	O 	0.62370 0.30850 0.62300 -0.33800
O 	O 	0.45850 0.23300 0.80790 -0.44600
O 	O 	0.54560 0.21910 0.97110 -0.31000
O 	O 	0.40410 0.18110 0.98400 -0.31700
O 	O 	0.31450 0.19150 0.81520 -0.33800
O 	O 	0.92510 0.65060 0.69210 -0.44600
O 	O 	0.74800 0.57450 0.52890 -0.31000
O 	O 	0.69710 0.42010 0.51600 -0.31700
O 	O 	0.87630 0.49930 0.68480 -0.33900
O 	O 	0.04150 0.84940 0.77450 -0.44600
O 	O 	0.95440 0.92550 0.67350 -0.30900
O 	O 	0.09590 0.07990 0.77700 -0.31600
O 	O 	0.18550 0.00070 0.87700 -0.33900
O 	O 	0.07490 0.72550 0.26700 -0.44600
O 	O 	0.25200 0.82650 0.28090 -0.31000
O 	O 	0.30290 0.72300 0.31890 -0.31600
O 	O 	0.12370 0.62300 0.30850 -0.33800
O 	O 	0.95850 0.80790 0.23300 -0.44500
O 	O 	0.04560 0.97110 0.21910 -0.31000
O 	O 	0.90410 0.98400 0.18110 -0.31700
O 	O 	0.81450 0.81520 0.19150 -0.33800
O 	O 	0.42510 0.69210 0.65060 -0.44600
O 	O 	0.24800 0.52890 0.57450 -0.31000
O 	O 	0.19710 0.51600 0.42010 -0.31700
O 	O 	0.37630 0.68480 0.49930 -0.33800
O 	O 	0.54150 0.77450 0.84940 -0.44600
O 	O 	0.45440 0.67350 0.92550 -0.31000
O 	O 	0.59590 0.77700 0.07990 -0.31600
O 	O 	0.68550 0.87700 0.00070 -0.33800
O 	O 	0.80790 0.73300 0.45850 -0.44600
O 	O 	0.97110 0.71910 0.54560 -0.31000
O 	O 	0.98400 0.68110 0.40410 -0.31700
O 	O 	0.81520 0.69150 0.31450 -0.33800
O 	O 	0.72550 0.76700 0.57490 -0.44600
O 	O 	0.82650 0.78090 0.75200 -0.31000
O 	O 	0.72300 0.81890 0.80290 -0.31700
O 	O 	0.62300 0.80850 0.62370 -0.33800
O 	O 	0.77450 0.34940 0.04150 -0.44500
O 	O 	0.67350 0.42550 0.95440 -0.31000
O 	O 	0.77700 0.57990 0.09590 -0.31700
O 	O 	0.87700 0.50070 0.18550 -0.33800
O 	O 	0.69210 0.15060 0.92510 -0.44600
O 	O 	0.52890 0.07450 0.74800 -0.31000
O 	O 	0.51600 0.92010 0.69710 -0.31600
O 	O 	0.68480 0.99930 0.87630 -0.33800
O 	O 	0.34940 0.54150 0.27450 -0.44600
O 	O 	0.42550 0.45440 0.17350 -0.31000
O 	O 	0.57990 0.59590 0.27700 -0.31600
O 	O 	0.50070 0.68550 0.37700 -0.33800
O 	O 	0.15060 0.42510 0.19210 -0.44600
O 	O 	0.07450 0.24800 0.02890 -0.31000
O 	O 	0.92010 0.19710 0.01600 -0.31700
O 	O 	0.99930 0.37630 0.18480 -0.33900
O 	O 	0.73300 0.95850 0.30790 -0.44500
O 	O 	0.71910 0.04560 0.47110 -0.31000
O 	O 	0.68110 0.90410 0.48400 -0.31700
O 	O 	0.69150 0.81450 0.31520 -0.33800
O 	O 	0.76700 0.07490 0.22550 -0.44600
O 	O 	0.78090 0.25200 0.32650 -0.31000
O 	O 	0.81890 0.30290 0.22300 -0.31700
O 	O 	0.80850 0.12370 0.12300 -0.33900
