data_crystal

_cell_length_a 16.23870
_cell_length_b 9.37080
_cell_length_c 10.50070
_cell_angle_alpha 90.00000
_cell_angle_beta  93.89800
_cell_angle_gamma 90.00000

_symmetry_space_group_name_	'P 1'
_symmetry_space_group_name_H-M	'P 1'

loop_
_symmetry_equiv_pos_as_xyz
  x,y,z

loop_
_atom_site_label
_atom_site_type_symbol
_atom_site_fract_x
_atom_site_fract_y
_atom_site_fract_z
_atom_site_charge
Zn	Zn	0.04748 0.42901 0.83836 1.24300
Zn	Zn	0.41487 0.62609 0.86153 1.24600
P 	P 	0.93842 0.70717 0.88843 0.59400
P 	P 	0.24612 0.47725 0.88173 0.56500
P 	P 	0.46048 0.61325 0.15908 0.58400
O 	O 	0.84067 0.71930 0.86390 -0.48800
H 	H 	0.81830 0.67240 0.91780 0.31400
O 	O 	0.96141 0.56760 0.82980 -0.46600
O 	O 	0.97109 0.83680 0.82423 -0.42600
O 	O 	0.96088 0.71280 0.03032 -0.45300
O 	O 	0.15615 0.51400 0.86670 -0.44500
O 	O 	0.27016 0.39960 0.00590 -0.24900
O 	O 	0.26852 0.37440 0.76940 -0.44500
H 	H 	0.22650 0.33510 0.73920 0.31200
O 	O 	0.29864 0.60970 0.87070 -0.40900
O 	O 	0.42981 0.71320 0.25450 -0.42000
O 	O 	0.54253 0.54950 0.20740 -0.42000
O 	O 	0.46479 0.68180 0.02846 -0.44400
O 	O 	0.40062 0.48040 0.14660 -0.42200
H 	H 	0.42110 0.41850 0.10350 0.23000
Zn	Zn	0.95252 0.92901 0.66164 1.24200
Zn	Zn	0.58513 0.12609 0.63847 1.24700
P 	P 	0.06158 0.20717 0.61157 0.59500
P 	P 	0.75388 0.97725 0.61827 0.56100
P 	P 	0.53952 0.11325 0.34092 0.58300
O 	O 	0.15933 0.21930 0.63610 -0.48800
H 	H 	0.18170 0.17240 0.58220 0.31400
O 	O 	0.03859 0.06760 0.67020 -0.46700
O 	O 	0.02891 0.33680 0.67577 -0.42500
O 	O 	0.03912 0.21280 0.46968 -0.45400
O 	O 	0.84385 0.01400 0.63330 -0.44100
O 	O 	0.72984 0.89960 0.49410 -0.24800
O 	O 	0.73148 0.87440 0.73060 -0.44500
H 	H 	0.77350 0.83510 0.76080 0.31100
O 	O 	0.70136 0.10970 0.62930 -0.40700
O 	O 	0.57019 0.21320 0.24550 -0.42100
O 	O 	0.45747 0.04950 0.29260 -0.42100
O 	O 	0.53521 0.18180 0.47154 -0.44500
O 	O 	0.59938 0.98040 0.35340 -0.42200
H 	H 	0.57890 0.91850 0.39650 0.23000
Zn	Zn	0.95252 0.57099 0.16164 1.24300
Zn	Zn	0.58513 0.37391 0.13847 1.24600
P 	P 	0.06158 0.29283 0.11157 0.59400
P 	P 	0.75388 0.52275 0.11827 0.56500
P 	P 	0.53952 0.38675 0.84092 0.58400
O 	O 	0.15933 0.28070 0.13610 -0.48800
H 	H 	0.18170 0.32760 0.08220 0.31400
O 	O 	0.03859 0.43240 0.17020 -0.46600
O 	O 	0.02891 0.16320 0.17577 -0.42600
O 	O 	0.03912 0.28720 0.96968 -0.45300
O 	O 	0.84385 0.48600 0.13330 -0.44500
O 	O 	0.72984 0.60040 0.99410 -0.24900
O 	O 	0.73148 0.62560 0.23060 -0.44500
H 	H 	0.77350 0.66490 0.26080 0.31200
O 	O 	0.70136 0.39030 0.12930 -0.40900
O 	O 	0.57019 0.28680 0.74550 -0.42000
O 	O 	0.45747 0.45050 0.79260 -0.42000
O 	O 	0.53521 0.31820 0.97154 -0.44400
O 	O 	0.59938 0.51960 0.85340 -0.42200
H 	H 	0.57890 0.58150 0.89650 0.23000
Zn	Zn	0.04748 0.07099 0.33836 1.24200
Zn	Zn	0.41487 0.87391 0.36153 1.24700
P 	P 	0.93842 0.79283 0.38843 0.59500
P 	P 	0.24612 0.02275 0.38173 0.56100
P 	P 	0.46048 0.88675 0.65908 0.58300
O 	O 	0.84067 0.78070 0.36390 -0.48800
H 	H 	0.81830 0.82760 0.41780 0.31400
O 	O 	0.96141 0.93240 0.32980 -0.46700
O 	O 	0.97109 0.66320 0.32423 -0.42500
O 	O 	0.96088 0.78720 0.53032 -0.45400
O 	O 	0.15615 0.98600 0.36670 -0.44100
O 	O 	0.27016 0.10040 0.50590 -0.24800
O 	O 	0.26852 0.12560 0.26940 -0.44500
H 	H 	0.22650 0.16490 0.23920 0.31100
O 	O 	0.29864 0.89030 0.37070 -0.40700
O 	O 	0.42981 0.78680 0.75450 -0.42100
O 	O 	0.54253 0.95050 0.70740 -0.42100
O 	O 	0.46479 0.81820 0.52846 -0.44500
O 	O 	0.40062 0.01960 0.64660 -0.42200
H 	H 	0.42110 0.08150 0.60350 0.23000
