data_crystal

_cell_length_a 9.74120
_cell_length_b 13.09550
_cell_length_c 15.69220
_cell_angle_alpha 90.00000
_cell_angle_beta  95.09200
_cell_angle_gamma 90.00000

_symmetry_space_group_name_	'P 1'
_symmetry_space_group_name_H-M	'P 1'

loop_
_symmetry_equiv_pos_as_xyz
  x,y,z

loop_
_atom_site_label
_atom_site_type_symbol
_atom_site_fract_x
_atom_site_fract_y
_atom_site_fract_z
_atom_site_charge
Zn	Zn	0.28845 0.13752 0.25016 1.23600
Zn	Zn	0.81071 0.02908 0.43410 1.23700
Zn	Zn	0.59700 0.86856 0.09005 1.23200
P 	P 	0.35934 0.03917 0.08559 0.43300
H 	H 	0.46020 0.11300 0.11380 -0.06800
P 	P 	0.10195 0.11297 0.40618 0.43500
H 	H 	0.17070 0.19630 0.45550 -0.03900
P 	P 	0.49734 0.12727 0.40727 0.51000
H 	H 	0.43670 0.06050 0.44530 -0.07900
P 	P 	0.69707 0.87913 0.28634 0.46400
H 	H 	0.56230 0.90720 0.31150 -0.03900
O 	O 	0.25350 0.05070 0.15029 -0.40100
O 	O 	0.46070 0.10670 0.31400 -0.47900
O 	O 	0.69410 0.76720 0.30460 -0.46300
O 	O 	0.13040 0.11830 0.31320 -0.43200
O 	O 	0.95030 0.13240 0.41590 -0.41400
O 	O 	0.64870 0.11310 0.43073 -0.44200
O 	O 	0.15370 0.01420 0.44791 -0.46200
O 	O 	0.80900 0.93420 0.34168 -0.43500
O 	O 	0.70720 0.90250 0.19354 -0.45600
O 	O 	0.29980 0.07040 0.99708 -0.41400
O 	O 	0.44670 0.22850 0.43570 -0.48200
O 	O 	0.41780 0.93290 0.08640 -0.43800
Zn	Zn	0.71155 0.63752 0.24984 1.23500
Zn	Zn	0.18929 0.52908 0.06590 1.23700
Zn	Zn	0.40300 0.36856 0.40995 1.23200
P 	P 	0.64066 0.53917 0.41441 0.43700
H 	H 	0.53980 0.61300 0.38620 -0.06800
P 	P 	0.89805 0.61297 0.09382 0.43500
H 	H 	0.82930 0.69630 0.04450 -0.03900
P 	P 	0.50266 0.62727 0.09273 0.51000
H 	H 	0.56330 0.56050 0.05470 -0.07900
P 	P 	0.30293 0.37913 0.21366 0.46400
H 	H 	0.43770 0.40720 0.18850 -0.04000
O 	O 	0.74650 0.55070 0.34971 -0.40100
O 	O 	0.53930 0.60670 0.18600 -0.47800
O 	O 	0.30590 0.26720 0.19540 -0.46300
O 	O 	0.86960 0.61830 0.18680 -0.43200
O 	O 	0.04970 0.63240 0.08410 -0.41400
O 	O 	0.35130 0.61310 0.06927 -0.44200
O 	O 	0.84630 0.51420 0.05209 -0.46300
O 	O 	0.19100 0.43420 0.15832 -0.43700
O 	O 	0.29280 0.40250 0.30646 -0.45700
O 	O 	0.70020 0.57040 0.50292 -0.41800
O 	O 	0.55330 0.72850 0.06430 -0.48200
O 	O 	0.58220 0.43290 0.41360 -0.44000
Zn	Zn	0.71155 0.86248 0.74984 1.23500
Zn	Zn	0.18929 0.97092 0.56590 1.23600
Zn	Zn	0.40300 0.13144 0.90995 1.23200
P 	P 	0.64066 0.96083 0.91441 0.43300
H 	H 	0.53980 0.88700 0.88620 -0.06800
P 	P 	0.89805 0.88703 0.59382 0.43500
H 	H 	0.82930 0.80370 0.54450 -0.03900
P 	P 	0.50266 0.87273 0.59273 0.51000
H 	H 	0.56330 0.93950 0.55470 -0.07900
P 	P 	0.30293 0.12087 0.71366 0.46400
H 	H 	0.43770 0.09280 0.68850 -0.03900
O 	O 	0.74650 0.94930 0.84971 -0.40100
O 	O 	0.53930 0.89330 0.68600 -0.47900
O 	O 	0.30590 0.23280 0.69540 -0.46300
O 	O 	0.86960 0.88170 0.68680 -0.43200
O 	O 	0.04970 0.86760 0.58410 -0.41400
O 	O 	0.35130 0.88690 0.56927 -0.44200
O 	O 	0.84630 0.98580 0.55209 -0.46200
O 	O 	0.19100 0.06580 0.65832 -0.43500
O 	O 	0.29280 0.09750 0.80646 -0.45600
O 	O 	0.70020 0.92960 0.00292 -0.41400
O 	O 	0.55330 0.77150 0.56430 -0.48200
O 	O 	0.58220 0.06710 0.91360 -0.43800
Zn	Zn	0.28845 0.36248 0.75016 1.23500
Zn	Zn	0.81071 0.47092 0.93410 1.23700
Zn	Zn	0.59700 0.63144 0.59005 1.23200
P 	P 	0.35934 0.46083 0.58559 0.43700
H 	H 	0.46020 0.38700 0.61380 -0.06800
P 	P 	0.10195 0.38703 0.90618 0.43500
H 	H 	0.17070 0.30370 0.95550 -0.03900
P 	P 	0.49734 0.37273 0.90727 0.51000
H 	H 	0.43670 0.43950 0.94530 -0.07900
P 	P 	0.69707 0.62087 0.78634 0.46400
H 	H 	0.56230 0.59280 0.81150 -0.04000
O 	O 	0.25350 0.44930 0.65029 -0.40100
O 	O 	0.46070 0.39330 0.81400 -0.47800
O 	O 	0.69410 0.73280 0.80460 -0.46300
O 	O 	0.13040 0.38170 0.81320 -0.43200
O 	O 	0.95030 0.36760 0.91590 -0.41400
O 	O 	0.64870 0.38690 0.93073 -0.44200
O 	O 	0.15370 0.48580 0.94791 -0.46300
O 	O 	0.80900 0.56580 0.84168 -0.43700
O 	O 	0.70720 0.59750 0.69354 -0.45700
O 	O 	0.29980 0.42960 0.49708 -0.41800
O 	O 	0.44670 0.27150 0.93570 -0.48200
O 	O 	0.41780 0.56710 0.58640 -0.44000
