data_crystal

_cell_length_a 8.17200
_cell_length_b 14.19690
_cell_length_c 14.19690
_cell_angle_alpha 110.24100
_cell_angle_beta  91.04760
_cell_angle_gamma 88.95240

_symmetry_space_group_name_	'P 1'
_symmetry_space_group_name_H-M	'P 1'

loop_
_symmetry_equiv_pos_as_xyz
  x,y,z

loop_
_atom_site_label
_atom_site_type_symbol
_atom_site_fract_x
_atom_site_fract_y
_atom_site_fract_z
_atom_site_charge
Ce	Ce	0.39888 0.91447 0.05243 2.08600
Ce	Ce	0.89888 0.94757 0.08553 2.06900
H 	H 	0.90260 0.29930 0.86690 0.11700
H 	H 	0.97250 0.10490 0.58530 0.11100
H 	H 	0.12290 0.39140 0.66040 0.10000
H 	H 	0.94070 0.65000 0.04720 -0.13000
H 	H 	0.87450 0.47180 0.96200 0.10400
H 	H 	0.61780 0.91220 0.70020 0.11600
H 	H 	0.77020 0.00850 0.61670 -0.01300
H 	H 	0.35080 0.26600 0.34120 0.03100
H 	H 	0.27070 0.34410 0.51750 0.04500
H 	H 	0.40260 0.13310 0.70070 0.09500
H 	H 	0.47250 0.41470 0.89510 0.08800
H 	H 	0.62290 0.33960 0.60860 0.07200
H 	H 	0.44070 0.95280 0.35000 -0.12700
H 	H 	0.37450 0.03800 0.52820 0.10400
H 	H 	0.11780 0.29980 0.08780 0.12000
H 	H 	0.27020 0.38330 0.99150 0.00300
H 	H 	0.85080 0.65880 0.73400 0.01700
H 	H 	0.77070 0.48250 0.65590 0.04200
C 	C 	0.01740 0.36180 0.77620 0.15300
C 	C 	0.94120 0.28570 0.80070 -0.24700
C 	C 	0.92120 0.18990 0.72870 0.17900
C 	C 	0.98240 0.17060 0.63340 -0.27000
C 	C 	0.05780 0.24380 0.60580 0.18300
C 	C 	0.07330 0.34000 0.67820 -0.19200
C 	C 	0.03360 0.46420 0.85120 0.04600
C 	C 	0.10170 0.64130 0.93570 -0.15100
C 	C 	0.98870 0.60880 0.98600 0.19100
C 	C 	0.95070 0.50690 0.93710 -0.21400
C 	C 	0.17360 0.74450 0.96390 0.47800
C 	C 	0.83480 0.11270 0.75430 -0.11200
C 	C 	0.68690 0.01310 0.83950 0.10500
C 	C 	0.67640 0.97150 0.73530 -0.28400
C 	C 	0.76260 0.02750 0.68750 0.15000
C 	C 	0.60980 0.97760 0.91200 0.20900
C 	C 	0.12710 0.22290 0.50450 -0.05100
C 	C 	0.20470 0.14580 0.32840 -0.11900
C 	C 	0.27770 0.23650 0.37390 0.02600
C 	C 	0.23240 0.28080 0.47460 -0.04700
C 	C 	0.24110 0.07490 0.22630 0.42800
C 	C 	0.51740 0.22380 0.63820 0.07000
C 	C 	0.44120 0.19930 0.71430 -0.14300
C 	C 	0.42120 0.27130 0.81010 0.11900
C 	C 	0.48240 0.36660 0.82940 -0.15800
C 	C 	0.55780 0.39420 0.75620 0.08500
C 	C 	0.57330 0.32180 0.66000 -0.13400
C 	C 	0.53360 0.14880 0.53580 0.02000
C 	C 	0.60170 0.06430 0.35870 -0.21100
C 	C 	0.48870 0.01400 0.39120 0.24000
C 	C 	0.45070 0.06290 0.49310 -0.17800
C 	C 	0.67360 0.03610 0.25550 0.48900
C 	C 	0.33480 0.24570 0.88730 -0.08100
C 	C 	0.18690 0.16050 0.98690 0.09300
C 	C 	0.17640 0.26470 0.02850 -0.25900
C 	C 	0.26260 0.31250 0.97250 0.13400
C 	C 	0.10980 0.08800 0.02240 0.25800
C 	C 	0.62710 0.49550 0.77710 -0.02400
C 	C 	0.70470 0.67160 0.85420 -0.12900
C 	C 	0.77770 0.62610 0.76350 0.03000
C 	C 	0.73240 0.52540 0.71920 -0.07400
C 	C 	0.74110 0.77370 0.92510 0.43800
S 	S 	0.16620 0.54799 0.82973 0.04600
S 	S 	0.80310 0.12046 0.87600 0.03400
S 	S 	0.08030 0.11470 0.40704 0.07900
S 	S 	0.66620 0.17027 0.45201 0.03000
S 	S 	0.30310 0.12400 0.87954 0.05600
S 	S 	0.58030 0.59296 0.88530 0.04700
O 	O 	0.11040 0.81460 0.03640 -0.69700
O 	O 	0.29580 0.75860 0.91820 -0.45300
O 	O 	0.49540 0.91580 0.88480 -0.38900
O 	O 	0.65820 0.01170 0.00530 -0.50100
O 	O 	0.34940 0.09480 0.17400 -0.43500
O 	O 	0.16390 0.99090 0.19270 -0.64900
O 	O 	0.61040 0.96360 0.18540 -0.72600
O 	O 	0.79580 0.08180 0.24140 -0.47500
O 	O 	0.99540 0.11520 0.08420 -0.44300
O 	O 	0.15820 0.99470 0.98830 -0.48800
O 	O 	0.84940 0.82600 0.90520 -0.45400
O 	O 	0.66390 0.80730 0.00910 -0.67800
