data_crystal

_cell_length_a 7.05600
_cell_length_b 15.01170
_cell_length_c 23.07760
_cell_angle_alpha 90.00000
_cell_angle_beta  90.00000
_cell_angle_gamma 93.41500

_symmetry_space_group_name_	'P 1'
_symmetry_space_group_name_H-M	'P 1'

loop_
_symmetry_equiv_pos_as_xyz
  x,y,z

loop_
_atom_site_label
_atom_site_type_symbol
_atom_site_fract_x
_atom_site_fract_y
_atom_site_fract_z
_atom_site_charge
Rb	Rb	0.71287 0.99319 0.43348 0.68900
Rb	Rb	0.61141 0.78335 0.04085 0.69500
Rb	Rb	0.99856 0.39292 0.12790 0.69400
Rb	Rb	0.78713 0.00681 0.93348 0.68900
Rb	Rb	0.88859 0.21665 0.54085 0.69500
Rb	Rb	0.50144 0.60708 0.62790 0.69400
Rb	Rb	0.28713 0.00681 0.56652 0.68900
Rb	Rb	0.38859 0.21665 0.95915 0.69500
Rb	Rb	0.00144 0.60708 0.87210 0.69300
Rb	Rb	0.21287 0.99319 0.06652 0.68800
Rb	Rb	0.11141 0.78335 0.45915 0.69400
Rb	Rb	0.49856 0.39292 0.37210 0.69300
H 	H 	0.81000 0.15000 0.35500 0.20400
H 	H 	0.64100 0.61700 0.14200 0.38600
H 	H 	0.49240 0.85120 0.28280 -0.02900
H 	H 	0.73840 0.21560 0.15440 -0.00900
H 	H 	0.66140 0.60810 0.33340 -0.02200
H 	H 	0.99700 0.79500 0.95700 0.24300
H 	H 	0.97100 0.72600 0.99600 0.23500
H 	H 	0.60800 0.40000 0.12400 0.20800
H 	H 	0.47400 0.32900 0.12600 0.23500
H 	H 	0.75100 0.42400 0.25700 0.27200
H 	H 	0.76770 0.96060 0.27030 0.12900
H 	H 	0.51600 0.80950 0.18650 0.16100
H 	H 	0.74300 0.94710 0.16930 -0.01100
H 	H 	0.69000 0.85000 0.85500 0.20400
H 	H 	0.85900 0.38300 0.64200 0.38600
H 	H 	0.00760 0.14880 0.78280 -0.02900
H 	H 	0.76160 0.78440 0.65440 -0.00800
H 	H 	0.83860 0.39190 0.83340 -0.02200
H 	H 	0.50300 0.20500 0.45700 0.24200
H 	H 	0.52900 0.27400 0.49600 0.23400
H 	H 	0.89200 0.60000 0.62400 0.20800
H 	H 	0.02600 0.67100 0.62600 0.23200
H 	H 	0.74900 0.57600 0.75700 0.27200
H 	H 	0.73230 0.03940 0.77030 0.12600
H 	H 	0.98400 0.19050 0.68650 0.16100
H 	H 	0.75700 0.05290 0.66930 -0.01200
H 	H 	0.19000 0.85000 0.64500 0.20400
H 	H 	0.35900 0.38300 0.85800 0.38600
H 	H 	0.50760 0.14880 0.71720 -0.02900
H 	H 	0.26160 0.78440 0.84560 -0.00900
H 	H 	0.33860 0.39190 0.66660 -0.02200
H 	H 	0.00300 0.20500 0.04300 0.24300
H 	H 	0.02900 0.27400 0.00400 0.23500
H 	H 	0.39200 0.60000 0.87600 0.20800
H 	H 	0.52600 0.67100 0.87400 0.23500
H 	H 	0.24900 0.57600 0.74300 0.27200
H 	H 	0.23230 0.03940 0.72970 0.12900
H 	H 	0.48400 0.19050 0.81350 0.16100
H 	H 	0.25700 0.05290 0.83070 -0.01100
H 	H 	0.31000 0.15000 0.14500 0.20400
H 	H 	0.14100 0.61700 0.35800 0.38600
H 	H 	0.99240 0.85120 0.21720 -0.02900
H 	H 	0.23840 0.21560 0.34560 -0.00800
H 	H 	0.16140 0.60810 0.16660 -0.02200
H 	H 	0.49700 0.79500 0.54300 0.24200
H 	H 	0.47100 0.72600 0.50400 0.23400
H 	H 	0.10800 0.40000 0.37600 0.20800
H 	H 	0.97400 0.32900 0.37400 0.23200
H 	H 	0.25100 0.42400 0.24300 0.27200
H 	H 	0.26770 0.96060 0.22970 0.12600
H 	H 	0.01600 0.80950 0.31350 0.16100
H 	H 	0.24300 0.94710 0.33070 -0.01200
C 	C 	0.76260 0.17400 0.23840 -0.25100
C 	C 	0.64310 0.62300 0.24510 -0.32900
C 	C 	0.76360 0.09640 0.27190 0.33000
C 	C 	0.60130 0.68440 0.20230 0.42600
C 	C 	0.75980 0.01220 0.24680 -0.27800
C 	C 	0.54550 0.76890 0.21640 -0.34000
C 	C 	0.74430 0.00440 0.18680 0.15000
C 	C 	0.53310 0.79380 0.27320 0.19100
C 	C 	0.73070 0.07910 0.15240 -0.19800
C 	C 	0.58090 0.73420 0.31810 -0.21500
C 	C 	0.74320 0.16410 0.17810 0.14800
C 	C 	0.63280 0.64900 0.30360 0.19900
C 	C 	0.77410 0.26400 0.26500 0.39300
C 	C 	0.70010 0.53320 0.23040 0.46200
C 	C 	0.73740 0.82600 0.73840 -0.24900
C 	C 	0.85690 0.37700 0.74510 -0.32800
C 	C 	0.73640 0.90360 0.77190 0.32900
C 	C 	0.89870 0.31560 0.70230 0.42600
C 	C 	0.74020 0.98780 0.74680 -0.27400
C 	C 	0.95450 0.23110 0.71640 -0.34000
C 	C 	0.75570 0.99560 0.68680 0.15000
C 	C 	0.96690 0.20620 0.77320 0.19100
C 	C 	0.76930 0.92090 0.65240 -0.19700
C 	C 	0.91910 0.26580 0.81810 -0.21500
C 	C 	0.75680 0.83590 0.67810 0.14800
C 	C 	0.86720 0.35100 0.80360 0.19900
C 	C 	0.72590 0.73600 0.76500 0.39300
C 	C 	0.79990 0.46680 0.73040 0.46300
C 	C 	0.23740 0.82600 0.76160 -0.25100
C 	C 	0.35690 0.37700 0.75490 -0.32900
C 	C 	0.23640 0.90360 0.72810 0.33000
C 	C 	0.39870 0.31560 0.79770 0.42600
C 	C 	0.24020 0.98780 0.75320 -0.27800
C 	C 	0.45450 0.23110 0.78360 -0.34000
C 	C 	0.25570 0.99560 0.81320 0.15000
C 	C 	0.46690 0.20620 0.72680 0.19100
C 	C 	0.26930 0.92090 0.84760 -0.19800
C 	C 	0.41910 0.26580 0.68190 -0.21500
C 	C 	0.25680 0.83590 0.82190 0.14800
C 	C 	0.36720 0.35100 0.69640 0.19900
C 	C 	0.22590 0.73600 0.73500 0.39300
C 	C 	0.29990 0.46680 0.76960 0.46200
C 	C 	0.26260 0.17400 0.26160 -0.24900
C 	C 	0.14310 0.62300 0.25490 -0.32800
C 	C 	0.26360 0.09640 0.22810 0.32900
C 	C 	0.10130 0.68440 0.29770 0.42600
C 	C 	0.25980 0.01220 0.25320 -0.27400
C 	C 	0.04550 0.76890 0.28360 -0.34000
C 	C 	0.24430 0.00440 0.31320 0.15000
C 	C 	0.03310 0.79380 0.22680 0.19100
C 	C 	0.23070 0.07910 0.34760 -0.19700
C 	C 	0.08090 0.73420 0.18190 -0.21500
C 	C 	0.24320 0.16410 0.32190 0.14800
C 	C 	0.13280 0.64900 0.19640 0.19900
C 	C 	0.27410 0.26400 0.23500 0.39300
C 	C 	0.20010 0.53320 0.26960 0.46300
S 	S 	0.69540 0.07060 0.07747 0.53400
S 	S 	0.58540 0.77316 0.38925 0.53900
S 	S 	0.80460 0.92940 0.57747 0.53300
S 	S 	0.91460 0.22684 0.88925 0.53800
S 	S 	0.30460 0.92940 0.92253 0.53400
S 	S 	0.41460 0.22684 0.61075 0.53900
S 	S 	0.19540 0.07060 0.42253 0.53300
S 	S 	0.08540 0.77316 0.11075 0.53800
O 	O 	0.93880 0.73960 0.95970 -0.56800
O 	O 	0.77080 0.10100 0.33110 -0.40900
O 	O 	0.61130 0.66440 0.14490 -0.62700
O 	O 	0.56340 0.35380 0.10160 -0.50000
O 	O 	0.62590 0.97930 0.06630 -0.38700
O 	O 	0.44400 0.83890 0.39380 -0.35700
O 	O 	0.55950 0.13550 0.06200 -0.35700
O 	O 	0.77640 0.81280 0.39930 -0.36700
O 	O 	0.88120 0.09040 0.05030 -0.38900
O 	O 	0.54070 0.69500 0.42560 -0.32800
O 	O 	0.78750 0.33060 0.23140 -0.35100
O 	O 	0.72860 0.47850 0.27190 -0.49400
O 	O 	0.76840 0.27000 0.31940 -0.33100
O 	O 	0.71770 0.51190 0.17760 -0.37800
O 	O 	0.56120 0.26040 0.45970 -0.56900
O 	O 	0.72920 0.89900 0.83110 -0.40700
O 	O 	0.88870 0.33560 0.64490 -0.62700
O 	O 	0.93660 0.64620 0.60160 -0.49700
O 	O 	0.87410 0.02070 0.56630 -0.38700
O 	O 	0.05600 0.16110 0.89380 -0.35700
O 	O 	0.94050 0.86450 0.56200 -0.35600
O 	O 	0.72360 0.18720 0.89930 -0.36700
O 	O 	0.61880 0.90960 0.55030 -0.38900
O 	O 	0.95930 0.30500 0.92560 -0.32800
O 	O 	0.71250 0.66940 0.73140 -0.35100
O 	O 	0.77140 0.52150 0.77190 -0.49300
O 	O 	0.73160 0.73000 0.81940 -0.33000
O 	O 	0.78230 0.48810 0.67760 -0.37700
O 	O 	0.06120 0.26040 0.04030 -0.56800
O 	O 	0.22920 0.89900 0.66890 -0.40900
O 	O 	0.38870 0.33560 0.85510 -0.62700
O 	O 	0.43660 0.64620 0.89840 -0.50000
O 	O 	0.37410 0.02070 0.93370 -0.38700
O 	O 	0.55600 0.16110 0.60620 -0.35700
O 	O 	0.44050 0.86450 0.93800 -0.35700
O 	O 	0.22360 0.18720 0.60070 -0.36700
O 	O 	0.11880 0.90960 0.94970 -0.38900
O 	O 	0.45930 0.30500 0.57440 -0.32800
O 	O 	0.21250 0.66940 0.76860 -0.35100
O 	O 	0.27140 0.52150 0.72810 -0.49400
O 	O 	0.23160 0.73000 0.68060 -0.33100
O 	O 	0.28230 0.48810 0.82240 -0.37800
O 	O 	0.43880 0.73960 0.54030 -0.56900
O 	O 	0.27080 0.10100 0.16890 -0.40700
O 	O 	0.11130 0.66440 0.35510 -0.62700
O 	O 	0.06340 0.35380 0.39840 -0.49700
O 	O 	0.12590 0.97930 0.43370 -0.38700
O 	O 	0.94400 0.83890 0.10620 -0.35700
O 	O 	0.05950 0.13550 0.43800 -0.35600
O 	O 	0.27640 0.81280 0.10070 -0.36700
O 	O 	0.38120 0.09040 0.44970 -0.38900
O 	O 	0.04070 0.69500 0.07440 -0.32800
O 	O 	0.28750 0.33060 0.26860 -0.35100
O 	O 	0.22860 0.47850 0.22810 -0.49300
O 	O 	0.26840 0.27000 0.18060 -0.33000
O 	O 	0.21770 0.51190 0.32240 -0.37700
