data_crystal

_cell_length_a 12.40090
_cell_length_b 12.59580
_cell_length_c 14.55770
_cell_angle_alpha 77.83100
_cell_angle_beta  82.59700
_cell_angle_gamma 72.81800

_symmetry_space_group_name_	'P 1'
_symmetry_space_group_name_H-M	'P 1'

loop_
_symmetry_equiv_pos_as_xyz
  x,y,z

loop_
_atom_site_label
_atom_site_type_symbol
_atom_site_fract_x
_atom_site_fract_y
_atom_site_fract_z
_atom_site_charge
Cd	Cd	0.92057 0.30349 0.42380 1.24400
K 	K 	0.86897 0.50600 0.62236 0.66100
O 	O 	0.89210 0.29880 0.58343 -0.44700
O 	O 	0.85690 0.15420 0.54350 -0.47500
O 	O 	0.09960 0.13330 0.46300 -0.51600
O 	O 	0.10350 0.28990 0.36340 -0.49500
O 	O 	0.75250 0.03500 0.98200 -0.17000
O 	O 	0.87670 0.22730 0.31500 -0.43900
O 	O 	0.93850 0.04050 0.35850 -0.43100
O 	O 	0.60670 0.99930 0.28770 -0.27700
O 	O 	0.91350 0.50160 0.42180 -0.43700
O 	O 	0.77960 0.46170 0.36430 -0.40400
C 	C 	0.86230 0.20880 0.60640 0.39200
C 	C 	0.82780 0.17100 0.70650 -0.23900
C 	C 	0.77410 0.08690 0.73090 0.19400
H 	H 	0.75810 0.05400 0.68300 -0.03200
C 	C 	0.74320 0.04990 0.82310 -0.30500
H 	H 	0.70720 0.99090 0.83920 0.15900
C 	C 	0.76510 0.09970 0.89340 0.31000
C 	C 	0.82170 0.18130 0.87030 -0.30100
H 	H 	0.84130 0.21200 0.91800 0.13900
C 	C 	0.84970 0.21850 0.77620 0.20000
H 	H 	0.88480 0.27810 0.75960 -0.04000
C 	C 	0.77310 0.08000 0.05940 0.23500
C 	C 	0.72510 0.17700 0.09220 -0.23300
H 	H 	0.66400 0.23280 0.06190 0.10900
C 	C 	0.76590 0.19480 0.17070 0.12100
H 	H 	0.73390 0.26390 0.19300 -0.00700
C 	C 	0.85220 0.11290 0.21610 -0.15700
C 	C 	0.89740 0.01530 0.18230 0.05200
H 	H 	0.95650 0.95740 0.21330 0.05800
C 	C 	0.85720 0.99990 0.10180 -0.15700
H 	H 	0.89000 0.93220 0.07750 0.11700
C 	C 	0.89280 0.12830 0.30360 0.41400
C 	C 	0.15090 0.19000 0.40140 0.39800
C 	C 	0.27210 0.13990 0.37320 -0.20300
C 	C 	0.33390 0.04020 0.42510 0.09800
H 	H 	0.29890 0.00500 0.48020 -0.00700
C 	C 	0.44550 0.99090 0.39830 -0.19700
H 	H 	0.48730 0.92290 0.43500 0.10200
C 	C 	0.49490 0.04140 0.31800 0.22200
C 	C 	0.43580 0.14190 0.26560 -0.23700
H 	H 	0.47120 0.17700 0.21060 0.11300
C 	C 	0.32480 0.19080 0.29400 0.12900
H 	H 	0.28410 0.26040 0.25870 -0.02200
C 	C 	0.65820 0.88280 0.31160 0.30100
C 	C 	0.61080 0.80600 0.29020 -0.28200
H 	H 	0.54090 0.83080 0.26160 0.13400
C 	C 	0.66630 0.69210 0.31090 0.16200
H 	H 	0.63460 0.63840 0.29580 -0.01700
C 	C 	0.76790 0.65560 0.35380 -0.21000
C 	C 	0.81320 0.73480 0.37360 0.16500
H 	H 	0.88300 0.71080 0.40250 -0.01700
C 	C 	0.75860 0.84940 0.35210 -0.28000
H 	H 	0.79090 0.90370 0.36540 0.15400
C 	C 	0.82370 0.53170 0.38070 0.36800
O 	O 	0.66650 0.58910 0.58480 -0.30500
N 	N 	0.47910 0.66250 0.60870 -0.08200
C 	C 	0.57460 0.66570 0.56950 0.18300
H 	H 	0.57840 0.73130 0.52430 -0.02100
C 	C 	0.46470 0.59260 0.70370 -0.31200
H 	H 	0.53830 0.54190 0.72220 0.12000
H 	H 	0.41300 0.54770 0.70120 0.13100
H 	H 	0.43330 0.64220 0.74980 0.11100
C 	C 	0.38230 0.73500 0.56410 -0.00800
H 	H 	0.36570 0.81030 0.58100 0.02800
H 	H 	0.31750 0.70460 0.58490 -0.01100
H 	H 	0.39680 0.74200 0.49570 0.08600
O 	O 	0.70820 0.07890 0.98560 -0.13400
O 	O 	0.64300 0.56100 0.61930 -0.01500
N 	N 	0.47980 0.64310 0.54370 -0.06700
C 	C 	0.58160 0.58650 0.54840 0.05100
H 	H 	0.61790 0.55910 0.49300 0.03200
C 	C 	0.40000 0.72300 0.60270 -0.11700
H 	H 	0.36580 0.79470 0.56190 0.01800
H 	H 	0.44130 0.73630 0.64980 0.09200
H 	H 	0.33970 0.68920 0.63450 0.08100
C 	C 	0.41250 0.65490 0.46940 -0.36300
H 	H 	0.42720 0.71390 0.41770 0.11900
H 	H 	0.33240 0.67600 0.49180 0.11600
H 	H 	0.43100 0.58310 0.44690 0.14200
Cd	Cd	0.07943 0.69651 0.57620 1.21800
K 	K 	0.13103 0.49400 0.37764 0.64600
O 	O 	0.10790 0.70120 0.41657 -0.48100
O 	O 	0.14310 0.84580 0.45650 -0.49200
O 	O 	0.90040 0.86670 0.53700 -0.46200
O 	O 	0.89650 0.71010 0.63660 -0.44400
O 	O 	0.24750 0.96500 0.01800 -0.17500
O 	O 	0.12330 0.77270 0.68500 -0.48000
O 	O 	0.06150 0.95950 0.64150 -0.47500
O 	O 	0.39330 0.00070 0.71230 -0.34700
O 	O 	0.08650 0.49840 0.57820 -0.49300
O 	O 	0.22040 0.53830 0.63570 -0.41900
C 	C 	0.13770 0.79120 0.39360 0.37200
C 	C 	0.17220 0.82900 0.29350 -0.22700
C 	C 	0.22590 0.91310 0.26910 0.13000
H 	H 	0.24190 0.94600 0.31700 -0.00600
C 	C 	0.25680 0.95010 0.17690 -0.21600
H 	H 	0.29280 0.00910 0.16080 0.09700
C 	C 	0.23490 0.90030 0.10660 0.27100
C 	C 	0.17830 0.81870 0.12970 -0.28800
H 	H 	0.15870 0.78800 0.08200 0.11500
C 	C 	0.15030 0.78150 0.22380 0.16000
H 	H 	0.11520 0.72190 0.24040 -0.05600
C 	C 	0.22690 0.92000 0.94060 0.39800
C 	C 	0.27490 0.82300 0.90780 -0.37400
H 	H 	0.33600 0.76720 0.93810 0.15500
C 	C 	0.23410 0.80520 0.82930 0.25300
H 	H 	0.26610 0.73610 0.80700 -0.05500
C 	C 	0.14780 0.88710 0.78390 -0.31200
C 	C 	0.10260 0.98470 0.81770 0.31000
H 	H 	0.04350 0.04260 0.78670 -0.08800
C 	C 	0.14280 0.00010 0.89820 -0.42600
H 	H 	0.11000 0.06780 0.92250 0.16600
C 	C 	0.10720 0.87170 0.69640 0.46900
C 	C 	0.84910 0.81000 0.59860 0.41900
C 	C 	0.72790 0.86010 0.62680 -0.27100
C 	C 	0.66610 0.95980 0.57490 0.25000
H 	H 	0.70110 0.99500 0.51980 -0.04300
C 	C 	0.55450 0.00910 0.60170 -0.39800
H 	H 	0.51270 0.07710 0.56500 0.16200
C 	C 	0.50510 0.95860 0.68200 0.38500
C 	C 	0.56420 0.85810 0.73440 -0.34200
H 	H 	0.52880 0.82300 0.78940 0.15500
C 	C 	0.67520 0.80920 0.70600 0.21800
H 	H 	0.71590 0.73960 0.74130 -0.04000
C 	C 	0.34180 0.11720 0.68840 0.32800
C 	C 	0.38920 0.19400 0.70980 -0.31400
H 	H 	0.45910 0.16920 0.73840 0.13700
C 	C 	0.33370 0.30790 0.68910 0.18300
H 	H 	0.36540 0.36160 0.70420 -0.02800
C 	C 	0.23210 0.34440 0.64620 -0.24400
C 	C 	0.18680 0.26520 0.62640 0.18900
H 	H 	0.11700 0.28920 0.59750 -0.05500
C 	C 	0.24140 0.15060 0.64790 -0.31500
H 	H 	0.20910 0.09630 0.63460 0.15200
C 	C 	0.17630 0.46830 0.61930 0.38100
O 	O 	0.33350 0.41090 0.41520 -0.31100
N 	N 	0.52090 0.33750 0.39130 -0.08400
C 	C 	0.42540 0.33430 0.43050 0.18700
H 	H 	0.42160 0.26870 0.47570 -0.02500
C 	C 	0.53530 0.40740 0.29630 -0.31000
H 	H 	0.46170 0.45810 0.27780 0.11800
H 	H 	0.58700 0.45230 0.29880 0.13100
H 	H 	0.56670 0.35780 0.25020 0.11000
C 	C 	0.61770 0.26500 0.43590 -0.00600
H 	H 	0.63430 0.18970 0.41900 0.02800
H 	H 	0.68250 0.29540 0.41510 -0.01200
H 	H 	0.60320 0.25800 0.50430 0.08300
O 	O 	0.29180 0.92110 0.01440 -0.14900
O 	O 	0.35700 0.43900 0.38070 -0.01400
N 	N 	0.52020 0.35690 0.45630 -0.06800
C 	C 	0.41840 0.41350 0.45160 0.05000
H 	H 	0.38210 0.44090 0.50700 0.03200
C 	C 	0.60000 0.27700 0.39730 -0.11100
H 	H 	0.63420 0.20530 0.43810 0.01100
H 	H 	0.55870 0.26370 0.35020 0.08800
H 	H 	0.66030 0.31080 0.36550 0.07800
C 	C 	0.58750 0.34510 0.53060 -0.35800
H 	H 	0.57280 0.28610 0.58230 0.11600
H 	H 	0.66760 0.32400 0.50820 0.11400
H 	H 	0.56900 0.41690 0.55310 0.14000
Cd	Cd	0.00000 0.00000 0.50000 1.21700
