data_crystal

_cell_length_a 15.17960
_cell_length_b 15.64530
_cell_length_c 16.98400
_cell_angle_alpha 90.00000
_cell_angle_beta  119.21800
_cell_angle_gamma 90.00000

_symmetry_space_group_name_	'P 1'
_symmetry_space_group_name_H-M	'P 1'

loop_
_symmetry_equiv_pos_as_xyz
  x,y,z

loop_
_atom_site_label
_atom_site_type_symbol
_atom_site_fract_x
_atom_site_fract_y
_atom_site_fract_z
_atom_site_charge
C 	C 	0.84420 0.47690 0.69780 0.32800
C 	C 	0.27760 0.73420 0.59020 0.02100
H 	H 	0.26250 0.69940 0.63010 0.03800
C 	C 	0.68860 0.53700 0.57030 0.09600
H 	H 	0.71400 0.52020 0.53270 0.03600
C 	C 	0.16180 0.85540 0.58150 0.21000
C 	C 	0.18750 0.79290 0.52800 -0.09300
H 	H 	0.12820 0.75800 0.48940 0.06100
C 	C 	0.42990 0.70650 0.48970 0.23100
C 	C 	0.36770 0.79140 0.64260 -0.03900
H 	H 	0.40340 0.79270 0.70530 0.05000
C 	C 	0.29880 0.67890 0.52670 -0.10100
H 	H 	0.23910 0.64450 0.48810 0.07700
C 	C 	0.21550 0.84830 0.47030 -0.12300
H 	H 	0.16960 0.83640 0.40630 0.07900
C 	C 	0.61520 0.59000 0.68290 -0.19400
H 	H 	0.59060 0.60920 0.72030 0.13100
C 	C 	0.74500 0.52360 0.66170 -0.11500
C 	C 	0.32610 0.73430 0.46850 -0.11700
H 	H 	0.27830 0.72480 0.40450 0.09000
C 	C 	0.70770 0.55100 0.71970 0.09800
H 	H 	0.74540 0.54260 0.78170 0.03700
C 	C 	0.55820 0.60110 0.59070 0.20500
C 	C 	0.59400 0.57540 0.53350 -0.18900
H 	H 	0.55550 0.58360 0.47150 0.13100
C 	C 	0.07860 0.23750 0.69290 0.34200
C 	C 	0.07570 0.15180 0.56630 0.12200
H 	H 	0.03980 0.19610 0.52710 -0.00600
C 	C 	0.09500 0.07780 0.53220 -0.23400
H 	H 	0.07000 0.07190 0.47040 0.12100
C 	C 	0.32510 0.82850 0.49290 0.04600
H 	H 	0.34650 0.86570 0.45900 0.03800
C 	C 	0.38830 0.62110 0.57820 0.22500
C 	C 	0.20300 0.93780 0.49040 0.22800
C 	C 	0.39130 0.83950 0.59200 -0.05600
H 	H 	0.44540 0.87740 0.61630 0.06500
C 	C 	0.10840 0.16090 0.65590 -0.16800
C 	C 	0.15110 0.01340 0.59000 0.21900
C 	C 	0.16670 0.09420 0.71430 0.12200
H 	H 	0.19120 0.09980 0.77600 0.00600
C 	C 	0.18770 0.02180 0.68160 -0.23200
H 	H 	0.22640 0.97860 0.72080 0.13600
N 	N 	0.46090 0.64090 0.55320 -0.19700
N 	N 	0.17090 0.93730 0.55620 -0.20500
O 	O 	0.39770 0.56660 0.63220 -0.23000
O 	O 	0.13670 0.83830 0.63800 -0.24300
O 	O 	0.48220 0.73600 0.46070 -0.21500
O 	O 	0.12020 0.24930 0.77500 -0.38700
O 	O 	0.01440 0.28740 0.63570 -0.40300
O 	O 	0.21850 0.00130 0.45980 -0.23200
O 	O 	0.86940 0.44990 0.64570 -0.33600
O 	O 	0.89350 0.46360 0.78360 -0.27700
C 	C 	0.15580 0.47690 0.80220 0.34100
C 	C 	0.72240 0.73420 0.90980 0.03700
H 	H 	0.73750 0.69940 0.86990 0.04200
C 	C 	0.31140 0.53700 0.92970 0.11800
H 	H 	0.28600 0.52020 0.96730 0.01700
C 	C 	0.83820 0.85540 0.91850 0.24000
C 	C 	0.81250 0.79290 0.97200 -0.11500
H 	H 	0.87180 0.75800 0.01060 0.11900
C 	C 	0.57010 0.70650 0.01030 0.23200
C 	C 	0.63230 0.79140 0.85740 -0.04700
H 	H 	0.59660 0.79270 0.79470 0.05500
C 	C 	0.70120 0.67890 0.97330 -0.11800
H 	H 	0.76090 0.64450 0.01190 0.09600
C 	C 	0.78450 0.84830 0.02970 -0.11200
H 	H 	0.83040 0.83640 0.09370 0.09900
C 	C 	0.38480 0.59000 0.81710 -0.21500
H 	H 	0.40940 0.60920 0.77970 0.13600
C 	C 	0.25500 0.52360 0.83830 -0.14700
C 	C 	0.67390 0.73430 0.03150 -0.10800
H 	H 	0.72170 0.72480 0.09550 0.08900
C 	C 	0.29230 0.55100 0.78030 0.11700
H 	H 	0.25460 0.54260 0.71830 0.01800
C 	C 	0.44180 0.60110 0.90930 0.21900
C 	C 	0.40600 0.57540 0.96650 -0.22100
H 	H 	0.44450 0.58360 0.02850 0.14400
C 	C 	0.92140 0.23750 0.80710 0.34000
C 	C 	0.92430 0.15180 0.93370 0.13500
H 	H 	0.96020 0.19610 0.97290 0.04000
C 	C 	0.90500 0.07780 0.96780 -0.22100
H 	H 	0.93000 0.07190 0.02960 0.16700
C 	C 	0.67490 0.82850 0.00710 0.04100
H 	H 	0.65350 0.86570 0.04100 0.04000
C 	C 	0.61170 0.62110 0.92180 0.22900
C 	C 	0.79700 0.93780 0.00960 0.24000
C 	C 	0.60870 0.83950 0.90800 -0.05400
H 	H 	0.55460 0.87740 0.88370 0.06200
C 	C 	0.89160 0.16090 0.84410 -0.13500
C 	C 	0.84890 0.01340 0.91000 0.24100
C 	C 	0.83330 0.09420 0.78570 0.13000
H 	H 	0.80880 0.09980 0.72400 0.01400
C 	C 	0.81230 0.02180 0.81840 -0.22200
H 	H 	0.77360 0.97860 0.77920 0.14100
N 	N 	0.53910 0.64090 0.94680 -0.20300
N 	N 	0.82910 0.93730 0.94380 -0.20000
O 	O 	0.60230 0.56660 0.86780 -0.22900
O 	O 	0.86330 0.83830 0.86200 -0.19600
O 	O 	0.51780 0.73600 0.03930 -0.21800
O 	O 	0.87980 0.24930 0.72500 -0.34500
O 	O 	0.98560 0.28740 0.86430 -0.30600
O 	O 	0.78150 0.00130 0.04020 -0.21500
O 	O 	0.13060 0.44990 0.85430 -0.39700
O 	O 	0.10650 0.46360 0.71640 -0.33700
Cd	Cd	-0.00000 0.36185 0.75000 1.21700
C 	C 	0.15580 0.52310 0.30220 0.33900
C 	C 	0.72240 0.26580 0.40980 0.03200
H 	H 	0.73750 0.30060 0.36990 0.04400
C 	C 	0.31140 0.46300 0.42970 0.10700
H 	H 	0.28600 0.47980 0.46730 0.02200
C 	C 	0.83820 0.14460 0.41850 0.23900
C 	C 	0.81250 0.20710 0.47200 -0.10800
H 	H 	0.87180 0.24200 0.51060 0.11600
C 	C 	0.57010 0.29350 0.51030 0.23000
C 	C 	0.63230 0.20860 0.35740 -0.04600
H 	H 	0.59660 0.20730 0.29470 0.05400
C 	C 	0.70120 0.32110 0.47330 -0.10800
H 	H 	0.76090 0.35550 0.51190 0.09200
C 	C 	0.78450 0.15170 0.52970 -0.11800
H 	H 	0.83040 0.16360 0.59370 0.10100
C 	C 	0.38480 0.41000 0.31710 -0.20900
H 	H 	0.40940 0.39080 0.27970 0.13400
C 	C 	0.25500 0.47640 0.33830 -0.14100
C 	C 	0.67390 0.26570 0.53150 -0.11300
H 	H 	0.72170 0.27520 0.59550 0.09100
C 	C 	0.29230 0.44900 0.28030 0.11100
H 	H 	0.25460 0.45740 0.21830 0.02100
C 	C 	0.44180 0.39890 0.40930 0.21200
C 	C 	0.40600 0.42460 0.46650 -0.20300
H 	H 	0.44450 0.41640 0.52850 0.13400
C 	C 	0.92140 0.76250 0.30710 0.33900
C 	C 	0.92430 0.84820 0.43370 0.12800
H 	H 	0.96020 0.80390 0.47290 0.04400
C 	C 	0.90500 0.92220 0.46780 -0.20800
H 	H 	0.93000 0.92810 0.52960 0.16000
C 	C 	0.67490 0.17150 0.50710 0.04200
H 	H 	0.65350 0.13430 0.54100 0.04000
C 	C 	0.61170 0.37890 0.42180 0.22700
C 	C 	0.79700 0.06220 0.50960 0.24300
C 	C 	0.60870 0.16050 0.40800 -0.05200
H 	H 	0.55460 0.12260 0.38370 0.06200
C 	C 	0.89160 0.83910 0.34410 -0.13200
C 	C 	0.84890 0.98660 0.41000 0.23700
C 	C 	0.83330 0.90580 0.28570 0.12700
H 	H 	0.80880 0.90020 0.22400 0.01500
C 	C 	0.81230 0.97820 0.31840 -0.21900
H 	H 	0.77360 0.02140 0.27920 0.14000
N 	N 	0.53910 0.35910 0.44680 -0.19900
N 	N 	0.82910 0.06270 0.44380 -0.19800
O 	O 	0.60230 0.43340 0.36780 -0.22700
O 	O 	0.86330 0.16170 0.36200 -0.19500
O 	O 	0.51780 0.26400 0.53930 -0.21900
O 	O 	0.87980 0.75070 0.22500 -0.34500
O 	O 	0.98560 0.71260 0.36430 -0.30700
O 	O 	0.78150 0.99870 0.54020 -0.21800
O 	O 	0.13060 0.55010 0.35430 -0.39600
O 	O 	0.10650 0.53640 0.21640 -0.33400
C 	C 	0.84420 0.52310 0.19780 0.32500
C 	C 	0.27760 0.26580 0.09020 0.00600
H 	H 	0.26250 0.30060 0.13010 0.04200
C 	C 	0.68860 0.46300 0.07030 0.08500
H 	H 	0.71400 0.47980 0.03270 0.04000
C 	C 	0.16180 0.14460 0.08150 0.20400
C 	C 	0.18750 0.20710 0.02800 -0.06900
H 	H 	0.12820 0.24200 0.98940 0.04800
C 	C 	0.42990 0.29350 0.98970 0.22900
C 	C 	0.36770 0.20860 0.14260 -0.03400
H 	H 	0.40340 0.20730 0.20530 0.04900
C 	C 	0.29880 0.32110 0.02670 -0.07700
H 	H 	0.23910 0.35550 0.98810 0.06600
C 	C 	0.21550 0.15170 0.97030 -0.13600
H 	H 	0.16960 0.16360 0.90630 0.08200
C 	C 	0.61520 0.41000 0.18290 -0.18800
H 	H 	0.59060 0.39080 0.22030 0.12900
C 	C 	0.74500 0.47640 0.16170 -0.10900
C 	C 	0.32610 0.26570 0.96850 -0.13000
H 	H 	0.27830 0.27520 0.90450 0.09400
C 	C 	0.70770 0.44900 0.21970 0.09300
H 	H 	0.74540 0.45740 0.28170 0.03900
C 	C 	0.55820 0.39890 0.09070 0.19900
C 	C 	0.59400 0.42460 0.03350 -0.17300
H 	H 	0.55550 0.41640 0.97150 0.12200
C 	C 	0.07860 0.76250 0.19290 0.33900
C 	C 	0.07570 0.84820 0.06630 0.10900
H 	H 	0.03980 0.80390 0.02710 0.00100
C 	C 	0.09500 0.92220 0.03220 -0.21300
H 	H 	0.07000 0.92810 0.97040 0.11100
C 	C 	0.32510 0.17150 0.99290 0.04700
H 	H 	0.34650 0.13430 0.95900 0.03700
C 	C 	0.38830 0.37890 0.07820 0.22000
C 	C 	0.20300 0.06220 0.99040 0.22200
C 	C 	0.39130 0.16050 0.09200 -0.05300
H 	H 	0.44540 0.12260 0.11630 0.06500
C 	C 	0.10840 0.83910 0.15590 -0.16000
C 	C 	0.15110 0.98660 0.09000 0.20900
C 	C 	0.16670 0.90580 0.21430 0.11500
H 	H 	0.19120 0.90020 0.27600 0.00800
C 	C 	0.18770 0.97820 0.18160 -0.22300
H 	H 	0.22640 0.02140 0.22080 0.13400
N 	N 	0.46090 0.35910 0.05320 -0.19200
N 	N 	0.17090 0.06270 0.05620 -0.19800
O 	O 	0.39770 0.43340 0.13220 -0.22700
O 	O 	0.13670 0.16170 0.13800 -0.23900
O 	O 	0.48220 0.26400 0.96070 -0.21700
O 	O 	0.12020 0.75070 0.27500 -0.38500
O 	O 	0.01440 0.71260 0.13570 -0.40000
O 	O 	0.21850 0.99870 0.95980 -0.23100
O 	O 	0.86940 0.55010 0.14570 -0.33600
O 	O 	0.89350 0.53640 0.28360 -0.27600
Cd	Cd	-0.00000 0.63815 0.25000 1.21700
