data_crystal

_cell_length_a 8.46900
_cell_length_b 9.43300
_cell_length_c 12.86700
_cell_angle_alpha 90.00000
_cell_angle_beta  94.90000
_cell_angle_gamma 90.00000

_symmetry_space_group_name_	'P 1'
_symmetry_space_group_name_H-M	'P 1'

loop_
_symmetry_equiv_pos_as_xyz
  x,y,z

loop_
_atom_site_label
_atom_site_type_symbol
_atom_site_fract_x
_atom_site_fract_y
_atom_site_fract_z
_atom_site_charge
Mn	Mn	0.14600 0.79000 0.37400 1.16300
N 	N 	0.16000 0.01000 0.43000 -0.33200
C 	C 	0.14000 0.11000 0.47000 0.08800
S 	S 	0.12100 0.26300 0.53400 -0.34000
N 	N 	0.14000 0.55000 0.34000 -0.30500
C 	C 	0.12000 0.45000 0.29000 0.08000
S 	S 	0.08700 0.30900 0.22500 -0.35400
Mn	Mn	0.35400 0.29000 0.12600 1.16600
N 	N 	0.34000 0.51000 0.07000 -0.33200
C 	C 	0.36000 0.61000 0.03000 0.08700
S 	S 	0.37900 0.76300 0.96600 -0.34100
N 	N 	0.36000 0.05000 0.16000 -0.30300
C 	C 	0.38000 0.95000 0.21000 0.07700
S 	S 	0.41300 0.80900 0.27500 -0.35500
Mn	Mn	0.85400 0.21000 0.62600 1.16400
N 	N 	0.84000 0.99000 0.57000 -0.33100
C 	C 	0.86000 0.89000 0.53000 0.08800
S 	S 	0.87900 0.73700 0.46600 -0.34000
N 	N 	0.86000 0.45000 0.66000 -0.30500
C 	C 	0.88000 0.55000 0.71000 0.08000
S 	S 	0.91300 0.69100 0.77500 -0.35400
Mn	Mn	0.64600 0.71000 0.87400 1.16600
N 	N 	0.66000 0.49000 0.93000 -0.33200
C 	C 	0.64000 0.39000 0.97000 0.08700
S 	S 	0.62100 0.23700 0.03400 -0.34100
N 	N 	0.64000 0.95000 0.84000 -0.30300
C 	C 	0.62000 0.05000 0.79000 0.07700
S 	S 	0.58700 0.19100 0.72500 -0.35500
