data_crystal

_cell_length_a 21.76330
_cell_length_b 14.19580
_cell_length_c 22.96490
_cell_angle_alpha 90.00000
_cell_angle_beta  90.18200
_cell_angle_gamma 90.00000

_symmetry_space_group_name_	'P 1'
_symmetry_space_group_name_H-M	'P 1'

loop_
_symmetry_equiv_pos_as_xyz
  x,y,z

loop_
_atom_site_label
_atom_site_type_symbol
_atom_site_fract_x
_atom_site_fract_y
_atom_site_fract_z
_atom_site_charge
C 	C 	0.81030 0.06200 0.84150 0.23200
C 	C 	0.84630 0.13910 0.80920 0.22900
C 	C 	0.68320 0.30810 0.79300 0.21800
C 	C 	0.71290 0.39630 0.82330 0.22100
C 	C 	0.78520 0.25890 0.00480 0.22200
C 	C 	0.00350 0.95310 0.78370 0.22100
O 	O 	0.77503 0.08880 0.88041 -0.36500
O 	O 	0.83761 0.22270 0.82443 -0.37300
O 	O 	0.81841 0.97870 0.82621 -0.38200
O 	O 	0.88041 0.11060 0.76979 -0.36900
O 	O 	0.70116 0.22890 0.81128 -0.34900
O 	O 	0.75291 0.38040 0.86276 -0.36400
O 	O 	0.64409 0.32330 0.75277 -0.36400
O 	O 	0.69437 0.47520 0.80524 -0.35500
O 	O 	0.81659 0.26060 0.96010 -0.36800
O 	O 	0.80456 0.27000 0.05662 -0.37200
O 	O 	0.95490 0.94900 0.81134 -0.36500
O 	O 	0.05800 0.95910 0.80469 -0.37900
Cr	Cr	0.87681 0.96465 0.75790 1.53600
Cr	Cr	0.76524 0.23741 0.88278 1.52600
Mn	Mn	0.23476 0.23741 0.61722 1.32800
C 	C 	0.31030 0.56200 0.84150 0.23300
C 	C 	0.34630 0.63910 0.80920 0.23000
C 	C 	0.18320 0.80810 0.79300 0.21900
C 	C 	0.21290 0.89630 0.82330 0.22200
C 	C 	0.28520 0.75890 0.00480 0.22400
C 	C 	0.50350 0.45310 0.78370 0.22100
O 	O 	0.27503 0.58880 0.88041 -0.36500
O 	O 	0.33761 0.72270 0.82443 -0.37300
O 	O 	0.31841 0.47870 0.82621 -0.38200
O 	O 	0.38041 0.61060 0.76979 -0.36900
O 	O 	0.20116 0.72890 0.81128 -0.34900
O 	O 	0.25291 0.88040 0.86276 -0.36400
O 	O 	0.14409 0.82330 0.75277 -0.36400
O 	O 	0.19437 0.97520 0.80524 -0.35500
O 	O 	0.31659 0.76060 0.96010 -0.36900
O 	O 	0.30456 0.77000 0.05662 -0.37200
O 	O 	0.45490 0.44900 0.81134 -0.36500
O 	O 	0.55800 0.45910 0.80469 -0.37900
Cr	Cr	0.37681 0.46465 0.75790 1.53600
Cr	Cr	0.26524 0.73741 0.88278 1.52600
Mn	Mn	0.73476 0.73741 0.61722 1.32800
C 	C 	0.18970 0.06200 0.65850 0.23300
C 	C 	0.15370 0.13910 0.69080 0.23000
C 	C 	0.31680 0.30810 0.70700 0.22000
C 	C 	0.28710 0.39630 0.67670 0.22200
C 	C 	0.21480 0.25890 0.49520 0.22400
C 	C 	0.99650 0.95310 0.71630 0.22100
O 	O 	0.22497 0.08880 0.61959 -0.33400
O 	O 	0.16239 0.22270 0.67557 -0.34200
O 	O 	0.18159 0.97870 0.67379 -0.38200
O 	O 	0.11959 0.11060 0.73021 -0.36900
O 	O 	0.29884 0.22890 0.68872 -0.32100
O 	O 	0.24709 0.38040 0.63724 -0.33300
O 	O 	0.35591 0.32330 0.74723 -0.36400
O 	O 	0.30563 0.47520 0.69476 -0.35400
O 	O 	0.18341 0.26060 0.53990 -0.33700
O 	O 	0.19544 0.27000 0.44338 -0.34000
O 	O 	0.04510 0.94900 0.68866 -0.36400
O 	O 	0.94200 0.95910 0.69531 -0.37800
Cr	Cr	0.12319 0.96465 0.74210 1.53600
C 	C 	0.68970 0.56200 0.65850 0.23300
C 	C 	0.65370 0.63910 0.69080 0.23000
C 	C 	0.81680 0.80810 0.70700 0.22000
C 	C 	0.78710 0.89630 0.67670 0.22200
C 	C 	0.71480 0.75890 0.49520 0.22400
C 	C 	0.49650 0.45310 0.71630 0.22100
O 	O 	0.72497 0.58880 0.61959 -0.33400
O 	O 	0.66239 0.72270 0.67557 -0.34200
O 	O 	0.68159 0.47870 0.67379 -0.38100
O 	O 	0.61959 0.61060 0.73021 -0.36900
O 	O 	0.79884 0.72890 0.68872 -0.32100
O 	O 	0.74709 0.88040 0.63724 -0.33300
O 	O 	0.85591 0.82330 0.74723 -0.36400
O 	O 	0.80563 0.97520 0.69476 -0.35400
O 	O 	0.68341 0.76060 0.53990 -0.33700
O 	O 	0.69544 0.77000 0.44338 -0.34000
O 	O 	0.54510 0.44900 0.68866 -0.36400
O 	O 	0.44200 0.45910 0.69531 -0.37800
Cr	Cr	0.62319 0.46465 0.74210 1.53600
C 	C 	0.18970 0.93800 0.15850 0.23300
C 	C 	0.15370 0.86090 0.19080 0.23000
C 	C 	0.31680 0.69190 0.20700 0.21900
C 	C 	0.28710 0.60370 0.17670 0.22200
C 	C 	0.21480 0.74110 0.99520 0.22200
C 	C 	0.99650 0.04690 0.21630 0.22100
O 	O 	0.22497 0.91120 0.11959 -0.36500
O 	O 	0.16239 0.77730 0.17557 -0.37300
O 	O 	0.18159 0.02130 0.17379 -0.38200
O 	O 	0.11959 0.88940 0.23021 -0.36900
O 	O 	0.29884 0.77110 0.18872 -0.34900
O 	O 	0.24709 0.61960 0.13724 -0.36400
O 	O 	0.35591 0.67670 0.24723 -0.36400
O 	O 	0.30563 0.52480 0.19476 -0.35500
O 	O 	0.18341 0.73940 0.03990 -0.36800
O 	O 	0.19544 0.73000 0.94338 -0.37200
O 	O 	0.04510 0.05100 0.18866 -0.36500
O 	O 	0.94200 0.04090 0.19531 -0.37900
Cr	Cr	0.12319 0.03535 0.24210 1.53600
Cr	Cr	0.23476 0.76259 0.11722 1.52600
Mn	Mn	0.76524 0.76259 0.38278 1.32800
C 	C 	0.68970 0.43800 0.15850 0.23300
C 	C 	0.65370 0.36090 0.19080 0.23000
C 	C 	0.81680 0.19190 0.20700 0.21900
C 	C 	0.78710 0.10370 0.17670 0.22200
C 	C 	0.71480 0.24110 0.99520 0.22400
C 	C 	0.49650 0.54690 0.21630 0.22100
O 	O 	0.72497 0.41120 0.11959 -0.36500
O 	O 	0.66239 0.27730 0.17557 -0.37300
O 	O 	0.68159 0.52130 0.17379 -0.38200
O 	O 	0.61959 0.38940 0.23021 -0.36900
O 	O 	0.79884 0.27110 0.18872 -0.34900
O 	O 	0.74709 0.11960 0.13724 -0.36400
O 	O 	0.85591 0.17670 0.24723 -0.36400
O 	O 	0.80563 0.02480 0.19476 -0.35500
O 	O 	0.68341 0.23940 0.03990 -0.36900
O 	O 	0.69544 0.23000 0.94338 -0.37200
O 	O 	0.54510 0.55100 0.18866 -0.36500
O 	O 	0.44200 0.54090 0.19531 -0.37900
Cr	Cr	0.62319 0.53535 0.24210 1.53600
Cr	Cr	0.73476 0.26259 0.11722 1.52600
Mn	Mn	0.26524 0.26259 0.38278 1.32800
C 	C 	0.81030 0.93800 0.34150 0.23300
C 	C 	0.84630 0.86090 0.30920 0.23000
C 	C 	0.68320 0.69190 0.29300 0.22000
C 	C 	0.71290 0.60370 0.32330 0.22200
C 	C 	0.78520 0.74110 0.50480 0.22400
C 	C 	0.00350 0.04690 0.28370 0.22100
O 	O 	0.77503 0.91120 0.38041 -0.33400
O 	O 	0.83761 0.77730 0.32443 -0.34200
O 	O 	0.81841 0.02130 0.32621 -0.38200
O 	O 	0.88041 0.88940 0.26979 -0.36900
O 	O 	0.70116 0.77110 0.31128 -0.32100
O 	O 	0.75291 0.61960 0.36276 -0.33300
O 	O 	0.64409 0.67670 0.25277 -0.36400
O 	O 	0.69437 0.52480 0.30524 -0.35400
O 	O 	0.81659 0.73940 0.46010 -0.33700
O 	O 	0.80456 0.73000 0.55662 -0.34000
O 	O 	0.95490 0.05100 0.31134 -0.36400
O 	O 	0.05800 0.04090 0.30469 -0.37800
Cr	Cr	0.87681 0.03535 0.25790 1.53600
C 	C 	0.31030 0.43800 0.34150 0.23300
C 	C 	0.34630 0.36090 0.30920 0.23000
C 	C 	0.18320 0.19190 0.29300 0.22000
C 	C 	0.21290 0.10370 0.32330 0.22200
C 	C 	0.28520 0.24110 0.50480 0.22400
C 	C 	0.50350 0.54690 0.28370 0.22100
O 	O 	0.27503 0.41120 0.38041 -0.33400
O 	O 	0.33761 0.27730 0.32443 -0.34200
O 	O 	0.31841 0.52130 0.32621 -0.38100
O 	O 	0.38041 0.38940 0.26979 -0.36900
O 	O 	0.20116 0.27110 0.31128 -0.32100
O 	O 	0.25291 0.11960 0.36276 -0.33300
O 	O 	0.14409 0.17670 0.25277 -0.36400
O 	O 	0.19437 0.02480 0.30524 -0.35400
O 	O 	0.31659 0.23940 0.46010 -0.33700
O 	O 	0.30456 0.23000 0.55662 -0.34000
O 	O 	0.45490 0.55100 0.31134 -0.36400
O 	O 	0.55800 0.54090 0.30469 -0.37800
Cr	Cr	0.37681 0.53535 0.25790 1.53600
