data_crystal

_cell_length_a 22.14080
_cell_length_b 24.55770
_cell_length_c 7.34450
_cell_angle_alpha 90.00000
_cell_angle_beta  90.00000
_cell_angle_gamma 90.00000

_symmetry_space_group_name_	'P 1'
_symmetry_space_group_name_H-M	'P 1'

loop_
_symmetry_equiv_pos_as_xyz
  x,y,z

loop_
_atom_site_label
_atom_site_type_symbol
_atom_site_fract_x
_atom_site_fract_y
_atom_site_fract_z
_atom_site_charge
Ce	Ce	0.26041 0.26753 0.78177 2.15000
O 	O 	0.63150 0.79640 0.25050 -0.42600
O 	O 	0.68090 0.78960 0.98700 -0.56200
O 	O 	0.80230 0.78590 0.98730 -0.58300
O 	O 	0.84730 0.80570 0.24600 -0.42300
O 	O 	0.26490 0.13240 0.33980 -0.44600
O 	O 	0.26110 0.18580 0.57940 -0.64800
N 	N 	0.24190 0.83310 0.40420 -0.15000
C 	C 	0.26300 0.13770 0.51180 0.38900
C 	C 	0.01520 0.82330 0.78800 -0.02100
C 	C 	0.57380 0.82130 0.79200 -0.04300
H 	H 	0.60980 0.82530 0.72850 0.04500
C 	C 	0.90700 0.81410 0.78400 -0.03100
H 	H 	0.87130 0.81100 0.71840 0.03100
C 	C 	0.46280 0.82080 0.80300 -0.03000
C 	C 	0.23810 0.87050 0.26400 0.12500
C 	C 	0.63040 0.79850 0.08320 0.26100
C 	C 	0.57470 0.80830 0.98120 0.01800
C 	C 	0.90510 0.81310 0.97190 0.00400
C 	C 	0.26680 0.03750 0.56300 0.07400
H 	H 	0.27450 0.03230 0.43940 0.02000
C 	C 	0.19800 0.91530 0.25700 -0.12500
H 	H 	0.16780 0.91810 0.34450 0.07800
C 	C 	0.25080 0.99820 0.86700 0.06800
C 	C 	0.51830 0.80290 0.07500 -0.14900
H 	H 	0.51820 0.79530 0.19890 0.09700
C 	C 	0.26240 0.99250 0.67800 -0.13300
H 	H 	0.26720 0.95780 0.63010 0.08100
C 	C 	0.28270 0.90660 0.98120 0.03900
H 	H 	0.31070 0.90320 0.88750 0.02600
C 	C 	0.84870 0.80050 0.07810 0.29500
C 	C 	0.25980 0.08890 0.63000 -0.15400
C 	C 	0.25190 0.09620 0.81200 0.05800
H 	H 	0.25110 0.13130 0.85900 0.01000
C 	C 	0.24530 0.95250 0.98790 -0.01800
C 	C 	0.95880 0.81880 0.06910 -0.14200
H 	H 	0.95840 0.81920 0.19570 0.09000
C 	C 	0.51900 0.82800 0.70480 -0.02900
H 	H 	0.51830 0.83720 0.58190 0.04900
C 	C 	0.12520 0.84850 0.77400 -0.03000
H 	H 	0.12250 0.86260 0.89070 0.05400
C 	C 	0.40510 0.82410 0.69920 0.02900
C 	C 	0.29580 0.83050 0.50470 0.04300
C 	C 	0.96150 0.81970 0.69200 -0.04300
H 	H 	0.96190 0.82100 0.56550 0.05000
C 	C 	0.20230 0.95440 0.12660 -0.02800
H 	H 	0.17550 0.98350 0.12980 0.03700
C 	C 	0.07390 0.82500 0.68480 0.01100
C 	C 	0.13510 0.80280 0.42160 -0.10200
H 	H 	0.13850 0.78730 0.30660 0.07200
C 	C 	0.27880 0.86630 0.11060 -0.16200
H 	H 	0.30290 0.83550 0.09920 0.08800
C 	C 	0.35710 0.78730 0.73340 -0.09700
H 	H 	0.36140 0.76080 0.82270 0.07600
C 	C 	0.17980 0.84920 0.67680 -0.10500
H 	H 	0.21320 0.86550 0.73130 0.07600
C 	C 	0.24490 0.05140 0.93200 -0.07900
H 	H 	0.23620 0.05740 0.05390 0.05400
C 	C 	0.01290 0.82400 0.97580 0.06500
H 	H 	0.04860 0.82810 0.04130 -0.01000
C 	C 	0.46370 0.80870 0.98370 0.08200
H 	H 	0.42760 0.80420 0.04660 -0.01300
C 	C 	0.08090 0.80240 0.51140 -0.03200
H 	H 	0.04760 0.78650 0.45510 0.04300
C 	C 	0.34420 0.86800 0.46800 -0.02300
C 	C 	0.18670 0.82750 0.50710 0.10100
C 	C 	0.39650 0.86410 0.56400 -0.01600
C 	C 	0.30400 0.79060 0.63520 0.00300
Ce	Ce	0.73959 0.73247 0.78177 2.14900
O 	O 	0.36850 0.20360 0.25050 -0.42700
O 	O 	0.31910 0.21040 0.98700 -0.56300
O 	O 	0.19770 0.21410 0.98730 -0.58400
O 	O 	0.15270 0.19430 0.24600 -0.42400
O 	O 	0.73510 0.86760 0.33980 -0.44700
O 	O 	0.73890 0.81420 0.57940 -0.64900
N 	N 	0.75810 0.16690 0.40420 -0.15100
C 	C 	0.73700 0.86230 0.51180 0.38800
C 	C 	0.98480 0.17670 0.78800 -0.02200
C 	C 	0.42620 0.17870 0.79200 -0.04400
H 	H 	0.39020 0.17470 0.72850 0.04400
C 	C 	0.09300 0.18590 0.78400 -0.03200
H 	H 	0.12870 0.18900 0.71840 0.03000
C 	C 	0.53720 0.17920 0.80300 -0.03100
C 	C 	0.76190 0.12950 0.26400 0.12400
C 	C 	0.36960 0.20150 0.08320 0.26100
C 	C 	0.42530 0.19170 0.98120 0.01800
C 	C 	0.09490 0.18690 0.97190 0.00400
C 	C 	0.73320 0.96250 0.56300 0.07400
H 	H 	0.72550 0.96770 0.43940 0.02000
C 	C 	0.80200 0.08470 0.25700 -0.12500
H 	H 	0.83220 0.08190 0.34450 0.07800
C 	C 	0.74920 0.00180 0.86700 0.06800
C 	C 	0.48170 0.19710 0.07500 -0.14900
H 	H 	0.48180 0.20470 0.19890 0.09700
C 	C 	0.73760 0.00750 0.67800 -0.13300
H 	H 	0.73280 0.04220 0.63010 0.08100
C 	C 	0.71730 0.09340 0.98120 0.03900
H 	H 	0.68930 0.09680 0.88750 0.02600
C 	C 	0.15130 0.19950 0.07810 0.29500
C 	C 	0.74020 0.91110 0.63000 -0.15400
C 	C 	0.74810 0.90380 0.81200 0.05800
H 	H 	0.74890 0.86870 0.85900 0.01000
C 	C 	0.75470 0.04750 0.98790 -0.01800
C 	C 	0.04120 0.18120 0.06910 -0.14200
H 	H 	0.04160 0.18080 0.19570 0.09000
C 	C 	0.48100 0.17200 0.70480 -0.02900
H 	H 	0.48170 0.16280 0.58190 0.04900
C 	C 	0.87480 0.15150 0.77400 -0.03000
H 	H 	0.87750 0.13740 0.89070 0.05400
C 	C 	0.59490 0.17590 0.69920 0.02900
C 	C 	0.70420 0.16950 0.50470 0.04300
C 	C 	0.03850 0.18030 0.69200 -0.04300
H 	H 	0.03810 0.17900 0.56550 0.05000
C 	C 	0.79770 0.04560 0.12660 -0.02800
H 	H 	0.82450 0.01650 0.12980 0.03700
C 	C 	0.92610 0.17500 0.68480 0.01100
C 	C 	0.86490 0.19720 0.42160 -0.10200
H 	H 	0.86150 0.21270 0.30660 0.07200
C 	C 	0.72120 0.13370 0.11060 -0.16200
H 	H 	0.69710 0.16450 0.09920 0.08800
C 	C 	0.64290 0.21270 0.73340 -0.09700
H 	H 	0.63860 0.23920 0.82270 0.07600
C 	C 	0.82020 0.15080 0.67680 -0.10500
H 	H 	0.78680 0.13450 0.73130 0.07600
C 	C 	0.75510 0.94860 0.93200 -0.07900
H 	H 	0.76380 0.94260 0.05390 0.05400
C 	C 	0.98710 0.17600 0.97580 0.06500
H 	H 	0.95140 0.17190 0.04130 -0.01000
C 	C 	0.53630 0.19130 0.98370 0.08200
H 	H 	0.57240 0.19580 0.04660 -0.01300
C 	C 	0.91910 0.19760 0.51140 -0.03200
H 	H 	0.95240 0.21350 0.45510 0.04300
C 	C 	0.65580 0.13200 0.46800 -0.02300
C 	C 	0.81330 0.17250 0.50710 0.10100
C 	C 	0.60350 0.13590 0.56400 -0.01600
C 	C 	0.69600 0.20940 0.63520 0.00300
Ce	Ce	0.26041 0.23247 0.28177 2.14300
O 	O 	0.63150 0.70360 0.75050 -0.44300
O 	O 	0.68090 0.71040 0.48700 -0.60300
O 	O 	0.80230 0.71410 0.48730 -0.62800
O 	O 	0.84730 0.69430 0.74600 -0.44000
O 	O 	0.26490 0.36760 0.83980 -0.41600
O 	O 	0.26110 0.31420 0.07940 -0.64800
N 	N 	0.24190 0.66690 0.90420 -0.11300
C 	C 	0.26300 0.36230 0.01180 0.34800
C 	C 	0.01520 0.67670 0.28800 0.05600
C 	C 	0.57380 0.67870 0.29200 0.05900
H 	H 	0.60980 0.67470 0.22850 0.00500
C 	C 	0.90700 0.68590 0.28400 0.08100
H 	H 	0.87130 0.68900 0.21840 -0.01200
C 	C 	0.46280 0.67920 0.30300 0.06500
C 	C 	0.23810 0.62950 0.76400 0.12100
C 	C 	0.63040 0.70150 0.58320 0.35800
C 	C 	0.57470 0.69170 0.48120 -0.13000
C 	C 	0.90510 0.68690 0.47190 -0.15200
C 	C 	0.26680 0.46250 0.06300 0.00600
H 	H 	0.27450 0.46770 0.93940 0.06300
C 	C 	0.19800 0.58470 0.75700 -0.13200
H 	H 	0.16780 0.58190 0.84450 0.09000
C 	C 	0.25080 0.50180 0.36700 0.08000
C 	C 	0.51830 0.69710 0.57500 0.05100
H 	H 	0.51820 0.70470 0.69890 0.03400
C 	C 	0.26240 0.50750 0.17800 -0.11000
H 	H 	0.26720 0.54220 0.13010 0.06700
C 	C 	0.28270 0.59340 0.48120 0.00500
H 	H 	0.31070 0.59680 0.38750 0.03300
C 	C 	0.84870 0.69950 0.57810 0.39400
C 	C 	0.25980 0.41110 0.13000 -0.12900
C 	C 	0.25190 0.40380 0.31200 0.06700
H 	H 	0.25110 0.36870 0.35900 0.00400
C 	C 	0.24530 0.54750 0.48790 -0.04600
C 	C 	0.95880 0.68120 0.56910 0.06300
H 	H 	0.95840 0.68080 0.69570 0.02400
C 	C 	0.51900 0.67200 0.20480 -0.12400
H 	H 	0.51830 0.66280 0.08190 0.07800
C 	C 	0.12520 0.65150 0.27400 -0.07600
H 	H 	0.12250 0.63740 0.39070 0.05900
C 	C 	0.40510 0.67590 0.19920 0.00300
C 	C 	0.29580 0.66950 0.00470 -0.01200
C 	C 	0.96150 0.68030 0.19200 -0.13700
H 	H 	0.96190 0.67900 0.06550 0.07500
C 	C 	0.20230 0.54560 0.62660 0.01300
H 	H 	0.17550 0.51650 0.62980 0.03100
C 	C 	0.07390 0.67500 0.18480 0.03900
C 	C 	0.13510 0.69720 0.92160 0.04800
H 	H 	0.13850 0.71270 0.80660 0.02400
C 	C 	0.27880 0.63370 0.61060 -0.12000
H 	H 	0.30290 0.66450 0.59920 0.08000
C 	C 	0.35710 0.71270 0.23340 -0.09400
H 	H 	0.36140 0.73920 0.32270 0.06600
C 	C 	0.17980 0.65080 0.17680 -0.04500
H 	H 	0.21320 0.63450 0.23130 0.05200
C 	C 	0.24490 0.44860 0.43200 -0.13700
H 	H 	0.23620 0.44260 0.55390 0.09400
C 	C 	0.01290 0.67600 0.47580 -0.12800
H 	H 	0.04860 0.67190 0.54130 0.07500
C 	C 	0.46370 0.69130 0.48370 -0.12500
H 	H 	0.42760 0.69580 0.54660 0.07800
C 	C 	0.08090 0.69760 0.01140 -0.17900
H 	H 	0.04760 0.71350 0.95510 0.11100
C 	C 	0.34420 0.63200 0.96800 0.04000
C 	C 	0.18670 0.67250 0.00710 0.00400
C 	C 	0.39650 0.63590 0.06400 -0.04900
C 	C 	0.30400 0.70940 0.13520 0.01000
Ce	Ce	0.73959 0.76753 0.28177 2.14300
O 	O 	0.36850 0.29640 0.75050 -0.44300
O 	O 	0.31910 0.28960 0.48700 -0.60300
O 	O 	0.19770 0.28590 0.48730 -0.62800
O 	O 	0.15270 0.30570 0.74600 -0.44000
O 	O 	0.73510 0.63240 0.83980 -0.41600
O 	O 	0.73890 0.68580 0.07940 -0.64800
N 	N 	0.75810 0.33310 0.90420 -0.11300
C 	C 	0.73700 0.63770 0.01180 0.34800
C 	C 	0.98480 0.32330 0.28800 0.05600
C 	C 	0.42620 0.32130 0.29200 0.05900
H 	H 	0.39020 0.32530 0.22850 0.00500
C 	C 	0.09300 0.31410 0.28400 0.08100
H 	H 	0.12870 0.31100 0.21840 -0.01200
C 	C 	0.53720 0.32080 0.30300 0.06500
C 	C 	0.76190 0.37050 0.76400 0.12100
C 	C 	0.36960 0.29850 0.58320 0.35800
C 	C 	0.42530 0.30830 0.48120 -0.13000
C 	C 	0.09490 0.31310 0.47190 -0.15200
C 	C 	0.73320 0.53750 0.06300 0.00600
H 	H 	0.72550 0.53230 0.93940 0.06300
C 	C 	0.80200 0.41530 0.75700 -0.13200
H 	H 	0.83220 0.41810 0.84450 0.09000
C 	C 	0.74920 0.49820 0.36700 0.08000
C 	C 	0.48170 0.30290 0.57500 0.05100
H 	H 	0.48180 0.29530 0.69890 0.03400
C 	C 	0.73760 0.49250 0.17800 -0.11000
H 	H 	0.73280 0.45780 0.13010 0.06700
C 	C 	0.71730 0.40660 0.48120 0.00500
H 	H 	0.68930 0.40320 0.38750 0.03300
C 	C 	0.15130 0.30050 0.57810 0.39400
C 	C 	0.74020 0.58890 0.13000 -0.12900
C 	C 	0.74810 0.59620 0.31200 0.06700
H 	H 	0.74890 0.63130 0.35900 0.00400
C 	C 	0.75470 0.45250 0.48790 -0.04600
C 	C 	0.04120 0.31880 0.56910 0.06300
H 	H 	0.04160 0.31920 0.69570 0.02400
C 	C 	0.48100 0.32800 0.20480 -0.12400
H 	H 	0.48170 0.33720 0.08190 0.07800
C 	C 	0.87480 0.34850 0.27400 -0.07600
H 	H 	0.87750 0.36260 0.39070 0.05900
C 	C 	0.59490 0.32410 0.19920 0.00300
C 	C 	0.70420 0.33050 0.00470 -0.01200
C 	C 	0.03850 0.31970 0.19200 -0.13700
H 	H 	0.03810 0.32100 0.06550 0.07500
C 	C 	0.79770 0.45440 0.62660 0.01300
H 	H 	0.82450 0.48350 0.62980 0.03100
C 	C 	0.92610 0.32500 0.18480 0.03900
C 	C 	0.86490 0.30280 0.92160 0.04800
H 	H 	0.86150 0.28730 0.80660 0.02400
C 	C 	0.72120 0.36630 0.61060 -0.12000
H 	H 	0.69710 0.33550 0.59920 0.08000
C 	C 	0.64290 0.28730 0.23340 -0.09400
H 	H 	0.63860 0.26080 0.32270 0.06600
C 	C 	0.82020 0.34920 0.17680 -0.04500
H 	H 	0.78680 0.36550 0.23130 0.05200
C 	C 	0.75510 0.55140 0.43200 -0.13700
H 	H 	0.76380 0.55740 0.55390 0.09400
C 	C 	0.98710 0.32400 0.47580 -0.12800
H 	H 	0.95140 0.32810 0.54130 0.07500
C 	C 	0.53630 0.30870 0.48370 -0.12500
H 	H 	0.57240 0.30420 0.54660 0.07800
C 	C 	0.91910 0.30240 0.01140 -0.17900
H 	H 	0.95240 0.28650 0.95510 0.11100
C 	C 	0.65580 0.36800 0.96800 0.04000
C 	C 	0.81330 0.32750 0.00710 0.00400
C 	C 	0.60350 0.36410 0.06400 -0.04900
C 	C 	0.69600 0.29060 0.13520 0.01000
