data_crystal

_cell_length_a 11.84290
_cell_length_b 13.48290
_cell_length_c 11.69210
_cell_angle_alpha 90.00000
_cell_angle_beta  90.00000
_cell_angle_gamma 90.00000

_symmetry_space_group_name_	'P 1'
_symmetry_space_group_name_H-M	'P 1'

loop_
_symmetry_equiv_pos_as_xyz
  x,y,z

loop_
_atom_site_label
_atom_site_type_symbol
_atom_site_fract_x
_atom_site_fract_y
_atom_site_fract_z
_atom_site_charge
S 	S 	0.96153 0.74019 0.27910 0.63000
O 	O 	0.03580 0.82750 0.28470 -0.38600
O 	O 	0.91590 0.71420 0.38900 -0.29200
O 	O 	0.87820 0.74960 0.19140 -0.29700
C 	C 	0.04930 0.64070 0.24080 -0.26100
C 	C 	0.10840 0.57760 0.31490 -0.10000
H 	H 	0.10760 0.58050 0.39430 0.04200
C 	C 	0.16960 0.50900 0.24800 -0.17500
H 	H 	0.21620 0.45910 0.27590 0.08200
C 	C 	0.14760 0.52930 0.13050 -0.18200
H 	H 	0.17590 0.49350 0.06880 0.06800
C 	C 	0.07500 0.61340 0.12320 -0.10900
H 	H 	0.04950 0.64440 0.05700 0.04000
S 	S 	0.03847 0.25981 0.27910 0.37400
O 	O 	0.96420 0.17250 0.28470 -0.27100
O 	O 	0.08410 0.28580 0.38900 -0.27300
O 	O 	0.12180 0.25040 0.19140 -0.27900
C 	C 	0.95070 0.35930 0.24080 -0.10600
C 	C 	0.89160 0.42240 0.31490 -0.16000
H 	H 	0.89240 0.41950 0.39430 0.08800
C 	C 	0.83040 0.49100 0.24800 -0.13900
H 	H 	0.78380 0.54090 0.27590 0.07500
C 	C 	0.85240 0.47070 0.13050 -0.15800
H 	H 	0.82410 0.50650 0.06880 0.07300
C 	C 	0.92500 0.38660 0.12320 -0.15300
H 	H 	0.95050 0.35560 0.05700 0.08300
Fe	Fe	0.00000 0.50000 0.21339 1.12500
S 	S 	0.53847 0.24019 0.72090 0.51000
O 	O 	0.46420 0.32750 0.71530 -0.34000
O 	O 	0.58410 0.21420 0.61100 -0.28500
O 	O 	0.62180 0.24960 0.80860 -0.29200
C 	C 	0.45070 0.14070 0.75920 -0.20700
C 	C 	0.39160 0.07760 0.68510 -0.10500
H 	H 	0.39240 0.08050 0.60570 0.04700
C 	C 	0.33040 0.00900 0.75200 -0.21400
H 	H 	0.28380 0.95910 0.72410 0.12000
C 	C 	0.35240 0.02930 0.86950 -0.22800
H 	H 	0.32410 0.99350 0.93120 0.11500
C 	C 	0.42500 0.11340 0.87680 -0.10700
H 	H 	0.45050 0.14440 0.94300 0.04600
S 	S 	0.46153 0.75981 0.72090 0.50000
O 	O 	0.53580 0.67250 0.71530 -0.33500
O 	O 	0.41590 0.78580 0.61100 -0.28100
O 	O 	0.37820 0.75040 0.80860 -0.28900
C 	C 	0.54930 0.85930 0.75920 -0.16600
C 	C 	0.60840 0.92240 0.68510 -0.15400
H 	H 	0.60760 0.91950 0.60570 0.08200
C 	C 	0.66960 0.99100 0.75200 -0.10400
H 	H 	0.71620 0.04090 0.72410 0.04400
C 	C 	0.64760 0.97070 0.86950 -0.11300
H 	H 	0.67590 0.00650 0.93120 0.02700
C 	C 	0.57500 0.88660 0.87680 -0.15600
H 	H 	0.54950 0.85560 0.94300 0.07600
Fe	Fe	0.50000 0.00000 0.78661 1.13600
C 	C 	0.04610 0.92350 0.02570 0.06500
H 	H 	0.07860 0.87110 0.06550 0.01500
C 	C 	0.04570 0.92210 0.90700 -0.06800
H 	H 	0.07640 0.86830 0.86820 0.06100
C 	C 	0.94970 0.92440 0.65860 -0.02300
H 	H 	0.91510 0.87210 0.69680 0.07300
C 	C 	0.95070 0.92640 0.54000 0.12900
H 	H 	0.91610 0.87510 0.50000 0.01800
C 	C 	0.95390 0.07650 0.02570 0.10100
H 	H 	0.92140 0.12890 0.06550 0.01100
C 	C 	0.95430 0.07790 0.90700 -0.06100
H 	H 	0.92360 0.13170 0.86820 0.07300
C 	C 	0.05030 0.07560 0.65860 -0.10600
H 	H 	0.08490 0.12790 0.69680 0.07200
C 	C 	0.04930 0.07360 0.54000 0.03800
H 	H 	0.08390 0.12490 0.50000 0.02200
Cu	Cu	0.00000 -0.00000 0.28270 0.83800
N 	N 	0.00000 0.00000 0.08450 -0.23900
N 	N 	-0.00000 0.00000 0.48130 -0.24000
C 	C 	0.00000 -0.00000 0.84610 -0.02800
C 	C 	0.00000 -0.00000 0.72050 -0.03000
C 	C 	0.45390 0.42350 0.97430 0.06500
H 	H 	0.42140 0.37110 0.93450 0.01400
C 	C 	0.45430 0.42210 0.09300 -0.12200
H 	H 	0.42360 0.36830 0.13180 0.08000
C 	C 	0.55030 0.42440 0.34140 -0.12700
H 	H 	0.58490 0.37210 0.30320 0.08800
C 	C 	0.54930 0.42640 0.46000 0.07200
H 	H 	0.58390 0.37510 0.50000 0.02100
C 	C 	0.54610 0.57650 0.97430 0.06600
H 	H 	0.57860 0.62890 0.93450 0.01700
C 	C 	0.54570 0.57790 0.09300 -0.12200
H 	H 	0.57640 0.63170 0.13180 0.08300
C 	C 	0.44970 0.57560 0.34140 -0.12700
H 	H 	0.41510 0.62790 0.30320 0.08900
C 	C 	0.45070 0.57360 0.46000 0.07200
H 	H 	0.41610 0.62490 0.50000 0.02000
Cu	Cu	0.50000 0.50000 0.71730 0.86700
N 	N 	0.50000 0.50000 0.91550 -0.19000
N 	N 	0.50000 0.50000 0.51870 -0.19300
C 	C 	0.50000 0.50000 0.15390 0.05700
C 	C 	0.50000 0.50000 0.27950 0.05800
N 	N 	0.79810 0.99530 0.28530 -0.12700
C 	C 	0.73820 0.95540 0.20280 0.01000
H 	H 	0.77610 0.92360 0.14360 0.05200
C 	C 	0.62120 0.95820 0.19950 0.02900
H 	H 	0.58250 0.93140 0.13750 0.02400
C 	C 	0.56330 0.00040 0.28760 -0.13100
C 	C 	0.62440 0.04210 0.37470 -0.00800
H 	H 	0.58750 0.07110 0.43640 0.03500
C 	C 	0.74250 0.04090 0.37040 -0.02600
H 	H 	0.78340 0.07250 0.42770 0.04900
N 	N 	0.20190 0.00470 0.28530 -0.24100
C 	C 	0.26180 0.04460 0.20280 0.16000
H 	H 	0.22390 0.07640 0.14360 -0.02400
C 	C 	0.37880 0.04180 0.19950 -0.29900
H 	H 	0.41750 0.06860 0.13750 0.12400
C 	C 	0.43670 0.99960 0.28760 0.25300
C 	C 	0.37560 0.95790 0.37470 -0.25700
H 	H 	0.41250 0.92890 0.43640 0.13700
C 	C 	0.25750 0.95910 0.37040 0.18500
H 	H 	0.21660 0.92750 0.42770 -0.01900
N 	N 	0.70190 0.49530 0.71470 -0.20300
C 	C 	0.76180 0.45540 0.79720 0.12400
H 	H 	0.72390 0.42360 0.85640 -0.00200
C 	C 	0.87880 0.45820 0.80050 -0.19800
H 	H 	0.91750 0.43140 0.86250 0.10800
C 	C 	0.93670 0.50040 0.71240 0.17500
C 	C 	0.87560 0.54210 0.62530 -0.19500
H 	H 	0.91250 0.57110 0.56360 0.12300
C 	C 	0.75750 0.54090 0.62960 0.11600
H 	H 	0.71660 0.57250 0.57230 0.00100
N 	N 	0.29810 0.50470 0.71470 -0.17700
C 	C 	0.23820 0.54460 0.79720 0.04700
H 	H 	0.27610 0.57640 0.85640 0.02300
C 	C 	0.12120 0.54180 0.80050 -0.07200
H 	H 	0.08250 0.56860 0.86250 0.03800
C 	C 	0.06330 0.49960 0.71240 -0.05300
C 	C 	0.12440 0.45790 0.62530 -0.07000
H 	H 	0.08750 0.42890 0.56360 0.04900
C 	C 	0.24250 0.45910 0.62960 0.04200
H 	H 	0.28340 0.42750 0.57230 0.02300
