data_crystal

_cell_length_a 15.38270
_cell_length_b 20.96710
_cell_length_c 19.23000
_cell_angle_alpha 90.00000
_cell_angle_beta  109.48700
_cell_angle_gamma 90.00000

_symmetry_space_group_name_	'P 1'
_symmetry_space_group_name_H-M	'P 1'

loop_
_symmetry_equiv_pos_as_xyz
  x,y,z

loop_
_atom_site_label
_atom_site_type_symbol
_atom_site_fract_x
_atom_site_fract_y
_atom_site_fract_z
_atom_site_charge
Zn	Zn	0.78537 0.74659 0.06359 1.21700
Zn	Zn	0.70245 0.75435 0.90116 1.21600
O 	O 	0.69520 0.67137 0.04360 -0.45400
O 	O 	0.61180 0.69512 0.92680 -0.45600
O 	O 	0.87130 0.68670 0.03530 -0.45400
O 	O 	0.78610 0.67580 0.91590 -0.45900
O 	O 	0.84790 0.82120 0.02940 -0.45900
O 	O 	0.80630 0.81520 0.90610 -0.44900
O 	O 	0.68410 0.80820 0.06070 -0.45500
O 	O 	0.64290 0.82823 0.93900 -0.45600
N 	N 	0.85360 0.74570 0.17370 -0.26800
N 	N 	0.63450 0.74650 0.29000 -0.26800
C 	C 	0.83940 0.78950 0.21870 0.11900
H 	H 	0.79500 0.82060 0.19880 -0.01300
C 	C 	0.91660 0.70160 0.20450 0.11400
H 	H 	0.92710 0.67000 0.17430 -0.01100
C 	C 	0.88720 0.79120 0.29350 -0.20100
H 	H 	0.87320 0.82190 0.32300 0.11400
C 	C 	0.96760 0.69980 0.27900 -0.19200
H 	H 	0.00940 0.66690 0.29810 0.10300
C 	C 	0.95590 0.74700 0.32440 0.15400
C 	C 	0.00970 0.74900 0.40160 -0.07300
C 	C 	0.05560 0.75020 0.46480 0.03900
C 	C 	0.12060 0.74140 0.54000 -0.01300
C 	C 	0.07740 0.75430 0.59110 0.01000
C 	C 	0.21600 0.73330 0.56280 -0.00000
C 	C 	0.13170 0.75410 0.66780 0.01100
C 	C 	0.26740 0.73580 0.63670 -0.00400
C 	C 	0.22840 0.74530 0.69040 -0.00800
C 	C 	0.28100 0.74640 0.77010 -0.00000
C 	C 	0.24810 0.71940 0.82170 0.01000
C 	C 	0.35700 0.76400 0.79590 -0.00700
C 	C 	0.29980 0.72070 0.89630 -0.01100
C 	C 	0.40900 0.76070 0.86930 -0.00600
C 	C 	0.09960 0.76010 0.54470 -0.00400
C 	C 	0.06700 0.72600 0.59490 -0.00300
C 	C 	0.17060 0.79840 0.57080 -0.00100
C 	C 	0.11800 0.72530 0.66870 -0.01800
C 	C 	0.22380 0.79920 0.64720 -0.00700
C 	C 	0.20230 0.76060 0.69460 0.00600
C 	C 	0.25850 0.76050 0.77550 -0.00200
C 	C 	0.21860 0.75090 0.82870 -0.01700
C 	C 	0.37000 0.77870 0.79310 -0.00000
C 	C 	0.27380 0.74810 0.90460 0.01000
C 	C 	0.42230 0.77970 0.86820 0.01000
C 	C 	0.37860 0.75200 0.92250 -0.01400
C 	C 	0.43320 0.75060 0.99930 0.03800
C 	C 	0.48050 0.74950 0.06310 -0.07300
C 	C 	0.53410 0.74840 0.13980 0.16000
C 	C 	0.60490 0.70620 0.16890 -0.21400
H 	H 	0.62070 0.67720 0.13850 0.11800
C 	C 	0.51880 0.79260 0.18770 -0.19700
H 	H 	0.47470 0.82430 0.16990 0.10600
C 	C 	0.56840 0.78980 0.26160 0.11400
H 	H 	0.55560 0.81920 0.29300 -0.00900
C 	C 	0.65230 0.70690 0.24330 0.13100
H 	H 	0.70000 0.67770 0.26190 -0.01800
C 	C 	0.62910 0.66250 0.98370 0.37300
C 	C 	0.56880 0.60470 0.98060 -0.07800
C 	C 	0.49050 0.59560 0.91770 0.01300
H 	H 	0.47430 0.62610 0.88050 0.04300
C 	C 	0.59140 0.56150 0.03700 -0.03800
H 	H 	0.64180 0.56940 0.07900 0.05800
C 	C 	0.43780 0.54110 0.91130 -0.08900
H 	H 	0.38670 0.53480 0.86940 0.06500
C 	C 	0.53910 0.50470 0.03240 0.02800
C 	C 	0.84840 0.65860 0.97440 0.37100
C 	C 	0.89770 0.59680 0.97090 -0.08100
C 	C 	0.86720 0.55770 0.90800 0.01500
H 	H 	0.81840 0.57080 0.86700 0.03700
C 	C 	0.97050 0.57890 0.03090 -0.03400
H 	H 	0.99060 0.60560 0.07170 0.06100
C 	C 	0.90910 0.50080 0.90700 -0.09000
H 	H 	0.88820 0.47500 0.86550 0.06500
C 	C 	0.01570 0.51960 0.03120 0.02600
C 	C 	0.84960 0.83990 0.96800 0.37200
C 	C 	0.90730 0.89790 0.96810 -0.07700
C 	C 	0.91810 0.92020 0.90160 0.01300
H 	H 	0.89210 0.89750 0.85810 0.04100
C 	C 	0.94640 0.93200 0.03250 -0.03800
H 	H 	0.94030 0.91680 0.07610 0.06200
C 	C 	0.96640 0.97500 0.90120 -0.09300
H 	H 	0.97390 0.98850 0.85750 0.06400
C 	C 	0.99500 0.98860 0.03400 0.03100
C 	C 	0.64220 0.83940 0.00290 0.37400
C 	C 	0.58940 0.89680 0.01360 -0.07400
C 	C 	0.54760 0.93670 0.95500 -0.04000
H 	H 	0.54960 0.92650 0.90850 0.06200
C 	C 	0.58500 0.91160 0.08430 0.01100
H 	H 	0.61310 0.88480 0.12390 0.04300
C 	C 	0.50140 0.99320 0.96430 0.02800
C 	C 	0.53990 0.96480 0.09470 -0.08700
H 	H 	0.53630 0.97350 0.14120 0.06300
Zn	Zn	0.21463 0.24659 0.43641 1.21600
Zn	Zn	0.29755 0.25435 0.59884 1.21500
O 	O 	0.30480 0.17137 0.45640 -0.45500
O 	O 	0.38820 0.19512 0.57320 -0.45700
O 	O 	0.12870 0.18670 0.46470 -0.45600
O 	O 	0.21390 0.17580 0.58410 -0.45900
O 	O 	0.15210 0.32120 0.47060 -0.46000
O 	O 	0.19370 0.31520 0.59390 -0.44900
O 	O 	0.31590 0.30820 0.43930 -0.45500
O 	O 	0.35710 0.32823 0.56100 -0.45500
N 	N 	0.14640 0.24570 0.32630 -0.26800
N 	N 	0.36550 0.24650 0.21000 -0.26800
C 	C 	0.16060 0.28950 0.28130 0.11800
H 	H 	0.20500 0.32060 0.30120 -0.01300
C 	C 	0.08340 0.20160 0.29550 0.11500
H 	H 	0.07290 0.17000 0.32570 -0.01200
C 	C 	0.11280 0.29120 0.20650 -0.20100
H 	H 	0.12680 0.32190 0.17700 0.11400
C 	C 	0.03240 0.19980 0.22100 -0.19400
H 	H 	0.99060 0.16690 0.20190 0.10400
C 	C 	0.04410 0.24700 0.17560 0.15300
C 	C 	0.99030 0.24900 0.09840 -0.07200
C 	C 	0.94440 0.25020 0.03520 0.03900
C 	C 	0.87940 0.24140 0.96000 -0.01300
C 	C 	0.92260 0.25430 0.90890 0.01000
C 	C 	0.78400 0.23330 0.93720 -0.00000
C 	C 	0.86830 0.25410 0.83220 0.01200
C 	C 	0.73260 0.23580 0.86330 -0.00300
C 	C 	0.77160 0.24530 0.80960 -0.00900
C 	C 	0.71900 0.24640 0.72990 -0.00000
C 	C 	0.75190 0.21940 0.67830 0.01000
C 	C 	0.64300 0.26400 0.70410 -0.00700
C 	C 	0.70020 0.22070 0.60370 -0.01100
C 	C 	0.59100 0.26070 0.63070 -0.00600
C 	C 	0.90040 0.26010 0.95530 -0.00400
C 	C 	0.93300 0.22600 0.90510 -0.00400
C 	C 	0.82940 0.29840 0.92920 -0.00100
C 	C 	0.88200 0.22530 0.83130 -0.02000
C 	C 	0.77620 0.29920 0.85280 -0.00800
C 	C 	0.79770 0.26060 0.80540 0.00700
C 	C 	0.74150 0.26050 0.72450 -0.00200
C 	C 	0.78140 0.25090 0.67130 -0.01700
C 	C 	0.63000 0.27870 0.70690 -0.00000
C 	C 	0.72620 0.24810 0.59540 0.01000
C 	C 	0.57770 0.27970 0.63180 0.01000
C 	C 	0.62140 0.25200 0.57750 -0.01400
C 	C 	0.56680 0.25060 0.50070 0.03800
C 	C 	0.51950 0.24950 0.43690 -0.07400
C 	C 	0.46590 0.24840 0.36020 0.16100
C 	C 	0.39510 0.20620 0.33110 -0.21400
H 	H 	0.37930 0.17720 0.36150 0.11800
C 	C 	0.48120 0.29260 0.31230 -0.19800
H 	H 	0.52530 0.32430 0.33010 0.10600
C 	C 	0.43160 0.28980 0.23840 0.11400
H 	H 	0.44440 0.31920 0.20700 -0.00900
C 	C 	0.34770 0.20690 0.25670 0.13100
H 	H 	0.30000 0.17770 0.23810 -0.01800
C 	C 	0.37090 0.16250 0.51630 0.37400
C 	C 	0.43120 0.10470 0.51940 -0.07700
C 	C 	0.50950 0.09560 0.58230 0.01200
H 	H 	0.52570 0.12610 0.61950 0.04300
C 	C 	0.40860 0.06150 0.46300 -0.03900
H 	H 	0.35820 0.06940 0.42100 0.05800
C 	C 	0.56220 0.04110 0.58870 -0.08900
H 	H 	0.61330 0.03480 0.63060 0.06500
C 	C 	0.46090 0.00470 0.46760 0.02800
C 	C 	0.15160 0.15860 0.52560 0.37200
C 	C 	0.10230 0.09680 0.52910 -0.07800
C 	C 	0.13280 0.05770 0.59200 0.01300
H 	H 	0.18160 0.07080 0.63300 0.03800
C 	C 	0.02950 0.07890 0.46910 -0.03700
H 	H 	0.00940 0.10560 0.42830 0.06200
C 	C 	0.09090 0.00080 0.59300 -0.08700
H 	H 	0.11180 0.97500 0.63450 0.06300
C 	C 	0.98430 0.01960 0.46880 0.02600
C 	C 	0.15040 0.33990 0.53200 0.37300
C 	C 	0.09270 0.39790 0.53190 -0.07500
C 	C 	0.08190 0.42020 0.59840 0.01100
H 	H 	0.10790 0.39750 0.64190 0.04200
C 	C 	0.05360 0.43200 0.46750 -0.04000
H 	H 	0.05970 0.41680 0.42390 0.06200
C 	C 	0.03360 0.47500 0.59880 -0.08900
H 	H 	0.02610 0.48850 0.64250 0.06400
C 	C 	0.00500 0.48860 0.46600 0.02900
C 	C 	0.35780 0.33940 0.49710 0.37300
C 	C 	0.41060 0.39680 0.48640 -0.07500
C 	C 	0.45240 0.43670 0.54500 -0.03900
H 	H 	0.45040 0.42650 0.59150 0.06200
C 	C 	0.41500 0.41160 0.41570 0.01100
H 	H 	0.38690 0.38480 0.37610 0.04300
C 	C 	0.49860 0.49320 0.53570 0.02800
C 	C 	0.46010 0.46480 0.40530 -0.08900
H 	H 	0.46370 0.47350 0.35880 0.06300
Zn	Zn	0.21463 0.25341 0.93641 1.21600
Zn	Zn	0.29755 0.24565 0.09884 1.21500
O 	O 	0.30480 0.32863 0.95640 -0.45500
O 	O 	0.38820 0.30488 0.07320 -0.45700
O 	O 	0.12870 0.31330 0.96470 -0.45400
O 	O 	0.21390 0.32420 0.08410 -0.45900
O 	O 	0.15210 0.17880 0.97060 -0.45900
O 	O 	0.19370 0.18480 0.09390 -0.44900
O 	O 	0.31590 0.19180 0.93930 -0.45500
O 	O 	0.35710 0.17177 0.06100 -0.45600
N 	N 	0.14640 0.25430 0.82630 -0.26800
N 	N 	0.36550 0.25350 0.71000 -0.26800
C 	C 	0.16060 0.21050 0.78130 0.11900
H 	H 	0.20500 0.17940 0.80120 -0.01300
C 	C 	0.08340 0.29840 0.79550 0.11400
H 	H 	0.07290 0.33000 0.82570 -0.01100
C 	C 	0.11280 0.20880 0.70650 -0.20100
H 	H 	0.12680 0.17810 0.67700 0.11400
C 	C 	0.03240 0.30020 0.72100 -0.19200
H 	H 	0.99060 0.33310 0.70190 0.10300
C 	C 	0.04410 0.25300 0.67560 0.15400
C 	C 	0.99030 0.25100 0.59840 -0.07300
C 	C 	0.94440 0.24980 0.53520 0.03900
C 	C 	0.87940 0.25860 0.46000 -0.01300
C 	C 	0.92260 0.24570 0.40890 0.01000
C 	C 	0.78400 0.26670 0.43720 -0.00000
C 	C 	0.86830 0.24590 0.33220 0.01100
C 	C 	0.73260 0.26420 0.36330 -0.00400
C 	C 	0.77160 0.25470 0.30960 -0.00800
C 	C 	0.71900 0.25360 0.22990 -0.00000
C 	C 	0.75190 0.28060 0.17830 0.01000
C 	C 	0.64300 0.23600 0.20410 -0.00700
C 	C 	0.70020 0.27930 0.10370 -0.01100
C 	C 	0.59100 0.23930 0.13070 -0.00600
C 	C 	0.90040 0.23990 0.45530 -0.00400
C 	C 	0.93300 0.27400 0.40510 -0.00300
C 	C 	0.82940 0.20160 0.42920 -0.00100
C 	C 	0.88200 0.27470 0.33130 -0.01800
C 	C 	0.77620 0.20080 0.35280 -0.00700
C 	C 	0.79770 0.23940 0.30540 0.00600
C 	C 	0.74150 0.23950 0.22450 -0.00200
C 	C 	0.78140 0.24910 0.17130 -0.01700
C 	C 	0.63000 0.22130 0.20690 -0.00000
C 	C 	0.72620 0.25190 0.09540 0.01000
C 	C 	0.57770 0.22030 0.13180 0.01000
C 	C 	0.62140 0.24800 0.07750 -0.01400
C 	C 	0.56680 0.24940 0.00070 0.03800
C 	C 	0.51950 0.25050 0.93690 -0.07300
C 	C 	0.46590 0.25160 0.86020 0.16000
C 	C 	0.39510 0.29380 0.83110 -0.21400
H 	H 	0.37930 0.32280 0.86150 0.11800
C 	C 	0.48120 0.20740 0.81230 -0.19700
H 	H 	0.52530 0.17570 0.83010 0.10600
C 	C 	0.43160 0.21020 0.73840 0.11400
H 	H 	0.44440 0.18080 0.70700 -0.00900
C 	C 	0.34770 0.29310 0.75670 0.13100
H 	H 	0.30000 0.32230 0.73810 -0.01800
C 	C 	0.37090 0.33750 0.01630 0.37300
C 	C 	0.43120 0.39530 0.01940 -0.07800
C 	C 	0.50950 0.40440 0.08230 0.01300
H 	H 	0.52570 0.37390 0.11950 0.04300
C 	C 	0.40860 0.43850 0.96300 -0.03800
H 	H 	0.35820 0.43060 0.92100 0.05800
C 	C 	0.56220 0.45890 0.08870 -0.08900
H 	H 	0.61330 0.46520 0.13060 0.06500
C 	C 	0.46090 0.49530 0.96760 0.02800
C 	C 	0.15160 0.34140 0.02560 0.37100
C 	C 	0.10230 0.40320 0.02910 -0.08100
C 	C 	0.13280 0.44230 0.09200 0.01500
H 	H 	0.18160 0.42920 0.13300 0.03700
C 	C 	0.02950 0.42110 0.96910 -0.03400
H 	H 	0.00940 0.39440 0.92830 0.06100
C 	C 	0.09090 0.49920 0.09300 -0.09000
H 	H 	0.11180 0.52500 0.13450 0.06500
C 	C 	0.98430 0.48040 0.96880 0.02600
C 	C 	0.15040 0.16010 0.03200 0.37200
C 	C 	0.09270 0.10210 0.03190 -0.07700
C 	C 	0.08190 0.07980 0.09840 0.01300
H 	H 	0.10790 0.10250 0.14190 0.04100
C 	C 	0.05360 0.06800 0.96750 -0.03800
H 	H 	0.05970 0.08320 0.92390 0.06200
C 	C 	0.03360 0.02500 0.09880 -0.09300
H 	H 	0.02610 0.01150 0.14250 0.06400
C 	C 	0.00500 0.01140 0.96600 0.03100
C 	C 	0.35780 0.16060 0.99710 0.37400
C 	C 	0.41060 0.10320 0.98640 -0.07400
C 	C 	0.45240 0.06330 0.04500 -0.04000
H 	H 	0.45040 0.07350 0.09150 0.06200
C 	C 	0.41500 0.08840 0.91570 0.01100
H 	H 	0.38690 0.11520 0.87610 0.04300
C 	C 	0.49860 0.00680 0.03570 0.02800
C 	C 	0.46010 0.03520 0.90530 -0.08700
H 	H 	0.46370 0.02650 0.85880 0.06300
Zn	Zn	0.78537 0.75341 0.56359 1.21600
Zn	Zn	0.70245 0.74565 0.40116 1.21500
O 	O 	0.69520 0.82863 0.54360 -0.45500
O 	O 	0.61180 0.80488 0.42680 -0.45700
O 	O 	0.87130 0.81330 0.53530 -0.45600
O 	O 	0.78610 0.82420 0.41590 -0.45900
O 	O 	0.84790 0.67880 0.52940 -0.46000
O 	O 	0.80630 0.68480 0.40610 -0.44900
O 	O 	0.68410 0.69180 0.56070 -0.45500
O 	O 	0.64290 0.67177 0.43900 -0.45500
N 	N 	0.85360 0.75430 0.67370 -0.26800
N 	N 	0.63450 0.75350 0.79000 -0.26800
C 	C 	0.83940 0.71050 0.71870 0.11800
H 	H 	0.79500 0.67940 0.69880 -0.01300
C 	C 	0.91660 0.79840 0.70450 0.11500
H 	H 	0.92710 0.83000 0.67430 -0.01200
C 	C 	0.88720 0.70880 0.79350 -0.20100
H 	H 	0.87320 0.67810 0.82300 0.11400
C 	C 	0.96760 0.80020 0.77900 -0.19400
H 	H 	0.00940 0.83310 0.79810 0.10400
C 	C 	0.95590 0.75300 0.82440 0.15300
C 	C 	0.00970 0.75100 0.90160 -0.07200
C 	C 	0.05560 0.74980 0.96480 0.03900
C 	C 	0.12060 0.75860 0.04000 -0.01300
C 	C 	0.07740 0.74570 0.09110 0.01000
C 	C 	0.21600 0.76670 0.06280 -0.00000
C 	C 	0.13170 0.74590 0.16780 0.01200
C 	C 	0.26740 0.76420 0.13670 -0.00300
C 	C 	0.22840 0.75470 0.19040 -0.00900
C 	C 	0.28100 0.75360 0.27010 -0.00000
C 	C 	0.24810 0.78060 0.32170 0.01000
C 	C 	0.35700 0.73600 0.29590 -0.00700
C 	C 	0.29980 0.77930 0.39630 -0.01100
C 	C 	0.40900 0.73930 0.36930 -0.00600
C 	C 	0.09960 0.73990 0.04470 -0.00400
C 	C 	0.06700 0.77400 0.09490 -0.00400
C 	C 	0.17060 0.70160 0.07080 -0.00100
C 	C 	0.11800 0.77470 0.16870 -0.02000
C 	C 	0.22380 0.70080 0.14720 -0.00800
C 	C 	0.20230 0.73940 0.19460 0.00700
C 	C 	0.25850 0.73950 0.27550 -0.00200
C 	C 	0.21860 0.74910 0.32870 -0.01700
C 	C 	0.37000 0.72130 0.29310 -0.00000
C 	C 	0.27380 0.75190 0.40460 0.01000
C 	C 	0.42230 0.72030 0.36820 0.01000
C 	C 	0.37860 0.74800 0.42250 -0.01400
C 	C 	0.43320 0.74940 0.49930 0.03800
C 	C 	0.48050 0.75050 0.56310 -0.07400
C 	C 	0.53410 0.75160 0.63980 0.16100
C 	C 	0.60490 0.79380 0.66890 -0.21400
H 	H 	0.62070 0.82280 0.63850 0.11800
C 	C 	0.51880 0.70740 0.68770 -0.19800
H 	H 	0.47470 0.67570 0.66990 0.10600
C 	C 	0.56840 0.71020 0.76160 0.11400
H 	H 	0.55560 0.68080 0.79300 -0.00900
C 	C 	0.65230 0.79310 0.74330 0.13100
H 	H 	0.70000 0.82230 0.76190 -0.01800
C 	C 	0.62910 0.83750 0.48370 0.37400
C 	C 	0.56880 0.89530 0.48060 -0.07700
C 	C 	0.49050 0.90440 0.41770 0.01200
H 	H 	0.47430 0.87390 0.38050 0.04300
C 	C 	0.59140 0.93850 0.53700 -0.03900
H 	H 	0.64180 0.93060 0.57900 0.05800
C 	C 	0.43780 0.95890 0.41130 -0.08900
H 	H 	0.38670 0.96520 0.36940 0.06500
C 	C 	0.53910 0.99530 0.53240 0.02800
C 	C 	0.84840 0.84140 0.47440 0.37200
C 	C 	0.89770 0.90320 0.47090 -0.07800
C 	C 	0.86720 0.94230 0.40800 0.01300
H 	H 	0.81840 0.92920 0.36700 0.03800
C 	C 	0.97050 0.92110 0.53090 -0.03700
H 	H 	0.99060 0.89440 0.57170 0.06200
C 	C 	0.90910 0.99920 0.40700 -0.08700
H 	H 	0.88820 0.02500 0.36550 0.06300
C 	C 	0.01570 0.98040 0.53120 0.02600
C 	C 	0.84960 0.66010 0.46800 0.37300
C 	C 	0.90730 0.60210 0.46810 -0.07500
C 	C 	0.91810 0.57980 0.40160 0.01100
H 	H 	0.89210 0.60250 0.35810 0.04200
C 	C 	0.94640 0.56800 0.53250 -0.04000
H 	H 	0.94030 0.58320 0.57610 0.06200
C 	C 	0.96640 0.52500 0.40120 -0.08900
H 	H 	0.97390 0.51150 0.35750 0.06400
C 	C 	0.99500 0.51140 0.53400 0.02900
C 	C 	0.64220 0.66060 0.50290 0.37300
C 	C 	0.58940 0.60320 0.51360 -0.07500
C 	C 	0.54760 0.56330 0.45500 -0.03900
H 	H 	0.54960 0.57350 0.40850 0.06200
C 	C 	0.58500 0.58840 0.58430 0.01100
H 	H 	0.61310 0.61520 0.62390 0.04300
C 	C 	0.50140 0.50680 0.46430 0.02800
C 	C 	0.53990 0.53520 0.59470 -0.08900
H 	H 	0.53630 0.52650 0.64120 0.06300
