data_crystal

_cell_length_a 18.35320
_cell_length_b 18.35320
_cell_length_c 40.66700
_cell_angle_alpha 90.00000
_cell_angle_beta  90.00000
_cell_angle_gamma 120.00000

_symmetry_space_group_name_	'P 1'
_symmetry_space_group_name_H-M	'P 1'

loop_
_symmetry_equiv_pos_as_xyz
  x,y,z

loop_
_atom_site_label
_atom_site_type_symbol
_atom_site_fract_x
_atom_site_fract_y
_atom_site_fract_z
_atom_site_charge
O 	O 	0.58730 0.02510 0.04367 -0.40500
O 	O 	0.62914 0.10936 0.99942 -0.40000
O 	O 	0.89130 0.00000 0.21120 -0.28900
O 	O 	0.86490 0.84630 0.27850 -0.20100
C 	C 	0.63980 0.08840 0.02845 0.37400
C 	C 	0.72230 0.14470 0.04314 -0.13900
C 	C 	0.74540 0.12430 0.07198 0.06700
H 	H 	0.70910 0.07290 0.08180 0.01900
C 	C 	0.90080 0.68770 0.35830 0.03300
H 	H 	0.91880 0.64910 0.36170 0.01600
C 	C 	0.92640 0.74030 0.32940 -0.08700
H 	H 	0.96250 0.73710 0.31420 0.06900
C 	C 	0.81980 0.07230 0.12550 -0.36200
H 	H 	0.78310 0.03130 0.11090 0.15900
C 	C 	0.84240 0.04760 0.15330 0.34200
H 	H 	0.81900 0.99030 0.15730 -0.09000
O 	O 	0.97490 0.56220 0.04367 -0.42200
O 	O 	0.89064 0.51978 0.99942 -0.40900
O 	O 	0.00000 0.89130 0.21120 -0.25300
O 	O 	0.15370 0.01860 0.27850 -0.21000
C 	C 	0.91160 0.55140 0.02845 0.36900
C 	C 	0.85530 0.57760 0.04314 -0.12900
C 	C 	0.87570 0.62110 0.07198 0.04100
H 	H 	0.92710 0.63620 0.08180 0.02500
C 	C 	0.31230 0.21310 0.35830 0.31900
H 	H 	0.35090 0.26970 0.36170 -0.08300
C 	C 	0.25970 0.18610 0.32940 -0.42500
H 	H 	0.26290 0.22540 0.31420 0.19600
C 	C 	0.92770 0.74750 0.12550 -0.25200
H 	H 	0.96870 0.75180 0.11090 0.11100
C 	C 	0.95240 0.79480 0.15330 0.17200
H 	H 	0.00970 0.82870 0.15730 -0.00200
O 	O 	0.43780 0.41270 0.04367 -0.41600
O 	O 	0.48022 0.37086 0.99942 -0.40600
O 	O 	0.10870 0.10870 0.21120 -0.30100
O 	O 	0.98140 0.13510 0.27850 -0.24700
C 	C 	0.44860 0.36020 0.02845 0.38100
C 	C 	0.42240 0.27770 0.04314 -0.15700
C 	C 	0.37890 0.25460 0.07198 0.09800
H 	H 	0.36380 0.29090 0.08180 0.00500
C 	C 	0.78690 0.09920 0.35830 0.05300
H 	H 	0.73030 0.08120 0.36170 0.01200
C 	C 	0.81390 0.07360 0.32940 -0.15200
H 	H 	0.77460 0.03750 0.31420 0.10300
C 	C 	0.25250 0.18020 0.12550 -0.72600
H 	H 	0.24820 0.21690 0.11090 0.28200
C 	C 	0.20520 0.15760 0.15330 0.67200
H 	H 	0.17130 0.18100 0.15730 -0.18000
O 	O 	0.41270 0.97490 0.54367 -0.42300
O 	O 	0.37086 0.89064 0.49942 -0.40900
O 	O 	0.10870 0.00000 0.71120 -0.24700
O 	O 	0.13510 0.15370 0.77850 -0.21100
C 	C 	0.36020 0.91160 0.52845 0.37500
C 	C 	0.27770 0.85530 0.54314 -0.14300
C 	C 	0.25460 0.87570 0.57198 0.06900
H 	H 	0.29090 0.92710 0.58180 0.01400
C 	C 	0.09920 0.31230 0.85830 0.23400
H 	H 	0.08120 0.35090 0.86170 -0.05100
C 	C 	0.07360 0.25970 0.82940 -0.35400
H 	H 	0.03750 0.26290 0.81420 0.17600
C 	C 	0.18020 0.92770 0.62550 -0.52400
H 	H 	0.21690 0.96870 0.61090 0.20700
C 	C 	0.15760 0.95240 0.65330 0.44000
H 	H 	0.18100 0.00970 0.65730 -0.08900
O 	O 	0.02510 0.43780 0.54367 -0.40700
O 	O 	0.10936 0.48022 0.49942 -0.40200
O 	O 	0.00000 0.10870 0.71120 -0.29300
O 	O 	0.84630 0.98140 0.77850 -0.24400
C 	C 	0.08840 0.44860 0.52845 0.38000
C 	C 	0.14470 0.42240 0.54314 -0.15500
C 	C 	0.12430 0.37890 0.57198 0.09800
H 	H 	0.07290 0.36380 0.58180 0.00800
C 	C 	0.68770 0.78690 0.85830 -0.04400
H 	H 	0.64910 0.73030 0.86170 0.04500
C 	C 	0.74030 0.81390 0.82940 -0.02200
H 	H 	0.73710 0.77460 0.81420 0.05000
C 	C 	0.07230 0.25250 0.62550 -0.64100
H 	H 	0.03130 0.24820 0.61090 0.25700
C 	C 	0.04760 0.20520 0.65330 0.62100
H 	H 	0.99030 0.17130 0.65730 -0.18100
O 	O 	0.56220 0.58730 0.54367 -0.41400
O 	O 	0.51978 0.62914 0.49942 -0.40500
O 	O 	0.89130 0.89130 0.71120 -0.30400
O 	O 	0.01860 0.86490 0.77850 -0.20300
C 	C 	0.55140 0.63980 0.52845 0.36800
C 	C 	0.57760 0.72230 0.54314 -0.12700
C 	C 	0.62110 0.74540 0.57198 0.04000
H 	H 	0.63620 0.70910 0.58180 0.02700
C 	C 	0.21310 0.90080 0.85830 0.21500
H 	H 	0.26970 0.91880 0.86170 -0.04800
C 	C 	0.18610 0.92640 0.82940 -0.29000
H 	H 	0.22540 0.96250 0.81420 0.14300
C 	C 	0.74750 0.81980 0.62550 -0.17500
H 	H 	0.75180 0.78310 0.61090 0.08900
C 	C 	0.79480 0.84240 0.65330 0.12500
H 	H 	0.82870 0.81900 0.65730 -0.00200
O 	O 	0.02510 0.58730 0.95633 -0.40600
O 	O 	0.10936 0.62914 0.00058 -0.40100
O 	O 	0.00000 0.89130 0.78880 -0.29000
O 	O 	0.84630 0.86490 0.72150 -0.20200
C 	C 	0.08840 0.63980 0.97155 0.37300
C 	C 	0.14470 0.72230 0.95686 -0.14000
C 	C 	0.12430 0.74540 0.92802 0.06700
H 	H 	0.07290 0.70910 0.91820 0.01900
C 	C 	0.68770 0.90080 0.64170 0.03300
H 	H 	0.64910 0.91880 0.63830 0.01600
C 	C 	0.74030 0.92640 0.67060 -0.08700
H 	H 	0.73710 0.96250 0.68580 0.06900
C 	C 	0.07230 0.81980 0.87450 -0.36200
H 	H 	0.03130 0.78310 0.88910 0.15900
C 	C 	0.04760 0.84240 0.84670 0.34200
H 	H 	0.99030 0.81900 0.84270 -0.09000
O 	O 	0.56220 0.97490 0.95633 -0.42200
O 	O 	0.51978 0.89064 0.00058 -0.40900
O 	O 	0.89130 0.00000 0.78880 -0.25300
O 	O 	0.01860 0.15370 0.72150 -0.21000
C 	C 	0.55140 0.91160 0.97155 0.36900
C 	C 	0.57760 0.85530 0.95686 -0.12900
C 	C 	0.62110 0.87570 0.92802 0.04100
H 	H 	0.63620 0.92710 0.91820 0.02500
C 	C 	0.21310 0.31230 0.64170 0.31900
H 	H 	0.26970 0.35090 0.63830 -0.08300
C 	C 	0.18610 0.25970 0.67060 -0.42500
H 	H 	0.22540 0.26290 0.68580 0.19600
C 	C 	0.74750 0.92770 0.87450 -0.25200
H 	H 	0.75180 0.96870 0.88910 0.11100
C 	C 	0.79480 0.95240 0.84670 0.17200
H 	H 	0.82870 0.00970 0.84270 -0.00200
O 	O 	0.41270 0.43780 0.95633 -0.41600
O 	O 	0.37086 0.48022 0.00058 -0.40600
O 	O 	0.10870 0.10870 0.78880 -0.30100
O 	O 	0.13510 0.98140 0.72150 -0.24700
C 	C 	0.36020 0.44860 0.97155 0.38100
C 	C 	0.27770 0.42240 0.95686 -0.15700
C 	C 	0.25460 0.37890 0.92802 0.09800
H 	H 	0.29090 0.36380 0.91820 0.00500
C 	C 	0.09920 0.78690 0.64170 0.05300
H 	H 	0.08120 0.73030 0.63830 0.01200
C 	C 	0.07360 0.81390 0.67060 -0.15200
H 	H 	0.03750 0.77460 0.68580 0.10300
C 	C 	0.18020 0.25250 0.87450 -0.72600
H 	H 	0.21690 0.24820 0.88910 0.28200
C 	C 	0.15760 0.20520 0.84670 0.67200
H 	H 	0.18100 0.17130 0.84270 -0.18000
O 	O 	0.97490 0.41270 0.45633 -0.42300
O 	O 	0.89064 0.37086 0.50058 -0.40900
O 	O 	-0.00000 0.10870 0.28880 -0.24700
O 	O 	0.15370 0.13510 0.22150 -0.21100
C 	C 	0.91160 0.36020 0.47155 0.37500
C 	C 	0.85530 0.27770 0.45686 -0.14300
C 	C 	0.87570 0.25460 0.42802 0.06900
H 	H 	0.92710 0.29090 0.41820 0.01400
C 	C 	0.31230 0.09920 0.14170 0.23400
H 	H 	0.35090 0.08120 0.13830 -0.05100
C 	C 	0.25970 0.07360 0.17060 -0.35400
H 	H 	0.26290 0.03750 0.18580 0.17600
C 	C 	0.92770 0.18020 0.37450 -0.52400
H 	H 	0.96870 0.21690 0.38910 0.20700
C 	C 	0.95240 0.15760 0.34670 0.44000
H 	H 	0.00970 0.18100 0.34270 -0.08900
O 	O 	0.43780 0.02510 0.45633 -0.40700
O 	O 	0.48022 0.10936 0.50058 -0.40200
O 	O 	0.10870 0.00000 0.28880 -0.29300
O 	O 	0.98140 0.84630 0.22150 -0.24400
C 	C 	0.44860 0.08840 0.47155 0.38000
C 	C 	0.42240 0.14470 0.45686 -0.15500
C 	C 	0.37890 0.12430 0.42802 0.09800
H 	H 	0.36380 0.07290 0.41820 0.00800
C 	C 	0.78690 0.68770 0.14170 -0.04400
H 	H 	0.73030 0.64910 0.13830 0.04500
C 	C 	0.81390 0.74030 0.17060 -0.02200
H 	H 	0.77460 0.73710 0.18580 0.05000
C 	C 	0.25250 0.07230 0.37450 -0.64100
H 	H 	0.24820 0.03130 0.38910 0.25700
C 	C 	0.20520 0.04760 0.34670 0.62100
H 	H 	0.17130 0.99030 0.34270 -0.18100
O 	O 	0.58730 0.56220 0.45633 -0.41400
O 	O 	0.62914 0.51978 0.50058 -0.40500
O 	O 	0.89130 0.89130 0.28880 -0.30400
O 	O 	0.86490 0.01860 0.22150 -0.20300
C 	C 	0.63980 0.55140 0.47155 0.36800
C 	C 	0.72230 0.57760 0.45686 -0.12700
C 	C 	0.74540 0.62110 0.42802 0.04000
H 	H 	0.70910 0.63620 0.41820 0.02700
C 	C 	0.90080 0.21310 0.14170 0.21500
H 	H 	0.91880 0.26970 0.13830 -0.04800
C 	C 	0.92640 0.18610 0.17060 -0.29000
H 	H 	0.96250 0.22540 0.18580 0.14300
C 	C 	0.81980 0.74750 0.37450 -0.17500
H 	H 	0.78310 0.75180 0.38910 0.08900
C 	C 	0.84240 0.79480 0.34670 0.12500
H 	H 	0.81900 0.82870 0.34270 -0.00200
O 	O 	0.41270 0.97490 0.95633 -0.42300
O 	O 	0.37086 0.89064 0.00058 -0.40900
O 	O 	0.10870 0.00000 0.78880 -0.24800
O 	O 	0.13510 0.15370 0.72150 -0.21100
C 	C 	0.36020 0.91160 0.97155 0.37500
C 	C 	0.27770 0.85530 0.95686 -0.14300
C 	C 	0.25460 0.87570 0.92802 0.06900
H 	H 	0.29090 0.92710 0.91820 0.01400
C 	C 	0.09920 0.31230 0.64170 0.23400
H 	H 	0.08120 0.35090 0.63830 -0.05100
C 	C 	0.07360 0.25970 0.67060 -0.35400
H 	H 	0.03750 0.26290 0.68580 0.17600
C 	C 	0.18020 0.92770 0.87450 -0.52400
H 	H 	0.21690 0.96870 0.88910 0.20700
C 	C 	0.15760 0.95240 0.84670 0.44100
H 	H 	0.18100 0.00970 0.84270 -0.08900
O 	O 	0.02510 0.43780 0.95633 -0.40700
O 	O 	0.10936 0.48022 0.00058 -0.40200
O 	O 	0.00000 0.10870 0.78880 -0.29300
O 	O 	0.84630 0.98140 0.72150 -0.24400
C 	C 	0.08840 0.44860 0.97155 0.38000
C 	C 	0.14470 0.42240 0.95686 -0.15500
C 	C 	0.12430 0.37890 0.92802 0.09800
H 	H 	0.07290 0.36380 0.91820 0.00800
C 	C 	0.68770 0.78690 0.64170 -0.04400
H 	H 	0.64910 0.73030 0.63830 0.04500
C 	C 	0.74030 0.81390 0.67060 -0.02100
H 	H 	0.73710 0.77460 0.68580 0.05000
C 	C 	0.07230 0.25250 0.87450 -0.64100
H 	H 	0.03130 0.24820 0.88910 0.25700
C 	C 	0.04760 0.20520 0.84670 0.62100
H 	H 	0.99030 0.17130 0.84270 -0.18100
O 	O 	0.56220 0.58730 0.95633 -0.41400
O 	O 	0.51978 0.62914 0.00058 -0.40500
O 	O 	0.89130 0.89130 0.78880 -0.30400
O 	O 	0.01860 0.86490 0.72150 -0.20300
C 	C 	0.55140 0.63980 0.97155 0.36800
C 	C 	0.57760 0.72230 0.95686 -0.12700
C 	C 	0.62110 0.74540 0.92802 0.04000
H 	H 	0.63620 0.70910 0.91820 0.02700
C 	C 	0.21310 0.90080 0.64170 0.21500
H 	H 	0.26970 0.91880 0.63830 -0.04800
C 	C 	0.18610 0.92640 0.67060 -0.29000
H 	H 	0.22540 0.96250 0.68580 0.14300
C 	C 	0.74750 0.81980 0.87450 -0.17500
H 	H 	0.75180 0.78310 0.88910 0.08900
C 	C 	0.79480 0.84240 0.84670 0.12500
H 	H 	0.82870 0.81900 0.84270 -0.00300
O 	O 	0.58730 0.02510 0.45633 -0.40600
O 	O 	0.62914 0.10936 0.50058 -0.40100
O 	O 	0.89130 0.00000 0.28880 -0.29000
O 	O 	0.86490 0.84630 0.22150 -0.20200
C 	C 	0.63980 0.08840 0.47155 0.37300
C 	C 	0.72230 0.14470 0.45686 -0.13900
C 	C 	0.74540 0.12430 0.42802 0.06700
H 	H 	0.70910 0.07290 0.41820 0.01900
C 	C 	0.90080 0.68770 0.14170 0.03300
H 	H 	0.91880 0.64910 0.13830 0.01600
C 	C 	0.92640 0.74030 0.17060 -0.08700
H 	H 	0.96250 0.73710 0.18580 0.06900
C 	C 	0.81980 0.07230 0.37450 -0.36200
H 	H 	0.78310 0.03130 0.38910 0.15900
C 	C 	0.84240 0.04760 0.34670 0.34200
H 	H 	0.81900 0.99030 0.34270 -0.09000
O 	O 	0.97490 0.56220 0.45633 -0.42200
O 	O 	0.89064 0.51978 0.50058 -0.40900
O 	O 	-0.00000 0.89130 0.28880 -0.25300
O 	O 	0.15370 0.01860 0.22150 -0.21000
C 	C 	0.91160 0.55140 0.47155 0.36900
C 	C 	0.85530 0.57760 0.45686 -0.12900
C 	C 	0.87570 0.62110 0.42802 0.04100
H 	H 	0.92710 0.63620 0.41820 0.02500
C 	C 	0.31230 0.21310 0.14170 0.31900
H 	H 	0.35090 0.26970 0.13830 -0.08300
C 	C 	0.25970 0.18610 0.17060 -0.42500
H 	H 	0.26290 0.22540 0.18580 0.19600
C 	C 	0.92770 0.74750 0.37450 -0.25200
H 	H 	0.96870 0.75180 0.38910 0.11100
C 	C 	0.95240 0.79480 0.34670 0.17200
H 	H 	0.00970 0.82870 0.34270 -0.00200
O 	O 	0.43780 0.41270 0.45633 -0.41600
O 	O 	0.48022 0.37086 0.50058 -0.40600
O 	O 	0.10870 0.10870 0.28880 -0.30100
O 	O 	0.98140 0.13510 0.22150 -0.24700
C 	C 	0.44860 0.36020 0.47155 0.38100
C 	C 	0.42240 0.27770 0.45686 -0.15700
C 	C 	0.37890 0.25460 0.42802 0.09800
H 	H 	0.36380 0.29090 0.41820 0.00500
C 	C 	0.78690 0.09920 0.14170 0.05300
H 	H 	0.73030 0.08120 0.13830 0.01200
C 	C 	0.81390 0.07360 0.17060 -0.15200
H 	H 	0.77460 0.03750 0.18580 0.10300
C 	C 	0.25250 0.18020 0.37450 -0.72600
H 	H 	0.24820 0.21690 0.38910 0.28200
C 	C 	0.20520 0.15760 0.34670 0.67200
H 	H 	0.17130 0.18100 0.34270 -0.18000
O 	O 	0.97490 0.41270 0.04367 -0.42300
O 	O 	0.89064 0.37086 0.99942 -0.40900
O 	O 	0.00000 0.10870 0.21120 -0.24800
O 	O 	0.15370 0.13510 0.27850 -0.21100
C 	C 	0.91160 0.36020 0.02845 0.37500
C 	C 	0.85530 0.27770 0.04314 -0.14300
C 	C 	0.87570 0.25460 0.07198 0.06900
H 	H 	0.92710 0.29090 0.08180 0.01400
C 	C 	0.31230 0.09920 0.35830 0.23400
H 	H 	0.35090 0.08120 0.36170 -0.05100
C 	C 	0.25970 0.07360 0.32940 -0.35400
H 	H 	0.26290 0.03750 0.31420 0.17600
C 	C 	0.92770 0.18020 0.12550 -0.52400
H 	H 	0.96870 0.21690 0.11090 0.20700
C 	C 	0.95240 0.15760 0.15330 0.44100
H 	H 	0.00970 0.18100 0.15730 -0.08900
O 	O 	0.43780 0.02510 0.04367 -0.40700
O 	O 	0.48022 0.10936 0.99942 -0.40200
O 	O 	0.10870 0.00000 0.21120 -0.29300
O 	O 	0.98140 0.84630 0.27850 -0.24400
C 	C 	0.44860 0.08840 0.02845 0.38000
C 	C 	0.42240 0.14470 0.04314 -0.15500
C 	C 	0.37890 0.12430 0.07198 0.09800
H 	H 	0.36380 0.07290 0.08180 0.00800
C 	C 	0.78690 0.68770 0.35830 -0.04400
H 	H 	0.73030 0.64910 0.36170 0.04500
C 	C 	0.81390 0.74030 0.32940 -0.02100
H 	H 	0.77460 0.73710 0.31420 0.05000
C 	C 	0.25250 0.07230 0.12550 -0.64100
H 	H 	0.24820 0.03130 0.11090 0.25700
C 	C 	0.20520 0.04760 0.15330 0.62100
H 	H 	0.17130 0.99030 0.15730 -0.18100
O 	O 	0.58730 0.56220 0.04367 -0.41400
O 	O 	0.62914 0.51978 0.99942 -0.40500
O 	O 	0.89130 0.89130 0.21120 -0.30400
O 	O 	0.86490 0.01860 0.27850 -0.20300
C 	C 	0.63980 0.55140 0.02845 0.36800
C 	C 	0.72230 0.57760 0.04314 -0.12700
C 	C 	0.74540 0.62110 0.07198 0.04000
H 	H 	0.70910 0.63620 0.08180 0.02700
C 	C 	0.90080 0.21310 0.35830 0.21500
H 	H 	0.91880 0.26970 0.36170 -0.04800
C 	C 	0.92640 0.18610 0.32940 -0.29000
H 	H 	0.96250 0.22540 0.31420 0.14300
C 	C 	0.81980 0.74750 0.12550 -0.17500
H 	H 	0.78310 0.75180 0.11090 0.08900
C 	C 	0.84240 0.79480 0.15330 0.12500
H 	H 	0.81900 0.82870 0.15730 -0.00300
O 	O 	0.02510 0.58730 0.54367 -0.40600
O 	O 	0.10936 0.62914 0.49942 -0.40100
O 	O 	0.00000 0.89130 0.71120 -0.29000
O 	O 	0.84630 0.86490 0.77850 -0.20200
C 	C 	0.08840 0.63980 0.52845 0.37300
C 	C 	0.14470 0.72230 0.54314 -0.13900
C 	C 	0.12430 0.74540 0.57198 0.06700
H 	H 	0.07290 0.70910 0.58180 0.01900
C 	C 	0.68770 0.90080 0.85830 0.03300
H 	H 	0.64910 0.91880 0.86170 0.01600
C 	C 	0.74030 0.92640 0.82940 -0.08700
H 	H 	0.73710 0.96250 0.81420 0.06900
C 	C 	0.07230 0.81980 0.62550 -0.36200
H 	H 	0.03130 0.78310 0.61090 0.15900
C 	C 	0.04760 0.84240 0.65330 0.34200
H 	H 	0.99030 0.81900 0.65730 -0.09000
O 	O 	0.56220 0.97490 0.54367 -0.42200
O 	O 	0.51978 0.89064 0.49942 -0.40900
O 	O 	0.89130 0.00000 0.71120 -0.25300
O 	O 	0.01860 0.15370 0.77850 -0.21000
C 	C 	0.55140 0.91160 0.52845 0.36900
C 	C 	0.57760 0.85530 0.54314 -0.12900
C 	C 	0.62110 0.87570 0.57198 0.04100
H 	H 	0.63620 0.92710 0.58180 0.02500
C 	C 	0.21310 0.31230 0.85830 0.31900
H 	H 	0.26970 0.35090 0.86170 -0.08300
C 	C 	0.18610 0.25970 0.82940 -0.42500
H 	H 	0.22540 0.26290 0.81420 0.19600
C 	C 	0.74750 0.92770 0.62550 -0.25200
H 	H 	0.75180 0.96870 0.61090 0.11100
C 	C 	0.79480 0.95240 0.65330 0.17200
H 	H 	0.82870 0.00970 0.65730 -0.00200
O 	O 	0.41270 0.43780 0.54367 -0.41600
O 	O 	0.37086 0.48022 0.49942 -0.40600
O 	O 	0.10870 0.10870 0.71120 -0.30100
O 	O 	0.13510 0.98140 0.77850 -0.24700
C 	C 	0.36020 0.44860 0.52845 0.38100
C 	C 	0.27770 0.42240 0.54314 -0.15700
C 	C 	0.25460 0.37890 0.57198 0.09800
H 	H 	0.29090 0.36380 0.58180 0.00500
C 	C 	0.09920 0.78690 0.85830 0.05300
H 	H 	0.08120 0.73030 0.86170 0.01200
C 	C 	0.07360 0.81390 0.82940 -0.15200
H 	H 	0.03750 0.77460 0.81420 0.10300
C 	C 	0.18020 0.25250 0.62550 -0.72600
H 	H 	0.21690 0.24820 0.61090 0.28200
C 	C 	0.15760 0.20520 0.65330 0.67200
H 	H 	0.18100 0.17130 0.65730 -0.18000
Cu	Cu	0.47568 0.95136 0.02559 0.89600
Cu	Cu	0.04864 0.52432 0.02559 0.91200
Cu	Cu	0.47568 0.52432 0.02559 0.90400
Cu	Cu	0.52432 0.04864 0.52559 0.91200
Cu	Cu	0.95136 0.47568 0.52559 0.89600
Cu	Cu	0.52432 0.47568 0.52559 0.90400
Cu	Cu	0.95136 0.47568 0.97441 0.89600
Cu	Cu	0.52432 0.04864 0.97441 0.91200
Cu	Cu	0.52432 0.47568 0.97441 0.90400
Cu	Cu	0.04864 0.52432 0.47441 0.91200
Cu	Cu	0.47568 0.95136 0.47441 0.89600
Cu	Cu	0.47568 0.52432 0.47441 0.90400
Cu	Cu	0.88530 0.94265 0.25000 0.94000
Cu	Cu	0.05735 0.94265 0.25000 0.94600
Cu	Cu	0.05735 0.11470 0.25000 0.95700
Cu	Cu	0.11470 0.05735 0.75000 0.95700
Cu	Cu	0.94265 0.05735 0.75000 0.94600
Cu	Cu	0.94265 0.88530 0.75000 0.94000
C 	C 	0.77850 0.22150 0.02923 0.08100
H 	H 	0.76390 0.23610 0.00940 0.03500
C 	C 	0.82195 0.17805 0.08720 -0.12900
C 	C 	0.84785 0.15215 0.11840 0.24800
C 	C 	0.89735 0.10265 0.17540 -0.25400
C 	C 	0.92435 0.07565 0.20480 0.52200
C 	C 	0.77850 0.55700 0.02923 0.06700
H 	H 	0.76390 0.52780 0.00940 0.03900
C 	C 	0.82195 0.64390 0.08720 -0.08700
C 	C 	0.84785 0.69570 0.11840 0.15600
C 	C 	0.89735 0.79470 0.17540 -0.20300
C 	C 	0.92435 0.84870 0.20480 0.50100
C 	C 	0.44300 0.22150 0.02923 0.09700
H 	H 	0.47220 0.23610 0.00940 0.03100
C 	C 	0.35610 0.17805 0.08720 -0.17500
C 	C 	0.30430 0.15215 0.11840 0.34800
C 	C 	0.20530 0.10265 0.17540 -0.32200
C 	C 	0.15130 0.07565 0.20480 0.56700
C 	C 	0.22150 0.77850 0.52923 0.08100
H 	H 	0.23610 0.76390 0.50940 0.03500
C 	C 	0.17805 0.82195 0.58720 -0.12900
C 	C 	0.15215 0.84785 0.61840 0.24800
C 	C 	0.10265 0.89735 0.67540 -0.25400
C 	C 	0.07565 0.92435 0.70480 0.52200
C 	C 	0.22150 0.44300 0.52923 0.09700
H 	H 	0.23610 0.47220 0.50940 0.03100
C 	C 	0.17805 0.35610 0.58720 -0.17500
C 	C 	0.15215 0.30430 0.61840 0.34800
C 	C 	0.10265 0.20530 0.67540 -0.32200
C 	C 	0.07565 0.15130 0.70480 0.56700
C 	C 	0.55700 0.77850 0.52923 0.06700
H 	H 	0.52780 0.76390 0.50940 0.03900
C 	C 	0.64390 0.82195 0.58720 -0.08700
C 	C 	0.69570 0.84785 0.61840 0.15600
C 	C 	0.79470 0.89735 0.67540 -0.20200
C 	C 	0.84870 0.92435 0.70480 0.50100
C 	C 	0.22150 0.77850 0.97077 0.08100
H 	H 	0.23610 0.76390 0.99060 0.03500
C 	C 	0.17805 0.82195 0.91280 -0.12900
C 	C 	0.15215 0.84785 0.88160 0.24800
C 	C 	0.10265 0.89735 0.82460 -0.25400
C 	C 	0.07565 0.92435 0.79520 0.52200
C 	C 	0.55700 0.77850 0.97077 0.06700
H 	H 	0.52780 0.76390 0.99060 0.03900
C 	C 	0.64390 0.82195 0.91280 -0.08700
C 	C 	0.69570 0.84785 0.88160 0.15600
C 	C 	0.79470 0.89735 0.82460 -0.20300
C 	C 	0.84870 0.92435 0.79520 0.50100
C 	C 	0.22150 0.44300 0.97077 0.09700
H 	H 	0.23610 0.47220 0.99060 0.03100
C 	C 	0.17805 0.35610 0.91280 -0.17500
C 	C 	0.15215 0.30430 0.88160 0.34800
C 	C 	0.10265 0.20530 0.82460 -0.32200
C 	C 	0.07565 0.15130 0.79520 0.56700
C 	C 	0.77850 0.22150 0.47077 0.08100
H 	H 	0.76390 0.23610 0.49060 0.03500
C 	C 	0.82195 0.17805 0.41280 -0.12900
C 	C 	0.84785 0.15215 0.38160 0.24800
C 	C 	0.89735 0.10265 0.32460 -0.25400
C 	C 	0.92435 0.07565 0.29520 0.52200
C 	C 	0.44300 0.22150 0.47077 0.09700
H 	H 	0.47220 0.23610 0.49060 0.03100
C 	C 	0.35610 0.17805 0.41280 -0.17500
C 	C 	0.30430 0.15215 0.38160 0.34800
C 	C 	0.20530 0.10265 0.32460 -0.32200
C 	C 	0.15130 0.07565 0.29520 0.56700
C 	C 	0.77850 0.55700 0.47077 0.06700
H 	H 	0.76390 0.52780 0.49060 0.03900
C 	C 	0.82195 0.64390 0.41280 -0.08700
C 	C 	0.84785 0.69570 0.38160 0.15600
C 	C 	0.89735 0.79470 0.32460 -0.20200
C 	C 	0.92435 0.84870 0.29520 0.50100
