data_crystal

_cell_length_a 9.91400
_cell_length_b 16.14300
_cell_length_c 18.40700
_cell_angle_alpha 92.00900
_cell_angle_beta  103.58300
_cell_angle_gamma 91.94100

_symmetry_space_group_name_	'P 1'
_symmetry_space_group_name_H-M	'P 1'

loop_
_symmetry_equiv_pos_as_xyz
  x,y,z

loop_
_atom_site_label
_atom_site_type_symbol
_atom_site_fract_x
_atom_site_fract_y
_atom_site_fract_z
_atom_site_charge
C 	C 	0.15800 0.56120 0.02790 -0.30400
C 	C 	0.55870 0.80870 0.99590 -0.34500
C 	C 	0.54250 0.39060 0.20080 0.00000
H 	H 	0.62110 0.39640 0.18170 -0.02200
C 	C 	0.55610 0.40800 0.27690 -0.01800
H 	H 	0.64150 0.42520 0.30790 0.02300
C 	C 	0.43800 0.39890 0.30560 -0.12300
C 	C 	0.31580 0.36860 0.25690 -0.01600
H 	H 	0.23650 0.35870 0.27450 0.03700
C 	C 	0.31230 0.35320 0.18270 -0.00200
H 	H 	0.22960 0.33270 0.15100 0.01400
C 	C 	0.43930 0.42590 0.38500 0.45600
C 	C 	0.06160 0.52230 0.19380 -0.00300
H 	H 	0.14210 0.51230 0.17780 -0.00600
C 	C 	0.06560 0.51880 0.26910 -0.03400
H 	H 	0.14760 0.50720 0.30300 0.02500
C 	C 	0.94660 0.53270 0.29370 -0.11200
C 	C 	0.82800 0.54910 0.24040 -0.04100
H 	H 	0.74580 0.55880 0.25470 0.05200
C 	C 	0.83150 0.55110 0.16650 0.02800
H 	H 	0.75010 0.56090 0.13150 -0.03000
C 	C 	0.94440 0.52850 0.37450 0.46700
C 	C 	0.60380 0.72510 0.19420 0.03500
H 	H 	0.64550 0.75800 0.16440 -0.01200
C 	C 	0.64800 0.73550 0.27020 -0.07200
H 	H 	0.71420 0.77710 0.29140 0.06200
C 	C 	0.59340 0.68390 0.31540 -0.04800
C 	C 	0.49050 0.62580 0.28120 -0.06800
H 	H 	0.44930 0.59090 0.30960 0.04900
C 	C 	0.45040 0.62060 0.20500 0.03300
H 	H 	0.38220 0.58050 0.18280 -0.01500
C 	C 	0.64770 0.68970 0.39900 0.33000
C 	C 	0.64490 0.96810 0.19910 -0.00900
H 	H 	0.55260 0.98270 0.18620 0.02500
C 	C 	0.71390 0.97580 0.27340 -0.00100
H 	H 	0.66890 0.99420 0.30960 0.02300
C 	C 	0.85230 0.95560 0.29300 -0.14200
C 	C 	0.91190 0.92850 0.23690 0.02000
H 	H 	0.00480 0.91510 0.24780 0.00600
C 	C 	0.83310 0.92120 0.16420 -0.02200
H 	H 	0.87480 0.90140 0.12710 -0.02400
C 	C 	0.93440 0.96440 0.37350 0.48100
C 	C 	0.54160 0.83480 0.79410 0.01600
H 	H 	0.48010 0.80460 0.81520 -0.01300
C 	C 	0.49870 0.85690 0.72210 -0.02200
H 	H 	0.40880 0.84290 0.69490 0.03100
C 	C 	0.59120 0.90090 0.68930 -0.11100
C 	C 	0.72590 0.91970 0.72950 -0.01900
H 	H 	0.79000 0.94770 0.70850 0.03800
C 	C 	0.76090 0.89470 0.80320 0.00800
H 	H 	0.85100 0.90570 0.83160 0.01200
C 	C 	0.54170 0.93080 0.61100 0.46700
Cl	Cl	0.83910 0.66975 0.00648 -0.68800
Cl	Cl	0.64190 0.02906 0.95626 -0.88000
Cl	Cl	0.93900 0.88080 0.99590 -0.18000
Cu	Cu	0.61110 0.62070 0.96030 0.50100
Cu	Cu	0.94270 0.54754 0.03187 0.80200
Cu	Cu	0.41554 0.66211 0.04563 0.78400
Cu	Cu	0.58875 0.92486 0.03676 0.81900
Cu	Cu	0.70240 0.84875 0.94798 0.90300
Dy	Dy	0.24302 0.97304 0.49045 1.67800
Dy	Dy	0.74869 0.52038 0.49714 1.66900
N 	N 	0.24140 0.60020 0.03700 -0.18900
N 	N 	0.50260 0.74880 0.00180 -0.26800
N 	N 	0.42210 0.36620 0.15410 -0.23500
N 	N 	0.94700 0.53940 0.14290 -0.22000
N 	N 	0.50260 0.66920 0.16060 -0.23600
N 	N 	0.70190 0.94090 0.14460 -0.22000
N 	N 	0.66730 0.85450 0.83510 -0.19700
O 	O 	0.54700 0.46020 0.42410 -0.53200
O 	O 	0.32780 0.41450 0.40580 -0.49300
O 	O 	0.05170 0.51020 0.42000 -0.58200
O 	O 	0.83090 0.54310 0.39120 -0.50500
O 	O 	0.72480 0.75100 0.42710 -0.29100
O 	O 	0.61330 0.63190 0.43620 -0.40900
O 	O 	0.87420 0.99360 0.42040 -0.53900
O 	O 	0.05770 0.94360 0.38650 -0.54000
O 	O 	0.41680 0.91490 0.57860 -0.53000
O 	O 	0.62610 0.97130 0.58380 -0.51200
O 	O 	0.14400 0.10420 0.45420 -0.83800
H 	H 	0.09890 0.06510 0.42910 0.28600
H 	H 	0.09280 0.13720 0.46740 0.36600
C 	C 	0.51940 0.53230 0.99320 -0.28200
Cl	Cl	0.86940 0.86570 0.95990 -0.76400
Cu	Cu	0.56520 0.63830 0.95400 0.37100
Cu	Cu	0.85750 0.02150 0.97730 0.70500
C 	C 	0.84200 0.43880 0.97210 -0.27700
C 	C 	0.44130 0.19130 0.00410 -0.39200
C 	C 	0.45750 0.60940 0.79920 -0.00000
H 	H 	0.37890 0.60360 0.81830 -0.02100
C 	C 	0.44390 0.59200 0.72310 -0.01800
H 	H 	0.35850 0.57480 0.69210 0.02200
C 	C 	0.56200 0.60110 0.69440 -0.12300
C 	C 	0.68420 0.63140 0.74310 -0.01400
H 	H 	0.76350 0.64130 0.72550 0.04000
C 	C 	0.68770 0.64680 0.81730 -0.00300
H 	H 	0.77040 0.66730 0.84900 0.02100
C 	C 	0.56070 0.57410 0.61500 0.45600
C 	C 	0.93840 0.47770 0.80620 0.01200
H 	H 	0.85790 0.48770 0.82220 -0.00700
C 	C 	0.93440 0.48120 0.73090 -0.00600
H 	H 	0.85240 0.49280 0.69700 0.01800
C 	C 	0.05340 0.46730 0.70630 -0.13700
C 	C 	0.17200 0.45090 0.75960 -0.03200
H 	H 	0.25420 0.44120 0.74530 0.04900
C 	C 	0.16850 0.44890 0.83350 0.02000
H 	H 	0.24990 0.43910 0.86850 -0.02400
C 	C 	0.05560 0.47150 0.62550 0.44500
C 	C 	0.39620 0.27490 0.80580 0.03400
H 	H 	0.35450 0.24200 0.83560 -0.00900
C 	C 	0.35200 0.26450 0.72980 -0.07100
H 	H 	0.28580 0.22290 0.70860 0.06000
C 	C 	0.40660 0.31610 0.68460 -0.05000
C 	C 	0.50950 0.37420 0.71880 -0.06700
H 	H 	0.55070 0.40910 0.69040 0.04900
C 	C 	0.54960 0.37940 0.79500 0.03300
H 	H 	0.61780 0.41950 0.81720 -0.01300
C 	C 	0.35230 0.31030 0.60100 0.33000
C 	C 	0.35510 0.03190 0.80090 -0.00200
H 	H 	0.44740 0.01730 0.81380 0.01600
C 	C 	0.28610 0.02420 0.72660 -0.02200
H 	H 	0.33110 0.00580 0.69040 0.01900
C 	C 	0.14770 0.04440 0.70700 -0.11700
C 	C 	0.08810 0.07150 0.76310 -0.04900
H 	H 	0.99520 0.08490 0.75220 0.04100
C 	C 	0.16690 0.07880 0.83580 0.00400
H 	H 	0.12520 0.09860 0.87290 -0.03300
C 	C 	0.06560 0.03560 0.62650 0.44200
C 	C 	0.45840 0.16520 0.20590 0.01000
H 	H 	0.51990 0.19540 0.18480 -0.01500
C 	C 	0.50130 0.14310 0.27790 -0.02300
H 	H 	0.59120 0.15710 0.30510 0.02800
C 	C 	0.40880 0.09910 0.31070 -0.12000
C 	C 	0.27410 0.08030 0.27050 -0.01900
H 	H 	0.21000 0.05230 0.29150 0.02600
C 	C 	0.23910 0.10530 0.19680 0.00000
H 	H 	0.14900 0.09430 0.16840 -0.00000
C 	C 	0.45830 0.06920 0.38900 0.46900
Cl	Cl	0.16090 0.33025 0.99352 -0.66900
Cl	Cl	0.35810 0.97094 0.04374 -0.87600
Cl	Cl	0.06100 0.11920 0.00410 -0.26800
Cu	Cu	0.38890 0.37930 0.03970 0.49900
Cu	Cu	0.05730 0.45246 0.96813 0.80300
Cu	Cu	0.58446 0.33789 0.95437 0.79200
Cu	Cu	0.41125 0.07514 0.96324 0.82600
Cu	Cu	0.29760 0.15125 0.05202 0.89200
Dy	Dy	0.75698 0.02696 0.50955 1.61000
Dy	Dy	0.25131 0.47962 0.50286 1.66000
N 	N 	0.75860 0.39980 0.96300 -0.19000
N 	N 	0.49740 0.25120 0.99820 -0.23600
N 	N 	0.57790 0.63380 0.84590 -0.23300
N 	N 	0.05300 0.46060 0.85710 -0.22900
N 	N 	0.49740 0.33080 0.83940 -0.23400
N 	N 	0.29810 0.05910 0.85540 -0.22800
N 	N 	0.33270 0.14550 0.16490 -0.20100
O 	O 	0.45300 0.53980 0.57590 -0.53100
O 	O 	0.67220 0.58550 0.59420 -0.49200
O 	O 	0.94830 0.48980 0.58000 -0.55900
O 	O 	0.16910 0.45690 0.60880 -0.50200
O 	O 	0.27520 0.24900 0.57290 -0.29600
O 	O 	0.38670 0.36810 0.56380 -0.40900
O 	O 	0.12580 0.00640 0.57960 -0.56100
O 	O 	0.94230 0.05640 0.61350 -0.52000
O 	O 	0.58320 0.08510 0.42140 -0.53200
O 	O 	0.37390 0.02870 0.41620 -0.53700
O 	O 	0.85600 0.89580 0.54580 -0.83800
H 	H 	0.90110 0.93490 0.57090 0.30800
H 	H 	0.90720 0.86280 0.53260 0.37500
C 	C 	0.48060 0.46770 0.00680 -0.34100
Cl	Cl	0.13060 0.13430 0.04010 -0.72000
Cu	Cu	0.43480 0.36170 0.04600 0.36600
Cu	Cu	0.14250 0.97850 0.02270 0.70100
Cu	Cu	-0.00000 0.00000 -0.00000 0.53200
