data_crystal

_cell_length_a 9.89600
_cell_length_b 16.21000
_cell_length_c 18.44300
_cell_angle_alpha 92.00200
_cell_angle_beta  103.58000
_cell_angle_gamma 92.51000

_symmetry_space_group_name_	'P 1'
_symmetry_space_group_name_H-M	'P 1'

loop_
_symmetry_equiv_pos_as_xyz
  x,y,z

loop_
_atom_site_label
_atom_site_type_symbol
_atom_site_fract_x
_atom_site_fract_y
_atom_site_fract_z
_atom_site_charge
C 	C 	0.66360 0.06310 0.02940 -0.28700
C 	C 	0.05910 0.30820 0.99530 -0.33500
C 	C 	0.95950 0.10850 0.79930 0.01300
H 	H 	0.88080 0.10050 0.81810 -0.01500
C 	C 	0.94650 0.09210 0.72370 -0.02700
H 	H 	0.86070 0.07530 0.69270 0.05000
C 	C 	0.06350 0.10130 0.69520 -0.11500
C 	C 	0.18420 0.13300 0.74300 -0.02000
H 	H 	0.26350 0.14350 0.72520 0.03800
C 	C 	0.18790 0.14930 0.81720 -0.00400
H 	H 	0.27050 0.17140 0.84840 0.01500
C 	C 	0.06300 0.07490 0.61540 0.46100
C 	C 	0.56040 0.02050 0.19390 0.00900
H 	H 	0.64080 0.01000 0.17810 -0.01000
C 	C 	0.56460 0.01750 0.26880 -0.01700
H 	H 	0.64660 0.00550 0.30240 0.02100
C 	C 	0.44770 0.03230 0.29390 -0.12500
C 	C 	0.32870 0.05060 0.24090 -0.03300
H 	H 	0.24730 0.06190 0.25540 0.05100
C 	C 	0.33250 0.05190 0.16690 0.02100
H 	H 	0.25200 0.06310 0.13190 -0.02900
C 	C 	0.44440 0.02880 0.37470 0.48200
C 	C 	0.10370 0.22270 0.19460 0.03900
H 	H 	0.14390 0.25640 0.16470 -0.01100
C 	C 	0.15120 0.23440 0.27070 -0.07000
H 	H 	0.22020 0.27500 0.29130 0.06500
C 	C 	0.09280 0.18360 0.31610 -0.05300
C 	C 	0.99260 0.12460 0.28180 -0.06000
H 	H 	0.95300 0.08880 0.31030 0.04700
C 	C 	0.95070 0.11860 0.20510 0.02900
H 	H 	0.88130 0.07870 0.18320 -0.01500
C 	C 	0.14840 0.19050 0.40000 0.34500
C 	C 	0.14010 0.46930 0.19970 0.00600
H 	H 	0.04900 0.48580 0.18740 0.01700
C 	C 	0.21070 0.47580 0.27330 -0.02000
H 	H 	0.16610 0.49390 0.30960 0.04700
C 	C 	0.34860 0.45530 0.29360 -0.12100
C 	C 	0.40610 0.42590 0.23620 -0.02200
H 	H 	0.49780 0.41050 0.24650 0.03200
C 	C 	0.32650 0.41990 0.16460 -0.01300
H 	H 	0.36680 0.40010 0.12710 -0.01500
C 	C 	0.43370 0.46370 0.37290 0.46500
C 	C 	0.95860 0.66420 0.20530 0.00300
H 	H 	0.02030 0.69450 0.18420 -0.00800
C 	C 	0.00210 0.64360 0.27830 -0.00300
H 	H 	0.09170 0.65950 0.30540 0.02500
C 	C 	0.91220 0.59920 0.31170 -0.14300
C 	C 	0.78060 0.57910 0.26920 -0.00600
H 	H 	0.71660 0.54980 0.28960 0.01900
C 	C 	0.74330 0.60230 0.19630 -0.00100
H 	H 	0.65310 0.58950 0.16850 -0.02000
C 	C 	0.95910 0.56980 0.38830 0.47900
Cl	Cl	0.33850 0.16912 0.00691 -0.69900
Cl	Cl	0.85270 0.47145 0.04238 -0.86900
Cl	Cl	0.43500 0.37739 0.99520 -0.83900
Cu	Cu	0.10626 0.12446 0.95933 0.81500
Cu	Cu	0.44255 0.04696 0.03253 0.79100
Cu	Cu	0.91772 0.15961 0.04561 0.78800
Cu	Cu	0.08054 0.42572 0.03792 0.81100
Cu	Cu	0.19812 0.35593 0.94806 0.82100
N 	N 	0.98050 0.96760 0.00620 -0.27900
N 	N 	0.73230 0.09510 0.03690 -0.15700
N 	N 	0.00110 0.24810 0.00420 -0.25700
N 	N 	0.07820 0.13490 0.84660 -0.22900
N 	N 	0.44790 0.03760 0.14320 -0.22800
N 	N 	0.00400 0.16650 0.16020 -0.23700
N 	N 	0.19420 0.44080 0.14530 -0.22600
N 	N 	0.83410 0.64320 0.16390 -0.21800
O 	O 	0.95360 0.03930 0.57670 -0.52700
O 	O 	0.17380 0.08660 0.59530 -0.51800
O 	O 	0.55180 0.00910 0.41950 -0.57600
O 	O 	0.33160 0.04510 0.39040 -0.50000
O 	O 	0.22330 0.25200 0.42710 -0.32200
O 	O 	0.11300 0.13180 0.43670 -0.43500
O 	O 	0.37330 0.49370 0.42000 -0.55100
O 	O 	0.55460 0.44230 0.38520 -0.53500
O 	O 	0.08420 0.58630 0.42250 -0.51200
O 	O 	0.87450 0.52810 0.41460 -0.53600
O 	O 	0.10900 0.41220 0.42970 -0.69400
H 	H 	0.04250 0.38480 0.44120 0.28300
H 	H 	0.18390 0.38910 0.44850 0.25000
O 	O 	0.30750 0.88850 0.45080 -0.68800
H 	H 	0.27730 0.84090 0.45890 0.27500
H 	H 	0.35780 0.90760 0.49220 0.17200
Tb	Tb	0.25840 0.52773 0.51039 1.65500
Tb	Tb	0.24893 0.02120 0.49698 1.85800
Cu	Cu	0.62400 0.48260 0.01840 0.67700
C 	C 	0.01950 0.03240 0.99380 -0.30700
C 	C 	0.33640 0.93690 0.97060 -0.26700
C 	C 	0.94090 0.69180 0.00470 -0.38900
C 	C 	0.04050 0.89150 0.20070 0.01400
H 	H 	0.11920 0.89950 0.18190 -0.02000
C 	C 	0.05350 0.90790 0.27630 -0.02800
H 	H 	0.13930 0.92470 0.30730 0.04900
C 	C 	0.93650 0.89870 0.30480 -0.11600
C 	C 	0.81580 0.86700 0.25700 -0.02100
H 	H 	0.73650 0.85650 0.27480 0.03700
C 	C 	0.81210 0.85070 0.18280 -0.00400
H 	H 	0.72950 0.82860 0.15160 0.00900
C 	C 	0.93700 0.92510 0.38460 0.46000
C 	C 	0.43960 0.97950 0.80610 0.00900
H 	H 	0.35920 0.99000 0.82190 -0.00900
C 	C 	0.43540 0.98250 0.73120 -0.01600
H 	H 	0.35340 0.99450 0.69760 0.01900
C 	C 	0.55230 0.96770 0.70610 -0.12600
C 	C 	0.67130 0.94940 0.75910 -0.03200
H 	H 	0.75270 0.93810 0.74460 0.05000
C 	C 	0.66750 0.94810 0.83310 0.02200
H 	H 	0.74800 0.93690 0.86810 -0.02600
C 	C 	0.55560 0.97120 0.62530 0.48200
C 	C 	0.89630 0.77730 0.80540 0.03800
H 	H 	0.85610 0.74360 0.83530 -0.00800
C 	C 	0.84880 0.76560 0.72930 -0.06800
H 	H 	0.77980 0.72500 0.70870 0.06500
C 	C 	0.90720 0.81640 0.68390 -0.05400
C 	C 	0.00740 0.87540 0.71820 -0.05900
H 	H 	0.04700 0.91120 0.68970 0.04600
C 	C 	0.04930 0.88140 0.79490 0.03000
H 	H 	0.11870 0.92130 0.81680 -0.01400
C 	C 	0.85160 0.80950 0.60000 0.34500
C 	C 	0.85990 0.53070 0.80030 0.00700
H 	H 	0.95100 0.51420 0.81260 0.01800
C 	C 	0.78930 0.52420 0.72670 -0.01900
H 	H 	0.83390 0.50610 0.69040 0.04700
C 	C 	0.65140 0.54470 0.70640 -0.12200
C 	C 	0.59390 0.57410 0.76380 -0.02000
H 	H 	0.50220 0.58950 0.75350 0.03300
C 	C 	0.67350 0.58010 0.83540 -0.01300
H 	H 	0.63320 0.59990 0.87290 -0.00600
C 	C 	0.56630 0.53630 0.62710 0.46600
C 	C 	0.04140 0.33580 0.79470 0.00700
H 	H 	0.97970 0.30550 0.81580 -0.00800
C 	C 	0.99790 0.35640 0.72170 -0.00700
H 	H 	0.90830 0.34050 0.69460 0.02700
C 	C 	0.08780 0.40080 0.68830 -0.14000
C 	C 	0.21940 0.42090 0.73080 -0.00700
H 	H 	0.28340 0.45020 0.71040 0.02000
C 	C 	0.25670 0.39770 0.80370 0.00000
H 	H 	0.34690 0.41050 0.83150 -0.01800
C 	C 	0.04090 0.43020 0.61170 0.47900
Cl	Cl	0.66150 0.83088 0.99309 -0.67000
Cl	Cl	0.14730 0.52855 0.95762 -0.85000
Cl	Cl	0.56500 0.62261 0.00480 -0.86800
Cu	Cu	0.89374 0.87554 0.04067 0.79800
Cu	Cu	0.55745 0.95304 0.96747 0.79900
Cu	Cu	0.08228 0.84039 0.95439 0.79300
Cu	Cu	0.91946 0.57428 0.96208 0.82700
Cu	Cu	0.80188 0.64407 0.05194 0.81900
N 	N 	0.26770 0.90490 0.96310 -0.16100
N 	N 	0.99890 0.75190 0.99580 -0.22300
N 	N 	0.92180 0.86510 0.15340 -0.23300
N 	N 	0.55210 0.96240 0.85680 -0.22600
N 	N 	0.99600 0.83350 0.83980 -0.23600
N 	N 	0.80580 0.55920 0.85470 -0.22200
N 	N 	0.16590 0.35680 0.83610 -0.21800
O 	O 	0.04640 0.96070 0.42330 -0.53000
O 	O 	0.82620 0.91340 0.40470 -0.51900
O 	O 	0.44820 0.99090 0.58050 -0.57900
O 	O 	0.66840 0.95490 0.60960 -0.50000
O 	O 	0.77670 0.74800 0.57290 -0.32200
O 	O 	0.88700 0.86820 0.56330 -0.43500
O 	O 	0.62670 0.50630 0.58000 -0.55100
O 	O 	0.44540 0.55770 0.61480 -0.53500
O 	O 	0.91580 0.41370 0.57750 -0.51300
O 	O 	0.12550 0.47190 0.58540 -0.53600
O 	O 	0.89100 0.58780 0.57030 -0.69400
H 	H 	0.95750 0.61520 0.55880 0.28300
H 	H 	0.81610 0.61090 0.55150 0.25000
O 	O 	0.69250 0.11150 0.54920 -0.68600
H 	H 	0.72270 0.15910 0.54110 0.27500
H 	H 	0.64220 0.09240 0.50780 0.17300
Tb	Tb	0.74160 0.47227 0.48961 1.65400
Tb	Tb	0.75107 0.97880 0.50302 1.84800
Cu	Cu	0.37600 0.51740 0.98160 0.68800
Cu	Cu	0.50000 0.50000 -0.00000 0.50000
