data_crystal

_cell_length_a 16.30400
_cell_length_b 27.64900
_cell_length_c 16.40780
_cell_angle_alpha 90.00000
_cell_angle_beta  117.32000
_cell_angle_gamma 90.00000

_symmetry_space_group_name_	'P 1'
_symmetry_space_group_name_H-M	'P 1'

loop_
_symmetry_equiv_pos_as_xyz
  x,y,z

loop_
_atom_site_label
_atom_site_type_symbol
_atom_site_fract_x
_atom_site_fract_y
_atom_site_fract_z
_atom_site_charge
Zn	Zn	0.05511 0.52822 0.81119 1.22300
O 	O 	0.93230 0.61570 0.75570 -0.68100
O 	O 	0.92750 0.53610 0.73510 -0.54700
O 	O 	0.10840 0.54720 0.93730 -0.54500
O 	O 	0.09890 0.62710 0.93810 -0.61800
O 	O 	0.13460 0.53010 0.75370 -0.52900
O 	O 	0.12680 0.60760 0.75520 -0.52300
N 	N 	0.06130 0.45490 0.83130 -0.24900
C 	C 	0.23040 0.53360 0.65080 0.17200
H 	H 	0.21620 0.50260 0.66580 -0.02000
C 	C 	0.29760 0.58200 0.57380 0.24600
C 	C 	0.44430 0.58280 0.56220 0.31000
C 	C 	0.29990 0.58750 0.42210 0.32500
C 	C 	0.44380 0.58130 0.41370 0.31400
C 	C 	0.49770 0.57980 0.66620 -0.65100
H 	H 	0.51130 0.61250 0.69200 0.21000
H 	H 	0.55570 0.56230 0.68360 0.20800
H 	H 	0.46060 0.56260 0.69000 0.21000
C 	C 	0.34810 0.58400 0.51810 -0.31300
C 	C 	0.27030 0.54530 0.21950 -0.24600
H 	H 	0.29050 0.51550 0.25130 0.10700
C 	C 	0.07220 0.30210 0.86290 -0.01800
C 	C 	0.49260 0.58240 0.50930 -0.30200
C 	C 	0.64320 0.54040 0.56540 -0.26000
H 	H 	0.61090 0.51170 0.53630 0.11400
C 	C 	0.49540 0.57730 0.35630 -0.65100
H 	H 	0.55860 0.58920 0.39200 0.21400
H 	H 	0.46370 0.59680 0.30050 0.21300
H 	H 	0.49700 0.54340 0.33960 0.20600
C 	C 	0.73970 0.62180 0.65360 0.14400
H 	H 	0.77200 0.65040 0.68340 -0.02100
C 	C 	0.59410 0.58130 0.55710 0.22100
C 	C 	0.19560 0.59270 0.37560 -0.67900
H 	H 	0.17160 0.58180 0.41740 0.22700
H 	H 	0.16880 0.57290 0.31980 0.23000
H 	H 	0.17900 0.62670 0.35950 0.22200
C 	C 	0.78730 0.57960 0.66220 -0.24000
C 	C 	0.29420 0.58770 0.26870 0.22600
C 	C 	0.34820 0.58480 0.37030 -0.30800
C 	C 	0.20420 0.57460 0.68000 -0.25500
C 	C 	0.89010 0.57700 0.72350 0.49200
C 	C 	0.27780 0.53780 0.59930 -0.27700
H 	H 	0.29720 0.50920 0.58100 0.11600
C 	C 	0.18720 0.58910 0.07850 -0.23600
C 	C 	0.06900 0.35330 0.85410 0.06800
C 	C 	0.64320 0.62270 0.60090 -0.24500
H 	H 	0.61090 0.65220 0.59490 0.10900
C 	C 	0.26990 0.62150 0.60140 -0.28300
H 	H 	0.28330 0.65250 0.58560 0.12200
C 	C 	0.21660 0.54470 0.12300 0.13800
H 	H 	0.20120 0.51520 0.08970 -0.01300
C 	C 	0.26560 0.63020 0.22110 -0.26400
H 	H 	0.28320 0.65990 0.25360 0.11300
C 	C 	0.11260 0.42680 0.80460 0.06000
H 	H 	0.14730 0.44200 0.77850 0.00600
C 	C 	0.99660 0.27510 0.85740 -0.04700
H 	H 	0.94390 0.29180 0.85350 0.04300
C 	C 	0.21200 0.63120 0.12730 0.16100
H 	H 	0.19230 0.66130 0.09650 -0.01600
C 	C 	0.15170 0.57060 0.73390 0.49900
C 	C 	0.74030 0.53870 0.61550 0.14700
H 	H 	0.77290 0.50990 0.61720 -0.01400
C 	C 	0.01540 0.43110 0.87120 0.07000
H 	H 	0.97920 0.44970 0.89150 -0.01100
C 	C 	0.22160 0.61790 0.65310 0.17800
H 	H 	0.20060 0.64660 0.66960 -0.01000
C 	C 	0.12770 0.58810 0.97610 0.49200
C 	C 	0.01870 0.38220 0.88350 -0.14000
H 	H 	0.98600 0.36790 0.91260 0.06300
C 	C 	0.14850 0.27530 0.87250 -0.04700
H 	H 	0.20220 0.29200 0.87920 0.03900
C 	C 	0.11690 0.37730 0.81350 -0.13200
H 	H 	0.15270 0.35920 0.79200 0.07100
Zn	Zn	0.97827 0.67473 0.84629 1.14000
O 	O 	0.02950 0.72740 0.93580 -0.27600
O 	O 	0.06260 0.69060 0.78770 -0.82000
O 	O 	0.87630 0.72320 0.75710 -0.26400
Zn	Zn	0.05480 0.64964 0.80343 1.27600
Zn	Zn	0.05511 0.97178 0.81119 1.22300
O 	O 	0.93230 0.88430 0.75570 -0.68000
O 	O 	0.92750 0.96390 0.73510 -0.54500
O 	O 	0.10840 0.95280 0.93730 -0.54400
O 	O 	0.09890 0.87290 0.93810 -0.61700
O 	O 	0.13460 0.96990 0.75370 -0.52900
O 	O 	0.12680 0.89240 0.75520 -0.52200
N 	N 	0.06130 0.04510 0.83130 -0.24800
C 	C 	0.23040 0.96640 0.65080 0.17300
H 	H 	0.21620 0.99740 0.66580 -0.02000
C 	C 	0.29760 0.91800 0.57380 0.24600
C 	C 	0.44430 0.91720 0.56220 0.31000
C 	C 	0.29990 0.91250 0.42210 0.32500
C 	C 	0.44380 0.91870 0.41370 0.31400
C 	C 	0.49770 0.92020 0.66620 -0.65100
H 	H 	0.51130 0.88750 0.69200 0.21000
H 	H 	0.55570 0.93770 0.68360 0.20800
H 	H 	0.46060 0.93740 0.69000 0.21000
C 	C 	0.34810 0.91600 0.51810 -0.31300
C 	C 	0.27030 0.95470 0.21950 -0.24500
H 	H 	0.29050 0.98450 0.25130 0.10700
C 	C 	0.07220 0.19790 0.86290 -0.01700
C 	C 	0.49260 0.91760 0.50930 -0.30200
C 	C 	0.64320 0.95960 0.56540 -0.26000
H 	H 	0.61090 0.98830 0.53630 0.11400
C 	C 	0.49540 0.92270 0.35630 -0.65100
H 	H 	0.55860 0.91080 0.39200 0.21400
H 	H 	0.46370 0.90320 0.30050 0.21300
H 	H 	0.49700 0.95660 0.33960 0.20600
C 	C 	0.73970 0.87820 0.65360 0.14400
H 	H 	0.77200 0.84960 0.68340 -0.02100
C 	C 	0.59410 0.91870 0.55710 0.22100
C 	C 	0.19560 0.90730 0.37560 -0.67900
H 	H 	0.17160 0.91820 0.41740 0.22700
H 	H 	0.16880 0.92710 0.31980 0.22900
H 	H 	0.17900 0.87330 0.35950 0.22200
C 	C 	0.78730 0.92040 0.66220 -0.24000
C 	C 	0.29420 0.91230 0.26870 0.22600
C 	C 	0.34820 0.91520 0.37030 -0.30800
C 	C 	0.20420 0.92540 0.68000 -0.25500
C 	C 	0.89010 0.92300 0.72350 0.49200
C 	C 	0.27780 0.96220 0.59930 -0.27700
H 	H 	0.29720 0.99080 0.58100 0.11600
C 	C 	0.18720 0.91090 0.07850 -0.23600
C 	C 	0.06900 0.14670 0.85410 0.06800
C 	C 	0.64320 0.87730 0.60090 -0.24500
H 	H 	0.61090 0.84780 0.59490 0.10900
C 	C 	0.26990 0.87850 0.60140 -0.28300
H 	H 	0.28330 0.84750 0.58560 0.12200
C 	C 	0.21660 0.95530 0.12300 0.13800
H 	H 	0.20120 0.98480 0.08970 -0.01300
C 	C 	0.26560 0.86980 0.22110 -0.26400
H 	H 	0.28320 0.84010 0.25360 0.11300
C 	C 	0.11260 0.07320 0.80460 0.06000
H 	H 	0.14730 0.05800 0.77850 0.00700
C 	C 	0.99660 0.22490 0.85740 -0.04700
H 	H 	0.94390 0.20820 0.85350 0.04300
C 	C 	0.21200 0.86880 0.12730 0.16000
H 	H 	0.19230 0.83870 0.09650 -0.01600
C 	C 	0.15170 0.92940 0.73390 0.49900
C 	C 	0.74030 0.96130 0.61550 0.14700
H 	H 	0.77290 0.99010 0.61720 -0.01400
C 	C 	0.01540 0.06890 0.87120 0.07100
H 	H 	0.97920 0.05030 0.89150 -0.01200
C 	C 	0.22160 0.88210 0.65310 0.17800
H 	H 	0.20060 0.85340 0.66960 -0.01000
C 	C 	0.12770 0.91190 0.97610 0.49100
C 	C 	0.01870 0.11780 0.88350 -0.14000
H 	H 	0.98600 0.13210 0.91260 0.06200
C 	C 	0.14850 0.22470 0.87250 -0.04700
H 	H 	0.20220 0.20800 0.87920 0.03900
C 	C 	0.11690 0.12270 0.81350 -0.13200
H 	H 	0.15270 0.14080 0.79200 0.07100
Zn	Zn	0.97827 0.82527 0.84629 1.14000
O 	O 	0.02950 0.77260 0.93580 -0.27600
O 	O 	0.06260 0.80940 0.78770 -0.82000
O 	O 	0.87630 0.77680 0.75710 -0.26400
Zn	Zn	0.05480 0.85036 0.80343 1.27600
Zn	Zn	0.94489 0.02822 0.18881 1.22300
O 	O 	0.06770 0.11570 0.24430 -0.68000
O 	O 	0.07250 0.03610 0.26490 -0.54500
O 	O 	0.89160 0.04720 0.06270 -0.54400
O 	O 	0.90110 0.12710 0.06190 -0.61700
O 	O 	0.86540 0.03010 0.24630 -0.52900
O 	O 	0.87320 0.10760 0.24480 -0.52200
N 	N 	0.93870 0.95490 0.16870 -0.24800
C 	C 	0.76960 0.03360 0.34920 0.17300
H 	H 	0.78380 0.00260 0.33420 -0.02000
C 	C 	0.70240 0.08200 0.42620 0.24600
C 	C 	0.55570 0.08280 0.43780 0.31000
C 	C 	0.70010 0.08750 0.57790 0.32500
C 	C 	0.55620 0.08130 0.58630 0.31400
C 	C 	0.50230 0.07980 0.33380 -0.65100
H 	H 	0.48870 0.11250 0.30800 0.21000
H 	H 	0.44430 0.06230 0.31640 0.20800
H 	H 	0.53940 0.06260 0.31000 0.21000
C 	C 	0.65190 0.08400 0.48190 -0.31300
C 	C 	0.72970 0.04530 0.78050 -0.24500
H 	H 	0.70950 0.01550 0.74870 0.10700
C 	C 	0.92780 0.80210 0.13710 -0.01700
C 	C 	0.50740 0.08240 0.49070 -0.30200
C 	C 	0.35680 0.04040 0.43460 -0.26000
H 	H 	0.38910 0.01170 0.46370 0.11400
C 	C 	0.50460 0.07730 0.64370 -0.65100
H 	H 	0.44140 0.08920 0.60800 0.21400
H 	H 	0.53630 0.09680 0.69950 0.21300
H 	H 	0.50300 0.04340 0.66040 0.20600
C 	C 	0.26030 0.12180 0.34640 0.14400
H 	H 	0.22800 0.15040 0.31660 -0.02100
C 	C 	0.40590 0.08130 0.44290 0.22100
C 	C 	0.80440 0.09270 0.62440 -0.67900
H 	H 	0.82840 0.08180 0.58260 0.22700
H 	H 	0.83120 0.07290 0.68020 0.22900
H 	H 	0.82100 0.12670 0.64050 0.22200
C 	C 	0.21270 0.07960 0.33780 -0.24000
C 	C 	0.70580 0.08770 0.73130 0.22600
C 	C 	0.65180 0.08480 0.62970 -0.30800
C 	C 	0.79580 0.07460 0.32000 -0.25500
C 	C 	0.10990 0.07700 0.27650 0.49200
C 	C 	0.72220 0.03780 0.40070 -0.27700
H 	H 	0.70280 0.00920 0.41900 0.11600
C 	C 	0.81280 0.08910 0.92150 -0.23600
C 	C 	0.93100 0.85330 0.14590 0.06800
C 	C 	0.35680 0.12270 0.39910 -0.24500
H 	H 	0.38910 0.15220 0.40510 0.10900
C 	C 	0.73010 0.12150 0.39860 -0.28300
H 	H 	0.71670 0.15250 0.41440 0.12200
C 	C 	0.78340 0.04470 0.87700 0.13800
H 	H 	0.79880 0.01520 0.91030 -0.01300
C 	C 	0.73440 0.13020 0.77890 -0.26400
H 	H 	0.71680 0.15990 0.74640 0.11300
C 	C 	0.88740 0.92680 0.19540 0.06000
H 	H 	0.85270 0.94200 0.22150 0.00700
C 	C 	0.00340 0.77510 0.14260 -0.04700
H 	H 	0.05610 0.79180 0.14650 0.04300
C 	C 	0.78800 0.13120 0.87270 0.16000
H 	H 	0.80770 0.16130 0.90350 -0.01600
C 	C 	0.84830 0.07060 0.26610 0.49900
C 	C 	0.25970 0.03870 0.38450 0.14700
H 	H 	0.22710 0.00990 0.38280 -0.01400
C 	C 	0.98460 0.93110 0.12880 0.07100
H 	H 	0.02080 0.94970 0.10850 -0.01200
C 	C 	0.77840 0.11790 0.34690 0.17800
H 	H 	0.79940 0.14660 0.33040 -0.01000
C 	C 	0.87230 0.08810 0.02390 0.49100
C 	C 	0.98130 0.88220 0.11650 -0.14000
H 	H 	0.01400 0.86790 0.08740 0.06200
C 	C 	0.85150 0.77530 0.12750 -0.04700
H 	H 	0.79780 0.79200 0.12080 0.03900
C 	C 	0.88310 0.87730 0.18650 -0.13200
H 	H 	0.84730 0.85920 0.20800 0.07100
Zn	Zn	0.02173 0.17473 0.15371 1.14000
O 	O 	0.97050 0.22740 0.06420 -0.27600
O 	O 	0.93740 0.19060 0.21230 -0.82000
O 	O 	0.12370 0.22320 0.24290 -0.26400
Zn	Zn	0.94520 0.14964 0.19657 1.27600
Zn	Zn	0.94489 0.47178 0.18881 1.22400
O 	O 	0.06770 0.38430 0.24430 -0.68000
O 	O 	0.07250 0.46390 0.26490 -0.54600
O 	O 	0.89160 0.45280 0.06270 -0.54400
O 	O 	0.90110 0.37290 0.06190 -0.61700
O 	O 	0.86540 0.46990 0.24630 -0.52800
O 	O 	0.87320 0.39240 0.24480 -0.52200
N 	N 	0.93870 0.54510 0.16870 -0.24800
C 	C 	0.76960 0.46640 0.34920 0.17300
H 	H 	0.78380 0.49740 0.33420 -0.01900
C 	C 	0.70240 0.41800 0.42620 0.24600
C 	C 	0.55570 0.41720 0.43780 0.31000
C 	C 	0.70010 0.41250 0.57790 0.32500
C 	C 	0.55620 0.41870 0.58630 0.31400
C 	C 	0.50230 0.42020 0.33380 -0.65100
H 	H 	0.48870 0.38750 0.30800 0.21000
H 	H 	0.44430 0.43770 0.31640 0.20800
H 	H 	0.53940 0.43740 0.31000 0.21000
C 	C 	0.65190 0.41600 0.48190 -0.31300
C 	C 	0.72970 0.45470 0.78050 -0.24600
H 	H 	0.70950 0.48450 0.74870 0.10700
C 	C 	0.92780 0.69790 0.13710 -0.01800
C 	C 	0.50740 0.41760 0.49070 -0.30200
C 	C 	0.35680 0.45960 0.43460 -0.26000
H 	H 	0.38910 0.48830 0.46370 0.11400
C 	C 	0.50460 0.42270 0.64370 -0.65100
H 	H 	0.44140 0.41080 0.60800 0.21400
H 	H 	0.53630 0.40320 0.69950 0.21300
H 	H 	0.50300 0.45660 0.66040 0.20600
C 	C 	0.26030 0.37820 0.34640 0.14400
H 	H 	0.22800 0.34960 0.31660 -0.02100
C 	C 	0.40590 0.41870 0.44290 0.22100
C 	C 	0.80440 0.40730 0.62440 -0.67900
H 	H 	0.82840 0.41820 0.58260 0.22700
H 	H 	0.83120 0.42710 0.68020 0.23000
H 	H 	0.82100 0.37330 0.64050 0.22200
C 	C 	0.21270 0.42040 0.33780 -0.24000
C 	C 	0.70580 0.41230 0.73130 0.22600
C 	C 	0.65180 0.41520 0.62970 -0.30800
C 	C 	0.79580 0.42540 0.32000 -0.25500
C 	C 	0.10990 0.42300 0.27650 0.49200
C 	C 	0.72220 0.46220 0.40070 -0.27700
H 	H 	0.70280 0.49080 0.41900 0.11600
C 	C 	0.81280 0.41090 0.92150 -0.23600
C 	C 	0.93100 0.64670 0.14590 0.06800
C 	C 	0.35680 0.37730 0.39910 -0.24500
H 	H 	0.38910 0.34780 0.40510 0.10900
C 	C 	0.73010 0.37850 0.39860 -0.28300
H 	H 	0.71670 0.34750 0.41440 0.12200
C 	C 	0.78340 0.45530 0.87700 0.13800
H 	H 	0.79880 0.48480 0.91030 -0.01300
C 	C 	0.73440 0.36980 0.77890 -0.26400
H 	H 	0.71680 0.34010 0.74640 0.11300
C 	C 	0.88740 0.57320 0.19540 0.06000
H 	H 	0.85270 0.55800 0.22150 0.00600
C 	C 	0.00340 0.72490 0.14260 -0.04700
H 	H 	0.05610 0.70820 0.14650 0.04300
C 	C 	0.78800 0.36880 0.87270 0.16100
H 	H 	0.80770 0.33870 0.90350 -0.01600
C 	C 	0.84830 0.42940 0.26610 0.49900
C 	C 	0.25970 0.46130 0.38450 0.14700
H 	H 	0.22710 0.49010 0.38280 -0.01400
C 	C 	0.98460 0.56890 0.12880 0.07000
H 	H 	0.02080 0.55030 0.10850 -0.01100
C 	C 	0.77840 0.38210 0.34690 0.17800
H 	H 	0.79940 0.35340 0.33040 -0.01000
C 	C 	0.87230 0.41190 0.02390 0.49200
C 	C 	0.98130 0.61780 0.11650 -0.14000
H 	H 	0.01400 0.63210 0.08740 0.06300
C 	C 	0.85150 0.72470 0.12750 -0.04700
H 	H 	0.79780 0.70800 0.12080 0.03900
C 	C 	0.88310 0.62270 0.18650 -0.13200
H 	H 	0.84730 0.64080 0.20800 0.07100
Zn	Zn	0.02173 0.32527 0.15371 1.14000
O 	O 	0.97050 0.27260 0.06420 -0.27600
O 	O 	0.93740 0.30940 0.21230 -0.82000
O 	O 	0.12370 0.27680 0.24290 -0.26400
Zn	Zn	0.94520 0.35036 0.19657 1.27600
