data_crystal

_cell_length_a 11.40600
_cell_length_b 11.63600
_cell_length_c 14.21970
_cell_angle_alpha 96.09300
_cell_angle_beta  106.26400
_cell_angle_gamma 115.74100

_symmetry_space_group_name_	'P 1'
_symmetry_space_group_name_H-M	'P 1'

loop_
_symmetry_equiv_pos_as_xyz
  x,y,z

loop_
_atom_site_label
_atom_site_type_symbol
_atom_site_fract_x
_atom_site_fract_y
_atom_site_fract_z
_atom_site_charge
Ag	Ag	0.08252 0.44748 0.41600 0.40400
Ag	Ag	0.55244 0.64060 0.51600 0.35000
Ag	Ag	0.67897 0.52603 0.42023 0.37600
Ag	Ag	0.32103 0.47397 0.57977 0.37600
Ag	Ag	0.14806 0.21865 0.43078 0.33800
Ag	Ag	0.94785 0.97987 0.20261 0.49200
Ag	Ag	0.91748 0.55252 0.58400 0.40500
Ag	Ag	0.05215 0.02013 0.79739 0.49300
Ag	Ag	0.44756 0.35940 0.48400 0.35100
Ag	Ag	0.85194 0.78135 0.56922 0.33900
H 	H 	0.29750 0.67310 0.26810 -0.00900
H 	H 	0.75410 0.31480 0.89880 0.09200
H 	H 	0.49160 0.67910 0.95690 0.12400
H 	H 	0.57360 0.69460 0.10930 0.09200
H 	H 	0.34610 0.29680 0.72230 -0.07500
H 	H 	0.42640 0.30540 0.89070 0.09200
H 	H 	0.17110 0.50230 0.97020 0.05900
H 	H 	0.82890 0.49770 0.02980 0.05900
H 	H 	0.50840 0.32090 0.04310 0.12400
H 	H 	0.41400 0.65890 0.78550 0.00000
H 	H 	0.24590 0.68520 0.10120 0.09200
H 	H 	0.81770 0.71700 0.82550 0.01500
H 	H 	0.70250 0.32690 0.73190 -0.00900
H 	H 	0.58600 0.34110 0.21450 0.00000
H 	H 	0.65390 0.70320 0.27770 -0.07500
H 	H 	0.18230 0.28300 0.17450 0.01500
C 	C 	0.75740 0.52370 0.76200 -0.07300
C 	C 	0.73650 0.40330 0.78500 -0.01900
C 	C 	0.70070 0.55070 0.57380 -0.49800
C 	C 	0.76510 0.39580 0.88380 -0.06000
C 	C 	0.12600 0.77420 0.77480 0.11800
C 	C 	0.29930 0.44930 0.42620 -0.49800
C 	C 	0.62280 0.62360 0.22910 0.08500
C 	C 	0.73090 0.53430 0.65870 0.02200
C 	C 	0.24100 0.84370 0.88180 0.89900
C 	C 	0.47190 0.49440 0.94500 0.06600
C 	C 	0.17390 0.37780 0.06070 -0.02000
C 	C 	0.42510 0.38060 0.87140 -0.16000
C 	C 	0.58420 0.41470 0.19230 0.07900
C 	C 	0.23490 0.60420 0.11620 -0.06000
C 	C 	0.80970 0.50390 0.96160 -0.01700
C 	C 	0.19030 0.49610 0.03840 -0.01700
C 	C 	0.26910 0.46570 0.34130 0.02200
C 	C 	0.13670 0.26590 0.98220 0.09900
C 	C 	0.19710 0.36500 0.16020 -0.01600
C 	C 	0.82610 0.62220 0.93930 -0.02000
C 	C 	0.26350 0.59670 0.21500 -0.01900
C 	C 	0.41580 0.58530 0.80770 0.07900
C 	C 	0.53600 0.40090 0.08970 -0.13900
C 	C 	0.87400 0.22580 0.22520 0.11800
C 	C 	0.46400 0.59910 0.91030 -0.13900
C 	C 	0.37720 0.37640 0.77090 0.08500
C 	C 	0.80290 0.63500 0.83980 -0.01600
C 	C 	0.75900 0.15630 0.11820 0.89900
C 	C 	0.52810 0.50560 0.05500 0.06600
C 	C 	0.24260 0.47630 0.23800 -0.07300
C 	C 	0.86330 0.73410 0.01780 0.09900
C 	C 	0.57490 0.61940 0.12860 -0.16000
N 	N 	0.37120 0.47530 0.73700 -0.24100
N 	N 	0.11510 0.18240 0.92070 -0.20400
N 	N 	0.62880 0.52470 0.26300 -0.24100
N 	N 	0.88490 0.81760 0.07930 -0.20400
O 	O 	0.95320 0.17990 0.25020 -0.34000
O 	O 	0.12440 0.67800 0.72670 -0.29400
O 	O 	0.87560 0.32200 0.27330 -0.29400
O 	O 	0.04680 0.82010 0.74980 -0.34000
F 	F 	0.65780 0.17920 0.10440 -0.51700
F 	F 	0.29640 0.97330 0.90510 -0.51100
F 	F 	0.18910 0.81050 0.95100 -0.51900
F 	F 	0.34220 0.82080 0.89560 -0.51700
F 	F 	0.70360 0.02670 0.09490 -0.51100
F 	F 	0.81090 0.18950 0.04900 -0.51900
