data_crystal

_cell_length_a 13.74910
_cell_length_b 21.71940
_cell_length_c 15.54740
_cell_angle_alpha 90.00000
_cell_angle_beta  90.00000
_cell_angle_gamma 90.00000

_symmetry_space_group_name_	'P 1'
_symmetry_space_group_name_H-M	'P 1'

loop_
_symmetry_equiv_pos_as_xyz
  x,y,z

loop_
_atom_site_label
_atom_site_type_symbol
_atom_site_fract_x
_atom_site_fract_y
_atom_site_fract_z
_atom_site_charge
Ag	Ag	0.14727 0.79013 0.90224 0.50300
Ag	Ag	0.61758 0.22291 0.88566 0.50400
Ag	Ag	0.61758 0.27709 0.38566 0.50400
Ag	Ag	0.02456 0.25868 0.73771 0.45400
Ag	Ag	0.32772 0.70560 0.25787 0.45300
Ag	Ag	0.97544 0.74132 0.26229 0.45400
Ag	Ag	0.52456 0.74132 0.76229 0.45500
Ag	Ag	0.67228 0.29440 0.74213 0.45300
Ag	Ag	0.38242 0.77709 0.11434 0.50400
Ag	Ag	0.82772 0.20560 0.74213 0.45400
Ag	Ag	0.11758 0.77709 0.61434 0.50400
Ag	Ag	0.85273 0.20987 0.09776 0.50300
Ag	Ag	0.17228 0.70560 0.75787 0.45300
Ag	Ag	0.47544 0.25868 0.23771 0.45500
Ag	Ag	0.17228 0.79440 0.25787 0.45400
Ag	Ag	0.64727 0.29013 0.09776 0.50300
Ag	Ag	0.14727 0.70987 0.40224 0.50400
Ag	Ag	0.52456 0.75868 0.26229 0.45500
Ag	Ag	0.88242 0.27709 0.88566 0.50500
Ag	Ag	0.02456 0.24132 0.23771 0.45600
Ag	Ag	0.97544 0.75868 0.76229 0.45600
Ag	Ag	0.32772 0.79440 0.75787 0.45300
Ag	Ag	0.38242 0.72291 0.61434 0.50400
Ag	Ag	0.35273 0.79013 0.40224 0.50400
Ag	Ag	0.35273 0.70987 0.90224 0.50300
Ag	Ag	0.11758 0.72291 0.11434 0.50500
Ag	Ag	0.82772 0.29440 0.24213 0.45300
Ag	Ag	0.67228 0.20560 0.24213 0.45300
Ag	Ag	0.88242 0.22291 0.38566 0.50400
Ag	Ag	0.85273 0.29013 0.59776 0.50400
Ag	Ag	0.64727 0.20987 0.59776 0.50400
Ag	Ag	0.47544 0.24132 0.73771 0.45500
H 	H 	0.02130 0.42610 0.76740 0.02300
H 	H 	0.25300 0.05450 0.27420 0.12700
H 	H 	0.24700 0.44550 0.27420 0.12500
H 	H 	0.47870 0.42610 0.26740 0.02600
H 	H 	0.02130 0.07390 0.26740 0.02100
H 	H 	0.76570 0.05260 0.72110 0.05600
H 	H 	0.54040 0.03310 0.22970 0.15300
H 	H 	0.47870 0.07390 0.76740 0.02300
H 	H 	0.04040 0.96690 0.27030 0.15800
H 	H 	0.24700 0.05450 0.77420 0.12700
H 	H 	0.97870 0.57390 0.23260 0.02300
H 	H 	0.45960 0.96690 0.77030 0.15300
H 	H 	0.04040 0.53310 0.77030 0.14900
H 	H 	0.25300 0.44550 0.77420 0.12500
H 	H 	0.95960 0.03310 0.72970 0.15800
H 	H 	0.23430 0.55260 0.77890 0.05800
H 	H 	0.26570 0.94740 0.77890 0.05600
H 	H 	0.95960 0.46690 0.22970 0.14900
H 	H 	0.23430 0.94740 0.27890 0.05600
H 	H 	0.73430 0.44740 0.72110 0.05800
H 	H 	0.52130 0.92610 0.23260 0.02300
H 	H 	0.74700 0.94550 0.72580 0.12700
H 	H 	0.73430 0.05260 0.22110 0.05600
H 	H 	0.52130 0.57390 0.73260 0.02600
H 	H 	0.45960 0.53310 0.27030 0.15000
H 	H 	0.26570 0.55260 0.27890 0.05800
H 	H 	0.97870 0.92610 0.73260 0.02100
H 	H 	0.75300 0.55450 0.72580 0.12500
H 	H 	0.76570 0.44740 0.22110 0.05800
H 	H 	0.74700 0.55450 0.22580 0.12500
H 	H 	0.75300 0.94550 0.22580 0.12700
H 	H 	0.54040 0.46690 0.72970 0.15000
C 	C 	0.03320 0.54780 0.24110 0.13000
C 	C 	0.79660 0.46480 0.73170 0.12000
C 	C 	0.39820 0.91390 0.98820 0.95100
C 	C 	0.42580 0.16760 0.24030 -0.07100
C 	C 	0.92580 0.83240 0.25970 -0.07200
C 	C 	0.29660 0.53520 0.76830 0.11900
C 	C 	0.07420 0.16760 0.74030 -0.07200
C 	C 	0.62440 0.07320 0.74380 -0.06700
C 	C 	0.63150 0.14110 0.06590 0.08000
C 	C 	0.86570 0.13180 0.91230 0.13900
C 	C 	0.61110 0.42800 0.96150 0.88000
C 	C 	0.42580 0.33240 0.74030 -0.07100
C 	C 	0.37560 0.57320 0.75620 -0.06100
C 	C 	0.13470 0.86030 0.75860 0.14100
C 	C 	0.79660 0.03520 0.23170 0.12400
C 	C 	0.36570 0.63180 0.08770 0.13900
C 	C 	0.02190 0.01530 0.73840 -0.13300
C 	C 	0.10180 0.58610 0.98820 0.94900
C 	C 	0.86320 0.30530 0.74450 -0.47500
C 	C 	0.36850 0.64110 0.43410 0.07900
C 	C 	0.63470 0.13970 0.74140 0.14100
C 	C 	0.53320 0.04780 0.75890 0.13300
C 	C 	0.63430 0.13180 0.41230 0.14000
C 	C 	0.11110 0.57200 0.53850 0.87900
C 	C 	0.89820 0.41390 0.01180 0.94900
C 	C 	0.20340 0.53520 0.26830 0.12000
C 	C 	0.88890 0.07200 0.96150 0.88300
C 	C 	0.96680 0.45220 0.75890 0.13000
C 	C 	0.87560 0.07320 0.24380 -0.06700
C 	C 	0.37560 0.92680 0.25620 -0.06700
C 	C 	0.86570 0.36820 0.41230 0.14000
C 	C 	0.36530 0.63970 0.75860 0.13900
C 	C 	0.86850 0.35890 0.06590 0.08000
C 	C 	0.63680 0.30530 0.24450 -0.47600
C 	C 	0.11110 0.92800 0.03850 0.88300
C 	C 	0.70340 0.03520 0.73170 0.12700
C 	C 	0.13150 0.85890 0.43410 0.07900
C 	C 	0.19290 0.02800 0.76510 -0.12100
C 	C 	0.60200 0.55150 0.25140 0.21100
C 	C 	0.63680 0.19470 0.74450 -0.47700
C 	C 	0.36320 0.69470 0.75550 -0.47600
C 	C 	0.10200 0.05150 0.74860 0.21700
C 	C 	0.29660 0.96480 0.26830 0.12700
C 	C 	0.19290 0.47200 0.26510 -0.11500
C 	C 	0.61110 0.07200 0.46150 0.87900
C 	C 	0.70340 0.46480 0.23170 0.11900
C 	C 	0.38890 0.57200 0.03850 0.88000
C 	C 	0.97810 0.51530 0.76160 -0.11600
C 	C 	0.97810 0.98470 0.26160 -0.13300
C 	C 	0.89800 0.55150 0.75140 0.21100
C 	C 	0.36320 0.80530 0.25550 -0.47700
C 	C 	0.63470 0.36030 0.24140 0.13900
C 	C 	0.80710 0.52800 0.73490 -0.11500
C 	C 	0.86530 0.36030 0.74140 0.14000
C 	C 	0.46680 0.54780 0.74110 0.12600
C 	C 	0.69290 0.97200 0.73490 -0.12400
C 	C 	0.92580 0.66760 0.75970 -0.07000
C 	C 	0.53320 0.45220 0.25890 0.12600
C 	C 	0.36570 0.86820 0.58770 0.14000
C 	C 	0.10180 0.91390 0.48820 0.95600
C 	C 	0.02190 0.48470 0.23840 -0.11600
C 	C 	0.86850 0.14110 0.56590 0.07900
C 	C 	0.03320 0.95220 0.74110 0.13600
C 	C 	0.13680 0.69470 0.25550 -0.47500
C 	C 	0.10200 0.44850 0.24860 0.21100
C 	C 	0.46680 0.95220 0.24110 0.13300
C 	C 	0.89800 0.94850 0.25140 0.21700
C 	C 	0.69290 0.52800 0.23490 -0.11500
C 	C 	0.87560 0.42680 0.74380 -0.06300
C 	C 	0.13150 0.64110 0.93410 0.08000
C 	C 	0.60180 0.41390 0.51180 0.95600
C 	C 	0.20340 0.96480 0.76830 0.12400
C 	C 	0.60200 0.94850 0.75140 0.21500
C 	C 	0.30710 0.47200 0.76510 -0.11500
C 	C 	0.39800 0.44850 0.74860 0.21100
C 	C 	0.38890 0.92800 0.53850 0.87900
C 	C 	0.12440 0.92680 0.75620 -0.06700
C 	C 	0.39820 0.58610 0.48820 0.95600
C 	C 	0.52190 0.51530 0.26160 -0.11800
C 	C 	0.88890 0.42800 0.46150 0.87900
C 	C 	0.12440 0.57320 0.25620 -0.06300
C 	C 	0.13680 0.80530 0.75550 -0.47700
C 	C 	0.36530 0.86030 0.25860 0.14100
C 	C 	0.07420 0.33240 0.24030 -0.07000
C 	C 	0.13430 0.63180 0.58770 0.14000
C 	C 	0.47810 0.01530 0.23840 -0.12600
C 	C 	0.60180 0.08610 0.01180 0.95100
C 	C 	0.63150 0.35890 0.56590 0.07900
C 	C 	0.86320 0.19470 0.24450 -0.47700
C 	C 	0.47810 0.48470 0.73840 -0.11800
C 	C 	0.89820 0.08610 0.51180 0.95600
C 	C 	0.52190 0.98470 0.76160 -0.12600
C 	C 	0.39800 0.05150 0.24860 0.21500
C 	C 	0.57420 0.66760 0.25970 -0.07100
C 	C 	0.62440 0.42680 0.24380 -0.06100
C 	C 	0.13430 0.86820 0.08770 0.13900
C 	C 	0.63430 0.36820 0.91230 0.13900
C 	C 	0.86530 0.13970 0.24140 0.14100
C 	C 	0.80710 0.97200 0.23490 -0.12100
C 	C 	0.57420 0.83240 0.75970 -0.07100
C 	C 	0.13470 0.63970 0.25860 0.14000
C 	C 	0.36850 0.85890 0.93410 0.08000
C 	C 	0.30710 0.02800 0.26510 -0.12400
C 	C 	0.96680 0.04780 0.25890 0.13600
N 	N 	0.58970 0.61540 0.25540 -0.09900
N 	N 	0.08970 0.38460 0.24460 -0.09900
N 	N 	0.58970 0.88460 0.75540 -0.10000
N 	N 	0.41030 0.38460 0.74460 -0.09900
N 	N 	0.91030 0.88460 0.25540 -0.10100
N 	N 	0.41030 0.11540 0.24460 -0.10000
N 	N 	0.08970 0.11540 0.74460 -0.10100
N 	N 	0.91030 0.61540 0.75540 -0.09900
O 	O 	0.65070 0.31010 0.52730 -0.31800
O 	O 	0.63940 0.12570 0.33360 -0.24100
O 	O 	0.84930 0.18990 0.52730 -0.31800
O 	O 	0.36410 0.63060 0.35610 -0.23600
O 	O 	0.85820 0.32050 0.45510 -0.32300
O 	O 	0.35820 0.67950 0.04490 -0.32300
O 	O 	0.84930 0.31010 0.02730 -0.32100
O 	O 	0.63590 0.13060 0.14390 -0.23600
O 	O 	0.36410 0.86940 0.85610 -0.23600
O 	O 	0.13590 0.86940 0.35610 -0.23500
O 	O 	0.13940 0.87430 0.16640 -0.24000
O 	O 	0.86060 0.37430 0.33360 -0.24100
O 	O 	0.13590 0.63060 0.85610 -0.23600
O 	O 	0.63590 0.36940 0.64390 -0.23600
O 	O 	0.13940 0.62570 0.66640 -0.24100
O 	O 	0.86060 0.12570 0.83360 -0.24000
O 	O 	0.36060 0.87430 0.66640 -0.24100
O 	O 	0.15070 0.68990 0.97270 -0.32100
O 	O 	0.14180 0.67950 0.54490 -0.32300
O 	O 	0.15070 0.81010 0.47270 -0.31800
O 	O 	0.14180 0.82050 0.04490 -0.32100
O 	O 	0.64180 0.32050 0.95510 -0.32300
O 	O 	0.36060 0.62570 0.16640 -0.24100
O 	O 	0.35820 0.82050 0.54490 -0.32300
O 	O 	0.86410 0.36940 0.14390 -0.23600
O 	O 	0.64180 0.17950 0.45510 -0.32300
O 	O 	0.86410 0.13060 0.64390 -0.23500
O 	O 	0.34930 0.81010 0.97270 -0.32000
O 	O 	0.85820 0.17950 0.95510 -0.32100
O 	O 	0.34930 0.68990 0.47270 -0.31800
O 	O 	0.63940 0.37430 0.83360 -0.24100
O 	O 	0.65070 0.18990 0.02730 -0.32000
F 	F 	0.35910 0.58750 0.56310 -0.52100
F 	F 	0.86480 0.07440 0.04190 -0.50500
F 	F 	0.98320 0.43870 0.45500 -0.44700
F 	F 	0.14090 0.91250 0.56310 -0.52100
F 	F 	0.01140 0.58510 0.00180 -0.49600
F 	F 	0.37930 0.53360 0.45440 -0.45300
F 	F 	0.01140 0.91490 0.50180 -0.49900
F 	F 	0.15030 0.97610 0.07380 -0.44200
F 	F 	0.51680 0.43870 0.95500 -0.44800
F 	F 	0.01680 0.56130 0.54500 -0.44700
F 	F 	0.12070 0.96640 0.45440 -0.45300
F 	F 	0.98860 0.41490 0.99820 -0.49600
F 	F 	0.34970 0.52390 0.07380 -0.44200
F 	F 	0.34970 0.97610 0.57380 -0.44200
F 	F 	0.36480 0.57440 0.95810 -0.50200
F 	F 	0.48860 0.58510 0.50180 -0.50000
F 	F 	0.84970 0.47610 0.42620 -0.44200
F 	F 	0.65030 0.47610 0.92620 -0.44200
F 	F 	0.51140 0.41490 0.49820 -0.50000
F 	F 	0.87930 0.03360 0.54560 -0.45300
F 	F 	0.48320 0.56130 0.04500 -0.44800
F 	F 	0.85910 0.08750 0.43690 -0.52100
F 	F 	0.98320 0.06130 0.95500 -0.44600
F 	F 	0.64090 0.41250 0.43690 -0.52100
F 	F 	0.15030 0.52390 0.57380 -0.44200
F 	F 	0.86480 0.42560 0.54190 -0.50100
F 	F 	0.48860 0.91490 0.00180 -0.49700
F 	F 	0.12070 0.53360 0.95440 -0.45400
F 	F 	0.65030 0.02390 0.42620 -0.44200
F 	F 	0.36480 0.92560 0.45810 -0.50100
F 	F 	0.14090 0.58750 0.06310 -0.51800
F 	F 	0.37930 0.96640 0.95440 -0.45400
F 	F 	0.13520 0.92560 0.95810 -0.50500
F 	F 	0.01680 0.93870 0.04500 -0.44600
F 	F 	0.62070 0.46640 0.54560 -0.45300
F 	F 	0.87930 0.46640 0.04560 -0.45400
F 	F 	0.84970 0.02390 0.92620 -0.44200
F 	F 	0.62070 0.03360 0.04560 -0.45400
F 	F 	0.48320 0.93870 0.54500 -0.44800
F 	F 	0.85910 0.41250 0.93690 -0.51800
F 	F 	0.13520 0.57440 0.45810 -0.50100
F 	F 	0.98860 0.08510 0.49820 -0.49900
F 	F 	0.63520 0.42560 0.04190 -0.50200
F 	F 	0.35910 0.91250 0.06310 -0.51900
F 	F 	0.63520 0.07440 0.54190 -0.50100
F 	F 	0.64090 0.08750 0.93690 -0.51900
F 	F 	0.51680 0.06130 0.45500 -0.44800
F 	F 	0.51140 0.08510 0.99820 -0.49700
