data_crystal

_cell_length_a 13.06620
_cell_length_b 14.76590
_cell_length_c 15.39250
_cell_angle_alpha 90.00000
_cell_angle_beta  90.29600
_cell_angle_gamma 90.00000

_symmetry_space_group_name_	'P 1'
_symmetry_space_group_name_H-M	'P 1'

loop_
_symmetry_equiv_pos_as_xyz
  x,y,z

loop_
_atom_site_label
_atom_site_type_symbol
_atom_site_fract_x
_atom_site_fract_y
_atom_site_fract_z
_atom_site_charge
Cu	Cu	0.51254 0.28600 0.90876 0.87100
N 	N 	0.59455 0.40318 0.04754 -0.15300
N 	N 	0.60208 0.32237 0.01059 -0.17200
N 	N 	0.66541 0.27022 0.05652 -0.10800
N 	N 	0.65291 0.40671 0.11814 -0.09100
N 	N 	0.40878 0.37453 0.95120 -0.22300
N 	N 	0.32414 0.34856 0.96595 -0.03800
N 	N 	0.24240 0.32460 0.98240 -0.06500
N 	N 	0.42511 0.50225 0.11446 -0.15600
N 	N 	0.37029 0.43172 0.14163 -0.10000
N 	N 	0.41436 0.57196 0.16779 -0.10600
N 	N 	0.35149 0.54832 0.23214 -0.09200
N 	N 	0.12080 0.29261 0.35366 -0.23400
N 	N 	0.91230 0.24892 0.31484 -0.21700
C 	C 	0.69525 0.32403 0.12214 0.09500
C 	C 	0.76820 0.29687 0.18970 0.05000
C 	C 	0.80660 0.20906 0.19366 -0.11500
H 	H 	0.78460 0.16450 0.15320 0.06800
C 	C 	0.80270 0.35921 0.25060 -0.11600
H 	H 	0.77700 0.41940 0.25040 0.08100
C 	C 	0.32630 0.46180 0.21377 0.09400
C 	C 	0.25570 0.40510 0.26371 0.04800
C 	C 	0.21010 0.33007 0.22387 -0.12100
H 	H 	0.22470 0.31620 0.16500 0.07400
C 	C 	0.14440 0.27678 0.27014 0.06600
H 	H 	0.11410 0.22620 0.24190 -0.01000
C 	C 	0.16480 0.36415 0.39237 0.06700
H 	H 	0.14930 0.37600 0.45150 -0.01200
C 	C 	0.23180 0.42147 0.35000 -0.12100
H 	H 	0.26120 0.47160 0.37970 0.07500
C 	C 	0.87450 0.33295 0.31124 0.07900
H 	H 	0.89810 0.37630 0.35230 -0.00600
C 	C 	0.87720 0.18788 0.25742 0.07500
H 	H 	0.90210 0.12750 0.26080 0.00400
Cu	Cu	0.98746 0.78600 0.59124 0.87900
N 	N 	0.90545 0.90318 0.45246 -0.12700
N 	N 	0.89792 0.82237 0.48941 -0.15000
N 	N 	0.83459 0.77022 0.44348 -0.09500
N 	N 	0.84709 0.90671 0.38186 -0.07800
N 	N 	0.09122 0.87453 0.54880 -0.23900
N 	N 	0.17586 0.84856 0.53405 -0.04100
N 	N 	0.25760 0.82460 0.51760 -0.06900
N 	N 	0.07489 0.00225 0.38554 -0.17800
N 	N 	0.12971 0.93172 0.35837 -0.08500
N 	N 	0.08564 0.07196 0.33221 -0.11400
N 	N 	0.14851 0.04832 0.26786 -0.12000
N 	N 	0.37920 0.79261 0.14634 -0.23200
N 	N 	0.58770 0.74892 0.18516 -0.23000
C 	C 	0.80475 0.82403 0.37786 0.10200
C 	C 	0.73180 0.79687 0.31030 0.06000
C 	C 	0.69340 0.70906 0.30634 -0.11800
H 	H 	0.71540 0.66450 0.34680 0.08000
C 	C 	0.69730 0.85921 0.24940 -0.12100
H 	H 	0.72300 0.91940 0.24960 0.09000
C 	C 	0.17370 0.96180 0.28623 0.13100
C 	C 	0.24430 0.90510 0.23629 0.04200
C 	C 	0.28990 0.83007 0.27613 -0.11200
H 	H 	0.27530 0.81620 0.33500 0.08500
C 	C 	0.35560 0.77678 0.22986 0.06800
H 	H 	0.38590 0.72620 0.25810 0.00200
C 	C 	0.33520 0.86415 0.10763 0.06600
H 	H 	0.35070 0.87600 0.04850 -0.01500
C 	C 	0.26820 0.92147 0.15000 -0.11400
H 	H 	0.23880 0.97160 0.12030 0.07400
C 	C 	0.62550 0.83295 0.18876 0.08200
H 	H 	0.60190 0.87630 0.14770 -0.01600
C 	C 	0.62280 0.68788 0.24258 0.07800
H 	H 	0.59790 0.62750 0.23920 0.00000
Cu	Cu	0.48746 0.71400 0.09124 0.85300
N 	N 	0.40545 0.59682 0.95246 -0.13500
N 	N 	0.39792 0.67763 0.98941 -0.13900
N 	N 	0.33459 0.72978 0.94348 -0.08700
N 	N 	0.34709 0.59329 0.88186 -0.08800
N 	N 	0.59122 0.62547 0.04880 -0.24400
N 	N 	0.67586 0.65144 0.03405 -0.04700
N 	N 	0.75760 0.67540 0.01760 -0.07900
N 	N 	0.57489 0.49775 0.88554 -0.13700
N 	N 	0.62971 0.56828 0.85837 -0.08300
N 	N 	0.58564 0.42804 0.83221 -0.09800
N 	N 	0.64851 0.45168 0.76786 -0.08600
N 	N 	0.87920 0.70739 0.64634 -0.22500
N 	N 	0.08770 0.75108 0.68516 -0.23900
C 	C 	0.30475 0.67597 0.87786 0.10100
C 	C 	0.23180 0.70313 0.81030 0.05900
C 	C 	0.19340 0.79094 0.80634 -0.11800
H 	H 	0.21540 0.83550 0.84680 0.08800
C 	C 	0.19730 0.64079 0.74940 -0.12300
H 	H 	0.22300 0.58060 0.74960 0.08100
C 	C 	0.67370 0.53820 0.78623 0.10200
C 	C 	0.74430 0.59490 0.73629 0.06100
C 	C 	0.78990 0.66993 0.77613 -0.11700
H 	H 	0.77530 0.68380 0.83500 0.10200
C 	C 	0.85560 0.72322 0.72986 0.08200
H 	H 	0.88590 0.77380 0.75810 0.01300
C 	C 	0.83520 0.63585 0.60763 0.07900
H 	H 	0.85070 0.62400 0.54850 -0.00300
C 	C 	0.76820 0.57853 0.65000 -0.11900
H 	H 	0.73880 0.52840 0.62030 0.08000
C 	C 	0.12550 0.66705 0.68876 0.07800
H 	H 	0.10190 0.62370 0.64770 -0.02500
C 	C 	0.12280 0.81212 0.74258 0.07700
H 	H 	0.09790 0.87250 0.73920 0.00000
Cu	Cu	0.01254 0.21400 0.40876 0.84400
N 	N 	0.09455 0.09682 0.54754 -0.15800
N 	N 	0.10208 0.17763 0.51059 -0.16200
N 	N 	0.16541 0.22978 0.55652 -0.10100
N 	N 	0.15291 0.09329 0.61814 -0.10100
N 	N 	0.90878 0.12547 0.45120 -0.22300
N 	N 	0.82414 0.15144 0.46595 -0.04400
N 	N 	0.74240 0.17540 0.48240 -0.07500
N 	N 	0.92511 0.99775 0.61446 -0.11400
N 	N 	0.87029 0.06828 0.64163 -0.09500
N 	N 	0.91436 0.92804 0.66779 -0.09000
N 	N 	0.85149 0.95168 0.73214 -0.05900
N 	N 	0.62080 0.20739 0.85366 -0.22700
N 	N 	0.41230 0.25108 0.81484 -0.22800
C 	C 	0.19525 0.17597 0.62214 0.09400
C 	C 	0.26820 0.20313 0.68970 0.04800
C 	C 	0.30660 0.29094 0.69366 -0.11600
H 	H 	0.28460 0.33550 0.65320 0.07500
C 	C 	0.30270 0.14079 0.75060 -0.11900
H 	H 	0.27700 0.08060 0.75040 0.07100
C 	C 	0.82630 0.03820 0.71377 0.06800
C 	C 	0.75570 0.09490 0.76371 0.06600
C 	C 	0.71010 0.16993 0.72387 -0.12500
H 	H 	0.72470 0.18380 0.66500 0.09200
C 	C 	0.64440 0.22322 0.77014 0.07900
H 	H 	0.61410 0.27380 0.74190 0.00100
C 	C 	0.66480 0.13585 0.89237 0.07900
H 	H 	0.64930 0.12400 0.95150 0.00000
C 	C 	0.73180 0.07853 0.85000 -0.12600
H 	H 	0.76120 0.02840 0.87970 0.08000
C 	C 	0.37450 0.16705 0.81124 0.07400
H 	H 	0.39810 0.12370 0.85230 -0.01700
C 	C 	0.37720 0.31212 0.75742 0.07300
H 	H 	0.40210 0.37250 0.76080 0.00200
Cu	Cu	0.50000 0.50000 -0.00000 0.85500
Cu	Cu	0.00000 0.00000 0.50000 0.83900
