data_crystal

_cell_length_a 12.30800
_cell_length_b 21.53200
_cell_length_c 19.99800
_cell_angle_alpha 90.00000
_cell_angle_beta  90.00000
_cell_angle_gamma 90.00000

_symmetry_space_group_name_	'P 1'
_symmetry_space_group_name_H-M	'P 1'

loop_
_symmetry_equiv_pos_as_xyz
  x,y,z

loop_
_atom_site_label
_atom_site_type_symbol
_atom_site_fract_x
_atom_site_fract_y
_atom_site_fract_z
_atom_site_charge
V 	V 	0.49789 0.55603 0.33413 1.73400
V 	V 	0.78315 0.60508 0.33365 1.73600
V 	V 	0.62750 0.33762 0.15826 1.73700
V 	V 	0.88714 0.38288 0.15796 1.74100
V 	V 	0.70276 0.46474 0.07425 1.72500
O 	O 	0.94630 0.46010 0.31530 -0.63100
O 	O 	0.83700 0.42110 0.07510 -0.72100
O 	O 	0.77510 0.53660 0.39340 -0.61700
O 	O 	0.39520 0.49120 0.31530 -0.77500
O 	O 	0.78130 0.32030 0.14330 -0.72200
O 	O 	0.72320 0.42990 0.18370 -0.95800
O 	O 	0.62680 0.60260 0.32780 -0.75500
O 	O 	0.50390 0.38300 0.18630 -0.78200
O 	O 	0.63130 0.38480 0.07820 -0.80900
O 	O 	0.57050 0.50480 0.39450 -0.72800
O 	O 	0.93270 0.58570 0.31690 -0.71400
N 	N 	0.24400 0.30780 0.46220 -0.19100
N 	N 	0.27700 0.36730 0.44980 -0.21700
N 	N 	0.41630 0.32240 0.49430 -0.27600
C 	C 	0.33200 0.28210 0.49000 0.01300
C 	C 	0.37700 0.37410 0.47100 0.28800
H 	H 	0.41460 0.41130 0.46960 -0.41200
N 	N 	0.75960 0.19370 0.45630 -0.17500
N 	N 	0.93630 0.21060 0.44200 -0.21800
C 	C 	0.84450 0.22710 0.47390 0.05900
N 	N 	0.79900 0.15620 0.40800 -0.14100
C 	C 	0.90600 0.16530 0.40300 0.06900
H 	H 	0.95200 0.14280 0.37480 -0.02600
Ag	Ag	0.09440 0.26157 0.42688 0.43500
Ag	Ag	0.58365 0.18851 0.47209 0.44300
Ag	Ag	0.45450 0.44930 0.44870 0.57200
W 	W 	0.49789 0.55603 0.16587 0.94100
W 	W 	0.78315 0.60508 0.16635 0.92900
W 	W 	0.62750 0.33762 0.34174 0.95800
W 	W 	0.88714 0.38288 0.34204 0.96700
W 	W 	0.70276 0.46474 0.42575 0.92400
V 	V 	0.50211 0.44397 0.83413 1.73500
V 	V 	0.21685 0.39492 0.83365 1.73700
V 	V 	0.37250 0.66238 0.65826 1.73700
V 	V 	0.11286 0.61712 0.65796 1.74100
V 	V 	0.29724 0.53526 0.57425 1.72500
O 	O 	0.05370 0.53990 0.81530 -0.63100
O 	O 	0.16300 0.57890 0.57510 -0.72100
O 	O 	0.22490 0.46340 0.89340 -0.61700
O 	O 	0.60480 0.50880 0.81530 -0.77500
O 	O 	0.21870 0.67970 0.64330 -0.72200
O 	O 	0.27680 0.57010 0.68370 -0.95800
O 	O 	0.37320 0.39740 0.82780 -0.75500
O 	O 	0.49610 0.61700 0.68630 -0.78200
O 	O 	0.36870 0.61520 0.57820 -0.80900
O 	O 	0.42950 0.49520 0.89450 -0.72800
O 	O 	0.06730 0.41430 0.81690 -0.71400
N 	N 	0.75600 0.69220 0.96220 -0.19100
N 	N 	0.72300 0.63270 0.94980 -0.21700
N 	N 	0.58370 0.67760 0.99430 -0.27600
C 	C 	0.66800 0.71790 0.99000 0.01400
C 	C 	0.62300 0.62590 0.97100 0.28700
H 	H 	0.58540 0.58870 0.96960 -0.41200
N 	N 	0.24040 0.80630 0.95630 -0.17500
N 	N 	0.06370 0.78940 0.94200 -0.21800
C 	C 	0.15550 0.77290 0.97390 0.05900
N 	N 	0.20100 0.84380 0.90800 -0.14100
C 	C 	0.09400 0.83470 0.90300 0.06900
H 	H 	0.04800 0.85720 0.87480 -0.02600
Ag	Ag	0.90560 0.73843 0.92688 0.43500
Ag	Ag	0.41635 0.81149 0.97209 0.44400
Ag	Ag	0.54550 0.55070 0.94870 0.57200
W 	W 	0.50211 0.44397 0.66587 0.94100
W 	W 	0.21685 0.39492 0.66635 0.92900
W 	W 	0.37250 0.66238 0.84174 0.95800
W 	W 	0.11286 0.61712 0.84204 0.96700
W 	W 	0.29724 0.53526 0.92575 0.92400
V 	V 	0.50211 0.05603 0.16587 1.73500
V 	V 	0.21685 0.10508 0.16635 1.73700
V 	V 	0.37250 0.83762 0.34174 1.73700
V 	V 	0.11286 0.88288 0.34204 1.74200
V 	V 	0.29724 0.96474 0.42575 1.72500
O 	O 	0.05370 0.96010 0.18470 -0.63100
O 	O 	0.16300 0.92110 0.42490 -0.72100
O 	O 	0.22490 0.03660 0.10660 -0.61700
O 	O 	0.60480 0.99120 0.18470 -0.77600
O 	O 	0.21870 0.82030 0.35670 -0.72200
O 	O 	0.27680 0.92990 0.31630 -0.95800
O 	O 	0.37320 0.10260 0.17220 -0.75500
O 	O 	0.49610 0.88300 0.31370 -0.78200
O 	O 	0.36870 0.88480 0.42180 -0.80900
O 	O 	0.42950 0.00480 0.10550 -0.72800
O 	O 	0.06730 0.08570 0.18310 -0.71400
N 	N 	0.75600 0.80780 0.03780 -0.19100
N 	N 	0.72300 0.86730 0.05020 -0.21700
N 	N 	0.58370 0.82240 0.00570 -0.27600
C 	C 	0.66800 0.78210 0.01000 0.01300
C 	C 	0.62300 0.87410 0.02900 0.28700
H 	H 	0.58540 0.91130 0.03040 -0.41200
N 	N 	0.24040 0.69370 0.04370 -0.17500
N 	N 	0.06370 0.71060 0.05800 -0.21800
C 	C 	0.15550 0.72710 0.02610 0.05800
N 	N 	0.20100 0.65620 0.09200 -0.14200
C 	C 	0.09400 0.66530 0.09700 0.06900
H 	H 	0.04800 0.64280 0.12520 -0.02700
Ag	Ag	0.90560 0.76157 0.07312 0.43500
Ag	Ag	0.41635 0.68851 0.02791 0.44300
Ag	Ag	0.54550 0.94930 0.05130 0.57200
W 	W 	0.50211 0.05603 0.33413 0.94200
W 	W 	0.21685 0.10508 0.33365 0.92900
W 	W 	0.37250 0.83762 0.15826 0.95800
W 	W 	0.11286 0.88288 0.15796 0.96700
W 	W 	0.29724 0.96474 0.07425 0.92300
V 	V 	0.49789 0.94397 0.66587 1.73500
V 	V 	0.78315 0.89492 0.66635 1.73700
V 	V 	0.62750 0.16238 0.84174 1.73700
V 	V 	0.88714 0.11712 0.84204 1.74200
V 	V 	0.70276 0.03526 0.92575 1.72500
O 	O 	0.94630 0.03990 0.68470 -0.63100
O 	O 	0.83700 0.07890 0.92490 -0.72100
O 	O 	0.77510 0.96340 0.60660 -0.61800
O 	O 	0.39520 0.00880 0.68470 -0.77600
O 	O 	0.78130 0.17970 0.85670 -0.72200
O 	O 	0.72320 0.07010 0.81630 -0.95800
O 	O 	0.62680 0.89740 0.67220 -0.75500
O 	O 	0.50390 0.11700 0.81370 -0.78200
O 	O 	0.63130 0.11520 0.92180 -0.80900
O 	O 	0.57050 0.99520 0.60550 -0.72900
O 	O 	0.93270 0.91430 0.68310 -0.71400
N 	N 	0.24400 0.19220 0.53780 -0.19100
N 	N 	0.27700 0.13270 0.55020 -0.21700
N 	N 	0.41630 0.17760 0.50570 -0.27600
C 	C 	0.33200 0.21790 0.51000 0.01300
C 	C 	0.37700 0.12590 0.52900 0.28800
H 	H 	0.41460 0.08870 0.53040 -0.41200
N 	N 	0.75960 0.30630 0.54370 -0.17500
N 	N 	0.93630 0.28940 0.55800 -0.21800
C 	C 	0.84450 0.27290 0.52610 0.05900
N 	N 	0.79900 0.34380 0.59200 -0.14200
C 	C 	0.90600 0.33470 0.59700 0.06900
H 	H 	0.95200 0.35720 0.62520 -0.02700
Ag	Ag	0.09440 0.23843 0.57312 0.43500
Ag	Ag	0.58365 0.31149 0.52791 0.44300
Ag	Ag	0.45450 0.05070 0.55130 0.57200
W 	W 	0.49789 0.94397 0.83413 0.94100
W 	W 	0.78315 0.89492 0.83365 0.92900
W 	W 	0.62750 0.16238 0.65826 0.95800
W 	W 	0.88714 0.11712 0.65796 0.96700
W 	W 	0.70276 0.03526 0.57425 0.92500
O 	O 	0.05370 0.53990 0.68470 -0.76000
O 	O 	0.16300 0.57890 0.92490 -0.43300
O 	O 	0.22490 0.46340 0.60660 -0.60800
O 	O 	0.60480 0.50880 0.68470 -0.63500
O 	O 	0.21870 0.67970 0.85670 -0.44000
O 	O 	0.27680 0.57010 0.81630 -0.73600
O 	O 	0.37320 0.39740 0.67220 -0.47600
O 	O 	0.49610 0.61700 0.81370 -0.64900
O 	O 	0.36870 0.61520 0.92180 -0.51500
O 	O 	0.42950 0.49520 0.60550 -0.70500
O 	O 	0.06730 0.41430 0.68310 -0.57500
N 	N 	0.75600 0.69220 0.53780 -0.20600
N 	N 	0.72300 0.63270 0.55020 -0.21700
N 	N 	0.58370 0.67760 0.50570 -0.29500
C 	C 	0.66800 0.71790 0.51000 -0.01400
C 	C 	0.62300 0.62590 0.52900 0.25800
H 	H 	0.58540 0.58870 0.53040 -0.40500
N 	N 	0.24040 0.80630 0.54370 -0.19600
N 	N 	0.06370 0.78940 0.55800 -0.23100
C 	C 	0.15550 0.77290 0.52610 0.03500
N 	N 	0.20100 0.84380 0.59200 -0.16500
C 	C 	0.09400 0.83470 0.59700 0.05300
H 	H 	0.04800 0.85720 0.62520 -0.04300
Ag	Ag	0.90560 0.73843 0.57312 0.39400
Ag	Ag	0.41635 0.81149 0.52791 0.38700
Ag	Ag	0.54550 0.55070 0.55130 0.57400
O 	O 	0.94630 0.46010 0.18470 -0.76000
O 	O 	0.83700 0.42110 0.42490 -0.43300
O 	O 	0.77510 0.53660 0.10660 -0.60800
O 	O 	0.39520 0.49120 0.18470 -0.63500
O 	O 	0.78130 0.32030 0.35670 -0.44000
O 	O 	0.72320 0.42990 0.31630 -0.73600
O 	O 	0.62680 0.60260 0.17220 -0.47600
O 	O 	0.50390 0.38300 0.31370 -0.64900
O 	O 	0.63130 0.38480 0.42180 -0.51500
O 	O 	0.57050 0.50480 0.10550 -0.70500
O 	O 	0.93270 0.58570 0.18310 -0.57500
N 	N 	0.24400 0.30780 0.03780 -0.20600
N 	N 	0.27700 0.36730 0.05020 -0.21700
N 	N 	0.41630 0.32240 0.00570 -0.29500
C 	C 	0.33200 0.28210 0.01000 -0.01300
C 	C 	0.37700 0.37410 0.02900 0.25800
H 	H 	0.41460 0.41130 0.03040 -0.40500
N 	N 	0.75960 0.19370 0.04370 -0.19600
N 	N 	0.93630 0.21060 0.05800 -0.23100
C 	C 	0.84450 0.22710 0.02610 0.03500
N 	N 	0.79900 0.15620 0.09200 -0.16500
C 	C 	0.90600 0.16530 0.09700 0.05300
H 	H 	0.95200 0.14280 0.12520 -0.04300
Ag	Ag	0.09440 0.26157 0.07312 0.39300
Ag	Ag	0.58365 0.18851 0.02791 0.38700
Ag	Ag	0.45450 0.44930 0.05130 0.57400
O 	O 	0.94630 0.03990 0.81530 -0.76000
O 	O 	0.83700 0.07890 0.57510 -0.43300
O 	O 	0.77510 0.96340 0.89340 -0.60800
O 	O 	0.39520 0.00880 0.81530 -0.63500
O 	O 	0.78130 0.17970 0.64330 -0.44000
O 	O 	0.72320 0.07010 0.68370 -0.73600
O 	O 	0.62680 0.89740 0.82780 -0.47600
O 	O 	0.50390 0.11700 0.68630 -0.64900
O 	O 	0.63130 0.11520 0.57820 -0.51500
O 	O 	0.57050 0.99520 0.89450 -0.70500
O 	O 	0.93270 0.91430 0.81690 -0.57500
N 	N 	0.24400 0.19220 0.96220 -0.20600
N 	N 	0.27700 0.13270 0.94980 -0.21800
N 	N 	0.41630 0.17760 0.99430 -0.29500
C 	C 	0.33200 0.21790 0.99000 -0.01400
C 	C 	0.37700 0.12590 0.97100 0.25800
H 	H 	0.41460 0.08870 0.96960 -0.40500
N 	N 	0.75960 0.30630 0.95630 -0.19600
N 	N 	0.93630 0.28940 0.94200 -0.23100
C 	C 	0.84450 0.27290 0.97390 0.03400
N 	N 	0.79900 0.34380 0.90800 -0.16600
C 	C 	0.90600 0.33470 0.90300 0.05300
H 	H 	0.95200 0.35720 0.87480 -0.04300
Ag	Ag	0.09440 0.23843 0.92688 0.39300
Ag	Ag	0.58365 0.31149 0.97209 0.38700
Ag	Ag	0.45450 0.05070 0.94870 0.57300
O 	O 	0.05370 0.96010 0.31530 -0.76000
O 	O 	0.16300 0.92110 0.07510 -0.43300
O 	O 	0.22490 0.03660 0.39340 -0.60800
O 	O 	0.60480 0.99120 0.31530 -0.63500
O 	O 	0.21870 0.82030 0.14330 -0.44000
O 	O 	0.27680 0.92990 0.18370 -0.73600
O 	O 	0.37320 0.10260 0.32780 -0.47600
O 	O 	0.49610 0.88300 0.18630 -0.64900
O 	O 	0.36870 0.88480 0.07820 -0.51500
O 	O 	0.42950 0.00480 0.39450 -0.70500
O 	O 	0.06730 0.08570 0.31690 -0.57500
N 	N 	0.75600 0.80780 0.46220 -0.20600
N 	N 	0.72300 0.86730 0.44980 -0.21800
N 	N 	0.58370 0.82240 0.49430 -0.29500
C 	C 	0.66800 0.78210 0.49000 -0.01400
C 	C 	0.62300 0.87410 0.47100 0.25800
H 	H 	0.58540 0.91130 0.46960 -0.40500
N 	N 	0.24040 0.69370 0.45630 -0.19600
N 	N 	0.06370 0.71060 0.44200 -0.23100
C 	C 	0.15550 0.72710 0.47390 0.03500
N 	N 	0.20100 0.65620 0.40800 -0.16500
C 	C 	0.09400 0.66530 0.40300 0.05300
H 	H 	0.04800 0.64280 0.37480 -0.04300
Ag	Ag	0.90560 0.76157 0.42688 0.39300
Ag	Ag	0.41635 0.68851 0.47209 0.38700
Ag	Ag	0.54550 0.94930 0.44870 0.57400
V 	V 	0.42328 0.42870 0.25000 1.74200
V 	V 	0.96792 0.52306 0.25000 1.74000
Si	Si	0.69950 0.47080 0.25000 1.92800
O 	O 	0.64500 0.31700 0.25000 -0.62600
O 	O 	0.89400 0.36080 0.25000 -0.63300
O 	O 	0.45600 0.59140 0.25000 -0.59600
O 	O 	0.57350 0.49490 0.25000 -0.86500
O 	O 	0.78100 0.52950 0.25000 -0.88700
O 	O 	0.78000 0.65000 0.25000 -0.60100
V 	V 	0.57672 0.57130 0.75000 1.74200
V 	V 	0.03208 0.47694 0.75000 1.74000
Si	Si	0.30050 0.52920 0.75000 1.92800
O 	O 	0.35500 0.68300 0.75000 -0.62600
O 	O 	0.10600 0.63920 0.75000 -0.63300
O 	O 	0.54400 0.40860 0.75000 -0.59600
O 	O 	0.42650 0.50510 0.75000 -0.86500
O 	O 	0.21900 0.47050 0.75000 -0.88700
O 	O 	0.22000 0.35000 0.75000 -0.60100
V 	V 	0.57672 0.92870 0.25000 1.74200
V 	V 	0.03208 0.02306 0.25000 1.74000
Si	Si	0.30050 0.97080 0.25000 1.92900
O 	O 	0.35500 0.81700 0.25000 -0.62600
O 	O 	0.10600 0.86080 0.25000 -0.63300
O 	O 	0.54400 0.09140 0.25000 -0.59600
O 	O 	0.42650 0.99490 0.25000 -0.86600
O 	O 	0.21900 0.02950 0.25000 -0.88800
O 	O 	0.22000 0.15000 0.25000 -0.60100
V 	V 	0.42328 0.07130 0.75000 1.74200
V 	V 	0.96792 0.97694 0.75000 1.74000
Si	Si	0.69950 0.02920 0.75000 1.93000
O 	O 	0.64500 0.18300 0.75000 -0.62600
O 	O 	0.89400 0.13920 0.75000 -0.63300
O 	O 	0.45600 0.90860 0.75000 -0.59600
O 	O 	0.57350 0.00510 0.75000 -0.86600
O 	O 	0.78100 0.97050 0.75000 -0.88800
O 	O 	0.78000 0.85000 0.75000 -0.60100
