data_crystal

_cell_length_a 12.29400
_cell_length_b 21.51400
_cell_length_c 19.63300
_cell_angle_alpha 90.00000
_cell_angle_beta  90.00000
_cell_angle_gamma 90.00000

_symmetry_space_group_name_	'P 1'
_symmetry_space_group_name_H-M	'P 1'

loop_
_symmetry_equiv_pos_as_xyz
  x,y,z

loop_
_atom_site_label
_atom_site_type_symbol
_atom_site_fract_x
_atom_site_fract_y
_atom_site_fract_z
_atom_site_charge
V 	V 	0.99449 0.55462 0.16444 1.74600
O 	O 	0.07120 0.50310 0.10280 -0.74400
O 	O 	0.89500 0.48780 0.18260 -0.73600
O 	O 	0.12540 0.60200 0.16950 -0.74600
V 	V 	0.20344 0.46721 0.07065 1.75500
V 	V 	0.27818 0.60818 0.16492 1.74600
O 	O 	0.34070 0.42600 0.07350 -0.72100
O 	O 	0.13570 0.38700 0.07490 -0.75500
O 	O 	0.22540 0.43110 0.18310 -0.61600
O 	O 	0.27210 0.53980 0.10350 -0.74500
O 	O 	0.00730 0.38060 0.18400 -0.74600
O 	O 	0.42970 0.58880 0.18290 -0.71600
V 	V 	0.39184 0.38730 0.15586 1.74100
V 	V 	0.13440 0.33871 0.15644 1.74400
O 	O 	0.28570 0.32290 0.14130 -0.72900
O 	O 	0.45000 0.46540 0.18290 -0.74700
W 	W 	0.99449 0.55462 0.33556 0.91800
W 	W 	0.20344 0.46721 0.42935 0.97700
W 	W 	0.27818 0.60818 0.33508 0.93400
W 	W 	0.39184 0.38730 0.34414 0.93900
W 	W 	0.13440 0.33871 0.34356 0.95000
O 	O 	0.07120 0.50310 0.39720 -0.45500
O 	O 	0.89500 0.48780 0.31740 -0.60600
O 	O 	0.12540 0.60200 0.33050 -0.45800
O 	O 	0.34070 0.42600 0.42650 -0.44300
O 	O 	0.13570 0.38700 0.42510 -0.48400
O 	O 	0.22540 0.43110 0.31690 -0.36800
O 	O 	0.27210 0.53980 0.39650 -0.44700
O 	O 	0.00730 0.38060 0.31600 -0.60000
O 	O 	0.42970 0.58880 0.31710 -0.58700
O 	O 	0.28570 0.32290 0.35870 -0.44600
O 	O 	0.45000 0.46540 0.31710 -0.59900
O 	O 	0.07570 0.49460 0.25000 -0.52000
O 	O 	0.95080 0.58930 0.25000 -0.60700
V 	V 	0.92559 0.42635 0.25000 1.74200
P 	P 	0.20070 0.47210 0.25000 0.47400
O 	O 	0.27700 0.65180 0.25000 -0.61500
O 	O 	0.27930 0.53360 0.25000 -0.52700
O 	O 	0.39830 0.36590 0.25000 -0.61700
O 	O 	0.15540 0.32000 0.25000 -0.61000
V 	V 	0.46828 0.52891 0.25000 1.74700
V 	V 	0.00551 0.44538 0.66444 1.74500
O 	O 	0.92880 0.49690 0.60280 -0.74500
O 	O 	0.10500 0.51220 0.68260 -0.73700
O 	O 	0.87460 0.39800 0.66950 -0.74700
V 	V 	0.79656 0.53279 0.57065 1.75500
V 	V 	0.72182 0.39182 0.66492 1.74600
O 	O 	0.65930 0.57400 0.57350 -0.72100
O 	O 	0.86430 0.61300 0.57490 -0.75400
O 	O 	0.77460 0.56890 0.68310 -0.61600
O 	O 	0.72790 0.46020 0.60350 -0.74500
O 	O 	0.99270 0.61940 0.68400 -0.74600
O 	O 	0.57030 0.41120 0.68290 -0.71600
V 	V 	0.60816 0.61270 0.65586 1.74100
V 	V 	0.86560 0.66129 0.65644 1.74500
O 	O 	0.71430 0.67710 0.64130 -0.72900
O 	O 	0.55000 0.53460 0.68290 -0.74700
W 	W 	0.00551 0.44538 0.83556 0.91800
W 	W 	0.79656 0.53279 0.92935 0.97700
W 	W 	0.72182 0.39182 0.83508 0.93400
W 	W 	0.60816 0.61270 0.84414 0.93900
W 	W 	0.86560 0.66129 0.84356 0.95000
O 	O 	0.92880 0.49690 0.89720 -0.45500
O 	O 	0.10500 0.51220 0.81740 -0.60600
O 	O 	0.87460 0.39800 0.83050 -0.45700
O 	O 	0.65930 0.57400 0.92650 -0.44400
O 	O 	0.86430 0.61300 0.92510 -0.48400
O 	O 	0.77460 0.56890 0.81690 -0.36800
O 	O 	0.72790 0.46020 0.89650 -0.44700
O 	O 	0.99270 0.61940 0.81600 -0.60000
O 	O 	0.57030 0.41120 0.81710 -0.58700
O 	O 	0.71430 0.67710 0.85870 -0.44600
O 	O 	0.55000 0.53460 0.81710 -0.59900
O 	O 	0.92430 0.50540 0.75000 -0.51900
O 	O 	0.04920 0.41070 0.75000 -0.60700
V 	V 	0.07441 0.57365 0.75000 1.74200
P 	P 	0.79930 0.52790 0.75000 0.47400
O 	O 	0.72300 0.34820 0.75000 -0.61500
O 	O 	0.72070 0.46640 0.75000 -0.52700
O 	O 	0.60170 0.63410 0.75000 -0.61700
O 	O 	0.84460 0.68000 0.75000 -0.61000
V 	V 	0.53172 0.47109 0.75000 1.74700
V 	V 	0.00551 0.05462 0.33556 1.74100
O 	O 	0.92880 0.00310 0.39720 -0.73900
O 	O 	0.10500 0.98780 0.31740 -0.73200
O 	O 	0.87460 0.10200 0.33050 -0.74400
V 	V 	0.79656 0.96721 0.42935 1.75200
V 	V 	0.72182 0.10818 0.33508 1.74600
O 	O 	0.65930 0.92600 0.42650 -0.72200
O 	O 	0.86430 0.88700 0.42510 -0.75600
O 	O 	0.77460 0.93110 0.31690 -0.61700
O 	O 	0.72790 0.03980 0.39650 -0.74300
O 	O 	0.99270 0.88060 0.31600 -0.74900
O 	O 	0.57030 0.08880 0.31710 -0.71600
V 	V 	0.60816 0.88730 0.34414 1.74100
V 	V 	0.86560 0.83871 0.34356 1.74400
O 	O 	0.71430 0.82290 0.35870 -0.72900
O 	O 	0.55000 0.96540 0.31710 -0.74800
W 	W 	0.00551 0.05462 0.16444 0.89900
W 	W 	0.79656 0.96721 0.07065 0.96600
W 	W 	0.72182 0.10818 0.16492 0.93200
W 	W 	0.60816 0.88730 0.15586 0.93900
W 	W 	0.86560 0.83871 0.15644 0.95000
O 	O 	0.92880 0.00310 0.10280 -0.44500
O 	O 	0.10500 0.98780 0.18260 -0.59800
O 	O 	0.87460 0.10200 0.16950 -0.45200
O 	O 	0.65930 0.92600 0.07350 -0.44300
O 	O 	0.86430 0.88700 0.07490 -0.48400
O 	O 	0.77460 0.93110 0.18310 -0.36800
O 	O 	0.72790 0.03980 0.10350 -0.44400
O 	O 	0.99270 0.88060 0.18400 -0.60300
O 	O 	0.57030 0.08880 0.18290 -0.58700
O 	O 	0.71430 0.82290 0.14130 -0.44600
O 	O 	0.55000 0.96540 0.18290 -0.60000
O 	O 	0.92430 0.99460 0.25000 -0.52300
O 	O 	0.04920 0.08930 0.25000 -0.60800
V 	V 	0.07441 0.92635 0.25000 1.74500
P 	P 	0.79930 0.97210 0.25000 0.47100
O 	O 	0.72300 0.15180 0.25000 -0.61500
O 	O 	0.72070 0.03360 0.25000 -0.52400
O 	O 	0.60170 0.86590 0.25000 -0.61600
O 	O 	0.84460 0.82000 0.25000 -0.61000
V 	V 	0.53172 0.02891 0.25000 1.74600
V 	V 	0.99449 0.94538 0.83556 1.74100
O 	O 	0.07120 0.99690 0.89720 -0.74000
O 	O 	0.89500 0.01220 0.81740 -0.73200
O 	O 	0.12540 0.89800 0.83050 -0.74500
V 	V 	0.20344 0.03279 0.92935 1.75300
V 	V 	0.27818 0.89182 0.83508 1.74600
O 	O 	0.34070 0.07400 0.92650 -0.72200
O 	O 	0.13570 0.11300 0.92510 -0.75600
O 	O 	0.22540 0.06890 0.81690 -0.61700
O 	O 	0.27210 0.96020 0.89650 -0.74300
O 	O 	0.00730 0.11940 0.81600 -0.74900
O 	O 	0.42970 0.91120 0.81710 -0.71600
V 	V 	0.39184 0.11270 0.84414 1.74100
V 	V 	0.13440 0.16129 0.84356 1.74400
O 	O 	0.28570 0.17710 0.85870 -0.72900
O 	O 	0.45000 0.03460 0.81710 -0.74700
W 	W 	0.99449 0.94538 0.66444 0.90000
W 	W 	0.20344 0.03279 0.57065 0.96500
W 	W 	0.27818 0.89182 0.66492 0.93300
W 	W 	0.39184 0.11270 0.65586 0.93900
W 	W 	0.13440 0.16129 0.65644 0.95000
O 	O 	0.07120 0.99690 0.60280 -0.44500
O 	O 	0.89500 0.01220 0.68260 -0.59800
O 	O 	0.12540 0.89800 0.66950 -0.45200
O 	O 	0.34070 0.07400 0.57350 -0.44300
O 	O 	0.13570 0.11300 0.57490 -0.48400
O 	O 	0.22540 0.06890 0.68310 -0.36800
O 	O 	0.27210 0.96020 0.60350 -0.44300
O 	O 	0.00730 0.11940 0.68400 -0.60300
O 	O 	0.42970 0.91120 0.68290 -0.58700
O 	O 	0.28570 0.17710 0.64130 -0.44600
O 	O 	0.45000 0.03460 0.68290 -0.60000
O 	O 	0.07570 0.00540 0.75000 -0.52300
O 	O 	0.95080 0.91070 0.75000 -0.60800
V 	V 	0.92559 0.07365 0.75000 1.74500
P 	P 	0.20070 0.02790 0.75000 0.47100
O 	O 	0.27700 0.84820 0.75000 -0.61500
O 	O 	0.27930 0.96640 0.75000 -0.52500
O 	O 	0.39830 0.13410 0.75000 -0.61600
O 	O 	0.15540 0.18000 0.75000 -0.61000
V 	V 	0.46828 0.97109 0.75000 1.74600
Ag	Ag	0.90564 0.68934 0.03095 0.43100
N 	N 	0.07370 0.67860 0.99520 -0.19400
N 	N 	0.72790 0.69200 0.04360 -0.17600
Ag	Ag	0.39792 0.76485 0.07500 0.41400
N 	N 	0.11100 0.62520 0.96610 -0.14200
C 	C 	0.15760 0.71730 0.98850 0.00300
N 	N 	0.24120 0.69190 0.95800 -0.23600
N 	N 	0.54920 0.70840 0.05630 -0.22100
C 	C 	0.20990 0.63340 0.94720 0.04300
C 	C 	0.64280 0.72500 0.02430 0.05500
C 	C 	0.57790 0.66050 0.09530 0.04200
H 	H 	0.25380 0.60260 0.92840 -0.06200
N 	N 	0.68710 0.65180 0.08880 -0.14100
H 	H 	0.53130 0.63700 0.12240 -0.02700
Ag	Ag	0.90564 0.81066 0.96905 0.42900
N 	N 	0.07370 0.82140 0.00480 -0.19300
N 	N 	0.72790 0.80800 0.95640 -0.17600
Ag	Ag	0.39792 0.73515 0.92500 0.41300
N 	N 	0.11100 0.87480 0.03390 -0.14000
C 	C 	0.15760 0.78270 0.01150 0.00400
N 	N 	0.24120 0.80810 0.04200 -0.23600
N 	N 	0.54920 0.79160 0.94370 -0.22100
C 	C 	0.20990 0.86660 0.05280 0.04300
C 	C 	0.64280 0.77500 0.97570 0.05300
C 	C 	0.57790 0.83950 0.90470 0.04200
H 	H 	0.25380 0.89740 0.07160 -0.06100
N 	N 	0.68710 0.84820 0.91120 -0.14200
H 	H 	0.53130 0.86300 0.87760 -0.02800
Ag	Ag	0.09436 0.31066 0.53095 0.43000
N 	N 	0.92630 0.32140 0.49520 -0.19400
N 	N 	0.27210 0.30800 0.54360 -0.17600
Ag	Ag	0.60208 0.23515 0.57500 0.41400
N 	N 	0.88900 0.37480 0.46610 -0.14200
C 	C 	0.84240 0.28270 0.48850 0.00400
N 	N 	0.75880 0.30810 0.45800 -0.23600
N 	N 	0.45080 0.29160 0.55630 -0.22100
C 	C 	0.79010 0.36660 0.44720 0.04300
C 	C 	0.35720 0.27500 0.52430 0.05400
C 	C 	0.42210 0.33950 0.59530 0.04200
H 	H 	0.74620 0.39740 0.42840 -0.06200
N 	N 	0.31290 0.34820 0.58880 -0.14100
H 	H 	0.46870 0.36300 0.62240 -0.02700
Ag	Ag	0.09436 0.18934 0.46905 0.42900
N 	N 	0.92630 0.17860 0.50480 -0.19300
N 	N 	0.27210 0.19200 0.45640 -0.17600
Ag	Ag	0.60208 0.26485 0.42500 0.41400
N 	N 	0.88900 0.12520 0.53390 -0.14000
C 	C 	0.84240 0.21730 0.51150 0.00400
N 	N 	0.75880 0.19190 0.54200 -0.23600
N 	N 	0.45080 0.20840 0.44370 -0.22100
C 	C 	0.79010 0.13340 0.55280 0.04300
C 	C 	0.35720 0.22500 0.47570 0.05400
C 	C 	0.42210 0.16050 0.40470 0.04200
H 	H 	0.74620 0.10260 0.57160 -0.06100
N 	N 	0.31290 0.15180 0.41120 -0.14200
H 	H 	0.46870 0.13700 0.37760 -0.02800
Ag	Ag	0.09436 0.31066 0.96905 0.41800
N 	N 	0.92630 0.32140 0.00480 -0.19300
N 	N 	0.27210 0.30800 0.95640 -0.18600
Ag	Ag	0.60208 0.23515 0.92500 0.41600
N 	N 	0.88900 0.37480 0.03390 -0.13600
C 	C 	0.84240 0.28270 0.01150 0.01600
N 	N 	0.75880 0.30810 0.04200 -0.23200
N 	N 	0.45080 0.29160 0.94370 -0.22000
C 	C 	0.79010 0.36660 0.05280 0.06200
C 	C 	0.35720 0.27500 0.97570 0.03100
C 	C 	0.42210 0.33950 0.90470 0.03500
H 	H 	0.74620 0.39740 0.07160 -0.06400
N 	N 	0.31290 0.34820 0.91120 -0.14200
H 	H 	0.46870 0.36300 0.87760 -0.01100
Ag	Ag	0.09436 0.18934 0.03095 0.41700
N 	N 	0.92630 0.17860 0.99520 -0.19200
N 	N 	0.27210 0.19200 0.04360 -0.18600
Ag	Ag	0.60208 0.26485 0.07500 0.41500
N 	N 	0.88900 0.12520 0.96610 -0.13500
C 	C 	0.84240 0.21730 0.98850 0.01700
N 	N 	0.75880 0.19190 0.95800 -0.23200
N 	N 	0.45080 0.20840 0.05630 -0.22000
C 	C 	0.79010 0.13340 0.94720 0.06300
C 	C 	0.35720 0.22500 0.02430 0.02900
C 	C 	0.42210 0.16050 0.09530 0.03500
H 	H 	0.74620 0.10260 0.92840 -0.06300
N 	N 	0.31290 0.15180 0.08880 -0.14300
H 	H 	0.46870 0.13700 0.12240 -0.01100
Ag	Ag	0.90564 0.68934 0.46905 0.41800
N 	N 	0.07370 0.67860 0.50480 -0.19300
N 	N 	0.72790 0.69200 0.45640 -0.18600
Ag	Ag	0.39792 0.76485 0.42500 0.41600
N 	N 	0.11100 0.62520 0.53390 -0.13600
C 	C 	0.15760 0.71730 0.51150 0.01700
N 	N 	0.24120 0.69190 0.54200 -0.23200
N 	N 	0.54920 0.70840 0.44370 -0.22000
C 	C 	0.20990 0.63340 0.55280 0.06300
C 	C 	0.64280 0.72500 0.47570 0.03000
C 	C 	0.57790 0.66050 0.40470 0.03500
H 	H 	0.25380 0.60260 0.57160 -0.06400
N 	N 	0.68710 0.65180 0.41120 -0.14200
H 	H 	0.53130 0.63700 0.37760 -0.01100
Ag	Ag	0.90564 0.81066 0.53095 0.41700
N 	N 	0.07370 0.82140 0.49520 -0.19200
N 	N 	0.72790 0.80800 0.54360 -0.18600
Ag	Ag	0.39792 0.73515 0.57500 0.41600
N 	N 	0.11100 0.87480 0.46610 -0.13500
C 	C 	0.15760 0.78270 0.48850 0.01700
N 	N 	0.24120 0.80810 0.45800 -0.23200
N 	N 	0.54920 0.79160 0.55630 -0.22000
C 	C 	0.20990 0.86660 0.44720 0.06300
C 	C 	0.64280 0.77500 0.52430 0.03000
C 	C 	0.57790 0.83950 0.59530 0.03500
H 	H 	0.25380 0.89740 0.42840 -0.06300
N 	N 	0.68710 0.84820 0.58880 -0.14300
H 	H 	0.53130 0.86300 0.62240 -0.01100
