data_crystal

_cell_length_a 8.71400
_cell_length_b 10.27500
_cell_length_c 9.32500
_cell_angle_alpha 85.16000
_cell_angle_beta  63.81000
_cell_angle_gamma 72.37000

_symmetry_space_group_name_	'P 1'
_symmetry_space_group_name_H-M	'P 1'

loop_
_symmetry_equiv_pos_as_xyz
  x,y,z

loop_
_atom_site_label
_atom_site_type_symbol
_atom_site_fract_x
_atom_site_fract_y
_atom_site_fract_z
_atom_site_charge
Eu	Eu	0.75630 0.98090 -0.00000 1.41600
Eu	Eu	0.24370 0.01910 -0.00000 1.38600
C 	C 	0.43870 0.92020 0.27210 0.37200
C 	C 	0.28160 0.91180 0.42250 -0.12000
C 	C 	0.28120 0.91600 0.56450 -0.08700
C 	C 	0.11810 0.92330 0.71790 0.36300
C 	C 	0.87580 0.68830 0.98410 0.49800
C 	C 	0.93850 0.53390 0.97700 0.13100
C 	C 	0.56130 0.07980 0.72790 0.35900
C 	C 	0.71840 0.08820 0.57750 -0.08400
C 	C 	0.71880 0.08400 0.43550 -0.11800
C 	C 	0.88190 0.07670 0.28210 0.38600
C 	C 	0.12420 0.31170 0.01590 0.11900
C 	C 	0.06150 0.46610 0.02300 -0.29500
O 	O 	0.41700 0.95400 0.14730 -0.54600
O 	O 	0.59000 0.90000 0.27000 -0.40400
O 	O 	0.11780 0.95760 0.84530 -0.38500
O 	O 	0.98320 0.90160 0.71990 -0.35000
O 	O 	0.94770 0.75600 0.02700 -0.55400
O 	O 	0.75010 0.74670 0.94440 -0.31200
O 	O 	0.58300 0.04600 0.85270 -0.38400
O 	O 	0.41000 0.10000 0.73000 -0.32600
O 	O 	0.88220 0.04240 0.15470 -0.54100
O 	O 	0.01680 0.09840 0.28010 -0.40900
O 	O 	0.05230 0.24400 0.97300 -0.14000
O 	O 	0.24990 0.25330 0.05560 -0.36700
H 	H 	0.15728 0.90146 0.41775 0.06200
H 	H 	0.40865 0.91407 0.57256 0.06600
H 	H 	0.87863 0.47266 0.93059 0.06200
H 	H 	0.84272 0.09854 0.58225 0.06900
H 	H 	0.59135 0.08593 0.42744 0.06400
H 	H 	0.12449 0.52379 0.07011 0.06900
