data_crystal

_cell_length_a 8.47800
_cell_length_b 9.69500
_cell_length_c 17.24300
_cell_angle_alpha 90.00000
_cell_angle_beta  90.00000
_cell_angle_gamma 112.28000

_symmetry_space_group_name_	'P 1'
_symmetry_space_group_name_H-M	'P 1'

loop_
_symmetry_equiv_pos_as_xyz
  x,y,z

loop_
_atom_site_label
_atom_site_type_symbol
_atom_site_fract_x
_atom_site_fract_y
_atom_site_fract_z
_atom_site_charge
Er	Er	0.84330 0.02350 0.25740 1.67100
Er	Er	0.15670 0.47650 0.75740 1.69000
Er	Er	0.15670 0.97650 0.74260 1.67100
Er	Er	0.84330 0.52350 0.24260 1.69000
C 	C 	0.90440 0.02430 0.09790 0.31500
C 	C 	0.94570 0.03010 0.01450 -0.10500
C 	C 	0.56250 0.19940 0.28860 0.43100
C 	C 	0.37670 0.10310 0.30110 -0.11000
C 	C 	0.31230 0.96060 0.28310 -0.14100
C 	C 	0.12880 0.36700 0.21330 0.46500
C 	C 	0.09560 0.47570 0.59790 0.32900
C 	C 	0.05430 0.46990 0.51450 -0.09700
C 	C 	0.43750 0.30060 0.78860 0.43100
C 	C 	0.62330 0.39690 0.80110 -0.10900
C 	C 	0.68770 0.53940 0.78310 -0.14200
C 	C 	0.87120 0.13300 0.71330 0.46500
C 	C 	0.09560 0.97570 0.90210 0.31500
C 	C 	0.05430 0.96990 0.98550 -0.10500
C 	C 	0.43750 0.80060 0.71140 0.43100
C 	C 	0.62330 0.89690 0.69890 -0.11000
C 	C 	0.68770 0.03940 0.71690 -0.14100
C 	C 	0.87120 0.63300 0.78670 0.46500
C 	C 	0.90440 0.52430 0.40210 0.32900
C 	C 	0.94570 0.53010 0.48550 -0.09600
C 	C 	0.56250 0.69940 0.21140 0.43100
C 	C 	0.37670 0.60310 0.19890 -0.10900
C 	C 	0.31230 0.46060 0.21690 -0.14200
C 	C 	0.12880 0.86700 0.28670 0.46400
O 	O 	0.96310 0.95450 0.14510 -0.38700
O 	O 	0.81400 0.09070 0.12170 -0.37100
O 	O 	0.66440 0.13740 0.26990 -0.53600
O 	O 	0.60200 0.33690 0.29650 -0.46200
O 	O 	0.02460 0.42440 0.19240 -0.50700
O 	O 	0.08260 0.23140 0.23160 -0.47400
O 	O 	0.03690 0.54550 0.64510 -0.40200
O 	O 	0.18600 0.40930 0.62170 -0.37100
O 	O 	0.33560 0.36260 0.76990 -0.53500
O 	O 	0.39800 0.16310 0.79650 -0.45700
O 	O 	0.97540 0.07560 0.69240 -0.50900
O 	O 	0.91740 0.26860 0.73160 -0.47900
O 	O 	0.03690 0.04550 0.85490 -0.38700
O 	O 	0.18600 0.90930 0.87830 -0.37100
O 	O 	0.33560 0.86260 0.73010 -0.53600
O 	O 	0.39800 0.66310 0.70350 -0.46200
O 	O 	0.97540 0.57560 0.80760 -0.50700
O 	O 	0.91740 0.76860 0.76840 -0.47400
O 	O 	0.96310 0.45450 0.35490 -0.40200
O 	O 	0.81400 0.59070 0.37830 -0.37100
O 	O 	0.66440 0.63740 0.23010 -0.53500
O 	O 	0.60200 0.83690 0.20350 -0.45700
O 	O 	0.02460 0.92440 0.30760 -0.50900
O 	O 	0.08260 0.73140 0.26840 -0.48000
H 	H 	0.88581 0.08643 0.97215 0.07100
H 	H 	0.28691 0.15351 0.32698 0.06100
H 	H 	0.39983 0.90258 0.26335 0.07100
H 	H 	0.11419 0.41357 0.47215 0.06500
H 	H 	0.71309 0.34649 0.82698 0.06000
H 	H 	0.60017 0.59742 0.76335 0.07000
H 	H 	0.11419 0.91357 0.02785 0.07100
H 	H 	0.71309 0.84649 0.67302 0.06100
H 	H 	0.59267 0.08999 0.73617 0.07100
H 	H 	0.88320 0.58741 0.52597 0.06400
H 	H 	0.28691 0.65351 0.17302 0.06000
H 	H 	0.39983 0.40258 0.23665 0.07000
