data_crystal

_cell_length_a 8.52300
_cell_length_b 9.76400
_cell_length_c 17.31400
_cell_angle_alpha 90.00000
_cell_angle_beta  90.00000
_cell_angle_gamma 112.25000

_symmetry_space_group_name_	'P 1'
_symmetry_space_group_name_H-M	'P 1'

loop_
_symmetry_equiv_pos_as_xyz
  x,y,z

loop_
_atom_site_label
_atom_site_type_symbol
_atom_site_fract_x
_atom_site_fract_y
_atom_site_fract_z
_atom_site_charge
Tb	Tb	0.84310 0.02600 0.25770 1.77200
Tb	Tb	0.15690 0.47400 0.75770 1.79100
Tb	Tb	0.15690 0.97400 0.74230 1.77200
Tb	Tb	0.84310 0.52600 0.24230 1.79200
C 	C 	0.90590 0.02290 0.09750 0.30100
C 	C 	0.94630 0.02790 0.01310 -0.10200
C 	C 	0.55770 0.20180 0.28970 0.44400
C 	C 	0.37440 0.10540 0.30180 -0.12300
C 	C 	0.31340 0.96220 0.28320 -0.14000
C 	C 	0.12970 0.86830 0.28650 0.47500
C 	C 	0.09410 0.47710 0.59750 0.31600
C 	C 	0.05370 0.47210 0.51310 -0.09300
C 	C 	0.44230 0.29820 0.78970 0.44400
C 	C 	0.62560 0.39460 0.80180 -0.12200
C 	C 	0.68660 0.53780 0.78320 -0.14200
C 	C 	0.87030 0.63170 0.78650 0.47600
C 	C 	0.09410 0.97710 0.90250 0.30100
C 	C 	0.05370 0.97210 0.98690 -0.10200
C 	C 	0.44230 0.79820 0.71030 0.44400
C 	C 	0.62560 0.89460 0.69820 -0.12300
C 	C 	0.68660 0.03780 0.71680 -0.14000
C 	C 	0.87030 0.13170 0.71350 0.47500
C 	C 	0.90590 0.52290 0.40250 0.31600
C 	C 	0.94630 0.52790 0.48690 -0.09300
C 	C 	0.55770 0.70180 0.21030 0.44400
C 	C 	0.37440 0.60540 0.19820 -0.12200
C 	C 	0.31340 0.46220 0.21680 -0.14200
C 	C 	0.12970 0.36830 0.21350 0.47600
O 	O 	0.96440 0.95610 0.14410 -0.39800
O 	O 	0.81370 0.09190 0.12040 -0.37600
O 	O 	0.66110 0.14520 0.27030 -0.55100
O 	O 	0.59850 0.33930 0.29670 -0.47800
O 	O 	0.02350 0.92380 0.30520 -0.53800
O 	O 	0.08980 0.73490 0.26950 -0.49200
O 	O 	0.03560 0.54390 0.64410 -0.41400
O 	O 	0.18630 0.40810 0.62040 -0.37600
O 	O 	0.33890 0.35480 0.77030 -0.55100
O 	O 	0.40150 0.16070 0.79670 -0.47200
O 	O 	0.97650 0.57620 0.80520 -0.53600
O 	O 	0.91020 0.76510 0.76950 -0.48700
O 	O 	0.03560 0.04390 0.85590 -0.39800
O 	O 	0.18630 0.90810 0.87960 -0.37600
O 	O 	0.33890 0.85480 0.72970 -0.55100
O 	O 	0.40150 0.66070 0.70330 -0.47800
O 	O 	0.97650 0.07620 0.69480 -0.53800
O 	O 	0.91020 0.26510 0.73050 -0.49200
O 	O 	0.96440 0.45610 0.35590 -0.41500
O 	O 	0.81370 0.59190 0.37960 -0.37600
O 	O 	0.66110 0.64520 0.22970 -0.55100
O 	O 	0.59850 0.83930 0.20330 -0.47200
O 	O 	0.02350 0.42380 0.19480 -0.53600
O 	O 	0.08980 0.23490 0.23050 -0.48700
H 	H 	0.88337 0.08070 0.97079 0.06600
H 	H 	0.28387 0.15433 0.32743 0.05800
H 	H 	0.40333 0.90722 0.26384 0.06600
H 	H 	0.11663 0.41930 0.47079 0.06000
H 	H 	0.71613 0.34567 0.82743 0.05700
H 	H 	0.59667 0.59278 0.76384 0.06500
H 	H 	0.11663 0.91930 0.02921 0.06600
H 	H 	0.71613 0.84567 0.67257 0.05800
H 	H 	0.59667 0.09278 0.73616 0.06600
H 	H 	0.88236 0.58106 0.52851 0.06000
H 	H 	0.28387 0.65433 0.17257 0.05700
H 	H 	0.40333 0.40722 0.23616 0.06500
