data_crystal

_cell_length_a 8.43800
_cell_length_b 17.08100
_cell_length_c 9.58500
_cell_angle_alpha 90.00000
_cell_angle_beta  111.72000
_cell_angle_gamma 90.00000

_symmetry_space_group_name_	'P 1'
_symmetry_space_group_name_H-M	'P 1'

loop_
_symmetry_equiv_pos_as_xyz
  x,y,z

loop_
_atom_site_label
_atom_site_type_symbol
_atom_site_fract_x
_atom_site_fract_y
_atom_site_fract_z
_atom_site_charge
Er	Er	0.66309 0.75800 0.97823 1.68000
O 	O 	0.41490 0.73260 0.77190 -0.47200
O 	O 	0.48150 0.69220 0.57840 -0.51900
O 	O 	0.84230 0.72780 0.35940 -0.53800
O 	O 	0.90580 0.70030 0.15930 -0.45600
O 	O 	0.68880 0.62250 0.90480 -0.37100
O 	O 	0.54170 0.64630 0.04910 -0.39600
C 	C 	0.37750 0.71340 0.63600 0.46900
C 	C 	0.19100 0.71630 0.53940 -0.16000
H 	H 	0.11470 0.73260 0.58290 0.09600
C 	C 	0.12980 0.69680 0.39590 -0.16100
H 	H 	0.20310 0.67530 0.35370 0.09600
C 	C 	0.94630 0.70820 0.29930 0.44400
C 	C 	0.59770 0.59860 0.97490 0.31800
C 	C 	0.55290 0.51440 0.96940 -0.12100
H 	H 	0.60100 0.48010 0.92080 0.08800
Er	Er	0.33691 0.25800 0.52177 1.68800
O 	O 	0.58510 0.23260 0.72810 -0.47200
O 	O 	0.51850 0.19220 0.92160 -0.51600
O 	O 	0.15770 0.22780 0.14060 -0.53800
O 	O 	0.09420 0.20030 0.34070 -0.45900
O 	O 	0.31120 0.12250 0.59520 -0.37100
O 	O 	0.45830 0.14630 0.45090 -0.39900
C 	C 	0.62250 0.21340 0.86400 0.46900
C 	C 	0.80900 0.21630 0.96060 -0.16000
H 	H 	0.88530 0.23260 0.91710 0.09600
C 	C 	0.87020 0.19680 0.10410 -0.15600
H 	H 	0.79690 0.17530 0.14630 0.09400
C 	C 	0.05370 0.20820 0.20070 0.44000
C 	C 	0.40230 0.09860 0.52510 0.32100
C 	C 	0.44710 0.01440 0.53060 -0.12200
H 	H 	0.39900 0.98010 0.57920 0.08700
Er	Er	0.33691 0.24200 0.02177 1.68100
O 	O 	0.58510 0.26740 0.22810 -0.47100
O 	O 	0.51850 0.30780 0.42160 -0.51900
O 	O 	0.15770 0.27220 0.64060 -0.53800
O 	O 	0.09420 0.29970 0.84070 -0.45600
O 	O 	0.31120 0.37750 0.09520 -0.37100
O 	O 	0.45830 0.35370 0.95090 -0.39600
C 	C 	0.62250 0.28660 0.36400 0.46900
C 	C 	0.80900 0.28370 0.46060 -0.16000
H 	H 	0.88530 0.26740 0.41710 0.09600
C 	C 	0.87020 0.30320 0.60410 -0.16100
H 	H 	0.79690 0.32470 0.64630 0.09600
C 	C 	0.05370 0.29180 0.70070 0.44400
C 	C 	0.40230 0.40140 0.02510 0.31800
C 	C 	0.44710 0.48560 0.03060 -0.12100
H 	H 	0.39900 0.51990 0.07920 0.08800
Er	Er	0.66309 0.74200 0.47823 1.68800
O 	O 	0.41490 0.76740 0.27190 -0.47200
O 	O 	0.48150 0.80780 0.07840 -0.51600
O 	O 	0.84230 0.77220 0.85940 -0.53800
O 	O 	0.90580 0.79970 0.65930 -0.45900
O 	O 	0.68880 0.87750 0.40480 -0.37100
O 	O 	0.54170 0.85370 0.54910 -0.39900
C 	C 	0.37750 0.78660 0.13600 0.46900
C 	C 	0.19100 0.78370 0.03940 -0.16000
H 	H 	0.11470 0.76740 0.08290 0.09600
C 	C 	0.12980 0.80320 0.89590 -0.15600
H 	H 	0.20310 0.82470 0.85370 0.09400
C 	C 	0.94630 0.79180 0.79930 0.44000
C 	C 	0.59770 0.90140 0.47490 0.32100
C 	C 	0.55290 0.98560 0.46940 -0.12200
H 	H 	0.60100 0.01990 0.42080 0.08700
