data_crystal

_cell_length_a 13.01400
_cell_length_b 14.39400
_cell_length_c 16.30600
_cell_angle_alpha 90.00000
_cell_angle_beta  90.00000
_cell_angle_gamma 90.00000

_symmetry_space_group_name_	'P 1'
_symmetry_space_group_name_H-M	'P 1'

loop_
_symmetry_equiv_pos_as_xyz
  x,y,z

loop_
_atom_site_label
_atom_site_type_symbol
_atom_site_fract_x
_atom_site_fract_y
_atom_site_fract_z
_atom_site_charge
Cu	Cu	0.20982 0.70564 0.16047 0.90600
Cu	Cu	0.93993 0.96299 0.08586 0.90100
Cu	Cu	0.79018 0.20564 0.33953 0.90600
Cu	Cu	0.29018 0.29436 0.66047 0.90500
Cu	Cu	0.56007 0.03701 0.58586 0.90200
Cu	Cu	0.70982 0.79436 0.83953 0.90500
Cu	Cu	0.06007 0.46299 0.41414 0.90200
Cu	Cu	0.43993 0.53701 0.91414 0.90200
H 	H 	0.54580 0.75510 0.56010 0.28700
H 	H 	0.92080 0.08270 0.73880 0.25300
H 	H 	0.40180 0.58280 0.47240 0.24600
H 	H 	0.43220 0.19220 0.08880 -0.02800
H 	H 	0.56780 0.69220 0.41120 -0.02800
H 	H 	0.99790 0.65410 0.97440 0.15300
H 	H 	0.87750 0.96430 0.90730 0.14200
H 	H 	0.04580 0.74490 0.43990 0.28200
H 	H 	0.43880 0.41840 0.52540 0.16300
H 	H 	0.00210 0.15410 0.52560 0.15600
H 	H 	0.42080 0.41730 0.26120 0.25300
H 	H 	0.22730 0.63530 0.33460 0.14500
H 	H 	0.90170 0.27320 0.82370 -0.02500
H 	H 	0.15800 0.50870 0.72930 0.27600
H 	H 	0.07610 0.58810 0.93010 0.14500
H 	H 	0.40170 0.22680 0.17630 -0.02600
H 	H 	0.86040 0.82020 0.49890 0.23700
H 	H 	0.58270 0.08470 0.87160 0.15200
H 	H 	0.50210 0.34590 0.47440 0.16400
H 	H 	0.91730 0.91530 0.37160 0.14600
H 	H 	0.12250 0.46430 0.59270 0.14400
H 	H 	0.98180 0.67270 0.80550 0.25700
H 	H 	0.52520 0.16830 0.83050 0.16000
H 	H 	0.06120 0.58160 0.02540 0.15400
H 	H 	0.52140 0.72800 0.17080 0.27300
H 	H 	0.90180 0.91720 0.52760 0.24600
H 	H 	0.45330 0.02690 0.78310 0.02000
H 	H 	0.72730 0.86470 0.66540 0.14500
H 	H 	0.27270 0.36470 0.83460 0.14500
H 	H 	0.50060 0.34600 0.90210 0.27700
H 	H 	0.47860 0.22800 0.32920 0.27300
H 	H 	0.09830 0.77320 0.67630 -0.02700
H 	H 	0.08270 0.41530 0.12840 0.15100
H 	H 	0.30880 0.38710 0.23810 0.26500
H 	H 	0.41730 0.58470 0.62840 0.15300
H 	H 	0.01820 0.17270 0.69450 0.25100
H 	H 	0.34200 0.49130 0.22930 0.27600
H 	H 	0.06780 0.80780 0.58880 -0.02800
H 	H 	0.54670 0.52690 0.71690 0.02000
H 	H 	0.49940 0.84600 0.59790 0.27700
H 	H 	0.92390 0.08810 0.56990 0.14900
H 	H 	0.36640 0.63800 0.70170 0.15200
H 	H 	0.21620 0.39580 0.96870 0.26000
H 	H 	0.28380 0.60420 0.46870 0.26000
H 	H 	0.93470 0.71310 0.46420 0.26500
H 	H 	0.69120 0.88710 0.26190 0.26500
H 	H 	0.08360 0.23590 0.63620 0.25400
H 	H 	0.47480 0.66830 0.66950 0.16100
H 	H 	0.02520 0.33170 0.16950 0.16000
H 	H 	0.36040 0.67980 0.50110 0.23600
H 	H 	0.45420 0.25510 0.93990 0.28700
H 	H 	0.07920 0.58270 0.76120 0.25400
H 	H 	0.13360 0.36200 0.20170 0.15100
H 	H 	0.84200 0.00870 0.77070 0.27500
H 	H 	0.64930 0.76150 0.05450 0.01700
H 	H 	0.57920 0.91730 0.23880 0.25300
H 	H 	0.63360 0.13800 0.79830 0.15200
H 	H 	0.59830 0.72680 0.32370 -0.02600
H 	H 	0.19120 0.61290 0.73810 0.26500
H 	H 	0.43470 0.78690 0.53580 0.27300
H 	H 	0.02140 0.77200 0.82920 0.28300
H 	H 	0.57610 0.91190 0.06990 0.15400
H 	H 	0.58360 0.26410 0.36380 0.25300
H 	H 	0.97860 0.27200 0.67080 0.27600
H 	H 	0.65800 0.99130 0.27070 0.27500
H 	H 	0.63960 0.17980 0.99890 0.23400
H 	H 	0.95330 0.47310 0.21690 0.02200
H 	H 	0.62250 0.03570 0.40730 0.14400
H 	H 	0.41640 0.76410 0.13620 0.25300
H 	H 	0.91640 0.73590 0.86380 0.25900
H 	H 	0.51820 0.32730 0.30550 0.25000
H 	H 	0.56530 0.28690 0.96420 0.27300
H 	H 	0.56120 0.91840 0.97460 0.16500
H 	H 	0.37750 0.53570 0.09270 0.14400
H 	H 	0.00060 0.15400 0.09790 0.25400
H 	H 	0.99940 0.65400 0.40210 0.26900
H 	H 	0.48180 0.82730 0.19450 0.25100
H 	H 	0.13960 0.32020 0.00110 0.23600
H 	H 	0.80880 0.11290 0.76190 0.26400
H 	H 	0.97480 0.83170 0.33050 0.15500
H 	H 	0.86640 0.86200 0.29830 0.14700
H 	H 	0.06530 0.21310 0.03580 0.25100
H 	H 	0.85070 0.23850 0.55450 0.01900
H 	H 	0.04670 0.97310 0.28310 0.02900
H 	H 	0.14930 0.73850 0.94550 0.02100
H 	H 	0.78380 0.89580 0.53130 0.26100
H 	H 	0.49790 0.84590 0.02560 0.16500
H 	H 	0.35070 0.26150 0.44550 0.01700
H 	H 	0.93220 0.30780 0.91120 -0.02700
H 	H 	0.42390 0.41190 0.43010 0.15300
H 	H 	0.71620 0.10420 0.03130 0.26000
H 	H 	0.77270 0.13530 0.16540 0.14500
H 	H 	0.95420 0.24490 0.06010 0.26900
H 	H 	0.09820 0.41720 0.97240 0.24700
H 	H 	0.59820 0.08280 0.02760 0.24500
H 	H 	0.93880 0.08160 0.47460 0.16000
C 	C 	0.42780 0.18390 0.57820 0.11900
C 	C 	0.41110 0.46570 0.75490 0.28200
C 	C 	0.14780 0.69470 0.99150 0.03000
C 	C 	0.43710 0.37700 0.47920 -0.48800
C 	C 	0.06320 0.66700 0.59880 -0.30500
C 	C 	0.03850 0.23540 0.68270 -0.83600
C 	C 	0.44360 0.71060 0.33680 -0.27400
C 	C 	0.48160 0.54880 0.74020 0.02800
C 	C 	0.60140 0.90960 0.36250 0.33300
C 	C 	0.74970 0.14540 0.50070 0.28100
C 	C 	0.24970 0.35460 0.49930 0.27900
C 	C 	0.04970 0.76440 0.63190 0.15100
C 	C 	0.85130 0.86990 0.53750 -0.79600
C 	C 	0.64870 0.13010 0.03750 -0.78800
C 	C 	0.10140 0.59040 0.63750 0.33300
C 	C 	0.40740 0.72480 0.25500 0.31100
C 	C 	0.99740 0.19220 0.04970 -0.84400
C 	C 	0.86380 0.83280 0.62400 0.31500
C 	C 	0.09260 0.27520 0.75500 0.31100
C 	C 	0.95530 0.13840 0.98180 0.33700
C 	C 	0.56980 0.11630 0.82080 -0.46500
C 	C 	0.56320 0.83300 0.40120 -0.30700
C 	C 	0.50260 0.80780 0.54970 -0.91000
C 	C 	0.89860 0.09040 0.86250 0.32900
C 	C 	0.58890 0.96570 0.74510 0.28400
C 	C 	0.86450 0.07200 0.77560 -0.82900
C 	C 	0.45530 0.36160 0.01820 0.35900
C 	C 	0.06290 0.62300 0.97920 -0.46100
C 	C 	0.56290 0.87700 0.02080 -0.49200
C 	C 	0.36450 0.42800 0.22440 -0.83200
C 	C 	0.93190 0.34370 0.33170 0.12000
C 	C 	0.85220 0.19470 0.50850 0.03300
C 	C 	0.93710 0.12300 0.52080 -0.47100
C 	C 	0.07220 0.81610 0.07820 0.11900
C 	C 	0.08890 0.53430 0.25490 0.28300
C 	C 	0.93680 0.16700 0.90120 -0.29600
C 	C 	0.05640 0.28940 0.83680 -0.27400
C 	C 	0.64780 0.80530 0.00850 0.03900
C 	C 	0.39860 0.40960 0.13750 0.33300
C 	C 	0.90740 0.77520 0.74500 0.31700
C 	C 	0.49740 0.30780 0.95030 -0.91000
C 	C 	0.54970 0.73560 0.36810 0.14600
C 	C 	0.35130 0.63010 0.46250 -0.79400
C 	C 	0.06980 0.38370 0.17920 -0.46400
C 	C 	0.53850 0.26460 0.31730 -0.83100
C 	C 	0.92780 0.31610 0.42180 0.11900
C 	C 	0.51840 0.04880 0.75980 0.02700
C 	C 	0.63550 0.92800 0.27560 -0.83200
C 	C 	0.35220 0.30530 0.49150 0.03800
C 	C 	0.57220 0.68390 0.92180 0.11900
C 	C 	0.59260 0.22480 0.24500 0.31000
C 	C 	0.13620 0.33280 0.87600 0.31300
C 	C 	0.56810 0.65630 0.83170 0.12000
C 	C 	0.54470 0.86160 0.48180 0.35900
C 	C 	0.94360 0.78940 0.66320 -0.28100
C 	C 	0.95030 0.26440 0.86810 0.14100
C 	C 	0.13550 0.57200 0.72440 -0.83200
C 	C 	0.98160 0.95120 0.25980 0.01000
C 	C 	0.43020 0.61630 0.67920 -0.46800
C 	C 	0.43680 0.33300 0.09880 -0.30700
C 	C 	0.01840 0.45120 0.24020 0.02500
C 	C 	0.93020 0.88370 0.32080 -0.45000
C 	C 	0.06810 0.84370 0.16830 0.11900
C 	C 	0.45030 0.23560 0.13190 0.14500
C 	C 	0.91110 0.03430 0.24510 0.29000
C 	C 	0.96150 0.73540 0.81730 -0.85500
C 	C 	0.36380 0.66720 0.37600 0.31300
C 	C 	0.04470 0.63840 0.51820 0.35300
C 	C 	0.00260 0.69220 0.45030 -0.88800
C 	C 	0.46150 0.76460 0.18270 -0.83200
C 	C 	0.14870 0.36990 0.96250 -0.79200
C 	C 	0.25030 0.64540 0.99930 0.28300
C 	C 	0.43190 0.15630 0.66830 0.11900
C 	C 	0.63620 0.16720 0.12400 0.31200
C 	C 	0.75030 0.85460 0.00070 0.27900
C 	C 	0.55640 0.21060 0.16320 -0.27300
N 	N 	0.50110 0.59140 0.81920 -0.24100
N 	N 	0.57000 0.95050 0.49080 -0.23900
N 	N 	0.13060 0.74380 0.06810 -0.23800
N 	N 	0.43000 0.45050 0.00920 -0.24000
N 	N 	0.39710 0.47980 0.08220 -0.22900
N 	N 	0.60290 0.97980 0.41780 -0.22800
N 	N 	0.21380 0.34100 0.82280 -0.23100
N 	N 	0.68840 0.19260 0.25170 -0.23300
N 	N 	0.31160 0.69260 0.24830 -0.23300
N 	N 	0.07000 0.54950 0.50920 -0.23800
N 	N 	0.93000 0.04950 0.99080 -0.23500
N 	N 	0.99890 0.40860 0.31920 -0.24000
N 	N 	0.36940 0.25620 0.56810 -0.23900
N 	N 	0.18840 0.30740 0.74830 -0.23300
N 	N 	0.86940 0.24380 0.43190 -0.23800
N 	N 	0.89710 0.02020 0.91780 -0.22700
N 	N 	0.00110 0.90860 0.18080 -0.23600
N 	N 	0.49890 0.09140 0.68080 -0.24100
N 	N 	0.28620 0.65900 0.32280 -0.23100
N 	N 	0.63060 0.75620 0.93190 -0.23900
N 	N 	0.10290 0.52020 0.58220 -0.22900
N 	N 	0.78620 0.84100 0.67720 -0.23100
N 	N 	0.71380 0.15900 0.17720 -0.23000
N 	N 	0.81160 0.80740 0.75170 -0.23400
O 	O 	0.88600 0.05160 0.17020 -0.40500
O 	O 	0.97950 0.36200 0.47340 -0.33200
O 	O 	0.79060 0.85720 0.92830 -0.39600
O 	O 	0.28660 0.60700 0.93850 -0.35600
O 	O 	0.12590 0.80280 0.21970 -0.33700
O 	O 	0.21340 0.39300 0.43850 -0.35500
O 	O 	0.37980 0.42140 0.69550 -0.36000
O 	O 	0.61400 0.94840 0.67020 -0.40600
O 	O 	0.12020 0.57860 0.19550 -0.36000
O 	O 	0.29060 0.64280 0.07170 -0.39700
O 	O 	0.78660 0.89300 0.06150 -0.35500
O 	O 	0.11400 0.55160 0.32980 -0.40600
O 	O 	0.38600 0.44840 0.82980 -0.40600
O 	O 	0.20940 0.35720 0.57170 -0.39500
O 	O 	0.47950 0.13800 0.52660 -0.33300
O 	O 	0.52050 0.63800 0.97340 -0.33200
O 	O 	0.87980 0.07860 0.30450 -0.36100
O 	O 	0.62590 0.69720 0.78030 -0.33900
O 	O 	0.02050 0.86200 0.02660 -0.33100
O 	O 	0.87410 0.30280 0.28030 -0.33800
O 	O 	0.62020 0.92140 0.80450 -0.36000
O 	O 	0.37410 0.19720 0.71970 -0.33900
O 	O 	0.71340 0.10700 0.56150 -0.35500
O 	O 	0.70940 0.14280 0.42830 -0.39500
