data_crystal

_cell_length_a 13.49200
_cell_length_b 14.37700
_cell_length_c 16.19100
_cell_angle_alpha 90.00000
_cell_angle_beta  90.00000
_cell_angle_gamma 90.00000

_symmetry_space_group_name_	'P 1'
_symmetry_space_group_name_H-M	'P 1'

loop_
_symmetry_equiv_pos_as_xyz
  x,y,z

loop_
_atom_site_label
_atom_site_type_symbol
_atom_site_fract_x
_atom_site_fract_y
_atom_site_fract_z
_atom_site_charge
Cu	Cu	0.70060 0.20674 0.66398 0.90700
Cu	Cu	0.92989 0.04879 0.41501 0.90500
Cu	Cu	0.07011 0.54879 0.08499 0.90500
Cu	Cu	0.42989 0.45121 0.58499 0.90500
Cu	Cu	0.57011 0.95121 0.91501 0.90500
Cu	Cu	0.79940 0.79326 0.16398 0.90600
Cu	Cu	0.29940 0.70674 0.83602 0.90600
Cu	Cu	0.20060 0.29326 0.33602 0.90600
H 	H 	0.96630 0.76610 0.44060 0.22800
H 	H 	0.43670 0.31650 0.82770 0.14300
H 	H 	0.72590 0.13490 0.83850 0.13900
H 	H 	0.57300 0.69550 0.53710 0.21500
H 	H 	0.49540 0.14010 0.90040 0.21700
H 	H 	0.93670 0.18350 0.17230 0.14200
H 	H 	0.83820 0.14540 0.21340 0.13600
H 	H 	0.58330 0.08610 0.42540 0.13600
H 	H 	0.06620 0.42510 0.47830 0.14400
H 	H 	0.38440 0.21210 0.35940 0.21400
H 	H 	0.21020 0.60050 0.53020 0.22300
H 	H 	0.58520 0.00750 0.25100 0.23200
H 	H 	0.22590 0.36510 0.16150 0.13900
H 	H 	0.05140 0.20380 0.90370 -0.01000
H 	H 	0.94440 0.35400 0.70080 0.22200
H 	H 	0.85350 0.18480 0.00360 0.20500
H 	H 	0.87640 0.04580 0.59500 0.14200
H 	H 	0.85490 0.76030 0.94700 0.02600
H 	H 	0.55140 0.29620 0.09630 -0.01000
H 	H 	0.19340 0.45720 0.77060 0.24100
H 	H 	0.38730 0.61390 0.23810 0.22700
H 	H 	0.44440 0.14600 0.29920 0.22300
H 	H 	0.35490 0.73970 0.05300 0.02600
H 	H 	0.99790 0.85280 0.97070 0.14600
H 	H 	0.27410 0.63490 0.66150 0.13900
H 	H 	0.44860 0.79620 0.40370 -0.01000
H 	H 	0.78980 0.10050 0.96980 0.22300
H 	H 	0.06330 0.68350 0.32770 0.14200
H 	H 	0.14650 0.68480 0.49640 0.20500
H 	H 	0.49260 0.24000 0.33050 0.23500
H 	H 	0.91480 0.99250 0.75100 0.23200
H 	H 	0.88440 0.28790 0.64060 0.21400
H 	H 	0.69340 0.04280 0.22940 0.24100
H 	H 	0.37640 0.45420 0.40500 0.14300
H 	H 	0.40670 0.40760 0.02600 0.20900
H 	H 	0.00210 0.35280 0.52930 0.14600
H 	H 	0.61890 0.90290 0.63310 0.13600
H 	H 	0.33820 0.35460 0.78660 0.13700
H 	H 	0.50740 0.74000 0.16950 0.23500
H 	H 	0.97830 0.54510 0.29080 0.03000
H 	H 	0.07160 0.20760 0.83240 -0.01400
H 	H 	0.64510 0.23970 0.44700 0.02600
H 	H 	0.42840 0.79240 0.33240 -0.01400
H 	H 	0.47830 0.95490 0.70920 0.03000
H 	H 	0.50210 0.14720 0.47070 0.14600
H 	H 	0.35350 0.31520 0.99640 0.20500
H 	H 	0.94860 0.70380 0.59630 -0.01000
H 	H 	0.12360 0.54580 0.90500 0.14300
H 	H 	0.08520 0.49250 0.74900 0.23200
H 	H 	0.92700 0.30450 0.03710 0.21600
H 	H 	0.42700 0.19550 0.96290 0.21500
H 	H 	0.07300 0.80450 0.46290 0.21600
H 	H 	0.08330 0.41390 0.57460 0.13600
H 	H 	0.05560 0.85400 0.79920 0.22200
H 	H 	0.11270 0.38610 0.73810 0.22700
H 	H 	0.11890 0.59710 0.36690 0.13600
H 	H 	0.64650 0.81520 0.50360 0.20500
H 	H 	0.77410 0.86510 0.33850 0.13900
H 	H 	0.41670 0.58610 0.07460 0.13600
H 	H 	0.71020 0.89950 0.46980 0.22300
H 	H 	0.02170 0.04510 0.20920 0.03100
H 	H 	0.61560 0.71210 0.14060 0.21400
H 	H 	0.66180 0.85460 0.71340 0.13600
H 	H 	0.41480 0.50750 0.24900 0.23200
H 	H 	0.00460 0.85990 0.40040 0.21700
H 	H 	0.99260 0.26000 0.66950 0.23400
H 	H 	0.99540 0.35990 0.09960 0.21700
H 	H 	0.59330 0.90760 0.47400 0.20900
H 	H 	0.49790 0.64720 0.02930 0.14500
H 	H 	0.16180 0.64540 0.28660 0.13600
H 	H 	0.53370 0.23390 0.94060 0.22800
H 	H 	0.88730 0.88610 0.76190 0.22700
H 	H 	0.11560 0.78790 0.85940 0.21400
H 	H 	0.43380 0.57490 0.97830 0.14400
H 	H 	0.91670 0.91390 0.92540 0.13700
H 	H 	0.55560 0.64600 0.20080 0.22300
H 	H 	0.62360 0.95420 0.09500 0.14300
H 	H 	0.57160 0.29240 0.16760 -0.01400
H 	H 	0.56620 0.07490 0.52170 0.14500
H 	H 	0.50460 0.64010 0.59960 0.21700
H 	H 	0.80660 0.95720 0.72940 0.24100
H 	H 	0.30660 0.54280 0.27060 0.24100
H 	H 	0.61270 0.11390 0.26190 0.22700
H 	H 	0.09330 0.59240 0.52600 0.20900
H 	H 	0.88110 0.09710 0.13310 0.13500
H 	H 	0.03370 0.26610 0.05940 0.22900
H 	H 	0.93380 0.92510 0.02170 0.14600
H 	H 	0.92840 0.70760 0.66760 -0.01400
H 	H 	0.38110 0.40290 0.86690 0.13600
H 	H 	0.56330 0.81650 0.67230 0.14200
H 	H 	0.14510 0.26030 0.55300 0.02600
H 	H 	0.46630 0.73390 0.55940 0.22800
H 	H 	0.52170 0.45490 0.79080 0.03000
H 	H 	0.90670 0.09240 0.97400 0.20900
H 	H 	0.00740 0.76000 0.83050 0.23400
H 	H 	0.28980 0.39950 0.03020 0.22300
C 	C 	0.94750 0.66500 0.17100 0.11300
C 	C 	0.94910 0.84690 0.60230 -0.24800
C 	C 	0.59170 0.07720 0.14180 0.29600
C 	C 	0.96620 0.75030 0.63570 0.09800
C 	C 	0.64080 0.82670 0.37740 0.27100
C 	C 	0.14430 0.30630 0.50750 0.01700
C 	C 	0.46620 0.74970 0.36430 0.09800
C 	C 	0.64430 0.19370 0.49250 0.01700
C 	C 	0.96240 0.87530 0.51980 0.28000
C 	C 	0.62350 0.05870 0.22860 -0.73100
C 	C 	0.42990 0.27600 0.16390 -0.24300
C 	C 	0.10060 0.47490 0.24400 0.29300
C 	C 	0.85160 0.13430 0.96400 -0.67700
C 	C 	0.06700 0.38140 0.52390 -0.42300
C 	C 	0.56880 0.71020 0.18600 -0.72900
C 	C 	0.45980 0.43790 0.76160 0.00800
C 	C 	0.88930 0.24060 0.75760 0.28700
C 	C 	0.40830 0.57720 0.35820 0.29600
C 	C 	0.10170 0.62810 0.31570 -0.41000
C 	C 	0.09170 0.42280 0.85820 0.29600
C 	C 	0.89830 0.12810 0.18430 -0.40800
C 	C 	0.14840 0.63430 0.53600 -0.67700
C 	C 	0.60170 0.87190 0.68430 -0.41000
C 	C 	0.44750 0.83500 0.82900 0.11300
C 	C 	0.61070 0.75940 0.25760 0.28700
C 	C 	0.38930 0.25940 0.24240 0.28700
C 	C 	0.93300 0.88140 0.97610 -0.42500
C 	C 	0.55090 0.15310 0.10230 -0.24800
C 	C 	0.44080 0.80690 0.91860 0.11900
C 	C 	0.92990 0.22400 0.83610 -0.24300
C 	C 	0.50530 0.67820 0.55020 -0.71100
C 	C 	0.35570 0.69370 0.00750 0.01700
C 	C 	0.55250 0.33500 0.67100 0.11300
C 	C 	0.07010 0.72400 0.66390 -0.24300
C 	C 	0.12350 0.44130 0.77140 -0.73200
C 	C 	0.53760 0.12470 0.01980 0.27900
C 	C 	0.75470 0.85180 0.00160 0.28800
C 	C 	0.64840 0.86570 0.46400 -0.67800
C 	C 	0.55920 0.30690 0.58140 0.11900
C 	C 	0.95980 0.06210 0.23840 0.00600
C 	C 	0.57010 0.77600 0.33610 -0.24200
C 	C 	0.90830 0.92280 0.64180 0.29600
C 	C 	0.44910 0.65310 0.39770 -0.24800
C 	C 	0.05250 0.16500 0.32900 0.11400
C 	C 	0.39830 0.37190 0.81570 -0.41000
C 	C 	0.24530 0.35180 0.49840 0.28700
C 	C 	0.06880 0.78980 0.81400 -0.72900
C 	C 	0.74530 0.14820 0.50160 0.28600
C 	C 	0.94080 0.69310 0.08140 0.11900
C 	C 	0.25470 0.64820 0.99840 0.28600
C 	C 	0.85920 0.17330 0.87740 0.27100
C 	C 	0.35160 0.36570 0.03600 -0.67800
C 	C 	0.60060 0.02510 0.75600 0.29300
C 	C 	0.39940 0.52510 0.74400 0.29300
C 	C 	0.03760 0.37530 0.98020 0.28100
C 	C 	0.11070 0.74060 0.74240 0.28700
C 	C 	0.14080 0.67330 0.62260 0.27100
C 	C 	0.37650 0.55870 0.27140 -0.73100
C 	C 	0.05090 0.34690 0.89770 -0.24900
C 	C 	0.35920 0.32670 0.12260 0.27100
C 	C 	0.54020 0.93790 0.73840 0.00800
C 	C 	0.00530 0.82180 0.44980 -0.71300
C 	C 	0.49470 0.17820 0.94980 -0.71100
C 	C 	0.05920 0.19310 0.41860 0.11900
C 	C 	0.93120 0.28980 0.68600 -0.72900
C 	C 	0.03380 0.25030 0.86430 0.09900
C 	C 	0.04020 0.56210 0.26160 0.00800
C 	C 	0.53380 0.24970 0.13570 0.09800
C 	C 	0.46240 0.62470 0.48020 0.28000
C 	C 	0.56700 0.11860 0.47610 -0.42300
C 	C 	0.43300 0.61860 0.02390 -0.42200
C 	C 	0.85570 0.80630 0.99250 0.01600
C 	C 	0.87650 0.94130 0.72860 -0.73100
C 	C 	0.43120 0.21020 0.31400 -0.72900
C 	C 	0.99470 0.32180 0.05020 -0.71500
C 	C 	0.89940 0.97490 0.25600 0.29400
N 	N 	0.39980 0.50940 0.41520 -0.21900
N 	N 	0.48370 0.39650 0.68240 -0.23600
N 	N 	0.87820 0.76080 0.07110 -0.23500
N 	N 	0.21920 0.66310 0.67440 -0.21200
N 	N 	0.71920 0.83690 0.32560 -0.21200
N 	N 	0.10020 0.49060 0.91520 -0.21900
N 	N 	0.93190 0.96270 0.51060 -0.22300
N 	N 	0.62180 0.23920 0.57110 -0.23600
N 	N 	0.78080 0.16310 0.82560 -0.21200
N 	N 	0.06810 0.46270 0.98940 -0.22400
N 	N 	0.70100 0.79770 0.25230 -0.22600
N 	N 	0.51630 0.89650 0.81760 -0.23600
N 	N 	0.98370 0.10350 0.31760 -0.23600
N 	N 	0.28080 0.33690 0.17440 -0.21200
N 	N 	0.37820 0.73920 0.92890 -0.23600
N 	N 	0.79900 0.20230 0.75230 -0.22600
N 	N 	0.29900 0.29770 0.24770 -0.22600
N 	N 	0.89980 0.99060 0.58480 -0.21900
N 	N 	0.60020 0.00940 0.08480 -0.21900
N 	N 	0.56810 0.03730 0.01060 -0.22300
N 	N 	0.12180 0.26080 0.42890 -0.23500
N 	N 	0.01630 0.60350 0.18240 -0.23600
N 	N 	0.20100 0.70230 0.74770 -0.22600
N 	N 	0.43190 0.53730 0.48940 -0.22300
O 	O 	0.00700 0.15110 0.47170 -0.33000
O 	O 	0.37280 0.57280 0.80330 -0.36200
O 	O 	0.87820 0.95740 0.33100 -0.40300
O 	O 	0.11140 0.20170 0.27630 -0.33200
O 	O 	0.28460 0.35100 0.42520 -0.39000
O 	O 	0.78170 0.11000 0.44120 -0.36000
O 	O 	0.49300 0.84890 0.97170 -0.33100
O 	O 	0.62720 0.07280 0.69670 -0.36200
O 	O 	0.28170 0.39000 0.55880 -0.36000
O 	O 	0.21540 0.64900 0.92520 -0.39000
O 	O 	0.50700 0.34890 0.52830 -0.33100
O 	O 	0.71540 0.85100 0.07480 -0.39000
O 	O 	0.78460 0.14900 0.57480 -0.39000
O 	O 	0.12180 0.45740 0.16900 -0.40300
O 	O 	0.37820 0.54260 0.66900 -0.40300
O 	O 	0.87280 0.92720 0.19670 -0.36200
O 	O 	0.62180 0.04260 0.83100 -0.40300
O 	O 	0.21830 0.61000 0.05880 -0.36000
O 	O 	0.12720 0.42720 0.30330 -0.36200
O 	O 	0.61140 0.29830 0.72370 -0.33200
O 	O 	0.88860 0.70170 0.22370 -0.33200
O 	O 	0.71830 0.89000 0.94120 -0.36100
O 	O 	0.38860 0.79830 0.77630 -0.33200
O 	O 	0.99300 0.65110 0.02830 -0.33100
