data_crystal

_cell_length_a 13.04100
_cell_length_b 14.41100
_cell_length_c 16.30700
_cell_angle_alpha 90.00000
_cell_angle_beta  90.00000
_cell_angle_gamma 90.00000

_symmetry_space_group_name_	'P 1'
_symmetry_space_group_name_H-M	'P 1'

loop_
_symmetry_equiv_pos_as_xyz
  x,y,z

loop_
_atom_site_label
_atom_site_type_symbol
_atom_site_fract_x
_atom_site_fract_y
_atom_site_fract_z
_atom_site_charge
Cu	Cu	0.79009 0.79449 0.83967 0.90500
Cu	Cu	0.05982 0.53698 0.91402 0.90300
Cu	Cu	0.20991 0.29449 0.66033 0.90500
Cu	Cu	0.44018 0.46302 0.41402 0.90200
Cu	Cu	0.94018 0.03698 0.58598 0.90000
Cu	Cu	0.70991 0.20551 0.33967 0.90500
Cu	Cu	0.55982 0.96302 0.08598 0.90200
Cu	Cu	0.29009 0.70551 0.16033 0.90300
H 	H 	0.99910 0.34490 0.90110 0.25000
H 	H 	0.19140 0.38850 0.23860 0.26100
H 	H 	0.49910 0.15510 0.09890 0.26200
H 	H 	0.21650 0.60170 0.46700 0.25800
H 	H 	0.15670 0.49220 0.22980 0.27100
H 	H 	0.08360 0.76440 0.13690 0.25700
H 	H 	0.52670 0.83130 0.32840 0.16400
H 	H 	0.93960 0.91800 0.97580 0.15800
H 	H 	0.97960 0.32880 0.30430 0.25500
H 	H 	0.14870 0.26070 0.44480 0.01800
H 	H 	0.43500 0.21510 0.03730 0.25700
H 	H 	0.04640 0.25450 0.93870 0.26300
H 	H 	0.50250 0.65440 0.97300 0.16400
H 	H 	0.57920 0.08260 0.73810 0.24900
H 	H 	0.58450 0.91410 0.37030 0.15400
H 	H 	0.37760 0.46480 0.59350 0.14500
H 	H 	0.22830 0.36500 0.83380 0.14400
H 	H 	0.00250 0.84560 0.02700 0.15200
H 	H 	0.93240 0.69190 0.40940 -0.02500
H 	H 	0.45360 0.74550 0.43870 0.27100
H 	H 	0.63470 0.86200 0.29610 0.15500
H 	H 	0.06500 0.78490 0.53730 0.24400
H 	H 	0.72830 0.13500 0.16620 0.14400
H 	H 	0.47800 0.76940 0.82800 0.27500
H 	H 	0.04440 0.02780 0.78430 0.02900
H 	H 	0.69140 0.11150 0.76140 0.26200
H 	H 	0.42420 0.58850 0.92900 0.15400
H 	H 	0.91640 0.26440 0.36310 0.25600
H 	H 	0.50090 0.65510 0.40110 0.26200
H 	H 	0.47960 0.17120 0.69570 0.25300
H 	H 	0.85130 0.76070 0.05520 0.02000
H 	H 	0.87760 0.03520 0.40650 0.14200
H 	H 	0.08450 0.58590 0.62970 0.15500
H 	H 	0.14160 0.67780 0.50080 0.23600
H 	H 	0.07920 0.41740 0.26190 0.24800
H 	H 	0.64870 0.23930 0.55520 0.01700
H 	H 	0.99750 0.34560 0.47300 0.16100
H 	H 	0.40150 0.41820 0.97160 0.24400
H 	H 	0.92080 0.91740 0.23810 0.25100
H 	H 	0.42080 0.58260 0.76190 0.24900
H 	H 	0.71650 0.89830 0.53300 0.25800
H 	H 	0.41640 0.23560 0.63690 0.25300
H 	H 	0.80860 0.88850 0.26140 0.26200
H 	H 	0.28350 0.39830 0.96700 0.25800
H 	H 	0.54440 0.47220 0.21570 0.01800
H 	H 	0.62240 0.96480 0.90650 0.14600
H 	H 	0.45560 0.97220 0.28430 0.01800
H 	H 	0.34330 0.50780 0.72980 0.27200
H 	H 	0.84330 0.99220 0.27020 0.27300
H 	H 	0.52040 0.67120 0.80430 0.25300
H 	H 	0.97800 0.73060 0.17200 0.28200
H 	H 	0.59850 0.91820 0.52840 0.24400
H 	H 	0.36530 0.36200 0.20390 0.15500
H 	H 	0.47330 0.33130 0.17160 0.16500
H 	H 	0.56040 0.08200 0.47580 0.16500
H 	H 	0.43240 0.80810 0.59060 -0.02500
H 	H 	0.85840 0.17780 0.99920 0.23200
H 	H 	0.90260 0.72760 0.32210 -0.02400
H 	H 	0.91550 0.08590 0.87030 0.14700
H 	H 	0.06760 0.19190 0.09060 -0.02300
H 	H 	0.02670 0.66870 0.67160 0.16400
H 	H 	0.40260 0.77240 0.67790 -0.02400
H 	H 	0.58360 0.73560 0.86310 0.25300
H 	H 	0.78350 0.10170 0.03300 0.25600
H 	H 	0.95560 0.52780 0.71570 0.01900
H 	H 	0.43960 0.58200 0.02420 0.16300
H 	H 	0.56760 0.30810 0.90940 -0.02400
H 	H 	0.06040 0.41800 0.52420 0.16200
H 	H 	0.65670 0.00780 0.77020 0.27200
H 	H 	0.93500 0.28490 0.96270 0.24500
H 	H 	0.07580 0.41150 0.42900 0.15200
H 	H 	0.57580 0.08850 0.57100 0.15500
H 	H 	0.09740 0.22760 0.17790 -0.02200
H 	H 	0.90150 0.08180 0.02840 0.24200
H 	H 	0.52200 0.26940 0.67200 0.27500
H 	H 	0.00090 0.84490 0.59890 0.24800
H 	H 	0.02200 0.23060 0.32800 0.27900
H 	H 	0.02040 0.82880 0.19570 0.25600
H 	H 	0.35840 0.32220 0.00080 0.23500
H 	H 	0.64160 0.82220 0.49920 0.23500
H 	H 	0.30860 0.61150 0.73860 0.26200
H 	H 	0.27170 0.63500 0.33380 0.14400
H 	H 	0.56500 0.71510 0.46270 0.25700
H 	H 	0.49750 0.15440 0.52700 0.16500
H 	H 	0.54640 0.24550 0.06130 0.27100
H 	H 	0.09850 0.58180 0.47160 0.24500
H 	H 	0.35130 0.73930 0.94480 0.01700
H 	H 	0.12240 0.53520 0.09350 0.14400
H 	H 	0.97330 0.16870 0.82840 0.15700
H 	H 	0.41550 0.41410 0.12970 0.15500
H 	H 	0.77170 0.86500 0.66620 0.14400
H 	H 	0.95360 0.75450 0.56130 0.26100
H 	H 	0.59740 0.27240 0.82210 -0.02300
H 	H 	0.86530 0.13800 0.79610 0.14800
H 	H 	0.13470 0.63800 0.70390 0.15500
H 	H 	0.92420 0.91150 0.07100 0.14800
C 	C 	0.58870 0.03410 0.24560 0.28200
C 	C 	0.45600 0.63860 0.51840 0.32400
C 	C 	0.56290 0.16720 0.90070 -0.28500
C 	C 	0.85270 0.80470 0.00930 0.03200
C 	C 	0.57200 0.31590 0.42120 0.11500
C 	C 	0.03880 0.76580 0.18370 -0.85400
C 	C 	0.10100 0.41000 0.13830 0.32200
C 	C 	0.25100 0.35450 0.49810 0.27500
C 	C 	0.36380 0.33290 0.87510 0.30900
C 	C 	0.04400 0.36140 0.01840 0.31300
C 	C 	0.14730 0.30470 0.49070 0.03800
C 	C 	0.63620 0.83290 0.62490 0.30900
C 	C 	0.09210 0.72480 0.25550 0.32200
C 	C 	0.06230 0.37670 0.47800 -0.48500
C 	C 	0.36480 0.57130 0.72500 -0.82100
C 	C 	0.95080 0.73580 0.36680 0.13900
C 	C 	0.05690 0.71100 0.33580 -0.28300
C 	C 	0.42880 0.38330 0.18090 -0.47700
C 	C 	0.75100 0.14550 0.50190 0.27400
C 	C 	0.41130 0.53410 0.25440 0.28100
C 	C 	0.50250 0.19340 0.05090 -0.85300
C 	C 	0.44310 0.28900 0.83580 -0.27700
C 	C 	0.57120 0.88330 0.31910 -0.47600
C 	C 	0.95600 0.86140 0.48160 0.31400
C 	C 	0.64940 0.87150 0.53830 -0.78500
C 	C 	0.91130 0.96590 0.74560 0.29100
C 	C 	0.13520 0.42870 0.22500 -0.81800
C 	C 	0.85060 0.12850 0.03830 -0.77700
C 	C 	0.99750 0.80660 0.55090 -0.81600
C 	C 	0.35270 0.69530 0.99070 0.03900
C 	C 	0.54920 0.26420 0.86680 0.13500
C 	C 	0.13620 0.66710 0.37510 0.31100
C 	C 	0.94310 0.21100 0.16420 -0.27800
C 	C 	0.96120 0.26580 0.31630 -0.84700
C 	C 	0.07200 0.18410 0.57880 0.11500
C 	C 	0.53880 0.73420 0.81630 -0.83600
C 	C 	0.08870 0.46590 0.75440 0.28200
C 	C 	0.46120 0.23420 0.68370 -0.83600
C 	C 	0.45080 0.76420 0.63320 0.13600
C 	C 	0.56230 0.12330 0.52200 -0.49300
C 	C 	0.56710 0.34370 0.33100 0.12400
C 	C 	0.00250 0.30660 0.94910 -0.81800
C 	C 	0.43770 0.62330 0.97800 -0.48900
C 	C 	0.07120 0.61670 0.68090 -0.47600
C 	C 	0.52010 0.95080 0.26000 0.03300
C 	C 	0.63520 0.07130 0.77500 -0.82100
C 	C 	0.04920 0.23580 0.13320 0.13400
C 	C 	0.43290 0.84370 0.16900 0.12400
C 	C 	0.35060 0.37150 0.96170 -0.78400
C 	C 	0.14940 0.62850 0.46170 -0.78700
C 	C 	0.54400 0.13860 0.98160 0.32300
C 	C 	0.55690 0.78900 0.66420 -0.27700
C 	C 	0.90790 0.22480 0.24450 0.32000
C 	C 	0.06710 0.15630 0.66900 0.12400
C 	C 	0.06290 0.33280 0.09930 -0.28000
C 	C 	0.93290 0.65630 0.83100 0.12400
C 	C 	0.40790 0.27520 0.75550 0.31800
C 	C 	0.39900 0.59000 0.63830 0.32400
C 	C 	0.74900 0.85450 0.00190 0.27700
C 	C 	0.47990 0.45080 0.24000 0.03400
C 	C 	0.86380 0.16710 0.12490 0.30800
C 	C 	0.59210 0.77520 0.74450 0.31700
C 	C 	0.43710 0.66720 0.59930 -0.28500
C 	C 	0.49750 0.69340 0.44910 -0.85400
C 	C 	0.93770 0.87670 0.02200 -0.46500
C 	C 	0.92880 0.11670 0.81910 -0.45400
C 	C 	0.42800 0.81590 0.07880 0.11400
C 	C 	0.64730 0.19530 0.50930 0.04000
C 	C 	0.93710 0.83280 0.40070 -0.28100
C 	C 	0.89900 0.91000 0.36170 0.32400
C 	C 	0.86480 0.92870 0.27500 -0.82200
C 	C 	0.92800 0.68410 0.92120 0.11400
C 	C 	0.60100 0.09000 0.86170 0.32400
C 	C 	0.24900 0.64550 0.99810 0.27600
C 	C 	0.97990 0.04920 0.76000 0.01100
C 	C 	0.02010 0.54920 0.74000 0.03400
N 	N 	0.63070 0.24450 0.43220 -0.23700
N 	N 	0.81130 0.19330 0.25160 -0.23300
N 	N 	0.43070 0.54900 0.50930 -0.23200
N 	N 	0.36930 0.74450 0.06780 -0.23800
N 	N 	0.49820 0.90820 0.18150 -0.24200
N 	N 	0.71320 0.84080 0.67790 -0.23000
N 	N 	0.10260 0.47960 0.08300 -0.22900
N 	N 	0.39740 0.52040 0.58300 -0.22900
N 	N 	0.60260 0.02040 0.91700 -0.23000
N 	N 	0.99820 0.59180 0.81850 -0.24200
N 	N 	0.28680 0.34080 0.82210 -0.23000
N 	N 	0.06930 0.45100 0.00930 -0.23000
N 	N 	0.13070 0.25550 0.56780 -0.23700
N 	N 	0.21320 0.65920 0.32210 -0.23000
N 	N 	0.18870 0.69330 0.24840 -0.23300
N 	N 	0.00180 0.09180 0.68150 -0.23600
N 	N 	0.89740 0.97960 0.41700 -0.22600
N 	N 	0.68870 0.80670 0.75160 -0.23200
N 	N 	0.31130 0.30670 0.74840 -0.23200
N 	N 	0.50180 0.40820 0.31850 -0.24200
N 	N 	0.78680 0.15920 0.17790 -0.22900
N 	N 	0.86930 0.75550 0.93220 -0.23600
N 	N 	0.93070 0.95100 0.49070 -0.22900
N 	N 	0.56930 0.04900 0.99070 -0.23200
O 	O 	0.62630 0.30280 0.28020 -0.33900
O 	O 	0.11350 0.44890 0.82930 -0.40400
O 	O 	0.62080 0.07850 0.30460 -0.36000
O 	O 	0.37920 0.57850 0.19540 -0.36000
O 	O 	0.70910 0.85730 0.92870 -0.39200
O 	O 	0.97930 0.63730 0.97340 -0.33000
O 	O 	0.47930 0.86270 0.02660 -0.33100
O 	O 	0.37370 0.80280 0.21980 -0.33900
O 	O 	0.21230 0.60760 0.93750 -0.35500
O 	O 	0.71230 0.89240 0.06250 -0.35500
O 	O 	0.12080 0.42150 0.69540 -0.35900
O 	O 	0.02070 0.13730 0.52660 -0.32800
O 	O 	0.61350 0.05110 0.17070 -0.40500
O 	O 	0.88650 0.94890 0.67070 -0.40600
O 	O 	0.38650 0.55110 0.32930 -0.40500
O 	O 	0.52070 0.36270 0.47340 -0.33000
O 	O 	0.78770 0.10760 0.56250 -0.35600
O 	O 	0.12630 0.19720 0.71980 -0.33700
O 	O 	0.79090 0.14270 0.42870 -0.39200
O 	O 	0.87920 0.92150 0.80460 -0.36100
O 	O 	0.87370 0.69720 0.78020 -0.33900
O 	O 	0.28770 0.39240 0.43750 -0.35500
O 	O 	0.29090 0.35730 0.57130 -0.39200
O 	O 	0.20910 0.64270 0.07130 -0.39300
