data_crystal

_cell_length_a 15.75370
_cell_length_b 18.99250
_cell_length_c 36.02060
_cell_angle_alpha 90.00000
_cell_angle_beta  90.00000
_cell_angle_gamma 90.00000

_symmetry_space_group_name_	'P 1'
_symmetry_space_group_name_H-M	'P 1'

loop_
_symmetry_equiv_pos_as_xyz
  x,y,z

loop_
_atom_site_label
_atom_site_type_symbol
_atom_site_fract_x
_atom_site_fract_y
_atom_site_fract_z
_atom_site_charge
Fe	Fe	0.25000 0.50000 0.25000 1.21800
Fe	Fe	0.75000 0.00000 0.75000 1.15800
B 	B 	0.48120 0.05490 0.74670 0.21400
B 	B 	0.48120 0.94510 0.75330 0.25000
B 	B 	0.01880 0.05490 0.75330 0.21400
B 	B 	0.01880 0.94510 0.74670 0.25000
H 	H 	0.65340 0.47650 0.58320 1.39400
H 	H 	0.04380 0.54500 0.41950 -0.47200
H 	H 	0.98160 0.59440 0.47550 -0.49300
H 	H 	0.64790 0.60650 0.52870 1.43100
H 	H 	0.87920 0.41550 0.97850 0.63200
H 	H 	0.65590 0.61700 0.87540 -1.57800
H 	H 	0.87920 0.58450 0.52150 0.64400
H 	H 	0.64960 0.87620 0.77460 -0.56800
H 	H 	0.95320 0.54280 0.12220 0.49900
H 	H 	0.84660 0.52350 0.58320 1.39600
H 	H 	0.37780 0.56870 0.12810 0.47700
H 	H 	0.77840 0.58200 0.03140 0.62600
H 	H 	0.88080 0.57210 0.07740 -0.47400
H 	H 	0.65110 0.78600 0.81810 1.32800
H 	H 	0.88080 0.42790 0.42260 -0.48400
H 	H 	0.64020 0.95840 0.67930 -0.45300
H 	H 	0.72160 0.58200 0.46860 0.63700
H 	H 	0.62080 0.58450 0.97850 0.63400
H 	H 	0.84660 0.47650 0.91680 1.37300
H 	H 	0.85040 0.12380 0.77460 -0.56800
H 	H 	0.54680 0.45720 0.12220 0.49900
H 	H 	0.54680 0.54280 0.37780 0.50600
H 	H 	0.29050 0.57590 0.17800 -0.23600
H 	H 	0.85040 0.87620 0.72540 -0.57600
H 	H 	0.70200 0.71840 0.85290 -3.82900
H 	H 	0.85210 0.60650 0.97130 1.41000
H 	H 	0.79800 0.71840 0.64710 -3.88900
H 	H 	0.51840 0.59440 0.02450 -0.48300
H 	H 	0.48960 0.41640 0.17880 0.37400
H 	H 	0.84890 0.78600 0.68190 1.34700
H 	H 	0.51840 0.40560 0.47550 -0.49400
H 	H 	0.84410 0.38300 0.87540 -1.57500
H 	H 	0.79800 0.28160 0.85290 -3.82200
H 	H 	0.48960 0.58360 0.32120 0.37900
H 	H 	0.64530 0.29990 0.92990 -1.81300
H 	H 	0.01040 0.58360 0.17880 0.37500
H 	H 	0.67520 0.22350 0.89140 3.84500
H 	H 	0.64960 0.12380 0.72540 -0.57600
H 	H 	0.63880 0.13170 0.86420 0.98400
H 	H 	0.40060 0.42700 0.22800 -0.22400
H 	H 	0.65340 0.52350 0.91680 1.37500
H 	H 	0.82480 0.22350 0.60860 3.90400
H 	H 	0.86120 0.13170 0.63580 0.99900
H 	H 	0.85980 0.95840 0.82070 -0.44700
H 	H 	0.77840 0.41800 0.46860 0.63600
H 	H 	0.12220 0.56870 0.37190 0.48100
H 	H 	0.09940 0.57300 0.22800 -0.22400
H 	H 	0.85980 0.04160 0.67930 -0.46100
H 	H 	0.45620 0.45500 0.41950 -0.47200
H 	H 	0.64790 0.39350 0.97130 1.40700
H 	H 	0.20950 0.42410 0.17800 -0.23600
H 	H 	0.01040 0.41640 0.32120 0.37800
H 	H 	0.12220 0.43130 0.12810 0.47700
H 	H 	0.64020 0.04160 0.82070 -0.45400
H 	H 	0.09940 0.42700 0.27200 -0.22600
H 	H 	0.82480 0.77650 0.89140 3.85400
H 	H 	0.61920 0.42790 0.07740 -0.47500
H 	H 	0.65590 0.38300 0.62460 -1.60200
H 	H 	0.95320 0.45720 0.37780 0.50500
H 	H 	0.62080 0.41550 0.52150 0.64300
H 	H 	0.40060 0.57300 0.27200 -0.22600
H 	H 	0.84890 0.21400 0.81810 1.32400
H 	H 	0.61920 0.57210 0.42260 -0.48300
H 	H 	0.29050 0.42410 0.32200 -0.23900
H 	H 	0.85470 0.29990 0.57010 -1.84300
H 	H 	0.04380 0.45500 0.08050 -0.46200
H 	H 	0.84410 0.61700 0.62460 -1.60300
H 	H 	0.63880 0.86830 0.63580 1.00400
H 	H 	0.37780 0.43130 0.37190 0.48100
H 	H 	0.85210 0.39350 0.52870 1.42900
H 	H 	0.70200 0.28160 0.64710 -3.88200
H 	H 	0.64530 0.70010 0.57010 -1.84400
H 	H 	0.67520 0.77650 0.60860 3.91300
H 	H 	0.86120 0.86830 0.86420 0.99000
H 	H 	0.45620 0.54500 0.08050 -0.46400
H 	H 	0.85470 0.70010 0.92990 -1.81400
H 	H 	0.20950 0.57590 0.32200 -0.23900
H 	H 	0.72160 0.41800 0.03140 0.62600
H 	H 	0.65110 0.21400 0.68190 1.34400
H 	H 	0.98160 0.40560 0.02450 -0.48300
C 	C 	0.38520 0.46160 0.35190 -1.30200
C 	C 	0.99830 0.48750 0.38254 -1.41700
C 	C 	0.81790 0.92380 0.82020 1.28100
C 	C 	0.69370 0.44110 0.58060 -3.90400
C 	C 	0.11480 0.53840 0.35190 -1.30200
C 	C 	0.74750 0.44426 0.94813 3.40500
C 	C 	0.55870 0.51220 0.05547 -1.38200
C 	C 	0.74250 0.27730 0.62840 11.22000
C 	C 	0.57100 0.00000 0.75000 -0.09700
C 	C 	0.75750 0.27730 0.87160 11.04600
C 	C 	0.92900 0.00000 0.75000 -0.09500
C 	C 	0.75630 0.18180 0.65450 4.94500
C 	C 	0.68090 0.54662 0.47003 -1.76500
C 	C 	0.38520 0.53840 0.14810 -1.28800
C 	C 	0.88050 0.54067 0.05753 1.33200
C 	C 	0.81880 0.86980 0.84620 -2.61400
C 	C 	0.55870 0.48780 0.44453 -1.40600
C 	C 	0.80630 0.44110 0.91940 -3.84300
C 	C 	0.68135 0.49971 0.49965 2.04500
C 	C 	0.05230 0.54910 0.17842 -0.97700
C 	C 	0.74370 0.81820 0.65450 4.95600
C 	C 	0.05840 0.50500 0.14796 1.29600
C 	C 	0.75560 0.66780 0.89851 -6.29300
C 	C 	0.80710 0.82060 0.68140 -3.32600
C 	C 	0.80480 0.38510 0.89459 4.48800
C 	C 	0.69290 0.17940 0.68140 -3.32100
C 	C 	0.68120 0.86980 0.65380 -2.65200
C 	C 	0.81910 0.45338 0.47003 -1.76500
C 	C 	0.33280 0.45830 0.32174 0.72400
C 	C 	0.39390 0.45680 0.20772 0.68100
C 	C 	0.81280 0.39140 0.54795 -4.02000
C 	C 	0.99740 0.51600 0.41501 1.32800
C 	C 	0.71800 0.23060 0.87400 -10.82600
C 	C 	0.71800 0.76940 0.62600 -11.01300
C 	C 	0.68570 0.33532 0.92724 4.82900
C 	C 	0.80630 0.55890 0.58060 -3.90800
C 	C 	0.10610 0.54320 0.20772 0.68200
C 	C 	0.05840 0.49500 0.35204 1.31000
C 	C 	0.50260 0.48400 0.41501 1.32900
C 	C 	0.94130 0.48780 0.05547 -1.37900
C 	C 	0.78200 0.23060 0.62600 -10.99400
C 	C 	0.81910 0.54662 0.02997 -1.73300
C 	C 	0.05230 0.45090 0.32158 -0.98600
C 	C 	0.80480 0.61490 0.60541 4.56800
C 	C 	0.44770 0.54910 0.32158 -0.98600
C 	C 	0.69210 0.87460 0.79260 1.60200
C 	C 	0.74370 0.18180 0.84550 4.87000
C 	C 	0.81430 0.33532 0.57276 4.90700
C 	C 	0.50170 0.48750 0.11746 -1.39800
C 	C 	0.39390 0.54320 0.29228 0.68800
C 	C 	0.16720 0.45830 0.17826 0.71700
C 	C 	0.61950 0.45933 0.05753 1.33400
C 	C 	0.81280 0.60860 0.95205 -3.96200
C 	C 	0.80790 0.12540 0.79260 1.59500
C 	C 	0.81790 0.07620 0.67980 1.29400
C 	C 	0.80710 0.17940 0.81860 -3.27200
C 	C 	0.69370 0.55890 0.91940 -3.84700
C 	C 	0.68120 0.13020 0.84620 -2.61100
C 	C 	0.44770 0.45090 0.17842 -0.97700
C 	C 	0.62050 0.44686 0.50171 -1.76800
C 	C 	0.16720 0.54170 0.32174 0.72400
C 	C 	0.75750 0.72270 0.62840 11.24000
C 	C 	0.75000 0.50000 0.97447 -3.46800
C 	C 	0.68720 0.39140 0.95205 -3.95700
C 	C 	0.87950 0.44686 0.99829 -1.73200
C 	C 	0.61950 0.54067 0.44247 1.35900
C 	C 	0.69520 0.61490 0.89459 4.49600
C 	C 	0.94080 0.55909 0.47415 1.39700
C 	C 	0.69520 0.38510 0.60541 4.56100
C 	C 	0.33280 0.54170 0.17826 0.71600
C 	C 	0.81865 0.50029 0.49965 2.04500
C 	C 	0.75250 0.44426 0.55187 3.46000
C 	C 	0.75000 0.50000 0.52553 -3.52800
C 	C 	0.94080 0.44091 0.02585 1.36600
C 	C 	0.55920 0.55909 0.02585 1.37100
C 	C 	0.74440 0.33220 0.89851 -6.28300
C 	C 	0.81865 0.49971 0.00035 2.00600
C 	C 	0.87950 0.55314 0.50171 -1.76700
C 	C 	0.81880 0.13020 0.65380 -2.64900
C 	C 	0.75250 0.55574 0.94813 3.40800
C 	C 	0.80790 0.87460 0.70740 1.62500
C 	C 	0.10610 0.45680 0.29228 0.68800
C 	C 	0.25000 0.64220 0.25000 0.30300
C 	C 	0.62050 0.55314 0.99829 -1.73700
C 	C 	0.81430 0.66468 0.92724 4.83700
C 	C 	0.75560 0.33220 0.60149 -6.38300
C 	C 	0.75630 0.81820 0.84550 4.88200
C 	C 	0.44160 0.49500 0.14796 1.29500
C 	C 	0.68090 0.45338 0.02997 -1.73600
C 	C 	0.74750 0.55574 0.55187 3.46300
C 	C 	0.74440 0.66780 0.60149 -6.39200
C 	C 	0.94130 0.51220 0.44453 -1.40600
C 	C 	0.88050 0.45933 0.44247 1.35800
C 	C 	0.50260 0.51600 0.08499 1.30700
C 	C 	0.99740 0.48400 0.08499 1.30300
C 	C 	0.69290 0.82060 0.81860 -3.27800
C 	C 	0.68135 0.50029 0.00035 2.00900
C 	C 	0.68720 0.60860 0.54795 -4.02400
C 	C 	0.68570 0.66468 0.57276 4.91400
C 	C 	0.11480 0.46160 0.14810 -1.28900
C 	C 	0.25000 0.35780 0.25000 0.30200
C 	C 	0.44160 0.50500 0.35204 1.31000
C 	C 	0.50170 0.51250 0.38254 -1.41700
C 	C 	0.74250 0.72270 0.87160 11.06800
C 	C 	0.69210 0.12540 0.70740 1.61900
C 	C 	0.68210 0.07620 0.82020 1.27500
C 	C 	0.68210 0.92380 0.67980 1.30000
C 	C 	0.99830 0.51250 0.11746 -1.39800
C 	C 	0.78200 0.76940 0.87400 -10.84700
C 	C 	0.55920 0.44091 0.47415 1.39700
N 	N 	0.25000 0.40370 0.25000 -0.40900
N 	N 	0.63290 0.00000 0.75000 -0.26300
N 	N 	0.33730 0.50010 0.20805 -0.50600
N 	N 	0.33730 0.49990 0.29195 -0.50900
N 	N 	0.16270 0.50010 0.29195 -0.50900
N 	N 	0.75460 0.07380 0.70664 -0.72200
N 	N 	0.74540 0.92620 0.70664 -0.71700
N 	N 	0.75460 0.92620 0.79336 -0.71000
N 	N 	0.25000 0.59630 0.25000 -0.40900
N 	N 	0.74540 0.07380 0.79336 -0.71500
N 	N 	0.86710 0.00000 0.75000 -0.26400
N 	N 	0.16270 0.49990 0.20805 -0.50600
Fe	Fe	0.75000 0.50000 0.75000 1.21900
Fe	Fe	0.25000 -0.00000 0.25000 1.15900
B 	B 	0.51880 0.05490 0.24670 0.21400
B 	B 	0.51880 0.94510 0.25330 0.25100
B 	B 	0.98120 0.94510 0.24670 0.24900
B 	B 	0.98120 0.05490 0.25330 0.21400
H 	H 	0.36120 0.13170 0.36420 0.99900
H 	H 	0.62220 0.43130 0.87190 0.47700
H 	H 	0.35040 0.12380 0.22540 -0.56800
H 	H 	0.17520 0.22350 0.10860 3.84600
H 	H 	0.15340 0.47650 0.41680 1.39400
H 	H 	0.14530 0.70010 0.42990 -1.84400
H 	H 	0.35470 0.70010 0.07010 -1.81400
H 	H 	0.22160 0.41800 0.96860 0.62500
H 	H 	0.35470 0.29990 0.42990 -1.84300
H 	H 	0.14020 0.95840 0.32070 -0.45300
H 	H 	0.11920 0.57210 0.57740 -0.48400
H 	H 	0.35980 0.95840 0.17930 -0.44700
H 	H 	0.90060 0.57300 0.72800 -0.22600
H 	H 	0.32480 0.22350 0.39140 3.90400
H 	H 	0.13880 0.13170 0.13580 0.98500
H 	H 	0.34890 0.78600 0.31810 1.34700
H 	H 	0.15590 0.38300 0.37540 -1.60100
H 	H 	0.12080 0.58450 0.02150 0.63200
H 	H 	0.95620 0.54500 0.91950 -0.46200
H 	H 	0.17520 0.77650 0.39140 3.91300
H 	H 	0.27840 0.58200 0.96860 0.62700
H 	H 	0.14020 0.04160 0.17930 -0.45400
H 	H 	0.37920 0.41550 0.02150 0.63300
H 	H 	0.32480 0.77650 0.10860 3.85400
H 	H 	0.34410 0.38300 0.12460 -1.57600
H 	H 	0.38080 0.57210 0.92260 -0.47500
H 	H 	0.22160 0.58200 0.53140 0.63700
H 	H 	0.79050 0.42410 0.67800 -0.23900
H 	H 	0.14790 0.39350 0.02870 1.40800
H 	H 	0.14960 0.12380 0.27460 -0.57600
H 	H 	0.11920 0.42790 0.92260 -0.47400
H 	H 	0.54380 0.45500 0.91950 -0.46500
H 	H 	0.15590 0.61700 0.12460 -1.57700
H 	H 	0.48160 0.40560 0.97550 -0.48400
H 	H 	0.70950 0.42410 0.82200 -0.23600
H 	H 	0.35210 0.39350 0.47130 1.42900
H 	H 	0.95620 0.45500 0.58050 -0.47200
H 	H 	0.15110 0.21400 0.31810 1.34400
H 	H 	0.79050 0.57590 0.82200 -0.23600
H 	H 	0.45320 0.45720 0.62220 0.50500
H 	H 	0.20200 0.28160 0.35290 -3.88200
H 	H 	0.04680 0.54280 0.62220 0.50600
H 	H 	0.14530 0.29990 0.07010 -1.81300
H 	H 	0.45320 0.54280 0.87780 0.49900
H 	H 	0.59940 0.57300 0.77200 -0.22400
H 	H 	0.35040 0.87620 0.27460 -0.57600
H 	H 	0.87780 0.56870 0.87190 0.47700
H 	H 	0.01840 0.59440 0.97550 -0.48200
H 	H 	0.34410 0.61700 0.37540 -1.60300
H 	H 	0.34890 0.21400 0.18190 1.32500
H 	H 	0.13880 0.86830 0.36420 1.00400
H 	H 	0.34660 0.52350 0.41680 1.39600
H 	H 	0.14960 0.87620 0.22540 -0.56800
H 	H 	0.01840 0.40560 0.52450 -0.49400
H 	H 	0.70950 0.57590 0.67800 -0.23900
H 	H 	0.14790 0.60650 0.47130 1.43100
H 	H 	0.37920 0.58450 0.47850 0.64400
H 	H 	0.51040 0.41640 0.67880 0.37800
H 	H 	0.36120 0.86830 0.13580 0.99000
H 	H 	0.15110 0.78600 0.18190 1.32800
H 	H 	0.35980 0.04160 0.32070 -0.46100
H 	H 	0.62220 0.56870 0.62810 0.48100
H 	H 	0.29800 0.71840 0.35290 -3.88900
H 	H 	0.98960 0.41640 0.82120 0.37500
H 	H 	0.59940 0.42700 0.72800 -0.22600
H 	H 	0.38080 0.42790 0.57740 -0.48400
H 	H 	0.98960 0.58360 0.67880 0.37900
H 	H 	0.29800 0.28160 0.14710 -3.82300
H 	H 	0.87780 0.43130 0.62810 0.48200
H 	H 	0.20200 0.71840 0.14710 -3.82800
H 	H 	0.54380 0.54500 0.58050 -0.47200
H 	H 	0.04680 0.45720 0.87780 0.49800
H 	H 	0.48160 0.59440 0.52450 -0.49300
H 	H 	0.15340 0.52350 0.08320 1.37500
H 	H 	0.90060 0.42700 0.77200 -0.22400
H 	H 	0.51040 0.58360 0.82120 0.37500
H 	H 	0.34660 0.47650 0.08320 1.37300
H 	H 	0.12080 0.41550 0.47850 0.64300
H 	H 	0.27840 0.41800 0.53140 0.63600
H 	H 	0.35210 0.60650 0.02870 1.41000
C 	C 	0.31790 0.07620 0.32020 1.29400
C 	C 	0.25630 0.81820 0.15450 4.88200
C 	C 	0.38050 0.45933 0.55753 1.35800
C 	C 	0.49740 0.48400 0.91501 1.30800
C 	C 	0.00260 0.48400 0.58499 1.32900
C 	C 	0.11950 0.45933 0.94247 1.33100
C 	C 	0.24250 0.72270 0.12840 11.06600
C 	C 	0.31865 0.49971 0.99965 2.00900
C 	C 	0.83280 0.45830 0.67826 0.72500
C 	C 	0.37950 0.44686 0.00171 -1.73700
C 	C 	0.66720 0.54170 0.67826 0.72300
C 	C 	0.05870 0.51220 0.94453 -1.37800
C 	C 	0.38050 0.54067 0.94247 1.33500
C 	C 	0.19210 0.87460 0.20740 1.60200
C 	C 	0.05870 0.48780 0.55547 -1.40600
C 	C 	0.30630 0.44110 0.08060 -3.84300
C 	C 	0.94160 0.50500 0.64796 1.31200
C 	C 	0.30710 0.82060 0.31860 -3.32600
C 	C 	0.31430 0.33532 0.42724 4.90700
C 	C 	0.44130 0.51220 0.55547 -1.40500
C 	C 	0.21800 0.23060 0.12600 -10.82800
C 	C 	0.12050 0.55314 0.00171 -1.73200
C 	C 	0.44080 0.44091 0.97415 1.37200
C 	C 	0.18090 0.54662 0.52997 -1.76500
C 	C 	0.24370 0.81820 0.34550 4.95600
C 	C 	0.30480 0.61490 0.39459 4.56800
C 	C 	0.55230 0.45090 0.67842 -0.98500
C 	C 	0.24250 0.27730 0.37160 11.22000
C 	C 	0.31910 0.45338 0.52997 -1.76500
C 	C 	0.94770 0.54910 0.67842 -0.98700
C 	C 	0.28200 0.76940 0.12600 -10.84500
C 	C 	0.31280 0.39140 0.45205 -4.02000
C 	C 	0.25750 0.72270 0.37160 11.24000
C 	C 	0.55840 0.50500 0.85204 1.29600
C 	C 	0.19520 0.38510 0.39459 4.56100
C 	C 	0.18720 0.39140 0.04795 -3.95800
C 	C 	0.89390 0.54320 0.70772 0.68800
C 	C 	0.24750 0.44426 0.05187 3.40500
C 	C 	0.83280 0.54170 0.82174 0.71700
C 	C 	0.44130 0.48780 0.94453 -1.38300
C 	C 	0.88520 0.53840 0.85190 -1.28800
C 	C 	0.12050 0.44686 0.49829 -1.76800
C 	C 	0.30790 0.87460 0.29260 1.62500
C 	C 	0.18570 0.33532 0.07276 4.83000
C 	C 	0.30710 0.17940 0.18140 -3.27300
C 	C 	0.00260 0.51600 0.91501 1.30200
C 	C 	0.49830 0.51250 0.88254 -1.39900
C 	C 	0.19520 0.61490 0.10541 4.49500
C 	C 	0.25560 0.33220 0.39851 -6.38300
C 	C 	0.18135 0.49971 0.50035 2.04500
C 	C 	0.94160 0.49500 0.85204 1.29500
C 	C 	0.25750 0.27730 0.12840 11.04800
C 	C 	0.25000 0.50000 0.47447 -3.52700
C 	C 	0.37950 0.55314 0.49829 -1.76700
C 	C 	0.75000 0.64220 0.75000 0.30300
C 	C 	0.24440 0.33220 0.10149 -6.28400
C 	C 	0.11950 0.54067 0.55753 1.35900
C 	C 	0.28200 0.23060 0.37400 -10.99400
C 	C 	0.19370 0.55890 0.08060 -3.84700
C 	C 	0.75000 0.35780 0.75000 0.30200
C 	C 	0.49740 0.51600 0.58499 1.32800
C 	C 	0.05920 0.55909 0.97415 1.36600
C 	C 	0.18135 0.50029 0.99965 2.00600
C 	C 	0.31865 0.50029 0.50035 2.04400
C 	C 	0.19370 0.44110 0.41940 -3.90400
C 	C 	0.89390 0.45680 0.79228 0.68100
C 	C 	0.24750 0.55574 0.44813 3.46300
C 	C 	0.31880 0.86980 0.15380 -2.61400
C 	C 	0.07100 -0.00000 0.25000 -0.09500
C 	C 	0.18570 0.66468 0.42724 4.91400
C 	C 	0.18210 0.92380 0.32020 1.30000
C 	C 	0.18120 0.86980 0.34620 -2.65200
C 	C 	0.61480 0.46160 0.85190 -1.28900
C 	C 	0.00170 0.48750 0.88254 -1.39700
C 	C 	0.18120 0.13020 0.15380 -2.61100
C 	C 	0.05920 0.44091 0.52585 1.39700
C 	C 	0.19290 0.17940 0.31860 -3.32100
C 	C 	0.31280 0.60860 0.04795 -3.96100
C 	C 	0.44080 0.55909 0.52585 1.39600
C 	C 	0.55230 0.54910 0.82158 -0.97700
C 	C 	0.25250 0.55574 0.05187 3.40800
C 	C 	0.24440 0.66780 0.39851 -6.39200
C 	C 	0.25630 0.18180 0.34550 4.94500
C 	C 	0.19210 0.12540 0.29260 1.61900
C 	C 	0.19290 0.82060 0.18140 -3.27800
C 	C 	0.31790 0.92380 0.17980 1.28100
C 	C 	0.25000 0.50000 0.02553 -3.46800
C 	C 	0.42900 -0.00000 0.25000 -0.09700
C 	C 	0.25250 0.44426 0.44813 3.46000
C 	C 	0.30790 0.12540 0.20740 1.59600
C 	C 	0.61480 0.53840 0.64810 -1.30000
C 	C 	0.60610 0.54320 0.79228 0.68200
C 	C 	0.25560 0.66780 0.10149 -6.29200
C 	C 	0.55840 0.49500 0.64796 1.30900
C 	C 	0.30630 0.55890 0.41940 -3.90800
C 	C 	0.00170 0.51250 0.61746 -1.41800
C 	C 	0.94770 0.45090 0.82158 -0.97700
C 	C 	0.31880 0.13020 0.34620 -2.64900
C 	C 	0.31430 0.66468 0.07276 4.83600
C 	C 	0.66720 0.45830 0.82174 0.71700
C 	C 	0.49830 0.48750 0.61746 -1.41600
C 	C 	0.18720 0.60860 0.45205 -4.02400
C 	C 	0.18090 0.45338 0.97003 -1.73300
C 	C 	0.21800 0.76940 0.37400 -11.01300
C 	C 	0.30480 0.38510 0.10541 4.48900
C 	C 	0.18210 0.07620 0.17980 1.27600
C 	C 	0.31910 0.54662 0.97003 -1.73600
C 	C 	0.88520 0.46160 0.64810 -1.30300
C 	C 	0.24370 0.18180 0.15450 4.87100
C 	C 	0.60610 0.45680 0.70772 0.68700
N 	N 	0.66270 0.49990 0.79195 -0.50600
N 	N 	0.66270 0.50010 0.70805 -0.50900
N 	N 	0.13290 -0.00000 0.25000 -0.26400
N 	N 	0.24540 0.92620 0.29336 -0.71700
N 	N 	0.75000 0.59630 0.75000 -0.40900
N 	N 	0.24540 0.07380 0.20664 -0.71500
N 	N 	0.75000 0.40370 0.75000 -0.40900
N 	N 	0.25460 0.92620 0.20664 -0.71000
N 	N 	0.36710 -0.00000 0.25000 -0.26300
N 	N 	0.83730 0.49990 0.70805 -0.50900
N 	N 	0.83730 0.50010 0.79195 -0.50600
N 	N 	0.25460 0.07380 0.29336 -0.72200
