data_crystal

_cell_length_a 8.73500
_cell_length_b 15.17040
_cell_length_c 13.08510
_cell_angle_alpha 90.00000
_cell_angle_beta  101.22300
_cell_angle_gamma 90.00000

_symmetry_space_group_name_	'P 1'
_symmetry_space_group_name_H-M	'P 1'

loop_
_symmetry_equiv_pos_as_xyz
  x,y,z

loop_
_atom_site_label
_atom_site_type_symbol
_atom_site_fract_x
_atom_site_fract_y
_atom_site_fract_z
_atom_site_charge
P 	P 	0.05972 0.09744 0.11929 0.38200
H 	H 	0.20290 0.07870 0.20300 -0.00900
O 	O 	0.12230 0.10665 0.01898 -0.52300
O 	O 	0.94520 0.02280 0.11880 -0.48800
O 	O 	0.98750 0.18452 0.14460 -0.39500
Be	Be	0.05620 0.08240 0.89680 1.47700
O 	O 	0.31930 0.37120 0.16310 -0.61100
O 	O 	0.38450 0.37390 0.36100 -0.58900
O 	O 	0.11630 0.32330 0.26590 -0.42200
P 	P 	0.27300 0.35670 0.26239 0.68400
H 	H 	0.16450 0.44200 0.26090 0.00100
O 	O 	0.18320 0.27740 0.27510 -0.28300
P 	P 	0.55972 0.59744 0.11929 0.53300
H 	H 	0.70290 0.57870 0.20300 0.00100
O 	O 	0.62230 0.60665 0.01898 -0.50600
O 	O 	0.44520 0.52280 0.11880 -0.58700
O 	O 	0.48750 0.68452 0.14460 -0.50400
Be	Be	0.55620 0.58240 0.89680 1.48000
O 	O 	0.81930 0.87120 0.16310 -0.57600
O 	O 	0.88450 0.87390 0.36100 -0.53600
O 	O 	0.61630 0.82330 0.26590 -0.37900
P 	P 	0.77300 0.85670 0.26239 0.68200
H 	H 	0.66450 0.94200 0.26090 0.02400
O 	O 	0.68320 0.77740 0.27510 -0.27200
P 	P 	0.94028 0.09744 0.38071 0.68200
H 	H 	0.79710 0.07870 0.29700 -0.01400
O 	O 	0.87770 0.10665 0.48102 -0.50600
O 	O 	0.05480 0.02280 0.38120 -0.67500
O 	O 	0.01250 0.18452 0.35540 -0.60500
Be	Be	0.94380 0.08240 0.60320 1.48300
O 	O 	0.68070 0.37120 0.33690 -0.58600
O 	O 	0.61550 0.37390 0.13900 -0.57600
O 	O 	0.88370 0.32330 0.23410 -0.32100
P 	P 	0.72700 0.35670 0.23761 0.67500
H 	H 	0.83550 0.44200 0.23910 0.04600
O 	O 	0.81680 0.27740 0.22490 -0.28600
P 	P 	0.44028 0.59744 0.38071 0.53000
H 	H 	0.29710 0.57870 0.29700 -0.02400
O 	O 	0.37770 0.60665 0.48102 -0.52800
O 	O 	0.55480 0.52280 0.38120 -0.57700
O 	O 	0.51250 0.68452 0.35540 -0.49900
Be	Be	0.44380 0.58240 0.60320 1.48000
O 	O 	0.18070 0.87120 0.33690 -0.62600
O 	O 	0.11550 0.87390 0.13900 -0.63100
O 	O 	0.38370 0.82330 0.23410 -0.36700
P 	P 	0.22700 0.85670 0.23761 0.67800
H 	H 	0.33550 0.94200 0.23910 0.02100
O 	O 	0.31680 0.77740 0.22490 -0.29900
P 	P 	0.94028 0.90256 0.88071 0.68200
H 	H 	0.79710 0.92130 0.79700 -0.01400
O 	O 	0.87770 0.89335 0.98102 -0.50700
O 	O 	0.05480 0.97720 0.88120 -0.67600
O 	O 	0.01250 0.81548 0.85540 -0.60700
Be	Be	0.94380 0.91760 0.10320 1.48300
O 	O 	0.68070 0.62880 0.83690 -0.58700
O 	O 	0.61550 0.62610 0.63900 -0.57800
O 	O 	0.88370 0.67670 0.73410 -0.32100
P 	P 	0.72700 0.64330 0.73761 0.67600
H 	H 	0.83550 0.55800 0.73910 0.04600
O 	O 	0.81680 0.72260 0.72490 -0.28700
P 	P 	0.44028 0.40256 0.88071 0.53000
H 	H 	0.29710 0.42130 0.79700 -0.02500
O 	O 	0.37770 0.39335 0.98102 -0.53400
O 	O 	0.55480 0.47720 0.88120 -0.57900
O 	O 	0.51250 0.31548 0.85540 -0.50100
Be	Be	0.44380 0.41760 0.10320 1.48100
O 	O 	0.18070 0.12880 0.83690 -0.63100
O 	O 	0.11550 0.12610 0.63900 -0.63200
O 	O 	0.38370 0.17670 0.73410 -0.36700
P 	P 	0.22700 0.14330 0.73761 0.67800
H 	H 	0.33550 0.05800 0.73910 0.02000
O 	O 	0.31680 0.22260 0.72490 -0.30000
P 	P 	0.05972 0.90256 0.61929 0.38100
H 	H 	0.20290 0.92130 0.70300 -0.00800
O 	O 	0.12230 0.89335 0.51898 -0.53000
O 	O 	0.94520 0.97720 0.61880 -0.48900
O 	O 	0.98750 0.81548 0.64460 -0.39400
Be	Be	0.05620 0.91760 0.39680 1.47800
O 	O 	0.31930 0.62880 0.66310 -0.61300
O 	O 	0.38450 0.62610 0.86100 -0.59100
O 	O 	0.11630 0.67670 0.76590 -0.42300
P 	P 	0.27300 0.64330 0.76239 0.68400
H 	H 	0.16450 0.55800 0.76090 -0.00000
O 	O 	0.18320 0.72260 0.77510 -0.28400
P 	P 	0.55972 0.40256 0.61929 0.53300
H 	H 	0.70290 0.42130 0.70300 0.00100
O 	O 	0.62230 0.39335 0.51898 -0.50800
O 	O 	0.44520 0.47720 0.61880 -0.58900
O 	O 	0.48750 0.31548 0.64460 -0.50400
Be	Be	0.55620 0.41760 0.39680 1.48100
O 	O 	0.81930 0.12880 0.66310 -0.57400
O 	O 	0.88450 0.12610 0.86100 -0.54000
O 	O 	0.61630 0.17670 0.76590 -0.38000
P 	P 	0.77300 0.14330 0.76239 0.68300
H 	H 	0.66450 0.05800 0.76090 0.02300
O 	O 	0.68320 0.22260 0.77510 -0.27200
Be	Be	0.00000 0.24270 0.25000 1.47900
Be	Be	0.50000 0.74270 0.25000 1.48400
Be	Be	0.00000 0.75730 0.75000 1.47900
Be	Be	0.50000 0.25730 0.75000 1.48400
