data_crystal

_cell_length_a 22.71180
_cell_length_b 22.71180
_cell_length_c 22.71180
_cell_angle_alpha 109.47100
_cell_angle_beta  109.47100
_cell_angle_gamma 109.47100

_symmetry_space_group_name_	'P 1'
_symmetry_space_group_name_H-M	'P 1'

loop_
_symmetry_equiv_pos_as_xyz
  x,y,z

loop_
_atom_site_label
_atom_site_type_symbol
_atom_site_fract_x
_atom_site_fract_y
_atom_site_fract_z
_atom_site_charge
Yb	Yb	0.89710 0.50000 0.39710 1.45400
Yb	Yb	0.10290 0.50000 0.60290 1.45200
Yb	Yb	0.39710 0.89710 0.50000 1.45400
Yb	Yb	0.60290 0.10290 0.50000 1.45200
Yb	Yb	0.50000 0.60290 0.10290 1.45200
Yb	Yb	0.50000 0.39710 0.89710 1.45400
Yb	Yb	0.50000 0.10290 0.60290 1.45200
Yb	Yb	0.50000 0.89710 0.39710 1.45500
Yb	Yb	0.10290 0.60290 0.50000 1.45200
Yb	Yb	0.89710 0.39710 0.50000 1.45400
Yb	Yb	0.39710 0.50000 0.89710 1.45400
Yb	Yb	0.60290 0.50000 0.10290 1.45200
H 	H 	0.74600 0.55100 0.44340 0.01300
H 	H 	0.67310 0.58620 0.47930 0.08400
H 	H 	0.10760 0.30260 0.55660 0.01300
H 	H 	0.10690 0.19380 0.52070 0.08400
H 	H 	0.89240 0.44900 0.19500 0.01300
H 	H 	0.89310 0.41380 0.08690 0.08300
H 	H 	0.25400 0.69740 0.80500 0.01400
H 	H 	0.32690 0.80620 0.91310 0.08500
H 	H 	0.19500 0.89240 0.44900 0.01200
H 	H 	0.08690 0.89310 0.41380 0.08200
H 	H 	0.80500 0.25400 0.69740 0.01400
H 	H 	0.91310 0.32690 0.80620 0.08500
H 	H 	0.44340 0.74600 0.55100 0.01400
H 	H 	0.47930 0.67310 0.58620 0.08500
H 	H 	0.55660 0.10760 0.30260 0.01400
H 	H 	0.52070 0.10690 0.19380 0.08300
H 	H 	0.30260 0.55660 0.10760 0.01400
H 	H 	0.19380 0.52070 0.10690 0.08400
H 	H 	0.55100 0.44340 0.74600 0.01400
H 	H 	0.58620 0.47930 0.67310 0.08500
H 	H 	0.69740 0.80500 0.25400 0.01500
H 	H 	0.80620 0.91310 0.32690 0.08600
H 	H 	0.44900 0.19500 0.89240 0.01300
H 	H 	0.41380 0.08690 0.89310 0.08200
H 	H 	0.44900 0.25400 0.55660 0.01400
H 	H 	0.41380 0.32690 0.52070 0.08400
H 	H 	0.69740 0.89240 0.44340 0.01300
H 	H 	0.80620 0.89310 0.47930 0.08200
H 	H 	0.55100 0.10760 0.80500 0.02900
H 	H 	0.58620 0.10690 0.91310 0.07300
H 	H 	0.30260 0.74600 0.19500 0.01400
H 	H 	0.19380 0.67310 0.08690 0.08400
H 	H 	0.10760 0.80500 0.55100 0.01400
H 	H 	0.10690 0.91310 0.58620 0.08600
H 	H 	0.74600 0.19500 0.30260 0.01400
H 	H 	0.67310 0.08690 0.19380 0.08300
H 	H 	0.25400 0.55660 0.44900 0.01400
H 	H 	0.32690 0.52070 0.41380 0.08400
H 	H 	0.89240 0.44340 0.69740 0.01300
H 	H 	0.89310 0.47930 0.80620 0.08300
H 	H 	0.44340 0.69740 0.89240 0.01300
H 	H 	0.47930 0.80620 0.89310 0.08300
H 	H 	0.55660 0.44900 0.25400 0.01400
H 	H 	0.52070 0.41380 0.32690 0.08400
H 	H 	0.19500 0.30260 0.74600 0.01400
H 	H 	0.08690 0.19380 0.67310 0.08400
H 	H 	0.80500 0.55100 0.10760 0.01400
H 	H 	0.91310 0.58620 0.10690 0.08500
H 	H 	0.25400 0.44900 0.55660 0.01400
H 	H 	0.32690 0.41380 0.52070 0.08400
H 	H 	0.89240 0.69740 0.44340 0.01400
H 	H 	0.89310 0.80620 0.47930 0.08300
H 	H 	0.10760 0.55100 0.80500 0.01400
H 	H 	0.10690 0.58620 0.91310 0.08500
H 	H 	0.74600 0.30260 0.19500 0.01400
H 	H 	0.67310 0.19380 0.08690 0.08400
H 	H 	0.80500 0.10760 0.55100 0.01400
H 	H 	0.91310 0.10690 0.58620 0.08400
H 	H 	0.19500 0.74600 0.30260 0.01400
H 	H 	0.08690 0.67310 0.19380 0.08400
H 	H 	0.55660 0.25400 0.44900 0.01400
H 	H 	0.52070 0.32690 0.41380 0.08400
H 	H 	0.44340 0.89240 0.69740 0.02800
H 	H 	0.47930 0.89310 0.80620 0.07100
H 	H 	0.69740 0.44340 0.89240 0.01300
H 	H 	0.80620 0.47930 0.89310 0.08300
H 	H 	0.44900 0.55660 0.25400 0.01400
H 	H 	0.41380 0.52070 0.32690 0.08400
H 	H 	0.30260 0.19500 0.74600 0.01400
H 	H 	0.19380 0.08690 0.67310 0.08300
H 	H 	0.55100 0.80500 0.10760 0.01400
H 	H 	0.58620 0.91310 0.10690 0.08600
H 	H 	0.55100 0.74600 0.44340 0.01400
H 	H 	0.58620 0.67310 0.47930 0.08500
H 	H 	0.30260 0.10760 0.55660 0.01400
H 	H 	0.19380 0.10690 0.52070 0.08300
H 	H 	0.44900 0.89240 0.19500 0.01200
H 	H 	0.41380 0.89310 0.08690 0.08200
H 	H 	0.69740 0.25400 0.80500 0.01400
H 	H 	0.80620 0.32690 0.91310 0.08500
H 	H 	0.89240 0.19500 0.44900 0.01300
H 	H 	0.89310 0.08690 0.41380 0.08200
H 	H 	0.25400 0.80500 0.69740 0.01500
H 	H 	0.32690 0.91310 0.80620 0.08600
H 	H 	0.74600 0.44340 0.55100 0.01400
H 	H 	0.67310 0.47930 0.58620 0.08500
H 	H 	0.10760 0.55660 0.30260 0.01400
H 	H 	0.10690 0.52070 0.19380 0.08400
H 	H 	0.55660 0.30260 0.10760 0.01400
H 	H 	0.52070 0.19380 0.10690 0.08400
H 	H 	0.44340 0.55100 0.74600 0.01400
H 	H 	0.47930 0.58620 0.67310 0.08500
H 	H 	0.80500 0.69740 0.25400 0.01400
H 	H 	0.91310 0.80620 0.32690 0.08500
H 	H 	0.19500 0.44900 0.89240 0.01300
H 	H 	0.08690 0.41380 0.89310 0.08300
C 	C 	0.73260 0.53730 0.47370 0.07600
C 	C 	0.68800 0.55720 0.49420 -0.13300
C 	C 	0.06360 0.25890 0.52630 0.07500
C 	C 	0.06300 0.19380 0.50580 -0.13200
C 	C 	0.93640 0.46270 0.19530 0.07900
C 	C 	0.93700 0.44280 0.13080 -0.12800
C 	C 	0.26740 0.74110 0.80470 0.07500
C 	C 	0.31200 0.80620 0.86920 -0.13000
C 	C 	0.19530 0.93640 0.46270 0.08300
C 	C 	0.13080 0.93700 0.44280 -0.12400
C 	C 	0.80470 0.26740 0.74110 0.07500
C 	C 	0.86920 0.31200 0.80620 -0.13200
C 	C 	0.47370 0.73260 0.53730 0.07600
C 	C 	0.49420 0.68800 0.55720 -0.13300
C 	C 	0.52630 0.06360 0.25890 0.07500
C 	C 	0.50580 0.06300 0.19380 -0.13100
C 	C 	0.25890 0.52630 0.06360 0.07600
C 	C 	0.19380 0.50580 0.06300 -0.13200
C 	C 	0.53730 0.47370 0.73260 0.07600
C 	C 	0.55720 0.49420 0.68800 -0.13300
C 	C 	0.74110 0.80470 0.26740 0.07500
C 	C 	0.80620 0.86920 0.31200 -0.13000
C 	C 	0.46270 0.19530 0.93640 0.07900
C 	C 	0.44280 0.13080 0.93700 -0.12800
C 	C 	0.46270 0.26740 0.52630 0.07600
C 	C 	0.44280 0.31200 0.50580 -0.13300
C 	C 	0.74110 0.93640 0.47370 0.08300
C 	C 	0.80620 0.93700 0.49420 -0.12300
C 	C 	0.53730 0.06360 0.80470 0.02900
C 	C 	0.55720 0.06300 0.86920 -0.09800
C 	C 	0.25890 0.73260 0.19530 0.07600
C 	C 	0.19380 0.68800 0.13080 -0.13300
C 	C 	0.06360 0.80470 0.53730 0.07500
C 	C 	0.06300 0.86920 0.55720 -0.13000
C 	C 	0.73260 0.19530 0.25890 0.07500
C 	C 	0.68800 0.13080 0.19380 -0.13300
C 	C 	0.26740 0.52630 0.46270 0.07600
C 	C 	0.31200 0.50580 0.44280 -0.13300
C 	C 	0.93640 0.47370 0.74110 0.07900
C 	C 	0.93700 0.49420 0.80620 -0.12700
C 	C 	0.47370 0.74110 0.93640 0.07900
C 	C 	0.49420 0.80620 0.93700 -0.12700
C 	C 	0.52630 0.46270 0.26740 0.07600
C 	C 	0.50580 0.44280 0.31200 -0.13300
C 	C 	0.19530 0.25890 0.73260 0.07500
C 	C 	0.13080 0.19380 0.68800 -0.13300
C 	C 	0.80470 0.53730 0.06360 0.07600
C 	C 	0.86920 0.55720 0.06300 -0.13100
C 	C 	0.26740 0.46270 0.52630 0.07600
C 	C 	0.31200 0.44280 0.50580 -0.13300
C 	C 	0.93640 0.74110 0.47370 0.07900
C 	C 	0.93700 0.80620 0.49420 -0.12600
C 	C 	0.06360 0.53730 0.80470 0.07600
C 	C 	0.06300 0.55720 0.86920 -0.13100
C 	C 	0.73260 0.25890 0.19530 0.07600
C 	C 	0.68800 0.19380 0.13080 -0.13300
C 	C 	0.80470 0.06360 0.53730 0.07500
C 	C 	0.86920 0.06300 0.55720 -0.13000
C 	C 	0.19530 0.73260 0.25890 0.07600
C 	C 	0.13080 0.68800 0.19380 -0.13300
C 	C 	0.52630 0.26740 0.46270 0.07600
C 	C 	0.50580 0.31200 0.44280 -0.13300
C 	C 	0.47370 0.93640 0.74110 0.03700
C 	C 	0.49420 0.93700 0.80620 -0.09000
C 	C 	0.74110 0.47370 0.93640 0.07900
C 	C 	0.80620 0.49420 0.93700 -0.12700
C 	C 	0.46270 0.52630 0.26740 0.07600
C 	C 	0.44280 0.50580 0.31200 -0.13300
C 	C 	0.25890 0.19530 0.73260 0.07500
C 	C 	0.19380 0.13080 0.68800 -0.13300
C 	C 	0.53730 0.80470 0.06360 0.07500
C 	C 	0.55720 0.86920 0.06300 -0.13000
C 	C 	0.53730 0.73260 0.47370 0.07600
C 	C 	0.55720 0.68800 0.49420 -0.13300
C 	C 	0.25890 0.06360 0.52630 0.07500
C 	C 	0.19380 0.06300 0.50580 -0.13100
C 	C 	0.46270 0.93640 0.19530 0.08300
C 	C 	0.44280 0.93700 0.13080 -0.12400
C 	C 	0.74110 0.26740 0.80470 0.07500
C 	C 	0.80620 0.31200 0.86920 -0.13200
C 	C 	0.93640 0.19530 0.46270 0.07900
C 	C 	0.93700 0.13080 0.44280 -0.12800
C 	C 	0.26740 0.80470 0.74110 0.07500
C 	C 	0.31200 0.86920 0.80620 -0.13000
C 	C 	0.73260 0.47370 0.53730 0.07600
C 	C 	0.68800 0.49420 0.55720 -0.13300
C 	C 	0.06360 0.52630 0.25890 0.07600
C 	C 	0.06300 0.50580 0.19380 -0.13200
C 	C 	0.52630 0.25890 0.06360 0.07500
C 	C 	0.50580 0.19380 0.06300 -0.13200
C 	C 	0.47370 0.53730 0.73260 0.07600
C 	C 	0.49420 0.55720 0.68800 -0.13300
C 	C 	0.80470 0.74110 0.26740 0.07500
C 	C 	0.86920 0.80620 0.31200 -0.13100
C 	C 	0.19530 0.46270 0.93640 0.07900
C 	C 	0.13080 0.44280 0.93700 -0.12800
C 	C 	0.66540 0.53540 0.53540 0.06800
C 	C 	0.61360 0.55450 0.55450 0.10100
C 	C 	0.79940 0.47290 0.47290 0.38700
C 	C 	0.75680 0.49760 0.49760 -0.16600
C 	C 	-0.00000 0.13000 0.46460 0.06200
C 	C 	-0.00000 0.05910 0.44550 0.09700
C 	C 	-0.00000 0.32650 0.52710 0.38300
C 	C 	-0.00000 0.25920 0.50240 -0.17000
C 	C 	-0.00000 0.46460 0.13000 0.06200
C 	C 	0.00000 0.44550 0.05910 0.09700
C 	C 	-0.00000 0.52710 0.32650 0.38300
C 	C 	-0.00000 0.50240 0.25920 -0.17000
C 	C 	0.33460 0.87000 0.87000 0.06500
C 	C 	0.38640 0.94090 0.94090 0.11200
C 	C 	0.20060 0.67350 0.67350 0.38700
C 	C 	0.24320 0.74080 0.74080 -0.16500
C 	C 	0.13000 0.00000 0.46460 0.05800
C 	C 	0.05910 -0.00000 0.44550 0.09500
C 	C 	0.32650 -0.00000 0.52710 0.38000
C 	C 	0.25920 0.00000 0.50240 -0.17300
C 	C 	0.87000 0.33460 0.87000 0.06600
C 	C 	0.94090 0.38640 0.94090 0.10800
C 	C 	0.67350 0.20060 0.67350 0.38700
C 	C 	0.74080 0.24320 0.74080 -0.16600
C 	C 	0.53540 0.66540 0.53540 0.06800
C 	C 	0.55450 0.61360 0.55450 0.10100
C 	C 	0.47290 0.79940 0.47290 0.38800
C 	C 	0.49760 0.75680 0.49760 -0.16600
C 	C 	0.46460 0.00000 0.13000 0.05800
C 	C 	0.44550 0.00000 0.05910 0.09500
C 	C 	0.52710 -0.00000 0.32650 0.38000
C 	C 	0.50240 0.00000 0.25920 -0.17300
C 	C 	0.13000 0.46460 -0.00000 0.06200
C 	C 	0.05910 0.44550 -0.00000 0.09700
C 	C 	0.32650 0.52710 -0.00000 0.38300
C 	C 	0.25920 0.50240 -0.00000 -0.17000
C 	C 	0.53540 0.53540 0.66540 0.06800
C 	C 	0.55450 0.55450 0.61360 0.10100
C 	C 	0.47290 0.47290 0.79940 0.38700
C 	C 	0.49760 0.49760 0.75680 -0.16600
C 	C 	0.87000 0.87000 0.33460 0.06500
C 	C 	0.94090 0.94090 0.38640 0.11200
C 	C 	0.67350 0.67350 0.20060 0.38700
C 	C 	0.74080 0.74080 0.24320 -0.16500
C 	C 	0.46460 0.13000 -0.00000 0.06200
C 	C 	0.44550 0.05910 -0.00000 0.09700
C 	C 	0.52710 0.32650 -0.00000 0.38300
C 	C 	0.50240 0.25920 -0.00000 -0.17000
C 	C 	0.46460 0.33460 0.46460 0.06700
C 	C 	0.44550 0.38640 0.44550 0.10000
C 	C 	0.52710 0.20060 0.52710 0.38700
C 	C 	0.50240 0.24320 0.50240 -0.16700
C 	C 	0.87000 0.00000 0.53540 0.05700
C 	C 	0.94090 0.00000 0.55450 0.09900
C 	C 	0.67350 0.00000 0.47290 0.38000
C 	C 	0.74080 -0.00000 0.49760 -0.17300
C 	C 	0.53540 0.00000 0.87000 0.03300
C 	C 	0.55450 0.00000 0.94090 0.10600
C 	C 	0.47290 0.00000 0.67350 0.35500
C 	C 	0.49760 1.00000 0.74080 -0.11700
C 	C 	0.13000 0.66540 0.13000 0.06700
C 	C 	0.05910 0.61360 0.05910 0.09900
C 	C 	0.32650 0.79940 0.32650 0.38700
C 	C 	0.25920 0.75680 0.25920 -0.16600
C 	C 	0.00000 0.87000 0.53540 0.06100
C 	C 	0.00000 0.94090 0.55450 0.10500
C 	C 	-0.00000 0.67350 0.47290 0.38300
C 	C 	-0.00000 0.74080 0.49760 -0.16900
C 	C 	0.66540 0.13000 0.13000 0.06700
C 	C 	0.61360 0.05910 0.05910 0.09900
C 	C 	0.79940 0.32650 0.32650 0.38700
C 	C 	0.75680 0.25920 0.25920 -0.16600
C 	C 	0.33460 0.46460 0.46460 0.06700
C 	C 	0.38640 0.44550 0.44550 0.10000
C 	C 	0.20060 0.52710 0.52710 0.38700
C 	C 	0.24320 0.50240 0.50240 -0.16700
C 	C 	0.00000 0.53540 0.87000 0.06200
C 	C 	-0.00000 0.55450 0.94090 0.10200
C 	C 	-0.00000 0.47290 0.67350 0.38300
C 	C 	-0.00000 0.49760 0.74080 -0.16900
C 	C 	0.53540 0.87000 -0.00000 0.06100
C 	C 	0.55450 0.94090 -0.00000 0.10500
C 	C 	0.47290 0.67350 -0.00000 0.38300
C 	C 	0.49760 0.74080 -0.00000 -0.16900
C 	C 	0.46460 0.46460 0.33460 0.06700
C 	C 	0.44550 0.44550 0.38640 0.10000
C 	C 	0.52710 0.52710 0.20060 0.38700
C 	C 	0.50240 0.50240 0.24320 -0.16700
C 	C 	0.13000 0.13000 0.66540 0.06600
C 	C 	0.05910 0.05910 0.61360 0.09900
C 	C 	0.32650 0.32650 0.79940 0.38700
C 	C 	0.25920 0.25920 0.75680 -0.16600
C 	C 	0.87000 0.53540 -0.00000 0.06200
C 	C 	0.94090 0.55450 -0.00000 0.10200
C 	C 	0.67350 0.47290 -0.00000 0.38300
C 	C 	0.74080 0.49760 -0.00000 -0.16900
N 	N 	0.59860 0.59860 0.53400 -0.14100
N 	N 	0.06460 0.06460 0.46600 -0.14100
N 	N 	0.93540 0.40140 -0.00000 -0.14200
N 	N 	0.40140 0.93540 -0.00000 -0.14100
N 	N 	-0.00000 0.93540 0.40140 -0.14100
N 	N 	-0.00000 0.40140 0.93540 -0.14200
N 	N 	0.53400 0.59860 0.59860 -0.14100
N 	N 	0.46600 0.06460 0.06460 -0.14100
N 	N 	0.06460 0.46600 0.06460 -0.14100
N 	N 	0.59860 0.53400 0.59860 -0.14100
N 	N 	0.93540 -0.00000 0.40140 -0.14500
N 	N 	0.40140 -0.00000 0.93540 -0.14500
N 	N 	0.40140 0.40140 0.46600 -0.14100
N 	N 	0.93540 0.93540 0.53400 -0.13600
N 	N 	0.59860 0.06460 -0.00000 -0.14400
N 	N 	0.06460 0.59860 -0.00000 -0.14300
N 	N 	0.06460 -0.00000 0.59860 -0.14600
N 	N 	0.59860 0.00000 0.06460 -0.14600
N 	N 	0.40140 0.46600 0.40140 -0.14100
N 	N 	0.93540 0.53400 0.93540 -0.13800
N 	N 	0.53400 0.93540 0.93540 -0.13700
N 	N 	0.46600 0.40140 0.40140 -0.14100
N 	N 	0.00000 0.06460 0.59860 -0.14300
N 	N 	0.00000 0.59860 0.06460 -0.14300
O 	O 	0.81790 0.49520 0.43350 -0.48600
O 	O 	0.06170 0.38440 0.56650 -0.48600
O 	O 	0.93830 0.50480 0.32270 -0.48300
O 	O 	0.18210 0.61560 0.67730 -0.48600
O 	O 	0.32270 0.93830 0.50480 -0.48000
O 	O 	0.67730 0.18210 0.61560 -0.48700
O 	O 	0.43350 0.81790 0.49520 -0.48600
O 	O 	0.56650 0.06170 0.38440 -0.48600
O 	O 	0.38440 0.56650 0.06170 -0.48600
O 	O 	0.49520 0.43350 0.81790 -0.48600
O 	O 	0.61560 0.67730 0.18210 -0.48600
O 	O 	0.50480 0.32270 0.93830 -0.48300
O 	O 	0.50480 0.18210 0.56650 -0.48700
O 	O 	0.61560 0.93830 0.43350 -0.47900
O 	O 	0.49520 0.06170 0.67730 -0.48100
O 	O 	0.38440 0.81790 0.32270 -0.48600
O 	O 	0.06170 0.67730 0.49520 -0.48600
O 	O 	0.81790 0.32270 0.38440 -0.48600
O 	O 	0.18210 0.56650 0.50480 -0.48700
O 	O 	0.93830 0.43350 0.61560 -0.48300
O 	O 	0.43350 0.61560 0.93830 -0.48300
O 	O 	0.56650 0.50480 0.18210 -0.48700
O 	O 	0.32270 0.38440 0.81790 -0.48600
O 	O 	0.67730 0.49520 0.06170 -0.48600
O 	O 	0.18210 0.50480 0.56650 -0.48700
O 	O 	0.93830 0.61560 0.43350 -0.48300
O 	O 	0.06170 0.49520 0.67730 -0.48600
O 	O 	0.81790 0.38440 0.32270 -0.48600
O 	O 	0.67730 0.06170 0.49520 -0.48600
O 	O 	0.32270 0.81790 0.38440 -0.48600
O 	O 	0.56650 0.18210 0.50480 -0.48700
O 	O 	0.43350 0.93830 0.61560 -0.47400
O 	O 	0.61560 0.43350 0.93830 -0.48300
O 	O 	0.50480 0.56650 0.18210 -0.48700
O 	O 	0.38440 0.32270 0.81790 -0.48600
O 	O 	0.49520 0.67730 0.06170 -0.48600
O 	O 	0.49520 0.81790 0.43350 -0.48600
O 	O 	0.38440 0.06170 0.56650 -0.48600
O 	O 	0.50480 0.93830 0.32270 -0.48000
O 	O 	0.61560 0.18210 0.67730 -0.48700
O 	O 	0.93830 0.32270 0.50480 -0.48300
O 	O 	0.18210 0.67730 0.61560 -0.48600
O 	O 	0.81790 0.43350 0.49520 -0.48600
O 	O 	0.06170 0.56650 0.38440 -0.48600
O 	O 	0.56650 0.38440 0.06170 -0.48600
O 	O 	0.43350 0.49520 0.81790 -0.48600
O 	O 	0.67730 0.61560 0.18210 -0.48600
O 	O 	0.32270 0.50480 0.93830 -0.48300
O 	O 	-0.00000 0.50000 0.50000 -0.66500
O 	O 	0.50000 0.00000 0.50000 -0.66700
O 	O 	0.50000 0.50000 -0.00000 -0.66500
