data_crystal

_cell_length_a 18.65800
_cell_length_b 18.65800
_cell_length_c 14.84000
_cell_angle_alpha 90.00000
_cell_angle_beta  90.00000
_cell_angle_gamma 120.00000

_symmetry_space_group_name_	'P 1'
_symmetry_space_group_name_H-M	'P 1'

loop_
_symmetry_equiv_pos_as_xyz
  x,y,z

loop_
_atom_site_label
_atom_site_type_symbol
_atom_site_fract_x
_atom_site_fract_y
_atom_site_fract_z
_atom_site_charge
N 	N 	0.34440 0.57340 0.08680 -0.23800
O 	O 	0.42070 0.50580 0.08210 -0.24800
O 	O 	0.49320 0.59070 0.93040 -0.24500
O 	O 	0.41990 0.65390 0.93630 -0.31600
C 	C 	0.30440 0.53510 0.16820 0.07800
C 	C 	0.22320 0.47000 0.16930 -0.04300
C 	C 	0.39800 0.55650 0.05300 0.06100
C 	C 	0.43840 0.60350 0.96580 0.29200
N 	N 	0.42660 0.77100 0.08680 -0.23700
O 	O 	0.49420 0.91490 0.08210 -0.22800
O 	O 	0.40930 0.90250 0.93040 -0.23200
O 	O 	0.34610 0.76600 0.93630 -0.31700
C 	C 	0.46490 0.76930 0.16820 0.07800
C 	C 	0.53000 0.75320 0.16930 -0.03000
C 	C 	0.44350 0.84150 0.05300 0.06300
C 	C 	0.39650 0.83490 0.96580 0.29400
N 	N 	0.22900 0.65560 0.08680 -0.23800
O 	O 	0.08510 0.57930 0.08210 -0.26000
O 	O 	0.09750 0.50680 0.93040 -0.26300
O 	O 	0.23400 0.58010 0.93630 -0.32300
C 	C 	0.23070 0.69560 0.16820 0.07700
C 	C 	0.24680 0.77680 0.16930 -0.03700
C 	C 	0.15850 0.60200 0.05300 0.05900
C 	C 	0.16510 0.56160 0.96580 0.29400
N 	N 	0.65560 0.42660 0.58680 -0.23700
O 	O 	0.57930 0.49420 0.58210 -0.23800
O 	O 	0.50680 0.40930 0.43040 -0.26000
O 	O 	0.58010 0.34610 0.43630 -0.33200
C 	C 	0.69560 0.46490 0.66820 0.07800
C 	C 	0.77680 0.53000 0.66930 -0.01800
C 	C 	0.60200 0.44350 0.55300 0.10900
C 	C 	0.56160 0.39650 0.46580 0.24300
N 	N 	0.57340 0.22900 0.58680 -0.23900
O 	O 	0.50580 0.08510 0.58210 -0.25600
O 	O 	0.59070 0.09750 0.43040 -0.27100
O 	O 	0.65390 0.23400 0.43630 -0.33100
C 	C 	0.53510 0.23070 0.66820 0.07700
C 	C 	0.47000 0.24680 0.66930 -0.03100
C 	C 	0.55650 0.15850 0.55300 0.10700
C 	C 	0.60350 0.16510 0.46580 0.24100
N 	N 	0.77100 0.34440 0.58680 -0.23700
O 	O 	0.91490 0.42070 0.58210 -0.22500
O 	O 	0.90250 0.49320 0.43040 -0.23900
O 	O 	0.76600 0.41990 0.43630 -0.32600
C 	C 	0.76930 0.30440 0.66820 0.07900
C 	C 	0.75320 0.22320 0.66930 -0.02500
C 	C 	0.84150 0.39800 0.55300 0.11000
C 	C 	0.83490 0.43840 0.46580 0.24200
N 	N 	0.65560 0.42660 0.91320 -0.23600
O 	O 	0.57930 0.49420 0.91790 -0.23300
O 	O 	0.50680 0.40930 0.06960 -0.26300
O 	O 	0.58010 0.34610 0.06370 -0.33900
C 	C 	0.69560 0.46490 0.83180 0.07800
C 	C 	0.77680 0.53000 0.83070 -0.00800
C 	C 	0.60200 0.44350 0.94700 0.15700
C 	C 	0.56160 0.39650 0.03420 0.19400
N 	N 	0.57340 0.22900 0.91320 -0.23900
O 	O 	0.50580 0.08510 0.91790 -0.25100
O 	O 	0.59070 0.09750 0.06960 -0.27400
O 	O 	0.65390 0.23400 0.06370 -0.33700
C 	C 	0.53510 0.23070 0.83180 0.07800
C 	C 	0.47000 0.24680 0.83070 -0.02000
C 	C 	0.55650 0.15850 0.94700 0.15400
C 	C 	0.60350 0.16510 0.03420 0.19300
N 	N 	0.77100 0.34440 0.91320 -0.23700
O 	O 	0.91490 0.42070 0.91790 -0.22100
O 	O 	0.90250 0.49320 0.06960 -0.24200
O 	O 	0.76600 0.41990 0.06370 -0.33200
C 	C 	0.76930 0.30440 0.83180 0.07900
C 	C 	0.75320 0.22320 0.83070 -0.01400
C 	C 	0.84150 0.39800 0.94700 0.15600
C 	C 	0.83490 0.43840 0.03420 0.19400
N 	N 	0.34440 0.57340 0.41320 -0.23900
O 	O 	0.42070 0.50580 0.41790 -0.24500
O 	O 	0.49320 0.59070 0.56960 -0.25000
O 	O 	0.41990 0.65390 0.56370 -0.32300
C 	C 	0.30440 0.53510 0.33180 0.07800
C 	C 	0.22320 0.47000 0.33070 -0.03300
C 	C 	0.39800 0.55650 0.44700 0.10900
C 	C 	0.43840 0.60350 0.53420 0.24100
N 	N 	0.42660 0.77100 0.41320 -0.23600
O 	O 	0.49420 0.91490 0.41790 -0.22500
O 	O 	0.40930 0.90250 0.56960 -0.23700
O 	O 	0.34610 0.76600 0.56370 -0.32400
C 	C 	0.46490 0.76930 0.33180 0.07900
C 	C 	0.53000 0.75320 0.33070 -0.02000
C 	C 	0.44350 0.84150 0.44700 0.11100
C 	C 	0.39650 0.83490 0.53420 0.24300
N 	N 	0.22900 0.65560 0.41320 -0.23800
O 	O 	0.08510 0.57930 0.41790 -0.25600
O 	O 	0.09750 0.50680 0.56960 -0.26900
O 	O 	0.23400 0.58010 0.56370 -0.33000
C 	C 	0.23070 0.69560 0.33180 0.07800
C 	C 	0.24680 0.77680 0.33070 -0.02700
C 	C 	0.15850 0.60200 0.44700 0.10800
C 	C 	0.16510 0.56160 0.53420 0.24200
Co	Co	0.33333 0.66667 0.01918 1.13300
Co	Co	0.66667 0.33333 0.51918 1.15500
Co	Co	0.66667 0.33333 0.98082 1.17600
Co	Co	0.33333 0.66667 0.48082 1.15500
Li	Li	0.50000 0.50000 -0.00000 0.55200
Li	Li	0.50000 0.00000 -0.00000 0.54900
Li	Li	-0.00000 0.50000 -0.00000 0.54800
Li	Li	0.50000 0.50000 0.50000 0.55700
Li	Li	0.50000 0.00000 0.50000 0.55300
Li	Li	0.00000 0.50000 0.50000 0.55300
C 	C 	0.34650 0.56660 0.25000 -0.04900
C 	C 	0.18430 0.43870 0.25000 0.02300
C 	C 	0.43340 0.77990 0.25000 -0.04500
C 	C 	0.56130 0.74560 0.25000 0.04000
C 	C 	0.22010 0.65350 0.25000 -0.05200
C 	C 	0.25440 0.81570 0.25000 0.03800
C 	C 	0.65350 0.43340 0.75000 -0.04600
C 	C 	0.81570 0.56130 0.75000 0.05000
C 	C 	0.56660 0.22010 0.75000 -0.05000
C 	C 	0.43870 0.25440 0.75000 0.03300
C 	C 	0.77990 0.34650 0.75000 -0.04400
C 	C 	0.74560 0.18430 0.75000 0.03500
