data_crystal

_cell_length_a 11.12900
_cell_length_b 13.98800
_cell_length_c 16.14100
_cell_angle_alpha 82.89500
_cell_angle_beta  88.39200
_cell_angle_gamma 66.71800

_symmetry_space_group_name_	'P 1'
_symmetry_space_group_name_H-M	'P 1'

loop_
_symmetry_equiv_pos_as_xyz
  x,y,z

loop_
_atom_site_label
_atom_site_type_symbol
_atom_site_fract_x
_atom_site_fract_y
_atom_site_fract_z
_atom_site_charge
Zn	Zn	0.98742 0.48622 0.76027 1.19400
Zn	Zn	0.22621 0.86977 0.08299 1.23600
C 	C 	0.22570 0.31200 0.68520 0.02800
H 	H 	0.24150 0.25890 0.72940 0.02400
C 	C 	0.29580 0.30430 0.61310 -0.01100
H 	H 	0.36660 0.24590 0.59930 0.04400
C 	C 	0.13810 0.46370 0.60870 0.06000
C 	C 	0.04450 0.57060 0.58640 0.05400
C 	C 	0.03460 0.63440 0.51150 -0.11400
H 	H 	0.09410 0.61050 0.46950 0.07700
C 	C 	0.93740 0.73200 0.50010 0.04900
H 	H 	0.93010 0.77490 0.45000 0.02100
C 	C 	0.84900 0.76790 0.56290 -0.13600
H 	H 	0.78220 0.83450 0.55620 0.08100
C 	C 	0.86400 0.70100 0.63530 0.07500
H 	H 	0.80560 0.72400 0.67800 -0.00400
C 	C 	0.29670 0.42100 0.48480 -0.13200
H 	H 	0.22700 0.47150 0.44810 0.07400
H 	H 	0.33430 0.35690 0.45900 0.07600
C 	C 	0.40130 0.46350 0.49370 0.07300
C 	C 	0.38310 0.56190 0.46010 -0.07100
H 	H 	0.30420 0.60490 0.43280 0.07100
C 	C 	0.51920 0.40060 0.53420 -0.05800
H 	H 	0.53320 0.33280 0.55770 0.06700
C 	C 	0.40400 0.58430 0.95730 -0.06800
H 	H 	0.33920 0.64190 0.92740 0.06500
C 	C 	0.53410 0.56780 0.94440 -0.07400
H 	H 	0.55550 0.61450 0.90700 0.06300
C 	C 	0.36790 0.51830 0.01260 0.07900
C 	C 	0.22470 0.54190 0.02990 -0.15000
H 	H 	0.21790 0.48090 0.06200 0.08000
H 	H 	0.19110 0.59940 0.06350 0.09900
C 	C 	0.08090 0.67150 0.91650 -0.03200
H 	H 	0.08070 0.73140 0.93590 0.06800
C 	C 	0.02020 0.66760 0.84720 0.04500
H 	H 	0.97180 0.72520 0.80950 0.01100
C 	C 	0.11630 0.50700 0.90650 0.05900
C 	C 	0.14470 0.39460 0.92010 0.05100
C 	C 	0.23110 0.32030 0.97960 -0.11300
H 	H 	0.28190 0.33930 0.01370 0.07200
C 	C 	0.24030 0.21950 0.98730 0.06000
H 	H 	0.29970 0.16910 0.02570 0.01800
C 	C 	0.16350 0.19160 0.93920 -0.13500
H 	H 	0.16520 0.12410 0.94650 0.10700
C 	C 	0.08230 0.26830 0.87890 0.08600
H 	H 	0.03180 0.24990 0.84410 0.01600
C 	C 	0.23130 0.87990 0.90340 0.38000
C 	C 	0.96310 0.99830 0.83990 0.62000
C 	C 	0.26990 0.79170 0.77770 -0.26000
H 	H 	0.35560 0.75710 0.79790 0.13200
C 	C 	0.18090 0.86300 0.82130 0.11300
C 	C 	0.05680 0.91510 0.79260 -0.26100
C 	C 	0.02130 0.89570 0.71740 0.21800
H 	H 	0.93580 0.93260 0.69730 -0.04100
C 	C 	0.10960 0.82240 0.67050 -0.31600
H 	H 	0.08490 0.80990 0.61970 0.15800
C 	C 	0.23410 0.76960 0.70260 0.30800
C 	C 	0.40530 0.60250 0.70040 0.27900
C 	C 	0.53640 0.57910 0.70620 -0.23000
H 	H 	0.56830 0.62940 0.68540 0.12400
C 	C 	0.62290 0.48120 0.74270 0.08100
C 	C 	0.76520 0.46050 0.74130 0.27200
C 	C 	0.57320 0.40700 0.77500 -0.19500
C 	C 	0.65940 0.30190 0.82040 0.54000
C 	C 	0.43670 0.43580 0.76990 0.16800
H 	H 	0.40220 0.38800 0.79260 -0.01000
C 	C 	0.35430 0.53100 0.73300 -0.27500
H 	H 	0.26480 0.54780 0.72970 0.12400
N 	N 	0.24060 0.39920 0.56590 -0.09400
N 	N 	0.13010 0.40940 0.68150 -0.25400
N 	N 	0.95910 0.60390 0.64780 -0.23300
N 	N 	0.04030 0.56610 0.84040 -0.25600
N 	N 	0.14360 0.56950 0.95360 -0.08800
N 	N 	0.07400 0.36610 0.86880 -0.23300
O 	O 	0.18160 0.85810 0.96820 -0.44900
O 	O 	0.35970 0.88000 0.90590 -0.16400
O 	O 	0.25920 0.95040 0.89200 -0.23300
O 	O 	0.99220 0.06250 0.86980 -0.41000
O 	O 	0.87380 0.99960 0.86490 -0.58200
O 	O 	0.75500 0.28650 0.85650 -0.44900
O 	O 	0.61550 0.24240 0.85540 -0.42900
O 	O 	0.64270 0.21680 0.77440 -0.18200
O 	O 	0.84350 0.39030 0.70420 -0.31200
O 	O 	0.79700 0.52510 0.77460 -0.44000
O 	O 	0.32430 0.69900 0.65590 -0.30400
Zn	Zn	0.01258 0.51378 0.23973 1.19300
Zn	Zn	0.77379 0.13023 0.91701 1.23500
C 	C 	0.77430 0.68800 0.31480 0.02700
H 	H 	0.75850 0.74110 0.27060 0.02300
C 	C 	0.70420 0.69570 0.38690 -0.01100
H 	H 	0.63340 0.75410 0.40070 0.04400
C 	C 	0.86190 0.53630 0.39130 0.06000
C 	C 	0.95550 0.42940 0.41360 0.05400
C 	C 	0.96540 0.36560 0.48850 -0.11400
H 	H 	0.90590 0.38950 0.53050 0.07700
C 	C 	0.06260 0.26800 0.49990 0.04900
H 	H 	0.06990 0.22510 0.55000 0.02100
C 	C 	0.15100 0.23210 0.43710 -0.13600
H 	H 	0.21780 0.16550 0.44380 0.08100
C 	C 	0.13600 0.29900 0.36470 0.07500
H 	H 	0.19440 0.27600 0.32200 -0.00400
C 	C 	0.70330 0.57900 0.51520 -0.13200
H 	H 	0.77300 0.52850 0.55190 0.07400
H 	H 	0.66570 0.64310 0.54100 0.07600
C 	C 	0.59870 0.53650 0.50630 0.07300
C 	C 	0.61690 0.43810 0.53990 -0.07100
H 	H 	0.69580 0.39510 0.56720 0.07100
C 	C 	0.48080 0.59940 0.46580 -0.05800
H 	H 	0.46680 0.66720 0.44230 0.06700
C 	C 	0.59600 0.41570 0.04270 -0.06800
H 	H 	0.66080 0.35810 0.07260 0.06500
C 	C 	0.46590 0.43220 0.05560 -0.07400
H 	H 	0.44450 0.38550 0.09300 0.06300
C 	C 	0.63210 0.48170 0.98740 0.07900
C 	C 	0.77530 0.45810 0.97010 -0.15000
H 	H 	0.78210 0.51910 0.93800 0.08000
H 	H 	0.80890 0.40060 0.93650 0.09900
C 	C 	0.91910 0.32850 0.08350 -0.03200
H 	H 	0.91930 0.26860 0.06410 0.06800
C 	C 	0.97980 0.33240 0.15280 0.04500
H 	H 	0.02820 0.27480 0.19050 0.01100
C 	C 	0.88370 0.49300 0.09350 0.05900
C 	C 	0.85530 0.60540 0.07990 0.05100
C 	C 	0.76890 0.67970 0.02040 -0.11300
H 	H 	0.71810 0.66070 0.98630 0.07200
C 	C 	0.75970 0.78050 0.01270 0.06000
H 	H 	0.70030 0.83090 0.97430 0.01800
C 	C 	0.83650 0.80840 0.06080 -0.13500
H 	H 	0.83480 0.87590 0.05350 0.10700
C 	C 	0.91770 0.73170 0.12110 0.08600
H 	H 	0.96820 0.75010 0.15590 0.01600
C 	C 	0.76870 0.12010 0.09660 0.38000
C 	C 	0.03690 0.00170 0.16010 0.62000
C 	C 	0.73010 0.20830 0.22230 -0.26000
H 	H 	0.64440 0.24290 0.20210 0.13200
C 	C 	0.81910 0.13700 0.17870 0.11300
C 	C 	0.94320 0.08490 0.20740 -0.26100
C 	C 	0.97870 0.10430 0.28260 0.21800
H 	H 	0.06420 0.06740 0.30270 -0.04100
C 	C 	0.89040 0.17760 0.32950 -0.31600
H 	H 	0.91510 0.19010 0.38030 0.15800
C 	C 	0.76590 0.23040 0.29740 0.30800
C 	C 	0.59470 0.39750 0.29960 0.27900
C 	C 	0.46360 0.42090 0.29380 -0.23000
H 	H 	0.43170 0.37060 0.31460 0.12400
C 	C 	0.37710 0.51880 0.25730 0.08100
C 	C 	0.23480 0.53950 0.25870 0.27200
C 	C 	0.42680 0.59300 0.22500 -0.19500
C 	C 	0.34060 0.69810 0.17960 0.54000
C 	C 	0.56330 0.56420 0.23010 0.16800
H 	H 	0.59780 0.61200 0.20740 -0.01000
C 	C 	0.64570 0.46900 0.26700 -0.27500
H 	H 	0.73520 0.45220 0.27030 0.12400
N 	N 	0.75940 0.60080 0.43410 -0.09400
N 	N 	0.86990 0.59060 0.31850 -0.25400
N 	N 	0.04090 0.39610 0.35220 -0.23300
N 	N 	0.95970 0.43390 0.15960 -0.25600
N 	N 	0.85640 0.43050 0.04640 -0.08800
N 	N 	0.92600 0.63390 0.13120 -0.23300
O 	O 	0.81840 0.14190 0.03180 -0.44900
O 	O 	0.64030 0.12000 0.09410 -0.16400
O 	O 	0.74080 0.04960 0.10800 -0.23300
O 	O 	0.00780 0.93750 0.13020 -0.41000
O 	O 	0.12620 0.00040 0.13510 -0.58200
O 	O 	0.24500 0.71350 0.14350 -0.44900
O 	O 	0.38450 0.75760 0.14460 -0.42900
O 	O 	0.35730 0.78320 0.22560 -0.18200
O 	O 	0.15650 0.60970 0.29580 -0.31200
O 	O 	0.20300 0.47490 0.22540 -0.44000
O 	O 	0.67570 0.30100 0.34410 -0.30400
