data_crystal

_cell_length_a 9.23550
_cell_length_b 11.27800
_cell_length_c 18.64000
_cell_angle_alpha 93.94800
_cell_angle_beta  98.27300
_cell_angle_gamma 109.09000

_symmetry_space_group_name_	'P 1'
_symmetry_space_group_name_H-M	'P 1'

loop_
_symmetry_equiv_pos_as_xyz
  x,y,z

loop_
_atom_site_label
_atom_site_type_symbol
_atom_site_fract_x
_atom_site_fract_y
_atom_site_fract_z
_atom_site_charge
U 	U 	0.59184 0.45743 0.31343 0.00100
U 	U 	0.65801 0.97687 0.30952 -0.00900
U 	U 	0.34199 0.02313 0.69048 -0.00900
U 	U 	0.40816 0.54257 0.68657 0.00100
Cu	Cu	0.86876 0.04595 0.61779 0.90500
Cu	Cu	0.13124 0.95405 0.38221 0.90500
P 	P 	0.64600 0.86794 0.71395 0.40200
P 	P 	0.87940 0.30453 0.28546 0.38100
P 	P 	0.34920 0.66427 0.28874 0.38100
P 	P 	0.12060 0.69547 0.71454 0.38100
P 	P 	0.65080 0.33573 0.71126 0.38100
P 	P 	0.12440 0.23227 0.71886 0.38300
P 	P 	0.35400 0.13206 0.28605 0.40200
P 	P 	0.87560 0.76773 0.28114 0.38300
H 	H 	0.75430 0.17770 0.80230 0.05300
H 	H 	0.07680 0.49610 0.80400 0.06500
H 	H 	0.11970 0.48450 0.92830 0.06200
H 	H 	0.73170 0.49630 0.96370 0.05800
H 	H 	0.84950 0.77180 0.80110 0.05600
H 	H 	0.60260 0.64280 0.03390 0.06300
H 	H 	0.80770 0.17110 0.92500 0.06000
H 	H 	0.32890 0.49860 0.16080 0.05500
H 	H 	0.20870 0.25510 0.39890 0.03400
H 	H 	0.89950 0.74470 0.92160 0.06700
H 	H 	0.92320 0.50390 0.19600 0.06500
H 	H 	0.86160 0.60530 0.52860 0.12400
H 	H 	0.10050 0.25530 0.07840 0.06700
H 	H 	0.99710 0.31970 0.56110 0.02400
H 	H 	0.00290 0.68030 0.43890 0.02400
H 	H 	0.88030 0.51550 0.07170 0.06200
H 	H 	0.41290 0.10150 0.03470 0.06200
H 	H 	0.73640 0.13790 0.03260 0.05500
H 	H 	0.01610 0.93970 0.18670 0.04200
H 	H 	0.98390 0.06030 0.81330 0.04200
H 	H 	0.34730 0.38000 0.84340 0.05100
H 	H 	0.26830 0.50370 0.03630 0.05800
H 	H 	0.39740 0.35720 0.96610 0.06300
H 	H 	0.79130 0.74490 0.60110 0.03400
H 	H 	0.67110 0.50140 0.83920 0.05500
H 	H 	0.13840 0.39470 0.47140 0.12400
H 	H 	0.24570 0.82230 0.19770 0.05300
H 	H 	0.53880 0.93090 0.84460 0.05100
H 	H 	0.15050 0.22820 0.19890 0.05600
H 	H 	0.19230 0.82890 0.07500 0.06000
H 	H 	0.97400 0.95650 0.06500 0.06500
H 	H 	0.22000 0.87430 0.84280 0.05500
H 	H 	0.78000 0.12570 0.15720 0.05500
H 	H 	0.65270 0.62000 0.15660 0.05100
H 	H 	0.58710 0.89850 0.96530 0.06200
H 	H 	0.26360 0.86210 0.96740 0.05500
H 	H 	0.46120 0.06910 0.15540 0.05100
H 	H 	0.02600 0.04350 0.93500 0.06500
C 	C 	0.71820 0.68830 0.13830 0.00200
C 	C 	0.30270 0.56570 0.14370 -0.01000
C 	C 	0.74610 0.24090 0.83450 -0.00000
C 	C 	0.31040 0.14480 0.19050 -0.05000
C 	C 	0.20170 0.79590 0.85970 -0.01700
C 	C 	0.15540 0.22530 0.81530 -0.05400
C 	C 	0.06530 0.12280 0.84410 0.00900
C 	C 	0.93470 0.87720 0.15590 0.00900
C 	C 	0.85030 0.31310 0.18920 -0.03900
C 	C 	0.68960 0.85520 0.80950 -0.05000
C 	C 	0.70050 0.33570 0.80720 -0.04300
C 	C 	0.25390 0.75910 0.16550 -0.00000
C 	C 	0.38850 0.10720 0.14040 -0.00300
C 	C 	0.02470 0.26430 0.53110 0.11700
C 	C 	0.97530 0.73570 0.46890 0.11700
C 	C 	0.29950 0.66430 0.19280 -0.04300
C 	C 	0.14960 0.22560 0.43450 0.11700
C 	C 	0.97560 0.93300 0.50410 0.08500
C 	C 	0.25150 0.18030 0.04310 0.03000
C 	C 	0.14970 0.68690 0.81080 -0.03900
C 	C 	0.14120 0.56320 0.91150 -0.07400
C 	C 	0.89080 0.69030 0.52200 -0.14400
C 	C 	0.80210 0.32800 0.03830 0.02300
C 	C 	0.35840 0.12630 0.06760 -0.08500
C 	C 	0.85040 0.77440 0.56550 0.11700
C 	C 	0.77980 0.23770 0.90810 -0.08100
C 	C 	0.82620 0.78200 0.90630 -0.08900
C 	C 	0.64160 0.87370 0.93240 -0.08500
C 	C 	0.68780 0.70220 0.06440 -0.08700
C 	C 	0.10920 0.30970 0.47800 -0.14400
C 	C 	0.74850 0.81970 0.95690 0.03000
C 	C 	0.19790 0.67200 0.96170 0.02300
C 	C 	0.61150 0.89280 0.85960 -0.00300
C 	C 	0.22700 0.66650 0.04120 0.02900
C 	C 	0.85880 0.43680 0.08850 -0.07400
C 	C 	0.17380 0.21800 0.09370 -0.08900
C 	C 	0.90700 0.88890 0.08320 -0.09300
C 	C 	0.77320 0.21190 0.06520 -0.07500
C 	C 	0.20330 0.20120 0.16590 0.00200
C 	C 	0.73390 0.43060 0.93130 -0.07900
C 	C 	0.11610 0.56990 0.83670 -0.01000
C 	C 	0.02440 0.06700 0.49590 0.08500
C 	C 	0.09300 0.11110 0.91680 -0.09300
C 	C 	0.21720 0.19670 0.96380 0.03200
C 	C 	0.31220 0.29780 0.93560 -0.08700
C 	C 	0.22680 0.78810 0.93480 -0.07500
C 	C 	0.28180 0.31170 0.86170 0.00200
C 	C 	0.79670 0.79880 0.83410 0.00200
C 	C 	0.88390 0.43010 0.16330 -0.01000
C 	C 	0.84460 0.77470 0.18470 -0.05400
C 	C 	0.78280 0.80330 0.03620 0.03200
C 	C 	0.77300 0.33350 0.95880 0.02900
C 	C 	0.22020 0.76230 0.09190 -0.08100
C 	C 	0.26610 0.56940 0.06870 -0.07900
C 	C 	0.69730 0.43430 0.85630 -0.01000
C 	C 	0.79830 0.20410 0.14030 -0.01700
N 	N 	0.98080 0.14020 0.54070 -0.21600
N 	N 	0.89450 0.89740 0.55740 -0.21100
N 	N 	0.10550 0.10260 0.44260 -0.21100
N 	N 	0.01920 0.85980 0.45930 -0.21600
O 	O 	0.78920 0.37310 0.32180 -0.17000
O 	O 	0.45500 0.79440 0.32260 -0.18600
O 	O 	0.19070 0.63290 0.32010 -0.16800
O 	O 	0.84230 0.16940 0.29950 -0.19000
O 	O 	0.20410 0.05650 0.30900 -0.36500
O 	O 	0.52280 0.93050 0.70330 -0.19700
O 	O 	0.79590 0.94350 0.69100 -0.36500
O 	O 	0.57940 0.73310 0.67280 -0.17900
O 	O 	0.15770 0.83060 0.70050 -0.19000
O 	O 	0.42060 0.26690 0.32720 -0.17900
O 	O 	0.22410 0.36140 0.70400 -0.17900
O 	O 	0.16740 0.12680 0.68190 -0.22900
O 	O 	0.77590 0.63860 0.29600 -0.17900
O 	O 	0.04900 0.79430 0.31020 -0.31900
O 	O 	0.80930 0.36710 0.67990 -0.16800
O 	O 	0.94230 0.62760 0.68360 -0.17700
O 	O 	0.54500 0.20560 0.67740 -0.18600
O 	O 	0.41150 0.55980 0.30450 -0.17300
O 	O 	0.47720 0.06950 0.29670 -0.19700
O 	O 	0.83260 0.87320 0.31810 -0.22900
O 	O 	0.95100 0.20570 0.68980 -0.31900
O 	O 	0.58850 0.44020 0.69550 -0.17300
O 	O 	0.05770 0.37240 0.31640 -0.17700
O 	O 	0.21080 0.62690 0.67820 -0.17000
