data_crystal

_cell_length_a 9.91490
_cell_length_b 18.60800
_cell_length_c 19.97900
_cell_angle_alpha 93.92600
_cell_angle_beta  90.00000
_cell_angle_gamma 90.00000

_symmetry_space_group_name_	'P 1'
_symmetry_space_group_name_H-M	'P 1'

loop_
_symmetry_equiv_pos_as_xyz
  x,y,z

loop_
_atom_site_label
_atom_site_type_symbol
_atom_site_fract_x
_atom_site_fract_y
_atom_site_fract_z
_atom_site_charge
U 	U 	0.03196 0.18582 0.70808 0.03300
U 	U 	0.53196 0.81418 0.79192 0.03200
U 	U 	0.86873 0.19034 0.25664 0.02900
U 	U 	0.96804 0.81418 0.29192 0.03300
U 	U 	0.36873 0.80966 0.24336 0.02900
U 	U 	0.13127 0.80966 0.74336 0.02900
U 	U 	0.46804 0.18582 0.20808 0.03200
U 	U 	0.63127 0.19034 0.75664 0.02900
Cu	Cu	0.87185 0.12667 0.98271 0.91700
Cu	Cu	0.62815 0.12667 0.48271 0.91800
Cu	Cu	0.37185 0.87333 0.51729 0.91800
Cu	Cu	0.12815 0.87333 0.01729 0.91700
P 	P 	0.40390 0.79416 0.95897 0.41500
P 	P 	0.37250 0.18916 0.62631 0.38400
P 	P 	0.79720 0.77198 0.65845 0.37000
P 	P 	0.09610 0.79416 0.45897 0.41400
P 	P 	0.16700 0.76337 0.12721 0.38600
P 	P 	0.83300 0.23663 0.87279 0.38600
P 	P 	0.20280 0.22802 0.34155 0.37000
P 	P 	0.62750 0.81084 0.37369 0.38400
P 	P 	0.12750 0.18916 0.12631 0.38400
P 	P 	0.90390 0.20584 0.54103 0.41400
P 	P 	0.70280 0.77198 0.15845 0.37000
P 	P 	0.87250 0.81084 0.87369 0.38400
P 	P 	0.33300 0.76337 0.62721 0.38600
P 	P 	0.59610 0.20584 0.04103 0.41500
P 	P 	0.66700 0.23663 0.37279 0.38600
P 	P 	0.29720 0.22802 0.84155 0.37000
H 	H 	0.64750 0.52850 0.62290 0.06000
H 	H 	0.08960 0.41380 0.02010 0.06100
H 	H 	0.26010 0.92590 0.88170 0.07400
H 	H 	0.31030 0.30520 0.71560 0.05700
H 	H 	0.54380 0.54790 0.95010 0.06100
H 	H 	0.78390 0.29410 0.11670 0.07600
H 	H 	0.07660 0.11350 0.86000 0.03900
H 	H 	0.27700 0.02560 0.31770 0.12300
H 	H 	0.07870 0.29020 0.02170 0.05500
H 	H 	0.45620 0.45210 0.04990 0.06100
H 	H 	0.41040 0.41380 0.52010 0.06100
H 	H 	0.86870 0.34270 0.77770 0.07000
H 	H 	0.45250 0.55270 0.11960 0.06300
H 	H 	0.17150 0.52570 0.01810 0.05800
H 	H 	0.87940 0.65000 0.14570 0.05400
H 	H 	0.19830 0.42760 0.21350 0.06400
H 	H 	0.76010 0.07410 0.61830 0.07400
H 	H 	0.37930 0.53220 0.71840 0.05900
H 	H 	0.19510 0.58580 0.85200 0.06300
H 	H 	0.32570 0.64980 0.52150 0.04600
H 	H 	0.82570 0.35020 0.97850 0.04500
H 	H 	0.57870 0.70980 0.47830 0.05400
H 	H 	0.97810 0.32460 0.36510 0.07000
H 	H 	0.80170 0.57240 0.78650 0.06400
H 	H 	0.17430 0.64980 0.02150 0.04500
H 	H 	0.37940 0.35000 0.35430 0.05400
H 	H 	0.81030 0.69480 0.78440 0.05700
H 	H 	0.04380 0.45210 0.54990 0.06200
H 	H 	0.95620 0.54790 0.45010 0.06200
H 	H 	0.12060 0.35000 0.85430 0.05400
H 	H 	0.87930 0.46780 0.78160 0.05900
H 	H 	0.95250 0.44730 0.38040 0.06300
H 	H 	0.92340 0.88650 0.14000 0.03900
H 	H 	0.30170 0.42760 0.71350 0.06400
H 	H 	0.72300 0.97440 0.68230 0.12300
H 	H 	0.42340 0.11350 0.36000 0.04000
H 	H 	0.92130 0.70980 0.97830 0.05500
H 	H 	0.21610 0.70590 0.88330 0.07600
H 	H 	0.47810 0.67540 0.13490 0.07000
H 	H 	0.36870 0.65730 0.72230 0.07000
H 	H 	0.28390 0.70590 0.38330 0.07600
H 	H 	0.04750 0.55270 0.61960 0.06300
H 	H 	0.71610 0.29410 0.61670 0.07600
H 	H 	0.62060 0.65000 0.64570 0.05400
H 	H 	0.12070 0.53220 0.21840 0.05900
H 	H 	0.32850 0.52570 0.51810 0.05800
H 	H 	0.18970 0.30520 0.21560 0.05700
H 	H 	0.23990 0.92590 0.38170 0.07400
H 	H 	0.02190 0.67540 0.63490 0.07000
H 	H 	0.80490 0.41420 0.14800 0.06300
H 	H 	0.42130 0.29020 0.52170 0.05400
H 	H 	0.62070 0.46780 0.28160 0.05900
H 	H 	0.85250 0.52850 0.12290 0.06000
H 	H 	0.68970 0.69480 0.28440 0.05700
H 	H 	0.73990 0.07410 0.11830 0.07400
H 	H 	0.14750 0.47150 0.87710 0.06000
H 	H 	0.77700 0.97440 0.18230 0.12400
H 	H 	0.67150 0.47430 0.48190 0.05800
H 	H 	0.06180 0.33220 0.52240 0.05500
H 	H 	0.54750 0.44730 0.88040 0.06300
H 	H 	0.91040 0.58620 0.97990 0.06100
H 	H 	0.30490 0.58580 0.35200 0.06300
H 	H 	0.58960 0.58620 0.47990 0.06100
H 	H 	0.13130 0.65730 0.22230 0.07000
H 	H 	0.67430 0.35020 0.47850 0.04600
H 	H 	0.52190 0.32460 0.86510 0.07000
H 	H 	0.35250 0.47150 0.37710 0.06000
H 	H 	0.69510 0.41420 0.64800 0.06300
H 	H 	0.57660 0.88650 0.64000 0.04000
H 	H 	0.63130 0.34270 0.27770 0.07000
H 	H 	0.43820 0.33220 0.02240 0.05500
H 	H 	0.82850 0.47430 0.98190 0.05800
H 	H 	0.22300 0.02560 0.81770 0.12400
H 	H 	0.56180 0.66780 0.97760 0.05500
H 	H 	0.93820 0.66780 0.47760 0.05500
H 	H 	0.69830 0.57240 0.28650 0.06400
C 	C 	0.72340 0.55780 0.62650 -0.08000
C 	C 	0.34920 0.47310 0.88170 0.02400
C 	C 	0.15190 0.66650 0.12320 -0.04200
C 	C 	0.17380 0.40000 0.17490 -0.08100
C 	C 	0.39760 0.31780 0.56050 -0.00400
C 	C 	0.33530 0.62650 0.56090 -0.01400
C 	C 	0.51300 0.34900 0.04680 -0.00200
C 	C 	0.53850 0.99460 0.53020 0.08500
C 	C 	0.63330 0.44450 0.32090 -0.07300
C 	C 	0.19760 0.96100 0.89590 0.09900
C 	C 	0.38970 0.70110 0.93550 -0.04000
C 	C 	0.55340 0.64560 0.13450 -0.01700
C 	C 	0.13330 0.55550 0.17910 -0.07400
C 	C 	0.46140 0.42770 0.87640 -0.07500
C 	C 	0.96150 0.99460 0.03020 0.08500
C 	C 	0.86210 0.36910 0.81880 -0.01900
C 	C 	0.77660 0.55780 0.12650 -0.08000
C 	C 	0.02230 0.57920 0.43650 -0.07900
C 	C 	0.86900 0.71590 0.88160 -0.04400
C 	C 	0.08770 0.07190 0.88270 0.11600
C 	C 	0.84810 0.33350 0.87680 -0.04200
C 	C 	0.69760 0.03900 0.60410 0.09500
C 	C 	0.67380 0.60000 0.32510 -0.08200
C 	C 	0.18200 0.32470 0.35500 -0.03700
C 	C 	0.79330 0.63080 0.14000 -0.01400
C 	C 	0.35650 0.43410 0.61740 0.03100
C 	C 	0.65080 0.52690 0.11830 0.02400
C 	C 	0.36210 0.63090 0.68120 -0.01900
C 	C 	0.36670 0.55550 0.67910 -0.07300
C 	C 	0.84920 0.52690 0.61830 0.02400
C 	C 	0.46150 0.00540 0.46980 0.08500
C 	C 	0.48700 0.65100 0.95320 -0.00200
C 	C 	0.32620 0.40000 0.67490 -0.08200
C 	C 	0.83530 0.37350 0.93910 -0.01400
C 	C 	0.89130 0.60810 0.94050 -0.08200
C 	C 	0.47770 0.57920 0.93650 -0.07800
C 	C 	0.66850 0.67320 0.32360 0.00200
C 	C 	0.58770 0.92810 0.61730 0.11400
C 	C 	0.33150 0.32680 0.67640 0.00200
C 	C 	0.13100 0.28410 0.11840 -0.04400
C 	C 	0.44660 0.35440 0.86550 -0.01700
C 	C 	0.28140 0.67400 0.89680 -0.00300
C 	C 	0.60240 0.68220 0.43950 -0.00400
C 	C 	0.16470 0.62650 0.06090 -0.01400
C 	C 	0.35210 0.51530 0.61750 0.01900
C 	C 	0.15080 0.47310 0.38170 0.02400
C 	C 	0.14790 0.51530 0.11750 0.01900
C 	C 	0.22340 0.44220 0.87350 -0.08000
C 	C 	0.36590 0.55260 0.89810 0.02500
C 	C 	0.17750 0.02090 0.85780 -0.12500
C 	C 	0.63410 0.44740 0.10190 0.02500
C 	C 	0.60870 0.60810 0.44050 -0.08200
C 	C 	0.03850 0.00540 0.96980 0.08500
C 	C 	0.21860 0.67400 0.39680 -0.00300
C 	C 	0.32250 0.02090 0.35780 -0.12100
C 	C 	0.20670 0.36920 0.86000 -0.01400
C 	C 	0.10240 0.31780 0.06050 -0.00400
C 	C 	0.14350 0.43410 0.11740 0.03000
C 	C 	0.63100 0.71590 0.38160 -0.04400
C 	C 	0.98700 0.34900 0.54680 -0.00300
C 	C 	0.66470 0.37350 0.43910 -0.01400
C 	C 	0.94660 0.64560 0.63450 -0.01600
C 	C 	0.16270 0.55200 0.05910 -0.07900
C 	C 	0.29330 0.36920 0.36000 -0.01400
C 	C 	0.86590 0.44740 0.60190 0.02500
C 	C 	0.82250 0.97910 0.14220 -0.12500
C 	C 	0.23180 0.60200 0.37800 -0.07700
C 	C 	0.88970 0.29890 0.56450 -0.04000
C 	C 	0.68200 0.67530 0.14500 -0.03700
C 	C 	0.41230 0.07190 0.38270 0.11400
C 	C 	0.63790 0.36910 0.31880 -0.01900
C 	C 	0.11030 0.70110 0.43550 -0.04000
C 	C 	0.83730 0.44800 0.94090 -0.07900
C 	C 	0.33730 0.55200 0.55910 -0.07900
C 	C 	0.39130 0.39190 0.55950 -0.08200
C 	C 	0.34810 0.66650 0.62320 -0.04100
C 	C 	0.53860 0.57230 0.12360 -0.07500
C 	C 	0.96140 0.57230 0.62360 -0.07500
C 	C 	0.64790 0.48470 0.38250 0.01900
C 	C 	0.36900 0.28410 0.61840 -0.04400
C 	C 	0.05340 0.35440 0.36550 -0.01600
C 	C 	0.13410 0.55260 0.39810 0.02500
C 	C 	0.85210 0.48470 0.88250 0.01900
C 	C 	0.10870 0.39190 0.05950 -0.08200
C 	C 	0.30240 0.96100 0.39590 0.09500
C 	C 	0.78140 0.32600 0.60320 -0.00300
C 	C 	0.03860 0.42770 0.37640 -0.07500
C 	C 	0.64350 0.56590 0.38260 0.03100
C 	C 	0.66270 0.44800 0.44090 -0.07900
C 	C 	0.16850 0.32680 0.17640 0.00200
C 	C 	0.27660 0.44220 0.37350 -0.08000
C 	C 	0.67750 0.97910 0.64220 -0.12100
C 	C 	0.65190 0.33350 0.37680 -0.04100
C 	C 	0.26820 0.60200 0.87800 -0.07700
C 	C 	0.01300 0.65100 0.45320 -0.00300
C 	C 	0.81800 0.67530 0.64500 -0.03700
C 	C 	0.73180 0.39800 0.12200 -0.07700
C 	C 	0.31800 0.32470 0.85500 -0.03700
C 	C 	0.52230 0.42080 0.06350 -0.07800
C 	C 	0.85650 0.56590 0.88260 0.03000
C 	C 	0.61030 0.29890 0.06450 -0.04000
C 	C 	0.83150 0.67320 0.82360 0.00200
C 	C 	0.76820 0.39800 0.62200 -0.07700
C 	C 	0.71860 0.32600 0.10320 -0.00300
C 	C 	0.82620 0.60000 0.82510 -0.08100
C 	C 	0.97770 0.42080 0.56350 -0.07900
C 	C 	0.89760 0.68220 0.93950 -0.00400
C 	C 	0.80240 0.03900 0.10410 0.09900
C 	C 	0.70670 0.63080 0.64000 -0.01400
C 	C 	0.91230 0.92810 0.11730 0.11600
C 	C 	0.13790 0.63090 0.18120 -0.01900
C 	C 	0.86670 0.44450 0.82090 -0.07400
N 	N 	0.51600 0.93570 0.56210 -0.21200
N 	N 	0.48400 0.06430 0.43790 -0.21200
N 	N 	0.62740 0.04630 0.54720 -0.20200
N 	N 	0.01600 0.06430 0.93790 -0.21200
N 	N 	0.37260 0.95370 0.45280 -0.20200
N 	N 	0.12740 0.95370 0.95280 -0.20100
N 	N 	0.87260 0.04630 0.04720 -0.20100
N 	N 	0.98400 0.93570 0.06210 -0.21200
O 	O 	0.66940 0.78880 0.69780 -0.18100
O 	O 	0.07590 0.19520 0.30990 -0.16200
O 	O 	0.02160 0.80010 0.52930 -0.17500
O 	O 	0.97840 0.19990 0.47070 -0.17500
O 	O 	0.87930 0.84690 0.94640 -0.22000
O 	O 	0.42410 0.19520 0.80990 -0.16200
O 	O 	0.41060 0.79370 0.57130 -0.35500
O 	O 	0.91060 0.20630 0.92870 -0.35600
O 	O 	0.99760 0.83200 0.83660 -0.16900
O 	O 	0.18050 0.78160 0.62590 -0.18500
O 	O 	0.72580 0.80330 0.08730 -0.16500
O 	O 	0.16940 0.21120 0.80220 -0.18100
O 	O 	0.31950 0.78160 0.12590 -0.18600
O 	O 	0.62070 0.84690 0.44640 -0.22000
O 	O 	0.49760 0.16800 0.66340 -0.16900
O 	O 	0.25230 0.16680 0.16260 -0.16200
O 	O 	0.23550 0.82490 0.46550 -0.34700
O 	O 	0.27420 0.19670 0.91270 -0.16500
O 	O 	0.75230 0.83320 0.33740 -0.16300
O 	O 	0.37930 0.15310 0.55360 -0.22000
O 	O 	0.50240 0.83200 0.33660 -0.16900
O 	O 	0.87390 0.20870 0.80140 -0.14400
O 	O 	0.74770 0.83320 0.83740 -0.16200
O 	O 	0.68050 0.21840 0.87410 -0.18600
O 	O 	0.33060 0.21120 0.30220 -0.18100
O 	O 	0.62610 0.20870 0.30140 -0.14300
O 	O 	0.00200 0.83140 0.41150 -0.14700
O 	O 	0.00240 0.16800 0.16340 -0.16900
O 	O 	0.99800 0.16860 0.58850 -0.14700
O 	O 	0.77420 0.80330 0.58730 -0.16500
O 	O 	0.47840 0.80010 0.02930 -0.17500
O 	O 	0.12070 0.15310 0.05360 -0.22000
O 	O 	0.12610 0.79130 0.19860 -0.14400
O 	O 	0.92410 0.80480 0.69010 -0.16200
O 	O 	0.81950 0.21840 0.37410 -0.18500
O 	O 	0.26450 0.82490 0.96550 -0.34600
O 	O 	0.52160 0.19990 0.97070 -0.17500
O 	O 	0.24770 0.16680 0.66260 -0.16300
O 	O 	0.08940 0.79370 0.07130 -0.35600
O 	O 	0.22580 0.19670 0.41270 -0.16500
O 	O 	0.76450 0.17510 0.53450 -0.34700
O 	O 	0.83060 0.78880 0.19780 -0.18100
O 	O 	0.58940 0.20630 0.42870 -0.35500
O 	O 	0.50200 0.16860 0.08850 -0.14600
O 	O 	0.57590 0.80480 0.19010 -0.16200
O 	O 	0.73550 0.17510 0.03450 -0.34600
O 	O 	0.37390 0.79130 0.69860 -0.14300
O 	O 	0.49800 0.83140 0.91150 -0.14600
F 	F 	0.19830 0.82220 0.31920 -0.32900
F 	F 	0.69830 0.17780 0.18080 -0.32900
F 	F 	0.80170 0.17780 0.68080 -0.32900
F 	F 	0.30170 0.82220 0.81920 -0.32900
