data_crystal

_cell_length_a 21.12880
_cell_length_b 21.12880
_cell_length_c 21.12880
_cell_angle_alpha 90.00000
_cell_angle_beta  90.00000
_cell_angle_gamma 90.00000

_symmetry_space_group_name_	'P 1'
_symmetry_space_group_name_H-M	'P 1'

loop_
_symmetry_equiv_pos_as_xyz
  x,y,z

loop_
_atom_site_label
_atom_site_type_symbol
_atom_site_fract_x
_atom_site_fract_y
_atom_site_fract_z
_atom_site_charge
O 	O 	0.97755 0.79765 0.55950 -0.39000
O 	O 	0.09180 0.60847 0.36050 -0.35600
O 	O 	0.07790 0.65757 0.26842 -0.34100
C 	C 	0.07060 0.65180 0.32710 0.36000
C 	C 	0.03300 0.70440 0.42760 0.07000
C 	C 	0.03370 0.70380 0.36130 -0.11300
Li	Li	0.02820 0.84200 0.62770 0.55600
H 	H 	0.05900 0.66600 0.45400 0.04700
O 	O 	0.47755 0.29765 0.05950 -0.41100
O 	O 	0.59180 0.10847 0.86050 -0.35500
O 	O 	0.57790 0.15757 0.76842 -0.33700
C 	C 	0.57060 0.15180 0.82710 0.36200
C 	C 	0.53300 0.20440 0.92760 0.06500
C 	C 	0.53370 0.20380 0.86130 -0.11200
Li	Li	0.52820 0.34200 0.12770 0.55800
H 	H 	0.55900 0.16600 0.95400 0.05500
O 	O 	0.52245 0.20235 0.05950 -0.41200
O 	O 	0.40820 0.39153 0.86050 -0.35000
O 	O 	0.42210 0.34243 0.76842 -0.33700
C 	C 	0.42940 0.34820 0.82710 0.36100
C 	C 	0.46700 0.29560 0.92760 0.06500
C 	C 	0.46630 0.29620 0.86130 -0.11100
Li	Li	0.47180 0.15800 0.12770 0.55700
H 	H 	0.44100 0.33400 0.95400 0.05600
O 	O 	0.02245 0.70235 0.55950 -0.41200
O 	O 	0.90820 0.89153 0.36050 -0.34400
O 	O 	0.92210 0.84243 0.26842 -0.32900
C 	C 	0.92940 0.84820 0.32710 0.35900
C 	C 	0.96700 0.79560 0.42760 0.08800
C 	C 	0.96630 0.79620 0.36130 -0.09400
Li	Li	0.97180 0.65800 0.62770 0.55900
H 	H 	0.94100 0.83400 0.45400 0.05000
O 	O 	0.02245 0.29765 0.94050 -0.41200
O 	O 	0.90820 0.10847 0.13950 -0.35800
O 	O 	0.92210 0.15757 0.23158 -0.33200
C 	C 	0.92940 0.15180 0.17290 0.36100
C 	C 	0.96700 0.20440 0.07240 0.09300
C 	C 	0.96630 0.20380 0.13870 -0.10300
Li	Li	0.97180 0.34200 0.87230 0.55900
H 	H 	0.94100 0.16600 0.04600 0.03900
O 	O 	0.52245 0.79765 0.44050 -0.41000
O 	O 	0.40820 0.60847 0.63950 -0.35300
O 	O 	0.42210 0.65757 0.73158 -0.33600
C 	C 	0.42940 0.65180 0.67290 0.36200
C 	C 	0.46700 0.70440 0.57240 0.07100
C 	C 	0.46630 0.70380 0.63870 -0.11500
Li	Li	0.47180 0.84200 0.37230 0.55800
H 	H 	0.44100 0.66600 0.54600 0.04900
O 	O 	0.47755 0.70235 0.44050 -0.41100
O 	O 	0.59180 0.89153 0.63950 -0.34700
O 	O 	0.57790 0.84243 0.73158 -0.33500
C 	C 	0.57060 0.84820 0.67290 0.36200
C 	C 	0.53300 0.79560 0.57240 0.07100
C 	C 	0.53370 0.79620 0.63870 -0.11400
Li	Li	0.52820 0.65800 0.37230 0.55800
H 	H 	0.55900 0.83400 0.54600 0.05100
O 	O 	0.97755 0.20235 0.94050 -0.39100
O 	O 	0.09180 0.39153 0.13950 -0.35700
O 	O 	0.07790 0.34243 0.23158 -0.34000
C 	C 	0.07060 0.34820 0.17290 0.36100
C 	C 	0.03300 0.29560 0.07240 0.07700
C 	C 	0.03370 0.29620 0.13870 -0.11900
Li	Li	0.02820 0.15800 0.87230 0.55600
H 	H 	0.05900 0.33400 0.04600 0.04000
O 	O 	0.55950 0.97755 0.79765 -0.38900
O 	O 	0.36050 0.09180 0.60847 -0.35500
O 	O 	0.26842 0.07790 0.65757 -0.34000
C 	C 	0.32710 0.07060 0.65180 0.36000
C 	C 	0.42760 0.03300 0.70440 0.07000
C 	C 	0.36130 0.03370 0.70380 -0.11300
Li	Li	0.62770 0.02820 0.84200 0.55600
H 	H 	0.45400 0.05900 0.66600 0.04700
O 	O 	0.05950 0.47755 0.29765 -0.41100
O 	O 	0.86050 0.59180 0.10847 -0.35500
O 	O 	0.76842 0.57790 0.15757 -0.33700
C 	C 	0.82710 0.57060 0.15180 0.36200
C 	C 	0.92760 0.53300 0.20440 0.06500
C 	C 	0.86130 0.53370 0.20380 -0.11200
Li	Li	0.12770 0.52820 0.34200 0.55800
H 	H 	0.95400 0.55900 0.16600 0.05500
O 	O 	0.05950 0.52245 0.20235 -0.41200
O 	O 	0.86050 0.40820 0.39153 -0.35000
O 	O 	0.76842 0.42210 0.34243 -0.33700
C 	C 	0.82710 0.42940 0.34820 0.36100
C 	C 	0.92760 0.46700 0.29560 0.06500
C 	C 	0.86130 0.46630 0.29620 -0.11100
Li	Li	0.12770 0.47180 0.15800 0.55700
H 	H 	0.95400 0.44100 0.33400 0.05600
O 	O 	0.55950 0.02245 0.70235 -0.41200
O 	O 	0.36050 0.90820 0.89153 -0.34400
O 	O 	0.26842 0.92210 0.84243 -0.32900
C 	C 	0.32710 0.92940 0.84820 0.35900
C 	C 	0.42760 0.96700 0.79560 0.08800
C 	C 	0.36130 0.96630 0.79620 -0.09400
Li	Li	0.62770 0.97180 0.65800 0.55900
H 	H 	0.45400 0.94100 0.83400 0.05000
O 	O 	0.94050 0.02245 0.29765 -0.41200
O 	O 	0.13950 0.90820 0.10847 -0.35800
O 	O 	0.23158 0.92210 0.15757 -0.33200
C 	C 	0.17290 0.92940 0.15180 0.36100
C 	C 	0.07240 0.96700 0.20440 0.09300
C 	C 	0.13870 0.96630 0.20380 -0.10300
Li	Li	0.87230 0.97180 0.34200 0.55900
H 	H 	0.04600 0.94100 0.16600 0.03900
O 	O 	0.44050 0.52245 0.79765 -0.41000
O 	O 	0.63950 0.40820 0.60847 -0.35300
O 	O 	0.73158 0.42210 0.65757 -0.33600
C 	C 	0.67290 0.42940 0.65180 0.36200
C 	C 	0.57240 0.46700 0.70440 0.07100
C 	C 	0.63870 0.46630 0.70380 -0.11500
Li	Li	0.37230 0.47180 0.84200 0.55800
H 	H 	0.54600 0.44100 0.66600 0.04900
O 	O 	0.44050 0.47755 0.70235 -0.41100
O 	O 	0.63950 0.59180 0.89153 -0.34700
O 	O 	0.73158 0.57790 0.84243 -0.33500
C 	C 	0.67290 0.57060 0.84820 0.36200
C 	C 	0.57240 0.53300 0.79560 0.07100
C 	C 	0.63870 0.53370 0.79620 -0.11400
Li	Li	0.37230 0.52820 0.65800 0.55800
H 	H 	0.54600 0.55900 0.83400 0.05100
O 	O 	0.94050 0.97755 0.20235 -0.39100
O 	O 	0.13950 0.09180 0.39153 -0.35700
O 	O 	0.23158 0.07790 0.34243 -0.34000
C 	C 	0.17290 0.07060 0.34820 0.36100
C 	C 	0.07240 0.03300 0.29560 0.07700
C 	C 	0.13870 0.03370 0.29620 -0.11900
Li	Li	0.87230 0.02820 0.15800 0.55600
H 	H 	0.04600 0.05900 0.33400 0.04000
O 	O 	0.79765 0.55950 0.97755 -0.38900
O 	O 	0.60847 0.36050 0.09180 -0.35500
O 	O 	0.65757 0.26842 0.07790 -0.34000
C 	C 	0.65180 0.32710 0.07060 0.36000
C 	C 	0.70440 0.42760 0.03300 0.07000
C 	C 	0.70380 0.36130 0.03370 -0.11300
Li	Li	0.84200 0.62770 0.02820 0.55600
H 	H 	0.66600 0.45400 0.05900 0.04700
O 	O 	0.29765 0.05950 0.47755 -0.41100
O 	O 	0.10847 0.86050 0.59180 -0.35500
O 	O 	0.15757 0.76842 0.57790 -0.33700
C 	C 	0.15180 0.82710 0.57060 0.36200
C 	C 	0.20440 0.92760 0.53300 0.06500
C 	C 	0.20380 0.86130 0.53370 -0.11200
Li	Li	0.34200 0.12770 0.52820 0.55800
H 	H 	0.16600 0.95400 0.55900 0.05500
O 	O 	0.20235 0.05950 0.52245 -0.41200
O 	O 	0.39153 0.86050 0.40820 -0.35000
O 	O 	0.34243 0.76842 0.42210 -0.33700
C 	C 	0.34820 0.82710 0.42940 0.36100
C 	C 	0.29560 0.92760 0.46700 0.06500
C 	C 	0.29620 0.86130 0.46630 -0.11100
Li	Li	0.15800 0.12770 0.47180 0.55700
H 	H 	0.33400 0.95400 0.44100 0.05600
O 	O 	0.70235 0.55950 0.02245 -0.41200
O 	O 	0.89153 0.36050 0.90820 -0.34400
O 	O 	0.84243 0.26842 0.92210 -0.32900
C 	C 	0.84820 0.32710 0.92940 0.35900
C 	C 	0.79560 0.42760 0.96700 0.08800
C 	C 	0.79620 0.36130 0.96630 -0.09400
Li	Li	0.65800 0.62770 0.97180 0.55900
H 	H 	0.83400 0.45400 0.94100 0.05000
O 	O 	0.29765 0.94050 0.02245 -0.41200
O 	O 	0.10847 0.13950 0.90820 -0.35800
O 	O 	0.15757 0.23158 0.92210 -0.33200
C 	C 	0.15180 0.17290 0.92940 0.36100
C 	C 	0.20440 0.07240 0.96700 0.09300
C 	C 	0.20380 0.13870 0.96630 -0.10300
Li	Li	0.34200 0.87230 0.97180 0.55900
H 	H 	0.16600 0.04600 0.94100 0.03900
O 	O 	0.79765 0.44050 0.52245 -0.41000
O 	O 	0.60847 0.63950 0.40820 -0.35300
O 	O 	0.65757 0.73158 0.42210 -0.33600
C 	C 	0.65180 0.67290 0.42940 0.36200
C 	C 	0.70440 0.57240 0.46700 0.07100
C 	C 	0.70380 0.63870 0.46630 -0.11500
Li	Li	0.84200 0.37230 0.47180 0.55800
H 	H 	0.66600 0.54600 0.44100 0.04900
O 	O 	0.70235 0.44050 0.47755 -0.41100
O 	O 	0.89153 0.63950 0.59180 -0.34700
O 	O 	0.84243 0.73158 0.57790 -0.33500
C 	C 	0.84820 0.67290 0.57060 0.36200
C 	C 	0.79560 0.57240 0.53300 0.07100
C 	C 	0.79620 0.63870 0.53370 -0.11400
Li	Li	0.65800 0.37230 0.52820 0.55800
H 	H 	0.83400 0.54600 0.55900 0.05100
O 	O 	0.20235 0.94050 0.97755 -0.39100
O 	O 	0.39153 0.13950 0.09180 -0.35700
O 	O 	0.34243 0.23158 0.07790 -0.34000
C 	C 	0.34820 0.17290 0.07060 0.36100
C 	C 	0.29560 0.07240 0.03300 0.07700
C 	C 	0.29620 0.13870 0.03370 -0.11900
Li	Li	0.15800 0.87230 0.02820 0.55600
H 	H 	0.33400 0.04600 0.05900 0.04000
O 	O 	0.04765 0.22755 0.80950 -0.41100
O 	O 	0.85847 0.34180 0.61050 -0.35000
O 	O 	0.90757 0.32790 0.51842 -0.33000
C 	C 	0.90180 0.32060 0.57710 0.35800
C 	C 	0.95440 0.28300 0.67760 0.08700
C 	C 	0.95380 0.28370 0.61130 -0.09600
Li	Li	0.09200 0.27820 0.87770 0.55800
H 	H 	0.91600 0.30900 0.70400 0.04800
O 	O 	0.54765 0.72755 0.30950 -0.41100
O 	O 	0.35847 0.84180 0.11050 -0.35300
O 	O 	0.40757 0.82790 0.01842 -0.34400
C 	C 	0.40180 0.82060 0.07710 0.36400
C 	C 	0.45440 0.78300 0.17760 0.07200
C 	C 	0.45380 0.78370 0.11130 -0.11800
Li	Li	0.59200 0.77820 0.37770 0.55800
H 	H 	0.41600 0.80900 0.20400 0.05000
O 	O 	0.45235 0.77245 0.30950 -0.41100
O 	O 	0.64153 0.65820 0.11050 -0.35500
O 	O 	0.59243 0.67210 0.01842 -0.34600
C 	C 	0.59820 0.67940 0.07710 0.36400
C 	C 	0.54560 0.71700 0.17760 0.07200
C 	C 	0.54620 0.71630 0.11130 -0.11800
Li	Li	0.40800 0.72180 0.37770 0.55800
H 	H 	0.58400 0.69100 0.20400 0.04900
O 	O 	0.95235 0.27245 0.80950 -0.39200
O 	O 	0.14153 0.15820 0.61050 -0.35500
O 	O 	0.09243 0.17210 0.51842 -0.34100
C 	C 	0.09820 0.17940 0.57710 0.36000
C 	C 	0.04560 0.21700 0.67760 0.07000
C 	C 	0.04620 0.21630 0.61130 -0.11400
Li	Li	0.90800 0.22180 0.87770 0.55800
H 	H 	0.08400 0.19100 0.70400 0.04700
O 	O 	0.54765 0.27245 0.19050 -0.41100
O 	O 	0.35847 0.15820 0.38950 -0.35500
O 	O 	0.40757 0.17210 0.48158 -0.33900
C 	C 	0.40180 0.17940 0.42290 0.36200
C 	C 	0.45440 0.21700 0.32240 0.07100
C 	C 	0.45380 0.21630 0.38870 -0.11700
Li	Li	0.59200 0.22180 0.12230 0.55800
H 	H 	0.41600 0.19100 0.29600 0.04800
O 	O 	0.04765 0.77245 0.69050 -0.41000
O 	O 	0.85847 0.65820 0.88950 -0.34800
O 	O 	0.90757 0.67210 0.98158 -0.32000
C 	C 	0.90180 0.67940 0.92290 0.35800
C 	C 	0.95440 0.71700 0.82240 0.08800
C 	C 	0.95380 0.71630 0.88870 -0.09200
Li	Li	0.09200 0.72180 0.62230 0.55700
H 	H 	0.91600 0.69100 0.79600 0.04900
O 	O 	0.95235 0.72755 0.69050 -0.39100
O 	O 	0.14153 0.84180 0.88950 -0.34900
O 	O 	0.09243 0.82790 0.98158 -0.32900
C 	C 	0.09820 0.82060 0.92290 0.36000
C 	C 	0.04560 0.78300 0.82240 0.07000
C 	C 	0.04620 0.78370 0.88870 -0.10900
Li	Li	0.90800 0.77820 0.62230 0.55800
H 	H 	0.08400 0.80900 0.79600 0.04900
O 	O 	0.45235 0.22755 0.19050 -0.41200
O 	O 	0.64153 0.34180 0.38950 -0.35300
O 	O 	0.59243 0.32790 0.48158 -0.33700
C 	C 	0.59820 0.32060 0.42290 0.36200
C 	C 	0.54560 0.28300 0.32240 0.07100
C 	C 	0.54620 0.28370 0.38870 -0.11600
Li	Li	0.40800 0.27820 0.12230 0.55800
H 	H 	0.58400 0.30900 0.29600 0.04900
O 	O 	0.22755 0.80950 0.04765 -0.41100
O 	O 	0.34180 0.61050 0.85847 -0.35000
O 	O 	0.32790 0.51842 0.90757 -0.33000
C 	C 	0.32060 0.57710 0.90180 0.35800
C 	C 	0.28300 0.67760 0.95440 0.08700
C 	C 	0.28370 0.61130 0.95380 -0.09600
Li	Li	0.27820 0.87770 0.09200 0.55800
H 	H 	0.30900 0.70400 0.91600 0.04800
O 	O 	0.72755 0.30950 0.54765 -0.41100
O 	O 	0.84180 0.11050 0.35847 -0.35300
O 	O 	0.82790 0.01842 0.40757 -0.34400
C 	C 	0.82060 0.07710 0.40180 0.36400
C 	C 	0.78300 0.17760 0.45440 0.07200
C 	C 	0.78370 0.11130 0.45380 -0.11800
Li	Li	0.77820 0.37770 0.59200 0.55800
H 	H 	0.80900 0.20400 0.41600 0.05000
O 	O 	0.77245 0.30950 0.45235 -0.41100
O 	O 	0.65820 0.11050 0.64153 -0.35500
O 	O 	0.67210 0.01842 0.59243 -0.34600
C 	C 	0.67940 0.07710 0.59820 0.36400
C 	C 	0.71700 0.17760 0.54560 0.07200
C 	C 	0.71630 0.11130 0.54620 -0.11800
Li	Li	0.72180 0.37770 0.40800 0.55800
H 	H 	0.69100 0.20400 0.58400 0.04900
O 	O 	0.27245 0.80950 0.95235 -0.39200
O 	O 	0.15820 0.61050 0.14153 -0.35500
O 	O 	0.17210 0.51842 0.09243 -0.34100
C 	C 	0.17940 0.57710 0.09820 0.36000
C 	C 	0.21700 0.67760 0.04560 0.07000
C 	C 	0.21630 0.61130 0.04620 -0.11400
Li	Li	0.22180 0.87770 0.90800 0.55800
H 	H 	0.19100 0.70400 0.08400 0.04700
O 	O 	0.27245 0.19050 0.54765 -0.41100
O 	O 	0.15820 0.38950 0.35847 -0.35500
O 	O 	0.17210 0.48158 0.40757 -0.33900
C 	C 	0.17940 0.42290 0.40180 0.36200
C 	C 	0.21700 0.32240 0.45440 0.07100
C 	C 	0.21630 0.38870 0.45380 -0.11700
Li	Li	0.22180 0.12230 0.59200 0.55800
H 	H 	0.19100 0.29600 0.41600 0.04800
O 	O 	0.77245 0.69050 0.04765 -0.41000
O 	O 	0.65820 0.88950 0.85847 -0.34800
O 	O 	0.67210 0.98158 0.90757 -0.32000
C 	C 	0.67940 0.92290 0.90180 0.35800
C 	C 	0.71700 0.82240 0.95440 0.08800
C 	C 	0.71630 0.88870 0.95380 -0.09200
Li	Li	0.72180 0.62230 0.09200 0.55700
H 	H 	0.69100 0.79600 0.91600 0.04900
O 	O 	0.72755 0.69050 0.95235 -0.39100
O 	O 	0.84180 0.88950 0.14153 -0.34900
O 	O 	0.82790 0.98158 0.09243 -0.32900
C 	C 	0.82060 0.92290 0.09820 0.36000
C 	C 	0.78300 0.82240 0.04560 0.07000
C 	C 	0.78370 0.88870 0.04620 -0.10900
Li	Li	0.77820 0.62230 0.90800 0.55800
H 	H 	0.80900 0.79600 0.08400 0.04900
O 	O 	0.22755 0.19050 0.45235 -0.41200
O 	O 	0.34180 0.38950 0.64153 -0.35300
O 	O 	0.32790 0.48158 0.59243 -0.33700
C 	C 	0.32060 0.42290 0.59820 0.36200
C 	C 	0.28300 0.32240 0.54560 0.07100
C 	C 	0.28370 0.38870 0.54620 -0.11600
Li	Li	0.27820 0.12230 0.40800 0.55800
H 	H 	0.30900 0.29600 0.58400 0.04900
O 	O 	0.80950 0.04765 0.22755 -0.41100
O 	O 	0.61050 0.85847 0.34180 -0.35000
O 	O 	0.51842 0.90757 0.32790 -0.33000
C 	C 	0.57710 0.90180 0.32060 0.35800
C 	C 	0.67760 0.95440 0.28300 0.08700
C 	C 	0.61130 0.95380 0.28370 -0.09600
Li	Li	0.87770 0.09200 0.27820 0.55800
H 	H 	0.70400 0.91600 0.30900 0.04800
O 	O 	0.30950 0.54765 0.72755 -0.41100
O 	O 	0.11050 0.35847 0.84180 -0.35300
O 	O 	0.01842 0.40757 0.82790 -0.34400
C 	C 	0.07710 0.40180 0.82060 0.36400
C 	C 	0.17760 0.45440 0.78300 0.07200
C 	C 	0.11130 0.45380 0.78370 -0.11800
Li	Li	0.37770 0.59200 0.77820 0.55800
H 	H 	0.20400 0.41600 0.80900 0.05000
O 	O 	0.30950 0.45235 0.77245 -0.41100
O 	O 	0.11050 0.64153 0.65820 -0.35500
O 	O 	0.01842 0.59243 0.67210 -0.34600
C 	C 	0.07710 0.59820 0.67940 0.36400
C 	C 	0.17760 0.54560 0.71700 0.07200
C 	C 	0.11130 0.54620 0.71630 -0.11800
Li	Li	0.37770 0.40800 0.72180 0.55800
H 	H 	0.20400 0.58400 0.69100 0.04900
O 	O 	0.80950 0.95235 0.27245 -0.39200
O 	O 	0.61050 0.14153 0.15820 -0.35500
O 	O 	0.51842 0.09243 0.17210 -0.34100
C 	C 	0.57710 0.09820 0.17940 0.36000
C 	C 	0.67760 0.04560 0.21700 0.07000
C 	C 	0.61130 0.04620 0.21630 -0.11400
Li	Li	0.87770 0.90800 0.22180 0.55800
H 	H 	0.70400 0.08400 0.19100 0.04700
O 	O 	0.19050 0.54765 0.27245 -0.41100
O 	O 	0.38950 0.35847 0.15820 -0.35500
O 	O 	0.48158 0.40757 0.17210 -0.33900
C 	C 	0.42290 0.40180 0.17940 0.36200
C 	C 	0.32240 0.45440 0.21700 0.07100
C 	C 	0.38870 0.45380 0.21630 -0.11700
Li	Li	0.12230 0.59200 0.22180 0.55800
H 	H 	0.29600 0.41600 0.19100 0.04800
O 	O 	0.69050 0.04765 0.77245 -0.41000
O 	O 	0.88950 0.85847 0.65820 -0.34800
O 	O 	0.98158 0.90757 0.67210 -0.32000
C 	C 	0.92290 0.90180 0.67940 0.35800
C 	C 	0.82240 0.95440 0.71700 0.08800
C 	C 	0.88870 0.95380 0.71630 -0.09200
Li	Li	0.62230 0.09200 0.72180 0.55700
H 	H 	0.79600 0.91600 0.69100 0.04900
O 	O 	0.69050 0.95235 0.72755 -0.39100
O 	O 	0.88950 0.14153 0.84180 -0.34900
O 	O 	0.98158 0.09243 0.82790 -0.32900
C 	C 	0.92290 0.09820 0.82060 0.36000
C 	C 	0.82240 0.04560 0.78300 0.07000
C 	C 	0.88870 0.04620 0.78370 -0.10900
Li	Li	0.62230 0.90800 0.77820 0.55800
H 	H 	0.79600 0.08400 0.80900 0.04900
O 	O 	0.19050 0.45235 0.22755 -0.41200
O 	O 	0.38950 0.64153 0.34180 -0.35300
O 	O 	0.48158 0.59243 0.32790 -0.33700
C 	C 	0.42290 0.59820 0.32060 0.36200
C 	C 	0.32240 0.54560 0.28300 0.07100
C 	C 	0.38870 0.54620 0.28370 -0.11600
Li	Li	0.12230 0.40800 0.27820 0.55800
H 	H 	0.29600 0.58400 0.30900 0.04900
C 	C 	-0.00000 0.75000 0.46060 -0.14300
C 	C 	-0.00000 0.75000 0.32990 0.04800
C 	C 	-0.00000 0.75000 0.53180 0.33900
H 	H 	0.00000 0.75000 0.27500 0.04800
C 	C 	0.50000 0.25000 0.96060 -0.10300
C 	C 	0.50000 0.25000 0.82990 0.06900
C 	C 	0.50000 0.25000 0.03180 0.33900
H 	H 	0.50000 0.25000 0.77500 0.05000
C 	C 	-0.00000 0.25000 0.03940 -0.16600
C 	C 	-0.00000 0.25000 0.17010 0.05200
C 	C 	-0.00000 0.25000 0.96820 0.36000
H 	H 	0.00000 0.25000 0.22500 0.04700
C 	C 	0.50000 0.75000 0.53940 -0.12700
C 	C 	0.50000 0.75000 0.67010 0.07200
C 	C 	0.50000 0.75000 0.46820 0.36000
H 	H 	0.50000 0.75000 0.72500 0.05100
C 	C 	0.46060 0.00000 0.75000 -0.14300
C 	C 	0.32990 0.00000 0.75000 0.04800
C 	C 	0.53180 0.00000 0.75000 0.33900
H 	H 	0.27500 0.00000 0.75000 0.04800
C 	C 	0.96060 0.50000 0.25000 -0.10300
C 	C 	0.82990 0.50000 0.25000 0.06900
C 	C 	0.03180 0.50000 0.25000 0.33900
H 	H 	0.77500 0.50000 0.25000 0.05000
C 	C 	0.03940 0.00000 0.25000 -0.16600
C 	C 	0.17010 0.00000 0.25000 0.05200
C 	C 	0.96820 0.00000 0.25000 0.36000
H 	H 	0.22500 0.00000 0.25000 0.04700
C 	C 	0.53940 0.50000 0.75000 -0.12700
C 	C 	0.67010 0.50000 0.75000 0.07200
C 	C 	0.46820 0.50000 0.75000 0.36000
H 	H 	0.72500 0.50000 0.75000 0.05100
C 	C 	0.75000 0.46060 -0.00000 -0.14300
C 	C 	0.75000 0.32990 -0.00000 0.04800
C 	C 	0.75000 0.53180 -0.00000 0.33900
H 	H 	0.75000 0.27500 -0.00000 0.04800
C 	C 	0.25000 0.96060 0.50000 -0.10300
C 	C 	0.25000 0.82990 0.50000 0.06900
C 	C 	0.25000 0.03180 0.50000 0.33900
H 	H 	0.25000 0.77500 0.50000 0.05000
C 	C 	0.25000 0.03940 -0.00000 -0.16600
C 	C 	0.25000 0.17010 -0.00000 0.05200
C 	C 	0.25000 0.96820 -0.00000 0.36000
H 	H 	0.25000 0.22500 -0.00000 0.04700
C 	C 	0.75000 0.53940 0.50000 -0.12700
C 	C 	0.75000 0.67010 0.50000 0.07200
C 	C 	0.75000 0.46820 0.50000 0.36000
H 	H 	0.75000 0.72500 0.50000 0.05100
C 	C 	-0.00000 0.25000 0.71060 -0.14400
C 	C 	-0.00000 0.25000 0.57990 0.04800
C 	C 	-0.00000 0.25000 0.78180 0.34000
H 	H 	-0.00000 0.25000 0.52500 0.04800
C 	C 	0.50000 0.75000 0.21060 -0.12800
C 	C 	0.50000 0.75000 0.07990 0.07300
C 	C 	0.50000 0.75000 0.28180 0.36100
H 	H 	0.50000 0.75000 0.02500 0.04600
C 	C 	0.50000 0.25000 0.28940 -0.12800
C 	C 	0.50000 0.25000 0.42010 0.07200
C 	C 	0.50000 0.25000 0.21820 0.36100
H 	H 	0.50000 0.25000 0.47500 0.04900
C 	C 	-0.00000 0.75000 0.78940 -0.14200
C 	C 	-0.00000 0.75000 0.92010 0.04700
C 	C 	-0.00000 0.75000 0.71820 0.33900
H 	H 	-0.00000 0.75000 0.97500 0.05300
C 	C 	0.25000 0.71060 -0.00000 -0.14400
C 	C 	0.25000 0.57990 -0.00000 0.04800
C 	C 	0.25000 0.78180 -0.00000 0.34000
H 	H 	0.25000 0.52500 -0.00000 0.04800
C 	C 	0.75000 0.21060 0.50000 -0.12800
C 	C 	0.75000 0.07990 0.50000 0.07300
C 	C 	0.75000 0.28180 0.50000 0.36100
H 	H 	0.75000 0.02500 0.50000 0.04600
C 	C 	0.25000 0.28940 0.50000 -0.12800
C 	C 	0.25000 0.42010 0.50000 0.07200
C 	C 	0.25000 0.21820 0.50000 0.36100
H 	H 	0.25000 0.47500 0.50000 0.04900
C 	C 	0.75000 0.78940 -0.00000 -0.14200
C 	C 	0.75000 0.92010 -0.00000 0.04700
C 	C 	0.75000 0.71820 -0.00000 0.33900
H 	H 	0.75000 0.97500 -0.00000 0.05300
C 	C 	0.71060 0.00000 0.25000 -0.14400
C 	C 	0.57990 0.00000 0.25000 0.04800
C 	C 	0.78180 0.00000 0.25000 0.34000
H 	H 	0.52500 0.00000 0.25000 0.04800
C 	C 	0.21060 0.50000 0.75000 -0.12800
C 	C 	0.07990 0.50000 0.75000 0.07300
C 	C 	0.28180 0.50000 0.75000 0.36100
H 	H 	0.02500 0.50000 0.75000 0.04600
C 	C 	0.28940 0.50000 0.25000 -0.12800
C 	C 	0.42010 0.50000 0.25000 0.07200
C 	C 	0.21820 0.50000 0.25000 0.36100
H 	H 	0.47500 0.50000 0.25000 0.04900
C 	C 	0.78940 0.00000 0.75000 -0.14200
C 	C 	0.92010 0.00000 0.75000 0.04700
C 	C 	0.71820 0.00000 0.75000 0.33900
H 	H 	0.97500 0.00000 0.75000 0.05300
