data_crystal

_cell_length_a 12.01440
_cell_length_b 16.98920
_cell_length_c 31.27160
_cell_angle_alpha 90.00000
_cell_angle_beta  90.00000
_cell_angle_gamma 90.00000

_symmetry_space_group_name_	'P 1'
_symmetry_space_group_name_H-M	'P 1'

loop_
_symmetry_equiv_pos_as_xyz
  x,y,z

loop_
_atom_site_label
_atom_site_type_symbol
_atom_site_fract_x
_atom_site_fract_y
_atom_site_fract_z
_atom_site_charge
Ag	Ag	0.48790 0.25694 0.43223 0.46000
Ag	Ag	0.90630 0.17597 0.45366 0.45900
Ag	Ag	0.57111 0.30894 0.53443 0.45300
N 	N 	0.35620 0.09450 0.42520 -0.23000
N 	N 	0.63120 0.41310 0.42860 -0.22500
N 	N 	0.12100 0.07820 0.42280 -0.22800
N 	N 	0.76960 0.22440 0.48680 -0.18900
N 	N 	0.37070 0.41580 0.56990 -0.22400
C 	C 	0.40610 0.14890 0.42790 -0.11600
C 	C 	0.57150 0.36130 0.42980 -0.13100
C 	C 	0.04600 0.11890 0.42990 -0.13200
C 	C 	0.70050 0.25110 0.50620 -0.16400
C 	C 	0.44250 0.37220 0.56040 -0.13900
C 	C 	0.33950 0.02280 0.33440 0.05800
H 	H 	0.40350 0.03950 0.34970 -0.02300
C 	C 	0.34140 0.02280 0.28960 -0.13700
H 	H 	0.40730 0.03880 0.27530 0.05800
C 	C 	0.34120 0.97200 0.19530 -0.01800
H 	H 	0.40340 0.95180 0.21050 0.03800
C 	C 	0.34310 0.97280 0.15190 -0.02100
H 	H 	0.40740 0.95510 0.13710 0.02900
C 	C 	0.34580 0.01760 0.05790 -0.16400
H 	H 	0.41340 0.03020 0.07210 0.05200
C 	C 	0.34200 0.01650 0.01340 0.03100
H 	H 	0.40850 0.02810 0.99820 -0.03200
C 	C 	0.65700 0.51380 0.33850 0.07300
H 	H 	0.59020 0.52380 0.35380 -0.02000
C 	C 	0.65380 0.51430 0.29470 -0.14700
H 	H 	0.58550 0.52440 0.28040 0.07000
C 	C 	0.66640 0.46220 0.20130 -0.06300
H 	H 	0.60900 0.43520 0.21620 0.03900
C 	C 	0.66520 0.46330 0.15660 -0.03500
H 	H 	0.60600 0.43890 0.14150 0.02000
C 	C 	0.65800 0.49500 0.06320 -0.20100
H 	H 	0.58850 0.49190 0.07750 0.07600
C 	C 	0.65900 0.49400 0.01740 0.06900
H 	H 	0.59090 0.48870 0.00250 -0.03600
Ag	Ag	0.01210 0.74306 0.43223 0.46100
Ag	Ag	0.59370 0.82403 0.45366 0.46500
Ag	Ag	0.92889 0.69106 0.53443 0.45200
N 	N 	0.14380 0.90550 0.42520 -0.21700
N 	N 	0.86880 0.58690 0.42860 -0.22600
N 	N 	0.37900 0.92180 0.42280 -0.21300
N 	N 	0.73040 0.77560 0.48680 -0.18800
N 	N 	0.12930 0.58420 0.56990 -0.22500
C 	C 	0.09390 0.85110 0.42790 -0.11100
C 	C 	0.92850 0.63870 0.42980 -0.13100
C 	C 	0.45400 0.88110 0.42990 -0.11900
C 	C 	0.79950 0.74890 0.50620 -0.16300
C 	C 	0.05750 0.62780 0.56040 -0.13900
C 	C 	0.16050 0.97720 0.33440 0.09400
H 	H 	0.09650 0.96050 0.34970 -0.01800
C 	C 	0.15860 0.97720 0.28960 -0.10000
H 	H 	0.09270 0.96120 0.27530 0.06500
C 	C 	0.15880 0.02800 0.19530 -0.05300
H 	H 	0.09660 0.04820 0.21050 0.02900
C 	C 	0.15690 0.02720 0.15190 -0.05500
H 	H 	0.09260 0.04490 0.13710 0.02100
C 	C 	0.15420 0.98240 0.05790 -0.12700
H 	H 	0.08660 0.96980 0.07210 0.06000
C 	C 	0.15800 0.98350 0.01340 0.06700
H 	H 	0.09150 0.97190 0.99820 -0.02400
C 	C 	0.84300 0.48620 0.33850 0.07300
H 	H 	0.90980 0.47620 0.35380 -0.02000
C 	C 	0.84620 0.48570 0.29470 -0.14700
H 	H 	0.91450 0.47560 0.28040 0.07000
C 	C 	0.83360 0.53780 0.20130 -0.06300
H 	H 	0.89100 0.56480 0.21620 0.04000
C 	C 	0.83480 0.53670 0.15660 -0.03500
H 	H 	0.89400 0.56110 0.14150 0.02000
C 	C 	0.84200 0.50500 0.06320 -0.20100
H 	H 	0.91150 0.50810 0.07750 0.07600
C 	C 	0.84100 0.50600 0.01740 0.06900
H 	H 	0.90910 0.51130 0.00250 -0.03600
Ag	Ag	0.51210 0.25694 0.06777 0.45900
Ag	Ag	0.09370 0.17597 0.04634 0.45800
Ag	Ag	0.42889 0.30894 0.96557 0.45200
N 	N 	0.64380 0.09450 0.07480 -0.23100
N 	N 	0.36880 0.41310 0.07140 -0.22600
N 	N 	0.87900 0.07820 0.07720 -0.22900
N 	N 	0.23040 0.22440 0.01320 -0.19000
N 	N 	0.62930 0.41580 0.93010 -0.22500
C 	C 	0.59390 0.14890 0.07210 -0.11700
C 	C 	0.42850 0.36130 0.07020 -0.13200
C 	C 	0.95400 0.11890 0.07010 -0.13300
C 	C 	0.29950 0.25110 0.99380 -0.16500
C 	C 	0.55750 0.37220 0.93960 -0.14000
C 	C 	0.66050 0.02280 0.16560 0.05700
H 	H 	0.59650 0.03950 0.15030 -0.02400
C 	C 	0.65860 0.02280 0.21040 -0.13700
H 	H 	0.59270 0.03880 0.22470 0.05800
C 	C 	0.65880 0.97200 0.30470 -0.01700
H 	H 	0.59660 0.95180 0.28950 0.03800
C 	C 	0.65690 0.97280 0.34810 -0.02100
H 	H 	0.59260 0.95510 0.36290 0.02900
C 	C 	0.65420 0.01760 0.44210 -0.16300
H 	H 	0.58660 0.03020 0.42790 0.05200
C 	C 	0.65800 0.01650 0.48660 0.03000
H 	H 	0.59150 0.02810 0.50180 -0.03200
C 	C 	0.34300 0.51380 0.16150 0.07300
H 	H 	0.40980 0.52380 0.14620 -0.02000
C 	C 	0.34620 0.51430 0.20530 -0.14700
H 	H 	0.41450 0.52440 0.21960 0.07000
C 	C 	0.33360 0.46220 0.29870 -0.06300
H 	H 	0.39100 0.43520 0.28380 0.03900
C 	C 	0.33480 0.46330 0.34340 -0.03500
H 	H 	0.39400 0.43890 0.35850 0.02000
C 	C 	0.34200 0.49500 0.43680 -0.20100
H 	H 	0.41150 0.49190 0.42250 0.07600
C 	C 	0.34100 0.49400 0.48260 0.06900
H 	H 	0.40910 0.48870 0.49750 -0.03600
Ag	Ag	0.98790 0.74306 0.06777 0.46100
Ag	Ag	0.40630 0.82403 0.04634 0.46500
Ag	Ag	0.07111 0.69106 0.96557 0.45200
N 	N 	0.85620 0.90550 0.07480 -0.21700
N 	N 	0.13120 0.58690 0.07140 -0.22600
N 	N 	0.62100 0.92180 0.07720 -0.21300
N 	N 	0.26960 0.77560 0.01320 -0.18800
N 	N 	0.87070 0.58420 0.93010 -0.22500
C 	C 	0.90610 0.85110 0.07210 -0.11100
C 	C 	0.07150 0.63870 0.07020 -0.13100
C 	C 	0.54600 0.88110 0.07010 -0.11900
C 	C 	0.20050 0.74890 0.99380 -0.16300
C 	C 	0.94250 0.62780 0.93960 -0.13900
C 	C 	0.83950 0.97720 0.16560 0.09400
H 	H 	0.90350 0.96050 0.15030 -0.01800
C 	C 	0.84140 0.97720 0.21040 -0.10000
H 	H 	0.90730 0.96120 0.22470 0.06500
C 	C 	0.84120 0.02800 0.30470 -0.05300
H 	H 	0.90340 0.04820 0.28950 0.02900
C 	C 	0.84310 0.02720 0.34810 -0.05500
H 	H 	0.90740 0.04490 0.36290 0.02100
C 	C 	0.84580 0.98240 0.44210 -0.12700
H 	H 	0.91340 0.96980 0.42790 0.06000
C 	C 	0.84200 0.98350 0.48660 0.06700
H 	H 	0.90850 0.97190 0.50180 -0.02400
C 	C 	0.15700 0.48620 0.16150 0.07300
H 	H 	0.09020 0.47620 0.14620 -0.02000
C 	C 	0.15380 0.48570 0.20530 -0.14700
H 	H 	0.08550 0.47560 0.21960 0.07000
C 	C 	0.16640 0.53780 0.29870 -0.06300
H 	H 	0.10900 0.56480 0.28380 0.04000
C 	C 	0.16520 0.53670 0.34340 -0.03500
H 	H 	0.10600 0.56110 0.35850 0.02000
C 	C 	0.15800 0.50500 0.43680 -0.20100
H 	H 	0.08850 0.50810 0.42250 0.07600
C 	C 	0.15900 0.50600 0.48260 0.06900
H 	H 	0.09090 0.51130 0.49750 -0.03600
Ag	Ag	0.51210 0.74306 0.56777 0.46100
Ag	Ag	0.09370 0.82403 0.54634 0.46500
Ag	Ag	0.42889 0.69106 0.46557 0.45200
N 	N 	0.64380 0.90550 0.57480 -0.21700
N 	N 	0.36880 0.58690 0.57140 -0.22600
N 	N 	0.87900 0.92180 0.57720 -0.21300
N 	N 	0.23040 0.77560 0.51320 -0.18800
N 	N 	0.62930 0.58420 0.43010 -0.22500
C 	C 	0.59390 0.85110 0.57210 -0.11100
C 	C 	0.42850 0.63870 0.57020 -0.13100
C 	C 	0.95400 0.88110 0.57010 -0.11900
C 	C 	0.29950 0.74890 0.49380 -0.16300
C 	C 	0.55750 0.62780 0.43960 -0.13900
C 	C 	0.66050 0.97720 0.66560 0.09400
H 	H 	0.59650 0.96050 0.65030 -0.01800
C 	C 	0.65860 0.97720 0.71040 -0.10000
H 	H 	0.59270 0.96120 0.72470 0.06500
C 	C 	0.65880 0.02800 0.80470 -0.05300
H 	H 	0.59660 0.04820 0.78950 0.02900
C 	C 	0.65690 0.02720 0.84810 -0.05500
H 	H 	0.59260 0.04490 0.86290 0.02100
C 	C 	0.65420 0.98240 0.94210 -0.12700
H 	H 	0.58660 0.96980 0.92790 0.06000
C 	C 	0.65800 0.98350 0.98660 0.06700
H 	H 	0.59150 0.97190 0.00180 -0.02400
C 	C 	0.34300 0.48620 0.66150 0.07300
H 	H 	0.40980 0.47620 0.64620 -0.02000
C 	C 	0.34620 0.48570 0.70530 -0.14700
H 	H 	0.41450 0.47560 0.71960 0.07000
C 	C 	0.33360 0.53780 0.79870 -0.06300
H 	H 	0.39100 0.56480 0.78380 0.04000
C 	C 	0.33480 0.53670 0.84340 -0.03500
H 	H 	0.39400 0.56110 0.85850 0.02000
C 	C 	0.34200 0.50500 0.93680 -0.20100
H 	H 	0.41150 0.50810 0.92250 0.07600
C 	C 	0.34100 0.50600 0.98260 0.06900
H 	H 	0.40910 0.51130 0.99750 -0.03600
Ag	Ag	0.98790 0.25694 0.56777 0.45900
Ag	Ag	0.40630 0.17597 0.54634 0.45800
Ag	Ag	0.07111 0.30894 0.46557 0.45200
N 	N 	0.85620 0.09450 0.57480 -0.23100
N 	N 	0.13120 0.41310 0.57140 -0.22600
N 	N 	0.62100 0.07820 0.57720 -0.22900
N 	N 	0.26960 0.22440 0.51320 -0.19000
N 	N 	0.87070 0.41580 0.43010 -0.22500
C 	C 	0.90610 0.14890 0.57210 -0.11700
C 	C 	0.07150 0.36130 0.57020 -0.13200
C 	C 	0.54600 0.11890 0.57010 -0.13400
C 	C 	0.20050 0.25110 0.49380 -0.16500
C 	C 	0.94250 0.37220 0.43960 -0.14000
C 	C 	0.83950 0.02280 0.66560 0.05700
H 	H 	0.90350 0.03950 0.65030 -0.02400
C 	C 	0.84140 0.02280 0.71040 -0.13700
H 	H 	0.90730 0.03880 0.72470 0.05800
C 	C 	0.84120 0.97200 0.80470 -0.01800
H 	H 	0.90340 0.95180 0.78950 0.03800
C 	C 	0.84310 0.97280 0.84810 -0.02100
H 	H 	0.90740 0.95510 0.86290 0.02900
C 	C 	0.84580 0.01760 0.94210 -0.16400
H 	H 	0.91340 0.03020 0.92790 0.05200
C 	C 	0.84200 0.01650 0.98660 0.03100
H 	H 	0.90850 0.02810 0.00180 -0.03200
C 	C 	0.15700 0.51380 0.66150 0.07300
H 	H 	0.09020 0.52380 0.64620 -0.02000
C 	C 	0.15380 0.51430 0.70530 -0.14600
H 	H 	0.08550 0.52440 0.71960 0.07000
C 	C 	0.16640 0.46220 0.79870 -0.06300
H 	H 	0.10900 0.43520 0.78380 0.03900
C 	C 	0.16520 0.46330 0.84340 -0.03500
H 	H 	0.10600 0.43890 0.85850 0.02000
C 	C 	0.15800 0.49500 0.93680 -0.20100
H 	H 	0.08850 0.49190 0.92250 0.07600
C 	C 	0.15900 0.49400 0.98260 0.06900
H 	H 	0.09090 0.48870 0.99750 -0.03600
Ag	Ag	0.48790 0.74306 0.93223 0.46100
Ag	Ag	0.90630 0.82403 0.95366 0.46500
Ag	Ag	0.57111 0.69106 0.03443 0.45200
N 	N 	0.35620 0.90550 0.92520 -0.21700
N 	N 	0.63120 0.58690 0.92860 -0.22600
N 	N 	0.12100 0.92180 0.92280 -0.21300
N 	N 	0.76960 0.77560 0.98680 -0.18800
N 	N 	0.37070 0.58420 0.06990 -0.22500
C 	C 	0.40610 0.85110 0.92790 -0.11100
C 	C 	0.57150 0.63870 0.92980 -0.13100
C 	C 	0.04600 0.88110 0.92990 -0.11900
C 	C 	0.70050 0.74890 0.00620 -0.16300
C 	C 	0.44250 0.62780 0.06040 -0.13900
C 	C 	0.33950 0.97720 0.83440 0.09400
H 	H 	0.40350 0.96050 0.84970 -0.01800
C 	C 	0.34140 0.97720 0.78960 -0.10000
H 	H 	0.40730 0.96120 0.77530 0.06500
C 	C 	0.34120 0.02800 0.69530 -0.05300
H 	H 	0.40340 0.04820 0.71050 0.02900
C 	C 	0.34310 0.02720 0.65190 -0.05500
H 	H 	0.40740 0.04490 0.63710 0.02100
C 	C 	0.34580 0.98240 0.55790 -0.12700
H 	H 	0.41340 0.96980 0.57210 0.06000
C 	C 	0.34200 0.98350 0.51340 0.06700
H 	H 	0.40850 0.97190 0.49820 -0.02400
C 	C 	0.65700 0.48620 0.83850 0.07300
H 	H 	0.59020 0.47620 0.85380 -0.02000
C 	C 	0.65380 0.48570 0.79470 -0.14700
H 	H 	0.58550 0.47560 0.78040 0.07000
C 	C 	0.66640 0.53780 0.70130 -0.06300
H 	H 	0.60900 0.56480 0.71620 0.04000
C 	C 	0.66520 0.53670 0.65660 -0.03500
H 	H 	0.60600 0.56110 0.64150 0.02000
C 	C 	0.65800 0.50500 0.56320 -0.20100
H 	H 	0.58850 0.50810 0.57750 0.07600
C 	C 	0.65900 0.50600 0.51740 0.06900
H 	H 	0.59090 0.51130 0.50250 -0.03600
Ag	Ag	0.01210 0.25694 0.93223 0.45900
Ag	Ag	0.59370 0.17597 0.95366 0.45800
Ag	Ag	0.92889 0.30894 0.03443 0.45200
N 	N 	0.14380 0.09450 0.92520 -0.23100
N 	N 	0.86880 0.41310 0.92860 -0.22600
N 	N 	0.37900 0.07820 0.92280 -0.22900
N 	N 	0.73040 0.22440 0.98680 -0.19000
N 	N 	0.12930 0.41580 0.06990 -0.22500
C 	C 	0.09390 0.14890 0.92790 -0.11700
C 	C 	0.92850 0.36130 0.92980 -0.13200
C 	C 	0.45400 0.11890 0.92990 -0.13400
C 	C 	0.79950 0.25110 0.00620 -0.16500
C 	C 	0.05750 0.37220 0.06040 -0.14000
C 	C 	0.16050 0.02280 0.83440 0.05700
H 	H 	0.09650 0.03950 0.84970 -0.02400
C 	C 	0.15860 0.02280 0.78960 -0.13700
H 	H 	0.09270 0.03880 0.77530 0.05800
C 	C 	0.15880 0.97200 0.69530 -0.01800
H 	H 	0.09660 0.95180 0.71050 0.03800
C 	C 	0.15690 0.97280 0.65190 -0.02100
H 	H 	0.09260 0.95510 0.63710 0.02900
C 	C 	0.15420 0.01760 0.55790 -0.16300
H 	H 	0.08660 0.03020 0.57210 0.05200
C 	C 	0.15800 0.01650 0.51340 0.03000
H 	H 	0.09150 0.02810 0.49820 -0.03200
C 	C 	0.84300 0.51380 0.83850 0.07300
H 	H 	0.90980 0.52380 0.85380 -0.02000
C 	C 	0.84620 0.51430 0.79470 -0.14600
H 	H 	0.91450 0.52440 0.78040 0.07000
C 	C 	0.83360 0.46220 0.70130 -0.06300
H 	H 	0.89100 0.43520 0.71620 0.03900
C 	C 	0.83480 0.46330 0.65660 -0.03500
H 	H 	0.89400 0.43890 0.64150 0.02000
C 	C 	0.84200 0.49500 0.56320 -0.20100
H 	H 	0.91150 0.49190 0.57750 0.07600
C 	C 	0.84100 0.49400 0.51740 0.06900
H 	H 	0.90910 0.48870 0.50250 -0.03600
Fe	Fe	0.25000 0.00000 0.42348 1.12200
N 	N 	0.25000 0.00000 0.35560 -0.26800
N 	N 	0.25000 0.00000 0.99080 -0.27100
C 	C 	0.25000 0.00000 0.26560 0.03300
C 	C 	0.25000 0.00000 0.21790 -0.04600
C 	C 	0.25000 0.00000 0.12880 -0.05800
C 	C 	0.25000 0.00000 0.08210 0.01100
Fe	Fe	0.75000 -0.00000 0.07652 1.12200
N 	N 	0.75000 0.00000 0.14440 -0.26800
N 	N 	0.75000 0.00000 0.50920 -0.27100
C 	C 	0.75000 0.00000 0.23440 0.03300
C 	C 	0.75000 0.00000 0.28210 -0.04600
C 	C 	0.75000 0.00000 0.37120 -0.05800
C 	C 	0.75000 0.00000 0.41790 0.01000
Fe	Fe	0.75000 0.00000 0.57652 1.12200
N 	N 	0.75000 0.00000 0.64440 -0.26800
N 	N 	0.75000 0.00000 0.00920 -0.27100
C 	C 	0.75000 0.00000 0.73440 0.03300
C 	C 	0.75000 0.00000 0.78210 -0.04600
C 	C 	0.75000 0.00000 0.87120 -0.05800
C 	C 	0.75000 0.00000 0.91790 0.01100
Fe	Fe	0.25000 0.00000 0.92348 1.12200
N 	N 	0.25000 0.00000 0.85560 -0.26800
N 	N 	0.25000 0.00000 0.49080 -0.27100
C 	C 	0.25000 0.00000 0.76560 0.03300
C 	C 	0.25000 0.00000 0.71790 -0.04600
C 	C 	0.25000 -0.00000 0.62880 -0.05800
C 	C 	0.25000 0.00000 0.58210 0.01000
Fe	Fe	0.75000 0.50000 0.42820 1.13400
N 	N 	0.75000 0.50000 0.36050 -0.25100
N 	N 	0.75000 0.50000 0.99600 -0.26400
C 	C 	0.75000 0.50000 0.27080 0.06900
C 	C 	0.75000 0.50000 0.22450 -0.01000
C 	C 	0.75000 0.50000 0.13430 -0.05100
C 	C 	0.75000 0.50000 0.08650 0.10000
Fe	Fe	0.25000 0.50000 0.07180 1.13400
N 	N 	0.25000 0.50000 0.13950 -0.25100
N 	N 	0.25000 0.50000 0.50400 -0.26400
C 	C 	0.25000 0.50000 0.22920 0.06900
C 	C 	0.25000 0.50000 0.27550 -0.01000
C 	C 	0.25000 0.50000 0.36570 -0.05100
C 	C 	0.25000 0.50000 0.41350 0.10100
Fe	Fe	0.25000 0.50000 0.57180 1.13400
N 	N 	0.25000 0.50000 0.63950 -0.25100
N 	N 	0.25000 0.50000 0.00400 -0.26400
C 	C 	0.25000 0.50000 0.72920 0.06900
C 	C 	0.25000 0.50000 0.77550 -0.01000
C 	C 	0.25000 0.50000 0.86570 -0.05100
C 	C 	0.25000 0.50000 0.91350 0.10000
Fe	Fe	0.75000 0.50000 0.92820 1.13400
N 	N 	0.75000 0.50000 0.86050 -0.25100
N 	N 	0.75000 0.50000 0.49600 -0.26400
C 	C 	0.75000 0.50000 0.77080 0.06900
C 	C 	0.75000 0.50000 0.72450 -0.01000
C 	C 	0.75000 0.50000 0.63430 -0.05100
C 	C 	0.75000 0.50000 0.58650 0.10100
