data_crystal

_cell_length_a 8.72800
_cell_length_b 9.28900
_cell_length_c 18.91100
_cell_angle_alpha 90.00000
_cell_angle_beta  90.00000
_cell_angle_gamma 109.30700

_symmetry_space_group_name_	'P 1'
_symmetry_space_group_name_H-M	'P 1'

loop_
_symmetry_equiv_pos_as_xyz
  x,y,z

loop_
_atom_site_label
_atom_site_type_symbol
_atom_site_fract_x
_atom_site_fract_y
_atom_site_fract_z
_atom_site_charge
Tb	Tb	0.20942 0.48394 0.44684 1.78800
Tb	Tb	0.79058 0.51606 0.55316 1.78800
Tb	Tb	0.20942 0.98394 0.05316 1.72700
Tb	Tb	0.79058 0.01606 0.94684 1.72700
H 	H 	0.79680 0.05970 0.44020 0.04400
H 	H 	0.58600 0.57740 0.29020 0.01400
H 	H 	0.74400 0.66820 0.19190 0.07300
H 	H 	0.41400 0.92260 0.79020 0.01800
H 	H 	0.79680 0.55970 0.05980 0.04100
H 	H 	0.25600 0.83180 0.69190 0.06900
H 	H 	0.58600 0.07740 0.20980 0.01900
H 	H 	0.05990 0.98560 0.31270 0.05600
H 	H 	0.20320 0.44030 0.94020 0.04100
H 	H 	0.94010 0.01440 0.68730 0.05600
H 	H 	0.94010 0.51440 0.81270 0.06700
H 	H 	0.25600 0.33180 0.80810 0.07400
H 	H 	0.05990 0.48560 0.18730 0.06700
H 	H 	0.20320 0.94030 0.55980 0.04500
H 	H 	0.74400 0.16820 0.30810 0.06900
H 	H 	0.41400 0.42260 0.70980 0.01500
C 	C 	0.12840 0.65520 0.86760 0.07000
C 	C 	0.72710 0.22490 0.13870 -0.16700
C 	C 	0.93400 0.92240 0.43760 0.02900
C 	C 	0.03530 0.59700 0.80810 -0.08000
C 	C 	0.94530 0.61390 0.97440 -0.11700
C 	C 	0.03530 0.09700 0.69190 -0.07100
C 	C 	0.27290 0.27510 0.63870 -0.17100
C 	C 	0.61600 0.15900 0.07690 0.47900
C 	C 	0.93400 0.42240 0.06240 0.01300
C 	C 	0.06600 0.07760 0.56240 0.02900
C 	C 	0.38400 0.84100 0.92310 0.47900
C 	C 	0.08260 0.66040 0.74230 -0.01800
C 	C 	0.77510 0.71420 0.23570 -0.09600
C 	C 	0.01660 0.90090 0.17730 0.24200
C 	C 	0.68160 0.15960 0.20530 0.05300
C 	C 	0.12140 0.46430 0.96380 -0.02500
C 	C 	0.31840 0.84040 0.79470 0.05300
C 	C 	0.72710 0.72490 0.36130 -0.17100
C 	C 	0.31840 0.34040 0.70530 0.06000
C 	C 	0.96470 0.40300 0.19190 -0.08000
C 	C 	0.89510 0.74550 0.95210 0.35500
C 	C 	0.98340 0.09910 0.82270 0.24200
C 	C 	0.68160 0.65960 0.29470 0.06000
C 	C 	0.06600 0.57760 0.93760 0.01300
C 	C 	0.27290 0.77510 0.86130 -0.16700
C 	C 	0.12840 0.15520 0.63240 0.06600
C 	C 	0.91740 0.83960 0.24230 0.00100
C 	C 	0.91740 0.33960 0.25770 -0.01800
C 	C 	0.12140 0.96430 0.53620 -0.04100
C 	C 	0.10490 0.25450 0.04790 0.35500
C 	C 	0.10490 0.75450 0.45210 0.35800
C 	C 	0.22490 0.78580 0.73570 -0.08400
C 	C 	0.05470 0.88610 0.47440 -0.12100
C 	C 	0.08260 0.16040 0.75770 0.00100
C 	C 	0.87160 0.84480 0.36760 0.06600
C 	C 	0.87160 0.34480 0.13240 0.07000
C 	C 	0.05470 0.38610 0.02560 -0.11700
C 	C 	0.22490 0.28580 0.76430 -0.09600
C 	C 	0.96470 0.90300 0.30810 -0.07100
C 	C 	0.89510 0.24550 0.54790 0.35800
C 	C 	0.01660 0.40090 0.32270 0.29000
C 	C 	0.38400 0.34100 0.57690 0.48600
C 	C 	0.94530 0.11390 0.52560 -0.12100
C 	C 	0.61600 0.65900 0.42310 0.48600
C 	C 	0.77510 0.21420 0.26430 -0.08400
C 	C 	0.87860 0.53570 0.03620 -0.02500
C 	C 	0.98340 0.59910 0.67730 0.29000
C 	C 	0.87860 0.03570 0.46380 -0.04100
O 	O 	0.15240 0.00440 0.18190 -0.34700
O 	O 	0.23960 0.77080 0.42480 -0.37300
O 	O 	0.84760 0.49560 0.68190 -0.37700
O 	O 	0.96210 0.34550 0.38200 -0.41900
O 	O 	0.00600 0.12060 0.03540 -0.52100
O 	O 	0.96210 0.84550 0.11800 -0.39500
O 	O 	0.67490 0.16030 0.01670 -0.51700
O 	O 	0.67490 0.66030 0.48330 -0.52900
O 	O 	0.03790 0.65450 0.61800 -0.41900
O 	O 	0.00600 0.62060 0.46460 -0.53800
O 	O 	0.76040 0.72920 0.92480 -0.36500
O 	O 	0.23960 0.27080 0.07520 -0.36500
O 	O 	0.99400 0.37940 0.53540 -0.53800
O 	O 	0.15240 0.50440 0.31810 -0.37700
O 	O 	0.76040 0.22920 0.57520 -0.37300
O 	O 	0.84760 0.99560 0.81810 -0.34700
O 	O 	0.46720 0.60850 0.40900 -0.52100
O 	O 	0.53280 0.39150 0.59100 -0.52100
O 	O 	0.99400 0.87940 0.96460 -0.52100
O 	O 	0.53280 0.89150 0.90900 -0.50800
O 	O 	0.32510 0.83970 0.98330 -0.51700
O 	O 	0.03790 0.15450 0.88200 -0.39500
O 	O 	0.32510 0.33970 0.51670 -0.52900
O 	O 	0.46720 0.10850 0.09100 -0.50800
