data_crystal

_cell_length_a 8.78300
_cell_length_b 9.28500
_cell_length_c 18.95200
_cell_angle_alpha 90.00000
_cell_angle_beta  90.00000
_cell_angle_gamma 109.39800

_symmetry_space_group_name_	'P 1'
_symmetry_space_group_name_H-M	'P 1'

loop_
_symmetry_equiv_pos_as_xyz
  x,y,z

loop_
_atom_site_label
_atom_site_type_symbol
_atom_site_fract_x
_atom_site_fract_y
_atom_site_fract_z
_atom_site_charge
Gd	Gd	0.21026 0.48489 0.55312 1.51600
Gd	Gd	0.78974 0.01511 0.05312 1.47000
Gd	Gd	0.21026 0.98489 0.94688 1.47100
Gd	Gd	0.78974 0.51511 0.44688 1.51700
H 	H 	0.20140 0.44090 0.05890 0.04600
H 	H 	0.20140 0.94090 0.44110 0.05000
H 	H 	0.58970 0.57410 0.70950 0.02500
H 	H 	0.58970 0.07410 0.79050 0.02900
H 	H 	0.74510 0.16900 0.69180 0.06700
H 	H 	0.79860 0.55910 0.94110 0.04600
H 	H 	0.41030 0.42590 0.29050 0.02500
H 	H 	0.25490 0.33100 0.19180 0.07100
H 	H 	0.93850 0.01630 0.31290 0.05900
H 	H 	0.06150 0.98370 0.68710 0.05900
H 	H 	0.74510 0.66900 0.80820 0.07100
H 	H 	0.93850 0.51630 0.18710 0.06900
H 	H 	0.25490 0.83100 0.30820 0.06700
H 	H 	0.41030 0.92590 0.20950 0.02900
H 	H 	0.06150 0.48370 0.81290 0.06900
H 	H 	0.79860 0.05910 0.55890 0.05000
C 	C 	0.27220 0.27520 0.36100 -0.14400
C 	C 	0.01780 0.90060 0.82180 0.24500
C 	C 	0.22350 0.28590 0.23570 -0.08100
C 	C 	0.38360 0.84000 0.07740 0.42900
C 	C 	0.68350 0.15790 0.79490 0.03700
C 	C 	0.01780 0.40060 0.67820 0.28800
C 	C 	0.72780 0.72480 0.63900 -0.14400
C 	C 	0.94390 0.61300 0.02590 -0.10500
C 	C 	0.12030 0.46530 0.03540 -0.02500
C 	C 	0.22350 0.78590 0.26430 -0.07100
C 	C 	0.68350 0.65790 0.70510 0.04200
C 	C 	0.27220 0.77520 0.13900 -0.14100
C 	C 	0.06730 0.07850 0.43740 0.02900
C 	C 	0.91730 0.33860 0.74240 -0.02300
C 	C 	0.91730 0.83860 0.75760 -0.00600
C 	C 	0.89630 0.74490 0.04860 0.34000
C 	C 	0.96580 0.90220 0.69150 -0.06400
C 	C 	0.31650 0.34210 0.29490 0.04200
C 	C 	0.12780 0.65510 0.13160 0.06100
C 	C 	0.87220 0.84490 0.63160 0.05700
C 	C 	0.87970 0.03470 0.53540 -0.04000
C 	C 	0.05610 0.38700 0.97410 -0.10500
C 	C 	0.08270 0.16140 0.24240 -0.00600
C 	C 	0.96580 0.40220 0.80850 -0.07200
C 	C 	0.94390 0.11300 0.47410 -0.10800
C 	C 	0.77650 0.71410 0.76430 -0.08100
C 	C 	0.87220 0.34490 0.86840 0.06100
C 	C 	0.06730 0.57850 0.06260 0.01500
C 	C 	0.87970 0.53470 0.96460 -0.02500
C 	C 	0.61640 0.16000 0.92260 0.42900
C 	C 	0.98220 0.09940 0.17820 0.24500
C 	C 	0.08270 0.66140 0.25760 -0.02300
C 	C 	0.98220 0.59940 0.32180 0.28800
C 	C 	0.12030 0.96530 0.46460 -0.04000
C 	C 	0.93270 0.42150 0.93740 0.01500
C 	C 	0.77650 0.21410 0.73570 -0.07100
C 	C 	0.12780 0.15510 0.36840 0.05700
C 	C 	0.72780 0.22480 0.86100 -0.14100
C 	C 	0.03420 0.09780 0.30850 -0.06400
C 	C 	0.10370 0.25510 0.95140 0.34000
C 	C 	0.05610 0.88700 0.52590 -0.10800
C 	C 	0.61640 0.66000 0.57740 0.43400
C 	C 	0.89630 0.24490 0.45140 0.34100
C 	C 	0.31650 0.84210 0.20510 0.03700
C 	C 	0.03420 0.59780 0.19150 -0.07200
C 	C 	0.93270 0.92150 0.56260 0.02900
C 	C 	0.38360 0.34000 0.42260 0.43400
C 	C 	0.10370 0.75510 0.54860 0.34100
O 	O 	0.23910 0.27120 0.92500 -0.33700
O 	O 	0.67450 0.66000 0.51670 -0.46600
O 	O 	0.23910 0.77120 0.57500 -0.34300
O 	O 	0.46800 0.61170 0.59200 -0.45500
O 	O 	0.32550 0.84000 0.01670 -0.45700
O 	O 	0.00520 0.62160 0.53540 -0.47300
O 	O 	0.15180 0.50270 0.68260 -0.34700
O 	O 	0.00520 0.12160 0.96460 -0.46000
O 	O 	0.76090 0.22880 0.42500 -0.34300
O 	O 	0.53200 0.88830 0.09200 -0.44500
O 	O 	0.84820 0.99730 0.18260 -0.32100
O 	O 	0.84820 0.49730 0.31740 -0.34700
O 	O 	0.53200 0.38830 0.40800 -0.45500
O 	O 	0.99480 0.87840 0.03540 -0.46000
O 	O 	0.03690 0.15510 0.11820 -0.35800
O 	O 	0.46800 0.11170 0.90800 -0.44500
O 	O 	0.32550 0.34000 0.48330 -0.46600
O 	O 	0.96310 0.84490 0.88180 -0.35800
O 	O 	0.99480 0.37840 0.46460 -0.47300
O 	O 	0.67450 0.16000 0.98330 -0.45700
O 	O 	0.15180 0.00270 0.81740 -0.32100
O 	O 	0.76090 0.72880 0.07500 -0.33700
O 	O 	0.03690 0.65510 0.38180 -0.37900
O 	O 	0.96310 0.34490 0.61820 -0.37900
