data_crystal

_cell_length_a 21.87290
_cell_length_b 21.87290
_cell_length_c 28.68040
_cell_angle_alpha 90.00000
_cell_angle_beta  90.00000
_cell_angle_gamma 90.00000

_symmetry_space_group_name_	'P 1'
_symmetry_space_group_name_H-M	'P 1'

loop_
_symmetry_equiv_pos_as_xyz
  x,y,z

loop_
_atom_site_label
_atom_site_type_symbol
_atom_site_fract_x
_atom_site_fract_y
_atom_site_fract_z
_atom_site_charge
O 	O 	0.43590 0.15490 0.45100 -0.43500
O 	O 	0.43580 0.25810 0.45110 -0.45800
C 	C 	0.12760 0.04930 0.24640 0.12100
C 	C 	0.18970 0.02990 0.23890 -0.14600
H 	H 	0.22420 0.05570 0.23480 0.07300
C 	C 	0.20000 0.16180 0.28680 -0.16900
H 	H 	0.19690 0.13410 0.31220 0.08300
C 	C 	0.24550 0.20520 0.28630 0.07700
C 	C 	0.29040 0.20620 0.32460 0.00900
C 	C 	0.31310 0.14930 0.34210 -0.08200
H 	H 	0.30050 0.11170 0.32840 0.05100
C 	C 	0.35350 0.14960 0.37930 0.01900
H 	H 	0.36640 0.11220 0.39290 0.03600
C 	C 	0.37470 0.20450 0.39620 -0.09700
C 	C 	0.35440 0.26230 0.37780 0.01700
H 	H 	0.36930 0.29980 0.39010 0.03300
C 	C 	0.31370 0.26150 0.34260 -0.08200
H 	H 	0.30040 0.29910 0.32950 0.05400
C 	C 	0.41920 0.20630 0.43660 0.37100
O 	O 	0.56410 0.84510 0.45100 -0.43100
O 	O 	0.56420 0.74190 0.45110 -0.45700
C 	C 	0.87240 0.95070 0.24640 0.11600
C 	C 	0.81030 0.97010 0.23890 -0.03300
H 	H 	0.77580 0.94430 0.23480 0.04700
C 	C 	0.80000 0.83820 0.28680 -0.16600
H 	H 	0.80310 0.86590 0.31220 0.08900
C 	C 	0.75450 0.79480 0.28630 0.08000
C 	C 	0.70960 0.79380 0.32460 0.01200
C 	C 	0.68690 0.85070 0.34210 -0.07900
H 	H 	0.69950 0.88830 0.32840 0.05900
C 	C 	0.64650 0.85040 0.37930 0.02100
H 	H 	0.63360 0.88780 0.39290 0.04500
C 	C 	0.62530 0.79550 0.39620 -0.09400
C 	C 	0.64560 0.73770 0.37780 0.01800
H 	H 	0.63070 0.70020 0.39010 0.03500
C 	C 	0.68630 0.73850 0.34260 -0.08000
H 	H 	0.69960 0.70090 0.32950 0.05600
C 	C 	0.58080 0.79370 0.43660 0.37100
O 	O 	0.84510 0.43590 0.95100 -0.41000
O 	O 	0.74190 0.43580 0.95110 -0.43800
C 	C 	0.95070 0.12760 0.74640 0.11700
C 	C 	0.97010 0.18970 0.73890 -0.03100
H 	H 	0.94430 0.22420 0.73480 0.04700
C 	C 	0.83820 0.20000 0.78680 -0.16900
H 	H 	0.86590 0.19690 0.81220 0.09100
C 	C 	0.79480 0.24550 0.78630 0.08300
C 	C 	0.79380 0.29040 0.82460 0.01000
C 	C 	0.85070 0.31310 0.84210 -0.07400
H 	H 	0.88830 0.30050 0.82840 0.05900
C 	C 	0.85040 0.35350 0.87930 0.01800
H 	H 	0.88780 0.36640 0.89290 0.05100
C 	C 	0.79550 0.37470 0.89620 -0.08600
C 	C 	0.73770 0.35440 0.87780 0.01400
H 	H 	0.70020 0.36930 0.89010 0.04000
C 	C 	0.73850 0.31370 0.84260 -0.07500
H 	H 	0.70090 0.30040 0.82950 0.05500
C 	C 	0.79370 0.41920 0.93660 0.36600
O 	O 	0.15490 0.56410 0.95100 -0.41400
O 	O 	0.25810 0.56420 0.95110 -0.43700
C 	C 	0.04930 0.87240 0.74640 0.12300
C 	C 	0.02990 0.81030 0.73890 -0.13900
H 	H 	0.05570 0.77580 0.73480 0.07400
C 	C 	0.16180 0.80000 0.78680 -0.16900
H 	H 	0.13410 0.80310 0.81220 0.08900
C 	C 	0.20520 0.75450 0.78630 0.08200
C 	C 	0.20620 0.70960 0.82460 0.01000
C 	C 	0.14930 0.68690 0.84210 -0.07600
H 	H 	0.11170 0.69950 0.82840 0.05300
C 	C 	0.14960 0.64650 0.87930 0.01700
H 	H 	0.11220 0.63360 0.89290 0.04400
C 	C 	0.20450 0.62530 0.89620 -0.08800
C 	C 	0.26230 0.64560 0.87780 0.01500
H 	H 	0.29980 0.63070 0.89010 0.04000
C 	C 	0.26150 0.68630 0.84260 -0.07600
H 	H 	0.29910 0.69960 0.82950 0.05700
C 	C 	0.20630 0.58080 0.93660 0.36700
O 	O 	0.56410 0.15490 0.54900 -0.43600
O 	O 	0.56420 0.25810 0.54890 -0.45800
C 	C 	0.87240 0.04930 0.75360 0.12400
C 	C 	0.81030 0.02990 0.76110 -0.13900
H 	H 	0.77580 0.05570 0.76520 0.07600
C 	C 	0.80000 0.16180 0.71320 -0.16800
H 	H 	0.80310 0.13410 0.68780 0.08600
C 	C 	0.75450 0.20520 0.71370 0.08000
C 	C 	0.70960 0.20620 0.67540 0.01100
C 	C 	0.68690 0.14930 0.65790 -0.08100
H 	H 	0.69950 0.11170 0.67160 0.05300
C 	C 	0.64650 0.14960 0.62070 0.02000
H 	H 	0.63360 0.11220 0.60710 0.03800
C 	C 	0.62530 0.20450 0.60380 -0.09600
C 	C 	0.64560 0.26230 0.62220 0.01800
H 	H 	0.63070 0.29980 0.60990 0.03500
C 	C 	0.68630 0.26150 0.65740 -0.08000
H 	H 	0.69960 0.29910 0.67050 0.05600
C 	C 	0.58080 0.20630 0.56340 0.37100
O 	O 	0.43590 0.84510 0.54900 -0.43100
O 	O 	0.43580 0.74190 0.54890 -0.45800
C 	C 	0.12760 0.95070 0.75360 0.11700
C 	C 	0.18970 0.97010 0.76110 -0.03000
H 	H 	0.22420 0.94430 0.76520 0.04900
C 	C 	0.20000 0.83820 0.71320 -0.16900
H 	H 	0.19690 0.86590 0.68780 0.08800
C 	C 	0.24550 0.79480 0.71370 0.08100
C 	C 	0.29040 0.79380 0.67540 0.01100
C 	C 	0.31310 0.85070 0.65790 -0.07900
H 	H 	0.30050 0.88830 0.67160 0.05900
C 	C 	0.35350 0.85040 0.62070 0.02100
H 	H 	0.36640 0.88780 0.60710 0.04500
C 	C 	0.37470 0.79550 0.60380 -0.09400
C 	C 	0.35440 0.73770 0.62220 0.01700
H 	H 	0.36930 0.70020 0.60990 0.03400
C 	C 	0.31370 0.73850 0.65740 -0.08000
H 	H 	0.30040 0.70090 0.67050 0.05400
C 	C 	0.41920 0.79370 0.56340 0.37000
O 	O 	0.15490 0.43590 0.04900 -0.44500
O 	O 	0.25810 0.43580 0.04890 -0.46900
C 	C 	0.04930 0.12760 0.25360 0.12100
C 	C 	0.02990 0.18970 0.26110 -0.14500
H 	H 	0.05570 0.22420 0.26520 0.07400
C 	C 	0.16180 0.20000 0.21320 -0.16900
H 	H 	0.13410 0.19690 0.18780 0.08100
C 	C 	0.20520 0.24550 0.21370 0.07600
C 	C 	0.20620 0.29040 0.17540 0.00900
C 	C 	0.14930 0.31310 0.15790 -0.08500
H 	H 	0.11170 0.30050 0.17160 0.05100
C 	C 	0.14960 0.35350 0.12070 0.02000
H 	H 	0.11220 0.36640 0.10710 0.03300
C 	C 	0.20450 0.37470 0.10380 -0.10200
C 	C 	0.26230 0.35440 0.12220 0.01700
H 	H 	0.29980 0.36930 0.10990 0.02900
C 	C 	0.26150 0.31370 0.15740 -0.08400
H 	H 	0.29910 0.30040 0.17050 0.05200
C 	C 	0.20630 0.41920 0.06340 0.37000
O 	O 	0.84510 0.56410 0.04900 -0.43900
O 	O 	0.74190 0.56420 0.04890 -0.46700
C 	C 	0.95070 0.87240 0.25360 0.11600
C 	C 	0.97010 0.81030 0.26110 -0.03300
H 	H 	0.94430 0.77580 0.26520 0.04800
C 	C 	0.83820 0.80000 0.21320 -0.16600
H 	H 	0.86590 0.80310 0.18780 0.08700
C 	C 	0.79480 0.75450 0.21370 0.07900
C 	C 	0.79380 0.70960 0.17540 0.01200
C 	C 	0.85070 0.68690 0.15790 -0.08100
H 	H 	0.88830 0.69950 0.17160 0.05900
C 	C 	0.85040 0.64650 0.12070 0.02200
H 	H 	0.88780 0.63360 0.10710 0.04200
C 	C 	0.79550 0.62530 0.10380 -0.09800
C 	C 	0.73770 0.64560 0.12220 0.01800
H 	H 	0.70020 0.63070 0.10990 0.03100
C 	C 	0.73850 0.68630 0.15740 -0.08300
H 	H 	0.70090 0.69960 0.17050 0.05400
C 	C 	0.79370 0.58080 0.06340 0.37000
O 	O 	0.56410 0.84510 0.54900 -0.43000
O 	O 	0.56420 0.74190 0.54890 -0.45700
C 	C 	0.87240 0.95070 0.75360 0.11800
C 	C 	0.81030 0.97010 0.76110 -0.03100
H 	H 	0.77580 0.94430 0.76520 0.05000
C 	C 	0.80000 0.83820 0.71320 -0.16700
H 	H 	0.80310 0.86590 0.68780 0.09000
C 	C 	0.75450 0.79480 0.71370 0.08200
C 	C 	0.70960 0.79380 0.67540 0.01200
C 	C 	0.68690 0.85070 0.65790 -0.07800
H 	H 	0.69950 0.88830 0.67160 0.06000
C 	C 	0.64650 0.85040 0.62070 0.02100
H 	H 	0.63360 0.88780 0.60710 0.04600
C 	C 	0.62530 0.79550 0.60380 -0.09300
C 	C 	0.64560 0.73770 0.62220 0.01800
H 	H 	0.63070 0.70020 0.60990 0.03500
C 	C 	0.68630 0.73850 0.65740 -0.07900
H 	H 	0.69960 0.70090 0.67050 0.05600
C 	C 	0.58080 0.79370 0.56340 0.37100
O 	O 	0.43590 0.15490 0.54900 -0.43600
O 	O 	0.43580 0.25810 0.54890 -0.45800
C 	C 	0.12760 0.04930 0.75360 0.12300
C 	C 	0.18970 0.02990 0.76110 -0.14400
H 	H 	0.22420 0.05570 0.76520 0.07600
C 	C 	0.20000 0.16180 0.71320 -0.17000
H 	H 	0.19690 0.13410 0.68780 0.08400
C 	C 	0.24550 0.20520 0.71370 0.07900
C 	C 	0.29040 0.20620 0.67540 0.00900
C 	C 	0.31310 0.14930 0.65790 -0.08100
H 	H 	0.30050 0.11170 0.67160 0.05200
C 	C 	0.35350 0.14960 0.62070 0.01900
H 	H 	0.36640 0.11220 0.60710 0.03700
C 	C 	0.37470 0.20450 0.60380 -0.09700
C 	C 	0.35440 0.26230 0.62220 0.01700
H 	H 	0.36930 0.29980 0.60990 0.03400
C 	C 	0.31370 0.26150 0.65740 -0.08100
H 	H 	0.30040 0.29910 0.67050 0.05400
C 	C 	0.41920 0.20630 0.56340 0.37100
O 	O 	0.15490 0.56410 0.04900 -0.44400
O 	O 	0.25810 0.56420 0.04890 -0.46800
C 	C 	0.04930 0.87240 0.25360 0.12200
C 	C 	0.02990 0.81030 0.26110 -0.14000
H 	H 	0.05570 0.77580 0.26520 0.07400
C 	C 	0.16180 0.80000 0.21320 -0.16700
H 	H 	0.13410 0.80310 0.18780 0.08300
C 	C 	0.20520 0.75450 0.21370 0.07700
C 	C 	0.20620 0.70960 0.17540 0.01100
C 	C 	0.14930 0.68690 0.15790 -0.08400
H 	H 	0.11170 0.69950 0.17160 0.05200
C 	C 	0.14960 0.64650 0.12070 0.02100
H 	H 	0.11220 0.63360 0.10710 0.03400
C 	C 	0.20450 0.62530 0.10380 -0.10100
C 	C 	0.26230 0.64560 0.12220 0.01800
H 	H 	0.29980 0.63070 0.10990 0.03000
C 	C 	0.26150 0.68630 0.15740 -0.08400
H 	H 	0.29910 0.69960 0.17050 0.05400
C 	C 	0.20630 0.58080 0.06340 0.37100
O 	O 	0.84510 0.43590 0.04900 -0.43900
O 	O 	0.74190 0.43580 0.04890 -0.46800
C 	C 	0.95070 0.12760 0.25360 0.11500
C 	C 	0.97010 0.18970 0.26110 -0.03100
H 	H 	0.94430 0.22420 0.26520 0.04700
C 	C 	0.83820 0.20000 0.21320 -0.16700
H 	H 	0.86590 0.19690 0.18780 0.08500
C 	C 	0.79480 0.24550 0.21370 0.07800
C 	C 	0.79380 0.29040 0.17540 0.01100
C 	C 	0.85070 0.31310 0.15790 -0.08200
H 	H 	0.88830 0.30050 0.17160 0.05900
C 	C 	0.85040 0.35350 0.12070 0.02100
H 	H 	0.88780 0.36640 0.10710 0.04100
C 	C 	0.79550 0.37470 0.10380 -0.09900
C 	C 	0.73770 0.35440 0.12220 0.01700
H 	H 	0.70020 0.36930 0.10990 0.03000
C 	C 	0.73850 0.31370 0.15740 -0.08300
H 	H 	0.70090 0.30040 0.17050 0.05200
C 	C 	0.79370 0.41920 0.06340 0.37000
O 	O 	0.43590 0.84510 0.45100 -0.43100
O 	O 	0.43580 0.74190 0.45110 -0.45800
C 	C 	0.12760 0.95070 0.24640 0.11500
C 	C 	0.18970 0.97010 0.23890 -0.03100
H 	H 	0.22420 0.94430 0.23480 0.04500
C 	C 	0.20000 0.83820 0.28680 -0.16700
H 	H 	0.19690 0.86590 0.31220 0.08700
C 	C 	0.24550 0.79480 0.28630 0.07900
C 	C 	0.29040 0.79380 0.32460 0.01100
C 	C 	0.31310 0.85070 0.34210 -0.08000
H 	H 	0.30050 0.88830 0.32840 0.05900
C 	C 	0.35350 0.85040 0.37930 0.02000
H 	H 	0.36640 0.88780 0.39290 0.04400
C 	C 	0.37470 0.79550 0.39620 -0.09400
C 	C 	0.35440 0.73770 0.37780 0.01700
H 	H 	0.36930 0.70020 0.39010 0.03400
C 	C 	0.31370 0.73850 0.34260 -0.08100
H 	H 	0.30040 0.70090 0.32950 0.05400
C 	C 	0.41920 0.79370 0.43660 0.37000
O 	O 	0.56410 0.15490 0.45100 -0.43600
O 	O 	0.56420 0.25810 0.45110 -0.45800
C 	C 	0.87240 0.04930 0.24640 0.12200
C 	C 	0.81030 0.02990 0.23890 -0.14100
H 	H 	0.77580 0.05570 0.23480 0.07200
C 	C 	0.80000 0.16180 0.28680 -0.16700
H 	H 	0.80310 0.13410 0.31220 0.08600
C 	C 	0.75450 0.20520 0.28630 0.07800
C 	C 	0.70960 0.20620 0.32460 0.01100
C 	C 	0.68690 0.14930 0.34210 -0.08200
H 	H 	0.69950 0.11170 0.32840 0.05200
C 	C 	0.64650 0.14960 0.37930 0.02000
H 	H 	0.63360 0.11220 0.39290 0.03700
C 	C 	0.62530 0.20450 0.39620 -0.09700
C 	C 	0.64560 0.26230 0.37780 0.01800
H 	H 	0.63070 0.29980 0.39010 0.03400
C 	C 	0.68630 0.26150 0.34260 -0.08100
H 	H 	0.69960 0.29910 0.32950 0.05600
C 	C 	0.58080 0.20630 0.43660 0.37100
O 	O 	0.84510 0.56410 0.95100 -0.40900
O 	O 	0.74190 0.56420 0.95110 -0.43700
C 	C 	0.95070 0.87240 0.74640 0.11800
C 	C 	0.97010 0.81030 0.73890 -0.03300
H 	H 	0.94430 0.77580 0.73480 0.04900
C 	C 	0.83820 0.80000 0.78680 -0.16700
H 	H 	0.86590 0.80310 0.81220 0.09300
C 	C 	0.79480 0.75450 0.78630 0.08400
C 	C 	0.79380 0.70960 0.82460 0.01100
C 	C 	0.85070 0.68690 0.84210 -0.07400
H 	H 	0.88830 0.69950 0.82840 0.06000
C 	C 	0.85040 0.64650 0.87930 0.01800
H 	H 	0.88780 0.63360 0.89290 0.05100
C 	C 	0.79550 0.62530 0.89620 -0.08500
C 	C 	0.73770 0.64560 0.87780 0.01500
H 	H 	0.70020 0.63070 0.89010 0.04100
C 	C 	0.73850 0.68630 0.84260 -0.07500
H 	H 	0.70090 0.69960 0.82950 0.05700
C 	C 	0.79370 0.58080 0.93660 0.36600
O 	O 	0.15490 0.43590 0.95100 -0.41500
O 	O 	0.25810 0.43580 0.95110 -0.43800
C 	C 	0.04930 0.12760 0.74640 0.12200
C 	C 	0.02990 0.18970 0.73890 -0.14400
H 	H 	0.05570 0.22420 0.73480 0.07500
C 	C 	0.16180 0.20000 0.78680 -0.17100
H 	H 	0.13410 0.19690 0.81220 0.08700
C 	C 	0.20520 0.24550 0.78630 0.08100
C 	C 	0.20620 0.29040 0.82460 0.00800
C 	C 	0.14930 0.31310 0.84210 -0.07700
H 	H 	0.11170 0.30050 0.82840 0.05200
C 	C 	0.14960 0.35350 0.87930 0.01600
H 	H 	0.11220 0.36640 0.89290 0.04300
C 	C 	0.20450 0.37470 0.89620 -0.08900
C 	C 	0.26230 0.35440 0.87780 0.01400
H 	H 	0.29980 0.36930 0.89010 0.03900
C 	C 	0.26150 0.31370 0.84260 -0.07700
H 	H 	0.29910 0.30040 0.82950 0.05500
C 	C 	0.20630 0.41920 0.93660 0.36600
Co	Co	0.00000 0.00000 0.25000 1.08900
Co	Co	-0.00000 -0.00000 0.75000 1.09100
Co	Co	0.50000 0.13862 0.50000 1.19600
Co	Co	0.50000 0.27216 0.50000 1.13800
O 	O 	0.50000 0.04810 0.50000 -0.71100
Co	Co	0.50000 0.86138 0.50000 1.19700
Co	Co	0.50000 0.72784 0.50000 1.13800
O 	O 	0.50000 0.95190 0.50000 -0.68500
Co	Co	0.86138 0.50000 -0.00000 1.18200
Co	Co	0.72784 0.50000 -0.00000 1.11900
O 	O 	0.95190 0.50000 -0.00000 -0.70000
Co	Co	0.13862 0.50000 -0.00000 1.18000
Co	Co	0.27216 0.50000 -0.00000 1.11900
O 	O 	0.04810 0.50000 -0.00000 -0.72600
N 	N 	0.09040 0.00000 0.24870 -0.31000
N 	N 	0.90960 0.00000 0.24870 -0.30000
N 	N 	-0.00000 0.09040 0.74870 -0.30900
N 	N 	0.00000 0.90960 0.74870 -0.29900
N 	N 	0.90960 -0.00000 0.75130 -0.29900
N 	N 	0.09040 -0.00000 0.75130 -0.31000
N 	N 	0.00000 0.09040 0.25130 -0.31100
N 	N 	0.00000 0.90960 0.25130 -0.30000
C 	C 	0.50000 0.00000 0.50000 0.86900
C 	C 	-0.00000 0.50000 -0.00000 0.86600
C 	C 	0.10890 0.10890 0.25000 -0.17600
C 	C 	0.15840 0.15840 0.25000 0.12800
C 	C 	0.24790 0.24790 0.25000 -0.14100
H 	H 	0.27860 0.27860 0.25000 0.07500
C 	C 	0.89110 0.89110 0.25000 -0.15600
C 	C 	0.84160 0.84160 0.25000 0.12700
C 	C 	0.75210 0.75210 0.25000 -0.13900
H 	H 	0.72140 0.72140 0.25000 0.07600
C 	C 	0.89110 0.10890 0.75000 -0.16500
C 	C 	0.84160 0.15840 0.75000 0.13000
C 	C 	0.75210 0.24790 0.75000 -0.14200
H 	H 	0.72140 0.27860 0.75000 0.07700
C 	C 	0.10890 0.89110 0.75000 -0.16500
C 	C 	0.15840 0.84160 0.75000 0.13000
C 	C 	0.24790 0.75210 0.75000 -0.14200
H 	H 	0.27860 0.72140 0.75000 0.07700
C 	C 	0.89110 0.89110 0.75000 -0.15600
C 	C 	0.84160 0.84160 0.75000 0.12900
C 	C 	0.75210 0.75210 0.75000 -0.14100
H 	H 	0.72140 0.72140 0.75000 0.07800
C 	C 	0.10890 0.10890 0.75000 -0.17500
C 	C 	0.15840 0.15840 0.75000 0.13100
C 	C 	0.24790 0.24790 0.75000 -0.14300
H 	H 	0.27860 0.27860 0.75000 0.07700
C 	C 	0.10890 0.89110 0.25000 -0.16600
C 	C 	0.15840 0.84160 0.25000 0.12700
C 	C 	0.24790 0.75210 0.25000 -0.14000
H 	H 	0.27860 0.72140 0.25000 0.07500
C 	C 	0.89110 0.10890 0.25000 -0.16600
C 	C 	0.84160 0.15840 0.25000 0.12700
C 	C 	0.75210 0.24790 0.25000 -0.14000
H 	H 	0.72140 0.27860 0.25000 0.07500
