data_crystal

_cell_length_a 11.33460
_cell_length_b 15.36800
_cell_length_c 11.16700
_cell_angle_alpha 90.00000
_cell_angle_beta  90.94900
_cell_angle_gamma 90.00000

_symmetry_space_group_name_	'P 1'
_symmetry_space_group_name_H-M	'P 1'

loop_
_symmetry_equiv_pos_as_xyz
  x,y,z

loop_
_atom_site_label
_atom_site_type_symbol
_atom_site_fract_x
_atom_site_fract_y
_atom_site_fract_z
_atom_site_charge
K 	K 	0.28584 0.07458 0.01047 0.62500
O 	O 	0.47200 0.85193 0.39970 -0.38100
O 	O 	0.62000 0.93693 0.34550 -0.47800
O 	O 	0.64770 0.85650 0.77340 -0.39100
O 	O 	0.58870 0.93739 0.62080 -0.48000
C 	C 	0.72210 0.75140 0.37970 -0.02200
H 	H 	0.70340 0.75240 0.29830 0.03400
C 	C 	0.66730 0.81000 0.45540 -0.06100
C 	C 	0.69560 0.80910 0.57740 -0.09300
C 	C 	0.57770 0.87060 0.39930 0.34200
C 	C 	0.64110 0.87130 0.66450 0.33400
K 	K 	0.78584 0.57458 0.01047 0.63500
O 	O 	0.97200 0.35193 0.39970 -0.25800
O 	O 	0.12000 0.43693 0.34550 -0.46900
O 	O 	0.14770 0.35650 0.77340 -0.42100
O 	O 	0.08870 0.43739 0.62080 -0.51300
C 	C 	0.22210 0.25140 0.37970 -0.04100
H 	H 	0.20340 0.25240 0.29830 0.02700
C 	C 	0.16730 0.31000 0.45540 -0.03800
C 	C 	0.19560 0.30910 0.57740 -0.11900
C 	C 	0.07770 0.37060 0.39930 0.20400
C 	C 	0.14110 0.37130 0.66450 0.33300
K 	K 	0.71416 0.07458 0.48953 0.63700
O 	O 	0.52800 0.85193 0.10030 -0.37300
O 	O 	0.38000 0.93693 0.15450 -0.49200
O 	O 	0.35230 0.85650 0.72660 -0.40100
O 	O 	0.41130 0.93739 0.87920 -0.48800
C 	C 	0.27790 0.75140 0.12030 -0.00600
H 	H 	0.29660 0.75240 0.20170 0.01900
C 	C 	0.33270 0.81000 0.04460 -0.07200
C 	C 	0.30440 0.80910 0.92260 -0.09300
C 	C 	0.42230 0.87060 0.10070 0.34500
C 	C 	0.35890 0.87130 0.83550 0.32400
K 	K 	0.21416 0.57458 0.48953 0.62700
O 	O 	0.02800 0.35193 0.10030 -0.49100
O 	O 	0.88000 0.43693 0.15450 -0.48900
O 	O 	0.85230 0.35650 0.72660 -0.36200
O 	O 	0.91130 0.43739 0.87920 -0.43400
C 	C 	0.77790 0.25140 0.12030 0.02600
H 	H 	0.79660 0.25240 0.20170 0.02100
C 	C 	0.83270 0.31000 0.04460 -0.11200
C 	C 	0.80440 0.30910 0.92260 -0.05000
C 	C 	0.92230 0.37060 0.10070 0.48100
C 	C 	0.85890 0.37130 0.83550 0.31700
K 	K 	0.71416 0.92542 0.98953 0.63500
O 	O 	0.52800 0.14807 0.60030 -0.37700
O 	O 	0.38000 0.06307 0.65450 -0.49600
O 	O 	0.35230 0.14350 0.22660 -0.39900
O 	O 	0.41130 0.06261 0.37920 -0.48300
C 	C 	0.27790 0.24860 0.62030 0.00800
H 	H 	0.29660 0.24760 0.70170 0.01400
C 	C 	0.33270 0.19000 0.54460 -0.09300
C 	C 	0.30440 0.19090 0.42260 -0.07300
C 	C 	0.42230 0.12940 0.60070 0.35000
C 	C 	0.35890 0.12870 0.33550 0.31800
K 	K 	0.21416 0.42542 0.98953 0.62600
O 	O 	0.02800 0.64807 0.60030 -0.49700
O 	O 	0.88000 0.56307 0.65450 -0.49000
O 	O 	0.85230 0.64350 0.22660 -0.36100
O 	O 	0.91130 0.56261 0.37920 -0.43300
C 	C 	0.77790 0.74860 0.62030 0.02900
H 	H 	0.79660 0.74760 0.70170 0.02000
C 	C 	0.83270 0.69000 0.54460 -0.11600
C 	C 	0.80440 0.69090 0.42260 -0.04700
C 	C 	0.92230 0.62940 0.60070 0.48700
C 	C 	0.85890 0.62870 0.33550 0.31600
K 	K 	0.28584 0.92542 0.51047 0.62400
O 	O 	0.47200 0.14807 0.89970 -0.38200
O 	O 	0.62000 0.06307 0.84550 -0.47800
O 	O 	0.64770 0.14350 0.27340 -0.38900
O 	O 	0.58870 0.06261 0.12080 -0.48000
C 	C 	0.72210 0.24860 0.87970 -0.02000
H 	H 	0.70340 0.24760 0.79830 0.03200
C 	C 	0.66730 0.19000 0.95540 -0.06300
C 	C 	0.69560 0.19090 0.07740 -0.09100
C 	C 	0.57770 0.12940 0.89930 0.34200
C 	C 	0.64110 0.12870 0.16450 0.33300
K 	K 	0.78584 0.42542 0.51047 0.63400
O 	O 	0.97200 0.64807 0.89970 -0.26000
O 	O 	0.12000 0.56307 0.84550 -0.47100
O 	O 	0.14770 0.64350 0.27340 -0.41800
O 	O 	0.08870 0.56261 0.12080 -0.50800
C 	C 	0.22210 0.74860 0.87970 -0.02700
H 	H 	0.20340 0.74760 0.79830 0.02100
C 	C 	0.16730 0.69000 0.95540 -0.05700
C 	C 	0.19560 0.69090 0.07740 -0.09900
C 	C 	0.07770 0.62940 0.89930 0.20700
C 	C 	0.14110 0.62870 0.16450 0.32800
Co	Co	0.50000 0.00282 0.25000 1.16800
Co	Co	0.00000 0.50282 0.25000 1.12300
Co	Co	0.50000 0.99718 0.75000 1.16800
Co	Co	0.00000 0.49718 0.75000 1.12200
