data_crystal

_cell_length_a 6.08530
_cell_length_b 12.40400
_cell_length_c 23.49700
_cell_angle_alpha 90.00000
_cell_angle_beta  90.00000
_cell_angle_gamma 94.51520

_symmetry_space_group_name_	'P 1'
_symmetry_space_group_name_H-M	'P 1'

loop_
_symmetry_equiv_pos_as_xyz
  x,y,z

loop_
_atom_site_label
_atom_site_type_symbol
_atom_site_fract_x
_atom_site_fract_y
_atom_site_fract_z
_atom_site_charge
Y 	Y 	0.00876 0.60925 0.66879 2.35800
Y 	Y 	0.49124 0.89075 0.16879 2.36400
Y 	Y 	0.99124 0.39075 0.33121 2.36400
Y 	Y 	0.50876 0.10925 0.83121 2.36000
Cu	Cu	0.50000 0.00000 0.50000 0.90800
Cu	Cu	-0.00000 0.50000 -0.00000 0.89900
H 	H 	0.44340 0.62690 0.82910 0.05900
H 	H 	0.52780 0.77640 0.66300 0.01900
H 	H 	0.82540 0.35620 0.10340 0.04200
H 	H 	0.47220 0.22360 0.33700 0.01700
H 	H 	0.55660 0.37310 0.17090 0.05600
H 	H 	0.94340 0.12690 0.67090 0.06900
H 	H 	0.39100 0.92270 0.70650 0.03700
H 	H 	0.89100 0.42270 0.79350 0.08400
H 	H 	0.67460 0.14380 0.60340 0.03600
H 	H 	0.60900 0.07730 0.29350 0.02500
H 	H 	0.32540 0.85620 0.39660 0.05000
H 	H 	0.02780 0.27640 0.83700 -0.00900
H 	H 	0.17460 0.64380 0.89660 0.04000
H 	H 	0.97220 0.72360 0.16300 0.03100
H 	H 	0.05660 0.87310 0.32910 0.04500
H 	H 	0.10900 0.57730 0.20650 0.01000
C 	C 	0.07270 0.92360 0.35840 0.04300
C 	C 	0.03250 0.92480 0.59690 -0.10700
C 	C 	0.36570 0.43420 0.94340 -0.02400
C 	C 	0.26370 0.58640 0.89880 0.03400
C 	C 	0.30710 0.66100 0.09440 0.43900
C 	C 	0.15840 0.07260 0.22980 -0.11000
C 	C 	0.53250 0.42480 0.90310 -0.05800
C 	C 	0.69290 0.33900 0.90560 0.43100
C 	C 	0.39460 0.18970 0.30700 0.01100
C 	C 	0.90550 0.82750 0.75190 0.01600
C 	C 	0.63430 0.56580 0.05660 -0.00600
C 	C 	0.31590 0.35760 0.99240 0.33600
C 	C 	0.97190 0.59830 0.21760 0.05800
C 	C 	0.76370 0.08640 0.60120 0.04600
C 	C 	0.89460 0.68970 0.19300 -0.00100
C 	C 	0.23630 0.91360 0.39880 0.01700
C 	C 	0.42730 0.57640 0.85840 0.00600
C 	C 	0.19290 0.83900 0.59440 0.44600
C 	C 	0.59450 0.67250 0.25190 -0.02000
C 	C 	0.90950 0.23180 0.22130 0.35700
C 	C 	0.13430 0.06580 0.44340 -0.07200
C 	C 	0.47190 0.09830 0.28240 0.01700
C 	C 	0.40950 0.73180 0.27870 0.34900
C 	C 	0.51810 0.48970 0.30400 0.43700
C 	C 	0.48190 0.51030 0.69600 0.43500
C 	C 	0.84160 0.92740 0.77020 -0.05200
C 	C 	0.18410 0.14240 0.49240 0.30700
C 	C 	0.59050 0.26820 0.72130 0.34700
C 	C 	0.52810 0.90170 0.71760 0.02700
C 	C 	0.46750 0.57520 0.09690 -0.07200
C 	C 	0.02810 0.40170 0.78240 -0.06400
C 	C 	0.60540 0.81030 0.69300 0.01700
C 	C 	0.92730 0.07640 0.64160 -0.02200
C 	C 	0.34160 0.42740 0.72980 -0.08400
C 	C 	0.09450 0.17250 0.24810 -0.03000
C 	C 	0.86570 0.93420 0.55660 0.06100
C 	C 	0.09050 0.76820 0.77870 0.31400
C 	C 	0.65840 0.57260 0.27020 -0.07800
C 	C 	0.98190 0.01030 0.80400 0.44200
C 	C 	0.80710 0.16100 0.40560 0.42900
C 	C 	0.68410 0.64240 0.00760 0.25100
C 	C 	0.73630 0.41360 0.10120 0.03300
C 	C 	0.96750 0.07520 0.40310 -0.04100
C 	C 	0.57270 0.42360 0.14160 0.00000
C 	C 	0.01810 0.98970 0.19600 0.44900
C 	C 	0.10540 0.31030 0.80700 0.04800
C 	C 	0.40550 0.32750 0.74810 -0.01900
C 	C 	0.81590 0.85760 0.50760 0.27800
N 	N 	0.21030 0.22960 0.28830 -0.22400
N 	N 	0.28970 0.27040 0.78830 -0.23300
N 	N 	0.26650 0.98420 0.44020 -0.15000
N 	N 	0.71030 0.72960 0.21170 -0.21700
N 	N 	0.93720 0.00380 0.36010 -0.10700
N 	N 	0.35800 0.04010 0.24410 -0.21300
N 	N 	0.85800 0.54010 0.25590 -0.20800
N 	N 	0.23350 0.51580 0.94020 -0.17800
N 	N 	0.76650 0.48420 0.05980 -0.18400
N 	N 	0.64200 0.95990 0.75590 -0.19400
N 	N 	0.56280 0.49620 0.86010 -0.08100
N 	N 	0.14200 0.45990 0.74410 -0.19500
N 	N 	0.73350 0.01580 0.55980 -0.21600
N 	N 	0.43720 0.50380 0.13990 -0.08200
N 	N 	0.06280 0.99620 0.63990 -0.06600
N 	N 	0.78970 0.77040 0.71170 -0.21900
O 	O 	0.65510 0.19130 0.75040 -0.53500
O 	O 	0.65310 0.29480 0.67307 -0.29400
O 	O 	0.84430 0.24010 0.37250 -0.61800
O 	O 	0.85520 0.35430 0.93720 -0.33600
O 	O 	0.09090 0.22710 0.49516 -0.30700
O 	O 	0.15510 0.69130 0.74960 -0.53300
O 	O 	0.15310 0.79480 0.82693 -0.28800
O 	O 	0.90910 0.77290 0.50484 -0.27700
O 	O 	0.59090 0.72710 0.00484 -0.28900
O 	O 	0.67580 0.88610 0.47186 -0.33900
O 	O 	0.34490 0.80870 0.24960 -0.52900
O 	O 	0.68390 0.52160 0.70588 -0.58900
O 	O 	0.81610 0.97840 0.20588 -0.57500
O 	O 	0.32420 0.11390 0.52814 -0.37400
O 	O 	0.34690 0.70520 0.32693 -0.29900
O 	O 	0.84690 0.20520 0.17307 -0.30700
O 	O 	0.84490 0.30870 0.25040 -0.53300
O 	O 	0.65570 0.25990 0.87250 -0.61800
O 	O 	0.40910 0.27290 0.99516 -0.30000
O 	O 	0.18390 0.02160 0.79412 -0.64100
O 	O 	0.37940 0.56780 0.66249 -0.61800
O 	O 	0.64480 0.14570 0.43720 -0.36200
O 	O 	0.31610 0.47840 0.29412 -0.60400
O 	O 	0.87940 0.06780 0.83751 -0.61600
O 	O 	0.14480 0.64570 0.06280 -0.37700
O 	O 	0.35520 0.85430 0.56280 -0.35700
O 	O 	0.17580 0.38610 0.02814 -0.40300
O 	O 	0.82420 0.61390 0.97186 -0.30400
O 	O 	0.34430 0.74010 0.12750 -0.62700
O 	O 	0.15570 0.75990 0.62750 -0.63600
O 	O 	0.12060 0.93220 0.16249 -0.61800
O 	O 	0.62060 0.43220 0.33751 -0.61500
