data_crystal

_cell_length_a 6.11560
_cell_length_b 12.41900
_cell_length_c 23.42600
_cell_angle_alpha 90.00000
_cell_angle_beta  90.00000
_cell_angle_gamma 94.42860

_symmetry_space_group_name_	'P 1'
_symmetry_space_group_name_H-M	'P 1'

loop_
_symmetry_equiv_pos_as_xyz
  x,y,z

loop_
_atom_site_label
_atom_site_type_symbol
_atom_site_fract_x
_atom_site_fract_y
_atom_site_fract_z
_atom_site_charge
Tb	Tb	0.99199 0.89141 0.33273 1.67300
Tb	Tb	0.00801 0.10859 0.66727 1.55200
Tb	Tb	0.50801 0.60859 0.83273 1.64000
Tb	Tb	0.49199 0.39141 0.16727 1.62200
Cu	Cu	-0.00000 0.00000 -0.00000 0.88700
Cu	Cu	0.50000 0.50000 0.50000 0.92700
H 	H 	0.82890 0.85680 0.10420 0.05800
H 	H 	0.44330 0.12900 0.82920 0.06900
H 	H 	0.02750 0.77510 0.83700 0.01100
H 	H 	0.52750 0.27510 0.66300 0.03000
H 	H 	0.10930 0.07660 0.20630 0.00700
H 	H 	0.32890 0.35680 0.39580 0.04600
H 	H 	0.55670 0.87100 0.17080 0.04300
H 	H 	0.60930 0.57660 0.29370 0.03800
H 	H 	0.89070 0.92340 0.79370 0.07600
H 	H 	0.94330 0.62900 0.67080 0.05500
H 	H 	0.97250 0.22490 0.16300 0.04000
H 	H 	0.47250 0.72490 0.33700 0.02700
H 	H 	0.05670 0.37100 0.32920 0.05600
H 	H 	0.17110 0.14320 0.89580 0.03900
H 	H 	0.39070 0.42340 0.70630 0.03600
H 	H 	0.67110 0.64320 0.60420 0.05300
C 	C 	0.36450 0.93530 0.94330 0.01200
C 	C 	0.51900 0.99110 0.30400 0.44600
C 	C 	0.63550 0.06470 0.05670 -0.04000
C 	C 	0.31780 0.85900 0.99210 0.32600
C 	C 	0.96890 0.57260 0.40330 -0.03600
C 	C 	0.58580 0.76790 0.72150 0.34300
C 	C 	0.60450 0.30950 0.69290 0.03200
C 	C 	0.30790 0.15790 0.09500 0.42300
C 	C 	0.42670 0.07810 0.85840 -0.03200
C 	C 	0.89550 0.19050 0.19290 0.01400
C 	C 	0.52680 0.40190 0.71730 0.02100
C 	C 	0.13550 0.56470 0.44330 -0.03100
C 	C 	0.73760 0.91310 0.10140 0.01200
C 	C 	0.41420 0.23210 0.27850 0.33600
C 	C 	0.65950 0.07360 0.27010 -0.08400
C 	C 	0.18220 0.64100 0.49210 0.29800
C 	C 	0.98100 0.50890 0.80400 0.45000
C 	C 	0.68220 0.14100 0.00790 0.26100
C 	C 	0.97320 0.09810 0.21730 0.05600
C 	C 	0.48100 0.00890 0.69600 0.37000
C 	C 	0.02680 0.90190 0.78270 -0.02800
C 	C 	0.07330 0.42190 0.35840 -0.00100
C 	C 	0.23760 0.41310 0.39860 0.03000
C 	C 	0.86450 0.43530 0.55670 0.00600
C 	C 	0.84050 0.42640 0.77010 -0.06400
C 	C 	0.34050 0.92640 0.72990 -0.01800
C 	C 	0.92670 0.57810 0.64160 0.03700
C 	C 	0.57330 0.92190 0.14160 0.06000
C 	C 	0.09730 0.67260 0.24790 -0.02200
C 	C 	0.80790 0.65790 0.40500 0.42300
C 	C 	0.10450 0.80950 0.80710 0.05300
C 	C 	0.08580 0.26790 0.77850 0.30800
C 	C 	0.26240 0.08690 0.89860 0.04400
C 	C 	0.81780 0.35900 0.50790 0.29200
C 	C 	0.47320 0.59810 0.28270 0.02000
C 	C 	0.19210 0.34210 0.59500 0.42400
C 	C 	0.90270 0.32740 0.75210 0.02600
C 	C 	0.59730 0.17260 0.25210 -0.00400
C 	C 	0.40270 0.82740 0.74790 -0.01500
C 	C 	0.69210 0.84210 0.90500 0.42200
C 	C 	0.03110 0.42740 0.59670 -0.07300
C 	C 	0.53110 0.92740 0.90330 -0.04800
C 	C 	0.01900 0.49110 0.19600 0.39200
C 	C 	0.39550 0.69050 0.30710 0.03100
C 	C 	0.46890 0.07260 0.09670 -0.05200
C 	C 	0.15950 0.57360 0.22990 -0.04700
C 	C 	0.91420 0.73210 0.22150 0.35200
C 	C 	0.76240 0.58690 0.60140 0.02400
N 	N 	0.23350 0.01690 0.94070 -0.20100
N 	N 	0.64410 0.46000 0.75600 -0.15400
N 	N 	0.85590 0.04000 0.25600 -0.16800
N 	N 	0.76650 0.98310 0.05930 -0.15600
N 	N 	0.14410 0.96000 0.74400 -0.14100
N 	N 	0.93950 0.50070 0.36030 -0.08200
N 	N 	0.71370 0.22980 0.21180 -0.16800
N 	N 	0.28630 0.77020 0.78820 -0.17600
N 	N 	0.35590 0.54000 0.24400 -0.15700
N 	N 	0.21370 0.72980 0.28820 -0.17200
N 	N 	0.56050 0.99930 0.86030 -0.06000
N 	N 	0.73350 0.51690 0.55930 -0.18300
N 	N 	0.26650 0.48310 0.44070 -0.18200
N 	N 	0.78630 0.27020 0.71180 -0.16700
N 	N 	0.06050 0.49930 0.63970 -0.09800
N 	N 	0.43950 0.00070 0.13970 -0.11500
O 	O 	0.64760 0.64410 0.43620 -0.34900
O 	O 	0.14760 0.14410 0.06380 -0.37200
O 	O 	0.17420 0.88630 0.02757 -0.37500
O 	O 	0.58780 0.22420 0.00450 -0.27100
O 	O 	0.91220 0.27580 0.50450 -0.26000
O 	O 	0.08780 0.72420 0.49550 -0.26900
O 	O 	0.32580 0.61370 0.52757 -0.35600
O 	O 	0.68140 0.01950 0.70581 -0.45400
O 	O 	0.62160 0.93380 0.33777 -0.48000
O 	O 	0.85240 0.85590 0.93620 -0.32500
O 	O 	0.82580 0.11370 0.97243 -0.31200
O 	O 	0.67420 0.38630 0.47243 -0.35400
O 	O 	0.12160 0.43380 0.16223 -0.47800
O 	O 	0.34560 0.23560 0.12810 -0.49100
O 	O 	0.15440 0.26440 0.62810 -0.48500
O 	O 	0.15390 0.19190 0.74980 -0.41400
O 	O 	0.81860 0.48050 0.20581 -0.45500
O 	O 	0.34610 0.30810 0.24980 -0.42000
O 	O 	0.84610 0.80810 0.25020 -0.42000
O 	O 	0.65390 0.69190 0.75020 -0.41700
O 	O 	0.64490 0.79450 0.67281 -0.26600
O 	O 	0.65440 0.76440 0.87190 -0.48200
O 	O 	0.35510 0.20550 0.32719 -0.28700
O 	O 	0.85510 0.70550 0.17281 -0.27800
O 	O 	0.18140 0.51950 0.79419 -0.49400
O 	O 	0.41220 0.77580 0.99550 -0.26300
O 	O 	0.14490 0.29450 0.82719 -0.27600
O 	O 	0.84560 0.73560 0.37190 -0.48800
O 	O 	0.35240 0.35590 0.56380 -0.35400
O 	O 	0.37840 0.06620 0.66223 -0.46500
O 	O 	0.31860 0.98050 0.29419 -0.46900
O 	O 	0.87840 0.56620 0.83777 -0.47500
