data_crystal

_cell_length_a 6.04080
_cell_length_b 12.33240
_cell_length_c 23.57700
_cell_angle_alpha 90.00000
_cell_angle_beta  90.00000
_cell_angle_gamma 94.11040

_symmetry_space_group_name_	'P 1'
_symmetry_space_group_name_H-M	'P 1'

loop_
_symmetry_equiv_pos_as_xyz
  x,y,z

loop_
_atom_site_label
_atom_site_type_symbol
_atom_site_fract_x
_atom_site_fract_y
_atom_site_fract_z
_atom_site_charge
Tm	Tm	0.51017 0.60973 0.17145 1.49400
Tm	Tm	0.01017 0.10973 0.32855 1.47000
Tm	Tm	0.48983 0.39027 0.82855 1.49800
Tm	Tm	0.98983 0.89027 0.67145 1.50900
Cu	Cu	-0.00000 0.00000 -0.00000 0.88500
Cu	Cu	0.50000 0.50000 0.50000 0.92700
H 	H 	0.52950 0.27450 0.33580 0.04400
H 	H 	0.95130 0.62340 0.32850 0.05900
H 	H 	0.11240 0.07820 0.79210 0.00800
H 	H 	0.45130 0.12340 0.17150 0.07300
H 	H 	0.04870 0.37660 0.67150 0.06100
H 	H 	0.17480 0.14290 0.10370 0.03600
H 	H 	0.54870 0.87660 0.82850 0.04900
H 	H 	0.61240 0.57820 0.70790 0.04100
H 	H 	0.97050 0.22550 0.83580 0.05800
H 	H 	0.82520 0.85710 0.89630 0.06600
H 	H 	0.88760 0.92180 0.20790 0.08400
H 	H 	0.38760 0.42180 0.29210 0.03900
H 	H 	0.47050 0.72550 0.66420 0.04400
H 	H 	0.02950 0.77450 0.16420 0.02400
H 	H 	0.32520 0.35710 0.60370 0.04900
H 	H 	0.67480 0.64290 0.39630 0.05500
C 	C 	0.93290 0.57310 0.35780 0.04000
C 	C 	0.30240 0.16670 0.90730 0.37300
C 	C 	0.98510 0.51120 0.19640 0.40100
C 	C 	0.13430 0.56910 0.55620 -0.03200
C 	C 	0.47310 0.59880 0.71840 0.02500
C 	C 	0.73540 0.91510 0.89880 0.01800
C 	C 	0.97310 0.09880 0.78160 0.06400
C 	C 	0.51490 0.98880 0.69640 0.39200
C 	C 	0.02690 0.90120 0.21840 -0.03100
C 	C 	0.15550 0.57240 0.77000 -0.02900
C 	C 	0.46750 0.07940 0.90430 -0.02800
C 	C 	0.89250 0.19070 0.80620 -0.01000
C 	C 	0.52690 0.40120 0.28160 0.02400
C 	C 	0.91110 0.32760 0.24800 0.02800
C 	C 	0.81640 0.35410 0.49210 0.28600
C 	C 	0.10750 0.80930 0.19380 0.03400
C 	C 	0.43290 0.07310 0.14220 -0.03700
C 	C 	0.69760 0.83330 0.09270 0.38000
C 	C 	0.48510 0.01120 0.30360 0.32200
C 	C 	0.56710 0.92690 0.85780 0.06200
C 	C 	0.41110 0.82760 0.25200 -0.01300
C 	C 	0.40260 0.23120 0.72210 0.30600
C 	C 	0.80240 0.66670 0.59270 0.37400
C 	C 	0.09740 0.26880 0.22210 0.27700
C 	C 	0.65550 0.07240 0.73000 -0.06600
C 	C 	0.26460 0.08490 0.10120 0.03900
C 	C 	0.86570 0.43090 0.44380 0.01200
C 	C 	0.53250 0.92060 0.09570 -0.04400
C 	C 	0.08890 0.67240 0.75200 -0.02200
C 	C 	0.68360 0.14590 0.99210 0.33700
C 	C 	0.96750 0.57940 0.59570 -0.01800
C 	C 	0.60750 0.30930 0.30620 0.01200
C 	C 	0.76460 0.58490 0.39880 0.02500
C 	C 	0.63430 0.06910 0.94380 -0.04700
C 	C 	0.34450 0.92760 0.27000 -0.00300
C 	C 	0.06710 0.42690 0.64220 -0.00100
C 	C 	0.18360 0.64590 0.50790 0.29500
C 	C 	0.36570 0.93090 0.05620 0.02500
C 	C 	0.39250 0.69070 0.69380 0.00800
C 	C 	0.58890 0.17240 0.74800 -0.00300
C 	C 	0.31640 0.85410 0.00790 0.24400
C 	C 	0.23540 0.41510 0.60120 0.03000
C 	C 	0.90260 0.73120 0.77790 0.32100
C 	C 	0.01490 0.48880 0.80360 0.33900
C 	C 	0.59740 0.76880 0.27790 0.31200
C 	C 	0.84450 0.42760 0.23000 -0.05000
C 	C 	0.19760 0.33330 0.40730 0.38200
C 	C 	0.03250 0.42060 0.40430 -0.06400
N 	N 	0.70250 0.22970 0.78774 -0.16500
N 	N 	0.35630 0.54010 0.75652 -0.16000
N 	N 	0.56470 0.99140 0.13960 -0.05700
N 	N 	0.26540 0.48650 0.55943 -0.18100
N 	N 	0.20250 0.72970 0.71226 -0.16900
N 	N 	0.73460 0.51350 0.44057 -0.18200
N 	N 	0.79750 0.27030 0.28774 -0.16800
N 	N 	0.43530 0.00860 0.86040 -0.11500
N 	N 	0.64370 0.45990 0.24348 -0.15600
N 	N 	0.14370 0.95990 0.25652 -0.14500
N 	N 	0.29750 0.77030 0.21226 -0.17400
N 	N 	0.23460 0.01350 0.05943 -0.21700
N 	N 	0.06470 0.49140 0.36040 -0.09900
N 	N 	0.85630 0.04010 0.74348 -0.16900
N 	N 	0.93530 0.50860 0.63960 -0.08100
N 	N 	0.76540 0.98650 0.94057 -0.14100
O 	O 	0.33680 0.30940 0.75086 -0.39700
O 	O 	0.17800 0.88730 0.97121 -0.30200
O 	O 	0.18790 0.52170 0.20657 -0.46200
O 	O 	0.83680 0.80940 0.74914 -0.39100
O 	O 	0.33890 0.24740 0.87470 -0.44200
O 	O 	0.31210 0.97830 0.70657 -0.42900
O 	O 	0.32200 0.61270 0.47121 -0.34900
O 	O 	0.38110 0.06880 0.33738 -0.42600
O 	O 	0.33630 0.20440 0.67401 -0.26500
O 	O 	0.40730 0.76920 0.00510 -0.25400
O 	O 	0.83630 0.70440 0.82599 -0.25000
O 	O 	0.35810 0.34980 0.43870 -0.33400
O 	O 	0.16110 0.25260 0.37470 -0.45000
O 	O 	0.61890 0.93120 0.66262 -0.42500
O 	O 	0.16320 0.19060 0.25086 -0.39800
O 	O 	0.82200 0.11270 0.02879 -0.37300
O 	O 	0.68790 0.02170 0.29343 -0.42700
O 	O 	0.59270 0.23080 0.99490 -0.24800
O 	O 	0.66370 0.79560 0.32599 -0.24400
O 	O 	0.64190 0.65020 0.56130 -0.32500
O 	O 	0.14190 0.15020 0.93870 -0.33300
O 	O 	0.67800 0.38730 0.52879 -0.34600
O 	O 	0.88110 0.56880 0.16262 -0.43000
O 	O 	0.66110 0.75260 0.12530 -0.43900
O 	O 	0.83890 0.74740 0.62530 -0.43600
O 	O 	0.81210 0.47830 0.79343 -0.41700
O 	O 	0.85810 0.84980 0.06130 -0.31600
O 	O 	0.09270 0.73080 0.50510 -0.25400
O 	O 	0.90730 0.26920 0.49490 -0.24500
O 	O 	0.66320 0.69060 0.24914 -0.39100
O 	O 	0.11890 0.43120 0.83738 -0.42500
O 	O 	0.16370 0.29560 0.17401 -0.26000
