data_crystal

_cell_length_a 6.13890
_cell_length_b 12.21920
_cell_length_c 22.72800
_cell_angle_alpha 90.00000
_cell_angle_beta  90.00000
_cell_angle_gamma 89.58100

_symmetry_space_group_name_	'P 1'
_symmetry_space_group_name_H-M	'P 1'

loop_
_symmetry_equiv_pos_as_xyz
  x,y,z

loop_
_atom_site_label
_atom_site_type_symbol
_atom_site_fract_x
_atom_site_fract_y
_atom_site_fract_z
_atom_site_charge
Pr	Pr	0.54300 0.44359 0.85151 2.00100
Pr	Pr	0.04300 0.94359 0.64849 2.00500
Pr	Pr	0.45700 0.55641 0.14849 1.99800
Pr	Pr	0.95700 0.05641 0.35151 1.98600
Cu	Cu	0.50000 0.50000 0.50000 0.92500
Cu	Cu	-0.00000 0.00000 -0.00000 0.88200
H 	H 	0.93620 0.74930 0.15860 0.02300
H 	H 	0.04580 0.57440 0.32150 0.06600
H 	H 	0.07270 0.89340 0.21270 0.02800
H 	H 	0.43620 0.24930 0.34140 0.01000
H 	H 	0.56380 0.75070 0.65860 0.02000
H 	H 	0.06380 0.25070 0.84140 -0.00700
H 	H 	0.42730 0.60660 0.71270 0.03600
H 	H 	0.83010 0.10760 0.11680 0.05300
H 	H 	0.45420 0.92560 0.82150 0.06500
H 	H 	0.33010 0.60760 0.38320 0.04400
H 	H 	0.57270 0.39340 0.28730 0.04000
H 	H 	0.92730 0.10660 0.78730 0.07900
H 	H 	0.95420 0.42560 0.67850 0.06300
H 	H 	0.16990 0.89240 0.88320 0.03400
H 	H 	0.54580 0.07440 0.17850 0.06600
H 	H 	0.66990 0.39240 0.61680 0.04600
C 	C 	0.78150 0.30440 0.42350 0.38700
C 	C 	0.11240 0.38060 0.22870 -0.06100
C 	C 	0.62540 0.91030 0.04820 -0.04000
C 	C 	0.21850 0.69560 0.57650 0.39300
C 	C 	0.45640 0.21600 0.75590 -0.01200
C 	C 	0.28150 0.80440 0.07650 0.38400
C 	C 	0.97790 0.45390 0.18850 0.41100
C 	C 	0.23450 0.55120 0.39190 0.03000
C 	C 	0.47790 0.95390 0.31150 0.38900
C 	C 	0.95640 0.71600 0.74410 0.01300
C 	C 	0.35420 0.27840 0.31070 0.01900
C 	C 	0.15840 0.77790 0.76340 0.30400
C 	C 	0.76550 0.44880 0.60810 0.02400
C 	C 	0.54510 0.11010 0.91330 -0.06200
C 	C 	0.87460 0.58970 0.54820 0.01000
C 	C 	0.34160 0.72210 0.26340 0.33600
C 	C 	0.73450 0.05120 0.10810 -0.01100
C 	C 	0.37460 0.08970 0.95180 0.00700
C 	C 	0.06620 0.13240 0.77900 -0.06200
C 	C 	0.67250 0.84790 0.99200 0.33000
C 	C 	0.61240 0.88060 0.27130 -0.04100
C 	C 	0.43380 0.36760 0.27900 0.01100
C 	C 	0.43580 0.96930 0.85460 0.03200
C 	C 	0.04360 0.28400 0.25590 -0.02000
C 	C 	0.65840 0.27790 0.73660 0.33200
C 	C 	0.17250 0.34790 0.50800 0.30200
C 	C 	0.14580 0.22160 0.81070 0.04800
C 	C 	0.84160 0.22210 0.23660 0.34000
C 	C 	0.52210 0.04610 0.68850 0.39000
C 	C 	0.26550 0.94880 0.89190 0.05800
C 	C 	0.93380 0.86760 0.22100 0.04300
C 	C 	0.95490 0.38990 0.41330 -0.03700
C 	C 	0.02210 0.54610 0.81150 0.31900
C 	C 	0.32750 0.15210 0.00800 0.26100
C 	C 	0.85420 0.77840 0.18930 0.01100
C 	C 	0.12540 0.41030 0.45180 -0.03600
C 	C 	0.06420 0.53070 0.35460 -0.00600
C 	C 	0.71850 0.19560 0.92350 0.39200
C 	C 	0.04510 0.61010 0.58670 -0.08100
C 	C 	0.64580 0.72160 0.68930 0.02100
C 	C 	0.45490 0.88990 0.08670 -0.04000
C 	C 	0.88760 0.61940 0.77130 -0.01500
C 	C 	0.54360 0.78400 0.24410 -0.01600
C 	C 	0.82750 0.65210 0.49200 0.29200
C 	C 	0.56620 0.63240 0.72100 0.01500
C 	C 	0.93580 0.46930 0.64540 0.03300
C 	C 	0.38760 0.11940 0.72870 -0.05900
C 	C 	0.56420 0.03070 0.14540 -0.02900
N 	N 	0.31530 0.41680 0.23715 -0.18400
N 	N 	0.92290 0.44940 0.36470 -0.08200
N 	N 	0.83810 0.76560 0.70269 -0.19000
N 	N 	0.23410 0.00790 0.94024 -0.20600
N 	N 	0.07710 0.55060 0.63530 -0.10000
N 	N 	0.18470 0.08320 0.73715 -0.18300
N 	N 	0.57710 0.05060 0.86470 -0.10300
N 	N 	0.42290 0.94940 0.13530 -0.06400
N 	N 	0.26590 0.49210 0.44024 -0.18400
N 	N 	0.66190 0.73440 0.20269 -0.19500
N 	N 	0.76590 0.99210 0.05976 -0.14800
N 	N 	0.33810 0.26560 0.79731 -0.20600
N 	N 	0.73410 0.50790 0.55976 -0.18700
N 	N 	0.81530 0.91680 0.26285 -0.18000
N 	N 	0.16190 0.23440 0.29731 -0.20300
N 	N 	0.68470 0.58320 0.76285 -0.19000
O 	O 	0.12560 0.82980 0.04431 -0.35800
O 	O 	0.57810 0.99160 0.35509 -0.52000
O 	O 	0.92190 0.50840 0.85509 -0.49700
O 	O 	0.18120 0.10920 0.04061 -0.37100
O 	O 	0.28680 0.97750 0.29808 -0.47500
O 	O 	0.23720 0.75400 0.81196 -0.27800
O 	O 	0.77900 0.14800 0.27011 -0.47700
O 	O 	0.22100 0.85200 0.72989 -0.45000
O 	O 	0.31880 0.39080 0.54061 -0.36100
O 	O 	0.57030 0.76400 0.98184 -0.29500
O 	O 	0.87440 0.17020 0.95569 -0.32200
O 	O 	0.42190 0.00840 0.64491 -0.56100
O 	O 	0.80190 0.21500 0.39611 -0.53300
O 	O 	0.76280 0.24600 0.18804 -0.28700
O 	O 	0.62560 0.32980 0.45569 -0.34600
O 	O 	0.19810 0.78500 0.60389 -0.52900
O 	O 	0.27900 0.64800 0.22989 -0.46500
O 	O 	0.72100 0.35200 0.77011 -0.45600
O 	O 	0.78680 0.47750 0.20192 -0.49400
O 	O 	0.30190 0.71500 0.10389 -0.53600
O 	O 	0.07030 0.26400 0.51816 -0.31800
O 	O 	0.73720 0.25400 0.68804 -0.27800
O 	O 	0.68120 0.60920 0.45939 -0.35200
O 	O 	0.69810 0.28500 0.89611 -0.52000
O 	O 	0.26280 0.74600 0.31196 -0.28400
O 	O 	0.81880 0.89080 0.95939 -0.32300
O 	O 	0.37440 0.67020 0.54431 -0.34600
O 	O 	0.92970 0.73600 0.48184 -0.28600
O 	O 	0.07810 0.49160 0.14491 -0.56100
O 	O 	0.21320 0.52250 0.79808 -0.47800
O 	O 	0.42970 0.23600 0.01816 -0.31300
O 	O 	0.71320 0.02250 0.70192 -0.49700
