data_crystal

_cell_length_a 6.06170
_cell_length_b 23.52800
_cell_length_c 13.36010
_cell_angle_alpha 90.00000
_cell_angle_beta  112.65800
_cell_angle_gamma 90.00000

_symmetry_space_group_name_	'P 1'
_symmetry_space_group_name_H-M	'P 1'

loop_
_symmetry_equiv_pos_as_xyz
  x,y,z

loop_
_atom_site_label
_atom_site_type_symbol
_atom_site_fract_x
_atom_site_fract_y
_atom_site_fract_z
_atom_site_charge
Lu	Lu	0.40019 0.67003 0.39033 1.13900
O 	O 	0.46870 0.74969 0.30900 -0.34000
O 	O 	0.36280 0.82669 0.20470 -0.24800
O 	O 	0.81160 0.83724 0.93120 -0.36400
O 	O 	0.16430 0.79357 0.97800 -0.35700
O 	O 	0.50430 0.56220 0.14760 -0.32300
O 	O 	0.40150 0.62686 0.24310 -0.37700
O 	O 	0.13750 0.50480 0.22880 -0.23900
O 	O 	0.79050 0.47160 0.11390 -0.35600
N 	N 	0.02170 0.71171 0.22970 -0.13800
N 	N 	0.68280 0.75630 0.04000 -0.13900
N 	N 	0.06890 0.63940 0.00580 -0.11000
N 	N 	0.71980 0.55950 0.98530 -0.15100
C 	C 	0.32610 0.77850 0.23200 0.30400
C 	C 	0.08120 0.75200 0.17270 0.01400
C 	C 	0.91620 0.77010 0.07260 -0.06500
C 	C 	0.97280 0.80400 0.98850 0.37600
C 	C 	0.62530 0.71750 0.09820 0.02100
H 	H 	0.46650 0.70650 0.07720 0.04000
C 	C 	0.79760 0.69310 0.18960 0.00700
H 	H 	0.75500 0.66310 0.22360 0.05200
C 	C 	0.35870 0.59370 0.16340 0.35600
C 	C 	0.10920 0.59650 0.07660 -0.01500
C 	C 	0.93290 0.55640 0.06720 -0.05700
C 	C 	0.96030 0.50780 0.14470 0.30100
C 	C 	0.67730 0.60100 0.91380 0.01700
H 	H 	0.52960 0.60340 0.85620 0.06300
C 	C 	0.85420 0.64110 0.92470 0.05400
H 	H 	0.82160 0.67010 0.87370 0.05300
Lu	Lu	0.59981 0.17003 0.10967 1.11900
O 	O 	0.53130 0.24969 0.19100 -0.34600
O 	O 	0.63720 0.32669 0.29530 -0.24700
O 	O 	0.18840 0.33724 0.56880 -0.36600
O 	O 	0.83570 0.29357 0.52200 -0.36900
O 	O 	0.49570 0.06220 0.35240 -0.32700
O 	O 	0.59850 0.12686 0.25690 -0.38000
O 	O 	0.86250 0.00480 0.27120 -0.24900
O 	O 	0.20950 0.97160 0.38610 -0.31000
N 	N 	0.97830 0.21171 0.27030 -0.13900
N 	N 	0.31720 0.25630 0.46000 -0.13200
N 	N 	0.93110 0.13940 0.49420 -0.08400
N 	N 	0.28020 0.05950 0.51470 -0.18600
C 	C 	0.67390 0.27850 0.26800 0.30900
C 	C 	0.91880 0.25200 0.32730 0.00100
C 	C 	0.08380 0.27010 0.42740 -0.02800
C 	C 	0.02720 0.30400 0.51150 0.34900
C 	C 	0.37470 0.21750 0.40180 0.02300
H 	H 	0.53350 0.20650 0.42280 0.04700
C 	C 	0.20240 0.19310 0.31040 0.01300
H 	H 	0.24500 0.16310 0.27640 0.05100
C 	C 	0.64130 0.09370 0.33660 0.36200
C 	C 	0.89080 0.09650 0.42340 -0.03000
C 	C 	0.06710 0.05640 0.43280 -0.01200
C 	C 	0.03970 0.00780 0.35530 0.25800
C 	C 	0.32270 0.10100 0.58620 0.03000
H 	H 	0.47040 0.10340 0.64380 0.05300
C 	C 	0.14580 0.14110 0.57530 0.00900
H 	H 	0.17840 0.17010 0.62630 0.06400
Lu	Lu	0.59981 0.32997 0.60967 1.13800
O 	O 	0.53130 0.25031 0.69100 -0.34300
O 	O 	0.63720 0.17331 0.79530 -0.24200
O 	O 	0.18840 0.16276 0.06880 -0.36800
O 	O 	0.83570 0.20643 0.02200 -0.37500
O 	O 	0.49570 0.43780 0.85240 -0.31200
O 	O 	0.59850 0.37314 0.75690 -0.37800
O 	O 	0.86250 0.49520 0.77120 -0.23900
O 	O 	0.20950 0.52840 0.88610 -0.33100
N 	N 	0.97830 0.28829 0.77030 -0.13700
N 	N 	0.31720 0.24370 0.96000 -0.12500
N 	N 	0.93110 0.36060 0.99420 -0.05700
N 	N 	0.28020 0.44050 0.01470 -0.20700
C 	C 	0.67390 0.22150 0.76800 0.31500
C 	C 	0.91880 0.24800 0.82730 -0.00700
C 	C 	0.08380 0.22990 0.92740 0.00800
C 	C 	0.02720 0.19600 0.01150 0.31200
C 	C 	0.37470 0.28250 0.90180 0.02800
H 	H 	0.53350 0.29350 0.92280 0.05300
C 	C 	0.20240 0.30690 0.81040 0.01400
H 	H 	0.24500 0.33690 0.77640 0.05200
C 	C 	0.64130 0.40630 0.83660 0.36400
C 	C 	0.89080 0.40350 0.92340 -0.03200
C 	C 	0.06710 0.44360 0.93280 0.02100
C 	C 	0.03970 0.49220 0.85530 0.29100
C 	C 	0.32270 0.39900 0.08620 0.04700
H 	H 	0.47040 0.39660 0.14380 0.04600
C 	C 	0.14580 0.35890 0.07530 -0.03900
H 	H 	0.17840 0.32990 0.12630 0.07600
Lu	Lu	0.40019 0.82997 0.89033 1.15700
O 	O 	0.46870 0.75031 0.80900 -0.33800
O 	O 	0.36280 0.67331 0.70470 -0.24300
O 	O 	0.81160 0.66276 0.43120 -0.36600
O 	O 	0.16430 0.70643 0.47800 -0.36500
O 	O 	0.50430 0.93780 0.64760 -0.30800
O 	O 	0.40150 0.87314 0.74310 -0.37500
O 	O 	0.13750 0.99520 0.72880 -0.22700
O 	O 	0.79050 0.02840 0.61390 -0.37500
N 	N 	0.02170 0.78829 0.72970 -0.13600
N 	N 	0.68280 0.74370 0.54000 -0.13200
N 	N 	0.06890 0.86060 0.50580 -0.08300
N 	N 	0.71980 0.94050 0.48530 -0.17200
C 	C 	0.32610 0.72150 0.73200 0.30900
C 	C 	0.08120 0.74800 0.67270 0.00800
C 	C 	0.91620 0.72990 0.57260 -0.03300
C 	C 	0.97280 0.69600 0.48850 0.34400
C 	C 	0.62530 0.78250 0.59820 0.02500
H 	H 	0.46650 0.79350 0.57720 0.04600
C 	C 	0.79760 0.80690 0.68960 0.00600
H 	H 	0.75500 0.83690 0.72360 0.05400
C 	C 	0.35870 0.90630 0.66340 0.35700
C 	C 	0.10920 0.90350 0.57660 -0.01500
C 	C 	0.93290 0.94360 0.56720 -0.02500
C 	C 	0.96030 0.99220 0.64470 0.33000
C 	C 	0.67730 0.89900 0.41380 0.03400
H 	H 	0.52960 0.89660 0.35620 0.05600
C 	C 	0.85420 0.85890 0.42470 0.00600
H 	H 	0.82160 0.82990 0.37370 0.06400
Cu	Cu	0.50000 0.50000 -0.00000 0.91100
Cu	Cu	0.50000 0.00000 0.50000 0.91200
