data_crystal

_cell_length_a 6.08120
_cell_length_b 12.38870
_cell_length_c 23.47200
_cell_angle_alpha 90.00000
_cell_angle_beta  90.00000
_cell_angle_gamma 94.32210

_symmetry_space_group_name_	'P 1'
_symmetry_space_group_name_H-M	'P 1'

loop_
_symmetry_equiv_pos_as_xyz
  x,y,z

loop_
_atom_site_label
_atom_site_type_symbol
_atom_site_fract_x
_atom_site_fract_y
_atom_site_fract_z
_atom_site_charge
Ho	Ho	0.00869 0.60917 0.83100 1.83700
Ho	Ho	0.50869 0.10917 0.66900 1.87200
Ho	Ho	0.99131 0.39083 0.16900 1.91600
Ho	Ho	0.49131 0.89083 0.33100 1.94700
Cu	Cu	0.00000 0.50000 0.50000 0.91600
Cu	Cu	0.50000 0.00000 -0.00000 0.89700
H 	H 	0.53020 0.77510 0.83720 0.04600
H 	H 	0.87150 0.39830 0.86040 0.36300
H 	H 	0.12850 0.60170 0.13960 0.37800
H 	H 	0.17550 0.64350 0.60410 0.04700
H 	H 	0.55540 0.37470 0.32870 0.05300
H 	H 	0.67550 0.14350 0.89590 0.05000
H 	H 	0.21250 0.15170 0.56360 0.37100
H 	H 	0.37150 0.89830 0.63960 0.37400
H 	H 	0.65760 0.59280 0.88530 0.34200
H 	H 	0.84240 0.90720 0.38530 0.35300
H 	H 	0.46980 0.22490 0.16280 0.04300
H 	H 	0.78750 0.84830 0.43640 0.39500
H 	H 	0.11230 0.57770 0.29340 0.02200
H 	H 	0.05540 0.87470 0.17130 0.04100
H 	H 	0.61230 0.07770 0.20660 0.02700
H 	H 	0.62850 0.10170 0.36040 0.37500
H 	H 	0.59510 0.92390 0.63980 0.32000
H 	H 	0.32450 0.85650 0.10410 0.05800
H 	H 	0.71250 0.65170 0.93640 0.38500
H 	H 	0.15760 0.09280 0.61470 0.32700
H 	H 	0.28750 0.34830 0.06360 0.37800
H 	H 	0.44460 0.62530 0.67130 0.05500
H 	H 	0.94460 0.12530 0.82870 0.06400
H 	H 	0.09510 0.42390 0.86020 0.27900
H 	H 	0.34240 0.40720 0.11470 0.34000
H 	H 	0.38770 0.92230 0.79340 0.03800
H 	H 	0.96980 0.72490 0.33720 0.05000
H 	H 	0.90490 0.57610 0.13980 0.32200
H 	H 	0.82450 0.35650 0.39590 0.05400
H 	H 	0.03020 0.27510 0.66280 0.02100
H 	H 	0.88770 0.42230 0.70660 0.08300
H 	H 	0.40490 0.07610 0.36020 0.31100
C 	C 	0.81830 0.85610 0.99260 0.30800
C 	C 	0.68170 0.64390 0.49260 0.28400
C 	C 	0.47450 0.09850 0.21740 0.01600
C 	C 	0.18170 0.14390 0.00740 0.25500
C 	C 	0.52550 0.90150 0.78260 0.02400
C 	C 	0.09510 0.17340 0.25180 -0.01600
C 	C 	0.30600 0.66280 0.40550 0.43900
C 	C 	0.53280 0.42510 0.59650 -0.04100
C 	C 	0.15840 0.07290 0.27020 -0.08900
C 	C 	0.36390 0.43400 0.55640 -0.00800
C 	C 	0.86390 0.93400 0.94360 0.05700
C 	C 	0.41010 0.73210 0.22180 0.34700
C 	C 	0.76480 0.08600 0.89850 0.04000
C 	C 	0.91010 0.23210 0.27820 0.34700
C 	C 	0.42850 0.57520 0.64180 0.01600
C 	C 	0.13610 0.06600 0.05640 -0.04400
C 	C 	0.90490 0.82660 0.74820 0.02000
C 	C 	0.73520 0.41400 0.39850 0.02900
C 	C 	0.97450 0.59850 0.28260 0.03700
C 	C 	0.58990 0.26790 0.77820 0.34300
C 	C 	0.48390 0.51030 0.80390 0.41000
C 	C 	0.65840 0.57290 0.22980 -0.06000
C 	C 	0.02550 0.40150 0.71740 -0.06000
C 	C 	0.31830 0.35610 0.50740 0.28500
C 	C 	0.46720 0.57490 0.40350 -0.04600
C 	C 	0.59510 0.67340 0.24820 -0.01700
C 	C 	0.40490 0.32660 0.75180 -0.01400
C 	C 	0.34160 0.42710 0.77020 -0.05900
C 	C 	0.63610 0.56600 0.44360 -0.00100
C 	C 	0.26480 0.58600 0.60150 0.02800
C 	C 	0.89370 0.69050 0.30710 0.02500
C 	C 	0.69400 0.33720 0.59450 0.43100
C 	C 	0.92850 0.07520 0.85820 -0.00200
C 	C 	0.39370 0.19050 0.19290 0.03100
C 	C 	0.19400 0.83720 0.90550 0.43700
C 	C 	0.96720 0.07490 0.09650 -0.03400
C 	C 	0.57150 0.42480 0.35820 0.01600
C 	C 	0.03280 0.92510 0.90350 -0.07300
C 	C 	0.08990 0.76790 0.72180 0.31100
C 	C 	0.23520 0.91400 0.10150 0.01000
C 	C 	0.51610 0.48970 0.19610 0.41700
C 	C 	0.84160 0.92710 0.72980 -0.03900
C 	C 	0.10630 0.30950 0.69290 0.06400
C 	C 	0.01610 0.98970 0.30390 0.43900
C 	C 	0.80600 0.16280 0.09450 0.43300
C 	C 	0.60630 0.80950 0.80710 0.03500
C 	C 	0.07150 0.92480 0.14180 0.05900
C 	C 	0.98390 0.01030 0.69610 0.42500
N 	N 	0.79010 0.77040 0.78800 -0.16400
N 	N 	0.23490 0.51570 0.55960 -0.18600
N 	N 	0.26510 0.98430 0.05960 -0.15700
N 	N 	0.29010 0.27040 0.71200 -0.17600
N 	N 	0.43810 0.50390 0.36020 -0.09000
N 	N 	0.14370 0.46020 0.75610 -0.15600
N 	N 	0.20990 0.22960 0.21200 -0.17100
N 	N 	0.73490 0.01570 0.94040 -0.20100
N 	N 	0.64370 0.96020 0.74390 -0.15800
N 	N 	0.56190 0.49610 0.63980 -0.08700
N 	N 	0.35630 0.03980 0.25610 -0.17600
N 	N 	0.93810 0.00390 0.13980 -0.11600
N 	N 	0.06190 0.99610 0.86020 -0.07700
N 	N 	0.70990 0.72960 0.28800 -0.16800
N 	N 	0.85630 0.53980 0.24390 -0.17000
N 	N 	0.76510 0.48430 0.44040 -0.17800
O 	O 	0.12080 0.93230 0.33770 -0.49400
O 	O 	0.85510 0.35370 0.56260 -0.32900
O 	O 	0.35510 0.85370 0.93740 -0.33000
O 	O 	0.74510 0.64080 0.90090 -0.81900
O 	O 	0.25490 0.35920 0.09910 -0.83800
O 	O 	0.84690 0.20510 0.32700 -0.30100
O 	O 	0.75490 0.85920 0.40090 -0.84500
O 	O 	0.18410 0.02100 0.70640 -0.52400
O 	O 	0.64490 0.14630 0.06260 -0.35300
O 	O 	0.32450 0.11390 0.97160 -0.32200
O 	O 	0.82450 0.61390 0.52840 -0.33200
O 	O 	0.15750 0.69080 0.75010 -0.44300
O 	O 	0.17550 0.38610 0.47160 -0.35400
O 	O 	0.31590 0.47900 0.20640 -0.49300
O 	O 	0.65750 0.19080 0.74990 -0.44800
O 	O 	0.08930 0.22820 0.00430 -0.25400
O 	O 	0.81590 0.97900 0.29360 -0.47700
O 	O 	0.97440 0.43880 0.87560 -0.76400
O 	O 	0.84250 0.30920 0.24990 -0.45200
O 	O 	0.37920 0.56770 0.83770 -0.48000
O 	O 	0.34250 0.80920 0.25010 -0.45200
O 	O 	0.87920 0.06770 0.66230 -0.48600
O 	O 	0.91070 0.77180 0.99570 -0.22400
O 	O 	0.65690 0.25960 0.62740 -0.47800
O 	O 	0.34690 0.70510 0.17300 -0.30000
O 	O 	0.41070 0.27180 0.50430 -0.24500
O 	O 	0.58930 0.72820 0.49570 -0.23600
O 	O 	0.34310 0.74040 0.37260 -0.49400
O 	O 	0.52560 0.06120 0.37560 -0.85000
O 	O 	0.14490 0.64630 0.43740 -0.35200
O 	O 	0.24510 0.14080 0.59910 -0.82800
O 	O 	0.15310 0.79490 0.67300 -0.29200
O 	O 	0.15690 0.75960 0.87260 -0.48600
O 	O 	0.67550 0.88610 0.02840 -0.35900
O 	O 	0.68410 0.52100 0.79360 -0.47200
O 	O 	0.02560 0.56120 0.12440 -0.84800
O 	O 	0.65310 0.29490 0.82700 -0.29000
O 	O 	0.84310 0.24040 0.12740 -0.48700
O 	O 	0.47440 0.93880 0.62440 -0.81100
O 	O 	0.62080 0.43230 0.16230 -0.49200
