data_crystal

_cell_length_a 6.16350
_cell_length_b 12.28720
_cell_length_c 22.82600
_cell_angle_alpha 90.00000
_cell_angle_beta  90.00000
_cell_angle_gamma 89.64580

_symmetry_space_group_name_	'P 1'
_symmetry_space_group_name_H-M	'P 1'

loop_
_symmetry_equiv_pos_as_xyz
  x,y,z

loop_
_atom_site_label
_atom_site_type_symbol
_atom_site_fract_x
_atom_site_fract_y
_atom_site_fract_z
_atom_site_charge
La	La	0.04130 0.44370 0.64795 1.52200
La	La	0.54130 0.94370 0.85205 1.58100
La	La	0.95870 0.55630 0.35205 1.55100
La	La	0.45870 0.05630 0.14795 1.49500
Cu	Cu	-0.00000 0.50000 -0.00000 0.90000
Cu	Cu	0.50000 0.00000 0.50000 0.90900
H 	H 	0.95290 0.92650 0.67780 0.06000
H 	H 	0.93670 0.25040 0.15910 0.03000
H 	H 	0.04710 0.07350 0.32220 0.06600
H 	H 	0.07060 0.39370 0.21210 0.02600
H 	H 	0.66690 0.89230 0.61630 0.04700
H 	H 	0.57060 0.89370 0.28790 0.04700
H 	H 	0.33310 0.10770 0.38370 0.05400
H 	H 	0.92940 0.60630 0.78790 0.08300
H 	H 	0.42940 0.10630 0.71210 0.03400
H 	H 	0.54710 0.57350 0.17780 0.06300
H 	H 	0.06330 0.74960 0.84090 0.00700
H 	H 	0.56330 0.24960 0.65910 0.02600
H 	H 	0.83310 0.60770 0.11630 0.05200
H 	H 	0.43670 0.75040 0.34090 0.02400
H 	H 	0.16690 0.39230 0.88370 0.04400
H 	H 	0.45290 0.42650 0.82220 0.06500
C 	C 	0.06590 0.03030 0.35529 -0.03200
C 	C 	0.65630 0.77670 0.73614 0.31200
C 	C 	0.84370 0.72330 0.23614 0.32100
C 	C 	0.23760 0.05160 0.39231 -0.00700
C 	C 	0.28410 0.30550 0.07547 0.36300
C 	C 	0.56590 0.53030 0.14471 0.01100
C 	C 	0.54550 0.60950 0.91405 -0.04500
C 	C 	0.88650 0.11990 0.77117 -0.00700
C 	C 	0.95650 0.21600 0.74434 0.01100
C 	C 	0.15630 0.27670 0.76386 0.28800
C 	C 	0.52220 0.54720 0.68860 0.35700
C 	C 	0.56730 0.13230 0.72056 0.01500
C 	C 	0.62600 0.41080 0.04797 -0.05200
C 	C 	0.12600 0.91080 0.45203 -0.02400
C 	C 	0.71590 0.69450 0.92453 0.37200
C 	C 	0.43410 0.46970 0.85529 0.00700
C 	C 	0.95450 0.89050 0.41405 -0.02200
C 	C 	0.37400 0.58920 0.95203 0.01300
C 	C 	0.38650 0.61990 0.72883 -0.03500
C 	C 	0.02220 0.04720 0.81140 0.29600
C 	C 	0.47780 0.45280 0.31140 0.35900
C 	C 	0.45450 0.39050 0.08595 -0.03500
C 	C 	0.87400 0.08920 0.54797 0.00100
C 	C 	0.78410 0.80550 0.42453 0.36700
C 	C 	0.93410 0.96970 0.64471 0.06400
C 	C 	0.21590 0.19450 0.57547 0.37300
C 	C 	0.93270 0.36770 0.22056 0.04000
C 	C 	0.45650 0.71600 0.75566 -0.00700
C 	C 	0.82610 0.14970 0.49176 0.29600
C 	C 	0.04550 0.10950 0.58595 -0.07300
C 	C 	0.06730 0.63230 0.77944 -0.05200
C 	C 	0.61350 0.38010 0.27117 -0.03100
C 	C 	0.32610 0.64970 0.00824 0.26700
C 	C 	0.97780 0.95280 0.18860 0.37400
C 	C 	0.54350 0.28400 0.24434 -0.01300
C 	C 	0.73760 0.55160 0.10769 0.02200
C 	C 	0.43270 0.86770 0.27944 0.01900
C 	C 	0.04350 0.78400 0.25566 -0.01600
C 	C 	0.64520 0.22060 0.68964 0.01700
C 	C 	0.35480 0.77940 0.31036 0.02000
C 	C 	0.85480 0.27940 0.18964 0.00600
C 	C 	0.76240 0.94840 0.60769 0.04800
C 	C 	0.26240 0.44840 0.89231 0.02600
C 	C 	0.67390 0.35030 0.99176 0.33900
C 	C 	0.17390 0.85030 0.50824 0.30400
C 	C 	0.11350 0.88010 0.22883 -0.03300
C 	C 	0.14520 0.72060 0.81036 0.04900
C 	C 	0.34370 0.22330 0.26386 0.31600
N 	N 	0.07460 0.05050 0.63477 -0.11900
N 	N 	0.31590 0.91640 0.23789 -0.14600
N 	N 	0.73390 0.00860 0.55938 -0.20600
N 	N 	0.26610 0.99140 0.44062 -0.15500
N 	N 	0.76610 0.49140 0.05938 -0.17800
N 	N 	0.57460 0.55050 0.86523 -0.08400
N 	N 	0.42540 0.44950 0.13477 -0.08900
N 	N 	0.66330 0.23490 0.20299 -0.16500
N 	N 	0.23390 0.50860 0.94062 -0.18300
N 	N 	0.81590 0.41640 0.26211 -0.15900
N 	N 	0.92540 0.94950 0.36523 -0.06300
N 	N 	0.33670 0.76510 0.79701 -0.17100
N 	N 	0.18410 0.58360 0.73789 -0.14700
N 	N 	0.83670 0.26510 0.70299 -0.16100
N 	N 	0.16330 0.73490 0.29701 -0.16700
N 	N 	0.68410 0.08360 0.76211 -0.16700
O 	O 	0.22300 0.35050 0.73017 -0.37800
O 	O 	0.72300 0.85050 0.76983 -0.36700
O 	O 	0.92270 0.01080 0.85533 -0.42100
O 	O 	0.76840 0.74590 0.18750 -0.26700
O 	O 	0.37230 0.16850 0.54401 -0.34000
O 	O 	0.07730 0.98920 0.14467 -0.43300
O 	O 	0.12770 0.33150 0.04401 -0.35600
O 	O 	0.19540 0.28260 0.60283 -0.44000
O 	O 	0.73160 0.75410 0.68750 -0.25900
O 	O 	0.23160 0.25410 0.81250 -0.26700
O 	O 	0.06850 0.76670 0.51830 -0.28400
O 	O 	0.81790 0.39140 0.95982 -0.34100
O 	O 	0.57730 0.48920 0.35533 -0.44300
O 	O 	0.42270 0.51080 0.64467 -0.44000
O 	O 	0.28880 0.47660 0.29729 -0.41100
O 	O 	0.27700 0.14950 0.23017 -0.39200
O 	O 	0.87230 0.66850 0.95599 -0.30500
O 	O 	0.62770 0.83150 0.45599 -0.32400
O 	O 	0.18210 0.60860 0.04018 -0.36000
O 	O 	0.71120 0.52340 0.70271 -0.39800
O 	O 	0.68210 0.10860 0.45982 -0.36200
O 	O 	0.56850 0.26670 0.98170 -0.27400
O 	O 	0.80460 0.71740 0.39717 -0.43200
O 	O 	0.30460 0.21740 0.10283 -0.44500
O 	O 	0.69540 0.78260 0.89717 -0.42400
O 	O 	0.31790 0.89140 0.54018 -0.34500
O 	O 	0.93150 0.23330 0.48170 -0.26900
O 	O 	0.78880 0.97660 0.20271 -0.39000
O 	O 	0.43150 0.73330 0.01830 -0.27900
O 	O 	0.26840 0.24590 0.31250 -0.27300
O 	O 	0.77700 0.64950 0.26983 -0.38200
O 	O 	0.21120 0.02340 0.79729 -0.41400
