data_crystal

_cell_length_a 6.09910
_cell_length_b 12.41680
_cell_length_c 23.46900
_cell_angle_alpha 90.00000
_cell_angle_beta  90.00000
_cell_angle_gamma 94.49060

_symmetry_space_group_name_	'P 1'
_symmetry_space_group_name_H-M	'P 1'

loop_
_symmetry_equiv_pos_as_xyz
  x,y,z

loop_
_atom_site_label
_atom_site_type_symbol
_atom_site_fract_x
_atom_site_fract_y
_atom_site_fract_z
_atom_site_charge
Dy	Dy	0.50801 0.60885 0.66825 1.75200
Dy	Dy	0.49199 0.39115 0.33175 1.74900
Dy	Dy	0.99199 0.89115 0.16825 1.78000
Dy	Dy	0.00801 0.10885 0.83175 1.65600
Cu	Cu	0.00000 0.00000 0.50000 0.90400
Cu	Cu	0.50000 0.50000 -0.00000 0.91100
H 	H 	0.38930 0.42200 0.79380 0.03500
H 	H 	0.02680 0.77580 0.66280 0.00900
H 	H 	0.47320 0.72420 0.16280 0.02900
H 	H 	0.50520 0.37420 0.61700 0.39600
H 	H 	0.82780 0.85680 0.39510 0.06000
H 	H 	0.99480 0.12580 0.11700 0.39300
H 	H 	0.05460 0.37140 0.17020 0.05600
H 	H 	0.97320 0.22420 0.33720 0.03400
H 	H 	0.52680 0.27580 0.83720 0.03300
H 	H 	0.32780 0.35680 0.10490 0.04700
H 	H 	0.17220 0.14320 0.60490 0.03700
H 	H 	0.00520 0.87420 0.88300 0.35300
H 	H 	0.97300 0.01800 0.10460 0.22800
H 	H 	0.88930 0.92200 0.70620 0.08400
H 	H 	0.49480 0.62580 0.38300 0.39400
H 	H 	0.55460 0.87140 0.32980 0.04400
H 	H 	0.02700 0.98200 0.89540 0.21700
H 	H 	0.52700 0.48200 0.60460 0.24000
H 	H 	0.61070 0.57800 0.20620 0.03600
H 	H 	0.44540 0.12860 0.67020 0.06900
H 	H 	0.11070 0.07800 0.29380 0.02600
H 	H 	0.94540 0.62860 0.82980 0.05500
H 	H 	0.47300 0.51800 0.39540 0.23800
H 	H 	0.67220 0.64320 0.89510 0.05700
C 	C 	0.81680 0.35710 0.99230 0.32900
C 	C 	0.92690 0.57740 0.85860 0.03800
C 	C 	0.57310 0.92260 0.35860 0.05300
C 	C 	0.01850 0.49000 0.30410 0.41300
C 	C 	0.30650 0.16000 0.40580 0.42200
C 	C 	0.03220 0.42610 0.90340 -0.06500
C 	C 	0.60400 0.30990 0.80730 0.02600
C 	C 	0.36550 0.93430 0.55660 0.01600
C 	C 	0.69350 0.84000 0.59420 0.42500
C 	C 	0.63450 0.06570 0.44340 -0.04400
C 	C 	0.68320 0.14290 0.49230 0.29800
C 	C 	0.89600 0.19010 0.30730 0.02100
C 	C 	0.90390 0.32670 0.74796 0.02900
C 	C 	0.48150 0.01000 0.80410 0.37500
C 	C 	0.08830 0.26810 0.72160 0.30400
C 	C 	0.18320 0.64290 0.00770 0.25000
C 	C 	0.41170 0.23190 0.22160 0.33500
C 	C 	0.39600 0.69010 0.19270 0.02600
C 	C 	0.07310 0.42260 0.14140 0.00600
C 	C 	0.84110 0.42680 0.72989 -0.05600
C 	C 	0.59610 0.17330 0.24796 -0.00300
C 	C 	0.40390 0.82670 0.75204 -0.01300
C 	C 	0.73690 0.91330 0.39800 0.01100
C 	C 	0.91170 0.73190 0.27840 0.33900
C 	C 	0.58830 0.76810 0.77840 0.34100
C 	C 	0.65890 0.07320 0.22989 -0.07200
C 	C 	0.15890 0.57320 0.27011 -0.04200
C 	C 	0.76310 0.58670 0.89800 0.02100
C 	C 	0.02640 0.90120 0.71710 -0.03500
C 	C 	0.34110 0.92680 0.77011 -0.01000
C 	C 	0.23690 0.41330 0.10200 0.02300
C 	C 	0.98150 0.51000 0.69590 0.45800
C 	C 	0.26310 0.08670 0.60200 0.03900
C 	C 	0.31680 0.85710 0.50770 0.28400
C 	C 	0.46780 0.07390 0.40340 -0.04500
C 	C 	0.10400 0.80990 0.69270 0.05400
C 	C 	0.80650 0.66000 0.09420 0.42700
C 	C 	0.96780 0.57390 0.09660 -0.05000
C 	C 	0.97360 0.09880 0.28290 0.03400
C 	C 	0.09610 0.67330 0.25204 -0.00800
C 	C 	0.53220 0.92610 0.59660 -0.05200
C 	C 	0.47360 0.59880 0.21710 0.02900
C 	C 	0.19350 0.34000 0.90580 0.42000
C 	C 	0.42690 0.07740 0.64140 -0.03800
C 	C 	0.52640 0.40120 0.78290 0.03000
C 	C 	0.86550 0.43430 0.94340 0.00300
C 	C 	0.13450 0.56570 0.05660 -0.01400
C 	C 	0.51850 0.99000 0.19590 0.44800
N 	N 	0.64240 0.46010 0.74411 -0.14400
N 	N 	0.26710 0.48430 0.05978 -0.18700
N 	N 	0.71120 0.23010 0.28837 -0.17600
N 	N 	0.85760 0.03990 0.24411 -0.15400
N 	N 	0.43840 0.00330 0.36039 -0.11200
N 	N 	0.21120 0.73010 0.21163 -0.17600
N 	N 	0.73290 0.51570 0.94022 -0.17200
N 	N 	0.28880 0.76990 0.71163 -0.18100
N 	N 	0.56160 0.99670 0.63961 -0.06000
N 	N 	0.06160 0.49670 0.86039 -0.10000
N 	N 	0.76710 0.98430 0.44022 -0.15200
N 	N 	0.35760 0.53990 0.25589 -0.14700
N 	N 	0.23290 0.01570 0.55978 -0.20900
N 	N 	0.14240 0.96010 0.75589 -0.13200
N 	N 	0.93840 0.50330 0.13961 -0.08700
N 	N 	0.78880 0.26990 0.78837 -0.17000
O 	O 	0.82500 0.11420 0.52821 -0.34900
O 	O 	0.34610 0.30850 0.25006 -0.43100
O 	O 	0.35330 0.35500 0.93672 -0.34400
O 	O 	0.34510 0.23860 0.37234 -0.49900
O 	O 	0.64670 0.64500 0.06328 -0.35900
O 	O 	0.68260 0.02050 0.79394 -0.43600
O 	O 	0.14890 0.29490 0.67273 -0.25000
O 	O 	0.96990 0.93520 0.87391 -0.70800
O 	O 	0.37880 0.06680 0.83800 -0.45500
O 	O 	0.65390 0.69150 0.74994 -0.42700
O 	O 	0.84510 0.73860 0.12766 -0.50100
O 	O 	0.31740 0.97950 0.20606 -0.44400
O 	O 	0.65490 0.76140 0.62766 -0.49300
O 	O 	0.41120 0.77380 0.50451 -0.26500
O 	O 	0.84610 0.80850 0.24994 -0.43000
O 	O 	0.91120 0.27380 0.99549 -0.25500
O 	O 	0.85110 0.70510 0.32727 -0.24700
O 	O 	0.17500 0.88580 0.47179 -0.34200
O 	O 	0.53010 0.56480 0.37391 -0.80600
O 	O 	0.03010 0.06480 0.12609 -0.82200
O 	O 	0.85330 0.85500 0.56328 -0.33500
O 	O 	0.15390 0.19150 0.75006 -0.42400
O 	O 	0.64890 0.79490 0.82727 -0.23800
O 	O 	0.15490 0.26140 0.87234 -0.49100
O 	O 	0.87880 0.56680 0.66200 -0.46900
O 	O 	0.18260 0.52050 0.70606 -0.47700
O 	O 	0.67500 0.38580 0.02821 -0.38400
O 	O 	0.12120 0.43320 0.33800 -0.46900
O 	O 	0.32500 0.61420 0.97179 -0.31300
O 	O 	0.81740 0.47950 0.29394 -0.44500
O 	O 	0.14670 0.14500 0.43672 -0.36300
O 	O 	0.46990 0.43520 0.62609 -0.81100
O 	O 	0.08880 0.72620 0.00451 -0.26800
O 	O 	0.58880 0.22620 0.49549 -0.26700
O 	O 	0.35110 0.20510 0.17273 -0.25600
O 	O 	0.62120 0.93320 0.16200 -0.47000
