data_crystal

_cell_length_a 6.09280
_cell_length_b 12.11830
_cell_length_c 22.57700
_cell_angle_alpha 90.00000
_cell_angle_beta  90.00000
_cell_angle_gamma 90.64310

_symmetry_space_group_name_	'P 1'
_symmetry_space_group_name_H-M	'P 1'

loop_
_symmetry_equiv_pos_as_xyz
  x,y,z

loop_
_atom_site_label
_atom_site_type_symbol
_atom_site_fract_x
_atom_site_fract_y
_atom_site_fract_z
_atom_site_charge
Eu	Eu	0.54648 0.05679 0.35076 1.56200
Eu	Eu	0.04648 0.55679 0.14924 1.58900
Eu	Eu	0.95352 0.44321 0.85076 1.68100
Eu	Eu	0.45352 0.94321 0.64924 1.72400
Cu	Cu	0.50000 0.00000 -0.00000 0.89000
Cu	Cu	0.00000 0.50000 0.50000 0.91200
H 	H 	0.82550 0.38910 0.61670 0.05100
H 	H 	0.17450 0.61090 0.38330 0.04200
H 	H 	0.96000 0.07460 0.17920 0.06300
H 	H 	0.57160 0.10650 0.78770 0.03200
H 	H 	0.46000 0.57460 0.32080 0.06400
H 	H 	0.42840 0.89350 0.21230 0.03900
H 	H 	0.07160 0.60650 0.71230 0.02000
H 	H 	0.95300 0.76800 0.65600 0.03200
H 	H 	0.92840 0.39350 0.28770 0.08200
H 	H 	0.04000 0.92540 0.82080 0.06200
H 	H 	0.32550 0.88910 0.88330 0.04500
H 	H 	0.04700 0.23200 0.34400 0.00200
H 	H 	0.54000 0.42540 0.67920 0.06100
H 	H 	0.54700 0.73200 0.15600 0.02500
H 	H 	0.67450 0.11090 0.11670 0.05600
H 	H 	0.45300 0.26800 0.84400 0.02200
C 	C 	0.56760 0.86720 0.22090 0.02700
C 	C 	0.94060 0.03120 0.14560 0.00800
C 	C 	0.47550 0.54260 0.81190 0.40700
C 	C 	0.85540 0.72310 0.68910 0.02800
C 	C 	0.71860 0.30260 0.42210 0.38100
C 	C 	0.83700 0.27910 0.73650 0.35500
C 	C 	0.33700 0.77910 0.76350 0.35000
C 	C 	0.23100 0.94670 0.89180 0.05100
C 	C 	0.61150 0.61860 0.77220 -0.04600
C 	C 	0.78140 0.19740 0.92210 0.39100
C 	C 	0.67510 0.65340 0.49210 0.29000
C 	C 	0.45730 0.28450 0.25610 -0.00400
C 	C 	0.73100 0.44670 0.60820 0.02500
C 	C 	0.06760 0.36720 0.27910 -0.04900
C 	C 	0.87680 0.90940 0.04850 -0.00800
C 	C 	0.21860 0.80260 0.07790 0.38300
C 	C 	0.04810 0.88870 0.08730 -0.06700
C 	C 	0.54810 0.38870 0.41270 -0.04400
C 	C 	0.28140 0.69740 0.57790 0.39000
C 	C 	0.62320 0.59060 0.54850 -0.01200
C 	C 	0.26900 0.55330 0.39180 0.02300
C 	C 	0.37680 0.40940 0.45150 -0.01900
C 	C 	0.82490 0.84660 0.99210 0.31600
C 	C 	0.44060 0.53120 0.35440 0.00900
C 	C 	0.38850 0.38140 0.22780 -0.04800
C 	C 	0.93240 0.63280 0.72090 0.04700
C 	C 	0.05940 0.96880 0.85440 0.02400
C 	C 	0.02450 0.95740 0.31190 0.32600
C 	C 	0.17510 0.15340 0.00790 0.25400
C 	C 	0.95730 0.78450 0.24390 0.01800
C 	C 	0.54270 0.71550 0.74390 -0.00600
C 	C 	0.11150 0.11860 0.72780 -0.06400
C 	C 	0.12320 0.09060 0.95150 0.00400
C 	C 	0.95190 0.11130 0.91270 -0.04600
C 	C 	0.52450 0.45740 0.18810 0.40000
C 	C 	0.32490 0.34660 0.50790 0.29200
C 	C 	0.14460 0.27690 0.31090 0.05300
C 	C 	0.43240 0.13280 0.77910 0.01900
C 	C 	0.04270 0.21550 0.75610 -0.01000
C 	C 	0.35540 0.22310 0.81090 0.03200
C 	C 	0.16300 0.72090 0.26350 0.31900
C 	C 	0.55940 0.46880 0.64560 0.00900
C 	C 	0.76900 0.05330 0.10820 -0.01700
C 	C 	0.45190 0.61130 0.58730 -0.05100
C 	C 	0.64460 0.77690 0.18910 0.03600
C 	C 	0.88850 0.88140 0.27220 -0.00200
C 	C 	0.66300 0.22090 0.23650 0.34400
C 	C 	0.97550 0.04260 0.68810 0.43100
N 	N 	0.31660 0.08300 0.73730 -0.16700
N 	N 	0.73730 0.99210 0.05960 -0.15800
N 	N 	0.26270 0.00790 0.94040 -0.20000
N 	N 	0.33730 0.23320 0.29710 -0.17800
N 	N 	0.66270 0.76680 0.70290 -0.17100
N 	N 	0.58140 0.44910 0.36480 -0.08800
N 	N 	0.16270 0.26680 0.79710 -0.17500
N 	N 	0.08140 0.94910 0.13520 -0.08300
N 	N 	0.91860 0.05090 0.86480 -0.10200
N 	N 	0.23730 0.49210 0.44040 -0.18900
N 	N 	0.68340 0.91700 0.26270 -0.15300
N 	N 	0.41860 0.55090 0.63520 -0.09000
N 	N 	0.83730 0.73320 0.20290 -0.16600
N 	N 	0.18340 0.41700 0.23730 -0.14900
N 	N 	0.76270 0.50790 0.55960 -0.18100
N 	N 	0.81660 0.58300 0.76270 -0.16300
O 	O 	0.92050 0.99670 0.35510 -0.40500
O 	O 	0.37840 0.82800 0.04490 -0.34200
O 	O 	0.24180 0.74610 0.31210 -0.27800
O 	O 	0.74180 0.24610 0.18790 -0.27700
O 	O 	0.72270 0.14630 0.27010 -0.42100
O 	O 	0.75820 0.25390 0.68790 -0.28600
O 	O 	0.71800 0.47960 0.20080 -0.43300
O 	O 	0.81680 0.61100 0.45890 -0.33800
O 	O 	0.77730 0.35370 0.77010 -0.43000
O 	O 	0.07380 0.24170 0.01730 -0.29200
O 	O 	0.68320 0.88900 0.95890 -0.33200
O 	O 	0.57380 0.74170 0.48270 -0.26900
O 	O 	0.79980 0.28720 0.89460 -0.47100
O 	O 	0.70020 0.21280 0.39460 -0.46400
O 	O 	0.27730 0.85370 0.72990 -0.42800
O 	O 	0.57950 0.50330 0.85510 -0.47900
O 	O 	0.22270 0.64630 0.22990 -0.41800
O 	O 	0.42620 0.25830 0.51730 -0.28300
O 	O 	0.92620 0.75830 0.98270 -0.25600
O 	O 	0.62160 0.17200 0.95510 -0.32100
O 	O 	0.07950 0.00330 0.64490 -0.52100
O 	O 	0.21800 0.97960 0.29920 -0.41000
O 	O 	0.20020 0.71280 0.10540 -0.47700
O 	O 	0.28200 0.52040 0.79920 -0.45400
O 	O 	0.29980 0.78720 0.60540 -0.48200
O 	O 	0.87840 0.32800 0.45510 -0.32300
O 	O 	0.78200 0.02040 0.70080 -0.47600
O 	O 	0.18320 0.38900 0.54110 -0.36000
O 	O 	0.12160 0.67200 0.54490 -0.34500
O 	O 	0.31680 0.11100 0.04110 -0.36300
O 	O 	0.42050 0.49670 0.14490 -0.47500
O 	O 	0.25820 0.75390 0.81210 -0.28300
