data_crystal

_cell_length_a 6.15900
_cell_length_b 12.26140
_cell_length_c 22.79600
_cell_angle_alpha 90.00000
_cell_angle_beta  90.00000
_cell_angle_gamma 89.77760

_symmetry_space_group_name_	'P 1'
_symmetry_space_group_name_H-M	'P 1'

loop_
_symmetry_equiv_pos_as_xyz
  x,y,z

loop_
_atom_site_label
_atom_site_type_symbol
_atom_site_fract_x
_atom_site_fract_y
_atom_site_fract_z
_atom_site_charge
Ce	Ce	0.04256 0.94354 0.35174 2.07300
Ce	Ce	0.95744 0.05646 0.64826 2.05500
Ce	Ce	0.54256 0.44354 0.14826 2.06500
Ce	Ce	0.45744 0.55646 0.85174 2.07100
Cu	Cu	-0.00000 0.00000 -0.00000 0.88200
Cu	Cu	0.50000 0.50000 0.50000 0.92400
H 	H 	0.93340 0.74680 0.84130 0.02000
H 	H 	0.43340 0.24680 0.65870 0.00400
H 	H 	0.06660 0.25320 0.15870 -0.01600
H 	H 	0.43040 0.60620 0.28620 0.03100
H 	H 	0.04600 0.57920 0.67630 0.06800
H 	H 	0.54600 0.07920 0.82370 0.06800
H 	H 	0.56660 0.75320 0.34130 0.01400
H 	H 	0.45400 0.92080 0.17630 0.06700
H 	H 	0.93040 0.10620 0.21380 0.07800
H 	H 	0.16690 0.89540 0.11810 0.02700
H 	H 	0.83310 0.10460 0.88190 0.05200
H 	H 	0.06960 0.89380 0.78620 0.02200
H 	H 	0.66690 0.39540 0.38190 0.04300
H 	H 	0.33310 0.60460 0.61810 0.04000
H 	H 	0.56960 0.39380 0.71380 0.03600
H 	H 	0.95400 0.42080 0.32370 0.06600
C 	C 	0.43300 0.96700 0.14430 0.02200
C 	C 	0.85170 0.77630 0.81080 0.01100
C 	C 	0.17180 0.35020 0.49310 0.28100
C 	C 	0.47800 0.95300 0.68830 0.39500
C 	C 	0.21890 0.69510 0.42290 0.38900
C 	C 	0.84350 0.22050 0.76420 0.34600
C 	C 	0.87510 0.58990 0.45210 0.01000
C 	C 	0.82820 0.64980 0.50690 0.27000
C 	C 	0.02200 0.54700 0.18830 0.31900
C 	C 	0.95430 0.39070 0.58590 -0.03400
C 	C 	0.54570 0.10930 0.08590 -0.04800
C 	C 	0.76630 0.44970 0.39140 0.02800
C 	C 	0.38580 0.11820 0.27190 -0.07000
C 	C 	0.93120 0.86780 0.77820 0.05100
C 	C 	0.11420 0.38180 0.77190 -0.07100
C 	C 	0.28110 0.80490 0.92290 0.38900
C 	C 	0.23370 0.55030 0.60860 0.03500
C 	C 	0.95370 0.71630 0.25610 0.01800
C 	C 	0.26630 0.94970 0.10860 0.06000
C 	C 	0.56880 0.63220 0.27820 0.02100
C 	C 	0.34350 0.72050 0.73580 0.34200
C 	C 	0.62490 0.91010 0.95210 0.02400
C 	C 	0.04630 0.28370 0.74390 -0.01500
C 	C 	0.52200 0.04700 0.31170 0.39700
C 	C 	0.06880 0.13220 0.22180 -0.06100
C 	C 	0.67180 0.85020 0.00690 0.24100
C 	C 	0.45430 0.89070 0.91410 -0.05200
C 	C 	0.64830 0.72370 0.31080 0.02100
C 	C 	0.35170 0.27630 0.68920 0.01900
C 	C 	0.37510 0.08990 0.04790 -0.06700
C 	C 	0.54630 0.78370 0.75610 -0.01200
C 	C 	0.32820 0.14980 0.99310 0.31300
C 	C 	0.97800 0.45300 0.81170 0.41900
C 	C 	0.78110 0.30490 0.57710 0.38200
C 	C 	0.04570 0.60930 0.41410 -0.08400
C 	C 	0.73370 0.05030 0.89140 0.00000
C 	C 	0.45370 0.21630 0.24390 -0.00700
C 	C 	0.71890 0.19510 0.07710 0.37700
C 	C 	0.15650 0.77950 0.23580 0.30900
C 	C 	0.56700 0.03300 0.85570 -0.03500
C 	C 	0.06700 0.53300 0.64430 -0.01700
C 	C 	0.14830 0.22370 0.18920 0.04700
C 	C 	0.61420 0.88180 0.72810 -0.05200
C 	C 	0.88580 0.61820 0.22810 -0.02300
C 	C 	0.43120 0.36780 0.72180 0.01700
C 	C 	0.65650 0.27950 0.26420 0.33700
C 	C 	0.12490 0.41010 0.54790 -0.04000
C 	C 	0.93300 0.46700 0.35570 0.02400
N 	N 	0.81600 0.91600 0.73770 -0.18400
N 	N 	0.31600 0.41600 0.76230 -0.18600
N 	N 	0.33840 0.26560 0.20290 -0.21500
N 	N 	0.07830 0.55170 0.36500 -0.09900
N 	N 	0.73470 0.50730 0.44030 -0.18600
N 	N 	0.16160 0.23440 0.70290 -0.21000
N 	N 	0.66160 0.73440 0.79710 -0.20100
N 	N 	0.18400 0.08400 0.26230 -0.18500
N 	N 	0.83840 0.76560 0.29710 -0.19700
N 	N 	0.26530 0.49270 0.55970 -0.18400
N 	N 	0.57830 0.05170 0.13500 -0.10300
N 	N 	0.23470 0.00730 0.05970 -0.21000
N 	N 	0.76530 0.99270 0.94030 -0.14700
N 	N 	0.68400 0.58400 0.23770 -0.19400
N 	N 	0.42170 0.94830 0.86500 -0.06300
N 	N 	0.92170 0.44830 0.63500 -0.08100
O 	O 	0.80270 0.21530 0.60350 -0.54300
O 	O 	0.93060 0.73540 0.51860 -0.27700
O 	O 	0.12630 0.83070 0.95620 -0.33000
O 	O 	0.71990 0.35110 0.23060 -0.46500
O 	O 	0.37370 0.66930 0.45620 -0.34400
O 	O 	0.56940 0.76460 0.01860 -0.29900
O 	O 	0.73860 0.25340 0.31200 -0.28200
O 	O 	0.32110 0.39090 0.45950 -0.35300
O 	O 	0.19730 0.78470 0.39650 -0.54100
O 	O 	0.21990 0.85110 0.26940 -0.46100
O 	O 	0.62630 0.33070 0.54380 -0.34300
O 	O 	0.06940 0.26460 0.48140 -0.31000
O 	O 	0.82110 0.89090 0.04050 -0.31900
O 	O 	0.69730 0.28470 0.10350 -0.53900
O 	O 	0.43060 0.23540 0.98140 -0.29300
O 	O 	0.07430 0.49070 0.85520 -0.56600
O 	O 	0.78850 0.47750 0.79770 -0.49900
O 	O 	0.30270 0.71530 0.89650 -0.53800
O 	O 	0.87370 0.16930 0.04380 -0.34600
O 	O 	0.57430 0.99070 0.64480 -0.53400
O 	O 	0.28010 0.64890 0.76940 -0.47600
O 	O 	0.26140 0.74660 0.68800 -0.29000
O 	O 	0.17890 0.10910 0.95950 -0.35800
O 	O 	0.23860 0.75340 0.18800 -0.28600
O 	O 	0.92570 0.50930 0.14480 -0.51400
O 	O 	0.76140 0.24660 0.81200 -0.28900
O 	O 	0.67890 0.60910 0.54050 -0.34400
O 	O 	0.78010 0.14890 0.73060 -0.48600
O 	O 	0.42570 0.00930 0.35520 -0.57400
O 	O 	0.21150 0.52250 0.20230 -0.48600
O 	O 	0.71150 0.02250 0.29770 -0.50400
O 	O 	0.28850 0.97750 0.70230 -0.48200
