data_crystal

_cell_length_a 6.04070
_cell_length_b 12.32970
_cell_length_c 23.58000
_cell_angle_alpha 90.00000
_cell_angle_beta  90.00000
_cell_angle_gamma 94.05320

_symmetry_space_group_name_	'P 1'
_symmetry_space_group_name_H-M	'P 1'

loop_
_symmetry_equiv_pos_as_xyz
  x,y,z

loop_
_atom_site_label
_atom_site_type_symbol
_atom_site_fract_x
_atom_site_fract_y
_atom_site_fract_z
_atom_site_charge
Gd	Gd	0.01157 0.10983 0.32861 1.41900
Gd	Gd	0.48843 0.39017 0.82861 1.49800
Gd	Gd	0.51157 0.60983 0.17139 1.48800
Gd	Gd	0.98843 0.89017 0.67139 1.53300
Cu	Cu	-0.00000 0.00000 -0.00000 0.88500
Cu	Cu	0.50000 0.50000 0.50000 0.92600
H 	H 	0.32200 0.35680 0.60390 0.05000
H 	H 	0.54670 0.87490 0.82980 0.04700
H 	H 	0.04670 0.37490 0.67020 0.05800
H 	H 	0.45330 0.12510 0.17020 0.07100
H 	H 	0.17800 0.14320 0.10390 0.03700
H 	H 	0.95330 0.62510 0.32980 0.05700
H 	H 	0.46820 0.72590 0.66420 0.03700
H 	H 	0.67800 0.64320 0.39610 0.05600
H 	H 	0.89190 0.92490 0.20760 0.07700
H 	H 	0.82200 0.85680 0.89610 0.06600
H 	H 	0.53180 0.27410 0.33580 0.04000
H 	H 	0.03180 0.77410 0.16420 0.02000
H 	H 	0.60810 0.57510 0.70760 0.03600
H 	H 	0.39190 0.42490 0.29240 0.03500
H 	H 	0.10810 0.07510 0.79240 0.00500
H 	H 	0.96820 0.22590 0.83580 0.05100
C 	C 	0.69920 0.83340 0.09290 0.41700
C 	C 	0.43350 0.07370 0.14150 -0.03500
C 	C 	0.56650 0.92630 0.85850 0.06200
C 	C 	0.63220 0.06880 0.94420 -0.04400
C 	C 	0.26720 0.08490 0.10140 0.03600
C 	C 	0.96550 0.57960 0.59570 -0.03200
C 	C 	0.98480 0.51070 0.19690 0.42200
C 	C 	0.80080 0.66660 0.59290 0.41300
C 	C 	0.58640 0.17210 0.74770 -0.00700
C 	C 	0.46550 0.07960 0.90430 -0.03800
C 	C 	0.30080 0.16660 0.90710 0.41000
C 	C 	0.76720 0.58490 0.39860 0.02000
C 	C 	0.88970 0.19090 0.80630 0.00600
C 	C 	0.73280 0.91510 0.89860 0.01300
C 	C 	0.10060 0.26840 0.22200 0.30800
C 	C 	0.65570 0.07220 0.72970 -0.06900
C 	C 	0.89940 0.73160 0.77800 0.35100
C 	C 	0.13220 0.56880 0.55580 -0.02700
C 	C 	0.52940 0.40270 0.28140 0.02900
C 	C 	0.18340 0.64510 0.50800 0.29000
C 	C 	0.15570 0.57220 0.77030 -0.03200
C 	C 	0.47060 0.59730 0.71860 0.02900
C 	C 	0.60060 0.76840 0.27800 0.34200
C 	C 	0.03450 0.42040 0.40430 -0.07000
C 	C 	0.01520 0.48930 0.80310 0.36600
C 	C 	0.38970 0.69090 0.69370 0.02200
C 	C 	0.68340 0.14510 0.99200 0.33300
C 	C 	0.51520 0.98930 0.69690 0.41800
C 	C 	0.34430 0.92780 0.27030 -0.00400
C 	C 	0.19920 0.33340 0.40710 0.41400
C 	C 	0.61030 0.30910 0.30630 0.02400
C 	C 	0.31660 0.85490 0.00800 0.24000
C 	C 	0.06650 0.42630 0.64150 0.00100
C 	C 	0.02940 0.90270 0.21860 -0.02300
C 	C 	0.97060 0.09730 0.78140 0.06400
C 	C 	0.36780 0.93120 0.05580 0.02700
C 	C 	0.23280 0.41510 0.60140 0.02600
C 	C 	0.08640 0.67210 0.75230 -0.02500
C 	C 	0.11030 0.80910 0.19370 0.04500
C 	C 	0.91360 0.32790 0.24770 0.02300
C 	C 	0.86780 0.43120 0.44420 0.01200
C 	C 	0.93350 0.57370 0.35850 0.04000
C 	C 	0.81660 0.35490 0.49200 0.28200
C 	C 	0.53450 0.92040 0.09570 -0.05400
C 	C 	0.48480 0.01070 0.30310 0.34300
C 	C 	0.39940 0.23160 0.72200 0.33700
C 	C 	0.41360 0.82790 0.25230 -0.01700
C 	C 	0.84430 0.42780 0.22970 -0.05200
N 	N 	0.20080 0.72990 0.71220 -0.16800
N 	N 	0.85380 0.04070 0.74260 -0.16600
N 	N 	0.64620 0.45930 0.24260 -0.15200
N 	N 	0.76510 0.98720 0.94070 -0.14200
N 	N 	0.56450 0.99150 0.13990 -0.05900
N 	N 	0.29920 0.77010 0.21220 -0.17100
N 	N 	0.70080 0.22990 0.78780 -0.16400
N 	N 	0.93550 0.50850 0.63990 -0.08300
N 	N 	0.73490 0.51280 0.44070 -0.18300
N 	N 	0.06450 0.49150 0.36010 -0.09900
N 	N 	0.35380 0.54070 0.75740 -0.15600
N 	N 	0.43550 0.00850 0.86010 -0.11500
N 	N 	0.23490 0.01280 0.05930 -0.21600
N 	N 	0.79920 0.27010 0.28780 -0.16200
N 	N 	0.14620 0.95930 0.25740 -0.13900
N 	N 	0.26510 0.48720 0.55930 -0.18100
O 	O 	0.61860 0.93090 0.66290 -0.43700
O 	O 	0.40840 0.76960 0.00520 -0.25200
O 	O 	0.83660 0.74650 0.62530 -0.46000
O 	O 	0.66560 0.79590 0.32580 -0.25700
O 	O 	0.83440 0.70410 0.82580 -0.26400
O 	O 	0.67840 0.38670 0.52900 -0.34500
O 	O 	0.88140 0.56910 0.16290 -0.43600
O 	O 	0.83440 0.80920 0.74950 -0.41200
O 	O 	0.64100 0.65050 0.56170 -0.34000
O 	O 	0.90840 0.26960 0.49480 -0.24200
O 	O 	0.69040 0.02240 0.29310 -0.42900
O 	O 	0.33440 0.20410 0.67420 -0.27900
O 	O 	0.38140 0.06910 0.33710 -0.42400
O 	O 	0.85900 0.84950 0.06170 -0.33100
O 	O 	0.14100 0.15050 0.93830 -0.34600
O 	O 	0.66340 0.75350 0.12530 -0.45700
O 	O 	0.30960 0.97760 0.70690 -0.44400
O 	O 	0.35900 0.34950 0.43830 -0.34600
O 	O 	0.16560 0.19080 0.25050 -0.40700
O 	O 	0.32160 0.61330 0.47100 -0.34700
O 	O 	0.33660 0.24650 0.87470 -0.46100
O 	O 	0.11860 0.43090 0.83710 -0.43200
O 	O 	0.66560 0.69080 0.24950 -0.40800
O 	O 	0.59160 0.23040 0.99480 -0.24600
O 	O 	0.16560 0.29590 0.17420 -0.27300
O 	O 	0.80960 0.47760 0.79310 -0.43000
O 	O 	0.16340 0.25350 0.37470 -0.45900
O 	O 	0.17840 0.88670 0.97100 -0.30100
O 	O 	0.82160 0.11330 0.02900 -0.37100
O 	O 	0.09160 0.73040 0.50520 -0.25200
O 	O 	0.33440 0.30920 0.75050 -0.41400
O 	O 	0.19040 0.52240 0.20690 -0.47000
