data_crystal

_cell_length_a 10.15400
_cell_length_b 18.39300
_cell_length_c 15.77300
_cell_angle_alpha 90.00000
_cell_angle_beta  90.00000
_cell_angle_gamma 90.00000

_symmetry_space_group_name_	'P 1'
_symmetry_space_group_name_H-M	'P 1'

loop_
_symmetry_equiv_pos_as_xyz
  x,y,z

loop_
_atom_site_label
_atom_site_type_symbol
_atom_site_fract_x
_atom_site_fract_y
_atom_site_fract_z
_atom_site_charge
Ga	Ga	0.18010 0.71790 0.53810 2.09800
Ga	Ga	0.33660 0.67400 0.35120 2.08900
Ga	Ga	0.14900 0.90570 0.50360 2.08700
P 	P 	0.35950 0.57590 0.51640 0.63500
P 	P 	0.15050 0.83170 0.68450 0.65500
P 	P 	0.37960 0.81700 0.43720 0.60000
F 	F 	0.17330 0.68580 0.41930 -0.80200
F 	F 	0.08440 0.80390 0.50140 -0.86600
O 	O 	0.49890 0.56660 0.55550 -0.57200
O 	O 	0.28600 0.50370 0.51980 -0.50600
O 	O 	0.37920 0.59900 0.42320 -0.65500
O 	O 	0.28460 0.63320 0.56860 -0.49300
O 	O 	0.23520 0.85380 0.76060 -0.53500
O 	O 	0.18360 0.75460 0.65460 -0.53400
O 	O 	0.18610 0.89000 0.61800 -0.57400
O 	O 	0.00500 0.83820 0.71050 -0.51000
O 	O 	0.29140 0.88550 0.43140 -0.52400
O 	O 	0.35970 0.77420 0.35380 -0.56800
O 	O 	0.34310 0.77080 0.51420 -0.57200
O 	O 	0.52300 0.84180 0.44420 -0.45900
Ga	Ga	0.31990 0.28210 0.03810 2.09900
Ga	Ga	0.16340 0.32600 0.85120 2.09100
Ga	Ga	0.35100 0.09430 0.00360 2.08700
P 	P 	0.14050 0.42410 0.01640 0.63400
P 	P 	0.34950 0.16830 0.18450 0.65500
P 	P 	0.12040 0.18300 0.93720 0.60800
F 	F 	0.32670 0.31420 0.91930 -0.79900
F 	F 	0.41560 0.19610 0.00140 -0.86700
O 	O 	0.00110 0.43340 0.05550 -0.57400
O 	O 	0.21400 0.49630 0.01980 -0.50500
O 	O 	0.12080 0.40100 0.92320 -0.65100
O 	O 	0.21540 0.36680 0.06860 -0.49300
O 	O 	0.26480 0.14620 0.26060 -0.53500
O 	O 	0.31640 0.24540 0.15460 -0.53500
O 	O 	0.31390 0.11000 0.11800 -0.57700
O 	O 	0.49500 0.16180 0.21050 -0.51100
O 	O 	0.20860 0.11450 0.93140 -0.52200
O 	O 	0.14030 0.22580 0.85380 -0.56700
O 	O 	0.15690 0.22920 0.01420 -0.57700
O 	O 	0.97700 0.15820 0.94420 -0.46300
Ga	Ga	0.81990 0.21790 0.96190 2.09900
Ga	Ga	0.66340 0.17400 0.14880 2.09000
Ga	Ga	0.85100 0.40570 0.99640 2.08800
P 	P 	0.64050 0.07590 0.98360 0.64000
P 	P 	0.84950 0.33170 0.81550 0.65500
P 	P 	0.62040 0.31700 0.06280 0.60000
F 	F 	0.82670 0.18580 0.08070 -0.80100
F 	F 	0.91560 0.30390 0.99860 -0.86600
O 	O 	0.50110 0.06660 0.94450 -0.56900
O 	O 	0.71400 0.00370 0.98020 -0.50400
O 	O 	0.62080 0.09900 0.07680 -0.65800
O 	O 	0.71540 0.13320 0.93140 -0.49200
O 	O 	0.76480 0.35380 0.73940 -0.53400
O 	O 	0.81640 0.25460 0.84540 -0.53500
O 	O 	0.81390 0.39000 0.88200 -0.57400
O 	O 	0.99500 0.33820 0.78950 -0.51300
O 	O 	0.70860 0.38550 0.06860 -0.52200
O 	O 	0.64030 0.27420 0.14620 -0.56700
O 	O 	0.65690 0.27080 0.98580 -0.57000
O 	O 	0.47700 0.34180 0.05580 -0.45900
Ga	Ga	0.68010 0.78210 0.46190 2.09900
Ga	Ga	0.83660 0.82600 0.64880 2.09000
Ga	Ga	0.64900 0.59430 0.49640 2.08800
P 	P 	0.85950 0.92410 0.48360 0.63600
P 	P 	0.65050 0.66830 0.31550 0.65500
P 	P 	0.87960 0.68300 0.56280 0.60000
F 	F 	0.67330 0.81420 0.58070 -0.80200
F 	F 	0.58440 0.69610 0.49860 -0.86600
O 	O 	0.99890 0.93340 0.44450 -0.57200
O 	O 	0.78600 0.99630 0.48020 -0.50600
O 	O 	0.87920 0.90100 0.57680 -0.65600
O 	O 	0.78460 0.86680 0.43140 -0.49200
O 	O 	0.73520 0.64620 0.23940 -0.53400
O 	O 	0.68360 0.74540 0.34540 -0.53400
O 	O 	0.68610 0.61000 0.38200 -0.57400
O 	O 	0.50500 0.66180 0.28950 -0.51000
O 	O 	0.79140 0.61450 0.56860 -0.52400
O 	O 	0.85970 0.72580 0.64620 -0.56800
O 	O 	0.84310 0.72920 0.48580 -0.57200
O 	O 	0.02300 0.65820 0.55580 -0.46000
Ga	Ga	0.81990 0.28210 0.46190 2.09900
Ga	Ga	0.66340 0.32600 0.64880 2.09000
Ga	Ga	0.85100 0.09430 0.49640 2.08800
P 	P 	0.64050 0.42410 0.48360 0.63600
P 	P 	0.84950 0.16830 0.31550 0.65500
P 	P 	0.62040 0.18300 0.56280 0.60000
F 	F 	0.82670 0.31420 0.58070 -0.80200
F 	F 	0.91560 0.19610 0.49860 -0.86600
O 	O 	0.50110 0.43340 0.44450 -0.57200
O 	O 	0.71400 0.49630 0.48020 -0.50600
O 	O 	0.62080 0.40100 0.57680 -0.65500
O 	O 	0.71540 0.36680 0.43140 -0.49300
O 	O 	0.76480 0.14620 0.23940 -0.53500
O 	O 	0.81640 0.24540 0.34540 -0.53400
O 	O 	0.81390 0.11000 0.38200 -0.57400
O 	O 	0.99500 0.16180 0.28950 -0.51000
O 	O 	0.70860 0.11450 0.56860 -0.52400
O 	O 	0.64030 0.22580 0.64620 -0.56800
O 	O 	0.65690 0.22920 0.48580 -0.57200
O 	O 	0.47700 0.15820 0.55580 -0.45900
Ga	Ga	0.68010 0.71790 0.96190 2.09900
Ga	Ga	0.83660 0.67400 0.14880 2.09100
Ga	Ga	0.64900 0.90570 0.99640 2.08700
P 	P 	0.85950 0.57590 0.98360 0.63400
P 	P 	0.65050 0.83170 0.81550 0.65500
P 	P 	0.87960 0.81700 0.06280 0.60800
F 	F 	0.67330 0.68580 0.08070 -0.79900
F 	F 	0.58440 0.80390 0.99860 -0.86700
O 	O 	0.99890 0.56660 0.94450 -0.57400
O 	O 	0.78600 0.50370 0.98020 -0.50500
O 	O 	0.87920 0.59900 0.07680 -0.65100
O 	O 	0.78460 0.63320 0.93140 -0.49300
O 	O 	0.73520 0.85380 0.73940 -0.53500
O 	O 	0.68360 0.75460 0.84540 -0.53500
O 	O 	0.68610 0.89000 0.88200 -0.57700
O 	O 	0.50500 0.83820 0.78950 -0.51100
O 	O 	0.79140 0.88550 0.06860 -0.52200
O 	O 	0.85970 0.77420 0.14620 -0.56700
O 	O 	0.84310 0.77080 0.98580 -0.57700
O 	O 	0.02300 0.84180 0.05580 -0.46300
Ga	Ga	0.18010 0.78210 0.03810 2.09900
Ga	Ga	0.33660 0.82600 0.85120 2.09000
Ga	Ga	0.14900 0.59430 0.00360 2.08800
P 	P 	0.35950 0.92410 0.01640 0.64000
P 	P 	0.15050 0.66830 0.18450 0.65500
P 	P 	0.37960 0.68300 0.93720 0.60000
F 	F 	0.17330 0.81420 0.91930 -0.80100
F 	F 	0.08440 0.69610 0.00140 -0.86600
O 	O 	0.49890 0.93340 0.05550 -0.56900
O 	O 	0.28600 0.99630 0.01980 -0.50400
O 	O 	0.37920 0.90100 0.92320 -0.65800
O 	O 	0.28460 0.86680 0.06860 -0.49200
O 	O 	0.23520 0.64620 0.26060 -0.53400
O 	O 	0.18360 0.74540 0.15460 -0.53500
O 	O 	0.18610 0.61000 0.11800 -0.57400
O 	O 	0.00500 0.66180 0.21050 -0.51300
O 	O 	0.29140 0.61450 0.93140 -0.52200
O 	O 	0.35970 0.72580 0.85380 -0.56700
O 	O 	0.34310 0.72920 0.01420 -0.57000
O 	O 	0.52300 0.65820 0.94420 -0.45900
Ga	Ga	0.31990 0.21790 0.53810 2.09900
Ga	Ga	0.16340 0.17400 0.35120 2.09000
Ga	Ga	0.35100 0.40570 0.50360 2.08800
P 	P 	0.14050 0.07590 0.51640 0.63600
P 	P 	0.34950 0.33170 0.68450 0.65500
P 	P 	0.12040 0.31700 0.43720 0.60000
F 	F 	0.32670 0.18580 0.41930 -0.80200
F 	F 	0.41560 0.30390 0.50140 -0.86600
O 	O 	0.00110 0.06660 0.55550 -0.57200
O 	O 	0.21400 0.00370 0.51980 -0.50600
O 	O 	0.12080 0.09900 0.42320 -0.65600
O 	O 	0.21540 0.13320 0.56860 -0.49200
O 	O 	0.26480 0.35380 0.76060 -0.53400
O 	O 	0.31640 0.25460 0.65460 -0.53400
O 	O 	0.31390 0.39000 0.61800 -0.57400
O 	O 	0.49500 0.33820 0.71050 -0.51000
O 	O 	0.20860 0.38550 0.43140 -0.52400
O 	O 	0.14030 0.27420 0.35380 -0.56800
O 	O 	0.15690 0.27080 0.51420 -0.57200
O 	O 	0.97700 0.34180 0.44420 -0.46000
