data_crystal

_cell_length_a 10.56700
_cell_length_b 16.97000
_cell_length_c 8.41300
_cell_angle_alpha 90.00000
_cell_angle_beta  90.00000
_cell_angle_gamma 90.00000

_symmetry_space_group_name_	'P 1'
_symmetry_space_group_name_H-M	'P 1'

loop_
_symmetry_equiv_pos_as_xyz
  x,y,z

loop_
_atom_site_label
_atom_site_type_symbol
_atom_site_fract_x
_atom_site_fract_y
_atom_site_fract_z
_atom_site_charge
V 	V 	0.14060 0.56430 0.77980 1.69600
P 	P 	0.87070 0.58680 0.97090 0.54000
O 	O 	0.01590 0.58530 0.94920 -0.56100
O 	O 	0.83590 0.54540 0.12830 -0.54000
O 	O 	0.80600 0.54570 0.82960 -0.62700
O 	O 	0.82600 0.67300 0.98920 -0.55900
O 	O 	0.65920 0.82610 0.75860 -0.81000
V 	V 	0.35940 0.43570 0.27980 1.69700
P 	P 	0.62930 0.41320 0.47090 0.54700
O 	O 	0.48410 0.41470 0.44920 -0.56400
O 	O 	0.66410 0.45460 0.62830 -0.54200
O 	O 	0.69400 0.45430 0.32960 -0.62700
O 	O 	0.67400 0.32700 0.48920 -0.55700
O 	O 	0.84080 0.17390 0.25860 -0.80900
V 	V 	0.85940 0.06430 0.22020 1.69700
P 	P 	0.12930 0.08680 0.02910 0.53900
O 	O 	0.98410 0.08530 0.05080 -0.56100
O 	O 	0.16410 0.04540 0.87170 -0.53600
O 	O 	0.19400 0.04570 0.17040 -0.62700
O 	O 	0.17400 0.17300 0.01080 -0.55900
O 	O 	0.34080 0.32610 0.24140 -0.80900
V 	V 	0.64060 0.93570 0.72020 1.69700
P 	P 	0.37070 0.91320 0.52910 0.54700
O 	O 	0.51590 0.91470 0.55080 -0.56400
O 	O 	0.33590 0.95460 0.37170 -0.54100
O 	O 	0.30600 0.95430 0.67040 -0.62700
O 	O 	0.32600 0.82700 0.51080 -0.55700
O 	O 	0.15920 0.67390 0.74140 -0.80900
V 	V 	0.85940 0.43570 0.22020 1.69700
P 	P 	0.12930 0.41320 0.02910 0.54100
O 	O 	0.98410 0.41470 0.05080 -0.56000
O 	O 	0.16410 0.45460 0.87170 -0.53900
O 	O 	0.19400 0.45430 0.17040 -0.62700
O 	O 	0.17400 0.32700 0.01080 -0.55900
O 	O 	0.34080 0.17390 0.24140 -0.81000
V 	V 	0.64060 0.56430 0.72020 1.69700
P 	P 	0.37070 0.58680 0.52910 0.54700
O 	O 	0.51590 0.58530 0.55080 -0.56400
O 	O 	0.33590 0.54540 0.37170 -0.54200
O 	O 	0.30600 0.54570 0.67040 -0.62700
O 	O 	0.32600 0.67300 0.51080 -0.55700
O 	O 	0.15920 0.82610 0.74140 -0.80900
V 	V 	0.14060 0.93570 0.77980 1.69700
P 	P 	0.87070 0.91320 0.97090 0.53900
O 	O 	0.01590 0.91470 0.94920 -0.56100
O 	O 	0.83590 0.95460 0.12830 -0.53600
O 	O 	0.80600 0.95430 0.82960 -0.62700
O 	O 	0.82600 0.82700 0.98920 -0.55900
O 	O 	0.65920 0.67390 0.75860 -0.80900
V 	V 	0.35940 0.06430 0.27980 1.69700
P 	P 	0.62930 0.08680 0.47090 0.54700
O 	O 	0.48410 0.08530 0.44920 -0.56400
O 	O 	0.66410 0.04540 0.62830 -0.54100
O 	O 	0.69400 0.04570 0.32960 -0.62700
O 	O 	0.67400 0.17300 0.48920 -0.55700
O 	O 	0.84080 0.32610 0.25860 -0.80900
V 	V 	0.77910 0.75000 0.82610 1.71200
V 	V 	0.72090 0.25000 0.32610 1.71200
V 	V 	0.22090 0.25000 0.17390 1.71200
V 	V 	0.27910 0.75000 0.67390 1.71200
