data_crystal

_cell_length_a 10.25200
_cell_length_b 18.40900
_cell_length_c 24.63900
_cell_angle_alpha 90.00000
_cell_angle_beta  90.00000
_cell_angle_gamma 90.00000

_symmetry_space_group_name_	'P 1'
_symmetry_space_group_name_H-M	'P 1'

loop_
_symmetry_equiv_pos_as_xyz
  x,y,z

loop_
_atom_site_label
_atom_site_type_symbol
_atom_site_fract_x
_atom_site_fract_y
_atom_site_fract_z
_atom_site_charge
Ga	Ga	0.11420 0.08600 0.43280 2.05800
Ga	Ga	0.92280 0.85070 0.33980 2.08000
Ga	Ga	0.38070 0.06690 0.55830 2.05200
Ga	Ga	0.60220 0.92050 0.23470 2.09000
Ga	Ga	0.59290 0.17450 0.34590 2.09000
Ga	Ga	0.89650 0.10950 0.23990 2.09000
Ga	Ga	0.91770 0.30000 0.27590 2.09500
Ga	Ga	0.42240 0.23070 0.23110 2.10100
P 	P 	0.89770 0.93760 0.23220 0.67000
P 	P 	0.41580 0.09800 0.43830 0.64800
P 	P 	0.08360 0.91590 0.43770 0.65500
P 	P 	0.60560 0.09280 0.23260 0.64500
P 	P 	0.90080 0.17030 0.36010 0.64900
P 	P 	0.58180 0.14100 0.64510 0.63400
P 	P 	0.62240 0.32290 0.29870 0.62200
P 	P 	0.87520 0.70780 0.29150 0.63100
F 	F 	0.83230 0.21400 0.24600 -0.84400
F 	F 	0.66790 0.81530 0.23700 -0.81000
F 	F 	0.42270 0.19120 0.30670 -0.79300
O 	O 	0.86900 0.91710 0.29240 -0.72300
O 	O 	0.76210 0.93720 0.20440 -0.57500
O 	O 	0.95750 0.01330 0.23180 -0.56000
O 	O 	0.98230 0.88340 0.20320 -0.53600
O 	O 	0.46860 0.09630 0.49690 -0.66300
O 	O 	0.41790 0.02280 0.41150 -0.72900
O 	O 	0.27850 0.12770 0.43850 -0.69400
O 	O 	0.50210 0.15030 0.40770 -0.54700
O 	O 	0.98740 0.86810 0.40670 -0.58000
O 	O 	0.22440 0.88950 0.42770 -0.68200
O 	O 	0.06860 0.99240 0.41560 -0.73200
O 	O 	0.04330 0.90650 0.49790 -0.62700
O 	O 	0.51830 0.14960 0.20510 -0.51400
O 	O 	0.63120 0.10780 0.29330 -0.68500
O 	O 	0.54160 0.01860 0.22690 -0.53100
O 	O 	0.74050 0.09440 0.20360 -0.55900
O 	O 	0.92710 0.24870 0.34450 -0.53000
O 	O 	0.99270 0.15220 0.40720 -0.56800
O 	O 	0.76370 0.15740 0.38060 -0.53000
O 	O 	0.93620 0.11510 0.31290 -0.63600
O 	O 	0.56120 0.08700 0.69210 -0.62000
O 	O 	0.57770 0.22010 0.66090 -0.51800
O 	O 	0.71740 0.12520 0.61710 -0.37600
O 	O 	0.47350 0.12960 0.60340 -0.55400
O 	O 	0.61000 0.27420 0.34930 -0.56900
O 	O 	0.58280 0.28130 0.24740 -0.58500
O 	O 	0.53290 0.39040 0.30920 -0.53400
O 	O 	0.75780 0.35040 0.29200 -0.51500
O 	O 	0.73790 0.67860 0.28240 -0.48600
O 	O 	0.88110 0.75560 0.34250 -0.61100
O 	O 	0.96320 0.64190 0.30160 -0.54100
O 	O 	0.91990 0.75280 0.24310 -0.60000
O 	O 	0.09070 0.83700 0.30110 -0.65400
Ga	Ga	0.11420 0.91400 0.56720 2.05900
Ga	Ga	0.92280 0.14930 0.66020 2.08100
Ga	Ga	0.38070 0.93310 0.44170 2.05200
Ga	Ga	0.60220 0.07950 0.76530 2.09000
Ga	Ga	0.59290 0.82550 0.65410 2.09000
Ga	Ga	0.89650 0.89050 0.76010 2.09000
Ga	Ga	0.91770 0.70000 0.72410 2.09500
Ga	Ga	0.42240 0.76930 0.76890 2.10100
P 	P 	0.89770 0.06240 0.76780 0.67000
P 	P 	0.41580 0.90200 0.56170 0.64800
P 	P 	0.08360 0.08410 0.56230 0.65500
P 	P 	0.60560 0.90720 0.76740 0.64500
P 	P 	0.90080 0.82970 0.63990 0.64900
P 	P 	0.58180 0.85900 0.35490 0.63400
P 	P 	0.62240 0.67710 0.70130 0.62200
P 	P 	0.87520 0.29220 0.70850 0.63100
F 	F 	0.83230 0.78600 0.75400 -0.84400
F 	F 	0.66790 0.18470 0.76300 -0.81000
F 	F 	0.42270 0.80880 0.69330 -0.79300
O 	O 	0.86900 0.08290 0.70760 -0.72300
O 	O 	0.76210 0.06280 0.79560 -0.57500
O 	O 	0.95750 0.98670 0.76820 -0.56000
O 	O 	0.98230 0.11660 0.79680 -0.53600
O 	O 	0.46860 0.90370 0.50310 -0.66300
O 	O 	0.41790 0.97720 0.58850 -0.72900
O 	O 	0.27850 0.87230 0.56150 -0.69400
O 	O 	0.50210 0.84970 0.59230 -0.54700
O 	O 	0.98740 0.13190 0.59330 -0.58000
O 	O 	0.22440 0.11050 0.57230 -0.68200
O 	O 	0.06860 0.00760 0.58440 -0.73200
O 	O 	0.04330 0.09350 0.50210 -0.62700
O 	O 	0.51830 0.85040 0.79490 -0.51400
O 	O 	0.63120 0.89220 0.70670 -0.68500
O 	O 	0.54160 0.98140 0.77310 -0.53100
O 	O 	0.74050 0.90560 0.79640 -0.55900
O 	O 	0.92710 0.75130 0.65550 -0.53000
O 	O 	0.99270 0.84780 0.59280 -0.56800
O 	O 	0.76370 0.84260 0.61940 -0.53000
O 	O 	0.93620 0.88490 0.68710 -0.63600
O 	O 	0.56120 0.91300 0.30790 -0.62000
O 	O 	0.57770 0.77990 0.33910 -0.51800
O 	O 	0.71740 0.87480 0.38290 -0.37600
O 	O 	0.47350 0.87040 0.39660 -0.55400
O 	O 	0.61000 0.72580 0.65070 -0.56900
O 	O 	0.58280 0.71870 0.75260 -0.58500
O 	O 	0.53290 0.60960 0.69080 -0.53400
O 	O 	0.75780 0.64960 0.70800 -0.51500
O 	O 	0.73790 0.32140 0.71760 -0.48600
O 	O 	0.88110 0.24440 0.65750 -0.61100
O 	O 	0.96320 0.35810 0.69840 -0.54100
O 	O 	0.91990 0.24720 0.75690 -0.60000
O 	O 	0.09070 0.16300 0.69890 -0.65400
Ga	Ga	0.88580 0.41400 0.93280 2.05900
Ga	Ga	0.07720 0.64930 0.83980 2.08100
Ga	Ga	0.61930 0.43310 0.05830 2.05200
Ga	Ga	0.39780 0.57950 0.73470 2.09000
Ga	Ga	0.40710 0.32550 0.84590 2.09000
Ga	Ga	0.10350 0.39050 0.73990 2.09000
Ga	Ga	0.08230 0.20000 0.77590 2.09500
Ga	Ga	0.57760 0.26930 0.73110 2.10100
P 	P 	0.10230 0.56240 0.73220 0.67100
P 	P 	0.58420 0.40200 0.93830 0.64800
P 	P 	0.91640 0.58410 0.93770 0.65500
P 	P 	0.39440 0.40720 0.73260 0.64500
P 	P 	0.09920 0.32970 0.86010 0.64900
P 	P 	0.41820 0.35900 0.14510 0.63400
P 	P 	0.37760 0.17710 0.79870 0.62200
P 	P 	0.12480 0.79220 0.79150 0.63100
F 	F 	0.16770 0.28600 0.74600 -0.84400
F 	F 	0.33210 0.68470 0.73700 -0.81000
F 	F 	0.57730 0.30880 0.80670 -0.79300
O 	O 	0.13100 0.58290 0.79240 -0.72300
O 	O 	0.23790 0.56280 0.70440 -0.57400
O 	O 	0.04250 0.48670 0.73180 -0.56100
O 	O 	0.01770 0.61660 0.70320 -0.53600
O 	O 	0.53140 0.40370 0.99690 -0.66300
O 	O 	0.58210 0.47720 0.91150 -0.72900
O 	O 	0.72150 0.37230 0.93850 -0.69400
O 	O 	0.49790 0.34970 0.90770 -0.54700
O 	O 	0.01260 0.63190 0.90670 -0.58000
O 	O 	0.77560 0.61050 0.92770 -0.68200
O 	O 	0.93140 0.50760 0.91560 -0.73200
O 	O 	0.95670 0.59350 0.99790 -0.62700
O 	O 	0.48170 0.35040 0.70510 -0.51400
O 	O 	0.36880 0.39220 0.79330 -0.68500
O 	O 	0.45840 0.48140 0.72690 -0.53100
O 	O 	0.25950 0.40560 0.70360 -0.55900
O 	O 	0.07290 0.25130 0.84450 -0.53000
O 	O 	0.00730 0.34780 0.90720 -0.56800
O 	O 	0.23630 0.34260 0.88060 -0.53100
O 	O 	0.06380 0.38490 0.81290 -0.63600
O 	O 	0.43880 0.41300 0.19210 -0.62000
O 	O 	0.42230 0.27990 0.16090 -0.51800
O 	O 	0.28260 0.37480 0.11710 -0.37600
O 	O 	0.52650 0.37040 0.10340 -0.55400
O 	O 	0.39000 0.22580 0.84930 -0.56900
O 	O 	0.41720 0.21870 0.74740 -0.58500
O 	O 	0.46710 0.10960 0.80920 -0.53500
O 	O 	0.24220 0.14960 0.79200 -0.51500
O 	O 	0.26210 0.82140 0.78240 -0.48600
O 	O 	0.11890 0.74440 0.84250 -0.61100
O 	O 	0.03680 0.85810 0.80160 -0.54100
O 	O 	0.08010 0.74720 0.74310 -0.60000
O 	O 	0.90930 0.66300 0.80110 -0.65400
Ga	Ga	0.88580 0.58600 0.06720 2.05900
Ga	Ga	0.07720 0.35070 0.16020 2.08100
Ga	Ga	0.61930 0.56690 0.94170 2.05200
Ga	Ga	0.39780 0.42050 0.26530 2.09000
Ga	Ga	0.40710 0.67450 0.15410 2.09000
Ga	Ga	0.10350 0.60950 0.26010 2.09000
Ga	Ga	0.08230 0.80000 0.22410 2.09500
Ga	Ga	0.57760 0.73070 0.26890 2.10100
P 	P 	0.10230 0.43760 0.26780 0.67100
P 	P 	0.58420 0.59800 0.06170 0.64800
P 	P 	0.91640 0.41590 0.06230 0.65500
P 	P 	0.39440 0.59280 0.26740 0.64500
P 	P 	0.09920 0.67030 0.13990 0.64900
P 	P 	0.41820 0.64100 0.85490 0.63400
P 	P 	0.37760 0.82290 0.20130 0.62200
P 	P 	0.12480 0.20780 0.20850 0.63100
F 	F 	0.16770 0.71400 0.25400 -0.84400
F 	F 	0.33210 0.31530 0.26300 -0.81000
F 	F 	0.57730 0.69120 0.19330 -0.79300
O 	O 	0.13100 0.41710 0.20760 -0.72300
O 	O 	0.23790 0.43720 0.29560 -0.57400
O 	O 	0.04250 0.51330 0.26820 -0.56100
O 	O 	0.01770 0.38340 0.29680 -0.53600
O 	O 	0.53140 0.59630 0.00310 -0.66300
O 	O 	0.58210 0.52280 0.08850 -0.72900
O 	O 	0.72150 0.62770 0.06150 -0.69400
O 	O 	0.49790 0.65030 0.09230 -0.54700
O 	O 	0.01260 0.36810 0.09330 -0.58000
O 	O 	0.77560 0.38950 0.07230 -0.68200
O 	O 	0.93140 0.49240 0.08440 -0.73200
O 	O 	0.95670 0.40650 0.00210 -0.62700
O 	O 	0.48170 0.64960 0.29490 -0.51400
O 	O 	0.36880 0.60780 0.20670 -0.68500
O 	O 	0.45840 0.51860 0.27310 -0.53100
O 	O 	0.25950 0.59440 0.29640 -0.55900
O 	O 	0.07290 0.74870 0.15550 -0.53000
O 	O 	0.00730 0.65220 0.09280 -0.56800
O 	O 	0.23630 0.65740 0.11940 -0.53100
O 	O 	0.06380 0.61510 0.18710 -0.63600
O 	O 	0.43880 0.58700 0.80790 -0.62000
O 	O 	0.42230 0.72010 0.83910 -0.51800
O 	O 	0.28260 0.62520 0.88290 -0.37600
O 	O 	0.52650 0.62960 0.89660 -0.55400
O 	O 	0.39000 0.77420 0.15070 -0.56900
O 	O 	0.41720 0.78130 0.25260 -0.58500
O 	O 	0.46710 0.89040 0.19080 -0.53500
O 	O 	0.24220 0.85040 0.20800 -0.51500
O 	O 	0.26210 0.17860 0.21760 -0.48600
O 	O 	0.11890 0.25560 0.15750 -0.61100
O 	O 	0.03680 0.14190 0.19840 -0.54100
O 	O 	0.08010 0.25280 0.25690 -0.60000
O 	O 	0.90930 0.33700 0.19890 -0.65400
