data_crystal

_cell_length_a 8.78700
_cell_length_b 17.78300
_cell_length_c 9.20400
_cell_angle_alpha 90.00000
_cell_angle_beta  109.56000
_cell_angle_gamma 90.00000

_symmetry_space_group_name_	'P 1'
_symmetry_space_group_name_H-M	'P 1'

loop_
_symmetry_equiv_pos_as_xyz
  x,y,z

loop_
_atom_site_label
_atom_site_type_symbol
_atom_site_fract_x
_atom_site_fract_y
_atom_site_fract_z
_atom_site_charge
Ga	Ga	0.06790 0.29490 0.30360 2.08400
Ga	Ga	0.13550 0.11000 0.16580 2.08300
Ga	Ga	0.51350 0.32910 0.19620 2.07700
P 	P 	0.34120 0.42940 0.36980 0.69700
P 	P 	0.80270 0.28870 0.48310 0.68600
P 	P 	0.24830 0.16130 0.50890 0.63800
O 	O 	0.03490 0.20950 0.17830 -0.90800
O 	O 	0.19490 0.37820 0.31460 -0.62800
O 	O 	0.24200 0.24420 0.46200 -0.64800
O 	O 	0.95020 0.30320 0.43910 -0.65100
O 	O 	0.40330 0.14680 0.64250 -0.52800
O 	O 	0.45840 0.41250 0.28020 -0.68800
O 	O 	0.82920 0.22070 0.59260 -0.68600
O 	O 	0.10120 0.13840 0.55550 -0.67200
O 	O 	0.65400 0.26960 0.34280 -0.68000
O 	O 	0.24470 0.10880 0.37620 -0.59200
O 	O 	0.42900 0.41900 0.54260 -0.63800
O 	O 	0.27820 0.50920 0.33560 -0.52100
O 	O 	0.77320 0.35930 0.56270 -0.63700
H 	H 	0.92100 0.21100 0.09500 0.21100
Ga	Ga	0.43210 0.79490 0.19640 2.08500
Ga	Ga	0.36450 0.61000 0.33420 2.08400
Ga	Ga	0.98650 0.82910 0.30380 2.07500
P 	P 	0.15880 0.92940 0.13020 0.69600
P 	P 	0.69730 0.78870 0.01690 0.68000
P 	P 	0.25170 0.66130 0.99110 0.63900
O 	O 	0.46510 0.70950 0.32170 -0.90100
O 	O 	0.30510 0.87820 0.18540 -0.62700
O 	O 	0.25800 0.74420 0.03800 -0.64800
O 	O 	0.54980 0.80320 0.06090 -0.65600
O 	O 	0.09670 0.64680 0.85750 -0.52600
O 	O 	0.04160 0.91250 0.21980 -0.68200
O 	O 	0.67080 0.72070 0.90740 -0.68800
O 	O 	0.39880 0.63840 0.94450 -0.66800
O 	O 	0.84600 0.76960 0.15720 -0.68400
O 	O 	0.25530 0.60880 0.12380 -0.59100
O 	O 	0.07100 0.91900 0.95740 -0.63200
O 	O 	0.22180 0.00920 0.16440 -0.52400
O 	O 	0.72680 0.85930 0.93730 -0.63600
H 	H 	0.57900 0.71100 0.40500 0.20500
Ga	Ga	0.93210 0.70510 0.69640 2.08400
Ga	Ga	0.86450 0.89000 0.83420 2.08300
Ga	Ga	0.48650 0.67090 0.80380 2.07700
P 	P 	0.65880 0.57060 0.63020 0.69700
P 	P 	0.19730 0.71130 0.51690 0.68600
P 	P 	0.75170 0.83870 0.49110 0.63800
O 	O 	0.96510 0.79050 0.82170 -0.90800
O 	O 	0.80510 0.62180 0.68540 -0.62800
O 	O 	0.75800 0.75580 0.53800 -0.64800
O 	O 	0.04980 0.69680 0.56090 -0.65100
O 	O 	0.59670 0.85320 0.35750 -0.52800
O 	O 	0.54160 0.58750 0.71980 -0.68800
O 	O 	0.17080 0.77930 0.40740 -0.68600
O 	O 	0.89880 0.86160 0.44450 -0.67200
O 	O 	0.34600 0.73040 0.65720 -0.68000
O 	O 	0.75530 0.89120 0.62380 -0.59200
O 	O 	0.57100 0.58100 0.45740 -0.63800
O 	O 	0.72180 0.49080 0.66440 -0.52100
O 	O 	0.22680 0.64070 0.43730 -0.63700
H 	H 	0.07900 0.78900 0.90500 0.21100
Ga	Ga	0.56790 0.20510 0.80360 2.08500
Ga	Ga	0.63550 0.39000 0.66580 2.08400
Ga	Ga	0.01350 0.17090 0.69620 2.07500
P 	P 	0.84120 0.07060 0.86980 0.69600
P 	P 	0.30270 0.21130 0.98310 0.68000
P 	P 	0.74830 0.33870 0.00890 0.63900
O 	O 	0.53490 0.29050 0.67830 -0.90100
O 	O 	0.69490 0.12180 0.81460 -0.62700
O 	O 	0.74200 0.25580 0.96200 -0.64800
O 	O 	0.45020 0.19680 0.93910 -0.65600
O 	O 	0.90330 0.35320 0.14250 -0.52600
O 	O 	0.95840 0.08750 0.78020 -0.68200
O 	O 	0.32920 0.27930 0.09260 -0.68800
O 	O 	0.60120 0.36160 0.05550 -0.66800
O 	O 	0.15400 0.23040 0.84280 -0.68400
O 	O 	0.74470 0.39120 0.87620 -0.59100
O 	O 	0.92900 0.08100 0.04260 -0.63200
O 	O 	0.77820 0.99080 0.83560 -0.52400
O 	O 	0.27320 0.14070 0.06270 -0.63600
H 	H 	0.42100 0.28900 0.59500 0.20500
