data_crystal

_cell_length_a 8.29390
_cell_length_b 9.22600
_cell_length_c 12.50210
_cell_angle_alpha 90.00000
_cell_angle_beta  90.00000
_cell_angle_gamma 90.00000

_symmetry_space_group_name_	'P 1'
_symmetry_space_group_name_H-M	'P 1'

loop_
_symmetry_equiv_pos_as_xyz
  x,y,z

loop_
_atom_site_label
_atom_site_type_symbol
_atom_site_fract_x
_atom_site_fract_y
_atom_site_fract_z
_atom_site_charge
V 	V 	0.74600 0.06400 0.39490 1.66300
V 	V 	0.97650 0.70930 0.50280 1.74800
P 	P 	0.75860 0.93290 0.63590 0.55900
O 	O 	0.76550 0.05530 0.55350 -0.61500
O 	O 	0.90010 0.82740 0.62000 -0.60200
O 	O 	0.76610 0.00290 0.74640 -0.56000
O 	O 	0.59740 0.85010 0.62710 -0.58600
O 	O 	0.61270 0.87650 0.42110 -0.82000
F 	F 	0.94650 0.87990 0.41660 -0.79400
V 	V 	0.75400 0.93600 0.89490 1.65900
V 	V 	0.52350 0.29070 0.00280 1.74800
P 	P 	0.74140 0.06710 0.13590 0.55800
O 	O 	0.73450 0.94470 0.05350 -0.61200
O 	O 	0.59990 0.17260 0.12000 -0.60300
O 	O 	0.73390 0.99710 0.24640 -0.56300
O 	O 	0.90260 0.14990 0.12710 -0.59000
O 	O 	0.88730 0.12350 0.92110 -0.81200
F 	F 	0.55350 0.12010 0.91660 -0.78700
V 	V 	0.25400 0.56400 0.10510 1.66500
V 	V 	0.02350 0.20930 0.99720 1.75200
P 	P 	0.24140 0.43290 0.86410 0.56700
O 	O 	0.23450 0.55530 0.94650 -0.61600
O 	O 	0.09990 0.32740 0.88000 -0.60000
O 	O 	0.23390 0.50290 0.75360 -0.56600
O 	O 	0.40260 0.35010 0.87290 -0.58400
O 	O 	0.38730 0.37650 0.07890 -0.82100
F 	F 	0.05350 0.37990 0.08340 -0.79100
V 	V 	0.24600 0.43600 0.60510 1.66300
V 	V 	0.47650 0.79070 0.49720 1.75000
P 	P 	0.25860 0.56710 0.36410 0.56700
O 	O 	0.26550 0.44470 0.44650 -0.61800
O 	O 	0.40010 0.67260 0.38000 -0.60000
O 	O 	0.26610 0.49710 0.25360 -0.56600
O 	O 	0.09740 0.64990 0.37290 -0.58300
O 	O 	0.11270 0.62350 0.57890 -0.81800
F 	F 	0.44650 0.62010 0.58340 -0.79200
