data_crystal

_cell_length_a 24.14280
_cell_length_b 24.14280
_cell_length_c 4.98780
_cell_angle_alpha 90.00000
_cell_angle_beta  90.00000
_cell_angle_gamma 90.00000

_symmetry_space_group_name_	'P 1'
_symmetry_space_group_name_H-M	'P 1'

loop_
_symmetry_equiv_pos_as_xyz
  x,y,z

loop_
_atom_site_label
_atom_site_type_symbol
_atom_site_fract_x
_atom_site_fract_y
_atom_site_fract_z
_atom_site_charge
O 	O 	0.47710 0.06810 0.17730 -0.41200
N 	N 	0.36087 0.16142 0.19840 -0.04800
C 	C 	0.43182 0.08974 0.09850 0.34800
N 	N 	0.29323 0.20381 0.00060 -0.22000
N 	N 	0.31486 0.14627 0.33630 -0.08300
C 	C 	0.41454 0.13907 0.27040 -0.26300
H 	H 	0.41370 0.12770 0.45690 0.14500
H 	H 	0.44220 0.16800 0.25300 0.11500
O 	O 	0.40427 0.07448 0.90760 -0.26700
C 	C 	0.27544 0.17266 0.21030 0.08800
H 	H 	0.23840 0.17030 0.25990 0.01200
C 	C 	0.34744 0.19530 0.00100 0.04900
H 	H 	0.37230 0.21090 0.88030 0.04200
O 	O 	0.97710 0.56810 0.67730 -0.37900
N 	N 	0.86087 0.66142 0.69840 -0.04900
C 	C 	0.93182 0.58974 0.59850 0.39000
N 	N 	0.79323 0.70381 0.50060 -0.22000
N 	N 	0.81486 0.64627 0.83630 -0.07700
C 	C 	0.91454 0.63907 0.77040 -0.27700
H 	H 	0.91370 0.62770 0.95690 0.15900
H 	H 	0.94220 0.66800 0.75300 0.13300
O 	O 	0.90427 0.57448 0.40760 -0.29100
C 	C 	0.77544 0.67266 0.71030 0.09200
H 	H 	0.73840 0.67030 0.75990 0.02000
C 	C 	0.84744 0.69530 0.50100 0.09900
H 	H 	0.87230 0.71090 0.38030 0.00900
O 	O 	0.02290 0.93190 0.67730 -0.41000
N 	N 	0.13913 0.83858 0.69840 -0.05100
C 	C 	0.06818 0.91026 0.59850 0.38600
N 	N 	0.20677 0.79619 0.50060 -0.22000
N 	N 	0.18514 0.85373 0.83630 -0.07400
C 	C 	0.08546 0.86093 0.77040 -0.26800
H 	H 	0.08630 0.87230 0.95690 0.15000
H 	H 	0.05780 0.83200 0.75300 0.11200
O 	O 	0.09573 0.92552 0.40760 -0.29000
C 	C 	0.22456 0.82734 0.71030 0.09400
H 	H 	0.26160 0.82970 0.75990 0.02200
C 	C 	0.15256 0.80470 0.50100 0.10000
H 	H 	0.12770 0.78910 0.38030 0.00300
O 	O 	0.52290 0.43190 0.17730 -0.40600
N 	N 	0.63913 0.33858 0.19840 -0.04700
C 	C 	0.56818 0.41026 0.09850 0.35000
N 	N 	0.70677 0.29619 0.00060 -0.21900
N 	N 	0.68514 0.35373 0.33630 -0.08100
C 	C 	0.58546 0.36093 0.27040 -0.26100
H 	H 	0.58630 0.37230 0.45690 0.14600
H 	H 	0.55780 0.33200 0.25300 0.11400
O 	O 	0.59573 0.42552 0.90760 -0.26100
C 	C 	0.72456 0.32734 0.21030 0.09000
H 	H 	0.76160 0.32970 0.25990 0.01300
C 	C 	0.65256 0.30470 0.00100 0.05100
H 	H 	0.62770 0.28910 0.88030 0.04100
O 	O 	0.68190 0.72710 0.42730 -0.41200
N 	N 	0.58858 0.61087 0.44840 -0.05100
C 	C 	0.66026 0.68182 0.34850 0.39100
N 	N 	0.54619 0.54323 0.25060 -0.22300
N 	N 	0.60373 0.56486 0.58630 -0.07800
C 	C 	0.61093 0.66454 0.52040 -0.27700
H 	H 	0.62230 0.66370 0.70690 0.15500
H 	H 	0.58200 0.69220 0.50300 0.12300
O 	O 	0.67552 0.65427 0.15760 -0.30500
C 	C 	0.57734 0.52544 0.46030 0.09100
H 	H 	0.57970 0.48840 0.50990 0.01700
C 	C 	0.55470 0.59744 0.25100 0.09700
H 	H 	0.53910 0.62230 0.13030 0.00100
O 	O 	0.18190 0.22710 0.92730 -0.40600
N 	N 	0.08858 0.11087 0.94840 -0.03800
C 	C 	0.16026 0.18182 0.84850 0.40800
N 	N 	0.04619 0.04323 0.75060 -0.22600
N 	N 	0.10373 0.06486 0.08630 -0.09700
C 	C 	0.11093 0.16454 0.02040 -0.30900
H 	H 	0.12230 0.16370 0.20690 0.15300
H 	H 	0.08200 0.19220 0.00300 0.11900
O 	O 	0.17552 0.15427 0.65760 -0.30000
C 	C 	0.07734 0.02544 0.96030 0.06200
H 	H 	0.07970 0.98840 0.00990 0.03500
C 	C 	0.05470 0.09744 0.75100 0.09200
H 	H 	0.03910 0.12230 0.63030 -0.00000
O 	O 	0.81810 0.27290 0.92730 -0.40400
N 	N 	0.91142 0.38913 0.94840 -0.03400
C 	C 	0.83974 0.31818 0.84850 0.41000
N 	N 	0.95381 0.45677 0.75060 -0.21300
N 	N 	0.89627 0.43514 0.08630 -0.09900
C 	C 	0.88907 0.33546 0.02040 -0.30900
H 	H 	0.87770 0.33630 0.20690 0.15800
H 	H 	0.91800 0.30780 0.00300 0.13300
O 	O 	0.82448 0.34573 0.65760 -0.29600
C 	C 	0.92266 0.47456 0.96030 0.14200
H 	H 	0.92030 0.51160 0.00990 -0.00800
C 	C 	0.94530 0.40256 0.75100 0.10300
H 	H 	0.96090 0.37770 0.63030 0.02200
O 	O 	0.31810 0.77290 0.42730 -0.41100
N 	N 	0.41142 0.88913 0.44840 -0.05000
C 	C 	0.33974 0.81818 0.34850 0.39100
N 	N 	0.45381 0.95677 0.25060 -0.22400
N 	N 	0.39627 0.93514 0.58630 -0.08500
C 	C 	0.38907 0.83546 0.52040 -0.27500
H 	H 	0.37770 0.83630 0.70690 0.15600
H 	H 	0.41800 0.80780 0.50300 0.12200
O 	O 	0.32448 0.84573 0.15760 -0.30200
C 	C 	0.42266 0.97456 0.46030 0.16900
H 	H 	0.42030 0.01160 0.50990 -0.03400
C 	C 	0.44530 0.90256 0.25100 0.09600
H 	H 	0.46090 0.87770 0.13030 0.00200
O 	O 	0.52290 0.93190 0.82270 -0.39400
N 	N 	0.63913 0.83858 0.80160 -0.05700
C 	C 	0.56818 0.91026 0.90150 0.42500
N 	N 	0.70677 0.79619 0.99940 -0.21900
N 	N 	0.68514 0.85373 0.66370 -0.08000
C 	C 	0.58546 0.86093 0.72960 -0.27700
H 	H 	0.58630 0.87230 0.54310 0.14700
H 	H 	0.55780 0.83200 0.74700 0.12600
O 	O 	0.59573 0.92552 0.09240 -0.31500
C 	C 	0.72456 0.82734 0.78970 0.09400
H 	H 	0.76160 0.82970 0.74010 0.02000
C 	C 	0.65256 0.80470 0.99900 0.15200
H 	H 	0.62770 0.78910 0.11970 -0.02700
O 	O 	0.02290 0.43190 0.32270 -0.42900
N 	N 	0.13913 0.33858 0.30160 -0.05400
C 	C 	0.06818 0.41026 0.40150 0.38300
N 	N 	0.20677 0.29619 0.49940 -0.21900
N 	N 	0.18514 0.35373 0.16370 -0.08600
C 	C 	0.08546 0.36093 0.22960 -0.26300
H 	H 	0.08630 0.37230 0.04310 0.13500
H 	H 	0.05780 0.33200 0.24700 0.10700
O 	O 	0.09573 0.42552 0.59240 -0.29200
C 	C 	0.22456 0.32734 0.28970 0.09000
H 	H 	0.26160 0.32970 0.24010 0.01100
C 	C 	0.15256 0.30470 0.49900 0.09800
H 	H 	0.12770 0.28910 0.61970 0.00800
O 	O 	0.97710 0.06810 0.32270 -0.39100
N 	N 	0.86087 0.16142 0.30160 -0.05200
C 	C 	0.93182 0.08974 0.40150 0.38600
N 	N 	0.79323 0.20381 0.49940 -0.21900
N 	N 	0.81486 0.14627 0.16370 -0.08900
C 	C 	0.91454 0.13907 0.22960 -0.27200
H 	H 	0.91370 0.12770 0.04310 0.14400
H 	H 	0.94220 0.16800 0.24700 0.12800
O 	O 	0.90427 0.07448 0.59240 -0.29100
C 	C 	0.77544 0.17266 0.28970 0.08900
H 	H 	0.73840 0.17030 0.24010 0.01000
C 	C 	0.84744 0.19530 0.49900 0.09800
H 	H 	0.87230 0.21090 0.61970 0.01400
O 	O 	0.47710 0.56810 0.82270 -0.40600
N 	N 	0.36087 0.66142 0.80160 -0.05700
C 	C 	0.43182 0.58974 0.90150 0.42600
N 	N 	0.29323 0.70381 0.99940 -0.21900
N 	N 	0.31486 0.64627 0.66370 -0.08200
C 	C 	0.41454 0.63907 0.72960 -0.27900
H 	H 	0.41370 0.62770 0.54310 0.14700
H 	H 	0.44220 0.66800 0.74700 0.12700
O 	O 	0.40427 0.57448 0.09240 -0.32400
C 	C 	0.27544 0.67266 0.78970 0.09300
H 	H 	0.23840 0.67030 0.74010 0.01900
C 	C 	0.34744 0.69530 0.99900 0.15100
H 	H 	0.37230 0.71090 0.11970 -0.02600
O 	O 	0.31810 0.27290 0.57270 -0.40500
N 	N 	0.41142 0.38913 0.55160 -0.05300
C 	C 	0.33974 0.31818 0.65150 0.38500
N 	N 	0.45381 0.45677 0.74940 -0.21200
N 	N 	0.39627 0.43514 0.41370 -0.08500
C 	C 	0.38907 0.33546 0.47960 -0.26400
H 	H 	0.37770 0.33630 0.29310 0.13900
H 	H 	0.41800 0.30780 0.49700 0.11800
O 	O 	0.32448 0.34573 0.84240 -0.28100
C 	C 	0.42266 0.47456 0.53970 0.09200
H 	H 	0.42030 0.51160 0.49010 0.01500
C 	C 	0.44530 0.40256 0.74900 0.10000
H 	H 	0.46090 0.37770 0.86970 0.01800
O 	O 	0.81810 0.77290 0.07270 -0.41200
N 	N 	0.91142 0.88913 0.05160 -0.06900
C 	C 	0.83974 0.81818 0.15150 0.36200
N 	N 	0.95381 0.95677 0.24940 -0.20200
N 	N 	0.89627 0.93514 0.91370 -0.06300
C 	C 	0.88907 0.83546 0.97960 -0.22400
H 	H 	0.87770 0.83630 0.79310 0.13900
H 	H 	0.91800 0.80780 0.99700 0.12000
O 	O 	0.82448 0.84573 0.34240 -0.28400
C 	C 	0.92266 0.97456 0.03970 0.11500
H 	H 	0.92030 0.01160 0.99010 0.00300
C 	C 	0.94530 0.90256 0.24900 0.10600
H 	H 	0.96090 0.87770 0.36970 0.01800
O 	O 	0.18190 0.72710 0.07270 -0.41300
N 	N 	0.08858 0.61087 0.05160 -0.07300
C 	C 	0.16026 0.68182 0.15150 0.36000
N 	N 	0.04619 0.54323 0.24940 -0.22000
N 	N 	0.10373 0.56486 0.91370 -0.06100
C 	C 	0.11093 0.66454 0.97960 -0.22300
H 	H 	0.12230 0.66370 0.79310 0.13300
H 	H 	0.08200 0.69220 0.99700 0.10600
O 	O 	0.17552 0.65427 0.34240 -0.28800
C 	C 	0.07734 0.52544 0.03970 0.03700
H 	H 	0.07970 0.48840 0.99010 0.04200
C 	C 	0.05470 0.59744 0.24900 0.09400
H 	H 	0.03910 0.62230 0.36970 -0.00500
O 	O 	0.68190 0.22710 0.57270 -0.40600
N 	N 	0.58858 0.11087 0.55160 -0.05300
C 	C 	0.66026 0.18182 0.65150 0.38500
N 	N 	0.54619 0.04323 0.74940 -0.20600
N 	N 	0.60373 0.06486 0.41370 -0.07700
C 	C 	0.61093 0.16454 0.47960 -0.26600
H 	H 	0.62230 0.16370 0.29310 0.13800
H 	H 	0.58200 0.19220 0.49700 0.11900
O 	O 	0.67552 0.15427 0.84240 -0.28400
C 	C 	0.57734 0.02544 0.53970 0.01600
H 	H 	0.57970 0.98840 0.49010 0.06800
C 	C 	0.55470 0.09744 0.74900 0.10100
H 	H 	0.53910 0.12230 0.86970 0.01700
Cu	Cu	0.50000 0.00000 -0.00000 0.88200
Cu	Cu	-0.00000 0.50000 0.50000 0.89200
Cu	Cu	0.00000 0.00000 0.50000 0.87500
Cu	Cu	0.50000 0.50000 -0.00000 0.90000
Cu	Cu	0.75000 0.75000 0.25000 0.90600
Cu	Cu	0.75000 0.25000 0.75000 0.91600
Cu	Cu	0.25000 0.25000 0.75000 0.91600
Cu	Cu	0.25000 0.75000 0.25000 0.90600
