data_crystal

_cell_length_a 24.16900
_cell_length_b 24.16900
_cell_length_c 4.98000
_cell_angle_alpha 90.00000
_cell_angle_beta  90.00000
_cell_angle_gamma 90.00000

_symmetry_space_group_name_	'P 1'
_symmetry_space_group_name_H-M	'P 1'

loop_
_symmetry_equiv_pos_as_xyz
  x,y,z

loop_
_atom_site_label
_atom_site_type_symbol
_atom_site_fract_x
_atom_site_fract_y
_atom_site_fract_z
_atom_site_charge
O 	O 	0.52246 0.93203 0.81870 -0.38800
N 	N 	0.63824 0.83781 0.79840 -0.05800
C 	C 	0.58400 0.85960 0.72740 -0.27300
H 	H 	0.55660 0.83070 0.75090 0.12400
H 	H 	0.58410 0.87010 0.53940 0.14500
C 	C 	0.56770 0.90970 0.89660 0.41400
N 	N 	0.68391 0.85370 0.66290 -0.07800
C 	C 	0.72410 0.82790 0.79020 0.09000
H 	H 	0.76110 0.83130 0.74260 0.02200
C 	C 	0.65180 0.80400 0.99520 0.14900
H 	H 	0.62680 0.78820 0.11500 -0.02600
O 	O 	0.59541 0.92547 0.08780 -0.30900
N 	N 	0.45428 0.95647 0.25180 -0.22200
O 	O 	0.02246 0.43203 0.31870 -0.42400
N 	N 	0.13824 0.33781 0.29840 -0.05500
C 	C 	0.08400 0.35960 0.22740 -0.26100
H 	H 	0.05660 0.33070 0.25090 0.10500
H 	H 	0.08410 0.37010 0.03940 0.13400
C 	C 	0.06770 0.40970 0.39660 0.37600
N 	N 	0.18391 0.35370 0.16290 -0.08300
C 	C 	0.22410 0.32790 0.29020 0.08600
H 	H 	0.26110 0.33130 0.24260 0.01500
C 	C 	0.15180 0.30400 0.49520 0.09700
H 	H 	0.12680 0.28820 0.61500 0.00600
O 	O 	0.09541 0.42547 0.58780 -0.29000
N 	N 	0.95428 0.45647 0.75180 -0.20900
O 	O 	0.97754 0.06797 0.31870 -0.38500
N 	N 	0.86176 0.16219 0.29840 -0.05200
C 	C 	0.91600 0.14040 0.22740 -0.26900
H 	H 	0.94340 0.16930 0.25090 0.12700
H 	H 	0.91590 0.12990 0.03940 0.14400
C 	C 	0.93230 0.09030 0.39660 0.37900
N 	N 	0.81609 0.14630 0.16290 -0.08600
C 	C 	0.77590 0.17210 0.29020 0.08500
H 	H 	0.73890 0.16870 0.24260 0.01300
C 	C 	0.84820 0.19600 0.49520 0.09600
H 	H 	0.87320 0.21180 0.61500 0.01300
O 	O 	0.90459 0.07453 0.58780 -0.28800
N 	N 	0.04572 0.04353 0.75180 -0.22300
O 	O 	0.47754 0.56797 0.81870 -0.40100
N 	N 	0.36176 0.66219 0.79840 -0.05800
C 	C 	0.41600 0.64040 0.72740 -0.27500
H 	H 	0.44340 0.66930 0.75090 0.12500
H 	H 	0.41590 0.62990 0.53940 0.14500
C 	C 	0.43230 0.59030 0.89660 0.41500
N 	N 	0.31609 0.64630 0.66290 -0.08000
C 	C 	0.27590 0.67210 0.79020 0.08800
H 	H 	0.23890 0.66870 0.74260 0.02100
C 	C 	0.34820 0.69600 0.99520 0.14800
H 	H 	0.37320 0.71180 0.11500 -0.02500
O 	O 	0.40459 0.57453 0.08780 -0.31800
N 	N 	0.54572 0.54353 0.25180 -0.22100
O 	O 	0.81797 0.77246 0.06870 -0.40300
N 	N 	0.91219 0.88824 0.04840 -0.07500
C 	C 	0.89040 0.83400 0.97740 -0.17400
H 	H 	0.91930 0.80660 0.00090 0.08500
H 	H 	0.87990 0.83410 0.78940 0.12400
C 	C 	0.84030 0.81770 0.14660 0.34100
N 	N 	0.89630 0.93391 0.91290 -0.06300
C 	C 	0.92210 0.97410 0.04020 0.11800
H 	H 	0.91870 0.01110 0.99260 0.00000
C 	C 	0.94600 0.90180 0.24520 0.10700
H 	H 	0.96180 0.87680 0.36500 0.01900
O 	O 	0.82453 0.84541 0.33780 -0.27600
N 	N 	0.79353 0.70428 0.50180 -0.21800
O 	O 	0.31797 0.27246 0.56870 -0.40100
N 	N 	0.41219 0.38824 0.54840 -0.05300
C 	C 	0.39040 0.33400 0.47740 -0.26200
H 	H 	0.41930 0.30660 0.50090 0.11700
H 	H 	0.37990 0.33410 0.28940 0.13800
C 	C 	0.34030 0.31770 0.64660 0.37700
N 	N 	0.39630 0.43391 0.41290 -0.08300
C 	C 	0.42210 0.47410 0.54020 0.08800
H 	H 	0.41870 0.51110 0.49260 0.01800
C 	C 	0.44600 0.40180 0.74520 0.09900
H 	H 	0.46180 0.37680 0.86500 0.01700
O 	O 	0.32453 0.34541 0.83780 -0.28000
N 	N 	0.29353 0.20428 0.00180 -0.21700
O 	O 	0.68203 0.22754 0.56870 -0.40100
N 	N 	0.58781 0.11176 0.54840 -0.05300
C 	C 	0.60960 0.16600 0.47740 -0.26400
H 	H 	0.58070 0.19340 0.50090 0.11700
H 	H 	0.62010 0.16590 0.28940 0.13700
C 	C 	0.65970 0.18230 0.64660 0.37700
N 	N 	0.60370 0.06609 0.41290 -0.07500
C 	C 	0.57790 0.02590 0.54020 0.01300
H 	H 	0.58130 0.98890 0.49260 0.06900
C 	C 	0.55400 0.09820 0.74520 0.09900
H 	H 	0.53820 0.12320 0.86500 0.01600
O 	O 	0.67547 0.15459 0.83780 -0.28200
N 	N 	0.70647 0.29572 0.00180 -0.21700
O 	O 	0.18203 0.72754 0.06870 -0.40400
N 	N 	0.08781 0.61176 0.04840 -0.07800
C 	C 	0.10960 0.66600 0.97740 -0.17600
H 	H 	0.08070 0.69340 0.00090 0.07300
H 	H 	0.12010 0.66590 0.78940 0.11900
C 	C 	0.15970 0.68230 0.14660 0.34100
N 	N 	0.10370 0.56609 0.91290 -0.06200
C 	C 	0.07790 0.52590 0.04020 0.04200
H 	H 	0.08130 0.48890 0.99260 0.04000
C 	C 	0.05400 0.59820 0.24520 0.09600
H 	H 	0.03820 0.62320 0.36500 -0.00400
O 	O 	0.17547 0.65459 0.33780 -0.28000
N 	N 	0.20647 0.79572 0.50180 -0.21800
O 	O 	0.47754 0.06797 0.18130 -0.40600
N 	N 	0.36176 0.16219 0.20160 -0.04900
C 	C 	0.41600 0.14040 0.27260 -0.26000
H 	H 	0.44340 0.16930 0.24910 0.11300
H 	H 	0.41590 0.12990 0.46060 0.14300
C 	C 	0.43230 0.09030 0.10340 0.34600
N 	N 	0.31609 0.14630 0.33710 -0.08200
C 	C 	0.27590 0.17210 0.20980 0.08400
H 	H 	0.23890 0.16870 0.25740 0.01500
C 	C 	0.34820 0.19600 0.00480 0.05500
H 	H 	0.37320 0.21180 0.88500 0.03700
O 	O 	0.40459 0.07453 0.91220 -0.26700
N 	N 	0.54572 0.04353 0.74820 -0.20500
O 	O 	0.97754 0.56797 0.68130 -0.37500
N 	N 	0.86176 0.66219 0.70160 -0.04900
C 	C 	0.91600 0.64040 0.77260 -0.27500
H 	H 	0.94340 0.66930 0.74910 0.13400
H 	H 	0.91590 0.62990 0.96060 0.15800
C 	C 	0.93230 0.59030 0.60340 0.38300
N 	N 	0.81609 0.64630 0.83710 -0.07500
C 	C 	0.77590 0.67210 0.70980 0.08800
H 	H 	0.73890 0.66870 0.75740 0.02200
C 	C 	0.84820 0.69600 0.50480 0.09700
H 	H 	0.87320 0.71180 0.38500 0.01100
O 	O 	0.90459 0.57453 0.41220 -0.28700
N 	N 	0.04572 0.54353 0.24820 -0.22000
O 	O 	0.02246 0.93203 0.68130 -0.40500
N 	N 	0.13824 0.83781 0.70160 -0.05200
C 	C 	0.08400 0.85960 0.77260 -0.26600
H 	H 	0.05660 0.83070 0.74910 0.11300
H 	H 	0.08410 0.87010 0.96060 0.14800
C 	C 	0.06770 0.90970 0.60340 0.37900
N 	N 	0.18391 0.85370 0.83710 -0.07200
C 	C 	0.22410 0.82790 0.70980 0.09000
H 	H 	0.26110 0.83130 0.75740 0.02400
C 	C 	0.15180 0.80400 0.50480 0.09800
H 	H 	0.12680 0.78820 0.38500 0.00500
O 	O 	0.09541 0.92547 0.41220 -0.28600
N 	N 	0.95428 0.95647 0.24820 -0.20100
O 	O 	0.52246 0.43203 0.18130 -0.40100
N 	N 	0.63824 0.33781 0.20160 -0.04900
C 	C 	0.58400 0.35960 0.27260 -0.25900
H 	H 	0.55660 0.33070 0.24910 0.11300
H 	H 	0.58410 0.37010 0.46060 0.14300
C 	C 	0.56770 0.40970 0.10340 0.34700
N 	N 	0.68391 0.35370 0.33710 -0.07900
C 	C 	0.72410 0.32790 0.20980 0.08600
H 	H 	0.76110 0.33130 0.25740 0.01600
C 	C 	0.65180 0.30400 0.00480 0.05700
H 	H 	0.62680 0.28820 0.88500 0.03600
O 	O 	0.59541 0.42547 0.91220 -0.26000
N 	N 	0.45428 0.45647 0.74820 -0.21100
O 	O 	0.18203 0.22754 0.93130 -0.40400
N 	N 	0.08781 0.11176 0.95160 -0.04200
C 	C 	0.10960 0.16600 0.02260 -0.31100
H 	H 	0.08070 0.19340 0.99910 0.13000
H 	H 	0.12010 0.16590 0.21060 0.15200
C 	C 	0.15970 0.18230 0.85340 0.39800
N 	N 	0.10370 0.06609 0.08710 -0.09000
C 	C 	0.07790 0.02590 0.95980 0.04800
H 	H 	0.08130 0.98890 0.00740 0.04300
C 	C 	0.05400 0.09820 0.75480 0.08900
H 	H 	0.03820 0.12320 0.63500 -0.00100
O 	O 	0.17547 0.15459 0.66220 -0.29600
N 	N 	0.20647 0.29572 0.49820 -0.21800
O 	O 	0.68203 0.72754 0.43130 -0.40700
N 	N 	0.58781 0.61176 0.45160 -0.05100
C 	C 	0.60960 0.66600 0.52260 -0.27300
H 	H 	0.58070 0.69340 0.49910 0.12100
H 	H 	0.62010 0.66590 0.71060 0.15200
C 	C 	0.65970 0.68230 0.35340 0.38300
N 	N 	0.60370 0.56609 0.58710 -0.07600
C 	C 	0.57790 0.52590 0.45980 0.08700
H 	H 	0.58130 0.48890 0.50740 0.01900
C 	C 	0.55400 0.59820 0.25480 0.09500
H 	H 	0.53820 0.62320 0.13500 0.00100
O 	O 	0.67547 0.65459 0.16220 -0.30000
N 	N 	0.70647 0.79572 0.99820 -0.21700
O 	O 	0.31797 0.77246 0.43130 -0.40600
N 	N 	0.41219 0.88824 0.45160 -0.05100
C 	C 	0.39040 0.83400 0.52260 -0.27200
H 	H 	0.41930 0.80660 0.49910 0.12000
H 	H 	0.37990 0.83410 0.71060 0.15300
C 	C 	0.34030 0.81770 0.35340 0.38300
N 	N 	0.39630 0.93391 0.58710 -0.08400
C 	C 	0.42210 0.97410 0.45980 0.16400
H 	H 	0.41870 0.01110 0.50740 -0.03100
C 	C 	0.44600 0.90180 0.25480 0.09500
H 	H 	0.46180 0.87680 0.13500 0.00200
O 	O 	0.32453 0.84541 0.16220 -0.29700
N 	N 	0.29353 0.70428 0.99820 -0.21700
O 	O 	0.81797 0.27246 0.93130 -0.40200
N 	N 	0.91219 0.38824 0.95160 -0.03900
C 	C 	0.89040 0.33400 0.02260 -0.30800
H 	H 	0.91930 0.30660 0.99910 0.14200
H 	H 	0.87990 0.33410 0.21060 0.15700
C 	C 	0.84030 0.31770 0.85340 0.39800
N 	N 	0.89630 0.43391 0.08710 -0.09200
C 	C 	0.92210 0.47410 0.95980 0.12700
H 	H 	0.91870 0.51110 0.00740 0.00000
C 	C 	0.94600 0.40180 0.75480 0.10100
H 	H 	0.96180 0.37680 0.63500 0.02200
O 	O 	0.82453 0.34541 0.66220 -0.29200
N 	N 	0.79353 0.20428 0.49820 -0.21700
Cu	Cu	0.50000 0.00000 -0.00000 0.88200
Cu	Cu	0.00000 0.50000 0.50000 0.89200
Cu	Cu	0.00000 0.00000 0.50000 0.87500
Cu	Cu	0.50000 0.50000 -0.00000 0.90000
Cu	Cu	0.75000 0.75000 0.25000 0.90600
Cu	Cu	0.75000 0.25000 0.75000 0.91400
Cu	Cu	0.25000 0.25000 0.75000 0.91400
Cu	Cu	0.25000 0.75000 0.25000 0.90600
