data_crystal

_cell_length_a 9.64270
_cell_length_b 9.93920
_cell_length_c 9.98320
_cell_angle_alpha 86.30300
_cell_angle_beta  81.11800
_cell_angle_gamma 65.26200

_symmetry_space_group_name_	'P 1'
_symmetry_space_group_name_H-M	'P 1'

loop_
_symmetry_equiv_pos_as_xyz
  x,y,z

loop_
_atom_site_label
_atom_site_type_symbol
_atom_site_fract_x
_atom_site_fract_y
_atom_site_fract_z
_atom_site_charge
Cd	Cd	0.95039 0.72492 0.54150 1.21000
Cd	Cd	0.04961 0.27508 0.45850 1.21000
H 	H 	0.17100 0.99430 0.80520 0.03000
H 	H 	0.82220 0.89760 0.99760 0.05400
H 	H 	0.49210 0.65670 0.66970 0.04800
H 	H 	0.70730 0.41930 0.32570 0.03800
H 	H 	0.44930 0.44900 0.89460 0.06700
H 	H 	0.41680 0.41360 0.05190 0.06600
H 	H 	0.19930 0.61130 0.96870 0.05100
H 	H 	0.29750 0.70890 0.94580 0.05600
H 	H 	0.23320 0.83240 0.39360 -0.00800
H 	H 	0.07130 0.59840 0.21670 -0.00400
H 	H 	0.82900 0.00570 0.19480 0.03100
H 	H 	0.17780 0.10240 0.00240 0.05500
H 	H 	0.50790 0.34330 0.33030 0.04800
H 	H 	0.29270 0.58070 0.67430 0.03800
H 	H 	0.55070 0.55100 0.10540 0.06700
H 	H 	0.58320 0.58640 0.94810 0.06600
H 	H 	0.80070 0.38870 0.03130 0.05100
H 	H 	0.70250 0.29110 0.05420 0.05600
H 	H 	0.76680 0.16760 0.60640 -0.00800
H 	H 	0.92870 0.40160 0.78330 -0.00400
C 	C 	0.99330 0.86290 0.75430 0.29000
C 	C 	0.99650 0.93500 0.88080 -0.06700
C 	C 	0.10130 0.99650 0.88430 -0.00000
C 	C 	0.89460 0.93920 0.99840 -0.03500
C 	C 	0.75130 0.58740 0.49600 0.30700
C 	C 	0.61980 0.54430 0.49650 -0.07800
C 	C 	0.49550 0.59310 0.60100 -0.01500
C 	C 	0.62280 0.45210 0.39680 -0.02600
C 	C 	0.43010 0.48860 0.98730 -0.09300
C 	C 	0.28120 0.62980 0.00220 -0.04600
C 	C 	0.21670 0.77920 0.32650 0.09900
C 	C 	0.12710 0.65340 0.23380 0.08700
C 	C 	0.00670 0.13710 0.24570 0.29000
C 	C 	0.00350 0.06500 0.11920 -0.06700
C 	C 	0.89870 0.00350 0.11570 -0.00000
C 	C 	0.10540 0.06080 0.00160 -0.03500
C 	C 	0.24870 0.41260 0.50400 0.30700
C 	C 	0.38020 0.45570 0.50350 -0.07800
C 	C 	0.50450 0.40690 0.39900 -0.01500
C 	C 	0.37720 0.54790 0.60320 -0.02600
C 	C 	0.56990 0.51140 0.01270 -0.09300
C 	C 	0.71880 0.37020 0.99780 -0.04600
C 	C 	0.78330 0.22080 0.67350 0.09900
C 	C 	0.87290 0.34660 0.76620 0.08700
N 	N 	0.23090 0.67920 0.14300 -0.08800
N 	N 	0.28970 0.76040 0.20340 -0.09700
N 	N 	0.11420 0.71580 0.35060 -0.25100
N 	N 	0.76910 0.32080 0.85700 -0.08800
N 	N 	0.71030 0.23960 0.79660 -0.09700
N 	N 	0.88580 0.28420 0.64940 -0.25100
O 	O 	0.06700 0.87720 0.64400 -0.36300
O 	O 	0.91550 0.78600 0.76290 -0.38500
O 	O 	0.73520 0.68520 0.57890 -0.41200
O 	O 	0.87310 0.52560 0.41280 -0.43600
O 	O 	0.93300 0.12280 0.35600 -0.36300
O 	O 	0.08450 0.21400 0.23710 -0.38500
O 	O 	0.26480 0.31480 0.42110 -0.41200
O 	O 	0.12690 0.47440 0.58720 -0.43600
