data_crystal

_cell_length_a 21.91730
_cell_length_b 21.91730
_cell_length_c 28.26850
_cell_angle_alpha 90.00000
_cell_angle_beta  90.00000
_cell_angle_gamma 120.00000

_symmetry_space_group_name_	'P 1'
_symmetry_space_group_name_H-M	'P 1'

loop_
_symmetry_equiv_pos_as_xyz
  x,y,z

loop_
_atom_site_label
_atom_site_type_symbol
_atom_site_fract_x
_atom_site_fract_y
_atom_site_fract_z
_atom_site_charge
O 	O 	0.20310 0.56650 0.44350 -0.60200
O 	O 	0.28100 0.52760 0.44540 -0.59900
I 	I 	0.07657 0.46421 0.19169 -0.60900
Cu	Cu	0.05067 0.48250 0.28233 0.72200
C 	C 	0.23030 0.53200 0.42830 0.47500
C 	C 	0.14980 0.50280 0.35920 0.06900
H 	H 	0.13760 0.53620 0.37050 0.00100
C 	C 	0.13270 0.41070 0.30790 0.06200
H 	H 	0.10150 0.37530 0.28660 -0.00900
C 	C 	0.19880 0.48940 0.38560 -0.16700
N 	N 	0.12130 0.46690 0.31780 -0.23600
C 	C 	0.22290 0.44680 0.36820 0.06800
H 	H 	0.26140 0.44480 0.38200 0.02700
C 	C 	0.18450 0.40440 0.32650 -0.12200
H 	H 	0.19710 0.37240 0.31310 0.07400
O 	O 	0.43350 0.63660 0.44350 -0.60200
O 	O 	0.47240 0.75340 0.44540 -0.59900
I 	I 	0.53579 0.61236 0.19169 -0.61000
Cu	Cu	0.51750 0.56817 0.28233 0.72200
C 	C 	0.46800 0.69830 0.42830 0.47500
C 	C 	0.49720 0.64700 0.35920 0.06900
H 	H 	0.46380 0.60140 0.37050 0.00100
C 	C 	0.58930 0.72200 0.30790 0.06200
H 	H 	0.62470 0.72620 0.28660 -0.00900
C 	C 	0.51060 0.70940 0.38560 -0.16700
N 	N 	0.53310 0.65440 0.31780 -0.23600
C 	C 	0.55320 0.77610 0.36820 0.06900
H 	H 	0.55520 0.81660 0.38200 0.02800
C 	C 	0.59560 0.78010 0.32650 -0.12100
H 	H 	0.62760 0.82470 0.31310 0.07500
O 	O 	0.36340 0.79690 0.44350 -0.60100
O 	O 	0.24660 0.71900 0.44540 -0.59800
I 	I 	0.38764 0.92343 0.19169 -0.60800
Cu	Cu	0.43183 0.94933 0.28233 0.72400
C 	C 	0.30170 0.76970 0.42830 0.47600
C 	C 	0.35300 0.85020 0.35920 0.07000
H 	H 	0.39860 0.86240 0.37050 0.00200
C 	C 	0.27800 0.86730 0.30790 0.06300
H 	H 	0.27380 0.89850 0.28660 -0.00800
C 	C 	0.29060 0.80120 0.38560 -0.16600
N 	N 	0.34560 0.87870 0.31780 -0.23500
C 	C 	0.22390 0.77710 0.36820 0.06900
H 	H 	0.18340 0.73860 0.38200 0.02800
C 	C 	0.21990 0.81550 0.32650 -0.12100
H 	H 	0.17530 0.80290 0.31310 0.07600
O 	O 	0.79690 0.43350 0.44350 -0.60100
O 	O 	0.71900 0.47240 0.44540 -0.59800
I 	I 	0.92343 0.53579 0.19169 -0.60800
Cu	Cu	0.94933 0.51750 0.28233 0.72300
C 	C 	0.76970 0.46800 0.42830 0.47600
C 	C 	0.85020 0.49720 0.35920 0.07000
H 	H 	0.86240 0.46380 0.37050 0.00200
C 	C 	0.86730 0.58930 0.30790 0.06300
H 	H 	0.89850 0.62470 0.28660 -0.00800
C 	C 	0.80120 0.51060 0.38560 -0.16600
N 	N 	0.87870 0.53310 0.31780 -0.23500
C 	C 	0.77710 0.55320 0.36820 0.06900
H 	H 	0.73860 0.55520 0.38200 0.02800
C 	C 	0.81550 0.59560 0.32650 -0.12100
H 	H 	0.80290 0.62760 0.31310 0.07500
O 	O 	0.56650 0.36340 0.44350 -0.60100
O 	O 	0.52760 0.24660 0.44540 -0.59800
I 	I 	0.46421 0.38764 0.19169 -0.60900
Cu	Cu	0.48250 0.43183 0.28233 0.72300
C 	C 	0.53200 0.30170 0.42830 0.47600
C 	C 	0.50280 0.35300 0.35920 0.07000
H 	H 	0.53620 0.39860 0.37050 0.00200
C 	C 	0.41070 0.27800 0.30790 0.06300
H 	H 	0.37530 0.27380 0.28660 -0.00800
C 	C 	0.48940 0.29060 0.38560 -0.16600
N 	N 	0.46690 0.34560 0.31780 -0.23500
C 	C 	0.44680 0.22390 0.36820 0.06900
H 	H 	0.44480 0.18340 0.38200 0.02800
C 	C 	0.40440 0.21990 0.32650 -0.12100
H 	H 	0.37240 0.17530 0.31310 0.07500
O 	O 	0.63660 0.20310 0.44350 -0.60100
O 	O 	0.75340 0.28100 0.44540 -0.59800
I 	I 	0.61236 0.07657 0.19169 -0.60800
Cu	Cu	0.56817 0.05067 0.28233 0.72400
C 	C 	0.69830 0.23030 0.42830 0.47600
C 	C 	0.64700 0.14980 0.35920 0.07000
H 	H 	0.60140 0.13760 0.37050 0.00200
C 	C 	0.72200 0.13270 0.30790 0.06300
H 	H 	0.72620 0.10150 0.28660 -0.00800
C 	C 	0.70940 0.19880 0.38560 -0.16600
N 	N 	0.65440 0.12130 0.31780 -0.23500
C 	C 	0.77610 0.22290 0.36820 0.06900
H 	H 	0.81660 0.26140 0.38200 0.02800
C 	C 	0.78010 0.18450 0.32650 -0.12100
H 	H 	0.82470 0.19710 0.31310 0.07600
O 	O 	0.56650 0.20310 0.05650 -0.62500
O 	O 	0.52760 0.28100 0.05460 -0.62400
I 	I 	0.46421 0.07657 0.30831 -0.59800
Cu	Cu	0.48250 0.05067 0.21767 0.72300
C 	C 	0.53200 0.23030 0.07170 0.47800
C 	C 	0.50280 0.14980 0.14080 0.07000
H 	H 	0.53620 0.13760 0.12950 -0.00300
C 	C 	0.41070 0.13270 0.19210 0.06200
H 	H 	0.37530 0.10150 0.21340 -0.00900
C 	C 	0.48940 0.19880 0.11440 -0.17800
N 	N 	0.46690 0.12130 0.18220 -0.23600
C 	C 	0.44680 0.22290 0.13180 0.07000
H 	H 	0.44480 0.26140 0.11800 0.01900
C 	C 	0.40440 0.18450 0.17350 -0.12600
H 	H 	0.37240 0.19710 0.18690 0.07400
O 	O 	0.63660 0.43350 0.05650 -0.62600
O 	O 	0.75340 0.47240 0.05460 -0.62400
I 	I 	0.61236 0.53579 0.30831 -0.59800
Cu	Cu	0.56817 0.51750 0.21767 0.72300
C 	C 	0.69830 0.46800 0.07170 0.47800
C 	C 	0.64700 0.49720 0.14080 0.07000
H 	H 	0.60140 0.46380 0.12950 -0.00300
C 	C 	0.72200 0.58930 0.19210 0.06200
H 	H 	0.72620 0.62470 0.21340 -0.01000
C 	C 	0.70940 0.51060 0.11440 -0.17800
N 	N 	0.65440 0.53310 0.18220 -0.23700
C 	C 	0.77610 0.55320 0.13180 0.07000
H 	H 	0.81660 0.55520 0.11800 0.01900
C 	C 	0.78010 0.59560 0.17350 -0.12600
H 	H 	0.82470 0.62760 0.18690 0.07400
O 	O 	0.79690 0.36340 0.05650 -0.62500
O 	O 	0.71900 0.24660 0.05460 -0.62400
I 	I 	0.92343 0.38764 0.30831 -0.59800
Cu	Cu	0.94933 0.43183 0.21767 0.72300
C 	C 	0.76970 0.30170 0.07170 0.47800
C 	C 	0.85020 0.35300 0.14080 0.07000
H 	H 	0.86240 0.39860 0.12950 -0.00300
C 	C 	0.86730 0.27800 0.19210 0.06200
H 	H 	0.89850 0.27380 0.21340 -0.00900
C 	C 	0.80120 0.29060 0.11440 -0.17700
N 	N 	0.87870 0.34560 0.18220 -0.23600
C 	C 	0.77710 0.22390 0.13180 0.07000
H 	H 	0.73860 0.18340 0.11800 0.01900
C 	C 	0.81550 0.21990 0.17350 -0.12600
H 	H 	0.80290 0.17530 0.18690 0.07400
O 	O 	0.43350 0.79690 0.05650 -0.62500
O 	O 	0.47240 0.71900 0.05460 -0.62400
I 	I 	0.53579 0.92343 0.30831 -0.59800
Cu	Cu	0.51750 0.94933 0.21767 0.72300
C 	C 	0.46800 0.76970 0.07170 0.47800
C 	C 	0.49720 0.85020 0.14080 0.07000
H 	H 	0.46380 0.86240 0.12950 -0.00300
C 	C 	0.58930 0.86730 0.19210 0.06200
H 	H 	0.62470 0.89850 0.21340 -0.00900
C 	C 	0.51060 0.80120 0.11440 -0.17800
N 	N 	0.53310 0.87870 0.18220 -0.23600
C 	C 	0.55320 0.77710 0.13180 0.07000
H 	H 	0.55520 0.73860 0.11800 0.01900
C 	C 	0.59560 0.81550 0.17350 -0.12600
H 	H 	0.62760 0.80290 0.18690 0.07400
O 	O 	0.36340 0.56650 0.05650 -0.62600
O 	O 	0.24660 0.52760 0.05460 -0.62400
I 	I 	0.38764 0.46421 0.30831 -0.59800
Cu	Cu	0.43183 0.48250 0.21767 0.72300
C 	C 	0.30170 0.53200 0.07170 0.47800
C 	C 	0.35300 0.50280 0.14080 0.07000
H 	H 	0.39860 0.53620 0.12950 -0.00300
C 	C 	0.27800 0.41070 0.19210 0.06200
H 	H 	0.27380 0.37530 0.21340 -0.01000
C 	C 	0.29060 0.48940 0.11440 -0.17800
N 	N 	0.34560 0.46690 0.18220 -0.23700
C 	C 	0.22390 0.44680 0.13180 0.07000
H 	H 	0.18340 0.44480 0.11800 0.01900
C 	C 	0.21990 0.40440 0.17350 -0.12600
H 	H 	0.17530 0.37240 0.18690 0.07400
O 	O 	0.20310 0.63660 0.05650 -0.62500
O 	O 	0.28100 0.75340 0.05460 -0.62400
I 	I 	0.07657 0.61236 0.30831 -0.59800
Cu	Cu	0.05067 0.56817 0.21767 0.72300
C 	C 	0.23030 0.69830 0.07170 0.47800
C 	C 	0.14980 0.64700 0.14080 0.07000
H 	H 	0.13760 0.60140 0.12950 -0.00300
C 	C 	0.13270 0.72200 0.19210 0.06200
H 	H 	0.10150 0.72620 0.21340 -0.00900
C 	C 	0.19880 0.70940 0.11440 -0.17700
N 	N 	0.12130 0.65440 0.18220 -0.23600
C 	C 	0.22290 0.77610 0.13180 0.07000
H 	H 	0.26140 0.81660 0.11800 0.01900
C 	C 	0.18450 0.78010 0.17350 -0.12600
H 	H 	0.19710 0.82470 0.18690 0.07400
O 	O 	0.79690 0.43350 0.55650 -0.60100
O 	O 	0.71900 0.47240 0.55460 -0.59800
I 	I 	0.92343 0.53579 0.80831 -0.58700
Cu	Cu	0.94933 0.51750 0.71767 0.72300
C 	C 	0.76970 0.46800 0.57170 0.47600
C 	C 	0.85020 0.49720 0.64080 0.07000
H 	H 	0.86240 0.46380 0.62950 0.00200
C 	C 	0.86730 0.58930 0.69210 0.06300
H 	H 	0.89850 0.62470 0.71340 -0.00500
C 	C 	0.80120 0.51060 0.61440 -0.16600
N 	N 	0.87870 0.53310 0.68220 -0.23500
C 	C 	0.77710 0.55320 0.63180 0.06900
H 	H 	0.73860 0.55520 0.61800 0.02800
C 	C 	0.81550 0.59560 0.67350 -0.12000
H 	H 	0.80290 0.62760 0.68690 0.07700
O 	O 	0.56650 0.36340 0.55650 -0.60100
O 	O 	0.52760 0.24660 0.55460 -0.59800
I 	I 	0.46421 0.38764 0.80831 -0.58700
Cu	Cu	0.48250 0.43183 0.71767 0.72300
C 	C 	0.53200 0.30170 0.57170 0.47600
C 	C 	0.50280 0.35300 0.64080 0.07000
H 	H 	0.53620 0.39860 0.62950 0.00200
C 	C 	0.41070 0.27800 0.69210 0.06300
H 	H 	0.37530 0.27380 0.71340 -0.00500
C 	C 	0.48940 0.29060 0.61440 -0.16600
N 	N 	0.46690 0.34560 0.68220 -0.23500
C 	C 	0.44680 0.22390 0.63180 0.06900
H 	H 	0.44480 0.18340 0.61800 0.02800
C 	C 	0.40440 0.21990 0.67350 -0.12000
H 	H 	0.37240 0.17530 0.68690 0.07700
O 	O 	0.63660 0.20310 0.55650 -0.60100
O 	O 	0.75340 0.28100 0.55460 -0.59800
I 	I 	0.61236 0.07657 0.80831 -0.58700
Cu	Cu	0.56817 0.05067 0.71767 0.72300
C 	C 	0.69830 0.23030 0.57170 0.47600
C 	C 	0.64700 0.14980 0.64080 0.07000
H 	H 	0.60140 0.13760 0.62950 0.00200
C 	C 	0.72200 0.13270 0.69210 0.06300
H 	H 	0.72620 0.10150 0.71340 -0.00500
C 	C 	0.70940 0.19880 0.61440 -0.16600
N 	N 	0.65440 0.12130 0.68220 -0.23500
C 	C 	0.77610 0.22290 0.63180 0.06900
H 	H 	0.81660 0.26140 0.61800 0.02800
C 	C 	0.78010 0.18450 0.67350 -0.12000
H 	H 	0.82470 0.19710 0.68690 0.07700
O 	O 	0.20310 0.56650 0.55650 -0.60100
O 	O 	0.28100 0.52760 0.55460 -0.59800
I 	I 	0.07657 0.46421 0.80831 -0.58700
Cu	Cu	0.05067 0.48250 0.71767 0.72300
C 	C 	0.23030 0.53200 0.57170 0.47600
C 	C 	0.14980 0.50280 0.64080 0.07000
H 	H 	0.13760 0.53620 0.62950 0.00200
C 	C 	0.13270 0.41070 0.69210 0.06300
H 	H 	0.10150 0.37530 0.71340 -0.00500
C 	C 	0.19880 0.48940 0.61440 -0.16600
N 	N 	0.12130 0.46690 0.68220 -0.23500
C 	C 	0.22290 0.44680 0.63180 0.06900
H 	H 	0.26140 0.44480 0.61800 0.02800
C 	C 	0.18450 0.40440 0.67350 -0.12000
H 	H 	0.19710 0.37240 0.68690 0.07700
O 	O 	0.43350 0.63660 0.55650 -0.60100
O 	O 	0.47240 0.75340 0.55460 -0.59800
I 	I 	0.53579 0.61236 0.80831 -0.58700
Cu	Cu	0.51750 0.56817 0.71767 0.72300
C 	C 	0.46800 0.69830 0.57170 0.47600
C 	C 	0.49720 0.64700 0.64080 0.07000
H 	H 	0.46380 0.60140 0.62950 0.00200
C 	C 	0.58930 0.72200 0.69210 0.06300
H 	H 	0.62470 0.72620 0.71340 -0.00500
C 	C 	0.51060 0.70940 0.61440 -0.16600
N 	N 	0.53310 0.65440 0.68220 -0.23500
C 	C 	0.55320 0.77610 0.63180 0.06900
H 	H 	0.55520 0.81660 0.61800 0.02800
C 	C 	0.59560 0.78010 0.67350 -0.12000
H 	H 	0.62760 0.82470 0.68690 0.07700
O 	O 	0.36340 0.79690 0.55650 -0.60100
O 	O 	0.24660 0.71900 0.55460 -0.59800
I 	I 	0.38764 0.92343 0.80831 -0.58700
Cu	Cu	0.43183 0.94933 0.71767 0.72300
C 	C 	0.30170 0.76970 0.57170 0.47600
C 	C 	0.35300 0.85020 0.64080 0.07000
H 	H 	0.39860 0.86240 0.62950 0.00200
C 	C 	0.27800 0.86730 0.69210 0.06300
H 	H 	0.27380 0.89850 0.71340 -0.00500
C 	C 	0.29060 0.80120 0.61440 -0.16600
N 	N 	0.34560 0.87870 0.68220 -0.23500
C 	C 	0.22390 0.77710 0.63180 0.06900
H 	H 	0.18340 0.73860 0.61800 0.02800
C 	C 	0.21990 0.81550 0.67350 -0.12000
H 	H 	0.17530 0.80290 0.68690 0.07700
O 	O 	0.43350 0.79690 0.94350 -0.55500
O 	O 	0.47240 0.71900 0.94540 -0.55100
I 	I 	0.53579 0.92343 0.69169 -0.59800
Cu	Cu	0.51750 0.94933 0.78233 0.72400
C 	C 	0.46800 0.76970 0.92830 0.46900
C 	C 	0.49720 0.85020 0.85920 0.06900
H 	H 	0.46380 0.86240 0.87050 0.00900
C 	C 	0.58930 0.86730 0.80790 0.06300
H 	H 	0.62470 0.89850 0.78660 -0.00400
C 	C 	0.51060 0.80120 0.88560 -0.15200
N 	N 	0.53310 0.87870 0.81780 -0.23300
C 	C 	0.55320 0.77710 0.86820 0.06700
H 	H 	0.55520 0.73860 0.88200 0.03900
C 	C 	0.59560 0.81550 0.82650 -0.11300
H 	H 	0.62760 0.80290 0.81310 0.07900
O 	O 	0.36340 0.56650 0.94350 -0.55500
O 	O 	0.24660 0.52760 0.94540 -0.55100
I 	I 	0.38764 0.46421 0.69169 -0.59800
Cu	Cu	0.43183 0.48250 0.78233 0.72400
C 	C 	0.30170 0.53200 0.92830 0.46900
C 	C 	0.35300 0.50280 0.85920 0.06900
H 	H 	0.39860 0.53620 0.87050 0.00900
C 	C 	0.27800 0.41070 0.80790 0.06300
H 	H 	0.27380 0.37530 0.78660 -0.00400
C 	C 	0.29060 0.48940 0.88560 -0.15200
N 	N 	0.34560 0.46690 0.81780 -0.23300
C 	C 	0.22390 0.44680 0.86820 0.06700
H 	H 	0.18340 0.44480 0.88200 0.03900
C 	C 	0.21990 0.40440 0.82650 -0.11300
H 	H 	0.17530 0.37240 0.81310 0.07900
O 	O 	0.20310 0.63660 0.94350 -0.55500
O 	O 	0.28100 0.75340 0.94540 -0.55100
I 	I 	0.07657 0.61236 0.69169 -0.59800
Cu	Cu	0.05067 0.56817 0.78233 0.72400
C 	C 	0.23030 0.69830 0.92830 0.46900
C 	C 	0.14980 0.64700 0.85920 0.06900
H 	H 	0.13760 0.60140 0.87050 0.00900
C 	C 	0.13270 0.72200 0.80790 0.06300
H 	H 	0.10150 0.72620 0.78660 -0.00400
C 	C 	0.19880 0.70940 0.88560 -0.15200
N 	N 	0.12130 0.65440 0.81780 -0.23300
C 	C 	0.22290 0.77610 0.86820 0.06700
H 	H 	0.26140 0.81660 0.88200 0.03900
C 	C 	0.18450 0.78010 0.82650 -0.11300
H 	H 	0.19710 0.82470 0.81310 0.07900
O 	O 	0.56650 0.20310 0.94350 -0.55500
O 	O 	0.52760 0.28100 0.94540 -0.55100
I 	I 	0.46421 0.07657 0.69169 -0.59800
Cu	Cu	0.48250 0.05067 0.78233 0.72400
C 	C 	0.53200 0.23030 0.92830 0.46900
C 	C 	0.50280 0.14980 0.85920 0.06900
H 	H 	0.53620 0.13760 0.87050 0.00900
C 	C 	0.41070 0.13270 0.80790 0.06300
H 	H 	0.37530 0.10150 0.78660 -0.00400
C 	C 	0.48940 0.19880 0.88560 -0.15200
N 	N 	0.46690 0.12130 0.81780 -0.23300
C 	C 	0.44680 0.22290 0.86820 0.06700
H 	H 	0.44480 0.26140 0.88200 0.03900
C 	C 	0.40440 0.18450 0.82650 -0.11300
H 	H 	0.37240 0.19710 0.81310 0.07900
O 	O 	0.63660 0.43350 0.94350 -0.55500
O 	O 	0.75340 0.47240 0.94540 -0.55100
I 	I 	0.61236 0.53579 0.69169 -0.59800
Cu	Cu	0.56817 0.51750 0.78233 0.72400
C 	C 	0.69830 0.46800 0.92830 0.46900
C 	C 	0.64700 0.49720 0.85920 0.06900
H 	H 	0.60140 0.46380 0.87050 0.00900
C 	C 	0.72200 0.58930 0.80790 0.06300
H 	H 	0.72620 0.62470 0.78660 -0.00400
C 	C 	0.70940 0.51060 0.88560 -0.15200
N 	N 	0.65440 0.53310 0.81780 -0.23300
C 	C 	0.77610 0.55320 0.86820 0.06700
H 	H 	0.81660 0.55520 0.88200 0.03900
C 	C 	0.78010 0.59560 0.82650 -0.11300
H 	H 	0.82470 0.62760 0.81310 0.07900
O 	O 	0.79690 0.36340 0.94350 -0.55500
O 	O 	0.71900 0.24660 0.94540 -0.55100
I 	I 	0.92343 0.38764 0.69169 -0.59800
Cu	Cu	0.94933 0.43183 0.78233 0.72400
C 	C 	0.76970 0.30170 0.92830 0.46900
C 	C 	0.85020 0.35300 0.85920 0.06900
H 	H 	0.86240 0.39860 0.87050 0.00900
C 	C 	0.86730 0.27800 0.80790 0.06300
H 	H 	0.89850 0.27380 0.78660 -0.00400
C 	C 	0.80120 0.29060 0.88560 -0.15200
N 	N 	0.87870 0.34560 0.81780 -0.23300
C 	C 	0.77710 0.22390 0.86820 0.06700
H 	H 	0.73860 0.18340 0.88200 0.03900
C 	C 	0.81550 0.21990 0.82650 -0.11300
H 	H 	0.80290 0.17530 0.81310 0.07900
In	In	0.23073 0.64358 0.50000 1.98100
In	In	0.35642 0.58715 0.50000 1.98100
In	In	0.41285 0.76927 0.50000 1.98100
In	In	0.76927 0.35642 0.50000 1.98100
In	In	0.64358 0.41285 0.50000 1.98100
In	In	0.58715 0.23073 0.50000 1.98100
In	In	0.64358 0.23073 -0.00000 1.95700
In	In	0.58715 0.35642 -0.00000 1.95700
In	In	0.76927 0.41285 -0.00000 1.95700
In	In	0.35642 0.76927 -0.00000 1.95700
In	In	0.41285 0.64358 -0.00000 1.95700
In	In	0.23073 0.58715 -0.00000 1.95700
O 	O 	0.33333 0.66667 0.50000 -1.03500
O 	O 	0.66667 0.33333 0.50000 -1.03500
O 	O 	0.66667 0.33333 -0.00000 -1.09000
O 	O 	0.33333 0.66667 -0.00000 -1.09000
