data_crystal

_cell_length_a 9.98920
_cell_length_b 10.92510
_cell_length_c 22.61230
_cell_angle_alpha 94.87000
_cell_angle_beta  90.00000
_cell_angle_gamma 90.00000

_symmetry_space_group_name_	'P 1'
_symmetry_space_group_name_H-M	'P 1'

loop_
_symmetry_equiv_pos_as_xyz
  x,y,z

loop_
_atom_site_label
_atom_site_type_symbol
_atom_site_fract_x
_atom_site_fract_y
_atom_site_fract_z
_atom_site_charge
Ca	Ca	0.98121 0.44822 0.83872 1.52000
Ca	Ca	0.01879 0.55178 0.16128 1.49600
Ca	Ca	0.80628 0.75000 0.25000 1.48300
Ca	Ca	0.19372 0.25000 0.75000 1.48000
Ca	Ca	0.98121 0.05178 0.66128 1.51500
Ca	Ca	-0.00000 0.50000 -0.00000 1.50400
Ca	Ca	-0.00000 0.00000 0.50000 1.50400
Ca	Ca	0.01879 0.94822 0.33872 1.49800
H 	H 	0.68130 0.16280 0.49510 -0.01200
H 	H 	0.14400 0.12960 0.01200 0.03700
H 	H 	0.52210 0.69230 0.95030 0.02700
H 	H 	0.17040 0.58120 0.49490 0.06600
H 	H 	0.85600 0.87040 0.98800 -0.04600
H 	H 	0.71930 0.66280 0.00080 0.02800
H 	H 	0.99080 0.87810 0.82110 -0.03600
H 	H 	0.82960 0.41880 0.50510 0.10500
H 	H 	0.49220 0.40770 0.85460 -0.04000
H 	H 	0.85600 0.62960 0.51200 0.00600
H 	H 	0.47790 0.19230 0.45030 0.08600
H 	H 	0.31870 0.83720 0.50490 -0.01500
H 	H 	0.00920 0.12190 0.17890 0.03400
H 	H 	0.00920 0.37810 0.32110 0.00400
H 	H 	0.82960 0.08120 0.99490 0.17400
H 	H 	0.89500 0.19150 0.91680 -0.05900
H 	H 	0.50780 0.90770 0.35460 -0.01000
H 	H 	0.14400 0.37040 0.48800 0.00700
H 	H 	0.10500 0.69150 0.41680 -0.00100
H 	H 	0.31870 0.66280 0.99510 0.06700
H 	H 	0.89500 0.30850 0.58320 -0.00900
H 	H 	0.49220 0.09230 0.64540 -0.02200
H 	H 	0.47790 0.30770 0.04970 0.14700
H 	H 	0.28070 0.33720 0.99920 -0.05700
H 	H 	0.17040 0.91880 0.00510 0.01700
H 	H 	0.68130 0.33720 0.00490 -0.08200
H 	H 	0.50780 0.59230 0.14540 0.01100
H 	H 	0.71930 0.83720 0.49920 -0.01000
H 	H 	0.28070 0.16280 0.50080 -0.02400
H 	H 	0.52210 0.80770 0.54970 0.09200
H 	H 	0.10500 0.80850 0.08320 0.03000
H 	H 	0.99080 0.62190 0.67890 0.01000
C 	C 	0.48930 0.39020 0.89410 0.19300
C 	C 	0.92980 0.64710 0.59550 -0.17800
C 	C 	0.04080 0.28300 0.09650 0.38800
C 	C 	0.36650 0.37610 0.92179 -0.30100
C 	C 	0.25980 0.59550 0.10290 0.37400
C 	C 	0.00500 0.61880 0.31177 0.23800
C 	C 	0.12040 0.08560 0.04380 -0.06600
C 	C 	0.76150 0.90190 0.39066 0.44900
C 	C 	0.05100 0.54600 0.36129 -0.14000
C 	C 	0.87960 0.58560 0.54380 0.11500
C 	C 	0.03860 0.41900 0.35640 0.05700
C 	C 	0.48060 0.17000 0.48910 -0.18700
C 	C 	0.03860 0.08100 0.14360 -0.04900
C 	C 	0.23850 0.09810 0.60934 0.45300
C 	C 	0.74020 0.40450 0.89710 0.42900
C 	C 	0.96140 0.91900 0.85640 0.30700
C 	C 	0.05100 0.95400 0.13871 -0.04300
C 	C 	0.51940 0.67000 0.98910 0.01500
C 	C 	0.51940 0.83000 0.51090 -0.17600
C 	C 	0.76150 0.59810 0.10934 0.42200
C 	C 	0.86460 0.45940 0.53950 -0.18400
C 	C 	0.00500 0.88120 0.18823 0.19400
C 	C 	0.90180 0.10630 0.91340 0.29100
C 	C 	0.07020 0.35290 0.40450 -0.16300
C 	C 	0.39760 0.84690 0.48390 0.11200
C 	C 	0.09820 0.60630 0.41340 0.04300
C 	C 	0.99500 0.11880 0.81177 0.60500
C 	C 	0.13540 0.95940 0.03950 -0.01000
C 	C 	0.96140 0.58100 0.64360 0.14200
C 	C 	0.87960 0.91440 0.95620 0.30600
C 	C 	0.12040 0.41440 0.45620 0.05800
C 	C 	0.94900 0.45400 0.63871 -0.24400
C 	C 	0.95920 0.78300 0.59650 0.42200
C 	C 	0.13540 0.54060 0.46050 -0.13800
C 	C 	0.04080 0.21700 0.40350 0.41500
C 	C 	0.94900 0.04600 0.86129 -0.39000
C 	C 	0.39160 0.87820 0.42558 -0.18400
C 	C 	0.63740 0.65380 0.01950 -0.02500
C 	C 	0.09820 0.89370 0.08660 -0.05500
C 	C 	0.39160 0.62180 0.07442 -0.10000
C 	C 	0.36260 0.34620 0.98050 0.25100
C 	C 	0.48930 0.10980 0.60590 0.12000
C 	C 	0.48060 0.33000 0.01090 -0.36500
C 	C 	0.86460 0.04060 0.96050 -0.38500
C 	C 	0.25980 0.90450 0.39710 0.40900
C 	C 	0.36650 0.12390 0.57821 -0.23800
C 	C 	0.51070 0.89020 0.39410 0.12100
C 	C 	0.99500 0.38120 0.68823 0.57400
C 	C 	0.51070 0.60980 0.10590 0.04200
C 	C 	0.36260 0.15380 0.51950 0.11600
C 	C 	0.39760 0.65310 0.01610 -0.08100
C 	C 	0.60240 0.34690 0.98390 0.27900
C 	C 	0.63740 0.84620 0.48050 0.11800
C 	C 	0.74020 0.09550 0.60290 0.39700
C 	C 	0.60840 0.37820 0.92558 -0.26700
C 	C 	0.90180 0.39370 0.58660 0.14500
C 	C 	0.92980 0.85290 0.90450 -0.28900
C 	C 	0.23850 0.40190 0.89066 0.47900
C 	C 	0.95920 0.71700 0.90350 0.46500
C 	C 	0.63350 0.87610 0.42179 -0.21500
C 	C 	0.07020 0.14710 0.09550 -0.09400
C 	C 	0.63350 0.62390 0.07821 -0.14500
C 	C 	0.60840 0.12180 0.57442 -0.19200
C 	C 	0.60240 0.15310 0.51610 0.10300
O 	O 	0.96570 0.67280 0.95230 -0.47800
O 	O 	0.99240 0.76710 0.17814 -0.47500
O 	O 	0.02200 0.43730 0.73750 -0.66100
O 	O 	0.99240 0.73290 0.32186 -0.49100
O 	O 	0.02050 0.34140 0.14640 -0.50400
O 	O 	0.97800 0.93730 0.23750 -0.43900
O 	O 	0.03430 0.32720 0.04770 -0.52100
O 	O 	0.86290 0.56990 0.07862 -0.56800
O 	O 	0.13710 0.43010 0.92138 -0.62000
O 	O 	0.84220 0.41830 0.93003 -0.53500
O 	O 	0.15780 0.58170 0.06997 -0.57500
O 	O 	0.84220 0.08170 0.56997 -0.55000
O 	O 	0.23440 0.39620 0.83470 -0.60700
O 	O 	0.74620 0.08920 0.65733 -0.44700
O 	O 	0.23440 0.10380 0.66530 -0.60800
O 	O 	0.97800 0.56270 0.26250 -0.47000
O 	O 	0.86290 0.93010 0.42138 -0.55800
O 	O 	0.02050 0.15860 0.35360 -0.52000
O 	O 	0.00760 0.23290 0.82186 -0.68400
O 	O 	0.00760 0.26710 0.67814 -0.68000
O 	O 	0.96570 0.82720 0.54770 -0.46000
O 	O 	0.76560 0.60380 0.16530 -0.57900
O 	O 	0.02200 0.06270 0.76250 -0.67500
O 	O 	0.03430 0.17280 0.45230 -0.52700
O 	O 	0.74620 0.41080 0.84267 -0.44300
O 	O 	0.97950 0.65860 0.85360 -0.46900
O 	O 	0.15780 0.91830 0.43003 -0.56600
O 	O 	0.13710 0.06990 0.57862 -0.63000
O 	O 	0.97950 0.84140 0.64640 -0.44200
O 	O 	0.76560 0.89620 0.33470 -0.57700
O 	O 	0.25380 0.91080 0.34267 -0.45500
O 	O 	0.25380 0.58920 0.15733 -0.45400
