data_crystal

_cell_length_a 16.02300
_cell_length_b 10.06200
_cell_length_c 18.48600
_cell_angle_alpha 90.00000
_cell_angle_beta  90.00000
_cell_angle_gamma 90.00000

_symmetry_space_group_name_	'P 1'
_symmetry_space_group_name_H-M	'P 1'

loop_
_symmetry_equiv_pos_as_xyz
  x,y,z

loop_
_atom_site_label
_atom_site_type_symbol
_atom_site_fract_x
_atom_site_fract_y
_atom_site_fract_z
_atom_site_charge
Ga	Ga	0.46002 0.31747 0.21794 2.10400
Ga	Ga	0.64939 0.16380 0.17667 2.09300
Ga	Ga	0.48953 0.34630 0.40851 2.09100
P 	P 	0.48810 0.14240 0.07730 0.66000
P 	P 	0.55800 0.11830 0.31640 0.63600
P 	P 	0.31560 0.34960 0.33080 0.67300
F 	F 	0.58050 0.32990 0.19120 -0.76800
F 	F 	0.49730 0.41030 0.30490 -0.83600
O 	O 	0.43440 0.21120 0.13410 -0.50400
O 	O 	0.55300 0.97340 0.33950 -0.48800
O 	O 	0.34790 0.31190 0.25600 -0.54800
O 	O 	0.48500 0.15420 0.26810 -0.57600
O 	O 	0.58020 0.13120 0.09980 -0.65400
O 	O 	0.64020 0.14230 0.27590 -0.57600
O 	O 	0.29100 0.49760 0.33350 -0.53300
O 	O 	0.23740 0.26890 0.34890 -0.54100
O 	O 	0.55790 0.20230 0.38640 -0.53300
O 	O 	0.37880 0.31570 0.39130 -0.60000
O 	O 	0.48020 0.21810 0.00630 -0.51400
O 	O 	0.45420 0.00040 0.06780 -0.58700
Ga	Ga	0.03998 0.68253 0.71794 2.10300
Ga	Ga	0.85061 0.83620 0.67667 2.09300
Ga	Ga	0.01047 0.65370 0.90851 2.09000
P 	P 	0.01190 0.85760 0.57730 0.65800
P 	P 	0.94200 0.88170 0.81640 0.64400
P 	P 	0.18440 0.65040 0.83080 0.67300
F 	F 	0.91950 0.67010 0.69120 -0.76600
F 	F 	0.00270 0.58970 0.80490 -0.83800
O 	O 	0.06560 0.78880 0.63410 -0.50500
O 	O 	0.94700 0.02660 0.83950 -0.49100
O 	O 	0.15210 0.68810 0.75600 -0.54900
O 	O 	0.01500 0.84580 0.76810 -0.58100
O 	O 	0.91980 0.86880 0.59980 -0.64900
O 	O 	0.85980 0.85770 0.77590 -0.57500
O 	O 	0.20900 0.50240 0.83350 -0.53400
O 	O 	0.26260 0.73110 0.84890 -0.54300
O 	O 	0.94210 0.79770 0.88640 -0.53000
O 	O 	0.12120 0.68430 0.89130 -0.60200
O 	O 	0.01980 0.78190 0.50630 -0.51300
O 	O 	0.04580 0.99960 0.56780 -0.58800
Ga	Ga	0.53998 0.81747 0.28206 2.10300
Ga	Ga	0.35061 0.66380 0.32333 2.09300
Ga	Ga	0.51047 0.84630 0.09149 2.09100
P 	P 	0.51190 0.64240 0.42270 0.66000
P 	P 	0.44200 0.61830 0.18360 0.63600
P 	P 	0.68440 0.84960 0.16920 0.67300
F 	F 	0.41950 0.82990 0.30880 -0.76800
F 	F 	0.50270 0.91030 0.19510 -0.83700
O 	O 	0.56560 0.71120 0.36590 -0.50400
O 	O 	0.44700 0.47340 0.16050 -0.48800
O 	O 	0.65210 0.81190 0.24400 -0.54800
O 	O 	0.51500 0.65420 0.23190 -0.57600
O 	O 	0.41980 0.63120 0.40020 -0.65300
O 	O 	0.35980 0.64230 0.22410 -0.57500
O 	O 	0.70900 0.99760 0.16650 -0.53300
O 	O 	0.76260 0.76890 0.15110 -0.54200
O 	O 	0.44210 0.70230 0.11360 -0.53300
O 	O 	0.62120 0.81570 0.10870 -0.60000
O 	O 	0.51980 0.71810 0.49370 -0.51400
O 	O 	0.54580 0.50040 0.43220 -0.58600
Ga	Ga	0.96002 0.18253 0.78206 2.10300
Ga	Ga	0.14939 0.33620 0.82333 2.09300
Ga	Ga	0.98953 0.15370 0.59149 2.09100
P 	P 	0.98810 0.35760 0.92270 0.66400
P 	P 	0.05800 0.38170 0.68360 0.63600
P 	P 	0.81560 0.15040 0.66920 0.67300
F 	F 	0.08050 0.17010 0.80880 -0.76700
F 	F 	0.99730 0.08970 0.69510 -0.83600
O 	O 	0.93440 0.28880 0.86590 -0.50400
O 	O 	0.05300 0.52660 0.66050 -0.48800
O 	O 	0.84790 0.18810 0.74400 -0.54900
O 	O 	0.98500 0.34580 0.73190 -0.57400
O 	O 	0.08020 0.36880 0.90020 -0.65600
O 	O 	0.14020 0.35770 0.72410 -0.57500
O 	O 	0.79100 0.00240 0.66650 -0.53600
O 	O 	0.73740 0.23110 0.65110 -0.54200
O 	O 	0.05790 0.29770 0.61360 -0.53100
O 	O 	0.87880 0.18430 0.60870 -0.60000
O 	O 	0.98020 0.28190 0.99370 -0.51200
O 	O 	0.95420 0.49960 0.93220 -0.58400
Ga	Ga	0.53998 0.68253 0.78206 2.10300
Ga	Ga	0.35061 0.83620 0.82333 2.09200
Ga	Ga	0.51047 0.65370 0.59149 2.09100
P 	P 	0.51190 0.85760 0.92270 0.66000
P 	P 	0.44200 0.88170 0.68360 0.63600
P 	P 	0.68440 0.65040 0.66920 0.67300
F 	F 	0.41950 0.67010 0.80880 -0.76800
F 	F 	0.50270 0.58970 0.69510 -0.83600
O 	O 	0.56560 0.78880 0.86590 -0.50400
O 	O 	0.44700 0.02660 0.66050 -0.48800
O 	O 	0.65210 0.68810 0.74400 -0.54800
O 	O 	0.51500 0.84580 0.73190 -0.57600
O 	O 	0.41980 0.86880 0.90020 -0.65400
O 	O 	0.35980 0.85770 0.72410 -0.57600
O 	O 	0.70900 0.50240 0.66650 -0.53300
O 	O 	0.76260 0.73110 0.65110 -0.54100
O 	O 	0.44210 0.79770 0.61360 -0.53300
O 	O 	0.62120 0.68430 0.60870 -0.60000
O 	O 	0.51980 0.78190 0.99370 -0.51400
O 	O 	0.54580 0.99960 0.93220 -0.58700
Ga	Ga	0.96002 0.31747 0.28206 2.10300
Ga	Ga	0.14939 0.16380 0.32333 2.09300
Ga	Ga	0.98953 0.34630 0.09149 2.09000
P 	P 	0.98810 0.14240 0.42270 0.65800
P 	P 	0.05800 0.11830 0.18360 0.64400
P 	P 	0.81560 0.34960 0.16920 0.67300
F 	F 	0.08050 0.32990 0.30880 -0.76600
F 	F 	0.99730 0.41030 0.19510 -0.83800
O 	O 	0.93440 0.21120 0.36590 -0.50500
O 	O 	0.05300 0.97340 0.16050 -0.49100
O 	O 	0.84790 0.31190 0.24400 -0.54900
O 	O 	0.98500 0.15420 0.23190 -0.58100
O 	O 	0.08020 0.13120 0.40020 -0.64900
O 	O 	0.14020 0.14230 0.22410 -0.57500
O 	O 	0.79100 0.49760 0.16650 -0.53400
O 	O 	0.73740 0.26890 0.15110 -0.54300
O 	O 	0.05790 0.20230 0.11360 -0.53000
O 	O 	0.87880 0.31570 0.10870 -0.60200
O 	O 	0.98020 0.21810 0.49370 -0.51300
O 	O 	0.95420 0.00040 0.43220 -0.58800
Ga	Ga	0.46002 0.18253 0.71794 2.10300
Ga	Ga	0.64939 0.33620 0.67667 2.09300
Ga	Ga	0.48953 0.15370 0.90851 2.09100
P 	P 	0.48810 0.35760 0.57730 0.66000
P 	P 	0.55800 0.38170 0.81640 0.63600
P 	P 	0.31560 0.15040 0.83080 0.67300
F 	F 	0.58050 0.17010 0.69120 -0.76800
F 	F 	0.49730 0.08970 0.80490 -0.83700
O 	O 	0.43440 0.28880 0.63410 -0.50400
O 	O 	0.55300 0.52660 0.83950 -0.48800
O 	O 	0.34790 0.18810 0.75600 -0.54800
O 	O 	0.48500 0.34580 0.76810 -0.57600
O 	O 	0.58020 0.36880 0.59980 -0.65300
O 	O 	0.64020 0.35770 0.77590 -0.57500
O 	O 	0.29100 0.00240 0.83350 -0.53300
O 	O 	0.23740 0.23110 0.84890 -0.54200
O 	O 	0.55790 0.29770 0.88640 -0.53300
O 	O 	0.37880 0.18430 0.89130 -0.60000
O 	O 	0.48020 0.28190 0.50630 -0.51400
O 	O 	0.45420 0.49960 0.56780 -0.58600
Ga	Ga	0.03998 0.81747 0.21794 2.10300
Ga	Ga	0.85061 0.66380 0.17667 2.09300
Ga	Ga	0.01047 0.84630 0.40851 2.09100
P 	P 	0.01190 0.64240 0.07730 0.66400
P 	P 	0.94200 0.61830 0.31640 0.63600
P 	P 	0.18440 0.84960 0.33080 0.67300
F 	F 	0.91950 0.82990 0.19120 -0.76700
F 	F 	0.00270 0.91030 0.30490 -0.83600
O 	O 	0.06560 0.71120 0.13410 -0.50400
O 	O 	0.94700 0.47340 0.33950 -0.48800
O 	O 	0.15210 0.81190 0.25600 -0.54900
O 	O 	0.01500 0.65420 0.26810 -0.57400
O 	O 	0.91980 0.63120 0.09980 -0.65600
O 	O 	0.85980 0.64230 0.27590 -0.57500
O 	O 	0.20900 0.99760 0.33350 -0.53600
O 	O 	0.26260 0.76890 0.34890 -0.54200
O 	O 	0.94210 0.70230 0.38640 -0.53100
O 	O 	0.12120 0.81570 0.39130 -0.60000
O 	O 	0.01980 0.71810 0.00630 -0.51200
O 	O 	0.04580 0.50040 0.06780 -0.58400
