data_crystal

_cell_length_a 26.63960
_cell_length_b 12.98530
_cell_length_c 23.23260
_cell_angle_alpha 90.00000
_cell_angle_beta  108.69600
_cell_angle_gamma 90.00000

_symmetry_space_group_name_	'P 1'
_symmetry_space_group_name_H-M	'P 1'

loop_
_symmetry_equiv_pos_as_xyz
  x,y,z

loop_
_atom_site_label
_atom_site_type_symbol
_atom_site_fract_x
_atom_site_fract_y
_atom_site_fract_z
_atom_site_charge
C 	C 	0.60244 0.35860 0.60941 0.31600
C 	C 	0.57244 0.28600 0.56016 -0.09100
C 	C 	0.59484 0.19280 0.55209 0.01400
H 	H 	0.62980 0.17610 0.57690 0.03800
C 	C 	0.56647 0.12370 0.50800 -0.07700
H 	H 	0.58230 0.06040 0.50270 0.06500
C 	C 	0.51525 0.14660 0.47165 0.02100
C 	C 	0.49341 0.24110 0.47997 -0.07900
H 	H 	0.45840 0.25800 0.45530 0.04800
C 	C 	0.52148 0.30960 0.52296 0.01400
H 	H 	0.50600 0.37380 0.52740 0.03900
C 	C 	0.48572 0.07330 0.42392 0.08100
C 	C 	0.43125 0.07730 0.39712 -0.12700
H 	H 	0.41120 0.12780 0.40960 0.06500
C 	C 	0.40595 0.00700 0.35177 0.05000
C 	C 	0.43732 0.93270 0.33699 -0.12500
H 	H 	0.42160 0.88240 0.30690 0.07700
C 	C 	0.49143 0.93210 0.36618 0.08200
C 	C 	0.52608 0.85650 0.34994 0.03100
C 	C 	0.57489 0.88710 0.34588 -0.09200
H 	H 	0.58760 0.95470 0.35780 0.06500
C 	C 	0.60491 0.81990 0.32468 0.02800
H 	H 	0.63800 0.84200 0.32160 0.02900
C 	C 	0.58758 0.72110 0.30785 -0.11000
C 	C 	0.54046 0.68880 0.31473 0.03200
H 	H 	0.52910 0.61970 0.30520 0.03700
C 	C 	0.50987 0.75530 0.33512 -0.09200
H 	H 	0.47730 0.73210 0.33920 0.06900
C 	C 	0.61660 0.65350 0.27726 0.33600
C 	C 	0.34825 0.01170 0.32027 0.04500
C 	C 	0.31961 0.92470 0.29198 -0.13100
H 	H 	0.33680 0.86000 0.29430 0.08800
C 	C 	0.26630 0.93430 0.26079 0.06700
H 	H 	0.24750 0.87480 0.24180 -0.03500
C 	C 	0.26692 0.10560 0.28296 0.05700
H 	H 	0.24860 0.16910 0.27990 0.00200
C 	C 	0.32012 0.10330 0.31498 -0.12000
H 	H 	0.33770 0.16430 0.33350 0.05100
N 	N 	0.51581 0.00150 0.40859 -0.13400
N 	N 	0.23962 0.02260 0.25578 -0.26200
O 	O 	0.58121 0.44425 0.61444 -0.39000
O 	O 	0.64591 0.33300 0.64400 -0.41400
O 	O 	0.59490 0.57250 0.25190 -0.42800
O 	O 	0.65938 0.68200 0.27336 -0.37300
Mn	Mn	0.15272 0.03181 0.20581 1.23400
C 	C 	0.10244 0.85860 0.60941 0.31600
C 	C 	0.07244 0.78600 0.56016 -0.09100
C 	C 	0.09484 0.69280 0.55209 0.01400
H 	H 	0.12980 0.67610 0.57690 0.03800
C 	C 	0.06647 0.62370 0.50800 -0.07700
H 	H 	0.08230 0.56040 0.50270 0.06500
C 	C 	0.01525 0.64660 0.47165 0.02100
C 	C 	0.99341 0.74110 0.47997 -0.07900
H 	H 	0.95840 0.75800 0.45530 0.04800
C 	C 	0.02148 0.80960 0.52296 0.01400
H 	H 	0.00600 0.87380 0.52740 0.03900
C 	C 	0.98572 0.57330 0.42392 0.08000
C 	C 	0.93125 0.57730 0.39712 -0.12700
H 	H 	0.91120 0.62780 0.40960 0.06500
C 	C 	0.90595 0.50700 0.35177 0.05000
C 	C 	0.93732 0.43270 0.33699 -0.12500
H 	H 	0.92160 0.38240 0.30690 0.07700
C 	C 	0.99143 0.43210 0.36618 0.08200
C 	C 	0.02608 0.35650 0.34994 0.03100
C 	C 	0.07489 0.38710 0.34588 -0.09200
H 	H 	0.08760 0.45470 0.35780 0.06500
C 	C 	0.10491 0.31990 0.32468 0.02800
H 	H 	0.13800 0.34200 0.32160 0.02800
C 	C 	0.08758 0.22110 0.30785 -0.11000
C 	C 	0.04046 0.18880 0.31473 0.03300
H 	H 	0.02910 0.11970 0.30520 0.03700
C 	C 	0.00987 0.25530 0.33512 -0.09200
H 	H 	0.97730 0.23210 0.33920 0.06900
C 	C 	0.11660 0.15350 0.27726 0.33600
C 	C 	0.84825 0.51170 0.32027 0.04600
C 	C 	0.81961 0.42470 0.29198 -0.13100
H 	H 	0.83680 0.36000 0.29430 0.08800
C 	C 	0.76630 0.43430 0.26079 0.06700
H 	H 	0.74750 0.37480 0.24180 -0.03500
C 	C 	0.76692 0.60560 0.28296 0.05700
H 	H 	0.74860 0.66910 0.27990 0.00200
C 	C 	0.82012 0.60330 0.31498 -0.12000
H 	H 	0.83770 0.66430 0.33350 0.05100
N 	N 	0.01581 0.50150 0.40859 -0.13400
N 	N 	0.73962 0.52260 0.25578 -0.26200
O 	O 	0.08121 0.94425 0.61444 -0.39000
O 	O 	0.14591 0.83300 0.64400 -0.41400
O 	O 	0.09490 0.07250 0.25190 -0.42800
O 	O 	0.15938 0.18200 0.27336 -0.37300
Mn	Mn	0.65272 0.53181 0.20581 1.23400
C 	C 	0.60244 0.64140 0.10941 0.31600
C 	C 	0.57244 0.71400 0.06016 -0.09100
C 	C 	0.59484 0.80720 0.05209 0.01400
H 	H 	0.62980 0.82390 0.07690 0.03800
C 	C 	0.56647 0.87630 0.00800 -0.07700
H 	H 	0.58230 0.93960 0.00270 0.06500
C 	C 	0.51525 0.85340 0.97165 0.02100
C 	C 	0.49341 0.75890 0.97997 -0.08000
H 	H 	0.45840 0.74200 0.95530 0.04800
C 	C 	0.52148 0.69040 0.02296 0.01400
H 	H 	0.50600 0.62620 0.02740 0.03900
C 	C 	0.48572 0.92670 0.92392 0.08100
C 	C 	0.43125 0.92270 0.89712 -0.12700
H 	H 	0.41120 0.87220 0.90960 0.06500
C 	C 	0.40595 0.99300 0.85177 0.05000
C 	C 	0.43732 0.06730 0.83699 -0.12500
H 	H 	0.42160 0.11760 0.80690 0.07700
C 	C 	0.49143 0.06790 0.86618 0.08200
C 	C 	0.52608 0.14350 0.84994 0.03100
C 	C 	0.57489 0.11290 0.84588 -0.09200
H 	H 	0.58760 0.04530 0.85780 0.06500
C 	C 	0.60491 0.18010 0.82468 0.02800
H 	H 	0.63800 0.15800 0.82160 0.02900
C 	C 	0.58758 0.27890 0.80785 -0.11000
C 	C 	0.54046 0.31120 0.81473 0.03200
H 	H 	0.52910 0.38030 0.80520 0.03700
C 	C 	0.50987 0.24470 0.83512 -0.09200
H 	H 	0.47730 0.26790 0.83920 0.06900
C 	C 	0.61660 0.34650 0.77726 0.33500
C 	C 	0.34825 0.98830 0.82027 0.04500
C 	C 	0.31961 0.07530 0.79198 -0.13100
H 	H 	0.33680 0.14000 0.79430 0.08800
C 	C 	0.26630 0.06570 0.76079 0.06700
H 	H 	0.24750 0.12520 0.74180 -0.03500
C 	C 	0.26692 0.89440 0.78296 0.05700
H 	H 	0.24860 0.83090 0.77990 0.00200
C 	C 	0.32012 0.89670 0.81498 -0.12000
H 	H 	0.33770 0.83570 0.83350 0.05100
N 	N 	0.51581 0.99850 0.90859 -0.13400
N 	N 	0.23962 0.97740 0.75578 -0.26200
O 	O 	0.58121 0.55575 0.11444 -0.39000
O 	O 	0.64591 0.66700 0.14400 -0.41400
O 	O 	0.59490 0.42750 0.75190 -0.42800
O 	O 	0.65938 0.31800 0.77336 -0.37300
Mn	Mn	0.15272 0.96819 0.70581 1.23400
C 	C 	0.10244 0.14140 0.10941 0.31600
C 	C 	0.07244 0.21400 0.06016 -0.09100
C 	C 	0.09484 0.30720 0.05209 0.01500
H 	H 	0.12980 0.32390 0.07690 0.03700
C 	C 	0.06647 0.37630 0.00800 -0.07800
H 	H 	0.08230 0.43960 0.00270 0.06500
C 	C 	0.01525 0.35340 0.97165 0.02200
C 	C 	0.99341 0.25890 0.97997 -0.08000
H 	H 	0.95840 0.24200 0.95530 0.04800
C 	C 	0.02148 0.19040 0.02296 0.01400
H 	H 	0.00600 0.12620 0.02740 0.03900
C 	C 	0.98572 0.42670 0.92392 0.08000
C 	C 	0.93125 0.42270 0.89712 -0.12600
H 	H 	0.91120 0.37220 0.90960 0.06400
C 	C 	0.90595 0.49300 0.85177 0.05000
C 	C 	0.93732 0.56730 0.83699 -0.12500
H 	H 	0.92160 0.61760 0.80690 0.07700
C 	C 	0.99143 0.56790 0.86618 0.08200
C 	C 	0.02608 0.64350 0.84994 0.03100
C 	C 	0.07489 0.61290 0.84588 -0.09200
H 	H 	0.08760 0.54530 0.85780 0.06500
C 	C 	0.10491 0.68010 0.82468 0.02800
H 	H 	0.13800 0.65800 0.82160 0.02800
C 	C 	0.08758 0.77890 0.80785 -0.11000
C 	C 	0.04046 0.81120 0.81473 0.03200
H 	H 	0.02910 0.88030 0.80520 0.03700
C 	C 	0.00987 0.74470 0.83512 -0.09200
H 	H 	0.97730 0.76790 0.83920 0.06900
C 	C 	0.11660 0.84650 0.77726 0.33600
C 	C 	0.84825 0.48830 0.82027 0.04600
C 	C 	0.81961 0.57530 0.79198 -0.13100
H 	H 	0.83680 0.64000 0.79430 0.08800
C 	C 	0.76630 0.56570 0.76079 0.06700
H 	H 	0.74750 0.62520 0.74180 -0.03500
C 	C 	0.76692 0.39440 0.78296 0.05700
H 	H 	0.74860 0.33090 0.77990 0.00200
C 	C 	0.82012 0.39670 0.81498 -0.12000
H 	H 	0.83770 0.33570 0.83350 0.05100
N 	N 	0.01581 0.49850 0.90859 -0.13400
N 	N 	0.73962 0.47740 0.75578 -0.26200
O 	O 	0.08121 0.05575 0.11444 -0.39000
O 	O 	0.14591 0.16700 0.14400 -0.41400
O 	O 	0.09490 0.92750 0.75190 -0.42800
O 	O 	0.15938 0.81800 0.77336 -0.37300
Mn	Mn	0.65272 0.46819 0.70581 1.23400
C 	C 	0.39756 0.35860 0.89059 0.31600
C 	C 	0.42756 0.28600 0.93984 -0.09100
C 	C 	0.40516 0.19280 0.94791 0.01400
H 	H 	0.37020 0.17610 0.92310 0.03800
C 	C 	0.43353 0.12370 0.99200 -0.07700
H 	H 	0.41770 0.06040 0.99730 0.06500
C 	C 	0.48475 0.14660 0.02835 0.02100
C 	C 	0.50659 0.24110 0.02003 -0.08000
H 	H 	0.54160 0.25800 0.04470 0.04800
C 	C 	0.47852 0.30960 0.97704 0.01400
H 	H 	0.49400 0.37380 0.97260 0.03900
C 	C 	0.51428 0.07330 0.07608 0.08100
C 	C 	0.56875 0.07730 0.10288 -0.12700
H 	H 	0.58880 0.12780 0.09040 0.06500
C 	C 	0.59405 0.00700 0.14823 0.05000
C 	C 	0.56268 0.93270 0.16301 -0.12500
H 	H 	0.57840 0.88240 0.19310 0.07700
C 	C 	0.50857 0.93210 0.13382 0.08200
C 	C 	0.47392 0.85650 0.15006 0.03100
C 	C 	0.42511 0.88710 0.15412 -0.09200
H 	H 	0.41240 0.95470 0.14220 0.06500
C 	C 	0.39509 0.81990 0.17532 0.02800
H 	H 	0.36200 0.84200 0.17840 0.02900
C 	C 	0.41242 0.72110 0.19215 -0.11000
C 	C 	0.45954 0.68880 0.18527 0.03200
H 	H 	0.47090 0.61970 0.19480 0.03700
C 	C 	0.49013 0.75530 0.16488 -0.09200
H 	H 	0.52270 0.73210 0.16080 0.06900
C 	C 	0.38340 0.65350 0.22274 0.33500
C 	C 	0.65175 0.01170 0.17973 0.04500
C 	C 	0.68039 0.92470 0.20802 -0.13100
H 	H 	0.66320 0.86000 0.20570 0.08800
C 	C 	0.73370 0.93430 0.23921 0.06700
H 	H 	0.75250 0.87480 0.25820 -0.03500
C 	C 	0.73308 0.10560 0.21704 0.05700
H 	H 	0.75140 0.16910 0.22010 0.00200
C 	C 	0.67988 0.10330 0.18502 -0.12000
H 	H 	0.66230 0.16430 0.16650 0.05100
N 	N 	0.48419 0.00150 0.09141 -0.13400
N 	N 	0.76038 0.02260 0.24422 -0.26200
O 	O 	0.41879 0.44425 0.88556 -0.39000
O 	O 	0.35409 0.33300 0.85600 -0.41400
O 	O 	0.40510 0.57250 0.24810 -0.42800
O 	O 	0.34062 0.68200 0.22664 -0.37300
Mn	Mn	0.84728 0.03181 0.29419 1.23400
C 	C 	0.89756 0.85860 0.89059 0.31600
C 	C 	0.92756 0.78600 0.93984 -0.09100
C 	C 	0.90516 0.69280 0.94791 0.01500
H 	H 	0.87020 0.67610 0.92310 0.03700
C 	C 	0.93353 0.62370 0.99200 -0.07800
H 	H 	0.91770 0.56040 0.99730 0.06500
C 	C 	0.98475 0.64660 0.02835 0.02200
C 	C 	0.00659 0.74110 0.02003 -0.08000
H 	H 	0.04160 0.75800 0.04470 0.04800
C 	C 	0.97852 0.80960 0.97704 0.01400
H 	H 	0.99400 0.87380 0.97260 0.03900
C 	C 	0.01428 0.57330 0.07608 0.08000
C 	C 	0.06875 0.57730 0.10288 -0.12600
H 	H 	0.08880 0.62780 0.09040 0.06400
C 	C 	0.09405 0.50700 0.14823 0.05000
C 	C 	0.06268 0.43270 0.16301 -0.12500
H 	H 	0.07840 0.38240 0.19310 0.07700
C 	C 	0.00857 0.43210 0.13382 0.08200
C 	C 	0.97392 0.35650 0.15006 0.03100
C 	C 	0.92511 0.38710 0.15412 -0.09200
H 	H 	0.91240 0.45470 0.14220 0.06500
C 	C 	0.89509 0.31990 0.17532 0.02800
H 	H 	0.86200 0.34200 0.17840 0.02800
C 	C 	0.91242 0.22110 0.19215 -0.11000
C 	C 	0.95954 0.18880 0.18527 0.03200
H 	H 	0.97090 0.11970 0.19480 0.03700
C 	C 	0.99013 0.25530 0.16488 -0.09200
H 	H 	0.02270 0.23210 0.16080 0.06900
C 	C 	0.88340 0.15350 0.22274 0.33600
C 	C 	0.15175 0.51170 0.17973 0.04600
C 	C 	0.18039 0.42470 0.20802 -0.13100
H 	H 	0.16320 0.36000 0.20570 0.08800
C 	C 	0.23370 0.43430 0.23921 0.06700
H 	H 	0.25250 0.37480 0.25820 -0.03500
C 	C 	0.23308 0.60560 0.21704 0.05700
H 	H 	0.25140 0.66910 0.22010 0.00200
C 	C 	0.17988 0.60330 0.18502 -0.12000
H 	H 	0.16230 0.66430 0.16650 0.05100
N 	N 	0.98419 0.50150 0.09141 -0.13400
N 	N 	0.26038 0.52260 0.24422 -0.26200
O 	O 	0.91879 0.94425 0.88556 -0.39000
O 	O 	0.85409 0.83300 0.85600 -0.41400
O 	O 	0.90510 0.07250 0.24810 -0.42800
O 	O 	0.84062 0.18200 0.22664 -0.37300
Mn	Mn	0.34728 0.53181 0.29419 1.23400
C 	C 	0.39756 0.64140 0.39059 0.31600
C 	C 	0.42756 0.71400 0.43984 -0.09100
C 	C 	0.40516 0.80720 0.44791 0.01400
H 	H 	0.37020 0.82390 0.42310 0.03800
C 	C 	0.43353 0.87630 0.49200 -0.07700
H 	H 	0.41770 0.93960 0.49730 0.06500
C 	C 	0.48475 0.85340 0.52835 0.02100
C 	C 	0.50659 0.75890 0.52003 -0.07900
H 	H 	0.54160 0.74200 0.54470 0.04800
C 	C 	0.47852 0.69040 0.47704 0.01400
H 	H 	0.49400 0.62620 0.47260 0.03900
C 	C 	0.51428 0.92670 0.57608 0.08100
C 	C 	0.56875 0.92270 0.60288 -0.12700
H 	H 	0.58880 0.87220 0.59040 0.06500
C 	C 	0.59405 0.99300 0.64823 0.05000
C 	C 	0.56268 0.06730 0.66301 -0.12500
H 	H 	0.57840 0.11760 0.69310 0.07700
C 	C 	0.50857 0.06790 0.63382 0.08200
C 	C 	0.47392 0.14350 0.65006 0.03100
C 	C 	0.42511 0.11290 0.65412 -0.09200
H 	H 	0.41240 0.04530 0.64220 0.06500
C 	C 	0.39509 0.18010 0.67532 0.02800
H 	H 	0.36200 0.15800 0.67840 0.02900
C 	C 	0.41242 0.27890 0.69215 -0.11000
C 	C 	0.45954 0.31120 0.68527 0.03200
H 	H 	0.47090 0.38030 0.69480 0.03700
C 	C 	0.49013 0.24470 0.66488 -0.09200
H 	H 	0.52270 0.26790 0.66080 0.06900
C 	C 	0.38340 0.34650 0.72274 0.33600
C 	C 	0.65175 0.98830 0.67973 0.04500
C 	C 	0.68039 0.07530 0.70802 -0.13100
H 	H 	0.66320 0.14000 0.70570 0.08800
C 	C 	0.73370 0.06570 0.73921 0.06700
H 	H 	0.75250 0.12520 0.75820 -0.03500
C 	C 	0.73308 0.89440 0.71704 0.05700
H 	H 	0.75140 0.83090 0.72010 0.00200
C 	C 	0.67988 0.89670 0.68502 -0.12000
H 	H 	0.66230 0.83570 0.66650 0.05100
N 	N 	0.48419 0.99850 0.59141 -0.13400
N 	N 	0.76038 0.97740 0.74422 -0.26200
O 	O 	0.41879 0.55575 0.38556 -0.39000
O 	O 	0.35409 0.66700 0.35600 -0.41400
O 	O 	0.40510 0.42750 0.74810 -0.42800
O 	O 	0.34062 0.31800 0.72664 -0.37300
Mn	Mn	0.84728 0.96819 0.79419 1.23400
C 	C 	0.89756 0.14140 0.39059 0.31600
C 	C 	0.92756 0.21400 0.43984 -0.09100
C 	C 	0.90516 0.30720 0.44791 0.01400
H 	H 	0.87020 0.32390 0.42310 0.03800
C 	C 	0.93353 0.37630 0.49200 -0.07700
H 	H 	0.91770 0.43960 0.49730 0.06500
C 	C 	0.98475 0.35340 0.52835 0.02100
C 	C 	0.00659 0.25890 0.52003 -0.07900
H 	H 	0.04160 0.24200 0.54470 0.04800
C 	C 	0.97852 0.19040 0.47704 0.01400
H 	H 	0.99400 0.12620 0.47260 0.03900
C 	C 	0.01428 0.42670 0.57608 0.08000
C 	C 	0.06875 0.42270 0.60288 -0.12700
H 	H 	0.08880 0.37220 0.59040 0.06500
C 	C 	0.09405 0.49300 0.64823 0.05000
C 	C 	0.06268 0.56730 0.66301 -0.12500
H 	H 	0.07840 0.61760 0.69310 0.07700
C 	C 	0.00857 0.56790 0.63382 0.08200
C 	C 	0.97392 0.64350 0.65006 0.03100
C 	C 	0.92511 0.61290 0.65412 -0.09200
H 	H 	0.91240 0.54530 0.64220 0.06500
C 	C 	0.89509 0.68010 0.67532 0.02800
H 	H 	0.86200 0.65800 0.67840 0.02800
C 	C 	0.91242 0.77890 0.69215 -0.11000
C 	C 	0.95954 0.81120 0.68527 0.03300
H 	H 	0.97090 0.88030 0.69480 0.03700
C 	C 	0.99013 0.74470 0.66488 -0.09200
H 	H 	0.02270 0.76790 0.66080 0.06900
C 	C 	0.88340 0.84650 0.72274 0.33600
C 	C 	0.15175 0.48830 0.67973 0.04600
C 	C 	0.18039 0.57530 0.70802 -0.13100
H 	H 	0.16320 0.64000 0.70570 0.08800
C 	C 	0.23370 0.56570 0.73921 0.06700
H 	H 	0.25250 0.62520 0.75820 -0.03500
C 	C 	0.23308 0.39440 0.71704 0.05700
H 	H 	0.25140 0.33090 0.72010 0.00200
C 	C 	0.17988 0.39670 0.68502 -0.12000
H 	H 	0.16230 0.33570 0.66650 0.05100
N 	N 	0.98419 0.49850 0.59141 -0.13400
N 	N 	0.26038 0.47740 0.74422 -0.26200
O 	O 	0.91879 0.05575 0.38556 -0.39000
O 	O 	0.85409 0.16700 0.35600 -0.41400
O 	O 	0.90510 0.92750 0.74810 -0.42800
O 	O 	0.84062 0.81800 0.72664 -0.37300
Mn	Mn	0.34728 0.46819 0.79419 1.23400
