data_crystal

_cell_length_a 9.14050
_cell_length_b 9.19840
_cell_length_c 9.61200
_cell_angle_alpha 90.00000
_cell_angle_beta  115.99500
_cell_angle_gamma 90.00000

_symmetry_space_group_name_	'P 1'
_symmetry_space_group_name_H-M	'P 1'

loop_
_symmetry_equiv_pos_as_xyz
  x,y,z

loop_
_atom_site_label
_atom_site_type_symbol
_atom_site_fract_x
_atom_site_fract_y
_atom_site_fract_z
_atom_site_charge
P 	P 	0.84609 0.83097 0.02462 0.48800
H 	H 	0.90500 0.72800 0.94900 -0.03200
P 	P 	0.67689 0.40090 0.92343 0.50200
H 	H 	0.75700 0.50900 0.88400 -0.04400
O 	O 	0.73300 0.75860 0.08240 -0.48400
O 	O 	0.50280 0.41220 0.80490 -0.51600
O 	O 	0.70330 0.42650 0.08830 -0.47200
O 	O 	0.99150 0.90710 0.14730 -0.49900
O 	O 	0.73980 0.93270 0.89530 -0.45600
O 	O 	0.75880 0.25810 0.91780 -0.49600
P 	P 	0.65391 0.83097 0.47538 0.49200
H 	H 	0.59500 0.72800 0.55100 -0.03600
P 	P 	0.82311 0.40090 0.57657 0.50300
H 	H 	0.74300 0.50900 0.61600 -0.04400
O 	O 	0.76700 0.75860 0.41760 -0.48300
O 	O 	0.99720 0.41220 0.69510 -0.51800
O 	O 	0.79670 0.42650 0.41170 -0.47300
O 	O 	0.50850 0.90710 0.35270 -0.50300
O 	O 	0.76020 0.93270 0.60470 -0.45900
O 	O 	0.74120 0.25810 0.58220 -0.49400
P 	P 	0.15391 0.16903 0.97538 0.48700
H 	H 	0.09500 0.27200 0.05100 -0.03300
P 	P 	0.32311 0.59910 0.07657 0.50200
H 	H 	0.24300 0.49100 0.11600 -0.04400
O 	O 	0.26700 0.24140 0.91760 -0.48400
O 	O 	0.49720 0.58780 0.19510 -0.51600
O 	O 	0.29670 0.57350 0.91170 -0.47200
O 	O 	0.00850 0.09290 0.85270 -0.49900
O 	O 	0.26020 0.06730 0.10470 -0.45600
O 	O 	0.24120 0.74190 0.08220 -0.49600
P 	P 	0.34609 0.16903 0.52462 0.49200
H 	H 	0.40500 0.27200 0.44900 -0.03600
P 	P 	0.17689 0.59910 0.42343 0.50300
H 	H 	0.25700 0.49100 0.38400 -0.04400
O 	O 	0.23300 0.24140 0.58240 -0.48300
O 	O 	0.00280 0.58780 0.30490 -0.51800
O 	O 	0.20330 0.57350 0.58830 -0.47300
O 	O 	0.49150 0.09290 0.64730 -0.50300
O 	O 	0.23980 0.06730 0.39530 -0.45900
O 	O 	0.25880 0.74190 0.41780 -0.49400
In	In	0.25000 0.89664 0.25000 2.01200
In	In	0.75000 0.10336 0.75000 2.01200
In	In	0.75000 0.60203 0.25000 2.01300
In	In	0.25000 0.39797 0.75000 2.01300
