data_crystal

_cell_length_a 17.80230
_cell_length_b 16.10370
_cell_length_c 19.12320
_cell_angle_alpha 90.00000
_cell_angle_beta  90.00000
_cell_angle_gamma 90.00000

_symmetry_space_group_name_	'P 1'
_symmetry_space_group_name_H-M	'P 1'

loop_
_symmetry_equiv_pos_as_xyz
  x,y,z

loop_
_atom_site_label
_atom_site_type_symbol
_atom_site_fract_x
_atom_site_fract_y
_atom_site_fract_z
_atom_site_charge
Fe	Fe	0.23357 0.66496 0.54241 1.28500
Fe	Fe	0.45778 0.83565 0.55121 1.23500
Fe	Fe	0.94604 0.75601 0.70677 1.27200
P 	P 	0.11640 0.75924 0.65008 0.73900
P 	P 	0.30446 0.95896 0.54181 0.74600
P 	P 	0.34167 0.72765 0.65893 0.65000
P 	P 	0.35258 0.73392 0.43509 0.64600
P 	P 	0.01199 0.90711 0.79496 0.64100
P 	P 	0.12635 0.75142 0.92706 0.75700
B 	B 	0.23960 0.83790 0.61220 2.16000
B 	B 	0.23890 0.83530 0.47730 2.14300
B 	B 	0.09540 0.76610 0.78617 2.43800
O 	O 	0.03318 0.77802 0.64574 -0.39500
O 	O 	0.14140 0.68967 0.60198 -0.38900
O 	O 	0.13683 0.73407 0.72622 -0.78700
O 	O 	0.15994 0.84014 0.63144 -0.74800
O 	O 	0.29651 0.05081 0.54298 -0.38200
O 	O 	0.38510 0.93107 0.53585 -0.42100
O 	O 	0.26561 0.92386 0.60844 -0.76100
O 	O 	0.25686 0.92427 0.47996 -0.74900
O 	O 	0.30252 0.65477 0.62375 -0.35100
O 	O 	0.40785 0.75882 0.61566 -0.46900
O 	O 	0.36847 0.70391 0.73193 -0.34900
O 	O 	0.28279 0.79834 0.66844 -0.74200
O 	O 	0.41838 0.77753 0.46925 -0.42200
O 	O 	0.37464 0.70333 0.36220 -0.34900
O 	O 	0.32411 0.66060 0.47894 -0.34600
O 	O 	0.28675 0.79685 0.42349 -0.73500
O 	O 	0.02566 0.99491 0.77116 -0.17300
O 	O 	0.99789 0.90334 0.87363 -0.42600
O 	O 	0.94783 0.86606 0.75319 -0.37600
O 	O 	0.08525 0.85617 0.77986 -0.81900
O 	O 	0.16904 0.82396 0.95757 -0.41200
O 	O 	0.04305 0.75297 0.94260 -0.43100
O 	O 	0.14042 0.74633 0.84709 -0.82500
O 	O 	0.15991 0.66893 0.95573 -0.73700
O 	O 	0.25146 0.79419 0.54494 -1.34500
O 	O 	0.02215 0.72244 0.78713 -1.70400
H 	H 	0.00200 0.72600 0.81800 0.93600
Fe	Fe	0.26643 0.33504 0.04241 1.28400
Fe	Fe	0.04222 0.16435 0.05121 1.23300
Fe	Fe	0.55396 0.24399 0.20677 1.27200
P 	P 	0.38360 0.24076 0.15008 0.73900
P 	P 	0.19554 0.04104 0.04181 0.74300
P 	P 	0.15833 0.27235 0.15893 0.65000
P 	P 	0.14742 0.26608 0.93509 0.64700
P 	P 	0.48801 0.09289 0.29496 0.63700
P 	P 	0.37365 0.24858 0.42706 0.75700
B 	B 	0.26040 0.16210 0.11220 2.16000
B 	B 	0.26110 0.16470 0.97730 2.14500
B 	B 	0.40460 0.23390 0.28617 2.43700
O 	O 	0.46682 0.22198 0.14574 -0.39600
O 	O 	0.35860 0.31033 0.10198 -0.39000
O 	O 	0.36317 0.26593 0.22622 -0.78700
O 	O 	0.34006 0.15986 0.13144 -0.74800
O 	O 	0.20349 0.94919 0.04298 -0.37900
O 	O 	0.11490 0.06893 0.03585 -0.42200
O 	O 	0.23439 0.07614 0.10844 -0.76200
O 	O 	0.24314 0.07573 0.97996 -0.74900
O 	O 	0.19748 0.34523 0.12375 -0.35100
O 	O 	0.09215 0.24118 0.11566 -0.47000
O 	O 	0.13153 0.29609 0.23193 -0.34900
O 	O 	0.21721 0.20166 0.16844 -0.74300
O 	O 	0.08162 0.22247 0.96925 -0.42100
O 	O 	0.12536 0.29667 0.86220 -0.34900
O 	O 	0.17589 0.33940 0.97894 -0.34500
O 	O 	0.21325 0.20315 0.92349 -0.73500
O 	O 	0.47434 0.00509 0.27116 -0.17500
O 	O 	0.50211 0.09666 0.37363 -0.42300
O 	O 	0.55217 0.13394 0.25319 -0.37300
O 	O 	0.41475 0.14383 0.27986 -0.81900
O 	O 	0.33096 0.17604 0.45757 -0.41300
O 	O 	0.45695 0.24703 0.44260 -0.43300
O 	O 	0.35958 0.25367 0.34709 -0.82500
O 	O 	0.34009 0.33107 0.45573 -0.73700
O 	O 	0.24854 0.20581 0.04494 -1.34600
O 	O 	0.47785 0.27756 0.28713 -1.70400
H 	H 	0.49800 0.27400 0.31800 0.93500
Fe	Fe	0.76643 0.16496 0.95759 1.28400
Fe	Fe	0.54222 0.33565 0.94879 1.23400
Fe	Fe	0.05396 0.25601 0.79323 1.27200
P 	P 	0.88360 0.25924 0.84992 0.73900
P 	P 	0.69554 0.45896 0.95819 0.74500
P 	P 	0.65833 0.22765 0.84107 0.65000
P 	P 	0.64742 0.23392 0.06491 0.64700
P 	P 	0.98801 0.40711 0.70504 0.63700
P 	P 	0.87365 0.25142 0.57294 0.75700
B 	B 	0.76040 0.33790 0.88780 2.16000
B 	B 	0.76110 0.33530 0.02270 2.14500
B 	B 	0.90460 0.26610 0.71383 2.43700
O 	O 	0.96682 0.27802 0.85426 -0.39600
O 	O 	0.85860 0.18967 0.89802 -0.39000
O 	O 	0.86317 0.23407 0.77378 -0.78700
O 	O 	0.84006 0.34014 0.86856 -0.74800
O 	O 	0.70349 0.55081 0.95702 -0.38100
O 	O 	0.61490 0.43107 0.96415 -0.42100
O 	O 	0.73439 0.42386 0.89156 -0.76100
O 	O 	0.74314 0.42427 0.02004 -0.74900
O 	O 	0.69748 0.15477 0.87625 -0.35100
O 	O 	0.59215 0.25882 0.88434 -0.46900
O 	O 	0.63153 0.20391 0.76807 -0.34900
O 	O 	0.71721 0.29834 0.83156 -0.74200
O 	O 	0.58162 0.27753 0.03075 -0.42200
O 	O 	0.62536 0.20333 0.13780 -0.34900
O 	O 	0.67589 0.16060 0.02106 -0.34500
O 	O 	0.71325 0.29685 0.07651 -0.73500
O 	O 	0.97434 0.49491 0.72884 -0.17400
O 	O 	0.00211 0.40334 0.62637 -0.42200
O 	O 	0.05217 0.36606 0.74681 -0.37300
O 	O 	0.91475 0.35617 0.72014 -0.81900
O 	O 	0.83096 0.32396 0.54243 -0.41300
O 	O 	0.95695 0.25297 0.55740 -0.43200
O 	O 	0.85958 0.24633 0.65291 -0.82500
O 	O 	0.84009 0.16893 0.54427 -0.73700
O 	O 	0.74854 0.29419 0.95506 -1.34500
O 	O 	0.97785 0.22244 0.71287 -1.70400
H 	H 	0.99800 0.22600 0.68200 0.93600
Fe	Fe	0.73357 0.83504 0.45759 1.28400
Fe	Fe	0.95778 0.66435 0.44879 1.23400
Fe	Fe	0.44604 0.74399 0.29323 1.27200
P 	P 	0.61640 0.74076 0.34992 0.73900
P 	P 	0.80446 0.54104 0.45819 0.74500
P 	P 	0.84167 0.77235 0.34107 0.65000
P 	P 	0.85258 0.76608 0.56491 0.64600
P 	P 	0.51199 0.59289 0.20504 0.63700
P 	P 	0.62635 0.74858 0.07294 0.75700
B 	B 	0.73960 0.66210 0.38780 2.16000
B 	B 	0.73890 0.66470 0.52270 2.14300
B 	B 	0.59540 0.73390 0.21383 2.43700
O 	O 	0.53318 0.72198 0.35426 -0.39600
O 	O 	0.64140 0.81033 0.39802 -0.39000
O 	O 	0.63683 0.76593 0.27378 -0.78700
O 	O 	0.65994 0.65986 0.36856 -0.74800
O 	O 	0.79651 0.44919 0.45702 -0.38100
O 	O 	0.88510 0.56893 0.46415 -0.42100
O 	O 	0.76561 0.57614 0.39156 -0.76100
O 	O 	0.75686 0.57573 0.52004 -0.74900
O 	O 	0.80252 0.84523 0.37625 -0.35200
O 	O 	0.90785 0.74118 0.38434 -0.46900
O 	O 	0.86847 0.79609 0.26807 -0.34900
O 	O 	0.78279 0.70166 0.33156 -0.74200
O 	O 	0.91838 0.72247 0.53075 -0.42300
O 	O 	0.87464 0.79667 0.63780 -0.34900
O 	O 	0.82411 0.83940 0.52106 -0.34600
O 	O 	0.78675 0.70315 0.57651 -0.73500
O 	O 	0.52566 0.50509 0.22884 -0.17400
O 	O 	0.49789 0.59666 0.12637 -0.42300
O 	O 	0.44783 0.63394 0.24681 -0.37300
O 	O 	0.58525 0.64383 0.22014 -0.81900
O 	O 	0.66904 0.67604 0.04243 -0.41200
O 	O 	0.54305 0.74703 0.05740 -0.43200
O 	O 	0.64042 0.75367 0.15291 -0.82500
O 	O 	0.65991 0.83107 0.04427 -0.73700
O 	O 	0.75146 0.70581 0.45506 -1.34500
O 	O 	0.52215 0.77756 0.21287 -1.70400
H 	H 	0.50200 0.77400 0.18200 0.93500
Fe	Fe	0.76643 0.33504 0.45759 1.28400
Fe	Fe	0.54222 0.16435 0.44879 1.23400
Fe	Fe	0.05396 0.24399 0.29323 1.27200
P 	P 	0.88360 0.24076 0.34992 0.73900
P 	P 	0.69554 0.04104 0.45819 0.74600
P 	P 	0.65833 0.27235 0.34107 0.65000
P 	P 	0.64742 0.26608 0.56491 0.64600
P 	P 	0.98801 0.09289 0.20504 0.64100
P 	P 	0.87365 0.24858 0.07294 0.75700
B 	B 	0.76040 0.16210 0.38780 2.16000
B 	B 	0.76110 0.16470 0.52270 2.14300
B 	B 	0.90460 0.23390 0.21383 2.43800
O 	O 	0.96682 0.22198 0.35426 -0.39500
O 	O 	0.85860 0.31033 0.39802 -0.38900
O 	O 	0.86317 0.26593 0.27378 -0.78700
O 	O 	0.84006 0.15986 0.36856 -0.74800
O 	O 	0.70349 0.94919 0.45702 -0.38200
O 	O 	0.61490 0.06893 0.46415 -0.42100
O 	O 	0.73439 0.07614 0.39156 -0.76100
O 	O 	0.74314 0.07573 0.52004 -0.74900
O 	O 	0.69748 0.34523 0.37625 -0.35100
O 	O 	0.59215 0.24118 0.38434 -0.46900
O 	O 	0.63153 0.29609 0.26807 -0.34900
O 	O 	0.71721 0.20166 0.33156 -0.74200
O 	O 	0.58162 0.22247 0.53075 -0.42200
O 	O 	0.62536 0.29667 0.63780 -0.34900
O 	O 	0.67589 0.33940 0.52106 -0.34600
O 	O 	0.71325 0.20315 0.57651 -0.73500
O 	O 	0.97434 0.00509 0.22884 -0.17300
O 	O 	0.00211 0.09666 0.12637 -0.42600
O 	O 	0.05217 0.13394 0.24681 -0.37600
O 	O 	0.91475 0.14383 0.22014 -0.81900
O 	O 	0.83096 0.17604 0.04243 -0.41200
O 	O 	0.95695 0.24703 0.05740 -0.43100
O 	O 	0.85958 0.25367 0.15291 -0.82500
O 	O 	0.84009 0.33107 0.04427 -0.73700
O 	O 	0.74854 0.20581 0.45506 -1.34500
O 	O 	0.97785 0.27756 0.21287 -1.70400
H 	H 	0.99800 0.27400 0.18200 0.93600
Fe	Fe	0.73357 0.66496 0.95759 1.28400
Fe	Fe	0.95778 0.83565 0.94879 1.23300
Fe	Fe	0.44604 0.75601 0.79323 1.27200
P 	P 	0.61640 0.75924 0.84992 0.73900
P 	P 	0.80446 0.95896 0.95819 0.74300
P 	P 	0.84167 0.72765 0.84107 0.65000
P 	P 	0.85258 0.73392 0.06491 0.64700
P 	P 	0.51199 0.90711 0.70504 0.63700
P 	P 	0.62635 0.75142 0.57294 0.75700
B 	B 	0.73960 0.83790 0.88780 2.16000
B 	B 	0.73890 0.83530 0.02270 2.14500
B 	B 	0.59540 0.76610 0.71383 2.43700
O 	O 	0.53318 0.77802 0.85426 -0.39600
O 	O 	0.64140 0.68967 0.89802 -0.39000
O 	O 	0.63683 0.73407 0.77378 -0.78700
O 	O 	0.65994 0.84014 0.86856 -0.74800
O 	O 	0.79651 0.05081 0.95702 -0.37900
O 	O 	0.88510 0.93107 0.96415 -0.42200
O 	O 	0.76561 0.92386 0.89156 -0.76200
O 	O 	0.75686 0.92427 0.02004 -0.74900
O 	O 	0.80252 0.65477 0.87625 -0.35100
O 	O 	0.90785 0.75882 0.88434 -0.47000
O 	O 	0.86847 0.70391 0.76807 -0.34900
O 	O 	0.78279 0.79834 0.83156 -0.74300
O 	O 	0.91838 0.77753 0.03075 -0.42100
O 	O 	0.87464 0.70333 0.13780 -0.34900
O 	O 	0.82411 0.66060 0.02106 -0.34500
O 	O 	0.78675 0.79685 0.07651 -0.73500
O 	O 	0.52566 0.99491 0.72884 -0.17500
O 	O 	0.49789 0.90334 0.62637 -0.42300
O 	O 	0.44783 0.86606 0.74681 -0.37300
O 	O 	0.58525 0.85617 0.72014 -0.81900
O 	O 	0.66904 0.82396 0.54243 -0.41300
O 	O 	0.54305 0.75297 0.55740 -0.43300
O 	O 	0.64042 0.74633 0.65291 -0.82500
O 	O 	0.65991 0.66893 0.54427 -0.73700
O 	O 	0.75146 0.79419 0.95506 -1.34600
O 	O 	0.52215 0.72244 0.71287 -1.70400
H 	H 	0.50200 0.72600 0.68200 0.93500
Fe	Fe	0.23357 0.83504 0.04241 1.28400
Fe	Fe	0.45778 0.66435 0.05121 1.23400
Fe	Fe	0.94604 0.74399 0.20677 1.27200
P 	P 	0.11640 0.74076 0.15008 0.73900
P 	P 	0.30446 0.54104 0.04181 0.74500
P 	P 	0.34167 0.77235 0.15893 0.65000
P 	P 	0.35258 0.76608 0.93509 0.64700
P 	P 	0.01199 0.59289 0.29496 0.63700
P 	P 	0.12635 0.74858 0.42706 0.75700
B 	B 	0.23960 0.66210 0.11220 2.16000
B 	B 	0.23890 0.66470 0.97730 2.14500
B 	B 	0.09540 0.73390 0.28617 2.43700
O 	O 	0.03318 0.72198 0.14574 -0.39600
O 	O 	0.14140 0.81033 0.10198 -0.39000
O 	O 	0.13683 0.76593 0.22622 -0.78700
O 	O 	0.15994 0.65986 0.13144 -0.74800
O 	O 	0.29651 0.44919 0.04298 -0.38100
O 	O 	0.38510 0.56893 0.03585 -0.42100
O 	O 	0.26561 0.57614 0.10844 -0.76100
O 	O 	0.25686 0.57573 0.97996 -0.74900
O 	O 	0.30252 0.84523 0.12375 -0.35100
O 	O 	0.40785 0.74118 0.11566 -0.46900
O 	O 	0.36847 0.79609 0.23193 -0.34900
O 	O 	0.28279 0.70166 0.16844 -0.74200
O 	O 	0.41838 0.72247 0.96925 -0.42200
O 	O 	0.37464 0.79667 0.86220 -0.34900
O 	O 	0.32411 0.83940 0.97894 -0.34500
O 	O 	0.28675 0.70315 0.92349 -0.73500
O 	O 	0.02566 0.50509 0.27116 -0.17400
O 	O 	0.99789 0.59666 0.37363 -0.42200
O 	O 	0.94783 0.63394 0.25319 -0.37300
O 	O 	0.08525 0.64383 0.27986 -0.81900
O 	O 	0.16904 0.67604 0.45757 -0.41300
O 	O 	0.04305 0.74703 0.44260 -0.43200
O 	O 	0.14042 0.75367 0.34709 -0.82500
O 	O 	0.15991 0.83107 0.45573 -0.73700
O 	O 	0.25146 0.70581 0.04494 -1.34500
O 	O 	0.02215 0.77756 0.28713 -1.70400
H 	H 	0.00200 0.77400 0.31800 0.93600
Fe	Fe	0.26643 0.16496 0.54241 1.28400
Fe	Fe	0.04222 0.33565 0.55121 1.23400
Fe	Fe	0.55396 0.25601 0.70677 1.27200
P 	P 	0.38360 0.25924 0.65008 0.73900
P 	P 	0.19554 0.45896 0.54181 0.74500
P 	P 	0.15833 0.22765 0.65893 0.65000
P 	P 	0.14742 0.23392 0.43509 0.64600
P 	P 	0.48801 0.40711 0.79496 0.63700
P 	P 	0.37365 0.25142 0.92706 0.75700
B 	B 	0.26040 0.33790 0.61220 2.16000
B 	B 	0.26110 0.33530 0.47730 2.14300
B 	B 	0.40460 0.26610 0.78617 2.43700
O 	O 	0.46682 0.27802 0.64574 -0.39600
O 	O 	0.35860 0.18967 0.60198 -0.39000
O 	O 	0.36317 0.23407 0.72622 -0.78700
O 	O 	0.34006 0.34014 0.63144 -0.74800
O 	O 	0.20349 0.55081 0.54298 -0.38100
O 	O 	0.11490 0.43107 0.53585 -0.42100
O 	O 	0.23439 0.42386 0.60844 -0.76100
O 	O 	0.24314 0.42427 0.47996 -0.74900
O 	O 	0.19748 0.15477 0.62375 -0.35200
O 	O 	0.09215 0.25882 0.61566 -0.46900
O 	O 	0.13153 0.20391 0.73193 -0.34900
O 	O 	0.21721 0.29834 0.66844 -0.74200
O 	O 	0.08162 0.27753 0.46925 -0.42300
O 	O 	0.12536 0.20333 0.36220 -0.34900
O 	O 	0.17589 0.16060 0.47894 -0.34600
O 	O 	0.21325 0.29685 0.42349 -0.73500
O 	O 	0.47434 0.49491 0.77116 -0.17400
O 	O 	0.50211 0.40334 0.87363 -0.42300
O 	O 	0.55217 0.36606 0.75319 -0.37300
O 	O 	0.41475 0.35617 0.77986 -0.81900
O 	O 	0.33096 0.32396 0.95757 -0.41200
O 	O 	0.45695 0.25297 0.94260 -0.43200
O 	O 	0.35958 0.24633 0.84709 -0.82500
O 	O 	0.34009 0.16893 0.95573 -0.73700
O 	O 	0.24854 0.29419 0.54494 -1.34500
O 	O 	0.47785 0.22244 0.78713 -1.70400
H 	H 	0.49800 0.22600 0.81800 0.93500
