data_crystal

_cell_length_a 15.05780
_cell_length_b 13.19700
_cell_length_c 15.27270
_cell_angle_alpha 90.00000
_cell_angle_beta  112.19700
_cell_angle_gamma 90.00000

_symmetry_space_group_name_	'P 1'
_symmetry_space_group_name_H-M	'P 1'

loop_
_symmetry_equiv_pos_as_xyz
  x,y,z

loop_
_atom_site_label
_atom_site_type_symbol
_atom_site_fract_x
_atom_site_fract_y
_atom_site_fract_z
_atom_site_charge
Ga	Ga	0.56738 0.10568 0.65382 2.06600
Ga	Ga	0.73158 0.87308 0.57730 2.06900
Co	Co	0.63532 0.19004 0.36767 1.22600
P 	P 	0.57160 0.86940 0.65730 0.62200
P 	P 	0.73170 0.11440 0.57590 0.63300
P 	P 	0.63680 0.18690 0.86470 0.68200
O 	O 	0.62700 0.82890 0.60020 -0.66500
O 	O 	0.71560 0.14230 0.95280 -0.69000
O 	O 	0.52950 0.97360 0.62270 -0.72700
O 	O 	0.71260 0.11690 0.47060 -0.48800
O 	O 	0.75720 0.00680 0.61510 -0.66500
O 	O 	0.81780 0.17990 0.62990 -0.44400
O 	O 	0.49050 0.79440 0.64350 -0.45600
O 	O 	0.63490 0.12180 0.78310 -0.67400
O 	O 	0.65980 0.29740 0.85140 -0.63800
O 	O 	0.63790 0.87570 0.76160 -0.50600
O 	O 	0.54060 0.18690 0.87670 -0.68500
O 	O 	0.64370 0.15460 0.59070 -0.66000
Ga	Ga	0.06738 0.60568 0.65382 2.06500
Ga	Ga	0.23158 0.37308 0.57730 2.06800
Co	Co	0.13532 0.69004 0.36767 1.22600
P 	P 	0.07160 0.36940 0.65730 0.62300
P 	P 	0.23170 0.61440 0.57590 0.63300
P 	P 	0.13680 0.68690 0.86470 0.68200
O 	O 	0.12700 0.32890 0.60020 -0.66500
O 	O 	0.21560 0.64230 0.95280 -0.68800
O 	O 	0.02950 0.47360 0.62270 -0.72600
O 	O 	0.21260 0.61690 0.47060 -0.48800
O 	O 	0.25720 0.50680 0.61510 -0.66500
O 	O 	0.31780 0.67990 0.62990 -0.44400
O 	O 	0.99050 0.29440 0.64350 -0.45800
O 	O 	0.13490 0.62180 0.78310 -0.67300
O 	O 	0.15980 0.79740 0.85140 -0.63800
O 	O 	0.13790 0.37570 0.76160 -0.50500
O 	O 	0.04060 0.68690 0.87670 -0.68400
O 	O 	0.14370 0.65460 0.59070 -0.66000
Ga	Ga	0.43262 0.10568 0.84618 2.06500
Ga	Ga	0.26842 0.87308 0.92270 2.06800
Co	Co	0.36468 0.19004 0.13233 1.22600
P 	P 	0.42840 0.86940 0.84270 0.62200
P 	P 	0.26830 0.11440 0.92410 0.63500
P 	P 	0.36320 0.18690 0.63530 0.68200
O 	O 	0.37300 0.82890 0.89980 -0.66500
O 	O 	0.28440 0.14230 0.54720 -0.68900
O 	O 	0.47050 0.97360 0.87730 -0.72700
O 	O 	0.28740 0.11690 0.02940 -0.49000
O 	O 	0.24280 0.00680 0.88490 -0.66500
O 	O 	0.18220 0.17990 0.87010 -0.44300
O 	O 	0.50950 0.79440 0.85650 -0.45600
O 	O 	0.36510 0.12180 0.71690 -0.67400
O 	O 	0.34020 0.29740 0.64860 -0.63800
O 	O 	0.36210 0.87570 0.73840 -0.50600
O 	O 	0.45940 0.18690 0.62330 -0.68500
O 	O 	0.35630 0.15460 0.90930 -0.66000
Ga	Ga	0.93262 0.60568 0.84618 2.06500
Ga	Ga	0.76842 0.37308 0.92270 2.06800
Co	Co	0.86468 0.69004 0.13233 1.22700
P 	P 	0.92840 0.36940 0.84270 0.62000
P 	P 	0.76830 0.61440 0.92410 0.63100
P 	P 	0.86320 0.68690 0.63530 0.68200
O 	O 	0.87300 0.32890 0.89980 -0.66600
O 	O 	0.78440 0.64230 0.54720 -0.68900
O 	O 	0.97050 0.47360 0.87730 -0.72700
O 	O 	0.78740 0.61690 0.02940 -0.48600
O 	O 	0.74280 0.50680 0.88490 -0.66500
O 	O 	0.68220 0.67990 0.87010 -0.44400
O 	O 	0.00950 0.29440 0.85650 -0.45400
O 	O 	0.86510 0.62180 0.71690 -0.67400
O 	O 	0.84020 0.79740 0.64860 -0.63800
O 	O 	0.86210 0.37570 0.73840 -0.50500
O 	O 	0.95940 0.68690 0.62330 -0.68600
O 	O 	0.85630 0.65460 0.90930 -0.66100
Ga	Ga	0.43262 0.89432 0.34618 2.06500
Ga	Ga	0.26842 0.12692 0.42270 2.06800
Co	Co	0.36468 0.80996 0.63233 1.22600
P 	P 	0.42840 0.13060 0.34270 0.62200
P 	P 	0.26830 0.88560 0.42410 0.63300
P 	P 	0.36320 0.81310 0.13530 0.68200
O 	O 	0.37300 0.17110 0.39980 -0.66500
O 	O 	0.28440 0.85770 0.04720 -0.69000
O 	O 	0.47050 0.02640 0.37730 -0.72700
O 	O 	0.28740 0.88310 0.52940 -0.48800
O 	O 	0.24280 0.99320 0.38490 -0.66500
O 	O 	0.18220 0.82010 0.37010 -0.44400
O 	O 	0.50950 0.20560 0.35650 -0.45600
O 	O 	0.36510 0.87820 0.21690 -0.67400
O 	O 	0.34020 0.70260 0.14860 -0.63800
O 	O 	0.36210 0.12430 0.23840 -0.50600
O 	O 	0.45940 0.81310 0.12330 -0.68500
O 	O 	0.35630 0.84540 0.40930 -0.66000
Ga	Ga	0.93262 0.39432 0.34618 2.06500
Ga	Ga	0.76842 0.62692 0.42270 2.06800
Co	Co	0.86468 0.30996 0.63233 1.22600
P 	P 	0.92840 0.63060 0.34270 0.62300
P 	P 	0.76830 0.38560 0.42410 0.63300
P 	P 	0.86320 0.31310 0.13530 0.68200
O 	O 	0.87300 0.67110 0.39980 -0.66500
O 	O 	0.78440 0.35770 0.04720 -0.68800
O 	O 	0.97050 0.52640 0.37730 -0.72600
O 	O 	0.78740 0.38310 0.52940 -0.48800
O 	O 	0.74280 0.49320 0.38490 -0.66500
O 	O 	0.68220 0.32010 0.37010 -0.44400
O 	O 	0.00950 0.70560 0.35650 -0.45800
O 	O 	0.86510 0.37820 0.21690 -0.67300
O 	O 	0.84020 0.20260 0.14860 -0.63800
O 	O 	0.86210 0.62430 0.23840 -0.50500
O 	O 	0.95940 0.31310 0.12330 -0.68400
O 	O 	0.85630 0.34540 0.40930 -0.66000
Ga	Ga	0.56738 0.89432 0.15382 2.06500
Ga	Ga	0.73158 0.12692 0.07730 2.06800
Co	Co	0.63532 0.80996 0.86767 1.22600
P 	P 	0.57160 0.13060 0.15730 0.62200
P 	P 	0.73170 0.88560 0.07590 0.63500
P 	P 	0.63680 0.81310 0.36470 0.68200
O 	O 	0.62700 0.17110 0.10020 -0.66500
O 	O 	0.71560 0.85770 0.45280 -0.68900
O 	O 	0.52950 0.02640 0.12270 -0.72700
O 	O 	0.71260 0.88310 0.97060 -0.49000
O 	O 	0.75720 0.99320 0.11510 -0.66500
O 	O 	0.81780 0.82010 0.12990 -0.44300
O 	O 	0.49050 0.20560 0.14350 -0.45600
O 	O 	0.63490 0.87820 0.28310 -0.67400
O 	O 	0.65980 0.70260 0.35140 -0.63800
O 	O 	0.63790 0.12430 0.26160 -0.50600
O 	O 	0.54060 0.81310 0.37670 -0.68500
O 	O 	0.64370 0.84540 0.09070 -0.66000
Ga	Ga	0.06738 0.39432 0.15382 2.06500
Ga	Ga	0.23158 0.62692 0.07730 2.06800
Co	Co	0.13532 0.30996 0.86767 1.22700
P 	P 	0.07160 0.63060 0.15730 0.62000
P 	P 	0.23170 0.38560 0.07590 0.63100
P 	P 	0.13680 0.31310 0.36470 0.68200
O 	O 	0.12700 0.67110 0.10020 -0.66600
O 	O 	0.21560 0.35770 0.45280 -0.68900
O 	O 	0.02950 0.52640 0.12270 -0.72700
O 	O 	0.21260 0.38310 0.97060 -0.48600
O 	O 	0.25720 0.49320 0.11510 -0.66500
O 	O 	0.31780 0.32010 0.12990 -0.44400
O 	O 	0.99050 0.70560 0.14350 -0.45400
O 	O 	0.13490 0.37820 0.28310 -0.67400
O 	O 	0.15980 0.20260 0.35140 -0.63800
O 	O 	0.13790 0.62430 0.26160 -0.50500
O 	O 	0.04060 0.31310 0.37670 -0.68600
O 	O 	0.14370 0.34540 0.09070 -0.66100
