data_crystal

_cell_length_a 13.20200
_cell_length_b 27.47500
_cell_length_c 7.64100
_cell_angle_alpha 90.00000
_cell_angle_beta  123.25400
_cell_angle_gamma 90.00000

_symmetry_space_group_name_	'P 1'
_symmetry_space_group_name_H-M	'P 1'

loop_
_symmetry_equiv_pos_as_xyz
  x,y,z

loop_
_atom_site_label
_atom_site_type_symbol
_atom_site_fract_x
_atom_site_fract_y
_atom_site_fract_z
_atom_site_charge
C 	C 	0.92500 0.28360 0.49740 -0.12400
H 	H 	0.94710 0.31210 0.46090 0.08000
C 	C 	0.86900 0.24640 0.35430 0.05800
H 	H 	0.84830 0.25060 0.21770 0.02800
C 	C 	0.84330 0.20260 0.41320 -0.12900
C 	C 	0.87000 0.19750 0.61510 0.05200
H 	H 	0.85000 0.16880 0.65390 0.01600
C 	C 	0.92730 0.23550 0.76130 -0.12700
H 	H 	0.95030 0.23130 0.89920 0.07000
C 	C 	0.94820 0.27800 0.69810 0.06400
C 	C 	0.99950 0.32150 0.84530 0.03200
C 	C 	0.04450 0.32570 0.04910 0.00600
H 	H 	0.05400 0.29990 0.13570 0.02500
C 	C 	0.04580 0.39620 0.95230 0.09600
H 	H 	0.05580 0.42970 0.95070 -0.01700
C 	C 	0.77880 0.16050 0.26520 0.38400
C 	C 	0.60870 0.56310 0.67520 -0.09600
H 	H 	0.55160 0.58740 0.64020 0.06400
C 	C 	0.72850 0.57500 0.75380 0.01700
H 	H 	0.75300 0.60730 0.78400 0.03200
C 	C 	0.81540 0.53810 0.78930 -0.09900
C 	C 	0.77890 0.49090 0.75630 0.03600
H 	H 	0.83510 0.46630 0.78990 0.03100
C 	C 	0.66130 0.47950 0.67480 -0.10100
H 	H 	0.63720 0.44740 0.63380 0.06600
C 	C 	0.57430 0.51260 0.64870 0.03200
C 	C 	0.45120 0.49860 0.56260 0.04700
C 	C 	0.40370 0.45340 0.56670 -0.01000
H 	H 	0.44760 0.42460 0.61870 0.01800
C 	C 	0.25490 0.50630 0.42980 0.09800
H 	H 	0.17760 0.51950 0.36660 -0.00600
C 	C 	0.94490 0.55230 0.86110 0.34700
Cd	Cd	0.15111 0.40207 0.43916 1.21700
N 	N 	0.07460 0.37270 0.11410 -0.23100
N 	N 	0.99960 0.36830 0.78380 -0.20600
H 	H 	0.97440 0.37780 0.65900 0.15100
N 	N 	0.28340 0.45840 0.48240 -0.23700
N 	N 	0.35560 0.53140 0.48360 -0.21200
H 	H 	0.36010 0.56230 0.47130 0.14500
O 	O 	0.73200 0.17220 0.06760 -0.39100
O 	O 	0.77360 0.12190 0.30850 -0.42600
O 	O 	0.01090 0.52370 0.85000 -0.39000
O 	O 	0.97330 0.59620 0.92210 -0.42100
C 	C 	0.42500 0.78360 0.49740 -0.13200
H 	H 	0.44710 0.81210 0.46090 0.08100
C 	C 	0.36900 0.74640 0.35430 0.06200
H 	H 	0.34830 0.75060 0.21770 0.02500
C 	C 	0.34330 0.70260 0.41320 -0.13500
C 	C 	0.37000 0.69750 0.61510 0.05500
H 	H 	0.35000 0.66880 0.65390 0.01300
C 	C 	0.42730 0.73550 0.76130 -0.13600
H 	H 	0.45030 0.73130 0.89920 0.06900
C 	C 	0.44820 0.77800 0.69810 0.07100
C 	C 	0.49950 0.82150 0.84530 0.00700
C 	C 	0.54450 0.82570 0.04910 0.03400
H 	H 	0.55400 0.79990 0.13570 0.02000
C 	C 	0.54580 0.89620 0.95230 0.11600
H 	H 	0.55580 0.92970 0.95070 -0.02000
C 	C 	0.27880 0.66050 0.26520 0.38400
C 	C 	0.10870 0.06310 0.67520 -0.07500
H 	H 	0.05160 0.08740 0.64020 0.05000
C 	C 	0.22850 0.07500 0.75380 -0.00200
H 	H 	0.25300 0.10730 0.78400 0.03700
C 	C 	0.31540 0.03810 0.78930 -0.08300
C 	C 	0.27890 0.99090 0.75630 0.01300
H 	H 	0.33510 0.96630 0.78990 0.03400
C 	C 	0.16130 0.97950 0.67480 -0.07500
H 	H 	0.13720 0.94740 0.63380 0.05200
C 	C 	0.07430 0.01260 0.64870 -0.00500
C 	C 	0.95120 0.99860 0.56260 0.07600
C 	C 	0.90370 0.95340 0.56670 -0.02100
H 	H 	0.94760 0.92460 0.61870 0.02700
C 	C 	0.75490 0.00630 0.42980 0.09800
H 	H 	0.67760 0.01950 0.36660 -0.00500
C 	C 	0.44490 0.05230 0.86110 0.31900
Cd	Cd	0.65111 0.90207 0.43916 1.21900
N 	N 	0.57460 0.87270 0.11410 -0.23700
N 	N 	0.49960 0.86830 0.78380 -0.21300
H 	H 	0.47440 0.87780 0.65900 0.15000
N 	N 	0.78340 0.95840 0.48240 -0.23500
N 	N 	0.85560 0.03140 0.48360 -0.21700
H 	H 	0.86010 0.06230 0.47130 0.14900
O 	O 	0.23200 0.67220 0.06760 -0.39400
O 	O 	0.27360 0.62190 0.30850 -0.42900
O 	O 	0.51090 0.02370 0.85000 -0.37000
O 	O 	0.47330 0.09620 0.92210 -0.42200
C 	C 	0.92500 0.71640 0.99740 -0.20900
H 	H 	0.94710 0.68790 0.96090 0.10200
C 	C 	0.86900 0.75360 0.85430 0.12300
H 	H 	0.84830 0.74940 0.71770 0.00100
C 	C 	0.84330 0.79740 0.91320 -0.20400
C 	C 	0.87000 0.80250 0.11510 0.13800
H 	H 	0.85000 0.83120 0.15390 -0.00300
C 	C 	0.92730 0.76450 0.26130 -0.18700
H 	H 	0.95030 0.76870 0.39920 0.09900
C 	C 	0.94820 0.72200 0.19810 0.12800
C 	C 	0.99950 0.67850 0.34530 0.04900
C 	C 	0.04450 0.67430 0.54910 -0.02800
H 	H 	0.05400 0.70010 0.63570 0.02500
C 	C 	0.04580 0.60380 0.45230 0.13500
H 	H 	0.05580 0.57030 0.45070 -0.02400
C 	C 	0.77880 0.83950 0.76520 0.40900
C 	C 	0.60870 0.43690 0.17520 -0.08800
H 	H 	0.55160 0.41260 0.14020 0.07100
C 	C 	0.72850 0.42500 0.25380 0.01900
H 	H 	0.75300 0.39270 0.28400 0.03800
C 	C 	0.81540 0.46190 0.28930 -0.08900
C 	C 	0.77890 0.50910 0.25630 0.03700
H 	H 	0.83510 0.53370 0.28990 0.03700
C 	C 	0.66130 0.52050 0.17480 -0.09300
H 	H 	0.63720 0.55260 0.13380 0.07000
C 	C 	0.57430 0.48740 0.14870 0.03400
C 	C 	0.45120 0.50140 0.06260 0.06400
C 	C 	0.40370 0.54660 0.06670 0.01300
H 	H 	0.44760 0.57540 0.11870 0.01800
C 	C 	0.25490 0.49370 0.92980 0.09100
H 	H 	0.17760 0.48050 0.86660 -0.00900
C 	C 	0.94490 0.44770 0.36110 0.34600
Cd	Cd	0.15111 0.59793 0.93916 1.20900
N 	N 	0.07460 0.62730 0.61410 -0.24800
N 	N 	0.99960 0.63170 0.28380 -0.21400
H 	H 	0.97440 0.62220 0.15900 0.16300
N 	N 	0.28340 0.54160 0.98240 -0.25500
N 	N 	0.35560 0.46860 0.98360 -0.22400
H 	H 	0.36010 0.43770 0.97130 0.14100
O 	O 	0.73200 0.82780 0.56760 -0.40900
O 	O 	0.77360 0.87810 0.80850 -0.44500
O 	O 	0.01090 0.47630 0.35000 -0.37900
O 	O 	0.97330 0.40380 0.42210 -0.40800
C 	C 	0.42500 0.21640 0.99740 -0.22300
H 	H 	0.44710 0.18790 0.96090 0.10300
C 	C 	0.36900 0.25360 0.85430 0.13000
H 	H 	0.34830 0.24940 0.71770 -0.00400
C 	C 	0.34330 0.29740 0.91320 -0.21500
C 	C 	0.37000 0.30250 0.11510 0.14700
H 	H 	0.35000 0.33120 0.15390 -0.00800
C 	C 	0.42730 0.26450 0.26130 -0.20000
H 	H 	0.45030 0.26870 0.39920 0.10000
C 	C 	0.44820 0.22200 0.19810 0.14000
C 	C 	0.49950 0.17850 0.34530 0.02300
C 	C 	0.54450 0.17430 0.54910 0.00200
H 	H 	0.55400 0.20010 0.63570 0.02100
C 	C 	0.54580 0.10380 0.45230 0.15300
H 	H 	0.55580 0.07030 0.45070 -0.02700
C 	C 	0.27880 0.33950 0.76520 0.41100
C 	C 	0.10870 0.93690 0.17520 -0.07000
H 	H 	0.05160 0.91260 0.14020 0.05800
C 	C 	0.22850 0.92500 0.25380 0.00100
H 	H 	0.25300 0.89270 0.28400 0.04200
C 	C 	0.31540 0.96190 0.28930 -0.07400
C 	C 	0.27890 0.00910 0.25630 0.01600
H 	H 	0.33510 0.03370 0.28990 0.04000
C 	C 	0.16130 0.02050 0.17480 -0.07200
H 	H 	0.13720 0.05260 0.13380 0.05900
C 	C 	0.07430 0.98740 0.14870 0.00400
C 	C 	0.95120 0.00140 0.06260 0.08700
C 	C 	0.90370 0.04660 0.06670 0.00300
H 	H 	0.94760 0.07540 0.11870 0.02600
C 	C 	0.75490 0.99370 0.92980 0.09200
H 	H 	0.67760 0.98050 0.86660 -0.00900
C 	C 	0.44490 0.94770 0.36110 0.32000
Cd	Cd	0.65111 0.09793 0.93916 1.21200
N 	N 	0.57460 0.12730 0.61410 -0.25300
N 	N 	0.49960 0.13170 0.28380 -0.22000
H 	H 	0.47440 0.12220 0.15900 0.16200
N 	N 	0.78340 0.04160 0.98240 -0.25200
N 	N 	0.85560 0.96860 0.98360 -0.22700
H 	H 	0.86010 0.93770 0.97130 0.14500
O 	O 	0.23200 0.32780 0.56760 -0.41300
O 	O 	0.27360 0.37810 0.80850 -0.44900
O 	O 	0.51090 0.97630 0.35000 -0.36000
O 	O 	0.47330 0.90380 0.42210 -0.40900
