data_crystal

_cell_length_a 10.76430
_cell_length_b 11.19030
_cell_length_c 11.88050
_cell_angle_alpha 101.00600
_cell_angle_beta  110.54900
_cell_angle_gamma 99.77900

_symmetry_space_group_name_	'P 1'
_symmetry_space_group_name_H-M	'P 1'

loop_
_symmetry_equiv_pos_as_xyz
  x,y,z

loop_
_atom_site_label
_atom_site_type_symbol
_atom_site_fract_x
_atom_site_fract_y
_atom_site_fract_z
_atom_site_charge
Cu	Cu	0.43782 0.61423 0.78952 0.90900
Cu	Cu	0.56218 0.38577 0.21048 0.90400
Cu	Cu	0.35596 0.48930 0.98801 0.95800
Cu	Cu	0.64404 0.51070 0.01199 0.91300
Cu	Cu	0.50000 0.00000 -0.00000 0.82500
H 	H 	0.75060 0.10380 0.39610 0.00500
H 	H 	0.16730 0.25940 0.49390 0.11000
H 	H 	0.77060 0.82070 0.74030 0.10900
H 	H 	0.83270 0.74060 0.50610 0.11700
H 	H 	0.24940 0.89620 0.60390 -0.00100
H 	H 	0.97480 0.58870 0.90040 0.09200
H 	H 	0.89100 0.11640 0.59720 0.14500
H 	H 	0.85200 0.17320 0.25050 0.10400
H 	H 	0.02520 0.41130 0.09960 0.06400
H 	H 	0.10900 0.88360 0.40280 0.12400
H 	H 	0.14800 0.82680 0.74950 0.11400
H 	H 	0.22940 0.17930 0.25970 0.09000
C 	C 	0.92470 0.20600 0.23080 -0.15800
C 	C 	0.02970 0.34960 0.14230 -0.01800
C 	C 	0.79830 0.35710 0.14300 0.35000
C 	C 	0.70480 0.91490 0.32680 -0.10100
C 	C 	0.73370 0.64160 0.85110 0.34700
C 	C 	0.23340 0.96950 0.58240 0.14400
C 	C 	0.85060 0.03860 0.53800 -0.28400
C 	C 	0.87420 0.92900 0.56990 0.30600
C 	C 	0.14590 0.30510 0.17720 -0.03900
C 	C 	0.15170 0.20980 0.23630 -0.14300
C 	C 	0.73250 0.80590 0.36050 0.05600
C 	C 	0.03940 0.16110 0.25980 0.20000
C 	C 	0.97030 0.65040 0.85770 -0.05400
C 	C 	0.91910 0.30260 0.17070 -0.04800
C 	C 	0.14940 0.96140 0.46200 -0.18600
C 	C 	0.26750 0.19410 0.63950 0.05100
C 	C 	0.96060 0.83890 0.74020 0.20500
C 	C 	0.20170 0.64290 0.85700 0.34200
C 	C 	0.07530 0.79400 0.76920 -0.14300
C 	C 	0.84830 0.79020 0.76370 -0.14800
C 	C 	0.31620 0.32370 0.73190 0.29800
C 	C 	0.85410 0.69490 0.82280 -0.00400
C 	C 	0.29520 0.08510 0.67320 -0.14800
C 	C 	0.76660 0.03050 0.41760 0.08800
C 	C 	0.81630 0.81330 0.48320 -0.22100
C 	C 	0.12580 0.07100 0.43010 0.21400
C 	C 	0.68380 0.67630 0.26810 0.29600
C 	C 	0.18370 0.18670 0.51680 -0.19200
C 	C 	0.60990 0.91070 0.19820 0.37900
C 	C 	0.08090 0.69740 0.82930 -0.00300
C 	C 	0.26630 0.35840 0.14890 0.35800
C 	C 	0.39010 0.08930 0.80180 0.29500
O 	O 	0.60340 0.59160 0.28360 -0.36900
O 	O 	0.49880 0.59970 0.95790 -0.47600
O 	O 	0.72950 0.34330 0.20780 -0.43300
O 	O 	0.75440 0.57670 0.92740 -0.35700
O 	O 	0.96230 0.94450 0.69150 -0.26800
O 	O 	0.38370 0.98480 0.82970 -0.36500
O 	O 	0.37630 0.33260 0.20470 -0.43200
O 	O 	0.22280 0.58710 0.94140 -0.35700
O 	O 	0.52680 0.80970 0.12530 -0.33100
O 	O 	0.27050 0.65670 0.79220 -0.41900
O 	O 	0.61630 0.01520 0.17030 -0.47100
O 	O 	0.24560 0.42330 0.07260 -0.41300
O 	O 	0.26260 0.33860 0.81000 -0.32100
O 	O 	0.39660 0.40840 0.71640 -0.36400
O 	O 	0.77720 0.41290 0.05860 -0.40400
O 	O 	0.47320 0.19030 0.87470 -0.27600
O 	O 	0.03770 0.05550 0.30850 -0.27700
O 	O 	0.73740 0.66140 0.19000 -0.34100
O 	O 	0.50120 0.40030 0.04210 -0.53500
O 	O 	0.62370 0.66740 0.79530 -0.41200
