data_crystal

_cell_length_a 21.11000
_cell_length_b 21.11000
_cell_length_c 29.85500
_cell_angle_alpha 69.29590
_cell_angle_beta  69.29590
_cell_angle_gamma 90.00000

_symmetry_space_group_name_	'P 1'
_symmetry_space_group_name_H-M	'P 1'

loop_
_symmetry_equiv_pos_as_xyz
  x,y,z

loop_
_atom_site_label
_atom_site_type_symbol
_atom_site_fract_x
_atom_site_fract_y
_atom_site_fract_z
_atom_site_charge
Co	Co	0.06042 0.42168 0.23272 1.14300
Co	Co	0.93958 0.57832 0.76728 1.14300
Co	Co	0.79314 0.65440 0.76728 1.14300
Co	Co	0.65440 0.93958 0.26728 1.14300
Co	Co	0.57832 0.79314 0.26728 1.14300
Co	Co	0.20686 0.34560 0.23272 1.14300
Co	Co	0.34559 0.06042 0.73273 1.14300
Co	Co	0.42168 0.20686 0.73272 1.14300
H 	H 	0.50110 0.31420 0.74960 -0.02900
H 	H 	0.74770 0.33690 0.99160 0.07400
H 	H 	0.12850 0.43670 0.79080 0.08700
H 	H 	0.07460 0.40940 0.95600 0.06600
H 	H 	0.22690 0.29490 0.94720 0.06100
H 	H 	0.99600 0.54610 0.07900 0.07600
H 	H 	0.70510 0.67410 0.55280 0.06100
H 	H 	0.36540 0.92540 0.54400 0.06600
H 	H 	0.67420 0.81780 0.41280 0.01500
H 	H 	0.24210 0.77310 0.55280 0.06100
H 	H 	0.20710 0.28160 0.34500 -0.04100
H 	H 	0.29500 0.45210 0.23820 -0.00600
H 	H 	0.25330 0.30140 0.39780 0.09200
H 	H 	0.66160 0.51970 0.71000 0.09700
H 	H 	0.35530 0.34360 0.61980 0.01600
H 	H 	0.40940 0.46940 0.45600 0.06600
H 	H 	0.39680 0.95540 0.45820 0.07300
H 	H 	0.46940 0.63460 0.95600 0.06600
H 	H 	0.12840 0.77030 0.71000 0.09700
H 	H 	0.58070 0.77250 0.79080 0.08700
H 	H 	0.22970 0.33840 0.79000 0.09700
H 	H 	0.94270 0.51580 0.87600 0.00200
H 	H 	0.75070 0.06380 0.25040 -0.02900
H 	H 	0.41300 0.76940 0.41280 0.01500
H 	H 	0.32850 0.25230 0.50840 0.07400
H 	H 	0.49890 0.68580 0.25040 -0.02900
H 	H 	0.34360 0.52490 0.11980 0.01700
H 	H 	0.64500 0.58640 0.45820 0.07300
H 	H 	0.69920 0.74670 0.10220 0.09200
H 	H 	0.77250 0.12850 0.29080 0.08700
H 	H 	0.58640 0.39680 0.95820 0.07300
H 	H 	0.79290 0.71840 0.65500 -0.04100
H 	H 	0.62660 0.79290 0.15500 -0.04100
H 	H 	0.06380 0.49890 0.75040 -0.02900
H 	H 	0.75790 0.22690 0.44720 0.06100
H 	H 	0.41360 0.60320 0.04180 0.07300
H 	H 	0.05730 0.48420 0.12400 0.00200
H 	H 	0.67150 0.74770 0.49160 0.07400
H 	H 	0.42500 0.37490 0.07900 0.07600
H 	H 	0.33840 0.48030 0.29000 0.09700
H 	H 	0.03660 0.35530 0.11980 0.01600
H 	H 	0.33690 0.76070 0.49160 0.07400
H 	H 	0.52490 0.03660 0.61980 0.01600
H 	H 	0.95540 0.64500 0.95820 0.07300
H 	H 	0.67410 0.24210 0.05280 0.06200
H 	H 	0.57500 0.62510 0.92100 0.07600
H 	H 	0.65640 0.47510 0.88020 0.01700
H 	H 	0.15110 0.69920 0.60220 0.09200
H 	H 	0.03320 0.69030 0.76180 -0.00600
H 	H 	0.37490 0.99600 0.57900 0.07600
H 	H 	0.31870 0.39180 0.12400 0.00200
H 	H 	0.66310 0.23930 0.50840 0.07400
H 	H 	0.32580 0.18220 0.58720 0.01500
H 	H 	0.51970 0.12840 0.21000 0.09700
H 	H 	0.77310 0.70510 0.05280 0.06100
H 	H 	0.70500 0.54790 0.76180 -0.00600
H 	H 	0.53060 0.36540 0.04400 0.06600
H 	H 	0.60320 0.04460 0.54180 0.07300
H 	H 	0.00400 0.45390 0.92100 0.07600
H 	H 	0.76940 0.67420 0.91280 0.01500
H 	H 	0.43670 0.58070 0.29080 0.08700
H 	H 	0.23060 0.32580 0.08720 0.01500
H 	H 	0.84890 0.30080 0.39780 0.09200
H 	H 	0.37340 0.20710 0.84500 -0.04100
H 	H 	0.63460 0.07460 0.45600 0.06600
H 	H 	0.69030 0.70500 0.26180 -0.00600
H 	H 	0.54610 0.42500 0.57900 0.07600
H 	H 	0.22750 0.87150 0.70920 0.08700
H 	H 	0.62510 0.00400 0.42100 0.07600
H 	H 	0.31420 0.24930 0.24960 -0.02900
H 	H 	0.96340 0.64470 0.88020 0.01600
H 	H 	0.68130 0.60820 0.87600 0.00200
H 	H 	0.35500 0.41360 0.54180 0.07300
H 	H 	0.54790 0.03320 0.26180 -0.00600
H 	H 	0.05210 0.62660 0.65500 -0.04100
H 	H 	0.64470 0.65640 0.38020 0.01600
H 	H 	0.30140 0.84890 0.89780 0.09300
H 	H 	0.23930 0.32850 0.00840 0.07400
H 	H 	0.74670 0.69860 0.60220 0.09200
H 	H 	0.28160 0.94790 0.84500 -0.04100
H 	H 	0.77030 0.66160 0.21000 0.09700
H 	H 	0.30970 0.29500 0.73820 -0.00600
H 	H 	0.45390 0.57500 0.42100 0.07600
H 	H 	0.45210 0.96680 0.73820 -0.00600
H 	H 	0.04460 0.35500 0.04180 0.07300
H 	H 	0.96680 0.30970 0.23820 -0.00600
H 	H 	0.59060 0.53060 0.54400 0.06600
H 	H 	0.69860 0.15110 0.10220 0.09300
H 	H 	0.47510 0.96340 0.38020 0.01600
H 	H 	0.32590 0.75790 0.94720 0.06200
H 	H 	0.18220 0.58700 0.08720 0.01500
H 	H 	0.93620 0.50110 0.24960 -0.02900
H 	H 	0.41930 0.22750 0.20920 0.08700
H 	H 	0.92540 0.59060 0.04400 0.06600
H 	H 	0.56330 0.41930 0.70920 0.08700
H 	H 	0.58700 0.23060 0.58720 0.01500
H 	H 	0.48030 0.87160 0.79000 0.09700
H 	H 	0.24930 0.93620 0.74960 -0.02900
H 	H 	0.48420 0.31870 0.62400 0.00200
H 	H 	0.81780 0.41300 0.91280 0.01500
H 	H 	0.87150 0.56330 0.20920 0.08700
H 	H 	0.71840 0.05210 0.15500 -0.04100
H 	H 	0.30080 0.25330 0.89780 0.09200
H 	H 	0.68580 0.75070 0.75040 -0.02900
H 	H 	0.51580 0.68130 0.37600 0.00200
H 	H 	0.25230 0.66310 0.00840 0.07400
H 	H 	0.60820 0.94270 0.37600 0.00200
H 	H 	0.76070 0.67150 0.99160 0.07400
H 	H 	0.94790 0.37340 0.34500 -0.04100
H 	H 	0.29490 0.32590 0.44720 0.06100
H 	H 	0.39180 0.05730 0.62400 0.00200
H 	H 	0.87160 0.22970 0.29000 0.09700
C 	C 	0.72845 0.36505 0.96950 -0.13500
C 	C 	0.56172 0.11432 0.19716 -0.17500
C 	C 	0.34458 0.34148 0.51464 0.06000
C 	C 	0.87017 0.65367 0.83806 0.40300
C 	C 	0.41292 0.78772 0.88496 0.04600
C 	C 	0.86596 0.65776 0.88848 -0.14900
C 	C 	0.85612 0.65542 0.98536 0.06000
C 	C 	0.80233 0.67963 0.06674 -0.10600
C 	C 	0.36661 0.59921 0.05018 -0.13300
C 	C 	0.50827 0.87017 0.33806 0.40300
C 	C 	0.89228 0.61148 0.06164 -0.11400
C 	C 	0.31148 0.43828 0.30284 -0.17500
C 	C 	0.78772 0.20212 0.38496 0.04600
C 	C 	0.59672 0.65222 0.88596 -0.14400
C 	C 	0.33319 0.22929 0.57782 0.07200
C 	C 	0.73876 0.09056 0.30948 -0.14800
C 	C 	0.68852 0.56172 0.69716 -0.17500
C 	C 	0.34778 0.98268 0.61404 -0.14400
C 	C 	0.32465 0.55245 0.09730 0.06600
C 	C 	0.20212 0.32732 0.88496 0.04600
C 	C 	0.34224 0.25444 0.61152 -0.14900
C 	C 	0.66487 0.12717 0.13446 -0.19500
C 	C 	0.70156 0.60556 0.64848 0.10800
C 	C 	0.36907 0.74637 0.93326 -0.10700
C 	C 	0.27155 0.63495 0.03050 -0.13500
C 	C 	0.60556 0.14996 0.14848 0.10800
C 	C 	0.32732 0.41292 0.38496 0.04600
C 	C 	0.26163 0.33513 0.36554 -0.19500
C 	C 	0.66545 0.72845 0.46950 -0.13500
C 	C 	0.77071 0.41101 0.92218 0.07200
C 	C 	0.10772 0.38852 0.93836 -0.11400
C 	C 	0.34148 0.64078 0.01464 0.06000
C 	C 	0.32037 0.36907 0.43326 -0.10600
C 	C 	0.21228 0.79788 0.61504 0.04600
C 	C 	0.28362 0.88462 0.61076 0.06200
C 	C 	0.98268 0.53818 0.11404 -0.14400
C 	C 	0.66079 0.64189 0.85842 0.08700
C 	C 	0.80205 0.66545 0.96950 -0.13500
C 	C 	0.43553 0.56443 0.36214 0.06900
C 	C 	0.54824 0.40004 0.69052 -0.14800
C 	C 	0.85004 0.25404 0.35152 0.10800
C 	C 	0.72473 0.05123 0.28554 0.09100
C 	C 	0.74112 0.68852 0.19716 -0.17500
C 	C 	0.01732 0.46182 0.88596 -0.14400
C 	C 	0.71638 0.11538 0.38924 0.06200
C 	C 	0.45176 0.59996 0.30948 -0.14800
C 	C 	0.50462 0.28362 0.11076 0.06200
C 	C 	0.33513 0.87283 0.86554 -0.19500
C 	C 	0.38783 0.68733 0.96194 0.03700
C 	C 	0.27527 0.94877 0.71446 0.09100
C 	C 	0.65542 0.65852 0.48536 0.06000
C 	C 	0.64927 0.61217 0.53806 0.03700
C 	C 	0.56443 0.70233 0.86214 0.06900
C 	C 	0.71528 0.57938 0.72824 0.10400
C 	C 	0.53818 0.40328 0.61404 -0.14400
C 	C 	0.22929 0.58899 0.07782 0.07200
C 	C 	0.98079 0.49969 0.85842 0.08700
C 	C 	0.65367 0.79177 0.33806 0.40300
C 	C 	0.61217 0.31267 0.03806 0.03700
C 	C 	0.33921 0.35811 0.14158 0.08700
C 	C 	0.84977 0.64927 0.03806 0.03700
C 	C 	0.65852 0.35922 0.98536 0.06000
C 	C 	0.35073 0.38783 0.46194 0.03700
C 	C 	0.12717 0.70067 0.63446 -0.19500
C 	C 	0.50031 0.33921 0.64158 0.08700
C 	C 	0.23532 0.32292 0.33236 0.12900
C 	C 	0.49538 0.71638 0.88924 0.06200
C 	C 	0.11432 0.74112 0.69716 -0.17500
C 	C 	0.67535 0.44755 0.90270 0.06600
C 	C 	0.19795 0.33455 0.03050 -0.13500
C 	C 	0.73837 0.66487 0.63446 -0.19500
C 	C 	0.64975 0.67535 0.40270 0.06700
C 	C 	0.91679 0.64939 0.94982 -0.13300
C 	C 	0.25404 0.29844 0.85152 0.10800
C 	C 	0.40004 0.26124 0.19052 -0.14800
C 	C 	0.35922 0.85612 0.48536 0.06000
C 	C 	0.74637 0.19767 0.43326 -0.10600
C 	C 	0.67268 0.58708 0.61504 0.04600
C 	C 	0.65528 0.76468 0.16764 0.12900
C 	C 	0.48973 0.66323 0.28554 0.09100
C 	C 	0.92657 0.56447 0.13786 0.06900
C 	C 	0.39444 0.85004 0.85152 0.10800
C 	C 	0.30762 0.28472 0.77176 0.10400
C 	C 	0.32292 0.93232 0.83236 0.12900
C 	C 	0.25444 0.54624 0.11152 -0.14900
C 	C 	0.59996 0.73876 0.80948 -0.14800
C 	C 	0.56447 0.43557 0.63786 0.06900
C 	C 	0.31267 0.84977 0.53806 0.03700
C 	C 	0.67312 0.10772 0.43836 -0.11300
C 	C 	0.55245 0.07805 0.59730 0.06700
C 	C 	0.93232 0.34472 0.33236 0.12900
C 	C 	0.94877 0.51027 0.21446 0.09100
C 	C 	0.49969 0.66079 0.35842 0.08700
C 	C 	0.05123 0.48973 0.78554 0.09100
C 	C 	0.36505 0.80205 0.46950 -0.13500
C 	C 	0.25363 0.80233 0.56674 -0.10600
C 	C 	0.79177 0.50827 0.83806 0.40300
C 	C 	0.67963 0.63093 0.56674 -0.10600
C 	C 	0.39438 0.49538 0.38924 0.06200
C 	C 	0.40328 0.34778 0.11404 -0.14400
C 	C 	0.63339 0.40079 0.94982 -0.13300
C 	C 	0.32688 0.89228 0.56164 -0.11300
C 	C 	0.11538 0.39438 0.88924 0.06200
C 	C 	0.49173 0.12983 0.66194 0.40300
C 	C 	0.90944 0.54824 0.19052 -0.14800
C 	C 	0.14996 0.74596 0.64848 0.10800
C 	C 	0.29933 0.26163 0.86554 -0.19500
C 	C 	0.29844 0.39444 0.35152 0.10800
C 	C 	0.60562 0.50462 0.61076 0.06200
C 	C 	0.66681 0.77071 0.42218 0.07200
C 	C 	0.19289 0.33319 0.07782 0.07200
C 	C 	0.92195 0.64975 0.90270 0.06700
C 	C 	0.33455 0.27155 0.53050 -0.13500
C 	C 	0.94352 0.30762 0.27176 0.10400
C 	C 	0.44755 0.92195 0.40270 0.06700
C 	C 	0.05648 0.69238 0.72824 0.10400
C 	C 	0.07343 0.43553 0.86214 0.06900
C 	C 	0.69238 0.71528 0.22824 0.10400
C 	C 	0.63495 0.19795 0.53050 -0.13500
C 	C 	0.35811 0.01921 0.64158 0.08700
C 	C 	0.25888 0.31148 0.80284 -0.17500
C 	C 	0.29767 0.92657 0.63786 0.06900
C 	C 	0.20823 0.49173 0.16194 0.40300
C 	C 	0.14388 0.34458 0.01464 0.06000
C 	C 	0.64939 0.63339 0.44982 -0.13300
C 	C 	0.41101 0.80711 0.42218 0.07200
C 	C 	0.88462 0.60562 0.11076 0.06200
C 	C 	0.74596 0.70156 0.14848 0.10800
C 	C 	0.51027 0.33677 0.71446 0.09100
C 	C 	0.35025 0.32465 0.59730 0.06700
C 	C 	0.07805 0.35025 0.09730 0.06700
C 	C 	0.70067 0.73837 0.13446 -0.19500
C 	C 	0.42062 0.94352 0.77176 0.10400
C 	C 	0.64189 0.98079 0.35842 0.08700
C 	C 	0.45392 0.67312 0.93836 -0.11400
C 	C 	0.35061 0.36661 0.55018 -0.13300
C 	C 	0.57938 0.05648 0.22824 0.10400
C 	C 	0.28472 0.42062 0.27176 0.10400
C 	C 	0.34472 0.23532 0.83236 0.12900
C 	C 	0.70233 0.07343 0.36214 0.06900
C 	C 	0.58899 0.19289 0.57782 0.07200
C 	C 	0.74556 0.45376 0.88848 -0.14900
C 	C 	0.54624 0.13404 0.61152 -0.14900
C 	C 	0.58708 0.21228 0.11504 0.04600
C 	C 	0.01921 0.50031 0.14158 0.08700
C 	C 	0.09056 0.45176 0.80948 -0.14800
C 	C 	0.64078 0.14388 0.51464 0.06000
C 	C 	0.43828 0.88568 0.80284 -0.17500
C 	C 	0.65776 0.74556 0.38848 -0.14900
C 	C 	0.08321 0.35061 0.05018 -0.13300
C 	C 	0.87283 0.29933 0.36554 -0.19500
C 	C 	0.15023 0.35073 0.96194 0.03700
C 	C 	0.06768 0.65528 0.66764 0.12900
C 	C 	0.12983 0.34633 0.16194 0.40300
C 	C 	0.68733 0.15023 0.46194 0.03700
C 	C 	0.61148 0.54608 0.56164 -0.11300
C 	C 	0.43557 0.29767 0.13786 0.06900
C 	C 	0.40079 0.91679 0.44982 -0.13300
C 	C 	0.63093 0.25363 0.06674 -0.10700
C 	C 	0.79788 0.67268 0.11504 0.04600
C 	C 	0.88568 0.25888 0.30284 -0.17500
C 	C 	0.66323 0.72473 0.78554 0.09000
C 	C 	0.33677 0.27527 0.21446 0.09000
C 	C 	0.19767 0.32037 0.93326 -0.10600
C 	C 	0.80711 0.66681 0.92218 0.07200
C 	C 	0.59921 0.08321 0.55018 -0.13300
C 	C 	0.38852 0.45392 0.43836 -0.11300
C 	C 	0.13404 0.34224 0.11152 -0.14900
C 	C 	0.67708 0.06768 0.16764 0.12900
C 	C 	0.65222 0.01732 0.38596 -0.14400
C 	C 	0.76468 0.67708 0.66764 0.12900
C 	C 	0.54608 0.32688 0.06164 -0.11400
C 	C 	0.46182 0.59672 0.38596 -0.14400
C 	C 	0.34633 0.20823 0.66194 0.40300
C 	C 	0.45376 0.86596 0.38848 -0.14900
C 	C 	0.26124 0.90944 0.69052 -0.14800
N 	N 	0.67721 0.99674 0.30798 -0.24100
N 	N 	0.47602 0.77269 0.86182 -0.12700
N 	N 	0.32279 0.00326 0.69202 -0.24100
N 	N 	0.36549 0.47602 0.36182 -0.12600
N 	N 	0.75363 0.63660 0.71380 -0.25700
N 	N 	0.64960 0.75363 0.21380 -0.25700
N 	N 	0.24637 0.36340 0.28620 -0.25700
N 	N 	0.69528 0.67721 0.80798 -0.24100
N 	N 	0.36340 0.96743 0.78620 -0.25700
N 	N 	0.35040 0.24637 0.78620 -0.25700
N 	N 	0.30472 0.32279 0.19202 -0.24100
N 	N 	0.16216 0.36549 0.86182 -0.12700
N 	N 	0.51481 0.69528 0.30798 -0.24100
N 	N 	0.00326 0.48519 0.19202 -0.24100
N 	N 	0.22731 0.83784 0.63818 -0.12600
N 	N 	0.63451 0.52398 0.63818 -0.12600
N 	N 	0.03257 0.64960 0.71380 -0.25700
N 	N 	0.99674 0.51481 0.80798 -0.24100
N 	N 	0.48519 0.30472 0.69202 -0.24100
N 	N 	0.83784 0.63451 0.13818 -0.12700
N 	N 	0.63660 0.03257 0.21380 -0.25700
N 	N 	0.52398 0.22731 0.13818 -0.12700
N 	N 	0.77269 0.16216 0.36182 -0.12600
N 	N 	0.96743 0.35040 0.28620 -0.25700
O 	O 	0.07691 0.36735 0.18552 -0.44400
O 	O 	0.50685 0.82201 0.32390 -0.45000
O 	O 	0.63675 0.88675 0.22650 -0.48800
O 	O 	0.14591 0.49315 0.17610 -0.45000
O 	O 	0.76243 0.55287 0.81448 -0.44400
O 	O 	0.92309 0.63265 0.81448 -0.44400
O 	O 	0.11325 0.36325 0.27350 -0.48800
O 	O 	0.85409 0.50685 0.82390 -0.45000
O 	O 	0.36325 0.11325 0.77350 -0.48800
O 	O 	0.17799 0.33075 0.17610 -0.45000
O 	O 	0.88675 0.63675 0.72650 -0.48800
O 	O 	0.33075 0.14591 0.67610 -0.45000
O 	O 	0.44713 0.07691 0.68552 -0.44400
O 	O 	0.36735 0.23757 0.68552 -0.44400
O 	O 	0.49315 0.17799 0.67610 -0.45000
O 	O 	0.82201 0.66925 0.82390 -0.45000
O 	O 	0.55287 0.92309 0.31448 -0.44400
O 	O 	0.66925 0.85409 0.32390 -0.45000
O 	O 	0.23757 0.44713 0.18552 -0.44400
O 	O 	0.63265 0.76243 0.31448 -0.44400
