data_crystal

_cell_length_a 10.78800
_cell_length_b 12.70200
_cell_length_c 15.78400
_cell_angle_alpha 90.00000
_cell_angle_beta  90.00000
_cell_angle_gamma 90.00000

_symmetry_space_group_name_	'P 1'
_symmetry_space_group_name_H-M	'P 1'

loop_
_symmetry_equiv_pos_as_xyz
  x,y,z

loop_
_atom_site_label
_atom_site_type_symbol
_atom_site_fract_x
_atom_site_fract_y
_atom_site_fract_z
_atom_site_charge
Mn	Mn	0.04447 0.25000 0.63752 1.25200
Mn	Mn	0.31414 0.25000 0.71722 1.30700
Mn	Mn	0.45553 0.75000 0.13752 1.29900
Mn	Mn	0.18586 0.75000 0.21722 1.30600
Mn	Mn	0.95553 0.75000 0.36248 1.34200
Mn	Mn	0.68586 0.75000 0.28278 1.30800
Mn	Mn	0.54447 0.25000 0.86248 1.29800
Mn	Mn	0.81414 0.25000 0.78278 1.31000
Mn	Mn	-0.00000 -0.00000 0.50000 1.28900
Mn	Mn	0.50000 0.00000 -0.00000 1.28500
Mn	Mn	-0.00000 0.50000 0.50000 1.30500
Mn	Mn	0.50000 0.50000 -0.00000 1.30700
H 	H 	0.37640 0.55680 0.60480 0.29600
H 	H 	0.41200 0.45250 0.65620 0.28300
H 	H 	0.43410 0.45780 0.55600 0.29100
H 	H 	0.70490 0.50860 0.63950 0.30200
H 	H 	0.70630 0.45000 0.72920 0.28400
H 	H 	0.76190 0.56630 0.72080 0.30500
H 	H 	0.12360 0.44320 0.10480 0.23400
H 	H 	0.08800 0.54750 0.15620 0.23300
H 	H 	0.06590 0.54220 0.05600 0.20900
H 	H 	0.79510 0.49140 0.13950 0.30600
H 	H 	0.79370 0.55000 0.22920 0.30300
H 	H 	0.73810 0.43370 0.22080 0.30700
H 	H 	0.62360 0.05680 0.39520 0.22800
H 	H 	0.58800 0.95250 0.34380 0.24900
H 	H 	0.56590 0.95780 0.44400 0.25600
H 	H 	0.29510 0.00860 0.36050 0.18200
H 	H 	0.29370 0.95000 0.27080 0.20800
H 	H 	0.23810 0.06630 0.27920 0.17500
H 	H 	0.87640 0.94320 0.89520 0.39600
H 	H 	0.91200 0.04750 0.84380 0.35100
H 	H 	0.93410 0.04220 0.94400 0.39500
H 	H 	0.20490 0.99140 0.86050 0.38200
H 	H 	0.20630 0.05000 0.77080 0.32600
H 	H 	0.26190 0.93370 0.77920 0.37300
H 	H 	0.62360 0.44320 0.39520 0.29400
H 	H 	0.58800 0.54750 0.34380 0.28000
H 	H 	0.56590 0.54220 0.44400 0.28900
H 	H 	0.29510 0.49140 0.36050 0.30100
H 	H 	0.29370 0.55000 0.27080 0.28700
H 	H 	0.23810 0.43370 0.27920 0.29000
H 	H 	0.87640 0.55680 0.89520 0.35800
H 	H 	0.91200 0.45250 0.84380 0.33300
H 	H 	0.93410 0.45780 0.94400 0.37500
H 	H 	0.20490 0.50860 0.86050 0.29500
H 	H 	0.20630 0.45000 0.77080 0.26700
H 	H 	0.26190 0.56630 0.77920 0.28800
H 	H 	0.37640 0.94320 0.60480 0.36200
H 	H 	0.41200 0.04750 0.65620 0.31600
H 	H 	0.43410 0.04220 0.55600 0.32400
H 	H 	0.70490 0.99140 0.63950 0.38300
H 	H 	0.70630 0.05000 0.72920 0.33700
H 	H 	0.76190 0.93370 0.72080 0.38100
H 	H 	0.12360 0.05680 0.10480 0.14300
H 	H 	0.08800 0.95250 0.15620 0.18800
H 	H 	0.06590 0.95780 0.05600 0.16500
H 	H 	0.79510 0.00860 0.13950 0.19500
H 	H 	0.79370 0.95000 0.22920 0.23000
H 	H 	0.73810 0.06630 0.22080 0.20200
C 	C 	0.25158 0.43705 0.58784 0.64900
C 	C 	0.37970 0.47980 0.60250 -0.95800
C 	C 	0.87690 0.45301 0.67196 0.62400
C 	C 	0.75160 0.49840 0.69210 -0.95300
C 	C 	0.24842 0.56295 0.08784 0.61400
C 	C 	0.12030 0.52020 0.10250 -0.85500
C 	C 	0.62310 0.54699 0.17196 0.63900
C 	C 	0.74840 0.50160 0.19210 -0.98000
C 	C 	0.74842 0.93705 0.41216 0.60900
C 	C 	0.62030 0.97980 0.39750 -0.80300
C 	C 	0.12310 0.95301 0.32804 0.61700
C 	C 	0.24840 0.99840 0.30790 -0.65500
C 	C 	0.75158 0.06295 0.91216 0.70900
C 	C 	0.87970 0.02020 0.89750 -1.14500
C 	C 	0.37690 0.04699 0.82804 0.65300
C 	C 	0.25160 0.00160 0.80790 -1.16900
C 	C 	0.74842 0.56295 0.41216 0.64900
C 	C 	0.62030 0.52020 0.39750 -0.95100
C 	C 	0.12310 0.54699 0.32804 0.64300
C 	C 	0.24840 0.50160 0.30790 -0.96600
C 	C 	0.75158 0.43705 0.91216 0.68700
C 	C 	0.87970 0.47980 0.89750 -1.05700
C 	C 	0.37690 0.45301 0.82804 0.62800
C 	C 	0.25160 0.49840 0.80790 -0.93700
C 	C 	0.25158 0.06295 0.58784 0.68800
C 	C 	0.37970 0.02020 0.60250 -1.10300
C 	C 	0.87690 0.04699 0.67196 0.64600
C 	C 	0.75160 0.00160 0.69210 -1.16400
C 	C 	0.24842 0.93705 0.08784 0.55900
C 	C 	0.12030 0.97980 0.10250 -0.65300
C 	C 	0.62310 0.95301 0.17196 0.61900
C 	C 	0.74840 0.99840 0.19210 -0.69600
C 	C 	0.95660 0.25000 0.47600 0.41600
C 	C 	0.90480 0.25000 0.38807 -0.10600
C 	C 	0.08360 0.25000 0.84620 0.25800
C 	C 	0.17040 0.25000 0.92162 -0.11100
C 	C 	0.54340 0.75000 0.97600 0.63000
C 	C 	0.59520 0.75000 0.88807 -0.16000
C 	C 	0.41640 0.75000 0.34620 0.39900
C 	C 	0.32960 0.75000 0.42162 -0.14200
C 	C 	0.04340 0.75000 0.52400 0.42500
C 	C 	0.09520 0.75000 0.61193 -0.18000
C 	C 	0.91640 0.75000 0.15380 0.52100
C 	C 	0.82960 0.75000 0.07838 -0.18100
C 	C 	0.45660 0.25000 0.02400 0.18100
C 	C 	0.40480 0.25000 0.11193 -0.12800
C 	C 	0.58360 0.25000 0.65380 0.39500
C 	C 	0.67040 0.25000 0.57838 -0.15300
O 	O 	0.21410 0.35767 0.63072 -0.64200
O 	O 	0.95068 0.50827 0.63187 -0.46400
O 	O 	0.19026 0.48174 0.53218 -0.54200
O 	O 	0.90082 0.35776 0.69395 -0.59900
O 	O 	0.97815 0.16621 0.51492 -0.49000
O 	O 	0.28590 0.64233 0.13072 -0.62000
O 	O 	0.54932 0.49173 0.13187 -0.53400
O 	O 	0.30974 0.51826 0.03218 -0.55400
O 	O 	0.59918 0.64224 0.19395 -0.63100
O 	O 	0.52185 0.83379 0.01492 -0.63700
O 	O 	0.78590 0.85767 0.36928 -0.58700
O 	O 	0.04932 0.00827 0.36813 -0.58800
O 	O 	0.80974 0.98174 0.46782 -0.46700
O 	O 	0.09918 0.85776 0.30605 -0.63800
O 	O 	0.02185 0.66621 0.48508 -0.57600
O 	O 	0.71410 0.14233 0.86928 -0.63700
O 	O 	0.45068 0.99173 0.86813 -0.48100
O 	O 	0.69026 0.01826 0.96782 -0.50000
O 	O 	0.40082 0.14224 0.80605 -0.63900
O 	O 	0.47815 0.33379 0.98508 -0.40000
O 	O 	0.78590 0.64233 0.36928 -0.60500
O 	O 	0.04932 0.49173 0.36813 -0.56400
O 	O 	0.80974 0.51826 0.46782 -0.49700
O 	O 	0.09918 0.64224 0.30605 -0.65500
O 	O 	0.02185 0.83379 0.48508 -0.56200
O 	O 	0.71410 0.35767 0.86928 -0.62600
O 	O 	0.45068 0.50827 0.86813 -0.49600
O 	O 	0.69026 0.48174 0.96782 -0.48500
O 	O 	0.40082 0.35776 0.80605 -0.62500
O 	O 	0.47815 0.16621 0.98508 -0.40300
O 	O 	0.21410 0.14233 0.63072 -0.65900
O 	O 	0.95068 0.99173 0.63187 -0.44800
O 	O 	0.19026 0.01826 0.53218 -0.57000
O 	O 	0.90082 0.14224 0.69395 -0.61000
O 	O 	0.97815 0.33379 0.51492 -0.48600
O 	O 	0.28590 0.85767 0.13072 -0.59600
O 	O 	0.54932 0.00827 0.13187 -0.56100
O 	O 	0.30974 0.98174 0.03218 -0.50900
O 	O 	0.59918 0.85776 0.19395 -0.61600
O 	O 	0.52185 0.66621 0.01492 -0.65100
O 	O 	0.12887 0.25000 0.77135 -0.56200
O 	O 	0.97080 0.25000 0.86156 -0.36600
O 	O 	0.37113 0.75000 0.27135 -0.56600
O 	O 	0.52920 0.75000 0.36156 -0.47600
O 	O 	0.87113 0.75000 0.22865 -0.57200
O 	O 	0.02920 0.75000 0.13844 -0.57500
O 	O 	0.62887 0.25000 0.72865 -0.57000
O 	O 	0.47080 0.25000 0.63844 -0.48000
