data_crystal

_cell_length_a 11.38400
_cell_length_b 12.18900
_cell_length_c 23.33100
_cell_angle_alpha 83.75000
_cell_angle_beta  82.02200
_cell_angle_gamma 70.69700

_symmetry_space_group_name_	'P 1'
_symmetry_space_group_name_H-M	'P 1'

loop_
_symmetry_equiv_pos_as_xyz
  x,y,z

loop_
_atom_site_label
_atom_site_type_symbol
_atom_site_fract_x
_atom_site_fract_y
_atom_site_fract_z
_atom_site_charge
Sm	Sm	0.26350 0.73297 0.26011 1.88600
Sm	Sm	0.73650 0.26703 0.73989 1.88700
Cu	Cu	0.69160 0.13050 0.97222 0.88800
Cu	Cu	0.10860 0.24250 0.25502 0.89800
Cu	Cu	0.30840 0.86950 0.02778 0.88800
Cu	Cu	0.89140 0.75750 0.74498 0.89800
Cu	Cu	0.50000 0.50000 0.50000 0.82700
Si	Si	0.12640 0.21270 0.76270 2.34300
Si	Si	0.87360 0.78730 0.23730 2.34300
H 	H 	0.32370 0.70190 0.43100 -0.06200
H 	H 	0.10800 0.24790 0.01040 0.08000
H 	H 	0.08200 0.33100 0.49650 0.06500
H 	H 	0.27830 0.25480 0.33630 0.01600
H 	H 	0.54140 0.87620 0.92960 -0.00800
H 	H 	0.28670 0.23680 0.14880 0.03400
H 	H 	0.25540 0.47120 0.45950 -0.02500
H 	H 	0.53500 0.64750 0.06290 0.00300
H 	H 	0.93370 0.25110 0.17360 0.02600
H 	H 	0.74790 0.44890 0.41870 -0.03800
H 	H 	0.74300 0.39130 0.11510 0.01000
H 	H 	0.89200 0.75210 0.98960 0.08000
H 	H 	0.41550 0.76130 0.54320 0.00300
H 	H 	0.45860 0.12380 0.07040 -0.00800
H 	H 	0.90470 0.19930 0.53750 0.03400
H 	H 	0.06630 0.74890 0.82640 0.02600
H 	H 	0.39760 0.64740 0.94570 0.01500
H 	H 	0.94000 0.13010 0.01400 0.00800
H 	H 	0.75480 0.62280 0.02330 0.01600
H 	H 	0.25700 0.60870 0.88490 0.01000
H 	H 	0.74460 0.52880 0.54050 -0.02500
H 	H 	0.54630 0.85020 0.58540 0.01800
H 	H 	0.60240 0.35260 0.05430 0.01500
H 	H 	0.24520 0.37720 0.97670 0.01600
H 	H 	0.67630 0.29810 0.56900 -0.06200
H 	H 	0.09530 0.80070 0.46250 0.03400
H 	H 	0.46500 0.35250 0.93710 0.00300
H 	H 	0.91800 0.66900 0.50350 0.06500
H 	H 	0.93750 0.25520 0.35920 0.02100
H 	H 	0.25210 0.55110 0.58130 -0.03800
H 	H 	0.58450 0.23870 0.45680 0.00300
H 	H 	0.45370 0.14980 0.41460 0.01800
H 	H 	0.71330 0.76320 0.85120 0.03400
H 	H 	0.72170 0.74520 0.66370 0.01600
H 	H 	0.06250 0.74480 0.64080 0.02100
H 	H 	0.06000 0.86990 0.98600 0.00800
W 	W 	0.92758 0.11811 0.86721 1.39900
W 	W 	0.68400 0.68652 0.35438 1.01900
W 	W 	0.74316 0.92467 0.10766 1.30400
W 	W 	0.56289 0.83424 0.21658 1.34500
W 	W 	0.91117 0.49088 0.76447 1.35000
W 	W 	0.08883 0.50912 0.23553 1.35000
W 	W 	0.43711 0.16576 0.78342 1.34500
W 	W 	0.23396 0.07845 0.63100 1.05800
W 	W 	0.01059 0.34366 0.63091 1.07500
W 	W 	0.01731 0.98575 0.74517 1.38300
W 	W 	0.78888 0.53468 0.21800 1.05000
W 	W 	0.64999 0.06832 0.23090 1.01400
W 	W 	0.25684 0.07533 0.89234 1.30400
W 	W 	0.97110 0.62920 0.11083 1.06800
W 	W 	0.98269 0.01425 0.25483 1.38300
W 	W 	0.35001 0.93168 0.76910 1.01400
W 	W 	0.07242 0.88189 0.13279 1.39900
W 	W 	0.98941 0.65634 0.36909 1.07500
W 	W 	0.02890 0.37080 0.88917 1.06800
W 	W 	0.31600 0.31348 0.64562 1.01900
W 	W 	0.76604 0.92155 0.36900 1.05800
W 	W 	0.21112 0.46532 0.78200 1.05000
C 	C 	0.21400 0.23980 0.07430 0.09900
C 	C 	0.79720 0.71190 0.58420 0.05300
C 	C 	0.31700 0.32400 0.99030 0.02400
C 	C 	0.43800 0.30800 0.96730 -0.01000
C 	C 	0.15200 0.74000 0.48240 -0.04500
C 	C 	0.23700 0.66300 0.91280 -0.00600
C 	C 	0.68300 0.67600 0.00970 0.02400
C 	C 	0.20280 0.28810 0.41580 0.05300
C 	C 	0.32100 0.40200 0.45480 0.06400
C 	C 	0.00090 0.25130 0.08900 0.09200
C 	C 	0.50000 0.27500 0.45200 -0.00200
C 	C 	0.24100 0.60320 0.54870 0.09200
C 	C 	0.43400 0.18200 0.04140 0.11200
C 	C 	0.57100 0.77700 0.57040 -0.01700
C 	C 	0.00360 0.26830 0.37360 -0.00200
C 	C 	0.42900 0.22300 0.42960 -0.01700
C 	C 	0.56200 0.69200 0.03270 -0.01000
C 	C 	0.99640 0.73170 0.62640 -0.00200
C 	C 	0.00500 0.24890 0.14840 0.00600
C 	C 	0.50000 0.72500 0.54800 -0.00200
C 	C 	0.72000 0.31300 0.53390 0.03400
C 	C 	0.21400 0.23960 0.13370 -0.03400
C 	C 	0.56600 0.81800 0.95860 0.11200
C 	C 	0.01220 0.70040 0.56870 0.06100
C 	C 	0.28000 0.68700 0.46610 0.03400
C 	C 	0.79570 0.73470 0.63910 -0.02100
C 	C 	0.99910 0.74870 0.91100 0.09200
C 	C 	0.76300 0.33700 0.08720 -0.00600
C 	C 	0.98780 0.29960 0.43130 0.06100
C 	C 	0.75900 0.39680 0.45130 0.09200
C 	C 	0.10800 0.24650 0.05030 -0.14900
C 	C 	0.68700 0.31100 0.05480 -0.00400
C 	C 	0.99500 0.75110 0.85160 0.00600
C 	C 	0.89200 0.75350 0.94970 -0.14900
C 	C 	0.67900 0.59800 0.54520 0.06400
C 	C 	0.91200 0.68800 0.54150 -0.11600
C 	C 	0.84800 0.26000 0.51760 -0.04500
C 	C 	0.87400 0.18900 0.03110 0.10300
C 	C 	0.78600 0.76020 0.92570 0.09900
C 	C 	0.78600 0.76040 0.86630 -0.03400
C 	C 	0.20430 0.26530 0.36090 -0.02100
C 	C 	0.08800 0.31200 0.45850 -0.11600
C 	C 	0.12600 0.81100 0.96890 0.10300
C 	C 	0.31300 0.68900 0.94520 -0.00400
N 	N 	0.12850 0.68290 0.53480 -0.13300
N 	N 	0.87150 0.31710 0.46520 -0.13300
N 	N 	0.67790 0.75310 0.96330 -0.15100
N 	N 	0.68640 0.69780 0.56530 -0.13300
N 	N 	0.67310 0.38630 0.49160 -0.25700
N 	N 	0.89040 0.75660 0.83010 -0.18800
N 	N 	0.32210 0.24690 0.03670 -0.15100
N 	N 	0.32690 0.61370 0.50840 -0.25700
N 	N 	0.11580 0.74080 0.93290 -0.14200
N 	N 	0.48860 0.78830 0.00250 -0.22700
N 	N 	0.10670 0.25700 0.34000 -0.19800
N 	N 	0.24860 0.78560 0.97770 -0.22000
N 	N 	0.10960 0.24340 0.16990 -0.18800
N 	N 	0.89330 0.74300 0.66000 -0.19800
N 	N 	0.56340 0.61660 0.53380 -0.24100
N 	N 	0.88420 0.25920 0.06710 -0.14200
N 	N 	0.43660 0.38340 0.46620 -0.24100
N 	N 	0.75140 0.21440 0.02230 -0.22000
N 	N 	0.31360 0.30220 0.43470 -0.13300
N 	N 	0.51140 0.21170 0.99750 -0.22700
O 	O 	0.91430 0.66440 0.21150 -0.87800
O 	O 	0.47670 0.00990 0.76610 -0.46500
O 	O 	0.79100 0.18770 0.83530 -0.59600
O 	O 	0.94620 0.25890 0.88590 -0.52200
O 	O 	0.10540 0.05590 0.89030 -0.48800
O 	O 	0.08570 0.33560 0.78850 -0.87800
O 	O 	0.66100 0.06510 0.14790 -0.45600
O 	O 	0.89460 0.94410 0.10970 -0.48800
O 	O 	0.40660 0.83770 0.21820 -0.59600
O 	O 	0.86380 0.07160 0.73110 -0.58900
O 	O 	0.90730 0.48950 0.84860 -0.46500
O 	O 	0.98770 0.15160 0.26610 -0.53500
O 	O 	0.59340 0.16230 0.78180 -0.59600
O 	O 	0.41120 0.11570 0.86400 -0.45900
O 	O 	0.83690 0.77030 0.30820 -0.80200
O 	O 	0.01230 0.84840 0.73390 -0.53500
O 	O 	0.03260 0.02140 0.17350 -0.47700
O 	O 	0.34720 0.16600 0.60610 -0.43000
O 	O 	0.10550 0.02170 0.67420 -0.50300
O 	O 	0.33900 0.93490 0.85210 -0.45600
O 	O 	0.80730 0.63010 0.75750 -0.53400
O 	O 	0.17070 0.23950 0.90270 -0.47800
O 	O 	0.74130 0.58110 0.29570 -0.49800
O 	O 	0.10500 0.20300 0.59500 -0.45000
O 	O 	0.96740 0.97860 0.82650 -0.47700
O 	O 	0.75170 0.86500 0.20800 -0.87000
O 	O 	0.66260 0.67850 0.20020 -0.52200
O 	O 	0.97720 0.46100 0.68670 -0.50700
O 	O 	0.02280 0.53900 0.31330 -0.50700
O 	O 	0.02200 0.15100 0.77880 -0.90600
O 	O 	0.58880 0.88430 0.13600 -0.45900
O 	O 	0.67180 0.99950 0.30930 -0.48000
O 	O 	0.82930 0.76050 0.09730 -0.47800
O 	O 	0.82270 0.61890 0.38950 -0.44500
O 	O 	0.29450 0.02030 0.96250 -0.46700
O 	O 	0.18750 0.92970 0.77140 -0.48500
O 	O 	0.32820 0.00050 0.69070 -0.48000
O 	O 	0.89500 0.79700 0.40500 -0.45000
O 	O 	0.86020 0.07220 0.93350 -0.53100
O 	O 	0.20900 0.81230 0.16470 -0.59600
O 	O 	0.13980 0.92780 0.06650 -0.53100
O 	O 	0.81250 0.07030 0.22860 -0.48500
O 	O 	0.94180 0.44000 0.23690 -0.49400
O 	O 	0.18310 0.59540 0.23180 -0.64900
O 	O 	0.52330 0.99010 0.23390 -0.46500
O 	O 	0.58840 0.78690 0.29460 -0.52600
O 	O 	0.10230 0.71500 0.33220 -0.60800
O 	O 	0.14380 0.45680 0.86240 -0.44300
O 	O 	0.89770 0.28500 0.66780 -0.60800
O 	O 	0.19270 0.36990 0.24250 -0.53400
O 	O 	0.13620 0.92840 0.26890 -0.58900
O 	O 	0.41160 0.21310 0.70540 -0.52600
O 	O 	0.25870 0.41890 0.70430 -0.49800
O 	O 	0.81690 0.40460 0.76820 -0.64900
O 	O 	0.85620 0.54320 0.13760 -0.44300
O 	O 	0.05820 0.56000 0.76310 -0.49400
O 	O 	0.09270 0.51050 0.15140 -0.46500
O 	O 	0.65280 0.83400 0.39390 -0.43000
O 	O 	0.97800 0.84900 0.22120 -0.90600
O 	O 	0.17730 0.38110 0.61050 -0.44500
O 	O 	0.89450 0.97830 0.32580 -0.50300
O 	O 	0.33740 0.32150 0.79980 -0.52200
O 	O 	0.24830 0.13500 0.79200 -0.87000
O 	O 	0.16310 0.22970 0.69180 -0.80200
O 	O 	0.70550 0.97970 0.03750 -0.46700
O 	O 	0.05380 0.74110 0.11410 -0.52200
