data_crystal

_cell_length_a 11.33500
_cell_length_b 12.15200
_cell_length_c 23.31900
_cell_angle_alpha 83.54300
_cell_angle_beta  81.74100
_cell_angle_gamma 71.11200

_symmetry_space_group_name_	'P 1'
_symmetry_space_group_name_H-M	'P 1'

loop_
_symmetry_equiv_pos_as_xyz
  x,y,z

loop_
_atom_site_label
_atom_site_type_symbol
_atom_site_fract_x
_atom_site_fract_y
_atom_site_fract_z
_atom_site_charge
W 	W 	0.08615 0.01098 0.23558 1.26400
W 	W 	0.98687 0.15729 0.36891 1.03400
W 	W 	0.98008 0.51458 0.25469 1.31100
W 	W 	0.76239 0.42068 0.36972 1.04100
W 	W 	0.68097 0.18445 0.35560 0.97300
W 	W 	0.78609 0.03283 0.21918 0.98300
W 	W 	0.96737 0.12952 0.11126 1.02400
W 	W 	0.73909 0.42428 0.10830 1.02100
W 	W 	0.64621 0.56719 0.23155 1.03300
W 	W 	0.06895 0.38338 0.13301 1.37700
W 	W 	0.55873 0.33143 0.21797 1.34700
Cu	Cu	0.10780 0.74400 0.25484 0.89800
Cu	Cu	0.69250 0.62980 0.97174 0.84800
Y 	Y 	0.25550 0.23653 0.25890 2.36500
Si	Si	0.86880 0.28680 0.23770 2.11200
O 	O 	0.19390 0.86920 0.24260 -0.49700
O 	O 	0.98460 0.65470 0.26780 -0.50400
O 	O 	0.13740 0.43100 0.06570 -0.54000
O 	O 	0.40820 0.32410 0.21970 -0.70500
O 	O 	0.74450 0.36630 0.20880 -0.79900
O 	O 	0.65330 0.32960 0.39170 -0.44000
O 	O 	0.89350 0.29780 0.40510 -0.44200
O 	O 	0.82260 0.11300 0.39130 -0.42800
O 	O 	0.66050 0.50350 0.31150 -0.46800
O 	O 	0.74290 0.07120 0.29800 -0.48400
O 	O 	0.01620 0.04320 0.31260 -0.49800
O 	O 	0.10120 0.21780 0.33110 -0.67400
O 	O 	0.80370 0.57750 0.22970 -0.47300
O 	O 	0.13370 0.42560 0.26880 -0.65600
O 	O 	0.18320 0.09960 0.23150 -0.71800
O 	O 	0.20610 0.31460 0.16600 -0.66200
O 	O 	0.03180 0.52060 0.17050 -0.47900
O 	O 	0.89080 0.44460 0.11110 -0.47100
O 	O 	0.65560 0.56340 0.15010 -0.45200
O 	O 	0.82200 0.26550 0.09880 -0.46200
O 	O 	0.08940 0.01250 0.15160 -0.45700
O 	O 	0.93790 0.94170 0.23730 -0.44900
O 	O 	0.51660 0.49100 0.23550 -0.45900
O 	O 	0.85220 0.04280 0.13800 -0.44200
O 	O 	0.65320 0.17980 0.20040 -0.51800
O 	O 	0.05070 0.24110 0.11550 -0.51100
O 	O 	0.58190 0.28550 0.29660 -0.52700
O 	O 	0.89420 0.47380 0.32470 -0.49800
O 	O 	0.58840 0.37820 0.13680 -0.45300
O 	O 	0.83610 0.26810 0.30790 -0.76500
O 	O 	0.91540 0.15880 0.21170 -0.78900
O 	O 	0.97730 0.34750 0.22090 -0.86000
C 	C 	0.99860 0.77240 0.37380 -0.02900
H 	H 	0.92720 0.76900 0.35990 0.03900
C 	C 	0.99190 0.79130 0.43000 0.08900
C 	C 	0.09100 0.80800 0.45480 -0.14500
H 	H 	0.08360 0.83090 0.49220 0.07800
C 	C 	0.20380 0.78600 0.41640 0.07900
C 	C 	0.20300 0.76530 0.35990 -0.03700
H 	H 	0.27740 0.75530 0.33530 0.02200
C 	C 	0.76300 0.88600 0.45390 0.14300
H 	H 	0.75210 0.92710 0.41800 -0.03800
C 	C 	0.71900 0.81460 0.53450 0.03300
H 	H 	0.67530 0.79840 0.56960 -0.06300
C 	C 	0.84800 0.76100 0.51810 -0.04900
H 	H 	0.90520 0.69990 0.53710 0.03700
C 	C 	0.43100 0.72100 0.42830 -0.00600
H 	H 	0.45410 0.64910 0.41270 0.01500
C 	C 	0.50700 0.76800 0.44930 -0.02700
H 	H 	0.59210 0.73080 0.45250 0.01400
C 	C 	0.32200 0.89300 0.45550 0.07900
H 	H 	0.25400 0.96040 0.46230 -0.01800
C 	C 	0.00200 0.75240 0.14740 -0.02300
H 	H 	0.92970 0.75450 0.17230 0.04200
C 	C 	0.99830 0.75540 0.08930 0.10900
C 	C 	0.10280 0.75170 0.05010 -0.15700
H 	H 	0.10150 0.75280 0.01030 0.06600
C 	C 	0.21170 0.74630 0.07450 0.08200
C 	C 	0.21140 0.74170 0.13440 -0.02300
H 	H 	0.28520 0.73500 0.14950 0.02800
C 	C 	0.43970 0.67620 0.03860 0.07400
H 	H 	0.46240 0.61440 0.06640 -0.03000
C 	C 	0.31800 0.83700 0.99220 -0.00400
H 	H 	0.25320 0.90350 0.98230 0.02800
C 	C 	0.44300 0.79760 0.96630 0.00900
H 	H 	0.47220 0.83210 0.93190 -0.00300
C 	C 	0.87260 0.68770 0.03090 0.12100
H 	H 	0.93900 0.62930 0.01350 -0.01000
C 	C 	0.76800 0.83570 0.08540 0.01100
H 	H 	0.75000 0.89480 0.11040 0.01900
C 	C 	0.68500 0.80700 0.05770 -0.02500
H 	H 	0.59800 0.84160 0.06100 0.02600
N 	N 	0.10390 0.75830 0.33710 -0.19700
N 	N 	0.86770 0.82450 0.46620 -0.14900
N 	N 	0.66890 0.89000 0.49300 -0.26700
N 	N 	0.31180 0.80010 0.43430 -0.14500
N 	N 	0.43770 0.88170 0.46590 -0.23100
N 	N 	0.10810 0.74660 0.17050 -0.18900
N 	N 	0.31830 0.75200 0.03580 -0.14000
N 	N 	0.51870 0.70360 0.99620 -0.25800
N 	N 	0.88540 0.75710 0.06770 -0.14800
N 	N 	0.75670 0.71050 0.02200 -0.23700
W 	W 	0.91385 0.98902 0.76442 1.34100
W 	W 	0.01313 0.84271 0.63109 1.05000
W 	W 	0.01992 0.48542 0.74531 1.30900
W 	W 	0.23761 0.57932 0.63028 1.03900
W 	W 	0.31903 0.81555 0.64440 0.98700
W 	W 	0.21391 0.96717 0.78082 1.04800
W 	W 	0.03263 0.87048 0.88874 1.03800
W 	W 	0.26091 0.57572 0.89170 1.02100
W 	W 	0.35379 0.43281 0.76845 1.02700
W 	W 	0.93105 0.61662 0.86699 1.37800
W 	W 	0.44127 0.66857 0.78203 1.35000
Cu	Cu	0.89220 0.25600 0.74516 0.89700
Cu	Cu	0.30750 0.37020 0.02826 0.84700
Y 	Y 	0.74450 0.76347 0.74110 2.36600
Si	Si	0.13120 0.71320 0.76230 2.11600
O 	O 	0.80610 0.13080 0.75740 -0.53600
O 	O 	0.01540 0.34530 0.73220 -0.50600
O 	O 	0.86260 0.56900 0.93430 -0.53900
O 	O 	0.59180 0.67590 0.78030 -0.70300
O 	O 	0.25550 0.63370 0.79120 -0.80000
O 	O 	0.34670 0.67040 0.60830 -0.44100
O 	O 	0.10650 0.70220 0.59490 -0.44300
O 	O 	0.17740 0.88700 0.60870 -0.41700
O 	O 	0.33950 0.49650 0.68850 -0.46900
O 	O 	0.25710 0.92880 0.70200 -0.47800
O 	O 	0.98380 0.95680 0.68740 -0.49000
O 	O 	0.89880 0.78220 0.66890 -0.67200
O 	O 	0.19630 0.42250 0.77030 -0.47400
O 	O 	0.86630 0.57440 0.73120 -0.65500
O 	O 	0.81680 0.90040 0.76850 -0.71900
O 	O 	0.79390 0.68540 0.83400 -0.66000
O 	O 	0.96820 0.47940 0.82950 -0.47800
O 	O 	0.10920 0.55540 0.88890 -0.47200
O 	O 	0.34440 0.43660 0.84990 -0.45300
O 	O 	0.17800 0.73450 0.90120 -0.46400
O 	O 	0.91060 0.98750 0.84840 -0.44400
O 	O 	0.06210 0.05830 0.76270 -0.50800
O 	O 	0.48340 0.50900 0.76450 -0.45900
O 	O 	0.14780 0.95720 0.86200 -0.43300
O 	O 	0.34680 0.82020 0.79960 -0.52200
O 	O 	0.94930 0.75890 0.88450 -0.51100
O 	O 	0.41810 0.71450 0.70340 -0.52700
O 	O 	0.10580 0.52620 0.67530 -0.49800
O 	O 	0.41160 0.62180 0.86320 -0.45300
O 	O 	0.16390 0.73190 0.69210 -0.76900
O 	O 	0.08460 0.84120 0.78830 -0.79700
O 	O 	0.02270 0.65250 0.77910 -0.86200
C 	C 	0.00140 0.22760 0.62620 -0.03300
H 	H 	0.07280 0.23100 0.64010 0.03500
C 	C 	0.00810 0.20870 0.57000 0.08300
C 	C 	0.90900 0.19200 0.54520 -0.14700
H 	H 	0.91640 0.16910 0.50780 0.07200
C 	C 	0.79620 0.21400 0.58360 0.07400
C 	C 	0.79700 0.23470 0.64010 -0.04100
H 	H 	0.72260 0.24470 0.66470 0.02000
C 	C 	0.23700 0.11400 0.54610 0.13700
H 	H 	0.24790 0.07290 0.58200 -0.05400
C 	C 	0.28100 0.18540 0.46550 0.02900
H 	H 	0.32470 0.20160 0.43040 -0.06800
C 	C 	0.15200 0.23900 0.48190 -0.05300
H 	H 	0.09480 0.30010 0.46290 0.03800
C 	C 	0.56900 0.27900 0.57170 -0.00800
H 	H 	0.54590 0.35090 0.58730 0.01500
C 	C 	0.49300 0.23200 0.55070 -0.02900
H 	H 	0.40790 0.26920 0.54750 0.01200
C 	C 	0.67800 0.10700 0.54450 0.07400
H 	H 	0.74600 0.03960 0.53770 -0.03500
C 	C 	0.99800 0.24760 0.85260 -0.02500
H 	H 	0.07030 0.24550 0.82770 0.03700
C 	C 	0.00170 0.24460 0.91070 0.10200
C 	C 	0.89720 0.24830 0.94990 -0.15800
H 	H 	0.89850 0.24720 0.98970 0.06400
C 	C 	0.78830 0.25370 0.92550 0.07700
C 	C 	0.78860 0.25830 0.86560 -0.02700
H 	H 	0.71480 0.26500 0.85050 0.02600
C 	C 	0.56030 0.32380 0.96140 0.07200
H 	H 	0.53760 0.38560 0.93360 -0.03000
C 	C 	0.68200 0.16300 0.00780 -0.00800
H 	H 	0.74680 0.09650 0.01770 0.01600
C 	C 	0.55700 0.20240 0.03370 0.00600
H 	H 	0.52780 0.16790 0.06810 -0.01000
C 	C 	0.12740 0.31230 0.96910 0.11800
H 	H 	0.06100 0.37070 0.98650 -0.01000
C 	C 	0.23200 0.16430 0.91460 0.00700
H 	H 	0.25000 0.10520 0.88960 0.00200
C 	C 	0.31500 0.19300 0.94230 -0.03100
H 	H 	0.40200 0.15840 0.93900 0.01800
N 	N 	0.89610 0.24170 0.66290 -0.19900
N 	N 	0.13230 0.17550 0.53380 -0.15200
N 	N 	0.33110 0.11000 0.50700 -0.27800
N 	N 	0.68820 0.19990 0.56570 -0.14600
N 	N 	0.56230 0.11830 0.53410 -0.24100
N 	N 	0.89190 0.25340 0.82950 -0.19100
N 	N 	0.68170 0.24800 0.96420 -0.14200
N 	N 	0.48130 0.29640 0.00380 -0.25900
N 	N 	0.11460 0.24290 0.93230 -0.14900
N 	N 	0.24330 0.28950 0.97800 -0.23800
Cu	Cu	0.50000 0.00000 0.50000 0.82000
