data_crystal

_cell_length_a 9.15810
_cell_length_b 9.71090
_cell_length_c 22.33580
_cell_angle_alpha 90.00000
_cell_angle_beta  90.00000
_cell_angle_gamma 117.48500

_symmetry_space_group_name_	'P 1'
_symmetry_space_group_name_H-M	'P 1'

loop_
_symmetry_equiv_pos_as_xyz
  x,y,z

loop_
_atom_site_label
_atom_site_type_symbol
_atom_site_fract_x
_atom_site_fract_y
_atom_site_fract_z
_atom_site_charge
Eu	Eu	0.61790 0.35660 0.00862 2.13300
Eu	Eu	0.88210 0.64340 0.50862 2.13500
Eu	Eu	0.38210 0.64340 0.99138 2.13300
Eu	Eu	0.11790 0.35660 0.49138 2.13500
Ag	Ag	0.01655 0.67970 0.85216 0.55100
Ag	Ag	0.48345 0.32030 0.35216 0.55300
Ag	Ag	0.98345 0.32030 0.14784 0.55100
Ag	Ag	0.51655 0.67970 0.64784 0.55300
H 	H 	0.94040 0.22180 0.92750 -0.00600
H 	H 	0.74330 0.03090 0.86840 0.11200
H 	H 	0.77820 0.82160 0.84070 -0.02200
H 	H 	0.18230 0.97120 0.93420 -0.00800
H 	H 	0.98890 0.63950 0.71760 -0.00800
H 	H 	0.10090 0.31110 0.65910 -0.00600
H 	H 	0.13750 0.26170 0.75810 0.09400
H 	H 	0.11040 0.40860 0.83270 -0.00500
H 	H 	0.55960 0.77820 0.42750 -0.00800
H 	H 	0.75670 0.96910 0.36840 0.11300
H 	H 	0.72180 0.17840 0.34070 -0.02200
H 	H 	0.31770 0.02880 0.43420 -0.01000
H 	H 	0.51110 0.36050 0.21760 -0.01300
H 	H 	0.39910 0.68890 0.15910 -0.00700
H 	H 	0.36250 0.73830 0.25810 0.09500
H 	H 	0.38960 0.59140 0.33270 -0.00500
H 	H 	0.05960 0.77820 0.07250 -0.00600
H 	H 	0.25670 0.96910 0.13160 0.11200
H 	H 	0.22180 0.17840 0.15930 -0.02200
H 	H 	0.81770 0.02880 0.06580 -0.00800
H 	H 	0.01110 0.36050 0.28240 -0.00800
H 	H 	0.89910 0.68890 0.34090 -0.00600
H 	H 	0.86250 0.73830 0.24190 0.09400
H 	H 	0.88960 0.59140 0.16730 -0.00500
H 	H 	0.44040 0.22180 0.57250 -0.00800
H 	H 	0.24330 0.03090 0.63160 0.11300
H 	H 	0.27820 0.82160 0.65930 -0.02200
H 	H 	0.68230 0.97120 0.56580 -0.01000
H 	H 	0.48890 0.63950 0.78240 -0.01300
H 	H 	0.60090 0.31110 0.84090 -0.00700
H 	H 	0.63750 0.26170 0.74190 0.09500
H 	H 	0.61040 0.40860 0.66730 -0.00500
C 	C 	0.21960 0.24290 0.97289 0.49500
C 	C 	0.08480 0.11720 0.93639 -0.20700
C 	C 	0.95140 0.13450 0.91678 0.13500
C 	C 	0.83500 0.02190 0.88140 -0.19000
C 	C 	0.85620 0.89620 0.86550 0.11100
C 	C 	0.09470 0.98500 0.91989 0.11500
C 	C 	0.02090 0.56340 0.72563 0.10400
C 	C 	0.03990 0.48210 0.67793 -0.21700
C 	C 	0.08600 0.36770 0.69000 0.11100
C 	C 	0.10930 0.33980 0.74880 -0.18600
C 	C 	0.09100 0.42720 0.79340 0.10200
C 	C 	0.00780 0.52120 0.61627 0.48200
C 	C 	0.50810 0.00830 0.96564 0.26300
C 	C 	0.99680 0.51990 0.96700 0.26000
C 	C 	0.28040 0.75710 0.47289 0.49700
C 	C 	0.41520 0.88280 0.43639 -0.21400
C 	C 	0.54860 0.86550 0.41678 0.13700
C 	C 	0.66500 0.97810 0.38140 -0.19100
C 	C 	0.64380 0.10380 0.36550 0.11100
C 	C 	0.40530 0.01500 0.41989 0.12600
C 	C 	0.47910 0.43660 0.22563 0.11200
C 	C 	0.46010 0.51790 0.17793 -0.22100
C 	C 	0.41400 0.63230 0.19000 0.11400
C 	C 	0.39070 0.66020 0.24880 -0.18700
C 	C 	0.40900 0.57280 0.29340 0.10400
C 	C 	0.49220 0.47880 0.11627 0.48600
C 	C 	0.99190 0.99170 0.46564 0.26000
C 	C 	0.50320 0.48010 0.46700 0.25800
C 	C 	0.78040 0.75710 0.02711 0.49500
C 	C 	0.91520 0.88280 0.06361 -0.20700
C 	C 	0.04860 0.86550 0.08322 0.13500
C 	C 	0.16500 0.97810 0.11860 -0.19000
C 	C 	0.14380 0.10380 0.13450 0.11100
C 	C 	0.90530 0.01500 0.08011 0.11500
C 	C 	0.97910 0.43660 0.27437 0.10400
C 	C 	0.96010 0.51790 0.32207 -0.21700
C 	C 	0.91400 0.63230 0.31000 0.11100
C 	C 	0.89070 0.66020 0.25120 -0.18600
C 	C 	0.90900 0.57280 0.20660 0.10200
C 	C 	0.99220 0.47880 0.38373 0.48200
C 	C 	0.49190 0.99170 0.03436 0.26300
C 	C 	0.00320 0.48010 0.03300 0.26000
C 	C 	0.71960 0.24290 0.52711 0.49700
C 	C 	0.58480 0.11720 0.56361 -0.21400
C 	C 	0.45140 0.13450 0.58322 0.13700
C 	C 	0.33500 0.02190 0.61860 -0.19100
C 	C 	0.35620 0.89620 0.63450 0.11100
C 	C 	0.59470 0.98500 0.58011 0.12600
C 	C 	0.52090 0.56340 0.77437 0.11200
C 	C 	0.53990 0.48210 0.82207 -0.22100
C 	C 	0.58600 0.36770 0.81000 0.11400
C 	C 	0.60930 0.33980 0.75120 -0.18700
C 	C 	0.59100 0.42720 0.70660 0.10400
C 	C 	0.50780 0.52120 0.88373 0.48600
C 	C 	0.00810 0.00830 0.53436 0.26000
C 	C 	0.49680 0.51990 0.53300 0.25800
N 	N 	0.98380 0.87490 0.88403 -0.20700
N 	N 	0.04620 0.53840 0.78277 -0.20600
N 	N 	0.51620 0.12510 0.38403 -0.21100
N 	N 	0.45380 0.46160 0.28277 -0.20700
N 	N 	0.01620 0.12510 0.11597 -0.20700
N 	N 	0.95380 0.46160 0.21723 -0.20600
N 	N 	0.48380 0.87490 0.61597 -0.21100
N 	N 	0.54620 0.53840 0.71723 -0.20700
O 	O 	0.32390 0.21010 0.99723 -0.50200
O 	O 	0.21760 0.37010 0.97428 -0.51900
O 	O 	0.94530 0.61090 0.61078 -0.49300
O 	O 	0.04580 0.46200 0.57249 -0.57700
O 	O 	0.13170 0.61630 0.94393 -0.45800
O 	O 	0.86170 0.45840 0.94084 -0.42300
O 	O 	0.57850 0.14240 0.94433 -0.42300
O 	O 	0.45010 0.88370 0.93618 -0.40700
O 	O 	0.17610 0.78990 0.49723 -0.50500
O 	O 	0.28240 0.62990 0.47428 -0.51900
O 	O 	0.55470 0.38910 0.11078 -0.49500
O 	O 	0.45420 0.53800 0.07249 -0.57700
O 	O 	0.36830 0.38370 0.44393 -0.45600
O 	O 	0.63830 0.54160 0.44084 -0.42400
O 	O 	0.92150 0.85760 0.44433 -0.42300
O 	O 	0.04990 0.11630 0.43618 -0.40400
O 	O 	0.67610 0.78990 0.00277 -0.50200
O 	O 	0.78240 0.62990 0.02572 -0.51900
O 	O 	0.05470 0.38910 0.38922 -0.49300
O 	O 	0.95420 0.53800 0.42751 -0.57700
O 	O 	0.86830 0.38370 0.05607 -0.45800
O 	O 	0.13830 0.54160 0.05916 -0.42300
O 	O 	0.42150 0.85760 0.05567 -0.42300
O 	O 	0.54990 0.11630 0.06382 -0.40700
O 	O 	0.82390 0.21010 0.50277 -0.50500
O 	O 	0.71760 0.37010 0.52572 -0.51900
O 	O 	0.44530 0.61090 0.88922 -0.49500
O 	O 	0.54580 0.46200 0.92751 -0.57700
O 	O 	0.63170 0.61630 0.55607 -0.45600
O 	O 	0.36170 0.45840 0.55916 -0.42400
O 	O 	0.07850 0.14240 0.55567 -0.42300
O 	O 	0.95010 0.88370 0.56382 -0.40400
