data_crystal

_cell_length_a 8.71980
_cell_length_b 18.42180
_cell_length_c 9.27250
_cell_angle_alpha 90.00000
_cell_angle_beta  108.24800
_cell_angle_gamma 90.00000

_symmetry_space_group_name_	'P 1'
_symmetry_space_group_name_H-M	'P 1'

loop_
_symmetry_equiv_pos_as_xyz
  x,y,z

loop_
_atom_site_label
_atom_site_type_symbol
_atom_site_fract_x
_atom_site_fract_y
_atom_site_fract_z
_atom_site_charge
C 	C 	0.72790 0.04550 0.44930 0.39300
C 	C 	0.56440 0.08200 0.40850 -0.04400
C 	C 	0.48590 0.08540 0.12080 -0.03000
C 	C 	0.30490 0.06470 0.07400 0.41500
C 	C 	0.80720 0.18210 0.83010 -0.05300
C 	C 	0.85010 0.12160 0.95050 0.33800
N 	N 	0.53270 0.12810 0.26680 -0.06800
O 	O 	0.77010 0.01080 0.57590 -0.49700
O 	O 	0.81620 0.05240 0.36420 -0.53200
O 	O 	0.25560 0.03200 0.94790 -0.48200
O 	O 	0.23230 0.07900 0.16330 -0.47200
O 	O 	0.91950 0.06460 0.91880 -0.58400
O 	O 	0.82150 0.13220 0.07760 -0.40600
Pr	Pr	0.00890 0.97600 0.78210 2.05100
C 	C 	0.27210 0.54550 0.55070 0.39400
C 	C 	0.43560 0.58200 0.59150 -0.04300
C 	C 	0.51410 0.58540 0.87920 -0.03000
C 	C 	0.69510 0.56470 0.92600 0.42400
C 	C 	0.19280 0.68210 0.16990 -0.05300
C 	C 	0.14990 0.62160 0.04950 0.33400
N 	N 	0.46730 0.62810 0.73320 -0.06800
O 	O 	0.22990 0.51080 0.42410 -0.49700
O 	O 	0.18380 0.55240 0.63580 -0.53100
O 	O 	0.74440 0.53200 0.05210 -0.49200
O 	O 	0.76770 0.57900 0.83670 -0.47500
O 	O 	0.08050 0.56460 0.08120 -0.58400
O 	O 	0.17850 0.63220 0.92240 -0.40200
Pr	Pr	0.99110 0.47600 0.21790 2.05400
C 	C 	0.27210 0.95450 0.55070 0.39400
C 	C 	0.43560 0.91800 0.59150 -0.04300
C 	C 	0.51410 0.91460 0.87920 -0.03000
C 	C 	0.69510 0.93530 0.92600 0.41500
C 	C 	0.19280 0.81790 0.16990 -0.05300
C 	C 	0.14990 0.87840 0.04950 0.33800
N 	N 	0.46730 0.87190 0.73320 -0.06800
O 	O 	0.22990 0.98920 0.42410 -0.49700
O 	O 	0.18380 0.94760 0.63580 -0.53200
O 	O 	0.74440 0.96800 0.05210 -0.48200
O 	O 	0.76770 0.92100 0.83670 -0.47200
O 	O 	0.08050 0.93540 0.08120 -0.58400
O 	O 	0.17850 0.86780 0.92240 -0.40600
Pr	Pr	0.99110 0.02400 0.21790 2.05100
C 	C 	0.72790 0.45450 0.44930 0.39400
C 	C 	0.56440 0.41800 0.40850 -0.04300
C 	C 	0.48590 0.41460 0.12080 -0.03000
C 	C 	0.30490 0.43530 0.07400 0.42400
C 	C 	0.80720 0.31790 0.83010 -0.05300
C 	C 	0.85010 0.37840 0.95050 0.33400
N 	N 	0.53270 0.37190 0.26680 -0.06800
O 	O 	0.77010 0.48920 0.57590 -0.49700
O 	O 	0.81620 0.44760 0.36420 -0.53100
O 	O 	0.25560 0.46800 0.94790 -0.49200
O 	O 	0.23230 0.42100 0.16330 -0.47500
O 	O 	0.91950 0.43540 0.91880 -0.58400
O 	O 	0.82150 0.36780 0.07760 -0.40200
Pr	Pr	0.00890 0.52400 0.78210 2.05400
N 	N 	0.78040 0.25000 0.91560 -0.06100
N 	N 	0.21960 0.75000 0.08440 -0.06100
