data_crystal

_cell_length_a 18.85200
_cell_length_b 18.85200
_cell_length_c 27.41700
_cell_angle_alpha 90.00000
_cell_angle_beta  90.00000
_cell_angle_gamma 90.00000

_symmetry_space_group_name_	'P 1'
_symmetry_space_group_name_H-M	'P 1'

loop_
_symmetry_equiv_pos_as_xyz
  x,y,z

loop_
_atom_site_label
_atom_site_type_symbol
_atom_site_fract_x
_atom_site_fract_y
_atom_site_fract_z
_atom_site_charge
O 	O 	0.18820 0.71180 0.81439 -0.41400
O 	O 	0.13220 0.76350 0.75122 -0.40100
C 	C 	0.13460 0.73600 0.79390 0.35800
C 	C 	0.06410 0.72860 0.81880 -0.08700
C 	C 	0.06290 0.71750 0.86870 -0.01900
H 	H 	0.10630 0.71300 0.88590 0.05400
C 	C 	0.97200 0.65630 0.97440 -0.03000
C 	C 	0.94340 0.59170 0.95130 -0.07500
C 	C 	0.91320 0.52840 0.97470 0.24800
C 	C 	0.02850 0.77660 0.97060 0.01000
C 	C 	0.04510 0.84290 0.95070 -0.05900
C 	C 	0.07350 0.90070 0.97520 0.15200
O 	O 	0.68820 0.21180 0.31439 -0.41200
O 	O 	0.63220 0.26350 0.25122 -0.40000
C 	C 	0.63460 0.23600 0.29390 0.35200
C 	C 	0.56410 0.22860 0.31880 -0.07600
C 	C 	0.56290 0.21750 0.36870 -0.03000
H 	H 	0.60630 0.21300 0.38590 0.05800
C 	C 	0.47200 0.15630 0.47440 0.02000
C 	C 	0.44340 0.09170 0.45130 -0.08800
C 	C 	0.41320 0.02840 0.47470 0.31700
C 	C 	0.52850 0.27660 0.47060 0.00100
C 	C 	0.54510 0.34290 0.45070 -0.00400
C 	C 	0.57350 0.40070 0.47520 0.00200
O 	O 	0.81180 0.28820 0.81439 -0.41600
O 	O 	0.86780 0.23650 0.75122 -0.40600
C 	C 	0.86540 0.26400 0.79390 0.35900
C 	C 	0.93590 0.27140 0.81880 -0.10100
C 	C 	0.93710 0.28250 0.86870 -0.03200
H 	H 	0.89370 0.28700 0.88590 0.05500
C 	C 	0.02800 0.34370 0.97440 -0.00200
C 	C 	0.05660 0.40830 0.95130 -0.06900
C 	C 	0.08680 0.47160 0.97470 0.24600
C 	C 	0.97150 0.22340 0.97060 -0.06800
C 	C 	0.95490 0.15710 0.95070 0.06600
C 	C 	0.92650 0.09930 0.97520 -0.19000
O 	O 	0.31180 0.78820 0.31439 -0.41400
O 	O 	0.36780 0.73650 0.25122 -0.40100
C 	C 	0.36540 0.76400 0.29390 0.35200
C 	C 	0.43590 0.77140 0.31880 -0.07900
C 	C 	0.43710 0.78250 0.36870 -0.02900
H 	H 	0.39370 0.78700 0.38590 0.05700
C 	C 	0.52800 0.84370 0.47440 0.01800
C 	C 	0.55660 0.90830 0.45130 -0.08100
C 	C 	0.58680 0.97160 0.47470 0.26800
C 	C 	0.47150 0.72340 0.47060 0.00100
C 	C 	0.45490 0.65710 0.45070 -0.00300
C 	C 	0.42650 0.59930 0.47520 -0.00200
O 	O 	0.28820 0.18820 0.81439 -0.41500
O 	O 	0.23650 0.13220 0.75122 -0.40000
C 	C 	0.26400 0.13460 0.79390 0.35700
C 	C 	0.27140 0.06410 0.81880 -0.08900
C 	C 	0.28250 0.06290 0.86870 -0.01800
H 	H 	0.28700 0.10630 0.88590 0.05100
C 	C 	0.34370 0.97200 0.97440 -0.03200
C 	C 	0.40830 0.94340 0.95130 -0.07500
C 	C 	0.47160 0.91320 0.97470 0.24800
C 	C 	0.22340 0.02850 0.97060 -0.00100
C 	C 	0.15710 0.04510 0.95070 -0.00300
C 	C 	0.09930 0.07350 0.97520 -0.01200
O 	O 	0.78820 0.68820 0.31439 -0.41500
O 	O 	0.73650 0.63220 0.25122 -0.40100
C 	C 	0.76400 0.63460 0.29390 0.35200
C 	C 	0.77140 0.56410 0.31880 -0.07900
C 	C 	0.78250 0.56290 0.36870 -0.02900
H 	H 	0.78700 0.60630 0.38590 0.05600
C 	C 	0.84370 0.47200 0.47440 0.01900
C 	C 	0.90830 0.44340 0.45130 -0.08100
C 	C 	0.97160 0.41320 0.47470 0.27000
C 	C 	0.72340 0.52850 0.47060 0.00100
C 	C 	0.65710 0.54510 0.45070 -0.00400
C 	C 	0.59930 0.57350 0.47520 -0.00000
O 	O 	0.71180 0.81180 0.81439 -0.41600
O 	O 	0.76350 0.86780 0.75122 -0.40800
C 	C 	0.73600 0.86540 0.79390 0.35800
C 	C 	0.72860 0.93590 0.81880 -0.10100
C 	C 	0.71750 0.93710 0.86870 -0.03400
H 	H 	0.71300 0.89370 0.88590 0.05700
C 	C 	0.65630 0.02800 0.97440 -0.00100
C 	C 	0.59170 0.05660 0.95130 -0.07000
C 	C 	0.52840 0.08680 0.97470 0.24600
C 	C 	0.77660 0.97150 0.97060 -0.05600
C 	C 	0.84290 0.95490 0.95070 0.01100
C 	C 	0.90070 0.92650 0.97520 -0.02600
O 	O 	0.21180 0.31180 0.31439 -0.41100
O 	O 	0.26350 0.36780 0.25122 -0.40000
C 	C 	0.23600 0.36540 0.29390 0.35200
C 	C 	0.22860 0.43590 0.31880 -0.07600
C 	C 	0.21750 0.43710 0.36870 -0.03000
H 	H 	0.21300 0.39370 0.38590 0.05900
C 	C 	0.15630 0.52800 0.47440 0.02000
C 	C 	0.09170 0.55660 0.45130 -0.08800
C 	C 	0.02840 0.58680 0.47470 0.31500
C 	C 	0.27660 0.47150 0.47060 0.00100
C 	C 	0.34290 0.45490 0.45070 -0.00300
C 	C 	0.40070 0.42650 0.47520 -0.00000
O 	O 	0.81180 0.71180 0.18561 -0.41200
O 	O 	0.86780 0.76350 0.24878 -0.40700
C 	C 	0.86540 0.73600 0.20610 0.35400
C 	C 	0.93590 0.72860 0.18120 -0.08900
C 	C 	0.93710 0.71750 0.13130 -0.05300
H 	H 	0.89370 0.71300 0.11410 0.06700
C 	C 	0.02800 0.65630 0.02560 0.05900
C 	C 	0.05660 0.59170 0.04870 -0.08000
C 	C 	0.08680 0.52840 0.02530 0.29100
C 	C 	0.97150 0.77660 0.02940 -0.00600
C 	C 	0.95490 0.84290 0.04930 -0.00200
C 	C 	0.92650 0.90070 0.02480 0.01100
O 	O 	0.31180 0.21180 0.68561 -0.41100
O 	O 	0.36780 0.26350 0.74878 -0.40200
C 	C 	0.36540 0.23600 0.70610 0.35200
C 	C 	0.43590 0.22860 0.68120 -0.07700
C 	C 	0.43710 0.21750 0.63130 -0.02900
H 	H 	0.39370 0.21300 0.61410 0.05900
C 	C 	0.52800 0.15630 0.52560 0.02000
C 	C 	0.55660 0.09170 0.54870 -0.08800
C 	C 	0.58680 0.02840 0.52530 0.31500
C 	C 	0.47150 0.27660 0.52940 0.00100
C 	C 	0.45490 0.34290 0.54930 -0.00300
C 	C 	0.42650 0.40070 0.52480 -0.00000
O 	O 	0.18820 0.28820 0.18561 -0.41100
O 	O 	0.13220 0.23650 0.24878 -0.39900
C 	C 	0.13460 0.26400 0.20610 0.35300
C 	C 	0.06410 0.27140 0.18120 -0.07700
C 	C 	0.06290 0.28250 0.13130 -0.03700
H 	H 	0.10630 0.28700 0.11410 0.06200
C 	C 	0.97200 0.34370 0.02560 0.02700
C 	C 	0.94340 0.40830 0.04870 -0.08500
C 	C 	0.91320 0.47160 0.02530 0.29300
C 	C 	0.02850 0.22340 0.02940 0.04900
C 	C 	0.04510 0.15710 0.04930 -0.01700
C 	C 	0.07350 0.09930 0.02480 0.02500
O 	O 	0.68820 0.78820 0.68561 -0.41500
O 	O 	0.63220 0.73650 0.74878 -0.40300
C 	C 	0.63460 0.76400 0.70610 0.35300
C 	C 	0.56410 0.77140 0.68120 -0.08000
C 	C 	0.56290 0.78250 0.63130 -0.02800
H 	H 	0.60630 0.78700 0.61410 0.05600
C 	C 	0.47200 0.84370 0.52560 0.01900
C 	C 	0.44340 0.90830 0.54870 -0.08100
C 	C 	0.41320 0.97160 0.52530 0.27100
C 	C 	0.52850 0.72340 0.52940 0.00100
C 	C 	0.54510 0.65710 0.54930 -0.00400
C 	C 	0.57350 0.59930 0.52480 -0.00000
O 	O 	0.71180 0.18820 0.18561 -0.41100
O 	O 	0.76350 0.13220 0.24878 -0.40100
C 	C 	0.73600 0.13460 0.20610 0.35300
C 	C 	0.72860 0.06410 0.18120 -0.07700
C 	C 	0.71750 0.06290 0.13130 -0.03900
H 	H 	0.71300 0.10630 0.11410 0.06300
C 	C 	0.65630 0.97200 0.02560 0.02800
C 	C 	0.59170 0.94340 0.04870 -0.08600
C 	C 	0.52840 0.91320 0.02530 0.29300
C 	C 	0.77660 0.02850 0.02940 0.06000
C 	C 	0.84290 0.04510 0.04930 -0.07200
C 	C 	0.90070 0.07350 0.02480 0.18900
O 	O 	0.21180 0.68820 0.68561 -0.41200
O 	O 	0.26350 0.63220 0.74878 -0.40200
C 	C 	0.23600 0.63460 0.70610 0.35300
C 	C 	0.22860 0.56410 0.68120 -0.07700
C 	C 	0.21750 0.56290 0.63130 -0.02900
H 	H 	0.21300 0.60630 0.61410 0.05800
C 	C 	0.15630 0.47200 0.52560 0.02000
C 	C 	0.09170 0.44340 0.54870 -0.08800
C 	C 	0.02840 0.41320 0.52530 0.31700
C 	C 	0.27660 0.52850 0.52940 0.00100
C 	C 	0.34290 0.54510 0.54930 -0.00400
C 	C 	0.40070 0.57350 0.52480 0.00200
O 	O 	0.28820 0.81180 0.18561 -0.41200
O 	O 	0.23650 0.86780 0.24878 -0.40500
C 	C 	0.26400 0.86540 0.20610 0.35400
C 	C 	0.27140 0.93590 0.18120 -0.08900
C 	C 	0.28250 0.93710 0.13130 -0.05100
H 	H 	0.28700 0.89370 0.11410 0.06600
C 	C 	0.34370 0.02800 0.02560 0.05800
C 	C 	0.40830 0.05660 0.04870 -0.08000
C 	C 	0.47160 0.08680 0.02530 0.29100
C 	C 	0.22340 0.97150 0.02940 -0.01800
C 	C 	0.15710 0.95490 0.04930 0.05300
C 	C 	0.09930 0.92650 0.02480 -0.15300
O 	O 	0.78820 0.31180 0.68561 -0.41400
O 	O 	0.73650 0.36780 0.74878 -0.40300
C 	C 	0.76400 0.36540 0.70610 0.35300
C 	C 	0.77140 0.43590 0.68120 -0.08000
C 	C 	0.78250 0.43710 0.63130 -0.02800
H 	H 	0.78700 0.39370 0.61410 0.05700
C 	C 	0.84370 0.52800 0.52560 0.01800
C 	C 	0.90830 0.55660 0.54870 -0.08100
C 	C 	0.97160 0.58680 0.52530 0.26900
C 	C 	0.72340 0.47150 0.52940 0.00100
C 	C 	0.65710 0.45490 0.54930 -0.00300
C 	C 	0.59930 0.42650 0.52480 -0.00200
O 	O 	0.81180 0.28820 0.18561 -0.41200
O 	O 	0.86780 0.23650 0.24878 -0.40500
C 	C 	0.86540 0.26400 0.20610 0.35400
C 	C 	0.93590 0.27140 0.18120 -0.08900
C 	C 	0.93710 0.28250 0.13130 -0.05100
H 	H 	0.89370 0.28700 0.11410 0.06600
C 	C 	0.02800 0.34370 0.02560 0.05800
C 	C 	0.05660 0.40830 0.04870 -0.08000
C 	C 	0.08680 0.47160 0.02530 0.29100
C 	C 	0.97150 0.22340 0.02940 -0.01800
C 	C 	0.95490 0.15710 0.04930 0.05300
C 	C 	0.92650 0.09930 0.02480 -0.15300
O 	O 	0.31180 0.78820 0.68561 -0.41400
O 	O 	0.36780 0.73650 0.74878 -0.40300
C 	C 	0.36540 0.76400 0.70610 0.35300
C 	C 	0.43590 0.77140 0.68120 -0.08000
C 	C 	0.43710 0.78250 0.63130 -0.02800
H 	H 	0.39370 0.78700 0.61410 0.05700
C 	C 	0.52800 0.84370 0.52560 0.01800
C 	C 	0.55660 0.90830 0.54870 -0.08100
C 	C 	0.58680 0.97160 0.52530 0.26900
C 	C 	0.47150 0.72340 0.52940 0.00100
C 	C 	0.45490 0.65710 0.54930 -0.00300
C 	C 	0.42650 0.59930 0.52480 -0.00200
O 	O 	0.18820 0.71180 0.18561 -0.41100
O 	O 	0.13220 0.76350 0.24878 -0.40100
C 	C 	0.13460 0.73600 0.20610 0.35300
C 	C 	0.06410 0.72860 0.18120 -0.07700
C 	C 	0.06290 0.71750 0.13130 -0.03900
H 	H 	0.10630 0.71300 0.11410 0.06300
C 	C 	0.97200 0.65630 0.02560 0.02800
C 	C 	0.94340 0.59170 0.04870 -0.08600
C 	C 	0.91320 0.52840 0.02530 0.29300
C 	C 	0.02850 0.77660 0.02940 0.06000
C 	C 	0.04510 0.84290 0.04930 -0.07200
C 	C 	0.07350 0.90070 0.02480 0.18900
O 	O 	0.68820 0.21180 0.68561 -0.41200
O 	O 	0.63220 0.26350 0.74878 -0.40200
C 	C 	0.63460 0.23600 0.70610 0.35300
C 	C 	0.56410 0.22860 0.68120 -0.07700
C 	C 	0.56290 0.21750 0.63130 -0.02900
H 	H 	0.60630 0.21300 0.61410 0.05800
C 	C 	0.47200 0.15630 0.52560 0.02000
C 	C 	0.44340 0.09170 0.54870 -0.08800
C 	C 	0.41320 0.02840 0.52530 0.31700
C 	C 	0.52850 0.27660 0.52940 0.00100
C 	C 	0.54510 0.34290 0.54930 -0.00400
C 	C 	0.57350 0.40070 0.52480 0.00200
O 	O 	0.71180 0.81180 0.18561 -0.41200
O 	O 	0.76350 0.86780 0.24878 -0.40700
C 	C 	0.73600 0.86540 0.20610 0.35400
C 	C 	0.72860 0.93590 0.18120 -0.08900
C 	C 	0.71750 0.93710 0.13130 -0.05300
H 	H 	0.71300 0.89370 0.11410 0.06700
C 	C 	0.65630 0.02800 0.02560 0.05900
C 	C 	0.59170 0.05660 0.04870 -0.08000
C 	C 	0.52840 0.08680 0.02530 0.29100
C 	C 	0.77660 0.97150 0.02940 -0.00600
C 	C 	0.84290 0.95490 0.04930 -0.00200
C 	C 	0.90070 0.92650 0.02480 0.01100
O 	O 	0.21180 0.31180 0.68561 -0.41100
O 	O 	0.26350 0.36780 0.74878 -0.40200
C 	C 	0.23600 0.36540 0.70610 0.35200
C 	C 	0.22860 0.43590 0.68120 -0.07700
C 	C 	0.21750 0.43710 0.63130 -0.02900
H 	H 	0.21300 0.39370 0.61410 0.05900
C 	C 	0.15630 0.52800 0.52560 0.02000
C 	C 	0.09170 0.55660 0.54870 -0.08800
C 	C 	0.02840 0.58680 0.52530 0.31500
C 	C 	0.27660 0.47150 0.52940 0.00100
C 	C 	0.34290 0.45490 0.54930 -0.00300
C 	C 	0.40070 0.42650 0.52480 -0.00000
O 	O 	0.28820 0.18820 0.18561 -0.41100
O 	O 	0.23650 0.13220 0.24878 -0.39900
C 	C 	0.26400 0.13460 0.20610 0.35300
C 	C 	0.27140 0.06410 0.18120 -0.07700
C 	C 	0.28250 0.06290 0.13130 -0.03700
H 	H 	0.28700 0.10630 0.11410 0.06200
C 	C 	0.34370 0.97200 0.02560 0.02700
C 	C 	0.40830 0.94340 0.04870 -0.08500
C 	C 	0.47160 0.91320 0.02530 0.29300
C 	C 	0.22340 0.02850 0.02940 0.04900
C 	C 	0.15710 0.04510 0.04930 -0.01700
C 	C 	0.09930 0.07350 0.02480 0.02500
O 	O 	0.78820 0.68820 0.68561 -0.41500
O 	O 	0.73650 0.63220 0.74878 -0.40300
C 	C 	0.76400 0.63460 0.70610 0.35300
C 	C 	0.77140 0.56410 0.68120 -0.08000
C 	C 	0.78250 0.56290 0.63130 -0.02800
H 	H 	0.78700 0.60630 0.61410 0.05600
C 	C 	0.84370 0.47200 0.52560 0.01900
C 	C 	0.90830 0.44340 0.54870 -0.08100
C 	C 	0.97160 0.41320 0.52530 0.27100
C 	C 	0.72340 0.52850 0.52940 0.00100
C 	C 	0.65710 0.54510 0.54930 -0.00400
C 	C 	0.59930 0.57350 0.52480 -0.00000
O 	O 	0.18820 0.28820 0.81439 -0.41500
O 	O 	0.13220 0.23650 0.75122 -0.40000
C 	C 	0.13460 0.26400 0.79390 0.35700
C 	C 	0.06410 0.27140 0.81880 -0.08900
C 	C 	0.06290 0.28250 0.86870 -0.01800
H 	H 	0.10630 0.28700 0.88590 0.05100
C 	C 	0.97200 0.34370 0.97440 -0.03200
C 	C 	0.94340 0.40830 0.95130 -0.07500
C 	C 	0.91320 0.47160 0.97470 0.24800
C 	C 	0.02850 0.22340 0.97060 -0.00100
C 	C 	0.04510 0.15710 0.95070 -0.00300
C 	C 	0.07350 0.09930 0.97520 -0.01200
O 	O 	0.68820 0.78820 0.31439 -0.41500
O 	O 	0.63220 0.73650 0.25122 -0.40100
C 	C 	0.63460 0.76400 0.29390 0.35200
C 	C 	0.56410 0.77140 0.31880 -0.07900
C 	C 	0.56290 0.78250 0.36870 -0.02900
H 	H 	0.60630 0.78700 0.38590 0.05600
C 	C 	0.47200 0.84370 0.47440 0.01900
C 	C 	0.44340 0.90830 0.45130 -0.08100
C 	C 	0.41320 0.97160 0.47470 0.27000
C 	C 	0.52850 0.72340 0.47060 0.00100
C 	C 	0.54510 0.65710 0.45070 -0.00400
C 	C 	0.57350 0.59930 0.47520 -0.00000
O 	O 	0.81180 0.71180 0.81439 -0.41600
O 	O 	0.86780 0.76350 0.75122 -0.40800
C 	C 	0.86540 0.73600 0.79390 0.35800
C 	C 	0.93590 0.72860 0.81880 -0.10100
C 	C 	0.93710 0.71750 0.86870 -0.03400
H 	H 	0.89370 0.71300 0.88590 0.05700
C 	C 	0.02800 0.65630 0.97440 -0.00100
C 	C 	0.05660 0.59170 0.95130 -0.07000
C 	C 	0.08680 0.52840 0.97470 0.24600
C 	C 	0.97150 0.77660 0.97060 -0.05600
C 	C 	0.95490 0.84290 0.95070 0.01100
C 	C 	0.92650 0.90070 0.97520 -0.02600
O 	O 	0.31180 0.21180 0.31439 -0.41100
O 	O 	0.36780 0.26350 0.25122 -0.40000
C 	C 	0.36540 0.23600 0.29390 0.35200
C 	C 	0.43590 0.22860 0.31880 -0.07600
C 	C 	0.43710 0.21750 0.36870 -0.03000
H 	H 	0.39370 0.21300 0.38590 0.05900
C 	C 	0.52800 0.15630 0.47440 0.02000
C 	C 	0.55660 0.09170 0.45130 -0.08800
C 	C 	0.58680 0.02840 0.47470 0.31500
C 	C 	0.47150 0.27660 0.47060 0.00100
C 	C 	0.45490 0.34290 0.45070 -0.00300
C 	C 	0.42650 0.40070 0.47520 -0.00000
O 	O 	0.28820 0.81180 0.81439 -0.41600
O 	O 	0.23650 0.86780 0.75122 -0.40600
C 	C 	0.26400 0.86540 0.79390 0.35900
C 	C 	0.27140 0.93590 0.81880 -0.10100
C 	C 	0.28250 0.93710 0.86870 -0.03200
H 	H 	0.28700 0.89370 0.88590 0.05500
C 	C 	0.34370 0.02800 0.97440 -0.00200
C 	C 	0.40830 0.05660 0.95130 -0.06900
C 	C 	0.47160 0.08680 0.97470 0.24600
C 	C 	0.22340 0.97150 0.97060 -0.06800
C 	C 	0.15710 0.95490 0.95070 0.06600
C 	C 	0.09930 0.92650 0.97520 -0.19000
O 	O 	0.78820 0.31180 0.31439 -0.41400
O 	O 	0.73650 0.36780 0.25122 -0.40100
C 	C 	0.76400 0.36540 0.29390 0.35200
C 	C 	0.77140 0.43590 0.31880 -0.07900
C 	C 	0.78250 0.43710 0.36870 -0.02900
H 	H 	0.78700 0.39370 0.38590 0.05700
C 	C 	0.84370 0.52800 0.47440 0.01800
C 	C 	0.90830 0.55660 0.45130 -0.08100
C 	C 	0.97160 0.58680 0.47470 0.26800
C 	C 	0.72340 0.47150 0.47060 0.00100
C 	C 	0.65710 0.45490 0.45070 -0.00300
C 	C 	0.59930 0.42650 0.47520 -0.00200
O 	O 	0.71180 0.18820 0.81439 -0.41500
O 	O 	0.76350 0.13220 0.75122 -0.40200
C 	C 	0.73600 0.13460 0.79390 0.35700
C 	C 	0.72860 0.06410 0.81880 -0.08800
C 	C 	0.71750 0.06290 0.86870 -0.02000
H 	H 	0.71300 0.10630 0.88590 0.05300
C 	C 	0.65630 0.97200 0.97440 -0.03100
C 	C 	0.59170 0.94340 0.95130 -0.07600
C 	C 	0.52840 0.91320 0.97470 0.24800
C 	C 	0.77660 0.02850 0.97060 0.01000
C 	C 	0.84290 0.04510 0.95070 -0.05900
C 	C 	0.90070 0.07350 0.97520 0.15200
O 	O 	0.21180 0.68820 0.31439 -0.41200
O 	O 	0.26350 0.63220 0.25122 -0.40000
C 	C 	0.23600 0.63460 0.29390 0.35200
C 	C 	0.22860 0.56410 0.31880 -0.07600
C 	C 	0.21750 0.56290 0.36870 -0.03000
H 	H 	0.21300 0.60630 0.38590 0.05800
C 	C 	0.15630 0.47200 0.47440 0.02000
C 	C 	0.09170 0.44340 0.45130 -0.08800
C 	C 	0.02840 0.41320 0.47470 0.31700
C 	C 	0.27660 0.52850 0.47060 0.00100
C 	C 	0.34290 0.54510 0.45070 -0.00400
C 	C 	0.40070 0.57350 0.47520 0.00200
Cu	Cu	0.28240 0.71760 0.78688 0.90700
Cu	Cu	0.78240 0.21760 0.28688 0.90700
Cu	Cu	0.71760 0.28240 0.78688 0.90700
Cu	Cu	0.21760 0.78240 0.28688 0.90700
Cu	Cu	0.28240 0.28240 0.78688 0.90700
Cu	Cu	0.78240 0.78240 0.28688 0.90600
Cu	Cu	0.71760 0.71760 0.78688 0.90700
Cu	Cu	0.21760 0.21760 0.28688 0.90900
Cu	Cu	0.71760 0.71760 0.21312 0.90900
Cu	Cu	0.21760 0.21760 0.71312 0.90900
Cu	Cu	0.28240 0.28240 0.21312 0.90800
Cu	Cu	0.78240 0.78240 0.71312 0.90700
Cu	Cu	0.71760 0.28240 0.21312 0.90800
Cu	Cu	0.21760 0.78240 0.71312 0.90800
Cu	Cu	0.28240 0.71760 0.21312 0.90800
Cu	Cu	0.78240 0.21760 0.71312 0.90800
C 	C 	0.00000 0.73540 0.79580 0.05800
H 	H 	0.00000 0.74530 0.76180 0.04500
C 	C 	0.00000 0.71280 0.89360 0.02800
C 	C 	0.00000 0.71500 0.95050 0.01500
C 	C 	0.50000 0.23540 0.29580 0.02800
H 	H 	0.50000 0.24530 0.26180 0.05100
C 	C 	0.50000 0.21280 0.39360 0.02800
C 	C 	0.50000 0.21500 0.45050 -0.02900
C 	C 	0.00000 0.26460 0.79580 0.05900
H 	H 	0.00000 0.25470 0.76180 0.04600
C 	C 	0.00000 0.28720 0.89360 0.02200
C 	C 	0.00000 0.28500 0.95050 0.02400
C 	C 	0.50000 0.76460 0.29580 0.02900
H 	H 	0.50000 0.75470 0.26180 0.05000
C 	C 	0.50000 0.78720 0.39360 0.02500
C 	C 	0.50000 0.78500 0.45050 -0.02800
C 	C 	0.26460 0.00000 0.79580 0.05900
H 	H 	0.25470 0.00000 0.76180 0.04600
C 	C 	0.28720 0.00000 0.89360 0.02200
C 	C 	0.28500 0.00000 0.95050 0.02400
C 	C 	0.76460 0.50000 0.29580 0.02900
H 	H 	0.75470 0.50000 0.26180 0.05000
C 	C 	0.78720 0.50000 0.39360 0.02500
C 	C 	0.78500 0.50000 0.45050 -0.02800
C 	C 	0.73540 0.00000 0.79580 0.05800
H 	H 	0.74530 0.00000 0.76180 0.04500
C 	C 	0.71280 0.00000 0.89360 0.02800
C 	C 	0.71500 0.00000 0.95050 0.01500
C 	C 	0.23540 0.50000 0.29580 0.02800
H 	H 	0.24530 0.50000 0.26180 0.05100
C 	C 	0.21280 0.50000 0.39360 0.02800
C 	C 	0.21500 0.50000 0.45050 -0.02900
C 	C 	0.00000 0.73540 0.20420 0.04700
H 	H 	0.00000 0.74530 0.23820 0.04800
C 	C 	0.00000 0.71280 0.10640 0.05500
C 	C 	0.00000 0.71500 0.04950 -0.04600
C 	C 	0.50000 0.23540 0.70420 0.02900
H 	H 	0.50000 0.24530 0.73820 0.05000
C 	C 	0.50000 0.21280 0.60640 0.02800
C 	C 	0.50000 0.21500 0.54950 -0.02900
C 	C 	0.00000 0.26460 0.20420 0.04800
H 	H 	0.00000 0.25470 0.23820 0.04900
C 	C 	0.00000 0.28720 0.10640 0.05000
C 	C 	0.00000 0.28500 0.04950 -0.03700
C 	C 	0.50000 0.76460 0.70420 0.03000
H 	H 	0.50000 0.75470 0.73820 0.04800
C 	C 	0.50000 0.78720 0.60640 0.02400
C 	C 	0.50000 0.78500 0.54950 -0.02800
C 	C 	0.73540 0.00000 0.20420 0.04700
H 	H 	0.74530 0.00000 0.23820 0.04800
C 	C 	0.71280 0.00000 0.10640 0.05500
C 	C 	0.71500 0.00000 0.04950 -0.04600
C 	C 	0.23540 0.50000 0.70420 0.02900
H 	H 	0.24530 0.50000 0.73820 0.05000
C 	C 	0.21280 0.50000 0.60640 0.02800
C 	C 	0.21500 0.50000 0.54950 -0.02900
C 	C 	0.26460 0.00000 0.20420 0.04800
H 	H 	0.25470 0.00000 0.23820 0.04900
C 	C 	0.28720 0.00000 0.10640 0.05000
C 	C 	0.28500 0.00000 0.04950 -0.03700
C 	C 	0.76460 0.50000 0.70420 0.03000
H 	H 	0.75470 0.50000 0.73820 0.04800
C 	C 	0.78720 0.50000 0.60640 0.02400
C 	C 	0.78500 0.50000 0.54950 -0.02800
O 	O 	0.93280 0.50000 -0.00000 -0.76400
O 	O 	0.43280 0.00000 0.50000 -0.82500
O 	O 	0.06720 0.50000 -0.00000 -0.75100
O 	O 	0.56720 0.00000 0.50000 -0.82100
O 	O 	0.50000 0.93280 -0.00000 -0.76400
O 	O 	0.00000 0.43280 0.50000 -0.82500
O 	O 	0.50000 0.06720 -0.00000 -0.75100
O 	O 	0.00000 0.56720 0.50000 -0.82100
