data_crystal

_cell_length_a 18.59440
_cell_length_b 18.59440
_cell_length_c 38.67100
_cell_angle_alpha 90.00000
_cell_angle_beta  90.00000
_cell_angle_gamma 120.00000

_symmetry_space_group_name_	'P 1'
_symmetry_space_group_name_H-M	'P 1'

loop_
_symmetry_equiv_pos_as_xyz
  x,y,z

loop_
_atom_site_label
_atom_site_type_symbol
_atom_site_fract_x
_atom_site_fract_y
_atom_site_fract_z
_atom_site_charge
F 	F 	0.29470 0.41160 0.78840 -0.40800
C 	C 	0.18050 0.27170 0.82161 -0.17700
H 	H 	0.19090 0.22890 0.81440 0.14800
C 	C 	0.22890 0.37010 0.81067 0.32600
C 	C 	0.06851 0.26567 0.74453 -0.06900
H 	H 	0.02960 0.27670 0.75590 0.11800
C 	C 	0.05330 0.23537 0.71084 -0.02300
C 	C 	0.97372 0.21449 0.69366 0.34000
O 	O 	0.96203 0.18460 0.66345 -0.38100
O 	O 	0.92191 0.22528 0.71068 -0.37900
F 	F 	0.96137 0.74493 0.12173 -0.40800
C 	C 	0.84717 0.60503 0.15494 -0.17700
H 	H 	0.85757 0.56223 0.14773 0.14800
C 	C 	0.89557 0.70343 0.14400 0.32600
C 	C 	0.73518 0.59900 0.07786 -0.06900
H 	H 	0.69627 0.61003 0.08923 0.11700
C 	C 	0.71997 0.56870 0.04417 -0.02400
C 	C 	0.64039 0.54782 0.02699 0.34100
O 	O 	0.62870 0.51793 0.99678 -0.38200
O 	O 	0.58858 0.55861 0.04401 -0.38000
F 	F 	0.62803 0.07827 0.45507 -0.40900
C 	C 	0.51383 0.93837 0.48828 -0.17800
H 	H 	0.52423 0.89557 0.48107 0.14700
C 	C 	0.56223 0.03677 0.47734 0.32500
C 	C 	0.40184 0.93234 0.41120 -0.07000
H 	H 	0.36293 0.94337 0.42257 0.11600
C 	C 	0.38663 0.90204 0.37751 -0.02500
C 	C 	0.30705 0.88116 0.36033 0.34000
O 	O 	0.29536 0.85127 0.33012 -0.38200
O 	O 	0.25524 0.89195 0.37735 -0.38000
F 	F 	0.58840 0.88310 0.78840 -0.40900
C 	C 	0.72830 0.90880 0.82161 -0.17800
H 	H 	0.77110 0.96200 0.81440 0.14700
C 	C 	0.62990 0.85880 0.81067 0.32500
C 	C 	0.73433 0.80284 0.74453 -0.07000
H 	H 	0.72330 0.75290 0.75590 0.11600
C 	C 	0.76463 0.81793 0.71084 -0.02400
C 	C 	0.78551 0.75923 0.69366 0.33900
O 	O 	0.81540 0.77743 0.66345 -0.38200
O 	O 	0.77472 0.69663 0.71068 -0.38000
F 	F 	0.25507 0.21643 0.12173 -0.40900
C 	C 	0.39497 0.24213 0.15494 -0.17800
H 	H 	0.43777 0.29533 0.14773 0.14700
C 	C 	0.29657 0.19213 0.14400 0.32500
C 	C 	0.40100 0.13617 0.07786 -0.07000
H 	H 	0.38997 0.08623 0.08923 0.11600
C 	C 	0.43130 0.15126 0.04417 -0.02500
C 	C 	0.45218 0.09256 0.02699 0.34000
O 	O 	0.48207 0.11076 0.99678 -0.38200
O 	O 	0.44139 0.02996 0.04401 -0.38000
F 	F 	0.92173 0.54977 0.45507 -0.40900
C 	C 	0.06163 0.57547 0.48828 -0.17800
H 	H 	0.10443 0.62867 0.48107 0.14700
C 	C 	0.96323 0.52547 0.47734 0.32500
C 	C 	0.06766 0.46951 0.41120 -0.07000
H 	H 	0.05663 0.41957 0.42257 0.11600
C 	C 	0.09796 0.48460 0.37751 -0.02500
C 	C 	0.11884 0.42590 0.36033 0.33900
O 	O 	0.14873 0.44410 0.33012 -0.38200
O 	O 	0.10805 0.36330 0.37735 -0.38000
F 	F 	0.11690 0.70530 0.78840 -0.40900
C 	C 	0.09120 0.81950 0.82161 -0.17800
H 	H 	0.03800 0.80910 0.81440 0.14700
C 	C 	0.14120 0.77110 0.81067 0.32500
C 	C 	0.19716 0.93149 0.74453 -0.07100
H 	H 	0.24710 0.97040 0.75590 0.11700
C 	C 	0.18207 0.94670 0.71084 -0.02400
C 	C 	0.24077 0.02628 0.69366 0.33900
O 	O 	0.22257 0.03797 0.66345 -0.38200
O 	O 	0.30337 0.07809 0.71068 -0.38000
F 	F 	0.78357 0.03863 0.12173 -0.40900
C 	C 	0.75787 0.15283 0.15494 -0.17800
H 	H 	0.70467 0.14243 0.14773 0.14700
C 	C 	0.80787 0.10443 0.14400 0.32500
C 	C 	0.86383 0.26482 0.07786 -0.07000
H 	H 	0.91377 0.30373 0.08923 0.11600
C 	C 	0.84874 0.28003 0.04417 -0.02500
C 	C 	0.90744 0.35961 0.02699 0.34000
O 	O 	0.88924 0.37130 0.99678 -0.38200
O 	O 	0.97004 0.41142 0.04401 -0.38000
F 	F 	0.45023 0.37197 0.45507 -0.40900
C 	C 	0.42453 0.48617 0.48828 -0.17800
H 	H 	0.37133 0.47577 0.48107 0.14700
C 	C 	0.47453 0.43777 0.47734 0.32500
C 	C 	0.53049 0.59816 0.41120 -0.07000
H 	H 	0.58043 0.63707 0.42257 0.11600
C 	C 	0.51540 0.61337 0.37751 -0.02500
C 	C 	0.57410 0.69295 0.36033 0.34000
O 	O 	0.55590 0.70464 0.33012 -0.38200
O 	O 	0.63670 0.74476 0.37735 -0.38000
F 	F 	0.41160 0.29470 0.21160 -0.40900
C 	C 	0.27170 0.18050 0.17839 -0.17800
H 	H 	0.22890 0.19090 0.18560 0.14700
C 	C 	0.37010 0.22890 0.18933 0.32500
C 	C 	0.26567 0.06851 0.25547 -0.07000
H 	H 	0.27670 0.02960 0.24410 0.11700
C 	C 	0.23537 0.05330 0.28916 -0.02400
C 	C 	0.21449 0.97372 0.30634 0.33900
O 	O 	0.18460 0.96203 0.33655 -0.38200
O 	O 	0.22528 0.92191 0.28932 -0.38000
F 	F 	0.07827 0.62803 0.54493 -0.40900
C 	C 	0.93837 0.51383 0.51172 -0.17800
H 	H 	0.89557 0.52423 0.51893 0.14700
C 	C 	0.03677 0.56223 0.52266 0.32500
C 	C 	0.93234 0.40184 0.58880 -0.07000
H 	H 	0.94337 0.36293 0.57743 0.11600
C 	C 	0.90204 0.38663 0.62249 -0.02500
C 	C 	0.88116 0.30705 0.63967 0.34000
O 	O 	0.85127 0.29536 0.66988 -0.38200
O 	O 	0.89195 0.25524 0.62265 -0.38000
F 	F 	0.74493 0.96137 0.87827 -0.40900
C 	C 	0.60503 0.84717 0.84506 -0.17800
H 	H 	0.56223 0.85757 0.85227 0.14700
C 	C 	0.70343 0.89557 0.85600 0.32500
C 	C 	0.59900 0.73518 0.92214 -0.07000
H 	H 	0.61003 0.69627 0.91077 0.11600
C 	C 	0.56870 0.71997 0.95583 -0.02500
C 	C 	0.54782 0.64039 0.97301 0.34000
O 	O 	0.51793 0.62870 0.00322 -0.38200
O 	O 	0.55861 0.58858 0.95599 -0.38000
F 	F 	0.88310 0.58840 0.21160 -0.40900
C 	C 	0.90880 0.72830 0.17839 -0.17800
H 	H 	0.96200 0.77110 0.18560 0.14700
C 	C 	0.85880 0.62990 0.18933 0.32500
C 	C 	0.80284 0.73433 0.25547 -0.07000
H 	H 	0.75290 0.72330 0.24410 0.11600
C 	C 	0.81793 0.76463 0.28916 -0.02400
C 	C 	0.75923 0.78551 0.30634 0.33900
O 	O 	0.77743 0.81540 0.33655 -0.38200
O 	O 	0.69663 0.77472 0.28932 -0.38000
F 	F 	0.54977 0.92173 0.54493 -0.40900
C 	C 	0.57547 0.06163 0.51172 -0.17800
H 	H 	0.62867 0.10443 0.51893 0.14700
C 	C 	0.52547 0.96323 0.52266 0.32500
C 	C 	0.46951 0.06766 0.58880 -0.07000
H 	H 	0.41957 0.05663 0.57743 0.11600
C 	C 	0.48460 0.09796 0.62249 -0.02500
C 	C 	0.42590 0.11884 0.63967 0.33900
O 	O 	0.44410 0.14873 0.66988 -0.38200
O 	O 	0.36330 0.10805 0.62265 -0.38000
F 	F 	0.21643 0.25507 0.87827 -0.40900
C 	C 	0.24213 0.39497 0.84506 -0.17800
H 	H 	0.29533 0.43777 0.85227 0.14700
C 	C 	0.19213 0.29657 0.85600 0.32500
C 	C 	0.13617 0.40100 0.92214 -0.07000
H 	H 	0.08623 0.38997 0.91077 0.11600
C 	C 	0.15126 0.43130 0.95583 -0.02500
C 	C 	0.09256 0.45218 0.97301 0.34000
O 	O 	0.11076 0.48207 0.00322 -0.38200
O 	O 	0.02996 0.44139 0.95599 -0.38000
F 	F 	0.70530 0.11690 0.21160 -0.40900
C 	C 	0.81950 0.09120 0.17839 -0.17800
H 	H 	0.80910 0.03800 0.18560 0.14700
C 	C 	0.77110 0.14120 0.18933 0.32500
C 	C 	0.93149 0.19716 0.25547 -0.07100
H 	H 	0.97040 0.24710 0.24410 0.11700
C 	C 	0.94670 0.18207 0.28916 -0.02400
C 	C 	0.02628 0.24077 0.30634 0.33900
O 	O 	0.03797 0.22257 0.33655 -0.38200
O 	O 	0.07809 0.30337 0.28932 -0.38000
F 	F 	0.37197 0.45023 0.54493 -0.40900
C 	C 	0.48617 0.42453 0.51172 -0.17800
H 	H 	0.47577 0.37133 0.51893 0.14700
C 	C 	0.43777 0.47453 0.52266 0.32500
C 	C 	0.59816 0.53049 0.58880 -0.07000
H 	H 	0.63707 0.58043 0.57743 0.11600
C 	C 	0.61337 0.51540 0.62249 -0.02500
C 	C 	0.69295 0.57410 0.63967 0.34000
O 	O 	0.70464 0.55590 0.66988 -0.38200
O 	O 	0.74476 0.63670 0.62265 -0.38000
F 	F 	0.03863 0.78357 0.87827 -0.40900
C 	C 	0.15283 0.75787 0.84506 -0.17800
H 	H 	0.14243 0.70467 0.85227 0.14700
C 	C 	0.10443 0.80787 0.85600 0.32500
C 	C 	0.26482 0.86383 0.92214 -0.07000
H 	H 	0.30373 0.91377 0.91077 0.11600
C 	C 	0.28003 0.84874 0.95583 -0.02500
C 	C 	0.35961 0.90744 0.97301 0.34000
O 	O 	0.37130 0.88924 0.00322 -0.38200
O 	O 	0.41142 0.97004 0.95599 -0.38000
F 	F 	0.70530 0.58840 0.21160 -0.40900
C 	C 	0.81950 0.72830 0.17839 -0.17800
H 	H 	0.80910 0.77110 0.18560 0.14700
C 	C 	0.77110 0.62990 0.18933 0.32500
C 	C 	0.93149 0.73433 0.25547 -0.07000
H 	H 	0.97040 0.72330 0.24410 0.11700
C 	C 	0.94670 0.76463 0.28916 -0.02400
C 	C 	0.02628 0.78551 0.30634 0.33900
O 	O 	0.03797 0.81540 0.33655 -0.38200
O 	O 	0.07809 0.77472 0.28932 -0.38000
F 	F 	0.37197 0.92173 0.54493 -0.40900
C 	C 	0.48617 0.06163 0.51172 -0.17800
H 	H 	0.47577 0.10443 0.51893 0.14700
C 	C 	0.43777 0.96323 0.52266 0.32500
C 	C 	0.59816 0.06766 0.58880 -0.07000
H 	H 	0.63707 0.05663 0.57743 0.11600
C 	C 	0.61337 0.09796 0.62249 -0.02500
C 	C 	0.69295 0.11884 0.63967 0.34000
O 	O 	0.70464 0.14873 0.66988 -0.38200
O 	O 	0.74476 0.10805 0.62265 -0.38000
F 	F 	0.03863 0.25507 0.87827 -0.40900
C 	C 	0.15283 0.39497 0.84506 -0.17800
H 	H 	0.14243 0.43777 0.85227 0.14700
C 	C 	0.10443 0.29657 0.85600 0.32500
C 	C 	0.26482 0.40100 0.92214 -0.07000
H 	H 	0.30373 0.38997 0.91077 0.11600
C 	C 	0.28003 0.43130 0.95583 -0.02500
C 	C 	0.35961 0.45218 0.97301 0.34000
O 	O 	0.37130 0.48207 0.00322 -0.38200
O 	O 	0.41142 0.44139 0.95599 -0.38000
F 	F 	0.41160 0.11690 0.21160 -0.40900
C 	C 	0.27170 0.09120 0.17839 -0.17800
H 	H 	0.22890 0.03800 0.18560 0.14700
C 	C 	0.37010 0.14120 0.18933 0.32500
C 	C 	0.26567 0.19716 0.25547 -0.07000
H 	H 	0.27670 0.24710 0.24410 0.11600
C 	C 	0.23537 0.18207 0.28916 -0.02400
C 	C 	0.21449 0.24077 0.30634 0.33900
O 	O 	0.18460 0.22257 0.33655 -0.38200
O 	O 	0.22528 0.30337 0.28932 -0.38000
F 	F 	0.07827 0.45023 0.54493 -0.40900
C 	C 	0.93837 0.42453 0.51172 -0.17800
H 	H 	0.89557 0.37133 0.51893 0.14700
C 	C 	0.03677 0.47453 0.52266 0.32500
C 	C 	0.93234 0.53049 0.58880 -0.07000
H 	H 	0.94337 0.58043 0.57743 0.11600
C 	C 	0.90204 0.51540 0.62249 -0.02500
C 	C 	0.88116 0.57410 0.63967 0.33900
O 	O 	0.85127 0.55590 0.66988 -0.38200
O 	O 	0.89195 0.63670 0.62265 -0.38000
F 	F 	0.74493 0.78357 0.87827 -0.40900
C 	C 	0.60503 0.75787 0.84506 -0.17800
H 	H 	0.56223 0.70467 0.85227 0.14700
C 	C 	0.70343 0.80787 0.85600 0.32500
C 	C 	0.59900 0.86383 0.92214 -0.07000
H 	H 	0.61003 0.91377 0.91077 0.11600
C 	C 	0.56870 0.84874 0.95583 -0.02500
C 	C 	0.54782 0.90744 0.97301 0.34000
O 	O 	0.51793 0.88924 0.00322 -0.38200
O 	O 	0.55861 0.97004 0.95599 -0.38000
F 	F 	0.88310 0.29470 0.21160 -0.40900
C 	C 	0.90880 0.18050 0.17839 -0.17800
H 	H 	0.96200 0.19090 0.18560 0.14700
C 	C 	0.85880 0.22890 0.18933 0.32500
C 	C 	0.80284 0.06851 0.25547 -0.07100
H 	H 	0.75290 0.02960 0.24410 0.11700
C 	C 	0.81793 0.05330 0.28916 -0.02400
C 	C 	0.75923 0.97372 0.30634 0.33900
O 	O 	0.77743 0.96203 0.33655 -0.38200
O 	O 	0.69663 0.92191 0.28932 -0.38000
F 	F 	0.54977 0.62803 0.54493 -0.40900
C 	C 	0.57547 0.51383 0.51172 -0.17800
H 	H 	0.62867 0.52423 0.51893 0.14700
C 	C 	0.52547 0.56223 0.52266 0.32500
C 	C 	0.46951 0.40184 0.58880 -0.07000
H 	H 	0.41957 0.36293 0.57743 0.11600
C 	C 	0.48460 0.38663 0.62249 -0.02500
C 	C 	0.42590 0.30705 0.63967 0.34000
O 	O 	0.44410 0.29536 0.66988 -0.38200
O 	O 	0.36330 0.25524 0.62265 -0.38000
F 	F 	0.21643 0.96137 0.87827 -0.40900
C 	C 	0.24213 0.84717 0.84506 -0.17800
H 	H 	0.29533 0.85757 0.85227 0.14700
C 	C 	0.19213 0.89557 0.85600 0.32500
C 	C 	0.13617 0.73518 0.92214 -0.07000
H 	H 	0.08623 0.69627 0.91077 0.11600
C 	C 	0.15126 0.71997 0.95583 -0.02500
C 	C 	0.09256 0.64039 0.97301 0.34000
O 	O 	0.11076 0.62870 0.00322 -0.38200
O 	O 	0.02996 0.58858 0.95599 -0.38000
F 	F 	0.58840 0.70530 0.78840 -0.40900
C 	C 	0.72830 0.81950 0.82161 -0.17800
H 	H 	0.77110 0.80910 0.81440 0.14700
C 	C 	0.62990 0.77110 0.81067 0.32500
C 	C 	0.73433 0.93149 0.74453 -0.07000
H 	H 	0.72330 0.97040 0.75590 0.11700
C 	C 	0.76463 0.94670 0.71084 -0.02400
C 	C 	0.78551 0.02628 0.69366 0.33900
O 	O 	0.81540 0.03797 0.66345 -0.38200
O 	O 	0.77472 0.07809 0.71068 -0.38000
F 	F 	0.25507 0.03863 0.12173 -0.40900
C 	C 	0.39497 0.15283 0.15494 -0.17800
H 	H 	0.43777 0.14243 0.14773 0.14700
C 	C 	0.29657 0.10443 0.14400 0.32500
C 	C 	0.40100 0.26482 0.07786 -0.07000
H 	H 	0.38997 0.30373 0.08923 0.11600
C 	C 	0.43130 0.28003 0.04417 -0.02500
C 	C 	0.45218 0.35961 0.02699 0.34000
O 	O 	0.48207 0.37130 0.99678 -0.38200
O 	O 	0.44139 0.41142 0.04401 -0.38000
F 	F 	0.92173 0.37197 0.45507 -0.40900
C 	C 	0.06163 0.48617 0.48828 -0.17800
H 	H 	0.10443 0.47577 0.48107 0.14700
C 	C 	0.96323 0.43777 0.47734 0.32500
C 	C 	0.06766 0.59816 0.41120 -0.07000
H 	H 	0.05663 0.63707 0.42257 0.11600
C 	C 	0.09796 0.61337 0.37751 -0.02500
C 	C 	0.11884 0.69295 0.36033 0.34000
O 	O 	0.14873 0.70464 0.33012 -0.38200
O 	O 	0.10805 0.74476 0.37735 -0.38000
F 	F 	0.11690 0.41160 0.78840 -0.40900
C 	C 	0.09120 0.27170 0.82161 -0.17800
H 	H 	0.03800 0.22890 0.81440 0.14700
C 	C 	0.14120 0.37010 0.81067 0.32500
C 	C 	0.19716 0.26567 0.74453 -0.07000
H 	H 	0.24710 0.27670 0.75590 0.11600
C 	C 	0.18207 0.23537 0.71084 -0.02400
C 	C 	0.24077 0.21449 0.69366 0.33900
O 	O 	0.22257 0.18460 0.66345 -0.38200
O 	O 	0.30337 0.22528 0.71068 -0.38000
F 	F 	0.78357 0.74493 0.12173 -0.40900
C 	C 	0.75787 0.60503 0.15494 -0.17800
H 	H 	0.70467 0.56223 0.14773 0.14700
C 	C 	0.80787 0.70343 0.14400 0.32500
C 	C 	0.86383 0.59900 0.07786 -0.07000
H 	H 	0.91377 0.61003 0.08923 0.11600
C 	C 	0.84874 0.56870 0.04417 -0.02500
C 	C 	0.90744 0.54782 0.02699 0.34000
O 	O 	0.88924 0.51793 0.99678 -0.38200
O 	O 	0.97004 0.55861 0.04401 -0.38000
F 	F 	0.45023 0.07827 0.45507 -0.40900
C 	C 	0.42453 0.93837 0.48828 -0.17800
H 	H 	0.37133 0.89557 0.48107 0.14700
C 	C 	0.47453 0.03677 0.47734 0.32500
C 	C 	0.53049 0.93234 0.41120 -0.07000
H 	H 	0.58043 0.94337 0.42257 0.11600
C 	C 	0.51540 0.90204 0.37751 -0.02500
C 	C 	0.57410 0.88116 0.36033 0.33900
O 	O 	0.55590 0.85127 0.33012 -0.38200
O 	O 	0.63670 0.89195 0.37735 -0.38000
F 	F 	0.29470 0.88310 0.78840 -0.40900
C 	C 	0.18050 0.90880 0.82161 -0.17800
H 	H 	0.19090 0.96200 0.81440 0.14700
C 	C 	0.22890 0.85880 0.81067 0.32500
C 	C 	0.06851 0.80284 0.74453 -0.07100
H 	H 	0.02960 0.75290 0.75590 0.11700
C 	C 	0.05330 0.81793 0.71084 -0.02400
C 	C 	0.97372 0.75923 0.69366 0.33900
O 	O 	0.96203 0.77743 0.66345 -0.38200
O 	O 	0.92191 0.69663 0.71068 -0.38000
F 	F 	0.96137 0.21643 0.12173 -0.40900
C 	C 	0.84717 0.24213 0.15494 -0.17800
H 	H 	0.85757 0.29533 0.14773 0.14700
C 	C 	0.89557 0.19213 0.14400 0.32500
C 	C 	0.73518 0.13617 0.07786 -0.07000
H 	H 	0.69627 0.08623 0.08923 0.11600
C 	C 	0.71997 0.15126 0.04417 -0.02500
C 	C 	0.64039 0.09256 0.02699 0.34000
O 	O 	0.62870 0.11076 0.99678 -0.38200
O 	O 	0.58858 0.02996 0.04401 -0.38000
F 	F 	0.62803 0.54977 0.45507 -0.40900
C 	C 	0.51383 0.57547 0.48828 -0.17800
H 	H 	0.52423 0.62867 0.48107 0.14700
C 	C 	0.56223 0.52547 0.47734 0.32500
C 	C 	0.40184 0.46951 0.41120 -0.07000
H 	H 	0.36293 0.41957 0.42257 0.11600
C 	C 	0.38663 0.48460 0.37751 -0.02500
C 	C 	0.30705 0.42590 0.36033 0.34000
O 	O 	0.29536 0.44410 0.33012 -0.38200
O 	O 	0.25524 0.36330 0.37735 -0.38000
Cu	Cu	0.85715 0.14285 0.63857 0.91300
Cu	Cu	0.52382 0.47618 0.97191 0.91300
Cu	Cu	0.19048 0.80952 0.30524 0.91300
Cu	Cu	0.85715 0.71430 0.63857 0.91300
Cu	Cu	0.52382 0.04763 0.97191 0.91300
Cu	Cu	0.19048 0.38097 0.30524 0.91300
Cu	Cu	0.28570 0.14285 0.63857 0.91300
Cu	Cu	0.95237 0.47618 0.97191 0.91300
Cu	Cu	0.61903 0.80952 0.30524 0.91300
Cu	Cu	0.14285 0.85715 0.36143 0.91300
Cu	Cu	0.80952 0.19048 0.69476 0.91300
Cu	Cu	0.47618 0.52382 0.02809 0.91300
Cu	Cu	0.71430 0.85715 0.36143 0.91300
Cu	Cu	0.38097 0.19048 0.69476 0.91300
Cu	Cu	0.04763 0.52382 0.02809 0.91300
Cu	Cu	0.14285 0.28570 0.36143 0.91300
Cu	Cu	0.80952 0.61903 0.69476 0.91300
Cu	Cu	0.47618 0.95237 0.02809 0.91300
C 	C 	0.15425 0.30850 0.79829 -0.08700
C 	C 	0.13995 0.27990 0.76170 0.13200
C 	C 	0.11045 0.22090 0.69388 -0.00700
H 	H 	0.10060 0.20120 0.67080 0.07900
C 	C 	0.82092 0.64183 0.13162 -0.08700
C 	C 	0.80662 0.61323 0.09503 0.13200
C 	C 	0.77712 0.55423 0.02721 -0.00600
H 	H 	0.76727 0.53453 0.00413 0.07900
C 	C 	0.48758 0.97517 0.46496 -0.08700
C 	C 	0.47328 0.94657 0.42837 0.13200
C 	C 	0.44378 0.88757 0.36055 -0.00600
H 	H 	0.43393 0.86787 0.33747 0.07900
C 	C 	0.69150 0.84575 0.79829 -0.08700
C 	C 	0.72010 0.86005 0.76170 0.13200
C 	C 	0.77910 0.88955 0.69388 -0.00700
H 	H 	0.79880 0.89940 0.67080 0.07900
C 	C 	0.35817 0.17908 0.13162 -0.08700
C 	C 	0.38677 0.19338 0.09503 0.13200
C 	C 	0.44577 0.22288 0.02721 -0.00600
H 	H 	0.46547 0.23273 0.00413 0.07900
C 	C 	0.02483 0.51242 0.46496 -0.08700
C 	C 	0.05343 0.52672 0.42837 0.13200
C 	C 	0.11243 0.55622 0.36055 -0.00600
H 	H 	0.13213 0.56607 0.33747 0.07900
C 	C 	0.15425 0.84575 0.79829 -0.08700
C 	C 	0.13995 0.86005 0.76170 0.13300
C 	C 	0.11045 0.88955 0.69388 -0.00700
H 	H 	0.10060 0.89940 0.67080 0.08000
C 	C 	0.82092 0.17908 0.13162 -0.08600
C 	C 	0.80662 0.19338 0.09503 0.13200
C 	C 	0.77712 0.22288 0.02721 -0.00600
H 	H 	0.76727 0.23273 0.00413 0.07900
C 	C 	0.48758 0.51242 0.46496 -0.08700
C 	C 	0.47328 0.52672 0.42837 0.13200
C 	C 	0.44378 0.55622 0.36055 -0.00600
H 	H 	0.43393 0.56607 0.33747 0.07900
C 	C 	0.30850 0.15425 0.20171 -0.08700
C 	C 	0.27990 0.13995 0.23830 0.13200
C 	C 	0.22090 0.11045 0.30612 -0.00700
H 	H 	0.20120 0.10060 0.32920 0.07900
C 	C 	0.97517 0.48758 0.53504 -0.08700
C 	C 	0.94657 0.47328 0.57163 0.13200
C 	C 	0.88757 0.44378 0.63945 -0.00600
H 	H 	0.86787 0.43393 0.66253 0.07900
C 	C 	0.64183 0.82092 0.86838 -0.08700
C 	C 	0.61323 0.80662 0.90497 0.13200
C 	C 	0.55423 0.77712 0.97279 -0.00600
H 	H 	0.53453 0.76727 0.99587 0.07900
C 	C 	0.84575 0.69150 0.20171 -0.08700
C 	C 	0.86005 0.72010 0.23830 0.13200
C 	C 	0.88955 0.77910 0.30612 -0.00700
H 	H 	0.89940 0.79880 0.32920 0.07900
C 	C 	0.51242 0.02483 0.53504 -0.08700
C 	C 	0.52672 0.05343 0.57163 0.13200
C 	C 	0.55622 0.11243 0.63945 -0.00600
H 	H 	0.56607 0.13213 0.66253 0.07900
C 	C 	0.17908 0.35817 0.86838 -0.08700
C 	C 	0.19338 0.38677 0.90497 0.13200
C 	C 	0.22288 0.44577 0.97279 -0.00600
H 	H 	0.23273 0.46547 0.99587 0.07900
C 	C 	0.84575 0.15425 0.20171 -0.08700
C 	C 	0.86005 0.13995 0.23830 0.13300
C 	C 	0.88955 0.11045 0.30612 -0.00700
H 	H 	0.89940 0.10060 0.32920 0.08000
C 	C 	0.51242 0.48758 0.53504 -0.08700
C 	C 	0.52672 0.47328 0.57163 0.13200
C 	C 	0.55622 0.44378 0.63945 -0.00600
H 	H 	0.56607 0.43393 0.66253 0.07900
C 	C 	0.17908 0.82092 0.86838 -0.08600
C 	C 	0.19338 0.80662 0.90497 0.13200
C 	C 	0.22288 0.77712 0.97279 -0.00600
H 	H 	0.23273 0.76727 0.99587 0.07900
