data_crystal

_cell_length_a 18.50400
_cell_length_b 18.50400
_cell_length_c 39.03500
_cell_angle_alpha 90.00000
_cell_angle_beta  90.00000
_cell_angle_gamma 120.00000

_symmetry_space_group_name_	'P 1'
_symmetry_space_group_name_H-M	'P 1'

loop_
_symmetry_equiv_pos_as_xyz
  x,y,z

loop_
_atom_site_label
_atom_site_type_symbol
_atom_site_fract_x
_atom_site_fract_y
_atom_site_fract_z
_atom_site_charge
C 	C 	0.02600 0.78270 0.30541 0.34700
C 	C 	0.94530 0.76060 0.28819 -0.08500
C 	C 	0.92980 0.73000 0.25543 -0.02500
H 	H 	0.96910 0.71920 0.24420 0.04600
C 	C 	0.85040 0.61720 0.18940 0.11200
C 	C 	0.90610 0.73460 0.17822 -0.10000
H 	H 	0.95550 0.78200 0.18630 0.06100
C 	C 	0.86620 0.56220 0.21300 -0.46600
H 	H 	0.85460 0.51110 0.20090 0.15000
H 	H 	0.82970 0.54770 0.23310 0.15200
H 	H 	0.92470 0.59200 0.22040 0.15800
O 	O 	0.07851 0.77315 0.28871 -0.40900
O 	O 	0.03816 0.81391 0.33559 -0.40600
C 	C 	0.69267 0.11603 0.63874 0.34800
C 	C 	0.61197 0.09393 0.62152 -0.08600
C 	C 	0.59647 0.06333 0.58876 -0.02400
H 	H 	0.63577 0.05253 0.57753 0.04600
C 	C 	0.51707 0.95053 0.52273 0.11200
C 	C 	0.57277 0.06793 0.51155 -0.10100
H 	H 	0.62217 0.11533 0.51963 0.06200
C 	C 	0.53287 0.89553 0.54633 -0.46600
H 	H 	0.52127 0.84443 0.53423 0.15000
H 	H 	0.49637 0.88103 0.56643 0.15200
H 	H 	0.59137 0.92533 0.55373 0.15800
O 	O 	0.74518 0.10648 0.62204 -0.40900
O 	O 	0.70483 0.14724 0.66892 -0.40600
C 	C 	0.35933 0.44937 0.97208 0.34700
C 	C 	0.27863 0.42727 0.95486 -0.08700
C 	C 	0.26313 0.39667 0.92210 -0.02500
H 	H 	0.30243 0.38587 0.91087 0.04500
C 	C 	0.18373 0.28387 0.85607 0.11100
C 	C 	0.23943 0.40127 0.84489 -0.10200
H 	H 	0.28883 0.44867 0.85297 0.06100
C 	C 	0.19953 0.22887 0.87967 -0.46700
H 	H 	0.18793 0.17777 0.86757 0.14900
H 	H 	0.16303 0.21437 0.89977 0.15100
H 	H 	0.25803 0.25867 0.88707 0.15700
O 	O 	0.41184 0.43982 0.95538 -0.41000
O 	O 	0.37149 0.48058 0.00226 -0.40700
C 	C 	0.21730 0.24330 0.30541 0.34700
C 	C 	0.23940 0.18470 0.28819 -0.08600
C 	C 	0.27000 0.19980 0.25543 -0.02500
H 	H 	0.28080 0.24990 0.24420 0.04500
C 	C 	0.38280 0.23320 0.18940 0.11100
C 	C 	0.26540 0.17150 0.17822 -0.10200
H 	H 	0.21800 0.17350 0.18630 0.06100
C 	C 	0.43780 0.30400 0.21300 -0.46700
H 	H 	0.48890 0.34350 0.20090 0.14900
H 	H 	0.45230 0.28200 0.23310 0.15100
H 	H 	0.40800 0.33270 0.22040 0.15700
O 	O 	0.22685 0.30536 0.28871 -0.41000
O 	O 	0.18609 0.22425 0.33559 -0.40600
C 	C 	0.88397 0.57663 0.63874 0.34700
C 	C 	0.90607 0.51803 0.62152 -0.08700
C 	C 	0.93667 0.53313 0.58876 -0.02500
H 	H 	0.94747 0.58323 0.57753 0.04500
C 	C 	0.04947 0.56653 0.52273 0.11100
C 	C 	0.93207 0.50483 0.51155 -0.10200
H 	H 	0.88467 0.50683 0.51963 0.06100
C 	C 	0.10447 0.63733 0.54633 -0.46700
H 	H 	0.15557 0.67683 0.53423 0.14900
H 	H 	0.11897 0.61533 0.56643 0.15100
H 	H 	0.07467 0.66603 0.55373 0.15700
O 	O 	0.89352 0.63869 0.62204 -0.41000
O 	O 	0.85276 0.55758 0.66892 -0.40600
C 	C 	0.55063 0.90997 0.97208 0.34700
C 	C 	0.57273 0.85137 0.95486 -0.08700
C 	C 	0.60333 0.86647 0.92210 -0.02500
H 	H 	0.61413 0.91657 0.91087 0.04500
C 	C 	0.71613 0.89987 0.85607 0.11000
C 	C 	0.59873 0.83817 0.84489 -0.10200
H 	H 	0.55133 0.84017 0.85297 0.06100
C 	C 	0.77113 0.97067 0.87967 -0.46500
H 	H 	0.82223 0.01017 0.86757 0.14800
H 	H 	0.78563 0.94867 0.89977 0.15100
H 	H 	0.74133 0.99937 0.88707 0.15600
O 	O 	0.56018 0.97203 0.95538 -0.41000
O 	O 	0.51942 0.89092 0.00226 -0.40700
C 	C 	0.75670 0.97400 0.30541 0.34600
C 	C 	0.81530 0.05470 0.28819 -0.08600
C 	C 	0.80020 0.07020 0.25543 -0.02600
H 	H 	0.75010 0.03090 0.24420 0.04600
C 	C 	0.76680 0.14960 0.18940 0.11100
C 	C 	0.82850 0.09390 0.17822 -0.10100
H 	H 	0.82650 0.04450 0.18630 0.06100
C 	C 	0.69600 0.13380 0.21300 -0.46700
H 	H 	0.65650 0.14540 0.20090 0.14900
H 	H 	0.71800 0.17030 0.23310 0.15100
H 	H 	0.66730 0.07530 0.22040 0.15700
O 	O 	0.69464 0.92149 0.28871 -0.41000
O 	O 	0.77575 0.96184 0.33559 -0.40600
C 	C 	0.42337 0.30733 0.63874 0.34700
C 	C 	0.48197 0.38803 0.62152 -0.08600
C 	C 	0.46687 0.40353 0.58876 -0.02500
H 	H 	0.41677 0.36423 0.57753 0.04500
C 	C 	0.43347 0.48293 0.52273 0.11100
C 	C 	0.49517 0.42723 0.51155 -0.10200
H 	H 	0.49317 0.37783 0.51963 0.06100
C 	C 	0.36267 0.46713 0.54633 -0.46700
H 	H 	0.32317 0.47873 0.53423 0.14900
H 	H 	0.38467 0.50363 0.56643 0.15100
H 	H 	0.33397 0.40863 0.55373 0.15700
O 	O 	0.36131 0.25482 0.62204 -0.41000
O 	O 	0.44242 0.29517 0.66892 -0.40600
C 	C 	0.09003 0.64067 0.97208 0.34700
C 	C 	0.14863 0.72137 0.95486 -0.08700
C 	C 	0.13353 0.73687 0.92210 -0.02500
H 	H 	0.08343 0.69757 0.91087 0.04500
C 	C 	0.10013 0.81627 0.85607 0.11000
C 	C 	0.16183 0.76057 0.84489 -0.10200
H 	H 	0.15983 0.71117 0.85297 0.06100
C 	C 	0.02933 0.80047 0.87967 -0.46600
H 	H 	0.98983 0.81207 0.86757 0.14800
H 	H 	0.05133 0.83697 0.89977 0.15100
H 	H 	0.00063 0.74197 0.88707 0.15600
O 	O 	0.02797 0.58816 0.95538 -0.41000
O 	O 	0.10908 0.62851 0.00226 -0.40700
C 	C 	0.78270 0.02600 0.69459 0.34600
C 	C 	0.76060 0.94530 0.71181 -0.08600
C 	C 	0.73000 0.92980 0.74457 -0.02600
H 	H 	0.71920 0.96910 0.75580 0.04500
C 	C 	0.61720 0.85040 0.81060 0.11100
C 	C 	0.73460 0.90610 0.82178 -0.10100
H 	H 	0.78200 0.95550 0.81370 0.06000
C 	C 	0.56220 0.86620 0.78700 -0.46700
H 	H 	0.51110 0.85460 0.79910 0.14900
H 	H 	0.54770 0.82970 0.76690 0.15100
H 	H 	0.59200 0.92470 0.77960 0.15700
O 	O 	0.77315 0.07851 0.71129 -0.41000
O 	O 	0.81391 0.03816 0.66441 -0.40700
C 	C 	0.44937 0.35933 0.02792 0.34700
C 	C 	0.42727 0.27863 0.04514 -0.08700
C 	C 	0.39667 0.26313 0.07790 -0.02500
H 	H 	0.38587 0.30243 0.08913 0.04500
C 	C 	0.28387 0.18373 0.14393 0.11100
C 	C 	0.40127 0.23943 0.15511 -0.10200
H 	H 	0.44867 0.28883 0.14703 0.06100
C 	C 	0.22887 0.19953 0.12033 -0.46700
H 	H 	0.17777 0.18793 0.13243 0.14900
H 	H 	0.21437 0.16303 0.10023 0.15100
H 	H 	0.25867 0.25803 0.11293 0.15700
O 	O 	0.43982 0.41184 0.04462 -0.41000
O 	O 	0.48058 0.37149 0.99774 -0.40700
C 	C 	0.11603 0.69267 0.36126 0.34700
C 	C 	0.09393 0.61197 0.37848 -0.08700
C 	C 	0.06333 0.59647 0.41124 -0.02500
H 	H 	0.05253 0.63577 0.42247 0.04500
C 	C 	0.95053 0.51707 0.47727 0.11100
C 	C 	0.06793 0.57277 0.48845 -0.10200
H 	H 	0.11533 0.62217 0.48037 0.06100
C 	C 	0.89553 0.53287 0.45367 -0.46700
H 	H 	0.84443 0.52127 0.46577 0.14900
H 	H 	0.88103 0.49637 0.43357 0.15100
H 	H 	0.92533 0.59137 0.44627 0.15700
O 	O 	0.10648 0.74518 0.37796 -0.41000
O 	O 	0.14724 0.70483 0.33108 -0.40700
C 	C 	0.24330 0.21730 0.69459 0.34700
C 	C 	0.18470 0.23940 0.71181 -0.08600
C 	C 	0.19980 0.27000 0.74457 -0.02500
H 	H 	0.24990 0.28080 0.75580 0.04500
C 	C 	0.23320 0.38280 0.81060 0.11100
C 	C 	0.17150 0.26540 0.82178 -0.10200
H 	H 	0.17350 0.21800 0.81370 0.06100
C 	C 	0.30400 0.43780 0.78700 -0.46700
H 	H 	0.34350 0.48890 0.79910 0.14900
H 	H 	0.28200 0.45230 0.76690 0.15100
H 	H 	0.33270 0.40800 0.77960 0.15700
O 	O 	0.30536 0.22685 0.71129 -0.41000
O 	O 	0.22425 0.18609 0.66441 -0.40600
C 	C 	0.90997 0.55063 0.02792 0.34700
C 	C 	0.85137 0.57273 0.04514 -0.08700
C 	C 	0.86647 0.60333 0.07790 -0.02500
H 	H 	0.91657 0.61413 0.08913 0.04500
C 	C 	0.89987 0.71613 0.14393 0.11000
C 	C 	0.83817 0.59873 0.15511 -0.10200
H 	H 	0.84017 0.55133 0.14703 0.06100
C 	C 	0.97067 0.77113 0.12033 -0.46500
H 	H 	0.01017 0.82223 0.13243 0.14800
H 	H 	0.94867 0.78563 0.10023 0.15100
H 	H 	0.99937 0.74133 0.11293 0.15600
O 	O 	0.97203 0.56018 0.04462 -0.41000
O 	O 	0.89092 0.51942 0.99774 -0.40700
C 	C 	0.57663 0.88397 0.36126 0.34700
C 	C 	0.51803 0.90607 0.37848 -0.08700
C 	C 	0.53313 0.93667 0.41124 -0.02500
H 	H 	0.58323 0.94747 0.42247 0.04500
C 	C 	0.56653 0.04947 0.47727 0.11100
C 	C 	0.50483 0.93207 0.48845 -0.10200
H 	H 	0.50683 0.88467 0.48037 0.06100
C 	C 	0.63733 0.10447 0.45367 -0.46700
H 	H 	0.67683 0.15557 0.46577 0.14900
H 	H 	0.61533 0.11897 0.43357 0.15100
H 	H 	0.66603 0.07467 0.44627 0.15700
O 	O 	0.63869 0.89352 0.37796 -0.41000
O 	O 	0.55758 0.85276 0.33108 -0.40600
C 	C 	0.97400 0.75670 0.69459 0.34600
C 	C 	0.05470 0.81530 0.71181 -0.08600
C 	C 	0.07020 0.80020 0.74457 -0.02600
H 	H 	0.03090 0.75010 0.75580 0.04600
C 	C 	0.14960 0.76680 0.81060 0.11100
C 	C 	0.09390 0.82850 0.82178 -0.10100
H 	H 	0.04450 0.82650 0.81370 0.06100
C 	C 	0.13380 0.69600 0.78700 -0.46700
H 	H 	0.14540 0.65650 0.79910 0.14900
H 	H 	0.17030 0.71800 0.76690 0.15100
H 	H 	0.07530 0.66730 0.77960 0.15700
O 	O 	0.92149 0.69464 0.71129 -0.41000
O 	O 	0.96184 0.77575 0.66441 -0.40600
C 	C 	0.64067 0.09003 0.02792 0.34700
C 	C 	0.72137 0.14863 0.04514 -0.08700
C 	C 	0.73687 0.13353 0.07790 -0.02500
H 	H 	0.69757 0.08343 0.08913 0.04500
C 	C 	0.81627 0.10013 0.14393 0.11000
C 	C 	0.76057 0.16183 0.15511 -0.10200
H 	H 	0.71117 0.15983 0.14703 0.06100
C 	C 	0.80047 0.02933 0.12033 -0.46600
H 	H 	0.81207 0.98983 0.13243 0.14800
H 	H 	0.83697 0.05133 0.10023 0.15100
H 	H 	0.74197 0.00063 0.11293 0.15600
O 	O 	0.58816 0.02797 0.04462 -0.41000
O 	O 	0.62851 0.10908 0.99774 -0.40700
C 	C 	0.30733 0.42337 0.36126 0.34700
C 	C 	0.38803 0.48197 0.37848 -0.08600
C 	C 	0.40353 0.46687 0.41124 -0.02500
H 	H 	0.36423 0.41677 0.42247 0.04500
C 	C 	0.48293 0.43347 0.47727 0.11100
C 	C 	0.42723 0.49517 0.48845 -0.10200
H 	H 	0.37783 0.49317 0.48037 0.06100
C 	C 	0.46713 0.36267 0.45367 -0.46700
H 	H 	0.47873 0.32317 0.46577 0.14900
H 	H 	0.50363 0.38467 0.43357 0.15100
H 	H 	0.40863 0.33397 0.44627 0.15700
O 	O 	0.25482 0.36131 0.37796 -0.41000
O 	O 	0.29517 0.44242 0.33108 -0.40600
C 	C 	0.97400 0.21730 0.69459 0.34600
C 	C 	0.05470 0.23940 0.71181 -0.08600
C 	C 	0.07020 0.27000 0.74457 -0.02600
H 	H 	0.03090 0.28080 0.75580 0.04500
C 	C 	0.14960 0.38280 0.81060 0.11100
C 	C 	0.09390 0.26540 0.82178 -0.10100
H 	H 	0.04450 0.21800 0.81370 0.06000
C 	C 	0.13380 0.43780 0.78700 -0.46700
H 	H 	0.14540 0.48890 0.79910 0.14900
H 	H 	0.17030 0.45230 0.76690 0.15100
H 	H 	0.07530 0.40800 0.77960 0.15700
O 	O 	0.92149 0.22685 0.71129 -0.41000
O 	O 	0.96184 0.18609 0.66441 -0.40700
C 	C 	0.64067 0.55063 0.02792 0.34700
C 	C 	0.72137 0.57273 0.04514 -0.08700
C 	C 	0.73687 0.60333 0.07790 -0.02500
H 	H 	0.69757 0.61413 0.08913 0.04500
C 	C 	0.81627 0.71613 0.14393 0.11100
C 	C 	0.76057 0.59873 0.15511 -0.10200
H 	H 	0.71117 0.55133 0.14703 0.06100
C 	C 	0.80047 0.77113 0.12033 -0.46700
H 	H 	0.81207 0.82223 0.13243 0.14900
H 	H 	0.83697 0.78563 0.10023 0.15100
H 	H 	0.74197 0.74133 0.11293 0.15700
O 	O 	0.58816 0.56018 0.04462 -0.41000
O 	O 	0.62851 0.51942 0.99774 -0.40700
C 	C 	0.30733 0.88397 0.36126 0.34700
C 	C 	0.38803 0.90607 0.37848 -0.08700
C 	C 	0.40353 0.93667 0.41124 -0.02500
H 	H 	0.36423 0.94747 0.42247 0.04500
C 	C 	0.48293 0.04947 0.47727 0.11100
C 	C 	0.42723 0.93207 0.48845 -0.10200
H 	H 	0.37783 0.88467 0.48037 0.06100
C 	C 	0.46713 0.10447 0.45367 -0.46700
H 	H 	0.47873 0.15557 0.46577 0.14900
H 	H 	0.50363 0.11897 0.43357 0.15100
H 	H 	0.40863 0.07467 0.44627 0.15700
O 	O 	0.25482 0.89352 0.37796 -0.41000
O 	O 	0.29517 0.85276 0.33108 -0.40700
C 	C 	0.78270 0.75670 0.69459 0.34700
C 	C 	0.76060 0.81530 0.71181 -0.08600
C 	C 	0.73000 0.80020 0.74457 -0.02500
H 	H 	0.71920 0.75010 0.75580 0.04500
C 	C 	0.61720 0.76680 0.81060 0.11100
C 	C 	0.73460 0.82850 0.82178 -0.10200
H 	H 	0.78200 0.82650 0.81370 0.06100
C 	C 	0.56220 0.69600 0.78700 -0.46700
H 	H 	0.51110 0.65650 0.79910 0.14900
H 	H 	0.54770 0.71800 0.76690 0.15100
H 	H 	0.59200 0.66730 0.77960 0.15700
O 	O 	0.77315 0.69464 0.71129 -0.41000
O 	O 	0.81391 0.77575 0.66441 -0.40600
C 	C 	0.44937 0.09003 0.02792 0.34700
C 	C 	0.42727 0.14863 0.04514 -0.08700
C 	C 	0.39667 0.13353 0.07790 -0.02500
H 	H 	0.38587 0.08343 0.08913 0.04500
C 	C 	0.28387 0.10013 0.14393 0.11000
C 	C 	0.40127 0.16183 0.15511 -0.10200
H 	H 	0.44867 0.15983 0.14703 0.06100
C 	C 	0.22887 0.02933 0.12033 -0.46500
H 	H 	0.17777 0.98983 0.13243 0.14800
H 	H 	0.21437 0.05133 0.10023 0.15100
H 	H 	0.25867 0.00063 0.11293 0.15600
O 	O 	0.43982 0.02797 0.04462 -0.41000
O 	O 	0.48058 0.10908 0.99774 -0.40700
C 	C 	0.11603 0.42337 0.36126 0.34700
C 	C 	0.09393 0.48197 0.37848 -0.08700
C 	C 	0.06333 0.46687 0.41124 -0.02500
H 	H 	0.05253 0.41677 0.42247 0.04500
C 	C 	0.95053 0.43347 0.47727 0.11100
C 	C 	0.06793 0.49517 0.48845 -0.10200
H 	H 	0.11533 0.49317 0.48037 0.06100
C 	C 	0.89553 0.36267 0.45367 -0.46700
H 	H 	0.84443 0.32317 0.46577 0.14900
H 	H 	0.88103 0.38467 0.43357 0.15100
H 	H 	0.92533 0.33397 0.44627 0.15700
O 	O 	0.10648 0.36131 0.37796 -0.41000
O 	O 	0.14724 0.44242 0.33108 -0.40600
C 	C 	0.24330 0.02600 0.69459 0.34600
C 	C 	0.18470 0.94530 0.71181 -0.08600
C 	C 	0.19980 0.92980 0.74457 -0.02600
H 	H 	0.24990 0.96910 0.75580 0.04600
C 	C 	0.23320 0.85040 0.81060 0.11100
C 	C 	0.17150 0.90610 0.82178 -0.10100
H 	H 	0.17350 0.95550 0.81370 0.06100
C 	C 	0.30400 0.86620 0.78700 -0.46700
H 	H 	0.34350 0.85460 0.79910 0.14900
H 	H 	0.28200 0.82970 0.76690 0.15100
H 	H 	0.33270 0.92470 0.77960 0.15700
O 	O 	0.30536 0.07851 0.71129 -0.41000
O 	O 	0.22425 0.03816 0.66441 -0.40600
C 	C 	0.90997 0.35933 0.02792 0.34700
C 	C 	0.85137 0.27863 0.04514 -0.08700
C 	C 	0.86647 0.26313 0.07790 -0.02500
H 	H 	0.91657 0.30243 0.08913 0.04500
C 	C 	0.89987 0.18373 0.14393 0.11000
C 	C 	0.83817 0.23943 0.15511 -0.10200
H 	H 	0.84017 0.28883 0.14703 0.06100
C 	C 	0.97067 0.19953 0.12033 -0.46600
H 	H 	0.01017 0.18793 0.13243 0.14800
H 	H 	0.94867 0.16303 0.10023 0.15100
H 	H 	0.99937 0.25803 0.11293 0.15600
O 	O 	0.97203 0.41184 0.04462 -0.41000
O 	O 	0.89092 0.37149 0.99774 -0.40700
C 	C 	0.57663 0.69267 0.36126 0.34700
C 	C 	0.51803 0.61197 0.37848 -0.08600
C 	C 	0.53313 0.59647 0.41124 -0.02500
H 	H 	0.58323 0.63577 0.42247 0.04500
C 	C 	0.56653 0.51707 0.47727 0.11100
C 	C 	0.50483 0.57277 0.48845 -0.10200
H 	H 	0.50683 0.62217 0.48037 0.06100
C 	C 	0.63733 0.53287 0.45367 -0.46700
H 	H 	0.67683 0.52127 0.46577 0.14900
H 	H 	0.61533 0.49637 0.43357 0.15100
H 	H 	0.66603 0.59137 0.44627 0.15700
O 	O 	0.63869 0.74518 0.37796 -0.41000
O 	O 	0.55758 0.70483 0.33108 -0.40600
C 	C 	0.21730 0.97400 0.30541 0.34600
C 	C 	0.23940 0.05470 0.28819 -0.08600
C 	C 	0.27000 0.07020 0.25543 -0.02600
H 	H 	0.28080 0.03090 0.24420 0.04500
C 	C 	0.38280 0.14960 0.18940 0.11100
C 	C 	0.26540 0.09390 0.17822 -0.10100
H 	H 	0.21800 0.04450 0.18630 0.06000
C 	C 	0.43780 0.13380 0.21300 -0.46700
H 	H 	0.48890 0.14540 0.20090 0.14900
H 	H 	0.45230 0.17030 0.23310 0.15100
H 	H 	0.40800 0.07530 0.22040 0.15700
O 	O 	0.22685 0.92149 0.28871 -0.41000
O 	O 	0.18609 0.96184 0.33559 -0.40700
C 	C 	0.88397 0.30733 0.63874 0.34700
C 	C 	0.90607 0.38803 0.62152 -0.08700
C 	C 	0.93667 0.40353 0.58876 -0.02500
H 	H 	0.94747 0.36423 0.57753 0.04500
C 	C 	0.04947 0.48293 0.52273 0.11100
C 	C 	0.93207 0.42723 0.51155 -0.10200
H 	H 	0.88467 0.37783 0.51963 0.06100
C 	C 	0.10447 0.46713 0.54633 -0.46700
H 	H 	0.15557 0.47873 0.53423 0.14900
H 	H 	0.11897 0.50363 0.56643 0.15100
H 	H 	0.07467 0.40863 0.55373 0.15700
O 	O 	0.89352 0.25482 0.62204 -0.41000
O 	O 	0.85276 0.29517 0.66892 -0.40700
C 	C 	0.55063 0.64067 0.97208 0.34700
C 	C 	0.57273 0.72137 0.95486 -0.08700
C 	C 	0.60333 0.73687 0.92210 -0.02500
H 	H 	0.61413 0.69757 0.91087 0.04500
C 	C 	0.71613 0.81627 0.85607 0.11100
C 	C 	0.59873 0.76057 0.84489 -0.10200
H 	H 	0.55133 0.71117 0.85297 0.06100
C 	C 	0.77113 0.80047 0.87967 -0.46700
H 	H 	0.82223 0.81207 0.86757 0.14900
H 	H 	0.78563 0.83697 0.89977 0.15100
H 	H 	0.74133 0.74197 0.88707 0.15700
O 	O 	0.56018 0.58816 0.95538 -0.41000
O 	O 	0.51942 0.62851 0.00226 -0.40700
C 	C 	0.75670 0.78270 0.30541 0.34700
C 	C 	0.81530 0.76060 0.28819 -0.08600
C 	C 	0.80020 0.73000 0.25543 -0.02500
H 	H 	0.75010 0.71920 0.24420 0.04500
C 	C 	0.76680 0.61720 0.18940 0.11100
C 	C 	0.82850 0.73460 0.17822 -0.10200
H 	H 	0.82650 0.78200 0.18630 0.06100
C 	C 	0.69600 0.56220 0.21300 -0.46700
H 	H 	0.65650 0.51110 0.20090 0.14900
H 	H 	0.71800 0.54770 0.23310 0.15100
H 	H 	0.66730 0.59200 0.22040 0.15700
O 	O 	0.69464 0.77315 0.28871 -0.41000
O 	O 	0.77575 0.81391 0.33559 -0.40600
C 	C 	0.42337 0.11603 0.63874 0.34700
C 	C 	0.48197 0.09393 0.62152 -0.08700
C 	C 	0.46687 0.06333 0.58876 -0.02500
H 	H 	0.41677 0.05253 0.57753 0.04500
C 	C 	0.43347 0.95053 0.52273 0.11100
C 	C 	0.49517 0.06793 0.51155 -0.10200
H 	H 	0.49317 0.11533 0.51963 0.06100
C 	C 	0.36267 0.89553 0.54633 -0.46700
H 	H 	0.32317 0.84443 0.53423 0.14900
H 	H 	0.38467 0.88103 0.56643 0.15100
H 	H 	0.33397 0.92533 0.55373 0.15700
O 	O 	0.36131 0.10648 0.62204 -0.41000
O 	O 	0.44242 0.14724 0.66892 -0.40600
C 	C 	0.09003 0.44937 0.97208 0.34700
C 	C 	0.14863 0.42727 0.95486 -0.08700
C 	C 	0.13353 0.39667 0.92210 -0.02500
H 	H 	0.08343 0.38587 0.91087 0.04500
C 	C 	0.10013 0.28387 0.85607 0.11000
C 	C 	0.16183 0.40127 0.84489 -0.10200
H 	H 	0.15983 0.44867 0.85297 0.06100
C 	C 	0.02933 0.22887 0.87967 -0.46500
H 	H 	0.98983 0.17777 0.86757 0.14800
H 	H 	0.05133 0.21437 0.89977 0.15100
H 	H 	0.00063 0.25867 0.88707 0.15600
O 	O 	0.02797 0.43982 0.95538 -0.41000
O 	O 	0.10908 0.48058 0.00226 -0.40700
C 	C 	0.02600 0.24330 0.30541 0.34600
C 	C 	0.94530 0.18470 0.28819 -0.08600
C 	C 	0.92980 0.19980 0.25543 -0.02600
H 	H 	0.96910 0.24990 0.24420 0.04600
C 	C 	0.85040 0.23320 0.18940 0.11100
C 	C 	0.90610 0.17150 0.17822 -0.10100
H 	H 	0.95550 0.17350 0.18630 0.06100
C 	C 	0.86620 0.30400 0.21300 -0.46700
H 	H 	0.85460 0.34350 0.20090 0.14900
H 	H 	0.82970 0.28200 0.23310 0.15100
H 	H 	0.92470 0.33270 0.22040 0.15700
O 	O 	0.07851 0.30536 0.28871 -0.41000
O 	O 	0.03816 0.22425 0.33559 -0.40600
C 	C 	0.69267 0.57663 0.63874 0.34700
C 	C 	0.61197 0.51803 0.62152 -0.08600
C 	C 	0.59647 0.53313 0.58876 -0.02500
H 	H 	0.63577 0.58323 0.57753 0.04500
C 	C 	0.51707 0.56653 0.52273 0.11100
C 	C 	0.57277 0.50483 0.51155 -0.10200
H 	H 	0.62217 0.50683 0.51963 0.06100
C 	C 	0.53287 0.63733 0.54633 -0.46700
H 	H 	0.52127 0.67683 0.53423 0.14900
H 	H 	0.49637 0.61533 0.56643 0.15100
H 	H 	0.59137 0.66603 0.55373 0.15700
O 	O 	0.74518 0.63869 0.62204 -0.41000
O 	O 	0.70483 0.55758 0.66892 -0.40600
C 	C 	0.35933 0.90997 0.97208 0.34700
C 	C 	0.27863 0.85137 0.95486 -0.08700
C 	C 	0.26313 0.86647 0.92210 -0.02500
H 	H 	0.30243 0.91657 0.91087 0.04500
C 	C 	0.18373 0.89987 0.85607 0.11000
C 	C 	0.23943 0.83817 0.84489 -0.10200
H 	H 	0.28883 0.84017 0.85297 0.06100
C 	C 	0.19953 0.97067 0.87967 -0.46600
H 	H 	0.18793 0.01017 0.86757 0.14800
H 	H 	0.16303 0.94867 0.89977 0.15100
H 	H 	0.25803 0.99937 0.88707 0.15600
O 	O 	0.41184 0.97203 0.95538 -0.41000
O 	O 	0.37149 0.89092 0.00226 -0.40700
Cu	Cu	0.19098 0.80902 0.30598 0.90300
Cu	Cu	0.85765 0.14235 0.63931 0.90300
Cu	Cu	0.52432 0.47568 0.97264 0.90300
Cu	Cu	0.19098 0.38196 0.30598 0.90300
Cu	Cu	0.85765 0.71530 0.63931 0.90300
Cu	Cu	0.52432 0.04863 0.97264 0.90300
Cu	Cu	0.61804 0.80902 0.30598 0.90300
Cu	Cu	0.28470 0.14235 0.63931 0.90300
Cu	Cu	0.95137 0.47568 0.97264 0.90300
Cu	Cu	0.80902 0.19098 0.69402 0.90300
Cu	Cu	0.47568 0.52432 0.02736 0.90300
Cu	Cu	0.14235 0.85765 0.36069 0.90300
Cu	Cu	0.38196 0.19098 0.69402 0.90300
Cu	Cu	0.04863 0.52432 0.02736 0.90300
Cu	Cu	0.71530 0.85765 0.36069 0.90300
Cu	Cu	0.80902 0.61804 0.69402 0.90300
Cu	Cu	0.47568 0.95137 0.02736 0.90300
Cu	Cu	0.14235 0.28470 0.36069 0.90300
C 	C 	0.88845 0.77690 0.30458 0.02200
H 	H 	0.89965 0.79930 0.32710 0.04800
C 	C 	0.85725 0.71450 0.23815 0.00200
C 	C 	0.84370 0.68740 0.20182 -0.02400
C 	C 	0.55512 0.11023 0.63791 0.02300
H 	H 	0.56632 0.13263 0.66043 0.04800
C 	C 	0.52392 0.04783 0.57148 0.00200
C 	C 	0.51037 0.02073 0.53515 -0.02400
C 	C 	0.22178 0.44357 0.97125 0.02300
H 	H 	0.23298 0.46597 0.99377 0.04800
C 	C 	0.19058 0.38117 0.90482 0.00200
C 	C 	0.17703 0.35407 0.86849 -0.02400
C 	C 	0.22310 0.11155 0.30458 0.02200
H 	H 	0.20070 0.10035 0.32710 0.04800
C 	C 	0.28550 0.14275 0.23815 0.00200
C 	C 	0.31260 0.15630 0.20182 -0.02400
C 	C 	0.88977 0.44488 0.63791 0.02300
H 	H 	0.86737 0.43368 0.66043 0.04800
C 	C 	0.95217 0.47608 0.57148 0.00200
C 	C 	0.97927 0.48963 0.53515 -0.02400
C 	C 	0.55643 0.77822 0.97125 0.02300
H 	H 	0.53403 0.76702 0.99377 0.04800
C 	C 	0.61883 0.80942 0.90482 0.00200
C 	C 	0.64593 0.82297 0.86849 -0.02400
C 	C 	0.88845 0.11155 0.30458 0.02200
H 	H 	0.89965 0.10035 0.32710 0.04900
C 	C 	0.85725 0.14275 0.23815 0.00200
C 	C 	0.84370 0.15630 0.20182 -0.02400
C 	C 	0.55512 0.44488 0.63791 0.02300
H 	H 	0.56632 0.43368 0.66043 0.04800
C 	C 	0.52392 0.47608 0.57148 0.00200
C 	C 	0.51037 0.48963 0.53515 -0.02400
C 	C 	0.22178 0.77822 0.97125 0.02300
H 	H 	0.23298 0.76702 0.99377 0.04800
C 	C 	0.19058 0.80942 0.90482 0.00200
C 	C 	0.17703 0.82297 0.86849 -0.02300
C 	C 	0.77690 0.88845 0.69542 0.02200
H 	H 	0.79930 0.89965 0.67290 0.04800
C 	C 	0.71450 0.85725 0.76185 0.00200
C 	C 	0.68740 0.84370 0.79818 -0.02400
C 	C 	0.44357 0.22178 0.02875 0.02300
H 	H 	0.46597 0.23298 0.00623 0.04800
C 	C 	0.38117 0.19058 0.09518 0.00200
C 	C 	0.35407 0.17703 0.13151 -0.02400
C 	C 	0.11023 0.55512 0.36209 0.02300
H 	H 	0.13263 0.56632 0.33957 0.04800
C 	C 	0.04783 0.52392 0.42852 0.00200
C 	C 	0.02073 0.51037 0.46485 -0.02400
C 	C 	0.11155 0.22310 0.69542 0.02200
H 	H 	0.10035 0.20070 0.67290 0.04800
C 	C 	0.14275 0.28550 0.76185 0.00200
C 	C 	0.15630 0.31260 0.79818 -0.02400
C 	C 	0.77822 0.55643 0.02875 0.02300
H 	H 	0.76702 0.53403 0.00623 0.04800
C 	C 	0.80942 0.61883 0.09518 0.00200
C 	C 	0.82297 0.64593 0.13151 -0.02400
C 	C 	0.44488 0.88977 0.36209 0.02300
H 	H 	0.43368 0.86737 0.33957 0.04800
C 	C 	0.47608 0.95217 0.42852 0.00200
C 	C 	0.48963 0.97927 0.46485 -0.02400
C 	C 	0.11155 0.88845 0.69542 0.02200
H 	H 	0.10035 0.89965 0.67290 0.04900
C 	C 	0.14275 0.85725 0.76185 0.00200
C 	C 	0.15630 0.84370 0.79818 -0.02400
C 	C 	0.77822 0.22178 0.02875 0.02300
H 	H 	0.76702 0.23298 0.00623 0.04800
C 	C 	0.80942 0.19058 0.09518 0.00200
C 	C 	0.82297 0.17703 0.13151 -0.02300
C 	C 	0.44488 0.55512 0.36209 0.02300
H 	H 	0.43368 0.56632 0.33957 0.04800
C 	C 	0.47608 0.52392 0.42852 0.00200
C 	C 	0.48963 0.51037 0.46485 -0.02400
