data_crystal

_cell_length_a 8.83830
_cell_length_b 18.45430
_cell_length_c 18.06080
_cell_angle_alpha 90.00000
_cell_angle_beta  92.57200
_cell_angle_gamma 90.00000

_symmetry_space_group_name_	'P 1'
_symmetry_space_group_name_H-M	'P 1'

loop_
_symmetry_equiv_pos_as_xyz
  x,y,z

loop_
_atom_site_label
_atom_site_type_symbol
_atom_site_fract_x
_atom_site_fract_y
_atom_site_fract_z
_atom_site_charge
Dy	Dy	0.26379 0.31496 0.15925 2.05500
Dy	Dy	0.29013 0.20404 0.70841 2.03500
O 	O 	0.14160 0.23620 0.07520 -0.47200
O 	O 	0.90920 0.23600 0.11960 -0.54300
O 	O 	0.02260 0.19280 0.94040 -0.13500
O 	O 	0.90800 0.13920 0.75710 -0.51400
O 	O 	0.12770 0.18610 0.80190 -0.49200
O 	O 	0.95610 0.63120 0.78250 -0.54300
O 	O 	0.17690 0.57780 0.77320 -0.41500
O 	O 	0.05000 0.45020 0.73140 -0.12800
O 	O 	0.94090 0.27540 0.66680 -0.51600
O 	O 	0.16560 0.31650 0.71090 -0.44500
O 	O 	0.14700 0.15580 0.61550 -0.53000
O 	O 	0.92110 0.17150 0.55730 -0.43300
O 	O 	0.05270 0.19620 0.42820 -0.12400
O 	O 	0.94670 0.23650 0.29180 -0.48800
O 	O 	0.18080 0.23640 0.24980 -0.51000
O 	O 	0.28100 0.44390 0.13450 -0.26500
O 	O 	0.11430 0.38610 0.06810 -0.26800
C 	C 	0.00330 0.22350 0.07080 0.45100
C 	C 	0.93610 0.19170 0.00020 -0.00700
C 	C 	0.80110 0.15860 0.98370 -0.03200
H 	H 	0.72390 0.14990 0.01590 0.05600
C 	C 	0.80200 0.14040 0.90880 -0.01400
H 	H 	0.72460 0.11770 0.88100 0.04000
C 	C 	0.93640 0.16210 0.88450 -0.02300
C 	C 	0.99580 0.16320 0.80840 0.45400
C 	C 	0.03390 0.57640 0.76680 0.36800
C 	C 	0.95700 0.51050 0.74020 0.00700
C 	C 	0.81150 0.49230 0.72060 -0.03300
H 	H 	0.72720 0.52240 0.72210 0.06300
C 	C 	0.81290 0.41850 0.69730 -0.00900
H 	H 	0.73000 0.39140 0.67990 0.05100
C 	C 	0.95770 0.39550 0.70550 -0.01800
C 	C 	0.02600 0.32390 0.69350 0.43600
C 	C 	0.06190 0.16560 0.55820 0.45300
C 	C 	0.13800 0.16940 0.48710 -0.01500
C 	C 	0.27940 0.15150 0.46740 -0.01500
H 	H 	0.35730 0.13230 0.49770 0.07200
C 	C 	0.28370 0.16860 0.39010 0.00100
H 	H 	0.36530 0.16170 0.36000 0.05900
C 	C 	0.14760 0.19640 0.36910 -0.03200
C 	C 	0.08690 0.22500 0.29820 0.46400
O 	O 	0.08200 0.50110 0.07700 -0.06500
N 	N 	0.14900 0.44580 0.09210 0.03900
O 	O 	0.19400 0.49730 0.03330 -0.05500
N 	N 	0.21300 0.44110 0.07410 0.03500
Dy	Dy	0.23621 0.81496 0.34075 2.05600
Dy	Dy	0.20987 0.70404 0.79159 2.03700
O 	O 	0.35840 0.73620 0.42480 -0.47100
O 	O 	0.59080 0.73600 0.38040 -0.54400
O 	O 	0.47740 0.69280 0.55960 -0.13300
O 	O 	0.59200 0.63920 0.74290 -0.51400
O 	O 	0.37230 0.68610 0.69810 -0.49200
O 	O 	0.54390 0.13120 0.71750 -0.54200
O 	O 	0.32310 0.07780 0.72680 -0.41500
O 	O 	0.45000 0.95020 0.76860 -0.12900
O 	O 	0.55910 0.77540 0.83320 -0.51700
O 	O 	0.33440 0.81650 0.78910 -0.44500
O 	O 	0.35300 0.65580 0.88450 -0.53000
O 	O 	0.57890 0.67150 0.94270 -0.43500
O 	O 	0.44730 0.69620 0.07180 -0.12300
O 	O 	0.55330 0.73650 0.20820 -0.48900
O 	O 	0.31920 0.73640 0.25020 -0.51100
O 	O 	0.21900 0.94390 0.36550 -0.26400
O 	O 	0.38570 0.88610 0.43190 -0.26800
C 	C 	0.49670 0.72350 0.42920 0.45500
C 	C 	0.56390 0.69170 0.49980 -0.01100
C 	C 	0.69890 0.65860 0.51630 -0.02900
H 	H 	0.77610 0.64990 0.48410 0.05400
C 	C 	0.69800 0.64040 0.59120 -0.01600
H 	H 	0.77540 0.61770 0.61900 0.04000
C 	C 	0.56360 0.66210 0.61550 -0.02300
C 	C 	0.50420 0.66320 0.69160 0.45300
C 	C 	0.46610 0.07640 0.73320 0.36600
C 	C 	0.54300 0.01050 0.75980 0.00900
C 	C 	0.68850 0.99230 0.77940 -0.03700
H 	H 	0.77280 0.02240 0.77790 0.06400
C 	C 	0.68710 0.91850 0.80270 -0.00800
H 	H 	0.77000 0.89140 0.82010 0.05000
C 	C 	0.54230 0.89550 0.79450 -0.01900
C 	C 	0.47400 0.82390 0.80650 0.43600
C 	C 	0.43810 0.66560 0.94180 0.45400
C 	C 	0.36200 0.66940 0.01290 -0.01600
C 	C 	0.22060 0.65150 0.03260 -0.01500
H 	H 	0.14270 0.63230 0.00230 0.07200
C 	C 	0.21630 0.66860 0.10990 0.00100
H 	H 	0.13470 0.66170 0.14000 0.05900
C 	C 	0.35240 0.69640 0.13090 -0.03200
C 	C 	0.41310 0.72500 0.20180 0.46600
O 	O 	0.41800 0.00110 0.42300 -0.06500
N 	N 	0.35100 0.94580 0.40790 0.03900
O 	O 	0.30600 0.99730 0.46670 -0.05500
N 	N 	0.28700 0.94110 0.42590 0.03500
Dy	Dy	0.73621 0.68504 0.84075 2.05600
Dy	Dy	0.70987 0.79596 0.29159 2.03600
O 	O 	0.85840 0.76380 0.92480 -0.47100
O 	O 	0.09080 0.76400 0.88040 -0.54200
O 	O 	0.97740 0.80720 0.05960 -0.13500
O 	O 	0.09200 0.86080 0.24290 -0.51400
O 	O 	0.87230 0.81390 0.19810 -0.49200
O 	O 	0.04390 0.36880 0.21750 -0.54300
O 	O 	0.82310 0.42220 0.22680 -0.41500
O 	O 	0.95000 0.54980 0.26860 -0.12800
O 	O 	0.05910 0.72460 0.33320 -0.51600
O 	O 	0.83440 0.68350 0.28910 -0.44500
O 	O 	0.85300 0.84420 0.38450 -0.53000
O 	O 	0.07890 0.82850 0.44270 -0.43300
O 	O 	0.94730 0.80380 0.57180 -0.12400
O 	O 	0.05330 0.76350 0.70820 -0.48800
O 	O 	0.81920 0.76360 0.75020 -0.51000
O 	O 	0.71900 0.55610 0.86550 -0.26500
O 	O 	0.88570 0.61390 0.93190 -0.26800
C 	C 	0.99670 0.77650 0.92920 0.45100
C 	C 	0.06390 0.80830 0.99980 -0.00700
C 	C 	0.19890 0.84140 0.01630 -0.03200
H 	H 	0.27610 0.85010 0.98410 0.05600
C 	C 	0.19800 0.85960 0.09120 -0.01400
H 	H 	0.27540 0.88230 0.11900 0.04000
C 	C 	0.06360 0.83790 0.11550 -0.02300
C 	C 	0.00420 0.83680 0.19160 0.45400
C 	C 	0.96610 0.42360 0.23320 0.36800
C 	C 	0.04300 0.48950 0.25980 0.00700
C 	C 	0.18850 0.50770 0.27940 -0.03300
H 	H 	0.27280 0.47760 0.27790 0.06300
C 	C 	0.18710 0.58150 0.30270 -0.00900
H 	H 	0.27000 0.60860 0.32010 0.05100
C 	C 	0.04230 0.60450 0.29450 -0.01800
C 	C 	0.97400 0.67610 0.30650 0.43600
C 	C 	0.93810 0.83440 0.44180 0.45300
C 	C 	0.86200 0.83060 0.51290 -0.01500
C 	C 	0.72060 0.84850 0.53260 -0.01500
H 	H 	0.64270 0.86770 0.50230 0.07200
C 	C 	0.71630 0.83140 0.60990 0.00100
H 	H 	0.63470 0.83830 0.64000 0.05900
C 	C 	0.85240 0.80360 0.63090 -0.03200
C 	C 	0.91310 0.77500 0.70180 0.46400
O 	O 	0.91800 0.49890 0.92300 -0.06500
N 	N 	0.85100 0.55420 0.90790 0.03900
O 	O 	0.80600 0.50270 0.96670 -0.05500
N 	N 	0.78700 0.55890 0.92590 0.03500
Dy	Dy	0.76379 0.18504 0.65925 2.05600
Dy	Dy	0.79013 0.29596 0.20841 2.03700
O 	O 	0.64160 0.26380 0.57520 -0.47100
O 	O 	0.40920 0.26400 0.61960 -0.54400
O 	O 	0.52260 0.30720 0.44040 -0.13300
O 	O 	0.40800 0.36080 0.25710 -0.51400
O 	O 	0.62770 0.31390 0.30190 -0.49200
O 	O 	0.45610 0.86880 0.28250 -0.54200
O 	O 	0.67690 0.92220 0.27320 -0.41500
O 	O 	0.55000 0.04980 0.23140 -0.12900
O 	O 	0.44090 0.22460 0.16680 -0.51700
O 	O 	0.66560 0.18350 0.21090 -0.44500
O 	O 	0.64700 0.34420 0.11550 -0.53000
O 	O 	0.42110 0.32850 0.05730 -0.43500
O 	O 	0.55270 0.30380 0.92820 -0.12300
O 	O 	0.44670 0.26350 0.79180 -0.48900
O 	O 	0.68080 0.26360 0.74980 -0.51100
O 	O 	0.78100 0.05610 0.63450 -0.26400
O 	O 	0.61430 0.11390 0.56810 -0.26800
C 	C 	0.50330 0.27650 0.57080 0.45500
C 	C 	0.43610 0.30830 0.50020 -0.01100
C 	C 	0.30110 0.34140 0.48370 -0.02900
H 	H 	0.22390 0.35010 0.51590 0.05400
C 	C 	0.30200 0.35960 0.40880 -0.01600
H 	H 	0.22460 0.38230 0.38100 0.04000
C 	C 	0.43640 0.33790 0.38450 -0.02300
C 	C 	0.49580 0.33680 0.30840 0.45300
C 	C 	0.53390 0.92360 0.26680 0.36600
C 	C 	0.45700 0.98950 0.24020 0.00900
C 	C 	0.31150 0.00770 0.22060 -0.03700
H 	H 	0.22720 0.97760 0.22210 0.06400
C 	C 	0.31290 0.08150 0.19730 -0.00800
H 	H 	0.23000 0.10860 0.17990 0.05000
C 	C 	0.45770 0.10450 0.20550 -0.01900
C 	C 	0.52600 0.17610 0.19350 0.43600
C 	C 	0.56190 0.33440 0.05820 0.45400
C 	C 	0.63800 0.33060 0.98710 -0.01600
C 	C 	0.77940 0.34850 0.96740 -0.01500
H 	H 	0.85730 0.36770 0.99770 0.07200
C 	C 	0.78370 0.33140 0.89010 0.00100
H 	H 	0.86530 0.33830 0.86000 0.05900
C 	C 	0.64760 0.30360 0.86910 -0.03200
C 	C 	0.58690 0.27500 0.79820 0.46600
O 	O 	0.58200 0.99890 0.57700 -0.06500
N 	N 	0.64900 0.05420 0.59210 0.03900
O 	O 	0.69400 0.00270 0.53330 -0.05500
N 	N 	0.71300 0.05890 0.57410 0.03500
