data_crystal

_cell_length_a 15.36830
_cell_length_b 15.36830
_cell_length_c 9.89500
_cell_angle_alpha 90.00000
_cell_angle_beta  90.00000
_cell_angle_gamma 90.00000

_symmetry_space_group_name_	'P 1'
_symmetry_space_group_name_H-M	'P 1'

loop_
_symmetry_equiv_pos_as_xyz
  x,y,z

loop_
_atom_site_label
_atom_site_type_symbol
_atom_site_fract_x
_atom_site_fract_y
_atom_site_fract_z
_atom_site_charge
O 	O 	0.12862 0.03213 0.12170 -0.49200
C 	C 	0.25741 0.88776 0.87770 0.06100
H 	H 	0.24030 0.91290 0.79640 0.07200
C 	C 	0.30617 0.81287 0.87930 -0.06300
H 	H 	0.32260 0.78760 0.79780 0.07600
O 	O 	0.87138 0.96787 0.12170 -0.37600
C 	C 	0.74259 0.11224 0.87770 0.25600
H 	H 	0.75970 0.08710 0.79640 -0.05700
C 	C 	0.69383 0.18713 0.87930 -0.22600
H 	H 	0.67740 0.21240 0.79780 0.12500
O 	O 	0.96787 0.12862 0.12170 -0.42700
C 	C 	0.11224 0.25741 0.87770 0.26800
H 	H 	0.08710 0.24030 0.79640 -0.06400
C 	C 	0.18713 0.30617 0.87930 -0.23800
H 	H 	0.21240 0.32260 0.79780 0.12800
O 	O 	0.03213 0.87138 0.12170 -0.42900
C 	C 	0.88776 0.74259 0.87770 0.06700
H 	H 	0.91290 0.75970 0.79640 0.06900
C 	C 	0.81287 0.69383 0.87930 -0.06300
H 	H 	0.78760 0.67740 0.79780 0.07800
O 	O 	0.87138 0.03213 0.37830 -0.43300
C 	C 	0.74259 0.88776 0.62230 0.03300
H 	H 	0.75970 0.91290 0.70360 0.08000
C 	C 	0.69383 0.81287 0.62070 -0.11000
H 	H 	0.67740 0.78760 0.70220 0.09400
O 	O 	0.12862 0.96787 0.37830 -0.43300
C 	C 	0.25741 0.11224 0.62230 0.24600
H 	H 	0.24030 0.08710 0.70360 -0.05700
C 	C 	0.30617 0.18713 0.62070 -0.29000
H 	H 	0.32260 0.21240 0.70220 0.14500
O 	O 	0.03213 0.12862 0.37830 -0.49500
C 	C 	0.88776 0.25741 0.62230 0.03000
H 	H 	0.91290 0.24030 0.70360 0.08300
C 	C 	0.81287 0.30617 0.62070 -0.10900
H 	H 	0.78760 0.32260 0.70220 0.09300
O 	O 	0.96787 0.87138 0.37830 -0.38200
C 	C 	0.11224 0.74259 0.62230 0.23200
H 	H 	0.08710 0.75970 0.70360 -0.05000
C 	C 	0.18713 0.69383 0.62070 -0.27800
H 	H 	0.21240 0.67740 0.70220 0.14200
O 	O 	0.87138 0.96787 0.87830 -0.34800
C 	C 	0.74259 0.11224 0.12230 0.22500
H 	H 	0.75970 0.08710 0.20360 -0.05200
C 	C 	0.69383 0.18713 0.12070 -0.26100
H 	H 	0.67740 0.21240 0.20220 0.12800
O 	O 	0.12862 0.03213 0.87830 -0.46700
C 	C 	0.25741 0.88776 0.12230 0.03000
H 	H 	0.24030 0.91290 0.20360 0.07800
C 	C 	0.30617 0.81287 0.12070 -0.09700
H 	H 	0.32260 0.78760 0.20220 0.08100
O 	O 	0.03213 0.87138 0.87830 -0.40400
C 	C 	0.88776 0.74259 0.12230 0.03400
H 	H 	0.91290 0.75970 0.20360 0.07500
C 	C 	0.81287 0.69383 0.12070 -0.09800
H 	H 	0.78760 0.67740 0.20220 0.08200
O 	O 	0.96787 0.12862 0.87830 -0.40000
C 	C 	0.11224 0.25741 0.12230 0.23900
H 	H 	0.08710 0.24030 0.20360 -0.05900
C 	C 	0.18713 0.30617 0.12070 -0.27200
H 	H 	0.21240 0.32260 0.20220 0.13100
O 	O 	0.12862 0.96787 0.62170 -0.43200
C 	C 	0.25741 0.11224 0.37770 0.24500
H 	H 	0.24030 0.08710 0.29640 -0.06100
C 	C 	0.30617 0.18713 0.37930 -0.29000
H 	H 	0.32260 0.21240 0.29780 0.13700
O 	O 	0.87138 0.03213 0.62170 -0.43300
C 	C 	0.74259 0.88776 0.37770 0.03200
H 	H 	0.75970 0.91290 0.29640 0.07600
C 	C 	0.69383 0.81287 0.37930 -0.11100
H 	H 	0.67740 0.78760 0.29780 0.08600
O 	O 	0.96787 0.87138 0.62170 -0.38100
C 	C 	0.11224 0.74259 0.37770 0.23100
H 	H 	0.08710 0.75970 0.29640 -0.05400
C 	C 	0.18713 0.69383 0.37930 -0.27800
H 	H 	0.21240 0.67740 0.29780 0.13400
O 	O 	0.03213 0.12862 0.62170 -0.49500
C 	C 	0.88776 0.25741 0.37770 0.02900
H 	H 	0.91290 0.24030 0.29640 0.07900
C 	C 	0.81287 0.30617 0.37930 -0.10900
H 	H 	0.78760 0.32260 0.29780 0.08500
Sm	Sm	-0.00000 -0.00000 0.25000 1.70100
Sm	Sm	-0.00000 0.00000 0.75000 1.70600
S 	S 	0.18079 0.02778 -0.00000 0.50400
O 	O 	0.24849 0.09052 -0.00000 -0.31300
N 	N 	0.36960 0.53100 -0.00000 -0.12000
C 	C 	0.23430 0.92500 -0.00000 -0.03600
C 	C 	0.33160 0.77390 -0.00000 0.04900
C 	C 	0.38320 0.69010 -0.00000 -0.09300
C 	C 	0.33500 0.61360 -0.00000 0.10900
C 	C 	0.24180 0.60740 -0.00000 -0.10400
H 	H 	0.20230 0.65330 -0.00000 0.08100
C 	C 	0.22260 0.52110 -0.00000 -0.07900
H 	H 	0.16690 0.49740 -0.00000 0.04400
C 	C 	0.30170 0.47270 -0.00000 0.11600
S 	S 	0.81921 0.97222 -0.00000 0.78400
O 	O 	0.75151 0.90948 -0.00000 -0.31900
N 	N 	0.63040 0.46900 -0.00000 -0.12000
C 	C 	0.76570 0.07500 -0.00000 -0.38600
C 	C 	0.66840 0.22610 -0.00000 0.15500
C 	C 	0.61680 0.30990 -0.00000 -0.13200
C 	C 	0.66500 0.38640 -0.00000 0.12600
C 	C 	0.75820 0.39260 -0.00000 -0.10500
H 	H 	0.79770 0.34670 -0.00000 0.10100
C 	C 	0.77740 0.47890 -0.00000 -0.06400
H 	H 	0.83310 0.50260 -0.00000 0.07600
C 	C 	0.69830 0.52730 -0.00000 0.10400
S 	S 	0.97222 0.18079 -0.00000 0.81400
O 	O 	0.90948 0.24849 -0.00000 -0.32500
N 	N 	0.46900 0.36960 -0.00000 -0.12200
C 	C 	0.07500 0.23430 -0.00000 -0.40200
C 	C 	0.22610 0.33160 -0.00000 0.16400
C 	C 	0.30990 0.38320 -0.00000 -0.13800
C 	C 	0.38640 0.33500 -0.00000 0.12800
C 	C 	0.39260 0.24180 -0.00000 -0.11800
H 	H 	0.34670 0.20230 -0.00000 0.08600
C 	C 	0.47890 0.22260 -0.00000 -0.07100
H 	H 	0.50260 0.16690 -0.00000 0.04100
C 	C 	0.52730 0.30170 -0.00000 0.11200
S 	S 	0.02778 0.81921 -0.00000 0.49600
O 	O 	0.09052 0.75151 -0.00000 -0.30900
N 	N 	0.53100 0.63040 -0.00000 -0.11800
C 	C 	0.92500 0.76570 -0.00000 -0.04800
C 	C 	0.77390 0.66840 -0.00000 0.04900
C 	C 	0.69010 0.61680 -0.00000 -0.09100
C 	C 	0.61360 0.66500 -0.00000 0.10900
C 	C 	0.60740 0.75820 -0.00000 -0.09400
H 	H 	0.65330 0.79770 -0.00000 0.09500
C 	C 	0.52110 0.77740 -0.00000 -0.07100
H 	H 	0.49740 0.83310 -0.00000 0.07900
C 	C 	0.47270 0.69830 -0.00000 0.10600
S 	S 	0.81921 0.02778 0.50000 0.53100
O 	O 	0.75151 0.09052 0.50000 -0.30400
N 	N 	0.63040 0.53100 0.50000 -0.11500
C 	C 	0.76570 0.92500 0.50000 -0.01100
C 	C 	0.66840 0.77390 0.50000 0.09700
C 	C 	0.61680 0.69010 0.50000 -0.09800
C 	C 	0.66500 0.61360 0.50000 0.12200
C 	C 	0.75820 0.60740 0.50000 -0.08900
H 	H 	0.79770 0.65330 0.50000 0.10200
C 	C 	0.77740 0.52110 0.50000 -0.06800
H 	H 	0.83310 0.49740 0.50000 0.08800
C 	C 	0.69830 0.47270 0.50000 0.12000
S 	S 	0.18079 0.97222 0.50000 0.86100
O 	O 	0.24849 0.90948 0.50000 -0.32200
N 	N 	0.36960 0.46900 0.50000 -0.12000
C 	C 	0.23430 0.07500 0.50000 -0.38100
C 	C 	0.33160 0.22610 0.50000 0.21100
C 	C 	0.38320 0.30990 0.50000 -0.14600
C 	C 	0.33500 0.38640 0.50000 0.14000
C 	C 	0.24180 0.39260 0.50000 -0.11400
H 	H 	0.20230 0.34670 0.50000 0.09200
C 	C 	0.22260 0.47890 0.50000 -0.07000
H 	H 	0.16690 0.50260 0.50000 0.04900
C 	C 	0.30170 0.52730 0.50000 0.12500
S 	S 	0.02778 0.18079 0.50000 0.53600
O 	O 	0.09052 0.24849 0.50000 -0.30900
N 	N 	0.53100 0.36960 0.50000 -0.11700
C 	C 	0.92500 0.23430 0.50000 -0.00100
C 	C 	0.77390 0.33160 0.50000 0.09500
C 	C 	0.69010 0.38320 0.50000 -0.10000
C 	C 	0.61360 0.33500 0.50000 0.12100
C 	C 	0.60740 0.24180 0.50000 -0.10000
H 	H 	0.65330 0.20230 0.50000 0.08700
C 	C 	0.52110 0.22260 0.50000 -0.07800
H 	H 	0.49740 0.16690 0.50000 0.05200
C 	C 	0.47270 0.30170 0.50000 0.12900
S 	S 	0.97222 0.81921 0.50000 0.83400
O 	O 	0.90948 0.75151 0.50000 -0.31500
N 	N 	0.46900 0.63040 0.50000 -0.11700
C 	C 	0.07500 0.76570 0.50000 -0.36300
C 	C 	0.22610 0.66840 0.50000 0.20400
C 	C 	0.30990 0.61680 0.50000 -0.14100
C 	C 	0.38640 0.66500 0.50000 0.13900
C 	C 	0.39260 0.75820 0.50000 -0.10100
H 	H 	0.34670 0.79770 0.50000 0.10700
C 	C 	0.47890 0.77740 0.50000 -0.06200
H 	H 	0.50260 0.83310 0.50000 0.08500
C 	C 	0.52730 0.69830 0.50000 0.11700
