data_crystal

_cell_length_a 17.89700
_cell_length_b 14.73100
_cell_length_c 17.38100
_cell_angle_alpha 90.00000
_cell_angle_beta  116.61000
_cell_angle_gamma 90.00000

_symmetry_space_group_name_	'P 1'
_symmetry_space_group_name_H-M	'P 1'

loop_
_symmetry_equiv_pos_as_xyz
  x,y,z

loop_
_atom_site_label
_atom_site_type_symbol
_atom_site_fract_x
_atom_site_fract_y
_atom_site_fract_z
_atom_site_charge
O 	O 	0.24320 0.06100 0.10140 -0.43000
O 	O 	0.36230 0.02740 0.21620 -0.32800
C 	C 	0.31910 0.07310 0.15400 0.41200
C 	C 	0.35330 0.15770 0.12870 -0.31200
N 	N 	0.43830 0.19080 0.19240 -0.04900
C 	C 	0.44030 0.21390 0.27670 -0.07300
C 	C 	0.52740 0.24580 0.33930 -0.07300
C 	C 	0.45590 0.27610 0.15610 -0.05800
C 	C 	0.53570 0.32060 0.21900 -0.09100
C 	C 	0.50630 0.12470 0.20660 -0.07300
C 	C 	0.59140 0.16720 0.26070 -0.07900
N 	N 	0.58120 0.25870 0.29390 -0.04200
C 	C 	0.66290 0.30010 0.35730 -0.32200
C 	C 	0.72650 0.32340 0.32380 0.43200
O 	O 	0.78650 0.36720 0.37770 -0.44100
O 	O 	0.71610 0.29820 0.25150 -0.32100
O 	O 	0.07240 0.13720 0.05320 -0.46400
O 	O 	0.96190 0.13220 0.92370 -0.46300
C 	C 	0.02250 0.17060 0.98290 0.50500
C 	C 	0.03880 0.27010 0.97310 -0.37600
N 	N 	0.99550 0.30850 0.88290 -0.04000
C 	C 	0.03120 0.40220 0.88630 -0.06700
C 	C 	0.97840 0.45130 0.80180 -0.07600
C 	C 	0.90310 0.31620 0.85010 -0.07200
C 	C 	0.86340 0.34350 0.75510 -0.07700
C 	C 	0.01250 0.25280 0.81940 -0.07000
C 	C 	0.98880 0.30660 0.73740 -0.07000
N 	N 	0.92980 0.38270 0.73340 -0.03900
C 	C 	0.88780 0.42400 0.64470 -0.37400
C 	C 	0.94600 0.46020 0.60960 0.51400
O 	O 	0.90880 0.47570 0.52990 -0.46700
O 	O 	0.02070 0.47290 0.65780 -0.47900
Gd	Gd	0.12937 0.99388 0.11575 1.55700
H 	H 	0.35770 0.14160 0.07730 0.12700
H 	H 	0.31420 0.20660 0.11640 0.12400
H 	H 	0.40370 0.26430 0.26950 0.04700
H 	H 	0.42200 0.16230 0.29740 0.06000
H 	H 	0.52600 0.29940 0.37000 0.04500
H 	H 	0.55180 0.19680 0.37930 0.05100
H 	H 	0.46560 0.25680 0.10860 0.04600
H 	H 	0.40920 0.31700 0.13590 0.03800
H 	H 	0.51980 0.37420 0.23930 0.06600
H 	H 	0.57180 0.33700 0.19370 0.07700
H 	H 	0.50030 0.07370 0.23780 0.06700
H 	H 	0.50230 0.10440 0.15240 0.04900
H 	H 	0.61880 0.17530 0.22460 0.06900
H 	H 	0.62490 0.12890 0.30840 0.05000
H 	H 	0.64970 0.35480 0.37870 0.13900
H 	H 	0.68950 0.25790 0.40380 0.13000
H 	H 	0.09780 0.27770 0.99320 0.14300
H 	H 	0.02090 0.30470 0.00860 0.14500
H 	H 	0.08810 0.39810 0.89550 0.04100
H 	H 	0.02890 0.43600 0.93250 0.04000
H 	H 	0.01470 0.48410 0.78440 0.06000
H 	H 	0.94080 0.49300 0.80910 0.04800
H 	H 	0.88060 0.25880 0.85560 0.07200
H 	H 	0.89110 0.36110 0.88310 0.05000
H 	H 	0.82130 0.38850 0.74510 0.05200
H 	H 	0.83860 0.29160 0.71940 0.06000
H 	H 	0.07070 0.23720 0.84450 0.04500
H 	H 	0.97960 0.19840 0.80590 0.05700
H 	H 	0.03850 0.33200 0.73810 0.05300
H 	H 	0.96220 0.26740 0.68850 0.04500
H 	H 	0.85300 0.37810 0.60610 0.15000
H 	H 	0.85370 0.47340 0.64650 0.14500
O 	O 	0.75680 0.56100 0.39860 -0.43400
O 	O 	0.63770 0.52740 0.28380 -0.33000
C 	C 	0.68090 0.57310 0.34600 0.41400
C 	C 	0.64670 0.65770 0.37130 -0.31100
N 	N 	0.56170 0.69080 0.30760 -0.04800
C 	C 	0.55970 0.71390 0.22330 -0.07100
C 	C 	0.47260 0.74580 0.16070 -0.07100
C 	C 	0.54410 0.77610 0.34390 -0.05700
C 	C 	0.46430 0.82060 0.28100 -0.09000
C 	C 	0.49370 0.62470 0.29340 -0.07100
C 	C 	0.40860 0.66720 0.23930 -0.07900
N 	N 	0.41880 0.75870 0.20610 -0.04100
C 	C 	0.33710 0.80010 0.14270 -0.32100
C 	C 	0.27350 0.82340 0.17620 0.43100
O 	O 	0.21350 0.86720 0.12230 -0.44100
O 	O 	0.28390 0.79820 0.24850 -0.32100
O 	O 	0.92760 0.63720 0.44680 -0.47400
O 	O 	0.03810 0.63220 0.57630 -0.46500
C 	C 	0.97750 0.67060 0.51710 0.51300
C 	C 	0.96120 0.77010 0.52690 -0.36800
N 	N 	0.00450 0.80850 0.61710 -0.04600
C 	C 	0.96880 0.90220 0.61370 -0.05300
C 	C 	0.02160 0.95130 0.69820 -0.09500
C 	C 	0.09690 0.81620 0.64990 -0.07000
C 	C 	0.13660 0.84350 0.74490 -0.07900
C 	C 	0.98750 0.75280 0.68060 -0.05600
C 	C 	0.01120 0.80660 0.76260 -0.08400
N 	N 	0.07020 0.88270 0.76660 -0.03600
C 	C 	0.11220 0.92400 0.85530 -0.37300
C 	C 	0.05400 0.96020 0.89040 0.50700
O 	O 	0.09120 0.97570 0.97010 -0.46100
O 	O 	0.97930 0.97290 0.84220 -0.47000
Gd	Gd	0.87063 0.49388 0.38425 1.57500
H 	H 	0.64230 0.64160 0.42270 0.12600
H 	H 	0.68580 0.70660 0.38360 0.12400
H 	H 	0.59630 0.76430 0.23050 0.04600
H 	H 	0.57800 0.66230 0.20260 0.05900
H 	H 	0.47400 0.79940 0.13000 0.04400
H 	H 	0.44820 0.69680 0.12070 0.05000
H 	H 	0.53440 0.75680 0.39140 0.04600
H 	H 	0.59080 0.81700 0.36410 0.03800
H 	H 	0.48020 0.87420 0.26070 0.06500
H 	H 	0.42820 0.83700 0.30630 0.07600
H 	H 	0.49970 0.57370 0.26220 0.06600
H 	H 	0.49770 0.60440 0.34760 0.04800
H 	H 	0.38120 0.67530 0.27540 0.06900
H 	H 	0.37510 0.62890 0.19160 0.05000
H 	H 	0.35030 0.85480 0.12130 0.13800
H 	H 	0.31050 0.75790 0.09620 0.12900
H 	H 	0.90220 0.77770 0.50680 0.14200
H 	H 	0.97910 0.80470 0.49140 0.14000
H 	H 	0.91190 0.89810 0.60450 0.03700
H 	H 	0.97110 0.93600 0.56750 0.03700
H 	H 	0.98530 0.98410 0.71560 0.06900
H 	H 	0.05920 0.99300 0.69090 0.05300
H 	H 	0.11940 0.75880 0.64440 0.07100
H 	H 	0.10890 0.86110 0.61690 0.04900
H 	H 	0.17870 0.88850 0.75490 0.05300
H 	H 	0.16140 0.79160 0.78060 0.06100
H 	H 	0.92930 0.73720 0.65550 0.04200
H 	H 	0.02040 0.69840 0.69410 0.05300
H 	H 	0.96150 0.83200 0.76190 0.05900
H 	H 	0.03780 0.76740 0.81150 0.04900
H 	H 	0.14700 0.87810 0.89390 0.15000
H 	H 	0.14630 0.97340 0.85350 0.14600
O 	O 	0.75680 0.93900 0.89860 -0.42900
O 	O 	0.63770 0.97260 0.78380 -0.32700
C 	C 	0.68090 0.92690 0.84600 0.41300
C 	C 	0.64670 0.84230 0.87130 -0.31100
N 	N 	0.56170 0.80920 0.80760 -0.04800
C 	C 	0.55970 0.78610 0.72330 -0.07200
C 	C 	0.47260 0.75420 0.66070 -0.07200
C 	C 	0.54410 0.72390 0.84390 -0.05700
C 	C 	0.46430 0.67940 0.78100 -0.09000
C 	C 	0.49370 0.87530 0.79340 -0.07200
C 	C 	0.40860 0.83280 0.73930 -0.07800
N 	N 	0.41880 0.74130 0.70610 -0.04100
C 	C 	0.33710 0.69990 0.64270 -0.32200
C 	C 	0.27350 0.67660 0.67620 0.43200
O 	O 	0.21350 0.63280 0.62230 -0.44100
O 	O 	0.28390 0.70180 0.74850 -0.32100
O 	O 	0.92760 0.86280 0.94680 -0.46400
O 	O 	0.03810 0.86780 0.07630 -0.46300
C 	C 	0.97750 0.82940 0.01710 0.50500
C 	C 	0.96120 0.72990 0.02690 -0.37600
N 	N 	0.00450 0.69150 0.11710 -0.04000
C 	C 	0.96880 0.59780 0.11370 -0.06700
C 	C 	0.02160 0.54870 0.19820 -0.07600
C 	C 	0.09690 0.68380 0.14990 -0.07200
C 	C 	0.13660 0.65650 0.24490 -0.07700
C 	C 	0.98750 0.74720 0.18060 -0.07000
C 	C 	0.01120 0.69340 0.26260 -0.07000
N 	N 	0.07020 0.61730 0.26660 -0.03900
C 	C 	0.11220 0.57600 0.35530 -0.37400
C 	C 	0.05400 0.53980 0.39040 0.51400
O 	O 	0.09120 0.52430 0.47010 -0.46700
O 	O 	0.97930 0.52710 0.34220 -0.47900
Gd	Gd	0.87063 0.00612 0.88425 1.55700
H 	H 	0.64230 0.85840 0.92270 0.12700
H 	H 	0.68580 0.79340 0.88360 0.12400
H 	H 	0.59630 0.73570 0.73050 0.04700
H 	H 	0.57800 0.83770 0.70260 0.06000
H 	H 	0.47400 0.70060 0.63000 0.04500
H 	H 	0.44820 0.80320 0.62070 0.05100
H 	H 	0.53440 0.74320 0.89140 0.04600
H 	H 	0.59080 0.68300 0.86410 0.03800
H 	H 	0.48020 0.62580 0.76070 0.06600
H 	H 	0.42820 0.66300 0.80630 0.07700
H 	H 	0.49970 0.92630 0.76220 0.06700
H 	H 	0.49770 0.89560 0.84760 0.04900
H 	H 	0.38120 0.82470 0.77540 0.06900
H 	H 	0.37510 0.87110 0.69160 0.05000
H 	H 	0.35030 0.64520 0.62130 0.13900
H 	H 	0.31050 0.74210 0.59620 0.13000
H 	H 	0.90220 0.72230 0.00680 0.14300
H 	H 	0.97910 0.69530 0.99140 0.14500
H 	H 	0.91190 0.60190 0.10450 0.04100
H 	H 	0.97110 0.56400 0.06750 0.04000
H 	H 	0.98530 0.51590 0.21560 0.06000
H 	H 	0.05920 0.50700 0.19090 0.04800
H 	H 	0.11940 0.74120 0.14440 0.07200
H 	H 	0.10890 0.63890 0.11690 0.05000
H 	H 	0.17870 0.61150 0.25490 0.05200
H 	H 	0.16140 0.70840 0.28060 0.06000
H 	H 	0.92930 0.76280 0.15550 0.04500
H 	H 	0.02040 0.80160 0.19410 0.05700
H 	H 	0.96150 0.66800 0.26190 0.05300
H 	H 	0.03780 0.73260 0.31150 0.04500
H 	H 	0.14700 0.62190 0.39390 0.15000
H 	H 	0.14630 0.52660 0.35350 0.14500
O 	O 	0.24320 0.43900 0.60140 -0.43400
O 	O 	0.36230 0.47260 0.71620 -0.33000
C 	C 	0.31910 0.42690 0.65400 0.41400
C 	C 	0.35330 0.34230 0.62870 -0.31100
N 	N 	0.43830 0.30920 0.69240 -0.04800
C 	C 	0.44030 0.28610 0.77670 -0.07100
C 	C 	0.52740 0.25420 0.83930 -0.07100
C 	C 	0.45590 0.22390 0.65610 -0.05700
C 	C 	0.53570 0.17940 0.71900 -0.09000
C 	C 	0.50630 0.37530 0.70660 -0.07100
C 	C 	0.59140 0.33280 0.76070 -0.07900
N 	N 	0.58120 0.24130 0.79390 -0.04100
C 	C 	0.66290 0.19990 0.85730 -0.32100
C 	C 	0.72650 0.17660 0.82380 0.43100
O 	O 	0.78650 0.13280 0.87770 -0.44100
O 	O 	0.71610 0.20180 0.75150 -0.32100
O 	O 	0.07240 0.36280 0.55320 -0.47400
O 	O 	0.96190 0.36780 0.42370 -0.46500
C 	C 	0.02250 0.32940 0.48290 0.51300
C 	C 	0.03880 0.22990 0.47310 -0.36800
N 	N 	0.99550 0.19150 0.38290 -0.04600
C 	C 	0.03120 0.09780 0.38630 -0.05300
C 	C 	0.97840 0.04870 0.30180 -0.09500
C 	C 	0.90310 0.18380 0.35010 -0.07000
C 	C 	0.86340 0.15650 0.25510 -0.07900
C 	C 	0.01250 0.24720 0.31940 -0.05600
C 	C 	0.98880 0.19340 0.23740 -0.08400
N 	N 	0.92980 0.11730 0.23340 -0.03600
C 	C 	0.88780 0.07600 0.14470 -0.37300
C 	C 	0.94600 0.03980 0.10960 0.50700
O 	O 	0.90880 0.02430 0.02990 -0.46100
O 	O 	0.02070 0.02710 0.15780 -0.47000
Gd	Gd	0.12937 0.50612 0.61575 1.57500
H 	H 	0.35770 0.35840 0.57730 0.12600
H 	H 	0.31420 0.29340 0.61640 0.12400
H 	H 	0.40370 0.23570 0.76950 0.04600
H 	H 	0.42200 0.33770 0.79740 0.05900
H 	H 	0.52600 0.20060 0.87000 0.04400
H 	H 	0.55180 0.30320 0.87930 0.05000
H 	H 	0.46560 0.24320 0.60860 0.04600
H 	H 	0.40920 0.18300 0.63590 0.03800
H 	H 	0.51980 0.12580 0.73930 0.06500
H 	H 	0.57180 0.16300 0.69370 0.07600
H 	H 	0.50030 0.42630 0.73780 0.06600
H 	H 	0.50230 0.39560 0.65240 0.04800
H 	H 	0.61880 0.32470 0.72460 0.06900
H 	H 	0.62490 0.37110 0.80840 0.05000
H 	H 	0.64970 0.14520 0.87870 0.13800
H 	H 	0.68950 0.24210 0.90380 0.12900
H 	H 	0.09780 0.22230 0.49320 0.14200
H 	H 	0.02090 0.19530 0.50860 0.14000
H 	H 	0.08810 0.10190 0.39550 0.03700
H 	H 	0.02890 0.06400 0.43250 0.03700
H 	H 	0.01470 0.01590 0.28440 0.06900
H 	H 	0.94080 0.00700 0.30910 0.05300
H 	H 	0.88060 0.24120 0.35560 0.07100
H 	H 	0.89110 0.13890 0.38310 0.04900
H 	H 	0.82130 0.11150 0.24510 0.05300
H 	H 	0.83860 0.20840 0.21940 0.06100
H 	H 	0.07070 0.26280 0.34450 0.04200
H 	H 	0.97960 0.30160 0.30590 0.05300
H 	H 	0.03850 0.16800 0.23810 0.05900
H 	H 	0.96220 0.23260 0.18850 0.04900
H 	H 	0.85300 0.12190 0.10610 0.15000
H 	H 	0.85370 0.02660 0.14650 0.14600
