data_crystal

_cell_length_a 8.05420
_cell_length_b 18.78000
_cell_length_c 19.28900
_cell_angle_alpha 90.00000
_cell_angle_beta  95.64100
_cell_angle_gamma 90.00000

_symmetry_space_group_name_	'P 1'
_symmetry_space_group_name_H-M	'P 1'

loop_
_symmetry_equiv_pos_as_xyz
  x,y,z

loop_
_atom_site_label
_atom_site_type_symbol
_atom_site_fract_x
_atom_site_fract_y
_atom_site_fract_z
_atom_site_charge
C 	C 	0.70700 0.37730 0.59250 0.35200
C 	C 	0.84560 0.37810 0.64910 -0.18200
C 	C 	0.99960 0.35410 0.63750 0.10800
H 	H 	0.01660 0.33530 0.59360 0.00100
C 	C 	0.13280 0.35650 0.68930 -0.23300
H 	H 	0.23870 0.33970 0.68060 0.10200
C 	C 	0.10730 0.38340 0.75220 0.18400
C 	C 	0.95230 0.40770 0.76640 -0.22600
H 	H 	0.93620 0.42590 0.81060 0.09000
C 	C 	0.82230 0.40480 0.71490 0.10900
H 	H 	0.71620 0.42100 0.72400 -0.01100
C 	C 	0.15220 0.29060 0.88250 -0.75100
H 	H 	0.18680 0.24690 0.86120 0.23200
H 	H 	0.03860 0.30190 0.86450 0.24300
H 	H 	0.15790 0.28440 0.93260 0.23300
C 	C 	0.26390 0.34920 0.86600 0.29000
C 	C 	0.37770 0.43320 0.81040 0.28000
C 	C 	0.40120 0.48570 0.75290 -0.69000
H 	H 	0.49330 0.51730 0.76750 0.21900
H 	H 	0.30000 0.51340 0.74290 0.21700
H 	H 	0.42520 0.46010 0.71140 0.23400
C 	C 	0.75050 0.76450 0.50880 0.34800
C 	C 	0.88750 0.71560 0.49440 -0.18300
C 	C 	0.85410 0.65300 0.45730 0.13100
H 	H 	0.74390 0.64170 0.44020 -0.01400
C 	C 	0.97880 0.60870 0.44560 -0.24500
H 	H 	0.95470 0.56650 0.42040 0.09800
C 	C 	0.13880 0.62340 0.46950 0.19900
C 	C 	0.17860 0.68410 0.50570 -0.23600
H 	H 	0.28980 0.69430 0.52200 0.11000
C 	C 	0.05100 0.73060 0.51790 0.12200
H 	H 	0.07630 0.77290 0.54260 -0.00300
C 	C 	0.19190 0.47870 0.53890 -0.75100
H 	H 	0.08970 0.45840 0.51640 0.24600
H 	H 	0.16490 0.51660 0.57010 0.24400
H 	H 	0.25510 0.44200 0.56530 0.23000
C 	C 	0.29270 0.50790 0.48540 0.28900
C 	C 	0.39060 0.58070 0.40960 0.31300
C 	C 	0.40750 0.64430 0.36730 -0.76700
H 	H 	0.48470 0.63470 0.33280 0.24100
H 	H 	0.44980 0.68320 0.39700 0.26500
H 	H 	0.29950 0.65710 0.34390 0.24500
C 	C 	0.26590 0.32080 0.11080 0.33900
C 	C 	0.13290 0.31470 0.16060 -0.15900
C 	C 	0.17660 0.29960 0.22940 0.09100
H 	H 	0.28930 0.29250 0.24550 0.00800
C 	C 	0.05380 0.29470 0.27570 -0.20700
H 	H 	0.08280 0.28380 0.32290 0.10200
C 	C 	0.88940 0.30610 0.25080 0.17500
C 	C 	0.84680 0.32200 0.18050 -0.20900
H 	H 	0.73480 0.32980 0.16370 0.09800
C 	C 	0.96830 0.32590 0.13660 0.10100
H 	H 	0.93980 0.33650 0.08930 0.00600
C 	C 	0.83250 0.40970 0.36730 -0.77700
H 	H 	0.78110 0.43670 0.40230 0.23200
H 	H 	0.84060 0.43910 0.32650 0.24700
H 	H 	0.94330 0.39470 0.38600 0.25700
C 	C 	0.73090 0.34700 0.34800 0.31300
C 	C 	0.63850 0.24990 0.29560 0.30200
C 	C 	0.62450 0.18960 0.24620 -0.71800
H 	H 	0.51720 0.16640 0.24790 0.23200
H 	H 	0.71310 0.15560 0.25890 0.22600
H 	H 	0.63390 0.20700 0.19940 0.24300
C 	C 	0.64920 0.20970 0.98960 0.36600
C 	C 	0.78490 0.15660 0.97620 -0.20600
C 	C 	0.74620 0.08880 0.95350 0.16200
H 	H 	0.63410 0.07430 0.94720 -0.02700
C 	C 	0.87050 0.04210 0.94000 -0.31600
H 	H 	0.84360 0.99620 0.92290 0.15000
C 	C 	0.03300 0.06300 0.95150 0.22300
C 	C 	0.07620 0.13040 0.97770 -0.26700
H 	H 	0.18840 0.14390 0.98740 0.12300
C 	C 	0.95020 0.17600 0.98880 0.14400
H 	H 	0.97660 0.22200 0.00540 -0.01200
C 	C 	0.14360 0.93030 0.03660 -0.75600
H 	H 	0.19060 0.88410 0.04970 0.23700
H 	H 	0.02450 0.92560 0.02410 0.25600
H 	H 	0.16330 0.96300 0.07550 0.24800
C 	C 	0.22470 0.95870 0.97550 0.31700
C 	C 	0.28020 0.02370 0.88880 0.24800
C 	C 	0.26410 0.08260 0.83660 -0.64200
H 	H 	0.30560 0.12650 0.85840 0.20700
H 	H 	0.14770 0.08850 0.81920 0.20100
H 	H 	0.32850 0.07110 0.79810 0.19700
N 	N 	0.39690 0.37100 0.90390 -0.25700
N 	N 	0.46920 0.42500 0.86740 -0.16200
N 	N 	0.24570 0.38780 0.80660 -0.24000
N 	N 	0.41580 0.47690 0.45850 -0.25700
N 	N 	0.47840 0.52290 0.41050 -0.16800
N 	N 	0.27080 0.57370 0.45590 -0.24100
N 	N 	0.59820 0.32460 0.37640 -0.25400
N 	N 	0.53930 0.26320 0.34350 -0.15500
N 	N 	0.75870 0.30060 0.29710 -0.24300
N 	N 	0.35750 0.93360 0.95110 -0.25400
N 	N 	0.39260 0.97460 0.89560 -0.13300
N 	N 	0.16730 0.01540 0.93720 -0.25100
O 	O 	0.74460 0.36460 0.53220 -0.43000
O 	O 	0.56080 0.39030 0.60460 -0.38600
O 	O 	0.78780 0.82440 0.53720 -0.41000
O 	O 	0.60420 0.74740 0.49170 -0.40700
O 	O 	0.69940 0.27250 0.00020 -0.45100
O 	O 	0.50160 0.19150 0.98770 -0.36400
O 	O 	0.22160 0.33660 0.04850 -0.43200
O 	O 	0.41640 0.31150 0.13150 -0.39100
Cd	Cd	0.49037 0.36127 0.47449 1.21600
Cd	Cd	0.48326 0.33853 0.01528 1.21600
C 	C 	0.29300 0.87730 0.40750 0.35000
C 	C 	0.15440 0.87810 0.35090 -0.17000
C 	C 	0.00040 0.85410 0.36250 0.09800
H 	H 	0.98340 0.83530 0.40640 0.00900
C 	C 	0.86720 0.85650 0.31070 -0.21900
H 	H 	0.76130 0.83970 0.31940 0.10200
C 	C 	0.89270 0.88340 0.24780 0.18400
C 	C 	0.04770 0.90770 0.23360 -0.22000
H 	H 	0.06380 0.92590 0.18940 0.09200
C 	C 	0.17770 0.90480 0.28510 0.10600
H 	H 	0.28380 0.92100 0.27600 -0.00300
C 	C 	0.84780 0.79060 0.11750 -0.75400
H 	H 	0.81320 0.74690 0.13880 0.23300
H 	H 	0.96140 0.80190 0.13550 0.24400
H 	H 	0.84210 0.78440 0.06740 0.23400
C 	C 	0.73610 0.84920 0.13400 0.29200
C 	C 	0.62230 0.93320 0.18960 0.22700
C 	C 	0.59880 0.98570 0.24710 -0.45000
H 	H 	0.50670 0.01730 0.23250 0.13000
H 	H 	0.70000 0.01340 0.25710 0.12900
H 	H 	0.57480 0.96010 0.28860 0.17200
C 	C 	0.24950 0.26450 0.49120 0.34900
C 	C 	0.11250 0.21560 0.50560 -0.18400
C 	C 	0.14590 0.15300 0.54270 0.12800
H 	H 	0.25610 0.14170 0.55980 -0.01500
C 	C 	0.02120 0.10870 0.55440 -0.24300
H 	H 	0.04530 0.06650 0.57960 0.09200
C 	C 	0.86120 0.12340 0.53050 0.19500
C 	C 	0.82140 0.18410 0.49430 -0.23300
H 	H 	0.71020 0.19430 0.47800 0.11000
C 	C 	0.94900 0.23060 0.48210 0.12300
H 	H 	0.92370 0.27290 0.45740 -0.00300
C 	C 	0.80810 0.97870 0.46110 -0.53400
H 	H 	0.91030 0.95840 0.48360 0.19100
H 	H 	0.83510 0.01660 0.42990 0.16600
H 	H 	0.74490 0.94200 0.43470 0.17400
C 	C 	0.70730 0.00790 0.51460 0.19300
C 	C 	0.60940 0.08070 0.59040 0.31000
C 	C 	0.59250 0.14430 0.63270 -0.76400
H 	H 	0.51530 0.13470 0.66720 0.23800
H 	H 	0.55020 0.18320 0.60300 0.26500
H 	H 	0.70050 0.15710 0.65610 0.24400
C 	C 	0.73410 0.82080 0.88920 0.33800
C 	C 	0.86710 0.81470 0.83940 -0.15200
C 	C 	0.82340 0.79960 0.77060 0.08800
H 	H 	0.71070 0.79250 0.75450 0.01000
C 	C 	0.94620 0.79470 0.72430 -0.20000
H 	H 	0.91720 0.78380 0.67710 0.10100
C 	C 	0.11060 0.80610 0.74920 0.17100
C 	C 	0.15320 0.82200 0.81950 -0.20300
H 	H 	0.26520 0.82980 0.83630 0.09700
C 	C 	0.03170 0.82590 0.86340 0.09500
H 	H 	0.06020 0.83650 0.91070 0.00800
C 	C 	0.16750 0.90970 0.63270 -0.79900
H 	H 	0.21890 0.93670 0.59770 0.24600
H 	H 	0.15940 0.93910 0.67350 0.26000
H 	H 	0.05670 0.89470 0.61400 0.26700
C 	C 	0.26910 0.84700 0.65200 0.32100
C 	C 	0.36150 0.74990 0.70440 0.30200
C 	C 	0.37550 0.68960 0.75380 -0.71800
H 	H 	0.48280 0.66640 0.75210 0.23200
H 	H 	0.28690 0.65560 0.74110 0.22500
H 	H 	0.36610 0.70700 0.80060 0.24400
C 	C 	0.35080 0.70970 0.01040 0.35700
C 	C 	0.21510 0.65660 0.02380 -0.17600
C 	C 	0.25380 0.58880 0.04650 0.11300
H 	H 	0.36590 0.57430 0.05280 -0.00400
C 	C 	0.12950 0.54210 0.06000 -0.23400
H 	H 	0.15640 0.49620 0.07710 0.10500
C 	C 	0.96700 0.56300 0.04850 0.19200
C 	C 	0.92380 0.63040 0.02230 -0.23400
H 	H 	0.81160 0.64390 0.01260 0.11400
C 	C 	0.04980 0.67600 0.01120 0.11500
H 	H 	0.02340 0.72200 0.99460 -0.00300
C 	C 	0.85640 0.43030 0.96340 -0.73200
H 	H 	0.80940 0.38410 0.95030 0.22900
H 	H 	0.97550 0.42560 0.97590 0.24600
H 	H 	0.83670 0.46300 0.92450 0.23400
C 	C 	0.77530 0.45870 0.02450 0.29100
C 	C 	0.71980 0.52370 0.11120 0.27800
C 	C 	0.73590 0.58260 0.16340 -0.67200
H 	H 	0.69440 0.62650 0.14160 0.21600
H 	H 	0.85230 0.58850 0.18080 0.21300
H 	H 	0.67150 0.57110 0.20190 0.21100
N 	N 	0.60310 0.87100 0.09610 -0.25600
N 	N 	0.53080 0.92500 0.13260 -0.14500
N 	N 	0.75430 0.88780 0.19340 -0.22800
N 	N 	0.58420 0.97690 0.54150 -0.21800
N 	N 	0.52160 0.02290 0.58950 -0.18200
N 	N 	0.72920 0.07370 0.54410 -0.22600
N 	N 	0.40180 0.82460 0.62360 -0.25400
N 	N 	0.46070 0.76320 0.65650 -0.15400
N 	N 	0.24130 0.80060 0.70290 -0.24300
N 	N 	0.64250 0.43360 0.04890 -0.25100
N 	N 	0.60740 0.47460 0.10440 -0.15300
N 	N 	0.83270 0.51540 0.06280 -0.23500
O 	O 	0.25540 0.86460 0.46780 -0.42600
O 	O 	0.43920 0.89030 0.39540 -0.37600
O 	O 	0.21220 0.32440 0.46280 -0.41400
O 	O 	0.39580 0.24740 0.50830 -0.40800
O 	O 	0.30060 0.77250 0.99980 -0.45000
O 	O 	0.49840 0.69150 0.01230 -0.35900
O 	O 	0.77840 0.83660 0.95150 -0.43100
O 	O 	0.58360 0.81150 0.86850 -0.38900
Cd	Cd	0.50963 0.86127 0.52551 1.21700
Cd	Cd	0.51674 0.83853 0.98472 1.21700
