data_crystal

_cell_length_a 16.70940
_cell_length_b 20.28570
_cell_length_c 17.19360
_cell_angle_alpha 90.00000
_cell_angle_beta  99.17800
_cell_angle_gamma 90.00000

_symmetry_space_group_name_	'P 1'
_symmetry_space_group_name_H-M	'P 1'

loop_
_symmetry_equiv_pos_as_xyz
  x,y,z

loop_
_atom_site_label
_atom_site_type_symbol
_atom_site_fract_x
_atom_site_fract_y
_atom_site_fract_z
_atom_site_charge
Mn	Mn	0.96912 0.83354 0.24752 1.32200
Mn	Mn	0.86416 0.87503 0.05289 1.25100
Mn	Mn	0.08766 0.85221 0.44303 1.26500
S 	S 	0.45205 0.72510 0.22902 0.27000
S 	S 	0.10693 0.51409 0.95779 0.28100
S 	S 	0.04270 0.43195 0.34433 0.26500
O 	O 	0.01490 0.75680 0.32530 -0.49500
O 	O 	0.56840 0.41770 0.32400 -0.53200
O 	O 	0.98680 0.76861 0.15340 -0.44400
O 	O 	0.40950 0.36850 0.25430 -0.45200
O 	O 	0.84290 0.80712 0.24341 -0.43600
O 	O 	0.46260 0.61077 0.85970 -0.50400
O 	O 	0.79890 0.81290 0.11450 -0.50900
O 	O 	0.94760 0.80423 0.03020 -0.47900
O 	O 	0.55110 0.45600 0.43920 -0.44000
O 	O 	0.34140 0.38620 0.13410 -0.50800
O 	O 	0.08120 0.75110 0.44570 -0.49800
O 	O 	0.49290 0.60000 0.98730 -0.46200
O 	O 	0.42640 0.76500 0.28950 -0.21700
O 	O 	0.40330 0.72184 0.15320 -0.21000
O 	O 	0.06190 0.50031 0.88230 -0.22200
O 	O 	0.11010 0.46704 0.01980 -0.22100
O 	O 	0.05030 0.40166 0.41980 -0.21500
O 	O 	0.97590 0.41598 0.28480 -0.21000
C 	C 	0.78880 0.80330 0.18420 0.40800
C 	C 	0.70550 0.78410 0.19690 -0.13600
C 	C 	0.68550 0.77680 0.27200 0.04700
H 	H 	0.72510 0.78330 0.31590 0.03100
C 	C 	0.60800 0.75990 0.28220 -0.09200
H 	H 	0.59460 0.75570 0.33250 0.07300
C 	C 	0.55060 0.74940 0.21640 0.02300
C 	C 	0.56900 0.75700 0.14130 -0.09600
H 	H 	0.52950 0.75000 0.09750 0.07900
C 	C 	0.64590 0.77490 0.13210 0.04100
H 	H 	0.65820 0.78110 0.08170 0.01800
C 	C 	0.46720 0.64480 0.26650 0.00700
C 	C 	0.47020 0.63470 0.34700 -0.09400
H 	H 	0.45910 0.66900 0.37960 0.06800
C 	C 	0.48980 0.57320 0.37710 0.02200
H 	H 	0.49100 0.56530 0.43060 0.03400
C 	C 	0.50780 0.52290 0.32860 -0.12100
C 	C 	0.50130 0.53290 0.24790 0.03300
H 	H 	0.51080 0.49830 0.21530 0.02500
C 	C 	0.48060 0.59400 0.21630 -0.09100
H 	H 	0.47580 0.60100 0.16230 0.07400
C 	C 	0.54210 0.46110 0.36550 0.36300
C 	C 	0.98070 0.76370 0.07990 0.39800
C 	C 	0.01460 0.70210 0.04840 -0.10700
C 	C 	0.00390 0.69070 0.96860 0.02600
H 	H 	0.97700 0.72160 0.93400 0.04600
C 	C 	0.03290 0.63330 0.93940 -0.07200
H 	H 	0.02610 0.62530 0.88550 0.08200
C 	C 	0.07220 0.58830 0.99250 0.01000
C 	C 	0.08260 0.59990 0.07220 -0.06800
H 	H 	0.10920 0.56890 0.10710 0.07100
C 	C 	0.05400 0.65700 0.10040 0.03400
H 	H 	0.06130 0.66510 0.15430 0.03700
C 	C 	0.20690 0.53270 0.94520 0.01100
C 	C 	0.22140 0.56090 0.87610 -0.09700
H 	H 	0.17890 0.56750 0.83490 0.08400
C 	C 	0.29900 0.57960 0.86810 0.04200
H 	H 	0.30930 0.59830 0.82130 0.02700
C 	C 	0.36070 0.57010 0.92990 -0.12800
C 	C 	0.34560 0.54010 0.99870 0.03500
H 	H 	0.38810 0.53270 0.03980 0.02100
C 	C 	0.26870 0.52120 0.00650 -0.10500
H 	H 	0.25840 0.50100 0.05240 0.07400
C 	C 	0.44370 0.59490 0.92450 0.38200
C 	C 	0.04710 0.72520 0.38250 0.43800
C 	C 	0.04690 0.65220 0.37540 -0.16600
C 	C 	0.01730 0.62420 0.30320 0.07900
H 	H 	0.99780 0.65110 0.26070 0.02100
C 	C 	0.01650 0.55740 0.29380 -0.12800
H 	H 	0.99700 0.53870 0.24500 0.10200
C 	C 	0.04470 0.51820 0.35730 0.03600
C 	C 	0.07250 0.54450 0.42880 -0.12600
H 	H 	0.09010 0.51720 0.47160 0.08200
C 	C 	0.07440 0.61210 0.43760 0.07400
H 	H 	0.09450 0.63050 0.48630 0.01300
C 	C 	0.13130 0.41640 0.30400 0.02400
C 	C 	0.13080 0.42550 0.22440 -0.09200
H 	H 	0.08390 0.43930 0.19200 0.09000
C 	C 	0.20100 0.41370 0.19340 0.04900
H 	H 	0.20110 0.41870 0.13960 0.03700
C 	C 	0.27080 0.39480 0.24200 -0.13100
C 	C 	0.27000 0.38520 0.32150 0.04800
H 	H 	0.31690 0.37140 0.35400 0.03000
C 	C 	0.19990 0.39590 0.35290 -0.09500
H 	H 	0.19930 0.38930 0.40630 0.07800
C 	C 	0.34720 0.38230 0.20760 0.42000
Mn	Mn	0.53088 0.33354 0.25248 1.32200
Mn	Mn	0.63584 0.37503 0.44711 1.25100
Mn	Mn	0.41234 0.35221 0.05697 1.26500
S 	S 	0.04795 0.22510 0.27098 0.27100
S 	S 	0.39307 0.01409 0.54221 0.27900
S 	S 	0.45730 0.93195 0.15567 0.26300
O 	O 	0.48510 0.25680 0.17470 -0.49500
O 	O 	0.93160 0.91770 0.17600 -0.53300
O 	O 	0.51320 0.26861 0.34660 -0.44500
O 	O 	0.09050 0.86850 0.24570 -0.45100
O 	O 	0.65710 0.30712 0.25659 -0.43600
O 	O 	0.03740 0.11077 0.64030 -0.50500
O 	O 	0.70110 0.31290 0.38550 -0.50800
O 	O 	0.55240 0.30423 0.46980 -0.47900
O 	O 	0.94890 0.95600 0.06080 -0.44100
O 	O 	0.15860 0.88620 0.36590 -0.50800
O 	O 	0.41880 0.25110 0.05430 -0.49800
O 	O 	0.00710 0.10000 0.51270 -0.46300
O 	O 	0.07360 0.26500 0.21050 -0.21700
O 	O 	0.09670 0.22184 0.34680 -0.21100
O 	O 	0.43810 0.00031 0.61770 -0.22200
O 	O 	0.38990 0.96704 0.48020 -0.22200
O 	O 	0.44970 0.90166 0.08020 -0.21400
O 	O 	0.52410 0.91598 0.21520 -0.20900
C 	C 	0.71120 0.30330 0.31580 0.40800
C 	C 	0.79450 0.28410 0.30310 -0.13600
C 	C 	0.81450 0.27680 0.22800 0.04700
H 	H 	0.77490 0.28330 0.18410 0.03100
C 	C 	0.89200 0.25990 0.21780 -0.09100
H 	H 	0.90540 0.25570 0.16750 0.07200
C 	C 	0.94940 0.24940 0.28360 0.02200
C 	C 	0.93100 0.25700 0.35870 -0.09600
H 	H 	0.97050 0.25000 0.40250 0.07800
C 	C 	0.85410 0.27490 0.36790 0.04100
H 	H 	0.84180 0.28110 0.41830 0.01800
C 	C 	0.03280 0.14480 0.23350 0.00700
C 	C 	0.02980 0.13470 0.15300 -0.09500
H 	H 	0.04090 0.16900 0.12040 0.06900
C 	C 	0.01020 0.07320 0.12290 0.02400
H 	H 	0.00900 0.06530 0.06940 0.03400
C 	C 	0.99220 0.02290 0.17140 -0.12200
C 	C 	0.99870 0.03290 0.25210 0.03400
H 	H 	0.98920 0.99830 0.28470 0.02400
C 	C 	0.01940 0.09400 0.28370 -0.09100
H 	H 	0.02420 0.10100 0.33770 0.07400
C 	C 	0.95790 0.96110 0.13450 0.36300
C 	C 	0.51930 0.26370 0.42010 0.40400
C 	C 	0.48540 0.20210 0.45160 -0.12000
C 	C 	0.49610 0.19070 0.53140 0.04200
H 	H 	0.52300 0.22160 0.56600 0.03900
C 	C 	0.46710 0.13330 0.56060 -0.08300
H 	H 	0.47390 0.12530 0.61450 0.08600
C 	C 	0.42780 0.08830 0.50750 0.01900
C 	C 	0.41740 0.09990 0.42780 -0.07900
H 	H 	0.39080 0.06890 0.39290 0.07500
C 	C 	0.44600 0.15700 0.39960 0.04500
H 	H 	0.43870 0.16510 0.34570 0.03200
C 	C 	0.29310 0.03270 0.55480 0.01600
C 	C 	0.27860 0.06090 0.62390 -0.10100
H 	H 	0.32110 0.06750 0.66510 0.08600
C 	C 	0.20100 0.07960 0.63190 0.04500
H 	H 	0.19070 0.09830 0.67870 0.02600
C 	C 	0.13930 0.07010 0.57010 -0.13200
C 	C 	0.15440 0.04010 0.50130 0.04200
H 	H 	0.11190 0.03270 0.46020 0.01800
C 	C 	0.23130 0.02120 0.49350 -0.11200
H 	H 	0.24160 0.00100 0.44760 0.07600
C 	C 	0.05630 0.09490 0.57550 0.38300
C 	C 	0.45290 0.22520 0.11750 0.43800
C 	C 	0.45310 0.15220 0.12460 -0.16600
C 	C 	0.48270 0.12420 0.19680 0.07800
H 	H 	0.50220 0.15110 0.23930 0.02200
C 	C 	0.48350 0.05740 0.20620 -0.13000
H 	H 	0.50300 0.03870 0.25500 0.10300
C 	C 	0.45530 0.01820 0.14270 0.03600
C 	C 	0.42750 0.04450 0.07120 -0.12600
H 	H 	0.40990 0.01720 0.02840 0.08200
C 	C 	0.42560 0.11210 0.06240 0.07400
H 	H 	0.40550 0.13050 0.01370 0.01400
C 	C 	0.36870 0.91640 0.19600 0.02500
C 	C 	0.36920 0.92550 0.27560 -0.09200
H 	H 	0.41610 0.93930 0.30800 0.08900
C 	C 	0.29900 0.91370 0.30660 0.04900
H 	H 	0.29890 0.91870 0.36040 0.03700
C 	C 	0.22920 0.89480 0.25800 -0.13100
C 	C 	0.23000 0.88520 0.17850 0.04800
H 	H 	0.18310 0.87140 0.14600 0.03000
C 	C 	0.30010 0.89590 0.14710 -0.09500
H 	H 	0.30070 0.88930 0.09370 0.07800
C 	C 	0.15280 0.88230 0.29240 0.42000
Mn	Mn	0.03088 0.16646 0.75248 1.32100
Mn	Mn	0.13584 0.12497 0.94711 1.25000
Mn	Mn	0.91234 0.14779 0.55697 1.26500
S 	S 	0.54795 0.27490 0.77098 0.27000
S 	S 	0.89307 0.48591 0.04221 0.28100
S 	S 	0.95730 0.56805 0.65567 0.26500
O 	O 	0.98510 0.24320 0.67470 -0.49500
O 	O 	0.43160 0.58230 0.67600 -0.53200
O 	O 	0.01320 0.23139 0.84660 -0.44400
O 	O 	0.59050 0.63150 0.74570 -0.45200
O 	O 	0.15710 0.19288 0.75659 -0.43600
O 	O 	0.53740 0.38923 0.14030 -0.50400
O 	O 	0.20110 0.18710 0.88550 -0.50900
O 	O 	0.05240 0.19577 0.96980 -0.47900
O 	O 	0.44890 0.54400 0.56080 -0.44000
O 	O 	0.65860 0.61380 0.86590 -0.50800
O 	O 	0.91880 0.24890 0.55430 -0.49800
O 	O 	0.50710 0.40000 0.01270 -0.46200
O 	O 	0.57360 0.23500 0.71050 -0.21700
O 	O 	0.59670 0.27816 0.84680 -0.21000
O 	O 	0.93810 0.49969 0.11770 -0.22200
O 	O 	0.88990 0.53296 0.98020 -0.22100
O 	O 	0.94970 0.59834 0.58020 -0.21500
O 	O 	0.02410 0.58402 0.71520 -0.21000
C 	C 	0.21120 0.19670 0.81580 0.40800
C 	C 	0.29450 0.21590 0.80310 -0.13600
C 	C 	0.31450 0.22320 0.72800 0.04700
H 	H 	0.27490 0.21670 0.68410 0.03100
C 	C 	0.39200 0.24010 0.71780 -0.09200
H 	H 	0.40540 0.24430 0.66750 0.07300
C 	C 	0.44940 0.25060 0.78360 0.02300
C 	C 	0.43100 0.24300 0.85870 -0.09600
H 	H 	0.47050 0.25000 0.90250 0.07900
C 	C 	0.35410 0.22510 0.86790 0.04100
H 	H 	0.34180 0.21890 0.91830 0.01800
C 	C 	0.53280 0.35520 0.73350 0.00700
C 	C 	0.52980 0.36530 0.65300 -0.09400
H 	H 	0.54090 0.33100 0.62040 0.06800
C 	C 	0.51020 0.42680 0.62290 0.02200
H 	H 	0.50900 0.43470 0.56940 0.03400
C 	C 	0.49220 0.47710 0.67140 -0.12100
C 	C 	0.49870 0.46710 0.75210 0.03300
H 	H 	0.48920 0.50170 0.78470 0.02500
C 	C 	0.51940 0.40600 0.78370 -0.09100
H 	H 	0.52420 0.39900 0.83770 0.07400
C 	C 	0.45790 0.53890 0.63450 0.36300
C 	C 	0.01930 0.23630 0.92010 0.39800
C 	C 	0.98540 0.29790 0.95160 -0.10700
C 	C 	0.99610 0.30930 0.03140 0.02600
H 	H 	0.02300 0.27840 0.06600 0.04600
C 	C 	0.96710 0.36670 0.06060 -0.07200
H 	H 	0.97390 0.37470 0.11450 0.08200
C 	C 	0.92780 0.41170 0.00750 0.01000
C 	C 	0.91740 0.40010 0.92780 -0.06800
H 	H 	0.89080 0.43110 0.89290 0.07100
C 	C 	0.94600 0.34300 0.89960 0.03400
H 	H 	0.93870 0.33490 0.84570 0.03700
C 	C 	0.79310 0.46730 0.05480 0.01100
C 	C 	0.77860 0.43910 0.12390 -0.09700
H 	H 	0.82110 0.43250 0.16510 0.08400
C 	C 	0.70100 0.42040 0.13190 0.04200
H 	H 	0.69070 0.40170 0.17870 0.02700
C 	C 	0.63930 0.42990 0.07010 -0.12800
C 	C 	0.65440 0.45990 0.00130 0.03500
H 	H 	0.61190 0.46730 0.96020 0.02100
C 	C 	0.73130 0.47880 0.99350 -0.10500
H 	H 	0.74160 0.49900 0.94760 0.07400
C 	C 	0.55630 0.40510 0.07550 0.38200
C 	C 	0.95290 0.27480 0.61750 0.43800
C 	C 	0.95310 0.34780 0.62460 -0.16600
C 	C 	0.98270 0.37580 0.69680 0.07900
H 	H 	0.00220 0.34890 0.73930 0.02100
C 	C 	0.98350 0.44260 0.70620 -0.12800
H 	H 	0.00300 0.46130 0.75500 0.10200
C 	C 	0.95530 0.48180 0.64270 0.03600
C 	C 	0.92750 0.45550 0.57120 -0.12600
H 	H 	0.90990 0.48280 0.52840 0.08200
C 	C 	0.92560 0.38790 0.56240 0.07400
H 	H 	0.90550 0.36950 0.51370 0.01300
C 	C 	0.86870 0.58360 0.69600 0.02400
C 	C 	0.86920 0.57450 0.77560 -0.09200
H 	H 	0.91610 0.56070 0.80800 0.09000
C 	C 	0.79900 0.58630 0.80660 0.04900
H 	H 	0.79890 0.58130 0.86040 0.03700
C 	C 	0.72920 0.60520 0.75800 -0.13100
C 	C 	0.73000 0.61480 0.67850 0.04800
H 	H 	0.68310 0.62860 0.64600 0.03000
C 	C 	0.80010 0.60410 0.64710 -0.09500
H 	H 	0.80070 0.61070 0.59370 0.07800
C 	C 	0.65280 0.61770 0.79240 0.42000
Mn	Mn	0.46912 0.66646 0.74752 1.32200
Mn	Mn	0.36416 0.62497 0.55289 1.25100
Mn	Mn	0.58766 0.64779 0.94303 1.26500
S 	S 	0.95205 0.77490 0.72902 0.27100
S 	S 	0.60693 0.98591 0.45779 0.27900
S 	S 	0.54270 0.06805 0.84433 0.26300
O 	O 	0.51490 0.74320 0.82530 -0.49500
O 	O 	0.06840 0.08230 0.82400 -0.53300
O 	O 	0.48680 0.73139 0.65340 -0.44500
O 	O 	0.90950 0.13150 0.75430 -0.45100
O 	O 	0.34290 0.69288 0.74341 -0.43600
O 	O 	0.96260 0.88923 0.35970 -0.50500
O 	O 	0.29890 0.68710 0.61450 -0.50800
O 	O 	0.44760 0.69577 0.53020 -0.47900
O 	O 	0.05110 0.04400 0.93920 -0.44100
O 	O 	0.84140 0.11380 0.63410 -0.50800
O 	O 	0.58120 0.74890 0.94570 -0.49800
O 	O 	0.99290 0.90000 0.48730 -0.46300
O 	O 	0.92640 0.73500 0.78950 -0.21700
O 	O 	0.90330 0.77816 0.65320 -0.21100
O 	O 	0.56190 0.99969 0.38230 -0.22200
O 	O 	0.61010 0.03296 0.51980 -0.22200
O 	O 	0.55030 0.09834 0.91980 -0.21400
O 	O 	0.47590 0.08402 0.78480 -0.20900
C 	C 	0.28880 0.69670 0.68420 0.40800
C 	C 	0.20550 0.71590 0.69690 -0.13600
C 	C 	0.18550 0.72320 0.77200 0.04700
H 	H 	0.22510 0.71670 0.81590 0.03100
C 	C 	0.10800 0.74010 0.78220 -0.09100
H 	H 	0.09460 0.74430 0.83250 0.07200
C 	C 	0.05060 0.75060 0.71640 0.02200
C 	C 	0.06900 0.74300 0.64130 -0.09600
H 	H 	0.02950 0.75000 0.59750 0.07800
C 	C 	0.14590 0.72510 0.63210 0.04100
H 	H 	0.15820 0.71890 0.58170 0.01800
C 	C 	0.96720 0.85520 0.76650 0.00700
C 	C 	0.97020 0.86530 0.84700 -0.09500
H 	H 	0.95910 0.83100 0.87960 0.06900
C 	C 	0.98980 0.92680 0.87710 0.02400
H 	H 	0.99100 0.93470 0.93060 0.03400
C 	C 	0.00780 0.97710 0.82860 -0.12200
C 	C 	0.00130 0.96710 0.74790 0.03400
H 	H 	0.01080 0.00170 0.71530 0.02400
C 	C 	0.98060 0.90600 0.71630 -0.09100
H 	H 	0.97580 0.89900 0.66230 0.07400
C 	C 	0.04210 0.03890 0.86550 0.36300
C 	C 	0.48070 0.73630 0.57990 0.40400
C 	C 	0.51460 0.79790 0.54840 -0.12000
C 	C 	0.50390 0.80930 0.46860 0.04200
H 	H 	0.47700 0.77840 0.43400 0.03900
C 	C 	0.53290 0.86670 0.43940 -0.08300
H 	H 	0.52610 0.87470 0.38550 0.08600
C 	C 	0.57220 0.91170 0.49250 0.01900
C 	C 	0.58260 0.90010 0.57220 -0.07900
H 	H 	0.60920 0.93110 0.60710 0.07500
C 	C 	0.55400 0.84300 0.60040 0.04500
H 	H 	0.56130 0.83490 0.65430 0.03200
C 	C 	0.70690 0.96730 0.44520 0.01600
C 	C 	0.72140 0.93910 0.37610 -0.10100
H 	H 	0.67890 0.93250 0.33490 0.08600
C 	C 	0.79900 0.92040 0.36810 0.04500
H 	H 	0.80930 0.90170 0.32130 0.02600
C 	C 	0.86070 0.92990 0.42990 -0.13200
C 	C 	0.84560 0.95990 0.49870 0.04200
H 	H 	0.88810 0.96730 0.53980 0.01800
C 	C 	0.76870 0.97880 0.50650 -0.11200
H 	H 	0.75840 0.99900 0.55240 0.07600
C 	C 	0.94370 0.90510 0.42450 0.38300
C 	C 	0.54710 0.77480 0.88250 0.43800
C 	C 	0.54690 0.84780 0.87540 -0.16600
C 	C 	0.51730 0.87580 0.80320 0.07800
H 	H 	0.49780 0.84890 0.76070 0.02200
C 	C 	0.51650 0.94260 0.79380 -0.13000
H 	H 	0.49700 0.96130 0.74500 0.10300
C 	C 	0.54470 0.98180 0.85730 0.03600
C 	C 	0.57250 0.95550 0.92880 -0.12600
H 	H 	0.59010 0.98280 0.97160 0.08200
C 	C 	0.57440 0.88790 0.93760 0.07400
H 	H 	0.59450 0.86950 0.98630 0.01400
C 	C 	0.63130 0.08360 0.80400 0.02500
C 	C 	0.63080 0.07450 0.72440 -0.09200
H 	H 	0.58390 0.06070 0.69200 0.08900
C 	C 	0.70100 0.08630 0.69340 0.04900
H 	H 	0.70110 0.08130 0.63960 0.03700
C 	C 	0.77080 0.10520 0.74200 -0.13100
C 	C 	0.77000 0.11480 0.82150 0.04800
H 	H 	0.81690 0.12860 0.85400 0.03000
C 	C 	0.69990 0.10410 0.85290 -0.09500
H 	H 	0.69930 0.11070 0.90630 0.07800
C 	C 	0.84720 0.11770 0.70760 0.42000
