data_crystal

_cell_length_a 11.63840
_cell_length_b 21.05200
_cell_length_c 24.24700
_cell_angle_alpha 114.95900
_cell_angle_beta  102.95000
_cell_angle_gamma 92.40600

_symmetry_space_group_name_	'P 1'
_symmetry_space_group_name_H-M	'P 1'

loop_
_symmetry_equiv_pos_as_xyz
  x,y,z

loop_
_atom_site_label
_atom_site_type_symbol
_atom_site_fract_x
_atom_site_fract_y
_atom_site_fract_z
_atom_site_charge
Mn	Mn	0.42036 0.17038 0.34079 1.31600
Mn	Mn	0.66444 0.23569 0.29297 1.26300
Mn	Mn	0.12852 0.05723 0.29299 1.26100
Mn	Mn	0.87264 0.12270 0.24541 1.23700
S 	S 	0.84310 0.46766 0.70245 0.24800
S 	S 	0.34519 0.78946 0.08094 0.24900
S 	S 	0.64070 0.76506 0.29748 0.24800
S 	S 	0.23579 0.29147 0.08100 0.25300
O 	O 	0.58220 0.21120 0.41290 -0.44600
O 	O 	0.66910 0.79850 0.58690 -0.44600
O 	O 	0.42800 0.06620 0.33573 -0.45200
O 	O 	0.59200 0.73050 0.66402 -0.45300
O 	O 	0.24400 0.12251 0.26355 -0.52800
O 	O 	0.51870 0.14077 0.26379 -0.52300
O 	O 	0.71310 0.27110 0.39004 -0.51600
O 	O 	0.46010 0.69530 0.70373 -0.45800
O 	O 	0.34220 0.78390 0.80114 -0.48400
O 	O 	0.69380 0.10920 0.25592 -0.57500
O 	O 	0.82290 0.88170 0.61014 -0.52000
O 	O 	0.25600 0.99080 0.29612 -0.45600
O 	O 	0.95820 0.01760 0.80130 -0.46900
O 	O 	0.06230 0.14680 0.25585 -0.57600
O 	O 	0.19000 0.84040 0.82249 -0.48500
O 	O 	0.13200 0.98140 0.82238 -0.48100
O 	O 	0.96960 0.49580 0.71610 -0.19400
O 	O 	0.80500 0.43870 0.74000 -0.18700
O 	O 	0.43050 0.74280 0.08515 -0.18300
O 	O 	0.23040 0.77910 0.09180 -0.19600
O 	O 	0.75240 0.77870 0.28370 -0.19600
O 	O 	0.56580 0.69810 0.25920 -0.18600
O 	O 	0.36090 0.31240 0.09177 -0.19800
O 	O 	0.15450 0.34230 0.08512 -0.18400
C 	C 	0.66740 0.26050 0.42750 0.40600
C 	C 	0.71800 0.30710 0.49670 -0.13700
C 	C 	0.81060 0.36250 0.51690 0.04800
H 	H 	0.84560 0.36810 0.48800 0.01600
C 	C 	0.85020 0.40940 0.58050 -0.09900
H 	H 	0.91210 0.44630 0.59370 0.07300
C 	C 	0.80120 0.40290 0.62390 0.02700
C 	C 	0.71040 0.34700 0.60400 -0.09900
H 	H 	0.67680 0.34130 0.63330 0.08100
C 	C 	0.66950 0.29970 0.54080 0.05100
H 	H 	0.60850 0.26240 0.52790 0.02800
C 	C 	0.75640 0.53360 0.70090 0.04000
C 	C 	0.80480 0.58590 0.68420 -0.11600
H 	H 	0.88050 0.58630 0.67760 0.07400
C 	C 	0.73540 0.63360 0.67860 0.07300
H 	H 	0.76330 0.66630 0.66640 0.01200
C 	C 	0.62600 0.63590 0.69020 -0.15000
C 	C 	0.58510 0.58780 0.70660 0.07300
H 	H 	0.51120 0.58950 0.71550 0.02800
C 	C 	0.65170 0.53490 0.71090 -0.11400
H 	H 	0.62050 0.50100 0.72090 0.09600
C 	C 	0.55390 0.69090 0.68470 0.41100
C 	C 	0.58230 0.09250 0.24300 0.40900
C 	C 	0.52230 0.01680 0.20540 -0.16200
C 	C 	0.40170 0.00050 0.18750 0.06700
H 	H 	0.35540 0.03640 0.19920 0.01600
C 	C 	0.34710 0.93050 0.15190 -0.10800
H 	H 	0.26450 0.91940 0.14140 0.08500
C 	C 	0.41480 0.87740 0.13190 0.03400
C 	C 	0.53990 0.89450 0.14940 -0.11400
H 	H 	0.58650 0.85880 0.13670 0.09000
C 	C 	0.59210 0.96280 0.18470 0.07000
H 	H 	0.67460 0.97420 0.19540 0.00300
C 	C 	0.32150 0.78790 0.00540 0.03700
C 	C 	0.22690 0.82100 0.98740 -0.10800
H 	H 	0.17560 0.83930 0.01280 0.08000
C 	C 	0.21280 0.82540 0.93240 0.05500
H 	H 	0.14970 0.84610 0.91960 0.02700
C 	C 	0.28980 0.80000 0.89410 -0.13200
C 	C 	0.38070 0.76650 0.91220 0.05400
H 	H 	0.43100 0.74730 0.88650 0.03700
C 	C 	0.39620 0.76160 0.96830 -0.10500
H 	H 	0.45840 0.74020 0.98090 0.09800
C 	C 	0.27280 0.80750 0.83360 0.41300
C 	C 	0.36830 0.00630 0.31500 0.40900
C 	C 	0.43540 0.94560 0.30920 -0.14600
C 	C 	0.37850 0.88200 0.29470 0.07300
H 	H 	0.29620 0.87540 0.28820 0.02800
C 	C 	0.44060 0.82450 0.28890 -0.11400
H 	H 	0.39890 0.78030 0.27760 0.09600
C 	C 	0.55570 0.83300 0.29930 0.04100
C 	C 	0.62000 0.90100 0.31520 -0.11700
H 	H 	0.70230 0.90790 0.32140 0.07500
C 	C 	0.55670 0.95400 0.32070 0.07300
H 	H 	0.59740 0.99880 0.33290 0.01200
C 	C 	0.67680 0.77940 0.37710 0.03100
C 	C 	0.60670 0.74270 0.39640 -0.10700
H 	H 	0.54460 0.70730 0.36680 0.08300
C 	C 	0.62780 0.75810 0.45830 0.05500
H 	H 	0.57940 0.73350 0.47080 0.02600
C 	C 	0.72120 0.81020 0.50310 -0.13600
C 	C 	0.79370 0.84570 0.48270 0.05200
H 	H 	0.85720 0.88050 0.51170 0.01400
C 	C 	0.77080 0.82900 0.42030 -0.10600
H 	H 	0.82030 0.85190 0.40680 0.07500
C 	C 	0.74040 0.83350 0.57290 0.40700
C 	C 	0.16140 0.15150 0.24370 0.41400
C 	C 	0.18360 0.18830 0.20470 -0.17300
C 	C 	0.09270 0.22170 0.18440 0.07800
H 	H 	0.02070 0.22070 0.19490 0.00100
C 	C 	0.11070 0.25530 0.14950 -0.12400
H 	H 	0.05200 0.27870 0.13690 0.09300
C 	C 	0.21690 0.25480 0.13240 0.04300
C 	C 	0.30350 0.22130 0.15210 -0.12400
H 	H 	0.37540 0.22160 0.14140 0.08900
C 	C 	0.28570 0.18740 0.18740 0.08500
H 	H 	0.34440 0.16370 0.19950 0.00900
C 	C 	0.18430 0.21740 0.00560 0.02100
C 	C 	0.07090 0.20650 0.96850 -0.08500
H 	H 	0.02080 0.24010 0.98090 0.09000
C 	C 	0.03130 0.14530 0.91230 0.02900
H 	H 	0.95510 0.13830 0.88640 0.04800
C 	C 	0.10500 0.09440 0.89470 -0.11100
C 	C 	0.21990 0.10660 0.93200 0.03600
H 	H 	0.27010 0.07320 0.91920 0.03300
C 	C 	0.26050 0.16600 0.98630 -0.08700
H 	H 	0.33790 0.17330 0.01120 0.07100
C 	C 	0.06140 0.02560 0.83380 0.39000
Mn	Mn	0.57964 0.82962 0.65921 1.31500
Mn	Mn	0.33556 0.76431 0.70703 1.26200
Mn	Mn	0.87148 0.94277 0.70701 1.26100
Mn	Mn	0.12736 0.87730 0.75459 1.23700
S 	S 	0.15690 0.53234 0.29755 0.24800
S 	S 	0.65481 0.21054 0.91906 0.24900
S 	S 	0.35930 0.23494 0.70252 0.24800
S 	S 	0.76421 0.70853 0.91900 0.25300
O 	O 	0.41780 0.78880 0.58710 -0.44600
O 	O 	0.33090 0.20150 0.41310 -0.44600
O 	O 	0.57200 0.93380 0.66427 -0.45200
O 	O 	0.40800 0.26950 0.33598 -0.45300
O 	O 	0.75600 0.87749 0.73645 -0.52800
O 	O 	0.48130 0.85923 0.73621 -0.52300
O 	O 	0.28690 0.72890 0.60996 -0.51600
O 	O 	0.53990 0.30470 0.29627 -0.45800
O 	O 	0.65780 0.21610 0.19886 -0.48400
O 	O 	0.30620 0.89080 0.74408 -0.57500
O 	O 	0.17710 0.11830 0.38986 -0.52000
O 	O 	0.74400 0.00920 0.70388 -0.45600
O 	O 	0.04180 0.98240 0.19870 -0.46900
O 	O 	0.93770 0.85320 0.74415 -0.57600
O 	O 	0.81000 0.15960 0.17751 -0.48500
O 	O 	0.86800 0.01860 0.17762 -0.48100
O 	O 	0.03040 0.50420 0.28390 -0.19400
O 	O 	0.19500 0.56130 0.26000 -0.18700
O 	O 	0.56950 0.25720 0.91485 -0.18300
O 	O 	0.76960 0.22090 0.90820 -0.19600
O 	O 	0.24760 0.22130 0.71630 -0.19600
O 	O 	0.43420 0.30190 0.74080 -0.18600
O 	O 	0.63910 0.68760 0.90823 -0.19800
O 	O 	0.84550 0.65770 0.91488 -0.18400
C 	C 	0.33260 0.73950 0.57250 0.40600
C 	C 	0.28200 0.69290 0.50330 -0.13700
C 	C 	0.18940 0.63750 0.48310 0.04800
H 	H 	0.15440 0.63190 0.51200 0.01600
C 	C 	0.14980 0.59060 0.41950 -0.09900
H 	H 	0.08790 0.55370 0.40630 0.07300
C 	C 	0.19880 0.59710 0.37610 0.02700
C 	C 	0.28960 0.65300 0.39600 -0.09900
H 	H 	0.32320 0.65870 0.36670 0.08100
C 	C 	0.33050 0.70030 0.45920 0.05100
H 	H 	0.39150 0.73760 0.47210 0.02800
C 	C 	0.24360 0.46640 0.29910 0.04000
C 	C 	0.19520 0.41410 0.31580 -0.11600
H 	H 	0.11950 0.41370 0.32240 0.07400
C 	C 	0.26460 0.36640 0.32140 0.07300
H 	H 	0.23670 0.33370 0.33360 0.01200
C 	C 	0.37400 0.36410 0.30980 -0.15000
C 	C 	0.41490 0.41220 0.29340 0.07300
H 	H 	0.48880 0.41050 0.28450 0.02800
C 	C 	0.34830 0.46510 0.28910 -0.11400
H 	H 	0.37950 0.49900 0.27910 0.09600
C 	C 	0.44610 0.30910 0.31530 0.41100
C 	C 	0.41770 0.90750 0.75700 0.40900
C 	C 	0.47770 0.98320 0.79460 -0.16200
C 	C 	0.59830 0.99950 0.81250 0.06700
H 	H 	0.64460 0.96360 0.80080 0.01600
C 	C 	0.65290 0.06950 0.84810 -0.10800
H 	H 	0.73550 0.08060 0.85860 0.08500
C 	C 	0.58520 0.12260 0.86810 0.03400
C 	C 	0.46010 0.10550 0.85060 -0.11400
H 	H 	0.41350 0.14120 0.86330 0.09000
C 	C 	0.40790 0.03720 0.81530 0.07000
H 	H 	0.32540 0.02580 0.80460 0.00300
C 	C 	0.67850 0.21210 0.99460 0.03700
C 	C 	0.77310 0.17900 0.01260 -0.10800
H 	H 	0.82440 0.16070 0.98720 0.08000
C 	C 	0.78720 0.17460 0.06760 0.05500
H 	H 	0.85030 0.15390 0.08040 0.02700
C 	C 	0.71020 0.20000 0.10590 -0.13200
C 	C 	0.61930 0.23350 0.08780 0.05400
H 	H 	0.56900 0.25270 0.11350 0.03700
C 	C 	0.60380 0.23840 0.03170 -0.10500
H 	H 	0.54160 0.25980 0.01910 0.09800
C 	C 	0.72720 0.19250 0.16640 0.41300
C 	C 	0.63170 0.99370 0.68500 0.40900
C 	C 	0.56460 0.05440 0.69080 -0.14600
C 	C 	0.62150 0.11800 0.70530 0.07300
H 	H 	0.70380 0.12460 0.71180 0.02800
C 	C 	0.55940 0.17550 0.71110 -0.11400
H 	H 	0.60110 0.21970 0.72240 0.09600
C 	C 	0.44430 0.16700 0.70070 0.04100
C 	C 	0.38000 0.09900 0.68480 -0.11700
H 	H 	0.29770 0.09210 0.67860 0.07500
C 	C 	0.44330 0.04600 0.67930 0.07300
H 	H 	0.40260 0.00120 0.66710 0.01200
C 	C 	0.32320 0.22060 0.62290 0.03100
C 	C 	0.39330 0.25730 0.60360 -0.10700
H 	H 	0.45540 0.29270 0.63320 0.08300
C 	C 	0.37220 0.24190 0.54170 0.05500
H 	H 	0.42060 0.26650 0.52920 0.02600
C 	C 	0.27880 0.18980 0.49690 -0.13600
C 	C 	0.20630 0.15430 0.51730 0.05200
H 	H 	0.14280 0.11950 0.48830 0.01400
C 	C 	0.22920 0.17100 0.57970 -0.10600
H 	H 	0.17970 0.14810 0.59320 0.07500
C 	C 	0.25960 0.16650 0.42710 0.40700
C 	C 	0.83860 0.84850 0.75630 0.41400
C 	C 	0.81640 0.81170 0.79530 -0.17300
C 	C 	0.90730 0.77830 0.81560 0.07800
H 	H 	0.97930 0.77930 0.80510 0.00100
C 	C 	0.88930 0.74470 0.85050 -0.12400
H 	H 	0.94800 0.72130 0.86310 0.09300
C 	C 	0.78310 0.74520 0.86760 0.04300
C 	C 	0.69650 0.77870 0.84790 -0.12400
H 	H 	0.62460 0.77840 0.85860 0.08900
C 	C 	0.71430 0.81260 0.81260 0.08500
H 	H 	0.65560 0.83630 0.80050 0.00900
C 	C 	0.81570 0.78260 0.99440 0.02100
C 	C 	0.92910 0.79350 0.03150 -0.08500
H 	H 	0.97920 0.75990 0.01910 0.09000
C 	C 	0.96870 0.85470 0.08770 0.02900
H 	H 	0.04490 0.86170 0.11360 0.04800
C 	C 	0.89500 0.90560 0.10530 -0.11100
C 	C 	0.78010 0.89340 0.06800 0.03600
H 	H 	0.72990 0.92680 0.08080 0.03300
C 	C 	0.73950 0.83400 0.01370 -0.08700
H 	H 	0.66210 0.82670 0.98880 0.07100
C 	C 	0.93860 0.97440 0.16620 0.39000
