data_crystal

_cell_length_a 32.63200
_cell_length_b 17.22640
_cell_length_c 10.15320
_cell_angle_alpha 90.00000
_cell_angle_beta  93.44800
_cell_angle_gamma 90.00000

_symmetry_space_group_name_	'P 1'
_symmetry_space_group_name_H-M	'P 1'

loop_
_symmetry_equiv_pos_as_xyz
  x,y,z

loop_
_atom_site_label
_atom_site_type_symbol
_atom_site_fract_x
_atom_site_fract_y
_atom_site_fract_z
_atom_site_charge
Eu	Eu	0.30826 0.20956 0.00171 1.82900
O 	O 	0.28392 0.11390 0.15130 -0.45800
O 	O 	0.23208 0.19000 0.09380 -0.56900
O 	O 	0.26336 0.86080 0.35500 -0.52800
O 	O 	0.20130 0.80660 0.33680 -0.47200
O 	O 	0.37601 0.27380 0.03330 -0.31600
O 	O 	0.36372 0.19480 0.18950 -0.26000
C 	C 	0.24550 0.12530 0.13690 0.43400
C 	C 	0.21760 0.06060 0.16850 -0.21200
C 	C 	0.23330 0.99540 0.23170 0.13900
H 	H 	0.26110 0.99290 0.25780 -0.00400
C 	C 	0.20800 0.93390 0.25640 -0.20800
C 	C 	0.22590 0.86240 0.32340 0.48500
C 	C 	0.16730 0.93630 0.21740 0.10000
H 	H 	0.15080 0.89390 0.23420 0.01600
C 	C 	0.14990 0.99970 0.15390 -0.13800
C 	C 	0.17710 0.06200 0.12720 0.10500
H 	H 	0.16690 0.10480 0.08010 -0.02500
C 	C 	0.10590 0.00480 0.11070 0.19300
C 	C 	0.07910 0.95520 0.15500 -0.18600
H 	H 	0.08790 0.91840 0.21760 0.11400
C 	C 	0.03750 0.95680 0.11000 0.04600
H 	H 	0.01980 0.92150 0.14680 0.02700
C 	C 	0.02240 0.00280 0.02320 -0.04400
C 	C 	0.04920 0.05670 0.00200 0.07000
H 	H 	0.03960 0.10040 0.95620 0.02300
C 	C 	0.08930 0.05520 0.04110 -0.22900
H 	H 	0.10560 0.09540 0.01300 0.12600
N 	N 	0.38670 0.24610 0.14590 0.06700
O 	O 	0.41660 0.27030 0.21150 -0.12800
Eu	Eu	0.80826 0.70956 0.00171 1.83100
O 	O 	0.78392 0.61390 0.15130 -0.45700
O 	O 	0.73208 0.69000 0.09380 -0.56800
O 	O 	0.76336 0.36080 0.35500 -0.52700
O 	O 	0.70130 0.30660 0.33680 -0.47200
O 	O 	0.87601 0.77380 0.03330 -0.31600
O 	O 	0.86372 0.69480 0.18950 -0.26000
C 	C 	0.74550 0.62530 0.13690 0.43500
C 	C 	0.71760 0.56060 0.16850 -0.21300
C 	C 	0.73330 0.49540 0.23170 0.14000
H 	H 	0.76110 0.49290 0.25780 -0.00400
C 	C 	0.70800 0.43390 0.25640 -0.20900
C 	C 	0.72590 0.36240 0.32340 0.48500
C 	C 	0.66730 0.43630 0.21740 0.10300
H 	H 	0.65080 0.39390 0.23420 0.01500
C 	C 	0.64990 0.49970 0.15390 -0.14200
C 	C 	0.67710 0.56200 0.12720 0.10700
H 	H 	0.66690 0.60480 0.08010 -0.02500
C 	C 	0.60590 0.50480 0.11070 0.20000
C 	C 	0.57910 0.45520 0.15500 -0.19100
H 	H 	0.58790 0.41840 0.21760 0.11500
C 	C 	0.53750 0.45680 0.11000 0.04800
H 	H 	0.51980 0.42150 0.14680 0.02600
C 	C 	0.52240 0.50280 0.02320 -0.04600
C 	C 	0.54920 0.55670 0.00200 0.07500
H 	H 	0.53960 0.60040 0.95620 0.02100
C 	C 	0.58930 0.55520 0.04110 -0.23500
H 	H 	0.60560 0.59540 0.01300 0.12800
N 	N 	0.88670 0.74610 0.14590 0.06700
O 	O 	0.91660 0.77030 0.21150 -0.12800
Eu	Eu	0.69174 0.20956 0.49829 1.83000
O 	O 	0.71608 0.11390 0.34870 -0.45700
O 	O 	0.76792 0.19000 0.40620 -0.56800
O 	O 	0.73664 0.86080 0.14500 -0.52700
O 	O 	0.79870 0.80660 0.16320 -0.47200
O 	O 	0.62399 0.27380 0.46670 -0.31600
O 	O 	0.63628 0.19480 0.31050 -0.26000
C 	C 	0.75450 0.12530 0.36310 0.43400
C 	C 	0.78240 0.06060 0.33150 -0.21300
C 	C 	0.76670 0.99540 0.26830 0.13900
H 	H 	0.73890 0.99290 0.24220 -0.00400
C 	C 	0.79200 0.93390 0.24360 -0.20900
C 	C 	0.77410 0.86240 0.17660 0.48500
C 	C 	0.83270 0.93630 0.28260 0.10200
H 	H 	0.84920 0.89390 0.26580 0.01500
C 	C 	0.85010 0.99970 0.34610 -0.14100
C 	C 	0.82290 0.06200 0.37280 0.10600
H 	H 	0.83310 0.10480 0.41990 -0.02500
C 	C 	0.89410 0.00480 0.38930 0.19700
C 	C 	0.92090 0.95520 0.34500 -0.18900
H 	H 	0.91210 0.91840 0.28240 0.11500
C 	C 	0.96250 0.95680 0.39000 0.04700
H 	H 	0.98020 0.92150 0.35320 0.02700
C 	C 	0.97760 0.00280 0.47680 -0.04500
C 	C 	0.95080 0.05670 0.49800 0.07200
H 	H 	0.96040 0.10040 0.54380 0.02100
C 	C 	0.91070 0.05520 0.45890 -0.23200
H 	H 	0.89440 0.09540 0.48700 0.12700
N 	N 	0.61330 0.24610 0.35410 0.06700
O 	O 	0.58340 0.27030 0.28850 -0.12800
Eu	Eu	0.19174 0.70956 0.49829 1.83000
O 	O 	0.21608 0.61390 0.34870 -0.45700
O 	O 	0.26792 0.69000 0.40620 -0.56800
O 	O 	0.23664 0.36080 0.14500 -0.52700
O 	O 	0.29870 0.30660 0.16320 -0.47200
O 	O 	0.12399 0.77380 0.46670 -0.31600
O 	O 	0.13628 0.69480 0.31050 -0.25900
C 	C 	0.25450 0.62530 0.36310 0.43500
C 	C 	0.28240 0.56060 0.33150 -0.21300
C 	C 	0.26670 0.49540 0.26830 0.13900
H 	H 	0.23890 0.49290 0.24220 -0.00400
C 	C 	0.29200 0.43390 0.24360 -0.20900
C 	C 	0.27410 0.36240 0.17660 0.48500
C 	C 	0.33270 0.43630 0.28260 0.10200
H 	H 	0.34920 0.39390 0.26580 0.01500
C 	C 	0.35010 0.49970 0.34610 -0.14200
C 	C 	0.32290 0.56200 0.37280 0.10700
H 	H 	0.33310 0.60480 0.41990 -0.02500
C 	C 	0.39410 0.50480 0.38930 0.19900
C 	C 	0.42090 0.45520 0.34500 -0.19000
H 	H 	0.41210 0.41840 0.28240 0.11500
C 	C 	0.46250 0.45680 0.39000 0.04800
H 	H 	0.48020 0.42150 0.35320 0.02600
C 	C 	0.47760 0.50280 0.47680 -0.04500
C 	C 	0.45080 0.55670 0.49800 0.07300
H 	H 	0.46040 0.60040 0.54380 0.02100
C 	C 	0.41070 0.55520 0.45890 -0.23400
H 	H 	0.39440 0.59540 0.48700 0.12700
N 	N 	0.11330 0.74610 0.35410 0.06700
O 	O 	0.08340 0.77030 0.28850 -0.12800
Eu	Eu	0.69174 0.79044 0.99829 1.83000
O 	O 	0.71608 0.88610 0.84870 -0.45700
O 	O 	0.76792 0.81000 0.90620 -0.56800
O 	O 	0.73664 0.13920 0.64500 -0.52700
O 	O 	0.79870 0.19340 0.66320 -0.47200
O 	O 	0.62399 0.72620 0.96670 -0.31600
O 	O 	0.63628 0.80520 0.81050 -0.26000
C 	C 	0.75450 0.87470 0.86310 0.43400
C 	C 	0.78240 0.93940 0.83150 -0.21200
C 	C 	0.76670 0.00460 0.76830 0.13900
H 	H 	0.73890 0.00710 0.74220 -0.00400
C 	C 	0.79200 0.06610 0.74360 -0.20800
C 	C 	0.77410 0.13760 0.67660 0.48500
C 	C 	0.83270 0.06370 0.78260 0.10000
H 	H 	0.84920 0.10610 0.76580 0.01600
C 	C 	0.85010 0.00030 0.84610 -0.13800
C 	C 	0.82290 0.93800 0.87280 0.10500
H 	H 	0.83310 0.89520 0.91990 -0.02500
C 	C 	0.89410 0.99520 0.88930 0.19300
C 	C 	0.92090 0.04480 0.84500 -0.18600
H 	H 	0.91210 0.08160 0.78240 0.11400
C 	C 	0.96250 0.04320 0.89000 0.04600
H 	H 	0.98020 0.07850 0.85320 0.02700
C 	C 	0.97760 0.99720 0.97680 -0.04400
C 	C 	0.95080 0.94330 0.99800 0.07000
H 	H 	0.96040 0.89960 0.04380 0.02300
C 	C 	0.91070 0.94480 0.95890 -0.22900
H 	H 	0.89440 0.90460 0.98700 0.12600
N 	N 	0.61330 0.75390 0.85410 0.06700
O 	O 	0.58340 0.72970 0.78850 -0.12800
Eu	Eu	0.19174 0.29044 0.99829 1.83100
O 	O 	0.21608 0.38610 0.84870 -0.45700
O 	O 	0.26792 0.31000 0.90620 -0.56800
O 	O 	0.23664 0.63920 0.64500 -0.52700
O 	O 	0.29870 0.69340 0.66320 -0.47200
O 	O 	0.12399 0.22620 0.96670 -0.31600
O 	O 	0.13628 0.30520 0.81050 -0.26000
C 	C 	0.25450 0.37470 0.86310 0.43500
C 	C 	0.28240 0.43940 0.83150 -0.21300
C 	C 	0.26670 0.50460 0.76830 0.14000
H 	H 	0.23890 0.50710 0.74220 -0.00400
C 	C 	0.29200 0.56610 0.74360 -0.20900
C 	C 	0.27410 0.63760 0.67660 0.48500
C 	C 	0.33270 0.56370 0.78260 0.10300
H 	H 	0.34920 0.60610 0.76580 0.01500
C 	C 	0.35010 0.50030 0.84610 -0.14200
C 	C 	0.32290 0.43800 0.87280 0.10700
H 	H 	0.33310 0.39520 0.91990 -0.02500
C 	C 	0.39410 0.49520 0.88930 0.20000
C 	C 	0.42090 0.54480 0.84500 -0.19100
H 	H 	0.41210 0.58160 0.78240 0.11500
C 	C 	0.46250 0.54320 0.89000 0.04800
H 	H 	0.48020 0.57850 0.85320 0.02600
C 	C 	0.47760 0.49720 0.97680 -0.04600
C 	C 	0.45080 0.44330 0.99800 0.07500
H 	H 	0.46040 0.39960 0.04380 0.02100
C 	C 	0.41070 0.44480 0.95890 -0.23500
H 	H 	0.39440 0.40460 0.98700 0.12800
N 	N 	0.11330 0.25390 0.85410 0.06700
O 	O 	0.08340 0.22970 0.78850 -0.12800
Eu	Eu	0.30826 0.79044 0.50171 1.83000
O 	O 	0.28392 0.88610 0.65130 -0.45700
O 	O 	0.23208 0.81000 0.59380 -0.56800
O 	O 	0.26336 0.13920 0.85500 -0.52700
O 	O 	0.20130 0.19340 0.83680 -0.47200
O 	O 	0.37601 0.72620 0.53330 -0.31600
O 	O 	0.36372 0.80520 0.68950 -0.26000
C 	C 	0.24550 0.87470 0.63690 0.43400
C 	C 	0.21760 0.93940 0.66850 -0.21300
C 	C 	0.23330 0.00460 0.73170 0.13900
H 	H 	0.26110 0.00710 0.75780 -0.00400
C 	C 	0.20800 0.06610 0.75640 -0.20900
C 	C 	0.22590 0.13760 0.82340 0.48500
C 	C 	0.16730 0.06370 0.71740 0.10200
H 	H 	0.15080 0.10610 0.73420 0.01500
C 	C 	0.14990 0.00030 0.65390 -0.14100
C 	C 	0.17710 0.93800 0.62720 0.10600
H 	H 	0.16690 0.89520 0.58010 -0.02500
C 	C 	0.10590 0.99520 0.61070 0.19700
C 	C 	0.07910 0.04480 0.65500 -0.18900
H 	H 	0.08790 0.08160 0.71760 0.11500
C 	C 	0.03750 0.04320 0.61000 0.04700
H 	H 	0.01980 0.07850 0.64680 0.02700
C 	C 	0.02240 0.99720 0.52320 -0.04500
C 	C 	0.04920 0.94330 0.50200 0.07200
H 	H 	0.03960 0.89960 0.45620 0.02100
C 	C 	0.08930 0.94480 0.54110 -0.23200
H 	H 	0.10560 0.90460 0.51300 0.12700
N 	N 	0.38670 0.75390 0.64590 0.06700
O 	O 	0.41660 0.72970 0.71150 -0.12800
Eu	Eu	0.80826 0.29044 0.50171 1.83000
O 	O 	0.78392 0.38610 0.65130 -0.45700
O 	O 	0.73208 0.31000 0.59380 -0.56800
O 	O 	0.76336 0.63920 0.85500 -0.52700
O 	O 	0.70130 0.69340 0.83680 -0.47200
O 	O 	0.87601 0.22620 0.53330 -0.31600
O 	O 	0.86372 0.30520 0.68950 -0.25900
C 	C 	0.74550 0.37470 0.63690 0.43500
C 	C 	0.71760 0.43940 0.66850 -0.21300
C 	C 	0.73330 0.50460 0.73170 0.13900
H 	H 	0.76110 0.50710 0.75780 -0.00400
C 	C 	0.70800 0.56610 0.75640 -0.20900
C 	C 	0.72590 0.63760 0.82340 0.48500
C 	C 	0.66730 0.56370 0.71740 0.10200
H 	H 	0.65080 0.60610 0.73420 0.01500
C 	C 	0.64990 0.50030 0.65390 -0.14200
C 	C 	0.67710 0.43800 0.62720 0.10700
H 	H 	0.66690 0.39520 0.58010 -0.02500
C 	C 	0.60590 0.49520 0.61070 0.19900
C 	C 	0.57910 0.54480 0.65500 -0.19000
H 	H 	0.58790 0.58160 0.71760 0.11500
C 	C 	0.53750 0.54320 0.61000 0.04800
H 	H 	0.51980 0.57850 0.64680 0.02600
C 	C 	0.52240 0.49720 0.52320 -0.04500
C 	C 	0.54920 0.44330 0.50200 0.07300
H 	H 	0.53960 0.39960 0.45620 0.02100
C 	C 	0.58930 0.44480 0.54110 -0.23400
H 	H 	0.60560 0.40460 0.51300 0.12700
N 	N 	0.88670 0.25390 0.64590 0.06700
O 	O 	0.91660 0.22970 0.71150 -0.12800
