data_crystal

_cell_length_a 10.36400
_cell_length_b 26.74600
_cell_length_c 27.80400
_cell_angle_alpha 90.00000
_cell_angle_beta  93.91000
_cell_angle_gamma 90.00000

_symmetry_space_group_name_	'P 1'
_symmetry_space_group_name_H-M	'P 1'

loop_
_symmetry_equiv_pos_as_xyz
  x,y,z

loop_
_atom_site_label
_atom_site_type_symbol
_atom_site_fract_x
_atom_site_fract_y
_atom_site_fract_z
_atom_site_charge
C 	C 	0.96360 0.37100 0.07150 0.39400
C 	C 	0.97030 0.41690 0.03790 -0.07700
C 	C 	0.95560 0.40830 0.98760 0.00900
H 	H 	0.93730 0.37580 0.97600 0.04600
C 	C 	0.99160 0.46200 0.05600 -0.03200
H 	H 	0.99670 0.46690 0.08950 0.05900
C 	C 	0.00710 0.50400 0.02380 0.02400
C 	C 	0.03220 0.55270 0.04480 -0.08200
H 	H 	0.03990 0.55770 0.07830 0.06200
C 	C 	0.24510 0.33580 0.20640 0.38000
C 	C 	0.36730 0.36330 0.21520 -0.11000
C 	C 	0.48560 0.34030 0.20660 0.04400
H 	H 	0.48690 0.30670 0.19680 0.04600
C 	C 	0.59850 0.36650 0.21250 -0.10000
C 	C 	0.59940 0.41530 0.22800 0.00900
H 	H 	0.67820 0.43280 0.23190 0.04400
C 	C 	0.48460 0.43920 0.23800 -0.04200
C 	C 	0.36920 0.41250 0.23070 0.01400
H 	H 	0.29080 0.42830 0.23660 0.04200
C 	C 	0.72150 0.34120 0.19790 0.37000
C 	C 	0.48680 0.49180 0.25520 0.08900
C 	C 	0.59080 0.51290 0.28040 -0.14100
H 	H 	0.66460 0.49310 0.28740 0.08400
C 	C 	0.59230 0.56130 0.29600 0.06900
H 	H 	0.66590 0.57390 0.31360 0.02600
C 	C 	0.48450 0.59270 0.28580 -0.13700
C 	C 	0.37840 0.57300 0.25920 0.06500
H 	H 	0.30630 0.59340 0.25110 0.02800
C 	C 	0.37790 0.52310 0.24430 -0.13100
H 	H 	0.30450 0.51000 0.22690 0.08000
C 	C 	0.48740 0.64560 0.30080 0.39200
C 	C 	0.69180 0.22230 0.08190 0.39000
C 	C 	0.56480 0.21930 0.05370 -0.11200
C 	C 	0.45230 0.21860 0.07850 0.04800
H 	H 	0.45680 0.21630 0.11230 0.04500
C 	C 	0.33220 0.22150 0.05210 -0.11000
C 	C 	0.32490 0.22480 0.00230 0.01700
H 	H 	0.24360 0.22690 0.98530 0.04100
C 	C 	0.43650 0.22480 0.97700 -0.05100
C 	C 	0.55890 0.22440 0.00380 0.01600
H 	H 	0.63540 0.22750 0.98780 0.04100
C 	C 	0.21260 0.22500 0.07880 0.37300
C 	C 	0.43090 0.22940 0.92430 0.11100
C 	C 	0.33260 0.25500 0.89890 -0.16000
H 	H 	0.26580 0.26920 0.91560 0.08900
C 	C 	0.33060 0.26010 0.84970 0.08900
H 	H 	0.25990 0.27600 0.83310 0.01900
C 	C 	0.42930 0.24240 0.82450 -0.15500
C 	C 	0.52570 0.21740 0.85010 0.08800
H 	H 	0.59360 0.20430 0.83320 0.02000
C 	C 	0.52960 0.21000 0.89960 -0.16000
H 	H 	0.59790 0.19230 0.91570 0.09100
C 	C 	0.42910 0.24970 0.77060 0.40200
O 	O 	0.97050 0.26971 0.15053 -0.93400
O 	O 	0.94760 0.32970 0.05093 -0.49100
O 	O 	0.96900 0.38010 0.11510 -0.48200
O 	O 	0.25620 0.28814 0.20118 -0.46700
O 	O 	0.14190 0.36016 0.20333 -0.47400
O 	O 	0.71140 0.29980 0.17835 -0.46100
O 	O 	0.82770 0.36491 0.20625 -0.46400
O 	O 	0.58740 0.66140 0.32335 -0.46700
O 	O 	0.38520 0.67106 0.29198 -0.47600
O 	O 	0.69550 0.21220 0.12588 -0.45900
O 	O 	0.79060 0.23381 0.05919 -0.48500
O 	O 	0.22170 0.21736 0.12337 -0.45400
O 	O 	0.10680 0.23408 0.05397 -0.47100
O 	O 	0.33000 0.26740 0.74823 -0.47400
O 	O 	0.52300 0.23270 0.75110 -0.47100
Zn	Zn	0.12219 0.23806 0.18285 1.22000
Zn	Zn	0.82782 0.23343 0.17772 1.22100
Zn	Zn	0.95543 0.26408 0.08185 1.21900
Zn	Zn	0.97311 0.33657 0.17495 1.21800
C 	C 	0.53640 0.87100 0.42850 0.39300
C 	C 	0.52970 0.91690 0.46210 -0.07800
C 	C 	0.54440 0.90830 0.51240 0.00800
H 	H 	0.56270 0.87580 0.52400 0.04500
C 	C 	0.50840 0.96200 0.44400 -0.03200
H 	H 	0.50330 0.96690 0.41050 0.05900
C 	C 	0.49290 0.00400 0.47620 0.02300
C 	C 	0.46780 0.05270 0.45520 -0.08100
H 	H 	0.46010 0.05770 0.42170 0.06200
C 	C 	0.25490 0.83580 0.29360 0.38000
C 	C 	0.13270 0.86330 0.28480 -0.11000
C 	C 	0.01440 0.84030 0.29340 0.04300
H 	H 	0.01310 0.80670 0.30320 0.04600
C 	C 	0.90150 0.86650 0.28750 -0.09900
C 	C 	0.90060 0.91530 0.27200 0.00800
H 	H 	0.82180 0.93280 0.26810 0.04500
C 	C 	0.01540 0.93920 0.26200 -0.04200
C 	C 	0.13080 0.91250 0.26930 0.01300
H 	H 	0.20920 0.92830 0.26340 0.04200
C 	C 	0.77850 0.84120 0.30210 0.37000
C 	C 	0.01320 0.99180 0.24480 0.08900
C 	C 	0.90920 0.01290 0.21960 -0.14000
H 	H 	0.83540 0.99310 0.21260 0.08400
C 	C 	0.90770 0.06130 0.20400 0.06700
H 	H 	0.83410 0.07390 0.18640 0.02600
C 	C 	0.01550 0.09270 0.21420 -0.13500
C 	C 	0.12160 0.07300 0.24080 0.06400
H 	H 	0.19370 0.09340 0.24890 0.02800
C 	C 	0.12210 0.02310 0.25570 -0.13000
H 	H 	0.19550 0.01000 0.27310 0.08000
C 	C 	0.01260 0.14560 0.19920 0.39400
C 	C 	0.80820 0.72230 0.41810 0.39000
C 	C 	0.93520 0.71930 0.44630 -0.11100
C 	C 	0.04770 0.71860 0.42150 0.04600
H 	H 	0.04320 0.71630 0.38770 0.04500
C 	C 	0.16780 0.72150 0.44790 -0.10900
C 	C 	0.17510 0.72480 0.49770 0.01600
H 	H 	0.25640 0.72690 0.51470 0.04200
C 	C 	0.06350 0.72480 0.52300 -0.05100
C 	C 	0.94110 0.72440 0.49620 0.01600
H 	H 	0.86460 0.72750 0.51220 0.04100
C 	C 	0.28740 0.72500 0.42120 0.37200
C 	C 	0.06910 0.72940 0.57570 0.10900
C 	C 	0.16740 0.75500 0.60110 -0.16000
H 	H 	0.23420 0.76920 0.58440 0.08900
C 	C 	0.16940 0.76010 0.65030 0.08900
H 	H 	0.24010 0.77600 0.66690 0.01900
C 	C 	0.07070 0.74240 0.67550 -0.15600
C 	C 	0.97430 0.71740 0.64990 0.09000
H 	H 	0.90640 0.70430 0.66680 0.01900
C 	C 	0.97040 0.71000 0.60040 -0.15900
H 	H 	0.90210 0.69230 0.58430 0.09100
C 	C 	0.07090 0.74970 0.72940 0.40000
O 	O 	0.52950 0.76971 0.34947 -0.93300
O 	O 	0.55240 0.82970 0.44907 -0.49100
O 	O 	0.53100 0.88010 0.38490 -0.48200
O 	O 	0.24380 0.78814 0.29882 -0.46700
O 	O 	0.35810 0.86016 0.29667 -0.47500
O 	O 	0.78860 0.79980 0.32165 -0.46000
O 	O 	0.67230 0.86491 0.29375 -0.46400
O 	O 	0.91260 0.16140 0.17665 -0.46800
O 	O 	0.11480 0.17106 0.20802 -0.47600
O 	O 	0.80450 0.71220 0.37412 -0.45900
O 	O 	0.70940 0.73381 0.44081 -0.48500
O 	O 	0.27830 0.71736 0.37663 -0.45400
O 	O 	0.39320 0.73408 0.44603 -0.47100
O 	O 	0.17000 0.76740 0.75177 -0.47400
O 	O 	0.97700 0.73270 0.74890 -0.47000
Zn	Zn	0.37781 0.73806 0.31715 1.21900
Zn	Zn	0.67218 0.73343 0.32228 1.22100
Zn	Zn	0.54457 0.76408 0.41815 1.21900
Zn	Zn	0.52689 0.83657 0.32505 1.21800
C 	C 	0.03640 0.62900 0.92850 0.39300
C 	C 	0.02970 0.58310 0.96210 -0.07800
C 	C 	0.04440 0.59170 0.01240 0.00800
H 	H 	0.06270 0.62420 0.02400 0.04500
C 	C 	0.00840 0.53800 0.94400 -0.03200
H 	H 	0.00330 0.53310 0.91050 0.05900
C 	C 	0.99290 0.49600 0.97620 0.02400
C 	C 	0.96780 0.44730 0.95520 -0.08200
H 	H 	0.96010 0.44230 0.92170 0.06200
C 	C 	0.75490 0.66420 0.79360 0.38000
C 	C 	0.63270 0.63670 0.78480 -0.11000
C 	C 	0.51440 0.65970 0.79340 0.04400
H 	H 	0.51310 0.69330 0.80320 0.04600
C 	C 	0.40150 0.63350 0.78750 -0.10000
C 	C 	0.40060 0.58470 0.77200 0.00900
H 	H 	0.32180 0.56720 0.76810 0.04400
C 	C 	0.51540 0.56080 0.76200 -0.04200
C 	C 	0.63080 0.58750 0.76930 0.01400
H 	H 	0.70920 0.57170 0.76340 0.04200
C 	C 	0.27850 0.65880 0.80210 0.37000
C 	C 	0.51320 0.50820 0.74480 0.08900
C 	C 	0.40920 0.48710 0.71960 -0.14100
H 	H 	0.33540 0.50690 0.71260 0.08400
C 	C 	0.40770 0.43870 0.70400 0.06900
H 	H 	0.33410 0.42610 0.68640 0.02600
C 	C 	0.51550 0.40730 0.71420 -0.13700
C 	C 	0.62160 0.42700 0.74080 0.06500
H 	H 	0.69370 0.40660 0.74890 0.02800
C 	C 	0.62210 0.47690 0.75570 -0.13100
H 	H 	0.69550 0.49000 0.77310 0.08000
C 	C 	0.51260 0.35440 0.69920 0.39200
C 	C 	0.30820 0.77770 0.91810 0.39000
C 	C 	0.43520 0.78070 0.94630 -0.11200
C 	C 	0.54770 0.78140 0.92150 0.04800
H 	H 	0.54320 0.78370 0.88770 0.04500
C 	C 	0.66780 0.77850 0.94790 -0.11000
C 	C 	0.67510 0.77520 0.99770 0.01700
H 	H 	0.75640 0.77310 0.01470 0.04100
C 	C 	0.56350 0.77520 0.02300 -0.05100
C 	C 	0.44110 0.77560 0.99620 0.01600
H 	H 	0.36460 0.77250 0.01220 0.04100
C 	C 	0.78740 0.77500 0.92120 0.37300
C 	C 	0.56910 0.77060 0.07570 0.11100
C 	C 	0.66740 0.74500 0.10110 -0.16000
H 	H 	0.73420 0.73080 0.08440 0.08900
C 	C 	0.66940 0.73990 0.15030 0.08900
H 	H 	0.74010 0.72400 0.16690 0.01900
C 	C 	0.57070 0.75760 0.17550 -0.15500
C 	C 	0.47430 0.78260 0.14990 0.08800
H 	H 	0.40640 0.79570 0.16680 0.02000
C 	C 	0.47040 0.79000 0.10040 -0.16000
H 	H 	0.40210 0.80770 0.08430 0.09100
C 	C 	0.57090 0.75030 0.22940 0.40200
O 	O 	0.02950 0.73029 0.84947 -0.93400
O 	O 	0.05240 0.67030 0.94907 -0.49100
O 	O 	0.03100 0.61990 0.88490 -0.48200
O 	O 	0.74380 0.71186 0.79882 -0.46700
O 	O 	0.85810 0.63984 0.79667 -0.47400
O 	O 	0.28860 0.70020 0.82165 -0.46100
O 	O 	0.17230 0.63509 0.79375 -0.46400
O 	O 	0.41260 0.33860 0.67665 -0.46700
O 	O 	0.61480 0.32894 0.70802 -0.47600
O 	O 	0.30450 0.78780 0.87412 -0.45900
O 	O 	0.20940 0.76619 0.94081 -0.48500
O 	O 	0.77830 0.78264 0.87663 -0.45400
O 	O 	0.89320 0.76592 0.94603 -0.47100
O 	O 	0.67000 0.73260 0.25177 -0.47400
O 	O 	0.47700 0.76730 0.24890 -0.47100
Zn	Zn	0.87781 0.76194 0.81715 1.22000
Zn	Zn	0.17218 0.76657 0.82228 1.22100
Zn	Zn	0.04457 0.73592 0.91815 1.21900
Zn	Zn	0.02689 0.66343 0.82505 1.21800
C 	C 	0.46360 0.12900 0.57150 0.39300
C 	C 	0.47030 0.08310 0.53790 -0.07800
C 	C 	0.45560 0.09170 0.48760 0.00800
H 	H 	0.43730 0.12420 0.47600 0.04500
C 	C 	0.49160 0.03800 0.55600 -0.03200
H 	H 	0.49670 0.03310 0.58950 0.05900
C 	C 	0.50710 0.99600 0.52380 0.02300
C 	C 	0.53220 0.94730 0.54480 -0.08100
H 	H 	0.53990 0.94230 0.57830 0.06200
C 	C 	0.74510 0.16420 0.70640 0.38000
C 	C 	0.86730 0.13670 0.71520 -0.11000
C 	C 	0.98560 0.15970 0.70660 0.04300
H 	H 	0.98690 0.19330 0.69680 0.04600
C 	C 	0.09850 0.13350 0.71250 -0.09900
C 	C 	0.09940 0.08470 0.72800 0.00800
H 	H 	0.17820 0.06720 0.73190 0.04500
C 	C 	0.98460 0.06080 0.73800 -0.04200
C 	C 	0.86920 0.08750 0.73070 0.01300
H 	H 	0.79080 0.07170 0.73660 0.04200
C 	C 	0.22150 0.15880 0.69790 0.37000
C 	C 	0.98680 0.00820 0.75520 0.08900
C 	C 	0.09080 0.98710 0.78040 -0.14000
H 	H 	0.16460 0.00690 0.78740 0.08400
C 	C 	0.09230 0.93870 0.79600 0.06700
H 	H 	0.16590 0.92610 0.81360 0.02600
C 	C 	0.98450 0.90730 0.78580 -0.13500
C 	C 	0.87840 0.92700 0.75920 0.06400
H 	H 	0.80630 0.90660 0.75110 0.02800
C 	C 	0.87790 0.97690 0.74430 -0.13000
H 	H 	0.80450 0.99000 0.72690 0.08000
C 	C 	0.98740 0.85440 0.80080 0.39400
C 	C 	0.19180 0.27770 0.58190 0.39000
C 	C 	0.06480 0.28070 0.55370 -0.11100
C 	C 	0.95230 0.28140 0.57850 0.04600
H 	H 	0.95680 0.28370 0.61230 0.04500
C 	C 	0.83220 0.27850 0.55210 -0.10900
C 	C 	0.82490 0.27520 0.50230 0.01600
H 	H 	0.74360 0.27310 0.48530 0.04200
C 	C 	0.93650 0.27520 0.47700 -0.05100
C 	C 	0.05890 0.27560 0.50380 0.01600
H 	H 	0.13540 0.27250 0.48780 0.04100
C 	C 	0.71260 0.27500 0.57880 0.37200
C 	C 	0.93090 0.27060 0.42430 0.10900
C 	C 	0.83260 0.24500 0.39890 -0.16000
H 	H 	0.76580 0.23080 0.41560 0.08900
C 	C 	0.83060 0.23990 0.34970 0.08900
H 	H 	0.75990 0.22400 0.33310 0.01900
C 	C 	0.92930 0.25760 0.32450 -0.15600
C 	C 	0.02570 0.28260 0.35010 0.09000
H 	H 	0.09360 0.29570 0.33320 0.01900
C 	C 	0.02960 0.29000 0.39960 -0.15900
H 	H 	0.09790 0.30770 0.41570 0.09100
C 	C 	0.92910 0.25030 0.27060 0.40000
O 	O 	0.47050 0.23029 0.65053 -0.93300
O 	O 	0.44760 0.17030 0.55093 -0.49100
O 	O 	0.46900 0.11990 0.61510 -0.48200
O 	O 	0.75620 0.21186 0.70118 -0.46700
O 	O 	0.64190 0.13984 0.70333 -0.47500
O 	O 	0.21140 0.20020 0.67835 -0.46000
O 	O 	0.32770 0.13509 0.70625 -0.46400
O 	O 	0.08740 0.83860 0.82335 -0.46800
O 	O 	0.88520 0.82894 0.79198 -0.47600
O 	O 	0.19550 0.28780 0.62588 -0.45900
O 	O 	0.29060 0.26619 0.55919 -0.48500
O 	O 	0.72170 0.28264 0.62337 -0.45400
O 	O 	0.60680 0.26592 0.55397 -0.47100
O 	O 	0.83000 0.23260 0.24823 -0.47400
O 	O 	0.02300 0.26730 0.25110 -0.47000
Zn	Zn	0.62219 0.26194 0.68285 1.21900
Zn	Zn	0.32782 0.26657 0.67772 1.22100
Zn	Zn	0.45543 0.23592 0.58185 1.21900
Zn	Zn	0.47311 0.16343 0.67495 1.21800
