data_crystal

_cell_length_a 24.43400
_cell_length_b 18.36400
_cell_length_c 8.25900
_cell_angle_alpha 90.00000
_cell_angle_beta  101.72000
_cell_angle_gamma 90.00000

_symmetry_space_group_name_	'P 1'
_symmetry_space_group_name_H-M	'P 1'

loop_
_symmetry_equiv_pos_as_xyz
  x,y,z

loop_
_atom_site_label
_atom_site_type_symbol
_atom_site_fract_x
_atom_site_fract_y
_atom_site_fract_z
_atom_site_charge
C 	C 	0.35060 0.54520 0.93920 0.18500
C 	C 	0.38960 0.44180 0.87530 0.19600
C 	C 	0.42630 0.55060 0.82130 0.19100
C 	C 	0.29610 0.64910 0.02830 0.39100
C 	C 	0.37040 0.31370 0.93360 0.15400
C 	C 	0.32900 0.32410 0.02160 -0.14000
H 	H 	0.31930 0.37100 0.04760 0.10300
C 	C 	0.38480 0.24240 0.90370 -0.18600
H 	H 	0.41390 0.23420 0.84870 0.08300
C 	C 	0.50620 0.57950 0.68590 0.22300
C 	C 	0.52670 0.51100 0.67020 -0.23100
H 	H 	0.50980 0.47120 0.70950 0.12400
C 	C 	0.57270 0.49960 0.59600 0.11900
H 	H 	0.58580 0.45260 0.58660 0.00300
C 	C 	0.59880 0.55720 0.53710 -0.18200
C 	C 	0.57890 0.62650 0.55210 0.13100
H 	H 	0.59690 0.66640 0.51740 -0.00100
C 	C 	0.53200 0.63650 0.61890 -0.23500
H 	H 	0.51700 0.68310 0.61920 0.10600
C 	C 	0.64830 0.54450 0.46400 0.32600
C 	C 	0.28400 0.13160 0.08840 0.33400
C 	C 	0.31560 0.19280 0.04030 -0.11900
C 	C 	0.30070 0.26200 0.07350 0.05900
H 	H 	0.27200 0.26930 0.13020 0.03000
C 	C 	0.35740 0.18380 0.95270 0.04800
H 	H 	0.36720 0.13700 0.92620 -0.00700
C 	C 	0.25040 0.86520 0.14630 0.40500
C 	C 	0.26350 0.79030 0.09850 -0.33500
C 	C 	0.30830 0.77740 0.02020 0.43300
H 	H 	0.32850 0.81670 0.99260 -0.14900
C 	C 	0.32290 0.70900 0.98350 -0.52700
H 	H 	0.35170 0.70270 0.92670 0.21600
C 	C 	0.23720 0.73020 0.14790 0.29600
H 	H 	0.20890 0.73640 0.20670 -0.05600
C 	C 	0.25240 0.66210 0.11080 -0.38500
H 	H 	0.23300 0.62250 0.14140 0.16200
N 	N 	0.42890 0.47920 0.80740 -0.17600
N 	N 	0.38840 0.58760 0.89060 -0.18400
N 	N 	0.35000 0.47240 0.93680 -0.19000
N 	N 	0.39650 0.36820 0.87060 -0.25100
H 	H 	0.42180 0.35430 0.81870 0.13600
N 	N 	0.30960 0.57640 0.00480 -0.27300
H 	H 	0.28780 0.54560 0.03830 0.14800
N 	N 	0.46320 0.59650 0.76170 -0.25600
H 	H 	0.45820 0.64230 0.77480 0.13400
O 	O 	0.67930 0.48760 0.51330 -0.44100
O 	O 	0.29380 0.06710 0.04080 -0.46300
O 	O 	0.25140 0.14080 0.18990 -0.37500
O 	O 	0.21700 0.87790 0.23990 -0.38100
O 	O 	0.27740 0.91900 0.09360 -0.47100
O 	O 	0.66180 0.58780 0.35860 -0.35400
La	La	0.74737 0.48604 0.80396 1.59400
C 	C 	0.85060 0.04520 0.93920 0.18700
C 	C 	0.88960 0.94180 0.87530 0.19700
C 	C 	0.92630 0.05060 0.82130 0.19300
C 	C 	0.79610 0.14910 0.02830 0.38500
C 	C 	0.87040 0.81370 0.93360 0.15200
C 	C 	0.82900 0.82410 0.02160 -0.13700
H 	H 	0.81930 0.87100 0.04760 0.10300
C 	C 	0.88480 0.74240 0.90370 -0.18300
H 	H 	0.91390 0.73420 0.84870 0.08400
C 	C 	0.00620 0.07950 0.68590 0.20900
C 	C 	0.02670 0.01100 0.67020 -0.22300
H 	H 	0.00980 0.97120 0.70950 0.11800
C 	C 	0.07270 0.99960 0.59600 0.11400
H 	H 	0.08580 0.95260 0.58660 0.00400
C 	C 	0.09880 0.05720 0.53710 -0.17800
C 	C 	0.07890 0.12650 0.55210 0.12400
H 	H 	0.09690 0.16640 0.51740 0.00100
C 	C 	0.03200 0.13650 0.61890 -0.22800
H 	H 	0.01700 0.18310 0.61920 0.10000
C 	C 	0.14830 0.04450 0.46400 0.32400
C 	C 	0.78400 0.63160 0.08840 0.33300
C 	C 	0.81560 0.69280 0.04030 -0.11600
C 	C 	0.80070 0.76200 0.07350 0.05700
H 	H 	0.77200 0.76930 0.13020 0.03200
C 	C 	0.85740 0.68380 0.95270 0.04500
H 	H 	0.86720 0.63700 0.92620 -0.00500
C 	C 	0.75040 0.36520 0.14630 0.40300
C 	C 	0.76350 0.29030 0.09850 -0.33000
C 	C 	0.80830 0.27740 0.02020 0.42400
H 	H 	0.82850 0.31670 0.99260 -0.14400
C 	C 	0.82290 0.20900 0.98350 -0.51700
H 	H 	0.85170 0.20270 0.92670 0.21300
C 	C 	0.73720 0.23020 0.14790 0.29200
H 	H 	0.70890 0.23640 0.20670 -0.05400
C 	C 	0.75240 0.16210 0.11080 -0.38000
H 	H 	0.73300 0.12250 0.14140 0.16100
N 	N 	0.92890 0.97920 0.80740 -0.17400
N 	N 	0.88840 0.08760 0.89060 -0.18300
N 	N 	0.85000 0.97240 0.93680 -0.19000
N 	N 	0.89650 0.86820 0.87060 -0.25000
H 	H 	0.92180 0.85430 0.81870 0.13800
N 	N 	0.80960 0.07640 0.00480 -0.27300
H 	H 	0.78780 0.04560 0.03830 0.14800
N 	N 	0.96320 0.09650 0.76170 -0.25000
H 	H 	0.95820 0.14230 0.77480 0.13500
O 	O 	0.17930 0.98760 0.51330 -0.44000
O 	O 	0.79380 0.56710 0.04080 -0.46100
O 	O 	0.75140 0.64080 0.18990 -0.37500
O 	O 	0.71700 0.37790 0.23990 -0.38100
O 	O 	0.77740 0.41900 0.09360 -0.47200
O 	O 	0.16180 0.08780 0.35860 -0.35400
La	La	0.24737 0.98604 0.80396 1.59500
C 	C 	0.35060 0.45480 0.43920 0.20800
C 	C 	0.38960 0.55820 0.37530 0.21000
C 	C 	0.42630 0.44940 0.32130 0.20100
C 	C 	0.29610 0.35090 0.52830 0.24200
C 	C 	0.37040 0.68630 0.43360 0.24900
C 	C 	0.32900 0.67590 0.52160 -0.25300
H 	H 	0.31930 0.62900 0.54760 0.13100
C 	C 	0.38480 0.75760 0.40370 -0.27600
H 	H 	0.41390 0.76580 0.34870 0.12200
C 	C 	0.50620 0.42050 0.18590 0.21300
C 	C 	0.52670 0.48900 0.17020 -0.19900
H 	H 	0.50980 0.52880 0.20950 0.12200
C 	C 	0.57270 0.50040 0.09600 0.08200
H 	H 	0.58580 0.54740 0.08660 0.02500
C 	C 	0.59880 0.44280 0.03710 -0.11400
C 	C 	0.57890 0.37350 0.05210 0.09400
H 	H 	0.59690 0.33360 0.01740 0.02200
C 	C 	0.53200 0.36350 0.11890 -0.20400
H 	H 	0.51700 0.31690 0.11920 0.10400
C 	C 	0.64830 0.45550 0.96400 0.24800
C 	C 	0.28400 0.86840 0.58840 0.36800
C 	C 	0.31560 0.80720 0.54030 -0.22300
C 	C 	0.30070 0.73800 0.57350 0.14100
H 	H 	0.27200 0.73070 0.63020 -0.00500
C 	C 	0.35740 0.81620 0.45270 0.17000
H 	H 	0.36720 0.86300 0.42620 -0.03900
C 	C 	0.25040 0.13480 0.64630 0.35400
C 	C 	0.26350 0.20970 0.59850 -0.20900
C 	C 	0.30830 0.22260 0.52020 0.17400
H 	H 	0.32850 0.18330 0.49260 -0.03700
C 	C 	0.32290 0.29100 0.48350 -0.27400
H 	H 	0.35170 0.29730 0.42670 0.13700
C 	C 	0.23720 0.26980 0.64790 0.16500
H 	H 	0.20890 0.26360 0.70670 -0.01800
C 	C 	0.25240 0.33790 0.61080 -0.26000
H 	H 	0.23300 0.37750 0.64140 0.11400
N 	N 	0.42890 0.52080 0.30740 -0.17200
N 	N 	0.38840 0.41240 0.39060 -0.17900
N 	N 	0.35000 0.52760 0.43680 -0.18700
N 	N 	0.39650 0.63180 0.37060 -0.26900
H 	H 	0.42180 0.64570 0.31870 0.14900
N 	N 	0.30960 0.42360 0.50480 -0.26100
H 	H 	0.28780 0.45440 0.53830 0.13800
N 	N 	0.46320 0.40350 0.26170 -0.25200
H 	H 	0.45820 0.35770 0.27480 0.14100
O 	O 	0.67930 0.51240 0.01330 -0.40200
O 	O 	0.29380 0.93290 0.54080 -0.48500
O 	O 	0.25140 0.85920 0.68990 -0.39100
O 	O 	0.21700 0.12210 0.73990 -0.38000
O 	O 	0.27740 0.08100 0.59360 -0.47500
O 	O 	0.66180 0.41220 0.85860 -0.34700
La	La	0.74737 0.51396 0.30396 1.61800
C 	C 	0.85060 0.95480 0.43920 0.20900
C 	C 	0.88960 0.05820 0.37530 0.21100
C 	C 	0.92630 0.94940 0.32130 0.20300
C 	C 	0.79610 0.85090 0.52830 0.24300
C 	C 	0.87040 0.18630 0.43360 0.25100
C 	C 	0.82900 0.17590 0.52160 -0.25300
H 	H 	0.81930 0.12900 0.54760 0.13200
C 	C 	0.88480 0.25760 0.40370 -0.27600
H 	H 	0.91390 0.26580 0.34870 0.12300
C 	C 	0.00620 0.92050 0.18590 0.19400
C 	C 	0.02670 0.98900 0.17020 -0.18000
H 	H 	0.00980 0.02880 0.20950 0.11200
C 	C 	0.07270 0.00040 0.09600 0.06500
H 	H 	0.08580 0.04740 0.08660 0.02900
C 	C 	0.09880 0.94280 0.03710 -0.10200
C 	C 	0.07890 0.87350 0.05210 0.08100
H 	H 	0.09690 0.83360 0.01740 0.02500
C 	C 	0.03200 0.86350 0.11890 -0.19100
H 	H 	0.01700 0.81690 0.11920 0.09600
C 	C 	0.14830 0.95550 0.96400 0.24400
C 	C 	0.78400 0.36840 0.58840 0.36800
C 	C 	0.81560 0.30720 0.54030 -0.22300
C 	C 	0.80070 0.23800 0.57350 0.14200
H 	H 	0.77200 0.23070 0.63020 -0.00400
C 	C 	0.85740 0.31620 0.45270 0.17100
H 	H 	0.86720 0.36300 0.42620 -0.03900
C 	C 	0.75040 0.63480 0.64630 0.35400
C 	C 	0.76350 0.70970 0.59850 -0.20900
C 	C 	0.80830 0.72260 0.52020 0.17400
H 	H 	0.82850 0.68330 0.49260 -0.03700
C 	C 	0.82290 0.79100 0.48350 -0.27400
H 	H 	0.85170 0.79730 0.42670 0.13700
C 	C 	0.73720 0.76980 0.64790 0.16500
H 	H 	0.70890 0.76360 0.70670 -0.01800
C 	C 	0.75240 0.83790 0.61080 -0.26000
H 	H 	0.73300 0.87750 0.64140 0.11500
N 	N 	0.92890 0.02080 0.30740 -0.17100
N 	N 	0.88840 0.91240 0.39060 -0.17900
N 	N 	0.85000 0.02760 0.43680 -0.18800
N 	N 	0.89650 0.13180 0.37060 -0.27000
H 	H 	0.92180 0.14570 0.31870 0.15100
N 	N 	0.80960 0.92360 0.50480 -0.26100
H 	H 	0.78780 0.95440 0.53830 0.13800
N 	N 	0.96320 0.90350 0.26170 -0.24400
H 	H 	0.95820 0.85770 0.27480 0.14200
O 	O 	0.17930 0.01240 0.01330 -0.40200
O 	O 	0.79380 0.43290 0.54080 -0.48500
O 	O 	0.75140 0.35920 0.68990 -0.39000
O 	O 	0.71700 0.62210 0.73990 -0.38000
O 	O 	0.77740 0.58100 0.59360 -0.47500
O 	O 	0.16180 0.91220 0.85860 -0.34700
La	La	0.24737 0.01396 0.30396 1.61700
