data_crystal

_cell_length_a 4.79800
_cell_length_b 21.34100
_cell_length_c 5.40600
_cell_angle_alpha 90.00000
_cell_angle_beta  90.01000
_cell_angle_gamma 90.00000

_symmetry_space_group_name_	'P 1'
_symmetry_space_group_name_H-M	'P 1'

loop_
_symmetry_equiv_pos_as_xyz
  x,y,z

loop_
_atom_site_label
_atom_site_type_symbol
_atom_site_fract_x
_atom_site_fract_y
_atom_site_fract_z
_atom_site_charge
Cl	Cl	0.80990 0.10703 0.54090 -0.07600
O 	O 	0.10430 0.10630 0.52930 -0.10500
O 	O 	0.74610 0.15519 0.37070 -0.19700
O 	O 	0.74150 0.04717 0.45990 -0.01100
O 	O 	0.75550 0.12097 0.78950 -0.15700
Cl	Cl	0.70010 0.10694 0.54110 -0.07700
O 	O 	0.40110 0.10660 0.52750 -0.10200
Cl	Cl	0.19010 0.60703 0.45910 -0.07600
O 	O 	0.89570 0.60630 0.47070 -0.10500
O 	O 	0.25390 0.65519 0.62930 -0.19700
O 	O 	0.25850 0.54717 0.54010 -0.01100
O 	O 	0.24450 0.62097 0.21050 -0.15700
Cl	Cl	0.29990 0.60694 0.45890 -0.07700
O 	O 	0.59890 0.60660 0.47250 -0.10200
Cl	Cl	0.19010 0.89297 0.45910 -0.07600
O 	O 	0.89570 0.89370 0.47070 -0.10500
O 	O 	0.25390 0.84481 0.62930 -0.19700
O 	O 	0.25850 0.95283 0.54010 -0.01100
O 	O 	0.24450 0.87903 0.21050 -0.15700
Cl	Cl	0.29990 0.89306 0.45890 -0.07700
O 	O 	0.59890 0.89340 0.47250 -0.10200
Cl	Cl	0.80990 0.39297 0.54090 -0.07600
O 	O 	0.10430 0.39370 0.52930 -0.10500
O 	O 	0.74610 0.34481 0.37070 -0.19700
O 	O 	0.74150 0.45283 0.45990 -0.01100
O 	O 	0.75550 0.37903 0.78950 -0.15700
Cl	Cl	0.70010 0.39306 0.54110 -0.07700
O 	O 	0.40110 0.39340 0.52750 -0.10200
Ag	Ag	0.25109 0.35970 0.03674 0.53400
Ag	Ag	0.25109 0.14030 0.03674 0.53400
C 	C 	0.24520 0.25000 0.06080 -0.32300
C 	C 	0.24280 0.25000 0.83660 -0.24200
Ag	Ag	0.24981 0.25000 0.44673 0.47500
Ag	Ag	0.74976 0.25000 0.88780 0.47200
Ag	Ag	0.74891 0.85970 0.96326 0.53400
Ag	Ag	0.74891 0.64030 0.96326 0.53400
C 	C 	0.75480 0.75000 0.93920 -0.32300
C 	C 	0.75720 0.75000 0.16340 -0.24200
Ag	Ag	0.75019 0.75000 0.55327 0.47500
Ag	Ag	0.25024 0.75000 0.11220 0.47200
