data_crystal

_cell_length_a 14.70970
_cell_length_b 21.83200
_cell_length_c 26.71900
_cell_angle_alpha 90.00000
_cell_angle_beta  90.00000
_cell_angle_gamma 90.00000

_symmetry_space_group_name_	'P 1'
_symmetry_space_group_name_H-M	'P 1'

loop_
_symmetry_equiv_pos_as_xyz
  x,y,z

loop_
_atom_site_label
_atom_site_type_symbol
_atom_site_fract_x
_atom_site_fract_y
_atom_site_fract_z
_atom_site_charge
Cu	Cu	0.75366 0.99866 0.46239 0.84800
Cu	Cu	0.24634 0.49866 0.03760 0.84800
Cu	Cu	0.25366 0.49866 0.53761 0.84900
Cu	Cu	0.74634 0.99866 0.96239 0.84900
H 	H 	0.76500 0.87500 0.51000 -0.01700
H 	H 	0.66800 0.78700 0.52000 0.06000
H 	H 	0.46700 0.87600 0.43900 0.05900
H 	H 	0.56900 0.96000 0.43000 -0.01900
H 	H 	0.49900 0.74200 0.45800 0.06000
H 	H 	0.42900 0.78700 0.48800 0.05700
H 	H 	0.49600 0.76000 0.56600 0.05500
H 	H 	0.57200 0.71900 0.53700 0.05400
H 	H 	0.54200 0.61900 0.56700 0.05700
H 	H 	0.44300 0.53100 0.56700 -0.01900
H 	H 	0.23400 0.63100 0.51100 -0.01700
H 	H 	0.32600 0.72300 0.51300 0.05800
H 	H 	0.61400 0.99800 0.54400 -0.01500
H 	H 	0.60500 0.01800 0.63100 0.06100
H 	H 	0.88700 0.03400 0.63500 0.05800
H 	H 	0.88800 0.01700 0.54500 -0.01300
H 	H 	0.79700 0.06600 0.70700 0.05900
H 	H 	0.68600 0.06200 0.70600 0.06100
H 	H 	0.80500 0.95800 0.71600 0.06100
H 	H 	0.69400 0.95400 0.71500 0.06100
H 	H 	0.77100 0.08000 0.78600 0.05700
H 	H 	0.76900 0.08400 0.87600 -0.01100
H 	H 	0.72400 0.90100 0.88400 -0.01100
H 	H 	0.72100 0.89300 0.79500 0.05700
H 	H 	0.23500 0.37500 0.99000 -0.01600
H 	H 	0.33200 0.28700 0.98000 0.06000
H 	H 	0.53300 0.37600 0.06100 0.05900
H 	H 	0.43100 0.46000 0.07000 -0.01900
H 	H 	0.50100 0.24200 0.04200 0.06000
H 	H 	0.57100 0.28700 0.01200 0.05700
H 	H 	0.50400 0.26000 0.93400 0.05500
H 	H 	0.42800 0.21900 0.96300 0.05400
H 	H 	0.45800 0.11900 0.93300 0.05700
H 	H 	0.55700 0.03100 0.93300 -0.01800
H 	H 	0.76600 0.13100 0.98900 -0.01700
H 	H 	0.67400 0.22300 0.98700 0.05800
H 	H 	0.38600 0.49800 0.95600 -0.01400
H 	H 	0.39500 0.51800 0.86900 0.06000
H 	H 	0.11300 0.53400 0.86500 0.05800
H 	H 	0.11200 0.51700 0.95500 -0.01300
H 	H 	0.20300 0.56600 0.79300 0.05900
H 	H 	0.31400 0.56200 0.79400 0.06100
H 	H 	0.19500 0.45800 0.78400 0.06200
H 	H 	0.30600 0.45400 0.78500 0.06100
H 	H 	0.22900 0.58000 0.71400 0.05800
H 	H 	0.23100 0.58400 0.62400 -0.01100
H 	H 	0.27600 0.40100 0.61600 -0.01100
H 	H 	0.27900 0.39300 0.70500 0.05800
H 	H 	0.26500 0.37500 0.49000 -0.01700
H 	H 	0.16800 0.28700 0.48000 0.06000
H 	H 	0.96700 0.37600 0.56100 0.05900
H 	H 	0.06900 0.46000 0.57000 -0.01900
H 	H 	0.99900 0.24200 0.54200 0.05900
H 	H 	0.92900 0.28700 0.51200 0.05600
H 	H 	0.99600 0.26000 0.43400 0.05600
H 	H 	0.07200 0.21900 0.46300 0.05400
H 	H 	0.04200 0.11900 0.43300 0.05600
H 	H 	0.94300 0.03100 0.43300 -0.01800
H 	H 	0.73400 0.13100 0.48900 -0.01700
H 	H 	0.82600 0.22300 0.48700 0.05900
H 	H 	0.11400 0.49800 0.45600 -0.01400
H 	H 	0.10500 0.51800 0.36900 0.06000
H 	H 	0.38700 0.53400 0.36500 0.05800
H 	H 	0.38800 0.51700 0.45500 -0.01300
H 	H 	0.29700 0.56600 0.29300 0.05900
H 	H 	0.18600 0.56200 0.29400 0.06100
H 	H 	0.30500 0.45800 0.28400 0.06100
H 	H 	0.19400 0.45400 0.28500 0.06100
H 	H 	0.27100 0.58000 0.21400 0.05800
H 	H 	0.26900 0.58400 0.12400 -0.01100
H 	H 	0.22400 0.40100 0.11600 -0.01100
H 	H 	0.22100 0.39300 0.20500 0.05800
H 	H 	0.73500 0.87500 0.01000 -0.01500
H 	H 	0.83200 0.78700 0.02000 0.05900
H 	H 	0.03300 0.87600 0.93900 0.06100
H 	H 	0.93100 0.96000 0.93000 -0.02000
H 	H 	0.00100 0.74200 0.95800 0.05900
H 	H 	0.07100 0.78700 0.98800 0.05600
H 	H 	0.00400 0.76000 0.06600 0.05500
H 	H 	0.92800 0.71900 0.03700 0.05400
H 	H 	0.95800 0.61900 0.06700 0.05700
H 	H 	0.05700 0.53100 0.06700 -0.01900
H 	H 	0.26600 0.63100 0.01100 -0.01700
H 	H 	0.17400 0.72300 0.01300 0.05900
H 	H 	0.88600 0.99800 0.04400 -0.01400
H 	H 	0.89500 0.01800 0.13100 0.06100
H 	H 	0.61300 0.03400 0.13500 0.05800
H 	H 	0.61200 0.01700 0.04500 -0.01300
H 	H 	0.70300 0.06600 0.20700 0.05900
H 	H 	0.81400 0.06200 0.20600 0.06100
H 	H 	0.69500 0.95800 0.21600 0.06200
H 	H 	0.80600 0.95400 0.21500 0.06100
H 	H 	0.72900 0.08000 0.28600 0.05800
H 	H 	0.73100 0.08400 0.37600 -0.01100
H 	H 	0.77600 0.90100 0.38400 -0.01100
H 	H 	0.77900 0.89300 0.29500 0.05800
C 	C 	0.70180 0.87490 0.49409 0.06100
C 	C 	0.64570 0.82360 0.50080 -0.13200
C 	C 	0.55850 0.82360 0.48125 0.09100
C 	C 	0.53050 0.87470 0.45435 -0.13700
C 	C 	0.59140 0.92310 0.44814 0.06800
C 	C 	0.49360 0.77060 0.48802 -0.13200
C 	C 	0.50640 0.73290 0.53480 -0.12300
C 	C 	0.44370 0.67840 0.53798 0.08700
C 	C 	0.47650 0.62280 0.55534 -0.13200
C 	C 	0.41790 0.57230 0.55627 0.06100
C 	C 	0.29920 0.62850 0.52407 0.06000
C 	C 	0.35320 0.68260 0.52380 -0.12800
C 	C 	0.67130 0.00610 0.56281 0.06200
C 	C 	0.66650 0.01780 0.61386 -0.13300
C 	C 	0.74540 0.02790 0.64120 0.09000
C 	C 	0.82750 0.02670 0.61616 -0.12600
C 	C 	0.82790 0.01720 0.56346 0.05500
C 	C 	0.74370 0.03980 0.69704 -0.13300
C 	C 	0.74710 0.98000 0.72558 -0.13300
C 	C 	0.74560 0.98620 0.78213 0.08600
C 	C 	0.75990 0.04100 0.80688 -0.12500
C 	C 	0.75940 0.04280 0.85857 0.06300
C 	C 	0.73420 0.93980 0.86308 0.06200
C 	C 	0.73220 0.93460 0.81185 -0.13000
C 	C 	0.29820 0.37490 0.00591 0.05900
C 	C 	0.35430 0.32360 0.99920 -0.13000
C 	C 	0.44150 0.32360 0.01875 0.09000
C 	C 	0.46950 0.37470 0.04565 -0.13600
C 	C 	0.40860 0.42310 0.05186 0.06800
C 	C 	0.50640 0.27060 0.01198 -0.13200
C 	C 	0.49360 0.23290 0.96520 -0.12300
C 	C 	0.55630 0.17840 0.96202 0.08700
C 	C 	0.52350 0.12280 0.94466 -0.13200
C 	C 	0.58210 0.07230 0.94373 0.06100
C 	C 	0.70080 0.12850 0.97593 0.06100
C 	C 	0.64680 0.18260 0.97620 -0.12800
C 	C 	0.32870 0.50610 0.93719 0.06100
C 	C 	0.33350 0.51780 0.88614 -0.13300
C 	C 	0.25460 0.52790 0.85880 0.09000
C 	C 	0.17250 0.52670 0.88384 -0.12600
C 	C 	0.17210 0.51720 0.93654 0.05500
C 	C 	0.25630 0.53980 0.80296 -0.13400
C 	C 	0.25290 0.48000 0.77442 -0.13300
C 	C 	0.25440 0.48620 0.71787 0.08700
C 	C 	0.24010 0.54100 0.69312 -0.12600
C 	C 	0.24060 0.54280 0.64143 0.06200
C 	C 	0.26580 0.43980 0.63692 0.06200
C 	C 	0.26780 0.43460 0.68815 -0.13000
C 	C 	0.20180 0.37490 0.50591 0.06100
C 	C 	0.14570 0.32360 0.49920 -0.13100
C 	C 	0.05850 0.32360 0.51875 0.09000
C 	C 	0.03050 0.37470 0.54565 -0.13700
C 	C 	0.09140 0.42310 0.55186 0.06800
C 	C 	0.99360 0.27060 0.51198 -0.12900
C 	C 	0.00640 0.23290 0.46520 -0.12700
C 	C 	0.94370 0.17840 0.46202 0.08800
C 	C 	0.97650 0.12280 0.44466 -0.13100
C 	C 	0.91790 0.07230 0.44373 0.06000
C 	C 	0.79920 0.12850 0.47593 0.06100
C 	C 	0.85320 0.18260 0.47620 -0.12800
C 	C 	0.17130 0.50610 0.43719 0.06100
C 	C 	0.16650 0.51780 0.38614 -0.13300
C 	C 	0.24540 0.52790 0.35880 0.09000
C 	C 	0.32750 0.52670 0.38384 -0.12600
C 	C 	0.32790 0.51720 0.43654 0.05500
C 	C 	0.24370 0.53980 0.30296 -0.13400
C 	C 	0.24710 0.48000 0.27442 -0.13300
C 	C 	0.24560 0.48620 0.21787 0.08700
C 	C 	0.25990 0.54100 0.19312 -0.12600
C 	C 	0.25940 0.54280 0.14143 0.06200
C 	C 	0.23420 0.43980 0.13692 0.06200
C 	C 	0.23220 0.43460 0.18815 -0.13000
C 	C 	0.79820 0.87490 0.99409 0.05700
C 	C 	0.85430 0.82360 0.00080 -0.12700
C 	C 	0.94150 0.82360 0.98125 0.08700
C 	C 	0.96950 0.87470 0.95435 -0.13800
C 	C 	0.90860 0.92310 0.94814 0.06800
C 	C 	0.00640 0.77060 0.98802 -0.12800
C 	C 	0.99360 0.73290 0.03480 -0.12500
C 	C 	0.05630 0.67840 0.03798 0.08800
C 	C 	0.02350 0.62280 0.05534 -0.13400
C 	C 	0.08210 0.57230 0.05627 0.06100
C 	C 	0.20080 0.62850 0.02407 0.06100
C 	C 	0.14680 0.68260 0.02380 -0.12800
C 	C 	0.82870 0.00610 0.06281 0.06200
C 	C 	0.83350 0.01780 0.11386 -0.13300
C 	C 	0.75460 0.02790 0.14120 0.09100
C 	C 	0.67250 0.02670 0.11616 -0.12600
C 	C 	0.67210 0.01720 0.06346 0.05500
C 	C 	0.75630 0.03980 0.19704 -0.13400
C 	C 	0.75290 0.98000 0.22558 -0.13300
C 	C 	0.75440 0.98620 0.28213 0.08700
C 	C 	0.74010 0.04100 0.30688 -0.12600
C 	C 	0.74060 0.04280 0.35857 0.06200
C 	C 	0.76580 0.93980 0.36308 0.06200
C 	C 	0.76780 0.93460 0.31185 -0.13000
N 	N 	0.67470 0.92312 0.46685 -0.23800
N 	N 	0.33130 0.57589 0.54136 -0.23400
N 	N 	0.75050 0.00716 0.53783 -0.23500
N 	N 	0.74670 0.99316 0.88688 -0.23800
N 	N 	0.32530 0.42312 0.03315 -0.23800
N 	N 	0.66870 0.07589 0.95864 -0.23400
N 	N 	0.24950 0.50716 0.96217 -0.23500
N 	N 	0.25330 0.49316 0.61312 -0.23800
N 	N 	0.17470 0.42312 0.53315 -0.23800
N 	N 	0.83130 0.07589 0.45864 -0.23400
N 	N 	0.25050 0.50716 0.46217 -0.23500
N 	N 	0.24670 0.49316 0.11312 -0.23800
N 	N 	0.82530 0.92312 0.96685 -0.23800
N 	N 	0.16870 0.57589 0.04136 -0.23400
N 	N 	0.74950 0.00716 0.03783 -0.23500
N 	N 	0.75330 0.99316 0.38688 -0.23800
Cu	Cu	0.74634 0.50134 0.46239 0.84900
Cu	Cu	0.25366 0.00134 0.03760 0.84900
Cu	Cu	0.24634 0.00134 0.53761 0.84900
Cu	Cu	0.75366 0.50134 0.96239 0.84900
H 	H 	0.73500 0.62500 0.51000 -0.01700
H 	H 	0.83200 0.71300 0.52000 0.06000
H 	H 	0.03300 0.62400 0.43900 0.05900
H 	H 	0.93100 0.54000 0.43000 -0.01900
H 	H 	0.00100 0.75800 0.45800 0.05900
H 	H 	0.07100 0.71300 0.48800 0.05600
H 	H 	0.00400 0.74000 0.56600 0.05600
H 	H 	0.92800 0.78100 0.53700 0.05400
H 	H 	0.95800 0.88100 0.56700 0.05600
H 	H 	0.05700 0.96900 0.56700 -0.01800
H 	H 	0.26600 0.86900 0.51100 -0.01700
H 	H 	0.17400 0.77700 0.51300 0.05900
H 	H 	0.88600 0.50200 0.54400 -0.01400
H 	H 	0.89500 0.48200 0.63100 0.06000
H 	H 	0.61300 0.46600 0.63500 0.05800
H 	H 	0.61200 0.48300 0.54500 -0.01300
H 	H 	0.70300 0.43400 0.70700 0.05900
H 	H 	0.81400 0.43800 0.70600 0.06100
H 	H 	0.69500 0.54200 0.71600 0.06100
H 	H 	0.80600 0.54600 0.71500 0.06100
H 	H 	0.72900 0.42000 0.78600 0.05800
H 	H 	0.73100 0.41600 0.87600 -0.01100
H 	H 	0.77600 0.59900 0.88400 -0.01100
H 	H 	0.77900 0.60700 0.79500 0.05800
H 	H 	0.26500 0.12500 0.99000 -0.01500
H 	H 	0.16800 0.21300 0.98000 0.05900
H 	H 	0.96700 0.12400 0.06100 0.06100
H 	H 	0.06900 0.04000 0.07000 -0.02000
H 	H 	0.99900 0.25800 0.04200 0.05900
H 	H 	0.92900 0.21300 0.01200 0.05600
H 	H 	0.99600 0.24000 0.93400 0.05500
H 	H 	0.07200 0.28100 0.96300 0.05400
H 	H 	0.04200 0.38100 0.93300 0.05700
H 	H 	0.94300 0.46900 0.93300 -0.01900
H 	H 	0.73400 0.36900 0.98900 -0.01700
H 	H 	0.82600 0.27700 0.98700 0.05900
H 	H 	0.11400 0.00200 0.95600 -0.01400
H 	H 	0.10500 0.98200 0.86900 0.06100
H 	H 	0.38700 0.96600 0.86500 0.05800
H 	H 	0.38800 0.98300 0.95500 -0.01300
H 	H 	0.29700 0.93400 0.79300 0.05900
H 	H 	0.18600 0.93800 0.79400 0.06100
H 	H 	0.30500 0.04200 0.78400 0.06200
H 	H 	0.19400 0.04600 0.78500 0.06100
H 	H 	0.27100 0.92000 0.71400 0.05800
H 	H 	0.26900 0.91600 0.62400 -0.01100
H 	H 	0.22400 0.09900 0.61600 -0.01100
H 	H 	0.22100 0.10700 0.70500 0.05800
H 	H 	0.23500 0.12500 0.49000 -0.01700
H 	H 	0.33200 0.21300 0.48000 0.06000
H 	H 	0.53300 0.12400 0.56100 0.05900
H 	H 	0.43100 0.04000 0.57000 -0.01900
H 	H 	0.50100 0.25800 0.54200 0.06000
H 	H 	0.57100 0.21300 0.51200 0.05700
H 	H 	0.50400 0.24000 0.43400 0.05500
H 	H 	0.42800 0.28100 0.46300 0.05400
H 	H 	0.45800 0.38100 0.43300 0.05700
H 	H 	0.55700 0.46900 0.43300 -0.01900
H 	H 	0.76600 0.36900 0.48900 -0.01700
H 	H 	0.67400 0.27700 0.48700 0.05800
H 	H 	0.38600 0.00200 0.45600 -0.01500
H 	H 	0.39500 0.98200 0.36900 0.06100
H 	H 	0.11300 0.96600 0.36500 0.05800
H 	H 	0.11200 0.98300 0.45500 -0.01300
H 	H 	0.20300 0.93400 0.29300 0.05900
H 	H 	0.31400 0.93800 0.29400 0.06100
H 	H 	0.19500 0.04200 0.28400 0.06100
H 	H 	0.30600 0.04600 0.28500 0.06100
H 	H 	0.22900 0.92000 0.21400 0.05700
H 	H 	0.23100 0.91600 0.12400 -0.01100
H 	H 	0.27600 0.09900 0.11600 -0.01100
H 	H 	0.27900 0.10700 0.20500 0.05700
H 	H 	0.76500 0.62500 0.01000 -0.01600
H 	H 	0.66800 0.71300 0.02000 0.06000
H 	H 	0.46700 0.62400 0.93900 0.05900
H 	H 	0.56900 0.54000 0.93000 -0.01900
H 	H 	0.49900 0.75800 0.95800 0.06000
H 	H 	0.42900 0.71300 0.98800 0.05700
H 	H 	0.49600 0.74000 0.06600 0.05500
H 	H 	0.57200 0.78100 0.03700 0.05400
H 	H 	0.54200 0.88100 0.06700 0.05700
H 	H 	0.44300 0.96900 0.06700 -0.01800
H 	H 	0.23400 0.86900 0.01100 -0.01700
H 	H 	0.32600 0.77700 0.01300 0.05800
H 	H 	0.61400 0.50200 0.04400 -0.01400
H 	H 	0.60500 0.48200 0.13100 0.06000
H 	H 	0.88700 0.46600 0.13500 0.05800
H 	H 	0.88800 0.48300 0.04500 -0.01300
H 	H 	0.79700 0.43400 0.20700 0.05900
H 	H 	0.68600 0.43800 0.20600 0.06100
H 	H 	0.80500 0.54200 0.21600 0.06200
H 	H 	0.69400 0.54600 0.21500 0.06100
H 	H 	0.77100 0.42000 0.28600 0.05800
H 	H 	0.76900 0.41600 0.37600 -0.01100
H 	H 	0.72400 0.59900 0.38400 -0.01100
H 	H 	0.72100 0.60700 0.29500 0.05800
C 	C 	0.79820 0.62510 0.49409 0.06100
C 	C 	0.85430 0.67640 0.50080 -0.13100
C 	C 	0.94150 0.67640 0.48125 0.09000
C 	C 	0.96950 0.62530 0.45435 -0.13700
C 	C 	0.90860 0.57690 0.44814 0.06800
C 	C 	0.00640 0.72940 0.48802 -0.12900
C 	C 	0.99360 0.76710 0.53480 -0.12700
C 	C 	0.05630 0.82160 0.53798 0.08800
C 	C 	0.02350 0.87720 0.55534 -0.13100
C 	C 	0.08210 0.92770 0.55627 0.06000
C 	C 	0.20080 0.87150 0.52407 0.06100
C 	C 	0.14680 0.81740 0.52380 -0.12800
C 	C 	0.82870 0.49390 0.56281 0.06100
C 	C 	0.83350 0.48220 0.61386 -0.13300
C 	C 	0.75460 0.47210 0.64120 0.09000
C 	C 	0.67250 0.47330 0.61616 -0.12600
C 	C 	0.67210 0.48280 0.56346 0.05500
C 	C 	0.75630 0.46020 0.69704 -0.13400
C 	C 	0.75290 0.52000 0.72558 -0.13300
C 	C 	0.75440 0.51380 0.78213 0.08700
C 	C 	0.74010 0.45900 0.80688 -0.12600
C 	C 	0.74060 0.45720 0.85857 0.06200
C 	C 	0.76580 0.56020 0.86308 0.06200
C 	C 	0.76780 0.56540 0.81185 -0.13000
C 	C 	0.20180 0.12510 0.00591 0.05700
C 	C 	0.14570 0.17640 0.99920 -0.12700
C 	C 	0.05850 0.17640 0.01875 0.08700
C 	C 	0.03050 0.12530 0.04565 -0.13800
C 	C 	0.09140 0.07690 0.05186 0.06800
C 	C 	0.99360 0.22940 0.01198 -0.12800
C 	C 	0.00640 0.26710 0.96520 -0.12500
C 	C 	0.94370 0.32160 0.96202 0.08800
C 	C 	0.97650 0.37720 0.94466 -0.13400
C 	C 	0.91790 0.42770 0.94373 0.06100
C 	C 	0.79920 0.37150 0.97593 0.06100
C 	C 	0.85320 0.31740 0.97620 -0.12800
C 	C 	0.17130 0.99390 0.93719 0.06200
C 	C 	0.16650 0.98220 0.88614 -0.13300
C 	C 	0.24540 0.97210 0.85880 0.09100
C 	C 	0.32750 0.97330 0.88384 -0.12600
C 	C 	0.32790 0.98280 0.93654 0.05500
C 	C 	0.24370 0.96020 0.80296 -0.13400
C 	C 	0.24710 0.02000 0.77442 -0.13300
C 	C 	0.24560 0.01380 0.71787 0.08700
C 	C 	0.25990 0.95900 0.69312 -0.12600
C 	C 	0.25940 0.95720 0.64143 0.06200
C 	C 	0.23420 0.06020 0.63692 0.06200
C 	C 	0.23220 0.06540 0.68815 -0.13000
C 	C 	0.29820 0.12510 0.50591 0.06100
C 	C 	0.35430 0.17640 0.49920 -0.13200
C 	C 	0.44150 0.17640 0.51875 0.09100
C 	C 	0.46950 0.12530 0.54565 -0.13700
C 	C 	0.40860 0.07690 0.55186 0.06800
C 	C 	0.50640 0.22940 0.51198 -0.13200
C 	C 	0.49360 0.26710 0.46520 -0.12300
C 	C 	0.55630 0.32160 0.46202 0.08700
C 	C 	0.52350 0.37720 0.44466 -0.13200
C 	C 	0.58210 0.42770 0.44373 0.06100
C 	C 	0.70080 0.37150 0.47593 0.06000
C 	C 	0.64680 0.31740 0.47620 -0.12800
C 	C 	0.32870 0.99390 0.43719 0.06200
C 	C 	0.33350 0.98220 0.38614 -0.13300
C 	C 	0.25460 0.97210 0.35880 0.09000
C 	C 	0.17250 0.97330 0.38384 -0.12600
C 	C 	0.17210 0.98280 0.43654 0.05500
C 	C 	0.25630 0.96020 0.30296 -0.13300
C 	C 	0.25290 0.02000 0.27442 -0.13300
C 	C 	0.25440 0.01380 0.21787 0.08600
C 	C 	0.24010 0.95900 0.19312 -0.12500
C 	C 	0.24060 0.95720 0.14143 0.06300
C 	C 	0.26580 0.06020 0.13692 0.06200
C 	C 	0.26780 0.06540 0.18815 -0.13000
C 	C 	0.70180 0.62510 0.99409 0.05900
C 	C 	0.64570 0.67640 0.00080 -0.13000
C 	C 	0.55850 0.67640 0.98125 0.09000
C 	C 	0.53050 0.62530 0.95435 -0.13600
C 	C 	0.59140 0.57690 0.94814 0.06800
C 	C 	0.49360 0.72940 0.98802 -0.13200
C 	C 	0.50640 0.76710 0.03480 -0.12300
C 	C 	0.44370 0.82160 0.03798 0.08700
C 	C 	0.47650 0.87720 0.05534 -0.13200
C 	C 	0.41790 0.92770 0.05627 0.06100
C 	C 	0.29920 0.87150 0.02407 0.06100
C 	C 	0.35320 0.81740 0.02380 -0.12800
C 	C 	0.67130 0.49390 0.06281 0.06100
C 	C 	0.66650 0.48220 0.11386 -0.13300
C 	C 	0.74540 0.47210 0.14120 0.09000
C 	C 	0.82750 0.47330 0.11616 -0.12600
C 	C 	0.82790 0.48280 0.06346 0.05500
C 	C 	0.74370 0.46020 0.19704 -0.13400
C 	C 	0.74710 0.52000 0.22558 -0.13300
C 	C 	0.74560 0.51380 0.28213 0.08700
C 	C 	0.75990 0.45900 0.30688 -0.12600
C 	C 	0.75940 0.45720 0.35857 0.06200
C 	C 	0.73420 0.56020 0.36308 0.06200
C 	C 	0.73220 0.56540 0.31185 -0.13000
N 	N 	0.82530 0.57688 0.46685 -0.23800
N 	N 	0.16870 0.92411 0.54136 -0.23400
N 	N 	0.74950 0.49284 0.53783 -0.23500
N 	N 	0.75330 0.50684 0.88688 -0.23800
N 	N 	0.17470 0.07688 0.03315 -0.23800
N 	N 	0.83130 0.42411 0.95864 -0.23400
N 	N 	0.25050 0.99284 0.96217 -0.23500
N 	N 	0.24670 0.00684 0.61312 -0.23800
N 	N 	0.32530 0.07688 0.53315 -0.23800
N 	N 	0.66870 0.42411 0.45864 -0.23400
N 	N 	0.24950 0.99284 0.46217 -0.23500
N 	N 	0.25330 0.00684 0.11312 -0.23800
N 	N 	0.67470 0.57688 0.96685 -0.23800
N 	N 	0.33130 0.92411 0.04136 -0.23400
N 	N 	0.75050 0.49284 0.03783 -0.23500
N 	N 	0.74670 0.50684 0.38688 -0.23800
