data_crystal

_cell_length_a 20.34200
_cell_length_b 13.56600
_cell_length_c 9.87700
_cell_angle_alpha 90.00000
_cell_angle_beta  90.00000
_cell_angle_gamma 90.00000

_symmetry_space_group_name_	'P 1'
_symmetry_space_group_name_H-M	'P 1'

loop_
_symmetry_equiv_pos_as_xyz
  x,y,z

loop_
_atom_site_label
_atom_site_type_symbol
_atom_site_fract_x
_atom_site_fract_y
_atom_site_fract_z
_atom_site_charge
Cu	Cu	0.10350 0.09024 0.56060 0.81800
Cu	Cu	0.22224 0.38658 0.82543 0.80000
S 	S 	0.11327 0.11380 0.79460 -0.54500
N 	N 	0.18300 0.01480 0.47990 -0.20100
C 	C 	0.22050 0.97370 0.41830 -0.25300
N 	N 	0.97710 0.97890 0.48680 -0.21400
C 	C 	0.02290 0.02110 0.51320 -0.20700
Cu	Cu	0.39650 0.90976 0.06060 0.81600
Cu	Cu	0.27776 0.61342 0.32543 0.79900
S 	S 	0.38673 0.88620 0.29460 -0.54500
N 	N 	0.31700 0.98520 0.97990 -0.19700
C 	C 	0.27950 0.02630 0.91830 -0.25700
N 	N 	0.52290 0.02110 0.98680 -0.21400
C 	C 	0.47710 0.97890 0.01320 -0.20800
Cu	Cu	0.89650 0.59024 0.43940 0.81700
Cu	Cu	0.77776 0.88658 0.17457 0.79900
S 	S 	0.88673 0.61380 0.20540 -0.54400
N 	N 	0.81700 0.51480 0.52010 -0.20100
C 	C 	0.77950 0.47370 0.58170 -0.25300
N 	N 	0.02290 0.47890 0.51320 -0.21400
C 	C 	0.97710 0.52110 0.48680 -0.20700
Cu	Cu	0.60350 0.40976 0.93940 0.81700
Cu	Cu	0.72224 0.11342 0.67457 0.79900
S 	S 	0.61327 0.38620 0.70540 -0.54400
N 	N 	0.68300 0.48520 0.02010 -0.20100
C 	C 	0.72050 0.52630 0.08170 -0.25300
N 	N 	0.47710 0.52110 0.01320 -0.21400
C 	C 	0.52290 0.47890 0.98680 -0.20700
Cu	Cu	0.89650 0.90976 0.43940 0.81900
Cu	Cu	0.77776 0.61342 0.17457 0.79900
S 	S 	0.88673 0.88620 0.20540 -0.54500
N 	N 	0.81700 0.98520 0.52010 -0.20100
C 	C 	0.77950 0.02630 0.58170 -0.25400
Cu	Cu	0.60350 0.09024 0.93940 0.81700
Cu	Cu	0.72224 0.38658 0.67457 0.79900
S 	S 	0.61327 0.11380 0.70540 -0.54400
N 	N 	0.68300 0.01480 0.02010 -0.19700
C 	C 	0.72050 0.97370 0.08170 -0.25700
Cu	Cu	0.10350 0.40976 0.56060 0.81900
Cu	Cu	0.22224 0.11342 0.82543 0.79900
S 	S 	0.11327 0.38620 0.79460 -0.54400
N 	N 	0.18300 0.48520 0.47990 -0.20100
C 	C 	0.22050 0.52630 0.41830 -0.25300
Cu	Cu	0.39650 0.59024 0.06060 0.81800
Cu	Cu	0.27776 0.88658 0.32543 0.79900
S 	S 	0.38673 0.61380 0.29460 -0.54300
N 	N 	0.31700 0.51480 0.97990 -0.20100
C 	C 	0.27950 0.47370 0.91830 -0.25300
W 	W 	0.15276 0.25000 0.69610 0.27600
S 	S 	0.26186 0.25000 0.72280 -0.57500
S 	S 	0.12480 0.25000 0.48090 -0.51700
W 	W 	0.34724 0.75000 0.19610 0.27400
S 	S 	0.23814 0.75000 0.22280 -0.57600
S 	S 	0.37520 0.75000 0.98090 -0.51300
W 	W 	0.84724 0.75000 0.30390 0.27600
S 	S 	0.73814 0.75000 0.27720 -0.57500
S 	S 	0.87520 0.75000 0.51910 -0.51700
W 	W 	0.65276 0.25000 0.80390 0.27400
S 	S 	0.76186 0.25000 0.77720 -0.57600
S 	S 	0.62480 0.25000 0.01910 -0.51300
