data_crystal

_cell_length_a 10.33500
_cell_length_b 13.38230
_cell_length_c 22.66230
_cell_angle_alpha 100.90300
_cell_angle_beta  91.35900
_cell_angle_gamma 104.33100

_symmetry_space_group_name_	'P 1'
_symmetry_space_group_name_H-M	'P 1'

loop_
_symmetry_equiv_pos_as_xyz
  x,y,z

loop_
_atom_site_label
_atom_site_type_symbol
_atom_site_fract_x
_atom_site_fract_y
_atom_site_fract_z
_atom_site_charge
Cu	Cu	0.04941 0.54785 0.27955 0.78100
Cu	Cu	0.41825 0.06113 0.04813 0.85100
S 	S 	0.66134 0.92606 0.28119 0.00300
S 	S 	0.50045 0.69706 0.24388 -0.05300
S 	S 	0.60407 0.41311 0.32361 -0.05000
S 	S 	0.45973 0.19175 0.25743 -0.04900
S 	S 	0.94106 0.95000 0.78102 -0.01100
S 	S 	0.07014 0.18146 0.83989 -0.05600
N 	N 	0.50210 0.02250 0.11790 -0.27100
N 	N 	0.88020 0.59190 0.26940 -0.26000
N 	N 	0.21780 0.50480 0.28994 -0.27400
N 	N 	0.50080 0.05200 0.42229 -0.22300
N 	N 	0.31340 0.09750 0.98320 -0.22900
N 	N 	0.98810 0.98550 0.58673 -0.20100
C 	C 	0.42480 0.94840 0.14240 0.12900
H 	H 	0.33590 0.91730 0.12510 -0.02400
C 	C 	0.46640 0.91450 0.19140 -0.17700
H 	H 	0.40730 0.86100 0.20710 0.08300
C 	C 	0.59560 0.95910 0.21770 0.13900
C 	C 	0.67780 0.03700 0.19240 -0.21000
H 	H 	0.76710 0.06930 0.20880 0.09700
C 	C 	0.62780 0.06650 0.14340 0.10300
H 	H 	0.68410 0.12020 0.12690 -0.02400
C 	C 	0.52610 0.82120 0.29580 -0.12800
H 	H 	0.54350 0.81010 0.33690 0.06000
H 	H 	0.44230 0.84420 0.29530 0.05700
C 	C 	0.64910 0.66070 0.25620 0.09200
C 	C 	0.73160 0.69410 0.30970 -0.14600
H 	H 	0.71010 0.74140 0.34250 0.08600
C 	C 	0.84430 0.65780 0.31440 0.07900
H 	H 	0.89900 0.68050 0.35120 -0.02700
C 	C 	0.80060 0.55850 0.21880 0.08000
H 	H 	0.82440 0.51090 0.18680 -0.03300
C 	C 	0.68480 0.59010 0.21060 -0.15100
H 	H 	0.63020 0.56360 0.17390 0.07300
C 	C 	0.29000 0.53500 0.34330 0.07600
H 	H 	0.25800 0.57650 0.37560 -0.04500
C 	C 	0.40730 0.50880 0.35330 -0.15700
H 	H 	0.45550 0.53300 0.39170 0.07700
C 	C 	0.45570 0.44690 0.30740 0.09400
C 	C 	0.38270 0.41760 0.25190 -0.15500
H 	H 	0.41300 0.37680 0.21860 0.07100
C 	C 	0.26690 0.44800 0.24540 0.08000
H 	H 	0.21870 0.42740 0.20690 -0.04400
C 	C 	0.60110 0.30390 0.26240 -0.11600
H 	H 	0.60210 0.32900 0.22400 0.04800
H 	H 	0.68410 0.28080 0.26700 0.04800
C 	C 	0.48620 0.14190 0.32136 0.07000
C 	C 	0.60130 0.17300 0.36060 -0.13400
H 	H 	0.67660 0.22570 0.35370 0.06900
C 	C 	0.60420 0.12610 0.40950 0.06600
H 	H 	0.68350 0.14740 0.43570 -0.01100
C 	C 	0.39120 0.02010 0.38323 0.00300
H 	H 	0.31820 0.96610 0.39070 0.03100
C 	C 	0.38060 0.06210 0.33326 -0.11300
H 	H 	0.30170 0.03710 0.30680 0.05700
C 	C 	0.18730 0.04150 0.96800 -0.01300
H 	H 	0.15160 0.98510 0.98760 0.03900
C 	C 	0.10630 0.06190 0.92490 -0.10000
H 	H 	0.01650 0.02070 0.91550 0.04100
C 	C 	0.15850 0.14430 0.89520 0.06400
C 	C 	0.28980 0.20300 0.91110 -0.13100
H 	H 	0.32860 0.25960 0.89210 0.07300
C 	C 	0.36280 0.17750 0.95530 0.06400
H 	H 	0.45210 0.21840 0.96650 -0.01100
C 	C 	0.92080 0.07410 0.82200 -0.12900
H 	H 	0.85550 0.09640 0.79820 0.05300
H 	H 	0.88110 0.06220 0.86020 0.06500
C 	C 	0.96700 0.97190 0.70780 0.12700
C 	C 	0.97180 0.06540 0.68910 -0.18900
H 	H 	0.96790 0.12650 0.71750 0.08600
C 	C 	0.98230 0.06880 0.62890 0.07000
H 	H 	0.98550 0.13350 0.61680 -0.01200
C 	C 	0.98790 0.89680 0.60580 0.10600
H 	H 	0.99540 0.83750 0.57680 -0.01300
C 	C 	0.97770 0.88640 0.66450 -0.16100
H 	H 	0.97800 0.82140 0.67550 0.07900
C 	C 	0.71660 0.89960 0.47540 0.46200
H 	H 	0.64560 0.83810 0.46250 -0.13400
C 	C 	0.70920 0.16450 0.99870 0.41200
H 	H 	0.71320 0.23080 0.02370 -0.10800
O 	O 	0.68510 0.98410 0.49057 -0.44700
O 	O 	0.83210 0.88790 0.47559 -0.42300
O 	O 	0.60810 0.08990 0.00134 -0.50700
O 	O 	0.80300 0.15920 0.96656 -0.31900
Cu	Cu	0.95059 0.45215 0.72045 0.80200
Cu	Cu	0.58175 0.93887 0.95187 0.87200
S 	S 	0.33866 0.07394 0.71881 -0.03300
S 	S 	0.49955 0.30294 0.75612 -0.05000
S 	S 	0.39593 0.58689 0.67639 -0.05800
S 	S 	0.54027 0.80825 0.74257 -0.04100
S 	S 	0.05894 0.05000 0.21898 -0.08800
S 	S 	0.92986 0.81854 0.16011 -0.00200
N 	N 	0.49790 0.97750 0.88210 -0.20700
N 	N 	0.11980 0.40810 0.73060 -0.27500
N 	N 	0.78220 0.49520 0.71006 -0.26900
N 	N 	0.49920 0.94800 0.57771 -0.23500
N 	N 	0.68660 0.90250 0.01680 -0.24700
N 	N 	0.01190 0.01450 0.41327 -0.24800
C 	C 	0.57520 0.05160 0.85760 0.00900
H 	H 	0.66410 0.08270 0.87490 0.00800
C 	C 	0.53360 0.08550 0.80860 -0.09600
H 	H 	0.59270 0.13900 0.79290 0.05500
C 	C 	0.40440 0.04090 0.78230 0.02100
C 	C 	0.32220 0.96300 0.80760 -0.06700
H 	H 	0.23290 0.93070 0.79120 0.05400
C 	C 	0.37220 0.93350 0.85660 0.05300
H 	H 	0.31590 0.87980 0.87310 -0.00400
C 	C 	0.47390 0.17880 0.70420 -0.11700
H 	H 	0.45650 0.18990 0.66310 0.05100
H 	H 	0.55770 0.15580 0.70470 0.04700
C 	C 	0.35090 0.33930 0.74380 0.09200
C 	C 	0.26840 0.30590 0.69030 -0.15200
H 	H 	0.28990 0.25860 0.65750 0.08100
C 	C 	0.15570 0.34220 0.68560 0.07500
H 	H 	0.10100 0.31950 0.64880 -0.04300
C 	C 	0.19940 0.44150 0.78120 0.07800
H 	H 	0.17560 0.48910 0.81320 -0.04200
C 	C 	0.31520 0.40990 0.78940 -0.15300
H 	H 	0.36980 0.43640 0.82610 0.07300
C 	C 	0.71000 0.46500 0.65670 0.07800
H 	H 	0.74200 0.42350 0.62440 -0.04000
C 	C 	0.59270 0.49120 0.64670 -0.15700
H 	H 	0.54450 0.46700 0.60830 0.07700
C 	C 	0.54430 0.55310 0.69260 0.09600
C 	C 	0.61730 0.58240 0.74810 -0.15400
H 	H 	0.58700 0.62320 0.78140 0.07400
C 	C 	0.73310 0.55200 0.75460 0.08100
H 	H 	0.78130 0.57260 0.79310 -0.03500
C 	C 	0.39890 0.69610 0.73760 -0.11400
H 	H 	0.39790 0.67100 0.77600 0.04700
H 	H 	0.31590 0.71920 0.73300 0.04300
C 	C 	0.51380 0.85810 0.67864 0.10600
C 	C 	0.39870 0.82700 0.63940 -0.15500
H 	H 	0.32340 0.77430 0.64630 0.07200
C 	C 	0.39580 0.87390 0.59050 0.08800
H 	H 	0.31650 0.85260 0.56430 -0.01500
C 	C 	0.60880 0.97990 0.61677 0.15600
H 	H 	0.68180 0.03390 0.60930 -0.06500
C 	C 	0.61940 0.93790 0.66674 -0.18400
H 	H 	0.69830 0.96290 0.69320 0.10200
C 	C 	0.81270 0.95850 0.03200 0.14500
H 	H 	0.84840 0.01490 0.01240 -0.04600
C 	C 	0.89370 0.93810 0.07510 -0.16500
H 	H 	0.98350 0.97930 0.08450 0.10500
C 	C 	0.84150 0.85570 0.10480 0.10300
C 	C 	0.71020 0.79700 0.08890 -0.15200
H 	H 	0.67140 0.74040 0.10790 0.08100
C 	C 	0.63720 0.82250 0.04470 0.08800
H 	H 	0.54790 0.78160 0.03350 -0.01800
C 	C 	0.07920 0.92590 0.17800 -0.12100
H 	H 	0.14450 0.90360 0.20180 0.05900
H 	H 	0.11890 0.93780 0.13980 0.06200
C 	C 	0.03300 0.02810 0.29220 0.04500
C 	C 	0.02820 0.93460 0.31090 -0.11200
H 	H 	0.03210 0.87350 0.28250 0.05500
C 	C 	0.01770 0.93120 0.37110 0.09900
H 	H 	0.01450 0.86650 0.38320 -0.03100
C 	C 	0.01210 0.10320 0.39420 0.07300
H 	H 	0.00460 0.16250 0.42320 -0.02100
C 	C 	0.02230 0.11360 0.33550 -0.14100
H 	H 	0.02200 0.17860 0.32450 0.06000
C 	C 	0.28340 0.10040 0.52460 0.47700
H 	H 	0.35440 0.16190 0.53750 -0.14300
C 	C 	0.29080 0.83550 0.00130 0.41500
H 	H 	0.28680 0.76920 0.97630 -0.11400
O 	O 	0.31490 0.01590 0.50943 -0.49400
O 	O 	0.16790 0.11210 0.52441 -0.46000
O 	O 	0.39190 0.91010 0.99866 -0.48500
O 	O 	0.19700 0.84080 0.03344 -0.32700
Cu	Cu	0.50000 0.00000 0.50000 0.87200
Cu	Cu	-0.00000 0.00000 0.50000 0.87100
