data_crystal

_cell_length_a 12.39200
_cell_length_b 12.70300
_cell_length_c 12.99100
_cell_angle_alpha 63.63000
_cell_angle_beta  88.80000
_cell_angle_gamma 66.27000

_symmetry_space_group_name_	'P 1'
_symmetry_space_group_name_H-M	'P 1'

loop_
_symmetry_equiv_pos_as_xyz
  x,y,z

loop_
_atom_site_label
_atom_site_type_symbol
_atom_site_fract_x
_atom_site_fract_y
_atom_site_fract_z
_atom_site_charge
Na	Na	0.00620 0.63650 0.24300 0.57700
Na	Na	0.92510 0.42610 0.19160 0.57900
Na	Na	0.73140 0.93740 0.10680 0.55900
Na	Na	0.99380 0.36350 0.75700 0.58000
Na	Na	0.07490 0.57390 0.80840 0.58500
Na	Na	0.26860 0.06260 0.89320 0.56900
Cu	Cu	0.72530 0.91690 0.50660 0.84400
Cu	Cu	0.27470 0.08310 0.49340 0.83900
Cu	Cu	0.50000 0.50000 -0.00000 0.79500
H 	H 	0.70720 0.89800 0.76640 0.11200
H 	H 	0.64600 0.80440 0.79160 0.12500
H 	H 	0.56220 0.90400 0.61050 0.09300
H 	H 	0.57960 0.01340 0.60460 0.06800
H 	H 	0.29280 0.10200 0.23360 0.08800
H 	H 	0.35400 0.19560 0.20840 0.10200
H 	H 	0.43780 0.09600 0.38950 0.09200
H 	H 	0.42040 0.98660 0.39540 0.08500
W 	W 	0.59872 0.25288 0.31225 0.86600
W 	W 	0.78135 0.17064 0.54528 0.71900
W 	W 	0.34516 0.51215 0.22911 1.30800
W 	W 	0.37546 0.79103 0.22143 1.23900
W 	W 	0.43848 0.28895 0.54727 0.98500
W 	W 	0.63436 0.51936 0.32505 1.24800
W 	W 	0.40128 0.74712 0.68775 0.89500
W 	W 	0.21865 0.82936 0.45472 0.72500
W 	W 	0.65484 0.48785 0.77089 1.31200
W 	W 	0.62454 0.20897 0.77857 1.24300
W 	W 	0.56152 0.71105 0.45273 0.98500
W 	W 	0.36564 0.48064 0.67495 1.25000
C 	C 	0.69090 0.84500 0.73930 -0.28800
C 	C 	0.81080 0.73800 0.74220 0.38700
C 	C 	0.30910 0.15500 0.26070 -0.27500
C 	C 	0.18920 0.26200 0.25780 0.38300
N 	N 	0.61780 0.93000 0.61850 -0.28100
N 	N 	0.38220 0.07000 0.38150 -0.30000
O 	O 	0.98500 0.45140 0.36070 -0.26400
O 	O 	0.89000 0.66150 0.07390 -0.30600
O 	O 	0.36340 0.43760 0.40950 -0.42700
O 	O 	0.62390 0.08650 0.37150 -0.53900
O 	O 	0.58420 0.22680 0.49850 -0.42400
O 	O 	0.74340 0.17360 0.68510 -0.44200
O 	O 	0.81920 0.74990 0.28800 -0.33700
O 	O 	0.31490 0.67150 0.22160 -0.49800
O 	O 	0.37690 0.54810 0.08820 -0.59500
O 	O 	0.19980 0.53160 0.21240 -0.46400
O 	O 	0.51610 0.69050 0.18410 -0.47300
O 	O 	0.75050 0.22220 0.38010 -0.47400
O 	O 	0.42800 0.32360 0.28410 -0.47600
O 	O 	0.69840 0.38190 0.47080 -0.39400
O 	O 	0.53830 0.44960 0.28530 -0.49600
O 	O 	0.83120 0.75480 0.64100 -0.46100
O 	O 	0.47680 0.61720 0.39530 -0.33800
O 	O 	0.74500 0.49120 0.24680 -0.48500
O 	O 	0.30110 0.93020 0.08520 -0.51400
O 	O 	0.46060 0.84690 0.28730 -0.46400
O 	O 	0.33280 0.36560 0.63310 -0.42700
O 	O 	0.87740 0.65880 0.83610 -0.34500
O 	O 	0.01500 0.54860 0.63930 -0.25900
O 	O 	0.11000 0.33850 0.92610 -0.25400
O 	O 	0.63660 0.56240 0.59050 -0.42800
O 	O 	0.37610 0.91350 0.62850 -0.52500
O 	O 	0.41580 0.77320 0.50150 -0.42500
O 	O 	0.25660 0.82640 0.31490 -0.44600
O 	O 	0.18080 0.25010 0.71200 -0.32400
O 	O 	0.68510 0.32850 0.77840 -0.49000
O 	O 	0.62310 0.45190 0.91180 -0.55200
O 	O 	0.80020 0.46840 0.78760 -0.45200
O 	O 	0.48390 0.30950 0.81590 -0.45500
O 	O 	0.24950 0.77780 0.61990 -0.46700
O 	O 	0.57200 0.67640 0.71590 -0.47200
O 	O 	0.30160 0.61810 0.52920 -0.39500
O 	O 	0.46170 0.55040 0.71470 -0.49200
O 	O 	0.16880 0.24520 0.35900 -0.46300
O 	O 	0.52320 0.38280 0.60470 -0.33900
O 	O 	0.25500 0.50880 0.75320 -0.46800
O 	O 	0.69890 0.06980 0.91480 -0.47700
O 	O 	0.53940 0.15310 0.71270 -0.46000
O 	O 	0.66720 0.63440 0.36690 -0.42900
O 	O 	0.12260 0.34120 0.16390 -0.37800
