data_crystal

_cell_length_a 17.61400
_cell_length_b 21.91600
_cell_length_c 18.04600
_cell_angle_alpha 90.00000
_cell_angle_beta  105.64000
_cell_angle_gamma 90.00000

_symmetry_space_group_name_	'P 1'
_symmetry_space_group_name_H-M	'P 1'

loop_
_symmetry_equiv_pos_as_xyz
  x,y,z

loop_
_atom_site_label
_atom_site_type_symbol
_atom_site_fract_x
_atom_site_fract_y
_atom_site_fract_z
_atom_site_charge
Zn	Zn	0.49405 0.17977 0.49215 1.24700
Zn	Zn	0.30802 0.23757 0.48934 1.23200
Zn	Zn	0.67548 0.25715 0.98931 1.23200
S 	S 	0.06994 0.98876 0.35536 0.57900
S 	S 	0.63665 0.12333 0.87713 0.50200
S 	S 	0.34036 0.36499 0.60605 0.50300
O 	O 	0.34980 0.19990 0.59540 -0.45400
O 	O 	0.66770 0.16208 0.94560 -0.36200
O 	O 	0.31850 0.33208 0.53320 -0.37000
C 	C 	0.29620 0.05050 0.42230 -0.12300
O 	O 	0.40440 0.24323 0.95150 -0.51200
O 	O 	0.40950 0.11198 0.45940 -0.41800
O 	O 	0.68790 0.28867 0.61820 -0.32300
O 	O 	0.29620 0.21732 0.86300 -0.31700
O 	O 	0.51160 0.31945 0.88800 -0.45700
O 	O 	0.58040 0.26020 0.52910 -0.50900
O 	O 	0.41820 0.88434 0.46770 -0.42700
O 	O 	0.63260 0.29296 0.88410 -0.46500
O 	O 	0.47650 0.18463 0.59660 -0.45300
O 	O 	0.29300 0.35020 0.65800 -0.24000
O 	O 	0.62320 0.06055 0.89890 -0.19800
O 	O 	0.30400 0.83510 0.44630 -0.44500
O 	O 	0.29090 0.15899 0.42730 -0.42600
O 	O 	0.34320 0.43057 0.59330 -0.19600
O 	O 	0.68440 0.12690 0.82430 -0.23500
C 	C 	0.39300 0.19720 0.75770 0.06400
H 	H 	0.34200 0.21020 0.73410 0.04600
C 	C 	0.30020 0.94090 0.42690 -0.14000
C 	C 	0.53980 0.32000 0.76840 -0.12600
C 	C 	0.59250 0.30460 0.72390 0.06100
H 	H 	0.64450 0.29410 0.74780 0.04700
C 	C 	0.56520 0.30560 0.64390 -0.09700
C 	C 	0.36990 0.22010 0.88570 0.34500
C 	C 	0.21860 0.93850 0.40240 0.08800
H 	H 	0.19310 0.90100 0.39490 0.03400
C 	C 	0.51790 0.15590 0.74950 0.05600
H 	H 	0.55140 0.14310 0.72060 0.05000
C 	C 	0.41990 0.19610 0.83690 -0.10700
C 	C 	0.43910 0.34250 0.65280 -0.10000
C 	C 	0.48840 0.32580 0.60710 0.03800
H 	H 	0.47090 0.32800 0.55370 0.04400
C 	C 	0.33740 0.99590 0.43590 0.08600
H 	H 	0.39220 0.99690 0.45170 0.04300
N 	N 	0.79130 0.25230 0.99080 -0.24300
C 	C 	0.21280 0.04910 0.39730 0.07200
H 	H 	0.18340 0.08490 0.38640 0.04000
C 	C 	0.61680 0.28380 0.59530 0.34800
C 	C 	0.54170 0.15280 0.83030 -0.10400
N 	N 	0.19080 0.25840 0.98430 -0.24000
C 	C 	0.44230 0.17890 0.71330 -0.11800
C 	C 	0.88890 0.24390 0.92190 -0.13200
H 	H 	0.90070 0.23670 0.87540 0.09500
C 	C 	0.49270 0.17370 0.87340 0.04600
H 	H 	0.50940 0.17250 0.92690 0.03800
C 	C 	0.92850 0.27390 0.05320 -0.12500
H 	H 	0.96670 0.28720 0.09650 0.09600
C 	C 	0.33640 0.11130 0.43630 0.38600
C 	C 	0.42040 0.18800 0.62750 0.40800
C 	C 	0.46320 0.33920 0.73270 0.06200
H 	H 	0.42890 0.34970 0.76180 0.04700
C 	C 	0.03430 0.25930 0.98610 0.06900
C 	C 	0.56440 0.31070 0.85290 0.41700
C 	C 	0.17600 0.99110 0.38940 -0.13100
C 	C 	0.34520 0.88250 0.44940 0.41700
C 	C 	0.81330 0.23970 0.92700 0.09800
H 	H 	0.77470 0.22730 0.88350 0.01600
C 	C 	0.94850 0.25920 0.98780 0.07200
C 	C 	0.17050 0.24760 0.04950 0.08500
H 	H 	0.20990 0.24020 0.09450 0.02000
C 	C 	0.05500 0.27170 0.91880 -0.12100
H 	H 	0.01620 0.28050 0.87370 0.09100
C 	C 	0.84920 0.26860 0.05450 0.08400
H 	H 	0.83600 0.27640 0.10020 0.01800
C 	C 	0.09030 0.24720 0.05160 -0.11800
H 	H 	0.07700 0.23880 0.09700 0.09200
C 	C 	0.13400 0.27100 0.91900 0.08600
H 	H 	0.14790 0.27920 0.87380 0.01700
O 	O 	0.04210 0.04650 0.37960 -0.25700
O 	O 	0.05050 0.97550 0.27870 -0.25300
O 	O 	0.04450 0.93920 0.40050 -0.46800
H 	H 	0.05680 0.94840 0.44620 0.28300
Zn	Zn	0.50595 0.67977 0.00785 1.24600
Zn	Zn	0.69198 0.73757 0.01066 1.23100
Zn	Zn	0.32452 0.75715 0.51069 1.23200
S 	S 	0.93006 0.48876 0.14464 0.58100
S 	S 	0.36335 0.62333 0.62287 0.50200
S 	S 	0.65964 0.86499 0.89395 0.50300
O 	O 	0.65020 0.69990 0.90460 -0.45300
O 	O 	0.33230 0.66208 0.55440 -0.36200
O 	O 	0.68150 0.83208 0.96680 -0.36800
C 	C 	0.70380 0.55050 0.07770 -0.12300
O 	O 	0.59560 0.74323 0.54850 -0.51100
O 	O 	0.59050 0.61198 0.04060 -0.41800
O 	O 	0.31210 0.78867 0.88180 -0.32200
O 	O 	0.70380 0.71732 0.63700 -0.31700
O 	O 	0.48840 0.81945 0.61200 -0.45600
O 	O 	0.41960 0.76020 0.97090 -0.50800
O 	O 	0.58180 0.38434 0.03230 -0.42600
O 	O 	0.36740 0.79296 0.61590 -0.46500
O 	O 	0.52350 0.68463 0.90340 -0.45200
O 	O 	0.70700 0.85020 0.84200 -0.23900
O 	O 	0.37680 0.56055 0.60110 -0.19700
O 	O 	0.69600 0.33510 0.05370 -0.44500
O 	O 	0.70910 0.65899 0.07270 -0.42600
O 	O 	0.65680 0.93057 0.90670 -0.19400
O 	O 	0.31560 0.62690 0.67570 -0.23500
C 	C 	0.60700 0.69720 0.74230 0.06400
H 	H 	0.65800 0.71020 0.76590 0.04600
C 	C 	0.69980 0.44090 0.07310 -0.14000
C 	C 	0.46020 0.82000 0.73160 -0.12600
C 	C 	0.40750 0.80460 0.77610 0.06000
H 	H 	0.35550 0.79410 0.75220 0.04700
C 	C 	0.43480 0.80560 0.85610 -0.09600
C 	C 	0.63010 0.72010 0.61430 0.34400
C 	C 	0.78140 0.43850 0.09760 0.08800
H 	H 	0.80690 0.40100 0.10510 0.03400
C 	C 	0.48210 0.65590 0.75050 0.05600
H 	H 	0.44860 0.64310 0.77940 0.05000
C 	C 	0.58010 0.69610 0.66310 -0.10700
C 	C 	0.56090 0.84250 0.84720 -0.09900
C 	C 	0.51160 0.82580 0.89290 0.03700
H 	H 	0.52910 0.82800 0.94630 0.04500
C 	C 	0.66260 0.49590 0.06410 0.08700
H 	H 	0.60780 0.49690 0.04830 0.04300
N 	N 	0.20870 0.75230 0.50920 -0.24200
C 	C 	0.78720 0.54910 0.10270 0.07100
H 	H 	0.81660 0.58490 0.11360 0.04100
C 	C 	0.38320 0.78380 0.90470 0.34800
C 	C 	0.45830 0.65280 0.66970 -0.10300
N 	N 	0.80920 0.75840 0.51570 -0.23900
C 	C 	0.55770 0.67890 0.78670 -0.11700
C 	C 	0.11110 0.74390 0.57810 -0.13200
H 	H 	0.09930 0.73670 0.62460 0.09600
C 	C 	0.50730 0.67370 0.62660 0.04600
H 	H 	0.49060 0.67250 0.57310 0.03800
C 	C 	0.07150 0.77390 0.44680 -0.12700
H 	H 	0.03330 0.78720 0.40350 0.09700
C 	C 	0.66360 0.61130 0.06370 0.38600
C 	C 	0.57960 0.68800 0.87250 0.40700
C 	C 	0.53680 0.83920 0.76730 0.06200
H 	H 	0.57110 0.84970 0.73820 0.04700
C 	C 	0.96570 0.75930 0.51390 0.07100
C 	C 	0.43560 0.81070 0.64710 0.41700
C 	C 	0.82400 0.49110 0.11060 -0.12900
C 	C 	0.65480 0.38250 0.05060 0.41700
C 	C 	0.18670 0.73970 0.57300 0.09900
H 	H 	0.22530 0.72730 0.61650 0.01600
C 	C 	0.05150 0.75920 0.51220 0.07400
C 	C 	0.82950 0.74760 0.45050 0.08400
H 	H 	0.79010 0.74020 0.40550 0.02000
C 	C 	0.94500 0.77170 0.58120 -0.12100
H 	H 	0.98380 0.78050 0.62630 0.09100
C 	C 	0.15080 0.76860 0.44550 0.08200
H 	H 	0.16400 0.77640 0.39980 0.01800
C 	C 	0.90970 0.74720 0.44840 -0.12000
H 	H 	0.92300 0.73880 0.40300 0.09300
C 	C 	0.86600 0.77100 0.58100 0.08700
H 	H 	0.85210 0.77920 0.62620 0.01700
O 	O 	0.95790 0.54650 0.12040 -0.25800
O 	O 	0.94950 0.47550 0.22130 -0.25200
O 	O 	0.95550 0.43920 0.09950 -0.46800
H 	H 	0.94320 0.44840 0.05380 0.28300
Zn	Zn	0.50595 0.82023 0.50785 1.24600
Zn	Zn	0.69198 0.76243 0.51066 1.23100
Zn	Zn	0.32452 0.74285 0.01069 1.23200
S 	S 	0.93006 0.01124 0.64464 0.57900
S 	S 	0.36335 0.87667 0.12287 0.50200
S 	S 	0.65964 0.63501 0.39395 0.50300
O 	O 	0.65020 0.80010 0.40460 -0.45400
O 	O 	0.33230 0.83792 0.05440 -0.36200
O 	O 	0.68150 0.66792 0.46680 -0.37000
C 	C 	0.70380 0.94950 0.57770 -0.12300
O 	O 	0.59560 0.75677 0.04850 -0.51200
O 	O 	0.59050 0.88802 0.54060 -0.41800
O 	O 	0.31210 0.71133 0.38180 -0.32300
O 	O 	0.70380 0.78268 0.13700 -0.31700
O 	O 	0.48840 0.68055 0.11200 -0.45700
O 	O 	0.41960 0.73980 0.47090 -0.50900
O 	O 	0.58180 0.11566 0.53230 -0.42700
O 	O 	0.36740 0.70704 0.11590 -0.46500
O 	O 	0.52350 0.81537 0.40340 -0.45300
O 	O 	0.70700 0.64980 0.34200 -0.24000
O 	O 	0.37680 0.93945 0.10110 -0.19800
O 	O 	0.69600 0.16490 0.55370 -0.44500
O 	O 	0.70910 0.84101 0.57270 -0.42600
O 	O 	0.65680 0.56943 0.40670 -0.19600
O 	O 	0.31560 0.87310 0.17570 -0.23500
C 	C 	0.60700 0.80280 0.24230 0.06400
H 	H 	0.65800 0.78980 0.26590 0.04600
C 	C 	0.69980 0.05910 0.57310 -0.14000
C 	C 	0.46020 0.68000 0.23160 -0.12600
C 	C 	0.40750 0.69540 0.27610 0.06100
H 	H 	0.35550 0.70590 0.25220 0.04700
C 	C 	0.43480 0.69440 0.35610 -0.09700
C 	C 	0.63010 0.77990 0.11430 0.34500
C 	C 	0.78140 0.06150 0.59760 0.08800
H 	H 	0.80690 0.09900 0.60510 0.03400
C 	C 	0.48210 0.84410 0.25050 0.05600
H 	H 	0.44860 0.85690 0.27940 0.05000
C 	C 	0.58010 0.80390 0.16310 -0.10700
C 	C 	0.56090 0.65750 0.34720 -0.10000
C 	C 	0.51160 0.67420 0.39290 0.03800
H 	H 	0.52910 0.67200 0.44630 0.04400
C 	C 	0.66260 0.00410 0.56410 0.08600
H 	H 	0.60780 0.00310 0.54830 0.04300
N 	N 	0.20870 0.74770 0.00920 -0.24300
C 	C 	0.78720 0.95090 0.60270 0.07200
H 	H 	0.81660 0.91510 0.61360 0.04000
C 	C 	0.38320 0.71620 0.40470 0.34800
C 	C 	0.45830 0.84720 0.16970 -0.10400
N 	N 	0.80920 0.74160 0.01570 -0.24000
C 	C 	0.55770 0.82110 0.28670 -0.11800
C 	C 	0.11110 0.75610 0.07810 -0.13200
H 	H 	0.09930 0.76330 0.12460 0.09500
C 	C 	0.50730 0.82630 0.12660 0.04600
H 	H 	0.49060 0.82750 0.07310 0.03800
C 	C 	0.07150 0.72610 0.94680 -0.12500
H 	H 	0.03330 0.71280 0.90350 0.09600
C 	C 	0.66360 0.88870 0.56370 0.38600
C 	C 	0.57960 0.81200 0.37250 0.40800
C 	C 	0.53680 0.66080 0.26730 0.06200
H 	H 	0.57110 0.65030 0.23820 0.04700
C 	C 	0.96570 0.74070 0.01390 0.06900
C 	C 	0.43560 0.68930 0.14710 0.41700
C 	C 	0.82400 0.00890 0.61060 -0.13100
C 	C 	0.65480 0.11750 0.55060 0.41700
C 	C 	0.18670 0.76030 0.07300 0.09800
H 	H 	0.22530 0.77270 0.11650 0.01600
C 	C 	0.05150 0.74080 0.01220 0.07200
C 	C 	0.82950 0.75240 0.95050 0.08500
H 	H 	0.79010 0.75980 0.90550 0.02000
C 	C 	0.94500 0.72830 0.08120 -0.12100
H 	H 	0.98380 0.71950 0.12630 0.09100
C 	C 	0.15080 0.73140 0.94550 0.08400
H 	H 	0.16400 0.72360 0.89980 0.01800
C 	C 	0.90970 0.75280 0.94840 -0.11800
H 	H 	0.92300 0.76120 0.90300 0.09200
C 	C 	0.86600 0.72900 0.08100 0.08600
H 	H 	0.85210 0.72080 0.12620 0.01700
O 	O 	0.95790 0.95350 0.62040 -0.25700
O 	O 	0.94950 0.02450 0.72130 -0.25300
O 	O 	0.95550 0.06080 0.59950 -0.46800
H 	H 	0.94320 0.05160 0.55380 0.28300
Zn	Zn	0.49405 0.32023 0.99215 1.24600
Zn	Zn	0.30802 0.26243 0.98934 1.23100
Zn	Zn	0.67548 0.24285 0.48931 1.23200
S 	S 	0.06994 0.51124 0.85536 0.58100
S 	S 	0.63665 0.37667 0.37713 0.50200
S 	S 	0.34036 0.13501 0.10605 0.50300
O 	O 	0.34980 0.30010 0.09540 -0.45300
O 	O 	0.66770 0.33792 0.44560 -0.36200
O 	O 	0.31850 0.16792 0.03320 -0.36800
C 	C 	0.29620 0.44950 0.92230 -0.12300
O 	O 	0.40440 0.25677 0.45150 -0.51100
O 	O 	0.40950 0.38802 0.95940 -0.41800
O 	O 	0.68790 0.21133 0.11820 -0.32200
O 	O 	0.29620 0.28268 0.36300 -0.31700
O 	O 	0.51160 0.18055 0.38800 -0.45600
O 	O 	0.58040 0.23980 0.02910 -0.50800
O 	O 	0.41820 0.61566 0.96770 -0.42600
O 	O 	0.63260 0.20704 0.38410 -0.46500
O 	O 	0.47650 0.31537 0.09660 -0.45200
O 	O 	0.29300 0.14980 0.15800 -0.23900
O 	O 	0.62320 0.43945 0.39890 -0.19700
O 	O 	0.30400 0.66490 0.94630 -0.44500
O 	O 	0.29090 0.34101 0.92730 -0.42600
O 	O 	0.34320 0.06943 0.09330 -0.19400
O 	O 	0.68440 0.37310 0.32430 -0.23500
C 	C 	0.39300 0.30280 0.25770 0.06400
H 	H 	0.34200 0.28980 0.23410 0.04600
C 	C 	0.30020 0.55910 0.92690 -0.14000
C 	C 	0.53980 0.18000 0.26840 -0.12600
C 	C 	0.59250 0.19540 0.22390 0.06000
H 	H 	0.64450 0.20590 0.24780 0.04700
C 	C 	0.56520 0.19440 0.14390 -0.09600
C 	C 	0.36990 0.27990 0.38570 0.34400
C 	C 	0.21860 0.56150 0.90240 0.08800
H 	H 	0.19310 0.59900 0.89490 0.03400
C 	C 	0.51790 0.34410 0.24950 0.05600
H 	H 	0.55140 0.35690 0.22060 0.05000
C 	C 	0.41990 0.30390 0.33690 -0.10700
C 	C 	0.43910 0.15750 0.15280 -0.09900
C 	C 	0.48840 0.17420 0.10710 0.03700
H 	H 	0.47090 0.17200 0.05370 0.04500
C 	C 	0.33740 0.50410 0.93590 0.08700
H 	H 	0.39220 0.50310 0.95170 0.04300
N 	N 	0.79130 0.24770 0.49080 -0.24200
C 	C 	0.21280 0.45090 0.89730 0.07100
H 	H 	0.18340 0.41510 0.88640 0.04100
C 	C 	0.61680 0.21620 0.09530 0.34800
C 	C 	0.54170 0.34720 0.33030 -0.10300
N 	N 	0.19080 0.24160 0.48430 -0.23900
C 	C 	0.44230 0.32110 0.21330 -0.11700
C 	C 	0.88890 0.25610 0.42190 -0.13200
H 	H 	0.90070 0.26330 0.37540 0.09600
C 	C 	0.49270 0.32630 0.37340 0.04600
H 	H 	0.50940 0.32750 0.42690 0.03800
C 	C 	0.92850 0.22610 0.55320 -0.12700
H 	H 	0.96670 0.21280 0.59650 0.09700
C 	C 	0.33640 0.38870 0.93630 0.38600
C 	C 	0.42040 0.31200 0.12750 0.40700
C 	C 	0.46320 0.16080 0.23270 0.06200
H 	H 	0.42890 0.15030 0.26180 0.04700
C 	C 	0.03430 0.24070 0.48610 0.07100
C 	C 	0.56440 0.18930 0.35290 0.41700
C 	C 	0.17600 0.50890 0.88940 -0.12900
C 	C 	0.34520 0.61750 0.94940 0.41700
C 	C 	0.81330 0.26030 0.42700 0.09900
H 	H 	0.77470 0.27270 0.38350 0.01600
C 	C 	0.94850 0.24080 0.48780 0.07400
C 	C 	0.17050 0.25240 0.54950 0.08400
H 	H 	0.20990 0.25980 0.59450 0.02000
C 	C 	0.05500 0.22830 0.41880 -0.12100
H 	H 	0.01620 0.21950 0.37370 0.09100
C 	C 	0.84920 0.23140 0.55450 0.08200
H 	H 	0.83600 0.22360 0.60020 0.01800
C 	C 	0.09030 0.25280 0.55160 -0.12000
H 	H 	0.07700 0.26120 0.59700 0.09300
C 	C 	0.13400 0.22900 0.41900 0.08700
H 	H 	0.14790 0.22080 0.37380 0.01700
O 	O 	0.04210 0.45350 0.87960 -0.25800
O 	O 	0.05050 0.52450 0.77870 -0.25200
O 	O 	0.04450 0.56080 0.90050 -0.46800
H 	H 	0.05680 0.55160 0.94620 0.28300
