data_crystal

_cell_length_a 16.27120
_cell_length_b 16.27120
_cell_length_c 17.27720
_cell_angle_alpha 90.00000
_cell_angle_beta  90.00000
_cell_angle_gamma 120.00000

_symmetry_space_group_name_	'P 1'
_symmetry_space_group_name_H-M	'P 1'

loop_
_symmetry_equiv_pos_as_xyz
  x,y,z

loop_
_atom_site_label
_atom_site_type_symbol
_atom_site_fract_x
_atom_site_fract_y
_atom_site_fract_z
_atom_site_charge
Co	Co	0.94408 0.59801 0.79344 1.18500
Co	Co	0.96506 0.72431 0.95064 1.11600
O 	O 	0.82890 0.61230 0.77680 -0.42400
O 	O 	0.87630 0.72690 0.86370 -0.46700
O 	O 	0.72040 0.91870 0.88310 -0.48000
O 	O 	0.67230 0.94630 0.77030 -0.45200
O 	O 	0.74500 0.80240 0.54840 -0.28000
O 	O 	0.63930 0.84750 0.51450 -0.41700
O 	O 	0.40190 0.53920 0.36050 -0.35000
O 	O 	0.36900 0.40540 0.41320 -0.51900
O 	O 	0.46360 0.40160 0.69100 -0.38600
O 	O 	0.46010 0.51530 0.75570 -0.31800
C 	C 	0.75350 0.70520 0.77830 -0.11100
C 	C 	0.75330 0.78230 0.81140 0.05300
H 	H 	0.79170 0.81290 0.85380 0.02400
C 	C 	0.69390 0.81410 0.77960 -0.11500
C 	C 	0.63720 0.76870 0.71670 0.01900
H 	H 	0.60020 0.79140 0.69480 0.05000
C 	C 	0.63540 0.68800 0.68580 -0.02500
C 	C 	0.69350 0.65790 0.71700 0.01700
H 	H 	0.69250 0.60460 0.69640 0.05400
C 	C 	0.82420 0.67920 0.80930 0.38500
C 	C 	0.69650 0.90050 0.81380 0.40700
C 	C 	0.57160 0.63870 0.61780 0.10500
C 	C 	0.58190 0.68790 0.54990 -0.13000
C 	C 	0.52370 0.64230 0.48480 0.07600
H 	H 	0.52980 0.67680 0.44020 0.03500
C 	C 	0.45780 0.54600 0.48770 -0.13700
C 	C 	0.44780 0.49590 0.55650 0.08400
H 	H 	0.40530 0.43100 0.55840 0.00800
C 	C 	0.50080 0.54220 0.62190 -0.12500
C 	C 	0.66070 0.78650 0.53790 0.33800
C 	C 	0.40540 0.49500 0.41760 0.36700
C 	C 	0.47540 0.48550 0.69560 0.33200
Co	Co	0.40199 0.34607 0.79344 1.18500
Co	Co	0.27569 0.24075 0.95064 1.11500
O 	O 	0.38770 0.21660 0.77680 -0.42400
O 	O 	0.27310 0.14940 0.86370 -0.46700
O 	O 	0.08130 0.80170 0.88310 -0.47900
O 	O 	0.05370 0.72600 0.77030 -0.45200
O 	O 	0.19760 0.94260 0.54840 -0.27900
O 	O 	0.15250 0.79180 0.51450 -0.41700
O 	O 	0.46080 0.86270 0.36050 -0.35000
O 	O 	0.59460 0.96360 0.41320 -0.51900
O 	O 	0.59840 0.06200 0.69100 -0.38900
O 	O 	0.48470 0.94480 0.75570 -0.31700
C 	C 	0.29480 0.04830 0.77830 -0.11400
C 	C 	0.21770 0.97100 0.81140 0.05800
H 	H 	0.18710 0.97880 0.85380 0.02400
C 	C 	0.18590 0.87980 0.77960 -0.11600
C 	C 	0.23130 0.86850 0.71670 0.01900
H 	H 	0.20860 0.80880 0.69480 0.05000
C 	C 	0.31200 0.94740 0.68580 -0.02200
C 	C 	0.34210 0.03560 0.71700 0.01500
H 	H 	0.39540 0.08790 0.69640 0.05400
C 	C 	0.32080 0.14500 0.80930 0.38600
C 	C 	0.09950 0.79600 0.81380 0.40700
C 	C 	0.36130 0.93290 0.61780 0.10500
C 	C 	0.31210 0.89400 0.54990 -0.12900
C 	C 	0.35770 0.88140 0.48480 0.07600
H 	H 	0.32320 0.85300 0.44020 0.03500
C 	C 	0.45400 0.91180 0.48770 -0.13600
C 	C 	0.50410 0.95190 0.55650 0.08400
H 	H 	0.56900 0.97430 0.55840 0.00900
C 	C 	0.45780 0.95860 0.62190 -0.12500
C 	C 	0.21350 0.87420 0.53790 0.33800
C 	C 	0.50500 0.91040 0.41760 0.36700
C 	C 	0.51450 0.98990 0.69560 0.33500
Co	Co	0.65393 0.05592 0.79344 1.18400
Co	Co	0.75925 0.03494 0.95064 1.11400
O 	O 	0.78340 0.17110 0.77680 -0.42400
O 	O 	0.85060 0.12370 0.86370 -0.46800
O 	O 	0.19830 0.27960 0.88310 -0.48200
O 	O 	0.27400 0.32770 0.77030 -0.45400
O 	O 	0.05740 0.25500 0.54840 -0.28000
O 	O 	0.20820 0.36070 0.51450 -0.41800
O 	O 	0.13730 0.59810 0.36050 -0.35000
O 	O 	0.03640 0.63100 0.41320 -0.52000
O 	O 	0.93800 0.53640 0.69100 -0.38800
O 	O 	0.05520 0.53990 0.75570 -0.31700
C 	C 	0.95170 0.24650 0.77830 -0.11400
C 	C 	0.02900 0.24670 0.81140 0.05700
H 	H 	0.02120 0.20830 0.85380 0.02300
C 	C 	0.12020 0.30610 0.77960 -0.11700
C 	C 	0.13150 0.36280 0.71670 0.01900
H 	H 	0.19120 0.39980 0.69480 0.05000
C 	C 	0.05260 0.36460 0.68580 -0.02300
C 	C 	0.96440 0.30650 0.71700 0.01600
H 	H 	0.91210 0.30750 0.69640 0.05400
C 	C 	0.85500 0.17580 0.80930 0.38600
C 	C 	0.20400 0.30350 0.81380 0.40700
C 	C 	0.06710 0.42840 0.61780 0.10500
C 	C 	0.10600 0.41810 0.54990 -0.13000
C 	C 	0.11860 0.47630 0.48480 0.07700
H 	H 	0.14700 0.47020 0.44020 0.03500
C 	C 	0.08820 0.54220 0.48770 -0.13700
C 	C 	0.04810 0.55220 0.55650 0.08400
H 	H 	0.02570 0.59470 0.55840 0.00900
C 	C 	0.04140 0.49920 0.62190 -0.12600
C 	C 	0.12580 0.33930 0.53790 0.33800
C 	C 	0.08960 0.59460 0.41760 0.36700
C 	C 	0.01010 0.52460 0.69560 0.33400
Co	Co	0.59801 0.94408 0.29344 1.18600
Co	Co	0.72431 0.96506 0.45064 1.14000
O 	O 	0.61230 0.82890 0.27680 -0.41700
O 	O 	0.72690 0.87630 0.36370 -0.45000
O 	O 	0.91870 0.72040 0.38310 -0.46500
O 	O 	0.94630 0.67230 0.27030 -0.44800
O 	O 	0.80240 0.74500 0.04840 -0.24800
O 	O 	0.84750 0.63930 0.01450 -0.36900
O 	O 	0.53920 0.40190 0.86050 -0.35900
O 	O 	0.40540 0.36900 0.91320 -0.54200
O 	O 	0.40160 0.46360 0.19100 -0.38000
O 	O 	0.51530 0.46010 0.25570 -0.31300
C 	C 	0.70520 0.75350 0.27830 -0.09600
C 	C 	0.78230 0.75330 0.31140 0.04400
H 	H 	0.81290 0.79170 0.35380 0.03800
C 	C 	0.81410 0.69390 0.27960 -0.10100
C 	C 	0.76870 0.63720 0.21670 0.00900
H 	H 	0.79140 0.60020 0.19480 0.05700
C 	C 	0.68800 0.63540 0.18580 -0.00900
C 	C 	0.65790 0.69350 0.21700 0.00700
H 	H 	0.60460 0.69250 0.19640 0.06300
C 	C 	0.67920 0.82420 0.30930 0.38200
C 	C 	0.90050 0.69650 0.31380 0.40300
C 	C 	0.63870 0.57160 0.11780 0.09100
C 	C 	0.68790 0.58190 0.04990 -0.04200
C 	C 	0.64230 0.52370 0.98480 -0.00900
H 	H 	0.67680 0.52980 0.94020 0.04900
C 	C 	0.54600 0.45780 0.98770 -0.20700
C 	C 	0.49590 0.44780 0.05650 0.18200
H 	H 	0.43100 0.40530 0.05840 -0.00600
C 	C 	0.54220 0.50080 0.12190 -0.13600
C 	C 	0.78650 0.66070 0.03790 0.31600
C 	C 	0.49500 0.40540 0.91760 0.37700
C 	C 	0.48550 0.47540 0.19560 0.33600
Co	Co	0.34607 0.40199 0.29344 1.18600
Co	Co	0.24075 0.27569 0.45064 1.13900
O 	O 	0.21660 0.38770 0.27680 -0.41700
O 	O 	0.14940 0.27310 0.36370 -0.45000
O 	O 	0.80170 0.08130 0.38310 -0.46600
O 	O 	0.72600 0.05370 0.27030 -0.44800
O 	O 	0.94260 0.19760 0.04840 -0.24600
O 	O 	0.79180 0.15250 0.01450 -0.36700
O 	O 	0.86270 0.46080 0.86050 -0.35900
O 	O 	0.96360 0.59460 0.91320 -0.54300
O 	O 	0.06200 0.59840 0.19100 -0.38200
O 	O 	0.94480 0.48470 0.25570 -0.31300
C 	C 	0.04830 0.29480 0.27830 -0.09600
C 	C 	0.97100 0.21770 0.31140 0.04500
H 	H 	0.97880 0.18710 0.35380 0.03700
C 	C 	0.87980 0.18590 0.27960 -0.10100
C 	C 	0.86850 0.23130 0.21670 0.00800
H 	H 	0.80880 0.20860 0.19480 0.05700
C 	C 	0.94740 0.31200 0.18580 -0.00700
C 	C 	0.03560 0.34210 0.21700 0.00400
H 	H 	0.08790 0.39540 0.19640 0.06400
C 	C 	0.14500 0.32080 0.30930 0.38200
C 	C 	0.79600 0.09950 0.31380 0.40300
C 	C 	0.93290 0.36130 0.11780 0.09000
C 	C 	0.89400 0.31210 0.04990 -0.03900
C 	C 	0.88140 0.35770 0.98480 -0.01300
H 	H 	0.85300 0.32320 0.94020 0.05000
C 	C 	0.91180 0.45400 0.98770 -0.20800
C 	C 	0.95190 0.50410 0.05650 0.18500
H 	H 	0.97430 0.56900 0.05840 -0.00600
C 	C 	0.95860 0.45780 0.12190 -0.13600
C 	C 	0.87420 0.21350 0.03790 0.31500
C 	C 	0.91040 0.50500 0.91760 0.37800
C 	C 	0.98990 0.51450 0.19560 0.33800
Co	Co	0.05592 0.65393 0.29344 1.18600
Co	Co	0.03494 0.75925 0.45064 1.14000
O 	O 	0.17110 0.78340 0.27680 -0.41700
O 	O 	0.12370 0.85060 0.36370 -0.45000
O 	O 	0.27960 0.19830 0.38310 -0.46500
O 	O 	0.32770 0.27400 0.27030 -0.44800
O 	O 	0.25500 0.05740 0.04840 -0.24800
O 	O 	0.36070 0.20820 0.01450 -0.36900
O 	O 	0.59810 0.13730 0.86050 -0.36000
O 	O 	0.63100 0.03640 0.91320 -0.54400
O 	O 	0.53640 0.93800 0.19100 -0.38100
O 	O 	0.53990 0.05520 0.25570 -0.31300
C 	C 	0.24650 0.95170 0.27830 -0.09600
C 	C 	0.24670 0.02900 0.31140 0.04400
H 	H 	0.20830 0.02120 0.35380 0.03700
C 	C 	0.30610 0.12020 0.27960 -0.10100
C 	C 	0.36280 0.13150 0.21670 0.00800
H 	H 	0.39980 0.19120 0.19480 0.05700
C 	C 	0.36460 0.05260 0.18580 -0.00800
C 	C 	0.30650 0.96440 0.21700 0.00400
H 	H 	0.30750 0.91210 0.19640 0.06300
C 	C 	0.17580 0.85500 0.30930 0.38100
C 	C 	0.30350 0.20400 0.31380 0.40300
C 	C 	0.42840 0.06710 0.11780 0.09100
C 	C 	0.41810 0.10600 0.04990 -0.04100
C 	C 	0.47630 0.11860 0.98480 -0.01000
H 	H 	0.47020 0.14700 0.94020 0.04900
C 	C 	0.54220 0.08820 0.98770 -0.21000
C 	C 	0.55220 0.04810 0.05650 0.18500
H 	H 	0.59470 0.02570 0.05840 -0.00600
C 	C 	0.49920 0.04140 0.12190 -0.13700
C 	C 	0.33930 0.12580 0.03790 0.31600
C 	C 	0.59460 0.08960 0.91760 0.37800
C 	C 	0.52460 0.01010 0.19560 0.33800
