data_crystal

_cell_length_a 12.50800
_cell_length_b 12.75400
_cell_length_c 15.26500
_cell_angle_alpha 90.00000
_cell_angle_beta  104.78200
_cell_angle_gamma 90.00000

_symmetry_space_group_name_	'P 1'
_symmetry_space_group_name_H-M	'P 1'

loop_
_symmetry_equiv_pos_as_xyz
  x,y,z

loop_
_atom_site_label
_atom_site_type_symbol
_atom_site_fract_x
_atom_site_fract_y
_atom_site_fract_z
_atom_site_charge
Cd	Cd	0.22658 0.22560 0.08202 1.15400
C 	C 	0.49160 0.24840 0.17009 0.07100
H 	H 	0.47920 0.31430 0.19170 -0.02600
C 	C 	0.46650 0.09550 0.11250 -0.01000
H 	H 	0.43220 0.03450 0.08580 -0.00100
C 	C 	0.57720 0.11180 0.13760 -0.01600
H 	H 	0.63190 0.06520 0.13130 0.01500
C 	C 	0.69610 0.26540 0.21321 -0.14700
H 	H 	0.68480 0.31110 0.26090 0.07800
H 	H 	0.75180 0.21430 0.24120 0.07000
C 	C 	0.76890 0.25830 0.07336 -0.13700
H 	H 	0.70660 0.25910 0.02030 0.07500
H 	H 	0.77590 0.18730 0.09710 0.06500
C 	C 	0.96740 0.23550 0.07653 0.06500
H 	H 	0.97990 0.18210 0.11940 -0.02600
C 	C 	0.88500 0.35750 0.98300 -0.02600
H 	H 	0.83230 0.40320 0.94950 0.03900
C 	C 	0.99200 0.35000 0.98110 0.00100
H 	H 	0.02570 0.39100 0.94530 -0.00100
C 	C 	0.85560 0.47200 0.42490 0.01000
H 	H 	0.86720 0.46530 0.48730 -0.00600
C 	C 	0.87080 0.39550 0.36910 -0.03500
H 	H 	0.89480 0.32760 0.38550 0.03400
C 	C 	0.81590 0.53650 0.29240 0.07500
H 	H 	0.79520 0.58300 0.24410 -0.03900
C 	C 	0.85140 0.38230 0.20021 -0.14100
H 	H 	0.87590 0.43220 0.16150 0.07600
H 	H 	0.90710 0.32780 0.21600 0.06400
C 	C 	0.74200 0.33230 0.14597 0.11100
C 	C 	0.65240 0.41390 0.10440 -0.13700
H 	H 	0.64520 0.46150 0.15210 0.07100
H 	H 	0.58240 0.37740 0.08360 0.07400
C 	C 	0.72420 0.56760 0.03210 0.08100
H 	H 	0.76020 0.60090 0.08580 -0.03700
C 	C 	0.66000 0.53240 0.89190 -0.00200
H 	H 	0.64390 0.53710 0.82900 -0.00200
C 	C 	0.62790 0.45370 0.93820 -0.01700
H 	H 	0.58550 0.39570 0.91410 0.02800
N 	N 	0.41240 0.18270 0.13261 -0.25500
N 	N 	0.59255 0.20980 0.17368 -0.10800
N 	N 	0.04379 0.27340 0.03925 -0.26000
N 	N 	0.86946 0.28390 0.04481 -0.10300
N 	N 	0.82070 0.56130 0.37665 -0.26000
N 	N 	0.84436 0.43630 0.28370 -0.10800
N 	N 	0.72040 0.60510 0.95138 -0.25300
N 	N 	0.67057 0.47650 0.02889 -0.10600
Cd	Cd	0.77342 0.72560 0.41798 1.15400
C 	C 	0.50840 0.74840 0.32991 0.07100
H 	H 	0.52080 0.81430 0.30830 -0.02600
C 	C 	0.53350 0.59550 0.38750 -0.01000
H 	H 	0.56780 0.53450 0.41420 -0.00000
C 	C 	0.42280 0.61180 0.36240 -0.01600
H 	H 	0.36810 0.56520 0.36870 0.01500
C 	C 	0.30390 0.76540 0.28679 -0.14700
H 	H 	0.31520 0.81110 0.23910 0.07800
H 	H 	0.24820 0.71430 0.25880 0.07000
C 	C 	0.23110 0.75830 0.42664 -0.13700
H 	H 	0.29340 0.75910 0.47970 0.07500
H 	H 	0.22410 0.68730 0.40290 0.06500
C 	C 	0.03260 0.73550 0.42347 0.06400
H 	H 	0.02010 0.68210 0.38060 -0.02600
C 	C 	0.11500 0.85750 0.51700 -0.02700
H 	H 	0.16770 0.90320 0.55050 0.04000
C 	C 	0.00800 0.85000 0.51890 0.00400
H 	H 	0.97430 0.89100 0.55470 -0.00200
C 	C 	0.14440 0.97200 0.07510 0.01100
H 	H 	0.13280 0.96530 0.01270 -0.00600
C 	C 	0.12920 0.89550 0.13090 -0.03500
H 	H 	0.10520 0.82760 0.11450 0.03500
C 	C 	0.18410 0.03650 0.20760 0.07400
H 	H 	0.20480 0.08300 0.25590 -0.03800
C 	C 	0.14860 0.88230 0.29979 -0.14100
H 	H 	0.12410 0.93220 0.33850 0.07600
H 	H 	0.09290 0.82780 0.28400 0.06400
C 	C 	0.25800 0.83230 0.35403 0.11100
C 	C 	0.34760 0.91390 0.39560 -0.13700
H 	H 	0.35480 0.96150 0.34790 0.07100
H 	H 	0.41760 0.87740 0.41640 0.07400
C 	C 	0.27580 0.06760 0.46790 0.08000
H 	H 	0.23980 0.10090 0.41420 -0.03700
C 	C 	0.34000 0.03240 0.60810 -0.00300
H 	H 	0.35610 0.03710 0.67100 -0.00200
C 	C 	0.37210 0.95370 0.56180 -0.01600
H 	H 	0.41450 0.89570 0.58590 0.02800
N 	N 	0.58760 0.68270 0.36739 -0.25500
N 	N 	0.40745 0.70980 0.32632 -0.10800
N 	N 	0.95621 0.77340 0.46075 -0.26000
N 	N 	0.13054 0.78390 0.45519 -0.10300
N 	N 	0.17930 0.06130 0.12335 -0.26000
N 	N 	0.15564 0.93630 0.21630 -0.10700
N 	N 	0.27960 0.10510 0.54862 -0.25300
N 	N 	0.32943 0.97650 0.47111 -0.10600
Cd	Cd	0.77342 0.77441 0.91798 1.15400
C 	C 	0.50840 0.75160 0.82991 0.07100
H 	H 	0.52080 0.68570 0.80830 -0.02600
C 	C 	0.53350 0.90450 0.88750 -0.01000
H 	H 	0.56780 0.96550 0.91420 -0.00100
C 	C 	0.42280 0.88820 0.86240 -0.01600
H 	H 	0.36810 0.93480 0.86870 0.01500
C 	C 	0.30390 0.73460 0.78679 -0.14700
H 	H 	0.31520 0.68890 0.73910 0.07800
H 	H 	0.24820 0.78570 0.75880 0.07000
C 	C 	0.23110 0.74170 0.92664 -0.13700
H 	H 	0.29340 0.74090 0.97970 0.07500
H 	H 	0.22410 0.81270 0.90290 0.06500
C 	C 	0.03260 0.76450 0.92347 0.06500
H 	H 	0.02010 0.81790 0.88060 -0.02600
C 	C 	0.11500 0.64250 0.01700 -0.02600
H 	H 	0.16770 0.59680 0.05050 0.03900
C 	C 	0.00800 0.65000 0.01890 0.00100
H 	H 	0.97430 0.60900 0.05470 -0.00100
C 	C 	0.14440 0.52800 0.57510 0.01000
H 	H 	0.13280 0.53470 0.51270 -0.00600
C 	C 	0.12920 0.60450 0.63090 -0.03500
H 	H 	0.10520 0.67240 0.61450 0.03400
C 	C 	0.18410 0.46350 0.70760 0.07500
H 	H 	0.20480 0.41700 0.75590 -0.03900
C 	C 	0.14860 0.61770 0.79979 -0.14100
H 	H 	0.12410 0.56780 0.83850 0.07600
H 	H 	0.09290 0.67220 0.78400 0.06400
C 	C 	0.25800 0.66770 0.85403 0.11100
C 	C 	0.34760 0.58610 0.89560 -0.13700
H 	H 	0.35480 0.53850 0.84790 0.07100
H 	H 	0.41760 0.62260 0.91640 0.07400
C 	C 	0.27580 0.43240 0.96790 0.08100
H 	H 	0.23980 0.39910 0.91420 -0.03700
C 	C 	0.34000 0.46760 0.10810 -0.00200
H 	H 	0.35610 0.46290 0.17100 -0.00200
C 	C 	0.37210 0.54630 0.06180 -0.01700
H 	H 	0.41450 0.60430 0.08590 0.02800
N 	N 	0.58760 0.81730 0.86739 -0.25500
N 	N 	0.40745 0.79020 0.82632 -0.10800
N 	N 	0.95621 0.72660 0.96075 -0.26000
N 	N 	0.13054 0.71610 0.95519 -0.10300
N 	N 	0.17930 0.43870 0.62335 -0.26000
N 	N 	0.15564 0.56370 0.71630 -0.10800
N 	N 	0.27960 0.39490 0.04862 -0.25300
N 	N 	0.32943 0.52350 0.97111 -0.10600
Cd	Cd	0.22658 0.27441 0.58202 1.15400
C 	C 	0.49160 0.25160 0.67009 0.07100
H 	H 	0.47920 0.18570 0.69170 -0.02600
C 	C 	0.46650 0.40450 0.61250 -0.01000
H 	H 	0.43220 0.46550 0.58580 -0.00000
C 	C 	0.57720 0.38820 0.63760 -0.01600
H 	H 	0.63190 0.43480 0.63130 0.01500
C 	C 	0.69610 0.23460 0.71321 -0.14700
H 	H 	0.68480 0.18890 0.76090 0.07800
H 	H 	0.75180 0.28570 0.74120 0.07000
C 	C 	0.76890 0.24170 0.57336 -0.13700
H 	H 	0.70660 0.24090 0.52030 0.07500
H 	H 	0.77590 0.31270 0.59710 0.06500
C 	C 	0.96740 0.26450 0.57653 0.06400
H 	H 	0.97990 0.31790 0.61940 -0.02600
C 	C 	0.88500 0.14250 0.48300 -0.02700
H 	H 	0.83230 0.09680 0.44950 0.04000
C 	C 	0.99200 0.15000 0.48110 0.00400
H 	H 	0.02570 0.10900 0.44530 -0.00200
C 	C 	0.85560 0.02800 0.92490 0.01100
H 	H 	0.86720 0.03470 0.98730 -0.00600
C 	C 	0.87080 0.10450 0.86910 -0.03500
H 	H 	0.89480 0.17240 0.88550 0.03500
C 	C 	0.81590 0.96350 0.79240 0.07400
H 	H 	0.79520 0.91700 0.74410 -0.03800
C 	C 	0.85140 0.11770 0.70021 -0.14100
H 	H 	0.87590 0.06780 0.66150 0.07600
H 	H 	0.90710 0.17220 0.71600 0.06400
C 	C 	0.74200 0.16770 0.64597 0.11100
C 	C 	0.65240 0.08610 0.60440 -0.13700
H 	H 	0.64520 0.03850 0.65210 0.07100
H 	H 	0.58240 0.12260 0.58360 0.07400
C 	C 	0.72420 0.93240 0.53210 0.08000
H 	H 	0.76020 0.89910 0.58580 -0.03700
C 	C 	0.66000 0.96760 0.39190 -0.00300
H 	H 	0.64390 0.96290 0.32900 -0.00200
C 	C 	0.62790 0.04630 0.43820 -0.01600
H 	H 	0.58550 0.10430 0.41410 0.02800
N 	N 	0.41240 0.31730 0.63261 -0.25500
N 	N 	0.59255 0.29020 0.67368 -0.10800
N 	N 	0.04379 0.22660 0.53925 -0.26000
N 	N 	0.86946 0.21610 0.54481 -0.10300
N 	N 	0.82070 0.93870 0.87665 -0.26000
N 	N 	0.84436 0.06370 0.78370 -0.10700
N 	N 	0.72040 0.89490 0.45138 -0.25300
N 	N 	0.67057 0.02350 0.52889 -0.10600
