data_crystal

_cell_length_a 10.22680
_cell_length_b 23.71260
_cell_length_c 17.42810
_cell_angle_alpha 90.00000
_cell_angle_beta  105.80300
_cell_angle_gamma 90.00000

_symmetry_space_group_name_	'P 1'
_symmetry_space_group_name_H-M	'P 1'

loop_
_symmetry_equiv_pos_as_xyz
  x,y,z

loop_
_atom_site_label
_atom_site_type_symbol
_atom_site_fract_x
_atom_site_fract_y
_atom_site_fract_z
_atom_site_charge
Cd	Cd	0.11373 0.87778 0.17278 1.22500
C 	C 	0.11360 0.11450 0.25890 -0.10100
C 	C 	0.99660 0.05310 0.10870 0.07100
C 	C 	0.99220 0.99720 0.09680 0.01500
C 	C 	0.12040 0.01030 0.21920 0.08500
C 	C 	0.00980 0.14880 0.22970 -0.58900
C 	C 	0.93040 0.18510 0.19430 0.32800
C 	C 	0.80860 0.27090 0.19080 0.10400
C 	C 	0.67150 0.19550 0.17270 -0.00300
C 	C 	0.59310 0.24200 0.16910 0.09600
C 	C 	0.50990 0.96099 0.87850 0.32000
C 	C 	0.52820 0.93119 0.95630 -0.10500
C 	C 	0.42190 0.92628 0.99230 0.06100
H 	H 	0.33470 0.93760 0.96470 0.03700
C 	C 	0.44570 0.90474 0.06860 -0.13800
C 	C 	0.33180 0.90016 0.10710 0.33300
C 	C 	0.57490 0.88707 0.11000 0.04500
H 	H 	0.59100 0.87350 0.16180 0.01100
C 	C 	0.68080 0.88962 0.07370 -0.11200
C 	C 	0.65640 0.91197 0.99770 0.04800
H 	H 	0.72720 0.91410 0.97380 0.04800
C 	C 	0.82380 0.87300 0.11870 0.33900
N 	N 	0.07690 0.06390 0.20440 -0.11600
N 	N 	0.07710 0.97330 0.17790 -0.08900
N 	N 	0.66950 0.29090 0.18630 -0.24400
N 	N 	0.80610 0.21560 0.19480 -0.11400
O 	O 	0.61190 0.96631 0.85206 -0.37600
O 	O 	0.39660 0.98077 0.84226 -0.37600
O 	O 	0.21530 0.88998 0.06463 -0.36300
O 	O 	0.35900 0.90439 0.18291 -0.48400
O 	O 	0.90770 0.86452 0.07920 -0.38400
O 	O 	0.84700 0.86070 0.19230 -0.67700
C 	C 	0.37510 0.38880 0.78580 0.16400
C 	C 	0.53880 0.31220 0.84600 -0.08100
C 	C 	0.79600 0.29890 0.89200 0.09100
C 	C 	0.87770 0.25700 0.88520 -0.06500
N 	N 	0.41920 0.44030 0.83120 -0.08100
N 	N 	0.43520 0.53200 0.84590 -0.14000
N 	N 	0.80750 0.21510 0.83820 0.01600
N 	N 	0.66710 0.28160 0.84930 -0.09600
O 	O 	0.13600 0.11920 0.80760 0.21200
Cd	Cd	0.61373 0.37778 0.17278 1.22300
C 	C 	0.61360 0.61450 0.25890 -0.07600
C 	C 	0.49660 0.55310 0.10870 0.07100
C 	C 	0.49220 0.49720 0.09680 0.01800
C 	C 	0.62040 0.51030 0.21920 0.08300
C 	C 	0.50980 0.64880 0.22970 -0.04300
C 	C 	0.43040 0.68510 0.19430 0.17700
C 	C 	0.30860 0.77090 0.19080 0.10000
C 	C 	0.17150 0.69550 0.17270 -0.00300
C 	C 	0.09310 0.74200 0.16910 0.09600
C 	C 	0.00990 0.46099 0.87850 0.32200
C 	C 	0.02820 0.43119 0.95630 -0.10000
C 	C 	0.92190 0.42628 0.99230 0.05200
H 	H 	0.83470 0.43760 0.96470 0.04000
C 	C 	0.94570 0.40474 0.06860 -0.13300
C 	C 	0.83180 0.40016 0.10710 0.33200
C 	C 	0.07490 0.38707 0.11000 0.04300
H 	H 	0.09100 0.37350 0.16180 0.01200
C 	C 	0.18080 0.38962 0.07370 -0.10700
C 	C 	0.15640 0.41197 0.99770 0.04400
H 	H 	0.22720 0.41410 0.97380 0.04900
C 	C 	0.32380 0.37300 0.11870 0.33800
N 	N 	0.57690 0.56390 0.20440 -0.07900
N 	N 	0.57710 0.47330 0.17790 -0.10100
N 	N 	0.16950 0.79090 0.18630 -0.24100
N 	N 	0.30610 0.71560 0.19480 -0.09600
O 	O 	0.11190 0.46631 0.85206 -0.37900
O 	O 	0.89660 0.48077 0.84226 -0.37500
O 	O 	0.71530 0.38998 0.06463 -0.36200
O 	O 	0.85900 0.40439 0.18291 -0.48400
O 	O 	0.40770 0.36452 0.07920 -0.38100
O 	O 	0.34700 0.36070 0.19230 -0.67600
C 	C 	0.87510 0.88880 0.78580 -0.03600
C 	C 	0.03880 0.81220 0.84600 -0.07600
C 	C 	0.29600 0.79890 0.89200 0.08300
C 	C 	0.37770 0.75700 0.88520 -0.06200
N 	N 	0.91920 0.94030 0.83120 -0.09800
N 	N 	0.93520 0.03200 0.84590 -0.13400
N 	N 	0.30750 0.71510 0.83820 0.01500
N 	N 	0.16710 0.78160 0.84930 -0.06400
O 	O 	0.63600 0.61920 0.80760 0.20800
Cd	Cd	0.88627 0.87778 0.32722 1.22200
C 	C 	0.88640 0.11450 0.24110 -0.05200
C 	C 	0.00340 0.05310 0.39130 0.07500
C 	C 	0.00780 0.99720 0.40320 0.02000
C 	C 	0.87960 0.01030 0.28080 0.08200
C 	C 	0.99020 0.14880 0.27030 0.50500
C 	C 	0.06960 0.18510 0.30570 0.02300
C 	C 	0.19140 0.27090 0.30920 0.09700
C 	C 	0.32850 0.19550 0.32730 -0.00300
C 	C 	0.40690 0.24200 0.33090 0.09300
C 	C 	0.49010 0.96099 0.62150 0.32100
C 	C 	0.47180 0.93119 0.54370 -0.10400
C 	C 	0.57810 0.92628 0.50770 0.05700
H 	H 	0.66530 0.93760 0.53530 0.04000
C 	C 	0.55430 0.90474 0.43140 -0.13400
C 	C 	0.66820 0.90016 0.39290 0.33200
C 	C 	0.42510 0.88707 0.39000 0.04200
H 	H 	0.40900 0.87350 0.33820 0.01100
C 	C 	0.31920 0.88962 0.42630 -0.10800
C 	C 	0.34360 0.91197 0.50230 0.04600
H 	H 	0.27280 0.91410 0.52620 0.04800
C 	C 	0.17620 0.87300 0.38130 0.33800
N 	N 	0.92310 0.06390 0.29560 -0.04100
N 	N 	0.92290 0.97330 0.32210 -0.10900
N 	N 	0.33050 0.29090 0.31370 -0.24000
N 	N 	0.19390 0.21560 0.30520 -0.07700
O 	O 	0.38810 0.96631 0.64794 -0.38200
O 	O 	0.60340 0.98077 0.65774 -0.37100
O 	O 	0.78470 0.88998 0.43537 -0.36200
O 	O 	0.64100 0.90439 0.31709 -0.48400
O 	O 	0.09230 0.86452 0.42080 -0.37900
O 	O 	0.15300 0.86070 0.30770 -0.67300
C 	C 	0.62490 0.38880 0.71420 0.16500
C 	C 	0.46120 0.31220 0.65400 -0.08100
C 	C 	0.20400 0.29890 0.60800 0.09200
C 	C 	0.12230 0.25700 0.61480 -0.06500
N 	N 	0.58080 0.44030 0.66880 -0.08100
N 	N 	0.56480 0.53200 0.65410 -0.14000
N 	N 	0.19250 0.21510 0.66180 0.01500
N 	N 	0.33290 0.28160 0.65070 -0.09600
O 	O 	0.86400 0.11920 0.69240 0.21200
Cd	Cd	0.38627 0.37778 0.32722 1.22300
C 	C 	0.38640 0.61450 0.24110 -0.07700
C 	C 	0.50340 0.55310 0.39130 0.07100
C 	C 	0.50780 0.49720 0.40320 0.01800
C 	C 	0.37960 0.51030 0.28080 0.08300
C 	C 	0.49020 0.64880 0.27030 -0.04100
C 	C 	0.56960 0.68510 0.30570 0.17500
C 	C 	0.69140 0.77090 0.30920 0.10000
C 	C 	0.82850 0.69550 0.32730 -0.00300
C 	C 	0.90690 0.74200 0.33090 0.09300
C 	C 	0.99010 0.46099 0.62150 0.31900
C 	C 	0.97180 0.43119 0.54370 -0.10500
C 	C 	0.07810 0.42628 0.50770 0.05900
H 	H 	0.16530 0.43760 0.53530 0.03800
C 	C 	0.05430 0.40474 0.43140 -0.13200
C 	C 	0.16820 0.40016 0.39290 0.33200
C 	C 	0.92510 0.38707 0.39000 0.04000
H 	H 	0.90900 0.37350 0.33820 0.01200
C 	C 	0.81920 0.38962 0.42630 -0.10800
C 	C 	0.84360 0.41197 0.50230 0.04600
H 	H 	0.77280 0.41410 0.52620 0.04800
C 	C 	0.67620 0.37300 0.38130 0.33800
N 	N 	0.42310 0.56390 0.29560 -0.07900
N 	N 	0.42290 0.47330 0.32210 -0.10100
N 	N 	0.83050 0.79090 0.31370 -0.24300
N 	N 	0.69390 0.71560 0.30520 -0.09500
O 	O 	0.88810 0.46631 0.64794 -0.37900
O 	O 	0.10340 0.48077 0.65774 -0.37200
O 	O 	0.28470 0.38998 0.43537 -0.36200
O 	O 	0.14100 0.40439 0.31709 -0.48300
O 	O 	0.59230 0.36452 0.42080 -0.38200
O 	O 	0.65300 0.36070 0.30770 -0.67200
C 	C 	0.12490 0.88880 0.71420 0.36500
C 	C 	0.96120 0.81220 0.65400 -0.08400
C 	C 	0.70400 0.79890 0.60800 0.10100
C 	C 	0.62230 0.75700 0.61480 -0.06800
N 	N 	0.08080 0.94030 0.66880 -0.06500
N 	N 	0.06480 0.03200 0.65410 -0.14900
N 	N 	0.69250 0.71510 0.66180 0.01700
N 	N 	0.83290 0.78160 0.65070 -0.12800
O 	O 	0.36400 0.61920 0.69240 0.21500
Cd	Cd	0.88627 0.12222 0.82722 1.22200
C 	C 	0.88640 0.88550 0.74110 -0.04400
C 	C 	0.00340 0.94690 0.89130 0.07800
C 	C 	0.00780 0.00280 0.90320 0.01700
C 	C 	0.87960 0.98970 0.78080 0.08000
C 	C 	0.99020 0.85120 0.77030 0.67800
C 	C 	0.06960 0.81490 0.80570 -0.02500
C 	C 	0.19140 0.72910 0.80920 0.09500
C 	C 	0.32850 0.80450 0.82730 -0.00300
C 	C 	0.40690 0.75800 0.83090 0.09300
C 	C 	0.49010 0.03901 0.12150 0.32200
C 	C 	0.47180 0.06881 0.04370 -0.10600
C 	C 	0.57810 0.07372 0.00770 0.06100
H 	H 	0.66530 0.06240 0.03530 0.03900
C 	C 	0.55430 0.09526 0.93140 -0.13800
C 	C 	0.66820 0.09984 0.89290 0.33400
C 	C 	0.42510 0.11293 0.89000 0.04500
H 	H 	0.40900 0.12650 0.83820 0.01100
C 	C 	0.31920 0.11038 0.92630 -0.11200
C 	C 	0.34360 0.08803 0.00230 0.04900
H 	H 	0.27280 0.08590 0.02620 0.04700
C 	C 	0.17620 0.12700 0.88130 0.33900
N 	N 	0.92310 0.93610 0.79560 -0.02800
N 	N 	0.92290 0.02670 0.82210 -0.10800
N 	N 	0.33050 0.70910 0.81370 -0.24000
N 	N 	0.19390 0.78440 0.80520 -0.07100
O 	O 	0.38810 0.03369 0.14794 -0.38100
O 	O 	0.60340 0.01923 0.15774 -0.37100
O 	O 	0.78470 0.11002 0.93537 -0.36300
O 	O 	0.64100 0.09561 0.81709 -0.48400
O 	O 	0.09230 0.13548 0.92080 -0.38000
O 	O 	0.15300 0.13930 0.80770 -0.67400
C 	C 	0.62490 0.61120 0.21420 0.16400
C 	C 	0.46120 0.68780 0.15400 -0.08200
C 	C 	0.20400 0.70110 0.10800 0.09200
C 	C 	0.12230 0.74300 0.11480 -0.06500
N 	N 	0.58080 0.55970 0.16880 -0.08100
N 	N 	0.56480 0.46800 0.15410 -0.14000
N 	N 	0.19250 0.78490 0.16180 0.01500
N 	N 	0.33290 0.71840 0.15070 -0.09600
O 	O 	0.86400 0.88080 0.19240 0.21200
Cd	Cd	0.38627 0.62222 0.82722 1.22300
C 	C 	0.38640 0.38550 0.74110 -0.07600
C 	C 	0.50340 0.44690 0.89130 0.07100
C 	C 	0.50780 0.50280 0.90320 0.01800
C 	C 	0.37960 0.48970 0.78080 0.08300
C 	C 	0.49020 0.35120 0.77030 -0.04100
C 	C 	0.56960 0.31490 0.80570 0.17600
C 	C 	0.69140 0.22910 0.80920 0.10000
C 	C 	0.82850 0.30450 0.82730 -0.00300
C 	C 	0.90690 0.25800 0.83090 0.09300
C 	C 	0.99010 0.53901 0.12150 0.31900
C 	C 	0.97180 0.56881 0.04370 -0.10300
C 	C 	0.07810 0.57372 0.00770 0.05600
H 	H 	0.16530 0.56240 0.03530 0.03900
C 	C 	0.05430 0.59526 0.93140 -0.12900
C 	C 	0.16820 0.59984 0.89290 0.33100
C 	C 	0.92510 0.61293 0.89000 0.03700
H 	H 	0.90900 0.62650 0.83820 0.01200
C 	C 	0.81920 0.61038 0.92630 -0.10700
C 	C 	0.84360 0.58803 0.00230 0.04400
H 	H 	0.77280 0.58590 0.02620 0.04900
C 	C 	0.67620 0.62700 0.88130 0.33700
N 	N 	0.42310 0.43610 0.79560 -0.07900
N 	N 	0.42290 0.52670 0.82210 -0.10100
N 	N 	0.83050 0.20910 0.81370 -0.24300
N 	N 	0.69390 0.28440 0.80520 -0.09500
O 	O 	0.88810 0.53369 0.14794 -0.37900
O 	O 	0.10340 0.51923 0.15774 -0.37200
O 	O 	0.28470 0.61002 0.93537 -0.36100
O 	O 	0.14100 0.59561 0.81709 -0.48200
O 	O 	0.59230 0.63548 0.92080 -0.38200
O 	O 	0.65300 0.63930 0.80770 -0.67100
C 	C 	0.12490 0.11120 0.21420 0.31700
C 	C 	0.96120 0.18780 0.15400 -0.08300
C 	C 	0.70400 0.20110 0.10800 0.09900
C 	C 	0.62230 0.24300 0.11480 -0.06700
N 	N 	0.08080 0.05970 0.16880 -0.07000
N 	N 	0.06480 0.96800 0.15410 -0.14900
N 	N 	0.69250 0.28490 0.16180 0.01700
N 	N 	0.83290 0.21840 0.15070 -0.12000
O 	O 	0.36400 0.38080 0.19240 0.21400
Cd	Cd	0.11373 0.12222 0.67278 1.22400
C 	C 	0.11360 0.88550 0.75890 -0.10900
C 	C 	0.99660 0.94690 0.60870 0.06700
C 	C 	0.99220 0.00280 0.59680 0.01800
C 	C 	0.12040 0.98970 0.71920 0.08600
C 	C 	0.00980 0.85120 0.72970 -0.76100
C 	C 	0.93040 0.81490 0.69430 0.37600
C 	C 	0.80860 0.72910 0.69080 0.10500
C 	C 	0.67150 0.80450 0.67270 -0.00300
C 	C 	0.59310 0.75800 0.66910 0.09700
C 	C 	0.50990 0.03901 0.37850 0.32000
C 	C 	0.52820 0.06881 0.45630 -0.10400
C 	C 	0.42190 0.07372 0.49230 0.05800
H 	H 	0.33470 0.06240 0.46470 0.03800
C 	C 	0.44570 0.09526 0.56860 -0.13500
C 	C 	0.33180 0.09984 0.60710 0.33300
C 	C 	0.57490 0.11293 0.61000 0.04300
H 	H 	0.59100 0.12650 0.66180 0.01100
C 	C 	0.68080 0.11038 0.57370 -0.10900
C 	C 	0.65640 0.08803 0.49770 0.04600
H 	H 	0.72720 0.08590 0.47380 0.04900
C 	C 	0.82380 0.12700 0.61870 0.33900
N 	N 	0.07690 0.93610 0.70440 -0.12800
N 	N 	0.07710 0.02670 0.67790 -0.09000
N 	N 	0.66950 0.70910 0.68630 -0.24400
N 	N 	0.80610 0.78440 0.69480 -0.12000
O 	O 	0.61190 0.03369 0.35206 -0.37700
O 	O 	0.39660 0.01923 0.34226 -0.37500
O 	O 	0.21530 0.11002 0.56463 -0.36200
O 	O 	0.35900 0.09561 0.68291 -0.48400
O 	O 	0.90770 0.13548 0.57920 -0.38400
O 	O 	0.84700 0.13930 0.69230 -0.67600
C 	C 	0.37510 0.61120 0.28580 0.16500
C 	C 	0.53880 0.68780 0.34600 -0.08000
C 	C 	0.79600 0.70110 0.39200 0.09200
C 	C 	0.87770 0.74300 0.38520 -0.06500
N 	N 	0.41920 0.55970 0.33120 -0.08100
N 	N 	0.43520 0.46800 0.34590 -0.14000
N 	N 	0.80750 0.78490 0.33820 0.01600
N 	N 	0.66710 0.71840 0.34930 -0.09600
O 	O 	0.13600 0.88080 0.30760 0.21100
Cd	Cd	0.61373 0.62222 0.67278 1.22300
C 	C 	0.61360 0.38550 0.75890 -0.07600
C 	C 	0.49660 0.44690 0.60870 0.07200
C 	C 	0.49220 0.50280 0.59680 0.01800
C 	C 	0.62040 0.48970 0.71920 0.08300
C 	C 	0.50980 0.35120 0.72970 -0.04400
C 	C 	0.43040 0.31490 0.69430 0.17700
C 	C 	0.30860 0.22910 0.69080 0.10000
C 	C 	0.17150 0.30450 0.67270 -0.00300
C 	C 	0.09310 0.25800 0.66910 0.09600
C 	C 	0.00990 0.53901 0.37850 0.32200
C 	C 	0.02820 0.56881 0.45630 -0.10200
C 	C 	0.92190 0.57372 0.49230 0.05600
H 	H 	0.83470 0.56240 0.46470 0.03900
C 	C 	0.94570 0.59526 0.56860 -0.13700
C 	C 	0.83180 0.59984 0.60710 0.33300
C 	C 	0.07490 0.61293 0.61000 0.04600
H 	H 	0.09100 0.62650 0.66180 0.01100
C 	C 	0.18080 0.61038 0.57370 -0.10900
C 	C 	0.15640 0.58803 0.49770 0.04600
H 	H 	0.22720 0.58590 0.47380 0.04800
C 	C 	0.32380 0.62700 0.61870 0.33900
N 	N 	0.57690 0.43610 0.70440 -0.07900
N 	N 	0.57710 0.52670 0.67790 -0.10100
N 	N 	0.16950 0.20910 0.68630 -0.24100
N 	N 	0.30610 0.28440 0.69480 -0.09600
O 	O 	0.11190 0.53369 0.35206 -0.37900
O 	O 	0.89660 0.51923 0.34226 -0.37500
O 	O 	0.71530 0.61002 0.56463 -0.36200
O 	O 	0.85900 0.59561 0.68291 -0.48500
O 	O 	0.40770 0.63548 0.57920 -0.38100
O 	O 	0.34700 0.63930 0.69230 -0.67700
C 	C 	0.87510 0.11120 0.28580 0.01200
C 	C 	0.03880 0.18780 0.34600 -0.07700
C 	C 	0.29600 0.20110 0.39200 0.08500
C 	C 	0.37770 0.24300 0.38520 -0.06200
N 	N 	0.91920 0.05970 0.33120 -0.09400
N 	N 	0.93520 0.96800 0.34590 -0.13400
N 	N 	0.30750 0.28490 0.33820 0.01500
N 	N 	0.16710 0.21840 0.34930 -0.07200
O 	O 	0.63600 0.38080 0.30760 0.20900
Cd	Cd	0.50000 0.02465 0.75000 1.23200
Cd	Cd	0.00000 0.52465 0.75000 1.23300
Cd	Cd	0.50000 0.97535 0.25000 1.23100
Cd	Cd	-0.00000 0.47535 0.25000 1.23200
