data_crystal

_cell_length_a 11.50700
_cell_length_b 20.98800
_cell_length_c 8.82100
_cell_angle_alpha 90.00000
_cell_angle_beta  102.30700
_cell_angle_gamma 90.00000

_symmetry_space_group_name_	'P 1'
_symmetry_space_group_name_H-M	'P 1'

loop_
_symmetry_equiv_pos_as_xyz
  x,y,z

loop_
_atom_site_label
_atom_site_type_symbol
_atom_site_fract_x
_atom_site_fract_y
_atom_site_fract_z
_atom_site_charge
La	La	0.16799 0.26218 0.11443 1.62100
O 	O 	0.05530 0.21901 0.85870 -0.49500
O 	O 	0.94780 0.20690 0.62220 -0.38800
O 	O 	0.38280 0.19970 0.60760 -0.41900
O 	O 	0.29090 0.23452 0.37890 -0.52500
O 	O 	0.10420 0.35419 0.93330 -0.43800
O 	O 	0.06810 0.33934 0.67760 -0.44400
N 	N 	0.74290 0.18700 0.72100 -0.07700
N 	N 	0.59410 0.18490 0.52750 -0.07900
N 	N 	0.00070 0.47120 0.89980 -0.11200
C 	C 	0.95700 0.21090 0.76400 0.40900
C 	C 	0.84700 0.20840 0.83310 -0.28100
H 	H 	0.83150 0.25130 0.87090 0.13000
H 	H 	0.86170 0.17910 0.92310 0.12100
C 	C 	0.71180 0.12380 0.69500 -0.00300
H 	H 	0.74890 0.08800 0.75120 0.03200
C 	C 	0.61800 0.12320 0.57360 0.00200
H 	H 	0.57610 0.08650 0.52840 0.03100
C 	C 	0.67100 0.22140 0.61890 0.07300
H 	H 	0.67390 0.26650 0.61180 0.01400
C 	C 	0.49370 0.20660 0.40770 -0.28200
H 	H 	0.51370 0.24810 0.36630 0.12000
H 	H 	0.47910 0.17550 0.32120 0.10400
C 	C 	0.38220 0.21360 0.47100 0.41100
C 	C 	0.06510 0.36990 0.79840 0.44700
C 	C 	0.01260 0.43620 0.76990 -0.24400
H 	H 	0.93290 0.43230 0.70080 0.10500
H 	H 	0.06290 0.46100 0.71320 0.10200
C 	C 	0.10100 0.51120 0.91100 -0.01700
C 	C 	0.88900 0.45650 0.95800 -0.04400
C 	C 	0.04300 0.51480 0.99300 0.11800
La	La	0.83201 0.76218 0.38557 1.62700
O 	O 	0.94470 0.71901 0.64130 -0.50100
O 	O 	0.05220 0.70690 0.87780 -0.38700
O 	O 	0.61720 0.69970 0.89240 -0.42000
O 	O 	0.70910 0.73452 0.12110 -0.52400
O 	O 	0.89580 0.85419 0.56670 -0.44000
O 	O 	0.93190 0.83934 0.82240 -0.44600
N 	N 	0.25710 0.68700 0.77900 -0.07700
N 	N 	0.40590 0.68490 0.97250 -0.07900
N 	N 	0.99930 0.97120 0.60020 -0.10800
C 	C 	0.04300 0.71090 0.73600 0.41600
C 	C 	0.15300 0.70840 0.66690 -0.28400
H 	H 	0.16850 0.75130 0.62910 0.13200
H 	H 	0.13830 0.67910 0.57690 0.12300
C 	C 	0.28820 0.62380 0.80500 -0.00300
H 	H 	0.25110 0.58800 0.74880 0.03200
C 	C 	0.38200 0.62320 0.92640 0.00300
H 	H 	0.42390 0.58650 0.97160 0.03100
C 	C 	0.32900 0.72140 0.88110 0.07300
H 	H 	0.32610 0.76650 0.88820 0.01400
C 	C 	0.50630 0.70660 0.09230 -0.28300
H 	H 	0.48630 0.74810 0.13370 0.12100
H 	H 	0.52090 0.67550 0.17880 0.10400
C 	C 	0.61780 0.71360 0.02900 0.41500
C 	C 	0.93490 0.86990 0.70160 0.45000
C 	C 	0.98740 0.93620 0.73010 -0.25500
H 	H 	0.06710 0.93230 0.79920 0.11100
H 	H 	0.93710 0.96100 0.78680 0.10500
C 	C 	0.89900 0.01120 0.58900 -0.01900
C 	C 	0.11100 0.95650 0.54200 -0.03400
C 	C 	0.95700 0.01480 0.50700 0.10800
La	La	0.83201 0.73782 0.88557 1.62200
O 	O 	0.94470 0.78099 0.14130 -0.49400
O 	O 	0.05220 0.79310 0.37780 -0.38700
O 	O 	0.61720 0.80030 0.39240 -0.41800
O 	O 	0.70910 0.76548 0.62110 -0.52400
O 	O 	0.89580 0.64581 0.06670 -0.43700
O 	O 	0.93190 0.66066 0.32240 -0.44400
N 	N 	0.25710 0.81300 0.27900 -0.07700
N 	N 	0.40590 0.81510 0.47250 -0.07900
N 	N 	0.99930 0.52880 0.10020 -0.11200
C 	C 	0.04300 0.78910 0.23600 0.40900
C 	C 	0.15300 0.79160 0.16690 -0.28100
H 	H 	0.16850 0.74870 0.12910 0.13000
H 	H 	0.13830 0.82090 0.07690 0.12100
C 	C 	0.28820 0.87620 0.30500 -0.00300
H 	H 	0.25110 0.91200 0.24880 0.03200
C 	C 	0.38200 0.87680 0.42640 0.00200
H 	H 	0.42390 0.91350 0.47160 0.03100
C 	C 	0.32900 0.77860 0.38110 0.07300
H 	H 	0.32610 0.73350 0.38820 0.01400
C 	C 	0.50630 0.79340 0.59230 -0.28200
H 	H 	0.48630 0.75190 0.63370 0.12000
H 	H 	0.52090 0.82450 0.67880 0.10400
C 	C 	0.61780 0.78640 0.52900 0.41100
C 	C 	0.93490 0.63010 0.20160 0.44700
C 	C 	0.98740 0.56380 0.23010 -0.24400
H 	H 	0.06710 0.56770 0.29920 0.10500
H 	H 	0.93710 0.53900 0.28680 0.10200
C 	C 	0.89900 0.48880 0.08900 -0.01700
C 	C 	0.11100 0.54350 0.04200 -0.04400
C 	C 	0.95700 0.48520 0.00700 0.11800
La	La	0.16799 0.23782 0.61443 1.62700
O 	O 	0.05530 0.28099 0.35870 -0.50100
O 	O 	0.94780 0.29310 0.12220 -0.38700
O 	O 	0.38280 0.30030 0.10760 -0.42000
O 	O 	0.29090 0.26548 0.87890 -0.52400
O 	O 	0.10420 0.14581 0.43330 -0.44000
O 	O 	0.06810 0.16066 0.17760 -0.44600
N 	N 	0.74290 0.31300 0.22100 -0.07700
N 	N 	0.59410 0.31510 0.02750 -0.07900
N 	N 	0.00070 0.02880 0.39980 -0.10800
C 	C 	0.95700 0.28910 0.26400 0.41600
C 	C 	0.84700 0.29160 0.33310 -0.28400
H 	H 	0.83150 0.24870 0.37090 0.13200
H 	H 	0.86170 0.32090 0.42310 0.12300
C 	C 	0.71180 0.37620 0.19500 -0.00300
H 	H 	0.74890 0.41200 0.25120 0.03200
C 	C 	0.61800 0.37680 0.07360 0.00300
H 	H 	0.57610 0.41350 0.02840 0.03100
C 	C 	0.67100 0.27860 0.11890 0.07300
H 	H 	0.67390 0.23350 0.11180 0.01400
C 	C 	0.49370 0.29340 0.90770 -0.28300
H 	H 	0.51370 0.25190 0.86630 0.12100
H 	H 	0.47910 0.32450 0.82120 0.10400
C 	C 	0.38220 0.28640 0.97100 0.41500
C 	C 	0.06510 0.13010 0.29840 0.45000
C 	C 	0.01260 0.06380 0.26990 -0.25500
H 	H 	0.93290 0.06770 0.20080 0.11100
H 	H 	0.06290 0.03900 0.21320 0.10500
C 	C 	0.10100 0.98880 0.41100 -0.01900
C 	C 	0.88900 0.04350 0.45800 -0.03400
C 	C 	0.04300 0.98520 0.49300 0.10800
