data_crystal

_cell_length_a 9.01540
_cell_length_b 25.44100
_cell_length_c 11.39000
_cell_angle_alpha 90.00000
_cell_angle_beta  104.41000
_cell_angle_gamma 90.00000

_symmetry_space_group_name_	'P 1'
_symmetry_space_group_name_H-M	'P 1'

loop_
_symmetry_equiv_pos_as_xyz
  x,y,z

loop_
_atom_site_label
_atom_site_type_symbol
_atom_site_fract_x
_atom_site_fract_y
_atom_site_fract_z
_atom_site_charge
O 	O 	0.33950 0.15355 0.43740 -0.41500
O 	O 	0.29310 0.06853 0.45270 -0.27600
O 	O 	0.24160 0.26738 0.38440 -0.50700
O 	O 	0.01200 0.29082 0.27838 -0.43200
N 	N 	0.39600 0.04233 0.25670 -0.07300
N 	N 	0.10080 0.31043 0.07470 -0.05100
C 	C 	0.34150 0.10601 0.40550 0.39400
C 	C 	0.41640 0.09654 0.30090 -0.26400
H 	H 	0.37120 0.12080 0.23360 0.12200
H 	H 	0.52720 0.10440 0.32840 0.12900
C 	C 	0.29760 0.02619 0.15020 -0.01700
H 	H 	0.24020 0.04830 0.08810 0.03100
C 	C 	0.15020 0.28291 0.28750 0.41200
C 	C 	0.21680 0.29099 0.17840 -0.29300
H 	H 	0.30230 0.31650 0.19950 0.11100
H 	H 	0.25810 0.25720 0.15700 0.12100
C 	C 	0.06230 0.36199 0.04700 -0.12700
H 	H 	0.11410 0.39200 0.08680 0.06700
O 	O 	0.83950 0.65355 0.43740 -0.36700
O 	O 	0.79310 0.56853 0.45270 -0.24500
O 	O 	0.74160 0.76738 0.38440 -0.47900
O 	O 	0.51200 0.79082 0.27838 -0.40100
N 	N 	0.89600 0.54233 0.25670 -0.11600
N 	N 	0.60080 0.81043 0.07470 -0.07600
C 	C 	0.84150 0.60601 0.40550 0.35600
C 	C 	0.91640 0.59654 0.30090 -0.09600
H 	H 	0.87120 0.62080 0.23360 0.09700
H 	H 	0.02720 0.60440 0.32840 0.03300
C 	C 	0.79760 0.52619 0.15020 0.01200
H 	H 	0.74020 0.54830 0.08810 0.03900
C 	C 	0.65020 0.78291 0.28750 0.40600
C 	C 	0.71680 0.79099 0.17840 -0.28400
H 	H 	0.80230 0.81650 0.19950 0.12800
H 	H 	0.75810 0.75720 0.15700 0.13900
C 	C 	0.56230 0.86199 0.04700 0.01400
H 	H 	0.61410 0.89200 0.08680 0.04200
O 	O 	0.66050 0.15355 0.56260 -0.39900
O 	O 	0.70690 0.06853 0.54730 -0.24800
O 	O 	0.75840 0.26738 0.61560 -0.48700
O 	O 	0.98800 0.29082 0.72162 -0.34800
N 	N 	0.60400 0.04233 0.74330 -0.07400
N 	N 	0.89920 0.31043 0.92530 -0.05800
C 	C 	0.65850 0.10601 0.59450 0.39600
C 	C 	0.58360 0.09654 0.69910 -0.25700
H 	H 	0.62880 0.12080 0.76640 0.12700
H 	H 	0.47280 0.10440 0.67160 0.12000
C 	C 	0.70240 0.02619 0.84980 -0.01000
H 	H 	0.75980 0.04830 0.91190 0.04900
C 	C 	0.84980 0.28291 0.71250 0.39600
C 	C 	0.78320 0.29099 0.82160 -0.26400
H 	H 	0.69770 0.31650 0.80050 0.10100
H 	H 	0.74190 0.25720 0.84300 0.12300
C 	C 	0.93770 0.36199 0.95300 0.12000
H 	H 	0.88590 0.39200 0.91320 0.01100
O 	O 	0.16050 0.65355 0.56260 -0.43100
O 	O 	0.20690 0.56853 0.54730 -0.27600
O 	O 	0.25840 0.76738 0.61560 -0.50600
O 	O 	0.48800 0.79082 0.72162 -0.39700
N 	N 	0.10400 0.54233 0.74330 -0.03800
N 	N 	0.39920 0.81043 0.92530 -0.08400
C 	C 	0.15850 0.60601 0.59450 0.42800
C 	C 	0.08360 0.59654 0.69910 -0.41900
H 	H 	0.12880 0.62080 0.76640 0.15000
H 	H 	0.97280 0.60440 0.67160 0.21700
C 	C 	0.20240 0.52619 0.84980 -0.01100
H 	H 	0.25980 0.54830 0.91190 0.03200
C 	C 	0.34980 0.78291 0.71250 0.39300
C 	C 	0.28320 0.79099 0.82160 -0.26200
H 	H 	0.19770 0.81650 0.80050 0.08700
H 	H 	0.24190 0.75720 0.84300 0.10100
C 	C 	0.43770 0.86199 0.95300 -0.02100
H 	H 	0.38590 0.89200 0.91320 0.03800
O 	O 	0.66050 0.84645 0.56260 -0.39800
O 	O 	0.70690 0.93147 0.54730 -0.24400
O 	O 	0.75840 0.73262 0.61560 -0.48700
O 	O 	0.98800 0.70918 0.72162 -0.34800
N 	N 	0.60400 0.95767 0.74330 -0.07500
N 	N 	0.89920 0.68957 0.92530 -0.05800
C 	C 	0.65850 0.89399 0.59450 0.39500
C 	C 	0.58360 0.90346 0.69910 -0.25400
H 	H 	0.62880 0.87920 0.76640 0.12600
H 	H 	0.47280 0.89560 0.67160 0.12000
C 	C 	0.70240 0.97381 0.84980 0.01900
H 	H 	0.75980 0.95170 0.91190 0.04200
C 	C 	0.84980 0.71709 0.71250 0.39700
C 	C 	0.78320 0.70901 0.82160 -0.26400
H 	H 	0.69770 0.68350 0.80050 0.10100
H 	H 	0.74190 0.74280 0.84300 0.12300
C 	C 	0.93770 0.63801 0.95300 0.12000
H 	H 	0.88590 0.60800 0.91320 0.01100
O 	O 	0.16050 0.34645 0.56260 -0.43100
O 	O 	0.20690 0.43147 0.54730 -0.27600
O 	O 	0.25840 0.23262 0.61560 -0.50600
O 	O 	0.48800 0.20918 0.72162 -0.39700
N 	N 	0.10400 0.45767 0.74330 -0.03800
N 	N 	0.39920 0.18957 0.92530 -0.08400
C 	C 	0.15850 0.39399 0.59450 0.42800
C 	C 	0.08360 0.40346 0.69910 -0.41900
H 	H 	0.12880 0.37920 0.76640 0.15000
H 	H 	0.97280 0.39560 0.67160 0.21700
C 	C 	0.20240 0.47381 0.84980 -0.01100
H 	H 	0.25980 0.45170 0.91190 0.03200
C 	C 	0.34980 0.21709 0.71250 0.39300
C 	C 	0.28320 0.20901 0.82160 -0.26200
H 	H 	0.19770 0.18350 0.80050 0.08600
H 	H 	0.24190 0.24280 0.84300 0.10100
C 	C 	0.43770 0.13801 0.95300 -0.02100
H 	H 	0.38590 0.10800 0.91320 0.03600
O 	O 	0.33950 0.84645 0.43740 -0.41400
O 	O 	0.29310 0.93147 0.45270 -0.27200
O 	O 	0.24160 0.73262 0.38440 -0.50700
O 	O 	0.01200 0.70918 0.27838 -0.43200
N 	N 	0.39600 0.95767 0.25670 -0.07400
N 	N 	0.10080 0.68957 0.07470 -0.05100
C 	C 	0.34150 0.89399 0.40550 0.39300
C 	C 	0.41640 0.90346 0.30090 -0.26100
H 	H 	0.37120 0.87920 0.23360 0.12100
H 	H 	0.52720 0.89560 0.32840 0.12900
C 	C 	0.29760 0.97381 0.15020 0.01200
H 	H 	0.24020 0.95170 0.08810 0.02400
C 	C 	0.15020 0.71709 0.28750 0.41200
C 	C 	0.21680 0.70901 0.17840 -0.29300
H 	H 	0.30230 0.68350 0.19950 0.11100
H 	H 	0.25810 0.74280 0.15700 0.12100
C 	C 	0.06230 0.63801 0.04700 -0.12700
H 	H 	0.11410 0.60800 0.08680 0.06700
O 	O 	0.83950 0.34645 0.43740 -0.36700
O 	O 	0.79310 0.43147 0.45270 -0.24500
O 	O 	0.74160 0.23262 0.38440 -0.47900
O 	O 	0.51200 0.20918 0.27838 -0.40200
N 	N 	0.89600 0.45767 0.25670 -0.11600
N 	N 	0.60080 0.18957 0.07470 -0.07600
C 	C 	0.84150 0.39399 0.40550 0.35600
C 	C 	0.91640 0.40346 0.30090 -0.09600
H 	H 	0.87120 0.37920 0.23360 0.09700
H 	H 	0.02720 0.39560 0.32840 0.03300
C 	C 	0.79760 0.47381 0.15020 0.01200
H 	H 	0.74020 0.45170 0.08810 0.03900
C 	C 	0.65020 0.21709 0.28750 0.40600
C 	C 	0.71680 0.20901 0.17840 -0.28400
H 	H 	0.80230 0.18350 0.19950 0.12800
H 	H 	0.75810 0.24280 0.15700 0.13900
C 	C 	0.56230 0.13801 0.04700 0.01400
H 	H 	0.61410 0.10800 0.08680 0.04000
La	La	0.50000 0.23472 0.50000 1.62900
La	La	0.00000 0.73472 0.50000 1.54400
La	La	0.50000 0.76528 0.50000 1.62900
La	La	0.00000 0.26528 0.50000 1.54400
C 	C 	0.45510 0.00000 0.31860 0.07200
H 	H 	0.52790 0.00000 0.39490 0.05800
C 	C 	0.95510 0.50000 0.31860 0.23900
H 	H 	0.02790 0.50000 0.39490 -0.05200
C 	C 	0.54490 0.00000 0.68140 0.07200
H 	H 	0.47210 0.00000 0.60510 0.05200
C 	C 	0.04490 0.50000 0.68140 -0.07900
H 	H 	0.97210 0.50000 0.60510 0.16100
C 	C 	-0.00000 0.28000 -0.00000 -0.00700
H 	H 	-0.00000 0.24270 -0.00000 0.01900
C 	C 	0.50000 0.78000 -0.00000 0.08100
H 	H 	0.50000 0.74270 -0.00000 0.01500
C 	C 	-0.00000 0.72000 -0.00000 -0.00700
H 	H 	-0.00000 0.75730 -0.00000 0.01900
C 	C 	0.50000 0.22000 -0.00000 0.08100
H 	H 	0.50000 0.25730 -0.00000 0.01500
