data_crystal

_cell_length_a 8.84600
_cell_length_b 22.00060
_cell_length_c 22.54750
_cell_angle_alpha 119.20100
_cell_angle_beta  96.00920
_cell_angle_gamma 90.00000

_symmetry_space_group_name_	'P 1'
_symmetry_space_group_name_H-M	'P 1'

loop_
_symmetry_equiv_pos_as_xyz
  x,y,z

loop_
_atom_site_label
_atom_site_type_symbol
_atom_site_fract_x
_atom_site_fract_y
_atom_site_fract_z
_atom_site_charge
Na	Na	0.64370 0.31983 0.41104 0.58600
Na	Na	0.85630 0.90879 0.58896 0.58600
Na	Na	0.35630 0.68017 0.58896 0.58500
Na	Na	0.14370 0.09121 0.41104 0.58600
H 	H 	0.39470 0.23050 0.55840 0.08900
H 	H 	0.25270 0.25520 0.52980 0.10600
H 	H 	0.47920 0.45400 0.66160 0.13400
H 	H 	0.38370 0.52460 0.76300 -0.05700
H 	H 	0.13850 0.36240 0.74260 -0.05500
H 	H 	0.22970 0.29110 0.64060 0.14100
H 	H 	0.35960 0.57400 0.87080 0.34100
H 	H 	0.25110 0.58250 0.92460 0.31800
H 	H 	0.36180 0.52150 0.89900 0.31000
H 	H 	0.05340 0.49540 0.89820 0.29100
H 	H 	0.00130 0.43670 0.82300 0.31800
H 	H 	0.15330 0.43140 0.86240 0.29600
H 	H 	0.19680 0.63320 0.84520 -0.06300
H 	H 	0.05270 0.68750 0.79660 0.17500
H 	H 	0.75680 0.52150 0.70580 0.14700
H 	H 	0.90390 0.46720 0.75300 -0.06900
H 	H 	0.01610 0.97360 0.22260 0.11100
H 	H 	0.13060 0.94020 0.25500 0.07900
H 	H 	0.13740 0.81760 0.03720 0.12900
H 	H 	0.98090 0.71860 0.97180 -0.00800
H 	H 	0.77420 0.75990 0.13560 -0.03700
H 	H 	0.92890 0.85980 0.20040 0.14200
H 	H 	0.90690 0.61170 0.93280 0.28200
H 	H 	0.90460 0.58840 0.98820 0.25500
H 	H 	0.77470 0.56080 0.92660 0.25900
H 	H 	0.89310 0.72940 0.75100 0.11300
H 	H 	0.94550 0.67860 0.67940 0.10000
H 	H 	0.10530 0.67210 0.44160 0.08900
H 	H 	0.24730 0.72540 0.47020 0.10600
H 	H 	0.02080 0.79240 0.33840 0.13200
H 	H 	0.11630 0.76160 0.23700 -0.05400
H 	H 	0.36150 0.61980 0.25740 -0.05300
H 	H 	0.27030 0.65050 0.35940 0.14000
H 	H 	0.14040 0.70320 0.12920 0.32800
H 	H 	0.24890 0.65790 0.07540 0.29800
H 	H 	0.13820 0.62250 0.10100 0.29200
H 	H 	0.44660 0.59720 0.10180 0.27700
H 	H 	0.49870 0.61370 0.17700 0.30900
H 	H 	0.34670 0.56900 0.13760 0.28500
H 	H 	0.30320 0.78800 0.15480 -0.06200
H 	H 	0.44730 0.89090 0.20340 0.17200
H 	H 	0.74320 0.81570 0.29420 0.14600
H 	H 	0.59610 0.71420 0.24700 -0.06700
H 	H 	0.48390 0.75100 0.77740 0.11100
H 	H 	0.36940 0.68520 0.74500 0.07700
H 	H 	0.36260 0.78040 0.96280 0.17000
H 	H 	0.51910 0.74680 0.02820 -0.07700
H 	H 	0.72580 0.62430 0.86440 -0.04700
H 	H 	0.57110 0.65940 0.79960 0.15400
H 	H 	0.59310 0.67890 0.06720 0.28300
H 	H 	0.59540 0.60020 0.01180 0.24500
H 	H 	0.72530 0.63420 0.07340 0.25900
H 	H 	0.60690 0.97840 0.24900 0.11200
H 	H 	0.55450 0.99920 0.32060 0.10000
H 	H 	0.60530 0.76950 0.44160 0.08900
H 	H 	0.74730 0.74480 0.47020 0.10600
H 	H 	0.52080 0.54600 0.33840 0.13200
H 	H 	0.61630 0.47540 0.23700 -0.05400
H 	H 	0.86150 0.63760 0.25740 -0.05300
H 	H 	0.77030 0.70890 0.35940 0.14000
H 	H 	0.64040 0.42600 0.12920 0.32800
H 	H 	0.74890 0.41750 0.07540 0.29900
H 	H 	0.63820 0.47850 0.10100 0.29200
H 	H 	0.94660 0.50460 0.10180 0.27800
H 	H 	0.99870 0.56330 0.17700 0.30900
H 	H 	0.84670 0.56860 0.13760 0.28500
H 	H 	0.80320 0.36680 0.15480 -0.06100
H 	H 	0.94730 0.31250 0.20340 0.17200
H 	H 	0.24320 0.47850 0.29420 0.14600
H 	H 	0.09610 0.53280 0.24700 -0.06600
H 	H 	0.98390 0.02640 0.77740 0.11000
H 	H 	0.86940 0.05980 0.74500 0.07700
H 	H 	0.86260 0.18240 0.96280 0.17000
H 	H 	0.01910 0.28140 0.02820 -0.07700
H 	H 	0.22580 0.24010 0.86440 -0.04700
H 	H 	0.07110 0.14020 0.79960 0.15400
H 	H 	0.09310 0.38830 0.06720 0.28300
H 	H 	0.09540 0.41160 0.01180 0.24400
H 	H 	0.22530 0.43920 0.07340 0.25800
H 	H 	0.10690 0.27060 0.24900 0.11100
H 	H 	0.05450 0.32140 0.32060 0.10000
H 	H 	0.89470 0.32790 0.55840 0.08900
H 	H 	0.75270 0.27460 0.52980 0.10600
H 	H 	0.97920 0.20760 0.66160 0.13400
H 	H 	0.88370 0.23840 0.76300 -0.05700
H 	H 	0.63850 0.38020 0.74260 -0.05600
H 	H 	0.72970 0.34950 0.64060 0.14100
H 	H 	0.85960 0.29680 0.87080 0.34100
H 	H 	0.75110 0.34210 0.92460 0.31800
H 	H 	0.86180 0.37750 0.89900 0.30900
H 	H 	0.55340 0.40280 0.89820 0.29100
H 	H 	0.50130 0.38630 0.82300 0.31700
H 	H 	0.65330 0.43100 0.86240 0.29600
H 	H 	0.69680 0.21200 0.84520 -0.06300
H 	H 	0.55270 0.10910 0.79660 0.17600
H 	H 	0.25680 0.18430 0.70580 0.14800
H 	H 	0.40390 0.28580 0.75300 -0.07000
H 	H 	0.51610 0.24900 0.22260 0.11100
H 	H 	0.63060 0.31480 0.25500 0.07900
H 	H 	0.63740 0.21960 0.03720 0.12900
H 	H 	0.48090 0.25320 0.97180 -0.00600
H 	H 	0.27420 0.37570 0.13560 -0.03700
H 	H 	0.42890 0.34060 0.20040 0.14100
H 	H 	0.40690 0.32110 0.93280 0.28100
H 	H 	0.40460 0.39980 0.98820 0.25500
H 	H 	0.27470 0.36580 0.92660 0.25900
H 	H 	0.39310 0.02160 0.75100 0.11300
H 	H 	0.44550 0.00080 0.67940 0.10000
C 	C 	0.42070 0.22559 0.46758 0.37900
C 	C 	0.36310 0.25717 0.53594 -0.19100
C 	C 	0.36150 0.36478 0.63876 0.28500
C 	C 	0.40900 0.43531 0.67722 -0.30200
C 	C 	0.35200 0.47755 0.73850 0.20900
C 	C 	0.24960 0.45195 0.76430 -0.30900
C 	C 	0.20630 0.38130 0.72620 0.21000
C 	C 	0.26090 0.33825 0.66470 -0.30800
C 	C 	0.17590 0.50260 0.82820 0.57600
C 	C 	0.29850 0.54950 0.88600 -1.04300
C 	C 	0.08760 0.46277 0.85554 -0.99600
C 	C 	0.06970 0.54394 0.80468 -0.33300
C 	C 	0.10850 0.60985 0.81630 0.25100
C 	C 	0.02300 0.64285 0.78710 -0.35000
C 	C 	0.89240 0.60845 0.74350 0.31200
C 	C 	0.84760 0.54369 0.73298 -0.34000
C 	C 	0.93500 0.51160 0.76200 0.23900
C 	C 	0.22960 0.02031 0.24902 0.33000
C 	C 	0.11930 0.95904 0.22388 -0.16700
C 	C 	0.04800 0.84857 0.12474 0.27200
C 	C 	0.06320 0.80617 0.05694 -0.26300
C 	C 	0.96930 0.74653 0.01786 0.11900
C 	C 	0.85670 0.72719 0.04598 -0.24500
C 	C 	0.84660 0.77127 0.11494 0.16900
C 	C 	0.93960 0.83140 0.15440 -0.29200
C 	C 	0.84280 0.59999 0.95798 -0.86700
C 	C 	0.73890 0.71781 0.67122 0.35100
C 	C 	0.85860 0.69210 0.70520 -0.16400
C 	C 	0.07930 0.75801 0.53242 0.38000
C 	C 	0.13690 0.72123 0.46406 -0.19200
C 	C 	0.13850 0.72602 0.36124 0.28200
C 	C 	0.09100 0.75809 0.32278 -0.29700
C 	C 	0.14800 0.73905 0.26150 0.20200
C 	C 	0.25040 0.68765 0.23570 -0.30000
C 	C 	0.29370 0.65510 0.27380 0.20300
C 	C 	0.23910 0.67355 0.33530 -0.30400
C 	C 	0.32410 0.67440 0.17180 0.55600
C 	C 	0.20150 0.66350 0.11400 -1.00600
C 	C 	0.41240 0.60723 0.14446 -0.96800
C 	C 	0.43030 0.73926 0.19532 -0.32600
C 	C 	0.39150 0.79355 0.18370 0.24500
C 	C 	0.47700 0.85575 0.21290 -0.34800
C 	C 	0.60760 0.86495 0.25650 0.31000
C 	C 	0.65240 0.81071 0.26702 -0.33700
C 	C 	0.56500 0.74960 0.23800 0.23400
C 	C 	0.27040 0.77129 0.75098 0.32700
C 	C 	0.38070 0.73516 0.77612 -0.15900
C 	C 	0.45200 0.72383 0.87526 0.31400
C 	C 	0.43680 0.74923 0.94306 -0.33700
C 	C 	0.53070 0.72867 0.98214 0.24400
C 	C 	0.64330 0.68121 0.95402 -0.27200
C 	C 	0.65340 0.65633 0.88506 0.20100
C 	C 	0.56040 0.67700 0.84560 -0.32700
C 	C 	0.65720 0.64201 0.04202 -0.88700
C 	C 	0.76110 0.04659 0.32878 0.35200
C 	C 	0.64140 0.98690 0.29480 -0.16600
C 	C 	0.57930 0.77441 0.53242 0.37900
C 	C 	0.63690 0.74283 0.46406 -0.19100
C 	C 	0.63850 0.63522 0.36124 0.28200
C 	C 	0.59100 0.56469 0.32278 -0.29700
C 	C 	0.64800 0.52245 0.26150 0.20200
C 	C 	0.75040 0.54805 0.23570 -0.29900
C 	C 	0.79370 0.61870 0.27380 0.20300
C 	C 	0.73910 0.66175 0.33530 -0.30300
C 	C 	0.82410 0.49740 0.17180 0.55600
C 	C 	0.70150 0.45050 0.11400 -1.00600
C 	C 	0.91240 0.53723 0.14446 -0.96900
C 	C 	0.93030 0.45606 0.19532 -0.32400
C 	C 	0.89150 0.39015 0.18370 0.24300
C 	C 	0.97700 0.35715 0.21290 -0.34500
C 	C 	0.10760 0.39155 0.25650 0.30900
C 	C 	0.15240 0.45631 0.26702 -0.33500
C 	C 	0.06500 0.48840 0.23800 0.23200
C 	C 	0.77040 0.97969 0.75098 0.32500
C 	C 	0.88070 0.04096 0.77612 -0.15700
C 	C 	0.95200 0.15143 0.87526 0.31400
C 	C 	0.93680 0.19383 0.94306 -0.33700
C 	C 	0.03070 0.25347 0.98214 0.24500
C 	C 	0.14330 0.27281 0.95402 -0.27100
C 	C 	0.15340 0.22873 0.88506 0.20100
C 	C 	0.06040 0.16860 0.84560 -0.32600
C 	C 	0.15720 0.40001 0.04202 -0.88500
C 	C 	0.26110 0.28219 0.32878 0.35000
C 	C 	0.14140 0.30790 0.29480 -0.16400
C 	C 	0.92070 0.24199 0.46758 0.38000
C 	C 	0.86310 0.27877 0.53594 -0.19100
C 	C 	0.86150 0.27398 0.63876 0.28500
C 	C 	0.90900 0.24191 0.67722 -0.30200
C 	C 	0.85200 0.26095 0.73850 0.20900
C 	C 	0.74960 0.31235 0.76430 -0.30900
C 	C 	0.70630 0.34490 0.72620 0.21000
C 	C 	0.76090 0.32645 0.66470 -0.30800
C 	C 	0.67590 0.32560 0.82820 0.57600
C 	C 	0.79850 0.33650 0.88600 -1.04300
C 	C 	0.58760 0.39277 0.85554 -0.99600
C 	C 	0.56970 0.26074 0.80468 -0.33600
C 	C 	0.60850 0.20645 0.81630 0.25300
C 	C 	0.52300 0.14425 0.78710 -0.35300
C 	C 	0.39240 0.13505 0.74350 0.31500
C 	C 	0.34760 0.18929 0.73298 -0.34200
C 	C 	0.43500 0.25040 0.76200 0.24200
C 	C 	0.72960 0.22871 0.24902 0.32800
C 	C 	0.61930 0.26484 0.22388 -0.16500
C 	C 	0.54800 0.27617 0.12474 0.27200
C 	C 	0.56320 0.25077 0.05694 -0.26200
C 	C 	0.46930 0.27133 0.01786 0.11600
C 	C 	0.35670 0.31879 0.04598 -0.24400
C 	C 	0.34660 0.34367 0.11494 0.16800
C 	C 	0.43960 0.32300 0.15440 -0.29200
C 	C 	0.34280 0.35799 0.95798 -0.86500
C 	C 	0.23890 0.95341 0.67122 0.34900
C 	C 	0.35860 0.01310 0.70520 -0.16200
C 	C 	0.75000 0.66270 -0.00000 0.46100
C 	C 	0.25000 0.33730 -0.00000 0.45900
O 	O 	0.50830 0.25946 0.45368 -0.29700
O 	O 	0.36850 0.16364 0.42622 -0.28700
O 	O 	0.19760 0.07674 0.29972 -0.24800
O 	O 	0.34640 0.01478 0.22116 -0.22100
O 	O 	0.41950 0.32765 0.57794 -0.21100
O 	O 	0.79940 0.63438 0.70858 -0.21800
O 	O 	0.14590 0.90711 0.15762 -0.19800
O 	O 	0.60800 0.69200 0.65444 -0.30000
O 	O 	0.78750 0.76834 0.66454 -0.20100
O 	O 	0.99170 0.80578 0.54632 -0.29800
O 	O 	0.13150 0.73742 0.57378 -0.28800
O 	O 	0.30240 0.77702 0.70028 -0.24600
O 	O 	0.15360 0.79362 0.77884 -0.21700
O 	O 	0.08050 0.74971 0.42206 -0.21000
O 	O 	0.70060 0.92580 0.29142 -0.21700
O 	O 	0.35410 0.74949 0.84238 -0.20500
O 	O 	0.89200 0.03756 0.34556 -0.30000
O 	O 	0.71250 0.10380 0.33546 -0.20200
O 	O 	0.49170 0.74054 0.54632 -0.29700
O 	O 	0.63150 0.83636 0.57378 -0.28800
O 	O 	0.80240 0.92326 0.70028 -0.24600
O 	O 	0.65360 0.98522 0.77884 -0.21700
O 	O 	0.58050 0.67235 0.42206 -0.21000
O 	O 	0.20060 0.36562 0.29142 -0.21700
O 	O 	0.85410 0.09289 0.84238 -0.20500
O 	O 	0.39200 0.30800 0.34556 -0.30000
O 	O 	0.21250 0.23166 0.33546 -0.20200
O 	O 	0.00830 0.19422 0.45368 -0.29800
O 	O 	0.86850 0.26258 0.42622 -0.28800
O 	O 	0.69760 0.22298 0.29972 -0.24700
O 	O 	0.84640 0.20638 0.22116 -0.22000
O 	O 	0.91950 0.25029 0.57794 -0.21100
O 	O 	0.29940 0.07420 0.70858 -0.21800
O 	O 	0.64590 0.25051 0.15762 -0.19700
O 	O 	0.10800 0.96244 0.65444 -0.30000
O 	O 	0.28750 0.89620 0.66454 -0.20100
