data_crystal

_cell_length_a 18.52830
_cell_length_b 18.52830
_cell_length_c 38.80750
_cell_angle_alpha 90.00000
_cell_angle_beta  90.00000
_cell_angle_gamma 120.00000

_symmetry_space_group_name_	'P 1'
_symmetry_space_group_name_H-M	'P 1'

loop_
_symmetry_equiv_pos_as_xyz
  x,y,z

loop_
_atom_site_label
_atom_site_type_symbol
_atom_site_fract_x
_atom_site_fract_y
_atom_site_fract_z
_atom_site_charge
C 	C 	0.48300 0.38719 0.62220 -0.02700
C 	C 	0.42471 0.30638 0.63924 0.36100
C 	C 	0.46741 0.40336 0.58839 -0.01200
H 	H 	0.41910 0.36490 0.57700 0.10600
F 	F 	0.49800 0.62170 0.57140 -0.24600
O 	O 	0.36258 0.25520 0.62212 -0.37200
O 	O 	0.44345 0.29561 0.66902 -0.38100
F 	F 	0.46170 0.65520 0.53640 -0.19700
C 	C 	0.14967 0.72052 0.95553 -0.02800
C 	C 	0.09138 0.63971 0.97257 0.36100
C 	C 	0.13408 0.73669 0.92172 -0.01200
H 	H 	0.08577 0.69823 0.91033 0.10600
F 	F 	0.16467 0.95503 0.90473 -0.24600
O 	O 	0.02925 0.58853 0.95545 -0.37200
O 	O 	0.11012 0.62894 0.00235 -0.38100
F 	F 	0.12837 0.98853 0.86973 -0.19700
C 	C 	0.81633 0.05386 0.28887 -0.02600
C 	C 	0.75804 0.97305 0.30591 0.36000
C 	C 	0.80074 0.07003 0.25506 -0.01300
H 	H 	0.75243 0.03157 0.24367 0.10600
F 	F 	0.83133 0.28837 0.23807 -0.24600
O 	O 	0.69591 0.92187 0.28879 -0.37200
O 	O 	0.77678 0.96228 0.33569 -0.38100
F 	F 	0.79503 0.32187 0.20307 -0.19700
C 	C 	0.61281 0.09581 0.62220 -0.02800
C 	C 	0.69362 0.11833 0.63924 0.36100
C 	C 	0.59664 0.06405 0.58839 -0.01200
H 	H 	0.63510 0.05420 0.57700 0.10600
F 	F 	0.37830 0.87630 0.57140 -0.24500
O 	O 	0.74480 0.10738 0.62212 -0.37200
O 	O 	0.70439 0.14784 0.66902 -0.38100
F 	F 	0.34480 0.80650 0.53640 -0.19700
C 	C 	0.27948 0.42914 0.95553 -0.02800
C 	C 	0.36029 0.45166 0.97257 0.36100
C 	C 	0.26331 0.39738 0.92172 -0.01300
H 	H 	0.30177 0.38753 0.91033 0.10500
F 	F 	0.04497 0.20963 0.90473 -0.24700
O 	O 	0.41147 0.44071 0.95545 -0.37300
O 	O 	0.37106 0.48117 0.00235 -0.38200
F 	F 	0.01147 0.13983 0.86973 -0.19800
C 	C 	0.94614 0.76248 0.28887 -0.02700
C 	C 	0.02695 0.78500 0.30591 0.35900
C 	C 	0.92997 0.73072 0.25506 -0.01300
H 	H 	0.96843 0.72087 0.24367 0.10500
F 	F 	0.71163 0.54297 0.23807 -0.24700
O 	O 	0.07813 0.77405 0.28879 -0.37300
O 	O 	0.03772 0.81451 0.33569 -0.38200
F 	F 	0.67813 0.47317 0.20307 -0.19800
C 	C 	0.90419 0.51700 0.62220 -0.02900
C 	C 	0.88167 0.57529 0.63924 0.36000
C 	C 	0.93595 0.53259 0.58839 -0.01300
H 	H 	0.94580 0.58090 0.57700 0.10500
F 	F 	0.12370 0.50200 0.57140 -0.24600
O 	O 	0.89262 0.63742 0.62212 -0.37300
O 	O 	0.85216 0.55655 0.66902 -0.38200
F 	F 	0.19350 0.53830 0.53640 -0.19800
C 	C 	0.57086 0.85033 0.95553 -0.02900
C 	C 	0.54834 0.90862 0.97257 0.36000
C 	C 	0.60262 0.86592 0.92172 -0.01300
H 	H 	0.61247 0.91423 0.91033 0.10500
F 	F 	0.79037 0.83533 0.90473 -0.24700
O 	O 	0.55929 0.97075 0.95545 -0.37300
O 	O 	0.51883 0.88988 0.00235 -0.38200
F 	F 	0.86017 0.87163 0.86973 -0.19800
C 	C 	0.23752 0.18367 0.28887 -0.02800
C 	C 	0.21500 0.24196 0.30591 0.36000
C 	C 	0.26928 0.19926 0.25506 -0.01300
H 	H 	0.27913 0.24757 0.24367 0.10500
F 	F 	0.45703 0.16867 0.23807 -0.24700
O 	O 	0.22595 0.30409 0.28879 -0.37300
O 	O 	0.18549 0.22322 0.33569 -0.38200
F 	F 	0.52683 0.20497 0.20307 -0.19800
C 	C 	0.38719 0.48300 0.37780 -0.02800
C 	C 	0.30638 0.42471 0.36076 0.36000
C 	C 	0.40336 0.46741 0.41161 -0.01300
H 	H 	0.36490 0.41910 0.42300 0.10500
F 	F 	0.62170 0.49800 0.42860 -0.24700
O 	O 	0.25520 0.36258 0.37788 -0.37300
O 	O 	0.29561 0.44345 0.33098 -0.38200
F 	F 	0.65520 0.46170 0.46360 -0.19800
C 	C 	0.05386 0.81633 0.71113 -0.02700
C 	C 	0.97305 0.75804 0.69409 0.35900
C 	C 	0.07003 0.80074 0.74494 -0.01400
H 	H 	0.03157 0.75243 0.75633 0.10500
F 	F 	0.28837 0.83133 0.76193 -0.24700
O 	O 	0.92187 0.69591 0.71121 -0.37300
O 	O 	0.96228 0.77678 0.66431 -0.38200
F 	F 	0.32187 0.79503 0.79693 -0.19800
C 	C 	0.72052 0.14967 0.04447 -0.02900
C 	C 	0.63971 0.09138 0.02743 0.36000
C 	C 	0.73669 0.13408 0.07828 -0.01300
H 	H 	0.69823 0.08577 0.08967 0.10500
F 	F 	0.95503 0.16467 0.09527 -0.24700
O 	O 	0.58853 0.02925 0.04455 -0.37300
O 	O 	0.62894 0.11012 0.99765 -0.38200
F 	F 	0.98853 0.12837 0.13027 -0.19800
C 	C 	0.09581 0.61281 0.37780 -0.02900
C 	C 	0.11833 0.69362 0.36076 0.36000
C 	C 	0.06405 0.59664 0.41161 -0.01300
H 	H 	0.05420 0.63510 0.42300 0.10500
F 	F 	0.87630 0.37830 0.42860 -0.24600
O 	O 	0.10738 0.74480 0.37788 -0.37300
O 	O 	0.14784 0.70439 0.33098 -0.38200
F 	F 	0.80650 0.34480 0.46360 -0.19800
C 	C 	0.76248 0.94614 0.71113 -0.02700
C 	C 	0.78500 0.02695 0.69409 0.35900
C 	C 	0.73072 0.92997 0.74494 -0.01300
H 	H 	0.72087 0.96843 0.75633 0.10500
F 	F 	0.54297 0.71163 0.76193 -0.24700
O 	O 	0.77405 0.07813 0.71121 -0.37300
O 	O 	0.81451 0.03772 0.66431 -0.38200
F 	F 	0.47317 0.67813 0.79693 -0.19800
C 	C 	0.42914 0.27948 0.04447 -0.02900
C 	C 	0.45166 0.36029 0.02743 0.36000
C 	C 	0.39738 0.26331 0.07828 -0.01300
H 	H 	0.38753 0.30177 0.08967 0.10500
F 	F 	0.20963 0.04497 0.09527 -0.24700
O 	O 	0.44071 0.41147 0.04455 -0.37300
O 	O 	0.48117 0.37106 0.99765 -0.38200
F 	F 	0.13983 0.01147 0.13027 -0.19800
C 	C 	0.51700 0.90419 0.37780 -0.02900
C 	C 	0.57529 0.88167 0.36076 0.36000
C 	C 	0.53259 0.93595 0.41161 -0.01300
H 	H 	0.58090 0.94580 0.42300 0.10500
F 	F 	0.50200 0.12370 0.42860 -0.24600
O 	O 	0.63742 0.89262 0.37788 -0.37300
O 	O 	0.55655 0.85216 0.33098 -0.38200
F 	F 	0.53830 0.19350 0.46360 -0.19800
C 	C 	0.18367 0.23752 0.71113 -0.02800
C 	C 	0.24196 0.21500 0.69409 0.36000
C 	C 	0.19926 0.26928 0.74494 -0.01300
H 	H 	0.24757 0.27913 0.75633 0.10500
F 	F 	0.16867 0.45703 0.76193 -0.24700
O 	O 	0.30409 0.22595 0.71121 -0.37300
O 	O 	0.22322 0.18549 0.66431 -0.38200
F 	F 	0.20497 0.52683 0.79693 -0.19800
C 	C 	0.85033 0.57086 0.04447 -0.02900
C 	C 	0.90862 0.54834 0.02743 0.36000
C 	C 	0.86592 0.60262 0.07828 -0.01300
H 	H 	0.91423 0.61247 0.08967 0.10500
F 	F 	0.83533 0.79037 0.09527 -0.24700
O 	O 	0.97075 0.55929 0.04455 -0.37300
O 	O 	0.88988 0.51883 0.99765 -0.38200
F 	F 	0.87163 0.86017 0.13027 -0.19800
C 	C 	0.51700 0.61281 0.37780 -0.02800
C 	C 	0.57529 0.69362 0.36076 0.36000
C 	C 	0.53259 0.59664 0.41161 -0.01300
H 	H 	0.58090 0.63510 0.42300 0.10500
F 	F 	0.50200 0.37830 0.42860 -0.24700
O 	O 	0.63742 0.74480 0.37788 -0.37300
O 	O 	0.55655 0.70439 0.33098 -0.38200
F 	F 	0.53830 0.34480 0.46360 -0.19800
C 	C 	0.18367 0.94614 0.71113 -0.02700
C 	C 	0.24196 0.02695 0.69409 0.35900
C 	C 	0.19926 0.92997 0.74494 -0.01400
H 	H 	0.24757 0.96843 0.75633 0.10500
F 	F 	0.16867 0.71163 0.76193 -0.24700
O 	O 	0.30409 0.07813 0.71121 -0.37300
O 	O 	0.22322 0.03772 0.66431 -0.38200
F 	F 	0.20497 0.67813 0.79693 -0.19800
C 	C 	0.85033 0.27948 0.04447 -0.02900
C 	C 	0.90862 0.36029 0.02743 0.36000
C 	C 	0.86592 0.26331 0.07828 -0.01300
H 	H 	0.91423 0.30177 0.08967 0.10500
F 	F 	0.83533 0.04497 0.09527 -0.24700
O 	O 	0.97075 0.41147 0.04455 -0.37300
O 	O 	0.88988 0.37106 0.99765 -0.38200
F 	F 	0.87163 0.01147 0.13027 -0.19800
C 	C 	0.38719 0.90419 0.37780 -0.02900
C 	C 	0.30638 0.88167 0.36076 0.36000
C 	C 	0.40336 0.93595 0.41161 -0.01300
H 	H 	0.36490 0.94580 0.42300 0.10500
F 	F 	0.62170 0.12370 0.42860 -0.24600
O 	O 	0.25520 0.89262 0.37788 -0.37300
O 	O 	0.29561 0.85216 0.33098 -0.38200
F 	F 	0.65520 0.19350 0.46360 -0.19800
C 	C 	0.05386 0.23752 0.71113 -0.02700
C 	C 	0.97305 0.21500 0.69409 0.35900
C 	C 	0.07003 0.26928 0.74494 -0.01300
H 	H 	0.03157 0.27913 0.75633 0.10500
F 	F 	0.28837 0.45703 0.76193 -0.24700
O 	O 	0.92187 0.22595 0.71121 -0.37300
O 	O 	0.96228 0.18549 0.66431 -0.38200
F 	F 	0.32187 0.52683 0.79693 -0.19800
C 	C 	0.72052 0.57086 0.04447 -0.02900
C 	C 	0.63971 0.54834 0.02743 0.36000
C 	C 	0.73669 0.60262 0.07828 -0.01300
H 	H 	0.69823 0.61247 0.08967 0.10500
F 	F 	0.95503 0.79037 0.09527 -0.24700
O 	O 	0.58853 0.55929 0.04455 -0.37300
O 	O 	0.62894 0.51883 0.99765 -0.38200
F 	F 	0.98853 0.86017 0.13027 -0.19800
C 	C 	0.09581 0.48300 0.37780 -0.02900
C 	C 	0.11833 0.42471 0.36076 0.36000
C 	C 	0.06405 0.46741 0.41161 -0.01300
H 	H 	0.05420 0.41910 0.42300 0.10500
F 	F 	0.87630 0.49800 0.42860 -0.24600
O 	O 	0.10738 0.36258 0.37788 -0.37300
O 	O 	0.14784 0.44345 0.33098 -0.38200
F 	F 	0.80650 0.46170 0.46360 -0.19800
C 	C 	0.76248 0.81633 0.71113 -0.02800
C 	C 	0.78500 0.75804 0.69409 0.36000
C 	C 	0.73072 0.80074 0.74494 -0.01300
H 	H 	0.72087 0.75243 0.75633 0.10500
F 	F 	0.54297 0.83133 0.76193 -0.24700
O 	O 	0.77405 0.69591 0.71121 -0.37300
O 	O 	0.81451 0.77678 0.66431 -0.38200
F 	F 	0.47317 0.79503 0.79693 -0.19800
C 	C 	0.42914 0.14967 0.04447 -0.02900
C 	C 	0.45166 0.09138 0.02743 0.36000
C 	C 	0.39738 0.13408 0.07828 -0.01300
H 	H 	0.38753 0.08577 0.08967 0.10500
F 	F 	0.20963 0.16467 0.09527 -0.24700
O 	O 	0.44071 0.02925 0.04455 -0.37300
O 	O 	0.48117 0.11012 0.99765 -0.38200
F 	F 	0.13983 0.12837 0.13027 -0.19800
C 	C 	0.61281 0.51700 0.62220 -0.02800
C 	C 	0.69362 0.57529 0.63924 0.36000
C 	C 	0.59664 0.53259 0.58839 -0.01300
H 	H 	0.63510 0.58090 0.57700 0.10500
F 	F 	0.37830 0.50200 0.57140 -0.24700
O 	O 	0.74480 0.63742 0.62212 -0.37300
O 	O 	0.70439 0.55655 0.66902 -0.38200
F 	F 	0.34480 0.53830 0.53640 -0.19800
C 	C 	0.27948 0.85033 0.95553 -0.02900
C 	C 	0.36029 0.90862 0.97257 0.36000
C 	C 	0.26331 0.86592 0.92172 -0.01300
H 	H 	0.30177 0.91423 0.91033 0.10500
F 	F 	0.04497 0.83533 0.90473 -0.24700
O 	O 	0.41147 0.97075 0.95545 -0.37300
O 	O 	0.37106 0.88988 0.00235 -0.38200
F 	F 	0.01147 0.87163 0.86973 -0.19800
C 	C 	0.94614 0.18367 0.28887 -0.02700
C 	C 	0.02695 0.24196 0.30591 0.35900
C 	C 	0.92997 0.19926 0.25506 -0.01400
H 	H 	0.96843 0.24757 0.24367 0.10500
F 	F 	0.71163 0.16867 0.23807 -0.24700
O 	O 	0.07813 0.30409 0.28879 -0.37300
O 	O 	0.03772 0.22322 0.33569 -0.38200
F 	F 	0.67813 0.20497 0.20307 -0.19800
C 	C 	0.90419 0.38719 0.62220 -0.02900
C 	C 	0.88167 0.30638 0.63924 0.36000
C 	C 	0.93595 0.40336 0.58839 -0.01300
H 	H 	0.94580 0.36490 0.57700 0.10500
F 	F 	0.12370 0.62170 0.57140 -0.24600
O 	O 	0.89262 0.25520 0.62212 -0.37300
O 	O 	0.85216 0.29561 0.66902 -0.38200
F 	F 	0.19350 0.65520 0.53640 -0.19800
C 	C 	0.57086 0.72052 0.95553 -0.02900
C 	C 	0.54834 0.63971 0.97257 0.36000
C 	C 	0.60262 0.73669 0.92172 -0.01300
H 	H 	0.61247 0.69823 0.91033 0.10500
F 	F 	0.79037 0.95503 0.90473 -0.24700
O 	O 	0.55929 0.58853 0.95545 -0.37300
O 	O 	0.51883 0.62894 0.00235 -0.38200
F 	F 	0.86017 0.98853 0.86973 -0.19800
C 	C 	0.23752 0.05386 0.28887 -0.02700
C 	C 	0.21500 0.97305 0.30591 0.35900
C 	C 	0.26928 0.07003 0.25506 -0.01300
H 	H 	0.27913 0.03157 0.24367 0.10500
F 	F 	0.45703 0.28837 0.23807 -0.24700
O 	O 	0.22595 0.92187 0.28879 -0.37300
O 	O 	0.18549 0.96228 0.33569 -0.38200
F 	F 	0.52683 0.32187 0.20307 -0.19800
C 	C 	0.48300 0.09581 0.62220 -0.02900
C 	C 	0.42471 0.11833 0.63924 0.36000
C 	C 	0.46741 0.06405 0.58839 -0.01300
H 	H 	0.41910 0.05420 0.57700 0.10500
F 	F 	0.49800 0.87630 0.57140 -0.24600
O 	O 	0.36258 0.10738 0.62212 -0.37300
O 	O 	0.44345 0.14784 0.66902 -0.38200
F 	F 	0.46170 0.80650 0.53640 -0.19800
C 	C 	0.14967 0.42914 0.95553 -0.02900
C 	C 	0.09138 0.45166 0.97257 0.36000
C 	C 	0.13408 0.39738 0.92172 -0.01300
H 	H 	0.08577 0.38753 0.91033 0.10500
F 	F 	0.16467 0.20963 0.90473 -0.24700
O 	O 	0.02925 0.44071 0.95545 -0.37300
O 	O 	0.11012 0.48117 0.00235 -0.38200
F 	F 	0.12837 0.13983 0.86973 -0.19800
C 	C 	0.81633 0.76248 0.28887 -0.02800
C 	C 	0.75804 0.78500 0.30591 0.36000
C 	C 	0.80074 0.73072 0.25506 -0.01300
H 	H 	0.75243 0.72087 0.24367 0.10500
F 	F 	0.83133 0.54297 0.23807 -0.24700
O 	O 	0.69591 0.77405 0.28879 -0.37300
O 	O 	0.77678 0.81451 0.33569 -0.38200
F 	F 	0.79503 0.47317 0.20307 -0.19800
C 	C 	0.55588 0.44412 0.63914 0.01700
H 	H 	0.56640 0.43360 0.66150 0.08200
C 	C 	0.52375 0.47625 0.57206 0.06700
C 	C 	0.54000 0.46000 0.51090 -0.00800
H 	H 	0.56780 0.43220 0.51780 0.12300
C 	C 	0.51001 0.48999 0.53523 0.09400
C 	C 	0.46930 0.53070 0.52451 -0.09300
C 	C 	0.43600 0.56400 0.55150 0.41500
F 	F 	0.39690 0.60310 0.53590 -0.25200
F 	F 	0.43620 0.56380 0.57880 -0.26900
C 	C 	0.42900 0.57100 0.54420 0.46000
C 	C 	0.22255 0.77745 0.97247 0.01700
H 	H 	0.23307 0.76693 0.99483 0.08100
C 	C 	0.19042 0.80958 0.90539 0.06700
C 	C 	0.20667 0.79333 0.84423 -0.00800
H 	H 	0.23447 0.76553 0.85113 0.12300
C 	C 	0.17668 0.82332 0.86856 0.09400
C 	C 	0.13597 0.86403 0.85784 -0.09400
C 	C 	0.10267 0.89733 0.88483 0.41500
F 	F 	0.06357 0.93643 0.86923 -0.25200
F 	F 	0.10287 0.89713 0.91213 -0.26900
C 	C 	0.09567 0.90433 0.87753 0.46100
C 	C 	0.88921 0.11079 0.30581 0.01600
H 	H 	0.89973 0.10027 0.32817 0.08200
C 	C 	0.85708 0.14292 0.23873 0.06800
C 	C 	0.87333 0.12667 0.17757 -0.00700
H 	H 	0.90113 0.09887 0.18447 0.12300
C 	C 	0.84334 0.15666 0.20190 0.09400
C 	C 	0.80263 0.19737 0.19118 -0.09300
C 	C 	0.76933 0.23067 0.21817 0.41500
F 	F 	0.73023 0.26977 0.20257 -0.25200
F 	F 	0.76953 0.23047 0.24547 -0.26900
C 	C 	0.76233 0.23767 0.21087 0.46000
C 	C 	0.55588 0.11176 0.63914 0.01700
H 	H 	0.56640 0.13280 0.66150 0.08100
C 	C 	0.52375 0.04750 0.57206 0.06700
C 	C 	0.54000 0.08000 0.51090 -0.00800
H 	H 	0.56780 0.13560 0.51780 0.12300
C 	C 	0.51001 0.02002 0.53523 0.09400
C 	C 	0.46930 0.93860 0.52451 -0.09300
C 	C 	0.43600 0.87200 0.55150 0.41500
F 	F 	0.39690 0.79380 0.53590 -0.25200
F 	F 	0.43620 0.87240 0.57880 -0.26900
C 	C 	0.42900 0.85800 0.54420 0.46000
C 	C 	0.22255 0.44509 0.97247 0.01700
H 	H 	0.23307 0.46613 0.99483 0.08100
C 	C 	0.19042 0.38083 0.90539 0.06700
C 	C 	0.20667 0.41333 0.84423 -0.00800
H 	H 	0.23447 0.46893 0.85113 0.12300
C 	C 	0.17668 0.35335 0.86856 0.09400
C 	C 	0.13597 0.27193 0.85784 -0.09400
C 	C 	0.10267 0.20533 0.88483 0.41500
F 	F 	0.06357 0.12713 0.86923 -0.25200
F 	F 	0.10287 0.20573 0.91213 -0.26900
C 	C 	0.09567 0.19133 0.87753 0.46100
C 	C 	0.88921 0.77843 0.30581 0.01700
H 	H 	0.89973 0.79947 0.32817 0.08200
C 	C 	0.85708 0.71417 0.23873 0.06800
C 	C 	0.87333 0.74667 0.17757 -0.00700
H 	H 	0.90113 0.80227 0.18447 0.12300
C 	C 	0.84334 0.68669 0.20190 0.09400
C 	C 	0.80263 0.60527 0.19118 -0.09300
C 	C 	0.76933 0.53867 0.21817 0.41500
F 	F 	0.73023 0.46047 0.20257 -0.25200
F 	F 	0.76953 0.53907 0.24547 -0.26900
C 	C 	0.76233 0.52467 0.21087 0.46000
C 	C 	0.88824 0.44412 0.63914 0.01700
H 	H 	0.86720 0.43360 0.66150 0.08100
C 	C 	0.95250 0.47625 0.57206 0.06700
C 	C 	0.92000 0.46000 0.51090 -0.00800
H 	H 	0.86440 0.43220 0.51780 0.12300
C 	C 	0.97998 0.48999 0.53523 0.09400
C 	C 	0.06140 0.53070 0.52451 -0.09300
C 	C 	0.12800 0.56400 0.55150 0.41500
F 	F 	0.20620 0.60310 0.53590 -0.25200
F 	F 	0.12760 0.56380 0.57880 -0.26900
C 	C 	0.14200 0.57100 0.54420 0.46000
C 	C 	0.55491 0.77745 0.97247 0.01700
H 	H 	0.53387 0.76693 0.99483 0.08100
C 	C 	0.61917 0.80958 0.90539 0.06700
C 	C 	0.58667 0.79333 0.84423 -0.00800
H 	H 	0.53107 0.76553 0.85113 0.12300
C 	C 	0.64665 0.82332 0.86856 0.09400
C 	C 	0.72807 0.86403 0.85784 -0.09400
C 	C 	0.79467 0.89733 0.88483 0.41500
F 	F 	0.87287 0.93643 0.86923 -0.25200
F 	F 	0.79427 0.89713 0.91213 -0.26900
C 	C 	0.80867 0.90433 0.87753 0.46100
C 	C 	0.22157 0.11079 0.30581 0.01700
H 	H 	0.20053 0.10027 0.32817 0.08200
C 	C 	0.28583 0.14292 0.23873 0.06800
C 	C 	0.25333 0.12667 0.17757 -0.00700
H 	H 	0.19773 0.09887 0.18447 0.12300
C 	C 	0.31331 0.15666 0.20190 0.09400
C 	C 	0.39473 0.19737 0.19118 -0.09300
C 	C 	0.46133 0.23067 0.21817 0.41500
F 	F 	0.53953 0.26977 0.20257 -0.25200
F 	F 	0.46093 0.23047 0.24547 -0.26900
C 	C 	0.47533 0.23767 0.21087 0.46000
C 	C 	0.44412 0.55588 0.36086 0.01700
H 	H 	0.43360 0.56640 0.33850 0.08200
C 	C 	0.47625 0.52375 0.42794 0.06700
C 	C 	0.46000 0.54000 0.48910 -0.00800
H 	H 	0.43220 0.56780 0.48220 0.12300
C 	C 	0.48999 0.51001 0.46477 0.09400
C 	C 	0.53070 0.46930 0.47549 -0.09300
C 	C 	0.56400 0.43600 0.44850 0.41500
F 	F 	0.60310 0.39690 0.46410 -0.25200
F 	F 	0.56380 0.43620 0.42120 -0.26900
C 	C 	0.57100 0.42900 0.45580 0.46000
C 	C 	0.11079 0.88921 0.69419 0.01600
H 	H 	0.10027 0.89973 0.67183 0.08200
C 	C 	0.14292 0.85708 0.76127 0.06800
C 	C 	0.12667 0.87333 0.82243 -0.00700
H 	H 	0.09887 0.90113 0.81553 0.12300
C 	C 	0.15666 0.84334 0.79810 0.09400
C 	C 	0.19737 0.80263 0.80882 -0.09300
C 	C 	0.23067 0.76933 0.78183 0.41500
F 	F 	0.26977 0.73023 0.79743 -0.25200
F 	F 	0.23047 0.76953 0.75453 -0.26900
C 	C 	0.23767 0.76233 0.78913 0.46000
C 	C 	0.77745 0.22255 0.02753 0.01700
H 	H 	0.76693 0.23307 0.00517 0.08100
C 	C 	0.80958 0.19042 0.09461 0.06700
C 	C 	0.79333 0.20667 0.15577 -0.00800
H 	H 	0.76553 0.23447 0.14887 0.12300
C 	C 	0.82332 0.17668 0.13144 0.09400
C 	C 	0.86403 0.13597 0.14216 -0.09400
C 	C 	0.89733 0.10267 0.11517 0.41500
F 	F 	0.93643 0.06357 0.13077 -0.25200
F 	F 	0.89713 0.10287 0.08787 -0.26900
C 	C 	0.90433 0.09567 0.12247 0.46100
C 	C 	0.11176 0.55588 0.36086 0.01700
H 	H 	0.13280 0.56640 0.33850 0.08100
C 	C 	0.04750 0.52375 0.42794 0.06700
C 	C 	0.08000 0.54000 0.48910 -0.00800
H 	H 	0.13560 0.56780 0.48220 0.12300
C 	C 	0.02002 0.51001 0.46477 0.09400
C 	C 	0.93860 0.46930 0.47549 -0.09300
C 	C 	0.87200 0.43600 0.44850 0.41500
F 	F 	0.79380 0.39690 0.46410 -0.25200
F 	F 	0.87240 0.43620 0.42120 -0.26900
C 	C 	0.85800 0.42900 0.45580 0.46000
C 	C 	0.77843 0.88921 0.69419 0.01700
H 	H 	0.79947 0.89973 0.67183 0.08200
C 	C 	0.71417 0.85708 0.76127 0.06800
C 	C 	0.74667 0.87333 0.82243 -0.00700
H 	H 	0.80227 0.90113 0.81553 0.12300
C 	C 	0.68669 0.84334 0.79810 0.09400
C 	C 	0.60527 0.80263 0.80882 -0.09300
C 	C 	0.53867 0.76933 0.78183 0.41500
F 	F 	0.46047 0.73023 0.79743 -0.25200
F 	F 	0.53907 0.76953 0.75453 -0.26900
C 	C 	0.52467 0.76233 0.78913 0.46000
C 	C 	0.44509 0.22255 0.02753 0.01700
H 	H 	0.46613 0.23307 0.00517 0.08100
C 	C 	0.38083 0.19042 0.09461 0.06700
C 	C 	0.41333 0.20667 0.15577 -0.00800
H 	H 	0.46893 0.23447 0.14887 0.12300
C 	C 	0.35335 0.17668 0.13144 0.09400
C 	C 	0.27193 0.13597 0.14216 -0.09400
C 	C 	0.20533 0.10267 0.11517 0.41500
F 	F 	0.12713 0.06357 0.13077 -0.25200
F 	F 	0.20573 0.10287 0.08787 -0.26900
C 	C 	0.19133 0.09567 0.12247 0.46100
C 	C 	0.44412 0.88824 0.36086 0.01700
H 	H 	0.43360 0.86720 0.33850 0.08100
C 	C 	0.47625 0.95250 0.42794 0.06700
C 	C 	0.46000 0.92000 0.48910 -0.00800
H 	H 	0.43220 0.86440 0.48220 0.12300
C 	C 	0.48999 0.97998 0.46477 0.09400
C 	C 	0.53070 0.06140 0.47549 -0.09300
C 	C 	0.56400 0.12800 0.44850 0.41500
F 	F 	0.60310 0.20620 0.46410 -0.25200
F 	F 	0.56380 0.12760 0.42120 -0.26900
C 	C 	0.57100 0.14200 0.45580 0.46000
C 	C 	0.11079 0.22157 0.69419 0.01700
H 	H 	0.10027 0.20053 0.67183 0.08200
C 	C 	0.14292 0.28583 0.76127 0.06800
C 	C 	0.12667 0.25333 0.82243 -0.00700
H 	H 	0.09887 0.19773 0.81553 0.12300
C 	C 	0.15666 0.31331 0.79810 0.09400
C 	C 	0.19737 0.39473 0.80882 -0.09300
C 	C 	0.23067 0.46133 0.78183 0.41500
F 	F 	0.26977 0.53953 0.79743 -0.25200
F 	F 	0.23047 0.46093 0.75453 -0.26900
C 	C 	0.23767 0.47533 0.78913 0.46000
C 	C 	0.77745 0.55491 0.02753 0.01700
H 	H 	0.76693 0.53387 0.00517 0.08100
C 	C 	0.80958 0.61917 0.09461 0.06700
C 	C 	0.79333 0.58667 0.15577 -0.00800
H 	H 	0.76553 0.53107 0.14887 0.12300
C 	C 	0.82332 0.64665 0.13144 0.09400
C 	C 	0.86403 0.72807 0.14216 -0.09400
C 	C 	0.89733 0.79467 0.11517 0.41500
F 	F 	0.93643 0.87287 0.13077 -0.25200
F 	F 	0.89713 0.79427 0.08787 -0.26900
C 	C 	0.90433 0.80867 0.12247 0.46100
Cu	Cu	0.38149 0.19074 0.69448 0.91500
Cu	Cu	0.04816 0.52408 0.02781 0.91500
Cu	Cu	0.71482 0.85741 0.36114 0.91500
Cu	Cu	0.80925 0.19074 0.69448 0.91500
Cu	Cu	0.47592 0.52408 0.02781 0.91500
Cu	Cu	0.14259 0.85741 0.36114 0.91500
Cu	Cu	0.80925 0.61851 0.69448 0.91500
Cu	Cu	0.47592 0.95184 0.02781 0.91500
Cu	Cu	0.14259 0.28518 0.36114 0.91500
Cu	Cu	0.19074 0.38149 0.30552 0.91500
Cu	Cu	0.85741 0.71482 0.63886 0.91500
Cu	Cu	0.52408 0.04816 0.97219 0.91500
Cu	Cu	0.19074 0.80926 0.30552 0.91500
Cu	Cu	0.85741 0.14259 0.63886 0.91500
Cu	Cu	0.52408 0.47592 0.97219 0.91500
Cu	Cu	0.61851 0.80925 0.30552 0.91500
Cu	Cu	0.28518 0.14259 0.63886 0.91500
Cu	Cu	0.95184 0.47592 0.97219 0.91500
