data_crystal

_cell_length_a 7.75630
_cell_length_b 9.69380
_cell_length_c 9.69380
_cell_angle_alpha 114.10000
_cell_angle_beta  99.30550
_cell_angle_gamma 80.69450

_symmetry_space_group_name_	'P 1'
_symmetry_space_group_name_H-M	'P 1'

loop_
_symmetry_equiv_pos_as_xyz
  x,y,z

loop_
_atom_site_label
_atom_site_type_symbol
_atom_site_fract_x
_atom_site_fract_y
_atom_site_fract_z
_atom_site_charge
Mn	Mn	0.52501 0.44554 0.11214 1.25500
Mn	Mn	0.02501 0.88786 0.55446 1.24200
H 	H 	0.86760 0.47970 0.73470 0.09400
H 	H 	0.01740 0.25360 0.73940 -0.04300
H 	H 	0.83400 0.02700 0.31880 0.03500
H 	H 	0.67620 0.24130 0.30010 0.04000
H 	H 	0.66550 0.67880 0.72460 0.13100
H 	H 	0.36760 0.26530 0.52030 0.06300
H 	H 	0.51740 0.26060 0.74640 0.02000
H 	H 	0.33400 0.68120 0.97300 0.03300
H 	H 	0.17620 0.69990 0.75870 0.02900
H 	H 	0.16550 0.27540 0.32120 0.12200
C 	C 	0.29630 0.70540 0.32240 0.33200
C 	C 	0.43220 0.66930 0.43650 -0.07800
C 	C 	0.42060 0.90760 0.70640 0.30500
C 	C 	0.48190 0.75210 0.59150 -0.00700
C 	C 	0.85720 0.38910 0.64990 -0.13300
C 	C 	0.94730 0.25160 0.65140 0.14600
C 	C 	0.83830 0.11840 0.40340 0.05700
C 	C 	0.74350 0.24700 0.39040 -0.09200
C 	C 	0.75070 0.38650 0.51650 0.03200
C 	C 	0.63880 0.52440 0.50960 0.10600
C 	C 	0.79630 0.67760 0.29460 0.32600
C 	C 	0.93220 0.56350 0.33070 -0.04200
C 	C 	0.92060 0.29360 0.09240 0.34900
C 	C 	0.98190 0.40850 0.24790 0.00700
C 	C 	0.35720 0.35010 0.61090 -0.08800
C 	C 	0.44730 0.34860 0.74840 0.04400
C 	C 	0.33830 0.59660 0.88160 0.04000
C 	C 	0.24350 0.60960 0.75300 -0.07900
C 	C 	0.25070 0.48350 0.61350 0.00300
C 	C 	0.13880 0.49040 0.47560 0.10100
N 	N 	0.53450 0.52800 0.38700 -0.19900
N 	N 	0.61120 0.65800 0.63480 -0.19200
N 	N 	0.93740 0.11710 0.53210 -0.21500
N 	N 	0.03450 0.61300 0.47200 -0.22300
N 	N 	0.11120 0.36520 0.34200 -0.21100
N 	N 	0.43740 0.46790 0.88290 -0.20700
O 	O 	0.29750 0.61120 0.18700 -0.43200
O 	O 	0.19120 0.82620 0.36780 -0.41600
O 	O 	0.25910 0.95410 0.70290 -0.44000
O 	O 	0.54050 0.97830 0.80210 -0.26000
O 	O 	0.79750 0.81300 0.38880 -0.40700
O 	O 	0.69120 0.63220 0.17380 -0.39900
O 	O 	0.75910 0.29710 0.04590 -0.44300
O 	O 	0.04050 0.19790 0.02170 -0.30600
