data_crystal

_cell_length_a 7.84010
_cell_length_b 10.31760
_cell_length_c 15.88090
_cell_angle_alpha 90.00000
_cell_angle_beta  90.00000
_cell_angle_gamma 90.00000

_symmetry_space_group_name_	'P 1'
_symmetry_space_group_name_H-M	'P 1'

loop_
_symmetry_equiv_pos_as_xyz
  x,y,z

loop_
_atom_site_label
_atom_site_type_symbol
_atom_site_fract_x
_atom_site_fract_y
_atom_site_fract_z
_atom_site_charge
Mn	Mn	0.35574 0.02704 0.46966 1.26500
O 	O 	0.84990 0.85930 0.92261 -0.43000
O 	O 	0.96610 0.66380 0.91519 -0.41400
O 	O 	0.93190 0.42267 0.01617 -0.37400
O 	O 	0.66570 0.36470 0.04215 -0.22900
N 	N 	0.38420 0.92410 0.34353 -0.22400
N 	N 	0.68340 0.79910 0.06908 -0.19200
N 	N 	0.63020 0.60760 0.12522 -0.18900
H 	H 	0.58790 0.55000 0.15830 0.12900
C 	C 	0.45040 0.99100 0.27940 0.07200
H 	H 	0.44910 0.08100 0.28240 0.01600
C 	C 	0.52040 0.93390 0.20903 -0.10200
H 	H 	0.56720 0.98460 0.16640 0.05800
C 	C 	0.52030 0.79980 0.20250 0.02300
C 	C 	0.44610 0.73010 0.26744 -0.10600
H 	H 	0.44000 0.64020 0.26470 0.07000
C 	C 	0.38150 0.79500 0.33610 0.06100
H 	H 	0.33350 0.74670 0.37950 0.00300
C 	C 	0.60690 0.73740 0.13149 0.11900
C 	C 	0.76590 0.70460 0.02278 0.09200
C 	C 	0.73220 0.58430 0.05765 -0.02500
C 	C 	0.78160 0.44690 0.03549 0.35000
C 	C 	0.86760 0.74430 0.94821 0.17800
Mn	Mn	0.64426 0.97296 0.96966 1.20900
O 	O 	0.15010 0.14070 0.42261 -0.42700
O 	O 	0.03390 0.33620 0.41519 -0.41100
O 	O 	0.06810 0.57733 0.51617 -0.43900
O 	O 	0.33430 0.63530 0.54215 -0.27300
N 	N 	0.61580 0.07590 0.84353 -0.23900
N 	N 	0.31660 0.20090 0.56908 -0.20000
N 	N 	0.36980 0.39240 0.62522 -0.19500
H 	H 	0.41210 0.45000 0.65830 0.12300
C 	C 	0.54960 0.00900 0.77940 0.03900
H 	H 	0.55090 0.91900 0.78240 0.02700
C 	C 	0.47960 0.06610 0.70903 -0.08600
H 	H 	0.43280 0.01540 0.66640 0.03900
C 	C 	0.47970 0.20020 0.70250 0.01100
C 	C 	0.55390 0.26990 0.76744 -0.10700
H 	H 	0.56000 0.35980 0.76470 0.06000
C 	C 	0.61850 0.20500 0.83610 0.05300
H 	H 	0.66650 0.25330 0.87950 -0.03500
C 	C 	0.39310 0.26260 0.63149 0.11500
C 	C 	0.23410 0.29540 0.52278 -0.08500
C 	C 	0.26780 0.41570 0.55765 -0.00600
C 	C 	0.21840 0.55310 0.53549 0.32600
C 	C 	0.13240 0.25570 0.44821 0.35500
Mn	Mn	0.85574 0.47296 0.46966 1.26700
O 	O 	0.34990 0.64070 0.92261 -0.43000
O 	O 	0.46610 0.83620 0.91519 -0.41300
O 	O 	0.43190 0.07733 0.01617 -0.37300
O 	O 	0.16570 0.13530 0.04215 -0.22800
N 	N 	0.88420 0.57590 0.34353 -0.22300
N 	N 	0.18340 0.70090 0.06908 -0.19200
N 	N 	0.13020 0.89240 0.12522 -0.19100
H 	H 	0.08790 0.95000 0.15830 0.13100
C 	C 	0.95040 0.50900 0.27940 0.05200
H 	H 	0.94910 0.41900 0.28240 0.02500
C 	C 	0.02040 0.56610 0.20903 -0.09100
H 	H 	0.06720 0.51540 0.16640 0.05200
C 	C 	0.02030 0.70020 0.20250 0.02000
C 	C 	0.94610 0.76990 0.26744 -0.10700
H 	H 	0.94000 0.85980 0.26470 0.07000
C 	C 	0.88150 0.70500 0.33610 0.05900
H 	H 	0.83350 0.75330 0.37950 0.00300
C 	C 	0.10690 0.76260 0.13149 0.12100
C 	C 	0.26590 0.79540 0.02278 0.09300
C 	C 	0.23220 0.91570 0.05765 -0.01700
C 	C 	0.28160 0.05310 0.03549 0.34100
C 	C 	0.36760 0.75570 0.94821 0.17700
Mn	Mn	0.14426 0.52704 0.96966 1.20700
O 	O 	0.65010 0.35930 0.42261 -0.42500
O 	O 	0.53390 0.16380 0.41519 -0.41200
O 	O 	0.56810 0.92267 0.51617 -0.43900
O 	O 	0.83430 0.86470 0.54215 -0.27400
N 	N 	0.11580 0.42410 0.84353 -0.24100
N 	N 	0.81660 0.29910 0.56908 -0.20000
N 	N 	0.86980 0.10760 0.62522 -0.19400
H 	H 	0.91210 0.05000 0.65830 0.12200
C 	C 	0.04960 0.49100 0.77940 0.04700
H 	H 	0.05090 0.58100 0.78240 0.02100
C 	C 	0.97960 0.43390 0.70903 -0.09100
H 	H 	0.93280 0.48460 0.66640 0.04100
C 	C 	0.97970 0.29980 0.70250 0.01400
C 	C 	0.05390 0.23010 0.76744 -0.10900
H 	H 	0.06000 0.14020 0.76470 0.06100
C 	C 	0.11850 0.29500 0.83610 0.05400
H 	H 	0.16650 0.24670 0.87950 -0.03600
C 	C 	0.89310 0.23740 0.63149 0.11300
C 	C 	0.73410 0.20460 0.52278 -0.08400
C 	C 	0.76780 0.08430 0.55765 -0.01100
C 	C 	0.71840 0.94690 0.53549 0.33100
C 	C 	0.63240 0.24430 0.44821 0.35400
