data_crystal

_cell_length_a 22.84110
_cell_length_b 12.58250
_cell_length_c 22.97450
_cell_angle_alpha 90.00000
_cell_angle_beta  90.00000
_cell_angle_gamma 90.00000

_symmetry_space_group_name_	'P 1'
_symmetry_space_group_name_H-M	'P 1'

loop_
_symmetry_equiv_pos_as_xyz
  x,y,z

loop_
_atom_site_label
_atom_site_type_symbol
_atom_site_fract_x
_atom_site_fract_y
_atom_site_fract_z
_atom_site_charge
Ag	Ag	0.75343 0.87435 0.53106 0.55700
S 	S 	0.74824 0.25431 0.67837 -0.02100
S 	S 	0.83192 0.50861 0.77557 -0.02300
S 	S 	0.73886 0.75280 0.87308 -0.01500
S 	S 	0.59818 0.49870 0.52039 -0.02100
S 	S 	0.50303 0.26560 0.41699 -0.02300
S 	S 	0.40225 0.00437 0.48830 -0.01700
N 	N 	0.76910 0.00170 0.59960 -0.18800
N 	N 	0.75730 0.00630 0.95560 -0.18100
N 	N 	0.67860 0.75690 0.51650 -0.18300
N 	N 	0.32210 0.75420 0.45780 -0.18700
C 	C 	0.78410 0.07230 0.62560 0.09500
C 	C 	0.80060 0.16290 0.65870 -0.03700
C 	C 	0.79970 0.32730 0.71530 0.01000
C 	C 	0.85410 0.28220 0.71120 -0.06800
H 	H 	0.88790 0.31140 0.72810 0.05300
C 	C 	0.85380 0.18840 0.67920 -0.02500
H 	H 	0.88750 0.14710 0.67260 0.03900
C 	C 	0.78080 0.42180 0.74660 0.00700
C 	C 	0.72570 0.45440 0.75960 -0.04900
H 	H 	0.69200 0.41710 0.74790 0.05100
C 	C 	0.72360 0.54840 0.79190 -0.05000
H 	H 	0.68840 0.58100 0.80350 0.05100
C 	C 	0.77790 0.58830 0.80500 0.00800
C 	C 	0.79250 0.68250 0.83640 0.00900
C 	C 	0.78930 0.84570 0.89590 -0.03600
C 	C 	0.84370 0.82360 0.87700 -0.02800
H 	H 	0.87640 0.86620 0.88540 0.04200
C 	C 	0.84670 0.73010 0.84340 -0.06500
H 	H 	0.88150 0.70310 0.82750 0.05400
C 	C 	0.77110 0.93440 0.92880 0.09000
C 	C 	0.65230 0.68730 0.49850 0.09000
C 	C 	0.61940 0.59990 0.47570 -0.03200
C 	C 	0.60090 0.58520 0.41970 -0.02600
H 	H 	0.60860 0.63310 0.38920 0.04100
C 	C 	0.57000 0.49280 0.41300 -0.06500
H 	H 	0.55480 0.47030 0.37710 0.05300
C 	C 	0.56340 0.43620 0.46330 0.01000
C 	C 	0.53150 0.33780 0.47410 0.00800
C 	C 	0.47440 0.17090 0.46420 0.00700
C 	C 	0.48710 0.19690 0.52020 -0.05100
H 	H 	0.47510 0.15580 0.55220 0.05200
C 	C 	0.52000 0.29160 0.52580 -0.05000
H 	H 	0.53250 0.31940 0.56170 0.05100
C 	C 	0.44350 0.08020 0.44200 0.01100
C 	C 	0.44260 0.04040 0.38760 -0.06800
H 	H 	0.46270 0.07170 0.35640 0.05400
C 	C 	0.40840 0.94700 0.38190 -0.02900
H 	H 	0.40320 0.90970 0.34680 0.04000
C 	C 	0.38430 0.91850 0.43330 -0.03700
C 	C 	0.34920 0.82580 0.44620 0.09200
Ag	Ag	0.74657 0.12565 0.03106 0.55800
S 	S 	0.75176 0.74569 0.17837 -0.02000
S 	S 	0.66808 0.49139 0.27557 -0.02200
S 	S 	0.76114 0.24720 0.37308 -0.01400
S 	S 	0.90182 0.50130 0.02039 -0.02100
S 	S 	0.99697 0.73440 0.91699 -0.02300
S 	S 	0.09775 0.99563 0.98830 -0.01800
N 	N 	0.73090 0.99830 0.09960 -0.18800
N 	N 	0.74270 0.99370 0.45560 -0.18200
N 	N 	0.82140 0.24310 0.01650 -0.18400
N 	N 	0.17790 0.24580 0.95780 -0.18700
C 	C 	0.71590 0.92770 0.12560 0.09500
C 	C 	0.69940 0.83710 0.15870 -0.03700
C 	C 	0.70030 0.67270 0.21530 0.01000
C 	C 	0.64590 0.71780 0.21120 -0.06800
H 	H 	0.61210 0.68860 0.22810 0.05300
C 	C 	0.64620 0.81160 0.17920 -0.02500
H 	H 	0.61250 0.85290 0.17260 0.03900
C 	C 	0.71920 0.57820 0.24660 0.00700
C 	C 	0.77430 0.54560 0.25960 -0.04900
H 	H 	0.80800 0.58290 0.24790 0.05100
C 	C 	0.77640 0.45160 0.29190 -0.05000
H 	H 	0.81160 0.41900 0.30350 0.05100
C 	C 	0.72210 0.41170 0.30500 0.00800
C 	C 	0.70750 0.31750 0.33640 0.00900
C 	C 	0.71070 0.15430 0.39590 -0.03600
C 	C 	0.65630 0.17640 0.37700 -0.02800
H 	H 	0.62360 0.13380 0.38540 0.04200
C 	C 	0.65330 0.26990 0.34340 -0.06600
H 	H 	0.61850 0.29690 0.32750 0.05400
C 	C 	0.72890 0.06560 0.42880 0.09100
C 	C 	0.84770 0.31270 0.99850 0.09100
C 	C 	0.88060 0.40010 0.97570 -0.03200
C 	C 	0.89910 0.41480 0.91970 -0.02600
H 	H 	0.89140 0.36690 0.88920 0.04100
C 	C 	0.93000 0.50720 0.91300 -0.06500
H 	H 	0.94520 0.52970 0.87710 0.05300
C 	C 	0.93660 0.56380 0.96330 0.01000
C 	C 	0.96850 0.66220 0.97410 0.00800
C 	C 	0.02560 0.82910 0.96420 0.00500
C 	C 	0.01290 0.80310 0.02020 -0.04800
H 	H 	0.02490 0.84420 0.05220 0.05200
C 	C 	0.98000 0.70840 0.02580 -0.05100
H 	H 	0.96750 0.68060 0.06170 0.05100
C 	C 	0.05650 0.91980 0.94200 0.01200
C 	C 	0.05740 0.95960 0.88760 -0.07000
H 	H 	0.03730 0.92830 0.85640 0.05400
C 	C 	0.09160 0.05300 0.88190 -0.02800
H 	H 	0.09680 0.09030 0.84680 0.04000
C 	C 	0.11570 0.08150 0.93330 -0.03600
C 	C 	0.15080 0.17420 0.94620 0.09200
Ag	Ag	0.24657 0.37435 0.96894 0.55800
S 	S 	0.25176 0.75431 0.82163 -0.02100
S 	S 	0.16808 0.00861 0.72443 -0.02200
S 	S 	0.26114 0.25280 0.62692 -0.01400
S 	S 	0.40182 0.99870 0.97961 -0.02200
S 	S 	0.49697 0.76560 0.08301 -0.02300
S 	S 	0.59775 0.50437 0.01170 -0.01700
N 	N 	0.23090 0.50170 0.90040 -0.18800
N 	N 	0.24270 0.50630 0.54440 -0.18200
N 	N 	0.32140 0.25690 0.98350 -0.18200
N 	N 	0.67790 0.25420 0.04220 -0.18700
C 	C 	0.21590 0.57230 0.87440 0.09500
C 	C 	0.19940 0.66290 0.84130 -0.03700
C 	C 	0.20030 0.82730 0.78470 0.01000
C 	C 	0.14590 0.78220 0.78880 -0.06800
H 	H 	0.11210 0.81140 0.77190 0.05300
C 	C 	0.14620 0.68840 0.82080 -0.02500
H 	H 	0.11250 0.64710 0.82740 0.03900
C 	C 	0.21920 0.92180 0.75340 0.00600
C 	C 	0.27430 0.95440 0.74040 -0.05000
H 	H 	0.30800 0.91710 0.75210 0.05100
C 	C 	0.27640 0.04840 0.70810 -0.04900
H 	H 	0.31160 0.08100 0.69650 0.05100
C 	C 	0.22210 0.08830 0.69500 0.00800
C 	C 	0.20750 0.18250 0.66360 0.00900
C 	C 	0.21070 0.34570 0.60410 -0.03600
C 	C 	0.15630 0.32360 0.62300 -0.02800
H 	H 	0.12360 0.36620 0.61460 0.04200
C 	C 	0.15330 0.23010 0.65660 -0.06600
H 	H 	0.11850 0.20310 0.67250 0.05400
C 	C 	0.22890 0.43440 0.57120 0.09100
C 	C 	0.34770 0.18730 0.00150 0.08800
C 	C 	0.38060 0.09990 0.02430 -0.03100
C 	C 	0.39910 0.08520 0.08030 -0.02800
H 	H 	0.39140 0.13310 0.11080 0.04100
C 	C 	0.43000 0.99280 0.08700 -0.06300
H 	H 	0.44520 0.97030 0.12290 0.05300
C 	C 	0.43660 0.93620 0.03670 0.01000
C 	C 	0.46850 0.83780 0.02590 0.00900
C 	C 	0.52560 0.67090 0.03580 0.00700
C 	C 	0.51290 0.69690 0.97980 -0.05100
H 	H 	0.52490 0.65580 0.94780 0.05200
C 	C 	0.48000 0.79160 0.97420 -0.05100
H 	H 	0.46750 0.81940 0.93830 0.05100
C 	C 	0.55650 0.58020 0.05800 0.01000
C 	C 	0.55740 0.54040 0.11240 -0.06800
H 	H 	0.53730 0.57170 0.14360 0.05300
C 	C 	0.59160 0.44700 0.11810 -0.03000
H 	H 	0.59680 0.40970 0.15320 0.04000
C 	C 	0.61570 0.41850 0.06670 -0.03700
C 	C 	0.65080 0.32580 0.05380 0.09200
Ag	Ag	0.25343 0.62565 0.46894 0.55800
S 	S 	0.24824 0.24569 0.32163 -0.02100
S 	S 	0.33192 0.99139 0.22443 -0.02200
S 	S 	0.23886 0.74720 0.12692 -0.01400
S 	S 	0.09818 0.00130 0.47961 -0.02100
S 	S 	0.00303 0.23440 0.58301 -0.02300
S 	S 	0.90225 0.49563 0.51170 -0.01700
N 	N 	0.26910 0.49830 0.40040 -0.18800
N 	N 	0.25730 0.49370 0.04440 -0.18200
N 	N 	0.17860 0.74310 0.48350 -0.18300
N 	N 	0.82210 0.74580 0.54220 -0.18700
C 	C 	0.28410 0.42770 0.37440 0.09500
C 	C 	0.30060 0.33710 0.34130 -0.03700
C 	C 	0.29970 0.17270 0.28470 0.01000
C 	C 	0.35410 0.21780 0.28880 -0.06800
H 	H 	0.38790 0.18860 0.27190 0.05300
C 	C 	0.35380 0.31160 0.32080 -0.02500
H 	H 	0.38750 0.35290 0.32740 0.03900
C 	C 	0.28080 0.07820 0.25340 0.00700
C 	C 	0.22570 0.04560 0.24040 -0.05100
H 	H 	0.19200 0.08290 0.25210 0.05100
C 	C 	0.22360 0.95160 0.20810 -0.04900
H 	H 	0.18840 0.91900 0.19650 0.05100
C 	C 	0.27790 0.91170 0.19500 0.00800
C 	C 	0.29250 0.81750 0.16360 0.00900
C 	C 	0.28930 0.65430 0.10410 -0.03600
C 	C 	0.34370 0.67640 0.12300 -0.02800
H 	H 	0.37640 0.63380 0.11460 0.04200
C 	C 	0.34670 0.76990 0.15660 -0.06600
H 	H 	0.38150 0.79690 0.17250 0.05400
C 	C 	0.27110 0.56560 0.07120 0.09100
C 	C 	0.15230 0.81270 0.50150 0.08900
C 	C 	0.11940 0.90010 0.52430 -0.03100
C 	C 	0.10090 0.91480 0.58030 -0.02700
H 	H 	0.10860 0.86690 0.61080 0.04100
C 	C 	0.07000 0.00720 0.58700 -0.06500
H 	H 	0.05480 0.02970 0.62290 0.05300
C 	C 	0.06340 0.06380 0.53670 0.01000
C 	C 	0.03150 0.16220 0.52590 0.00800
C 	C 	0.97440 0.32910 0.53580 0.00700
C 	C 	0.98710 0.30310 0.47980 -0.05100
H 	H 	0.97510 0.34420 0.44780 0.05200
C 	C 	0.02000 0.20840 0.47420 -0.05000
H 	H 	0.03250 0.18060 0.43830 0.05100
C 	C 	0.94350 0.41980 0.55800 0.01000
C 	C 	0.94260 0.45960 0.61240 -0.06800
H 	H 	0.96270 0.42830 0.64360 0.05400
C 	C 	0.90840 0.55300 0.61810 -0.03000
H 	H 	0.90320 0.59030 0.65320 0.04000
C 	C 	0.88430 0.58150 0.56670 -0.03700
C 	C 	0.84920 0.67420 0.55380 0.09200
Ag	Ag	0.24657 0.12565 0.46894 0.55800
S 	S 	0.25176 0.74569 0.32163 -0.02000
S 	S 	0.16808 0.49139 0.22443 -0.02200
S 	S 	0.26114 0.24720 0.12692 -0.01400
S 	S 	0.40182 0.50130 0.47961 -0.02100
S 	S 	0.49697 0.73440 0.58301 -0.02300
S 	S 	0.59775 0.99563 0.51170 -0.01700
N 	N 	0.23090 0.99830 0.40040 -0.18800
N 	N 	0.24270 0.99370 0.04440 -0.18100
N 	N 	0.32140 0.24310 0.48350 -0.18300
N 	N 	0.67790 0.24580 0.54220 -0.18700
C 	C 	0.21590 0.92770 0.37440 0.09500
C 	C 	0.19940 0.83710 0.34130 -0.03700
C 	C 	0.20030 0.67270 0.28470 0.01000
C 	C 	0.14590 0.71780 0.28880 -0.06800
H 	H 	0.11210 0.68860 0.27190 0.05300
C 	C 	0.14620 0.81160 0.32080 -0.02500
H 	H 	0.11250 0.85290 0.32740 0.03900
C 	C 	0.21920 0.57820 0.25340 0.00700
C 	C 	0.27430 0.54560 0.24040 -0.04900
H 	H 	0.30800 0.58290 0.25210 0.05100
C 	C 	0.27640 0.45160 0.20810 -0.05000
H 	H 	0.31160 0.41900 0.19650 0.05100
C 	C 	0.22210 0.41170 0.19500 0.00800
C 	C 	0.20750 0.31750 0.16360 0.00900
C 	C 	0.21070 0.15430 0.10410 -0.03600
C 	C 	0.15630 0.17640 0.12300 -0.02800
H 	H 	0.12360 0.13380 0.11460 0.04200
C 	C 	0.15330 0.26990 0.15660 -0.06500
H 	H 	0.11850 0.29690 0.17250 0.05400
C 	C 	0.22890 0.06560 0.07120 0.09000
C 	C 	0.34770 0.31270 0.50150 0.09000
C 	C 	0.38060 0.40010 0.52430 -0.03200
C 	C 	0.39910 0.41480 0.58030 -0.02600
H 	H 	0.39140 0.36690 0.61080 0.04100
C 	C 	0.43000 0.50720 0.58700 -0.06500
H 	H 	0.44520 0.52970 0.62290 0.05300
C 	C 	0.43660 0.56380 0.53670 0.01000
C 	C 	0.46850 0.66220 0.52590 0.00800
C 	C 	0.52560 0.82910 0.53580 0.00700
C 	C 	0.51290 0.80310 0.47980 -0.05100
H 	H 	0.52490 0.84420 0.44780 0.05200
C 	C 	0.48000 0.70840 0.47420 -0.05000
H 	H 	0.46750 0.68060 0.43830 0.05100
C 	C 	0.55650 0.91980 0.55800 0.01100
C 	C 	0.55740 0.95960 0.61240 -0.06800
H 	H 	0.53730 0.92830 0.64360 0.05400
C 	C 	0.59160 0.05300 0.61810 -0.02900
H 	H 	0.59680 0.09030 0.65320 0.04000
C 	C 	0.61570 0.08150 0.56670 -0.03700
C 	C 	0.65080 0.17420 0.55380 0.09200
Ag	Ag	0.25343 0.87435 0.96894 0.55800
S 	S 	0.24824 0.25431 0.82163 -0.02000
S 	S 	0.33192 0.50861 0.72443 -0.02200
S 	S 	0.23886 0.75280 0.62692 -0.01400
S 	S 	0.09818 0.49870 0.97961 -0.02100
S 	S 	0.00303 0.26560 0.08301 -0.02300
S 	S 	0.90225 0.00437 0.01170 -0.01800
N 	N 	0.26910 0.00170 0.90040 -0.18800
N 	N 	0.25730 0.00630 0.54440 -0.18200
N 	N 	0.17860 0.75690 0.98350 -0.18400
N 	N 	0.82210 0.75420 0.04220 -0.18700
C 	C 	0.28410 0.07230 0.87440 0.09500
C 	C 	0.30060 0.16290 0.84130 -0.03700
C 	C 	0.29970 0.32730 0.78470 0.01000
C 	C 	0.35410 0.28220 0.78880 -0.06800
H 	H 	0.38790 0.31140 0.77190 0.05300
C 	C 	0.35380 0.18840 0.82080 -0.02500
H 	H 	0.38750 0.14710 0.82740 0.03900
C 	C 	0.28080 0.42180 0.75340 0.00700
C 	C 	0.22570 0.45440 0.74040 -0.04900
H 	H 	0.19200 0.41710 0.75210 0.05100
C 	C 	0.22360 0.54840 0.70810 -0.05000
H 	H 	0.18840 0.58100 0.69650 0.05100
C 	C 	0.27790 0.58830 0.69500 0.00800
C 	C 	0.29250 0.68250 0.66360 0.00900
C 	C 	0.28930 0.84570 0.60410 -0.03600
C 	C 	0.34370 0.82360 0.62300 -0.02800
H 	H 	0.37640 0.86620 0.61460 0.04200
C 	C 	0.34670 0.73010 0.65660 -0.06600
H 	H 	0.38150 0.70310 0.67250 0.05400
C 	C 	0.27110 0.93440 0.57120 0.09100
C 	C 	0.15230 0.68730 0.00150 0.09100
C 	C 	0.11940 0.59990 0.02430 -0.03200
C 	C 	0.10090 0.58520 0.08030 -0.02600
H 	H 	0.10860 0.63310 0.11080 0.04100
C 	C 	0.07000 0.49280 0.08700 -0.06500
H 	H 	0.05480 0.47030 0.12290 0.05300
C 	C 	0.06340 0.43620 0.03670 0.01000
C 	C 	0.03150 0.33780 0.02590 0.00800
C 	C 	0.97440 0.17090 0.03580 0.00500
C 	C 	0.98710 0.19690 0.97980 -0.04800
H 	H 	0.97510 0.15580 0.94780 0.05200
C 	C 	0.02000 0.29160 0.97420 -0.05100
H 	H 	0.03250 0.31940 0.93830 0.05100
C 	C 	0.94350 0.08020 0.05800 0.01200
C 	C 	0.94260 0.04040 0.11240 -0.07000
H 	H 	0.96270 0.07170 0.14360 0.05400
C 	C 	0.90840 0.94700 0.11810 -0.02800
H 	H 	0.90320 0.90970 0.15320 0.04000
C 	C 	0.88430 0.91850 0.06670 -0.03600
C 	C 	0.84920 0.82580 0.05380 0.09200
Ag	Ag	0.75343 0.62565 0.03106 0.55800
S 	S 	0.74824 0.24569 0.17837 -0.02100
S 	S 	0.83192 0.99139 0.27557 -0.02200
S 	S 	0.73886 0.74720 0.37308 -0.01400
S 	S 	0.59818 0.00130 0.02039 -0.02200
S 	S 	0.50303 0.23440 0.91699 -0.02300
S 	S 	0.40225 0.49563 0.98830 -0.01700
N 	N 	0.76910 0.49830 0.09960 -0.18800
N 	N 	0.75730 0.49370 0.45560 -0.18200
N 	N 	0.67860 0.74310 0.01650 -0.18200
N 	N 	0.32210 0.74580 0.95780 -0.18700
C 	C 	0.78410 0.42770 0.12560 0.09500
C 	C 	0.80060 0.33710 0.15870 -0.03700
C 	C 	0.79970 0.17270 0.21530 0.01000
C 	C 	0.85410 0.21780 0.21120 -0.06800
H 	H 	0.88790 0.18860 0.22810 0.05300
C 	C 	0.85380 0.31160 0.17920 -0.02500
H 	H 	0.88750 0.35290 0.17260 0.03900
C 	C 	0.78080 0.07820 0.24660 0.00600
C 	C 	0.72570 0.04560 0.25960 -0.05000
H 	H 	0.69200 0.08290 0.24790 0.05100
C 	C 	0.72360 0.95160 0.29190 -0.04900
H 	H 	0.68840 0.91900 0.30350 0.05100
C 	C 	0.77790 0.91170 0.30500 0.00800
C 	C 	0.79250 0.81750 0.33640 0.00900
C 	C 	0.78930 0.65430 0.39590 -0.03600
C 	C 	0.84370 0.67640 0.37700 -0.02800
H 	H 	0.87640 0.63380 0.38540 0.04200
C 	C 	0.84670 0.76990 0.34340 -0.06600
H 	H 	0.88150 0.79690 0.32750 0.05400
C 	C 	0.77110 0.56560 0.42880 0.09100
C 	C 	0.65230 0.81270 0.99850 0.08800
C 	C 	0.61940 0.90010 0.97570 -0.03100
C 	C 	0.60090 0.91480 0.91970 -0.02800
H 	H 	0.60860 0.86690 0.88920 0.04100
C 	C 	0.57000 0.00720 0.91300 -0.06300
H 	H 	0.55480 0.02970 0.87710 0.05300
C 	C 	0.56340 0.06380 0.96330 0.01000
C 	C 	0.53150 0.16220 0.97410 0.00900
C 	C 	0.47440 0.32910 0.96420 0.00700
C 	C 	0.48710 0.30310 0.02020 -0.05100
H 	H 	0.47510 0.34420 0.05220 0.05200
C 	C 	0.52000 0.20840 0.02580 -0.05100
H 	H 	0.53250 0.18060 0.06170 0.05100
C 	C 	0.44350 0.41980 0.94200 0.01000
C 	C 	0.44260 0.45960 0.88760 -0.06800
H 	H 	0.46270 0.42830 0.85640 0.05300
C 	C 	0.40840 0.55300 0.88190 -0.03000
H 	H 	0.40320 0.59030 0.84680 0.04000
C 	C 	0.38430 0.58150 0.93330 -0.03700
C 	C 	0.34920 0.67420 0.94620 0.09200
Ag	Ag	0.74657 0.37435 0.53106 0.55800
S 	S 	0.75176 0.75431 0.67837 -0.02100
S 	S 	0.66808 0.00861 0.77557 -0.02200
S 	S 	0.76114 0.25280 0.87308 -0.01400
S 	S 	0.90182 0.99870 0.52039 -0.02100
S 	S 	0.99697 0.76560 0.41699 -0.02300
S 	S 	0.09775 0.50437 0.48830 -0.01700
N 	N 	0.73090 0.50170 0.59960 -0.18800
N 	N 	0.74270 0.50630 0.95560 -0.18200
N 	N 	0.82140 0.25690 0.51650 -0.18300
N 	N 	0.17790 0.25420 0.45780 -0.18700
C 	C 	0.71590 0.57230 0.62560 0.09500
C 	C 	0.69940 0.66290 0.65870 -0.03700
C 	C 	0.70030 0.82730 0.71530 0.01000
C 	C 	0.64590 0.78220 0.71120 -0.06800
H 	H 	0.61210 0.81140 0.72810 0.05300
C 	C 	0.64620 0.68840 0.67920 -0.02500
H 	H 	0.61250 0.64710 0.67260 0.03900
C 	C 	0.71920 0.92180 0.74660 0.00700
C 	C 	0.77430 0.95440 0.75960 -0.05100
H 	H 	0.80800 0.91710 0.74790 0.05100
C 	C 	0.77640 0.04840 0.79190 -0.04900
H 	H 	0.81160 0.08100 0.80350 0.05100
C 	C 	0.72210 0.08830 0.80500 0.00800
C 	C 	0.70750 0.18250 0.83640 0.00900
C 	C 	0.71070 0.34570 0.89590 -0.03600
C 	C 	0.65630 0.32360 0.87700 -0.02800
H 	H 	0.62360 0.36620 0.88540 0.04200
C 	C 	0.65330 0.23010 0.84340 -0.06600
H 	H 	0.61850 0.20310 0.82750 0.05400
C 	C 	0.72890 0.43440 0.92880 0.09100
C 	C 	0.84770 0.18730 0.49850 0.08900
C 	C 	0.88060 0.09990 0.47570 -0.03100
C 	C 	0.89910 0.08520 0.41970 -0.02700
H 	H 	0.89140 0.13310 0.38920 0.04100
C 	C 	0.93000 0.99280 0.41300 -0.06500
H 	H 	0.94520 0.97030 0.37710 0.05300
C 	C 	0.93660 0.93620 0.46330 0.01000
C 	C 	0.96850 0.83780 0.47410 0.00800
C 	C 	0.02560 0.67090 0.46420 0.00700
C 	C 	0.01290 0.69690 0.52020 -0.05100
H 	H 	0.02490 0.65580 0.55220 0.05200
C 	C 	0.98000 0.79160 0.52580 -0.05000
H 	H 	0.96750 0.81940 0.56170 0.05100
C 	C 	0.05650 0.58020 0.44200 0.01000
C 	C 	0.05740 0.54040 0.38760 -0.06800
H 	H 	0.03730 0.57170 0.35640 0.05400
C 	C 	0.09160 0.44700 0.38190 -0.03000
H 	H 	0.09680 0.40970 0.34680 0.04000
C 	C 	0.11570 0.41850 0.43330 -0.03700
C 	C 	0.15080 0.32580 0.44620 0.09200
