data_crystal

_cell_length_a 9.83850
_cell_length_b 11.06290
_cell_length_c 13.53980
_cell_angle_alpha 66.61000
_cell_angle_beta  85.89800
_cell_angle_gamma 69.71700

_symmetry_space_group_name_	'P 1'
_symmetry_space_group_name_H-M	'P 1'

loop_
_symmetry_equiv_pos_as_xyz
  x,y,z

loop_
_atom_site_label
_atom_site_type_symbol
_atom_site_fract_x
_atom_site_fract_y
_atom_site_fract_z
_atom_site_charge
Co	Co	0.89257 0.02323 0.79748 1.15200
Co	Co	0.82947 0.05518 0.01434 1.16300
Co	Co	0.10743 0.97677 0.20252 1.15200
Co	Co	0.17053 0.94482 0.98566 1.16300
H 	H 	0.95790 0.17200 0.87070 0.25700
H 	H 	0.64740 0.74990 0.10400 0.08400
H 	H 	0.67010 0.36690 0.12530 0.08400
H 	H 	0.87850 0.59130 0.89540 0.05800
H 	H 	0.47840 0.58540 0.33450 0.09900
H 	H 	0.58180 0.66710 0.26570 0.09000
H 	H 	0.79230 0.82930 0.23120 -0.01300
H 	H 	0.64190 0.80510 0.36950 0.08500
H 	H 	0.39560 0.21180 0.21600 0.09300
H 	H 	0.55370 0.22700 0.07940 0.01100
H 	H 	0.44190 0.89160 0.45990 0.06100
H 	H 	0.24920 0.15790 0.34440 0.06200
H 	H 	0.29470 0.83120 0.59170 0.08300
H 	H 	0.13590 0.82160 0.73450 0.00100
H 	H 	0.91910 0.22410 0.57940 -0.01500
H 	H 	0.06520 0.24460 0.44100 0.08800
H 	H 	0.04210 0.82800 0.12930 0.25700
H 	H 	0.35260 0.25010 0.89600 0.08400
H 	H 	0.32990 0.63310 0.87470 0.08400
H 	H 	0.12150 0.40870 0.10460 0.05800
H 	H 	0.52160 0.41460 0.66550 0.09900
H 	H 	0.41820 0.33290 0.73430 0.09000
H 	H 	0.20770 0.17070 0.76880 -0.01300
H 	H 	0.35810 0.19490 0.63050 0.08500
H 	H 	0.60440 0.78820 0.78400 0.09300
H 	H 	0.44630 0.77300 0.92060 0.01100
H 	H 	0.55810 0.10840 0.54010 0.06100
H 	H 	0.75080 0.84210 0.65560 0.06200
H 	H 	0.70530 0.16880 0.40830 0.08300
H 	H 	0.86410 0.17840 0.26550 0.00100
H 	H 	0.08090 0.77590 0.42060 -0.01500
H 	H 	0.93480 0.75540 0.55900 0.08800
C 	C 	0.81130 0.81530 0.94420 0.35100
C 	C 	0.77150 0.68670 0.99460 -0.04700
C 	C 	0.68190 0.67640 0.07900 -0.09800
C 	C 	0.64290 0.55740 0.12690 0.15400
C 	C 	0.69620 0.44830 0.09170 -0.09600
C 	C 	0.78750 0.45780 0.00770 -0.04600
C 	C 	0.82170 0.58080 0.95600 -0.01000
C 	C 	0.50240 0.63380 0.26030 -0.18000
C 	C 	0.36920 0.76100 0.19980 0.39700
C 	C 	0.84540 0.33570 0.97380 0.34100
C 	C 	0.71050 0.90870 0.22750 0.09800
C 	C 	0.62100 0.89360 0.31040 -0.16600
C 	C 	0.50110 0.00530 0.30900 0.11800
C 	C 	0.47690 0.13140 0.22080 -0.15900
C 	C 	0.57200 0.13970 0.13930 0.08600
C 	C 	0.40860 0.98000 0.40040 -0.08900
C 	C 	0.28480 0.07070 0.40470 -0.08400
C 	C 	0.19420 0.04470 0.50070 0.11600
C 	C 	0.21760 0.91330 0.58920 -0.14600
C 	C 	0.12220 0.90790 0.67430 0.06200
C 	C 	0.99760 0.14240 0.58290 0.08200
C 	C 	0.08370 0.15610 0.49970 -0.16400
C 	C 	0.18870 0.18470 0.05580 0.35100
C 	C 	0.22850 0.31330 0.00540 -0.04700
C 	C 	0.31810 0.32360 0.92100 -0.09800
C 	C 	0.35710 0.44260 0.87310 0.15400
C 	C 	0.30380 0.55170 0.90830 -0.09600
C 	C 	0.21250 0.54220 0.99230 -0.04600
C 	C 	0.17830 0.41920 0.04400 -0.01000
C 	C 	0.49760 0.36620 0.73970 -0.18000
C 	C 	0.63080 0.23900 0.80020 0.39700
C 	C 	0.15460 0.66430 0.02620 0.34100
C 	C 	0.28950 0.09130 0.77250 0.09800
C 	C 	0.37900 0.10640 0.68960 -0.16600
C 	C 	0.49890 0.99470 0.69100 0.11800
C 	C 	0.52310 0.86860 0.77920 -0.15900
C 	C 	0.42800 0.86030 0.86070 0.08600
C 	C 	0.59140 0.02000 0.59960 -0.08900
C 	C 	0.71520 0.92930 0.59530 -0.08400
C 	C 	0.80580 0.95530 0.49930 0.11600
C 	C 	0.78240 0.08670 0.41080 -0.14600
C 	C 	0.87780 0.09210 0.32570 0.06200
C 	C 	0.00240 0.85760 0.41710 0.08200
C 	C 	0.91630 0.84390 0.50030 -0.16400
N 	N 	0.68870 0.02960 0.14150 -0.23400
N 	N 	0.01340 0.02440 0.66940 -0.24900
N 	N 	0.31130 0.97040 0.85850 -0.23400
N 	N 	0.98660 0.97560 0.33060 -0.24900
O 	O 	0.86420 0.84040 0.85330 -0.44400
O 	O 	0.79010 0.89140 0.99650 -0.45300
O 	O 	0.55410 0.53440 0.21120 -0.17000
O 	O 	0.29500 0.82000 0.25930 -0.46900
O 	O 	0.34530 0.79430 0.10230 -0.42900
O 	O 	0.84100 0.22030 0.04290 -0.44300
O 	O 	0.89030 0.35470 0.88180 -0.29900
O 	O 	0.97750 0.07940 0.89040 -0.77300
O 	O 	0.13580 0.15960 0.14670 -0.44400
O 	O 	0.20990 0.10860 0.00350 -0.45300
O 	O 	0.44590 0.46560 0.78880 -0.17000
O 	O 	0.70500 0.18000 0.74070 -0.46900
O 	O 	0.65470 0.20570 0.89770 -0.42900
O 	O 	0.15900 0.77970 0.95710 -0.44300
O 	O 	0.10970 0.64530 0.11820 -0.29900
O 	O 	0.02250 0.92060 0.10960 -0.77300
