data_crystal

_cell_length_a 24.58000
_cell_length_b 10.44540
_cell_length_c 22.47770
_cell_angle_alpha 90.00000
_cell_angle_beta  98.32200
_cell_angle_gamma 90.00000

_symmetry_space_group_name_	'P 1'
_symmetry_space_group_name_H-M	'P 1'

loop_
_symmetry_equiv_pos_as_xyz
  x,y,z

loop_
_atom_site_label
_atom_site_type_symbol
_atom_site_fract_x
_atom_site_fract_y
_atom_site_fract_z
_atom_site_charge
W 	W 	0.36112 0.68690 0.17895 0.99300
W 	W 	0.54480 0.66486 0.10821 1.33900
W 	W 	0.45818 0.43756 0.14310 1.26900
W 	W 	0.44853 0.91431 0.14627 1.30100
Co	Co	0.41040 0.44076 0.29176 1.18500
Co	Co	0.40607 0.91184 0.28033 1.17900
O 	O 	0.38170 0.82060 0.12620 -0.44500
O 	O 	0.34680 0.81840 0.23380 -0.47100
O 	O 	0.58760 0.78240 0.15740 -0.49500
O 	O 	0.41640 0.00390 0.20680 -0.52800
O 	O 	0.36990 0.57040 0.24530 -0.49600
O 	O 	0.59550 0.53390 0.13550 -0.46100
O 	O 	0.47340 0.35120 0.33510 -0.53200
O 	O 	0.48460 0.78260 0.10840 -0.50100
O 	O 	0.51800 0.58930 0.19610 -0.78200
O 	O 	0.43770 0.39120 0.21820 -0.55900
O 	O 	0.49210 0.53220 0.08340 -0.45900
O 	O 	0.51860 0.96130 0.18540 -0.53400
O 	O 	0.44810 0.76900 0.22240 -0.80100
O 	O 	0.40500 0.57090 0.14030 -0.47500
O 	O 	0.43830 0.02800 0.08930 -0.51200
O 	O 	0.56320 0.70410 0.03900 -0.51000
O 	O 	0.42260 0.32610 0.09650 -0.47800
Cu	Cu	0.43555 0.17184 0.02987 0.92600
N 	N 	0.35780 0.13980 0.00360 -0.20400
C 	C 	0.32550 0.06150 0.03330 0.08500
H 	H 	0.33620 0.02230 0.07030 0.01200
N 	N 	0.27480 0.05130 0.99850 -0.14000
C 	C 	0.27560 0.12340 0.94740 0.00400
H 	H 	0.24670 0.13330 0.91620 0.01900
C 	C 	0.32690 0.17810 0.95050 -0.00900
H 	H 	0.33870 0.23150 0.92180 0.03600
C 	C 	0.23110 0.97710 0.01360 0.09100
C 	C 	0.17790 0.00980 0.98890 -0.08800
H 	H 	0.17130 0.08160 0.96450 0.07100
C 	C 	0.23990 0.87220 0.05210 -0.08800
H 	H 	0.27550 0.85250 0.06980 0.06000
N 	N 	0.01590 0.67590 0.04260 -0.24400
C 	C 	0.04670 0.78010 0.03460 0.10100
H 	H 	0.03340 0.86080 0.02260 -0.00500
N 	N 	0.10030 0.74610 0.04700 -0.13600
C 	C 	0.10250 0.62100 0.06280 -0.01700
H 	H 	0.13440 0.57320 0.07360 0.02100
C 	C 	0.05040 0.57760 0.06000 0.00200
H 	H 	0.04000 0.49470 0.06860 -0.02100
C 	C 	0.14470 0.82810 0.03820 0.08200
C 	C 	0.13550 0.93420 0.00110 -0.06300
H 	H 	0.09980 0.95440 0.98420 0.08000
C 	C 	0.19790 0.79900 0.06400 -0.06800
H 	H 	0.20450 0.72890 0.08950 0.03700
W 	W 	0.58960 0.44076 0.20824 1.01000
W 	W 	0.59393 0.91184 0.21967 0.98200
W 	W 	0.86112 0.18690 0.17895 0.99600
W 	W 	0.04480 0.16486 0.10821 1.24100
W 	W 	0.95818 0.93756 0.14310 1.33000
W 	W 	0.94853 0.41431 0.14627 1.36000
Co	Co	0.91040 0.94076 0.29176 1.18400
Co	Co	0.90607 0.41184 0.28033 1.18100
O 	O 	0.88170 0.32060 0.12620 -0.45200
O 	O 	0.84680 0.31840 0.23380 -0.47100
O 	O 	0.08760 0.28240 0.15740 -0.48500
O 	O 	0.91640 0.50390 0.20680 -0.52700
O 	O 	0.86990 0.07040 0.24530 -0.49200
O 	O 	0.09550 0.03390 0.13550 -0.44900
O 	O 	0.97340 0.85120 0.33510 -0.48600
O 	O 	0.98460 0.28260 0.10840 -0.45200
O 	O 	0.01800 0.08930 0.19610 -0.76100
O 	O 	0.93770 0.89120 0.21820 -0.54600
O 	O 	0.99210 0.03220 0.08340 -0.40600
O 	O 	0.01860 0.46130 0.18540 -0.57700
O 	O 	0.94810 0.26900 0.22240 -0.72300
O 	O 	0.90500 0.07090 0.14030 -0.47400
O 	O 	0.93830 0.52800 0.08930 -0.50400
O 	O 	0.06320 0.20410 0.03900 -0.51100
O 	O 	0.92260 0.82610 0.09650 -0.47800
Cu	Cu	0.93555 0.67184 0.02987 0.93900
N 	N 	0.85780 0.63980 0.00360 -0.20700
C 	C 	0.82550 0.56150 0.03330 0.07900
H 	H 	0.83620 0.52230 0.07030 0.01200
N 	N 	0.77480 0.55130 0.99850 -0.13600
C 	C 	0.77560 0.62340 0.94740 0.00200
H 	H 	0.74670 0.63330 0.91620 0.02000
C 	C 	0.82690 0.67810 0.95050 0.00000
H 	H 	0.83870 0.73150 0.92180 0.03300
C 	C 	0.73110 0.47710 0.01360 0.09100
C 	C 	0.67790 0.50980 0.98890 -0.08900
H 	H 	0.67130 0.58160 0.96450 0.07300
C 	C 	0.73990 0.37220 0.05210 -0.08800
H 	H 	0.77550 0.35250 0.06980 0.06100
N 	N 	0.51590 0.17590 0.04260 -0.22000
C 	C 	0.54670 0.28010 0.03460 0.10400
H 	H 	0.53340 0.36080 0.02260 0.01500
N 	N 	0.60030 0.24610 0.04700 -0.13400
C 	C 	0.60250 0.12100 0.06280 -0.02100
H 	H 	0.63440 0.07320 0.07360 0.02400
C 	C 	0.55040 0.07760 0.06000 0.01800
H 	H 	0.54000 0.99470 0.06860 -0.01300
C 	C 	0.64470 0.32810 0.03820 0.08000
C 	C 	0.63550 0.43420 0.00110 -0.05400
H 	H 	0.59980 0.45440 0.98420 0.07400
C 	C 	0.69790 0.29900 0.06400 -0.06600
H 	H 	0.70450 0.22890 0.08950 0.03800
W 	W 	0.08960 0.94076 0.20824 0.99400
W 	W 	0.09393 0.41184 0.21967 0.97800
W 	W 	0.63888 0.68690 0.32105 1.02500
W 	W 	0.45520 0.66486 0.39179 1.30300
W 	W 	0.54182 0.43756 0.35690 1.26800
W 	W 	0.55147 0.91431 0.35373 1.31000
O 	O 	0.61830 0.82060 0.37380 -0.44700
O 	O 	0.65320 0.81840 0.26620 -0.44500
O 	O 	0.41240 0.78240 0.34260 -0.52300
O 	O 	0.58360 0.00390 0.29320 -0.49700
O 	O 	0.63010 0.57040 0.25470 -0.47100
O 	O 	0.40450 0.53390 0.36450 -0.48300
O 	O 	0.52660 0.35120 0.16490 -0.50400
O 	O 	0.51540 0.78260 0.39160 -0.49900
O 	O 	0.48200 0.58930 0.30390 -0.80500
O 	O 	0.56230 0.39120 0.28180 -0.53200
O 	O 	0.50790 0.53220 0.41660 -0.45600
O 	O 	0.48140 0.96130 0.31460 -0.56400
O 	O 	0.55190 0.76900 0.27760 -0.77600
O 	O 	0.59500 0.57090 0.35970 -0.47600
O 	O 	0.56170 0.02800 0.41070 -0.51500
O 	O 	0.43680 0.70410 0.46100 -0.50100
O 	O 	0.57740 0.32610 0.40350 -0.47700
Cu	Cu	0.56445 0.17184 0.47013 0.92400
N 	N 	0.64220 0.13980 0.49640 -0.20500
C 	C 	0.67450 0.06150 0.46670 0.07900
H 	H 	0.66380 0.02230 0.42970 0.01300
N 	N 	0.72520 0.05130 0.50150 -0.13500
C 	C 	0.72440 0.12340 0.55260 0.00200
H 	H 	0.75330 0.13330 0.58380 0.01900
C 	C 	0.67310 0.17810 0.54950 -0.00500
H 	H 	0.66130 0.23150 0.57820 0.03300
C 	C 	0.76890 0.97710 0.48640 0.08700
C 	C 	0.82210 0.00980 0.51110 -0.08300
H 	H 	0.82870 0.08160 0.53550 0.07000
C 	C 	0.76010 0.87220 0.44790 -0.08600
H 	H 	0.72450 0.85250 0.43020 0.05800
N 	N 	0.98410 0.67590 0.45740 -0.18900
C 	C 	0.95330 0.78010 0.46540 0.10100
H 	H 	0.96660 0.86080 0.47740 0.03600
N 	N 	0.89970 0.74610 0.45300 -0.13500
C 	C 	0.89750 0.62100 0.43720 -0.01800
H 	H 	0.86560 0.57320 0.42640 0.01700
C 	C 	0.94960 0.57760 0.44000 0.00100
H 	H 	0.96000 0.49470 0.43140 0.01300
C 	C 	0.85530 0.82810 0.46180 0.07900
C 	C 	0.86450 0.93420 0.49890 -0.06000
H 	H 	0.90020 0.95440 0.51580 0.07900
C 	C 	0.80210 0.79900 0.43600 -0.07000
H 	H 	0.79550 0.72890 0.41050 0.03500
W 	W 	0.13888 0.18690 0.32105 1.01900
W 	W 	0.95520 0.16486 0.39179 1.39500
W 	W 	0.04182 0.93756 0.35690 1.18600
W 	W 	0.05147 0.41431 0.35373 1.25600
O 	O 	0.11830 0.32060 0.37380 -0.43900
O 	O 	0.15320 0.31840 0.26620 -0.44200
O 	O 	0.91240 0.28240 0.34260 -0.52600
O 	O 	0.08360 0.50390 0.29320 -0.50300
O 	O 	0.13010 0.07040 0.25470 -0.46300
O 	O 	0.90450 0.03390 0.36450 -0.48900
O 	O 	0.02660 0.85120 0.16490 -0.54500
O 	O 	0.01540 0.28260 0.39160 -0.54200
O 	O 	0.98200 0.08930 0.30390 -0.70400
O 	O 	0.06230 0.89120 0.28180 -0.53500
O 	O 	0.00790 0.03220 0.41660 -0.50300
O 	O 	0.98140 0.46130 0.31460 -0.50900
O 	O 	0.05190 0.26900 0.27760 -0.73500
O 	O 	0.09500 0.07090 0.35970 -0.46500
O 	O 	0.06170 0.52800 0.41070 -0.52700
O 	O 	0.93680 0.20410 0.46100 -0.49400
O 	O 	0.07740 0.82610 0.40350 -0.47500
Cu	Cu	0.06445 0.67184 0.47013 0.91000
N 	N 	0.14220 0.63980 0.49640 -0.20500
C 	C 	0.17450 0.56150 0.46670 0.07800
H 	H 	0.16380 0.52230 0.42970 0.01400
N 	N 	0.22520 0.55130 0.50150 -0.13500
C 	C 	0.22440 0.62340 0.55260 0.00300
H 	H 	0.25330 0.63330 0.58380 0.01900
C 	C 	0.17310 0.67810 0.54950 -0.00700
H 	H 	0.16130 0.73150 0.57820 0.03500
C 	C 	0.26890 0.47710 0.48640 0.08900
C 	C 	0.32210 0.50980 0.51110 -0.08500
H 	H 	0.32870 0.58160 0.53550 0.07100
C 	C 	0.26010 0.37220 0.44790 -0.08700
H 	H 	0.22450 0.35250 0.43020 0.05900
N 	N 	0.48410 0.17590 0.45740 -0.21600
C 	C 	0.45330 0.28010 0.46540 0.09800
H 	H 	0.46660 0.36080 0.47740 0.01700
N 	N 	0.39970 0.24610 0.45300 -0.13500
C 	C 	0.39750 0.12100 0.43720 -0.02300
H 	H 	0.36560 0.07320 0.42640 0.01900
C 	C 	0.44960 0.07760 0.44000 0.00200
H 	H 	0.46000 0.99470 0.43140 -0.00700
C 	C 	0.35530 0.32810 0.46180 0.07700
C 	C 	0.36450 0.43420 0.49890 -0.05800
H 	H 	0.40020 0.45440 0.51580 0.07700
C 	C 	0.30210 0.29900 0.43600 -0.06800
H 	H 	0.29550 0.22890 0.41050 0.03400
W 	W 	0.63888 0.31310 0.82105 0.99400
W 	W 	0.45520 0.33514 0.89179 1.34000
W 	W 	0.54182 0.56244 0.85690 1.27000
W 	W 	0.55147 0.08569 0.85373 1.30300
Co	Co	0.58960 0.55924 0.70824 1.18500
Co	Co	0.59393 0.08816 0.71967 1.17900
O 	O 	0.61830 0.17940 0.87380 -0.44500
O 	O 	0.65320 0.18160 0.76620 -0.47100
O 	O 	0.41240 0.21760 0.84260 -0.49500
O 	O 	0.58360 0.99610 0.79320 -0.52900
O 	O 	0.63010 0.42960 0.75470 -0.49600
O 	O 	0.40450 0.46610 0.86450 -0.46100
O 	O 	0.52660 0.64880 0.66490 -0.53200
O 	O 	0.51540 0.21740 0.89160 -0.50100
O 	O 	0.48200 0.41070 0.80390 -0.78200
O 	O 	0.56230 0.60880 0.78180 -0.55900
O 	O 	0.50790 0.46780 0.91660 -0.45900
O 	O 	0.48140 0.03870 0.81460 -0.53400
O 	O 	0.55190 0.23100 0.77760 -0.80100
O 	O 	0.59500 0.42910 0.85970 -0.47500
O 	O 	0.56170 0.97200 0.91070 -0.51200
O 	O 	0.43680 0.29590 0.96100 -0.51100
O 	O 	0.57740 0.67390 0.90350 -0.47800
Cu	Cu	0.56445 0.82816 0.97013 0.92500
N 	N 	0.64220 0.86020 0.99640 -0.20500
C 	C 	0.67450 0.93850 0.96670 0.08200
H 	H 	0.66380 0.97770 0.92970 0.01300
N 	N 	0.72520 0.94870 0.00150 -0.13700
C 	C 	0.72440 0.87660 0.05260 0.00300
H 	H 	0.75330 0.86670 0.08380 0.01900
C 	C 	0.67310 0.82190 0.04950 -0.00700
H 	H 	0.66130 0.76850 0.07820 0.03500
C 	C 	0.76890 0.02290 0.98640 0.08100
C 	C 	0.82210 0.99020 0.01110 -0.07400
H 	H 	0.82870 0.91840 0.03550 0.06600
C 	C 	0.76010 0.12780 0.94790 -0.07900
H 	H 	0.72450 0.14750 0.93020 0.05600
N 	N 	0.98410 0.32410 0.95740 -0.19200
C 	C 	0.95330 0.21990 0.96540 0.10700
H 	H 	0.96660 0.13920 0.97740 0.03100
N 	N 	0.89970 0.25390 0.95300 -0.13800
C 	C 	0.89750 0.37900 0.93720 -0.01200
H 	H 	0.86560 0.42680 0.92640 0.01900
C 	C 	0.94960 0.42240 0.94000 0.00700
H 	H 	0.96000 0.50530 0.93140 0.01400
C 	C 	0.85530 0.17190 0.96180 0.09100
C 	C 	0.86450 0.06580 0.99890 -0.07800
H 	H 	0.90020 0.04560 0.01580 0.08900
C 	C 	0.80210 0.20100 0.93600 -0.07700
H 	H 	0.79550 0.27110 0.91050 0.04000
W 	W 	0.41040 0.55924 0.79176 1.01100
W 	W 	0.40607 0.08816 0.78033 0.98200
W 	W 	0.13888 0.81310 0.82105 0.98900
W 	W 	0.95520 0.83514 0.89179 1.43200
W 	W 	0.04182 0.06244 0.85690 1.18400
W 	W 	0.05147 0.58569 0.85373 1.25200
Co	Co	0.08960 0.05924 0.70824 1.18200
Co	Co	0.09393 0.58816 0.71967 1.17900
O 	O 	0.11830 0.67940 0.87380 -0.43600
O 	O 	0.15320 0.68160 0.76620 -0.46900
O 	O 	0.91240 0.71760 0.84260 -0.49900
O 	O 	0.08360 0.49610 0.79320 -0.53600
O 	O 	0.13010 0.92960 0.75470 -0.49000
O 	O 	0.90450 0.96610 0.86450 -0.46500
O 	O 	0.02660 0.14880 0.66490 -0.57700
O 	O 	0.01540 0.71740 0.89160 -0.54400
O 	O 	0.98200 0.91070 0.80390 -0.68000
O 	O 	0.06230 0.10880 0.78180 -0.56400
O 	O 	0.00790 0.96780 0.91660 -0.50400
O 	O 	0.98140 0.53870 0.81460 -0.47900
O 	O 	0.05190 0.73100 0.77760 -0.76000
O 	O 	0.09500 0.92910 0.85970 -0.46200
O 	O 	0.06170 0.47200 0.91070 -0.52600
O 	O 	0.93680 0.79590 0.96100 -0.50100
O 	O 	0.07740 0.17390 0.90350 -0.47700
Cu	Cu	0.06445 0.32816 0.97013 0.90900
N 	N 	0.14220 0.36020 0.99640 -0.20800
C 	C 	0.17450 0.43850 0.96670 0.07600
H 	H 	0.16380 0.47770 0.92970 0.01400
N 	N 	0.22520 0.44870 0.00150 -0.13300
C 	C 	0.22440 0.37660 0.05260 0.00300
H 	H 	0.25330 0.36670 0.08380 0.02000
C 	C 	0.17310 0.32190 0.04950 0.00000
H 	H 	0.16130 0.26850 0.07820 0.03500
C 	C 	0.26890 0.52290 0.98640 0.08300
C 	C 	0.32210 0.49020 0.01110 -0.07600
H 	H 	0.32870 0.41840 0.03550 0.06900
C 	C 	0.26010 0.62780 0.94790 -0.08000
H 	H 	0.22450 0.64750 0.93020 0.05800
N 	N 	0.48410 0.82410 0.95740 -0.22000
C 	C 	0.45330 0.71990 0.96540 0.10500
H 	H 	0.46660 0.63920 0.97740 0.01400
N 	N 	0.39970 0.75390 0.95300 -0.13600
C 	C 	0.39750 0.87900 0.93720 -0.02100
H 	H 	0.36560 0.92680 0.92640 0.02400
C 	C 	0.44960 0.92240 0.94000 0.01700
H 	H 	0.46000 0.00530 0.93140 -0.01200
C 	C 	0.35530 0.67190 0.96180 0.08600
C 	C 	0.36450 0.56580 0.99890 -0.06600
H 	H 	0.40020 0.54560 0.01580 0.08000
C 	C 	0.30210 0.70100 0.93600 -0.07300
H 	H 	0.29550 0.77110 0.91050 0.04000
W 	W 	0.91040 0.05924 0.79176 1.00400
W 	W 	0.90607 0.58816 0.78033 0.99000
W 	W 	0.36112 0.31310 0.67895 1.02600
W 	W 	0.54480 0.33514 0.60821 1.30300
W 	W 	0.45818 0.56244 0.64310 1.26800
W 	W 	0.44853 0.08569 0.64627 1.31000
O 	O 	0.38170 0.17940 0.62620 -0.44700
O 	O 	0.34680 0.18160 0.73380 -0.44500
O 	O 	0.58760 0.21760 0.65740 -0.52300
O 	O 	0.41640 0.99610 0.70680 -0.49700
O 	O 	0.36990 0.42960 0.74530 -0.47100
O 	O 	0.59550 0.46610 0.63550 -0.48300
O 	O 	0.47340 0.64880 0.83510 -0.50400
O 	O 	0.48460 0.21740 0.60840 -0.49900
O 	O 	0.51800 0.41070 0.69610 -0.80500
O 	O 	0.43770 0.60880 0.71820 -0.53200
O 	O 	0.49210 0.46780 0.58340 -0.45600
O 	O 	0.51860 0.03870 0.68540 -0.56400
O 	O 	0.44810 0.23100 0.72240 -0.77600
O 	O 	0.40500 0.42910 0.64030 -0.47600
O 	O 	0.43830 0.97200 0.58930 -0.51500
O 	O 	0.56320 0.29590 0.53900 -0.50100
O 	O 	0.42260 0.67390 0.59650 -0.47700
Cu	Cu	0.43555 0.82816 0.52987 0.92500
N 	N 	0.35780 0.86020 0.50360 -0.20500
C 	C 	0.32550 0.93850 0.53330 0.07900
H 	H 	0.33620 0.97770 0.57030 0.01300
N 	N 	0.27480 0.94870 0.49850 -0.13500
C 	C 	0.27560 0.87660 0.44740 0.00200
H 	H 	0.24670 0.86670 0.41620 0.02000
C 	C 	0.32690 0.82190 0.45050 -0.00500
H 	H 	0.33870 0.76850 0.42180 0.03300
C 	C 	0.23110 0.02290 0.51360 0.08900
C 	C 	0.17790 0.99020 0.48890 -0.08500
H 	H 	0.17130 0.91840 0.46450 0.07100
C 	C 	0.23990 0.12780 0.55210 -0.08800
H 	H 	0.27550 0.14750 0.56980 0.05900
N 	N 	0.01590 0.32410 0.54260 -0.24300
C 	C 	0.04670 0.21990 0.53460 0.09400
H 	H 	0.03340 0.13920 0.52260 -0.00200
N 	N 	0.10030 0.25390 0.54700 -0.13500
C 	C 	0.10250 0.37900 0.56280 -0.02400
H 	H 	0.13440 0.42680 0.57360 0.01800
C 	C 	0.05040 0.42240 0.56000 -0.00400
H 	H 	0.04000 0.50530 0.56860 -0.02300
C 	C 	0.14470 0.17190 0.53820 0.07600
C 	C 	0.13550 0.06580 0.50110 -0.05700
H 	H 	0.09980 0.04560 0.48420 0.07600
C 	C 	0.19790 0.20100 0.56400 -0.06700
H 	H 	0.20450 0.27110 0.58950 0.03300
W 	W 	0.86112 0.81310 0.67895 1.02600
W 	W 	0.04480 0.83514 0.60821 1.20300
W 	W 	0.95818 0.06244 0.64310 1.33500
W 	W 	0.94853 0.58569 0.64627 1.36500
O 	O 	0.88170 0.67940 0.62620 -0.45500
O 	O 	0.84680 0.68160 0.73380 -0.44700
O 	O 	0.08760 0.71760 0.65740 -0.51500
O 	O 	0.91640 0.49610 0.70680 -0.49600
O 	O 	0.86990 0.92960 0.74530 -0.46700
O 	O 	0.09550 0.96610 0.63550 -0.47500
O 	O 	0.97340 0.14880 0.83510 -0.45700
O 	O 	0.98460 0.71740 0.60840 -0.45000
O 	O 	0.01800 0.91070 0.69610 -0.78600
O 	O 	0.93770 0.10880 0.71820 -0.51800
O 	O 	0.99210 0.96780 0.58340 -0.40500
O 	O 	0.01860 0.53870 0.68540 -0.60900
O 	O 	0.94810 0.73100 0.72240 -0.69800
O 	O 	0.90500 0.92910 0.64030 -0.47700
O 	O 	0.93830 0.47200 0.58930 -0.50400
O 	O 	0.06320 0.79590 0.53900 -0.50500
O 	O 	0.92260 0.17390 0.59650 -0.47600
Cu	Cu	0.93555 0.32816 0.52987 0.94000
N 	N 	0.85780 0.36020 0.50360 -0.20500
C 	C 	0.82550 0.43850 0.53330 0.07900
H 	H 	0.83620 0.47770 0.57030 0.01200
N 	N 	0.77480 0.44870 0.49850 -0.13500
C 	C 	0.77560 0.37660 0.44740 0.00200
H 	H 	0.74670 0.36670 0.41620 0.02000
C 	C 	0.82690 0.32190 0.45050 -0.00400
H 	H 	0.83870 0.26850 0.42180 0.03200
C 	C 	0.73110 0.52290 0.51360 0.08900
C 	C 	0.67790 0.49020 0.48890 -0.08500
H 	H 	0.67130 0.41840 0.46450 0.07100
C 	C 	0.73990 0.62780 0.55210 -0.08700
H 	H 	0.77550 0.64750 0.56980 0.05900
N 	N 	0.51590 0.82410 0.54260 -0.21600
C 	C 	0.54670 0.71990 0.53460 0.09800
H 	H 	0.53340 0.63920 0.52260 0.01700
N 	N 	0.60030 0.75390 0.54700 -0.13500
C 	C 	0.60250 0.87900 0.56280 -0.02200
H 	H 	0.63440 0.92680 0.57360 0.01800
C 	C 	0.55040 0.92240 0.56000 0.00100
H 	H 	0.54000 0.00530 0.56860 -0.00700
C 	C 	0.64470 0.67190 0.53820 0.07700
C 	C 	0.63550 0.56580 0.50110 -0.05800
H 	H 	0.59980 0.54560 0.48420 0.07700
C 	C 	0.69790 0.70100 0.56400 -0.06800
H 	H 	0.70450 0.77110 0.58950 0.03400
Si	Si	0.50000 0.67910 0.25000 1.98800
K 	K 	0.50000 0.17620 0.25000 0.64600
Si	Si	0.00000 0.17910 0.25000 1.73900
K 	K 	0.00000 0.67620 0.25000 0.63000
Si	Si	0.50000 0.32090 0.75000 1.98800
K 	K 	0.50000 0.82380 0.75000 0.64600
Si	Si	0.00000 0.82090 0.75000 1.73800
K 	K 	0.00000 0.32380 0.75000 0.62900
