data_crystal

_cell_length_a 8.54650
_cell_length_b 15.96830
_cell_length_c 20.72600
_cell_angle_alpha 90.00000
_cell_angle_beta  90.00000
_cell_angle_gamma 90.00000

_symmetry_space_group_name_	'P 1'
_symmetry_space_group_name_H-M	'P 1'

loop_
_symmetry_equiv_pos_as_xyz
  x,y,z

loop_
_atom_site_label
_atom_site_type_symbol
_atom_site_fract_x
_atom_site_fract_y
_atom_site_fract_z
_atom_site_charge
Cr	Cr	0.10970 0.41550 0.21240 1.47200
O 	O 	0.29120 0.43940 0.21550 -0.72800
N 	N 	0.08600 0.91950 0.64790 -0.24300
C 	C 	0.34100 0.67820 0.39620 0.00200
N 	N 	0.42800 0.58090 0.29090 -0.24600
C 	C 	0.47300 0.66300 0.38700 0.16900
H 	H 	0.55030 0.68160 0.41690 -0.02600
C 	C 	0.29700 0.72660 0.45750 -0.02700
C 	C 	0.24100 0.76890 0.49960 -0.07900
C 	C 	0.19600 0.81900 0.55070 0.11600
C 	C 	0.10500 0.78400 0.60280 -0.16800
H 	H 	0.08270 0.72540 0.60410 0.06200
C 	C 	0.05200 0.83630 0.65050 0.05000
H 	H 	0.99220 0.81460 0.68530 -0.02800
C 	C 	0.23200 0.89870 0.55090 -0.21800
H 	H 	0.29640 0.92150 0.51800 0.06800
C 	C 	0.17600 0.94780 0.59850 0.10200
H 	H 	0.20120 0.00570 0.59750 -0.07500
C 	C 	0.23400 0.65800 0.34600 0.03200
H 	H 	0.13130 0.68080 0.34560 -0.02500
C 	C 	0.28100 0.60700 0.30080 -0.05300
H 	H 	0.20390 0.58600 0.27210 -0.02800
C 	C 	0.52100 0.61100 0.32540 0.14700
H 	H 	0.62920 0.60310 0.31600 -0.05400
C 	C 	0.25900 0.60500 0.38180 -0.16300
H 	H 	0.17310 0.58900 0.40800 0.06800
C 	C 	0.30300 0.55680 0.32920 0.09500
H 	H 	0.24630 0.50710 0.31930 -0.04200
C 	C 	0.51100 0.65360 0.30530 -0.07500
H 	H 	0.59670 0.67010 0.27920 0.00100
C 	C 	0.46700 0.70220 0.35800 -0.29100
H 	H 	0.52350 0.75190 0.36780 0.05500
Cr	Cr	0.60970 0.91550 0.71240 1.47500
O 	O 	0.79120 0.93940 0.71550 -0.72100
N 	N 	0.58600 0.41950 0.14790 -0.24100
C 	C 	0.84100 0.17820 0.89620 -0.01000
N 	N 	0.92800 0.08090 0.79090 -0.23600
C 	C 	0.97300 0.16300 0.88700 0.17500
H 	H 	0.05030 0.18160 0.91690 -0.03400
C 	C 	0.79700 0.22660 0.95750 -0.02200
C 	C 	0.74100 0.26890 0.99960 -0.07900
C 	C 	0.69600 0.31900 0.05070 0.10900
C 	C 	0.60500 0.28400 0.10280 -0.16600
H 	H 	0.58270 0.22540 0.10410 0.06300
C 	C 	0.55200 0.33630 0.15050 0.05600
H 	H 	0.49220 0.31460 0.18530 -0.03300
C 	C 	0.73200 0.39870 0.05090 -0.19800
H 	H 	0.79640 0.42150 0.01800 0.05900
C 	C 	0.67600 0.44780 0.09850 0.06700
H 	H 	0.70120 0.50570 0.09750 -0.05300
C 	C 	0.73400 0.15800 0.84600 0.03800
H 	H 	0.63130 0.18080 0.84560 -0.02600
C 	C 	0.78100 0.10700 0.80080 -0.05900
H 	H 	0.70390 0.08600 0.77210 -0.02700
C 	C 	0.02100 0.11100 0.82540 0.12900
H 	H 	0.12920 0.10310 0.81600 -0.05200
C 	C 	0.75900 0.10500 0.88180 -0.16100
H 	H 	0.67310 0.08900 0.90800 0.06700
C 	C 	0.80300 0.05680 0.82920 0.09700
H 	H 	0.74630 0.00710 0.81930 -0.04600
C 	C 	0.01100 0.15360 0.80530 -0.08500
H 	H 	0.09670 0.17010 0.77920 0.00300
C 	C 	0.96700 0.20220 0.85800 -0.26200
H 	H 	0.02350 0.25190 0.86780 0.04100
Cr	Cr	0.89030 0.58450 0.21240 1.47400
O 	O 	0.70880 0.56060 0.21550 -0.72700
N 	N 	0.91400 0.08050 0.64790 -0.23900
C 	C 	0.65900 0.32180 0.39620 0.00500
N 	N 	0.57200 0.41910 0.29090 -0.24600
C 	C 	0.52700 0.33700 0.38700 0.16700
H 	H 	0.44970 0.31840 0.41690 -0.02500
C 	C 	0.70300 0.27340 0.45750 -0.03000
C 	C 	0.75900 0.23110 0.49960 -0.07100
C 	C 	0.80400 0.18100 0.55070 0.10300
C 	C 	0.89500 0.21600 0.60280 -0.16800
H 	H 	0.91730 0.27460 0.60410 0.06700
C 	C 	0.94800 0.16370 0.65050 0.07200
H 	H 	0.00780 0.18540 0.68530 -0.04400
C 	C 	0.76800 0.10130 0.55090 -0.18300
H 	H 	0.70360 0.07850 0.51800 0.05100
C 	C 	0.82400 0.05220 0.59850 0.04200
H 	H 	0.79880 0.99430 0.59750 -0.03700
C 	C 	0.76600 0.34200 0.34600 0.03100
H 	H 	0.86870 0.31920 0.34560 -0.02100
C 	C 	0.71900 0.39300 0.30080 -0.05300
H 	H 	0.79610 0.41400 0.27210 -0.02700
C 	C 	0.47900 0.38900 0.32540 0.14500
H 	H 	0.37080 0.39690 0.31600 -0.05400
C 	C 	0.74100 0.39500 0.38180 -0.16400
H 	H 	0.82690 0.41100 0.40800 0.07200
C 	C 	0.69700 0.44320 0.32920 0.09600
H 	H 	0.75370 0.49290 0.31930 -0.04200
C 	C 	0.48900 0.34640 0.30530 -0.07300
H 	H 	0.40330 0.32990 0.27920 -0.00000
C 	C 	0.53300 0.29780 0.35800 -0.29000
H 	H 	0.47650 0.24810 0.36780 0.05500
Cr	Cr	0.39030 0.08450 0.71240 1.47100
O 	O 	0.20880 0.06060 0.71550 -0.73400
N 	N 	0.41400 0.58050 0.14790 -0.24100
C 	C 	0.15900 0.82180 0.89620 0.01000
N 	N 	0.07200 0.91910 0.79090 -0.24700
C 	C 	0.02700 0.83700 0.88700 0.16600
H 	H 	0.94970 0.81840 0.91690 -0.02100
C 	C 	0.20300 0.77340 0.95750 -0.03200
C 	C 	0.25900 0.73110 0.99960 -0.07300
C 	C 	0.30400 0.68100 0.05070 0.10500
C 	C 	0.39500 0.71600 0.10280 -0.16400
H 	H 	0.41730 0.77460 0.10410 0.06400
C 	C 	0.44800 0.66370 0.15050 0.05500
H 	H 	0.50780 0.68540 0.18530 -0.03300
C 	C 	0.26800 0.60130 0.05090 -0.19600
H 	H 	0.20360 0.57850 0.01800 0.05600
C 	C 	0.32400 0.55220 0.09850 0.06500
H 	H 	0.29880 0.49430 0.09750 -0.05300
C 	C 	0.26600 0.84200 0.84600 0.02700
H 	H 	0.36870 0.81920 0.84560 -0.02100
C 	C 	0.21900 0.89300 0.80080 -0.05000
H 	H 	0.29610 0.91400 0.77210 -0.02600
C 	C 	0.97900 0.88900 0.82540 0.15800
H 	H 	0.87080 0.89690 0.81600 -0.05500
C 	C 	0.24100 0.89500 0.88180 -0.16200
H 	H 	0.32690 0.91100 0.90800 0.07200
C 	C 	0.19700 0.94320 0.82920 0.09300
H 	H 	0.25370 0.99290 0.81930 -0.03500
C 	C 	0.98900 0.84640 0.80530 -0.07300
H 	H 	0.90330 0.82990 0.77920 0.00100
C 	C 	0.03300 0.79780 0.85800 -0.30500
H 	H 	0.97650 0.74810 0.86780 0.06200
Ni	Ni	0.50000 0.50000 0.21830 1.10600
Ni	Ni	0.00000 0.00000 0.71830 1.09700
O 	O 	0.00000 0.50000 0.24120 -0.85200
O 	O 	0.50000 0.00000 0.74120 -0.85700
Cr	Cr	0.89030 0.41550 0.78760 1.47500
O 	O 	0.70880 0.43940 0.78450 -0.72700
N 	N 	0.91400 0.91950 0.35210 -0.24400
C 	C 	0.65900 0.67820 0.60380 0.00300
N 	N 	0.57200 0.58090 0.70910 -0.24500
C 	C 	0.52700 0.66300 0.61300 0.16800
H 	H 	0.44970 0.68160 0.58310 -0.02500
C 	C 	0.70300 0.72660 0.54250 -0.02600
C 	C 	0.75900 0.76890 0.50040 -0.07900
C 	C 	0.80400 0.81900 0.44930 0.12000
C 	C 	0.89500 0.78400 0.39720 -0.17500
H 	H 	0.91730 0.72540 0.39590 0.06800
C 	C 	0.94800 0.83630 0.34950 0.06900
H 	H 	0.00780 0.81460 0.31470 -0.04000
C 	C 	0.76800 0.89870 0.44910 -0.21600
H 	H 	0.70360 0.92150 0.48200 0.06700
C 	C 	0.82400 0.94780 0.40150 0.09600
H 	H 	0.79880 0.00570 0.40250 -0.06800
C 	C 	0.76600 0.65800 0.65400 0.03200
H 	H 	0.86870 0.68080 0.65440 -0.02200
C 	C 	0.71900 0.60700 0.69920 -0.05300
H 	H 	0.79610 0.58600 0.72790 -0.02700
C 	C 	0.47900 0.61100 0.67460 0.14600
H 	H 	0.37080 0.60310 0.68400 -0.05500
C 	C 	0.74100 0.60500 0.61820 -0.16300
H 	H 	0.82690 0.58900 0.59200 0.07100
C 	C 	0.69700 0.55680 0.67080 0.09500
H 	H 	0.75370 0.50710 0.68070 -0.04100
C 	C 	0.48900 0.65360 0.69470 -0.07400
H 	H 	0.40330 0.67010 0.72080 0.00100
C 	C 	0.53300 0.70220 0.64200 -0.29000
H 	H 	0.47650 0.75190 0.63220 0.05500
Cr	Cr	0.39030 0.91550 0.28760 1.47500
O 	O 	0.20880 0.93940 0.28450 -0.72100
N 	N 	0.41400 0.41950 0.85210 -0.24100
C 	C 	0.15900 0.17820 0.10380 0.02200
N 	N 	0.07200 0.08090 0.20910 -0.25700
C 	C 	0.02700 0.16300 0.11300 0.14700
H 	H 	0.94970 0.18160 0.08310 -0.01400
C 	C 	0.20300 0.22660 0.04250 -0.04000
C 	C 	0.25900 0.26890 0.00040 -0.07000
C 	C 	0.30400 0.31900 0.94930 0.10200
C 	C 	0.39500 0.28400 0.89720 -0.16200
H 	H 	0.41730 0.22540 0.89590 0.06100
C 	C 	0.44800 0.33630 0.84950 0.05400
H 	H 	0.50780 0.31460 0.81470 -0.03200
C 	C 	0.26800 0.39870 0.94910 -0.19400
H 	H 	0.20360 0.42150 0.98200 0.05600
C 	C 	0.32400 0.44780 0.90150 0.06400
H 	H 	0.29880 0.50570 0.90250 -0.05300
C 	C 	0.26600 0.15800 0.15400 0.02900
H 	H 	0.36870 0.18080 0.15440 -0.02300
C 	C 	0.21900 0.10700 0.19920 -0.05100
H 	H 	0.29610 0.08600 0.22790 -0.03000
C 	C 	0.97900 0.11100 0.17460 0.15600
H 	H 	0.87080 0.10310 0.18400 -0.06000
C 	C 	0.24100 0.10500 0.11820 -0.17300
H 	H 	0.32690 0.08900 0.09200 0.07000
C 	C 	0.19700 0.05680 0.17080 0.09800
H 	H 	0.25370 0.00710 0.18070 -0.04800
C 	C 	0.98900 0.15360 0.19470 -0.05600
H 	H 	0.90330 0.17010 0.22080 -0.00500
C 	C 	0.03300 0.20220 0.14200 -0.31000
H 	H 	0.97650 0.25190 0.13220 0.06600
Cr	Cr	0.10970 0.58450 0.78760 1.47100
O 	O 	0.29120 0.56060 0.78450 -0.72900
N 	N 	0.08600 0.08050 0.35210 -0.23400
C 	C 	0.34100 0.32180 0.60380 0.00500
N 	N 	0.42800 0.41910 0.70910 -0.24600
C 	C 	0.47300 0.33700 0.61300 0.16800
H 	H 	0.55030 0.31840 0.58310 -0.02500
C 	C 	0.29700 0.27340 0.54250 -0.03500
C 	C 	0.24100 0.23110 0.50040 -0.06700
C 	C 	0.19600 0.18100 0.44930 0.08600
C 	C 	0.10500 0.21600 0.39720 -0.14600
H 	H 	0.08270 0.27460 0.39590 0.05400
C 	C 	0.05200 0.16370 0.34950 0.02900
H 	H 	0.99220 0.18540 0.31470 -0.01800
C 	C 	0.23200 0.10130 0.44910 -0.16800
H 	H 	0.29640 0.07850 0.48200 0.04400
C 	C 	0.17600 0.05220 0.40150 0.02400
H 	H 	0.20120 0.99430 0.40250 -0.03000
C 	C 	0.23400 0.34200 0.65400 0.03100
H 	H 	0.13130 0.31920 0.65440 -0.02500
C 	C 	0.28100 0.39300 0.69920 -0.05200
H 	H 	0.20390 0.41400 0.72790 -0.02900
C 	C 	0.52100 0.38900 0.67460 0.14600
H 	H 	0.62920 0.39690 0.68400 -0.05400
C 	C 	0.25900 0.39500 0.61820 -0.16400
H 	H 	0.17310 0.41100 0.59200 0.06800
C 	C 	0.30300 0.44320 0.67080 0.09500
H 	H 	0.24630 0.49290 0.68070 -0.04200
C 	C 	0.51100 0.34640 0.69470 -0.07300
H 	H 	0.59670 0.32990 0.72080 0.00100
C 	C 	0.46700 0.29780 0.64200 -0.29100
H 	H 	0.52350 0.24810 0.63220 0.05500
Cr	Cr	0.60970 0.08450 0.28760 1.47200
O 	O 	0.79120 0.06060 0.28450 -0.72900
N 	N 	0.58600 0.58050 0.85210 -0.24100
C 	C 	0.84100 0.82180 0.10380 -0.00700
N 	N 	0.92800 0.91910 0.20910 -0.23800
C 	C 	0.97300 0.83700 0.11300 0.18400
H 	H 	0.05030 0.81840 0.08310 -0.03200
C 	C 	0.79700 0.77340 0.04250 -0.02300
C 	C 	0.74100 0.73110 0.00040 -0.07700
C 	C 	0.69600 0.68100 0.94930 0.11000
C 	C 	0.60500 0.71600 0.89720 -0.16600
H 	H 	0.58270 0.77460 0.89590 0.06400
C 	C 	0.55200 0.66370 0.84950 0.05600
H 	H 	0.49220 0.68540 0.81470 -0.03300
C 	C 	0.73200 0.60130 0.94910 -0.19800
H 	H 	0.79640 0.57850 0.98200 0.05900
C 	C 	0.67600 0.55220 0.90150 0.06700
H 	H 	0.70120 0.49430 0.90250 -0.05300
C 	C 	0.73400 0.84200 0.15400 0.03000
H 	H 	0.63130 0.81920 0.15440 -0.02200
C 	C 	0.78100 0.89300 0.19920 -0.05000
H 	H 	0.70390 0.91400 0.22790 -0.02600
C 	C 	0.02100 0.88900 0.17460 0.14100
H 	H 	0.12920 0.89690 0.18400 -0.04900
C 	C 	0.75900 0.89500 0.11820 -0.15400
H 	H 	0.67310 0.91100 0.09200 0.06900
C 	C 	0.80300 0.94320 0.17080 0.09000
H 	H 	0.74630 0.99290 0.18070 -0.03400
C 	C 	0.01100 0.84640 0.19470 -0.08100
H 	H 	0.09670 0.82990 0.22080 0.00300
C 	C 	0.96700 0.79780 0.14200 -0.28500
H 	H 	0.02350 0.74810 0.13220 0.05100
Ni	Ni	0.50000 0.50000 0.78170 1.10600
Ni	Ni	0.00000 0.00000 0.28170 1.09700
O 	O 	0.00000 0.50000 0.75880 -0.85200
O 	O 	0.50000 0.00000 0.25880 -0.85600
