data_crystal

_cell_length_a 11.69360
_cell_length_b 11.69360
_cell_length_c 28.69930
_cell_angle_alpha 90.00000
_cell_angle_beta  90.00000
_cell_angle_gamma 120.00000

_symmetry_space_group_name_	'P 1'
_symmetry_space_group_name_H-M	'P 1'

loop_
_symmetry_equiv_pos_as_xyz
  x,y,z

loop_
_atom_site_label
_atom_site_type_symbol
_atom_site_fract_x
_atom_site_fract_y
_atom_site_fract_z
_atom_site_charge
Ag	Ag	0.73361 0.71374 0.39594 0.50600
Ag	Ag	0.52814 0.78625 0.38383 0.54000
Ag	Ag	0.50019 0.48745 0.37809 0.51100
C 	C 	0.54880 0.63890 0.43190 -0.38800
C 	C 	0.48910 0.64490 0.46510 0.09000
C 	C 	0.41100 0.64010 0.50393 -0.08200
C 	C 	0.44720 0.75240 0.53050 0.06200
H 	H 	0.52130 0.83210 0.52240 0.06600
C 	C 	0.37260 0.74580 0.56920 -0.14200
H 	H 	0.39690 0.82100 0.58700 0.17500
C 	C 	0.26190 0.62680 0.58135 0.17900
C 	C 	0.22570 0.51440 0.55470 -0.16800
H 	H 	0.15170 0.43480 0.56290 0.17700
C 	C 	0.30030 0.52110 0.51600 0.08400
H 	H 	0.27610 0.44590 0.49820 0.04600
C 	C 	0.78220 0.24670 0.64770 0.26700
C 	C 	0.69570 0.17400 0.60330 0.50600
C 	C 	0.77570 0.20280 0.55540 0.36800
C 	C 	0.87820 0.15450 0.54770 0.48400
C 	C 	0.82230 0.00120 0.54690 0.24000
F 	F 	0.63740 0.04850 0.60740 -0.44200
F 	F 	0.61290 0.21680 0.59570 -0.43200
F 	F 	0.84350 0.33640 0.54880 -0.38600
F 	F 	0.68350 0.14760 0.52060 -0.36000
F 	F 	0.93550 0.19880 0.50660 -0.39100
F 	F 	0.96690 0.21100 0.58050 -0.44800
N 	N 	0.18380 0.61660 0.62250 -0.02000
O 	O 	0.21380 0.70930 0.64510 -0.10400
O 	O 	0.09110 0.50690 0.63160 -0.18500
O 	O 	0.82050 0.18330 0.66972 -0.22500
O 	O 	0.80770 0.36160 0.65460 -0.31500
O 	O 	0.83140 0.95240 0.58353 -0.22900
O 	O 	0.76710 0.94130 0.51050 -0.24100
Ag	Ag	0.28626 0.01987 0.06261 0.50000
Ag	Ag	0.21375 0.74189 0.05050 0.53900
Ag	Ag	0.51255 0.01274 0.04476 0.50600
C 	C 	0.36110 0.90990 0.09857 -0.37600
C 	C 	0.35510 0.84420 0.13177 0.08900
C 	C 	0.35990 0.77090 0.17060 -0.07700
C 	C 	0.24760 0.69480 0.19717 0.06000
H 	H 	0.16790 0.68920 0.18907 0.06400
C 	C 	0.25420 0.62680 0.23587 -0.14000
H 	H 	0.17900 0.57590 0.25367 0.17000
C 	C 	0.37320 0.63510 0.24802 0.17900
C 	C 	0.48560 0.71130 0.22137 -0.16500
H 	H 	0.56520 0.71690 0.22957 0.18100
C 	C 	0.47890 0.77920 0.18267 0.08300
H 	H 	0.55410 0.83020 0.16487 0.05200
C 	C 	0.75330 0.53550 0.31437 0.26800
C 	C 	0.82600 0.52170 0.26997 0.50400
C 	C 	0.79720 0.57290 0.22207 0.37200
C 	C 	0.84550 0.72370 0.21437 0.47300
C 	C 	0.99880 0.82110 0.21357 0.29300
F 	F 	0.95150 0.58890 0.27407 -0.43300
F 	F 	0.78320 0.39610 0.26237 -0.43000
F 	F 	0.66360 0.50710 0.21547 -0.38900
F 	F 	0.85240 0.53590 0.18727 -0.35500
F 	F 	0.80120 0.73670 0.17327 -0.38600
F 	F 	0.78900 0.75590 0.24717 -0.44600
N 	N 	0.38340 0.56720 0.28917 -0.02000
O 	O 	0.29070 0.50450 0.31177 -0.10600
O 	O 	0.49310 0.58420 0.29827 -0.17900
O 	O 	0.81670 0.63720 0.33639 -0.22200
O 	O 	0.63840 0.44610 0.32127 -0.31700
O 	O 	0.04760 0.87900 0.25020 -0.25700
O 	O 	0.05870 0.82580 0.17717 -0.26700
Ag	Ag	0.98013 0.26639 0.72927 0.51200
Ag	Ag	0.25811 0.47186 0.71716 0.53600
Ag	Ag	0.98726 0.49981 0.71142 0.51900
C 	C 	0.09010 0.45120 0.76523 -0.39900
C 	C 	0.15580 0.51090 0.79843 0.09400
C 	C 	0.22910 0.58900 0.83726 -0.08700
C 	C 	0.30520 0.55280 0.86383 0.06600
H 	H 	0.31080 0.47870 0.85573 0.06300
C 	C 	0.37320 0.62740 0.90253 -0.14600
H 	H 	0.42410 0.60310 0.92033 0.17500
C 	C 	0.36490 0.73810 0.91468 0.18500
C 	C 	0.28870 0.77430 0.88803 -0.17200
H 	H 	0.28310 0.84830 0.89623 0.18500
C 	C 	0.22080 0.69970 0.84933 0.08900
H 	H 	0.16980 0.72390 0.83153 0.04500
C 	C 	0.46450 0.21780 0.98103 0.26800
C 	C 	0.47830 0.30430 0.93663 0.50400
C 	C 	0.42710 0.22430 0.88873 0.37000
C 	C 	0.27630 0.12180 0.88103 0.47800
C 	C 	0.17890 0.17770 0.88023 0.26500
F 	F 	0.41110 0.36260 0.94073 -0.43700
F 	F 	0.60390 0.38710 0.92903 -0.42900
F 	F 	0.49290 0.15650 0.88213 -0.39100
F 	F 	0.46410 0.31650 0.85393 -0.35800
F 	F 	0.26330 0.06450 0.83993 -0.39600
F 	F 	0.24410 0.03310 0.91383 -0.45500
N 	N 	0.43280 0.81620 0.95583 -0.02200
O 	O 	0.49550 0.78620 0.97843 -0.09900
O 	O 	0.41580 0.90890 0.96493 -0.17300
O 	O 	0.36280 0.17950 0.00305 -0.22600
O 	O 	0.55390 0.19230 0.98793 -0.31800
O 	O 	0.12100 0.16860 0.91686 -0.24900
O 	O 	0.17420 0.23290 0.84383 -0.25900
Ag	Ag	0.71374 0.73361 0.60406 0.50700
Ag	Ag	0.78625 0.52814 0.61617 0.54000
Ag	Ag	0.48745 0.50019 0.62191 0.51100
C 	C 	0.63890 0.54880 0.56810 -0.38800
C 	C 	0.64490 0.48910 0.53490 0.09000
C 	C 	0.64010 0.41100 0.49607 -0.08200
C 	C 	0.75240 0.44720 0.46950 0.06200
H 	H 	0.83210 0.52130 0.47760 0.06600
C 	C 	0.74580 0.37260 0.43080 -0.14200
H 	H 	0.82100 0.39690 0.41300 0.17500
C 	C 	0.62680 0.26190 0.41865 0.17900
C 	C 	0.51440 0.22570 0.44530 -0.16800
H 	H 	0.43480 0.15170 0.43710 0.17700
C 	C 	0.52110 0.30030 0.48400 0.08400
H 	H 	0.44590 0.27610 0.50180 0.04600
C 	C 	0.24670 0.78220 0.35230 0.26700
C 	C 	0.17400 0.69570 0.39670 0.50600
C 	C 	0.20280 0.77570 0.44460 0.36800
C 	C 	0.15450 0.87820 0.45230 0.48400
C 	C 	0.00120 0.82230 0.45310 0.24000
F 	F 	0.04850 0.63740 0.39260 -0.44200
F 	F 	0.21680 0.61290 0.40430 -0.43200
F 	F 	0.33640 0.84350 0.45120 -0.38600
F 	F 	0.14760 0.68350 0.47940 -0.36000
F 	F 	0.19880 0.93550 0.49340 -0.39100
F 	F 	0.21100 0.96690 0.41950 -0.44800
N 	N 	0.61660 0.18380 0.37750 -0.02000
O 	O 	0.70930 0.21380 0.35490 -0.10400
O 	O 	0.50690 0.09110 0.36840 -0.18500
O 	O 	0.18330 0.82050 0.33028 -0.22500
O 	O 	0.36160 0.80770 0.34540 -0.31500
O 	O 	0.95240 0.83140 0.41647 -0.22900
O 	O 	0.94130 0.76710 0.48950 -0.24100
Ag	Ag	0.01987 0.28626 0.93739 0.50000
Ag	Ag	0.74189 0.21375 0.94950 0.53900
Ag	Ag	0.01274 0.51255 0.95524 0.50600
C 	C 	0.90990 0.36110 0.90143 -0.37600
C 	C 	0.84420 0.35510 0.86823 0.08900
C 	C 	0.77090 0.35990 0.82940 -0.07700
C 	C 	0.69480 0.24760 0.80283 0.06000
H 	H 	0.68920 0.16790 0.81093 0.06400
C 	C 	0.62680 0.25420 0.76413 -0.14000
H 	H 	0.57590 0.17900 0.74633 0.17000
C 	C 	0.63510 0.37320 0.75198 0.17900
C 	C 	0.71130 0.48560 0.77863 -0.16500
H 	H 	0.71690 0.56520 0.77043 0.18100
C 	C 	0.77920 0.47890 0.81733 0.08300
H 	H 	0.83020 0.55410 0.83513 0.05200
C 	C 	0.53550 0.75330 0.68563 0.26800
C 	C 	0.52170 0.82600 0.73003 0.50400
C 	C 	0.57290 0.79720 0.77793 0.37200
C 	C 	0.72370 0.84550 0.78563 0.47300
C 	C 	0.82110 0.99880 0.78643 0.29300
F 	F 	0.58890 0.95150 0.72593 -0.43300
F 	F 	0.39610 0.78320 0.73763 -0.43000
F 	F 	0.50710 0.66360 0.78453 -0.38900
F 	F 	0.53590 0.85240 0.81273 -0.35500
F 	F 	0.73670 0.80120 0.82673 -0.38600
F 	F 	0.75590 0.78900 0.75283 -0.44600
N 	N 	0.56720 0.38340 0.71083 -0.02000
O 	O 	0.50450 0.29070 0.68823 -0.10600
O 	O 	0.58420 0.49310 0.70173 -0.17900
O 	O 	0.63720 0.81670 0.66361 -0.22200
O 	O 	0.44610 0.63840 0.67873 -0.31700
O 	O 	0.87900 0.04760 0.74980 -0.25700
O 	O 	0.82580 0.05870 0.82283 -0.26700
Ag	Ag	0.26639 0.98013 0.27073 0.51200
Ag	Ag	0.47186 0.25811 0.28284 0.53600
Ag	Ag	0.49981 0.98726 0.28858 0.51900
C 	C 	0.45120 0.09010 0.23477 -0.39900
C 	C 	0.51090 0.15580 0.20157 0.09400
C 	C 	0.58900 0.22910 0.16274 -0.08700
C 	C 	0.55280 0.30520 0.13617 0.06600
H 	H 	0.47870 0.31080 0.14427 0.06300
C 	C 	0.62740 0.37320 0.09747 -0.14600
H 	H 	0.60310 0.42410 0.07967 0.17500
C 	C 	0.73810 0.36490 0.08532 0.18500
C 	C 	0.77430 0.28870 0.11197 -0.17200
H 	H 	0.84830 0.28310 0.10377 0.18500
C 	C 	0.69970 0.22080 0.15067 0.08900
H 	H 	0.72390 0.16980 0.16847 0.04500
C 	C 	0.21780 0.46450 0.01897 0.26800
C 	C 	0.30430 0.47830 0.06337 0.50400
C 	C 	0.22430 0.42710 0.11127 0.37000
C 	C 	0.12180 0.27630 0.11897 0.47800
C 	C 	0.17770 0.17890 0.11977 0.26500
F 	F 	0.36260 0.41110 0.05927 -0.43700
F 	F 	0.38710 0.60390 0.07097 -0.42900
F 	F 	0.15650 0.49290 0.11787 -0.39100
F 	F 	0.31650 0.46410 0.14607 -0.35800
F 	F 	0.06450 0.26330 0.16007 -0.39600
F 	F 	0.03310 0.24410 0.08617 -0.45500
N 	N 	0.81620 0.43280 0.04417 -0.02200
O 	O 	0.78620 0.49550 0.02157 -0.09900
O 	O 	0.90890 0.41580 0.03507 -0.17300
O 	O 	0.17950 0.36280 0.99695 -0.22600
O 	O 	0.19230 0.55390 0.01207 -0.31800
O 	O 	0.16860 0.12100 0.08314 -0.24900
O 	O 	0.23290 0.17420 0.15617 -0.25900
Ag	Ag	0.72069 0.72069 0.50000 0.50500
Ag	Ag	0.27931 0.00000 0.16667 0.49800
Ag	Ag	0.00000 0.27931 0.83333 0.49800
