data_crystal

_cell_length_a 12.46300
_cell_length_b 12.46300
_cell_length_c 12.46300
_cell_angle_alpha 90.00000
_cell_angle_beta  90.00000
_cell_angle_gamma 90.00000

_symmetry_space_group_name_	'P 1'
_symmetry_space_group_name_H-M	'P 1'

loop_
_symmetry_equiv_pos_as_xyz
  x,y,z

loop_
_atom_site_label
_atom_site_type_symbol
_atom_site_fract_x
_atom_site_fract_y
_atom_site_fract_z
_atom_site_charge
C 	C 	0.69010 0.31920 0.95070 0.02600
C 	C 	0.60230 0.26660 0.90630 0.02600
N 	N 	0.56160 0.17500 0.95530 -0.14500
C 	C 	0.60870 0.13610 0.04860 0.02600
C 	C 	0.69650 0.18870 0.09290 0.02800
N 	N 	0.28030 0.04400 0.73720 -0.14400
C 	C 	0.80990 0.68080 0.45070 0.02600
C 	C 	0.89770 0.73340 0.40630 0.02600
N 	N 	0.93840 0.82500 0.45530 -0.14500
C 	C 	0.89130 0.86390 0.54860 0.02600
C 	C 	0.80350 0.81130 0.59290 0.02800
N 	N 	0.21970 0.95600 0.23720 -0.14600
C 	C 	0.30990 0.81920 0.54930 0.02500
C 	C 	0.39770 0.76660 0.59370 0.02500
N 	N 	0.43840 0.67500 0.54470 -0.14500
C 	C 	0.39130 0.63610 0.45140 0.02500
C 	C 	0.30350 0.68870 0.40710 0.02700
N 	N 	0.71970 0.54400 0.76280 -0.14500
C 	C 	0.19010 0.18080 0.04930 0.02600
C 	C 	0.10230 0.23340 0.09370 0.02500
N 	N 	0.06160 0.32500 0.04470 -0.14500
C 	C 	0.10870 0.36390 0.95140 0.02400
C 	C 	0.19650 0.31130 0.90710 0.02700
N 	N 	0.78030 0.45600 0.26280 -0.14500
C 	C 	0.95070 0.69010 0.31920 0.02500
C 	C 	0.90630 0.60230 0.26660 0.02500
N 	N 	0.95530 0.56160 0.17500 -0.14600
C 	C 	0.04860 0.60870 0.13610 0.02500
C 	C 	0.09290 0.69650 0.18870 0.02700
N 	N 	0.73720 0.28030 0.04400 -0.14500
C 	C 	0.45070 0.80990 0.68080 0.02500
C 	C 	0.40630 0.89770 0.73340 0.02500
N 	N 	0.45530 0.93840 0.82500 -0.14500
C 	C 	0.54860 0.89130 0.86390 0.02600
C 	C 	0.59290 0.80350 0.81130 0.02800
N 	N 	0.23720 0.21970 0.95600 -0.14600
C 	C 	0.54930 0.30990 0.81920 0.02500
C 	C 	0.59370 0.39770 0.76660 0.02500
N 	N 	0.54470 0.43840 0.67500 -0.14500
C 	C 	0.45140 0.39130 0.63610 0.02500
C 	C 	0.40710 0.30350 0.68870 0.02700
N 	N 	0.76280 0.71970 0.54400 -0.14500
C 	C 	0.04930 0.19010 0.18080 0.02600
C 	C 	0.09370 0.10230 0.23340 0.02500
N 	N 	0.04470 0.06160 0.32500 -0.14500
C 	C 	0.95140 0.10870 0.36390 0.02400
C 	C 	0.90710 0.19650 0.31130 0.02700
N 	N 	0.26280 0.78030 0.45600 -0.14500
C 	C 	0.31920 0.95070 0.69010 0.02500
C 	C 	0.26660 0.90630 0.60230 0.02500
N 	N 	0.17500 0.95530 0.56160 -0.14600
C 	C 	0.13610 0.04860 0.60870 0.02500
C 	C 	0.18870 0.09290 0.69650 0.02700
N 	N 	0.04400 0.73720 0.28030 -0.14500
C 	C 	0.68080 0.45070 0.80990 0.02500
C 	C 	0.73340 0.40630 0.89770 0.02500
N 	N 	0.82500 0.45530 0.93840 -0.14500
C 	C 	0.86390 0.54860 0.89130 0.02600
C 	C 	0.81130 0.59290 0.80350 0.02800
N 	N 	0.95600 0.23720 0.21970 -0.14600
C 	C 	0.81920 0.54930 0.30990 0.02500
C 	C 	0.76660 0.59370 0.39770 0.02500
N 	N 	0.67500 0.54470 0.43840 -0.14500
C 	C 	0.63610 0.45140 0.39130 0.02500
C 	C 	0.68870 0.40710 0.30350 0.02700
N 	N 	0.54400 0.76280 0.71970 -0.14500
C 	C 	0.18080 0.04930 0.19010 0.02600
C 	C 	0.23340 0.09370 0.10230 0.02500
N 	N 	0.32500 0.04470 0.06160 -0.14500
C 	C 	0.36390 0.95140 0.10870 0.02400
C 	C 	0.31130 0.90710 0.19650 0.02700
N 	N 	0.45600 0.26280 0.78030 -0.14500
Ag	Ag	0.38770 0.11230 0.88770 0.56200
Ag	Ag	0.11230 0.88770 0.38770 0.56200
Ag	Ag	0.61230 0.61230 0.61230 0.56200
Ag	Ag	0.88770 0.38770 0.11230 0.56200
