data_crystal

_cell_length_a 6.71070
_cell_length_b 18.74310
_cell_length_c 10.28090
_cell_angle_alpha 90.00000
_cell_angle_beta  90.00000
_cell_angle_gamma 90.00000

_symmetry_space_group_name_	'P 1'
_symmetry_space_group_name_H-M	'P 1'

loop_
_symmetry_equiv_pos_as_xyz
  x,y,z

loop_
_atom_site_label
_atom_site_type_symbol
_atom_site_fract_x
_atom_site_fract_y
_atom_site_fract_z
_atom_site_charge
O 	O 	0.15620 0.83250 0.15800 -0.46100
C 	C 	0.80400 0.96380 0.02600 0.02600
O 	O 	0.65620 0.33250 0.65800 -0.46300
C 	C 	0.30400 0.46380 0.52600 0.04000
O 	O 	0.84380 0.66750 0.15800 -0.47200
C 	C 	0.19600 0.53620 0.02600 0.03600
O 	O 	0.34380 0.16750 0.65800 -0.45900
C 	C 	0.69600 0.03620 0.52600 0.03400
O 	O 	0.84380 0.33250 0.84200 -0.47200
C 	C 	0.19600 0.46380 0.97400 0.03600
O 	O 	0.34380 0.83250 0.34200 -0.45900
C 	C 	0.69600 0.96380 0.47400 0.03400
O 	O 	0.15620 0.16750 0.84200 -0.46000
C 	C 	0.80400 0.03620 0.97400 0.02700
O 	O 	0.65620 0.66750 0.34200 -0.46300
C 	C 	0.30400 0.53620 0.47400 0.04000
O 	O 	0.84380 0.16750 0.84200 -0.47200
C 	C 	0.19600 0.03620 0.97400 0.03600
O 	O 	0.34380 0.66750 0.34200 -0.45900
C 	C 	0.69600 0.53620 0.47400 0.03400
O 	O 	0.15620 0.33250 0.84200 -0.46000
C 	C 	0.80400 0.46380 0.97400 0.02700
O 	O 	0.65620 0.83250 0.34200 -0.46300
C 	C 	0.30400 0.96380 0.47400 0.04000
O 	O 	0.15620 0.66750 0.15800 -0.46000
C 	C 	0.80400 0.53620 0.02600 0.02700
O 	O 	0.65620 0.16750 0.65800 -0.46300
C 	C 	0.30400 0.03620 0.52600 0.04000
O 	O 	0.84380 0.83250 0.15800 -0.47200
C 	C 	0.19600 0.96380 0.02600 0.03600
O 	O 	0.34380 0.33250 0.65800 -0.45900
C 	C 	0.69600 0.46380 0.52600 0.03400
V 	V 	0.25000 0.75000 0.25000 1.86000
V 	V 	0.75000 0.75000 0.25000 1.85800
V 	V 	0.75000 0.25000 0.75000 1.85800
V 	V 	0.25000 0.25000 0.75000 1.86000
O 	O 	0.00000 0.75000 0.30697 -0.68900
O 	O 	0.50000 0.25000 0.80697 -0.69800
O 	O 	-0.00000 0.25000 0.69303 -0.68900
O 	O 	0.50000 0.75000 0.19303 -0.69800
C 	C 	-0.00000 0.94000 0.04300 -0.09700
C 	C 	-0.00000 0.87080 0.11700 0.38500
C 	C 	0.50000 0.44000 0.54300 -0.10800
C 	C 	0.50000 0.37080 0.61700 0.37200
C 	C 	-0.00000 0.56000 0.04300 -0.09700
C 	C 	-0.00000 0.62920 0.11700 0.38500
C 	C 	0.50000 0.06000 0.54300 -0.10800
C 	C 	0.50000 0.12920 0.61700 0.37200
C 	C 	-0.00000 0.44000 0.95700 -0.09700
C 	C 	-0.00000 0.37080 0.88300 0.38500
C 	C 	0.50000 0.94000 0.45700 -0.10800
C 	C 	0.50000 0.87080 0.38300 0.37200
C 	C 	-0.00000 0.06000 0.95700 -0.09700
C 	C 	-0.00000 0.12920 0.88300 0.38500
C 	C 	0.50000 0.56000 0.45700 -0.10800
C 	C 	0.50000 0.62920 0.38300 0.37200
