data_crystal

_cell_length_a 7.37440
_cell_length_b 7.37440
_cell_length_c 45.75800
_cell_angle_alpha 90.00000
_cell_angle_beta  90.00000
_cell_angle_gamma 120.00000

_symmetry_space_group_name_	'P 1'
_symmetry_space_group_name_H-M	'P 1'

loop_
_symmetry_equiv_pos_as_xyz
  x,y,z

loop_
_atom_site_label
_atom_site_type_symbol
_atom_site_fract_x
_atom_site_fract_y
_atom_site_fract_z
_atom_site_charge
C 	C 	0.51490 0.90070 0.14277 -0.13300
N 	N 	0.62770 0.04110 0.12849 -0.24600
C 	C 	0.18157 0.23403 0.47610 -0.31300
N 	N 	0.29437 0.37443 0.46182 -0.17400
C 	C 	0.84823 0.56737 0.80944 -0.20800
N 	N 	0.96103 0.70777 0.79516 -0.09100
C 	C 	0.09930 0.61420 0.14277 -0.34000
N 	N 	0.95890 0.58660 0.12849 -0.08900
C 	C 	0.76597 0.94753 0.47610 -0.13100
N 	N 	0.62557 0.91993 0.46182 -0.17100
C 	C 	0.43263 0.28087 0.80944 -0.25100
N 	N 	0.29223 0.25327 0.79516 -0.16800
C 	C 	0.38580 0.48510 0.14277 -0.25200
N 	N 	0.41340 0.37230 0.12849 -0.18900
C 	C 	0.05247 0.81843 0.47610 -0.23000
N 	N 	0.08007 0.70563 0.46182 -0.19500
C 	C 	0.71913 0.15177 0.80944 -0.24000
N 	N 	0.74673 0.03897 0.79516 -0.15200
C 	C 	0.90070 0.51490 0.35723 -0.13100
N 	N 	0.04110 0.62770 0.37151 -0.24600
C 	C 	0.56737 0.84823 0.69056 -0.20800
N 	N 	0.70777 0.96103 0.70484 -0.09100
C 	C 	0.23403 0.18157 0.02390 -0.31300
N 	N 	0.37443 0.29437 0.03818 -0.17400
C 	C 	0.61420 0.09930 0.35723 -0.34000
N 	N 	0.58660 0.95890 0.37151 -0.08900
C 	C 	0.28087 0.43263 0.69056 -0.25100
N 	N 	0.25327 0.29223 0.70484 -0.16800
C 	C 	0.94753 0.76597 0.02390 -0.13200
N 	N 	0.91993 0.62557 0.03818 -0.17100
C 	C 	0.48510 0.38580 0.35723 -0.25200
N 	N 	0.37230 0.41340 0.37151 -0.18900
C 	C 	0.15177 0.71913 0.69056 -0.24000
N 	N 	0.03897 0.74673 0.70484 -0.15200
C 	C 	0.81843 0.05247 0.02390 -0.23100
N 	N 	0.70563 0.08007 0.03818 -0.19500
C 	C 	0.48510 0.09930 0.85723 -0.35100
N 	N 	0.37230 0.95890 0.87151 -0.10300
C 	C 	0.15177 0.43263 0.19056 -0.25900
N 	N 	0.03897 0.29223 0.20484 -0.18500
C 	C 	0.81843 0.76597 0.52390 -0.13900
N 	N 	0.70563 0.62557 0.53818 -0.18600
C 	C 	0.90070 0.38580 0.85723 -0.13800
N 	N 	0.04110 0.41340 0.87151 -0.26200
C 	C 	0.56737 0.71913 0.19056 -0.21600
N 	N 	0.70777 0.74673 0.20484 -0.10700
C 	C 	0.23403 0.05247 0.52390 -0.32200
N 	N 	0.37443 0.08007 0.53818 -0.18900
C 	C 	0.61420 0.51490 0.85723 -0.23400
N 	N 	0.58660 0.62770 0.87151 -0.15800
C 	C 	0.28087 0.84823 0.19056 -0.22500
N 	N 	0.25327 0.96103 0.20484 -0.11900
C 	C 	0.94753 0.18157 0.52390 -0.21200
N 	N 	0.91993 0.29437 0.53818 -0.16600
C 	C 	0.09930 0.48510 0.64277 -0.35200
N 	N 	0.95890 0.37230 0.62849 -0.10300
C 	C 	0.76597 0.81843 0.97610 -0.13800
N 	N 	0.62557 0.70563 0.96182 -0.18600
C 	C 	0.43263 0.15177 0.30944 -0.25900
N 	N 	0.29223 0.03897 0.29516 -0.18500
C 	C 	0.38580 0.90070 0.64277 -0.13800
N 	N 	0.41340 0.04110 0.62849 -0.26200
C 	C 	0.05247 0.23403 0.97610 -0.32000
N 	N 	0.08007 0.37443 0.96182 -0.18900
C 	C 	0.71913 0.56737 0.30944 -0.21600
N 	N 	0.74673 0.70777 0.29516 -0.10700
C 	C 	0.51490 0.61420 0.64277 -0.23400
N 	N 	0.62770 0.58660 0.62849 -0.15800
C 	C 	0.18157 0.94753 0.97610 -0.21100
N 	N 	0.29437 0.91993 0.96182 -0.16600
C 	C 	0.84823 0.28087 0.30944 -0.22500
N 	N 	0.96103 0.25327 0.29516 -0.11900
Fe	Fe	0.33333 0.66667 0.16667 1.17700
Fe	Fe	-0.00000 0.00000 0.50000 1.07100
Fe	Fe	0.66667 0.33333 0.33333 1.17700
Fe	Fe	0.33333 0.66667 0.66667 1.17700
Fe	Fe	0.66667 0.33333 0.83333 1.17700
Fe	Fe	-0.00000 0.00000 -0.00000 1.07000
Ba	Ba	0.66667 0.33333 0.08333 1.35900
Ba	Ba	0.00000 0.00000 0.75000 1.00100
Ba	Ba	0.33333 0.66667 0.41667 1.35900
Ba	Ba	0.33333 0.66667 0.91667 1.35900
Ba	Ba	-0.00000 0.00000 0.25000 0.99900
Ba	Ba	0.66667 0.33333 0.58333 1.35900
