data_crystal

_cell_length_a 19.56100
_cell_length_b 15.25500
_cell_length_c 23.40400
_cell_angle_alpha 90.00000
_cell_angle_beta  90.00000
_cell_angle_gamma 90.00000

_symmetry_space_group_name_	'P 1'
_symmetry_space_group_name_H-M	'P 1'

loop_
_symmetry_equiv_pos_as_xyz
  x,y,z

loop_
_atom_site_label
_atom_site_type_symbol
_atom_site_fract_x
_atom_site_fract_y
_atom_site_fract_z
_atom_site_charge
O 	O 	0.05610 0.35070 0.76770 -0.48500
C 	C 	0.06330 0.66770 0.98610 -0.34700
C 	C 	0.05710 0.55400 0.88710 -0.04800
C 	C 	0.05720 0.48670 0.84740 0.02200
O 	O 	0.32760 0.78040 0.19330 -0.24900
O 	O 	0.36110 0.81900 0.13970 -0.32400
H 	H 	0.06340 0.61450 0.01050 0.12800
H 	H 	0.10540 0.66190 0.96300 0.12700
H 	H 	0.10150 0.57500 0.90120 0.03800
H 	H 	0.10250 0.46470 0.83410 0.04300
O 	O 	0.55610 0.85070 0.26770 -0.48700
C 	C 	0.56330 0.16770 0.48610 -0.35100
C 	C 	0.55710 0.05400 0.38710 -0.04600
C 	C 	0.55720 0.98670 0.34740 0.02100
O 	O 	0.82760 0.28040 0.69330 -0.24800
O 	O 	0.86110 0.31900 0.63970 -0.32300
H 	H 	0.56340 0.11450 0.51050 0.12900
H 	H 	0.60540 0.16190 0.46300 0.12800
H 	H 	0.60150 0.07500 0.40120 0.03800
H 	H 	0.60250 0.96470 0.33410 0.04300
O 	O 	0.94390 0.14930 0.76770 -0.48500
C 	C 	0.93670 0.83230 0.98610 -0.34600
C 	C 	0.94290 0.94600 0.88710 -0.04400
C 	C 	0.94280 0.01330 0.84740 0.02100
O 	O 	0.67240 0.71960 0.19330 -0.24900
O 	O 	0.63890 0.68100 0.13970 -0.32400
H 	H 	0.93660 0.88550 0.01050 0.12700
H 	H 	0.89460 0.83810 0.96300 0.12700
H 	H 	0.89850 0.92500 0.90120 0.03700
H 	H 	0.89750 0.03530 0.83410 0.04300
O 	O 	0.44390 0.64930 0.26770 -0.48700
C 	C 	0.43670 0.33230 0.48610 -0.35100
C 	C 	0.44290 0.44600 0.38710 -0.04700
C 	C 	0.44280 0.51330 0.34740 0.02200
O 	O 	0.17240 0.21960 0.69330 -0.24900
O 	O 	0.13890 0.18100 0.63970 -0.32400
H 	H 	0.43660 0.38550 0.51050 0.12900
H 	H 	0.39460 0.33810 0.46300 0.12800
H 	H 	0.39850 0.42500 0.40120 0.03800
H 	H 	0.39750 0.53530 0.33410 0.04300
O 	O 	0.05610 0.14930 0.76770 -0.48600
C 	C 	0.06330 0.83230 0.98610 -0.34700
C 	C 	0.05710 0.94600 0.88710 -0.04500
C 	C 	0.05720 0.01330 0.84740 0.02000
O 	O 	0.32760 0.71960 0.19330 -0.24900
O 	O 	0.36110 0.68100 0.13970 -0.32400
H 	H 	0.06340 0.88550 0.01050 0.12700
H 	H 	0.10540 0.83810 0.96300 0.12700
H 	H 	0.10150 0.92500 0.90120 0.03800
H 	H 	0.10250 0.03530 0.83410 0.04300
O 	O 	0.55610 0.64930 0.26770 -0.48700
C 	C 	0.56330 0.33230 0.48610 -0.35100
C 	C 	0.55710 0.44600 0.38710 -0.04700
C 	C 	0.55720 0.51330 0.34740 0.02200
O 	O 	0.82760 0.21960 0.69330 -0.24900
O 	O 	0.86110 0.18100 0.63970 -0.32300
H 	H 	0.56340 0.38550 0.51050 0.12900
H 	H 	0.60540 0.33810 0.46300 0.12800
H 	H 	0.60150 0.42500 0.40120 0.03800
H 	H 	0.60250 0.53530 0.33410 0.04300
O 	O 	0.94390 0.35070 0.76770 -0.48500
C 	C 	0.93670 0.66770 0.98610 -0.34700
C 	C 	0.94290 0.55400 0.88710 -0.04600
C 	C 	0.94280 0.48670 0.84740 0.02300
O 	O 	0.67240 0.78040 0.19330 -0.24900
O 	O 	0.63890 0.81900 0.13970 -0.32400
H 	H 	0.93660 0.61450 0.01050 0.12800
H 	H 	0.89460 0.66190 0.96300 0.12700
H 	H 	0.89850 0.57500 0.90120 0.03800
H 	H 	0.89750 0.46470 0.83410 0.04300
O 	O 	0.44390 0.85070 0.26770 -0.48700
C 	C 	0.43670 0.16770 0.48610 -0.35100
C 	C 	0.44290 0.05400 0.38710 -0.04600
C 	C 	0.44280 0.98670 0.34740 0.02100
O 	O 	0.17240 0.28040 0.69330 -0.24900
O 	O 	0.13890 0.31900 0.63970 -0.32400
H 	H 	0.43660 0.11450 0.51050 0.12900
H 	H 	0.39460 0.16190 0.46300 0.12800
H 	H 	0.39850 0.07500 0.40120 0.03800
H 	H 	0.39750 0.96470 0.33410 0.04300
Zn	Zn	0.07650 0.25000 0.71620 1.24400
Zn	Zn	0.57650 0.75000 0.21620 1.24400
Zn	Zn	0.92350 0.25000 0.71620 1.24500
Zn	Zn	0.42350 0.75000 0.21620 1.24400
O 	O 	-0.00000 0.25000 0.66500 -0.49200
O 	O 	0.50000 0.75000 0.16500 -0.49100
C 	C 	0.06530 0.75000 0.02250 0.22600
C 	C 	0.12920 0.75000 0.06080 -0.03600
C 	C 	0.18950 0.75000 0.03310 -0.05900
C 	C 	0.24930 0.75000 0.06160 0.03600
C 	C 	0.25260 0.75000 0.11900 -0.12500
C 	C 	0.19420 0.75000 0.14900 0.05700
C 	C 	0.13640 0.75000 0.11790 -0.06000
C 	C 	0.32700 0.75000 0.14410 0.58100
H 	H 	0.96010 0.75000 0.88380 0.14700
H 	H 	0.19330 0.75000 0.99100 0.04400
H 	H 	0.29320 0.75000 0.04360 0.03900
H 	H 	0.18880 0.75000 0.19220 0.03600
H 	H 	0.09140 0.75000 0.13740 0.04600
C 	C 	0.56530 0.25000 0.52250 0.22900
C 	C 	0.62920 0.25000 0.56080 -0.03900
C 	C 	0.68950 0.25000 0.53310 -0.05700
C 	C 	0.74930 0.25000 0.56160 0.03400
C 	C 	0.75260 0.25000 0.61900 -0.12400
C 	C 	0.69420 0.25000 0.64900 0.05500
C 	C 	0.63640 0.25000 0.61790 -0.05800
C 	C 	0.82700 0.25000 0.64410 0.58000
H 	H 	0.46010 0.25000 0.38380 0.14600
H 	H 	0.69330 0.25000 0.49100 0.04200
H 	H 	0.79320 0.25000 0.54360 0.04000
H 	H 	0.68880 0.25000 0.69220 0.03600
H 	H 	0.59140 0.25000 0.63740 0.04500
C 	C 	0.93470 0.75000 0.02250 0.22600
C 	C 	0.87080 0.75000 0.06080 -0.03600
C 	C 	0.81050 0.75000 0.03310 -0.06000
C 	C 	0.75070 0.75000 0.06160 0.03600
C 	C 	0.74740 0.75000 0.11900 -0.12500
C 	C 	0.80580 0.75000 0.14900 0.05700
C 	C 	0.86360 0.75000 0.11790 -0.06000
C 	C 	0.67300 0.75000 0.14410 0.58100
H 	H 	0.03990 0.75000 0.88380 0.14600
H 	H 	0.80670 0.75000 0.99100 0.04400
H 	H 	0.70680 0.75000 0.04360 0.03900
H 	H 	0.81120 0.75000 0.19220 0.03600
H 	H 	0.90860 0.75000 0.13740 0.04600
C 	C 	0.43470 0.25000 0.52250 0.22900
C 	C 	0.37080 0.25000 0.56080 -0.03900
C 	C 	0.31050 0.25000 0.53310 -0.05700
C 	C 	0.25070 0.25000 0.56160 0.03400
C 	C 	0.24740 0.25000 0.61900 -0.12400
C 	C 	0.30580 0.25000 0.64900 0.05600
C 	C 	0.36360 0.25000 0.61790 -0.05800
C 	C 	0.17300 0.25000 0.64410 0.58000
H 	H 	0.53990 0.25000 0.38380 0.14600
H 	H 	0.30670 0.25000 0.49100 0.04200
H 	H 	0.20680 0.25000 0.54360 0.03900
H 	H 	0.31120 0.25000 0.69220 0.03600
H 	H 	0.40860 0.25000 0.63740 0.04500
C 	C 	-0.00000 0.66940 0.94790 0.24900
C 	C 	-0.00000 0.59140 0.90880 -0.06100
C 	C 	0.00000 0.44980 0.82590 -0.13000
C 	C 	-0.00000 0.37830 0.78300 0.43400
H 	H 	-0.00000 0.80110 0.08650 0.11100
C 	C 	0.50000 0.16940 0.44790 0.25100
C 	C 	0.50000 0.09140 0.40880 -0.06100
C 	C 	0.50000 0.94980 0.32590 -0.12800
C 	C 	0.50000 0.87830 0.28300 0.43500
H 	H 	0.50000 0.30110 0.58650 0.11200
C 	C 	0.00000 0.83060 0.94790 0.24900
C 	C 	-0.00000 0.90860 0.90880 -0.06200
C 	C 	-0.00000 0.05020 0.82590 -0.12800
C 	C 	0.00000 0.12170 0.78300 0.43400
H 	H 	0.00000 0.69890 0.08650 0.11100
C 	C 	0.50000 0.33060 0.44790 0.25100
C 	C 	0.50000 0.40860 0.40880 -0.06000
C 	C 	0.50000 0.55020 0.32590 -0.12900
C 	C 	0.50000 0.62170 0.28300 0.43600
H 	H 	0.50000 0.19890 0.58650 0.11200
C 	C 	-0.00000 0.75000 0.90920 -0.38100
C 	C 	0.00000 0.75000 0.05920 -0.30500
C 	C 	0.50000 0.25000 0.40920 -0.38100
C 	C 	0.50000 0.25000 0.55920 -0.30700
O 	O 	0.94390 0.85070 0.23230 -0.48500
C 	C 	0.93670 0.16770 0.01390 -0.34600
C 	C 	0.94290 0.05400 0.11290 -0.04400
C 	C 	0.94280 0.98670 0.15260 0.02100
O 	O 	0.67240 0.28040 0.80670 -0.24900
O 	O 	0.63890 0.31900 0.86030 -0.32400
H 	H 	0.93660 0.11450 0.98950 0.12700
H 	H 	0.89460 0.16190 0.03700 0.12700
H 	H 	0.89850 0.07500 0.09880 0.03700
H 	H 	0.89750 0.96470 0.16590 0.04300
O 	O 	0.44390 0.35070 0.73230 -0.48700
C 	C 	0.43670 0.66770 0.51390 -0.35100
C 	C 	0.44290 0.55400 0.61290 -0.04700
C 	C 	0.44280 0.48670 0.65260 0.02200
O 	O 	0.17240 0.78040 0.30670 -0.24900
O 	O 	0.13890 0.81900 0.36030 -0.32400
H 	H 	0.43660 0.61450 0.48950 0.12900
H 	H 	0.39460 0.66190 0.53700 0.12800
H 	H 	0.39850 0.57500 0.59880 0.03800
H 	H 	0.39750 0.46470 0.66590 0.04300
O 	O 	0.05610 0.64930 0.23230 -0.48600
C 	C 	0.06330 0.33230 0.01390 -0.34800
C 	C 	0.05710 0.44600 0.11290 -0.04800
C 	C 	0.05720 0.51330 0.15260 0.02200
O 	O 	0.32760 0.21960 0.80670 -0.24900
O 	O 	0.36110 0.18100 0.86030 -0.32400
H 	H 	0.06340 0.38550 0.98950 0.12800
H 	H 	0.10540 0.33810 0.03700 0.12700
H 	H 	0.10150 0.42500 0.09880 0.03800
H 	H 	0.10250 0.53530 0.16590 0.04300
O 	O 	0.55610 0.14930 0.73230 -0.48700
C 	C 	0.56330 0.83230 0.51390 -0.35100
C 	C 	0.55710 0.94600 0.61290 -0.04600
C 	C 	0.55720 0.01330 0.65260 0.02100
O 	O 	0.82760 0.71960 0.30670 -0.24800
O 	O 	0.86110 0.68100 0.36030 -0.32300
H 	H 	0.56340 0.88550 0.48950 0.12900
H 	H 	0.60540 0.83810 0.53700 0.12800
H 	H 	0.60150 0.92500 0.59880 0.03800
H 	H 	0.60250 0.03530 0.66590 0.04300
O 	O 	0.94390 0.64930 0.23230 -0.48500
C 	C 	0.93670 0.33230 0.01390 -0.34700
C 	C 	0.94290 0.44600 0.11290 -0.04600
C 	C 	0.94280 0.51330 0.15260 0.02300
O 	O 	0.67240 0.21960 0.80670 -0.24900
O 	O 	0.63890 0.18100 0.86030 -0.32400
H 	H 	0.93660 0.38550 0.98950 0.12800
H 	H 	0.89460 0.33810 0.03700 0.12700
H 	H 	0.89850 0.42500 0.09880 0.03800
H 	H 	0.89750 0.53530 0.16590 0.04300
O 	O 	0.44390 0.14930 0.73230 -0.48700
C 	C 	0.43670 0.83230 0.51390 -0.35100
C 	C 	0.44290 0.94600 0.61290 -0.04600
C 	C 	0.44280 0.01330 0.65260 0.02100
O 	O 	0.17240 0.71960 0.30670 -0.24900
O 	O 	0.13890 0.68100 0.36030 -0.32400
H 	H 	0.43660 0.88550 0.48950 0.12900
H 	H 	0.39460 0.83810 0.53700 0.12800
H 	H 	0.39850 0.92500 0.59880 0.03800
H 	H 	0.39750 0.03530 0.66590 0.04300
O 	O 	0.05610 0.85070 0.23230 -0.48600
C 	C 	0.06330 0.16770 0.01390 -0.34700
C 	C 	0.05710 0.05400 0.11290 -0.04500
C 	C 	0.05720 0.98670 0.15260 0.02000
O 	O 	0.32760 0.28040 0.80670 -0.24900
O 	O 	0.36110 0.31900 0.86030 -0.32400
H 	H 	0.06340 0.11450 0.98950 0.12700
H 	H 	0.10540 0.16190 0.03700 0.12700
H 	H 	0.10150 0.07500 0.09880 0.03800
H 	H 	0.10250 0.96470 0.16590 0.04300
O 	O 	0.55610 0.35070 0.73230 -0.48700
C 	C 	0.56330 0.66770 0.51390 -0.35100
C 	C 	0.55710 0.55400 0.61290 -0.04700
C 	C 	0.55720 0.48670 0.65260 0.02200
O 	O 	0.82760 0.78040 0.30670 -0.24900
O 	O 	0.86110 0.81900 0.36030 -0.32300
H 	H 	0.56340 0.61450 0.48950 0.12900
H 	H 	0.60540 0.66190 0.53700 0.12800
H 	H 	0.60150 0.57500 0.59880 0.03800
H 	H 	0.60250 0.46470 0.66590 0.04300
Zn	Zn	0.92350 0.75000 0.28380 1.24500
Zn	Zn	0.42350 0.25000 0.78380 1.24400
Zn	Zn	0.07650 0.75000 0.28380 1.24400
Zn	Zn	0.57650 0.25000 0.78380 1.24400
O 	O 	0.00000 0.75000 0.33500 -0.49200
O 	O 	0.50000 0.25000 0.83500 -0.49100
C 	C 	0.93470 0.25000 0.97750 0.22600
C 	C 	0.87080 0.25000 0.93920 -0.03600
C 	C 	0.81050 0.25000 0.96690 -0.06000
C 	C 	0.75070 0.25000 0.93840 0.03600
C 	C 	0.74740 0.25000 0.88100 -0.12500
C 	C 	0.80580 0.25000 0.85100 0.05700
C 	C 	0.86360 0.25000 0.88210 -0.06000
C 	C 	0.67300 0.25000 0.85590 0.58100
H 	H 	0.03990 0.25000 0.11620 0.14600
H 	H 	0.80670 0.25000 0.00900 0.04400
H 	H 	0.70680 0.25000 0.95640 0.03900
H 	H 	0.81120 0.25000 0.80780 0.03600
H 	H 	0.90860 0.25000 0.86260 0.04600
C 	C 	0.43470 0.75000 0.47750 0.22900
C 	C 	0.37080 0.75000 0.43920 -0.03900
C 	C 	0.31050 0.75000 0.46690 -0.05700
C 	C 	0.25070 0.75000 0.43840 0.03400
C 	C 	0.24740 0.75000 0.38100 -0.12400
C 	C 	0.30580 0.75000 0.35100 0.05600
C 	C 	0.36360 0.75000 0.38210 -0.05800
C 	C 	0.17300 0.75000 0.35590 0.58000
H 	H 	0.53990 0.75000 0.61620 0.14600
H 	H 	0.30670 0.75000 0.50900 0.04200
H 	H 	0.20680 0.75000 0.45640 0.03900
H 	H 	0.31120 0.75000 0.30780 0.03600
H 	H 	0.40860 0.75000 0.36260 0.04500
C 	C 	0.06530 0.25000 0.97750 0.22600
C 	C 	0.12920 0.25000 0.93920 -0.03600
C 	C 	0.18950 0.25000 0.96690 -0.05900
C 	C 	0.24930 0.25000 0.93840 0.03600
C 	C 	0.25260 0.25000 0.88100 -0.12500
C 	C 	0.19420 0.25000 0.85100 0.05700
C 	C 	0.13640 0.25000 0.88210 -0.06000
C 	C 	0.32700 0.25000 0.85590 0.58100
H 	H 	0.96010 0.25000 0.11620 0.14700
H 	H 	0.19330 0.25000 0.00900 0.04400
H 	H 	0.29320 0.25000 0.95640 0.03900
H 	H 	0.18880 0.25000 0.80780 0.03600
H 	H 	0.09140 0.25000 0.86260 0.04600
C 	C 	0.56530 0.75000 0.47750 0.22900
C 	C 	0.62920 0.75000 0.43920 -0.03900
C 	C 	0.68950 0.75000 0.46690 -0.05700
C 	C 	0.74930 0.75000 0.43840 0.03400
C 	C 	0.75260 0.75000 0.38100 -0.12400
C 	C 	0.69420 0.75000 0.35100 0.05500
C 	C 	0.63640 0.75000 0.38210 -0.05800
C 	C 	0.82700 0.75000 0.35590 0.58000
H 	H 	0.46010 0.75000 0.61620 0.14600
H 	H 	0.69330 0.75000 0.50900 0.04200
H 	H 	0.79320 0.75000 0.45640 0.04000
H 	H 	0.68880 0.75000 0.30780 0.03600
H 	H 	0.59140 0.75000 0.36260 0.04500
C 	C 	0.00000 0.16940 0.05210 0.24900
C 	C 	-0.00000 0.09140 0.09120 -0.06200
C 	C 	0.00000 0.94980 0.17410 -0.12800
C 	C 	0.00000 0.87830 0.21700 0.43400
H 	H 	0.00000 0.30110 0.91350 0.11100
C 	C 	0.50000 0.66940 0.55210 0.25100
C 	C 	0.50000 0.59140 0.59120 -0.06000
C 	C 	0.50000 0.44980 0.67410 -0.12900
C 	C 	0.50000 0.37830 0.71700 0.43600
H 	H 	0.50000 0.80110 0.41350 0.11200
C 	C 	-0.00000 0.33060 0.05210 0.24900
C 	C 	0.00000 0.40860 0.09120 -0.06100
C 	C 	-0.00000 0.55020 0.17410 -0.13000
C 	C 	0.00000 0.62170 0.21700 0.43400
H 	H 	-0.00000 0.19890 0.91350 0.11100
C 	C 	0.50000 0.83060 0.55210 0.25100
C 	C 	0.50000 0.90860 0.59120 -0.06100
C 	C 	0.50000 0.05020 0.67410 -0.12800
C 	C 	0.50000 0.12170 0.71700 0.43500
H 	H 	0.50000 0.69890 0.41350 0.11200
C 	C 	0.00000 0.25000 0.09080 -0.38100
C 	C 	0.00000 0.25000 0.94080 -0.30500
C 	C 	0.50000 0.75000 0.59080 -0.38100
C 	C 	0.50000 0.75000 0.44080 -0.30700
