data_crystal

_cell_length_a 10.82120
_cell_length_b 10.82120
_cell_length_c 10.82120
_cell_angle_alpha 90.00000
_cell_angle_beta  90.00000
_cell_angle_gamma 90.00000

_symmetry_space_group_name_	'P 1'
_symmetry_space_group_name_H-M	'P 1'

loop_
_symmetry_equiv_pos_as_xyz
  x,y,z

loop_
_atom_site_label
_atom_site_type_symbol
_atom_site_fract_x
_atom_site_fract_y
_atom_site_fract_z
_atom_site_charge
O 	O 	0.24600 0.10700 0.02200 -0.11800
O 	O 	0.25400 0.39300 0.02200 -0.11800
O 	O 	0.25400 0.10700 0.47800 -0.11800
O 	O 	0.24600 0.39300 0.47800 -0.11800
O 	O 	0.02200 0.24600 0.10700 -0.11800
O 	O 	0.02200 0.25400 0.39300 -0.11800
O 	O 	0.47800 0.25400 0.10700 -0.11800
O 	O 	0.47800 0.24600 0.39300 -0.11800
O 	O 	0.10700 0.02200 0.24600 -0.11800
O 	O 	0.39300 0.02200 0.25400 -0.11800
O 	O 	0.10700 0.47800 0.25400 -0.11800
O 	O 	0.39300 0.47800 0.24600 -0.11800
O 	O 	0.60700 0.74600 0.97800 -0.11800
O 	O 	0.89300 0.75400 0.97800 -0.11800
O 	O 	0.60700 0.75400 0.52200 -0.11800
O 	O 	0.89300 0.74600 0.52200 -0.11800
O 	O 	0.74600 0.52200 0.89300 -0.11800
O 	O 	0.75400 0.52200 0.60700 -0.11800
O 	O 	0.75400 0.97800 0.89300 -0.11900
O 	O 	0.74600 0.97800 0.60700 -0.11900
O 	O 	0.52200 0.60700 0.75400 -0.11900
O 	O 	0.52200 0.89300 0.74600 -0.11900
O 	O 	0.97800 0.60700 0.74600 -0.11900
O 	O 	0.97800 0.89300 0.75400 -0.11900
O 	O 	0.75400 0.89300 0.97800 -0.11900
O 	O 	0.74600 0.60700 0.97800 -0.11900
O 	O 	0.74600 0.89300 0.52200 -0.11900
O 	O 	0.75400 0.60700 0.52200 -0.11900
O 	O 	0.97800 0.75400 0.89300 -0.11900
O 	O 	0.97800 0.74600 0.60700 -0.11900
O 	O 	0.52200 0.74600 0.89300 -0.11900
O 	O 	0.52200 0.75400 0.60700 -0.11900
O 	O 	0.89300 0.97800 0.75400 -0.11900
O 	O 	0.60700 0.97800 0.74600 -0.11900
O 	O 	0.89300 0.52200 0.74600 -0.11900
O 	O 	0.60700 0.52200 0.75400 -0.11900
O 	O 	0.39300 0.25400 0.02200 -0.11900
O 	O 	0.10700 0.24600 0.02200 -0.11900
O 	O 	0.39300 0.24600 0.47800 -0.11900
O 	O 	0.10700 0.25400 0.47800 -0.11900
O 	O 	0.25400 0.47800 0.10700 -0.11900
O 	O 	0.24600 0.47800 0.39300 -0.11900
O 	O 	0.24600 0.02200 0.10700 -0.11900
O 	O 	0.25400 0.02200 0.39300 -0.11900
O 	O 	0.47800 0.39300 0.24600 -0.11900
O 	O 	0.47800 0.10700 0.25400 -0.11900
O 	O 	0.02200 0.39300 0.25400 -0.11900
O 	O 	0.02200 0.10700 0.24600 -0.11900
Zn	Zn	0.25000 0.25000 0.25000 1.30700
Zn	Zn	0.75000 0.75000 0.75000 1.30700
O 	O 	0.14760 0.14760 0.14760 -0.45000
C 	C 	0.02860 0.02860 0.02860 -0.10400
O 	O 	0.35240 0.35240 0.14760 -0.45000
C 	C 	0.47140 0.47140 0.02860 -0.10400
O 	O 	0.35240 0.14760 0.35240 -0.45000
C 	C 	0.47140 0.02860 0.47140 -0.10400
O 	O 	0.14760 0.35240 0.35240 -0.45000
C 	C 	0.02860 0.47140 0.47140 -0.10400
O 	O 	0.64760 0.64760 0.85240 -0.45000
C 	C 	0.52860 0.52860 0.97140 -0.10400
O 	O 	0.85240 0.85240 0.85240 -0.45000
C 	C 	0.97140 0.97140 0.97140 -0.10400
O 	O 	0.64760 0.85240 0.64760 -0.45000
C 	C 	0.52860 0.97140 0.52860 -0.10400
O 	O 	0.85240 0.64760 0.64760 -0.45000
C 	C 	0.97140 0.52860 0.52860 -0.10400
C 	C 	0.16600 0.08885 0.08885 -0.08200
C 	C 	0.33400 0.41115 0.08885 -0.08200
C 	C 	0.33400 0.08885 0.41115 -0.08200
C 	C 	0.16600 0.41115 0.41115 -0.08200
C 	C 	0.08885 0.16600 0.08885 -0.08200
C 	C 	0.08885 0.33400 0.41115 -0.08200
C 	C 	0.41115 0.33400 0.08885 -0.08200
C 	C 	0.41115 0.16600 0.41115 -0.08200
C 	C 	0.08885 0.08885 0.16600 -0.08200
C 	C 	0.41115 0.08885 0.33400 -0.08200
C 	C 	0.08885 0.41115 0.33400 -0.08200
C 	C 	0.41115 0.41115 0.16600 -0.08200
C 	C 	0.58885 0.66600 0.91115 -0.08200
C 	C 	0.91115 0.83400 0.91115 -0.08200
C 	C 	0.58885 0.83400 0.58885 -0.08200
C 	C 	0.91115 0.66600 0.58885 -0.08200
C 	C 	0.66600 0.58885 0.91115 -0.08200
C 	C 	0.83400 0.58885 0.58885 -0.08200
C 	C 	0.83400 0.91115 0.91115 -0.08200
C 	C 	0.66600 0.91115 0.58885 -0.08200
C 	C 	0.58885 0.58885 0.83400 -0.08200
C 	C 	0.58885 0.91115 0.66600 -0.08200
C 	C 	0.91115 0.58885 0.66600 -0.08200
C 	C 	0.91115 0.91115 0.83400 -0.08200
C 	C 	0.13210 0.13210 0.03610 0.39500
C 	C 	0.36790 0.36790 0.03610 0.39500
C 	C 	0.36790 0.13210 0.46390 0.39500
C 	C 	0.13210 0.36790 0.46390 0.39500
C 	C 	0.03610 0.13210 0.13210 0.39500
C 	C 	0.03610 0.36790 0.36790 0.39500
C 	C 	0.46390 0.36790 0.13210 0.39500
C 	C 	0.46390 0.13210 0.36790 0.39500
C 	C 	0.13210 0.03610 0.13210 0.39500
C 	C 	0.36790 0.03610 0.36790 0.39500
C 	C 	0.13210 0.46390 0.36790 0.39500
C 	C 	0.36790 0.46390 0.13210 0.39500
C 	C 	0.63210 0.63210 0.96390 0.39500
C 	C 	0.86790 0.86790 0.96390 0.39500
C 	C 	0.63210 0.86790 0.53610 0.39500
C 	C 	0.86790 0.63210 0.53610 0.39500
C 	C 	0.63210 0.53610 0.86790 0.39500
C 	C 	0.86790 0.53610 0.63210 0.39500
C 	C 	0.86790 0.96390 0.86790 0.39500
C 	C 	0.63210 0.96390 0.63210 0.39500
C 	C 	0.53610 0.63210 0.86790 0.39500
C 	C 	0.53610 0.86790 0.63210 0.39500
C 	C 	0.96390 0.63210 0.63210 0.39500
C 	C 	0.96390 0.86790 0.86790 0.39500
