data_crystal

_cell_length_a 17.15800
_cell_length_b 21.59100
_cell_length_c 25.30800
_cell_angle_alpha 90.00000
_cell_angle_beta  90.00000
_cell_angle_gamma 90.00000

_symmetry_space_group_name_	'P 1'
_symmetry_space_group_name_H-M	'P 1'

loop_
_symmetry_equiv_pos_as_xyz
  x,y,z

loop_
_atom_site_label
_atom_site_type_symbol
_atom_site_fract_x
_atom_site_fract_y
_atom_site_fract_z
_atom_site_charge
Zn	Zn	0.49500 0.66500 0.61310 1.23400
Zn	Zn	0.00500 0.33500 0.11310 1.23400
Zn	Zn	0.49500 0.83500 0.61310 1.23400
Zn	Zn	0.00500 0.16500 0.11310 1.23400
Zn	Zn	0.38320 0.75000 0.68290 1.21900
Zn	Zn	0.11680 0.25000 0.18290 1.21900
H 	H 	0.96580 0.43490 0.03330 0.28600
H 	H 	0.39050 0.62860 0.81220 0.02500
H 	H 	0.40130 0.56230 0.88370 0.07000
H 	H 	0.57200 0.46810 0.80850 0.06700
H 	H 	0.55600 0.53220 0.73550 0.03300
H 	H 	0.38240 0.45920 0.91790 0.06200
H 	H 	0.52050 0.37410 0.02510 0.05800
H 	H 	0.61640 0.46400 0.90110 0.06200
H 	H 	0.29640 0.39340 0.94490 0.07100
H 	H 	0.18460 0.36320 0.98890 0.02500
H 	H 	0.30680 0.36180 0.12540 0.02500
H 	H 	0.41770 0.39450 0.07970 0.07200
H 	H 	0.64190 0.32670 0.02210 0.07200
H 	H 	0.77410 0.31550 0.06070 0.02000
H 	H 	0.82600 0.48350 0.00800 0.00800
H 	H 	0.70420 0.49400 0.97080 0.08400
H 	H 	0.53420 0.56510 0.53330 0.28600
H 	H 	0.10950 0.37140 0.31220 0.02400
H 	H 	0.09870 0.43770 0.38370 0.07000
H 	H 	0.92800 0.53190 0.30850 0.06800
H 	H 	0.94400 0.46780 0.23550 0.03200
H 	H 	0.11760 0.54080 0.41790 0.06100
H 	H 	0.97950 0.62590 0.52510 0.05800
H 	H 	0.88360 0.53600 0.40110 0.06200
H 	H 	0.20360 0.60660 0.44490 0.07300
H 	H 	0.31540 0.63680 0.48890 0.02200
H 	H 	0.19320 0.63820 0.62540 0.02400
H 	H 	0.08230 0.60550 0.57970 0.07300
H 	H 	0.85810 0.67330 0.52210 0.07200
H 	H 	0.72590 0.68450 0.56070 0.02000
H 	H 	0.67400 0.51650 0.50800 0.00800
H 	H 	0.79580 0.50600 0.47080 0.08400
H 	H 	0.96580 0.06510 0.03330 0.28700
H 	H 	0.39050 0.87140 0.81220 0.02400
H 	H 	0.40130 0.93770 0.88370 0.07000
H 	H 	0.57200 0.03190 0.80850 0.06800
H 	H 	0.55600 0.96780 0.73550 0.03200
H 	H 	0.38240 0.04080 0.91790 0.06200
H 	H 	0.52050 0.12590 0.02510 0.05800
H 	H 	0.61640 0.03600 0.90110 0.06200
H 	H 	0.29640 0.10660 0.94490 0.07100
H 	H 	0.18460 0.13680 0.98890 0.02500
H 	H 	0.30680 0.13820 0.12540 0.02500
H 	H 	0.41770 0.10550 0.07970 0.07200
H 	H 	0.64190 0.17330 0.02210 0.07200
H 	H 	0.77410 0.18450 0.06070 0.02000
H 	H 	0.82600 0.01650 0.00800 0.00800
H 	H 	0.70420 0.00600 0.97080 0.08400
H 	H 	0.53420 0.93490 0.53330 0.28600
H 	H 	0.10950 0.12860 0.31220 0.02500
H 	H 	0.09870 0.06230 0.38370 0.06900
H 	H 	0.92800 0.96810 0.30850 0.06500
H 	H 	0.94400 0.03220 0.23550 0.03400
H 	H 	0.11760 0.95920 0.41790 0.06300
H 	H 	0.97950 0.87410 0.52510 0.05900
H 	H 	0.88360 0.96400 0.40110 0.06300
H 	H 	0.20360 0.89340 0.44490 0.07300
H 	H 	0.31540 0.86320 0.48890 0.02200
H 	H 	0.19320 0.86180 0.62540 0.02500
H 	H 	0.08230 0.89450 0.57970 0.07300
H 	H 	0.85810 0.82670 0.52210 0.07100
H 	H 	0.72590 0.81550 0.56070 0.02000
H 	H 	0.67400 0.98350 0.50800 0.00800
H 	H 	0.79580 0.99400 0.47080 0.08300
C 	C 	0.46280 0.63160 0.72180 0.38300
C 	C 	0.47280 0.58720 0.76810 -0.11900
C 	C 	0.42730 0.59580 0.81140 0.04800
C 	C 	0.43470 0.55670 0.85420 -0.11500
C 	C 	0.48820 0.51050 0.85550 0.04600
C 	C 	0.53490 0.50080 0.80940 -0.10700
C 	C 	0.52580 0.53890 0.76650 0.04400
C 	C 	0.49890 0.47010 0.90320 0.03000
C 	C 	0.43270 0.44910 0.93090 -0.09100
C 	C 	0.43940 0.41390 0.97680 0.02800
C 	C 	0.51460 0.39920 0.99450 -0.08700
C 	C 	0.58060 0.42020 0.96850 0.02300
C 	C 	0.57160 0.45320 0.92120 -0.09100
C 	C 	0.36730 0.39300 0.00610 0.05600
C 	C 	0.29910 0.38600 0.98190 -0.12100
C 	C 	0.23190 0.36840 0.00800 0.05500
C 	C 	0.23340 0.35850 0.06100 -0.13300
C 	C 	0.30450 0.36800 0.08830 0.04800
C 	C 	0.37070 0.38640 0.06120 -0.11800
C 	C 	0.16210 0.33830 0.09160 0.40200
C 	C 	0.66160 0.40770 0.98890 0.06800
C 	C 	0.67960 0.35830 0.01700 -0.13000
C 	C 	0.76020 0.35150 0.04130 0.07700
C 	C 	0.81080 0.39790 0.03450 -0.18900
C 	C 	0.79010 0.45010 0.01000 0.09600
C 	C 	0.71740 0.45610 0.98770 -0.14400
C 	C 	0.89380 0.39380 0.06120 0.55400
C 	C 	0.03720 0.36840 0.22180 0.38400
C 	C 	0.02720 0.41280 0.26810 -0.12100
C 	C 	0.07270 0.40420 0.31140 0.04900
C 	C 	0.06530 0.44330 0.35420 -0.11600
C 	C 	0.01180 0.48950 0.35550 0.04600
C 	C 	0.96510 0.49920 0.30940 -0.10700
C 	C 	0.97420 0.46110 0.26650 0.04600
C 	C 	0.00110 0.52990 0.40320 0.02900
C 	C 	0.06730 0.55090 0.43090 -0.09000
C 	C 	0.06060 0.58610 0.47680 0.02500
C 	C 	0.98540 0.60080 0.49450 -0.08600
C 	C 	0.91940 0.57980 0.46850 0.02200
C 	C 	0.92840 0.54680 0.42120 -0.09000
C 	C 	0.13270 0.60700 0.50610 0.06000
C 	C 	0.20090 0.61400 0.48190 -0.12800
C 	C 	0.26810 0.63160 0.50800 0.06100
C 	C 	0.26660 0.64150 0.56100 -0.13600
C 	C 	0.19550 0.63200 0.58830 0.05100
C 	C 	0.12930 0.61360 0.56120 -0.12100
C 	C 	0.33790 0.66170 0.59160 0.40300
C 	C 	0.83840 0.59230 0.48890 0.06900
C 	C 	0.82040 0.64170 0.51700 -0.13100
C 	C 	0.73980 0.64850 0.54130 0.07700
C 	C 	0.68920 0.60210 0.53450 -0.18900
C 	C 	0.70990 0.54990 0.51000 0.09500
C 	C 	0.78260 0.54390 0.48770 -0.14200
C 	C 	0.60620 0.60620 0.56120 0.55400
C 	C 	0.46280 0.86840 0.72180 0.38300
C 	C 	0.47280 0.91280 0.76810 -0.11900
C 	C 	0.42730 0.90420 0.81140 0.04800
C 	C 	0.43470 0.94330 0.85420 -0.11500
C 	C 	0.48820 0.98950 0.85550 0.04600
C 	C 	0.53490 0.99920 0.80940 -0.10800
C 	C 	0.52580 0.96110 0.76650 0.04400
C 	C 	0.49890 0.02990 0.90320 0.03000
C 	C 	0.43270 0.05090 0.93090 -0.09100
C 	C 	0.43940 0.08610 0.97680 0.02700
C 	C 	0.51460 0.10080 0.99450 -0.08700
C 	C 	0.58060 0.07980 0.96850 0.02300
C 	C 	0.57160 0.04680 0.92120 -0.09100
C 	C 	0.36730 0.10700 0.00610 0.05600
C 	C 	0.29910 0.11400 0.98190 -0.12100
C 	C 	0.23190 0.13160 0.00800 0.05500
C 	C 	0.23340 0.14150 0.06100 -0.13300
C 	C 	0.30450 0.13200 0.08830 0.04800
C 	C 	0.37070 0.11360 0.06120 -0.11800
C 	C 	0.16210 0.16170 0.09160 0.40200
C 	C 	0.66160 0.09230 0.98890 0.06800
C 	C 	0.67960 0.14170 0.01700 -0.13000
C 	C 	0.76020 0.14850 0.04130 0.07700
C 	C 	0.81080 0.10210 0.03450 -0.18900
C 	C 	0.79010 0.04990 0.01000 0.09600
C 	C 	0.71740 0.04390 0.98770 -0.14300
C 	C 	0.89380 0.10620 0.06120 0.55400
C 	C 	0.03720 0.13160 0.22180 0.38300
C 	C 	0.02720 0.08720 0.26810 -0.12000
C 	C 	0.07270 0.09580 0.31140 0.04600
C 	C 	0.06530 0.05670 0.35420 -0.11200
C 	C 	0.01180 0.01050 0.35550 0.04000
C 	C 	0.96510 0.00080 0.30940 -0.10100
C 	C 	0.97420 0.03890 0.26650 0.04300
C 	C 	0.00110 0.97010 0.40320 0.03500
C 	C 	0.06730 0.94910 0.43090 -0.09300
C 	C 	0.06060 0.91390 0.47680 0.02900
C 	C 	0.98540 0.89920 0.49450 -0.08900
C 	C 	0.91940 0.92020 0.46850 0.02500
C 	C 	0.92840 0.95320 0.42120 -0.09500
C 	C 	0.13270 0.89300 0.50610 0.05900
C 	C 	0.20090 0.88600 0.48190 -0.12600
C 	C 	0.26810 0.86840 0.50800 0.06100
C 	C 	0.26660 0.85850 0.56100 -0.13600
C 	C 	0.19550 0.86800 0.58830 0.05100
C 	C 	0.12930 0.88640 0.56120 -0.12000
C 	C 	0.33790 0.83830 0.59160 0.40300
C 	C 	0.83840 0.90770 0.48890 0.06700
C 	C 	0.82040 0.85830 0.51700 -0.13000
C 	C 	0.73980 0.85150 0.54130 0.07600
C 	C 	0.68920 0.89790 0.53450 -0.18800
C 	C 	0.70990 0.95010 0.51000 0.09400
C 	C 	0.78260 0.95610 0.48770 -0.14100
C 	C 	0.60620 0.89380 0.56120 0.55400
O 	O 	0.42760 0.68120 0.73000 -0.46000
O 	O 	0.49430 0.61460 0.67810 -0.45400
O 	O 	0.09710 0.34750 0.06910 -0.48900
O 	O 	0.17090 0.31760 0.13640 -0.48800
O 	O 	0.90680 0.34440 0.07820 -0.55600
O 	O 	0.93890 0.43610 0.06100 -0.61400
O 	O 	0.07240 0.31880 0.23000 -0.46000
O 	O 	0.00570 0.38540 0.17810 -0.45500
O 	O 	0.40290 0.65250 0.56910 -0.48900
O 	O 	0.32910 0.68240 0.63640 -0.48800
O 	O 	0.59320 0.65560 0.57820 -0.55700
O 	O 	0.56110 0.56390 0.56100 -0.61400
O 	O 	0.42760 0.81880 0.73000 -0.46000
O 	O 	0.49430 0.88540 0.67810 -0.45400
O 	O 	0.09710 0.15250 0.06910 -0.49000
O 	O 	0.17090 0.18240 0.13640 -0.48800
O 	O 	0.90680 0.15560 0.07820 -0.55600
O 	O 	0.93890 0.06390 0.06100 -0.61300
O 	O 	0.07240 0.18120 0.23000 -0.46000
O 	O 	0.00570 0.11460 0.17810 -0.45500
O 	O 	0.40290 0.84750 0.56910 -0.48900
O 	O 	0.32910 0.81760 0.63640 -0.48800
O 	O 	0.59320 0.84440 0.57820 -0.55700
O 	O 	0.56110 0.93610 0.56100 -0.61400
O 	O 	0.48680 0.75000 0.64150 -0.66800
O 	O 	0.01320 0.25000 0.14150 -0.66800
Zn	Zn	0.50500 0.16500 0.38690 1.23400
Zn	Zn	0.99500 0.83500 0.88690 1.23400
Zn	Zn	0.50500 0.33500 0.38690 1.23400
Zn	Zn	0.99500 0.66500 0.88690 1.23400
Zn	Zn	0.61680 0.25000 0.31710 1.21900
Zn	Zn	0.88320 0.75000 0.81710 1.21900
H 	H 	0.03420 0.93490 0.96670 0.28700
H 	H 	0.60950 0.12860 0.18780 0.02400
H 	H 	0.59870 0.06230 0.11630 0.07000
H 	H 	0.42800 0.96810 0.19150 0.06800
H 	H 	0.44400 0.03220 0.26450 0.03200
H 	H 	0.61760 0.95920 0.08210 0.06200
H 	H 	0.47950 0.87410 0.97490 0.05800
H 	H 	0.38360 0.96400 0.09890 0.06200
H 	H 	0.70360 0.89340 0.05510 0.07100
H 	H 	0.81540 0.86320 0.01110 0.02500
H 	H 	0.69320 0.86180 0.87460 0.02500
H 	H 	0.58230 0.89450 0.92030 0.07200
H 	H 	0.35810 0.82670 0.97790 0.07200
H 	H 	0.22590 0.81550 0.93930 0.02000
H 	H 	0.17400 0.98350 0.99200 0.00800
H 	H 	0.29580 0.99400 0.02920 0.08400
H 	H 	0.46580 0.06510 0.46670 0.28600
H 	H 	0.89050 0.87140 0.68780 0.02500
H 	H 	0.90130 0.93770 0.61630 0.06900
H 	H 	0.07200 0.03190 0.69150 0.06500
H 	H 	0.05600 0.96780 0.76450 0.03400
H 	H 	0.88240 0.04080 0.58210 0.06300
H 	H 	0.02050 0.12590 0.47490 0.05900
H 	H 	0.11640 0.03600 0.59890 0.06300
H 	H 	0.79640 0.10660 0.55510 0.07300
H 	H 	0.68460 0.13680 0.51110 0.02200
H 	H 	0.80680 0.13820 0.37460 0.02500
H 	H 	0.91770 0.10550 0.42030 0.07300
H 	H 	0.14190 0.17330 0.47790 0.07100
H 	H 	0.27410 0.18450 0.43930 0.02000
H 	H 	0.32600 0.01650 0.49200 0.00800
H 	H 	0.20420 0.00600 0.52920 0.08300
H 	H 	0.03420 0.56510 0.96670 0.28600
H 	H 	0.60950 0.37140 0.18780 0.02500
H 	H 	0.59870 0.43770 0.11630 0.07000
H 	H 	0.42800 0.53190 0.19150 0.06700
H 	H 	0.44400 0.46780 0.26450 0.03300
H 	H 	0.61760 0.54080 0.08210 0.06200
H 	H 	0.47950 0.62590 0.97490 0.05800
H 	H 	0.38360 0.53600 0.09890 0.06200
H 	H 	0.70360 0.60660 0.05510 0.07100
H 	H 	0.81540 0.63680 0.01110 0.02500
H 	H 	0.69320 0.63820 0.87460 0.02500
H 	H 	0.58230 0.60550 0.92030 0.07200
H 	H 	0.35810 0.67330 0.97790 0.07200
H 	H 	0.22590 0.68450 0.93930 0.02000
H 	H 	0.17400 0.51650 0.99200 0.00800
H 	H 	0.29580 0.50600 0.02920 0.08400
H 	H 	0.46580 0.43490 0.46670 0.28600
H 	H 	0.89050 0.62860 0.68780 0.02400
H 	H 	0.90130 0.56230 0.61630 0.07000
H 	H 	0.07200 0.46810 0.69150 0.06800
H 	H 	0.05600 0.53220 0.76450 0.03200
H 	H 	0.88240 0.45920 0.58210 0.06100
H 	H 	0.02050 0.37410 0.47490 0.05800
H 	H 	0.11640 0.46400 0.59890 0.06200
H 	H 	0.79640 0.39340 0.55510 0.07300
H 	H 	0.68460 0.36320 0.51110 0.02200
H 	H 	0.80680 0.36180 0.37460 0.02400
H 	H 	0.91770 0.39450 0.42030 0.07300
H 	H 	0.14190 0.32670 0.47790 0.07200
H 	H 	0.27410 0.31550 0.43930 0.02000
H 	H 	0.32600 0.48350 0.49200 0.00800
H 	H 	0.20420 0.49400 0.52920 0.08400
C 	C 	0.53720 0.13160 0.27820 0.38300
C 	C 	0.52720 0.08720 0.23190 -0.11900
C 	C 	0.57270 0.09580 0.18860 0.04800
C 	C 	0.56530 0.05670 0.14580 -0.11500
C 	C 	0.51180 0.01050 0.14450 0.04600
C 	C 	0.46510 0.00080 0.19060 -0.10800
C 	C 	0.47420 0.03890 0.23350 0.04400
C 	C 	0.50110 0.97010 0.09680 0.03000
C 	C 	0.56730 0.94910 0.06910 -0.09100
C 	C 	0.56060 0.91390 0.02320 0.02700
C 	C 	0.48540 0.89920 0.00550 -0.08700
C 	C 	0.41940 0.92020 0.03150 0.02300
C 	C 	0.42840 0.95320 0.07880 -0.09100
C 	C 	0.63270 0.89300 0.99390 0.05600
C 	C 	0.70090 0.88600 0.01810 -0.12100
C 	C 	0.76810 0.86840 0.99200 0.05500
C 	C 	0.76660 0.85850 0.93900 -0.13300
C 	C 	0.69550 0.86800 0.91170 0.04800
C 	C 	0.62930 0.88640 0.93880 -0.11800
C 	C 	0.83790 0.83830 0.90840 0.40200
C 	C 	0.33840 0.90770 0.01110 0.06800
C 	C 	0.32040 0.85830 0.98300 -0.13000
C 	C 	0.23980 0.85150 0.95870 0.07700
C 	C 	0.18920 0.89790 0.96550 -0.18900
C 	C 	0.20990 0.95010 0.99000 0.09600
C 	C 	0.28260 0.95610 0.01230 -0.14300
C 	C 	0.10620 0.89380 0.93880 0.55400
C 	C 	0.96280 0.86840 0.77820 0.38300
C 	C 	0.97280 0.91280 0.73190 -0.12000
C 	C 	0.92730 0.90420 0.68860 0.04600
C 	C 	0.93470 0.94330 0.64580 -0.11200
C 	C 	0.98820 0.98950 0.64450 0.04000
C 	C 	0.03490 0.99920 0.69060 -0.10100
C 	C 	0.02580 0.96110 0.73350 0.04300
C 	C 	0.99890 0.02990 0.59680 0.03500
C 	C 	0.93270 0.05090 0.56910 -0.09300
C 	C 	0.93940 0.08610 0.52320 0.02900
C 	C 	0.01460 0.10080 0.50550 -0.08900
C 	C 	0.08060 0.07980 0.53150 0.02500
C 	C 	0.07160 0.04680 0.57880 -0.09500
C 	C 	0.86730 0.10700 0.49390 0.05900
C 	C 	0.79910 0.11400 0.51810 -0.12600
C 	C 	0.73190 0.13160 0.49200 0.06100
C 	C 	0.73340 0.14150 0.43900 -0.13600
C 	C 	0.80450 0.13200 0.41170 0.05100
C 	C 	0.87070 0.11360 0.43880 -0.12000
C 	C 	0.66210 0.16170 0.40840 0.40300
C 	C 	0.16160 0.09230 0.51110 0.06700
C 	C 	0.17960 0.14170 0.48300 -0.13000
C 	C 	0.26020 0.14850 0.45870 0.07600
C 	C 	0.31080 0.10210 0.46550 -0.18800
C 	C 	0.29010 0.04990 0.49000 0.09400
C 	C 	0.21740 0.04390 0.51230 -0.14100
C 	C 	0.39380 0.10620 0.43880 0.55400
C 	C 	0.53720 0.36840 0.27820 0.38300
C 	C 	0.52720 0.41280 0.23190 -0.11900
C 	C 	0.57270 0.40420 0.18860 0.04800
C 	C 	0.56530 0.44330 0.14580 -0.11500
C 	C 	0.51180 0.48950 0.14450 0.04600
C 	C 	0.46510 0.49920 0.19060 -0.10700
C 	C 	0.47420 0.46110 0.23350 0.04400
C 	C 	0.50110 0.52990 0.09680 0.03000
C 	C 	0.56730 0.55090 0.06910 -0.09100
C 	C 	0.56060 0.58610 0.02320 0.02800
C 	C 	0.48540 0.60080 0.00550 -0.08700
C 	C 	0.41940 0.57980 0.03150 0.02300
C 	C 	0.42840 0.54680 0.07880 -0.09100
C 	C 	0.63270 0.60700 0.99390 0.05600
C 	C 	0.70090 0.61400 0.01810 -0.12100
C 	C 	0.76810 0.63160 0.99200 0.05500
C 	C 	0.76660 0.64150 0.93900 -0.13300
C 	C 	0.69550 0.63200 0.91170 0.04800
C 	C 	0.62930 0.61360 0.93880 -0.11800
C 	C 	0.83790 0.66170 0.90840 0.40200
C 	C 	0.33840 0.59230 0.01110 0.06800
C 	C 	0.32040 0.64170 0.98300 -0.13000
C 	C 	0.23980 0.64850 0.95870 0.07700
C 	C 	0.18920 0.60210 0.96550 -0.18900
C 	C 	0.20990 0.54990 0.99000 0.09600
C 	C 	0.28260 0.54390 0.01230 -0.14400
C 	C 	0.10620 0.60620 0.93880 0.55400
C 	C 	0.96280 0.63160 0.77820 0.38400
C 	C 	0.97280 0.58720 0.73190 -0.12100
C 	C 	0.92730 0.59580 0.68860 0.04900
C 	C 	0.93470 0.55670 0.64580 -0.11600
C 	C 	0.98820 0.51050 0.64450 0.04600
C 	C 	0.03490 0.50080 0.69060 -0.10700
C 	C 	0.02580 0.53890 0.73350 0.04600
C 	C 	0.99890 0.47010 0.59680 0.02900
C 	C 	0.93270 0.44910 0.56910 -0.09000
C 	C 	0.93940 0.41390 0.52320 0.02500
C 	C 	0.01460 0.39920 0.50550 -0.08600
C 	C 	0.08060 0.42020 0.53150 0.02200
C 	C 	0.07160 0.45320 0.57880 -0.09000
C 	C 	0.86730 0.39300 0.49390 0.06000
C 	C 	0.79910 0.38600 0.51810 -0.12800
C 	C 	0.73190 0.36840 0.49200 0.06100
C 	C 	0.73340 0.35850 0.43900 -0.13600
C 	C 	0.80450 0.36800 0.41170 0.05100
C 	C 	0.87070 0.38640 0.43880 -0.12100
C 	C 	0.66210 0.33830 0.40840 0.40300
C 	C 	0.16160 0.40770 0.51110 0.06900
C 	C 	0.17960 0.35830 0.48300 -0.13100
C 	C 	0.26020 0.35150 0.45870 0.07700
C 	C 	0.31080 0.39790 0.46550 -0.18900
C 	C 	0.29010 0.45010 0.49000 0.09500
C 	C 	0.21740 0.45610 0.51230 -0.14200
C 	C 	0.39380 0.39380 0.43880 0.55400
O 	O 	0.57240 0.18120 0.27000 -0.46000
O 	O 	0.50570 0.11460 0.32190 -0.45400
O 	O 	0.90290 0.84750 0.93090 -0.49000
O 	O 	0.82910 0.81760 0.86360 -0.48800
O 	O 	0.09320 0.84440 0.92180 -0.55600
O 	O 	0.06110 0.93610 0.93900 -0.61300
O 	O 	0.92760 0.81880 0.77000 -0.46000
O 	O 	0.99430 0.88540 0.82190 -0.45500
O 	O 	0.59710 0.15250 0.43090 -0.48900
O 	O 	0.67090 0.18240 0.36360 -0.48800
O 	O 	0.40680 0.15560 0.42180 -0.55700
O 	O 	0.43890 0.06390 0.43900 -0.61400
O 	O 	0.57240 0.31880 0.27000 -0.46000
O 	O 	0.50570 0.38540 0.32190 -0.45400
O 	O 	0.90290 0.65250 0.93090 -0.48900
O 	O 	0.82910 0.68240 0.86360 -0.48800
O 	O 	0.09320 0.65560 0.92180 -0.55600
O 	O 	0.06110 0.56390 0.93900 -0.61400
O 	O 	0.92760 0.68120 0.77000 -0.46000
O 	O 	0.99430 0.61460 0.82190 -0.45500
O 	O 	0.59710 0.34750 0.43090 -0.48900
O 	O 	0.67090 0.31760 0.36360 -0.48800
O 	O 	0.40680 0.34440 0.42180 -0.55700
O 	O 	0.43890 0.43610 0.43900 -0.61400
O 	O 	0.51320 0.25000 0.35850 -0.66800
O 	O 	0.98680 0.75000 0.85850 -0.66800
