data_crystal

_cell_length_a 11.72200
_cell_length_b 11.72200
_cell_length_c 23.74000
_cell_angle_alpha 90.00000
_cell_angle_beta  90.00000
_cell_angle_gamma 90.00000

_symmetry_space_group_name_	'P 1'
_symmetry_space_group_name_H-M	'P 1'

loop_
_symmetry_equiv_pos_as_xyz
  x,y,z

loop_
_atom_site_label
_atom_site_type_symbol
_atom_site_fract_x
_atom_site_fract_y
_atom_site_fract_z
_atom_site_charge
O 	O 	0.40650 0.11930 0.05970 -0.31200
C 	C 	0.39860 0.35880 0.18840 -0.15200
C 	C 	0.39910 0.27350 0.14390 0.06400
H 	H 	0.32860 0.38790 0.20250 0.08100
H 	H 	0.32990 0.24320 0.12940 0.01800
O 	O 	0.59350 0.88070 0.05970 -0.32200
C 	C 	0.60140 0.64120 0.18840 -0.15500
C 	C 	0.60090 0.72650 0.14390 0.06500
H 	H 	0.67140 0.61210 0.20250 0.07800
H 	H 	0.67010 0.75680 0.12940 0.01100
O 	O 	0.88070 0.40650 0.55970 -0.32800
C 	C 	0.64120 0.39860 0.68840 -0.15300
C 	C 	0.72650 0.39910 0.64390 0.06800
H 	H 	0.61210 0.32860 0.70250 0.08200
H 	H 	0.75680 0.32990 0.62940 0.01500
O 	O 	0.11930 0.59350 0.55970 -0.31900
C 	C 	0.35880 0.60140 0.68840 -0.15100
C 	C 	0.27350 0.60090 0.64390 0.06700
H 	H 	0.38790 0.67140 0.70250 0.07900
H 	H 	0.24320 0.67010 0.62940 0.01600
O 	O 	0.59350 0.11930 0.94030 -0.29000
C 	C 	0.60140 0.35880 0.81160 -0.14500
C 	C 	0.60090 0.27350 0.85610 0.06000
H 	H 	0.67140 0.38790 0.79750 0.07800
H 	H 	0.67010 0.24320 0.87060 0.02200
O 	O 	0.40650 0.88070 0.94030 -0.29700
C 	C 	0.39860 0.64120 0.81160 -0.14700
C 	C 	0.39910 0.72650 0.85610 0.06100
H 	H 	0.32860 0.61210 0.79750 0.08200
H 	H 	0.32990 0.75680 0.87060 0.02300
O 	O 	0.11930 0.40650 0.44030 -0.31700
C 	C 	0.35880 0.39860 0.31160 -0.15200
C 	C 	0.27350 0.39910 0.35610 0.06800
H 	H 	0.38790 0.32860 0.29750 0.08200
H 	H 	0.24320 0.32990 0.37060 0.01800
O 	O 	0.88070 0.59350 0.44030 -0.33000
C 	C 	0.64120 0.60140 0.31160 -0.15500
C 	C 	0.72650 0.60090 0.35610 0.06800
H 	H 	0.61210 0.67140 0.29750 0.07900
H 	H 	0.75680 0.67010 0.37060 0.01100
O 	O 	0.59350 0.88070 0.94030 -0.29900
C 	C 	0.60140 0.64120 0.81160 -0.14700
C 	C 	0.60090 0.72650 0.85610 0.06000
H 	H 	0.67140 0.61210 0.79750 0.07800
H 	H 	0.67010 0.75680 0.87060 0.01900
O 	O 	0.40650 0.11930 0.94030 -0.28800
C 	C 	0.39860 0.35880 0.81160 -0.14400
C 	C 	0.39910 0.27350 0.85610 0.06000
H 	H 	0.32860 0.38790 0.79750 0.08200
H 	H 	0.32990 0.24320 0.87060 0.02600
O 	O 	0.11930 0.59350 0.44030 -0.31900
C 	C 	0.35880 0.60140 0.31160 -0.15200
C 	C 	0.27350 0.60090 0.35610 0.06700
H 	H 	0.38790 0.67140 0.29750 0.07900
H 	H 	0.24320 0.67010 0.37060 0.01500
O 	O 	0.88070 0.40650 0.44030 -0.32800
C 	C 	0.64120 0.39860 0.31160 -0.15500
C 	C 	0.72650 0.39910 0.35610 0.06800
H 	H 	0.61210 0.32860 0.29750 0.08200
H 	H 	0.75680 0.32990 0.37060 0.01400
O 	O 	0.40650 0.88070 0.05970 -0.32000
C 	C 	0.39860 0.64120 0.18840 -0.15400
C 	C 	0.39910 0.72650 0.14390 0.06600
H 	H 	0.32860 0.61210 0.20250 0.08100
H 	H 	0.32990 0.75680 0.12940 0.01400
O 	O 	0.59350 0.11930 0.05970 -0.31300
C 	C 	0.60140 0.35880 0.18840 -0.15200
C 	C 	0.60090 0.27350 0.14390 0.06400
H 	H 	0.67140 0.38790 0.20250 0.07800
H 	H 	0.67010 0.24320 0.12940 0.01400
O 	O 	0.88070 0.59350 0.55970 -0.33000
C 	C 	0.64120 0.60140 0.68840 -0.15400
C 	C 	0.72650 0.60090 0.64390 0.06700
H 	H 	0.61210 0.67140 0.70250 0.07900
H 	H 	0.75680 0.67010 0.62940 0.01200
O 	O 	0.11930 0.40650 0.55970 -0.31700
C 	C 	0.35880 0.39860 0.68840 -0.15000
C 	C 	0.27350 0.39910 0.64390 0.06800
H 	H 	0.38790 0.32860 0.70250 0.08200
H 	H 	0.24320 0.32990 0.62940 0.01900
Zn	Zn	0.37430 0.00000 -0.00000 1.35600
O 	O 	0.21400 0.00000 -0.00000 -1.33300
Zn	Zn	0.62570 0.00000 -0.00000 1.35700
O 	O 	0.78600 0.00000 -0.00000 -1.27400
Zn	Zn	-0.00000 0.37430 0.50000 1.35500
O 	O 	-0.00000 0.21400 0.50000 -1.35200
Zn	Zn	-0.00000 0.62570 0.50000 1.35600
O 	O 	-0.00000 0.78600 0.50000 -1.29800
C 	C 	0.50000 0.50000 0.25000 -0.14000
C 	C 	0.50000 0.50000 0.75000 -0.13700
C 	C 	0.50000 0.39640 0.20970 0.11800
C 	C 	0.50000 0.23920 0.12410 -0.13000
C 	C 	0.50000 0.15020 0.07740 0.37000
C 	C 	0.50000 0.60360 0.20970 0.11800
C 	C 	0.50000 0.76080 0.12410 -0.13400
C 	C 	0.50000 0.84980 0.07740 0.36900
C 	C 	0.60360 0.50000 0.70970 0.11800
C 	C 	0.76080 0.50000 0.62410 -0.13600
C 	C 	0.84980 0.50000 0.57740 0.37800
C 	C 	0.39640 0.50000 0.70970 0.11700
C 	C 	0.23920 0.50000 0.62410 -0.13100
C 	C 	0.15020 0.50000 0.57740 0.37800
C 	C 	0.50000 0.39640 0.79030 0.11400
C 	C 	0.50000 0.23920 0.87590 -0.11700
C 	C 	0.50000 0.15020 0.92260 0.36300
C 	C 	0.50000 0.60360 0.79030 0.11400
C 	C 	0.50000 0.76080 0.87590 -0.12100
C 	C 	0.50000 0.84980 0.92260 0.36200
C 	C 	0.39640 0.50000 0.29030 0.11800
C 	C 	0.23920 0.50000 0.37590 -0.13200
C 	C 	0.15020 0.50000 0.42260 0.37800
C 	C 	0.60360 0.50000 0.29030 0.11900
C 	C 	0.76080 0.50000 0.37590 -0.13700
C 	C 	0.84980 0.50000 0.42260 0.37800
C 	C 	0.38200 0.12000 -0.00000 -0.37200
C 	C 	0.24800 0.06600 -0.00000 0.58600
H 	H 	0.14310 0.05330 -0.00000 0.21200
C 	C 	0.61800 0.88000 -0.00000 -0.36700
C 	C 	0.75200 0.93400 -0.00000 0.51600
H 	H 	0.85690 0.94670 -0.00000 0.18500
C 	C 	0.88000 0.38200 0.50000 -0.35000
C 	C 	0.93400 0.24800 0.50000 0.57100
H 	H 	0.94670 0.14310 0.50000 0.20500
C 	C 	0.12000 0.61800 0.50000 -0.34100
C 	C 	0.06600 0.75200 0.50000 0.56800
H 	H 	0.05330 0.85690 0.50000 0.20500
C 	C 	0.61800 0.12000 -0.00000 -0.36500
C 	C 	0.75200 0.06600 -0.00000 0.54600
H 	H 	0.85690 0.05330 -0.00000 0.19800
C 	C 	0.38200 0.88000 -0.00000 -0.37500
C 	C 	0.24800 0.93400 -0.00000 0.55500
H 	H 	0.14310 0.94670 -0.00000 0.19900
C 	C 	0.12000 0.38200 0.50000 -0.34800
C 	C 	0.06600 0.24800 0.50000 0.60400
H 	H 	0.05330 0.14310 0.50000 0.21800
C 	C 	0.88000 0.61800 0.50000 -0.34300
C 	C 	0.93400 0.75200 0.50000 0.53500
H 	H 	0.94670 0.85690 0.50000 0.19200
C 	C 	0.50000 0.00000 -0.00000 -0.65500
C 	C 	-0.00000 0.50000 0.50000 -0.63700
C 	C 	0.50000 0.00000 0.06900 0.03700
C 	C 	-0.00000 0.50000 0.56900 0.03400
C 	C 	0.50000 0.00000 0.93100 0.04600
C 	C 	0.00000 0.50000 0.43100 0.03400
