data_crystal

_cell_length_a 20.65710
_cell_length_b 20.65710
_cell_length_c 17.84000
_cell_angle_alpha 90.00000
_cell_angle_beta  90.00000
_cell_angle_gamma 90.00000

_symmetry_space_group_name_	'P 1'
_symmetry_space_group_name_H-M	'P 1'

loop_
_symmetry_equiv_pos_as_xyz
  x,y,z

loop_
_atom_site_label
_atom_site_type_symbol
_atom_site_fract_x
_atom_site_fract_y
_atom_site_fract_z
_atom_site_charge
Zn	Zn	0.24525 0.37745 -0.00000 1.20100
O 	O 	0.26040 0.33640 0.16070 -0.47400
O 	O 	0.31130 0.32380 0.05140 -0.50400
O 	O 	0.55900 0.16710 0.13690 -0.46200
O 	O 	0.53930 0.24630 0.05290 -0.49100
O 	O 	0.44780 0.18900 0.38360 -0.29500
O 	O 	0.37130 0.26480 0.39350 -0.43700
C 	C 	0.36250 0.28360 0.15860 -0.14500
C 	C 	0.41620 0.26460 0.11890 0.08500
C 	C 	0.46680 0.23230 0.15360 -0.14000
C 	C 	0.46360 0.21880 0.23070 0.06100
C 	C 	0.41050 0.24020 0.27170 -0.10400
C 	C 	0.36020 0.27230 0.23760 0.06300
C 	C 	0.30610 0.31640 0.12160 0.40100
C 	C 	0.52710 0.21180 0.11230 0.40000
C 	C 	0.41110 0.22850 0.35600 0.32200
H 	H 	0.41840 0.27440 0.06680 0.01500
H 	H 	0.49650 0.19330 0.25450 0.03600
H 	H 	0.32390 0.28700 0.26610 0.03800
Zn	Zn	0.74525 0.87745 0.50000 1.23000
O 	O 	0.76040 0.83640 0.66070 -0.46300
O 	O 	0.81130 0.82380 0.55140 -0.46600
O 	O 	0.05900 0.66710 0.63690 -0.44500
O 	O 	0.03930 0.74630 0.55290 -0.45200
O 	O 	0.94780 0.68900 0.88360 -0.23400
O 	O 	0.87130 0.76480 0.89350 -0.36500
C 	C 	0.86250 0.78360 0.65860 -0.11700
C 	C 	0.91620 0.76460 0.61890 0.06800
C 	C 	0.96680 0.73230 0.65360 -0.11200
C 	C 	0.96360 0.71880 0.73070 0.04500
C 	C 	0.91050 0.74020 0.77170 -0.07400
C 	C 	0.86020 0.77230 0.73760 0.04500
C 	C 	0.80610 0.81640 0.62160 0.38900
C 	C 	0.02710 0.71180 0.61230 0.39300
C 	C 	0.91110 0.72850 0.85600 0.30700
H 	H 	0.91840 0.77440 0.56680 0.04400
H 	H 	0.99650 0.69330 0.75450 0.05300
H 	H 	0.82390 0.78700 0.76610 0.05500
Zn	Zn	0.75475 0.62255 -0.00000 1.20000
O 	O 	0.73960 0.66360 0.16070 -0.47500
O 	O 	0.68870 0.67620 0.05140 -0.50500
O 	O 	0.44100 0.83290 0.13690 -0.46300
O 	O 	0.46070 0.75370 0.05290 -0.49100
O 	O 	0.55220 0.81100 0.38360 -0.29500
O 	O 	0.62870 0.73520 0.39350 -0.43700
C 	C 	0.63750 0.71640 0.15860 -0.14500
C 	C 	0.58380 0.73540 0.11890 0.08500
C 	C 	0.53320 0.76770 0.15360 -0.14000
C 	C 	0.53640 0.78120 0.23070 0.06100
C 	C 	0.58950 0.75980 0.27170 -0.10400
C 	C 	0.63980 0.72770 0.23760 0.06300
C 	C 	0.69390 0.68360 0.12160 0.40100
C 	C 	0.47290 0.78820 0.11230 0.40000
C 	C 	0.58890 0.77150 0.35600 0.32200
H 	H 	0.58160 0.72560 0.06680 0.01500
H 	H 	0.50350 0.80670 0.25450 0.03600
H 	H 	0.67610 0.71300 0.26610 0.03800
Zn	Zn	0.25475 0.12255 0.50000 1.23000
O 	O 	0.23960 0.16360 0.66070 -0.46300
O 	O 	0.18870 0.17620 0.55140 -0.46600
O 	O 	0.94100 0.33290 0.63690 -0.44500
O 	O 	0.96070 0.25370 0.55290 -0.45200
O 	O 	0.05220 0.31100 0.88360 -0.23400
O 	O 	0.12870 0.23520 0.89350 -0.36500
C 	C 	0.13750 0.21640 0.65860 -0.11700
C 	C 	0.08380 0.23540 0.61890 0.06800
C 	C 	0.03320 0.26770 0.65360 -0.11200
C 	C 	0.03640 0.28120 0.73070 0.04500
C 	C 	0.08950 0.25980 0.77170 -0.07400
C 	C 	0.13980 0.22770 0.73760 0.04500
C 	C 	0.19390 0.18360 0.62160 0.38900
C 	C 	0.97290 0.28820 0.61230 0.39300
C 	C 	0.08890 0.27150 0.85600 0.30700
H 	H 	0.08160 0.22560 0.56680 0.04400
H 	H 	0.00350 0.30670 0.75450 0.05300
H 	H 	0.17610 0.21300 0.76610 0.05500
Zn	Zn	0.62255 0.24525 -0.00000 1.20000
O 	O 	0.66360 0.26040 0.16070 -0.47500
O 	O 	0.67620 0.31130 0.05140 -0.50500
O 	O 	0.83290 0.55900 0.13690 -0.46300
O 	O 	0.75370 0.53930 0.05290 -0.49100
O 	O 	0.81100 0.44780 0.38360 -0.29500
O 	O 	0.73520 0.37130 0.39350 -0.43700
C 	C 	0.71640 0.36250 0.15860 -0.14500
C 	C 	0.73540 0.41620 0.11890 0.08500
C 	C 	0.76770 0.46680 0.15360 -0.14000
C 	C 	0.78120 0.46360 0.23070 0.06100
C 	C 	0.75980 0.41050 0.27170 -0.10400
C 	C 	0.72770 0.36020 0.23760 0.06300
C 	C 	0.68360 0.30610 0.12160 0.40100
C 	C 	0.78820 0.52710 0.11230 0.40000
C 	C 	0.77150 0.41110 0.35600 0.32200
H 	H 	0.72560 0.41840 0.06680 0.01500
H 	H 	0.80670 0.49650 0.25450 0.03600
H 	H 	0.71300 0.32390 0.26610 0.03800
Zn	Zn	0.12255 0.74525 0.50000 1.23000
O 	O 	0.16360 0.76040 0.66070 -0.46300
O 	O 	0.17620 0.81130 0.55140 -0.46600
O 	O 	0.33290 0.05900 0.63690 -0.44500
O 	O 	0.25370 0.03930 0.55290 -0.45200
O 	O 	0.31100 0.94780 0.88360 -0.23400
O 	O 	0.23520 0.87130 0.89350 -0.36500
C 	C 	0.21640 0.86250 0.65860 -0.11700
C 	C 	0.23540 0.91620 0.61890 0.06800
C 	C 	0.26770 0.96680 0.65360 -0.11200
C 	C 	0.28120 0.96360 0.73070 0.04500
C 	C 	0.25980 0.91050 0.77170 -0.07400
C 	C 	0.22770 0.86020 0.73760 0.04500
C 	C 	0.18360 0.80610 0.62160 0.38900
C 	C 	0.28820 0.02710 0.61230 0.39300
C 	C 	0.27150 0.91110 0.85600 0.30700
H 	H 	0.22560 0.91840 0.56680 0.04400
H 	H 	0.30670 0.99650 0.75450 0.05300
H 	H 	0.21300 0.82390 0.76610 0.05500
Zn	Zn	0.37745 0.75475 -0.00000 1.20000
O 	O 	0.33640 0.73960 0.16070 -0.47500
O 	O 	0.32380 0.68870 0.05140 -0.50500
O 	O 	0.16710 0.44100 0.13690 -0.46300
O 	O 	0.24630 0.46070 0.05290 -0.49100
O 	O 	0.18900 0.55220 0.38360 -0.29500
O 	O 	0.26480 0.62870 0.39350 -0.43700
C 	C 	0.28360 0.63750 0.15860 -0.14500
C 	C 	0.26460 0.58380 0.11890 0.08500
C 	C 	0.23230 0.53320 0.15360 -0.14000
C 	C 	0.21880 0.53640 0.23070 0.06100
C 	C 	0.24020 0.58950 0.27170 -0.10400
C 	C 	0.27230 0.63980 0.23760 0.06300
C 	C 	0.31640 0.69390 0.12160 0.40100
C 	C 	0.21180 0.47290 0.11230 0.40000
C 	C 	0.22850 0.58890 0.35600 0.32200
H 	H 	0.27440 0.58160 0.06680 0.01500
H 	H 	0.19330 0.50350 0.25450 0.03600
H 	H 	0.28700 0.67610 0.26610 0.03800
Zn	Zn	0.87745 0.25475 0.50000 1.23000
O 	O 	0.83640 0.23960 0.66070 -0.46300
O 	O 	0.82380 0.18870 0.55140 -0.46600
O 	O 	0.66710 0.94100 0.63690 -0.44500
O 	O 	0.74630 0.96070 0.55290 -0.45200
O 	O 	0.68900 0.05220 0.88360 -0.23400
O 	O 	0.76480 0.12870 0.89350 -0.36500
C 	C 	0.78360 0.13750 0.65860 -0.11700
C 	C 	0.76460 0.08380 0.61890 0.06800
C 	C 	0.73230 0.03320 0.65360 -0.11200
C 	C 	0.71880 0.03640 0.73070 0.04500
C 	C 	0.74020 0.08950 0.77170 -0.07400
C 	C 	0.77230 0.13980 0.73760 0.04500
C 	C 	0.81640 0.19390 0.62160 0.38900
C 	C 	0.71180 0.97290 0.61230 0.39300
C 	C 	0.72850 0.08890 0.85600 0.30700
H 	H 	0.77440 0.08160 0.56680 0.04400
H 	H 	0.69330 0.00350 0.75450 0.05300
H 	H 	0.78700 0.17610 0.76610 0.05500
Zn	Zn	0.24525 0.62255 0.50000 1.23000
O 	O 	0.26040 0.66360 0.66070 -0.46300
O 	O 	0.31130 0.67620 0.55140 -0.46600
O 	O 	0.55900 0.83290 0.63690 -0.44500
O 	O 	0.53930 0.75370 0.55290 -0.45200
O 	O 	0.44780 0.81100 0.88360 -0.23400
O 	O 	0.37130 0.73520 0.89350 -0.36400
C 	C 	0.36250 0.71640 0.65860 -0.11700
C 	C 	0.41620 0.73540 0.61890 0.06800
C 	C 	0.46680 0.76770 0.65360 -0.11200
C 	C 	0.46360 0.78120 0.73070 0.04500
C 	C 	0.41050 0.75980 0.77170 -0.07400
C 	C 	0.36020 0.72770 0.73760 0.04500
C 	C 	0.30610 0.68360 0.62160 0.38900
C 	C 	0.52710 0.78820 0.61230 0.39300
C 	C 	0.41110 0.77150 0.85600 0.30700
H 	H 	0.41840 0.72560 0.56680 0.04400
H 	H 	0.49650 0.80670 0.75450 0.05300
H 	H 	0.32390 0.71300 0.76610 0.05500
Zn	Zn	0.74525 0.12255 -0.00000 1.20000
O 	O 	0.76040 0.16360 0.16070 -0.47500
O 	O 	0.81130 0.17620 0.05140 -0.50500
O 	O 	0.05900 0.33290 0.13690 -0.46300
O 	O 	0.03930 0.25370 0.05290 -0.49100
O 	O 	0.94780 0.31100 0.38360 -0.29500
O 	O 	0.87130 0.23520 0.39350 -0.43700
C 	C 	0.86250 0.21640 0.15860 -0.14500
C 	C 	0.91620 0.23540 0.11890 0.08500
C 	C 	0.96680 0.26770 0.15360 -0.14000
C 	C 	0.96360 0.28120 0.23070 0.06100
C 	C 	0.91050 0.25980 0.27170 -0.10400
C 	C 	0.86020 0.22770 0.23760 0.06300
C 	C 	0.80610 0.18360 0.12160 0.40100
C 	C 	0.02710 0.28820 0.11230 0.40000
C 	C 	0.91110 0.27150 0.35600 0.32200
H 	H 	0.91840 0.22560 0.06680 0.01500
H 	H 	0.99650 0.30670 0.25450 0.03600
H 	H 	0.82390 0.21300 0.26610 0.03800
Zn	Zn	0.75475 0.37745 0.50000 1.23000
O 	O 	0.73960 0.33640 0.66070 -0.46300
O 	O 	0.68870 0.32380 0.55140 -0.46600
O 	O 	0.44100 0.16710 0.63690 -0.44500
O 	O 	0.46070 0.24630 0.55290 -0.45200
O 	O 	0.55220 0.18900 0.88360 -0.23400
O 	O 	0.62870 0.26480 0.89350 -0.36400
C 	C 	0.63750 0.28360 0.65860 -0.11700
C 	C 	0.58380 0.26460 0.61890 0.06800
C 	C 	0.53320 0.23230 0.65360 -0.11200
C 	C 	0.53640 0.21880 0.73070 0.04500
C 	C 	0.58950 0.24020 0.77170 -0.07400
C 	C 	0.63980 0.27230 0.73760 0.04500
C 	C 	0.69390 0.31640 0.62160 0.38900
C 	C 	0.47290 0.21180 0.61230 0.39300
C 	C 	0.58890 0.22850 0.85600 0.30700
H 	H 	0.58160 0.27440 0.56680 0.04400
H 	H 	0.50350 0.19330 0.75450 0.05300
H 	H 	0.67610 0.28700 0.76610 0.05500
Zn	Zn	0.25475 0.87745 -0.00000 1.20000
O 	O 	0.23960 0.83640 0.16070 -0.47500
O 	O 	0.18870 0.82380 0.05140 -0.50500
O 	O 	0.94100 0.66710 0.13690 -0.46300
O 	O 	0.96070 0.74630 0.05290 -0.49100
O 	O 	0.05220 0.68900 0.38360 -0.29500
O 	O 	0.12870 0.76480 0.39350 -0.43700
C 	C 	0.13750 0.78360 0.15860 -0.14500
C 	C 	0.08380 0.76460 0.11890 0.08500
C 	C 	0.03320 0.73230 0.15360 -0.14000
C 	C 	0.03640 0.71880 0.23070 0.06100
C 	C 	0.08950 0.74020 0.27170 -0.10400
C 	C 	0.13980 0.77230 0.23760 0.06300
C 	C 	0.19390 0.81640 0.12160 0.40100
C 	C 	0.97290 0.71180 0.11230 0.40000
C 	C 	0.08890 0.72850 0.35600 0.32200
H 	H 	0.08160 0.77440 0.06680 0.01500
H 	H 	0.00350 0.69330 0.25450 0.03600
H 	H 	0.17610 0.78700 0.26610 0.03800
Zn	Zn	0.62255 0.75475 0.50000 1.23000
O 	O 	0.66360 0.73960 0.66070 -0.46300
O 	O 	0.67620 0.68870 0.55140 -0.46600
O 	O 	0.83290 0.44100 0.63690 -0.44500
O 	O 	0.75370 0.46070 0.55290 -0.45200
O 	O 	0.81100 0.55220 0.88360 -0.23400
O 	O 	0.73520 0.62870 0.89350 -0.36400
C 	C 	0.71640 0.63750 0.65860 -0.11700
C 	C 	0.73540 0.58380 0.61890 0.06800
C 	C 	0.76770 0.53320 0.65360 -0.11200
C 	C 	0.78120 0.53640 0.73070 0.04500
C 	C 	0.75980 0.58950 0.77170 -0.07400
C 	C 	0.72770 0.63980 0.73760 0.04500
C 	C 	0.68360 0.69390 0.62160 0.38900
C 	C 	0.78820 0.47290 0.61230 0.39300
C 	C 	0.77150 0.58890 0.85600 0.30700
H 	H 	0.72560 0.58160 0.56680 0.04400
H 	H 	0.80670 0.50350 0.75450 0.05300
H 	H 	0.71300 0.67610 0.76610 0.05500
Zn	Zn	0.12255 0.25475 -0.00000 1.20000
O 	O 	0.16360 0.23960 0.16070 -0.47500
O 	O 	0.17620 0.18870 0.05140 -0.50500
O 	O 	0.33290 0.94100 0.13690 -0.46300
O 	O 	0.25370 0.96070 0.05290 -0.49100
O 	O 	0.31100 0.05220 0.38360 -0.29500
O 	O 	0.23520 0.12870 0.39350 -0.43700
C 	C 	0.21640 0.13750 0.15860 -0.14500
C 	C 	0.23540 0.08380 0.11890 0.08500
C 	C 	0.26770 0.03320 0.15360 -0.14000
C 	C 	0.28120 0.03640 0.23070 0.06100
C 	C 	0.25980 0.08950 0.27170 -0.10400
C 	C 	0.22770 0.13980 0.23760 0.06300
C 	C 	0.18360 0.19390 0.12160 0.40100
C 	C 	0.28820 0.97290 0.11230 0.40000
C 	C 	0.27150 0.08890 0.35600 0.32200
H 	H 	0.22560 0.08160 0.06680 0.01500
H 	H 	0.30670 0.00350 0.25450 0.03600
H 	H 	0.21300 0.17610 0.26610 0.03800
Zn	Zn	0.37745 0.24525 0.50000 1.23000
O 	O 	0.33640 0.26040 0.66070 -0.46300
O 	O 	0.32380 0.31130 0.55140 -0.46600
O 	O 	0.16710 0.55900 0.63690 -0.44500
O 	O 	0.24630 0.53930 0.55290 -0.45200
O 	O 	0.18900 0.44780 0.88360 -0.23400
O 	O 	0.26480 0.37130 0.89350 -0.36400
C 	C 	0.28360 0.36250 0.65860 -0.11700
C 	C 	0.26460 0.41620 0.61890 0.06800
C 	C 	0.23230 0.46680 0.65360 -0.11200
C 	C 	0.21880 0.46360 0.73070 0.04500
C 	C 	0.24020 0.41050 0.77170 -0.07400
C 	C 	0.27230 0.36020 0.73760 0.04500
C 	C 	0.31640 0.30610 0.62160 0.38900
C 	C 	0.21180 0.52710 0.61230 0.39300
C 	C 	0.22850 0.41110 0.85600 0.30700
H 	H 	0.27440 0.41840 0.56680 0.04400
H 	H 	0.19330 0.49650 0.75450 0.05300
H 	H 	0.28700 0.32390 0.76610 0.05500
Zn	Zn	0.87745 0.74525 -0.00000 1.20000
O 	O 	0.83640 0.76040 0.16070 -0.47500
O 	O 	0.82380 0.81130 0.05140 -0.50500
O 	O 	0.66710 0.05900 0.13690 -0.46300
O 	O 	0.74630 0.03930 0.05290 -0.49100
O 	O 	0.68900 0.94780 0.38360 -0.29500
O 	O 	0.76480 0.87130 0.39350 -0.43700
C 	C 	0.78360 0.86250 0.15860 -0.14500
C 	C 	0.76460 0.91620 0.11890 0.08500
C 	C 	0.73230 0.96680 0.15360 -0.14000
C 	C 	0.71880 0.96360 0.23070 0.06100
C 	C 	0.74020 0.91050 0.27170 -0.10400
C 	C 	0.77230 0.86020 0.23760 0.06300
C 	C 	0.81640 0.80610 0.12160 0.40100
C 	C 	0.71180 0.02710 0.11230 0.40000
C 	C 	0.72850 0.91110 0.35600 0.32200
H 	H 	0.77440 0.91840 0.06680 0.01500
H 	H 	0.69330 0.99650 0.25450 0.03600
H 	H 	0.78700 0.82390 0.26610 0.03800
Zn	Zn	0.15971 0.34029 0.14506 1.21600
O 	O 	0.16230 0.33770 0.02700 -0.70800
Zn	Zn	0.84029 0.65971 0.14506 1.21600
O 	O 	0.83770 0.66230 0.02700 -0.70800
Zn	Zn	0.34029 0.15971 0.64506 1.21800
O 	O 	0.33770 0.16230 0.52700 -0.66200
Zn	Zn	0.65971 0.15971 0.14506 1.21600
O 	O 	0.66230 0.16230 0.02700 -0.70800
Zn	Zn	0.34029 0.84029 0.14506 1.21600
O 	O 	0.33770 0.83770 0.02700 -0.70800
Zn	Zn	0.15971 0.65971 0.64506 1.21800
O 	O 	0.16230 0.66230 0.52700 -0.66200
Zn	Zn	0.84029 0.34029 0.64506 1.21800
O 	O 	0.83770 0.33770 0.52700 -0.66200
Zn	Zn	0.65971 0.84029 0.64506 1.21800
O 	O 	0.66230 0.83770 0.52700 -0.66200
