data_crystal

_cell_length_a 15.67300
_cell_length_b 13.78700
_cell_length_c 18.33100
_cell_angle_alpha 90.00000
_cell_angle_beta  90.00000
_cell_angle_gamma 90.00000

_symmetry_space_group_name_	'P 1'
_symmetry_space_group_name_H-M	'P 1'

loop_
_symmetry_equiv_pos_as_xyz
  x,y,z

loop_
_atom_site_label
_atom_site_type_symbol
_atom_site_fract_x
_atom_site_fract_y
_atom_site_fract_z
_atom_site_charge
N 	N 	0.37085 0.50850 0.51263 -0.14900
N 	N 	0.36379 0.62661 0.59251 -0.26100
N 	N 	0.31423 0.50716 0.25276 -0.14800
N 	N 	0.27542 0.62254 0.17723 -0.28400
C 	C 	0.34918 0.30370 0.38244 0.07700
C 	C 	0.36118 0.35590 0.44723 -0.15400
H 	H 	0.37170 0.32260 0.49170 0.05500
C 	C 	0.35760 0.45610 0.44619 0.15300
C 	C 	0.34310 0.50800 0.38268 -0.20800
H 	H 	0.34210 0.57690 0.38280 0.10100
C 	C 	0.33010 0.45580 0.31900 0.16400
C 	C 	0.33317 0.35580 0.31821 -0.16600
H 	H 	0.32430 0.32190 0.27370 0.10300
C 	C 	0.33470 0.59440 0.52998 0.08800
H 	H 	0.29370 0.62710 0.50080 -0.00000
C 	C 	0.42040 0.55860 0.61724 0.00100
H 	H 	0.45150 0.56240 0.66160 0.02500
C 	C 	0.42520 0.48530 0.56875 -0.00500
H 	H 	0.45940 0.42860 0.57260 0.01500
C 	C 	0.27870 0.59570 0.24608 0.09700
H 	H 	0.25860 0.63360 0.28580 -0.03100
C 	C 	0.31000 0.54750 0.13752 0.00700
H 	H 	0.31620 0.54640 0.08600 0.01900
C 	C 	0.33340 0.47610 0.18321 -0.00500
H 	H 	0.35840 0.41580 0.17010 0.04000
N 	N 	0.87085 0.99150 0.98737 -0.14800
N 	N 	0.86379 0.87339 0.90749 -0.26200
N 	N 	0.81423 0.99284 0.24724 -0.14700
N 	N 	0.77542 0.87746 0.32277 -0.28500
C 	C 	0.84918 0.19630 0.11756 0.07400
C 	C 	0.86118 0.14410 0.05277 -0.15200
H 	H 	0.87170 0.17740 0.00830 0.05300
C 	C 	0.85760 0.04390 0.05381 0.14700
C 	C 	0.84310 0.99200 0.11732 -0.20100
H 	H 	0.84210 0.92310 0.11720 0.09900
C 	C 	0.83010 0.04420 0.18100 0.15900
C 	C 	0.83317 0.14420 0.18179 -0.16300
H 	H 	0.82430 0.17810 0.22630 0.10200
C 	C 	0.83470 0.90560 0.97002 0.08800
H 	H 	0.79370 0.87290 0.99920 -0.00000
C 	C 	0.92040 0.94140 0.88276 0.00300
H 	H 	0.95150 0.93760 0.83840 0.02400
C 	C 	0.92520 0.01470 0.93125 -0.00800
H 	H 	0.95940 0.07140 0.92740 0.01500
C 	C 	0.77870 0.90430 0.25392 0.09600
H 	H 	0.75860 0.86640 0.21420 -0.03100
C 	C 	0.81000 0.95250 0.36248 0.01000
H 	H 	0.81620 0.95360 0.41400 0.01800
C 	C 	0.83340 0.02390 0.31679 -0.00900
H 	H 	0.85840 0.08420 0.32990 0.04100
N 	N 	0.87085 0.50850 0.98737 -0.15000
N 	N 	0.86379 0.62661 0.90749 -0.26200
N 	N 	0.81423 0.50716 0.24724 -0.14900
N 	N 	0.77542 0.62254 0.32277 -0.28500
C 	C 	0.84918 0.30370 0.11756 0.07700
C 	C 	0.86118 0.35590 0.05277 -0.15600
H 	H 	0.87170 0.32260 0.00830 0.05500
C 	C 	0.85760 0.45610 0.05381 0.15300
C 	C 	0.84310 0.50800 0.11732 -0.20800
H 	H 	0.84210 0.57690 0.11720 0.10100
C 	C 	0.83010 0.45580 0.18100 0.16500
C 	C 	0.83317 0.35580 0.18179 -0.16700
H 	H 	0.82430 0.32190 0.22630 0.10300
C 	C 	0.83470 0.59440 0.97002 0.08800
H 	H 	0.79370 0.62710 0.99920 -0.00000
C 	C 	0.92040 0.55860 0.88276 0.00100
H 	H 	0.95150 0.56240 0.83840 0.02500
C 	C 	0.92520 0.48530 0.93125 -0.00500
H 	H 	0.95940 0.42860 0.92740 0.01500
C 	C 	0.77870 0.59570 0.25392 0.09700
H 	H 	0.75860 0.63360 0.21420 -0.03100
C 	C 	0.81000 0.54750 0.36248 0.00700
H 	H 	0.81620 0.54640 0.41400 0.01900
C 	C 	0.83340 0.47610 0.31679 -0.00500
H 	H 	0.85840 0.41580 0.32990 0.04000
N 	N 	0.37085 0.99150 0.51263 -0.15100
N 	N 	0.36379 0.87339 0.59251 -0.26200
N 	N 	0.31423 0.99284 0.25276 -0.15000
N 	N 	0.27542 0.87746 0.17723 -0.28500
C 	C 	0.34918 0.19630 0.38244 0.07700
C 	C 	0.36118 0.14410 0.44723 -0.15600
H 	H 	0.37170 0.17740 0.49170 0.05500
C 	C 	0.35760 0.04390 0.44619 0.15400
C 	C 	0.34310 0.99200 0.38268 -0.21000
H 	H 	0.34210 0.92310 0.38280 0.10100
C 	C 	0.33010 0.04420 0.31900 0.16600
C 	C 	0.33317 0.14420 0.31821 -0.16800
H 	H 	0.32430 0.17810 0.27370 0.10400
C 	C 	0.33470 0.90560 0.52998 0.08800
H 	H 	0.29370 0.87290 0.50080 -0.00100
C 	C 	0.42040 0.94140 0.61724 0.00000
H 	H 	0.45150 0.93760 0.66160 0.02500
C 	C 	0.42520 0.01470 0.56875 -0.00400
H 	H 	0.45940 0.07140 0.57260 0.01400
C 	C 	0.27870 0.90430 0.24608 0.09600
H 	H 	0.25860 0.86640 0.28580 -0.03100
C 	C 	0.31000 0.95250 0.13752 0.00600
H 	H 	0.31620 0.95360 0.08600 0.01900
C 	C 	0.33340 0.02390 0.18321 -0.00400
H 	H 	0.35840 0.08420 0.17010 0.04000
Zn	Zn	0.32777 0.75000 0.64298 1.20800
Zn	Zn	0.24157 0.75000 0.13385 1.16300
O 	O 	0.20060 0.75000 0.63975 -0.45500
O 	O 	0.19680 0.75000 0.51880 -0.31100
O 	O 	0.79220 0.75000 0.46561 -0.45900
O 	O 	0.91100 0.75000 0.40004 -0.32900
O 	O 	0.82540 0.75000 0.74601 -0.42600
O 	O 	0.95480 0.75000 0.78871 -0.36900
C 	C 	0.06520 0.75000 0.58440 -0.10900
C 	C 	0.01450 0.75000 0.52250 0.04000
H 	H 	0.04030 0.75000 0.47560 0.04300
C 	C 	0.92640 0.75000 0.52860 -0.09900
C 	C 	0.88850 0.75000 0.59780 0.04000
H 	H 	0.82810 0.75000 0.60240 0.04700
C 	C 	0.93950 0.75000 0.65960 -0.10100
C 	C 	0.02680 0.75000 0.65230 0.03900
H 	H 	0.06140 0.75000 0.69480 0.04200
C 	C 	0.16150 0.75000 0.57900 0.34100
C 	C 	0.87410 0.75000 0.45900 0.32700
C 	C 	0.90470 0.75000 0.73600 0.31700
Zn	Zn	0.82777 0.75000 0.85702 1.20800
Zn	Zn	0.74157 0.75000 0.36615 1.16300
O 	O 	0.70060 0.75000 0.86025 -0.45500
O 	O 	0.69680 0.75000 0.98120 -0.31100
O 	O 	0.29220 0.75000 0.03439 -0.45900
O 	O 	0.41100 0.75000 0.09996 -0.32900
O 	O 	0.32540 0.75000 0.75399 -0.42600
O 	O 	0.45480 0.75000 0.71129 -0.37000
C 	C 	0.56520 0.75000 0.91560 -0.11100
C 	C 	0.51450 0.75000 0.97750 0.04200
H 	H 	0.54030 0.75000 0.02440 0.04200
C 	C 	0.42640 0.75000 0.97140 -0.10100
C 	C 	0.38850 0.75000 0.90220 0.04100
H 	H 	0.32810 0.75000 0.89760 0.04600
C 	C 	0.43950 0.75000 0.84040 -0.10400
C 	C 	0.52680 0.75000 0.84770 0.04200
H 	H 	0.56140 0.75000 0.80520 0.04100
C 	C 	0.66150 0.75000 0.92100 0.34100
C 	C 	0.37410 0.75000 0.04100 0.32800
C 	C 	0.40470 0.75000 0.76400 0.31800
N 	N 	0.12915 0.49150 0.01263 -0.15000
N 	N 	0.13621 0.37339 0.09251 -0.26200
N 	N 	0.18577 0.49284 0.75276 -0.14900
N 	N 	0.22458 0.37746 0.67723 -0.28500
C 	C 	0.15082 0.69630 0.88244 0.07700
C 	C 	0.13882 0.64410 0.94723 -0.15600
H 	H 	0.12830 0.67740 0.99170 0.05500
C 	C 	0.14240 0.54390 0.94619 0.15300
C 	C 	0.15690 0.49200 0.88268 -0.20800
H 	H 	0.15790 0.42310 0.88280 0.10100
C 	C 	0.16990 0.54420 0.81900 0.16500
C 	C 	0.16683 0.64420 0.81821 -0.16700
H 	H 	0.17570 0.67810 0.77370 0.10300
C 	C 	0.16530 0.40560 0.02998 0.08800
H 	H 	0.20630 0.37290 0.00080 -0.00000
C 	C 	0.07960 0.44140 0.11724 0.00100
H 	H 	0.04850 0.43760 0.16160 0.02500
C 	C 	0.07480 0.51470 0.06875 -0.00500
H 	H 	0.04060 0.57140 0.07260 0.01500
C 	C 	0.22130 0.40430 0.74608 0.09700
H 	H 	0.24140 0.36640 0.78580 -0.03100
C 	C 	0.19000 0.45250 0.63752 0.00700
H 	H 	0.18380 0.45360 0.58600 0.01900
C 	C 	0.16660 0.52390 0.68321 -0.00500
H 	H 	0.14160 0.58420 0.67010 0.04000
N 	N 	0.62915 0.00850 0.48737 -0.15100
N 	N 	0.63621 0.12661 0.40749 -0.26200
N 	N 	0.68577 0.00716 0.74724 -0.15000
N 	N 	0.72458 0.12254 0.82277 -0.28500
C 	C 	0.65082 0.80370 0.61756 0.07700
C 	C 	0.63882 0.85590 0.55277 -0.15600
H 	H 	0.62830 0.82260 0.50830 0.05500
C 	C 	0.64240 0.95610 0.55381 0.15400
C 	C 	0.65690 0.00800 0.61732 -0.21000
H 	H 	0.65790 0.07690 0.61720 0.10100
C 	C 	0.66990 0.95580 0.68100 0.16600
C 	C 	0.66683 0.85580 0.68179 -0.16800
H 	H 	0.67570 0.82190 0.72630 0.10400
C 	C 	0.66530 0.09440 0.47002 0.08800
H 	H 	0.70630 0.12710 0.49920 -0.00100
C 	C 	0.57960 0.05860 0.38276 0.00000
H 	H 	0.54850 0.06240 0.33840 0.02500
C 	C 	0.57480 0.98530 0.43125 -0.00400
H 	H 	0.54060 0.92860 0.42740 0.01400
C 	C 	0.72130 0.09570 0.75392 0.09600
H 	H 	0.74140 0.13360 0.71420 -0.03100
C 	C 	0.69000 0.04750 0.86248 0.00600
H 	H 	0.68380 0.04640 0.91400 0.01900
C 	C 	0.66660 0.97610 0.81679 -0.00400
H 	H 	0.64160 0.91580 0.82990 0.04000
N 	N 	0.62915 0.49150 0.48737 -0.15000
N 	N 	0.63621 0.37339 0.40749 -0.26200
N 	N 	0.68577 0.49284 0.74724 -0.14900
N 	N 	0.72458 0.37746 0.82277 -0.28500
C 	C 	0.65082 0.69630 0.61756 0.07600
C 	C 	0.63882 0.64410 0.55277 -0.15500
H 	H 	0.62830 0.67740 0.50830 0.05500
C 	C 	0.64240 0.54390 0.55381 0.15300
C 	C 	0.65690 0.49200 0.61732 -0.20800
H 	H 	0.65790 0.42310 0.61720 0.10100
C 	C 	0.66990 0.54420 0.68100 0.16400
C 	C 	0.66683 0.64420 0.68179 -0.16600
H 	H 	0.67570 0.67810 0.72630 0.10300
C 	C 	0.66530 0.40560 0.47002 0.08800
H 	H 	0.70630 0.37290 0.49920 -0.00000
C 	C 	0.57960 0.44140 0.38276 0.00100
H 	H 	0.54850 0.43760 0.33840 0.02500
C 	C 	0.57480 0.51470 0.43125 -0.00500
H 	H 	0.54060 0.57140 0.42740 0.01500
C 	C 	0.72130 0.40430 0.75392 0.09700
H 	H 	0.74140 0.36640 0.71420 -0.03100
C 	C 	0.69000 0.45250 0.86248 0.00700
H 	H 	0.68380 0.45360 0.91400 0.01900
C 	C 	0.66660 0.52390 0.81679 -0.00500
H 	H 	0.64160 0.58420 0.82990 0.04000
N 	N 	0.12915 0.00850 0.01263 -0.14800
N 	N 	0.13621 0.12661 0.09251 -0.26200
N 	N 	0.18577 0.00716 0.75276 -0.14700
N 	N 	0.22458 0.12254 0.67723 -0.28500
C 	C 	0.15082 0.80370 0.88244 0.07400
C 	C 	0.13882 0.85590 0.94723 -0.15200
H 	H 	0.12830 0.82260 0.99170 0.05300
C 	C 	0.14240 0.95610 0.94619 0.14700
C 	C 	0.15690 0.00800 0.88268 -0.20100
H 	H 	0.15790 0.07690 0.88280 0.09900
C 	C 	0.16990 0.95580 0.81900 0.15900
C 	C 	0.16683 0.85580 0.81821 -0.16300
H 	H 	0.17570 0.82190 0.77370 0.10200
C 	C 	0.16530 0.09440 0.02998 0.08800
H 	H 	0.20630 0.12710 0.00080 -0.00000
C 	C 	0.07960 0.05860 0.11724 0.00300
H 	H 	0.04850 0.06240 0.16160 0.02400
C 	C 	0.07480 0.98530 0.06875 -0.00800
H 	H 	0.04060 0.92860 0.07260 0.01500
C 	C 	0.22130 0.09570 0.74608 0.09600
H 	H 	0.24140 0.13360 0.78580 -0.03100
C 	C 	0.19000 0.04750 0.63752 0.01000
H 	H 	0.18380 0.04640 0.58600 0.01800
C 	C 	0.16660 0.97610 0.68321 -0.00900
H 	H 	0.14160 0.91580 0.67010 0.04100
Zn	Zn	0.17223 0.25000 0.14298 1.20800
Zn	Zn	0.25843 0.25000 0.63385 1.16300
O 	O 	0.29940 0.25000 0.13975 -0.45500
O 	O 	0.30320 0.25000 0.01880 -0.31100
O 	O 	0.70780 0.25000 0.96561 -0.45900
O 	O 	0.58900 0.25000 0.90004 -0.32900
O 	O 	0.67460 0.25000 0.24601 -0.42600
O 	O 	0.54520 0.25000 0.28871 -0.37000
C 	C 	0.43480 0.25000 0.08440 -0.11100
C 	C 	0.48550 0.25000 0.02250 0.04200
H 	H 	0.45970 0.25000 0.97560 0.04200
C 	C 	0.57360 0.25000 0.02860 -0.10100
C 	C 	0.61150 0.25000 0.09780 0.04100
H 	H 	0.67190 0.25000 0.10240 0.04600
C 	C 	0.56050 0.25000 0.15960 -0.10400
C 	C 	0.47320 0.25000 0.15230 0.04200
H 	H 	0.43860 0.25000 0.19480 0.04100
C 	C 	0.33850 0.25000 0.07900 0.34100
C 	C 	0.62590 0.25000 0.95900 0.32800
C 	C 	0.59530 0.25000 0.23600 0.31800
Zn	Zn	0.67223 0.25000 0.35702 1.20800
Zn	Zn	0.75843 0.25000 0.86615 1.16300
O 	O 	0.79940 0.25000 0.36025 -0.45500
O 	O 	0.80320 0.25000 0.48120 -0.31100
O 	O 	0.20780 0.25000 0.53439 -0.45900
O 	O 	0.08900 0.25000 0.59996 -0.32900
O 	O 	0.17460 0.25000 0.25399 -0.42600
O 	O 	0.04520 0.25000 0.21129 -0.36900
C 	C 	0.93480 0.25000 0.41560 -0.10900
C 	C 	0.98550 0.25000 0.47750 0.04000
H 	H 	0.95970 0.25000 0.52440 0.04300
C 	C 	0.07360 0.25000 0.47140 -0.09900
C 	C 	0.11150 0.25000 0.40220 0.04000
H 	H 	0.17190 0.25000 0.39760 0.04700
C 	C 	0.06050 0.25000 0.34040 -0.10100
C 	C 	0.97320 0.25000 0.34770 0.03900
H 	H 	0.93860 0.25000 0.30520 0.04200
C 	C 	0.83850 0.25000 0.42100 0.34100
C 	C 	0.12590 0.25000 0.54100 0.32700
C 	C 	0.09530 0.25000 0.26400 0.31700
