data_crystal

_cell_length_a 9.75300
_cell_length_b 12.75100
_cell_length_c 14.17400
_cell_angle_alpha 90.00000
_cell_angle_beta  109.41000
_cell_angle_gamma 90.00000

_symmetry_space_group_name_	'P 1'
_symmetry_space_group_name_H-M	'P 1'

loop_
_symmetry_equiv_pos_as_xyz
  x,y,z

loop_
_atom_site_label
_atom_site_type_symbol
_atom_site_fract_x
_atom_site_fract_y
_atom_site_fract_z
_atom_site_charge
Mn	Mn	0.55674 0.72422 0.14858 1.29100
O 	O 	0.67160 0.58520 0.11730 -0.53800
O 	O 	0.80340 0.72820 0.14800 -0.36200
O 	O 	0.35080 0.69210 0.18520 -0.53700
O 	O 	0.37680 0.56750 0.08610 -0.53100
O 	O 	0.13110 0.23330 0.12010 -0.35600
O 	O 	0.90300 0.23950 0.11450 -0.27200
C 	C 	0.91960 0.56790 0.12900 -0.16100
C 	C 	0.05020 0.61690 0.13580 0.09600
C 	C 	0.16880 0.55730 0.13500 -0.18600
C 	C 	0.15780 0.44850 0.12890 0.09100
C 	C 	0.03000 0.39950 0.12540 -0.14500
C 	C 	0.90940 0.46030 0.12490 0.07200
C 	C 	0.79270 0.63140 0.13070 0.35000
C 	C 	0.30720 0.60810 0.13560 0.42100
C 	C 	0.01430 0.28410 0.11920 0.36200
O 	O 	0.45100 0.88240 0.31120 -0.43100
O 	O 	0.51340 0.21940 0.00070 -0.46800
O 	O 	0.52940 0.36670 0.08880 -0.47300
C 	C 	0.51230 0.09920 0.16800 0.09000
C 	C 	0.51110 0.20840 0.16800 -0.14500
C 	C 	0.51970 0.26970 0.07950 0.41500
H 	H 	0.12790 0.15500 0.12340 0.18100
H 	H 	0.05840 0.69500 0.14130 0.02500
H 	H 	0.24280 0.40570 0.12710 0.02000
H 	H 	0.81620 0.42530 0.12170 0.01900
H 	H 	0.52180 0.05990 0.10940 0.03100
Mn	Mn	0.44326 0.72422 0.35142 1.30300
O 	O 	0.32840 0.58520 0.38270 -0.52300
O 	O 	0.19660 0.72820 0.35200 -0.34500
O 	O 	0.64920 0.69210 0.31480 -0.52900
O 	O 	0.62320 0.56750 0.41390 -0.50700
O 	O 	0.86890 0.23330 0.37990 -0.34500
O 	O 	0.09700 0.23950 0.38550 -0.25000
C 	C 	0.08040 0.56790 0.37100 -0.13800
C 	C 	0.94980 0.61690 0.36420 0.08800
C 	C 	0.83120 0.55730 0.36500 -0.16800
C 	C 	0.84220 0.44850 0.37110 0.09300
C 	C 	0.97000 0.39950 0.37460 -0.13600
C 	C 	0.09060 0.46030 0.37510 0.08200
C 	C 	0.20730 0.63140 0.36930 0.35400
C 	C 	0.69280 0.60810 0.36440 0.42200
C 	C 	0.98570 0.28410 0.38080 0.35700
O 	O 	0.54900 0.88240 0.18880 -0.44500
O 	O 	0.48660 0.21940 0.49930 -0.42200
O 	O 	0.47060 0.36670 0.41120 -0.45500
C 	C 	0.48770 0.09920 0.33200 0.08900
C 	C 	0.48890 0.20840 0.33200 -0.13700
C 	C 	0.48030 0.26970 0.42050 0.41100
H 	H 	0.87210 0.15500 0.37660 0.18800
H 	H 	0.94160 0.69500 0.35870 0.03600
H 	H 	0.75720 0.40570 0.37290 0.02700
H 	H 	0.18380 0.42530 0.37830 0.02600
H 	H 	0.47820 0.05990 0.39060 0.04600
Mn	Mn	0.44326 0.27578 0.85142 1.31600
O 	O 	0.32840 0.41480 0.88270 -0.49900
O 	O 	0.19660 0.27180 0.85200 -0.32300
O 	O 	0.64920 0.30790 0.81480 -0.51800
O 	O 	0.62320 0.43250 0.91390 -0.47200
O 	O 	0.86890 0.76670 0.87990 -0.33300
O 	O 	0.09700 0.76050 0.88550 -0.23200
C 	C 	0.08040 0.43210 0.87100 -0.11900
C 	C 	0.94980 0.38310 0.86420 0.08500
C 	C 	0.83120 0.44270 0.86500 -0.15000
C 	C 	0.84220 0.55150 0.87110 0.09400
C 	C 	0.97000 0.60050 0.87460 -0.12300
C 	C 	0.09060 0.53970 0.87510 0.08500
C 	C 	0.20730 0.36860 0.86930 0.35500
C 	C 	0.69280 0.39190 0.86440 0.41800
C 	C 	0.98570 0.71590 0.88080 0.35900
O 	O 	0.54900 0.11760 0.68880 -0.42400
O 	O 	0.48660 0.78060 0.99930 -0.37300
O 	O 	0.47060 0.63330 0.91120 -0.42600
C 	C 	0.48770 0.90080 0.83200 0.08400
C 	C 	0.48890 0.79160 0.83200 -0.12300
C 	C 	0.48030 0.73030 0.92050 0.40300
H 	H 	0.87210 0.84500 0.87660 0.19700
H 	H 	0.94160 0.30500 0.85870 0.04900
H 	H 	0.75720 0.59430 0.87290 0.03600
H 	H 	0.18380 0.57470 0.87830 0.03500
H 	H 	0.47820 0.94010 0.89060 0.06100
Mn	Mn	0.55674 0.27578 0.64858 1.30300
O 	O 	0.67160 0.41480 0.61730 -0.52400
O 	O 	0.80340 0.27180 0.64800 -0.34300
O 	O 	0.35080 0.30790 0.68520 -0.52800
O 	O 	0.37680 0.43250 0.58610 -0.50700
O 	O 	0.13110 0.76670 0.62010 -0.34700
O 	O 	0.90300 0.76050 0.61450 -0.26000
C 	C 	0.91960 0.43210 0.62900 -0.14800
C 	C 	0.05020 0.38310 0.63580 0.09900
C 	C 	0.16880 0.44270 0.63500 -0.17100
C 	C 	0.15780 0.55150 0.62890 0.09300
C 	C 	0.03000 0.60050 0.62540 -0.13100
C 	C 	0.90940 0.53970 0.62490 0.07400
C 	C 	0.79270 0.36860 0.63070 0.35400
C 	C 	0.30720 0.39190 0.63560 0.42200
C 	C 	0.01430 0.71590 0.61920 0.36800
O 	O 	0.45100 0.11760 0.81120 -0.41000
O 	O 	0.51340 0.78060 0.50070 -0.42300
O 	O 	0.52940 0.63330 0.58880 -0.45500
C 	C 	0.51230 0.90080 0.66800 0.08600
C 	C 	0.51110 0.79160 0.66800 -0.13200
C 	C 	0.51970 0.73030 0.57950 0.41000
H 	H 	0.12790 0.84500 0.62340 0.19100
H 	H 	0.05840 0.30500 0.64130 0.03700
H 	H 	0.24280 0.59430 0.62710 0.02700
H 	H 	0.81620 0.57470 0.62170 0.02600
H 	H 	0.52180 0.94010 0.60940 0.04500
Mn	Mn	0.50000 0.50000 -0.00000 1.29200
Mn	Mn	0.50000 0.50000 0.50000 1.32400
C 	C 	0.50000 0.04510 0.25000 -0.13700
C 	C 	0.50000 0.26170 0.25000 0.10000
C 	C 	0.50000 0.92780 0.25000 0.39500
H 	H 	0.50000 0.34020 0.25000 0.03100
C 	C 	0.50000 0.95490 0.75000 -0.13100
C 	C 	0.50000 0.73830 0.75000 0.09200
C 	C 	0.50000 0.07220 0.75000 0.40100
H 	H 	0.50000 0.65980 0.75000 0.03400
