data_crystal

_cell_length_a 12.26000
_cell_length_b 12.36600
_cell_length_c 19.10100
_cell_angle_alpha 78.18000
_cell_angle_beta  84.62500
_cell_angle_gamma 89.51100

_symmetry_space_group_name_	'P 1'
_symmetry_space_group_name_H-M	'P 1'

loop_
_symmetry_equiv_pos_as_xyz
  x,y,z

loop_
_atom_site_label
_atom_site_type_symbol
_atom_site_fract_x
_atom_site_fract_y
_atom_site_fract_z
_atom_site_charge
Na	Na	0.22400 0.19450 0.84630 0.56500
Na	Na	0.20060 0.91820 0.95690 0.57400
Na	Na	0.62400 0.70800 0.40470 0.57800
Na	Na	0.04200 0.46400 0.58140 0.55000
Na	Na	0.77600 0.80550 0.15370 0.56600
Na	Na	0.79940 0.08180 0.04310 0.57200
Na	Na	0.37600 0.29200 0.59530 0.57800
Na	Na	0.95800 0.53600 0.41860 0.55700
Na	Na	-0.00000 0.50000 -0.00000 0.56000
Na	Na	0.50000 0.50000 0.50000 0.59200
Co	Co	0.56843 0.74218 0.68567 1.17100
Co	Co	0.58506 0.87775 0.80923 1.17200
Co	Co	0.78536 0.87571 0.69173 1.17000
Co	Co	0.72374 0.65906 0.81077 1.17100
Co	Co	0.19019 0.86064 0.57683 1.11100
Co	Co	0.37338 0.76692 0.07874 1.10200
Co	Co	0.43157 0.25782 0.31433 1.17100
Co	Co	0.41494 0.12225 0.19077 1.17200
Co	Co	0.21464 0.12429 0.30827 1.17000
Co	Co	0.27626 0.34094 0.18923 1.17000
Co	Co	0.80981 0.13936 0.42317 1.11600
Co	Co	0.62662 0.23308 0.92126 1.11500
H 	H 	0.30740 0.67860 0.86730 0.16700
H 	H 	0.36400 0.78080 0.81040 0.14900
H 	H 	0.53990 0.61570 0.93180 0.18600
H 	H 	0.43330 0.54120 0.93270 0.20400
H 	H 	0.94130 0.75770 0.82100 0.14400
H 	H 	0.97480 0.81990 0.88180 0.15700
H 	H 	0.82550 0.92000 0.94410 0.18200
H 	H 	0.72130 0.84510 0.94010 0.16700
H 	H 	0.61660 0.16860 0.62900 0.18000
H 	H 	0.68970 0.10070 0.68820 0.15600
H 	H 	0.50220 0.05900 0.56400 0.18600
H 	H 	0.57910 0.95420 0.56270 0.17100
H 	H 	0.81270 0.76200 0.56450 0.14800
H 	H 	0.89080 0.65870 0.56020 0.13000
H 	H 	0.77460 0.49620 0.62590 0.14000
H 	H 	0.68050 0.51760 0.68570 0.14900
H 	H 	0.69260 0.32140 0.13270 0.16900
H 	H 	0.63600 0.21920 0.18960 0.15300
H 	H 	0.46010 0.38430 0.06820 0.17400
H 	H 	0.56670 0.45880 0.06730 0.19200
H 	H 	0.05870 0.24230 0.17900 0.13300
H 	H 	0.02520 0.18010 0.11820 0.14100
H 	H 	0.17450 0.08000 0.05590 0.16600
H 	H 	0.27870 0.15490 0.05990 0.15500
H 	H 	0.38340 0.83140 0.37100 0.17900
H 	H 	0.31030 0.89930 0.31180 0.15400
H 	H 	0.49780 0.94100 0.43600 0.18700
H 	H 	0.42090 0.04580 0.43730 0.17100
H 	H 	0.18730 0.23800 0.43550 0.13500
H 	H 	0.10920 0.34130 0.43980 0.11000
H 	H 	0.22540 0.50380 0.37410 0.13400
H 	H 	0.31950 0.48240 0.31430 0.14500
C 	C 	0.40270 0.77820 0.91570 0.46500
C 	C 	0.37570 0.72300 0.85320 -0.50500
C 	C 	0.47200 0.64700 0.83440 0.30400
C 	C 	0.50130 0.57190 0.90360 -0.54200
C 	C 	0.57430 0.47720 0.88790 0.48200
C 	C 	0.42820 0.57640 0.78290 0.18100
C 	C 	0.86480 0.68780 0.92320 0.40900
C 	C 	0.91280 0.78580 0.86410 -0.46200
C 	C 	0.82520 0.87450 0.84310 0.25800
C 	C 	0.76860 0.90720 0.91310 -0.51100
C 	C 	0.70120 0.00830 0.89660 0.48000
C 	C 	0.88360 0.97380 0.79570 0.18100
C 	C 	0.74090 0.07630 0.58300 0.44900
C 	C 	0.65330 0.09730 0.64450 -0.48900
C 	C 	0.56880 0.00310 0.66120 0.27700
C 	C 	0.52160 0.98620 0.59210 -0.50500
C 	C 	0.41930 0.90980 0.60650 0.47600
C 	C 	0.47270 0.03580 0.71020 0.18600
C 	C 	0.95840 0.77380 0.60750 0.49200
C 	C 	0.86350 0.71000 0.59130 -0.49200
C 	C 	0.80010 0.64300 0.66090 0.24800
C 	C 	0.72790 0.55340 0.64250 -0.46200
C 	C 	0.65570 0.60890 0.58180 0.41700
C 	C 	0.88410 0.57910 0.71120 0.21200
C 	C 	0.59730 0.22180 0.08430 0.46900
C 	C 	0.62430 0.27700 0.14680 -0.50900
C 	C 	0.52800 0.35300 0.16560 0.30300
C 	C 	0.49870 0.42810 0.09640 -0.53500
C 	C 	0.42570 0.52280 0.11210 0.47700
C 	C 	0.57180 0.42360 0.21710 0.18200
C 	C 	0.13520 0.31220 0.07680 0.40600
C 	C 	0.08720 0.21420 0.13590 -0.45400
C 	C 	0.17480 0.12550 0.15690 0.24900
C 	C 	0.23140 0.09280 0.08690 -0.50100
C 	C 	0.29880 0.99170 0.10340 0.47500
C 	C 	0.11640 0.02620 0.20430 0.18500
C 	C 	0.25910 0.92370 0.41700 0.44800
C 	C 	0.34670 0.90270 0.35550 -0.48900
C 	C 	0.43120 0.99690 0.33880 0.27800
C 	C 	0.47840 0.01380 0.40790 -0.50600
C 	C 	0.58070 0.09020 0.39350 0.47600
C 	C 	0.52730 0.96420 0.28980 0.18700
C 	C 	0.04160 0.22620 0.39250 0.42700
C 	C 	0.13650 0.29000 0.40870 -0.45700
C 	C 	0.19990 0.35700 0.33910 0.23500
C 	C 	0.27210 0.44660 0.35750 -0.45400
C 	C 	0.34430 0.39110 0.41820 0.41500
C 	C 	0.11590 0.42090 0.28880 0.21800
O 	O 	0.56060 0.71270 0.79850 -0.62400
O 	O 	0.61580 0.90300 0.69700 -0.61400
O 	O 	0.73530 0.71450 0.69750 -0.61800
O 	O 	0.42880 0.81530 0.64600 -0.46900
O 	O 	0.59970 0.69140 0.58840 -0.43400
O 	O 	0.46810 0.60060 0.71720 -0.32900
O 	O 	0.74550 0.82970 0.80470 -0.61400
O 	O 	0.45950 0.98370 0.77480 -0.35600
O 	O 	0.48880 0.83240 0.90790 -0.46600
O 	O 	0.64040 0.01710 0.84570 -0.46400
O 	O 	0.94140 0.82480 0.65820 -0.47500
O 	O 	0.79220 0.98790 0.59250 -0.46800
O 	O 	0.87140 0.99260 0.72880 -0.35700
O 	O 	0.86450 0.58190 0.77810 -0.36700
O 	O 	0.65880 0.50080 0.84440 -0.47600
O 	O 	0.78230 0.63790 0.91110 -0.44000
O 	O 	0.04910 0.77290 0.57080 -0.53000
O 	O 	0.74960 0.15260 0.52700 -0.44300
O 	O 	0.33550 0.94780 0.57880 -0.49000
O 	O 	0.33690 0.76040 0.97200 -0.49400
O 	O 	0.54960 0.37970 0.92130 -0.48400
O 	O 	0.70720 0.08120 0.93430 -0.52000
O 	O 	0.93600 0.03720 0.82380 -0.22800
O 	O 	0.35830 0.50480 0.80720 -0.24400
O 	O 	0.90480 0.67090 0.98310 -0.37300
O 	O 	0.65550 0.56150 0.52850 -0.39800
O 	O 	0.41520 0.11900 0.68430 -0.29900
O 	O 	0.96450 0.53450 0.68530 -0.31000
O 	O 	0.08040 0.07250 0.91900 -0.30600
O 	O 	0.33870 0.04320 0.89010 -0.29800
O 	O 	0.58280 0.52560 0.38030 -0.24100
O 	O 	0.45340 0.69870 0.48230 -0.25400
O 	O 	0.20450 0.36430 0.64350 -0.30800
O 	O 	0.43940 0.28730 0.20150 -0.62400
O 	O 	0.38420 0.09700 0.30300 -0.61400
O 	O 	0.26470 0.28550 0.30250 -0.61500
O 	O 	0.57120 0.18470 0.35400 -0.46700
O 	O 	0.40030 0.30860 0.41160 -0.43400
O 	O 	0.53190 0.39940 0.28280 -0.32900
O 	O 	0.25450 0.17030 0.19530 -0.61300
O 	O 	0.54050 0.01630 0.22520 -0.35600
O 	O 	0.51120 0.16760 0.09210 -0.47600
O 	O 	0.35960 0.98290 0.15430 -0.46500
O 	O 	0.05860 0.17520 0.34180 -0.47000
O 	O 	0.20780 0.01210 0.40750 -0.47300
O 	O 	0.12860 0.00740 0.27120 -0.36600
O 	O 	0.13550 0.41810 0.22190 -0.37900
O 	O 	0.34120 0.49920 0.15560 -0.48100
O 	O 	0.21770 0.36210 0.08890 -0.45100
O 	O 	0.95090 0.22710 0.42920 -0.47600
O 	O 	0.25040 0.84740 0.47300 -0.44700
O 	O 	0.66450 0.05220 0.42120 -0.48700
O 	O 	0.66310 0.23960 0.02800 -0.51400
O 	O 	0.45040 0.62030 0.07870 -0.50000
O 	O 	0.29280 0.91880 0.06570 -0.53900
O 	O 	0.06400 0.96280 0.17620 -0.24800
O 	O 	0.64170 0.49520 0.19280 -0.24400
O 	O 	0.09520 0.32910 0.01690 -0.40600
O 	O 	0.34450 0.43850 0.47150 -0.39900
O 	O 	0.58480 0.88100 0.31570 -0.29700
O 	O 	0.03550 0.46550 0.31470 -0.33200
O 	O 	0.91960 0.92750 0.08100 -0.30100
O 	O 	0.66130 0.95680 0.10990 -0.30600
O 	O 	0.41720 0.47440 0.61970 -0.24200
O 	O 	0.54660 0.30130 0.51770 -0.25300
O 	O 	0.79550 0.63570 0.35650 -0.29600
