data_crystal

_cell_length_a 14.38130
_cell_length_b 14.38130
_cell_length_c 15.76990
_cell_angle_alpha 90.00000
_cell_angle_beta  90.00000
_cell_angle_gamma 120.00000

_symmetry_space_group_name_	'P 1'
_symmetry_space_group_name_H-M	'P 1'

loop_
_symmetry_equiv_pos_as_xyz
  x,y,z

loop_
_atom_site_label
_atom_site_type_symbol
_atom_site_fract_x
_atom_site_fract_y
_atom_site_fract_z
_atom_site_charge
O 	O 	0.94580 0.38230 0.08890 -0.43300
C 	C 	0.86850 0.34870 0.13800 0.41800
O 	O 	0.80540 0.38580 0.14590 -0.43200
C 	C 	0.84900 0.25640 0.19180 -0.20200
H 	H 	0.82870 0.19270 0.15580 0.07200
H 	H 	0.91550 0.27330 0.22290 0.11100
O 	O 	0.61770 0.56350 0.08890 -0.47300
C 	C 	0.65130 0.51980 0.13800 0.42700
O 	O 	0.61420 0.41960 0.14590 -0.44700
C 	C 	0.74360 0.59260 0.19180 -0.22000
H 	H 	0.80730 0.63600 0.15580 0.10300
H 	H 	0.72670 0.64220 0.22290 0.10200
O 	O 	0.43650 0.05420 0.08890 -0.50800
C 	C 	0.48020 0.13150 0.13800 0.40600
O 	O 	0.58040 0.19460 0.14590 -0.45200
C 	C 	0.40740 0.15100 0.19180 -0.18200
H 	H 	0.36400 0.17130 0.15580 0.05800
H 	H 	0.35780 0.08450 0.22290 0.05400
O 	O 	0.05420 0.61770 0.08890 -0.50400
C 	C 	0.13150 0.65130 0.13800 0.41500
O 	O 	0.19460 0.61420 0.14590 -0.45400
C 	C 	0.15100 0.74360 0.19180 -0.20000
H 	H 	0.17130 0.80730 0.15580 0.08400
H 	H 	0.08450 0.72670 0.22290 0.06800
O 	O 	0.38230 0.43650 0.08890 -0.48100
C 	C 	0.34870 0.48020 0.13800 0.40900
O 	O 	0.38580 0.58040 0.14590 -0.44400
C 	C 	0.25640 0.40740 0.19180 -0.18500
H 	H 	0.19270 0.36400 0.15580 0.05300
H 	H 	0.27330 0.35780 0.22290 0.07600
O 	O 	0.56350 0.94580 0.08890 -0.43100
C 	C 	0.51980 0.86850 0.13800 0.42600
O 	O 	0.41960 0.80540 0.14590 -0.43500
C 	C 	0.59260 0.84900 0.19180 -0.22100
H 	H 	0.63600 0.82870 0.15580 0.09600
H 	H 	0.64220 0.91550 0.22290 0.12400
O 	O 	0.38230 0.94580 0.41110 -0.39600
C 	C 	0.34870 0.86850 0.36200 0.42000
O 	O 	0.38580 0.80540 0.35410 -0.41300
C 	C 	0.25640 0.84900 0.30820 -0.20500
H 	H 	0.19270 0.82870 0.34420 0.09000
H 	H 	0.27330 0.91550 0.27710 0.11200
O 	O 	0.56350 0.61770 0.41110 -0.43400
C 	C 	0.51980 0.65130 0.36200 0.43000
O 	O 	0.41960 0.61420 0.35410 -0.42800
C 	C 	0.59260 0.74360 0.30820 -0.22200
H 	H 	0.63600 0.80730 0.34420 0.12000
H 	H 	0.64220 0.72670 0.27710 0.10400
O 	O 	0.05420 0.43650 0.41110 -0.46900
C 	C 	0.13150 0.48020 0.36200 0.40900
O 	O 	0.19460 0.58040 0.35410 -0.43200
C 	C 	0.15100 0.40740 0.30820 -0.18400
H 	H 	0.17130 0.36400 0.34420 0.07600
H 	H 	0.08450 0.35780 0.27710 0.05600
O 	O 	0.61770 0.05420 0.41110 -0.46500
C 	C 	0.65130 0.13150 0.36200 0.41800
O 	O 	0.61420 0.19460 0.35410 -0.43400
C 	C 	0.74360 0.15100 0.30820 -0.20100
H 	H 	0.80730 0.17130 0.34420 0.10100
H 	H 	0.72670 0.08450 0.27710 0.06900
O 	O 	0.43650 0.38230 0.41110 -0.44200
C 	C 	0.48020 0.34870 0.36200 0.41200
O 	O 	0.58040 0.38580 0.35410 -0.42400
C 	C 	0.40740 0.25640 0.30820 -0.18700
H 	H 	0.36400 0.19270 0.34420 0.07100
H 	H 	0.35780 0.27330 0.27710 0.07700
O 	O 	0.94580 0.56350 0.41110 -0.39300
C 	C 	0.86850 0.51980 0.36200 0.42900
O 	O 	0.80540 0.41960 0.35410 -0.41500
C 	C 	0.84900 0.59260 0.30820 -0.22200
H 	H 	0.82870 0.63600 0.34420 0.11400
H 	H 	0.91550 0.64220 0.27710 0.12500
O 	O 	0.05420 0.61770 0.91110 -0.40000
C 	C 	0.13150 0.65130 0.86200 0.41800
O 	O 	0.19460 0.61420 0.85410 -0.40900
C 	C 	0.15100 0.74360 0.80820 -0.20600
H 	H 	0.17130 0.80730 0.84420 0.12300
H 	H 	0.08450 0.72670 0.77710 0.07800
O 	O 	0.38230 0.43650 0.91110 -0.37600
C 	C 	0.34870 0.48020 0.86200 0.41300
O 	O 	0.38580 0.58040 0.85410 -0.39900
C 	C 	0.25640 0.40740 0.80820 -0.19200
H 	H 	0.19270 0.36400 0.84420 0.09500
H 	H 	0.27330 0.35780 0.77710 0.08700
O 	O 	0.56350 0.94580 0.91110 -0.33000
C 	C 	0.51980 0.86850 0.86200 0.43000
O 	O 	0.41960 0.80540 0.85410 -0.39000
C 	C 	0.59260 0.84900 0.80820 -0.22700
H 	H 	0.63600 0.82870 0.84420 0.13600
H 	H 	0.64220 0.91550 0.77710 0.13400
O 	O 	0.94580 0.38230 0.91110 -0.33400
C 	C 	0.86850 0.34870 0.86200 0.42100
O 	O 	0.80540 0.38580 0.85410 -0.38900
C 	C 	0.84900 0.25640 0.80820 -0.21000
H 	H 	0.82870 0.19270 0.84420 0.11200
H 	H 	0.91550 0.27330 0.77710 0.12100
O 	O 	0.61770 0.56350 0.91110 -0.36900
C 	C 	0.65130 0.51980 0.86200 0.43000
O 	O 	0.61420 0.41960 0.85410 -0.40200
C 	C 	0.74360 0.59260 0.80820 -0.22600
H 	H 	0.80730 0.63600 0.84420 0.14200
H 	H 	0.72670 0.64220 0.77710 0.11300
O 	O 	0.43650 0.05420 0.91110 -0.40300
C 	C 	0.48020 0.13150 0.86200 0.41000
O 	O 	0.58040 0.19460 0.85410 -0.40700
C 	C 	0.40740 0.15100 0.80820 -0.18900
H 	H 	0.36400 0.17130 0.84420 0.10000
H 	H 	0.35780 0.08450 0.77710 0.06600
O 	O 	0.61770 0.05420 0.58890 -0.46600
C 	C 	0.65130 0.13150 0.63800 0.42100
O 	O 	0.61420 0.19460 0.64590 -0.43600
C 	C 	0.74360 0.15100 0.69180 -0.20800
H 	H 	0.80730 0.17130 0.65580 0.10500
H 	H 	0.72670 0.08450 0.72290 0.07800
O 	O 	0.43650 0.38230 0.58890 -0.44300
C 	C 	0.48020 0.34870 0.63800 0.41500
O 	O 	0.58040 0.38580 0.64590 -0.42600
C 	C 	0.40740 0.25640 0.69180 -0.19400
H 	H 	0.36400 0.19270 0.65580 0.07600
H 	H 	0.35780 0.27330 0.72290 0.08700
O 	O 	0.94580 0.56350 0.58890 -0.39400
C 	C 	0.86850 0.51980 0.63800 0.43200
O 	O 	0.80540 0.41960 0.64590 -0.41800
C 	C 	0.84900 0.59260 0.69180 -0.22900
H 	H 	0.82870 0.63600 0.65580 0.11800
H 	H 	0.91550 0.64220 0.72290 0.13300
O 	O 	0.38230 0.94580 0.58890 -0.39700
C 	C 	0.34870 0.86850 0.63800 0.42300
O 	O 	0.38580 0.80540 0.64590 -0.41600
C 	C 	0.25640 0.84900 0.69180 -0.21100
H 	H 	0.19270 0.82870 0.65580 0.09400
H 	H 	0.27330 0.91550 0.72290 0.12000
O 	O 	0.56350 0.61770 0.58890 -0.43500
C 	C 	0.51980 0.65130 0.63800 0.43300
O 	O 	0.41960 0.61420 0.64590 -0.43000
C 	C 	0.59260 0.74360 0.69180 -0.22800
H 	H 	0.63600 0.80730 0.65580 0.12400
H 	H 	0.64220 0.72670 0.72290 0.11300
O 	O 	0.05420 0.43650 0.58890 -0.46900
C 	C 	0.13150 0.48020 0.63800 0.41200
O 	O 	0.19460 0.58040 0.64590 -0.43500
C 	C 	0.15100 0.40740 0.69180 -0.19100
H 	H 	0.17130 0.36400 0.65580 0.08100
H 	H 	0.08450 0.35780 0.72290 0.06600
Gd	Gd	0.66667 0.33333 0.25000 1.70700
Gd	Gd	0.33333 0.66667 0.25000 1.70700
Gd	Gd	0.33333 0.66667 0.75000 1.71900
Gd	Gd	0.66667 0.33333 0.75000 1.71900
Ni	Ni	-0.00000 0.50000 -0.00000 1.00700
Ni	Ni	0.50000 0.50000 -0.00000 1.04400
Ni	Ni	0.50000 0.00000 -0.00000 1.00700
Ni	Ni	0.50000 0.00000 0.50000 1.07200
Ni	Ni	0.50000 0.50000 0.50000 1.10900
Ni	Ni	-0.00000 0.50000 0.50000 1.07200
O 	O 	0.76590 0.23410 0.25000 -0.21200
O 	O 	0.76590 0.53180 0.25000 -0.19900
O 	O 	0.46820 0.23410 0.25000 -0.22500
O 	O 	0.23410 0.76590 0.25000 -0.21200
O 	O 	0.23410 0.46820 0.25000 -0.22500
O 	O 	0.53180 0.76590 0.25000 -0.19900
O 	O 	0.23410 0.76590 0.75000 -0.20600
O 	O 	0.23410 0.46820 0.75000 -0.21800
O 	O 	0.53180 0.76590 0.75000 -0.19200
O 	O 	0.76590 0.23410 0.75000 -0.20500
O 	O 	0.76590 0.53180 0.75000 -0.19300
O 	O 	0.46820 0.23410 0.75000 -0.21800
