data_crystal

_cell_length_a 11.49550
_cell_length_b 10.67560
_cell_length_c 8.70190
_cell_angle_alpha 58.52300
_cell_angle_beta  106.49800
_cell_angle_gamma 110.98100

_symmetry_space_group_name_	'P 1'
_symmetry_space_group_name_H-M	'P 1'

loop_
_symmetry_equiv_pos_as_xyz
  x,y,z

loop_
_atom_site_label
_atom_site_type_symbol
_atom_site_fract_x
_atom_site_fract_y
_atom_site_fract_z
_atom_site_charge
Cd	Cd	0.15569 0.11661 0.97645 1.16000
S 	S 	0.03308 0.88384 0.93426 -0.47700
S 	S 	0.33517 0.03562 0.20534 -0.28000
S 	S 	0.22588 0.35553 0.72429 -0.31000
C 	C 	0.01379 0.95156 0.68108 0.04900
C 	C 	0.10615 0.95977 0.60522 -0.05500
C 	C 	0.90765 0.99179 0.57586 -0.09300
C 	C 	0.52875 0.95391 0.18090 -0.06500
C 	C 	0.40078 0.06132 0.90688 -0.07300
C 	C 	0.42954 0.01523 0.08778 0.05900
C 	C 	0.98663 0.35086 0.55826 -0.07400
C 	C 	0.09804 0.43729 0.59735 0.05000
C 	C 	0.11141 0.58643 0.53909 -0.05900
H 	H 	0.18436 0.93013 0.68276 0.04900
H 	H 	0.83959 0.98574 0.63176 0.01200
H 	H 	0.54994 0.91995 0.31421 0.05500
H 	H 	0.32767 0.10650 0.83826 -0.01200
H 	H 	0.97677 0.24095 0.60119 0.01100
H 	H 	0.19352 0.65013 0.56790 0.05300
Cd	Cd	0.84431 0.88339 0.02355 1.16000
S 	S 	0.96692 0.11616 0.06574 -0.47700
S 	S 	0.66483 0.96438 0.79466 -0.28000
S 	S 	0.77412 0.64447 0.27571 -0.31000
C 	C 	0.98621 0.04844 0.31892 0.04900
C 	C 	0.89385 0.04023 0.39478 -0.05500
C 	C 	0.09235 0.00821 0.42414 -0.09300
C 	C 	0.47125 0.04609 0.81910 -0.06500
C 	C 	0.59922 0.93868 0.09312 -0.07300
C 	C 	0.57046 0.98477 0.91222 0.05900
C 	C 	0.01337 0.64914 0.44174 -0.07400
C 	C 	0.90196 0.56271 0.40265 0.05000
C 	C 	0.88859 0.41357 0.46091 -0.05900
H 	H 	0.81564 0.06987 0.31724 0.04900
H 	H 	0.16041 0.01426 0.36824 0.01200
H 	H 	0.45006 0.08005 0.68579 0.05500
H 	H 	0.67233 0.89350 0.16174 -0.01200
H 	H 	0.02323 0.75905 0.39881 0.01100
H 	H 	0.80648 0.34987 0.43210 0.05300
