data_crystal

_cell_length_a 34.68100
_cell_length_b 15.36780
_cell_length_c 13.71410
_cell_angle_alpha 90.00000
_cell_angle_beta  112.16900
_cell_angle_gamma 90.00000

_symmetry_space_group_name_	'P 1'
_symmetry_space_group_name_H-M	'P 1'

loop_
_symmetry_equiv_pos_as_xyz
  x,y,z

loop_
_atom_site_label
_atom_site_type_symbol
_atom_site_fract_x
_atom_site_fract_y
_atom_site_fract_z
_atom_site_charge
Zn	Zn	0.11197 0.22069 0.06584 1.21900
Zn	Zn	0.20146 0.27979 0.14487 1.22000
S 	S 	0.16737 0.51249 0.34555 0.08400
S 	S 	0.14570 0.01795 0.37187 0.06500
O 	O 	0.17743 0.36910 0.21490 -0.46500
O 	O 	0.11071 0.33030 0.14690 -0.47000
O 	O 	0.18168 0.64410 0.51300 -0.45400
O 	O 	0.11673 0.69580 0.45260 -0.47000
O 	O 	0.19776 0.18900 0.25020 -0.46300
O 	O 	0.13068 0.15250 0.20260 -0.45300
O 	O 	0.20189 0.82410 0.55370 -0.46300
O 	O 	0.13676 0.87470 0.50520 -0.46200
N 	N 	0.26289 0.30850 0.21060 -0.26700
N 	N 	0.55049 0.30220 0.48980 -0.28600
C 	C 	0.13990 0.37820 0.20130 0.41200
C 	C 	0.12954 0.45220 0.25440 -0.11300
C 	C 	0.09020 0.48120 0.24220 -0.00200
H 	H 	0.06560 0.45610 0.19630 0.04200
C 	C 	0.09160 0.55320 0.30730 -0.00800
H 	H 	0.06810 0.58140 0.30840 0.04200
C 	C 	0.13150 0.57690 0.36870 -0.11200
C 	C 	0.14420 0.64470 0.45160 0.39700
C 	C 	0.29020 0.26380 0.18260 0.12000
H 	H 	0.28010 0.22180 0.13030 -0.00700
C 	C 	0.33260 0.27710 0.22760 -0.20300
H 	H 	0.35030 0.24410 0.20560 0.10800
C 	C 	0.34870 0.33820 0.30420 0.16400
C 	C 	0.32070 0.38570 0.33110 -0.21100
H 	H 	0.33020 0.42940 0.38150 0.11100
C 	C 	0.27870 0.36930 0.28410 0.12900
H 	H 	0.26050 0.40210 0.30450 -0.01300
C 	C 	0.39480 0.35180 0.35870 -0.16100
H 	H 	0.39970 0.41300 0.37660 0.07900
H 	H 	0.40420 0.31930 0.42410 0.08000
C 	C 	0.42010 0.32660 0.29960 -0.20500
H 	H 	0.41590 0.36860 0.24370 0.09400
H 	H 	0.41060 0.27050 0.26700 0.09300
C 	C 	0.16900 0.14460 0.25800 0.39100
C 	C 	0.18140 0.07460 0.33830 -0.10100
C 	C 	0.17370 0.87720 0.50800 0.39200
C 	C 	0.18403 0.95060 0.45230 -0.10500
C 	C 	0.22060 0.04160 0.38720 -0.00500
H 	H 	0.24400 0.06400 0.37830 0.04800
C 	C 	0.22190 0.97110 0.45140 -0.00500
H 	H 	0.24620 0.94100 0.48980 0.05100
C 	C 	0.53510 0.37340 0.44440 0.17700
H 	H 	0.55290 0.42050 0.45300 -0.04200
C 	C 	0.49360 0.38440 0.38310 -0.27200
H 	H 	0.48440 0.43830 0.35220 0.12300
C 	C 	0.46660 0.32090 0.36700 0.20400
C 	C 	0.48350 0.24210 0.41120 -0.23400
H 	H 	0.46610 0.19410 0.40080 0.11200
C 	C 	0.52490 0.23270 0.46970 0.13100
H 	H 	0.53560 0.17820 0.49570 -0.02000
Zn	Zn	0.61197 0.72069 0.06584 1.21800
Zn	Zn	0.70146 0.77979 0.14487 1.21900
S 	S 	0.66737 0.01249 0.34555 0.08300
S 	S 	0.64570 0.51795 0.37187 0.06400
O 	O 	0.67743 0.86910 0.21490 -0.46500
O 	O 	0.61071 0.83030 0.14690 -0.47000
O 	O 	0.68168 0.14410 0.51300 -0.45500
O 	O 	0.61673 0.19580 0.45260 -0.47100
O 	O 	0.69776 0.68900 0.25020 -0.46400
O 	O 	0.63068 0.65250 0.20260 -0.45400
O 	O 	0.70189 0.32410 0.55370 -0.46400
O 	O 	0.63676 0.37470 0.50520 -0.46300
N 	N 	0.76289 0.80850 0.21060 -0.26800
N 	N 	0.05049 0.80220 0.48980 -0.28700
C 	C 	0.63990 0.87820 0.20130 0.41100
C 	C 	0.62954 0.95220 0.25440 -0.11400
C 	C 	0.59020 0.98120 0.24220 -0.00200
H 	H 	0.56560 0.95610 0.19630 0.04100
C 	C 	0.59160 0.05320 0.30730 -0.01000
H 	H 	0.56810 0.08140 0.30840 0.04100
C 	C 	0.63150 0.07690 0.36870 -0.11200
C 	C 	0.64420 0.14470 0.45160 0.39700
C 	C 	0.79020 0.76380 0.18260 0.12000
H 	H 	0.78010 0.72180 0.13030 -0.00700
C 	C 	0.83260 0.77710 0.22760 -0.20300
H 	H 	0.85030 0.74410 0.20560 0.10800
C 	C 	0.84870 0.83820 0.30420 0.16400
C 	C 	0.82070 0.88570 0.33110 -0.21100
H 	H 	0.83020 0.92940 0.38150 0.11100
C 	C 	0.77870 0.86930 0.28410 0.12900
H 	H 	0.76050 0.90210 0.30450 -0.01300
C 	C 	0.89480 0.85180 0.35870 -0.16000
H 	H 	0.89970 0.91300 0.37660 0.07900
H 	H 	0.90420 0.81930 0.42410 0.08000
C 	C 	0.92010 0.82660 0.29960 -0.20500
H 	H 	0.91590 0.86860 0.24370 0.09500
H 	H 	0.91060 0.77050 0.26700 0.09300
C 	C 	0.66900 0.64460 0.25800 0.39100
C 	C 	0.68140 0.57460 0.33830 -0.10100
C 	C 	0.67370 0.37720 0.50800 0.39200
C 	C 	0.68403 0.45060 0.45230 -0.10500
C 	C 	0.72060 0.54160 0.38720 -0.00500
H 	H 	0.74400 0.56400 0.37830 0.04800
C 	C 	0.72190 0.47110 0.45140 -0.00500
H 	H 	0.74620 0.44100 0.48980 0.05100
C 	C 	0.03510 0.87340 0.44440 0.17700
H 	H 	0.05290 0.92050 0.45300 -0.04200
C 	C 	0.99360 0.88440 0.38310 -0.27200
H 	H 	0.98440 0.93830 0.35220 0.12300
C 	C 	0.96660 0.82090 0.36700 0.20400
C 	C 	0.98350 0.74210 0.41120 -0.23400
H 	H 	0.96610 0.69410 0.40080 0.11200
C 	C 	0.02490 0.73270 0.46970 0.13100
H 	H 	0.03560 0.67820 0.49570 -0.02000
Zn	Zn	0.11197 0.77931 0.56584 1.21800
Zn	Zn	0.20146 0.72021 0.64487 1.21900
S 	S 	0.16737 0.48751 0.84555 0.08400
S 	S 	0.14570 0.98205 0.87187 0.06300
O 	O 	0.17743 0.63090 0.71490 -0.46600
O 	O 	0.11071 0.66970 0.64690 -0.47000
O 	O 	0.18168 0.35590 0.01300 -0.45500
O 	O 	0.11673 0.30420 0.95260 -0.47100
O 	O 	0.19776 0.81100 0.75020 -0.46400
O 	O 	0.13068 0.84750 0.70260 -0.45400
O 	O 	0.20189 0.17590 0.05370 -0.46400
O 	O 	0.13676 0.12530 0.00520 -0.46300
N 	N 	0.26289 0.69150 0.71060 -0.26800
N 	N 	0.55049 0.69780 0.98980 -0.28700
C 	C 	0.13990 0.62180 0.70130 0.41100
C 	C 	0.12954 0.54780 0.75440 -0.11400
C 	C 	0.09020 0.51880 0.74220 -0.00300
H 	H 	0.06560 0.54390 0.69630 0.04100
C 	C 	0.09160 0.44680 0.80730 -0.00900
H 	H 	0.06810 0.41860 0.80840 0.04100
C 	C 	0.13150 0.42310 0.86870 -0.11200
C 	C 	0.14420 0.35530 0.95160 0.39700
C 	C 	0.29020 0.73620 0.68260 0.12000
H 	H 	0.28010 0.77820 0.63030 -0.00700
C 	C 	0.33260 0.72290 0.72760 -0.20300
H 	H 	0.35030 0.75590 0.70560 0.10800
C 	C 	0.34870 0.66180 0.80420 0.16400
C 	C 	0.32070 0.61430 0.83110 -0.21100
H 	H 	0.33020 0.57060 0.88150 0.11100
C 	C 	0.27870 0.63070 0.78410 0.12900
H 	H 	0.26050 0.59790 0.80450 -0.01300
C 	C 	0.39480 0.64820 0.85870 -0.16000
H 	H 	0.39970 0.58700 0.87660 0.07900
H 	H 	0.40420 0.68070 0.92410 0.08000
C 	C 	0.42010 0.67340 0.79960 -0.20500
H 	H 	0.41590 0.63140 0.74370 0.09400
H 	H 	0.41060 0.72950 0.76700 0.09300
C 	C 	0.16900 0.85540 0.75800 0.39100
C 	C 	0.18140 0.92540 0.83830 -0.10100
C 	C 	0.17370 0.12280 0.00800 0.39100
C 	C 	0.18403 0.04940 0.95230 -0.10400
C 	C 	0.22060 0.95840 0.88720 -0.00600
H 	H 	0.24400 0.93600 0.87830 0.04900
C 	C 	0.22190 0.02890 0.95140 -0.00500
H 	H 	0.24620 0.05900 0.98980 0.05100
C 	C 	0.53510 0.62660 0.94440 0.17700
H 	H 	0.55290 0.57950 0.95300 -0.04200
C 	C 	0.49360 0.61560 0.88310 -0.27200
H 	H 	0.48440 0.56170 0.85220 0.12300
C 	C 	0.46660 0.67910 0.86700 0.20400
C 	C 	0.48350 0.75790 0.91120 -0.23400
H 	H 	0.46610 0.80590 0.90080 0.11200
C 	C 	0.52490 0.76730 0.96970 0.13100
H 	H 	0.53560 0.82180 0.99570 -0.02000
Zn	Zn	0.61197 0.27931 0.56584 1.21800
Zn	Zn	0.70146 0.22021 0.64487 1.21900
S 	S 	0.66737 0.98751 0.84555 0.08300
S 	S 	0.64570 0.48205 0.87187 0.06400
O 	O 	0.67743 0.13090 0.71490 -0.46500
O 	O 	0.61071 0.16970 0.64690 -0.47000
O 	O 	0.68168 0.85590 0.01300 -0.45400
O 	O 	0.61673 0.80420 0.95260 -0.47100
O 	O 	0.69776 0.31100 0.75020 -0.46400
O 	O 	0.63068 0.34750 0.70260 -0.45400
O 	O 	0.70189 0.67590 0.05370 -0.46400
O 	O 	0.63676 0.62530 0.00520 -0.46300
N 	N 	0.76289 0.19150 0.71060 -0.26800
N 	N 	0.05049 0.19780 0.98980 -0.28700
C 	C 	0.63990 0.12180 0.70130 0.41100
C 	C 	0.62954 0.04780 0.75440 -0.11400
C 	C 	0.59020 0.01880 0.74220 -0.00200
H 	H 	0.56560 0.04390 0.69630 0.04100
C 	C 	0.59160 0.94680 0.80730 -0.01000
H 	H 	0.56810 0.91860 0.80840 0.04100
C 	C 	0.63150 0.92310 0.86870 -0.11200
C 	C 	0.64420 0.85530 0.95160 0.39600
C 	C 	0.79020 0.23620 0.68260 0.12000
H 	H 	0.78010 0.27820 0.63030 -0.00700
C 	C 	0.83260 0.22290 0.72760 -0.20300
H 	H 	0.85030 0.25590 0.70560 0.10800
C 	C 	0.84870 0.16180 0.80420 0.16400
C 	C 	0.82070 0.11430 0.83110 -0.21100
H 	H 	0.83020 0.07060 0.88150 0.11100
C 	C 	0.77870 0.13070 0.78410 0.12900
H 	H 	0.76050 0.09790 0.80450 -0.01300
C 	C 	0.89480 0.14820 0.85870 -0.16100
H 	H 	0.89970 0.08700 0.87660 0.07900
H 	H 	0.90420 0.18070 0.92410 0.08000
C 	C 	0.92010 0.17340 0.79960 -0.20500
H 	H 	0.91590 0.13140 0.74370 0.09400
H 	H 	0.91060 0.22950 0.76700 0.09300
C 	C 	0.66900 0.35540 0.75800 0.39100
C 	C 	0.68140 0.42540 0.83830 -0.10100
C 	C 	0.67370 0.62280 0.00800 0.39200
C 	C 	0.68403 0.54940 0.95230 -0.10600
C 	C 	0.72060 0.45840 0.88720 -0.00500
H 	H 	0.74400 0.43600 0.87830 0.04800
C 	C 	0.72190 0.52890 0.95140 -0.00500
H 	H 	0.74620 0.55900 0.98980 0.05100
C 	C 	0.03510 0.12660 0.94440 0.17700
H 	H 	0.05290 0.07950 0.95300 -0.04200
C 	C 	0.99360 0.11560 0.88310 -0.27300
H 	H 	0.98440 0.06170 0.85220 0.12300
C 	C 	0.96660 0.17910 0.86700 0.20400
C 	C 	0.98350 0.25790 0.91120 -0.23400
H 	H 	0.96610 0.30590 0.90080 0.11200
C 	C 	0.02490 0.26730 0.96970 0.13100
H 	H 	0.03560 0.32180 0.99570 -0.02000
Zn	Zn	0.88803 0.22069 0.43416 1.21800
Zn	Zn	0.79854 0.27979 0.35513 1.21900
S 	S 	0.83263 0.51249 0.15445 0.08400
S 	S 	0.85430 0.01795 0.12813 0.06300
O 	O 	0.82257 0.36910 0.28510 -0.46600
O 	O 	0.88929 0.33030 0.35310 -0.47000
O 	O 	0.81832 0.64410 0.98700 -0.45500
O 	O 	0.88327 0.69580 0.04740 -0.47100
O 	O 	0.80224 0.18900 0.24980 -0.46400
O 	O 	0.86932 0.15250 0.29740 -0.45400
O 	O 	0.79811 0.82410 0.94630 -0.46400
O 	O 	0.86324 0.87470 0.99480 -0.46300
N 	N 	0.73711 0.30850 0.28940 -0.26800
N 	N 	0.44951 0.30220 0.01020 -0.28700
C 	C 	0.86010 0.37820 0.29870 0.41100
C 	C 	0.87046 0.45220 0.24560 -0.11400
C 	C 	0.90980 0.48120 0.25780 -0.00300
H 	H 	0.93440 0.45610 0.30370 0.04100
C 	C 	0.90840 0.55320 0.19270 -0.00900
H 	H 	0.93190 0.58140 0.19160 0.04100
C 	C 	0.86850 0.57690 0.13130 -0.11200
C 	C 	0.85580 0.64470 0.04840 0.39700
C 	C 	0.70980 0.26380 0.31740 0.12000
H 	H 	0.71990 0.22180 0.36970 -0.00700
C 	C 	0.66740 0.27710 0.27240 -0.20300
H 	H 	0.64970 0.24410 0.29440 0.10800
C 	C 	0.65130 0.33820 0.19580 0.16400
C 	C 	0.67930 0.38570 0.16890 -0.21100
H 	H 	0.66980 0.42940 0.11850 0.11100
C 	C 	0.72130 0.36930 0.21590 0.12900
H 	H 	0.73950 0.40210 0.19550 -0.01300
C 	C 	0.60520 0.35180 0.14130 -0.16000
H 	H 	0.60030 0.41300 0.12340 0.07900
H 	H 	0.59580 0.31930 0.07590 0.08000
C 	C 	0.57990 0.32660 0.20040 -0.20500
H 	H 	0.58410 0.36860 0.25630 0.09400
H 	H 	0.58940 0.27050 0.23300 0.09300
C 	C 	0.83100 0.14460 0.24200 0.39100
C 	C 	0.81860 0.07460 0.16170 -0.10100
C 	C 	0.82630 0.87720 0.99200 0.39100
C 	C 	0.81597 0.95060 0.04770 -0.10400
C 	C 	0.77940 0.04160 0.11280 -0.00600
H 	H 	0.75600 0.06400 0.12170 0.04900
C 	C 	0.77810 0.97110 0.04860 -0.00500
H 	H 	0.75380 0.94100 0.01020 0.05100
C 	C 	0.46490 0.37340 0.05560 0.17700
H 	H 	0.44710 0.42050 0.04700 -0.04200
C 	C 	0.50640 0.38440 0.11690 -0.27200
H 	H 	0.51560 0.43830 0.14780 0.12300
C 	C 	0.53340 0.32090 0.13300 0.20400
C 	C 	0.51650 0.24210 0.08880 -0.23400
H 	H 	0.53390 0.19410 0.09920 0.11200
C 	C 	0.47510 0.23270 0.03030 0.13100
H 	H 	0.46440 0.17820 0.00430 -0.02000
Zn	Zn	0.38803 0.72069 0.43416 1.21800
Zn	Zn	0.29854 0.77979 0.35513 1.21900
S 	S 	0.33263 0.01249 0.15445 0.08300
S 	S 	0.35430 0.51795 0.12813 0.06400
O 	O 	0.32257 0.86910 0.28510 -0.46500
O 	O 	0.38929 0.83030 0.35310 -0.47000
O 	O 	0.31832 0.14410 0.98700 -0.45400
O 	O 	0.38327 0.19580 0.04740 -0.47100
O 	O 	0.30224 0.68900 0.24980 -0.46400
O 	O 	0.36932 0.65250 0.29740 -0.45400
O 	O 	0.29811 0.32410 0.94630 -0.46400
O 	O 	0.36324 0.37470 0.99480 -0.46300
N 	N 	0.23711 0.80850 0.28940 -0.26800
N 	N 	0.94951 0.80220 0.01020 -0.28700
C 	C 	0.36010 0.87820 0.29870 0.41100
C 	C 	0.37046 0.95220 0.24560 -0.11400
C 	C 	0.40980 0.98120 0.25780 -0.00200
H 	H 	0.43440 0.95610 0.30370 0.04100
C 	C 	0.40840 0.05320 0.19270 -0.01000
H 	H 	0.43190 0.08140 0.19160 0.04100
C 	C 	0.36850 0.07690 0.13130 -0.11200
C 	C 	0.35580 0.14470 0.04840 0.39600
C 	C 	0.20980 0.76380 0.31740 0.12000
H 	H 	0.21990 0.72180 0.36970 -0.00700
C 	C 	0.16740 0.77710 0.27240 -0.20300
H 	H 	0.14970 0.74410 0.29440 0.10800
C 	C 	0.15130 0.83820 0.19580 0.16400
C 	C 	0.17930 0.88570 0.16890 -0.21100
H 	H 	0.16980 0.92940 0.11850 0.11100
C 	C 	0.22130 0.86930 0.21590 0.12900
H 	H 	0.23950 0.90210 0.19550 -0.01300
C 	C 	0.10520 0.85180 0.14130 -0.16100
H 	H 	0.10030 0.91300 0.12340 0.07900
H 	H 	0.09580 0.81930 0.07590 0.08000
C 	C 	0.07990 0.82660 0.20040 -0.20500
H 	H 	0.08410 0.86860 0.25630 0.09400
H 	H 	0.08940 0.77050 0.23300 0.09300
C 	C 	0.33100 0.64460 0.24200 0.39100
C 	C 	0.31860 0.57460 0.16170 -0.10100
C 	C 	0.32630 0.37720 0.99200 0.39200
C 	C 	0.31597 0.45060 0.04770 -0.10600
C 	C 	0.27940 0.54160 0.11280 -0.00500
H 	H 	0.25600 0.56400 0.12170 0.04800
C 	C 	0.27810 0.47110 0.04860 -0.00500
H 	H 	0.25380 0.44100 0.01020 0.05100
C 	C 	0.96490 0.87340 0.05560 0.17700
H 	H 	0.94710 0.92050 0.04700 -0.04200
C 	C 	0.00640 0.88440 0.11690 -0.27300
H 	H 	0.01560 0.93830 0.14780 0.12300
C 	C 	0.03340 0.82090 0.13300 0.20400
C 	C 	0.01650 0.74210 0.08880 -0.23400
H 	H 	0.03390 0.69410 0.09920 0.11200
C 	C 	0.97510 0.73270 0.03030 0.13100
H 	H 	0.96440 0.67820 0.00430 -0.02000
Zn	Zn	0.88803 0.77931 0.93416 1.21800
Zn	Zn	0.79854 0.72021 0.85513 1.21900
S 	S 	0.83263 0.48751 0.65445 0.08300
S 	S 	0.85430 0.98205 0.62813 0.06400
O 	O 	0.82257 0.63090 0.78510 -0.46600
O 	O 	0.88929 0.66970 0.85310 -0.47100
O 	O 	0.81832 0.35590 0.48700 -0.45500
O 	O 	0.88327 0.30420 0.54740 -0.47100
O 	O 	0.80224 0.81100 0.74980 -0.46400
O 	O 	0.86932 0.84750 0.79740 -0.45400
O 	O 	0.79811 0.17590 0.44630 -0.46400
O 	O 	0.86324 0.12530 0.49480 -0.46300
N 	N 	0.73711 0.69150 0.78940 -0.26800
N 	N 	0.44951 0.69780 0.51020 -0.28700
C 	C 	0.86010 0.62180 0.79870 0.41100
C 	C 	0.87046 0.54780 0.74560 -0.11400
C 	C 	0.90980 0.51880 0.75780 -0.00300
H 	H 	0.93440 0.54390 0.80370 0.04100
C 	C 	0.90840 0.44680 0.69270 -0.00900
H 	H 	0.93190 0.41860 0.69160 0.04100
C 	C 	0.86850 0.42310 0.63130 -0.11200
C 	C 	0.85580 0.35530 0.54840 0.39700
C 	C 	0.70980 0.73620 0.81740 0.12000
H 	H 	0.71990 0.77820 0.86970 -0.00700
C 	C 	0.66740 0.72290 0.77240 -0.20300
H 	H 	0.64970 0.75590 0.79440 0.10800
C 	C 	0.65130 0.66180 0.69580 0.16400
C 	C 	0.67930 0.61430 0.66890 -0.21100
H 	H 	0.66980 0.57060 0.61850 0.11100
C 	C 	0.72130 0.63070 0.71590 0.12900
H 	H 	0.73950 0.59790 0.69550 -0.01300
C 	C 	0.60520 0.64820 0.64130 -0.16100
H 	H 	0.60030 0.58700 0.62340 0.07900
H 	H 	0.59580 0.68070 0.57590 0.08000
C 	C 	0.57990 0.67340 0.70040 -0.20500
H 	H 	0.58410 0.63140 0.75630 0.09400
H 	H 	0.58940 0.72950 0.73300 0.09300
C 	C 	0.83100 0.85540 0.74200 0.39100
C 	C 	0.81860 0.92540 0.66170 -0.10100
C 	C 	0.82630 0.12280 0.49200 0.39200
C 	C 	0.81597 0.04940 0.54770 -0.10500
C 	C 	0.77940 0.95840 0.61280 -0.00500
H 	H 	0.75600 0.93600 0.62170 0.04800
C 	C 	0.77810 0.02890 0.54860 -0.00500
H 	H 	0.75380 0.05900 0.51020 0.05100
C 	C 	0.46490 0.62660 0.55560 0.17700
H 	H 	0.44710 0.57950 0.54700 -0.04200
C 	C 	0.50640 0.61560 0.61690 -0.27200
H 	H 	0.51560 0.56170 0.64780 0.12300
C 	C 	0.53340 0.67910 0.63300 0.20400
C 	C 	0.51650 0.75790 0.58880 -0.23400
H 	H 	0.53390 0.80590 0.59920 0.11200
C 	C 	0.47510 0.76730 0.53030 0.13100
H 	H 	0.46440 0.82180 0.50430 -0.02000
Zn	Zn	0.38803 0.27931 0.93416 1.21800
Zn	Zn	0.29854 0.22021 0.85513 1.21900
S 	S 	0.33263 0.98751 0.65445 0.08300
S 	S 	0.35430 0.48205 0.62813 0.06400
O 	O 	0.32257 0.13090 0.78510 -0.46500
O 	O 	0.38929 0.16970 0.85310 -0.47000
O 	O 	0.31832 0.85590 0.48700 -0.45500
O 	O 	0.38327 0.80420 0.54740 -0.47100
O 	O 	0.30224 0.31100 0.74980 -0.46400
O 	O 	0.36932 0.34750 0.79740 -0.45400
O 	O 	0.29811 0.67590 0.44630 -0.46400
O 	O 	0.36324 0.62530 0.49480 -0.46300
N 	N 	0.23711 0.19150 0.78940 -0.26800
N 	N 	0.94951 0.19780 0.51020 -0.28700
C 	C 	0.36010 0.12180 0.79870 0.41100
C 	C 	0.37046 0.04780 0.74560 -0.11400
C 	C 	0.40980 0.01880 0.75780 -0.00200
H 	H 	0.43440 0.04390 0.80370 0.04100
C 	C 	0.40840 0.94680 0.69270 -0.01000
H 	H 	0.43190 0.91860 0.69160 0.04100
C 	C 	0.36850 0.92310 0.63130 -0.11200
C 	C 	0.35580 0.85530 0.54840 0.39700
C 	C 	0.20980 0.23620 0.81740 0.12000
H 	H 	0.21990 0.27820 0.86970 -0.00700
C 	C 	0.16740 0.22290 0.77240 -0.20300
H 	H 	0.14970 0.25590 0.79440 0.10800
C 	C 	0.15130 0.16180 0.69580 0.16400
C 	C 	0.17930 0.11430 0.66890 -0.21100
H 	H 	0.16980 0.07060 0.61850 0.11100
C 	C 	0.22130 0.13070 0.71590 0.12900
H 	H 	0.23950 0.09790 0.69550 -0.01300
C 	C 	0.10520 0.14820 0.64130 -0.16000
H 	H 	0.10030 0.08700 0.62340 0.07900
H 	H 	0.09580 0.18070 0.57590 0.08000
C 	C 	0.07990 0.17340 0.70040 -0.20500
H 	H 	0.08410 0.13140 0.75630 0.09500
H 	H 	0.08940 0.22950 0.73300 0.09300
C 	C 	0.33100 0.35540 0.74200 0.39100
C 	C 	0.31860 0.42540 0.66170 -0.10100
C 	C 	0.32630 0.62280 0.49200 0.39200
C 	C 	0.31597 0.54940 0.54770 -0.10500
C 	C 	0.27940 0.45840 0.61280 -0.00500
H 	H 	0.25600 0.43600 0.62170 0.04800
C 	C 	0.27810 0.52890 0.54860 -0.00500
H 	H 	0.25380 0.55900 0.51020 0.05100
C 	C 	0.96490 0.12660 0.55560 0.17700
H 	H 	0.94710 0.07950 0.54700 -0.04200
C 	C 	0.00640 0.11560 0.61690 -0.27200
H 	H 	0.01560 0.06170 0.64780 0.12300
C 	C 	0.03340 0.17910 0.63300 0.20400
C 	C 	0.01650 0.25790 0.58880 -0.23400
H 	H 	0.03390 0.30590 0.59920 0.11200
C 	C 	0.97510 0.26730 0.53030 0.13100
H 	H 	0.96440 0.32180 0.50430 -0.02000
