data_crystal

_cell_length_a 24.93400
_cell_length_b 13.22750
_cell_length_c 16.23400
_cell_angle_alpha 90.00000
_cell_angle_beta  127.52000
_cell_angle_gamma 90.00000

_symmetry_space_group_name_	'P 1'
_symmetry_space_group_name_H-M	'P 1'

loop_
_symmetry_equiv_pos_as_xyz
  x,y,z

loop_
_atom_site_label
_atom_site_type_symbol
_atom_site_fract_x
_atom_site_fract_y
_atom_site_fract_z
_atom_site_charge
Cd	Cd	0.17145 0.20028 0.38257 1.21200
C 	C 	0.14690 0.39520 0.56720 -0.13600
C 	C 	0.08570 0.41010 0.54550 -0.00800
H 	H 	0.04860 0.37130 0.49540 0.01100
C 	C 	0.07930 0.48620 0.60050 -0.02700
H 	H 	0.03650 0.50200 0.58050 0.01800
C 	C 	0.13560 0.53810 0.68410 -0.10400
C 	C 	0.19670 0.50630 0.71330 -0.01900
H 	H 	0.23600 0.53120 0.77420 0.04400
C 	C 	0.20180 0.43660 0.65320 0.00200
H 	H 	0.24440 0.41870 0.67350 0.03200
C 	C 	0.15310 0.32390 0.50270 0.40400
C 	C 	0.12790 0.61490 0.74340 0.40100
C 	C 	0.07780 0.10610 0.19580 0.44800
C 	C 	0.03760 0.05160 0.09480 -0.32200
C 	C 	0.96830 0.05170 0.03310 0.26100
H 	H 	0.94610 0.08770 0.05340 -0.05600
C 	C 	0.06890 0.00220 0.06000 0.18600
H 	H 	0.11580 0.00470 0.09920 -0.02900
O 	O 	0.10006 0.28630 0.42170 -0.57100
O 	O 	0.21067 0.29900 0.53080 -0.53200
O 	O 	0.18056 0.65310 0.82000 -0.44600
O 	O 	0.06980 0.63810 0.70980 -0.50400
O 	O 	0.14210 0.10370 0.24920 -0.45000
O 	O 	0.04968 0.14970 0.22680 -0.56900
Cd	Cd	0.67145 0.70028 0.38257 1.21500
C 	C 	0.64690 0.89520 0.56720 -0.13200
C 	C 	0.58570 0.91010 0.54550 -0.00000
H 	H 	0.54860 0.87130 0.49540 0.02900
C 	C 	0.57930 0.98620 0.60050 -0.02600
H 	H 	0.53650 0.00200 0.58050 0.04100
C 	C 	0.63560 0.03810 0.68410 -0.09300
C 	C 	0.69670 0.00630 0.71330 -0.02200
H 	H 	0.73600 0.03120 0.77420 0.04600
C 	C 	0.70180 0.93660 0.65320 0.00600
H 	H 	0.74440 0.91870 0.67350 0.03000
C 	C 	0.65310 0.82390 0.50270 0.40400
C 	C 	0.62790 0.11490 0.74340 0.39700
C 	C 	0.57780 0.60610 0.19580 0.37100
C 	C 	0.53760 0.55160 0.09480 -0.09200
C 	C 	0.46830 0.55170 0.03310 -0.01400
H 	H 	0.44610 0.58770 0.05340 0.02400
C 	C 	0.56890 0.50220 0.06000 -0.02400
H 	H 	0.61580 0.50470 0.09920 0.04600
O 	O 	0.60006 0.78630 0.42170 -0.55600
O 	O 	0.71067 0.79900 0.53080 -0.53000
O 	O 	0.68056 0.15310 0.82000 -0.44300
O 	O 	0.56980 0.13810 0.70980 -0.48400
O 	O 	0.64210 0.60370 0.24920 -0.42700
O 	O 	0.54968 0.64970 0.22680 -0.52200
Cd	Cd	0.82855 0.20028 0.11743 1.21600
C 	C 	0.85310 0.39520 0.93280 -0.12400
C 	C 	0.91430 0.41010 0.95450 0.00100
H 	H 	0.95140 0.37130 0.00460 0.04900
C 	C 	0.92070 0.48620 0.89950 -0.02200
H 	H 	0.96350 0.50200 0.91950 0.06200
C 	C 	0.86440 0.53810 0.81590 -0.08600
C 	C 	0.80330 0.50630 0.78670 -0.02100
H 	H 	0.76400 0.53120 0.72580 0.04700
C 	C 	0.79820 0.43660 0.84680 0.00400
H 	H 	0.75560 0.41870 0.82650 0.03300
C 	C 	0.84690 0.32390 0.99730 0.39900
C 	C 	0.87210 0.61490 0.75660 0.39400
C 	C 	0.92220 0.10610 0.30420 0.29500
C 	C 	0.96240 0.05160 0.40520 0.13300
C 	C 	0.03170 0.05170 0.46690 -0.27800
H 	H 	0.05390 0.08770 0.44660 0.10000
C 	C 	0.93110 0.00220 0.44000 -0.22600
H 	H 	0.88420 0.00470 0.40080 0.11800
O 	O 	0.89994 0.28630 0.07830 -0.53700
O 	O 	0.78933 0.29900 0.96920 -0.52700
O 	O 	0.81944 0.65310 0.68000 -0.44000
O 	O 	0.93020 0.63810 0.79020 -0.46200
O 	O 	0.85790 0.10370 0.25080 -0.40600
O 	O 	0.95032 0.14970 0.27320 -0.47300
Cd	Cd	0.32855 0.70028 0.11743 1.21400
C 	C 	0.35310 0.89520 0.93280 -0.13300
C 	C 	0.41430 0.91010 0.95450 0.00300
H 	H 	0.45140 0.87130 0.00460 0.02700
C 	C 	0.42070 0.98620 0.89950 -0.02800
H 	H 	0.46350 0.00200 0.91950 0.04200
C 	C 	0.36440 0.03810 0.81590 -0.09300
C 	C 	0.30330 0.00630 0.78670 -0.02300
H 	H 	0.26400 0.03120 0.72580 0.04600
C 	C 	0.29820 0.93660 0.84680 0.00500
H 	H 	0.25560 0.91870 0.82650 0.03200
C 	C 	0.34690 0.82390 0.99730 0.40600
C 	C 	0.37210 0.11490 0.75660 0.39700
C 	C 	0.42220 0.60610 0.30420 0.37300
C 	C 	0.46240 0.55160 0.40520 -0.09600
C 	C 	0.53170 0.55170 0.46690 -0.00800
H 	H 	0.55390 0.58770 0.44660 0.02200
C 	C 	0.43110 0.50220 0.44000 -0.01900
H 	H 	0.38420 0.50470 0.40080 0.04400
O 	O 	0.39994 0.78630 0.07830 -0.55700
O 	O 	0.28933 0.79900 0.96920 -0.53000
O 	O 	0.31944 0.15310 0.68000 -0.44400
O 	O 	0.43020 0.13810 0.79020 -0.48400
O 	O 	0.35790 0.60370 0.25080 -0.42900
O 	O 	0.45032 0.64970 0.27320 -0.52300
Cd	Cd	0.82855 0.79972 0.61743 1.21600
C 	C 	0.85310 0.60480 0.43280 -0.12600
C 	C 	0.91430 0.58990 0.45450 0.00500
H 	H 	0.95140 0.62870 0.50460 0.04700
C 	C 	0.92070 0.51380 0.39950 -0.02400
H 	H 	0.96350 0.49800 0.41950 0.06400
C 	C 	0.86440 0.46190 0.31590 -0.08400
C 	C 	0.80330 0.49370 0.28670 -0.02300
H 	H 	0.76400 0.46880 0.22580 0.04700
C 	C 	0.79820 0.56340 0.34680 0.00700
H 	H 	0.75560 0.58130 0.32650 0.03200
C 	C 	0.84690 0.67610 0.49730 0.40200
C 	C 	0.87210 0.38510 0.25660 0.39300
C 	C 	0.92220 0.89390 0.80420 0.29600
C 	C 	0.96240 0.94840 0.90520 0.13100
C 	C 	0.03170 0.94830 0.96690 -0.27600
H 	H 	0.05390 0.91230 0.94660 0.09900
C 	C 	0.93110 0.99780 0.94000 -0.22700
H 	H 	0.88420 0.99530 0.90080 0.11800
O 	O 	0.89994 0.71370 0.57830 -0.53800
O 	O 	0.78933 0.70100 0.46920 -0.52800
O 	O 	0.81944 0.34690 0.18000 -0.44000
O 	O 	0.93020 0.36190 0.29020 -0.46100
O 	O 	0.85790 0.89630 0.75080 -0.40700
O 	O 	0.95032 0.85030 0.77320 -0.47400
Cd	Cd	0.32855 0.29972 0.61743 1.21400
C 	C 	0.35310 0.10480 0.43280 -0.13100
C 	C 	0.41430 0.08990 0.45450 -0.00200
H 	H 	0.45140 0.12870 0.50460 0.02900
C 	C 	0.42070 0.01380 0.39950 -0.02500
H 	H 	0.46350 0.99800 0.41950 0.04100
C 	C 	0.36440 0.96190 0.31590 -0.09400
C 	C 	0.30330 0.99370 0.28670 -0.02100
H 	H 	0.26400 0.96880 0.22580 0.04600
C 	C 	0.29820 0.06340 0.34680 0.00300
H 	H 	0.25560 0.08130 0.32650 0.03300
C 	C 	0.34690 0.17610 0.49730 0.40300
C 	C 	0.37210 0.88510 0.25660 0.39800
C 	C 	0.42220 0.39390 0.80420 0.37400
C 	C 	0.46240 0.44840 0.90520 -0.09900
C 	C 	0.53170 0.44830 0.96690 -0.00400
H 	H 	0.55390 0.41230 0.94660 0.02100
C 	C 	0.43110 0.49780 0.94000 -0.01400
H 	H 	0.38420 0.49530 0.90080 0.04300
O 	O 	0.39994 0.21370 0.57830 -0.55600
O 	O 	0.28933 0.20100 0.46920 -0.53000
O 	O 	0.31944 0.84690 0.18000 -0.44500
O 	O 	0.43020 0.86190 0.29020 -0.48400
O 	O 	0.35790 0.39630 0.75080 -0.42900
O 	O 	0.45032 0.35030 0.77320 -0.52300
Cd	Cd	0.17145 0.79972 0.88257 1.21400
C 	C 	0.14690 0.60480 0.06720 -0.13500
C 	C 	0.08570 0.58990 0.04550 -0.00700
H 	H 	0.04860 0.62870 0.99540 0.01200
C 	C 	0.07930 0.51380 0.10050 -0.02600
H 	H 	0.03650 0.49800 0.08050 0.02000
C 	C 	0.13560 0.46190 0.18410 -0.10300
C 	C 	0.19670 0.49370 0.21330 -0.01900
H 	H 	0.23600 0.46880 0.27420 0.04400
C 	C 	0.20180 0.56340 0.15320 0.00200
H 	H 	0.24440 0.58130 0.17350 0.03200
C 	C 	0.15310 0.67610 0.00270 0.40400
C 	C 	0.12790 0.38510 0.24340 0.40100
C 	C 	0.07780 0.89390 0.69580 0.44900
C 	C 	0.03760 0.94840 0.59480 -0.32300
C 	C 	0.96830 0.94830 0.53310 0.26100
H 	H 	0.94610 0.91230 0.55340 -0.05600
C 	C 	0.06890 0.99780 0.56000 0.18700
H 	H 	0.11580 0.99530 0.59920 -0.02900
O 	O 	0.10006 0.71370 0.92170 -0.57000
O 	O 	0.21067 0.70100 0.03080 -0.53200
O 	O 	0.18056 0.34690 0.32000 -0.44700
O 	O 	0.06980 0.36190 0.20980 -0.50400
O 	O 	0.14210 0.89630 0.74920 -0.45000
O 	O 	0.04968 0.85030 0.72680 -0.56900
Cd	Cd	0.67145 0.29972 0.88257 1.21500
C 	C 	0.64690 0.10480 0.06720 -0.12900
C 	C 	0.58570 0.08990 0.04550 -0.00500
H 	H 	0.54860 0.12870 0.99540 0.03100
C 	C 	0.57930 0.01380 0.10050 -0.02400
H 	H 	0.53650 0.99800 0.08050 0.04000
C 	C 	0.63560 0.96190 0.18410 -0.09400
C 	C 	0.69670 0.99370 0.21330 -0.02000
H 	H 	0.73600 0.96880 0.27420 0.04500
C 	C 	0.70180 0.06340 0.15320 0.00400
H 	H 	0.74440 0.08130 0.17350 0.03100
C 	C 	0.65310 0.17610 0.00270 0.40200
C 	C 	0.62790 0.88510 0.24340 0.39800
C 	C 	0.57780 0.39390 0.69580 0.37200
C 	C 	0.53760 0.44840 0.59480 -0.09500
C 	C 	0.46830 0.44830 0.53310 -0.00900
H 	H 	0.44610 0.41230 0.55340 0.02200
C 	C 	0.56890 0.49780 0.56000 -0.01900
H 	H 	0.61580 0.49530 0.59920 0.04500
O 	O 	0.60006 0.21370 0.92170 -0.55500
O 	O 	0.71067 0.20100 0.03080 -0.52900
O 	O 	0.68056 0.84690 0.32000 -0.44300
O 	O 	0.56980 0.86190 0.20980 -0.48400
O 	O 	0.64210 0.39630 0.74920 -0.42800
O 	O 	0.54968 0.35030 0.72680 -0.52300
Ca	Ca	0.00000 0.28959 0.25000 1.49900
Ca	Ca	0.50000 0.78959 0.25000 1.50900
Ca	Ca	0.00000 0.71041 0.75000 1.49900
Ca	Ca	0.50000 0.21041 0.75000 1.50900
