data_crystal

_cell_length_a 11.23800
_cell_length_b 11.64400
_cell_length_c 10.02000
_cell_angle_alpha 90.00000
_cell_angle_beta  102.67000
_cell_angle_gamma 90.00000

_symmetry_space_group_name_	'P 1'
_symmetry_space_group_name_H-M	'P 1'

loop_
_symmetry_equiv_pos_as_xyz
  x,y,z

loop_
_atom_site_label
_atom_site_type_symbol
_atom_site_fract_x
_atom_site_fract_y
_atom_site_fract_z
_atom_site_charge
Cu	Cu	0.25000 0.57450 0.25000 0.80300
Cu	Cu	0.43100 0.40480 0.29340 0.80900
S 	S 	0.15840 0.67480 0.05450 -0.26400
C 	C 	0.07190 0.75820 0.12390 0.11300
N 	N 	0.01350 0.81750 0.17460 -0.25000
S 	S 	0.20850 0.37270 0.20320 -0.33100
C 	C 	0.21270 0.38010 0.03860 0.04700
N 	N 	0.21620 0.38570 0.92460 -0.25900
S 	S 	0.46810 0.60850 0.26940 -0.37200
C 	C 	0.46400 0.61600 0.10310 0.06000
N 	N 	0.46350 0.62010 0.98900 -0.26300
Cu	Cu	0.75000 0.07450 0.25000 0.80000
Cu	Cu	0.93100 0.90480 0.29340 0.79100
S 	S 	0.65840 0.17480 0.05450 -0.29400
C 	C 	0.57190 0.25820 0.12390 0.09200
N 	N 	0.51350 0.31750 0.17460 -0.28400
S 	S 	0.70850 0.87270 0.20320 -0.36500
C 	C 	0.71270 0.88010 0.03860 0.03300
N 	N 	0.71620 0.88570 0.92460 -0.26600
S 	S 	0.96810 0.10850 0.26940 -0.41700
C 	C 	0.96400 0.11600 0.10310 0.04700
N 	N 	0.96350 0.12010 0.98900 -0.27700
Cu	Cu	0.25000 0.42550 0.75000 0.80300
Cu	Cu	0.43100 0.59520 0.79340 0.81000
S 	S 	0.15840 0.32520 0.55450 -0.24900
C 	C 	0.07190 0.24180 0.62390 0.11700
N 	N 	0.01350 0.18250 0.67460 -0.24600
S 	S 	0.20850 0.62730 0.70320 -0.32600
C 	C 	0.21270 0.61990 0.53860 0.07400
N 	N 	0.21620 0.61430 0.42460 -0.28000
S 	S 	0.46810 0.39150 0.76940 -0.36600
C 	C 	0.46400 0.38400 0.60310 0.08600
N 	N 	0.46350 0.37990 0.48900 -0.28500
Cu	Cu	0.75000 0.92550 0.75000 0.80200
Cu	Cu	0.93100 0.09520 0.79340 0.79400
S 	S 	0.65840 0.82520 0.55450 -0.27900
C 	C 	0.57190 0.74180 0.62390 0.09700
N 	N 	0.51350 0.68250 0.67460 -0.28100
S 	S 	0.70850 0.12730 0.70320 -0.36000
C 	C 	0.71270 0.11990 0.53860 0.06000
N 	N 	0.71620 0.11430 0.42460 -0.28700
S 	S 	0.96810 0.89150 0.76940 -0.41000
C 	C 	0.96400 0.88400 0.60310 0.07200
N 	N 	0.96350 0.87990 0.48900 -0.29900
