data_crystal

_cell_length_a 8.86100
_cell_length_b 18.62400
_cell_length_c 9.32900
_cell_angle_alpha 90.00000
_cell_angle_beta  118.27000
_cell_angle_gamma 90.00000

_symmetry_space_group_name_	'P 1'
_symmetry_space_group_name_H-M	'P 1'

loop_
_symmetry_equiv_pos_as_xyz
  x,y,z

loop_
_atom_site_label
_atom_site_type_symbol
_atom_site_fract_x
_atom_site_fract_y
_atom_site_fract_z
_atom_site_charge
Ga	Ga	0.49460 0.22010 0.85540 2.08200
Ga	Ga	0.39970 0.44190 0.87710 2.09800
Ga	Ga	0.98720 0.17940 0.81610 2.08000
P 	P 	0.21990 0.09870 0.69960 0.64400
P 	P 	0.23900 0.30650 0.95230 0.68100
P 	P 	0.88090 0.16280 0.09560 0.70500
F 	F 	0.57500 0.51370 0.91410 -0.81000
O 	O 	0.70390 0.19790 0.02020 -0.70600
O 	O 	0.15500 0.12320 0.81920 -0.65100
O 	O 	0.22440 0.37800 0.86780 -0.54700
O 	O 	0.28440 0.31990 0.13070 -0.64100
O 	O 	0.88530 0.09330 0.18110 -0.56700
O 	O 	0.26490 0.01800 0.72440 -0.48800
O 	O 	0.39070 0.13860 0.74610 -0.61000
O 	O 	0.09080 0.11800 0.52500 -0.59300
O 	O 	0.01040 0.21750 0.21370 -0.66000
O 	O 	0.06210 0.27140 0.86740 -0.62900
O 	O 	0.93270 0.14350 0.96540 -0.63200
O 	O 	0.37470 0.25630 0.95200 -0.73600
Ga	Ga	0.00540 0.72010 0.64460 2.07900
Ga	Ga	0.10030 0.94190 0.62290 2.09500
Ga	Ga	0.51280 0.67940 0.68390 2.08200
P 	P 	0.28010 0.59870 0.80040 0.64400
P 	P 	0.26100 0.80650 0.54770 0.68300
P 	P 	0.61910 0.66280 0.40440 0.71600
F 	F 	0.92500 0.01370 0.58590 -0.81400
O 	O 	0.79610 0.69790 0.47980 -0.70100
O 	O 	0.34500 0.62320 0.68080 -0.65700
O 	O 	0.27560 0.87800 0.63220 -0.55100
O 	O 	0.21560 0.81990 0.36930 -0.64500
O 	O 	0.61470 0.59330 0.31890 -0.56300
O 	O 	0.23510 0.51800 0.77560 -0.49200
O 	O 	0.10930 0.63860 0.75390 -0.61400
O 	O 	0.40920 0.61800 0.97500 -0.60200
O 	O 	0.48960 0.71750 0.28630 -0.67400
O 	O 	0.43790 0.77140 0.63260 -0.63600
O 	O 	0.56730 0.64350 0.53460 -0.62900
O 	O 	0.12530 0.75630 0.54800 -0.74000
Ga	Ga	0.50540 0.77990 0.14460 2.08100
Ga	Ga	0.60030 0.55810 0.12290 2.09700
Ga	Ga	0.01280 0.82060 0.18390 2.08000
P 	P 	0.78010 0.90130 0.30040 0.64400
P 	P 	0.76100 0.69350 0.04770 0.68100
P 	P 	0.11910 0.83720 0.90440 0.70500
F 	F 	0.42500 0.48630 0.08590 -0.81000
O 	O 	0.29610 0.80210 0.97980 -0.70600
O 	O 	0.84500 0.87680 0.18080 -0.65100
O 	O 	0.77560 0.62200 0.13220 -0.54700
O 	O 	0.71560 0.68010 0.86930 -0.64100
O 	O 	0.11470 0.90670 0.81890 -0.56700
O 	O 	0.73510 0.98200 0.27560 -0.48800
O 	O 	0.60930 0.86140 0.25390 -0.61000
O 	O 	0.90920 0.88200 0.47500 -0.59300
O 	O 	0.98960 0.78250 0.78630 -0.66000
O 	O 	0.93790 0.72860 0.13260 -0.62900
O 	O 	0.06730 0.85650 0.03460 -0.63200
O 	O 	0.62530 0.74370 0.04800 -0.73600
Ga	Ga	0.99460 0.27990 0.35540 2.07900
Ga	Ga	0.89970 0.05810 0.37710 2.09500
Ga	Ga	0.48720 0.32060 0.31610 2.08200
P 	P 	0.71990 0.40130 0.19960 0.64400
P 	P 	0.73900 0.19350 0.45230 0.68300
P 	P 	0.38090 0.33720 0.59560 0.71600
F 	F 	0.07500 0.98630 0.41410 -0.81400
O 	O 	0.20390 0.30210 0.52020 -0.70100
O 	O 	0.65500 0.37680 0.31920 -0.65700
O 	O 	0.72440 0.12200 0.36780 -0.55100
O 	O 	0.78440 0.18010 0.63070 -0.64500
O 	O 	0.38530 0.40670 0.68110 -0.56300
O 	O 	0.76490 0.48200 0.22440 -0.49200
O 	O 	0.89070 0.36140 0.24610 -0.61400
O 	O 	0.59080 0.38200 0.02500 -0.60200
O 	O 	0.51040 0.28250 0.71370 -0.67400
O 	O 	0.56210 0.22860 0.36740 -0.63600
O 	O 	0.43270 0.35650 0.46540 -0.62900
O 	O 	0.87470 0.24370 0.45200 -0.74000
