data_crystal

_cell_length_a 14.29280
_cell_length_b 10.24400
_cell_length_c 18.99010
_cell_angle_alpha 90.00000
_cell_angle_beta  96.65800
_cell_angle_gamma 90.00000

_symmetry_space_group_name_	'P 1'
_symmetry_space_group_name_H-M	'P 1'

loop_
_symmetry_equiv_pos_as_xyz
  x,y,z

loop_
_atom_site_label
_atom_site_type_symbol
_atom_site_fract_x
_atom_site_fract_y
_atom_site_fract_z
_atom_site_charge
V 	V 	0.15540 0.61470 0.08940 1.70300
V 	V 	0.22760 0.55610 0.28080 1.70000
P 	P 	0.78510 0.37490 0.07490 0.53400
P 	P 	0.16620 0.33250 0.16940 0.48200
O 	O 	0.79640 0.42540 0.00060 -0.54000
O 	O 	0.69220 0.30030 0.07590 -0.56500
O 	O 	0.15550 0.40270 0.23880 -0.56900
O 	O 	0.18290 0.42880 0.10980 -0.55000
O 	O 	0.78890 0.49360 0.12320 -0.54300
O 	O 	0.24710 0.23350 0.17590 -0.54300
O 	O 	0.19090 0.65130 0.19050 -0.74400
C 	C 	0.88060 0.26610 0.10460 -0.47800
C 	C 	0.05790 0.24650 0.14330 -0.44200
C 	C 	0.97450 0.33720 0.12090 0.27300
H 	H 	0.88640 0.20090 0.06830 0.12700
H 	H 	0.86610 0.22110 0.14700 0.12300
H 	H 	0.04300 0.19290 0.18260 0.10700
H 	H 	0.06680 0.18880 0.10410 0.12400
H 	H 	0.98730 0.38540 0.07910 -0.12600
H 	H 	0.96910 0.39990 0.15850 -0.08600
V 	V 	0.65540 0.11470 0.08940 1.69900
V 	V 	0.72760 0.05610 0.28080 1.69800
P 	P 	0.28510 0.87490 0.07490 0.53400
P 	P 	0.66620 0.83250 0.16940 0.48300
O 	O 	0.29640 0.92540 0.00060 -0.53500
O 	O 	0.19220 0.80030 0.07590 -0.56100
O 	O 	0.65550 0.90270 0.23880 -0.56600
O 	O 	0.68290 0.92880 0.10980 -0.54500
O 	O 	0.28890 0.99360 0.12320 -0.53900
O 	O 	0.74710 0.73350 0.17590 -0.54000
O 	O 	0.69090 0.15130 0.19050 -0.74700
C 	C 	0.38060 0.76610 0.10460 -0.47800
C 	C 	0.55790 0.74650 0.14330 -0.44100
C 	C 	0.47450 0.83720 0.12090 0.27200
H 	H 	0.38640 0.70090 0.06830 0.12900
H 	H 	0.36610 0.72110 0.14700 0.12400
H 	H 	0.54300 0.69290 0.18260 0.10800
H 	H 	0.56680 0.68880 0.10410 0.12600
H 	H 	0.48730 0.88540 0.07910 -0.12400
H 	H 	0.46910 0.89990 0.15850 -0.08500
V 	V 	0.84460 0.61470 0.41060 1.70300
V 	V 	0.77240 0.55610 0.21920 1.70000
P 	P 	0.21490 0.37490 0.42510 0.53500
P 	P 	0.83380 0.33250 0.33060 0.48300
O 	O 	0.20360 0.42540 0.49940 -0.53900
O 	O 	0.30780 0.30030 0.42410 -0.56300
O 	O 	0.84450 0.40270 0.26120 -0.56900
O 	O 	0.81710 0.42880 0.39020 -0.54900
O 	O 	0.21110 0.49360 0.37680 -0.54400
O 	O 	0.75290 0.23350 0.32410 -0.54100
O 	O 	0.80910 0.65130 0.30950 -0.74400
C 	C 	0.11940 0.26610 0.39540 -0.48000
C 	C 	0.94210 0.24650 0.35670 -0.44200
C 	C 	0.02550 0.33720 0.37910 0.27400
H 	H 	0.11360 0.20090 0.43170 0.12900
H 	H 	0.13390 0.22110 0.35300 0.12400
H 	H 	0.95700 0.19290 0.31740 0.10800
H 	H 	0.93320 0.18880 0.39590 0.12600
H 	H 	0.01270 0.38540 0.42090 -0.12600
H 	H 	0.03090 0.39990 0.34150 -0.08700
V 	V 	0.34460 0.11470 0.41060 1.70200
V 	V 	0.27240 0.05610 0.21920 1.69700
P 	P 	0.71490 0.87490 0.42510 0.53500
P 	P 	0.33380 0.83250 0.33060 0.48300
O 	O 	0.70360 0.92540 0.49940 -0.53900
O 	O 	0.80780 0.80030 0.42410 -0.56300
O 	O 	0.34450 0.90270 0.26120 -0.56600
O 	O 	0.31710 0.92880 0.39020 -0.54800
O 	O 	0.71110 0.99360 0.37680 -0.54100
O 	O 	0.25290 0.73350 0.32410 -0.54000
O 	O 	0.30910 0.15130 0.30950 -0.74600
C 	C 	0.61940 0.76610 0.39540 -0.47900
C 	C 	0.44210 0.74650 0.35670 -0.44200
C 	C 	0.52550 0.83720 0.37910 0.27400
H 	H 	0.61360 0.70090 0.43170 0.12900
H 	H 	0.63390 0.72110 0.35300 0.12500
H 	H 	0.45700 0.69290 0.31740 0.10800
H 	H 	0.43320 0.68880 0.39590 0.12600
H 	H 	0.51270 0.88540 0.42090 -0.12600
H 	H 	0.53090 0.89990 0.34150 -0.08600
V 	V 	0.84460 0.38530 0.91060 1.70300
V 	V 	0.77240 0.44390 0.71920 1.70000
P 	P 	0.21490 0.62510 0.92510 0.53400
P 	P 	0.83380 0.66750 0.83060 0.48200
O 	O 	0.20360 0.57460 0.99940 -0.54000
O 	O 	0.30780 0.69970 0.92410 -0.56500
O 	O 	0.84450 0.59730 0.76120 -0.56900
O 	O 	0.81710 0.57120 0.89020 -0.55000
O 	O 	0.21110 0.50640 0.87680 -0.54300
O 	O 	0.75290 0.76650 0.82410 -0.54300
O 	O 	0.80910 0.34870 0.80950 -0.74400
C 	C 	0.11940 0.73390 0.89540 -0.47800
C 	C 	0.94210 0.75350 0.85670 -0.44200
C 	C 	0.02550 0.66280 0.87910 0.27300
H 	H 	0.11360 0.79910 0.93170 0.12700
H 	H 	0.13390 0.77890 0.85300 0.12300
H 	H 	0.95700 0.80710 0.81740 0.10700
H 	H 	0.93320 0.81120 0.89590 0.12400
H 	H 	0.01270 0.61460 0.92090 -0.12600
H 	H 	0.03090 0.60010 0.84150 -0.08600
V 	V 	0.34460 0.88530 0.91060 1.69900
V 	V 	0.27240 0.94390 0.71920 1.69800
P 	P 	0.71490 0.12510 0.92510 0.53400
P 	P 	0.33380 0.16750 0.83060 0.48300
O 	O 	0.70360 0.07460 0.99940 -0.53500
O 	O 	0.80780 0.19970 0.92410 -0.56100
O 	O 	0.34450 0.09730 0.76120 -0.56600
O 	O 	0.31710 0.07120 0.89020 -0.54500
O 	O 	0.71110 0.00640 0.87680 -0.53900
O 	O 	0.25290 0.26650 0.82410 -0.54000
O 	O 	0.30910 0.84870 0.80950 -0.74700
C 	C 	0.61940 0.23390 0.89540 -0.47800
C 	C 	0.44210 0.25350 0.85670 -0.44100
C 	C 	0.52550 0.16280 0.87910 0.27200
H 	H 	0.61360 0.29910 0.93170 0.12900
H 	H 	0.63390 0.27890 0.85300 0.12400
H 	H 	0.45700 0.30710 0.81740 0.10800
H 	H 	0.43320 0.31120 0.89590 0.12600
H 	H 	0.51270 0.11460 0.92090 -0.12400
H 	H 	0.53090 0.10010 0.84150 -0.08500
V 	V 	0.15540 0.38530 0.58940 1.70300
V 	V 	0.22760 0.44390 0.78080 1.70000
P 	P 	0.78510 0.62510 0.57490 0.53500
P 	P 	0.16620 0.66750 0.66940 0.48300
O 	O 	0.79640 0.57460 0.50060 -0.53900
O 	O 	0.69220 0.69970 0.57590 -0.56300
O 	O 	0.15550 0.59730 0.73880 -0.56900
O 	O 	0.18290 0.57120 0.60980 -0.54900
O 	O 	0.78890 0.50640 0.62320 -0.54400
O 	O 	0.24710 0.76650 0.67590 -0.54100
O 	O 	0.19090 0.34870 0.69050 -0.74400
C 	C 	0.88060 0.73390 0.60460 -0.48000
C 	C 	0.05790 0.75350 0.64330 -0.44200
C 	C 	0.97450 0.66280 0.62090 0.27400
H 	H 	0.88640 0.79910 0.56830 0.12900
H 	H 	0.86610 0.77890 0.64700 0.12400
H 	H 	0.04300 0.80710 0.68260 0.10800
H 	H 	0.06680 0.81120 0.60410 0.12600
H 	H 	0.98730 0.61460 0.57910 -0.12600
H 	H 	0.96910 0.60010 0.65850 -0.08700
V 	V 	0.65540 0.88530 0.58940 1.70200
V 	V 	0.72760 0.94390 0.78080 1.69700
P 	P 	0.28510 0.12510 0.57490 0.53500
P 	P 	0.66620 0.16750 0.66940 0.48300
O 	O 	0.29640 0.07460 0.50060 -0.53900
O 	O 	0.19220 0.19970 0.57590 -0.56300
O 	O 	0.65550 0.09730 0.73880 -0.56600
O 	O 	0.68290 0.07120 0.60980 -0.54800
O 	O 	0.28890 0.00640 0.62320 -0.54100
O 	O 	0.74710 0.26650 0.67590 -0.54000
O 	O 	0.69090 0.84870 0.69050 -0.74600
C 	C 	0.38060 0.23390 0.60460 -0.47900
C 	C 	0.55790 0.25350 0.64330 -0.44200
C 	C 	0.47450 0.16280 0.62090 0.27400
H 	H 	0.38640 0.29910 0.56830 0.12900
H 	H 	0.36610 0.27890 0.64700 0.12500
H 	H 	0.54300 0.30710 0.68260 0.10800
H 	H 	0.56680 0.31120 0.60410 0.12600
H 	H 	0.48730 0.11460 0.57910 -0.12600
H 	H 	0.46910 0.10010 0.65850 -0.08600
