data_crystal

_cell_length_a 14.89980
_cell_length_b 10.29030
_cell_length_c 18.51500
_cell_angle_alpha 90.00000
_cell_angle_beta  101.07900
_cell_angle_gamma 90.00000

_symmetry_space_group_name_	'P 1'
_symmetry_space_group_name_H-M	'P 1'

loop_
_symmetry_equiv_pos_as_xyz
  x,y,z

loop_
_atom_site_label
_atom_site_type_symbol
_atom_site_fract_x
_atom_site_fract_y
_atom_site_fract_z
_atom_site_charge
V 	V 	0.83260 0.38240 0.90710 1.74500
V 	V 	0.75770 0.44620 0.71670 1.23400
V 	V 	0.19230 0.41810 0.78050 1.23000
P 	P 	0.21580 0.62080 0.92530 0.57000
P 	P 	0.83770 0.66590 0.83330 0.56300
O 	O 	0.20960 0.57510 0.00290 -0.51400
O 	O 	0.30290 0.70000 0.92660 -0.53300
O 	O 	0.83380 0.59280 0.76140 -0.61300
O 	O 	0.82850 0.57420 0.89710 -0.51100
O 	O 	0.21480 0.49890 0.87890 -0.56300
O 	O 	0.76510 0.77100 0.82850 -0.55900
O 	O 	0.65680 0.50220 0.71200 -0.52000
O 	O 	0.77770 0.37000 0.81470 -0.82900
C 	C 	0.11880 0.72080 0.88970 -0.54000
C 	C 	0.94780 0.74220 0.85560 -0.50800
C 	C 	0.02830 0.64820 0.87580 0.32800
O 	O 	0.90630 0.35300 0.72640 -0.51600
H 	H 	0.11560 0.79070 0.92430 0.17000
H 	H 	0.12780 0.75980 0.84390 0.18800
H 	H 	0.95690 0.79380 0.81370 0.18700
H 	H 	0.94800 0.80100 0.89650 0.18100
H 	H 	0.02220 0.60000 0.91960 -0.11900
H 	H 	0.02740 0.58650 0.83610 -0.07900
V 	V 	0.33260 0.88240 0.90710 1.74400
V 	V 	0.25770 0.94620 0.71670 1.23400
V 	V 	0.69230 0.91810 0.78050 1.23000
P 	P 	0.71580 0.12080 0.92530 0.58000
P 	P 	0.33770 0.16590 0.83330 0.56400
O 	O 	0.70960 0.07510 0.00290 -0.52100
O 	O 	0.80290 0.20000 0.92660 -0.53100
O 	O 	0.33380 0.09280 0.76140 -0.61100
O 	O 	0.32850 0.07420 0.89710 -0.50700
O 	O 	0.71480 0.99890 0.87890 -0.57000
O 	O 	0.26510 0.27100 0.82850 -0.55800
O 	O 	0.15680 0.00220 0.71200 -0.51700
O 	O 	0.27770 0.87000 0.81470 -0.83000
C 	C 	0.61880 0.22080 0.88970 -0.54200
C 	C 	0.44780 0.24220 0.85560 -0.50900
C 	C 	0.52830 0.14820 0.87580 0.32900
O 	O 	0.40630 0.85300 0.72640 -0.51700
H 	H 	0.61560 0.29070 0.92430 0.17200
H 	H 	0.62780 0.25980 0.84390 0.18900
H 	H 	0.45690 0.29380 0.81370 0.18800
H 	H 	0.44800 0.30100 0.89650 0.18300
H 	H 	0.52220 0.10000 0.91960 -0.11700
H 	H 	0.52740 0.08650 0.83610 -0.07800
V 	V 	0.16740 0.38240 0.59290 1.74600
V 	V 	0.24230 0.44620 0.78330 1.23500
V 	V 	0.80770 0.41810 0.71950 1.23000
P 	P 	0.78420 0.62080 0.57470 0.57200
P 	P 	0.16230 0.66590 0.66670 0.56400
O 	O 	0.79040 0.57510 0.49710 -0.51400
O 	O 	0.69710 0.70000 0.57340 -0.53200
O 	O 	0.16620 0.59280 0.73860 -0.61300
O 	O 	0.17150 0.57420 0.60290 -0.51100
O 	O 	0.78520 0.49890 0.62110 -0.56400
O 	O 	0.23490 0.77100 0.67150 -0.55900
O 	O 	0.34320 0.50220 0.78800 -0.52000
O 	O 	0.22230 0.37000 0.68530 -0.82900
C 	C 	0.88120 0.72080 0.61030 -0.54100
C 	C 	0.05220 0.74220 0.64440 -0.51000
C 	C 	0.97170 0.64820 0.62420 0.32900
O 	O 	0.09370 0.35300 0.77360 -0.51600
H 	H 	0.88440 0.79070 0.57570 0.17100
H 	H 	0.87220 0.75980 0.65610 0.18900
H 	H 	0.04310 0.79380 0.68630 0.18700
H 	H 	0.05200 0.80100 0.60350 0.18200
H 	H 	0.97780 0.60000 0.58040 -0.11900
H 	H 	0.97260 0.58650 0.66390 -0.07900
V 	V 	0.66740 0.88240 0.59290 1.74500
V 	V 	0.74230 0.94620 0.78330 1.23400
V 	V 	0.30770 0.91810 0.71950 1.23000
P 	P 	0.28420 0.12080 0.57470 0.57300
P 	P 	0.66230 0.16590 0.66670 0.56400
O 	O 	0.29040 0.07510 0.49710 -0.51500
O 	O 	0.19710 0.20000 0.57340 -0.53200
O 	O 	0.66620 0.09280 0.73860 -0.61100
O 	O 	0.67150 0.07420 0.60290 -0.51000
O 	O 	0.28520 0.99890 0.62110 -0.56600
O 	O 	0.73490 0.27100 0.67150 -0.55800
O 	O 	0.84320 0.00220 0.78800 -0.51600
O 	O 	0.72230 0.87000 0.68530 -0.83000
C 	C 	0.38120 0.22080 0.61030 -0.54100
C 	C 	0.55220 0.24220 0.64440 -0.50900
C 	C 	0.47170 0.14820 0.62420 0.32900
O 	O 	0.59370 0.85300 0.77360 -0.51700
H 	H 	0.38440 0.29070 0.57570 0.17100
H 	H 	0.37220 0.25980 0.65610 0.18900
H 	H 	0.54310 0.29380 0.68630 0.18800
H 	H 	0.55200 0.30100 0.60350 0.18300
H 	H 	0.47780 0.10000 0.58040 -0.11900
H 	H 	0.47260 0.08650 0.66390 -0.07800
V 	V 	0.16740 0.61760 0.09290 1.74600
V 	V 	0.24230 0.55380 0.28330 1.23500
V 	V 	0.80770 0.58190 0.21950 1.23000
P 	P 	0.78420 0.37920 0.07470 0.57000
P 	P 	0.16230 0.33410 0.16670 0.56300
O 	O 	0.79040 0.42490 0.99710 -0.51400
O 	O 	0.69710 0.30000 0.07340 -0.53300
O 	O 	0.16620 0.40720 0.23860 -0.61300
O 	O 	0.17150 0.42580 0.10290 -0.51100
O 	O 	0.78520 0.50110 0.12110 -0.56300
O 	O 	0.23490 0.22900 0.17150 -0.55900
O 	O 	0.34320 0.49780 0.28800 -0.52000
O 	O 	0.22230 0.63000 0.18530 -0.82900
C 	C 	0.88120 0.27920 0.11030 -0.54000
C 	C 	0.05220 0.25780 0.14440 -0.50800
C 	C 	0.97170 0.35180 0.12420 0.32800
O 	O 	0.09370 0.64700 0.27360 -0.51600
H 	H 	0.88440 0.20930 0.07570 0.17000
H 	H 	0.87220 0.24020 0.15610 0.18800
H 	H 	0.04310 0.20620 0.18630 0.18700
H 	H 	0.05200 0.19900 0.10350 0.18100
H 	H 	0.97780 0.40000 0.08040 -0.11900
H 	H 	0.97260 0.41350 0.16390 -0.07900
V 	V 	0.66740 0.11760 0.09290 1.74400
V 	V 	0.74230 0.05380 0.28330 1.23400
V 	V 	0.30770 0.08190 0.21950 1.23000
P 	P 	0.28420 0.87920 0.07470 0.58000
P 	P 	0.66230 0.83410 0.16670 0.56400
O 	O 	0.29040 0.92490 0.99710 -0.52100
O 	O 	0.19710 0.80000 0.07340 -0.53100
O 	O 	0.66620 0.90720 0.23860 -0.61100
O 	O 	0.67150 0.92580 0.10290 -0.50700
O 	O 	0.28520 0.00110 0.12110 -0.57000
O 	O 	0.73490 0.72900 0.17150 -0.55800
O 	O 	0.84320 0.99780 0.28800 -0.51700
O 	O 	0.72230 0.13000 0.18530 -0.83000
C 	C 	0.38120 0.77920 0.11030 -0.54200
C 	C 	0.55220 0.75780 0.14440 -0.50900
C 	C 	0.47170 0.85180 0.12420 0.32900
O 	O 	0.59370 0.14700 0.27360 -0.51700
H 	H 	0.38440 0.70930 0.07570 0.17200
H 	H 	0.37220 0.74020 0.15610 0.18900
H 	H 	0.54310 0.70620 0.18630 0.18800
H 	H 	0.55200 0.69900 0.10350 0.18300
H 	H 	0.47780 0.90000 0.08040 -0.11700
H 	H 	0.47260 0.91350 0.16390 -0.07800
V 	V 	0.83260 0.61760 0.40710 1.74600
V 	V 	0.75770 0.55380 0.21670 1.23500
V 	V 	0.19230 0.58190 0.28050 1.23000
P 	P 	0.21580 0.37920 0.42530 0.57200
P 	P 	0.83770 0.33410 0.33330 0.56400
O 	O 	0.20960 0.42490 0.50290 -0.51400
O 	O 	0.30290 0.30000 0.42660 -0.53200
O 	O 	0.83380 0.40720 0.26140 -0.61300
O 	O 	0.82850 0.42580 0.39710 -0.51100
O 	O 	0.21480 0.50110 0.37890 -0.56400
O 	O 	0.76510 0.22900 0.32850 -0.55900
O 	O 	0.65680 0.49780 0.21200 -0.52000
O 	O 	0.77770 0.63000 0.31470 -0.82900
C 	C 	0.11880 0.27920 0.38970 -0.54100
C 	C 	0.94780 0.25780 0.35560 -0.51000
C 	C 	0.02830 0.35180 0.37580 0.32900
O 	O 	0.90630 0.64700 0.22640 -0.51600
H 	H 	0.11560 0.20930 0.42430 0.17100
H 	H 	0.12780 0.24020 0.34390 0.18900
H 	H 	0.95690 0.20620 0.31370 0.18700
H 	H 	0.94800 0.19900 0.39650 0.18200
H 	H 	0.02220 0.40000 0.41960 -0.11900
H 	H 	0.02740 0.41350 0.33610 -0.07900
V 	V 	0.33260 0.11760 0.40710 1.74500
V 	V 	0.25770 0.05380 0.21670 1.23400
V 	V 	0.69230 0.08190 0.28050 1.23000
P 	P 	0.71580 0.87920 0.42530 0.57300
P 	P 	0.33770 0.83410 0.33330 0.56400
O 	O 	0.70960 0.92490 0.50290 -0.51500
O 	O 	0.80290 0.80000 0.42660 -0.53200
O 	O 	0.33380 0.90720 0.26140 -0.61100
O 	O 	0.32850 0.92580 0.39710 -0.51000
O 	O 	0.71480 0.00110 0.37890 -0.56600
O 	O 	0.26510 0.72900 0.32850 -0.55800
O 	O 	0.15680 0.99780 0.21200 -0.51600
O 	O 	0.27770 0.13000 0.31470 -0.83000
C 	C 	0.61880 0.77920 0.38970 -0.54100
C 	C 	0.44780 0.75780 0.35560 -0.50900
C 	C 	0.52830 0.85180 0.37580 0.32900
O 	O 	0.40630 0.14700 0.22640 -0.51700
H 	H 	0.61560 0.70930 0.42430 0.17100
H 	H 	0.62780 0.74020 0.34390 0.18900
H 	H 	0.45690 0.70620 0.31370 0.18800
H 	H 	0.44800 0.69900 0.39650 0.18300
H 	H 	0.52220 0.90000 0.41960 -0.11900
H 	H 	0.52740 0.91350 0.33610 -0.07800
