data_crystal

_cell_length_a 5.09860
_cell_length_b 10.49430
_cell_length_c 12.44570
_cell_angle_alpha 87.61400
_cell_angle_beta  87.25800
_cell_angle_gamma 89.99400

_symmetry_space_group_name_	'P 1'
_symmetry_space_group_name_H-M	'P 1'

loop_
_symmetry_equiv_pos_as_xyz
  x,y,z

loop_
_atom_site_label
_atom_site_type_symbol
_atom_site_fract_x
_atom_site_fract_y
_atom_site_fract_z
_atom_site_charge
Zn	Zn	0.21169 0.35799 0.99839 1.22000
Zn	Zn	0.71971 0.14534 0.99755 1.22000
Zn	Zn	0.80521 0.39410 0.39234 1.24500
P 	P 	0.24820 0.11324 0.86211 0.53000
P 	P 	0.71190 0.39338 0.13820 0.55200
P 	P 	0.29780 0.32839 0.52299 0.58100
O 	O 	0.42150 0.39960 0.11620 -0.49200
O 	O 	0.83940 0.52500 0.12250 -0.49600
O 	O 	0.36980 0.19690 0.94860 -0.63400
O 	O 	0.85400 0.30610 0.05440 -0.62400
O 	O 	0.33760 0.97690 0.88610 -0.48100
O 	O 	0.95050 0.12750 0.87360 -0.47700
O 	O 	0.58930 0.30520 0.50270 -0.42200
O 	O 	0.25170 0.42470 0.60920 -0.45700
O 	O 	0.75070 0.33540 0.24980 -0.42800
O 	O 	0.17090 0.36400 0.41870 -0.46700
O 	O 	0.35360 0.15750 0.75260 -0.25500
O 	O 	0.16910 0.20160 0.56940 -0.45100
H 	H 	0.23510 0.18030 0.62620 0.33500
Zn	Zn	0.78831 0.64201 0.00161 1.22100
Zn	Zn	0.28029 0.85466 0.00245 1.22100
Zn	Zn	0.19479 0.60590 0.60766 1.24500
P 	P 	0.75180 0.88676 0.13789 0.53000
P 	P 	0.28810 0.60662 0.86180 0.55200
P 	P 	0.70220 0.67161 0.47701 0.58100
O 	O 	0.57850 0.60040 0.88380 -0.49200
O 	O 	0.16060 0.47500 0.87750 -0.49600
O 	O 	0.63020 0.80310 0.05140 -0.63400
O 	O 	0.14600 0.69390 0.94560 -0.62400
O 	O 	0.66240 0.02310 0.11390 -0.48100
O 	O 	0.04950 0.87250 0.12640 -0.47700
O 	O 	0.41070 0.69480 0.49730 -0.42200
O 	O 	0.74830 0.57530 0.39080 -0.45700
O 	O 	0.24930 0.66460 0.75020 -0.42800
O 	O 	0.82910 0.63600 0.58130 -0.46700
O 	O 	0.64640 0.84250 0.24740 -0.25500
O 	O 	0.83090 0.79840 0.43060 -0.45100
H 	H 	0.76490 0.81970 0.37380 0.33500
