data_crystal

_cell_length_a 9.71920
_cell_length_b 10.45170
_cell_length_c 16.42170
_cell_angle_alpha 90.00000
_cell_angle_beta  112.58000
_cell_angle_gamma 90.00000

_symmetry_space_group_name_	'P 1'
_symmetry_space_group_name_H-M	'P 1'

loop_
_symmetry_equiv_pos_as_xyz
  x,y,z

loop_
_atom_site_label
_atom_site_type_symbol
_atom_site_fract_x
_atom_site_fract_y
_atom_site_fract_z
_atom_site_charge
C 	C 	0.67900 0.05980 0.96850 0.06400
H 	H 	0.60960 0.11690 0.93160 0.02700
C 	C 	0.64200 0.93270 0.96850 -0.15500
H 	H 	0.54830 0.90330 0.93190 0.08300
C 	C 	0.74640 0.85020 0.02340 0.11200
H 	H 	0.72380 0.76390 0.02430 0.01000
C 	C 	0.88320 0.89490 0.07660 -0.22400
H 	H 	0.95310 0.83840 0.11390 0.12000
C 	C 	0.92010 0.02240 0.07610 0.21400
C 	C 	0.06780 0.07670 0.12980 -0.42300
H 	H 	0.09360 0.14040 0.09510 0.18300
H 	H 	0.14180 0.00910 0.14390 0.15400
C 	C 	0.92780 0.96870 0.46710 0.26500
C 	C 	0.51720 0.93820 0.52730 0.26600
Dy	Dy	0.17842 0.89428 0.39302 1.80100
N 	N 	0.81430 0.10200 0.02140 -0.10600
O 	O 	0.06030 0.04760 0.29190 -0.46000
O 	O 	0.23500 0.21110 0.27090 -0.47000
H 	H 	0.28720 0.17070 0.31470 0.29500
O 	O 	0.95950 0.25190 0.21000 -0.47300
O 	O 	0.84640 0.22490 0.01770 -0.29500
O 	O 	0.81400 0.97940 0.48470 -0.39000
O 	O 	0.93670 0.91360 0.40240 -0.36400
O 	O 	0.42260 0.85120 0.50440 -0.40300
O 	O 	0.64110 0.93520 0.59110 -0.41700
P 	P 	0.07480 0.14983 0.23131 0.58200
C 	C 	0.32100 0.55980 0.53150 0.07800
H 	H 	0.39040 0.61690 0.56840 0.02300
C 	C 	0.35800 0.43270 0.53150 -0.17700
H 	H 	0.45170 0.40330 0.56810 0.09300
C 	C 	0.25360 0.35020 0.47660 0.13700
H 	H 	0.27620 0.26390 0.47570 0.00100
C 	C 	0.11680 0.39490 0.42340 -0.25400
H 	H 	0.04690 0.33840 0.38610 0.13100
C 	C 	0.07990 0.52240 0.42390 0.24100
C 	C 	0.93220 0.57670 0.37020 -0.44500
H 	H 	0.90640 0.64040 0.40490 0.18700
H 	H 	0.85820 0.50910 0.35610 0.15700
C 	C 	0.07220 0.46870 0.03290 0.26400
C 	C 	0.48280 0.43820 0.97270 0.26700
Dy	Dy	0.82158 0.39428 0.10698 1.80900
N 	N 	0.18570 0.60200 0.47860 -0.11200
O 	O 	0.93970 0.54760 0.20810 -0.46500
O 	O 	0.76500 0.71110 0.22910 -0.47100
H 	H 	0.71280 0.67070 0.18530 0.29500
O 	O 	0.04050 0.75190 0.29000 -0.47000
O 	O 	0.15360 0.72490 0.48230 -0.29300
O 	O 	0.18600 0.47940 0.01530 -0.39100
O 	O 	0.06330 0.41360 0.09760 -0.36400
O 	O 	0.57740 0.35120 0.99560 -0.40200
O 	O 	0.35890 0.43520 0.90890 -0.41900
P 	P 	0.92520 0.64983 0.26869 0.58200
C 	C 	0.32100 0.94020 0.03150 0.06500
H 	H 	0.39040 0.88310 0.06840 0.02800
C 	C 	0.35800 0.06730 0.03150 -0.15400
H 	H 	0.45170 0.09670 0.06810 0.08400
C 	C 	0.25360 0.14980 0.97660 0.11200
H 	H 	0.27620 0.23610 0.97570 0.01000
C 	C 	0.11680 0.10510 0.92340 -0.22400
H 	H 	0.04690 0.16160 0.88610 0.12000
C 	C 	0.07990 0.97760 0.92390 0.21400
C 	C 	0.93220 0.92330 0.87020 -0.42300
H 	H 	0.90640 0.85960 0.90490 0.18300
H 	H 	0.85820 0.99090 0.85610 0.15400
C 	C 	0.07220 0.03130 0.53290 0.26500
C 	C 	0.48280 0.06180 0.47270 0.26600
Dy	Dy	0.82158 0.10572 0.60698 1.80100
N 	N 	0.18570 0.89800 0.97860 -0.10600
O 	O 	0.93970 0.95240 0.70810 -0.46000
O 	O 	0.76500 0.78890 0.72910 -0.47000
H 	H 	0.71280 0.82930 0.68530 0.29500
O 	O 	0.04050 0.74810 0.79000 -0.47300
O 	O 	0.15360 0.77510 0.98230 -0.29500
O 	O 	0.18600 0.02060 0.51530 -0.39000
O 	O 	0.06330 0.08640 0.59760 -0.36400
O 	O 	0.57740 0.14880 0.49560 -0.40300
O 	O 	0.35890 0.06480 0.40890 -0.41700
P 	P 	0.92520 0.85017 0.76869 0.58200
C 	C 	0.67900 0.44020 0.46850 0.07800
H 	H 	0.60960 0.38310 0.43160 0.02300
C 	C 	0.64200 0.56730 0.46850 -0.17700
H 	H 	0.54830 0.59670 0.43190 0.09300
C 	C 	0.74640 0.64980 0.52340 0.13700
H 	H 	0.72380 0.73610 0.52430 0.00100
C 	C 	0.88320 0.60510 0.57660 -0.25400
H 	H 	0.95310 0.66160 0.61390 0.13100
C 	C 	0.92010 0.47760 0.57610 0.24100
C 	C 	0.06780 0.42330 0.62980 -0.44500
H 	H 	0.09360 0.35960 0.59510 0.18700
H 	H 	0.14180 0.49090 0.64390 0.15700
C 	C 	0.92780 0.53130 0.96710 0.26400
C 	C 	0.51720 0.56180 0.02730 0.26700
Dy	Dy	0.17842 0.60572 0.89302 1.80900
N 	N 	0.81430 0.39800 0.52140 -0.11200
O 	O 	0.06030 0.45240 0.79190 -0.46500
O 	O 	0.23500 0.28890 0.77090 -0.47100
H 	H 	0.28720 0.32930 0.81470 0.29500
O 	O 	0.95950 0.24810 0.71000 -0.47000
O 	O 	0.84640 0.27510 0.51770 -0.29300
O 	O 	0.81400 0.52060 0.98470 -0.39100
O 	O 	0.93670 0.58640 0.90240 -0.36400
O 	O 	0.42260 0.64880 0.00440 -0.40200
O 	O 	0.64110 0.56480 0.09110 -0.41900
P 	P 	0.07480 0.35017 0.73131 0.58200
