data_crystal

_cell_length_a 9.72160
_cell_length_b 10.42730
_cell_length_c 16.40460
_cell_angle_alpha 90.00000
_cell_angle_beta  112.67800
_cell_angle_gamma 90.00000

_symmetry_space_group_name_	'P 1'
_symmetry_space_group_name_H-M	'P 1'

loop_
_symmetry_equiv_pos_as_xyz
  x,y,z

loop_
_atom_site_label
_atom_site_type_symbol
_atom_site_fract_x
_atom_site_fract_y
_atom_site_fract_z
_atom_site_charge
C 	C 	0.67880 0.06150 0.96760 0.06400
H 	H 	0.60920 0.11840 0.93030 0.02800
C 	C 	0.64300 0.93420 0.96790 -0.15400
H 	H 	0.54940 0.90450 0.93120 0.08600
C 	C 	0.74610 0.85170 0.02260 0.10900
H 	H 	0.72280 0.76540 0.02330 0.01100
C 	C 	0.88420 0.89580 0.07670 -0.21900
H 	H 	0.95390 0.83910 0.11420 0.12000
C 	C 	0.92080 0.02400 0.07600 0.21100
C 	C 	0.06890 0.07900 0.13050 -0.42100
H 	H 	0.09490 0.14300 0.09600 0.18300
H 	H 	0.14320 0.01150 0.14490 0.15400
C 	C 	0.92820 0.96900 0.46700 0.26400
C 	C 	0.51720 0.93750 0.52660 0.26600
Ho	Ho	0.17796 0.89640 0.39293 1.76000
N 	N 	0.81440 0.10440 0.02140 -0.10400
O 	O 	0.06060 0.04970 0.29240 -0.45700
O 	O 	0.23480 0.21380 0.27190 -0.46900
H 	H 	0.28680 0.17370 0.31600 0.29600
O 	O 	0.95820 0.25380 0.20991 -0.46700
O 	O 	0.84730 0.22750 0.01780 -0.28900
O 	O 	0.81400 0.97910 0.48420 -0.38400
O 	O 	0.93680 0.91540 0.40170 -0.35900
O 	O 	0.42170 0.85110 0.50330 -0.39800
O 	O 	0.64160 0.93320 0.59010 -0.41300
P 	P 	0.07448 0.15183 0.23178 0.58100
C 	C 	0.32120 0.56150 0.53240 0.07800
H 	H 	0.39080 0.61840 0.56970 0.02400
C 	C 	0.35700 0.43420 0.53210 -0.17700
H 	H 	0.45060 0.40450 0.56880 0.09400
C 	C 	0.25390 0.35170 0.47740 0.13400
H 	H 	0.27720 0.26540 0.47670 0.00300
C 	C 	0.11580 0.39580 0.42330 -0.24700
H 	H 	0.04610 0.33910 0.38580 0.13000
C 	C 	0.07920 0.52400 0.42400 0.23600
C 	C 	0.93110 0.57900 0.36950 -0.44200
H 	H 	0.90510 0.64300 0.40400 0.18700
H 	H 	0.85680 0.51150 0.35510 0.15700
C 	C 	0.07180 0.46900 0.03300 0.26300
C 	C 	0.48280 0.43750 0.97340 0.26700
Ho	Ho	0.82204 0.39640 0.10707 1.76700
N 	N 	0.18560 0.60440 0.47860 -0.11000
O 	O 	0.93940 0.54970 0.20760 -0.46200
O 	O 	0.76520 0.71380 0.22810 -0.47000
H 	H 	0.71320 0.67370 0.18400 0.29600
O 	O 	0.04180 0.75380 0.29009 -0.46400
O 	O 	0.15270 0.72750 0.48220 -0.28700
O 	O 	0.18600 0.47910 0.01580 -0.38600
O 	O 	0.06320 0.41540 0.09830 -0.35900
O 	O 	0.57830 0.35110 0.99670 -0.39800
O 	O 	0.35840 0.43320 0.90990 -0.41500
P 	P 	0.92552 0.65183 0.26822 0.58100
C 	C 	0.32120 0.93850 0.03240 0.06500
H 	H 	0.39080 0.88160 0.06970 0.02900
C 	C 	0.35700 0.06580 0.03210 -0.15400
H 	H 	0.45060 0.09550 0.06880 0.08600
C 	C 	0.25390 0.14830 0.97740 0.10900
H 	H 	0.27720 0.23460 0.97670 0.01100
C 	C 	0.11580 0.10420 0.92330 -0.21900
H 	H 	0.04610 0.16090 0.88580 0.12000
C 	C 	0.07920 0.97600 0.92400 0.21100
C 	C 	0.93110 0.92100 0.86950 -0.42100
H 	H 	0.90510 0.85700 0.90400 0.18300
H 	H 	0.85680 0.98850 0.85510 0.15400
C 	C 	0.07180 0.03100 0.53300 0.26400
C 	C 	0.48280 0.06250 0.47340 0.26600
Ho	Ho	0.82204 0.10360 0.60707 1.76000
N 	N 	0.18560 0.89560 0.97860 -0.10400
O 	O 	0.93940 0.95030 0.70760 -0.45700
O 	O 	0.76520 0.78620 0.72810 -0.46900
H 	H 	0.71320 0.82630 0.68400 0.29600
O 	O 	0.04180 0.74620 0.79009 -0.46700
O 	O 	0.15270 0.77250 0.98220 -0.28900
O 	O 	0.18600 0.02090 0.51580 -0.38400
O 	O 	0.06320 0.08460 0.59830 -0.35900
O 	O 	0.57830 0.14890 0.49670 -0.39800
O 	O 	0.35840 0.06680 0.40990 -0.41300
P 	P 	0.92552 0.84817 0.76822 0.58100
C 	C 	0.67880 0.43850 0.46760 0.07800
H 	H 	0.60920 0.38160 0.43030 0.02400
C 	C 	0.64300 0.56580 0.46790 -0.17700
H 	H 	0.54940 0.59550 0.43120 0.09400
C 	C 	0.74610 0.64830 0.52260 0.13400
H 	H 	0.72280 0.73460 0.52330 0.00300
C 	C 	0.88420 0.60420 0.57670 -0.24700
H 	H 	0.95390 0.66090 0.61420 0.13000
C 	C 	0.92080 0.47600 0.57600 0.23600
C 	C 	0.06890 0.42100 0.63050 -0.44200
H 	H 	0.09490 0.35700 0.59600 0.18700
H 	H 	0.14320 0.48850 0.64490 0.15700
C 	C 	0.92820 0.53100 0.96700 0.26300
C 	C 	0.51720 0.56250 0.02660 0.26700
Ho	Ho	0.17796 0.60360 0.89293 1.76700
N 	N 	0.81440 0.39560 0.52140 -0.11000
O 	O 	0.06060 0.45030 0.79240 -0.46200
O 	O 	0.23480 0.28620 0.77190 -0.47000
H 	H 	0.28680 0.32630 0.81600 0.29600
O 	O 	0.95820 0.24620 0.70991 -0.46400
O 	O 	0.84730 0.27250 0.51780 -0.28700
O 	O 	0.81400 0.52090 0.98420 -0.38600
O 	O 	0.93680 0.58460 0.90170 -0.35900
O 	O 	0.42170 0.64890 0.00330 -0.39800
O 	O 	0.64160 0.56680 0.09010 -0.41500
P 	P 	0.07448 0.34817 0.73178 0.58100
