data_crystal

_cell_length_a 9.89350
_cell_length_b 11.01960
_cell_length_c 12.57750
_cell_angle_alpha 90.00000
_cell_angle_beta  106.43200
_cell_angle_gamma 90.00000

_symmetry_space_group_name_	'P 1'
_symmetry_space_group_name_H-M	'P 1'

loop_
_symmetry_equiv_pos_as_xyz
  x,y,z

loop_
_atom_site_label
_atom_site_type_symbol
_atom_site_fract_x
_atom_site_fract_y
_atom_site_fract_z
_atom_site_charge
Cu	Cu	0.92240 0.43220 0.42680 0.81100
N 	N 	0.95370 0.46200 0.26850 -0.23000
C 	C 	0.10310 0.37290 0.52160 -0.31900
C 	C 	0.74170 0.35230 0.38550 -0.19000
N 	N 	0.63910 0.30420 0.34300 -0.06200
C 	C 	0.99090 0.49140 0.05460 0.04700
C 	C 	0.90320 0.40150 0.07970 -0.11500
C 	C 	0.88850 0.39150 0.18260 0.06600
N 	N 	0.19410 0.31120 0.55730 -0.04100
C 	C 	0.05680 0.56710 0.14430 -0.11600
C 	C 	0.03750 0.54640 0.24710 0.07000
H 	H 	0.85523 0.34593 0.02265 0.05800
H 	H 	0.82463 0.33058 0.19399 -0.00500
H 	H 	0.11468 0.63280 0.13250 0.05700
H 	H 	0.09082 0.59776 0.30573 -0.02700
Cu	Cu	0.07760 0.56780 0.57320 0.81100
N 	N 	0.04630 0.53800 0.73150 -0.23000
C 	C 	0.89690 0.62710 0.47840 -0.31900
C 	C 	0.25830 0.64770 0.61450 -0.19000
N 	N 	0.36090 0.69580 0.65700 -0.06200
C 	C 	0.00910 0.50860 0.94540 0.04700
C 	C 	0.09680 0.59850 0.92030 -0.11500
C 	C 	0.11150 0.60850 0.81740 0.06600
N 	N 	0.80590 0.68880 0.44270 -0.04100
C 	C 	0.94320 0.43290 0.85570 -0.11600
C 	C 	0.96250 0.45360 0.75290 0.07000
H 	H 	0.14477 0.65407 0.97735 0.05800
H 	H 	0.17537 0.66942 0.80601 -0.00500
H 	H 	0.88532 0.36720 0.86750 0.05700
H 	H 	0.90918 0.40224 0.69427 -0.02700
Cu	Cu	0.07760 0.93220 0.07320 0.80800
N 	N 	0.04630 0.96200 0.23150 -0.23300
C 	C 	0.89690 0.87290 0.97840 -0.31500
C 	C 	0.25830 0.85230 0.11450 -0.19200
N 	N 	0.36090 0.80420 0.15700 -0.06200
C 	C 	0.00910 0.99140 0.44540 0.04400
C 	C 	0.09680 0.90150 0.42030 -0.11500
C 	C 	0.11150 0.89150 0.31740 0.06500
N 	N 	0.80590 0.81120 0.94270 -0.04200
C 	C 	0.94320 0.06710 0.35570 -0.11500
C 	C 	0.96250 0.04640 0.25290 0.07100
H 	H 	0.14477 0.84593 0.47735 0.05700
H 	H 	0.17537 0.83058 0.30601 -0.00500
H 	H 	0.88532 0.13280 0.36750 0.05700
H 	H 	0.90918 0.09776 0.19427 -0.02700
Cu	Cu	0.92240 0.06780 0.92680 0.80800
N 	N 	0.95370 0.03800 0.76850 -0.23300
C 	C 	0.10310 0.12710 0.02160 -0.31500
C 	C 	0.74170 0.14770 0.88550 -0.19200
N 	N 	0.63910 0.19580 0.84300 -0.06200
C 	C 	0.99090 0.00860 0.55460 0.04400
C 	C 	0.90320 0.09850 0.57970 -0.11500
C 	C 	0.88850 0.10850 0.68260 0.06500
N 	N 	0.19410 0.18880 0.05730 -0.04200
C 	C 	0.05680 0.93290 0.64430 -0.11500
C 	C 	0.03750 0.95360 0.74710 0.07100
H 	H 	0.85523 0.15407 0.52265 0.05700
H 	H 	0.82463 0.16942 0.69399 -0.00500
H 	H 	0.11468 0.86720 0.63250 0.05700
H 	H 	0.09082 0.90224 0.80573 -0.02700
