data_crystal

_cell_length_a 13.60810
_cell_length_b 9.94870
_cell_length_c 9.42870
_cell_angle_alpha 90.00000
_cell_angle_beta  90.00000
_cell_angle_gamma 90.00000

_symmetry_space_group_name_	'P 1'
_symmetry_space_group_name_H-M	'P 1'

loop_
_symmetry_equiv_pos_as_xyz
  x,y,z

loop_
_atom_site_label
_atom_site_type_symbol
_atom_site_fract_x
_atom_site_fract_y
_atom_site_fract_z
_atom_site_charge
C 	C 	0.06590 0.24700 0.24930 -0.08200
H 	H 	0.11360 0.24610 0.17860 -0.01000
C 	C 	0.06500 0.34940 0.34670 -0.08100
H 	H 	0.11210 0.41690 0.34110 0.01200
C 	C 	0.92940 0.25750 0.45390 0.00800
H 	H 	0.88080 0.25860 0.52320 -0.00100
C 	C 	0.93030 0.15280 0.35350 0.01200
H 	H 	0.88190 0.08680 0.35730 -0.02400
N 	N 	0.99800 0.14640 0.25470 -0.17500
N 	N 	0.99560 0.35370 0.45220 -0.15600
C 	C 	0.93410 0.75300 0.24930 0.06500
H 	H 	0.88640 0.75390 0.17860 -0.00700
C 	C 	0.93500 0.65060 0.34670 0.05700
H 	H 	0.88790 0.58310 0.34110 -0.00600
C 	C 	0.07060 0.74250 0.45390 -0.00400
H 	H 	0.11920 0.74140 0.52320 0.00700
C 	C 	0.06970 0.84720 0.35350 -0.00300
H 	H 	0.11810 0.91320 0.35730 0.02800
N 	N 	0.00200 0.85360 0.25470 -0.23400
N 	N 	0.00440 0.64630 0.45220 -0.25900
C 	C 	0.06590 0.25300 0.74930 -0.08500
H 	H 	0.11360 0.25390 0.67860 0.00700
C 	C 	0.06500 0.15060 0.84670 -0.06500
H 	H 	0.11210 0.08310 0.84110 -0.00900
C 	C 	0.92940 0.24250 0.95390 0.16500
H 	H 	0.88080 0.24140 0.02320 -0.10100
C 	C 	0.93030 0.34720 0.85350 -0.05000
H 	H 	0.88190 0.41320 0.85730 0.04100
N 	N 	0.99800 0.35360 0.75470 -0.14100
N 	N 	0.99560 0.14630 0.95220 -0.17900
C 	C 	0.93410 0.74700 0.74930 0.06500
H 	H 	0.88640 0.74610 0.67860 0.00700
C 	C 	0.93500 0.84940 0.84670 0.07100
H 	H 	0.88790 0.91690 0.84110 0.03600
C 	C 	0.07060 0.75750 0.95390 0.14400
H 	H 	0.11920 0.75860 0.02320 -0.08500
C 	C 	0.06970 0.65280 0.85350 -0.06400
H 	H 	0.11810 0.58680 0.85730 0.02800
N 	N 	0.00200 0.64640 0.75470 -0.24500
N 	N 	0.00440 0.85370 0.95220 -0.23300
Cu	Cu	-0.00000 0.00000 0.10341 0.73200
Cu	Cu	-0.00000 0.50000 0.60341 0.80900
C 	C 	0.56590 0.74700 0.74930 -0.00100
H 	H 	0.61360 0.74610 0.67860 0.01600
C 	C 	0.56500 0.84940 0.84670 0.01600
H 	H 	0.61210 0.91690 0.84110 0.04400
C 	C 	0.42940 0.75750 0.95390 0.15600
H 	H 	0.38080 0.75860 0.02320 -0.08300
C 	C 	0.43030 0.65280 0.85350 -0.05000
H 	H 	0.38190 0.58680 0.85730 0.03200
N 	N 	0.49800 0.64640 0.75470 -0.19900
N 	N 	0.49560 0.85370 0.95220 -0.19000
C 	C 	0.43410 0.25300 0.74930 -0.01800
H 	H 	0.38640 0.25390 0.67860 -0.00400
C 	C 	0.43500 0.15060 0.84670 -0.00200
H 	H 	0.38790 0.08310 0.84110 -0.02100
C 	C 	0.57060 0.24250 0.95390 0.15500
H 	H 	0.61920 0.24140 0.02320 -0.10700
C 	C 	0.56970 0.34720 0.85350 -0.06600
H 	H 	0.61810 0.41320 0.85730 0.03700
N 	N 	0.50200 0.35360 0.75470 -0.19900
N 	N 	0.50440 0.14630 0.95220 -0.23700
C 	C 	0.56590 0.75300 0.24930 0.00200
H 	H 	0.61360 0.75390 0.17860 0.00100
C 	C 	0.56500 0.65060 0.34670 -0.00600
H 	H 	0.61210 0.58310 0.34110 0.00400
C 	C 	0.42940 0.74250 0.45390 0.01000
H 	H 	0.38080 0.74140 0.52320 0.00800
C 	C 	0.43030 0.84720 0.35350 0.01200
H 	H 	0.38190 0.91320 0.35730 0.03000
N 	N 	0.49800 0.85360 0.25470 -0.18800
N 	N 	0.49560 0.64630 0.45220 -0.21200
C 	C 	0.43410 0.24700 0.24930 -0.01200
H 	H 	0.38640 0.24610 0.17860 -0.02400
C 	C 	0.43500 0.34940 0.34670 -0.01800
H 	H 	0.38790 0.41690 0.34110 0.00000
C 	C 	0.57060 0.25750 0.45390 -0.00800
H 	H 	0.61920 0.25860 0.52320 -0.00400
C 	C 	0.56970 0.15280 0.35350 -0.00300
H 	H 	0.61810 0.08680 0.35730 -0.03100
N 	N 	0.50200 0.14640 0.25470 -0.23600
N 	N 	0.50440 0.35370 0.45220 -0.21200
Cu	Cu	0.50000 0.50000 0.60341 0.84400
Cu	Cu	0.50000 0.00000 0.10341 0.76900
