data_crystal

_cell_length_a 46.05750
_cell_length_b 20.94420
_cell_length_c 14.10010
_cell_angle_alpha 90.00000
_cell_angle_beta  90.00000
_cell_angle_gamma 90.00000

_symmetry_space_group_name_	'P 1'
_symmetry_space_group_name_H-M	'P 1'

loop_
_symmetry_equiv_pos_as_xyz
  x,y,z

loop_
_atom_site_label
_atom_site_type_symbol
_atom_site_fract_x
_atom_site_fract_y
_atom_site_fract_z
_atom_site_charge
O 	O 	0.19061 0.06703 0.09637 -0.43000
O 	O 	0.19034 0.06561 0.89886 -0.37100
O 	O 	0.14191 0.06296 0.09982 -0.42200
O 	O 	0.14211 0.06975 0.90767 -0.38400
C 	C 	0.16677 0.08601 0.12360 0.34900
C 	C 	0.16570 0.08736 0.87670 0.34800
C 	C 	0.16555 0.14021 0.19180 -0.07100
C 	C 	0.16574 0.14418 0.81090 -0.03300
C 	C 	0.18851 0.15495 0.24800 0.01100
C 	C 	0.13964 0.17595 0.19720 -0.06300
C 	C 	0.18909 0.15547 0.74740 -0.01200
C 	C 	0.14249 0.18455 0.81080 -0.08200
C 	C 	0.18740 0.20898 0.30890 -0.06800
H 	H 	0.20510 0.12950 0.24670 0.04900
C 	C 	0.13884 0.22832 0.25590 0.08100
H 	H 	0.12340 0.16430 0.16180 0.07200
H 	H 	0.20480 0.12760 0.74600 0.06500
C 	C 	0.18860 0.20665 0.68880 -0.03500
H 	H 	0.12660 0.17650 0.84990 0.08900
C 	C 	0.14264 0.23842 0.75140 0.11300
C 	C 	0.21192 0.22402 0.37300 0.35900
C 	C 	0.16266 0.24491 0.31290 -0.06000
N 	N 	0.11240 0.26577 0.25780 -0.08900
C 	C 	0.21294 0.22190 0.62000 0.34300
C 	C 	0.16536 0.25109 0.69280 -0.08600
N 	N 	0.11951 0.28306 0.75340 -0.09300
O 	O 	0.22871 0.17955 0.39562 -0.40500
O 	O 	0.21337 0.28020 0.40255 -0.41000
H 	H 	0.16160 0.28010 0.35300 0.07100
N 	N 	0.09311 0.26310 0.18870 -0.05600
C 	C 	0.10289 0.30195 0.32960 -0.01500
O 	O 	0.22839 0.17609 0.59306 -0.39900
O 	O 	0.21538 0.27936 0.59553 -0.40000
H 	H 	0.16570 0.28800 0.65620 0.09300
C 	C 	0.10232 0.29937 0.82710 -0.00100
N 	N 	0.11492 0.32390 0.68050 -0.04500
Cu	Cu	0.25846 0.18946 0.49657 0.90200
N 	N 	0.07085 0.29779 0.21430 -0.08900
H 	H 	0.11250 0.31160 0.38580 0.04400
C 	C 	0.07597 0.32160 0.30220 0.05800
H 	H 	0.10180 0.28040 0.88670 0.05200
C 	C 	0.08568 0.35014 0.79540 0.05000
N 	N 	0.09383 0.36235 0.70400 -0.07800
C 	C 	0.05614 0.36595 0.35090 -0.00800
C 	C 	0.06297 0.38649 0.84530 0.03300
C 	C 	0.03003 0.38689 0.30895 -0.02100
C 	C 	0.06190 0.38540 0.44100 -0.02500
C 	C 	0.05343 0.36787 0.93200 -0.09700
C 	C 	0.05266 0.44319 0.80780 -0.03300
H 	H 	0.02460 0.37130 0.24980 0.04300
C 	C 	0.01250 0.43023 0.35480 -0.09500
C 	C 	0.04429 0.42929 0.48830 -0.08500
H 	H 	0.07810 0.36890 0.47210 0.05000
H 	H 	0.06080 0.33080 0.95920 0.09200
C 	C 	0.03278 0.40356 0.98090 0.05300
H 	H 	0.05970 0.45780 0.75000 0.05400
C 	C 	0.03222 0.47779 0.85511 -0.09700
H 	H 	0.99550 0.44380 0.32520 0.06400
C 	C 	0.01919 0.45409 0.44269 0.06300
H 	H 	0.04900 0.44230 0.54950 0.06900
H 	H 	0.02680 0.39050 0.04090 -0.02300
C 	C 	0.02096 0.45829 0.94126 0.10200
H 	H 	0.02560 0.51580 0.82860 0.07100
O 	O 	0.69061 0.56703 0.09637 -0.42200
O 	O 	0.69034 0.56561 0.89886 -0.36400
O 	O 	0.64191 0.56296 0.09982 -0.41300
O 	O 	0.64211 0.56975 0.90767 -0.37600
C 	C 	0.66677 0.58601 0.12360 0.34800
C 	C 	0.66570 0.58736 0.87670 0.34800
C 	C 	0.66555 0.64021 0.19180 -0.06400
C 	C 	0.66574 0.64418 0.81090 -0.02700
C 	C 	0.68851 0.65495 0.24800 0.00800
C 	C 	0.63964 0.67595 0.19720 -0.06500
C 	C 	0.68909 0.65547 0.74740 -0.01500
C 	C 	0.64249 0.68455 0.81080 -0.08500
C 	C 	0.68740 0.70898 0.30890 -0.06200
H 	H 	0.70510 0.62950 0.24670 0.05400
C 	C 	0.63884 0.72832 0.25590 0.08600
H 	H 	0.62340 0.66430 0.16180 0.07500
H 	H 	0.70480 0.62760 0.74600 0.07000
C 	C 	0.68860 0.70665 0.68880 -0.03000
H 	H 	0.62660 0.67650 0.84990 0.09200
C 	C 	0.64264 0.73842 0.75140 0.11800
C 	C 	0.71192 0.72402 0.37300 0.35700
C 	C 	0.66266 0.74491 0.31290 -0.06300
N 	N 	0.61240 0.76577 0.25780 -0.08700
C 	C 	0.71294 0.72190 0.62000 0.34100
C 	C 	0.66536 0.75109 0.69280 -0.08900
N 	N 	0.61951 0.78306 0.75340 -0.09300
O 	O 	0.72871 0.67955 0.39562 -0.40100
O 	O 	0.71337 0.78020 0.40255 -0.40600
H 	H 	0.66160 0.78010 0.35300 0.07400
N 	N 	0.59311 0.76310 0.18870 -0.05400
C 	C 	0.60289 0.80195 0.32960 -0.01800
O 	O 	0.72839 0.67609 0.59306 -0.39400
O 	O 	0.71538 0.77936 0.59553 -0.39700
H 	H 	0.66570 0.78800 0.65620 0.09600
C 	C 	0.60232 0.79937 0.82710 0.00400
N 	N 	0.61492 0.82390 0.68050 -0.04300
Cu	Cu	0.75846 0.68946 0.49657 0.90400
N 	N 	0.57085 0.79779 0.21430 -0.08800
H 	H 	0.61250 0.81160 0.38580 0.04800
C 	C 	0.57597 0.82160 0.30220 0.06900
H 	H 	0.60180 0.78040 0.88670 0.05200
C 	C 	0.58568 0.85014 0.79540 0.04700
N 	N 	0.59383 0.86235 0.70400 -0.07500
C 	C 	0.55614 0.86595 0.35090 -0.02700
C 	C 	0.56297 0.88649 0.84530 0.04700
C 	C 	0.53003 0.88689 0.30895 0.01200
C 	C 	0.56190 0.88540 0.44100 0.00700
C 	C 	0.55343 0.86787 0.93200 -0.09800
C 	C 	0.55266 0.94319 0.80780 -0.06500
H 	H 	0.52460 0.87130 0.24980 0.03200
C 	C 	0.51250 0.93023 0.35480 -0.13800
C 	C 	0.54429 0.92929 0.48830 -0.12100
H 	H 	0.57810 0.86890 0.47210 0.04200
H 	H 	0.56080 0.83080 0.95920 0.09400
C 	C 	0.53278 0.90356 0.98090 0.04300
H 	H 	0.55970 0.95780 0.75000 0.07300
C 	C 	0.53222 0.97779 0.85511 -0.03500
H 	H 	0.49550 0.94380 0.32520 0.08600
C 	C 	0.51919 0.95409 0.44269 0.12900
H 	H 	0.54900 0.94230 0.54950 0.08900
H 	H 	0.52680 0.89050 0.04090 -0.01500
C 	C 	0.52096 0.95829 0.94126 0.12400
H 	H 	0.52560 0.01580 0.82860 0.02900
O 	O 	0.80939 0.93297 0.09637 -0.40600
O 	O 	0.80966 0.93439 0.89886 -0.34900
O 	O 	0.85809 0.93704 0.09982 -0.39500
O 	O 	0.85789 0.93025 0.90767 -0.36200
C 	C 	0.83323 0.91399 0.12360 0.34400
C 	C 	0.83430 0.91264 0.87670 0.34400
C 	C 	0.83445 0.85979 0.19180 -0.05700
C 	C 	0.83426 0.85582 0.81090 -0.02200
C 	C 	0.81149 0.84505 0.24800 0.00500
C 	C 	0.86036 0.82405 0.19720 -0.06800
C 	C 	0.81091 0.84453 0.74740 -0.01700
C 	C 	0.85751 0.81545 0.81080 -0.08700
C 	C 	0.81260 0.79102 0.30890 -0.06000
H 	H 	0.79490 0.87050 0.24670 0.05900
C 	C 	0.86116 0.77168 0.25590 0.08800
H 	H 	0.87660 0.83570 0.16180 0.07900
H 	H 	0.79520 0.87240 0.74600 0.07400
C 	C 	0.81140 0.79335 0.68880 -0.02700
H 	H 	0.87340 0.82350 0.84990 0.09500
C 	C 	0.85736 0.76158 0.75140 0.11900
C 	C 	0.78808 0.77598 0.37300 0.35600
C 	C 	0.83734 0.75509 0.31290 -0.06400
N 	N 	0.88760 0.73423 0.25780 -0.08800
C 	C 	0.78706 0.77810 0.62000 0.34100
C 	C 	0.83464 0.74891 0.69280 -0.09000
N 	N 	0.88049 0.71694 0.75340 -0.09200
O 	O 	0.77129 0.82045 0.39562 -0.39700
O 	O 	0.78663 0.71980 0.40255 -0.40900
H 	H 	0.83840 0.71990 0.35300 0.07300
N 	N 	0.90689 0.73690 0.18870 -0.05300
C 	C 	0.89711 0.69805 0.32960 -0.01300
O 	O 	0.77161 0.82391 0.59306 -0.39000
O 	O 	0.78462 0.72064 0.59553 -0.39900
H 	H 	0.83430 0.71200 0.65620 0.09500
C 	C 	0.89768 0.70063 0.82710 0.00100
N 	N 	0.88508 0.67610 0.68050 -0.04400
Cu	Cu	0.74154 0.81054 0.49657 0.90600
N 	N 	0.92915 0.70221 0.21430 -0.08700
H 	H 	0.88750 0.68840 0.38580 0.04500
C 	C 	0.92403 0.67840 0.30220 0.06000
H 	H 	0.89820 0.71960 0.88670 0.05300
C 	C 	0.91432 0.64986 0.79540 0.05100
N 	N 	0.90617 0.63765 0.70400 -0.07800
C 	C 	0.94386 0.63405 0.35090 -0.00700
C 	C 	0.93703 0.61351 0.84530 0.03300
C 	C 	0.96997 0.61311 0.30895 -0.02000
C 	C 	0.93810 0.61460 0.44100 -0.02500
C 	C 	0.94657 0.63213 0.93200 -0.09500
C 	C 	0.94734 0.55681 0.80780 -0.03300
H 	H 	0.97540 0.62870 0.24980 0.04400
C 	C 	0.98750 0.56977 0.35480 -0.09600
C 	C 	0.95571 0.57071 0.48830 -0.08500
H 	H 	0.92190 0.63110 0.47210 0.05100
H 	H 	0.93920 0.66920 0.95920 0.09400
C 	C 	0.96722 0.59644 0.98090 0.05100
H 	H 	0.94030 0.54220 0.75000 0.05400
C 	C 	0.96778 0.52221 0.85511 -0.09700
H 	H 	0.00450 0.55620 0.32520 0.06600
C 	C 	0.98081 0.54591 0.44269 0.06300
H 	H 	0.95100 0.55770 0.54950 0.06900
H 	H 	0.97320 0.60950 0.04090 -0.02100
C 	C 	0.97904 0.54171 0.94126 0.10200
H 	H 	0.97440 0.48420 0.82860 0.07100
O 	O 	0.30939 0.43297 0.09637 -0.42300
O 	O 	0.30966 0.43439 0.89886 -0.36400
O 	O 	0.35809 0.43704 0.09982 -0.41300
O 	O 	0.35789 0.43025 0.90767 -0.37600
C 	C 	0.33323 0.41399 0.12360 0.34800
C 	C 	0.33430 0.41264 0.87670 0.34800
C 	C 	0.33445 0.35979 0.19180 -0.06600
C 	C 	0.33426 0.35582 0.81090 -0.02900
C 	C 	0.31149 0.34505 0.24800 0.00900
C 	C 	0.36036 0.32405 0.19720 -0.06400
C 	C 	0.31091 0.34453 0.74740 -0.01300
C 	C 	0.35751 0.31545 0.81080 -0.08300
C 	C 	0.31260 0.29102 0.30890 -0.06600
H 	H 	0.29490 0.37050 0.24670 0.05300
C 	C 	0.36116 0.27168 0.25590 0.08200
H 	H 	0.37660 0.33570 0.16180 0.07400
H 	H 	0.29520 0.37240 0.74600 0.06900
C 	C 	0.31140 0.29335 0.68880 -0.03300
H 	H 	0.37340 0.32350 0.84990 0.09100
C 	C 	0.35736 0.26158 0.75140 0.11400
C 	C 	0.28808 0.27598 0.37300 0.35900
C 	C 	0.33734 0.25509 0.31290 -0.06100
N 	N 	0.38760 0.23423 0.25780 -0.08900
C 	C 	0.28706 0.27810 0.62000 0.34300
C 	C 	0.33464 0.24891 0.69280 -0.08700
N 	N 	0.38049 0.21694 0.75340 -0.09100
O 	O 	0.27129 0.32045 0.39562 -0.40200
O 	O 	0.28663 0.21980 0.40255 -0.41200
H 	H 	0.33840 0.21990 0.35300 0.06900
N 	N 	0.40689 0.23690 0.18870 -0.05600
C 	C 	0.39711 0.19805 0.32960 -0.01800
O 	O 	0.27161 0.32391 0.59306 -0.39500
O 	O 	0.28462 0.22064 0.59553 -0.40200
H 	H 	0.33430 0.21200 0.65620 0.09100
C 	C 	0.39768 0.20063 0.82710 -0.01100
N 	N 	0.38508 0.17610 0.68050 -0.04600
Cu	Cu	0.24154 0.31054 0.49657 0.90400
N 	N 	0.42915 0.20221 0.21430 -0.08900
H 	H 	0.38750 0.18840 0.38580 0.04400
C 	C 	0.42403 0.17840 0.30220 0.06100
H 	H 	0.39820 0.21960 0.88670 0.05700
C 	C 	0.41432 0.14986 0.79540 0.06800
N 	N 	0.40617 0.13765 0.70400 -0.08300
C 	C 	0.44386 0.13405 0.35090 -0.01900
C 	C 	0.43703 0.11351 0.84530 -0.02200
C 	C 	0.46997 0.11311 0.30895 -0.01000
C 	C 	0.43810 0.11460 0.44100 -0.01500
C 	C 	0.44657 0.13213 0.93200 -0.04200
C 	C 	0.44734 0.05681 0.80780 0.05300
H 	H 	0.47540 0.12870 0.24980 0.03900
C 	C 	0.48750 0.06977 0.35480 -0.11700
C 	C 	0.45571 0.07071 0.48830 -0.10500
H 	H 	0.42190 0.13110 0.47210 0.04400
H 	H 	0.43920 0.16920 0.95920 0.07400
C 	C 	0.46722 0.09644 0.98090 -0.00900
H 	H 	0.44030 0.04220 0.75000 0.01600
C 	C 	0.46778 0.02221 0.85511 -0.23000
H 	H 	0.50450 0.05620 0.32520 0.06600
C 	C 	0.48081 0.04591 0.44269 0.08100
H 	H 	0.45100 0.05770 0.54950 0.07000
H 	H 	0.47320 0.10950 0.04090 -0.00300
C 	C 	0.47904 0.04171 0.94126 0.17200
H 	H 	0.47440 0.98420 0.82860 0.13900
O 	O 	0.80939 0.06703 0.90363 -0.38100
O 	O 	0.80966 0.06561 0.10114 -0.42000
O 	O 	0.85809 0.06296 0.90018 -0.37500
O 	O 	0.85789 0.06975 0.09233 -0.43400
C 	C 	0.83323 0.08601 0.87640 0.34300
C 	C 	0.83430 0.08736 0.12330 0.35800
C 	C 	0.83445 0.14021 0.80820 -0.04400
C 	C 	0.83426 0.14418 0.18910 -0.06000
C 	C 	0.81149 0.15495 0.75200 0.00100
C 	C 	0.86036 0.17595 0.80280 -0.07200
C 	C 	0.81091 0.15547 0.25260 -0.00300
C 	C 	0.85751 0.18455 0.18920 -0.07200
C 	C 	0.81260 0.20898 0.69110 -0.05200
H 	H 	0.79490 0.12950 0.75330 0.06100
C 	C 	0.86116 0.22832 0.74410 0.10100
H 	H 	0.87660 0.16430 0.83820 0.09500
H 	H 	0.79520 0.12760 0.25400 0.05300
C 	C 	0.81140 0.20665 0.31120 -0.04900
H 	H 	0.87340 0.17650 0.15010 0.06800
C 	C 	0.85736 0.23842 0.24860 0.09500
C 	C 	0.78808 0.22402 0.62700 0.35700
C 	C 	0.83734 0.24491 0.68710 -0.06800
N 	N 	0.88760 0.26577 0.74220 -0.08700
C 	C 	0.78706 0.22190 0.38000 0.34400
C 	C 	0.83464 0.25109 0.30720 -0.08000
N 	N 	0.88049 0.28306 0.24660 -0.09000
O 	O 	0.77129 0.17955 0.60438 -0.40000
O 	O 	0.78663 0.28020 0.59745 -0.40400
H 	H 	0.83840 0.28010 0.64700 0.07700
N 	N 	0.90689 0.26310 0.81130 -0.03400
C 	C 	0.89711 0.30195 0.67040 -0.00900
O 	O 	0.77161 0.17609 0.40694 -0.40300
O 	O 	0.78462 0.27936 0.40447 -0.40500
H 	H 	0.83430 0.28800 0.34380 0.08700
C 	C 	0.89768 0.29937 0.17290 -0.03300
N 	N 	0.88508 0.32390 0.31950 -0.04800
Cu	Cu	0.74154 0.18946 0.50343 0.90200
N 	N 	0.92915 0.29779 0.78570 -0.07400
H 	H 	0.88750 0.31160 0.61420 0.04400
C 	C 	0.92403 0.32160 0.69780 0.06100
H 	H 	0.89820 0.28040 0.11330 0.04100
C 	C 	0.91432 0.35014 0.20460 0.09200
N 	N 	0.90617 0.36235 0.29600 -0.08800
C 	C 	0.94386 0.36595 0.64910 -0.00200
C 	C 	0.93703 0.38649 0.15470 -0.11700
C 	C 	0.96997 0.38689 0.69105 -0.02100
C 	C 	0.93810 0.38540 0.55900 -0.02700
C 	C 	0.94657 0.36787 0.06800 0.14400
C 	C 	0.94734 0.44319 0.19220 0.09300
H 	H 	0.97540 0.37130 0.75020 0.04900
C 	C 	0.98750 0.43023 0.64520 -0.09400
C 	C 	0.95571 0.42929 0.51170 -0.08400
H 	H 	0.92190 0.36890 0.52790 0.05100
H 	H 	0.93920 0.33080 0.04080 -0.03000
C 	C 	0.96722 0.40356 0.01910 -0.35800
H 	H 	0.94030 0.45780 0.25000 0.00600
C 	C 	0.96778 0.47779 0.14489 -0.22700
H 	H 	0.00450 0.44380 0.67480 0.06500
C 	C 	0.98081 0.45409 0.55731 0.06200
H 	H 	0.95100 0.44230 0.45050 0.06800
H 	H 	0.97320 0.39050 0.95910 0.20600
C 	C 	0.97904 0.45829 0.05874 0.20500
H 	H 	0.97440 0.51580 0.17140 0.10700
O 	O 	0.30939 0.56703 0.90363 -0.37300
O 	O 	0.30966 0.56561 0.10114 -0.41100
O 	O 	0.35809 0.56296 0.90018 -0.36700
O 	O 	0.35789 0.56975 0.09233 -0.42500
C 	C 	0.33323 0.58601 0.87640 0.34200
C 	C 	0.33430 0.58736 0.12330 0.35700
C 	C 	0.33445 0.64021 0.80820 -0.03800
C 	C 	0.33426 0.64418 0.18910 -0.05300
C 	C 	0.31149 0.65495 0.75200 -0.00200
C 	C 	0.36036 0.67595 0.80280 -0.07400
C 	C 	0.31091 0.65547 0.25260 -0.00600
C 	C 	0.35751 0.68455 0.18920 -0.07500
C 	C 	0.31260 0.70898 0.69110 -0.04700
H 	H 	0.29490 0.62950 0.75330 0.06600
C 	C 	0.36116 0.72832 0.74410 0.10500
H 	H 	0.37660 0.66430 0.83820 0.09800
H 	H 	0.29520 0.62760 0.25400 0.05900
C 	C 	0.31140 0.70665 0.31120 -0.04300
H 	H 	0.37340 0.67650 0.15010 0.07100
C 	C 	0.35736 0.73842 0.24860 0.10000
C 	C 	0.28808 0.72402 0.62700 0.35500
C 	C 	0.33734 0.74491 0.68710 -0.07000
N 	N 	0.38760 0.76577 0.74220 -0.08600
C 	C 	0.28706 0.72190 0.38000 0.34200
C 	C 	0.33464 0.75109 0.30720 -0.08200
N 	N 	0.38049 0.78306 0.24660 -0.09100
O 	O 	0.27129 0.67955 0.60438 -0.39600
O 	O 	0.28663 0.78020 0.59745 -0.40100
H 	H 	0.33840 0.78010 0.64700 0.08000
N 	N 	0.40689 0.76310 0.81130 -0.03300
C 	C 	0.39711 0.80195 0.67040 -0.01200
O 	O 	0.27161 0.67609 0.40694 -0.39800
O 	O 	0.28462 0.77936 0.40447 -0.40200
H 	H 	0.33430 0.78800 0.34380 0.09000
C 	C 	0.39768 0.79937 0.17290 -0.02700
N 	N 	0.38508 0.82390 0.31950 -0.04500
Cu	Cu	0.24154 0.68946 0.50343 0.90400
N 	N 	0.42915 0.79779 0.78570 -0.07400
H 	H 	0.38750 0.81160 0.61420 0.04700
C 	C 	0.42403 0.82160 0.69780 0.07100
H 	H 	0.39820 0.78040 0.11330 0.04100
C 	C 	0.41432 0.85014 0.20460 0.08700
N 	N 	0.40617 0.86235 0.29600 -0.08400
C 	C 	0.44386 0.86595 0.64910 -0.02100
C 	C 	0.43703 0.88649 0.15470 -0.09400
C 	C 	0.46997 0.88689 0.69105 0.01100
C 	C 	0.43810 0.88540 0.55900 0.00400
C 	C 	0.44657 0.86787 0.06800 0.13200
C 	C 	0.44734 0.94319 0.19220 0.05200
H 	H 	0.47540 0.87130 0.75020 0.03800
C 	C 	0.48750 0.93023 0.64520 -0.13500
C 	C 	0.45571 0.92929 0.51170 -0.11900
H 	H 	0.42190 0.86890 0.52790 0.04300
H 	H 	0.43920 0.83080 0.04080 -0.02300
C 	C 	0.46722 0.90356 0.01910 -0.35100
H 	H 	0.44030 0.95780 0.25000 0.02900
C 	C 	0.46778 0.97779 0.14489 -0.15400
H 	H 	0.50450 0.94380 0.67480 0.08500
C 	C 	0.48081 0.95409 0.55731 0.12700
H 	H 	0.45100 0.94230 0.45050 0.08900
H 	H 	0.47320 0.89050 0.95910 0.20500
C 	C 	0.47904 0.95829 0.05874 0.22100
H 	H 	0.47440 0.01580 0.17140 0.05900
O 	O 	0.19061 0.93297 0.90363 -0.35900
O 	O 	0.19034 0.93439 0.10114 -0.39400
O 	O 	0.14191 0.93704 0.90018 -0.35100
O 	O 	0.14211 0.93025 0.09233 -0.40800
C 	C 	0.16677 0.91399 0.87640 0.33900
C 	C 	0.16570 0.91264 0.12330 0.35300
C 	C 	0.16555 0.85979 0.80820 -0.03200
C 	C 	0.16574 0.85582 0.18910 -0.04700
C 	C 	0.18851 0.84505 0.75200 -0.00400
C 	C 	0.13964 0.82405 0.80280 -0.07600
C 	C 	0.18909 0.84453 0.25260 -0.00800
C 	C 	0.14249 0.81545 0.18920 -0.07700
C 	C 	0.18740 0.79102 0.69110 -0.04500
H 	H 	0.20510 0.87050 0.75330 0.07100
C 	C 	0.13884 0.77168 0.74410 0.10700
H 	H 	0.12340 0.83570 0.83820 0.10100
H 	H 	0.20480 0.87240 0.25400 0.06400
C 	C 	0.18860 0.79335 0.31120 -0.04000
H 	H 	0.12660 0.82350 0.15010 0.07400
C 	C 	0.14264 0.76158 0.24860 0.10200
C 	C 	0.21192 0.77598 0.62700 0.35500
C 	C 	0.16266 0.75509 0.68710 -0.07100
N 	N 	0.11240 0.73423 0.74220 -0.08700
C 	C 	0.21294 0.77810 0.38000 0.34200
C 	C 	0.16536 0.74891 0.30720 -0.08400
N 	N 	0.11951 0.71694 0.24660 -0.09000
O 	O 	0.22871 0.82045 0.60438 -0.39200
O 	O 	0.21337 0.71980 0.59745 -0.40300
H 	H 	0.16160 0.71990 0.64700 0.07900
N 	N 	0.09311 0.73690 0.81130 -0.03200
C 	C 	0.10289 0.69805 0.67040 -0.00700
O 	O 	0.22839 0.82391 0.40694 -0.39400
O 	O 	0.21538 0.72064 0.40447 -0.40400
H 	H 	0.16570 0.71200 0.34380 0.08900
C 	C 	0.10232 0.70063 0.17290 -0.03100
N 	N 	0.11492 0.67610 0.31950 -0.04700
Cu	Cu	0.25846 0.81054 0.50343 0.90600
N 	N 	0.07085 0.70221 0.78570 -0.07200
H 	H 	0.11250 0.68840 0.61420 0.04400
C 	C 	0.07597 0.67840 0.69780 0.06200
H 	H 	0.10180 0.71960 0.11330 0.04300
C 	C 	0.08568 0.64986 0.20460 0.09300
N 	N 	0.09383 0.63765 0.29600 -0.08700
C 	C 	0.05614 0.63405 0.64910 0.00000
C 	C 	0.06297 0.61351 0.15470 -0.11500
C 	C 	0.03003 0.61311 0.69105 -0.02200
C 	C 	0.06190 0.61460 0.55900 -0.02800
C 	C 	0.05343 0.63213 0.06800 0.14300
C 	C 	0.05266 0.55681 0.19220 0.09200
H 	H 	0.02460 0.62870 0.75020 0.05100
C 	C 	0.01250 0.56977 0.64520 -0.09100
C 	C 	0.04429 0.57071 0.51170 -0.08200
H 	H 	0.07810 0.63110 0.52790 0.05200
H 	H 	0.06080 0.66920 0.04080 -0.02700
C 	C 	0.03278 0.59644 0.01910 -0.35500
H 	H 	0.05970 0.54220 0.25000 0.00700
C 	C 	0.03222 0.52221 0.14489 -0.22600
H 	H 	0.99550 0.55620 0.67480 0.06400
C 	C 	0.01919 0.54591 0.55731 0.06100
H 	H 	0.04900 0.55770 0.45050 0.06800
H 	H 	0.02680 0.60950 0.95910 0.20600
C 	C 	0.02096 0.54171 0.05874 0.20400
H 	H 	0.02560 0.48420 0.17140 0.10700
O 	O 	0.69061 0.43297 0.90363 -0.37400
O 	O 	0.69034 0.43439 0.10114 -0.41100
O 	O 	0.64191 0.43704 0.90018 -0.36700
O 	O 	0.64211 0.43025 0.09233 -0.42500
C 	C 	0.66677 0.41399 0.87640 0.34200
C 	C 	0.66570 0.41264 0.12330 0.35700
C 	C 	0.66555 0.35979 0.80820 -0.03900
C 	C 	0.66574 0.35582 0.18910 -0.05600
C 	C 	0.68851 0.34505 0.75200 -0.00000
C 	C 	0.63964 0.32405 0.80280 -0.07300
C 	C 	0.68909 0.34453 0.25260 -0.00400
C 	C 	0.64249 0.31545 0.18920 -0.07300
C 	C 	0.68740 0.29102 0.69110 -0.05100
H 	H 	0.70510 0.37050 0.75330 0.06500
C 	C 	0.63884 0.27168 0.74410 0.10200
H 	H 	0.62340 0.33570 0.83820 0.09800
H 	H 	0.70480 0.37240 0.25400 0.05800
C 	C 	0.68860 0.29335 0.31120 -0.04700
H 	H 	0.62660 0.32350 0.15010 0.07000
C 	C 	0.64264 0.26158 0.24860 0.09600
C 	C 	0.71192 0.27598 0.62700 0.35700
C 	C 	0.66266 0.25509 0.68710 -0.06800
N 	N 	0.61240 0.23423 0.74220 -0.08700
C 	C 	0.71294 0.27810 0.38000 0.34400
C 	C 	0.66536 0.24891 0.30720 -0.08000
N 	N 	0.61951 0.21694 0.24660 -0.08900
O 	O 	0.72871 0.32045 0.60438 -0.39700
O 	O 	0.71337 0.21980 0.59745 -0.40600
H 	H 	0.66160 0.21990 0.64700 0.07600
N 	N 	0.59311 0.23690 0.81130 -0.03400
C 	C 	0.60289 0.19805 0.67040 -0.01100
O 	O 	0.72839 0.32391 0.40694 -0.39900
O 	O 	0.71538 0.22064 0.40447 -0.40700
H 	H 	0.66570 0.21200 0.34380 0.08500
C 	C 	0.60232 0.20063 0.17290 -0.04500
N 	N 	0.61492 0.17610 0.31950 -0.04900
Cu	Cu	0.75846 0.31054 0.50343 0.90400
N 	N 	0.57085 0.20221 0.78570 -0.07400
H 	H 	0.61250 0.18840 0.61420 0.04300
C 	C 	0.57597 0.17840 0.69780 0.06300
H 	H 	0.60180 0.21960 0.11330 0.04600
C 	C 	0.58568 0.14986 0.20460 0.11200
N 	N 	0.59383 0.13765 0.29600 -0.09300
C 	C 	0.55614 0.13405 0.64910 -0.01300
C 	C 	0.56297 0.11351 0.15470 -0.17500
C 	C 	0.53003 0.11311 0.69105 -0.01100
C 	C 	0.56190 0.11460 0.55900 -0.01800
C 	C 	0.55343 0.13213 0.06800 0.20300
C 	C 	0.55266 0.05681 0.19220 0.18500
H 	H 	0.52460 0.12870 0.75020 0.04500
C 	C 	0.51250 0.06977 0.64520 -0.11300
C 	C 	0.54429 0.07071 0.51170 -0.10300
H 	H 	0.57810 0.13110 0.52790 0.04600
H 	H 	0.56080 0.16920 0.04080 -0.05000
C 	C 	0.53278 0.09644 0.01910 -0.42500
H 	H 	0.55970 0.04220 0.25000 -0.03500
C 	C 	0.53222 0.02221 0.14489 -0.36900
H 	H 	0.49550 0.05620 0.67480 0.06600
C 	C 	0.51919 0.04591 0.55731 0.08000
H 	H 	0.54900 0.05770 0.45050 0.06900
H 	H 	0.52680 0.10950 0.95910 0.22800
C 	C 	0.52096 0.04171 0.05874 0.28000
H 	H 	0.52560 0.98420 0.17140 0.18000
Cu	Cu	0.19512 0.00000 -0.00000 0.85900
Cu	Cu	0.13755 0.00000 -0.00000 0.86300
Cu	Cu	0.69512 0.50000 -0.00000 0.87300
Cu	Cu	0.63755 0.50000 -0.00000 0.87800
Cu	Cu	0.80488 0.00000 -0.00000 0.85900
Cu	Cu	0.86245 0.00000 -0.00000 0.86300
Cu	Cu	0.30488 0.50000 -0.00000 0.87300
Cu	Cu	0.36245 0.50000 -0.00000 0.87800
C 	C 	0.00000 0.50000 0.50000 -0.08500
C 	C 	0.50000 0.00000 0.50000 -0.16400
C 	C 	-0.00000 0.50000 -0.00000 -0.25000
C 	C 	0.50000 0.00000 -0.00000 -0.33300
