data_crystal

_cell_length_a 27.72200
_cell_length_b 27.72200
_cell_length_c 27.72200
_cell_angle_alpha 60.00000
_cell_angle_beta  60.00000
_cell_angle_gamma 60.00000

_symmetry_space_group_name_	'P 1'
_symmetry_space_group_name_H-M	'P 1'

loop_
_symmetry_equiv_pos_as_xyz
  x,y,z

loop_
_atom_site_label
_atom_site_type_symbol
_atom_site_fract_x
_atom_site_fract_y
_atom_site_fract_z
_atom_site_charge
Cd	Cd	0.54281 0.08898 0.91102 1.21700
Cd	Cd	0.08898 0.54281 0.45719 1.21700
Cd	Cd	0.91102 0.45719 0.54281 1.21700
Cd	Cd	0.45719 0.91102 0.08898 1.21700
Cd	Cd	0.54281 0.91102 0.45719 1.21700
Cd	Cd	0.08898 0.45719 0.91102 1.21700
Cd	Cd	0.91102 0.54281 0.08898 1.21700
Cd	Cd	0.45719 0.08898 0.54281 1.21700
Cd	Cd	0.54281 0.45719 0.08898 1.21700
Cd	Cd	0.08898 0.91102 0.54281 1.21700
Cd	Cd	0.91102 0.08898 0.45719 1.21700
Cd	Cd	0.45719 0.54281 0.91102 1.21700
Cd	Cd	0.41102 0.95719 0.58898 1.21700
Cd	Cd	0.95719 0.41102 0.04281 1.21600
Cd	Cd	0.04281 0.58898 0.95719 1.21600
Cd	Cd	0.58898 0.04281 0.41102 1.21700
Cd	Cd	0.58898 0.95719 0.04281 1.21600
Cd	Cd	0.04281 0.41102 0.58898 1.21700
Cd	Cd	0.95719 0.58898 0.41102 1.21700
Cd	Cd	0.41102 0.04281 0.95719 1.21600
Cd	Cd	0.04281 0.95719 0.41102 1.21600
Cd	Cd	0.58898 0.41102 0.95719 1.21700
Cd	Cd	0.41102 0.58898 0.04281 1.21700
Cd	Cd	0.95719 0.04281 0.58898 1.21600
H 	H 	0.55570 0.03870 0.11630 0.04700
H 	H 	0.03870 0.55570 0.28930 0.04700
H 	H 	0.11630 0.28930 0.55570 0.04700
H 	H 	0.28930 0.11630 0.03870 0.04800
H 	H 	0.55570 0.11630 0.28930 0.04700
H 	H 	0.03870 0.28930 0.11630 0.04800
H 	H 	0.11630 0.55570 0.03870 0.04700
H 	H 	0.28930 0.03870 0.55570 0.04700
H 	H 	0.55570 0.28930 0.03870 0.04700
H 	H 	0.03870 0.11630 0.55570 0.04700
H 	H 	0.11630 0.03870 0.28930 0.04800
H 	H 	0.28930 0.55570 0.11630 0.04700
H 	H 	0.46130 0.94430 0.38370 0.04600
H 	H 	0.94430 0.46130 0.21070 0.04600
H 	H 	0.21070 0.38370 0.94430 0.04600
H 	H 	0.38370 0.21070 0.46130 0.04600
H 	H 	0.38370 0.94430 0.21070 0.04600
H 	H 	0.21070 0.46130 0.38370 0.04600
H 	H 	0.94430 0.38370 0.46130 0.04600
H 	H 	0.46130 0.21070 0.94430 0.04600
H 	H 	0.21070 0.94430 0.46130 0.04600
H 	H 	0.38370 0.46130 0.94430 0.04600
H 	H 	0.46130 0.38370 0.21070 0.04600
H 	H 	0.94430 0.21070 0.38370 0.04600
H 	H 	0.44430 0.96130 0.88370 0.04700
H 	H 	0.96130 0.44430 0.71070 0.04700
H 	H 	0.88370 0.71070 0.44430 0.04700
H 	H 	0.71070 0.88370 0.96130 0.04800
H 	H 	0.44430 0.88370 0.71070 0.04700
H 	H 	0.96130 0.71070 0.88370 0.04800
H 	H 	0.88370 0.44430 0.96130 0.04700
H 	H 	0.71070 0.96130 0.44430 0.04700
H 	H 	0.44430 0.71070 0.96130 0.04700
H 	H 	0.96130 0.88370 0.44430 0.04700
H 	H 	0.88370 0.96130 0.71070 0.04800
H 	H 	0.71070 0.44430 0.88370 0.04700
H 	H 	0.53870 0.05570 0.61630 0.04600
H 	H 	0.05570 0.53870 0.78930 0.04600
H 	H 	0.78930 0.61630 0.05570 0.04600
H 	H 	0.61630 0.78930 0.53870 0.04600
H 	H 	0.61630 0.05570 0.78930 0.04600
H 	H 	0.78930 0.53870 0.61630 0.04600
H 	H 	0.05570 0.61630 0.53870 0.04600
H 	H 	0.53870 0.78930 0.05570 0.04600
H 	H 	0.78930 0.05570 0.53870 0.04600
H 	H 	0.61630 0.53870 0.05570 0.04600
H 	H 	0.53870 0.61630 0.78930 0.04600
H 	H 	0.05570 0.78930 0.61630 0.04600
C 	C 	0.55241 0.10345 0.99715 0.32100
C 	C 	0.55825 0.11551 0.04001 -0.08800
C 	C 	0.55859 0.07707 0.09795 -0.04300
C 	C 	0.56438 0.10816 0.12404 0.02500
C 	C 	0.56486 0.16556 0.08740 -0.02900
C 	C 	0.10345 0.55241 0.34699 0.32600
C 	C 	0.11551 0.55825 0.28623 -0.09200
C 	C 	0.07707 0.55859 0.26639 -0.04200
C 	C 	0.10816 0.56438 0.20342 0.02500
C 	C 	0.16556 0.56486 0.18218 -0.02900
C 	C 	0.99715 0.34699 0.55241 0.32500
C 	C 	0.04001 0.28623 0.55825 -0.09100
C 	C 	0.09795 0.26639 0.55859 -0.04200
C 	C 	0.12404 0.20342 0.56438 0.02500
C 	C 	0.08740 0.18218 0.56486 -0.02900
C 	C 	0.34699 0.99715 0.10345 0.31800
C 	C 	0.28623 0.04001 0.11551 -0.08700
C 	C 	0.26639 0.09795 0.07707 -0.04400
C 	C 	0.20342 0.12404 0.10816 0.02600
C 	C 	0.18218 0.08740 0.16556 -0.03000
C 	C 	0.55241 0.99715 0.34699 0.32500
C 	C 	0.55825 0.04001 0.28623 -0.09100
C 	C 	0.55859 0.09795 0.26639 -0.04200
C 	C 	0.56438 0.12404 0.20342 0.02500
C 	C 	0.56486 0.08740 0.18218 -0.02900
C 	C 	0.10345 0.34699 0.99715 0.31800
C 	C 	0.11551 0.28623 0.04001 -0.08700
C 	C 	0.07707 0.26639 0.09795 -0.04400
C 	C 	0.10816 0.20342 0.12404 0.02600
C 	C 	0.16556 0.18218 0.08740 -0.03000
C 	C 	0.99715 0.55241 0.10345 0.32100
C 	C 	0.04001 0.55825 0.11551 -0.08800
C 	C 	0.09795 0.55859 0.07707 -0.04300
C 	C 	0.12404 0.56438 0.10816 0.02500
C 	C 	0.08740 0.56486 0.16556 -0.02900
C 	C 	0.34699 0.10345 0.55241 0.32600
C 	C 	0.28623 0.11551 0.55825 -0.09200
C 	C 	0.26639 0.07707 0.55859 -0.04200
C 	C 	0.20342 0.10816 0.56438 0.02500
C 	C 	0.18218 0.16556 0.56486 -0.02900
C 	C 	0.55241 0.34699 0.10345 0.32600
C 	C 	0.55825 0.28623 0.11551 -0.09200
C 	C 	0.55859 0.26639 0.07707 -0.04200
C 	C 	0.56438 0.20342 0.10816 0.02500
C 	C 	0.56486 0.18218 0.16556 -0.02900
C 	C 	0.10345 0.99715 0.55241 0.32100
C 	C 	0.11551 0.04001 0.55825 -0.08800
C 	C 	0.07707 0.09795 0.55859 -0.04300
C 	C 	0.10816 0.12404 0.56438 0.02500
C 	C 	0.16556 0.08740 0.56486 -0.02900
C 	C 	0.99715 0.10345 0.34699 0.31800
C 	C 	0.04001 0.11551 0.28623 -0.08700
C 	C 	0.09795 0.07707 0.26639 -0.04400
C 	C 	0.12404 0.10816 0.20342 0.02600
C 	C 	0.08740 0.16556 0.18218 -0.03000
C 	C 	0.34699 0.55241 0.99715 0.32500
C 	C 	0.28623 0.55825 0.04001 -0.09100
C 	C 	0.26639 0.55859 0.09795 -0.04200
C 	C 	0.20342 0.56438 0.12404 0.02500
C 	C 	0.18218 0.56486 0.08740 -0.02900
C 	C 	0.39655 0.94759 0.50285 0.32600
C 	C 	0.38449 0.94175 0.45999 -0.09200
C 	C 	0.42293 0.94141 0.40205 -0.04200
C 	C 	0.39184 0.93562 0.37596 0.02400
C 	C 	0.33444 0.93514 0.41260 -0.02900
C 	C 	0.94759 0.39655 0.15301 0.32600
C 	C 	0.94175 0.38449 0.21377 -0.09200
C 	C 	0.94141 0.42293 0.23361 -0.04200
C 	C 	0.93562 0.39184 0.29658 0.02400
C 	C 	0.93514 0.33444 0.31782 -0.02900
C 	C 	0.15301 0.50285 0.94759 0.32600
C 	C 	0.21377 0.45999 0.94175 -0.09200
C 	C 	0.23361 0.40205 0.94141 -0.04200
C 	C 	0.29658 0.37596 0.93562 0.02400
C 	C 	0.31782 0.41260 0.93514 -0.02900
C 	C 	0.50285 0.15301 0.39655 0.32600
C 	C 	0.45999 0.21377 0.38449 -0.09200
C 	C 	0.40205 0.23361 0.42293 -0.04200
C 	C 	0.37596 0.29658 0.39184 0.02500
C 	C 	0.41260 0.31782 0.33444 -0.02900
C 	C 	0.50285 0.94759 0.15301 0.32600
C 	C 	0.45999 0.94175 0.21377 -0.09200
C 	C 	0.40205 0.94141 0.23361 -0.04200
C 	C 	0.37596 0.93562 0.29658 0.02400
C 	C 	0.41260 0.93514 0.31782 -0.02900
C 	C 	0.15301 0.39655 0.50285 0.32600
C 	C 	0.21377 0.38449 0.45999 -0.09200
C 	C 	0.23361 0.42293 0.40205 -0.04200
C 	C 	0.29658 0.39184 0.37596 0.02500
C 	C 	0.31782 0.33444 0.41260 -0.02900
C 	C 	0.94759 0.50285 0.39655 0.32600
C 	C 	0.94175 0.45999 0.38449 -0.09200
C 	C 	0.94141 0.40205 0.42293 -0.04200
C 	C 	0.93562 0.37596 0.39184 0.02400
C 	C 	0.93514 0.41260 0.33444 -0.02900
C 	C 	0.39655 0.15301 0.94759 0.32600
C 	C 	0.38449 0.21377 0.94175 -0.09200
C 	C 	0.42293 0.23361 0.94141 -0.04200
C 	C 	0.39184 0.29658 0.93562 0.02400
C 	C 	0.33444 0.31782 0.93514 -0.02900
C 	C 	0.15301 0.94759 0.39655 0.32600
C 	C 	0.21377 0.94175 0.38449 -0.09200
C 	C 	0.23361 0.94141 0.42293 -0.04200
C 	C 	0.29658 0.93562 0.39184 0.02400
C 	C 	0.31782 0.93514 0.33444 -0.02900
C 	C 	0.50285 0.39655 0.94759 0.32600
C 	C 	0.45999 0.38449 0.94175 -0.09200
C 	C 	0.40205 0.42293 0.94141 -0.04200
C 	C 	0.37596 0.39184 0.93562 0.02400
C 	C 	0.41260 0.33444 0.93514 -0.02900
C 	C 	0.39655 0.50285 0.15301 0.32600
C 	C 	0.38449 0.45999 0.21377 -0.09200
C 	C 	0.42293 0.40205 0.23361 -0.04200
C 	C 	0.39184 0.37596 0.29658 0.02500
C 	C 	0.33444 0.41260 0.31782 -0.02900
C 	C 	0.94759 0.15301 0.50285 0.32600
C 	C 	0.94175 0.21377 0.45999 -0.09200
C 	C 	0.94141 0.23361 0.40205 -0.04200
C 	C 	0.93562 0.29658 0.37596 0.02400
C 	C 	0.93514 0.31782 0.41260 -0.02900
C 	C 	0.44759 0.89655 0.00285 0.32100
C 	C 	0.44175 0.88449 0.95999 -0.08800
C 	C 	0.44141 0.92293 0.90205 -0.04300
C 	C 	0.43562 0.89184 0.87596 0.02500
C 	C 	0.43514 0.83444 0.91260 -0.02900
C 	C 	0.89655 0.44759 0.65301 0.32600
C 	C 	0.88449 0.44175 0.71377 -0.09200
C 	C 	0.92293 0.44141 0.73361 -0.04200
C 	C 	0.89184 0.43562 0.79658 0.02500
C 	C 	0.83444 0.43514 0.81782 -0.02900
C 	C 	0.00285 0.65301 0.44759 0.32500
C 	C 	0.95999 0.71377 0.44175 -0.09100
C 	C 	0.90205 0.73361 0.44141 -0.04200
C 	C 	0.87596 0.79658 0.43562 0.02500
C 	C 	0.91260 0.81782 0.43514 -0.02900
C 	C 	0.65301 0.00285 0.89655 0.31800
C 	C 	0.71377 0.95999 0.88449 -0.08700
C 	C 	0.73361 0.90205 0.92293 -0.04400
C 	C 	0.79658 0.87596 0.89184 0.02600
C 	C 	0.81782 0.91260 0.83444 -0.03000
C 	C 	0.44759 0.00285 0.65301 0.32500
C 	C 	0.44175 0.95999 0.71377 -0.09100
C 	C 	0.44141 0.90205 0.73361 -0.04200
C 	C 	0.43562 0.87596 0.79658 0.02500
C 	C 	0.43514 0.91260 0.81782 -0.02900
C 	C 	0.89655 0.65301 0.00285 0.31800
C 	C 	0.88449 0.71377 0.95999 -0.08700
C 	C 	0.92293 0.73361 0.90205 -0.04400
C 	C 	0.89184 0.79658 0.87596 0.02600
C 	C 	0.83444 0.81782 0.91260 -0.03000
C 	C 	0.00285 0.44759 0.89655 0.32100
C 	C 	0.95999 0.44175 0.88449 -0.08800
C 	C 	0.90205 0.44141 0.92293 -0.04300
C 	C 	0.87596 0.43562 0.89184 0.02500
C 	C 	0.91260 0.43514 0.83444 -0.02900
C 	C 	0.65301 0.89655 0.44759 0.32600
C 	C 	0.71377 0.88449 0.44175 -0.09200
C 	C 	0.73361 0.92293 0.44141 -0.04200
C 	C 	0.79658 0.89184 0.43562 0.02500
C 	C 	0.81782 0.83444 0.43514 -0.02900
C 	C 	0.44759 0.65301 0.89655 0.32600
C 	C 	0.44175 0.71377 0.88449 -0.09200
C 	C 	0.44141 0.73361 0.92293 -0.04200
C 	C 	0.43562 0.79658 0.89184 0.02500
C 	C 	0.43514 0.81782 0.83444 -0.02900
C 	C 	0.89655 0.00285 0.44759 0.32100
C 	C 	0.88449 0.95999 0.44175 -0.08800
C 	C 	0.92293 0.90205 0.44141 -0.04300
C 	C 	0.89184 0.87596 0.43562 0.02500
C 	C 	0.83444 0.91260 0.43514 -0.02900
C 	C 	0.00285 0.89655 0.65301 0.31800
C 	C 	0.95999 0.88449 0.71377 -0.08700
C 	C 	0.90205 0.92293 0.73361 -0.04400
C 	C 	0.87596 0.89184 0.79658 0.02600
C 	C 	0.91260 0.83444 0.81782 -0.03000
C 	C 	0.65301 0.44759 0.00285 0.32500
C 	C 	0.71377 0.44175 0.95999 -0.09100
C 	C 	0.73361 0.44141 0.90205 -0.04200
C 	C 	0.79658 0.43562 0.87596 0.02500
C 	C 	0.81782 0.43514 0.91260 -0.02900
C 	C 	0.60345 0.05241 0.49715 0.32600
C 	C 	0.61551 0.05825 0.54001 -0.09200
C 	C 	0.57707 0.05859 0.59795 -0.04200
C 	C 	0.60816 0.06438 0.62404 0.02400
C 	C 	0.66556 0.06486 0.58740 -0.02900
C 	C 	0.05241 0.60345 0.84699 0.32600
C 	C 	0.05825 0.61551 0.78623 -0.09200
C 	C 	0.05859 0.57707 0.76639 -0.04200
C 	C 	0.06438 0.60816 0.70342 0.02400
C 	C 	0.06486 0.66556 0.68218 -0.02900
C 	C 	0.84699 0.49715 0.05241 0.32600
C 	C 	0.78623 0.54001 0.05825 -0.09200
C 	C 	0.76639 0.59795 0.05859 -0.04200
C 	C 	0.70342 0.62404 0.06438 0.02400
C 	C 	0.68218 0.58740 0.06486 -0.02900
C 	C 	0.49715 0.84699 0.60345 0.32600
C 	C 	0.54001 0.78623 0.61551 -0.09200
C 	C 	0.59795 0.76639 0.57707 -0.04200
C 	C 	0.62404 0.70342 0.60816 0.02500
C 	C 	0.58740 0.68218 0.66556 -0.02900
C 	C 	0.49715 0.05241 0.84699 0.32600
C 	C 	0.54001 0.05825 0.78623 -0.09200
C 	C 	0.59795 0.05859 0.76639 -0.04200
C 	C 	0.62404 0.06438 0.70342 0.02400
C 	C 	0.58740 0.06486 0.68218 -0.02900
C 	C 	0.84699 0.60345 0.49715 0.32600
C 	C 	0.78623 0.61551 0.54001 -0.09200
C 	C 	0.76639 0.57707 0.59795 -0.04200
C 	C 	0.70342 0.60816 0.62404 0.02500
C 	C 	0.68218 0.66556 0.58740 -0.02900
C 	C 	0.05241 0.49715 0.60345 0.32600
C 	C 	0.05825 0.54001 0.61551 -0.09200
C 	C 	0.05859 0.59795 0.57707 -0.04200
C 	C 	0.06438 0.62404 0.60816 0.02400
C 	C 	0.06486 0.58740 0.66556 -0.02900
C 	C 	0.60345 0.84699 0.05241 0.32600
C 	C 	0.61551 0.78623 0.05825 -0.09200
C 	C 	0.57707 0.76639 0.05859 -0.04200
C 	C 	0.60816 0.70342 0.06438 0.02400
C 	C 	0.66556 0.68218 0.06486 -0.02900
C 	C 	0.84699 0.05241 0.60345 0.32600
C 	C 	0.78623 0.05825 0.61551 -0.09200
C 	C 	0.76639 0.05859 0.57707 -0.04200
C 	C 	0.70342 0.06438 0.60816 0.02400
C 	C 	0.68218 0.06486 0.66556 -0.02900
C 	C 	0.49715 0.60345 0.05241 0.32600
C 	C 	0.54001 0.61551 0.05825 -0.09200
C 	C 	0.59795 0.57707 0.05859 -0.04200
C 	C 	0.62404 0.60816 0.06438 0.02400
C 	C 	0.58740 0.66556 0.06486 -0.02900
C 	C 	0.60345 0.49715 0.84699 0.32600
C 	C 	0.61551 0.54001 0.78623 -0.09200
C 	C 	0.57707 0.59795 0.76639 -0.04200
C 	C 	0.60816 0.62404 0.70342 0.02500
C 	C 	0.66556 0.58740 0.68218 -0.02900
C 	C 	0.05241 0.84699 0.49715 0.32600
C 	C 	0.05825 0.78623 0.54001 -0.09200
C 	C 	0.05859 0.76639 0.59795 -0.04200
C 	C 	0.06438 0.70342 0.62404 0.02400
C 	C 	0.06486 0.68218 0.58740 -0.02900
S 	S 	0.56326 0.18376 0.01920 0.03800
S 	S 	0.18376 0.56326 0.23378 0.03800
S 	S 	0.01920 0.23378 0.56326 0.03900
S 	S 	0.23378 0.01920 0.18376 0.04000
S 	S 	0.56326 0.01920 0.23378 0.03900
S 	S 	0.18376 0.23378 0.01920 0.04000
S 	S 	0.01920 0.56326 0.18376 0.03800
S 	S 	0.23378 0.18376 0.56326 0.03800
S 	S 	0.56326 0.23378 0.18376 0.03800
S 	S 	0.18376 0.01920 0.56326 0.03800
S 	S 	0.01920 0.18376 0.23378 0.04000
S 	S 	0.23378 0.56326 0.01920 0.03900
S 	S 	0.31624 0.93674 0.48080 0.03700
S 	S 	0.93674 0.31624 0.26622 0.03700
S 	S 	0.26622 0.48080 0.93674 0.03700
S 	S 	0.48080 0.26622 0.31624 0.03800
S 	S 	0.48080 0.93674 0.26622 0.03700
S 	S 	0.26622 0.31624 0.48080 0.03800
S 	S 	0.93674 0.48080 0.31624 0.03700
S 	S 	0.31624 0.26622 0.93674 0.03700
S 	S 	0.26622 0.93674 0.31624 0.03700
S 	S 	0.48080 0.31624 0.93674 0.03700
S 	S 	0.31624 0.48080 0.26622 0.03800
S 	S 	0.93674 0.26622 0.48080 0.03700
S 	S 	0.43674 0.81624 0.98080 0.03800
S 	S 	0.81624 0.43674 0.76622 0.03800
S 	S 	0.98080 0.76622 0.43674 0.03900
S 	S 	0.76622 0.98080 0.81624 0.04000
S 	S 	0.43674 0.98080 0.76622 0.03900
S 	S 	0.81624 0.76622 0.98080 0.04000
S 	S 	0.98080 0.43674 0.81624 0.03800
S 	S 	0.76622 0.81624 0.43674 0.03800
S 	S 	0.43674 0.76622 0.81624 0.03800
S 	S 	0.81624 0.98080 0.43674 0.03800
S 	S 	0.98080 0.81624 0.76622 0.04000
S 	S 	0.76622 0.43674 0.98080 0.03900
S 	S 	0.68376 0.06326 0.51920 0.03700
S 	S 	0.06326 0.68376 0.73378 0.03700
S 	S 	0.73378 0.51920 0.06326 0.03700
S 	S 	0.51920 0.73378 0.68376 0.03800
S 	S 	0.51920 0.06326 0.73378 0.03700
S 	S 	0.73378 0.68376 0.51920 0.03800
S 	S 	0.06326 0.51920 0.68376 0.03700
S 	S 	0.68376 0.73378 0.06326 0.03700
S 	S 	0.73378 0.06326 0.68376 0.03700
S 	S 	0.51920 0.68376 0.06326 0.03700
S 	S 	0.68376 0.51920 0.73378 0.03800
S 	S 	0.06326 0.73378 0.51920 0.03700
O 	O 	0.54054 0.05716 0.01448 -0.47900
O 	O 	0.55636 0.14044 0.94602 -0.39800
O 	O 	0.05716 0.54054 0.38782 -0.48200
O 	O 	0.14044 0.55636 0.35718 -0.39800
O 	O 	0.01448 0.38782 0.54054 -0.48200
O 	O 	0.94602 0.35718 0.55636 -0.39800
O 	O 	0.38782 0.01448 0.05716 -0.47700
O 	O 	0.35718 0.94602 0.14044 -0.39700
O 	O 	0.54054 0.01448 0.38782 -0.48200
O 	O 	0.55636 0.94602 0.35718 -0.39800
O 	O 	0.05716 0.38782 0.01448 -0.47700
O 	O 	0.14044 0.35718 0.94602 -0.39700
O 	O 	0.01448 0.54054 0.05716 -0.47900
O 	O 	0.94602 0.55636 0.14044 -0.39800
O 	O 	0.38782 0.05716 0.54054 -0.48200
O 	O 	0.35718 0.14044 0.55636 -0.39800
O 	O 	0.54054 0.38782 0.05716 -0.48200
O 	O 	0.55636 0.35718 0.14044 -0.39800
O 	O 	0.05716 0.01448 0.54054 -0.47900
O 	O 	0.14044 0.94602 0.55636 -0.39800
O 	O 	0.01448 0.05716 0.38782 -0.47700
O 	O 	0.94602 0.14044 0.35718 -0.39700
O 	O 	0.38782 0.54054 0.01448 -0.48200
O 	O 	0.35718 0.55636 0.94602 -0.39800
O 	O 	0.44284 0.95946 0.48552 -0.48200
O 	O 	0.35956 0.94364 0.55398 -0.39900
O 	O 	0.95946 0.44284 0.11218 -0.48300
O 	O 	0.94364 0.35956 0.14282 -0.40000
O 	O 	0.11218 0.48552 0.95946 -0.48300
O 	O 	0.14282 0.55398 0.94364 -0.39900
O 	O 	0.48552 0.11218 0.44284 -0.48200
O 	O 	0.55398 0.14282 0.35956 -0.39900
O 	O 	0.48552 0.95946 0.11218 -0.48300
O 	O 	0.55398 0.94364 0.14282 -0.39900
O 	O 	0.11218 0.44284 0.48552 -0.48200
O 	O 	0.14282 0.35956 0.55398 -0.39900
O 	O 	0.95946 0.48552 0.44284 -0.48200
O 	O 	0.94364 0.55398 0.35956 -0.39900
O 	O 	0.44284 0.11218 0.95946 -0.48300
O 	O 	0.35956 0.14282 0.94364 -0.40000
O 	O 	0.11218 0.95946 0.44284 -0.48300
O 	O 	0.14282 0.94364 0.35956 -0.40000
O 	O 	0.48552 0.44284 0.95946 -0.48200
O 	O 	0.55398 0.35956 0.94364 -0.39900
O 	O 	0.44284 0.48552 0.11218 -0.48200
O 	O 	0.35956 0.55398 0.14282 -0.39900
O 	O 	0.95946 0.11218 0.48552 -0.48300
O 	O 	0.94364 0.14282 0.55398 -0.39900
O 	O 	0.45946 0.94284 0.98552 -0.47900
O 	O 	0.44364 0.85956 0.05398 -0.39800
O 	O 	0.94284 0.45946 0.61218 -0.48200
O 	O 	0.85956 0.44364 0.64282 -0.39800
O 	O 	0.98552 0.61218 0.45946 -0.48200
O 	O 	0.05398 0.64282 0.44364 -0.39800
O 	O 	0.61218 0.98552 0.94284 -0.47700
O 	O 	0.64282 0.05398 0.85956 -0.39700
O 	O 	0.45946 0.98552 0.61218 -0.48200
O 	O 	0.44364 0.05398 0.64282 -0.39800
O 	O 	0.94284 0.61218 0.98552 -0.47700
O 	O 	0.85956 0.64282 0.05398 -0.39700
O 	O 	0.98552 0.45946 0.94284 -0.47900
O 	O 	0.05398 0.44364 0.85956 -0.39800
O 	O 	0.61218 0.94284 0.45946 -0.48200
O 	O 	0.64282 0.85956 0.44364 -0.39800
O 	O 	0.45946 0.61218 0.94284 -0.48200
O 	O 	0.44364 0.64282 0.85956 -0.39800
O 	O 	0.94284 0.98552 0.45946 -0.47900
O 	O 	0.85956 0.05398 0.44364 -0.39800
O 	O 	0.98552 0.94284 0.61218 -0.47700
O 	O 	0.05398 0.85956 0.64282 -0.39700
O 	O 	0.61218 0.45946 0.98552 -0.48200
O 	O 	0.64282 0.44364 0.05398 -0.39800
O 	O 	0.55716 0.04054 0.51448 -0.48200
O 	O 	0.64044 0.05636 0.44602 -0.39900
O 	O 	0.04054 0.55716 0.88782 -0.48300
O 	O 	0.05636 0.64044 0.85718 -0.40000
O 	O 	0.88782 0.51448 0.04054 -0.48300
O 	O 	0.85718 0.44602 0.05636 -0.39900
O 	O 	0.51448 0.88782 0.55716 -0.48200
O 	O 	0.44602 0.85718 0.64044 -0.39900
O 	O 	0.51448 0.04054 0.88782 -0.48300
O 	O 	0.44602 0.05636 0.85718 -0.39900
O 	O 	0.88782 0.55716 0.51448 -0.48200
O 	O 	0.85718 0.64044 0.44602 -0.39900
O 	O 	0.04054 0.51448 0.55716 -0.48200
O 	O 	0.05636 0.44602 0.64044 -0.39900
O 	O 	0.55716 0.88782 0.04054 -0.48300
O 	O 	0.64044 0.85718 0.05636 -0.40000
O 	O 	0.88782 0.04054 0.55716 -0.48300
O 	O 	0.85718 0.05636 0.64044 -0.40000
O 	O 	0.51448 0.55716 0.04054 -0.48200
O 	O 	0.44602 0.64044 0.05636 -0.39900
O 	O 	0.55716 0.51448 0.88782 -0.48200
O 	O 	0.64044 0.44602 0.85718 -0.39900
O 	O 	0.04054 0.88782 0.51448 -0.48300
O 	O 	0.05636 0.85718 0.44602 -0.39900
