data_crystal

_cell_length_a 7.36950
_cell_length_b 13.09900
_cell_length_c 13.44800
_cell_angle_alpha 80.35300
_cell_angle_beta  84.93000
_cell_angle_gamma 82.79500

_symmetry_space_group_name_	'P 1'
_symmetry_space_group_name_H-M	'P 1'

loop_
_symmetry_equiv_pos_as_xyz
  x,y,z

loop_
_atom_site_label
_atom_site_type_symbol
_atom_site_fract_x
_atom_site_fract_y
_atom_site_fract_z
_atom_site_charge
Cu	Cu	0.79566 0.30929 0.79313 0.84900
N 	N 	0.98650 0.38450 0.70130 -0.25000
C 	C 	0.13290 0.32700 0.66500 0.08900
H 	H 	0.13860 0.25330 0.68210 -0.02100
C 	C 	0.27510 0.36740 0.60470 -0.16900
H 	H 	0.37420 0.32220 0.58060 0.08600
C 	C 	0.27330 0.47510 0.57900 0.10900
C 	C 	0.12000 0.53490 0.61440 -0.16800
H 	H 	0.11060 0.60870 0.59810 0.08000
C 	C 	0.98190 0.48790 0.67290 0.08900
H 	H 	0.87740 0.53100 0.69440 -0.02400
C 	C 	0.42550 0.52450 0.52060 -0.09200
H 	H 	0.41660 0.59840 0.51150 0.05400
N 	N 	0.68190 0.22220 0.70430 -0.23800
C 	C 	0.54510 0.16560 0.74340 0.08200
H 	H 	0.49430 0.17230 0.80980 -0.01400
C 	C 	0.47510 0.09860 0.69240 -0.16300
H 	H 	0.37920 0.05980 0.72410 0.08100
C 	C 	0.54320 0.08710 0.59520 0.10500
C 	C 	0.68370 0.14640 0.55350 -0.16000
H 	H 	0.73470 0.14210 0.48670 0.07700
C 	C 	0.74860 0.21150 0.60980 0.07600
H 	H 	0.84530 0.25060 0.58030 -0.01600
C 	C 	0.46730 0.01350 0.54390 -0.08500
H 	H 	0.36290 0.98280 0.57620 0.05200
N 	N 	0.58850 0.38120 0.87116 -0.25000
C 	C 	0.55150 0.35010 0.97010 0.08200
H 	H 	0.64130 0.30430 0.00700 -0.02100
C 	C 	0.38780 0.38180 0.02120 -0.15800
H 	H 	0.36830 0.35840 0.09170 0.07500
C 	C 	0.25210 0.44780 0.96960 0.10100
C 	C 	0.29460 0.48360 0.86730 -0.15800
H 	H 	0.20940 0.53160 0.82920 0.07800
C 	C 	0.46090 0.44870 0.82210 0.08000
H 	H 	0.48680 0.47380 0.75240 -0.02000
C 	C 	0.07460 0.47640 0.02200 -0.09200
H 	H 	0.06560 0.45980 0.09360 0.04700
N 	N 	0.95330 0.18990 0.88450 -0.23200
C 	C 	0.99550 0.09510 0.85710 0.07400
H 	H 	0.91900 0.07430 0.81260 -0.00900
C 	C 	0.14390 0.02640 0.89000 -0.15200
H 	H 	0.16580 0.95980 0.86930 0.07400
C 	C 	0.26120 0.05470 0.95350 0.10100
C 	C 	0.21240 0.15080 0.98630 -0.15400
H 	H 	0.28360 0.17240 0.03290 0.07700
C 	C 	0.06080 0.21400 0.95070 0.07700
H 	H 	0.03020 0.27870 0.97450 -0.01500
C 	C 	0.42870 0.98610 0.98030 -0.08600
H 	H 	0.43620 0.91620 0.96850 0.05100
Cu	Cu	0.20434 0.69071 0.20687 0.85000
N 	N 	0.01350 0.61550 0.29870 -0.24900
C 	C 	0.86710 0.67300 0.33500 0.08900
H 	H 	0.86140 0.74670 0.31790 -0.02100
C 	C 	0.72490 0.63260 0.39530 -0.16900
H 	H 	0.62580 0.67780 0.41940 0.08600
C 	C 	0.72670 0.52490 0.42100 0.10900
C 	C 	0.88000 0.46510 0.38560 -0.16800
H 	H 	0.88940 0.39130 0.40190 0.08000
C 	C 	0.01810 0.51210 0.32710 0.08900
H 	H 	0.12260 0.46900 0.30560 -0.02400
C 	C 	0.57450 0.47550 0.47940 -0.09200
H 	H 	0.58340 0.40160 0.48850 0.05400
N 	N 	0.31810 0.77780 0.29570 -0.23800
C 	C 	0.45490 0.83440 0.25660 0.08200
H 	H 	0.50570 0.82770 0.19020 -0.01400
C 	C 	0.52490 0.90140 0.30760 -0.16300
H 	H 	0.62080 0.94020 0.27590 0.08100
C 	C 	0.45680 0.91290 0.40480 0.10500
C 	C 	0.31630 0.85360 0.44650 -0.16000
H 	H 	0.26530 0.85790 0.51330 0.07700
C 	C 	0.25140 0.78850 0.39020 0.07600
H 	H 	0.15470 0.74940 0.41970 -0.01600
C 	C 	0.53270 0.98650 0.45610 -0.08500
H 	H 	0.63710 0.01720 0.42380 0.05200
N 	N 	0.41150 0.61880 0.12884 -0.25000
C 	C 	0.44850 0.64990 0.02990 0.08200
H 	H 	0.35870 0.69570 0.99300 -0.02100
C 	C 	0.61220 0.61820 0.97880 -0.15800
H 	H 	0.63170 0.64160 0.90830 0.07500
C 	C 	0.74790 0.55220 0.03040 0.10100
C 	C 	0.70540 0.51640 0.13270 -0.15800
H 	H 	0.79060 0.46840 0.17080 0.07800
C 	C 	0.53910 0.55130 0.17790 0.08000
H 	H 	0.51320 0.52620 0.24760 -0.02000
C 	C 	0.92540 0.52360 0.97800 -0.09200
H 	H 	0.93440 0.54020 0.90640 0.04700
N 	N 	0.04670 0.81010 0.11550 -0.23200
C 	C 	0.00450 0.90490 0.14290 0.07400
H 	H 	0.08100 0.92570 0.18740 -0.00900
C 	C 	0.85610 0.97360 0.11000 -0.15200
H 	H 	0.83420 0.04020 0.13070 0.07400
C 	C 	0.73880 0.94530 0.04650 0.10100
C 	C 	0.78760 0.84920 0.01370 -0.15400
H 	H 	0.71640 0.82760 0.96710 0.07700
C 	C 	0.93920 0.78600 0.04930 0.07700
H 	H 	0.96980 0.72130 0.02550 -0.01500
C 	C 	0.57130 0.01390 0.01970 -0.08600
H 	H 	0.56380 0.08380 0.03150 0.05100
