data_crystal

_cell_length_a 41.28800
_cell_length_b 41.28800
_cell_length_c 17.54020
_cell_angle_alpha 90.00000
_cell_angle_beta  90.00000
_cell_angle_gamma 120.00000

_symmetry_space_group_name_	'P 1'
_symmetry_space_group_name_H-M	'P 1'

loop_
_symmetry_equiv_pos_as_xyz
  x,y,z

loop_
_atom_site_label
_atom_site_type_symbol
_atom_site_fract_x
_atom_site_fract_y
_atom_site_fract_z
_atom_site_charge
Zn	Zn	0.37192 0.40083 0.33952 1.21700
O 	O 	0.29345 0.40343 0.15747 -0.51300
O 	O 	0.33008 0.38716 0.09355 -0.50900
O 	O 	0.01710 0.37344 0.68648 -0.51300
O 	O 	0.41707 0.43327 0.39620 -0.51900
O 	O 	0.43983 0.48791 0.33840 -0.51400
C 	C 	0.30262 0.39241 0.09961 0.41600
C 	C 	0.28082 0.38738 0.02766 -0.13600
C 	C 	0.28678 0.37039 0.96460 0.06100
C 	C 	0.26682 0.36715 0.89670 -0.02500
C 	C 	0.24268 0.38030 0.89244 0.02300
C 	C 	0.23655 0.39614 0.95640 -0.02700
C 	C 	0.25451 0.39862 0.02380 0.06200
C 	C 	0.22318 0.37755 0.81905 -0.00900
C 	C 	0.18839 0.37533 0.82020 0.00700
C 	C 	0.12330 0.38660 0.68560 -0.01500
C 	C 	0.08920 0.38730 0.68640 0.03700
C 	C 	0.11070 0.35790 0.81210 -0.01100
C 	C 	0.07740 0.36010 0.81310 0.03500
C 	C 	0.32251 0.53734 0.28859 0.04800
C 	C 	0.31823 0.56853 0.29560 -0.02100
C 	C 	0.34463 0.60246 0.26390 0.01200
C 	C 	0.37531 0.60521 0.22530 -0.01700
C 	C 	0.37959 0.57402 0.21836 0.04400
C 	C 	0.43980 0.46676 0.38940 0.43600
C 	C 	0.47180 0.48443 0.44760 -0.14800
C 	C 	0.47410 0.46640 0.49850 0.05800
C 	C 	0.49730 0.51870 0.43870 0.04500
Zn	Zn	0.59917 0.97109 0.33952 1.21600
O 	O 	0.59657 0.89002 0.15747 -0.51400
O 	O 	0.61284 0.94292 0.09355 -0.51000
O 	O 	0.62656 0.64366 0.68648 -0.51400
O 	O 	0.56673 0.98380 0.39620 -0.52000
O 	O 	0.51209 0.95192 0.33840 -0.51500
C 	C 	0.60759 0.91021 0.09961 0.41500
C 	C 	0.61262 0.89344 0.02766 -0.13700
C 	C 	0.62961 0.91639 0.96460 0.06000
C 	C 	0.63285 0.89967 0.89670 -0.02600
C 	C 	0.61970 0.86238 0.89244 0.02200
C 	C 	0.60386 0.84041 0.95640 -0.02800
C 	C 	0.60138 0.85589 0.02380 0.06100
C 	C 	0.62245 0.84563 0.81905 -0.01000
C 	C 	0.62467 0.81306 0.82020 0.00600
C 	C 	0.61340 0.73670 0.68560 -0.01600
C 	C 	0.61270 0.70190 0.68640 0.03600
C 	C 	0.64210 0.75280 0.81210 -0.01200
C 	C 	0.63990 0.71730 0.81310 0.03500
C 	C 	0.46266 0.78517 0.28859 0.04800
C 	C 	0.43147 0.74970 0.29560 -0.02100
C 	C 	0.39754 0.74217 0.26390 0.01200
C 	C 	0.39479 0.77010 0.22530 -0.01700
C 	C 	0.42598 0.80557 0.21836 0.04400
C 	C 	0.53324 0.97304 0.38940 0.43600
C 	C 	0.51557 0.98737 0.44760 -0.14800
C 	C 	0.53360 0.00770 0.49850 0.05800
C 	C 	0.48130 0.97860 0.43870 0.04500
Zn	Zn	0.02891 0.62808 0.33952 1.21600
O 	O 	0.10998 0.70655 0.15747 -0.51400
O 	O 	0.05708 0.66992 0.09355 -0.51000
O 	O 	0.35634 0.98290 0.68648 -0.51400
O 	O 	0.01620 0.58293 0.39620 -0.52000
O 	O 	0.04808 0.56017 0.33840 -0.51500
C 	C 	0.08979 0.69738 0.09961 0.41500
C 	C 	0.10656 0.71918 0.02766 -0.13700
C 	C 	0.08361 0.71322 0.96460 0.06000
C 	C 	0.10033 0.73318 0.89670 -0.02600
C 	C 	0.13762 0.75732 0.89244 0.02200
C 	C 	0.15959 0.76345 0.95640 -0.02800
C 	C 	0.14411 0.74549 0.02380 0.06100
C 	C 	0.15437 0.77682 0.81905 -0.01000
C 	C 	0.18694 0.81161 0.82020 0.00600
C 	C 	0.26330 0.87670 0.68560 -0.01600
C 	C 	0.29810 0.91080 0.68640 0.03600
C 	C 	0.24720 0.88930 0.81210 -0.01200
C 	C 	0.28270 0.92260 0.81310 0.03500
C 	C 	0.21483 0.67749 0.28859 0.04800
C 	C 	0.25030 0.68177 0.29560 -0.02100
C 	C 	0.25783 0.65537 0.26390 0.01200
C 	C 	0.22990 0.62469 0.22530 -0.01700
C 	C 	0.19443 0.62041 0.21836 0.04400
C 	C 	0.02696 0.56020 0.38940 0.43600
C 	C 	0.01263 0.52820 0.44760 -0.14800
C 	C 	0.99230 0.52590 0.49850 0.05800
C 	C 	0.02140 0.50270 0.43870 0.04500
Zn	Zn	0.62808 0.59917 0.83952 1.21600
O 	O 	0.70655 0.59657 0.65747 -0.51400
O 	O 	0.66992 0.61284 0.59355 -0.51000
O 	O 	0.98290 0.62656 0.18648 -0.51400
O 	O 	0.58293 0.56673 0.89620 -0.52000
O 	O 	0.56017 0.51209 0.83840 -0.51500
C 	C 	0.69738 0.60759 0.59961 0.41500
C 	C 	0.71918 0.61262 0.52766 -0.13700
C 	C 	0.71322 0.62961 0.46460 0.06000
C 	C 	0.73318 0.63285 0.39670 -0.02600
C 	C 	0.75732 0.61970 0.39244 0.02200
C 	C 	0.76345 0.60386 0.45640 -0.02800
C 	C 	0.74549 0.60138 0.52380 0.06100
C 	C 	0.77682 0.62245 0.31905 -0.01000
C 	C 	0.81161 0.62467 0.32020 0.00600
C 	C 	0.87670 0.61340 0.18560 -0.01600
C 	C 	0.91080 0.61270 0.18640 0.03600
C 	C 	0.88930 0.64210 0.31210 -0.01200
C 	C 	0.92260 0.63990 0.31310 0.03500
C 	C 	0.67749 0.46266 0.78859 0.04800
C 	C 	0.68177 0.43147 0.79560 -0.02100
C 	C 	0.65537 0.39754 0.76390 0.01200
C 	C 	0.62469 0.39479 0.72530 -0.01700
C 	C 	0.62041 0.42598 0.71836 0.04400
C 	C 	0.56020 0.53324 0.88940 0.43600
C 	C 	0.52820 0.51557 0.94760 -0.14800
C 	C 	0.52590 0.53360 0.99850 0.05800
C 	C 	0.50270 0.48130 0.93870 0.04500
Zn	Zn	0.40083 0.02891 0.83952 1.21600
O 	O 	0.40343 0.10998 0.65747 -0.51400
O 	O 	0.38716 0.05708 0.59355 -0.51000
O 	O 	0.37344 0.35634 0.18648 -0.51400
O 	O 	0.43327 0.01620 0.89620 -0.52000
O 	O 	0.48791 0.04808 0.83840 -0.51500
C 	C 	0.39241 0.08979 0.59961 0.41500
C 	C 	0.38738 0.10656 0.52766 -0.13700
C 	C 	0.37039 0.08361 0.46460 0.06000
C 	C 	0.36715 0.10033 0.39670 -0.02600
C 	C 	0.38030 0.13762 0.39244 0.02200
C 	C 	0.39614 0.15959 0.45640 -0.02800
C 	C 	0.39862 0.14411 0.52380 0.06100
C 	C 	0.37755 0.15437 0.31905 -0.01000
C 	C 	0.37533 0.18694 0.32020 0.00600
C 	C 	0.38660 0.26330 0.18560 -0.01600
C 	C 	0.38730 0.29810 0.18640 0.03600
C 	C 	0.35790 0.24720 0.31210 -0.01200
C 	C 	0.36010 0.28270 0.31310 0.03500
C 	C 	0.53734 0.21483 0.78859 0.04800
C 	C 	0.56853 0.25030 0.79560 -0.02100
C 	C 	0.60246 0.25783 0.76390 0.01200
C 	C 	0.60521 0.22990 0.72530 -0.01700
C 	C 	0.57402 0.19443 0.71836 0.04400
C 	C 	0.46676 0.02696 0.88940 0.43600
C 	C 	0.48443 0.01263 0.94760 -0.14800
C 	C 	0.46640 0.99230 0.99850 0.05800
C 	C 	0.51870 0.02140 0.93870 0.04500
Zn	Zn	0.97109 0.37192 0.83952 1.21600
O 	O 	0.89002 0.29345 0.65747 -0.51400
O 	O 	0.94292 0.33008 0.59355 -0.51000
O 	O 	0.64366 0.01710 0.18648 -0.51400
O 	O 	0.98380 0.41707 0.89620 -0.52000
O 	O 	0.95192 0.43983 0.83840 -0.51500
C 	C 	0.91021 0.30262 0.59961 0.41500
C 	C 	0.89344 0.28082 0.52766 -0.13700
C 	C 	0.91639 0.28678 0.46460 0.06000
C 	C 	0.89967 0.26682 0.39670 -0.02600
C 	C 	0.86238 0.24268 0.39244 0.02200
C 	C 	0.84041 0.23655 0.45640 -0.02800
C 	C 	0.85589 0.25451 0.52380 0.06100
C 	C 	0.84563 0.22318 0.31905 -0.01000
C 	C 	0.81306 0.18839 0.32020 0.00600
C 	C 	0.73670 0.12330 0.18560 -0.01600
C 	C 	0.70190 0.08920 0.18640 0.03600
C 	C 	0.75280 0.11070 0.31210 -0.01200
C 	C 	0.71730 0.07740 0.31310 0.03500
C 	C 	0.78517 0.32251 0.78859 0.04800
C 	C 	0.74970 0.31823 0.79560 -0.02100
C 	C 	0.74217 0.34463 0.76390 0.01200
C 	C 	0.77010 0.37531 0.72530 -0.01700
C 	C 	0.80557 0.37959 0.71836 0.04400
C 	C 	0.97304 0.43980 0.88940 0.43600
C 	C 	0.98737 0.47180 0.94760 -0.14800
C 	C 	0.00770 0.47410 0.99850 0.05800
C 	C 	0.97860 0.49730 0.93870 0.04500
Zn	Zn	0.62808 0.59917 0.66048 1.21600
O 	O 	0.70655 0.59657 0.84253 -0.51400
O 	O 	0.66992 0.61284 0.90645 -0.51000
O 	O 	0.98290 0.62656 0.31352 -0.51400
O 	O 	0.58293 0.56673 0.60380 -0.52000
O 	O 	0.56017 0.51209 0.66160 -0.51500
C 	C 	0.69738 0.60759 0.90039 0.41500
C 	C 	0.71918 0.61262 0.97234 -0.13700
C 	C 	0.71322 0.62961 0.03540 0.06000
C 	C 	0.73318 0.63285 0.10330 -0.02600
C 	C 	0.75732 0.61970 0.10756 0.02200
C 	C 	0.76345 0.60386 0.04360 -0.02800
C 	C 	0.74549 0.60138 0.97620 0.06100
C 	C 	0.77682 0.62245 0.18095 -0.01000
C 	C 	0.81161 0.62467 0.17980 0.00600
C 	C 	0.87670 0.61340 0.31440 -0.01600
C 	C 	0.91080 0.61270 0.31360 0.03600
C 	C 	0.88930 0.64210 0.18790 -0.01200
C 	C 	0.92260 0.63990 0.18690 0.03500
C 	C 	0.67749 0.46266 0.71141 0.04800
C 	C 	0.68177 0.43147 0.70440 -0.02100
C 	C 	0.65537 0.39754 0.73610 0.01200
C 	C 	0.62469 0.39479 0.77470 -0.01700
C 	C 	0.62041 0.42598 0.78164 0.04400
C 	C 	0.56020 0.53324 0.61060 0.43600
C 	C 	0.52820 0.51557 0.55240 -0.14800
C 	C 	0.52590 0.53360 0.50150 0.05800
C 	C 	0.50270 0.48130 0.56130 0.04500
Zn	Zn	0.40083 0.02891 0.66048 1.21600
O 	O 	0.40343 0.10998 0.84253 -0.51400
O 	O 	0.38716 0.05708 0.90645 -0.51000
O 	O 	0.37344 0.35634 0.31352 -0.51400
O 	O 	0.43327 0.01620 0.60380 -0.52000
O 	O 	0.48791 0.04808 0.66160 -0.51500
C 	C 	0.39241 0.08979 0.90039 0.41500
C 	C 	0.38738 0.10656 0.97234 -0.13700
C 	C 	0.37039 0.08361 0.03540 0.06000
C 	C 	0.36715 0.10033 0.10330 -0.02600
C 	C 	0.38030 0.13762 0.10756 0.02200
C 	C 	0.39614 0.15959 0.04360 -0.02800
C 	C 	0.39862 0.14411 0.97620 0.06100
C 	C 	0.37755 0.15437 0.18095 -0.01000
C 	C 	0.37533 0.18694 0.17980 0.00600
C 	C 	0.38660 0.26330 0.31440 -0.01600
C 	C 	0.38730 0.29810 0.31360 0.03600
C 	C 	0.35790 0.24720 0.18790 -0.01200
C 	C 	0.36010 0.28270 0.18690 0.03500
C 	C 	0.53734 0.21483 0.71141 0.04800
C 	C 	0.56853 0.25030 0.70440 -0.02100
C 	C 	0.60246 0.25783 0.73610 0.01200
C 	C 	0.60521 0.22990 0.77470 -0.01700
C 	C 	0.57402 0.19443 0.78164 0.04400
C 	C 	0.46676 0.02696 0.61060 0.43600
C 	C 	0.48443 0.01263 0.55240 -0.14800
C 	C 	0.46640 0.99230 0.50150 0.05800
C 	C 	0.51870 0.02140 0.56130 0.04500
Zn	Zn	0.97109 0.37192 0.66048 1.21600
O 	O 	0.89002 0.29345 0.84253 -0.51400
O 	O 	0.94292 0.33008 0.90645 -0.51000
O 	O 	0.64366 0.01710 0.31352 -0.51400
O 	O 	0.98380 0.41707 0.60380 -0.52000
O 	O 	0.95192 0.43983 0.66160 -0.51500
C 	C 	0.91021 0.30262 0.90039 0.41500
C 	C 	0.89344 0.28082 0.97234 -0.13700
C 	C 	0.91639 0.28678 0.03540 0.06000
C 	C 	0.89967 0.26682 0.10330 -0.02600
C 	C 	0.86238 0.24268 0.10756 0.02200
C 	C 	0.84041 0.23655 0.04360 -0.02800
C 	C 	0.85589 0.25451 0.97620 0.06100
C 	C 	0.84563 0.22318 0.18095 -0.01000
C 	C 	0.81306 0.18839 0.17980 0.00600
C 	C 	0.73670 0.12330 0.31440 -0.01600
C 	C 	0.70190 0.08920 0.31360 0.03600
C 	C 	0.75280 0.11070 0.18790 -0.01200
C 	C 	0.71730 0.07740 0.18690 0.03500
C 	C 	0.78517 0.32251 0.71141 0.04800
C 	C 	0.74970 0.31823 0.70440 -0.02100
C 	C 	0.74217 0.34463 0.73610 0.01200
C 	C 	0.77010 0.37531 0.77470 -0.01700
C 	C 	0.80557 0.37959 0.78164 0.04400
C 	C 	0.97304 0.43980 0.61060 0.43600
C 	C 	0.98737 0.47180 0.55240 -0.14800
C 	C 	0.00770 0.47410 0.50150 0.05800
C 	C 	0.97860 0.49730 0.56130 0.04500
Zn	Zn	0.37192 0.40083 0.16048 1.21600
O 	O 	0.29345 0.40343 0.34253 -0.51400
O 	O 	0.33008 0.38716 0.40645 -0.51000
O 	O 	0.01710 0.37344 0.81352 -0.51400
O 	O 	0.41707 0.43327 0.10380 -0.52000
O 	O 	0.43983 0.48791 0.16160 -0.51500
C 	C 	0.30262 0.39241 0.40039 0.41500
C 	C 	0.28082 0.38738 0.47234 -0.13700
C 	C 	0.28678 0.37039 0.53540 0.06000
C 	C 	0.26682 0.36715 0.60330 -0.02600
C 	C 	0.24268 0.38030 0.60756 0.02200
C 	C 	0.23655 0.39614 0.54360 -0.02800
C 	C 	0.25451 0.39862 0.47620 0.06100
C 	C 	0.22318 0.37755 0.68095 -0.01000
C 	C 	0.18839 0.37533 0.67980 0.00600
C 	C 	0.12330 0.38660 0.81440 -0.01600
C 	C 	0.08920 0.38730 0.81360 0.03600
C 	C 	0.11070 0.35790 0.68790 -0.01200
C 	C 	0.07740 0.36010 0.68690 0.03500
C 	C 	0.32251 0.53734 0.21141 0.04800
C 	C 	0.31823 0.56853 0.20440 -0.02100
C 	C 	0.34463 0.60246 0.23610 0.01200
C 	C 	0.37531 0.60521 0.27470 -0.01700
C 	C 	0.37959 0.57402 0.28164 0.04400
C 	C 	0.43980 0.46676 0.11060 0.43600
C 	C 	0.47180 0.48443 0.05240 -0.14800
C 	C 	0.47410 0.46640 0.00150 0.05800
C 	C 	0.49730 0.51870 0.06130 0.04500
Zn	Zn	0.59917 0.97109 0.16048 1.21600
O 	O 	0.59657 0.89002 0.34253 -0.51400
O 	O 	0.61284 0.94292 0.40645 -0.51000
O 	O 	0.62656 0.64366 0.81352 -0.51400
O 	O 	0.56673 0.98380 0.10380 -0.52000
O 	O 	0.51209 0.95192 0.16160 -0.51500
C 	C 	0.60759 0.91021 0.40039 0.41500
C 	C 	0.61262 0.89344 0.47234 -0.13700
C 	C 	0.62961 0.91639 0.53540 0.06000
C 	C 	0.63285 0.89967 0.60330 -0.02600
C 	C 	0.61970 0.86238 0.60756 0.02200
C 	C 	0.60386 0.84041 0.54360 -0.02800
C 	C 	0.60138 0.85589 0.47620 0.06100
C 	C 	0.62245 0.84563 0.68095 -0.01000
C 	C 	0.62467 0.81306 0.67980 0.00600
C 	C 	0.61340 0.73670 0.81440 -0.01600
C 	C 	0.61270 0.70190 0.81360 0.03600
C 	C 	0.64210 0.75280 0.68790 -0.01200
C 	C 	0.63990 0.71730 0.68690 0.03500
C 	C 	0.46266 0.78517 0.21141 0.04800
C 	C 	0.43147 0.74970 0.20440 -0.02100
C 	C 	0.39754 0.74217 0.23610 0.01200
C 	C 	0.39479 0.77010 0.27470 -0.01700
C 	C 	0.42598 0.80557 0.28164 0.04400
C 	C 	0.53324 0.97304 0.11060 0.43600
C 	C 	0.51557 0.98737 0.05240 -0.14800
C 	C 	0.53360 0.00770 0.00150 0.05800
C 	C 	0.48130 0.97860 0.06130 0.04500
Zn	Zn	0.02891 0.62808 0.16048 1.21600
O 	O 	0.10998 0.70655 0.34253 -0.51400
O 	O 	0.05708 0.66992 0.40645 -0.51000
O 	O 	0.35634 0.98290 0.81352 -0.51400
O 	O 	0.01620 0.58293 0.10380 -0.52000
O 	O 	0.04808 0.56017 0.16160 -0.51500
C 	C 	0.08979 0.69738 0.40039 0.41500
C 	C 	0.10656 0.71918 0.47234 -0.13700
C 	C 	0.08361 0.71322 0.53540 0.06000
C 	C 	0.10033 0.73318 0.60330 -0.02600
C 	C 	0.13762 0.75732 0.60756 0.02200
C 	C 	0.15959 0.76345 0.54360 -0.02800
C 	C 	0.14411 0.74549 0.47620 0.06100
C 	C 	0.15437 0.77682 0.68095 -0.01000
C 	C 	0.18694 0.81161 0.67980 0.00600
C 	C 	0.26330 0.87670 0.81440 -0.01600
C 	C 	0.29810 0.91080 0.81360 0.03600
C 	C 	0.24720 0.88930 0.68790 -0.01200
C 	C 	0.28270 0.92260 0.68690 0.03500
C 	C 	0.21483 0.67749 0.21141 0.04800
C 	C 	0.25030 0.68177 0.20440 -0.02100
C 	C 	0.25783 0.65537 0.23610 0.01200
C 	C 	0.22990 0.62469 0.27470 -0.01700
C 	C 	0.19443 0.62041 0.28164 0.04400
C 	C 	0.02696 0.56020 0.11060 0.43600
C 	C 	0.01263 0.52820 0.05240 -0.14800
C 	C 	0.99230 0.52590 0.00150 0.05800
C 	C 	0.02140 0.50270 0.06130 0.04500
Zn	Zn	0.32064 0.42520 0.25000 1.21900
Zn	Zn	0.40834 0.47783 0.25000 1.22000
O 	O 	0.36846 0.42670 0.25000 -0.95800
O 	O 	0.38963 0.51209 0.25000 -0.52900
O 	O 	0.32935 0.47526 0.25000 -0.53400
C 	C 	0.35736 0.50678 0.25000 0.47300
C 	C 	0.35319 0.54008 0.25000 -0.18800
C 	C 	0.33820 0.63564 0.25000 -0.01000
C 	C 	0.36833 0.67092 0.25000 0.00600
Zn	Zn	0.57480 0.89544 0.25000 1.21900
Zn	Zn	0.52217 0.93051 0.25000 1.22000
O 	O 	0.57330 0.94176 0.25000 -0.95800
O 	O 	0.48791 0.87754 0.25000 -0.52900
O 	O 	0.52474 0.85409 0.25000 -0.53400
C 	C 	0.49322 0.85058 0.25000 0.47300
C 	C 	0.45992 0.81311 0.25000 -0.18800
C 	C 	0.36436 0.70256 0.25000 -0.01000
C 	C 	0.32908 0.69741 0.25000 0.00600
Zn	Zn	0.10456 0.67936 0.25000 1.21900
Zn	Zn	0.06949 0.59166 0.25000 1.22000
O 	O 	0.05824 0.63154 0.25000 -0.95800
O 	O 	0.12246 0.61037 0.25000 -0.52900
O 	O 	0.14591 0.67065 0.25000 -0.53400
C 	C 	0.14942 0.64264 0.25000 0.47300
C 	C 	0.18689 0.64681 0.25000 -0.18800
C 	C 	0.29744 0.66180 0.25000 -0.01000
C 	C 	0.30259 0.63167 0.25000 0.00600
Zn	Zn	0.67936 0.57480 0.75000 1.21900
Zn	Zn	0.59166 0.52217 0.75000 1.22000
O 	O 	0.63154 0.57330 0.75000 -0.95800
O 	O 	0.61037 0.48791 0.75000 -0.52900
O 	O 	0.67065 0.52474 0.75000 -0.53400
C 	C 	0.64264 0.49322 0.75000 0.47300
C 	C 	0.64681 0.45992 0.75000 -0.18800
C 	C 	0.66180 0.36436 0.75000 -0.01000
C 	C 	0.63167 0.32908 0.75000 0.00600
Zn	Zn	0.42520 0.10456 0.75000 1.21900
Zn	Zn	0.47783 0.06949 0.75000 1.22000
O 	O 	0.42670 0.05824 0.75000 -0.95800
O 	O 	0.51209 0.12246 0.75000 -0.52900
O 	O 	0.47526 0.14591 0.75000 -0.53400
C 	C 	0.50678 0.14942 0.75000 0.47300
C 	C 	0.54008 0.18689 0.75000 -0.18800
C 	C 	0.63564 0.29744 0.75000 -0.01000
C 	C 	0.67092 0.30259 0.75000 0.00600
Zn	Zn	0.89544 0.32064 0.75000 1.21900
Zn	Zn	0.93051 0.40834 0.75000 1.22000
O 	O 	0.94176 0.36846 0.75000 -0.95800
O 	O 	0.87754 0.38963 0.75000 -0.52900
O 	O 	0.85409 0.32935 0.75000 -0.53400
C 	C 	0.85058 0.35736 0.75000 0.47300
C 	C 	0.81311 0.35319 0.75000 -0.18800
C 	C 	0.70256 0.33820 0.75000 -0.01000
C 	C 	0.69741 0.36833 0.75000 0.00600
C 	C 	0.23994 0.37760 0.75000 0.00600
C 	C 	0.17087 0.37470 0.75000 -0.00900
C 	C 	0.13424 0.37300 0.75000 0.02000
C 	C 	0.06619 0.37285 0.75000 -0.15800
C 	C 	0.03139 0.37381 0.75000 0.42700
C 	C 	0.62240 0.86234 0.75000 0.00600
C 	C 	0.62530 0.79617 0.75000 -0.00900
C 	C 	0.62700 0.76124 0.75000 0.02000
C 	C 	0.62715 0.69334 0.75000 -0.15800
C 	C 	0.62619 0.65758 0.75000 0.42700
C 	C 	0.13766 0.76006 0.75000 0.00600
C 	C 	0.20383 0.82913 0.75000 -0.00900
C 	C 	0.23876 0.86576 0.75000 0.02000
C 	C 	0.30666 0.93381 0.75000 -0.15800
C 	C 	0.34242 0.96861 0.75000 0.42700
C 	C 	0.76006 0.62240 0.25000 0.00600
C 	C 	0.82913 0.62530 0.25000 -0.00900
C 	C 	0.86576 0.62700 0.25000 0.02000
C 	C 	0.93381 0.62715 0.25000 -0.15800
C 	C 	0.96861 0.62619 0.25000 0.42700
C 	C 	0.37760 0.13766 0.25000 0.00600
C 	C 	0.37470 0.20383 0.25000 -0.00900
C 	C 	0.37300 0.23876 0.25000 0.02000
C 	C 	0.37285 0.30666 0.25000 -0.15800
C 	C 	0.37381 0.34242 0.25000 0.42700
C 	C 	0.86234 0.23994 0.25000 0.00600
C 	C 	0.79617 0.17087 0.25000 -0.00900
C 	C 	0.76124 0.13424 0.25000 0.02000
C 	C 	0.69334 0.06619 0.25000 -0.15800
C 	C 	0.65758 0.03139 0.25000 0.42700
