data_crystal

_cell_length_a 6.92240
_cell_length_b 18.80900
_cell_length_c 9.68490
_cell_angle_alpha 90.00000
_cell_angle_beta  90.00000
_cell_angle_gamma 90.00000

_symmetry_space_group_name_	'P 1'
_symmetry_space_group_name_H-M	'P 1'

loop_
_symmetry_equiv_pos_as_xyz
  x,y,z

loop_
_atom_site_label
_atom_site_type_symbol
_atom_site_fract_x
_atom_site_fract_y
_atom_site_fract_z
_atom_site_charge
Ba	Ba	0.75000 0.75000 0.49331 1.60700
Ba	Ba	0.25000 0.25000 0.00669 1.24700
Ba	Ba	0.25000 0.25000 0.50669 1.55700
Ba	Ba	0.75000 0.75000 0.99331 1.88500
Cd	Cd	0.00000 0.50000 -0.00000 1.18300
Cd	Cd	0.50000 0.00000 -0.00000 1.17400
Cd	Cd	0.50000 0.50000 0.50000 1.25300
Cd	Cd	-0.00000 0.00000 0.50000 1.18600
H 	H 	0.42860 0.56930 0.83140 0.23400
H 	H 	0.62370 0.58220 0.90760 0.23300
H 	H 	0.07140 0.93070 0.83140 0.09700
H 	H 	0.87630 0.91780 0.90760 0.15300
H 	H 	0.92860 0.43070 0.66860 0.33700
H 	H 	0.12370 0.41780 0.59240 0.24400
H 	H 	0.57140 0.06930 0.66860 0.25800
H 	H 	0.37630 0.08220 0.59240 0.23000
H 	H 	0.57140 0.43070 0.16860 0.21000
H 	H 	0.37630 0.41780 0.09240 0.17400
H 	H 	0.92860 0.06930 0.16860 0.36200
H 	H 	0.12370 0.08220 0.09240 0.25700
H 	H 	0.07140 0.56930 0.33140 0.09500
H 	H 	0.87630 0.58220 0.40760 0.15300
H 	H 	0.42860 0.93070 0.33140 0.18000
H 	H 	0.62370 0.91780 0.40760 0.17000
C 	C 	0.61650 0.48650 0.80840 0.54900
C 	C 	0.56770 0.56560 0.82160 -0.73000
C 	C 	0.62800 0.61750 0.70950 0.56100
C 	C 	0.88350 0.01350 0.80840 0.36000
C 	C 	0.93230 0.93440 0.82160 -0.37000
C 	C 	0.87200 0.88250 0.70950 0.46200
C 	C 	0.11650 0.51350 0.69160 0.58600
C 	C 	0.06770 0.43440 0.67840 -0.90800
C 	C 	0.12800 0.38250 0.79050 0.57800
C 	C 	0.38350 0.98650 0.69160 0.67000
C 	C 	0.43230 0.06560 0.67840 -0.87100
C 	C 	0.37200 0.11750 0.79050 0.56400
C 	C 	0.38350 0.51350 0.19160 0.53700
C 	C 	0.43230 0.43440 0.17840 -0.71200
C 	C 	0.37200 0.38250 0.29050 0.52500
C 	C 	0.11650 0.98650 0.19160 0.73800
C 	C 	0.06770 0.06560 0.17840 -1.10100
C 	C 	0.12800 0.11750 0.29050 0.62800
C 	C 	0.88350 0.48650 0.30840 0.49000
C 	C 	0.93230 0.56560 0.32160 -0.50900
C 	C 	0.87200 0.61750 0.20950 0.49800
C 	C 	0.61650 0.01350 0.30840 0.40100
C 	C 	0.56770 0.93440 0.32160 -0.54400
C 	C 	0.62800 0.88250 0.20950 0.51200
O 	O 	0.70600 0.45810 0.90610 -0.40300
O 	O 	0.56060 0.45250 0.70610 -0.49700
O 	O 	0.63430 0.59860 0.58380 -0.58000
O 	O 	0.65900 0.68040 0.74700 -0.64400
O 	O 	0.79400 0.04190 0.90610 -0.39200
O 	O 	0.93940 0.04750 0.70610 -0.44000
O 	O 	0.86570 0.90140 0.58380 -0.50000
O 	O 	0.84100 0.81960 0.74700 -0.60100
O 	O 	0.20600 0.54190 0.59390 -0.51900
O 	O 	0.06060 0.54750 0.79390 -0.53800
O 	O 	0.13430 0.40140 0.91620 -0.51700
O 	O 	0.15900 0.31960 0.75300 -0.59400
O 	O 	0.29400 0.95810 0.59390 -0.49400
O 	O 	0.43940 0.95250 0.79390 -0.48600
O 	O 	0.36570 0.09860 0.91620 -0.52100
O 	O 	0.34100 0.18040 0.75300 -0.57800
O 	O 	0.29400 0.54190 0.09390 -0.55500
O 	O 	0.43940 0.54750 0.29390 -0.53100
O 	O 	0.36570 0.40140 0.41620 -0.57600
O 	O 	0.34100 0.31960 0.25300 -0.60200
O 	O 	0.20600 0.95810 0.09390 -0.56100
O 	O 	0.06060 0.95250 0.29390 -0.57200
O 	O 	0.13430 0.09860 0.41620 -0.64000
O 	O 	0.15900 0.18040 0.25300 -0.64800
O 	O 	0.79400 0.45810 0.40610 -0.45300
O 	O 	0.93940 0.45250 0.20610 -0.46500
O 	O 	0.86570 0.59860 0.08380 -0.60700
O 	O 	0.84100 0.68040 0.24700 -0.64400
O 	O 	0.70600 0.04190 0.40610 -0.45800
O 	O 	0.56060 0.04750 0.20610 -0.52000
O 	O 	0.63430 0.90140 0.08380 -0.59700
O 	O 	0.65900 0.81960 0.24700 -0.66000
