data_crystal

_cell_length_a 10.52500
_cell_length_b 11.03400
_cell_length_c 12.85500
_cell_angle_alpha 99.35900
_cell_angle_beta  111.30100
_cell_angle_gamma 101.26500

_symmetry_space_group_name_	'P 1'
_symmetry_space_group_name_H-M	'P 1'

loop_
_symmetry_equiv_pos_as_xyz
  x,y,z

loop_
_atom_site_label
_atom_site_type_symbol
_atom_site_fract_x
_atom_site_fract_y
_atom_site_fract_z
_atom_site_charge
Y 	Y 	0.60986 0.54621 0.67714 2.37500
O 	O 	0.50030 0.33030 0.59520 -0.63700
O 	O 	0.66640 0.50860 0.52420 -0.69100
O 	O 	0.83600 0.70700 0.76430 -0.43700
O 	O 	0.42890 0.28300 0.40260 -0.58700
O 	O 	0.68070 0.72970 0.83650 -0.53400
O 	O 	0.61680 0.44920 0.33770 -0.58000
C 	C 	0.46910 0.25630 0.49770 0.70800
C 	C 	0.48250 0.12120 0.49740 -0.73000
C 	C 	0.49770 0.07690 0.59400 0.88700
H 	H 	0.49580 0.12980 0.65930 -1.75200
C 	C 	0.48450 0.04310 0.40210 0.78000
C 	C 	0.80160 0.76880 0.83530 0.02800
C 	C 	0.90070 0.88870 0.91750 0.59900
C 	C 	0.04070 0.92390 0.92870 0.84800
C 	C 	0.86200 0.96310 0.98970 -2.59500
C 	C 	0.70400 0.48130 0.44100 0.51600
C 	C 	0.85640 0.49030 0.47060 -0.27600
C 	C 	0.95650 0.54200 0.58370 -0.23900
H 	H 	0.92670 0.57070 0.64240 0.09300
C 	C 	0.90360 0.44780 0.38830 0.58200
N 	N 	0.71830 0.95900 0.97200 -4.42200
H 	H 	0.64740 0.90490 0.91130 1.13400
H 	H 	0.70110 0.00970 0.02270 1.26900
N 	N 	0.81140 0.38770 0.27190 0.69600
H 	H 	0.84560 0.35960 0.22260 -0.17300
H 	H 	0.71960 0.37830 0.24870 -0.10500
H 	H 	0.52640 0.92780 0.66540 -1.61100
H 	H 	0.07080 0.87160 0.88120 -0.27900
H 	H 	0.76800 0.93860 0.98510 3.99600
H 	H 	0.83720 0.41070 0.31060 -0.78100
N 	N 	0.10100 0.85700 0.86200 -0.02400
H 	H 	0.04850 0.78650 0.80760 0.07000
H 	H 	0.19120 0.88670 0.87520 -0.08600
N 	N 	0.52050 0.91800 0.70090 1.71700
H 	H 	0.51240 0.96990 0.75630 -0.42800
H 	H 	0.53170 0.84240 0.70820 -0.35100
N 	N 	0.49900 0.85700 0.29900 1.84600
H 	H 	0.50780 0.77840 0.29050 -0.33300
H 	H 	0.48900 0.89450 0.24260 -0.49500
Y 	Y 	0.39014 0.45379 0.32286 2.37600
O 	O 	0.49970 0.66970 0.40480 -0.63600
O 	O 	0.33360 0.49140 0.47580 -0.69000
O 	O 	0.16400 0.29300 0.23570 -0.43600
O 	O 	0.57110 0.71700 0.59740 -0.58700
O 	O 	0.31930 0.27030 0.16350 -0.53400
O 	O 	0.38320 0.55080 0.66230 -0.58000
C 	C 	0.53090 0.74370 0.50230 0.70800
C 	C 	0.51750 0.87880 0.50260 -0.73000
C 	C 	0.50230 0.92310 0.40600 0.88700
H 	H 	0.50420 0.87020 0.34070 -1.75200
C 	C 	0.51550 0.95690 0.59790 0.78000
C 	C 	0.19840 0.23120 0.16470 0.02800
C 	C 	0.09930 0.11130 0.08250 0.59900
C 	C 	0.95930 0.07610 0.07130 0.84800
C 	C 	0.13800 0.03690 0.01030 -2.59500
C 	C 	0.29600 0.51870 0.55900 0.51600
C 	C 	0.14360 0.50970 0.52940 -0.27600
C 	C 	0.04350 0.45800 0.41630 -0.23900
H 	H 	0.07330 0.42930 0.35760 0.09300
C 	C 	0.09640 0.55220 0.61170 0.58200
N 	N 	0.28170 0.04100 0.02800 -4.42200
H 	H 	0.35260 0.09510 0.08870 1.13400
H 	H 	0.29890 0.99030 0.97730 1.26900
N 	N 	0.18860 0.61230 0.72810 0.69600
H 	H 	0.15440 0.64040 0.77740 -0.17300
H 	H 	0.28040 0.62170 0.75130 -0.10500
H 	H 	0.47360 0.07220 0.33460 -1.61100
H 	H 	0.92920 0.12840 0.11880 -0.27900
H 	H 	0.23200 0.06140 0.01490 3.99600
H 	H 	0.16280 0.58930 0.68940 -0.78100
N 	N 	0.89900 0.14300 0.13800 -0.02400
H 	H 	0.95150 0.21350 0.19240 0.07000
H 	H 	0.80880 0.11330 0.12480 -0.08600
N 	N 	0.47950 0.08200 0.29910 1.71700
H 	H 	0.48760 0.03010 0.24370 -0.42800
H 	H 	0.46830 0.15760 0.29180 -0.35100
N 	N 	0.50100 0.14300 0.70100 1.84600
H 	H 	0.49220 0.22160 0.70950 -0.33300
H 	H 	0.51100 0.10550 0.75740 -0.49500
