data_crystal

_cell_length_a 18.46730
_cell_length_b 12.71170
_cell_length_c 20.47050
_cell_angle_alpha 90.00000
_cell_angle_beta  108.56600
_cell_angle_gamma 90.00000

_symmetry_space_group_name_	'P 1'
_symmetry_space_group_name_H-M	'P 1'

loop_
_symmetry_equiv_pos_as_xyz
  x,y,z

loop_
_atom_site_label
_atom_site_type_symbol
_atom_site_fract_x
_atom_site_fract_y
_atom_site_fract_z
_atom_site_charge
In	In	0.26916 0.91849 0.01361 2.02600
In	In	0.12451 0.97908 0.83935 1.99700
In	In	0.28526 0.61234 0.87674 1.99500
In	In	0.21583 0.42041 0.98206 2.02700
In	In	0.37055 0.47616 0.15239 1.99400
In	In	0.20766 0.11310 0.11886 1.99500
In	In	0.42363 0.85061 0.27046 1.96200
In	In	0.57093 0.14684 0.22071 1.96100
P 	P 	0.30358 0.87940 0.86713 0.58900
P 	P 	0.19154 0.37737 0.13105 0.59300
P 	P 	0.05691 0.09066 0.67466 0.59700
P 	P 	0.93990 0.91287 0.81528 0.61400
P 	P 	0.38974 0.04068 0.14832 0.58300
P 	P 	0.19560 0.15496 0.95889 0.56200
P 	P 	0.28785 0.65584 0.03702 0.57400
P 	P 	0.10291 0.54275 0.84437 0.58500
F 	F 	0.16000 0.89980 0.93607 -0.78900
F 	F 	0.32840 0.40220 0.05391 -0.78900
F 	F 	0.27670 0.45740 0.91170 -0.80300
F 	F 	0.20940 0.95600 0.08391 -0.80700
O 	O 	0.32650 0.65810 0.98080 -0.52700
O 	O 	0.25730 0.45520 0.15760 -0.54600
O 	O 	0.10250 0.49410 0.77560 -0.62100
O 	O 	0.11420 0.45400 0.89920 -0.52900
O 	O 	0.12660 0.40910 0.15850 -0.52600
O 	O 	0.88520 0.94570 0.74570 -0.61900
O 	O 	0.37480 0.95180 0.09310 -0.53000
O 	O 	0.46640 0.09260 0.15520 -0.53500
O 	O 	0.27620 0.76840 0.83860 -0.60500
O 	O 	0.03160 0.20680 0.67270 -0.58400
O 	O 	0.02710 0.59790 0.83660 -0.53600
O 	O 	0.22020 0.26620 0.15770 -0.61400
O 	O 	0.34850 0.62740 0.10610 -0.53000
O 	O 	0.15930 0.37850 0.05220 -0.51800
O 	O 	0.10770 0.06270 0.74680 -0.62500
O 	O 	0.32620 0.12370 0.12790 -0.54600
O 	O 	0.39130 0.99390 0.21750 -0.62000
O 	O 	0.98500 0.02200 0.65040 -0.53400
O 	O 	0.22270 0.57550 0.01950 -0.52200
O 	O 	0.01120 0.98190 0.83770 -0.54500
O 	O 	0.23010 0.26400 0.95300 -0.47400
O 	O 	0.16670 0.62470 0.86560 -0.54500
O 	O 	0.37230 0.91230 0.84570 -0.52800
O 	O 	0.96530 0.79800 0.81260 -0.59300
O 	O 	0.32930 0.87840 0.94590 -0.51600
O 	O 	0.23850 0.95850 0.83690 -0.55200
O 	O 	0.89980 0.91990 0.87000 -0.50900
O 	O 	0.25570 0.76400 0.04660 -0.47500
O 	O 	0.26000 0.07480 0.97620 -0.53300
O 	O 	0.13740 0.12860 0.88780 -0.52300
O 	O 	0.15510 0.15500 0.01380 -0.51100
O 	O 	0.10200 0.07930 0.62350 -0.50400
In	In	0.23084 0.41849 0.48639 2.02700
In	In	0.37549 0.47908 0.66065 1.99800
In	In	0.21474 0.11234 0.62326 1.99600
In	In	0.28417 0.92041 0.51794 2.02800
In	In	0.12945 0.97616 0.34761 1.99500
In	In	0.29234 0.61310 0.38114 1.99600
In	In	0.07637 0.35061 0.22954 1.96400
In	In	0.92907 0.64684 0.27929 1.96200
P 	P 	0.19642 0.37940 0.63287 0.58900
P 	P 	0.30846 0.87737 0.36895 0.59300
P 	P 	0.44309 0.59066 0.82534 0.59700
P 	P 	0.56010 0.41287 0.68472 0.61300
P 	P 	0.11026 0.54068 0.35168 0.58000
P 	P 	0.30440 0.65496 0.54111 0.56300
P 	P 	0.21215 0.15584 0.46298 0.57500
P 	P 	0.39709 0.04275 0.65563 0.58400
F 	F 	0.34000 0.39980 0.56393 -0.78900
F 	F 	0.17160 0.90220 0.44609 -0.78900
F 	F 	0.22330 0.95740 0.58830 -0.80300
F 	F 	0.29060 0.45600 0.41609 -0.80600
O 	O 	0.17350 0.15810 0.51920 -0.52800
O 	O 	0.24270 0.95520 0.34240 -0.54600
O 	O 	0.39750 0.99410 0.72440 -0.62000
O 	O 	0.38580 0.95400 0.60080 -0.52800
O 	O 	0.37340 0.90910 0.34150 -0.52600
O 	O 	0.61480 0.44570 0.75430 -0.61900
O 	O 	0.12520 0.45180 0.40690 -0.52800
O 	O 	0.03360 0.59260 0.34480 -0.53500
O 	O 	0.22380 0.26840 0.66140 -0.60500
O 	O 	0.46840 0.70680 0.82730 -0.58400
O 	O 	0.47290 0.09790 0.66340 -0.53500
O 	O 	0.27980 0.76620 0.34230 -0.61500
O 	O 	0.15150 0.12740 0.39390 -0.52900
O 	O 	0.34070 0.87850 0.44780 -0.51800
O 	O 	0.39230 0.56270 0.75320 -0.62400
O 	O 	0.17380 0.62370 0.37210 -0.54600
O 	O 	0.10870 0.49390 0.28250 -0.61800
O 	O 	0.51500 0.52200 0.84960 -0.53200
O 	O 	0.27730 0.07550 0.48050 -0.52100
O 	O 	0.48880 0.48190 0.66230 -0.54400
O 	O 	0.26990 0.76400 0.54700 -0.47400
O 	O 	0.33330 0.12470 0.63440 -0.54500
O 	O 	0.12770 0.41230 0.65430 -0.52800
O 	O 	0.53470 0.29800 0.68740 -0.59300
O 	O 	0.17070 0.37840 0.55410 -0.51700
O 	O 	0.26150 0.45850 0.66310 -0.55300
O 	O 	0.60020 0.41990 0.63000 -0.50900
O 	O 	0.24430 0.26400 0.45340 -0.47400
O 	O 	0.24000 0.57480 0.52380 -0.53300
O 	O 	0.36260 0.62860 0.61220 -0.52300
O 	O 	0.34490 0.65500 0.48620 -0.51300
O 	O 	0.39800 0.57930 0.87650 -0.50500
In	In	0.73084 0.08151 0.98639 2.02700
In	In	0.87549 0.02092 0.16065 1.99800
In	In	0.71474 0.38766 0.12326 1.99600
In	In	0.78417 0.57959 0.01794 2.02800
In	In	0.62945 0.52384 0.84761 1.99500
In	In	0.79234 0.88690 0.88114 1.99600
In	In	0.57637 0.14939 0.72954 1.96300
In	In	0.42907 0.85316 0.77929 1.96200
P 	P 	0.69642 0.12060 0.13287 0.58900
P 	P 	0.80846 0.62263 0.86895 0.59300
P 	P 	0.94309 0.90934 0.32534 0.59700
P 	P 	0.06010 0.08713 0.18472 0.61400
P 	P 	0.61026 0.95932 0.85168 0.58300
P 	P 	0.80440 0.84504 0.04111 0.56200
P 	P 	0.71215 0.34416 0.96298 0.57400
P 	P 	0.89709 0.45725 0.15563 0.58500
F 	F 	0.84000 0.10020 0.06393 -0.78900
F 	F 	0.67160 0.59780 0.94609 -0.78900
F 	F 	0.72330 0.54260 0.08830 -0.80300
F 	F 	0.79060 0.04400 0.91609 -0.80700
O 	O 	0.67350 0.34190 0.01920 -0.52700
O 	O 	0.74270 0.54480 0.84240 -0.54600
O 	O 	0.89750 0.50590 0.22440 -0.62100
O 	O 	0.88580 0.54600 0.10080 -0.52900
O 	O 	0.87340 0.59090 0.84150 -0.52600
O 	O 	0.11480 0.05430 0.25430 -0.61900
O 	O 	0.62520 0.04820 0.90690 -0.53000
O 	O 	0.53360 0.90740 0.84480 -0.53500
O 	O 	0.72380 0.23160 0.16140 -0.60500
O 	O 	0.96840 0.79320 0.32730 -0.58400
O 	O 	0.97290 0.40210 0.16340 -0.53600
O 	O 	0.77980 0.73380 0.84230 -0.61400
O 	O 	0.65150 0.37260 0.89390 -0.53000
O 	O 	0.84070 0.62150 0.94780 -0.51800
O 	O 	0.89230 0.93730 0.25320 -0.62500
O 	O 	0.67380 0.87630 0.87210 -0.54600
O 	O 	0.60870 0.00610 0.78250 -0.62000
O 	O 	0.01500 0.97800 0.34960 -0.53400
O 	O 	0.77730 0.42450 0.98050 -0.52200
O 	O 	0.98880 0.01810 0.16230 -0.54500
O 	O 	0.76990 0.73600 0.04700 -0.47400
O 	O 	0.83330 0.37530 0.13440 -0.54500
O 	O 	0.62770 0.08770 0.15430 -0.52800
O 	O 	0.03470 0.20200 0.18740 -0.59300
O 	O 	0.67070 0.12160 0.05410 -0.51600
O 	O 	0.76150 0.04150 0.16310 -0.55200
O 	O 	0.10020 0.08010 0.13000 -0.50900
O 	O 	0.74430 0.23600 0.95340 -0.47500
O 	O 	0.74000 0.92520 0.02380 -0.53300
O 	O 	0.86260 0.87140 0.11220 -0.52300
O 	O 	0.84490 0.84500 0.98620 -0.51100
O 	O 	0.89800 0.92070 0.37650 -0.50400
In	In	0.76916 0.58151 0.51361 2.02700
In	In	0.62451 0.52092 0.33935 1.99800
In	In	0.78526 0.88766 0.37674 1.99600
In	In	0.71583 0.07959 0.48206 2.02800
In	In	0.87055 0.02384 0.65239 1.99500
In	In	0.70766 0.38690 0.61886 1.99600
In	In	0.92363 0.64939 0.77046 1.96400
In	In	0.07093 0.35316 0.72071 1.96200
P 	P 	0.80358 0.62060 0.36713 0.58900
P 	P 	0.69154 0.12263 0.63105 0.59300
P 	P 	0.55691 0.40934 0.17466 0.59700
P 	P 	0.43990 0.58713 0.31528 0.61300
P 	P 	0.88974 0.45932 0.64832 0.58000
P 	P 	0.69560 0.34504 0.45889 0.56300
P 	P 	0.78785 0.84416 0.53702 0.57500
P 	P 	0.60291 0.95725 0.34437 0.58400
F 	F 	0.66000 0.60020 0.43607 -0.78900
F 	F 	0.82840 0.09780 0.55391 -0.78900
F 	F 	0.77670 0.04260 0.41170 -0.80300
F 	F 	0.70940 0.54400 0.58391 -0.80600
O 	O 	0.82650 0.84190 0.48080 -0.52800
O 	O 	0.75730 0.04480 0.65760 -0.54600
O 	O 	0.60250 0.00590 0.27560 -0.62000
O 	O 	0.61420 0.04600 0.39920 -0.52800
O 	O 	0.62660 0.09090 0.65850 -0.52600
O 	O 	0.38520 0.55430 0.24570 -0.61900
O 	O 	0.87480 0.54820 0.59310 -0.52800
O 	O 	0.96640 0.40740 0.65520 -0.53500
O 	O 	0.77620 0.73160 0.33860 -0.60500
O 	O 	0.53160 0.29320 0.17270 -0.58400
O 	O 	0.52710 0.90210 0.33660 -0.53500
O 	O 	0.72020 0.23380 0.65770 -0.61500
O 	O 	0.84850 0.87260 0.60610 -0.52900
O 	O 	0.65930 0.12150 0.55220 -0.51800
O 	O 	0.60770 0.43730 0.24680 -0.62400
O 	O 	0.82620 0.37630 0.62790 -0.54600
O 	O 	0.89130 0.50610 0.71750 -0.61800
O 	O 	0.48500 0.47800 0.15040 -0.53200
O 	O 	0.72270 0.92450 0.51950 -0.52100
O 	O 	0.51120 0.51810 0.33770 -0.54400
O 	O 	0.73010 0.23600 0.45300 -0.47400
O 	O 	0.66670 0.87530 0.36560 -0.54500
O 	O 	0.87230 0.58770 0.34570 -0.52800
O 	O 	0.46530 0.70200 0.31260 -0.59300
O 	O 	0.82930 0.62160 0.44590 -0.51700
O 	O 	0.73850 0.54150 0.33690 -0.55300
O 	O 	0.39980 0.58010 0.37000 -0.50900
O 	O 	0.75570 0.73600 0.54660 -0.47400
O 	O 	0.76000 0.42520 0.47620 -0.53300
O 	O 	0.63740 0.37140 0.38780 -0.52300
O 	O 	0.65510 0.34500 0.51380 -0.51300
O 	O 	0.60200 0.42070 0.12350 -0.50500
