data_crystal

_cell_length_a 10.28000
_cell_length_b 12.70000
_cell_length_c 17.86000
_cell_angle_alpha 90.00000
_cell_angle_beta  102.47000
_cell_angle_gamma 90.00000

_symmetry_space_group_name_	'P 1'
_symmetry_space_group_name_H-M	'P 1'

loop_
_symmetry_equiv_pos_as_xyz
  x,y,z

loop_
_atom_site_label
_atom_site_type_symbol
_atom_site_fract_x
_atom_site_fract_y
_atom_site_fract_z
_atom_site_charge
In	In	0.94305 0.97821 0.12591 1.99700
In	In	0.74572 0.92740 0.27769 2.03300
In	In	0.46876 0.11624 0.20822 1.99800
In	In	0.36705 0.85219 0.42227 1.96800
P 	P 	0.20258 0.08959 0.05842 0.60500
P 	P 	0.06511 0.88370 0.30750 0.59100
P 	P 	0.72068 0.65968 0.29941 0.57600
P 	P 	0.58086 0.04613 0.39248 0.59800
F 	F 	0.78760 0.90610 0.16800 -0.80300
F 	F 	0.54840 0.96160 0.21810 -0.80600
O 	O 	0.17480 0.02130 0.98670 -0.54200
O 	O 	0.34940 0.07910 0.10030 -0.51600
O 	O 	0.11430 0.05860 0.11340 -0.62500
O 	O 	0.17500 0.20560 0.03420 -0.59700
O 	O 	0.09280 0.77150 0.28080 -0.61500
O 	O 	0.05830 0.95970 0.23970 -0.54500
O 	O 	0.18160 0.91630 0.37280 -0.53100
O 	O 	0.93770 0.88720 0.33840 -0.51800
O 	O 	0.86790 0.65920 0.33880 -0.52500
O 	O 	0.63630 0.62880 0.35760 -0.52300
O 	O 	0.67410 0.77100 0.27010 -0.47400
O 	O 	0.69100 0.58400 0.23120 -0.52400
O 	O 	0.56120 0.12780 0.32830 -0.54200
O 	O 	0.67930 0.95770 0.37960 -0.53300
O 	O 	0.44550 0.99540 0.39320 -0.60800
O 	O 	0.63960 0.09880 0.46830 -0.54300
In	In	0.55695 0.47821 0.37409 1.99700
In	In	0.75428 0.42740 0.22231 2.03200
In	In	0.03124 0.61624 0.29178 1.99700
In	In	0.13295 0.35219 0.07773 1.96600
P 	P 	0.29742 0.58959 0.44158 0.60400
P 	P 	0.43489 0.38370 0.19250 0.58600
P 	P 	0.77932 0.15968 0.20059 0.57500
P 	P 	0.91914 0.54613 0.10752 0.59800
F 	F 	0.71240 0.40610 0.33200 -0.80100
F 	F 	0.95160 0.46160 0.28190 -0.80500
O 	O 	0.32520 0.52130 0.51330 -0.54000
O 	O 	0.15060 0.57910 0.39970 -0.51500
O 	O 	0.38570 0.55860 0.38660 -0.62200
O 	O 	0.32500 0.70560 0.46580 -0.59500
O 	O 	0.40720 0.27150 0.21920 -0.61600
O 	O 	0.44170 0.45970 0.26030 -0.54700
O 	O 	0.31840 0.41630 0.12720 -0.53200
O 	O 	0.56230 0.38720 0.16160 -0.51300
O 	O 	0.63210 0.15920 0.16120 -0.52400
O 	O 	0.86370 0.12880 0.14240 -0.51900
O 	O 	0.82590 0.27100 0.22990 -0.47300
O 	O 	0.80900 0.08400 0.26880 -0.52100
O 	O 	0.93880 0.62780 0.17170 -0.54200
O 	O 	0.82070 0.45770 0.12040 -0.53000
O 	O 	0.05450 0.49540 0.10680 -0.60900
O 	O 	0.86040 0.59880 0.03170 -0.54400
In	In	0.05695 0.02179 0.87409 1.99600
In	In	0.25428 0.07260 0.72231 2.03200
In	In	0.53124 0.88376 0.79178 1.99700
In	In	0.63295 0.14781 0.57773 1.96700
P 	P 	0.79742 0.91041 0.94158 0.60400
P 	P 	0.93489 0.11630 0.69250 0.59000
P 	P 	0.27932 0.34032 0.70059 0.57600
P 	P 	0.41914 0.95387 0.60752 0.59800
F 	F 	0.21240 0.09390 0.83200 -0.80300
F 	F 	0.45160 0.03840 0.78190 -0.80600
O 	O 	0.82520 0.97870 0.01330 -0.54200
O 	O 	0.65060 0.92090 0.89970 -0.51600
O 	O 	0.88570 0.94140 0.88660 -0.62500
O 	O 	0.82500 0.79440 0.96580 -0.59700
O 	O 	0.90720 0.22850 0.71920 -0.61500
O 	O 	0.94170 0.04030 0.76030 -0.54500
O 	O 	0.81840 0.08370 0.62720 -0.53100
O 	O 	0.06230 0.11280 0.66160 -0.51800
O 	O 	0.13210 0.34080 0.66120 -0.52500
O 	O 	0.36370 0.37120 0.64240 -0.52300
O 	O 	0.32590 0.22900 0.72990 -0.47400
O 	O 	0.30900 0.41600 0.76880 -0.52400
O 	O 	0.43880 0.87220 0.67170 -0.54200
O 	O 	0.32070 0.04230 0.62040 -0.53300
O 	O 	0.55450 0.00460 0.60680 -0.60800
O 	O 	0.36040 0.90120 0.53170 -0.54300
In	In	0.44305 0.52179 0.62591 1.99700
In	In	0.24572 0.57260 0.77769 2.03200
In	In	0.96876 0.38376 0.70822 1.99700
In	In	0.86705 0.64781 0.92227 1.96600
P 	P 	0.70258 0.41041 0.55842 0.60400
P 	P 	0.56511 0.61630 0.80750 0.58600
P 	P 	0.22068 0.84032 0.79941 0.57500
P 	P 	0.08086 0.45387 0.89248 0.59800
F 	F 	0.28760 0.59390 0.66800 -0.80100
F 	F 	0.04840 0.53840 0.71810 -0.80500
O 	O 	0.67480 0.47870 0.48670 -0.54000
O 	O 	0.84940 0.42090 0.60030 -0.51500
O 	O 	0.61430 0.44140 0.61340 -0.62200
O 	O 	0.67500 0.29440 0.53420 -0.59500
O 	O 	0.59280 0.72850 0.78080 -0.61600
O 	O 	0.55830 0.54030 0.73970 -0.54700
O 	O 	0.68160 0.58370 0.87280 -0.53200
O 	O 	0.43770 0.61280 0.83840 -0.51300
O 	O 	0.36790 0.84080 0.83880 -0.52400
O 	O 	0.13630 0.87120 0.85760 -0.51900
O 	O 	0.17410 0.72900 0.77010 -0.47300
O 	O 	0.19100 0.91600 0.73120 -0.52100
O 	O 	0.06120 0.37220 0.82830 -0.54200
O 	O 	0.17930 0.54230 0.87960 -0.53000
O 	O 	0.94550 0.50460 0.89320 -0.60900
O 	O 	0.13960 0.40120 0.96830 -0.54400
