data_crystal

_cell_length_a 10.31610
_cell_length_b 12.74900
_cell_length_c 17.91270
_cell_angle_alpha 90.00000
_cell_angle_beta  102.47600
_cell_angle_gamma 90.00000

_symmetry_space_group_name_	'P 1'
_symmetry_space_group_name_H-M	'P 1'

loop_
_symmetry_equiv_pos_as_xyz
  x,y,z

loop_
_atom_site_label
_atom_site_type_symbol
_atom_site_fract_x
_atom_site_fract_y
_atom_site_fract_z
_atom_site_charge
In	In	0.75400 0.57256 0.22234 2.02900
In	In	0.03099 0.38353 0.29213 1.99400
In	In	0.55673 0.52146 0.37411 1.99500
In	In	0.13290 0.64767 0.07780 1.96100
P 	P 	0.43480 0.61622 0.19238 0.58400
P 	P 	0.77958 0.84016 0.20084 0.56700
P 	P 	0.29745 0.41037 0.44159 0.58800
P 	P 	0.91912 0.45375 0.10785 0.58900
F 	F 	0.71270 0.59390 0.33215 -0.79800
F 	F 	0.95180 0.53770 0.28222 -0.80300
O 	O 	0.32630 0.29500 0.46680 -0.58800
O 	O 	0.31910 0.58320 0.12710 -0.53000
O 	O 	0.44220 0.54040 0.26000 -0.54600
O 	O 	0.38640 0.44170 0.38650 -0.62000
O 	O 	0.82100 0.54200 0.12060 -0.52900
O 	O 	0.15080 0.42080 0.40050 -0.51100
O 	O 	0.56240 0.61220 0.16160 -0.51300
O 	O 	0.63240 0.84070 0.16070 -0.51900
O 	O 	0.86110 0.40160 0.03190 -0.54200
O 	O 	0.82540 0.72900 0.23010 -0.47200
O 	O 	0.86450 0.87110 0.14250 -0.51700
O 	O 	0.93920 0.37170 0.17230 -0.53800
O 	O 	0.32600 0.47970 0.51320 -0.53400
O 	O 	0.80760 0.91580 0.26870 -0.52000
O 	O 	0.40770 0.72770 0.21860 -0.61600
O 	O 	0.05490 0.50370 0.10770 -0.60300
In	In	0.74600 0.07256 0.27766 2.02900
In	In	0.46901 0.88353 0.20787 1.99500
In	In	0.94327 0.02146 0.12589 1.99400
In	In	0.36710 0.14767 0.42220 1.96300
P 	P 	0.06520 0.11622 0.30762 0.58800
P 	P 	0.72042 0.34016 0.29916 0.56700
P 	P 	0.20255 0.91037 0.05841 0.58800
P 	P 	0.58088 0.95375 0.39215 0.58900
F 	F 	0.78730 0.09390 0.16785 -0.80000
F 	F 	0.54820 0.03770 0.21778 -0.80500
O 	O 	0.17370 0.79500 0.03320 -0.59000
O 	O 	0.18090 0.08320 0.37290 -0.52900
O 	O 	0.05780 0.04040 0.24000 -0.54400
O 	O 	0.11360 0.94170 0.11350 -0.62300
O 	O 	0.67900 0.04200 0.37940 -0.53200
O 	O 	0.34920 0.92080 0.09950 -0.51200
O 	O 	0.93760 0.11220 0.33840 -0.51700
O 	O 	0.86760 0.34070 0.33930 -0.52000
O 	O 	0.63890 0.90160 0.46810 -0.54200
O 	O 	0.67460 0.22900 0.26990 -0.47300
O 	O 	0.63550 0.37110 0.35750 -0.52100
O 	O 	0.56080 0.87170 0.32770 -0.53800
O 	O 	0.17400 0.97970 0.98680 -0.53700
O 	O 	0.69240 0.41580 0.23130 -0.52300
O 	O 	0.09230 0.22770 0.28140 -0.61500
O 	O 	0.44510 0.00370 0.39230 -0.60200
In	In	0.24600 0.42744 0.77766 2.03000
In	In	0.96901 0.61647 0.70787 1.99500
In	In	0.44327 0.47854 0.62589 1.99600
In	In	0.86710 0.35233 0.92220 1.96200
P 	P 	0.56520 0.38378 0.80762 0.58400
P 	P 	0.22042 0.15984 0.79916 0.56700
P 	P 	0.70255 0.58963 0.55841 0.58800
P 	P 	0.08088 0.54625 0.89215 0.58900
F 	F 	0.28730 0.40610 0.66785 -0.79800
F 	F 	0.04820 0.46230 0.71778 -0.80300
O 	O 	0.67370 0.70500 0.53320 -0.58800
O 	O 	0.68090 0.41680 0.87290 -0.53000
O 	O 	0.55780 0.45960 0.74000 -0.54600
O 	O 	0.61360 0.55830 0.61350 -0.62000
O 	O 	0.17900 0.45800 0.87940 -0.52900
O 	O 	0.84920 0.57920 0.59950 -0.51100
O 	O 	0.43760 0.38780 0.83840 -0.51300
O 	O 	0.36760 0.15930 0.83930 -0.51900
O 	O 	0.13890 0.59840 0.96810 -0.54200
O 	O 	0.17460 0.27100 0.76990 -0.47200
O 	O 	0.13550 0.12890 0.85750 -0.51700
O 	O 	0.06080 0.62830 0.82770 -0.53800
O 	O 	0.67400 0.52030 0.48680 -0.53400
O 	O 	0.19240 0.08420 0.73130 -0.52000
O 	O 	0.59230 0.27230 0.78140 -0.61600
O 	O 	0.94510 0.49630 0.89230 -0.60300
In	In	0.25400 0.92744 0.72234 2.02900
In	In	0.53099 0.11647 0.79213 1.99500
In	In	0.05673 0.97854 0.87411 1.99400
In	In	0.63290 0.85233 0.57780 1.96300
P 	P 	0.93480 0.88378 0.69238 0.58800
P 	P 	0.27958 0.65984 0.70084 0.56700
P 	P 	0.79745 0.08963 0.94159 0.58800
P 	P 	0.41912 0.04625 0.60785 0.58900
F 	F 	0.21270 0.90610 0.83215 -0.80000
F 	F 	0.45180 0.96230 0.78222 -0.80500
O 	O 	0.82630 0.20500 0.96680 -0.59000
O 	O 	0.81910 0.91680 0.62710 -0.52900
O 	O 	0.94220 0.95960 0.76000 -0.54400
O 	O 	0.88640 0.05830 0.88650 -0.62300
O 	O 	0.32100 0.95800 0.62060 -0.53200
O 	O 	0.65080 0.07920 0.90050 -0.51200
O 	O 	0.06240 0.88780 0.66160 -0.51700
O 	O 	0.13240 0.65930 0.66070 -0.52000
O 	O 	0.36110 0.09840 0.53190 -0.54200
O 	O 	0.32540 0.77100 0.73010 -0.47300
O 	O 	0.36450 0.62890 0.64250 -0.52100
O 	O 	0.43920 0.12830 0.67230 -0.53800
O 	O 	0.82600 0.02030 0.01320 -0.53700
O 	O 	0.30760 0.58420 0.76870 -0.52300
O 	O 	0.90770 0.77230 0.71860 -0.61500
O 	O 	0.55490 0.99630 0.60770 -0.60200
