data_crystal

_cell_length_a 13.46780
_cell_length_b 13.46780
_cell_length_c 18.31710
_cell_angle_alpha 90.00000
_cell_angle_beta  90.00000
_cell_angle_gamma 120.00000

_symmetry_space_group_name_	'P 1'
_symmetry_space_group_name_H-M	'P 1'

loop_
_symmetry_equiv_pos_as_xyz
  x,y,z

loop_
_atom_site_label
_atom_site_type_symbol
_atom_site_fract_x
_atom_site_fract_y
_atom_site_fract_z
_atom_site_charge
V 	V 	0.43529 0.14332 0.45823 1.72800
P 	P 	0.18832 0.02928 0.37115 0.21900
H 	H 	0.19300 0.93200 0.34700 0.05200
P 	P 	0.49605 0.36972 0.55432 0.47200
H 	H 	0.50100 0.31300 0.62000 -0.02200
O 	O 	0.30880 0.12400 0.39168 -0.48000
O 	O 	0.43310 0.28250 0.49394 -0.52300
O 	O 	0.61910 0.45330 0.53504 -0.50400
O 	O 	0.42850 0.42750 0.57650 -0.48600
O 	O 	0.55290 0.22760 0.38396 -0.50900
O 	O 	0.11150 0.97860 0.43833 -0.37000
O 	O 	0.14110 0.07480 0.31273 -0.50900
V 	V 	0.85668 0.29197 0.45823 1.79600
P 	P 	0.97072 0.15904 0.37115 0.69800
H 	H 	0.06800 0.26100 0.34700 -0.13100
P 	P 	0.63028 0.12633 0.55432 0.46900
H 	H 	0.68700 0.18800 0.62000 -0.01700
O 	O 	0.87600 0.18480 0.39168 -0.47800
O 	O 	0.71750 0.15060 0.49394 -0.53500
O 	O 	0.54670 0.16580 0.53504 -0.53800
O 	O 	0.57250 0.00100 0.57650 -0.59100
O 	O 	0.77240 0.32530 0.38396 -0.45600
O 	O 	0.02140 0.13290 0.43833 -0.67300
O 	O 	0.92520 0.06630 0.31273 -0.48200
V 	V 	0.70803 0.56471 0.45823 1.76300
P 	P 	0.84096 0.81168 0.37115 0.45600
H 	H 	0.73900 0.80700 0.34700 -0.00700
P 	P 	0.87367 0.50395 0.55432 0.47700
H 	H 	0.81200 0.49900 0.62000 -0.00400
O 	O 	0.81520 0.69120 0.39168 -0.44400
O 	O 	0.84940 0.56690 0.49394 -0.48200
O 	O 	0.83420 0.38090 0.53504 -0.47300
O 	O 	0.99900 0.57150 0.57650 -0.37800
O 	O 	0.67470 0.44710 0.38396 -0.47100
O 	O 	0.86710 0.88850 0.43833 -0.37600
O 	O 	0.93370 0.85890 0.31273 -0.32000
V 	V 	0.14332 0.43529 0.04177 1.71400
P 	P 	0.02928 0.18832 0.12885 0.20400
H 	H 	0.93200 0.19300 0.15300 0.05500
P 	P 	0.36972 0.49605 0.94568 0.51100
H 	H 	0.31300 0.50100 0.88000 -0.02300
O 	O 	0.12400 0.30880 0.10832 -0.48500
O 	O 	0.28250 0.43310 0.00606 -0.56700
O 	O 	0.45330 0.61910 0.96496 -0.48300
O 	O 	0.42750 0.42850 0.92350 -0.47900
O 	O 	0.22760 0.55290 0.11604 -0.51700
O 	O 	0.97860 0.11150 0.06167 -0.37200
O 	O 	0.07480 0.14110 0.18727 -0.50800
V 	V 	0.29197 0.85668 0.04177 1.78200
P 	P 	0.15904 0.97072 0.12885 0.68400
H 	H 	0.26100 0.06800 0.15300 -0.12800
P 	P 	0.12633 0.63028 0.94568 0.51000
H 	H 	0.18800 0.68700 0.88000 -0.01700
O 	O 	0.18480 0.87600 0.10832 -0.48600
O 	O 	0.15060 0.71750 0.00606 -0.58400
O 	O 	0.16580 0.54670 0.96496 -0.51500
O 	O 	0.00100 0.57250 0.92350 -0.58000
O 	O 	0.32530 0.77240 0.11604 -0.46500
O 	O 	0.13290 0.02140 0.06167 -0.68400
O 	O 	0.06630 0.92520 0.18727 -0.48800
V 	V 	0.56471 0.70803 0.04177 1.75200
P 	P 	0.81168 0.84096 0.12885 0.45500
H 	H 	0.80700 0.73900 0.15300 -0.00800
P 	P 	0.50395 0.87367 0.94568 0.51400
H 	H 	0.49900 0.81200 0.88000 -0.00400
O 	O 	0.69120 0.81520 0.10832 -0.45000
O 	O 	0.56690 0.84940 0.00606 -0.52700
O 	O 	0.38090 0.83420 0.96496 -0.45000
O 	O 	0.57150 0.99900 0.92350 -0.37100
O 	O 	0.44710 0.67470 0.11604 -0.47700
O 	O 	0.88850 0.86710 0.06167 -0.39200
O 	O 	0.85890 0.93370 0.18727 -0.32200
V 	V 	0.56471 0.85668 0.54177 1.79500
P 	P 	0.81168 0.97072 0.62885 0.66900
H 	H 	0.80700 0.06800 0.65300 -0.09700
P 	P 	0.50395 0.63028 0.44568 0.47300
H 	H 	0.49900 0.68700 0.38000 -0.00700
O 	O 	0.69120 0.87600 0.60832 -0.45400
O 	O 	0.56690 0.71750 0.50606 -0.50400
O 	O 	0.38090 0.54670 0.46496 -0.50600
O 	O 	0.57150 0.57250 0.42350 -0.48400
O 	O 	0.44710 0.77240 0.61604 -0.44900
O 	O 	0.88850 0.02140 0.56167 -0.55100
O 	O 	0.85890 0.92520 0.68727 -0.37100
V 	V 	0.14332 0.70803 0.54177 1.73000
P 	P 	0.02928 0.84096 0.62885 0.24000
H 	H 	0.93200 0.73900 0.65300 0.06300
P 	P 	0.36972 0.87367 0.44568 0.47600
H 	H 	0.31300 0.81200 0.38000 -0.01100
O 	O 	0.12400 0.81520 0.60832 -0.45500
O 	O 	0.28250 0.84940 0.50606 -0.49000
O 	O 	0.45330 0.83420 0.46496 -0.47300
O 	O 	0.42750 0.99900 0.42350 -0.37800
O 	O 	0.22760 0.67470 0.61604 -0.50000
O 	O 	0.97860 0.86710 0.56167 -0.29000
O 	O 	0.07480 0.93370 0.68727 -0.37800
V 	V 	0.29197 0.43529 0.54177 1.76000
P 	P 	0.15904 0.18832 0.62885 0.45200
H 	H 	0.26100 0.19300 0.65300 -0.05000
P 	P 	0.12633 0.49605 0.44568 0.46900
H 	H 	0.18800 0.50100 0.38000 -0.02500
O 	O 	0.18480 0.30880 0.60832 -0.49100
O 	O 	0.15060 0.43310 0.50606 -0.54600
O 	O 	0.16580 0.61910 0.46496 -0.53700
O 	O 	0.00100 0.42850 0.42350 -0.59600
O 	O 	0.32530 0.55290 0.61604 -0.48700
O 	O 	0.13290 0.11150 0.56167 -0.57400
O 	O 	0.06630 0.14110 0.68727 -0.56100
V 	V 	0.85668 0.56471 0.95823 1.80300
P 	P 	0.97072 0.81168 0.87115 0.65900
H 	H 	0.06800 0.80700 0.84700 -0.08900
P 	P 	0.63028 0.50395 0.05432 0.44000
H 	H 	0.68700 0.49900 0.12000 -0.00600
O 	O 	0.87600 0.69120 0.89168 -0.44900
O 	O 	0.71750 0.56690 0.99394 -0.46500
O 	O 	0.54670 0.38090 0.03504 -0.52500
O 	O 	0.57250 0.57150 0.07650 -0.49100
O 	O 	0.77240 0.44710 0.88396 -0.44500
O 	O 	0.02140 0.88850 0.93833 -0.52000
O 	O 	0.92520 0.85890 0.81273 -0.37000
V 	V 	0.70803 0.14332 0.95823 1.73900
P 	P 	0.84096 0.02928 0.87115 0.23600
H 	H 	0.73900 0.93200 0.84700 0.06800
P 	P 	0.87367 0.36972 0.05432 0.44800
H 	H 	0.81200 0.31300 0.12000 -0.00900
O 	O 	0.81520 0.12400 0.89168 -0.45100
O 	O 	0.84940 0.28250 0.99394 -0.45600
O 	O 	0.83420 0.45330 0.03504 -0.49100
O 	O 	0.99900 0.42750 0.07650 -0.37900
O 	O 	0.67470 0.22760 0.88396 -0.49600
O 	O 	0.86710 0.97860 0.93833 -0.26900
O 	O 	0.93370 0.07480 0.81273 -0.38100
V 	V 	0.43529 0.29197 0.95823 1.77100
P 	P 	0.18832 0.15904 0.87115 0.45200
H 	H 	0.19300 0.26100 0.84700 -0.04600
P 	P 	0.49605 0.12633 0.05432 0.43500
H 	H 	0.50100 0.18800 0.12000 -0.02400
O 	O 	0.30880 0.18480 0.89168 -0.48600
O 	O 	0.43310 0.15060 0.99394 -0.50500
O 	O 	0.61910 0.16580 0.03504 -0.55300
O 	O 	0.42850 0.00100 0.07650 -0.59700
O 	O 	0.55290 0.32530 0.88396 -0.48200
O 	O 	0.11150 0.13290 0.93833 -0.54900
O 	O 	0.14110 0.06630 0.81273 -0.56100
V 	V 	0.00000 0.00000 0.50000 1.64900
V 	V 	-0.00000 0.00000 -0.00000 1.62800
V 	V 	0.00000 0.00000 0.25000 1.64400
V 	V 	-0.00000 -0.00000 0.75000 1.64600
P 	P 	0.66667 0.33333 0.36331 0.50000
H 	H 	0.66667 0.33333 0.29123 -0.01400
P 	P 	0.33333 0.66667 0.13669 0.49700
H 	H 	0.33333 0.66667 0.20877 -0.01400
P 	P 	0.33333 0.66667 0.63669 0.50100
H 	H 	0.33333 0.66667 0.70877 -0.01300
P 	P 	0.66667 0.33333 0.86331 0.50300
H 	H 	0.66667 0.33333 0.79123 -0.01500
