data_crystal

_cell_length_a 10.04300
_cell_length_b 15.98900
_cell_length_c 18.30800
_cell_angle_alpha 90.00000
_cell_angle_beta  90.00000
_cell_angle_gamma 90.00000

_symmetry_space_group_name_	'P 1'
_symmetry_space_group_name_H-M	'P 1'

loop_
_symmetry_equiv_pos_as_xyz
  x,y,z

loop_
_atom_site_label
_atom_site_type_symbol
_atom_site_fract_x
_atom_site_fract_y
_atom_site_fract_z
_atom_site_charge
Ga	Ga	0.34755 0.99491 0.40569 2.08200
Ga	Ga	0.31552 0.96521 0.21765 2.08300
Ga	Ga	0.16442 0.14742 0.17452 2.07900
P 	P 	0.11577 0.06658 0.31906 0.58100
P 	P 	0.33959 0.81904 0.33169 0.64400
P 	P 	0.36221 0.98475 0.57580 0.61300
O 	O 	0.14700 0.99120 0.27100 -0.60700
O 	O 	0.97000 0.06350 0.34340 -0.48000
O 	O 	0.20320 0.06810 0.38850 -0.52900
O 	O 	0.14170 0.14900 0.27700 -0.56800
O 	O 	0.30250 0.84900 0.25520 -0.53100
O 	O 	0.25670 0.74210 0.35260 -0.54900
O 	O 	0.48840 0.79580 0.33610 -0.51800
O 	O 	0.30340 0.88340 0.39180 -0.58500
O 	O 	0.28100 0.98020 0.50520 -0.49500
O 	O 	0.29250 0.93320 0.63580 -0.52000
O 	O 	0.38320 0.07680 0.59840 -0.66900
O 	O 	0.50150 0.94620 0.56340 -0.57500
O 	O 	0.32930 0.08190 0.18390 -0.68700
O 	O 	0.41150 0.99720 0.30470 -0.76500
Ga	Ga	0.65245 0.50509 0.90569 2.08100
Ga	Ga	0.68448 0.53479 0.71765 2.08200
Ga	Ga	0.83558 0.35258 0.67452 2.07800
P 	P 	0.88423 0.43342 0.81906 0.57100
P 	P 	0.66041 0.68096 0.83169 0.64400
P 	P 	0.63779 0.51525 0.07580 0.61400
O 	O 	0.85300 0.50880 0.77100 -0.60500
O 	O 	0.03000 0.43650 0.84340 -0.47300
O 	O 	0.79680 0.43190 0.88850 -0.53100
O 	O 	0.85830 0.35100 0.77700 -0.57000
O 	O 	0.69750 0.65100 0.75520 -0.53100
O 	O 	0.74330 0.75790 0.85260 -0.54900
O 	O 	0.51160 0.70420 0.83610 -0.51800
O 	O 	0.69660 0.61660 0.89180 -0.58500
O 	O 	0.71900 0.51980 0.00520 -0.49400
O 	O 	0.70750 0.56680 0.13580 -0.51900
O 	O 	0.61680 0.42320 0.09840 -0.67200
O 	O 	0.49850 0.55380 0.06340 -0.57600
O 	O 	0.67070 0.41810 0.68390 -0.68700
O 	O 	0.58850 0.50280 0.80470 -0.76700
Ga	Ga	0.84755 0.00509 0.09431 2.07900
Ga	Ga	0.81552 0.03479 0.28235 2.08200
Ga	Ga	0.66442 0.85258 0.32548 2.07800
P 	P 	0.61577 0.93342 0.18094 0.57800
P 	P 	0.83959 0.18096 0.16831 0.64400
P 	P 	0.86221 0.01525 0.92420 0.60700
O 	O 	0.64700 0.00880 0.22900 -0.60700
O 	O 	0.47000 0.93650 0.15660 -0.47400
O 	O 	0.70320 0.93190 0.11150 -0.52600
O 	O 	0.64170 0.85100 0.22300 -0.56800
O 	O 	0.80250 0.15100 0.24480 -0.53100
O 	O 	0.75670 0.25790 0.14740 -0.54900
O 	O 	0.98840 0.20420 0.16390 -0.52100
O 	O 	0.80340 0.11660 0.10820 -0.58700
O 	O 	0.78100 0.01980 0.99480 -0.49400
O 	O 	0.79250 0.06680 0.86420 -0.51900
O 	O 	0.88320 0.92320 0.90160 -0.67100
O 	O 	0.00150 0.05380 0.93660 -0.56400
O 	O 	0.82930 0.91810 0.31610 -0.68200
O 	O 	0.91150 0.00280 0.19530 -0.77200
Ga	Ga	0.15245 0.49491 0.59431 2.08100
Ga	Ga	0.18448 0.46521 0.78235 2.08200
Ga	Ga	0.33558 0.64742 0.82548 2.07800
P 	P 	0.38423 0.56658 0.68094 0.57400
P 	P 	0.16041 0.31904 0.66831 0.64400
P 	P 	0.13779 0.48475 0.42420 0.61500
O 	O 	0.35300 0.49120 0.72900 -0.60400
O 	O 	0.53000 0.56350 0.65660 -0.47500
O 	O 	0.29680 0.56810 0.61150 -0.53000
O 	O 	0.35830 0.64900 0.72300 -0.56800
O 	O 	0.19750 0.34900 0.74480 -0.53000
O 	O 	0.24330 0.24210 0.64740 -0.54800
O 	O 	0.01160 0.29580 0.66390 -0.51600
O 	O 	0.19660 0.38340 0.60820 -0.58400
O 	O 	0.21900 0.48020 0.49480 -0.49400
O 	O 	0.20750 0.43320 0.36420 -0.51900
O 	O 	0.11680 0.57680 0.40160 -0.67300
O 	O 	0.99850 0.44620 0.43660 -0.57700
O 	O 	0.17070 0.58190 0.81610 -0.68800
O 	O 	0.08850 0.49720 0.69530 -0.76700
Ga	Ga	0.65245 0.00509 0.59431 2.08100
Ga	Ga	0.68448 0.03479 0.78235 2.08200
Ga	Ga	0.83558 0.85258 0.82548 2.07900
P 	P 	0.88423 0.93342 0.68094 0.58100
P 	P 	0.66041 0.18096 0.66831 0.64400
P 	P 	0.63779 0.01525 0.42420 0.61300
O 	O 	0.85300 0.00880 0.72900 -0.60700
O 	O 	0.03000 0.93650 0.65660 -0.48000
O 	O 	0.79680 0.93190 0.61150 -0.52900
O 	O 	0.85830 0.85100 0.72300 -0.56800
O 	O 	0.69750 0.15100 0.74480 -0.53100
O 	O 	0.74330 0.25790 0.64740 -0.54900
O 	O 	0.51160 0.20420 0.66390 -0.51800
O 	O 	0.69660 0.11660 0.60820 -0.58500
O 	O 	0.71900 0.01980 0.49480 -0.49500
O 	O 	0.70750 0.06680 0.36420 -0.52000
O 	O 	0.61680 0.92320 0.40160 -0.66900
O 	O 	0.49850 0.05380 0.43660 -0.57500
O 	O 	0.67070 0.91810 0.81610 -0.68700
O 	O 	0.58850 0.00280 0.69530 -0.76500
Ga	Ga	0.34755 0.49491 0.09431 2.08100
Ga	Ga	0.31552 0.46521 0.28235 2.08200
Ga	Ga	0.16442 0.64742 0.32548 2.07800
P 	P 	0.11577 0.56658 0.18094 0.57100
P 	P 	0.33959 0.31904 0.16831 0.64400
P 	P 	0.36221 0.48475 0.92420 0.61400
O 	O 	0.14700 0.49120 0.22900 -0.60500
O 	O 	0.97000 0.56350 0.15660 -0.47300
O 	O 	0.20320 0.56810 0.11150 -0.53100
O 	O 	0.14170 0.64900 0.22300 -0.57000
O 	O 	0.30250 0.34900 0.24480 -0.53100
O 	O 	0.25670 0.24210 0.14740 -0.54900
O 	O 	0.48840 0.29580 0.16390 -0.51800
O 	O 	0.30340 0.38340 0.10820 -0.58500
O 	O 	0.28100 0.48020 0.99480 -0.49400
O 	O 	0.29250 0.43320 0.86420 -0.51900
O 	O 	0.38320 0.57680 0.90160 -0.67200
O 	O 	0.50150 0.44620 0.93660 -0.57600
O 	O 	0.32930 0.58190 0.31610 -0.68700
O 	O 	0.41150 0.49720 0.19530 -0.76700
Ga	Ga	0.15245 0.99491 0.90569 2.07900
Ga	Ga	0.18448 0.96521 0.71765 2.08200
Ga	Ga	0.33558 0.14742 0.67452 2.07800
P 	P 	0.38423 0.06658 0.81906 0.57800
P 	P 	0.16041 0.81904 0.83169 0.64400
P 	P 	0.13779 0.98475 0.07580 0.60700
O 	O 	0.35300 0.99120 0.77100 -0.60700
O 	O 	0.53000 0.06350 0.84340 -0.47400
O 	O 	0.29680 0.06810 0.88850 -0.52600
O 	O 	0.35830 0.14900 0.77700 -0.56800
O 	O 	0.19750 0.84900 0.75520 -0.53100
O 	O 	0.24330 0.74210 0.85260 -0.54900
O 	O 	0.01160 0.79580 0.83610 -0.52100
O 	O 	0.19660 0.88340 0.89180 -0.58700
O 	O 	0.21900 0.98020 0.00520 -0.49400
O 	O 	0.20750 0.93320 0.13580 -0.51900
O 	O 	0.11680 0.07680 0.09840 -0.67100
O 	O 	0.99850 0.94620 0.06340 -0.56400
O 	O 	0.17070 0.08190 0.68390 -0.68200
O 	O 	0.08850 0.99720 0.80470 -0.77200
Ga	Ga	0.84755 0.50509 0.40569 2.08100
Ga	Ga	0.81552 0.53479 0.21765 2.08200
Ga	Ga	0.66442 0.35258 0.17452 2.07800
P 	P 	0.61577 0.43342 0.31906 0.57400
P 	P 	0.83959 0.68096 0.33169 0.64400
P 	P 	0.86221 0.51525 0.57580 0.61500
O 	O 	0.64700 0.50880 0.27100 -0.60400
O 	O 	0.47000 0.43650 0.34340 -0.47500
O 	O 	0.70320 0.43190 0.38850 -0.53000
O 	O 	0.64170 0.35100 0.27700 -0.56800
O 	O 	0.80250 0.65100 0.25520 -0.53000
O 	O 	0.75670 0.75790 0.35260 -0.54800
O 	O 	0.98840 0.70420 0.33610 -0.51600
O 	O 	0.80340 0.61660 0.39180 -0.58400
O 	O 	0.78100 0.51980 0.50520 -0.49400
O 	O 	0.79250 0.56680 0.63580 -0.51900
O 	O 	0.88320 0.42320 0.59840 -0.67300
O 	O 	0.00150 0.55380 0.56340 -0.57700
O 	O 	0.82930 0.41810 0.18390 -0.68800
O 	O 	0.91150 0.50280 0.30470 -0.76700
