data_crystal

_cell_length_a 10.92500
_cell_length_b 10.92500
_cell_length_c 20.46100
_cell_angle_alpha 90.00000
_cell_angle_beta  90.00000
_cell_angle_gamma 90.00000

_symmetry_space_group_name_	'P 1'
_symmetry_space_group_name_H-M	'P 1'

loop_
_symmetry_equiv_pos_as_xyz
  x,y,z

loop_
_atom_site_label
_atom_site_type_symbol
_atom_site_fract_x
_atom_site_fract_y
_atom_site_fract_z
_atom_site_charge
Gd	Gd	0.15357 0.41139 0.18504 1.61900
O 	O 	0.09960 0.24700 0.11460 -0.42900
O 	O 	0.31970 0.54030 0.21780 -0.63200
O 	O 	0.10880 0.44390 0.30014 -0.60100
O 	O 	0.14590 0.49800 0.07759 -0.36200
C 	C 	0.06600 0.49970 0.03696 0.04800
Gd	Gd	0.65357 0.91139 0.68504 1.74500
O 	O 	0.59960 0.74700 0.61460 -0.41100
O 	O 	0.81970 0.04030 0.71780 -0.63600
O 	O 	0.60880 0.94390 0.80014 -0.55300
O 	O 	0.64590 0.99800 0.57759 -0.39000
C 	C 	0.56600 0.99970 0.53696 0.27100
Gd	Gd	0.84643 0.58861 0.18504 1.70300
O 	O 	0.90040 0.75300 0.11460 -0.38800
O 	O 	0.68030 0.45970 0.21780 -0.64100
O 	O 	0.89120 0.55610 0.30014 -0.56300
O 	O 	0.85410 0.50200 0.07759 -0.38200
C 	C 	0.93400 0.50030 0.03696 0.14800
Gd	Gd	0.34643 0.08861 0.68504 1.58200
O 	O 	0.40040 0.25300 0.61460 -0.40200
O 	O 	0.18030 0.95970 0.71780 -0.57700
O 	O 	0.39120 0.05610 0.80014 -0.61100
O 	O 	0.35410 0.00200 0.57759 -0.34200
C 	C 	0.43400 0.00030 0.53696 -0.07400
Gd	Gd	0.41139 0.84643 0.81496 1.70400
O 	O 	0.24700 0.90040 0.88540 -0.39500
O 	O 	0.54030 0.68030 0.78220 -0.64300
O 	O 	0.44390 0.89120 0.69986 -0.56300
O 	O 	0.49800 0.85410 0.92241 -0.38100
C 	C 	0.49970 0.93400 0.96304 0.14800
Gd	Gd	0.91139 0.34643 0.31496 1.74200
O 	O 	0.74700 0.40040 0.38540 -0.40800
O 	O 	0.04030 0.18030 0.28220 -0.66300
O 	O 	0.94390 0.39120 0.19986 -0.55500
O 	O 	0.99800 0.35410 0.42241 -0.39600
C 	C 	0.99970 0.43400 0.46304 0.27000
Gd	Gd	0.58861 0.15357 0.81496 1.62100
O 	O 	0.75300 0.09960 0.88540 -0.41800
O 	O 	0.45970 0.31970 0.78220 -0.63100
O 	O 	0.55610 0.10880 0.69986 -0.59700
O 	O 	0.50200 0.14590 0.92241 -0.36400
C 	C 	0.50030 0.06600 0.96304 0.04700
Gd	Gd	0.08861 0.65357 0.31496 1.59500
O 	O 	0.25300 0.59960 0.38540 -0.40600
O 	O 	0.95970 0.81970 0.28220 -0.55900
O 	O 	0.05610 0.60880 0.19986 -0.60700
O 	O 	0.00200 0.64590 0.42241 -0.33300
C 	C 	0.00030 0.56600 0.46304 -0.07200
Gd	Gd	0.84643 0.41139 0.81496 1.70400
O 	O 	0.90040 0.24700 0.88540 -0.39500
O 	O 	0.68030 0.54030 0.78220 -0.64300
O 	O 	0.89120 0.44390 0.69986 -0.56300
O 	O 	0.85410 0.49800 0.92241 -0.38100
C 	C 	0.93400 0.49970 0.96304 0.14800
Gd	Gd	0.34643 0.91139 0.31496 1.74200
O 	O 	0.40040 0.74700 0.38540 -0.40800
O 	O 	0.18030 0.04030 0.28220 -0.66300
O 	O 	0.39120 0.94390 0.19986 -0.55500
O 	O 	0.35410 0.99800 0.42241 -0.39600
C 	C 	0.43400 0.99970 0.46304 0.27000
Gd	Gd	0.15357 0.58861 0.81496 1.62100
O 	O 	0.09960 0.75300 0.88540 -0.41800
O 	O 	0.31970 0.45970 0.78220 -0.63100
O 	O 	0.10880 0.55610 0.69986 -0.59700
O 	O 	0.14590 0.50200 0.92241 -0.36400
C 	C 	0.06600 0.50030 0.96304 0.04700
Gd	Gd	0.65357 0.08861 0.31496 1.59500
O 	O 	0.59960 0.25300 0.38540 -0.40600
O 	O 	0.81970 0.95970 0.28220 -0.55900
O 	O 	0.60880 0.05610 0.19986 -0.60700
O 	O 	0.64590 0.00200 0.42241 -0.33300
C 	C 	0.56600 0.00030 0.46304 -0.07200
Gd	Gd	0.58861 0.84643 0.18504 1.70300
O 	O 	0.75300 0.90040 0.11460 -0.38800
O 	O 	0.45970 0.68030 0.21780 -0.64100
O 	O 	0.55610 0.89120 0.30014 -0.56300
O 	O 	0.50200 0.85410 0.07759 -0.38200
C 	C 	0.50030 0.93400 0.03696 0.14800
Gd	Gd	0.08861 0.34643 0.68504 1.58200
O 	O 	0.25300 0.40040 0.61460 -0.40200
O 	O 	0.95970 0.18030 0.71780 -0.57700
O 	O 	0.05610 0.39120 0.80014 -0.61100
O 	O 	0.00200 0.35410 0.57759 -0.34200
C 	C 	0.00030 0.43400 0.53696 -0.07400
Gd	Gd	0.41139 0.15357 0.18504 1.62000
O 	O 	0.24700 0.09960 0.11460 -0.42800
O 	O 	0.54030 0.31970 0.21780 -0.63200
O 	O 	0.44390 0.10880 0.30014 -0.60100
O 	O 	0.49800 0.14590 0.07759 -0.36200
C 	C 	0.49970 0.06600 0.03696 0.04800
Gd	Gd	0.91139 0.65357 0.68504 1.74500
O 	O 	0.74700 0.59960 0.61460 -0.41100
O 	O 	0.04030 0.81970 0.71780 -0.63600
O 	O 	0.94390 0.60880 0.80014 -0.55300
O 	O 	0.99800 0.64590 0.57759 -0.39000
C 	C 	0.99970 0.56600 0.53696 0.27100
Gd	Gd	0.50000 0.50000 0.15522 1.38100
Gd	Gd	0.00000 0.00000 0.65522 1.15300
Gd	Gd	0.50000 0.50000 0.84478 1.38000
Gd	Gd	0.00000 0.00000 0.34478 1.15700
O 	O 	0.27460 0.72540 0.26040 -0.61900
C 	C 	0.34530 0.65470 0.22820 0.64700
O 	O 	0.77460 0.22540 0.76040 -0.61700
C 	C 	0.84530 0.15470 0.72820 0.64300
O 	O 	0.72540 0.27460 0.26040 -0.61900
C 	C 	0.65470 0.34530 0.22820 0.64700
O 	O 	0.22540 0.77460 0.76040 -0.61700
C 	C 	0.15470 0.84530 0.72820 0.64300
O 	O 	0.72540 0.72540 0.73960 -0.62700
C 	C 	0.65470 0.65470 0.77180 0.65300
O 	O 	0.22540 0.22540 0.23960 -0.62300
C 	C 	0.15470 0.15470 0.27180 0.65500
O 	O 	0.27460 0.27460 0.73960 -0.61000
C 	C 	0.34530 0.34530 0.77180 0.64000
O 	O 	0.77460 0.77460 0.23960 -0.61300
C 	C 	0.84530 0.84530 0.27180 0.63300
O 	O 	0.34550 0.34550 0.13500 -0.54200
C 	C 	0.14670 0.14670 0.08710 0.39700
H 	H 	0.11110 0.11110 0.05040 -0.11800
O 	O 	0.84550 0.84550 0.63500 -0.49800
C 	C 	0.64670 0.64670 0.58710 0.40400
H 	H 	0.61110 0.61110 0.55040 -0.08800
O 	O 	0.65450 0.65450 0.13500 -0.55400
C 	C 	0.85330 0.85330 0.08710 0.39500
H 	H 	0.88890 0.88890 0.05040 -0.06300
O 	O 	0.15450 0.15450 0.63500 -0.54000
C 	C 	0.35330 0.35330 0.58710 0.38900
H 	H 	0.38890 0.38890 0.55040 -0.08900
O 	O 	0.34550 0.65450 0.86500 -0.54800
C 	C 	0.14670 0.85330 0.91290 0.39600
H 	H 	0.11110 0.88890 0.94960 -0.08800
O 	O 	0.84550 0.15450 0.36500 -0.51700
C 	C 	0.64670 0.35330 0.41290 0.39700
H 	H 	0.61110 0.38890 0.44960 -0.08900
O 	O 	0.65450 0.34550 0.86500 -0.54800
C 	C 	0.85330 0.14670 0.91290 0.39600
H 	H 	0.88890 0.11110 0.94960 -0.08800
O 	O 	0.15450 0.84550 0.36500 -0.51700
C 	C 	0.35330 0.64670 0.41290 0.39700
H 	H 	0.38890 0.61110 0.44960 -0.08900
