data_crystal

_cell_length_a 27.84100
_cell_length_b 7.52660
_cell_length_c 17.41300
_cell_angle_alpha 90.00000
_cell_angle_beta  90.00000
_cell_angle_gamma 90.00000

_symmetry_space_group_name_	'P 1'
_symmetry_space_group_name_H-M	'P 1'

loop_
_symmetry_equiv_pos_as_xyz
  x,y,z

loop_
_atom_site_label
_atom_site_type_symbol
_atom_site_fract_x
_atom_site_fract_y
_atom_site_fract_z
_atom_site_charge
Zn	Zn	0.09747 0.30632 0.23386 1.18800
O 	O 	0.56407 0.01080 0.22294 -0.45600
O 	O 	0.57634 0.20710 0.87337 -0.46100
O 	O 	0.51028 0.36360 0.85057 -0.32600
O 	O 	0.61345 0.96710 0.12550 -0.33800
C 	C 	0.35514 0.32730 0.19260 -0.13300
H 	H 	0.34830 0.37260 0.24110 0.05300
C 	C 	0.20439 0.32130 0.26320 0.06800
H 	H 	0.19590 0.34490 0.31390 -0.01000
C 	C 	0.25278 0.31210 0.24440 -0.12900
H 	H 	0.27600 0.32830 0.28220 0.07000
C 	C 	0.26655 0.27850 0.16920 0.05600
C 	C 	0.31773 0.26760 0.14510 0.04300
C 	C 	0.33032 0.20150 0.07340 -0.12000
H 	H 	0.30640 0.16190 0.04020 0.07100
C 	C 	0.37750 0.19380 0.05070 0.05700
H 	H 	0.38520 0.14870 0.00260 0.02700
C 	C 	0.40207 0.31870 0.16730 0.05300
H 	H 	0.42660 0.36000 0.19880 0.00600
C 	C 	0.46285 0.23350 0.07460 0.10500
C 	C 	0.47528 0.27530 0.00010 -0.08200
H 	H 	0.45270 0.32290 0.96650 0.06900
C 	C 	0.49534 0.16180 0.12630 -0.09300
H 	H 	0.48600 0.13450 0.17620 0.08900
C 	C 	0.54223 0.13160 0.10200 -0.03700
C 	C 	0.55543 0.17330 0.02710 -0.02100
H 	H 	0.58680 0.15310 0.01090 0.06000
C 	C 	0.53638 0.27650 0.89310 0.33100
C 	C 	0.52233 0.24460 0.97620 -0.04200
C 	C 	0.57699 0.03220 0.15290 0.30100
C 	C 	0.23003 0.25560 0.11590 -0.12700
H 	H 	0.23750 0.23450 0.06470 0.07200
C 	C 	0.18276 0.26400 0.13850 0.06500
H 	H 	0.15900 0.24570 0.10190 0.00100
N 	N 	0.16937 0.29750 0.21120 -0.27100
N 	N 	0.41277 0.25130 0.09782 -0.14200
Zn	Zn	0.59747 0.19368 0.76614 1.18800
O 	O 	0.06407 0.48920 0.77706 -0.45500
O 	O 	0.07634 0.29290 0.12663 -0.45900
O 	O 	0.01028 0.13640 0.14943 -0.32500
O 	O 	0.11345 0.53290 0.87450 -0.33700
C 	C 	0.85514 0.17270 0.80740 -0.13300
H 	H 	0.84830 0.12740 0.75890 0.05300
C 	C 	0.70439 0.17870 0.73680 0.06800
H 	H 	0.69590 0.15510 0.68610 -0.01000
C 	C 	0.75278 0.18790 0.75560 -0.12900
H 	H 	0.77600 0.17170 0.71780 0.07000
C 	C 	0.76655 0.22150 0.83080 0.05600
C 	C 	0.81773 0.23240 0.85490 0.04300
C 	C 	0.83032 0.29850 0.92660 -0.12000
H 	H 	0.80640 0.33810 0.95980 0.07100
C 	C 	0.87750 0.30620 0.94930 0.05700
H 	H 	0.88520 0.35130 0.99740 0.02700
C 	C 	0.90207 0.18130 0.83270 0.05300
H 	H 	0.92660 0.14000 0.80120 0.00600
C 	C 	0.96285 0.26650 0.92540 0.10500
C 	C 	0.97528 0.22470 0.99990 -0.08300
H 	H 	0.95270 0.17710 0.03350 0.06900
C 	C 	0.99534 0.33820 0.87370 -0.09300
H 	H 	0.98600 0.36550 0.82380 0.08900
C 	C 	0.04223 0.36840 0.89800 -0.03700
C 	C 	0.05543 0.32670 0.97290 -0.02100
H 	H 	0.08680 0.34690 0.98910 0.06100
C 	C 	0.03638 0.22350 0.10690 0.33100
C 	C 	0.02233 0.25540 0.02380 -0.04100
C 	C 	0.07699 0.46780 0.84710 0.30000
C 	C 	0.73003 0.24440 0.88410 -0.12700
H 	H 	0.73750 0.26550 0.93530 0.07200
C 	C 	0.68276 0.23600 0.86150 0.06500
H 	H 	0.65900 0.25430 0.89810 0.00000
N 	N 	0.66937 0.20250 0.78880 -0.27100
N 	N 	0.91277 0.24870 0.90218 -0.14200
Zn	Zn	0.59747 0.80632 0.26614 1.18800
O 	O 	0.06407 0.51080 0.27706 -0.45500
O 	O 	0.07634 0.70710 0.62663 -0.45900
O 	O 	0.01028 0.86360 0.64943 -0.32500
O 	O 	0.11345 0.46710 0.37450 -0.33700
C 	C 	0.85514 0.82730 0.30740 -0.13300
H 	H 	0.84830 0.87260 0.25890 0.05300
C 	C 	0.70439 0.82130 0.23680 0.06800
H 	H 	0.69590 0.84490 0.18610 -0.01000
C 	C 	0.75278 0.81210 0.25560 -0.12900
H 	H 	0.77600 0.82830 0.21780 0.07000
C 	C 	0.76655 0.77850 0.33080 0.05600
C 	C 	0.81773 0.76760 0.35490 0.04300
C 	C 	0.83032 0.70150 0.42660 -0.12000
H 	H 	0.80640 0.66190 0.45980 0.07100
C 	C 	0.87750 0.69380 0.44930 0.05700
H 	H 	0.88520 0.64870 0.49740 0.02700
C 	C 	0.90207 0.81870 0.33270 0.05300
H 	H 	0.92660 0.86000 0.30120 0.00600
C 	C 	0.96285 0.73350 0.42540 0.10600
C 	C 	0.97528 0.77530 0.49990 -0.08300
H 	H 	0.95270 0.82290 0.53350 0.06900
C 	C 	0.99534 0.66180 0.37370 -0.09300
H 	H 	0.98600 0.63450 0.32380 0.08900
C 	C 	0.04223 0.63160 0.39800 -0.03700
C 	C 	0.05543 0.67330 0.47290 -0.02100
H 	H 	0.08680 0.65310 0.48910 0.06100
C 	C 	0.03638 0.77650 0.60690 0.33100
C 	C 	0.02233 0.74460 0.52380 -0.04200
C 	C 	0.07699 0.53220 0.34710 0.30000
C 	C 	0.73003 0.75560 0.38410 -0.12700
H 	H 	0.73750 0.73450 0.43530 0.07200
C 	C 	0.68276 0.76400 0.36150 0.06500
H 	H 	0.65900 0.74570 0.39810 0.00000
N 	N 	0.66937 0.79750 0.28880 -0.27100
N 	N 	0.91277 0.75130 0.40218 -0.14200
Zn	Zn	0.09747 0.69368 0.73386 1.18900
O 	O 	0.56407 0.98920 0.72294 -0.45500
O 	O 	0.57634 0.79290 0.37337 -0.46000
O 	O 	0.51028 0.63640 0.35057 -0.32500
O 	O 	0.61345 0.03290 0.62550 -0.33800
C 	C 	0.35514 0.67270 0.69260 -0.13300
H 	H 	0.34830 0.62740 0.74110 0.05300
C 	C 	0.20439 0.67870 0.76320 0.06800
H 	H 	0.19590 0.65510 0.81390 -0.01000
C 	C 	0.25278 0.68790 0.74440 -0.12900
H 	H 	0.27600 0.67170 0.78220 0.07000
C 	C 	0.26655 0.72150 0.66920 0.05600
C 	C 	0.31773 0.73240 0.64510 0.04300
C 	C 	0.33032 0.79850 0.57340 -0.12000
H 	H 	0.30640 0.83810 0.54020 0.07100
C 	C 	0.37750 0.80620 0.55070 0.05700
H 	H 	0.38520 0.85130 0.50260 0.02700
C 	C 	0.40207 0.68130 0.66730 0.05300
H 	H 	0.42660 0.64000 0.69880 0.00600
C 	C 	0.46285 0.76650 0.57460 0.10500
C 	C 	0.47528 0.72470 0.50010 -0.08300
H 	H 	0.45270 0.67710 0.46650 0.06900
C 	C 	0.49534 0.83820 0.62630 -0.09300
H 	H 	0.48600 0.86550 0.67620 0.08900
C 	C 	0.54223 0.86840 0.60200 -0.03700
C 	C 	0.55543 0.82670 0.52710 -0.02100
H 	H 	0.58680 0.84690 0.51090 0.06000
C 	C 	0.53638 0.72350 0.39310 0.33100
C 	C 	0.52233 0.75540 0.47620 -0.04200
C 	C 	0.57699 0.96780 0.65290 0.30100
C 	C 	0.23003 0.74440 0.61590 -0.12700
H 	H 	0.23750 0.76550 0.56470 0.07200
C 	C 	0.18276 0.73600 0.63850 0.06500
H 	H 	0.15900 0.75430 0.60190 0.00000
N 	N 	0.16937 0.70250 0.71120 -0.27100
N 	N 	0.41277 0.74870 0.59782 -0.14200
Zn	Zn	0.40253 0.19368 0.73386 1.18800
O 	O 	0.93593 0.48920 0.72294 -0.45500
O 	O 	0.92366 0.29290 0.37337 -0.45900
O 	O 	0.98972 0.13640 0.35057 -0.32500
O 	O 	0.88655 0.53290 0.62550 -0.33700
C 	C 	0.14486 0.17270 0.69260 -0.13300
H 	H 	0.15170 0.12740 0.74110 0.05300
C 	C 	0.29561 0.17870 0.76320 0.06800
H 	H 	0.30410 0.15510 0.81390 -0.01000
C 	C 	0.24722 0.18790 0.74440 -0.12900
H 	H 	0.22400 0.17170 0.78220 0.07000
C 	C 	0.23345 0.22150 0.66920 0.05600
C 	C 	0.18227 0.23240 0.64510 0.04300
C 	C 	0.16968 0.29850 0.57340 -0.12000
H 	H 	0.19360 0.33810 0.54020 0.07100
C 	C 	0.12250 0.30620 0.55070 0.05700
H 	H 	0.11480 0.35130 0.50260 0.02700
C 	C 	0.09793 0.18130 0.66730 0.05300
H 	H 	0.07340 0.14000 0.69880 0.00600
C 	C 	0.03715 0.26650 0.57460 0.10600
C 	C 	0.02472 0.22470 0.50010 -0.08300
H 	H 	0.04730 0.17710 0.46650 0.06900
C 	C 	0.00466 0.33820 0.62630 -0.09300
H 	H 	0.01400 0.36550 0.67620 0.08900
C 	C 	0.95777 0.36840 0.60200 -0.03700
C 	C 	0.94457 0.32670 0.52710 -0.02100
H 	H 	0.91320 0.34690 0.51090 0.06100
C 	C 	0.96362 0.22350 0.39310 0.33100
C 	C 	0.97767 0.25540 0.47620 -0.04200
C 	C 	0.92301 0.46780 0.65290 0.30000
C 	C 	0.26997 0.24440 0.61590 -0.12700
H 	H 	0.26250 0.26550 0.56470 0.07200
C 	C 	0.31724 0.23600 0.63850 0.06500
H 	H 	0.34100 0.25430 0.60190 0.00000
N 	N 	0.33063 0.20250 0.71120 -0.27100
N 	N 	0.08723 0.24870 0.59782 -0.14200
Zn	Zn	0.90253 0.30632 0.26614 1.18900
O 	O 	0.43593 0.01080 0.27706 -0.45500
O 	O 	0.42366 0.20710 0.62663 -0.46000
O 	O 	0.48972 0.36360 0.64943 -0.32500
O 	O 	0.38655 0.96710 0.37450 -0.33800
C 	C 	0.64486 0.32730 0.30740 -0.13300
H 	H 	0.65170 0.37260 0.25890 0.05300
C 	C 	0.79561 0.32130 0.23680 0.06800
H 	H 	0.80410 0.34490 0.18610 -0.01000
C 	C 	0.74722 0.31210 0.25560 -0.12900
H 	H 	0.72400 0.32830 0.21780 0.07000
C 	C 	0.73345 0.27850 0.33080 0.05600
C 	C 	0.68227 0.26760 0.35490 0.04300
C 	C 	0.66968 0.20150 0.42660 -0.12000
H 	H 	0.69360 0.16190 0.45980 0.07100
C 	C 	0.62250 0.19380 0.44930 0.05700
H 	H 	0.61480 0.14870 0.49740 0.02700
C 	C 	0.59793 0.31870 0.33270 0.05300
H 	H 	0.57340 0.36000 0.30120 0.00600
C 	C 	0.53715 0.23350 0.42540 0.10500
C 	C 	0.52472 0.27530 0.49990 -0.08300
H 	H 	0.54730 0.32290 0.53350 0.06900
C 	C 	0.50466 0.16180 0.37370 -0.09300
H 	H 	0.51400 0.13450 0.32380 0.08900
C 	C 	0.45777 0.13160 0.39800 -0.03700
C 	C 	0.44457 0.17330 0.47290 -0.02100
H 	H 	0.41320 0.15310 0.48910 0.06000
C 	C 	0.46362 0.27650 0.60690 0.33100
C 	C 	0.47767 0.24460 0.52380 -0.04200
C 	C 	0.42301 0.03220 0.34710 0.30100
C 	C 	0.76997 0.25560 0.38410 -0.12700
H 	H 	0.76250 0.23450 0.43530 0.07200
C 	C 	0.81724 0.26400 0.36150 0.06500
H 	H 	0.84100 0.24570 0.39810 0.00000
N 	N 	0.83063 0.29750 0.28880 -0.27100
N 	N 	0.58723 0.25130 0.40218 -0.14200
Zn	Zn	0.90253 0.69368 0.76614 1.18900
O 	O 	0.43593 0.98920 0.77706 -0.45500
O 	O 	0.42366 0.79290 0.12663 -0.46000
O 	O 	0.48972 0.63640 0.14943 -0.32500
O 	O 	0.38655 0.03290 0.87450 -0.33800
C 	C 	0.64486 0.67270 0.80740 -0.13300
H 	H 	0.65170 0.62740 0.75890 0.05300
C 	C 	0.79561 0.67870 0.73680 0.06800
H 	H 	0.80410 0.65510 0.68610 -0.01000
C 	C 	0.74722 0.68790 0.75560 -0.12900
H 	H 	0.72400 0.67170 0.71780 0.07000
C 	C 	0.73345 0.72150 0.83080 0.05600
C 	C 	0.68227 0.73240 0.85490 0.04300
C 	C 	0.66968 0.79850 0.92660 -0.12000
H 	H 	0.69360 0.83810 0.95980 0.07100
C 	C 	0.62250 0.80620 0.94930 0.05700
H 	H 	0.61480 0.85130 0.99740 0.02700
C 	C 	0.59793 0.68130 0.83270 0.05300
H 	H 	0.57340 0.64000 0.80120 0.00600
C 	C 	0.53715 0.76650 0.92540 0.10500
C 	C 	0.52472 0.72470 0.99990 -0.08200
H 	H 	0.54730 0.67710 0.03350 0.06900
C 	C 	0.50466 0.83820 0.87370 -0.09300
H 	H 	0.51400 0.86550 0.82380 0.08900
C 	C 	0.45777 0.86840 0.89800 -0.03700
C 	C 	0.44457 0.82670 0.97290 -0.02100
H 	H 	0.41320 0.84690 0.98910 0.06000
C 	C 	0.46362 0.72350 0.10690 0.33100
C 	C 	0.47767 0.75540 0.02380 -0.04200
C 	C 	0.42301 0.96780 0.84710 0.30100
C 	C 	0.76997 0.74440 0.88410 -0.12700
H 	H 	0.76250 0.76550 0.93530 0.07200
C 	C 	0.81724 0.73600 0.86150 0.06500
H 	H 	0.84100 0.75430 0.89810 0.00100
N 	N 	0.83063 0.70250 0.78880 -0.27100
N 	N 	0.58723 0.74870 0.90218 -0.14200
Zn	Zn	0.40253 0.80632 0.23386 1.18800
O 	O 	0.93593 0.51080 0.22294 -0.45500
O 	O 	0.92366 0.70710 0.87337 -0.45900
O 	O 	0.98972 0.86360 0.85057 -0.32500
O 	O 	0.88655 0.46710 0.12550 -0.33700
C 	C 	0.14486 0.82730 0.19260 -0.13300
H 	H 	0.15170 0.87260 0.24110 0.05300
C 	C 	0.29561 0.82130 0.26320 0.06800
H 	H 	0.30410 0.84490 0.31390 -0.01000
C 	C 	0.24722 0.81210 0.24440 -0.12900
H 	H 	0.22400 0.82830 0.28220 0.07000
C 	C 	0.23345 0.77850 0.16920 0.05600
C 	C 	0.18227 0.76760 0.14510 0.04300
C 	C 	0.16968 0.70150 0.07340 -0.12000
H 	H 	0.19360 0.66190 0.04020 0.07100
C 	C 	0.12250 0.69380 0.05070 0.05700
H 	H 	0.11480 0.64870 0.00260 0.02700
C 	C 	0.09793 0.81870 0.16730 0.05300
H 	H 	0.07340 0.86000 0.19880 0.00600
C 	C 	0.03715 0.73350 0.07460 0.10500
C 	C 	0.02472 0.77530 0.00010 -0.08300
H 	H 	0.04730 0.82290 0.96650 0.06900
C 	C 	0.00466 0.66180 0.12630 -0.09300
H 	H 	0.01400 0.63450 0.17620 0.08900
C 	C 	0.95777 0.63160 0.10200 -0.03700
C 	C 	0.94457 0.67330 0.02710 -0.02100
H 	H 	0.91320 0.65310 0.01090 0.06100
C 	C 	0.96362 0.77650 0.89310 0.33100
C 	C 	0.97767 0.74460 0.97620 -0.04100
C 	C 	0.92301 0.53220 0.15290 0.30000
C 	C 	0.26997 0.75560 0.11590 -0.12700
H 	H 	0.26250 0.73450 0.06470 0.07200
C 	C 	0.31724 0.76400 0.13850 0.06500
H 	H 	0.34100 0.74570 0.10190 0.00000
N 	N 	0.33063 0.79750 0.21120 -0.27100
N 	N 	0.08723 0.75130 0.09782 -0.14200
