data_crystal

_cell_length_a 14.87310
_cell_length_b 6.83650
_cell_length_c 15.24490
_cell_angle_alpha 90.00000
_cell_angle_beta  90.00000
_cell_angle_gamma 90.00000

_symmetry_space_group_name_	'P 1'
_symmetry_space_group_name_H-M	'P 1'

loop_
_symmetry_equiv_pos_as_xyz
  x,y,z

loop_
_atom_site_label
_atom_site_type_symbol
_atom_site_fract_x
_atom_site_fract_y
_atom_site_fract_z
_atom_site_charge
H 	H 	0.19680 0.45230 0.69300 0.03100
C 	C 	0.21900 0.57650 0.71680 0.02600
O 	O 	0.09300 0.59180 0.58210 -0.50800
H 	H 	0.50000 0.75000 0.11710 0.22600
H 	H 	0.69680 0.95230 0.19300 0.12300
C 	C 	0.71900 0.07650 0.21680 -0.08300
O 	O 	0.59300 0.09180 0.08210 -0.57600
H 	H 	0.80320 0.04770 0.69300 -0.03000
C 	C 	0.78100 0.92350 0.71680 0.11300
O 	O 	0.90700 0.90820 0.58210 -0.36700
H 	H 	0.30320 0.54770 0.19300 0.03400
C 	C 	0.28100 0.42350 0.21680 -0.00800
O 	O 	0.40700 0.40820 0.08210 -0.54300
H 	H 	0.00000 0.25000 0.61710 0.15800
H 	H 	0.80320 0.95230 0.30700 0.15000
C 	C 	0.78100 0.07650 0.28320 -0.12700
O 	O 	0.90700 0.09180 0.41790 -0.45000
H 	H 	0.50000 0.25000 0.88290 0.16700
H 	H 	0.30320 0.45230 0.80700 0.05000
C 	C 	0.28100 0.57650 0.78320 -0.00700
O 	O 	0.40700 0.59180 0.91790 -0.40800
H 	H 	0.00000 0.75000 0.38290 0.17300
H 	H 	0.19680 0.54770 0.30700 0.04300
C 	C 	0.21900 0.42350 0.28320 -0.02400
O 	O 	0.09300 0.40820 0.41790 -0.50800
H 	H 	0.69680 0.04770 0.80700 -0.03100
C 	C 	0.71900 0.92350 0.78320 0.11400
O 	O 	0.59300 0.90820 0.91790 -0.35500
H 	H 	0.80320 0.54770 0.30700 0.06700
C 	C 	0.78100 0.42350 0.28320 -0.03000
O 	O 	0.90700 0.40820 0.41790 -0.41200
H 	H 	0.30320 0.04770 0.80700 -0.03600
C 	C 	0.28100 0.92350 0.78320 0.09200
O 	O 	0.40700 0.90820 0.91790 -0.35900
H 	H 	0.19680 0.95230 0.30700 0.13100
C 	C 	0.21900 0.07650 0.28320 -0.12500
O 	O 	0.09300 0.09180 0.41790 -0.54700
H 	H 	0.69680 0.45230 0.80700 0.05300
C 	C 	0.71900 0.57650 0.78320 0.01700
O 	O 	0.59300 0.59180 0.91790 -0.40300
H 	H 	0.19680 0.04770 0.69300 -0.05700
C 	C 	0.21900 0.92350 0.71680 0.12600
O 	O 	0.09300 0.90820 0.58210 -0.45900
H 	H 	0.69680 0.54770 0.19300 0.03700
C 	C 	0.71900 0.42350 0.21680 0.01400
O 	O 	0.59300 0.40820 0.08210 -0.53800
H 	H 	0.80320 0.45230 0.69300 0.05400
C 	C 	0.78100 0.57650 0.71680 0.01600
O 	O 	0.90700 0.59180 0.58210 -0.41400
H 	H 	0.30320 0.95230 0.19300 0.12100
C 	C 	0.28100 0.07650 0.21680 -0.10800
O 	O 	0.40700 0.09180 0.08210 -0.58100
Cr	Cr	-0.00000 0.50000 0.50000 1.56900
Cr	Cr	0.50000 0.00000 -0.00000 1.49000
Cr	Cr	0.00000 0.00000 0.50000 1.53200
Cr	Cr	0.50000 0.50000 -0.00000 1.52600
C 	C 	0.18790 0.75000 0.68360 -0.15800
C 	C 	0.12130 0.75000 0.61230 0.45900
C 	C 	0.68790 0.25000 0.18360 -0.11700
C 	C 	0.62130 0.25000 0.11230 0.44200
C 	C 	0.81210 0.75000 0.68360 -0.11300
C 	C 	0.87870 0.75000 0.61230 0.44400
C 	C 	0.31210 0.25000 0.18360 -0.11500
C 	C 	0.37870 0.25000 0.11230 0.43400
C 	C 	0.81210 0.25000 0.31640 -0.05400
C 	C 	0.87870 0.25000 0.38770 0.40800
C 	C 	0.31210 0.75000 0.81640 -0.11000
C 	C 	0.37870 0.75000 0.88770 0.43400
C 	C 	0.18790 0.25000 0.31640 -0.09600
C 	C 	0.12130 0.25000 0.38770 0.42100
C 	C 	0.68790 0.75000 0.81640 -0.11200
C 	C 	0.62130 0.75000 0.88770 0.44200
O 	O 	0.00000 0.75000 0.44850 -0.71400
O 	O 	0.50000 0.25000 0.94850 -0.56300
O 	O 	0.00000 0.25000 0.55150 -0.75000
O 	O 	0.50000 0.75000 0.05150 -0.74100
