data_crystal

_cell_length_a 9.49210
_cell_length_b 9.53940
_cell_length_c 11.01340
_cell_angle_alpha 90.00000
_cell_angle_beta  90.00000
_cell_angle_gamma 90.00000

_symmetry_space_group_name_	'P 1'
_symmetry_space_group_name_H-M	'P 1'

loop_
_symmetry_equiv_pos_as_xyz
  x,y,z

loop_
_atom_site_label
_atom_site_type_symbol
_atom_site_fract_x
_atom_site_fract_y
_atom_site_fract_z
_atom_site_charge
Sr	Sr	0.18148 0.19297 0.18474 1.51900
Sr	Sr	0.31852 0.80703 0.68474 1.51900
Sr	Sr	0.81852 0.69297 0.31526 1.51900
Sr	Sr	0.68148 0.30703 0.81526 1.51900
C 	C 	0.53830 0.25970 0.10280 0.33600
C 	C 	0.69600 0.27420 0.13560 -0.00900
C 	C 	0.71730 0.33530 0.26280 0.01600
C 	C 	0.87520 0.33800 0.29360 0.31300
C 	C 	0.96170 0.74030 0.60280 0.33600
C 	C 	0.80400 0.72580 0.63560 -0.00900
C 	C 	0.78270 0.66470 0.76280 0.01500
C 	C 	0.62480 0.66200 0.79360 0.31400
C 	C 	0.46170 0.75970 0.39720 0.33800
C 	C 	0.30400 0.77420 0.36440 -0.00900
C 	C 	0.28270 0.83530 0.23720 0.01600
C 	C 	0.12480 0.83800 0.20640 0.31300
C 	C 	0.03830 0.24030 0.89720 0.33600
C 	C 	0.19600 0.22580 0.86440 -0.00900
C 	C 	0.21730 0.16470 0.73720 0.01500
C 	C 	0.37520 0.16200 0.70640 0.31300
O 	O 	0.45190 0.24320 0.18630 -0.39800
O 	O 	0.51090 0.26080 0.99020 -0.40100
O 	O 	0.76680 0.35550 0.04420 -0.27200
O 	O 	0.65920 0.47370 0.27140 -0.28100
O 	O 	0.93980 0.22300 0.28490 -0.40500
O 	O 	0.93010 0.45220 0.32630 -0.41800
O 	O 	0.04810 0.75680 0.68630 -0.39700
O 	O 	0.98910 0.73920 0.49020 -0.40400
O 	O 	0.73320 0.64450 0.54420 -0.27100
O 	O 	0.84080 0.52630 0.77140 -0.28100
O 	O 	0.56020 0.77700 0.78490 -0.40700
O 	O 	0.56990 0.54780 0.82630 -0.41800
O 	O 	0.54810 0.74320 0.31370 -0.39800
O 	O 	0.48910 0.76080 0.50980 -0.40300
O 	O 	0.23320 0.85550 0.45580 -0.27100
O 	O 	0.34080 0.97370 0.22860 -0.28000
O 	O 	0.06020 0.72300 0.21510 -0.40500
O 	O 	0.06990 0.95220 0.17370 -0.41500
O 	O 	0.95190 0.25680 0.81370 -0.39500
O 	O 	0.01090 0.23920 0.00980 -0.40500
O 	O 	0.26680 0.14450 0.95580 -0.27100
O 	O 	0.15920 0.02630 0.72860 -0.28200
O 	O 	0.43980 0.27700 0.71510 -0.40600
O 	O 	0.43010 0.04780 0.67370 -0.41700
