data_crystal

_cell_length_a 9.48910
_cell_length_b 9.54610
_cell_length_c 10.98420
_cell_angle_alpha 90.00000
_cell_angle_beta  90.00000
_cell_angle_gamma 90.00000

_symmetry_space_group_name_	'P 1'
_symmetry_space_group_name_H-M	'P 1'

loop_
_symmetry_equiv_pos_as_xyz
  x,y,z

loop_
_atom_site_label
_atom_site_type_symbol
_atom_site_fract_x
_atom_site_fract_y
_atom_site_fract_z
_atom_site_charge
Eu	Eu	0.18189 0.19323 0.18458 1.61200
Eu	Eu	0.31811 0.80677 0.68458 1.61700
Eu	Eu	0.81811 0.69323 0.31542 1.61700
Eu	Eu	0.68189 0.30677 0.81542 1.62000
H 	H 	0.72350 0.18790 0.13750 -0.36500
H 	H 	0.82430 0.34380 0.03710 1.53600
H 	H 	0.67680 0.28590 0.31810 0.19200
H 	H 	0.58010 0.45590 0.31780 0.12400
H 	H 	0.77650 0.81210 0.63750 -0.36500
H 	H 	0.67570 0.65620 0.53710 1.53400
H 	H 	0.82320 0.71410 0.81810 0.19100
H 	H 	0.91990 0.54410 0.81780 0.12400
H 	H 	0.27650 0.68790 0.36250 -0.36400
H 	H 	0.17570 0.84380 0.46290 1.53500
H 	H 	0.32320 0.78590 0.18190 0.19200
H 	H 	0.41990 0.95590 0.18220 0.12500
H 	H 	0.22350 0.31210 0.86250 -0.36400
H 	H 	0.32430 0.15620 0.96290 1.53400
H 	H 	0.17680 0.21410 0.68190 0.19200
H 	H 	0.08010 0.04410 0.68220 0.12400
C 	C 	0.53840 0.26090 0.10310 0.12300
C 	C 	0.69660 0.27610 0.13640 0.94200
C 	C 	0.71790 0.33700 0.26210 -0.46600
C 	C 	0.87610 0.33850 0.29280 0.45500
C 	C 	0.96160 0.73910 0.60310 0.12300
C 	C 	0.80340 0.72390 0.63640 0.94000
C 	C 	0.78210 0.66300 0.76210 -0.46500
C 	C 	0.62390 0.66150 0.79280 0.45400
C 	C 	0.46160 0.76090 0.39690 0.12400
C 	C 	0.30340 0.77610 0.36360 0.94000
C 	C 	0.28210 0.83700 0.23790 -0.46500
C 	C 	0.12390 0.83850 0.20720 0.45400
C 	C 	0.03840 0.23910 0.89690 0.12300
C 	C 	0.19660 0.22390 0.86360 0.94000
C 	C 	0.21790 0.16300 0.73790 -0.46500
C 	C 	0.37610 0.16150 0.70720 0.45400
O 	O 	0.45200 0.24250 0.18660 -0.38900
O 	O 	0.51080 0.26140 0.99120 -0.41300
O 	O 	0.76540 0.35570 0.04450 -2.15000
O 	O 	0.66020 0.47360 0.27220 -0.27700
O 	O 	0.94010 0.22390 0.28520 -0.47900
O 	O 	0.93040 0.45240 0.32710 -0.44800
O 	O 	0.04800 0.75750 0.68660 -0.38900
O 	O 	0.98920 0.73860 0.49120 -0.41500
O 	O 	0.73460 0.64430 0.54450 -2.14700
O 	O 	0.83980 0.52640 0.77220 -0.27700
O 	O 	0.55990 0.77610 0.78520 -0.48200
O 	O 	0.56960 0.54760 0.82710 -0.44900
O 	O 	0.54800 0.74250 0.31340 -0.38900
O 	O 	0.48920 0.76140 0.50880 -0.41400
O 	O 	0.23460 0.85570 0.45550 -2.14700
O 	O 	0.33980 0.97360 0.22780 -0.27600
O 	O 	0.05990 0.72390 0.21480 -0.48000
O 	O 	0.06960 0.95240 0.17290 -0.44600
O 	O 	0.95200 0.25750 0.81340 -0.38700
O 	O 	0.01080 0.23860 0.00880 -0.41600
O 	O 	0.26540 0.14430 0.95550 -2.14600
O 	O 	0.16020 0.02640 0.72780 -0.27700
O 	O 	0.44010 0.27610 0.71480 -0.48100
O 	O 	0.43040 0.04760 0.67290 -0.44800
