data_crystal

_cell_length_a 19.67960
_cell_length_b 15.56840
_cell_length_c 28.59780
_cell_angle_alpha 90.00000
_cell_angle_beta  103.83000
_cell_angle_gamma 90.00000

_symmetry_space_group_name_	'P 1'
_symmetry_space_group_name_H-M	'P 1'

loop_
_symmetry_equiv_pos_as_xyz
  x,y,z

loop_
_atom_site_label
_atom_site_type_symbol
_atom_site_fract_x
_atom_site_fract_y
_atom_site_fract_z
_atom_site_charge
Sn	Sn	0.76711 0.72816 0.00410 1.30700
C 	C 	0.83910 0.75770 0.96221 -0.87200
H 	H 	0.87090 0.70900 0.96280 0.22300
H 	H 	0.86620 0.80860 0.97550 0.21500
H 	H 	0.81370 0.76910 0.92890 0.20900
C 	C 	0.79930 0.65600 0.06816 -0.87100
H 	H 	0.80340 0.69400 0.09600 0.21100
H 	H 	0.84470 0.62930 0.06920 0.21300
H 	H 	0.76460 0.61120 0.06900 0.20700
C 	C 	0.66290 0.77160 0.98180 -0.88200
H 	H 	0.63190 0.72250 0.97110 0.21700
H 	H 	0.65900 0.81230 0.95510 0.21600
H 	H 	0.64950 0.80010 0.00880 0.23100
Sn	Sn	0.74688 0.26573 0.73531 1.29900
C 	C 	0.84200 0.28590 0.71489 -0.85500
H 	H 	0.88000 0.29410 0.74380 0.19700
H 	H 	0.83800 0.33720 0.69450 0.19800
H 	H 	0.85230 0.23590 0.69690 0.20000
C 	C 	0.65540 0.32860 0.69592 -0.85200
H 	H 	0.65020 0.38380 0.71120 0.19300
H 	H 	0.61450 0.29260 0.69560 0.20100
H 	H 	0.65930 0.33840 0.66280 0.20000
C 	C 	0.73810 0.17930 0.79092 -0.87300
H 	H 	0.70700 0.13180 0.77720 0.21200
H 	H 	0.71890 0.20960 0.81490 0.22100
H 	H 	0.78450 0.15650 0.80640 0.21000
Sn	Sn	0.77380 0.67135 0.23564 1.30200
C 	C 	0.77000 0.75590 0.29316 -0.87100
H 	H 	0.79210 0.72840 0.32390 0.22300
H 	H 	0.72120 0.76940 0.29250 0.21300
H 	H 	0.79510 0.80900 0.28970 0.20900
C 	C 	0.86970 0.64270 0.21844 -0.87000
H 	H 	0.89660 0.60290 0.24240 0.21000
H 	H 	0.89650 0.69580 0.21840 0.20300
H 	H 	0.86070 0.61610 0.18650 0.20700
C 	C 	0.68190 0.61530 0.19301 -0.85400
H 	H 	0.64080 0.64120 0.20120 0.19400
H 	H 	0.68220 0.55340 0.19920 0.19900
H 	H 	0.67990 0.62530 0.15890 0.20200
Sn	Sn	0.00666 0.99042 0.25378 1.30000
C 	C 	0.07470 0.93990 0.21359 -0.85900
H 	H 	0.08720 0.88070 0.22380 0.19300
H 	H 	0.05130 0.94050 0.17930 0.20600
H 	H 	0.11720 0.97500 0.21910 0.19900
C 	C 	0.99270 0.12470 0.25614 -0.86500
H 	H 	0.96950 0.13880 0.28190 0.20100
H 	H 	0.03840 0.15320 0.26240 0.20600
H 	H 	0.96380 0.14440 0.22520 0.20800
C 	C 	0.95480 0.90600 0.29170 -0.86000
H 	H 	0.91600 0.87780 0.26900 0.20000
H 	H 	0.98780 0.86260 0.30840 0.20200
H 	H 	0.93650 0.93870 0.31530 0.20100
Fe	Fe	0.75887 0.96030 0.13006 1.17300
C 	C 	0.78479 0.89653 0.07943 -0.23100
N 	N 	0.79504 0.85325 0.04927 -0.18800
C 	C 	0.75737 0.85180 0.16302 -0.23000
N 	N 	0.75877 0.78820 0.18335 -0.19600
C 	C 	0.72978 0.02050 0.18067 -0.23000
N 	N 	0.71500 0.05810 0.21110 -0.19400
C 	C 	0.85469 0.97410 0.16613 -0.23000
N 	N 	0.91115 0.98150 0.18887 -0.19800
C 	C 	0.76473 0.07100 0.10004 -0.22700
N 	N 	0.76789 0.13751 0.08367 -0.07800
C 	C 	0.66310 0.94480 0.09359 -0.23300
N 	N 	0.60778 0.93450 0.07007 -0.08000
Fe	Fe	0.75606 0.48820 0.87520 1.17400
C 	C 	0.74289 0.55865 0.92754 -0.22600
N 	N 	0.73849 0.60388 0.95828 -0.18800
C 	C 	0.76819 0.41810 0.82242 -0.22800
N 	N 	0.77044 0.37510 0.79058 -0.19800
C 	C 	0.77015 0.59120 0.84098 -0.22900
N 	N 	0.77615 0.65200 0.81977 -0.19200
C 	C 	0.65849 0.49440 0.84153 -0.22900
N 	N 	0.60190 0.49910 0.81902 -0.19500
C 	C 	0.85475 0.48904 0.90715 -0.23000
N 	N 	0.91269 0.49360 0.92724 -0.08000
C 	C 	0.73833 0.38336 0.90685 -0.23100
N 	N 	0.72760 0.32000 0.92411 -0.07700
Sn	Sn	0.73289 0.22816 0.49590 1.30600
C 	C 	0.66090 0.25770 0.53779 -0.87300
H 	H 	0.62910 0.20900 0.53720 0.22200
H 	H 	0.63380 0.30860 0.52450 0.21400
H 	H 	0.68630 0.26910 0.57110 0.20800
C 	C 	0.70070 0.15600 0.43184 -0.87000
H 	H 	0.69660 0.19400 0.40400 0.21100
H 	H 	0.65530 0.12930 0.43080 0.21300
H 	H 	0.73540 0.11120 0.43100 0.20700
C 	C 	0.83710 0.27160 0.51820 -0.88600
H 	H 	0.86810 0.22250 0.52890 0.21800
H 	H 	0.84100 0.31230 0.54490 0.21600
H 	H 	0.85050 0.30010 0.49120 0.23200
Sn	Sn	0.75312 0.76573 0.76469 1.29900
C 	C 	0.65800 0.78590 0.78511 -0.85500
H 	H 	0.62000 0.79410 0.75620 0.19700
H 	H 	0.66200 0.83720 0.80550 0.19800
H 	H 	0.64770 0.73590 0.80310 0.20000
C 	C 	0.84460 0.82860 0.80408 -0.85300
H 	H 	0.84980 0.88380 0.78880 0.19400
H 	H 	0.88550 0.79260 0.80440 0.20100
H 	H 	0.84070 0.83840 0.83720 0.20000
C 	C 	0.76190 0.67930 0.70908 -0.87300
H 	H 	0.79300 0.63180 0.72280 0.21200
H 	H 	0.78110 0.70960 0.68510 0.22200
H 	H 	0.71550 0.65650 0.69360 0.21000
Sn	Sn	0.72620 0.17135 0.26436 1.30200
C 	C 	0.73000 0.25590 0.20684 -0.87200
H 	H 	0.70790 0.22840 0.17610 0.22300
H 	H 	0.77880 0.26940 0.20750 0.21300
H 	H 	0.70490 0.30900 0.21030 0.20900
C 	C 	0.63030 0.14270 0.28156 -0.87000
H 	H 	0.60340 0.10290 0.25760 0.21000
H 	H 	0.60350 0.19580 0.28160 0.20300
H 	H 	0.63930 0.11610 0.31350 0.20700
C 	C 	0.81810 0.11530 0.30699 -0.85400
H 	H 	0.85920 0.14120 0.29880 0.19400
H 	H 	0.81780 0.05340 0.30080 0.20000
H 	H 	0.82010 0.12530 0.34110 0.20200
Sn	Sn	0.49334 0.49042 0.24622 1.30100
C 	C 	0.42530 0.43990 0.28641 -0.85900
H 	H 	0.41280 0.38070 0.27620 0.19300
H 	H 	0.44870 0.44050 0.32070 0.20600
H 	H 	0.38280 0.47500 0.28090 0.19900
C 	C 	0.50730 0.62470 0.24386 -0.86400
H 	H 	0.53050 0.63880 0.21810 0.20100
H 	H 	0.46160 0.65320 0.23760 0.20500
H 	H 	0.53620 0.64440 0.27480 0.20800
C 	C 	0.54520 0.40600 0.20830 -0.86000
H 	H 	0.58400 0.37780 0.23100 0.20000
H 	H 	0.51220 0.36260 0.19160 0.20200
H 	H 	0.56350 0.43870 0.18470 0.20100
Fe	Fe	0.74113 0.46030 0.36994 1.17300
C 	C 	0.71521 0.39653 0.42057 -0.23100
N 	N 	0.70496 0.35325 0.45073 -0.18800
C 	C 	0.74263 0.35180 0.33698 -0.23000
N 	N 	0.74123 0.28820 0.31665 -0.19600
C 	C 	0.77022 0.52050 0.31933 -0.23100
N 	N 	0.78500 0.55810 0.28890 -0.19400
C 	C 	0.64531 0.47410 0.33387 -0.23000
N 	N 	0.58885 0.48150 0.31113 -0.19800
C 	C 	0.73527 0.57100 0.39996 -0.22800
N 	N 	0.73211 0.63751 0.41633 -0.07800
C 	C 	0.83690 0.44480 0.40641 -0.23200
N 	N 	0.89222 0.43450 0.42993 -0.08000
Fe	Fe	0.74394 0.98820 0.62480 1.17400
C 	C 	0.75711 0.05865 0.57246 -0.22700
N 	N 	0.76151 0.10388 0.54172 -0.18800
C 	C 	0.73181 0.91810 0.67758 -0.22800
N 	N 	0.72956 0.87510 0.70942 -0.19800
C 	C 	0.72985 0.09120 0.65902 -0.23000
N 	N 	0.72385 0.15200 0.68023 -0.19200
C 	C 	0.84151 0.99440 0.65847 -0.22800
N 	N 	0.89810 0.99910 0.68098 -0.19500
C 	C 	0.64525 0.98904 0.59285 -0.23000
N 	N 	0.58731 0.99360 0.57276 -0.08000
C 	C 	0.76167 0.88336 0.59315 -0.23000
N 	N 	0.77240 0.82000 0.57589 -0.07700
Sn	Sn	0.23289 0.27184 0.99590 1.30600
C 	C 	0.16090 0.24230 0.03779 -0.87300
H 	H 	0.12910 0.29100 0.03720 0.22300
H 	H 	0.13380 0.19140 0.02450 0.21500
H 	H 	0.18630 0.23090 0.07110 0.20900
C 	C 	0.20070 0.34400 0.93184 -0.87100
H 	H 	0.19660 0.30600 0.90400 0.21100
H 	H 	0.15530 0.37070 0.93080 0.21300
H 	H 	0.23540 0.38880 0.93100 0.20700
C 	C 	0.33710 0.22840 0.01820 -0.88200
H 	H 	0.36810 0.27750 0.02890 0.21700
H 	H 	0.34100 0.18770 0.04490 0.21600
H 	H 	0.35050 0.19990 0.99120 0.23100
Sn	Sn	0.25312 0.73427 0.26469 1.29900
C 	C 	0.15800 0.71410 0.28511 -0.85500
H 	H 	0.12000 0.70590 0.25620 0.19700
H 	H 	0.16200 0.66280 0.30550 0.19800
H 	H 	0.14770 0.76410 0.30310 0.20000
C 	C 	0.34460 0.67140 0.30408 -0.85200
H 	H 	0.34980 0.61620 0.28880 0.19300
H 	H 	0.38550 0.70740 0.30440 0.20100
H 	H 	0.34070 0.66160 0.33720 0.20000
C 	C 	0.26190 0.82070 0.20908 -0.87300
H 	H 	0.29300 0.86820 0.22280 0.21200
H 	H 	0.28110 0.79040 0.18510 0.22100
H 	H 	0.21550 0.84350 0.19360 0.21000
Sn	Sn	0.22620 0.32865 0.76436 1.30200
C 	C 	0.23000 0.24410 0.70684 -0.87100
H 	H 	0.20790 0.27160 0.67610 0.22300
H 	H 	0.27880 0.23060 0.70750 0.21300
H 	H 	0.20490 0.19100 0.71030 0.20900
C 	C 	0.13030 0.35730 0.78156 -0.87000
H 	H 	0.10340 0.39710 0.75760 0.21000
H 	H 	0.10350 0.30420 0.78160 0.20300
H 	H 	0.13930 0.38390 0.81350 0.20700
C 	C 	0.31810 0.38470 0.80699 -0.85400
H 	H 	0.35920 0.35880 0.79880 0.19400
H 	H 	0.31780 0.44660 0.80080 0.19900
H 	H 	0.32010 0.37470 0.84110 0.20200
Sn	Sn	0.99334 0.00958 0.74622 1.30000
C 	C 	0.92530 0.06010 0.78641 -0.85900
H 	H 	0.91280 0.11930 0.77620 0.19300
H 	H 	0.94870 0.05950 0.82070 0.20600
H 	H 	0.88280 0.02500 0.78090 0.19900
C 	C 	0.00730 0.87530 0.74386 -0.86500
H 	H 	0.03050 0.86120 0.71810 0.20100
H 	H 	0.96160 0.84680 0.73760 0.20600
H 	H 	0.03620 0.85560 0.77480 0.20800
C 	C 	0.04520 0.09400 0.70830 -0.86000
H 	H 	0.08400 0.12220 0.73100 0.20000
H 	H 	0.01220 0.13740 0.69160 0.20200
H 	H 	0.06350 0.06130 0.68470 0.20100
Fe	Fe	0.24113 0.03970 0.86994 1.17300
C 	C 	0.21521 0.10347 0.92057 -0.23100
N 	N 	0.20496 0.14675 0.95073 -0.18800
C 	C 	0.24263 0.14820 0.83698 -0.23000
N 	N 	0.24123 0.21180 0.81665 -0.19600
C 	C 	0.27022 0.97950 0.81933 -0.23000
N 	N 	0.28500 0.94190 0.78890 -0.19400
C 	C 	0.14531 0.02590 0.83387 -0.23000
N 	N 	0.08885 0.01850 0.81113 -0.19800
C 	C 	0.23527 0.92900 0.89996 -0.22700
N 	N 	0.23211 0.86249 0.91633 -0.07800
C 	C 	0.33690 0.05520 0.90641 -0.23300
N 	N 	0.39222 0.06550 0.92993 -0.08000
Fe	Fe	0.24394 0.51180 0.12480 1.17400
C 	C 	0.25711 0.44135 0.07246 -0.22600
N 	N 	0.26151 0.39612 0.04172 -0.18800
C 	C 	0.23181 0.58190 0.17758 -0.22800
N 	N 	0.22956 0.62490 0.20942 -0.19800
C 	C 	0.22985 0.40880 0.15902 -0.22900
N 	N 	0.22385 0.34800 0.18023 -0.19200
C 	C 	0.34151 0.50560 0.15847 -0.22900
N 	N 	0.39810 0.50090 0.18098 -0.19500
C 	C 	0.14525 0.51096 0.09285 -0.23000
N 	N 	0.08731 0.50640 0.07276 -0.08000
C 	C 	0.26167 0.61664 0.09315 -0.23100
N 	N 	0.27240 0.68000 0.07589 -0.07700
Sn	Sn	0.26711 0.77184 0.50410 1.30600
C 	C 	0.33910 0.74230 0.46221 -0.87300
H 	H 	0.37090 0.79100 0.46280 0.22200
H 	H 	0.36620 0.69140 0.47550 0.21400
H 	H 	0.31370 0.73090 0.42890 0.20800
C 	C 	0.29930 0.84400 0.56816 -0.87000
H 	H 	0.30340 0.80600 0.59600 0.21100
H 	H 	0.34470 0.87070 0.56920 0.21300
H 	H 	0.26460 0.88880 0.56900 0.20700
C 	C 	0.16290 0.72840 0.48180 -0.88600
H 	H 	0.13190 0.77750 0.47110 0.21800
H 	H 	0.15900 0.68770 0.45510 0.21600
H 	H 	0.14950 0.69990 0.50880 0.23200
Sn	Sn	0.24688 0.23427 0.23531 1.29900
C 	C 	0.34200 0.21410 0.21489 -0.85500
H 	H 	0.38000 0.20590 0.24380 0.19700
H 	H 	0.33800 0.16280 0.19450 0.19800
H 	H 	0.35230 0.26410 0.19690 0.20000
C 	C 	0.15540 0.17140 0.19592 -0.85300
H 	H 	0.15020 0.11620 0.21120 0.19400
H 	H 	0.11450 0.20740 0.19560 0.20100
H 	H 	0.15930 0.16160 0.16280 0.20000
C 	C 	0.23810 0.32070 0.29092 -0.87300
H 	H 	0.20700 0.36820 0.27720 0.21200
H 	H 	0.21890 0.29040 0.31490 0.22200
H 	H 	0.28450 0.34350 0.30640 0.21000
Sn	Sn	0.27380 0.82865 0.73564 1.30200
C 	C 	0.27000 0.74410 0.79316 -0.87200
H 	H 	0.29210 0.77160 0.82390 0.22300
H 	H 	0.22120 0.73060 0.79250 0.21300
H 	H 	0.29510 0.69100 0.78970 0.20900
C 	C 	0.36970 0.85730 0.71844 -0.87000
H 	H 	0.39660 0.89710 0.74240 0.21000
H 	H 	0.39650 0.80420 0.71840 0.20300
H 	H 	0.36070 0.88390 0.68650 0.20700
C 	C 	0.18190 0.88470 0.69301 -0.85400
H 	H 	0.14080 0.85880 0.70120 0.19400
H 	H 	0.18220 0.94660 0.69920 0.20000
H 	H 	0.17990 0.87470 0.65890 0.20200
Sn	Sn	0.50666 0.50958 0.75378 1.30100
C 	C 	0.57470 0.56010 0.71359 -0.85900
H 	H 	0.58720 0.61930 0.72380 0.19300
H 	H 	0.55130 0.55950 0.67930 0.20600
H 	H 	0.61720 0.52500 0.71910 0.19900
C 	C 	0.49270 0.37530 0.75614 -0.86400
H 	H 	0.46950 0.36120 0.78190 0.20100
H 	H 	0.53840 0.34680 0.76240 0.20500
H 	H 	0.46380 0.35560 0.72520 0.20800
C 	C 	0.45480 0.59400 0.79170 -0.86000
H 	H 	0.41600 0.62220 0.76900 0.20000
H 	H 	0.48780 0.63740 0.80840 0.20200
H 	H 	0.43650 0.56130 0.81530 0.20100
Fe	Fe	0.25887 0.53970 0.63006 1.17300
C 	C 	0.28479 0.60347 0.57943 -0.23100
N 	N 	0.29504 0.64675 0.54927 -0.18800
C 	C 	0.25737 0.64820 0.66302 -0.23000
N 	N 	0.25877 0.71180 0.68335 -0.19600
C 	C 	0.22978 0.47950 0.68067 -0.23100
N 	N 	0.21500 0.44190 0.71110 -0.19400
C 	C 	0.35469 0.52590 0.66613 -0.23000
N 	N 	0.41115 0.51850 0.68887 -0.19800
C 	C 	0.26473 0.42900 0.60004 -0.22800
N 	N 	0.26789 0.36249 0.58367 -0.07800
C 	C 	0.16310 0.55520 0.59359 -0.23200
N 	N 	0.10778 0.56550 0.57007 -0.08000
Fe	Fe	0.25606 0.01180 0.37520 1.17400
C 	C 	0.24289 0.94135 0.42754 -0.22700
N 	N 	0.23849 0.89612 0.45828 -0.18800
C 	C 	0.26819 0.08190 0.32242 -0.22800
N 	N 	0.27044 0.12490 0.29058 -0.19800
C 	C 	0.27015 0.90880 0.34098 -0.23000
N 	N 	0.27615 0.84800 0.31977 -0.19200
C 	C 	0.15849 0.00560 0.34153 -0.22800
N 	N 	0.10190 0.00090 0.31902 -0.19500
C 	C 	0.35475 0.01096 0.40715 -0.23000
N 	N 	0.41269 0.00640 0.42724 -0.08000
C 	C 	0.23833 0.11664 0.40685 -0.23000
N 	N 	0.22760 0.18000 0.42411 -0.07700
