data_crystal

_cell_length_a 16.23500
_cell_length_b 9.36500
_cell_length_c 16.26400
_cell_angle_alpha 90.00000
_cell_angle_beta  116.78600
_cell_angle_gamma 90.00000

_symmetry_space_group_name_	'P 1'
_symmetry_space_group_name_H-M	'P 1'

loop_
_symmetry_equiv_pos_as_xyz
  x,y,z

loop_
_atom_site_label
_atom_site_type_symbol
_atom_site_fract_x
_atom_site_fract_y
_atom_site_fract_z
_atom_site_charge
Zn	Zn	0.29943 0.42944 0.70058 1.24500
O 	O 	0.42350 0.36550 0.76720 -0.54300
C 	C 	0.13450 0.37500 0.86670 0.14500
H 	H 	0.15110 0.46150 0.85030 0.00400
C 	C 	0.08510 0.37470 0.91720 -0.25300
H 	H 	0.06940 0.46130 0.93430 0.12200
C 	C 	0.71260 0.36240 0.88490 -0.14600
H 	H 	0.74730 0.43090 0.87310 0.08200
C 	C 	0.11330 0.36890 0.28810 0.09100
H 	H 	0.12320 0.43730 0.25200 -0.01200
C 	C 	0.61430 0.36630 0.83950 0.04700
H 	H 	0.58330 0.44610 0.80570 0.02200
C 	C 	0.16050 0.37930 0.38430 -0.14600
H 	H 	0.19250 0.46090 0.41440 0.08400
O 	O 	0.32200 0.63620 0.83560 -0.15400
N 	N 	0.30590 0.62990 0.68270 -0.30400
O 	O 	0.23430 0.36950 0.76640 -0.49900
O 	O 	0.23190 0.36520 0.57710 -0.54900
O 	O 	0.17010 0.63050 0.68150 -0.16700
C 	C 	0.60770 0.34560 0.90740 0.09900
C 	C 	0.70210 0.33760 0.95990 -0.06300
H 	H 	0.01550 0.44480 0.26920 0.15400
C 	C 	0.04750 0.36100 0.29550 -0.35900
C 	C 	0.09670 0.34640 0.39030 0.25400
H 	H 	0.79890 0.21180 0.81060 0.04700
H 	H 	0.89100 0.19750 0.81270 0.05900
Zn	Zn	0.29943 0.07056 0.70058 1.24400
O 	O 	0.42350 0.13450 0.76720 -0.54400
C 	C 	0.13450 0.12500 0.86670 0.14400
H 	H 	0.15110 0.03850 0.85030 0.00300
C 	C 	0.08510 0.12530 0.91720 -0.25400
H 	H 	0.06940 0.03870 0.93430 0.12000
C 	C 	0.71260 0.13760 0.88490 -0.14800
H 	H 	0.74730 0.06910 0.87310 0.08200
C 	C 	0.11330 0.13110 0.28810 0.09600
H 	H 	0.12320 0.06270 0.25200 -0.01500
C 	C 	0.61430 0.13370 0.83950 0.04700
H 	H 	0.58330 0.05390 0.80570 0.02200
C 	C 	0.16050 0.12070 0.38430 -0.15100
H 	H 	0.19250 0.03910 0.41440 0.08500
O 	O 	0.32200 0.86380 0.83560 -0.15300
N 	N 	0.30590 0.87010 0.68270 -0.30400
O 	O 	0.23430 0.13050 0.76640 -0.49900
O 	O 	0.23190 0.13480 0.57710 -0.54900
O 	O 	0.17010 0.86950 0.68150 -0.16600
C 	C 	0.60770 0.15440 0.90740 0.09900
C 	C 	0.70210 0.16240 0.95990 -0.06200
H 	H 	0.01550 0.05520 0.26920 0.15500
C 	C 	0.04750 0.13900 0.29550 -0.36500
C 	C 	0.09670 0.15360 0.39030 0.25800
H 	H 	0.79890 0.28820 0.81060 0.04700
H 	H 	0.89100 0.30250 0.81270 0.05800
C 	C 	0.90490 0.25000 0.09690 0.34900
C 	C 	0.99850 0.25000 0.14240 -0.30900
C 	C 	0.85790 0.25000 0.99930 -0.26000
C 	C 	0.05880 0.25000 0.94260 0.21400
C 	C 	0.04840 0.25000 0.09130 0.23700
C 	C 	0.75570 0.25000 0.94900 0.20000
C 	C 	0.04790 0.25000 0.24310 0.25900
C 	C 	0.00450 0.25000 0.99510 -0.23300
C 	C 	0.90940 0.25000 0.95020 0.20700
C 	C 	0.56600 0.25000 0.84660 -0.24800
C 	C 	0.15520 0.25000 0.43430 -0.27600
C 	C 	0.46330 0.25000 0.78900 0.51400
C 	C 	0.20940 0.25000 0.53740 0.52400
C 	C 	0.15920 0.25000 0.84050 -0.20000
C 	C 	0.21420 0.25000 0.78540 0.45600
N 	N 	0.86660 0.25000 0.85490 -0.23700
N 	N 	0.14200 0.25000 0.13410 -0.34100
H 	H 	0.17150 0.25000 0.19330 0.14900
H 	H 	0.17230 0.25000 0.10210 0.15700
H 	H 	0.88530 0.25000 0.19520 0.22200
N 	N 	0.85950 0.25000 0.13600 -0.43600
H 	H 	0.80030 0.25000 0.10550 0.22000
C 	C 	0.29940 0.75000 0.70020 0.32100
N 	N 	0.31370 0.75000 0.80360 -0.00500
N 	N 	0.19300 0.75000 0.68880 0.01100
Zn	Zn	0.70057 0.92944 0.29942 1.24400
O 	O 	0.57650 0.86550 0.23280 -0.54400
C 	C 	0.86550 0.87500 0.13330 0.14400
H 	H 	0.84890 0.96150 0.14970 0.00300
C 	C 	0.91490 0.87470 0.08280 -0.25400
H 	H 	0.93060 0.96130 0.06570 0.12000
C 	C 	0.28740 0.86240 0.11510 -0.14800
H 	H 	0.25270 0.93090 0.12690 0.08200
C 	C 	0.88670 0.86890 0.71190 0.09600
H 	H 	0.87680 0.93730 0.74800 -0.01500
C 	C 	0.38570 0.86630 0.16050 0.04700
H 	H 	0.41670 0.94610 0.19430 0.02200
C 	C 	0.83950 0.87930 0.61570 -0.15100
H 	H 	0.80750 0.96090 0.58560 0.08500
O 	O 	0.67800 0.13620 0.16440 -0.15300
N 	N 	0.69410 0.12990 0.31730 -0.30400
O 	O 	0.76570 0.86950 0.23360 -0.49900
O 	O 	0.76810 0.86520 0.42290 -0.54900
O 	O 	0.82990 0.13050 0.31850 -0.16600
C 	C 	0.39230 0.84560 0.09260 0.09900
C 	C 	0.29790 0.83760 0.04010 -0.06200
H 	H 	0.98450 0.94480 0.73080 0.15500
C 	C 	0.95250 0.86100 0.70450 -0.36500
C 	C 	0.90330 0.84640 0.60970 0.25800
H 	H 	0.20110 0.71180 0.18940 0.04700
H 	H 	0.10900 0.69750 0.18730 0.05800
Zn	Zn	0.70057 0.57056 0.29942 1.24400
O 	O 	0.57650 0.63450 0.23280 -0.54400
C 	C 	0.86550 0.62500 0.13330 0.14400
H 	H 	0.84890 0.53850 0.14970 0.00300
C 	C 	0.91490 0.62530 0.08280 -0.25400
H 	H 	0.93060 0.53870 0.06570 0.12100
C 	C 	0.28740 0.63760 0.11510 -0.14700
H 	H 	0.25270 0.56910 0.12690 0.08100
C 	C 	0.88670 0.63110 0.71190 0.09000
H 	H 	0.87680 0.56270 0.74800 -0.01300
C 	C 	0.38570 0.63370 0.16050 0.04700
H 	H 	0.41670 0.55390 0.19430 0.02200
C 	C 	0.83950 0.62070 0.61570 -0.14600
H 	H 	0.80750 0.53910 0.58560 0.08400
O 	O 	0.67800 0.36380 0.16440 -0.15400
N 	N 	0.69410 0.37010 0.31730 -0.30400
O 	O 	0.76570 0.63050 0.23360 -0.49900
O 	O 	0.76810 0.63480 0.42290 -0.54900
O 	O 	0.82990 0.36950 0.31850 -0.16700
C 	C 	0.39230 0.65440 0.09260 0.09900
C 	C 	0.29790 0.66240 0.04010 -0.06300
H 	H 	0.98450 0.55520 0.73080 0.15400
C 	C 	0.95250 0.63900 0.70450 -0.35900
C 	C 	0.90330 0.65360 0.60970 0.25400
H 	H 	0.20110 0.78820 0.18940 0.04700
H 	H 	0.10900 0.80250 0.18730 0.05900
C 	C 	0.09510 0.75000 0.90310 0.34900
C 	C 	0.00150 0.75000 0.85760 -0.30900
C 	C 	0.14210 0.75000 0.00070 -0.26000
C 	C 	0.94120 0.75000 0.05740 0.21400
C 	C 	0.95160 0.75000 0.90870 0.23700
C 	C 	0.24430 0.75000 0.05100 0.20000
C 	C 	0.95210 0.75000 0.75690 0.25900
C 	C 	0.99550 0.75000 0.00490 -0.23300
C 	C 	0.09060 0.75000 0.04980 0.20700
C 	C 	0.43400 0.75000 0.15340 -0.24800
C 	C 	0.84480 0.75000 0.56570 -0.27600
C 	C 	0.53670 0.75000 0.21100 0.51400
C 	C 	0.79060 0.75000 0.46260 0.52400
C 	C 	0.84080 0.75000 0.15950 -0.20000
C 	C 	0.78580 0.75000 0.21460 0.45600
N 	N 	0.13340 0.75000 0.14510 -0.23700
N 	N 	0.85800 0.75000 0.86590 -0.34100
H 	H 	0.82850 0.75000 0.80670 0.14900
H 	H 	0.82770 0.75000 0.89790 0.15700
H 	H 	0.11470 0.75000 0.80480 0.22200
N 	N 	0.14050 0.75000 0.86400 -0.43600
H 	H 	0.19970 0.75000 0.89450 0.22000
C 	C 	0.70060 0.25000 0.29980 0.32100
N 	N 	0.68630 0.25000 0.19640 -0.00500
N 	N 	0.80700 0.25000 0.31120 0.01100
