data_crystal

_cell_length_a 16.84310
_cell_length_b 16.84310
_cell_length_c 30.28800
_cell_angle_alpha 90.00000
_cell_angle_beta  90.00000
_cell_angle_gamma 120.00000

_symmetry_space_group_name_	'P 1'
_symmetry_space_group_name_H-M	'P 1'

loop_
_symmetry_equiv_pos_as_xyz
  x,y,z

loop_
_atom_site_label
_atom_site_type_symbol
_atom_site_fract_x
_atom_site_fract_y
_atom_site_fract_z
_atom_site_charge
O 	O 	0.34740 0.51780 0.69980 -0.57400
N 	N 	0.46660 0.47440 0.51160 -0.05100
C 	C 	0.38170 0.47520 0.61760 0.10400
H 	H 	0.32950 0.43280 0.63270 0.01100
C 	C 	0.39740 0.45480 0.57430 -0.18900
H 	H 	0.35730 0.40040 0.56000 0.10800
O 	O 	0.48220 0.82960 0.69980 -0.57400
N 	N 	0.52560 0.99220 0.51160 -0.05100
C 	C 	0.52480 0.90650 0.61760 0.10400
H 	H 	0.56720 0.89670 0.63270 0.01100
C 	C 	0.54520 0.94260 0.57430 -0.18900
H 	H 	0.59960 0.95690 0.56000 0.10800
O 	O 	0.17040 0.65260 0.69980 -0.57400
N 	N 	0.00780 0.53340 0.51160 -0.05100
C 	C 	0.09350 0.61830 0.61760 0.10400
H 	H 	0.10330 0.67050 0.63270 0.01100
C 	C 	0.05740 0.60260 0.57430 -0.18900
H 	H 	0.04310 0.64270 0.56000 0.10800
O 	O 	0.65260 0.48220 0.19980 -0.57300
N 	N 	0.53340 0.52560 0.01160 -0.05000
C 	C 	0.61830 0.52480 0.11760 0.10500
H 	H 	0.67050 0.56720 0.13270 0.01200
C 	C 	0.60260 0.54520 0.07430 -0.18800
H 	H 	0.64270 0.59960 0.06000 0.10900
O 	O 	0.51780 0.17040 0.19980 -0.57300
N 	N 	0.47440 0.00780 0.01160 -0.05000
C 	C 	0.47520 0.09350 0.11760 0.10500
H 	H 	0.43280 0.10330 0.13270 0.01200
C 	C 	0.45480 0.05740 0.07430 -0.18800
H 	H 	0.40040 0.04310 0.06000 0.10900
O 	O 	0.82960 0.34740 0.19980 -0.57300
N 	N 	0.99220 0.46660 0.01160 -0.05000
C 	C 	0.90650 0.38170 0.11760 0.10500
H 	H 	0.89670 0.32950 0.13270 0.01200
C 	C 	0.94260 0.39740 0.07430 -0.18800
H 	H 	0.95690 0.35730 0.06000 0.10900
O 	O 	0.51780 0.34740 0.30020 -0.57300
N 	N 	0.47440 0.46660 0.48840 -0.05000
C 	C 	0.47520 0.38170 0.38240 0.10500
H 	H 	0.43280 0.32950 0.36730 0.01200
C 	C 	0.45480 0.39740 0.42570 -0.18800
H 	H 	0.40040 0.35730 0.44000 0.10900
O 	O 	0.82960 0.48220 0.30020 -0.57300
N 	N 	0.99220 0.52560 0.48840 -0.05000
C 	C 	0.90650 0.52480 0.38240 0.10500
H 	H 	0.89670 0.56720 0.36730 0.01200
C 	C 	0.94260 0.54520 0.42570 -0.18800
H 	H 	0.95690 0.59960 0.44000 0.10900
O 	O 	0.65260 0.17040 0.30020 -0.57300
N 	N 	0.53340 0.00780 0.48840 -0.05000
C 	C 	0.61830 0.09350 0.38240 0.10500
H 	H 	0.67050 0.10330 0.36730 0.01200
C 	C 	0.60260 0.05740 0.42570 -0.18800
H 	H 	0.64270 0.04310 0.44000 0.10900
O 	O 	0.48220 0.65260 0.80020 -0.57300
N 	N 	0.52560 0.53340 0.98840 -0.05000
C 	C 	0.52480 0.61830 0.88240 0.10500
H 	H 	0.56720 0.67050 0.86730 0.01200
C 	C 	0.54520 0.60260 0.92570 -0.18800
H 	H 	0.59960 0.64270 0.94000 0.10900
O 	O 	0.17040 0.51780 0.80020 -0.57300
N 	N 	0.00780 0.47440 0.98840 -0.05000
C 	C 	0.09350 0.47520 0.88240 0.10500
H 	H 	0.10330 0.43280 0.86730 0.01200
C 	C 	0.05740 0.45480 0.92570 -0.18800
H 	H 	0.04310 0.40040 0.94000 0.10900
O 	O 	0.34740 0.82960 0.80020 -0.57300
N 	N 	0.46660 0.99220 0.98840 -0.05000
C 	C 	0.38170 0.90650 0.88240 0.10500
H 	H 	0.32950 0.89670 0.86730 0.01200
C 	C 	0.39740 0.94260 0.92570 -0.18800
H 	H 	0.35730 0.95690 0.94000 0.10900
O 	O 	0.65260 0.48220 0.30020 -0.57300
N 	N 	0.53340 0.52560 0.48840 -0.05000
C 	C 	0.61830 0.52480 0.38240 0.10500
H 	H 	0.67050 0.56720 0.36730 0.01200
C 	C 	0.60260 0.54520 0.42570 -0.18800
H 	H 	0.64270 0.59960 0.44000 0.10900
O 	O 	0.51780 0.17040 0.30020 -0.57300
N 	N 	0.47440 0.00780 0.48840 -0.05000
C 	C 	0.47520 0.09350 0.38240 0.10500
H 	H 	0.43280 0.10330 0.36730 0.01200
C 	C 	0.45480 0.05740 0.42570 -0.18800
H 	H 	0.40040 0.04310 0.44000 0.10900
O 	O 	0.82960 0.34740 0.30020 -0.57300
N 	N 	0.99220 0.46660 0.48840 -0.05000
C 	C 	0.90650 0.38170 0.38240 0.10500
H 	H 	0.89670 0.32950 0.36730 0.01200
C 	C 	0.94260 0.39740 0.42570 -0.18800
H 	H 	0.95690 0.35730 0.44000 0.10900
O 	O 	0.34740 0.51780 0.80020 -0.57300
N 	N 	0.46660 0.47440 0.98840 -0.05000
C 	C 	0.38170 0.47520 0.88240 0.10500
H 	H 	0.32950 0.43280 0.86730 0.01200
C 	C 	0.39740 0.45480 0.92570 -0.18800
H 	H 	0.35730 0.40040 0.94000 0.10900
O 	O 	0.48220 0.82960 0.80020 -0.57300
N 	N 	0.52560 0.99220 0.98840 -0.05000
C 	C 	0.52480 0.90650 0.88240 0.10500
H 	H 	0.56720 0.89670 0.86730 0.01200
C 	C 	0.54520 0.94260 0.92570 -0.18800
H 	H 	0.59960 0.95690 0.94000 0.10900
O 	O 	0.17040 0.65260 0.80020 -0.57300
N 	N 	0.00780 0.53340 0.98840 -0.05000
C 	C 	0.09350 0.61830 0.88240 0.10500
H 	H 	0.10330 0.67050 0.86730 0.01200
C 	C 	0.05740 0.60260 0.92570 -0.18800
H 	H 	0.04310 0.64270 0.94000 0.10900
O 	O 	0.48220 0.65260 0.69980 -0.57300
N 	N 	0.52560 0.53340 0.51160 -0.05000
C 	C 	0.52480 0.61830 0.61760 0.10500
H 	H 	0.56720 0.67050 0.63270 0.01200
C 	C 	0.54520 0.60260 0.57430 -0.18800
H 	H 	0.59960 0.64270 0.56000 0.10900
O 	O 	0.17040 0.51780 0.69980 -0.57300
N 	N 	0.00780 0.47440 0.51160 -0.05000
C 	C 	0.09350 0.47520 0.61760 0.10500
H 	H 	0.10330 0.43280 0.63270 0.01200
C 	C 	0.05740 0.45480 0.57430 -0.18800
H 	H 	0.04310 0.40040 0.56000 0.10900
O 	O 	0.34740 0.82960 0.69980 -0.57300
N 	N 	0.46660 0.99220 0.51160 -0.05000
C 	C 	0.38170 0.90650 0.61760 0.10500
H 	H 	0.32950 0.89670 0.63270 0.01200
C 	C 	0.39740 0.94260 0.57430 -0.18800
H 	H 	0.35730 0.95690 0.56000 0.10900
O 	O 	0.51780 0.34740 0.19980 -0.57300
N 	N 	0.47440 0.46660 0.01160 -0.05000
C 	C 	0.47520 0.38170 0.11760 0.10500
H 	H 	0.43280 0.32950 0.13270 0.01200
C 	C 	0.45480 0.39740 0.07430 -0.18800
H 	H 	0.40040 0.35730 0.06000 0.10900
O 	O 	0.82960 0.48220 0.19980 -0.57300
N 	N 	0.99220 0.52560 0.01160 -0.05000
C 	C 	0.90650 0.52480 0.11760 0.10500
H 	H 	0.89670 0.56720 0.13270 0.01200
C 	C 	0.94260 0.54520 0.07430 -0.18800
H 	H 	0.95690 0.59960 0.06000 0.10900
O 	O 	0.65260 0.17040 0.19980 -0.57300
N 	N 	0.53340 0.00780 0.01160 -0.05000
C 	C 	0.61830 0.09350 0.11760 0.10500
H 	H 	0.67050 0.10330 0.13270 0.01200
C 	C 	0.60260 0.05740 0.07430 -0.18800
H 	H 	0.64270 0.04310 0.06000 0.10900
In	In	0.26407 0.52813 0.75000 2.00500
N 	N 	0.19000 0.38000 0.75000 -0.29700
C 	C 	0.09515 0.19030 0.75000 0.07000
C 	C 	0.04470 0.08940 0.75000 0.09500
In	In	0.47187 0.73593 0.75000 2.00500
N 	N 	0.62000 0.81000 0.75000 -0.29700
C 	C 	0.80970 0.90485 0.75000 0.07000
C 	C 	0.91060 0.95530 0.75000 0.09500
In	In	0.26407 0.73593 0.75000 2.00500
N 	N 	0.19000 0.81000 0.75000 -0.29700
C 	C 	0.09515 0.90485 0.75000 0.07100
C 	C 	0.04470 0.95530 0.75000 0.09400
In	In	0.73593 0.47187 0.25000 2.00500
N 	N 	0.81000 0.62000 0.25000 -0.29700
C 	C 	0.90485 0.80970 0.25000 0.07000
C 	C 	0.95530 0.91060 0.25000 0.09500
In	In	0.52813 0.26407 0.25000 2.00500
N 	N 	0.38000 0.19000 0.25000 -0.29700
C 	C 	0.19030 0.09515 0.25000 0.07000
C 	C 	0.08940 0.04470 0.25000 0.09500
In	In	0.73593 0.26407 0.25000 2.00500
N 	N 	0.81000 0.19000 0.25000 -0.29700
C 	C 	0.90485 0.09515 0.25000 0.07100
C 	C 	0.95530 0.04470 0.25000 0.09400
O 	O 	0.33333 0.66667 0.75000 -1.05000
O 	O 	0.66667 0.33333 0.25000 -1.05000
N 	N 	0.09430 0.04715 0.75000 -0.13700
N 	N 	0.95285 0.04715 0.75000 -0.13800
N 	N 	0.95285 0.90570 0.75000 -0.13700
N 	N 	0.90570 0.95285 0.25000 -0.13700
N 	N 	0.04715 0.95285 0.25000 -0.13800
N 	N 	0.04715 0.09430 0.25000 -0.13700
C 	C 	0.09720 0.33140 0.75000 0.08200
H 	H 	0.06540 0.36330 0.75000 -0.00300
C 	C 	0.04690 0.23550 0.75000 -0.13500
H 	H 	0.98310 0.20390 0.75000 0.08800
C 	C 	0.66860 0.76580 0.75000 0.08200
H 	H 	0.63670 0.70210 0.75000 -0.00300
C 	C 	0.76450 0.81140 0.75000 -0.13500
H 	H 	0.79610 0.77920 0.75000 0.08900
C 	C 	0.23420 0.90280 0.75000 0.08200
H 	H 	0.29790 0.93460 0.75000 -0.00300
C 	C 	0.18860 0.95310 0.75000 -0.13500
H 	H 	0.22080 0.01690 0.75000 0.08900
C 	C 	0.90280 0.66860 0.25000 0.08200
H 	H 	0.93460 0.63670 0.25000 -0.00300
C 	C 	0.95310 0.76450 0.25000 -0.13500
H 	H 	0.01690 0.79610 0.25000 0.08800
C 	C 	0.33140 0.23420 0.25000 0.08200
H 	H 	0.36330 0.29790 0.25000 -0.00300
C 	C 	0.23550 0.18860 0.25000 -0.13500
H 	H 	0.20390 0.22080 0.25000 0.08900
C 	C 	0.76580 0.09720 0.25000 0.08200
H 	H 	0.70210 0.06540 0.25000 -0.00300
C 	C 	0.81140 0.04690 0.25000 -0.13500
H 	H 	0.77920 0.98310 0.25000 0.08900
C 	C 	0.33140 0.09720 0.25000 0.08200
H 	H 	0.36330 0.06540 0.25000 -0.00300
C 	C 	0.23550 0.04690 0.25000 -0.13500
H 	H 	0.20390 0.98310 0.25000 0.08800
C 	C 	0.76580 0.66860 0.25000 0.08200
H 	H 	0.70210 0.63670 0.25000 -0.00300
C 	C 	0.81140 0.76450 0.25000 -0.13500
H 	H 	0.77920 0.79610 0.25000 0.08900
C 	C 	0.90280 0.23420 0.25000 0.08200
H 	H 	0.93460 0.29790 0.25000 -0.00300
C 	C 	0.95310 0.18860 0.25000 -0.13500
H 	H 	0.01690 0.22080 0.25000 0.08900
C 	C 	0.66860 0.90280 0.75000 0.08200
H 	H 	0.63670 0.93460 0.75000 -0.00300
C 	C 	0.76450 0.95310 0.75000 -0.13500
H 	H 	0.79610 0.01690 0.75000 0.08800
C 	C 	0.23420 0.33140 0.75000 0.08200
H 	H 	0.29790 0.36330 0.75000 -0.00300
C 	C 	0.18860 0.23550 0.75000 -0.13500
H 	H 	0.22080 0.20390 0.75000 0.08900
C 	C 	0.09720 0.76580 0.75000 0.08200
H 	H 	0.06540 0.70210 0.75000 -0.00300
C 	C 	0.04690 0.81140 0.75000 -0.13500
H 	H 	0.98310 0.77920 0.75000 0.08900
C 	C 	0.44280 0.55720 0.63800 -0.18000
C 	C 	0.47740 0.52260 0.55480 0.16900
C 	C 	0.42270 0.57730 0.68350 0.45700
C 	C 	0.44280 0.88560 0.63800 -0.18000
C 	C 	0.47740 0.95480 0.55480 0.16900
C 	C 	0.42270 0.84540 0.68350 0.45700
C 	C 	0.11440 0.55720 0.63800 -0.18000
C 	C 	0.04520 0.52260 0.55480 0.16900
C 	C 	0.15460 0.57730 0.68350 0.45700
C 	C 	0.55720 0.44280 0.13800 -0.18000
C 	C 	0.52260 0.47740 0.05480 0.16900
C 	C 	0.57730 0.42270 0.18350 0.45700
C 	C 	0.55720 0.11440 0.13800 -0.18000
C 	C 	0.52260 0.04520 0.05480 0.16900
C 	C 	0.57730 0.15460 0.18350 0.45700
C 	C 	0.88560 0.44280 0.13800 -0.18000
C 	C 	0.95480 0.47740 0.05480 0.16900
C 	C 	0.84540 0.42270 0.18350 0.45700
C 	C 	0.55720 0.44280 0.36200 -0.18000
C 	C 	0.52260 0.47740 0.44520 0.16900
C 	C 	0.57730 0.42270 0.31650 0.45700
C 	C 	0.88560 0.44280 0.36200 -0.18000
C 	C 	0.95480 0.47740 0.44520 0.16900
C 	C 	0.84540 0.42270 0.31650 0.45700
C 	C 	0.55720 0.11440 0.36200 -0.18000
C 	C 	0.52260 0.04520 0.44520 0.16900
C 	C 	0.57730 0.15460 0.31650 0.45700
C 	C 	0.44280 0.55720 0.86200 -0.18000
C 	C 	0.47740 0.52260 0.94520 0.16900
C 	C 	0.42270 0.57730 0.81650 0.45700
C 	C 	0.11440 0.55720 0.86200 -0.18000
C 	C 	0.04520 0.52260 0.94520 0.16900
C 	C 	0.15460 0.57730 0.81650 0.45700
C 	C 	0.44280 0.88560 0.86200 -0.18000
C 	C 	0.47740 0.95480 0.94520 0.16900
C 	C 	0.42270 0.84540 0.81650 0.45700
