data_crystal

_cell_length_a 16.51260
_cell_length_b 16.51260
_cell_length_c 24.50980
_cell_angle_alpha 90.00000
_cell_angle_beta  90.00000
_cell_angle_gamma 120.00000

_symmetry_space_group_name_	'P 1'
_symmetry_space_group_name_H-M	'P 1'

loop_
_symmetry_equiv_pos_as_xyz
  x,y,z

loop_
_atom_site_label
_atom_site_type_symbol
_atom_site_fract_x
_atom_site_fract_y
_atom_site_fract_z
_atom_site_charge
Ce	Ce	0.92298 0.92298 -0.00000 2.16600
Ce	Ce	0.00000 0.07702 0.66667 2.08000
Ce	Ce	0.07702 -0.00000 0.33333 2.08100
Ce	Ce	0.07702 0.07702 0.50000 2.09000
Ce	Ce	-0.00000 0.92298 0.16667 2.12800
Ce	Ce	0.92298 -0.00000 0.83333 2.12600
H 	H 	0.02230 0.68330 0.99680 0.10100
H 	H 	0.11490 0.61570 0.01100 0.00800
H 	H 	0.28110 0.82580 0.10910 0.04700
H 	H 	0.19110 0.89690 0.09600 0.07700
H 	H 	0.15180 0.53530 0.06310 0.06000
H 	H 	0.12580 0.39340 0.01700 0.08200
H 	H 	0.04450 0.23680 0.01940 -0.03000
H 	H 	0.66100 0.97770 0.66347 0.05100
H 	H 	0.50080 0.88510 0.67767 0.07400
H 	H 	0.54470 0.71890 0.77577 0.06600
H 	H 	0.70580 0.80890 0.76267 0.03700
H 	H 	0.38350 0.84820 0.72977 0.07500
H 	H 	0.26760 0.87420 0.68367 0.09600
H 	H 	0.19230 0.95550 0.68607 0.02000
H 	H 	0.31670 0.33900 0.33013 0.02500
H 	H 	0.38430 0.49920 0.34433 0.06300
H 	H 	0.17420 0.45530 0.44243 0.04800
H 	H 	0.10310 0.29420 0.42933 0.02200
H 	H 	0.46470 0.61650 0.39643 0.06500
H 	H 	0.60660 0.73240 0.35033 0.08700
H 	H 	0.76320 0.80770 0.35273 0.01700
H 	H 	0.97770 0.31670 0.49680 0.04600
H 	H 	0.88510 0.38430 0.51100 0.07500
H 	H 	0.71890 0.17420 0.60910 0.05200
H 	H 	0.80890 0.10310 0.59600 0.01800
H 	H 	0.84820 0.46470 0.56310 0.07400
H 	H 	0.87420 0.60660 0.51700 0.09200
H 	H 	0.95550 0.76320 0.51940 0.03100
H 	H 	0.33900 0.02230 0.16347 0.00800
H 	H 	0.49920 0.11490 0.17767 0.04700
H 	H 	0.45530 0.28110 0.27577 0.05300
H 	H 	0.29420 0.19110 0.26267 0.04300
H 	H 	0.61650 0.15180 0.22977 0.05600
H 	H 	0.73240 0.12580 0.18367 0.08300
H 	H 	0.80770 0.04450 0.18607 -0.00900
H 	H 	0.68330 0.66100 0.83013 0.03500
H 	H 	0.61570 0.50080 0.84433 0.06100
H 	H 	0.82580 0.54470 0.94243 0.07500
H 	H 	0.89690 0.70580 0.92933 0.06600
H 	H 	0.53530 0.38350 0.89643 0.06600
H 	H 	0.39340 0.26760 0.85033 0.09500
H 	H 	0.23680 0.19230 0.85273 -0.00500
H 	H 	0.33900 0.31670 0.66987 0.02500
H 	H 	0.49920 0.38430 0.65567 0.06400
H 	H 	0.45530 0.17420 0.55757 0.04800
H 	H 	0.29420 0.10310 0.57067 0.02100
H 	H 	0.61650 0.46470 0.60357 0.06500
H 	H 	0.73240 0.60660 0.64967 0.08700
H 	H 	0.80770 0.76320 0.64727 0.01700
H 	H 	0.68330 0.02230 0.00320 -0.05900
H 	H 	0.61570 0.11490 0.98900 0.08500
H 	H 	0.82580 0.28110 0.89090 0.08000
H 	H 	0.89690 0.19110 0.90400 0.05000
H 	H 	0.53530 0.15180 0.93690 0.05400
H 	H 	0.39340 0.12580 0.98300 0.09800
H 	H 	0.23680 0.04450 0.98060 -0.01000
H 	H 	0.97770 0.66100 0.33653 0.05000
H 	H 	0.88510 0.50080 0.32233 0.07200
H 	H 	0.71890 0.54470 0.22423 0.06100
H 	H 	0.80890 0.70580 0.23733 0.03700
H 	H 	0.84820 0.38350 0.27023 0.07400
H 	H 	0.87420 0.26760 0.31633 0.09500
H 	H 	0.95550 0.19230 0.31393 0.02000
H 	H 	0.66100 0.68330 0.16987 0.03300
H 	H 	0.50080 0.61570 0.15567 0.05800
H 	H 	0.54470 0.82580 0.05757 0.06300
H 	H 	0.70580 0.89690 0.07067 0.05000
H 	H 	0.38350 0.53530 0.10357 0.06500
H 	H 	0.26760 0.39340 0.14967 0.09300
H 	H 	0.19230 0.23680 0.14727 -0.00900
H 	H 	0.31670 0.97770 0.50320 0.04600
H 	H 	0.38430 0.88510 0.48900 0.07500
H 	H 	0.17420 0.71890 0.39090 0.05300
H 	H 	0.10310 0.80890 0.40400 0.01900
H 	H 	0.46470 0.84820 0.43690 0.07500
H 	H 	0.60660 0.87420 0.48300 0.09200
H 	H 	0.76320 0.95550 0.48060 0.03200
H 	H 	0.02230 0.33900 0.83653 0.01300
H 	H 	0.11490 0.49920 0.82233 0.05400
H 	H 	0.28110 0.45530 0.72423 0.05400
H 	H 	0.19110 0.29420 0.73733 0.04400
H 	H 	0.15180 0.61650 0.77023 0.05700
H 	H 	0.12580 0.73240 0.81633 0.09000
H 	H 	0.04450 0.80770 0.81393 -0.00700
H 	H 	0.38720 0.77440 0.08333 0.08100
H 	H 	0.38720 0.61280 0.75000 0.06800
H 	H 	0.22560 0.61280 0.41667 0.05500
H 	H 	0.61280 0.22560 0.58333 0.05500
H 	H 	0.61280 0.38720 0.25000 0.06600
H 	H 	0.77440 0.38720 0.91667 0.07600
C 	C 	0.02970 0.83340 0.03980 0.22400
C 	C 	0.09640 0.79500 0.04600 -0.02400
C 	C 	0.07390 0.71180 0.01980 -0.14800
C 	C 	0.13030 0.67160 0.02850 -0.00200
C 	C 	0.20620 0.71150 0.06150 -0.03800
C 	C 	0.22860 0.79700 0.08670 -0.02800
C 	C 	0.17490 0.84010 0.07930 -0.07200
C 	C 	0.25910 0.66290 0.07240 0.07300
C 	C 	0.21510 0.56800 0.07180 -0.12400
C 	C 	0.13830 0.36180 0.04410 -0.19900
C 	C 	0.09110 0.26870 0.04520 0.13500
C 	C 	0.80370 0.97030 0.70647 0.45000
C 	C 	0.69860 0.90360 0.71267 -0.13400
C 	C 	0.63790 0.92610 0.68647 0.05000
C 	C 	0.54130 0.86970 0.69517 -0.10600
C 	C 	0.50530 0.79380 0.72817 0.04200
C 	C 	0.56840 0.77140 0.75337 -0.09800
C 	C 	0.66520 0.82510 0.74597 0.02700
C 	C 	0.40380 0.74090 0.73907 0.04600
C 	C 	0.35290 0.78490 0.73847 -0.10500
C 	C 	0.22350 0.86170 0.71077 -0.16900
C 	C 	0.17760 0.90890 0.71187 0.11600
C 	C 	0.16660 0.19630 0.37313 0.35400
C 	C 	0.20500 0.30140 0.37933 -0.13200
C 	C 	0.28820 0.36210 0.35313 0.03000
C 	C 	0.32840 0.45870 0.36183 -0.10900
C 	C 	0.28850 0.49470 0.39483 0.03100
C 	C 	0.20300 0.43160 0.42003 -0.10000
C 	C 	0.15990 0.33480 0.41263 0.00500
C 	C 	0.33710 0.59620 0.40573 0.04000
C 	C 	0.43200 0.64710 0.40513 -0.10700
C 	C 	0.63820 0.77650 0.37743 -0.15200
C 	C 	0.73130 0.82240 0.37853 0.10200
C 	C 	0.97030 0.16660 0.53980 0.45100
C 	C 	0.90360 0.20500 0.54600 -0.14900
C 	C 	0.92610 0.28820 0.51980 0.05300
C 	C 	0.86970 0.32840 0.52850 -0.11300
C 	C 	0.79380 0.28850 0.56150 0.04100
C 	C 	0.77140 0.20300 0.58670 -0.10600
C 	C 	0.82510 0.15990 0.57930 0.02500
C 	C 	0.74090 0.33710 0.57240 0.04000
C 	C 	0.78490 0.43200 0.57180 -0.10600
C 	C 	0.86170 0.63820 0.54410 -0.15000
C 	C 	0.90890 0.73130 0.54520 0.10000
C 	C 	0.19630 0.02970 0.20647 0.25100
C 	C 	0.30140 0.09640 0.21267 -0.09900
C 	C 	0.36210 0.07390 0.18647 0.00100
C 	C 	0.45870 0.13030 0.19517 -0.09700
C 	C 	0.49470 0.20620 0.22817 0.01800
C 	C 	0.43160 0.22860 0.25337 -0.08400
C 	C 	0.33480 0.17490 0.24597 -0.01700
C 	C 	0.59620 0.25910 0.23907 0.04400
C 	C 	0.64710 0.21510 0.23847 -0.10800
C 	C 	0.77650 0.13830 0.21077 -0.17500
C 	C 	0.82240 0.09110 0.21187 0.11800
C 	C 	0.83340 0.80370 0.87313 0.34400
C 	C 	0.79500 0.69860 0.87933 -0.09600
C 	C 	0.71180 0.63790 0.85313 0.02300
C 	C 	0.67160 0.54130 0.86183 -0.09400
C 	C 	0.71150 0.50530 0.89483 0.03400
C 	C 	0.79700 0.56840 0.92003 -0.08000
C 	C 	0.84010 0.66520 0.91263 0.00500
C 	C 	0.66290 0.40380 0.90573 0.04500
C 	C 	0.56800 0.35290 0.90513 -0.09800
C 	C 	0.36180 0.22350 0.87743 -0.19200
C 	C 	0.26870 0.17760 0.87853 0.13500
C 	C 	0.19630 0.16660 0.62687 0.35400
C 	C 	0.30140 0.20500 0.62067 -0.13200
C 	C 	0.36210 0.28820 0.64687 0.03000
C 	C 	0.45870 0.32840 0.63817 -0.10900
C 	C 	0.49470 0.28850 0.60517 0.03100
C 	C 	0.43160 0.20300 0.57997 -0.10000
C 	C 	0.33480 0.15990 0.58737 0.00500
C 	C 	0.59620 0.33710 0.59427 0.04000
C 	C 	0.64710 0.43200 0.59487 -0.10700
C 	C 	0.77650 0.63820 0.62257 -0.15300
C 	C 	0.82240 0.73130 0.62147 0.10200
C 	C 	0.83340 0.02970 0.96020 0.26100
C 	C 	0.79500 0.09640 0.95400 -0.13000
C 	C 	0.71180 0.07390 0.98020 0.12300
C 	C 	0.67160 0.13030 0.97150 -0.16300
C 	C 	0.71150 0.20620 0.93850 0.06700
C 	C 	0.79700 0.22860 0.91330 -0.11300
C 	C 	0.84010 0.17490 0.92070 0.02800
C 	C 	0.66290 0.25910 0.92760 0.03000
C 	C 	0.56800 0.21510 0.92820 -0.09200
C 	C 	0.36180 0.13830 0.95590 -0.19300
C 	C 	0.26870 0.09110 0.95480 0.13700
C 	C 	0.97030 0.80370 0.29353 0.44500
C 	C 	0.90360 0.69860 0.28733 -0.13300
C 	C 	0.92610 0.63790 0.31353 0.04700
C 	C 	0.86970 0.54130 0.30483 -0.10500
C 	C 	0.79380 0.50530 0.27183 0.03900
C 	C 	0.77140 0.56840 0.24663 -0.09700
C 	C 	0.82510 0.66520 0.25403 0.02300
C 	C 	0.74090 0.40380 0.26093 0.04500
C 	C 	0.78490 0.35290 0.26153 -0.10700
C 	C 	0.86170 0.22350 0.28923 -0.16900
C 	C 	0.90890 0.17760 0.28813 0.11400
C 	C 	0.80370 0.83340 0.12687 0.34400
C 	C 	0.69860 0.79500 0.12067 -0.10400
C 	C 	0.63790 0.71180 0.14687 0.01900
C 	C 	0.54130 0.67160 0.13817 -0.09300
C 	C 	0.50530 0.71150 0.10517 0.02300
C 	C 	0.56840 0.79700 0.07997 -0.08300
C 	C 	0.66520 0.84010 0.08737 0.00100
C 	C 	0.40380 0.66290 0.09427 0.05500
C 	C 	0.35290 0.56800 0.09487 -0.11600
C 	C 	0.22350 0.36180 0.12257 -0.19500
C 	C 	0.17760 0.26870 0.12147 0.13400
C 	C 	0.16660 0.97030 0.46020 0.45500
C 	C 	0.20500 0.90360 0.45400 -0.14900
C 	C 	0.28820 0.92610 0.48020 0.05400
C 	C 	0.32840 0.86970 0.47150 -0.11300
C 	C 	0.28850 0.79380 0.43850 0.04100
C 	C 	0.20300 0.77140 0.41330 -0.10600
C 	C 	0.15990 0.82510 0.42070 0.02600
C 	C 	0.33710 0.74090 0.42760 0.04000
C 	C 	0.43200 0.78490 0.42820 -0.10600
C 	C 	0.63820 0.86170 0.45590 -0.14900
C 	C 	0.73130 0.90890 0.45480 0.10000
C 	C 	0.02970 0.19630 0.79353 0.25300
C 	C 	0.09640 0.30140 0.78733 -0.09700
C 	C 	0.07390 0.36210 0.81353 0.00500
C 	C 	0.13030 0.45870 0.80483 -0.09500
C 	C 	0.20620 0.49470 0.77183 0.02100
C 	C 	0.22860 0.43160 0.74663 -0.08300
C 	C 	0.17490 0.33480 0.75403 -0.01500
C 	C 	0.25910 0.59620 0.76093 0.04600
C 	C 	0.21510 0.64710 0.76153 -0.10600
C 	C 	0.13830 0.77650 0.78923 -0.17500
C 	C 	0.09110 0.82240 0.78813 0.12100
C 	C 	0.35460 0.70920 0.08333 -0.13300
C 	C 	0.25860 0.51720 0.08333 0.02700
C 	C 	0.20600 0.41200 0.08333 0.09000
C 	C 	0.10890 0.21780 0.08333 -0.23300
C 	C 	0.05610 0.11220 0.08333 0.50400
C 	C 	0.35460 0.64540 0.75000 -0.11000
C 	C 	0.25860 0.74140 0.75000 0.02900
C 	C 	0.20600 0.79400 0.75000 0.08900
C 	C 	0.10890 0.89110 0.75000 -0.19300
C 	C 	0.05610 0.94390 0.75000 0.48300
C 	C 	0.29080 0.64540 0.41667 -0.10700
C 	C 	0.48280 0.74140 0.41667 0.03500
C 	C 	0.58800 0.79400 0.41667 0.07800
C 	C 	0.78220 0.89110 0.41667 -0.16100
C 	C 	0.88780 0.94390 0.41667 0.46700
C 	C 	0.64540 0.29080 0.58333 -0.10700
C 	C 	0.74140 0.48280 0.58333 0.03400
C 	C 	0.79400 0.58800 0.58333 0.07900
C 	C 	0.89110 0.78220 0.58333 -0.16200
C 	C 	0.94390 0.88780 0.58333 0.46700
C 	C 	0.64540 0.35460 0.25000 -0.11300
C 	C 	0.74140 0.25860 0.25000 0.02800
C 	C 	0.79400 0.20600 0.25000 0.08500
C 	C 	0.89110 0.10890 0.25000 -0.19300
C 	C 	0.94390 0.05610 0.25000 0.48300
C 	C 	0.70920 0.35460 0.91667 -0.10100
C 	C 	0.51720 0.25860 0.91667 0.01700
C 	C 	0.41200 0.20600 0.91667 0.10100
C 	C 	0.21780 0.10890 0.91667 -0.22000
C 	C 	0.11220 0.05610 0.91667 0.50000
O 	O 	0.96850 0.79990 0.00360 -0.39600
O 	O 	0.03760 0.89880 0.07100 -0.56300
O 	O 	0.00120 0.07200 0.04520 -0.60900
O 	O 	0.83140 0.03150 0.67027 -0.55200
O 	O 	0.86120 0.96240 0.73767 -0.55200
O 	O 	0.07080 0.99880 0.71187 -0.50000
O 	O 	0.20010 0.16860 0.33693 -0.49600
O 	O 	0.10120 0.13880 0.40433 -0.63400
O 	O 	0.92800 0.92920 0.37853 -0.46100
O 	O 	0.03150 0.20010 0.50360 -0.57500
O 	O 	0.96240 0.10120 0.57100 -0.60400
O 	O 	0.99880 0.92800 0.54520 -0.44900
O 	O 	0.16860 0.96850 0.17027 -0.39800
O 	O 	0.13880 0.03760 0.23767 -0.60900
O 	O 	0.92920 0.00120 0.21187 -0.53300
O 	O 	0.79990 0.83140 0.83693 -0.44600
O 	O 	0.89880 0.86120 0.90433 -0.52400
O 	O 	0.07200 0.07080 0.87853 -0.57300
O 	O 	0.16860 0.20010 0.66307 -0.49600
O 	O 	0.13880 0.10120 0.59567 -0.63400
O 	O 	0.92920 0.92800 0.62147 -0.46000
O 	O 	0.79990 0.96850 0.99640 -0.34700
O 	O 	0.89880 0.03760 0.92900 -0.55800
O 	O 	0.07200 0.00120 0.95480 -0.57700
O 	O 	0.03150 0.83140 0.32973 -0.54700
O 	O 	0.96240 0.86120 0.26233 -0.55200
O 	O 	0.99880 0.07080 0.28813 -0.50200
O 	O 	0.83140 0.79990 0.16307 -0.45100
O 	O 	0.86120 0.89880 0.09567 -0.54200
O 	O 	0.07080 0.07200 0.12147 -0.58000
O 	O 	0.20010 0.03150 0.49640 -0.57800
O 	O 	0.10120 0.96240 0.42900 -0.60300
O 	O 	0.92800 0.99880 0.45480 -0.44900
O 	O 	0.96850 0.16860 0.82973 -0.39500
O 	O 	0.03760 0.13880 0.76233 -0.60900
O 	O 	0.00120 0.92920 0.78813 -0.53100
