data_crystal

_cell_length_a 7.71100
_cell_length_b 18.58600
_cell_length_c 20.92800
_cell_angle_alpha 90.00000
_cell_angle_beta  90.00000
_cell_angle_gamma 90.00000

_symmetry_space_group_name_	'P 1'
_symmetry_space_group_name_H-M	'P 1'

loop_
_symmetry_equiv_pos_as_xyz
  x,y,z

loop_
_atom_site_label
_atom_site_type_symbol
_atom_site_fract_x
_atom_site_fract_y
_atom_site_fract_z
_atom_site_charge
Ag	Ag	0.13470 0.81007 0.76038 0.06400
Ag	Ag	0.90048 0.89835 0.84258 0.24000
Ag	Ag	0.29688 0.90883 0.85384 0.24700
Ag	Ag	0.76342 0.58151 0.66177 0.33200
Ag	Ag	0.09550 0.59489 0.47139 0.25500
Ag	Ag	0.97850 0.68442 0.57555 0.13400
Ag	Ag	0.71648 0.60521 0.49231 0.24700
N 	N 	0.03760 0.34290 0.69410 0.01300
C 	C 	0.09170 0.12850 0.76290 -0.05900
H 	H 	0.13260 0.12100 0.80410 -0.05300
C 	C 	0.01040 0.20960 0.67720 -0.03500
N 	N 	0.07030 0.19820 0.74000 -0.01900
C 	C 	0.99370 0.07970 0.65890 -0.21300
H 	H 	0.97000 0.03970 0.63370 0.03000
C 	C 	0.95880 0.42860 0.60870 -0.04000
C 	C 	0.02130 0.41350 0.67180 -0.03900
H 	H 	0.04820 0.45090 0.69960 -0.02500
C 	C 	0.99670 0.28450 0.65360 0.04300
C 	C 	0.92130 0.56350 0.55840 -0.50400
C 	C 	0.93600 0.50190 0.58520 -0.04400
C 	C 	0.05770 0.06700 0.72150 -0.01600
C 	C 	0.93340 0.29710 0.58820 0.14800
C 	C 	0.91790 0.36880 0.56710 -0.14800
H 	H 	0.88490 0.37860 0.52530 -0.00900
C 	C 	0.89300 0.23530 0.55120 -0.39100
H 	H 	0.86410 0.24220 0.50850 -0.19700
C 	C 	0.96740 0.15190 0.63370 0.31700
C 	C 	0.90900 0.16670 0.57130 -0.72700
H 	H 	0.86640 0.12940 0.54610 -0.04900
C 	C 	0.09370 0.99400 0.74400 -0.06700
C 	C 	0.11920 0.93170 0.76920 -0.50300
Ag	Ag	0.12490 0.31112 0.80145 0.87200
Ag	Ag	0.06900 0.81240 0.75390 0.13300
C 	C 	0.10400 0.25460 0.77740 -0.38400
Ag	Ag	0.88110 0.18496 0.52484 0.97900
Ag	Ag	0.90290 0.68710 0.56880 0.06900
C 	C 	0.08700 0.32500 0.75800 -0.67000
Ag	Ag	0.63470 0.68993 0.76038 0.06500
Ag	Ag	0.40048 0.60165 0.84258 0.24100
Ag	Ag	0.79688 0.59117 0.85384 0.24800
Ag	Ag	0.26342 0.91849 0.66177 0.33100
Ag	Ag	0.59550 0.90511 0.47139 0.25600
Ag	Ag	0.47850 0.81558 0.57555 0.13300
Ag	Ag	0.21648 0.89479 0.49231 0.24600
N 	N 	0.53760 0.15710 0.69410 0.01400
C 	C 	0.59170 0.37150 0.76290 -0.05900
H 	H 	0.63260 0.37900 0.80410 -0.05300
C 	C 	0.51040 0.29040 0.67720 -0.03000
N 	N 	0.57030 0.30180 0.74000 -0.01900
C 	C 	0.49370 0.42030 0.65890 -0.21300
H 	H 	0.47000 0.46030 0.63370 0.02900
C 	C 	0.45880 0.07140 0.60870 -0.04100
C 	C 	0.52130 0.08650 0.67180 -0.03600
H 	H 	0.54820 0.04910 0.69960 -0.02500
C 	C 	0.49670 0.21550 0.65360 0.03900
C 	C 	0.42130 0.93650 0.55840 -0.50500
C 	C 	0.43600 0.99810 0.58520 -0.04600
C 	C 	0.55770 0.43300 0.72150 -0.01700
C 	C 	0.43340 0.20290 0.58820 0.14900
C 	C 	0.41790 0.13120 0.56710 -0.14900
H 	H 	0.38490 0.12140 0.52530 -0.00900
C 	C 	0.39300 0.26470 0.55120 -0.39300
H 	H 	0.36410 0.25780 0.50850 -0.19700
C 	C 	0.46740 0.34810 0.63370 0.31300
C 	C 	0.40900 0.33330 0.57130 -0.72400
H 	H 	0.36640 0.37060 0.54610 -0.05100
C 	C 	0.59370 0.50600 0.74400 -0.06500
C 	C 	0.61920 0.56830 0.76920 -0.50300
Ag	Ag	0.62490 0.18888 0.80145 0.87200
Ag	Ag	0.56900 0.68760 0.75390 0.13400
C 	C 	0.60400 0.24540 0.77740 -0.38400
Ag	Ag	0.38110 0.31504 0.52484 0.97800
Ag	Ag	0.40290 0.81290 0.56880 0.06900
C 	C 	0.58700 0.17500 0.75800 -0.66900
Ag	Ag	0.86530 0.18993 0.26038 0.06900
Ag	Ag	0.09952 0.10165 0.34258 0.25700
Ag	Ag	0.70312 0.09117 0.35384 0.26700
Ag	Ag	0.23658 0.41849 0.16177 0.33700
Ag	Ag	0.90450 0.40511 0.97139 0.22000
Ag	Ag	0.02150 0.31558 0.07555 0.13600
Ag	Ag	0.28352 0.39479 0.99231 0.20300
N 	N 	0.96240 0.65710 0.19410 0.01700
C 	C 	0.90830 0.87150 0.26290 -0.05900
H 	H 	0.86740 0.87900 0.30410 -0.04800
C 	C 	0.98960 0.79040 0.17720 -0.02400
N 	N 	0.92970 0.80180 0.24000 -0.01900
C 	C 	0.00630 0.92030 0.15890 -0.22000
H 	H 	0.03000 0.96030 0.13370 0.03600
C 	C 	0.04120 0.57140 0.10870 -0.03200
C 	C 	0.97870 0.58650 0.17180 -0.03600
H 	H 	0.95180 0.54910 0.19960 -0.02200
C 	C 	0.00330 0.71550 0.15360 0.03100
C 	C 	0.07870 0.43650 0.05840 -0.45900
C 	C 	0.06400 0.49810 0.08520 -0.04700
C 	C 	0.94230 0.93300 0.22150 -0.01100
C 	C 	0.06660 0.70290 0.08820 0.16300
C 	C 	0.08210 0.63120 0.06710 -0.15700
H 	H 	0.11510 0.62140 0.02530 0.00900
C 	C 	0.10700 0.76470 0.05120 -0.40400
H 	H 	0.13590 0.75780 0.00850 -0.18000
C 	C 	0.03260 0.84810 0.13370 0.31500
C 	C 	0.09100 0.83330 0.07130 -0.72500
H 	H 	0.13360 0.87060 0.04610 -0.04100
C 	C 	0.90630 0.00600 0.24400 -0.06200
C 	C 	0.88080 0.06830 0.26920 -0.49500
Ag	Ag	0.87510 0.68888 0.30145 0.87700
Ag	Ag	0.93100 0.18760 0.25390 0.14000
C 	C 	0.89600 0.74540 0.27740 -0.37900
Ag	Ag	0.11890 0.81504 0.02484 0.99000
Ag	Ag	0.09710 0.31290 0.06880 0.09200
C 	C 	0.91300 0.67500 0.25800 -0.66900
Ag	Ag	0.36530 0.31007 0.26038 0.06900
Ag	Ag	0.59952 0.39835 0.34258 0.25900
Ag	Ag	0.20312 0.40883 0.35384 0.26500
Ag	Ag	0.73658 0.08151 0.16177 0.33800
Ag	Ag	0.40450 0.09489 0.97139 0.21900
Ag	Ag	0.52150 0.18442 0.07555 0.13700
Ag	Ag	0.78352 0.10521 0.99231 0.20500
N 	N 	0.46240 0.84290 0.19410 0.01500
C 	C 	0.40830 0.62850 0.26290 -0.06000
H 	H 	0.36740 0.62100 0.30410 -0.04800
C 	C 	0.48960 0.70960 0.17720 -0.03100
N 	N 	0.42970 0.69820 0.24000 -0.01900
C 	C 	0.50630 0.57970 0.15890 -0.21800
H 	H 	0.53000 0.53970 0.13370 0.03800
C 	C 	0.54120 0.92860 0.10870 -0.03000
C 	C 	0.47870 0.91350 0.17180 -0.03900
H 	H 	0.45180 0.95090 0.19960 -0.02300
C 	C 	0.50330 0.78450 0.15360 0.03700
C 	C 	0.57870 0.06350 0.05840 -0.45900
C 	C 	0.56400 0.00190 0.08520 -0.04600
C 	C 	0.44230 0.56700 0.22150 -0.01200
C 	C 	0.56660 0.79710 0.08820 0.16100
C 	C 	0.58210 0.86880 0.06710 -0.15600
H 	H 	0.61510 0.87860 0.02530 0.00900
C 	C 	0.60700 0.73530 0.05120 -0.40100
H 	H 	0.63590 0.74220 0.00850 -0.18000
C 	C 	0.53260 0.65190 0.13370 0.32000
C 	C 	0.59100 0.66670 0.07130 -0.72800
H 	H 	0.63360 0.62940 0.04610 -0.03900
C 	C 	0.40630 0.49400 0.24400 -0.06400
C 	C 	0.38080 0.43170 0.26920 -0.49600
Ag	Ag	0.37510 0.81112 0.30145 0.87600
Ag	Ag	0.43100 0.31240 0.25390 0.13900
C 	C 	0.39600 0.75460 0.27740 -0.38000
Ag	Ag	0.61890 0.68496 0.02484 0.99000
Ag	Ag	0.59710 0.18710 0.06880 0.09200
C 	C 	0.41300 0.82500 0.25800 -0.67000
