data_crystal

_cell_length_a 10.36050
_cell_length_b 10.52240
_cell_length_c 15.01400
_cell_angle_alpha 89.97900
_cell_angle_beta  76.65600
_cell_angle_gamma 89.98000

_symmetry_space_group_name_	'P 1'
_symmetry_space_group_name_H-M	'P 1'

loop_
_symmetry_equiv_pos_as_xyz
  x,y,z

loop_
_atom_site_label
_atom_site_type_symbol
_atom_site_fract_x
_atom_site_fract_y
_atom_site_fract_z
_atom_site_charge
Ag	Ag	0.63777 0.38787 0.51539 0.53100
N 	N 	0.32300 0.10130 0.06220 -0.13800
N 	N 	0.83100 0.12670 0.05830 -0.19400
N 	N 	0.42470 0.13240 0.10410 -0.15200
N 	N 	0.57320 0.30390 0.38590 -0.19500
N 	N 	0.23840 0.18250 0.19700 -0.08900
N 	N 	0.15090 0.23840 0.27300 -0.42100
C 	C 	0.84770 0.08940 0.13930 0.06900
C 	C 	0.93940 0.16370 0.99690 0.07800
C 	C 	0.06430 0.16580 0.01330 -0.14600
C 	C 	0.08000 0.12800 0.09880 0.05000
C 	C 	0.96840 0.08770 0.16320 -0.13800
C 	C 	0.21190 0.13360 0.11940 0.05900
C 	C 	0.37130 0.18150 0.18420 0.06200
C 	C 	0.44350 0.22410 0.25300 0.09300
C 	C 	0.40700 0.17810 0.34150 -0.16400
C 	C 	0.47510 0.21950 0.40470 0.07900
C 	C 	0.60970 0.34520 0.29970 0.10700
C 	C 	0.54880 0.30780 0.23160 -0.22800
H 	H 	0.76600 0.06200 0.18700 -0.00100
H 	H 	0.92100 0.18600 0.93600 -0.01700
H 	H 	0.13600 0.19100 0.96900 0.08200
H 	H 	0.97100 0.05700 0.22100 0.06500
H 	H 	0.34000 0.12100 0.35800 0.08900
H 	H 	0.44300 0.19100 0.46700 -0.00700
H 	H 	0.67600 0.41300 0.28500 -0.01500
H 	H 	0.57400 0.33700 0.17900 0.11000
H 	H 	0.11800 0.28100 0.25600 0.30000
H 	H 	0.10300 0.17400 0.30700 0.15300
Ag	Ag	0.63778 0.11213 0.01539 0.53000
N 	N 	0.57360 0.19630 0.88600 -0.19000
N 	N 	0.32250 0.39870 0.56270 -0.13700
N 	N 	0.83130 0.37300 0.55820 -0.20800
N 	N 	0.42520 0.36740 0.60410 -0.15600
N 	N 	0.23830 0.31760 0.69720 -0.09300
N 	N 	0.15130 0.25950 0.77230 -0.43700
C 	C 	0.47480 0.28030 0.90540 0.06800
C 	C 	0.61000 0.15570 0.79990 0.08400
C 	C 	0.37230 0.31800 0.68400 0.07400
C 	C 	0.44300 0.27570 0.75340 0.06500
C 	C 	0.40680 0.32150 0.84140 -0.14400
C 	C 	0.54910 0.19210 0.73080 -0.16900
C 	C 	0.93970 0.33620 0.49670 0.12400
C 	C 	0.84720 0.41090 0.63920 0.09900
C 	C 	0.21190 0.36630 0.61930 0.04200
C 	C 	0.07950 0.37220 0.59880 0.09000
C 	C 	0.06390 0.33420 0.51420 -0.22500
C 	C 	0.96730 0.41140 0.66330 -0.18700
H 	H 	0.44600 0.31100 0.96500 -0.00600
H 	H 	0.67800 0.10000 0.78700 -0.00800
H 	H 	0.97700 0.44200 0.71700 0.07800
H 	H 	0.34200 0.38100 0.85600 0.07800
H 	H 	0.57800 0.16600 0.67400 0.07800
H 	H 	0.92700 0.30300 0.44200 -0.03600
H 	H 	0.77500 0.44500 0.68100 -0.01700
H 	H 	0.13400 0.31600 0.47400 0.12200
H 	H 	0.09900 0.21500 0.74800 0.16600
H 	H 	0.11500 0.30800 0.78700 0.29700
Ag	Ag	0.36222 0.88787 0.98461 0.53000
N 	N 	0.42640 0.80370 0.11400 -0.19000
N 	N 	0.67750 0.60130 0.43730 -0.13700
N 	N 	0.16870 0.62700 0.44180 -0.20800
N 	N 	0.57480 0.63260 0.39590 -0.15600
N 	N 	0.76170 0.68240 0.30280 -0.09300
N 	N 	0.84870 0.74050 0.22770 -0.43700
C 	C 	0.52520 0.71970 0.09460 0.06800
C 	C 	0.39000 0.84430 0.20010 0.08400
C 	C 	0.62770 0.68200 0.31600 0.07400
C 	C 	0.55700 0.72430 0.24660 0.06500
C 	C 	0.59320 0.67850 0.15860 -0.14400
C 	C 	0.45090 0.80790 0.26920 -0.16900
C 	C 	0.06030 0.66380 0.50330 0.12400
C 	C 	0.15280 0.58910 0.36080 0.09900
C 	C 	0.78810 0.63370 0.38070 0.04200
C 	C 	0.92050 0.62780 0.40120 0.09000
C 	C 	0.93610 0.66580 0.48580 -0.22500
C 	C 	0.03270 0.58860 0.33670 -0.18700
H 	H 	0.55400 0.68900 0.03500 -0.00600
H 	H 	0.32200 0.90000 0.21300 -0.00800
H 	H 	0.02300 0.55800 0.28300 0.07800
H 	H 	0.65800 0.61900 0.14400 0.07800
H 	H 	0.42200 0.83400 0.32600 0.07800
H 	H 	0.07300 0.69700 0.55800 -0.03600
H 	H 	0.22500 0.55500 0.31900 -0.01700
H 	H 	0.86600 0.68400 0.52600 0.12200
H 	H 	0.90100 0.78500 0.25200 0.16600
H 	H 	0.88500 0.69200 0.21300 0.29700
Ag	Ag	0.36223 0.61213 0.48461 0.53000
N 	N 	0.67700 0.89870 0.93780 -0.13900
N 	N 	0.16900 0.87330 0.94170 -0.19500
N 	N 	0.57530 0.86760 0.89590 -0.15300
N 	N 	0.42680 0.69610 0.61410 -0.19600
N 	N 	0.76160 0.81750 0.80300 -0.09000
N 	N 	0.84910 0.76160 0.72700 -0.42200
C 	C 	0.15230 0.91060 0.86070 0.06800
C 	C 	0.06060 0.83630 0.00310 0.07800
C 	C 	0.93570 0.83420 0.98670 -0.14600
C 	C 	0.92000 0.87200 0.90120 0.05000
C 	C 	0.03160 0.91230 0.83680 -0.13800
C 	C 	0.78810 0.86640 0.88060 0.05900
C 	C 	0.62870 0.81850 0.81580 0.06200
C 	C 	0.55650 0.77590 0.74700 0.09300
C 	C 	0.59300 0.82190 0.65850 -0.16400
C 	C 	0.52490 0.78050 0.59530 0.07900
C 	C 	0.39030 0.65480 0.70030 0.10700
C 	C 	0.45120 0.69220 0.76840 -0.22800
H 	H 	0.23400 0.93800 0.81300 -0.00100
H 	H 	0.07900 0.81400 0.06400 -0.01700
H 	H 	0.86400 0.80900 0.03100 0.08200
H 	H 	0.02900 0.94300 0.77900 0.06500
H 	H 	0.66000 0.87900 0.64200 0.08900
H 	H 	0.55700 0.80900 0.53300 -0.00700
H 	H 	0.32400 0.58700 0.71500 -0.01500
H 	H 	0.42600 0.66300 0.82100 0.11000
H 	H 	0.88200 0.71900 0.74400 0.30000
H 	H 	0.89700 0.82600 0.69300 0.15300
