data_crystal

_cell_length_a 15.20350
_cell_length_b 16.59190
_cell_length_c 16.12400
_cell_angle_alpha 90.00000
_cell_angle_beta  116.84900
_cell_angle_gamma 90.00000

_symmetry_space_group_name_	'P 1'
_symmetry_space_group_name_H-M	'P 1'

loop_
_symmetry_equiv_pos_as_xyz
  x,y,z

loop_
_atom_site_label
_atom_site_type_symbol
_atom_site_fract_x
_atom_site_fract_y
_atom_site_fract_z
_atom_site_charge
Ag	Ag	0.07027 0.41106 0.39558 0.53400
C 	C 	0.16677 0.26358 0.55504 0.03800
H 	H 	0.18900 0.30550 0.60010 0.00700
C 	C 	0.20316 0.18656 0.58266 -0.06600
C 	C 	0.17143 0.12508 0.51683 -0.00400
H 	H 	0.19570 0.07170 0.53350 0.01600
C 	C 	0.10370 0.14335 0.42644 -0.10000
H 	H 	0.08060 0.10280 0.37980 0.05700
C 	C 	0.07047 0.22158 0.40574 0.05000
H 	H 	0.02280 0.23340 0.34400 0.00500
C 	C 	0.38960 0.09724 0.09860 0.05200
H 	H 	0.40020 0.08550 0.16010 -0.00800
C 	C 	0.36740 0.17520 0.06730 -0.10700
H 	H 	0.36370 0.21620 0.10670 0.06500
C 	C 	0.35050 0.19315 0.97710 0.00900
H 	H 	0.33420 0.24640 0.95340 0.03000
C 	C 	0.35782 0.13167 0.92283 -0.06600
C 	C 	0.38134 0.05481 0.96051 0.02500
H 	H 	0.38670 0.01280 0.92300 -0.00200
C 	C 	0.27620 0.16705 0.67845 0.10600
C 	C 	0.34293 0.14270 0.82700 0.11300
N 	N 	0.10146 0.28183 0.46741 -0.17000
N 	N 	0.39687 0.03704 0.04698 -0.18500
N 	N 	0.40322 0.11563 0.79582 -0.15800
N 	N 	0.36062 0.13110 0.70120 -0.15400
N 	N 	0.26295 0.17698 0.75621 -0.11500
N 	N 	0.18221 0.20960 0.76514 -0.22400
H 	H 	0.13200 0.18170 0.72800 0.13000
H 	H 	0.18200 0.26300 0.75000 0.11300
Ag	Ag	0.57027 0.91106 0.39558 0.53500
C 	C 	0.66677 0.76358 0.55504 0.03900
H 	H 	0.68900 0.80550 0.60010 0.00800
C 	C 	0.70316 0.68656 0.58266 -0.06500
C 	C 	0.67143 0.62508 0.51683 -0.00300
H 	H 	0.69570 0.57170 0.53350 0.01700
C 	C 	0.60370 0.64335 0.42644 -0.09900
H 	H 	0.58060 0.60280 0.37980 0.05800
C 	C 	0.57047 0.72158 0.40574 0.05000
H 	H 	0.52280 0.73340 0.34400 0.00500
C 	C 	0.88960 0.59724 0.09860 0.05400
H 	H 	0.90020 0.58550 0.16010 -0.00900
C 	C 	0.86740 0.67520 0.06730 -0.11200
H 	H 	0.86370 0.71620 0.10670 0.06600
C 	C 	0.85050 0.69315 0.97710 0.01400
H 	H 	0.83420 0.74640 0.95340 0.02900
C 	C 	0.85782 0.63167 0.92283 -0.06800
C 	C 	0.88134 0.55481 0.96051 0.02800
H 	H 	0.88670 0.51280 0.92300 -0.00200
C 	C 	0.77620 0.66705 0.67845 0.10600
C 	C 	0.84293 0.64270 0.82700 0.11400
N 	N 	0.60146 0.78183 0.46741 -0.17000
N 	N 	0.89687 0.53704 0.04698 -0.18700
N 	N 	0.90322 0.61563 0.79582 -0.15800
N 	N 	0.86062 0.63110 0.70120 -0.15400
N 	N 	0.76295 0.67698 0.75621 -0.11500
N 	N 	0.68221 0.70960 0.76514 -0.22400
H 	H 	0.63200 0.68170 0.72800 0.13000
H 	H 	0.68200 0.76300 0.75000 0.11300
Ag	Ag	0.92973 0.41106 0.10442 0.53500
C 	C 	0.83323 0.26358 0.94496 0.03800
H 	H 	0.81100 0.30550 0.89990 0.00800
C 	C 	0.79684 0.18656 0.91734 -0.06400
C 	C 	0.82857 0.12508 0.98317 -0.00600
H 	H 	0.80430 0.07170 0.96650 0.01800
C 	C 	0.89630 0.14335 0.07356 -0.09700
H 	H 	0.91940 0.10280 0.12020 0.05700
C 	C 	0.92953 0.22158 0.09426 0.04900
H 	H 	0.97720 0.23340 0.15600 0.00600
C 	C 	0.61040 0.09724 0.40140 0.05400
H 	H 	0.59980 0.08550 0.33990 -0.00900
C 	C 	0.63260 0.17520 0.43270 -0.11000
H 	H 	0.63630 0.21620 0.39330 0.06600
C 	C 	0.64950 0.19315 0.52290 0.01200
H 	H 	0.66580 0.24640 0.54660 0.03000
C 	C 	0.64218 0.13167 0.57717 -0.06700
C 	C 	0.61866 0.05481 0.53949 0.02700
H 	H 	0.61330 0.01280 0.57700 -0.00200
C 	C 	0.72380 0.16705 0.82155 0.10600
C 	C 	0.65707 0.14270 0.67300 0.11400
N 	N 	0.89854 0.28183 0.03259 -0.17000
N 	N 	0.60313 0.03704 0.45302 -0.18600
N 	N 	0.59678 0.11563 0.70418 -0.15800
N 	N 	0.63938 0.13110 0.79880 -0.15400
N 	N 	0.73705 0.17698 0.74379 -0.11500
N 	N 	0.81779 0.20960 0.73486 -0.22400
H 	H 	0.86800 0.18170 0.77200 0.13000
H 	H 	0.81800 0.26300 0.75000 0.11300
Ag	Ag	0.42973 0.91106 0.10442 0.53500
C 	C 	0.33323 0.76358 0.94496 0.04100
H 	H 	0.31100 0.80550 0.89990 0.00700
C 	C 	0.29684 0.68656 0.91734 -0.06500
C 	C 	0.32857 0.62508 0.98317 -0.00200
H 	H 	0.30430 0.57170 0.96650 0.01700
C 	C 	0.39630 0.64335 0.07356 -0.10000
H 	H 	0.41940 0.60280 0.12020 0.05800
C 	C 	0.42953 0.72158 0.09426 0.05100
H 	H 	0.47720 0.73340 0.15600 0.00500
C 	C 	0.11040 0.59724 0.40140 0.05400
H 	H 	0.09980 0.58550 0.33990 -0.00900
C 	C 	0.13260 0.67520 0.43270 -0.11000
H 	H 	0.13630 0.71620 0.39330 0.06600
C 	C 	0.14950 0.69315 0.52290 0.01200
H 	H 	0.16580 0.74640 0.54660 0.03000
C 	C 	0.14218 0.63167 0.57717 -0.06700
C 	C 	0.11866 0.55481 0.53949 0.02700
H 	H 	0.11330 0.51280 0.57700 -0.00200
C 	C 	0.22380 0.66705 0.82155 0.10700
C 	C 	0.15707 0.64270 0.67300 0.11400
N 	N 	0.39854 0.78183 0.03259 -0.17100
N 	N 	0.10313 0.53704 0.45302 -0.18600
N 	N 	0.09678 0.61563 0.70418 -0.15800
N 	N 	0.13938 0.63110 0.79880 -0.15400
N 	N 	0.23705 0.67698 0.74379 -0.11500
N 	N 	0.31779 0.70960 0.73486 -0.22400
H 	H 	0.36800 0.68170 0.77200 0.13000
H 	H 	0.31800 0.76300 0.75000 0.11300
Ag	Ag	0.92973 0.58894 0.60442 0.53500
C 	C 	0.83323 0.73642 0.44496 0.03900
H 	H 	0.81100 0.69450 0.39990 0.00800
C 	C 	0.79684 0.81344 0.41734 -0.06500
C 	C 	0.82857 0.87492 0.48317 -0.00300
H 	H 	0.80430 0.92830 0.46650 0.01700
C 	C 	0.89630 0.85665 0.57356 -0.09900
H 	H 	0.91940 0.89720 0.62020 0.05800
C 	C 	0.92953 0.77842 0.59426 0.05000
H 	H 	0.97720 0.76660 0.65600 0.00500
C 	C 	0.61040 0.90276 0.90140 0.05200
H 	H 	0.59980 0.91450 0.83990 -0.00800
C 	C 	0.63260 0.82480 0.93270 -0.10700
H 	H 	0.63630 0.78380 0.89330 0.06500
C 	C 	0.64950 0.80685 0.02290 0.00900
H 	H 	0.66580 0.75360 0.04660 0.03000
C 	C 	0.64218 0.86833 0.07717 -0.06600
C 	C 	0.61866 0.94519 0.03949 0.02500
H 	H 	0.61330 0.98720 0.07700 -0.00200
C 	C 	0.72380 0.83295 0.32155 0.10600
C 	C 	0.65707 0.85730 0.17300 0.11300
N 	N 	0.89854 0.71817 0.53259 -0.17000
N 	N 	0.60313 0.96296 0.95302 -0.18500
N 	N 	0.59678 0.88437 0.20418 -0.15800
N 	N 	0.63938 0.86890 0.29880 -0.15400
N 	N 	0.73705 0.82302 0.24379 -0.11500
N 	N 	0.81779 0.79040 0.23486 -0.22400
H 	H 	0.86800 0.81830 0.27200 0.13000
H 	H 	0.81800 0.73700 0.25000 0.11300
Ag	Ag	0.42973 0.08894 0.60442 0.53500
C 	C 	0.33323 0.23642 0.44496 0.03900
H 	H 	0.31100 0.19450 0.39990 0.00800
C 	C 	0.29684 0.31344 0.41734 -0.06500
C 	C 	0.32857 0.37492 0.48317 -0.00300
H 	H 	0.30430 0.42830 0.46650 0.01700
C 	C 	0.39630 0.35665 0.57356 -0.09900
H 	H 	0.41940 0.39720 0.62020 0.05800
C 	C 	0.42953 0.27842 0.59426 0.05000
H 	H 	0.47720 0.26660 0.65600 0.00500
C 	C 	0.11040 0.40276 0.90140 0.05400
H 	H 	0.09980 0.41450 0.83990 -0.00900
C 	C 	0.13260 0.32480 0.93270 -0.11200
H 	H 	0.13630 0.28380 0.89330 0.06600
C 	C 	0.14950 0.30685 0.02290 0.01400
H 	H 	0.16580 0.25360 0.04660 0.02900
C 	C 	0.14218 0.36833 0.07717 -0.06800
C 	C 	0.11866 0.44519 0.03949 0.02800
H 	H 	0.11330 0.48720 0.07700 -0.00200
C 	C 	0.22380 0.33295 0.32155 0.10600
C 	C 	0.15707 0.35730 0.17300 0.11400
N 	N 	0.39854 0.21817 0.53259 -0.17000
N 	N 	0.10313 0.46296 0.95302 -0.18700
N 	N 	0.09678 0.38437 0.20418 -0.15800
N 	N 	0.13938 0.36890 0.29880 -0.15400
N 	N 	0.23705 0.32302 0.24379 -0.11500
N 	N 	0.31779 0.29040 0.23486 -0.22400
H 	H 	0.36800 0.31830 0.27200 0.13000
H 	H 	0.31800 0.23700 0.25000 0.11300
Ag	Ag	0.07027 0.58894 0.89558 0.53500
C 	C 	0.16677 0.73642 0.05504 0.03800
H 	H 	0.18900 0.69450 0.10010 0.00800
C 	C 	0.20316 0.81344 0.08266 -0.06400
C 	C 	0.17143 0.87492 0.01683 -0.00600
H 	H 	0.19570 0.92830 0.03350 0.01800
C 	C 	0.10370 0.85665 0.92644 -0.09700
H 	H 	0.08060 0.89720 0.87980 0.05700
C 	C 	0.07047 0.77842 0.90574 0.04900
H 	H 	0.02280 0.76660 0.84400 0.00600
C 	C 	0.38960 0.90276 0.59860 0.05400
H 	H 	0.40020 0.91450 0.66010 -0.00900
C 	C 	0.36740 0.82480 0.56730 -0.11000
H 	H 	0.36370 0.78380 0.60670 0.06600
C 	C 	0.35050 0.80685 0.47710 0.01200
H 	H 	0.33420 0.75360 0.45340 0.03000
C 	C 	0.35782 0.86833 0.42283 -0.06700
C 	C 	0.38134 0.94519 0.46051 0.02700
H 	H 	0.38670 0.98720 0.42300 -0.00200
C 	C 	0.27620 0.83295 0.17845 0.10600
C 	C 	0.34293 0.85730 0.32700 0.11400
N 	N 	0.10146 0.71817 0.96741 -0.17000
N 	N 	0.39687 0.96296 0.54698 -0.18600
N 	N 	0.40322 0.88437 0.29582 -0.15800
N 	N 	0.36062 0.86890 0.20120 -0.15400
N 	N 	0.26295 0.82302 0.25621 -0.11500
N 	N 	0.18221 0.79040 0.26514 -0.22400
H 	H 	0.13200 0.81830 0.22800 0.13000
H 	H 	0.18200 0.73700 0.25000 0.11300
Ag	Ag	0.57027 0.08894 0.89558 0.53500
C 	C 	0.66677 0.23642 0.05504 0.04100
H 	H 	0.68900 0.19450 0.10010 0.00700
C 	C 	0.70316 0.31344 0.08266 -0.06500
C 	C 	0.67143 0.37492 0.01683 -0.00200
H 	H 	0.69570 0.42830 0.03350 0.01700
C 	C 	0.60370 0.35665 0.92644 -0.10000
H 	H 	0.58060 0.39720 0.87980 0.05800
C 	C 	0.57047 0.27842 0.90574 0.05100
H 	H 	0.52280 0.26660 0.84400 0.00500
C 	C 	0.88960 0.40276 0.59860 0.05400
H 	H 	0.90020 0.41450 0.66010 -0.00900
C 	C 	0.86740 0.32480 0.56730 -0.11000
H 	H 	0.86370 0.28380 0.60670 0.06600
C 	C 	0.85050 0.30685 0.47710 0.01200
H 	H 	0.83420 0.25360 0.45340 0.03000
C 	C 	0.85782 0.36833 0.42283 -0.06700
C 	C 	0.88134 0.44519 0.46051 0.02700
H 	H 	0.88670 0.48720 0.42300 -0.00200
C 	C 	0.77620 0.33295 0.17845 0.10700
C 	C 	0.84293 0.35730 0.32700 0.11400
N 	N 	0.60146 0.21817 0.96741 -0.17100
N 	N 	0.89687 0.46296 0.54698 -0.18600
N 	N 	0.90322 0.38437 0.29582 -0.15800
N 	N 	0.86062 0.36890 0.20120 -0.15400
N 	N 	0.76295 0.32302 0.25621 -0.11500
N 	N 	0.68221 0.29040 0.26514 -0.22400
H 	H 	0.63200 0.31830 0.22800 0.13000
H 	H 	0.68200 0.23700 0.25000 0.11300
