data_crystal

_cell_length_a 11.74360
_cell_length_b 11.74360
_cell_length_c 20.97900
_cell_angle_alpha 97.33270
_cell_angle_beta  97.33270
_cell_angle_gamma 100.33300

_symmetry_space_group_name_	'P 1'
_symmetry_space_group_name_H-M	'P 1'

loop_
_symmetry_equiv_pos_as_xyz
  x,y,z

loop_
_atom_site_label
_atom_site_type_symbol
_atom_site_fract_x
_atom_site_fract_y
_atom_site_fract_z
_atom_site_charge
Mg	Mg	0.04988 0.54042 0.30768 1.45600
Mg	Mg	0.45958 0.95012 0.19232 1.45600
Mg	Mg	0.95012 0.45958 0.69232 1.45600
Mg	Mg	0.54042 0.04988 0.80768 1.45600
Mg	Mg	0.24815 0.75185 0.25000 1.47700
Mg	Mg	0.75185 0.24815 0.75000 1.47700
H 	H 	0.12440 0.02300 0.36100 0.02500
H 	H 	0.07970 0.16650 0.43370 0.04500
H 	H 	0.99950 0.77610 0.46330 0.03000
H 	H 	0.50180 0.73080 0.41430 0.03500
H 	H 	0.63540 0.70600 0.49930 0.05600
H 	H 	0.30420 0.41480 0.41780 0.03900
H 	H 	0.03390 0.31070 0.11000 0.03300
H 	H 	0.98990 0.27170 0.99840 0.06600
H 	H 	0.05390 0.65690 0.10870 0.05300
H 	H 	0.97700 0.87560 0.13900 0.02600
H 	H 	0.83350 0.92030 0.06630 0.04600
H 	H 	0.22390 0.00050 0.03670 0.03100
H 	H 	0.26920 0.49820 0.08570 0.03600
H 	H 	0.29400 0.36460 0.00070 0.05600
H 	H 	0.58520 0.69580 0.08220 0.03900
H 	H 	0.68930 0.96610 0.39000 0.03200
H 	H 	0.72830 0.01010 0.50160 0.06600
H 	H 	0.34310 0.94610 0.39130 0.05300
H 	H 	0.87560 0.97700 0.63900 0.02600
H 	H 	0.92030 0.83350 0.56630 0.04600
H 	H 	0.00050 0.22390 0.53670 0.03100
H 	H 	0.49820 0.26920 0.58570 0.03600
H 	H 	0.36460 0.29400 0.50070 0.05600
H 	H 	0.69580 0.58520 0.58220 0.03900
H 	H 	0.96610 0.68930 0.89000 0.03300
H 	H 	0.01010 0.72830 0.00160 0.06600
H 	H 	0.94610 0.34310 0.89130 0.05300
H 	H 	0.02300 0.12440 0.86100 0.02600
H 	H 	0.16650 0.07970 0.93370 0.04600
H 	H 	0.77610 0.99950 0.96330 0.03100
H 	H 	0.73080 0.50180 0.91430 0.03600
H 	H 	0.70600 0.63540 0.99930 0.05600
H 	H 	0.41480 0.30420 0.91780 0.03900
H 	H 	0.31070 0.03390 0.61000 0.03200
H 	H 	0.27170 0.98990 0.49840 0.06600
H 	H 	0.65690 0.05390 0.60870 0.05300
C 	C 	0.10240 0.79520 0.35980 0.42300
C 	C 	0.06880 0.88660 0.40630 -0.12500
C 	C 	0.09020 0.00200 0.39760 0.02800
C 	C 	0.06340 0.08720 0.44070 -0.09600
C 	C 	0.01210 0.05890 0.49530 0.01200
C 	C 	0.01670 0.85630 0.45820 -0.01600
C 	C 	0.30190 0.59050 0.35180 0.43300
C 	C 	0.39000 0.57400 0.40680 -0.11700
C 	C 	0.48890 0.66050 0.43260 0.02600
C 	C 	0.56760 0.64660 0.48350 -0.09600
C 	C 	0.54910 0.54470 0.51270 0.01400
C 	C 	0.37180 0.47360 0.43460 -0.02400
C 	C 	0.06660 0.50920 0.19130 0.35500
C 	C 	0.04700 0.48820 0.11920 -0.09900
C 	C 	0.02800 0.37340 0.08600 0.02000
C 	C 	0.00110 0.35010 0.01990 -0.09700
C 	C 	0.98950 0.44090 0.98310 0.02400
C 	C 	0.03960 0.57920 0.08580 -0.03400
C 	C 	0.20480 0.89760 0.14020 0.42300
C 	C 	0.11340 0.93120 0.09370 -0.12400
C 	C 	0.99800 0.90980 0.10240 0.02800
C 	C 	0.91280 0.93660 0.05930 -0.09600
C 	C 	0.94110 0.98790 0.00470 0.01100
C 	C 	0.14370 0.98330 0.04180 -0.01600
C 	C 	0.40950 0.69810 0.14820 0.43300
C 	C 	0.42600 0.61000 0.09320 -0.11700
C 	C 	0.33950 0.51110 0.06740 0.02600
C 	C 	0.35340 0.43240 0.01650 -0.09600
C 	C 	0.45530 0.45090 0.98730 0.01400
C 	C 	0.52640 0.62820 0.06540 -0.02400
C 	C 	0.49080 0.93340 0.30870 0.35500
C 	C 	0.51180 0.95300 0.38080 -0.09900
C 	C 	0.62660 0.97200 0.41400 0.02000
C 	C 	0.64990 0.99890 0.48010 -0.09700
C 	C 	0.55910 0.01050 0.51690 0.02400
C 	C 	0.42080 0.96040 0.41420 -0.03400
C 	C 	0.89760 0.20480 0.64020 0.42300
C 	C 	0.93120 0.11340 0.59370 -0.12500
C 	C 	0.90980 0.99800 0.60240 0.02800
C 	C 	0.93660 0.91280 0.55930 -0.09600
C 	C 	0.98790 0.94110 0.50470 0.01200
C 	C 	0.98330 0.14370 0.54180 -0.01600
C 	C 	0.69810 0.40950 0.64820 0.43300
C 	C 	0.61000 0.42600 0.59320 -0.11700
C 	C 	0.51110 0.33950 0.56740 0.02600
C 	C 	0.43240 0.35340 0.51650 -0.09600
C 	C 	0.45090 0.45530 0.48730 0.01400
C 	C 	0.62820 0.52640 0.56540 -0.02400
C 	C 	0.93340 0.49080 0.80870 0.35500
C 	C 	0.95300 0.51180 0.88080 -0.09900
C 	C 	0.97200 0.62660 0.91400 0.02000
C 	C 	0.99890 0.64990 0.98010 -0.09700
C 	C 	0.01050 0.55910 0.01690 0.02400
C 	C 	0.96040 0.42080 0.91420 -0.03400
C 	C 	0.79520 0.10240 0.85980 0.42300
C 	C 	0.88660 0.06880 0.90630 -0.12400
C 	C 	0.00200 0.09020 0.89760 0.02800
C 	C 	0.08720 0.06340 0.94070 -0.09600
C 	C 	0.05890 0.01210 0.99530 0.01100
C 	C 	0.85630 0.01670 0.95820 -0.01600
C 	C 	0.59050 0.30190 0.85180 0.43300
C 	C 	0.57400 0.39000 0.90680 -0.11700
C 	C 	0.66050 0.48890 0.93260 0.02600
C 	C 	0.64660 0.56760 0.98350 -0.09600
C 	C 	0.54470 0.54910 0.01270 0.01400
C 	C 	0.47360 0.37180 0.93460 -0.02400
C 	C 	0.50920 0.06660 0.69130 0.35500
C 	C 	0.48820 0.04700 0.61920 -0.09900
C 	C 	0.37340 0.02800 0.58600 0.02000
C 	C 	0.35010 0.00110 0.51990 -0.09700
C 	C 	0.44090 0.98950 0.48310 0.02400
C 	C 	0.57920 0.03960 0.58580 -0.03400
O 	O 	0.07370 0.68990 0.36920 -0.57100
O 	O 	0.15530 0.82890 0.31544 -0.49000
O 	O 	0.32910 0.67470 0.32234 -0.49200
O 	O 	0.20810 0.51490 0.33983 -0.55300
O 	O 	0.10500 0.61140 0.22307 -0.61500
O 	O 	0.03530 0.42330 0.21984 -0.48900
O 	O 	0.31010 0.92630 0.13080 -0.57100
O 	O 	0.17110 0.84470 0.18456 -0.49000
O 	O 	0.32530 0.67090 0.17766 -0.49200
O 	O 	0.48510 0.79190 0.16017 -0.55300
O 	O 	0.38860 0.89500 0.27693 -0.61500
O 	O 	0.57670 0.96470 0.28016 -0.48900
O 	O 	0.92630 0.31010 0.63080 -0.57100
O 	O 	0.84470 0.17110 0.68456 -0.49000
O 	O 	0.67090 0.32530 0.67766 -0.49200
O 	O 	0.79190 0.48510 0.66017 -0.55300
O 	O 	0.89500 0.38860 0.77693 -0.61500
O 	O 	0.96470 0.57670 0.78016 -0.48900
O 	O 	0.68990 0.07370 0.86920 -0.57100
O 	O 	0.82890 0.15530 0.81544 -0.49000
O 	O 	0.67470 0.32910 0.82234 -0.49200
O 	O 	0.51490 0.20810 0.83983 -0.55300
O 	O 	0.61140 0.10500 0.72307 -0.61500
O 	O 	0.42330 0.03530 0.71984 -0.48900
