data_crystal

_cell_length_a 12.46480
_cell_length_b 20.88300
_cell_length_c 20.88300
_cell_angle_alpha 120.00000
_cell_angle_beta  90.00000
_cell_angle_gamma 90.00000

_symmetry_space_group_name_	'P 1'
_symmetry_space_group_name_H-M	'P 1'

loop_
_symmetry_equiv_pos_as_xyz
  x,y,z

loop_
_atom_site_label
_atom_site_type_symbol
_atom_site_fract_x
_atom_site_fract_y
_atom_site_fract_z
_atom_site_charge
K 	K 	0.72195 0.63139 0.04045 0.63600
K 	K 	0.61107 0.51982 0.62552 0.65200
K 	K 	0.37130 0.19450 0.35000 0.61100
K 	K 	0.05528 0.40906 0.36861 0.63600
K 	K 	0.94440 0.10570 0.48018 0.65300
K 	K 	0.70463 0.15550 0.80550 0.61100
K 	K 	0.38862 0.95955 0.59094 0.63900
K 	K 	0.27774 0.37448 0.89430 0.65400
K 	K 	0.03797 0.65000 0.84450 0.61000
K 	K 	0.27805 0.59094 0.95955 0.63900
K 	K 	0.38893 0.89430 0.37448 0.65400
K 	K 	0.62870 0.84450 0.65000 0.61200
K 	K 	0.94472 0.04045 0.63139 0.63700
K 	K 	0.05560 0.62552 0.51982 0.65100
K 	K 	0.29537 0.35000 0.19450 0.61100
K 	K 	0.61138 0.36861 0.40906 0.63800
K 	K 	0.72226 0.48018 0.10570 0.65300
K 	K 	0.96203 0.80550 0.15550 0.61300
K 	K 	-0.00000 0.45810 -0.00000 0.65400
K 	K 	0.33333 0.54190 0.54190 0.65800
K 	K 	0.66667 -0.00000 0.45810 0.65600
Fe	Fe	0.53626 0.49258 0.91485 1.22200
Fe	Fe	0.86959 0.42227 0.50742 1.22300
Fe	Fe	0.20293 0.08515 0.57773 1.22100
Fe	Fe	0.46374 0.57773 0.08515 1.22100
Fe	Fe	0.13041 0.91485 0.49258 1.21900
Fe	Fe	0.79707 0.50742 0.42227 1.22100
H 	H 	0.69300 0.41000 0.73210 0.14500
H 	H 	0.76230 0.44510 0.80450 0.14600
H 	H 	0.74670 0.34000 0.81040 0.14300
H 	H 	0.64410 0.32620 0.84550 0.11400
H 	H 	0.49820 0.33070 0.78050 0.04900
H 	H 	0.58130 0.31490 0.71790 0.06800
H 	H 	0.29020 0.52540 0.78990 0.09600
H 	H 	0.28170 0.48760 0.66750 -0.00700
H 	H 	0.51210 0.33690 0.62470 0.02400
H 	H 	0.02633 0.32210 0.59000 0.14900
H 	H 	0.09563 0.35940 0.55490 0.15200
H 	H 	0.08003 0.47040 0.66000 0.15000
H 	H 	0.97743 0.51930 0.67380 0.12700
H 	H 	0.83153 0.44980 0.66930 0.05000
H 	H 	0.91463 0.40300 0.68510 0.07100
H 	H 	0.62353 0.26450 0.47460 0.09600
H 	H 	0.61503 0.17990 0.51240 -0.00600
H 	H 	0.84543 0.28780 0.66310 0.02500
H 	H 	0.35967 0.26790 0.67790 0.14500
H 	H 	0.42897 0.19550 0.64060 0.14600
H 	H 	0.41337 0.18960 0.52960 0.14300
H 	H 	0.31077 0.15450 0.48070 0.11300
H 	H 	0.16487 0.21950 0.55020 0.04700
H 	H 	0.24797 0.28210 0.59700 0.06600
H 	H 	0.95687 0.21010 0.73550 0.11300
H 	H 	0.94837 0.33250 0.82010 -0.01800
H 	H 	0.17877 0.37530 0.71220 0.01900
H 	H 	0.30700 0.67790 0.26790 0.14500
H 	H 	0.23770 0.64060 0.19550 0.14500
H 	H 	0.25330 0.52960 0.18960 0.14200
H 	H 	0.35590 0.48070 0.15450 0.11400
H 	H 	0.50180 0.55020 0.21950 0.04900
H 	H 	0.41870 0.59700 0.28210 0.06800
H 	H 	0.70980 0.73550 0.21010 0.09700
H 	H 	0.71830 0.82010 0.33250 -0.00600
H 	H 	0.48790 0.71220 0.37530 0.02400
H 	H 	0.97367 0.73210 0.41000 0.13700
H 	H 	0.90437 0.80450 0.44510 0.13700
H 	H 	0.91997 0.81040 0.34000 0.13200
H 	H 	0.02257 0.84550 0.32620 0.09500
H 	H 	0.16847 0.78050 0.33070 0.04700
H 	H 	0.08537 0.71790 0.31490 0.06300
H 	H 	0.37647 0.78990 0.52540 0.09700
H 	H 	0.38497 0.66750 0.48760 -0.00700
H 	H 	0.15457 0.62470 0.33690 0.02200
H 	H 	0.64033 0.59000 0.32210 0.14500
H 	H 	0.57103 0.55490 0.35940 0.14600
H 	H 	0.58663 0.66000 0.47040 0.14300
H 	H 	0.68923 0.67380 0.51930 0.11500
H 	H 	0.83513 0.66930 0.44980 0.05300
H 	H 	0.75203 0.68510 0.40300 0.07100
H 	H 	0.04313 0.47460 0.26450 0.07100
H 	H 	0.05163 0.51240 0.17990 0.01200
H 	H 	0.82123 0.66310 0.28780 0.03100
C 	C 	0.69000 0.44070 0.78550 -0.35300
C 	C 	0.64920 0.51670 0.80540 0.39800
C 	C 	0.68700 0.36400 0.84370 -0.33800
C 	C 	0.72920 0.41820 0.92090 0.39800
C 	C 	0.54250 0.35370 0.75940 -0.09600
C 	C 	0.47080 0.39382 0.73202 -0.09300
C 	C 	0.40440 0.45220 0.78440 0.21400
C 	C 	0.33380 0.48670 0.75690 -0.22200
C 	C 	0.32900 0.46450 0.68400 0.10200
C 	C 	0.39420 0.40720 0.63310 -0.16000
C 	C 	0.46640 0.37360 0.65824 0.02500
C 	C 	0.02333 0.34480 0.55930 -0.37400
C 	C 	0.98253 0.28870 0.48330 0.41500
C 	C 	0.02033 0.47970 0.63600 -0.36500
C 	C 	0.06253 0.50270 0.58180 0.40500
C 	C 	0.87583 0.40570 0.64630 -0.09900
C 	C 	0.80413 0.33820 0.60618 -0.09100
C 	C 	0.73773 0.33220 0.54780 0.21300
C 	C 	0.66713 0.27020 0.51330 -0.22200
C 	C 	0.66233 0.21950 0.53550 0.10200
C 	C 	0.72753 0.22590 0.59280 -0.15900
C 	C 	0.79973 0.28464 0.62640 0.02400
C 	C 	0.35667 0.21450 0.65520 -0.35300
C 	C 	0.31587 0.19460 0.71130 0.39800
C 	C 	0.35367 0.15630 0.52030 -0.33800
C 	C 	0.39587 0.07910 0.49730 0.39900
C 	C 	0.20917 0.24060 0.59430 -0.09000
C 	C 	0.13747 0.26798 0.66180 -0.10500
C 	C 	0.07107 0.21560 0.66780 0.23000
C 	C 	0.00047 0.24310 0.72980 -0.26200
C 	C 	0.99567 0.31600 0.78050 0.14100
C 	C 	0.06087 0.36690 0.77410 -0.18000
C 	C 	0.13307 0.34176 0.71536 0.03900
C 	C 	0.31000 0.65520 0.21450 -0.35300
C 	C 	0.35080 0.71130 0.19460 0.39800
C 	C 	0.31300 0.52030 0.15630 -0.33900
C 	C 	0.27080 0.49730 0.07910 0.39900
C 	C 	0.45750 0.59430 0.24060 -0.09600
C 	C 	0.52920 0.66180 0.26798 -0.09300
C 	C 	0.59560 0.66780 0.21560 0.21400
C 	C 	0.66620 0.72980 0.24310 -0.22300
C 	C 	0.67100 0.78050 0.31600 0.10200
C 	C 	0.60580 0.77410 0.36690 -0.15900
C 	C 	0.53360 0.71536 0.34176 0.02500
C 	C 	0.97667 0.78550 0.44070 -0.31900
C 	C 	0.01747 0.80540 0.51670 0.36800
C 	C 	0.97967 0.84370 0.36400 -0.29900
C 	C 	0.93747 0.92090 0.41820 0.38900
C 	C 	0.12417 0.75940 0.35370 -0.09100
C 	C 	0.19587 0.73202 0.39382 -0.09600
C 	C 	0.26227 0.78440 0.45220 0.21500
C 	C 	0.33287 0.75690 0.48670 -0.22400
C 	C 	0.33767 0.68400 0.46450 0.10300
C 	C 	0.27247 0.63310 0.40720 -0.16100
C 	C 	0.20027 0.65824 0.37360 0.02700
C 	C 	0.64333 0.55930 0.34480 -0.35400
C 	C 	0.68413 0.48330 0.28870 0.39800
C 	C 	0.64633 0.63600 0.47970 -0.33900
C 	C 	0.60413 0.58180 0.50270 0.39900
C 	C 	0.79083 0.64630 0.40570 -0.10500
C 	C 	0.86253 0.60618 0.33820 -0.07500
C 	C 	0.92893 0.54780 0.33220 0.19100
C 	C 	0.99953 0.51330 0.27020 -0.16300
C 	C 	0.00433 0.53550 0.21950 0.04400
C 	C 	0.93913 0.59280 0.22590 -0.12900
C 	C 	0.86693 0.62640 0.28464 0.00400
C 	C 	0.50000 0.41460 -0.00000 0.51400
C 	C 	0.83333 0.58540 0.58540 0.52100
C 	C 	0.16667 -0.00000 0.41460 0.51700
S 	S 	0.38676 0.37922 0.53764 0.51800
S 	S 	0.72009 0.15842 0.62078 0.51800
S 	S 	0.05343 0.46236 0.84158 0.51400
S 	S 	0.61324 0.84158 0.46236 0.51700
S 	S 	0.27991 0.53764 0.37922 0.51800
S 	S 	0.94657 0.62078 0.15842 0.52000
N 	N 	0.62060 0.40440 0.81601 -0.09000
N 	N 	0.95393 0.41161 0.59560 -0.08000
N 	N 	0.28727 0.18399 0.58839 -0.09100
N 	N 	0.37940 0.58839 0.18399 -0.09000
N 	N 	0.04607 0.81601 0.40440 -0.10500
N 	N 	0.71273 0.59560 0.41161 -0.08900
O 	O 	0.48500 0.41440 0.93892 -0.51100
O 	O 	0.59760 0.55115 0.86674 -0.42800
O 	O 	0.67200 0.54190 0.76494 -0.35200
O 	O 	0.68750 0.48326 0.95372 -0.48200
O 	O 	0.79920 0.39728 0.94786 -0.37200
O 	O 	0.40420 0.47301 0.85567 -0.45400
O 	O 	0.46790 0.42250 0.52644 -0.42300
O 	O 	0.27990 0.39910 0.52638 -0.34900
O 	O 	0.40850 0.30068 0.49605 -0.37000
O 	O 	0.08650 0.30700 0.91960 -0.23300
O 	O 	0.74340 0.77330 0.08760 -0.31400
O 	O 	0.81833 0.52452 0.58560 -0.51500
O 	O 	0.93093 0.31559 0.44885 -0.43200
O 	O 	0.00533 0.22304 0.45810 -0.36300
O 	O 	0.02083 0.47046 0.51674 -0.49100
O 	O 	0.13253 0.55058 0.60272 -0.37900
O 	O 	0.73753 0.38266 0.52699 -0.45500
O 	O 	0.80123 0.10394 0.57750 -0.42400
O 	O 	0.61323 0.12728 0.60090 -0.34900
O 	O 	0.74183 0.19537 0.69932 -0.36900
O 	O 	0.41983 0.61260 0.69300 -0.23200
O 	O 	0.07673 0.31430 0.22670 -0.31900
O 	O 	0.15167 0.06108 0.47548 -0.51700
O 	O 	0.26427 0.13326 0.68441 -0.43000
O 	O 	0.33867 0.23506 0.77696 -0.35300
O 	O 	0.35417 0.04628 0.52954 -0.48700
O 	O 	0.46587 0.05214 0.44942 -0.37800
O 	O 	0.07087 0.14433 0.61734 -0.46100
O 	O 	0.13457 0.47356 0.89606 -0.42200
O 	O 	0.94657 0.47362 0.87272 -0.34100
O 	O 	0.07517 0.50395 0.80463 -0.37100
O 	O 	0.75317 0.08040 0.38740 -0.23500
O 	O 	0.41007 0.91240 0.68570 -0.31300
O 	O 	0.51500 0.47548 0.06108 -0.51600
O 	O 	0.40240 0.68441 0.13326 -0.43000
O 	O 	0.32800 0.77696 0.23506 -0.35300
O 	O 	0.31250 0.52954 0.04628 -0.48800
O 	O 	0.20080 0.44942 0.05214 -0.37900
O 	O 	0.59580 0.61734 0.14433 -0.45500
O 	O 	0.53210 0.89606 0.47356 -0.42100
O 	O 	0.72010 0.87272 0.47362 -0.34500
O 	O 	0.59150 0.80463 0.50395 -0.36800
O 	O 	0.91350 0.38740 0.08040 -0.23200
O 	O 	0.25660 0.68570 0.91240 -0.31400
O 	O 	0.18167 0.93892 0.41440 -0.51500
O 	O 	0.06907 0.86674 0.55115 -0.42500
O 	O 	0.99467 0.76494 0.54190 -0.33600
O 	O 	0.97917 0.95372 0.48326 -0.47400
O 	O 	0.86747 0.94786 0.39728 -0.36700
O 	O 	0.26247 0.85567 0.47301 -0.45500
O 	O 	0.19877 0.52644 0.42250 -0.42500
O 	O 	0.38677 0.52638 0.39910 -0.34800
O 	O 	0.25817 0.49605 0.30068 -0.37000
O 	O 	0.58017 0.91960 0.30700 -0.23000
O 	O 	0.92327 0.08760 0.77330 -0.31400
O 	O 	0.84833 0.58560 0.52452 -0.51500
O 	O 	0.73573 0.44885 0.31559 -0.42900
O 	O 	0.66133 0.45810 0.22304 -0.35400
O 	O 	0.64583 0.51674 0.47046 -0.48600
O 	O 	0.53413 0.60272 0.55058 -0.37500
O 	O 	0.92913 0.52699 0.38266 -0.44600
O 	O 	0.86543 0.57750 0.10394 -0.42300
O 	O 	0.05343 0.60090 0.12728 -0.35600
O 	O 	0.92483 0.69932 0.19537 -0.36600
O 	O 	0.24683 0.69300 0.61260 -0.23400
O 	O 	0.58993 0.22670 0.31430 -0.31600
O 	O 	0.50000 0.57706 -0.00000 -0.62200
O 	O 	0.50000 0.35500 -0.00000 -0.36300
O 	O 	0.83333 0.42294 0.42294 -0.61800
O 	O 	0.83333 0.64500 0.64500 -0.35900
O 	O 	0.16667 0.00000 0.57706 -0.62200
O 	O 	0.16667 0.00000 0.35500 -0.36400
