data_crystal

_cell_length_a 15.77420
_cell_length_b 19.97510
_cell_length_c 16.20650
_cell_angle_alpha 90.00000
_cell_angle_beta  106.39800
_cell_angle_gamma 90.00000

_symmetry_space_group_name_	'P 1'
_symmetry_space_group_name_H-M	'P 1'

loop_
_symmetry_equiv_pos_as_xyz
  x,y,z

loop_
_atom_site_label
_atom_site_type_symbol
_atom_site_fract_x
_atom_site_fract_y
_atom_site_fract_z
_atom_site_charge
N 	N 	0.53330 0.97650 0.56630 0.07100
O 	O 	0.57200 0.03020 0.57320 -0.10600
O 	O 	0.50180 0.95350 0.49350 -0.08200
O 	O 	0.53115 0.94653 0.63271 -0.28000
N 	N 	0.36220 0.95374 0.68290 -0.22700
C 	C 	0.45370 0.09250 0.68250 0.09400
H 	H 	0.42040 0.06830 0.63360 0.01000
C 	C 	0.45090 0.16160 0.67920 -0.13900
H 	H 	0.41610 0.18380 0.62940 0.08100
C 	C 	0.42310 0.30830 0.71250 -0.02800
H 	H 	0.36990 0.28500 0.68600 0.04000
C 	C 	0.42300 0.37770 0.71320 -0.06300
H 	H 	0.36940 0.40100 0.68820 0.05400
C 	C 	0.44240 0.52420 0.68380 -0.06500
H 	H 	0.40240 0.50090 0.63790 0.05400
C 	C 	0.44240 0.59360 0.68390 -0.03100
H 	H 	0.40260 0.61720 0.63810 0.04100
C 	C 	0.48530 0.80930 0.67650 0.07000
H 	H 	0.47500 0.83280 0.62360 0.01300
C 	C 	0.48450 0.74020 0.67420 -0.13400
H 	H 	0.47330 0.71760 0.62070 0.07900
C 	C 	0.30330 0.97500 0.72250 0.08000
H 	H 	0.32310 0.98280 0.78270 0.01400
C 	C 	0.21560 0.98630 0.68080 -0.15500
H 	H 	0.17680 0.00220 0.71190 0.08800
C 	C 	0.18400 0.97430 0.59330 0.10600
C 	C 	0.24340 0.95160 0.55230 -0.15400
H 	H 	0.22460 0.94220 0.49240 0.08700
C 	C 	0.33090 0.94220 0.59850 0.08200
H 	H 	0.37090 0.92680 0.56860 0.01900
C 	C 	0.02860 0.93430 0.52680 0.03500
C 	C 	0.06230 0.05400 0.51950 0.03000
C 	C 	0.12180 0.10840 0.53470 -0.10200
H 	H 	0.18250 0.10070 0.56300 0.06900
C 	C 	0.09400 0.17150 0.50970 0.02500
H 	H 	0.13470 0.20760 0.52250 0.01900
C 	C 	0.00460 0.18350 0.46470 -0.12800
H 	H 	0.98560 0.22780 0.44740 0.08900
C 	C 	0.05390 0.86760 0.55390 -0.13300
H 	H 	0.11330 0.85880 0.58580 0.07900
C 	C 	0.08870 0.98770 0.54550 -0.07100
N 	N 	0.46670 0.97650 0.93370 0.07000
O 	O 	0.42800 0.03020 0.92680 -0.10700
O 	O 	0.49820 0.95350 0.00650 -0.08400
O 	O 	0.46885 0.94653 0.86729 -0.28100
N 	N 	0.63780 0.95374 0.81710 -0.22600
C 	C 	0.54630 0.09250 0.81750 0.09300
H 	H 	0.57960 0.06830 0.86640 0.00900
C 	C 	0.54910 0.16160 0.82080 -0.13900
H 	H 	0.58390 0.18380 0.87060 0.08100
C 	C 	0.57690 0.30830 0.78750 -0.02800
H 	H 	0.63010 0.28500 0.81400 0.04100
C 	C 	0.57700 0.37770 0.78680 -0.06300
H 	H 	0.63060 0.40100 0.81180 0.05400
C 	C 	0.55760 0.52420 0.81620 -0.06400
H 	H 	0.59760 0.50090 0.86210 0.05400
C 	C 	0.55760 0.59360 0.81610 -0.03100
H 	H 	0.59740 0.61720 0.86190 0.04200
C 	C 	0.51470 0.80930 0.82350 0.07000
H 	H 	0.52500 0.83280 0.87640 0.01300
C 	C 	0.51550 0.74020 0.82580 -0.13400
H 	H 	0.52670 0.71760 0.87930 0.07900
C 	C 	0.69670 0.97500 0.77750 0.07700
H 	H 	0.67690 0.98280 0.71730 0.01500
C 	C 	0.78440 0.98630 0.81920 -0.14800
H 	H 	0.82320 0.00220 0.78810 0.08800
C 	C 	0.81600 0.97430 0.90670 0.09700
C 	C 	0.75660 0.95160 0.94770 -0.14500
H 	H 	0.77540 0.94220 0.00760 0.08400
C 	C 	0.66910 0.94220 0.90150 0.07900
H 	H 	0.62910 0.92680 0.93140 0.02000
C 	C 	0.97140 0.93430 0.97320 0.01200
C 	C 	0.93770 0.05400 0.98050 0.02200
C 	C 	0.87820 0.10840 0.96530 -0.04200
H 	H 	0.81750 0.10070 0.93700 0.05000
C 	C 	0.90600 0.17150 0.99030 -0.07100
H 	H 	0.86530 0.20760 0.97750 0.05600
C 	C 	0.99540 0.18350 0.03530 0.05800
H 	H 	0.01440 0.22780 0.05260 0.00300
C 	C 	0.94610 0.86760 0.94610 0.00100
H 	H 	0.88670 0.85880 0.91420 0.03700
C 	C 	0.91130 0.98770 0.95450 -0.04900
N 	N 	0.46670 0.02350 0.43370 0.07000
O 	O 	0.42800 0.96980 0.42680 -0.10700
O 	O 	0.49820 0.04650 0.50650 -0.08300
O 	O 	0.46885 0.05347 0.36729 -0.28100
N 	N 	0.63780 0.04626 0.31710 -0.22700
C 	C 	0.54630 0.90750 0.31750 0.09300
H 	H 	0.57960 0.93170 0.36640 0.00900
C 	C 	0.54910 0.83840 0.32080 -0.13900
H 	H 	0.58390 0.81620 0.37060 0.08100
C 	C 	0.57690 0.69170 0.28750 -0.02800
H 	H 	0.63010 0.71500 0.31400 0.04100
C 	C 	0.57700 0.62230 0.28680 -0.06300
H 	H 	0.63060 0.59900 0.31180 0.05400
C 	C 	0.55760 0.47580 0.31620 -0.06400
H 	H 	0.59760 0.49910 0.36210 0.05400
C 	C 	0.55760 0.40640 0.31610 -0.03100
H 	H 	0.59740 0.38280 0.36190 0.04100
C 	C 	0.51470 0.19070 0.32350 0.07000
H 	H 	0.52500 0.16720 0.37640 0.01300
C 	C 	0.51550 0.25980 0.32580 -0.13400
H 	H 	0.52670 0.28240 0.37930 0.07900
C 	C 	0.69670 0.02500 0.27750 0.07700
H 	H 	0.67690 0.01720 0.21730 0.01500
C 	C 	0.78440 0.01370 0.31920 -0.14900
H 	H 	0.82320 0.99780 0.28810 0.08800
C 	C 	0.81600 0.02570 0.40670 0.09700
C 	C 	0.75660 0.04840 0.44770 -0.14700
H 	H 	0.77540 0.05780 0.50760 0.08500
C 	C 	0.66910 0.05780 0.40150 0.08000
H 	H 	0.62910 0.07320 0.43140 0.02000
C 	C 	0.97140 0.06570 0.47320 0.01000
C 	C 	0.93770 0.94600 0.48050 0.01900
C 	C 	0.87820 0.89160 0.46530 -0.03800
H 	H 	0.81750 0.89930 0.43700 0.04900
C 	C 	0.90600 0.82850 0.49030 -0.07700
H 	H 	0.86530 0.79240 0.47750 0.05800
C 	C 	0.99540 0.81650 0.53530 0.06500
H 	H 	0.01440 0.77220 0.55260 0.00000
C 	C 	0.94610 0.13240 0.44610 0.00300
H 	H 	0.88670 0.14120 0.41420 0.03600
C 	C 	0.91130 0.01230 0.45450 -0.04800
N 	N 	0.53330 0.02350 0.06630 0.06900
O 	O 	0.57200 0.96980 0.07320 -0.10700
O 	O 	0.50180 0.04650 0.99350 -0.08200
O 	O 	0.53115 0.05347 0.13271 -0.28100
N 	N 	0.36220 0.04626 0.18290 -0.22800
C 	C 	0.45370 0.90750 0.18250 0.09300
H 	H 	0.42040 0.93170 0.13360 0.00900
C 	C 	0.45090 0.83840 0.17920 -0.13900
H 	H 	0.41610 0.81620 0.12940 0.08100
C 	C 	0.42310 0.69170 0.21250 -0.02800
H 	H 	0.36990 0.71500 0.18600 0.04000
C 	C 	0.42300 0.62230 0.21320 -0.06300
H 	H 	0.36940 0.59900 0.18820 0.05400
C 	C 	0.44240 0.47580 0.18380 -0.06500
H 	H 	0.40240 0.49910 0.13790 0.05400
C 	C 	0.44240 0.40640 0.18390 -0.03100
H 	H 	0.40260 0.38280 0.13810 0.04100
C 	C 	0.48530 0.19070 0.17650 0.07000
H 	H 	0.47500 0.16720 0.12360 0.01300
C 	C 	0.48450 0.25980 0.17420 -0.13400
H 	H 	0.47330 0.28240 0.12070 0.07900
C 	C 	0.30330 0.02500 0.22250 0.08000
H 	H 	0.32310 0.01720 0.28270 0.01400
C 	C 	0.21560 0.01370 0.18080 -0.15500
H 	H 	0.17680 0.99780 0.21190 0.08800
C 	C 	0.18400 0.02570 0.09330 0.10700
C 	C 	0.24340 0.04840 0.05230 -0.15600
H 	H 	0.22460 0.05780 0.99240 0.08800
C 	C 	0.33090 0.05780 0.09850 0.08300
H 	H 	0.37090 0.07320 0.06860 0.01800
C 	C 	0.02860 0.06570 0.02680 0.03100
C 	C 	0.06230 0.94600 0.01950 0.02800
C 	C 	0.12180 0.89160 0.03470 -0.10000
H 	H 	0.18250 0.89930 0.06300 0.06900
C 	C 	0.09400 0.82850 0.00970 0.02300
H 	H 	0.13470 0.79240 0.02250 0.01900
C 	C 	0.00460 0.81650 0.96470 -0.12600
H 	H 	0.98560 0.77220 0.94740 0.08800
C 	C 	0.05390 0.13240 0.05390 -0.12800
H 	H 	0.11330 0.14120 0.08580 0.07800
C 	C 	0.08870 0.01230 0.04550 -0.07000
Ni	Ni	0.50000 0.95153 0.75000 1.08000
N 	N 	0.50000 0.05790 0.75000 -0.22900
C 	C 	0.50000 0.19850 0.75000 0.08400
C 	C 	0.50000 0.27210 0.75000 -0.02200
C 	C 	0.50000 0.41370 0.75000 0.02300
C 	C 	0.50000 0.48790 0.75000 0.01800
C 	C 	0.50000 0.62920 0.75000 -0.01700
N 	N 	0.50000 0.84550 0.75000 -0.22400
C 	C 	0.50000 0.70360 0.75000 0.07900
Ni	Ni	0.50000 0.04847 0.25000 1.08000
N 	N 	0.50000 0.94210 0.25000 -0.22900
C 	C 	0.50000 0.80150 0.25000 0.08400
C 	C 	0.50000 0.72790 0.25000 -0.02200
C 	C 	0.50000 0.58630 0.25000 0.02300
C 	C 	0.50000 0.51210 0.25000 0.01800
C 	C 	0.50000 0.37080 0.25000 -0.01700
N 	N 	0.50000 0.15450 0.25000 -0.22400
C 	C 	0.50000 0.29640 0.25000 0.07900
N 	N 	0.03330 0.47650 0.56630 0.07000
O 	O 	0.07200 0.53020 0.57320 -0.11700
O 	O 	0.00180 0.45350 0.49350 -0.09800
O 	O 	0.03115 0.44653 0.63271 -0.28700
N 	N 	0.86220 0.45374 0.68290 -0.22300
C 	C 	0.95370 0.59250 0.68250 0.10500
H 	H 	0.92040 0.56830 0.63360 0.00800
C 	C 	0.95090 0.66160 0.67920 -0.11900
H 	H 	0.91610 0.68380 0.62940 0.07800
C 	C 	0.92310 0.80830 0.71250 -0.01400
H 	H 	0.86990 0.78500 0.68600 0.03800
C 	C 	0.92300 0.87770 0.71320 -0.04700
H 	H 	0.86940 0.90100 0.68820 0.05000
C 	C 	0.94240 0.02420 0.68380 -0.04800
H 	H 	0.90240 0.00090 0.63790 0.05100
C 	C 	0.94240 0.09360 0.68390 -0.01500
H 	H 	0.90260 0.11720 0.63810 0.03900
C 	C 	0.98530 0.30930 0.67650 0.08100
H 	H 	0.97500 0.33280 0.62360 0.01500
C 	C 	0.98450 0.24020 0.67420 -0.11300
H 	H 	0.97330 0.21760 0.62070 0.07800
C 	C 	0.80330 0.47500 0.72250 0.07900
H 	H 	0.82310 0.48280 0.78270 0.01600
C 	C 	0.71560 0.48630 0.68080 -0.15100
H 	H 	0.67680 0.50220 0.71190 0.08700
C 	C 	0.68400 0.47430 0.59330 0.10100
C 	C 	0.74340 0.45160 0.55230 -0.15000
H 	H 	0.72460 0.44220 0.49240 0.08600
C 	C 	0.83090 0.44220 0.59850 0.08100
H 	H 	0.87090 0.42680 0.56860 0.02300
C 	C 	0.52860 0.43430 0.52680 0.02200
C 	C 	0.56230 0.55400 0.51950 0.02400
C 	C 	0.62180 0.60840 0.53470 -0.07000
H 	H 	0.68250 0.60070 0.56300 0.05900
C 	C 	0.59400 0.67150 0.50970 -0.02600
H 	H 	0.63470 0.70760 0.52250 0.03800
C 	C 	0.50460 0.68350 0.46470 -0.03200
H 	H 	0.48560 0.72780 0.44740 0.04400
C 	C 	0.55390 0.36760 0.55390 -0.06600
H 	H 	0.61330 0.35880 0.58580 0.05800
C 	C 	0.58870 0.48770 0.54550 -0.05900
N 	N 	0.96670 0.47650 0.93370 0.06900
O 	O 	0.92800 0.53020 0.92680 -0.09600
O 	O 	0.99820 0.45350 0.00650 -0.06900
O 	O 	0.96885 0.44653 0.86729 -0.27000
N 	N 	0.13780 0.45374 0.81710 -0.22800
C 	C 	0.04630 0.59250 0.81750 0.08600
H 	H 	0.07960 0.56830 0.86640 0.00900
C 	C 	0.04910 0.66160 0.82080 -0.13500
H 	H 	0.08390 0.68380 0.87060 0.07800
C 	C 	0.07690 0.80830 0.78750 -0.02900
H 	H 	0.13010 0.78500 0.81400 0.04000
C 	C 	0.07700 0.87770 0.78680 -0.06100
H 	H 	0.13060 0.90100 0.81180 0.05300
C 	C 	0.05760 0.02420 0.81620 -0.06400
H 	H 	0.09760 0.00090 0.86210 0.05300
C 	C 	0.05760 0.09360 0.81610 -0.03100
H 	H 	0.09740 0.11720 0.86190 0.04100
C 	C 	0.01470 0.30930 0.82350 0.06200
H 	H 	0.02500 0.33280 0.87640 0.01100
C 	C 	0.01550 0.24020 0.82580 -0.12900
H 	H 	0.02670 0.21760 0.87930 0.07400
C 	C 	0.19670 0.47500 0.77750 0.07800
H 	H 	0.17690 0.48280 0.71730 0.01400
C 	C 	0.28440 0.48630 0.81920 -0.15200
H 	H 	0.32320 0.50220 0.78810 0.08700
C 	C 	0.31600 0.47430 0.90670 0.10200
C 	C 	0.25660 0.45160 0.94770 -0.15000
H 	H 	0.27540 0.44220 0.00760 0.08500
C 	C 	0.16910 0.44220 0.90150 0.08100
H 	H 	0.12910 0.42680 0.93140 0.01700
C 	C 	0.47140 0.43430 0.97320 0.02500
C 	C 	0.43770 0.55400 0.98050 0.02700
C 	C 	0.37820 0.60840 0.96530 -0.07300
H 	H 	0.31750 0.60070 0.93700 0.06000
C 	C 	0.40600 0.67150 0.99030 -0.02300
H 	H 	0.36530 0.70760 0.97750 0.03700
C 	C 	0.49540 0.68350 0.03530 -0.03500
H 	H 	0.51440 0.72780 0.05260 0.04500
C 	C 	0.44610 0.36760 0.94610 -0.06800
H 	H 	0.38670 0.35880 0.91420 0.05900
C 	C 	0.41130 0.48770 0.95450 -0.06100
N 	N 	0.96670 0.52350 0.43370 0.06900
O 	O 	0.92800 0.46980 0.42680 -0.09600
O 	O 	0.99820 0.54650 0.50650 -0.06700
O 	O 	0.96885 0.55347 0.36729 -0.27000
N 	N 	0.13780 0.54626 0.31710 -0.22800
C 	C 	0.04630 0.40750 0.31750 0.08600
H 	H 	0.07960 0.43170 0.36640 0.00900
C 	C 	0.04910 0.33840 0.32080 -0.13500
H 	H 	0.08390 0.31620 0.37060 0.07800
C 	C 	0.07690 0.19170 0.28750 -0.02800
H 	H 	0.13010 0.21500 0.31400 0.04000
C 	C 	0.07700 0.12230 0.28680 -0.06100
H 	H 	0.13060 0.09900 0.31180 0.05300
C 	C 	0.05760 0.97580 0.31620 -0.06400
H 	H 	0.09760 0.99910 0.36210 0.05300
C 	C 	0.05760 0.90640 0.31610 -0.03100
H 	H 	0.09740 0.88280 0.36190 0.04100
C 	C 	0.01470 0.69070 0.32350 0.06200
H 	H 	0.02500 0.66720 0.37640 0.01100
C 	C 	0.01550 0.75980 0.32580 -0.12900
H 	H 	0.02670 0.78240 0.37930 0.07400
C 	C 	0.19670 0.52500 0.27750 0.07800
H 	H 	0.17690 0.51720 0.21730 0.01400
C 	C 	0.28440 0.51370 0.31920 -0.15200
H 	H 	0.32320 0.49780 0.28810 0.08700
C 	C 	0.31600 0.52570 0.40670 0.10200
C 	C 	0.25660 0.54840 0.44770 -0.15100
H 	H 	0.27540 0.55780 0.50760 0.08600
C 	C 	0.16910 0.55780 0.40150 0.08100
H 	H 	0.12910 0.57320 0.43140 0.01600
C 	C 	0.47140 0.56570 0.47320 0.02200
C 	C 	0.43770 0.44600 0.48050 0.02400
C 	C 	0.37820 0.39160 0.46530 -0.07000
H 	H 	0.31750 0.39930 0.43700 0.05900
C 	C 	0.40600 0.32850 0.49030 -0.02600
H 	H 	0.36530 0.29240 0.47750 0.03800
C 	C 	0.49540 0.31650 0.53530 -0.03200
H 	H 	0.51440 0.27220 0.55260 0.04400
C 	C 	0.44610 0.63240 0.44610 -0.06500
H 	H 	0.38670 0.64120 0.41420 0.05800
C 	C 	0.41130 0.51230 0.45450 -0.06000
N 	N 	0.03330 0.52350 0.06630 0.07000
O 	O 	0.07200 0.46980 0.07320 -0.11700
O 	O 	0.00180 0.54650 0.99350 -0.09800
O 	O 	0.03115 0.55347 0.13271 -0.28700
N 	N 	0.86220 0.54626 0.18290 -0.22400
C 	C 	0.95370 0.40750 0.18250 0.10500
H 	H 	0.92040 0.43170 0.13360 0.00800
C 	C 	0.95090 0.33840 0.17920 -0.11900
H 	H 	0.91610 0.31620 0.12940 0.07800
C 	C 	0.92310 0.19170 0.21250 -0.01400
H 	H 	0.86990 0.21500 0.18600 0.03800
C 	C 	0.92300 0.12230 0.21320 -0.04700
H 	H 	0.86940 0.09900 0.18820 0.05000
C 	C 	0.94240 0.97580 0.18380 -0.04800
H 	H 	0.90240 0.99910 0.13790 0.05100
C 	C 	0.94240 0.90640 0.18390 -0.01500
H 	H 	0.90260 0.88280 0.13810 0.03900
C 	C 	0.98530 0.69070 0.17650 0.08100
H 	H 	0.97500 0.66720 0.12360 0.01500
C 	C 	0.98450 0.75980 0.17420 -0.11400
H 	H 	0.97330 0.78240 0.12070 0.07800
C 	C 	0.80330 0.52500 0.22250 0.07900
H 	H 	0.82310 0.51720 0.28270 0.01500
C 	C 	0.71560 0.51370 0.18080 -0.15100
H 	H 	0.67680 0.49780 0.21190 0.08800
C 	C 	0.68400 0.52570 0.09330 0.10200
C 	C 	0.74340 0.54840 0.05230 -0.15200
H 	H 	0.72460 0.55780 0.99240 0.08700
C 	C 	0.83090 0.55780 0.09850 0.08200
H 	H 	0.87090 0.57320 0.06860 0.02200
C 	C 	0.52860 0.56570 0.02680 0.01900
C 	C 	0.56230 0.44600 0.01950 0.02100
C 	C 	0.62180 0.39160 0.03470 -0.06700
H 	H 	0.68250 0.39930 0.06300 0.05800
C 	C 	0.59400 0.32850 0.00970 -0.03000
H 	H 	0.63470 0.29240 0.02250 0.03900
C 	C 	0.50460 0.31650 0.96470 -0.02800
H 	H 	0.48560 0.27220 0.94740 0.04300
C 	C 	0.55390 0.63240 0.05390 -0.06300
H 	H 	0.61330 0.64120 0.08580 0.05700
C 	C 	0.58870 0.51230 0.04550 -0.05800
Ni	Ni	-0.00000 0.45153 0.75000 1.07500
N 	N 	0.00000 0.55790 0.75000 -0.23800
C 	C 	0.00000 0.69850 0.75000 0.06600
C 	C 	0.00000 0.77210 0.75000 -0.03600
C 	C 	-0.00000 0.91370 0.75000 0.00700
C 	C 	-0.00000 0.98790 0.75000 0.00300
C 	C 	-0.00000 0.12920 0.75000 -0.03100
N 	N 	-0.00000 0.34550 0.75000 -0.23300
C 	C 	0.00000 0.20360 0.75000 0.06100
Ni	Ni	0.00000 0.54847 0.25000 1.07500
N 	N 	-0.00000 0.44210 0.25000 -0.23800
C 	C 	0.00000 0.30150 0.25000 0.06600
C 	C 	-0.00000 0.22790 0.25000 -0.03500
C 	C 	-0.00000 0.08630 0.25000 0.00700
C 	C 	0.00000 0.01210 0.25000 0.00300
C 	C 	0.00000 0.87080 0.25000 -0.03100
N 	N 	0.00000 0.65450 0.25000 -0.23300
C 	C 	0.00000 0.79640 0.25000 0.06100
