data_crystal

_cell_length_a 13.75060
_cell_length_b 17.86750
_cell_length_c 17.86750
_cell_angle_alpha 66.34120
_cell_angle_beta  75.13580
_cell_angle_gamma 104.86400

_symmetry_space_group_name_	'P 1'
_symmetry_space_group_name_H-M	'P 1'

loop_
_symmetry_equiv_pos_as_xyz
  x,y,z

loop_
_atom_site_label
_atom_site_type_symbol
_atom_site_fract_x
_atom_site_fract_y
_atom_site_fract_z
_atom_site_charge
Cd	Cd	0.92042 0.36654 0.22771 1.22400
Cd	Cd	0.14813 0.22771 0.40575 1.22400
Cd	Cd	0.55388 0.40575 0.36654 1.22400
Cd	Cd	0.07958 0.63346 0.77229 1.22300
Cd	Cd	0.85187 0.77229 0.59425 1.22300
Cd	Cd	0.44612 0.59425 0.63346 1.22400
H 	H 	0.79470 0.03670 0.46820 0.08000
H 	H 	0.57210 0.06360 0.36580 0.08500
H 	H 	0.67710 0.21540 0.28360 -0.00300
H 	H 	0.55520 0.91550 0.38870 0.07100
H 	H 	0.63930 0.91520 0.58730 0.08900
H 	H 	0.55940 0.76000 0.66310 0.00400
H 	H 	0.05900 0.26140 0.18080 -0.01100
H 	H 	0.12080 0.21800 0.07890 0.08900
H 	H 	0.10100 0.27590 0.94630 0.00300
H 	H 	0.01350 0.36910 0.92040 0.09000
H 	H 	0.93930 0.40220 0.03240 0.00900
H 	H 	0.26290 0.46820 0.49510 0.07900
H 	H 	0.93790 0.36580 0.57060 0.08600
H 	H 	0.96070 0.28360 0.50100 -0.00200
H 	H 	0.94390 0.38870 0.69580 0.07100
H 	H 	0.22660 0.58730 0.49750 0.08900
H 	H 	0.22250 0.66310 0.57690 0.00400
H 	H 	0.23980 0.18080 0.55780 -0.01100
H 	H 	0.19970 0.07890 0.70310 0.08900
H 	H 	0.04730 0.94630 0.77780 0.00200
H 	H 	0.93390 0.92040 0.71050 0.09000
H 	H 	0.97170 0.03240 0.56540 0.01000
H 	H 	0.75800 0.49510 0.03670 0.07900
H 	H 	0.50850 0.57060 0.06360 0.08500
H 	H 	0.46170 0.50100 0.21540 -0.00300
H 	H 	0.63970 0.69580 0.91550 0.07100
H 	H 	0.72410 0.49750 0.91520 0.08900
H 	H 	0.79940 0.57690 0.76000 0.00400
H 	H 	0.79760 0.55780 0.26140 -0.01100
H 	H 	0.90280 0.70310 0.21800 0.08900
H 	H 	0.82510 0.77780 0.27590 0.00200
H 	H 	0.64440 0.71050 0.36910 0.09000
H 	H 	0.53710 0.56540 0.40220 0.00900
H 	H 	0.20530 0.96330 0.53180 0.08000
H 	H 	0.42790 0.93640 0.63420 0.08500
H 	H 	0.32290 0.78460 0.71640 -0.00300
H 	H 	0.44480 0.08450 0.61130 0.07100
H 	H 	0.36070 0.08480 0.41270 0.08900
H 	H 	0.44060 0.24000 0.33690 0.00400
H 	H 	0.94100 0.73860 0.81920 -0.01100
H 	H 	0.87920 0.78200 0.92110 0.08900
H 	H 	0.89900 0.72410 0.05370 0.00300
H 	H 	0.98650 0.63090 0.07960 0.09000
H 	H 	0.06070 0.59780 0.96760 0.00900
H 	H 	0.73710 0.53180 0.50490 0.07900
H 	H 	0.06210 0.63420 0.42940 0.08600
H 	H 	0.03930 0.71640 0.49900 -0.00200
H 	H 	0.05610 0.61130 0.30420 0.07100
H 	H 	0.77340 0.41270 0.50250 0.08900
H 	H 	0.77750 0.33690 0.42310 0.00400
H 	H 	0.76020 0.81920 0.44220 -0.01100
H 	H 	0.80030 0.92110 0.29690 0.08900
H 	H 	0.95270 0.05370 0.22220 0.00200
H 	H 	0.06610 0.07960 0.28950 0.09000
H 	H 	0.02830 0.96760 0.43460 0.01000
H 	H 	0.24200 0.50490 0.96330 0.07900
H 	H 	0.49150 0.42940 0.93640 0.08500
H 	H 	0.53830 0.49900 0.78460 -0.00300
H 	H 	0.36030 0.30420 0.08450 0.07100
H 	H 	0.27590 0.50250 0.08480 0.08900
H 	H 	0.20060 0.42310 0.24000 0.00400
H 	H 	0.20240 0.44220 0.73860 -0.01100
H 	H 	0.09720 0.29690 0.78200 0.08900
H 	H 	0.17490 0.22220 0.72410 0.00200
H 	H 	0.35560 0.28950 0.63090 0.09000
H 	H 	0.46290 0.43460 0.59780 0.00900
C 	C 	0.82920 0.16140 0.37750 -0.00200
C 	C 	0.77010 0.07170 0.42940 -0.08600
C 	C 	0.67140 0.03190 0.42470 0.05500
C 	C 	0.63780 0.08690 0.37020 -0.13400
C 	C 	0.70170 0.17850 0.32050 0.08600
C 	C 	0.93980 0.20510 0.37650 0.29200
C 	C 	0.51150 0.79400 0.49010 -0.01800
C 	C 	0.55840 0.88510 0.44350 -0.07000
C 	C 	0.61060 0.93330 0.47730 0.03600
C 	C 	0.60820 0.88520 0.56150 -0.12100
C 	C 	0.55910 0.79160 0.60740 0.06600
C 	C 	0.45890 0.73800 0.45780 0.28900
C 	C 	0.04710 0.28270 0.12860 0.09100
C 	C 	0.08630 0.25730 0.06690 -0.15500
C 	C 	0.07350 0.29080 0.98910 0.08400
C 	C 	0.02170 0.34510 0.97410 -0.14500
C 	C 	0.97840 0.36620 0.04170 0.08000
C 	C 	0.20670 0.37750 0.46110 -0.00300
C 	C 	0.19950 0.42940 0.49890 -0.08500
C 	C 	0.09610 0.42470 0.54340 0.05400
C 	C 	0.00800 0.37020 0.54290 -0.13400
C 	C 	0.02220 0.32050 0.50100 0.08600
C 	C 	0.31630 0.37650 0.41840 0.29200
C 	C 	0.00160 0.49010 0.71590 -0.01800
C 	C 	0.00190 0.44350 0.67140 -0.07100
C 	C 	0.08790 0.47730 0.58940 0.03700
C 	C 	0.16970 0.56150 0.55330 -0.12100
C 	C 	0.16650 0.60740 0.60100 0.06600
C 	C 	0.91670 0.45780 0.80420 0.28900
C 	C 	0.17570 0.12860 0.58870 0.09200
C 	C 	0.15320 0.06690 0.67580 -0.15800
C 	C 	0.06260 0.98910 0.72010 0.08700
C 	C 	0.99580 0.97410 0.68080 -0.14600
C 	C 	0.02010 0.04170 0.59210 0.07900
C 	C 	0.66780 0.46110 0.16140 -0.00300
C 	C 	0.69840 0.49890 0.07170 -0.08500
C 	C 	0.63950 0.54340 0.03190 0.05400
C 	C 	0.55090 0.54290 0.08690 -0.13400
C 	C 	0.52320 0.50100 0.17850 0.08600
C 	C 	0.73470 0.41840 0.20510 0.29200
C 	C 	0.71750 0.71590 0.79400 -0.01700
C 	C 	0.67330 0.67140 0.88510 -0.07000
C 	C 	0.67730 0.58940 0.93330 0.03700
C 	C 	0.72300 0.55330 0.88520 -0.12100
C 	C 	0.76750 0.60100 0.79160 0.06600
C 	C 	0.72090 0.80420 0.73800 0.28900
C 	C 	0.76440 0.58870 0.28270 0.09100
C 	C 	0.82900 0.67580 0.25730 -0.15700
C 	C 	0.78270 0.72010 0.29080 0.08600
C 	C 	0.67660 0.68080 0.34510 -0.14600
C 	C 	0.61220 0.59210 0.36620 0.08100
C 	C 	0.17080 0.83860 0.62250 -0.00200
C 	C 	0.22990 0.92830 0.57060 -0.08600
C 	C 	0.32860 0.96810 0.57530 0.05500
C 	C 	0.36220 0.91310 0.62980 -0.13400
C 	C 	0.29830 0.82150 0.67950 0.08600
C 	C 	0.06020 0.79490 0.62350 0.29200
C 	C 	0.48850 0.20600 0.50990 -0.01800
C 	C 	0.44160 0.11490 0.55650 -0.07000
C 	C 	0.38940 0.06670 0.52270 0.03600
C 	C 	0.39180 0.11480 0.43850 -0.12100
C 	C 	0.44090 0.20840 0.39260 0.06600
C 	C 	0.54110 0.26200 0.54220 0.28900
C 	C 	0.95290 0.71730 0.87140 0.09100
C 	C 	0.91370 0.74270 0.93310 -0.15500
C 	C 	0.92650 0.70920 0.01090 0.08400
C 	C 	0.97830 0.65490 0.02590 -0.14500
C 	C 	0.02160 0.63380 0.95830 0.08000
C 	C 	0.79330 0.62250 0.53890 -0.00300
C 	C 	0.80050 0.57060 0.50110 -0.08500
C 	C 	0.90390 0.57530 0.45660 0.05400
C 	C 	0.99200 0.62980 0.45710 -0.13400
C 	C 	0.97780 0.67950 0.49900 0.08600
C 	C 	0.68370 0.62350 0.58160 0.29200
C 	C 	0.99840 0.50990 0.28410 -0.01800
C 	C 	0.99810 0.55650 0.32860 -0.07100
C 	C 	0.91210 0.52270 0.41060 0.03700
C 	C 	0.83030 0.43850 0.44670 -0.12100
C 	C 	0.83350 0.39260 0.39900 0.06600
C 	C 	0.08330 0.54220 0.19580 0.28900
C 	C 	0.82430 0.87140 0.41130 0.09200
C 	C 	0.84680 0.93310 0.32420 -0.15800
C 	C 	0.93740 0.01090 0.27990 0.08700
C 	C 	0.00420 0.02590 0.31920 -0.14600
C 	C 	0.97990 0.95830 0.40790 0.07900
C 	C 	0.33220 0.53890 0.83860 -0.00300
C 	C 	0.30160 0.50110 0.92830 -0.08500
C 	C 	0.36050 0.45660 0.96810 0.05400
C 	C 	0.44910 0.45710 0.91310 -0.13400
C 	C 	0.47680 0.49900 0.82150 0.08600
C 	C 	0.26530 0.58160 0.79490 0.29200
C 	C 	0.28250 0.28410 0.20600 -0.01700
C 	C 	0.32670 0.32860 0.11490 -0.07000
C 	C 	0.32270 0.41060 0.06670 0.03700
C 	C 	0.27700 0.44670 0.11480 -0.12100
C 	C 	0.23250 0.39900 0.20840 0.06600
C 	C 	0.27910 0.19580 0.26200 0.28900
C 	C 	0.23560 0.41130 0.71730 0.09100
C 	C 	0.17100 0.32420 0.74270 -0.15700
C 	C 	0.21730 0.27990 0.70920 0.08600
C 	C 	0.32340 0.31920 0.65490 -0.14600
C 	C 	0.38780 0.40790 0.63380 0.08100
N 	N 	0.79510 0.21480 0.32350 -0.21300
N 	N 	0.51160 0.74670 0.57240 -0.20600
N 	N 	0.99340 0.33550 0.11690 -0.23300
N 	N 	0.11860 0.32350 0.46170 -0.21300
N 	N 	0.08400 0.57240 0.68090 -0.20600
N 	N 	0.11030 0.11690 0.54760 -0.23300
N 	N 	0.58030 0.46170 0.21480 -0.21300
N 	N 	0.76490 0.68090 0.74670 -0.20600
N 	N 	0.65790 0.54760 0.33550 -0.23300
N 	N 	0.20490 0.78520 0.67650 -0.21300
N 	N 	0.48840 0.25330 0.42760 -0.20600
N 	N 	0.00660 0.66450 0.88310 -0.23300
N 	N 	0.88140 0.67650 0.53830 -0.21300
N 	N 	0.91600 0.42760 0.31910 -0.20600
N 	N 	0.88970 0.88310 0.45240 -0.23300
N 	N 	0.41970 0.53830 0.78520 -0.21300
N 	N 	0.23510 0.31910 0.25330 -0.20600
N 	N 	0.34210 0.45240 0.66450 -0.23300
O 	O 	0.99610 0.28680 0.32050 -0.42000
O 	O 	0.96990 0.15670 0.43130 -0.39200
O 	O 	0.43230 0.65540 0.49850 -0.37900
O 	O 	0.44920 0.77880 0.38700 -0.23400
O 	O 	0.31660 0.32050 0.39270 -0.42000
O 	O 	0.40120 0.43130 0.41200 -0.39200
O 	O 	0.93080 0.49850 0.84610 -0.37900
O 	O 	0.83620 0.38700 0.83420 -0.23400
O 	O 	0.70930 0.39270 0.28680 -0.42000
O 	O 	0.81320 0.41200 0.15670 -0.39200
O 	O 	0.77690 0.84610 0.65540 -0.37900
O 	O 	0.67040 0.83420 0.77880 -0.23400
O 	O 	0.00390 0.71320 0.67950 -0.42000
O 	O 	0.03010 0.84330 0.56870 -0.39200
O 	O 	0.56770 0.34460 0.50150 -0.37900
O 	O 	0.55080 0.22120 0.61300 -0.23400
O 	O 	0.68340 0.67950 0.60730 -0.42000
O 	O 	0.59880 0.56870 0.58800 -0.39200
O 	O 	0.06920 0.50150 0.15390 -0.37900
O 	O 	0.16380 0.61300 0.16580 -0.23400
O 	O 	0.29070 0.60730 0.71320 -0.42000
O 	O 	0.18680 0.58800 0.84330 -0.39200
O 	O 	0.22310 0.15390 0.34460 -0.37900
O 	O 	0.32960 0.16580 0.22120 -0.23400
