data_crystal

_cell_length_a 15.84900
_cell_length_b 10.27100
_cell_length_c 21.17800
_cell_angle_alpha 90.00000
_cell_angle_beta  108.93600
_cell_angle_gamma 90.00000

_symmetry_space_group_name_	'P 1'
_symmetry_space_group_name_H-M	'P 1'

loop_
_symmetry_equiv_pos_as_xyz
  x,y,z

loop_
_atom_site_label
_atom_site_type_symbol
_atom_site_fract_x
_atom_site_fract_y
_atom_site_fract_z
_atom_site_charge
Eu	Eu	0.39256 0.54097 0.53338 2.06300
O 	O 	0.38980 0.66090 0.43530 -0.47000
C 	C 	0.41560 0.63180 0.38630 0.41800
C 	C 	0.35440 0.66040 0.31500 -0.08000
C 	C 	0.37180 0.60000 0.26140 0.00200
H 	H 	0.41930 0.54270 0.26850 0.05600
C 	C 	0.31670 0.62770 0.19790 -0.03900
C 	C 	0.24820 0.71560 0.18680 -0.06800
H 	H 	0.21270 0.73300 0.14310 0.07000
C 	C 	0.22980 0.78140 0.24090 0.06700
C 	C 	0.28510 0.74690 0.30630 -0.05100
H 	H 	0.27440 0.78290 0.34320 0.06400
C 	C 	0.33620 0.56510 0.13900 0.30200
C 	C 	0.11080 0.91760 0.16470 -0.18200
H 	H 	0.14870 0.91220 0.13680 0.08900
H 	H 	0.09700 0.00890 0.16800 0.08600
C 	C 	0.02690 0.84820 0.13070 0.13100
C 	C 	0.00330 0.73110 0.15320 -0.16800
H 	H 	0.04110 0.69400 0.19220 0.09800
C 	C 	0.92370 0.66800 0.11830 0.06400
H 	H 	0.91030 0.58860 0.13390 0.02300
C 	C 	0.86360 0.72140 0.06030 -0.12000
C 	C 	0.88350 0.84360 0.03940 0.05900
H 	H 	0.84250 0.88450 0.00310 0.02400
C 	C 	0.96450 0.90430 0.07270 -0.16700
H 	H 	0.97810 0.98320 0.05670 0.08400
C 	C 	0.78050 0.65580 0.02380 0.31000
C 	C 	0.14870 0.94110 0.28720 -0.20100
H 	H 	0.14650 0.87850 0.32090 0.09700
H 	H 	0.09130 0.98460 0.27170 0.09200
C 	C 	0.22050 0.04220 0.31960 0.18400
C 	C 	0.21810 0.10870 0.37460 -0.23600
H 	H 	0.17180 0.09250 0.39150 0.11400
C 	C 	0.28210 0.19910 0.40590 0.15100
H 	H 	0.27620 0.24630 0.44170 -0.01700
C 	C 	0.35570 0.22130 0.38480 -0.20200
C 	C 	0.35610 0.15630 0.32510 0.13100
H 	H 	0.40120 0.17280 0.30700 0.00600
C 	C 	0.28960 0.06960 0.29480 -0.21600
H 	H 	0.29080 0.02760 0.25620 0.12000
C 	C 	0.43410 0.30480 0.42130 0.45800
N 	N 	0.16190 0.87110 0.23150 -0.07700
O 	O 	0.36900 0.45620 0.14500 -0.38700
O 	O 	0.31640 0.62880 0.08330 -0.37700
O 	O 	0.76630 0.53860 0.03980 -0.39500
O 	O 	0.71960 0.71450 0.97710 -0.39000
O 	O 	0.42350 0.38420 0.46430 -0.56600
O 	O 	0.50690 0.29020 0.40990 -0.46600
O 	O 	0.49100 0.58030 0.39150 -0.48000
Eu	Eu	0.60744 0.54097 0.96662 2.06200
O 	O 	0.61020 0.66090 0.06470 -0.47100
C 	C 	0.58440 0.63180 0.11370 0.41700
C 	C 	0.64560 0.66040 0.18500 -0.08100
C 	C 	0.62820 0.60000 0.23860 0.00100
H 	H 	0.58070 0.54270 0.23150 0.05500
C 	C 	0.68330 0.62770 0.30210 -0.04000
C 	C 	0.75180 0.71560 0.31320 -0.06900
H 	H 	0.78730 0.73300 0.35690 0.06900
C 	C 	0.77020 0.78140 0.25910 0.06600
C 	C 	0.71490 0.74690 0.19370 -0.05100
H 	H 	0.72560 0.78290 0.15680 0.06400
C 	C 	0.66380 0.56510 0.36100 0.30200
C 	C 	0.88920 0.91760 0.33530 -0.18200
H 	H 	0.85130 0.91220 0.36320 0.08900
H 	H 	0.90300 0.00890 0.33200 0.08700
C 	C 	0.97310 0.84820 0.36930 0.13200
C 	C 	0.99670 0.73110 0.34680 -0.16700
H 	H 	0.95890 0.69400 0.30780 0.09700
C 	C 	0.07630 0.66800 0.38170 0.06100
H 	H 	0.08970 0.58860 0.36610 0.02300
C 	C 	0.13640 0.72140 0.43970 -0.12000
C 	C 	0.11650 0.84360 0.46060 0.05900
H 	H 	0.15750 0.88450 0.49690 0.02400
C 	C 	0.03550 0.90430 0.42730 -0.16800
H 	H 	0.02190 0.98320 0.44330 0.08400
C 	C 	0.21950 0.65580 0.47620 0.30900
C 	C 	0.85130 0.94110 0.21280 -0.20100
H 	H 	0.85350 0.87850 0.17910 0.09800
H 	H 	0.90870 0.98460 0.22830 0.09200
C 	C 	0.77950 0.04220 0.18040 0.18300
C 	C 	0.78190 0.10870 0.12540 -0.23600
H 	H 	0.82820 0.09250 0.10850 0.11400
C 	C 	0.71790 0.19910 0.09410 0.15100
H 	H 	0.72380 0.24630 0.05830 -0.01700
C 	C 	0.64430 0.22130 0.11520 -0.20200
C 	C 	0.64390 0.15630 0.17490 0.13100
H 	H 	0.59880 0.17280 0.19300 0.00600
C 	C 	0.71040 0.06960 0.20520 -0.21600
H 	H 	0.70920 0.02760 0.24380 0.12000
C 	C 	0.56590 0.30480 0.07870 0.45800
N 	N 	0.83810 0.87110 0.26850 -0.07700
O 	O 	0.63100 0.45620 0.35500 -0.38700
O 	O 	0.68360 0.62880 0.41670 -0.37700
O 	O 	0.23370 0.53860 0.46020 -0.39500
O 	O 	0.28040 0.71450 0.52290 -0.38900
O 	O 	0.57650 0.38420 0.03570 -0.56500
O 	O 	0.49310 0.29020 0.09010 -0.46600
O 	O 	0.50900 0.58030 0.10850 -0.48000
Eu	Eu	0.60744 0.45903 0.46662 2.06200
O 	O 	0.61020 0.33910 0.56470 -0.47100
C 	C 	0.58440 0.36820 0.61370 0.41700
C 	C 	0.64560 0.33960 0.68500 -0.08100
C 	C 	0.62820 0.40000 0.73860 0.00100
H 	H 	0.58070 0.45730 0.73150 0.05500
C 	C 	0.68330 0.37230 0.80210 -0.04000
C 	C 	0.75180 0.28440 0.81320 -0.06900
H 	H 	0.78730 0.26700 0.85690 0.06900
C 	C 	0.77020 0.21860 0.75910 0.06600
C 	C 	0.71490 0.25310 0.69370 -0.05100
H 	H 	0.72560 0.21710 0.65680 0.06400
C 	C 	0.66380 0.43490 0.86100 0.30200
C 	C 	0.88920 0.08240 0.83530 -0.18200
H 	H 	0.85130 0.08780 0.86320 0.08900
H 	H 	0.90300 0.99110 0.83200 0.08600
C 	C 	0.97310 0.15180 0.86930 0.13100
C 	C 	0.99670 0.26890 0.84680 -0.16800
H 	H 	0.95890 0.30600 0.80780 0.09800
C 	C 	0.07630 0.33200 0.88170 0.06400
H 	H 	0.08970 0.41140 0.86610 0.02300
C 	C 	0.13640 0.27860 0.93970 -0.12000
C 	C 	0.11650 0.15640 0.96060 0.05900
H 	H 	0.15750 0.11550 0.99690 0.02400
C 	C 	0.03550 0.09570 0.92730 -0.16700
H 	H 	0.02190 0.01680 0.94330 0.08400
C 	C 	0.21950 0.34420 0.97620 0.31000
C 	C 	0.85130 0.05890 0.71280 -0.20100
H 	H 	0.85350 0.12150 0.67910 0.09700
H 	H 	0.90870 0.01540 0.72830 0.09200
C 	C 	0.77950 0.95780 0.68040 0.18400
C 	C 	0.78190 0.89130 0.62540 -0.23600
H 	H 	0.82820 0.90750 0.60850 0.11400
C 	C 	0.71790 0.80090 0.59410 0.15100
H 	H 	0.72380 0.75370 0.55830 -0.01700
C 	C 	0.64430 0.77870 0.61520 -0.20200
C 	C 	0.64390 0.84370 0.67490 0.13100
H 	H 	0.59880 0.82720 0.69300 0.00600
C 	C 	0.71040 0.93040 0.70520 -0.21600
H 	H 	0.70920 0.97240 0.74380 0.12000
C 	C 	0.56590 0.69520 0.57870 0.45800
N 	N 	0.83810 0.12890 0.76850 -0.07700
O 	O 	0.63100 0.54380 0.85500 -0.38700
O 	O 	0.68360 0.37120 0.91670 -0.37700
O 	O 	0.23370 0.46140 0.96020 -0.39500
O 	O 	0.28040 0.28550 0.02290 -0.39000
O 	O 	0.57650 0.61580 0.53570 -0.56600
O 	O 	0.49310 0.70980 0.59010 -0.46600
O 	O 	0.50900 0.41970 0.60850 -0.48000
Eu	Eu	0.39256 0.45903 0.03338 2.06200
O 	O 	0.38980 0.33910 0.93530 -0.47100
C 	C 	0.41560 0.36820 0.88630 0.41700
C 	C 	0.35440 0.33960 0.81500 -0.08100
C 	C 	0.37180 0.40000 0.76140 0.00100
H 	H 	0.41930 0.45730 0.76850 0.05500
C 	C 	0.31670 0.37230 0.69790 -0.04000
C 	C 	0.24820 0.28440 0.68680 -0.06900
H 	H 	0.21270 0.26700 0.64310 0.06900
C 	C 	0.22980 0.21860 0.74090 0.06600
C 	C 	0.28510 0.25310 0.80630 -0.05100
H 	H 	0.27440 0.21710 0.84320 0.06400
C 	C 	0.33620 0.43490 0.63900 0.30200
C 	C 	0.11080 0.08240 0.66470 -0.18200
H 	H 	0.14870 0.08780 0.63680 0.08900
H 	H 	0.09700 0.99110 0.66800 0.08700
C 	C 	0.02690 0.15180 0.63070 0.13200
C 	C 	0.00330 0.26890 0.65320 -0.16700
H 	H 	0.04110 0.30600 0.69220 0.09700
C 	C 	0.92370 0.33200 0.61830 0.06100
H 	H 	0.91030 0.41140 0.63390 0.02300
C 	C 	0.86360 0.27860 0.56030 -0.12000
C 	C 	0.88350 0.15640 0.53940 0.05900
H 	H 	0.84250 0.11550 0.50310 0.02400
C 	C 	0.96450 0.09570 0.57270 -0.16800
H 	H 	0.97810 0.01680 0.55670 0.08400
C 	C 	0.78050 0.34420 0.52380 0.30900
C 	C 	0.14870 0.05890 0.78720 -0.20100
H 	H 	0.14650 0.12150 0.82090 0.09800
H 	H 	0.09130 0.01540 0.77170 0.09200
C 	C 	0.22050 0.95780 0.81960 0.18300
C 	C 	0.21810 0.89130 0.87460 -0.23600
H 	H 	0.17180 0.90750 0.89150 0.11400
C 	C 	0.28210 0.80090 0.90590 0.15100
H 	H 	0.27620 0.75370 0.94170 -0.01700
C 	C 	0.35570 0.77870 0.88480 -0.20200
C 	C 	0.35610 0.84370 0.82510 0.13100
H 	H 	0.40120 0.82720 0.80700 0.00600
C 	C 	0.28960 0.93040 0.79480 -0.21600
H 	H 	0.29080 0.97240 0.75620 0.12000
C 	C 	0.43410 0.69520 0.92130 0.45800
N 	N 	0.16190 0.12890 0.73150 -0.07700
O 	O 	0.36900 0.54380 0.64500 -0.38700
O 	O 	0.31640 0.37120 0.58330 -0.37700
O 	O 	0.76630 0.46140 0.53980 -0.39500
O 	O 	0.71960 0.28550 0.47710 -0.38900
O 	O 	0.42350 0.61580 0.96430 -0.56500
O 	O 	0.50690 0.70980 0.90990 -0.46600
O 	O 	0.49100 0.41970 0.89150 -0.48000
