data_crystal

_cell_length_a 15.17500
_cell_length_b 10.92700
_cell_length_c 20.71800
_cell_angle_alpha 90.00000
_cell_angle_beta  108.44100
_cell_angle_gamma 90.00000

_symmetry_space_group_name_	'P 1'
_symmetry_space_group_name_H-M	'P 1'

loop_
_symmetry_equiv_pos_as_xyz
  x,y,z

loop_
_atom_site_label
_atom_site_type_symbol
_atom_site_fract_x
_atom_site_fract_y
_atom_site_fract_z
_atom_site_charge
Tb	Tb	0.61369 0.03561 0.96709 2.02000
C 	C 	0.78590 0.14920 0.02410 0.34100
C 	C 	0.87090 0.21950 0.06250 -0.13400
C 	C 	0.93010 0.17630 0.12340 0.08400
H 	H 	0.91710 0.10270 0.14110 0.01800
C 	C 	0.89060 0.33090 0.03750 0.08100
H 	H 	0.85040 0.36180 0.99700 0.01500
C 	C 	0.96970 0.39630 0.07230 -0.18600
H 	H 	0.98220 0.47080 0.05520 0.09000
C 	C 	0.03070 0.35060 0.13310 0.14300
C 	C 	0.00860 0.24150 0.15820 -0.18600
H 	H 	0.04740 0.21150 0.19940 0.10500
C 	C 	0.11560 0.42490 0.16990 -0.18500
H 	H 	0.15610 0.42770 0.14190 0.09100
H 	H 	0.09610 0.50810 0.17450 0.08800
C 	C 	0.23410 0.28900 0.24490 0.05700
C 	C 	0.24850 0.22950 0.18860 -0.06100
H 	H 	0.21270 0.25160 0.14480 0.06800
C 	C 	0.29010 0.25110 0.31070 -0.03500
H 	H 	0.28060 0.28570 0.34900 0.05800
C 	C 	0.35830 0.16380 0.31860 -0.10700
C 	C 	0.41770 0.12730 0.38900 0.46300
C 	C 	0.37240 0.10690 0.26270 0.02000
H 	H 	0.41910 0.04890 0.26860 0.05200
C 	C 	0.31500 0.13860 0.19750 -0.05300
C 	C 	0.32800 0.07470 0.13650 0.31900
C 	C 	0.15560 0.44330 0.29520 -0.22200
H 	H 	0.15600 0.38300 0.32970 0.10400
H 	H 	0.09500 0.48200 0.28110 0.09700
C 	C 	0.22870 0.53990 0.32680 0.21600
C 	C 	0.21730 0.61540 0.37700 -0.26700
H 	H 	0.16530 0.60500 0.39100 0.12300
C 	C 	0.30710 0.55650 0.30900 -0.26300
H 	H 	0.31690 0.50680 0.27550 0.13600
C 	C 	0.27990 0.70500 0.40670 0.18900
H 	H 	0.26840 0.75670 0.43880 -0.02600
C 	C 	0.37200 0.64430 0.33890 0.18600
H 	H 	0.42420 0.65310 0.32500 -0.01100
C 	C 	0.36100 0.71970 0.38930 -0.25100
C 	C 	0.43270 0.81320 0.42300 0.51900
N 	N 	0.16890 0.38060 0.23680 -0.07200
O 	O 	0.72580 0.19790 0.97420 -0.40200
O 	O 	0.77480 0.04240 0.04290 -0.40200
O 	O 	0.30750 0.12750 0.08000 -0.38200
O 	O 	0.36110 0.96850 0.14360 -0.39000
O 	O 	0.49310 0.07590 0.39290 -0.49800
O 	O 	0.38920 0.15270 0.43760 -0.49000
O 	O 	0.50830 0.81070 0.41190 -0.49200
O 	O 	0.41300 0.88910 0.46230 -0.57000
Tb	Tb	0.38631 0.03561 0.53291 2.02800
C 	C 	0.21410 0.14920 0.47590 0.33400
C 	C 	0.12910 0.21950 0.43750 -0.12900
C 	C 	0.06990 0.17630 0.37660 0.07700
H 	H 	0.08290 0.10270 0.35890 0.01900
C 	C 	0.10940 0.33090 0.46250 0.07300
H 	H 	0.14960 0.36180 0.50300 0.02000
C 	C 	0.03030 0.39630 0.42770 -0.18200
H 	H 	0.01780 0.47080 0.44480 0.08800
C 	C 	0.96930 0.35060 0.36690 0.14100
C 	C 	0.99140 0.24150 0.34180 -0.18000
H 	H 	0.95260 0.21150 0.30060 0.10300
C 	C 	0.88440 0.42490 0.33010 -0.18400
H 	H 	0.84390 0.42770 0.35810 0.09000
H 	H 	0.90390 0.50810 0.32550 0.08800
C 	C 	0.76590 0.28900 0.25510 0.05800
C 	C 	0.75150 0.22950 0.31140 -0.06200
H 	H 	0.78730 0.25160 0.35520 0.06800
C 	C 	0.70990 0.25110 0.18930 -0.03600
H 	H 	0.71940 0.28570 0.15100 0.05900
C 	C 	0.64170 0.16380 0.18140 -0.10600
C 	C 	0.58230 0.12730 0.11100 0.46200
C 	C 	0.62760 0.10690 0.23730 0.01900
H 	H 	0.58090 0.04890 0.23140 0.05200
C 	C 	0.68500 0.13860 0.30250 -0.05200
C 	C 	0.67200 0.07470 0.36350 0.31700
C 	C 	0.84440 0.44330 0.20480 -0.22200
H 	H 	0.84400 0.38300 0.17030 0.10400
H 	H 	0.90500 0.48200 0.21890 0.09800
C 	C 	0.77130 0.53990 0.17320 0.21600
C 	C 	0.78270 0.61540 0.12300 -0.26700
H 	H 	0.83470 0.60500 0.10900 0.12300
C 	C 	0.69290 0.55650 0.19100 -0.26300
H 	H 	0.68310 0.50680 0.22450 0.13600
C 	C 	0.72010 0.70500 0.09330 0.18900
H 	H 	0.73160 0.75670 0.06120 -0.02600
C 	C 	0.62800 0.64430 0.16110 0.18600
H 	H 	0.57580 0.65310 0.17500 -0.01100
C 	C 	0.63900 0.71970 0.11070 -0.25100
C 	C 	0.56730 0.81320 0.07700 0.51800
N 	N 	0.83110 0.38060 0.26320 -0.07200
O 	O 	0.27420 0.19790 0.52580 -0.39900
O 	O 	0.22520 0.04240 0.45710 -0.40300
O 	O 	0.69250 0.12750 0.42000 -0.38400
O 	O 	0.63890 0.96850 0.35640 -0.38900
O 	O 	0.50690 0.07590 0.10710 -0.49500
O 	O 	0.61080 0.15270 0.06240 -0.48700
O 	O 	0.49170 0.81070 0.08810 -0.49200
O 	O 	0.58700 0.88910 0.03770 -0.57100
Tb	Tb	0.38631 0.96439 0.03291 2.01900
C 	C 	0.21410 0.85080 0.97590 0.34000
C 	C 	0.12910 0.78050 0.93750 -0.13400
C 	C 	0.06990 0.82370 0.87660 0.08400
H 	H 	0.08290 0.89730 0.85890 0.01800
C 	C 	0.10940 0.66910 0.96250 0.08100
H 	H 	0.14960 0.63820 0.00300 0.01500
C 	C 	0.03030 0.60370 0.92770 -0.18600
H 	H 	0.01780 0.52920 0.94480 0.09000
C 	C 	0.96930 0.64940 0.86690 0.14300
C 	C 	0.99140 0.75850 0.84180 -0.18600
H 	H 	0.95260 0.78850 0.80060 0.10500
C 	C 	0.88440 0.57510 0.83010 -0.18500
H 	H 	0.84390 0.57230 0.85810 0.09100
H 	H 	0.90390 0.49190 0.82550 0.08800
C 	C 	0.76590 0.71100 0.75510 0.05700
C 	C 	0.75150 0.77050 0.81140 -0.06100
H 	H 	0.78730 0.74840 0.85520 0.06800
C 	C 	0.70990 0.74890 0.68930 -0.03500
H 	H 	0.71940 0.71430 0.65100 0.05800
C 	C 	0.64170 0.83620 0.68140 -0.10700
C 	C 	0.58230 0.87270 0.61100 0.46300
C 	C 	0.62760 0.89310 0.73730 0.02000
H 	H 	0.58090 0.95110 0.73140 0.05200
C 	C 	0.68500 0.86140 0.80250 -0.05300
C 	C 	0.67200 0.92530 0.86350 0.31900
C 	C 	0.84440 0.55670 0.70480 -0.22200
H 	H 	0.84400 0.61700 0.67030 0.10400
H 	H 	0.90500 0.51800 0.71890 0.09700
C 	C 	0.77130 0.46010 0.67320 0.21600
C 	C 	0.78270 0.38460 0.62300 -0.26700
H 	H 	0.83470 0.39500 0.60900 0.12300
C 	C 	0.69290 0.44350 0.69100 -0.26300
H 	H 	0.68310 0.49320 0.72450 0.13600
C 	C 	0.72010 0.29500 0.59330 0.18900
H 	H 	0.73160 0.24330 0.56120 -0.02600
C 	C 	0.62800 0.35570 0.66110 0.18600
H 	H 	0.57580 0.34690 0.67500 -0.01100
C 	C 	0.63900 0.28030 0.61070 -0.25100
C 	C 	0.56730 0.18680 0.57700 0.51900
N 	N 	0.83110 0.61940 0.76320 -0.07200
O 	O 	0.27420 0.80210 0.02580 -0.40200
O 	O 	0.22520 0.95760 0.95710 -0.40200
O 	O 	0.69250 0.87250 0.92000 -0.38200
O 	O 	0.63890 0.03150 0.85640 -0.39000
O 	O 	0.50690 0.92410 0.60710 -0.49800
O 	O 	0.61080 0.84730 0.56240 -0.49000
O 	O 	0.49170 0.18930 0.58810 -0.49200
O 	O 	0.58700 0.11090 0.53770 -0.57000
Tb	Tb	0.61369 0.96439 0.46709 2.02800
C 	C 	0.78590 0.85080 0.52410 0.33400
C 	C 	0.87090 0.78050 0.56250 -0.12900
C 	C 	0.93010 0.82370 0.62340 0.07700
H 	H 	0.91710 0.89730 0.64110 0.01900
C 	C 	0.89060 0.66910 0.53750 0.07300
H 	H 	0.85040 0.63820 0.49700 0.02000
C 	C 	0.96970 0.60370 0.57230 -0.18200
H 	H 	0.98220 0.52920 0.55520 0.08800
C 	C 	0.03070 0.64940 0.63310 0.14100
C 	C 	0.00860 0.75850 0.65820 -0.18000
H 	H 	0.04740 0.78850 0.69940 0.10300
C 	C 	0.11560 0.57510 0.66990 -0.18400
H 	H 	0.15610 0.57230 0.64190 0.09000
H 	H 	0.09610 0.49190 0.67450 0.08800
C 	C 	0.23410 0.71100 0.74490 0.05800
C 	C 	0.24850 0.77050 0.68860 -0.06200
H 	H 	0.21270 0.74840 0.64480 0.06800
C 	C 	0.29010 0.74890 0.81070 -0.03600
H 	H 	0.28060 0.71430 0.84900 0.05900
C 	C 	0.35830 0.83620 0.81860 -0.10600
C 	C 	0.41770 0.87270 0.88900 0.46200
C 	C 	0.37240 0.89310 0.76270 0.01900
H 	H 	0.41910 0.95110 0.76860 0.05200
C 	C 	0.31500 0.86140 0.69750 -0.05200
C 	C 	0.32800 0.92530 0.63650 0.31700
C 	C 	0.15560 0.55670 0.79520 -0.22200
H 	H 	0.15600 0.61700 0.82970 0.10400
H 	H 	0.09500 0.51800 0.78110 0.09800
C 	C 	0.22870 0.46010 0.82680 0.21600
C 	C 	0.21730 0.38460 0.87700 -0.26700
H 	H 	0.16530 0.39500 0.89100 0.12300
C 	C 	0.30710 0.44350 0.80900 -0.26300
H 	H 	0.31690 0.49320 0.77550 0.13600
C 	C 	0.27990 0.29500 0.90670 0.18900
H 	H 	0.26840 0.24330 0.93880 -0.02600
C 	C 	0.37200 0.35570 0.83890 0.18600
H 	H 	0.42420 0.34690 0.82500 -0.01100
C 	C 	0.36100 0.28030 0.88930 -0.25100
C 	C 	0.43270 0.18680 0.92300 0.51800
N 	N 	0.16890 0.61940 0.73680 -0.07200
O 	O 	0.72580 0.80210 0.47420 -0.39900
O 	O 	0.77480 0.95760 0.54290 -0.40300
O 	O 	0.30750 0.87250 0.58000 -0.38400
O 	O 	0.36110 0.03150 0.64360 -0.38900
O 	O 	0.49310 0.92410 0.89290 -0.49500
O 	O 	0.38920 0.84730 0.93760 -0.48700
O 	O 	0.50830 0.18930 0.91190 -0.49200
O 	O 	0.41300 0.11090 0.96230 -0.57100
