data_crystal

_cell_length_a 12.98360
_cell_length_b 12.98360
_cell_length_c 23.94100
_cell_angle_alpha 90.00000
_cell_angle_beta  90.00000
_cell_angle_gamma 94.68350

_symmetry_space_group_name_	'P 1'
_symmetry_space_group_name_H-M	'P 1'

loop_
_symmetry_equiv_pos_as_xyz
  x,y,z

loop_
_atom_site_label
_atom_site_type_symbol
_atom_site_fract_x
_atom_site_fract_y
_atom_site_fract_z
_atom_site_charge
Zn	Zn	0.16145 0.99729 0.39821 1.22100
Zn	Zn	0.33855 0.50271 0.89821 1.21900
Zn	Zn	0.49729 0.66145 0.10179 1.21700
Zn	Zn	0.00271 0.83855 0.60179 1.21400
Zn	Zn	0.83855 0.00271 0.60179 1.21500
Zn	Zn	0.66145 0.49729 0.10179 1.21800
Zn	Zn	0.50271 0.33855 0.89821 1.22000
Zn	Zn	0.99729 0.16145 0.39821 1.22200
Zn	Zn	0.18096 0.18096 0.48018 1.22300
Zn	Zn	0.31904 0.31904 0.98018 1.23300
Zn	Zn	0.68096 0.68096 0.01982 1.21500
Zn	Zn	0.81904 0.81904 0.51982 1.22600
Zn	Zn	-0.00000 0.00000 0.50000 1.19900
Zn	Zn	0.50000 0.50000 -0.00000 1.19600
H 	H 	0.92770 0.65310 0.43610 0.02500
H 	H 	0.93010 0.47590 0.42740 0.05900
H 	H 	0.26090 0.42250 0.39500 0.07600
H 	H 	0.41110 0.52610 0.38200 0.04100
H 	H 	0.41050 0.70350 0.39100 0.04200
H 	H 	0.25430 0.77470 0.40130 0.08900
H 	H 	0.57230 0.84690 0.93610 0.05900
H 	H 	0.56990 0.02410 0.92740 0.01900
H 	H 	0.23910 0.07750 0.89500 0.11700
H 	H 	0.08890 0.97390 0.88200 0.00400
H 	H 	0.08950 0.79650 0.89100 0.07300
H 	H 	0.24570 0.72530 0.90130 0.06100
H 	H 	0.15310 0.42770 0.06390 0.00300
H 	H 	0.97590 0.43010 0.07260 0.09300
H 	H 	0.92250 0.76090 0.10500 0.03900
H 	H 	0.02610 0.91110 0.11800 0.07200
H 	H 	0.20350 0.91050 0.10900 0.01400
H 	H 	0.27470 0.75430 0.09870 0.11100
H 	H 	0.34690 0.07230 0.56390 0.03300
H 	H 	0.52410 0.06990 0.57260 0.06100
H 	H 	0.57750 0.73910 0.60500 0.07800
H 	H 	0.47390 0.58890 0.61800 0.03800
H 	H 	0.29650 0.58950 0.60900 0.04400
H 	H 	0.22530 0.74570 0.59870 0.08500
H 	H 	0.07230 0.34690 0.56390 0.03300
H 	H 	0.06990 0.52410 0.57260 0.06100
H 	H 	0.73910 0.57750 0.60500 0.07800
H 	H 	0.58890 0.47390 0.61800 0.03800
H 	H 	0.58950 0.29650 0.60900 0.04400
H 	H 	0.74570 0.22530 0.59870 0.08500
H 	H 	0.42770 0.15310 0.06390 0.00300
H 	H 	0.43010 0.97590 0.07260 0.09300
H 	H 	0.76090 0.92250 0.10500 0.03900
H 	H 	0.91110 0.02610 0.11800 0.07200
H 	H 	0.91050 0.20350 0.10900 0.01400
H 	H 	0.75430 0.27470 0.09870 0.11100
H 	H 	0.84690 0.57230 0.93610 0.05900
H 	H 	0.02410 0.56990 0.92740 0.01900
H 	H 	0.07750 0.23910 0.89500 0.11700
H 	H 	0.97390 0.08890 0.88200 0.00400
H 	H 	0.79650 0.08950 0.89100 0.07300
H 	H 	0.72530 0.24570 0.90130 0.06100
H 	H 	0.65310 0.92770 0.43610 0.02500
H 	H 	0.47590 0.93010 0.42740 0.05900
H 	H 	0.42250 0.26090 0.39500 0.07600
H 	H 	0.52610 0.41110 0.38200 0.04100
H 	H 	0.70350 0.41050 0.39100 0.04200
H 	H 	0.77470 0.25430 0.40130 0.08900
H 	H 	0.04750 0.04750 0.20310 0.02400
H 	H 	0.09370 0.09370 0.11180 0.04900
H 	H 	0.35360 0.35360 0.13260 0.08100
H 	H 	0.43330 0.43330 0.20750 0.03000
H 	H 	0.38370 0.38370 0.29770 0.04200
H 	H 	0.25650 0.25650 0.31290 0.05000
H 	H 	0.45250 0.45250 0.70310 0.03000
H 	H 	0.40630 0.40630 0.61180 0.05500
H 	H 	0.14640 0.14640 0.63260 0.07900
H 	H 	0.06670 0.06670 0.70750 0.02300
H 	H 	0.11630 0.11630 0.79770 0.03900
H 	H 	0.24350 0.24350 0.81290 0.04800
H 	H 	0.54750 0.54750 0.29690 0.02900
H 	H 	0.59370 0.59370 0.38820 0.05500
H 	H 	0.85360 0.85360 0.36740 0.08400
H 	H 	0.93330 0.93330 0.29250 0.03800
H 	H 	0.88370 0.88370 0.20230 0.04600
H 	H 	0.75650 0.75650 0.18710 0.05300
H 	H 	0.95250 0.95250 0.79690 0.03800
H 	H 	0.90630 0.90630 0.88820 0.06400
H 	H 	0.64640 0.64640 0.86740 0.08000
H 	H 	0.56670 0.56670 0.79250 0.03000
H 	H 	0.61630 0.61630 0.70230 0.04200
H 	H 	0.74350 0.74350 0.68710 0.05100
C 	C 	0.07850 0.68850 0.43060 -0.15900
C 	C 	0.99090 0.62470 0.43220 0.04100
C 	C 	0.99210 0.51730 0.42830 -0.01900
C 	C 	0.08460 0.47260 0.42570 -0.10200
C 	C 	0.17960 0.53660 0.42640 0.04200
C 	C 	0.26400 0.49280 0.40300 -0.06900
C 	C 	0.35060 0.55500 0.39220 -0.02700
C 	C 	0.34980 0.66140 0.39610 -0.00400
C 	C 	0.25890 0.70450 0.40760 -0.10500
C 	C 	0.17640 0.64660 0.42800 0.07700
C 	C 	0.07100 0.80260 0.43100 0.43100
C 	C 	0.07920 0.35640 0.42470 0.38100
C 	C 	0.42150 0.81150 0.93060 -0.08200
C 	C 	0.50910 0.87530 0.93220 -0.04900
C 	C 	0.50790 0.98270 0.92830 0.08200
C 	C 	0.41540 0.02740 0.92570 -0.17600
C 	C 	0.32040 0.96340 0.92640 0.14600
C 	C 	0.23600 0.00720 0.90300 -0.18600
C 	C 	0.14940 0.94500 0.89220 0.08400
C 	C 	0.15020 0.83860 0.89610 -0.09300
C 	C 	0.24110 0.79550 0.90760 -0.01900
C 	C 	0.32360 0.85340 0.92800 0.00200
C 	C 	0.42900 0.69740 0.93100 0.40500
C 	C 	0.42080 0.14360 0.92470 0.42300
C 	C 	0.18850 0.57850 0.06940 -0.19200
C 	C 	0.12470 0.49090 0.06780 0.08200
C 	C 	0.01730 0.49210 0.07170 -0.11900
C 	C 	0.97260 0.58460 0.07430 -0.02400
C 	C 	0.03660 0.67960 0.07360 -0.05100
C 	C 	0.99280 0.76400 0.09700 0.04000
C 	C 	0.05500 0.85060 0.10780 -0.12800
C 	C 	0.16140 0.84980 0.10390 0.07200
C 	C 	0.20450 0.75890 0.09240 -0.17600
C 	C 	0.14660 0.67640 0.07200 0.13400
C 	C 	0.30260 0.57100 0.06900 0.44400
C 	C 	0.85640 0.57920 0.07530 0.36500
C 	C 	0.31150 0.92150 0.56940 -0.12300
C 	C 	0.37530 0.00910 0.56780 0.00400
C 	C 	0.48270 0.00790 0.57170 -0.03500
C 	C 	0.52740 0.91540 0.57430 -0.08800
C 	C 	0.46340 0.82040 0.57360 0.04700
C 	C 	0.50720 0.73600 0.59700 -0.07300
C 	C 	0.44500 0.64940 0.60780 -0.02000
C 	C 	0.33860 0.65020 0.60390 -0.01200
C 	C 	0.29550 0.74110 0.59240 -0.09400
C 	C 	0.35340 0.82360 0.57200 0.06500
C 	C 	0.19740 0.92900 0.56900 0.42200
C 	C 	0.64360 0.92080 0.57530 0.40600
C 	C 	0.92150 0.31150 0.56940 -0.12300
C 	C 	0.00910 0.37530 0.56780 0.00400
C 	C 	0.00790 0.48270 0.57170 -0.03500
C 	C 	0.91540 0.52740 0.57430 -0.08800
C 	C 	0.82040 0.46340 0.57360 0.04700
C 	C 	0.73600 0.50720 0.59700 -0.07300
C 	C 	0.64940 0.44500 0.60780 -0.02000
C 	C 	0.65020 0.33860 0.60390 -0.01200
C 	C 	0.74110 0.29550 0.59240 -0.09400
C 	C 	0.82360 0.35340 0.57200 0.06500
C 	C 	0.92900 0.19740 0.56900 0.42200
C 	C 	0.92080 0.64360 0.57530 0.40600
C 	C 	0.57850 0.18850 0.06940 -0.19200
C 	C 	0.49090 0.12470 0.06780 0.08200
C 	C 	0.49210 0.01730 0.07170 -0.11900
C 	C 	0.58460 0.97260 0.07430 -0.02400
C 	C 	0.67960 0.03660 0.07360 -0.05100
C 	C 	0.76400 0.99280 0.09700 0.04000
C 	C 	0.85060 0.05500 0.10780 -0.12800
C 	C 	0.84980 0.16140 0.10390 0.07200
C 	C 	0.75890 0.20450 0.09240 -0.17600
C 	C 	0.67640 0.14660 0.07200 0.13400
C 	C 	0.57100 0.30260 0.06900 0.44400
C 	C 	0.57920 0.85640 0.07530 0.36500
C 	C 	0.81150 0.42150 0.93060 -0.08200
C 	C 	0.87530 0.50910 0.93220 -0.04900
C 	C 	0.98270 0.50790 0.92830 0.08200
C 	C 	0.02740 0.41540 0.92570 -0.17600
C 	C 	0.96340 0.32040 0.92640 0.14600
C 	C 	0.00720 0.23600 0.90300 -0.18600
C 	C 	0.94500 0.14940 0.89220 0.08400
C 	C 	0.83860 0.15020 0.89610 -0.09300
C 	C 	0.79550 0.24110 0.90760 -0.01900
C 	C 	0.85340 0.32360 0.92800 0.00200
C 	C 	0.69740 0.42900 0.93100 0.40500
C 	C 	0.14360 0.42080 0.92470 0.42300
C 	C 	0.68850 0.07850 0.43060 -0.15900
C 	C 	0.62470 0.99090 0.43220 0.04100
C 	C 	0.51730 0.99210 0.42830 -0.01900
C 	C 	0.47260 0.08460 0.42570 -0.10200
C 	C 	0.53660 0.17960 0.42640 0.04200
C 	C 	0.49280 0.26400 0.40300 -0.06900
C 	C 	0.55500 0.35060 0.39220 -0.02700
C 	C 	0.66140 0.34980 0.39610 -0.00400
C 	C 	0.70450 0.25890 0.40760 -0.10500
C 	C 	0.64660 0.17640 0.42800 0.07700
C 	C 	0.80260 0.07100 0.43100 0.43100
C 	C 	0.35640 0.07920 0.42470 0.38100
C 	C 	0.14650 0.14650 0.23920 -0.11400
C 	C 	0.09960 0.09960 0.19680 0.01400
C 	C 	0.12780 0.12780 0.14140 -0.02600
C 	C 	0.20310 0.20310 0.13080 -0.10400
C 	C 	0.25360 0.25360 0.17460 0.06200
C 	C 	0.33310 0.33310 0.16840 -0.09400
C 	C 	0.38100 0.38100 0.21290 -0.00500
C 	C 	0.35070 0.35070 0.26730 -0.03300
C 	C 	0.27520 0.27520 0.27660 -0.06600
C 	C 	0.22450 0.22450 0.23080 0.04700
C 	C 	0.11470 0.11470 0.29830 0.41800
C 	C 	0.22290 0.22290 0.06880 0.38800
C 	C 	0.35350 0.35350 0.73920 -0.11100
C 	C 	0.40040 0.40040 0.69680 0.01400
C 	C 	0.37220 0.37220 0.64140 -0.02600
C 	C 	0.29690 0.29690 0.63080 -0.10100
C 	C 	0.24640 0.24640 0.67460 0.06200
C 	C 	0.16690 0.16690 0.66840 -0.09600
C 	C 	0.11900 0.11900 0.71290 -0.00600
C 	C 	0.14930 0.14930 0.76730 -0.03600
C 	C 	0.22480 0.22480 0.77660 -0.06500
C 	C 	0.27550 0.27550 0.73080 0.04600
C 	C 	0.38530 0.38530 0.79830 0.41700
C 	C 	0.27710 0.27710 0.56880 0.38400
C 	C 	0.64650 0.64650 0.26080 -0.11200
C 	C 	0.59960 0.59960 0.30320 0.01600
C 	C 	0.62780 0.62780 0.35860 -0.02800
C 	C 	0.70310 0.70310 0.36920 -0.09800
C 	C 	0.75360 0.75360 0.32540 0.06100
C 	C 	0.83310 0.83310 0.33160 -0.09000
C 	C 	0.88100 0.88100 0.28710 -0.00600
C 	C 	0.85070 0.85070 0.23270 -0.02800
C 	C 	0.77520 0.77520 0.22340 -0.06600
C 	C 	0.72450 0.72450 0.26920 0.04900
C 	C 	0.61470 0.61470 0.20170 0.41800
C 	C 	0.72290 0.72290 0.43120 0.38200
C 	C 	0.85350 0.85350 0.76080 -0.10800
C 	C 	0.90040 0.90040 0.80320 0.01700
C 	C 	0.87220 0.87220 0.85860 -0.02700
C 	C 	0.79690 0.79690 0.86920 -0.09500
C 	C 	0.74640 0.74640 0.82540 0.06000
C 	C 	0.66690 0.66690 0.83160 -0.09200
C 	C 	0.61900 0.61900 0.78710 -0.00600
C 	C 	0.64930 0.64930 0.73270 -0.03100
C 	C 	0.72480 0.72480 0.72340 -0.06500
C 	C 	0.77550 0.77550 0.76920 0.04900
C 	C 	0.88530 0.88530 0.70170 0.41500
C 	C 	0.77710 0.77710 0.93120 0.37800
O 	O 	0.01927 0.84141 0.46659 -0.53300
O 	O 	0.11912 0.85244 0.39194 -0.49200
O 	O 	0.15425 0.31179 0.44051 -0.50300
O 	O 	0.99570 0.31050 0.40740 -0.46100
O 	O 	0.15920 0.04400 0.31940 -0.49900
O 	O 	0.48073 0.65859 0.96659 -0.50600
O 	O 	0.38088 0.64756 0.89194 -0.48200
O 	O 	0.34575 0.18821 0.94051 -0.50700
O 	O 	0.50430 0.18950 0.90740 -0.47500
O 	O 	0.34080 0.45600 0.81940 -0.49400
O 	O 	0.34141 0.51927 0.03341 -0.54500
O 	O 	0.35244 0.61912 0.10806 -0.49800
O 	O 	0.81179 0.65425 0.05949 -0.50400
O 	O 	0.81050 0.49570 0.09260 -0.46900
O 	O 	0.54400 0.65920 0.18060 -0.49200
O 	O 	0.15859 0.98073 0.53341 -0.52300
O 	O 	0.14756 0.88088 0.60806 -0.49000
O 	O 	0.68821 0.84575 0.55949 -0.50600
O 	O 	0.68950 0.00430 0.59260 -0.48500
O 	O 	0.95600 0.84080 0.68060 -0.48300
O 	O 	0.98073 0.15859 0.53341 -0.52300
O 	O 	0.88088 0.14756 0.60806 -0.49000
O 	O 	0.84575 0.68821 0.55949 -0.50600
O 	O 	0.00430 0.68950 0.59260 -0.48500
O 	O 	0.84080 0.95600 0.68060 -0.48300
O 	O 	0.51927 0.34141 0.03341 -0.54500
O 	O 	0.61912 0.35244 0.10806 -0.49800
O 	O 	0.65425 0.81179 0.05949 -0.50400
O 	O 	0.49570 0.81050 0.09260 -0.46900
O 	O 	0.65920 0.54400 0.18060 -0.49200
O 	O 	0.65859 0.48073 0.96659 -0.50600
O 	O 	0.64756 0.38088 0.89194 -0.48200
O 	O 	0.18821 0.34575 0.94051 -0.50700
O 	O 	0.18950 0.50430 0.90740 -0.47500
O 	O 	0.45600 0.34080 0.81940 -0.49400
O 	O 	0.84141 0.01927 0.46659 -0.53300
O 	O 	0.85244 0.11912 0.39194 -0.49200
O 	O 	0.31179 0.15425 0.44051 -0.50300
O 	O 	0.31050 0.99570 0.40740 -0.46100
O 	O 	0.04400 0.15920 0.31940 -0.49900
O 	O 	0.17160 0.17160 0.03530 -0.32400
O 	O 	0.29100 0.29100 0.05639 -0.49800
O 	O 	0.08166 0.08166 0.44388 -0.93500
O 	O 	0.32840 0.32840 0.53530 -0.30800
O 	O 	0.20900 0.20900 0.55639 -0.49200
O 	O 	0.41834 0.41834 0.94388 -0.91500
O 	O 	0.67160 0.67160 0.46470 -0.30600
O 	O 	0.79100 0.79100 0.44361 -0.48500
O 	O 	0.58166 0.58166 0.05612 -0.93600
O 	O 	0.82840 0.82840 0.96470 -0.28700
O 	O 	0.70900 0.70900 0.94361 -0.47900
O 	O 	0.91834 0.91834 0.55612 -0.91300
