data_crystal

_cell_length_a 5.10280
_cell_length_b 21.16260
_cell_length_c 8.85810
_cell_angle_alpha 90.00000
_cell_angle_beta  89.99650
_cell_angle_gamma 90.00000

_symmetry_space_group_name_	'P 1'
_symmetry_space_group_name_H-M	'P 1'

loop_
_symmetry_equiv_pos_as_xyz
  x,y,z

loop_
_atom_site_label
_atom_site_type_symbol
_atom_site_fract_x
_atom_site_fract_y
_atom_site_fract_z
_atom_site_charge
Ti	Ti	0.27910 0.84165 0.52814 3.11600
Ti	Ti	0.01680 0.93546 0.01000 3.09300
Ti	Ti	0.72490 0.04166 0.48775 3.11600
Ga	Ga	0.69380 0.69017 0.74802 2.07700
P 	P 	0.79370 0.82584 0.77490 0.79400
P 	P 	0.20610 0.05294 0.24230 0.72600
P 	P 	0.23690 0.98796 0.67040 0.82900
P 	P 	0.76230 0.89610 0.34620 0.82500
P 	P 	0.20520 0.69133 0.55848 0.66000
O 	O 	0.06120 0.82310 0.70150 -0.79500
O 	O 	0.28350 0.75180 0.47340 -0.69200
O 	O 	0.24820 0.92950 0.57200 -0.80700
O 	O 	0.74720 0.76210 0.85910 -0.60300
O 	O 	0.58120 0.83340 0.65580 -0.80100
O 	O 	0.78230 0.87830 0.89150 -0.70500
O 	O 	0.17730 0.97020 0.83510 -0.80100
O 	O 	0.50680 0.02280 0.66960 -0.69100
O 	O 	0.02360 0.03330 0.61720 -0.77300
O 	O 	0.26840 0.87440 0.04120 -0.94600
O 	O 	0.93110 0.05790 0.31190 -0.78800
O 	O 	0.29080 0.63270 0.46770 -0.69600
O 	O 	0.75280 0.95330 0.44940 -0.78200
O 	O 	0.26490 0.11510 0.15430 -0.65600
O 	O 	0.40820 0.04430 0.36580 -0.78400
O 	O 	0.22040 0.99810 0.12800 -0.74800
O 	O 	0.80030 0.91560 0.18130 -0.77300
O 	O 	0.50690 0.85940 0.35650 -0.69500
O 	O 	0.98610 0.85130 0.39240 -0.70500
O 	O 	0.90450 0.69090 0.58230 -0.64900
O 	O 	0.34160 0.69010 0.71360 -0.69500
H 	H 	0.41300 0.88400 -0.00000 0.34200
Ti	Ti	0.72090 0.34165 0.47186 3.11700
Ti	Ti	0.98320 0.43546 0.99000 3.10200
Ti	Ti	0.27510 0.54166 0.51225 3.11800
Ga	Ga	0.30620 0.19017 0.25198 2.07700
P 	P 	0.20630 0.32584 0.22510 0.79600
P 	P 	0.79390 0.55294 0.75770 0.73200
P 	P 	0.76310 0.48796 0.32960 0.80600
P 	P 	0.23770 0.39610 0.65380 0.82400
P 	P 	0.79480 0.19133 0.44152 0.65800
O 	O 	0.93880 0.32310 0.29850 -0.80500
O 	O 	0.71650 0.25180 0.52660 -0.68500
O 	O 	0.75180 0.42950 0.42800 -0.80900
O 	O 	0.25280 0.26210 0.14090 -0.62700
O 	O 	0.41880 0.33340 0.34420 -0.80400
O 	O 	0.21770 0.37830 0.10850 -0.74700
O 	O 	0.82270 0.47020 0.16490 -0.84100
O 	O 	0.49320 0.52280 0.33040 -0.68600
O 	O 	0.97640 0.53330 0.38280 -0.77000
O 	O 	0.73160 0.37440 0.95880 -0.87200
O 	O 	0.06890 0.55790 0.68810 -0.77500
O 	O 	0.70920 0.13270 0.53230 -0.68900
O 	O 	0.24720 0.45330 0.55060 -0.79100
O 	O 	0.73510 0.61510 0.84570 -0.63500
O 	O 	0.59180 0.54430 0.63420 -0.77700
O 	O 	0.77960 0.49810 0.87200 -0.73400
O 	O 	0.19970 0.41560 0.81870 -0.75300
O 	O 	0.49310 0.35940 0.64350 -0.68900
O 	O 	0.01390 0.35130 0.60760 -0.69800
O 	O 	0.09550 0.19090 0.41770 -0.64400
O 	O 	0.65840 0.19010 0.28640 -0.70400
H 	H 	0.58700 0.38400 -0.00000 0.31200
