data_crystal

_cell_length_a 6.09970
_cell_length_b 7.65280
_cell_length_c 22.53300
_cell_angle_alpha 90.00000
_cell_angle_beta  91.60600
_cell_angle_gamma 90.00000

_symmetry_space_group_name_	'P 1'
_symmetry_space_group_name_H-M	'P 1'

loop_
_symmetry_equiv_pos_as_xyz
  x,y,z

loop_
_atom_site_label
_atom_site_type_symbol
_atom_site_fract_x
_atom_site_fract_y
_atom_site_fract_z
_atom_site_charge
Ce	Ce	0.54512 0.50171 0.85391 2.14400
Ce	Ce	0.45488 0.00171 0.64609 2.14100
Ce	Ce	0.45488 0.49829 0.14609 2.14400
Ce	Ce	0.54512 0.99829 0.35391 2.14100
H 	H 	0.44000 0.12500 0.88370 0.32500
H 	H 	0.30200 0.22800 0.74190 0.24500
H 	H 	0.12590 0.06440 0.87470 0.01400
H 	H 	0.04100 0.97800 0.78010 0.07600
H 	H 	0.56000 0.62500 0.61630 0.32500
H 	H 	0.69800 0.72800 0.75810 0.24800
H 	H 	0.87410 0.56440 0.62530 0.02000
H 	H 	0.95900 0.47800 0.71990 0.05600
H 	H 	0.56000 0.87500 0.11630 0.32600
H 	H 	0.69800 0.77200 0.25810 0.24600
H 	H 	0.87410 0.93560 0.12530 0.01400
H 	H 	0.95900 0.02200 0.21990 0.07600
H 	H 	0.44000 0.37500 0.38370 0.32500
H 	H 	0.30200 0.27200 0.24190 0.24800
H 	H 	0.12590 0.43560 0.37470 0.02000
H 	H 	0.04100 0.52200 0.28010 0.05600
C 	C 	0.04680 0.30570 0.84011 0.35700
C 	C 	0.18230 0.13930 0.84330 0.04900
C 	C 	0.18370 0.03550 0.78552 -0.03600
C 	C 	0.36110 0.89410 0.78871 0.36900
C 	C 	0.58210 0.42420 0.00133 0.22600
C 	C 	0.95320 0.80570 0.65989 0.35900
C 	C 	0.81770 0.63930 0.65670 0.03800
C 	C 	0.81630 0.53550 0.71448 -0.00200
C 	C 	0.63890 0.39410 0.71129 0.35000
C 	C 	0.41790 0.92420 0.49867 0.22700
C 	C 	0.95320 0.69430 0.15989 0.35700
C 	C 	0.81770 0.86070 0.15670 0.04900
C 	C 	0.81630 0.96450 0.21448 -0.03600
C 	C 	0.63890 0.10590 0.21129 0.36900
C 	C 	0.41790 0.57580 0.99867 0.22600
C 	C 	0.04680 0.19430 0.34011 0.35900
C 	C 	0.18230 0.36070 0.34330 0.03800
C 	C 	0.18370 0.46450 0.28552 -0.00200
C 	C 	0.36110 0.60590 0.28871 0.35000
C 	C 	0.58210 0.07580 0.50133 0.22700
O 	O 	0.84620 0.28930 0.83336 -0.45100
O 	O 	0.14560 0.44730 0.84532 -0.46800
O 	O 	0.39990 0.18600 0.85829 -0.61200
O 	O 	0.22030 0.14030 0.73470 -0.47900
O 	O 	0.35040 0.78680 0.82974 -0.46000
O 	O 	0.51110 0.89800 0.74922 -0.46900
O 	O 	0.66150 0.36940 0.95368 -0.42100
O 	O 	0.62330 0.36810 0.05176 -0.41000
O 	O 	0.15380 0.78930 0.66664 -0.44800
O 	O 	0.85440 0.94730 0.65468 -0.46500
O 	O 	0.60010 0.68600 0.64171 -0.60700
O 	O 	0.77970 0.64030 0.76530 -0.48300
O 	O 	0.64960 0.28680 0.67026 -0.45900
O 	O 	0.48890 0.39800 0.75078 -0.46900
O 	O 	0.33850 0.86940 0.54632 -0.41900
O 	O 	0.37670 0.86810 0.44824 -0.41200
O 	O 	0.15380 0.71070 0.16664 -0.45100
O 	O 	0.85440 0.55270 0.15468 -0.46800
O 	O 	0.60010 0.81400 0.14171 -0.61200
O 	O 	0.77970 0.85970 0.26530 -0.47900
O 	O 	0.64960 0.21320 0.17026 -0.46000
O 	O 	0.48890 0.10200 0.25078 -0.46900
O 	O 	0.33850 0.63060 0.04632 -0.42100
O 	O 	0.37670 0.63190 0.94824 -0.41000
O 	O 	0.84620 0.21070 0.33336 -0.44800
O 	O 	0.14560 0.05270 0.34532 -0.46500
O 	O 	0.39990 0.31400 0.35829 -0.60700
O 	O 	0.22030 0.35970 0.23470 -0.48300
O 	O 	0.35040 0.71320 0.32974 -0.45900
O 	O 	0.51110 0.60200 0.24922 -0.46900
O 	O 	0.66150 0.13060 0.45368 -0.41900
O 	O 	0.62330 0.13190 0.55176 -0.41200
