data_crystal

_cell_length_a 17.54000
_cell_length_b 17.54000
_cell_length_c 21.38300
_cell_angle_alpha 90.00000
_cell_angle_beta  90.00000
_cell_angle_gamma 90.00000

_symmetry_space_group_name_	'P 1'
_symmetry_space_group_name_H-M	'P 1'

loop_
_symmetry_equiv_pos_as_xyz
  x,y,z

loop_
_atom_site_label
_atom_site_type_symbol
_atom_site_fract_x
_atom_site_fract_y
_atom_site_fract_z
_atom_site_charge
O 	O 	0.36160 0.06900 0.00370 -0.23700
N 	N 	0.36260 0.26260 0.05880 -0.21600
N 	N 	0.29410 0.12230 0.07820 -0.16300
N 	N 	0.26890 0.04590 0.07120 -0.10700
C 	C 	0.39720 0.32980 0.04980 0.07000
H 	H 	0.38240 0.37160 0.07360 -0.00100
C 	C 	0.45410 0.33810 0.00620 -0.11700
H 	H 	0.47600 0.38580 0.00040 0.07100
C 	C 	0.47910 0.27910 0.97170 0.03300
H 	H 	0.51750 0.28560 0.94220 0.02600
C 	C 	0.44480 0.20580 0.98150 -0.09700
H 	H 	0.46030 0.16300 0.95920 0.08000
C 	C 	0.38820 0.20230 0.02520 0.04000
C 	C 	0.34690 0.13020 0.03770 0.14600
C 	C 	0.30840 0.01800 0.02670 0.14800
C 	C 	0.30370 0.94320 0.99730 0.04600
C 	C 	0.25380 0.88880 0.01950 -0.13600
H 	H 	0.22540 0.89700 0.05560 0.08600
C 	C 	0.34760 0.92450 0.94420 -0.12100
H 	H 	0.38430 0.95820 0.92930 0.08900
N 	N 	0.28270 0.80600 0.93460 -0.22900
C 	C 	0.24750 0.82250 0.98640 0.09400
H 	H 	0.21490 0.78560 0.00250 -0.00600
C 	C 	0.33600 0.85770 0.91560 0.07100
H 	H 	0.36580 0.84590 0.88090 0.00200
O 	O 	0.86160 0.56900 0.50370 -0.23800
N 	N 	0.86260 0.76260 0.55880 -0.21700
N 	N 	0.79410 0.62230 0.57820 -0.16400
N 	N 	0.76890 0.54590 0.57120 -0.10800
C 	C 	0.89720 0.82980 0.54980 0.06900
H 	H 	0.88240 0.87160 0.57360 -0.00200
C 	C 	0.95410 0.83810 0.50620 -0.11800
H 	H 	0.97600 0.88580 0.50040 0.07000
C 	C 	0.97910 0.77910 0.47170 0.03300
H 	H 	0.01750 0.78560 0.44220 0.02600
C 	C 	0.94480 0.70580 0.48150 -0.09700
H 	H 	0.96030 0.66300 0.45920 0.08000
C 	C 	0.88820 0.70230 0.52520 0.04000
C 	C 	0.84690 0.63020 0.53770 0.14600
C 	C 	0.80840 0.51800 0.52670 0.14800
C 	C 	0.80370 0.44320 0.49730 0.04600
C 	C 	0.75380 0.38880 0.51950 -0.13600
H 	H 	0.72540 0.39700 0.55560 0.08600
C 	C 	0.84760 0.42450 0.44420 -0.12100
H 	H 	0.88430 0.45820 0.42930 0.08900
N 	N 	0.78270 0.30600 0.43460 -0.22900
C 	C 	0.74750 0.32250 0.48640 0.09400
H 	H 	0.71490 0.28560 0.50250 -0.00600
C 	C 	0.83600 0.35770 0.41560 0.07100
H 	H 	0.86580 0.34590 0.38090 0.00200
O 	O 	0.63840 0.93100 0.00370 -0.23800
N 	N 	0.63740 0.73740 0.05880 -0.21700
N 	N 	0.70590 0.87770 0.07820 -0.16400
N 	N 	0.73110 0.95410 0.07120 -0.10800
C 	C 	0.60280 0.67020 0.04980 0.06900
H 	H 	0.61760 0.62840 0.07360 -0.00200
C 	C 	0.54590 0.66190 0.00620 -0.11800
H 	H 	0.52400 0.61420 0.00040 0.07000
C 	C 	0.52090 0.72090 0.97170 0.03300
H 	H 	0.48250 0.71440 0.94220 0.02600
C 	C 	0.55520 0.79420 0.98150 -0.09700
H 	H 	0.53970 0.83700 0.95920 0.08000
C 	C 	0.61180 0.79770 0.02520 0.04000
C 	C 	0.65310 0.86980 0.03770 0.14600
C 	C 	0.69160 0.98200 0.02670 0.14800
C 	C 	0.69630 0.05680 0.99730 0.04600
C 	C 	0.74620 0.11120 0.01950 -0.13600
H 	H 	0.77460 0.10300 0.05560 0.08600
C 	C 	0.65240 0.07550 0.94420 -0.12100
H 	H 	0.61570 0.04180 0.92930 0.08900
N 	N 	0.71730 0.19400 0.93460 -0.22900
C 	C 	0.75250 0.17750 0.98640 0.09400
H 	H 	0.78510 0.21440 0.00250 -0.00600
C 	C 	0.66400 0.14230 0.91560 0.07100
H 	H 	0.63420 0.15410 0.88090 0.00200
O 	O 	0.13840 0.43100 0.50370 -0.23800
N 	N 	0.13740 0.23740 0.55880 -0.21700
N 	N 	0.20590 0.37770 0.57820 -0.16400
N 	N 	0.23110 0.45410 0.57120 -0.10800
C 	C 	0.10280 0.17020 0.54980 0.06900
H 	H 	0.11760 0.12840 0.57360 -0.00200
C 	C 	0.04590 0.16190 0.50620 -0.11800
H 	H 	0.02400 0.11420 0.50040 0.07000
C 	C 	0.02090 0.22090 0.47170 0.03300
H 	H 	0.98250 0.21440 0.44220 0.02600
C 	C 	0.05520 0.29420 0.48150 -0.09700
H 	H 	0.03970 0.33700 0.45920 0.08000
C 	C 	0.11180 0.29770 0.52520 0.04000
C 	C 	0.15310 0.36980 0.53770 0.14600
C 	C 	0.19160 0.48200 0.52670 0.14800
C 	C 	0.19630 0.55680 0.49730 0.04600
C 	C 	0.24620 0.61120 0.51950 -0.13600
H 	H 	0.27460 0.60300 0.55560 0.08600
C 	C 	0.15240 0.57550 0.44420 -0.12100
H 	H 	0.11570 0.54180 0.42930 0.08900
N 	N 	0.21730 0.69400 0.43460 -0.22900
C 	C 	0.25250 0.67750 0.48640 0.09400
H 	H 	0.28510 0.71440 0.50250 -0.00600
C 	C 	0.16400 0.64230 0.41560 0.07100
H 	H 	0.13420 0.65410 0.38090 0.00200
O 	O 	0.06900 0.63840 0.99630 -0.23800
N 	N 	0.26260 0.63740 0.94120 -0.21700
N 	N 	0.12230 0.70590 0.92180 -0.16400
N 	N 	0.04590 0.73110 0.92880 -0.10800
C 	C 	0.32980 0.60280 0.95020 0.06900
H 	H 	0.37160 0.61760 0.92640 -0.00200
C 	C 	0.33810 0.54590 0.99380 -0.11800
H 	H 	0.38580 0.52400 0.99960 0.07000
C 	C 	0.27910 0.52090 0.02830 0.03300
H 	H 	0.28560 0.48250 0.05780 0.02600
C 	C 	0.20580 0.55520 0.01850 -0.09700
H 	H 	0.16300 0.53970 0.04080 0.08000
C 	C 	0.20230 0.61180 0.97480 0.04000
C 	C 	0.13020 0.65310 0.96230 0.14600
C 	C 	0.01800 0.69160 0.97330 0.14800
C 	C 	0.94320 0.69630 0.00270 0.04600
C 	C 	0.88880 0.74620 0.98050 -0.13600
H 	H 	0.89700 0.77460 0.94440 0.08600
C 	C 	0.92450 0.65240 0.05580 -0.12100
H 	H 	0.95820 0.61570 0.07070 0.08900
N 	N 	0.80600 0.71730 0.06540 -0.22900
C 	C 	0.82250 0.75250 0.01360 0.09400
H 	H 	0.78560 0.78510 0.99750 -0.00600
C 	C 	0.85770 0.66400 0.08440 0.07100
H 	H 	0.84590 0.63420 0.11910 0.00200
O 	O 	0.56900 0.13840 0.49630 -0.23800
N 	N 	0.76260 0.13740 0.44120 -0.21700
N 	N 	0.62230 0.20590 0.42180 -0.16400
N 	N 	0.54590 0.23110 0.42880 -0.10800
C 	C 	0.82980 0.10280 0.45020 0.06900
H 	H 	0.87160 0.11760 0.42640 -0.00200
C 	C 	0.83810 0.04590 0.49380 -0.11800
H 	H 	0.88580 0.02400 0.49960 0.07000
C 	C 	0.77910 0.02090 0.52830 0.03300
H 	H 	0.78560 0.98250 0.55780 0.02600
C 	C 	0.70580 0.05520 0.51850 -0.09700
H 	H 	0.66300 0.03970 0.54080 0.08000
C 	C 	0.70230 0.11180 0.47480 0.04000
C 	C 	0.63020 0.15310 0.46230 0.14600
C 	C 	0.51800 0.19160 0.47330 0.14800
C 	C 	0.44320 0.19630 0.50270 0.04600
C 	C 	0.38880 0.24620 0.48050 -0.13600
H 	H 	0.39700 0.27460 0.44440 0.08600
C 	C 	0.42450 0.15240 0.55580 -0.12100
H 	H 	0.45820 0.11570 0.57070 0.08900
N 	N 	0.30600 0.21730 0.56540 -0.22900
C 	C 	0.32250 0.25250 0.51360 0.09400
H 	H 	0.28560 0.28510 0.49750 -0.00600
C 	C 	0.35770 0.16400 0.58440 0.07100
H 	H 	0.34590 0.13420 0.61910 0.00200
O 	O 	0.93100 0.36160 0.99630 -0.23800
N 	N 	0.73740 0.36260 0.94120 -0.21700
N 	N 	0.87770 0.29410 0.92180 -0.16400
N 	N 	0.95410 0.26890 0.92880 -0.10800
C 	C 	0.67020 0.39720 0.95020 0.06900
H 	H 	0.62840 0.38240 0.92640 -0.00200
C 	C 	0.66190 0.45410 0.99380 -0.11800
H 	H 	0.61420 0.47600 0.99960 0.07000
C 	C 	0.72090 0.47910 0.02830 0.03300
H 	H 	0.71440 0.51750 0.05780 0.02600
C 	C 	0.79420 0.44480 0.01850 -0.09700
H 	H 	0.83700 0.46030 0.04080 0.08000
C 	C 	0.79770 0.38820 0.97480 0.04000
C 	C 	0.86980 0.34690 0.96230 0.14600
C 	C 	0.98200 0.30840 0.97330 0.14800
C 	C 	0.05680 0.30370 0.00270 0.04600
C 	C 	0.11120 0.25380 0.98050 -0.13600
H 	H 	0.10300 0.22540 0.94440 0.08600
C 	C 	0.07550 0.34760 0.05580 -0.12100
H 	H 	0.04180 0.38430 0.07070 0.08900
N 	N 	0.19400 0.28270 0.06540 -0.22900
C 	C 	0.17750 0.24750 0.01360 0.09400
H 	H 	0.21440 0.21490 0.99750 -0.00600
C 	C 	0.14230 0.33600 0.08440 0.07100
H 	H 	0.15410 0.36580 0.11910 0.00200
O 	O 	0.43100 0.86160 0.49630 -0.23800
N 	N 	0.23740 0.86260 0.44120 -0.21700
N 	N 	0.37770 0.79410 0.42180 -0.16400
N 	N 	0.45410 0.76890 0.42880 -0.10800
C 	C 	0.17020 0.89720 0.45020 0.06900
H 	H 	0.12840 0.88240 0.42640 -0.00200
C 	C 	0.16190 0.95410 0.49380 -0.11800
H 	H 	0.11420 0.97600 0.49960 0.07000
C 	C 	0.22090 0.97910 0.52830 0.03300
H 	H 	0.21440 0.01750 0.55780 0.02600
C 	C 	0.29420 0.94480 0.51850 -0.09700
H 	H 	0.33700 0.96030 0.54080 0.08000
C 	C 	0.29770 0.88820 0.47480 0.04000
C 	C 	0.36980 0.84690 0.46230 0.14600
C 	C 	0.48200 0.80840 0.47330 0.14800
C 	C 	0.55680 0.80370 0.50270 0.04600
C 	C 	0.61120 0.75380 0.48050 -0.13600
H 	H 	0.60300 0.72540 0.44440 0.08600
C 	C 	0.57550 0.84760 0.55580 -0.12100
H 	H 	0.54180 0.88430 0.57070 0.08900
N 	N 	0.69400 0.78270 0.56540 -0.22900
C 	C 	0.67750 0.74750 0.51360 0.09400
H 	H 	0.71440 0.71490 0.49750 -0.00600
C 	C 	0.64230 0.83600 0.58440 0.07100
H 	H 	0.65410 0.86580 0.61910 0.00200
O 	O 	0.13840 0.06900 0.74630 -0.23800
N 	N 	0.13740 0.26260 0.69120 -0.21700
N 	N 	0.20590 0.12230 0.67180 -0.16400
N 	N 	0.23110 0.04590 0.67880 -0.10800
C 	C 	0.10280 0.32980 0.70020 0.06900
H 	H 	0.11760 0.37160 0.67640 -0.00200
C 	C 	0.04590 0.33810 0.74380 -0.11800
H 	H 	0.02400 0.38580 0.74960 0.07000
C 	C 	0.02090 0.27910 0.77830 0.03300
H 	H 	0.98250 0.28560 0.80780 0.02600
C 	C 	0.05520 0.20580 0.76850 -0.09700
H 	H 	0.03970 0.16300 0.79080 0.08000
C 	C 	0.11180 0.20230 0.72480 0.04000
C 	C 	0.15310 0.13020 0.71230 0.14600
C 	C 	0.19160 0.01800 0.72330 0.14800
C 	C 	0.19630 0.94320 0.75270 0.04600
C 	C 	0.24620 0.88880 0.73050 -0.13600
H 	H 	0.27460 0.89700 0.69440 0.08600
C 	C 	0.15240 0.92450 0.80580 -0.12100
H 	H 	0.11570 0.95820 0.82070 0.08900
N 	N 	0.21730 0.80600 0.81540 -0.22900
C 	C 	0.25250 0.82250 0.76360 0.09400
H 	H 	0.28510 0.78560 0.74750 -0.00600
C 	C 	0.16400 0.85770 0.83440 0.07100
H 	H 	0.13420 0.84590 0.86910 0.00200
O 	O 	0.63840 0.56900 0.24630 -0.23800
N 	N 	0.63740 0.76260 0.19120 -0.21700
N 	N 	0.70590 0.62230 0.17180 -0.16400
N 	N 	0.73110 0.54590 0.17880 -0.10800
C 	C 	0.60280 0.82980 0.20020 0.06900
H 	H 	0.61760 0.87160 0.17640 -0.00200
C 	C 	0.54590 0.83810 0.24380 -0.11800
H 	H 	0.52400 0.88580 0.24960 0.07000
C 	C 	0.52090 0.77910 0.27830 0.03300
H 	H 	0.48250 0.78560 0.30780 0.02600
C 	C 	0.55520 0.70580 0.26850 -0.09700
H 	H 	0.53970 0.66300 0.29080 0.08000
C 	C 	0.61180 0.70230 0.22480 0.04000
C 	C 	0.65310 0.63020 0.21230 0.14600
C 	C 	0.69160 0.51800 0.22330 0.14800
C 	C 	0.69630 0.44320 0.25270 0.04600
C 	C 	0.74620 0.38880 0.23050 -0.13600
H 	H 	0.77460 0.39700 0.19440 0.08600
C 	C 	0.65240 0.42450 0.30580 -0.12100
H 	H 	0.61570 0.45820 0.32070 0.08900
N 	N 	0.71730 0.30600 0.31540 -0.22900
C 	C 	0.75250 0.32250 0.26360 0.09400
H 	H 	0.78510 0.28560 0.24750 -0.00600
C 	C 	0.66400 0.35770 0.33440 0.07100
H 	H 	0.63420 0.34590 0.36910 0.00200
O 	O 	0.86160 0.93100 0.74630 -0.23800
N 	N 	0.86260 0.73740 0.69120 -0.21700
N 	N 	0.79410 0.87770 0.67180 -0.16400
N 	N 	0.76890 0.95410 0.67880 -0.10800
C 	C 	0.89720 0.67020 0.70020 0.06900
H 	H 	0.88240 0.62840 0.67640 -0.00200
C 	C 	0.95410 0.66190 0.74380 -0.11800
H 	H 	0.97600 0.61420 0.74960 0.07000
C 	C 	0.97910 0.72090 0.77830 0.03300
H 	H 	0.01750 0.71440 0.80780 0.02600
C 	C 	0.94480 0.79420 0.76850 -0.09700
H 	H 	0.96030 0.83700 0.79080 0.08000
C 	C 	0.88820 0.79770 0.72480 0.04000
C 	C 	0.84690 0.86980 0.71230 0.14600
C 	C 	0.80840 0.98200 0.72330 0.14800
C 	C 	0.80370 0.05680 0.75270 0.04600
C 	C 	0.75380 0.11120 0.73050 -0.13600
H 	H 	0.72540 0.10300 0.69440 0.08600
C 	C 	0.84760 0.07550 0.80580 -0.12100
H 	H 	0.88430 0.04180 0.82070 0.08900
N 	N 	0.78270 0.19400 0.81540 -0.22900
C 	C 	0.74750 0.17750 0.76360 0.09400
H 	H 	0.71490 0.21440 0.74750 -0.00600
C 	C 	0.83600 0.14230 0.83440 0.07100
H 	H 	0.86580 0.15410 0.86910 0.00200
O 	O 	0.36160 0.43100 0.24630 -0.23800
N 	N 	0.36260 0.23740 0.19120 -0.21700
N 	N 	0.29410 0.37770 0.17180 -0.16400
N 	N 	0.26890 0.45410 0.17880 -0.10800
C 	C 	0.39720 0.17020 0.20020 0.06900
H 	H 	0.38240 0.12840 0.17640 -0.00200
C 	C 	0.45410 0.16190 0.24380 -0.11800
H 	H 	0.47600 0.11420 0.24960 0.07000
C 	C 	0.47910 0.22090 0.27830 0.03300
H 	H 	0.51750 0.21440 0.30780 0.02600
C 	C 	0.44480 0.29420 0.26850 -0.09700
H 	H 	0.46030 0.33700 0.29080 0.08000
C 	C 	0.38820 0.29770 0.22480 0.04000
C 	C 	0.34690 0.36980 0.21230 0.14600
C 	C 	0.30840 0.48200 0.22330 0.14800
C 	C 	0.30370 0.55680 0.25270 0.04600
C 	C 	0.25380 0.61120 0.23050 -0.13600
H 	H 	0.22540 0.60300 0.19440 0.08600
C 	C 	0.34760 0.57550 0.30580 -0.12100
H 	H 	0.38430 0.54180 0.32070 0.08900
N 	N 	0.28270 0.69400 0.31540 -0.22900
C 	C 	0.24750 0.67750 0.26360 0.09400
H 	H 	0.21490 0.71440 0.24750 -0.00600
C 	C 	0.33600 0.64230 0.33440 0.07100
H 	H 	0.36580 0.65410 0.36910 0.00200
O 	O 	0.43100 0.63840 0.75370 -0.23800
N 	N 	0.23740 0.63740 0.80880 -0.21700
N 	N 	0.37770 0.70590 0.82820 -0.16400
N 	N 	0.45410 0.73110 0.82120 -0.10800
C 	C 	0.17020 0.60280 0.79980 0.06900
H 	H 	0.12840 0.61760 0.82360 -0.00200
C 	C 	0.16190 0.54590 0.75620 -0.11800
H 	H 	0.11420 0.52400 0.75040 0.07000
C 	C 	0.22090 0.52090 0.72170 0.03300
H 	H 	0.21440 0.48250 0.69220 0.02600
C 	C 	0.29420 0.55520 0.73150 -0.09700
H 	H 	0.33700 0.53970 0.70920 0.08000
C 	C 	0.29770 0.61180 0.77520 0.04000
C 	C 	0.36980 0.65310 0.78770 0.14600
C 	C 	0.48200 0.69160 0.77670 0.14800
C 	C 	0.55680 0.69630 0.74730 0.04600
C 	C 	0.61120 0.74620 0.76950 -0.13600
H 	H 	0.60300 0.77460 0.80560 0.08600
C 	C 	0.57550 0.65240 0.69420 -0.12100
H 	H 	0.54180 0.61570 0.67930 0.08900
N 	N 	0.69400 0.71730 0.68460 -0.22900
C 	C 	0.67750 0.75250 0.73640 0.09400
H 	H 	0.71440 0.78510 0.75250 -0.00600
C 	C 	0.64230 0.66400 0.66560 0.07100
H 	H 	0.65410 0.63420 0.63090 0.00200
O 	O 	0.93100 0.13840 0.25370 -0.23800
N 	N 	0.73740 0.13740 0.30880 -0.21700
N 	N 	0.87770 0.20590 0.32820 -0.16400
N 	N 	0.95410 0.23110 0.32120 -0.10800
C 	C 	0.67020 0.10280 0.29980 0.06900
H 	H 	0.62840 0.11760 0.32360 -0.00200
C 	C 	0.66190 0.04590 0.25620 -0.11800
H 	H 	0.61420 0.02400 0.25040 0.07000
C 	C 	0.72090 0.02090 0.22170 0.03300
H 	H 	0.71440 0.98250 0.19220 0.02600
C 	C 	0.79420 0.05520 0.23150 -0.09700
H 	H 	0.83700 0.03970 0.20920 0.08000
C 	C 	0.79770 0.11180 0.27520 0.04000
C 	C 	0.86980 0.15310 0.28770 0.14600
C 	C 	0.98200 0.19160 0.27670 0.14800
C 	C 	0.05680 0.19630 0.24730 0.04600
C 	C 	0.11120 0.24620 0.26950 -0.13600
H 	H 	0.10300 0.27460 0.30560 0.08600
C 	C 	0.07550 0.15240 0.19420 -0.12100
H 	H 	0.04180 0.11570 0.17930 0.08900
N 	N 	0.19400 0.21730 0.18460 -0.22900
C 	C 	0.17750 0.25250 0.23640 0.09400
H 	H 	0.21440 0.28510 0.25250 -0.00600
C 	C 	0.14230 0.16400 0.16560 0.07100
H 	H 	0.15410 0.13420 0.13090 0.00200
O 	O 	0.56900 0.36160 0.75370 -0.23800
N 	N 	0.76260 0.36260 0.80880 -0.21700
N 	N 	0.62230 0.29410 0.82820 -0.16400
N 	N 	0.54590 0.26890 0.82120 -0.10800
C 	C 	0.82980 0.39720 0.79980 0.06900
H 	H 	0.87160 0.38240 0.82360 -0.00200
C 	C 	0.83810 0.45410 0.75620 -0.11800
H 	H 	0.88580 0.47600 0.75040 0.07000
C 	C 	0.77910 0.47910 0.72170 0.03300
H 	H 	0.78560 0.51750 0.69220 0.02600
C 	C 	0.70580 0.44480 0.73150 -0.09700
H 	H 	0.66300 0.46030 0.70920 0.08000
C 	C 	0.70230 0.38820 0.77520 0.04000
C 	C 	0.63020 0.34690 0.78770 0.14600
C 	C 	0.51800 0.30840 0.77670 0.14800
C 	C 	0.44320 0.30370 0.74730 0.04600
C 	C 	0.38880 0.25380 0.76950 -0.13600
H 	H 	0.39700 0.22540 0.80560 0.08600
C 	C 	0.42450 0.34760 0.69420 -0.12100
H 	H 	0.45820 0.38430 0.67930 0.08900
N 	N 	0.30600 0.28270 0.68460 -0.22900
C 	C 	0.32250 0.24750 0.73640 0.09400
H 	H 	0.28560 0.21490 0.75250 -0.00600
C 	C 	0.35770 0.33600 0.66560 0.07100
H 	H 	0.34590 0.36580 0.63090 0.00200
O 	O 	0.06900 0.86160 0.25370 -0.23800
N 	N 	0.26260 0.86260 0.30880 -0.21700
N 	N 	0.12230 0.79410 0.32820 -0.16400
N 	N 	0.04590 0.76890 0.32120 -0.10800
C 	C 	0.32980 0.89720 0.29980 0.06900
H 	H 	0.37160 0.88240 0.32360 -0.00200
C 	C 	0.33810 0.95410 0.25620 -0.11800
H 	H 	0.38580 0.97600 0.25040 0.07000
C 	C 	0.27910 0.97910 0.22170 0.03300
H 	H 	0.28560 0.01750 0.19220 0.02600
C 	C 	0.20580 0.94480 0.23150 -0.09700
H 	H 	0.16300 0.96030 0.20920 0.08000
C 	C 	0.20230 0.88820 0.27520 0.04000
C 	C 	0.13020 0.84690 0.28770 0.14600
C 	C 	0.01800 0.80840 0.27670 0.14800
C 	C 	0.94320 0.80370 0.24730 0.04600
C 	C 	0.88880 0.75380 0.26950 -0.13600
H 	H 	0.89700 0.72540 0.30560 0.08600
C 	C 	0.92450 0.84760 0.19420 -0.12100
H 	H 	0.95820 0.88430 0.17930 0.08900
N 	N 	0.80600 0.78270 0.18460 -0.22900
C 	C 	0.82250 0.74750 0.23640 0.09400
H 	H 	0.78560 0.71490 0.25250 -0.00600
C 	C 	0.85770 0.83600 0.16560 0.07100
H 	H 	0.84590 0.86580 0.13090 0.00200
Cu	Cu	0.27912 0.25000 0.12500 0.87100
Cu	Cu	0.72088 0.75000 0.12500 0.87100
Cu	Cu	0.22088 0.25000 0.62500 0.87100
Cu	Cu	0.25000 0.72088 0.87500 0.87100
Cu	Cu	0.75000 0.22088 0.37500 0.87100
Cu	Cu	0.75000 0.27912 0.87500 0.87100
Cu	Cu	0.25000 0.77912 0.37500 0.87100
Cu	Cu	0.77912 0.75000 0.62500 0.87100
