data_crystal

_cell_length_a 6.68500
_cell_length_b 9.90500
_cell_length_c 20.66600
_cell_angle_alpha 90.00000
_cell_angle_beta  91.91000
_cell_angle_gamma 90.00000

_symmetry_space_group_name_	'P 1'
_symmetry_space_group_name_H-M	'P 1'

loop_
_symmetry_equiv_pos_as_xyz
  x,y,z

loop_
_atom_site_label
_atom_site_type_symbol
_atom_site_fract_x
_atom_site_fract_y
_atom_site_fract_z
_atom_site_charge
Cu	Cu	0.32665 0.29581 0.72117 0.89600
Cu	Cu	0.67335 0.79581 0.77883 0.90000
Cu	Cu	0.67335 0.70419 0.27883 0.89700
Cu	Cu	0.32665 0.20419 0.22117 0.89300
Cu	Cu	-0.00000 0.00000 -0.00000 0.82400
Cu	Cu	0.00000 0.50000 0.50000 0.85800
H 	H 	0.89570 0.05490 0.73650 0.13400
H 	H 	0.98800 0.22830 0.94620 0.18600
H 	H 	0.18550 0.17090 0.93450 0.12000
H 	H 	0.42560 0.75680 0.65750 0.14200
H 	H 	0.09520 0.16670 0.64470 0.09700
H 	H 	0.27280 0.20130 0.60860 0.11400
H 	H 	0.10430 0.55490 0.76350 0.11000
H 	H 	0.01200 0.72830 0.55380 0.09300
H 	H 	0.81450 0.67090 0.56550 0.11500
H 	H 	0.57440 0.25680 0.84250 0.13600
H 	H 	0.90480 0.66670 0.85530 0.13700
H 	H 	0.72720 0.70130 0.89140 0.13400
H 	H 	0.10430 0.94510 0.26350 0.11400
H 	H 	0.01200 0.77170 0.05380 0.08400
H 	H 	0.81450 0.82910 0.06550 0.11000
H 	H 	0.57440 0.24320 0.34250 0.13600
H 	H 	0.90480 0.83330 0.35530 0.13800
H 	H 	0.72720 0.79870 0.39140 0.13000
H 	H 	0.89570 0.44510 0.23650 0.13900
H 	H 	0.98800 0.27170 0.44620 0.17700
H 	H 	0.18550 0.32910 0.43450 0.11300
H 	H 	0.42560 0.74320 0.15750 0.14400
H 	H 	0.09520 0.33330 0.14470 0.09800
H 	H 	0.27280 0.29870 0.10860 0.11100
C 	C 	0.88600 0.97740 0.87560 0.28300
C 	C 	0.99800 0.14900 0.81380 0.34800
C 	C 	0.43140 0.03120 0.71760 0.22100
C 	C 	0.30140 0.92410 0.62800 0.31600
C 	C 	0.11400 0.47740 0.62440 0.24100
C 	C 	0.00200 0.64900 0.68620 0.22200
C 	C 	0.56860 0.53120 0.78240 0.26300
C 	C 	0.69860 0.42410 0.87200 0.28900
C 	C 	0.11400 0.02260 0.12440 0.20700
C 	C 	0.00200 0.85100 0.18620 0.22500
C 	C 	0.56860 0.96880 0.28240 0.29800
C 	C 	0.69860 0.07590 0.37200 0.25600
C 	C 	0.88600 0.52260 0.37560 0.24900
C 	C 	0.99800 0.35100 0.31380 0.35300
C 	C 	0.43140 0.46880 0.21760 0.25400
C 	C 	0.30140 0.57590 0.12800 0.28400
N 	N 	0.90700 0.05220 0.77810 -0.23300
N 	N 	0.83240 0.94640 0.81520 -0.20500
N 	N 	0.98060 0.10000 0.87610 -0.17800
N 	N 	0.05390 0.15260 0.93570 -0.34800
N 	N 	0.40990 0.84100 0.66590 -0.21400
N 	N 	0.49610 0.90420 0.72110 -0.19100
N 	N 	0.31320 0.04430 0.66190 -0.18800
N 	N 	0.22970 0.17120 0.64680 -0.28600
N 	N 	0.09300 0.55220 0.72190 -0.19800
N 	N 	0.16760 0.44640 0.68480 -0.22200
N 	N 	0.01940 0.60000 0.62390 -0.18300
N 	N 	0.94610 0.65260 0.56430 -0.24100
N 	N 	0.59010 0.34100 0.83410 -0.20900
N 	N 	0.50390 0.40420 0.77890 -0.21200
N 	N 	0.68680 0.54430 0.83810 -0.16500
N 	N 	0.77030 0.67120 0.85320 -0.29600
N 	N 	0.09300 0.94780 0.22190 -0.18400
N 	N 	0.16760 0.05360 0.18480 -0.23400
N 	N 	0.01940 0.90000 0.12390 -0.16500
N 	N 	0.94610 0.84740 0.06430 -0.23300
N 	N 	0.59010 0.15900 0.33410 -0.20900
N 	N 	0.50390 0.09580 0.27890 -0.23500
N 	N 	0.68680 0.95570 0.33810 -0.15100
N 	N 	0.77030 0.82880 0.35320 -0.29600
N 	N 	0.90700 0.44780 0.27810 -0.22000
N 	N 	0.83240 0.55360 0.31520 -0.21700
N 	N 	0.98060 0.40000 0.37610 -0.16200
N 	N 	0.05390 0.34740 0.43570 -0.35100
N 	N 	0.40990 0.65900 0.16590 -0.21400
N 	N 	0.49610 0.59580 0.22110 -0.21400
N 	N 	0.31320 0.45570 0.16190 -0.17500
N 	N 	0.22970 0.32880 0.14680 -0.28600
O 	O 	0.85900 0.91040 0.92676 -0.37000
O 	O 	0.07760 0.25580 0.79733 -0.38000
O 	O 	0.46440 0.13070 0.75395 -0.37700
O 	O 	0.21210 0.90320 0.57611 -0.26400
O 	O 	0.14100 0.41040 0.57324 -0.42200
O 	O 	0.92240 0.75580 0.70267 -0.26600
O 	O 	0.53560 0.63070 0.74605 -0.37500
O 	O 	0.78790 0.40320 0.92389 -0.23900
O 	O 	0.14100 0.08960 0.07324 -0.43200
O 	O 	0.92240 0.74420 0.20267 -0.27200
O 	O 	0.53560 0.86930 0.24605 -0.37900
O 	O 	0.78790 0.09680 0.42389 -0.25500
O 	O 	0.85900 0.58960 0.42676 -0.39400
O 	O 	0.07760 0.24420 0.29733 -0.38900
O 	O 	0.46440 0.36930 0.25395 -0.38100
O 	O 	0.21210 0.59680 0.07611 -0.27900
