data_crystal

_cell_length_a 18.42500
_cell_length_b 24.57300
_cell_length_c 10.23600
_cell_angle_alpha 90.00000
_cell_angle_beta  90.00000
_cell_angle_gamma 90.00000

_symmetry_space_group_name_	'P 1'
_symmetry_space_group_name_H-M	'P 1'

loop_
_symmetry_equiv_pos_as_xyz
  x,y,z

loop_
_atom_site_label
_atom_site_type_symbol
_atom_site_fract_x
_atom_site_fract_y
_atom_site_fract_z
_atom_site_charge
F 	F 	0.32403 0.73614 0.83244 -0.84100
F 	F 	0.72177 0.74790 0.66966 -0.83000
F 	F 	0.70045 0.81059 0.08160 -0.80000
F 	F 	0.84400 0.70127 0.58990 -0.95700
Ga	Ga	0.68301 0.84851 0.90985 2.08900
Ga	Ga	0.61784 0.74213 0.60406 2.09000
Ga	Ga	0.42793 0.73399 0.89796 2.08800
Ga	Ga	0.43752 0.94124 0.11700 2.04900
Ga	Ga	0.59041 0.93205 0.38503 2.06000
Ga	Ga	0.73865 0.73441 0.07847 2.10100
Ga	Ga	0.80815 0.77790 0.58217 2.10100
Ga	Ga	0.85860 0.65747 0.39099 1.56000
Ga	Ga	0.35705 0.83584 0.55185 1.57400
P 	P 	0.83098 0.80193 0.87822 0.61600
P 	P 	0.36453 0.85337 0.91651 0.66100
P 	P 	0.60026 0.73544 0.89586 0.64800
P 	P 	0.44601 0.73160 0.60423 0.67600
P 	P 	0.67844 0.86282 0.59791 0.64000
P 	P 	0.41924 0.93701 0.41643 0.72400
P 	P 	0.60103 0.94001 0.08184 0.63000
P 	P 	0.71550 0.71201 0.37503 0.64200
O 	O 	0.52600 0.72784 0.95940 -0.53100
O 	O 	0.44620 0.70206 0.73710 -0.56500
O 	O 	0.41963 0.80757 0.93830 -0.63000
O 	O 	0.89744 0.81110 0.96650 -0.53300
O 	O 	0.28563 0.83643 0.92200 -0.53400
O 	O 	0.78913 0.75123 0.91770 -0.58700
O 	O 	0.65658 0.70801 0.98250 -0.51000
O 	O 	0.65450 0.91166 0.99250 -0.54300
O 	O 	0.85934 0.79530 0.73740 -0.49600
O 	O 	0.78165 0.85263 0.88910 -0.57500
O 	O 	0.66631 0.88300 0.73750 -0.52000
O 	O 	0.61455 0.79689 0.87180 -0.68000
O 	O 	0.60183 0.70765 0.76040 -0.57200
O 	O 	0.62457 0.81589 0.56590 -0.64900
O 	O 	0.52145 0.73135 0.54120 -0.55000
O 	O 	0.75804 0.84810 0.57320 -0.51200
O 	O 	0.65971 0.90992 0.50330 -0.57400
O 	O 	0.39271 0.70151 0.51500 -0.52700
O 	O 	0.75968 0.76103 0.42090 -0.62500
O 	O 	0.42475 0.79149 0.63240 -0.92700
O 	O 	0.37115 0.90474 0.50880 -0.80200
O 	O 	0.76252 0.66033 0.37700 -0.79600
O 	O 	0.40632 0.99604 0.44960 -0.63200
O 	O 	0.49758 0.91873 0.43630 -0.76400
O 	O 	0.63140 0.94136 0.22040 -0.68900
O 	O 	0.52676 0.91130 0.07800 -0.72700
O 	O 	0.39563 0.92422 0.27660 -0.68500
O 	O 	0.59603 0.99808 0.02810 -0.65900
O 	O 	0.68573 0.72151 0.23780 -0.49100
O 	O 	0.37962 0.88013 0.78210 -0.53700
O 	O 	0.37569 0.89434 0.02490 -0.55300
O 	O 	0.65020 0.70132 0.46400 -0.54900
F 	F 	0.67597 0.26386 0.83244 -0.84000
F 	F 	0.27823 0.25210 0.66966 -0.82900
F 	F 	0.29955 0.18941 0.08160 -0.80000
F 	F 	0.15600 0.29873 0.58990 -0.95700
Ga	Ga	0.31699 0.15149 0.90985 2.08900
Ga	Ga	0.38216 0.25787 0.60406 2.09000
Ga	Ga	0.57207 0.26601 0.89796 2.08800
Ga	Ga	0.56248 0.05876 0.11700 2.04900
Ga	Ga	0.40959 0.06795 0.38503 2.06000
Ga	Ga	0.26135 0.26559 0.07847 2.10100
Ga	Ga	0.19185 0.22210 0.58217 2.10100
Ga	Ga	0.14140 0.34253 0.39099 1.56000
Ga	Ga	0.64295 0.16416 0.55185 1.57400
P 	P 	0.16902 0.19807 0.87822 0.61600
P 	P 	0.63547 0.14663 0.91651 0.66100
P 	P 	0.39974 0.26456 0.89586 0.64800
P 	P 	0.55399 0.26840 0.60423 0.67600
P 	P 	0.32156 0.13718 0.59791 0.64000
P 	P 	0.58076 0.06299 0.41643 0.72400
P 	P 	0.39897 0.05999 0.08184 0.63000
P 	P 	0.28450 0.28799 0.37503 0.64200
O 	O 	0.47400 0.27216 0.95940 -0.53100
O 	O 	0.55380 0.29794 0.73710 -0.56500
O 	O 	0.58037 0.19243 0.93830 -0.63000
O 	O 	0.10256 0.18890 0.96650 -0.53300
O 	O 	0.71437 0.16357 0.92200 -0.53400
O 	O 	0.21087 0.24877 0.91770 -0.58700
O 	O 	0.34342 0.29199 0.98250 -0.51000
O 	O 	0.34550 0.08834 0.99250 -0.54300
O 	O 	0.14066 0.20470 0.73740 -0.49600
O 	O 	0.21835 0.14737 0.88910 -0.57500
O 	O 	0.33369 0.11700 0.73750 -0.52000
O 	O 	0.38545 0.20311 0.87180 -0.68000
O 	O 	0.39817 0.29235 0.76040 -0.57200
O 	O 	0.37543 0.18411 0.56590 -0.64900
O 	O 	0.47855 0.26865 0.54120 -0.55000
O 	O 	0.24196 0.15190 0.57320 -0.51200
O 	O 	0.34029 0.09008 0.50330 -0.57400
O 	O 	0.60729 0.29849 0.51500 -0.52700
O 	O 	0.24032 0.23897 0.42090 -0.62500
O 	O 	0.57525 0.20851 0.63240 -0.92700
O 	O 	0.62885 0.09526 0.50880 -0.80200
O 	O 	0.23748 0.33967 0.37700 -0.79600
O 	O 	0.59368 0.00396 0.44960 -0.63200
O 	O 	0.50242 0.08127 0.43630 -0.76400
O 	O 	0.36860 0.05864 0.22040 -0.68900
O 	O 	0.47324 0.08870 0.07800 -0.72700
O 	O 	0.60437 0.07578 0.27660 -0.68500
O 	O 	0.40397 0.00192 0.02810 -0.65900
O 	O 	0.31427 0.27849 0.23780 -0.49100
O 	O 	0.62038 0.11987 0.78210 -0.53700
O 	O 	0.62431 0.10566 0.02490 -0.55300
O 	O 	0.34980 0.29868 0.46400 -0.54900
F 	F 	0.17597 0.23614 0.16756 -0.84000
F 	F 	0.77823 0.24790 0.33034 -0.82900
F 	F 	0.79955 0.31059 0.91840 -0.80000
F 	F 	0.65600 0.20127 0.41010 -0.95700
Ga	Ga	0.81699 0.34851 0.09015 2.08900
Ga	Ga	0.88216 0.24213 0.39594 2.09000
Ga	Ga	0.07207 0.23399 0.10204 2.08800
Ga	Ga	0.06248 0.44124 0.88300 2.04900
Ga	Ga	0.90959 0.43205 0.61497 2.06000
Ga	Ga	0.76135 0.23441 0.92153 2.10100
Ga	Ga	0.69185 0.27790 0.41783 2.10100
Ga	Ga	0.64140 0.15747 0.60901 1.56000
Ga	Ga	0.14295 0.33584 0.44815 1.57400
P 	P 	0.66902 0.30193 0.12178 0.61600
P 	P 	0.13547 0.35337 0.08349 0.66100
P 	P 	0.89974 0.23544 0.10414 0.64800
P 	P 	0.05399 0.23160 0.39577 0.67500
P 	P 	0.82156 0.36282 0.40209 0.64000
P 	P 	0.08076 0.43701 0.58357 0.72400
P 	P 	0.89897 0.44001 0.91816 0.62900
P 	P 	0.78450 0.21201 0.62497 0.64200
O 	O 	0.97400 0.22784 0.04060 -0.53000
O 	O 	0.05380 0.20206 0.26290 -0.56500
O 	O 	0.08037 0.30757 0.06170 -0.63000
O 	O 	0.60256 0.31110 0.03350 -0.53200
O 	O 	0.21437 0.33643 0.07800 -0.53400
O 	O 	0.71087 0.25123 0.08230 -0.58700
O 	O 	0.84342 0.20801 0.01750 -0.51000
O 	O 	0.84550 0.41166 0.00750 -0.54300
O 	O 	0.64066 0.29530 0.26260 -0.49600
O 	O 	0.71835 0.35263 0.11090 -0.57400
O 	O 	0.83369 0.38300 0.26250 -0.52000
O 	O 	0.88545 0.29689 0.12820 -0.68000
O 	O 	0.89817 0.20765 0.23960 -0.57200
O 	O 	0.87543 0.31589 0.43410 -0.64900
O 	O 	0.97855 0.23135 0.45880 -0.55000
O 	O 	0.74196 0.34810 0.42680 -0.51100
O 	O 	0.84029 0.40992 0.49670 -0.57400
O 	O 	0.10729 0.20151 0.48500 -0.52700
O 	O 	0.74032 0.26103 0.57910 -0.62500
O 	O 	0.07525 0.29149 0.36760 -0.92700
O 	O 	0.12885 0.40474 0.49120 -0.80100
O 	O 	0.73748 0.16033 0.62300 -0.79600
O 	O 	0.09368 0.49604 0.55040 -0.63100
O 	O 	0.00242 0.41873 0.56370 -0.76500
O 	O 	0.86860 0.44136 0.77960 -0.68800
O 	O 	0.97324 0.41130 0.92200 -0.72700
O 	O 	0.10437 0.42422 0.72340 -0.68500
O 	O 	0.90397 0.49808 0.97190 -0.65900
O 	O 	0.81427 0.22151 0.76220 -0.49100
O 	O 	0.12038 0.38013 0.21790 -0.53700
O 	O 	0.12431 0.39434 0.97510 -0.55400
O 	O 	0.84980 0.20132 0.53600 -0.54900
F 	F 	0.82403 0.76386 0.16756 -0.84000
F 	F 	0.22177 0.75210 0.33034 -0.82900
F 	F 	0.20045 0.68941 0.91840 -0.80000
F 	F 	0.34400 0.79873 0.41010 -0.95700
Ga	Ga	0.18301 0.65149 0.09015 2.08900
Ga	Ga	0.11784 0.75787 0.39594 2.09000
Ga	Ga	0.92793 0.76601 0.10204 2.08800
Ga	Ga	0.93752 0.55876 0.88300 2.04900
Ga	Ga	0.09041 0.56795 0.61497 2.06000
Ga	Ga	0.23865 0.76559 0.92153 2.10100
Ga	Ga	0.30815 0.72210 0.41783 2.10100
Ga	Ga	0.35860 0.84253 0.60901 1.56000
Ga	Ga	0.85705 0.66416 0.44815 1.57400
P 	P 	0.33098 0.69807 0.12178 0.61600
P 	P 	0.86453 0.64663 0.08349 0.66100
P 	P 	0.10026 0.76456 0.10414 0.64800
P 	P 	0.94601 0.76840 0.39577 0.67500
P 	P 	0.17844 0.63718 0.40209 0.64000
P 	P 	0.91924 0.56299 0.58357 0.72400
P 	P 	0.10103 0.55999 0.91816 0.62900
P 	P 	0.21550 0.78799 0.62497 0.64200
O 	O 	0.02600 0.77216 0.04060 -0.53000
O 	O 	0.94620 0.79794 0.26290 -0.56500
O 	O 	0.91963 0.69243 0.06170 -0.63000
O 	O 	0.39744 0.68890 0.03350 -0.53200
O 	O 	0.78563 0.66357 0.07800 -0.53400
O 	O 	0.28913 0.74877 0.08230 -0.58700
O 	O 	0.15658 0.79199 0.01750 -0.51000
O 	O 	0.15450 0.58834 0.00750 -0.54300
O 	O 	0.35934 0.70470 0.26260 -0.49600
O 	O 	0.28165 0.64737 0.11090 -0.57400
O 	O 	0.16631 0.61700 0.26250 -0.52000
O 	O 	0.11455 0.70311 0.12820 -0.68000
O 	O 	0.10183 0.79235 0.23960 -0.57200
O 	O 	0.12457 0.68411 0.43410 -0.64900
O 	O 	0.02145 0.76865 0.45880 -0.55000
O 	O 	0.25804 0.65190 0.42680 -0.51100
O 	O 	0.15971 0.59008 0.49670 -0.57400
O 	O 	0.89271 0.79849 0.48500 -0.52700
O 	O 	0.25968 0.73897 0.57910 -0.62500
O 	O 	0.92475 0.70851 0.36760 -0.92700
O 	O 	0.87115 0.59526 0.49120 -0.80100
O 	O 	0.26252 0.83967 0.62300 -0.79600
O 	O 	0.90632 0.50396 0.55040 -0.63100
O 	O 	0.99758 0.58127 0.56370 -0.76500
O 	O 	0.13140 0.55864 0.77960 -0.68800
O 	O 	0.02676 0.58870 0.92200 -0.72700
O 	O 	0.89563 0.57578 0.72340 -0.68500
O 	O 	0.09603 0.50192 0.97190 -0.65900
O 	O 	0.18573 0.77849 0.76220 -0.49100
O 	O 	0.87962 0.61987 0.21790 -0.53700
O 	O 	0.87569 0.60566 0.97510 -0.55400
O 	O 	0.15020 0.79868 0.53600 -0.54900
