data_crystal

_cell_length_a 5.09190
_cell_length_b 9.25280
_cell_length_c 12.74000
_cell_angle_alpha 73.82000
_cell_angle_beta  84.58000
_cell_angle_gamma 74.13000

_symmetry_space_group_name_	'P 1'
_symmetry_space_group_name_H-M	'P 1'

loop_
_symmetry_equiv_pos_as_xyz
  x,y,z

loop_
_atom_site_label
_atom_site_type_symbol
_atom_site_fract_x
_atom_site_fract_y
_atom_site_fract_z
_atom_site_charge
Al	Al	0.96210 0.71020 0.15408 2.38400
Al	Al	0.28480 0.03290 0.40222 2.39800
Al	Al	0.78270 0.27770 0.12020 2.38900
Al	Al	0.46180 0.95840 0.86765 2.39600
P 	P 	0.87230 0.04910 0.97186 0.52500
P 	P 	0.36110 0.10090 0.61810 0.64000
P 	P 	0.21010 0.35070 0.23563 0.74500
P 	P 	0.53090 0.63780 0.03584 0.77200
P 	P 	0.87870 0.94090 0.29806 0.62300
O 	O 	0.33810 0.00620 0.53990 -0.70400
O 	O 	0.41360 0.98460 0.73110 -0.72800
O 	O 	0.04920 0.92900 0.39570 -0.52900
O 	O 	0.70070 0.05850 0.87620 -0.76500
O 	O 	0.65520 0.66240 0.13070 -0.79700
O 	O 	0.16770 0.04560 0.93160 -0.58300
O 	O 	0.56960 0.76050 0.92770 -0.82900
O 	O 	0.08500 0.32730 0.13920 -0.60800
O 	O 	0.58310 0.95690 0.33850 -0.77800
O 	O 	0.16380 0.23270 0.34250 -0.68100
O 	O 	0.51600 0.32860 0.21580 -0.76400
O 	O 	0.22580 0.65630 0.05860 -0.59000
O 	O 	0.85200 0.90920 0.06200 -0.73000
O 	O 	0.90970 0.07940 0.20610 -0.83500
O 	O 	0.56830 0.19210 0.58490 -0.33600
O 	O 	0.97880 0.78790 0.26550 -0.81100
O 	O 	0.08090 0.51170 0.25420 -0.45600
O 	O 	0.66430 0.47830 0.01520 -0.61700
O 	O 	0.76230 0.20340 0.00420 -0.63600
O 	O 	0.07080 0.22040 0.62160 -0.09500
