data_crystal

_cell_length_a 7.29180
_cell_length_b 9.34000
_cell_length_c 14.12900
_cell_angle_alpha 83.81600
_cell_angle_beta  85.46100
_cell_angle_gamma 72.64600

_symmetry_space_group_name_	'P 1'
_symmetry_space_group_name_H-M	'P 1'

loop_
_symmetry_equiv_pos_as_xyz
  x,y,z

loop_
_atom_site_label
_atom_site_type_symbol
_atom_site_fract_x
_atom_site_fract_y
_atom_site_fract_z
_atom_site_charge
La	La	0.50617 0.28555 0.59596 1.61100
La	La	0.49383 0.71445 0.40404 1.61200
Ni	Ni	0.50000 0.50000 1.00000 1.05800
H 	H 	0.83730 0.53800 0.00390 0.17800
H 	H 	0.70020 0.68590 0.00660 0.18700
H 	H 	0.19360 0.82920 0.90210 -0.02800
H 	H 	0.21650 0.87780 0.73470 0.13800
H 	H 	0.98950 0.44100 0.85890 0.07400
H 	H 	0.91850 0.73690 0.62600 0.05200
H 	H 	0.62430 0.85650 0.87190 0.07000
H 	H 	0.16270 0.46200 0.99610 0.04200
H 	H 	0.29980 0.31410 0.99340 0.05600
H 	H 	0.80640 0.17080 0.09790 -0.00100
H 	H 	0.78350 0.12220 0.26530 0.14000
H 	H 	0.01050 0.55900 0.14110 0.08700
H 	H 	0.08150 0.26310 0.37400 0.05500
H 	H 	0.37570 0.14350 0.12810 0.09100
C 	C 	0.26440 0.76200 0.85930 0.13600
C 	C 	0.39270 0.67010 0.72460 0.00200
C 	C 	0.45070 0.56250 0.79950 -0.06700
C 	C 	0.58460 0.40510 0.81070 0.35000
C 	C 	0.44410 0.68120 0.62110 0.30600
C 	C 	0.12740 0.45750 0.67980 0.28900
C 	C 	0.79590 0.64200 0.88100 0.10500
C 	C 	0.93020 0.53580 0.82940 -0.11200
C 	C 	0.97620 0.57090 0.73380 -0.02900
C 	C 	0.88860 0.71310 0.68990 -0.03500
C 	C 	0.71140 0.78430 0.83710 -0.11300
C 	C 	0.75570 0.81980 0.74200 -0.02600
C 	C 	0.65930 0.97270 0.69340 0.28900
C 	C 	0.73560 0.23800 0.14070 0.13800
C 	C 	0.60730 0.32990 0.27540 0.00000
C 	C 	0.54930 0.43750 0.20050 -0.06300
C 	C 	0.41540 0.59490 0.18930 0.34100
C 	C 	0.55590 0.31880 0.37890 0.30600
C 	C 	0.87260 0.54250 0.32020 0.28100
C 	C 	0.20410 0.35800 0.11900 0.10700
C 	C 	0.06980 0.46420 0.17060 -0.10500
C 	C 	0.02380 0.42910 0.26620 -0.02200
C 	C 	0.11140 0.28690 0.31010 -0.03500
C 	C 	0.28860 0.21570 0.16290 -0.10100
C 	C 	0.24430 0.18020 0.25800 -0.02400
C 	C 	0.34070 0.02730 0.30660 0.29300
N 	N 	0.73430 0.60200 0.97560 -0.44100
N 	N 	0.36810 0.62300 0.88360 -0.23300
N 	N 	0.27460 0.79360 0.76500 -0.20000
N 	N 	0.26570 0.39800 0.02440 -0.23800
N 	N 	0.63190 0.37700 0.11640 -0.21500
N 	N 	0.72540 0.20640 0.23500 -0.19900
O 	O 	0.62640 0.35650 0.89610 -0.41500
O 	O 	0.64850 0.33430 0.73990 -0.39200
O 	O 	0.40460 0.80960 0.57820 -0.37500
O 	O 	0.52250 0.56300 0.57920 -0.46100
O 	O 	0.16170 0.48250 0.59240 -0.37400
O 	O 	0.22460 0.34030 0.72600 -0.35300
O 	O 	0.72120 0.01040 0.61160 -0.37800
O 	O 	0.51990 0.06090 0.73490 -0.33300
O 	O 	0.37360 0.64350 0.10390 -0.37500
O 	O 	0.35150 0.66570 0.26010 -0.38500
O 	O 	0.59540 0.19040 0.42180 -0.37600
O 	O 	0.47750 0.43700 0.42080 -0.46100
O 	O 	0.83830 0.51750 0.40760 -0.37400
O 	O 	0.77540 0.65970 0.27400 -0.34900
O 	O 	0.27880 0.98960 0.38840 -0.37800
O 	O 	0.48010 0.93910 0.26510 -0.32800
