data_crystal

_cell_length_a 14.32860
_cell_length_b 14.32860
_cell_length_c 14.32860
_cell_angle_alpha 90.00000
_cell_angle_beta  90.00000
_cell_angle_gamma 90.00000

_symmetry_space_group_name_	'P 1'
_symmetry_space_group_name_H-M	'P 1'

loop_
_symmetry_equiv_pos_as_xyz
  x,y,z

loop_
_atom_site_label
_atom_site_type_symbol
_atom_site_fract_x
_atom_site_fract_y
_atom_site_fract_z
_atom_site_charge
O 	O 	0.92970 0.57620 0.28440 -0.66700
O 	O 	0.80940 0.61870 0.19600 -0.55200
C 	C 	0.89770 0.48680 0.14870 -0.19800
C 	C 	0.96950 0.43300 0.16560 0.06600
C 	C 	0.88280 0.56700 0.22010 0.47800
O 	O 	0.57030 0.42380 0.78440 -0.66800
O 	O 	0.69060 0.38130 0.69600 -0.55300
C 	C 	0.60230 0.51320 0.64870 -0.20000
C 	C 	0.53050 0.56700 0.66560 0.06500
C 	C 	0.61720 0.43300 0.72010 0.47800
O 	O 	0.07030 0.07620 0.21560 -0.66800
O 	O 	0.19060 0.11870 0.30400 -0.55300
C 	C 	0.10230 0.98680 0.35130 -0.19800
C 	C 	0.03050 0.93300 0.33440 0.06500
C 	C 	0.11720 0.06700 0.27990 0.47800
O 	O 	0.42970 0.92380 0.71560 -0.66800
O 	O 	0.30940 0.88130 0.80400 -0.55300
C 	C 	0.39770 0.01320 0.85130 -0.19800
C 	C 	0.46950 0.06700 0.83440 0.06500
C 	C 	0.38280 0.93300 0.77990 0.47700
O 	O 	0.28440 0.92970 0.57620 -0.66800
O 	O 	0.19600 0.80940 0.61870 -0.55300
C 	C 	0.14870 0.89770 0.48680 -0.19900
C 	C 	0.16560 0.96950 0.43300 0.06500
C 	C 	0.22010 0.88280 0.56700 0.47800
O 	O 	0.78440 0.57030 0.42380 -0.66800
O 	O 	0.69600 0.69060 0.38130 -0.55300
C 	C 	0.64870 0.60230 0.51320 -0.20000
C 	C 	0.66560 0.53050 0.56700 0.06500
C 	C 	0.72010 0.61720 0.43300 0.47800
O 	O 	0.21560 0.07030 0.07620 -0.66800
O 	O 	0.30400 0.19060 0.11870 -0.55300
C 	C 	0.35130 0.10230 0.98680 -0.19800
C 	C 	0.33440 0.03050 0.93300 0.06500
C 	C 	0.27990 0.11720 0.06700 0.47800
O 	O 	0.71560 0.42970 0.92380 -0.66800
O 	O 	0.80400 0.30940 0.88130 -0.55300
C 	C 	0.85130 0.39770 0.01320 -0.19800
C 	C 	0.83440 0.46950 0.06700 0.06500
C 	C 	0.77990 0.38280 0.93300 0.47700
O 	O 	0.57620 0.28440 0.92970 -0.66800
O 	O 	0.61870 0.19600 0.80940 -0.55300
C 	C 	0.48680 0.14870 0.89770 -0.19900
C 	C 	0.43300 0.16560 0.96950 0.06500
C 	C 	0.56700 0.22010 0.88280 0.47800
O 	O 	0.42380 0.78440 0.57030 -0.66800
O 	O 	0.38130 0.69600 0.69060 -0.55300
C 	C 	0.51320 0.64870 0.60230 -0.20000
C 	C 	0.56700 0.66560 0.53050 0.06500
C 	C 	0.43300 0.72010 0.61720 0.47800
O 	O 	0.07620 0.21560 0.07030 -0.66800
O 	O 	0.11870 0.30400 0.19060 -0.55300
C 	C 	0.98680 0.35130 0.10230 -0.19800
C 	C 	0.93300 0.33440 0.03050 0.06500
C 	C 	0.06700 0.27990 0.11720 0.47800
O 	O 	0.92380 0.71560 0.42970 -0.66800
O 	O 	0.88130 0.80400 0.30940 -0.55300
C 	C 	0.01320 0.85130 0.39770 -0.19800
C 	C 	0.06700 0.83440 0.46950 0.06500
C 	C 	0.93300 0.77990 0.38280 0.47700
Zn	Zn	0.77761 0.72239 0.27761 1.18200
Mg	Mg	0.92470 0.57530 0.42470 1.44800
Zn	Zn	0.72239 0.27761 0.77761 1.18200
Mg	Mg	0.57530 0.42470 0.92470 1.44800
Zn	Zn	0.22239 0.22239 0.22239 1.18200
Mg	Mg	0.07530 0.07530 0.07530 1.44800
Zn	Zn	0.27761 0.77761 0.72239 1.18200
Mg	Mg	0.42470 0.92470 0.57530 1.44800
