data_crystal

_cell_length_a 17.07400
_cell_length_b 17.07400
_cell_length_c 14.60600
_cell_angle_alpha 90.00000
_cell_angle_beta  90.00000
_cell_angle_gamma 90.00000

_symmetry_space_group_name_	'P 1'
_symmetry_space_group_name_H-M	'P 1'

loop_
_symmetry_equiv_pos_as_xyz
  x,y,z

loop_
_atom_site_label
_atom_site_type_symbol
_atom_site_fract_x
_atom_site_fract_y
_atom_site_fract_z
_atom_site_charge
N 	N 	0.66110 0.22230 0.16060 -0.22700
N 	N 	0.34890 0.21410 0.84020 -0.22500
C 	C 	0.33590 0.19580 0.92660 0.04400
H 	H 	0.28490 0.18490 0.94480 -0.04000
C 	C 	0.39580 0.19230 0.99230 -0.14700
H 	H 	0.38400 0.18080 0.05300 0.01600
C 	C 	0.47060 0.20560 0.96690 0.02600
C 	C 	0.48470 0.22490 0.87510 -0.14300
H 	H 	0.53530 0.23590 0.85550 0.00200
C 	C 	0.42320 0.22750 0.81390 0.04600
H 	H 	0.43340 0.23870 0.75280 -0.05900
C 	C 	0.58700 0.23700 0.18330 0.05100
H 	H 	0.57710 0.25270 0.24310 -0.06200
C 	C 	0.52460 0.23090 0.12580 -0.14200
H 	H 	0.47430 0.24070 0.14740 -0.00100
C 	C 	0.53600 0.20990 0.03430 0.01400
C 	C 	0.61170 0.18750 0.01180 -0.13400
H 	H 	0.62220 0.16760 0.95390 0.00600
C 	C 	0.67120 0.19460 0.07400 0.03000
H 	H 	0.72130 0.17960 0.05620 -0.04000
O 	O 	0.82950 0.18230 0.18170 -0.71100
O 	O 	0.99100 0.12980 0.18190 -1.06900
O 	O 	0.94110 0.18570 0.03850 -1.03900
O 	O 	0.87110 0.01990 0.18160 -1.02100
O 	O 	0.82030 0.07310 0.03670 -1.01700
O 	O 	0.13290 0.12020 0.12270 -1.05900
V 	V 	0.88776 0.12203 0.12782 1.78900
V 	V 	0.04842 0.18458 0.08916 1.68400
V 	V 	0.81163 0.96783 0.08669 1.66200
V 	V 	0.07144 0.06536 0.23017 1.69500
N 	N 	0.33890 0.77770 0.16060 -0.22700
N 	N 	0.65110 0.78590 0.84020 -0.22600
C 	C 	0.66410 0.80420 0.92660 0.03800
H 	H 	0.71510 0.81510 0.94480 -0.04100
C 	C 	0.60420 0.80770 0.99230 -0.14600
H 	H 	0.61600 0.81920 0.05300 0.00900
C 	C 	0.52940 0.79440 0.96690 0.02000
C 	C 	0.51530 0.77510 0.87510 -0.14400
H 	H 	0.46470 0.76410 0.85550 -0.00000
C 	C 	0.57680 0.77250 0.81390 0.04100
H 	H 	0.56660 0.76130 0.75280 -0.06000
C 	C 	0.41300 0.76300 0.18330 0.04600
H 	H 	0.42290 0.74730 0.24310 -0.06400
C 	C 	0.47540 0.76910 0.12580 -0.14300
H 	H 	0.52570 0.75930 0.14740 -0.00500
C 	C 	0.46400 0.79010 0.03430 0.00900
C 	C 	0.38830 0.81250 0.01180 -0.13500
H 	H 	0.37780 0.83240 0.95390 -0.00200
C 	C 	0.32880 0.80540 0.07400 0.02300
H 	H 	0.27870 0.82040 0.05620 -0.04100
O 	O 	0.17050 0.81770 0.18170 -0.71100
O 	O 	0.00900 0.87020 0.18190 -1.03100
O 	O 	0.05890 0.81430 0.03850 -1.01400
O 	O 	0.12890 0.98010 0.18160 -1.05800
O 	O 	0.17970 0.92690 0.03670 -1.04100
O 	O 	0.86710 0.87980 0.12270 -1.08600
V 	V 	0.11224 0.87797 0.12782 1.78900
V 	V 	0.95158 0.81542 0.08916 1.65600
V 	V 	0.18837 0.03217 0.08669 1.69000
V 	V 	0.92856 0.93464 0.23017 1.65100
N 	N 	0.22230 0.33890 0.83940 -0.22700
N 	N 	0.21410 0.65110 0.15980 -0.22500
C 	C 	0.19580 0.66410 0.07340 0.04400
H 	H 	0.18490 0.71510 0.05520 -0.04000
C 	C 	0.19230 0.60420 0.00770 -0.14600
H 	H 	0.18080 0.61600 0.94700 0.01600
C 	C 	0.20560 0.52940 0.03310 0.02600
C 	C 	0.22490 0.51530 0.12490 -0.14300
H 	H 	0.23590 0.46470 0.14450 0.00300
C 	C 	0.22750 0.57680 0.18610 0.04600
H 	H 	0.23870 0.56660 0.24720 -0.05900
C 	C 	0.23700 0.41300 0.81670 0.05100
H 	H 	0.25270 0.42290 0.75690 -0.06300
C 	C 	0.23090 0.47540 0.87420 -0.14200
H 	H 	0.24070 0.52570 0.85260 -0.00200
C 	C 	0.20990 0.46400 0.96570 0.01400
C 	C 	0.18750 0.38830 0.98820 -0.13500
H 	H 	0.16760 0.37780 0.04610 0.00700
C 	C 	0.19460 0.32880 0.92600 0.03000
H 	H 	0.17960 0.27870 0.94380 -0.04000
O 	O 	0.18230 0.17050 0.81830 -0.71000
O 	O 	0.12980 0.00900 0.81810 -1.01800
O 	O 	0.18570 0.05890 0.96150 -1.01000
O 	O 	0.01990 0.12890 0.81840 -1.00800
O 	O 	0.07310 0.17970 0.96330 -1.01300
O 	O 	0.12020 0.86710 0.87730 -1.07400
V 	V 	0.12203 0.11224 0.87218 1.79100
V 	V 	0.18458 0.95158 0.91084 1.65500
V 	V 	0.96783 0.18837 0.91331 1.66100
V 	V 	0.06536 0.92856 0.76983 1.67100
N 	N 	0.77770 0.66110 0.83940 -0.22700
N 	N 	0.78590 0.34890 0.15980 -0.22600
C 	C 	0.80420 0.33590 0.07340 0.03800
H 	H 	0.81510 0.28490 0.05520 -0.04100
C 	C 	0.80770 0.39580 0.00770 -0.14700
H 	H 	0.81920 0.38400 0.94700 0.00900
C 	C 	0.79440 0.47060 0.03310 0.02000
C 	C 	0.77510 0.48470 0.12490 -0.14400
H 	H 	0.76410 0.53530 0.14450 -0.00100
C 	C 	0.77250 0.42320 0.18610 0.04100
H 	H 	0.76130 0.43340 0.24720 -0.06000
C 	C 	0.76300 0.58700 0.81670 0.04600
H 	H 	0.74730 0.57710 0.75690 -0.06400
C 	C 	0.76910 0.52460 0.87420 -0.14300
H 	H 	0.75930 0.47430 0.85260 -0.00400
C 	C 	0.79010 0.53600 0.96570 0.00900
C 	C 	0.81250 0.61170 0.98820 -0.13500
H 	H 	0.83240 0.62220 0.04610 -0.00200
C 	C 	0.80540 0.67120 0.92600 0.02300
H 	H 	0.82040 0.72130 0.94380 -0.04100
O 	O 	0.81770 0.82950 0.81830 -0.71300
O 	O 	0.87020 0.99100 0.81810 -1.07700
O 	O 	0.81430 0.94110 0.96150 -1.04100
O 	O 	0.98010 0.87110 0.81840 -1.06500
O 	O 	0.92690 0.82030 0.96330 -1.04300
O 	O 	0.87980 0.13290 0.87730 -1.07500
V 	V 	0.87797 0.88776 0.87218 1.78800
V 	V 	0.81542 0.04842 0.91084 1.68100
V 	V 	0.03217 0.81163 0.91331 1.68800
V 	V 	0.93464 0.07144 0.76983 1.67000
N 	N 	0.16110 0.27770 0.66060 -0.21600
N 	N 	0.84890 0.28590 0.34020 -0.23600
C 	C 	0.83590 0.30420 0.42660 0.04800
H 	H 	0.78490 0.31510 0.44480 -0.04400
C 	C 	0.89580 0.30770 0.49230 -0.16100
H 	H 	0.88400 0.31920 0.55300 0.01200
C 	C 	0.97060 0.29440 0.46690 0.03300
C 	C 	0.98470 0.27510 0.37510 -0.24700
H 	H 	0.03530 0.26410 0.35550 0.06500
C 	C 	0.92320 0.27250 0.31390 0.08900
H 	H 	0.93340 0.26130 0.25280 -0.08300
C 	C 	0.08700 0.26300 0.68330 0.00000
H 	H 	0.07710 0.24730 0.74310 -0.03900
C 	C 	0.02460 0.26910 0.62580 -0.03700
H 	H 	0.97430 0.25930 0.64740 -0.06700
C 	C 	0.03600 0.29010 0.53430 0.00400
C 	C 	0.11170 0.31250 0.51180 -0.12100
H 	H 	0.12220 0.33240 0.45390 0.00400
C 	C 	0.17120 0.30540 0.57400 0.02000
H 	H 	0.22130 0.32040 0.55620 -0.03700
O 	O 	0.32950 0.31770 0.68170 -0.71000
O 	O 	0.49100 0.37020 0.68190 -1.04500
O 	O 	0.44110 0.31430 0.53850 -1.02500
O 	O 	0.37110 0.48010 0.68160 -1.03400
O 	O 	0.32030 0.42690 0.53670 -1.02800
O 	O 	0.63290 0.37980 0.62270 -1.07300
V 	V 	0.38776 0.37797 0.62782 1.79000
V 	V 	0.54842 0.31542 0.58916 1.67000
V 	V 	0.31163 0.53217 0.58669 1.67600
V 	V 	0.57144 0.43464 0.73017 1.67900
N 	N 	0.83890 0.72230 0.66060 -0.23700
N 	N 	0.15110 0.71410 0.34020 -0.21600
C 	C 	0.16410 0.69580 0.42660 0.03300
H 	H 	0.21510 0.68490 0.44480 -0.03700
C 	C 	0.10420 0.69230 0.49230 -0.13400
H 	H 	0.11600 0.68080 0.55300 0.01300
C 	C 	0.02940 0.70560 0.46690 0.01400
C 	C 	0.01530 0.72490 0.37510 -0.04800
H 	H 	0.96470 0.73590 0.35550 -0.06000
C 	C 	0.07680 0.72750 0.31390 -0.00100
H 	H 	0.06660 0.73870 0.25280 -0.03800
C 	C 	0.91300 0.73700 0.68330 0.09100
H 	H 	0.92290 0.75270 0.74310 -0.08600
C 	C 	0.97540 0.73090 0.62580 -0.24000
H 	H 	0.02570 0.74070 0.64740 0.05400
C 	C 	0.96400 0.70990 0.53430 0.01700
C 	C 	0.88830 0.68750 0.51180 -0.14700
H 	H 	0.87780 0.66760 0.45390 0.00100
C 	C 	0.82880 0.69460 0.57400 0.03100
H 	H 	0.77870 0.67960 0.55620 -0.04300
O 	O 	0.67050 0.68230 0.68170 -0.71100
O 	O 	0.50900 0.62980 0.68190 -1.04500
O 	O 	0.55890 0.68570 0.53850 -1.02700
O 	O 	0.62890 0.51990 0.68160 -1.03400
O 	O 	0.67970 0.57310 0.53670 -1.02900
O 	O 	0.36710 0.62020 0.62270 -1.07300
V 	V 	0.61224 0.62203 0.62782 1.79000
V 	V 	0.45158 0.68458 0.58916 1.66900
V 	V 	0.68837 0.46783 0.58669 1.67500
V 	V 	0.42856 0.56536 0.73017 1.67900
N 	N 	0.72230 0.16110 0.33940 -0.21700
N 	N 	0.71410 0.84890 0.65980 -0.23500
C 	C 	0.69580 0.83590 0.57340 0.04600
H 	H 	0.68490 0.78490 0.55520 -0.04300
C 	C 	0.69230 0.89580 0.50770 -0.16000
H 	H 	0.68080 0.88400 0.44700 0.01100
C 	C 	0.70560 0.97060 0.53310 0.02900
C 	C 	0.72490 0.98470 0.62490 -0.24000
H 	H 	0.73590 0.03530 0.64450 0.05800
C 	C 	0.72750 0.92320 0.68610 0.08300
H 	H 	0.73870 0.93340 0.74720 -0.08100
C 	C 	0.73700 0.08700 0.31670 0.00100
H 	H 	0.75270 0.07710 0.25690 -0.04100
C 	C 	0.73090 0.02460 0.37420 -0.04500
H 	H 	0.74070 0.97430 0.35260 -0.06500
C 	C 	0.70990 0.03600 0.46570 0.00200
C 	C 	0.68750 0.11170 0.48820 -0.12300
H 	H 	0.66760 0.12220 0.54610 0.00400
C 	C 	0.69460 0.17120 0.42600 0.01900
H 	H 	0.67960 0.22130 0.44380 -0.03700
O 	O 	0.68230 0.32950 0.31830 -0.71100
O 	O 	0.62980 0.49100 0.31810 -1.04500
O 	O 	0.68570 0.44110 0.46150 -1.02700
O 	O 	0.51990 0.37110 0.31840 -1.03400
O 	O 	0.57310 0.32030 0.46330 -1.02800
O 	O 	0.62020 0.63290 0.37730 -1.07400
V 	V 	0.62203 0.38776 0.37218 1.79000
V 	V 	0.68458 0.54842 0.41084 1.66800
V 	V 	0.46783 0.31163 0.41331 1.67600
V 	V 	0.56536 0.57144 0.26983 1.67900
N 	N 	0.27770 0.83890 0.33940 -0.23800
N 	N 	0.28590 0.15110 0.65980 -0.21500
C 	C 	0.30420 0.16410 0.57340 0.03400
H 	H 	0.31510 0.21510 0.55520 -0.03700
C 	C 	0.30770 0.10420 0.50770 -0.13100
H 	H 	0.31920 0.11600 0.44700 0.01300
C 	C 	0.29440 0.02940 0.53310 0.01500
C 	C 	0.27510 0.01530 0.62490 -0.03900
H 	H 	0.26410 0.96470 0.64450 -0.06200
C 	C 	0.27250 0.07680 0.68610 -0.00200
H 	H 	0.26130 0.06660 0.74720 -0.03600
C 	C 	0.26300 0.91300 0.31670 0.09700
H 	H 	0.24730 0.92290 0.25690 -0.08800
C 	C 	0.26910 0.97540 0.37420 -0.24800
H 	H 	0.25930 0.02570 0.35260 0.06200
C 	C 	0.29010 0.96400 0.46570 0.02100
C 	C 	0.31250 0.88830 0.48820 -0.14900
H 	H 	0.33240 0.87780 0.54610 0.00200
C 	C 	0.30540 0.82880 0.42600 0.03400
H 	H 	0.32040 0.77870 0.44380 -0.04300
O 	O 	0.31770 0.67050 0.31830 -0.71100
O 	O 	0.37020 0.50900 0.31810 -1.04400
O 	O 	0.31430 0.55890 0.46150 -1.02500
O 	O 	0.48010 0.62890 0.31840 -1.03400
O 	O 	0.42690 0.67970 0.46330 -1.02900
O 	O 	0.37980 0.36710 0.37730 -1.07100
V 	V 	0.37797 0.61224 0.37218 1.79000
V 	V 	0.31542 0.45158 0.41084 1.67000
V 	V 	0.53217 0.68837 0.41331 1.67500
V 	V 	0.43464 0.42856 0.26983 1.67900
O 	O 	0.00000 0.00000 0.28320 -0.81100
O 	O 	0.00000 0.00000 0.71680 -0.81100
O 	O 	0.50000 0.50000 0.78320 -0.86100
O 	O 	0.50000 0.50000 0.21680 -0.86100
Ni	Ni	0.75467 0.25467 0.25000 1.09900
Ni	Ni	0.24533 0.74533 0.25000 1.09900
Ni	Ni	0.25467 0.24533 0.75000 1.09900
Ni	Ni	0.74533 0.75467 0.75000 1.09900
