data_crystal

_cell_length_a 10.52400
_cell_length_b 11.30700
_cell_length_c 14.31600
_cell_angle_alpha 111.18600
_cell_angle_beta  107.83100
_cell_angle_gamma 91.58300

_symmetry_space_group_name_	'P 1'
_symmetry_space_group_name_H-M	'P 1'

loop_
_symmetry_equiv_pos_as_xyz
  x,y,z

loop_
_atom_site_label
_atom_site_type_symbol
_atom_site_fract_x
_atom_site_fract_y
_atom_site_fract_z
_atom_site_charge
Gd	Gd	0.30683 0.51726 0.91887 1.64200
Gd	Gd	0.21557 0.36764 0.60525 1.48700
Gd	Gd	0.69317 0.48274 0.08113 1.64100
Gd	Gd	0.78443 0.63236 0.39475 1.48600
H 	H 	0.88630 0.61920 0.02390 0.13000
H 	H 	0.73800 0.60760 0.00350 0.08000
H 	H 	0.13360 0.89280 0.50940 0.16900
H 	H 	0.15810 0.03570 0.55950 0.18800
H 	H 	0.57840 0.06220 0.41020 0.15900
H 	H 	0.50750 0.14220 0.48010 0.17600
H 	H 	0.54940 0.35360 0.64390 -0.00500
H 	H 	0.73290 0.31510 0.58930 0.05900
H 	H 	0.97680 0.52910 0.88590 0.07900
H 	H 	0.36700 0.11830 0.91720 0.02400
H 	H 	0.37700 0.91450 0.91830 0.07400
H 	H 	0.17460 0.76470 0.60480 0.09000
H 	H 	0.05520 0.97080 0.28890 0.02300
H 	H 	0.06020 0.80700 0.13790 0.07700
H 	H 	0.46670 0.88480 0.25470 0.10700
H 	H 	0.11370 0.38080 0.97610 0.13000
H 	H 	0.26200 0.39240 0.99650 0.08000
H 	H 	0.86640 0.10720 0.49060 0.16900
H 	H 	0.84190 0.96430 0.44050 0.18800
H 	H 	0.42160 0.93780 0.58980 0.15900
H 	H 	0.49250 0.85780 0.51990 0.17600
H 	H 	0.45060 0.64640 0.35610 -0.00500
H 	H 	0.26710 0.68490 0.41070 0.05900
H 	H 	0.02320 0.47090 0.11410 0.07900
H 	H 	0.63300 0.88170 0.08280 0.02400
H 	H 	0.62300 0.08550 0.08170 0.07400
H 	H 	0.82540 0.23530 0.39520 0.09000
H 	H 	0.94480 0.02920 0.71110 0.02300
H 	H 	0.93980 0.19300 0.86210 0.07700
H 	H 	0.53330 0.11520 0.74530 0.10700
C 	C 	0.52750 0.48050 0.82970 0.45600
C 	C 	0.64960 0.46470 0.79750 -0.21900
C 	C 	0.63570 0.38960 0.69290 0.07800
C 	C 	0.74460 0.36670 0.65960 -0.09800
C 	C 	0.87320 0.42210 0.73290 -0.04000
C 	C 	0.99640 0.40390 0.70060 0.38000
C 	C 	0.88990 0.49520 0.83730 -0.13200
C 	C 	0.78030 0.51980 0.87220 0.17400
C 	C 	0.25880 0.20030 0.76580 0.45800
C 	C 	0.26420 0.06650 0.76140 -0.20900
C 	C 	0.32690 0.04720 0.85400 0.07300
C 	C 	0.33180 0.92500 0.85560 -0.09000
C 	C 	0.26780 0.81920 0.76190 -0.02500
C 	C 	0.26130 0.68460 0.76070 0.39000
C 	C 	0.21210 0.83650 0.66790 -0.15100
C 	C 	0.21010 0.95800 0.66430 0.20200
C 	C 	0.24240 0.14070 0.45150 0.34600
C 	C 	0.25460 0.02990 0.36170 -0.18200
C 	C 	0.13830 0.95420 0.28120 0.06800
C 	C 	0.13980 0.85610 0.19070 -0.11000
C 	C 	0.26620 0.83280 0.18100 0.02500
C 	C 	0.27640 0.72990 0.08230 0.27500
C 	C 	0.38370 0.90410 0.26120 -0.17000
C 	C 	0.38000 0.00340 0.35070 0.19200
C 	C 	0.47250 0.51950 0.17030 0.45600
C 	C 	0.35040 0.53530 0.20250 -0.21900
C 	C 	0.36430 0.61040 0.30710 0.07800
C 	C 	0.25540 0.63330 0.34040 -0.09800
C 	C 	0.12680 0.57790 0.26710 -0.04000
C 	C 	0.00360 0.59610 0.29940 0.38000
C 	C 	0.11010 0.50480 0.16270 -0.13200
C 	C 	0.21970 0.48020 0.12780 0.17400
C 	C 	0.74120 0.79970 0.23420 0.45800
C 	C 	0.73580 0.93350 0.23860 -0.20900
C 	C 	0.67310 0.95280 0.14600 0.07300
C 	C 	0.66820 0.07500 0.14440 -0.09000
C 	C 	0.73220 0.18080 0.23810 -0.02500
C 	C 	0.73870 0.31540 0.23930 0.39000
C 	C 	0.78790 0.16350 0.33210 -0.15100
C 	C 	0.78990 0.04200 0.33570 0.20200
C 	C 	0.75760 0.85930 0.54850 0.34600
C 	C 	0.74540 0.97010 0.63830 -0.18200
C 	C 	0.86170 0.04580 0.71880 0.06800
C 	C 	0.86020 0.14390 0.80930 -0.11000
C 	C 	0.73380 0.16720 0.81900 0.02500
C 	C 	0.72360 0.27010 0.91770 0.27500
C 	C 	0.61630 0.09590 0.73880 -0.17000
C 	C 	0.62000 0.99660 0.64930 0.19200
N 	N 	0.80470 0.59140 0.98050 -0.30900
N 	N 	0.16120 0.96280 0.56550 -0.34200
N 	N 	0.50490 0.07910 0.42310 -0.32900
N 	N 	0.19530 0.40860 0.01950 -0.30900
N 	N 	0.83880 0.03720 0.43450 -0.34200
N 	N 	0.49510 0.92090 0.57690 -0.32900
O 	O 	0.54180 0.53220 0.92830 -0.51300
O 	O 	0.41110 0.44390 0.76110 -0.51300
O 	O 	0.11120 0.44310 0.77090 -0.50000
O 	O 	0.98290 0.35440 0.60350 -0.41600
O 	O 	0.29470 0.29070 0.85650 -0.44700
O 	O 	0.21810 0.21500 0.67910 -0.45000
O 	O 	0.30830 0.67490 0.84790 -0.43400
O 	O 	0.20600 0.59200 0.67170 -0.44900
O 	O 	0.12680 0.16660 0.45230 -0.39800
O 	O 	0.34640 0.21010 0.52560 -0.40400
O 	O 	0.39040 0.70770 0.07800 -0.37700
O 	O 	0.16940 0.66340 0.00670 -0.36800
O 	O 	0.45820 0.46780 0.07170 -0.51300
O 	O 	0.58890 0.55610 0.23890 -0.51300
O 	O 	0.88880 0.55690 0.22910 -0.50000
O 	O 	0.01710 0.64560 0.39650 -0.41600
O 	O 	0.70530 0.70930 0.14350 -0.44700
O 	O 	0.78190 0.78500 0.32090 -0.45000
O 	O 	0.69170 0.32510 0.15210 -0.43400
O 	O 	0.79400 0.40800 0.32830 -0.44900
O 	O 	0.87320 0.83340 0.54770 -0.39800
O 	O 	0.65360 0.78990 0.47440 -0.40400
O 	O 	0.60960 0.29230 0.92200 -0.37700
O 	O 	0.83060 0.33660 0.99330 -0.36800
