data_crystal

_cell_length_a 10.48520
_cell_length_b 11.15250
_cell_length_c 14.25020
_cell_angle_alpha 111.51600
_cell_angle_beta  107.29100
_cell_angle_gamma 91.52300

_symmetry_space_group_name_	'P 1'
_symmetry_space_group_name_H-M	'P 1'

loop_
_symmetry_equiv_pos_as_xyz
  x,y,z

loop_
_atom_site_label
_atom_site_type_symbol
_atom_site_fract_x
_atom_site_fract_y
_atom_site_fract_z
_atom_site_charge
Yb	Yb	0.68736 0.47761 0.07777 1.55400
Yb	Yb	0.77627 0.62757 0.38825 1.51400
O 	O 	0.68290 0.32130 0.14440 -0.42400
O 	O 	0.78250 0.40890 0.32140 -0.47300
O 	O 	0.78010 0.77950 0.31940 -0.43200
O 	O 	0.69600 0.69960 0.14160 -0.42500
O 	O 	0.60570 0.29220 0.92170 -0.38000
O 	O 	0.82470 0.33520 0.99250 -0.37800
O 	O 	0.86720 0.82080 0.54140 -0.39900
O 	O 	0.64850 0.78510 0.46610 -0.40100
O 	O 	0.46230 0.46920 0.07270 -0.48500
O 	O 	0.58670 0.55440 0.24150 -0.49900
O 	O 	0.99880 0.63800 0.38770 -0.44500
O 	O 	0.87830 0.54940 0.21730 -0.48900
N 	N 	0.84540 0.03570 0.43090 -0.30600
H 	H 	0.87440 0.10730 0.48670 0.15200
H 	H 	0.85000 0.96210 0.43740 0.17700
N 	N 	0.84200 0.26780 0.42400 -0.30300
H 	H 	0.83770 0.34580 0.42660 0.15400
H 	H 	0.88030 0.25540 0.48140 0.14100
N 	N 	0.49070 0.91760 0.57120 -0.31500
H 	H 	0.41680 0.93470 0.58430 0.15600
H 	H 	0.48870 0.85450 0.51330 0.16900
N 	N 	0.98070 0.19200 0.88480 -0.31600
H 	H 	0.05230 0.16180 0.87460 0.15200
H 	H 	0.98620 0.25390 0.94430 0.17400
N 	N 	0.19870 0.41110 0.01460 -0.29100
H 	H 	0.26660 0.40200 0.99180 0.06500
H 	H 	0.11820 0.37930 0.97050 0.12100
N 	N 	0.26500 0.69800 0.44510 -0.31100
H 	H 	0.34570 0.72900 0.48930 0.13800
H 	H 	0.19690 0.71270 0.46730 0.15100
C 	C 	0.72950 0.31320 0.23300 0.40500
C 	C 	0.72570 0.17830 0.23390 -0.13500
C 	C 	0.65950 0.06950 0.14090 -0.00100
H 	H 	0.61230 0.07950 0.07840 0.04600
C 	C 	0.66460 0.94660 0.14240 -0.01200
H 	H 	0.62260 0.87430 0.07940 0.05700
C 	C 	0.73080 0.92740 0.23510 -0.13400
C 	C 	0.79140 0.03890 0.33100 0.09100
C 	C 	0.78780 0.16260 0.32780 0.09400
C 	C 	0.73530 0.79270 0.23150 0.39900
C 	C 	0.71910 0.26890 0.91580 0.32200
C 	C 	0.73180 0.16540 0.81790 -0.10100
C 	C 	0.61350 0.09380 0.73670 -0.08200
H 	H 	0.53070 0.11390 0.74430 0.08200
C 	C 	0.61570 0.99350 0.64490 0.13400
C 	C 	0.74120 0.96520 0.63370 -0.10200
C 	C 	0.85910 0.04190 0.71380 -0.09200
H 	H 	0.94230 0.02580 0.70490 0.08100
C 	C 	0.85590 0.14010 0.80500 0.14900
C 	C 	0.75300 0.85180 0.54200 0.31100
C 	C 	0.47190 0.51830 0.17090 0.40100
C 	C 	0.34750 0.53280 0.20140 -0.13900
C 	C 	0.21970 0.47830 0.12480 0.11700
C 	C 	0.10530 0.50170 0.15690 -0.06100
H 	H 	0.01960 0.46870 0.10630 0.06100
C 	C 	0.11780 0.57230 0.26140 -0.13200
C 	C 	0.24490 0.62520 0.33830 0.13300
C 	C 	0.35800 0.60430 0.30630 -0.06700
H 	H 	0.44330 0.63950 0.35700 0.04900
C 	C 	0.99170 0.58870 0.29110 0.38500
Yb	Yb	0.31264 0.52239 0.92223 1.55300
Yb	Yb	0.22373 0.37243 0.61175 1.51300
O 	O 	0.31710 0.67870 0.85560 -0.42500
O 	O 	0.21750 0.59110 0.67860 -0.47400
O 	O 	0.21990 0.22050 0.68060 -0.43300
O 	O 	0.30400 0.30040 0.85840 -0.42600
O 	O 	0.39430 0.70780 0.07830 -0.38100
O 	O 	0.17530 0.66480 0.00750 -0.37900
O 	O 	0.13280 0.17920 0.45860 -0.40000
O 	O 	0.35150 0.21490 0.53390 -0.40200
O 	O 	0.53770 0.53080 0.92730 -0.48500
O 	O 	0.41330 0.44560 0.75850 -0.49900
O 	O 	0.00120 0.36200 0.61230 -0.44500
O 	O 	0.12170 0.45060 0.78270 -0.48900
N 	N 	0.15460 0.96430 0.56910 -0.30600
H 	H 	0.12560 0.89270 0.51330 0.15200
H 	H 	0.15000 0.03790 0.56260 0.17700
N 	N 	0.15800 0.73220 0.57600 -0.30300
H 	H 	0.16230 0.65420 0.57340 0.15400
H 	H 	0.11970 0.74460 0.51860 0.14100
N 	N 	0.50930 0.08240 0.42880 -0.31500
H 	H 	0.58320 0.06530 0.41570 0.15600
H 	H 	0.51130 0.14550 0.48670 0.16900
N 	N 	0.01930 0.80800 0.11520 -0.31600
H 	H 	0.94770 0.83820 0.12540 0.15200
H 	H 	0.01380 0.74610 0.05570 0.17400
N 	N 	0.80130 0.58890 0.98540 -0.29100
H 	H 	0.73340 0.59800 0.00820 0.06500
H 	H 	0.88180 0.62070 0.02950 0.12100
N 	N 	0.73500 0.30200 0.55490 -0.31100
H 	H 	0.65430 0.27100 0.51070 0.13800
H 	H 	0.80310 0.28730 0.53270 0.15100
C 	C 	0.27050 0.68680 0.76700 0.40500
C 	C 	0.27430 0.82170 0.76610 -0.13500
C 	C 	0.34050 0.93050 0.85910 -0.00100
H 	H 	0.38770 0.92050 0.92160 0.04600
C 	C 	0.33540 0.05340 0.85760 -0.01200
H 	H 	0.37740 0.12570 0.92060 0.05700
C 	C 	0.26920 0.07260 0.76490 -0.13400
C 	C 	0.20860 0.96110 0.66900 0.09100
C 	C 	0.21220 0.83740 0.67220 0.09400
C 	C 	0.26470 0.20730 0.76850 0.39900
C 	C 	0.28090 0.73110 0.08420 0.32200
C 	C 	0.26820 0.83460 0.18210 -0.10100
C 	C 	0.38650 0.90620 0.26330 -0.08200
H 	H 	0.46930 0.88610 0.25570 0.08200
C 	C 	0.38430 0.00650 0.35510 0.13400
C 	C 	0.25880 0.03480 0.36630 -0.10200
C 	C 	0.14090 0.95810 0.28620 -0.09200
H 	H 	0.05770 0.97420 0.29510 0.08100
C 	C 	0.14410 0.85990 0.19500 0.14900
C 	C 	0.24700 0.14820 0.45800 0.31100
C 	C 	0.52810 0.48170 0.82910 0.40100
C 	C 	0.65250 0.46720 0.79860 -0.13900
C 	C 	0.78030 0.52170 0.87520 0.11700
C 	C 	0.89470 0.49830 0.84310 -0.06100
H 	H 	0.98040 0.53130 0.89370 0.06100
C 	C 	0.88220 0.42770 0.73860 -0.13200
C 	C 	0.75510 0.37480 0.66170 0.13300
C 	C 	0.64200 0.39570 0.69370 -0.06700
H 	H 	0.55670 0.36050 0.64300 0.04900
C 	C 	0.00830 0.41130 0.70890 0.38500
