data_crystal

_cell_length_a 17.20230
_cell_length_b 17.20230
_cell_length_c 13.30860
_cell_angle_alpha 90.00000
_cell_angle_beta  90.00000
_cell_angle_gamma 90.00000

_symmetry_space_group_name_	'P 1'
_symmetry_space_group_name_H-M	'P 1'

loop_
_symmetry_equiv_pos_as_xyz
  x,y,z

loop_
_atom_site_label
_atom_site_type_symbol
_atom_site_fract_x
_atom_site_fract_y
_atom_site_fract_z
_atom_site_charge
P 	P 	0.67420 0.41960 0.95120 0.59700
P 	P 	0.82320 0.40820 0.61510 0.52500
P 	P 	0.60440 0.18330 0.87620 0.52000
P 	P 	0.59200 0.33430 0.54940 0.53900
F 	F 	0.73060 0.24220 0.64620 -0.58100
F 	F 	0.76440 0.27620 0.85310 -0.57400
O 	O 	0.69880 0.35330 0.01910 -0.37700
O 	O 	0.61320 0.46790 0.00380 -0.40700
O 	O 	0.54150 0.39140 0.49310 -0.36800
O 	O 	0.65230 0.19960 0.96880 -0.30000
O 	O 	0.62280 0.36420 0.64900 -0.37300
O 	O 	0.61410 0.24190 0.79220 -0.32400
O 	O 	0.53890 0.26280 0.57890 -0.15000
O 	O 	0.64990 0.39360 0.84630 -0.36900
O 	O 	0.78020 0.38700 0.70920 -0.31200
O 	O 	0.51850 0.17930 0.90680 -0.12700
O 	O 	0.65500 0.30520 0.47890 -0.33200
O 	O 	0.62820 0.10280 0.82990 -0.14700
O 	O 	0.74750 0.47400 0.93080 -0.12400
O 	O 	0.80720 0.35490 0.52560 -0.30500
O 	O 	0.91040 0.41020 0.63940 -0.08800
O 	O 	0.80310 0.49150 0.58660 -0.13500
Fe	Fe	0.69320 0.31790 0.74920 1.32800
Fe	Fe	0.75310 0.25400 0.99930 1.34800
P 	P 	0.32580 0.58040 0.95120 0.59700
P 	P 	0.17680 0.59180 0.61510 0.52600
P 	P 	0.39560 0.81670 0.87620 0.51900
P 	P 	0.40800 0.66570 0.54940 0.53900
F 	F 	0.26940 0.75780 0.64620 -0.57600
F 	F 	0.23560 0.72380 0.85310 -0.58000
O 	O 	0.30120 0.64670 0.01910 -0.37700
O 	O 	0.38680 0.53210 0.00380 -0.40800
O 	O 	0.45850 0.60860 0.49310 -0.36800
O 	O 	0.34770 0.80040 0.96880 -0.28900
O 	O 	0.37720 0.63580 0.64900 -0.37300
O 	O 	0.38590 0.75810 0.79220 -0.31900
O 	O 	0.46110 0.73720 0.57890 -0.14300
O 	O 	0.35010 0.60640 0.84630 -0.37000
O 	O 	0.21980 0.61300 0.70920 -0.32100
O 	O 	0.48150 0.82070 0.90680 -0.11300
O 	O 	0.34500 0.69480 0.47890 -0.33100
O 	O 	0.37180 0.89720 0.82990 -0.08800
O 	O 	0.25250 0.52600 0.93080 -0.13100
O 	O 	0.19280 0.64510 0.52560 -0.31700
O 	O 	0.08960 0.58980 0.63940 -0.15000
O 	O 	0.19690 0.50850 0.58660 -0.14500
Fe	Fe	0.30680 0.68210 0.74920 1.32700
Fe	Fe	0.24690 0.74600 0.99930 1.34700
P 	P 	0.41960 0.32580 0.04880 0.47200
P 	P 	0.40820 0.17680 0.38490 0.52500
P 	P 	0.18330 0.39560 0.12380 0.52000
P 	P 	0.33430 0.40800 0.45060 0.54000
F 	F 	0.24220 0.26940 0.35380 -0.58700
F 	F 	0.27620 0.23560 0.14690 -0.59600
O 	O 	0.35330 0.30120 0.98090 -0.28800
O 	O 	0.46790 0.38680 0.99620 -0.31600
O 	O 	0.39140 0.45850 0.50690 -0.36800
O 	O 	0.19960 0.34770 0.03120 -0.33300
O 	O 	0.36420 0.37720 0.35100 -0.37500
O 	O 	0.24190 0.38590 0.20780 -0.32800
O 	O 	0.26280 0.46110 0.42110 -0.15100
O 	O 	0.39360 0.35010 0.15370 -0.36300
O 	O 	0.38700 0.21980 0.29080 -0.32700
O 	O 	0.17930 0.48150 0.09320 -0.15000
O 	O 	0.30520 0.34500 0.52110 -0.33100
O 	O 	0.10280 0.37180 0.17010 -0.15500
O 	O 	0.47400 0.25250 0.06920 -0.16000
O 	O 	0.35490 0.19280 0.47440 -0.31700
O 	O 	0.41020 0.08960 0.36060 -0.15800
O 	O 	0.49150 0.19690 0.41340 -0.14600
Fe	Fe	0.31790 0.30680 0.25080 1.32500
Fe	Fe	0.25400 0.24690 0.00070 1.29900
P 	P 	0.58040 0.67420 0.04880 0.47500
P 	P 	0.59180 0.82320 0.38490 0.52400
P 	P 	0.81670 0.60440 0.12380 0.51900
P 	P 	0.66570 0.59200 0.45060 0.53900
F 	F 	0.75780 0.73060 0.35380 -0.57200
F 	F 	0.72380 0.76440 0.14690 -0.58100
O 	O 	0.64670 0.69880 0.98090 -0.29000
O 	O 	0.53210 0.61320 0.99620 -0.31700
O 	O 	0.60860 0.54150 0.50690 -0.36800
O 	O 	0.80040 0.65230 0.03120 -0.32000
O 	O 	0.63580 0.62280 0.35100 -0.37500
O 	O 	0.75810 0.61410 0.20780 -0.32300
O 	O 	0.73720 0.53890 0.42110 -0.14400
O 	O 	0.60640 0.64990 0.15370 -0.36300
O 	O 	0.61300 0.78020 0.29080 -0.31700
O 	O 	0.82070 0.51850 0.09320 -0.13500
O 	O 	0.69480 0.65500 0.52110 -0.33000
O 	O 	0.89720 0.62820 0.17010 -0.09100
O 	O 	0.52600 0.74750 0.06920 -0.15200
O 	O 	0.64510 0.80720 0.47440 -0.30500
O 	O 	0.58980 0.91040 0.36060 -0.09400
O 	O 	0.50850 0.80310 0.41340 -0.13700
Fe	Fe	0.68210 0.69320 0.25080 1.32700
Fe	Fe	0.74600 0.75310 0.00070 1.30300
P 	P 	0.82580 0.91960 0.54880 0.53500
P 	P 	0.67680 0.90820 0.88490 0.52200
P 	P 	0.89560 0.68330 0.62380 0.52000
P 	P 	0.90800 0.83430 0.95060 0.59300
F 	F 	0.76940 0.74220 0.85380 -0.56800
F 	F 	0.73560 0.77620 0.64690 -0.58200
O 	O 	0.80120 0.85330 0.48090 -0.31800
O 	O 	0.88680 0.96790 0.49620 -0.29700
O 	O 	0.95850 0.89140 0.00690 -0.33500
O 	O 	0.84770 0.69960 0.53120 -0.30000
O 	O 	0.87720 0.86420 0.85100 -0.35400
O 	O 	0.88590 0.74190 0.70780 -0.31000
O 	O 	0.96110 0.76280 0.92110 -0.09900
O 	O 	0.85010 0.89360 0.65370 -0.34300
O 	O 	0.71980 0.88700 0.79080 -0.30800
O 	O 	0.98150 0.67930 0.59320 -0.08400
O 	O 	0.84500 0.80520 0.02110 -0.34900
O 	O 	0.87180 0.60280 0.67010 -0.10600
O 	O 	0.75250 0.97400 0.56920 -0.10500
O 	O 	0.69280 0.85490 0.97440 -0.27900
O 	O 	0.58960 0.91020 0.86060 -0.09900
O 	O 	0.69690 0.99150 0.91340 -0.08400
Fe	Fe	0.80680 0.81790 0.75080 1.32900
Fe	Fe	0.74690 0.75400 0.50070 1.32500
P 	P 	0.17420 0.08040 0.54880 0.53300
P 	P 	0.32320 0.09180 0.88490 0.52500
P 	P 	0.10440 0.31670 0.62380 0.51900
P 	P 	0.09200 0.16570 0.95060 0.60100
F 	F 	0.23060 0.25780 0.85380 -0.56800
F 	F 	0.26440 0.22380 0.64690 -0.58300
O 	O 	0.19880 0.14670 0.48090 -0.34900
O 	O 	0.11320 0.03210 0.49620 -0.40900
O 	O 	0.04150 0.10860 0.00690 -0.45200
O 	O 	0.15230 0.30040 0.53120 -0.32100
O 	O 	0.12280 0.13580 0.85100 -0.39500
O 	O 	0.11410 0.25810 0.70780 -0.33300
O 	O 	0.03890 0.23720 0.92110 -0.16800
O 	O 	0.14990 0.10640 0.65370 -0.38500
O 	O 	0.28020 0.11300 0.79080 -0.32700
O 	O 	0.01850 0.32070 0.59320 -0.17700
O 	O 	0.15500 0.19480 0.02110 -0.38300
O 	O 	0.12820 0.39720 0.67010 -0.12800
O 	O 	0.24750 0.02600 0.56920 -0.17900
O 	O 	0.30720 0.14510 0.97440 -0.29600
O 	O 	0.41040 0.08980 0.86060 -0.13700
O 	O 	0.30310 0.00850 0.91340 -0.17600
Fe	Fe	0.19320 0.18210 0.75080 1.32600
Fe	Fe	0.25310 0.24600 0.50070 1.32300
P 	P 	0.08040 0.82580 0.45120 0.53600
P 	P 	0.09180 0.67680 0.11510 0.52700
P 	P 	0.31670 0.89560 0.37620 0.51900
P 	P 	0.16570 0.90800 0.04940 0.47700
F 	F 	0.25780 0.76940 0.14620 -0.58900
F 	F 	0.22380 0.73560 0.35310 -0.58500
O 	O 	0.14670 0.80120 0.51910 -0.33200
O 	O 	0.03210 0.88680 0.50380 -0.36100
O 	O 	0.10860 0.95850 0.99310 -0.29100
O 	O 	0.30040 0.84770 0.46880 -0.30000
O 	O 	0.13580 0.87720 0.14900 -0.37100
O 	O 	0.25810 0.88590 0.29220 -0.31500
O 	O 	0.23720 0.96110 0.07890 -0.12500
O 	O 	0.10640 0.85010 0.34630 -0.36300
O 	O 	0.11300 0.71980 0.20920 -0.33000
O 	O 	0.32070 0.98150 0.40680 -0.08600
O 	O 	0.19480 0.84500 0.97890 -0.29300
O 	O 	0.39720 0.87180 0.32990 -0.11300
O 	O 	0.02600 0.75250 0.43080 -0.17500
O 	O 	0.14510 0.69280 0.02560 -0.34300
O 	O 	0.08980 0.58960 0.13940 -0.14700
O 	O 	0.00850 0.69690 0.08660 -0.19600
Fe	Fe	0.18210 0.80680 0.24920 1.32600
Fe	Fe	0.24600 0.74690 0.49930 1.32500
P 	P 	0.91960 0.17420 0.45120 0.53200
P 	P 	0.90820 0.32320 0.11510 0.52400
P 	P 	0.68330 0.10440 0.37620 0.51900
P 	P 	0.83430 0.09200 0.04940 0.47900
F 	F 	0.74220 0.23060 0.14620 -0.59200
F 	F 	0.77620 0.26440 0.35310 -0.58200
O 	O 	0.85330 0.19880 0.51910 -0.33100
O 	O 	0.96790 0.11320 0.50380 -0.33500
O 	O 	0.89140 0.04150 0.99310 -0.31400
O 	O 	0.69960 0.15230 0.46880 -0.32000
O 	O 	0.86420 0.12280 0.14900 -0.36500
O 	O 	0.74190 0.11410 0.29220 -0.33500
O 	O 	0.76280 0.03890 0.07890 -0.19100
O 	O 	0.89360 0.14990 0.34630 -0.36500
O 	O 	0.88700 0.28020 0.20920 -0.31200
O 	O 	0.67930 0.01850 0.40680 -0.17600
O 	O 	0.80520 0.15500 0.97890 -0.29500
O 	O 	0.60280 0.12820 0.32990 -0.13600
O 	O 	0.97400 0.24750 0.43080 -0.10600
O 	O 	0.85490 0.30720 0.02560 -0.32500
O 	O 	0.91020 0.41040 0.13940 -0.10800
O 	O 	0.99150 0.30310 0.08660 -0.10500
Fe	Fe	0.81790 0.19320 0.24920 1.32600
Fe	Fe	0.75400 0.25310 0.49930 1.32400
Fe	Fe	0.50000 0.50000 -0.00000 1.17700
Fe	Fe	0.00000 0.00000 0.50000 1.11900
Fe	Fe	0.50000 0.50000 0.50000 1.20600
Fe	Fe	-0.00000 0.00000 -0.00000 1.10200
