data_crystal

_cell_length_a 11.52800
_cell_length_b 11.79100
_cell_length_c 20.33400
_cell_angle_alpha 94.01000
_cell_angle_beta  103.75000
_cell_angle_gamma 111.80000

_symmetry_space_group_name_	'P 1'
_symmetry_space_group_name_H-M	'P 1'

loop_
_symmetry_equiv_pos_as_xyz
  x,y,z

loop_
_atom_site_label
_atom_site_type_symbol
_atom_site_fract_x
_atom_site_fract_y
_atom_site_fract_z
_atom_site_charge
C 	C 	0.31610 0.19150 0.42240 -1.34400
H 	H 	0.28870 0.25540 0.43500 0.41700
H 	H 	0.27250 0.15490 0.37490 0.41800
H 	H 	0.40860 0.22680 0.42920 0.42400
O 	O 	0.32150 0.01240 0.46390 -0.55100
C 	C 	0.28350 0.09640 0.46510 0.73800
N 	N 	0.21350 0.10770 0.50610 -0.59400
H 	H 	0.19010 0.17250 0.50780 0.19800
C 	C 	0.17540 0.02300 0.55170 1.70100
H 	H 	0.23210 0.97870 0.55980 -0.44300
H 	H 	0.08700 0.96260 0.53060 -0.45000
C 	C 	0.18310 0.09170 0.62040 -3.62700
H 	H 	0.27190 0.15190 0.64080 1.09400
H 	H 	0.12770 0.13710 0.61140 1.12400
C 	C 	0.14660 0.01650 0.66790 4.49900
H 	H 	0.19410 0.96340 0.67090 -1.30900
H 	H 	0.05510 0.96290 0.64820 -1.27500
C 	C 	0.16180 0.06720 0.73650 -4.47000
H 	H 	0.24940 0.08190 0.76320 1.28700
H 	H 	0.10260 0.00310 0.75430 1.31500
C 	C 	0.14260 0.17790 0.75150 2.99300
H 	H 	0.05560 0.16640 0.72550 -0.90300
H 	H 	0.20440 0.24550 0.73700 -0.91700
C 	C 	0.15960 0.21270 0.82820 -1.51900
H 	H 	0.09340 0.14780 0.84180 0.41700
H 	H 	0.24400 0.21780 0.85430 0.43000
N 	N 	0.15030 0.32610 0.84430 -0.03000
H 	H 	0.06300 0.30260 0.82760 0.05900
O 	O 	0.35840 0.42890 0.90320 -0.54200
C 	C 	0.24890 0.42900 0.88090 0.42100
C 	C 	0.21950 0.53750 0.89260 -0.92700
H 	H 	0.12950 0.51740 0.86960 0.26400
H 	H 	0.27370 0.60430 0.87490 0.25800
H 	H 	0.23580 0.56230 0.94100 0.23500
C 	C 	0.43920 0.96760 0.31720 -1.05700
H 	H 	0.42710 0.97860 0.27010 0.29000
H 	H 	0.36010 0.95410 0.32930 0.32400
H 	H 	0.46100 0.89720 0.32300 0.31500
O 	O 	0.57100 0.09360 0.42600 -0.45300
C 	C 	0.54600 0.08010 0.36210 0.55600
N 	N 	0.61130 0.16720 0.33280 -0.29500
H 	H 	0.60030 0.18290 0.29050 0.11400
C 	C 	0.71980 0.28120 0.36820 0.07900
H 	H 	0.79970 0.27760 0.36280 0.02500
H 	H 	0.72650 0.29050 0.41700 0.00700
C 	C 	0.70410 0.39380 0.34060 -0.27900
H 	H 	0.78300 0.46710 0.36230 0.08900
H 	H 	0.69390 0.38230 0.29160 0.08400
C 	C 	0.58880 0.41520 0.35320 0.14300
H 	H 	0.50950 0.34760 0.32540 -0.04400
H 	H 	0.59150 0.41180 0.40100 -0.03600
C 	C 	0.58150 0.52890 0.33850 -0.32900
H 	H 	0.58080 0.53370 0.29100 0.10400
H 	H 	0.65920 0.59700 0.36730 0.08800
C 	C 	0.46180 0.54540 0.34980 0.11700
H 	H 	0.41590 0.55370 0.30510 -0.04100
H 	H 	0.40810 0.46520 0.35800 -0.02400
C 	C 	0.45300 0.61010 0.38480 -0.15900
H 	H 	0.50640 0.69050 0.37680 0.03500
H 	H 	0.49860 0.60190 0.42970 0.05700
N 	N 	0.33620 0.62380 0.39470 -0.29500
H 	H 	0.26890 0.55110 0.38560 0.11100
O 	O 	0.43720 0.82060 0.44240 -0.50100
C 	C 	0.33700 0.72730 0.42050 0.58400
C 	C 	0.20680 0.72260 0.42150 -1.18500
H 	H 	0.14100 0.64260 0.39860 0.35900
H 	H 	0.19020 0.78560 0.39840 0.38600
H 	H 	0.20490 0.73660 0.46830 0.38900
C 	C 	0.68390 0.80850 0.57760 -1.36700
H 	H 	0.71130 0.74460 0.56500 0.42200
H 	H 	0.72750 0.84510 0.62510 0.42300
H 	H 	0.59140 0.77320 0.57080 0.43000
O 	O 	0.67850 0.98760 0.53610 -0.55700
C 	C 	0.71650 0.90360 0.53490 0.75400
N 	N 	0.78650 0.89230 0.49390 -0.64600
H 	H 	0.80990 0.82750 0.49220 0.20400
C 	C 	0.82460 0.97700 0.44830 2.00200
H 	H 	0.76790 0.02130 0.44020 -0.52800
H 	H 	0.91300 0.03740 0.46940 -0.53300
C 	C 	0.81690 0.90830 0.37960 -4.25300
H 	H 	0.72810 0.84810 0.35920 1.27900
H 	H 	0.87230 0.86290 0.38860 1.31500
C 	C 	0.85340 0.98350 0.33210 5.32500
H 	H 	0.80590 0.03660 0.32910 -1.55400
H 	H 	0.94490 0.03710 0.35180 -1.51200
C 	C 	0.83820 0.93280 0.26350 -5.25800
H 	H 	0.75060 0.91810 0.23680 1.50800
H 	H 	0.89740 0.99690 0.24570 1.54400
C 	C 	0.85740 0.82210 0.24850 3.55200
H 	H 	0.94440 0.83360 0.27450 -1.07100
H 	H 	0.79560 0.75450 0.26300 -1.09200
C 	C 	0.84040 0.78730 0.17180 -1.79100
H 	H 	0.90660 0.85220 0.15820 0.48200
H 	H 	0.75600 0.78220 0.14570 0.49300
N 	N 	0.84970 0.67390 0.15570 0.01900
H 	H 	0.93700 0.69740 0.17240 0.04500
O 	O 	0.64160 0.57110 0.09680 -0.55900
C 	C 	0.75110 0.57100 0.11910 0.37500
C 	C 	0.78050 0.46250 0.10740 -0.83700
H 	H 	0.87050 0.48260 0.13040 0.22600
H 	H 	0.72630 0.39570 0.12510 0.21900
H 	H 	0.76420 0.43770 0.05900 0.18300
C 	C 	0.56080 0.03240 0.68280 -1.07900
H 	H 	0.57290 0.02140 0.72990 0.30600
H 	H 	0.63990 0.04590 0.67070 0.33300
H 	H 	0.53900 0.10280 0.67700 0.32700
O 	O 	0.42900 0.90640 0.57400 -0.45900
C 	C 	0.45400 0.91990 0.63790 0.56000
N 	N 	0.38870 0.83280 0.66720 -0.30000
H 	H 	0.39970 0.81710 0.70950 0.11900
C 	C 	0.28020 0.71880 0.63180 0.08300
H 	H 	0.20030 0.72240 0.63720 0.01700
H 	H 	0.27350 0.70950 0.58300 0.00300
C 	C 	0.29590 0.60620 0.65940 -0.28100
H 	H 	0.21700 0.53290 0.63770 0.08900
H 	H 	0.30610 0.61770 0.70840 0.08600
C 	C 	0.41120 0.58480 0.64680 0.14100
H 	H 	0.49050 0.65240 0.67460 -0.04100
H 	H 	0.40850 0.58820 0.59900 -0.03500
C 	C 	0.41850 0.47110 0.66150 -0.32600
H 	H 	0.41920 0.46630 0.70900 0.10600
H 	H 	0.34080 0.40300 0.63270 0.09100
C 	C 	0.53820 0.45460 0.65020 0.11200
H 	H 	0.58410 0.44630 0.69490 -0.03300
H 	H 	0.59190 0.53480 0.64200 -0.02100
C 	C 	0.54700 0.38990 0.61520 -0.15700
H 	H 	0.49360 0.30950 0.62320 0.04000
H 	H 	0.50140 0.39810 0.57030 0.05700
N 	N 	0.66380 0.37620 0.60530 -0.29500
H 	H 	0.73110 0.44890 0.61440 0.11300
O 	O 	0.56280 0.17940 0.55760 -0.50100
C 	C 	0.66300 0.27270 0.57950 0.58800
C 	C 	0.79320 0.27740 0.57850 -1.19300
H 	H 	0.85900 0.35740 0.60140 0.36200
H 	H 	0.80980 0.21440 0.60160 0.38900
H 	H 	0.79510 0.26340 0.53170 0.39500
Co	Co	0.50000 0.00000 0.50000 1.23300
Co	Co	0.50000 0.50000 -0.00000 0.98000
