data_crystal

_cell_length_a 13.99210
_cell_length_b 13.99210
_cell_length_c 25.70500
_cell_angle_alpha 90.00000
_cell_angle_beta  90.00000
_cell_angle_gamma 120.00000

_symmetry_space_group_name_	'P 1'
_symmetry_space_group_name_H-M	'P 1'

loop_
_symmetry_equiv_pos_as_xyz
  x,y,z

loop_
_atom_site_label
_atom_site_type_symbol
_atom_site_fract_x
_atom_site_fract_y
_atom_site_fract_z
_atom_site_charge
O 	O 	0.15000 0.12010 0.44972 -0.64300
C 	C 	0.24930 0.18160 0.43700 0.57900
C 	C 	0.32550 0.27330 0.47190 -1.05400
H 	H 	0.38350 0.33040 0.45160 0.30600
H 	H 	0.35680 0.24580 0.49700 0.30100
H 	H 	0.28540 0.30250 0.48960 0.30900
N 	N 	0.28800 0.16830 0.39340 -0.31300
H 	H 	0.35950 0.21000 0.38450 0.10600
C 	C 	0.22280 0.07960 0.35630 -0.01300
H 	H 	0.24980 0.10500 0.32140 0.00200
H 	H 	0.14640 0.06190 0.35780 0.01100
C 	C 	0.22910 0.97630 0.36770 -0.07800
H 	H 	0.30590 0.99500 0.36830 0.04200
H 	H 	0.19810 0.94850 0.40180 0.03700
C 	C 	0.16800 0.88730 0.32790 -0.12200
H 	H 	0.20200 0.91450 0.29420 0.05000
H 	H 	0.09270 0.87280 0.32580 0.05000
O 	O 	0.81667 0.45343 0.78305 -0.62500
C 	C 	0.91597 0.51493 0.77033 0.50100
C 	C 	0.99217 0.60663 0.80523 -0.73900
H 	H 	0.05017 0.66373 0.78493 0.19800
H 	H 	0.02347 0.57913 0.83033 0.18600
H 	H 	0.95207 0.63583 0.82293 0.22400
N 	N 	0.95467 0.50163 0.72673 -0.27400
H 	H 	0.02617 0.54333 0.71783 0.07800
C 	C 	0.88947 0.41293 0.68963 0.02300
H 	H 	0.91647 0.43833 0.65473 0.00500
H 	H 	0.81307 0.39523 0.69113 0.01300
C 	C 	0.89577 0.30963 0.70103 -0.12700
H 	H 	0.97257 0.32833 0.70163 0.05300
H 	H 	0.86477 0.28183 0.73513 0.04400
C 	C 	0.83467 0.22063 0.66123 -0.10100
H 	H 	0.86867 0.24783 0.62753 0.04100
H 	H 	0.75937 0.20613 0.65913 0.04400
O 	O 	0.48333 0.78677 0.11639 -0.65800
C 	C 	0.58263 0.84827 0.10367 0.61200
C 	C 	0.65883 0.93997 0.13857 -1.11100
H 	H 	0.71683 0.99707 0.11827 0.33500
H 	H 	0.69013 0.91247 0.16367 0.32300
H 	H 	0.61873 0.96917 0.15627 0.33600
N 	N 	0.62133 0.83497 0.06007 -0.32700
H 	H 	0.69283 0.87667 0.05117 0.11800
C 	C 	0.55613 0.74627 0.02297 0.05000
H 	H 	0.58313 0.77167 0.98807 -0.00700
H 	H 	0.47973 0.72857 0.02447 0.00600
C 	C 	0.56243 0.64297 0.03437 -0.15500
H 	H 	0.63923 0.66167 0.03497 0.05500
H 	H 	0.53143 0.61517 0.06847 0.05100
C 	C 	0.50133 0.55397 0.99457 -0.06700
H 	H 	0.53533 0.58117 0.96087 0.02700
H 	H 	0.42603 0.53947 0.99247 0.03400
O 	O 	0.87990 0.02990 0.44972 -0.64300
C 	C 	0.81840 0.06770 0.43700 0.62300
C 	C 	0.72670 0.05220 0.47190 -1.20500
H 	H 	0.66960 0.05310 0.45160 0.34400
H 	H 	0.75420 0.11100 0.49700 0.34400
H 	H 	0.69750 0.98290 0.48960 0.37700
N 	N 	0.83170 0.11970 0.39340 -0.33900
H 	H 	0.79000 0.14950 0.38450 0.11200
C 	C 	0.92040 0.14320 0.35630 0.11200
H 	H 	0.89500 0.14480 0.32140 -0.02800
H 	H 	0.93810 0.08450 0.35780 -0.01100
C 	C 	0.02370 0.25280 0.36770 -0.23400
H 	H 	0.00500 0.31090 0.36830 0.06500
H 	H 	0.05150 0.24960 0.40180 0.06700
C 	C 	0.11270 0.28070 0.32790 -0.01000
H 	H 	0.08550 0.28750 0.29420 0.00100
H 	H 	0.12720 0.21990 0.32580 0.01200
O 	O 	0.54657 0.36323 0.78305 -0.65400
C 	C 	0.48507 0.40103 0.77033 0.59100
C 	C 	0.39337 0.38553 0.80523 -1.05800
H 	H 	0.33627 0.38643 0.78493 0.30500
H 	H 	0.42087 0.44433 0.83033 0.30000
H 	H 	0.36417 0.31623 0.82293 0.30900
N 	N 	0.49837 0.45303 0.72673 -0.32400
H 	H 	0.45667 0.48283 0.71783 0.10900
C 	C 	0.58707 0.47653 0.68963 0.05600
H 	H 	0.56167 0.47813 0.65473 -0.01200
H 	H 	0.60477 0.41783 0.69113 0.00200
C 	C 	0.69037 0.58613 0.70103 -0.17400
H 	H 	0.67167 0.64423 0.70163 0.05900
H 	H 	0.71817 0.58293 0.73513 0.05700
C 	C 	0.77937 0.61403 0.66123 -0.03400
H 	H 	0.75217 0.62083 0.62753 0.01900
H 	H 	0.79387 0.55323 0.65913 0.02700
O 	O 	0.21323 0.69657 0.11639 -0.65400
C 	C 	0.15173 0.73437 0.10367 0.59100
C 	C 	0.06003 0.71887 0.13857 -1.05100
H 	H 	0.00293 0.71977 0.11827 0.30100
H 	H 	0.08753 0.77767 0.16367 0.30100
H 	H 	0.03083 0.64957 0.15627 0.30100
N 	N 	0.16503 0.78637 0.06007 -0.32800
H 	H 	0.12333 0.81617 0.05117 0.11100
C 	C 	0.25373 0.80987 0.02297 0.08400
H 	H 	0.22833 0.81147 0.98807 -0.02200
H 	H 	0.27143 0.75117 0.02447 -0.00700
C 	C 	0.35703 0.91947 0.03437 -0.21700
H 	H 	0.33833 0.97757 0.03497 0.08100
H 	H 	0.38483 0.91627 0.06847 0.07700
C 	C 	0.44603 0.94737 0.99457 0.02700
H 	H 	0.41883 0.95417 0.96087 0.00800
H 	H 	0.46053 0.88657 0.99247 0.01200
O 	O 	0.97010 0.85000 0.44972 -0.59400
C 	C 	0.93230 0.75070 0.43700 0.54500
C 	C 	0.94780 0.67450 0.47190 -0.91200
H 	H 	0.94690 0.61650 0.45160 0.27400
H 	H 	0.88900 0.64320 0.49700 0.26500
H 	H 	0.01710 0.71460 0.48960 0.25200
N 	N 	0.88030 0.71200 0.39340 -0.30500
H 	H 	0.85050 0.64050 0.38450 0.11000
C 	C 	0.85680 0.77720 0.35630 0.02600
H 	H 	0.85520 0.75020 0.32140 0.00300
H 	H 	0.91550 0.85360 0.35780 0.02400
C 	C 	0.74720 0.77090 0.36770 -0.13300
H 	H 	0.68910 0.69410 0.36830 0.04700
H 	H 	0.75040 0.80190 0.40180 0.05000
C 	C 	0.71930 0.83200 0.32790 -0.08800
H 	H 	0.71250 0.79800 0.29420 0.03500
H 	H 	0.78010 0.90730 0.32580 0.05000
O 	O 	0.63677 0.18333 0.78305 -0.68100
C 	C 	0.59897 0.08403 0.77033 0.68000
C 	C 	0.61447 0.00783 0.80523 -1.36900
H 	H 	0.61357 0.94983 0.78493 0.41700
H 	H 	0.55567 0.97653 0.83033 0.41400
H 	H 	0.68377 0.04793 0.82293 0.39900
N 	N 	0.54697 0.04533 0.72673 -0.36500
H 	H 	0.51717 0.97383 0.71783 0.13900
C 	C 	0.52347 0.11053 0.68963 0.05000
H 	H 	0.52187 0.08353 0.65473 -0.01600
H 	H 	0.58217 0.18693 0.69113 0.00300
C 	C 	0.41387 0.10423 0.70103 -0.14300
H 	H 	0.35577 0.02743 0.70163 0.04000
H 	H 	0.41707 0.13523 0.73513 0.04500
C 	C 	0.38597 0.16533 0.66123 -0.08700
H 	H 	0.37917 0.13133 0.62753 0.02900
H 	H 	0.44677 0.24063 0.65913 0.04100
O 	O 	0.30343 0.51667 0.11639 -0.65200
C 	C 	0.26563 0.41737 0.10367 0.58200
C 	C 	0.28113 0.34117 0.13857 -1.04500
H 	H 	0.28023 0.28317 0.11827 0.30000
H 	H 	0.22233 0.30987 0.16367 0.29200
H 	H 	0.35043 0.38127 0.15627 0.30700
N 	N 	0.21363 0.37867 0.06007 -0.31400
H 	H 	0.18383 0.30717 0.05117 0.10100
C 	C 	0.19013 0.44387 0.02297 0.00500
H 	H 	0.18853 0.41687 0.98807 -0.00100
H 	H 	0.24883 0.52027 0.02447 0.01800
C 	C 	0.08053 0.43757 0.03437 -0.07300
H 	H 	0.02243 0.36077 0.03497 0.01700
H 	H 	0.08373 0.46857 0.06847 0.01900
C 	C 	0.05263 0.49867 0.99457 -0.18300
H 	H 	0.04583 0.46467 0.96087 0.05100
H 	H 	0.11343 0.57397 0.99247 0.06400
O 	O 	0.85000 0.87990 0.55028 -0.61200
C 	C 	0.75070 0.81840 0.56300 0.58500
C 	C 	0.67450 0.72670 0.52810 -1.05900
H 	H 	0.61650 0.66960 0.54840 0.31000
H 	H 	0.64320 0.75420 0.50300 0.30500
H 	H 	0.71460 0.69750 0.51040 0.31600
N 	N 	0.71200 0.83170 0.60660 -0.32300
H 	H 	0.64050 0.79000 0.61550 0.11200
C 	C 	0.77720 0.92040 0.64370 0.08600
H 	H 	0.75020 0.89500 0.67860 -0.01500
H 	H 	0.85360 0.93810 0.64220 0.00700
C 	C 	0.77090 0.02370 0.63230 -0.20300
H 	H 	0.69410 0.00500 0.63170 0.05700
H 	H 	0.80190 0.05150 0.59820 0.06300
C 	C 	0.83200 0.11270 0.67210 -0.03700
H 	H 	0.79800 0.08550 0.70580 0.01300
H 	H 	0.90730 0.12720 0.67420 0.03100
O 	O 	0.51667 0.21323 0.88361 -0.65100
C 	C 	0.41737 0.15173 0.89633 0.57700
C 	C 	0.34117 0.06003 0.86143 -1.02500
H 	H 	0.28317 0.00293 0.88173 0.28800
H 	H 	0.30987 0.08753 0.83633 0.28700
H 	H 	0.38127 0.03083 0.84373 0.29300
N 	N 	0.37867 0.16503 0.93993 -0.31900
H 	H 	0.30717 0.12333 0.94883 0.10100
C 	C 	0.44387 0.25373 0.97703 0.04000
H 	H 	0.41687 0.22833 0.01193 -0.01200
H 	H 	0.52027 0.27143 0.97553 0.00600
C 	C 	0.43757 0.35703 0.96563 -0.14300
H 	H 	0.36077 0.33833 0.96503 0.04600
H 	H 	0.46857 0.38483 0.93153 0.04700
C 	C 	0.49867 0.44603 0.00543 -0.08000
H 	H 	0.46467 0.41883 0.03913 0.03000
H 	H 	0.57397 0.46053 0.00753 0.03900
O 	O 	0.18333 0.54657 0.21695 -0.68200
C 	C 	0.08403 0.48507 0.22967 0.68200
C 	C 	0.00783 0.39337 0.19477 -1.37600
H 	H 	0.94983 0.33627 0.21507 0.41800
H 	H 	0.97653 0.42087 0.16967 0.41500
H 	H 	0.04793 0.36417 0.17707 0.39800
N 	N 	0.04533 0.49837 0.27327 -0.36800
H 	H 	0.97383 0.45667 0.28217 0.14000
C 	C 	0.11053 0.58707 0.31037 0.06700
H 	H 	0.08353 0.56167 0.34527 -0.02100
H 	H 	0.18693 0.60477 0.30887 -0.00200
C 	C 	0.10423 0.69037 0.29897 -0.17600
H 	H 	0.02743 0.67167 0.29837 0.05100
H 	H 	0.13523 0.71817 0.26487 0.05600
C 	C 	0.16533 0.77937 0.33877 -0.03800
H 	H 	0.13133 0.75217 0.37247 0.01600
H 	H 	0.24063 0.79387 0.34087 0.02800
O 	O 	0.12010 0.97010 0.55028 -0.60500
C 	C 	0.18160 0.93230 0.56300 0.53800
C 	C 	0.27330 0.94780 0.52810 -0.89100
H 	H 	0.33040 0.94690 0.54840 0.26800
H 	H 	0.24580 0.88900 0.50300 0.25800
H 	H 	0.30250 0.01710 0.51040 0.24100
N 	N 	0.16830 0.88030 0.60660 -0.29800
H 	H 	0.21000 0.85050 0.61550 0.10700
C 	C 	0.07960 0.85680 0.64370 -0.02300
H 	H 	0.10500 0.85520 0.67860 0.01200
H 	H 	0.06190 0.91550 0.64220 0.02800
C 	C 	0.97630 0.74720 0.63230 -0.07200
H 	H 	0.99500 0.68910 0.63170 0.03900
H 	H 	0.94850 0.75040 0.59820 0.03700
C 	C 	0.88730 0.71930 0.67210 -0.13000
H 	H 	0.91450 0.71250 0.70580 0.05400
H 	H 	0.87280 0.78010 0.67420 0.06000
O 	O 	0.78677 0.30343 0.88361 -0.65600
C 	C 	0.84827 0.26563 0.89633 0.60200
C 	C 	0.93997 0.28113 0.86143 -1.09400
H 	H 	0.99707 0.28023 0.88173 0.32700
H 	H 	0.91247 0.22233 0.83633 0.31300
H 	H 	0.96917 0.35043 0.84373 0.33100
N 	N 	0.83497 0.21363 0.93993 -0.31900
H 	H 	0.87667 0.18383 0.94883 0.11200
C 	C 	0.74627 0.19013 0.97703 0.01400
H 	H 	0.77167 0.18853 0.01193 -0.00000
H 	H 	0.72857 0.24883 0.97553 0.01700
C 	C 	0.64297 0.08053 0.96563 -0.08200
H 	H 	0.66167 0.02243 0.96503 0.02300
H 	H 	0.61517 0.08373 0.93153 0.02200
C 	C 	0.55397 0.05263 0.00543 -0.17600
H 	H 	0.58117 0.04583 0.03913 0.04900
H 	H 	0.53947 0.11343 0.00753 0.06100
O 	O 	0.45343 0.63677 0.21695 -0.65500
C 	C 	0.51493 0.59897 0.22967 0.59700
C 	C 	0.60663 0.61447 0.19477 -1.07600
H 	H 	0.66373 0.61357 0.21507 0.31600
H 	H 	0.57913 0.55567 0.16967 0.30800
H 	H 	0.63583 0.68377 0.17707 0.31900
N 	N 	0.50163 0.54697 0.27327 -0.32100
H 	H 	0.54333 0.51717 0.28217 0.11000
C 	C 	0.41293 0.52347 0.31037 0.02900
H 	H 	0.43833 0.52187 0.34527 -0.00400
H 	H 	0.39523 0.58217 0.30887 0.01100
C 	C 	0.30963 0.41387 0.29897 -0.11900
H 	H 	0.32833 0.35577 0.29837 0.04100
H 	H 	0.28183 0.41707 0.26487 0.03900
C 	C 	0.22063 0.38597 0.33877 -0.11800
H 	H 	0.24783 0.37917 0.37247 0.04100
H 	H 	0.20613 0.44677 0.34087 0.04900
O 	O 	0.02990 0.15000 0.55028 -0.66200
C 	C 	0.06770 0.24930 0.56300 0.62500
C 	C 	0.05220 0.32550 0.52810 -1.22000
H 	H 	0.05310 0.38350 0.54840 0.34800
H 	H 	0.11100 0.35680 0.50300 0.34600
H 	H 	0.98290 0.28540 0.51040 0.38200
N 	N 	0.11970 0.28800 0.60660 -0.33500
H 	H 	0.14950 0.35950 0.61550 0.10900
C 	C 	0.14320 0.22280 0.64370 0.06200
H 	H 	0.14480 0.24980 0.67860 -0.02100
H 	H 	0.08450 0.14640 0.64220 -0.01100
C 	C 	0.25280 0.22910 0.63230 -0.17000
H 	H 	0.31090 0.30590 0.63170 0.05700
H 	H 	0.24960 0.19810 0.59820 0.05300
C 	C 	0.28070 0.16800 0.67210 -0.05300
H 	H 	0.28750 0.20200 0.70580 0.02000
H 	H 	0.21990 0.09270 0.67420 0.02200
O 	O 	0.69657 0.48333 0.88361 -0.65800
C 	C 	0.73437 0.58263 0.89633 0.60600
C 	C 	0.71887 0.65883 0.86143 -1.08900
H 	H 	0.71977 0.71683 0.88173 0.32100
H 	H 	0.77767 0.69013 0.83633 0.31700
H 	H 	0.64957 0.61873 0.84373 0.32100
N 	N 	0.78637 0.62133 0.93993 -0.33100
H 	H 	0.81617 0.69283 0.94883 0.11800
C 	C 	0.80987 0.55613 0.97703 0.08500
H 	H 	0.81147 0.58313 0.01193 -0.01800
H 	H 	0.75117 0.47973 0.97553 -0.00600
C 	C 	0.91947 0.56243 0.96563 -0.22200
H 	H 	0.97757 0.63923 0.96503 0.08400
H 	H 	0.91627 0.53143 0.93153 0.07800
C 	C 	0.94737 0.50133 0.00543 0.03400
H 	H 	0.95417 0.53533 0.03913 0.00600
H 	H 	0.88657 0.42603 0.00753 0.00900
O 	O 	0.36323 0.81667 0.21695 -0.62300
C 	C 	0.40103 0.91597 0.22967 0.49400
C 	C 	0.38553 0.99217 0.19477 -0.71300
H 	H 	0.38643 0.05017 0.21507 0.18700
H 	H 	0.44433 0.02347 0.16967 0.17700
H 	H 	0.31623 0.95207 0.17707 0.21500
N 	N 	0.45303 0.95467 0.27327 -0.27300
H 	H 	0.48283 0.02617 0.28217 0.07700
C 	C 	0.47653 0.88947 0.31037 0.03400
H 	H 	0.47813 0.91647 0.34527 0.00200
H 	H 	0.41783 0.81307 0.30887 0.01000
C 	C 	0.58613 0.89577 0.29897 -0.15000
H 	H 	0.64423 0.97257 0.29837 0.06000
H 	H 	0.58293 0.86477 0.26487 0.05100
C 	C 	0.61403 0.83467 0.33877 -0.06500
H 	H 	0.62083 0.86867 0.37247 0.03100
H 	H 	0.55323 0.75937 0.34087 0.03500
Nd	Nd	-0.00000 0.00000 0.50000 2.37500
Nd	Nd	0.66667 0.33333 0.83333 2.55900
Nd	Nd	0.33333 0.66667 0.16667 2.55900
