data_crystal

_cell_length_a 15.76000
_cell_length_b 15.76000
_cell_length_c 15.76000
_cell_angle_alpha 90.00000
_cell_angle_beta  90.00000
_cell_angle_gamma 90.00000

_symmetry_space_group_name_	'P 1'
_symmetry_space_group_name_H-M	'P 1'

loop_
_symmetry_equiv_pos_as_xyz
  x,y,z

loop_
_atom_site_label
_atom_site_type_symbol
_atom_site_fract_x
_atom_site_fract_y
_atom_site_fract_z
_atom_site_charge
N 	N 	0.41160 0.82050 0.19400 -0.26000
C 	C 	0.39140 0.89920 0.21380 0.13200
H 	H 	0.42030 0.92610 0.25770 -0.00400
N 	N 	0.08840 0.67950 0.19400 -0.27100
C 	C 	0.10860 0.60080 0.21380 0.12200
H 	H 	0.07970 0.57390 0.25770 -0.03400
N 	N 	0.08840 0.82050 0.30600 -0.27000
C 	C 	0.10860 0.89920 0.28620 0.13100
H 	H 	0.07970 0.92610 0.24230 -0.02600
N 	N 	0.41160 0.67950 0.30600 -0.26000
C 	C 	0.39140 0.60080 0.28620 0.13100
H 	H 	0.42030 0.57390 0.24230 -0.02000
N 	N 	0.19400 0.41160 0.82050 -0.26000
C 	C 	0.21380 0.39140 0.89920 0.13200
H 	H 	0.25770 0.42030 0.92610 -0.00400
N 	N 	0.19400 0.08840 0.67950 -0.27100
C 	C 	0.21380 0.10860 0.60080 0.12200
H 	H 	0.25770 0.07970 0.57390 -0.03400
N 	N 	0.30600 0.08840 0.82050 -0.27000
C 	C 	0.28620 0.10860 0.89920 0.13100
H 	H 	0.24230 0.07970 0.92610 -0.02600
N 	N 	0.30600 0.41160 0.67950 -0.26000
C 	C 	0.28620 0.39140 0.60080 0.13100
H 	H 	0.24230 0.42030 0.57390 -0.02000
N 	N 	0.82050 0.19400 0.41160 -0.26000
C 	C 	0.89920 0.21380 0.39140 0.13200
H 	H 	0.92610 0.25770 0.42030 -0.00400
N 	N 	0.67950 0.19400 0.08840 -0.27100
C 	C 	0.60080 0.21380 0.10860 0.12200
H 	H 	0.57390 0.25770 0.07970 -0.03400
N 	N 	0.82050 0.30600 0.08840 -0.27000
C 	C 	0.89920 0.28620 0.10860 0.13100
H 	H 	0.92610 0.24230 0.07970 -0.02600
N 	N 	0.67950 0.30600 0.41160 -0.26000
C 	C 	0.60080 0.28620 0.39140 0.13100
H 	H 	0.57390 0.24230 0.42030 -0.02000
N 	N 	0.32050 0.91160 0.80600 -0.24100
C 	C 	0.39920 0.89140 0.78620 0.13900
H 	H 	0.42610 0.92030 0.74230 0.00700
N 	N 	0.17950 0.58840 0.80600 -0.26100
C 	C 	0.10080 0.60860 0.78620 0.13000
H 	H 	0.07390 0.57970 0.74230 -0.02500
N 	N 	0.32050 0.58840 0.69400 -0.26100
C 	C 	0.39920 0.60860 0.71380 0.13100
H 	H 	0.42610 0.57970 0.75770 -0.01000
N 	N 	0.17950 0.91160 0.69400 -0.24200
C 	C 	0.10080 0.89140 0.71380 0.13000
H 	H 	0.07390 0.92030 0.75770 -0.00100
N 	N 	0.91160 0.69400 0.17950 -0.24200
C 	C 	0.89140 0.71380 0.10080 0.13000
H 	H 	0.92030 0.75770 0.07390 -0.00100
N 	N 	0.58840 0.69400 0.32050 -0.26100
C 	C 	0.60860 0.71380 0.39920 0.13100
H 	H 	0.57970 0.75770 0.42610 -0.01000
N 	N 	0.58840 0.80600 0.17950 -0.26100
C 	C 	0.60860 0.78620 0.10080 0.13000
H 	H 	0.57970 0.74230 0.07390 -0.02500
N 	N 	0.91160 0.80600 0.32050 -0.24100
C 	C 	0.89140 0.78620 0.39920 0.13900
H 	H 	0.92030 0.74230 0.42610 0.00700
N 	N 	0.69400 0.32050 0.58840 -0.26100
C 	C 	0.71380 0.39920 0.60860 0.13100
H 	H 	0.75770 0.42610 0.57970 -0.01000
N 	N 	0.69400 0.17950 0.91160 -0.24200
C 	C 	0.71380 0.10080 0.89140 0.13000
H 	H 	0.75770 0.07390 0.92030 -0.00100
N 	N 	0.80600 0.32050 0.91160 -0.24100
C 	C 	0.78620 0.39920 0.89140 0.13900
H 	H 	0.74230 0.42610 0.92030 0.00700
N 	N 	0.80600 0.17950 0.58840 -0.26100
C 	C 	0.78620 0.10080 0.60860 0.13000
H 	H 	0.74230 0.07390 0.57970 -0.02500
N 	N 	0.58840 0.17950 0.80600 -0.26100
C 	C 	0.60860 0.10080 0.78620 0.13000
H 	H 	0.57970 0.07390 0.74230 -0.02500
N 	N 	0.91160 0.32050 0.80600 -0.24100
C 	C 	0.89140 0.39920 0.78620 0.13900
H 	H 	0.92030 0.42610 0.74230 0.00700
N 	N 	0.91160 0.17950 0.69400 -0.24200
C 	C 	0.89140 0.10080 0.71380 0.13000
H 	H 	0.92030 0.07390 0.75770 -0.00100
N 	N 	0.58840 0.32050 0.69400 -0.26100
C 	C 	0.60860 0.39920 0.71380 0.13100
H 	H 	0.57970 0.42610 0.75770 -0.01000
N 	N 	0.80600 0.58840 0.17950 -0.26100
C 	C 	0.78620 0.60860 0.10080 0.13000
H 	H 	0.74230 0.57970 0.07390 -0.02500
N 	N 	0.80600 0.91160 0.32050 -0.24100
C 	C 	0.78620 0.89140 0.39920 0.13900
H 	H 	0.74230 0.92030 0.42610 0.00700
N 	N 	0.69400 0.91160 0.17950 -0.24200
C 	C 	0.71380 0.89140 0.10080 0.13000
H 	H 	0.75770 0.92030 0.07390 -0.00100
N 	N 	0.69400 0.58840 0.32050 -0.26100
C 	C 	0.71380 0.60860 0.39920 0.13100
H 	H 	0.75770 0.57970 0.42610 -0.01000
N 	N 	0.17950 0.80600 0.58840 -0.26100
C 	C 	0.10080 0.78620 0.60860 0.13000
H 	H 	0.07390 0.74230 0.57970 -0.02500
N 	N 	0.32050 0.80600 0.91160 -0.24100
C 	C 	0.39920 0.78620 0.89140 0.13900
H 	H 	0.42610 0.74230 0.92030 0.00700
N 	N 	0.17950 0.69400 0.91160 -0.24200
C 	C 	0.10080 0.71380 0.89140 0.13000
H 	H 	0.07390 0.75770 0.92030 -0.00100
N 	N 	0.32050 0.69400 0.58840 -0.26100
C 	C 	0.39920 0.71380 0.60860 0.13100
H 	H 	0.42610 0.75770 0.57970 -0.01000
N 	N 	0.67950 0.08840 0.19400 -0.27100
C 	C 	0.60080 0.10860 0.21380 0.12200
H 	H 	0.57390 0.07970 0.25770 -0.03400
N 	N 	0.82050 0.41160 0.19400 -0.26000
C 	C 	0.89920 0.39140 0.21380 0.13200
H 	H 	0.92610 0.42030 0.25770 -0.00400
N 	N 	0.67950 0.41160 0.30600 -0.26000
C 	C 	0.60080 0.39140 0.28620 0.13100
H 	H 	0.57390 0.42030 0.24230 -0.02000
N 	N 	0.82050 0.08840 0.30600 -0.27000
C 	C 	0.89920 0.10860 0.28620 0.13100
H 	H 	0.92610 0.07970 0.24230 -0.02600
N 	N 	0.08840 0.30600 0.82050 -0.27000
C 	C 	0.10860 0.28620 0.89920 0.13100
H 	H 	0.07970 0.24230 0.92610 -0.02600
N 	N 	0.41160 0.30600 0.67950 -0.26000
C 	C 	0.39140 0.28620 0.60080 0.13100
H 	H 	0.42030 0.24230 0.57390 -0.02000
N 	N 	0.41160 0.19400 0.82050 -0.26000
C 	C 	0.39140 0.21380 0.89920 0.13200
H 	H 	0.42030 0.25770 0.92610 -0.00400
N 	N 	0.08840 0.19400 0.67950 -0.27100
C 	C 	0.10860 0.21380 0.60080 0.12200
H 	H 	0.07970 0.25770 0.57390 -0.03400
N 	N 	0.30600 0.67950 0.41160 -0.26000
C 	C 	0.28620 0.60080 0.39140 0.13100
H 	H 	0.24230 0.57390 0.42030 -0.02000
N 	N 	0.30600 0.82050 0.08840 -0.27000
C 	C 	0.28620 0.89920 0.10860 0.13100
H 	H 	0.24230 0.92610 0.07970 -0.02600
N 	N 	0.19400 0.67950 0.08840 -0.27100
C 	C 	0.21380 0.60080 0.10860 0.12200
H 	H 	0.25770 0.57390 0.07970 -0.03400
N 	N 	0.19400 0.82050 0.41160 -0.26000
C 	C 	0.21380 0.89920 0.39140 0.13200
H 	H 	0.25770 0.92610 0.42030 -0.00400
Cu	Cu	0.50000 0.75000 0.25000 0.89200
Cu	Cu	-0.00000 0.75000 0.25000 0.85800
Cu	Cu	0.25000 0.50000 0.75000 0.89200
Cu	Cu	0.25000 0.00000 0.75000 0.85800
Cu	Cu	0.75000 0.25000 0.50000 0.89200
Cu	Cu	0.75000 0.25000 -0.00000 0.85800
Cu	Cu	0.50000 0.25000 0.75000 0.89200
Cu	Cu	-0.00000 0.25000 0.75000 0.85800
Cu	Cu	0.75000 0.50000 0.25000 0.89200
Cu	Cu	0.75000 0.00000 0.25000 0.85800
Cu	Cu	0.25000 0.75000 0.50000 0.89200
Cu	Cu	0.25000 0.75000 -0.00000 0.85800
C 	C 	0.37220 0.78120 0.12780 0.24700
O 	O 	0.39580 0.70920 0.10420 -0.31800
C 	C 	0.32870 0.94270 0.17130 -0.20600
H 	H 	0.31400 0.99700 0.18600 0.11000
C 	C 	0.12780 0.71880 0.12780 0.23900
O 	O 	0.10420 0.79080 0.10420 -0.32900
C 	C 	0.17130 0.55730 0.17130 -0.21600
H 	H 	0.18600 0.50300 0.18600 0.08600
C 	C 	0.12780 0.78120 0.37220 0.24700
O 	O 	0.10420 0.70920 0.39580 -0.31800
C 	C 	0.17130 0.94270 0.32870 -0.20600
H 	H 	0.18600 0.99700 0.31400 0.11000
C 	C 	0.37220 0.71880 0.37220 0.24700
O 	O 	0.39580 0.79080 0.39580 -0.29500
C 	C 	0.32870 0.55730 0.32870 -0.20600
H 	H 	0.31400 0.50300 0.31400 0.09400
C 	C 	0.12780 0.37220 0.78120 0.24700
O 	O 	0.10420 0.39580 0.70920 -0.31800
C 	C 	0.17130 0.32870 0.94270 -0.20600
H 	H 	0.18600 0.31400 0.99700 0.11000
C 	C 	0.12780 0.12780 0.71880 0.23900
O 	O 	0.10420 0.10420 0.79080 -0.32900
C 	C 	0.17130 0.17130 0.55730 -0.21600
H 	H 	0.18600 0.18600 0.50300 0.08600
C 	C 	0.37220 0.12780 0.78120 0.24700
O 	O 	0.39580 0.10420 0.70920 -0.31800
C 	C 	0.32870 0.17130 0.94270 -0.20600
H 	H 	0.31400 0.18600 0.99700 0.11000
C 	C 	0.37220 0.37220 0.71880 0.24700
O 	O 	0.39580 0.39580 0.79080 -0.29500
C 	C 	0.32870 0.32870 0.55730 -0.20600
H 	H 	0.31400 0.31400 0.50300 0.09400
C 	C 	0.78120 0.12780 0.37220 0.24700
O 	O 	0.70920 0.10420 0.39580 -0.31800
C 	C 	0.94270 0.17130 0.32870 -0.20600
H 	H 	0.99700 0.18600 0.31400 0.11000
C 	C 	0.71880 0.12780 0.12780 0.23900
O 	O 	0.79080 0.10420 0.10420 -0.32900
C 	C 	0.55730 0.17130 0.17130 -0.21600
H 	H 	0.50300 0.18600 0.18600 0.08600
C 	C 	0.78120 0.37220 0.12780 0.24700
O 	O 	0.70920 0.39580 0.10420 -0.31800
C 	C 	0.94270 0.32870 0.17130 -0.20600
H 	H 	0.99700 0.31400 0.18600 0.11000
C 	C 	0.71880 0.37220 0.37220 0.24700
O 	O 	0.79080 0.39580 0.39580 -0.29500
C 	C 	0.55730 0.32870 0.32870 -0.20600
H 	H 	0.50300 0.31400 0.31400 0.09400
C 	C 	0.28120 0.87220 0.87220 0.25800
O 	O 	0.20920 0.89580 0.89580 -0.26600
C 	C 	0.44270 0.82870 0.82870 -0.19300
H 	H 	0.49700 0.81400 0.81400 0.11700
C 	C 	0.21880 0.62780 0.87220 0.25000
O 	O 	0.29080 0.60420 0.89580 -0.28100
C 	C 	0.05730 0.67130 0.82870 -0.20300
H 	H 	0.00300 0.68600 0.81400 0.09300
C 	C 	0.28120 0.62780 0.62780 0.24900
O 	O 	0.20920 0.60420 0.60420 -0.30700
C 	C 	0.44270 0.67130 0.67130 -0.20500
H 	H 	0.49700 0.68600 0.68600 0.10900
C 	C 	0.21880 0.87220 0.62780 0.25000
O 	O 	0.29080 0.89580 0.60420 -0.28100
C 	C 	0.05730 0.82870 0.67130 -0.20300
H 	H 	0.00300 0.81400 0.68600 0.09300
C 	C 	0.87220 0.62780 0.21880 0.25000
O 	O 	0.89580 0.60420 0.29080 -0.28100
C 	C 	0.82870 0.67130 0.05730 -0.20300
H 	H 	0.81400 0.68600 0.00300 0.09300
C 	C 	0.62780 0.62780 0.28120 0.24900
O 	O 	0.60420 0.60420 0.20920 -0.30700
C 	C 	0.67130 0.67130 0.44270 -0.20500
H 	H 	0.68600 0.68600 0.49700 0.10900
C 	C 	0.62780 0.87220 0.21880 0.25000
O 	O 	0.60420 0.89580 0.29080 -0.28100
C 	C 	0.67130 0.82870 0.05730 -0.20300
H 	H 	0.68600 0.81400 0.00300 0.09300
C 	C 	0.87220 0.87220 0.28120 0.25800
O 	O 	0.89580 0.89580 0.20920 -0.26600
C 	C 	0.82870 0.82870 0.44270 -0.19300
H 	H 	0.81400 0.81400 0.49700 0.11700
C 	C 	0.62780 0.28120 0.62780 0.24900
O 	O 	0.60420 0.20920 0.60420 -0.30700
C 	C 	0.67130 0.44270 0.67130 -0.20500
H 	H 	0.68600 0.49700 0.68600 0.10900
C 	C 	0.62780 0.21880 0.87220 0.25000
O 	O 	0.60420 0.29080 0.89580 -0.28100
C 	C 	0.67130 0.05730 0.82870 -0.20300
H 	H 	0.68600 0.00300 0.81400 0.09300
C 	C 	0.87220 0.28120 0.87220 0.25800
O 	O 	0.89580 0.20920 0.89580 -0.26600
C 	C 	0.82870 0.44270 0.82870 -0.19300
H 	H 	0.81400 0.49700 0.81400 0.11700
C 	C 	0.87220 0.21880 0.62780 0.25000
O 	O 	0.89580 0.29080 0.60420 -0.28100
C 	C 	0.82870 0.05730 0.67130 -0.20300
H 	H 	0.81400 0.00300 0.68600 0.09300
