data_crystal

_cell_length_a 42.68000
_cell_length_b 42.68000
_cell_length_c 16.66000
_cell_angle_alpha 90.00000
_cell_angle_beta  90.00000
_cell_angle_gamma 120.00000

_symmetry_space_group_name_	'P 1'
_symmetry_space_group_name_H-M	'P 1'

loop_
_symmetry_equiv_pos_as_xyz
  x,y,z

loop_
_atom_site_label
_atom_site_type_symbol
_atom_site_fract_x
_atom_site_fract_y
_atom_site_fract_z
_atom_site_charge
C 	C 	0.14880 0.65310 0.96090 -0.10100
H 	H 	0.13130 0.63530 0.92780 0.05800
C 	C 	0.22640 0.74200 0.74660 -0.08200
H 	H 	0.21220 0.73040 0.70210 0.06400
C 	C 	0.21899 0.72969 0.82870 0.12200
C 	C 	0.08625 0.59325 0.63290 0.57000
O 	O 	0.05392 0.58510 0.64720 -0.79100
O 	O 	0.09719 0.57946 0.58060 -0.66800
C 	C 	0.14944 0.62884 0.68810 0.20200
H 	H 	0.15590 0.61570 0.65430 -0.02100
C 	C 	0.11470 0.62280 0.68520 -0.27900
C 	C 	0.16490 0.67150 0.79090 0.19800
C 	C 	0.17477 0.65347 0.73890 -0.27800
H 	H 	0.19840 0.65790 0.73800 0.13600
C 	C 	0.10440 0.64170 0.73240 0.17000
H 	H 	0.08110 0.63810 0.72920 -0.05000
C 	C 	0.18120 0.68590 0.93470 0.12500
C 	C 	0.18990 0.69610 0.85550 -0.15800
C 	C 	0.13030 0.66770 0.78750 -0.24900
H 	H 	0.12420 0.68150 0.82010 0.11100
C 	C 	0.34690 0.49570 0.96090 -0.10200
H 	H 	0.36470 0.49600 0.92780 0.05800
C 	C 	0.25800 0.48440 0.74660 -0.08400
H 	H 	0.26960 0.48180 0.70210 0.06300
C 	C 	0.27031 0.48930 0.82870 0.12100
C 	C 	0.40675 0.49300 0.63290 0.56800
O 	O 	0.41490 0.46882 0.64720 -0.78600
O 	O 	0.42054 0.51773 0.58060 -0.66800
C 	C 	0.37116 0.52060 0.68810 0.19900
H 	H 	0.38430 0.54020 0.65430 -0.02000
C 	C 	0.37720 0.49190 0.68520 -0.27600
C 	C 	0.32850 0.49340 0.79090 0.19700
C 	C 	0.34653 0.52130 0.73890 -0.27700
H 	H 	0.34210 0.54050 0.73800 0.13500
C 	C 	0.35830 0.46270 0.73240 0.16900
H 	H 	0.36190 0.44300 0.72920 -0.04700
C 	C 	0.31410 0.49530 0.93470 0.12500
C 	C 	0.30390 0.49380 0.85550 -0.15800
C 	C 	0.33230 0.46260 0.78750 -0.24700
H 	H 	0.31850 0.44270 0.82010 0.11100
C 	C 	0.50430 0.85120 0.96090 -0.10100
H 	H 	0.50400 0.86870 0.92780 0.06000
C 	C 	0.51560 0.77360 0.74660 -0.08300
H 	H 	0.51820 0.78780 0.70210 0.06400
C 	C 	0.51070 0.78101 0.82870 0.12100
C 	C 	0.50700 0.91375 0.63290 0.56600
O 	O 	0.53118 0.94608 0.64720 -0.77700
O 	O 	0.48227 0.90281 0.58060 -0.66700
C 	C 	0.47940 0.85056 0.68810 0.19800
H 	H 	0.45980 0.84410 0.65430 -0.01900
C 	C 	0.50810 0.88530 0.68520 -0.27200
C 	C 	0.50660 0.83510 0.79090 0.19700
C 	C 	0.47870 0.82523 0.73890 -0.27500
H 	H 	0.45950 0.80160 0.73800 0.13500
C 	C 	0.53730 0.89560 0.73240 0.16800
H 	H 	0.55700 0.91890 0.72920 -0.04100
C 	C 	0.50470 0.81880 0.93470 0.12600
C 	C 	0.50620 0.81010 0.85550 -0.15700
C 	C 	0.53740 0.86970 0.78750 -0.24400
H 	H 	0.55730 0.87580 0.82010 0.11500
C 	C 	0.85120 0.34690 0.96090 -0.10100
H 	H 	0.86870 0.36470 0.92780 0.06000
C 	C 	0.77360 0.25800 0.74660 -0.08300
H 	H 	0.78780 0.26960 0.70210 0.06400
C 	C 	0.78101 0.27031 0.82870 0.12100
C 	C 	0.91375 0.40675 0.63290 0.56600
O 	O 	0.94608 0.41490 0.64720 -0.77800
O 	O 	0.90281 0.42054 0.58060 -0.66700
C 	C 	0.85056 0.37116 0.68810 0.19800
H 	H 	0.84410 0.38430 0.65430 -0.01900
C 	C 	0.88530 0.37720 0.68520 -0.27300
C 	C 	0.83510 0.32850 0.79090 0.19700
C 	C 	0.82523 0.34653 0.73890 -0.27500
H 	H 	0.80160 0.34210 0.73800 0.13500
C 	C 	0.89560 0.35830 0.73240 0.16800
H 	H 	0.91890 0.36190 0.72920 -0.04100
C 	C 	0.81880 0.31410 0.93470 0.12600
C 	C 	0.81010 0.30390 0.85550 -0.15700
C 	C 	0.86970 0.33230 0.78750 -0.24400
H 	H 	0.87580 0.31850 0.82010 0.11400
C 	C 	0.65310 0.50430 0.96090 -0.10100
H 	H 	0.63530 0.50400 0.92780 0.05900
C 	C 	0.74200 0.51560 0.74660 -0.08300
H 	H 	0.73040 0.51820 0.70210 0.06400
C 	C 	0.72969 0.51070 0.82870 0.12100
C 	C 	0.59325 0.50700 0.63290 0.56800
O 	O 	0.58510 0.53118 0.64720 -0.78500
O 	O 	0.57946 0.48227 0.58060 -0.66800
C 	C 	0.62884 0.47940 0.68810 0.19900
H 	H 	0.61570 0.45980 0.65430 -0.02000
C 	C 	0.62280 0.50810 0.68520 -0.27600
C 	C 	0.67150 0.50660 0.79090 0.19800
C 	C 	0.65347 0.47870 0.73890 -0.27700
H 	H 	0.65790 0.45950 0.73800 0.13600
C 	C 	0.64170 0.53730 0.73240 0.17000
H 	H 	0.63810 0.55700 0.72920 -0.04500
C 	C 	0.68590 0.50470 0.93470 0.12600
C 	C 	0.69610 0.50620 0.85550 -0.15700
C 	C 	0.66770 0.53740 0.78750 -0.24700
H 	H 	0.68150 0.55730 0.82010 0.11300
C 	C 	0.49570 0.14880 0.96090 -0.10200
H 	H 	0.49600 0.13130 0.92780 0.05700
C 	C 	0.48440 0.22640 0.74660 -0.08400
H 	H 	0.48180 0.21220 0.70210 0.06300
C 	C 	0.48930 0.21899 0.82870 0.12100
C 	C 	0.49300 0.08625 0.63290 0.56900
O 	O 	0.46882 0.05392 0.64720 -0.79300
O 	O 	0.51773 0.09719 0.58060 -0.66900
C 	C 	0.52060 0.14944 0.68810 0.20100
H 	H 	0.54020 0.15590 0.65430 -0.02100
C 	C 	0.49190 0.11470 0.68520 -0.27900
C 	C 	0.49340 0.16490 0.79090 0.19800
C 	C 	0.52130 0.17477 0.73890 -0.27800
H 	H 	0.54050 0.19840 0.73800 0.13600
C 	C 	0.46270 0.10440 0.73240 0.17000
H 	H 	0.44300 0.08110 0.72920 -0.05000
C 	C 	0.49530 0.18120 0.93470 0.12500
C 	C 	0.49380 0.18990 0.85550 -0.15800
C 	C 	0.46260 0.13030 0.78750 -0.24900
H 	H 	0.44270 0.12420 0.82010 0.11000
C 	C 	0.65310 0.14880 0.03910 -0.06300
H 	H 	0.63530 0.13130 0.07220 0.04700
C 	C 	0.74200 0.22640 0.25340 -0.08300
H 	H 	0.73040 0.21220 0.29790 0.06400
C 	C 	0.72969 0.21899 0.17130 0.12200
C 	C 	0.59325 0.08625 0.36710 0.56900
O 	O 	0.58510 0.05392 0.35280 -0.79100
O 	O 	0.57946 0.09719 0.41940 -0.66800
C 	C 	0.62884 0.14944 0.31190 0.20100
H 	H 	0.61570 0.15590 0.34570 -0.02000
C 	C 	0.62280 0.11470 0.31480 -0.27800
C 	C 	0.67150 0.16490 0.20910 0.19700
C 	C 	0.65347 0.17477 0.26110 -0.27700
H 	H 	0.65790 0.19840 0.26200 0.13600
C 	C 	0.64170 0.10440 0.26760 0.17100
H 	H 	0.63810 0.08110 0.27080 -0.04900
C 	C 	0.68590 0.18120 0.06530 0.12300
C 	C 	0.69610 0.18990 0.14450 -0.15500
C 	C 	0.66770 0.13030 0.21250 -0.24800
H 	H 	0.68150 0.12420 0.17990 0.11300
C 	C 	0.49570 0.34690 0.03910 -0.06300
H 	H 	0.49600 0.36470 0.07220 0.04900
C 	C 	0.48440 0.25800 0.25340 -0.08300
H 	H 	0.48180 0.26960 0.29790 0.06300
C 	C 	0.48930 0.27031 0.17130 0.12100
C 	C 	0.49300 0.40675 0.36710 0.56800
O 	O 	0.46882 0.41490 0.35280 -0.78500
O 	O 	0.51773 0.42054 0.41940 -0.66800
C 	C 	0.52060 0.37116 0.31190 0.19900
H 	H 	0.54020 0.38430 0.34570 -0.02000
C 	C 	0.49190 0.37720 0.31480 -0.27500
C 	C 	0.49340 0.32850 0.20910 0.19600
C 	C 	0.52130 0.34653 0.26110 -0.27600
H 	H 	0.54050 0.34210 0.26200 0.13600
C 	C 	0.46270 0.35830 0.26760 0.16900
H 	H 	0.44300 0.36190 0.27080 -0.04500
C 	C 	0.49530 0.31410 0.06530 0.12300
C 	C 	0.49380 0.30390 0.14450 -0.15400
C 	C 	0.46260 0.33230 0.21250 -0.24600
H 	H 	0.44270 0.31850 0.17990 0.11300
C 	C 	0.85120 0.50430 0.03910 -0.06200
H 	H 	0.86870 0.50400 0.07220 0.05100
C 	C 	0.77360 0.51560 0.25340 -0.08200
H 	H 	0.78780 0.51820 0.29790 0.06500
C 	C 	0.78101 0.51070 0.17130 0.12200
C 	C 	0.91375 0.50700 0.36710 0.56600
O 	O 	0.94608 0.53118 0.35280 -0.77600
O 	O 	0.90281 0.48227 0.41940 -0.66700
C 	C 	0.85056 0.47940 0.31190 0.19800
H 	H 	0.84410 0.45980 0.34570 -0.01900
C 	C 	0.88530 0.50810 0.31480 -0.27200
C 	C 	0.83510 0.50660 0.20910 0.19600
C 	C 	0.82523 0.47870 0.26110 -0.27400
H 	H 	0.80160 0.45950 0.26200 0.13500
C 	C 	0.89560 0.53730 0.26760 0.16800
H 	H 	0.91890 0.55700 0.27080 -0.04000
C 	C 	0.81880 0.50470 0.06530 0.12400
C 	C 	0.81010 0.50620 0.14450 -0.15400
C 	C 	0.86970 0.53740 0.21250 -0.24300
H 	H 	0.87580 0.55730 0.17990 0.11600
C 	C 	0.34690 0.85120 0.03910 -0.06200
H 	H 	0.36470 0.86870 0.07220 0.05000
C 	C 	0.25800 0.77360 0.25340 -0.08300
H 	H 	0.26960 0.78780 0.29790 0.06400
C 	C 	0.27031 0.78101 0.17130 0.12200
C 	C 	0.40675 0.91375 0.36710 0.56600
O 	O 	0.41490 0.94608 0.35280 -0.77700
O 	O 	0.42054 0.90281 0.41940 -0.66700
C 	C 	0.37116 0.85056 0.31190 0.19700
H 	H 	0.38430 0.84410 0.34570 -0.01900
C 	C 	0.37720 0.88530 0.31480 -0.27200
C 	C 	0.32850 0.83510 0.20910 0.19600
C 	C 	0.34653 0.82523 0.26110 -0.27400
H 	H 	0.34210 0.80160 0.26200 0.13500
C 	C 	0.35830 0.89560 0.26760 0.16800
H 	H 	0.36190 0.91890 0.27080 -0.04000
C 	C 	0.31410 0.81880 0.06530 0.12400
C 	C 	0.30390 0.81010 0.14450 -0.15400
C 	C 	0.33230 0.86970 0.21250 -0.24300
H 	H 	0.31850 0.87580 0.17990 0.11500
C 	C 	0.50430 0.65310 0.03910 -0.06300
H 	H 	0.50400 0.63530 0.07220 0.04900
C 	C 	0.51560 0.74200 0.25340 -0.08200
H 	H 	0.51820 0.73040 0.29790 0.06400
C 	C 	0.51070 0.72969 0.17130 0.12200
C 	C 	0.50700 0.59325 0.36710 0.56800
O 	O 	0.53118 0.58510 0.35280 -0.78400
O 	O 	0.48227 0.57946 0.41940 -0.66800
C 	C 	0.47940 0.62884 0.31190 0.19900
H 	H 	0.45980 0.61570 0.34570 -0.02000
C 	C 	0.50810 0.62280 0.31480 -0.27500
C 	C 	0.50660 0.67150 0.20910 0.19700
C 	C 	0.47870 0.65347 0.26110 -0.27600
H 	H 	0.45950 0.65790 0.26200 0.13600
C 	C 	0.53730 0.64170 0.26760 0.17000
H 	H 	0.55700 0.63810 0.27080 -0.04400
C 	C 	0.50470 0.68590 0.06530 0.12400
C 	C 	0.50620 0.69610 0.14450 -0.15400
C 	C 	0.53740 0.66770 0.21250 -0.24500
H 	H 	0.55730 0.68150 0.17990 0.11500
C 	C 	0.14880 0.49570 0.03910 -0.06400
H 	H 	0.13130 0.49600 0.07220 0.04700
C 	C 	0.22640 0.48440 0.25340 -0.08300
H 	H 	0.21220 0.48180 0.29790 0.06300
C 	C 	0.21899 0.48930 0.17130 0.12100
C 	C 	0.08625 0.49300 0.36710 0.56900
O 	O 	0.05392 0.46882 0.35280 -0.79200
O 	O 	0.09719 0.51773 0.41940 -0.66800
C 	C 	0.14944 0.52060 0.31190 0.20000
H 	H 	0.15590 0.54020 0.34570 -0.02000
C 	C 	0.11470 0.49190 0.31480 -0.27800
C 	C 	0.16490 0.49340 0.20910 0.19700
C 	C 	0.17477 0.52130 0.26110 -0.27700
H 	H 	0.19840 0.54050 0.26200 0.13600
C 	C 	0.10440 0.46270 0.26760 0.17000
H 	H 	0.08110 0.44300 0.27080 -0.04900
C 	C 	0.18120 0.49530 0.06530 0.12300
C 	C 	0.18990 0.49380 0.14450 -0.15500
C 	C 	0.13030 0.46260 0.21250 -0.24800
H 	H 	0.12420 0.44270 0.17990 0.11200
C 	C 	0.85120 0.34690 0.03910 -0.06200
H 	H 	0.86870 0.36470 0.07220 0.05000
C 	C 	0.77360 0.25800 0.25340 -0.08300
H 	H 	0.78780 0.26960 0.29790 0.06400
C 	C 	0.78101 0.27031 0.17130 0.12200
C 	C 	0.91375 0.40675 0.36710 0.56600
O 	O 	0.94608 0.41490 0.35280 -0.77700
O 	O 	0.90281 0.42054 0.41940 -0.66700
C 	C 	0.85056 0.37116 0.31190 0.19700
H 	H 	0.84410 0.38430 0.34570 -0.01900
C 	C 	0.88530 0.37720 0.31480 -0.27200
C 	C 	0.83510 0.32850 0.20910 0.19600
C 	C 	0.82523 0.34653 0.26110 -0.27400
H 	H 	0.80160 0.34210 0.26200 0.13500
C 	C 	0.89560 0.35830 0.26760 0.16800
H 	H 	0.91890 0.36190 0.27080 -0.04000
C 	C 	0.81880 0.31410 0.06530 0.12400
C 	C 	0.81010 0.30390 0.14450 -0.15400
C 	C 	0.86970 0.33230 0.21250 -0.24300
H 	H 	0.87580 0.31850 0.17990 0.11500
C 	C 	0.65310 0.50430 0.03910 -0.06300
H 	H 	0.63530 0.50400 0.07220 0.04900
C 	C 	0.74200 0.51560 0.25340 -0.08200
H 	H 	0.73040 0.51820 0.29790 0.06400
C 	C 	0.72969 0.51070 0.17130 0.12200
C 	C 	0.59325 0.50700 0.36710 0.56800
O 	O 	0.58510 0.53118 0.35280 -0.78400
O 	O 	0.57946 0.48227 0.41940 -0.66800
C 	C 	0.62884 0.47940 0.31190 0.19900
H 	H 	0.61570 0.45980 0.34570 -0.02000
C 	C 	0.62280 0.50810 0.31480 -0.27500
C 	C 	0.67150 0.50660 0.20910 0.19700
C 	C 	0.65347 0.47870 0.26110 -0.27600
H 	H 	0.65790 0.45950 0.26200 0.13600
C 	C 	0.64170 0.53730 0.26760 0.17000
H 	H 	0.63810 0.55700 0.27080 -0.04400
C 	C 	0.68590 0.50470 0.06530 0.12400
C 	C 	0.69610 0.50620 0.14450 -0.15400
C 	C 	0.66770 0.53740 0.21250 -0.24500
H 	H 	0.68150 0.55730 0.17990 0.11500
C 	C 	0.49570 0.14880 0.03910 -0.06400
H 	H 	0.49600 0.13130 0.07220 0.04700
C 	C 	0.48440 0.22640 0.25340 -0.08300
H 	H 	0.48180 0.21220 0.29790 0.06300
C 	C 	0.48930 0.21899 0.17130 0.12100
C 	C 	0.49300 0.08625 0.36710 0.56900
O 	O 	0.46882 0.05392 0.35280 -0.79200
O 	O 	0.51773 0.09719 0.41940 -0.66800
C 	C 	0.52060 0.14944 0.31190 0.20000
H 	H 	0.54020 0.15590 0.34570 -0.02000
C 	C 	0.49190 0.11470 0.31480 -0.27800
C 	C 	0.49340 0.16490 0.20910 0.19700
C 	C 	0.52130 0.17477 0.26110 -0.27700
H 	H 	0.54050 0.19840 0.26200 0.13600
C 	C 	0.46270 0.10440 0.26760 0.17000
H 	H 	0.44300 0.08110 0.27080 -0.04900
C 	C 	0.49530 0.18120 0.06530 0.12300
C 	C 	0.49380 0.18990 0.14450 -0.15500
C 	C 	0.46260 0.13030 0.21250 -0.24800
H 	H 	0.44270 0.12420 0.17990 0.11200
C 	C 	0.14880 0.65310 0.03910 -0.06300
H 	H 	0.13130 0.63530 0.07220 0.04700
C 	C 	0.22640 0.74200 0.25340 -0.08300
H 	H 	0.21220 0.73040 0.29790 0.06400
C 	C 	0.21899 0.72969 0.17130 0.12200
C 	C 	0.08625 0.59325 0.36710 0.56900
O 	O 	0.05392 0.58510 0.35280 -0.79100
O 	O 	0.09719 0.57946 0.41940 -0.66800
C 	C 	0.14944 0.62884 0.31190 0.20100
H 	H 	0.15590 0.61570 0.34570 -0.02000
C 	C 	0.11470 0.62280 0.31480 -0.27800
C 	C 	0.16490 0.67150 0.20910 0.19700
C 	C 	0.17477 0.65347 0.26110 -0.27700
H 	H 	0.19840 0.65790 0.26200 0.13600
C 	C 	0.10440 0.64170 0.26760 0.17100
H 	H 	0.08110 0.63810 0.27080 -0.04900
C 	C 	0.18120 0.68590 0.06530 0.12300
C 	C 	0.18990 0.69610 0.14450 -0.15500
C 	C 	0.13030 0.66770 0.21250 -0.24800
H 	H 	0.12420 0.68150 0.17990 0.11300
C 	C 	0.34690 0.49570 0.03910 -0.06300
H 	H 	0.36470 0.49600 0.07220 0.04900
C 	C 	0.25800 0.48440 0.25340 -0.08300
H 	H 	0.26960 0.48180 0.29790 0.06300
C 	C 	0.27031 0.48930 0.17130 0.12100
C 	C 	0.40675 0.49300 0.36710 0.56800
O 	O 	0.41490 0.46882 0.35280 -0.78500
O 	O 	0.42054 0.51773 0.41940 -0.66800
C 	C 	0.37116 0.52060 0.31190 0.19900
H 	H 	0.38430 0.54020 0.34570 -0.02000
C 	C 	0.37720 0.49190 0.31480 -0.27500
C 	C 	0.32850 0.49340 0.20910 0.19600
C 	C 	0.34653 0.52130 0.26110 -0.27600
H 	H 	0.34210 0.54050 0.26200 0.13600
C 	C 	0.35830 0.46270 0.26760 0.16900
H 	H 	0.36190 0.44300 0.27080 -0.04500
C 	C 	0.31410 0.49530 0.06530 0.12300
C 	C 	0.30390 0.49380 0.14450 -0.15400
C 	C 	0.33230 0.46260 0.21250 -0.24600
H 	H 	0.31850 0.44270 0.17990 0.11300
C 	C 	0.50430 0.85120 0.03910 -0.06200
H 	H 	0.50400 0.86870 0.07220 0.05100
C 	C 	0.51560 0.77360 0.25340 -0.08200
H 	H 	0.51820 0.78780 0.29790 0.06500
C 	C 	0.51070 0.78101 0.17130 0.12200
C 	C 	0.50700 0.91375 0.36710 0.56600
O 	O 	0.53118 0.94608 0.35280 -0.77600
O 	O 	0.48227 0.90281 0.41940 -0.66700
C 	C 	0.47940 0.85056 0.31190 0.19800
H 	H 	0.45980 0.84410 0.34570 -0.01900
C 	C 	0.50810 0.88530 0.31480 -0.27200
C 	C 	0.50660 0.83510 0.20910 0.19600
C 	C 	0.47870 0.82523 0.26110 -0.27400
H 	H 	0.45950 0.80160 0.26200 0.13500
C 	C 	0.53730 0.89560 0.26760 0.16800
H 	H 	0.55700 0.91890 0.27080 -0.04000
C 	C 	0.50470 0.81880 0.06530 0.12400
C 	C 	0.50620 0.81010 0.14450 -0.15400
C 	C 	0.53740 0.86970 0.21250 -0.24300
H 	H 	0.55730 0.87580 0.17990 0.11600
C 	C 	0.34690 0.85120 0.96090 -0.10100
H 	H 	0.36470 0.86870 0.92780 0.06000
C 	C 	0.25800 0.77360 0.74660 -0.08300
H 	H 	0.26960 0.78780 0.70210 0.06400
C 	C 	0.27031 0.78101 0.82870 0.12100
C 	C 	0.40675 0.91375 0.63290 0.56600
O 	O 	0.41490 0.94608 0.64720 -0.77800
O 	O 	0.42054 0.90281 0.58060 -0.66700
C 	C 	0.37116 0.85056 0.68810 0.19800
H 	H 	0.38430 0.84410 0.65430 -0.01900
C 	C 	0.37720 0.88530 0.68520 -0.27300
C 	C 	0.32850 0.83510 0.79090 0.19700
C 	C 	0.34653 0.82523 0.73890 -0.27500
H 	H 	0.34210 0.80160 0.73800 0.13500
C 	C 	0.35830 0.89560 0.73240 0.16800
H 	H 	0.36190 0.91890 0.72920 -0.04100
C 	C 	0.31410 0.81880 0.93470 0.12600
C 	C 	0.30390 0.81010 0.85550 -0.15700
C 	C 	0.33230 0.86970 0.78750 -0.24400
H 	H 	0.31850 0.87580 0.82010 0.11400
C 	C 	0.50430 0.65310 0.96090 -0.10100
H 	H 	0.50400 0.63530 0.92780 0.05900
C 	C 	0.51560 0.74200 0.74660 -0.08300
H 	H 	0.51820 0.73040 0.70210 0.06400
C 	C 	0.51070 0.72969 0.82870 0.12100
C 	C 	0.50700 0.59325 0.63290 0.56800
O 	O 	0.53118 0.58510 0.64720 -0.78500
O 	O 	0.48227 0.57946 0.58060 -0.66800
C 	C 	0.47940 0.62884 0.68810 0.19900
H 	H 	0.45980 0.61570 0.65430 -0.02000
C 	C 	0.50810 0.62280 0.68520 -0.27600
C 	C 	0.50660 0.67150 0.79090 0.19800
C 	C 	0.47870 0.65347 0.73890 -0.27700
H 	H 	0.45950 0.65790 0.73800 0.13600
C 	C 	0.53730 0.64170 0.73240 0.17000
H 	H 	0.55700 0.63810 0.72920 -0.04500
C 	C 	0.50470 0.68590 0.93470 0.12600
C 	C 	0.50620 0.69610 0.85550 -0.15700
C 	C 	0.53740 0.66770 0.78750 -0.24700
H 	H 	0.55730 0.68150 0.82010 0.11300
C 	C 	0.14880 0.49570 0.96090 -0.10200
H 	H 	0.13130 0.49600 0.92780 0.05700
C 	C 	0.22640 0.48440 0.74660 -0.08400
H 	H 	0.21220 0.48180 0.70210 0.06300
C 	C 	0.21899 0.48930 0.82870 0.12100
C 	C 	0.08625 0.49300 0.63290 0.56900
O 	O 	0.05392 0.46882 0.64720 -0.79300
O 	O 	0.09719 0.51773 0.58060 -0.66900
C 	C 	0.14944 0.52060 0.68810 0.20100
H 	H 	0.15590 0.54020 0.65430 -0.02100
C 	C 	0.11470 0.49190 0.68520 -0.27900
C 	C 	0.16490 0.49340 0.79090 0.19800
C 	C 	0.17477 0.52130 0.73890 -0.27800
H 	H 	0.19840 0.54050 0.73800 0.13600
C 	C 	0.10440 0.46270 0.73240 0.17000
H 	H 	0.08110 0.44300 0.72920 -0.05000
C 	C 	0.18120 0.49530 0.93470 0.12500
C 	C 	0.18990 0.49380 0.85550 -0.15800
C 	C 	0.13030 0.46260 0.78750 -0.24900
H 	H 	0.12420 0.44270 0.82010 0.11000
C 	C 	0.65310 0.14880 0.96090 -0.10200
H 	H 	0.63530 0.13130 0.92780 0.05700
C 	C 	0.74200 0.22640 0.74660 -0.08300
H 	H 	0.73040 0.21220 0.70210 0.06300
C 	C 	0.72969 0.21899 0.82870 0.12100
C 	C 	0.59325 0.08625 0.63290 0.56900
O 	O 	0.58510 0.05392 0.64720 -0.79200
O 	O 	0.57946 0.09719 0.58060 -0.66900
C 	C 	0.62884 0.14944 0.68810 0.20100
H 	H 	0.61570 0.15590 0.65430 -0.02100
C 	C 	0.62280 0.11470 0.68520 -0.27900
C 	C 	0.67150 0.16490 0.79090 0.19800
C 	C 	0.65347 0.17477 0.73890 -0.27800
H 	H 	0.65790 0.19840 0.73800 0.13600
C 	C 	0.64170 0.10440 0.73240 0.17000
H 	H 	0.63810 0.08110 0.72920 -0.05000
C 	C 	0.68590 0.18120 0.93470 0.12500
C 	C 	0.69610 0.18990 0.85550 -0.15800
C 	C 	0.66770 0.13030 0.78750 -0.24900
H 	H 	0.68150 0.12420 0.82010 0.11100
C 	C 	0.49570 0.34690 0.96090 -0.10200
H 	H 	0.49600 0.36470 0.92780 0.05800
C 	C 	0.48440 0.25800 0.74660 -0.08400
H 	H 	0.48180 0.26960 0.70210 0.06300
C 	C 	0.48930 0.27031 0.82870 0.12100
C 	C 	0.49300 0.40675 0.63290 0.56800
O 	O 	0.46882 0.41490 0.64720 -0.78600
O 	O 	0.51773 0.42054 0.58060 -0.66800
C 	C 	0.52060 0.37116 0.68810 0.19900
H 	H 	0.54020 0.38430 0.65430 -0.02000
C 	C 	0.49190 0.37720 0.68520 -0.27600
C 	C 	0.49340 0.32850 0.79090 0.19700
C 	C 	0.52130 0.34653 0.73890 -0.27700
H 	H 	0.54050 0.34210 0.73800 0.13500
C 	C 	0.46270 0.35830 0.73240 0.16900
H 	H 	0.44300 0.36190 0.72920 -0.04700
C 	C 	0.49530 0.31410 0.93470 0.12500
C 	C 	0.49380 0.30390 0.85550 -0.15800
C 	C 	0.46260 0.33230 0.78750 -0.24700
H 	H 	0.44270 0.31850 0.82010 0.11100
C 	C 	0.85120 0.50430 0.96090 -0.10100
H 	H 	0.86870 0.50400 0.92780 0.06000
C 	C 	0.77360 0.51560 0.74660 -0.08300
H 	H 	0.78780 0.51820 0.70210 0.06400
C 	C 	0.78101 0.51070 0.82870 0.12100
C 	C 	0.91375 0.50700 0.63290 0.56600
O 	O 	0.94608 0.53118 0.64720 -0.77700
O 	O 	0.90281 0.48227 0.58060 -0.66700
C 	C 	0.85056 0.47940 0.68810 0.19800
H 	H 	0.84410 0.45980 0.65430 -0.01900
C 	C 	0.88530 0.50810 0.68520 -0.27200
C 	C 	0.83510 0.50660 0.79090 0.19700
C 	C 	0.82523 0.47870 0.73890 -0.27500
H 	H 	0.80160 0.45950 0.73800 0.13500
C 	C 	0.89560 0.53730 0.73240 0.16800
H 	H 	0.91890 0.55700 0.72920 -0.04100
C 	C 	0.81880 0.50470 0.93470 0.12600
C 	C 	0.81010 0.50620 0.85550 -0.15700
C 	C 	0.86970 0.53740 0.78750 -0.24400
H 	H 	0.87580 0.55730 0.82010 0.11500
Cl	Cl	0.27740 0.72260 -0.00000 -0.46400
Fe	Fe	0.24760 0.75240 -0.00000 1.21400
Cl	Cl	0.27740 0.55480 -0.00000 -0.46400
Fe	Fe	0.24760 0.49520 -0.00000 1.21400
Cl	Cl	0.44520 0.72260 -0.00000 -0.46400
Fe	Fe	0.50480 0.75240 -0.00000 1.21400
Cl	Cl	0.72260 0.27740 -0.00000 -0.46400
Fe	Fe	0.75240 0.24760 -0.00000 1.21400
Cl	Cl	0.72260 0.44520 -0.00000 -0.46400
Fe	Fe	0.75240 0.50480 -0.00000 1.21400
Cl	Cl	0.55480 0.27740 -0.00000 -0.46400
Fe	Fe	0.49520 0.24760 -0.00000 1.21400
O 	O 	0.03176 0.47496 0.50000 -1.35900
O 	O 	0.52504 0.55680 0.50000 -1.34900
O 	O 	0.44320 0.96824 0.50000 -1.33700
O 	O 	0.96824 0.52504 0.50000 -1.33700
O 	O 	0.47496 0.44320 0.50000 -1.34900
O 	O 	0.55680 0.03176 0.50000 -1.35900
O 	O 	0.47496 0.03176 0.50000 -1.35900
O 	O 	0.55680 0.52504 0.50000 -1.34900
O 	O 	0.96824 0.44320 0.50000 -1.33700
O 	O 	0.52504 0.96824 0.50000 -1.33700
O 	O 	0.44320 0.47496 0.50000 -1.34900
O 	O 	0.03176 0.55680 0.50000 -1.35900
N 	N 	0.24655 0.75345 0.87880 -0.24100
N 	N 	0.24655 0.49310 0.87880 -0.24200
N 	N 	0.50690 0.75345 0.87880 -0.24100
N 	N 	0.75345 0.24655 0.87880 -0.24100
N 	N 	0.75345 0.50690 0.87880 -0.24100
N 	N 	0.49310 0.24655 0.87880 -0.24200
N 	N 	0.75345 0.24655 0.12120 -0.23900
N 	N 	0.49310 0.24655 0.12120 -0.23900
N 	N 	0.75345 0.50690 0.12120 -0.23800
N 	N 	0.24655 0.75345 0.12120 -0.23900
N 	N 	0.50690 0.75345 0.12120 -0.23800
N 	N 	0.24655 0.49310 0.12120 -0.23900
O 	O 	0.03303 0.51651 0.39320 -1.33700
O 	O 	0.48349 0.51651 0.39320 -1.32800
O 	O 	0.48349 0.96697 0.39320 -1.31600
O 	O 	0.96697 0.48349 0.39320 -1.31600
O 	O 	0.51651 0.48348 0.39320 -1.32800
O 	O 	0.51651 0.03303 0.39320 -1.33700
O 	O 	0.51651 0.03303 0.60680 -1.33700
O 	O 	0.51651 0.48349 0.60680 -1.32800
O 	O 	0.96697 0.48349 0.60680 -1.31700
O 	O 	0.48349 0.96697 0.60680 -1.31700
O 	O 	0.48349 0.51651 0.60680 -1.32800
O 	O 	0.03303 0.51651 0.60680 -1.33700
Zr	Zr	0.00000 0.45878 0.60564 3.17700
Zr	Zr	0.54122 0.54122 0.60564 3.18100
Zr	Zr	0.45878 0.00000 0.60564 3.17700
Zr	Zr	0.00000 0.54122 0.60564 3.17800
Zr	Zr	0.45878 0.45878 0.60564 3.18100
Zr	Zr	0.54122 0.00000 0.60564 3.17800
Zr	Zr	0.45878 -0.00000 0.39436 3.17800
Zr	Zr	0.54122 0.54122 0.39436 3.18200
Zr	Zr	0.00000 0.45878 0.39436 3.17800
Zr	Zr	0.54122 -0.00000 0.39436 3.17800
Zr	Zr	0.45878 0.45878 0.39436 3.18100
Zr	Zr	0.00000 0.54122 0.39436 3.17800
Zr	Zr	0.06648 0.53324 0.50000 3.21500
Zr	Zr	0.46676 0.53324 0.50000 3.21500
Zr	Zr	0.46676 0.93352 0.50000 3.21500
Zr	Zr	0.93352 0.46676 0.50000 3.21500
Zr	Zr	0.53324 0.46676 0.50000 3.21500
Zr	Zr	0.53324 0.06648 0.50000 3.21500
N 	N 	0.19970 0.70620 -0.00000 -0.24100
N 	N 	0.29380 0.49350 -0.00000 -0.24100
N 	N 	0.50650 0.80030 -0.00000 -0.24000
N 	N 	0.80030 0.29380 -0.00000 -0.24000
N 	N 	0.70620 0.50650 -0.00000 -0.24100
N 	N 	0.49350 0.19970 -0.00000 -0.24100
N 	N 	0.70620 0.19970 -0.00000 -0.24100
N 	N 	0.49350 0.29380 -0.00000 -0.24100
N 	N 	0.80030 0.50650 -0.00000 -0.24000
N 	N 	0.29380 0.80030 -0.00000 -0.24000
N 	N 	0.50650 0.70620 -0.00000 -0.24100
N 	N 	0.19970 0.49350 -0.00000 -0.24100
Cl	Cl	0.78520 0.57040 -0.00000 -0.44300
Cl	Cl	0.42960 0.21480 -0.00000 -0.45200
Cl	Cl	0.78520 0.21480 -0.00000 -0.44700
Cl	Cl	0.21480 0.42960 -0.00000 -0.45200
Cl	Cl	0.57040 0.78520 -0.00000 -0.44300
Cl	Cl	0.21480 0.78520 -0.00000 -0.44700
