data_crystal

_cell_length_a 5.04830
_cell_length_b 10.21140
_cell_length_c 10.21140
_cell_angle_alpha 97.69890
_cell_angle_beta  96.63590
_cell_angle_gamma 83.36410

_symmetry_space_group_name_	'P 1'
_symmetry_space_group_name_H-M	'P 1'

loop_
_symmetry_equiv_pos_as_xyz
  x,y,z

loop_
_atom_site_label
_atom_site_type_symbol
_atom_site_fract_x
_atom_site_fract_y
_atom_site_fract_z
_atom_site_charge
Ba	Ba	0.66105 0.10554 0.89446 1.75500
Ba	Ba	0.33895 0.89446 0.10554 1.80100
U 	U 	0.50000 0.00000 0.50000 0.01500
U 	U 	0.50000 0.50000 -0.00000 0.01000
P 	P 	0.09730 0.88009 0.70393 0.48900
P 	P 	0.90270 0.70393 0.88009 0.40600
P 	P 	0.90270 0.11991 0.29607 0.40700
P 	P 	0.09730 0.29607 0.11991 0.48900
H 	H 	0.14860 0.65250 0.70030 0.15300
H 	H 	0.85140 0.70030 0.65250 0.11800
H 	H 	0.85140 0.34750 0.29970 0.11800
H 	H 	0.14860 0.29970 0.34750 0.15300
C 	C 	-0.00000 0.71900 0.71900 -0.32400
C 	C 	0.00000 0.28100 0.28100 -0.32400
O 	O 	0.36500 0.13226 0.61426 -0.19300
O 	O 	0.27480 0.85951 0.58771 -0.21500
O 	O 	0.22520 0.94442 0.83262 -0.54900
O 	O 	0.83180 0.96435 0.66375 -0.37000
O 	O 	0.63500 0.61426 0.13226 -0.21400
O 	O 	0.72520 0.58771 0.85951 -0.22000
O 	O 	0.77480 0.83262 0.94442 -0.56200
O 	O 	0.16820 0.66375 0.96435 -0.30800
O 	O 	0.63500 0.86774 0.38574 -0.21400
O 	O 	0.72520 0.14049 0.41229 -0.22100
O 	O 	0.77480 0.05558 0.16738 -0.56300
O 	O 	0.16820 0.03565 0.33625 -0.31000
O 	O 	0.36500 0.38574 0.86774 -0.19100
O 	O 	0.27480 0.41229 0.14049 -0.21500
O 	O 	0.22520 0.16738 0.05558 -0.55000
O 	O 	0.83180 0.33625 0.03565 -0.37100
