data_crystal

_cell_length_a 12.77000
_cell_length_b 16.42800
_cell_length_c 30.19500
_cell_angle_alpha 90.00000
_cell_angle_beta  90.00000
_cell_angle_gamma 108.08300

_symmetry_space_group_name_	'P 1'
_symmetry_space_group_name_H-M	'P 1'

loop_
_symmetry_equiv_pos_as_xyz
  x,y,z

loop_
_atom_site_label
_atom_site_type_symbol
_atom_site_fract_x
_atom_site_fract_y
_atom_site_fract_z
_atom_site_charge
Cu	Cu	0.48590 0.26947 0.65542 0.90000
Cu	Cu	0.61954 0.64601 0.88437 0.82600
Cu	Cu	0.55345 0.28040 0.05925 0.82600
Cu	Cu	0.51410 0.23053 0.15542 0.90100
Cu	Cu	0.38046 0.85399 0.38437 0.82700
Cu	Cu	0.44655 0.21960 0.55925 0.82600
Cu	Cu	0.51410 0.73053 0.34458 0.90100
Cu	Cu	0.38046 0.35399 0.11563 0.82700
Cu	Cu	0.44655 0.71960 0.94075 0.82600
Cu	Cu	0.48590 0.76947 0.84458 0.90100
Cu	Cu	0.61954 0.14601 0.61563 0.82700
Cu	Cu	0.55345 0.78040 0.44075 0.82600
H 	H 	0.36620 0.39140 0.68840 -0.02300
H 	H 	0.27250 0.40570 0.75220 0.09200
H 	H 	0.28740 0.17810 0.79540 0.09500
H 	H 	0.38110 0.16380 0.73150 -0.04000
H 	H 	0.96100 0.27370 0.79860 0.24200
H 	H 	0.03640 0.23050 0.77290 0.24100
H 	H 	0.05900 0.32970 0.76970 0.23800
H 	H 	0.13810 0.30290 0.97610 0.22400
H 	H 	0.02720 0.23930 0.95860 0.22200
H 	H 	0.04540 0.33820 0.95820 0.21700
H 	H 	0.42990 0.33800 0.82540 0.27200
H 	H 	0.44000 0.30080 0.87240 0.26300
H 	H 	0.44500 0.39690 0.86730 0.26100
H 	H 	0.49740 0.42310 0.01150 -0.05100
H 	H 	0.39010 0.16700 0.99910 -0.03800
H 	H 	0.27150 0.17870 0.94300 0.08700
H 	H 	0.37880 0.43490 0.95530 0.06800
H 	H 	0.55730 0.15370 0.87900 0.25800
H 	H 	0.56170 0.24100 0.85680 0.24200
H 	H 	0.56900 0.23460 0.90850 0.24600
H 	H 	0.86670 0.06280 0.87150 0.24300
H 	H 	0.96830 0.11930 0.89850 0.23700
H 	H 	0.96960 0.12260 0.84660 0.23800
H 	H 	0.93240 0.47160 0.87830 0.23600
H 	H 	0.01400 0.44160 0.84850 0.23000
H 	H 	0.02570 0.44180 0.90020 0.22400
H 	H 	0.67770 0.52970 0.95000 -0.04100
H 	H 	0.74110 0.41180 0.94850 0.07300
H 	H 	0.71700 0.40470 0.81580 0.07500
H 	H 	0.65360 0.52260 0.81730 -0.02000
H 	H 	0.51780 0.91730 0.91880 -0.04300
H 	H 	0.62430 0.05820 0.93070 0.08900
H 	H 	0.72920 0.07480 0.80460 0.07800
H 	H 	0.62270 0.93390 0.79260 -0.00900
H 	H 	0.70270 0.29070 0.76650 0.42500
H 	H 	0.80930 0.28390 0.74300 0.41300
H 	H 	0.72490 0.20210 0.76370 0.42000
H 	H 	0.24440 0.26280 0.64210 0.01200
H 	H 	0.20950 0.19620 0.60350 -0.01200
H 	H 	0.25500 0.29430 0.59290 -0.00500
H 	H 	0.63380 0.10860 0.18840 -0.02300
H 	H 	0.72750 0.09430 0.25220 0.09200
H 	H 	0.71260 0.32190 0.29540 0.09500
H 	H 	0.61890 0.33620 0.23150 -0.04000
H 	H 	0.03900 0.22630 0.29860 0.24500
H 	H 	0.96360 0.26950 0.27290 0.24400
H 	H 	0.94100 0.17030 0.26970 0.24100
H 	H 	0.86190 0.19710 0.47610 0.22400
H 	H 	0.97280 0.26070 0.45860 0.22200
H 	H 	0.95460 0.16180 0.45820 0.21700
H 	H 	0.57010 0.16200 0.32540 0.27300
H 	H 	0.56000 0.19920 0.37240 0.26400
H 	H 	0.55500 0.10310 0.36730 0.26200
H 	H 	0.50260 0.07690 0.51150 -0.05100
H 	H 	0.60990 0.33300 0.49910 -0.03800
H 	H 	0.72850 0.32130 0.44300 0.08700
H 	H 	0.62120 0.06510 0.45530 0.06900
H 	H 	0.44270 0.34630 0.37900 0.25700
H 	H 	0.43830 0.25900 0.35680 0.24100
H 	H 	0.43100 0.26540 0.40850 0.24500
H 	H 	0.13330 0.43720 0.37150 0.24300
H 	H 	0.03170 0.38070 0.39850 0.23700
H 	H 	0.03040 0.37740 0.34660 0.23800
H 	H 	0.06760 0.02840 0.37830 0.23100
H 	H 	0.98600 0.05840 0.34850 0.22400
H 	H 	0.97430 0.05820 0.40020 0.21900
H 	H 	0.32230 0.97030 0.45000 -0.04000
H 	H 	0.25890 0.08820 0.44850 0.07200
H 	H 	0.28300 0.09530 0.31580 0.07400
H 	H 	0.34640 0.97740 0.31730 -0.02000
H 	H 	0.48220 0.58270 0.41880 -0.04200
H 	H 	0.37570 0.44180 0.43070 0.08900
H 	H 	0.27080 0.42520 0.30460 0.07800
H 	H 	0.37730 0.56610 0.29260 -0.00800
H 	H 	0.29730 0.20930 0.26650 0.42500
H 	H 	0.19070 0.21610 0.24300 0.41300
H 	H 	0.27510 0.29790 0.26370 0.42000
H 	H 	0.75560 0.23720 0.14210 0.01100
H 	H 	0.79050 0.30380 0.10350 -0.01300
H 	H 	0.74500 0.20570 0.09290 -0.00600
H 	H 	0.63380 0.60860 0.31160 -0.02300
H 	H 	0.72750 0.59430 0.24780 0.09200
H 	H 	0.71260 0.82190 0.20460 0.09500
H 	H 	0.61890 0.83620 0.26850 -0.04000
H 	H 	0.03900 0.72630 0.20140 0.24200
H 	H 	0.96360 0.76950 0.22710 0.24100
H 	H 	0.94100 0.67030 0.23030 0.23800
H 	H 	0.86190 0.69710 0.02390 0.22400
H 	H 	0.97280 0.76070 0.04140 0.22200
H 	H 	0.95460 0.66180 0.04180 0.21700
H 	H 	0.57010 0.66200 0.17460 0.27200
H 	H 	0.56000 0.69920 0.12760 0.26300
H 	H 	0.55500 0.60310 0.13270 0.26100
H 	H 	0.50260 0.57690 0.98850 -0.05100
H 	H 	0.60990 0.83300 0.00090 -0.03800
H 	H 	0.72850 0.82130 0.05700 0.08700
H 	H 	0.62120 0.56510 0.04470 0.06800
H 	H 	0.44270 0.84630 0.12100 0.25800
H 	H 	0.43830 0.75900 0.14320 0.24200
H 	H 	0.43100 0.76540 0.09150 0.24600
H 	H 	0.13330 0.93720 0.12850 0.24300
H 	H 	0.03170 0.88070 0.10150 0.23700
H 	H 	0.03040 0.87740 0.15340 0.23800
H 	H 	0.06760 0.52840 0.12170 0.23600
H 	H 	0.98600 0.55840 0.15150 0.23000
H 	H 	0.97430 0.55820 0.09980 0.22400
H 	H 	0.32230 0.47030 0.05000 -0.04100
H 	H 	0.25890 0.58820 0.05150 0.07300
H 	H 	0.28300 0.59530 0.18420 0.07500
H 	H 	0.34640 0.47740 0.18270 -0.02000
H 	H 	0.48220 0.08270 0.08120 -0.04300
H 	H 	0.37570 0.94180 0.06930 0.08900
H 	H 	0.27080 0.92520 0.19540 0.07800
H 	H 	0.37730 0.06610 0.20740 -0.00900
H 	H 	0.29730 0.70930 0.23350 0.42500
H 	H 	0.19070 0.71610 0.25700 0.41300
H 	H 	0.27510 0.79790 0.23630 0.42000
H 	H 	0.75560 0.73720 0.35790 0.01200
H 	H 	0.79050 0.80380 0.39650 -0.01200
H 	H 	0.74500 0.70570 0.40710 -0.00500
H 	H 	0.36620 0.89140 0.81160 -0.02300
H 	H 	0.27250 0.90570 0.74780 0.09200
H 	H 	0.28740 0.67810 0.70460 0.09500
H 	H 	0.38110 0.66380 0.76850 -0.04000
H 	H 	0.96100 0.77370 0.70140 0.24500
H 	H 	0.03640 0.73050 0.72710 0.24400
H 	H 	0.05900 0.82970 0.73030 0.24100
H 	H 	0.13810 0.80290 0.52390 0.22400
H 	H 	0.02720 0.73930 0.54140 0.22200
H 	H 	0.04540 0.83820 0.54180 0.21700
H 	H 	0.42990 0.83800 0.67460 0.27300
H 	H 	0.44000 0.80080 0.62760 0.26400
H 	H 	0.44500 0.89690 0.63270 0.26200
H 	H 	0.49740 0.92310 0.48850 -0.05100
H 	H 	0.39010 0.66700 0.50090 -0.03800
H 	H 	0.27150 0.67870 0.55700 0.08700
H 	H 	0.37880 0.93490 0.54470 0.06900
H 	H 	0.55730 0.65370 0.62100 0.25700
H 	H 	0.56170 0.74100 0.64320 0.24100
H 	H 	0.56900 0.73460 0.59150 0.24500
H 	H 	0.86670 0.56280 0.62850 0.24300
H 	H 	0.96830 0.61930 0.60150 0.23700
H 	H 	0.96960 0.62260 0.65340 0.23800
H 	H 	0.93240 0.97160 0.62170 0.23100
H 	H 	0.01400 0.94160 0.65150 0.22400
H 	H 	0.02570 0.94180 0.59980 0.21900
H 	H 	0.67770 0.02970 0.55000 -0.04000
H 	H 	0.74110 0.91180 0.55150 0.07200
H 	H 	0.71700 0.90470 0.68420 0.07400
H 	H 	0.65360 0.02260 0.68270 -0.02000
H 	H 	0.51780 0.41730 0.58120 -0.04200
H 	H 	0.62430 0.55820 0.56930 0.08900
H 	H 	0.72920 0.57480 0.69540 0.07800
H 	H 	0.62270 0.43390 0.70740 -0.00800
H 	H 	0.70270 0.79070 0.73350 0.42500
H 	H 	0.80930 0.78390 0.75700 0.41300
H 	H 	0.72490 0.70210 0.73630 0.42000
H 	H 	0.24440 0.76280 0.85790 0.01100
H 	H 	0.20950 0.69620 0.89650 -0.01300
H 	H 	0.25500 0.79430 0.90710 -0.00600
C 	C 	0.35040 0.34860 0.70980 0.09700
C 	C 	0.29430 0.35720 0.74810 -0.23300
C 	C 	0.27070 0.29340 0.78010 0.19500
C 	C 	0.30320 0.22090 0.77390 -0.23600
C 	C 	0.35930 0.21230 0.73560 0.09700
C 	C 	0.03480 0.28070 0.78880 -0.77700
C 	C 	0.22230 0.30510 0.82407 -0.31900
C 	C 	0.11020 0.29350 0.82840 0.30100
C 	C 	0.06390 0.29130 0.87020 -0.18500
C 	C 	0.12970 0.30070 0.90772 0.27000
C 	C 	0.24180 0.31230 0.90340 -0.29900
C 	C 	0.28810 0.31450 0.86160 0.35000
C 	C 	0.08050 0.29470 0.95450 -0.70900
C 	C 	0.41210 0.33990 0.85620 -0.84000
C 	C 	0.45220 0.37420 0.99770 0.05600
C 	C 	0.38780 0.22070 0.99040 0.07000
C 	C 	0.31680 0.22770 0.95680 -0.21600
C 	C 	0.31340 0.30790 0.94360 0.16400
C 	C 	0.38110 0.38120 0.96410 -0.20700
C 	C 	0.78320 0.32310 0.87900 -0.30100
C 	C 	0.71450 0.23890 0.87760 0.32200
C 	C 	0.75950 0.17210 0.87500 -0.30100
C 	C 	0.87320 0.18950 0.87370 0.27900
C 	C 	0.94190 0.27380 0.87510 -0.18400
C 	C 	0.89680 0.34060 0.87770 0.27600
C 	C 	0.58890 0.21480 0.88080 -0.79600
C 	C 	0.92420 0.11680 0.87250 -0.75100
C 	C 	0.97440 0.43240 0.87600 -0.73300
C 	C 	0.68560 0.50460 0.92310 0.06600
C 	C 	0.72360 0.43400 0.92220 -0.21100
C 	C 	0.73530 0.39660 0.88200 0.16800
C 	C 	0.70910 0.42980 0.84270 -0.20900
C 	C 	0.67110 0.50040 0.84360 0.06900
C 	C 	0.56020 0.94890 0.89590 0.09500
C 	C 	0.62400 0.03330 0.90300 -0.23000
C 	C 	0.68730 0.08050 0.86880 0.17600
C 	C 	0.68680 0.04320 0.82750 -0.21800
C 	C 	0.62300 0.95880 0.82030 0.08300
C 	C 	0.73270 0.25500 0.74850 -1.35000
C 	C 	0.67300 0.23710 0.70610 0.78800
C 	C 	0.26080 0.24990 0.61240 0.00500
C 	C 	0.64960 0.15140 0.20980 0.09700
C 	C 	0.70570 0.14280 0.24810 -0.23300
C 	C 	0.72930 0.20660 0.28010 0.19600
C 	C 	0.69680 0.27910 0.27390 -0.23600
C 	C 	0.64070 0.28770 0.23560 0.09700
C 	C 	0.96520 0.21930 0.28880 -0.78700
C 	C 	0.77770 0.19490 0.32407 -0.32100
C 	C 	0.88980 0.20650 0.32840 0.30500
C 	C 	0.93610 0.20870 0.37020 -0.18900
C 	C 	0.87030 0.19930 0.40772 0.27200
C 	C 	0.75820 0.18770 0.40340 -0.30000
C 	C 	0.71190 0.18550 0.36160 0.35100
C 	C 	0.91950 0.20530 0.45450 -0.71100
C 	C 	0.58790 0.16010 0.35620 -0.84200
C 	C 	0.54780 0.12580 0.49770 0.05600
C 	C 	0.61220 0.27930 0.49040 0.07000
C 	C 	0.68320 0.27230 0.45680 -0.21600
C 	C 	0.68660 0.19210 0.44360 0.16400
C 	C 	0.61890 0.11880 0.46410 -0.20700
C 	C 	0.21680 0.17690 0.37900 -0.29700
C 	C 	0.28550 0.26110 0.37760 0.32000
C 	C 	0.24050 0.32790 0.37500 -0.29900
C 	C 	0.12680 0.31050 0.37370 0.27700
C 	C 	0.05810 0.22620 0.37510 -0.17900
C 	C 	0.10320 0.15940 0.37770 0.27000
C 	C 	0.41110 0.28520 0.38080 -0.79300
C 	C 	0.07580 0.38320 0.37250 -0.74900
C 	C 	0.02560 0.06760 0.37600 -0.71600
C 	C 	0.31440 0.99540 0.42310 0.06400
C 	C 	0.27640 0.06600 0.42220 -0.20800
C 	C 	0.26470 0.10340 0.38200 0.16600
C 	C 	0.29090 0.07020 0.34270 -0.20600
C 	C 	0.32890 0.99960 0.34360 0.06700
C 	C 	0.43980 0.55110 0.39590 0.09400
C 	C 	0.37600 0.46670 0.40300 -0.22900
C 	C 	0.31270 0.41950 0.36880 0.17400
C 	C 	0.31320 0.45680 0.32750 -0.21700
C 	C 	0.37700 0.54120 0.32030 0.08200
C 	C 	0.26730 0.24500 0.24850 -1.35000
C 	C 	0.32700 0.26290 0.20610 0.78800
C 	C 	0.73920 0.25010 0.11240 0.00600
C 	C 	0.64960 0.65140 0.29020 0.09700
C 	C 	0.70570 0.64280 0.25190 -0.23300
C 	C 	0.72930 0.70660 0.21990 0.19500
C 	C 	0.69680 0.77910 0.22610 -0.23600
C 	C 	0.64070 0.78770 0.26440 0.09700
C 	C 	0.96520 0.71930 0.21120 -0.77700
C 	C 	0.77770 0.69490 0.17593 -0.31900
C 	C 	0.88980 0.70650 0.17160 0.30100
C 	C 	0.93610 0.70870 0.12980 -0.18500
C 	C 	0.87030 0.69930 0.09228 0.27000
C 	C 	0.75820 0.68770 0.09660 -0.29900
C 	C 	0.71190 0.68550 0.13840 0.35000
C 	C 	0.91950 0.70530 0.04550 -0.70900
C 	C 	0.58790 0.66010 0.14380 -0.84000
C 	C 	0.54780 0.62580 0.00230 0.05600
C 	C 	0.61220 0.77930 0.00960 0.07000
C 	C 	0.68320 0.77230 0.04320 -0.21600
C 	C 	0.68660 0.69210 0.05640 0.16400
C 	C 	0.61890 0.61880 0.03590 -0.20700
C 	C 	0.21680 0.67690 0.12100 -0.30100
C 	C 	0.28550 0.76110 0.12240 0.32200
C 	C 	0.24050 0.82790 0.12500 -0.30100
C 	C 	0.12680 0.81050 0.12630 0.27900
C 	C 	0.05810 0.72620 0.12490 -0.18400
C 	C 	0.10320 0.65940 0.12230 0.27600
C 	C 	0.41110 0.78520 0.11920 -0.79600
C 	C 	0.07580 0.88320 0.12750 -0.75100
C 	C 	0.02560 0.56760 0.12400 -0.73300
C 	C 	0.31440 0.49540 0.07690 0.06600
C 	C 	0.27640 0.56600 0.07780 -0.21100
C 	C 	0.26470 0.60340 0.11800 0.16800
C 	C 	0.29090 0.57020 0.15730 -0.20900
C 	C 	0.32890 0.49960 0.15640 0.06900
C 	C 	0.43980 0.05110 0.10410 0.09500
C 	C 	0.37600 0.96670 0.09700 -0.23000
C 	C 	0.31270 0.91950 0.13120 0.17600
C 	C 	0.31320 0.95680 0.17250 -0.21800
C 	C 	0.37700 0.04120 0.17970 0.08300
C 	C 	0.26730 0.74500 0.25150 -1.35000
C 	C 	0.32700 0.76290 0.29390 0.78800
C 	C 	0.73920 0.75010 0.38760 0.00500
C 	C 	0.35040 0.84860 0.79020 0.09700
C 	C 	0.29430 0.85720 0.75190 -0.23300
C 	C 	0.27070 0.79340 0.71990 0.19600
C 	C 	0.30320 0.72090 0.72610 -0.23600
C 	C 	0.35930 0.71230 0.76440 0.09700
C 	C 	0.03480 0.78070 0.71120 -0.78700
C 	C 	0.22230 0.80510 0.67593 -0.32100
C 	C 	0.11020 0.79350 0.67160 0.30500
C 	C 	0.06390 0.79130 0.62980 -0.18900
C 	C 	0.12970 0.80070 0.59228 0.27200
C 	C 	0.24180 0.81230 0.59660 -0.30000
C 	C 	0.28810 0.81450 0.63840 0.35100
C 	C 	0.08050 0.79470 0.54550 -0.71100
C 	C 	0.41210 0.83990 0.64380 -0.84200
C 	C 	0.45220 0.87420 0.50230 0.05600
C 	C 	0.38780 0.72070 0.50960 0.07000
C 	C 	0.31680 0.72770 0.54320 -0.21600
C 	C 	0.31340 0.80790 0.55640 0.16400
C 	C 	0.38110 0.88120 0.53590 -0.20700
C 	C 	0.78320 0.82310 0.62100 -0.29700
C 	C 	0.71450 0.73890 0.62240 0.32000
C 	C 	0.75950 0.67210 0.62500 -0.29900
C 	C 	0.87320 0.68950 0.62630 0.27700
C 	C 	0.94190 0.77380 0.62490 -0.17900
C 	C 	0.89680 0.84060 0.62230 0.27000
C 	C 	0.58890 0.71480 0.61920 -0.79300
C 	C 	0.92420 0.61680 0.62750 -0.74900
C 	C 	0.97440 0.93240 0.62400 -0.71600
C 	C 	0.68560 0.00460 0.57690 0.06400
C 	C 	0.72360 0.93400 0.57780 -0.20800
C 	C 	0.73530 0.89660 0.61800 0.16600
C 	C 	0.70910 0.92980 0.65730 -0.20600
C 	C 	0.67110 0.00040 0.65640 0.06700
C 	C 	0.56020 0.44890 0.60410 0.09400
C 	C 	0.62400 0.53330 0.59700 -0.22900
C 	C 	0.68730 0.58050 0.63120 0.17400
C 	C 	0.68680 0.54320 0.67250 -0.21700
C 	C 	0.62300 0.45880 0.67970 0.08200
C 	C 	0.73270 0.75500 0.75150 -1.35000
C 	C 	0.67300 0.73710 0.79390 0.78800
C 	C 	0.26080 0.74990 0.88760 0.00600
N 	N 	0.38300 0.27620 0.70360 -0.23300
N 	N 	0.45550 0.29390 0.01090 -0.26900
N 	N 	0.65940 0.53780 0.88380 -0.25700
N 	N 	0.55970 0.91170 0.85450 -0.20300
N 	N 	0.61700 0.22380 0.20360 -0.23300
N 	N 	0.54450 0.20610 0.51090 -0.26900
N 	N 	0.34060 0.96220 0.38380 -0.25700
N 	N 	0.44030 0.58830 0.35450 -0.20300
N 	N 	0.61700 0.72380 0.29640 -0.23300
N 	N 	0.54450 0.70610 0.98910 -0.26900
N 	N 	0.34060 0.46220 0.11620 -0.25700
N 	N 	0.44030 0.08830 0.14550 -0.20300
N 	N 	0.38300 0.77620 0.79640 -0.23300
N 	N 	0.45550 0.79390 0.48910 -0.26900
N 	N 	0.65940 0.03780 0.61620 -0.25700
N 	N 	0.55970 0.41170 0.64550 -0.20300
O 	O 	0.59650 0.26970 0.70160 -0.55800
O 	O 	0.69900 0.19220 0.67880 -0.56100
O 	O 	0.37310 0.24420 0.61070 -0.48900
O 	O 	0.56520 0.24340 0.60430 -0.58500
O 	O 	0.40350 0.23030 0.20160 -0.55800
O 	O 	0.30100 0.30780 0.17880 -0.56100
O 	O 	0.62690 0.25580 0.11070 -0.48900
O 	O 	0.43480 0.25660 0.10430 -0.58500
O 	O 	0.40350 0.73030 0.29840 -0.55800
O 	O 	0.30100 0.80780 0.32120 -0.56100
O 	O 	0.62690 0.75580 0.38930 -0.48900
O 	O 	0.43480 0.75660 0.39570 -0.58500
O 	O 	0.59650 0.76970 0.79840 -0.55800
O 	O 	0.69900 0.69220 0.82120 -0.56100
O 	O 	0.37310 0.74420 0.88930 -0.48900
O 	O 	0.56520 0.74340 0.89570 -0.58500
