data_crystal

_cell_length_a 11.00100
_cell_length_b 11.00100
_cell_length_c 6.33300
_cell_angle_alpha 90.00000
_cell_angle_beta  90.00000
_cell_angle_gamma 120.00000

_symmetry_space_group_name_	'P 1'
_symmetry_space_group_name_H-M	'P 1'

loop_
_symmetry_equiv_pos_as_xyz
  x,y,z

loop_
_atom_site_label
_atom_site_type_symbol
_atom_site_fract_x
_atom_site_fract_y
_atom_site_fract_z
_atom_site_charge
O 	O 	0.01500 0.80400 0.12400 -0.08700
O 	O 	0.00300 0.77500 0.91600 -0.02100
O 	O 	0.19700 0.97800 0.12400 -0.08800
O 	O 	0.23100 0.01000 0.95300 -0.02800
O 	O 	0.92600 0.07100 0.66800 -0.09300
O 	O 	0.86800 0.93700 0.31800 -0.06700
O 	O 	0.34500 0.89900 0.95000 -0.01600
O 	O 	0.32100 0.85800 0.13100 -0.07300
O 	O 	0.10300 0.65100 0.93000 0.00300
O 	O 	0.13500 0.69100 0.12000 -0.11600
O 	O 	0.26900 0.53400 0.31500 -0.07500
O 	O 	0.40100 0.59300 0.66800 -0.08300
C 	C 	0.11100 0.78000 0.04900 0.21300
C 	C 	0.22800 0.89600 0.04500 0.18900
C 	C 	0.94100 0.02100 0.49400 0.12800
C 	C 	0.32200 0.59400 0.49400 0.14700
O 	O 	0.19600 0.21100 0.12400 -0.09300
O 	O 	0.22500 0.22800 0.91600 -0.02700
O 	O 	0.02200 0.21900 0.12400 -0.09800
O 	O 	0.99000 0.22100 0.95300 -0.02100
O 	O 	0.92900 0.85500 0.66800 -0.09100
O 	O 	0.06300 0.93100 0.31800 -0.06900
O 	O 	0.10100 0.44600 0.95000 -0.01800
O 	O 	0.14200 0.46300 0.13100 -0.07300
O 	O 	0.34900 0.45200 0.93000 0.00200
O 	O 	0.30900 0.44400 0.12000 -0.11800
O 	O 	0.46600 0.73500 0.31500 -0.07400
O 	O 	0.40700 0.80800 0.66800 -0.08000
C 	C 	0.22000 0.33100 0.04900 0.21700
C 	C 	0.10400 0.33200 0.04500 0.18600
C 	C 	0.97900 0.92000 0.49400 0.17000
C 	C 	0.40600 0.72800 0.49400 0.14800
O 	O 	0.78900 0.98500 0.12400 -0.08700
O 	O 	0.77200 0.99700 0.91600 -0.02000
O 	O 	0.78100 0.80300 0.12400 -0.10800
O 	O 	0.77900 0.76900 0.95300 -0.00400
O 	O 	0.14500 0.07400 0.66800 -0.09300
O 	O 	0.06900 0.13200 0.31800 -0.07700
O 	O 	0.55400 0.65500 0.95000 -0.02000
O 	O 	0.53700 0.67900 0.13100 -0.07300
O 	O 	0.54800 0.89700 0.93000 0.00500
O 	O 	0.55600 0.86500 0.12000 -0.11500
O 	O 	0.26500 0.73100 0.31500 -0.07400
O 	O 	0.19200 0.59900 0.66800 -0.08100
C 	C 	0.66900 0.88900 0.04900 0.21600
C 	C 	0.66800 0.77200 0.04500 0.18100
C 	C 	0.08000 0.05900 0.49400 0.16200
C 	C 	0.27200 0.67800 0.49400 0.14800
Np	Np	0.00000 0.00000 0.99170 0.07100
Np	Np	0.33333 0.66667 0.99170 0.07500
