data_crystal

_cell_length_a 6.60500
_cell_length_b 8.78700
_cell_length_c 11.49900
_cell_angle_alpha 93.07000
_cell_angle_beta  90.42000
_cell_angle_gamma 104.66000

_symmetry_space_group_name_	'P 1'
_symmetry_space_group_name_H-M	'P 1'

loop_
_symmetry_equiv_pos_as_xyz
  x,y,z

loop_
_atom_site_label
_atom_site_type_symbol
_atom_site_fract_x
_atom_site_fract_y
_atom_site_fract_z
_atom_site_charge
Zr	Zr	0.18050 0.77440 0.40620 3.21100
Zr	Zr	0.22810 0.94140 0.85130 3.20900
P 	P 	0.28560 0.11900 0.58370 0.77700
P 	P 	0.23920 0.95680 0.14170 0.74600
P 	P 	0.87080 0.40600 0.32200 0.70100
F 	F 	0.30370 0.16310 0.92370 -0.75400
O 	O 	0.25060 0.00720 0.47270 -0.72100
O 	O 	0.13610 0.22310 0.58310 -0.69900
O 	O 	0.51680 0.22670 0.59110 -0.74800
O 	O 	0.24330 0.02030 0.68920 -0.77800
O 	O 	0.45060 0.06520 0.16520 -0.68000
O 	O 	0.08020 0.05980 0.15890 -0.69100
O 	O 	0.21060 0.86190 0.02240 -0.66600
O 	O 	0.19800 0.84220 0.23750 -0.72400
O 	O 	0.87170 0.29980 0.21040 -0.62900
O 	O 	0.07210 0.54130 0.33240 -0.64900
O 	O 	0.83810 0.31370 0.43050 -0.74900
O 	O 	0.67620 0.47900 0.30080 -0.40200
H 	H 	0.65000 0.56800 0.33300 0.24400
Zr	Zr	0.81950 0.22560 0.59380 3.21200
Zr	Zr	0.77190 0.05860 0.14870 3.21000
P 	P 	0.71440 0.88100 0.41630 0.77800
P 	P 	0.76080 0.04320 0.85830 0.74700
P 	P 	0.12920 0.59400 0.67800 0.70100
F 	F 	0.69630 0.83690 0.07630 -0.75400
O 	O 	0.74940 0.99280 0.52730 -0.72100
O 	O 	0.86390 0.77690 0.41690 -0.69900
O 	O 	0.48320 0.77330 0.40890 -0.74800
O 	O 	0.75670 0.97970 0.31080 -0.77800
O 	O 	0.54940 0.93480 0.83480 -0.68000
O 	O 	0.91980 0.94020 0.84110 -0.69100
O 	O 	0.78940 0.13810 0.97760 -0.66600
O 	O 	0.80200 0.15780 0.76250 -0.72400
O 	O 	0.12830 0.70020 0.78960 -0.62900
O 	O 	0.92790 0.45870 0.66760 -0.64900
O 	O 	0.16190 0.68630 0.56950 -0.74900
O 	O 	0.32380 0.52100 0.69920 -0.40200
H 	H 	0.35000 0.43200 0.66700 0.24400
