data_crystal

_cell_length_a 13.16980
_cell_length_b 16.69690
_cell_length_c 19.19650
_cell_angle_alpha 90.00000
_cell_angle_beta  90.00000
_cell_angle_gamma 108.96700

_symmetry_space_group_name_	'P 1'
_symmetry_space_group_name_H-M	'P 1'

loop_
_symmetry_equiv_pos_as_xyz
  x,y,z

loop_
_atom_site_label
_atom_site_type_symbol
_atom_site_fract_x
_atom_site_fract_y
_atom_site_fract_z
_atom_site_charge
Ni	Ni	0.46247 0.52787 0.77383 1.09900
Ni	Ni	0.03753 0.97213 0.27383 1.09700
Ni	Ni	0.53753 0.47213 0.22617 1.09900
Ni	Ni	0.96247 0.02787 0.72617 1.09600
Ni	Ni	-0.00000 0.50000 -0.00000 1.06500
Ni	Ni	0.50000 0.00000 0.50000 1.07800
H 	H 	0.79410 0.58710 0.88510 0.03400
H 	H 	0.75460 0.76480 0.75370 0.03800
H 	H 	0.03200 0.81210 0.86190 0.01600
H 	H 	0.11150 0.37510 0.94660 0.00300
H 	H 	0.11740 0.29560 0.85080 0.11500
H 	H 	0.94310 0.41650 0.74570 0.09900
H 	H 	0.94250 0.49260 0.84530 -0.00600
H 	H 	0.45940 0.63850 0.64770 -0.01800
H 	H 	0.34650 0.64680 0.55980 0.11900
H 	H 	0.11630 0.44860 0.64710 0.09500
H 	H 	0.23590 0.44690 0.73350 -0.01400
H 	H 	0.32160 0.63790 0.79910 -0.02100
H 	H 	0.20260 0.65290 0.88180 0.11500
H 	H 	0.31090 0.50750 0.01180 0.06400
H 	H 	0.42490 0.49490 0.92430 0.00500
H 	H 	0.05100 0.25300 0.73100 0.17400
H 	H 	0.99800 0.31000 0.69400 0.17100
H 	H 	0.17800 0.58100 0.50800 0.15500
H 	H 	0.08500 0.51000 0.54400 0.14400
H 	H 	0.15700 0.63800 0.00400 0.11400
H 	H 	0.19800 0.58500 0.04900 0.12000
H 	H 	0.70590 0.91290 0.38510 0.04800
H 	H 	0.74540 0.73520 0.25370 0.04500
H 	H 	0.46800 0.68790 0.36190 0.04100
H 	H 	0.38850 0.12490 0.44660 -0.01100
H 	H 	0.38260 0.20440 0.35080 0.11600
H 	H 	0.55690 0.08350 0.24570 0.09700
H 	H 	0.55750 0.00740 0.34530 -0.01600
H 	H 	0.04060 0.86150 0.14770 -0.03200
H 	H 	0.15350 0.85320 0.05980 0.11400
H 	H 	0.38370 0.05140 0.14710 0.10400
H 	H 	0.26410 0.05310 0.23350 -0.01500
H 	H 	0.17840 0.86210 0.29910 -0.02600
H 	H 	0.29740 0.84710 0.38180 0.11900
H 	H 	0.18910 0.99250 0.51180 0.12800
H 	H 	0.07510 0.00510 0.42430 -0.05500
H 	H 	0.44900 0.24700 0.23100 0.17200
H 	H 	0.50200 0.19000 0.19400 0.15000
H 	H 	0.32200 0.91900 0.00800 0.15200
H 	H 	0.41500 0.99000 0.04400 0.15400
H 	H 	0.34300 0.86200 0.50400 0.12900
H 	H 	0.30200 0.91500 0.54900 0.12800
H 	H 	0.20590 0.41290 0.11490 0.04300
H 	H 	0.24540 0.23520 0.24630 0.04900
H 	H 	0.96800 0.18790 0.13810 0.07200
H 	H 	0.88850 0.62490 0.05340 -0.01800
H 	H 	0.88260 0.70440 0.14920 0.12300
H 	H 	0.05690 0.58350 0.25430 0.10700
H 	H 	0.05750 0.50740 0.15470 -0.00600
H 	H 	0.54060 0.36150 0.35230 -0.02000
H 	H 	0.65350 0.35320 0.44020 0.12100
H 	H 	0.88370 0.55140 0.35290 0.10800
H 	H 	0.76410 0.55310 0.26650 -0.01400
H 	H 	0.67840 0.36210 0.20090 -0.02300
H 	H 	0.79740 0.34710 0.11820 0.11600
H 	H 	0.68910 0.49250 0.98820 0.15300
H 	H 	0.57510 0.50510 0.07570 -0.02800
H 	H 	0.94900 0.74700 0.26900 0.17500
H 	H 	0.00200 0.69000 0.30600 0.13000
H 	H 	0.82200 0.41900 0.49200 0.16200
H 	H 	0.91500 0.49000 0.45600 0.15800
H 	H 	0.84300 0.36200 0.99600 0.14100
H 	H 	0.80200 0.41500 0.95100 0.12900
H 	H 	0.29410 0.08710 0.61490 0.02900
H 	H 	0.25460 0.26480 0.74630 0.04200
H 	H 	0.53200 0.31210 0.63810 0.04000
H 	H 	0.61150 0.87510 0.55340 -0.00500
H 	H 	0.61740 0.79560 0.64920 0.12000
H 	H 	0.44310 0.91650 0.75430 0.10800
H 	H 	0.44250 0.99260 0.65470 0.00200
H 	H 	0.95940 0.13850 0.85230 -0.00900
H 	H 	0.84650 0.14680 0.94020 0.12100
H 	H 	0.61630 0.94860 0.85290 0.09600
H 	H 	0.73590 0.94690 0.76650 -0.01400
H 	H 	0.82160 0.13790 0.70090 -0.01900
H 	H 	0.70260 0.15290 0.61820 0.10900
H 	H 	0.81090 0.00750 0.48820 0.08900
H 	H 	0.92490 0.99490 0.57570 0.04100
H 	H 	0.55100 0.75300 0.76900 0.17700
H 	H 	0.49800 0.81000 0.80600 0.15900
H 	H 	0.67800 0.08100 0.99200 0.16300
H 	H 	0.58500 0.01000 0.95600 0.14600
H 	H 	0.65700 0.13800 0.49600 0.12900
H 	H 	0.69800 0.08500 0.45100 0.12200
C 	C 	0.99270 0.66190 0.92780 0.37100
C 	C 	0.92540 0.69410 0.87910 -0.13000
C 	C 	0.82130 0.64150 0.86410 0.06100
C 	C 	0.75710 0.66880 0.81830 -0.11000
C 	C 	0.64470 0.61440 0.80500 0.30500
C 	C 	0.79740 0.74710 0.78620 0.05500
C 	C 	0.90070 0.79980 0.80170 -0.11800
C 	C 	0.93690 0.88530 0.76890 0.32900
C 	C 	0.96320 0.77450 0.84940 0.09800
C 	C 	0.07530 0.38280 0.90560 0.11500
C 	C 	0.07920 0.33500 0.84850 -0.22100
C 	C 	0.02760 0.34350 0.78680 0.20400
C 	C 	0.97700 0.40570 0.78670 -0.20400
C 	C 	0.97730 0.45080 0.84670 0.12400
C 	C 	0.38860 0.59920 0.64730 0.13400
C 	C 	0.32210 0.60480 0.59480 -0.23700
C 	C 	0.21680 0.54760 0.59290 0.22100
C 	C 	0.18670 0.48840 0.64620 -0.22800
C 	C 	0.25870 0.48760 0.69720 0.12000
C 	C 	0.31810 0.60990 0.84250 0.11600
C 	C 	0.24740 0.61980 0.89180 -0.22200
C 	C 	0.24210 0.58140 0.95590 0.19500
C 	C 	0.31090 0.53420 0.96810 -0.14600
C 	C 	0.37860 0.52710 0.91540 0.09100
C 	C 	0.50730 0.83810 0.42780 0.33900
C 	C 	0.57460 0.80590 0.37910 -0.10300
C 	C 	0.67870 0.85850 0.36410 0.03800
C 	C 	0.74290 0.83120 0.31830 -0.09100
C 	C 	0.85530 0.88560 0.30500 0.29500
C 	C 	0.70260 0.75290 0.28620 0.03200
C 	C 	0.59930 0.70020 0.30170 -0.09200
C 	C 	0.56310 0.61470 0.26890 0.29500
C 	C 	0.53680 0.72550 0.34940 0.03800
C 	C 	0.42470 0.11720 0.40560 0.12000
C 	C 	0.42080 0.16500 0.34850 -0.22900
C 	C 	0.47240 0.15650 0.28680 0.22300
C 	C 	0.52300 0.09430 0.28670 -0.22700
C 	C 	0.52270 0.04920 0.34670 0.11200
C 	C 	0.11140 0.90080 0.14730 0.14200
C 	C 	0.17790 0.89520 0.09480 -0.25200
C 	C 	0.28320 0.95240 0.09290 0.25300
C 	C 	0.31330 0.01160 0.14620 -0.26400
C 	C 	0.24130 0.01240 0.19720 0.10900
C 	C 	0.18190 0.89010 0.34250 0.12700
C 	C 	0.25260 0.88020 0.39180 -0.23600
C 	C 	0.25790 0.91860 0.45590 0.20700
C 	C 	0.18910 0.96580 0.46810 -0.24800
C 	C 	0.12140 0.97290 0.41540 0.17700
C 	C 	0.00730 0.33810 0.07220 0.29900
C 	C 	0.07460 0.30590 0.12090 -0.08200
C 	C 	0.17870 0.35850 0.13590 0.01900
C 	C 	0.24290 0.33120 0.18170 -0.08700
C 	C 	0.35530 0.38560 0.19500 0.29200
C 	C 	0.20260 0.25290 0.21380 0.01200
C 	C 	0.09930 0.20020 0.19830 -0.06600
C 	C 	0.06310 0.11470 0.23110 0.26000
C 	C 	0.03680 0.22550 0.15060 -0.02700
C 	C 	0.92470 0.61720 0.09440 0.13500
C 	C 	0.92080 0.66500 0.15150 -0.23900
C 	C 	0.97240 0.65650 0.21320 0.25600
C 	C 	0.02300 0.59430 0.21330 -0.25700
C 	C 	0.02270 0.54920 0.15330 0.09800
C 	C 	0.61140 0.40080 0.35270 0.13800
C 	C 	0.67790 0.39520 0.40520 -0.24100
C 	C 	0.78320 0.45240 0.40710 0.23100
C 	C 	0.81330 0.51160 0.35380 -0.23200
C 	C 	0.74130 0.51240 0.30280 0.12700
C 	C 	0.68190 0.39010 0.15750 0.12200
C 	C 	0.75260 0.38020 0.10820 -0.23200
C 	C 	0.75790 0.41860 0.04410 0.19100
C 	C 	0.68910 0.46580 0.03190 -0.28400
C 	C 	0.62140 0.47290 0.08460 0.14900
C 	C 	0.49270 0.16190 0.57220 0.34300
C 	C 	0.42540 0.19410 0.62090 -0.11500
C 	C 	0.32130 0.14150 0.63590 0.04600
C 	C 	0.25710 0.16880 0.68170 -0.10700
C 	C 	0.14470 0.11440 0.69500 0.30300
C 	C 	0.29740 0.24710 0.71380 0.03800
C 	C 	0.40070 0.29980 0.69830 -0.09700
C 	C 	0.43690 0.38530 0.73110 0.29600
C 	C 	0.46320 0.27450 0.65060 0.04300
C 	C 	0.57530 0.88280 0.59440 0.12700
C 	C 	0.57920 0.83500 0.65150 -0.22900
C 	C 	0.52760 0.84350 0.71320 0.22800
C 	C 	0.47700 0.90570 0.71330 -0.22500
C 	C 	0.47730 0.95080 0.65330 0.11800
C 	C 	0.88860 0.09920 0.85270 0.12500
C 	C 	0.82210 0.10480 0.90520 -0.22300
C 	C 	0.71680 0.04760 0.90710 0.18900
C 	C 	0.68670 0.98840 0.85380 -0.18500
C 	C 	0.75870 0.98760 0.80280 0.14300
C 	C 	0.81810 0.10990 0.65750 0.10700
C 	C 	0.74740 0.11980 0.60820 -0.21400
C 	C 	0.74210 0.08140 0.54410 0.16900
C 	C 	0.81090 0.03420 0.53190 -0.17900
C 	C 	0.87860 0.02710 0.58460 0.04800
N 	N 	0.02280 0.44060 0.90740 -0.24700
N 	N 	0.02690 0.29570 0.72990 -0.35600
N 	N 	0.36040 0.54140 0.69880 -0.25900
N 	N 	0.14640 0.54970 0.54230 -0.33800
N 	N 	0.38310 0.56260 0.85250 -0.25200
N 	N 	0.16840 0.58680 0.00660 -0.36400
N 	N 	0.47720 0.05940 0.40740 -0.25000
N 	N 	0.47310 0.20430 0.22990 -0.34200
N 	N 	0.13960 0.95860 0.19880 -0.25200
N 	N 	0.35360 0.95030 0.04230 -0.34500
N 	N 	0.11690 0.93740 0.35250 -0.27000
N 	N 	0.33160 0.91320 0.50660 -0.35000
N 	N 	0.97720 0.55940 0.09260 -0.23300
N 	N 	0.97310 0.70430 0.27010 -0.32600
N 	N 	0.63960 0.45860 0.30120 -0.26100
N 	N 	0.85360 0.45030 0.45770 -0.34200
N 	N 	0.61690 0.43740 0.14750 -0.26500
N 	N 	0.83160 0.41320 0.99340 -0.33800
N 	N 	0.52280 0.94060 0.59260 -0.23900
N 	N 	0.52690 0.79570 0.77010 -0.34500
N 	N 	0.86040 0.04140 0.80120 -0.27300
N 	N 	0.64640 0.04970 0.95770 -0.33300
N 	N 	0.88310 0.06260 0.64750 -0.24600
N 	N 	0.66840 0.08680 0.49340 -0.35000
O 	O 	0.95420 0.58407 0.94291 -0.40900
O 	O 	0.08020 0.71150 0.95080 -0.29300
O 	O 	0.60560 0.54336 0.83467 -0.35800
O 	O 	0.58800 0.63995 0.76222 -0.39800
O 	O 	0.88650 0.89939 0.71707 -0.37500
O 	O 	0.01400 0.94478 0.79546 -0.35500
O 	O 	0.54580 0.91593 0.44291 -0.40800
O 	O 	0.41980 0.78850 0.45080 -0.29200
O 	O 	0.89440 0.95664 0.33467 -0.33600
O 	O 	0.91200 0.86005 0.26222 -0.38400
O 	O 	0.61350 0.60061 0.21707 -0.38300
O 	O 	0.48600 0.55522 0.29546 -0.34800
O 	O 	0.04580 0.41593 0.05709 -0.42800
O 	O 	0.91980 0.28850 0.04920 -0.28100
O 	O 	0.39440 0.45664 0.16533 -0.36100
O 	O 	0.41200 0.36005 0.23778 -0.39700
O 	O 	0.11350 0.10061 0.28293 -0.38500
O 	O 	0.98600 0.05522 0.20454 -0.33600
O 	O 	0.45420 0.08407 0.55709 -0.43200
O 	O 	0.58020 0.21150 0.54920 -0.29300
O 	O 	0.10560 0.04336 0.66533 -0.38000
O 	O 	0.08800 0.13995 0.73778 -0.40600
O 	O 	0.38650 0.39939 0.78293 -0.38100
O 	O 	0.51400 0.44478 0.70454 -0.34600
