data_crystal

_cell_length_a 5.11860
_cell_length_b 11.32540
_cell_length_c 12.57660
_cell_angle_alpha 92.02930
_cell_angle_beta  101.74200
_cell_angle_gamma 79.97900

_symmetry_space_group_name_	'P 1'
_symmetry_space_group_name_H-M	'P 1'

loop_
_symmetry_equiv_pos_as_xyz
  x,y,z

loop_
_atom_site_label
_atom_site_type_symbol
_atom_site_fract_x
_atom_site_fract_y
_atom_site_fract_z
_atom_site_charge
Cu	Cu	0.05564 0.78349 0.22594 0.90800
Cu	Cu	0.82970 0.28349 0.77406 0.92100
H 	H 	0.87250 0.50700 0.66280 0.02000
H 	H 	0.65270 0.62200 0.51220 0.07900
H 	H 	0.09250 0.40560 0.45920 0.07100
H 	H 	0.32420 0.29720 0.61180 0.02100
H 	H 	0.33490 0.10780 0.80720 0.03200
H 	H 	0.59700 0.96920 0.93240 0.06200
H 	H 	0.04850 0.05650 0.12340 0.06500
H 	H 	0.81030 0.19750 0.99700 0.01400
H 	H 	0.20970 0.00700 0.33720 0.03400
H 	H 	0.14050 0.12200 0.48780 0.07400
H 	H 	0.63330 0.90560 0.54080 0.07600
H 	H 	0.71240 0.79720 0.38820 0.02400
H 	H 	0.52770 0.60780 0.19280 0.02700
H 	H 	0.66460 0.46920 0.06760 0.08200
H 	H 	0.92510 0.55650 0.87660 0.10200
H 	H 	0.81330 0.69750 0.00300 -0.00100
C 	C 	0.71173 0.48680 0.62126 0.05800
C 	C 	0.58242 0.55590 0.53064 -0.08000
C 	C 	0.34821 0.52590 0.46802 -0.00300
C 	C 	0.25182 0.42790 0.49984 -0.08100
C 	C 	0.39057 0.36350 0.59134 0.05000
C 	C 	0.19437 0.59810 0.36834 0.26300
C 	C 	0.27800 0.09810 0.87240 0.03300
C 	C 	0.43535 0.01410 0.94670 -0.04200
C 	C 	0.35199 0.99660 0.04298 -0.04800
C 	C 	0.11261 0.06630 0.05982 -0.08300
C 	C 	0.96966 0.14970 0.98332 0.08100
C 	C 	0.51685 0.90840 0.12790 0.32900
C 	C 	0.09047 0.98680 0.37874 0.01600
C 	C 	0.05178 0.05590 0.46936 -0.07900
C 	C 	0.88019 0.02590 0.53198 0.01000
C 	C 	0.75198 0.92790 0.50016 -0.08200
C 	C 	0.79923 0.86350 0.40866 0.05400
C 	C 	0.82603 0.09810 0.63166 0.28700
C 	C 	0.40560 0.59810 0.12760 0.05600
C 	C 	0.48865 0.51410 0.05330 -0.08600
C 	C 	0.30901 0.49660 0.95702 -0.00400
C 	C 	0.05279 0.56630 0.94018 -0.15200
C 	C 	0.98634 0.64970 0.01668 0.12300
C 	C 	0.38895 0.40840 0.87210 0.31400
N 	N 	0.62033 0.39350 0.65246 -0.20000
N 	N 	0.04867 0.16610 0.88914 -0.21000
N 	N 	0.96787 0.89350 0.34754 -0.18200
N 	N 	0.15953 0.66610 0.11086 -0.22300
O 	O 	0.30285 0.68310 0.34350 -0.36000
O 	O 	0.97605 0.57230 0.32010 -0.26000
O 	O 	0.76296 0.87390 0.11832 -0.37800
O 	O 	0.40967 0.87630 0.19954 -0.35700
O 	O 	0.95935 0.18310 0.65650 -0.35400
O 	O 	0.65595 0.07230 0.67990 -0.28100
O 	O 	0.64464 0.37390 0.88168 -0.38200
O 	O 	0.21013 0.37630 0.80046 -0.35800
