data_crystal

_cell_length_a 5.03280
_cell_length_b 11.17600
_cell_length_c 12.67970
_cell_angle_alpha 91.84770
_cell_angle_beta  101.44700
_cell_angle_gamma 80.64990

_symmetry_space_group_name_	'P 1'
_symmetry_space_group_name_H-M	'P 1'

loop_
_symmetry_equiv_pos_as_xyz
  x,y,z

loop_
_atom_site_label
_atom_site_type_symbol
_atom_site_fract_x
_atom_site_fract_y
_atom_site_fract_z
_atom_site_charge
Cu	Cu	0.39944 0.19775 0.22700 0.91800
Cu	Cu	0.17244 0.69775 0.77300 0.91000
H 	H 	0.58490 0.58990 0.45540 0.07900
H 	H 	0.17050 0.41060 0.87300 0.07800
H 	H 	0.40840 0.27300 0.00260 0.01600
H 	H 	0.63380 0.51440 0.06680 0.08200
H 	H 	0.89410 0.37750 0.19260 0.02300
H 	H 	0.09660 0.35730 0.51100 0.07100
H 	H 	0.03430 0.46730 0.66460 0.01200
H 	H 	0.50630 0.69270 0.60900 0.02000
H 	H 	0.12950 0.08990 0.54460 0.05600
H 	H 	0.29750 0.91060 0.12700 0.07700
H 	H 	0.40580 0.77300 0.99740 0.01900
H 	H 	0.56700 0.01440 0.93320 0.06700
H 	H 	0.70150 0.87750 0.80740 0.02200
H 	H 	0.58560 0.85730 0.48900 0.08400
H 	H 	0.36970 0.96730 0.33540 0.01100
H 	H 	0.89730 0.19270 0.39100 0.03000
C 	C 	0.34667 0.46160 0.46454 -0.01300
C 	C 	0.40057 0.39150 0.36494 0.29700
C 	C 	0.47090 0.56360 0.49620 -0.07800
C 	C 	0.10830 0.40510 0.93680 -0.11600
C 	C 	0.25185 0.32320 0.01570 0.06600
C 	C 	0.79173 0.46680 0.05206 -0.09000
C 	C 	0.87069 0.47890 0.95378 0.00500
C 	C 	0.70780 0.56760 0.86900 0.32300
C 	C 	0.94889 0.38390 0.12738 0.07900
C 	C 	0.18126 0.42520 0.52892 -0.07600
C 	C 	0.14403 0.49230 0.62126 0.05200
C 	C 	0.42262 0.62500 0.58844 0.05400
C 	C 	0.88213 0.96160 0.53546 0.02600
C 	C 	0.03563 0.89150 0.63506 0.24200
C 	C 	0.97470 0.06360 0.50380 -0.05900
C 	C 	0.17150 0.90510 0.06320 -0.10100
C 	C 	0.23615 0.82320 0.98430 0.05700
C 	C 	0.73967 0.96680 0.94794 -0.06800
C 	C 	0.91691 0.97890 0.04622 -0.00600
C 	C 	0.83880 0.06760 0.13100 0.34400
C 	C 	0.82151 0.88390 0.87262 0.07400
C 	C 	0.65234 0.92520 0.47108 -0.09600
C 	C 	0.52277 0.99230 0.37874 0.07400
C 	C 	0.83418 0.12500 0.41156 0.04700
N 	N 	0.17558 0.31290 0.10996 -0.21600
N 	N 	0.25922 0.59050 0.64964 -0.20300
N 	N 	0.06562 0.81290 0.89004 -0.21800
N 	N 	0.60958 0.09050 0.35036 -0.20400
O 	O 	0.26903 0.30300 0.34086 -0.37300
O 	O 	0.81706 0.59750 0.79712 -0.34400
O 	O 	0.56588 0.42010 0.31536 -0.28300
O 	O 	0.46036 0.60420 0.87852 -0.39100
O 	O 	0.92817 0.80300 0.65914 -0.33400
O 	O 	0.01994 0.09750 0.20288 -0.37700
O 	O 	0.25052 0.92010 0.68464 -0.27300
O 	O 	0.58184 0.10420 0.12148 -0.39600
