data_crystal

_cell_length_a 10.35000
_cell_length_b 12.19000
_cell_length_c 13.00000
_cell_angle_alpha 90.00000
_cell_angle_beta  90.00000
_cell_angle_gamma 90.00000

_symmetry_space_group_name_	'P 1'
_symmetry_space_group_name_H-M	'P 1'

loop_
_symmetry_equiv_pos_as_xyz
  x,y,z

loop_
_atom_site_label
_atom_site_type_symbol
_atom_site_fract_x
_atom_site_fract_y
_atom_site_fract_z
_atom_site_charge
O 	O 	0.54550 0.27750 0.16260 -0.54000
O 	O 	0.39200 0.13380 0.21020 -0.71800
O 	O 	0.10570 0.11190 0.24050 -0.42000
O 	O 	0.72580 0.02410 0.90820 -0.60700
O 	O 	0.45450 0.72250 0.16260 -0.50600
O 	O 	0.60800 0.86620 0.21020 -0.45300
O 	O 	0.89430 0.88810 0.24050 -0.32800
O 	O 	0.27420 0.97590 0.90820 -0.24200
O 	O 	0.45450 0.27750 0.33740 -0.53600
O 	O 	0.60800 0.13380 0.28980 -0.70500
O 	O 	0.89430 0.11190 0.25950 -0.36900
O 	O 	0.27420 0.02410 0.59180 -0.73800
O 	O 	0.54550 0.72250 0.33740 -0.49700
O 	O 	0.39200 0.86620 0.28980 -0.44700
O 	O 	0.10570 0.88810 0.25950 -0.37500
O 	O 	0.72580 0.97590 0.59180 -0.35400
O 	O 	0.45450 0.72250 0.83740 -0.41900
O 	O 	0.60800 0.86620 0.78980 -0.41300
O 	O 	0.89430 0.88810 0.75950 -0.29500
O 	O 	0.27420 0.97590 0.09180 -0.37600
O 	O 	0.54550 0.27750 0.83740 -0.45400
O 	O 	0.39200 0.13380 0.78980 -0.67900
O 	O 	0.10570 0.11190 0.75950 -0.38600
O 	O 	0.72580 0.02410 0.09180 -0.74000
O 	O 	0.54550 0.72250 0.66260 -0.48200
O 	O 	0.39200 0.86620 0.71020 -0.43500
O 	O 	0.10570 0.88810 0.74050 -0.35000
O 	O 	0.72580 0.97590 0.40820 -0.35500
O 	O 	0.45450 0.27750 0.66260 -0.52100
O 	O 	0.60800 0.13380 0.71020 -0.69400
O 	O 	0.89430 0.11190 0.74050 -0.34500
O 	O 	0.27420 0.02410 0.40820 -0.73800
In	In	0.55930 0.27030 -0.00000 1.95400
P 	P 	0.78100 0.08340 -0.00000 0.53300
C 	C 	0.57400 0.51230 -0.00000 0.23100
O 	O 	0.64780 0.43190 -0.00000 -0.45200
O 	O 	0.60710 0.61110 -0.00000 -0.44000
O 	O 	0.74260 0.20150 -0.00000 -0.58200
O 	O 	0.92400 0.09100 -0.00000 -0.35400
In	In	0.44070 0.72970 -0.00000 1.97100
P 	P 	0.21900 0.91660 -0.00000 0.49800
C 	C 	0.42600 0.48770 -0.00000 0.24800
O 	O 	0.35220 0.56810 -0.00000 -0.47000
O 	O 	0.39290 0.38890 -0.00000 -0.48900
O 	O 	0.25740 0.79850 -0.00000 -0.56100
O 	O 	0.07600 0.90900 -0.00000 -0.15400
In	In	0.44070 0.27030 0.50000 1.97500
P 	P 	0.21900 0.08340 0.50000 0.64600
C 	C 	0.42600 0.51230 0.50000 0.24800
O 	O 	0.35220 0.43190 0.50000 -0.42200
O 	O 	0.39290 0.61110 0.50000 -0.40100
O 	O 	0.25740 0.20150 0.50000 -0.55800
O 	O 	0.07600 0.09100 0.50000 -0.37000
In	In	0.55930 0.72970 0.50000 1.99400
P 	P 	0.78100 0.91660 0.50000 0.61000
C 	C 	0.57400 0.48770 0.50000 0.25800
O 	O 	0.64780 0.56810 0.50000 -0.41000
O 	O 	0.60710 0.38890 0.50000 -0.42700
O 	O 	0.74260 0.79850 0.50000 -0.51200
O 	O 	0.92400 0.90900 0.50000 -0.06300
In	In	0.27590 -0.00000 0.25000 1.90800
In	In	0.72410 -0.00000 0.25000 1.90800
In	In	0.72410 0.00000 0.75000 1.90900
In	In	0.27590 0.00000 0.75000 1.91000
P 	P 	0.50000 0.20430 0.25000 0.65400
P 	P 	0.50000 0.79570 0.25000 0.62600
P 	P 	0.50000 0.79570 0.75000 0.62400
P 	P 	0.50000 0.20430 0.75000 0.65200
C 	C 	0.00000 0.06670 0.25000 -0.12500
C 	C 	0.00000 0.93330 0.25000 0.52800
C 	C 	0.00000 0.93330 0.75000 0.53800
C 	C 	0.00000 0.06670 0.75000 -0.11600
