data_crystal

_cell_length_a 5.65300
_cell_length_b 6.62700
_cell_length_c 9.39100
_cell_angle_alpha 70.78800
_cell_angle_beta  75.83600
_cell_angle_gamma 89.68000

_symmetry_space_group_name_	'P 1'
_symmetry_space_group_name_H-M	'P 1'

loop_
_symmetry_equiv_pos_as_xyz
  x,y,z

loop_
_atom_site_label
_atom_site_type_symbol
_atom_site_fract_x
_atom_site_fract_y
_atom_site_fract_z
_atom_site_charge
In	In	0.28640 0.33170 0.83940 2.00400
P 	P 	0.30600 0.79020 0.92400 0.59700
O 	O 	0.27700 0.65400 0.82460 -0.51500
O 	O 	0.44780 0.24020 0.03050 -0.52400
O 	O 	0.90700 0.25500 0.93130 -0.54500
O 	O 	0.68400 0.97490 0.18990 -0.47400
O 	O 	0.18910 0.44190 0.60450 -0.36700
O 	O 	0.63990 0.42600 0.65500 -0.39900
C 	C 	0.37200 0.50600 0.48740 0.22500
In	In	0.71360 0.66830 0.16060 2.00300
P 	P 	0.69400 0.20980 0.07600 0.59600
O 	O 	0.72300 0.34600 0.17540 -0.51600
O 	O 	0.55220 0.75980 0.96950 -0.52500
O 	O 	0.09300 0.74500 0.06870 -0.54500
O 	O 	0.31600 0.02510 0.81010 -0.47400
O 	O 	0.81090 0.55810 0.39550 -0.36700
O 	O 	0.36010 0.57400 0.34500 -0.39900
C 	C 	0.62800 0.49400 0.51260 0.22500
