data_crystal

_cell_length_a 14.01890
_cell_length_b 13.47920
_cell_length_c 14.27870
_cell_angle_alpha 90.00000
_cell_angle_beta  90.46600
_cell_angle_gamma 90.00000

_symmetry_space_group_name_	'P 1'
_symmetry_space_group_name_H-M	'P 1'

loop_
_symmetry_equiv_pos_as_xyz
  x,y,z

loop_
_atom_site_label
_atom_site_type_symbol
_atom_site_fract_x
_atom_site_fract_y
_atom_site_fract_z
_atom_site_charge
Zn	Zn	0.12160 0.13030 0.73420 1.22600
Zn	Zn	0.97410 0.73010 0.87420 1.25800
P 	P 	0.14650 0.61280 0.77370 0.57100
P 	P 	0.97480 0.25320 0.60720 0.73400
O 	O 	0.05830 0.18290 0.62370 -0.55500
O 	O 	0.08700 0.99480 0.76010 -0.46900
O 	O 	0.24950 0.61330 0.81110 -0.41000
O 	O 	0.88900 0.22120 0.66250 -0.47400
O 	O 	0.00810 0.86500 0.66490 -0.48100
O 	O 	0.08430 0.64960 0.85310 -0.52600
O 	O 	0.94870 0.25380 0.50440 -0.41400
O 	O 	0.13880 0.68030 0.68930 -0.48700
O 	O 	0.00360 0.35790 0.63590 -0.55500
O 	O 	0.11990 0.50660 0.75050 -0.47300
Zn	Zn	0.62160 0.63030 0.73420 1.23400
Zn	Zn	0.47410 0.23010 0.87420 1.23900
P 	P 	0.64650 0.11280 0.77370 0.57300
P 	P 	0.47480 0.75320 0.60720 0.59100
O 	O 	0.55830 0.68290 0.62370 -0.46900
O 	O 	0.58700 0.49480 0.76010 -0.46200
O 	O 	0.74950 0.11330 0.81110 -0.40200
O 	O 	0.38900 0.72120 0.66250 -0.47700
O 	O 	0.50810 0.36500 0.66490 -0.45900
O 	O 	0.58430 0.14960 0.85310 -0.47900
O 	O 	0.44870 0.75380 0.50440 -0.42800
O 	O 	0.63880 0.18030 0.68930 -0.46900
O 	O 	0.50360 0.85790 0.63590 -0.45800
O 	O 	0.61990 0.00660 0.75050 -0.45000
Zn	Zn	0.87840 0.13030 0.76580 1.23900
Zn	Zn	0.02590 0.73010 0.62580 1.21700
P 	P 	0.85350 0.61280 0.72630 0.57300
P 	P 	0.02520 0.25320 0.89280 0.44900
O 	O 	0.94170 0.18290 0.87630 -0.38800
O 	O 	0.91300 0.99480 0.73990 -0.38600
O 	O 	0.75050 0.61330 0.68890 -0.40100
O 	O 	0.11100 0.22120 0.83750 -0.47400
O 	O 	0.99190 0.86500 0.83510 -0.36200
O 	O 	0.91570 0.64960 0.64690 -0.42900
O 	O 	0.05130 0.25380 0.99560 -0.44100
O 	O 	0.86120 0.68030 0.81070 -0.45400
O 	O 	0.99640 0.35790 0.86410 -0.34900
O 	O 	0.88010 0.50660 0.74950 -0.41700
Zn	Zn	0.37840 0.63030 0.76580 1.23300
Zn	Zn	0.52590 0.23010 0.62580 1.23900
P 	P 	0.35350 0.11280 0.72630 0.57300
P 	P 	0.52520 0.75320 0.89280 0.59100
O 	O 	0.44170 0.68290 0.87630 -0.47300
O 	O 	0.41300 0.49480 0.73990 -0.46600
O 	O 	0.25050 0.11330 0.68890 -0.41100
O 	O 	0.61100 0.72120 0.83750 -0.47300
O 	O 	0.49190 0.36500 0.83510 -0.45900
O 	O 	0.41570 0.14960 0.64690 -0.48100
O 	O 	0.55130 0.75380 0.99560 -0.42800
O 	O 	0.36120 0.18030 0.81070 -0.47400
O 	O 	0.49640 0.85790 0.86410 -0.46000
O 	O 	0.38010 0.00660 0.74950 -0.45400
Zn	Zn	0.87840 0.86970 0.26580 1.23900
Zn	Zn	0.02590 0.26990 0.12580 1.21700
P 	P 	0.85350 0.38720 0.22630 0.57400
P 	P 	0.02520 0.74680 0.39280 0.44600
O 	O 	0.94170 0.81710 0.37630 -0.38500
O 	O 	0.91300 0.00520 0.23990 -0.38500
O 	O 	0.75050 0.38670 0.18890 -0.40100
O 	O 	0.11100 0.77880 0.33750 -0.47400
O 	O 	0.99190 0.13500 0.33510 -0.36000
O 	O 	0.91570 0.35040 0.14690 -0.42900
O 	O 	0.05130 0.74620 0.49560 -0.44000
O 	O 	0.86120 0.31970 0.31070 -0.45300
O 	O 	0.99640 0.64210 0.36410 -0.34700
O 	O 	0.88010 0.49340 0.24950 -0.41700
Zn	Zn	0.37840 0.36970 0.26580 1.23300
Zn	Zn	0.52590 0.76990 0.12580 1.23900
P 	P 	0.35350 0.88720 0.22630 0.57300
P 	P 	0.52520 0.24680 0.39280 0.59100
O 	O 	0.44170 0.31710 0.37630 -0.47300
O 	O 	0.41300 0.50520 0.23990 -0.46600
O 	O 	0.25050 0.88670 0.18890 -0.41100
O 	O 	0.61100 0.27880 0.33750 -0.47300
O 	O 	0.49190 0.63500 0.33510 -0.45900
O 	O 	0.41570 0.85040 0.14690 -0.48100
O 	O 	0.55130 0.24620 0.49560 -0.42700
O 	O 	0.36120 0.81970 0.31070 -0.47400
O 	O 	0.49640 0.14210 0.36410 -0.46000
O 	O 	0.38010 0.99340 0.24950 -0.45400
Zn	Zn	0.12160 0.86970 0.23420 1.22700
Zn	Zn	0.97410 0.26990 0.37420 1.26000
P 	P 	0.14650 0.38720 0.27370 0.57200
P 	P 	0.97480 0.74680 0.10720 0.73600
O 	O 	0.05830 0.81710 0.12370 -0.55500
O 	O 	0.08700 0.00520 0.26010 -0.46800
O 	O 	0.24950 0.38670 0.31110 -0.41000
O 	O 	0.88900 0.77880 0.16250 -0.47400
O 	O 	0.00810 0.13500 0.16490 -0.48100
O 	O 	0.08430 0.35040 0.35310 -0.52700
O 	O 	0.94870 0.74620 0.00440 -0.41400
O 	O 	0.13880 0.31970 0.18930 -0.48700
O 	O 	0.00360 0.64210 0.13590 -0.55600
O 	O 	0.11990 0.49340 0.25050 -0.47300
Zn	Zn	0.62160 0.36970 0.23420 1.23400
Zn	Zn	0.47410 0.76990 0.37420 1.23900
P 	P 	0.64650 0.88720 0.27370 0.57300
P 	P 	0.47480 0.24680 0.10720 0.59100
O 	O 	0.55830 0.31710 0.12370 -0.46900
O 	O 	0.58700 0.50520 0.26010 -0.46200
O 	O 	0.74950 0.88670 0.31110 -0.40200
O 	O 	0.38900 0.27880 0.16250 -0.47700
O 	O 	0.50810 0.63500 0.16490 -0.45900
O 	O 	0.58430 0.85040 0.35310 -0.47800
O 	O 	0.44870 0.24620 0.00440 -0.42800
O 	O 	0.63880 0.81970 0.18930 -0.46900
O 	O 	0.50360 0.14210 0.13590 -0.45800
O 	O 	0.61990 0.99340 0.25050 -0.45000
Zn	Zn	0.00000 0.43410 0.75000 1.20400
P 	P 	-0.00000 0.93040 0.75000 0.47400
Zn	Zn	0.50000 0.93410 0.75000 1.23500
P 	P 	0.50000 0.43040 0.75000 0.61800
Zn	Zn	0.00000 0.56590 0.25000 1.20300
P 	P 	0.00000 0.06960 0.25000 0.47200
Zn	Zn	0.50000 0.06590 0.25000 1.23500
P 	P 	0.50000 0.56960 0.25000 0.61800
