data_crystal

_cell_length_a 16.37840
_cell_length_b 16.37840
_cell_length_c 16.37840
_cell_angle_alpha 105.43900
_cell_angle_beta  105.43900
_cell_angle_gamma 105.43900

_symmetry_space_group_name_	'P 1'
_symmetry_space_group_name_H-M	'P 1'

loop_
_symmetry_equiv_pos_as_xyz
  x,y,z

loop_
_atom_site_label
_atom_site_type_symbol
_atom_site_fract_x
_atom_site_fract_y
_atom_site_fract_z
_atom_site_charge
Cu	Cu	0.56912 0.25054 0.93296 0.80900
Cu	Cu	0.74947 0.43087 0.06707 0.80900
Cu	Cu	0.93296 0.56912 0.25054 0.80900
Cu	Cu	0.06707 0.74947 0.43087 0.80900
Cu	Cu	0.25054 0.93296 0.56912 0.80900
Cu	Cu	0.43087 0.06707 0.74947 0.80900
Cu	Cu	0.43088 0.74946 0.06704 0.80900
Cu	Cu	0.25053 0.56913 0.93293 0.80900
Cu	Cu	0.06704 0.43088 0.74946 0.80900
Cu	Cu	0.93293 0.25053 0.56913 0.80900
Cu	Cu	0.74946 0.06704 0.43088 0.80900
Cu	Cu	0.56913 0.93293 0.25053 0.80900
H 	H 	0.47240 0.90700 0.75060 0.20500
H 	H 	0.38320 0.86610 0.76610 0.21600
H 	H 	0.61680 0.23310 0.13390 0.22000
H 	H 	0.52810 0.24960 0.09330 0.20900
H 	H 	0.60400 0.80000 0.86010 0.37400
H 	H 	0.61160 0.90150 0.89950 0.39800
H 	H 	0.60370 0.85990 0.79930 0.37000
H 	H 	0.45480 0.74260 0.68240 0.40500
H 	H 	0.37120 0.71100 0.71090 0.40900
H 	H 	0.45400 0.68190 0.74180 0.40700
H 	H 	0.39310 0.28890 0.01800 0.20500
H 	H 	0.39990 0.24270 0.92540 0.19800
H 	H 	0.75740 0.60030 0.07460 0.20700
H 	H 	0.71060 0.60720 0.98220 0.21100
H 	H 	0.29850 0.23470 0.78550 0.42700
H 	H 	0.33260 0.34020 0.81150 0.44100
H 	H 	0.22910 0.28470 0.78030 0.42700
H 	H 	0.23350 0.23440 0.97770 0.40100
H 	H 	0.22720 0.16650 0.88690 0.43300
H 	H 	0.16620 0.22530 0.88520 0.43300
H 	H 	0.75060 0.47240 0.90700 0.20500
H 	H 	0.76610 0.38320 0.86610 0.21600
H 	H 	0.13390 0.61680 0.23310 0.22000
H 	H 	0.09330 0.52810 0.24960 0.20900
H 	H 	0.86010 0.60400 0.80000 0.37400
H 	H 	0.89950 0.61160 0.90150 0.39800
H 	H 	0.79930 0.60370 0.85990 0.37000
H 	H 	0.68240 0.45480 0.74260 0.40500
H 	H 	0.71090 0.37120 0.71100 0.40900
H 	H 	0.74180 0.45400 0.68190 0.40700
H 	H 	0.01800 0.39310 0.28890 0.20500
H 	H 	0.92540 0.39990 0.24270 0.19800
H 	H 	0.07460 0.75740 0.60030 0.20700
H 	H 	0.98220 0.71060 0.60720 0.21100
H 	H 	0.78550 0.29850 0.23470 0.42700
H 	H 	0.81150 0.33260 0.34020 0.44100
H 	H 	0.78030 0.22910 0.28470 0.42700
H 	H 	0.97770 0.23350 0.23440 0.40100
H 	H 	0.88690 0.22720 0.16650 0.43300
H 	H 	0.88520 0.16620 0.22530 0.43300
H 	H 	0.90700 0.75060 0.47240 0.20500
H 	H 	0.86610 0.76610 0.38320 0.21600
H 	H 	0.23310 0.13390 0.61680 0.22000
H 	H 	0.24960 0.09330 0.52810 0.20900
H 	H 	0.80000 0.86010 0.60400 0.37400
H 	H 	0.90150 0.89950 0.61160 0.39800
H 	H 	0.85990 0.79930 0.60370 0.37000
H 	H 	0.74260 0.68240 0.45480 0.40500
H 	H 	0.71100 0.71090 0.37120 0.40900
H 	H 	0.68190 0.74180 0.45400 0.40700
H 	H 	0.28890 0.01800 0.39310 0.20500
H 	H 	0.24270 0.92540 0.39990 0.19800
H 	H 	0.60030 0.07460 0.75740 0.20700
H 	H 	0.60720 0.98220 0.71060 0.21100
H 	H 	0.23470 0.78550 0.29850 0.42700
H 	H 	0.34020 0.81150 0.33260 0.44100
H 	H 	0.28470 0.78030 0.22910 0.42700
H 	H 	0.23440 0.97770 0.23350 0.40100
H 	H 	0.16650 0.88690 0.22720 0.43300
H 	H 	0.22530 0.88520 0.16620 0.43300
H 	H 	0.52760 0.09300 0.24940 0.20500
H 	H 	0.61680 0.13390 0.23390 0.21600
H 	H 	0.38320 0.76690 0.86610 0.22000
H 	H 	0.47190 0.75040 0.90670 0.20900
H 	H 	0.39600 0.20000 0.13990 0.37400
H 	H 	0.38840 0.09850 0.10050 0.39800
H 	H 	0.39630 0.14010 0.20070 0.37000
H 	H 	0.54520 0.25740 0.31760 0.40500
H 	H 	0.62880 0.28900 0.28910 0.40900
H 	H 	0.54600 0.31810 0.25820 0.40700
H 	H 	0.60690 0.71110 0.98200 0.20500
H 	H 	0.60010 0.75730 0.07460 0.19800
H 	H 	0.24260 0.39970 0.92540 0.20700
H 	H 	0.28940 0.39280 0.01780 0.21100
H 	H 	0.70150 0.76530 0.21450 0.42700
H 	H 	0.66740 0.65980 0.18850 0.44100
H 	H 	0.77090 0.71530 0.21970 0.42700
H 	H 	0.76650 0.76560 0.02230 0.40100
H 	H 	0.77280 0.83350 0.11310 0.43300
H 	H 	0.83380 0.77470 0.11480 0.43300
H 	H 	0.24940 0.52760 0.09300 0.20500
H 	H 	0.23390 0.61680 0.13390 0.21600
H 	H 	0.86610 0.38320 0.76690 0.22000
H 	H 	0.90670 0.47190 0.75040 0.20900
H 	H 	0.13990 0.39600 0.20000 0.37400
H 	H 	0.10050 0.38840 0.09850 0.39800
H 	H 	0.20070 0.39630 0.14010 0.37000
H 	H 	0.31760 0.54520 0.25740 0.40500
H 	H 	0.28910 0.62880 0.28900 0.40900
H 	H 	0.25820 0.54600 0.31810 0.40700
H 	H 	0.98200 0.60690 0.71110 0.20500
H 	H 	0.07460 0.60010 0.75730 0.19800
H 	H 	0.92540 0.24260 0.39970 0.20700
H 	H 	0.01780 0.28940 0.39280 0.21100
H 	H 	0.21450 0.70150 0.76530 0.42700
H 	H 	0.18850 0.66740 0.65980 0.44100
H 	H 	0.21970 0.77090 0.71530 0.42700
H 	H 	0.02230 0.76650 0.76560 0.40100
H 	H 	0.11310 0.77280 0.83350 0.43300
H 	H 	0.11480 0.83380 0.77470 0.43300
H 	H 	0.09300 0.24940 0.52760 0.20500
H 	H 	0.13390 0.23390 0.61680 0.21600
H 	H 	0.76690 0.86610 0.38320 0.22000
H 	H 	0.75040 0.90670 0.47190 0.20900
H 	H 	0.20000 0.13990 0.39600 0.37400
H 	H 	0.09850 0.10050 0.38840 0.39800
H 	H 	0.14010 0.20070 0.39630 0.37000
H 	H 	0.25740 0.31760 0.54520 0.40500
H 	H 	0.28900 0.28910 0.62880 0.40900
H 	H 	0.31810 0.25820 0.54600 0.40700
H 	H 	0.71110 0.98200 0.60690 0.20500
H 	H 	0.75730 0.07460 0.60010 0.19800
H 	H 	0.39970 0.92540 0.24260 0.20700
H 	H 	0.39280 0.01780 0.28940 0.21100
H 	H 	0.76530 0.21450 0.70150 0.42700
H 	H 	0.65980 0.18850 0.66740 0.44100
H 	H 	0.71530 0.21970 0.77090 0.42700
H 	H 	0.76560 0.02230 0.76650 0.40100
H 	H 	0.83350 0.11310 0.77280 0.43300
H 	H 	0.77470 0.11480 0.83380 0.43300
C 	C 	0.52345 0.12309 0.02757 0.23900
C 	C 	0.51190 0.03816 0.03819 -0.13900
C 	C 	0.47667 0.97291 0.87719 0.23200
C 	C 	0.44836 0.89000 0.79365 -0.74300
C 	C 	0.48097 0.81574 0.81589 0.88800
C 	C 	0.55159 0.20608 0.10997 -0.75400
C 	C 	0.58458 0.84680 0.84652 -1.31200
C 	C 	0.43624 0.73004 0.73002 -1.37400
C 	C 	0.62261 0.52704 0.01904 0.24400
C 	C 	0.53793 0.53766 0.00889 -0.14200
C 	C 	0.47311 0.37733 0.98120 0.24000
C 	C 	0.39333 0.29561 0.96150 -0.73700
C 	C 	0.30042 0.30086 0.91200 0.92400
C 	C 	0.70441 0.60693 0.03882 -0.75700
C 	C 	0.28898 0.28902 0.81360 -1.41900
C 	C 	0.22494 0.22486 0.91510 -1.41900
C 	C 	0.02757 0.52345 0.12309 0.23900
C 	C 	0.03819 0.51190 0.03816 -0.13900
C 	C 	0.87719 0.47667 0.97291 0.23200
C 	C 	0.79365 0.44836 0.89000 -0.74300
C 	C 	0.81589 0.48097 0.81574 0.88800
C 	C 	0.10997 0.55159 0.20608 -0.75400
C 	C 	0.84652 0.58458 0.84680 -1.31200
C 	C 	0.73002 0.43624 0.73004 -1.37400
C 	C 	0.01904 0.62261 0.52704 0.24400
C 	C 	0.00889 0.53793 0.53766 -0.14200
C 	C 	0.98120 0.47311 0.37733 0.24000
C 	C 	0.96150 0.39333 0.29561 -0.73700
C 	C 	0.91200 0.30042 0.30086 0.92400
C 	C 	0.03882 0.70441 0.60693 -0.75700
C 	C 	0.81360 0.28898 0.28902 -1.41900
C 	C 	0.91510 0.22494 0.22486 -1.41900
C 	C 	0.12309 0.02757 0.52345 0.23900
C 	C 	0.03816 0.03819 0.51190 -0.13900
C 	C 	0.97291 0.87719 0.47667 0.23200
C 	C 	0.89000 0.79365 0.44836 -0.74300
C 	C 	0.81574 0.81589 0.48097 0.88800
C 	C 	0.20608 0.10997 0.55159 -0.75400
C 	C 	0.84680 0.84652 0.58458 -1.31200
C 	C 	0.73004 0.73002 0.43624 -1.37400
C 	C 	0.52704 0.01904 0.62261 0.24400
C 	C 	0.53766 0.00889 0.53793 -0.14200
C 	C 	0.37733 0.98120 0.47311 0.24000
C 	C 	0.29561 0.96150 0.39333 -0.73700
C 	C 	0.30086 0.91200 0.30042 0.92400
C 	C 	0.60693 0.03882 0.70441 -0.75700
C 	C 	0.28902 0.81360 0.28898 -1.41900
C 	C 	0.22486 0.91510 0.22494 -1.41900
C 	C 	0.47655 0.87691 0.97243 0.23900
C 	C 	0.48810 0.96184 0.96181 -0.13900
C 	C 	0.52333 0.02709 0.12281 0.23200
C 	C 	0.55164 0.11000 0.20635 -0.74300
C 	C 	0.51903 0.18426 0.18411 0.88800
C 	C 	0.44841 0.79392 0.89003 -0.75400
C 	C 	0.41542 0.15320 0.15348 -1.31200
C 	C 	0.56376 0.26996 0.26998 -1.37400
C 	C 	0.37739 0.47296 0.98096 0.24400
C 	C 	0.46207 0.46234 0.99111 -0.14200
C 	C 	0.52689 0.62267 0.01880 0.24000
C 	C 	0.60667 0.70439 0.03850 -0.73700
C 	C 	0.69958 0.69914 0.08800 0.92400
C 	C 	0.29559 0.39307 0.96118 -0.75700
C 	C 	0.71102 0.71098 0.18640 -1.41900
C 	C 	0.77506 0.77514 0.08490 -1.41900
C 	C 	0.97243 0.47655 0.87691 0.23900
C 	C 	0.96181 0.48810 0.96184 -0.13900
C 	C 	0.12281 0.52333 0.02709 0.23200
C 	C 	0.20635 0.55164 0.11000 -0.74300
C 	C 	0.18411 0.51903 0.18426 0.88800
C 	C 	0.89003 0.44841 0.79392 -0.75400
C 	C 	0.15348 0.41542 0.15320 -1.31200
C 	C 	0.26998 0.56376 0.26996 -1.37400
C 	C 	0.98096 0.37739 0.47296 0.24400
C 	C 	0.99111 0.46207 0.46234 -0.14200
C 	C 	0.01880 0.52689 0.62267 0.24000
C 	C 	0.03850 0.60667 0.70439 -0.73700
C 	C 	0.08800 0.69958 0.69914 0.92400
C 	C 	0.96118 0.29559 0.39307 -0.75700
C 	C 	0.18640 0.71102 0.71098 -1.41900
C 	C 	0.08490 0.77506 0.77514 -1.41900
C 	C 	0.87691 0.97243 0.47655 0.23900
C 	C 	0.96184 0.96181 0.48810 -0.13900
C 	C 	0.02709 0.12281 0.52333 0.23200
C 	C 	0.11000 0.20635 0.55164 -0.74300
C 	C 	0.18426 0.18411 0.51903 0.88800
C 	C 	0.79392 0.89003 0.44841 -0.75400
C 	C 	0.15320 0.15348 0.41542 -1.31200
C 	C 	0.26996 0.26998 0.56376 -1.37400
C 	C 	0.47296 0.98096 0.37739 0.24400
C 	C 	0.46234 0.99111 0.46207 -0.14200
C 	C 	0.62267 0.01880 0.52689 0.24000
C 	C 	0.70439 0.03850 0.60667 -0.73700
C 	C 	0.69914 0.08800 0.69958 0.92400
C 	C 	0.39307 0.96118 0.29559 -0.75700
C 	C 	0.71098 0.18640 0.71102 -1.41900
C 	C 	0.77514 0.08490 0.77506 -1.41900
I 	I 	0.73861 0.26139 0.99999 -0.59200
I 	I 	0.50001 0.23807 0.76197 -0.58000
I 	I 	0.99999 0.73861 0.26139 -0.59200
I 	I 	0.76197 0.50001 0.23807 -0.58000
I 	I 	0.26139 0.99999 0.73861 -0.59200
I 	I 	0.23807 0.76197 0.50001 -0.58000
I 	I 	0.26139 0.73861 0.00001 -0.59200
I 	I 	0.49999 0.76193 0.23803 -0.58000
I 	I 	0.00001 0.26139 0.73861 -0.59200
I 	I 	0.23803 0.49999 0.76193 -0.58000
I 	I 	0.73861 0.00001 0.26139 -0.59200
I 	I 	0.76193 0.23803 0.49999 -0.58000
N 	N 	0.51267 0.12970 0.94678 -0.25300
N 	N 	0.48762 0.05359 0.87061 -0.25100
N 	N 	0.62939 0.44701 0.01180 -0.25500
N 	N 	0.55302 0.37064 0.98805 -0.25400
N 	N 	0.94678 0.51267 0.12970 -0.25300
N 	N 	0.87061 0.48762 0.05359 -0.25100
N 	N 	0.01180 0.62939 0.44701 -0.25500
N 	N 	0.98805 0.55302 0.37064 -0.25400
N 	N 	0.12970 0.94678 0.51267 -0.25300
N 	N 	0.05359 0.87061 0.48762 -0.25100
N 	N 	0.44701 0.01180 0.62939 -0.25500
N 	N 	0.37064 0.98805 0.55302 -0.25400
N 	N 	0.48733 0.87030 0.05322 -0.25300
N 	N 	0.51238 0.94641 0.12939 -0.25100
N 	N 	0.37061 0.55299 0.98820 -0.25500
N 	N 	0.44698 0.62936 0.01195 -0.25400
N 	N 	0.05322 0.48733 0.87030 -0.25300
N 	N 	0.12939 0.51238 0.94641 -0.25100
N 	N 	0.98820 0.37061 0.55299 -0.25500
N 	N 	0.01195 0.44698 0.62936 -0.25400
N 	N 	0.87030 0.05322 0.48733 -0.25300
N 	N 	0.94641 0.12939 0.51238 -0.25100
N 	N 	0.55299 0.98820 0.37061 -0.25500
N 	N 	0.62936 0.01195 0.44698 -0.25400
