data_crystal

_cell_length_a 9.93800
_cell_length_b 11.71300
_cell_length_c 13.49800
_cell_angle_alpha 66.88000
_cell_angle_beta  86.94000
_cell_angle_gamma 76.45000

_symmetry_space_group_name_	'P 1'
_symmetry_space_group_name_H-M	'P 1'

loop_
_symmetry_equiv_pos_as_xyz
  x,y,z

loop_
_atom_site_label
_atom_site_type_symbol
_atom_site_fract_x
_atom_site_fract_y
_atom_site_fract_z
_atom_site_charge
Gd	Gd	0.23641 0.52617 0.00482 1.46900
Gd	Gd	0.76359 0.47383 0.99518 1.46900
H 	H 	0.05520 0.23480 0.26550 0.05700
H 	H 	0.01160 0.12220 0.44150 0.03300
H 	H 	0.43790 0.00890 0.31930 0.08000
H 	H 	0.71800 0.70220 0.52420 0.03600
H 	H 	0.68610 0.60040 0.70490 0.05200
H 	H 	0.30350 0.82620 0.65780 0.06000
H 	H 	0.23980 0.56880 0.72640 0.03900
H 	H 	0.30780 0.59790 0.55480 0.03500
H 	H 	0.90880 0.46620 0.66140 0.06100
H 	H 	0.94480 0.76520 0.73450 0.05600
H 	H 	0.98840 0.87780 0.55850 0.03200
H 	H 	0.56210 0.99110 0.68070 0.08000
H 	H 	0.28200 0.29780 0.47580 0.03600
H 	H 	0.31390 0.39960 0.29510 0.05200
H 	H 	0.69650 0.17380 0.34220 0.06000
H 	H 	0.76020 0.43120 0.27360 0.03900
H 	H 	0.69220 0.40210 0.44520 0.03500
H 	H 	0.09120 0.53380 0.33860 0.06100
C 	C 	0.28890 0.20870 0.15876 0.32500
C 	C 	0.25250 0.13480 0.27255 -0.03500
C 	C 	0.12360 0.16780 0.31040 -0.06000
C 	C 	0.09850 0.09910 0.41640 0.03800
C 	C 	0.31570 0.96910 0.44740 0.06900
C 	C 	0.35010 0.03350 0.34251 -0.07200
C 	C 	0.41830 0.85960 0.52490 0.05100
C 	C 	0.63400 0.72820 0.55170 0.02900
C 	C 	0.61560 0.66530 0.66060 -0.03300
C 	C 	0.48980 0.70140 0.70161 -0.08800
C 	C 	0.38920 0.80010 0.63257 -0.04000
C 	C 	0.46510 0.63270 0.81908 0.42400
C 	C 	0.01320 0.49580 0.82367 0.42700
C 	C 	0.06590 0.51320 0.71344 -0.09300
C 	C 	0.18670 0.55350 0.68030 -0.02900
C 	C 	0.22650 0.57050 0.57680 0.02200
C 	C 	0.03900 0.51130 0.53940 0.05300
C 	C 	0.99100 0.49260 0.64150 -0.04200
C 	C 	0.71110 0.79130 0.84124 0.32500
C 	C 	0.74750 0.86520 0.72745 -0.03500
C 	C 	0.87640 0.83220 0.68960 -0.06000
C 	C 	0.90150 0.90090 0.58360 0.03800
C 	C 	0.68430 0.03090 0.55260 0.06900
C 	C 	0.64990 0.96650 0.65749 -0.07200
C 	C 	0.58170 0.14040 0.47510 0.05100
C 	C 	0.36600 0.27180 0.44830 0.02900
C 	C 	0.38440 0.33470 0.33940 -0.03300
C 	C 	0.51020 0.29860 0.29839 -0.08800
C 	C 	0.61080 0.19990 0.36743 -0.04000
C 	C 	0.53490 0.36730 0.18092 0.42400
C 	C 	0.98680 0.50420 0.17633 0.42700
C 	C 	0.93410 0.48680 0.28656 -0.09300
C 	C 	0.81330 0.44650 0.31970 -0.02900
C 	C 	0.77350 0.42950 0.42320 0.02200
C 	C 	0.96100 0.48870 0.46060 0.05300
C 	C 	0.00900 0.50740 0.35850 -0.04200
N 	N 	0.19140 0.00130 0.48510 -0.12200
N 	N 	0.53920 0.82320 0.48430 -0.11400
N 	N 	0.15620 0.55030 0.50650 -0.11700
N 	N 	0.80860 0.99870 0.51490 -0.12200
N 	N 	0.46080 0.17680 0.51570 -0.11400
N 	N 	0.84380 0.44970 0.49350 -0.11700
O 	O 	0.39650 0.16411 0.12352 -0.27400
O 	O 	0.20441 0.31425 0.10700 -0.38700
O 	O 	0.34383 0.64912 0.84964 -0.45900
O 	O 	0.56839 0.55877 0.87834 -0.47400
O 	O 	0.08885 0.50624 0.88935 -0.47700
O 	O 	0.89562 0.47307 0.84225 -0.44300
O 	O 	0.60350 0.83589 0.87648 -0.27400
O 	O 	0.79559 0.68575 0.89300 -0.38700
O 	O 	0.65617 0.35088 0.15036 -0.45900
O 	O 	0.43161 0.44123 0.12166 -0.47400
O 	O 	0.91115 0.49376 0.11065 -0.47700
O 	O 	0.10438 0.52693 0.15775 -0.44300
