data_crystal

_cell_length_a 9.07400
_cell_length_b 9.23000
_cell_length_c 9.30900
_cell_angle_alpha 76.44600
_cell_angle_beta  87.34300
_cell_angle_gamma 89.38800

_symmetry_space_group_name_	'P 1'
_symmetry_space_group_name_H-M	'P 1'

loop_
_symmetry_equiv_pos_as_xyz
  x,y,z

loop_
_atom_site_label
_atom_site_type_symbol
_atom_site_fract_x
_atom_site_fract_y
_atom_site_fract_z
_atom_site_charge
P 	P 	0.18744 0.38185 0.90258 0.82700
P 	P 	0.61755 0.37170 0.67634 0.80500
P 	P 	0.64606 0.16819 0.14566 0.71200
Al	Al	0.83934 0.37467 0.92586 2.39700
Al	Al	0.43433 0.13220 0.91193 2.40300
Al	Al	0.61903 0.39099 0.34189 2.39800
F 	F 	0.39419 0.98639 0.08364 -0.92600
O 	O 	0.50263 0.25482 0.73720 -0.68600
O 	O 	0.65206 0.99914 0.18779 -0.55600
O 	O 	0.26206 0.23280 0.92873 -0.63500
O 	O 	0.53321 0.23326 0.03311 -0.67800
O 	O 	0.61790 0.22370 0.28875 -0.71900
O 	O 	0.75284 0.35730 0.76943 -0.74600
O 	O 	0.02464 0.36180 0.87730 -0.74300
O 	O 	0.67540 0.35510 0.52280 -0.71600
O 	O 	0.19800 0.45250 0.03565 -0.80200
O 	O 	0.79995 0.23040 0.08065 -0.72900
O 	O 	0.55445 0.52850 0.66190 -0.80200
O 	O 	0.25030 0.49010 0.76322 -0.80300
P 	P 	0.81256 0.61815 0.09742 0.82600
P 	P 	0.38245 0.62830 0.32366 0.80400
P 	P 	0.35394 0.83181 0.85434 0.71200
Al	Al	0.16066 0.62533 0.07414 2.39700
Al	Al	0.56567 0.86780 0.08807 2.40300
Al	Al	0.38097 0.60901 0.65811 2.39800
F 	F 	0.60581 0.01361 0.91636 -0.92600
O 	O 	0.49737 0.74518 0.26280 -0.68600
O 	O 	0.34794 0.00086 0.81221 -0.55600
O 	O 	0.73794 0.76720 0.07127 -0.63500
O 	O 	0.46679 0.76674 0.96689 -0.67800
O 	O 	0.38210 0.77630 0.71125 -0.71900
O 	O 	0.24716 0.64270 0.23057 -0.74600
O 	O 	0.97536 0.63820 0.12270 -0.74300
O 	O 	0.32460 0.64490 0.47720 -0.71600
O 	O 	0.80200 0.54750 0.96435 -0.80200
O 	O 	0.20005 0.76960 0.91935 -0.72900
O 	O 	0.44555 0.47150 0.33810 -0.80200
O 	O 	0.74970 0.50990 0.23678 -0.80300
