data_crystal

_cell_length_a 11.03170
_cell_length_b 13.89340
_cell_length_c 18.29110
_cell_angle_alpha 73.65880
_cell_angle_beta  72.44870
_cell_angle_gamma 66.60840

_symmetry_space_group_name_	'P 1'
_symmetry_space_group_name_H-M	'P 1'

loop_
_symmetry_equiv_pos_as_xyz
  x,y,z

loop_
_atom_site_label
_atom_site_type_symbol
_atom_site_fract_x
_atom_site_fract_y
_atom_site_fract_z
_atom_site_charge
Cu	Cu	0.40765 0.73701 0.60499 0.83100
Cu	Cu	0.59333 0.74092 0.74686 0.81100
Cu	Cu	0.74965 0.76299 0.89501 0.83000
Cu	Cu	0.08111 0.75908 0.75314 0.81000
Cu	Cu	0.59235 0.26299 0.39501 0.83000
Cu	Cu	0.40667 0.25908 0.25314 0.81000
Cu	Cu	0.25035 0.23701 0.10499 0.83000
Cu	Cu	0.91889 0.24092 0.24686 0.81000
H 	H 	0.94770 0.76580 0.98760 -0.01100
H 	H 	0.76660 0.55460 0.03780 0.02400
H 	H 	0.90100 0.50660 0.13560 0.01900
H 	H 	0.10620 0.56790 0.13550 0.07100
H 	H 	0.11100 0.67830 0.07930 0.06700
H 	H 	0.00250 0.56500 0.27020 0.05700
H 	H 	0.93260 0.84840 0.12460 0.06000
H 	H 	0.48320 0.78020 0.02760 -0.01400
H 	H 	0.55330 0.01040 0.85580 0.01800
H 	H 	0.32240 0.08450 0.93230 0.03200
H 	H 	0.25020 0.86760 0.09700 0.06300
H 	H 	0.22370 0.99030 0.09490 0.05900
H 	H 	0.20010 0.87460 0.94960 0.06200
H 	H 	0.99030 0.07840 0.09940 0.03900
H 	H 	0.70110 0.73420 0.51240 -0.01200
H 	H 	0.35900 0.94540 0.46220 0.02400
H 	H 	0.54320 0.99340 0.36440 0.01900
H 	H 	0.80960 0.93210 0.36450 0.07100
H 	H 	0.86860 0.82170 0.42070 0.06700
H 	H 	0.83770 0.93500 0.22980 0.05700
H 	H 	0.90560 0.65160 0.37540 0.06000
H 	H 	0.29100 0.71980 0.47240 -0.01300
H 	H 	0.41950 0.48960 0.64420 0.01800
H 	H 	0.33920 0.41550 0.56770 0.03200
H 	H 	0.21480 0.63240 0.40300 0.06300
H 	H 	0.30890 0.50970 0.40510 0.05900
H 	H 	0.02430 0.62540 0.55040 0.06200
H 	H 	0.16810 0.42160 0.40060 0.03900
H 	H 	0.05230 0.23420 0.01240 -0.01100
H 	H 	0.23340 0.44540 0.96220 0.02400
H 	H 	0.09900 0.49340 0.86440 0.01900
H 	H 	0.89380 0.43210 0.86450 0.07100
H 	H 	0.88900 0.32170 0.92070 0.06700
H 	H 	0.99750 0.43500 0.72980 0.05700
H 	H 	0.06740 0.15160 0.87540 0.06000
H 	H 	0.51680 0.21980 0.97240 -0.01400
H 	H 	0.44670 0.98960 0.14420 0.01800
H 	H 	0.67760 0.91550 0.06770 0.03200
H 	H 	0.74980 0.13240 0.90300 0.06300
H 	H 	0.77630 0.00970 0.90510 0.05900
H 	H 	0.79990 0.12540 0.05040 0.06200
H 	H 	0.00970 0.92160 0.90060 0.03900
H 	H 	0.29890 0.26580 0.48760 -0.01200
H 	H 	0.64100 0.05460 0.53780 0.02400
H 	H 	0.45680 0.00660 0.63560 0.01900
H 	H 	0.19040 0.06790 0.63550 0.07100
H 	H 	0.13140 0.17830 0.57930 0.06700
H 	H 	0.16230 0.06500 0.77020 0.05700
H 	H 	0.09440 0.34840 0.62460 0.06000
H 	H 	0.70900 0.28020 0.52760 -0.01300
H 	H 	0.58050 0.51040 0.35580 0.01800
H 	H 	0.66080 0.58450 0.43230 0.03200
H 	H 	0.78520 0.36760 0.59700 0.06300
H 	H 	0.69110 0.49030 0.59490 0.05900
H 	H 	0.97570 0.37460 0.44960 0.06200
H 	H 	0.83190 0.57840 0.59940 0.03900
W 	W 	0.84438 0.74198 0.74474 0.36700
W 	W 	0.33110 0.75802 0.75526 0.36700
W 	W 	0.15562 0.25802 0.25526 0.36700
W 	W 	0.66890 0.24198 0.24474 0.36700
C 	C 	0.91770 0.70680 0.01240 0.07800
C 	C 	0.82020 0.59250 0.03990 -0.00300
C 	C 	0.89410 0.56550 0.09330 0.00300
C 	C 	0.04980 0.64190 0.11670 -0.11500
C 	C 	0.97900 0.69900 0.18580 0.05800
C 	C 	0.96930 0.64080 0.26160 -0.06700
C 	C 	0.92850 0.80740 0.17600 -0.06800
C 	C 	0.47220 0.84740 0.99380 0.08200
C 	C 	0.50980 0.97250 0.90070 0.00600
C 	C 	0.38330 0.01350 0.94230 -0.00100
C 	C 	0.23800 0.93850 0.06270 -0.10900
C 	C 	0.11480 0.97150 0.02910 0.05100
C 	C 	0.11830 0.92610 0.97030 -0.07000
C 	C 	0.99460 0.04620 0.05880 -0.06600
C 	C 	0.63690 0.79320 0.48760 0.07900
C 	C 	0.45260 0.90750 0.46010 -0.00300
C 	C 	0.55290 0.93450 0.40670 0.00200
C 	C 	0.80840 0.85810 0.38330 -0.11500
C 	C 	0.86380 0.80100 0.31420 0.05800
C 	C 	0.87170 0.85920 0.23840 -0.06700
C 	C 	0.91190 0.69260 0.32400 -0.06800
C 	C 	0.31340 0.65260 0.50620 0.08200
C 	C 	0.38300 0.52750 0.59930 0.00500
C 	C 	0.33910 0.48650 0.55770 -0.00000
C 	C 	0.23920 0.56150 0.43730 -0.10900
C 	C 	0.11540 0.52850 0.47090 0.05100
C 	C 	0.01470 0.57390 0.52970 -0.07000
C 	C 	0.09960 0.45380 0.44120 -0.06600
C 	C 	0.08230 0.29320 0.98760 0.07800
C 	C 	0.17980 0.40750 0.96010 -0.00300
C 	C 	0.10590 0.43450 0.90670 0.00300
C 	C 	0.95020 0.35810 0.88330 -0.11500
C 	C 	0.02100 0.30100 0.81420 0.05800
C 	C 	0.03070 0.35920 0.73840 -0.06700
C 	C 	0.07150 0.19260 0.82400 -0.06800
C 	C 	0.52780 0.15260 0.00620 0.08200
C 	C 	0.49020 0.02750 0.09930 0.00600
C 	C 	0.61670 0.98650 0.05770 -0.00100
C 	C 	0.76200 0.06150 0.93730 -0.10900
C 	C 	0.88520 0.02850 0.97090 0.05100
C 	C 	0.88170 0.07390 0.02970 -0.07000
C 	C 	0.00540 0.95380 0.94120 -0.06600
C 	C 	0.36310 0.20680 0.51240 0.07900
C 	C 	0.54740 0.09250 0.53990 -0.00300
C 	C 	0.44710 0.06550 0.59330 0.00200
C 	C 	0.19160 0.14190 0.61670 -0.11500
C 	C 	0.13620 0.19900 0.68580 0.05800
C 	C 	0.12830 0.14080 0.76160 -0.06700
C 	C 	0.08810 0.30740 0.67600 -0.06800
C 	C 	0.68660 0.34740 0.49380 0.08200
C 	C 	0.61700 0.47250 0.40070 0.00500
C 	C 	0.66090 0.51350 0.44230 -0.00000
C 	C 	0.76080 0.43850 0.56270 -0.10900
C 	C 	0.88460 0.47150 0.52910 0.05100
C 	C 	0.98530 0.42610 0.47030 -0.07000
C 	C 	0.90040 0.54620 0.55880 -0.06600
S 	S 	0.38784 0.86163 0.79921 -0.33400
S 	S 	0.73161 0.64441 0.83679 -0.48600
S 	S 	0.52133 0.63670 0.70284 -0.49200
S 	S 	0.20534 0.67824 0.84922 -0.33900
S 	S 	0.04868 0.63837 0.70079 -0.33400
S 	S 	0.21281 0.85559 0.66321 -0.48600
S 	S 	0.86087 0.86330 0.79716 -0.49200
S 	S 	0.73280 0.82176 0.65078 -0.33800
S 	S 	0.61216 0.13837 0.20079 -0.33400
S 	S 	0.26839 0.35559 0.16321 -0.48600
S 	S 	0.47867 0.36330 0.29716 -0.49200
S 	S 	0.79466 0.32176 0.15078 -0.33900
S 	S 	0.95132 0.36163 0.29921 -0.33400
S 	S 	0.78719 0.14441 0.33679 -0.48600
S 	S 	0.13913 0.13670 0.20284 -0.49200
S 	S 	0.26720 0.17824 0.34922 -0.33800
N 	N 	0.83320 0.68370 0.98830 -0.23400
N 	N 	0.95690 0.63780 0.07600 -0.10700
N 	N 	0.56500 0.86860 0.93320 -0.23200
N 	N 	0.36010 0.93380 0.00120 -0.10900
N 	N 	0.50520 0.81630 0.51170 -0.23400
N 	N 	0.67070 0.86220 0.42400 -0.10700
N 	N 	0.36680 0.63140 0.56680 -0.23200
N 	N 	0.29510 0.56620 0.49880 -0.10900
N 	N 	0.16680 0.31630 0.01170 -0.23400
N 	N 	0.04310 0.36220 0.92400 -0.10700
N 	N 	0.43500 0.13140 0.06680 -0.23200
N 	N 	0.63990 0.06620 0.99880 -0.10900
N 	N 	0.49480 0.18370 0.48830 -0.23400
N 	N 	0.32930 0.13780 0.57600 -0.10700
N 	N 	0.63320 0.36860 0.43320 -0.23200
N 	N 	0.70490 0.43380 0.50120 -0.10900
