data_crystal

_cell_length_a 16.27820
_cell_length_b 16.27820
_cell_length_c 30.49920
_cell_angle_alpha 90.00000
_cell_angle_beta  90.00000
_cell_angle_gamma 90.00000

_symmetry_space_group_name_	'P 1'
_symmetry_space_group_name_H-M	'P 1'

loop_
_symmetry_equiv_pos_as_xyz
  x,y,z

loop_
_atom_site_label
_atom_site_type_symbol
_atom_site_fract_x
_atom_site_fract_y
_atom_site_fract_z
_atom_site_charge
Zn	Zn	0.63883 0.90996 0.79613 1.21600
Zn	Zn	0.62468 0.88600 0.89970 1.23000
Zn	Zn	0.86117 0.59004 0.79613 1.21500
Zn	Zn	0.87532 0.61400 0.89970 1.22900
Zn	Zn	0.59004 0.63883 0.79613 1.21500
Zn	Zn	0.61400 0.62468 0.89970 1.22900
Zn	Zn	0.90996 0.86117 0.79613 1.21500
Zn	Zn	0.88600 0.87532 0.89970 1.22900
Zn	Zn	0.36117 0.40996 0.70387 1.21500
Zn	Zn	0.37532 0.38600 0.60030 1.22900
Zn	Zn	0.13883 0.09004 0.70387 1.21500
Zn	Zn	0.12468 0.11400 0.60030 1.22900
Zn	Zn	0.40996 0.13883 0.70387 1.21500
Zn	Zn	0.38600 0.12468 0.60030 1.22900
Zn	Zn	0.09004 0.36117 0.70387 1.21500
Zn	Zn	0.11400 0.37532 0.60030 1.22900
Zn	Zn	0.36117 0.09004 0.20387 1.21500
Zn	Zn	0.37532 0.11400 0.10030 1.22900
Zn	Zn	0.13883 0.40996 0.20387 1.21500
Zn	Zn	0.12468 0.38600 0.10030 1.22900
Zn	Zn	0.40996 0.36117 0.20387 1.21500
Zn	Zn	0.38600 0.37532 0.10030 1.22900
Zn	Zn	0.09004 0.13883 0.20387 1.21500
Zn	Zn	0.11400 0.12468 0.10030 1.22900
Zn	Zn	0.63883 0.59004 0.29613 1.21500
Zn	Zn	0.62468 0.61400 0.39970 1.22900
Zn	Zn	0.86117 0.90996 0.29613 1.21500
Zn	Zn	0.87532 0.88600 0.39970 1.22900
Zn	Zn	0.59004 0.86117 0.29613 1.21500
Zn	Zn	0.61400 0.87532 0.39970 1.22900
Zn	Zn	0.90996 0.63883 0.29613 1.21500
Zn	Zn	0.88600 0.62468 0.39970 1.22900
H 	H 	0.38760 0.97850 0.91150 0.04500
H 	H 	0.18970 0.05940 0.84470 0.05000
H 	H 	0.40350 0.01790 0.78060 0.02800
H 	H 	0.31990 0.05220 0.96710 0.05200
H 	H 	0.10670 0.99530 0.02880 0.02500
H 	H 	0.04960 0.95800 0.96150 0.05500
H 	H 	0.12550 0.96890 0.89760 0.04800
H 	H 	0.72860 0.84900 0.84340 0.29700
H 	H 	0.11240 0.52150 0.91150 0.04500
H 	H 	0.31030 0.44060 0.84470 0.05000
H 	H 	0.09650 0.48210 0.78060 0.02800
H 	H 	0.18010 0.44780 0.96710 0.05000
H 	H 	0.39330 0.50470 0.02880 0.02300
H 	H 	0.45040 0.54200 0.96150 0.05800
H 	H 	0.37450 0.53110 0.89760 0.04700
H 	H 	0.77140 0.65100 0.84340 0.29700
H 	H 	0.52150 0.38760 0.91150 0.04500
H 	H 	0.44060 0.18970 0.84470 0.05000
H 	H 	0.48210 0.40350 0.78060 0.02800
H 	H 	0.44780 0.31990 0.96710 0.05000
H 	H 	0.50470 0.10670 0.02880 0.02300
H 	H 	0.54200 0.04960 0.96150 0.05800
H 	H 	0.53110 0.12550 0.89760 0.04600
H 	H 	0.65100 0.72860 0.84340 0.29700
H 	H 	0.97850 0.11240 0.91150 0.04500
H 	H 	0.05940 0.31030 0.84470 0.05000
H 	H 	0.01790 0.09650 0.78060 0.02800
H 	H 	0.05220 0.18010 0.96710 0.05100
H 	H 	0.99530 0.39330 0.02880 0.02500
H 	H 	0.95800 0.45040 0.96150 0.05600
H 	H 	0.96890 0.37450 0.89760 0.04800
H 	H 	0.84900 0.77140 0.84340 0.29700
H 	H 	0.61240 0.47850 0.58850 0.04500
H 	H 	0.81030 0.55940 0.65530 0.05000
H 	H 	0.59650 0.51790 0.71940 0.02800
H 	H 	0.68010 0.55220 0.53290 0.05000
H 	H 	0.89330 0.49530 0.47120 0.02300
H 	H 	0.95040 0.45800 0.53850 0.05800
H 	H 	0.87450 0.46890 0.60240 0.04700
H 	H 	0.27140 0.34900 0.65660 0.29700
H 	H 	0.88760 0.02150 0.58850 0.04500
H 	H 	0.68970 0.94060 0.65530 0.05000
H 	H 	0.90350 0.98210 0.71940 0.02800
H 	H 	0.81990 0.94780 0.53290 0.05100
H 	H 	0.60670 0.00470 0.47120 0.02400
H 	H 	0.54960 0.04200 0.53850 0.05700
H 	H 	0.62550 0.03110 0.60240 0.04800
H 	H 	0.22860 0.15100 0.65660 0.29700
H 	H 	0.47850 0.88760 0.58850 0.04500
H 	H 	0.55940 0.68970 0.65530 0.05000
H 	H 	0.51790 0.90350 0.71940 0.02800
H 	H 	0.55220 0.81990 0.53290 0.05000
H 	H 	0.49530 0.60670 0.47120 0.02300
H 	H 	0.45800 0.54960 0.53850 0.05800
H 	H 	0.46890 0.62550 0.60240 0.04700
H 	H 	0.34900 0.22860 0.65660 0.29700
H 	H 	0.02150 0.61240 0.58850 0.04500
H 	H 	0.94060 0.81030 0.65530 0.05000
H 	H 	0.98210 0.59650 0.71940 0.02800
H 	H 	0.94780 0.68010 0.53290 0.05100
H 	H 	0.00470 0.89330 0.47120 0.02400
H 	H 	0.04200 0.95040 0.53850 0.05500
H 	H 	0.03110 0.87450 0.60240 0.04800
H 	H 	0.15100 0.27140 0.65660 0.29700
H 	H 	0.61240 0.02150 0.08850 0.04500
H 	H 	0.81030 0.94060 0.15530 0.05000
H 	H 	0.59650 0.98210 0.21940 0.02800
H 	H 	0.68010 0.94780 0.03290 0.05200
H 	H 	0.89330 0.00470 0.97120 0.02500
H 	H 	0.95040 0.04200 0.03850 0.05500
H 	H 	0.87450 0.03110 0.10240 0.04800
H 	H 	0.27140 0.15100 0.15660 0.29700
H 	H 	0.88760 0.47850 0.08850 0.04500
H 	H 	0.68970 0.55940 0.15530 0.05000
H 	H 	0.90350 0.51790 0.21940 0.02800
H 	H 	0.81990 0.55220 0.03290 0.05000
H 	H 	0.60670 0.49530 0.97120 0.02300
H 	H 	0.54960 0.45800 0.03850 0.05800
H 	H 	0.62550 0.46890 0.10240 0.04700
H 	H 	0.22860 0.34900 0.15660 0.29700
H 	H 	0.47850 0.61240 0.08850 0.04500
H 	H 	0.55940 0.81030 0.15530 0.05000
H 	H 	0.51790 0.59650 0.21940 0.02800
H 	H 	0.55220 0.68010 0.03290 0.05000
H 	H 	0.49530 0.89330 0.97120 0.02300
H 	H 	0.45800 0.95040 0.03850 0.05800
H 	H 	0.46890 0.87450 0.10240 0.04600
H 	H 	0.34900 0.27140 0.15660 0.29700
H 	H 	0.02150 0.88760 0.08850 0.04500
H 	H 	0.94060 0.68970 0.15530 0.05000
H 	H 	0.98210 0.90350 0.21940 0.02800
H 	H 	0.94780 0.81990 0.03290 0.05100
H 	H 	0.00470 0.60670 0.97120 0.02500
H 	H 	0.04200 0.54960 0.03850 0.05600
H 	H 	0.03110 0.62550 0.10240 0.04800
H 	H 	0.15100 0.22860 0.15660 0.29700
H 	H 	0.38760 0.52150 0.41150 0.04500
H 	H 	0.18970 0.44060 0.34470 0.05000
H 	H 	0.40350 0.48210 0.28060 0.02800
H 	H 	0.31990 0.44780 0.46710 0.05000
H 	H 	0.10670 0.50470 0.52880 0.02300
H 	H 	0.04960 0.54200 0.46150 0.05800
H 	H 	0.12550 0.53110 0.39760 0.04700
H 	H 	0.72860 0.65100 0.34340 0.29700
H 	H 	0.11240 0.97850 0.41150 0.04500
H 	H 	0.31030 0.05940 0.34470 0.05000
H 	H 	0.09650 0.01790 0.28060 0.02800
H 	H 	0.18010 0.05220 0.46710 0.05100
H 	H 	0.39330 0.99530 0.52880 0.02400
H 	H 	0.45040 0.95800 0.46150 0.05700
H 	H 	0.37450 0.96890 0.39760 0.04800
H 	H 	0.77140 0.84900 0.34340 0.29700
H 	H 	0.52150 0.11240 0.41150 0.04500
H 	H 	0.44060 0.31030 0.34470 0.05000
H 	H 	0.48210 0.09650 0.28060 0.02800
H 	H 	0.44780 0.18010 0.46710 0.05000
H 	H 	0.50470 0.39330 0.52880 0.02300
H 	H 	0.54200 0.45040 0.46150 0.05800
H 	H 	0.53110 0.37450 0.39760 0.04700
H 	H 	0.65100 0.77140 0.34340 0.29700
H 	H 	0.97850 0.38760 0.41150 0.04500
H 	H 	0.05940 0.18970 0.34470 0.05000
H 	H 	0.01790 0.40350 0.28060 0.02800
H 	H 	0.05220 0.31990 0.46710 0.05100
H 	H 	0.99530 0.10670 0.52880 0.02400
H 	H 	0.95800 0.04960 0.46150 0.05500
H 	H 	0.96890 0.12550 0.39760 0.04800
H 	H 	0.84900 0.72860 0.34340 0.29700
C 	C 	0.40810 0.99380 0.84610 -0.11500
C 	C 	0.36230 0.99420 0.88474 -0.00400
C 	C 	0.28000 0.01720 0.88463 -0.01400
C 	C 	0.24560 0.04250 0.84526 -0.00500
C 	C 	0.29140 0.04360 0.80605 -0.11400
C 	C 	0.37220 0.01840 0.80688 0.05200
C 	C 	0.25110 0.06680 0.76416 0.36300
C 	C 	0.23100 0.01240 0.92585 0.01300
C 	C 	0.26470 0.03360 0.96586 -0.01900
C 	C 	0.21930 0.02810 0.00433 -0.11000
C 	C 	0.13830 0.99950 0.00265 0.00600
C 	C 	0.10450 0.97760 0.96275 -0.04900
C 	C 	0.14960 0.98400 0.92479 -0.05000
C 	C 	0.25650 0.05400 0.04660 0.38900
C 	C 	0.49400 0.96060 0.84592 0.39400
C 	C 	0.09190 0.50620 0.84610 -0.11300
C 	C 	0.13770 0.50580 0.88474 -0.00500
C 	C 	0.22000 0.48280 0.88463 -0.01300
C 	C 	0.25440 0.45750 0.84526 -0.00600
C 	C 	0.20860 0.45640 0.80605 -0.11300
C 	C 	0.12780 0.48160 0.80688 0.05100
C 	C 	0.24890 0.43320 0.76416 0.36300
C 	C 	0.26900 0.48760 0.92585 0.00700
C 	C 	0.23530 0.46640 0.96586 -0.01300
C 	C 	0.28070 0.47190 0.00433 -0.11700
C 	C 	0.36170 0.50050 0.00265 0.01500
C 	C 	0.39550 0.52240 0.96275 -0.05600
C 	C 	0.35040 0.51600 0.92479 -0.04200
C 	C 	0.24350 0.44600 0.04660 0.39100
C 	C 	0.00600 0.53940 0.84592 0.39200
C 	C 	0.50620 0.40810 0.84610 -0.11400
C 	C 	0.50580 0.36230 0.88474 -0.00400
C 	C 	0.48280 0.28000 0.88463 -0.01300
C 	C 	0.45750 0.24560 0.84526 -0.00600
C 	C 	0.45640 0.29140 0.80605 -0.11300
C 	C 	0.48160 0.37220 0.80688 0.05100
C 	C 	0.43320 0.25110 0.76416 0.36300
C 	C 	0.48760 0.23100 0.92585 0.00700
C 	C 	0.46640 0.26470 0.96586 -0.01300
C 	C 	0.47190 0.21930 0.00433 -0.11800
C 	C 	0.50050 0.13830 0.00265 0.01500
C 	C 	0.52240 0.10450 0.96275 -0.05600
C 	C 	0.51600 0.14960 0.92479 -0.04200
C 	C 	0.44600 0.25650 0.04660 0.39100
C 	C 	0.53940 0.49400 0.84592 0.39400
C 	C 	0.99380 0.09190 0.84610 -0.11400
C 	C 	0.99420 0.13770 0.88474 -0.00700
C 	C 	0.01720 0.22000 0.88463 -0.01200
C 	C 	0.04250 0.25440 0.84526 -0.00600
C 	C 	0.04360 0.20860 0.80605 -0.11400
C 	C 	0.01840 0.12780 0.80688 0.05300
C 	C 	0.06680 0.24890 0.76416 0.36300
C 	C 	0.01240 0.26900 0.92585 0.01100
C 	C 	0.03360 0.23530 0.96586 -0.01700
C 	C 	0.02810 0.28070 0.00433 -0.11200
C 	C 	0.99950 0.36170 0.00265 0.00800
C 	C 	0.97760 0.39550 0.96275 -0.05000
C 	C 	0.98400 0.35040 0.92479 -0.04700
C 	C 	0.05400 0.24350 0.04660 0.38900
C 	C 	0.96060 0.00600 0.84592 0.38500
C 	C 	0.59190 0.49380 0.65390 -0.11400
C 	C 	0.63770 0.49420 0.61526 -0.00400
C 	C 	0.72000 0.51720 0.61537 -0.01300
C 	C 	0.75440 0.54250 0.65474 -0.00600
C 	C 	0.70860 0.54360 0.69395 -0.11300
C 	C 	0.62780 0.51840 0.69312 0.05100
C 	C 	0.74890 0.56680 0.73584 0.36300
C 	C 	0.76900 0.51240 0.57415 0.00700
C 	C 	0.73530 0.53360 0.53414 -0.01300
C 	C 	0.78070 0.52810 0.49567 -0.11800
C 	C 	0.86170 0.49950 0.49735 0.01500
C 	C 	0.89550 0.47760 0.53725 -0.05500
C 	C 	0.85040 0.48400 0.57521 -0.04200
C 	C 	0.74350 0.55400 0.45340 0.39100
C 	C 	0.50600 0.46060 0.65408 0.39400
C 	C 	0.90810 0.00620 0.65390 -0.11500
C 	C 	0.86230 0.00580 0.61526 -0.00700
C 	C 	0.78000 0.98280 0.61537 -0.01100
C 	C 	0.74560 0.95750 0.65474 -0.00600
C 	C 	0.79140 0.95640 0.69395 -0.11400
C 	C 	0.87220 0.98160 0.69312 0.05400
C 	C 	0.75110 0.93320 0.73584 0.36300
C 	C 	0.73100 0.98760 0.57415 0.01000
C 	C 	0.76470 0.96640 0.53414 -0.01500
C 	C 	0.71930 0.97190 0.49567 -0.11400
C 	C 	0.63830 0.00050 0.49735 0.01000
C 	C 	0.60450 0.02240 0.53725 -0.05200
C 	C 	0.64960 0.01600 0.57521 -0.04700
C 	C 	0.75650 0.94600 0.45340 0.39000
C 	C 	0.99400 0.03940 0.65408 0.38700
C 	C 	0.49380 0.90810 0.65390 -0.11300
C 	C 	0.49420 0.86230 0.61526 -0.00500
C 	C 	0.51720 0.78000 0.61537 -0.01300
C 	C 	0.54250 0.74560 0.65474 -0.00600
C 	C 	0.54360 0.79140 0.69395 -0.11300
C 	C 	0.51840 0.87220 0.69312 0.05100
C 	C 	0.56680 0.75110 0.73584 0.36300
C 	C 	0.51240 0.73100 0.57415 0.00700
C 	C 	0.53360 0.76470 0.53414 -0.01300
C 	C 	0.52810 0.71930 0.49567 -0.11800
C 	C 	0.49950 0.63830 0.49735 0.01500
C 	C 	0.47760 0.60450 0.53725 -0.05500
C 	C 	0.48400 0.64960 0.57521 -0.04200
C 	C 	0.55400 0.75650 0.45340 0.39100
C 	C 	0.46060 0.99400 0.65408 0.39300
C 	C 	0.00620 0.59190 0.65390 -0.11500
C 	C 	0.00580 0.63770 0.61526 -0.00500
C 	C 	0.98280 0.72000 0.61537 -0.01300
C 	C 	0.95750 0.75440 0.65474 -0.00500
C 	C 	0.95640 0.70860 0.69395 -0.11400
C 	C 	0.98160 0.62780 0.69312 0.05300
C 	C 	0.93320 0.74890 0.73584 0.36300
C 	C 	0.98760 0.76900 0.57415 0.01300
C 	C 	0.96640 0.73530 0.53414 -0.01700
C 	C 	0.97190 0.78070 0.49567 -0.11200
C 	C 	0.00050 0.86170 0.49735 0.00800
C 	C 	0.02240 0.89550 0.53725 -0.05000
C 	C 	0.01600 0.85040 0.57521 -0.04900
C 	C 	0.94600 0.74350 0.45340 0.38900
C 	C 	0.03940 0.50600 0.65408 0.39400
C 	C 	0.59190 0.00620 0.15390 -0.11500
C 	C 	0.63770 0.00580 0.11526 -0.00400
C 	C 	0.72000 0.98280 0.11537 -0.01400
C 	C 	0.75440 0.95750 0.15474 -0.00500
C 	C 	0.70860 0.95640 0.19395 -0.11400
C 	C 	0.62780 0.98160 0.19312 0.05200
C 	C 	0.74890 0.93320 0.23584 0.36300
C 	C 	0.76900 0.98760 0.07415 0.01300
C 	C 	0.73530 0.96640 0.03414 -0.01900
C 	C 	0.78070 0.97190 0.99567 -0.11000
C 	C 	0.86170 0.00050 0.99735 0.00600
C 	C 	0.89550 0.02240 0.03725 -0.04900
C 	C 	0.85040 0.01600 0.07521 -0.05000
C 	C 	0.74350 0.94600 0.95340 0.38900
C 	C 	0.50600 0.03940 0.15408 0.39400
C 	C 	0.90810 0.49380 0.15390 -0.11300
C 	C 	0.86230 0.49420 0.11526 -0.00500
C 	C 	0.78000 0.51720 0.11537 -0.01300
C 	C 	0.74560 0.54250 0.15474 -0.00600
C 	C 	0.79140 0.54360 0.19395 -0.11300
C 	C 	0.87220 0.51840 0.19312 0.05100
C 	C 	0.75110 0.56680 0.23584 0.36300
C 	C 	0.73100 0.51240 0.07415 0.00700
C 	C 	0.76470 0.53360 0.03414 -0.01300
C 	C 	0.71930 0.52810 0.99567 -0.11700
C 	C 	0.63830 0.49950 0.99735 0.01500
C 	C 	0.60450 0.47760 0.03725 -0.05600
C 	C 	0.64960 0.48400 0.07521 -0.04200
C 	C 	0.75650 0.55400 0.95340 0.39100
C 	C 	0.99400 0.46060 0.15408 0.39200
C 	C 	0.49380 0.59190 0.15390 -0.11400
C 	C 	0.49420 0.63770 0.11526 -0.00400
C 	C 	0.51720 0.72000 0.11537 -0.01300
C 	C 	0.54250 0.75440 0.15474 -0.00600
C 	C 	0.54360 0.70860 0.19395 -0.11300
C 	C 	0.51840 0.62780 0.19312 0.05100
C 	C 	0.56680 0.74890 0.23584 0.36300
C 	C 	0.51240 0.76900 0.07415 0.00700
C 	C 	0.53360 0.73530 0.03414 -0.01300
C 	C 	0.52810 0.78070 0.99567 -0.11800
C 	C 	0.49950 0.86170 0.99735 0.01500
C 	C 	0.47760 0.89550 0.03725 -0.05600
C 	C 	0.48400 0.85040 0.07521 -0.04200
C 	C 	0.55400 0.74350 0.95340 0.39100
C 	C 	0.46060 0.50600 0.15408 0.39400
C 	C 	0.00620 0.90810 0.15390 -0.11400
C 	C 	0.00580 0.86230 0.11526 -0.00700
C 	C 	0.98280 0.78000 0.11537 -0.01200
C 	C 	0.95750 0.74560 0.15474 -0.00600
C 	C 	0.95640 0.79140 0.19395 -0.11400
C 	C 	0.98160 0.87220 0.19312 0.05300
C 	C 	0.93320 0.75110 0.23584 0.36300
C 	C 	0.98760 0.73100 0.07415 0.01100
C 	C 	0.96640 0.76470 0.03414 -0.01700
C 	C 	0.97190 0.71930 0.99567 -0.11200
C 	C 	0.00050 0.63830 0.99735 0.00800
C 	C 	0.02240 0.60450 0.03725 -0.05000
C 	C 	0.01600 0.64960 0.07521 -0.04700
C 	C 	0.94600 0.75650 0.95340 0.38900
C 	C 	0.03940 0.99400 0.15408 0.38500
C 	C 	0.40810 0.50620 0.34610 -0.11400
C 	C 	0.36230 0.50580 0.38474 -0.00400
C 	C 	0.28000 0.48280 0.38463 -0.01300
C 	C 	0.24560 0.45750 0.34526 -0.00600
C 	C 	0.29140 0.45640 0.30605 -0.11300
C 	C 	0.37220 0.48160 0.30688 0.05100
C 	C 	0.25110 0.43320 0.26416 0.36300
C 	C 	0.23100 0.48760 0.42585 0.00700
C 	C 	0.26470 0.46640 0.46586 -0.01300
C 	C 	0.21930 0.47190 0.50433 -0.11800
C 	C 	0.13830 0.50050 0.50265 0.01500
C 	C 	0.10450 0.52240 0.46275 -0.05500
C 	C 	0.14960 0.51600 0.42479 -0.04200
C 	C 	0.25650 0.44600 0.54660 0.39100
C 	C 	0.49400 0.53940 0.34592 0.39400
C 	C 	0.09190 0.99380 0.34610 -0.11500
C 	C 	0.13770 0.99420 0.38474 -0.00700
C 	C 	0.22000 0.01720 0.38463 -0.01100
C 	C 	0.25440 0.04250 0.34526 -0.00600
C 	C 	0.20860 0.04360 0.30605 -0.11400
C 	C 	0.12780 0.01840 0.30688 0.05400
C 	C 	0.24890 0.06680 0.26416 0.36300
C 	C 	0.26900 0.01240 0.42585 0.01000
C 	C 	0.23530 0.03360 0.46586 -0.01500
C 	C 	0.28070 0.02810 0.50433 -0.11400
C 	C 	0.36170 0.99950 0.50265 0.01000
C 	C 	0.39550 0.97760 0.46275 -0.05200
C 	C 	0.35040 0.98400 0.42479 -0.04700
C 	C 	0.24350 0.05400 0.54660 0.39000
C 	C 	0.00600 0.96060 0.34592 0.38700
C 	C 	0.50620 0.09190 0.34610 -0.11300
C 	C 	0.50580 0.13770 0.38474 -0.00500
C 	C 	0.48280 0.22000 0.38463 -0.01300
C 	C 	0.45750 0.25440 0.34526 -0.00600
C 	C 	0.45640 0.20860 0.30605 -0.11300
C 	C 	0.48160 0.12780 0.30688 0.05100
C 	C 	0.43320 0.24890 0.26416 0.36300
C 	C 	0.48760 0.26900 0.42585 0.00700
C 	C 	0.46640 0.23530 0.46586 -0.01300
C 	C 	0.47190 0.28070 0.50433 -0.11800
C 	C 	0.50050 0.36170 0.50265 0.01500
C 	C 	0.52240 0.39550 0.46275 -0.05500
C 	C 	0.51600 0.35040 0.42479 -0.04200
C 	C 	0.44600 0.24350 0.54660 0.39100
C 	C 	0.53940 0.00600 0.34592 0.39300
C 	C 	0.99380 0.40810 0.34610 -0.11500
C 	C 	0.99420 0.36230 0.38474 -0.00500
C 	C 	0.01720 0.28000 0.38463 -0.01300
C 	C 	0.04250 0.24560 0.34526 -0.00500
C 	C 	0.04360 0.29140 0.30605 -0.11400
C 	C 	0.01840 0.37220 0.30688 0.05300
C 	C 	0.06680 0.25110 0.26416 0.36300
C 	C 	0.01240 0.23100 0.42585 0.01300
C 	C 	0.03360 0.26470 0.46586 -0.01700
C 	C 	0.02810 0.21930 0.50433 -0.11200
C 	C 	0.99950 0.13830 0.50265 0.00800
C 	C 	0.97760 0.10450 0.46275 -0.05000
C 	C 	0.98400 0.14960 0.42479 -0.04900
C 	C 	0.05400 0.25650 0.54660 0.38900
C 	C 	0.96060 0.49400 0.34592 0.39400
O 	O 	0.29160 0.09020 0.73184 -0.47900
O 	O 	0.17320 0.05850 0.76293 -0.46200
O 	O 	0.33370 0.06110 0.04762 -0.48000
O 	O 	0.21410 0.06700 0.07984 -0.53500
O 	O 	0.67742 0.85060 0.84701 -0.83600
O 	O 	0.52438 0.94370 0.80957 -0.49500
O 	O 	0.52860 0.95230 0.88272 -0.49600
O 	O 	0.20840 0.40980 0.73184 -0.47900
O 	O 	0.32680 0.44150 0.76293 -0.46200
O 	O 	0.16630 0.43890 0.04762 -0.48000
O 	O 	0.28590 0.43300 0.07984 -0.53700
O 	O 	0.82258 0.64940 0.84701 -0.83600
O 	O 	0.97562 0.55630 0.80957 -0.49400
O 	O 	0.97140 0.54770 0.88272 -0.49500
O 	O 	0.40980 0.29160 0.73184 -0.47900
O 	O 	0.44150 0.17320 0.76293 -0.46200
O 	O 	0.43890 0.33370 0.04762 -0.48000
O 	O 	0.43300 0.21410 0.07984 -0.53700
O 	O 	0.64940 0.67742 0.84701 -0.83600
O 	O 	0.55630 0.52438 0.80957 -0.49500
O 	O 	0.54770 0.52860 0.88272 -0.49600
O 	O 	0.09020 0.20840 0.73184 -0.47900
O 	O 	0.05850 0.32680 0.76293 -0.46200
O 	O 	0.06110 0.16630 0.04762 -0.47900
O 	O 	0.06700 0.28590 0.07984 -0.53600
O 	O 	0.85060 0.82258 0.84701 -0.83600
O 	O 	0.94370 0.97562 0.80957 -0.49000
O 	O 	0.95230 0.97140 0.88272 -0.49100
O 	O 	0.70840 0.59020 0.76816 -0.47900
O 	O 	0.82680 0.55850 0.73707 -0.46200
O 	O 	0.66630 0.56110 0.45238 -0.48000
O 	O 	0.78590 0.56700 0.42016 -0.53700
O 	O 	0.32258 0.35060 0.65299 -0.83600
O 	O 	0.47562 0.44370 0.69043 -0.49500
O 	O 	0.47140 0.45230 0.61728 -0.49600
O 	O 	0.79160 0.90980 0.76816 -0.47900
O 	O 	0.67320 0.94150 0.73707 -0.46200
O 	O 	0.83370 0.93890 0.45238 -0.47900
O 	O 	0.71410 0.93300 0.42016 -0.53600
O 	O 	0.17742 0.14940 0.65299 -0.83600
O 	O 	0.02438 0.05630 0.69043 -0.49100
O 	O 	0.02860 0.04770 0.61728 -0.49100
O 	O 	0.59020 0.79160 0.76816 -0.47900
O 	O 	0.55850 0.67320 0.73707 -0.46200
O 	O 	0.56110 0.83370 0.45238 -0.48000
O 	O 	0.56700 0.71410 0.42016 -0.53700
O 	O 	0.35060 0.17742 0.65299 -0.83600
O 	O 	0.44370 0.02438 0.69043 -0.49400
O 	O 	0.45230 0.02860 0.61728 -0.49500
O 	O 	0.90980 0.70840 0.76816 -0.47900
O 	O 	0.94150 0.82680 0.73707 -0.46200
O 	O 	0.93890 0.66630 0.45238 -0.48000
O 	O 	0.93300 0.78590 0.42016 -0.53600
O 	O 	0.14940 0.32258 0.65299 -0.83600
O 	O 	0.05630 0.47562 0.69043 -0.49500
O 	O 	0.04770 0.47140 0.61728 -0.49600
O 	O 	0.70840 0.90980 0.26816 -0.47900
O 	O 	0.82680 0.94150 0.23707 -0.46200
O 	O 	0.66630 0.93890 0.95238 -0.48000
O 	O 	0.78590 0.93300 0.92016 -0.53500
O 	O 	0.32258 0.14940 0.15299 -0.83600
O 	O 	0.47562 0.05630 0.19043 -0.49500
O 	O 	0.47140 0.04770 0.11728 -0.49600
O 	O 	0.79160 0.59020 0.26816 -0.47900
O 	O 	0.67320 0.55850 0.23707 -0.46200
O 	O 	0.83370 0.56110 0.95238 -0.48000
O 	O 	0.71410 0.56700 0.92016 -0.53700
O 	O 	0.17742 0.35060 0.15299 -0.83600
O 	O 	0.02438 0.44370 0.19043 -0.49400
O 	O 	0.02860 0.45230 0.11728 -0.49500
O 	O 	0.59020 0.70840 0.26816 -0.47900
O 	O 	0.55850 0.82680 0.23707 -0.46200
O 	O 	0.56110 0.66630 0.95238 -0.48000
O 	O 	0.56700 0.78590 0.92016 -0.53700
O 	O 	0.35060 0.32258 0.15299 -0.83600
O 	O 	0.44370 0.47562 0.19043 -0.49500
O 	O 	0.45230 0.47140 0.11728 -0.49600
O 	O 	0.90980 0.79160 0.26816 -0.47900
O 	O 	0.94150 0.67320 0.23707 -0.46200
O 	O 	0.93890 0.83370 0.95238 -0.47900
O 	O 	0.93300 0.71410 0.92016 -0.53600
O 	O 	0.14940 0.17742 0.15299 -0.83600
O 	O 	0.05630 0.02438 0.19043 -0.49000
O 	O 	0.04770 0.02860 0.11728 -0.49100
O 	O 	0.29160 0.40980 0.23184 -0.47900
O 	O 	0.17320 0.44150 0.26293 -0.46200
O 	O 	0.33370 0.43890 0.54762 -0.48000
O 	O 	0.21410 0.43300 0.57984 -0.53700
O 	O 	0.67742 0.64940 0.34701 -0.83600
O 	O 	0.52438 0.55630 0.30957 -0.49500
O 	O 	0.52860 0.54770 0.38272 -0.49600
O 	O 	0.20840 0.09020 0.23184 -0.47900
O 	O 	0.32680 0.05850 0.26293 -0.46200
O 	O 	0.16630 0.06110 0.54762 -0.47900
O 	O 	0.28590 0.06700 0.57984 -0.53600
O 	O 	0.82258 0.85060 0.34701 -0.83600
O 	O 	0.97562 0.94370 0.30957 -0.49100
O 	O 	0.97140 0.95230 0.38272 -0.49100
O 	O 	0.40980 0.20840 0.23184 -0.47900
O 	O 	0.44150 0.32680 0.26293 -0.46200
O 	O 	0.43890 0.16630 0.54762 -0.48000
O 	O 	0.43300 0.28590 0.57984 -0.53700
O 	O 	0.64940 0.82258 0.34701 -0.83600
O 	O 	0.55630 0.97562 0.30957 -0.49400
O 	O 	0.54770 0.97140 0.38272 -0.49500
O 	O 	0.09020 0.29160 0.23184 -0.47900
O 	O 	0.05850 0.17320 0.26293 -0.46200
O 	O 	0.06110 0.33370 0.54762 -0.48000
O 	O 	0.06700 0.21410 0.57984 -0.53600
O 	O 	0.85060 0.67742 0.34701 -0.83600
O 	O 	0.94370 0.52438 0.30957 -0.49500
O 	O 	0.95230 0.52860 0.38272 -0.49600
