data_crystal

_cell_length_a 10.09360
_cell_length_b 12.51080
_cell_length_c 15.17210
_cell_angle_alpha 90.00000
_cell_angle_beta  90.00000
_cell_angle_gamma 90.00000

_symmetry_space_group_name_	'P 1'
_symmetry_space_group_name_H-M	'P 1'

loop_
_symmetry_equiv_pos_as_xyz
  x,y,z

loop_
_atom_site_label
_atom_site_type_symbol
_atom_site_fract_x
_atom_site_fract_y
_atom_site_fract_z
_atom_site_charge
Cd	Cd	-0.00000 0.50000 -0.00000 1.16700
Cd	Cd	0.50000 0.50000 0.50000 1.21300
Cd	Cd	0.00000 0.00000 0.50000 1.16600
Cd	Cd	0.50000 0.00000 -0.00000 1.16600
H 	H 	0.37890 0.75930 0.05790 0.05800
H 	H 	0.63750 0.77620 0.87070 0.03300
H 	H 	0.51870 0.49800 0.88740 0.08700
H 	H 	0.44420 0.47920 0.72920 0.01600
H 	H 	0.71590 0.64890 0.61600 0.01400
H 	H 	0.12110 0.24070 0.55790 0.03100
H 	H 	0.86250 0.22380 0.37070 0.02800
H 	H 	0.98130 0.50200 0.38740 0.09700
H 	H 	0.05580 0.52080 0.22920 -0.08200
H 	H 	0.78410 0.35110 0.11600 -0.00600
H 	H 	0.62110 0.25930 0.44210 0.01300
H 	H 	0.36250 0.27620 0.62930 0.03000
H 	H 	0.48130 0.99800 0.61260 0.15500
H 	H 	0.55580 0.97920 0.77080 0.11200
H 	H 	0.28410 0.14890 0.88400 0.01400
H 	H 	0.87890 0.74070 0.94210 -0.03600
H 	H 	0.13750 0.72380 0.12930 0.02400
H 	H 	0.01870 0.00200 0.11260 -0.03800
H 	H 	0.94420 0.02080 0.27080 0.01100
H 	H 	0.21590 0.85110 0.38400 0.00900
H 	H 	0.62110 0.24070 0.94210 -0.02800
H 	H 	0.36250 0.22380 0.12930 0.02500
H 	H 	0.48130 0.50200 0.11260 0.06700
H 	H 	0.55580 0.52080 0.27080 0.01400
H 	H 	0.28410 0.35110 0.38400 -0.00100
H 	H 	0.87890 0.75930 0.44210 0.00200
H 	H 	0.13750 0.77620 0.62930 0.03000
H 	H 	0.01870 0.49800 0.61260 0.05600
H 	H 	0.94420 0.47920 0.77080 0.11100
H 	H 	0.21590 0.64890 0.88400 0.02200
H 	H 	0.37890 0.74070 0.55790 0.01700
H 	H 	0.63750 0.72380 0.37070 0.02700
H 	H 	0.51870 0.00200 0.38740 -0.00300
H 	H 	0.44420 0.02080 0.22920 -0.08700
H 	H 	0.71590 0.85110 0.11600 0.00300
H 	H 	0.12110 0.25930 0.05790 0.07200
H 	H 	0.86250 0.27620 0.87070 0.03300
H 	H 	0.98130 0.99800 0.88740 0.17200
H 	H 	0.05580 0.97920 0.72920 0.02000
H 	H 	0.78410 0.14890 0.61600 0.00700
C 	C 	0.43590 0.73990 0.01240 -0.06200
C 	C 	0.57630 0.75110 0.91160 0.11900
C 	C 	0.58480 0.55350 0.87552 -0.02600
C 	C 	0.72100 0.50960 0.90550 0.33600
C 	C 	0.51610 0.52400 0.71890 0.10900
C 	C 	0.66500 0.61610 0.65940 0.10300
C 	C 	0.06410 0.26010 0.51240 0.00900
C 	C 	0.92370 0.24890 0.41160 0.11500
C 	C 	0.91520 0.44650 0.37552 -0.02500
C 	C 	0.77900 0.49040 0.40550 0.33500
C 	C 	0.98390 0.47600 0.21890 0.24900
C 	C 	0.83500 0.38390 0.15940 0.10100
C 	C 	0.56410 0.23990 0.48760 0.09500
C 	C 	0.42370 0.25110 0.58840 0.09900
C 	C 	0.41520 0.05350 0.62448 -0.12400
C 	C 	0.27900 0.00960 0.59450 0.26500
C 	C 	0.48390 0.02400 0.78110 -0.03700
C 	C 	0.33500 0.11610 0.84060 0.09000
C 	C 	0.93590 0.76010 0.98760 0.32300
C 	C 	0.07630 0.74890 0.08840 0.08300
C 	C 	0.08480 0.94650 0.12448 0.05500
C 	C 	0.22100 0.99040 0.09450 0.40100
C 	C 	0.01610 0.97600 0.28110 0.11600
C 	C 	0.16500 0.88390 0.34060 0.10400
C 	C 	0.56410 0.26010 0.98760 0.25900
C 	C 	0.42370 0.24890 0.08840 0.08700
C 	C 	0.41520 0.44650 0.12448 -0.03900
C 	C 	0.27900 0.49040 0.09450 0.33100
C 	C 	0.48390 0.47600 0.28110 0.10400
C 	C 	0.33500 0.38390 0.34060 0.09500
C 	C 	0.93590 0.73990 0.48760 0.17300
C 	C 	0.07630 0.75110 0.58840 0.09400
C 	C 	0.08480 0.55350 0.62448 -0.04000
C 	C 	0.22100 0.50960 0.59450 0.33300
C 	C 	0.01610 0.52400 0.78110 -0.03200
C 	C 	0.16500 0.61610 0.84060 0.09800
C 	C 	0.43590 0.76010 0.51240 0.09300
C 	C 	0.57630 0.74890 0.41160 0.10800
C 	C 	0.58480 0.94650 0.37552 0.06300
C 	C 	0.72100 0.99040 0.40550 0.39700
C 	C 	0.51610 0.97600 0.21890 0.25900
C 	C 	0.66500 0.88390 0.15940 0.10800
C 	C 	0.06410 0.23990 0.01240 -0.15300
C 	C 	0.92370 0.25110 0.91160 0.12600
C 	C 	0.91520 0.05350 0.87552 -0.09900
C 	C 	0.77900 0.00960 0.90550 0.27400
C 	C 	0.98390 0.02400 0.71890 0.10500
C 	C 	0.83500 0.11610 0.65940 0.09600
N 	N 	0.54110 0.65044 0.92032 -0.07500
N 	N 	0.44870 0.64120 0.98536 -0.01900
N 	N 	0.51230 0.81180 0.96900 -0.14700
N 	N 	0.58850 0.56983 0.78077 -0.08300
N 	N 	0.68740 0.62880 0.74346 -0.07600
N 	N 	0.56080 0.55100 0.64056 -0.23500
N 	N 	0.95890 0.34956 0.42032 -0.05200
N 	N 	0.05130 0.35880 0.48536 -0.11000
N 	N 	0.98770 0.18820 0.46900 -0.17400
N 	N 	0.91150 0.43017 0.28077 -0.10300
N 	N 	0.81260 0.37120 0.24346 -0.08500
N 	N 	0.93920 0.44900 0.14056 -0.24800
N 	N 	0.45890 0.15044 0.57968 -0.07000
N 	N 	0.55130 0.14120 0.51464 -0.10300
N 	N 	0.48770 0.31180 0.53100 -0.22000
N 	N 	0.41150 0.06983 0.71923 -0.05600
N 	N 	0.31260 0.12880 0.75654 -0.09300
N 	N 	0.43920 0.05100 0.85944 -0.20900
N 	N 	0.04110 0.84956 0.07968 -0.11900
N 	N 	0.94870 0.85880 0.01464 -0.12200
N 	N 	0.01230 0.68820 0.03100 -0.32200
N 	N 	0.08850 0.93017 0.21923 -0.09200
N 	N 	0.18740 0.87120 0.25654 -0.08400
N 	N 	0.06080 0.94900 0.35944 -0.23300
N 	N 	0.45890 0.34956 0.07968 -0.08300
N 	N 	0.55130 0.35880 0.01464 -0.16200
N 	N 	0.48770 0.18820 0.03100 -0.28700
N 	N 	0.41150 0.43017 0.21923 -0.08300
N 	N 	0.31260 0.37120 0.25654 -0.09300
N 	N 	0.43920 0.44900 0.35944 -0.23600
N 	N 	0.04110 0.65044 0.57968 -0.10500
N 	N 	0.94870 0.64120 0.51464 -0.06900
N 	N 	0.01230 0.81180 0.53100 -0.25300
N 	N 	0.08850 0.56983 0.71923 -0.06300
N 	N 	0.18740 0.62880 0.75654 -0.08400
N 	N 	0.06080 0.55100 0.85944 -0.21200
N 	N 	0.54110 0.84956 0.42032 -0.08900
N 	N 	0.44870 0.85880 0.48536 -0.07500
N 	N 	0.51230 0.68820 0.46900 -0.22100
N 	N 	0.58850 0.93017 0.28077 -0.11200
N 	N 	0.68740 0.87120 0.24346 -0.07700
N 	N 	0.56080 0.94900 0.14056 -0.25100
N 	N 	0.95890 0.15044 0.92032 -0.04000
N 	N 	0.05130 0.14120 0.98536 -0.04900
N 	N 	0.98770 0.31180 0.96900 -0.10400
N 	N 	0.91150 0.06983 0.78077 -0.07600
N 	N 	0.81260 0.12880 0.74346 -0.08400
N 	N 	0.93920 0.05100 0.64056 -0.22600
O 	O 	0.77760 0.55289 0.96912 -0.32600
O 	O 	0.75930 0.43288 0.86127 -0.26800
O 	O 	0.72240 0.44711 0.46912 -0.37200
O 	O 	0.74070 0.56712 0.36127 -0.28200
O 	O 	0.22240 0.05289 0.53088 -0.39200
O 	O 	0.24070 0.93288 0.63873 -0.22000
O 	O 	0.27760 0.94711 0.03088 -0.40100
O 	O 	0.25930 0.06712 0.13873 -0.36300
O 	O 	0.22240 0.44711 0.03088 -0.41700
O 	O 	0.24070 0.56712 0.13873 -0.29600
O 	O 	0.27760 0.55289 0.53088 -0.38300
O 	O 	0.25930 0.43288 0.63873 -0.28600
O 	O 	0.77760 0.94711 0.46912 -0.35200
O 	O 	0.75930 0.06712 0.36127 -0.34100
O 	O 	0.72240 0.05289 0.96912 -0.33900
O 	O 	0.74070 0.93288 0.86127 -0.21200
