data_crystal

_cell_length_a 26.37200
_cell_length_b 25.25700
_cell_length_c 15.97750
_cell_angle_alpha 90.00000
_cell_angle_beta  103.80400
_cell_angle_gamma 90.00000

_symmetry_space_group_name_	'P 1'
_symmetry_space_group_name_H-M	'P 1'

loop_
_symmetry_equiv_pos_as_xyz
  x,y,z

loop_
_atom_site_label
_atom_site_type_symbol
_atom_site_fract_x
_atom_site_fract_y
_atom_site_fract_z
_atom_site_charge
Ag	Ag	0.50674 0.31772 0.66166 0.38700
Ag	Ag	0.38569 0.33295 0.58901 0.46700
Ag	Ag	0.37956 0.18937 0.67045 0.50700
Ag	Ag	0.61905 0.34317 0.72918 0.47200
Ag	Ag	0.59554 0.24071 0.65048 0.49900
Ag	Ag	0.43683 0.23604 0.54568 0.48200
Ag	Ag	0.53002 0.19565 0.41704 0.61600
Ag	Ag	0.41899 0.19146 0.32621 0.61400
Ag	Ag	0.49778 0.44687 0.53669 0.53100
Ag	Ag	0.32759 0.43585 0.42649 0.59600
Ag	Ag	0.32419 0.54006 0.35871 0.61000
C 	C 	0.42910 0.26430 0.66860 -0.34700
C 	C 	0.57570 0.27620 0.76370 -0.35200
C 	C 	0.38730 0.49400 0.42310 -0.05700
N 	N 	0.42970 0.49470 0.45370 -0.17000
N 	N 	0.49620 0.18650 0.28320 -0.11400
O 	O 	0.40650 0.27190 0.40530 -0.28200
O 	O 	0.37230 0.34710 0.43880 -0.29600
C 	C 	0.38060 0.31450 0.39080 0.13600
C 	C 	0.35840 0.32450 0.29900 0.81700
F 	F 	0.37390 0.29560 0.24210 -0.39700
F 	F 	0.30700 0.32340 0.27410 -0.41500
F 	F 	0.36910 0.37260 0.27600 -0.36900
O 	O 	0.36920 0.12570 0.55920 -0.19800
O 	O 	0.40650 0.16090 0.46580 -0.28200
C 	C 	0.38040 0.12750 0.49150 0.13700
C 	C 	0.36190 0.08090 0.43800 0.83300
F 	F 	0.37290 0.08050 0.36180 -0.41200
F 	F 	0.37700 0.03470 0.47310 -0.32500
F 	F 	0.31080 0.07530 0.41870 -0.40700
O 	O 	0.51500 0.12750 0.66810 -0.20900
O 	O 	0.52150 0.17330 0.55500 -0.31400
C 	C 	0.52180 0.13300 0.59380 0.11300
C 	C 	0.52810 0.08230 0.55170 0.82900
F 	F 	0.48620 0.05270 0.52980 -0.35900
F 	F 	0.54410 0.08730 0.48040 -0.42100
F 	F 	0.56190 0.04900 0.59760 -0.34800
O 	O 	0.33800 0.13170 0.73960 -0.18800
O 	O 	0.63850 0.16540 0.62780 -0.17300
C 	C 	0.33740 0.13340 0.81380 0.12600
C 	C 	0.30760 0.09290 0.84850 0.84400
F 	F 	0.25680 0.09850 0.82020 -0.34200
F 	F 	0.31420 0.08770 0.93260 -0.33000
F 	F 	0.31550 0.04410 0.82590 -0.35000
O 	O 	0.64090 0.42760 0.77250 -0.30600
O 	O 	0.35590 0.41750 0.59040 -0.32000
C 	C 	0.65050 0.44150 0.84800 0.14400
C 	C 	0.67220 0.49550 0.86550 0.80700
F 	F 	0.64460 0.52830 0.90100 -0.40800
F 	F 	0.71820 0.49870 0.91890 -0.37900
F 	F 	0.67930 0.52380 0.80080 -0.40000
O 	O 	0.51280 0.35700 0.53250 -0.35100
O 	O 	0.52510 0.27590 0.49630 -0.30900
C 	C 	0.52210 0.32300 0.48220 0.11800
C 	C 	0.53150 0.34310 0.40290 0.80500
F 	F 	0.54210 0.30810 0.34870 -0.40700
F 	F 	0.49250 0.36940 0.35410 -0.41100
F 	F 	0.56900 0.37820 0.40820 -0.39800
O 	O 	0.65910 0.36270 0.61950 -0.26300
O 	O 	0.64440 0.28170 0.56290 -0.17300
C 	C 	0.66600 0.32750 0.57290 0.10800
C 	C 	0.69890 0.33650 0.51390 0.83100
F 	F 	0.74840 0.32540 0.54740 -0.38000
F 	F 	0.69260 0.30950 0.44130 -0.33400
F 	F 	0.70190 0.38540 0.48740 -0.35700
Ag	Ag	0.49326 0.31772 0.83834 0.38600
Ag	Ag	0.61431 0.33295 0.91099 0.46600
Ag	Ag	0.62044 0.18937 0.82955 0.50600
Ag	Ag	0.38095 0.34317 0.77082 0.47100
Ag	Ag	0.40446 0.24071 0.84952 0.49900
Ag	Ag	0.56317 0.23604 0.95432 0.48300
Ag	Ag	0.46998 0.19565 0.08296 0.61600
Ag	Ag	0.58101 0.19146 0.17379 0.61400
Ag	Ag	0.50222 0.44687 0.96331 0.53100
Ag	Ag	0.67241 0.43585 0.07351 0.59600
Ag	Ag	0.67581 0.54006 0.14129 0.61000
C 	C 	0.57090 0.26430 0.83140 -0.34700
C 	C 	0.42430 0.27620 0.73630 -0.35200
C 	C 	0.61270 0.49400 0.07690 -0.05700
N 	N 	0.57030 0.49470 0.04630 -0.17000
N 	N 	0.50380 0.18650 0.21680 -0.11400
O 	O 	0.59350 0.27190 0.09470 -0.28200
O 	O 	0.62770 0.34710 0.06120 -0.29700
C 	C 	0.61940 0.31450 0.10920 0.13600
C 	C 	0.64160 0.32450 0.20100 0.81700
F 	F 	0.62610 0.29560 0.25790 -0.39700
F 	F 	0.69300 0.32340 0.22590 -0.41500
F 	F 	0.63090 0.37260 0.22400 -0.36900
O 	O 	0.63080 0.12570 0.94080 -0.19600
O 	O 	0.59350 0.16090 0.03420 -0.28100
C 	C 	0.61960 0.12750 0.00850 0.13400
C 	C 	0.63810 0.08090 0.06200 0.83400
F 	F 	0.62710 0.08050 0.13820 -0.41300
F 	F 	0.62300 0.03470 0.02690 -0.32600
F 	F 	0.68920 0.07530 0.08130 -0.40800
O 	O 	0.48500 0.12750 0.83190 -0.20800
O 	O 	0.47850 0.17330 0.94500 -0.31300
C 	C 	0.47820 0.13300 0.90620 0.11300
C 	C 	0.47190 0.08230 0.94830 0.83200
F 	F 	0.51380 0.05270 0.97020 -0.35800
F 	F 	0.45590 0.08730 0.01960 -0.42300
F 	F 	0.43810 0.04900 0.90240 -0.34700
O 	O 	0.66200 0.13170 0.76040 -0.18800
O 	O 	0.36150 0.16540 0.87220 -0.17200
C 	C 	0.66260 0.13340 0.68620 0.12600
C 	C 	0.69240 0.09290 0.65150 0.84400
F 	F 	0.74320 0.09850 0.67980 -0.34200
F 	F 	0.68580 0.08770 0.56740 -0.33100
F 	F 	0.68450 0.04410 0.67410 -0.35100
O 	O 	0.35910 0.42760 0.72750 -0.30600
O 	O 	0.64410 0.41750 0.90960 -0.32000
C 	C 	0.34950 0.44150 0.65200 0.14400
C 	C 	0.32780 0.49550 0.63450 0.80700
F 	F 	0.35540 0.52830 0.59900 -0.40800
F 	F 	0.28180 0.49870 0.58110 -0.37900
F 	F 	0.32070 0.52380 0.69920 -0.40000
O 	O 	0.48720 0.35700 0.96750 -0.35000
O 	O 	0.47490 0.27590 0.00370 -0.31000
C 	C 	0.47790 0.32300 0.01780 0.11700
C 	C 	0.46850 0.34310 0.09710 0.80500
F 	F 	0.45790 0.30810 0.15130 -0.40700
F 	F 	0.50750 0.36940 0.14590 -0.41100
F 	F 	0.43100 0.37820 0.09180 -0.39800
O 	O 	0.34090 0.36270 0.88050 -0.26200
O 	O 	0.35560 0.28170 0.93710 -0.17300
C 	C 	0.33400 0.32750 0.92710 0.10700
C 	C 	0.30110 0.33650 0.98610 0.83200
F 	F 	0.25160 0.32540 0.95260 -0.38000
F 	F 	0.30740 0.30950 0.05870 -0.33400
F 	F 	0.29810 0.38540 0.01260 -0.35800
Ag	Ag	0.49326 0.68228 0.33834 0.38600
Ag	Ag	0.61431 0.66705 0.41099 0.46600
Ag	Ag	0.62044 0.81063 0.32955 0.50600
Ag	Ag	0.38095 0.65683 0.27082 0.47100
Ag	Ag	0.40446 0.75929 0.34952 0.49900
Ag	Ag	0.56317 0.76396 0.45432 0.48200
Ag	Ag	0.46998 0.80435 0.58296 0.61600
Ag	Ag	0.58101 0.80854 0.67379 0.61400
Ag	Ag	0.50222 0.55313 0.46331 0.53100
Ag	Ag	0.67241 0.56415 0.57351 0.59600
Ag	Ag	0.67581 0.45994 0.64129 0.61000
C 	C 	0.57090 0.73570 0.33140 -0.34700
C 	C 	0.42430 0.72380 0.23630 -0.35200
C 	C 	0.61270 0.50600 0.57690 -0.05700
N 	N 	0.57030 0.50530 0.54630 -0.17000
N 	N 	0.50380 0.81350 0.71680 -0.11400
O 	O 	0.59350 0.72810 0.59470 -0.28200
O 	O 	0.62770 0.65290 0.56120 -0.29600
C 	C 	0.61940 0.68550 0.60920 0.13600
C 	C 	0.64160 0.67550 0.70100 0.81700
F 	F 	0.62610 0.70440 0.75790 -0.39700
F 	F 	0.69300 0.67660 0.72590 -0.41500
F 	F 	0.63090 0.62740 0.72400 -0.36900
O 	O 	0.63080 0.87430 0.44080 -0.19900
O 	O 	0.59350 0.83910 0.53420 -0.28200
C 	C 	0.61960 0.87250 0.50850 0.13700
C 	C 	0.63810 0.91910 0.56200 0.83300
F 	F 	0.62710 0.91950 0.63820 -0.41200
F 	F 	0.62300 0.96530 0.52690 -0.32500
F 	F 	0.68920 0.92470 0.58130 -0.40700
O 	O 	0.48500 0.87250 0.33190 -0.20900
O 	O 	0.47850 0.82670 0.44500 -0.31400
C 	C 	0.47820 0.86700 0.40620 0.11300
C 	C 	0.47190 0.91770 0.44830 0.82900
F 	F 	0.51380 0.94730 0.47020 -0.35900
F 	F 	0.45590 0.91270 0.51960 -0.42100
F 	F 	0.43810 0.95100 0.40240 -0.34800
O 	O 	0.66200 0.86830 0.26040 -0.18800
O 	O 	0.36150 0.83460 0.37220 -0.17300
C 	C 	0.66260 0.86660 0.18620 0.12600
C 	C 	0.69240 0.90710 0.15150 0.84400
F 	F 	0.74320 0.90150 0.17980 -0.34200
F 	F 	0.68580 0.91230 0.06740 -0.33000
F 	F 	0.68450 0.95590 0.17410 -0.35000
O 	O 	0.35910 0.57240 0.22750 -0.30600
O 	O 	0.64410 0.58250 0.40960 -0.32000
C 	C 	0.34950 0.55850 0.15200 0.14400
C 	C 	0.32780 0.50450 0.13450 0.80700
F 	F 	0.35540 0.47170 0.09900 -0.40800
F 	F 	0.28180 0.50130 0.08110 -0.37900
F 	F 	0.32070 0.47620 0.19920 -0.40000
O 	O 	0.48720 0.64300 0.46750 -0.35100
O 	O 	0.47490 0.72410 0.50370 -0.30900
C 	C 	0.47790 0.67700 0.51780 0.11800
C 	C 	0.46850 0.65690 0.59710 0.80500
F 	F 	0.45790 0.69190 0.65130 -0.40700
F 	F 	0.50750 0.63060 0.64590 -0.41100
F 	F 	0.43100 0.62180 0.59180 -0.39800
O 	O 	0.34090 0.63730 0.38050 -0.26300
O 	O 	0.35560 0.71830 0.43710 -0.17300
C 	C 	0.33400 0.67250 0.42710 0.10800
C 	C 	0.30110 0.66350 0.48610 0.83100
F 	F 	0.25160 0.67460 0.45260 -0.38000
F 	F 	0.30740 0.69050 0.55870 -0.33400
F 	F 	0.29810 0.61460 0.51260 -0.35700
Ag	Ag	0.50674 0.68228 0.16166 0.38700
Ag	Ag	0.38569 0.66705 0.08901 0.46600
Ag	Ag	0.37956 0.81063 0.17045 0.50600
Ag	Ag	0.61905 0.65683 0.22918 0.47100
Ag	Ag	0.59554 0.75929 0.15048 0.49900
Ag	Ag	0.43683 0.76396 0.04568 0.48300
Ag	Ag	0.53002 0.80435 0.91704 0.61600
Ag	Ag	0.41899 0.80854 0.82621 0.61400
Ag	Ag	0.49778 0.55313 0.03669 0.53100
Ag	Ag	0.32759 0.56415 0.92649 0.59600
Ag	Ag	0.32419 0.45994 0.85871 0.61000
C 	C 	0.42910 0.73570 0.16860 -0.34600
C 	C 	0.57570 0.72380 0.26370 -0.35200
C 	C 	0.38730 0.50600 0.92310 -0.05700
N 	N 	0.42970 0.50530 0.95370 -0.17100
N 	N 	0.49620 0.81350 0.78320 -0.11400
O 	O 	0.40650 0.72810 0.90530 -0.28200
O 	O 	0.37230 0.65290 0.93880 -0.29700
C 	C 	0.38060 0.68550 0.89080 0.13600
C 	C 	0.35840 0.67550 0.79900 0.81700
F 	F 	0.37390 0.70440 0.74210 -0.39700
F 	F 	0.30700 0.67660 0.77410 -0.41500
F 	F 	0.36910 0.62740 0.77600 -0.36900
O 	O 	0.36920 0.87430 0.05920 -0.19500
O 	O 	0.40650 0.83910 0.96580 -0.28100
C 	C 	0.38040 0.87250 0.99150 0.13300
C 	C 	0.36190 0.91910 0.93800 0.83500
F 	F 	0.37290 0.91950 0.86180 -0.41300
F 	F 	0.37700 0.96530 0.97310 -0.32600
F 	F 	0.31080 0.92470 0.91870 -0.40800
O 	O 	0.51500 0.87250 0.16810 -0.20800
O 	O 	0.52150 0.82670 0.05500 -0.31300
C 	C 	0.52180 0.86700 0.09380 0.11300
C 	C 	0.52810 0.91770 0.05170 0.83200
F 	F 	0.48620 0.94730 0.02980 -0.35800
F 	F 	0.54410 0.91270 0.98040 -0.42300
F 	F 	0.56190 0.95100 0.09760 -0.34700
O 	O 	0.33800 0.86830 0.23960 -0.18800
O 	O 	0.63850 0.83460 0.12780 -0.17200
C 	C 	0.33740 0.86660 0.31380 0.12600
C 	C 	0.30760 0.90710 0.34850 0.84400
F 	F 	0.25680 0.90150 0.32020 -0.34200
F 	F 	0.31420 0.91230 0.43260 -0.33100
F 	F 	0.31550 0.95590 0.32590 -0.35100
O 	O 	0.64090 0.57240 0.27250 -0.30600
O 	O 	0.35590 0.58250 0.09040 -0.31900
C 	C 	0.65050 0.55850 0.34800 0.14400
C 	C 	0.67220 0.50450 0.36550 0.80700
F 	F 	0.64460 0.47170 0.40100 -0.40800
F 	F 	0.71820 0.50130 0.41890 -0.37900
F 	F 	0.67930 0.47620 0.30080 -0.40000
O 	O 	0.51280 0.64300 0.03250 -0.34900
O 	O 	0.52510 0.72410 0.99630 -0.31000
C 	C 	0.52210 0.67700 0.98220 0.11600
C 	C 	0.53150 0.65690 0.90290 0.80600
F 	F 	0.54210 0.69190 0.84870 -0.40700
F 	F 	0.49250 0.63060 0.85410 -0.41100
F 	F 	0.56900 0.62180 0.90820 -0.39800
O 	O 	0.65910 0.63730 0.11950 -0.26200
O 	O 	0.64440 0.71830 0.06290 -0.17300
C 	C 	0.66600 0.67250 0.07290 0.10700
C 	C 	0.69890 0.66350 0.01390 0.83300
F 	F 	0.74840 0.67460 0.04740 -0.38000
F 	F 	0.69260 0.69050 0.94130 -0.33500
F 	F 	0.70190 0.61460 0.98740 -0.35800
Ag	Ag	0.50000 0.19989 0.75000 0.45000
Ag	Ag	0.50000 0.80011 0.25000 0.45000
Ag	Ag	0.00674 0.81772 0.66166 0.38200
Ag	Ag	0.88569 0.83295 0.58901 0.46700
Ag	Ag	0.87956 0.68937 0.67045 0.50700
Ag	Ag	0.11905 0.84317 0.72918 0.47000
Ag	Ag	0.09554 0.74071 0.65048 0.49900
Ag	Ag	0.93683 0.73604 0.54568 0.48600
Ag	Ag	0.03002 0.69565 0.41704 0.61300
Ag	Ag	0.91899 0.69146 0.32621 0.61600
Ag	Ag	0.99778 0.94687 0.53669 0.53700
Ag	Ag	0.82759 0.93585 0.42649 0.59600
Ag	Ag	0.82419 0.04006 0.35871 0.60900
C 	C 	0.92910 0.76430 0.66860 -0.34300
C 	C 	0.07570 0.77620 0.76370 -0.35300
C 	C 	0.88730 0.99400 0.42310 -0.05600
N 	N 	0.92970 0.99470 0.45370 -0.16800
N 	N 	0.99620 0.68650 0.28320 -0.10600
O 	O 	0.90650 0.77190 0.40530 -0.28000
O 	O 	0.87230 0.84710 0.43880 -0.29500
C 	C 	0.88060 0.81450 0.39080 0.13600
C 	C 	0.85840 0.82450 0.29900 0.81700
F 	F 	0.87390 0.79560 0.24210 -0.39600
F 	F 	0.80700 0.82340 0.27410 -0.41500
F 	F 	0.86910 0.87260 0.27600 -0.36900
O 	O 	0.86920 0.62570 0.55920 -0.19800
O 	O 	0.90650 0.66090 0.46580 -0.28000
C 	C 	0.88040 0.62750 0.49150 0.13700
C 	C 	0.86190 0.58090 0.43800 0.83400
F 	F 	0.87290 0.58050 0.36180 -0.41100
F 	F 	0.87700 0.53470 0.47310 -0.32300
F 	F 	0.81080 0.57530 0.41870 -0.40700
O 	O 	0.01500 0.62750 0.66810 -0.21300
O 	O 	0.02150 0.67330 0.55500 -0.31700
C 	C 	0.02180 0.63300 0.59380 0.11600
C 	C 	0.02810 0.58230 0.55170 0.82000
F 	F 	0.98620 0.55270 0.52980 -0.35000
F 	F 	0.04410 0.58730 0.48040 -0.42100
F 	F 	0.06190 0.54900 0.59760 -0.34800
O 	O 	0.83800 0.63170 0.73960 -0.18800
O 	O 	0.13850 0.66540 0.62780 -0.17300
C 	C 	0.83740 0.63340 0.81380 0.12600
C 	C 	0.80760 0.59290 0.84850 0.84400
F 	F 	0.75680 0.59850 0.82020 -0.34200
F 	F 	0.81420 0.58770 0.93260 -0.33100
F 	F 	0.81550 0.54410 0.82590 -0.35000
O 	O 	0.14090 0.92760 0.77250 -0.30800
O 	O 	0.85590 0.91750 0.59040 -0.31900
C 	C 	0.15050 0.94150 0.84800 0.14500
C 	C 	0.17220 0.99550 0.86550 0.80200
F 	F 	0.14460 0.02830 0.90100 -0.40600
F 	F 	0.21820 0.99870 0.91890 -0.38000
F 	F 	0.17930 0.02380 0.80080 -0.39900
O 	O 	0.01280 0.85700 0.53250 -0.35600
O 	O 	0.02510 0.77590 0.49630 -0.31200
C 	C 	0.02210 0.82300 0.48220 0.12000
C 	C 	0.03150 0.84310 0.40290 0.79600
F 	F 	0.04210 0.80810 0.34870 -0.40800
F 	F 	0.99250 0.86940 0.35410 -0.40200
F 	F 	0.06900 0.87820 0.40820 -0.39800
O 	O 	0.15910 0.86270 0.61950 -0.26300
O 	O 	0.14440 0.78170 0.56290 -0.17300
C 	C 	0.16600 0.82750 0.57290 0.10800
C 	C 	0.19890 0.83650 0.51390 0.83100
F 	F 	0.24840 0.82540 0.54740 -0.38000
F 	F 	0.19260 0.80950 0.44130 -0.33400
F 	F 	0.20190 0.88540 0.48740 -0.35700
Ag	Ag	0.99326 0.81772 0.83834 0.39100
Ag	Ag	0.11431 0.83295 0.91099 0.46400
Ag	Ag	0.12044 0.68937 0.82955 0.50600
Ag	Ag	0.88095 0.84317 0.77082 0.47100
Ag	Ag	0.90446 0.74071 0.84952 0.49900
Ag	Ag	0.06317 0.73604 0.95432 0.47900
Ag	Ag	0.96998 0.69565 0.08296 0.62000
Ag	Ag	0.08101 0.69146 0.17379 0.61300
Ag	Ag	0.00222 0.94687 0.96331 0.52400
Ag	Ag	0.17241 0.93585 0.07351 0.59700
Ag	Ag	0.17581 0.04006 0.14129 0.60800
C 	C 	0.07090 0.76430 0.83140 -0.35000
C 	C 	0.92430 0.77620 0.73630 -0.35200
C 	C 	0.11270 0.99400 0.07690 -0.05700
N 	N 	0.07030 0.99470 0.04630 -0.17100
N 	N 	0.00380 0.68650 0.21680 -0.12200
O 	O 	0.09350 0.77190 0.09470 -0.28300
O 	O 	0.12770 0.84710 0.06120 -0.29600
C 	C 	0.11940 0.81450 0.10920 0.13500
C 	C 	0.14160 0.82450 0.20100 0.81700
F 	F 	0.12610 0.79560 0.25790 -0.39700
F 	F 	0.19300 0.82340 0.22590 -0.41500
F 	F 	0.13090 0.87260 0.22400 -0.37000
O 	O 	0.13080 0.62570 0.94080 -0.20100
O 	O 	0.09350 0.66090 0.03420 -0.28300
C 	C 	0.11960 0.62750 0.00850 0.13900
C 	C 	0.13810 0.58090 0.06200 0.83300
F 	F 	0.12710 0.58050 0.13820 -0.41200
F 	F 	0.12300 0.53470 0.02690 -0.32500
F 	F 	0.18920 0.57530 0.08130 -0.40600
O 	O 	0.98500 0.62750 0.83190 -0.20200
O 	O 	0.97850 0.67330 0.94500 -0.31000
C 	C 	0.97820 0.63300 0.90620 0.11100
C 	C 	0.97190 0.58230 0.94830 0.83800
F 	F 	0.01380 0.55270 0.97020 -0.36700
F 	F 	0.95590 0.58730 0.01960 -0.41900
F 	F 	0.93810 0.54900 0.90240 -0.34700
O 	O 	0.16200 0.63170 0.76040 -0.18800
O 	O 	0.86150 0.66540 0.87220 -0.17300
C 	C 	0.16260 0.63340 0.68620 0.12600
C 	C 	0.19240 0.59290 0.65150 0.84400
F 	F 	0.24320 0.59850 0.67980 -0.34300
F 	F 	0.18580 0.58770 0.56740 -0.33100
F 	F 	0.18450 0.54410 0.67410 -0.35100
O 	O 	0.85910 0.92760 0.72750 -0.30600
O 	O 	0.14410 0.91750 0.90960 -0.32200
C 	C 	0.84950 0.94150 0.65200 0.14400
C 	C 	0.82780 0.99550 0.63450 0.80500
F 	F 	0.85540 0.02830 0.59900 -0.40700
F 	F 	0.78180 0.99870 0.58110 -0.37900
F 	F 	0.82070 0.02380 0.69920 -0.39900
O 	O 	0.98720 0.85700 0.96750 -0.34800
O 	O 	0.97490 0.77590 0.00370 -0.30600
C 	C 	0.97790 0.82300 0.01780 0.11900
C 	C 	0.96850 0.84310 0.09710 0.81300
F 	F 	0.95790 0.80810 0.15130 -0.40600
F 	F 	0.00750 0.86940 0.14590 -0.41800
F 	F 	0.93100 0.87820 0.09180 -0.39700
O 	O 	0.84090 0.86270 0.88050 -0.26300
O 	O 	0.85560 0.78170 0.93710 -0.17400
C 	C 	0.83400 0.82750 0.92710 0.10900
C 	C 	0.80110 0.83650 0.98610 0.82700
F 	F 	0.75160 0.82540 0.95260 -0.38100
F 	F 	0.80740 0.80950 0.05870 -0.33200
F 	F 	0.79810 0.88540 0.01260 -0.35500
Ag	Ag	0.99326 0.18228 0.33834 0.39100
Ag	Ag	0.11431 0.16705 0.41099 0.46500
Ag	Ag	0.12044 0.31063 0.32955 0.50600
Ag	Ag	0.88095 0.15683 0.27082 0.47100
Ag	Ag	0.90446 0.25929 0.34952 0.50000
Ag	Ag	0.06317 0.26396 0.45432 0.48000
Ag	Ag	0.96998 0.30435 0.58296 0.62000
Ag	Ag	0.08101 0.30854 0.67379 0.61300
Ag	Ag	0.00222 0.05313 0.46331 0.52500
Ag	Ag	0.17241 0.06415 0.57351 0.59600
Ag	Ag	0.17581 0.95994 0.64129 0.60900
C 	C 	0.07090 0.23570 0.33140 -0.34900
C 	C 	0.92430 0.22380 0.23630 -0.35100
C 	C 	0.11270 0.00600 0.57690 -0.05800
N 	N 	0.07030 0.00530 0.54630 -0.17300
N 	N 	0.00380 0.31350 0.71680 -0.12200
O 	O 	0.09350 0.22810 0.59470 -0.28400
O 	O 	0.12770 0.15290 0.56120 -0.29700
C 	C 	0.11940 0.18550 0.60920 0.13600
C 	C 	0.14160 0.17550 0.70100 0.81700
F 	F 	0.12610 0.20440 0.75790 -0.39700
F 	F 	0.19300 0.17660 0.72590 -0.41500
F 	F 	0.13090 0.12740 0.72400 -0.37000
O 	O 	0.13080 0.37430 0.44080 -0.19900
O 	O 	0.09350 0.33910 0.53420 -0.28300
C 	C 	0.11960 0.37250 0.50850 0.13800
C 	C 	0.13810 0.41910 0.56200 0.83300
F 	F 	0.12710 0.41950 0.63820 -0.41200
F 	F 	0.12300 0.46530 0.52690 -0.32500
F 	F 	0.18920 0.42470 0.58130 -0.40700
O 	O 	0.98500 0.37250 0.33190 -0.20200
O 	O 	0.97850 0.32670 0.44500 -0.31000
C 	C 	0.97820 0.36700 0.40620 0.11100
C 	C 	0.97190 0.41770 0.44830 0.83900
F 	F 	0.01380 0.44730 0.47020 -0.36700
F 	F 	0.95590 0.41270 0.51960 -0.42000
F 	F 	0.93810 0.45100 0.40240 -0.34700
O 	O 	0.16200 0.36830 0.26040 -0.18800
O 	O 	0.86150 0.33460 0.37220 -0.17300
C 	C 	0.16260 0.36660 0.18620 0.12600
C 	C 	0.19240 0.40710 0.15150 0.84400
F 	F 	0.24320 0.40150 0.17980 -0.34300
F 	F 	0.18580 0.41230 0.06740 -0.33100
F 	F 	0.18450 0.45590 0.17410 -0.35100
O 	O 	0.85910 0.07240 0.22750 -0.30600
O 	O 	0.14410 0.08250 0.40960 -0.32000
C 	C 	0.84950 0.05850 0.15200 0.14500
C 	C 	0.82780 0.00450 0.13450 0.80200
F 	F 	0.85540 0.97170 0.09900 -0.40500
F 	F 	0.78180 0.00130 0.08110 -0.38000
F 	F 	0.82070 0.97620 0.19920 -0.39800
O 	O 	0.98720 0.14300 0.46750 -0.34500
O 	O 	0.97490 0.22410 0.50370 -0.30600
C 	C 	0.97790 0.17700 0.51780 0.11600
C 	C 	0.96850 0.15690 0.59710 0.81400
F 	F 	0.95790 0.19190 0.65130 -0.40600
F 	F 	0.00750 0.13060 0.64590 -0.41800
F 	F 	0.93100 0.12180 0.59180 -0.39800
O 	O 	0.84090 0.13730 0.38050 -0.26200
O 	O 	0.85560 0.21830 0.43710 -0.17300
C 	C 	0.83400 0.17250 0.42710 0.10800
C 	C 	0.80110 0.16350 0.48610 0.83100
F 	F 	0.75160 0.17460 0.45260 -0.38000
F 	F 	0.80740 0.19050 0.55870 -0.33400
F 	F 	0.79810 0.11460 0.51260 -0.35700
Ag	Ag	0.00674 0.18228 0.16166 0.38200
Ag	Ag	0.88569 0.16705 0.08901 0.46600
Ag	Ag	0.87956 0.31063 0.17045 0.50700
Ag	Ag	0.11905 0.15683 0.22918 0.47000
Ag	Ag	0.09554 0.25929 0.15048 0.49900
Ag	Ag	0.93683 0.26396 0.04568 0.48500
Ag	Ag	0.03002 0.30435 0.91704 0.61400
Ag	Ag	0.91899 0.30854 0.82621 0.61600
Ag	Ag	0.99778 0.05313 0.03669 0.53600
Ag	Ag	0.82759 0.06415 0.92649 0.59700
Ag	Ag	0.82419 0.95994 0.85871 0.60800
C 	C 	0.92910 0.23570 0.16860 -0.34300
C 	C 	0.07570 0.22380 0.26370 -0.35300
C 	C 	0.88730 0.00600 0.92310 -0.05500
N 	N 	0.92970 0.00530 0.95370 -0.16800
N 	N 	0.99620 0.31350 0.78320 -0.10600
O 	O 	0.90650 0.22810 0.90530 -0.28000
O 	O 	0.87230 0.15290 0.93880 -0.29500
C 	C 	0.88060 0.18550 0.89080 0.13500
C 	C 	0.85840 0.17550 0.79900 0.81700
F 	F 	0.87390 0.20440 0.74210 -0.39600
F 	F 	0.80700 0.17660 0.77410 -0.41500
F 	F 	0.86910 0.12740 0.77600 -0.36900
O 	O 	0.86920 0.37430 0.05920 -0.19800
O 	O 	0.90650 0.33910 0.96580 -0.28000
C 	C 	0.88040 0.37250 0.99150 0.13800
C 	C 	0.86190 0.41910 0.93800 0.83300
F 	F 	0.87290 0.41950 0.86180 -0.41100
F 	F 	0.87700 0.46530 0.97310 -0.32400
F 	F 	0.81080 0.42470 0.91870 -0.40700
O 	O 	0.01500 0.37250 0.16810 -0.21300
O 	O 	0.02150 0.32670 0.05500 -0.31700
C 	C 	0.02180 0.36700 0.09380 0.11600
C 	C 	0.02810 0.41770 0.05170 0.82000
F 	F 	0.98620 0.44730 0.02980 -0.35000
F 	F 	0.04410 0.41270 0.98040 -0.42100
F 	F 	0.06190 0.45100 0.09760 -0.34800
O 	O 	0.83800 0.36830 0.23960 -0.18800
O 	O 	0.13850 0.33460 0.12780 -0.17300
C 	C 	0.83740 0.36660 0.31380 0.12600
C 	C 	0.80760 0.40710 0.34850 0.84400
F 	F 	0.75680 0.40150 0.32020 -0.34200
F 	F 	0.81420 0.41230 0.43260 -0.33100
F 	F 	0.81550 0.45590 0.32590 -0.35000
O 	O 	0.14090 0.07240 0.27250 -0.30700
O 	O 	0.85590 0.08250 0.09040 -0.32100
C 	C 	0.15050 0.05850 0.34800 0.14400
C 	C 	0.17220 0.00450 0.36550 0.80500
F 	F 	0.14460 0.97170 0.40100 -0.40800
F 	F 	0.21820 0.00130 0.41890 -0.37900
F 	F 	0.17930 0.97620 0.30080 -0.40000
O 	O 	0.01280 0.14300 0.03250 -0.35700
O 	O 	0.02510 0.22410 0.99630 -0.31200
C 	C 	0.02210 0.17700 0.98220 0.12300
C 	C 	0.03150 0.15690 0.90290 0.79600
F 	F 	0.04210 0.19190 0.84870 -0.40800
F 	F 	0.99250 0.13060 0.85410 -0.40200
F 	F 	0.06900 0.12180 0.90820 -0.39700
O 	O 	0.15910 0.13730 0.11950 -0.26400
O 	O 	0.14440 0.21830 0.06290 -0.17400
C 	C 	0.16600 0.17250 0.07290 0.10900
C 	C 	0.19890 0.16350 0.01390 0.82800
F 	F 	0.24840 0.17460 0.04740 -0.38000
F 	F 	0.19260 0.19050 0.94130 -0.33200
F 	F 	0.20190 0.11460 0.98740 -0.35500
Ag	Ag	-0.00000 0.69989 0.75000 0.44500
Ag	Ag	0.00000 0.30011 0.25000 0.44500
