data_crystal

_cell_length_a 14.32800
_cell_length_b 14.32800
_cell_length_c 10.09660
_cell_angle_alpha 90.00000
_cell_angle_beta  90.00000
_cell_angle_gamma 120.00000

_symmetry_space_group_name_	'P 1'
_symmetry_space_group_name_H-M	'P 1'

loop_
_symmetry_equiv_pos_as_xyz
  x,y,z

loop_
_atom_site_label
_atom_site_type_symbol
_atom_site_fract_x
_atom_site_fract_y
_atom_site_fract_z
_atom_site_charge
Eu	Eu	0.58407 0.14347 0.61308 2.09900
S 	S 	0.33717 0.14357 0.57498 0.80500
S 	S 	0.52440 0.00489 0.36328 0.69300
O 	O 	0.57412 0.12260 0.36710 -0.40900
O 	O 	0.41705 0.95305 0.30030 -0.40000
O 	O 	0.51624 0.96889 0.50150 -0.40100
O 	O 	0.58764 0.97063 0.28120 -0.36900
O 	O 	0.24741 0.09469 0.47920 -0.20900
O 	O 	0.40360 0.25905 0.54530 -0.49900
O 	O 	0.40363 0.09230 0.55650 -0.47100
O 	O 	0.29497 0.12490 0.70960 -0.22800
O 	O 	0.72241 0.44457 0.76640 -0.53900
Eu	Eu	0.85653 0.44060 0.61308 2.09800
S 	S 	0.85643 0.19360 0.57498 0.80400
S 	S 	0.99511 0.51951 0.36328 0.69200
O 	O 	0.87740 0.45152 0.36710 -0.41000
O 	O 	0.04695 0.46400 0.30030 -0.40100
O 	O 	0.03111 0.54735 0.50150 -0.40100
O 	O 	0.02937 0.61701 0.28120 -0.36900
O 	O 	0.90531 0.15272 0.47920 -0.20700
O 	O 	0.74095 0.14455 0.54530 -0.49900
O 	O 	0.90770 0.31133 0.55650 -0.47100
O 	O 	0.87510 0.17007 0.70960 -0.22800
O 	O 	0.55543 0.27784 0.76640 -0.53800
Eu	Eu	0.55940 0.41593 0.61308 2.09700
S 	S 	0.80640 0.66283 0.57498 0.80400
S 	S 	0.48049 0.47560 0.36328 0.67900
O 	O 	0.54848 0.42588 0.36710 -0.40800
O 	O 	0.53600 0.58295 0.30030 -0.39700
O 	O 	0.45265 0.48376 0.50150 -0.39600
O 	O 	0.38299 0.41236 0.28120 -0.36400
O 	O 	0.84728 0.75259 0.47920 -0.20900
O 	O 	0.85545 0.59640 0.54530 -0.49900
O 	O 	0.68867 0.59637 0.55650 -0.47100
O 	O 	0.82993 0.70503 0.70960 -0.22800
O 	O 	0.72216 0.27759 0.76640 -0.53900
Eu	Eu	0.14347 0.58407 0.11308 2.04500
S 	S 	0.14357 0.33717 0.07498 0.72000
S 	S 	0.00489 0.52440 0.86328 0.75100
O 	O 	0.12260 0.57412 0.86710 -0.38000
O 	O 	0.95305 0.41705 0.80030 -0.39900
O 	O 	0.96889 0.51624 0.00150 -0.45100
O 	O 	0.97063 0.58764 0.78120 -0.36500
O 	O 	0.09469 0.24741 0.97920 -0.13900
O 	O 	0.25905 0.40360 0.04530 -0.50100
O 	O 	0.09230 0.40363 0.05650 -0.47500
O 	O 	0.12490 0.29497 0.20960 -0.23100
O 	O 	0.44457 0.72241 0.26640 -0.53700
Eu	Eu	0.44060 0.85653 0.11308 2.04500
S 	S 	0.19360 0.85643 0.07498 0.71800
S 	S 	0.51951 0.99511 0.86328 0.75100
O 	O 	0.45152 0.87740 0.86710 -0.38000
O 	O 	0.46400 0.04695 0.80030 -0.39900
O 	O 	0.54735 0.03111 0.00150 -0.45100
O 	O 	0.61701 0.02937 0.78120 -0.36500
O 	O 	0.15272 0.90531 0.97920 -0.13900
O 	O 	0.14455 0.74095 0.04530 -0.50100
O 	O 	0.31133 0.90770 0.05650 -0.47500
O 	O 	0.17007 0.87510 0.20960 -0.23200
O 	O 	0.27784 0.55543 0.26640 -0.53800
Eu	Eu	0.41593 0.55940 0.11308 2.04800
S 	S 	0.66283 0.80640 0.07498 0.72000
S 	S 	0.47560 0.48049 0.86328 0.76100
O 	O 	0.42588 0.54848 0.86710 -0.38200
O 	O 	0.58295 0.53600 0.80030 -0.40100
O 	O 	0.48376 0.45265 0.00150 -0.45700
O 	O 	0.41236 0.38299 0.78120 -0.36800
O 	O 	0.75259 0.84728 0.97920 -0.13900
O 	O 	0.59640 0.85545 0.04530 -0.50100
O 	O 	0.59637 0.68867 0.05650 -0.47400
O 	O 	0.70503 0.82993 0.20960 -0.23100
O 	O 	0.27759 0.72216 0.26640 -0.53700
S 	S 	0.66667 0.33333 0.82408 0.68200
O 	O 	0.66667 0.33333 0.96570 -0.19800
O 	O 	0.66667 0.33333 0.52840 -0.62500
S 	S 	0.33333 0.66667 0.32408 0.68000
O 	O 	0.33333 0.66667 0.46570 -0.22700
O 	O 	0.33333 0.66667 0.02840 -0.63400
