data_crystal

_cell_length_a 11.52840
_cell_length_b 14.76100
_cell_length_c 25.59300
_cell_angle_alpha 90.00000
_cell_angle_beta  90.00000
_cell_angle_gamma 90.00000

_symmetry_space_group_name_	'P 1'
_symmetry_space_group_name_H-M	'P 1'

loop_
_symmetry_equiv_pos_as_xyz
  x,y,z

loop_
_atom_site_label
_atom_site_type_symbol
_atom_site_fract_x
_atom_site_fract_y
_atom_site_fract_z
_atom_site_charge
Cu	Cu	0.50000 0.50000 0.50000 0.87900
Cu	Cu	0.50000 0.00000 -0.00000 0.82700
Cu	Cu	0.50000 0.50000 -0.00000 0.85500
Cu	Cu	0.50000 -0.00000 0.50000 0.85100
Cu	Cu	-0.00000 0.50000 0.50000 0.84600
Cu	Cu	-0.00000 0.00000 -0.00000 0.79300
Cu	Cu	-0.00000 0.50000 -0.00000 0.82100
Cu	Cu	0.00000 -0.00000 0.50000 0.81900
Cu	Cu	0.68506 0.51404 0.25000 0.86300
Cu	Cu	0.68506 0.98596 0.25000 0.89100
Cu	Cu	0.31494 0.48596 0.75000 0.85700
Cu	Cu	0.31494 0.01404 0.75000 0.82800
H 	H 	0.75010 0.49920 0.48460 -0.02300
H 	H 	0.57810 0.55350 0.61190 -0.01100
H 	H 	0.75120 0.57850 0.65440 0.10300
H 	H 	0.92190 0.55560 0.61020 0.02100
H 	H 	0.75010 0.00080 0.01540 -0.17700
H 	H 	0.57810 0.94650 0.88810 -0.00300
H 	H 	0.75120 0.92150 0.84560 0.11500
H 	H 	0.92190 0.94440 0.88980 0.02900
H 	H 	0.24990 0.50080 0.98460 0.04600
H 	H 	0.42190 0.44650 0.11190 -0.01100
H 	H 	0.24880 0.42150 0.15440 0.08300
H 	H 	0.07810 0.44440 0.11020 -0.03400
H 	H 	0.24990 0.99920 0.51540 0.07100
H 	H 	0.42190 0.05350 0.38810 -0.01900
H 	H 	0.24880 0.07850 0.34560 0.07600
H 	H 	0.07810 0.05560 0.38980 -0.04200
H 	H 	0.24990 0.50080 0.51540 -0.02700
H 	H 	0.42190 0.44650 0.38810 -0.01300
H 	H 	0.24880 0.42150 0.34560 0.08600
H 	H 	0.07810 0.44440 0.38980 -0.03500
H 	H 	0.24990 0.99920 0.98460 0.14200
H 	H 	0.42190 0.05350 0.11190 -0.01700
H 	H 	0.24880 0.07850 0.15440 0.07300
H 	H 	0.07810 0.05560 0.11020 -0.04000
H 	H 	0.75010 0.49920 0.01540 -0.09000
H 	H 	0.57810 0.55350 0.88810 -0.01100
H 	H 	0.75120 0.57850 0.84560 0.10600
H 	H 	0.92190 0.55560 0.88980 0.02100
H 	H 	0.75010 0.00080 0.48460 -0.11100
H 	H 	0.57810 0.94650 0.61190 -0.00200
H 	H 	0.75120 0.92150 0.65440 0.11300
H 	H 	0.92190 0.94440 0.61020 0.02900
W 	W 	0.72330 0.25000 0.38944 0.50200
W 	W 	0.72330 0.25000 0.11056 0.50100
W 	W 	0.27670 0.75000 0.88944 0.50600
W 	W 	0.27670 0.75000 0.61056 0.50300
W 	W 	0.77261 0.75000 0.40051 0.49500
W 	W 	0.77261 0.75000 0.09949 0.50500
W 	W 	0.22739 0.25000 0.90051 0.51100
W 	W 	0.22739 0.25000 0.59949 0.51900
C 	C 	0.62600 0.34290 0.43910 -0.01300
C 	C 	0.84100 0.33900 0.43130 -0.01000
C 	C 	0.71040 0.36160 0.33450 -0.01600
C 	C 	0.63670 0.65570 0.42360 -0.03000
C 	C 	0.88360 0.64210 0.42750 -0.00900
C 	C 	0.73490 0.65780 0.33690 -0.01500
C 	C 	0.75020 0.51390 0.51990 0.11400
C 	C 	0.64770 0.54650 0.59400 0.10400
C 	C 	0.75040 0.56060 0.61960 -0.16300
C 	C 	0.85190 0.54770 0.59270 0.11300
C 	C 	0.62600 0.15710 0.06090 -0.02600
C 	C 	0.84100 0.16100 0.06870 -0.02100
C 	C 	0.71040 0.13840 0.16550 -0.02100
C 	C 	0.63670 0.84430 0.07640 -0.02900
C 	C 	0.88360 0.85790 0.07250 -0.00500
C 	C 	0.73490 0.84220 0.16310 -0.00600
C 	C 	0.75020 0.98610 0.98010 0.34200
C 	C 	0.64770 0.95350 0.90600 0.12500
C 	C 	0.75040 0.93940 0.88040 -0.17500
C 	C 	0.85190 0.95230 0.90730 0.13400
C 	C 	0.37400 0.65710 0.93910 -0.00700
C 	C 	0.15900 0.66100 0.93130 -0.02600
C 	C 	0.28960 0.63840 0.83450 -0.02400
C 	C 	0.36330 0.34430 0.92360 -0.02600
C 	C 	0.11640 0.35790 0.92750 -0.02900
C 	C 	0.26510 0.34220 0.83690 -0.02400
C 	C 	0.24980 0.48610 0.01990 -0.00100
C 	C 	0.35230 0.45350 0.09400 0.09400
C 	C 	0.24960 0.43940 0.11960 -0.16600
C 	C 	0.14810 0.45230 0.09270 0.09800
C 	C 	0.37400 0.84290 0.56090 -0.01100
C 	C 	0.15900 0.83900 0.56870 -0.02700
C 	C 	0.28960 0.86160 0.66550 -0.01600
C 	C 	0.36330 0.15570 0.57640 -0.04100
C 	C 	0.11640 0.14210 0.57250 -0.04800
C 	C 	0.26510 0.15780 0.66310 -0.03500
C 	C 	0.24980 0.01390 0.48010 -0.02000
C 	C 	0.35230 0.04650 0.40600 0.08800
C 	C 	0.24960 0.06060 0.38040 -0.16900
C 	C 	0.14810 0.04770 0.40730 0.09200
C 	C 	0.37400 0.65710 0.56090 -0.01500
C 	C 	0.15900 0.66100 0.56870 -0.03300
C 	C 	0.28960 0.63840 0.66550 -0.02300
C 	C 	0.36330 0.34430 0.57640 -0.03300
C 	C 	0.11640 0.35790 0.57250 -0.03600
C 	C 	0.26510 0.34220 0.66310 -0.02600
C 	C 	0.24980 0.48610 0.48010 0.11000
C 	C 	0.35230 0.45350 0.40600 0.10200
C 	C 	0.24960 0.43940 0.38040 -0.17500
C 	C 	0.14810 0.45230 0.40730 0.10600
C 	C 	0.37400 0.84290 0.93910 -0.00300
C 	C 	0.15900 0.83900 0.93130 -0.02100
C 	C 	0.28960 0.86160 0.83450 -0.01600
C 	C 	0.36330 0.15570 0.92360 -0.03400
C 	C 	0.11640 0.14210 0.92750 -0.04100
C 	C 	0.26510 0.15780 0.83690 -0.03400
C 	C 	0.24980 0.01390 0.01990 -0.12800
C 	C 	0.35230 0.04650 0.09400 0.08000
C 	C 	0.24960 0.06060 0.11960 -0.16000
C 	C 	0.14810 0.04770 0.09270 0.08400
C 	C 	0.62600 0.34290 0.06090 -0.02100
C 	C 	0.84100 0.33900 0.06870 -0.01600
C 	C 	0.71040 0.36160 0.16550 -0.01500
C 	C 	0.63670 0.65570 0.07640 -0.03700
C 	C 	0.88360 0.64210 0.07250 -0.01500
C 	C 	0.73490 0.65780 0.16310 -0.01600
C 	C 	0.75020 0.51390 0.98010 0.22200
C 	C 	0.64770 0.54650 0.90600 0.11200
C 	C 	0.75040 0.56060 0.88040 -0.17000
C 	C 	0.85190 0.54770 0.90730 0.12100
C 	C 	0.62600 0.15710 0.43910 -0.01800
C 	C 	0.84100 0.16100 0.43130 -0.01500
C 	C 	0.71040 0.13840 0.33450 -0.02200
C 	C 	0.63670 0.84430 0.42360 -0.02200
C 	C 	0.88360 0.85790 0.42750 0.00100
C 	C 	0.73490 0.84220 0.33690 -0.00500
C 	C 	0.75020 0.98610 0.51990 0.23700
C 	C 	0.64770 0.95350 0.59400 0.11800
C 	C 	0.75040 0.93940 0.61960 -0.16700
C 	C 	0.85190 0.95230 0.59270 0.12600
C 	C 	0.54710 0.25000 0.35880 -0.04300
C 	C 	0.88530 0.25000 0.34680 -0.02400
C 	C 	0.54710 0.25000 0.14120 -0.04400
C 	C 	0.88530 0.25000 0.15320 -0.02500
C 	C 	0.45290 0.75000 0.85880 -0.03600
C 	C 	0.11470 0.75000 0.84680 -0.04700
C 	C 	0.45290 0.75000 0.64120 -0.03800
C 	C 	0.11470 0.75000 0.65320 -0.04800
C 	C 	0.92530 0.75000 0.35080 0.05800
C 	C 	0.76750 0.75000 0.48590 -0.02600
C 	C 	0.92530 0.75000 0.14920 0.05600
C 	C 	0.76750 0.75000 0.01410 -0.09600
C 	C 	0.07470 0.25000 0.85080 -0.13000
C 	C 	0.23250 0.25000 0.98590 0.03200
C 	C 	0.07470 0.25000 0.64920 -0.13300
C 	C 	0.23250 0.25000 0.51410 -0.04200
N 	N 	0.57680 0.39630 0.46200 -0.20300
N 	N 	0.90210 0.38580 0.45330 -0.14000
N 	N 	0.70180 0.41950 0.30420 -0.21300
N 	N 	0.57040 0.60240 0.43660 -0.16600
N 	N 	0.94180 0.58620 0.44600 -0.17200
N 	N 	0.71560 0.60720 0.30420 -0.21300
N 	N 	0.64620 0.52240 0.54270 -0.23200
N 	N 	0.85380 0.52410 0.54230 -0.21400
N 	N 	0.57680 0.10370 0.03800 -0.22000
N 	N 	0.90210 0.11420 0.04670 -0.15500
N 	N 	0.70180 0.08050 0.19580 -0.23200
N 	N 	0.57040 0.89760 0.06340 -0.15300
N 	N 	0.94180 0.91380 0.05400 -0.15700
N 	N 	0.71560 0.89280 0.19580 -0.20200
N 	N 	0.64620 0.97760 0.95730 -0.23700
N 	N 	0.85380 0.97590 0.95770 -0.22100
N 	N 	0.42320 0.60370 0.96200 -0.18700
N 	N 	0.09790 0.61420 0.95330 -0.16800
N 	N 	0.29820 0.58050 0.80420 -0.21800
N 	N 	0.42960 0.39760 0.93660 -0.15300
N 	N 	0.05820 0.41380 0.94600 -0.20400
N 	N 	0.28440 0.39280 0.80420 -0.22000
N 	N 	0.35380 0.47760 0.04270 -0.22300
N 	N 	0.14620 0.47590 0.04230 -0.23400
N 	N 	0.42320 0.89630 0.53800 -0.18700
N 	N 	0.09790 0.88580 0.54670 -0.16800
N 	N 	0.29820 0.91950 0.69580 -0.19800
N 	N 	0.42960 0.10240 0.56340 -0.17900
N 	N 	0.05820 0.08620 0.55400 -0.23400
N 	N 	0.28440 0.10720 0.69580 -0.23000
N 	N 	0.35380 0.02240 0.45730 -0.22100
N 	N 	0.14620 0.02410 0.45770 -0.23200
N 	N 	0.42320 0.60370 0.53800 -0.20300
N 	N 	0.09790 0.61420 0.54670 -0.18200
N 	N 	0.29820 0.58050 0.69580 -0.21800
N 	N 	0.42960 0.39760 0.56340 -0.16500
N 	N 	0.05820 0.41380 0.55400 -0.22000
N 	N 	0.28440 0.39280 0.69580 -0.21900
N 	N 	0.35380 0.47760 0.45730 -0.23300
N 	N 	0.14620 0.47590 0.45770 -0.24400
N 	N 	0.42320 0.89630 0.96200 -0.17100
N 	N 	0.09790 0.88580 0.95330 -0.15400
N 	N 	0.29820 0.91950 0.80420 -0.19800
N 	N 	0.42960 0.10240 0.93660 -0.16700
N 	N 	0.05820 0.08620 0.94600 -0.21900
N 	N 	0.28440 0.10720 0.80420 -0.23100
N 	N 	0.35380 0.02240 0.04270 -0.21200
N 	N 	0.14620 0.02410 0.04230 -0.22200
N 	N 	0.57680 0.39630 0.03800 -0.21200
N 	N 	0.90210 0.38580 0.04670 -0.14800
N 	N 	0.70180 0.41950 0.19580 -0.21300
N 	N 	0.57040 0.60240 0.06340 -0.17300
N 	N 	0.94180 0.58620 0.05400 -0.17900
N 	N 	0.71560 0.60720 0.19580 -0.21300
N 	N 	0.64620 0.52240 0.95730 -0.23500
N 	N 	0.85380 0.52410 0.95770 -0.21700
N 	N 	0.57680 0.10370 0.46200 -0.21100
N 	N 	0.90210 0.11420 0.45330 -0.14600
N 	N 	0.70180 0.08050 0.30420 -0.23200
N 	N 	0.57040 0.89760 0.43660 -0.14600
N 	N 	0.94180 0.91380 0.44600 -0.15000
N 	N 	0.71560 0.89280 0.30420 -0.20200
N 	N 	0.64620 0.97760 0.54270 -0.23500
N 	N 	0.85380 0.97590 0.54230 -0.21800
N 	N 	0.45470 0.25000 0.34160 -0.10100
N 	N 	0.97210 0.25000 0.32400 -0.06700
N 	N 	0.45470 0.25000 0.15840 -0.10200
N 	N 	0.97210 0.25000 0.17600 -0.06700
N 	N 	0.54530 0.75000 0.84160 -0.09000
N 	N 	0.02790 0.75000 0.82400 -0.11100
N 	N 	0.54530 0.75000 0.65840 -0.09100
N 	N 	0.02790 0.75000 0.67600 -0.11200
N 	N 	0.00580 0.75000 0.32330 -0.16300
N 	N 	0.76610 0.75000 0.53040 -0.08300
N 	N 	0.00580 0.75000 0.17670 -0.16400
N 	N 	0.76610 0.75000 0.96960 -0.03600
N 	N 	0.99420 0.25000 0.82330 -0.01700
N 	N 	0.23390 0.25000 0.03040 -0.14200
N 	N 	0.99420 0.25000 0.67670 -0.01700
N 	N 	0.23390 0.25000 0.46960 -0.09400
