data_crystal

_cell_length_a 13.04420
_cell_length_b 13.04420
_cell_length_c 16.75800
_cell_angle_alpha 109.75700
_cell_angle_beta  109.75700
_cell_angle_gamma 93.33930

_symmetry_space_group_name_	'P 1'
_symmetry_space_group_name_H-M	'P 1'

loop_
_symmetry_equiv_pos_as_xyz
  x,y,z

loop_
_atom_site_label
_atom_site_type_symbol
_atom_site_fract_x
_atom_site_fract_y
_atom_site_fract_z
_atom_site_charge
Cd	Cd	0.12240 0.87760 0.25000 1.16200
Cd	Cd	0.87760 0.12240 0.75000 1.16200
H 	H 	0.34880 0.82520 0.21830 -0.02800
H 	H 	0.04200 0.70380 0.03980 -0.02200
H 	H 	0.41870 0.73390 0.10980 0.14100
H 	H 	0.10300 0.60480 0.92720 0.11300
H 	H 	0.32800 0.64760 0.90390 0.20100
H 	H 	0.24640 0.53620 0.88120 0.15000
H 	H 	0.21680 0.13960 0.38570 0.00400
H 	H 	0.95850 0.94530 0.36050 -0.03200
H 	H 	0.17990 0.29050 0.48560 0.18700
H 	H 	0.91490 0.09070 0.45990 0.11200
H 	H 	0.07560 0.32600 0.61270 0.11800
H 	H 	0.94560 0.28020 0.55400 0.10300
H 	H 	0.17480 0.65120 0.28170 -0.03100
H 	H 	0.29620 0.95800 0.46020 -0.02700
H 	H 	0.26610 0.58130 0.39020 0.14400
H 	H 	0.39520 0.89700 0.57280 0.11800
H 	H 	0.35240 0.67200 0.59610 0.20300
H 	H 	0.46380 0.75360 0.61880 0.15200
H 	H 	0.86040 0.78320 0.11430 0.00600
H 	H 	0.05470 0.04150 0.13950 -0.02500
H 	H 	0.70950 0.82010 0.01440 0.18000
H 	H 	0.90930 0.08510 0.04010 0.10400
H 	H 	0.67400 0.92440 0.88730 0.11100
H 	H 	0.71980 0.05440 0.94600 0.09200
H 	H 	0.65120 0.17480 0.78170 -0.02900
H 	H 	0.95800 0.29620 0.96020 -0.02300
H 	H 	0.58130 0.26610 0.89020 0.14000
H 	H 	0.89700 0.39520 0.07280 0.11200
H 	H 	0.67200 0.35240 0.09610 0.20000
H 	H 	0.75360 0.46380 0.11880 0.14900
H 	H 	0.78320 0.86040 0.61430 0.00300
H 	H 	0.04150 0.05470 0.63950 -0.03300
H 	H 	0.82010 0.70950 0.51440 0.18600
H 	H 	0.08510 0.90930 0.54010 0.11100
H 	H 	0.92440 0.67400 0.38730 0.11800
H 	H 	0.05440 0.71980 0.44600 0.10300
H 	H 	0.82520 0.34880 0.71830 -0.03100
H 	H 	0.70380 0.04200 0.53980 -0.02700
H 	H 	0.73390 0.41870 0.60980 0.14400
H 	H 	0.60480 0.10300 0.42720 0.11800
H 	H 	0.64760 0.32800 0.40390 0.20300
H 	H 	0.53620 0.24640 0.38120 0.15200
H 	H 	0.13960 0.21680 0.88570 0.00600
H 	H 	0.94530 0.95850 0.86050 -0.02500
H 	H 	0.29050 0.17990 0.98560 0.18000
H 	H 	0.09070 0.91490 0.95990 0.10400
H 	H 	0.32600 0.07560 0.11270 0.11100
H 	H 	0.28020 0.94560 0.05400 0.09200
C 	C 	0.29809 0.78063 0.15800 0.11600
C 	C 	0.11962 0.70948 0.05439 0.09900
C 	C 	0.34070 0.72572 0.09373 -0.20100
C 	C 	0.15544 0.65054 0.98646 -0.18600
C 	C 	0.26839 0.65847 0.00539 0.21300
C 	C 	0.30790 0.59610 0.93054 -0.23000
C 	C 	0.40666 0.54614 0.96520 -0.02800
C 	C 	0.39465 0.44241 0.97022 0.21800
C 	C 	0.48508 0.39790 0.00395 0.21500
C 	C 	0.15375 0.12909 0.40037 0.13300
C 	C 	0.00439 0.01673 0.38589 0.12800
C 	C 	0.13232 0.22002 0.46055 -0.21400
C 	C 	0.97770 0.10342 0.44549 -0.20800
C 	C 	0.04242 0.20822 0.48398 0.20900
C 	C 	0.01695 0.30465 0.55091 -0.18000
C 	C 	0.00962 0.40538 0.52512 -0.05100
C 	C 	0.91743 0.40983 0.45607 0.23100
C 	C 	0.90731 0.50051 0.43122 0.23600
C 	C 	0.21937 0.70191 0.34200 0.12200
C 	C 	0.29052 0.88038 0.44561 0.11400
C 	C 	0.27428 0.65930 0.40627 -0.21200
C 	C 	0.34946 0.84456 0.51354 -0.20900
C 	C 	0.34153 0.73161 0.49461 0.23200
C 	C 	0.40390 0.69210 0.56946 -0.24300
C 	C 	0.45386 0.59334 0.53480 -0.02500
C 	C 	0.55759 0.60535 0.52978 0.21800
C 	C 	0.60210 0.51492 0.49605 0.21400
C 	C 	0.87091 0.84625 0.09963 0.12400
C 	C 	0.98327 0.99561 0.11411 0.10700
C 	C 	0.77998 0.86768 0.03945 -0.19900
C 	C 	0.89658 0.02230 0.05451 -0.17800
C 	C 	0.79178 0.95758 0.01602 0.18200
C 	C 	0.69535 0.98305 0.94909 -0.15400
C 	C 	0.59462 0.99038 0.97488 -0.05700
C 	C 	0.59017 0.08257 0.04393 0.23400
C 	C 	0.49949 0.09269 0.06878 0.23800
C 	C 	0.70191 0.21937 0.84200 0.11600
C 	C 	0.88038 0.29052 0.94561 0.09900
C 	C 	0.65930 0.27428 0.90627 -0.20100
C 	C 	0.84456 0.34946 0.01354 -0.18600
C 	C 	0.73161 0.34153 0.99461 0.21300
C 	C 	0.69210 0.40390 0.06946 -0.23000
C 	C 	0.59334 0.45386 0.03480 -0.02800
C 	C 	0.60535 0.55759 0.02978 0.21800
C 	C 	0.51492 0.60210 0.99605 0.21500
C 	C 	0.84625 0.87091 0.59963 0.13300
C 	C 	0.99561 0.98327 0.61411 0.12800
C 	C 	0.86768 0.77998 0.53945 -0.21400
C 	C 	0.02230 0.89658 0.55451 -0.20800
C 	C 	0.95758 0.79178 0.51602 0.20900
C 	C 	0.98305 0.69535 0.44909 -0.18000
C 	C 	0.99038 0.59462 0.47488 -0.05100
C 	C 	0.08257 0.59017 0.54393 0.23100
C 	C 	0.09269 0.49949 0.56878 0.23600
C 	C 	0.78063 0.29809 0.65800 0.12200
C 	C 	0.70948 0.11962 0.55439 0.11400
C 	C 	0.72572 0.34070 0.59373 -0.21200
C 	C 	0.65054 0.15544 0.48646 -0.20900
C 	C 	0.65847 0.26839 0.50539 0.23200
C 	C 	0.59610 0.30790 0.43054 -0.24300
C 	C 	0.54614 0.40666 0.46520 -0.02500
C 	C 	0.44241 0.39465 0.47022 0.21800
C 	C 	0.39790 0.48508 0.50395 0.21400
C 	C 	0.12909 0.15375 0.90037 0.12400
C 	C 	0.01673 0.00439 0.88589 0.10700
C 	C 	0.22002 0.13232 0.96055 -0.19900
C 	C 	0.10342 0.97770 0.94549 -0.17800
C 	C 	0.20822 0.04242 0.98398 0.18200
C 	C 	0.30465 0.01695 0.05091 -0.15400
C 	C 	0.40538 0.00962 0.02512 -0.05700
C 	C 	0.40983 0.91743 0.95607 0.23400
C 	C 	0.50051 0.90731 0.93122 0.23800
N 	N 	0.18923 0.77441 0.13988 -0.26700
N 	N 	0.09116 0.02804 0.36214 -0.26500
N 	N 	0.22559 0.81077 0.36012 -0.27100
N 	N 	0.97196 0.90884 0.13786 -0.26000
N 	N 	0.81077 0.22559 0.86012 -0.26700
N 	N 	0.90884 0.97196 0.63786 -0.26500
N 	N 	0.77441 0.18923 0.63988 -0.27100
N 	N 	0.02804 0.09116 0.86214 -0.26000
F 	F 	0.29202 0.38314 0.94120 -0.42200
F 	F 	0.46757 0.29687 0.00723 -0.39100
F 	F 	0.83324 0.32020 0.40940 -0.39700
F 	F 	0.81398 0.49534 0.36202 -0.37800
F 	F 	0.61686 0.70798 0.55880 -0.42200
F 	F 	0.70313 0.53243 0.49277 -0.39200
F 	F 	0.67980 0.16676 0.09060 -0.39600
F 	F 	0.50466 0.18602 0.13798 -0.37800
F 	F 	0.70798 0.61686 0.05880 -0.42200
F 	F 	0.53243 0.70313 0.99277 -0.39100
F 	F 	0.16676 0.67980 0.59060 -0.39700
F 	F 	0.18602 0.50466 0.63798 -0.37800
F 	F 	0.38314 0.29202 0.44120 -0.42200
F 	F 	0.29687 0.46757 0.50723 -0.39200
F 	F 	0.32020 0.83324 0.90940 -0.39600
F 	F 	0.49534 0.81398 0.86202 -0.37800
