data_crystal

_cell_length_a 13.82100
_cell_length_b 32.91000
_cell_length_c 14.90300
_cell_angle_alpha 90.00000
_cell_angle_beta  112.93900
_cell_angle_gamma 90.00000

_symmetry_space_group_name_	'P 1'
_symmetry_space_group_name_H-M	'P 1'

loop_
_symmetry_equiv_pos_as_xyz
  x,y,z

loop_
_atom_site_label
_atom_site_type_symbol
_atom_site_fract_x
_atom_site_fract_y
_atom_site_fract_z
_atom_site_charge
C 	C 	0.13490 0.88684 0.36350 0.07200
H 	H 	0.17120 0.88130 0.42940 -0.04800
C 	C 	0.12540 0.85622 0.29820 -0.14200
H 	H 	0.15430 0.83080 0.32010 0.06600
C 	C 	0.07240 0.86341 0.19930 0.05700
C 	C 	0.02950 0.90152 0.17220 -0.13300
H 	H 	0.99170 0.90760 0.10680 0.15500
C 	C 	0.04310 0.93065 0.24310 0.09300
H 	H 	0.01430 0.95630 0.22320 0.04000
C 	C 	0.06550 0.83124 0.12570 0.10500
C 	C 	0.15540 0.80887 0.13850 -0.16600
H 	H 	0.21640 0.81350 0.19330 0.09400
C 	C 	0.15570 0.77969 0.07090 0.10300
C 	C 	0.06200 0.77276 0.98990 -0.24100
H 	H 	0.05980 0.75340 0.94380 0.12000
C 	C 	0.97310 0.79472 0.97860 0.26400
C 	C 	0.97250 0.82440 0.04390 -0.23900
H 	H 	0.91220 0.83940 0.03390 0.13800
C 	C 	0.25490 0.75747 0.08420 0.03600
C 	C 	0.33900 0.75516 0.17380 -0.12200
H 	H 	0.33280 0.76620 0.22880 0.08000
C 	C 	0.43200 0.73650 0.18190 0.07600
H 	H 	0.48680 0.73560 0.24300 -0.02900
C 	C 	0.36540 0.72108 0.02100 0.06400
H 	H 	0.37340 0.70910 0.96770 -0.02400
C 	C 	0.26890 0.73923 0.00640 -0.12000
H 	H 	0.21460 0.73900 0.94500 0.06600
C 	C 	0.81440 0.81094 0.83790 0.26600
C 	C 	0.85110 0.84570 0.81020 -0.24000
H 	H 	0.92240 0.85190 0.83700 0.12900
C 	C 	0.78010 0.87160 0.74120 0.13100
C 	C 	0.67200 0.86200 0.70400 -0.16600
H 	H 	0.62430 0.87950 0.65940 0.09100
C 	C 	0.63540 0.82719 0.73250 0.09900
C 	C 	0.70750 0.80063 0.79980 -0.22700
H 	H 	0.68470 0.77670 0.81870 0.11700
C 	C 	0.81560 0.90874 0.70630 0.04800
C 	C 	0.91780 0.91413 0.71270 -0.09800
H 	H 	0.96860 0.89470 0.74400 0.05900
C 	C 	0.94480 0.94824 0.67290 0.06000
H 	H 	0.01390 0.95100 0.67840 -0.02300
C 	C 	0.77670 0.97312 0.62280 0.06000
H 	H 	0.72790 0.99330 0.59270 0.00900
C 	C 	0.51970 0.81936 0.69670 0.03500
C 	C 	0.47390 0.78186 0.66440 -0.12300
H 	H 	0.51490 0.75980 0.66220 0.07800
C 	C 	0.36540 0.77755 0.63510 0.06700
H 	H 	0.33590 0.75230 0.61230 0.00300
C 	C 	0.34630 0.84365 0.66770 0.05700
H 	H 	0.30380 0.86530 0.66960 -0.02800
C 	C 	0.45260 0.85079 0.69580 -0.12300
H 	H 	0.47920 0.87680 0.71420 0.07500
C 	C 	0.28060 0.95198 0.62850 0.37400
C 	C 	0.38400 0.95183 0.71710 -0.20200
C 	C 	0.47330 0.96813 0.70980 0.19400
H 	H 	0.46950 0.97820 0.65030 -0.01400
C 	C 	0.56900 0.96963 0.79080 -0.30500
H 	H 	0.62750 0.98140 0.78510 0.21200
C 	C 	0.57700 0.95357 0.87940 0.38900
C 	C 	0.48740 0.93626 0.88540 -0.28800
H 	H 	0.49190 0.92470 0.94390 0.20100
C 	C 	0.39180 0.93583 0.80600 0.21500
H 	H 	0.33280 0.92480 0.81240 0.00100
C 	C 	0.67980 0.95451 0.97360 -0.51600
C 	C 	0.66680 0.98915 0.03820 0.97500
C 	C 	0.77910 0.96447 0.95260 0.98200
C 	C 	0.69780 0.91290 0.02500 0.39300
C 	C 	0.72880 0.90828 0.12570 -0.32400
H 	H 	0.74770 0.93090 0.16620 0.20300
C 	C 	0.73140 0.86989 0.16530 0.21200
H 	H 	0.75200 0.86700 0.23230 -0.03600
C 	C 	0.70370 0.83585 0.10620 -0.23500
C 	C 	0.68000 0.84023 0.00750 0.22100
H 	H 	0.66600 0.81730 0.96790 -0.03500
C 	C 	0.67690 0.87795 0.96730 -0.34700
H 	H 	0.66070 0.88030 0.90080 0.18100
C 	C 	0.69300 0.79515 0.14810 0.39200
Cd	Cd	0.10376 0.96889 0.46706 1.14100
Cd	Cd	0.62151 0.70067 0.12565 1.14700
F 	F 	0.63400 0.02344 0.98730 -0.46000
F 	F 	0.75610 0.99828 0.11460 -0.49300
F 	F 	0.59500 0.97931 0.07410 -0.48700
F 	F 	0.77930 0.00179 0.91890 -0.47300
F 	F 	0.86770 0.96111 0.03340 -0.47800
F 	F 	0.78840 0.93854 0.88790 -0.52900
N 	N 	0.09510 0.92419 0.33820 -0.25200
N 	N 	0.44710 0.71985 0.10720 -0.25300
N 	N 	0.87560 0.97733 0.62690 -0.25100
N 	N 	0.30090 0.80760 0.63800 -0.24600
O 	O 	0.28070 0.96710 0.55180 -0.43500
O 	O 	0.19990 0.93861 0.63490 -0.42900
O 	O 	0.64050 0.76810 0.08890 -0.43900
O 	O 	0.73680 0.79085 0.23770 -0.32300
O 	O 	0.87970 0.78244 0.90130 -0.30000
C 	C 	0.74580 0.94047 0.66100 -0.08400
H 	H 	0.67710 0.93920 0.65700 0.07600
C 	C 	0.36510 0.38684 0.13650 0.07200
H 	H 	0.32880 0.38130 0.07060 -0.04700
C 	C 	0.37460 0.35622 0.20180 -0.13700
H 	H 	0.34570 0.33080 0.17990 0.06600
C 	C 	0.42760 0.36341 0.30070 0.05300
C 	C 	0.47050 0.40152 0.32780 -0.12400
H 	H 	0.50830 0.40760 0.39320 0.15000
C 	C 	0.45690 0.43065 0.25690 0.08900
H 	H 	0.48570 0.45630 0.27680 0.04200
C 	C 	0.43450 0.33124 0.37430 0.11200
C 	C 	0.34460 0.30887 0.36150 -0.17100
H 	H 	0.28360 0.31350 0.30670 0.09600
C 	C 	0.34430 0.27969 0.42910 0.10800
C 	C 	0.43800 0.27276 0.51010 -0.24600
H 	H 	0.44020 0.25340 0.55620 0.12100
C 	C 	0.52690 0.29472 0.52140 0.26900
C 	C 	0.52750 0.32440 0.45610 -0.24900
H 	H 	0.58780 0.33940 0.46610 0.14000
C 	C 	0.24510 0.25747 0.41580 0.03400
C 	C 	0.16100 0.25516 0.32620 -0.12000
H 	H 	0.16720 0.26620 0.27120 0.07900
C 	C 	0.06800 0.23650 0.31810 0.07500
H 	H 	0.01320 0.23560 0.25700 -0.02800
C 	C 	0.13460 0.22108 0.47900 0.06300
H 	H 	0.12660 0.20910 0.53230 -0.02300
C 	C 	0.23110 0.23923 0.49360 -0.11700
H 	H 	0.28540 0.23900 0.55500 0.06500
C 	C 	0.68560 0.31094 0.66210 0.26800
C 	C 	0.64890 0.34570 0.68980 -0.24100
H 	H 	0.57760 0.35190 0.66300 0.13000
C 	C 	0.71990 0.37160 0.75880 0.13300
C 	C 	0.82800 0.36200 0.79600 -0.16900
H 	H 	0.87570 0.37950 0.84060 0.09200
C 	C 	0.86460 0.32719 0.76750 0.10300
C 	C 	0.79250 0.30063 0.70020 -0.23000
H 	H 	0.81530 0.27670 0.68130 0.11700
C 	C 	0.68440 0.40874 0.79370 0.04700
C 	C 	0.58220 0.41413 0.78730 -0.09700
H 	H 	0.53140 0.39470 0.75600 0.05800
C 	C 	0.55520 0.44824 0.82710 0.05900
H 	H 	0.48610 0.45100 0.82160 -0.02300
C 	C 	0.72330 0.47312 0.87720 0.06000
H 	H 	0.77210 0.49330 0.90730 0.00900
C 	C 	0.98030 0.31936 0.80330 0.02500
C 	C 	0.02610 0.28186 0.83560 -0.11100
H 	H 	0.98510 0.25980 0.83780 0.07200
C 	C 	0.13460 0.27755 0.86490 0.06100
H 	H 	0.16410 0.25230 0.88770 0.00500
C 	C 	0.15370 0.34365 0.83230 0.05300
H 	H 	0.19620 0.36530 0.83040 -0.02700
C 	C 	0.04740 0.35079 0.80420 -0.11500
H 	H 	0.02080 0.37680 0.78580 0.07300
C 	C 	0.21940 0.45198 0.87150 0.37400
C 	C 	0.11600 0.45183 0.78290 -0.20100
C 	C 	0.02670 0.46813 0.79020 0.19500
H 	H 	0.03050 0.47820 0.84970 -0.01400
C 	C 	0.93100 0.46963 0.70920 -0.30500
H 	H 	0.87250 0.48140 0.71490 0.21200
C 	C 	0.92300 0.45357 0.62060 0.38800
C 	C 	0.01260 0.43626 0.61460 -0.28600
H 	H 	0.00810 0.42470 0.55610 0.20100
C 	C 	0.10820 0.43583 0.69400 0.21400
H 	H 	0.16720 0.42480 0.68760 0.00200
C 	C 	0.82020 0.45451 0.52640 -0.51300
C 	C 	0.83320 0.48915 0.46180 0.97300
C 	C 	0.72090 0.46447 0.54740 0.98300
C 	C 	0.80220 0.41290 0.47500 0.38800
C 	C 	0.77120 0.40828 0.37430 -0.32000
H 	H 	0.75230 0.43090 0.33380 0.20100
C 	C 	0.76860 0.36989 0.33470 0.20800
H 	H 	0.74800 0.36700 0.26770 -0.03500
C 	C 	0.79630 0.33585 0.39380 -0.23200
C 	C 	0.82000 0.34023 0.49250 0.21400
H 	H 	0.83400 0.31730 0.53210 -0.03200
C 	C 	0.82310 0.37795 0.53270 -0.34000
H 	H 	0.83930 0.38030 0.59920 0.17900
C 	C 	0.80700 0.29515 0.35190 0.39100
Cd	Cd	0.39624 0.46889 0.03294 1.14100
Cd	Cd	0.87849 0.20067 0.37435 1.14600
F 	F 	0.86600 0.52344 0.51270 -0.45900
F 	F 	0.74390 0.49828 0.38540 -0.49300
F 	F 	0.90500 0.47931 0.42590 -0.48700
F 	F 	0.72070 0.50179 0.58110 -0.47300
F 	F 	0.63230 0.46111 0.46660 -0.47900
F 	F 	0.71160 0.43854 0.61210 -0.52900
N 	N 	0.40490 0.42419 0.16180 -0.25100
N 	N 	0.05290 0.21985 0.39280 -0.25300
N 	N 	0.62440 0.47733 0.87310 -0.25100
N 	N 	0.19910 0.30760 0.86200 -0.24400
O 	O 	0.21930 0.46710 0.94820 -0.43500
O 	O 	0.30010 0.43861 0.86510 -0.42900
O 	O 	0.85950 0.26810 0.41110 -0.43900
O 	O 	0.76320 0.29085 0.26230 -0.32300
O 	O 	0.62030 0.28244 0.59870 -0.30100
C 	C 	0.75420 0.44047 0.83900 -0.08400
H 	H 	0.82290 0.43920 0.84300 0.07500
C 	C 	0.86510 0.11316 0.63650 0.07300
H 	H 	0.82880 0.11870 0.57060 -0.04700
C 	C 	0.87460 0.14378 0.70180 -0.14100
H 	H 	0.84570 0.16920 0.67990 0.06700
C 	C 	0.92760 0.13659 0.80070 0.05800
C 	C 	0.97050 0.09848 0.82780 -0.13200
H 	H 	0.00830 0.09240 0.89320 0.15500
C 	C 	0.95690 0.06935 0.75690 0.09300
H 	H 	0.98570 0.04370 0.77680 0.04000
C 	C 	0.93450 0.16876 0.87430 0.10500
C 	C 	0.84460 0.19113 0.86150 -0.16600
H 	H 	0.78360 0.18650 0.80670 0.09400
C 	C 	0.84430 0.22031 0.92910 0.10300
C 	C 	0.93800 0.22724 0.01010 -0.24100
H 	H 	0.94020 0.24660 0.05620 0.12000
C 	C 	0.02690 0.20528 0.02140 0.26400
C 	C 	0.02750 0.17560 0.95610 -0.23900
H 	H 	0.08780 0.16060 0.96610 0.13800
C 	C 	0.74510 0.24253 0.91580 0.03600
C 	C 	0.66100 0.24484 0.82620 -0.12200
H 	H 	0.66720 0.23380 0.77120 0.08000
C 	C 	0.56800 0.26350 0.81810 0.07600
H 	H 	0.51320 0.26440 0.75700 -0.02900
C 	C 	0.63460 0.27892 0.97900 0.06400
H 	H 	0.62660 0.29090 0.03230 -0.02400
C 	C 	0.73110 0.26077 0.99360 -0.12000
H 	H 	0.78540 0.26100 0.05500 0.06600
C 	C 	0.18560 0.18906 0.16210 0.26600
C 	C 	0.14890 0.15430 0.18980 -0.24000
H 	H 	0.07760 0.14810 0.16300 0.12900
C 	C 	0.21990 0.12840 0.25880 0.13100
C 	C 	0.32800 0.13800 0.29600 -0.16600
H 	H 	0.37570 0.12050 0.34060 0.09100
C 	C 	0.36460 0.17281 0.26750 0.09900
C 	C 	0.29250 0.19937 0.20020 -0.22700
H 	H 	0.31530 0.22330 0.18130 0.11700
C 	C 	0.18440 0.09126 0.29370 0.04800
C 	C 	0.08220 0.08587 0.28730 -0.09800
H 	H 	0.03140 0.10530 0.25600 0.05900
C 	C 	0.05520 0.05176 0.32710 0.06000
H 	H 	0.98610 0.04900 0.32160 -0.02300
C 	C 	0.22330 0.02688 0.37720 0.06000
H 	H 	0.27210 0.00670 0.40730 0.00900
C 	C 	0.48030 0.18064 0.30330 0.03500
C 	C 	0.52610 0.21814 0.33560 -0.12300
H 	H 	0.48510 0.24020 0.33780 0.07800
C 	C 	0.63460 0.22245 0.36490 0.06700
H 	H 	0.66410 0.24770 0.38770 0.00300
C 	C 	0.65370 0.15635 0.33230 0.05700
H 	H 	0.69620 0.13470 0.33040 -0.02800
C 	C 	0.54740 0.14921 0.30420 -0.12300
H 	H 	0.52080 0.12320 0.28580 0.07500
C 	C 	0.71940 0.04802 0.37150 0.37400
C 	C 	0.61600 0.04817 0.28290 -0.20200
C 	C 	0.52670 0.03187 0.29020 0.19400
H 	H 	0.53050 0.02180 0.34970 -0.01400
C 	C 	0.43100 0.03037 0.20920 -0.30500
H 	H 	0.37250 0.01860 0.21490 0.21200
C 	C 	0.42300 0.04643 0.12060 0.38900
C 	C 	0.51260 0.06374 0.11460 -0.28800
H 	H 	0.50810 0.07530 0.05610 0.20100
C 	C 	0.60820 0.06417 0.19400 0.21500
H 	H 	0.66720 0.07520 0.18760 0.00100
C 	C 	0.32020 0.04549 0.02640 -0.51600
C 	C 	0.33320 0.01085 0.96180 0.97500
C 	C 	0.22090 0.03553 0.04740 0.98200
C 	C 	0.30220 0.08710 0.97500 0.39300
C 	C 	0.27120 0.09172 0.87430 -0.32400
H 	H 	0.25230 0.06910 0.83380 0.20300
C 	C 	0.26860 0.13011 0.83470 0.21200
H 	H 	0.24800 0.13300 0.76770 -0.03600
C 	C 	0.29630 0.16415 0.89380 -0.23500
C 	C 	0.32000 0.15977 0.99250 0.22100
H 	H 	0.33400 0.18270 0.03210 -0.03500
C 	C 	0.32310 0.12205 0.03270 -0.34700
H 	H 	0.33930 0.11970 0.09920 0.18100
C 	C 	0.30700 0.20485 0.85190 0.39200
Cd	Cd	0.89624 0.03111 0.53294 1.14100
Cd	Cd	0.37849 0.29933 0.87435 1.14700
F 	F 	0.36600 0.97656 0.01270 -0.46000
F 	F 	0.24390 0.00172 0.88540 -0.49300
F 	F 	0.40500 0.02069 0.92590 -0.48700
F 	F 	0.22070 0.99821 0.08110 -0.47300
F 	F 	0.13230 0.03889 0.96660 -0.47800
F 	F 	0.21160 0.06146 0.11210 -0.52900
N 	N 	0.90490 0.07581 0.66180 -0.25200
N 	N 	0.55290 0.28015 0.89280 -0.25300
N 	N 	0.12440 0.02267 0.37310 -0.25100
N 	N 	0.69910 0.19240 0.36200 -0.24600
O 	O 	0.71930 0.03290 0.44820 -0.43500
O 	O 	0.80010 0.06139 0.36510 -0.42900
O 	O 	0.35950 0.23190 0.91110 -0.43900
O 	O 	0.26320 0.20915 0.76230 -0.32300
O 	O 	0.12030 0.21756 0.09870 -0.30000
C 	C 	0.25420 0.05953 0.33900 -0.08400
H 	H 	0.32290 0.06080 0.34300 0.07600
C 	C 	0.63490 0.61316 0.86350 0.07200
H 	H 	0.67120 0.61870 0.92940 -0.04700
C 	C 	0.62540 0.64378 0.79820 -0.13700
H 	H 	0.65430 0.66920 0.82010 0.06600
C 	C 	0.57240 0.63659 0.69930 0.05300
C 	C 	0.52950 0.59848 0.67220 -0.12400
H 	H 	0.49170 0.59240 0.60680 0.15000
C 	C 	0.54310 0.56935 0.74310 0.08900
H 	H 	0.51430 0.54370 0.72320 0.04200
C 	C 	0.56550 0.66876 0.62570 0.11200
C 	C 	0.65540 0.69113 0.63850 -0.17100
H 	H 	0.71640 0.68650 0.69330 0.09600
C 	C 	0.65570 0.72031 0.57090 0.10800
C 	C 	0.56200 0.72724 0.48990 -0.24600
H 	H 	0.55980 0.74660 0.44380 0.12100
C 	C 	0.47310 0.70528 0.47860 0.26900
C 	C 	0.47250 0.67560 0.54390 -0.24900
H 	H 	0.41220 0.66060 0.53390 0.14000
C 	C 	0.75490 0.74253 0.58420 0.03400
C 	C 	0.83900 0.74484 0.67380 -0.12000
H 	H 	0.83280 0.73380 0.72880 0.07900
C 	C 	0.93200 0.76350 0.68190 0.07500
H 	H 	0.98680 0.76440 0.74300 -0.02800
C 	C 	0.86540 0.77892 0.52100 0.06300
H 	H 	0.87340 0.79090 0.46770 -0.02300
C 	C 	0.76890 0.76077 0.50640 -0.11700
H 	H 	0.71460 0.76100 0.44500 0.06500
C 	C 	0.31440 0.68906 0.33790 0.26800
C 	C 	0.35110 0.65430 0.31020 -0.24100
H 	H 	0.42240 0.64810 0.33700 0.13000
C 	C 	0.28010 0.62840 0.24120 0.13300
C 	C 	0.17200 0.63800 0.20400 -0.16900
H 	H 	0.12430 0.62050 0.15940 0.09200
C 	C 	0.13540 0.67281 0.23250 0.10300
C 	C 	0.20750 0.69937 0.29980 -0.23000
H 	H 	0.18470 0.72330 0.31870 0.11700
C 	C 	0.31560 0.59126 0.20630 0.04700
C 	C 	0.41780 0.58587 0.21270 -0.09700
H 	H 	0.46860 0.60530 0.24400 0.05800
C 	C 	0.44480 0.55176 0.17290 0.05900
H 	H 	0.51390 0.54900 0.17840 -0.02300
C 	C 	0.27670 0.52688 0.12280 0.06000
H 	H 	0.22790 0.50670 0.09270 0.00900
C 	C 	0.01970 0.68064 0.19670 0.02500
C 	C 	0.97390 0.71814 0.16440 -0.11100
H 	H 	0.01490 0.74020 0.16220 0.07200
C 	C 	0.86540 0.72245 0.13510 0.06100
H 	H 	0.83590 0.74770 0.11230 0.00500
C 	C 	0.84630 0.65635 0.16770 0.05300
H 	H 	0.80380 0.63470 0.16960 -0.02700
C 	C 	0.95260 0.64921 0.19580 -0.11500
H 	H 	0.97920 0.62320 0.21420 0.07300
C 	C 	0.78060 0.54802 0.12850 0.37400
C 	C 	0.88400 0.54817 0.21710 -0.20100
C 	C 	0.97330 0.53187 0.20980 0.19500
H 	H 	0.96950 0.52180 0.15030 -0.01400
C 	C 	0.06900 0.53037 0.29080 -0.30500
H 	H 	0.12750 0.51860 0.28510 0.21200
C 	C 	0.07700 0.54643 0.37940 0.38800
C 	C 	0.98740 0.56374 0.38540 -0.28600
H 	H 	0.99190 0.57530 0.44390 0.20100
C 	C 	0.89180 0.56417 0.30600 0.21400
H 	H 	0.83280 0.57520 0.31240 0.00200
C 	C 	0.17980 0.54549 0.47360 -0.51300
C 	C 	0.16680 0.51085 0.53820 0.97300
C 	C 	0.27910 0.53553 0.45260 0.98300
C 	C 	0.19780 0.58710 0.52500 0.38800
C 	C 	0.22880 0.59172 0.62570 -0.32000
H 	H 	0.24770 0.56910 0.66620 0.20100
C 	C 	0.23140 0.63011 0.66530 0.20800
H 	H 	0.25200 0.63300 0.73230 -0.03500
C 	C 	0.20370 0.66415 0.60620 -0.23200
C 	C 	0.18000 0.65977 0.50750 0.21400
H 	H 	0.16600 0.68270 0.46790 -0.03200
C 	C 	0.17690 0.62205 0.46730 -0.34000
H 	H 	0.16070 0.61970 0.40080 0.17900
C 	C 	0.19300 0.70485 0.64810 0.39100
Cd	Cd	0.60376 0.53111 0.96706 1.14100
Cd	Cd	0.12151 0.79933 0.62565 1.14600
F 	F 	0.13400 0.47656 0.48730 -0.45900
F 	F 	0.25610 0.50172 0.61460 -0.49300
F 	F 	0.09500 0.52069 0.57410 -0.48700
F 	F 	0.27930 0.49821 0.41890 -0.47300
F 	F 	0.36770 0.53889 0.53340 -0.47900
F 	F 	0.28840 0.56146 0.38790 -0.52900
N 	N 	0.59510 0.57581 0.83820 -0.25100
N 	N 	0.94710 0.78015 0.60720 -0.25300
N 	N 	0.37560 0.52267 0.12690 -0.25100
N 	N 	0.80090 0.69240 0.13800 -0.24400
O 	O 	0.78070 0.53290 0.05180 -0.43500
O 	O 	0.69990 0.56139 0.13490 -0.42900
O 	O 	0.14050 0.73190 0.58890 -0.43900
O 	O 	0.23680 0.70915 0.73770 -0.32300
O 	O 	0.37970 0.71756 0.40130 -0.30100
C 	C 	0.24580 0.55953 0.16100 -0.08400
H 	H 	0.17710 0.56080 0.15700 0.07500
