data_crystal

_cell_length_a 7.76620
_cell_length_b 13.78090
_cell_length_c 18.96130
_cell_angle_alpha 109.65700
_cell_angle_beta  92.87400
_cell_angle_gamma 98.72600

_symmetry_space_group_name_	'P 1'
_symmetry_space_group_name_H-M	'P 1'

loop_
_symmetry_equiv_pos_as_xyz
  x,y,z

loop_
_atom_site_label
_atom_site_type_symbol
_atom_site_fract_x
_atom_site_fract_y
_atom_site_fract_z
_atom_site_charge
Ag	Ag	0.77240 0.45230 0.60821 0.13900
Ag	Ag	0.04348 0.73424 0.67153 0.33700
Ag	Ag	0.11773 0.56587 0.71403 0.43500
Ag	Ag	0.36991 0.66439 0.62256 0.34900
Ag	Ag	0.50322 0.54644 0.71781 0.42000
Ag	Ag	0.35288 0.35290 0.62004 0.44800
Ag	Ag	0.10332 0.00213 0.81676 0.45300
C 	C 	0.04190 0.56850 0.60640 -0.44300
C 	C 	0.00990 0.52320 0.53830 -0.05800
C 	C 	0.47270 0.48900 0.59710 -0.43000
C 	C 	0.49180 0.49880 0.53510 -0.08300
C 	C 	0.31490 0.58490 0.86160 0.07400
C 	C 	0.30800 0.58610 0.94360 1.16000
C 	C 	0.86980 0.38560 0.74050 0.07800
C 	C 	0.84400 0.32990 0.79750 1.06000
C 	C 	0.04630 0.91910 0.94910 -0.19700
H 	H 	0.07750 0.86050 0.91420 0.06600
C 	C 	0.98180 0.08250 0.97900 0.37500
C 	C 	0.33800 0.26550 0.75040 -0.22100
H 	H 	0.39720 0.33330 0.77670 0.15900
C 	C 	0.29640 0.20070 0.78960 0.49400
C 	C 	0.18230 0.07220 0.67930 0.05000
H 	H 	0.12650 0.00400 0.65210 -0.05700
C 	C 	0.22690 0.13880 0.64140 -0.03900
H 	H 	0.20490 0.11420 0.58920 -0.00700
C 	C 	0.34600 0.23540 0.87260 -1.25900
H 	H 	0.42960 0.29950 0.88860 0.55800
H 	H 	0.39610 0.18250 0.88420 0.42400
H 	H 	0.24320 0.24670 0.89830 0.46300
F 	F 	0.20400 0.64100 0.97990 -0.29900
F 	F 	0.47500 0.63500 0.97930 -0.29300
F 	F 	0.29900 0.49050 0.94530 -0.34800
F 	F 	0.76600 0.38040 0.85130 -0.48100
F 	F 	0.97100 0.31200 0.82400 -0.57900
F 	F 	0.74000 0.24050 0.76700 -0.56700
N 	N 	0.21520 0.10050 0.75320 -0.27300
N 	N 	0.30040 0.23740 0.67710 -0.11800
N 	N 	0.03060 0.00040 0.92860 -0.22700
O 	O 	0.18580 0.60980 0.83660 -0.25300
O 	O 	0.44240 0.55550 0.83270 -0.22500
O 	O 	0.74720 0.40900 0.71450 -0.31000
O 	O 	0.02800 0.39930 0.72630 -0.25800
F 	F 	0.43300 0.55500 0.97100 -0.24600
F 	F 	0.34300 0.68400 0.99020 -0.37200
F 	F 	0.14800 0.55970 0.96030 -0.28100
C 	C 	0.93800 0.16130 0.94910 -1.12700
H 	H 	0.92900 0.13380 0.89510 0.36100
H 	H 	0.02800 0.22260 0.96760 0.42100
H 	H 	0.82810 0.17960 0.96490 0.43900
Ag	Ag	0.77420 0.48530 0.61920 0.28700
Ag	Ag	0.22760 0.54770 0.39179 0.14000
Ag	Ag	0.95652 0.26576 0.32847 0.33800
Ag	Ag	0.88227 0.43413 0.28597 0.43500
Ag	Ag	0.63009 0.33561 0.37744 0.34900
Ag	Ag	0.49678 0.45356 0.28219 0.42000
Ag	Ag	0.64712 0.64710 0.37996 0.44800
Ag	Ag	0.89668 0.99787 0.18324 0.45300
C 	C 	0.95810 0.43150 0.39360 -0.44300
C 	C 	0.99010 0.47680 0.46170 -0.05800
C 	C 	0.52730 0.51100 0.40290 -0.43000
C 	C 	0.50820 0.50120 0.46490 -0.08300
C 	C 	0.68510 0.41510 0.13840 0.07400
C 	C 	0.69200 0.41390 0.05640 1.16000
C 	C 	0.13020 0.61440 0.25950 0.07800
C 	C 	0.15600 0.67010 0.20250 1.06000
C 	C 	0.95370 0.08090 0.05090 -0.19700
H 	H 	0.92250 0.13950 0.08580 0.06600
C 	C 	0.01820 0.91750 0.02100 0.37500
C 	C 	0.66200 0.73450 0.24960 -0.22100
H 	H 	0.60280 0.66670 0.22330 0.15900
C 	C 	0.70360 0.79930 0.21040 0.49400
C 	C 	0.81770 0.92780 0.32070 0.05000
H 	H 	0.87350 0.99600 0.34790 -0.05700
C 	C 	0.77310 0.86120 0.35860 -0.03900
H 	H 	0.79510 0.88580 0.41080 -0.00700
C 	C 	0.65400 0.76460 0.12740 -1.25900
H 	H 	0.57040 0.70050 0.11140 0.55800
H 	H 	0.60390 0.81750 0.11580 0.42400
H 	H 	0.75680 0.75330 0.10170 0.46300
F 	F 	0.79600 0.35900 0.02010 -0.29900
F 	F 	0.52500 0.36500 0.02070 -0.29300
F 	F 	0.70100 0.50950 0.05470 -0.34800
F 	F 	0.23400 0.61960 0.14870 -0.48100
F 	F 	0.02900 0.68800 0.17600 -0.57900
F 	F 	0.26000 0.75950 0.23300 -0.56700
N 	N 	0.78480 0.89950 0.24680 -0.27300
N 	N 	0.69960 0.76260 0.32290 -0.11800
N 	N 	0.96940 0.99960 0.07140 -0.22700
O 	O 	0.81420 0.39020 0.16340 -0.25300
O 	O 	0.55760 0.44450 0.16730 -0.22500
O 	O 	0.25280 0.59100 0.28550 -0.31000
O 	O 	0.97200 0.60070 0.27370 -0.25800
F 	F 	0.56700 0.44500 0.02900 -0.24600
F 	F 	0.65700 0.31600 0.00980 -0.37200
F 	F 	0.85200 0.44030 0.03970 -0.28100
C 	C 	0.06200 0.83870 0.05090 -1.12700
H 	H 	0.07100 0.86620 0.10490 0.36100
H 	H 	0.97200 0.77740 0.03240 0.42100
H 	H 	0.17190 0.82040 0.03510 0.43900
Ag	Ag	0.22580 0.51470 0.38080 0.28700
