data_crystal

_cell_length_a 16.50100
_cell_length_b 16.63300
_cell_length_c 17.20800
_cell_angle_alpha 90.00000
_cell_angle_beta  90.00000
_cell_angle_gamma 90.00000

_symmetry_space_group_name_	'P 1'
_symmetry_space_group_name_H-M	'P 1'

loop_
_symmetry_equiv_pos_as_xyz
  x,y,z

loop_
_atom_site_label
_atom_site_type_symbol
_atom_site_fract_x
_atom_site_fract_y
_atom_site_fract_z
_atom_site_charge
Mn	Mn	0.41419 0.91339 0.60102 1.14500
Mn	Mn	0.08581 0.08661 0.10102 1.14400
Mn	Mn	0.58581 0.41339 0.89898 1.14500
Mn	Mn	0.91419 0.58661 0.39898 1.14500
Mn	Mn	0.58581 0.08661 0.39898 1.14600
Mn	Mn	0.91419 0.91339 0.89898 1.14500
Mn	Mn	0.41419 0.58661 0.10102 1.14600
Mn	Mn	0.08581 0.41339 0.60102 1.14600
Re	Re	0.10233 0.96704 0.52777 0.34400
Re	Re	0.97663 0.89770 0.46611 0.33800
Re	Re	0.03716 0.02614 0.40250 0.33700
Re	Re	0.39767 0.03296 0.02777 0.33700
Re	Re	0.52337 0.10230 0.96611 0.34400
Re	Re	0.46284 0.97386 0.90250 0.33800
Re	Re	0.89767 0.46704 0.97223 0.33800
Re	Re	0.02337 0.39770 0.03389 0.33700
Re	Re	0.96284 0.52614 0.09750 0.34400
Re	Re	0.60233 0.53296 0.47223 0.34100
Re	Re	0.47663 0.60230 0.53389 0.34100
Re	Re	0.53716 0.47386 0.59750 0.34000
Re	Re	0.89767 0.03296 0.47223 0.34400
Re	Re	0.02337 0.10230 0.53389 0.33800
Re	Re	0.96284 0.97386 0.59750 0.33700
Re	Re	0.60233 0.96704 0.97223 0.33700
Re	Re	0.47663 0.89770 0.03389 0.34400
Re	Re	0.53716 0.02614 0.09750 0.33800
Re	Re	0.10233 0.53296 0.02777 0.33800
Re	Re	0.97663 0.60230 0.96611 0.33700
Re	Re	0.03716 0.47386 0.90250 0.34400
Re	Re	0.39767 0.46704 0.52777 0.34100
Re	Re	0.52337 0.39770 0.46611 0.34100
Re	Re	0.46284 0.52614 0.40250 0.34000
C 	C 	0.22030 0.92990 0.56040 -0.04700
C 	C 	0.94850 0.78020 0.42720 -0.04100
C 	C 	0.07590 0.05650 0.28890 -0.04600
C 	C 	0.27970 0.07010 0.06040 -0.04800
C 	C 	0.55150 0.21980 0.92720 -0.04000
C 	C 	0.42410 0.94350 0.78890 -0.04500
C 	C 	0.77970 0.42990 0.93960 -0.04700
C 	C 	0.05150 0.28020 0.07280 -0.04200
C 	C 	0.92410 0.55650 0.21110 -0.04400
C 	C 	0.72030 0.57010 0.43960 -0.04700
C 	C 	0.44850 0.71980 0.57280 -0.04100
C 	C 	0.57590 0.44350 0.71110 -0.04400
C 	C 	0.77970 0.07010 0.43960 -0.04700
C 	C 	0.05150 0.21980 0.57280 -0.04100
C 	C 	0.92410 0.94350 0.71110 -0.04600
C 	C 	0.72030 0.92990 0.93960 -0.04800
C 	C 	0.44850 0.78020 0.07280 -0.04000
C 	C 	0.57590 0.05650 0.21110 -0.04500
C 	C 	0.22030 0.57010 0.06040 -0.04700
C 	C 	0.94850 0.71980 0.92720 -0.04200
C 	C 	0.07590 0.44350 0.78890 -0.04400
C 	C 	0.27970 0.42990 0.56040 -0.04700
C 	C 	0.55150 0.28020 0.42720 -0.04100
C 	C 	0.42410 0.55650 0.28890 -0.04400
S 	S 	0.10779 0.89925 0.40400 -0.28900
S 	S 	0.03836 0.85118 0.58447 -0.29500
S 	S 	0.15005 0.08826 0.46679 -0.30000
S 	S 	0.08200 0.04042 0.64667 -0.29800
S 	S 	0.39221 0.10075 0.90400 -0.28900
S 	S 	0.46164 0.14882 0.08447 -0.29900
S 	S 	0.34995 0.91174 0.96679 -0.29900
S 	S 	0.41800 0.95958 0.14667 -0.29500
S 	S 	0.89221 0.39925 0.09600 -0.28900
S 	S 	0.96164 0.35118 0.91553 -0.29700
S 	S 	0.84995 0.58826 0.03321 -0.29600
S 	S 	0.91800 0.54042 0.85333 -0.29900
S 	S 	0.60779 0.60075 0.59600 -0.29200
S 	S 	0.53836 0.64882 0.41553 -0.29800
S 	S 	0.65005 0.41174 0.53321 -0.29900
S 	S 	0.58200 0.45958 0.35333 -0.29800
S 	S 	0.89221 0.10075 0.59600 -0.28900
S 	S 	0.96164 0.14882 0.41553 -0.29500
S 	S 	0.84995 0.91174 0.53321 -0.30000
S 	S 	0.91800 0.95958 0.35333 -0.29800
S 	S 	0.60779 0.89925 0.09600 -0.28900
S 	S 	0.53836 0.85118 0.91553 -0.29900
S 	S 	0.65005 0.08826 0.03321 -0.29900
S 	S 	0.58200 0.04042 0.85333 -0.29500
S 	S 	0.10779 0.60075 0.90400 -0.28900
S 	S 	0.03836 0.64882 0.08447 -0.29700
S 	S 	0.15005 0.41174 0.96679 -0.29600
S 	S 	0.08200 0.45958 0.14667 -0.29900
S 	S 	0.39221 0.39925 0.40400 -0.29200
S 	S 	0.46164 0.35118 0.58447 -0.29800
S 	S 	0.34995 0.58826 0.46679 -0.29900
S 	S 	0.41800 0.54042 0.64667 -0.29800
N 	N 	0.28490 0.91280 0.58100 -0.28400
N 	N 	0.93350 0.71670 0.40770 -0.28400
N 	N 	0.09360 0.07360 0.22690 -0.28100
N 	N 	0.21510 0.08720 0.08100 -0.28500
N 	N 	0.56650 0.28330 0.90770 -0.28300
N 	N 	0.40640 0.92640 0.72690 -0.28100
N 	N 	0.71510 0.41280 0.91900 -0.28400
N 	N 	0.06650 0.21670 0.09230 -0.28400
N 	N 	0.90640 0.57360 0.27310 -0.28100
N 	N 	0.78490 0.58720 0.41900 -0.28400
N 	N 	0.43350 0.78330 0.59230 -0.28400
N 	N 	0.59360 0.42640 0.77310 -0.28100
N 	N 	0.71510 0.08720 0.41900 -0.28400
N 	N 	0.06650 0.28330 0.59230 -0.28400
N 	N 	0.90640 0.92640 0.77310 -0.28100
N 	N 	0.78490 0.91280 0.91900 -0.28500
N 	N 	0.43350 0.71670 0.09230 -0.28300
N 	N 	0.59360 0.07360 0.27310 -0.28100
N 	N 	0.28490 0.58720 0.08100 -0.28400
N 	N 	0.93350 0.78330 0.90770 -0.28400
N 	N 	0.09360 0.42640 0.72690 -0.28100
N 	N 	0.21510 0.41280 0.58100 -0.28400
N 	N 	0.56650 0.21670 0.40770 -0.28400
N 	N 	0.40640 0.57360 0.22690 -0.28100
