data_crystal

_cell_length_a 12.88000
_cell_length_b 16.86100
_cell_length_c 17.32500
_cell_angle_alpha 75.74000
_cell_angle_beta  73.26000
_cell_angle_gamma 68.59000

_symmetry_space_group_name_	'P 1'
_symmetry_space_group_name_H-M	'P 1'

loop_
_symmetry_equiv_pos_as_xyz
  x,y,z

loop_
_atom_site_label
_atom_site_type_symbol
_atom_site_fract_x
_atom_site_fract_y
_atom_site_fract_z
_atom_site_charge
Zn	Zn	0.53051 0.68192 0.95001 1.20500
Zn	Zn	0.64905 0.55494 0.82225 1.20200
Zn	Zn	0.38429 0.62491 0.86133 1.21500
N 	N 	0.74640 0.61060 0.84550 -0.29100
N 	N 	0.70210 0.65570 0.90820 -0.28900
O 	O 	0.51390 0.59072 0.90819 -0.72400
O 	O 	0.57780 0.53550 0.08254 -0.37700
O 	O 	0.49340 0.67990 0.06800 -0.44000
O 	O 	0.43500 0.61650 0.74210 -0.49700
O 	O 	0.62450 0.58770 0.71100 -0.50900
O 	O 	0.42800 0.79650 0.91590 -0.50900
O 	O 	0.34080 0.75670 0.84500 -0.49600
O 	O 	0.71800 0.43070 0.82610 -0.45500
O 	O 	0.67230 0.40390 0.96368 -0.35400
C 	C 	0.53820 0.60520 0.11030 0.31900
C 	C 	0.53200 0.60720 0.60509 -0.13600
C 	C 	0.43080 0.62450 0.58112 0.05000
H 	H 	0.36010 0.63540 0.62010 0.02200
C 	C 	0.43290 0.62590 0.50014 -0.11200
H 	H 	0.36370 0.63770 0.48380 0.06500
C 	C 	0.53630 0.60990 0.44312 0.04900
C 	C 	0.63750 0.59270 0.46709 -0.11400
H 	H 	0.70810 0.58180 0.42810 0.06100
C 	C 	0.63540 0.59130 0.54808 0.05000
H 	H 	0.70450 0.57950 0.56450 0.02000
C 	C 	0.81700 0.29533 0.89237 -0.12300
C 	C 	0.86850 0.26620 0.81780 0.03700
H 	H 	0.84460 0.30010 0.76960 0.02700
C 	C 	0.95490 0.18730 0.81370 -0.10700
H 	H 	0.99000 0.16740 0.76270 0.06200
C 	C 	0.98980 0.13760 0.88417 0.03900
C 	C 	0.93830 0.16677 0.95874 -0.10600
H 	H 	0.96220 0.13280 0.00690 0.06700
C 	C 	0.85190 0.24560 0.96284 0.04200
H 	H 	0.81670 0.26560 0.01380 0.00600
C 	C 	0.00369 0.63200 0.87805 0.16800
C 	C 	0.06620 0.66900 0.80832 -0.18300
H 	H 	0.03390 0.69610 0.76190 0.08500
C 	C 	0.17590 0.66640 0.80656 0.07500
H 	H 	0.21860 0.69170 0.75890 -0.00200
N 	N 	0.22321 0.62678 0.87453 -0.25700
C 	C 	0.16070 0.58980 0.94425 0.08500
H 	H 	0.19300 0.56270 0.99070 -0.00600
C 	C 	0.05100 0.59240 0.94602 -0.19000
H 	H 	0.00830 0.56700 0.99370 0.08700
C 	C 	0.53920 0.60750 0.19574 -0.11500
C 	C 	0.62910 0.55132 0.23093 0.02100
H 	H 	0.69110 0.51200 0.20030 0.01700
C 	C 	0.62840 0.55280 0.31097 -0.09100
H 	H 	0.68990 0.51440 0.33500 0.05600
C 	C 	0.53770 0.61040 0.35581 0.03100
C 	C 	0.44770 0.66650 0.32061 -0.09600
H 	H 	0.38570 0.70590 0.35130 0.05900
C 	C 	0.44850 0.66510 0.24058 0.03000
H 	H 	0.38700 0.70350 0.21650 0.03400
C 	C 	0.17990 0.91803 0.83030 0.04300
H 	H 	0.18320 0.87850 0.79820 0.02500
C 	C 	0.09200 0.99620 0.83280 -0.11300
H 	H 	0.03520 0.01020 0.80240 0.06500
C 	C 	0.08720 0.05403 0.87980 0.04200
C 	C 	0.17030 0.03360 0.92420 -0.10500
H 	H 	0.16700 0.07310 0.95630 0.06000
C 	C 	0.25820 0.95540 0.92180 0.04100
H 	H 	0.31490 0.94140 0.95220 0.02600
C 	C 	0.26300 0.89759 0.87480 -0.13200
C 	C 	0.52890 0.60460 0.69250 0.40500
C 	C 	0.35190 0.80950 0.87850 0.40900
C 	C 	0.72950 0.38220 0.89610 0.33600
C 	C 	0.93540 0.54660 0.75760 -0.59900
H 	H 	0.88810 0.53010 0.73300 0.17100
H 	H 	0.97500 0.58340 0.71620 0.19100
H 	H 	0.99180 0.49460 0.77870 0.19200
C 	C 	0.85940 0.59600 0.82760 0.24700
C 	C 	0.88700 0.63150 0.87910 -0.24400
C 	C 	0.78130 0.66890 0.92990 0.26400
C 	C 	0.76270 0.71110 0.00270 -0.62600
H 	H 	0.68070 0.73130 0.02720 0.18800
H 	H 	0.80310 0.66910 0.04310 0.20400
H 	H 	0.79210 0.76020 0.98470 0.20000
Zn	Zn	0.46949 0.31808 0.04999 1.20600
Zn	Zn	0.35095 0.44506 0.17775 1.20300
Zn	Zn	0.61571 0.37509 0.13867 1.21600
N 	N 	0.25360 0.38940 0.15450 -0.29000
N 	N 	0.29790 0.34430 0.09180 -0.28800
O 	O 	0.48610 0.40928 0.09181 -0.72300
O 	O 	0.42220 0.46450 0.91746 -0.37700
O 	O 	0.50660 0.32010 0.93200 -0.44000
O 	O 	0.56500 0.38350 0.25790 -0.49700
O 	O 	0.37550 0.41230 0.28900 -0.50900
O 	O 	0.57200 0.20350 0.08410 -0.50900
O 	O 	0.65920 0.24330 0.15500 -0.49600
O 	O 	0.28200 0.56930 0.17390 -0.45500
O 	O 	0.32770 0.59610 0.03632 -0.35400
C 	C 	0.46180 0.39480 0.88970 0.31900
C 	C 	0.46800 0.39280 0.39491 -0.13600
C 	C 	0.56920 0.37550 0.41888 0.05000
H 	H 	0.63990 0.36460 0.37990 0.02200
C 	C 	0.56710 0.37410 0.49986 -0.11200
H 	H 	0.63630 0.36230 0.51620 0.06500
C 	C 	0.46370 0.39010 0.55688 0.04900
C 	C 	0.36250 0.40730 0.53291 -0.11400
H 	H 	0.29190 0.41820 0.57190 0.06100
C 	C 	0.36460 0.40870 0.45192 0.05000
H 	H 	0.29550 0.42050 0.43550 0.02000
C 	C 	0.18300 0.70467 0.10763 -0.12300
C 	C 	0.13150 0.73380 0.18220 0.03700
H 	H 	0.15540 0.69990 0.23040 0.02700
C 	C 	0.04510 0.81270 0.18630 -0.10700
H 	H 	0.01000 0.83260 0.23730 0.06200
C 	C 	0.01020 0.86240 0.11583 0.03900
C 	C 	0.06170 0.83323 0.04126 -0.10600
H 	H 	0.03780 0.86720 0.99310 0.06700
C 	C 	0.14810 0.75440 0.03716 0.04200
H 	H 	0.18330 0.73440 0.98620 0.00600
C 	C 	0.99631 0.36800 0.12195 0.16800
C 	C 	0.93380 0.33100 0.19168 -0.18300
H 	H 	0.96610 0.30390 0.23810 0.08500
C 	C 	0.82410 0.33360 0.19344 0.07500
H 	H 	0.78140 0.30830 0.24110 -0.00200
N 	N 	0.77679 0.37322 0.12547 -0.25700
C 	C 	0.83930 0.41020 0.05575 0.08500
H 	H 	0.80700 0.43730 0.00930 -0.00600
C 	C 	0.94900 0.40760 0.05398 -0.19000
H 	H 	0.99170 0.43300 0.00630 0.08700
C 	C 	0.46080 0.39250 0.80426 -0.11500
C 	C 	0.37090 0.44868 0.76907 0.02100
H 	H 	0.30890 0.48800 0.79970 0.01700
C 	C 	0.37160 0.44720 0.68903 -0.09100
H 	H 	0.31010 0.48560 0.66500 0.05600
C 	C 	0.46230 0.38960 0.64419 0.03100
C 	C 	0.55230 0.33350 0.67939 -0.09600
H 	H 	0.61430 0.29410 0.64870 0.05900
C 	C 	0.55150 0.33490 0.75942 0.03000
H 	H 	0.61300 0.29650 0.78350 0.03400
C 	C 	0.82010 0.08197 0.16970 0.04300
H 	H 	0.81680 0.12150 0.20180 0.02500
C 	C 	0.90800 0.00380 0.16720 -0.11300
H 	H 	0.96480 0.98980 0.19760 0.06500
C 	C 	0.91280 0.94597 0.12020 0.04200
C 	C 	0.82970 0.96640 0.07580 -0.10500
H 	H 	0.83300 0.92690 0.04370 0.06000
C 	C 	0.74180 0.04460 0.07820 0.04100
H 	H 	0.68510 0.05860 0.04780 0.02600
C 	C 	0.73700 0.10241 0.12520 -0.13200
C 	C 	0.47110 0.39540 0.30750 0.40500
C 	C 	0.64810 0.19050 0.12150 0.40900
C 	C 	0.27050 0.61780 0.10390 0.33600
C 	C 	0.06460 0.45340 0.24240 -0.59900
H 	H 	0.11190 0.46990 0.26700 0.17100
H 	H 	0.02500 0.41660 0.28380 0.19100
H 	H 	0.00820 0.50540 0.22130 0.19200
C 	C 	0.14060 0.40400 0.17240 0.24700
C 	C 	0.11300 0.36850 0.12090 -0.24400
C 	C 	0.21870 0.33110 0.07010 0.26400
C 	C 	0.23730 0.28890 0.99730 -0.62600
H 	H 	0.31930 0.26870 0.97280 0.18800
H 	H 	0.19690 0.33090 0.95690 0.20400
H 	H 	0.20790 0.23980 0.01530 0.20000
