data_crystal

_cell_length_a 12.21430
_cell_length_b 13.80510
_cell_length_c 16.52930
_cell_angle_alpha 90.00000
_cell_angle_beta  90.00000
_cell_angle_gamma 90.00000

_symmetry_space_group_name_	'P 1'
_symmetry_space_group_name_H-M	'P 1'

loop_
_symmetry_equiv_pos_as_xyz
  x,y,z

loop_
_atom_site_label
_atom_site_type_symbol
_atom_site_fract_x
_atom_site_fract_y
_atom_site_fract_z
_atom_site_charge
N 	N 	0.93090 0.09150 0.58960 -0.16200
N 	N 	0.86670 0.07250 0.65370 -0.10000
N 	N 	0.95480 0.18490 0.58740 -0.16400
C 	C 	0.85370 0.16040 0.68790 0.09800
N 	N 	0.90680 0.23010 0.64880 -0.09500
N 	N 	0.67230 0.22150 0.90090 -0.23900
C 	C 	0.79130 0.17870 0.76140 0.05100
C 	C 	0.75350 0.27250 0.77690 -0.11400
C 	C 	0.76790 0.10850 0.81830 -0.12200
C 	C 	0.69430 0.28990 0.84610 0.07600
H 	H 	0.76840 0.32360 0.73990 0.07800
H 	H 	0.79230 0.04380 0.81070 0.07000
C 	C 	0.70830 0.13340 0.88650 0.08000
H 	H 	0.66780 0.35360 0.85540 -0.00100
H 	H 	0.69250 0.08410 0.92490 -0.02400
N 	N 	0.31610 0.05410 0.48490 -0.04600
N 	N 	0.06910 0.90850 0.58960 -0.16000
N 	N 	0.13330 0.92750 0.65370 -0.08000
N 	N 	0.04520 0.81510 0.58740 -0.19400
C 	C 	0.14630 0.83960 0.68790 0.09700
N 	N 	0.09320 0.76990 0.64880 -0.11200
N 	N 	0.32770 0.77850 0.90090 -0.23800
C 	C 	0.20870 0.82130 0.76140 0.05300
C 	C 	0.24650 0.72750 0.77690 -0.11700
C 	C 	0.23210 0.89150 0.81830 -0.12200
C 	C 	0.30570 0.71010 0.84610 0.07500
H 	H 	0.23160 0.67640 0.73990 0.07100
H 	H 	0.20770 0.95620 0.81070 0.08900
C 	C 	0.29170 0.86660 0.88650 0.08400
H 	H 	0.33220 0.64640 0.85540 -0.00300
H 	H 	0.30750 0.91590 0.92490 -0.00800
N 	N 	0.68390 0.94590 0.48490 -0.02700
N 	N 	0.56910 0.59150 0.91040 -0.15500
N 	N 	0.63330 0.57250 0.84630 -0.08900
N 	N 	0.54520 0.68490 0.91260 -0.16500
C 	C 	0.64630 0.66040 0.81210 0.10200
N 	N 	0.59320 0.73010 0.85120 -0.09500
N 	N 	0.82770 0.72150 0.59910 -0.24500
C 	C 	0.70870 0.67870 0.73860 0.05700
C 	C 	0.74650 0.77250 0.72310 -0.11200
C 	C 	0.73210 0.60850 0.68170 -0.12400
C 	C 	0.80570 0.78990 0.65390 0.08300
H 	H 	0.73160 0.82360 0.76010 0.09100
H 	H 	0.70770 0.54380 0.68930 0.07800
C 	C 	0.79170 0.63340 0.61350 0.08600
H 	H 	0.83220 0.85360 0.64460 0.01200
H 	H 	0.80750 0.58410 0.57510 -0.02500
N 	N 	0.18390 0.55410 0.01510 -0.47800
N 	N 	0.43090 0.40850 0.91040 -0.15700
N 	N 	0.36670 0.42750 0.84630 -0.09300
N 	N 	0.45480 0.31510 0.91260 -0.17100
C 	C 	0.35370 0.33960 0.81210 0.09400
N 	N 	0.40680 0.26990 0.85120 -0.10600
N 	N 	0.17230 0.27850 0.59910 -0.25600
C 	C 	0.29130 0.32130 0.73860 0.04600
C 	C 	0.25350 0.22750 0.72310 -0.12100
C 	C 	0.26790 0.39150 0.68170 -0.12900
C 	C 	0.19430 0.21010 0.65390 0.06900
H 	H 	0.26840 0.17640 0.76010 0.06400
H 	H 	0.29230 0.45620 0.68930 0.07400
C 	C 	0.20830 0.36660 0.61350 0.07400
H 	H 	0.16780 0.14640 0.64460 -0.02000
H 	H 	0.19250 0.41590 0.57510 -0.03500
N 	N 	0.81610 0.44590 0.01510 -0.46600
N 	N 	0.06910 0.90850 0.41040 -0.16100
N 	N 	0.13330 0.92750 0.34630 -0.08100
N 	N 	0.04520 0.81510 0.41260 -0.19400
C 	C 	0.14630 0.83960 0.31210 0.09500
N 	N 	0.09320 0.76990 0.35120 -0.11200
N 	N 	0.32770 0.77850 0.09910 -0.25300
C 	C 	0.20870 0.82130 0.23860 0.05300
C 	C 	0.24650 0.72750 0.22310 -0.11700
C 	C 	0.23210 0.89150 0.18170 -0.12800
C 	C 	0.30570 0.71010 0.15390 0.07600
H 	H 	0.23160 0.67640 0.26010 0.07300
H 	H 	0.20770 0.95620 0.18930 0.08400
C 	C 	0.29170 0.86660 0.11350 0.08100
H 	H 	0.33220 0.64640 0.14460 0.00000
H 	H 	0.30750 0.91590 0.07510 -0.03300
N 	N 	0.68390 0.94590 0.51510 -0.02500
N 	N 	0.93090 0.09150 0.41040 -0.16100
N 	N 	0.86670 0.07250 0.34630 -0.09900
N 	N 	0.95480 0.18490 0.41260 -0.16300
C 	C 	0.85370 0.16040 0.31210 0.09800
N 	N 	0.90680 0.23010 0.35120 -0.09500
N 	N 	0.67230 0.22150 0.09910 -0.25500
C 	C 	0.79130 0.17870 0.23860 0.05000
C 	C 	0.75350 0.27250 0.22310 -0.11400
C 	C 	0.76790 0.10850 0.18170 -0.12900
C 	C 	0.69430 0.28990 0.15390 0.07800
H 	H 	0.76840 0.32360 0.26010 0.08000
H 	H 	0.79230 0.04380 0.18930 0.06500
C 	C 	0.70830 0.13340 0.11350 0.07700
H 	H 	0.66780 0.35360 0.14460 0.00300
H 	H 	0.69250 0.08410 0.07510 -0.04800
N 	N 	0.31610 0.05410 0.51510 -0.04400
N 	N 	0.43090 0.40850 0.08960 -0.17200
N 	N 	0.36670 0.42750 0.15370 -0.09000
N 	N 	0.45480 0.31510 0.08740 -0.18900
C 	C 	0.35370 0.33960 0.18790 0.09200
N 	N 	0.40680 0.26990 0.14880 -0.11300
N 	N 	0.17230 0.27850 0.40090 -0.25600
C 	C 	0.29130 0.32130 0.26140 0.04600
C 	C 	0.25350 0.22750 0.27690 -0.12100
C 	C 	0.26790 0.39150 0.31830 -0.12800
C 	C 	0.19430 0.21010 0.34610 0.06800
H 	H 	0.26840 0.17640 0.23990 0.05900
H 	H 	0.29230 0.45620 0.31070 0.07500
C 	C 	0.20830 0.36660 0.38650 0.07400
H 	H 	0.16780 0.14640 0.35540 -0.02100
H 	H 	0.19250 0.41590 0.42490 -0.03500
N 	N 	0.81610 0.44590 0.98490 0.41900
N 	N 	0.56910 0.59150 0.08960 -0.17000
N 	N 	0.63330 0.57250 0.15370 -0.08600
N 	N 	0.54520 0.68490 0.08740 -0.18300
C 	C 	0.64630 0.66040 0.18790 0.09900
N 	N 	0.59320 0.73010 0.14880 -0.10100
N 	N 	0.82770 0.72150 0.40090 -0.24400
C 	C 	0.70870 0.67870 0.26140 0.05700
C 	C 	0.74650 0.77250 0.27690 -0.11200
C 	C 	0.73210 0.60850 0.31830 -0.12300
C 	C 	0.80570 0.78990 0.34610 0.08200
H 	H 	0.73160 0.82360 0.23990 0.08600
H 	H 	0.70770 0.54380 0.31070 0.07900
C 	C 	0.79170 0.63340 0.38650 0.08500
H 	H 	0.83220 0.85360 0.35540 0.01200
H 	H 	0.80750 0.58410 0.42490 -0.02400
N 	N 	0.18390 0.55410 0.98490 0.40700
Co	Co	0.00000 0.00000 0.50000 1.05900
Co	Co	0.50000 0.50000 -0.00000 1.09900
N 	N 	0.13130 0.09540 0.50000 -0.32200
Co	Co	0.06725 0.23852 0.50000 1.06700
N 	N 	0.22620 0.07310 0.50000 -0.05100
N 	N 	0.86870 0.90460 0.50000 -0.27400
Co	Co	0.93275 0.76148 0.50000 1.11000
N 	N 	0.77380 0.92690 0.50000 -0.03400
N 	N 	0.36870 0.59540 -0.00000 -0.31500
Co	Co	0.43275 0.73852 -0.00000 1.07400
N 	N 	0.27380 0.57310 -0.00000 -0.06400
N 	N 	0.63130 0.40460 -0.00000 -0.31300
Co	Co	0.56725 0.26148 -0.00000 1.06900
N 	N 	0.72620 0.42690 -0.00000 -0.06000
