data_crystal

_cell_length_a 8.90420
_cell_length_b 12.77570
_cell_length_c 9.20040
_cell_angle_alpha 90.00000
_cell_angle_beta  90.00000
_cell_angle_gamma 90.00000

_symmetry_space_group_name_	'P 1'
_symmetry_space_group_name_H-M	'P 1'

loop_
_symmetry_equiv_pos_as_xyz
  x,y,z

loop_
_atom_site_label
_atom_site_type_symbol
_atom_site_fract_x
_atom_site_fract_y
_atom_site_fract_z
_atom_site_charge
O 	O 	0.29857 0.95799 0.62533 -0.43800
O 	O 	0.13555 0.95820 0.80773 -0.44600
O 	O 	0.48286 0.16310 0.58086 -0.50300
C 	C 	0.25585 0.98220 0.74934 0.76900
H 	H 	0.32140 0.02280 0.80430 -0.27700
O 	O 	0.20143 0.04201 0.12533 -0.40800
O 	O 	0.36445 0.04180 0.30773 -0.38900
O 	O 	0.01714 0.83690 0.08086 -0.30600
C 	C 	0.24415 0.01780 0.24934 0.24000
H 	H 	0.17860 0.97720 0.30430 0.04500
O 	O 	0.70143 0.45799 0.37467 -0.39000
O 	O 	0.86445 0.45820 0.19227 -0.35800
O 	O 	0.51714 0.66310 0.41914 -0.45500
C 	C 	0.74415 0.48220 0.25066 0.49900
H 	H 	0.67860 0.52280 0.19570 -0.11000
O 	O 	0.79857 0.54201 0.87467 -0.35300
O 	O 	0.63555 0.54180 0.69227 -0.39300
O 	O 	0.98286 0.33690 0.91914 -0.56900
C 	C 	0.75585 0.51780 0.75066 0.49100
H 	H 	0.82140 0.47720 0.69570 -0.08100
O 	O 	0.70143 0.04201 0.37467 -0.35500
O 	O 	0.86445 0.04180 0.19227 -0.32500
O 	O 	0.51714 0.83690 0.41914 -0.42100
C 	C 	0.74415 0.01780 0.25066 0.22700
H 	H 	0.67860 0.97720 0.19570 0.06700
O 	O 	0.79857 0.95799 0.87467 -0.37100
O 	O 	0.63555 0.95820 0.69227 -0.40500
O 	O 	0.98286 0.16310 0.91914 -0.58700
C 	C 	0.75585 0.98220 0.75066 0.73800
H 	H 	0.82140 0.02280 0.69570 -0.24400
O 	O 	0.29857 0.54201 0.62533 -0.42000
O 	O 	0.13555 0.54180 0.80773 -0.43200
O 	O 	0.48286 0.33690 0.58086 -0.48100
C 	C 	0.25585 0.51780 0.74934 0.51100
H 	H 	0.32140 0.47720 0.80430 -0.10700
O 	O 	0.20143 0.45799 0.12533 -0.44500
O 	O 	0.36445 0.45820 0.30773 -0.42300
O 	O 	0.01714 0.66310 0.08086 -0.34200
C 	C 	0.24415 0.48220 0.24934 0.52300
H 	H 	0.17860 0.52280 0.30430 -0.14000
Mn	Mn	0.50000 0.00000 0.50000 1.28900
Mn	Mn	-0.00000 0.00000 -0.00000 1.22200
Mn	Mn	0.50000 0.50000 0.50000 1.33600
Mn	Mn	0.00000 0.50000 -0.00000 1.27000
C 	C 	0.48910 0.25000 0.52470 0.77300
H 	H 	0.50030 0.25000 0.42420 -0.09200
H 	H 	0.40980 0.25000 0.45250 -0.12500
H 	H 	0.58250 0.25000 0.47050 -0.11100
C 	C 	0.01090 0.75000 0.02470 -0.00600
H 	H 	0.99970 0.75000 0.92420 0.08600
H 	H 	0.09020 0.75000 0.95250 0.05200
H 	H 	0.91750 0.75000 0.97050 0.13200
C 	C 	0.51090 0.75000 0.47530 0.69600
H 	H 	0.49970 0.75000 0.57580 -0.08100
H 	H 	0.59020 0.75000 0.54750 -0.08400
H 	H 	0.41750 0.75000 0.52950 -0.09500
C 	C 	0.98910 0.25000 0.97530 1.42300
H 	H 	0.00030 0.25000 0.07580 -0.27200
H 	H 	0.90980 0.25000 0.04750 -0.22600
H 	H 	0.08250 0.25000 0.02950 -0.32300
