data_crystal

_cell_length_a 8.92600
_cell_length_b 12.76700
_cell_length_c 9.19600
_cell_angle_alpha 90.00000
_cell_angle_beta  90.00000
_cell_angle_gamma 90.00000

_symmetry_space_group_name_	'P 1'
_symmetry_space_group_name_H-M	'P 1'

loop_
_symmetry_equiv_pos_as_xyz
  x,y,z

loop_
_atom_site_label
_atom_site_type_symbol
_atom_site_fract_x
_atom_site_fract_y
_atom_site_fract_z
_atom_site_charge
O 	O 	0.48275 0.66330 0.41954 -0.44500
O 	O 	0.29850 0.45825 0.37482 -0.45300
O 	O 	0.13485 0.45849 0.19299 -0.51600
C 	C 	0.25485 0.48251 0.25112 0.53500
H 	H 	0.31980 0.52340 0.19600 -0.16400
O 	O 	0.01725 0.33670 0.91954 -0.54400
O 	O 	0.20150 0.54175 0.87482 -0.39000
O 	O 	0.36515 0.54151 0.69299 -0.41300
C 	C 	0.24515 0.51749 0.75112 0.50700
H 	H 	0.18020 0.47660 0.69600 -0.14200
O 	O 	0.51725 0.16330 0.58046 -0.44200
O 	O 	0.70150 0.95825 0.62518 -0.38900
O 	O 	0.86515 0.95849 0.80701 -0.29800
C 	C 	0.74515 0.98251 0.74888 0.68800
H 	H 	0.68020 0.02340 0.80400 -0.20000
O 	O 	0.98275 0.83670 0.08046 -0.25100
O 	O 	0.79850 0.04175 0.12518 -0.36400
O 	O 	0.63485 0.04151 0.30701 -0.39100
C 	C 	0.75485 0.01749 0.24888 0.27100
H 	H 	0.81980 0.97660 0.30400 0.07000
O 	O 	0.51725 0.33670 0.58046 -0.42400
O 	O 	0.70150 0.54175 0.62518 -0.37500
O 	O 	0.86515 0.54151 0.80701 -0.28400
C 	C 	0.74515 0.51749 0.74888 0.47500
H 	H 	0.68020 0.47660 0.80400 -0.06100
O 	O 	0.98275 0.66330 0.08046 -0.27900
O 	O 	0.79850 0.45825 0.12518 -0.39400
O 	O 	0.63485 0.45849 0.30701 -0.41800
C 	C 	0.75485 0.48251 0.24888 0.50100
H 	H 	0.81980 0.52340 0.30400 -0.08000
O 	O 	0.48275 0.83670 0.41954 -0.41400
O 	O 	0.29850 0.04175 0.37482 -0.42200
O 	O 	0.13485 0.04151 0.19299 -0.48700
C 	C 	0.25485 0.01749 0.25112 0.29800
H 	H 	0.31980 0.97660 0.19600 -0.00900
O 	O 	0.01725 0.16330 0.91954 -0.56000
O 	O 	0.20150 0.95825 0.87482 -0.40600
O 	O 	0.36515 0.95849 0.69299 -0.42500
C 	C 	0.24515 0.98251 0.75112 0.72500
H 	H 	0.18020 0.02340 0.69600 -0.28300
Mn	Mn	0.50000 0.50000 0.50000 1.33000
Mn	Mn	0.00000 0.50000 -0.00000 1.19500
Mn	Mn	0.50000 0.00000 0.50000 1.29100
Mn	Mn	-0.00000 0.00000 -0.00000 1.15700
C 	C 	0.48830 0.75000 0.47540 0.53700
H 	H 	0.49830 0.75000 0.57610 -0.11900
C 	C 	0.01170 0.25000 0.97540 0.94800
H 	H 	0.00170 0.25000 0.07610 -0.41000
C 	C 	0.51170 0.25000 0.52460 0.56600
H 	H 	0.50170 0.25000 0.42390 -0.14400
C 	C 	0.98830 0.75000 0.02460 0.16300
H 	H 	0.99830 0.75000 0.92390 0.13900
