data_crystal

_cell_length_a 13.14400
_cell_length_b 16.13950
_cell_length_c 17.36530
_cell_angle_alpha 112.25800
_cell_angle_beta  104.01300
_cell_angle_gamma 96.65000

_symmetry_space_group_name_	'P 1'
_symmetry_space_group_name_H-M	'P 1'

loop_
_symmetry_equiv_pos_as_xyz
  x,y,z

loop_
_atom_site_label
_atom_site_type_symbol
_atom_site_fract_x
_atom_site_fract_y
_atom_site_fract_z
_atom_site_charge
Ni	Ni	0.32717 0.72733 0.32222 1.07500
Ni	Ni	0.67283 0.27267 0.67778 1.07500
Ni	Ni	0.91930 0.27195 0.30179 1.11100
Ni	Ni	0.87703 0.72715 0.77035 1.12400
Ni	Ni	0.12297 0.27285 0.22965 1.12300
Ni	Ni	0.08070 0.72805 0.69821 1.11000
H 	H 	0.33790 0.37720 0.58970 0.09100
H 	H 	0.57240 0.03660 0.91000 0.07400
H 	H 	0.52860 0.26340 0.79190 -0.00200
H 	H 	0.60320 0.83610 0.20220 0.08100
H 	H 	0.11280 0.41320 0.89450 0.07600
H 	H 	0.57180 0.58180 0.78910 0.09300
H 	H 	0.76250 0.09260 0.44660 0.08900
H 	H 	0.30550 0.03930 0.29760 0.08900
H 	H 	0.20000 0.80790 0.27760 0.32500
H 	H 	0.93870 0.05610 0.97480 0.03800
H 	H 	0.15570 0.37330 0.15480 0.32200
H 	H 	0.37990 0.77140 0.66880 0.03100
H 	H 	0.54740 0.71680 0.41300 0.00100
H 	H 	0.42590 0.12360 0.43340 0.02900
H 	H 	0.34700 0.26280 0.31760 0.01200
H 	H 	0.50240 0.35380 0.42470 0.08700
H 	H 	0.82640 0.69550 0.37720 0.02900
H 	H 	0.13240 0.79130 0.56250 0.00600
H 	H 	0.42820 0.41820 0.21090 0.09300
H 	H 	0.62010 0.22860 0.33120 0.03100
H 	H 	0.97870 0.46740 0.57860 0.02800
H 	H 	0.68580 0.13680 0.04590 0.02000
H 	H 	0.45260 0.28320 0.58700 0.00100
H 	H 	0.06130 0.94390 0.02520 0.03800
H 	H 	0.50210 0.13830 0.19180 0.07000
H 	H 	0.39680 0.16390 0.79780 0.08100
H 	H 	0.19960 0.37790 0.76890 0.07500
H 	H 	0.39940 0.97950 0.56700 0.09000
H 	H 	0.09380 0.23140 0.35330 0.40100
H 	H 	0.69990 0.26860 0.18260 0.00700
H 	H 	0.18130 0.72840 0.00950 0.03200
H 	H 	0.81870 0.27160 0.99050 0.03200
H 	H 	0.66210 0.62280 0.41030 0.09100
H 	H 	0.20730 0.46750 0.37220 0.00600
H 	H 	0.80040 0.62210 0.23110 0.07500
H 	H 	0.46550 0.91360 0.42950 0.00500
H 	H 	0.12630 0.28840 0.14330 0.16700
H 	H 	0.42620 0.64640 0.81890 0.07900
H 	H 	0.47140 0.73660 0.20810 -0.00200
H 	H 	0.49790 0.86170 0.80820 0.07000
H 	H 	0.86760 0.20870 0.43750 0.00600
H 	H 	0.63820 0.43640 0.52490 0.09800
H 	H 	0.32640 0.03970 0.81480 0.07900
H 	H 	0.32090 0.52160 0.21860 0.01100
H 	H 	0.71610 0.18080 0.63280 0.18300
H 	H 	0.67910 0.47840 0.78140 0.01100
H 	H 	0.79270 0.53250 0.62780 0.00600
H 	H 	0.30010 0.73140 0.81740 0.00700
H 	H 	0.97440 0.84050 0.73170 0.38800
H 	H 	0.36180 0.56360 0.47510 0.09800
H 	H 	0.14730 0.64770 0.86260 0.07400
H 	H 	0.15470 0.58070 0.57140 0.01100
H 	H 	0.42760 0.96340 0.09000 0.07400
H 	H 	0.65300 0.73720 0.68240 0.01200
H 	H 	0.88720 0.58680 0.10550 0.07600
H 	H 	0.15590 0.49770 0.04350 0.03100
H 	H 	0.80000 0.19210 0.72240 0.32500
H 	H 	0.02130 0.53260 0.42140 0.02800
H 	H 	0.57380 0.35360 0.18110 0.07900
H 	H 	0.02560 0.15950 0.26830 0.38800
H 	H 	0.21660 0.92140 0.81410 0.00500
H 	H 	0.53450 0.08640 0.57050 0.00500
H 	H 	0.87370 0.71160 0.85670 0.16700
H 	H 	0.84530 0.41930 0.42860 0.01100
H 	H 	0.23750 0.90740 0.55340 0.08900
H 	H 	0.90620 0.76860 0.64670 0.40100
H 	H 	0.28390 0.81920 0.36720 0.18300
H 	H 	0.84410 0.50230 0.95650 0.03100
H 	H 	0.84430 0.62670 0.84520 0.32200
H 	H 	0.17360 0.30450 0.62280 0.02900
H 	H 	0.69450 0.96070 0.70240 0.08900
H 	H 	0.57410 0.87640 0.56660 0.02900
H 	H 	0.49760 0.64620 0.57530 0.08700
H 	H 	0.31420 0.86320 0.95410 0.02000
H 	H 	0.67360 0.96030 0.18520 0.07900
H 	H 	0.72870 0.51250 0.43500 0.08600
H 	H 	0.78340 0.07860 0.18590 0.00500
H 	H 	0.85270 0.35230 0.13740 0.07400
H 	H 	0.60060 0.02050 0.43300 0.09000
H 	H 	0.27130 0.48750 0.56500 0.08600
C 	C 	0.82810 0.37670 0.95790 -0.11700
C 	C 	0.49330 0.89800 0.38280 0.08900
C 	C 	0.22300 0.91760 0.76070 0.08000
C 	C 	0.10100 0.82430 0.88800 0.38900
C 	C 	0.38950 0.07750 0.22880 0.05000
C 	C 	0.37980 0.05800 0.68190 0.06300
C 	C 	0.87110 0.52290 0.08260 -0.10600
C 	C 	0.86480 0.05140 0.96250 0.06100
C 	C 	0.20510 0.01350 0.11850 -0.10200
C 	C 	0.79930 0.31820 0.86150 0.36800
C 	C 	0.40700 0.40010 0.62960 -0.14100
C 	C 	0.57730 0.85430 0.25000 -0.14100
C 	C 	0.12890 0.47710 0.91740 -0.10600
C 	C 	0.82680 0.15850 0.38580 0.09000
C 	C 	0.86040 0.64800 0.35660 0.04500
C 	C 	0.49680 0.79520 0.25370 0.09300
C 	C 	0.31580 0.01720 0.14120 0.06200
C 	C 	0.79200 0.40790 0.37720 0.08600
C 	C 	0.14830 0.61640 0.89800 -0.10900
C 	C 	0.63560 0.44630 0.30720 0.05800
C 	C 	0.42270 0.14570 0.75000 -0.14100
C 	C 	0.89400 0.53210 0.23440 0.06100
C 	C 	0.35400 0.96030 0.07730 -0.12200
C 	C 	0.44150 0.12660 0.38490 0.04600
C 	C 	0.48620 0.13550 0.24030 -0.10300
C 	C 	0.83110 0.33540 0.01360 0.05000
C 	C 	0.70650 0.31950 0.23380 0.07500
C 	C 	0.52360 0.65600 0.37130 0.08100
C 	C 	0.36950 0.07580 0.30340 -0.11100
C 	C 	0.71410 0.10070 0.00420 0.05700
C 	C 	0.65140 0.67600 0.64950 0.09000
C 	C 	0.84120 0.91360 0.82480 0.33500
C 	C 	0.62990 0.37030 0.23240 -0.13200
C 	C 	0.44210 0.81140 0.67600 0.03600
C 	C 	0.82560 0.10860 0.02450 -0.13000
C 	C 	0.55720 0.62130 0.58520 -0.14100
C 	C 	0.55040 0.52980 0.53510 0.06900
C 	C 	0.17190 0.62330 0.04210 -0.11700
C 	C 	0.85170 0.38360 0.10200 -0.10900
C 	C 	0.44280 0.37870 0.41480 -0.14100
C 	C 	0.42430 0.03700 0.61430 -0.13700
C 	C 	0.63970 0.49830 0.55470 -0.15100
C 	C 	0.15270 0.52770 0.00690 0.04500
C 	C 	0.59300 0.59990 0.37040 -0.14100
C 	C 	0.28870 0.98940 0.76230 -0.13700
C 	C 	0.73210 0.55620 0.61790 0.08800
C 	C 	0.43880 0.49160 0.69000 0.06100
C 	C 	0.87140 0.48040 0.13920 0.04500
C 	C 	0.50670 0.10200 0.61720 0.08900
C 	C 	0.96760 0.55750 0.73730 0.35700
C 	C 	0.15880 0.08640 0.17520 0.33500
C 	C 	0.76350 0.08900 0.39200 -0.13900
C 	C 	0.84730 0.47230 0.99310 0.04500
C 	C 	0.39040 0.54190 0.25770 0.08700
C 	C 	0.64600 0.03970 0.92270 -0.12200
C 	C 	0.51380 0.86450 0.75970 -0.10300
C 	C 	0.70140 0.01380 0.31700 0.06300
C 	C 	0.34860 0.32400 0.35050 0.09000
C 	C 	0.63050 0.92420 0.69660 -0.11100
C 	C 	0.13960 0.35200 0.64340 0.04500
C 	C 	0.68420 0.98280 0.85880 0.06200
C 	C 	0.17320 0.84150 0.61420 0.09000
C 	C 	0.72080 0.46350 0.38210 -0.13400
C 	C 	0.77700 0.08240 0.23930 0.08000
C 	C 	0.92650 0.62270 0.41540 -0.11200
C 	C 	0.29350 0.68050 0.76620 0.07500
C 	C 	0.13520 0.94860 0.03750 0.06100
C 	C 	0.89900 0.17570 0.11200 0.38900
C 	C 	0.16890 0.66460 0.98640 0.05000
C 	C 	0.36440 0.55370 0.69280 0.05800
C 	C 	0.02230 0.44890 0.61690 0.05400
C 	C 	0.45470 0.47900 0.25210 -0.13400
C 	C 	0.17440 0.89140 0.97550 -0.13000
C 	C 	0.10600 0.46790 0.76560 0.06100
C 	C 	0.23650 0.91100 0.60800 -0.13900
C 	C 	0.12860 0.51960 0.86080 0.04500
C 	C 	0.03240 0.44250 0.26270 0.35700
C 	C 	0.47640 0.34400 0.62870 0.08100
C 	C 	0.06160 0.33110 0.48780 0.34400
C 	C 	0.57570 0.96300 0.38570 -0.13700
C 	C 	0.96330 0.50830 0.29450 -0.13300
C 	C 	0.20800 0.59210 0.62280 0.08600
C 	C 	0.29860 0.98620 0.68300 0.06300
C 	C 	0.27920 0.53650 0.61790 -0.13400
C 	C 	0.36030 0.50170 0.44530 -0.15100
C 	C 	0.71130 0.01060 0.23770 -0.13700
C 	C 	0.20070 0.68180 0.13850 0.36800
C 	C 	0.28590 0.89930 0.99580 0.05700
C 	C 	0.97770 0.55110 0.38310 0.05400
C 	C 	0.79490 0.98650 0.88150 -0.10200
C 	C 	0.38130 0.76520 0.51480 0.33600
C 	C 	0.53740 0.18250 0.39660 -0.11500
C 	C 	0.07350 0.37730 0.58460 -0.11200
C 	C 	0.61870 0.23480 0.48520 0.33600
C 	C 	0.46260 0.81750 0.60340 -0.11500
C 	C 	0.26790 0.44380 0.38210 0.08800
C 	C 	0.61050 0.92250 0.77120 0.05000
C 	C 	0.54530 0.52100 0.74790 -0.13400
C 	C 	0.37010 0.62970 0.76760 -0.13200
C 	C 	0.56120 0.50840 0.31000 0.06100
C 	C 	0.03670 0.49170 0.70550 -0.13300
C 	C 	0.55790 0.18860 0.32400 0.03600
C 	C 	0.55850 0.87340 0.61510 0.04600
C 	C 	0.62020 0.94200 0.31810 0.06300
C 	C 	0.84510 0.60380 0.26900 -0.11700
C 	C 	0.93840 0.66890 0.51220 0.34400
C 	C 	0.44960 0.47020 0.46490 0.06900
C 	C 	0.60960 0.45810 0.74230 0.08700
C 	C 	0.15490 0.39620 0.73100 -0.11700
C 	C 	0.50320 0.20480 0.74630 0.09300
N 	N 	0.42180 0.62940 0.31540 -0.23100
N 	N 	0.73990 0.64600 0.66680 -0.22400
N 	N 	0.57820 0.37060 0.68460 -0.23100
N 	N 	0.79070 0.33920 0.30480 -0.22500
N 	N 	0.45280 0.81590 0.31760 -0.23100
N 	N 	0.26010 0.35400 0.33320 -0.22400
N 	N 	0.54720 0.18410 0.68240 -0.23100
N 	N 	0.16630 0.84150 0.68910 -0.23100
N 	N 	0.83370 0.15850 0.31090 -0.23100
N 	N 	0.20930 0.66080 0.69520 -0.22500
O 	O 	0.01430 0.65610 0.56430 -0.40300
O 	O 	0.18130 0.32900 0.15360 -0.62900
O 	O 	0.81870 0.67100 0.84640 -0.62900
O 	O 	0.83240 0.24750 0.83870 -0.31300
O 	O 	0.94540 0.78340 0.70010 -0.96400
O 	O 	0.00260 0.80710 0.87970 -0.42300
O 	O 	0.02870 0.36990 0.27540 -0.47900
O 	O 	0.19790 0.16770 0.19110 -0.37900
O 	O 	0.69260 0.29930 0.49700 -0.29000
O 	O 	0.99740 0.19290 0.12030 -0.42300
O 	O 	0.85610 0.20810 0.17110 -0.44300
O 	O 	0.97130 0.63010 0.72460 -0.47900
O 	O 	0.76030 0.16870 0.66940 -0.64400
O 	O 	0.60710 0.20950 0.54390 -0.42000
O 	O 	0.14390 0.79190 0.82890 -0.44300
O 	O 	0.16760 0.75250 0.16130 -0.31300
O 	O 	0.09770 0.46840 0.23030 -0.31200
O 	O 	0.08410 0.05970 0.20170 -0.28500
O 	O 	0.80210 0.83230 0.80890 -0.37900
O 	O 	0.90230 0.53160 0.76970 -0.31200
O 	O 	0.26170 0.65810 0.18980 -0.42600
O 	O 	0.30740 0.70070 0.50300 -0.29000
O 	O 	0.87340 0.71690 0.53390 -0.32400
O 	O 	0.73830 0.34190 0.81020 -0.42600
O 	O 	0.05460 0.21660 0.29990 -0.96400
O 	O 	0.91590 0.94030 0.79830 -0.28500
O 	O 	0.12660 0.28310 0.46610 -0.32400
O 	O 	0.39290 0.79050 0.45610 -0.42000
O 	O 	0.98570 0.34390 0.43570 -0.40300
O 	O 	0.23970 0.83130 0.33060 -0.64400
