data_crystal

_cell_length_a 13.65420
_cell_length_b 13.65420
_cell_length_c 42.16000
_cell_angle_alpha 90.00000
_cell_angle_beta  90.00000
_cell_angle_gamma 90.00000

_symmetry_space_group_name_	'P 1'
_symmetry_space_group_name_H-M	'P 1'

loop_
_symmetry_equiv_pos_as_xyz
  x,y,z

loop_
_atom_site_label
_atom_site_type_symbol
_atom_site_fract_x
_atom_site_fract_y
_atom_site_fract_z
_atom_site_charge
Cu	Cu	0.55767 0.51279 0.27928 0.91100
Cu	Cu	0.72394 0.42180 0.23633 0.91400
Cu	Cu	0.32772 0.54182 0.27036 0.93000
Cu	Cu	0.63234 0.84817 0.25398 0.89800
S 	S 	0.71554 0.38635 0.30821 0.71500
S 	S 	0.46042 0.69980 0.30074 0.69900
S 	S 	0.68642 0.64860 0.21550 0.73200
O 	O 	0.20780 0.54860 0.29446 -0.39500
O 	O 	0.10041 0.43110 0.28302 -0.42300
O 	O 	0.65400 0.47470 0.31065 -0.41000
O 	O 	0.77848 0.39670 0.28024 -0.42900
O 	O 	0.64950 0.30170 0.30391 -0.43100
O 	O 	0.77320 0.37400 0.33646 -0.27000
O 	O 	0.52830 0.61837 0.30832 -0.41400
O 	O 	0.36070 0.66030 0.29633 -0.40200
O 	O 	0.49260 0.74510 0.27059 -0.48700
O 	O 	0.46120 0.77030 0.32594 -0.27600
O 	O 	0.71000 0.57859 0.24087 -0.44600
O 	O 	0.69640 0.74790 0.22912 -0.43800
O 	O 	0.58610 0.63300 0.20483 -0.44300
O 	O 	0.75330 0.64030 0.18881 -0.29300
N 	N 	0.93274 0.63829 0.46926 -0.20700
N 	N 	0.91230 0.46912 0.47213 -0.22500
C 	C 	0.91000 0.55780 0.48476 0.11900
H 	H 	0.89120 0.56360 0.50590 0.00600
C 	C 	0.96160 0.63090 0.43897 0.07300
H 	H 	0.97640 0.68740 0.42760 0.03100
C 	C 	0.96970 0.54080 0.42445 -0.08000
C 	C 	0.94230 0.46060 0.44218 0.06200
H 	H 	0.94480 0.39880 0.43300 0.02300
C 	C 	0.00870 0.53050 0.39205 0.16500
C 	C 	0.08340 0.59150 0.38171 -0.20300
H 	H 	0.10790 0.63960 0.39520 0.14000
C 	C 	0.12070 0.58160 0.35221 0.13700
H 	H 	0.17020 0.62370 0.34560 0.02300
C 	C 	0.08670 0.50980 0.33139 -0.17600
C 	C 	0.01120 0.45000 0.34120 0.13500
H 	H 	0.98640 0.40240 0.32760 0.02300
C 	C 	0.97230 0.46120 0.37136 -0.18600
H 	H 	0.92080 0.42130 0.37780 0.13100
C 	C 	0.13500 0.49490 0.30046 0.43200
Cu	Cu	0.44233 0.48721 0.77928 0.91200
Cu	Cu	0.27606 0.57820 0.73633 0.91500
Cu	Cu	0.67228 0.45818 0.77036 0.93100
Cu	Cu	0.36766 0.15183 0.75398 0.89900
S 	S 	0.28446 0.61365 0.80821 0.71600
S 	S 	0.53958 0.30020 0.80074 0.70000
S 	S 	0.31358 0.35140 0.71550 0.73300
O 	O 	0.79220 0.45140 0.79446 -0.39400
O 	O 	0.89959 0.56890 0.78302 -0.42200
O 	O 	0.34600 0.52530 0.81065 -0.40900
O 	O 	0.22152 0.60330 0.78024 -0.42800
O 	O 	0.35050 0.69830 0.80391 -0.43000
O 	O 	0.22680 0.62600 0.83646 -0.27000
O 	O 	0.47170 0.38163 0.80832 -0.41400
O 	O 	0.63930 0.33970 0.79633 -0.40200
O 	O 	0.50740 0.25490 0.77059 -0.48700
O 	O 	0.53880 0.22970 0.82594 -0.27600
O 	O 	0.29000 0.42141 0.74087 -0.44600
O 	O 	0.30360 0.25210 0.72912 -0.43800
O 	O 	0.41390 0.36700 0.70483 -0.44300
O 	O 	0.24670 0.35970 0.68881 -0.29300
N 	N 	0.06726 0.36171 0.96926 -0.20600
N 	N 	0.08770 0.53088 0.97213 -0.22400
C 	C 	0.09000 0.44220 0.98476 0.11200
H 	H 	0.10880 0.43640 0.00590 0.01100
C 	C 	0.03840 0.36910 0.93897 0.07300
H 	H 	0.02360 0.31260 0.92760 0.03100
C 	C 	0.03030 0.45920 0.92445 -0.08000
C 	C 	0.05770 0.53940 0.94218 0.06200
H 	H 	0.05520 0.60120 0.93300 0.02300
C 	C 	0.99130 0.46950 0.89205 0.16600
C 	C 	0.91660 0.40850 0.88171 -0.20400
H 	H 	0.89210 0.36040 0.89520 0.14000
C 	C 	0.87930 0.41840 0.85221 0.13700
H 	H 	0.82980 0.37630 0.84560 0.02300
C 	C 	0.91330 0.49020 0.83139 -0.17600
C 	C 	0.98880 0.55000 0.84120 0.13500
H 	H 	0.01360 0.59760 0.82760 0.02300
C 	C 	0.02770 0.53880 0.87136 -0.18700
H 	H 	0.07920 0.57870 0.87780 0.13100
C 	C 	0.86500 0.50510 0.80046 0.43200
Cu	Cu	0.98721 0.05767 0.02928 0.91100
Cu	Cu	0.07820 0.22394 0.98633 0.91400
Cu	Cu	0.95818 0.82772 0.02036 0.93200
Cu	Cu	0.65183 0.13234 0.00398 0.90000
S 	S 	0.11365 0.21554 0.05821 0.71600
S 	S 	0.80020 0.96042 0.05074 0.70200
S 	S 	0.85140 0.18642 0.96550 0.73300
O 	O 	0.95140 0.70780 0.04446 -0.39300
O 	O 	0.06890 0.60041 0.03302 -0.42000
O 	O 	0.02530 0.15400 0.06065 -0.40700
O 	O 	0.10330 0.27848 0.03024 -0.42600
O 	O 	0.19830 0.14950 0.05391 -0.43000
O 	O 	0.12600 0.27320 0.08646 -0.26900
O 	O 	0.88163 0.02830 0.05832 -0.41600
O 	O 	0.83970 0.86070 0.04633 -0.40200
O 	O 	0.75490 0.99260 0.02059 -0.48600
O 	O 	0.72970 0.96120 0.07594 -0.27500
O 	O 	0.92141 0.21000 0.99087 -0.44800
O 	O 	0.75210 0.19640 0.97912 -0.44000
O 	O 	0.86700 0.08610 0.95483 -0.44400
O 	O 	0.85970 0.25330 0.93881 -0.29400
N 	N 	0.86171 0.43274 0.21926 -0.20700
N 	N 	0.03088 0.41230 0.22213 -0.22400
C 	C 	0.94220 0.41000 0.23476 0.11800
H 	H 	0.93640 0.39120 0.25590 0.00600
C 	C 	0.86910 0.46160 0.18897 0.07300
H 	H 	0.81260 0.47640 0.17760 0.03100
C 	C 	0.95920 0.46970 0.17445 -0.08000
C 	C 	0.03940 0.44230 0.19218 0.06300
H 	H 	0.10120 0.44480 0.18300 0.02300
C 	C 	0.96950 0.50870 0.14205 0.16400
C 	C 	0.90850 0.58340 0.13171 -0.20200
H 	H 	0.86040 0.60790 0.14520 0.14000
C 	C 	0.91840 0.62070 0.10221 0.13500
H 	H 	0.87630 0.67020 0.09560 0.02400
C 	C 	0.99020 0.58670 0.08139 -0.17400
C 	C 	0.05000 0.51120 0.09120 0.13200
H 	H 	0.09760 0.48640 0.07760 0.02500
C 	C 	0.03880 0.47230 0.12136 -0.18300
H 	H 	0.07870 0.42080 0.12780 0.13000
C 	C 	0.00510 0.63500 0.05046 0.43100
Cu	Cu	0.01279 0.94233 0.52928 0.91100
Cu	Cu	0.92180 0.77606 0.48633 0.91600
Cu	Cu	0.04182 0.17228 0.52036 0.93100
Cu	Cu	0.34817 0.86766 0.50398 0.89800
S 	S 	0.88635 0.78446 0.55821 0.71600
S 	S 	0.19980 0.03958 0.55074 0.70200
S 	S 	0.14860 0.81358 0.46550 0.73300
O 	O 	0.04860 0.29220 0.54446 -0.39300
O 	O 	0.93110 0.39959 0.53302 -0.42200
O 	O 	0.97470 0.84600 0.56065 -0.40800
O 	O 	0.89670 0.72152 0.53024 -0.42800
O 	O 	0.80170 0.85050 0.55391 -0.43000
O 	O 	0.87400 0.72680 0.58646 -0.27000
O 	O 	0.11837 0.97170 0.55832 -0.41600
O 	O 	0.16030 0.13930 0.54633 -0.40200
O 	O 	0.24510 0.00740 0.52059 -0.48700
O 	O 	0.27030 0.03880 0.57594 -0.27600
O 	O 	0.07859 0.79000 0.49087 -0.44700
O 	O 	0.24790 0.80360 0.47912 -0.43800
O 	O 	0.13300 0.91390 0.45483 -0.44300
O 	O 	0.14030 0.74670 0.43881 -0.29300
N 	N 	0.13829 0.56726 0.71926 -0.20700
N 	N 	0.96912 0.58770 0.72213 -0.22400
C 	C 	0.05780 0.59000 0.73476 0.11800
H 	H 	0.06360 0.60880 0.75590 0.00600
C 	C 	0.13090 0.53840 0.68897 0.07300
H 	H 	0.18740 0.52360 0.67760 0.03000
C 	C 	0.04080 0.53030 0.67445 -0.08000
C 	C 	0.96060 0.55770 0.69218 0.06300
H 	H 	0.89880 0.55520 0.68300 0.02300
C 	C 	0.03050 0.49130 0.64205 0.16400
C 	C 	0.09150 0.41660 0.63171 -0.20100
H 	H 	0.13960 0.39210 0.64520 0.14000
C 	C 	0.08160 0.37930 0.60221 0.13500
H 	H 	0.12370 0.32980 0.59560 0.02400
C 	C 	0.00980 0.41330 0.58139 -0.17300
C 	C 	0.95000 0.48880 0.59120 0.13100
H 	H 	0.90240 0.51360 0.57760 0.02500
C 	C 	0.96120 0.52770 0.62136 -0.18300
H 	H 	0.92130 0.57920 0.62780 0.13000
C 	C 	0.99490 0.36500 0.55046 0.43000
Cu	Cu	0.94233 0.01279 0.47072 0.91100
Cu	Cu	0.77606 0.92180 0.51367 0.91600
Cu	Cu	0.17228 0.04182 0.47964 0.93100
Cu	Cu	0.86766 0.34817 0.49602 0.89800
S 	S 	0.78446 0.88635 0.44179 0.71600
S 	S 	0.03958 0.19980 0.44926 0.70200
S 	S 	0.81358 0.14860 0.53450 0.73300
O 	O 	0.29220 0.04860 0.45554 -0.39300
O 	O 	0.39959 0.93110 0.46698 -0.42200
O 	O 	0.84600 0.97470 0.43935 -0.40800
O 	O 	0.72152 0.89670 0.46976 -0.42800
O 	O 	0.85050 0.80170 0.44609 -0.43000
O 	O 	0.72680 0.87400 0.41354 -0.27000
O 	O 	0.97170 0.11837 0.44168 -0.41600
O 	O 	0.13930 0.16030 0.45367 -0.40200
O 	O 	0.00740 0.24510 0.47941 -0.48700
O 	O 	0.03880 0.27030 0.42406 -0.27600
O 	O 	0.79000 0.07859 0.50913 -0.44700
O 	O 	0.80360 0.24790 0.52088 -0.43800
O 	O 	0.91390 0.13300 0.54517 -0.44300
O 	O 	0.74670 0.14030 0.56119 -0.29300
N 	N 	0.56726 0.13829 0.28074 -0.20700
N 	N 	0.58770 0.96912 0.27787 -0.22400
C 	C 	0.59000 0.05780 0.26524 0.11800
H 	H 	0.60880 0.06360 0.24410 0.00600
C 	C 	0.53840 0.13090 0.31103 0.07300
H 	H 	0.52360 0.18740 0.32240 0.03000
C 	C 	0.53030 0.04080 0.32555 -0.08000
C 	C 	0.55770 0.96060 0.30782 0.06300
H 	H 	0.55520 0.89880 0.31700 0.02300
C 	C 	0.49130 0.03050 0.35795 0.16400
C 	C 	0.41660 0.09150 0.36829 -0.20100
H 	H 	0.39210 0.13960 0.35480 0.14000
C 	C 	0.37930 0.08160 0.39779 0.13500
H 	H 	0.32980 0.12370 0.40440 0.02400
C 	C 	0.41330 0.00980 0.41861 -0.17300
C 	C 	0.48880 0.95000 0.40880 0.13100
H 	H 	0.51360 0.90240 0.42240 0.02500
C 	C 	0.52770 0.96120 0.37864 -0.18300
H 	H 	0.57920 0.92130 0.37220 0.13000
C 	C 	0.36500 0.99490 0.44954 0.43000
Cu	Cu	0.05767 0.98721 0.97072 0.91000
Cu	Cu	0.22394 0.07820 0.01367 0.91600
Cu	Cu	0.82772 0.95818 0.97964 0.93000
Cu	Cu	0.13234 0.65183 0.99602 0.89700
S 	S 	0.21554 0.11365 0.94179 0.71600
S 	S 	0.96042 0.80020 0.94926 0.70200
S 	S 	0.18642 0.85140 0.03450 0.73200
O 	O 	0.70780 0.95140 0.95554 -0.39400
O 	O 	0.60041 0.06890 0.96698 -0.42300
O 	O 	0.15400 0.02530 0.93935 -0.40800
O 	O 	0.27848 0.10330 0.96976 -0.42900
O 	O 	0.14950 0.19830 0.94609 -0.43000
O 	O 	0.27320 0.12600 0.91354 -0.27000
O 	O 	0.02830 0.88163 0.94168 -0.41700
O 	O 	0.86070 0.83970 0.95367 -0.40300
O 	O 	0.99260 0.75490 0.97941 -0.48900
O 	O 	0.96120 0.72970 0.92406 -0.27600
O 	O 	0.21000 0.92141 0.00913 -0.44500
O 	O 	0.19640 0.75210 0.02088 -0.43700
O 	O 	0.08610 0.86700 0.04517 -0.44300
O 	O 	0.25330 0.85970 0.06119 -0.29300
N 	N 	0.43274 0.86171 0.78074 -0.20700
N 	N 	0.41230 0.03088 0.77787 -0.22400
C 	C 	0.41000 0.94220 0.76524 0.11800
H 	H 	0.39120 0.93640 0.74410 0.00600
C 	C 	0.46160 0.86910 0.81103 0.07300
H 	H 	0.47640 0.81260 0.82240 0.03000
C 	C 	0.46970 0.95920 0.82555 -0.08000
C 	C 	0.44230 0.03940 0.80782 0.06300
H 	H 	0.44480 0.10120 0.81700 0.02300
C 	C 	0.50870 0.96950 0.85795 0.16400
C 	C 	0.58340 0.90850 0.86829 -0.20200
H 	H 	0.60790 0.86040 0.85480 0.14000
C 	C 	0.62070 0.91840 0.89779 0.13600
H 	H 	0.67020 0.87630 0.90440 0.02300
C 	C 	0.58670 0.99020 0.91861 -0.17500
C 	C 	0.51120 0.05000 0.90880 0.13200
H 	H 	0.48640 0.09760 0.92240 0.02400
C 	C 	0.47230 0.03880 0.87864 -0.18400
H 	H 	0.42080 0.07870 0.87220 0.13000
C 	C 	0.63500 0.00510 0.94954 0.43100
Cu	Cu	0.51279 0.55767 0.72072 0.91200
Cu	Cu	0.42180 0.72394 0.76367 0.91500
Cu	Cu	0.54182 0.32772 0.72964 0.93100
Cu	Cu	0.84817 0.63234 0.74602 0.89900
S 	S 	0.38635 0.71554 0.69179 0.71600
S 	S 	0.69980 0.46042 0.69926 0.70000
S 	S 	0.64860 0.68642 0.78450 0.73300
O 	O 	0.54860 0.20780 0.70554 -0.39400
O 	O 	0.43110 0.10041 0.71698 -0.42200
O 	O 	0.47470 0.65400 0.68935 -0.40900
O 	O 	0.39670 0.77848 0.71976 -0.42800
O 	O 	0.30170 0.64950 0.69609 -0.43000
O 	O 	0.37400 0.77320 0.66354 -0.27000
O 	O 	0.61837 0.52830 0.69168 -0.41400
O 	O 	0.66030 0.36070 0.70367 -0.40200
O 	O 	0.74510 0.49260 0.72941 -0.48700
O 	O 	0.77030 0.46120 0.67406 -0.27600
O 	O 	0.57859 0.71000 0.75913 -0.44600
O 	O 	0.74790 0.69640 0.77088 -0.43800
O 	O 	0.63300 0.58610 0.79517 -0.44300
O 	O 	0.64030 0.75330 0.81119 -0.29300
N 	N 	0.63829 0.93274 0.53074 -0.20700
N 	N 	0.46912 0.91230 0.52787 -0.22500
C 	C 	0.55780 0.91000 0.51524 0.11900
H 	H 	0.56360 0.89120 0.49410 0.00600
C 	C 	0.63090 0.96160 0.56103 0.07300
H 	H 	0.68740 0.97640 0.57240 0.03100
C 	C 	0.54080 0.96970 0.57555 -0.08000
C 	C 	0.46060 0.94230 0.55782 0.06200
H 	H 	0.39880 0.94480 0.56700 0.02300
C 	C 	0.53050 0.00870 0.60795 0.16500
C 	C 	0.59150 0.08340 0.61829 -0.20300
H 	H 	0.63960 0.10790 0.60480 0.14000
C 	C 	0.58160 0.12070 0.64779 0.13700
H 	H 	0.62370 0.17020 0.65440 0.02300
C 	C 	0.50980 0.08670 0.66861 -0.17600
C 	C 	0.45000 0.01120 0.65880 0.13500
H 	H 	0.40240 0.98640 0.67240 0.02300
C 	C 	0.46120 0.97230 0.62864 -0.18600
H 	H 	0.42130 0.92080 0.62220 0.13100
C 	C 	0.49490 0.13500 0.69954 0.43200
Cu	Cu	0.48721 0.44233 0.22072 0.91200
Cu	Cu	0.57820 0.27606 0.26367 0.91500
Cu	Cu	0.45818 0.67228 0.22964 0.93100
Cu	Cu	0.15183 0.36766 0.24602 0.89900
S 	S 	0.61365 0.28446 0.19179 0.71600
S 	S 	0.30020 0.53958 0.19926 0.70000
S 	S 	0.35140 0.31358 0.28450 0.73300
O 	O 	0.45140 0.79220 0.20554 -0.39400
O 	O 	0.56890 0.89959 0.21698 -0.42200
O 	O 	0.52530 0.34600 0.18935 -0.40900
O 	O 	0.60330 0.22152 0.21976 -0.42800
O 	O 	0.69830 0.35050 0.19609 -0.43000
O 	O 	0.62600 0.22680 0.16354 -0.27000
O 	O 	0.38163 0.47170 0.19168 -0.41400
O 	O 	0.33970 0.63930 0.20367 -0.40200
O 	O 	0.25490 0.50740 0.22941 -0.48700
O 	O 	0.22970 0.53880 0.17406 -0.27500
O 	O 	0.42141 0.29000 0.25913 -0.44600
O 	O 	0.25210 0.30360 0.27088 -0.43800
O 	O 	0.36700 0.41390 0.29517 -0.44300
O 	O 	0.35970 0.24670 0.31119 -0.29300
N 	N 	0.36171 0.06726 0.03074 -0.20800
N 	N 	0.53088 0.08770 0.02787 -0.22500
C 	C 	0.44220 0.09000 0.01524 0.12500
H 	H 	0.43640 0.10880 0.99410 0.00200
C 	C 	0.36910 0.03840 0.06103 0.07400
H 	H 	0.31260 0.02360 0.07240 0.03100
C 	C 	0.45920 0.03030 0.07555 -0.08000
C 	C 	0.53940 0.05770 0.05782 0.06300
H 	H 	0.60120 0.05520 0.06700 0.02200
C 	C 	0.46950 0.99130 0.10795 0.16600
C 	C 	0.40850 0.91660 0.11829 -0.20400
H 	H 	0.36040 0.89210 0.10480 0.14100
C 	C 	0.41840 0.87930 0.14779 0.13700
H 	H 	0.37630 0.82980 0.15440 0.02300
C 	C 	0.49020 0.91330 0.16861 -0.17600
C 	C 	0.55000 0.98880 0.15880 0.13500
H 	H 	0.59760 0.01360 0.17240 0.02300
C 	C 	0.53880 0.02770 0.12864 -0.18700
H 	H 	0.57870 0.07920 0.12220 0.13100
C 	C 	0.50510 0.86500 0.19954 0.43200
O 	O 	0.59106 0.40894 0.25000 -0.67800
O 	O 	0.45389 0.54611 0.25000 -0.67500
O 	O 	0.40894 0.59106 0.75000 -0.67800
O 	O 	0.54611 0.45389 0.75000 -0.67500
O 	O 	0.09106 0.09106 -0.00000 -0.67500
O 	O 	0.95389 0.95389 -0.00000 -0.67200
O 	O 	0.90894 0.90894 0.50000 -0.67700
O 	O 	0.04611 0.04611 0.50000 -0.67400
