data_crystal

_cell_length_a 14.74500
_cell_length_b 11.02400
_cell_length_c 13.28700
_cell_angle_alpha 90.00000
_cell_angle_beta  97.27000
_cell_angle_gamma 90.00000

_symmetry_space_group_name_	'P 1'
_symmetry_space_group_name_H-M	'P 1'

loop_
_symmetry_equiv_pos_as_xyz
  x,y,z

loop_
_atom_site_label
_atom_site_type_symbol
_atom_site_fract_x
_atom_site_fract_y
_atom_site_fract_z
_atom_site_charge
Cu	Cu	0.01470 0.28742 0.23314 0.90100
Cu	Cu	0.31441 0.19730 0.23652 0.88800
O 	O 	0.94300 0.13870 0.21190 -0.41300
O 	O 	0.92091 0.94330 0.23920 -0.36300
O 	O 	0.12790 0.20970 0.21990 -0.42900
O 	O 	0.38620 0.34610 0.23080 -0.40100
O 	O 	0.45020 0.46590 0.12730 -0.40800
O 	O 	0.39890 0.42250 0.91980 -0.40700
N 	N 	0.22980 0.05780 0.24200 -0.27200
N 	N 	0.09490 0.89130 0.26220 -0.14300
N 	N 	0.30100 0.21500 0.08360 -0.15200
N 	N 	0.30490 0.26450 0.88180 -0.24900
C 	C 	0.14100 0.09610 0.23390 0.24700
C 	C 	0.07320 0.00690 0.24280 -0.21000
C 	C 	0.97310 0.03350 0.23090 0.30600
C 	C 	0.18250 0.85680 0.27260 -0.04100
H 	H 	0.19840 0.77460 0.28730 0.04800
C 	C 	0.25010 0.94150 0.26180 0.08700
H 	H 	0.31220 0.91630 0.26870 0.00200
C 	C 	0.35380 0.33580 0.95230 0.30600
C 	C 	0.35050 0.30810 0.05660 -0.22700
C 	C 	0.39920 0.37880 0.14310 0.36700
C 	C 	0.25320 0.14650 0.01290 -0.09400
H 	H 	0.21770 0.08050 0.03210 0.03400
C 	C 	0.25580 0.17220 0.91180 0.09700
H 	H 	0.22170 0.12300 0.86190 0.00800
Cu	Cu	0.98530 0.78742 0.26686 0.90400
Cu	Cu	0.68559 0.69730 0.26348 0.89200
O 	O 	0.05700 0.63870 0.28810 -0.40800
O 	O 	0.07909 0.44330 0.26080 -0.39400
O 	O 	0.87210 0.70970 0.28010 -0.42400
O 	O 	0.61380 0.84610 0.26920 -0.38900
O 	O 	0.54980 0.96590 0.37270 -0.37500
O 	O 	0.60110 0.92250 0.58020 -0.38900
N 	N 	0.77020 0.55780 0.25800 -0.24500
N 	N 	0.90510 0.39130 0.23780 -0.17100
N 	N 	0.69900 0.71500 0.41640 -0.16800
N 	N 	0.69510 0.76450 0.61820 -0.22900
C 	C 	0.85900 0.59610 0.26610 0.24200
C 	C 	0.92680 0.50690 0.25720 -0.17900
C 	C 	0.02690 0.53350 0.26910 0.34400
C 	C 	0.81750 0.35680 0.22740 -0.02700
H 	H 	0.80160 0.27460 0.21270 0.03200
C 	C 	0.74990 0.44150 0.23820 0.02900
H 	H 	0.68780 0.41630 0.23130 0.00700
C 	C 	0.64620 0.83580 0.54770 0.25000
C 	C 	0.64950 0.80810 0.44340 -0.16300
C 	C 	0.60080 0.87880 0.35690 0.35200
C 	C 	0.74680 0.64650 0.48710 -0.00900
H 	H 	0.78230 0.58050 0.46790 0.02500
C 	C 	0.74420 0.67220 0.58820 0.01800
H 	H 	0.77830 0.62300 0.63810 0.03300
Cu	Cu	0.98530 0.71258 0.76686 0.90700
Cu	Cu	0.68559 0.80270 0.76348 0.89600
O 	O 	0.05700 0.86130 0.78810 -0.40400
O 	O 	0.07909 0.05670 0.76080 -0.42400
O 	O 	0.87210 0.79030 0.78010 -0.41900
O 	O 	0.61380 0.65390 0.76920 -0.38600
O 	O 	0.54980 0.53410 0.87270 -0.37600
O 	O 	0.60110 0.57750 0.08020 -0.40600
N 	N 	0.77020 0.94220 0.75800 -0.21900
N 	N 	0.90510 0.10870 0.73780 -0.19000
N 	N 	0.69900 0.78500 0.91640 -0.18200
N 	N 	0.69510 0.73550 0.11820 -0.21400
C 	C 	0.85900 0.90390 0.76610 0.24200
C 	C 	0.92680 0.99310 0.75720 -0.14800
C 	C 	0.02690 0.96650 0.76910 0.39000
C 	C 	0.81750 0.14320 0.72740 -0.00800
H 	H 	0.80160 0.22540 0.71270 0.03500
C 	C 	0.74990 0.05850 0.73820 -0.01800
H 	H 	0.68780 0.08370 0.73130 0.01900
C 	C 	0.64620 0.66420 0.04770 0.19700
C 	C 	0.64950 0.69190 0.94340 -0.11200
C 	C 	0.60080 0.62120 0.85690 0.34200
C 	C 	0.74680 0.85350 0.98710 0.07200
H 	H 	0.78230 0.91950 0.96790 0.01800
C 	C 	0.74420 0.82780 0.08820 -0.05800
H 	H 	0.77830 0.87700 0.13810 0.05600
Cu	Cu	0.01470 0.21258 0.73314 0.90500
Cu	Cu	0.31441 0.30270 0.73652 0.89200
O 	O 	0.94300 0.36130 0.71190 -0.40800
O 	O 	0.92091 0.55670 0.73920 -0.38800
O 	O 	0.12790 0.29030 0.71990 -0.42400
O 	O 	0.38620 0.15390 0.73080 -0.39700
O 	O 	0.45020 0.03410 0.62730 -0.40900
O 	O 	0.39890 0.07750 0.41980 -0.42500
N 	N 	0.22980 0.44220 0.74200 -0.24400
N 	N 	0.09490 0.60870 0.76220 -0.16500
N 	N 	0.30100 0.28500 0.58360 -0.16600
N 	N 	0.30490 0.23550 0.38180 -0.23300
C 	C 	0.14100 0.40390 0.73390 0.24500
C 	C 	0.07320 0.49310 0.74280 -0.16900
C 	C 	0.97310 0.46650 0.73090 0.34300
C 	C 	0.18250 0.64320 0.77260 -0.02100
H 	H 	0.19840 0.72540 0.78730 0.05100
C 	C 	0.25010 0.55850 0.76180 0.03600
H 	H 	0.31220 0.58370 0.76870 0.01500
C 	C 	0.35380 0.16420 0.45230 0.25200
C 	C 	0.35050 0.19190 0.55660 -0.17500
C 	C 	0.39920 0.12120 0.64310 0.35600
C 	C 	0.25320 0.35350 0.51290 -0.01200
H 	H 	0.21770 0.41950 0.53210 0.02700
C 	C 	0.25580 0.32780 0.41180 0.01900
H 	H 	0.22170 0.37700 0.36190 0.03200
Cu	Cu	0.50000 0.50000 -0.00000 0.90600
Cu	Cu	0.50000 0.00000 0.50000 0.90700
