data_crystal

_cell_length_a 19.65000
_cell_length_b 19.65000
_cell_length_c 7.65600
_cell_angle_alpha 90.00000
_cell_angle_beta  90.00000
_cell_angle_gamma 120.00000

_symmetry_space_group_name_	'P 1'
_symmetry_space_group_name_H-M	'P 1'

loop_
_symmetry_equiv_pos_as_xyz
  x,y,z

loop_
_atom_site_label
_atom_site_type_symbol
_atom_site_fract_x
_atom_site_fract_y
_atom_site_fract_z
_atom_site_charge
N 	N 	0.55490 0.29760 0.52480 -0.23400
N 	N 	0.43680 0.23360 0.63820 -0.12900
N 	N 	0.22990 0.09410 0.71700 -0.10600
N 	N 	0.11180 0.03300 0.82700 -0.25200
N 	N 	0.62890 0.40850 0.17840 -0.22600
N 	N 	0.57180 0.47430 0.09170 -0.13200
C 	C 	0.48770 0.23240 0.51950 0.08800
H 	H 	0.47620 0.19060 0.44490 -0.01500
C 	C 	0.54670 0.34050 0.65390 0.00300
H 	H 	0.58590 0.39020 0.68860 0.01700
C 	C 	0.47460 0.30200 0.72450 -0.00400
H 	H 	0.45500 0.31910 0.81450 0.03300
C 	C 	0.19030 0.02590 0.62830 -0.06300
H 	H 	0.20900 0.00800 0.53810 0.04300
C 	C 	0.11800 0.98950 0.69870 0.07100
H 	H 	0.07740 0.94060 0.66340 -0.00800
C 	C 	0.17910 0.09520 0.83420 0.09000
H 	H 	0.19170 0.13650 0.91120 -0.00900
C 	C 	0.56690 0.41640 0.19510 0.08000
H 	H 	0.52480 0.38600 0.26880 -0.01200
C 	C 	0.67510 0.46220 0.05440 -0.05400
H 	H 	0.72320 0.46990 0.01490 0.02700
C 	C 	0.64010 0.50220 0.99870 0.05500
H 	H 	0.65870 0.54120 0.91350 0.01400
C 	C 	0.51760 0.50450 0.08860 -0.08900
H 	H 	0.54540 0.55960 0.12090 0.05500
H 	H 	0.47620 0.47630 0.17350 0.05500
C 	C 	0.31950 0.13280 0.74220 -0.06200
H 	H 	0.33540 0.15530 0.85790 0.04500
H 	H 	0.33770 0.09590 0.72170 0.04400
C 	C 	0.34760 0.19390 0.60680 0.01400
H 	H 	0.32820 0.23000 0.62510 0.00600
H 	H 	0.33330 0.17140 0.49060 0.00400
C 	C 	0.29950 0.16730 0.64220 -0.06700
H 	H 	0.29800 0.16740 0.51550 0.04300
H 	H 	0.30150 0.21460 0.68580 0.04500
C 	C 	0.36760 0.15990 0.70850 0.00600
H 	H 	0.36830 0.15850 0.83510 0.01000
H 	H 	0.36620 0.11320 0.66270 0.00500
N 	N 	0.70240 0.25730 0.52480 -0.23400
N 	N 	0.76640 0.20320 0.63820 -0.11700
N 	N 	0.90590 0.13580 0.71700 -0.13100
N 	N 	0.96700 0.07880 0.82700 -0.21400
N 	N 	0.59150 0.22040 0.17840 -0.22500
N 	N 	0.52570 0.09750 0.09170 -0.11000
C 	C 	0.76760 0.25530 0.51950 0.08300
H 	H 	0.80940 0.28560 0.44490 -0.01100
C 	C 	0.65950 0.20620 0.65390 0.00500
H 	H 	0.60980 0.19570 0.68860 0.01700
C 	C 	0.69800 0.17260 0.72450 -0.00900
H 	H 	0.68090 0.13590 0.81450 0.03600
C 	C 	0.97410 0.16440 0.62830 0.04000
H 	H 	0.99200 0.20100 0.53810 0.02000
C 	C 	0.01050 0.12850 0.69870 -0.05700
H 	H 	0.05940 0.13680 0.66340 0.03100
C 	C 	0.90480 0.08390 0.83420 0.09900
H 	H 	0.86350 0.05520 0.91120 -0.01400
C 	C 	0.58360 0.15050 0.19510 0.07000
H 	H 	0.61400 0.13880 0.26880 -0.01000
C 	C 	0.53780 0.21290 0.05440 -0.05100
H 	H 	0.53010 0.25330 0.01490 0.02600
C 	C 	0.49780 0.13790 0.99870 0.04800
H 	H 	0.45880 0.11750 0.91350 0.01700
C 	C 	0.49550 0.01310 0.08860 -0.25600
H 	H 	0.44040 0.98580 0.12090 0.11500
H 	H 	0.52370 0.99990 0.17350 0.11700
C 	C 	0.86720 0.18670 0.74220 -0.01500
H 	H 	0.84470 0.18010 0.85790 0.02200
H 	H 	0.90410 0.24180 0.72170 0.02500
C 	C 	0.80610 0.15370 0.60680 -0.03400
H 	H 	0.77000 0.09820 0.62510 0.02800
H 	H 	0.82860 0.16190 0.49060 0.02800
C 	C 	0.83270 0.13220 0.64220 -0.01700
H 	H 	0.83260 0.13060 0.51550 0.01900
H 	H 	0.78540 0.08690 0.68580 0.01800
C 	C 	0.84010 0.20770 0.70850 -0.04100
H 	H 	0.84150 0.20980 0.83510 0.03400
H 	H 	0.88680 0.25300 0.66270 0.03000
N 	N 	0.74270 0.44510 0.52480 -0.23400
N 	N 	0.79680 0.56320 0.63820 -0.12400
N 	N 	0.86420 0.77010 0.71700 -0.11600
N 	N 	0.92120 0.88820 0.82700 -0.22700
N 	N 	0.77960 0.37110 0.17840 -0.22700
N 	N 	0.90250 0.42820 0.09170 -0.15600
C 	C 	0.74470 0.51230 0.51950 0.08600
H 	H 	0.71440 0.52380 0.44490 -0.01300
C 	C 	0.79380 0.45330 0.65390 0.00300
H 	H 	0.80430 0.41410 0.68860 0.01700
C 	C 	0.82740 0.52540 0.72450 -0.00400
H 	H 	0.86410 0.54500 0.81450 0.03300
C 	C 	0.83560 0.80970 0.62830 -0.01000
H 	H 	0.79900 0.79100 0.53810 0.03300
C 	C 	0.87150 0.88200 0.69870 0.01100
H 	H 	0.86320 0.92260 0.66340 0.01800
C 	C 	0.91610 0.82090 0.83420 0.09700
H 	H 	0.94480 0.80830 0.91120 -0.00600
C 	C 	0.84950 0.43310 0.19510 0.09000
H 	H 	0.86120 0.47520 0.26880 -0.01300
C 	C 	0.78710 0.32490 0.05440 -0.05700
H 	H 	0.74670 0.27680 0.01490 0.02800
C 	C 	0.86210 0.35990 0.99870 0.06500
H 	H 	0.88250 0.34130 0.91350 0.01000
C 	C 	0.98690 0.48240 0.08860 0.09200
H 	H 	0.01420 0.45460 0.12090 -0.01200
H 	H 	0.00010 0.52380 0.17350 -0.01100
C 	C 	0.81330 0.68050 0.74220 -0.04400
H 	H 	0.81990 0.66460 0.85790 0.03800
H 	H 	0.75820 0.66230 0.72170 0.03700
C 	C 	0.84630 0.65240 0.60680 -0.00500
H 	H 	0.90180 0.67180 0.62510 0.01700
H 	H 	0.83810 0.66670 0.49060 0.01300
C 	C 	0.86780 0.70050 0.64220 -0.05000
H 	H 	0.86940 0.70200 0.51550 0.03800
H 	H 	0.91310 0.69850 0.68580 0.03900
C 	C 	0.79230 0.63240 0.70850 -0.00900
H 	H 	0.79020 0.63170 0.83510 0.01700
H 	H 	0.74700 0.63380 0.66270 0.01400
N 	N 	0.44510 0.70240 0.47520 -0.23300
N 	N 	0.56320 0.76640 0.36180 -0.11300
N 	N 	0.77010 0.90590 0.28300 -0.13600
N 	N 	0.88820 0.96700 0.17300 -0.22200
N 	N 	0.37110 0.59150 0.82160 -0.23900
N 	N 	0.42820 0.52570 0.90830 -0.10300
C 	C 	0.51230 0.76760 0.48050 0.08000
H 	H 	0.52380 0.80940 0.55510 -0.00900
C 	C 	0.45330 0.65950 0.34610 0.00100
H 	H 	0.41410 0.60980 0.31140 0.01300
C 	C 	0.52540 0.69800 0.27550 -0.01100
H 	H 	0.54500 0.68090 0.18550 0.02800
C 	C 	0.80970 0.97410 0.37170 0.03200
H 	H 	0.79100 0.99200 0.46190 0.02200
C 	C 	0.88200 0.01050 0.30130 -0.04700
H 	H 	0.92260 0.05940 0.33660 0.03200
C 	C 	0.82090 0.90480 0.16580 0.09800
H 	H 	0.80830 0.86350 0.08880 -0.02200
C 	C 	0.43310 0.58360 0.80490 0.08800
H 	H 	0.47520 0.61400 0.73120 -0.01100
C 	C 	0.32490 0.53780 0.94560 0.04800
H 	H 	0.27680 0.53010 0.98510 0.00600
C 	C 	0.35990 0.49780 0.00130 -0.07200
H 	H 	0.34130 0.45880 0.08650 0.04800
C 	C 	0.48240 0.49550 0.91140 -0.03100
H 	H 	0.45460 0.44040 0.87910 0.04800
H 	H 	0.52380 0.52370 0.82650 0.04400
C 	C 	0.68050 0.86720 0.25780 0.00900
H 	H 	0.66460 0.84470 0.14210 0.00600
H 	H 	0.66230 0.90410 0.27830 0.01000
C 	C 	0.65240 0.80610 0.39320 -0.05900
H 	H 	0.67180 0.77000 0.37490 0.04300
H 	H 	0.66670 0.82860 0.50940 0.04100
C 	C 	0.70050 0.83270 0.35780 -0.00100
H 	H 	0.70200 0.83260 0.48450 0.01400
H 	H 	0.69850 0.78540 0.31420 0.00700
C 	C 	0.63240 0.84010 0.29150 -0.05600
H 	H 	0.63170 0.84150 0.16490 0.03800
H 	H 	0.63380 0.88680 0.33730 0.03900
N 	N 	0.29760 0.74270 0.47520 -0.23400
N 	N 	0.23360 0.79680 0.36180 -0.12300
N 	N 	0.09410 0.86420 0.28300 -0.11400
N 	N 	0.03300 0.92120 0.17300 -0.25400
N 	N 	0.40850 0.77960 0.82160 -0.23900
N 	N 	0.47430 0.90250 0.90830 -0.12700
C 	C 	0.23240 0.74470 0.48050 0.08500
H 	H 	0.19060 0.71440 0.55510 -0.01300
C 	C 	0.34050 0.79380 0.34610 -0.00100
H 	H 	0.39020 0.80430 0.31140 0.01300
C 	C 	0.30200 0.82740 0.27550 -0.00600
H 	H 	0.31910 0.86410 0.18550 0.02500
C 	C 	0.02590 0.83560 0.37170 -0.05700
H 	H 	0.00800 0.79900 0.46190 0.04200
C 	C 	0.98950 0.87150 0.30130 0.06300
H 	H 	0.94060 0.86320 0.33660 -0.00300
C 	C 	0.09520 0.91610 0.16580 0.09100
H 	H 	0.13650 0.94480 0.08880 -0.01800
C 	C 	0.41640 0.84950 0.80490 0.09800
H 	H 	0.38600 0.86120 0.73120 -0.01300
C 	C 	0.46220 0.78710 0.94560 0.04100
H 	H 	0.46990 0.74670 0.98510 0.00800
C 	C 	0.50220 0.86210 0.00130 -0.05900
H 	H 	0.54120 0.88250 0.08650 0.04400
C 	C 	0.50450 0.98690 0.91140 0.13100
H 	H 	0.55960 0.01420 0.87910 -0.01100
H 	H 	0.47630 0.00010 0.82650 -0.01500
C 	C 	0.13280 0.81330 0.25780 -0.03100
H 	H 	0.15530 0.81990 0.14210 0.02600
H 	H 	0.09590 0.75820 0.27830 0.02500
C 	C 	0.19390 0.84630 0.39320 -0.01800
H 	H 	0.23000 0.90180 0.37490 0.02500
H 	H 	0.17140 0.83810 0.50940 0.02000
C 	C 	0.16730 0.86780 0.35780 -0.04500
H 	H 	0.16740 0.86940 0.48450 0.03600
H 	H 	0.21460 0.91310 0.31420 0.03100
C 	C 	0.15990 0.79230 0.29150 -0.01500
H 	H 	0.15850 0.79020 0.16490 0.01600
H 	H 	0.11320 0.74700 0.33730 0.01800
N 	N 	0.25730 0.55490 0.47520 -0.23400
N 	N 	0.20320 0.43680 0.36180 -0.11600
N 	N 	0.13580 0.22990 0.28300 -0.12800
N 	N 	0.07880 0.11180 0.17300 -0.24700
N 	N 	0.22040 0.62890 0.82160 -0.23800
N 	N 	0.09750 0.57180 0.90830 -0.07900
C 	C 	0.25530 0.48770 0.48050 0.08100
H 	H 	0.28560 0.47620 0.55510 -0.01100
C 	C 	0.20620 0.54670 0.34610 0.00100
H 	H 	0.19570 0.58590 0.31140 0.01300
C 	C 	0.17260 0.47460 0.27550 -0.01100
H 	H 	0.13590 0.45500 0.18550 0.02800
C 	C 	0.16440 0.19030 0.37170 -0.01400
H 	H 	0.20100 0.20900 0.46190 0.03100
C 	C 	0.12850 0.11800 0.30130 0.00200
H 	H 	0.13680 0.07740 0.33660 0.00600
C 	C 	0.08390 0.17910 0.16580 0.09200
H 	H 	0.05520 0.19170 0.08880 -0.02800
C 	C 	0.15050 0.56690 0.80490 0.07800
H 	H 	0.13880 0.52480 0.73120 -0.01000
C 	C 	0.21290 0.67510 0.94560 0.05400
H 	H 	0.25330 0.72320 0.98510 0.00400
C 	C 	0.13790 0.64010 0.00130 -0.08400
H 	H 	0.11750 0.65870 0.08650 0.05200
C 	C 	0.01310 0.51760 0.91140 -0.20500
H 	H 	0.98580 0.54540 0.87910 0.11000
H 	H 	0.99990 0.47620 0.82650 0.10700
C 	C 	0.18670 0.31950 0.25780 -0.00200
H 	H 	0.18010 0.33540 0.14210 0.00900
H 	H 	0.24180 0.33770 0.27830 0.01300
C 	C 	0.15370 0.34760 0.39320 -0.04700
H 	H 	0.09820 0.32820 0.37490 0.03600
H 	H 	0.16190 0.33330 0.50940 0.03500
C 	C 	0.13220 0.29950 0.35780 -0.01100
H 	H 	0.13060 0.29800 0.48450 0.01600
H 	H 	0.08690 0.30150 0.31420 0.00900
C 	C 	0.20770 0.36760 0.29150 -0.04700
H 	H 	0.20980 0.36830 0.16490 0.03300
H 	H 	0.25300 0.36620 0.33730 0.03400
Cd	Cd	0.66667 0.33333 0.35049 1.18800
Cd	Cd	0.33333 0.66667 0.64951 1.18900
Cd	Cd	-0.00000 0.00000 -0.00000 1.16800
