data_crystal

_cell_length_a 8.75780
_cell_length_b 11.14300
_cell_length_c 12.52900
_cell_angle_alpha 84.47900
_cell_angle_beta  81.50100
_cell_angle_gamma 71.64800

_symmetry_space_group_name_	'P 1'
_symmetry_space_group_name_H-M	'P 1'

loop_
_symmetry_equiv_pos_as_xyz
  x,y,z

loop_
_atom_site_label
_atom_site_type_symbol
_atom_site_fract_x
_atom_site_fract_y
_atom_site_fract_z
_atom_site_charge
K 	K 	0.31930 0.64005 0.95310 0.67000
K 	K 	0.94435 0.58540 0.15032 0.65200
K 	K 	0.68070 0.35995 0.04690 0.67000
K 	K 	0.05565 0.41460 0.84968 0.65200
Cu	Cu	0.67967 0.97719 0.96804 0.91700
Cu	Cu	0.32033 0.02281 0.03196 0.91700
H 	H 	0.20780 0.12410 0.82820 0.09200
H 	H 	0.17790 0.21890 0.65990 -0.01000
H 	H 	0.29860 0.27600 0.47880 0.02800
H 	H 	0.77040 0.11710 0.38480 0.01800
H 	H 	0.80050 0.99940 0.54420 0.06600
H 	H 	0.81080 0.89010 0.68040 0.05600
H 	H 	0.71340 0.83240 0.77540 0.05300
H 	H 	0.02470 0.80930 0.78500 0.14300
H 	H 	0.03520 0.88030 0.88470 0.13200
H 	H 	0.97020 0.04680 0.75220 0.13900
H 	H 	0.78710 0.11770 0.74030 0.13200
H 	H 	0.34000 0.40500 0.13500 0.52200
H 	H 	0.31900 0.36700 0.04900 0.47600
H 	H 	0.65320 0.48930 0.24280 0.26100
H 	H 	0.48380 0.66820 0.29010 -0.01200
H 	H 	0.41360 0.60790 0.20850 -0.01600
H 	H 	0.49530 0.71320 0.16760 -0.01900
H 	H 	0.79220 0.87590 0.17180 0.09200
H 	H 	0.82210 0.78110 0.34010 -0.01000
H 	H 	0.70140 0.72400 0.52120 0.02800
H 	H 	0.22960 0.88290 0.61520 0.01800
H 	H 	0.19950 0.00060 0.45580 0.06600
H 	H 	0.18920 0.10990 0.31960 0.05600
H 	H 	0.28660 0.16760 0.22460 0.05300
H 	H 	0.97530 0.19070 0.21500 0.14300
H 	H 	0.96480 0.11970 0.11530 0.13200
H 	H 	0.02980 0.95320 0.24780 0.13900
H 	H 	0.21290 0.88230 0.25970 0.13200
H 	H 	0.66000 0.59500 0.86500 0.52200
H 	H 	0.68100 0.63300 0.95100 0.47600
H 	H 	0.34680 0.51070 0.75720 0.26100
H 	H 	0.51620 0.33180 0.70990 -0.01200
H 	H 	0.58640 0.39210 0.79150 -0.01600
H 	H 	0.50470 0.28680 0.83240 -0.01900
C 	C 	0.45140 0.03430 0.80121 0.22300
C 	C 	0.29760 0.11200 0.77589 -0.22800
C 	C 	0.28010 0.16920 0.67554 0.04600
C 	C 	0.41410 0.15450 0.59492 -0.05800
C 	C 	0.39960 0.22270 0.49352 0.00900
C 	C 	0.53130 0.21180 0.41676 -0.10600
C 	C 	0.68130 0.12640 0.43751 0.04000
C 	C 	0.70000 0.05660 0.53341 -0.12400
C 	C 	0.56730 0.07040 0.61672 0.07500
C 	C 	0.58320 0.00700 0.72130 -0.10300
C 	C 	0.73730 0.90940 0.74676 -0.08200
C 	C 	0.96510 0.84680 0.85146 -0.36300
C 	C 	0.91850 0.74570 0.92736 0.38500
C 	C 	0.86100 0.06800 0.79010 -0.34200
C 	C 	0.84940 0.14550 0.88619 0.38800
C 	C 	0.52050 0.29290 0.31370 0.33400
C 	C 	0.49860 0.64180 0.21760 0.12000
C 	C 	0.54860 0.96570 0.19879 0.22300
C 	C 	0.70240 0.88800 0.22411 -0.22800
C 	C 	0.71990 0.83080 0.32446 0.04600
C 	C 	0.58590 0.84550 0.40508 -0.05800
C 	C 	0.60040 0.77730 0.50648 0.00900
C 	C 	0.46870 0.78820 0.58324 -0.10600
C 	C 	0.31870 0.87360 0.56249 0.04000
C 	C 	0.30000 0.94340 0.46659 -0.12400
C 	C 	0.43270 0.92960 0.38328 0.07500
C 	C 	0.41680 0.99300 0.27870 -0.10300
C 	C 	0.26270 0.09060 0.25324 -0.08200
C 	C 	0.03490 0.15320 0.14854 -0.36300
C 	C 	0.08150 0.25430 0.07264 0.38500
C 	C 	0.13900 0.93200 0.20990 -0.34200
C 	C 	0.15060 0.85450 0.11381 0.38800
C 	C 	0.47950 0.70710 0.68630 0.33400
C 	C 	0.50140 0.35820 0.78240 0.12000
N 	N 	0.81980 0.95062 0.82644 -0.10200
N 	N 	0.18020 0.04938 0.17356 -0.10200
O 	O 	0.47045 0.98562 0.90240 -0.46900
O 	O 	0.78233 0.78111 0.98678 -0.44500
O 	O 	0.01480 0.63776 0.92953 -0.42800
O 	O 	0.77500 0.11469 0.97541 -0.44600
O 	O 	0.90560 0.23467 0.87371 -0.38800
O 	O 	0.38490 0.34260 0.28195 -0.33300
O 	O 	0.64980 0.30790 0.26608 -0.33700
O 	O 	0.34350 0.42090 0.07391 -1.08300
O 	O 	0.64880 0.54880 0.19820 -0.48300
O 	O 	0.52955 0.01438 0.09760 -0.46900
O 	O 	0.21767 0.21889 0.01322 -0.44500
O 	O 	0.98520 0.36224 0.07047 -0.42800
O 	O 	0.22500 0.88531 0.02459 -0.44600
O 	O 	0.09440 0.76533 0.12629 -0.38800
O 	O 	0.61510 0.65740 0.71805 -0.33300
O 	O 	0.35020 0.69210 0.73392 -0.33700
O 	O 	0.65650 0.57910 0.92609 -1.08300
O 	O 	0.35120 0.45120 0.80180 -0.48300
