data_crystal

_cell_length_a 12.81740
_cell_length_b 15.03180
_cell_length_c 15.44480
_cell_angle_alpha 90.00000
_cell_angle_beta  90.00000
_cell_angle_gamma 90.00000

_symmetry_space_group_name_	'P 1'
_symmetry_space_group_name_H-M	'P 1'

loop_
_symmetry_equiv_pos_as_xyz
  x,y,z

loop_
_atom_site_label
_atom_site_type_symbol
_atom_site_fract_x
_atom_site_fract_y
_atom_site_fract_z
_atom_site_charge
Cd	Cd	0.23775 0.21634 0.22631 1.22700
Br	Br	0.09443 0.29451 0.31183 -0.45600
C 	C 	0.18410 0.11090 0.06660 0.41000
C 	C 	0.12690 0.09570 0.98250 -0.19000
C 	C 	0.15610 0.02490 0.92850 0.11700
H 	H 	0.21130 0.98820 0.94450 -0.00400
C 	C 	0.10420 0.00910 0.85270 -0.18600
C 	C 	0.02520 0.06620 0.82520 0.11000
H 	H 	0.99140 0.05690 0.77270 -0.01100
C 	C 	0.99770 0.13860 0.87900 -0.19000
C 	C 	0.04820 0.15300 0.95540 0.11700
H 	H 	0.03000 0.20150 0.98960 -0.02400
C 	C 	0.91050 0.20000 0.84910 0.36700
C 	C 	0.13300 0.93210 0.79390 0.41300
O 	O 	0.14860 0.17010 0.11430 -0.46700
O 	O 	0.26180 0.06300 0.08120 -0.48600
O 	O 	0.88430 0.26190 0.89820 -0.51600
O 	O 	0.86510 0.18260 0.77840 -0.43700
O 	O 	0.07390 0.91400 0.73290 -0.50600
O 	O 	0.21440 0.89060 0.81400 -0.45700
Cd	Cd	0.43557 0.09303 0.08785 1.16800
Cd	Cd	0.26225 0.78366 0.72631 1.22700
Br	Br	0.40557 0.70549 0.81183 -0.45600
C 	C 	0.31590 0.88910 0.56660 0.41000
C 	C 	0.37310 0.90430 0.48250 -0.18900
C 	C 	0.34390 0.97510 0.42850 0.11100
H 	H 	0.28870 0.01180 0.44450 -0.00100
C 	C 	0.39580 0.99090 0.35270 -0.18200
C 	C 	0.47480 0.93380 0.32520 0.10200
H 	H 	0.50860 0.94310 0.27270 -0.00800
C 	C 	0.50230 0.86140 0.37900 -0.18400
C 	C 	0.45180 0.84700 0.45540 0.11200
H 	H 	0.47000 0.79850 0.48960 -0.02300
C 	C 	0.58950 0.80000 0.34910 0.36500
C 	C 	0.36700 0.06790 0.29390 0.41300
O 	O 	0.35140 0.82990 0.61430 -0.46700
O 	O 	0.23820 0.93700 0.58120 -0.48600
O 	O 	0.61570 0.73810 0.39820 -0.51500
O 	O 	0.63490 0.81740 0.27840 -0.43600
O 	O 	0.42610 0.08600 0.23290 -0.50600
O 	O 	0.28560 0.10940 0.31400 -0.45700
Cd	Cd	0.06443 0.90697 0.58785 1.16800
Cd	Cd	0.76225 0.71634 0.27369 1.22700
Br	Br	0.90557 0.79451 0.18817 -0.45400
C 	C 	0.81590 0.61090 0.43340 0.41100
C 	C 	0.87310 0.59570 0.51750 -0.19000
C 	C 	0.84390 0.52490 0.57150 0.11200
H 	H 	0.78870 0.48820 0.55550 -0.00100
C 	C 	0.89580 0.50910 0.64730 -0.18400
C 	C 	0.97480 0.56620 0.67480 0.10400
H 	H 	0.00860 0.55690 0.72730 -0.00900
C 	C 	0.00230 0.63860 0.62100 -0.18600
C 	C 	0.95180 0.65300 0.54460 0.11400
H 	H 	0.97000 0.70150 0.51040 -0.02300
C 	C 	0.08950 0.70000 0.65090 0.36600
C 	C 	0.86700 0.43210 0.70610 0.41400
O 	O 	0.85140 0.67010 0.38570 -0.46600
O 	O 	0.73820 0.56300 0.41880 -0.48600
O 	O 	0.11570 0.76190 0.60180 -0.51500
O 	O 	0.13490 0.68260 0.72160 -0.43600
O 	O 	0.92610 0.41400 0.76710 -0.50600
O 	O 	0.78560 0.39060 0.68600 -0.45700
Cd	Cd	0.56443 0.59303 0.41215 1.16800
Cd	Cd	0.73775 0.28366 0.77369 1.22700
Br	Br	0.59443 0.20549 0.68817 -0.45600
C 	C 	0.68410 0.38910 0.93340 0.41000
C 	C 	0.62690 0.40430 0.01750 -0.18900
C 	C 	0.65610 0.47510 0.07150 0.11100
H 	H 	0.71130 0.51180 0.05550 -0.00100
C 	C 	0.60420 0.49090 0.14730 -0.18300
C 	C 	0.52520 0.43380 0.17480 0.10200
H 	H 	0.49140 0.44310 0.22730 -0.00800
C 	C 	0.49770 0.36140 0.12100 -0.18400
C 	C 	0.54820 0.34700 0.04460 0.11200
H 	H 	0.53000 0.29850 0.01040 -0.02300
C 	C 	0.41050 0.30000 0.15090 0.36500
C 	C 	0.63300 0.56790 0.20610 0.41300
O 	O 	0.64860 0.32990 0.88570 -0.46600
O 	O 	0.76180 0.43700 0.91880 -0.48600
O 	O 	0.38430 0.23810 0.10180 -0.51500
O 	O 	0.36510 0.31740 0.22160 -0.43600
O 	O 	0.57390 0.58600 0.26710 -0.50500
O 	O 	0.71440 0.60940 0.18600 -0.45600
Cd	Cd	0.93557 0.40697 0.91215 1.16800
