data_crystal

_cell_length_a 12.91790
_cell_length_b 15.28390
_cell_length_c 15.42660
_cell_angle_alpha 90.00000
_cell_angle_beta  90.00000
_cell_angle_gamma 90.00000

_symmetry_space_group_name_	'P 1'
_symmetry_space_group_name_H-M	'P 1'

loop_
_symmetry_equiv_pos_as_xyz
  x,y,z

loop_
_atom_site_label
_atom_site_type_symbol
_atom_site_fract_x
_atom_site_fract_y
_atom_site_fract_z
_atom_site_charge
Cd	Cd	0.25899 0.71115 0.72476 1.21400
I 	I 	0.41148 0.78646 0.82248 -0.37600
O 	O 	0.34720 0.66920 0.61100 -0.47700
O 	O 	0.23530 0.56500 0.57590 -0.48800
O 	O 	0.29300 0.39540 0.30750 -0.47200
O 	O 	0.43130 0.42350 0.22730 -0.51300
O 	O 	0.63170 0.68880 0.27700 -0.43900
O 	O 	0.61340 0.76530 0.39870 -0.51600
C 	C 	0.31330 0.61220 0.56110 0.40700
C 	C 	0.37330 0.43880 0.28820 0.42700
C 	C 	0.58580 0.70410 0.34860 0.35800
C 	C 	0.37160 0.59740 0.47710 -0.20100
C 	C 	0.34740 0.52660 0.42410 0.12500
H 	H 	0.29590 0.48760 0.44080 -0.00900
C 	C 	0.39770 0.51420 0.34880 -0.19700
C 	C 	0.47730 0.57090 0.32170 0.10300
H 	H 	0.51280 0.56110 0.27020 -0.00800
C 	C 	0.50200 0.64410 0.37580 -0.19300
C 	C 	0.44990 0.65480 0.45320 0.11400
H 	H 	0.46750 0.70100 0.48960 -0.02700
Cd	Cd	0.06313 0.59298 0.58238 1.16600
Cd	Cd	0.24101 0.28885 0.22476 1.21500
I 	I 	0.08852 0.21354 0.32248 -0.37600
O 	O 	0.15280 0.33080 0.11100 -0.47700
O 	O 	0.26470 0.43500 0.07590 -0.48900
O 	O 	0.20700 0.60460 0.80750 -0.47200
O 	O 	0.06870 0.57650 0.72730 -0.51300
O 	O 	0.86830 0.31120 0.77700 -0.43900
O 	O 	0.88660 0.23470 0.89870 -0.51600
C 	C 	0.18670 0.38780 0.06110 0.40600
C 	C 	0.12670 0.56120 0.78820 0.42800
C 	C 	0.91420 0.29590 0.84860 0.35900
C 	C 	0.12840 0.40260 0.97710 -0.20000
C 	C 	0.15260 0.47340 0.92410 0.12600
H 	H 	0.20410 0.51240 0.94080 -0.00900
C 	C 	0.10230 0.48580 0.84880 -0.19800
C 	C 	0.02270 0.42910 0.82170 0.10600
H 	H 	0.98720 0.43890 0.77020 -0.00900
C 	C 	0.99800 0.35590 0.87580 -0.19500
C 	C 	0.05010 0.34520 0.95320 0.11600
H 	H 	0.03250 0.29900 0.98960 -0.02700
Cd	Cd	0.43687 0.40702 0.08238 1.16600
Cd	Cd	0.74101 0.21115 0.77524 1.21500
I 	I 	0.58852 0.28646 0.67752 -0.37600
O 	O 	0.65280 0.16920 0.88900 -0.47700
O 	O 	0.76470 0.06500 0.92410 -0.48900
O 	O 	0.70700 0.89540 0.19250 -0.47200
O 	O 	0.56870 0.92350 0.27270 -0.51300
O 	O 	0.36830 0.18880 0.22300 -0.43900
O 	O 	0.38660 0.26530 0.10130 -0.51600
C 	C 	0.68670 0.11220 0.93890 0.40700
C 	C 	0.62670 0.93880 0.21180 0.42600
C 	C 	0.41420 0.20410 0.15140 0.35800
C 	C 	0.62840 0.09740 0.02290 -0.20100
C 	C 	0.65260 0.02660 0.07590 0.12800
H 	H 	0.70410 0.98760 0.05920 -0.01100
C 	C 	0.60230 0.01420 0.15120 -0.19700
C 	C 	0.52270 0.07090 0.17830 0.10400
H 	H 	0.48720 0.06110 0.22980 -0.00800
C 	C 	0.49800 0.14410 0.12420 -0.19300
C 	C 	0.55010 0.15480 0.04680 0.11400
H 	H 	0.53250 0.20100 0.01040 -0.02700
Cd	Cd	0.93687 0.09298 0.91762 1.16600
Cd	Cd	0.75899 0.78885 0.27524 1.21500
I 	I 	0.91148 0.71354 0.17752 -0.37600
O 	O 	0.84720 0.83080 0.38900 -0.47700
O 	O 	0.73530 0.93500 0.42410 -0.48900
O 	O 	0.79300 0.10460 0.69250 -0.47200
O 	O 	0.93130 0.07650 0.77270 -0.51300
O 	O 	0.13170 0.81120 0.72300 -0.43900
O 	O 	0.11340 0.73470 0.60130 -0.51600
C 	C 	0.81330 0.88780 0.43890 0.40800
C 	C 	0.87330 0.06120 0.71180 0.42800
C 	C 	0.08580 0.79590 0.65140 0.35900
C 	C 	0.87160 0.90260 0.52290 -0.20200
C 	C 	0.84740 0.97340 0.57590 0.12700
H 	H 	0.79590 0.01240 0.55920 -0.01000
C 	C 	0.89770 0.98580 0.65120 -0.19900
C 	C 	0.97730 0.92910 0.67830 0.10800
H 	H 	0.01280 0.93890 0.72980 -0.01000
C 	C 	0.00200 0.85590 0.62420 -0.19700
C 	C 	0.94990 0.84520 0.54680 0.11800
H 	H 	0.96750 0.79900 0.51040 -0.02800
Cd	Cd	0.56313 0.90702 0.41762 1.16600
