data_crystal

_cell_length_a 12.77920
_cell_length_b 14.81750
_cell_length_c 15.47370
_cell_angle_alpha 90.00000
_cell_angle_beta  90.00000
_cell_angle_gamma 90.00000

_symmetry_space_group_name_	'P 1'
_symmetry_space_group_name_H-M	'P 1'

loop_
_symmetry_equiv_pos_as_xyz
  x,y,z

loop_
_atom_site_label
_atom_site_type_symbol
_atom_site_fract_x
_atom_site_fract_y
_atom_site_fract_z
_atom_site_charge
Cd	Cd	0.23507 0.71983 0.27248 1.23900
Cd	Cd	0.43340 0.59261 0.40875 1.17100
Cl	Cl	0.10030 0.79920 0.19324 -0.50700
O 	O 	0.25990 0.56250 0.41430 -0.48000
O 	O 	0.14550 0.67080 0.38230 -0.45000
O 	O 	0.88130 0.76010 0.60180 -0.51700
O 	O 	0.86410 0.67860 0.71890 -0.44200
O 	O 	0.07890 0.40890 0.76430 -0.50200
O 	O 	0.21860 0.38700 0.68270 -0.45300
C 	C 	0.18220 0.61060 0.43160 0.40300
C 	C 	0.90890 0.69720 0.65050 0.39300
C 	C 	0.13790 0.42840 0.70230 0.41700
C 	C 	0.12670 0.59440 0.51450 -0.19700
C 	C 	0.04710 0.65230 0.54320 0.12000
H 	H 	0.02820 0.70170 0.50950 -0.02400
C 	C 	0.99610 0.63690 0.62090 -0.20300
C 	C 	0.02610 0.56360 0.67220 0.12500
H 	H 	0.99200 0.55260 0.72420 -0.01500
C 	C 	0.10630 0.50760 0.64560 -0.19600
C 	C 	0.15540 0.52360 0.56880 0.12400
H 	H 	0.20990 0.48590 0.55200 -0.00300
Cd	Cd	0.26493 0.28017 0.77248 1.23800
Cd	Cd	0.06660 0.40739 0.90875 1.17100
Cl	Cl	0.39970 0.20080 0.69324 -0.50800
O 	O 	0.24010 0.43750 0.91430 -0.48000
O 	O 	0.35450 0.32920 0.88230 -0.45000
O 	O 	0.61870 0.23990 0.10180 -0.51700
O 	O 	0.63590 0.32140 0.21890 -0.44200
O 	O 	0.42110 0.59110 0.26430 -0.50200
O 	O 	0.28140 0.61300 0.18270 -0.45300
C 	C 	0.31780 0.38940 0.93160 0.40300
C 	C 	0.59110 0.30280 0.15050 0.39200
C 	C 	0.36210 0.57160 0.20230 0.41700
C 	C 	0.37330 0.40560 0.01450 -0.19600
C 	C 	0.45290 0.34770 0.04320 0.11800
H 	H 	0.47180 0.29830 0.00950 -0.02400
C 	C 	0.50390 0.36310 0.12090 -0.20100
C 	C 	0.47390 0.43640 0.17220 0.12300
H 	H 	0.50800 0.44740 0.22420 -0.01500
C 	C 	0.39370 0.49240 0.14560 -0.19500
C 	C 	0.34460 0.47640 0.06880 0.12300
H 	H 	0.29010 0.51410 0.05200 -0.00300
Cd	Cd	0.76493 0.21983 0.22752 1.23800
Cd	Cd	0.56660 0.09261 0.09125 1.17000
Cl	Cl	0.89970 0.29920 0.30676 -0.50900
O 	O 	0.74010 0.06250 0.08570 -0.48000
O 	O 	0.85450 0.17080 0.11770 -0.45100
O 	O 	0.11870 0.26010 0.89820 -0.51700
O 	O 	0.13590 0.17860 0.78110 -0.44300
O 	O 	0.92110 0.90890 0.73570 -0.50300
O 	O 	0.78140 0.88700 0.81730 -0.45300
C 	C 	0.81780 0.11060 0.06840 0.40200
C 	C 	0.09110 0.19720 0.84950 0.39400
C 	C 	0.86210 0.92840 0.79770 0.41700
C 	C 	0.87330 0.09440 0.98550 -0.19800
C 	C 	0.95290 0.15230 0.95680 0.12300
H 	H 	0.97180 0.20170 0.99050 -0.02400
C 	C 	0.00390 0.13690 0.87910 -0.20700
C 	C 	0.97390 0.06360 0.82780 0.13100
H 	H 	0.00800 0.05260 0.77580 -0.01800
C 	C 	0.89370 0.00760 0.85440 -0.19800
C 	C 	0.84460 0.02360 0.93120 0.12900
H 	H 	0.79010 0.98590 0.94800 -0.00600
Cd	Cd	0.73507 0.78017 0.72752 1.23800
Cd	Cd	0.93340 0.90739 0.59125 1.17000
Cl	Cl	0.60030 0.70080 0.80676 -0.50800
O 	O 	0.75990 0.93750 0.58570 -0.48000
O 	O 	0.64550 0.82920 0.61770 -0.45000
O 	O 	0.38130 0.73990 0.39820 -0.51600
O 	O 	0.36410 0.82140 0.28110 -0.44200
O 	O 	0.57890 0.09110 0.23570 -0.50200
O 	O 	0.71860 0.11300 0.31730 -0.45300
C 	C 	0.68220 0.88940 0.56840 0.40300
C 	C 	0.40890 0.80280 0.34950 0.39200
C 	C 	0.63790 0.07160 0.29770 0.41600
C 	C 	0.62670 0.90560 0.48550 -0.19600
C 	C 	0.54710 0.84770 0.45680 0.11800
H 	H 	0.52820 0.79830 0.49050 -0.02300
C 	C 	0.49610 0.86310 0.37910 -0.20100
C 	C 	0.52610 0.93640 0.32780 0.12300
H 	H 	0.49200 0.94740 0.27580 -0.01400
C 	C 	0.60630 0.99240 0.35440 -0.19400
C 	C 	0.65540 0.97640 0.43120 0.12300
H 	H 	0.70990 0.01410 0.44800 -0.00300
