data_crystal

_cell_length_a 12.95200
_cell_length_b 13.84900
_cell_length_c 14.67900
_cell_angle_alpha 112.46000
_cell_angle_beta  99.57400
_cell_angle_gamma 108.47200

_symmetry_space_group_name_	'P 1'
_symmetry_space_group_name_H-M	'P 1'

loop_
_symmetry_equiv_pos_as_xyz
  x,y,z

loop_
_atom_site_label
_atom_site_type_symbol
_atom_site_fract_x
_atom_site_fract_y
_atom_site_fract_z
_atom_site_charge
Mo	Mo	0.23058 0.88965 0.66989 1.19600
Mo	Mo	0.76942 0.11035 0.33011 1.19600
H 	H 	0.23890 0.11260 0.65520 0.13000
H 	H 	0.10050 0.82240 0.45430 0.12500
H 	H 	0.18280 0.67650 0.70720 0.13700
H 	H 	0.96180 0.71740 0.57080 0.13900
H 	H 	0.45710 0.78670 0.80260 0.12500
H 	H 	0.48600 0.05240 0.81730 0.14400
H 	H 	0.28550 0.04370 0.48360 0.12500
H 	H 	0.30130 0.79600 0.47610 0.14500
H 	H 	0.33880 0.29630 0.56850 0.06800
H 	H 	0.36650 0.27650 0.66760 0.06500
H 	H 	0.23250 0.39690 0.64340 0.10900
H 	H 	0.26950 0.38260 0.74430 0.09500
H 	H 	0.36380 0.45800 0.71380 0.09000
H 	H 	0.14520 0.80770 0.26190 0.06600
H 	H 	0.06330 0.70890 0.27950 0.07500
H 	H 	0.90390 0.69150 0.15940 0.09600
H 	H 	0.98860 0.78670 0.13950 0.10800
H 	H 	0.99590 0.66660 0.10630 0.08700
H 	H 	0.18650 0.63920 0.84390 0.08000
H 	H 	0.13560 0.50630 0.81200 0.07000
H 	H 	0.01560 0.64660 0.85960 0.09600
H 	H 	0.95560 0.51160 0.81600 0.10000
H 	H 	0.05290 0.58940 0.92660 0.08600
H 	H 	0.79100 0.70700 0.59750 0.07600
H 	H 	0.78940 0.65080 0.67300 0.06700
H 	H 	0.62580 0.48710 0.54200 0.10500
H 	H 	0.60370 0.59990 0.58490 0.08900
H 	H 	0.62450 0.55450 0.47590 0.09600
H 	H 	0.70990 0.79370 0.88480 0.05400
H 	H 	0.58400 0.70640 0.80650 0.04100
H 	H 	0.65170 0.74320 0.01170 0.12200
H 	H 	0.54060 0.64120 0.91890 0.10500
H 	H 	0.66440 0.64570 0.91920 0.10400
H 	H 	0.65380 0.19320 0.82910 0.09100
H 	H 	0.76100 0.25260 0.93180 0.08300
H 	H 	0.57090 0.30970 0.91250 0.08300
H 	H 	0.66790 0.36210 0.02080 0.07900
H 	H 	0.69900 0.38970 0.93110 0.07600
H 	H 	0.33650 0.17090 0.35130 0.06600
H 	H 	0.22410 0.08460 0.35400 0.07800
H 	H 	0.31920 0.02700 0.19140 0.11400
H 	H 	0.20640 0.94090 0.19400 0.10800
H 	H 	0.20680 0.05040 0.18290 0.10700
H 	H 	0.24930 0.64370 0.24210 0.06700
H 	H 	0.25140 0.62330 0.34120 0.08000
H 	H 	0.41180 0.60750 0.23360 0.09800
H 	H 	0.41900 0.59200 0.33560 0.09400
H 	H 	0.31470 0.50190 0.23140 0.08800
H 	H 	0.76110 0.88740 0.34480 0.13000
H 	H 	0.89950 0.17760 0.54570 0.12500
H 	H 	0.81720 0.32350 0.29280 0.13700
H 	H 	0.03820 0.28260 0.42920 0.13900
H 	H 	0.54290 0.21330 0.19740 0.12500
H 	H 	0.51400 0.94760 0.18270 0.14400
H 	H 	0.71450 0.95630 0.51640 0.12500
H 	H 	0.69870 0.20400 0.52390 0.14500
H 	H 	0.66120 0.70370 0.43150 0.06800
H 	H 	0.63350 0.72350 0.33240 0.06500
H 	H 	0.76750 0.60310 0.35660 0.10900
H 	H 	0.73050 0.61740 0.25570 0.09500
H 	H 	0.63620 0.54200 0.28620 0.09000
H 	H 	0.85480 0.19230 0.73810 0.06600
H 	H 	0.93670 0.29110 0.72050 0.07500
H 	H 	0.09610 0.30850 0.84060 0.09600
H 	H 	0.01140 0.21330 0.86050 0.10800
H 	H 	0.00410 0.33340 0.89370 0.08700
H 	H 	0.81350 0.36080 0.15610 0.08000
H 	H 	0.86440 0.49370 0.18800 0.07000
H 	H 	0.98440 0.35340 0.14040 0.09600
H 	H 	0.04440 0.48840 0.18400 0.10000
H 	H 	0.94710 0.41060 0.07340 0.08600
H 	H 	0.20900 0.29300 0.40250 0.07600
H 	H 	0.21060 0.34920 0.32700 0.06700
H 	H 	0.37420 0.51290 0.45800 0.10500
H 	H 	0.39630 0.40010 0.41510 0.08900
H 	H 	0.37550 0.44550 0.52410 0.09600
H 	H 	0.29010 0.20630 0.11520 0.05400
H 	H 	0.41600 0.29360 0.19350 0.04100
H 	H 	0.34830 0.25680 0.98830 0.12200
H 	H 	0.45940 0.35880 0.08110 0.10500
H 	H 	0.33560 0.35430 0.08080 0.10400
H 	H 	0.34620 0.80680 0.17090 0.09100
H 	H 	0.23900 0.74740 0.06820 0.08300
H 	H 	0.42910 0.69030 0.08750 0.08300
H 	H 	0.33210 0.63790 0.97920 0.07900
H 	H 	0.30100 0.61030 0.06890 0.07600
H 	H 	0.66350 0.82910 0.64870 0.06600
H 	H 	0.77590 0.91540 0.64600 0.07800
H 	H 	0.68080 0.97300 0.80860 0.11400
H 	H 	0.79360 0.05910 0.80600 0.10800
H 	H 	0.79320 0.94960 0.81710 0.10700
H 	H 	0.75070 0.35630 0.75790 0.06700
H 	H 	0.74860 0.37670 0.65880 0.08000
H 	H 	0.58820 0.39250 0.76640 0.09800
H 	H 	0.58100 0.40800 0.66440 0.09400
H 	H 	0.68530 0.49810 0.76860 0.08800
Rh	Rh	0.03464 0.96822 0.55978 0.84800
Rh	Rh	0.06787 0.59336 0.51925 0.85500
Rh	Rh	0.42030 0.95128 0.92025 0.86000
Rh	Rh	0.44345 0.00010 0.55763 0.85600
Rh	Rh	0.96536 0.03178 0.44022 0.84800
Rh	Rh	0.93213 0.40664 0.48075 0.85500
Rh	Rh	0.57970 0.04872 0.07975 0.86000
Rh	Rh	0.55655 0.99990 0.44237 0.85600
C 	C 	0.19790 0.17840 0.57250 0.23100
C 	C 	0.30920 0.28560 0.62280 -0.15400
C 	C 	0.29230 0.39000 0.68670 -0.27400
C 	C 	0.04880 0.86090 0.35090 0.23200
C 	C 	0.06750 0.77260 0.26400 -0.16200
C 	C 	0.98130 0.72510 0.15780 -0.26100
C 	C 	0.07740 0.53890 0.69330 0.24100
C 	C 	0.11650 0.56730 0.80640 -0.16700
C 	C 	0.02740 0.57980 0.85650 -0.25500
C 	C 	0.85100 0.58290 0.55680 0.23400
C 	C 	0.77220 0.63370 0.59950 -0.15400
C 	C 	0.64540 0.56250 0.54590 -0.26800
C 	C 	0.58700 0.85200 0.92140 0.21000
C 	C 	0.62930 0.75830 0.88020 -0.10500
C 	C 	0.62080 0.69150 0.93730 -0.32000
C 	C 	0.61680 0.14100 0.93770 0.25800
C 	C 	0.67770 0.22850 0.90540 -0.19700
C 	C 	0.65160 0.33150 0.94600 -0.21600
C 	C 	0.36480 0.05190 0.38960 0.23300
C 	C 	0.29210 0.08990 0.33170 -0.15200
C 	C 	0.25260 0.02090 0.21460 -0.28200
C 	C 	0.37580 0.77960 0.37550 0.23600
C 	C 	0.30010 0.65280 0.30510 -0.16300
C 	C 	0.36730 0.58230 0.27370 -0.25800
C 	C 	0.80210 0.82160 0.42750 0.23100
C 	C 	0.69080 0.71440 0.37720 -0.15400
C 	C 	0.70770 0.61000 0.31330 -0.27400
C 	C 	0.95120 0.13910 0.64910 0.23200
C 	C 	0.93250 0.22740 0.73600 -0.16200
C 	C 	0.01870 0.27490 0.84220 -0.26100
C 	C 	0.92260 0.46110 0.30670 0.24100
C 	C 	0.88350 0.43270 0.19360 -0.16700
C 	C 	0.97260 0.42020 0.14350 -0.25500
C 	C 	0.14900 0.41710 0.44320 0.23400
C 	C 	0.22780 0.36630 0.40050 -0.15400
C 	C 	0.35460 0.43750 0.45410 -0.26800
C 	C 	0.41300 0.14800 0.07860 0.21000
C 	C 	0.37070 0.24170 0.11980 -0.10500
C 	C 	0.37920 0.30850 0.06270 -0.32000
C 	C 	0.38320 0.85900 0.06230 0.25800
C 	C 	0.32230 0.77150 0.09460 -0.19700
C 	C 	0.34840 0.66850 0.05400 -0.21600
C 	C 	0.63520 0.94810 0.61040 0.23300
C 	C 	0.70790 0.91010 0.66830 -0.15200
C 	C 	0.74740 0.97910 0.78540 -0.28200
C 	C 	0.62420 0.22040 0.62450 0.23600
C 	C 	0.69990 0.34720 0.69490 -0.16300
C 	C 	0.63270 0.41770 0.72630 -0.25800
N 	N 	0.18120 0.10280 0.60750 -0.34800
N 	N 	0.06970 0.86600 0.44330 -0.34900
N 	N 	0.12340 0.61330 0.66210 -0.35000
N 	N 	0.94830 0.64630 0.55500 -0.34700
N 	N 	0.49130 0.84270 0.86590 -0.33500
N 	N 	0.51440 0.05950 0.87870 -0.35000
N 	N 	0.34590 0.03700 0.46860 -0.34300
N 	N 	0.35670 0.83520 0.46090 -0.35300
N 	N 	0.81880 0.89720 0.39250 -0.34800
N 	N 	0.93030 0.13400 0.55670 -0.34900
N 	N 	0.87660 0.38670 0.33790 -0.35000
N 	N 	0.05170 0.35370 0.44500 -0.34700
N 	N 	0.50870 0.15730 0.13410 -0.33500
N 	N 	0.48560 0.94050 0.12130 -0.35000
N 	N 	0.65410 0.96300 0.53140 -0.34300
N 	N 	0.64330 0.16480 0.53910 -0.35300
O 	O 	0.12250 0.16550 0.49510 -0.37100
O 	O 	0.01410 0.93000 0.33080 -0.36500
O 	O 	0.99500 0.43980 0.63080 -0.37000
O 	O 	0.81860 0.47340 0.52470 -0.36300
O 	O 	0.64470 0.93440 0.01390 -0.35800
O 	O 	0.66740 0.15350 0.02640 -0.37900
O 	O 	0.44990 0.03940 0.35930 -0.37500
O 	O 	0.45660 0.82920 0.34710 -0.36800
O 	O 	0.10720 0.91770 0.67430 -0.46700
O 	O 	0.19200 0.76450 0.55140 -0.48900
O 	O 	0.27300 0.86390 0.77480 -0.47900
O 	O 	0.34320 0.00430 0.67160 -0.47500
O 	O 	0.87750 0.83450 0.50490 -0.37100
O 	O 	0.98590 0.07000 0.66920 -0.36500
O 	O 	0.00500 0.56020 0.36920 -0.37000
O 	O 	0.18140 0.52660 0.47530 -0.36300
O 	O 	0.35530 0.06560 0.98610 -0.35800
O 	O 	0.33260 0.84650 0.97360 -0.37900
O 	O 	0.55010 0.96060 0.64070 -0.37500
O 	O 	0.54340 0.17080 0.65290 -0.36800
O 	O 	0.89280 0.08230 0.32570 -0.46700
O 	O 	0.80800 0.23550 0.44860 -0.48900
O 	O 	0.72700 0.13610 0.22520 -0.47900
O 	O 	0.65680 0.99570 0.32840 -0.47500
