data_crystal

_cell_length_a 12.38250
_cell_length_b 13.01280
_cell_length_c 15.37290
_cell_angle_alpha 91.35100
_cell_angle_beta  94.86400
_cell_angle_gamma 98.73000

_symmetry_space_group_name_	'P 1'
_symmetry_space_group_name_H-M	'P 1'

loop_
_symmetry_equiv_pos_as_xyz
  x,y,z

loop_
_atom_site_label
_atom_site_type_symbol
_atom_site_fract_x
_atom_site_fract_y
_atom_site_fract_z
_atom_site_charge
Cd	Cd	0.50831 0.61494 0.42338 1.22800
Cd	Cd	0.82384 0.19277 0.14949 1.22100
Cd	Cd	0.49169 0.38506 0.57662 1.22900
Cd	Cd	0.17616 0.80723 0.85051 1.22200
H 	H 	0.41300 0.75920 0.78810 -0.01300
H 	H 	0.64710 0.21100 0.61900 -0.00100
H 	H 	0.56790 0.46360 0.92450 0.33600
H 	H 	0.17160 0.23280 0.42760 0.33200
H 	H 	0.78210 0.40600 0.62960 -0.01300
H 	H 	0.11620 0.83330 0.45380 0.00500
H 	H 	0.56160 0.86930 0.02130 0.06400
H 	H 	0.59830 0.79650 0.72930 -0.01300
H 	H 	0.43800 0.14650 0.80340 0.01000
H 	H 	0.64540 0.36810 0.40650 -0.01000
H 	H 	0.91150 0.82370 0.05280 0.02400
H 	H 	0.42930 0.34740 0.86500 0.14800
H 	H 	0.83000 0.53900 0.55100 0.15100
H 	H 	0.64960 0.81580 0.14010 -0.00800
H 	H 	0.08850 0.17630 0.94720 0.02400
H 	H 	0.57070 0.65260 0.13500 0.14800
H 	H 	0.08870 0.55690 0.26030 0.04900
H 	H 	0.72110 0.99430 0.28090 0.00500
H 	H 	0.33530 0.53640 0.13500 0.33900
H 	H 	0.51620 0.72210 0.91670 0.10900
H 	H 	0.25280 0.37110 0.25310 0.41100
H 	H 	0.92690 0.25640 0.69550 0.24400
H 	H 	0.84820 0.52530 0.78210 0.03800
H 	H 	0.81000 0.07620 0.49060 0.00700
H 	H 	0.98720 0.17230 0.65410 0.24600
H 	H 	0.94300 0.90850 0.82400 -0.02900
H 	H 	0.99230 0.41500 0.43350 0.07900
H 	H 	0.88380 0.16670 0.54620 0.00500
H 	H 	0.78230 0.25150 0.39050 0.05300
H 	H 	0.21790 0.59400 0.37040 -0.01300
H 	H 	0.68530 0.97690 0.90130 0.26500
H 	H 	0.17000 0.46100 0.44900 0.15100
H 	H 	0.11080 0.82230 0.13760 -0.00000
H 	H 	0.69190 0.32350 0.79050 0.35700
H 	H 	0.01280 0.82770 0.34590 0.24600
H 	H 	0.72070 0.71330 0.68040 0.41400
H 	H 	0.56490 0.81950 0.63180 -0.00300
H 	H 	0.02790 0.52630 0.39900 0.08400
H 	H 	0.93500 0.79170 0.63670 0.33400
H 	H 	0.81930 0.73940 0.75200 0.33500
H 	H 	0.15180 0.47470 0.21790 0.03800
H 	H 	0.82950 0.08250 0.91000 0.01600
H 	H 	0.07310 0.74360 0.30450 0.24400
H 	H 	0.54130 0.64360 0.98870 0.09200
H 	H 	0.33180 0.01190 0.51710 0.24800
H 	H 	0.18070 0.26060 0.24800 0.33500
H 	H 	0.74520 0.88350 0.87770 0.25200
H 	H 	0.43210 0.53640 0.07550 0.33600
H 	H 	0.74720 0.62890 0.74690 0.41100
H 	H 	0.68120 0.43760 0.96380 0.34700
H 	H 	0.70780 0.46420 0.68570 -0.02900
H 	H 	0.08310 0.54050 0.63870 0.09900
H 	H 	0.56200 0.85350 0.19660 0.01000
H 	H 	0.43680 0.05790 0.47230 0.24200
H 	H 	0.64940 0.20870 0.81420 0.37500
H 	H 	0.74250 0.27690 0.87500 0.36100
H 	H 	0.35060 0.79130 0.18580 0.37500
H 	H 	0.56320 0.94210 0.52770 0.24200
H 	H 	0.00770 0.58500 0.56650 0.07900
H 	H 	0.42810 0.62590 0.93210 0.11700
H 	H 	0.57190 0.37410 0.06790 0.11700
H 	H 	0.78400 0.95580 0.06030 -0.00600
H 	H 	0.66820 0.98810 0.48290 0.24800
H 	H 	0.46280 0.01910 0.65460 0.03100
H 	H 	0.46820 0.89840 0.07690 0.07100
H 	H 	0.65670 0.87500 0.51760 0.22700
H 	H 	0.27930 0.28670 0.31960 0.41400
H 	H 	0.31470 0.02310 0.09870 0.26500
H 	H 	0.62170 0.88170 0.84430 0.26200
H 	H 	0.58700 0.24080 0.21190 -0.01300
H 	H 	0.35460 0.63190 0.59350 -0.01000
H 	H 	0.97210 0.47370 0.60100 0.08400
H 	H 	0.05700 0.09150 0.17600 -0.02900
H 	H 	0.45870 0.35640 0.01130 0.09200
H 	H 	0.01080 0.81500 0.24410 0.25700
H 	H 	0.30810 0.67650 0.20950 0.35700
H 	H 	0.34330 0.12500 0.48240 0.22700
H 	H 	0.40170 0.20350 0.27070 -0.01300
H 	H 	0.53720 0.98090 0.34540 0.03100
H 	H 	0.25750 0.72310 0.12500 0.36100
H 	H 	0.27890 0.00570 0.71910 0.00500
H 	H 	0.17050 0.91750 0.09000 0.01600
H 	H 	0.91690 0.45950 0.36130 0.09900
H 	H 	0.31880 0.56240 0.03620 0.34700
H 	H 	0.35040 0.18420 0.85990 -0.00800
H 	H 	0.98920 0.18500 0.75590 0.25700
H 	H 	0.43510 0.18050 0.36820 -0.00300
H 	H 	0.06670 0.28030 0.44670 0.33400
H 	H 	0.43840 0.13070 0.97870 0.06400
H 	H 	0.06500 0.20830 0.36330 0.33400
H 	H 	0.91130 0.44310 0.73970 0.04900
H 	H 	0.19000 0.92380 0.50940 0.00700
H 	H 	0.29220 0.53580 0.31430 -0.02900
H 	H 	0.82840 0.76720 0.57240 0.33200
H 	H 	0.37830 0.11830 0.15570 0.26200
H 	H 	0.66470 0.46360 0.86500 0.33900
H 	H 	0.21770 0.74850 0.60950 0.05300
H 	H 	0.88920 0.17770 0.86240 -0.00000
H 	H 	0.35290 0.78900 0.38100 -0.00100
H 	H 	0.21600 0.04420 0.93970 -0.00600
H 	H 	0.53180 0.10160 0.92310 0.07100
H 	H 	0.48380 0.27790 0.08330 0.10900
H 	H 	0.25480 0.11650 0.12230 0.25200
H 	H 	0.93330 0.71970 0.55330 0.33400
C 	C 	0.10930 0.26040 0.40170 -1.04200
C 	C 	0.21500 0.93020 0.37810 -0.23600
C 	C 	0.30270 0.01270 0.38250 0.27500
C 	C 	0.62980 0.43080 0.91280 -1.08800
C 	C 	0.14350 0.03390 0.91570 0.02800
C 	C 	0.32190 0.42210 0.46760 0.45500
C 	C 	0.48520 0.67730 0.95990 -0.31400
C 	C 	0.78500 0.06980 0.62190 -0.23600
C 	C 	0.27370 0.02130 0.22570 0.29500
C 	C 	0.77350 0.68300 0.71270 -1.19400
C 	C 	0.12590 0.89760 0.13760 0.02400
C 	C 	0.33210 0.06020 0.30500 -0.24200
C 	C 	0.59140 0.31570 0.88930 0.61900
C 	C 	0.94580 0.18800 0.70150 -0.76800
C 	C 	0.26210 0.74540 0.56400 -0.04400
C 	C 	0.51480 0.32270 0.04010 -0.31400
C 	C 	0.18960 0.87250 0.46260 0.03000
C 	C 	0.67220 0.04190 0.27490 0.00500
C 	C 	0.51070 0.84420 0.06340 -0.14300
C 	C 	0.66790 0.93980 0.69500 -0.24200
C 	C 	0.84040 0.10780 0.69970 0.29500
C 	C 	0.35900 0.05600 0.47200 -0.74100
C 	C 	0.85650 0.96610 0.08430 0.02800
C 	C 	0.01990 0.67340 0.74700 0.41400
C 	C 	0.42320 0.15060 0.30910 0.05000
C 	C 	0.81320 0.05990 0.77590 -0.24500
C 	C 	0.77640 0.47170 0.65870 0.06000
C 	C 	0.89070 0.73960 0.59830 -1.04200
C 	C 	0.64100 0.94400 0.52800 -0.74100
C 	C 	0.12680 0.49820 0.27200 -0.13000
C 	C 	0.05140 0.40960 0.31140 -0.19700
C 	C 	0.56430 0.25600 0.97080 -0.16000
C 	C 	0.57170 0.80950 0.14700 0.08700
C 	C 	0.57680 0.84940 0.69090 0.05000
C 	C 	0.40270 0.82180 0.76330 0.07300
C 	C 	0.85070 0.64270 0.65130 0.60300
C 	C 	0.07480 0.11020 0.92070 -0.03800
C 	C 	0.15960 0.89220 0.30030 0.29500
C 	C 	0.59730 0.17820 0.23670 0.07300
C 	C 	0.69730 0.98730 0.61750 0.27500
C 	C 	0.92520 0.88980 0.07930 -0.03800
C 	C 	0.56850 0.03340 0.31130 -0.01400
C 	C 	0.30860 0.07480 0.14290 -0.79300
C 	C 	0.22030 0.44180 0.40770 -0.42500
C 	C 	0.00860 0.54290 0.61690 -0.24300
C 	C 	0.99140 0.45710 0.38310 -0.24300
C 	C 	0.18680 0.94010 0.22410 -0.24500
C 	C 	0.81040 0.12750 0.53740 0.03000
C 	C 	0.52630 0.69820 0.16250 -0.42300
C 	C 	0.87320 0.50180 0.72800 -0.13000
C 	C 	0.98010 0.32660 0.25300 0.41400
C 	C 	0.43150 0.96660 0.68870 -0.01400
C 	C 	0.72630 0.97870 0.77430 0.29500
C 	C 	0.34120 0.68280 0.55420 0.04700
C 	C 	0.99650 0.95940 0.85180 0.08600
C 	C 	0.94860 0.59040 0.68860 -0.19700
C 	C 	0.37020 0.56920 0.08720 -1.08800
C 	C 	0.43570 0.74400 0.02920 -0.16000
C 	C 	0.47680 0.32640 0.74260 0.44200
C 	C 	0.40860 0.68430 0.11070 0.61900
C 	C 	0.73790 0.25460 0.43600 -0.04400
C 	C 	0.65880 0.31720 0.44580 0.04700
C 	C 	0.52320 0.67360 0.25740 0.44200
C 	C 	0.66580 0.23760 0.02860 0.33700
C 	C 	0.65890 0.23120 0.56250 0.04300
C 	C 	0.32350 0.72220 0.16250 -1.13700
C 	C 	0.67810 0.57790 0.53240 0.45500
C 	C 	0.48930 0.15580 0.93660 -0.14300
C 	C 	0.33420 0.76240 0.97140 0.33700
C 	C 	0.77970 0.55820 0.59230 -0.42500
C 	C 	0.87410 0.10240 0.86240 0.02400
C 	C 	0.42830 0.19050 0.85300 0.08700
C 	C 	0.00350 0.04060 0.14820 0.08600
C 	C 	0.22650 0.31700 0.28730 -1.19400
C 	C 	0.69140 0.92520 0.85710 -0.79300
C 	C 	0.67650 0.27780 0.83750 -1.13700
C 	C 	0.32780 0.95810 0.72510 0.00500
C 	C 	0.05420 0.81200 0.29850 -0.76800
C 	C 	0.47370 0.30180 0.83750 -0.42300
C 	C 	0.14930 0.35730 0.34870 0.60300
C 	C 	0.22360 0.52830 0.34130 0.06000
C 	C 	0.34110 0.76880 0.43750 0.04300
N 	N 	0.90310 0.05250 0.12530 -0.25000
N 	N 	0.01900 0.94180 0.12530 -0.12400
N 	N 	0.39560 0.70040 0.48590 -0.25300
N 	N 	0.60440 0.29960 0.51410 -0.25300
N 	N 	0.31280 0.86820 0.77020 -0.23100
N 	N 	0.68720 0.13180 0.22980 -0.23100
N 	N 	0.47510 0.87830 0.71600 -0.13000
N 	N 	0.09690 0.94750 0.87470 -0.25000
N 	N 	0.52490 0.12170 0.28400 -0.13000
N 	N 	0.98100 0.05820 0.87470 -0.12400
N 	N 	0.26520 0.80160 0.49030 -0.11600
N 	N 	0.73480 0.19840 0.50970 -0.11600
O 	O 	0.98560 0.30520 0.17210 -0.43200
O 	O 	0.47060 0.25440 0.68820 -0.42200
O 	O 	0.01440 0.69480 0.82790 -0.43200
O 	O 	0.29940 0.84760 0.98010 -0.40700
O 	O 	0.58570 0.55070 0.55570 -0.54900
O 	O 	0.31080 0.37240 0.53390 -0.47400
O 	O 	0.49730 0.41660 0.71760 -0.46800
O 	O 	0.41430 0.44930 0.44430 -0.54900
O 	O 	0.52940 0.74560 0.31180 -0.42200
O 	O 	0.50270 0.58340 0.28240 -0.46800
O 	O 	0.90750 0.27320 0.27680 -0.46300
O 	O 	0.68920 0.62760 0.46610 -0.47400
O 	O 	0.70060 0.15240 0.01990 -0.40700
O 	O 	0.09250 0.72680 0.72320 -0.46300
O 	O 	0.71580 0.30380 0.08160 -0.42700
O 	O 	0.28420 0.69620 0.91840 -0.42700
