data_crystal

_cell_length_a 16.13690
_cell_length_b 12.88090
_cell_length_c 22.40440
_cell_angle_alpha 90.00000
_cell_angle_beta  106.29400
_cell_angle_gamma 90.00000

_symmetry_space_group_name_	'P 1'
_symmetry_space_group_name_H-M	'P 1'

loop_
_symmetry_equiv_pos_as_xyz
  x,y,z

loop_
_atom_site_label
_atom_site_type_symbol
_atom_site_fract_x
_atom_site_fract_y
_atom_site_fract_z
_atom_site_charge
Mn	Mn	0.80005 0.85022 0.35910 1.31500
Mn	Mn	0.57817 0.93468 0.28664 1.24700
C 	C 	0.78042 0.78621 0.48724 0.37300
C 	C 	0.83244 0.78363 0.55470 -0.14600
C 	C 	0.79464 0.77978 0.60343 0.08500
H 	H 	0.73490 0.77660 0.59540 0.00900
C 	C 	0.84714 0.78083 0.66373 -0.16500
H 	H 	0.82350 0.77920 0.69710 0.09800
C 	C 	0.93562 0.78429 0.67353 0.10600
N 	N 	0.97391 0.78765 0.62794 -0.14000
C 	C 	0.25390 0.37023 0.70403 0.38200
C 	C 	0.21800 0.47257 0.71702 -0.16500
C 	C 	0.12962 0.48663 0.70462 0.09600
H 	H 	0.09240 0.43140 0.69000 0.01400
C 	C 	0.09686 0.58140 0.71384 -0.17000
H 	H 	0.03760 0.59170 0.70530 0.10400
C 	C 	0.15431 0.66137 0.73611 0.11100
C 	C 	0.26963 0.55770 0.73809 0.10700
H 	H 	0.32900 0.54970 0.74580 -0.01200
C 	C 	0.72662 0.07180 0.37241 0.42400
C 	C 	0.75334 0.18157 0.39140 -0.17500
C 	C 	0.83929 0.21010 0.40960 0.10600
H 	H 	0.88200 0.16070 0.41170 0.01100
C 	C 	0.86152 0.31190 0.42456 -0.17300
H 	H 	0.91900 0.33280 0.43520 0.10200
C 	C 	0.79687 0.38215 0.42339 0.11100
N 	N 	0.71299 0.35725 0.40647 -0.15100
C 	C 	0.72739 0.55451 0.72464 0.44600
C 	C 	0.76389 0.52965 0.67134 -0.18700
C 	C 	0.71411 0.50960 0.61169 0.11200
H 	H 	0.65450 0.50300 0.60320 -0.00500
C 	C 	0.75350 0.49950 0.56455 -0.18400
H 	H 	0.72120 0.48590 0.52390 0.09800
C 	C 	0.84150 0.51004 0.57946 0.11800
N 	N 	0.89219 0.52238 0.63711 -0.14500
C 	C 	0.99016 0.77590 0.40289 0.16100
H 	H 	0.96220 0.71790 0.41260 -0.02300
C 	C 	0.07841 0.77340 0.41596 -0.28100
H 	H 	0.10850 0.71440 0.43390 0.13300
C 	C 	0.12263 0.85770 0.40268 0.27600
C 	C 	0.07308 0.94060 0.37463 -0.28100
H 	H 	0.09950 0.99870 0.36350 0.13900
C 	C 	0.98481 0.93820 0.36294 0.16100
H 	H 	0.95320 0.99580 0.34440 -0.02300
C 	C 	0.22005 0.85950 0.42005 -0.42600
H 	H 	0.23870 0.86120 0.38250 0.16300
H 	H 	0.24250 0.79650 0.44250 0.15600
C 	C 	0.25658 0.95280 0.45997 0.21100
H 	H 	0.22790 0.95880 0.49250 -0.02200
H 	H 	0.24300 0.01470 0.43450 -0.03000
C 	C 	0.35373 0.94920 0.49001 -0.42200
H 	H 	0.37080 0.00990 0.51630 0.16000
H 	H 	0.36760 0.88820 0.51630 0.15300
C 	C 	0.40451 0.94630 0.44289 0.27400
C 	C 	0.43552 0.85490 0.42618 -0.29200
H 	H 	0.42690 0.79310 0.44500 0.12600
C 	C 	0.47961 0.85460 0.38134 0.15400
H 	H 	0.49970 0.79160 0.37070 -0.05800
C 	C 	0.46523 0.02870 0.36975 0.16100
H 	H 	0.47560 0.08980 0.35090 -0.05000
C 	C 	0.42034 0.03510 0.41360 -0.29400
H 	H 	0.40080 0.09900 0.42340 0.13600
N 	N 	0.94244 0.85718 0.37702 -0.25900
N 	N 	0.49465 0.94015 0.35279 -0.28800
C 	C 	0.92115 0.78790 0.57006 0.08900
H 	H 	0.94640 0.79130 0.53760 0.01900
N 	N 	0.23996 0.65155 0.74821 -0.14700
C 	C 	0.69293 0.25810 0.38980 0.09900
H 	H 	0.63480 0.24010 0.37640 -0.00600
C 	C 	0.85234 0.53256 0.68151 0.11100
H 	H 	0.88650 0.54230 0.72210 0.01100
S 	S 	0.00087 0.77986 0.75221 -0.02500
S 	S 	0.12468 0.79048 0.74895 -0.01300
S 	S 	0.81891 0.51657 0.44070 -0.02200
S 	S 	0.90559 0.51093 0.52614 -0.02700
O 	O 	0.70009 0.79141 0.47379 -0.32900
O 	O 	0.82376 0.78344 0.44863 -0.43000
O 	O 	0.77978 0.00190 0.39438 -0.44400
O 	O 	0.65214 0.05990 0.33610 -0.47900
O 	O 	0.20144 0.29716 0.68840 -0.43200
O 	O 	0.33326 0.36377 0.70911 -0.35600
O 	O 	0.78116 0.56900 0.77523 -0.48100
O 	O 	0.64759 0.56080 0.71501 -0.48400
O 	O 	0.65753 0.81455 0.34887 -1.01800
H 	H 	0.65220 0.81110 0.38550 0.40300
H 	H 	0.65200 0.75450 0.33250 0.39100
Mn	Mn	0.19995 0.35022 0.14090 1.31600
Mn	Mn	0.42183 0.43468 0.21336 1.24800
C 	C 	0.21958 0.28621 0.01276 0.37300
C 	C 	0.16756 0.28363 0.94530 -0.14700
C 	C 	0.20536 0.27978 0.89657 0.08600
H 	H 	0.26510 0.27660 0.90460 0.00900
C 	C 	0.15286 0.28083 0.83627 -0.16600
H 	H 	0.17650 0.27920 0.80290 0.09800
C 	C 	0.06438 0.28429 0.82647 0.10700
N 	N 	0.02609 0.28765 0.87206 -0.14000
C 	C 	0.74610 0.87023 0.79597 0.38200
C 	C 	0.78200 0.97257 0.78298 -0.16500
C 	C 	0.87038 0.98663 0.79538 0.09400
H 	H 	0.90760 0.93140 0.81000 0.01400
C 	C 	0.90314 0.08140 0.78616 -0.16800
H 	H 	0.96240 0.09170 0.79470 0.10400
C 	C 	0.84569 0.16137 0.76389 0.11100
C 	C 	0.73037 0.05770 0.76191 0.10700
H 	H 	0.67100 0.04970 0.75420 -0.01200
C 	C 	0.27338 0.57180 0.12759 0.42400
C 	C 	0.24666 0.68157 0.10860 -0.17500
C 	C 	0.16071 0.71010 0.09040 0.10600
H 	H 	0.11800 0.66070 0.08830 0.01000
C 	C 	0.13848 0.81190 0.07544 -0.17400
H 	H 	0.08100 0.83280 0.06480 0.10200
C 	C 	0.20313 0.88215 0.07661 0.11100
N 	N 	0.28701 0.85725 0.09353 -0.15100
C 	C 	0.27261 0.05451 0.77536 0.44400
C 	C 	0.23611 0.02965 0.82866 -0.18300
C 	C 	0.28589 0.00960 0.88831 0.10200
H 	H 	0.34550 0.00300 0.89680 -0.00300
C 	C 	0.24650 0.99950 0.93545 -0.17200
H 	H 	0.27880 0.98590 0.97610 0.09500
C 	C 	0.15850 0.01004 0.92054 0.11200
N 	N 	0.10781 0.02238 0.86289 -0.14400
C 	C 	0.00984 0.27590 0.09711 0.16000
H 	H 	0.03780 0.21790 0.08740 -0.02300
C 	C 	0.92159 0.27340 0.08404 -0.27900
H 	H 	0.89150 0.21440 0.06610 0.13400
C 	C 	0.87737 0.35770 0.09732 0.27500
C 	C 	0.92692 0.44060 0.12537 -0.28200
H 	H 	0.90050 0.49870 0.13650 0.13900
C 	C 	0.01519 0.43820 0.13706 0.16200
H 	H 	0.04680 0.49580 0.15560 -0.02300
C 	C 	0.77995 0.35950 0.07995 -0.42400
H 	H 	0.76130 0.36120 0.11750 0.16300
H 	H 	0.75750 0.29650 0.05750 0.15600
C 	C 	0.74342 0.45280 0.04003 0.20700
H 	H 	0.77210 0.45880 0.00750 -0.02100
H 	H 	0.75700 0.51470 0.06550 -0.02800
C 	C 	0.64627 0.44920 0.00999 -0.41900
H 	H 	0.62920 0.50990 0.98370 0.16000
H 	H 	0.63240 0.38820 0.98370 0.15100
C 	C 	0.59549 0.44630 0.05711 0.27200
C 	C 	0.56448 0.35490 0.07382 -0.29100
H 	H 	0.57310 0.29310 0.05500 0.12600
C 	C 	0.52039 0.35460 0.11866 0.15400
H 	H 	0.50030 0.29160 0.12930 -0.05700
C 	C 	0.53477 0.52870 0.13025 0.16000
H 	H 	0.52440 0.58980 0.14910 -0.05000
C 	C 	0.57966 0.53510 0.08640 -0.29300
H 	H 	0.59920 0.59900 0.07660 0.13600
N 	N 	0.05756 0.35718 0.12298 -0.25900
N 	N 	0.50535 0.44015 0.14721 -0.28700
C 	C 	0.07885 0.28790 0.92994 0.09000
H 	H 	0.05360 0.29130 0.96240 0.01900
N 	N 	0.76004 0.15155 0.75179 -0.14700
C 	C 	0.30707 0.75810 0.11020 0.09900
H 	H 	0.36520 0.74010 0.12360 -0.00600
C 	C 	0.14766 0.03256 0.81849 0.10800
H 	H 	0.11350 0.04230 0.77790 0.01200
S 	S 	0.99913 0.27986 0.74779 -0.02700
S 	S 	0.87532 0.29048 0.75105 -0.01400
S 	S 	0.18109 0.01657 0.05930 -0.02200
S 	S 	0.09441 0.01093 0.97386 -0.02800
O 	O 	0.29991 0.29141 0.02621 -0.32900
O 	O 	0.17624 0.28344 0.05137 -0.43000
O 	O 	0.22022 0.50190 0.10562 -0.44500
O 	O 	0.34786 0.55990 0.16390 -0.48000
O 	O 	0.79856 0.79716 0.81160 -0.43200
O 	O 	0.66674 0.86377 0.79089 -0.35600
O 	O 	0.21884 0.06900 0.72477 -0.48100
O 	O 	0.35241 0.06080 0.78499 -0.48400
O 	O 	0.34247 0.31455 0.15113 -1.01800
H 	H 	0.34780 0.31110 0.11450 0.40300
H 	H 	0.34800 0.25450 0.16750 0.39100
Mn	Mn	0.19995 0.14978 0.64090 1.31600
Mn	Mn	0.42183 0.06532 0.71336 1.24800
C 	C 	0.21958 0.21379 0.51276 0.37300
C 	C 	0.16756 0.21637 0.44530 -0.14600
C 	C 	0.20536 0.22022 0.39657 0.08500
H 	H 	0.26510 0.22340 0.40460 0.00900
C 	C 	0.15286 0.21917 0.33627 -0.16500
H 	H 	0.17650 0.22080 0.30290 0.09800
C 	C 	0.06438 0.21571 0.32647 0.10600
N 	N 	0.02609 0.21235 0.37206 -0.14000
C 	C 	0.74610 0.62977 0.29597 0.38200
C 	C 	0.78200 0.52743 0.28298 -0.16500
C 	C 	0.87038 0.51337 0.29538 0.09600
H 	H 	0.90760 0.56860 0.31000 0.01400
C 	C 	0.90314 0.41860 0.28616 -0.17000
H 	H 	0.96240 0.40830 0.29470 0.10400
C 	C 	0.84569 0.33863 0.26389 0.11100
C 	C 	0.73037 0.44230 0.26191 0.10700
H 	H 	0.67100 0.45030 0.25420 -0.01200
C 	C 	0.27338 0.92820 0.62759 0.42400
C 	C 	0.24666 0.81843 0.60860 -0.17500
C 	C 	0.16071 0.78990 0.59040 0.10600
H 	H 	0.11800 0.83930 0.58830 0.01100
C 	C 	0.13848 0.68810 0.57544 -0.17300
H 	H 	0.08100 0.66720 0.56480 0.10200
C 	C 	0.20313 0.61785 0.57661 0.11100
N 	N 	0.28701 0.64275 0.59353 -0.15100
C 	C 	0.27261 0.44549 0.27536 0.44600
C 	C 	0.23611 0.47035 0.32866 -0.18700
C 	C 	0.28589 0.49040 0.38831 0.11200
H 	H 	0.34550 0.49700 0.39680 -0.00500
C 	C 	0.24650 0.50050 0.43545 -0.18400
H 	H 	0.27880 0.51410 0.47610 0.09800
C 	C 	0.15850 0.48996 0.42054 0.11800
N 	N 	0.10781 0.47762 0.36289 -0.14500
C 	C 	0.00984 0.22410 0.59711 0.16100
H 	H 	0.03780 0.28210 0.58740 -0.02300
C 	C 	0.92159 0.22660 0.58404 -0.28100
H 	H 	0.89150 0.28560 0.56610 0.13300
C 	C 	0.87737 0.14230 0.59732 0.27600
C 	C 	0.92692 0.05940 0.62537 -0.28100
H 	H 	0.90050 0.00130 0.63650 0.13900
C 	C 	0.01519 0.06180 0.63706 0.16100
H 	H 	0.04680 0.00420 0.65560 -0.02300
C 	C 	0.77995 0.14050 0.57995 -0.42600
H 	H 	0.76130 0.13880 0.61750 0.16300
H 	H 	0.75750 0.20350 0.55750 0.15600
C 	C 	0.74342 0.04720 0.54003 0.21100
H 	H 	0.77210 0.04120 0.50750 -0.02200
H 	H 	0.75700 0.98530 0.56550 -0.03000
C 	C 	0.64627 0.05080 0.50999 -0.42200
H 	H 	0.62920 0.99010 0.48370 0.16000
H 	H 	0.63240 0.11180 0.48370 0.15300
C 	C 	0.59549 0.05370 0.55711 0.27400
C 	C 	0.56448 0.14510 0.57382 -0.29200
H 	H 	0.57310 0.20690 0.55500 0.12600
C 	C 	0.52039 0.14540 0.61866 0.15400
H 	H 	0.50030 0.20840 0.62930 -0.05800
C 	C 	0.53477 0.97130 0.63025 0.16100
H 	H 	0.52440 0.91020 0.64910 -0.05000
C 	C 	0.57966 0.96490 0.58640 -0.29400
H 	H 	0.59920 0.90100 0.57660 0.13600
N 	N 	0.05756 0.14282 0.62298 -0.25900
N 	N 	0.50535 0.05985 0.64721 -0.28800
C 	C 	0.07885 0.21210 0.42994 0.08900
H 	H 	0.05360 0.20870 0.46240 0.01900
N 	N 	0.76004 0.34845 0.25179 -0.14700
C 	C 	0.30707 0.74190 0.61020 0.09900
H 	H 	0.36520 0.75990 0.62360 -0.00600
C 	C 	0.14766 0.46744 0.31849 0.11100
H 	H 	0.11350 0.45770 0.27790 0.01100
S 	S 	0.99913 0.22014 0.24779 -0.02500
S 	S 	0.87532 0.20952 0.25105 -0.01300
S 	S 	0.18109 0.48343 0.55930 -0.02200
S 	S 	0.09441 0.48907 0.47386 -0.02700
O 	O 	0.29991 0.20859 0.52621 -0.32900
O 	O 	0.17624 0.21656 0.55137 -0.43000
O 	O 	0.22022 0.99810 0.60562 -0.44400
O 	O 	0.34786 0.94010 0.66390 -0.47900
O 	O 	0.79856 0.70284 0.31160 -0.43200
O 	O 	0.66674 0.63623 0.29089 -0.35600
O 	O 	0.21884 0.43100 0.22477 -0.48100
O 	O 	0.35241 0.43920 0.28499 -0.48400
O 	O 	0.34247 0.18545 0.65113 -1.01800
H 	H 	0.34780 0.18890 0.61450 0.40300
H 	H 	0.34800 0.24550 0.66750 0.39100
Mn	Mn	0.80005 0.64978 0.85910 1.31600
Mn	Mn	0.57817 0.56532 0.78664 1.24800
C 	C 	0.78042 0.71379 0.98724 0.37300
C 	C 	0.83244 0.71637 0.05470 -0.14700
C 	C 	0.79464 0.72022 0.10343 0.08600
H 	H 	0.73490 0.72340 0.09540 0.00900
C 	C 	0.84714 0.71917 0.16373 -0.16600
H 	H 	0.82350 0.72080 0.19710 0.09800
C 	C 	0.93562 0.71571 0.17353 0.10700
N 	N 	0.97391 0.71235 0.12794 -0.14000
C 	C 	0.25390 0.12977 0.20403 0.38200
C 	C 	0.21800 0.02743 0.21702 -0.16500
C 	C 	0.12962 0.01337 0.20462 0.09400
H 	H 	0.09240 0.06860 0.19000 0.01400
C 	C 	0.09686 0.91860 0.21384 -0.16800
H 	H 	0.03760 0.90830 0.20530 0.10400
C 	C 	0.15431 0.83863 0.23611 0.11100
C 	C 	0.26963 0.94230 0.23809 0.10700
H 	H 	0.32900 0.95030 0.24580 -0.01200
C 	C 	0.72662 0.42820 0.87241 0.42400
C 	C 	0.75334 0.31843 0.89140 -0.17500
C 	C 	0.83929 0.28990 0.90960 0.10600
H 	H 	0.88200 0.33930 0.91170 0.01000
C 	C 	0.86152 0.18810 0.92456 -0.17400
H 	H 	0.91900 0.16720 0.93520 0.10200
C 	C 	0.79687 0.11785 0.92339 0.11100
N 	N 	0.71299 0.14275 0.90647 -0.15100
C 	C 	0.72739 0.94549 0.22464 0.44400
C 	C 	0.76389 0.97035 0.17134 -0.18300
C 	C 	0.71411 0.99040 0.11169 0.10200
H 	H 	0.65450 0.99700 0.10320 -0.00300
C 	C 	0.75350 0.00050 0.06455 -0.17200
H 	H 	0.72120 0.01410 0.02390 0.09500
C 	C 	0.84150 0.98996 0.07946 0.11200
N 	N 	0.89219 0.97762 0.13711 -0.14400
C 	C 	0.99016 0.72410 0.90289 0.16000
H 	H 	0.96220 0.78210 0.91260 -0.02300
C 	C 	0.07841 0.72660 0.91596 -0.27900
H 	H 	0.10850 0.78560 0.93390 0.13400
C 	C 	0.12263 0.64230 0.90268 0.27500
C 	C 	0.07308 0.55940 0.87463 -0.28200
H 	H 	0.09950 0.50130 0.86350 0.13900
C 	C 	0.98481 0.56180 0.86294 0.16200
H 	H 	0.95320 0.50420 0.84440 -0.02300
C 	C 	0.22005 0.64050 0.92005 -0.42400
H 	H 	0.23870 0.63880 0.88250 0.16300
H 	H 	0.24250 0.70350 0.94250 0.15600
C 	C 	0.25658 0.54720 0.95997 0.20700
H 	H 	0.22790 0.54120 0.99250 -0.02100
H 	H 	0.24300 0.48530 0.93450 -0.02800
C 	C 	0.35373 0.55080 0.99001 -0.41900
H 	H 	0.37080 0.49010 0.01630 0.16000
H 	H 	0.36760 0.61180 0.01630 0.15100
C 	C 	0.40451 0.55370 0.94289 0.27200
C 	C 	0.43552 0.64510 0.92618 -0.29100
H 	H 	0.42690 0.70690 0.94500 0.12600
C 	C 	0.47961 0.64540 0.88134 0.15400
H 	H 	0.49970 0.70840 0.87070 -0.05700
C 	C 	0.46523 0.47130 0.86975 0.16000
H 	H 	0.47560 0.41020 0.85090 -0.05000
C 	C 	0.42034 0.46490 0.91360 -0.29300
H 	H 	0.40080 0.40100 0.92340 0.13600
N 	N 	0.94244 0.64282 0.87702 -0.25900
N 	N 	0.49465 0.55985 0.85279 -0.28700
C 	C 	0.92115 0.71210 0.07006 0.09000
H 	H 	0.94640 0.70870 0.03760 0.01900
N 	N 	0.23996 0.84845 0.24821 -0.14700
C 	C 	0.69293 0.24190 0.88980 0.09900
H 	H 	0.63480 0.25990 0.87640 -0.00600
C 	C 	0.85234 0.96744 0.18151 0.10800
H 	H 	0.88650 0.95770 0.22210 0.01200
S 	S 	0.00087 0.72014 0.25221 -0.02700
S 	S 	0.12468 0.70952 0.24895 -0.01400
S 	S 	0.81891 0.98343 0.94070 -0.02200
S 	S 	0.90559 0.98907 0.02614 -0.02800
O 	O 	0.70009 0.70859 0.97379 -0.32900
O 	O 	0.82376 0.71656 0.94863 -0.43000
O 	O 	0.77978 0.49810 0.89438 -0.44500
O 	O 	0.65214 0.44010 0.83610 -0.48000
O 	O 	0.20144 0.20284 0.18840 -0.43200
O 	O 	0.33326 0.13623 0.20911 -0.35600
O 	O 	0.78116 0.93100 0.27523 -0.48100
O 	O 	0.64759 0.93920 0.21501 -0.48400
O 	O 	0.65753 0.68545 0.84887 -1.01800
H 	H 	0.65220 0.68890 0.88550 0.40300
H 	H 	0.65200 0.74550 0.83250 0.39100
