data_crystal

_cell_length_a 10.48310
_cell_length_b 14.02800
_cell_length_c 18.14400
_cell_angle_alpha 100.02800
_cell_angle_beta  90.00000
_cell_angle_gamma 90.00000

_symmetry_space_group_name_	'P 1'
_symmetry_space_group_name_H-M	'P 1'

loop_
_symmetry_equiv_pos_as_xyz
  x,y,z

loop_
_atom_site_label
_atom_site_type_symbol
_atom_site_fract_x
_atom_site_fract_y
_atom_site_fract_z
_atom_site_charge
Nd	Nd	0.75139 0.39649 0.70769 2.16700
Nd	Nd	0.73027 0.34843 0.34431 2.28200
Nd	Nd	0.25139 0.10351 0.79231 2.16700
Nd	Nd	0.23027 0.15157 0.15569 2.28300
Nd	Nd	0.24861 0.60351 0.29231 2.16700
Nd	Nd	0.26973 0.65157 0.65569 2.28200
Nd	Nd	0.74861 0.89649 0.20769 2.16800
Nd	Nd	0.76973 0.84843 0.84431 2.28400
H 	H 	0.60800 0.63450 0.51030 0.02000
H 	H 	0.97710 0.63240 0.53260 0.01300
H 	H 	0.48740 0.63680 0.92710 0.01800
H 	H 	0.34830 0.37620 0.89740 0.02300
H 	H 	0.55180 0.16760 0.56570 0.01400
H 	H 	0.35690 0.09130 0.38190 0.00600
H 	H 	0.10800 0.86550 0.98970 0.01900
H 	H 	0.47710 0.86760 0.96740 0.01300
H 	H 	0.98740 0.86320 0.57290 0.01700
H 	H 	0.84830 0.12380 0.60260 0.02300
H 	H 	0.05180 0.33240 0.93430 0.01600
H 	H 	0.85690 0.40870 0.11810 0.00600
H 	H 	0.39200 0.36550 0.48970 0.02000
H 	H 	0.02290 0.36760 0.46740 0.01300
H 	H 	0.51260 0.36320 0.07290 0.01800
H 	H 	0.65170 0.62380 0.10260 0.02300
H 	H 	0.44820 0.83240 0.43430 0.01400
H 	H 	0.64310 0.90870 0.61810 0.00600
H 	H 	0.89200 0.13450 0.01030 0.01900
H 	H 	0.52290 0.13240 0.03260 0.01300
H 	H 	0.01260 0.13680 0.42710 0.01700
H 	H 	0.15170 0.87620 0.39740 0.02300
H 	H 	0.94820 0.66760 0.06570 0.01600
H 	H 	0.14310 0.59130 0.88190 0.00600
C 	C 	0.66810 0.55090 0.58150 -0.08100
C 	C 	0.68120 0.61340 0.53160 0.06800
C 	C 	0.89640 0.61230 0.54460 0.08100
C 	C 	0.88590 0.54970 0.59500 -0.10000
C 	C 	0.54130 0.51360 0.60780 0.41700
C 	C 	0.99500 0.50880 0.63510 0.47600
C 	C 	0.57390 0.54500 0.84410 -0.11800
C 	C 	0.48740 0.57300 0.90220 0.07000
C 	C 	0.40570 0.42120 0.88460 0.06400
C 	C 	0.48980 0.39230 0.82590 -0.10100
C 	C 	0.67240 0.60920 0.81880 0.45500
C 	C 	0.49340 0.29110 0.77970 0.43400
C 	C 	0.60910 0.23270 0.48200 -0.08600
C 	C 	0.53610 0.17160 0.51580 0.06500
C 	C 	0.42130 0.12770 0.40860 0.08000
C 	C 	0.49150 0.19060 0.37350 -0.11600
C 	C 	0.71670 0.29580 0.51920 0.43700
C 	C 	0.46980 0.21160 0.29700 0.45500
C 	C 	0.16810 0.94910 0.91850 -0.08000
C 	C 	0.18120 0.88660 0.96840 0.06700
C 	C 	0.39640 0.88770 0.95540 0.08100
C 	C 	0.38590 0.95030 0.90500 -0.10000
C 	C 	0.04130 0.98640 0.89220 0.41200
C 	C 	0.49500 0.99120 0.86490 0.47700
C 	C 	0.07390 0.95500 0.65590 -0.12300
C 	C 	0.98740 0.92700 0.59780 0.07500
C 	C 	0.90570 0.07880 0.61540 0.06200
C 	C 	0.98980 0.10770 0.67410 -0.10200
C 	C 	0.17240 0.89080 0.68120 0.45600
C 	C 	0.99340 0.20890 0.72030 0.43300
C 	C 	0.10910 0.26730 0.01800 -0.08000
C 	C 	0.03610 0.32840 0.98420 0.06000
C 	C 	0.92130 0.37230 0.09140 0.08000
C 	C 	0.99150 0.30940 0.12650 -0.11700
C 	C 	0.21670 0.20420 0.98080 0.43200
C 	C 	0.96980 0.28840 0.20300 0.45300
C 	C 	0.33190 0.44910 0.41850 -0.08100
C 	C 	0.31880 0.38660 0.46840 0.06800
C 	C 	0.10360 0.38770 0.45540 0.08100
C 	C 	0.11410 0.45030 0.40500 -0.10000
C 	C 	0.45870 0.48640 0.39220 0.41700
C 	C 	0.00500 0.49120 0.36490 0.47600
C 	C 	0.42610 0.45500 0.15590 -0.11800
C 	C 	0.51260 0.42700 0.09780 0.07000
C 	C 	0.59430 0.57880 0.11540 0.06400
C 	C 	0.51020 0.60770 0.17410 -0.10100
C 	C 	0.32760 0.39080 0.18120 0.45500
C 	C 	0.50660 0.70890 0.22030 0.43400
C 	C 	0.39090 0.76730 0.51800 -0.08600
C 	C 	0.46390 0.82840 0.48420 0.06500
C 	C 	0.57870 0.87230 0.59140 0.08000
C 	C 	0.50850 0.80940 0.62650 -0.11600
C 	C 	0.28330 0.70420 0.48080 0.43700
C 	C 	0.53020 0.78840 0.70300 0.45500
C 	C 	0.83190 0.05090 0.08150 -0.08000
C 	C 	0.81880 0.11340 0.03160 0.06700
C 	C 	0.60360 0.11230 0.04460 0.08100
C 	C 	0.61410 0.04970 0.09500 -0.10000
C 	C 	0.95870 0.01360 0.10780 0.41200
C 	C 	0.50500 0.00880 0.13510 0.47700
C 	C 	0.92610 0.04500 0.34410 -0.12300
C 	C 	0.01260 0.07300 0.40220 0.07500
C 	C 	0.09430 0.92120 0.38460 0.06200
C 	C 	0.01020 0.89230 0.32590 -0.10200
C 	C 	0.82760 0.10920 0.31880 0.45600
C 	C 	0.00660 0.79110 0.27970 0.43300
C 	C 	0.89090 0.73270 0.98200 -0.08000
C 	C 	0.96390 0.67160 0.01580 0.06000
C 	C 	0.07870 0.62770 0.90860 0.08000
C 	C 	0.00850 0.69060 0.87350 -0.11700
C 	C 	0.78330 0.79580 0.01920 0.43200
C 	C 	0.03020 0.71160 0.79700 0.45300
N 	N 	0.77110 0.51670 0.61310 -0.17500
N 	N 	0.79410 0.64540 0.51220 -0.13300
N 	N 	0.57410 0.45380 0.80770 -0.18800
N 	N 	0.40460 0.51030 0.92290 -0.13100
N 	N 	0.58660 0.24160 0.41160 -0.18000
N 	N 	0.44250 0.11720 0.47910 -0.13400
N 	N 	0.27110 0.98330 0.88690 -0.17500
N 	N 	0.29410 0.85460 0.98780 -0.13300
N 	N 	0.07410 0.04620 0.69230 -0.18600
N 	N 	0.90460 0.98970 0.57710 -0.13000
N 	N 	0.08660 0.25840 0.08840 -0.18000
N 	N 	0.94250 0.38280 0.02090 -0.13400
N 	N 	0.22890 0.48330 0.38690 -0.17500
N 	N 	0.20590 0.35460 0.48780 -0.13300
N 	N 	0.42590 0.54620 0.19230 -0.18800
N 	N 	0.59540 0.48970 0.07710 -0.13100
N 	N 	0.41340 0.75840 0.58840 -0.18000
N 	N 	0.55750 0.88280 0.52090 -0.13400
N 	N 	0.72890 0.01670 0.11310 -0.17500
N 	N 	0.70590 0.14540 0.01220 -0.13300
N 	N 	0.92590 0.95380 0.30770 -0.18600
N 	N 	0.09540 0.01030 0.42290 -0.13000
N 	N 	0.91340 0.74160 0.91160 -0.18000
N 	N 	0.05750 0.61720 0.97910 -0.13400
O 	O 	0.54730 0.45140 0.64830 -0.48400
O 	O 	0.44190 0.55210 0.58740 -0.50500
O 	O 	0.96740 0.45530 0.67930 -0.50600
O 	O 	0.10450 0.53580 0.61890 -0.53700
O 	O 	0.75100 0.57070 0.77170 -0.52000
O 	O 	0.66890 0.69730 0.84800 -0.53000
O 	O 	0.58530 0.27420 0.73370 -0.47800
O 	O 	0.40530 0.23560 0.78930 -0.50400
O 	O 	0.77480 0.34560 0.47930 -0.47600
O 	O 	0.73830 0.29260 0.58680 -0.49700
O 	O 	0.54710 0.26840 0.27350 -0.53200
O 	O 	0.37370 0.17110 0.26200 -0.53500
O 	O 	0.04730 0.04860 0.85170 -0.48200
O 	O 	0.94190 0.94790 0.91260 -0.50100
O 	O 	0.46740 0.04470 0.82070 -0.50800
O 	O 	0.60450 0.96420 0.88110 -0.53700
O 	O 	0.25100 0.92930 0.72830 -0.52000
O 	O 	0.16890 0.80270 0.65200 -0.53100
O 	O 	0.08530 0.22580 0.76630 -0.47700
O 	O 	0.90530 0.26440 0.71070 -0.50300
O 	O 	0.27480 0.15440 0.02070 -0.47300
O 	O 	0.23830 0.20740 0.91320 -0.49500
O 	O 	0.04710 0.23160 0.22650 -0.53000
O 	O 	0.87370 0.32890 0.23800 -0.53400
O 	O 	0.45270 0.54860 0.35170 -0.48400
O 	O 	0.55810 0.44790 0.41260 -0.50500
O 	O 	0.03260 0.54470 0.32070 -0.50600
O 	O 	0.89550 0.46420 0.38110 -0.53700
O 	O 	0.24900 0.42930 0.22830 -0.52000
O 	O 	0.33110 0.30270 0.15200 -0.53000
O 	O 	0.41470 0.72580 0.26630 -0.47800
O 	O 	0.59470 0.76440 0.21070 -0.50400
O 	O 	0.22520 0.65440 0.52070 -0.47600
O 	O 	0.26170 0.70740 0.41320 -0.49700
O 	O 	0.45290 0.73160 0.72650 -0.53200
O 	O 	0.62630 0.82890 0.73800 -0.53500
O 	O 	0.95270 0.95140 0.14830 -0.48200
O 	O 	0.05810 0.05210 0.08740 -0.50100
O 	O 	0.53260 0.95530 0.17930 -0.50800
O 	O 	0.39550 0.03580 0.11890 -0.53700
O 	O 	0.74900 0.07070 0.27170 -0.52000
O 	O 	0.83110 0.19730 0.34800 -0.53100
O 	O 	0.91470 0.77420 0.23370 -0.47700
O 	O 	0.09470 0.73560 0.28930 -0.50300
O 	O 	0.72520 0.84560 0.97930 -0.47300
O 	O 	0.76170 0.79260 0.08680 -0.49500
O 	O 	0.95290 0.76840 0.77350 -0.53000
O 	O 	0.12630 0.67110 0.76200 -0.53400
