data_crystal

_cell_length_a 7.85380
_cell_length_b 11.02190
_cell_length_c 11.66930
_cell_angle_alpha 108.67400
_cell_angle_beta  105.81200
_cell_angle_gamma 104.10800

_symmetry_space_group_name_	'P 1'
_symmetry_space_group_name_H-M	'P 1'

loop_
_symmetry_equiv_pos_as_xyz
  x,y,z

loop_
_atom_site_label
_atom_site_type_symbol
_atom_site_fract_x
_atom_site_fract_y
_atom_site_fract_z
_atom_site_charge
Pr	Pr	0.72538 0.97892 0.93458 2.05800
Pr	Pr	0.27462 0.02108 0.06542 2.05800
H 	H 	0.76920 0.59480 0.94860 0.14500
H 	H 	0.73780 0.69730 0.06210 0.13400
H 	H 	0.01210 0.57720 0.11760 0.04100
H 	H 	0.93340 0.65410 0.21710 0.02700
H 	H 	0.15430 0.18270 0.46420 0.15600
H 	H 	0.93570 0.15450 0.41750 0.15300
H 	H 	0.89670 0.35320 0.16610 0.14000
H 	H 	0.83220 0.44350 0.26790 0.14500
H 	H 	0.87300 0.91870 0.36980 0.02200
H 	H 	0.09160 0.94800 0.41860 0.03100
H 	H 	0.71610 0.39690 0.00080 0.03000
H 	H 	0.63050 0.47460 0.09380 0.02300
H 	H 	0.23080 0.40520 0.05140 0.14500
H 	H 	0.26220 0.30270 0.93790 0.13400
H 	H 	0.98790 0.42280 0.88240 0.04100
H 	H 	0.06660 0.34590 0.78290 0.02700
H 	H 	0.84570 0.81730 0.53580 0.15600
H 	H 	0.06430 0.84550 0.58250 0.15300
H 	H 	0.10330 0.64680 0.83390 0.14000
H 	H 	0.16780 0.55650 0.73210 0.14500
H 	H 	0.12700 0.08130 0.63020 0.02200
H 	H 	0.90840 0.05200 0.58140 0.03100
H 	H 	0.28390 0.60310 0.99920 0.03000
H 	H 	0.36950 0.52540 0.90620 0.02300
C 	C 	0.01800 0.08110 0.26560 0.49400
C 	C 	0.83180 0.66340 0.03830 -0.38500
C 	C 	0.89960 0.59380 0.12650 -0.00900
C 	C 	0.02990 0.11490 0.40380 -0.43100
C 	C 	0.79300 0.38250 0.17670 -0.39600
C 	C 	0.98560 0.78140 0.04410 0.44300
C 	C 	0.99630 0.98660 0.43200 -0.00200
C 	C 	0.74470 0.45730 0.09050 0.00300
C 	C 	0.61900 0.25900 0.13750 0.43500
C 	C 	0.98200 0.91890 0.73440 0.49400
C 	C 	0.16820 0.33660 0.96170 -0.38500
C 	C 	0.10040 0.40620 0.87350 -0.00900
C 	C 	0.97010 0.88510 0.59620 -0.43100
C 	C 	0.20700 0.61750 0.82330 -0.39600
C 	C 	0.01440 0.21860 0.95590 0.44300
C 	C 	0.00370 0.01340 0.56800 -0.00200
C 	C 	0.25530 0.54270 0.90950 0.00300
C 	C 	0.38100 0.74100 0.86250 0.43500
O 	O 	0.93180 0.85070 0.98170 -0.62800
O 	O 	0.85320 0.03990 0.17650 -0.51300
O 	O 	0.58990 0.14400 0.04780 -0.63200
O 	O 	0.16540 0.08950 0.24310 -0.53700
O 	O 	0.50010 0.27160 0.18880 -0.47400
O 	O 	0.15610 0.80850 0.10440 -0.47300
O 	O 	0.06820 0.14930 0.01830 -0.62800
O 	O 	0.14680 0.96010 0.82350 -0.51300
O 	O 	0.41010 0.85600 0.95220 -0.63200
O 	O 	0.83460 0.91050 0.75690 -0.53700
O 	O 	0.49990 0.72840 0.81120 -0.47400
O 	O 	0.84390 0.19150 0.89560 -0.47300
