data_crystal

_cell_length_a 11.62400
_cell_length_b 13.39500
_cell_length_c 21.37800
_cell_angle_alpha 108.23000
_cell_angle_beta  96.32000
_cell_angle_gamma 103.03000

_symmetry_space_group_name_	'P 1'
_symmetry_space_group_name_H-M	'P 1'

loop_
_symmetry_equiv_pos_as_xyz
  x,y,z

loop_
_atom_site_label
_atom_site_type_symbol
_atom_site_fract_x
_atom_site_fract_y
_atom_site_fract_z
_atom_site_charge
Ni	Ni	0.51739 0.36318 0.91536 1.11200
Ni	Ni	0.90426 0.30028 0.61212 1.05700
Ni	Ni	0.48261 0.63682 0.08464 1.11200
Ni	Ni	0.09574 0.69972 0.38788 1.05700
H 	H 	0.38110 0.23480 0.29660 0.15200
H 	H 	0.42520 0.92450 0.63200 -0.02700
H 	H 	0.31920 0.97840 0.34820 0.16200
H 	H 	0.86410 0.40210 0.04420 0.04800
H 	H 	0.82590 0.67320 0.34810 -0.02200
H 	H 	0.68080 0.02160 0.65180 0.16200
H 	H 	0.62670 0.38810 0.48520 0.05300
H 	H 	0.06410 0.37210 0.35520 -0.03400
H 	H 	0.70950 0.56550 0.01000 -0.00500
H 	H 	0.78240 0.95270 0.81130 0.16200
H 	H 	0.14440 0.65680 0.06930 0.05800
H 	H 	0.61890 0.76520 0.70340 0.15200
H 	H 	0.59630 0.15100 0.71530 -0.02100
H 	H 	0.55150 0.06780 0.25650 0.17300
H 	H 	0.00840 0.82060 0.00390 0.04300
H 	H 	0.13570 0.70790 0.70080 0.16200
H 	H 	0.92570 0.26240 0.83720 0.08800
H 	H 	0.40370 0.84900 0.28470 -0.02100
H 	H 	0.64920 0.61440 0.38020 0.09900
H 	H 	0.11670 0.07060 0.82720 0.08800
H 	H 	0.26020 0.22880 0.83680 0.00300
H 	H 	0.00710 0.44440 0.53670 -0.00200
H 	H 	0.88300 0.30070 0.41100 -0.03100
H 	H 	0.37330 0.61190 0.51480 0.05300
H 	H 	0.88320 0.74590 0.81040 0.04800
H 	H 	0.29390 0.83630 0.91190 0.16800
H 	H 	0.13590 0.59790 0.95580 0.04800
H 	H 	0.60900 0.58440 0.68840 -0.02800
H 	H 	0.90280 0.20840 0.72420 -0.02700
H 	H 	0.11700 0.69930 0.58900 -0.03100
H 	H 	0.94640 0.80540 0.65690 0.16300
H 	H 	0.45980 0.34810 0.53140 0.05600
H 	H 	0.17410 0.32680 0.65190 -0.02200
H 	H 	0.64700 0.44000 0.81580 0.01700
H 	H 	0.28980 0.91390 0.12350 -0.03500
H 	H 	0.09720 0.79160 0.27580 -0.02700
H 	H 	0.64940 0.35050 0.25950 0.14900
H 	H 	0.35060 0.64950 0.74050 0.14900
H 	H 	0.82160 0.49810 0.49880 0.10500
H 	H 	0.35300 0.56000 0.18420 0.01700
H 	H 	0.78530 0.58670 0.80910 0.08900
H 	H 	0.84960 0.71430 0.00920 0.08800
H 	H 	0.21760 0.04730 0.18870 0.16200
H 	H 	0.93590 0.62790 0.64480 -0.03400
H 	H 	0.14820 0.96970 0.00530 0.04400
H 	H 	0.54020 0.65190 0.46860 0.05600
H 	H 	0.85560 0.34320 0.93070 0.05800
H 	H 	0.39100 0.41560 0.31160 -0.02800
H 	H 	0.96240 0.49160 0.26630 -0.01000
H 	H 	0.39170 0.52580 0.79140 -0.02300
H 	H 	0.86430 0.29210 0.29920 0.16200
H 	H 	0.55160 0.78260 0.00740 0.00100
H 	H 	0.65980 0.27840 0.03460 -0.02400
H 	H 	0.11680 0.25410 0.18960 0.04800
H 	H 	0.34020 0.72160 0.96540 -0.02400
H 	H 	0.68970 0.93840 0.01080 0.08900
H 	H 	0.60830 0.47420 0.20860 -0.02300
H 	H 	0.88330 0.92940 0.17280 0.08800
H 	H 	0.21470 0.41330 0.19090 0.08900
H 	H 	0.93650 0.42970 0.15310 0.09000
H 	H 	0.44840 0.21740 0.99260 0.00100
H 	H 	0.05360 0.19460 0.34310 0.16300
H 	H 	0.06350 0.57030 0.84690 0.09000
H 	H 	0.17840 0.50190 0.50120 0.10500
H 	H 	0.71020 0.08610 0.87650 -0.03500
H 	H 	0.97580 0.10280 0.18820 0.05000
H 	H 	0.15040 0.28570 0.99080 0.08800
H 	H 	0.73980 0.77120 0.16320 0.00300
H 	H 	0.07430 0.73760 0.16280 0.08800
H 	H 	0.35080 0.38560 0.61980 0.09900
H 	H 	0.03760 0.50840 0.73370 -0.01000
H 	H 	0.31030 0.06160 0.98920 0.08900
H 	H 	0.57480 0.07550 0.36800 -0.02700
H 	H 	0.85180 0.03030 0.99470 0.04400
H 	H 	0.99160 0.17940 0.99610 0.04300
H 	H 	0.02420 0.89720 0.81180 0.05000
H 	H 	0.44850 0.93220 0.74350 0.17300
H 	H 	0.29050 0.43450 0.99000 -0.00500
H 	H 	0.99290 0.55560 0.46330 -0.00200
H 	H 	0.70610 0.16370 0.08810 0.16800
C 	C 	0.16250 0.33090 0.09020 0.08900
C 	C 	0.61910 0.81250 0.04180 0.10100
C 	C 	0.02870 0.49620 0.82300 -0.15500
C 	C 	0.74660 0.99410 0.79180 -0.37000
C 	C 	0.05260 0.68520 0.18260 -0.15700
C 	C 	0.98770 0.54120 0.24510 0.09700
C 	C 	0.31690 0.26230 0.30850 -0.33600
C 	C 	0.93650 0.79050 0.85020 -0.04900
C 	C 	0.52490 0.59090 0.48160 -0.04000
C 	C 	0.80990 0.65940 0.96860 -0.15400
C 	C 	0.68540 0.03360 0.69740 -0.35900
C 	C 	0.40360 0.78190 0.15520 0.34500
C 	C 	0.02140 0.88160 0.85120 -0.04400
C 	C 	0.26810 0.80900 0.59930 -0.25000
C 	C 	0.97860 0.11840 0.14880 -0.04400
C 	C 	0.76880 0.58680 0.66190 -0.23500
C 	C 	0.19010 0.34060 0.03140 -0.15400
C 	C 	0.27200 0.19420 0.86750 0.09500
C 	C 	0.61960 0.11500 0.28770 -0.35900
C 	C 	0.71950 0.60460 0.39950 -0.17200
C 	C 	0.31240 0.50350 0.14450 0.08100
C 	C 	0.35020 0.66350 0.78590 -0.32800
C 	C 	0.70460 0.17810 0.26890 0.36700
C 	C 	0.99880 0.46270 0.93050 -0.01200
C 	C 	0.70160 0.07290 0.83060 0.22100
C 	C 	0.31460 0.96640 0.30260 -0.35900
C 	C 	0.00650 0.57640 0.14200 0.09200
C 	C 	0.18470 0.74720 0.62020 0.21700
C 	C 	0.29840 0.92710 0.16940 0.22100
C 	C 	0.42350 0.56590 0.50860 -0.03900
C 	C 	0.19640 0.05020 0.91010 0.10200
C 	C 	0.32570 0.75730 0.82460 0.35000
C 	C 	0.34300 0.70590 0.92010 0.19900
C 	C 	0.58980 0.45870 0.08000 0.42700
C 	C 	0.72800 0.80580 0.13250 0.09500
C 	C 	0.92950 0.76440 0.90750 -0.01400
C 	C 	0.08130 0.55740 0.97350 -0.03700
C 	C 	0.47510 0.40910 0.51840 -0.04000
C 	C 	0.82600 0.63830 0.37940 0.09400
C 	C 	0.29540 0.82190 0.73110 0.36700
C 	C 	0.19490 0.75130 0.68720 -0.35600
C 	C 	0.60390 0.52580 0.47380 -0.01600
C 	C 	0.28360 0.44390 0.55190 0.11100
C 	C 	0.72390 0.56920 0.96870 0.09500
C 	C 	0.25110 0.80540 0.52710 0.39300
C 	C 	0.39610 0.47420 0.52620 -0.01600
C 	C 	0.10310 0.95080 0.90950 -0.01400
C 	C 	0.23210 0.53060 0.34950 0.37900
C 	C 	0.83750 0.66910 0.90980 0.08900
C 	C 	0.36680 0.87970 0.64510 0.21700
C 	C 	0.91870 0.44260 0.02650 -0.03700
C 	C 	0.59640 0.21810 0.84480 0.34500
C 	C 	0.06690 0.71740 0.25080 0.09000
C 	C 	0.27610 0.43080 0.03130 0.09500
C 	C 	0.62660 0.38920 0.11610 -0.24000
C 	C 	0.63540 0.11250 0.73570 0.20000
C 	C 	0.00120 0.53730 0.06950 -0.01200
C 	C 	0.06350 0.20950 0.14980 -0.04900
C 	C 	0.76790 0.46940 0.65050 0.37900
C 	C 	0.32330 0.37100 0.31840 0.20400
C 	C 	0.67430 0.24270 0.17540 0.35000
C 	C 	0.17400 0.36170 0.62060 0.09400
C 	C 	0.78620 0.80520 0.68360 0.35000
C 	C 	0.70360 0.90660 0.04280 -0.16500
C 	C 	0.18330 0.09970 0.86220 -0.15700
C 	C 	0.07680 0.43000 0.55310 0.11200
C 	C 	0.01090 0.83500 0.96420 -0.04100
C 	C 	0.64980 0.33650 0.21410 -0.32800
C 	C 	0.68760 0.49650 0.85550 0.08100
C 	C 	0.64420 0.13290 0.80360 -0.23900
C 	C 	0.41020 0.54130 0.92000 0.42700
C 	C 	0.74890 0.19460 0.47290 0.39300
C 	C 	0.80360 0.94980 0.08990 0.10200
C 	C 	0.37340 0.61080 0.88390 -0.24000
C 	C 	0.35580 0.86710 0.19640 -0.23900
C 	C 	0.21380 0.19480 0.31640 0.35000
C 	C 	0.38090 0.18750 0.95820 0.10100
C 	C 	0.09530 0.92520 0.96530 -0.04600
C 	C 	0.71640 0.55610 0.44810 0.11100
C 	C 	0.73190 0.19100 0.40070 -0.25000
C 	C 	0.90470 0.07480 0.03470 -0.04600
C 	C 	0.87090 0.65500 0.65540 0.20900
C 	C 	0.98910 0.16500 0.03580 -0.04100
C 	C 	0.25340 0.00590 0.20820 -0.37000
C 	C 	0.37470 0.58920 0.81660 0.19500
C 	C 	0.26050 0.02450 0.27490 0.37300
C 	C 	0.17980 0.46420 0.53100 -0.18100
C 	C 	0.28050 0.39540 0.60050 -0.17200
C 	C 	0.68260 0.22440 0.11170 -0.34600
C 	C 	0.97130 0.50380 0.17700 -0.15500
C 	C 	0.81530 0.25280 0.37980 0.21700
C 	C 	0.92320 0.57000 0.44690 0.11200
C 	C 	0.87840 0.76170 0.66420 -0.33800
C 	C 	0.89690 0.04920 0.09050 -0.01400
C 	C 	0.68310 0.73770 0.69150 -0.33600
C 	C 	0.01230 0.45880 0.75490 0.09700
C 	C 	0.67670 0.62900 0.68160 0.20400
C 	C 	0.73950 0.97550 0.72510 0.37300
C 	C 	0.08550 0.59410 0.04160 -0.05100
C 	C 	0.23120 0.41320 0.33810 -0.23500
C 	C 	0.22780 0.41570 0.14910 -0.14400
C 	C 	0.38040 0.88500 0.71230 -0.35900
C 	C 	0.99350 0.42360 0.85800 0.09200
C 	C 	0.93310 0.28260 0.74920 0.09000
C 	C 	0.36460 0.88750 0.26430 0.20000
C 	C 	0.91450 0.40590 0.95840 -0.05100
C 	C 	0.12910 0.34500 0.34460 0.20900
C 	C 	0.12160 0.23830 0.33580 -0.33800
C 	C 	0.29640 0.09340 0.95720 -0.16500
C 	C 	0.82020 0.53580 0.46900 -0.18100
C 	C 	0.63320 0.12030 0.35490 0.21700
C 	C 	0.81670 0.90030 0.13780 -0.15700
C 	C 	0.31740 0.77560 0.88830 -0.34600
C 	C 	0.07050 0.23560 0.09250 -0.01400
C 	C 	0.62530 0.41080 0.18340 0.19500
C 	C 	0.57650 0.43410 0.49140 -0.03900
C 	C 	0.65700 0.29410 0.07990 0.19900
C 	C 	0.80510 0.24870 0.31280 -0.35600
C 	C 	0.94740 0.31480 0.81740 -0.15700
C 	C 	0.77220 0.58430 0.85090 -0.14400
N 	N 	0.66050 0.48770 0.91360 -0.22800
N 	N 	0.62840 0.76380 0.08590 -0.22700
N 	N 	0.07080 0.37720 0.59670 -0.24500
N 	N 	0.03950 0.64770 0.28360 -0.25300
N 	N 	0.96050 0.35230 0.71640 -0.25300
N 	N 	0.33950 0.51230 0.08640 -0.22800
N 	N 	0.92920 0.62280 0.40330 -0.24500
N 	N 	0.37160 0.23620 0.91410 -0.22700
O 	O 	0.15170 0.75140 0.49110 -0.43300
O 	O 	0.52810 0.26210 0.81810 -0.36900
O 	O 	0.31170 0.58770 0.32910 -0.28700
O 	O 	0.30480 0.83850 0.79980 -0.33200
O 	O 	0.59340 0.55680 0.11420 -0.42500
O 	O 	0.62430 0.24900 0.90830 -0.37200
O 	O 	0.40660 0.44320 0.88580 -0.42500
O 	O 	0.84790 0.43790 0.62210 -0.42300
O 	O 	0.19730 0.08940 0.31310 -0.35100
O 	O 	0.15210 0.56210 0.37790 -0.42300
O 	O 	0.69520 0.16150 0.20020 -0.33200
O 	O 	0.44680 0.58560 0.98220 -0.45000
O 	O 	0.66170 0.14390 0.49140 -0.29400
O 	O 	0.84830 0.24860 0.50890 -0.43300
O 	O 	0.37570 0.75100 0.09170 -0.37200
O 	O 	0.33830 0.85610 0.50860 -0.29400
O 	O 	0.68830 0.41230 0.67090 -0.28700
O 	O 	0.55320 0.41440 0.01780 -0.45000
O 	O 	0.80270 0.91060 0.68690 -0.35100
O 	O 	0.47190 0.73790 0.18190 -0.36900
