data_crystal

_cell_length_a 11.70000
_cell_length_b 11.83100
_cell_length_c 13.49000
_cell_angle_alpha 90.00000
_cell_angle_beta  90.00000
_cell_angle_gamma 90.00000

_symmetry_space_group_name_	'P 1'
_symmetry_space_group_name_H-M	'P 1'

loop_
_symmetry_equiv_pos_as_xyz
  x,y,z

loop_
_atom_site_label
_atom_site_type_symbol
_atom_site_fract_x
_atom_site_fract_y
_atom_site_fract_z
_atom_site_charge
Cd	Cd	0.28255 0.00000 -0.00000 1.18700
Fe	Fe	0.21276 0.00000 0.50000 1.12100
H 	H 	0.39850 0.10490 0.58030 0.04300
H 	H 	0.27590 0.22080 0.45950 0.05700
H 	H 	0.06470 0.17720 0.49230 0.07000
H 	H 	0.05640 0.04370 0.64490 0.02600
H 	H 	0.14450 0.77420 0.92100 0.05200
H 	H 	0.14170 0.58430 0.92560 0.01600
H 	H 	0.43640 0.58740 0.07280 0.02700
H 	H 	0.42720 0.78370 0.07210 0.04400
H 	H 	0.49920 0.90960 0.87740 0.01000
H 	H 	0.69840 0.91210 0.87450 0.06500
H 	H 	0.86920 0.92080 0.13170 0.07400
H 	H 	0.06750 0.92770 0.12970 -0.00200
H 	H 	0.39850 0.89510 0.41970 0.08900
H 	H 	0.27590 0.77920 0.54050 0.05500
H 	H 	0.06470 0.82280 0.50770 0.07500
H 	H 	0.05640 0.95630 0.35510 0.07600
H 	H 	0.14450 0.22580 0.07900 -0.04100
H 	H 	0.14170 0.41570 0.07440 0.13700
H 	H 	0.43640 0.41260 0.92720 0.14900
H 	H 	0.42720 0.21630 0.92790 -0.03700
H 	H 	0.49920 0.09040 0.12260 0.01500
H 	H 	0.69840 0.08790 0.12550 0.06500
H 	H 	0.86920 0.07920 0.86830 0.06100
H 	H 	0.06750 0.07230 0.87030 0.00000
C 	C 	0.23930 0.04930 0.64070 -0.26900
C 	C 	0.31490 0.10650 0.57750 -0.12200
C 	C 	0.24660 0.17250 0.51280 -0.12200
C 	C 	0.13010 0.14650 0.52880 -0.20900
C 	C 	0.12560 0.07310 0.61310 -0.08900
C 	C 	0.20330 0.73670 0.95370 -0.01000
C 	C 	0.20160 0.62310 0.95550 0.05600
C 	C 	0.28820 0.56380 0.00140 -0.16200
C 	C 	0.37480 0.62410 0.04330 0.00900
C 	C 	0.36940 0.74290 0.04110 -0.03900
C 	C 	0.53910 0.94700 0.92720 0.12800
C 	C 	0.65910 0.05250 0.07420 -0.09200
C 	C 	0.90720 0.95360 0.07840 -0.06100
C 	C 	0.02670 0.95670 0.07620 0.11700
C 	C 	0.23930 0.95070 0.35930 -0.09200
C 	C 	0.31490 0.89350 0.42250 -0.17600
C 	C 	0.24660 0.82750 0.48720 -0.09500
C 	C 	0.13010 0.85350 0.47120 -0.17500
C 	C 	0.12560 0.92690 0.38690 -0.14200
C 	C 	0.20330 0.26330 0.04630 0.17800
C 	C 	0.20160 0.37690 0.04450 -0.33700
C 	C 	0.28820 0.43620 0.99860 0.28700
C 	C 	0.37480 0.37590 0.95670 -0.28700
C 	C 	0.36940 0.25710 0.95890 0.21400
C 	C 	0.53910 0.05300 0.07280 0.02400
C 	C 	0.65910 0.94750 0.92580 0.00500
C 	C 	0.90720 0.04640 0.92160 -0.07000
C 	C 	0.02670 0.04330 0.92380 0.08000
C 	C 	0.71780 0.00000 -0.00000 -0.05400
C 	C 	0.84560 0.00000 -0.00000 -0.03500
S 	S 	0.27840 0.96300 0.73989 0.64900
S 	S 	0.27840 0.03700 0.26011 0.35100
N 	N 	0.28610 0.79930 0.99700 -0.15200
N 	N 	0.28610 0.20070 0.00300 -0.29000
N 	N 	0.48100 0.00000 -0.00000 -0.28100
N 	N 	0.08370 0.00000 -0.00000 -0.29200
O 	O 	0.28370 0.03350 0.82730 -0.44700
O 	O 	0.38950 0.91560 0.71550 -0.29200
O 	O 	0.18810 0.87810 0.74960 -0.29500
O 	O 	0.28370 0.96650 0.17270 -0.31200
O 	O 	0.38950 0.08440 0.28450 -0.27100
O 	O 	0.18810 0.12190 0.25040 -0.27900
Cd	Cd	0.71745 0.50000 0.50000 1.21200
Fe	Fe	0.78724 0.50000 -0.00000 1.13100
H 	H 	0.60150 0.39510 0.08030 0.04900
H 	H 	0.72410 0.27920 0.95950 0.09800
H 	H 	0.93530 0.32280 0.99230 0.12000
H 	H 	0.94360 0.45630 0.14490 0.03500
H 	H 	0.85550 0.72580 0.42100 -0.01200
H 	H 	0.85830 0.91570 0.42560 0.11600
H 	H 	0.56360 0.91260 0.57280 0.12900
H 	H 	0.57280 0.71630 0.57210 -0.01200
H 	H 	0.50080 0.59040 0.37740 0.01200
H 	H 	0.30160 0.58790 0.37450 0.08900
H 	H 	0.13080 0.57920 0.63170 0.08300
H 	H 	0.93250 0.57230 0.62970 0.00600
H 	H 	0.60150 0.60490 0.91970 0.08200
H 	H 	0.72410 0.72080 0.04050 0.02100
H 	H 	0.93530 0.67720 0.00770 0.02700
H 	H 	0.94360 0.54370 0.85510 0.06400
H 	H 	0.85550 0.27420 0.57900 0.01700
H 	H 	0.85830 0.08430 0.57440 0.03700
H 	H 	0.56360 0.08740 0.42720 0.04700
H 	H 	0.57280 0.28370 0.42790 0.01200
H 	H 	0.50080 0.40960 0.62260 0.01100
H 	H 	0.30160 0.41210 0.62550 0.09000
H 	H 	0.13080 0.42080 0.36830 0.08000
H 	H 	0.93250 0.42770 0.37030 0.00300
C 	C 	0.76070 0.45070 0.14070 -0.20300
C 	C 	0.68510 0.39350 0.07750 -0.13100
C 	C 	0.75340 0.32750 0.01280 -0.16400
C 	C 	0.86990 0.35350 0.02880 -0.25300
C 	C 	0.87440 0.42690 0.11310 -0.09400
C 	C 	0.79670 0.76330 0.45370 0.12900
C 	C 	0.79840 0.87690 0.45550 -0.21200
C 	C 	0.71180 0.93620 0.50140 0.19000
C 	C 	0.62520 0.87590 0.54330 -0.20900
C 	C 	0.63060 0.75710 0.54110 0.12700
C 	C 	0.46090 0.55300 0.42720 0.06900
C 	C 	0.34090 0.44750 0.57420 -0.12900
C 	C 	0.09280 0.54640 0.57840 -0.12400
C 	C 	0.97330 0.54330 0.57620 0.07100
C 	C 	0.76070 0.54930 0.85930 -0.16500
C 	C 	0.68510 0.60650 0.92250 -0.16800
C 	C 	0.75340 0.67250 0.98720 -0.05500
C 	C 	0.86990 0.64650 0.97120 -0.13300
C 	C 	0.87440 0.57310 0.88690 -0.13800
C 	C 	0.79670 0.23670 0.54630 0.03900
C 	C 	0.79840 0.12310 0.54450 -0.06900
C 	C 	0.71180 0.06380 0.49860 -0.06400
C 	C 	0.62520 0.12410 0.45670 -0.06900
C 	C 	0.63060 0.24290 0.45890 0.04600
C 	C 	0.46090 0.44700 0.57280 0.06900
C 	C 	0.34090 0.55250 0.42580 -0.12900
C 	C 	0.09280 0.45360 0.42160 -0.12500
C 	C 	0.97330 0.45670 0.42380 0.07100
C 	C 	0.28220 0.50000 0.50000 0.06400
C 	C 	0.15440 0.50000 0.50000 0.05500
S 	S 	0.72160 0.53700 0.23989 0.50800
S 	S 	0.72160 0.46300 0.76011 0.50000
N 	N 	0.71390 0.70070 0.49700 -0.24100
N 	N 	0.71390 0.29930 0.50300 -0.21200
N 	N 	0.51900 0.50000 0.50000 -0.22800
N 	N 	0.91630 0.50000 0.50000 -0.23000
O 	O 	0.71630 0.46650 0.32730 -0.39200
O 	O 	0.61050 0.58440 0.21550 -0.28400
O 	O 	0.81190 0.62190 0.24960 -0.29100
O 	O 	0.71630 0.53350 0.67270 -0.38800
O 	O 	0.61050 0.41560 0.78450 -0.28100
O 	O 	0.81190 0.37810 0.75040 -0.28700
