data_crystal

_cell_length_a 11.34300
_cell_length_b 14.31100
_cell_length_c 16.92800
_cell_angle_alpha 90.00000
_cell_angle_beta  104.14000
_cell_angle_gamma 90.00000

_symmetry_space_group_name_	'P 1'
_symmetry_space_group_name_H-M	'P 1'

loop_
_symmetry_equiv_pos_as_xyz
  x,y,z

loop_
_atom_site_label
_atom_site_type_symbol
_atom_site_fract_x
_atom_site_fract_y
_atom_site_fract_z
_atom_site_charge
Cr	Cr	0.08520 0.88354 0.82268 1.56900
Mn	Mn	0.31673 0.90710 0.14258 1.29100
O 	O 	0.15745 0.79883 0.91432 -0.38600
O 	O 	0.16242 0.98135 0.90111 -0.37900
O 	O 	0.23578 0.87850 0.78450 -0.39400
O 	O 	0.03844 0.97886 0.73632 -0.38100
O 	O 	0.93492 0.88652 0.85939 -0.39100
O 	O 	0.00299 0.78010 0.75513 -0.44100
O 	O 	0.25341 0.80673 0.04577 -0.32400
O 	O 	0.26707 0.99482 0.02986 -0.30400
O 	O 	0.33494 0.96458 0.71234 -0.35500
O 	O 	0.12974 0.07015 0.66144 -0.31300
O 	O 	0.78623 0.78852 0.86848 -0.16600
O 	O 	0.83452 0.69352 0.73779 -0.38300
C 	C 	0.20840 0.84151 0.97916 0.20400
C 	C 	0.21400 0.94894 0.97076 0.19000
C 	C 	0.24390 0.94495 0.73687 0.23700
C 	C 	0.12760 0.00379 0.70799 0.21300
C 	C 	0.86880 0.81368 0.83929 0.20900
C 	C 	0.90350 0.75604 0.77120 0.28700
Cr	Cr	0.58520 0.38354 0.82268 1.56800
Mn	Mn	0.81673 0.40710 0.14258 1.29100
O 	O 	0.65745 0.29883 0.91432 -0.38700
O 	O 	0.66242 0.48135 0.90111 -0.37900
O 	O 	0.73578 0.37850 0.78450 -0.39400
O 	O 	0.53844 0.47886 0.73632 -0.38300
O 	O 	0.43492 0.38652 0.85939 -0.39100
O 	O 	0.50299 0.28010 0.75513 -0.44200
O 	O 	0.75341 0.30673 0.04577 -0.32300
O 	O 	0.76707 0.49482 0.02986 -0.30300
O 	O 	0.83494 0.46458 0.71234 -0.35500
O 	O 	0.62974 0.57015 0.66144 -0.31300
O 	O 	0.28623 0.28852 0.86848 -0.16700
O 	O 	0.33452 0.19352 0.73779 -0.38400
C 	C 	0.70840 0.34151 0.97916 0.20400
C 	C 	0.71400 0.44894 0.97076 0.18900
C 	C 	0.74390 0.44495 0.73687 0.23600
C 	C 	0.62760 0.50379 0.70799 0.21600
C 	C 	0.36880 0.31368 0.83929 0.20800
C 	C 	0.40350 0.25604 0.77120 0.28800
Cr	Cr	0.08520 0.11646 0.32268 1.56900
Mn	Mn	0.31673 0.09290 0.64258 1.28900
O 	O 	0.15745 0.20117 0.41432 -0.38800
O 	O 	0.16242 0.01865 0.40111 -0.38100
O 	O 	0.23578 0.12150 0.28450 -0.39000
O 	O 	0.03844 0.02114 0.23632 -0.37700
O 	O 	0.93492 0.11348 0.35939 -0.38700
O 	O 	0.00299 0.21990 0.25513 -0.43700
O 	O 	0.25341 0.19327 0.54577 -0.35600
O 	O 	0.26707 0.00518 0.52986 -0.33600
O 	O 	0.33494 0.03542 0.21234 -0.35100
O 	O 	0.12974 0.92985 0.16144 -0.30700
O 	O 	0.78623 0.21148 0.36848 -0.15800
O 	O 	0.83452 0.30648 0.23779 -0.38000
C 	C 	0.20840 0.15849 0.47916 0.23800
C 	C 	0.21400 0.05106 0.47076 0.22200
C 	C 	0.24390 0.05505 0.23687 0.23800
C 	C 	0.12760 0.99621 0.20799 0.21500
C 	C 	0.86880 0.18632 0.33929 0.20900
C 	C 	0.90350 0.24396 0.27120 0.28800
Cr	Cr	0.58520 0.61646 0.32268 1.56900
Mn	Mn	0.81673 0.59290 0.64258 1.28900
O 	O 	0.65745 0.70117 0.41432 -0.38800
O 	O 	0.66242 0.51865 0.40111 -0.38200
O 	O 	0.73578 0.62150 0.28450 -0.39000
O 	O 	0.53844 0.52114 0.23632 -0.37800
O 	O 	0.43492 0.61348 0.35939 -0.38600
O 	O 	0.50299 0.71990 0.25513 -0.43900
O 	O 	0.75341 0.69327 0.54577 -0.35600
O 	O 	0.76707 0.50518 0.52986 -0.33600
O 	O 	0.83494 0.53542 0.21234 -0.35100
O 	O 	0.62974 0.42985 0.16144 -0.30700
O 	O 	0.28623 0.71148 0.36848 -0.15800
O 	O 	0.33452 0.80648 0.23779 -0.38100
C 	C 	0.70840 0.65849 0.47916 0.23800
C 	C 	0.71400 0.55106 0.47076 0.22200
C 	C 	0.74390 0.55505 0.23687 0.23700
C 	C 	0.62760 0.49621 0.20799 0.21600
C 	C 	0.36880 0.68632 0.33929 0.20900
C 	C 	0.40350 0.74396 0.27120 0.29000
