data_crystal

_cell_length_a 22.21900
_cell_length_b 5.52430
_cell_length_c 18.47190
_cell_angle_alpha 90.00000
_cell_angle_beta  115.96200
_cell_angle_gamma 90.00000

_symmetry_space_group_name_	'P 1'
_symmetry_space_group_name_H-M	'P 1'

loop_
_symmetry_equiv_pos_as_xyz
  x,y,z

loop_
_atom_site_label
_atom_site_type_symbol
_atom_site_fract_x
_atom_site_fract_y
_atom_site_fract_z
_atom_site_charge
C 	C 	0.64490 0.60730 0.33038 -0.17600
H 	H 	0.65460 0.73720 0.30520 0.08700
O 	O 	0.49831 0.81802 0.16494 -0.45700
O 	O 	0.56339 0.09930 0.15187 -0.33300
C 	C 	0.61380 0.22050 0.39869 0.09400
H 	H 	0.60340 0.08780 0.42210 -0.01000
N 	N 	0.57894 0.25422 0.31851 -0.26700
C 	C 	0.53356 0.90350 0.13172 0.36500
C 	C 	0.68058 0.57560 0.41339 0.12300
C 	C 	0.66403 0.37450 0.44723 -0.17300
H 	H 	0.68690 0.34500 0.50220 0.09400
C 	C 	0.59504 0.44490 0.28554 0.09100
H 	H 	0.57180 0.46890 0.23030 0.00100
C 	C 	0.49965 0.56700 0.03358 0.02700
C 	C 	0.53677 0.76270 0.06509 -0.20600
C 	C 	0.73244 0.75180 0.45995 -0.09000
H 	H 	0.56560 0.82200 0.04400 0.11400
H 	H 	0.74040 0.87500 0.43080 0.06400
H 	H 	0.47030 0.51200 0.05540 0.04300
C 	C 	0.14490 0.10730 0.33038 -0.17800
H 	H 	0.15460 0.23720 0.30520 0.08700
O 	O 	0.99831 0.31802 0.16494 -0.41600
O 	O 	0.06339 0.59930 0.15187 -0.34500
C 	C 	0.11380 0.72050 0.39869 0.09200
H 	H 	0.10340 0.58780 0.42210 -0.01600
N 	N 	0.07894 0.75422 0.31851 -0.27200
C 	C 	0.03356 0.40350 0.13172 0.37000
C 	C 	0.18058 0.07560 0.41339 0.12500
C 	C 	0.16403 0.87450 0.44723 -0.17900
H 	H 	0.18690 0.84500 0.50220 0.09300
C 	C 	0.09504 0.94490 0.28554 0.08800
H 	H 	0.07180 0.96890 0.23030 -0.00800
C 	C 	0.99965 0.06700 0.03358 0.28900
C 	C 	0.03677 0.26270 0.06509 -0.38500
C 	C 	0.23244 0.25180 0.45995 -0.09100
H 	H 	0.06560 0.32200 0.04400 0.16700
H 	H 	0.24040 0.37500 0.43080 0.06300
H 	H 	0.97030 0.01200 0.05540 -0.03000
C 	C 	0.35510 0.60730 0.16962 -0.17900
H 	H 	0.34540 0.73720 0.19480 0.08900
O 	O 	0.50169 0.81802 0.33506 -0.45600
O 	O 	0.43661 0.09930 0.34813 -0.33300
C 	C 	0.38620 0.22050 0.10131 0.09900
H 	H 	0.39660 0.08780 0.07790 -0.01300
N 	N 	0.42106 0.25422 0.18149 -0.26800
C 	C 	0.46644 0.90350 0.36828 0.36700
C 	C 	0.31942 0.57560 0.08661 0.12900
C 	C 	0.33597 0.37450 0.05277 -0.18300
H 	H 	0.31310 0.34500 0.99780 0.09900
C 	C 	0.40496 0.44490 0.21446 0.09300
H 	H 	0.42820 0.46890 0.26970 0.00000
C 	C 	0.50035 0.56700 0.46642 0.03300
C 	C 	0.46323 0.76270 0.43491 -0.20900
C 	C 	0.26756 0.75180 0.04005 -0.09900
H 	H 	0.43440 0.82200 0.45600 0.11600
H 	H 	0.25960 0.87500 0.06920 0.06600
H 	H 	0.52970 0.51200 0.44460 0.04100
C 	C 	0.85510 0.10730 0.16962 -0.17300
H 	H 	0.84540 0.23720 0.19480 0.08900
O 	O 	0.00169 0.31802 0.33506 -0.49100
O 	O 	0.93661 0.59930 0.34813 -0.31500
C 	C 	0.88620 0.72050 0.10131 0.10000
H 	H 	0.89660 0.58780 0.07790 -0.00500
N 	N 	0.92106 0.75422 0.18149 -0.25700
C 	C 	0.96644 0.40350 0.36828 0.35500
C 	C 	0.81942 0.07560 0.08661 0.12600
C 	C 	0.83597 0.87450 0.05277 -0.17500
H 	H 	0.81310 0.84500 0.99780 0.09600
C 	C 	0.90496 0.94490 0.21446 0.09200
H 	H 	0.92820 0.96890 0.26970 0.01100
C 	C 	0.00035 0.06700 0.46642 -0.23300
C 	C 	0.96323 0.26270 0.43491 -0.02600
C 	C 	0.76756 0.25180 0.04005 -0.09500
H 	H 	0.93440 0.32200 0.45600 0.06200
H 	H 	0.75960 0.37500 0.06920 0.06400
H 	H 	0.02970 0.01200 0.44460 0.11600
C 	C 	0.35510 0.39270 0.66962 -0.17500
H 	H 	0.34540 0.26280 0.69480 0.08800
O 	O 	0.50169 0.18198 0.83506 -0.45700
O 	O 	0.43661 0.90070 0.84813 -0.33400
C 	C 	0.38620 0.77950 0.60131 0.09400
H 	H 	0.39660 0.91220 0.57790 -0.01000
N 	N 	0.42106 0.74578 0.68149 -0.26700
C 	C 	0.46644 0.09650 0.86828 0.36800
C 	C 	0.31942 0.42440 0.58661 0.12200
C 	C 	0.33597 0.62550 0.55277 -0.17300
H 	H 	0.31310 0.65500 0.49780 0.09300
C 	C 	0.40496 0.55510 0.71446 0.09000
H 	H 	0.42820 0.53110 0.76970 0.00100
C 	C 	0.50035 0.43300 0.96642 0.03900
C 	C 	0.46323 0.23730 0.93491 -0.21200
C 	C 	0.26756 0.24820 0.54005 -0.08800
H 	H 	0.43440 0.17800 0.95600 0.11800
H 	H 	0.25960 0.12500 0.56920 0.06300
H 	H 	0.52970 0.48800 0.94460 0.04000
C 	C 	0.85510 0.89270 0.66962 -0.17100
H 	H 	0.84540 0.76280 0.69480 0.08800
O 	O 	0.00169 0.68198 0.83506 -0.49000
O 	O 	0.93661 0.40070 0.84813 -0.31600
C 	C 	0.88620 0.27950 0.60131 0.09800
H 	H 	0.89660 0.41220 0.57790 -0.00400
N 	N 	0.92106 0.24578 0.68149 -0.25700
C 	C 	0.96644 0.59650 0.86828 0.35600
C 	C 	0.81942 0.92440 0.58661 0.12200
C 	C 	0.83597 0.12550 0.55277 -0.17000
H 	H 	0.81310 0.15500 0.49780 0.09400
C 	C 	0.90496 0.05510 0.71446 0.09000
H 	H 	0.92820 0.03110 0.76970 0.01100
C 	C 	0.00035 0.93300 0.96642 -0.22300
C 	C 	0.96323 0.73730 0.93491 -0.03200
C 	C 	0.76756 0.74820 0.54005 -0.08800
H 	H 	0.93440 0.67800 0.95600 0.06400
H 	H 	0.75960 0.62500 0.56920 0.06200
H 	H 	0.02970 0.98800 0.94460 0.11300
C 	C 	0.64490 0.39270 0.83038 -0.17200
H 	H 	0.65460 0.26280 0.80520 0.08700
O 	O 	0.49831 0.18198 0.66494 -0.45600
O 	O 	0.56339 0.90070 0.65187 -0.33300
C 	C 	0.61380 0.77950 0.89869 0.09100
H 	H 	0.60340 0.91220 0.92210 -0.00900
N 	N 	0.57894 0.74578 0.81851 -0.26600
C 	C 	0.53356 0.09650 0.63172 0.36700
C 	C 	0.68058 0.42440 0.91339 0.11800
C 	C 	0.66403 0.62550 0.94723 -0.16600
H 	H 	0.68690 0.65500 0.00220 0.09000
C 	C 	0.59504 0.55510 0.78554 0.08900
H 	H 	0.57180 0.53110 0.73030 0.00200
C 	C 	0.49965 0.43300 0.53358 0.03300
C 	C 	0.53677 0.23730 0.56509 -0.20900
C 	C 	0.73244 0.24820 0.95995 -0.08200
H 	H 	0.56560 0.17800 0.54400 0.11600
H 	H 	0.74040 0.12500 0.93080 0.06200
H 	H 	0.47030 0.48800 0.55540 0.04200
C 	C 	0.14490 0.89270 0.83038 -0.17300
H 	H 	0.15460 0.76280 0.80520 0.08600
O 	O 	0.99831 0.68198 0.66494 -0.41700
O 	O 	0.06339 0.40070 0.65187 -0.34500
C 	C 	0.11380 0.27950 0.89869 0.08600
H 	H 	0.10340 0.41220 0.92210 -0.01300
N 	N 	0.07894 0.24578 0.81851 -0.27100
C 	C 	0.03356 0.59650 0.63172 0.37200
C 	C 	0.18058 0.92440 0.91339 0.11700
C 	C 	0.16403 0.12550 0.94723 -0.16700
H 	H 	0.18690 0.15500 0.00220 0.08700
C 	C 	0.09504 0.05510 0.78554 0.08600
H 	H 	0.07180 0.03110 0.73030 -0.00700
C 	C 	0.99965 0.93300 0.53358 0.29800
C 	C 	0.03677 0.73730 0.56509 -0.39000
C 	C 	0.23244 0.74820 0.95995 -0.08000
H 	H 	0.06560 0.67800 0.54400 0.16900
H 	H 	0.24040 0.62500 0.93080 0.06000
H 	H 	0.97030 0.98800 0.55540 -0.03200
Zn	Zn	0.50000 0.03681 0.25000 1.20800
Zn	Zn	-0.00000 0.53681 0.25000 1.19400
Zn	Zn	0.50000 0.96319 0.75000 1.20800
Zn	Zn	0.00000 0.46319 0.75000 1.19500
