data_crystal

_cell_length_a 10.75750
_cell_length_b 15.31800
_cell_length_c 29.39060
_cell_angle_alpha 81.11200
_cell_angle_beta  87.71100
_cell_angle_gamma 84.53600

_symmetry_space_group_name_	'P 1'
_symmetry_space_group_name_H-M	'P 1'

loop_
_symmetry_equiv_pos_as_xyz
  x,y,z

loop_
_atom_site_label
_atom_site_type_symbol
_atom_site_fract_x
_atom_site_fract_y
_atom_site_fract_z
_atom_site_charge
Zn	Zn	0.27361 0.64965 0.69180 1.22000
Zn	Zn	0.30113 0.87076 0.17906 1.22000
Zn	Zn	0.20491 0.14310 0.19025 1.22300
Zn	Zn	0.23574 0.39167 0.68358 1.21800
N 	N 	0.19010 0.09368 0.26199 -0.23200
N 	N 	0.24560 0.60058 0.76373 -0.23000
N 	N 	0.28720 0.70377 0.61896 -0.21200
N 	N 	0.27610 0.81712 0.25016 -0.22500
N 	N 	0.21690 0.33340 0.75476 -0.22200
N 	N 	0.26000 0.44175 0.61158 -0.23200
O 	O 	0.30990 0.26608 0.20332 -0.35400
O 	O 	0.18990 0.79567 0.69770 -0.36400
O 	O 	0.41080 0.75120 0.16935 -0.41400
O 	O 	0.41003 0.41831 0.69598 -0.48900
N 	N 	0.25630 0.10749 0.95382 -0.14100
O 	O 	0.36720 0.06957 0.18156 -0.51200
O 	O 	0.05136 0.08478 0.17797 -0.46900
O 	O 	0.14800 0.28671 0.66787 -0.43800
O 	O 	0.42351 0.56508 0.68172 -0.49600
O 	O 	0.20900 0.74303 0.16594 -0.38300
O 	O 	0.34810 0.24194 0.67309 -0.34700
O 	O 	0.08140 0.47568 0.69245 -0.49900
O 	O 	0.10720 0.26647 0.19679 -0.41300
O 	O 	0.09825 0.62212 0.68110 -0.49400
O 	O 	0.13140 0.94335 0.18750 -0.50200
N 	N 	0.26770 0.14849 0.90886 -0.13700
N 	N 	0.23220 0.19785 0.11788 -0.21300
N 	N 	0.29870 0.92099 0.10685 -0.23100
N 	N 	0.28670 0.61496 0.45531 -0.14200
N 	N 	0.21480 0.87680 0.46307 -0.14300
C 	C 	0.18470 0.23920 0.84347 -0.02400
C 	C 	0.30410 0.78360 0.52647 -0.03800
N 	N 	0.30850 0.64938 0.40952 -0.13800
O 	O 	0.38790 0.74778 0.70463 -0.39400
C 	C 	0.15670 0.01900 0.35455 -0.01600
O 	O 	0.45327 0.93063 0.19170 -0.48100
C 	C 	0.18420 0.52810 0.85444 -0.03000
C 	C 	0.30280 0.24600 0.82284 -0.08500
H 	H 	0.37320 0.21870 0.83840 0.07700
C 	C 	0.13890 0.75670 0.31031 -0.10300
H 	H 	0.05820 0.74380 0.31970 0.07900
C 	C 	0.16860 0.18830 0.89007 0.23500
C 	C 	0.16320 0.79590 0.26614 0.06600
H 	H 	0.09710 0.80850 0.24600 0.00900
C 	C 	0.31790 0.70700 0.16803 0.35300
C 	C 	0.23680 0.73630 0.34121 -0.02200
N 	N 	0.19210 0.37550 0.96110 -0.14200
N 	N 	0.22810 0.91690 0.41711 -0.13400
C 	C 	0.31280 0.82730 0.47765 0.24000
C 	C 	0.81160 0.02430 0.19312 0.02900
H 	H 	0.81830 0.08420 0.19380 0.03600
C 	C 	0.21440 0.69310 0.38896 0.23000
C 	C 	0.91550 0.97130 0.19096 -0.26400
H 	H 	0.90830 0.91080 0.19300 0.13300
C 	C 	0.37060 0.79775 0.27955 0.05300
H 	H 	0.45010 0.81170 0.26910 0.02300
C 	C 	0.68520 0.53150 0.69163 0.01300
C 	C 	0.81990 0.51250 0.69236 0.05900
H 	H 	0.85210 0.45360 0.69370 0.02400
C 	C 	0.31480 0.29330 0.77937 0.05300
H 	H 	0.39460 0.29780 0.76630 0.02500
C 	C 	0.33680 0.90240 0.69681 -0.20800
H 	H 	0.41950 0.91060 0.70180 0.11700
N 	N 	0.21830 0.41520 0.91632 -0.13800
C 	C 	0.58270 0.04660 0.19139 -0.29100
H 	H 	0.58640 0.10700 0.19110 0.14200
C 	C 	0.28460 0.32280 0.97832 0.24500
C 	C 	0.35500 0.75790 0.32472 -0.08800
H 	H 	0.42300 0.74560 0.34400 0.07400
C 	C 	0.40560 0.30470 0.95345 -0.75400
H 	H 	0.39170 0.31060 0.92100 0.26900
H 	H 	0.44060 0.24560 0.96440 0.25400
H 	H 	0.46250 0.34640 0.95890 0.24800
C 	C 	0.15250 0.48700 0.90219 0.23400
C 	C 	0.08260 0.28170 0.81818 -0.09700
H 	H 	0.00180 0.27930 0.83060 0.07800
C 	C 	0.30080 0.81070 0.70023 0.34200
C 	C 	0.14060 0.97710 0.40309 0.21100
C 	C 	0.34590 0.20810 0.09906 0.04400
H 	H 	0.41490 0.18860 0.11720 0.01200
C 	C 	0.10340 0.32670 0.77488 0.06000
H 	H 	0.03460 0.35430 0.75850 0.01400
C 	C 	0.68820 0.99400 0.19451 0.04700
H 	H 	0.68230 0.93310 0.19780 0.03100
C 	C 	0.26550 0.27880 0.02624 -0.04100
C 	C 	0.07650 0.08820 0.33355 -0.09000
H 	H 	0.00910 0.11120 0.35020 0.06700
C 	C 	0.27450 0.48660 0.82856 -0.07600
H 	H 	0.31640 0.43300 0.84110 0.06100
C 	C 	0.90010 0.57360 0.69118 -0.29000
H 	H 	0.86780 0.63180 0.69200 0.14500
C 	C 	0.04260 0.00170 0.18548 0.46200
C 	C 	0.20300 0.30630 0.19910 0.34200
C 	C 	0.60740 0.46870 0.69246 -0.23300
C 	C 	0.25680 0.97300 0.68702 0.01200
H 	H 	0.17420 0.96350 0.68290 0.03800
C 	C 	0.30450 0.98980 0.01242 -0.05000
C 	C 	0.20650 0.54240 0.54349 -0.07000
H 	H 	0.15740 0.59230 0.53010 0.05100
C 	C 	0.30260 0.52400 0.78443 0.04400
H 	H 	0.36440 0.49460 0.76790 0.00300
C 	C 	0.03730 0.55510 0.68861 0.47700
C 	C 	0.29300 0.49970 0.51708 -0.04600
C 	C 	0.31070 0.53190 0.46731 0.24500
C 	C 	0.36620 0.24610 0.05419 -0.07800
H 	H 	0.44740 0.25000 0.04250 0.04200
C 	C 	0.13510 0.22800 0.09088 0.03700
H 	H 	0.05500 0.22120 0.10320 0.00900
C 	C 	0.23710 0.22640 0.67032 0.35600
C 	C 	0.40820 0.74100 0.54997 -0.07500
H 	H 	0.48600 0.73810 0.53500 0.03900
C 	C 	0.19160 0.78420 0.55093 -0.07000
H 	H 	0.11930 0.81200 0.53680 0.04100
C 	C 	0.46890 0.48620 0.68973 0.45100
C 	C 	0.22880 0.02860 0.04372 -0.07100
H 	H 	0.17660 0.07940 0.03380 0.05600
C 	C 	0.28730 0.06390 0.68221 0.02600
H 	H 	0.37000 0.07390 0.68590 0.03500
C 	C 	0.09660 0.12330 0.28782 0.05900
H 	H 	0.04160 0.17000 0.27460 0.02200
C 	C 	0.18640 0.74400 0.59597 0.03500
H 	H 	0.10930 0.74460 0.61140 0.01600
C 	C 	0.45870 0.01280 0.18828 0.47000
C 	C 	0.25740 0.55400 0.17994 0.03000
H 	H 	0.17510 0.57860 0.18120 0.03100
C 	C 	0.39560 0.70310 0.59548 0.04200
H 	H 	0.46660 0.67560 0.61050 0.01200
C 	C 	0.43140 0.81180 0.45039 -0.75000
H 	H 	0.41680 0.83140 0.41830 0.26600
H 	H 	0.45880 0.74960 0.45510 0.25500
H 	H 	0.49460 0.84430 0.46030 0.24700
C 	C 	0.14740 0.26850 0.04601 -0.07500
H 	H 	0.07680 0.28900 0.02890 0.04400
C 	C 	0.08560 0.70280 0.41014 -0.73100
H 	H 	0.03700 0.65860 0.40170 0.25000
H 	H 	0.04630 0.76080 0.39930 0.24900
H 	H 	0.09090 0.69510 0.44310 0.25300
C 	C 	0.27730 0.45780 0.18673 0.01000
H 	H 	0.35900 0.43200 0.18550 0.04300
C 	C 	0.30870 0.02910 0.96310 0.24300
C 	C 	0.12740 0.60800 0.83328 -0.08400
H 	H 	0.06720 0.63970 0.84940 0.06600
C 	C 	0.18700 0.40510 0.19446 -0.20500
H 	H 	0.10620 0.43160 0.19730 0.11300
C 	C 	0.34410 0.60920 0.17226 -0.22500
H 	H 	0.42650 0.58600 0.16930 0.11600
C 	C 	0.15910 0.64100 0.78866 0.05500
H 	H 	0.11800 0.69440 0.77520 0.02200
C 	C 	0.25520 0.98860 0.32751 -0.09100
H 	H 	0.31220 0.94240 0.33990 0.06500
C 	C 	0.26840 0.02680 0.28254 0.05800
H 	H 	0.33530 0.00530 0.26520 -0.00100
C 	C 	0.05380 0.53150 0.92972 -0.73200
H 	H 	0.07910 0.58750 0.93490 0.23900
H 	H 	0.04130 0.49480 0.95880 0.24500
H 	H 	0.97720 0.54110 0.91330 0.24300
C 	C 	0.22940 0.99340 0.08950 0.03700
H 	H 	0.17770 0.02230 0.10970 0.00300
C 	C 	0.04210 0.18620 0.91242 -0.72900
H 	H 	0.99490 0.14710 0.89890 0.24600
H 	H 	0.99990 0.24490 0.90800 0.24700
H 	H 	0.04980 0.16540 0.94480 0.25500
C 	C 	0.20550 0.13340 0.67288 -0.22300
H 	H 	0.12360 0.12380 0.66760 0.11200
C 	C 	0.19210 0.51160 0.58963 0.03700
H 	H 	0.13140 0.54130 0.60650 0.00300
C 	C 	0.37170 0.88230 0.07702 0.03500
H 	H 	0.42250 0.83150 0.08800 0.00300
C 	C 	0.03230 0.00770 0.43133 -0.68400
H 	H 	0.04020 0.06750 0.43610 0.22500
H 	H 	0.03040 0.96980 0.46060 0.22800
H 	H 	0.95640 0.00560 0.41560 0.22500
C 	C 	0.35320 0.46900 0.43490 -0.76900
H 	H 	0.28390 0.43880 0.42780 0.25500
H 	H 	0.41710 0.42640 0.44890 0.25500
H 	H 	0.38610 0.50110 0.40710 0.27300
C 	C 	0.37360 0.97830 0.92798 -0.76900
H 	H 	0.31910 0.93760 0.91960 0.25600
H 	H 	0.44820 0.94590 0.94070 0.25700
H 	H 	0.39500 0.01880 0.90120 0.27400
C 	C 	0.37610 0.91370 0.03045 -0.07400
H 	H 	0.42790 0.88320 0.01100 0.03600
C 	C 	0.36410 0.42730 0.54006 -0.07700
H 	H 	0.42490 0.39600 0.52400 0.04100
C 	C 	0.34480 0.40160 0.58655 0.04300
H 	H 	0.39450 0.35310 0.60110 0.00500
H 	H 	0.65500 0.59400 0.69120 0.04000
H 	H 	0.63800 0.40600 0.69450 0.11900
Zn	Zn	0.72639 0.35035 0.30820 1.22100
Zn	Zn	0.69887 0.12924 0.82094 1.22100
Zn	Zn	0.79509 0.85690 0.80975 1.22400
Zn	Zn	0.76426 0.60833 0.31642 1.21900
N 	N 	0.80990 0.90632 0.73801 -0.23200
N 	N 	0.75440 0.39942 0.23627 -0.23000
N 	N 	0.71280 0.29623 0.38104 -0.21200
N 	N 	0.72390 0.18288 0.74984 -0.22500
N 	N 	0.78310 0.66660 0.24524 -0.22200
N 	N 	0.74000 0.55825 0.38842 -0.23200
O 	O 	0.69010 0.73392 0.79668 -0.35400
O 	O 	0.81010 0.20433 0.30230 -0.36400
O 	O 	0.58920 0.24880 0.83065 -0.41400
O 	O 	0.58997 0.58169 0.30402 -0.48900
N 	N 	0.74370 0.89251 0.04618 -0.14100
O 	O 	0.63280 0.93043 0.81844 -0.51200
O 	O 	0.94864 0.91522 0.82203 -0.46900
O 	O 	0.85200 0.71329 0.33213 -0.43800
O 	O 	0.57649 0.43492 0.31828 -0.49600
O 	O 	0.79100 0.25697 0.83406 -0.38300
O 	O 	0.65190 0.75806 0.32691 -0.34700
O 	O 	0.91860 0.52432 0.30755 -0.49900
O 	O 	0.89280 0.73353 0.80321 -0.41300
O 	O 	0.90175 0.37788 0.31890 -0.49400
O 	O 	0.86860 0.05665 0.81250 -0.50200
N 	N 	0.73230 0.85151 0.09114 -0.13700
N 	N 	0.76780 0.80215 0.88212 -0.21300
N 	N 	0.70130 0.07901 0.89315 -0.23100
N 	N 	0.71330 0.38504 0.54469 -0.14200
N 	N 	0.78520 0.12320 0.53693 -0.14300
C 	C 	0.81530 0.76080 0.15653 -0.02400
C 	C 	0.69590 0.21640 0.47353 -0.03800
N 	N 	0.69150 0.35062 0.59048 -0.13800
O 	O 	0.61210 0.25222 0.29537 -0.39400
C 	C 	0.84330 0.98100 0.64545 -0.01600
O 	O 	0.54673 0.06937 0.80830 -0.48100
C 	C 	0.81580 0.47190 0.14556 -0.03000
C 	C 	0.69720 0.75400 0.17716 -0.08500
H 	H 	0.62680 0.78130 0.16160 0.07700
C 	C 	0.86110 0.24330 0.68969 -0.10300
H 	H 	0.94180 0.25620 0.68030 0.07900
C 	C 	0.83140 0.81170 0.10993 0.23500
C 	C 	0.83680 0.20410 0.73386 0.06600
H 	H 	0.90290 0.19150 0.75400 0.00900
C 	C 	0.68210 0.29300 0.83197 0.35300
C 	C 	0.76320 0.26370 0.65879 -0.02200
N 	N 	0.80790 0.62450 0.03890 -0.14200
N 	N 	0.77190 0.08310 0.58289 -0.13400
C 	C 	0.68720 0.17270 0.52235 0.24000
C 	C 	0.18840 0.97570 0.80688 0.02900
H 	H 	0.18170 0.91580 0.80620 0.03600
C 	C 	0.78560 0.30690 0.61104 0.23000
C 	C 	0.08450 0.02870 0.80904 -0.26400
H 	H 	0.09170 0.08920 0.80700 0.13300
C 	C 	0.62940 0.20225 0.72045 0.05300
H 	H 	0.54990 0.18830 0.73090 0.02300
C 	C 	0.31480 0.46850 0.30837 0.01300
C 	C 	0.18010 0.48750 0.30764 0.05900
H 	H 	0.14790 0.54640 0.30630 0.02400
C 	C 	0.68520 0.70670 0.22063 0.05300
H 	H 	0.60540 0.70220 0.23370 0.02500
C 	C 	0.66320 0.09760 0.30319 -0.20800
H 	H 	0.58050 0.08940 0.29820 0.11700
N 	N 	0.78170 0.58480 0.08368 -0.13800
C 	C 	0.41730 0.95340 0.80861 -0.29100
H 	H 	0.41360 0.89300 0.80890 0.14200
C 	C 	0.71540 0.67720 0.02168 0.24500
C 	C 	0.64500 0.24210 0.67528 -0.08800
H 	H 	0.57700 0.25440 0.65600 0.07400
C 	C 	0.59440 0.69530 0.04655 -0.75400
H 	H 	0.60830 0.68940 0.07900 0.26900
H 	H 	0.55940 0.75440 0.03560 0.25400
H 	H 	0.53750 0.65360 0.04110 0.24800
C 	C 	0.84750 0.51300 0.09781 0.23400
C 	C 	0.91740 0.71830 0.18182 -0.09700
H 	H 	0.99820 0.72070 0.16940 0.07800
C 	C 	0.69920 0.18930 0.29977 0.34200
C 	C 	0.85940 0.02290 0.59691 0.21100
C 	C 	0.65410 0.79190 0.90094 0.04400
H 	H 	0.58510 0.81140 0.88280 0.01200
C 	C 	0.89660 0.67330 0.22512 0.06000
H 	H 	0.96540 0.64570 0.24150 0.01400
C 	C 	0.31180 0.00600 0.80549 0.04700
H 	H 	0.31770 0.06690 0.80220 0.03100
C 	C 	0.73450 0.72120 0.97376 -0.04100
C 	C 	0.92350 0.91180 0.66645 -0.09000
H 	H 	0.99090 0.88880 0.64980 0.06700
C 	C 	0.72550 0.51340 0.17144 -0.07600
H 	H 	0.68360 0.56700 0.15890 0.06100
C 	C 	0.09990 0.42640 0.30882 -0.29000
H 	H 	0.13220 0.36820 0.30800 0.14500
C 	C 	0.95740 0.99830 0.81452 0.46200
C 	C 	0.79700 0.69370 0.80090 0.34200
C 	C 	0.39260 0.53130 0.30754 -0.23300
C 	C 	0.74320 0.02700 0.31298 0.01200
H 	H 	0.82580 0.03650 0.31710 0.03800
C 	C 	0.69550 0.01020 0.98758 -0.05000
C 	C 	0.79350 0.45760 0.45651 -0.07000
H 	H 	0.84260 0.40770 0.46990 0.05100
C 	C 	0.69740 0.47600 0.21557 0.04400
H 	H 	0.63560 0.50540 0.23210 0.00300
C 	C 	0.96270 0.44490 0.31139 0.47700
C 	C 	0.70700 0.50030 0.48292 -0.04600
C 	C 	0.68930 0.46810 0.53269 0.24500
C 	C 	0.63380 0.75390 0.94581 -0.07800
H 	H 	0.55260 0.75000 0.95750 0.04200
C 	C 	0.86490 0.77200 0.90912 0.03700
H 	H 	0.94500 0.77880 0.89680 0.00900
C 	C 	0.76290 0.77360 0.32968 0.35600
C 	C 	0.59180 0.25900 0.45003 -0.07500
H 	H 	0.51400 0.26190 0.46500 0.03900
C 	C 	0.80840 0.21580 0.44907 -0.07000
H 	H 	0.88070 0.18800 0.46320 0.04100
C 	C 	0.53110 0.51380 0.31027 0.45100
C 	C 	0.77120 0.97140 0.95628 -0.07100
H 	H 	0.82340 0.92060 0.96620 0.05600
C 	C 	0.71270 0.93610 0.31779 0.02600
H 	H 	0.63000 0.92610 0.31410 0.03500
C 	C 	0.90340 0.87670 0.71218 0.05900
H 	H 	0.95840 0.83000 0.72540 0.02200
C 	C 	0.81360 0.25600 0.40403 0.03500
H 	H 	0.89070 0.25540 0.38860 0.01600
C 	C 	0.54130 0.98720 0.81172 0.47000
C 	C 	0.74260 0.44600 0.82006 0.03000
H 	H 	0.82490 0.42140 0.81880 0.03100
C 	C 	0.60440 0.29690 0.40452 0.04200
H 	H 	0.53340 0.32440 0.38950 0.01200
C 	C 	0.56860 0.18820 0.54961 -0.75000
H 	H 	0.58320 0.16860 0.58170 0.26600
H 	H 	0.54120 0.25040 0.54490 0.25500
H 	H 	0.50540 0.15570 0.53970 0.24700
C 	C 	0.85260 0.73150 0.95399 -0.07500
H 	H 	0.92320 0.71100 0.97110 0.04400
C 	C 	0.91440 0.29720 0.58986 -0.73100
H 	H 	0.96300 0.34140 0.59830 0.25000
H 	H 	0.95370 0.23920 0.60070 0.24900
H 	H 	0.90910 0.30490 0.55690 0.25300
C 	C 	0.72270 0.54220 0.81327 0.01000
H 	H 	0.64100 0.56800 0.81450 0.04300
C 	C 	0.69130 0.97090 0.03690 0.24300
C 	C 	0.87260 0.39200 0.16672 -0.08400
H 	H 	0.93280 0.36030 0.15060 0.06600
C 	C 	0.81300 0.59490 0.80554 -0.20500
H 	H 	0.89380 0.56840 0.80270 0.11300
C 	C 	0.65590 0.39080 0.82774 -0.22500
H 	H 	0.57350 0.41400 0.83070 0.11600
C 	C 	0.84090 0.35900 0.21134 0.05500
H 	H 	0.88200 0.30560 0.22480 0.02200
C 	C 	0.74480 0.01140 0.67249 -0.09100
H 	H 	0.68780 0.05760 0.66010 0.06500
C 	C 	0.73160 0.97320 0.71746 0.05800
H 	H 	0.66470 0.99470 0.73480 -0.00100
C 	C 	0.94620 0.46850 0.07028 -0.73200
H 	H 	0.92090 0.41250 0.06510 0.23900
H 	H 	0.95870 0.50520 0.04120 0.24500
H 	H 	0.02280 0.45890 0.08670 0.24300
C 	C 	0.77060 0.00660 0.91050 0.03700
H 	H 	0.82230 0.97770 0.89030 0.00300
C 	C 	0.95790 0.81380 0.08758 -0.72900
H 	H 	0.00510 0.85290 0.10110 0.24600
H 	H 	0.00010 0.75510 0.09200 0.24700
H 	H 	0.95020 0.83460 0.05520 0.25500
C 	C 	0.79450 0.86660 0.32712 -0.22300
H 	H 	0.87640 0.87620 0.33240 0.11200
C 	C 	0.80790 0.48840 0.41037 0.03700
H 	H 	0.86860 0.45870 0.39350 0.00300
C 	C 	0.62830 0.11770 0.92298 0.03500
H 	H 	0.57750 0.16850 0.91200 0.00300
C 	C 	0.96770 0.99230 0.56867 -0.68400
H 	H 	0.95980 0.93250 0.56390 0.22500
H 	H 	0.96960 0.03020 0.53940 0.22800
H 	H 	0.04360 0.99440 0.58440 0.22500
C 	C 	0.64680 0.53100 0.56510 -0.76900
H 	H 	0.71610 0.56120 0.57220 0.25500
H 	H 	0.58290 0.57360 0.55110 0.25500
H 	H 	0.61390 0.49890 0.59290 0.27300
C 	C 	0.62640 0.02170 0.07202 -0.76900
H 	H 	0.68090 0.06240 0.08040 0.25600
H 	H 	0.55180 0.05410 0.05930 0.25700
H 	H 	0.60500 0.98120 0.09880 0.27400
C 	C 	0.62390 0.08630 0.96955 -0.07400
H 	H 	0.57210 0.11680 0.98900 0.03600
C 	C 	0.63590 0.57270 0.45994 -0.07700
H 	H 	0.57510 0.60400 0.47600 0.04100
C 	C 	0.65520 0.59840 0.41345 0.04300
H 	H 	0.60550 0.64690 0.39890 0.00500
H 	H 	0.34500 0.40600 0.30880 0.04000
H 	H 	0.36200 0.59400 0.30550 0.11900
