data_crystal

_cell_length_a 10.20560
_cell_length_b 10.81930
_cell_length_c 13.09470
_cell_angle_alpha 91.51030
_cell_angle_beta  112.93500
_cell_angle_gamma 90.00000

_symmetry_space_group_name_	'P 1'
_symmetry_space_group_name_H-M	'P 1'

loop_
_symmetry_equiv_pos_as_xyz
  x,y,z

loop_
_atom_site_label
_atom_site_type_symbol
_atom_site_fract_x
_atom_site_fract_y
_atom_site_fract_z
_atom_site_charge
Cu	Cu	0.22548 0.73868 0.39506 0.87800
Cu	Cu	0.83042 0.76132 0.60494 0.87800
Cu	Cu	0.16958 0.23868 0.39506 0.87700
Cu	Cu	0.77452 0.26132 0.60494 0.87700
H 	H 	0.58610 0.59730 0.98580 0.04800
H 	H 	0.70200 0.04570 0.45580 0.01700
H 	H 	0.43010 0.78020 0.19880 0.12500
H 	H 	0.37980 0.17040 0.15340 0.12400
H 	H 	0.52140 0.79370 0.51800 -0.02800
H 	H 	0.03090 0.97040 0.69600 0.03400
H 	H 	0.56180 0.99900 0.91880 0.04700
H 	H 	0.22640 0.32960 0.84660 0.12400
H 	H 	0.00340 0.70630 0.48200 -0.02700
H 	H 	0.55530 0.93900 0.31480 0.02600
H 	H 	0.36480 0.33360 0.26640 0.01400
H 	H 	0.75950 0.43900 0.31480 0.02500
H 	H 	0.44470 0.06100 0.68520 0.02600
H 	H 	0.99660 0.29370 0.51800 -0.02700
H 	H 	0.43820 0.00100 0.08120 0.04700
H 	H 	0.09840 0.16640 0.73360 0.01400
H 	H 	0.39970 0.09730 0.98580 0.04700
H 	H 	0.66510 0.47040 0.69600 0.03400
H 	H 	0.60030 0.90270 0.01420 0.04700
H 	H 	0.24620 0.45430 0.54420 0.01700
H 	H 	0.29800 0.95430 0.54420 0.01700
H 	H 	0.75380 0.54570 0.45580 0.01700
H 	H 	0.64300 0.50100 0.08120 0.04700
H 	H 	0.56990 0.21980 0.80120 0.12500
H 	H 	0.23130 0.71980 0.80120 0.12500
H 	H 	0.63520 0.66640 0.73360 0.01400
H 	H 	0.76870 0.28020 0.19880 0.12500
H 	H 	0.41390 0.40270 0.01420 0.04800
H 	H 	0.33490 0.52960 0.30400 0.03400
H 	H 	0.96910 0.02960 0.30400 0.03400
H 	H 	0.47860 0.20630 0.48200 -0.02800
H 	H 	0.24050 0.56100 0.68520 0.02500
H 	H 	0.62020 0.82960 0.84660 0.12400
H 	H 	0.35700 0.49900 0.91880 0.04700
H 	H 	0.90160 0.83360 0.26640 0.01400
H 	H 	0.77360 0.67040 0.15340 0.12400
C 	C 	0.47380 0.20960 0.78700 -0.21400
C 	C 	0.72940 0.72540 0.18520 -0.21700
C 	C 	0.58180 0.43240 0.64680 0.01500
C 	C 	0.33580 0.42200 0.55800 0.01300
C 	C 	0.18260 0.98310 0.63480 -0.00900
C 	C 	0.44710 0.32380 0.25280 0.05500
C 	C 	0.68680 0.29040 0.21300 -0.21400
C 	C 	0.68070 0.38730 0.28120 0.04900
C 	C 	0.57810 0.21040 0.16620 0.25100
C 	C 	0.74110 0.90810 0.30040 -0.05100
C 	C 	0.55290 0.67620 0.74720 0.05500
C 	C 	0.22220 0.92200 0.55800 0.01300
C 	C 	0.45220 0.48310 0.63480 -0.00900
C 	C 	0.54420 0.77460 0.81480 -0.21800
C 	C 	0.80570 0.82380 0.25280 0.05500
C 	C 	0.93500 0.06760 0.35320 0.01500
C 	C 	0.44070 0.59190 0.69960 -0.05100
C 	C 	0.44030 0.45460 0.96580 0.01600
C 	C 	0.95110 0.22220 0.47960 0.10700
C 	C 	0.47150 0.27780 0.52040 0.10700
C 	C 	0.81740 0.01690 0.36520 -0.00900
C 	C 	0.47450 0.04540 0.03420 0.01700
C 	C 	0.06500 0.93240 0.64680 0.01500
C 	C 	0.60050 0.88730 0.28120 0.04900
C 	C 	0.45580 0.22540 0.18520 -0.21800
C 	C 	0.41190 0.28960 0.83380 0.25100
C 	C 	0.55930 0.40810 0.30040 -0.05100
C 	C 	0.55970 0.54540 0.03420 0.01600
C 	C 	0.52550 0.95460 0.96580 0.01700
C 	C 	0.31930 0.61270 0.71880 0.04900
C 	C 	0.77780 0.07800 0.44200 0.01300
C 	C 	0.66420 0.57800 0.44200 0.01300
C 	C 	0.04890 0.77780 0.52040 0.10700
C 	C 	0.54780 0.51690 0.36520 -0.00900
C 	C 	0.27060 0.27460 0.81480 -0.21700
C 	C 	0.58810 0.71040 0.16620 0.25100
C 	C 	0.25890 0.09190 0.69960 -0.05100
C 	C 	0.52850 0.72220 0.47960 0.10700
C 	C 	0.52620 0.79040 0.21300 -0.21400
C 	C 	0.39950 0.11270 0.71880 0.04900
C 	C 	0.42190 0.78960 0.83380 0.25100
C 	C 	0.41820 0.56760 0.35320 0.01500
C 	C 	0.31320 0.70960 0.78700 -0.21400
C 	C 	0.19430 0.17620 0.74720 0.05500
N 	N 	0.34350 0.31900 0.50160 -0.23500
N 	N 	0.01270 0.52400 0.28740 0.04800
N 	N 	0.15810 0.81900 0.50160 -0.23500
N 	N 	0.99890 0.83000 0.58980 -0.23400
N 	N 	0.72530 0.97600 0.71260 0.04800
N 	N 	0.40910 0.67000 0.41020 -0.23400
N 	N 	0.00110 0.17000 0.41020 -0.23400
N 	N 	0.65650 0.68100 0.49840 -0.23500
N 	N 	0.27470 0.02400 0.28740 0.04800
N 	N 	0.84190 0.18100 0.49840 -0.23500
N 	N 	0.98730 0.47600 0.71260 0.04800
N 	N 	0.59090 0.33000 0.58980 -0.23400
O 	O 	0.35040 0.01100 0.38420 -0.18200
O 	O 	0.82130 0.09980 0.71680 -0.22300
O 	O 	0.40600 0.88310 0.90160 -0.23400
O 	O 	0.08280 0.60830 0.27540 -0.23900
O 	O 	0.89550 0.59980 0.71680 -0.22300
O 	O 	0.80740 0.89170 0.72460 -0.23900
O 	O 	0.17870 0.90020 0.28320 -0.22300
O 	O 	0.19260 0.10830 0.27540 -0.23900
O 	O 	0.49560 0.38310 0.90160 -0.23400
O 	O 	0.50440 0.61690 0.09840 -0.23400
O 	O 	0.96620 0.48900 0.61580 -0.18200
O 	O 	0.03380 0.51100 0.38420 -0.18200
O 	O 	0.10450 0.40020 0.28320 -0.22300
O 	O 	0.64960 0.98900 0.61580 -0.18200
O 	O 	0.59400 0.11690 0.09840 -0.23400
O 	O 	0.91720 0.39170 0.72460 -0.23900
