data_crystal

_cell_length_a 12.08500
_cell_length_b 19.16900
_cell_length_c 24.11900
_cell_angle_alpha 90.00000
_cell_angle_beta  90.34100
_cell_angle_gamma 90.00000

_symmetry_space_group_name_	'P 1'
_symmetry_space_group_name_H-M	'P 1'

loop_
_symmetry_equiv_pos_as_xyz
  x,y,z

loop_
_atom_site_label
_atom_site_type_symbol
_atom_site_fract_x
_atom_site_fract_y
_atom_site_fract_z
_atom_site_charge
Cd	Cd	0.00259 0.56754 0.73739 1.24300
Cd	Cd	0.00493 0.86420 0.39959 0.67200
Ru	Ru	0.49764 0.83061 0.64318 0.95000
O 	O 	0.15130 0.63860 0.69380 -0.33700
O 	O 	0.09820 0.66080 0.78030 -0.40900
O 	O 	0.89200 0.97410 0.80260 -0.34500
O 	O 	0.84760 0.00360 0.71760 -0.35100
O 	O 	0.13380 0.87180 0.49650 -0.35400
O 	O 	0.15140 0.79960 0.42920 -0.42300
O 	O 	0.84120 0.66270 0.72890 -0.32100
O 	O 	0.89200 0.58900 0.66270 -0.36400
O 	O 	0.14570 0.98670 0.73890 -0.37000
O 	O 	0.09840 0.06620 0.67710 -0.47000
O 	O 	0.85500 0.81120 0.49450 -0.32100
O 	O 	0.88150 0.91340 0.45800 -0.46000
O 	O 	0.09740 0.96940 0.39530 -0.32900
N 	N 	0.40480 0.78760 0.70630 -0.21400
N 	N 	0.58320 0.86530 0.71310 -0.21400
N 	N 	0.40900 0.78720 0.57850 -0.21600
N 	N 	0.58230 0.73840 0.63130 -0.21700
N 	N 	0.41360 0.92470 0.64230 -0.21700
N 	N 	0.59040 0.88550 0.58690 -0.21800
C 	C 	0.31630 0.74390 0.70110 0.06800
C 	C 	0.25410 0.72290 0.74620 -0.10000
C 	C 	0.27840 0.74840 0.79870 0.03800
C 	C 	0.36940 0.79150 0.80470 -0.10000
C 	C 	0.43280 0.80860 0.75860 0.05300
C 	C 	0.53510 0.84920 0.76240 0.05400
C 	C 	0.58260 0.87000 0.81270 -0.10300
C 	C 	0.68010 0.90670 0.81330 0.03900
C 	C 	0.72930 0.92450 0.76270 -0.10200
C 	C 	0.67710 0.90240 0.71410 0.07500
C 	C 	0.15970 0.67020 0.73840 0.32200
C 	C 	0.83120 0.97000 0.76040 0.32800
C 	C 	0.32110 0.81560 0.55170 0.07800
C 	C 	0.27130 0.78510 0.50580 -0.12000
C 	C 	0.31040 0.72130 0.48650 0.04500
C 	C 	0.39960 0.69050 0.51490 -0.10500
C 	C 	0.44770 0.72390 0.55960 0.05200
C 	C 	0.54480 0.69790 0.58950 0.05700
C 	C 	0.59590 0.63510 0.57600 -0.10200
C 	C 	0.69010 0.61410 0.60540 0.03900
C 	C 	0.72880 0.65600 0.64790 -0.09600
C 	C 	0.67210 0.71760 0.66010 0.07100
C 	C 	0.17670 0.82260 0.47600 0.37000
C 	C 	0.82900 0.63530 0.68260 0.31400
C 	C 	0.31950 0.94000 0.66910 0.08500
C 	C 	0.26620 0.00440 0.66370 -0.12900
C 	C 	0.31280 0.05520 0.62980 0.06400
C 	C 	0.41120 0.04030 0.60290 -0.11600
C 	C 	0.45970 0.97540 0.60950 0.05700
C 	C 	0.56010 0.95410 0.57950 0.05300
C 	C 	0.62030 0.99900 0.54520 -0.10700
C 	C 	0.70990 0.97370 0.51700 0.06200
C 	C 	0.73930 0.90350 0.52260 -0.12800
C 	C 	0.67830 0.86240 0.55770 0.08700
C 	C 	0.16130 0.01850 0.69630 0.37200
C 	C 	0.83440 0.87320 0.49010 0.38800
H 	H 	0.29660 0.72730 0.66520 0.02000
H 	H 	0.23380 0.73660 0.82970 0.03500
H 	H 	0.38870 0.80950 0.84010 0.06600
H 	H 	0.54720 0.85880 0.84670 0.06500
H 	H 	0.71380 0.91980 0.84740 0.03500
H 	H 	0.71010 0.91430 0.67970 0.02200
H 	H 	0.29210 0.85850 0.56510 0.01300
H 	H 	0.27770 0.69930 0.45510 0.03100
H 	H 	0.42710 0.64640 0.50320 0.06500
H 	H 	0.56700 0.60690 0.54700 0.06600
H 	H 	0.72680 0.57180 0.59640 0.03800
H 	H 	0.69800 0.74590 0.68980 0.01500
H 	H 	0.28790 0.90580 0.69270 0.01300
H 	H 	0.27790 0.09930 0.62520 0.00900
H 	H 	0.44520 0.07450 0.58010 0.07200
H 	H 	0.59920 0.04650 0.54150 0.07000
H 	H 	0.75180 0.00370 0.49380 0.04100
H 	H 	0.69920 0.81490 0.56180 0.01300
Cd	Cd	0.01130 0.88760 0.40963 0.73900
Cd	Cd	0.99507 0.36420 0.10041 0.67100
Ru	Ru	0.50236 0.33061 0.85682 0.94900
O 	O 	0.84870 0.13860 0.80620 -0.33900
O 	O 	0.90180 0.16080 0.71970 -0.41000
O 	O 	0.10800 0.47410 0.69740 -0.34700
O 	O 	0.15240 0.50360 0.78240 -0.34600
O 	O 	0.86620 0.37180 0.00350 -0.35400
O 	O 	0.84860 0.29960 0.07080 -0.42300
O 	O 	0.15880 0.16270 0.77110 -0.32100
O 	O 	0.10800 0.08900 0.83730 -0.36300
O 	O 	0.85430 0.48670 0.76110 -0.36500
O 	O 	0.90160 0.56620 0.82290 -0.47000
O 	O 	0.14500 0.31120 0.00550 -0.32100
O 	O 	0.11850 0.41340 0.04200 -0.46100
O 	O 	0.90260 0.46940 0.10470 -0.32700
N 	N 	0.59520 0.28760 0.79370 -0.21400
N 	N 	0.41680 0.36530 0.78690 -0.21400
N 	N 	0.59100 0.28720 0.92150 -0.21600
N 	N 	0.41770 0.23840 0.86870 -0.21700
N 	N 	0.58640 0.42470 0.85770 -0.21800
N 	N 	0.40960 0.38550 0.91310 -0.21800
C 	C 	0.68370 0.24390 0.79890 0.06800
C 	C 	0.74590 0.22290 0.75380 -0.10000
C 	C 	0.72160 0.24840 0.70130 0.03800
C 	C 	0.63060 0.29150 0.69530 -0.10000
C 	C 	0.56720 0.30860 0.74140 0.05300
C 	C 	0.46490 0.34920 0.73760 0.05400
C 	C 	0.41740 0.37000 0.68730 -0.10300
C 	C 	0.31990 0.40670 0.68670 0.03800
C 	C 	0.27070 0.42450 0.73730 -0.10100
C 	C 	0.32290 0.40240 0.78590 0.07400
C 	C 	0.84030 0.17020 0.76160 0.32200
C 	C 	0.16880 0.47000 0.73960 0.32300
C 	C 	0.67890 0.31560 0.94830 0.07700
C 	C 	0.72870 0.28510 0.99420 -0.11900
C 	C 	0.68960 0.22130 0.01350 0.04400
C 	C 	0.60040 0.19050 0.98510 -0.10400
C 	C 	0.55230 0.22390 0.94040 0.05100
C 	C 	0.45520 0.19790 0.91050 0.05700
C 	C 	0.40410 0.13510 0.92400 -0.10200
C 	C 	0.30990 0.11410 0.89460 0.03800
C 	C 	0.27120 0.15600 0.85210 -0.09600
C 	C 	0.32790 0.21760 0.83990 0.07100
C 	C 	0.82330 0.32260 0.02400 0.36900
C 	C 	0.17100 0.13530 0.81740 0.31400
C 	C 	0.68050 0.44000 0.83090 0.08800
C 	C 	0.73380 0.50440 0.83630 -0.13000
C 	C 	0.68720 0.55520 0.87020 0.06500
C 	C 	0.58880 0.54030 0.89710 -0.11700
C 	C 	0.54030 0.47540 0.89050 0.05900
C 	C 	0.43990 0.45410 0.92050 0.05200
C 	C 	0.37970 0.49900 0.95480 -0.10500
C 	C 	0.29010 0.47370 0.98300 0.05400
C 	C 	0.26070 0.40350 0.97740 -0.12700
C 	C 	0.32170 0.36240 0.94230 0.08600
C 	C 	0.83870 0.51850 0.80370 0.36800
C 	C 	0.16560 0.37320 0.00990 0.38800
H 	H 	0.70340 0.22730 0.83480 0.02000
H 	H 	0.76620 0.23660 0.67030 0.03500
H 	H 	0.61130 0.30950 0.65990 0.06700
H 	H 	0.45280 0.35880 0.65330 0.06500
H 	H 	0.28620 0.41980 0.65260 0.03500
H 	H 	0.28990 0.41430 0.82030 0.02200
H 	H 	0.70790 0.35850 0.93490 0.01400
H 	H 	0.72230 0.19930 0.04490 0.03100
H 	H 	0.57290 0.14640 0.99680 0.06500
H 	H 	0.43300 0.10690 0.95300 0.06500
H 	H 	0.27320 0.07180 0.90360 0.03900
H 	H 	0.30200 0.24590 0.81020 0.01500
H 	H 	0.71210 0.40580 0.80730 0.01200
H 	H 	0.72210 0.59930 0.87480 0.00900
H 	H 	0.55480 0.57450 0.91990 0.07200
H 	H 	0.40080 0.54650 0.95850 0.06900
H 	H 	0.24820 0.50370 0.00620 0.04600
H 	H 	0.30080 0.31490 0.93820 0.01300
Cd	Cd	0.98870 0.38760 0.09037 0.73900
Cd	Cd	0.99741 0.06754 0.76261 1.24100
Cd	Cd	0.99741 0.43246 0.26261 1.24200
Cd	Cd	0.99507 0.13580 0.60041 0.67100
Ru	Ru	0.50236 0.16939 0.35682 0.94900
O 	O 	0.84870 0.36140 0.30620 -0.33800
O 	O 	0.90180 0.33920 0.21970 -0.41000
O 	O 	0.10800 0.02590 0.19740 -0.34600
O 	O 	0.15240 0.99640 0.28240 -0.35100
O 	O 	0.86620 0.12820 0.50350 -0.35400
O 	O 	0.84860 0.20040 0.57080 -0.42300
O 	O 	0.15880 0.33730 0.27110 -0.32100
O 	O 	0.10800 0.41100 0.33730 -0.36400
O 	O 	0.85430 0.01330 0.26110 -0.37000
O 	O 	0.90160 0.93380 0.32290 -0.47000
O 	O 	0.14500 0.18880 0.50550 -0.32100
O 	O 	0.11850 0.08660 0.54200 -0.46000
O 	O 	0.90260 0.03060 0.60470 -0.32900
N 	N 	0.59520 0.21240 0.29370 -0.21400
N 	N 	0.41680 0.13470 0.28690 -0.21400
N 	N 	0.59100 0.21280 0.42150 -0.21600
N 	N 	0.41770 0.26160 0.36870 -0.21700
N 	N 	0.58640 0.07530 0.35770 -0.21700
N 	N 	0.40960 0.11450 0.41310 -0.21800
C 	C 	0.68370 0.25610 0.29890 0.06800
C 	C 	0.74590 0.27710 0.25380 -0.10000
C 	C 	0.72160 0.25160 0.20130 0.03800
C 	C 	0.63060 0.20850 0.19530 -0.10000
C 	C 	0.56720 0.19140 0.24140 0.05300
C 	C 	0.46490 0.15080 0.23760 0.05400
C 	C 	0.41740 0.13000 0.18730 -0.10300
C 	C 	0.31990 0.09330 0.18670 0.03900
C 	C 	0.27070 0.07550 0.23730 -0.10200
C 	C 	0.32290 0.09760 0.28590 0.07500
C 	C 	0.84030 0.32980 0.26160 0.32200
C 	C 	0.16880 0.03000 0.23960 0.32800
C 	C 	0.67890 0.18440 0.44830 0.07800
C 	C 	0.72870 0.21490 0.49420 -0.12000
C 	C 	0.68960 0.27870 0.51350 0.04500
C 	C 	0.60040 0.30950 0.48510 -0.10500
C 	C 	0.55230 0.27610 0.44040 0.05200
C 	C 	0.45520 0.30210 0.41050 0.05700
C 	C 	0.40410 0.36490 0.42400 -0.10200
C 	C 	0.30990 0.38590 0.39460 0.03900
C 	C 	0.27120 0.34400 0.35210 -0.09600
C 	C 	0.32790 0.28240 0.33990 0.07100
C 	C 	0.82330 0.17740 0.52400 0.37000
C 	C 	0.17100 0.36470 0.31740 0.31400
C 	C 	0.68050 0.06000 0.33090 0.08500
C 	C 	0.73380 0.99560 0.33630 -0.12900
C 	C 	0.68720 0.94480 0.37020 0.06400
C 	C 	0.58880 0.95970 0.39710 -0.11600
C 	C 	0.54030 0.02460 0.39050 0.05700
C 	C 	0.43990 0.04590 0.42050 0.05300
C 	C 	0.37970 0.00100 0.45480 -0.10700
C 	C 	0.29010 0.02630 0.48300 0.06200
C 	C 	0.26070 0.09650 0.47740 -0.12800
C 	C 	0.32170 0.13760 0.44230 0.08700
C 	C 	0.83870 0.98150 0.30370 0.37200
C 	C 	0.16560 0.12680 0.50990 0.38800
H 	H 	0.70340 0.27270 0.33480 0.02000
H 	H 	0.76620 0.26340 0.17030 0.03500
H 	H 	0.61130 0.19050 0.15990 0.06600
H 	H 	0.45280 0.14120 0.15330 0.06500
H 	H 	0.28620 0.08020 0.15260 0.03500
H 	H 	0.28990 0.08570 0.32030 0.02200
H 	H 	0.70790 0.14150 0.43490 0.01300
H 	H 	0.72230 0.30070 0.54490 0.03100
H 	H 	0.57290 0.35360 0.49680 0.06500
H 	H 	0.43300 0.39310 0.45300 0.06600
H 	H 	0.27320 0.42820 0.40360 0.03800
H 	H 	0.30200 0.25410 0.31020 0.01500
H 	H 	0.71210 0.09420 0.30730 0.01300
H 	H 	0.72210 0.90070 0.37480 0.00900
H 	H 	0.55480 0.92550 0.41990 0.07200
H 	H 	0.40080 0.95350 0.45850 0.07000
H 	H 	0.24820 0.99630 0.50620 0.04100
H 	H 	0.30080 0.18510 0.43820 0.01300
Cd	Cd	0.98870 0.11240 0.59037 0.73900
Cd	Cd	0.00493 0.63580 0.89959 0.67100
Ru	Ru	0.49764 0.66939 0.14318 0.94900
O 	O 	0.15130 0.86140 0.19380 -0.33900
O 	O 	0.09820 0.83920 0.28030 -0.41000
O 	O 	0.89200 0.52590 0.30260 -0.34700
O 	O 	0.84760 0.49640 0.21760 -0.34600
O 	O 	0.13380 0.62820 0.99650 -0.35400
O 	O 	0.15140 0.70040 0.92920 -0.42300
O 	O 	0.84120 0.83730 0.22890 -0.32100
O 	O 	0.89200 0.91100 0.16270 -0.36300
O 	O 	0.14570 0.51330 0.23890 -0.36500
O 	O 	0.09840 0.43380 0.17710 -0.47000
O 	O 	0.85500 0.68880 0.99450 -0.32100
O 	O 	0.88150 0.58660 0.95800 -0.46100
O 	O 	0.09740 0.53060 0.89530 -0.32700
N 	N 	0.40480 0.71240 0.20630 -0.21400
N 	N 	0.58320 0.63470 0.21310 -0.21400
N 	N 	0.40900 0.71280 0.07850 -0.21600
N 	N 	0.58230 0.76160 0.13130 -0.21700
N 	N 	0.41360 0.57530 0.14230 -0.21800
N 	N 	0.59040 0.61450 0.08690 -0.21800
C 	C 	0.31630 0.75610 0.20110 0.06800
C 	C 	0.25410 0.77710 0.24620 -0.10000
C 	C 	0.27840 0.75160 0.29870 0.03800
C 	C 	0.36940 0.70850 0.30470 -0.10000
C 	C 	0.43280 0.69140 0.25860 0.05300
C 	C 	0.53510 0.65080 0.26240 0.05400
C 	C 	0.58260 0.63000 0.31270 -0.10300
C 	C 	0.68010 0.59330 0.31330 0.03800
C 	C 	0.72930 0.57550 0.26270 -0.10100
C 	C 	0.67710 0.59760 0.21410 0.07400
C 	C 	0.15970 0.82980 0.23840 0.32200
C 	C 	0.83120 0.53000 0.26040 0.32300
C 	C 	0.32110 0.68440 0.05170 0.07700
C 	C 	0.27130 0.71490 0.00580 -0.11900
C 	C 	0.31040 0.77870 0.98650 0.04400
C 	C 	0.39960 0.80950 0.01490 -0.10400
C 	C 	0.44770 0.77610 0.05960 0.05100
C 	C 	0.54480 0.80210 0.08950 0.05700
C 	C 	0.59590 0.86490 0.07600 -0.10200
C 	C 	0.69010 0.88590 0.10540 0.03800
C 	C 	0.72880 0.84400 0.14790 -0.09600
C 	C 	0.67210 0.78240 0.16010 0.07100
C 	C 	0.17670 0.67740 0.97600 0.36900
C 	C 	0.82900 0.86470 0.18260 0.31400
C 	C 	0.31950 0.56000 0.16910 0.08800
C 	C 	0.26620 0.49560 0.16370 -0.13000
C 	C 	0.31280 0.44480 0.12980 0.06500
C 	C 	0.41120 0.45970 0.10290 -0.11700
C 	C 	0.45970 0.52460 0.10950 0.05900
C 	C 	0.56010 0.54590 0.07950 0.05200
C 	C 	0.62030 0.50100 0.04520 -0.10500
C 	C 	0.70990 0.52630 0.01700 0.05400
C 	C 	0.73930 0.59650 0.02260 -0.12700
C 	C 	0.67830 0.63760 0.05770 0.08600
C 	C 	0.16130 0.48150 0.19630 0.36800
C 	C 	0.83440 0.62680 0.99010 0.38800
H 	H 	0.29660 0.77270 0.16520 0.02000
H 	H 	0.23380 0.76340 0.32970 0.03500
H 	H 	0.38870 0.69050 0.34010 0.06700
H 	H 	0.54720 0.64120 0.34670 0.06500
H 	H 	0.71380 0.58020 0.34740 0.03500
H 	H 	0.71010 0.58570 0.17970 0.02200
H 	H 	0.29210 0.64150 0.06510 0.01400
H 	H 	0.27770 0.80070 0.95510 0.03100
H 	H 	0.42710 0.85360 0.00320 0.06500
H 	H 	0.56700 0.89310 0.04700 0.06500
H 	H 	0.72680 0.92820 0.09640 0.03900
H 	H 	0.69800 0.75410 0.18980 0.01500
H 	H 	0.28790 0.59420 0.19270 0.01200
H 	H 	0.27790 0.40070 0.12520 0.00900
H 	H 	0.44520 0.42550 0.08010 0.07200
H 	H 	0.59920 0.45350 0.04150 0.06900
H 	H 	0.75180 0.49630 0.99380 0.04600
H 	H 	0.69920 0.68510 0.06180 0.01300
Cd	Cd	0.01130 0.61240 0.90963 0.73900
Cd	Cd	0.00259 0.93246 0.23739 1.24100
