data_crystal

_cell_length_a 22.55400
_cell_length_b 11.46200
_cell_length_c 21.86100
_cell_angle_alpha 90.00000
_cell_angle_beta  105.64500
_cell_angle_gamma 90.00000

_symmetry_space_group_name_	'P 1'
_symmetry_space_group_name_H-M	'P 1'

loop_
_symmetry_equiv_pos_as_xyz
  x,y,z

loop_
_atom_site_label
_atom_site_type_symbol
_atom_site_fract_x
_atom_site_fract_y
_atom_site_fract_z
_atom_site_charge
O 	O 	0.45800 0.85810 0.45890 -0.38300
O 	O 	0.51440 0.70630 0.50850 -0.26300
O 	O 	0.94660 0.62170 0.44540 -0.36100
O 	O 	0.98010 0.80320 0.47870 -0.21900
O 	O 	0.22110 0.43590 0.33460 -0.38700
O 	O 	0.18060 0.60250 0.29020 -0.27200
O 	O 	0.33330 0.41360 0.22570 -0.39400
O 	O 	0.29000 0.57680 0.17970 -0.28100
N 	N 	0.33910 0.52800 0.34150 -0.20000
N 	N 	0.79470 0.86640 0.29180 -0.19700
N 	N 	0.05670 0.50380 0.44230 -0.21200
N 	N 	0.44420 0.49440 0.06000 -0.20700
C 	C 	0.33940 0.64300 0.33300 0.04800
C 	C 	0.38070 0.71670 0.37270 0.03000
C 	C 	0.42450 0.67080 0.42310 -0.08400
C 	C 	0.42470 0.55040 0.43190 0.03900
C 	C 	0.38070 0.48460 0.39150 0.03700
C 	C 	0.47030 0.75050 0.46810 0.33500
C 	C 	0.80810 0.75280 0.29730 0.03100
C 	C 	0.85590 0.70810 0.34450 0.03300
C 	C 	0.89330 0.78150 0.38760 -0.07400
C 	C 	0.88150 0.90070 0.38160 0.04700
C 	C 	0.83170 0.93840 0.33320 0.07100
C 	C 	0.94480 0.73260 0.44200 0.32400
C 	C 	0.08230 0.40770 0.42530 0.02000
C 	C 	0.12470 0.40600 0.38930 0.01700
C 	C 	0.13820 0.51310 0.36700 -0.10100
C 	C 	0.11130 0.61640 0.37820 0.02600
C 	C 	0.07120 0.60330 0.41620 0.01900
C 	C 	0.96640 0.02490 0.11910 0.03200
C 	C 	0.92510 0.03350 0.15580 0.01700
C 	C 	0.84290 0.98560 0.06850 0.03600
C 	C 	0.88390 0.98060 0.03140 0.02500
C 	C 	0.18270 0.52000 0.32720 0.33300
C 	C 	0.46500 0.45320 0.11900 -0.00200
C 	C 	0.42750 0.44810 0.15970 0.02900
C 	C 	0.36800 0.49170 0.14140 -0.08800
C 	C 	0.34820 0.53640 0.08020 0.01600
C 	C 	0.38670 0.53590 0.04020 -0.01000
C 	C 	0.58840 0.08810 0.43170 0.02500
C 	C 	0.62510 0.09450 0.38970 0.00100
C 	C 	0.59870 0.89200 0.36300 0.00200
C 	C 	0.56180 0.90300 0.40410 0.04900
C 	C 	0.32670 0.49370 0.18610 0.33500
Cu	Cu	0.27650 0.42770 0.27960 0.90200
O 	O 	0.54200 0.35810 0.04110 -0.38900
O 	O 	0.48560 0.20630 0.99150 -0.22000
O 	O 	0.05340 0.12170 0.05460 -0.40700
O 	O 	0.01990 0.30320 0.02130 -0.27900
O 	O 	0.77890 0.93590 0.16540 -0.36300
O 	O 	0.81940 0.10250 0.20980 -0.26800
O 	O 	0.66670 0.91360 0.27430 -0.39300
O 	O 	0.71000 0.07680 0.32030 -0.30500
N 	N 	0.66090 0.02800 0.15850 -0.23000
N 	N 	0.20530 0.36640 0.20820 -0.19900
N 	N 	0.94330 0.00380 0.05770 -0.22300
N 	N 	0.55580 0.99440 0.44000 -0.18500
C 	C 	0.66060 0.14300 0.16700 0.04800
C 	C 	0.61930 0.21670 0.12730 0.00800
C 	C 	0.57550 0.17080 0.07690 -0.05700
C 	C 	0.57530 0.05040 0.06810 -0.03000
C 	C 	0.61930 0.98460 0.10850 0.09600
C 	C 	0.52970 0.25050 0.03190 0.27400
C 	C 	0.19190 0.25280 0.20270 0.02100
C 	C 	0.14410 0.20810 0.15550 0.01300
C 	C 	0.10670 0.28150 0.11240 -0.08200
C 	C 	0.11850 0.40070 0.11840 0.01700
C 	C 	0.16830 0.43840 0.16680 0.05200
C 	C 	0.05520 0.23260 0.05800 0.32200
C 	C 	0.91770 0.90770 0.07470 0.03500
C 	C 	0.87530 0.90600 0.11070 0.04200
C 	C 	0.86180 0.01310 0.13300 -0.13400
C 	C 	0.88870 0.11640 0.12180 0.03200
C 	C 	0.92880 0.10330 0.08380 0.02300
C 	C 	0.03360 0.52490 0.38090 0.00900
C 	C 	0.07490 0.53350 0.34420 0.01100
C 	C 	0.15710 0.48560 0.43150 0.02100
C 	C 	0.11610 0.48060 0.46860 0.02000
C 	C 	0.81730 0.02000 0.17280 0.31000
C 	C 	0.53500 0.95320 0.38100 0.00500
C 	C 	0.57250 0.94810 0.34030 0.02700
C 	C 	0.63200 0.99170 0.35860 -0.06000
C 	C 	0.65180 0.03640 0.41980 0.00500
C 	C 	0.61330 0.03590 0.45980 -0.00600
C 	C 	0.41160 0.58810 0.06830 0.03500
C 	C 	0.37490 0.59450 0.11030 0.01400
C 	C 	0.40130 0.39200 0.13700 -0.00400
C 	C 	0.43820 0.40300 0.09590 0.04000
C 	C 	0.67330 0.99370 0.31390 0.36600
Cu	Cu	0.72350 0.92770 0.22040 0.91000
O 	O 	0.54200 0.14190 0.54110 -0.39600
O 	O 	0.48560 0.29370 0.49150 -0.27000
O 	O 	0.05340 0.37830 0.55460 -0.39100
O 	O 	0.01990 0.19680 0.52130 -0.26900
O 	O 	0.77890 0.56410 0.66540 -0.38100
O 	O 	0.81940 0.39750 0.70980 -0.26600
O 	O 	0.66670 0.58640 0.77430 -0.38600
O 	O 	0.71000 0.42320 0.82030 -0.27400
N 	N 	0.66090 0.47200 0.65850 -0.20000
N 	N 	0.20530 0.13360 0.70820 -0.20000
N 	N 	0.94330 0.49620 0.55770 -0.20600
N 	N 	0.55580 0.50560 0.94000 -0.19800
C 	C 	0.66060 0.35700 0.66700 0.04800
C 	C 	0.61930 0.28330 0.62730 0.02600
C 	C 	0.57550 0.32920 0.57690 -0.08400
C 	C 	0.57530 0.44960 0.56810 0.03900
C 	C 	0.61930 0.51540 0.60850 0.04300
C 	C 	0.52970 0.24950 0.53190 0.33700
C 	C 	0.19190 0.24720 0.70270 0.02900
C 	C 	0.14410 0.29190 0.65550 0.02200
C 	C 	0.10670 0.21850 0.61240 -0.08100
C 	C 	0.11850 0.09930 0.61840 0.01800
C 	C 	0.16830 0.06160 0.66680 0.04100
C 	C 	0.05520 0.26740 0.55800 0.32200
C 	C 	0.91770 0.59230 0.57470 0.03100
C 	C 	0.87530 0.59400 0.61070 0.03200
C 	C 	0.86180 0.48690 0.63300 -0.10400
C 	C 	0.88870 0.38360 0.62180 0.03000
C 	C 	0.92880 0.39670 0.58380 0.03000
C 	C 	0.03360 0.97510 0.88090 0.02400
C 	C 	0.07490 0.96650 0.84420 0.01500
C 	C 	0.15710 0.01440 0.93150 0.00300
C 	C 	0.11610 0.01940 0.96860 0.02100
C 	C 	0.81730 0.48000 0.67280 0.33700
C 	C 	0.53500 0.54680 0.88100 0.00600
C 	C 	0.57250 0.55190 0.84030 0.01400
C 	C 	0.63200 0.50830 0.85860 -0.08900
C 	C 	0.65180 0.46360 0.91980 0.02300
C 	C 	0.61330 0.46410 0.95980 0.03300
C 	C 	0.41160 0.91190 0.56830 0.03500
C 	C 	0.37490 0.90550 0.61030 0.03400
C 	C 	0.40130 0.10800 0.63700 0.01700
C 	C 	0.43820 0.09700 0.59590 0.03700
C 	C 	0.67330 0.50630 0.81390 0.33800
Cu	Cu	0.72350 0.57230 0.72040 0.90600
O 	O 	0.45800 0.64190 0.95890 -0.38600
O 	O 	0.51440 0.79370 0.00850 -0.31100
O 	O 	0.94660 0.87830 0.94540 -0.33300
O 	O 	0.98010 0.69680 0.97870 -0.20500
O 	O 	0.22110 0.06410 0.83460 -0.40600
O 	O 	0.18060 0.89750 0.79020 -0.27000
O 	O 	0.33330 0.08640 0.72570 -0.38600
O 	O 	0.29000 0.92320 0.67970 -0.24800
N 	N 	0.33910 0.97200 0.84150 -0.16900
N 	N 	0.79470 0.63360 0.79180 -0.19800
N 	N 	0.05670 0.99620 0.94230 -0.18700
N 	N 	0.44420 0.00560 0.56000 -0.22100
C 	C 	0.33940 0.85700 0.83300 0.04900
C 	C 	0.38070 0.78330 0.87270 0.04700
C 	C 	0.42450 0.82920 0.92310 -0.11100
C 	C 	0.42470 0.94960 0.93190 0.11000
C 	C 	0.38070 0.01540 0.89150 -0.01800
C 	C 	0.47030 0.74950 0.96810 0.39700
C 	C 	0.80810 0.74720 0.79730 0.03800
C 	C 	0.85590 0.79190 0.84450 0.04200
C 	C 	0.89330 0.71850 0.88760 -0.07200
C 	C 	0.88150 0.59930 0.88160 0.04800
C 	C 	0.83170 0.56160 0.83320 0.06100
C 	C 	0.94480 0.76740 0.94200 0.32100
C 	C 	0.08230 0.09230 0.92530 0.01600
C 	C 	0.12470 0.09400 0.88930 0.00600
C 	C 	0.13820 0.98690 0.86700 -0.06800
C 	C 	0.11130 0.88360 0.87820 0.02500
C 	C 	0.07120 0.89670 0.91620 0.02800
C 	C 	0.96640 0.47510 0.61910 0.04400
C 	C 	0.92510 0.46650 0.65580 0.02200
C 	C 	0.84290 0.51440 0.56850 0.01900
C 	C 	0.88390 0.51940 0.53140 0.02400
C 	C 	0.18270 0.98000 0.82720 0.36200
C 	C 	0.46500 0.04680 0.61900 -0.00200
C 	C 	0.42750 0.05190 0.65970 0.01600
C 	C 	0.36800 0.00830 0.64140 -0.11700
C 	C 	0.34820 0.96360 0.58020 0.03600
C 	C 	0.38670 0.96410 0.54020 0.02800
C 	C 	0.58840 0.41190 0.93170 0.02600
C 	C 	0.62510 0.40550 0.88970 0.02100
C 	C 	0.59870 0.60800 0.86300 0.02400
C 	C 	0.56180 0.59700 0.90410 0.04700
C 	C 	0.32670 0.00630 0.68610 0.30600
Cu	Cu	0.27650 0.07230 0.77960 0.89700
Cu	Cu	0.00000 0.50000 0.50000 0.87600
Cu	Cu	-0.00000 0.00000 -0.00000 0.84700
Cu	Cu	0.50000 0.00000 0.50000 0.88400
Cu	Cu	0.50000 0.50000 -0.00000 0.87900
