data_crystal

_cell_length_a 9.86050
_cell_length_b 29.21000
_cell_length_c 10.86520
_cell_angle_alpha 90.00000
_cell_angle_beta  92.20300
_cell_angle_gamma 90.00000

_symmetry_space_group_name_	'P 1'
_symmetry_space_group_name_H-M	'P 1'

loop_
_symmetry_equiv_pos_as_xyz
  x,y,z

loop_
_atom_site_label
_atom_site_type_symbol
_atom_site_fract_x
_atom_site_fract_y
_atom_site_fract_z
_atom_site_charge
C 	C 	0.07490 0.34892 0.91260 -0.09200
C 	C 	0.98280 0.38012 0.86830 -0.03900
H 	H 	0.01330 0.40750 0.83560 0.05400
C 	C 	0.84190 0.37174 0.87080 0.03800
H 	H 	0.78100 0.39270 0.83560 0.00300
C 	C 	0.79410 0.33279 0.92500 -0.19100
C 	C 	0.88730 0.30112 0.98270 0.08100
C 	C 	0.84310 0.26445 0.05850 -0.09600
C 	C 	0.93540 0.23335 0.10490 -0.04400
H 	H 	0.90630 0.20990 0.15550 0.05400
C 	C 	0.07350 0.23608 0.07740 0.02500
H 	H 	0.13300 0.21340 0.10590 -0.01000
C 	C 	0.12130 0.27134 0.00990 -0.18100
C 	C 	0.03000 0.30705 0.96620 0.05600
C 	C 	0.21830 0.36542 0.92030 0.33100
C 	C 	0.64600 0.32248 0.90080 0.54400
C 	C 	0.70250 0.26168 0.10580 0.35500
C 	C 	0.26610 0.26758 0.97120 0.50900
C 	C 	0.02640 0.48603 0.22870 -0.00900
H 	H 	0.05740 0.48240 0.31010 0.03700
C 	C 	0.11730 0.48905 0.13910 -0.12700
C 	C 	0.26270 0.47647 0.17290 0.42200
C 	C 	0.07160 0.49891 0.01430 0.07400
C 	C 	0.16170 0.50630 0.91750 -0.16000
C 	C 	0.31040 0.51416 0.94110 0.44200
C 	C 	0.11350 0.51170 0.79820 0.00200
H 	H 	0.17400 0.51390 0.73490 0.02600
O 	O 	0.26260 0.39038 0.83470 -0.50500
O 	O 	0.29090 0.35843 0.01560 -0.49800
O 	O 	0.56270 0.35445 0.90370 -0.69200
O 	O 	0.61550 0.28236 0.87000 -0.63600
O 	O 	0.64550 0.29649 0.14660 -0.53000
O 	O 	0.64440 0.22301 0.11140 -0.51100
O 	O 	0.28720 0.27274 0.85920 -0.64700
O 	O 	0.35530 0.25522 0.04920 -0.71000
O 	O 	0.31350 0.49080 0.27330 -0.31200
O 	O 	0.32230 0.44993 0.10160 -0.59300
O 	O 	0.34150 0.54595 0.01410 -0.60500
O 	O 	0.39310 0.49032 0.88390 -0.60400
Y 	Y 	0.45448 0.41856 0.95841 2.37900
Y 	Y 	0.45957 0.25166 0.23669 2.36100
C 	C 	0.92510 0.84892 0.58740 -0.09000
C 	C 	0.01720 0.88012 0.63170 -0.04900
H 	H 	0.98670 0.90750 0.66440 0.06100
C 	C 	0.15810 0.87174 0.62920 0.04300
H 	H 	0.21900 0.89270 0.66440 0.00200
C 	C 	0.20590 0.83279 0.57500 -0.19100
C 	C 	0.11270 0.80112 0.51730 0.07800
C 	C 	0.15690 0.76445 0.44150 -0.09700
C 	C 	0.06460 0.73335 0.39510 -0.04500
H 	H 	0.09370 0.70990 0.34450 0.05500
C 	C 	0.92650 0.73608 0.42260 0.03000
H 	H 	0.86700 0.71340 0.39410 -0.01300
C 	C 	0.87870 0.77134 0.49010 -0.20100
C 	C 	0.97000 0.80705 0.53380 0.07000
C 	C 	0.78170 0.86542 0.57970 0.33800
C 	C 	0.35400 0.82248 0.59920 0.54500
C 	C 	0.29750 0.76168 0.39420 0.35500
C 	C 	0.73390 0.76758 0.52880 0.52900
C 	C 	0.97360 0.98603 0.27130 -0.01600
H 	H 	0.94260 0.98240 0.18990 0.03800
C 	C 	0.88270 0.98905 0.36090 -0.12500
C 	C 	0.73730 0.97647 0.32710 0.42100
C 	C 	0.92840 0.99891 0.48570 0.07100
C 	C 	0.83830 0.00630 0.58250 -0.15800
C 	C 	0.68960 0.01416 0.55890 0.44200
C 	C 	0.88650 0.01170 0.70180 0.00700
H 	H 	0.82600 0.01390 0.76510 0.02500
O 	O 	0.73740 0.89038 0.66530 -0.50600
O 	O 	0.70910 0.85843 0.48440 -0.50600
O 	O 	0.43730 0.85445 0.59630 -0.69100
O 	O 	0.38450 0.78236 0.63000 -0.63500
O 	O 	0.35450 0.79649 0.35340 -0.53100
O 	O 	0.35560 0.72301 0.38860 -0.51200
O 	O 	0.71280 0.77274 0.64080 -0.65000
O 	O 	0.64470 0.75522 0.45080 -0.72000
O 	O 	0.68650 0.99080 0.22670 -0.31300
O 	O 	0.67770 0.94993 0.39840 -0.59400
O 	O 	0.65850 0.04595 0.48590 -0.60500
O 	O 	0.60690 0.99032 0.61610 -0.60400
Y 	Y 	0.54552 0.91856 0.54159 2.37900
Y 	Y 	0.54043 0.75166 0.26331 2.36000
C 	C 	0.92510 0.65108 0.08740 -0.09100
C 	C 	0.01720 0.61988 0.13170 -0.03800
H 	H 	0.98670 0.59250 0.16440 0.05500
C 	C 	0.15810 0.62826 0.12920 0.03900
H 	H 	0.21900 0.60730 0.16440 0.00400
C 	C 	0.20590 0.66721 0.07500 -0.19100
C 	C 	0.11270 0.69888 0.01730 0.08100
C 	C 	0.15690 0.73555 0.94150 -0.09600
C 	C 	0.06460 0.76665 0.89510 -0.04400
H 	H 	0.09370 0.79010 0.84450 0.05400
C 	C 	0.92650 0.76392 0.92260 0.02500
H 	H 	0.86700 0.78660 0.89410 -0.01000
C 	C 	0.87870 0.72866 0.99010 -0.18100
C 	C 	0.97000 0.69295 0.03380 0.05600
C 	C 	0.78170 0.63458 0.07970 0.33100
C 	C 	0.35400 0.67752 0.09920 0.54400
C 	C 	0.29750 0.73832 0.89420 0.35500
C 	C 	0.73390 0.73242 0.02880 0.50900
C 	C 	0.97360 0.51397 0.77130 -0.00900
H 	H 	0.94260 0.51760 0.68990 0.03700
C 	C 	0.88270 0.51095 0.86090 -0.12700
C 	C 	0.73730 0.52353 0.82710 0.42200
C 	C 	0.92840 0.50109 0.98570 0.07400
C 	C 	0.83830 0.49370 0.08250 -0.16000
C 	C 	0.68960 0.48584 0.05890 0.44200
C 	C 	0.88650 0.48830 0.20180 0.00200
H 	H 	0.82600 0.48610 0.26510 0.02600
O 	O 	0.73740 0.60962 0.16530 -0.50500
O 	O 	0.70910 0.64157 0.98440 -0.49800
O 	O 	0.43730 0.64555 0.09630 -0.69200
O 	O 	0.38450 0.71764 0.13000 -0.63600
O 	O 	0.35450 0.70351 0.85340 -0.53000
O 	O 	0.35560 0.77699 0.88860 -0.51100
O 	O 	0.71280 0.72726 0.14080 -0.64700
O 	O 	0.64470 0.74478 0.95080 -0.71000
O 	O 	0.68650 0.50920 0.72670 -0.31200
O 	O 	0.67770 0.55007 0.89840 -0.59300
O 	O 	0.65850 0.45405 0.98590 -0.60500
O 	O 	0.60690 0.50968 0.11610 -0.60400
Y 	Y 	0.54552 0.58144 0.04159 2.37900
Y 	Y 	0.54043 0.74834 0.76331 2.36100
C 	C 	0.07490 0.15108 0.41260 -0.09000
C 	C 	0.98280 0.11988 0.36830 -0.04900
H 	H 	0.01330 0.09250 0.33560 0.06100
C 	C 	0.84190 0.12826 0.37080 0.04300
H 	H 	0.78100 0.10730 0.33560 0.00200
C 	C 	0.79410 0.16721 0.42500 -0.19200
C 	C 	0.88730 0.19888 0.48270 0.07800
C 	C 	0.84310 0.23555 0.55850 -0.09700
C 	C 	0.93540 0.26665 0.60490 -0.04500
H 	H 	0.90630 0.29010 0.65550 0.05500
C 	C 	0.07350 0.26392 0.57740 0.03000
H 	H 	0.13300 0.28660 0.60590 -0.01300
C 	C 	0.12130 0.22866 0.50990 -0.20100
C 	C 	0.03000 0.19295 0.46620 0.07000
C 	C 	0.21830 0.13458 0.42030 0.33800
C 	C 	0.64600 0.17752 0.40080 0.54500
C 	C 	0.70250 0.23832 0.60580 0.35500
C 	C 	0.26610 0.23242 0.47120 0.52900
C 	C 	0.02640 0.01397 0.72870 -0.01600
H 	H 	0.05740 0.01760 0.81010 0.03800
C 	C 	0.11730 0.01095 0.63910 -0.12500
C 	C 	0.26270 0.02353 0.67290 0.42100
C 	C 	0.07160 0.00109 0.51430 0.07100
C 	C 	0.16170 0.99370 0.41750 -0.15800
C 	C 	0.31040 0.98584 0.44110 0.44200
C 	C 	0.11350 0.98830 0.29820 0.00700
H 	H 	0.17400 0.98610 0.23490 0.02500
O 	O 	0.26260 0.10962 0.33470 -0.50600
O 	O 	0.29090 0.14157 0.51560 -0.50600
O 	O 	0.56270 0.14555 0.40370 -0.69100
O 	O 	0.61550 0.21764 0.37000 -0.63500
O 	O 	0.64550 0.20351 0.64660 -0.53100
O 	O 	0.64440 0.27699 0.61140 -0.51200
O 	O 	0.28720 0.22726 0.35920 -0.65000
O 	O 	0.35530 0.24478 0.54920 -0.72000
O 	O 	0.31350 0.00920 0.77330 -0.31300
O 	O 	0.32230 0.05007 0.60160 -0.59400
O 	O 	0.34150 0.95405 0.51410 -0.60500
O 	O 	0.39310 0.00968 0.38390 -0.60400
Y 	Y 	0.45448 0.08145 0.45841 2.37900
Y 	Y 	0.45957 0.24834 0.73669 2.36000
