data_crystal

_cell_length_a 9.84750
_cell_length_b 29.05800
_cell_length_c 10.81510
_cell_angle_alpha 90.00000
_cell_angle_beta  92.31100
_cell_angle_gamma 90.00000

_symmetry_space_group_name_	'P 1'
_symmetry_space_group_name_H-M	'P 1'

loop_
_symmetry_equiv_pos_as_xyz
  x,y,z

loop_
_atom_site_label
_atom_site_type_symbol
_atom_site_fract_x
_atom_site_fract_y
_atom_site_fract_z
_atom_site_charge
C 	C 	0.07640 0.34910 0.91230 -0.08300
C 	C 	0.98350 0.38040 0.86620 -0.03900
H 	H 	0.01440 0.40820 0.83040 0.05400
C 	C 	0.84320 0.37210 0.87100 0.03700
H 	H 	0.78080 0.39390 0.83600 0.01800
C 	C 	0.79500 0.33340 0.92480 -0.16900
C 	C 	0.88840 0.30156 0.98420 0.07100
C 	C 	0.84500 0.26380 0.06000 -0.08700
C 	C 	0.93700 0.23310 0.10740 -0.03200
H 	H 	0.90770 0.20930 0.16030 0.05300
C 	C 	0.07510 0.23610 0.07940 0.01400
H 	H 	0.13650 0.21300 0.10890 0.01600
C 	C 	0.12230 0.27168 0.01040 -0.13800
C 	C 	0.03190 0.30716 0.96740 0.04700
C 	C 	0.21930 0.36584 0.92000 0.32300
C 	C 	0.64790 0.32250 0.90170 0.50000
C 	C 	0.70420 0.26150 0.10600 0.33200
C 	C 	0.26820 0.26743 0.96970 0.45800
C 	C 	0.02620 0.48660 0.23040 -0.01200
H 	H 	0.05760 0.48330 0.31410 0.04400
C 	C 	0.11820 0.48940 0.14020 -0.11400
C 	C 	0.26350 0.47700 0.17310 0.40100
C 	C 	0.07140 0.49878 0.01400 0.06400
C 	C 	0.16150 0.50640 0.91700 -0.13600
C 	C 	0.31120 0.51460 0.94100 0.43300
C 	C 	0.11360 0.51160 0.79760 -0.00000
H 	H 	0.17580 0.51410 0.73300 0.03300
O 	O 	0.26440 0.39064 0.83350 -0.40600
O 	O 	0.29300 0.35851 0.01520 -0.39500
O 	O 	0.56340 0.35413 0.90390 -0.53900
O 	O 	0.61730 0.28182 0.87120 -0.48300
O 	O 	0.64660 0.29673 0.14760 -0.40000
O 	O 	0.64620 0.22235 0.11260 -0.38200
O 	O 	0.28820 0.27296 0.85780 -0.49300
O 	O 	0.35750 0.25534 0.04920 -0.52000
O 	O 	0.31550 0.49100 0.27500 -0.28200
O 	O 	0.32210 0.45016 0.10160 -0.47400
O 	O 	0.34000 0.54627 0.01520 -0.49300
O 	O 	0.39500 0.49090 0.88390 -0.48200
Er	Er	0.45512 0.41877 0.95764 1.72200
Er	Er	0.46109 0.25170 0.23726 1.53900
C 	C 	0.92360 0.84910 0.58770 -0.08100
C 	C 	0.01650 0.88040 0.63380 -0.04600
H 	H 	0.98560 0.90820 0.66960 0.06000
C 	C 	0.15680 0.87210 0.62900 0.04100
H 	H 	0.21920 0.89390 0.66400 0.01800
C 	C 	0.20500 0.83340 0.57520 -0.16800
C 	C 	0.11160 0.80156 0.51580 0.06800
C 	C 	0.15500 0.76380 0.44000 -0.08700
C 	C 	0.06300 0.73310 0.39260 -0.03200
H 	H 	0.09230 0.70930 0.33970 0.05300
C 	C 	0.92490 0.73610 0.42060 0.01700
H 	H 	0.86350 0.71300 0.39110 0.01300
C 	C 	0.87770 0.77168 0.48960 -0.15400
C 	C 	0.96810 0.80716 0.53260 0.05800
C 	C 	0.78070 0.86584 0.58000 0.32900
C 	C 	0.35210 0.82250 0.59830 0.50100
C 	C 	0.29580 0.76150 0.39400 0.33100
C 	C 	0.73180 0.76743 0.53030 0.47400
C 	C 	0.97380 0.98660 0.26960 -0.01700
H 	H 	0.94240 0.98330 0.18590 0.04400
C 	C 	0.88180 0.98940 0.35980 -0.11300
C 	C 	0.73650 0.97700 0.32690 0.40000
C 	C 	0.92860 0.99878 0.48600 0.06200
C 	C 	0.83850 0.00640 0.58300 -0.13500
C 	C 	0.68880 0.01460 0.55900 0.43200
C 	C 	0.88640 0.01160 0.70240 0.00400
H 	H 	0.82420 0.01410 0.76700 0.03200
O 	O 	0.73560 0.89064 0.66650 -0.40700
O 	O 	0.70700 0.85851 0.48480 -0.40100
O 	O 	0.43660 0.85413 0.59610 -0.53900
O 	O 	0.38270 0.78182 0.62880 -0.48200
O 	O 	0.35340 0.79673 0.35240 -0.40100
O 	O 	0.35380 0.72235 0.38740 -0.38300
O 	O 	0.71180 0.77296 0.64220 -0.49600
O 	O 	0.64250 0.75534 0.45080 -0.52800
O 	O 	0.68450 0.99100 0.22500 -0.28200
O 	O 	0.67790 0.95016 0.39840 -0.47500
O 	O 	0.66000 0.04627 0.48480 -0.49400
O 	O 	0.60500 0.99090 0.61610 -0.48200
Er	Er	0.54488 0.91877 0.54236 1.72600
Er	Er	0.53891 0.75170 0.26274 1.53700
C 	C 	0.92360 0.65090 0.08770 -0.08200
C 	C 	0.01650 0.61960 0.13380 -0.03800
H 	H 	0.98560 0.59180 0.16960 0.05500
C 	C 	0.15680 0.62790 0.12900 0.03800
H 	H 	0.21920 0.60610 0.16400 0.01900
C 	C 	0.20500 0.66660 0.07520 -0.16800
C 	C 	0.11160 0.69844 0.01580 0.07100
C 	C 	0.15500 0.73620 0.94000 -0.08700
C 	C 	0.06300 0.76690 0.89260 -0.03200
H 	H 	0.09230 0.79070 0.83970 0.05300
C 	C 	0.92490 0.76390 0.92060 0.01400
H 	H 	0.86350 0.78700 0.89110 0.01600
C 	C 	0.87770 0.72832 0.98960 -0.13800
C 	C 	0.96810 0.69284 0.03260 0.04700
C 	C 	0.78070 0.63416 0.08000 0.32300
C 	C 	0.35210 0.67750 0.09830 0.50000
C 	C 	0.29580 0.73850 0.89400 0.33200
C 	C 	0.73180 0.73257 0.03030 0.45800
C 	C 	0.97380 0.51340 0.76960 -0.01200
H 	H 	0.94240 0.51670 0.68590 0.04400
C 	C 	0.88180 0.51060 0.85980 -0.11400
C 	C 	0.73650 0.52300 0.82690 0.40100
C 	C 	0.92860 0.50122 0.98600 0.06400
C 	C 	0.83850 0.49360 0.08300 -0.13600
C 	C 	0.68880 0.48540 0.05900 0.43300
C 	C 	0.88640 0.48840 0.20240 -0.00000
H 	H 	0.82420 0.48590 0.26700 0.03300
O 	O 	0.73560 0.60936 0.16650 -0.40600
O 	O 	0.70700 0.64149 0.98480 -0.39500
O 	O 	0.43660 0.64587 0.09610 -0.53900
O 	O 	0.38270 0.71818 0.12880 -0.48300
O 	O 	0.35340 0.70327 0.85240 -0.40000
O 	O 	0.35380 0.77765 0.88740 -0.38200
O 	O 	0.71180 0.72704 0.14220 -0.49300
O 	O 	0.64250 0.74466 0.95080 -0.52000
O 	O 	0.68450 0.50900 0.72500 -0.28200
O 	O 	0.67790 0.54984 0.89840 -0.47400
O 	O 	0.66000 0.45373 0.98480 -0.49300
O 	O 	0.60500 0.50910 0.11610 -0.48200
Er	Er	0.54488 0.58123 0.04236 1.72200
Er	Er	0.53891 0.74830 0.76274 1.53900
C 	C 	0.07640 0.15090 0.41230 -0.08100
C 	C 	0.98350 0.11960 0.36620 -0.04600
H 	H 	0.01440 0.09180 0.33040 0.06000
C 	C 	0.84320 0.12790 0.37100 0.04100
H 	H 	0.78080 0.10610 0.33600 0.01800
C 	C 	0.79500 0.16660 0.42480 -0.16800
C 	C 	0.88840 0.19844 0.48420 0.06800
C 	C 	0.84500 0.23620 0.56000 -0.08700
C 	C 	0.93700 0.26690 0.60740 -0.03200
H 	H 	0.90770 0.29070 0.66030 0.05300
C 	C 	0.07510 0.26390 0.57940 0.01700
H 	H 	0.13650 0.28700 0.60890 0.01300
C 	C 	0.12230 0.22832 0.51040 -0.15400
C 	C 	0.03190 0.19284 0.46740 0.05800
C 	C 	0.21930 0.13416 0.42000 0.32900
C 	C 	0.64790 0.17750 0.40170 0.50100
C 	C 	0.70420 0.23850 0.60600 0.33100
C 	C 	0.26820 0.23257 0.46970 0.47400
C 	C 	0.02620 0.01340 0.73040 -0.01700
H 	H 	0.05760 0.01670 0.81410 0.04400
C 	C 	0.11820 0.01060 0.64020 -0.11300
C 	C 	0.26350 0.02300 0.67310 0.40000
C 	C 	0.07140 0.00122 0.51400 0.06200
C 	C 	0.16150 0.99360 0.41700 -0.13500
C 	C 	0.31120 0.98540 0.44100 0.43200
C 	C 	0.11360 0.98840 0.29760 0.00400
H 	H 	0.17580 0.98590 0.23300 0.03200
O 	O 	0.26440 0.10936 0.33350 -0.40700
O 	O 	0.29300 0.14149 0.51520 -0.40100
O 	O 	0.56340 0.14587 0.40390 -0.53900
O 	O 	0.61730 0.21818 0.37120 -0.48200
O 	O 	0.64660 0.20327 0.64760 -0.40100
O 	O 	0.64620 0.27765 0.61260 -0.38300
O 	O 	0.28820 0.22704 0.35780 -0.49600
O 	O 	0.35750 0.24466 0.54920 -0.52800
O 	O 	0.31550 0.00900 0.77500 -0.28200
O 	O 	0.32210 0.04984 0.60160 -0.47500
O 	O 	0.34000 0.95373 0.51520 -0.49400
O 	O 	0.39500 0.00910 0.38390 -0.48200
Er	Er	0.45512 0.08123 0.45764 1.72600
Er	Er	0.46109 0.24830 0.73726 1.53700
