data_crystal

_cell_length_a 31.95100
_cell_length_b 10.63600
_cell_length_c 12.36800
_cell_angle_alpha 90.00000
_cell_angle_beta  96.03000
_cell_angle_gamma 90.00000

_symmetry_space_group_name_	'P 1'
_symmetry_space_group_name_H-M	'P 1'

loop_
_symmetry_equiv_pos_as_xyz
  x,y,z

loop_
_atom_site_label
_atom_site_type_symbol
_atom_site_fract_x
_atom_site_fract_y
_atom_site_fract_z
_atom_site_charge
Mn	Mn	0.24958 0.24825 0.49941 1.24900
Cu	Cu	0.99577 0.25709 0.28561 0.79400
C 	C 	0.07450 0.25470 0.43490 0.13800
C 	C 	0.14490 0.24390 0.48520 0.14100
C 	C 	0.35320 0.25090 0.53810 0.16700
C 	C 	0.42050 0.23840 0.62610 0.14400
C 	C 	0.25460 0.95210 0.41250 0.15800
C 	C 	0.24980 0.54310 0.59020 0.15500
C 	C 	0.25320 0.66950 0.73760 0.15300
C 	C 	0.25140 0.82360 0.26620 0.15100
N 	N 	0.04354 0.25410 0.38090 -0.34700
N 	N 	0.10640 0.25800 0.50520 -0.20800
N 	N 	0.18078 0.23280 0.48020 -0.29200
N 	N 	0.31830 0.26070 0.52090 -0.30300
N 	N 	0.39290 0.23710 0.54220 -0.21300
N 	N 	0.44840 0.24030 0.68980 -0.34700
N 	N 	0.25060 0.83770 0.36970 -0.19000
N 	N 	0.25660 0.04410 0.45560 -0.28800
N 	N 	0.24580 0.45110 0.54250 -0.28800
N 	N 	0.25700 0.65280 0.63450 -0.19000
N 	N 	0.25084 0.69860 0.82540 -0.28800
N 	N 	0.25100 0.79700 0.17620 -0.28900
Mn	Mn	0.25042 0.74825 0.00059 1.24600
Cu	Cu	0.50423 0.75709 0.21439 0.79200
C 	C 	0.42550 0.75470 0.06510 0.13300
C 	C 	0.35510 0.74390 0.01480 0.13500
C 	C 	0.14680 0.75090 0.96190 0.16700
C 	C 	0.07950 0.73840 0.87390 0.14400
C 	C 	0.24540 0.45210 0.08750 0.15800
C 	C 	0.25020 0.04310 0.90980 0.15000
C 	C 	0.24680 0.16950 0.76240 0.15200
C 	C 	0.24860 0.32360 0.23380 0.15200
N 	N 	0.45646 0.75410 0.11910 -0.34600
N 	N 	0.39360 0.75800 0.99480 -0.20300
N 	N 	0.31922 0.73280 0.01980 -0.29200
N 	N 	0.18170 0.76070 0.97910 -0.30100
N 	N 	0.10710 0.73710 0.95780 -0.21300
N 	N 	0.05160 0.74030 0.81020 -0.34700
N 	N 	0.24940 0.33770 0.13030 -0.19000
N 	N 	0.24340 0.54410 0.04440 -0.29000
N 	N 	0.25420 0.95110 0.95750 -0.28400
N 	N 	0.24300 0.15280 0.86550 -0.18900
N 	N 	0.24916 0.19860 0.67460 -0.28900
N 	N 	0.24900 0.29700 0.32380 -0.28800
Mn	Mn	0.75042 0.75175 0.50059 1.24800
Cu	Cu	0.00423 0.74291 0.71439 0.79300
C 	C 	0.92550 0.74530 0.56510 0.13700
C 	C 	0.85510 0.75610 0.51480 0.14000
C 	C 	0.64680 0.74910 0.46190 0.16600
C 	C 	0.57950 0.76160 0.37390 0.14300
C 	C 	0.74540 0.04790 0.58750 0.15700
C 	C 	0.75020 0.45690 0.40980 0.15400
C 	C 	0.74680 0.33050 0.26240 0.15300
C 	C 	0.74860 0.17640 0.73380 0.15100
N 	N 	0.95646 0.74590 0.61910 -0.34700
N 	N 	0.89360 0.74200 0.49480 -0.20800
N 	N 	0.81922 0.76720 0.51980 -0.29200
N 	N 	0.68170 0.73930 0.47910 -0.30300
N 	N 	0.60710 0.76290 0.45780 -0.21300
N 	N 	0.55160 0.75970 0.31020 -0.34700
N 	N 	0.74940 0.16230 0.63030 -0.19000
N 	N 	0.74340 0.95590 0.54440 -0.28800
N 	N 	0.75420 0.54890 0.45750 -0.28800
N 	N 	0.74300 0.34720 0.36550 -0.19000
N 	N 	0.74916 0.30140 0.17460 -0.28800
N 	N 	0.74900 0.20300 0.82380 -0.28900
Mn	Mn	0.74958 0.25175 0.99941 1.24600
Cu	Cu	0.49577 0.24291 0.78561 0.79200
C 	C 	0.57450 0.24530 0.93490 0.13300
C 	C 	0.64490 0.25610 0.98520 0.13500
C 	C 	0.85320 0.24910 0.03810 0.16700
C 	C 	0.92050 0.26160 0.12610 0.14400
C 	C 	0.75460 0.54790 0.91250 0.15800
C 	C 	0.74980 0.95690 0.09020 0.15000
C 	C 	0.75320 0.83050 0.23760 0.15200
C 	C 	0.75140 0.67640 0.76620 0.15200
N 	N 	0.54354 0.24590 0.88090 -0.34600
N 	N 	0.60640 0.24200 0.00520 -0.20300
N 	N 	0.68078 0.26720 0.98020 -0.29200
N 	N 	0.81830 0.23930 0.02090 -0.30100
N 	N 	0.89290 0.26290 0.04220 -0.21300
N 	N 	0.94840 0.25970 0.18980 -0.34700
N 	N 	0.75060 0.66230 0.86970 -0.19000
N 	N 	0.75660 0.45590 0.95560 -0.29000
N 	N 	0.74580 0.04890 0.04250 -0.28400
N 	N 	0.75700 0.84720 0.13450 -0.18900
N 	N 	0.75084 0.80140 0.32540 -0.28900
N 	N 	0.75100 0.70300 0.67620 -0.28800
