data_crystal

_cell_length_a 31.93600
_cell_length_b 10.66400
_cell_length_c 12.36100
_cell_angle_alpha 90.00000
_cell_angle_beta  96.20000
_cell_angle_gamma 90.00000

_symmetry_space_group_name_	'P 1'
_symmetry_space_group_name_H-M	'P 1'

loop_
_symmetry_equiv_pos_as_xyz
  x,y,z

loop_
_atom_site_label
_atom_site_type_symbol
_atom_site_fract_x
_atom_site_fract_y
_atom_site_fract_z
_atom_site_charge
Mn	Mn	0.24953 0.25010 0.49958 1.25100
Cu	Cu	0.99565 0.25738 0.28498 0.79600
C 	C 	0.07450 0.25460 0.43450 0.14000
C 	C 	0.14510 0.24510 0.48470 0.14800
C 	C 	0.35260 0.25200 0.53840 0.16900
C 	C 	0.42010 0.23970 0.62670 0.14300
C 	C 	0.25530 0.95610 0.41090 0.15700
C 	C 	0.25050 0.54400 0.59050 0.15500
C 	C 	0.25270 0.67130 0.73830 0.15800
C 	C 	0.25180 0.82700 0.26520 0.14900
N 	N 	0.04310 0.25410 0.38000 -0.34800
N 	N 	0.10618 0.25580 0.50340 -0.21100
N 	N 	0.18040 0.23520 0.47990 -0.29500
N 	N 	0.31800 0.26150 0.52160 -0.30600
N 	N 	0.39260 0.23770 0.54330 -0.21400
N 	N 	0.44860 0.24020 0.69000 -0.34900
N 	N 	0.25050 0.84290 0.36900 -0.19000
N 	N 	0.25620 0.04760 0.45540 -0.28900
N 	N 	0.24610 0.45150 0.54400 -0.28900
N 	N 	0.25630 0.65370 0.63520 -0.19100
N 	N 	0.25110 0.69980 0.82560 -0.29100
N 	N 	0.25120 0.79940 0.17520 -0.28900
Mn	Mn	0.25047 0.75010 0.00042 1.24800
Cu	Cu	0.50435 0.75738 0.21502 0.79500
C 	C 	0.42550 0.75460 0.06550 0.13400
C 	C 	0.35490 0.74510 0.01530 0.14200
C 	C 	0.14740 0.75200 0.96160 0.17000
C 	C 	0.07990 0.73970 0.87330 0.14300
C 	C 	0.24470 0.45610 0.08910 0.15800
C 	C 	0.24950 0.04400 0.90950 0.15100
C 	C 	0.24730 0.17130 0.76170 0.15800
C 	C 	0.24820 0.32700 0.23480 0.15000
N 	N 	0.45690 0.75410 0.12000 -0.34700
N 	N 	0.39382 0.75580 0.99660 -0.20600
N 	N 	0.31960 0.73520 0.02010 -0.29500
N 	N 	0.18200 0.76150 0.97840 -0.30500
N 	N 	0.10740 0.73770 0.95670 -0.21300
N 	N 	0.05140 0.74020 0.81000 -0.34800
N 	N 	0.24950 0.34290 0.13100 -0.19000
N 	N 	0.24380 0.54760 0.04460 -0.29000
N 	N 	0.25390 0.95150 0.95600 -0.28500
N 	N 	0.24370 0.15370 0.86480 -0.19100
N 	N 	0.24890 0.19980 0.67440 -0.29200
N 	N 	0.24880 0.29940 0.32480 -0.28900
Mn	Mn	0.75047 0.74990 0.50042 1.25000
Cu	Cu	0.00435 0.74262 0.71502 0.79500
C 	C 	0.92550 0.74540 0.56550 0.13900
C 	C 	0.85490 0.75490 0.51530 0.14700
C 	C 	0.64740 0.74800 0.46160 0.16900
C 	C 	0.57990 0.76030 0.37330 0.14300
C 	C 	0.74470 0.04390 0.58910 0.15700
C 	C 	0.74950 0.45600 0.40950 0.15500
C 	C 	0.74730 0.32870 0.26170 0.15800
C 	C 	0.74820 0.17300 0.73480 0.14900
N 	N 	0.95690 0.74590 0.62000 -0.34800
N 	N 	0.89382 0.74420 0.49660 -0.21100
N 	N 	0.81960 0.76480 0.52010 -0.29500
N 	N 	0.68200 0.73850 0.47840 -0.30600
N 	N 	0.60740 0.76230 0.45670 -0.21400
N 	N 	0.55140 0.75980 0.31000 -0.34900
N 	N 	0.74950 0.15710 0.63100 -0.19000
N 	N 	0.74380 0.95240 0.54460 -0.28900
N 	N 	0.75390 0.54850 0.45600 -0.28900
N 	N 	0.74370 0.34630 0.36480 -0.19100
N 	N 	0.74890 0.30020 0.17440 -0.29100
N 	N 	0.74880 0.20060 0.82480 -0.28900
Mn	Mn	0.74953 0.24990 0.99958 1.24800
Cu	Cu	0.49565 0.24262 0.78498 0.79500
C 	C 	0.57450 0.24540 0.93450 0.13400
C 	C 	0.64510 0.25490 0.98470 0.14200
C 	C 	0.85260 0.24800 0.03840 0.17000
C 	C 	0.92010 0.26030 0.12670 0.14300
C 	C 	0.75530 0.54390 0.91090 0.15800
C 	C 	0.75050 0.95600 0.09050 0.15100
C 	C 	0.75270 0.82870 0.23830 0.15800
C 	C 	0.75180 0.67300 0.76520 0.15000
N 	N 	0.54310 0.24590 0.88000 -0.34700
N 	N 	0.60618 0.24420 0.00340 -0.20600
N 	N 	0.68040 0.26480 0.97990 -0.29500
N 	N 	0.81800 0.23850 0.02160 -0.30500
N 	N 	0.89260 0.26230 0.04330 -0.21300
N 	N 	0.94860 0.25980 0.19000 -0.34800
N 	N 	0.75050 0.65710 0.86900 -0.19000
N 	N 	0.75620 0.45240 0.95540 -0.29000
N 	N 	0.74610 0.04850 0.04400 -0.28500
N 	N 	0.75630 0.84630 0.13520 -0.19100
N 	N 	0.75110 0.80020 0.32560 -0.29200
N 	N 	0.75120 0.70060 0.67520 -0.28900
