data_crystal

_cell_length_a 17.63520
_cell_length_b 18.55550
_cell_length_c 20.33110
_cell_angle_alpha 90.00000
_cell_angle_beta  90.00000
_cell_angle_gamma 90.00000

_symmetry_space_group_name_	'P 1'
_symmetry_space_group_name_H-M	'P 1'

loop_
_symmetry_equiv_pos_as_xyz
  x,y,z

loop_
_atom_site_label
_atom_site_type_symbol
_atom_site_fract_x
_atom_site_fract_y
_atom_site_fract_z
_atom_site_charge
Ag	Ag	0.32277 0.87405 0.85222 0.52300
Si	Si	0.46335 0.67984 0.58176 1.13200
Si	Si	0.92850 0.82584 0.86605 1.15900
N 	N 	0.36230 0.80200 0.76430 -0.14000
N 	N 	0.60720 0.47640 0.64260 -0.15300
N 	N 	0.19310 0.86340 0.86060 -0.14900
N 	N 	0.86320 0.69630 0.05620 -0.14100
C 	C 	0.53550 0.47210 0.62460 -0.07800
H 	H 	0.51270 0.42570 0.62330 0.02400
C 	C 	0.49120 0.53080 0.60740 0.11300
H 	H 	0.43990 0.52410 0.59470 -0.04500
C 	C 	0.52180 0.59880 0.60900 -0.39100
C 	C 	0.59490 0.60390 0.62790 0.12800
H 	H 	0.61860 0.64990 0.62950 -0.05200
C 	C 	0.63610 0.54280 0.64510 -0.08700
H 	H 	0.68710 0.54860 0.65920 0.02700
C 	C 	0.38750 0.65100 0.52370 -0.65500
H 	H 	0.35810 0.61080 0.54310 0.18400
H 	H 	0.35230 0.69160 0.51550 0.18300
C 	C 	0.42440 0.62610 0.45730 0.08600
H 	H 	0.38450 0.61070 0.42680 -0.01200
H 	H 	0.45900 0.58580 0.46570 -0.02900
H 	H 	0.45270 0.66630 0.43790 -0.02500
C 	C 	0.52890 0.74670 0.54400 -1.15600
H 	H 	0.49990 0.78890 0.52950 0.32900
H 	H 	0.55440 0.72480 0.50610 0.33700
H 	H 	0.56680 0.76150 0.57650 0.33000
C 	C 	0.42130 0.72370 0.65630 -0.40400
C 	C 	0.35500 0.76320 0.65280 0.12000
H 	H 	0.32770 0.76460 0.61260 -0.05100
C 	C 	0.32780 0.80040 0.70660 -0.07800
H 	H 	0.28170 0.82640 0.70190 0.03400
C 	C 	0.42680 0.76390 0.76830 -0.08400
H 	H 	0.45290 0.76300 0.80910 0.02900
C 	C 	0.45690 0.72620 0.71690 0.12900
H 	H 	0.50340 0.70120 0.72290 -0.05100
C 	C 	0.16240 0.79780 0.85800 -0.05700
H 	H 	0.19550 0.75760 0.85500 0.02800
C 	C 	0.08540 0.78480 0.85940 0.10500
H 	H 	0.06710 0.73670 0.85700 -0.03500
C 	C 	0.03410 0.84240 0.86440 -0.37800
C 	C 	0.06700 0.91020 0.86900 0.11700
H 	H 	0.03560 0.95140 0.87410 -0.03600
C 	C 	0.14390 0.91850 0.86640 -0.06700
H 	H 	0.16380 0.96600 0.86890 0.02400
C 	C 	0.90140 0.77070 0.79410 -0.71800
H 	H 	0.93950 0.73210 0.78790 0.20800
H 	H 	0.85200 0.74740 0.80290 0.20200
C 	C 	0.89540 0.81450 0.73050 0.17500
H 	H 	0.88110 0.78260 0.69410 -0.04000
H 	H 	0.94450 0.83700 0.72090 -0.04600
H 	H 	0.85680 0.85210 0.73580 -0.05300
C 	C 	0.87660 0.91340 0.86720 -1.16100
H 	H 	0.88820 0.94050 0.82700 0.33100
H 	H 	0.89240 0.94150 0.90570 0.33400
H 	H 	0.82190 0.90430 0.86950 0.32700
C 	C 	0.90560 0.77430 0.94320 -0.40600
C 	C 	0.95700 0.74610 0.98520 0.12600
H 	H 	0.00950 0.75160 0.97600 -0.03500
C 	C 	0.93530 0.70960 0.04130 -0.08100
H 	H 	0.97360 0.69310 0.07060 0.03100
C 	C 	0.81340 0.72250 0.01490 -0.06900
H 	H 	0.76150 0.71480 0.02490 0.03300
C 	C 	0.82950 0.76020 0.95850 0.10200
H 	H 	0.78990 0.77630 0.93050 -0.04700
Ag	Ag	0.17723 0.12595 0.35222 0.52400
Si	Si	0.03665 0.32016 0.08176 1.11200
Si	Si	0.57150 0.17416 0.36605 1.17500
N 	N 	0.13770 0.19800 0.26430 -0.14100
N 	N 	0.89280 0.52360 0.14260 -0.15400
N 	N 	0.30690 0.13660 0.36060 -0.14700
N 	N 	0.63680 0.30370 0.55620 -0.13700
C 	C 	0.96450 0.52790 0.12460 -0.07100
H 	H 	0.98730 0.57430 0.12330 0.02300
C 	C 	0.00880 0.46920 0.10740 0.10300
H 	H 	0.06010 0.47590 0.09470 -0.04100
C 	C 	0.97820 0.40120 0.10900 -0.37800
C 	C 	0.90510 0.39610 0.12790 0.12100
H 	H 	0.88140 0.35010 0.12950 -0.04900
C 	C 	0.86390 0.45720 0.14510 -0.08300
H 	H 	0.81290 0.45140 0.15920 0.02600
C 	C 	0.11250 0.34900 0.02370 -0.64700
H 	H 	0.14190 0.38920 0.04310 0.18100
H 	H 	0.14770 0.30840 0.01550 0.18000
C 	C 	0.07560 0.37390 0.95730 0.08200
H 	H 	0.11550 0.38930 0.92680 -0.01100
H 	H 	0.04100 0.41420 0.96570 -0.02700
H 	H 	0.04730 0.33370 0.93790 -0.02300
C 	C 	0.97110 0.25330 0.04400 -1.12900
H 	H 	0.00010 0.21110 0.02950 0.31900
H 	H 	0.94560 0.27520 0.00610 0.33000
H 	H 	0.93320 0.23850 0.07650 0.32300
C 	C 	0.07870 0.27630 0.15630 -0.39500
C 	C 	0.14500 0.23680 0.15280 0.11400
H 	H 	0.17230 0.23540 0.11260 -0.04900
C 	C 	0.17220 0.19960 0.20660 -0.07500
H 	H 	0.21830 0.17360 0.20190 0.03300
C 	C 	0.07320 0.23610 0.26830 -0.07900
H 	H 	0.04710 0.23700 0.30910 0.02700
C 	C 	0.04310 0.27380 0.21690 0.11800
H 	H 	0.99660 0.29880 0.22290 -0.04500
C 	C 	0.33760 0.20220 0.35800 -0.06000
H 	H 	0.30450 0.24240 0.35500 0.02900
C 	C 	0.41460 0.21520 0.35940 0.10900
H 	H 	0.43290 0.26330 0.35700 -0.03800
C 	C 	0.46590 0.15760 0.36440 -0.38600
C 	C 	0.43300 0.08980 0.36900 0.12100
H 	H 	0.46440 0.04860 0.37410 -0.03900
C 	C 	0.35610 0.08150 0.36640 -0.07000
H 	H 	0.33620 0.03400 0.36890 0.02400
C 	C 	0.59860 0.22930 0.29410 -0.72500
H 	H 	0.56050 0.26790 0.28790 0.21000
H 	H 	0.64800 0.25260 0.30290 0.20400
C 	C 	0.60460 0.18550 0.23050 0.17900
H 	H 	0.61890 0.21740 0.19410 -0.04100
H 	H 	0.55550 0.16300 0.22090 -0.04600
H 	H 	0.64320 0.14790 0.23580 -0.05400
C 	C 	0.62340 0.08660 0.36720 -1.17300
H 	H 	0.61180 0.05950 0.32700 0.33600
H 	H 	0.60760 0.05850 0.40570 0.34000
H 	H 	0.67810 0.09570 0.36950 0.33200
C 	C 	0.59440 0.22570 0.44320 -0.41500
C 	C 	0.54300 0.25390 0.48520 0.14000
H 	H 	0.49050 0.24840 0.47600 -0.04200
C 	C 	0.56470 0.29040 0.54130 -0.08900
H 	H 	0.52640 0.30690 0.57060 0.03400
C 	C 	0.68660 0.27750 0.51490 -0.07400
H 	H 	0.73850 0.28520 0.52490 0.03400
C 	C 	0.67050 0.23980 0.45850 0.11000
H 	H 	0.71010 0.22370 0.43050 -0.04900
Ag	Ag	0.67723 0.37405 0.64778 0.52400
Si	Si	0.53665 0.17984 0.91824 1.13300
Si	Si	0.07150 0.32584 0.63395 1.16900
N 	N 	0.63770 0.30200 0.73570 -0.13900
N 	N 	0.39280 0.97640 0.85740 -0.15200
N 	N 	0.80690 0.36340 0.63940 -0.14700
N 	N 	0.13680 0.19630 0.44380 -0.13800
C 	C 	0.46450 0.97210 0.87540 -0.07900
H 	H 	0.48730 0.92570 0.87670 0.02500
C 	C 	0.50880 0.03080 0.89260 0.11600
H 	H 	0.56010 0.02410 0.90530 -0.04400
C 	C 	0.47820 0.09880 0.89100 -0.39100
C 	C 	0.40510 0.10390 0.87210 0.12900
H 	H 	0.38140 0.14990 0.87050 -0.05200
C 	C 	0.36390 0.04280 0.85490 -0.08700
H 	H 	0.31290 0.04860 0.84080 0.02700
C 	C 	0.61250 0.15100 0.97630 -0.65500
H 	H 	0.64190 0.11080 0.95690 0.18400
H 	H 	0.64770 0.19160 0.98450 0.18300
C 	C 	0.57560 0.12610 0.04270 0.08500
H 	H 	0.61550 0.11070 0.07320 -0.01200
H 	H 	0.54100 0.08580 0.03430 -0.02900
H 	H 	0.54730 0.16630 0.06210 -0.02400
C 	C 	0.47110 0.24670 0.95600 -1.15700
H 	H 	0.50010 0.28890 0.97050 0.32900
H 	H 	0.44560 0.22480 0.99390 0.33800
H 	H 	0.43320 0.26150 0.92350 0.33000
C 	C 	0.57870 0.22370 0.84370 -0.40500
C 	C 	0.64500 0.26320 0.84720 0.12000
H 	H 	0.67230 0.26460 0.88740 -0.05100
C 	C 	0.67220 0.30040 0.79340 -0.07800
H 	H 	0.71830 0.32640 0.79810 0.03400
C 	C 	0.57320 0.26390 0.73170 -0.08400
H 	H 	0.54710 0.26300 0.69090 0.02900
C 	C 	0.54310 0.22620 0.78310 0.12900
H 	H 	0.49660 0.20120 0.77710 -0.05100
C 	C 	0.83760 0.29780 0.64200 -0.05900
H 	H 	0.80450 0.25760 0.64500 0.02900
C 	C 	0.91460 0.28480 0.64060 0.10700
H 	H 	0.93290 0.23670 0.64300 -0.03600
C 	C 	0.96590 0.34240 0.63560 -0.38300
C 	C 	0.93300 0.41020 0.63100 0.11900
H 	H 	0.96440 0.45140 0.62590 -0.03900
C 	C 	0.85610 0.41850 0.63360 -0.06900
H 	H 	0.83620 0.46600 0.63110 0.02400
C 	C 	0.09860 0.27070 0.70590 -0.72200
H 	H 	0.06050 0.23210 0.71210 0.20900
H 	H 	0.14800 0.24740 0.69710 0.20300
C 	C 	0.10460 0.31450 0.76950 0.17700
H 	H 	0.11890 0.28260 0.80590 -0.04000
H 	H 	0.05550 0.33700 0.77910 -0.04600
H 	H 	0.14320 0.35210 0.76420 -0.05300
C 	C 	0.12340 0.41340 0.63280 -1.16800
H 	H 	0.11180 0.44050 0.67300 0.33400
H 	H 	0.10760 0.44150 0.59430 0.33800
H 	H 	0.17810 0.40430 0.63050 0.33000
C 	C 	0.09440 0.27430 0.55680 -0.41100
C 	C 	0.04300 0.24610 0.51480 0.13300
H 	H 	0.99050 0.25160 0.52400 -0.03700
C 	C 	0.06470 0.20960 0.45870 -0.08600
H 	H 	0.02640 0.19310 0.42940 0.03200
C 	C 	0.18660 0.22250 0.48510 -0.07200
H 	H 	0.23850 0.21480 0.47510 0.03400
C 	C 	0.17050 0.26020 0.54150 0.10700
H 	H 	0.21010 0.27630 0.56950 -0.04800
Ag	Ag	0.82277 0.62595 0.14778 0.52400
Si	Si	0.96335 0.82016 0.41824 1.11600
Si	Si	0.42850 0.67416 0.13395 1.17400
N 	N 	0.86230 0.69800 0.23570 -0.14000
N 	N 	0.10720 0.02360 0.35740 -0.15600
N 	N 	0.69310 0.63660 0.13940 -0.14700
N 	N 	0.36320 0.80370 0.94380 -0.13700
C 	C 	0.03550 0.02790 0.37540 -0.07400
H 	H 	0.01270 0.07430 0.37670 0.02300
C 	C 	0.99120 0.96920 0.39260 0.10300
H 	H 	0.93990 0.97590 0.40530 -0.04100
C 	C 	0.02180 0.90120 0.39100 -0.37600
C 	C 	0.09490 0.89610 0.37210 0.11900
H 	H 	0.11860 0.85010 0.37050 -0.04800
C 	C 	0.13610 0.95720 0.35490 -0.07800
H 	H 	0.18710 0.95140 0.34080 0.02500
C 	C 	0.88750 0.84900 0.47630 -0.64800
H 	H 	0.85810 0.88920 0.45690 0.18200
H 	H 	0.85230 0.80840 0.48450 0.18100
C 	C 	0.92440 0.87390 0.54270 0.08200
H 	H 	0.88450 0.88930 0.57320 -0.01200
H 	H 	0.95900 0.91420 0.53430 -0.02900
H 	H 	0.95270 0.83370 0.56210 -0.02400
C 	C 	0.02890 0.75330 0.45600 -1.13900
H 	H 	0.99990 0.71110 0.47050 0.32300
H 	H 	0.05440 0.77520 0.49390 0.33300
H 	H 	0.06680 0.73850 0.42350 0.32500
C 	C 	0.92130 0.77630 0.34370 -0.39700
C 	C 	0.85500 0.73680 0.34720 0.11500
H 	H 	0.82770 0.73540 0.38740 -0.05000
C 	C 	0.82780 0.69960 0.29340 -0.07500
H 	H 	0.78170 0.67360 0.29810 0.03300
C 	C 	0.92680 0.73610 0.23170 -0.08000
H 	H 	0.95290 0.73700 0.19090 0.02800
C 	C 	0.95690 0.77380 0.28310 0.12000
H 	H 	0.00340 0.79880 0.27710 -0.04600
C 	C 	0.66240 0.70220 0.14200 -0.05900
H 	H 	0.69550 0.74240 0.14500 0.02900
C 	C 	0.58540 0.71520 0.14060 0.10900
H 	H 	0.56710 0.76330 0.14300 -0.03700
C 	C 	0.53410 0.65760 0.13560 -0.38600
C 	C 	0.56700 0.58980 0.13100 0.12100
H 	H 	0.53560 0.54860 0.12590 -0.03900
C 	C 	0.64390 0.58150 0.13360 -0.07000
H 	H 	0.66380 0.53400 0.13110 0.02400
C 	C 	0.40140 0.72930 0.20590 -0.72500
H 	H 	0.43950 0.76790 0.21210 0.21000
H 	H 	0.35200 0.75260 0.19710 0.20300
C 	C 	0.39540 0.68550 0.26950 0.17900
H 	H 	0.38110 0.71740 0.30590 -0.04100
H 	H 	0.44450 0.66300 0.27910 -0.04600
H 	H 	0.35680 0.64790 0.26420 -0.05400
C 	C 	0.37660 0.58660 0.13280 -1.17100
H 	H 	0.38820 0.55950 0.17300 0.33500
H 	H 	0.39240 0.55850 0.09430 0.33900
H 	H 	0.32190 0.59570 0.13050 0.33100
C 	C 	0.40560 0.72570 0.05680 -0.41500
C 	C 	0.45700 0.75390 0.01480 0.14100
H 	H 	0.50950 0.74840 0.02400 -0.04200
C 	C 	0.43530 0.79040 0.95870 -0.08900
H 	H 	0.47360 0.80690 0.92940 0.03400
C 	C 	0.31340 0.77750 0.98510 -0.07400
H 	H 	0.26150 0.78520 0.97510 0.03400
C 	C 	0.32950 0.73980 0.04150 0.11000
H 	H 	0.28990 0.72370 0.06950 -0.04900
Ag	Ag	0.83788 0.11989 0.84555 0.52500
Si	Si	0.86096 0.49769 0.85960 0.97300
Si	Si	0.53562 0.02406 0.64114 1.20600
N 	N 	0.86130 0.24410 0.85950 -0.14600
N 	N 	0.06080 0.58880 0.72900 -0.14300
N 	N 	0.73770 0.08520 0.78270 -0.14500
N 	N 	0.63370 0.91780 0.44990 -0.14600
C 	C 	0.83180 0.28210 0.90920 -0.05700
H 	H 	0.80930 0.25670 0.94480 0.01700
C 	C 	0.83240 0.35660 0.91130 0.07200
H 	H 	0.80970 0.38090 0.94740 -0.03600
C 	C 	0.86600 0.39610 0.86110 -0.33100
C 	C 	0.89800 0.35610 0.81080 0.08300
H 	H 	0.92240 0.38030 0.77550 -0.01600
C 	C 	0.89490 0.28110 0.81090 -0.04900
H 	H 	0.91740 0.25540 0.77560 0.02900
C 	C 	0.76470 0.51730 0.81760 -0.52800
H 	H 	0.76740 0.50210 0.77090 0.14500
H 	H 	0.72470 0.48840 0.83930 0.14000
C 	C 	0.74280 0.59830 0.82070 0.02800
H 	H 	0.69400 0.60560 0.79880 -0.00500
H 	H 	0.78180 0.62710 0.79870 -0.01300
H 	H 	0.73880 0.61340 0.86680 -0.01100
C 	C 	0.87400 0.53240 0.94710 -1.01100
H 	H 	0.92470 0.51930 0.96300 0.29400
H 	H 	0.83560 0.51070 0.97580 0.28700
H 	H 	0.86860 0.58490 0.94760 0.29500
C 	C 	0.94040 0.53320 0.80640 -0.34100
C 	C 	0.01500 0.52560 0.82420 0.09600
H 	H 	0.02720 0.50140 0.86400 -0.03200
C 	C 	0.07250 0.55240 0.78530 -0.06900
H 	H 	0.12340 0.54480 0.79910 0.03400
C 	C 	0.98850 0.59700 0.71230 -0.06300
H 	H 	0.97700 0.62340 0.67350 0.02700
C 	C 	0.92920 0.56940 0.74840 0.09100
H 	H 	0.87890 0.57560 0.73270 -0.02900
C 	C 	0.72320 0.12040 0.72750 -0.06600
H 	H 	0.75520 0.15980 0.71650 0.03300
C 	C 	0.66450 0.10370 0.68450 0.13500
H 	H 	0.65740 0.13160 0.64580 -0.04600
C 	C 	0.61650 0.04710 0.69780 -0.41900
C 	C 	0.63320 0.00990 0.75540 0.14100
H 	H 	0.60270 0.96950 0.76670 -0.05400
C 	C 	0.69170 0.02870 0.79670 -0.08600
H 	H 	0.69990 0.00170 0.83580 0.02400
C 	C 	0.48600 0.10820 0.61730 -0.72900
H 	H 	0.46370 0.12960 0.65750 0.20500
H 	H 	0.52440 0.14250 0.60050 0.21000
C 	C 	0.42260 0.10140 0.56520 0.18700
H 	H 	0.40060 0.14910 0.55670 -0.04200
H 	H 	0.38300 0.06890 0.58150 -0.05800
H 	H 	0.44390 0.08200 0.52440 -0.05000
C 	C 	0.47080 0.95890 0.68080 -1.22200
H 	H 	0.49890 0.91500 0.69200 0.34700
H 	H 	0.42950 0.94690 0.65050 0.34600
H 	H 	0.44980 0.98020 0.72090 0.35100
C 	C 	0.57710 0.98110 0.56570 -0.41500
C 	C 	0.53190 0.94190 0.52360 0.12900
H 	H 	0.47980 0.93500 0.53380 -0.06000
C 	C 	0.56090 0.91300 0.46740 -0.09500
H 	H 	0.52730 0.88790 0.43890 0.02700
C 	C 	0.67770 0.95390 0.48970 -0.07500
H 	H 	0.72970 0.95880 0.47830 0.02200
C 	C 	0.65290 0.98570 0.54790 0.11600
H 	H 	0.68770 0.01050 0.57540 -0.03400
Ag	Ag	0.66212 0.88011 0.34555 0.52400
Si	Si	0.63904 0.50231 0.35960 0.97300
Si	Si	0.96438 0.97594 0.14114 1.19200
N 	N 	0.63870 0.75590 0.35950 -0.14700
N 	N 	0.43920 0.41120 0.22900 -0.14400
N 	N 	0.76230 0.91480 0.28270 -0.14700
N 	N 	0.86630 0.08220 0.94990 -0.14400
C 	C 	0.66820 0.71790 0.40920 -0.05800
H 	H 	0.69070 0.74330 0.44480 0.01700
C 	C 	0.66760 0.64340 0.41130 0.07200
H 	H 	0.69030 0.61910 0.44740 -0.03600
C 	C 	0.63400 0.60390 0.36110 -0.33100
C 	C 	0.60200 0.64390 0.31080 0.08200
H 	H 	0.57760 0.61970 0.27550 -0.01600
C 	C 	0.60510 0.71890 0.31090 -0.04900
H 	H 	0.58260 0.74460 0.27560 0.02800
C 	C 	0.73530 0.48270 0.31760 -0.52800
H 	H 	0.73260 0.49790 0.27090 0.14500
H 	H 	0.77530 0.51160 0.33930 0.14000
C 	C 	0.75720 0.40170 0.32070 0.02800
H 	H 	0.80600 0.39440 0.29880 -0.00500
H 	H 	0.71820 0.37290 0.29870 -0.01200
H 	H 	0.76120 0.38660 0.36680 -0.01000
C 	C 	0.62600 0.46760 0.44710 -1.01100
H 	H 	0.57530 0.48070 0.46300 0.29400
H 	H 	0.66440 0.48930 0.47580 0.28800
H 	H 	0.63140 0.41510 0.44760 0.29500
C 	C 	0.55960 0.46680 0.30640 -0.34000
C 	C 	0.48500 0.47440 0.32420 0.09400
H 	H 	0.47280 0.49860 0.36400 -0.03100
C 	C 	0.42750 0.44760 0.28530 -0.06800
H 	H 	0.37660 0.45520 0.29910 0.03300
C 	C 	0.51150 0.40300 0.21230 -0.06100
H 	H 	0.52300 0.37660 0.17350 0.02600
C 	C 	0.57080 0.43060 0.24840 0.09000
H 	H 	0.62110 0.42440 0.23270 -0.02900
C 	C 	0.77680 0.87960 0.22750 -0.06300
H 	H 	0.74480 0.84020 0.21650 0.03200
C 	C 	0.83550 0.89630 0.18450 0.13000
H 	H 	0.84260 0.86840 0.14580 -0.04400
C 	C 	0.88350 0.95290 0.19780 -0.41100
C 	C 	0.86680 0.99010 0.25540 0.12600
H 	H 	0.89730 0.03050 0.26670 -0.04500
C 	C 	0.80830 0.97130 0.29670 -0.08000
H 	H 	0.80010 0.99830 0.33580 0.02000
C 	C 	0.01400 0.89180 0.11730 -0.71300
H 	H 	0.03630 0.87040 0.15750 0.20100
H 	H 	0.97560 0.85750 0.10050 0.20400
C 	C 	0.07740 0.89860 0.06520 0.17400
H 	H 	0.09940 0.85090 0.05670 -0.03900
H 	H 	0.11700 0.93110 0.08150 -0.05300
H 	H 	0.05610 0.91800 0.02440 -0.04500
C 	C 	0.02920 0.04110 0.18080 -1.21400
H 	H 	0.00110 0.08500 0.19200 0.34300
H 	H 	0.07050 0.05310 0.15050 0.34300
H 	H 	0.05020 0.01980 0.22090 0.34800
C 	C 	0.92290 0.01890 0.06570 -0.41500
C 	C 	0.96810 0.05810 0.02360 0.14100
H 	H 	0.02020 0.06500 0.03380 -0.06700
C 	C 	0.93910 0.08700 0.96740 -0.10000
H 	H 	0.97270 0.11210 0.93890 0.03000
C 	C 	0.82230 0.04610 0.98970 -0.07800
H 	H 	0.77030 0.04120 0.97830 0.02400
C 	C 	0.84710 0.01430 0.04790 0.12400
H 	H 	0.81230 0.98950 0.07540 -0.03900
Ag	Ag	0.16212 0.61989 0.65445 0.52400
Si	Si	0.13904 0.99769 0.64040 0.99400
Si	Si	0.46438 0.52406 0.85886 1.20300
N 	N 	0.13870 0.74410 0.64050 -0.14600
N 	N 	0.93920 0.08880 0.77100 -0.13900
N 	N 	0.26230 0.58520 0.71730 -0.14500
N 	N 	0.36630 0.41780 0.05010 -0.14600
C 	C 	0.16820 0.78210 0.59080 -0.05900
H 	H 	0.19070 0.75670 0.55520 0.01700
C 	C 	0.16760 0.85660 0.58870 0.07600
H 	H 	0.19030 0.88090 0.55260 -0.03700
C 	C 	0.13400 0.89610 0.63890 -0.33600
C 	C 	0.10200 0.85610 0.68920 0.08600
H 	H 	0.07760 0.88030 0.72450 -0.01600
C 	C 	0.10510 0.78110 0.68910 -0.05100
H 	H 	0.08260 0.75540 0.72440 0.02900
C 	C 	0.23530 0.01730 0.68240 -0.54300
H 	H 	0.23260 0.00210 0.72910 0.14800
H 	H 	0.27530 0.98840 0.66070 0.14600
C 	C 	0.25720 0.09830 0.67930 0.03900
H 	H 	0.30600 0.10560 0.70120 -0.00800
H 	H 	0.21820 0.12710 0.70130 -0.01600
H 	H 	0.26120 0.11340 0.63320 -0.01400
C 	C 	0.12600 0.03240 0.55290 -1.02500
H 	H 	0.07530 0.01930 0.53700 0.29600
H 	H 	0.16440 0.01070 0.52420 0.29000
H 	H 	0.13140 0.08490 0.55240 0.29800
C 	C 	0.05960 0.03320 0.69360 -0.35600
C 	C 	0.98500 0.02560 0.67580 0.10800
H 	H 	0.97280 0.00140 0.63600 -0.03400
C 	C 	0.92750 0.05240 0.71470 -0.07300
H 	H 	0.87660 0.04480 0.70090 0.03600
C 	C 	0.01150 0.09700 0.78770 -0.07000
H 	H 	0.02300 0.12340 0.82650 0.02900
C 	C 	0.07080 0.06940 0.75160 0.10000
H 	H 	0.12110 0.07560 0.76730 -0.03300
C 	C 	0.27680 0.62040 0.77250 -0.06500
H 	H 	0.24480 0.65980 0.78350 0.03200
C 	C 	0.33550 0.60370 0.81550 0.13400
H 	H 	0.34260 0.63160 0.85420 -0.04600
C 	C 	0.38350 0.54710 0.80220 -0.41700
C 	C 	0.36680 0.50990 0.74460 0.13700
H 	H 	0.39730 0.46950 0.73330 -0.05200
C 	C 	0.30830 0.52870 0.70330 -0.08500
H 	H 	0.30010 0.50170 0.66420 0.02200
C 	C 	0.51400 0.60820 0.88270 -0.72800
H 	H 	0.53630 0.62960 0.84250 0.20400
H 	H 	0.47560 0.64250 0.89950 0.21000
C 	C 	0.57740 0.60140 0.93480 0.18600
H 	H 	0.59940 0.64910 0.94330 -0.04200
H 	H 	0.61700 0.56890 0.91850 -0.05800
H 	H 	0.55610 0.58200 0.97560 -0.05000
C 	C 	0.52920 0.45890 0.81920 -1.22000
H 	H 	0.50110 0.41500 0.80800 0.34600
H 	H 	0.57050 0.44690 0.84950 0.34500
H 	H 	0.55020 0.48020 0.77910 0.35100
C 	C 	0.42290 0.48110 0.93430 -0.41600
C 	C 	0.46810 0.44190 0.97640 0.13100
H 	H 	0.52020 0.43500 0.96620 -0.06000
C 	C 	0.43910 0.41300 0.03260 -0.09600
H 	H 	0.47270 0.38790 0.06110 0.02700
C 	C 	0.32230 0.45390 0.01030 -0.07800
H 	H 	0.27030 0.45880 0.02170 0.02300
C 	C 	0.34710 0.48570 0.95210 0.12100
H 	H 	0.31230 0.51050 0.92460 -0.03700
Ag	Ag	0.33788 0.38011 0.15445 0.52400
Si	Si	0.36096 0.00231 0.14040 0.96100
Si	Si	0.03562 0.47594 0.35886 1.19700
N 	N 	0.36130 0.25590 0.14050 -0.14700
N 	N 	0.56080 0.91120 0.27100 -0.14400
N 	N 	0.23770 0.41480 0.21730 -0.14600
N 	N 	0.13370 0.58220 0.55010 -0.14600
C 	C 	0.33180 0.21790 0.09080 -0.05700
H 	H 	0.30930 0.24330 0.05520 0.01600
C 	C 	0.33240 0.14340 0.08870 0.07000
H 	H 	0.30970 0.11910 0.05260 -0.03600
C 	C 	0.36600 0.10390 0.13890 -0.32700
C 	C 	0.39800 0.14390 0.18920 0.08000
H 	H 	0.42240 0.11970 0.22450 -0.01500
C 	C 	0.39490 0.21890 0.18910 -0.04800
H 	H 	0.41740 0.24460 0.22440 0.02800
C 	C 	0.26470 0.98270 0.18240 -0.51400
H 	H 	0.26740 0.99790 0.22910 0.14200
H 	H 	0.22470 0.01160 0.16070 0.13500
C 	C 	0.24280 0.90170 0.17930 0.01800
H 	H 	0.19400 0.89440 0.20120 -0.00100
H 	H 	0.28180 0.87290 0.20130 -0.01000
H 	H 	0.23880 0.88660 0.13320 -0.00700
C 	C 	0.37400 0.96760 0.05290 -1.00300
H 	H 	0.42470 0.98070 0.03700 0.29200
H 	H 	0.33560 0.98930 0.02420 0.28600
H 	H 	0.36860 0.91510 0.05240 0.29300
C 	C 	0.44040 0.96680 0.19360 -0.33400
C 	C 	0.51500 0.97440 0.17580 0.09100
H 	H 	0.52720 0.99860 0.13600 -0.03000
C 	C 	0.57250 0.94760 0.21470 -0.06600
H 	H 	0.62340 0.95520 0.20090 0.03300
C 	C 	0.48850 0.90300 0.28770 -0.06000
H 	H 	0.47700 0.87660 0.32650 0.02600
C 	C 	0.42920 0.93060 0.25160 0.08700
H 	H 	0.37890 0.92440 0.26730 -0.02800
C 	C 	0.22320 0.37960 0.27250 -0.06500
H 	H 	0.25520 0.34020 0.28350 0.03200
C 	C 	0.16450 0.39630 0.31550 0.13300
H 	H 	0.15740 0.36840 0.35420 -0.04500
C 	C 	0.11650 0.45290 0.30220 -0.41500
C 	C 	0.13320 0.49010 0.24460 0.13500
H 	H 	0.10270 0.53050 0.23330 -0.05100
C 	C 	0.19170 0.47130 0.20330 -0.08400
H 	H 	0.19990 0.49830 0.16420 0.02200
C 	C 	0.98600 0.39180 0.38270 -0.72000
H 	H 	0.96370 0.37040 0.34250 0.20300
H 	H 	0.02440 0.35750 0.39950 0.20700
C 	C 	0.92260 0.39860 0.43480 0.18000
H 	H 	0.90060 0.35090 0.44330 -0.04000
H 	H 	0.88300 0.43110 0.41850 -0.05600
H 	H 	0.94390 0.41800 0.47560 -0.04800
C 	C 	0.97080 0.54110 0.31920 -1.21500
H 	H 	0.99890 0.58500 0.30800 0.34500
H 	H 	0.92950 0.55310 0.34950 0.34400
H 	H 	0.94980 0.51980 0.27910 0.35000
C 	C 	0.07710 0.51890 0.43430 -0.41400
C 	C 	0.03190 0.55810 0.47640 0.12900
H 	H 	0.97980 0.56500 0.46620 -0.06000
C 	C 	0.06090 0.58700 0.53260 -0.09500
H 	H 	0.02730 0.61210 0.56110 0.02800
C 	C 	0.17770 0.54610 0.51030 -0.07600
H 	H 	0.22970 0.54120 0.52170 0.02300
C 	C 	0.15290 0.51430 0.45210 0.11900
H 	H 	0.18770 0.48950 0.42460 -0.03600
