data_crystal

_cell_length_a 17.93040
_cell_length_b 18.83210
_cell_length_c 20.29220
_cell_angle_alpha 90.00000
_cell_angle_beta  90.00000
_cell_angle_gamma 90.00000

_symmetry_space_group_name_	'P 1'
_symmetry_space_group_name_H-M	'P 1'

loop_
_symmetry_equiv_pos_as_xyz
  x,y,z

loop_
_atom_site_label
_atom_site_type_symbol
_atom_site_fract_x
_atom_site_fract_y
_atom_site_fract_z
_atom_site_charge
Ag	Ag	0.16479 0.63298 0.15193 0.52700
Si	Si	0.55284 0.67456 0.12986 1.55700
Si	Si	0.02887 0.82370 0.42317 0.89800
N 	N 	0.29310 0.64050 0.13950 -0.13200
N 	N 	0.62160 0.79410 0.93520 -0.12500
N 	N 	0.13210 0.70430 0.24160 -0.15100
N 	N 	0.89690 0.02810 0.35710 -0.16300
C 	C 	0.32480 0.70450 0.14260 -0.10100
H 	H 	0.29280 0.74430 0.14730 0.04200
C 	C 	0.40040 0.71720 0.13950 0.19400
H 	H 	0.41880 0.76440 0.14270 -0.07400
C 	C 	0.44970 0.66070 0.13150 -0.52400
C 	C 	0.41670 0.59470 0.12380 0.18600
H 	H 	0.44650 0.55410 0.11510 -0.06800
C 	C 	0.33820 0.58820 0.12900 -0.08600
H 	H 	0.31720 0.54210 0.12440 0.03500
C 	C 	0.60160 0.58460 0.13260 -1.35800
H 	H 	0.58570 0.55600 0.09480 0.39000
H 	H 	0.58830 0.56010 0.17360 0.39900
H 	H 	0.65570 0.59160 0.13100 0.38700
C 	C 	0.58050 0.73620 0.19920 -1.78400
H 	H 	0.62460 0.76380 0.18480 0.50800
H 	H 	0.53930 0.77040 0.20630 0.51800
C 	C 	0.59650 0.70620 0.25660 1.71400
H 	H 	0.58380 0.73890 0.29250 -0.48800
H 	H 	0.64990 0.69520 0.25840 -0.49200
H 	H 	0.56770 0.66230 0.26150 -0.49200
C 	C 	0.57680 0.72090 0.04970 -0.52700
C 	C 	0.65270 0.72480 0.02930 0.16500
H 	H 	0.69140 0.70370 0.05460 -0.07200
C 	C 	0.66740 0.75940 0.97330 -0.09700
H 	H 	0.71790 0.75860 0.95940 0.04200
C 	C 	0.55010 0.79230 0.95520 -0.11400
H 	H 	0.51380 0.81700 0.92990 0.04600
C 	C 	0.52690 0.75550 0.01170 0.20900
H 	H 	0.47550 0.75490 0.02330 -0.06800
C 	C 	0.07450 0.75190 0.23330 -0.06500
H 	H 	0.05430 0.75920 0.19050 0.02600
C 	C 	0.04600 0.78860 0.28540 0.08900
H 	H 	0.00670 0.82130 0.27730 -0.03000
C 	C 	0.07120 0.78060 0.34890 -0.31000
C 	C 	0.13370 0.73520 0.35370 0.05000
H 	H 	0.15680 0.72790 0.39520 -0.02100
C 	C 	0.16180 0.70110 0.29810 -0.02900
H 	H 	0.20600 0.67380 0.30290 0.01900
C 	C 	0.10120 0.85010 0.48180 -0.54000
H 	H 	0.13300 0.80870 0.49250 0.15600
H 	H 	0.13310 0.88730 0.46200 0.15600
C 	C 	0.06310 0.87960 0.54710 -0.03100
H 	H 	0.10180 0.89430 0.57840 0.03100
H 	H 	0.03230 0.84230 0.56700 0.02100
H 	H 	0.03160 0.92050 0.53620 0.01600
C 	C 	0.96320 0.75950 0.46390 -0.50800
H 	H 	0.99360 0.72100 0.48340 0.15000
H 	H 	0.93870 0.78470 0.50090 0.15500
C 	C 	0.89900 0.72330 0.42060 -0.02600
H 	H 	0.87020 0.69050 0.44820 0.02900
H 	H 	0.92170 0.69700 0.38410 0.01300
H 	H 	0.86590 0.76010 0.40310 0.01800
C 	C 	0.97760 0.90620 0.39680 -0.29600
C 	C 	0.90030 0.90470 0.37910 0.04500
H 	H 	0.87340 0.86130 0.38010 -0.00800
C 	C 	0.86660 0.96440 0.36120 -0.03500
H 	H 	0.81520 0.96090 0.35020 0.01900
C 	C 	0.97040 0.03020 0.37110 -0.05900
H 	H 	0.99620 0.07400 0.36680 0.02000
C 	C 	0.01040 0.96970 0.39180 0.07600
H 	H 	0.06180 0.97420 0.40250 -0.02500
Ag	Ag	0.33521 0.36702 0.65193 0.52800
Si	Si	0.94716 0.32544 0.62986 1.55100
Si	Si	0.47113 0.17630 0.92317 0.90400
N 	N 	0.20690 0.35950 0.63950 -0.13200
N 	N 	0.87840 0.20590 0.43520 -0.12600
N 	N 	0.36790 0.29570 0.74160 -0.15100
N 	N 	0.60310 0.97190 0.85710 -0.16100
C 	C 	0.17520 0.29550 0.64260 -0.10000
H 	H 	0.20720 0.25570 0.64730 0.04100
C 	C 	0.09960 0.28280 0.63950 0.19200
H 	H 	0.08120 0.23560 0.64270 -0.07300
C 	C 	0.05030 0.33930 0.63150 -0.52100
C 	C 	0.08330 0.40530 0.62380 0.18500
H 	H 	0.05350 0.44590 0.61510 -0.06700
C 	C 	0.16180 0.41180 0.62900 -0.08500
H 	H 	0.18280 0.45790 0.62440 0.03500
C 	C 	0.89840 0.41540 0.63260 -1.35400
H 	H 	0.91430 0.44400 0.59480 0.38900
H 	H 	0.91170 0.43990 0.67360 0.39800
H 	H 	0.84430 0.40840 0.63100 0.38600
C 	C 	0.91950 0.26380 0.69920 -1.77700
H 	H 	0.87540 0.23620 0.68480 0.50600
H 	H 	0.96070 0.22960 0.70630 0.51600
C 	C 	0.90350 0.29380 0.75660 1.70700
H 	H 	0.91620 0.26110 0.79250 -0.48600
H 	H 	0.85010 0.30480 0.75840 -0.48900
H 	H 	0.93230 0.33770 0.76150 -0.49000
C 	C 	0.92320 0.27910 0.54970 -0.52400
C 	C 	0.84730 0.27520 0.52930 0.16300
H 	H 	0.80860 0.29630 0.55460 -0.07100
C 	C 	0.83260 0.24060 0.47330 -0.09600
H 	H 	0.78210 0.24140 0.45940 0.04200
C 	C 	0.94990 0.20770 0.45520 -0.11200
H 	H 	0.98620 0.18300 0.42990 0.04500
C 	C 	0.97310 0.24450 0.51170 0.20400
H 	H 	0.02450 0.24510 0.52330 -0.06500
C 	C 	0.42550 0.24810 0.73330 -0.06600
H 	H 	0.44570 0.24080 0.69050 0.02600
C 	C 	0.45400 0.21140 0.78540 0.09000
H 	H 	0.49330 0.17870 0.77730 -0.03000
C 	C 	0.42880 0.21940 0.84890 -0.31100
C 	C 	0.36630 0.26480 0.85370 0.05100
H 	H 	0.34320 0.27210 0.89520 -0.02100
C 	C 	0.33820 0.29890 0.79810 -0.03000
H 	H 	0.29400 0.32620 0.80290 0.01900
C 	C 	0.39880 0.14990 0.98180 -0.54100
H 	H 	0.36700 0.19130 0.99250 0.15700
H 	H 	0.36690 0.11270 0.96200 0.15700
C 	C 	0.43690 0.12040 0.04710 -0.03200
H 	H 	0.39820 0.10570 0.07840 0.03200
H 	H 	0.46770 0.15770 0.06700 0.02200
H 	H 	0.46840 0.07950 0.03620 0.01700
C 	C 	0.53680 0.24050 0.96390 -0.51000
H 	H 	0.50640 0.27900 0.98340 0.15000
H 	H 	0.56130 0.21530 0.00090 0.15500
C 	C 	0.60100 0.27670 0.92060 -0.02500
H 	H 	0.62980 0.30950 0.94820 0.02900
H 	H 	0.57830 0.30300 0.88410 0.01200
H 	H 	0.63410 0.23990 0.90310 0.01800
C 	C 	0.52240 0.09380 0.89680 -0.30300
C 	C 	0.59970 0.09530 0.87910 0.04900
H 	H 	0.62660 0.13870 0.88010 -0.00900
C 	C 	0.63340 0.03560 0.86120 -0.04000
H 	H 	0.68480 0.03910 0.85020 0.02000
C 	C 	0.52960 0.96980 0.87110 -0.06300
H 	H 	0.50380 0.92600 0.86680 0.02200
C 	C 	0.48960 0.03030 0.89180 0.08300
H 	H 	0.43820 0.02580 0.90250 -0.02700
Ag	Ag	0.83521 0.13298 0.34807 0.52800
Si	Si	0.44716 0.17456 0.37014 1.55800
Si	Si	0.97113 0.32370 0.07683 0.89500
N 	N 	0.70690 0.14050 0.36050 -0.13200
N 	N 	0.37840 0.29410 0.56480 -0.12500
N 	N 	0.86790 0.20430 0.25840 -0.15100
N 	N 	0.10310 0.52810 0.14290 -0.16200
C 	C 	0.67520 0.20450 0.35740 -0.10100
H 	H 	0.70720 0.24430 0.35270 0.04200
C 	C 	0.59960 0.21720 0.36050 0.19400
H 	H 	0.58120 0.26440 0.35730 -0.07400
C 	C 	0.55030 0.16070 0.36850 -0.52400
C 	C 	0.58330 0.09470 0.37620 0.18600
H 	H 	0.55350 0.05410 0.38490 -0.06800
C 	C 	0.66180 0.08820 0.37100 -0.08600
H 	H 	0.68280 0.04210 0.37560 0.03500
C 	C 	0.39840 0.08460 0.36740 -1.35900
H 	H 	0.41430 0.05600 0.40520 0.39100
H 	H 	0.41170 0.06010 0.32640 0.40000
H 	H 	0.34430 0.09160 0.36900 0.38800
C 	C 	0.41950 0.23620 0.30080 -1.78500
H 	H 	0.37540 0.26380 0.31520 0.50800
H 	H 	0.46070 0.27040 0.29370 0.51800
C 	C 	0.40350 0.20620 0.24340 1.71500
H 	H 	0.41620 0.23890 0.20750 -0.48900
H 	H 	0.35010 0.19520 0.24160 -0.49200
H 	H 	0.43230 0.16230 0.23850 -0.49200
C 	C 	0.42320 0.22090 0.45030 -0.52700
C 	C 	0.34730 0.22480 0.47070 0.16500
H 	H 	0.30860 0.20370 0.44540 -0.07200
C 	C 	0.33260 0.25940 0.52670 -0.09700
H 	H 	0.28210 0.25860 0.54060 0.04300
C 	C 	0.44990 0.29230 0.54480 -0.11400
H 	H 	0.48620 0.31700 0.57010 0.04600
C 	C 	0.47310 0.25550 0.48830 0.21000
H 	H 	0.52450 0.25490 0.47670 -0.06800
C 	C 	0.92550 0.25190 0.26670 -0.06600
H 	H 	0.94570 0.25920 0.30950 0.02600
C 	C 	0.95400 0.28860 0.21460 0.08800
H 	H 	0.99330 0.32130 0.22270 -0.03000
C 	C 	0.92880 0.28060 0.15110 -0.30900
C 	C 	0.86630 0.23520 0.14630 0.04900
H 	H 	0.84320 0.22790 0.10480 -0.02100
C 	C 	0.83820 0.20110 0.20190 -0.02900
H 	H 	0.79400 0.17380 0.19710 0.01900
C 	C 	0.89880 0.35010 0.01820 -0.54000
H 	H 	0.86700 0.30870 0.00750 0.15600
H 	H 	0.86690 0.38730 0.03800 0.15600
C 	C 	0.93690 0.37960 0.95290 -0.03100
H 	H 	0.89820 0.39430 0.92160 0.03100
H 	H 	0.96770 0.34230 0.93300 0.02200
H 	H 	0.96840 0.42050 0.96380 0.01700
C 	C 	0.03680 0.25950 0.03610 -0.50600
H 	H 	0.00640 0.22100 0.01660 0.15000
H 	H 	0.06130 0.28470 0.99910 0.15400
C 	C 	0.10100 0.22330 0.07940 -0.02700
H 	H 	0.12980 0.19050 0.05180 0.03000
H 	H 	0.07830 0.19700 0.11590 0.01300
H 	H 	0.13410 0.26010 0.09690 0.01900
C 	C 	0.02240 0.40620 0.10320 -0.29600
C 	C 	0.09970 0.40470 0.12090 0.04600
H 	H 	0.12660 0.36130 0.11990 -0.00800
C 	C 	0.13340 0.46440 0.13880 -0.03800
H 	H 	0.18480 0.46090 0.14980 0.01900
C 	C 	0.02960 0.53020 0.12890 -0.05700
H 	H 	0.00380 0.57400 0.13320 0.02000
C 	C 	0.98960 0.46970 0.10820 0.07500
H 	H 	0.93820 0.47420 0.09750 -0.02400
Ag	Ag	0.66479 0.86702 0.84807 0.52800
Si	Si	0.05284 0.82544 0.87014 1.54600
Si	Si	0.52887 0.67630 0.57683 0.90400
N 	N 	0.79310 0.85950 0.86050 -0.13200
N 	N 	0.12160 0.70590 0.06480 -0.12600
N 	N 	0.63210 0.79570 0.75840 -0.15100
N 	N 	0.39690 0.47190 0.64290 -0.16100
C 	C 	0.82480 0.79550 0.85740 -0.10000
H 	H 	0.79280 0.75570 0.85270 0.04100
C 	C 	0.90040 0.78280 0.86050 0.19100
H 	H 	0.91880 0.73560 0.85730 -0.07300
C 	C 	0.94970 0.83930 0.86850 -0.51800
C 	C 	0.91670 0.90530 0.87620 0.18400
H 	H 	0.94650 0.94590 0.88490 -0.06600
C 	C 	0.83820 0.91180 0.87100 -0.08500
H 	H 	0.81720 0.95790 0.87560 0.03500
C 	C 	0.10160 0.91540 0.86740 -1.35000
H 	H 	0.08570 0.94400 0.90520 0.38700
H 	H 	0.08830 0.93990 0.82640 0.39600
H 	H 	0.15570 0.90840 0.86900 0.38400
C 	C 	0.08050 0.76380 0.80080 -1.77300
H 	H 	0.12460 0.73620 0.81520 0.50500
H 	H 	0.03930 0.72960 0.79370 0.51500
C 	C 	0.09650 0.79380 0.74340 1.70300
H 	H 	0.08380 0.76110 0.70750 -0.48500
H 	H 	0.14990 0.80480 0.74160 -0.48800
H 	H 	0.06770 0.83770 0.73850 -0.48900
C 	C 	0.07680 0.77910 0.95030 -0.52200
C 	C 	0.15270 0.77520 0.97070 0.16100
H 	H 	0.19140 0.79630 0.94540 -0.07100
C 	C 	0.16740 0.74060 0.02670 -0.09400
H 	H 	0.21790 0.74140 0.04060 0.04100
C 	C 	0.05010 0.70770 0.04480 -0.11000
H 	H 	0.01380 0.68300 0.07010 0.04400
C 	C 	0.02690 0.74450 0.98830 0.20200
H 	H 	0.97550 0.74510 0.97670 -0.06400
C 	C 	0.57450 0.74810 0.76670 -0.06600
H 	H 	0.55430 0.74080 0.80950 0.02600
C 	C 	0.54600 0.71140 0.71460 0.09000
H 	H 	0.50670 0.67870 0.72270 -0.03100
C 	C 	0.57120 0.71940 0.65110 -0.31200
C 	C 	0.63370 0.76480 0.64630 0.05100
H 	H 	0.65680 0.77210 0.60480 -0.02100
C 	C 	0.66180 0.79890 0.70190 -0.03000
H 	H 	0.70600 0.82620 0.69710 0.01900
C 	C 	0.60120 0.64990 0.51820 -0.54200
H 	H 	0.63300 0.69130 0.50750 0.15700
H 	H 	0.63310 0.61270 0.53800 0.15700
C 	C 	0.56310 0.62040 0.45290 -0.03000
H 	H 	0.60180 0.60570 0.42160 0.03100
H 	H 	0.53230 0.65770 0.43300 0.02100
H 	H 	0.53160 0.57950 0.46380 0.01700
C 	C 	0.46320 0.74050 0.53610 -0.51200
H 	H 	0.49360 0.77900 0.51660 0.15000
H 	H 	0.43870 0.71530 0.49910 0.15600
C 	C 	0.39900 0.77670 0.57940 -0.02300
H 	H 	0.37020 0.80950 0.55180 0.02800
H 	H 	0.42170 0.80300 0.61590 0.01100
H 	H 	0.36590 0.73990 0.59690 0.01800
C 	C 	0.47760 0.59380 0.60320 -0.30300
C 	C 	0.40030 0.59530 0.62090 0.04900
H 	H 	0.37340 0.63870 0.61990 -0.01000
C 	C 	0.36660 0.53560 0.63880 -0.04100
H 	H 	0.31520 0.53910 0.64980 0.02000
C 	C 	0.47040 0.46980 0.62890 -0.06100
H 	H 	0.49620 0.42600 0.63320 0.02100
C 	C 	0.51040 0.53030 0.60820 0.08200
H 	H 	0.56180 0.52580 0.59750 -0.02700
Ag	Ag	0.65779 0.37394 0.15935 0.52600
Si	Si	0.95767 0.47640 0.36210 1.14000
Si	Si	0.35608 0.50131 0.35362 0.74800
N 	N 	0.55740 0.40580 0.23220 -0.14600
N 	N 	0.35820 0.75080 0.35370 -0.16100
N 	N 	0.75690 0.41320 0.22080 -0.14900
N 	N 	0.86780 0.58570 0.55420 -0.15500
C 	C 	0.80330 0.46550 0.20610 -0.05400
H 	H 	0.79810 0.48760 0.16430 0.01700
C 	C 	0.85890 0.49030 0.24760 0.10200
H 	H 	0.88620 0.53170 0.23580 -0.03600
C 	C 	0.87570 0.45480 0.30730 -0.38500
C 	C 	0.82870 0.40080 0.32120 0.12500
H 	H 	0.83550 0.37410 0.36050 -0.04300
C 	C 	0.77060 0.38370 0.27890 -0.05900
H 	H 	0.73750 0.34740 0.29290 0.02800
C 	C 	0.02010 0.54210 0.31700 -1.11100
H 	H 	0.06310 0.55380 0.34470 0.32000
H 	H 	0.99180 0.58540 0.30730 0.32100
H 	H 	0.03740 0.52080 0.27560 0.32000
C 	C 	0.00500 0.39580 0.38390 -0.68800
H 	H 	0.96760 0.36160 0.40080 0.19900
H 	H 	0.02690 0.37510 0.34340 0.19400
C 	C 	0.07130 0.40420 0.43910 0.06400
H 	H 	0.09570 0.35810 0.44590 -0.00500
H 	H 	0.04970 0.42050 0.48080 -0.01700
H 	H 	0.10810 0.43880 0.42370 -0.02000
C 	C 	0.91950 0.52020 0.43760 -0.37400
C 	C 	0.84280 0.51980 0.45610 0.06800
H 	H 	0.80610 0.49710 0.42970 -0.01600
C 	C 	0.82340 0.55550 0.51690 -0.03000
H 	H 	0.77230 0.55570 0.52920 0.01000
C 	C 	0.93910 0.58740 0.53730 -0.07400
H 	H 	0.97410 0.60720 0.56730 0.02700
C 	C 	0.96440 0.56160 0.47780 0.10400
H 	H 	0.01370 0.57250 0.46400 -0.04100
C 	C 	0.56620 0.43960 0.29170 -0.06900
H 	H 	0.61470 0.44370 0.31000 0.03700
C 	C 	0.50780 0.46710 0.32480 0.07500
H 	H 	0.51770 0.49000 0.36560 -0.01500
C 	C 	0.43580 0.46450 0.30400 -0.28600
C 	C 	0.42760 0.43230 0.24650 0.07400
H 	H 	0.37920 0.43100 0.22760 -0.01600
C 	C 	0.48500 0.40090 0.21270 -0.07100
H 	H 	0.47370 0.37460 0.17410 0.03800
C 	C 	0.36200 0.46360 0.43930 -0.42900
H 	H 	0.31080 0.46230 0.45750 0.12100
H 	H 	0.37910 0.41370 0.43550 0.12300
C 	C 	0.41380 0.50190 0.49200 -0.08800
H 	H 	0.46290 0.47890 0.49260 0.04100
H 	H 	0.39100 0.49830 0.53570 0.05200
H 	H 	0.41960 0.55200 0.48010 0.03700
C 	C 	0.26300 0.48430 0.30630 -0.29900
H 	H 	0.23910 0.52180 0.28320 0.09700
C 	C 	0.23000 0.41180 0.30690 -0.09600
H 	H 	0.18290 0.41210 0.28220 0.03600
H 	H 	0.22030 0.39720 0.35250 0.02700
H 	H 	0.26470 0.37830 0.28630 0.02800
C 	C 	0.36090 0.60160 0.35490 -0.23900
C 	C 	0.32300 0.64000 0.40420 0.01600
H 	H 	0.29680 0.61610 0.43840 -0.00300
C 	C 	0.32500 0.71280 0.40140 -0.01800
H 	H 	0.30100 0.73830 0.43590 0.01400
C 	C 	0.39510 0.71440 0.31060 -0.00100
H 	H 	0.42230 0.73950 0.27790 0.00900
C 	C 	0.39720 0.63930 0.30930 0.03600
H 	H 	0.42470 0.61560 0.27590 0.00900
Ag	Ag	0.84221 0.62606 0.65935 0.52600
Si	Si	0.54233 0.52360 0.86210 1.14500
Si	Si	0.14392 0.49869 0.85362 0.74800
N 	N 	0.94260 0.59420 0.73220 -0.14600
N 	N 	0.14180 0.24920 0.85370 -0.16100
N 	N 	0.74310 0.58680 0.72080 -0.14900
N 	N 	0.63220 0.41430 0.05420 -0.15400
C 	C 	0.69670 0.53450 0.70610 -0.05500
H 	H 	0.70190 0.51240 0.66430 0.01700
C 	C 	0.64110 0.50970 0.74760 0.10300
H 	H 	0.61380 0.46830 0.73580 -0.03600
C 	C 	0.62430 0.54520 0.80730 -0.38700
C 	C 	0.67130 0.59920 0.82120 0.12600
H 	H 	0.66450 0.62590 0.86050 -0.04300
C 	C 	0.72940 0.61630 0.77890 -0.06000
H 	H 	0.76250 0.65260 0.79290 0.02800
C 	C 	0.47990 0.45790 0.81700 -1.11500
H 	H 	0.43690 0.44620 0.84470 0.32100
H 	H 	0.50820 0.41460 0.80730 0.32200
H 	H 	0.46260 0.47920 0.77560 0.32100
C 	C 	0.49500 0.60420 0.88390 -0.69300
H 	H 	0.53240 0.63840 0.90080 0.20100
H 	H 	0.47310 0.62490 0.84340 0.19500
C 	C 	0.42870 0.59580 0.93910 0.06700
H 	H 	0.40430 0.64190 0.94590 -0.00700
H 	H 	0.45030 0.57950 0.98080 -0.01800
H 	H 	0.39190 0.56120 0.92370 -0.02100
C 	C 	0.58050 0.47980 0.93760 -0.37600
C 	C 	0.65720 0.48020 0.95610 0.07000
H 	H 	0.69390 0.50290 0.92970 -0.01700
C 	C 	0.67660 0.44450 0.01690 -0.03200
H 	H 	0.72770 0.44430 0.02920 0.01000
C 	C 	0.56090 0.41260 0.03730 -0.07500
H 	H 	0.52590 0.39280 0.06730 0.02700
C 	C 	0.53560 0.43840 0.97780 0.10600
H 	H 	0.48630 0.42750 0.96400 -0.04200
C 	C 	0.93380 0.56040 0.79170 -0.06900
H 	H 	0.88530 0.55630 0.81000 0.03700
C 	C 	0.99220 0.53290 0.82480 0.07600
H 	H 	0.98230 0.51000 0.86560 -0.01500
C 	C 	0.06420 0.53550 0.80400 -0.28700
C 	C 	0.07240 0.56770 0.74650 0.07500
H 	H 	0.12080 0.56900 0.72760 -0.01700
C 	C 	0.01500 0.59910 0.71270 -0.07100
H 	H 	0.02630 0.62540 0.67410 0.03900
C 	C 	0.13800 0.53640 0.93930 -0.42900
H 	H 	0.18920 0.53770 0.95750 0.12100
H 	H 	0.12090 0.58630 0.93550 0.12300
C 	C 	0.08620 0.49810 0.99200 -0.09000
H 	H 	0.03710 0.52110 0.99260 0.04200
H 	H 	0.10900 0.50170 0.03570 0.05300
H 	H 	0.08040 0.44800 0.98010 0.03800
C 	C 	0.23700 0.51570 0.80630 -0.29900
H 	H 	0.26090 0.47820 0.78320 0.09700
C 	C 	0.27000 0.58820 0.80690 -0.09500
H 	H 	0.31710 0.58790 0.78220 0.03500
H 	H 	0.27970 0.60280 0.85250 0.02700
H 	H 	0.23530 0.62170 0.78630 0.02800
C 	C 	0.13910 0.39840 0.85490 -0.23900
C 	C 	0.17700 0.36000 0.90420 0.01600
H 	H 	0.20320 0.38390 0.93840 -0.00300
C 	C 	0.17500 0.28720 0.90140 -0.01800
H 	H 	0.19900 0.26170 0.93590 0.01400
C 	C 	0.10490 0.28560 0.81060 -0.00100
H 	H 	0.07770 0.26050 0.77790 0.01000
C 	C 	0.10280 0.36070 0.80930 0.03600
H 	H 	0.07530 0.38440 0.77590 0.00900
Ag	Ag	0.34221 0.87394 0.34065 0.52600
Si	Si	0.04233 0.97640 0.13790 1.14300
Si	Si	0.64392 0.00131 0.14638 0.74300
N 	N 	0.44260 0.90580 0.26780 -0.14700
N 	N 	0.64180 0.25080 0.14630 -0.16100
N 	N 	0.24310 0.91320 0.27920 -0.15000
N 	N 	0.13220 0.08570 0.94580 -0.15300
C 	C 	0.19670 0.96550 0.29390 -0.05200
H 	H 	0.20190 0.98760 0.33570 0.01600
C 	C 	0.14110 0.99030 0.25240 0.09700
H 	H 	0.11380 0.03170 0.26420 -0.03200
C 	C 	0.12430 0.95480 0.19270 -0.38400
C 	C 	0.17130 0.90080 0.17880 0.12400
H 	H 	0.16450 0.87410 0.13950 -0.04300
C 	C 	0.22940 0.88370 0.22110 -0.05900
H 	H 	0.26250 0.84740 0.20710 0.02800
C 	C 	0.97990 0.04210 0.18300 -1.12400
H 	H 	0.93690 0.05380 0.15530 0.32300
H 	H 	0.00820 0.08540 0.19270 0.32700
H 	H 	0.96260 0.02080 0.22440 0.32300
C 	C 	0.99500 0.89580 0.11610 -0.68800
H 	H 	0.03240 0.86160 0.09920 0.19900
H 	H 	0.97310 0.87510 0.15660 0.19400
C 	C 	0.92870 0.90420 0.06090 0.06500
H 	H 	0.90430 0.85810 0.05410 -0.00600
H 	H 	0.95030 0.92050 0.01920 -0.01700
H 	H 	0.89190 0.93880 0.07630 -0.02000
C 	C 	0.08050 0.02020 0.06240 -0.37600
C 	C 	0.15720 0.01980 0.04390 0.07300
H 	H 	0.19390 0.99710 0.07030 -0.01900
C 	C 	0.17660 0.05550 0.98310 -0.03200
H 	H 	0.22770 0.05570 0.97080 0.01100
C 	C 	0.06090 0.08740 0.96270 -0.07700
H 	H 	0.02590 0.10720 0.93270 0.02900
C 	C 	0.03560 0.06160 0.02220 0.11300
H 	H 	0.98630 0.07250 0.03600 -0.04700
C 	C 	0.43380 0.93960 0.20830 -0.06800
H 	H 	0.38530 0.94370 0.19000 0.03700
C 	C 	0.49220 0.96710 0.17520 0.07300
H 	H 	0.48230 0.99000 0.13440 -0.01400
C 	C 	0.56420 0.96450 0.19600 -0.28400
C 	C 	0.57240 0.93230 0.25350 0.07300
H 	H 	0.62080 0.93100 0.27240 -0.01600
C 	C 	0.51500 0.90090 0.28730 -0.07000
H 	H 	0.52630 0.87460 0.32590 0.03800
C 	C 	0.63800 0.96360 0.06070 -0.42500
H 	H 	0.68920 0.96230 0.04250 0.12000
H 	H 	0.62090 0.91370 0.06450 0.12200
C 	C 	0.58620 0.00190 0.00800 -0.09400
H 	H 	0.53710 0.97890 0.00740 0.04300
H 	H 	0.60900 0.99830 0.96430 0.05400
H 	H 	0.58040 0.05200 0.01990 0.03900
C 	C 	0.73700 0.98430 0.19370 -0.29400
H 	H 	0.76090 0.02180 0.21680 0.09500
C 	C 	0.77000 0.91180 0.19310 -0.10000
H 	H 	0.81710 0.91210 0.21780 0.03700
H 	H 	0.77970 0.89720 0.14750 0.02800
H 	H 	0.73530 0.87830 0.21370 0.02900
C 	C 	0.63910 0.10160 0.14510 -0.23800
C 	C 	0.67700 0.14000 0.09580 0.01500
H 	H 	0.70320 0.11610 0.06160 -0.00300
C 	C 	0.67500 0.21280 0.09860 -0.01800
H 	H 	0.69900 0.23830 0.06410 0.01400
C 	C 	0.60490 0.21440 0.18940 -0.00100
H 	H 	0.57770 0.23950 0.22210 0.00900
C 	C 	0.60280 0.13930 0.19070 0.03500
H 	H 	0.57530 0.11560 0.22410 0.01000
Ag	Ag	0.15779 0.12606 0.84065 0.52600
Si	Si	0.45767 0.02360 0.63790 1.14900
Si	Si	0.85608 0.99869 0.64638 0.76100
N 	N 	0.05740 0.09420 0.76780 -0.14400
N 	N 	0.85820 0.74920 0.64630 -0.16000
N 	N 	0.25690 0.08680 0.77920 -0.14800
N 	N 	0.36780 0.91430 0.44580 -0.15500
C 	C 	0.30330 0.03450 0.79390 -0.05700
H 	H 	0.29810 0.01240 0.83570 0.01900
C 	C 	0.35890 0.00970 0.75240 0.10700
H 	H 	0.38620 0.96830 0.76420 -0.03900
C 	C 	0.37570 0.04520 0.69270 -0.38900
C 	C 	0.32870 0.09920 0.67880 0.12700
H 	H 	0.33550 0.12590 0.63950 -0.04400
C 	C 	0.27060 0.11630 0.72110 -0.06000
H 	H 	0.23750 0.15260 0.70710 0.02800
C 	C 	0.52010 0.95790 0.68300 -1.11800
H 	H 	0.56310 0.94620 0.65530 0.32200
H 	H 	0.49180 0.91460 0.69270 0.32300
H 	H 	0.53740 0.97920 0.72440 0.32100
C 	C 	0.50500 0.10420 0.61610 -0.69500
H 	H 	0.46760 0.13840 0.59920 0.20200
H 	H 	0.52690 0.12490 0.65660 0.19600
C 	C 	0.57130 0.09580 0.56090 0.06900
H 	H 	0.59570 0.14190 0.55410 -0.00700
H 	H 	0.54970 0.07950 0.51920 -0.01800
H 	H 	0.60810 0.06120 0.57630 -0.02100
C 	C 	0.41950 0.97980 0.56240 -0.37600
C 	C 	0.34280 0.98020 0.54390 0.06600
H 	H 	0.30610 0.00290 0.57030 -0.01400
C 	C 	0.32340 0.94450 0.48310 -0.03000
H 	H 	0.27230 0.94430 0.47080 0.00900
C 	C 	0.43910 0.91260 0.46270 -0.07400
H 	H 	0.47410 0.89280 0.43270 0.02700
C 	C 	0.46440 0.93840 0.52220 0.10600
H 	H 	0.51370 0.92750 0.53600 -0.04200
C 	C 	0.06620 0.06040 0.70830 -0.07300
H 	H 	0.11470 0.05630 0.69000 0.03900
C 	C 	0.00780 0.03290 0.67520 0.08500
H 	H 	0.01770 0.01000 0.63440 -0.01700
C 	C 	0.93580 0.03550 0.69600 -0.29700
C 	C 	0.92760 0.06770 0.75350 0.08200
H 	H 	0.87920 0.06900 0.77240 -0.01900
C 	C 	0.98500 0.09910 0.78730 -0.07700
H 	H 	0.97370 0.12540 0.82590 0.04000
C 	C 	0.86200 0.03640 0.56070 -0.44400
H 	H 	0.81080 0.03770 0.54250 0.12500
H 	H 	0.87910 0.08630 0.56450 0.12700
C 	C 	0.91380 0.99810 0.50800 -0.06600
H 	H 	0.96290 0.02110 0.50740 0.03400
H 	H 	0.89100 0.00170 0.46430 0.04400
H 	H 	0.91960 0.94800 0.51990 0.03100
C 	C 	0.76300 0.01570 0.69370 -0.30500
H 	H 	0.73910 0.97820 0.71680 0.10000
C 	C 	0.73000 0.08820 0.69310 -0.09000
H 	H 	0.68290 0.08790 0.71780 0.03400
H 	H 	0.72030 0.10280 0.64750 0.02500
H 	H 	0.76470 0.12170 0.71370 0.02600
C 	C 	0.86090 0.89840 0.64510 -0.24300
C 	C 	0.82300 0.86000 0.59580 0.01900
H 	H 	0.79680 0.88390 0.56160 -0.00400
C 	C 	0.82500 0.78720 0.59860 -0.01900
H 	H 	0.80100 0.76170 0.56410 0.01400
C 	C 	0.89510 0.78560 0.68940 -0.00200
H 	H 	0.92230 0.76050 0.72210 0.01000
C 	C 	0.89720 0.86070 0.69070 0.03800
H 	H 	0.92470 0.88440 0.72410 0.00900
