data_crystal

_cell_length_a 18.19350
_cell_length_b 18.57590
_cell_length_c 20.20440
_cell_angle_alpha 90.00000
_cell_angle_beta  90.00000
_cell_angle_gamma 90.00000

_symmetry_space_group_name_	'P 1'
_symmetry_space_group_name_H-M	'P 1'

loop_
_symmetry_equiv_pos_as_xyz
  x,y,z

loop_
_atom_site_label
_atom_site_type_symbol
_atom_site_fract_x
_atom_site_fract_y
_atom_site_fract_z
_atom_site_charge
Ag	Ag	0.33750 0.35848 0.65273 0.53200
Si	Si	0.95402 0.32993 0.63028 0.94000
Si	Si	0.47450 0.17280 0.92781 1.02100
N 	N 	0.21080 0.35370 0.64010 -0.15000
N 	N 	0.88350 0.21970 0.43060 -0.14300
N 	N 	0.37400 0.29190 0.74440 -0.13700
N 	N 	0.60230 0.96450 0.86020 -0.14900
C 	C 	0.83620 0.25580 0.46870 -0.05400
H 	H 	0.78650 0.25970 0.45460 0.02900
C 	C 	0.85640 0.28800 0.52830 0.08300
H 	H 	0.82010 0.30990 0.55540 -0.02900
C 	C 	0.92780 0.28820 0.54750 -0.33300
C 	C 	0.97590 0.25410 0.50910 0.08900
H 	H 	0.02610 0.25200 0.52210 -0.02300
C 	C 	0.95400 0.22120 0.44970 -0.05800
H 	H 	0.99020 0.19950 0.42240 0.02500
C 	C 	0.92020 0.27070 0.69910 -0.48600
H 	H 	0.88580 0.23320 0.68300 0.14600
H 	H 	0.96100 0.24790 0.72370 0.15000
C 	C 	0.87840 0.33220 0.74300 -0.13600
H 	H 	0.83080 0.31220 0.75810 0.05700
H 	H 	0.90840 0.34170 0.78300 0.05700
C 	C 	0.86490 0.39730 0.71210 0.17500
H 	H 	0.87660 0.43610 0.74400 -0.03300
H 	H 	0.81150 0.40010 0.70290 -0.03600
C 	C 	0.90480 0.41310 0.64930 -0.64800
H 	H 	0.93950 0.45360 0.65530 0.19400
H 	H 	0.86980 0.42540 0.61340 0.19000
C 	C 	0.05650 0.33890 0.63340 -0.31800
C 	C 	0.10320 0.28150 0.63840 0.08200
H 	H 	0.08340 0.23410 0.63830 -0.02300
C 	C 	0.17820 0.29040 0.64380 -0.04300
H 	H 	0.20790 0.24900 0.65050 0.02200
C 	C 	0.16600 0.41110 0.63180 -0.04600
H 	H 	0.18800 0.45730 0.62900 0.02300
C 	C 	0.09350 0.40700 0.62730 0.06700
H 	H 	0.06560 0.44950 0.62000 -0.02300
C 	C 	0.42980 0.24680 0.73860 -0.10100
H 	H 	0.45310 0.24030 0.69700 0.03900
C 	C 	0.45470 0.20820 0.79500 0.19500
H 	H 	0.49090 0.17210 0.78830 -0.05900
C 	C 	0.43290 0.21810 0.85150 -0.40200
C 	C 	0.37710 0.26660 0.85860 0.11500
H 	H 	0.35730 0.27750 0.90090 -0.04400
C 	C 	0.35040 0.29880 0.80260 -0.05500
H 	H 	0.30950 0.33000 0.80830 0.03300
C 	C 	0.40470 0.14740 0.99220 -0.70200
H 	H 	0.36610 0.18480 0.99490 0.20000
H 	H 	0.38100 0.10120 0.98010 0.20200
C 	C 	0.44140 0.14040 0.05540 0.25100
H 	H 	0.40530 0.12780 0.08950 -0.06000
H 	H 	0.46490 0.18620 0.06690 -0.07400
H 	H 	0.47880 0.10260 0.05260 -0.07300
C 	C 	0.54020 0.23760 0.96540 -0.68000
H 	H 	0.51040 0.27010 0.99350 0.19600
H 	H 	0.57120 0.20910 0.99600 0.19900
C 	C 	0.59080 0.28420 0.92810 0.23800
H 	H 	0.61820 0.31470 0.95900 -0.05000
H 	H 	0.56260 0.31460 0.89760 -0.06800
H 	H 	0.62520 0.25430 0.90280 -0.06100
C 	C 	0.52370 0.09000 0.89990 -0.36100
C 	C 	0.59810 0.08760 0.88430 0.09700
H 	H 	0.62570 0.13090 0.88680 -0.02500
C 	C 	0.63240 0.02780 0.86600 -0.06000
H 	H 	0.68340 0.03150 0.85630 0.02600
C 	C 	0.53180 0.96330 0.87350 -0.05900
H 	H 	0.50660 0.91860 0.87030 0.02100
C 	C 	0.49070 0.02600 0.89270 0.10400
H 	H 	0.43930 0.02190 0.90030 -0.03800
Ag	Ag	0.16250 0.64152 0.15273 0.53300
Si	Si	0.54598 0.67007 0.13028 0.94500
Si	Si	0.02550 0.82720 0.42781 1.01000
N 	N 	0.28920 0.64630 0.14010 -0.14900
N 	N 	0.61650 0.78030 0.93060 -0.14200
N 	N 	0.12600 0.70810 0.24440 -0.13700
N 	N 	0.89770 0.03550 0.36020 -0.15200
C 	C 	0.66380 0.74420 0.96870 -0.05200
H 	H 	0.71350 0.74030 0.95460 0.03000
C 	C 	0.64360 0.71200 0.02830 0.08400
H 	H 	0.67990 0.69010 0.05540 -0.02900
C 	C 	0.57220 0.71180 0.04750 -0.33400
C 	C 	0.52410 0.74590 0.00910 0.09400
H 	H 	0.47390 0.74800 0.02210 -0.02600
C 	C 	0.54600 0.77880 0.94970 -0.05800
H 	H 	0.50980 0.80050 0.92240 0.02800
C 	C 	0.57980 0.72930 0.19910 -0.48600
H 	H 	0.61420 0.76680 0.18300 0.14600
H 	H 	0.53900 0.75210 0.22370 0.15100
C 	C 	0.62160 0.66780 0.24300 -0.13700
H 	H 	0.66920 0.68780 0.25810 0.05700
H 	H 	0.59160 0.65830 0.28300 0.05700
C 	C 	0.63510 0.60270 0.21210 0.17600
H 	H 	0.62340 0.56390 0.24400 -0.03300
H 	H 	0.68850 0.59990 0.20290 -0.03700
C 	C 	0.59520 0.58690 0.14930 -0.65000
H 	H 	0.56050 0.54640 0.15530 0.19400
H 	H 	0.63020 0.57460 0.11340 0.19000
C 	C 	0.44350 0.66110 0.13340 -0.32100
C 	C 	0.39680 0.71850 0.13840 0.08400
H 	H 	0.41660 0.76590 0.13830 -0.02400
C 	C 	0.32180 0.70960 0.14380 -0.04400
H 	H 	0.29210 0.75100 0.15050 0.02200
C 	C 	0.33400 0.58890 0.13180 -0.04700
H 	H 	0.31200 0.54270 0.12900 0.02300
C 	C 	0.40650 0.59300 0.12730 0.06900
H 	H 	0.43440 0.55050 0.12000 -0.02300
C 	C 	0.07020 0.75320 0.23860 -0.10000
H 	H 	0.04690 0.75970 0.19700 0.03800
C 	C 	0.04530 0.79180 0.29500 0.19100
H 	H 	0.00910 0.82790 0.28830 -0.05900
C 	C 	0.06710 0.78190 0.35150 -0.39800
C 	C 	0.12290 0.73340 0.35860 0.11200
H 	H 	0.14270 0.72250 0.40090 -0.04200
C 	C 	0.14960 0.70120 0.30260 -0.05300
H 	H 	0.19050 0.67000 0.30830 0.03200
C 	C 	0.09530 0.85260 0.49220 -0.69400
H 	H 	0.13390 0.81520 0.49490 0.19800
H 	H 	0.11900 0.89880 0.48010 0.20000
C 	C 	0.05860 0.85960 0.55540 0.24300
H 	H 	0.09470 0.87220 0.58950 -0.05800
H 	H 	0.03510 0.81380 0.56690 -0.07300
H 	H 	0.02120 0.89740 0.55260 -0.07200
C 	C 	0.95980 0.76240 0.46540 -0.67100
H 	H 	0.98960 0.72990 0.49350 0.19400
H 	H 	0.92880 0.79090 0.49600 0.19700
C 	C 	0.90920 0.71580 0.42810 0.23000
H 	H 	0.88180 0.68530 0.45900 -0.04700
H 	H 	0.93740 0.68540 0.39760 -0.06500
H 	H 	0.87480 0.74570 0.40280 -0.05800
C 	C 	0.97630 0.91000 0.39990 -0.35000
C 	C 	0.90190 0.91240 0.38430 0.08900
H 	H 	0.87430 0.86910 0.38680 -0.02200
C 	C 	0.86760 0.97220 0.36600 -0.04900
H 	H 	0.81660 0.96850 0.35630 0.02400
C 	C 	0.96820 0.03670 0.37350 -0.06000
H 	H 	0.99340 0.08140 0.37030 0.02000
C 	C 	0.00930 0.97400 0.39270 0.09800
H 	H 	0.06070 0.97810 0.40030 -0.03600
Ag	Ag	0.66250 0.85848 0.84727 0.53400
Si	Si	0.04598 0.82993 0.86972 0.94000
Si	Si	0.52550 0.67280 0.57219 1.02200
N 	N 	0.78920 0.85370 0.85990 -0.14900
N 	N 	0.11650 0.71970 0.06940 -0.14200
N 	N 	0.62600 0.79190 0.75560 -0.13600
N 	N 	0.39770 0.46450 0.63980 -0.14900
C 	C 	0.16380 0.75580 0.03130 -0.05400
H 	H 	0.21350 0.75970 0.04540 0.03000
C 	C 	0.14360 0.78800 0.97170 0.08500
H 	H 	0.17990 0.80990 0.94460 -0.02900
C 	C 	0.07220 0.78820 0.95250 -0.33200
C 	C 	0.02410 0.75410 0.99090 0.09100
H 	H 	0.97390 0.75200 0.97790 -0.02300
C 	C 	0.04600 0.72120 0.05030 -0.05800
H 	H 	0.00980 0.69950 0.07760 0.02700
C 	C 	0.07980 0.77070 0.80090 -0.48500
H 	H 	0.11420 0.73320 0.81700 0.14600
H 	H 	0.03900 0.74790 0.77630 0.15000
C 	C 	0.12160 0.83220 0.75700 -0.13700
H 	H 	0.16920 0.81220 0.74190 0.05700
H 	H 	0.09160 0.84170 0.71700 0.05700
C 	C 	0.13510 0.89730 0.78790 0.17500
H 	H 	0.12340 0.93610 0.75600 -0.03300
H 	H 	0.18850 0.90010 0.79710 -0.03600
C 	C 	0.09520 0.91310 0.85070 -0.64800
H 	H 	0.06050 0.95360 0.84470 0.19300
H 	H 	0.13020 0.92540 0.88660 0.19000
C 	C 	0.94350 0.83890 0.86660 -0.31700
C 	C 	0.89680 0.78150 0.86160 0.08200
H 	H 	0.91660 0.73410 0.86170 -0.02300
C 	C 	0.82180 0.79040 0.85620 -0.04300
H 	H 	0.79210 0.74900 0.84950 0.02200
C 	C 	0.83400 0.91110 0.86820 -0.04500
H 	H 	0.81200 0.95730 0.87100 0.02400
C 	C 	0.90650 0.90700 0.87270 0.06700
H 	H 	0.93440 0.94950 0.88000 -0.02100
C 	C 	0.57020 0.74680 0.76140 -0.10100
H 	H 	0.54690 0.74030 0.80300 0.03800
C 	C 	0.54530 0.70820 0.70500 0.19500
H 	H 	0.50910 0.67210 0.71170 -0.05900
C 	C 	0.56710 0.71810 0.64850 -0.40200
C 	C 	0.62290 0.76660 0.64140 0.11500
H 	H 	0.64270 0.77750 0.59910 -0.04300
C 	C 	0.64960 0.79880 0.69740 -0.05500
H 	H 	0.69050 0.83000 0.69170 0.03300
C 	C 	0.59530 0.64740 0.50780 -0.70000
H 	H 	0.63390 0.68480 0.50510 0.20000
H 	H 	0.61900 0.60120 0.51990 0.20200
C 	C 	0.55860 0.64040 0.44460 0.24800
H 	H 	0.59470 0.62780 0.41050 -0.06000
H 	H 	0.53510 0.68620 0.43310 -0.07400
H 	H 	0.52120 0.60260 0.44740 -0.07300
C 	C 	0.45980 0.73760 0.53460 -0.68000
H 	H 	0.48960 0.77010 0.50650 0.19600
H 	H 	0.42880 0.70910 0.50400 0.19900
C 	C 	0.40920 0.78420 0.57190 0.23800
H 	H 	0.38180 0.81470 0.54100 -0.05000
H 	H 	0.43740 0.81460 0.60240 -0.06800
H 	H 	0.37480 0.75430 0.59720 -0.06100
C 	C 	0.47630 0.59000 0.60010 -0.36200
C 	C 	0.40190 0.58760 0.61570 0.09600
H 	H 	0.37430 0.63090 0.61320 -0.02500
C 	C 	0.36760 0.52780 0.63400 -0.05800
H 	H 	0.31660 0.53150 0.64370 0.02600
C 	C 	0.46820 0.46330 0.62650 -0.06200
H 	H 	0.49340 0.41860 0.62970 0.02100
C 	C 	0.50930 0.52600 0.60730 0.10600
H 	H 	0.56070 0.52190 0.59970 -0.03900
Ag	Ag	0.83750 0.14152 0.34727 0.53300
Si	Si	0.45402 0.17007 0.36972 0.94600
Si	Si	0.97450 0.32720 0.07219 1.01200
N 	N 	0.71080 0.14630 0.35990 -0.14900
N 	N 	0.38350 0.28030 0.56940 -0.14200
N 	N 	0.87400 0.20810 0.25560 -0.13700
N 	N 	0.10230 0.53550 0.13980 -0.15000
C 	C 	0.33620 0.24420 0.53130 -0.05400
H 	H 	0.28650 0.24030 0.54540 0.03000
C 	C 	0.35640 0.21200 0.47170 0.08600
H 	H 	0.32010 0.19010 0.44460 -0.02900
C 	C 	0.42780 0.21180 0.45250 -0.33500
C 	C 	0.47590 0.24590 0.49090 0.09600
H 	H 	0.52610 0.24800 0.47790 -0.02600
C 	C 	0.45400 0.27880 0.55030 -0.06000
H 	H 	0.49020 0.30050 0.57760 0.02800
C 	C 	0.42020 0.22930 0.30090 -0.48700
H 	H 	0.38580 0.26680 0.31700 0.14700
H 	H 	0.46100 0.25210 0.27630 0.15100
C 	C 	0.37840 0.16780 0.25700 -0.13600
H 	H 	0.33080 0.18780 0.24190 0.05700
H 	H 	0.40840 0.15830 0.21700 0.05700
C 	C 	0.36490 0.10270 0.28790 0.17600
H 	H 	0.37660 0.06390 0.25600 -0.03300
H 	H 	0.31150 0.09990 0.29710 -0.03600
C 	C 	0.40480 0.08690 0.35070 -0.65000
H 	H 	0.43950 0.04640 0.34470 0.19500
H 	H 	0.36980 0.07460 0.38660 0.19100
C 	C 	0.55650 0.16110 0.36660 -0.32100
C 	C 	0.60320 0.21850 0.36160 0.08400
H 	H 	0.58340 0.26590 0.36170 -0.02400
C 	C 	0.67820 0.20960 0.35620 -0.04400
H 	H 	0.70790 0.25100 0.34950 0.02200
C 	C 	0.66600 0.08890 0.36820 -0.04700
H 	H 	0.68800 0.04270 0.37100 0.02300
C 	C 	0.59350 0.09300 0.37270 0.06900
H 	H 	0.56560 0.05050 0.38000 -0.02300
C 	C 	0.92980 0.25320 0.26140 -0.10000
H 	H 	0.95310 0.25970 0.30300 0.03800
C 	C 	0.95470 0.29180 0.20500 0.19200
H 	H 	0.99090 0.32790 0.21170 -0.05900
C 	C 	0.93290 0.28190 0.14850 -0.39900
C 	C 	0.87710 0.23340 0.14140 0.11200
H 	H 	0.85730 0.22250 0.09910 -0.04300
C 	C 	0.85040 0.20120 0.19740 -0.05300
H 	H 	0.80950 0.17000 0.19170 0.03200
C 	C 	0.90470 0.35260 0.00780 -0.69500
H 	H 	0.86610 0.31520 0.00510 0.19800
H 	H 	0.88100 0.39880 0.01990 0.20000
C 	C 	0.94140 0.35960 0.94460 0.24400
H 	H 	0.90530 0.37220 0.91050 -0.05800
H 	H 	0.96490 0.31380 0.93310 -0.07300
H 	H 	0.97880 0.39740 0.94740 -0.07200
C 	C 	0.04020 0.26240 0.03460 -0.67200
H 	H 	0.01040 0.22990 0.00650 0.19400
H 	H 	0.07120 0.29090 0.00400 0.19700
C 	C 	0.09080 0.21580 0.07190 0.22900
H 	H 	0.11820 0.18530 0.04100 -0.04700
H 	H 	0.06260 0.18540 0.10240 -0.06400
H 	H 	0.12520 0.24570 0.09720 -0.05800
C 	C 	0.02370 0.41000 0.10010 -0.35400
C 	C 	0.09810 0.41240 0.11570 0.09200
H 	H 	0.12570 0.36910 0.11320 -0.02300
C 	C 	0.13240 0.47220 0.13400 -0.05500
H 	H 	0.18340 0.46850 0.14370 0.02500
C 	C 	0.03180 0.53670 0.12650 -0.05800
H 	H 	0.00660 0.58140 0.12970 0.02000
C 	C 	0.99070 0.47400 0.10730 0.10000
H 	H 	0.93930 0.47810 0.09970 -0.03700
Ag	Ag	0.84052 0.63000 0.65805 0.53100
Si	Si	0.55030 0.50730 0.85450 1.18200
Si	Si	0.13380 0.50710 0.86095 0.82400
N 	N 	0.74020 0.58860 0.71570 -0.13700
N 	N 	0.63160 0.41840 0.05550 -0.13900
N 	N 	0.93870 0.59870 0.73160 -0.15200
N 	N 	0.14780 0.25210 0.85160 -0.15500
C 	C 	0.70320 0.52980 0.69650 -0.06500
H 	H 	0.71390 0.50870 0.65470 0.02600
C 	C 	0.64940 0.49910 0.73650 0.11100
H 	H 	0.62510 0.45610 0.72350 -0.04100
C 	C 	0.63130 0.53390 0.79840 -0.41500
C 	C 	0.67450 0.58500 0.81520 0.18600
H 	H 	0.67060 0.60360 0.85890 -0.06400
C 	C 	0.72520 0.61390 0.77480 -0.09600
H 	H 	0.75150 0.65490 0.78980 0.04200
C 	C 	0.48420 0.45370 0.81960 -1.15900
H 	H 	0.49680 0.44720 0.77230 0.32800
H 	H 	0.48720 0.40570 0.84080 0.33400
C 	C 	0.41610 0.47510 0.82300 0.62300
H 	H 	0.39310 0.46040 0.86510 -0.17700
H 	H 	0.38690 0.45550 0.78560 -0.18000
C 	C 	0.42340 0.56530 0.81800 -0.18400
H 	H 	0.43900 0.57960 0.77260 0.06600
H 	H 	0.37550 0.58820 0.82730 0.06800
C 	C 	0.47990 0.58830 0.86770 -0.45500
H 	H 	0.45980 0.58950 0.91320 0.13500
H 	H 	0.50200 0.63550 0.85660 0.13400
C 	C 	0.58810 0.46730 0.93130 -0.44500
C 	C 	0.65760 0.47320 0.95330 0.16600
H 	H 	0.69170 0.50060 0.92810 -0.05000
C 	C 	0.68170 0.44060 0.01190 -0.09000
H 	H 	0.73270 0.43440 0.02030 0.03200
C 	C 	0.56330 0.42070 0.03650 -0.07300
H 	H 	0.52740 0.40540 0.06750 0.02600
C 	C 	0.53820 0.44340 0.97550 0.13600
H 	H 	0.48740 0.44210 0.96500 -0.05000
C 	C 	0.00730 0.60300 0.71130 -0.04000
H 	H 	0.01760 0.62670 0.67070 0.01900
C 	C 	0.06540 0.57380 0.74770 0.05400
H 	H 	0.11330 0.57590 0.72920 -0.01200
C 	C 	0.05700 0.54200 0.80920 -0.28200
C 	C 	0.98380 0.53960 0.82950 0.04400
H 	H 	0.97090 0.51730 0.87020 -0.01000
C 	C 	0.93030 0.56980 0.78990 -0.02400
H 	H 	0.88170 0.56950 0.80720 0.02400
C 	C 	0.12330 0.54020 0.95000 -0.47900
H 	H 	0.08060 0.57280 0.95490 0.14800
H 	H 	0.11860 0.49970 0.98150 0.14800
C 	C 	0.19600 0.58060 0.95920 -0.02600
H 	H 	0.19950 0.59910 0.00450 0.01800
H 	H 	0.19880 0.62090 0.92790 0.01800
H 	H 	0.23740 0.54760 0.95090 0.00500
C 	C 	0.22510 0.54440 0.83260 -0.45000
H 	H 	0.26090 0.54230 0.86950 0.13600
H 	H 	0.24440 0.51470 0.79580 0.13200
C 	C 	0.21600 0.62900 0.80800 -0.10500
H 	H 	0.26450 0.65050 0.80200 0.04300
H 	H 	0.18790 0.65600 0.84060 0.03300
H 	H 	0.18960 0.62970 0.76520 0.04000
C 	C 	0.13680 0.40420 0.85760 -0.27500
C 	C 	0.17830 0.36560 0.90270 0.05200
H 	H 	0.20390 0.39020 0.93690 -0.01700
C 	C 	0.18250 0.29540 0.89850 -0.04700
H 	H 	0.21210 0.27170 0.93060 0.02200
C 	C 	0.10730 0.28990 0.81100 -0.02800
H 	H 	0.08250 0.26490 0.77660 0.01900
C 	C 	0.09820 0.36180 0.81420 0.05700
H 	H 	0.06380 0.38390 0.78540 -0.00800
Ag	Ag	0.65948 0.37000 0.15805 0.53100
Si	Si	0.94970 0.49270 0.35450 1.17800
Si	Si	0.36620 0.49290 0.36095 0.82300
N 	N 	0.75980 0.41140 0.21570 -0.13700
N 	N 	0.86840 0.58160 0.55550 -0.14000
N 	N 	0.56130 0.40130 0.23160 -0.15200
N 	N 	0.35220 0.74790 0.35160 -0.15600
C 	C 	0.79680 0.47020 0.19650 -0.06500
H 	H 	0.78610 0.49130 0.15470 0.02600
C 	C 	0.85060 0.50090 0.23650 0.11100
H 	H 	0.87490 0.54390 0.22350 -0.04100
C 	C 	0.86870 0.46610 0.29840 -0.41300
C 	C 	0.82550 0.41500 0.31520 0.18500
H 	H 	0.82940 0.39640 0.35890 -0.06400
C 	C 	0.77480 0.38610 0.27480 -0.09500
H 	H 	0.74850 0.34510 0.28980 0.04200
C 	C 	0.01580 0.54630 0.31960 -1.15600
H 	H 	0.00320 0.55280 0.27230 0.32700
H 	H 	0.01280 0.59430 0.34080 0.33300
C 	C 	0.08390 0.52490 0.32300 0.62200
H 	H 	0.10690 0.53960 0.36510 -0.17700
H 	H 	0.11310 0.54450 0.28560 -0.18000
C 	C 	0.07660 0.43470 0.31800 -0.18600
H 	H 	0.06100 0.42040 0.27260 0.06600
H 	H 	0.12450 0.41180 0.32730 0.06800
C 	C 	0.02010 0.41170 0.36770 -0.45100
H 	H 	0.04020 0.41050 0.41320 0.13400
H 	H 	0.99800 0.36450 0.35660 0.13200
C 	C 	0.91190 0.53270 0.43130 -0.44300
C 	C 	0.84240 0.52680 0.45330 0.16500
H 	H 	0.80830 0.49940 0.42810 -0.05000
C 	C 	0.81830 0.55940 0.51190 -0.09000
H 	H 	0.76730 0.56560 0.52030 0.03200
C 	C 	0.93670 0.57930 0.53650 -0.07300
H 	H 	0.97260 0.59460 0.56750 0.02600
C 	C 	0.96180 0.55660 0.47550 0.13500
H 	H 	0.01260 0.55790 0.46500 -0.04900
C 	C 	0.49270 0.39700 0.21130 -0.03900
H 	H 	0.48240 0.37330 0.17070 0.01900
C 	C 	0.43460 0.42620 0.24770 0.05400
H 	H 	0.38670 0.42410 0.22920 -0.01100
C 	C 	0.44300 0.45800 0.30920 -0.28200
C 	C 	0.51620 0.46040 0.32950 0.04400
H 	H 	0.52910 0.48270 0.37020 -0.01000
C 	C 	0.56970 0.43020 0.28990 -0.02300
H 	H 	0.61830 0.43050 0.30720 0.02400
C 	C 	0.37670 0.45980 0.45000 -0.47900
H 	H 	0.41940 0.42720 0.45490 0.14800
H 	H 	0.38140 0.50030 0.48150 0.14800
C 	C 	0.30400 0.41940 0.45920 -0.02700
H 	H 	0.30050 0.40090 0.50450 0.01900
H 	H 	0.30120 0.37910 0.42790 0.01800
H 	H 	0.26260 0.45240 0.45090 0.00500
C 	C 	0.27490 0.45560 0.33260 -0.45000
H 	H 	0.23910 0.45770 0.36950 0.13600
H 	H 	0.25560 0.48530 0.29580 0.13200
C 	C 	0.28400 0.37100 0.30800 -0.10500
H 	H 	0.23550 0.34950 0.30200 0.04300
H 	H 	0.31210 0.34400 0.34060 0.03300
H 	H 	0.31040 0.37030 0.26520 0.04000
C 	C 	0.36320 0.59580 0.35760 -0.27500
C 	C 	0.32170 0.63440 0.40270 0.05200
H 	H 	0.29610 0.60980 0.43690 -0.01700
C 	C 	0.31750 0.70460 0.39850 -0.04700
H 	H 	0.28790 0.72830 0.43060 0.02200
C 	C 	0.39270 0.71010 0.31100 -0.02800
H 	H 	0.41750 0.73510 0.27660 0.01800
C 	C 	0.40180 0.63820 0.31420 0.05700
H 	H 	0.43620 0.61610 0.28540 -0.00800
Ag	Ag	0.15948 0.13000 0.84195 0.53100
Si	Si	0.44970 0.00730 0.64550 1.17900
Si	Si	0.86620 0.00710 0.63905 0.82200
N 	N 	0.25980 0.08860 0.78430 -0.13700
N 	N 	0.36840 0.91840 0.44450 -0.14000
N 	N 	0.06130 0.09870 0.76840 -0.14900
N 	N 	0.85220 0.75210 0.64840 -0.15600
C 	C 	0.29680 0.02980 0.80350 -0.06500
H 	H 	0.28610 0.00870 0.84530 0.02700
C 	C 	0.35060 0.99910 0.76350 0.11100
H 	H 	0.37490 0.95610 0.77650 -0.04100
C 	C 	0.36870 0.03390 0.70160 -0.41400
C 	C 	0.32550 0.08500 0.68480 0.18600
H 	H 	0.32940 0.10360 0.64110 -0.06400
C 	C 	0.27480 0.11390 0.72520 -0.09600
H 	H 	0.24850 0.15490 0.71020 0.04200
C 	C 	0.51580 0.95370 0.68040 -1.15800
H 	H 	0.50320 0.94720 0.72770 0.32800
H 	H 	0.51280 0.90570 0.65920 0.33300
C 	C 	0.58390 0.97510 0.67700 0.62400
H 	H 	0.60690 0.96040 0.63490 -0.17700
H 	H 	0.61310 0.95550 0.71440 -0.18000
C 	C 	0.57660 0.06530 0.68200 -0.18600
H 	H 	0.56100 0.07960 0.72740 0.06600
H 	H 	0.62450 0.08820 0.67270 0.06800
C 	C 	0.52010 0.08830 0.63230 -0.45400
H 	H 	0.54020 0.08950 0.58680 0.13400
H 	H 	0.49800 0.13550 0.64340 0.13400
C 	C 	0.41190 0.96730 0.56870 -0.44300
C 	C 	0.34240 0.97320 0.54670 0.16300
H 	H 	0.30830 0.00060 0.57190 -0.04900
C 	C 	0.31830 0.94060 0.48810 -0.08900
H 	H 	0.26730 0.93440 0.47970 0.03100
C 	C 	0.43670 0.92070 0.46350 -0.07200
H 	H 	0.47260 0.90540 0.43250 0.02600
C 	C 	0.46180 0.94340 0.52450 0.13500
H 	H 	0.51260 0.94210 0.53500 -0.04900
C 	C 	0.99270 0.10300 0.78870 -0.04500
H 	H 	0.98240 0.12670 0.82930 0.02000
C 	C 	0.93460 0.07380 0.75230 0.05700
H 	H 	0.88670 0.07590 0.77080 -0.01300
C 	C 	0.94300 0.04200 0.69080 -0.28800
C 	C 	0.01620 0.03960 0.67050 0.05100
H 	H 	0.02910 0.01730 0.62980 -0.01100
C 	C 	0.06970 0.06980 0.71010 -0.02600
H 	H 	0.11830 0.06950 0.69280 0.02500
C 	C 	0.87670 0.04020 0.55000 -0.48700
H 	H 	0.91940 0.07280 0.54510 0.15000
H 	H 	0.88140 0.99970 0.51850 0.15300
C 	C 	0.80400 0.08060 0.54080 -0.02100
H 	H 	0.80050 0.09910 0.49550 0.01700
H 	H 	0.80120 0.12090 0.57210 0.01700
H 	H 	0.76260 0.04760 0.54910 0.00300
C 	C 	0.77490 0.04440 0.66740 -0.45000
H 	H 	0.73910 0.04230 0.63050 0.13600
H 	H 	0.75560 0.01470 0.70420 0.13100
C 	C 	0.78400 0.12900 0.69200 -0.10500
H 	H 	0.73550 0.15050 0.69800 0.04300
H 	H 	0.81210 0.15600 0.65940 0.03300
H 	H 	0.81040 0.12970 0.73480 0.04000
C 	C 	0.86320 0.90420 0.64240 -0.27100
C 	C 	0.82170 0.86560 0.59730 0.05000
H 	H 	0.79610 0.89020 0.56310 -0.01600
C 	C 	0.81750 0.79540 0.60150 -0.04600
H 	H 	0.78790 0.77170 0.56940 0.02200
C 	C 	0.89270 0.78990 0.68900 -0.02700
H 	H 	0.91750 0.76490 0.72340 0.01800
C 	C 	0.90180 0.86180 0.68580 0.05500
H 	H 	0.93620 0.88390 0.71460 -0.00600
Ag	Ag	0.34052 0.87000 0.34195 0.53100
Si	Si	0.05030 0.99270 0.14550 1.17800
Si	Si	0.63380 0.99290 0.13905 0.82500
N 	N 	0.24020 0.91140 0.28430 -0.13500
N 	N 	0.13160 0.08160 0.94450 -0.13700
N 	N 	0.43870 0.90130 0.26840 -0.15200
N 	N 	0.64780 0.24790 0.14840 -0.15500
C 	C 	0.20320 0.97020 0.30350 -0.07100
H 	H 	0.21390 0.99130 0.34530 0.02800
C 	C 	0.14940 0.00090 0.26350 0.12000
H 	H 	0.12510 0.04390 0.27650 -0.04200
C 	C 	0.13130 0.96610 0.20160 -0.41900
C 	C 	0.17450 0.91500 0.18480 0.18900
H 	H 	0.17060 0.89640 0.14110 -0.06500
C 	C 	0.22520 0.88610 0.22520 -0.09800
H 	H 	0.25150 0.84510 0.21020 0.04200
C 	C 	0.98420 0.04630 0.18040 -1.15600
H 	H 	0.99680 0.05280 0.22770 0.32600
H 	H 	0.98720 0.09430 0.15920 0.33200
C 	C 	0.91610 0.02490 0.17700 0.61900
H 	H 	0.89310 0.03960 0.13490 -0.17600
H 	H 	0.88690 0.04450 0.21440 -0.17900
C 	C 	0.92340 0.93470 0.18200 -0.18300
H 	H 	0.93900 0.92040 0.22740 0.06600
H 	H 	0.87550 0.91180 0.17270 0.06800
C 	C 	0.97990 0.91170 0.13230 -0.44900
H 	H 	0.95980 0.91050 0.08680 0.13400
H 	H 	0.00200 0.86450 0.14340 0.13100
C 	C 	0.08810 0.03270 0.06870 -0.44900
C 	C 	0.15760 0.02680 0.04670 0.17600
H 	H 	0.19170 0.99940 0.07190 -0.05500
C 	C 	0.18170 0.05940 0.98810 -0.09600
H 	H 	0.23270 0.06560 0.97970 0.03400
C 	C 	0.06330 0.07930 0.96350 -0.08100
H 	H 	0.02740 0.09460 0.93250 0.02900
C 	C 	0.03820 0.05660 0.02450 0.15000
H 	H 	0.98740 0.05790 0.03500 -0.05700
C 	C 	0.50730 0.89700 0.28870 -0.03900
H 	H 	0.51760 0.87330 0.32930 0.01900
C 	C 	0.56540 0.92620 0.25230 0.05400
H 	H 	0.61330 0.92410 0.27080 -0.01100
C 	C 	0.55700 0.95800 0.19080 -0.28200
C 	C 	0.48380 0.96040 0.17050 0.04400
H 	H 	0.47090 0.98270 0.12980 -0.01000
C 	C 	0.43030 0.93020 0.21010 -0.02400
H 	H 	0.38170 0.93050 0.19280 0.02400
C 	C 	0.62330 0.95980 0.05000 -0.47600
H 	H 	0.58060 0.92720 0.04510 0.14700
H 	H 	0.61860 0.00030 0.01850 0.14700
C 	C 	0.69600 0.91940 0.04080 -0.03200
H 	H 	0.69950 0.90090 0.99550 0.02100
H 	H 	0.69880 0.87910 0.07210 0.02000
H 	H 	0.73740 0.95240 0.04910 0.00700
C 	C 	0.72510 0.95560 0.16740 -0.45100
H 	H 	0.76090 0.95770 0.13050 0.13600
H 	H 	0.74440 0.98530 0.20420 0.13300
C 	C 	0.71600 0.87100 0.19200 -0.10400
H 	H 	0.76450 0.84950 0.19800 0.04300
H 	H 	0.68790 0.84400 0.15940 0.03200
H 	H 	0.68960 0.87030 0.23480 0.04000
C 	C 	0.63680 0.09580 0.14240 -0.27600
C 	C 	0.67830 0.13440 0.09730 0.05200
H 	H 	0.70390 0.10980 0.06310 -0.01700
C 	C 	0.68250 0.20460 0.10150 -0.04700
H 	H 	0.71210 0.22830 0.06940 0.02200
C 	C 	0.60730 0.21010 0.18900 -0.02800
H 	H 	0.58250 0.23510 0.22340 0.01800
C 	C 	0.59820 0.13820 0.18580 0.05700
H 	H 	0.56380 0.11610 0.21460 -0.00800
