data_crystal

_cell_length_a 18.09400
_cell_length_b 18.44500
_cell_length_c 20.18300
_cell_angle_alpha 90.00000
_cell_angle_beta  90.00000
_cell_angle_gamma 90.00000

_symmetry_space_group_name_	'P 1'
_symmetry_space_group_name_H-M	'P 1'

loop_
_symmetry_equiv_pos_as_xyz
  x,y,z

loop_
_atom_site_label
_atom_site_type_symbol
_atom_site_fract_x
_atom_site_fract_y
_atom_site_fract_z
_atom_site_charge
Ag	Ag	0.83987 0.37616 0.84512 0.52500
Si	Si	0.95793 0.51640 0.14705 1.34800
Si	Si	0.12919 0.49597 0.63461 0.98100
N 	N 	0.86990 0.42040 0.94630 -0.13200
N 	N 	0.76120 0.58740 0.28610 -0.14200
N 	N 	0.93860 0.40660 0.76850 -0.14300
N 	N 	0.14270 0.75070 0.64180 -0.14900
C 	C 	0.93630 0.41420 0.96440 -0.09500
H 	H 	0.96950 0.38890 0.93630 0.02400
C 	C 	0.96370 0.44300 0.02450 0.16100
H 	H 	0.01450 0.43790 0.03550 -0.07400
C 	C 	0.91710 0.47800 0.06650 -0.50200
C 	C 	0.84880 0.48020 0.04650 0.24400
H 	H 	0.81390 0.50380 0.07430 -0.07700
C 	C 	0.82410 0.45180 0.98970 -0.15000
H 	H 	0.77280 0.45390 0.98000 0.04700
C 	C 	0.87470 0.54110 0.20210 -0.43500
C 	C 	0.83330 0.60290 0.18780 0.13500
H 	H 	0.84220 0.63030 0.14870 -0.04700
C 	C 	0.77910 0.62310 0.23200 -0.06500
H 	H 	0.75250 0.66620 0.22270 0.03200
C 	C 	0.80060 0.52870 0.30020 -0.08700
H 	H 	0.79090 0.50340 0.34030 0.02900
C 	C 	0.85460 0.50380 0.25890 0.15300
H 	H 	0.87910 0.45980 0.26940 -0.06300
C 	C 	0.01800 0.44820 0.18500 -1.04500
H 	H 	0.99540 0.43100 0.22680 0.29900
H 	H 	0.02260 0.40620 0.15480 0.29600
C 	C 	0.08980 0.47690 0.19860 0.61700
H 	H 	0.12050 0.43920 0.21890 -0.17700
H 	H 	0.08550 0.51800 0.22900 -0.17800
H 	H 	0.11270 0.49300 0.15720 -0.19000
C 	C 	0.01730 0.59370 0.12570 -1.32500
H 	H 	0.99050 0.62650 0.09600 0.37800
H 	H 	0.06210 0.57610 0.10360 0.38900
H 	H 	0.03100 0.61980 0.16620 0.38300
C 	C 	0.00700 0.40120 0.78780 -0.05400
H 	H 	0.01760 0.37840 0.82900 0.02200
C 	C 	0.06640 0.42830 0.74890 0.09100
H 	H 	0.11580 0.42350 0.76440 -0.03700
C 	C 	0.05330 0.46100 0.68950 -0.34600
C 	C 	0.97960 0.46420 0.67190 0.09600
H 	H 	0.96630 0.48720 0.63160 -0.02700
C 	C 	0.92610 0.43590 0.70970 -0.06300
H 	H 	0.87680 0.43680 0.69360 0.03700
C 	C 	0.12850 0.59810 0.63740 -0.33600
C 	C 	0.10100 0.63760 0.68740 0.10400
H 	H 	0.07680 0.61340 0.72290 -0.02400
C 	C 	0.10670 0.71270 0.68910 -0.06000
H 	H 	0.08450 0.73820 0.72480 0.02900
C 	C 	0.17210 0.71310 0.59230 -0.05200
H 	H 	0.19700 0.73850 0.55800 0.01400
C 	C 	0.16790 0.63850 0.58890 0.06000
H 	H 	0.19170 0.61370 0.55360 -0.02500
C 	C 	0.21860 0.46210 0.66580 -0.63200
H 	H 	0.25320 0.50260 0.67430 0.18800
H 	H 	0.21200 0.43400 0.70720 0.18400
C 	C 	0.12540 0.46340 0.54840 -0.59800
H 	H 	0.08430 0.42880 0.54110 0.17900
H 	H 	0.12210 0.50370 0.51620 0.18100
C 	C 	0.19620 0.42840 0.54700 0.02100
H 	H 	0.22730 0.45610 0.51560 0.00200
H 	H 	0.18860 0.37990 0.52720 0.01000
C 	C 	0.24480 0.41680 0.61320 0.10200
H 	H 	0.24190 0.36540 0.62710 -0.02500
H 	H 	0.29710 0.42830 0.60380 -0.02600
Ag	Ag	0.66013 0.62384 0.34512 0.52700
Si	Si	0.54207 0.48360 0.64705 1.34800
Si	Si	0.37081 0.50403 0.13461 0.98200
N 	N 	0.63010 0.57960 0.44630 -0.13200
N 	N 	0.73880 0.41260 0.78610 -0.14100
N 	N 	0.56140 0.59340 0.26850 -0.14100
N 	N 	0.35730 0.24930 0.14180 -0.14800
C 	C 	0.56370 0.58580 0.46440 -0.09300
H 	H 	0.53050 0.61110 0.43630 0.02300
C 	C 	0.53630 0.55700 0.52450 0.15600
H 	H 	0.48550 0.56210 0.53550 -0.07200
C 	C 	0.58290 0.52200 0.56650 -0.50000
C 	C 	0.65120 0.51980 0.54650 0.24300
H 	H 	0.68610 0.49620 0.57430 -0.07700
C 	C 	0.67590 0.54820 0.48970 -0.14900
H 	H 	0.72720 0.54610 0.48000 0.04700
C 	C 	0.62530 0.45890 0.70210 -0.43500
C 	C 	0.66670 0.39710 0.68780 0.13500
H 	H 	0.65780 0.36970 0.64870 -0.04700
C 	C 	0.72090 0.37690 0.73200 -0.06500
H 	H 	0.74750 0.33380 0.72270 0.03200
C 	C 	0.69940 0.47130 0.80020 -0.08700
H 	H 	0.70910 0.49660 0.84030 0.02900
C 	C 	0.64540 0.49620 0.75890 0.15300
H 	H 	0.62090 0.54020 0.76940 -0.06300
C 	C 	0.48200 0.55180 0.68500 -1.04300
H 	H 	0.50460 0.56900 0.72680 0.29800
H 	H 	0.47740 0.59380 0.65480 0.29600
C 	C 	0.41020 0.52310 0.69860 0.61500
H 	H 	0.37950 0.56080 0.71890 -0.17600
H 	H 	0.41450 0.48200 0.72900 -0.17700
H 	H 	0.38730 0.50700 0.65720 -0.18900
C 	C 	0.48270 0.40630 0.62570 -1.32800
H 	H 	0.50950 0.37350 0.59600 0.37900
H 	H 	0.43790 0.42390 0.60360 0.39000
H 	H 	0.46900 0.38020 0.66620 0.38300
C 	C 	0.49300 0.59880 0.28780 -0.05600
H 	H 	0.48240 0.62160 0.32900 0.02300
C 	C 	0.43360 0.57170 0.24890 0.09300
H 	H 	0.38420 0.57650 0.26440 -0.03700
C 	C 	0.44670 0.53900 0.18950 -0.34900
C 	C 	0.52040 0.53580 0.17190 0.09900
H 	H 	0.53370 0.51280 0.13160 -0.02800
C 	C 	0.57390 0.56410 0.20970 -0.06400
H 	H 	0.62320 0.56320 0.19360 0.03700
C 	C 	0.37150 0.40190 0.13740 -0.33700
C 	C 	0.39900 0.36240 0.18740 0.10400
H 	H 	0.42320 0.38660 0.22290 -0.02400
C 	C 	0.39330 0.28730 0.18910 -0.06100
H 	H 	0.41550 0.26180 0.22480 0.02800
C 	C 	0.32790 0.28690 0.09230 -0.05300
H 	H 	0.30300 0.26150 0.05800 0.01400
C 	C 	0.33210 0.36150 0.08890 0.06000
H 	H 	0.30830 0.38630 0.05360 -0.02600
C 	C 	0.28140 0.53790 0.16580 -0.63200
H 	H 	0.24680 0.49740 0.17430 0.18800
H 	H 	0.28800 0.56600 0.20720 0.18400
C 	C 	0.37460 0.53660 0.04840 -0.59900
H 	H 	0.41570 0.57120 0.04110 0.17900
H 	H 	0.37790 0.49630 0.01620 0.18100
C 	C 	0.30380 0.57160 0.04700 0.02100
H 	H 	0.27270 0.54390 0.01560 0.00200
H 	H 	0.31140 0.62010 0.02720 0.00900
C 	C 	0.25520 0.58320 0.11320 0.10100
H 	H 	0.25810 0.63460 0.12710 -0.02500
H 	H 	0.20290 0.57170 0.10380 -0.02600
Ag	Ag	0.16013 0.87616 0.65488 0.52700
Si	Si	0.04207 0.01640 0.35295 1.32900
Si	Si	0.87081 0.99597 0.86539 0.98500
N 	N 	0.13010 0.92040 0.55370 -0.13000
N 	N 	0.23880 0.08740 0.21390 -0.14300
N 	N 	0.06140 0.90660 0.73150 -0.13400
N 	N 	0.85730 0.25070 0.85820 -0.14800
C 	C 	0.06370 0.91420 0.53560 -0.09700
H 	H 	0.03050 0.88890 0.56370 0.02700
C 	C 	0.03630 0.94300 0.47550 0.16900
H 	H 	0.98550 0.93790 0.46450 -0.08000
C 	C 	0.08290 0.97800 0.43350 -0.49900
C 	C 	0.15120 0.98020 0.45350 0.25000
H 	H 	0.18610 0.00380 0.42570 -0.08100
C 	C 	0.17590 0.95180 0.51030 -0.15200
H 	H 	0.22720 0.95390 0.52000 0.04800
C 	C 	0.12530 0.04110 0.29790 -0.42600
C 	C 	0.16670 0.10290 0.31220 0.12900
H 	H 	0.15780 0.13030 0.35130 -0.04500
C 	C 	0.22090 0.12310 0.26800 -0.06200
H 	H 	0.24750 0.16620 0.27730 0.03100
C 	C 	0.19940 0.02870 0.19980 -0.08000
H 	H 	0.20910 0.00340 0.15970 0.02600
C 	C 	0.14540 0.00380 0.24110 0.13900
H 	H 	0.12090 0.95980 0.23060 -0.05500
C 	C 	0.98200 0.94820 0.31500 -1.03700
H 	H 	0.00460 0.93100 0.27320 0.30100
H 	H 	0.97740 0.90620 0.34520 0.29300
C 	C 	0.91020 0.97690 0.30140 0.59500
H 	H 	0.87950 0.93920 0.28110 -0.17100
H 	H 	0.91450 0.01800 0.27100 -0.16800
H 	H 	0.88730 0.99300 0.34280 -0.18400
C 	C 	0.98270 0.09370 0.37430 -1.30200
H 	H 	0.00950 0.12650 0.40400 0.37000
H 	H 	0.93790 0.07610 0.39640 0.38400
H 	H 	0.96900 0.11980 0.33380 0.37700
C 	C 	0.99300 0.90120 0.71220 -0.06900
H 	H 	0.98240 0.87840 0.67100 0.02500
C 	C 	0.93360 0.92830 0.75110 0.10200
H 	H 	0.88420 0.92350 0.73560 -0.04100
C 	C 	0.94670 0.96100 0.81050 -0.36400
C 	C 	0.02040 0.96420 0.82810 0.11700
H 	H 	0.03370 0.98720 0.86840 -0.03100
C 	C 	0.07390 0.93590 0.79030 -0.07200
H 	H 	0.12320 0.93680 0.80640 0.04100
C 	C 	0.87150 0.09810 0.86260 -0.33500
C 	C 	0.89900 0.13760 0.81260 0.10300
H 	H 	0.92320 0.11340 0.77710 -0.02300
C 	C 	0.89330 0.21270 0.81090 -0.06000
H 	H 	0.91550 0.23820 0.77520 0.02800
C 	C 	0.82790 0.21310 0.90770 -0.05200
H 	H 	0.80300 0.23850 0.94200 0.01400
C 	C 	0.83210 0.13850 0.91110 0.06000
H 	H 	0.80830 0.11370 0.94640 -0.02400
C 	C 	0.78140 0.96210 0.83420 -0.64100
H 	H 	0.74680 0.00260 0.82570 0.19300
H 	H 	0.78800 0.93400 0.79280 0.18600
C 	C 	0.87460 0.96340 0.95160 -0.61200
H 	H 	0.91570 0.92880 0.95890 0.18200
H 	H 	0.87790 0.00370 0.98380 0.18900
C 	C 	0.80380 0.92840 0.95300 0.02700
H 	H 	0.77270 0.95610 0.98440 -0.00000
H 	H 	0.81140 0.87990 0.97280 0.00800
C 	C 	0.75520 0.91680 0.88680 0.10300
H 	H 	0.75810 0.86540 0.87290 -0.02600
H 	H 	0.70290 0.92830 0.89620 -0.02700
Ag	Ag	0.33987 0.12384 0.15488 0.52600
Si	Si	0.45793 0.98360 0.85295 1.35300
Si	Si	0.62919 0.00403 0.36539 0.98200
N 	N 	0.36990 0.07960 0.05370 -0.13100
N 	N 	0.26120 0.91260 0.71390 -0.14100
N 	N 	0.43860 0.09340 0.23150 -0.14100
N 	N 	0.64270 0.74930 0.35820 -0.14800
C 	C 	0.43630 0.08580 0.03560 -0.09700
H 	H 	0.46950 0.11110 0.06370 0.02400
C 	C 	0.46370 0.05700 0.97550 0.16100
H 	H 	0.51450 0.06210 0.96450 -0.07300
C 	C 	0.41710 0.02200 0.93350 -0.50400
C 	C 	0.34880 0.01980 0.95350 0.24600
H 	H 	0.31390 0.99620 0.92570 -0.07600
C 	C 	0.32410 0.04820 0.01030 -0.15300
H 	H 	0.27280 0.04610 0.02000 0.04700
C 	C 	0.37470 0.95890 0.79790 -0.43700
C 	C 	0.33330 0.89710 0.81220 0.13700
H 	H 	0.34220 0.86970 0.85130 -0.04700
C 	C 	0.27910 0.87690 0.76800 -0.06600
H 	H 	0.25250 0.83380 0.77730 0.03300
C 	C 	0.30060 0.97130 0.69980 -0.08800
H 	H 	0.29090 0.99660 0.65970 0.03000
C 	C 	0.35460 0.99620 0.74110 0.15700
H 	H 	0.37910 0.04020 0.73060 -0.06500
C 	C 	0.51800 0.05180 0.81500 -1.04900
H 	H 	0.49540 0.06900 0.77320 0.30000
H 	H 	0.52260 0.09380 0.84520 0.29800
C 	C 	0.58980 0.02310 0.80140 0.62500
H 	H 	0.62050 0.06080 0.78110 -0.17900
H 	H 	0.58550 0.98200 0.77100 -0.18100
H 	H 	0.61270 0.00700 0.84280 -0.19100
C 	C 	0.51730 0.90630 0.87430 -1.33100
H 	H 	0.49050 0.87350 0.90400 0.38000
H 	H 	0.56210 0.92390 0.89640 0.39000
H 	H 	0.53100 0.88020 0.83380 0.38400
C 	C 	0.50700 0.09880 0.21220 -0.05600
H 	H 	0.51760 0.12160 0.17100 0.02200
C 	C 	0.56640 0.07170 0.25110 0.09200
H 	H 	0.61580 0.07650 0.23560 -0.03700
C 	C 	0.55330 0.03900 0.31050 -0.34800
C 	C 	0.47960 0.03580 0.32810 0.09800
H 	H 	0.46630 0.01280 0.36840 -0.02800
C 	C 	0.42610 0.06410 0.29030 -0.06400
H 	H 	0.37680 0.06320 0.30640 0.03700
C 	C 	0.62850 0.90190 0.36260 -0.33800
C 	C 	0.60100 0.86240 0.31260 0.10400
H 	H 	0.57680 0.88660 0.27710 -0.02400
C 	C 	0.60670 0.78730 0.31090 -0.06100
H 	H 	0.58450 0.76180 0.27520 0.02800
C 	C 	0.67210 0.78690 0.40770 -0.05300
H 	H 	0.69700 0.76150 0.44200 0.01400
C 	C 	0.66790 0.86150 0.41110 0.06100
H 	H 	0.69170 0.88630 0.44640 -0.02600
C 	C 	0.71860 0.03790 0.33420 -0.62600
H 	H 	0.75320 0.99740 0.32570 0.18500
H 	H 	0.71200 0.06600 0.29280 0.18200
C 	C 	0.62540 0.03660 0.45160 -0.59600
H 	H 	0.58430 0.07120 0.45890 0.17800
H 	H 	0.62210 0.99630 0.48380 0.17900
C 	C 	0.69620 0.07160 0.45300 0.02000
H 	H 	0.72730 0.04390 0.48440 0.00300
H 	H 	0.68860 0.12010 0.47280 0.01000
C 	C 	0.74480 0.08320 0.38680 0.09800
H 	H 	0.74190 0.13460 0.37290 -0.02400
H 	H 	0.79710 0.07170 0.39620 -0.02400
Ag	Ag	0.83315 0.86723 0.14911 0.53400
Si	Si	0.44860 0.82810 0.13283 1.03100
Si	Si	0.96210 0.67640 0.42688 1.34700
N 	N 	0.70720 0.85880 0.13720 -0.14900
N 	N 	0.38230 0.70970 0.93540 -0.13600
N 	N 	0.86880 0.79870 0.23880 -0.12200
N 	N 	0.10200 0.47150 0.36030 -0.14000
C 	C 	0.67530 0.79440 0.14060 -0.04900
H 	H 	0.70620 0.75300 0.14470 0.02500
C 	C 	0.59810 0.78340 0.13860 0.09300
H 	H 	0.57870 0.73560 0.14000 -0.03000
C 	C 	0.55060 0.84180 0.13470 -0.36000
C 	C 	0.58480 0.90820 0.12860 0.10100
H 	H 	0.55540 0.95040 0.12280 -0.03600
C 	C 	0.66120 0.91500 0.13090 -0.05800
H 	H 	0.68190 0.96230 0.12780 0.02300
C 	C 	0.42720 0.78260 0.05190 -0.38500
C 	C 	0.35430 0.77630 0.03560 0.09500
H 	H 	0.31750 0.79590 0.06400 -0.03700
C 	C 	0.33320 0.74000 0.97540 -0.05900
H 	H 	0.28230 0.73760 0.96400 0.03000
C 	C 	0.45200 0.71560 0.95470 -0.09100
H 	H 	0.48920 0.69460 0.92750 0.03400
C 	C 	0.47330 0.74940 0.01040 0.13400
H 	H 	0.52450 0.74970 0.02090 -0.04100
C 	C 	0.39710 0.90920 0.15750 -0.60800
H 	H 	0.43030 0.94990 0.16940 0.18200
H 	H 	0.36190 0.92510 0.12290 0.17500
C 	C 	0.42030 0.77000 0.20200 -0.67100
H 	H 	0.39040 0.72900 0.18540 0.19500
H 	H 	0.46440 0.75020 0.22460 0.20100
C 	C 	0.37770 0.81240 0.24760 0.14300
H 	H 	0.40650 0.82200 0.28840 -0.02600
H 	H 	0.33180 0.78640 0.25990 -0.03300
C 	C 	0.36010 0.87930 0.21460 0.00800
H 	H 	0.36280 0.91730 0.24920 0.01900
H 	H 	0.30740 0.87550 0.20200 0.01000
C 	C 	0.93110 0.76260 0.23780 -0.10000
H 	H 	0.95980 0.76360 0.19840 0.03100
C 	C 	0.95730 0.72310 0.29110 0.17100
H 	H 	0.00180 0.69630 0.28640 -0.06700
C 	C 	0.92060 0.72160 0.35060 -0.49900
C 	C 	0.86010 0.76350 0.35100 0.22100
H 	H 	0.83400 0.76930 0.39150 -0.08700
C 	C 	0.83530 0.79680 0.29810 -0.13300
H 	H 	0.78960 0.82180 0.30210 0.05900
C 	C 	0.02010 0.59630 0.39830 -0.44400
C 	C 	0.98830 0.52850 0.39290 0.13300
H 	H 	0.93710 0.52210 0.40150 -0.05600
C 	C 	0.03260 0.46900 0.37460 -0.06600
H 	H 	0.00930 0.42290 0.37250 0.02200
C 	C 	0.13380 0.53910 0.36600 -0.09400
H 	H 	0.18530 0.54380 0.35790 0.03500
C 	C 	0.09440 0.59980 0.38280 0.15800
H 	H 	0.11870 0.64540 0.38390 -0.06300
C 	C 	0.02450 0.73900 0.46980 -1.31400
H 	H 	0.06370 0.75450 0.43940 0.37000
H 	H 	0.04660 0.71450 0.50810 0.38800
H 	H 	0.99670 0.78150 0.48490 0.37000
C 	C 	0.89360 0.64800 0.48830 -1.01400
H 	H 	0.85490 0.68580 0.49080 0.28100
H 	H 	0.86960 0.60310 0.47200 0.28100
C 	C 	0.92040 0.63470 0.55400 0.58000
H 	H 	0.87910 0.62070 0.58270 -0.15800
H 	H 	0.94360 0.67880 0.57140 -0.16900
H 	H 	0.95690 0.59540 0.55290 -0.16900
Ag	Ag	0.66685 0.13277 0.64911 0.53500
Si	Si	0.05140 0.17190 0.63283 1.02400
Si	Si	0.53790 0.32360 0.92688 1.36900
N 	N 	0.79280 0.14120 0.63720 -0.14900
N 	N 	0.11770 0.29030 0.43540 -0.13600
N 	N 	0.63120 0.20130 0.73880 -0.11900
N 	N 	0.39800 0.52850 0.86030 -0.13800
C 	C 	0.82470 0.20560 0.64060 -0.04800
H 	H 	0.79380 0.24700 0.64470 0.02400
C 	C 	0.90190 0.21660 0.63860 0.09100
H 	H 	0.92130 0.26440 0.64000 -0.02900
C 	C 	0.94940 0.15820 0.63470 -0.35600
C 	C 	0.91520 0.09180 0.62860 0.10000
H 	H 	0.94460 0.04960 0.62280 -0.03400
C 	C 	0.83880 0.08500 0.63090 -0.05700
H 	H 	0.81810 0.03770 0.62780 0.02400
C 	C 	0.07280 0.21740 0.55190 -0.38300
C 	C 	0.14570 0.22370 0.53560 0.09600
H 	H 	0.18250 0.20410 0.56400 -0.03800
C 	C 	0.16680 0.26000 0.47540 -0.06000
H 	H 	0.21770 0.26240 0.46400 0.03000
C 	C 	0.04800 0.28440 0.45470 -0.09000
H 	H 	0.01080 0.30540 0.42750 0.03400
C 	C 	0.02670 0.25060 0.51040 0.13100
H 	H 	0.97550 0.25030 0.52090 -0.03900
C 	C 	0.10290 0.09080 0.65750 -0.60600
H 	H 	0.06970 0.05010 0.66940 0.18000
H 	H 	0.13810 0.07490 0.62290 0.17300
C 	C 	0.07970 0.23000 0.70200 -0.66800
H 	H 	0.10960 0.27100 0.68540 0.19500
H 	H 	0.03560 0.24980 0.72460 0.20000
C 	C 	0.12230 0.18760 0.74760 0.14100
H 	H 	0.09350 0.17800 0.78840 -0.02600
H 	H 	0.16820 0.21360 0.75990 -0.03200
C 	C 	0.13990 0.12070 0.71460 0.00900
H 	H 	0.13720 0.08270 0.74920 0.01700
H 	H 	0.19260 0.12450 0.70200 0.00900
C 	C 	0.56890 0.23740 0.73780 -0.10600
H 	H 	0.54020 0.23640 0.69840 0.03300
C 	C 	0.54270 0.27690 0.79110 0.18300
H 	H 	0.49820 0.30370 0.78640 -0.07400
C 	C 	0.57940 0.27840 0.85060 -0.50900
C 	C 	0.63990 0.23650 0.85100 0.22900
H 	H 	0.66600 0.23070 0.89150 -0.09000
C 	C 	0.66470 0.20320 0.79810 -0.13700
H 	H 	0.71040 0.17820 0.80210 0.06100
C 	C 	0.47990 0.40370 0.89830 -0.45500
C 	C 	0.51170 0.47150 0.89290 0.14300
H 	H 	0.56290 0.47790 0.90150 -0.06000
C 	C 	0.46740 0.53100 0.87460 -0.07100
H 	H 	0.49070 0.57710 0.87250 0.02300
C 	C 	0.36620 0.46090 0.86600 -0.09800
H 	H 	0.31470 0.45620 0.85790 0.03700
C 	C 	0.40560 0.40020 0.88280 0.16500
H 	H 	0.38130 0.35460 0.88390 -0.06500
C 	C 	0.47550 0.26100 0.96980 -1.34000
H 	H 	0.43630 0.24550 0.93940 0.37600
H 	H 	0.45340 0.28550 0.00810 0.39400
H 	H 	0.50330 0.21850 0.98490 0.38100
C 	C 	0.60640 0.35200 0.98830 -1.02700
H 	H 	0.64510 0.31420 0.99080 0.28500
H 	H 	0.63040 0.39690 0.97200 0.28500
C 	C 	0.57960 0.36530 0.05400 0.59000
H 	H 	0.62090 0.37930 0.08270 -0.16100
H 	H 	0.55640 0.32120 0.07140 -0.17200
H 	H 	0.54310 0.40460 0.05290 -0.17100
Ag	Ag	0.16685 0.36723 0.35089 0.53500
Si	Si	0.55140 0.32810 0.36717 1.03100
Si	Si	0.03790 0.17640 0.07312 1.34000
N 	N 	0.29280 0.35880 0.36280 -0.14900
N 	N 	0.61770 0.20970 0.56460 -0.13500
N 	N 	0.13120 0.29870 0.26120 -0.12200
N 	N 	0.89800 0.97150 0.13970 -0.14300
C 	C 	0.32470 0.29440 0.35940 -0.04900
H 	H 	0.29380 0.25300 0.35530 0.02500
C 	C 	0.40190 0.28340 0.36140 0.09300
H 	H 	0.42130 0.23560 0.36000 -0.03000
C 	C 	0.44940 0.34180 0.36530 -0.36100
C 	C 	0.41520 0.40820 0.37140 0.10200
H 	H 	0.44460 0.45040 0.37720 -0.03600
C 	C 	0.33880 0.41500 0.36910 -0.05900
H 	H 	0.31810 0.46230 0.37220 0.02300
C 	C 	0.57280 0.28260 0.44810 -0.38700
C 	C 	0.64570 0.27630 0.46440 0.09800
H 	H 	0.68250 0.29590 0.43600 -0.03800
C 	C 	0.66680 0.24000 0.52460 -0.06100
H 	H 	0.71770 0.23760 0.53600 0.03000
C 	C 	0.54800 0.21560 0.54530 -0.09300
H 	H 	0.51080 0.19460 0.57250 0.03500
C 	C 	0.52670 0.24940 0.48960 0.13700
H 	H 	0.47550 0.24970 0.47910 -0.04200
C 	C 	0.60290 0.40920 0.34250 -0.60900
H 	H 	0.56970 0.44990 0.33060 0.18200
H 	H 	0.63810 0.42510 0.37710 0.17500
C 	C 	0.57970 0.27000 0.29800 -0.67200
H 	H 	0.60960 0.22900 0.31460 0.19500
H 	H 	0.53560 0.25020 0.27540 0.20100
C 	C 	0.62230 0.31240 0.25240 0.14300
H 	H 	0.59350 0.32200 0.21160 -0.02600
H 	H 	0.66820 0.28640 0.24010 -0.03300
C 	C 	0.63990 0.37930 0.28540 0.00900
H 	H 	0.63720 0.41730 0.25080 0.01800
H 	H 	0.69260 0.37550 0.29800 0.00900
C 	C 	0.06890 0.26260 0.26220 -0.09900
H 	H 	0.04020 0.26360 0.30160 0.03100
C 	C 	0.04270 0.22310 0.20890 0.16900
H 	H 	0.99820 0.19630 0.21360 -0.06600
C 	C 	0.07940 0.22160 0.14940 -0.49600
C 	C 	0.13990 0.26350 0.14900 0.22000
H 	H 	0.16600 0.26930 0.10850 -0.08700
C 	C 	0.16470 0.29680 0.20190 -0.13200
H 	H 	0.21040 0.32180 0.19790 0.05900
C 	C 	0.97990 0.09630 0.10170 -0.43400
C 	C 	0.01170 0.02850 0.10710 0.12400
H 	H 	0.06290 0.02210 0.09850 -0.05400
C 	C 	0.96740 0.96900 0.12540 -0.06500
H 	H 	0.99070 0.92290 0.12750 0.02000
C 	C 	0.86620 0.03910 0.13400 -0.08700
H 	H 	0.81470 0.04380 0.14210 0.03400
C 	C 	0.90560 0.09980 0.11720 0.15100
H 	H 	0.88130 0.14540 0.11610 -0.06100
C 	C 	0.97550 0.23900 0.03020 -1.31200
H 	H 	0.93630 0.25450 0.06060 0.36900
H 	H 	0.95340 0.21450 0.99190 0.38700
H 	H 	0.00330 0.28150 0.01510 0.37100
C 	C 	0.10640 0.14800 0.01170 -1.01600
H 	H 	0.14510 0.18580 0.00920 0.28100
H 	H 	0.13040 0.10310 0.02800 0.28100
C 	C 	0.07960 0.13470 0.94600 0.58400
H 	H 	0.12090 0.12070 0.91730 -0.15900
H 	H 	0.05640 0.17880 0.92860 -0.16900
H 	H 	0.04310 0.09540 0.94710 -0.16900
Ag	Ag	0.33315 0.63277 0.85089 0.53500
Si	Si	0.94860 0.67190 0.86717 1.01600
Si	Si	0.46210 0.82360 0.57312 1.37200
N 	N 	0.20720 0.64120 0.86280 -0.14900
N 	N 	0.88230 0.79030 0.06460 -0.13800
N 	N 	0.36880 0.70130 0.76120 -0.11900
N 	N 	0.60200 0.02850 0.63970 -0.13700
C 	C 	0.17530 0.70560 0.85940 -0.04600
H 	H 	0.20620 0.74700 0.85530 0.02400
C 	C 	0.09810 0.71660 0.86140 0.08800
H 	H 	0.07870 0.76440 0.86000 -0.02700
C 	C 	0.05060 0.65820 0.86530 -0.35200
C 	C 	0.08480 0.59180 0.87140 0.09700
H 	H 	0.05540 0.54960 0.87720 -0.03300
C 	C 	0.16120 0.58500 0.86910 -0.05600
H 	H 	0.18190 0.53770 0.87220 0.02300
C 	C 	0.92720 0.71740 0.94810 -0.37500
C 	C 	0.85430 0.72370 0.96440 0.09000
H 	H 	0.81750 0.70410 0.93600 -0.03600
C 	C 	0.83320 0.76000 0.02460 -0.05700
H 	H 	0.78230 0.76240 0.03600 0.02900
C 	C 	0.95200 0.78440 0.04530 -0.08100
H 	H 	0.98920 0.80540 0.07250 0.03000
C 	C 	0.97330 0.75060 0.98960 0.11500
H 	H 	0.02450 0.75030 0.97910 -0.03100
C 	C 	0.89710 0.59080 0.84250 -0.60300
H 	H 	0.93030 0.55010 0.83060 0.18000
H 	H 	0.86190 0.57490 0.87710 0.17300
C 	C 	0.92030 0.73000 0.79800 -0.66400
H 	H 	0.89040 0.77100 0.81460 0.19300
H 	H 	0.96440 0.74980 0.77540 0.19800
C 	C 	0.87770 0.68760 0.75240 0.14000
H 	H 	0.90650 0.67800 0.71160 -0.02600
H 	H 	0.83180 0.71360 0.74010 -0.03200
C 	C 	0.86010 0.62070 0.78540 0.00800
H 	H 	0.86280 0.58270 0.75080 0.01800
H 	H 	0.80740 0.62450 0.79800 0.00900
C 	C 	0.43110 0.73740 0.76220 -0.10600
H 	H 	0.45980 0.73640 0.80160 0.03400
C 	C 	0.45730 0.77690 0.70890 0.18400
H 	H 	0.50180 0.80370 0.71360 -0.07400
C 	C 	0.42060 0.77840 0.64940 -0.51000
C 	C 	0.36010 0.73650 0.64900 0.23000
H 	H 	0.33400 0.73070 0.60850 -0.09000
C 	C 	0.33530 0.70320 0.70190 -0.13700
H 	H 	0.28960 0.67820 0.69790 0.06100
C 	C 	0.52010 0.90370 0.60170 -0.45600
C 	C 	0.48830 0.97150 0.60710 0.14200
H 	H 	0.43710 0.97790 0.59850 -0.06000
C 	C 	0.53260 0.03100 0.62540 -0.07100
H 	H 	0.50930 0.07710 0.62750 0.02300
C 	C 	0.63380 0.96090 0.63400 -0.09900
H 	H 	0.68530 0.95620 0.64210 0.03600
C 	C 	0.59440 0.90020 0.61720 0.16600
H 	H 	0.61870 0.85460 0.61610 -0.06600
C 	C 	0.52450 0.76100 0.53020 -1.34500
H 	H 	0.56370 0.74550 0.56060 0.37800
H 	H 	0.54660 0.78550 0.49190 0.39600
H 	H 	0.49670 0.71850 0.51510 0.38200
C 	C 	0.39360 0.85200 0.51170 -1.03000
H 	H 	0.35490 0.81420 0.50920 0.28600
H 	H 	0.36960 0.89690 0.52800 0.28600
C 	C 	0.42040 0.86530 0.44600 0.59400
H 	H 	0.37910 0.87930 0.41730 -0.16200
H 	H 	0.44360 0.82120 0.42860 -0.17300
H 	H 	0.45690 0.90460 0.44710 -0.17200
