data_crystal

_cell_length_a 18.31000
_cell_length_b 18.35270
_cell_length_c 20.29540
_cell_angle_alpha 90.00000
_cell_angle_beta  90.00000
_cell_angle_gamma 90.00000

_symmetry_space_group_name_	'P 1'
_symmetry_space_group_name_H-M	'P 1'

loop_
_symmetry_equiv_pos_as_xyz
  x,y,z

loop_
_atom_site_label
_atom_site_type_symbol
_atom_site_fract_x
_atom_site_fract_y
_atom_site_fract_z
_atom_site_charge
Ag	Ag	0.15932 0.85647 0.65114 0.53400
Si	Si	0.53967 0.83228 0.62889 0.91600
Si	Si	0.03560 0.66895 0.92963 0.85100
N 	N 	0.28370 0.85290 0.63790 -0.15100
N 	N 	0.61090 0.72800 0.42840 -0.14500
N 	N 	0.12260 0.79590 0.74530 -0.15200
N 	N 	0.90440 0.46210 0.86280 -0.15400
C 	C 	0.32620 0.91310 0.63070 -0.05400
H 	H 	0.30360 0.95960 0.62830 0.02500
C 	C 	0.40100 0.90870 0.62700 0.08500
H 	H 	0.42840 0.95230 0.62140 -0.02600
C 	C 	0.43750 0.84370 0.63110 -0.31200
C 	C 	0.39250 0.78220 0.63680 0.06400
H 	H 	0.41380 0.73510 0.63850 -0.01900
C 	C 	0.31780 0.78930 0.64000 -0.03600
H 	H 	0.28920 0.74640 0.64400 0.02100
C 	C 	0.54170 0.72920 0.44660 -0.04200
H 	H 	0.50700 0.70600 0.41890 0.02200
C 	C 	0.51620 0.76270 0.50470 0.07000
H 	H 	0.46550 0.76240 0.51490 -0.01600
C 	C 	0.56500 0.79580 0.54640 -0.32200
C 	C 	0.63730 0.79580 0.52480 0.07100
H 	H 	0.67350 0.81950 0.55050 -0.02200
C 	C 	0.65690 0.76260 0.46780 -0.04600
H 	H 	0.70690 0.76420 0.45540 0.02700
C 	C 	0.57300 0.77340 0.69750 -0.56500
H 	H 	0.53180 0.74930 0.72030 0.17200
H 	H 	0.60700 0.73570 0.68100 0.16600
C 	C 	0.61130 0.82530 0.74240 0.06800
H 	H 	0.57670 0.84100 0.77710 -0.00600
H 	H 	0.65200 0.79930 0.76430 -0.00700
C 	C 	0.63980 0.88830 0.71080 -0.00600
H 	H 	0.68900 0.87700 0.69350 0.01400
H 	H 	0.64510 0.92760 0.74380 0.02000
C 	C 	0.59190 0.91560 0.65430 -0.52600
H 	H 	0.62210 0.93430 0.61750 0.15500
H 	H 	0.55850 0.95460 0.66930 0.16100
C 	C 	0.06040 0.75780 0.74320 -0.03800
H 	H 	0.03370 0.75690 0.70310 0.01800
C 	C 	0.03320 0.71990 0.79620 0.05500
H 	H 	0.98880 0.69350 0.79180 -0.01100
C 	C 	0.06970 0.71980 0.85600 -0.29500
C 	C 	0.13290 0.76120 0.85850 0.05400
H 	H 	0.16020 0.76440 0.89820 -0.02000
C 	C 	0.15600 0.79770 0.80260 -0.03000
H 	H 	0.19910 0.82630 0.80590 0.02500
C 	C 	0.87250 0.52680 0.86960 -0.03900
H 	H 	0.82150 0.53040 0.86160 0.01800
C 	C 	0.90940 0.58840 0.88770 0.05600
H 	H 	0.88360 0.63310 0.89150 -0.01900
C 	C 	0.98420 0.58680 0.90050 -0.29600
C 	C 	0.01530 0.52080 0.89280 0.06800
H 	H 	0.06630 0.51570 0.90010 -0.02300
C 	C 	0.97530 0.46020 0.87470 -0.04200
H 	H 	-0.00000 0.41490 0.87060 0.01800
C 	C 	0.96580 0.72890 0.98130 -0.49600
H 	H 	0.96000 0.77830 0.96230 0.15100
H 	H 	0.91740 0.70520 0.98480 0.15300
C 	C 	0.00250 0.73100 0.04320 0.08500
H 	H 	0.96570 0.73700 0.07850 -0.00200
H 	H 	0.03490 0.77420 0.04420 -0.01500
C 	C 	0.04680 0.66500 0.05740 -0.06600
H 	H 	0.01420 0.62280 0.06480 0.02800
H 	H 	0.07600 0.67280 0.09780 0.03700
C 	C 	0.10060 0.64860 0.99580 -0.50500
H 	H 	0.11720 0.59730 0.99480 0.14800
H 	H 	0.14340 0.68160 0.99500 0.14800
Ag	Ag	0.34068 0.14353 0.15114 0.53300
Si	Si	0.96033 0.16772 0.12889 0.91000
Si	Si	0.46440 0.33105 0.42963 0.86200
N 	N 	0.21630 0.14710 0.13790 -0.15100
N 	N 	0.88910 0.27200 0.92840 -0.14500
N 	N 	0.37740 0.20410 0.24530 -0.15100
N 	N 	0.59560 0.53790 0.36280 -0.15300
C 	C 	0.17380 0.08690 0.13070 -0.05300
H 	H 	0.19640 0.04040 0.12830 0.02500
C 	C 	0.09900 0.09130 0.12700 0.08300
H 	H 	0.07160 0.04770 0.12140 -0.02400
C 	C 	0.06250 0.15630 0.13110 -0.30800
C 	C 	0.10750 0.21780 0.13680 0.06200
H 	H 	0.08620 0.26490 0.13850 -0.01800
C 	C 	0.18220 0.21070 0.14000 -0.03500
H 	H 	0.21080 0.25360 0.14400 0.02100
C 	C 	0.95830 0.27080 0.94660 -0.03900
H 	H 	0.99300 0.29400 0.91890 0.02200
C 	C 	0.98380 0.23730 0.00470 0.06400
H 	H 	0.03450 0.23760 0.01490 -0.01300
C 	C 	0.93500 0.20420 0.04640 -0.31800
C 	C 	0.86270 0.20420 0.02480 0.06900
H 	H 	0.82650 0.18050 0.05050 -0.02100
C 	C 	0.84310 0.23740 0.96780 -0.04500
H 	H 	0.79310 0.23580 0.95540 0.02700
C 	C 	0.92700 0.22660 0.19750 -0.56200
H 	H 	0.96820 0.25070 0.22030 0.17100
H 	H 	0.89300 0.26430 0.18100 0.16600
C 	C 	0.88870 0.17470 0.24240 0.06800
H 	H 	0.92330 0.15900 0.27710 -0.00600
H 	H 	0.84800 0.20070 0.26430 -0.00700
C 	C 	0.86020 0.11170 0.21080 -0.00600
H 	H 	0.81100 0.12300 0.19350 0.01400
H 	H 	0.85490 0.07240 0.24380 0.01900
C 	C 	0.90810 0.08440 0.15430 -0.52400
H 	H 	0.87790 0.06570 0.11750 0.15400
H 	H 	0.94150 0.04540 0.16930 0.16000
C 	C 	0.43960 0.24220 0.24320 -0.04200
H 	H 	0.46630 0.24310 0.20310 0.01900
C 	C 	0.46680 0.28010 0.29620 0.06300
H 	H 	0.51120 0.30650 0.29180 -0.01500
C 	C 	0.43030 0.28020 0.35600 -0.30000
C 	C 	0.36710 0.23880 0.35850 0.05700
H 	H 	0.33980 0.23560 0.39820 -0.02100
C 	C 	0.34400 0.20230 0.30260 -0.03200
H 	H 	0.30090 0.17370 0.30590 0.02600
C 	C 	0.62750 0.47320 0.36960 -0.04200
H 	H 	0.67850 0.46960 0.36160 0.01900
C 	C 	0.59060 0.41160 0.38770 0.06100
H 	H 	0.61640 0.36690 0.39150 -0.02100
C 	C 	0.51580 0.41320 0.40050 -0.30500
C 	C 	0.48470 0.47920 0.39280 0.07800
H 	H 	0.43370 0.48430 0.40010 -0.02600
C 	C 	0.52470 0.53980 0.37470 -0.04900
H 	H 	0.50000 0.58510 0.37060 0.02000
C 	C 	0.53420 0.27110 0.48130 -0.50800
H 	H 	0.54000 0.22170 0.46230 0.15300
H 	H 	0.58260 0.29480 0.48480 0.15600
C 	C 	0.49750 0.26900 0.54320 0.09700
H 	H 	0.53430 0.26300 0.57850 -0.00600
H 	H 	0.46510 0.22580 0.54420 -0.01700
C 	C 	0.45320 0.33500 0.55740 -0.07200
H 	H 	0.48580 0.37720 0.56480 0.03000
H 	H 	0.42400 0.32720 0.59780 0.03900
C 	C 	0.39940 0.35140 0.49580 -0.50700
H 	H 	0.38280 0.40270 0.49480 0.14800
H 	H 	0.35660 0.31840 0.49500 0.14800
Ag	Ag	0.84068 0.35647 0.84886 0.53300
Si	Si	0.46033 0.33228 0.87111 0.91500
Si	Si	0.96440 0.16895 0.57037 0.85400
N 	N 	0.71630 0.35290 0.86210 -0.15100
N 	N 	0.38910 0.22800 0.07160 -0.14500
N 	N 	0.87740 0.29590 0.75470 -0.15200
N 	N 	0.09560 0.96210 0.63720 -0.15500
C 	C 	0.67380 0.41310 0.86930 -0.05400
H 	H 	0.69640 0.45960 0.87170 0.02500
C 	C 	0.59900 0.40870 0.87300 0.08500
H 	H 	0.57160 0.45230 0.87860 -0.02600
C 	C 	0.56250 0.34370 0.86890 -0.31200
C 	C 	0.60750 0.28220 0.86320 0.06400
H 	H 	0.58620 0.23510 0.86150 -0.01900
C 	C 	0.68220 0.28930 0.86000 -0.03600
H 	H 	0.71080 0.24640 0.85600 0.02100
C 	C 	0.45830 0.22920 0.05340 -0.04000
H 	H 	0.49300 0.20600 0.08110 0.02200
C 	C 	0.48380 0.26270 0.99530 0.06700
H 	H 	0.53450 0.26240 0.98510 -0.01500
C 	C 	0.43500 0.29580 0.95360 -0.32000
C 	C 	0.36270 0.29580 0.97520 0.06900
H 	H 	0.32650 0.31950 0.94950 -0.02100
C 	C 	0.34310 0.26260 0.03220 -0.04300
H 	H 	0.29310 0.26420 0.04460 0.02700
C 	C 	0.42700 0.27340 0.80250 -0.56400
H 	H 	0.46820 0.24930 0.77970 0.17200
H 	H 	0.39300 0.23570 0.81900 0.16600
C 	C 	0.38870 0.32530 0.75760 0.06800
H 	H 	0.42330 0.34100 0.72290 -0.00500
H 	H 	0.34800 0.29930 0.73570 -0.00700
C 	C 	0.36020 0.38830 0.78920 -0.00500
H 	H 	0.31100 0.37700 0.80650 0.01400
H 	H 	0.35490 0.42760 0.75620 0.01900
C 	C 	0.40810 0.41560 0.84570 -0.52600
H 	H 	0.37790 0.43430 0.88250 0.15500
H 	H 	0.44150 0.45460 0.83070 0.16100
C 	C 	0.93960 0.25780 0.75680 -0.04000
H 	H 	0.96630 0.25690 0.79690 0.01900
C 	C 	0.96680 0.21990 0.70380 0.05900
H 	H 	0.01120 0.19350 0.70820 -0.01300
C 	C 	0.93030 0.21980 0.64400 -0.29700
C 	C 	0.86710 0.26120 0.64150 0.05500
H 	H 	0.83980 0.26440 0.60180 -0.02000
C 	C 	0.84400 0.29770 0.69740 -0.03100
H 	H 	0.80090 0.32630 0.69410 0.02500
C 	C 	0.12750 0.02680 0.63040 -0.03600
H 	H 	0.17850 0.03040 0.63840 0.01800
C 	C 	0.09060 0.08840 0.61230 0.05600
H 	H 	0.11640 0.13310 0.60850 -0.01900
C 	C 	0.01580 0.08680 0.59950 -0.29700
C 	C 	0.98470 0.02080 0.60720 0.07200
H 	H 	0.93370 0.01570 0.59990 -0.02400
C 	C 	0.02470 0.96020 0.62530 -0.04800
H 	H 	-0.00000 0.91490 0.62940 0.01900
C 	C 	0.03420 0.22890 0.51870 -0.50000
H 	H 	0.04000 0.27830 0.53770 0.15100
H 	H 	0.08260 0.20520 0.51520 0.15400
C 	C 	0.99750 0.23100 0.45680 0.08800
H 	H 	0.03430 0.23700 0.42150 -0.00300
H 	H 	0.96510 0.27420 0.45580 -0.01500
C 	C 	0.95320 0.16500 0.44260 -0.06700
H 	H 	0.98580 0.12280 0.43520 0.02800
H 	H 	0.92400 0.17280 0.40220 0.03700
C 	C 	0.89940 0.14860 0.50420 -0.50500
H 	H 	0.88280 0.09730 0.50520 0.14800
H 	H 	0.85660 0.18160 0.50500 0.14800
Ag	Ag	0.65932 0.64353 0.34886 0.53300
Si	Si	0.03967 0.66772 0.37111 0.91200
Si	Si	0.53560 0.83105 0.07037 0.86200
N 	N 	0.78370 0.64710 0.36210 -0.15100
N 	N 	0.11090 0.77200 0.57160 -0.14500
N 	N 	0.62260 0.70410 0.25470 -0.15100
N 	N 	0.40440 0.03790 0.13720 -0.15200
C 	C 	0.82620 0.58690 0.36930 -0.05300
H 	H 	0.80360 0.54040 0.37170 0.02500
C 	C 	0.90100 0.59130 0.37300 0.08400
H 	H 	0.92840 0.54770 0.37860 -0.02600
C 	C 	0.93750 0.65630 0.36890 -0.31000
C 	C 	0.89250 0.71780 0.36320 0.06300
H 	H 	0.91380 0.76490 0.36150 -0.01800
C 	C 	0.81780 0.71070 0.36000 -0.03600
H 	H 	0.78920 0.75360 0.35600 0.02100
C 	C 	0.04170 0.77080 0.55340 -0.04000
H 	H 	0.00700 0.79400 0.58110 0.02100
C 	C 	0.01620 0.73730 0.49530 0.06400
H 	H 	0.96550 0.73760 0.48510 -0.01300
C 	C 	0.06500 0.70420 0.45360 -0.31900
C 	C 	0.13730 0.70420 0.47520 0.07000
H 	H 	0.17350 0.68050 0.44950 -0.02100
C 	C 	0.15690 0.73740 0.53220 -0.04500
H 	H 	0.20690 0.73580 0.54460 0.02700
C 	C 	0.07300 0.72660 0.30250 -0.56300
H 	H 	0.03180 0.75070 0.27970 0.17100
H 	H 	0.10700 0.76430 0.31900 0.16600
C 	C 	0.11130 0.67470 0.25760 0.06800
H 	H 	0.07670 0.65900 0.22290 -0.00500
H 	H 	0.15200 0.70070 0.23570 -0.00700
C 	C 	0.13980 0.61170 0.28920 -0.00600
H 	H 	0.18900 0.62300 0.30650 0.01400
H 	H 	0.14510 0.57240 0.25620 0.01900
C 	C 	0.09190 0.58440 0.34570 -0.52500
H 	H 	0.12210 0.56570 0.38250 0.15400
H 	H 	0.05850 0.54540 0.33070 0.16000
C 	C 	0.56040 0.74220 0.25680 -0.04100
H 	H 	0.53370 0.74310 0.29690 0.01900
C 	C 	0.53320 0.78010 0.20380 0.06300
H 	H 	0.48880 0.80650 0.20820 -0.01500
C 	C 	0.56970 0.78020 0.14400 -0.30000
C 	C 	0.63290 0.73880 0.14150 0.05700
H 	H 	0.66020 0.73560 0.10180 -0.02100
C 	C 	0.65600 0.70230 0.19740 -0.03200
H 	H 	0.69910 0.67370 0.19410 0.02600
C 	C 	0.37250 0.97320 0.13040 -0.04400
H 	H 	0.32150 0.96960 0.13840 0.01900
C 	C 	0.40940 0.91160 0.11230 0.06100
H 	H 	0.38360 0.86690 0.10850 -0.02100
C 	C 	0.48420 0.91320 0.09950 -0.30400
C 	C 	0.51530 0.97920 0.10720 0.07500
H 	H 	0.56630 0.98430 0.09990 -0.02500
C 	C 	0.47530 0.03980 0.12530 -0.04600
H 	H 	0.50000 0.08510 0.12940 0.02000
C 	C 	0.46580 0.77110 0.01870 -0.50900
H 	H 	0.46000 0.72170 0.03770 0.15300
H 	H 	0.41740 0.79480 0.01520 0.15600
C 	C 	0.50250 0.76900 0.95680 0.09700
H 	H 	0.46570 0.76300 0.92150 -0.00600
H 	H 	0.53490 0.72580 0.95580 -0.01700
C 	C 	0.54680 0.83500 0.94260 -0.07100
H 	H 	0.51420 0.87720 0.93520 0.03000
H 	H 	0.57600 0.82720 0.90220 0.03900
C 	C 	0.60060 0.85140 0.00420 -0.50700
H 	H 	0.61720 0.90270 0.00520 0.14800
H 	H 	0.64340 0.81840 0.00500 0.14800
Ag	Ag	0.33853 0.62509 0.84612 0.53000
Si	Si	0.37575 0.00795 0.86529 0.87700
Si	Si	0.04669 0.50959 0.64992 0.89800
N 	N 	0.34760 0.75230 0.85330 -0.15200
N 	N 	0.56530 0.09660 0.73050 -0.14700
N 	N 	0.23930 0.58430 0.78770 -0.15500
N 	N 	0.13060 0.41830 0.44740 -0.15700
C 	C 	0.32050 0.79270 0.90350 -0.03300
H 	H 	0.29530 0.76800 0.93780 0.01600
C 	C 	0.32700 0.86630 0.90830 0.04600
H 	H 	0.30520 0.89110 0.94430 -0.01400
C 	C 	0.36600 0.90630 0.86010 -0.29000
C 	C 	0.39500 0.86330 0.80860 0.05100
H 	H 	0.42220 0.88590 0.77440 -0.00700
C 	C 	0.38440 0.78900 0.80760 -0.02800
H 	H 	0.40460 0.76230 0.77190 0.01900
C 	C 	0.49450 0.10070 0.71270 -0.05300
H 	H 	0.48310 0.12340 0.67200 0.02600
C 	C 	0.43780 0.07400 0.75000 0.06900
H 	H 	0.38900 0.07910 0.73480 -0.02500
C 	C 	0.45110 0.03990 0.80930 -0.30400
C 	C 	0.52450 0.03580 0.82830 0.05900
H 	H 	0.53770 0.01300 0.86860 -0.01900
C 	C 	0.57700 0.06490 0.78820 -0.03900
H 	H 	0.62610 0.06220 0.80300 0.02800
C 	C 	0.28610 0.05480 0.85020 -0.52400
H 	H 	0.29020 0.09100 0.81420 0.15200
H 	H 	0.24740 0.01930 0.83910 0.15700
C 	C 	0.27130 0.09120 0.91550 0.02600
H 	H 	0.26860 0.14440 0.90730 0.00500
H 	H 	0.22210 0.07560 0.93010 0.00700
C 	C 	0.31720 0.08080 0.96590 0.01700
H 	H 	0.29000 0.05530 0.00130 0.00700
H 	H 	0.33110 0.12920 0.98340 0.01000
C 	C 	0.38650 0.03860 0.95300 -0.52100
H 	H 	0.39080 0.99630 0.98310 0.15900
H 	H 	0.43010 0.07000 0.95820 0.15600
C 	C 	0.20330 0.52190 0.79930 -0.04100
H 	H 	0.21680 0.49350 0.83650 0.02000
C 	C 	0.14750 0.49740 0.75930 0.06900
H 	H 	0.12410 0.45260 0.76950 -0.02300
C 	C 	0.12470 0.53660 0.70430 -0.30100
C 	C 	0.16260 0.60260 0.69400 0.05600
H 	H 	0.14970 0.63330 0.65810 -0.01200
C 	C 	0.21860 0.62280 0.73610 -0.02600
H 	H 	0.24360 0.66710 0.72730 0.01900
C 	C 	0.06030 0.41950 0.46380 -0.04700
H 	H 	0.02580 0.40030 0.43360 0.02200
C 	C 	0.03510 0.44740 0.52320 0.06300
H 	H 	0.98420 0.44690 0.53230 -0.02100
C 	C 	0.08240 0.47580 0.56900 -0.31400
C 	C 	0.15420 0.47660 0.54940 0.06900
H 	H 	0.19020 0.49670 0.57770 -0.01400
C 	C 	0.17460 0.44860 0.48930 -0.03900
H 	H 	0.22470 0.45180 0.47760 0.01500
C 	C 	0.97800 0.58480 0.64000 -0.50600
H 	H 	0.99890 0.63280 0.65190 0.15600
H 	H 	0.95840 0.58680 0.59460 0.15500
C 	C 	0.91910 0.55990 0.69020 -0.02700
H 	H 	0.93470 0.57270 0.73550 0.02500
H 	H 	0.87240 0.58520 0.68100 0.02300
C 	C 	0.90860 0.48010 0.68490 0.07300
H 	H 	0.88510 0.46800 0.64240 -0.01100
H 	H 	0.87650 0.46280 0.72090 -0.01400
C 	C 	0.98260 0.44310 0.68950 -0.55200
H 	H 	0.98250 0.39610 0.66560 0.16700
H 	H 	0.99630 0.43420 0.73600 0.16800
Ag	Ag	0.16147 0.37491 0.34612 0.53000
Si	Si	0.12425 0.99205 0.36529 0.87400
Si	Si	0.45331 0.49041 0.14992 0.90100
N 	N 	0.15240 0.24770 0.35330 -0.15300
N 	N 	0.93470 0.90340 0.23050 -0.14400
N 	N 	0.26070 0.41570 0.28770 -0.15500
N 	N 	0.36940 0.58170 0.94740 -0.15700
C 	C 	0.17950 0.20730 0.40350 -0.03200
H 	H 	0.20470 0.23200 0.43780 0.01600
C 	C 	0.17300 0.13370 0.40830 0.04400
H 	H 	0.19480 0.10890 0.44430 -0.01300
C 	C 	0.13400 0.09370 0.36010 -0.28600
C 	C 	0.10500 0.13670 0.30860 0.05000
H 	H 	0.07780 0.11410 0.27440 -0.00500
C 	C 	0.11560 0.21100 0.30760 -0.02700
H 	H 	0.09540 0.23770 0.27190 0.01900
C 	C 	0.00550 0.89930 0.21270 -0.05700
H 	H 	0.01690 0.87660 0.17200 0.02700
C 	C 	0.06220 0.92600 0.25000 0.07200
H 	H 	0.11100 0.92090 0.23480 -0.02700
C 	C 	0.04890 0.96010 0.30930 -0.30900
C 	C 	0.97550 0.96420 0.32830 0.06500
H 	H 	0.96230 0.98700 0.36860 -0.02000
C 	C 	0.92300 0.93510 0.28820 -0.04100
H 	H 	0.87390 0.93780 0.30300 0.02900
C 	C 	0.21390 0.94520 0.35020 -0.51700
H 	H 	0.20980 0.90900 0.31420 0.15000
H 	H 	0.25260 0.98070 0.33910 0.15400
C 	C 	0.22870 0.90880 0.41550 0.01300
H 	H 	0.23140 0.85560 0.40730 0.00900
H 	H 	0.27790 0.92440 0.43010 0.01100
C 	C 	0.18280 0.91920 0.46590 0.03300
H 	H 	0.21000 0.94470 0.50130 0.00100
H 	H 	0.16890 0.87080 0.48340 0.00500
C 	C 	0.11350 0.96140 0.45300 -0.53200
H 	H 	0.10920 0.00370 0.48310 0.16400
H 	H 	0.06990 0.93000 0.45820 0.15900
C 	C 	0.29670 0.47810 0.29930 -0.04200
H 	H 	0.28320 0.50650 0.33650 0.02100
C 	C 	0.35250 0.50260 0.25930 0.06900
H 	H 	0.37590 0.54740 0.26950 -0.02300
C 	C 	0.37530 0.46340 0.20430 -0.30100
C 	C 	0.33740 0.39740 0.19400 0.05600
H 	H 	0.35030 0.36670 0.15810 -0.01200
C 	C 	0.28140 0.37720 0.23610 -0.02600
H 	H 	0.25640 0.33290 0.22730 0.01900
C 	C 	0.43970 0.58050 0.96380 -0.04800
H 	H 	0.47420 0.59970 0.93360 0.02200
C 	C 	0.46490 0.55260 0.02320 0.06500
H 	H 	0.51580 0.55310 0.03230 -0.02200
C 	C 	0.41760 0.52420 0.06900 -0.31500
C 	C 	0.34580 0.52340 0.04940 0.07100
H 	H 	0.30980 0.50330 0.07770 -0.01500
C 	C 	0.32540 0.55140 0.98930 -0.04000
H 	H 	0.27530 0.54820 0.97760 0.01500
C 	C 	0.52200 0.41520 0.14000 -0.50700
H 	H 	0.50110 0.36720 0.15190 0.15600
H 	H 	0.54160 0.41320 0.09460 0.15500
C 	C 	0.58090 0.44010 0.19020 -0.02700
H 	H 	0.56530 0.42730 0.23550 0.02500
H 	H 	0.62760 0.41480 0.18100 0.02300
C 	C 	0.59140 0.51990 0.18490 0.07300
H 	H 	0.61490 0.53200 0.14240 -0.01200
H 	H 	0.62350 0.53720 0.22090 -0.01400
C 	C 	0.51740 0.55690 0.18950 -0.55400
H 	H 	0.51750 0.60390 0.16560 0.16700
H 	H 	0.50370 0.56580 0.23600 0.16800
Ag	Ag	0.66147 0.12509 0.65388 0.53000
Si	Si	0.62425 0.50795 0.63471 0.87600
Si	Si	0.95331 0.00959 0.85008 0.90000
N 	N 	0.65240 0.25230 0.64670 -0.15200
N 	N 	0.43470 0.59660 0.76950 -0.14700
N 	N 	0.76070 0.08430 0.71230 -0.15300
N 	N 	0.86940 0.91830 0.05260 -0.15500
C 	C 	0.67950 0.29270 0.59650 -0.03200
H 	H 	0.70470 0.26800 0.56220 0.01600
C 	C 	0.67300 0.36630 0.59170 0.04500
H 	H 	0.69480 0.39110 0.55570 -0.01300
C 	C 	0.63400 0.40630 0.63990 -0.28900
C 	C 	0.60500 0.36330 0.69140 0.05100
H 	H 	0.57780 0.38590 0.72560 -0.00700
C 	C 	0.61560 0.28900 0.69240 -0.02700
H 	H 	0.59540 0.26230 0.72810 0.01900
C 	C 	0.50550 0.60070 0.78730 -0.05300
H 	H 	0.51690 0.62340 0.82800 0.02600
C 	C 	0.56220 0.57400 0.75000 0.06800
H 	H 	0.61100 0.57910 0.76520 -0.02500
C 	C 	0.54890 0.53990 0.69070 -0.30400
C 	C 	0.47550 0.53580 0.67170 0.05900
H 	H 	0.46230 0.51300 0.63140 -0.01900
C 	C 	0.42300 0.56490 0.71180 -0.03900
H 	H 	0.37390 0.56220 0.69700 0.02800
C 	C 	0.71390 0.55480 0.64980 -0.52000
H 	H 	0.70980 0.59100 0.68580 0.15100
H 	H 	0.75260 0.51930 0.66090 0.15500
C 	C 	0.72870 0.59120 0.58450 0.01900
H 	H 	0.73140 0.64440 0.59270 0.00700
H 	H 	0.77790 0.57560 0.56990 0.01000
C 	C 	0.68280 0.58080 0.53410 0.02600
H 	H 	0.71000 0.55530 0.49870 0.00400
H 	H 	0.66890 0.62920 0.51660 0.00800
C 	C 	0.61350 0.53860 0.54700 -0.52500
H 	H 	0.60920 0.49630 0.51690 0.16000
H 	H 	0.56990 0.57000 0.54180 0.15700
C 	C 	0.79670 0.02190 0.70070 -0.05100
H 	H 	0.78320 0.99350 0.66350 0.02500
C 	C 	0.85250 0.99740 0.74070 0.08000
H 	H 	0.87590 0.95260 0.73050 -0.02500
C 	C 	0.87530 0.03660 0.79570 -0.30700
C 	C 	0.83740 0.10260 0.80600 0.05900
H 	H 	0.85030 0.13330 0.84190 -0.01400
C 	C 	0.78140 0.12280 0.76390 -0.02800
H 	H 	0.75640 0.16710 0.77270 0.01900
C 	C 	0.93970 0.91950 0.03620 -0.05400
H 	H 	0.97420 0.90030 0.06640 0.02500
C 	C 	0.96490 0.94740 0.97680 0.07700
H 	H 	0.01580 0.94690 0.96770 -0.02900
C 	C 	0.91760 0.97580 0.93100 -0.31700
C 	C 	0.84580 0.97660 0.95060 0.07400
H 	H 	0.80980 0.99670 0.92230 -0.01500
C 	C 	0.82540 0.94860 0.01070 -0.04300
H 	H 	0.77530 0.95180 0.02240 0.01600
C 	C 	0.02200 0.08480 0.86000 -0.50700
H 	H 	0.00110 0.13280 0.84810 0.15600
H 	H 	0.04160 0.08680 0.90540 0.15500
C 	C 	0.08090 0.05990 0.80980 -0.02300
H 	H 	0.06530 0.07270 0.76450 0.02500
H 	H 	0.12760 0.08520 0.81900 0.02200
C 	C 	0.09140 0.98010 0.81510 0.06900
H 	H 	0.11490 0.96800 0.85760 -0.01100
H 	H 	0.12350 0.96280 0.77910 -0.01400
C 	C 	0.01740 0.94310 0.81050 -0.55300
H 	H 	0.01750 0.89610 0.83440 0.16600
H 	H 	0.00370 0.93420 0.76400 0.16700
Ag	Ag	0.83853 0.87491 0.15388 0.53100
Si	Si	0.87575 0.49205 0.13471 0.87600
Si	Si	0.54669 0.99041 0.35008 0.90000
N 	N 	0.84760 0.74770 0.14670 -0.15200
N 	N 	0.06530 0.40340 0.26950 -0.14600
N 	N 	0.73930 0.91570 0.21230 -0.15500
N 	N 	0.63060 0.08170 0.55260 -0.15700
C 	C 	0.82050 0.70730 0.09650 -0.03300
H 	H 	0.79530 0.73200 0.06220 0.01600
C 	C 	0.82700 0.63370 0.09170 0.04500
H 	H 	0.80520 0.60890 0.05570 -0.01400
C 	C 	0.86600 0.59370 0.13990 -0.28900
C 	C 	0.89500 0.63670 0.19140 0.05100
H 	H 	0.92220 0.61410 0.22560 -0.00700
C 	C 	0.88440 0.71100 0.19240 -0.02800
H 	H 	0.90460 0.73770 0.22810 0.01900
C 	C 	0.99450 0.39930 0.28730 -0.05300
H 	H 	0.98310 0.37660 0.32800 0.02600
C 	C 	0.93780 0.42600 0.25000 0.06900
H 	H 	0.88900 0.42090 0.26520 -0.02500
C 	C 	0.95110 0.46010 0.19070 -0.30400
C 	C 	0.02450 0.46420 0.17170 0.05900
H 	H 	0.03770 0.48700 0.13140 -0.01900
C 	C 	0.07700 0.43510 0.21180 -0.03900
H 	H 	0.12610 0.43780 0.19700 0.02900
C 	C 	0.78610 0.44520 0.14980 -0.52100
H 	H 	0.79020 0.40900 0.18580 0.15100
H 	H 	0.74740 0.48070 0.16090 0.15500
C 	C 	0.77130 0.40880 0.08450 0.02000
H 	H 	0.76860 0.35560 0.09270 0.00700
H 	H 	0.72210 0.42440 0.06990 0.00900
C 	C 	0.81720 0.41920 0.03410 0.02400
H 	H 	0.79000 0.44470 0.99870 0.00400
H 	H 	0.83110 0.37080 0.01660 0.00800
C 	C 	0.88650 0.46140 0.04700 -0.52400
H 	H 	0.89080 0.50370 0.01690 0.16000
H 	H 	0.93010 0.43000 0.04180 0.15700
C 	C 	0.70330 0.97810 0.20070 -0.04100
H 	H 	0.71680 0.00650 0.16350 0.02000
C 	C 	0.64750 0.00260 0.24070 0.06900
H 	H 	0.62410 0.04740 0.23050 -0.02300
C 	C 	0.62470 0.96340 0.29570 -0.30100
C 	C 	0.66260 0.89740 0.30600 0.05600
H 	H 	0.64970 0.86670 0.34190 -0.01200
C 	C 	0.71860 0.87720 0.26390 -0.02600
H 	H 	0.74360 0.83290 0.27270 0.01900
C 	C 	0.56030 0.08050 0.53620 -0.04700
H 	H 	0.52580 0.09970 0.56640 0.02200
C 	C 	0.53510 0.05260 0.47680 0.06400
H 	H 	0.48420 0.05310 0.46770 -0.02100
C 	C 	0.58240 0.02420 0.43100 -0.31400
C 	C 	0.65420 0.02340 0.45060 0.06900
H 	H 	0.69020 0.00330 0.42230 -0.01400
C 	C 	0.67460 0.05140 0.51070 -0.03900
H 	H 	0.72470 0.04820 0.52240 0.01500
C 	C 	0.47800 0.91520 0.36000 -0.50600
H 	H 	0.49890 0.86720 0.34810 0.15500
H 	H 	0.45840 0.91320 0.40540 0.15400
C 	C 	0.41910 0.94010 0.30980 -0.03000
H 	H 	0.43470 0.92730 0.26450 0.02600
H 	H 	0.37240 0.91480 0.31900 0.02300
C 	C 	0.40860 0.01990 0.31510 0.07600
H 	H 	0.38510 0.03200 0.35760 -0.01200
H 	H 	0.37650 0.03720 0.27910 -0.01400
C 	C 	0.48260 0.05690 0.31050 -0.55400
H 	H 	0.48250 0.10390 0.33440 0.16700
H 	H 	0.49630 0.06580 0.26400 0.16800
