data_crystal

_cell_length_a 37.70690
_cell_length_b 37.70690
_cell_length_c 37.70690
_cell_angle_alpha 60.07030
_cell_angle_beta  75.49110
_cell_angle_gamma 104.50900

_symmetry_space_group_name_	'P 1'
_symmetry_space_group_name_H-M	'P 1'

loop_
_symmetry_equiv_pos_as_xyz
  x,y,z

loop_
_atom_site_label
_atom_site_type_symbol
_atom_site_fract_x
_atom_site_fract_y
_atom_site_fract_z
_atom_site_charge
Cu	Cu	-0.00000 0.21535 0.78465 0.90500
Cu	Cu	0.75568 0.12784 0.37216 0.90800
Cu	Cu	0.67526 0.08763 0.41237 0.92800
Cu	Cu	0.50000 0.37216 0.87216 0.90800
Cu	Cu	0.50000 0.62784 0.12784 0.90800
Cu	Cu	0.24432 0.87216 0.62784 0.90800
Cu	Cu	-0.00000 0.78465 0.21535 0.90500
Cu	Cu	0.50000 0.41237 0.91237 0.92800
Cu	Cu	-0.00000 0.71535 0.28465 0.90500
Cu	Cu	-0.00000 0.28465 0.71535 0.90400
Cu	Cu	0.32474 0.91237 0.58763 0.92700
Cu	Cu	0.50000 0.58763 0.08763 0.92700
H 	H 	0.78130 0.08340 0.55010 0.07600
H 	H 	0.34160 0.72170 0.65010 0.07600
H 	H 	0.68430 0.75000 0.56570 0.11400
H 	H 	0.22610 0.93740 0.31630 0.10600
H 	H 	0.60170 0.01920 0.41750 0.03300
H 	H 	0.52730 0.04560 0.51830 0.06000
H 	H 	0.41610 0.62200 0.03250 0.03200
H 	H 	0.39830 0.98080 0.58250 0.03200
H 	H 	0.65840 0.15010 0.22170 0.07600
H 	H 	0.65450 0.12200 0.29410 0.03200
H 	H 	0.58940 0.33040 0.89220 0.03400
H 	H 	0.36650 0.44990 0.33140 0.07500
H 	H 	0.22610 0.18370 0.56260 0.10600
H 	H 	0.56390 0.54560 0.98170 0.06000
H 	H 	0.77390 0.45760 0.28870 0.10700
H 	H 	0.22260 0.74100 0.66960 0.03300
H 	H 	0.25370 0.04240 0.18370 0.10600
H 	H 	0.31570 0.56570 0.75000 0.11400
H 	H 	0.77390 0.21130 0.04240 0.10700
H 	H 	0.09370 0.28690 0.80140 0.02900
H 	H 	0.58940 0.75900 0.01840 0.03300
H 	H 	0.41060 0.39220 0.83040 0.03400
H 	H 	0.86060 0.80650 0.33590 0.08200
H 	H 	0.34550 0.05140 0.53250 0.03200
H 	H 	0.85760 0.66410 0.19650 0.08200
H 	H 	0.09370 0.89510 0.19320 0.02900
H 	H 	0.91170 0.60490 0.30140 0.03200
H 	H 	0.77740 0.16960 0.24100 0.03400
H 	H 	0.41610 0.44860 0.20590 0.03200
H 	H 	0.90630 0.71310 0.19860 0.03200
H 	H 	0.25370 0.43740 0.78870 0.10600
H 	H 	0.41060 0.51840 0.25900 0.03400
H 	H 	0.58940 0.48160 0.74100 0.03400
H 	H 	0.21870 0.80210 0.83140 0.07500
H 	H 	0.36650 0.41660 0.80210 0.07500
H 	H 	0.74630 0.28870 0.93740 0.10700
H 	H 	0.65840 0.27830 0.34990 0.07600
H 	H 	0.77740 0.01840 0.39220 0.03500
H 	H 	0.13940 0.19350 0.66410 0.08100
H 	H 	0.37180 0.65010 0.00830 0.07600
H 	H 	0.14240 0.69650 0.16410 0.08100
H 	H 	0.68430 0.43430 0.25000 0.11400
H 	H 	0.08830 0.80140 0.10490 0.02900
H 	H 	0.91170 0.21310 0.69320 0.03200
H 	H 	0.43610 0.48170 0.04560 0.06000
H 	H 	0.77740 0.25900 0.33040 0.03400
H 	H 	0.22610 0.78870 0.95760 0.10600
H 	H 	0.56330 0.58250 0.01920 0.03200
H 	H 	0.63350 0.55010 0.66860 0.07600
H 	H 	0.86060 0.16410 0.69350 0.08200
H 	H 	0.60170 0.08250 0.48080 0.03300
H 	H 	0.37180 0.22170 0.11990 0.07600
H 	H 	0.86060 0.55410 0.30350 0.08200
H 	H 	0.31570 0.25000 0.43430 0.11400
H 	H 	0.65840 0.88010 0.49170 0.07600
H 	H 	0.58390 0.53250 0.12200 0.03200
H 	H 	0.41610 0.46750 0.87800 0.03200
H 	H 	0.22610 0.54240 0.71130 0.10600
H 	H 	0.43670 0.51920 0.08250 0.03200
H 	H 	0.09370 0.69860 0.21310 0.02900
H 	H 	0.34160 0.84990 0.77830 0.07600
H 	H 	0.41060 0.24100 0.98160 0.03400
H 	H 	0.58390 0.37800 0.96750 0.03200
H 	H 	0.78130 0.33140 0.30210 0.07600
H 	H 	0.74630 0.95760 0.81630 0.10700
H 	H 	0.13940 0.80350 0.05410 0.08100
H 	H 	0.90630 0.10490 0.80680 0.03200
H 	H 	0.34550 0.87800 0.70590 0.03200
H 	H 	0.31570 0.06570 0.25000 0.11400
H 	H 	0.74630 0.68370 0.54240 0.10700
H 	H 	0.91170 0.19860 0.89510 0.03200
H 	H 	0.47270 0.95440 0.48170 0.06000
H 	H 	0.85760 0.69350 0.44590 0.08200
H 	H 	0.21870 0.66860 0.69790 0.07500
H 	H 	0.52730 0.98170 0.45440 0.05900
H 	H 	0.63350 0.30210 0.91660 0.07600
H 	H 	0.78130 0.94990 0.41660 0.07600
H 	H 	0.56330 0.48080 0.91750 0.03300
H 	H 	0.09370 0.30680 0.60490 0.02900
H 	H 	0.90630 0.30140 0.78690 0.03200
H 	H 	0.13940 0.44590 0.69650 0.08100
H 	H 	0.65450 0.03250 0.55140 0.03200
H 	H 	0.86060 0.19650 0.94590 0.08200
H 	H 	0.22260 0.89220 0.51840 0.03300
H 	H 	0.58390 0.70590 0.94860 0.03300
H 	H 	0.56390 0.51830 0.95440 0.06000
H 	H 	0.34550 0.79410 0.62200 0.03200
H 	H 	0.34550 0.96750 0.44860 0.03200
H 	H 	0.08830 0.19320 0.71310 0.02900
H 	H 	0.58390 0.55140 0.79410 0.03200
H 	H 	0.77390 0.81630 0.43740 0.10700
H 	H 	0.85760 0.05410 0.80650 0.08200
H 	H 	0.58940 0.60780 0.16960 0.03400
H 	H 	0.37180 0.38010 0.27830 0.07600
H 	H 	0.36650 0.16860 0.05010 0.07500
H 	H 	0.63350 0.83140 0.94990 0.07600
H 	H 	0.77390 0.06260 0.68370 0.10700
H 	H 	0.91170 0.80680 0.28690 0.03200
H 	H 	0.31570 0.75000 0.93430 0.11400
H 	H 	0.85760 0.30350 0.83590 0.08200
H 	H 	0.21870 0.91660 0.44990 0.07500
H 	H 	0.25370 0.31630 0.45760 0.10600
H 	H 	0.43670 0.41750 0.98080 0.03300
H 	H 	0.25370 0.71130 0.06260 0.10600
H 	H 	0.13940 0.83590 0.30650 0.08100
H 	H 	0.63350 0.58340 0.19790 0.07600
H 	H 	0.62820 0.77830 0.88010 0.07700
H 	H 	0.08830 0.78690 0.30680 0.02900
H 	H 	0.36650 0.69790 0.08340 0.07500
H 	H 	0.90630 0.69320 0.39510 0.03200
H 	H 	0.37180 0.49170 0.84990 0.07600
H 	H 	0.65450 0.94860 0.46750 0.03200
H 	H 	0.68430 0.93430 0.75000 0.11400
H 	H 	0.77740 0.10780 0.48160 0.03400
H 	H 	0.08830 0.39510 0.69860 0.02900
H 	H 	0.21870 0.05010 0.58340 0.07500
H 	H 	0.34160 0.11990 0.50830 0.07600
H 	H 	0.65840 0.00830 0.61990 0.07600
H 	H 	0.41060 0.66960 0.10780 0.03400
H 	H 	0.78130 0.19790 0.16860 0.07600
H 	H 	0.39830 0.91750 0.51920 0.03200
H 	H 	0.14240 0.94590 0.19350 0.08100
H 	H 	0.65450 0.20590 0.37800 0.03200
H 	H 	0.22260 0.83040 0.75900 0.03300
H 	H 	0.62820 0.61990 0.72170 0.07600
H 	H 	0.14240 0.30650 0.55410 0.08100
H 	H 	0.34160 0.99170 0.38010 0.07600
H 	H 	0.14240 0.33590 0.80350 0.08100
H 	H 	0.62820 0.50830 0.15010 0.07600
H 	H 	0.68430 0.25000 0.06570 0.11400
H 	H 	0.22260 0.98160 0.60780 0.03300
H 	H 	0.41610 0.29410 0.05140 0.03200
H 	H 	0.74630 0.56260 0.21130 0.10700
H 	H 	0.43610 0.45440 0.01830 0.05900
H 	H 	0.47270 0.01830 0.54560 0.06000
H 	H 	0.62820 0.34990 0.99170 0.07700
C 	C 	0.44700 0.53330 0.18050 0.34500
C 	C 	0.08610 0.33610 0.75000 -0.10700
C 	C 	0.59718 0.50951 0.73713 0.04700
C 	C 	0.10298 0.71878 0.18120 0.05400
C 	C 	0.45800 0.99860 0.54060 -0.08400
C 	C 	0.37649 0.68259 0.07310 -0.12000
C 	C 	0.91390 0.75000 0.33610 -0.10300
C 	C 	0.27980 0.68817 0.67675 0.07200
C 	C 	0.50000 0.51048 0.01048 0.03300
C 	C 	0.46080 0.45940 0.99860 -0.08300
C 	C 	0.85630 0.25000 0.89370 0.08600
C 	C 	0.62030 0.52825 0.15415 -0.12000
C 	C 	0.94750 0.75000 0.30250 0.37500
C 	C 	0.27140 0.55770 0.72950 0.15100
C 	C 	0.27560 0.17230 0.51430 -0.05500
C 	C 	0.86860 0.28270 0.84650 -0.13300
C 	C 	0.76320 0.01320 0.75000 0.12200
C 	C 	0.87080 0.15350 0.71510 -0.13300
C 	C 	0.82650 0.75000 0.42350 -0.03100
C 	C 	0.62351 0.55041 0.69390 -0.12000
C 	C 	0.74170 0.96830 0.79020 -0.20200
C 	C 	0.70470 0.95470 0.75000 -0.22300
C 	C 	0.28620 0.87250 0.68050 0.34500
C 	C 	0.72020 0.04345 0.59163 0.07300
C 	C 	0.55300 0.46670 0.81950 0.34500
C 	C 	0.25830 0.29020 0.46830 -0.20200
C 	C 	0.31340 0.48570 0.78990 -0.05500
C 	C 	0.62351 0.80610 0.94959 -0.12000
C 	C 	0.62030 0.77445 0.90795 -0.12000
C 	C 	0.33720 0.36470 0.35710 -0.01500
C 	C 	0.75850 0.79020 0.46810 -0.20200
C 	C 	0.75336 0.26287 0.33431 0.04700
C 	C 	0.37649 0.44959 0.30610 -0.12000
C 	C 	0.89702 0.11580 0.78418 0.05300
C 	C 	0.41310 0.93720 0.52410 0.03000
C 	C 	0.45800 0.95940 0.50140 -0.08400
C 	C 	0.08610 0.83610 0.25000 -0.10700
C 	C 	0.76320 0.25000 0.98680 0.12200
C 	C 	0.17350 0.42350 0.75000 -0.03200
C 	C 	0.40603 0.26877 0.05114 0.04700
C 	C 	0.70470 0.45470 0.25000 -0.22400
C 	C 	0.72440 0.21010 0.10330 -0.05400
C 	C 	0.87080 0.78490 0.34650 -0.13300
C 	C 	0.71280 0.71370 0.55770 0.15200
C 	C 	0.75569 0.94959 0.42690 -0.11900
C 	C 	0.82650 0.25000 0.92350 -0.03000
C 	C 	0.85630 0.60630 0.25000 0.08600
C 	C 	0.59397 0.73123 0.94886 0.04700
C 	C 	0.37970 0.22555 0.09205 -0.12000
C 	C 	0.24664 0.00951 0.58767 0.04700
C 	C 	0.68009 0.13726 0.26877 0.04700
C 	C 	0.08610 0.75000 0.16390 -0.10700
C 	C 	0.41759 0.42747 0.85696 -0.11100
C 	C 	0.85630 0.10630 0.75000 0.08600
C 	C 	0.66280 0.52750 0.19430 -0.01500
C 	C 	0.37970 0.47175 0.84585 -0.12000
C 	C 	0.36492 0.45655 0.82325 0.07200
C 	C 	0.23680 0.25000 0.51320 0.12100
C 	C 	0.89998 0.21878 0.88420 0.05300
C 	C 	0.13140 0.28490 0.58590 -0.13600
C 	C 	0.71280 0.27050 0.00090 0.15000
C 	C 	0.40282 0.23713 0.00951 0.04600
C 	C 	0.27820 0.64290 0.69430 -0.01500
C 	C 	0.71380 0.12750 0.31950 0.34500
C 	C 	0.47904 0.98952 0.51048 0.03300
C 	C 	0.71557 0.22545 0.35696 -0.11100
C 	C 	0.71380 0.08630 0.46670 0.34500
C 	C 	0.28443 0.92747 0.49012 -0.11100
C 	C 	0.79780 0.75000 0.45220 -0.03100
C 	C 	0.12920 0.21510 0.65350 -0.13600
C 	C 	0.23680 0.75000 0.01320 0.12100
C 	C 	0.68009 0.04283 0.55114 0.04700
C 	C 	0.12920 0.78270 0.08590 -0.13600
C 	C 	0.28443 0.77455 0.64304 -0.11100
C 	C 	0.68009 0.23123 0.36274 0.04700
C 	C 	0.58241 0.57253 0.14304 -0.11100
C 	C 	0.68240 0.15415 0.22555 -0.12000
C 	C 	0.72860 0.44230 0.27050 0.15200
C 	C 	0.28720 0.72950 0.99910 0.15300
C 	C 	0.68240 0.90795 0.47175 -0.12000
C 	C 	0.75569 0.07310 0.55041 -0.12000
C 	C 	0.20220 0.25000 0.54780 -0.03200
C 	C 	0.08610 0.25000 0.66390 -0.10700
C 	C 	0.87080 0.21730 0.91410 -0.13300
C 	C 	0.27820 0.97250 0.36470 -0.01500
C 	C 	0.28620 0.91370 0.53330 0.34500
C 	C 	0.50000 0.48952 0.98952 0.03300
C 	C 	0.70470 0.25000 0.04530 -0.22300
C 	C 	0.10002 0.21582 0.68120 0.05400
C 	C 	0.55300 0.37250 0.91370 0.34500
C 	C 	0.68009 0.94886 0.45717 0.04700
C 	C 	0.79780 0.25000 0.95220 -0.03100
C 	C 	0.27140 0.21370 0.49910 0.15100
C 	C 	0.44700 0.62750 0.08630 0.34500
C 	C 	0.31760 0.84585 0.77445 -0.12000
C 	C 	0.23680 0.48680 0.75000 0.12100
C 	C 	0.31340 0.32770 0.39670 -0.05500
C 	C 	0.33720 0.47250 0.80570 -0.01500
C 	C 	0.75850 0.03190 0.70980 -0.20100
C 	C 	0.05250 0.30250 0.75000 0.37600
C 	C 	0.86860 0.71510 0.41410 -0.13300
C 	C 	0.66280 0.30570 0.97250 -0.01500
C 	C 	0.70470 0.75000 0.54530 -0.22400
C 	C 	0.62351 0.31741 0.92690 -0.12000
C 	C 	0.14370 0.89370 0.25000 0.08600
C 	C 	0.20220 0.45220 0.75000 -0.03200
C 	C 	0.71557 0.14304 0.27455 -0.11100
C 	C 	0.89702 0.68120 0.21878 0.05300
C 	C 	0.37649 0.19390 0.05041 -0.11900
C 	C 	0.27140 0.00090 0.28630 0.15300
C 	C 	0.05250 0.25000 0.69750 0.37600
C 	C 	0.20220 0.95220 0.25000 -0.03200
C 	C 	0.28443 0.85696 0.72545 -0.11100
C 	C 	0.58241 0.50988 0.77455 -0.11100
C 	C 	0.41310 0.97590 0.56280 0.03000
C 	C 	0.63508 0.54345 0.17675 0.07200
C 	C 	0.33720 0.14290 0.13530 -0.01500
C 	C 	0.68660 0.67230 0.60330 -0.05400
C 	C 	0.54200 0.04060 0.49860 -0.08400
C 	C 	0.71557 0.07253 0.50988 -0.11100
C 	C 	0.31340 0.10330 0.17230 -0.05500
C 	C 	0.72020 0.31183 0.32325 0.07200
C 	C 	0.31991 0.05114 0.54283 0.04700
C 	C 	0.05250 0.75000 0.19750 0.37600
C 	C 	0.72180 0.35710 0.30570 -0.01400
C 	C 	0.94750 0.25000 0.80250 0.37500
C 	C 	0.10002 0.78122 0.11580 0.05400
C 	C 	0.94750 0.19750 0.75000 0.37500
C 	C 	0.25830 0.46810 0.77340 -0.20200
C 	C 	0.40603 0.63726 0.04283 0.04700
C 	C 	0.40282 0.49049 0.26287 0.04700
C 	C 	0.72180 0.86470 0.47250 -0.01400
C 	C 	0.72020 0.17675 0.18817 0.07200
C 	C 	0.94750 0.69750 0.25000 0.37500
C 	C 	0.24431 0.69390 0.68259 -0.12000
C 	C 	0.75336 0.16569 0.23713 0.04700
C 	C 	0.91390 0.66390 0.25000 -0.10300
C 	C 	0.05250 0.80250 0.25000 0.37600
C 	C 	0.68240 0.27445 0.34585 -0.12000
C 	C 	0.79780 0.04780 0.75000 -0.03100
C 	C 	0.76320 0.51320 0.25000 0.12200
C 	C 	0.62030 0.59205 0.72555 -0.12000
C 	C 	0.58241 0.72545 0.99012 -0.11100
C 	C 	0.14370 0.25000 0.60630 0.08600
C 	C 	0.58690 0.06280 0.47590 0.03000
C 	C 	0.91390 0.25000 0.83610 -0.10300
C 	C 	0.75336 0.08767 0.50951 0.04700
C 	C 	0.85630 0.75000 0.39370 0.08600
C 	C 	0.53920 0.49860 0.95940 -0.08400
C 	C 	0.37970 0.40795 0.27445 -0.12000
C 	C 	0.28720 0.28630 0.44230 0.15100
C 	C 	0.31760 0.09205 0.52825 -0.12100
C 	C 	0.71380 0.18050 0.37250 0.34500
C 	C 	0.40603 0.44886 0.23123 0.04700
C 	C 	0.27980 0.82325 0.81183 0.07200
C 	C 	0.72440 0.39670 0.28990 -0.05400
C 	C 	0.82650 0.57650 0.25000 -0.03100
C 	C 	0.12920 0.84650 0.28490 -0.13600
C 	C 	0.27820 0.80570 0.85710 -0.01500
C 	C 	0.24150 0.96810 0.29020 -0.20300
C 	C 	0.29530 0.75000 0.95470 -0.22400
C 	C 	0.10002 0.81880 0.28418 0.05400
C 	C 	0.36492 0.67675 0.04345 0.07200
C 	C 	0.72440 0.01430 0.67230 -0.05300
C 	C 	0.10298 0.88420 0.21582 0.05400
C 	C 	0.76320 0.75000 0.48680 0.12200
C 	C 	0.58690 0.02410 0.43720 0.03000
C 	C 	0.28720 0.05770 0.21370 0.15200
C 	C 	0.29530 0.25000 0.45470 -0.22400
C 	C 	0.63508 0.59163 0.68817 0.07200
C 	C 	0.31991 0.86274 0.73123 0.04700
C 	C 	0.40282 0.41233 0.83431 0.04700
C 	C 	0.13140 0.71730 0.15350 -0.13600
C 	C 	0.36492 0.40837 0.31183 0.07200
C 	C 	0.27560 0.60330 0.71010 -0.05500
C 	C 	0.82650 0.07650 0.75000 -0.03000
C 	C 	0.53870 0.56280 0.02410 0.03000
C 	C 	0.52096 0.01048 0.48952 0.03300
C 	C 	0.58241 0.35696 0.92747 -0.11100
C 	C 	0.41759 0.27455 0.00988 -0.11100
C 	C 	0.72180 0.02750 0.63530 -0.01500
C 	C 	0.86860 0.08590 0.78490 -0.13300
C 	C 	0.28620 0.96670 0.58630 0.34500
C 	C 	0.59718 0.58767 0.16569 0.04700
C 	C 	0.31991 0.76877 0.63726 0.04700
C 	C 	0.27980 0.95655 0.40837 0.07200
C 	C 	0.23680 0.98680 0.25000 0.12100
C 	C 	0.28720 0.50090 0.77050 0.15100
C 	C 	0.28620 0.81950 0.62750 0.34500
C 	C 	0.24431 0.81741 0.80610 -0.12000
C 	C 	0.24431 0.05041 0.57310 -0.12000
C 	C 	0.72180 0.19430 0.14290 -0.01500
C 	C 	0.14370 0.39370 0.75000 0.08600
C 	C 	0.31340 0.71010 0.01430 -0.05600
C 	C 	0.24664 0.91233 0.49049 0.04600
C 	C 	0.10002 0.38420 0.71878 0.05400
C 	C 	0.37649 0.42690 0.81741 -0.12000
C 	C 	0.27980 0.09163 0.54345 0.07200
C 	C 	0.59718 0.33431 0.91233 0.04700
C 	C 	0.13140 0.91410 0.21510 -0.13600
C 	C 	0.59397 0.54283 0.13726 0.04700
C 	C 	0.72860 0.22950 0.05770 0.15200
C 	C 	0.31760 0.72555 0.65415 -0.12000
C 	C 	0.24150 0.53170 0.72660 -0.20200
C 	C 	0.24150 0.77340 0.96830 -0.20200
C 	C 	0.25830 0.72660 0.03190 -0.20300
C 	C 	0.24150 0.20980 0.53190 -0.20200
C 	C 	0.72020 0.90837 0.45655 0.07200
C 	C 	0.55300 0.58630 0.12750 0.34500
C 	C 	0.53870 0.47590 0.93720 0.03000
C 	C 	0.12920 0.41410 0.71730 -0.13600
C 	C 	0.66280 0.63530 0.64290 -0.01500
C 	C 	0.68660 0.51430 0.21010 -0.05400
C 	C 	0.89702 0.28122 0.81880 0.05300
C 	C 	0.27560 0.98570 0.32770 -0.05600
C 	C 	0.75850 0.22660 0.03170 -0.20200
C 	C 	0.13140 0.34650 0.78270 -0.13600
C 	C 	0.87080 0.58590 0.28270 -0.13300
C 	C 	0.89998 0.78418 0.31880 0.05300
C 	C 	0.86860 0.65350 0.21730 -0.13300
C 	C 	0.89702 0.71582 0.38420 0.05300
C 	C 	0.71280 0.94230 0.78630 0.15200
C 	C 	0.17350 0.92350 0.25000 -0.03200
C 	C 	0.46080 0.50140 0.04060 -0.08400
C 	C 	0.71280 0.49910 0.22950 0.15200
C 	C 	0.27140 0.77050 0.94230 0.15200
C 	C 	0.55300 0.68050 0.03330 0.34500
C 	C 	0.20220 0.75000 0.04780 -0.03200
C 	C 	0.68660 0.28990 0.98570 -0.05300
C 	C 	0.24664 0.73713 0.66569 0.04700
C 	C 	0.40282 0.66569 0.08767 0.04600
C 	C 	0.24431 0.92690 0.44959 -0.12000
C 	C 	0.68660 0.89670 0.82770 -0.05400
C 	C 	0.68240 0.02825 0.59205 -0.12000
C 	C 	0.74170 0.70980 0.53170 -0.20200
C 	C 	0.59397 0.36274 0.95717 0.04700
C 	C 	0.27560 0.78990 0.89670 -0.05500
C 	C 	0.89998 0.18120 0.71582 0.05300
C 	C 	0.75336 0.99049 0.41233 0.04600
C 	C 	0.28443 0.00988 0.57253 -0.11100
C 	C 	0.10298 0.31880 0.78122 0.05400
C 	C 	0.89998 0.61580 0.28122 0.05300
C 	C 	0.72860 0.78630 0.50090 0.15200
C 	C 	0.36492 0.18817 0.09163 0.07200
C 	C 	0.29530 0.54530 0.75000 -0.22400
C 	C 	0.46130 0.43720 0.97590 0.03000
C 	C 	0.66280 0.85710 0.86470 -0.01500
C 	C 	0.59397 0.55114 0.76877 0.04700
C 	C 	0.74170 0.27340 0.96810 -0.20100
C 	C 	0.25830 0.03170 0.20980 -0.20200
C 	C 	0.75850 0.46830 0.27340 -0.20200
C 	C 	0.71557 0.99012 0.42747 -0.11100
C 	C 	0.75569 0.18259 0.19390 -0.11900
C 	C 	0.29530 0.04530 0.25000 -0.22400
C 	C 	0.71380 0.03330 0.41370 0.34500
C 	C 	0.74170 0.53190 0.22660 -0.20200
C 	C 	0.10298 0.28418 0.61580 0.05400
C 	C 	0.54200 0.00140 0.45940 -0.08300
C 	C 	0.91390 0.16390 0.75000 -0.10300
C 	C 	0.37970 0.65415 0.02825 -0.12000
C 	C 	0.41759 0.64304 0.07253 -0.11100
C 	C 	0.72860 0.99910 0.71370 0.15100
C 	C 	0.44700 0.41370 0.87250 0.34500
C 	C 	0.72440 0.82770 0.48570 -0.05400
C 	C 	0.62030 0.34585 0.97175 -0.12000
C 	C 	0.46130 0.52410 0.06280 0.03000
C 	C 	0.75569 0.30610 0.31741 -0.11900
C 	C 	0.53920 0.54060 0.00140 -0.08400
C 	C 	0.33720 0.69430 0.02750 -0.01500
C 	C 	0.17350 0.25000 0.57650 -0.03200
C 	C 	0.24664 0.83431 0.76287 0.04700
C 	C 	0.62351 0.57310 0.18259 -0.12000
C 	C 	0.59718 0.76287 0.99049 0.04800
C 	C 	0.14370 0.75000 0.10630 0.08600
C 	C 	0.79780 0.54780 0.25000 -0.03100
C 	C 	0.41759 0.49012 0.22545 -0.11100
C 	C 	0.31760 0.97175 0.40795 -0.12000
C 	C 	0.44700 0.31950 0.96670 0.34500
C 	C 	0.27820 0.13530 0.52750 -0.01500
C 	C 	0.17350 0.75000 0.07650 -0.03200
C 	C 	0.40603 0.45717 0.86274 0.04700
C 	C 	0.63508 0.81183 0.90837 0.07300
C 	C 	0.63508 0.32325 0.95655 0.07300
C 	C 	0.31991 0.95717 0.44886 0.04700
N 	N 	0.50000 0.55410 0.05410 -0.15900
N 	N 	0.50000 0.44590 0.94590 -0.15900
N 	N 	0.60820 0.05410 0.44590 -0.15900
N 	N 	0.39180 0.94590 0.55410 -0.15900
O 	O 	0.75052 0.18214 0.35912 -0.39400
O 	O 	0.95969 0.23823 0.71866 -0.41600
O 	O 	0.04311 0.82165 0.21866 -0.42400
O 	O 	0.24948 0.81786 0.64088 -0.39500
O 	O 	0.68032 0.07460 0.46642 -0.40600
O 	O 	0.95689 0.27854 0.76177 -0.41700
O 	O 	0.04031 0.32165 0.72146 -0.42400
O 	O 	0.95969 0.22146 0.82165 -0.41600
O 	O 	0.95969 0.67835 0.27854 -0.41700
O 	O 	0.68032 0.14674 0.39428 -0.40600
O 	O 	0.04311 0.26177 0.77854 -0.42400
O 	O 	0.24948 0.93162 0.60964 -0.39500
O 	O 	0.54102 0.57460 0.10572 -0.40600
O 	O 	0.54102 0.46642 0.85326 -0.40600
O 	O 	0.04311 0.28134 0.67835 -0.42400
O 	O 	0.75052 0.14088 0.31786 -0.39400
O 	O 	0.75052 0.10964 0.43162 -0.39400
O 	O 	0.95689 0.73823 0.22146 -0.41700
O 	O 	0.24948 0.85912 0.68214 -0.39500
O 	O 	0.54126 0.68214 0.06838 -0.39500
O 	O 	0.45874 0.39036 0.85912 -0.39500
O 	O 	0.54102 0.39428 0.92540 -0.40600
O 	O 	0.45874 0.31786 0.93162 -0.39500
O 	O 	0.54126 0.43162 0.81786 -0.39400
O 	O 	0.95969 0.78134 0.26177 -0.41700
O 	O 	0.54126 0.60964 0.14088 -0.39500
O 	O 	0.45898 0.35326 0.96642 -0.40600
O 	O 	0.75052 0.06838 0.39036 -0.39400
O 	O 	0.04031 0.76177 0.28134 -0.42400
O 	O 	0.68032 0.03358 0.42540 -0.40600
O 	O 	0.45898 0.60572 0.07460 -0.40600
O 	O 	0.24948 0.89036 0.56838 -0.39500
O 	O 	0.95689 0.17835 0.78134 -0.41700
O 	O 	0.04031 0.77854 0.17835 -0.42400
O 	O 	0.04031 0.21866 0.73823 -0.42400
O 	O 	0.54102 0.64674 0.03358 -0.40600
O 	O 	0.04311 0.72146 0.23823 -0.42400
O 	O 	0.31968 0.96642 0.57460 -0.40600
O 	O 	0.45874 0.56838 0.18214 -0.39500
O 	O 	0.95689 0.71866 0.32165 -0.41700
O 	O 	0.45898 0.42540 0.89428 -0.40600
O 	O 	0.45874 0.64088 0.10964 -0.39500
O 	O 	0.68032 0.10572 0.35326 -0.40600
O 	O 	0.31968 0.89428 0.64674 -0.40600
O 	O 	0.54126 0.35912 0.89036 -0.39400
O 	O 	0.45898 0.53358 0.14674 -0.40600
O 	O 	0.31968 0.92540 0.53358 -0.40600
O 	O 	0.31968 0.85326 0.60572 -0.40600
