data_crystal

_cell_length_a 29.64250
_cell_length_b 29.64250
_cell_length_c 29.64250
_cell_angle_alpha 101.47300
_cell_angle_beta  113.61200
_cell_angle_gamma 113.61200

_symmetry_space_group_name_	'P 1'
_symmetry_space_group_name_H-M	'P 1'

loop_
_symmetry_equiv_pos_as_xyz
  x,y,z

loop_
_atom_site_label
_atom_site_type_symbol
_atom_site_fract_x
_atom_site_fract_y
_atom_site_fract_z
_atom_site_charge
Cu	Cu	0.35037 0.52448 0.82589 0.92000
Cu	Cu	0.50000 0.78504 0.28504 0.90300
Cu	Cu	0.20631 0.74556 0.46075 0.90600
Cu	Cu	0.64963 0.47552 0.17411 0.92000
Cu	Cu	0.30141 0.82589 0.47552 0.92000
Cu	Cu	0.50000 0.28504 0.78504 0.90300
Cu	Cu	0.79369 0.25444 0.53925 0.90600
Cu	Cu	0.50000 0.21496 0.71496 0.90300
Cu	Cu	0.69859 0.17411 0.52448 0.92000
Cu	Cu	0.28481 0.53925 0.74556 0.90600
Cu	Cu	0.50000 0.71496 0.21496 0.90300
Cu	Cu	0.71519 0.46075 0.25444 0.90600
H 	H 	0.57560 0.19540 0.12800 0.08200
H 	H 	0.31690 0.19830 0.72360 0.02400
H 	H 	0.77910 0.97510 0.40960 0.08300
H 	H 	0.46980 0.69440 0.94440 0.02000
H 	H 	0.54720 0.98490 0.95810 0.09600
H 	H 	0.93260 0.12800 0.55240 0.08300
H 	H 	0.78130 0.46920 0.92030 0.08000
H 	H 	0.57560 0.44760 0.38020 0.08300
H 	H 	0.53020 0.47460 0.22460 0.02100
H 	H 	0.31950 0.69180 0.23370 0.02600
H 	H 	0.26360 0.52110 0.91510 0.03000
H 	H 	0.62740 0.28890 0.18110 0.02400
H 	H 	0.39170 0.88620 0.90770 0.09400
H 	H 	0.54110 0.56520 0.97590 0.07900
H 	H 	0.42510 0.95100 0.74410 0.07800
H 	H 	0.59470 0.55660 0.03810 0.07500
H 	H 	0.25000 0.94440 0.47460 0.02100
H 	H 	0.06740 0.61980 0.19540 0.08300
H 	H 	0.68050 0.91420 0.37230 0.02600
H 	H 	0.97850 0.49450 0.88620 0.09400
H 	H 	0.93260 0.38020 0.80460 0.08300
H 	H 	0.79090 0.00380 0.52730 0.08700
H 	H 	0.54190 0.62770 0.30820 0.02600
H 	H 	0.47650 0.47270 0.26360 0.08700
H 	H 	0.47470 0.27640 0.59330 0.02500
H 	H 	0.58930 0.02410 0.56520 0.07900
H 	H 	0.06740 0.87200 0.44760 0.08300
H 	H 	0.02680 0.43770 0.98490 0.09600
H 	H 	0.73640 0.47890 0.08490 0.03000
H 	H 	0.10600 0.28470 0.56930 0.08100
H 	H 	0.42440 0.55240 0.61980 0.08300
H 	H 	0.79310 0.74410 0.31900 0.07800
H 	H 	0.68050 0.30820 0.76630 0.02600
H 	H 	0.39170 0.48400 0.50550 0.09500
H 	H 	0.97320 0.56230 0.01510 0.09600
H 	H 	0.68310 0.40670 0.88140 0.02500
H 	H 	0.57030 0.47390 0.60160 0.09800
H 	H 	0.89220 0.33850 0.71110 0.02400
H 	H 	0.12770 0.09640 0.52610 0.09800
H 	H 	0.71540 0.43070 0.53670 0.08100
H 	H 	0.20910 0.99620 0.47270 0.08700
H 	H 	0.60830 0.51600 0.49450 0.09500
H 	H 	0.89400 0.71530 0.43070 0.08100
H 	H 	0.52300 0.42980 0.09320 0.00700
H 	H 	0.74760 0.21400 0.37480 0.02600
H 	H 	0.87230 0.90360 0.47390 0.09800
H 	H 	0.57490 0.04900 0.25590 0.07800
H 	H 	0.45810 0.37230 0.69180 0.02600
H 	H 	0.71540 0.17870 0.28470 0.08100
H 	H 	0.56550 0.19600 0.97510 0.08400
H 	H 	0.57490 0.31900 0.52590 0.07800
H 	H 	0.47650 0.21290 0.00380 0.08700
H 	H 	0.52350 0.78710 0.99620 0.08700
H 	H 	0.83920 0.62520 0.37280 0.02600
H 	H 	0.37260 0.55370 0.66150 0.02400
H 	H 	0.51850 0.96190 0.55660 0.07500
H 	H 	0.62740 0.44630 0.33850 0.02400
H 	H 	0.43750 0.89240 0.54510 0.01200
H 	H 	0.77910 0.36950 0.80400 0.08400
H 	H 	0.42440 0.80460 0.87200 0.08300
H 	H 	0.47470 0.88140 0.19830 0.02500
H 	H 	0.56250 0.10760 0.45490 0.01200
H 	H 	0.12770 0.60160 0.03130 0.09800
H 	H 	0.79090 0.26360 0.78710 0.08700
H 	H 	0.31950 0.08580 0.62770 0.02600
H 	H 	0.45280 0.41090 0.43770 0.09700
H 	H 	0.37260 0.71110 0.81890 0.02400
H 	H 	0.47700 0.57020 0.90680 0.00700
H 	H 	0.56550 0.59040 0.36950 0.08400
H 	H 	0.75000 0.05560 0.52540 0.02100
H 	H 	0.22090 0.02490 0.59040 0.08400
H 	H 	0.39400 0.74250 0.47890 0.03000
H 	H 	0.42970 0.52610 0.39840 0.09800
H 	H 	0.16080 0.53360 0.78600 0.02600
H 	H 	0.28460 0.82130 0.71530 0.08100
H 	H 	0.89220 0.18110 0.55370 0.02400
H 	H 	0.21870 0.13900 0.68790 0.08000
H 	H 	0.97320 0.95810 0.41090 0.09700
H 	H 	0.75000 0.22460 0.69440 0.02100
H 	H 	0.34730 0.45490 0.89240 0.01200
H 	H 	0.25000 0.77540 0.30560 0.02100
H 	H 	0.52530 0.11860 0.80170 0.02500
H 	H 	0.60600 0.25750 0.52110 0.03000
H 	H 	0.39400 0.91510 0.65150 0.03000
H 	H 	0.45110 0.31210 0.53080 0.08000
H 	H 	0.20690 0.52590 0.95100 0.07800
H 	H 	0.45280 0.01510 0.04190 0.09600
H 	H 	0.02150 0.90770 0.51600 0.09500
H 	H 	0.65270 0.54510 0.10760 0.01200
H 	H 	0.16080 0.37480 0.62720 0.02600
H 	H 	0.22090 0.63050 0.19600 0.08400
H 	H 	0.10780 0.66150 0.28890 0.02400
H 	H 	0.52530 0.72360 0.40670 0.02500
H 	H 	0.42510 0.68100 0.47410 0.07800
H 	H 	0.25240 0.62720 0.46640 0.02600
H 	H 	0.40530 0.44340 0.96190 0.07500
H 	H 	0.45810 0.76630 0.08580 0.02600
H 	H 	0.10600 0.53670 0.82130 0.08100
H 	H 	0.02680 0.04190 0.58910 0.09700
H 	H 	0.45890 0.43480 0.02410 0.07900
H 	H 	0.74760 0.37280 0.53360 0.02600
H 	H 	0.60600 0.08490 0.34850 0.03000
H 	H 	0.45110 0.92030 0.13900 0.08000
H 	H 	0.48150 0.03810 0.44340 0.07500
H 	H 	0.79310 0.47410 0.04900 0.07800
H 	H 	0.28460 0.56930 0.46330 0.08100
H 	H 	0.97850 0.09230 0.48400 0.09500
H 	H 	0.54190 0.23370 0.91420 0.02600
H 	H 	0.60830 0.11380 0.09230 0.09400
H 	H 	0.33660 0.90680 0.42980 0.00700
H 	H 	0.68310 0.80170 0.27640 0.02500
H 	H 	0.41070 0.97590 0.43480 0.07900
H 	H 	0.66340 0.09320 0.57020 0.00700
H 	H 	0.52350 0.52730 0.73640 0.08700
H 	H 	0.53020 0.30560 0.05560 0.02100
H 	H 	0.43450 0.40960 0.63050 0.08400
H 	H 	0.54720 0.58910 0.56230 0.09700
H 	H 	0.83920 0.46640 0.21400 0.02600
H 	H 	0.57030 0.96870 0.09640 0.09800
H 	H 	0.20910 0.73640 0.21290 0.08700
H 	H 	0.20690 0.25590 0.68100 0.07800
H 	H 	0.10780 0.81890 0.44630 0.02400
H 	H 	0.87230 0.39840 0.96870 0.09800
H 	H 	0.89400 0.46330 0.17870 0.08100
H 	H 	0.43450 0.80400 0.02490 0.08400
H 	H 	0.46980 0.52540 0.77540 0.02100
H 	H 	0.54890 0.68790 0.46920 0.08000
H 	H 	0.25240 0.78600 0.62520 0.02600
H 	H 	0.73640 0.65150 0.25750 0.03000
H 	H 	0.26360 0.34850 0.74250 0.03000
H 	H 	0.54890 0.07970 0.86100 0.08000
H 	H 	0.31690 0.59330 0.11860 0.02500
H 	H 	0.78130 0.86100 0.31210 0.08000
H 	H 	0.42970 0.03130 0.90360 0.09800
H 	H 	0.21870 0.53080 0.07970 0.08000
H 	H 	0.02150 0.50550 0.11380 0.09400
C 	C 	0.42240 0.47060 0.95180 -0.13300
C 	C 	0.41630 0.53926 0.72222 -0.13300
C 	C 	0.40300 0.54756 0.67658 0.07100
C 	C 	0.94506 0.41120 0.96836 0.11400
C 	C 	0.56932 0.60850 0.46146 -0.02400
C 	C 	0.76006 0.37723 0.82037 -0.13800
C 	C 	0.89211 0.02800 0.53905 -0.03000
C 	C 	0.23994 0.06031 0.61717 -0.13800
C 	C 	0.87098 0.14456 0.54756 0.07100
C 	C 	0.59558 0.52062 0.51846 -0.17200
C 	C 	0.35718 0.89095 0.73845 0.08600
C 	C 	0.40695 0.50977 0.45128 0.11700
C 	C 	0.70266 0.39923 0.86559 0.06500
C 	C 	0.54336 0.20254 0.90336 0.06500
C 	C 	0.86155 0.46542 0.15901 -0.13700
C 	C 	0.55686 0.17963 0.93969 -0.13800
C 	C 	0.45664 0.36000 0.65918 0.06500
C 	C 	0.37420 0.91760 0.45660 0.10000
C 	C 	0.43405 0.78230 0.88699 -0.14700
C 	C 	0.30641 0.84099 0.70254 -0.13700
C 	C 	0.15250 0.26155 0.61873 0.08600
C 	C 	0.85296 0.96082 0.39150 -0.02400
C 	C 	0.42109 0.44167 0.47532 0.11600
C 	C 	0.47882 0.80473 0.94005 0.09900
C 	C 	0.76144 0.43648 0.88948 -0.13600
C 	C 	0.82935 0.64923 0.36166 0.06000
C 	C 	0.41880 0.95990 0.45890 -0.14300
C 	C 	0.64282 0.38127 0.53377 0.08600
C 	C 	0.88102 0.79517 0.41817 -0.02500
C 	C 	0.08675 0.58252 0.00933 -0.17300
C 	C 	0.51876 0.49688 0.02188 0.06200
C 	C 	0.00216 0.48154 0.07712 -0.17000
C 	C 	0.58120 0.04010 0.54110 -0.14300
C 	C 	0.70316 0.27197 0.52735 0.36200
C 	C 	0.48895 0.46095 0.35306 -0.03000
C 	C 	0.44239 0.36653 0.57580 0.08500
C 	C 	0.23856 0.56352 0.11052 -0.13600
C 	C 	0.45300 0.32496 0.56352 -0.13600
C 	C 	0.48120 0.95180 0.52940 -0.13300
C 	C 	0.79073 0.42420 0.86659 0.08500
C 	C 	0.21014 0.84277 0.46211 0.37100
C 	C 	0.10789 0.97200 0.46095 -0.03000
C 	C 	0.89211 0.35306 0.86411 -0.03000
C 	C 	0.55716 0.96836 0.02330 0.11500
C 	C 	0.21797 0.52807 0.84756 -0.11300
C 	C 	0.44079 0.99986 0.00507 -0.17000
C 	C 	0.55761 0.63347 0.42420 0.08500
C 	C 	0.38780 0.47820 0.90960 0.08200
C 	C 	0.00521 0.44093 0.00014 -0.17000
C 	C 	0.46628 0.46189 0.37739 -0.03800
C 	C 	0.09174 0.15893 0.54931 -0.04300
C 	C 	0.96635 0.02058 0.44167 0.11600
C 	C 	0.59558 0.07712 0.07496 -0.17100
C 	C 	0.46636 0.86559 0.16293 0.06500
C 	C 	0.57760 0.52940 0.04820 -0.13300
C 	C 	0.81175 0.27991 0.77200 -0.15500
C 	C 	0.57891 0.55833 0.52468 0.11600
C 	C 	0.54700 0.11052 0.87196 -0.13600
C 	C 	0.48053 0.79381 0.18540 0.36500
C 	C 	0.00216 0.92504 0.52062 -0.17200
C 	C 	0.42681 0.50423 0.41748 -0.17500
C 	C 	0.31949 0.84756 0.62959 -0.11300
C 	C 	0.23994 0.62277 0.17963 -0.13800
C 	C 	0.51105 0.53905 0.64694 -0.03000
C 	C 	0.11898 0.53715 0.91415 -0.02600
C 	C 	0.48895 0.13589 0.02800 -0.03000
C 	C 	0.81175 0.03975 0.53184 -0.15500
C 	C 	0.69359 0.39613 0.53458 -0.13700
C 	C 	0.19808 0.52799 0.91759 -0.12800
C 	C 	0.68051 0.31010 0.52807 -0.11300
C 	C 	0.54700 0.67504 0.43648 -0.13600
C 	C 	0.49209 0.77200 0.96025 -0.15500
C 	C 	0.49209 0.53184 0.72009 -0.15500
C 	C 	0.90826 0.84107 0.45069 -0.04300
C 	C 	0.03365 0.97942 0.55833 0.11600
C 	C 	0.21014 0.74803 0.36737 0.37100
C 	C 	0.91325 0.41748 0.99067 -0.17300
C 	C 	0.44079 0.43572 0.44093 -0.17200
C 	C 	0.38066 0.63263 0.84277 0.37100
C 	C 	0.57891 0.05423 0.02058 0.11400
C 	C 	0.96635 0.52468 0.94577 0.11400
C 	C 	0.37138 0.89643 0.66415 0.05000
C 	C 	0.10469 0.88699 0.45294 -0.14700
C 	C 	0.40695 0.95567 0.89718 0.11500
C 	C 	0.42373 0.41252 0.50921 -0.03900
C 	C 	0.76144 0.87196 0.32496 -0.13600
C 	C 	0.55761 0.13341 0.92414 0.08600
C 	C 	0.89531 0.34825 0.78230 -0.14700
C 	C 	0.76772 0.66415 0.29277 0.05000
C 	C 	0.82935 0.46769 0.18012 0.06100
C 	C 	0.71243 0.18012 0.35077 0.06000
C 	C 	0.11898 0.20483 0.58183 -0.02500
C 	C 	0.55921 0.00014 0.99493 -0.17000
C 	C 	0.47500 0.97812 0.49688 0.06200
C 	C 	0.05494 0.58880 0.03164 0.11400
C 	C 	0.94151 0.89718 0.49023 0.11700
C 	C 	0.79073 0.92414 0.36653 0.08500
C 	C 	0.62580 0.08240 0.54340 0.10000
C 	C 	0.39159 0.18540 0.70487 0.36500
C 	C 	0.37700 0.91415 0.79517 -0.02600
C 	C 	0.53221 0.18029 0.85236 -0.13100
C 	C 	0.91550 0.00439 0.53811 -0.03800
C 	C 	0.58370 0.30592 0.12296 -0.13300
C 	C 	0.51880 0.04820 0.47060 -0.13300
C 	C 	0.59305 0.04433 0.10282 0.11500
C 	C 	0.12902 0.67658 0.27358 0.07200
C 	C 	0.13532 0.67409 0.19527 0.09900
C 	C 	0.61040 0.08241 0.28049 -0.12800
C 	C 	0.28757 0.81988 0.64923 0.06000
C 	C 	0.28757 0.63834 0.46769 0.06000
C 	C 	0.46100 0.54340 0.91760 0.10000
C 	C 	0.08450 0.99561 0.46189 -0.03800
C 	C 	0.09174 0.54243 0.93281 -0.04200
C 	C 	0.81704 0.12296 0.53926 -0.13300
C 	C 	0.40442 0.92288 0.92504 -0.17100
C 	C 	0.55921 0.56428 0.55907 -0.17200
C 	C 	0.32793 0.64808 0.18029 -0.13000
C 	C 	0.52118 0.46123 0.32591 0.09900
C 	C 	0.18825 0.96025 0.46816 -0.15500
C 	C 	0.40300 0.72642 0.85544 0.07100
C 	C 	0.38960 0.91759 0.71951 -0.12800
C 	C 	0.60841 0.81460 0.29513 0.36500
C 	C 	0.53372 0.91111 0.99561 -0.03700
C 	C 	0.61934 0.46211 0.25197 0.37100
C 	C 	0.44284 0.46614 0.41120 0.11600
C 	C 	0.53221 0.67985 0.35192 -0.13000
C 	C 	0.99479 0.55907 0.99986 -0.17000
C 	C 	0.43068 0.39150 0.53854 -0.02400
C 	C 	0.23228 0.52505 0.89643 0.05000
C 	C 	0.10789 0.64694 0.13589 -0.03000
C 	C 	0.59700 0.27358 0.14456 0.07100
C 	C 	0.78986 0.25197 0.63263 0.37100
C 	C 	0.44239 0.86659 0.07586 0.08600
C 	C 	0.78757 0.25624 0.71669 0.07800
C 	C 	0.32793 0.14764 0.67985 -0.13000
C 	C 	0.53955 0.46867 0.25624 0.07800
C 	C 	0.60841 0.31328 0.79381 0.36500
C 	C 	0.23228 0.33585 0.70723 0.05000
C 	C 	0.54336 0.64000 0.34082 0.06500
C 	C 	0.61220 0.52180 0.09040 0.08200
C 	C 	0.50791 0.46816 0.27991 -0.15500
C 	C 	0.29918 0.65918 0.20254 0.06500
C 	C 	0.25538 0.52735 0.82419 0.36200
C 	C 	0.90331 0.98879 0.41252 -0.03900
C 	C 	0.19808 0.28049 0.67009 -0.12800
C 	C 	0.39038 0.93281 0.84107 -0.04200
C 	C 	0.69359 0.15901 0.29746 -0.13700
C 	C 	0.60962 0.45069 0.54243 -0.04300
C 	C 	0.74462 0.47265 0.17581 0.36200
C 	C 	0.99784 0.51846 0.92288 -0.17000
C 	C 	0.43405 0.54706 0.65175 -0.14700
C 	C 	0.59700 0.45244 0.32342 0.07100
C 	C 	0.23856 0.12804 0.67504 -0.13600
C 	C 	0.53372 0.53811 0.62261 -0.03800
C 	C 	0.57319 0.99067 0.07742 -0.17300
C 	C 	0.35718 0.61873 0.46623 0.08600
C 	C 	0.70266 0.83707 0.30343 0.06400
C 	C 	0.30641 0.60387 0.46542 -0.13700
C 	C 	0.68051 0.15244 0.37041 -0.11300
C 	C 	0.61040 0.32991 0.52799 -0.12800
C 	C 	0.53900 0.45660 0.08240 0.10000
C 	C 	0.89531 0.11301 0.54706 -0.14700
C 	C 	0.71243 0.36166 0.53231 0.06000
C 	C 	0.14704 0.53854 0.10786 -0.02400
C 	C 	0.67207 0.85236 0.32015 -0.13000
C 	C 	0.78203 0.47193 0.15244 -0.11300
C 	C 	0.48053 0.29513 0.68672 0.36500
C 	C 	0.05849 0.54872 0.95567 0.11400
C 	C 	0.85296 0.46146 0.89214 -0.02400
C 	C 	0.53364 0.13441 0.83707 0.06500
C 	C 	0.18825 0.72009 0.22800 -0.15500
C 	C 	0.56860 0.09040 0.47820 0.08200
C 	C 	0.99479 0.99493 0.43572 -0.17200
C 	C 	0.43140 0.90960 0.52180 0.08200
C 	C 	0.09669 0.50921 0.08548 -0.03800
C 	C 	0.90826 0.45757 0.06719 -0.04200
C 	C 	0.59305 0.49023 0.54872 0.11700
C 	C 	0.14704 0.03918 0.60850 -0.02400
C 	C 	0.84750 0.46623 0.10905 0.08600
C 	C 	0.20927 0.07586 0.63347 0.08500
C 	C 	0.38066 0.53789 0.74803 0.37100
C 	C 	0.70316 0.17581 0.43119 0.36200
C 	C 	0.40442 0.47938 0.48154 -0.17200
C 	C 	0.08675 0.07742 0.50423 -0.17500
C 	C 	0.29734 0.16293 0.69657 0.06400
C 	C 	0.18296 0.72222 0.30592 -0.13300
C 	C 	0.03365 0.47532 0.05423 0.11400
C 	C 	0.70082 0.34082 0.79746 0.06500
C 	C 	0.57627 0.58748 0.49079 -0.03900
C 	C 	0.51947 0.20619 0.81460 0.36500
C 	C 	0.57319 0.49577 0.58252 -0.17500
C 	C 	0.80192 0.47201 0.08241 -0.12800
C 	C 	0.08450 0.62261 0.08889 -0.03700
C 	C 	0.17065 0.35077 0.63834 0.06000
C 	C 	0.46628 0.08889 0.00439 -0.03700
C 	C 	0.91325 0.92258 0.49577 -0.17500
C 	C 	0.10469 0.65175 0.21770 -0.14700
C 	C 	0.20927 0.57580 0.13341 0.08500
C 	C 	0.05849 0.10282 0.50977 0.11700
C 	C 	0.62862 0.10357 0.33585 0.05000
C 	C 	0.44314 0.82037 0.06031 -0.13800
C 	C 	0.81704 0.27778 0.69408 -0.13300
C 	C 	0.21243 0.92912 0.46867 0.07700
C 	C 	0.76772 0.47495 0.10357 0.05000
C 	C 	0.51105 0.86411 0.97200 -0.03000
C 	C 	0.90331 0.49079 0.91452 -0.03800
C 	C 	0.78757 0.07088 0.53133 0.07700
C 	C 	0.56932 0.10786 0.96082 -0.02400
C 	C 	0.50100 0.54110 0.95990 -0.14300
C 	C 	0.88102 0.46285 0.08585 -0.02600
C 	C 	0.52118 0.19527 0.05995 0.09900
C 	C 	0.52500 0.02188 0.50312 0.06200
C 	C 	0.86155 0.70254 0.39613 -0.13700
C 	C 	0.29684 0.82419 0.56881 0.36200
C 	C 	0.50791 0.22800 0.03975 -0.15500
C 	C 	0.42681 0.00933 0.92258 -0.17300
C 	C 	0.39038 0.54931 0.45757 -0.04300
C 	C 	0.58370 0.46074 0.27778 -0.13300
C 	C 	0.53364 0.69657 0.39923 0.06400
C 	C 	0.41630 0.69408 0.87704 -0.13300
C 	C 	0.43068 0.89214 0.03918 -0.02400
C 	C 	0.13532 0.94005 0.46123 0.09900
C 	C 	0.86468 0.32591 0.80473 0.09900
C 	C 	0.12902 0.85544 0.45244 0.07100
C 	C 	0.44284 0.03164 0.97670 0.11500
C 	C 	0.87098 0.32342 0.72642 0.07200
C 	C 	0.62300 0.41817 0.53715 -0.02500
C 	C 	0.37700 0.58183 0.46285 -0.02500
C 	C 	0.78986 0.15723 0.53789 0.37100
C 	C 	0.62862 0.29277 0.52505 0.05000
C 	C 	0.61934 0.36737 0.15723 0.37100
C 	C 	0.29684 0.72803 0.47265 0.36200
C 	C 	0.05494 0.02330 0.46614 0.11600
C 	C 	0.80192 0.71951 0.32991 -0.12800
C 	C 	0.47882 0.53877 0.67409 0.09900
C 	C 	0.31949 0.68990 0.47193 -0.11300
C 	C 	0.38960 0.67009 0.47201 -0.12800
C 	C 	0.42373 0.91452 0.01121 -0.03800
C 	C 	0.56595 0.21770 0.11301 -0.14700
C 	C 	0.91550 0.37739 0.91111 -0.03700
C 	C 	0.29918 0.09664 0.64000 0.06500
C 	C 	0.42109 0.94577 0.97942 0.11400
C 	C 	0.84750 0.73845 0.38127 0.08600
C 	C 	0.57627 0.08548 0.98879 -0.03800
C 	C 	0.76006 0.93969 0.38283 -0.13800
C 	C 	0.51947 0.70487 0.31328 0.36500
C 	C 	0.25538 0.43119 0.72803 0.36200
C 	C 	0.09669 0.01121 0.58748 -0.03900
C 	C 	0.55686 0.61717 0.37723 -0.13800
C 	C 	0.13845 0.29746 0.60387 -0.13700
C 	C 	0.46045 0.53133 0.74376 0.07800
C 	C 	0.45300 0.88948 0.12804 -0.13600
C 	C 	0.13845 0.53458 0.84099 -0.13700
C 	C 	0.94151 0.45128 0.04433 0.11400
C 	C 	0.99784 0.07496 0.47938 -0.17200
C 	C 	0.55716 0.53386 0.58880 0.11600
C 	C 	0.45664 0.79746 0.09664 0.06500
C 	C 	0.21797 0.37041 0.68990 -0.11300
C 	C 	0.46779 0.81971 0.14764 -0.13100
C 	C 	0.48124 0.50312 0.97812 0.06200
C 	C 	0.15250 0.53377 0.89095 0.08600
C 	C 	0.78203 0.62959 0.31010 -0.11300
C 	C 	0.29734 0.60077 0.13441 0.06500
C 	C 	0.46779 0.32015 0.64808 -0.13000
C 	C 	0.94506 0.97670 0.53386 0.11600
C 	C 	0.00521 0.00507 0.56428 -0.17200
C 	C 	0.70082 0.90336 0.36000 0.06500
C 	C 	0.60962 0.06719 0.15893 -0.04200
C 	C 	0.56595 0.45294 0.34825 -0.14700
C 	C 	0.46636 0.30343 0.60077 0.06400
C 	C 	0.64282 0.10905 0.26155 0.08600
C 	C 	0.17065 0.53231 0.81988 0.06100
C 	C 	0.18296 0.87704 0.46074 -0.13300
C 	C 	0.53955 0.28331 0.07088 0.07800
C 	C 	0.39159 0.68672 0.20619 0.36500
C 	C 	0.21243 0.74376 0.28331 0.07800
C 	C 	0.37138 0.70723 0.47495 0.05000
C 	C 	0.67207 0.35192 0.81971 -0.13000
C 	C 	0.62300 0.08585 0.20483 -0.02600
C 	C 	0.86468 0.05995 0.53877 0.09900
C 	C 	0.74462 0.56881 0.27197 0.36200
C 	C 	0.46045 0.71669 0.92912 0.07800
C 	C 	0.49900 0.45890 0.04010 -0.14300
C 	C 	0.44314 0.38283 0.62277 -0.13800
N 	N 	0.37603 0.89053 0.48550 -0.20000
N 	N 	0.40503 0.51450 0.89053 -0.20000
N 	N 	0.62397 0.10947 0.51450 -0.20000
N 	N 	0.59497 0.48550 0.10947 -0.20000
O 	O 	0.39412 0.60415 0.86365 -0.40700
O 	O 	0.51481 0.18585 0.76920 -0.40300
O 	O 	0.60588 0.46953 0.21003 -0.40700
O 	O 	0.32786 0.84911 0.55285 -0.40200
O 	O 	0.41665 0.23080 0.74561 -0.40300
O 	O 	0.25950 0.78997 0.39585 -0.40700
O 	O 	0.41632 0.17038 0.68582 -0.41000
O 	O 	0.67214 0.15089 0.44715 -0.40200
O 	O 	0.58368 0.26950 0.75406 -0.41000
O 	O 	0.29626 0.44715 0.77501 -0.40200
O 	O 	0.58368 0.82962 0.31418 -0.41000
O 	O 	0.75918 0.53970 0.29254 -0.40900
O 	O 	0.51544 0.24594 0.82962 -0.41000
O 	O 	0.25950 0.86365 0.46953 -0.40700
O 	O 	0.41632 0.73050 0.24594 -0.41000
O 	O 	0.41665 0.67104 0.18585 -0.40300
O 	O 	0.24082 0.53336 0.78052 -0.40900
O 	O 	0.24716 0.78052 0.53970 -0.40900
O 	O 	0.48456 0.31418 0.73050 -0.41000
O 	O 	0.17886 0.79510 0.45636 -0.40900
O 	O 	0.82114 0.27750 0.61624 -0.40900
O 	O 	0.75918 0.46664 0.21948 -0.40900
O 	O 	0.48519 0.81415 0.23080 -0.40300
O 	O 	0.66126 0.45636 0.27750 -0.40900
O 	O 	0.75284 0.21948 0.46030 -0.40900
O 	O 	0.70374 0.47875 0.15089 -0.40200
O 	O 	0.51481 0.74561 0.32896 -0.40300
O 	O 	0.67214 0.22499 0.52125 -0.40200
O 	O 	0.75284 0.29254 0.53336 -0.40900
O 	O 	0.33874 0.54364 0.72250 -0.40900
O 	O 	0.33874 0.61624 0.79510 -0.40900
O 	O 	0.51544 0.68582 0.26950 -0.41000
O 	O 	0.82114 0.20490 0.54364 -0.40900
O 	O 	0.32786 0.77501 0.47875 -0.40200
O 	O 	0.66126 0.38376 0.20490 -0.40900
O 	O 	0.70374 0.55285 0.22499 -0.40200
O 	O 	0.24082 0.46030 0.70746 -0.40900
O 	O 	0.48456 0.75406 0.17038 -0.41000
O 	O 	0.58335 0.76920 0.25439 -0.40300
O 	O 	0.17886 0.72250 0.38376 -0.40900
O 	O 	0.24716 0.70746 0.46664 -0.40900
O 	O 	0.48519 0.25439 0.67104 -0.40300
O 	O 	0.58335 0.32896 0.81415 -0.40300
O 	O 	0.29626 0.52125 0.84911 -0.40200
O 	O 	0.39412 0.53047 0.78997 -0.40700
O 	O 	0.74050 0.21003 0.60415 -0.40700
O 	O 	0.60588 0.39585 0.13635 -0.40700
O 	O 	0.74050 0.13635 0.53047 -0.40700
