data_crystal

_cell_length_a 29.54970
_cell_length_b 29.54970
_cell_length_c 29.54970
_cell_angle_alpha 109.47100
_cell_angle_beta  109.47100
_cell_angle_gamma 109.47100

_symmetry_space_group_name_	'P 1'
_symmetry_space_group_name_H-M	'P 1'

loop_
_symmetry_equiv_pos_as_xyz
  x,y,z

loop_
_atom_site_label
_atom_site_type_symbol
_atom_site_fract_x
_atom_site_fract_y
_atom_site_fract_z
_atom_site_charge
Cu	Cu	0.25705 0.75705 0.50000 0.90300
Cu	Cu	0.74295 0.24295 0.50000 0.90300
Cu	Cu	0.24295 0.50000 0.74295 0.90300
Cu	Cu	0.16644 0.50000 0.66644 0.89400
Cu	Cu	0.66644 0.16644 0.50000 0.89400
Cu	Cu	0.50000 0.74295 0.24295 0.90300
Cu	Cu	0.75705 0.50000 0.25705 0.90300
Cu	Cu	0.83356 0.50000 0.33356 0.89400
Cu	Cu	0.50000 0.25705 0.75705 0.90300
Cu	Cu	0.50000 0.66644 0.16644 0.89400
Cu	Cu	0.33356 0.83356 0.50000 0.89400
Cu	Cu	0.50000 0.33356 0.83356 0.89400
H 	H 	0.40080 0.96520 0.90620 0.12300
H 	H 	0.05900 0.96520 0.56440 0.12300
H 	H 	0.50870 0.74010 0.05960 0.04900
H 	H 	0.91360 0.38690 0.76610 0.06300
H 	H 	0.23390 0.08640 0.61310 0.06300
H 	H 	0.50080 0.02160 0.22380 0.06300
H 	H 	0.81440 0.48540 0.14400 0.05300
H 	H 	0.55090 0.05960 0.31950 0.04900
H 	H 	0.94100 0.03480 0.43560 0.12300
H 	H 	0.49130 0.55090 0.23140 0.04900
H 	H 	0.96520 0.90620 0.40080 0.12300
H 	H 	0.85250 0.76610 0.37920 0.06300
H 	H 	0.47920 0.20220 0.97840 0.06300
H 	H 	0.52670 0.37920 0.61310 0.06300
H 	H 	0.59920 0.03480 0.09380 0.12300
H 	H 	0.44910 0.76860 0.50870 0.04900
H 	H 	0.55090 0.23140 0.49130 0.04900
H 	H 	0.74010 0.23140 0.68050 0.04900
H 	H 	0.43560 0.40080 0.49460 0.12300
H 	H 	0.72300 0.22380 0.20220 0.06300
H 	H 	0.85250 0.47330 0.08640 0.06300
H 	H 	0.47330 0.08640 0.85250 0.06300
H 	H 	0.43560 0.94100 0.03480 0.12300
H 	H 	0.27700 0.77620 0.79780 0.06300
H 	H 	0.49130 0.25990 0.94040 0.04900
H 	H 	0.32960 0.14400 0.65860 0.05300
H 	H 	0.23390 0.62080 0.14750 0.06300
H 	H 	0.76610 0.37920 0.85250 0.06300
H 	H 	0.27700 0.47920 0.50080 0.06300
H 	H 	0.94040 0.49130 0.25990 0.04900
H 	H 	0.31950 0.25990 0.76860 0.04900
H 	H 	0.61310 0.52670 0.37920 0.06300
H 	H 	0.14400 0.81440 0.48540 0.05300
H 	H 	0.90620 0.40080 0.96520 0.12300
H 	H 	0.67100 0.34140 0.48540 0.05300
H 	H 	0.65860 0.51460 0.32900 0.05300
H 	H 	0.50540 0.56440 0.59920 0.12300
H 	H 	0.32900 0.81440 0.67040 0.05300
H 	H 	0.50080 0.27700 0.47920 0.06300
H 	H 	0.20220 0.72300 0.22380 0.06300
H 	H 	0.97840 0.77620 0.49920 0.06300
H 	H 	0.49460 0.43560 0.40080 0.12300
H 	H 	0.65860 0.32960 0.14400 0.05200
H 	H 	0.52080 0.49920 0.72300 0.06200
H 	H 	0.08640 0.85250 0.47330 0.06200
H 	H 	0.74010 0.05960 0.50870 0.04800
H 	H 	0.49920 0.97840 0.77620 0.06200
H 	H 	0.56440 0.59920 0.50540 0.12200
H 	H 	0.18560 0.51460 0.85600 0.05200
H 	H 	0.67040 0.85600 0.34140 0.05200
H 	H 	0.09380 0.59920 0.03480 0.12200
H 	H 	0.05900 0.49460 0.09380 0.12200
H 	H 	0.68050 0.44910 0.94040 0.04800
H 	H 	0.25990 0.94040 0.49130 0.04800
H 	H 	0.50540 0.90620 0.94100 0.12200
H 	H 	0.31950 0.55090 0.05960 0.04800
H 	H 	0.51460 0.32900 0.65860 0.05200
H 	H 	0.02160 0.22380 0.50080 0.06200
H 	H 	0.38690 0.76610 0.91360 0.06200
H 	H 	0.51460 0.85600 0.18560 0.05200
H 	H 	0.37920 0.85250 0.76610 0.06200
H 	H 	0.85600 0.18560 0.51460 0.05200
H 	H 	0.47330 0.62080 0.38690 0.06200
H 	H 	0.94100 0.50540 0.90620 0.12200
H 	H 	0.23140 0.49130 0.55090 0.04800
H 	H 	0.49460 0.09380 0.05900 0.12200
H 	H 	0.08640 0.61310 0.23390 0.06200
H 	H 	0.32900 0.65860 0.51460 0.05200
H 	H 	0.22380 0.50080 0.02160 0.06200
H 	H 	0.97840 0.47920 0.20220 0.06200
H 	H 	0.14400 0.65860 0.32960 0.05200
H 	H 	0.47920 0.50080 0.27700 0.06200
H 	H 	0.81440 0.67040 0.32900 0.05200
H 	H 	0.79780 0.02160 0.52080 0.06200
H 	H 	0.91360 0.14750 0.52670 0.06200
H 	H 	0.90620 0.94100 0.50540 0.12200
H 	H 	0.40080 0.49460 0.43560 0.12200
H 	H 	0.23140 0.68050 0.74010 0.04800
H 	H 	0.03480 0.43560 0.94100 0.12200
H 	H 	0.14750 0.23390 0.62080 0.06200
H 	H 	0.48540 0.67100 0.34140 0.05200
H 	H 	0.59920 0.50540 0.56440 0.12200
H 	H 	0.76860 0.50870 0.44910 0.04800
H 	H 	0.20220 0.97840 0.47920 0.06200
H 	H 	0.56440 0.05900 0.96520 0.12200
H 	H 	0.68050 0.74010 0.23140 0.04800
H 	H 	0.94040 0.68050 0.44910 0.04800
H 	H 	0.32960 0.67100 0.18560 0.05200
H 	H 	0.02160 0.52080 0.79780 0.06200
H 	H 	0.67040 0.32900 0.81440 0.05200
H 	H 	0.25990 0.76860 0.31950 0.04800
H 	H 	0.67100 0.18560 0.32960 0.05200
H 	H 	0.38690 0.47330 0.62080 0.06200
H 	H 	0.62080 0.38690 0.47330 0.06200
H 	H 	0.03480 0.09380 0.59920 0.12200
H 	H 	0.05960 0.31950 0.55090 0.04800
H 	H 	0.05960 0.50870 0.74010 0.04800
H 	H 	0.37920 0.61310 0.52670 0.06200
H 	H 	0.52670 0.91360 0.14750 0.06200
H 	H 	0.72300 0.52080 0.49920 0.06200
H 	H 	0.14750 0.52670 0.91360 0.06200
H 	H 	0.49920 0.72300 0.52080 0.06200
H 	H 	0.48540 0.14400 0.81440 0.05200
H 	H 	0.77620 0.49920 0.97840 0.06200
H 	H 	0.09380 0.05900 0.49460 0.12200
H 	H 	0.96520 0.56440 0.05900 0.12200
H 	H 	0.18560 0.32960 0.67100 0.05200
H 	H 	0.52080 0.79780 0.02160 0.06200
H 	H 	0.50870 0.44910 0.76860 0.04800
H 	H 	0.76860 0.31950 0.25990 0.04800
H 	H 	0.62080 0.14750 0.23390 0.06200
H 	H 	0.22380 0.20220 0.72300 0.06200
H 	H 	0.44910 0.94040 0.68050 0.04800
H 	H 	0.76610 0.91360 0.38690 0.06200
H 	H 	0.34140 0.67040 0.85600 0.05200
H 	H 	0.34140 0.48540 0.67100 0.05200
H 	H 	0.79780 0.27700 0.77620 0.06200
H 	H 	0.85600 0.34140 0.67040 0.05200
H 	H 	0.61310 0.23390 0.08640 0.06200
H 	H 	0.77620 0.79780 0.27700 0.06200
C 	C 	0.38429 0.71806 0.51055 -0.04000
C 	C 	0.63910 0.16030 0.10740 0.01200
C 	C 	0.05460 0.51950 0.80950 -0.08300
C 	C 	0.49620 0.24350 0.84290 0.29000
C 	C 	0.80950 0.05460 0.51950 -0.08300
C 	C 	0.44403 0.91910 0.78033 0.03700
C 	C 	0.74890 0.87870 0.35560 -0.08100
C 	C 	0.33377 0.61571 0.12626 -0.04000
C 	C 	0.69780 0.43510 0.92270 -0.00300
C 	C 	0.96540 0.41380 0.94380 0.18700
C 	C 	0.88530 0.50290 0.96040 -0.08300
C 	C 	0.52493 0.44403 0.66370 0.03700
C 	C 	0.86123 0.33630 0.78033 0.03700
C 	C 	0.40060 0.65330 0.15710 0.29000
C 	C 	0.03460 0.58620 0.05620 0.18700
C 	C 	0.79249 0.28194 0.66623 -0.04000
C 	C 	0.58130 0.52600 0.56090 -0.24600
C 	C 	0.50290 0.96040 0.88530 -0.08300
C 	C 	0.96540 0.02160 0.55160 0.18700
C 	C 	0.36090 0.83970 0.89260 0.01200
C 	C 	0.20751 0.71806 0.33377 -0.04000
C 	C 	0.08090 0.52493 0.86123 0.03700
C 	C 	0.48410 0.15580 0.84750 -0.00700
C 	C 	0.83970 0.89260 0.36090 0.01200
C 	C 	0.05620 0.03460 0.58620 0.18700
C 	C 	0.52310 0.39330 0.64440 -0.08100
C 	C 	0.54250 0.50290 0.61760 -0.08300
C 	C 	0.47400 0.05530 0.03490 -0.24600
C 	C 	0.05290 0.16030 0.52120 0.01200
C 	C 	0.53510 0.29000 0.48050 -0.08300
C 	C 	0.63660 0.15250 0.30830 -0.00700
C 	C 	0.30830 0.15580 0.67170 -0.00700
C 	C 	0.22490 0.92270 0.48760 -0.00300
C 	C 	0.84290 0.59940 0.34670 0.29000
C 	C 	0.61571 0.28194 0.48945 -0.04000
C 	C 	0.66623 0.79249 0.28194 -0.04000
C 	C 	0.32830 0.69170 0.84420 -0.00700
C 	C 	0.87870 0.12980 0.52310 -0.08100
C 	C 	0.51950 0.46490 0.71000 -0.08300
C 	C 	0.84420 0.15250 0.51590 -0.00700
C 	C 	0.41380 0.94380 0.96540 0.18700
C 	C 	0.25110 0.60670 0.12980 -0.08100
C 	C 	0.12130 0.64440 0.25110 -0.08100
C 	C 	0.33630 0.78033 0.86123 0.03700
C 	C 	0.64440 0.25110 0.12130 -0.08100
C 	C 	0.41380 0.44840 0.47000 0.18700
C 	C 	0.05530 0.58130 0.02040 -0.24600
C 	C 	0.36090 0.46830 0.52120 0.01200
C 	C 	0.67170 0.30830 0.15580 -0.00700
C 	C 	0.25270 0.49620 0.65330 0.29000
C 	C 	0.71806 0.33377 0.20751 -0.04000
C 	C 	0.64440 0.52310 0.39330 -0.08100
C 	C 	0.07730 0.51240 0.77510 -0.00300
C 	C 	0.71806 0.51055 0.38429 -0.04000
C 	C 	0.75650 0.15710 0.50380 0.29000
C 	C 	0.02040 0.05530 0.58130 -0.24600
C 	C 	0.87020 0.47690 0.12130 -0.08100
C 	C 	0.19050 0.71000 0.24510 -0.08300
C 	C 	0.48050 0.53510 0.29000 -0.08300
C 	C 	0.48050 0.19050 0.94540 -0.08300
C 	C 	0.96040 0.88530 0.50290 -0.08300
C 	C 	0.48410 0.63660 0.32830 -0.00700
C 	C 	0.21967 0.13877 0.66370 0.03700
C 	C 	0.46830 0.52120 0.36090 0.01200
C 	C 	0.34670 0.74730 0.50380 0.29000
C 	C 	0.47507 0.13877 0.91910 0.03700
C 	C 	0.88530 0.92490 0.38240 -0.08300
C 	C 	0.25110 0.12130 0.64440 -0.08100
C 	C 	0.20751 0.87374 0.48945 -0.04000
C 	C 	0.96510 0.52600 0.94470 -0.24600
C 	C 	0.94710 0.83970 0.47880 0.01200
C 	C 	0.48945 0.20751 0.87374 -0.04000
C 	C 	0.30220 0.56490 0.07730 -0.00300
C 	C 	0.44403 0.66370 0.52493 0.03700
C 	C 	0.71000 0.24510 0.19050 -0.08300
C 	C 	0.73730 0.51240 0.43510 -0.00300
C 	C 	0.16030 0.10740 0.63910 0.01200
C 	C 	0.13877 0.91910 0.47507 0.03700
C 	C 	0.11470 0.07510 0.61760 -0.08300
C 	C 	0.33377 0.20751 0.71806 -0.04000
C 	C 	0.41870 0.47400 0.43910 -0.24600
C 	C 	0.33630 0.47507 0.55597 0.03700
C 	C 	0.56490 0.26270 0.48760 -0.00300
C 	C 	0.79249 0.12626 0.51055 -0.04000
C 	C 	0.49710 0.03960 0.11470 -0.08300
C 	C 	0.15580 0.84750 0.48410 -0.00700
C 	C 	0.29000 0.48050 0.53510 -0.08300
C 	C 	0.47000 0.41380 0.44840 0.18700
C 	C 	0.71000 0.51950 0.46490 -0.08300
C 	C 	0.07510 0.96040 0.45750 -0.08300
C 	C 	0.41870 0.97960 0.94470 -0.24600
C 	C 	0.46490 0.71000 0.51950 -0.08300
C 	C 	0.75650 0.25270 0.59940 0.29000
C 	C 	0.69170 0.36340 0.84750 -0.00700
C 	C 	0.47690 0.60670 0.35560 -0.08100
C 	C 	0.07730 0.30220 0.56490 -0.00300
C 	C 	0.96040 0.45750 0.07510 -0.08300
C 	C 	0.58620 0.55160 0.53000 0.18700
C 	C 	0.36340 0.67170 0.51590 -0.00700
C 	C 	0.94380 0.96540 0.41380 0.18700
C 	C 	0.52310 0.87870 0.12980 -0.08100
C 	C 	0.10740 0.94710 0.46830 0.01200
C 	C 	0.36340 0.84750 0.69170 -0.00700
C 	C 	0.55160 0.96540 0.02160 0.18700
C 	C 	0.55597 0.08090 0.21967 0.03700
C 	C 	0.03960 0.54250 0.92490 -0.08300
C 	C 	0.15710 0.40060 0.65330 0.29000
C 	C 	0.43510 0.73730 0.51240 -0.00300
C 	C 	0.59940 0.75650 0.25270 0.29000
C 	C 	0.21967 0.55597 0.08090 0.03700
C 	C 	0.47880 0.63910 0.53170 0.01200
C 	C 	0.69780 0.77510 0.26270 -0.00300
C 	C 	0.65330 0.25270 0.49620 0.29000
C 	C 	0.94380 0.53000 0.97840 0.18700
C 	C 	0.05460 0.24510 0.53510 -0.08300
C 	C 	0.87374 0.66623 0.38429 -0.04000
C 	C 	0.46830 0.10740 0.94710 0.01200
C 	C 	0.35560 0.74890 0.87870 -0.08100
C 	C 	0.60670 0.35560 0.47690 -0.08100
C 	C 	0.12980 0.25110 0.60670 -0.08100
C 	C 	0.63910 0.53170 0.47880 0.01200
C 	C 	0.66370 0.52493 0.44403 0.03700
C 	C 	0.94540 0.75490 0.46490 -0.08300
C 	C 	0.67170 0.51590 0.36340 -0.00700
C 	C 	0.30220 0.22490 0.73730 -0.00300
C 	C 	0.07510 0.61760 0.11470 -0.08300
C 	C 	0.48945 0.61571 0.28194 -0.04000
C 	C 	0.77510 0.26270 0.69780 -0.00300
C 	C 	0.32830 0.48410 0.63660 -0.00700
C 	C 	0.94540 0.48050 0.19050 -0.08300
C 	C 	0.46490 0.94540 0.75490 -0.08300
C 	C 	0.97960 0.56090 0.03490 -0.24600
C 	C 	0.11470 0.49710 0.03960 -0.08300
C 	C 	0.44840 0.03460 0.97840 0.18700
C 	C 	0.96510 0.02040 0.43910 -0.24600
C 	C 	0.51055 0.38429 0.71806 -0.04000
C 	C 	0.05530 0.03490 0.47400 -0.24600
C 	C 	0.22490 0.73730 0.30220 -0.00300
C 	C 	0.48760 0.56490 0.26270 -0.00300
C 	C 	0.47000 0.02160 0.05620 0.18700
C 	C 	0.43910 0.41870 0.47400 -0.24600
C 	C 	0.66623 0.38429 0.87374 -0.04000
C 	C 	0.87020 0.74890 0.39330 -0.08100
C 	C 	0.59940 0.34670 0.84290 0.29000
C 	C 	0.94470 0.41870 0.97960 -0.24600
C 	C 	0.91910 0.47507 0.13877 0.03700
C 	C 	0.47880 0.94710 0.83970 0.01200
C 	C 	0.56090 0.58130 0.52600 -0.24600
C 	C 	0.53000 0.58620 0.55160 0.18700
C 	C 	0.05290 0.53170 0.89260 0.01200
C 	C 	0.51950 0.80950 0.05460 -0.08300
C 	C 	0.53000 0.97840 0.94380 0.18700
C 	C 	0.40060 0.24350 0.74730 0.29000
C 	C 	0.19050 0.94540 0.48050 -0.08300
C 	C 	0.50380 0.34670 0.74730 0.29000
C 	C 	0.39330 0.87020 0.74890 -0.08100
C 	C 	0.78033 0.86123 0.33630 0.03700
C 	C 	0.74730 0.40060 0.24350 0.29000
C 	C 	0.61760 0.11470 0.07510 -0.08300
C 	C 	0.38429 0.87374 0.66623 -0.04000
C 	C 	0.10740 0.63910 0.16030 0.01200
C 	C 	0.24510 0.19050 0.71000 -0.08300
C 	C 	0.05620 0.47000 0.02160 0.18700
C 	C 	0.52120 0.36090 0.46830 0.01200
C 	C 	0.34670 0.84290 0.59940 0.29000
C 	C 	0.15250 0.30830 0.63660 -0.00700
C 	C 	0.03460 0.97840 0.44840 0.18700
C 	C 	0.24510 0.53510 0.05460 -0.08300
C 	C 	0.49620 0.65330 0.25270 0.29000
C 	C 	0.49710 0.38240 0.45750 -0.08300
C 	C 	0.28194 0.48945 0.61571 -0.04000
C 	C 	0.12130 0.87020 0.47690 -0.08100
C 	C 	0.51240 0.77510 0.07730 -0.00300
C 	C 	0.78033 0.44403 0.91910 0.03700
C 	C 	0.92270 0.69780 0.43510 -0.00300
C 	C 	0.30830 0.63660 0.15250 -0.00700
C 	C 	0.53510 0.05460 0.24510 -0.08300
C 	C 	0.47400 0.43910 0.41870 -0.24600
C 	C 	0.43910 0.96510 0.02040 -0.24600
C 	C 	0.24350 0.84290 0.49620 0.29000
C 	C 	0.61571 0.12626 0.33377 -0.04000
C 	C 	0.84750 0.48410 0.15580 -0.00700
C 	C 	0.28194 0.66623 0.79249 -0.04000
C 	C 	0.12626 0.33377 0.61571 -0.04000
C 	C 	0.39330 0.64440 0.52310 -0.08100
C 	C 	0.80950 0.29000 0.75490 -0.08300
C 	C 	0.58620 0.05620 0.03460 0.18700
C 	C 	0.89260 0.05290 0.53170 0.01200
C 	C 	0.77510 0.07730 0.51240 -0.00300
C 	C 	0.97840 0.94380 0.53000 0.18700
C 	C 	0.61760 0.54250 0.50290 -0.08300
C 	C 	0.66370 0.21967 0.13877 0.03700
C 	C 	0.97840 0.44840 0.03460 0.18700
C 	C 	0.03960 0.11470 0.49710 -0.08300
C 	C 	0.43510 0.92270 0.69780 -0.00300
C 	C 	0.38240 0.45750 0.49710 -0.08300
C 	C 	0.65330 0.15710 0.40060 0.29000
C 	C 	0.97960 0.94470 0.41870 -0.24600
C 	C 	0.63660 0.32830 0.48410 -0.00700
C 	C 	0.35560 0.47690 0.60670 -0.08100
C 	C 	0.83970 0.47880 0.94710 0.01200
C 	C 	0.89260 0.36090 0.83970 0.01200
C 	C 	0.51055 0.79249 0.12626 -0.04000
C 	C 	0.86123 0.08090 0.52493 0.03700
C 	C 	0.48760 0.22490 0.92270 -0.00300
C 	C 	0.75490 0.80950 0.29000 -0.08300
C 	C 	0.55597 0.33630 0.47507 0.03700
C 	C 	0.75490 0.46490 0.94540 -0.08300
C 	C 	0.52493 0.86123 0.08090 0.03700
C 	C 	0.15710 0.50380 0.75650 0.29000
C 	C 	0.91910 0.78033 0.44403 0.03700
C 	C 	0.58130 0.02040 0.05530 -0.24600
C 	C 	0.53170 0.47880 0.63910 0.01200
C 	C 	0.52120 0.05290 0.16030 0.01200
C 	C 	0.12626 0.51055 0.79249 -0.04000
C 	C 	0.84420 0.32830 0.69170 -0.00700
C 	C 	0.45750 0.07510 0.96040 -0.08300
C 	C 	0.50380 0.75650 0.15710 0.29000
C 	C 	0.60670 0.12980 0.25110 -0.08100
C 	C 	0.25270 0.59940 0.75650 0.29000
C 	C 	0.02040 0.43910 0.96510 -0.24600
C 	C 	0.24350 0.74730 0.40060 0.29000
C 	C 	0.13877 0.66370 0.21967 0.03700
C 	C 	0.47507 0.55597 0.33630 0.03700
C 	C 	0.29000 0.75490 0.80950 -0.08300
C 	C 	0.92490 0.03960 0.54250 -0.08300
C 	C 	0.84750 0.69170 0.36340 -0.00700
C 	C 	0.87374 0.48945 0.20751 -0.04000
C 	C 	0.45750 0.49710 0.38240 -0.08300
C 	C 	0.44840 0.47000 0.41380 0.18700
C 	C 	0.74890 0.39330 0.87020 -0.08100
C 	C 	0.26270 0.69780 0.77510 -0.00300
C 	C 	0.52600 0.94470 0.96510 -0.24600
C 	C 	0.15250 0.51590 0.84420 -0.00700
C 	C 	0.52600 0.56090 0.58130 -0.24600
C 	C 	0.02160 0.55160 0.96540 0.18700
C 	C 	0.74730 0.50380 0.34670 0.29000
C 	C 	0.56090 0.03490 0.97960 -0.24600
C 	C 	0.15580 0.67170 0.30830 -0.00700
C 	C 	0.47690 0.12130 0.87020 -0.08100
C 	C 	0.03490 0.97960 0.56090 -0.24600
C 	C 	0.51590 0.84420 0.15250 -0.00700
C 	C 	0.02160 0.05620 0.47000 0.18700
C 	C 	0.38240 0.88530 0.92490 -0.08300
C 	C 	0.16030 0.52120 0.05290 0.01200
C 	C 	0.94710 0.46830 0.10740 0.01200
C 	C 	0.51590 0.36340 0.67170 -0.00700
C 	C 	0.92270 0.48760 0.22490 -0.00300
C 	C 	0.26270 0.48760 0.56490 -0.00300
C 	C 	0.50290 0.61760 0.54250 -0.08300
C 	C 	0.53170 0.89260 0.05290 0.01200
C 	C 	0.03490 0.47400 0.05530 -0.24600
C 	C 	0.69170 0.84420 0.32830 -0.00700
C 	C 	0.51240 0.43510 0.73730 -0.00300
C 	C 	0.94470 0.96510 0.52600 -0.24600
C 	C 	0.08090 0.21967 0.55597 0.03700
C 	C 	0.84290 0.49620 0.24350 0.29000
C 	C 	0.12980 0.52310 0.87870 -0.08100
C 	C 	0.73730 0.30220 0.22490 -0.00300
C 	C 	0.56490 0.07730 0.30220 -0.00300
C 	C 	0.87870 0.35560 0.74890 -0.08100
C 	C 	0.55160 0.53000 0.58620 0.18700
C 	C 	0.92490 0.38240 0.88530 -0.08300
C 	C 	0.54250 0.92490 0.03960 -0.08300
O 	O 	0.70063 0.28018 0.50079 -0.39000
O 	O 	0.78974 0.50133 0.37091 -0.39000
O 	O 	0.78974 0.41883 0.28841 -0.39000
O 	O 	0.19984 0.42045 0.70063 -0.39000
O 	O 	0.58117 0.37091 0.86958 -0.39000
O 	O 	0.49921 0.29937 0.71982 -0.39000
O 	O 	0.37091 0.78974 0.50133 -0.39000
O 	O 	0.57955 0.29937 0.80016 -0.39000
O 	O 	0.50079 0.22061 0.80016 -0.39000
O 	O 	0.62909 0.13042 0.41883 -0.39000
O 	O 	0.28018 0.50079 0.70063 -0.39000
O 	O 	0.22061 0.71982 0.42045 -0.39000
O 	O 	0.80016 0.57955 0.29937 -0.39000
O 	O 	0.28841 0.78974 0.41883 -0.39000
O 	O 	0.49867 0.28841 0.86958 -0.39000
O 	O 	0.42045 0.22061 0.71982 -0.39000
O 	O 	0.86958 0.58117 0.37091 -0.39000
O 	O 	0.41883 0.62909 0.13042 -0.39000
O 	O 	0.62909 0.21026 0.49867 -0.39000
O 	O 	0.29937 0.80016 0.57955 -0.39000
O 	O 	0.41883 0.28841 0.78974 -0.39000
O 	O 	0.71159 0.21026 0.58117 -0.39000
O 	O 	0.42045 0.70063 0.19984 -0.39000
O 	O 	0.28841 0.86958 0.49867 -0.39000
O 	O 	0.50079 0.70063 0.28018 -0.39000
O 	O 	0.58117 0.71159 0.21026 -0.39000
O 	O 	0.28018 0.57955 0.77939 -0.39000
O 	O 	0.21026 0.58117 0.71159 -0.39000
O 	O 	0.13042 0.41883 0.62909 -0.39000
O 	O 	0.21026 0.49867 0.62909 -0.39000
O 	O 	0.29937 0.71982 0.49921 -0.39000
O 	O 	0.50133 0.37091 0.78974 -0.39000
O 	O 	0.50133 0.71159 0.13042 -0.39000
O 	O 	0.77939 0.28018 0.57955 -0.39000
O 	O 	0.13042 0.50133 0.71159 -0.39000
O 	O 	0.77939 0.19984 0.49921 -0.39000
O 	O 	0.86958 0.49867 0.28841 -0.39000
O 	O 	0.49867 0.62909 0.21026 -0.39000
O 	O 	0.71982 0.42045 0.22061 -0.39000
O 	O 	0.49921 0.77939 0.19984 -0.39000
O 	O 	0.70063 0.19984 0.42045 -0.39000
O 	O 	0.37091 0.86958 0.58117 -0.39000
O 	O 	0.71159 0.13042 0.50133 -0.39000
O 	O 	0.19984 0.49921 0.77939 -0.39000
O 	O 	0.22061 0.80016 0.50079 -0.39000
O 	O 	0.57955 0.77939 0.28018 -0.39000
O 	O 	0.80016 0.50079 0.22061 -0.39000
O 	O 	0.71982 0.49921 0.29937 -0.39000
