data_crystal

_cell_length_a 34.34600
_cell_length_b 34.34600
_cell_length_c 34.34600
_cell_angle_alpha 90.00000
_cell_angle_beta  90.00000
_cell_angle_gamma 90.00000

_symmetry_space_group_name_	'P 1'
_symmetry_space_group_name_H-M	'P 1'

loop_
_symmetry_equiv_pos_as_xyz
  x,y,z

loop_
_atom_site_label
_atom_site_type_symbol
_atom_site_fract_x
_atom_site_fract_y
_atom_site_fract_z
_atom_site_charge
Cu	Cu	0.50000 0.83363 -0.00000 0.89300
Cu	Cu	0.00000 0.50000 0.83363 0.89300
Cu	Cu	-0.00000 0.50000 0.16637 0.89200
Cu	Cu	-0.00000 0.50000 0.24283 0.89500
Cu	Cu	0.75717 0.00000 0.50000 0.89500
Cu	Cu	0.24283 0.00000 0.50000 0.89500
Cu	Cu	0.00000 0.50000 0.75717 0.89500
Cu	Cu	0.83363 0.00000 0.50000 0.89300
Cu	Cu	0.50000 0.24283 -0.00000 0.89500
Cu	Cu	0.50000 0.75717 -0.00000 0.89500
Cu	Cu	0.50000 0.16637 -0.00000 0.89200
Cu	Cu	0.16637 0.00000 0.50000 0.89200
H 	H 	0.26560 0.11760 0.64930 0.06600
H 	H 	0.22630 0.26160 0.83170 0.10700
H 	H 	0.35070 0.26560 0.88240 0.06700
H 	H 	0.59060 0.14730 0.08630 0.04000
H 	H 	0.26160 0.16830 0.77370 0.10600
H 	H 	0.26430 0.92340 0.59520 0.04400
H 	H 	0.12730 0.64470 0.85140 0.06700
H 	H 	0.83170 0.22630 0.73840 0.10800
H 	H 	0.40480 0.73570 0.07660 0.04100
H 	H 	0.91370 0.59060 0.14730 0.04200
H 	H 	0.07660 0.40480 0.73570 0.04100
H 	H 	0.85270 0.08630 0.40940 0.04200
H 	H 	0.26160 0.16830 0.22630 0.10500
H 	H 	0.85270 0.91370 0.59060 0.04400
H 	H 	0.40940 0.14730 0.08630 0.04000
H 	H 	0.59520 0.26430 0.92340 0.04400
H 	H 	0.11760 0.64930 0.26560 0.06600
H 	H 	0.87270 0.64470 0.85140 0.06800
H 	H 	0.77370 0.73840 0.83170 0.10800
H 	H 	0.64470 0.14860 0.87270 0.06600
H 	H 	0.59520 0.26430 0.07660 0.04100
H 	H 	0.07660 0.59520 0.73570 0.04100
H 	H 	0.83170 0.77370 0.73840 0.10800
H 	H 	0.07660 0.40480 0.26430 0.04100
H 	H 	0.73840 0.16830 0.77370 0.10700
H 	H 	0.87270 0.35530 0.85140 0.06800
H 	H 	0.35530 0.85140 0.87270 0.06800
H 	H 	0.16830 0.77370 0.26160 0.10600
H 	H 	0.14730 0.91370 0.59060 0.04200
H 	H 	0.85270 0.08630 0.59060 0.04200
H 	H 	0.64470 0.85140 0.12730 0.06700
H 	H 	0.14730 0.08630 0.40940 0.04000
H 	H 	0.73840 0.83170 0.22630 0.10800
H 	H 	0.26160 0.83170 0.77370 0.10800
H 	H 	0.40940 0.14730 0.91370 0.04200
H 	H 	0.16830 0.22630 0.26160 0.10500
H 	H 	0.92340 0.59520 0.73570 0.04400
H 	H 	0.26560 0.88240 0.64930 0.06700
H 	H 	0.22630 0.73840 0.16830 0.10600
H 	H 	0.40480 0.26430 0.07660 0.04100
H 	H 	0.35530 0.14860 0.87270 0.06600
H 	H 	0.85140 0.12730 0.35530 0.06700
H 	H 	0.35070 0.26560 0.11760 0.06600
H 	H 	0.64470 0.85140 0.87270 0.06800
H 	H 	0.85140 0.87270 0.64470 0.06800
H 	H 	0.07660 0.59520 0.26430 0.04100
H 	H 	0.88240 0.35070 0.26560 0.06700
H 	H 	0.92340 0.40480 0.73570 0.04400
H 	H 	0.64930 0.73440 0.88240 0.06800
H 	H 	0.73570 0.07660 0.59520 0.04100
H 	H 	0.73440 0.88240 0.64930 0.06800
H 	H 	0.73570 0.92340 0.40480 0.04400
H 	H 	0.92340 0.40480 0.26430 0.04300
H 	H 	0.85270 0.91370 0.40940 0.04400
H 	H 	0.59060 0.14730 0.91370 0.04200
H 	H 	0.59060 0.85270 0.91370 0.04400
H 	H 	0.12730 0.35530 0.85140 0.06700
H 	H 	0.14730 0.91370 0.40940 0.04200
H 	H 	0.08630 0.40940 0.85270 0.04200
H 	H 	0.08630 0.40940 0.14730 0.04000
H 	H 	0.26430 0.92340 0.40480 0.04300
H 	H 	0.40480 0.26430 0.92340 0.04300
H 	H 	0.59520 0.73570 0.07660 0.04100
H 	H 	0.11760 0.35070 0.26560 0.06600
H 	H 	0.26430 0.07660 0.40480 0.04100
H 	H 	0.64930 0.26560 0.88240 0.06700
H 	H 	0.77370 0.73840 0.16830 0.10700
H 	H 	0.14860 0.87270 0.64470 0.06600
H 	H 	0.73440 0.11760 0.64930 0.06600
H 	H 	0.26560 0.11760 0.35070 0.06600
H 	H 	0.59520 0.73570 0.92340 0.04400
H 	H 	0.87270 0.35530 0.14860 0.06600
H 	H 	0.64470 0.14860 0.12730 0.06500
H 	H 	0.88240 0.64930 0.26560 0.06700
H 	H 	0.64930 0.26560 0.11760 0.06600
H 	H 	0.83170 0.77370 0.26160 0.10800
H 	H 	0.88240 0.64930 0.73440 0.06800
H 	H 	0.14860 0.12730 0.64470 0.06500
H 	H 	0.35070 0.73440 0.88240 0.06700
H 	H 	0.77370 0.26160 0.83170 0.10800
H 	H 	0.88240 0.35070 0.73440 0.06700
H 	H 	0.40940 0.85270 0.91370 0.04400
H 	H 	0.08630 0.59060 0.85270 0.04200
H 	H 	0.40940 0.85270 0.08630 0.04200
H 	H 	0.92340 0.59520 0.26430 0.04400
H 	H 	0.26430 0.07660 0.59520 0.04100
H 	H 	0.16830 0.22630 0.73840 0.10600
H 	H 	0.91370 0.40940 0.85270 0.04400
H 	H 	0.91370 0.40940 0.14730 0.04200
H 	H 	0.26160 0.83170 0.22630 0.10700
H 	H 	0.35530 0.14860 0.12730 0.06500
H 	H 	0.11760 0.35070 0.73440 0.06600
H 	H 	0.59060 0.85270 0.08630 0.04200
H 	H 	0.12730 0.64470 0.14860 0.06500
H 	H 	0.73570 0.92340 0.59520 0.04400
H 	H 	0.73840 0.16830 0.22630 0.10600
H 	H 	0.73570 0.07660 0.40480 0.04100
H 	H 	0.87270 0.64470 0.14860 0.06600
H 	H 	0.14730 0.08630 0.59060 0.04000
H 	H 	0.85140 0.87270 0.35530 0.06800
H 	H 	0.85140 0.12730 0.64470 0.06700
H 	H 	0.22630 0.73840 0.83170 0.10800
H 	H 	0.08630 0.59060 0.14730 0.04000
H 	H 	0.35530 0.85140 0.12730 0.06700
H 	H 	0.12730 0.35530 0.14860 0.06500
H 	H 	0.26560 0.88240 0.35070 0.06700
H 	H 	0.14860 0.12730 0.35530 0.06500
H 	H 	0.11760 0.64930 0.73440 0.06600
H 	H 	0.73840 0.83170 0.77370 0.10800
H 	H 	0.73440 0.88240 0.35070 0.06700
H 	H 	0.77370 0.26160 0.16830 0.10600
H 	H 	0.40480 0.73570 0.92340 0.04400
H 	H 	0.73440 0.11760 0.35070 0.06600
H 	H 	0.64930 0.73440 0.11760 0.06600
H 	H 	0.22630 0.26160 0.16830 0.10500
H 	H 	0.83170 0.22630 0.26160 0.10700
H 	H 	0.14860 0.87270 0.35530 0.06600
H 	H 	0.35070 0.73440 0.11760 0.06600
H 	H 	0.91370 0.59060 0.85270 0.04400
H 	H 	0.16830 0.77370 0.73840 0.10700
C 	C 	0.77600 0.75464 0.19020 -0.20600
C 	C 	0.44801 0.20387 0.05097 0.30500
C 	C 	0.22400 0.24536 0.19020 -0.20500
C 	C 	0.74747 0.21466 0.80543 0.15900
C 	C 	0.65218 0.20719 0.12638 0.04600
C 	C 	0.17191 0.11705 0.36531 -0.09600
C 	C 	0.17238 0.71603 0.21218 -0.08400
C 	C 	0.82884 0.09261 0.39757 0.01600
C 	C 	0.84815 0.31050 0.20644 0.01100
C 	C 	0.88873 0.63743 0.24172 -0.09400
C 	C 	0.28397 0.78782 0.82762 -0.08400
C 	C 	0.07750 0.41232 0.79432 -0.07300
C 	C 	0.78534 0.80543 0.25253 0.16000
C 	C 	0.34782 0.79281 0.12638 0.04700
C 	C 	0.17116 0.09261 0.39757 0.01600
C 	C 	0.79613 0.05097 0.55199 0.30500
C 	C 	0.79356 0.84815 0.31050 0.01200
C 	C 	0.11127 0.63743 0.75828 -0.09600
C 	C 	0.19457 0.74747 0.21466 0.15800
C 	C 	0.20387 0.94903 0.44801 0.30500
C 	C 	0.74747 0.78534 0.80543 0.16100
C 	C 	0.80543 0.74747 0.21466 0.15900
C 	C 	0.20387 0.05097 0.44801 0.30500
C 	C 	0.21218 0.82762 0.71603 -0.08400
C 	C 	0.82809 0.11705 0.36531 -0.09600
C 	C 	0.39757 0.17116 0.09261 0.01600
C 	C 	0.31050 0.20644 0.84815 0.01100
C 	C 	0.39483 0.24096 0.08684 0.01700
C 	C 	0.11127 0.63743 0.24172 -0.09600
C 	C 	0.87362 0.65218 0.79281 0.04700
C 	C 	0.20568 0.07750 0.58768 -0.07400
C 	C 	0.68950 0.20644 0.84815 0.01200
C 	C 	0.94903 0.55199 0.20387 0.30500
C 	C 	0.91316 0.60517 0.75904 0.01700
C 	C 	0.20644 0.15185 0.68950 0.01000
C 	C 	0.63743 0.75828 0.88873 -0.09400
C 	C 	0.75464 0.80980 0.77600 -0.20700
C 	C 	0.92250 0.41232 0.79432 -0.07000
C 	C 	0.24172 0.11127 0.63743 -0.09600
C 	C 	0.39483 0.75904 0.08684 0.01700
C 	C 	0.88295 0.36531 0.82809 -0.09400
C 	C 	0.25253 0.78534 0.80543 0.16000
C 	C 	0.11705 0.36531 0.82809 -0.09600
C 	C 	0.58768 0.79432 0.07750 -0.07300
C 	C 	0.90739 0.60243 0.82884 0.01600
C 	C 	0.75464 0.80980 0.22400 -0.20600
C 	C 	0.28397 0.21218 0.82762 -0.08400
C 	C 	0.88873 0.36257 0.75828 -0.09400
C 	C 	0.19457 0.25253 0.78534 0.15800
C 	C 	0.12638 0.34782 0.79281 0.04700
C 	C 	0.39757 0.17116 0.90739 0.01500
C 	C 	0.63469 0.82809 0.88295 -0.09400
C 	C 	0.41232 0.79432 0.92250 -0.07000
C 	C 	0.07750 0.41232 0.20568 -0.07400
C 	C 	0.60517 0.75904 0.08684 0.01700
C 	C 	0.60517 0.24096 0.08684 0.01700
C 	C 	0.24172 0.88873 0.63743 -0.09400
C 	C 	0.60243 0.17116 0.90739 0.01500
C 	C 	0.36257 0.75828 0.88873 -0.09400
C 	C 	0.77600 0.75464 0.80980 -0.20700
C 	C 	0.65218 0.79281 0.12638 0.04700
C 	C 	0.90739 0.39757 0.82884 0.01600
C 	C 	0.11705 0.36531 0.17191 -0.09600
C 	C 	0.84815 0.68950 0.20644 0.01200
C 	C 	0.28397 0.78782 0.17238 -0.08400
C 	C 	0.63469 0.17191 0.88295 -0.09400
C 	C 	0.60517 0.24096 0.91316 0.01700
C 	C 	0.15185 0.31050 0.79356 0.01000
C 	C 	0.71603 0.78782 0.82762 -0.08400
C 	C 	0.20568 0.92250 0.58768 -0.07000
C 	C 	0.44801 0.79613 0.94903 0.30500
C 	C 	0.05097 0.44801 0.20387 0.30500
C 	C 	0.75904 0.08684 0.60517 0.01700
C 	C 	0.63743 0.24172 0.88873 -0.09400
C 	C 	0.19020 0.77600 0.24536 -0.20500
C 	C 	0.19020 0.22400 0.24536 -0.20500
C 	C 	0.74747 0.78534 0.19457 0.15900
C 	C 	0.60243 0.82884 0.90739 0.01600
C 	C 	0.41232 0.20568 0.92250 -0.07100
C 	C 	0.60517 0.75904 0.91316 0.01700
C 	C 	0.36257 0.24172 0.88873 -0.09400
C 	C 	0.31050 0.79356 0.15185 0.01000
C 	C 	0.58768 0.20568 0.07750 -0.07400
C 	C 	0.21466 0.19457 0.25253 0.15700
C 	C 	0.20719 0.12638 0.34782 0.04600
C 	C 	0.80543 0.25253 0.21466 0.15800
C 	C 	0.77600 0.24536 0.80980 -0.20600
C 	C 	0.94903 0.44801 0.79613 0.30500
C 	C 	0.09261 0.39757 0.82884 0.01600
C 	C 	0.79356 0.84815 0.68950 0.01300
C 	C 	0.39483 0.75904 0.91316 0.01700
C 	C 	0.20644 0.15185 0.31050 0.00900
C 	C 	0.78782 0.17238 0.71603 -0.08400
C 	C 	0.05097 0.44801 0.79613 0.30500
C 	C 	0.60243 0.17116 0.09261 0.01600
C 	C 	0.09261 0.60243 0.82884 0.01600
C 	C 	0.75904 0.08684 0.39483 0.01700
C 	C 	0.58768 0.79432 0.92250 -0.07000
C 	C 	0.87362 0.65218 0.20719 0.04700
C 	C 	0.44801 0.20387 0.94903 0.30500
C 	C 	0.55199 0.20387 0.05097 0.30500
C 	C 	0.20568 0.92250 0.41232 -0.07100
C 	C 	0.17238 0.28397 0.21218 -0.08400
C 	C 	0.80543 0.25253 0.78534 0.16000
C 	C 	0.20387 0.94903 0.55199 0.30500
C 	C 	0.79613 0.94903 0.55199 0.30500
C 	C 	0.87362 0.34782 0.20719 0.04600
C 	C 	0.17191 0.11705 0.63469 -0.09600
C 	C 	0.28397 0.21218 0.17238 -0.08400
C 	C 	0.41232 0.79432 0.07750 -0.07300
C 	C 	0.19020 0.22400 0.75464 -0.20500
C 	C 	0.75828 0.88873 0.36257 -0.09400
C 	C 	0.82762 0.28397 0.78782 -0.08400
C 	C 	0.82809 0.88295 0.36531 -0.09400
C 	C 	0.88873 0.63743 0.75828 -0.09400
C 	C 	0.20568 0.07750 0.41232 -0.07400
C 	C 	0.75904 0.91316 0.60517 0.01700
C 	C 	0.31050 0.79356 0.84815 0.01200
C 	C 	0.39757 0.82884 0.90739 0.01600
C 	C 	0.24172 0.11127 0.36257 -0.09600
C 	C 	0.24096 0.08684 0.39483 0.01700
C 	C 	0.34782 0.20719 0.87362 0.04600
C 	C 	0.05097 0.55199 0.79613 0.30500
C 	C 	0.36257 0.24172 0.11127 -0.09600
C 	C 	0.75828 0.11127 0.36257 -0.09600
C 	C 	0.11705 0.63469 0.82809 -0.09500
C 	C 	0.05097 0.55199 0.20387 0.30500
C 	C 	0.75828 0.88873 0.63743 -0.09400
C 	C 	0.71603 0.21218 0.17238 -0.08400
C 	C 	0.07750 0.58768 0.20568 -0.07400
C 	C 	0.63743 0.24172 0.11127 -0.09600
C 	C 	0.36531 0.17191 0.11705 -0.09600
C 	C 	0.19457 0.74747 0.78534 0.15900
C 	C 	0.24096 0.91316 0.60517 0.01700
C 	C 	0.15185 0.68950 0.79356 0.01100
C 	C 	0.22400 0.75464 0.19020 -0.20500
C 	C 	0.41232 0.20568 0.07750 -0.07400
C 	C 	0.44801 0.79613 0.05097 0.30500
C 	C 	0.25253 0.21466 0.19457 0.15700
C 	C 	0.08684 0.60517 0.24096 0.01700
C 	C 	0.34782 0.79281 0.87362 0.04700
C 	C 	0.55199 0.79613 0.05097 0.30500
C 	C 	0.17116 0.90739 0.39757 0.01500
C 	C 	0.80980 0.77600 0.24536 -0.20600
C 	C 	0.20387 0.05097 0.55199 0.30500
C 	C 	0.88295 0.36531 0.17191 -0.09400
C 	C 	0.20719 0.87362 0.34782 0.04600
C 	C 	0.82884 0.90739 0.39757 0.01600
C 	C 	0.58768 0.20568 0.92250 -0.07000
C 	C 	0.21466 0.80543 0.74747 0.15900
C 	C 	0.17191 0.88295 0.36531 -0.09400
C 	C 	0.36257 0.75828 0.11127 -0.09600
C 	C 	0.63469 0.17191 0.11705 -0.09600
C 	C 	0.92250 0.58768 0.20568 -0.07000
C 	C 	0.15185 0.31050 0.20644 0.00900
C 	C 	0.82762 0.71603 0.78782 -0.08400
C 	C 	0.24536 0.80980 0.22400 -0.20500
C 	C 	0.75464 0.19020 0.22400 -0.20500
C 	C 	0.77600 0.24536 0.19020 -0.20500
C 	C 	0.78534 0.80543 0.74747 0.16100
C 	C 	0.92250 0.41232 0.20568 -0.07100
C 	C 	0.88873 0.36257 0.24172 -0.09400
C 	C 	0.24536 0.19020 0.77600 -0.20500
C 	C 	0.80980 0.22400 0.75464 -0.20600
C 	C 	0.71603 0.78782 0.17238 -0.08400
C 	C 	0.90739 0.60243 0.17116 0.01500
C 	C 	0.08684 0.39483 0.75904 0.01700
C 	C 	0.82762 0.71603 0.21218 -0.08400
C 	C 	0.90739 0.39757 0.17116 0.01500
C 	C 	0.88295 0.63469 0.82809 -0.09400
C 	C 	0.36531 0.82809 0.88295 -0.09400
C 	C 	0.21218 0.17238 0.28397 -0.08400
C 	C 	0.07750 0.58768 0.79432 -0.07300
C 	C 	0.24172 0.88873 0.36257 -0.09400
C 	C 	0.55199 0.20387 0.94903 0.30500
C 	C 	0.78782 0.17238 0.28397 -0.08400
C 	C 	0.80980 0.22400 0.24536 -0.20500
C 	C 	0.20719 0.87362 0.65218 0.04700
C 	C 	0.63743 0.75828 0.11127 -0.09600
C 	C 	0.82809 0.88295 0.63469 -0.09400
C 	C 	0.79281 0.12638 0.34782 0.04700
C 	C 	0.24096 0.91316 0.39483 0.01700
C 	C 	0.21218 0.82762 0.28397 -0.08400
C 	C 	0.78782 0.82762 0.28397 -0.08400
C 	C 	0.75464 0.19020 0.77600 -0.20600
C 	C 	0.79432 0.92250 0.58768 -0.07000
C 	C 	0.87362 0.34782 0.79281 0.04700
C 	C 	0.79432 0.92250 0.41232 -0.07000
C 	C 	0.20644 0.84815 0.68950 0.01200
C 	C 	0.08684 0.60517 0.75904 0.01700
C 	C 	0.09261 0.39757 0.17116 0.01600
C 	C 	0.21466 0.80543 0.25253 0.15800
C 	C 	0.39483 0.24096 0.91316 0.01700
C 	C 	0.82809 0.11705 0.63469 -0.09500
C 	C 	0.92250 0.58768 0.79432 -0.07000
C 	C 	0.17238 0.71603 0.78782 -0.08400
C 	C 	0.20719 0.12638 0.65218 0.04600
C 	C 	0.09261 0.60243 0.17116 0.01600
C 	C 	0.79613 0.05097 0.44801 0.30500
C 	C 	0.12638 0.65218 0.79281 0.04700
C 	C 	0.79356 0.15185 0.31050 0.01000
C 	C 	0.24536 0.19020 0.22400 -0.20500
C 	C 	0.65218 0.79281 0.87362 0.04700
C 	C 	0.78534 0.19457 0.74747 0.15900
C 	C 	0.74747 0.21466 0.19457 0.15800
C 	C 	0.15185 0.68950 0.20644 0.01000
C 	C 	0.94903 0.55199 0.79613 0.30500
C 	C 	0.22400 0.24536 0.80980 -0.20500
C 	C 	0.75828 0.11127 0.63743 -0.09600
C 	C 	0.84815 0.68950 0.79356 0.01300
C 	C 	0.36531 0.17191 0.88295 -0.09400
C 	C 	0.79432 0.07750 0.41232 -0.07300
C 	C 	0.78782 0.82762 0.71603 -0.08400
C 	C 	0.22400 0.75464 0.80980 -0.20600
C 	C 	0.82884 0.09261 0.60243 0.01600
C 	C 	0.79356 0.15185 0.68950 0.01100
C 	C 	0.91316 0.60517 0.24096 0.01700
C 	C 	0.91316 0.39483 0.75904 0.01700
C 	C 	0.11127 0.36257 0.75828 -0.09600
C 	C 	0.79432 0.07750 0.58768 -0.07300
C 	C 	0.11705 0.63469 0.17191 -0.09600
C 	C 	0.36531 0.82809 0.11705 -0.09600
C 	C 	0.17116 0.90739 0.60243 0.01500
C 	C 	0.11127 0.36257 0.24172 -0.09600
C 	C 	0.17116 0.09261 0.60243 0.01600
C 	C 	0.63469 0.82809 0.11705 -0.09500
C 	C 	0.34782 0.20719 0.12638 0.04600
C 	C 	0.39757 0.82884 0.09261 0.01600
C 	C 	0.80980 0.77600 0.75464 -0.20700
C 	C 	0.79281 0.87362 0.34782 0.04700
C 	C 	0.78534 0.19457 0.25253 0.15800
C 	C 	0.82884 0.90739 0.60243 0.01600
C 	C 	0.21218 0.17238 0.71603 -0.08400
C 	C 	0.12638 0.34782 0.20719 0.04600
C 	C 	0.68950 0.20644 0.15185 0.01000
C 	C 	0.19020 0.77600 0.75464 -0.20600
C 	C 	0.82762 0.28397 0.21218 -0.08400
C 	C 	0.68950 0.79356 0.84815 0.01300
C 	C 	0.71603 0.21218 0.82762 -0.08400
C 	C 	0.17191 0.88295 0.63469 -0.09400
C 	C 	0.31050 0.20644 0.15185 0.00900
C 	C 	0.94903 0.44801 0.20387 0.30500
C 	C 	0.68950 0.79356 0.15185 0.01100
C 	C 	0.79281 0.12638 0.65218 0.04700
C 	C 	0.55199 0.79613 0.94903 0.30500
C 	C 	0.84815 0.31050 0.79356 0.01200
C 	C 	0.79281 0.87362 0.65218 0.04700
C 	C 	0.25253 0.78534 0.19457 0.15800
C 	C 	0.80543 0.74747 0.78534 0.16100
C 	C 	0.17238 0.28397 0.78782 -0.08400
C 	C 	0.24536 0.80980 0.77600 -0.20600
C 	C 	0.65218 0.20719 0.87362 0.04700
C 	C 	0.08684 0.39483 0.24096 0.01700
C 	C 	0.25253 0.21466 0.80543 0.15800
C 	C 	0.12638 0.65218 0.20719 0.04600
C 	C 	0.79613 0.94903 0.44801 0.30500
C 	C 	0.24096 0.08684 0.60517 0.01700
C 	C 	0.75904 0.91316 0.39483 0.01700
C 	C 	0.20644 0.84815 0.31050 0.01100
C 	C 	0.88295 0.63469 0.17191 -0.09400
C 	C 	0.19457 0.25253 0.21466 0.15700
C 	C 	0.21466 0.19457 0.74747 0.15800
C 	C 	0.60243 0.82884 0.09261 0.01600
C 	C 	0.91316 0.39483 0.24096 0.01700
O 	O 	0.17049 0.03998 0.45910 -0.39400
O 	O 	0.54090 0.17049 0.03998 -0.39400
O 	O 	0.54050 0.76139 0.03964 -0.38700
O 	O 	0.45950 0.23861 0.96036 -0.38100
O 	O 	0.45950 0.76139 0.03964 -0.38700
O 	O 	0.23861 0.96036 0.45950 -0.38100
O 	O 	0.17049 0.96002 0.54090 -0.38700
O 	O 	0.03964 0.54050 0.23861 -0.38700
O 	O 	0.54050 0.23861 0.96036 -0.38100
O 	O 	0.17049 0.03998 0.54090 -0.39400
O 	O 	0.45910 0.17049 0.03998 -0.39400
O 	O 	0.23861 0.96036 0.54050 -0.38100
O 	O 	0.82951 0.03998 0.45910 -0.39300
O 	O 	0.45950 0.23861 0.03964 -0.38700
O 	O 	0.54090 0.82951 0.03998 -0.39200
O 	O 	0.03964 0.54050 0.76139 -0.38700
O 	O 	0.96002 0.54090 0.17049 -0.38700
O 	O 	0.45910 0.82951 0.96002 -0.38600
O 	O 	0.96036 0.54050 0.76139 -0.38100
O 	O 	0.03998 0.54090 0.82951 -0.39200
O 	O 	0.54050 0.76139 0.96036 -0.38100
O 	O 	0.96036 0.45950 0.76139 -0.38100
O 	O 	0.82951 0.03998 0.54090 -0.39200
O 	O 	0.76139 0.03964 0.54050 -0.38700
O 	O 	0.54050 0.23861 0.03964 -0.38700
O 	O 	0.54090 0.82951 0.96002 -0.38600
O 	O 	0.82951 0.96002 0.54090 -0.38600
O 	O 	0.17049 0.96002 0.45910 -0.38800
O 	O 	0.45910 0.17049 0.96002 -0.38800
O 	O 	0.76139 0.96036 0.45950 -0.38100
O 	O 	0.03998 0.54090 0.17049 -0.39400
O 	O 	0.76139 0.96036 0.54050 -0.38100
O 	O 	0.54090 0.17049 0.96002 -0.38700
O 	O 	0.96002 0.45910 0.17049 -0.38800
O 	O 	0.96002 0.45910 0.82951 -0.38600
O 	O 	0.03998 0.45910 0.82951 -0.39300
O 	O 	0.03998 0.45910 0.17049 -0.39400
O 	O 	0.96002 0.54090 0.82951 -0.38600
O 	O 	0.23861 0.03964 0.45950 -0.38700
O 	O 	0.23861 0.03964 0.54050 -0.38700
O 	O 	0.96036 0.54050 0.23861 -0.38100
O 	O 	0.03964 0.45950 0.23861 -0.38700
O 	O 	0.45950 0.76139 0.96036 -0.38100
O 	O 	0.45910 0.82951 0.03998 -0.39300
O 	O 	0.82951 0.96002 0.45910 -0.38600
O 	O 	0.03964 0.45950 0.76139 -0.38700
O 	O 	0.96036 0.45950 0.23861 -0.38100
O 	O 	0.76139 0.03964 0.45950 -0.38700
