data_crystal

_cell_length_a 9.53860
_cell_length_b 14.06790
_cell_length_c 17.06790
_cell_angle_alpha 90.00000
_cell_angle_beta  97.46600
_cell_angle_gamma 90.00000

_symmetry_space_group_name_	'P 1'
_symmetry_space_group_name_H-M	'P 1'

loop_
_symmetry_equiv_pos_as_xyz
  x,y,z

loop_
_atom_site_label
_atom_site_type_symbol
_atom_site_fract_x
_atom_site_fract_y
_atom_site_fract_z
_atom_site_charge
La	La	0.88273 0.87041 0.52856 1.61300
La	La	0.68230 0.62892 0.64040 1.52800
La	La	0.61727 0.37041 0.97144 1.61100
La	La	0.81770 0.12892 0.85960 1.52400
La	La	0.11727 0.12959 0.47144 1.61300
La	La	0.31770 0.37108 0.35960 1.52800
La	La	0.38273 0.62959 0.02856 1.61100
La	La	0.18230 0.87108 0.14040 1.52400
H 	H 	0.34950 0.92540 0.43340 0.02600
H 	H 	0.38450 0.77580 0.54690 0.13300
H 	H 	0.38830 0.88350 0.57060 0.15800
H 	H 	0.29370 0.73080 0.40340 0.13200
H 	H 	0.43710 0.77740 0.38930 0.13900
H 	H 	0.18040 0.61750 0.59600 0.13300
H 	H 	0.17970 0.72390 0.62280 0.13700
H 	H 	0.21910 0.57060 0.73210 0.02600
H 	H 	0.12310 0.71480 0.77830 0.15400
H 	H 	0.26220 0.76710 0.76400 0.15700
H 	H 	0.15050 0.42540 0.06660 0.02700
H 	H 	0.11550 0.27580 0.95310 0.12600
H 	H 	0.11170 0.38350 0.92940 0.15200
H 	H 	0.20630 0.23080 0.09660 0.12900
H 	H 	0.06290 0.27740 0.11070 0.13400
H 	H 	0.31960 0.11750 0.90400 0.13300
H 	H 	0.32030 0.22390 0.87720 0.13800
H 	H 	0.28090 0.07060 0.76790 0.02500
H 	H 	0.37690 0.21480 0.72170 0.15300
H 	H 	0.23780 0.26710 0.73600 0.15700
H 	H 	0.65050 0.07460 0.56660 0.02500
H 	H 	0.61550 0.22420 0.45310 0.13200
H 	H 	0.61170 0.11650 0.42940 0.15700
H 	H 	0.70630 0.26920 0.59660 0.13100
H 	H 	0.56290 0.22260 0.61070 0.13800
H 	H 	0.81960 0.38250 0.40400 0.13200
H 	H 	0.82030 0.27610 0.37720 0.13700
H 	H 	0.78090 0.42940 0.26790 0.02600
H 	H 	0.87690 0.28520 0.22170 0.15400
H 	H 	0.73780 0.23290 0.23600 0.15700
H 	H 	0.84950 0.57460 0.93340 0.02700
H 	H 	0.88450 0.72420 0.04690 0.12600
H 	H 	0.88830 0.61650 0.07060 0.15200
H 	H 	0.79370 0.76920 0.90340 0.12900
H 	H 	0.93710 0.72260 0.88930 0.13400
H 	H 	0.68040 0.88250 0.09600 0.13300
H 	H 	0.67970 0.77610 0.12280 0.13800
H 	H 	0.71910 0.92940 0.23210 0.02500
H 	H 	0.62310 0.78520 0.27830 0.15300
H 	H 	0.76220 0.73290 0.26400 0.15700
C 	C 	0.16880 0.87080 0.46820 0.29200
C 	C 	0.31960 0.86350 0.45160 0.07100
C 	C 	0.40990 0.83890 0.53050 -0.41900
C 	C 	0.56650 0.84160 0.52570 0.43500
C 	C 	0.33690 0.78950 0.38880 -0.37600
C 	C 	0.27470 0.81440 0.30490 0.40000
C 	C 	0.99960 0.65380 0.64030 0.42600
C 	C 	0.15640 0.65970 0.63720 -0.41800
C 	C 	0.24760 0.63340 0.71500 0.09600
C 	C 	0.22410 0.70660 0.77840 -0.40000
C 	C 	0.28950 0.68210 0.86200 0.41800
C 	C 	0.39910 0.62910 0.69930 0.24900
C 	C 	0.33120 0.37080 0.03180 0.29500
C 	C 	0.18040 0.36350 0.04840 0.05900
C 	C 	0.09010 0.33890 0.96950 -0.39600
C 	C 	0.93350 0.34160 0.97430 0.41600
C 	C 	0.16310 0.28950 0.11120 -0.36800
C 	C 	0.22530 0.31440 0.19510 0.39800
C 	C 	0.50040 0.15380 0.85970 0.42900
C 	C 	0.34360 0.15970 0.86280 -0.42200
C 	C 	0.25240 0.13340 0.78500 0.09800
C 	C 	0.27590 0.20660 0.72160 -0.40000
C 	C 	0.21050 0.18210 0.63800 0.41900
C 	C 	0.10090 0.12910 0.80070 0.24800
C 	C 	0.83120 0.12920 0.53180 0.29200
C 	C 	0.68040 0.13650 0.54840 0.07100
C 	C 	0.59010 0.16110 0.46950 -0.41900
C 	C 	0.43350 0.15840 0.47430 0.43500
C 	C 	0.66310 0.21050 0.61120 -0.37600
C 	C 	0.72530 0.18560 0.69510 0.40000
C 	C 	0.00040 0.34620 0.35970 0.42600
C 	C 	0.84360 0.34030 0.36280 -0.41800
C 	C 	0.75240 0.36660 0.28500 0.09600
C 	C 	0.77590 0.29340 0.22160 -0.40000
C 	C 	0.71050 0.31790 0.13800 0.41800
C 	C 	0.60090 0.37090 0.30070 0.24900
C 	C 	0.66880 0.62920 0.96820 0.29500
C 	C 	0.81960 0.63650 0.95160 0.05900
C 	C 	0.90990 0.66110 0.03050 -0.39600
C 	C 	0.06650 0.65840 0.02570 0.41600
C 	C 	0.83690 0.71050 0.88880 -0.36800
C 	C 	0.77470 0.68560 0.80490 0.39800
C 	C 	0.49960 0.84620 0.14030 0.42900
C 	C 	0.65640 0.84030 0.13720 -0.42200
C 	C 	0.74760 0.86660 0.21500 0.09800
C 	C 	0.72410 0.79340 0.27840 -0.40000
C 	C 	0.78950 0.81790 0.36200 0.41900
C 	C 	0.89910 0.87090 0.19930 0.24800
O 	O 	0.11590 0.95210 0.47910 -0.47800
O 	O 	0.09820 0.79720 0.47610 -0.38400
O 	O 	0.64730 0.78080 0.56360 -0.53400
O 	O 	0.61840 0.90710 0.48890 -0.40400
O 	O 	0.22340 0.89690 0.28940 -0.39800
O 	O 	0.27890 0.75300 0.25220 -0.40600
O 	O 	0.91930 0.71530 0.60150 -0.52900
O 	O 	0.95000 0.59090 0.67960 -0.42500
O 	O 	0.28350 0.74420 0.91460 -0.40700
O 	O 	0.34420 0.60220 0.87790 -0.39500
O 	O 	0.45120 0.55060 0.68330 -0.38700
O 	O 	0.47040 0.70480 0.69670 -0.35700
O 	O 	0.38410 0.45210 0.02090 -0.47900
O 	O 	0.40180 0.29720 0.02390 -0.38400
O 	O 	0.85270 0.28080 0.93640 -0.53100
O 	O 	0.88160 0.40710 0.01110 -0.39300
O 	O 	0.27660 0.39690 0.21060 -0.39700
O 	O 	0.22110 0.25300 0.24780 -0.40500
O 	O 	0.58070 0.21530 0.89850 -0.52900
O 	O 	0.55000 0.09090 0.82040 -0.42500
O 	O 	0.21650 0.24420 0.58540 -0.41000
O 	O 	0.15580 0.10220 0.62210 -0.39600
O 	O 	0.04880 0.05060 0.81670 -0.38500
O 	O 	0.02960 0.20480 0.80330 -0.35400
O 	O 	0.88410 0.04790 0.52090 -0.47800
O 	O 	0.90180 0.20280 0.52390 -0.38400
O 	O 	0.35270 0.21920 0.43640 -0.53400
O 	O 	0.38160 0.09290 0.51110 -0.40400
O 	O 	0.77660 0.10310 0.71060 -0.39800
O 	O 	0.72110 0.24700 0.74780 -0.40600
O 	O 	0.08070 0.28470 0.39850 -0.52900
O 	O 	0.05000 0.40910 0.32040 -0.42500
O 	O 	0.71650 0.25580 0.08540 -0.40700
O 	O 	0.65580 0.39780 0.12210 -0.39500
O 	O 	0.54880 0.44940 0.31670 -0.38700
O 	O 	0.52960 0.29520 0.30330 -0.35700
O 	O 	0.61590 0.54790 0.97910 -0.47900
O 	O 	0.59820 0.70280 0.97610 -0.38400
O 	O 	0.14730 0.71920 0.06360 -0.53100
O 	O 	0.11840 0.59290 0.98890 -0.39300
O 	O 	0.72340 0.60310 0.78940 -0.39700
O 	O 	0.77890 0.74700 0.75220 -0.40500
O 	O 	0.41930 0.78470 0.10150 -0.52900
O 	O 	0.45000 0.90910 0.17960 -0.42500
O 	O 	0.78350 0.75580 0.41460 -0.41000
O 	O 	0.84420 0.89780 0.37790 -0.39600
O 	O 	0.95120 0.94940 0.18330 -0.38500
O 	O 	0.97040 0.79520 0.19670 -0.35400
