data_crystal

_cell_length_a 41.03630
_cell_length_b 12.17330
_cell_length_c 14.16090
_cell_angle_alpha 90.00000
_cell_angle_beta  100.86900
_cell_angle_gamma 90.00000

_symmetry_space_group_name_	'P 1'
_symmetry_space_group_name_H-M	'P 1'

loop_
_symmetry_equiv_pos_as_xyz
  x,y,z

loop_
_atom_site_label
_atom_site_type_symbol
_atom_site_fract_x
_atom_site_fract_y
_atom_site_fract_z
_atom_site_charge
Se	Se	0.51636 0.04716 0.13802 0.38300
Cu	Cu	0.72545 0.32085 0.49266 0.90400
Cu	Cu	0.56196 0.99722 0.95426 0.92900
Cu	Cu	0.54928 0.22512 0.07950 0.93600
Cu	Cu	0.54105 0.21816 0.32317 0.91400
O 	O 	0.70530 0.78650 0.06820 -0.39700
O 	O 	0.74845 0.90310 0.08660 -0.40100
O 	O 	0.74591 0.12440 0.39000 -0.40900
O 	O 	0.70349 0.24290 0.37710 -0.39900
O 	O 	0.60557 0.03760 0.01980 -0.41000
O 	O 	0.59628 0.13050 0.14820 -0.37500
O 	O 	0.55790 0.27640 0.95910 -0.40300
O 	O 	0.55838 0.12280 0.87080 -0.42000
O 	O 	0.55780 0.63080 0.63070 -0.40300
O 	O 	0.54517 0.63140 0.77910 -0.41300
O 	O 	0.54566 0.27670 0.45040 -0.42200
O 	O 	0.56214 0.12730 0.54040 -0.41900
O 	O 	0.52311 0.08990 0.02950 -0.39800
O 	O 	0.53071 0.17110 0.19050 -0.48500
O 	O 	0.47578 0.06990 0.13820 -0.44700
C 	C 	0.71980 0.87590 0.09660 0.35900
C 	C 	0.70080 0.95670 0.14550 -0.10800
C 	C 	0.66740 0.97520 0.10860 0.05800
H 	H 	0.65640 0.93310 0.05760 0.03700
C 	C 	0.65060 0.05700 0.14840 -0.11300
C 	C 	0.66650 0.11850 0.22670 0.05500
H 	H 	0.65510 0.17260 0.25350 0.03600
C 	C 	0.69980 0.09740 0.26420 -0.10900
C 	C 	0.71710 0.01780 0.22340 0.05400
H 	H 	0.73940 0.00540 0.24800 0.04300
C 	C 	0.71770 0.16000 0.35050 0.36100
C 	C 	0.61420 0.07710 0.10280 0.36900
C 	C 	0.55760 0.22440 0.88100 0.38700
C 	C 	0.55590 0.29110 0.79120 -0.13200
C 	C 	0.55640 0.23550 0.70580 0.07400
H 	H 	0.55860 0.15950 0.70650 0.02700
C 	C 	0.55380 0.29200 0.61950 -0.13200
C 	C 	0.55150 0.40490 0.61860 0.06800
H 	H 	0.55000 0.44310 0.56110 0.04000
C 	C 	0.55130 0.46230 0.70470 -0.12500
C 	C 	0.55260 0.40500 0.79040 0.06900
H 	H 	0.55130 0.44260 0.84680 0.04100
C 	C 	0.55130 0.58560 0.70600 0.38100
C 	C 	0.55360 0.22660 0.52880 0.37800
Se	Se	0.01636 0.54716 0.13802 0.38500
Cu	Cu	0.22545 0.82085 0.49266 0.90500
Cu	Cu	0.06196 0.49722 0.95426 0.93100
Cu	Cu	0.04928 0.72512 0.07950 0.93700
Cu	Cu	0.04105 0.71816 0.32317 0.91500
O 	O 	0.20530 0.28650 0.06820 -0.39700
O 	O 	0.24845 0.40310 0.08660 -0.40100
O 	O 	0.24591 0.62440 0.39000 -0.40800
O 	O 	0.20349 0.74290 0.37710 -0.39800
O 	O 	0.10557 0.53760 0.01980 -0.40800
O 	O 	0.09628 0.63050 0.14820 -0.37400
O 	O 	0.05790 0.77640 0.95910 -0.40300
O 	O 	0.05838 0.62280 0.87080 -0.42000
O 	O 	0.05780 0.13080 0.63070 -0.40200
O 	O 	0.04517 0.13140 0.77910 -0.41100
O 	O 	0.04566 0.77670 0.45040 -0.42100
O 	O 	0.06214 0.62730 0.54040 -0.41800
O 	O 	0.02311 0.58990 0.02950 -0.39600
O 	O 	0.03071 0.67110 0.19050 -0.48500
O 	O 	0.97578 0.56990 0.13820 -0.44600
C 	C 	0.21980 0.37590 0.09660 0.35900
C 	C 	0.20080 0.45670 0.14550 -0.10800
C 	C 	0.16740 0.47520 0.10860 0.05700
H 	H 	0.15640 0.43310 0.05760 0.03700
C 	C 	0.15060 0.55700 0.14840 -0.11100
C 	C 	0.16650 0.61850 0.22670 0.05400
H 	H 	0.15510 0.67260 0.25350 0.03600
C 	C 	0.19980 0.59740 0.26420 -0.10900
C 	C 	0.21710 0.51780 0.22340 0.05500
H 	H 	0.23940 0.50540 0.24800 0.04300
C 	C 	0.21770 0.66000 0.35050 0.36100
C 	C 	0.11420 0.57710 0.10280 0.36900
C 	C 	0.05760 0.72440 0.88100 0.38700
C 	C 	0.05590 0.79110 0.79120 -0.13300
C 	C 	0.05640 0.73550 0.70580 0.07400
H 	H 	0.05860 0.65950 0.70650 0.02700
C 	C 	0.05380 0.79200 0.61950 -0.13300
C 	C 	0.05150 0.90490 0.61860 0.06900
H 	H 	0.05000 0.94310 0.56110 0.04000
C 	C 	0.05130 0.96230 0.70470 -0.12600
C 	C 	0.05260 0.90500 0.79040 0.07000
H 	H 	0.05130 0.94260 0.84680 0.04000
C 	C 	0.05130 0.08560 0.70600 0.38200
C 	C 	0.05360 0.72660 0.52880 0.37800
Se	Se	0.48364 0.04716 0.36198 0.38500
Cu	Cu	0.27455 0.32085 0.00734 0.90400
Cu	Cu	0.43804 0.99722 0.54574 0.93100
Cu	Cu	0.45072 0.22512 0.42050 0.93700
Cu	Cu	0.45895 0.21816 0.17683 0.91500
O 	O 	0.29470 0.78650 0.43180 -0.39600
O 	O 	0.25155 0.90310 0.41340 -0.40100
O 	O 	0.25409 0.12440 0.11000 -0.40800
O 	O 	0.29651 0.24290 0.12290 -0.39800
O 	O 	0.39443 0.03760 0.48020 -0.40800
O 	O 	0.40372 0.13050 0.35180 -0.37400
O 	O 	0.44210 0.27640 0.54090 -0.40200
O 	O 	0.44162 0.12280 0.62920 -0.42000
O 	O 	0.44220 0.63080 0.86930 -0.40200
O 	O 	0.45483 0.63140 0.72090 -0.41200
O 	O 	0.45434 0.27670 0.04960 -0.42200
O 	O 	0.43786 0.12730 0.95960 -0.41700
O 	O 	0.47689 0.08990 0.47050 -0.39600
O 	O 	0.46929 0.17110 0.30950 -0.48500
O 	O 	0.52422 0.06990 0.36180 -0.44700
C 	C 	0.28020 0.87590 0.40340 0.35900
C 	C 	0.29920 0.95670 0.35450 -0.10800
C 	C 	0.33260 0.97520 0.39140 0.05700
H 	H 	0.34360 0.93310 0.44240 0.03700
C 	C 	0.34940 0.05700 0.35160 -0.11200
C 	C 	0.33350 0.11850 0.27330 0.05400
H 	H 	0.34490 0.17260 0.24650 0.03600
C 	C 	0.30020 0.09740 0.23580 -0.10900
C 	C 	0.28290 0.01780 0.27660 0.05500
H 	H 	0.26060 0.00540 0.25200 0.04300
C 	C 	0.28230 0.16000 0.14950 0.36100
C 	C 	0.38580 0.07710 0.39720 0.36900
C 	C 	0.44240 0.22440 0.61900 0.38700
C 	C 	0.44410 0.29110 0.70880 -0.13200
C 	C 	0.44360 0.23550 0.79420 0.07400
H 	H 	0.44140 0.15950 0.79350 0.02700
C 	C 	0.44620 0.29200 0.88050 -0.13200
C 	C 	0.44850 0.40490 0.88140 0.06900
H 	H 	0.45000 0.44310 0.93890 0.04000
C 	C 	0.44870 0.46230 0.79530 -0.12500
C 	C 	0.44740 0.40500 0.70960 0.06900
H 	H 	0.44870 0.44260 0.65320 0.04100
C 	C 	0.44870 0.58560 0.79400 0.38100
C 	C 	0.44640 0.22660 0.97120 0.37900
Se	Se	0.98364 0.54716 0.36198 0.38500
Cu	Cu	0.77455 0.82085 0.00734 0.90500
Cu	Cu	0.93804 0.49722 0.54574 0.93100
Cu	Cu	0.95072 0.72512 0.42050 0.93700
Cu	Cu	0.95895 0.71816 0.17683 0.91500
O 	O 	0.79470 0.28650 0.43180 -0.39700
O 	O 	0.75155 0.40310 0.41340 -0.40100
O 	O 	0.75409 0.62440 0.11000 -0.40800
O 	O 	0.79651 0.74290 0.12290 -0.39800
O 	O 	0.89443 0.53760 0.48020 -0.40800
O 	O 	0.90372 0.63050 0.35180 -0.37400
O 	O 	0.94210 0.77640 0.54090 -0.40200
O 	O 	0.94162 0.62280 0.62920 -0.42000
O 	O 	0.94220 0.13080 0.86930 -0.40200
O 	O 	0.95483 0.13140 0.72090 -0.41200
O 	O 	0.95434 0.77670 0.04960 -0.42000
O 	O 	0.93786 0.62730 0.95960 -0.41800
O 	O 	0.97689 0.58990 0.47050 -0.39600
O 	O 	0.96929 0.67110 0.30950 -0.48500
O 	O 	0.02422 0.56990 0.36180 -0.44600
C 	C 	0.78020 0.37590 0.40340 0.35900
C 	C 	0.79920 0.45670 0.35450 -0.10800
C 	C 	0.83260 0.47520 0.39140 0.05700
H 	H 	0.84360 0.43310 0.44240 0.03700
C 	C 	0.84940 0.55700 0.35160 -0.11100
C 	C 	0.83350 0.61850 0.27330 0.05400
H 	H 	0.84490 0.67260 0.24650 0.03600
C 	C 	0.80020 0.59740 0.23580 -0.10900
C 	C 	0.78290 0.51780 0.27660 0.05500
H 	H 	0.76060 0.50540 0.25200 0.04300
C 	C 	0.78230 0.66000 0.14950 0.36100
C 	C 	0.88580 0.57710 0.39720 0.36900
C 	C 	0.94240 0.72440 0.61900 0.38700
C 	C 	0.94410 0.79110 0.70880 -0.13300
C 	C 	0.94360 0.73550 0.79420 0.07400
H 	H 	0.94140 0.65950 0.79350 0.02700
C 	C 	0.94620 0.79200 0.88050 -0.13300
C 	C 	0.94850 0.90490 0.88140 0.06900
H 	H 	0.95000 0.94310 0.93890 0.03900
C 	C 	0.94870 0.96230 0.79530 -0.12700
C 	C 	0.94740 0.90500 0.70960 0.07000
H 	H 	0.94870 0.94260 0.65320 0.04000
C 	C 	0.94870 0.08560 0.79400 0.38200
C 	C 	0.94640 0.72660 0.97120 0.37700
Se	Se	0.48364 0.95284 0.86198 0.38400
Cu	Cu	0.27455 0.67915 0.50734 0.90500
Cu	Cu	0.43804 0.00278 0.04574 0.93000
Cu	Cu	0.45072 0.77488 0.92050 0.93700
Cu	Cu	0.45895 0.78184 0.67683 0.91500
O 	O 	0.29470 0.21350 0.93180 -0.39600
O 	O 	0.25155 0.09690 0.91340 -0.40000
O 	O 	0.25409 0.87560 0.61000 -0.40800
O 	O 	0.29651 0.75710 0.62290 -0.39800
O 	O 	0.39443 0.96240 0.98020 -0.40900
O 	O 	0.40372 0.86950 0.85180 -0.37400
O 	O 	0.44210 0.72360 0.04090 -0.40200
O 	O 	0.44162 0.87720 0.12920 -0.41900
O 	O 	0.44220 0.36920 0.36930 -0.40200
O 	O 	0.45483 0.36860 0.22090 -0.41200
O 	O 	0.45434 0.72330 0.54960 -0.42100
O 	O 	0.43786 0.87270 0.45960 -0.41800
O 	O 	0.47689 0.91010 0.97050 -0.39700
O 	O 	0.46929 0.82890 0.80950 -0.48500
O 	O 	0.52422 0.93010 0.86180 -0.44700
C 	C 	0.28020 0.12410 0.90340 0.35900
C 	C 	0.29920 0.04330 0.85450 -0.10800
C 	C 	0.33260 0.02480 0.89140 0.05800
H 	H 	0.34360 0.06690 0.94240 0.03700
C 	C 	0.34940 0.94300 0.85160 -0.11300
C 	C 	0.33350 0.88150 0.77330 0.05500
H 	H 	0.34490 0.82740 0.74650 0.03600
C 	C 	0.30020 0.90260 0.73580 -0.10900
C 	C 	0.28290 0.98220 0.77660 0.05400
H 	H 	0.26060 0.99460 0.75200 0.04300
C 	C 	0.28230 0.84000 0.64950 0.36100
C 	C 	0.38580 0.92290 0.89720 0.36900
C 	C 	0.44240 0.77560 0.11900 0.38700
C 	C 	0.44410 0.70890 0.20880 -0.13200
C 	C 	0.44360 0.76450 0.29420 0.07400
H 	H 	0.44140 0.84050 0.29350 0.02700
C 	C 	0.44620 0.70800 0.38050 -0.13200
C 	C 	0.44850 0.59510 0.38140 0.06800
H 	H 	0.45000 0.55690 0.43890 0.04000
C 	C 	0.44870 0.53770 0.29530 -0.12500
C 	C 	0.44740 0.59500 0.20960 0.06900
H 	H 	0.44870 0.55740 0.15320 0.04100
C 	C 	0.44870 0.41440 0.29400 0.38100
C 	C 	0.44640 0.77340 0.47120 0.37800
Se	Se	0.98364 0.45284 0.86198 0.38500
Cu	Cu	0.77455 0.17915 0.50734 0.90500
Cu	Cu	0.93804 0.50278 0.04574 0.93100
Cu	Cu	0.95072 0.27488 0.92050 0.93700
Cu	Cu	0.95895 0.28184 0.67683 0.91500
O 	O 	0.79470 0.71350 0.93180 -0.39700
O 	O 	0.75155 0.59690 0.91340 -0.40100
O 	O 	0.75409 0.37560 0.61000 -0.40800
O 	O 	0.79651 0.25710 0.62290 -0.39800
O 	O 	0.89443 0.46240 0.98020 -0.40800
O 	O 	0.90372 0.36950 0.85180 -0.37400
O 	O 	0.94210 0.22360 0.04090 -0.40300
O 	O 	0.94162 0.37720 0.12920 -0.42000
O 	O 	0.94220 0.86920 0.36930 -0.40200
O 	O 	0.95483 0.86860 0.22090 -0.41100
O 	O 	0.95434 0.22330 0.54960 -0.42100
O 	O 	0.93786 0.37270 0.45960 -0.41800
O 	O 	0.97689 0.41010 0.97050 -0.39600
O 	O 	0.96929 0.32890 0.80950 -0.48500
O 	O 	0.02422 0.43010 0.86180 -0.44600
C 	C 	0.78020 0.62410 0.90340 0.35900
C 	C 	0.79920 0.54330 0.85450 -0.10800
C 	C 	0.83260 0.52480 0.89140 0.05700
H 	H 	0.84360 0.56690 0.94240 0.03700
C 	C 	0.84940 0.44300 0.85160 -0.11100
C 	C 	0.83350 0.38150 0.77330 0.05400
H 	H 	0.84490 0.32740 0.74650 0.03600
C 	C 	0.80020 0.40260 0.73580 -0.10900
C 	C 	0.78290 0.48220 0.77660 0.05500
H 	H 	0.76060 0.49460 0.75200 0.04300
C 	C 	0.78230 0.34000 0.64950 0.36100
C 	C 	0.88580 0.42290 0.89720 0.36900
C 	C 	0.94240 0.27560 0.11900 0.38700
C 	C 	0.94410 0.20890 0.20880 -0.13300
C 	C 	0.94360 0.26450 0.29420 0.07400
H 	H 	0.94140 0.34050 0.29350 0.02700
C 	C 	0.94620 0.20800 0.38050 -0.13300
C 	C 	0.94850 0.09510 0.38140 0.06900
H 	H 	0.95000 0.05690 0.43890 0.04000
C 	C 	0.94870 0.03770 0.29530 -0.12600
C 	C 	0.94740 0.09500 0.20960 0.07000
H 	H 	0.94870 0.05740 0.15320 0.04000
C 	C 	0.94870 0.91440 0.29400 0.38200
C 	C 	0.94640 0.27340 0.47120 0.37800
Se	Se	0.51636 0.95284 0.63802 0.38500
Cu	Cu	0.72545 0.67915 0.99266 0.90400
Cu	Cu	0.56196 0.00278 0.45426 0.93100
Cu	Cu	0.54928 0.77488 0.57950 0.93700
Cu	Cu	0.54105 0.78184 0.82317 0.91500
O 	O 	0.70530 0.21350 0.56820 -0.39600
O 	O 	0.74845 0.09690 0.58660 -0.40100
O 	O 	0.74591 0.87560 0.89000 -0.40800
O 	O 	0.70349 0.75710 0.87710 -0.39800
O 	O 	0.60557 0.96240 0.51980 -0.40800
O 	O 	0.59628 0.86950 0.64820 -0.37400
O 	O 	0.55790 0.72360 0.45910 -0.40200
O 	O 	0.55838 0.87720 0.37080 -0.42000
O 	O 	0.55780 0.36920 0.13070 -0.40200
O 	O 	0.54517 0.36860 0.27910 -0.41200
O 	O 	0.54566 0.72330 0.95040 -0.42200
O 	O 	0.56214 0.87270 0.04040 -0.41700
O 	O 	0.52311 0.91010 0.52950 -0.39600
O 	O 	0.53071 0.82890 0.69050 -0.48500
O 	O 	0.47578 0.93010 0.63820 -0.44700
C 	C 	0.71980 0.12410 0.59660 0.35900
C 	C 	0.70080 0.04330 0.64550 -0.10800
C 	C 	0.66740 0.02480 0.60860 0.05700
H 	H 	0.65640 0.06690 0.55760 0.03700
C 	C 	0.65060 0.94300 0.64840 -0.11200
C 	C 	0.66650 0.88150 0.72670 0.05400
H 	H 	0.65510 0.82740 0.75350 0.03600
C 	C 	0.69980 0.90260 0.76420 -0.10900
C 	C 	0.71710 0.98220 0.72340 0.05500
H 	H 	0.73940 0.99460 0.74800 0.04300
C 	C 	0.71770 0.84000 0.85050 0.36100
C 	C 	0.61420 0.92290 0.60280 0.36900
C 	C 	0.55760 0.77560 0.38100 0.38700
C 	C 	0.55590 0.70890 0.29120 -0.13200
C 	C 	0.55640 0.76450 0.20580 0.07400
H 	H 	0.55860 0.84050 0.20650 0.02700
C 	C 	0.55380 0.70800 0.11950 -0.13200
C 	C 	0.55150 0.59510 0.11860 0.06900
H 	H 	0.55000 0.55690 0.06110 0.04000
C 	C 	0.55130 0.53770 0.20470 -0.12500
C 	C 	0.55260 0.59500 0.29040 0.06900
H 	H 	0.55130 0.55740 0.34680 0.04100
C 	C 	0.55130 0.41440 0.20600 0.38100
C 	C 	0.55360 0.77340 0.02880 0.37900
Se	Se	0.01636 0.45284 0.63802 0.38500
Cu	Cu	0.22545 0.17915 0.99266 0.90500
Cu	Cu	0.06196 0.50278 0.45426 0.93100
Cu	Cu	0.04928 0.27488 0.57950 0.93700
Cu	Cu	0.04105 0.28184 0.82317 0.91500
O 	O 	0.20530 0.71350 0.56820 -0.39700
O 	O 	0.24845 0.59690 0.58660 -0.40100
O 	O 	0.24591 0.37560 0.89000 -0.40800
O 	O 	0.20349 0.25710 0.87710 -0.39800
O 	O 	0.10557 0.46240 0.51980 -0.40800
O 	O 	0.09628 0.36950 0.64820 -0.37400
O 	O 	0.05790 0.22360 0.45910 -0.40200
O 	O 	0.05838 0.37720 0.37080 -0.42000
O 	O 	0.05780 0.86920 0.13070 -0.40200
O 	O 	0.04517 0.86860 0.27910 -0.41200
O 	O 	0.04566 0.22330 0.95040 -0.42000
O 	O 	0.06214 0.37270 0.04040 -0.41800
O 	O 	0.02311 0.41010 0.52950 -0.39600
O 	O 	0.03071 0.32890 0.69050 -0.48500
O 	O 	0.97578 0.43010 0.63820 -0.44600
C 	C 	0.21980 0.62410 0.59660 0.35900
C 	C 	0.20080 0.54330 0.64550 -0.10800
C 	C 	0.16740 0.52480 0.60860 0.05700
H 	H 	0.15640 0.56690 0.55760 0.03700
C 	C 	0.15060 0.44300 0.64840 -0.11100
C 	C 	0.16650 0.38150 0.72670 0.05400
H 	H 	0.15510 0.32740 0.75350 0.03600
C 	C 	0.19980 0.40260 0.76420 -0.10900
C 	C 	0.21710 0.48220 0.72340 0.05500
H 	H 	0.23940 0.49460 0.74800 0.04300
C 	C 	0.21770 0.34000 0.85050 0.36100
C 	C 	0.11420 0.42290 0.60280 0.36900
C 	C 	0.05760 0.27560 0.38100 0.38700
C 	C 	0.05590 0.20890 0.29120 -0.13300
C 	C 	0.05640 0.26450 0.20580 0.07400
H 	H 	0.05860 0.34050 0.20650 0.02700
C 	C 	0.05380 0.20800 0.11950 -0.13300
C 	C 	0.05150 0.09510 0.11860 0.06900
H 	H 	0.05000 0.05690 0.06110 0.03900
C 	C 	0.05130 0.03770 0.20470 -0.12700
C 	C 	0.05260 0.09500 0.29040 0.07000
H 	H 	0.05130 0.05740 0.34680 0.04000
C 	C 	0.05130 0.91440 0.20600 0.38200
C 	C 	0.05360 0.27340 0.02880 0.37700
