data_crystal

_cell_length_a 18.93810
_cell_length_b 18.93810
_cell_length_c 21.20080
_cell_angle_alpha 90.00000
_cell_angle_beta  90.00000
_cell_angle_gamma 90.00000

_symmetry_space_group_name_	'P 1'
_symmetry_space_group_name_H-M	'P 1'

loop_
_symmetry_equiv_pos_as_xyz
  x,y,z

loop_
_atom_site_label
_atom_site_type_symbol
_atom_site_fract_x
_atom_site_fract_y
_atom_site_fract_z
_atom_site_charge
O 	O 	0.28506 0.56137 0.07599 -0.39200
O 	O 	0.26460 0.62156 0.16366 -0.24100
C 	C 	0.27910 0.61880 0.10650 0.31800
C 	C 	0.29230 0.68595 0.07039 -0.02400
O 	O 	0.26662 0.59792 0.94017 -0.40200
C 	C 	0.31190 0.68597 0.00658 -0.02000
C 	C 	0.32260 0.62129 0.96587 0.34000
O 	O 	0.38171 0.59970 0.95516 -0.26100
O 	O 	0.78506 0.06137 0.57599 -0.39100
O 	O 	0.76460 0.12156 0.66366 -0.24000
C 	C 	0.77910 0.11880 0.60650 0.31700
C 	C 	0.79230 0.18595 0.57039 -0.02200
O 	O 	0.76662 0.09792 0.44017 -0.40200
C 	C 	0.81190 0.18597 0.50658 -0.02500
C 	C 	0.82260 0.12129 0.46587 0.34000
O 	O 	0.88171 0.09970 0.45516 -0.25900
O 	O 	0.21494 0.43863 0.57599 -0.39300
O 	O 	0.23540 0.37844 0.66366 -0.24200
C 	C 	0.22090 0.38120 0.60650 0.31600
C 	C 	0.20770 0.31405 0.57039 -0.02300
O 	O 	0.23338 0.40208 0.44017 -0.40300
C 	C 	0.18810 0.31403 0.50658 -0.02700
C 	C 	0.17740 0.37871 0.46587 0.34200
O 	O 	0.11829 0.40030 0.45516 -0.26400
O 	O 	0.71494 0.93863 0.07599 -0.39100
O 	O 	0.73540 0.87844 0.16366 -0.24100
C 	C 	0.72090 0.88120 0.10650 0.31800
C 	C 	0.70770 0.81405 0.07039 -0.02500
O 	O 	0.73338 0.90208 0.94017 -0.40200
C 	C 	0.68810 0.81403 0.00658 -0.02000
C 	C 	0.67740 0.87871 0.96587 0.33700
O 	O 	0.61829 0.90030 0.95516 -0.26200
O 	O 	0.68863 0.03506 0.32599 -0.39300
O 	O 	0.62844 0.01460 0.41366 -0.24200
C 	C 	0.63120 0.02910 0.35650 0.31600
C 	C 	0.56405 0.04230 0.32039 -0.02200
O 	O 	0.65208 0.01662 0.19017 -0.40300
C 	C 	0.56403 0.06190 0.25658 -0.02600
C 	C 	0.62871 0.07260 0.21587 0.34100
O 	O 	0.65030 0.13171 0.20516 -0.26200
O 	O 	0.18863 0.53506 0.82599 -0.39300
O 	O 	0.12844 0.51460 0.91366 -0.24300
C 	C 	0.13120 0.52910 0.85650 0.31500
C 	C 	0.06405 0.54230 0.82039 -0.02000
O 	O 	0.15208 0.51662 0.69017 -0.40300
C 	C 	0.06403 0.56190 0.75658 -0.02400
C 	C 	0.12871 0.57260 0.71587 0.34000
O 	O 	0.15030 0.63171 0.70516 -0.26300
O 	O 	0.81137 0.96494 0.82599 -0.39200
O 	O 	0.87156 0.98540 0.91366 -0.23900
C 	C 	0.86880 0.97090 0.85650 0.31400
C 	C 	0.93595 0.95770 0.82039 -0.01200
O 	O 	0.84792 0.98338 0.69017 -0.40100
C 	C 	0.93597 0.93810 0.75658 -0.01600
C 	C 	0.87129 0.92740 0.71587 0.33900
O 	O 	0.84970 0.86829 0.70516 -0.26000
O 	O 	0.31137 0.46494 0.32599 -0.39300
O 	O 	0.37156 0.48540 0.41366 -0.24200
C 	C 	0.36880 0.47090 0.35650 0.31600
C 	C 	0.43595 0.45770 0.32039 -0.02200
O 	O 	0.34792 0.48338 0.19017 -0.40300
C 	C 	0.43597 0.43810 0.25658 -0.02600
C 	C 	0.37129 0.42740 0.21587 0.34100
O 	O 	0.34970 0.36829 0.20516 -0.26200
O 	O 	0.21494 0.56137 0.42401 -0.39300
O 	O 	0.23540 0.62156 0.33634 -0.24200
C 	C 	0.22090 0.61880 0.39350 0.31600
C 	C 	0.20770 0.68595 0.42961 -0.02300
O 	O 	0.23338 0.59792 0.55983 -0.40300
C 	C 	0.18810 0.68597 0.49342 -0.02700
C 	C 	0.17740 0.62129 0.53413 0.34200
O 	O 	0.11829 0.59970 0.54484 -0.26400
O 	O 	0.71494 0.06137 0.92401 -0.39100
O 	O 	0.73540 0.12156 0.83634 -0.24100
C 	C 	0.72090 0.11880 0.89350 0.31800
C 	C 	0.70770 0.18595 0.92961 -0.02500
O 	O 	0.73338 0.09792 0.05983 -0.40200
C 	C 	0.68810 0.18597 0.99342 -0.02000
C 	C 	0.67740 0.12129 0.03413 0.33700
O 	O 	0.61829 0.09970 0.04484 -0.26200
O 	O 	0.28506 0.43863 0.92401 -0.39300
O 	O 	0.26460 0.37844 0.83634 -0.24200
C 	C 	0.27910 0.38120 0.89350 0.31700
C 	C 	0.29230 0.31405 0.92961 -0.02500
O 	O 	0.26662 0.40208 0.05983 -0.40300
C 	C 	0.31190 0.31403 0.99342 -0.02100
C 	C 	0.32260 0.37871 0.03413 0.33900
O 	O 	0.38171 0.40030 0.04484 -0.26200
O 	O 	0.78506 0.93863 0.42401 -0.39200
O 	O 	0.76460 0.87844 0.33634 -0.24100
C 	C 	0.77910 0.88120 0.39350 0.31700
C 	C 	0.79230 0.81405 0.42961 -0.02200
O 	O 	0.76662 0.90208 0.55983 -0.40200
C 	C 	0.81190 0.81403 0.49342 -0.02500
C 	C 	0.82260 0.87871 0.53413 0.34000
O 	O 	0.88171 0.90030 0.54484 -0.25900
O 	O 	0.81137 0.03506 0.17401 -0.39200
O 	O 	0.87156 0.01460 0.08634 -0.23900
C 	C 	0.86880 0.02910 0.14350 0.31400
C 	C 	0.93595 0.04230 0.17961 -0.01200
O 	O 	0.84792 0.01662 0.30983 -0.40100
C 	C 	0.93597 0.06190 0.24342 -0.01600
C 	C 	0.87129 0.07260 0.28413 0.33900
O 	O 	0.84970 0.13171 0.29484 -0.26000
O 	O 	0.31137 0.53506 0.67401 -0.39300
O 	O 	0.37156 0.51460 0.58634 -0.24200
C 	C 	0.36880 0.52910 0.64350 0.31600
C 	C 	0.43595 0.54230 0.67961 -0.02200
O 	O 	0.34792 0.51662 0.80983 -0.40300
C 	C 	0.43597 0.56190 0.74342 -0.02600
C 	C 	0.37129 0.57260 0.78413 0.34100
O 	O 	0.34970 0.63171 0.79484 -0.26200
O 	O 	0.68863 0.96494 0.67401 -0.39300
O 	O 	0.62844 0.98540 0.58634 -0.24200
C 	C 	0.63120 0.97090 0.64350 0.31600
C 	C 	0.56405 0.95770 0.67961 -0.02200
O 	O 	0.65208 0.98338 0.80983 -0.40300
C 	C 	0.56403 0.93810 0.74342 -0.02600
C 	C 	0.62871 0.92740 0.78413 0.34100
O 	O 	0.65030 0.86829 0.79484 -0.26200
O 	O 	0.18863 0.46494 0.17401 -0.39300
O 	O 	0.12844 0.48540 0.08634 -0.24300
C 	C 	0.13120 0.47090 0.14350 0.31500
C 	C 	0.06405 0.45770 0.17961 -0.02000
O 	O 	0.15208 0.48338 0.30983 -0.40300
C 	C 	0.06403 0.43810 0.24342 -0.02400
C 	C 	0.12871 0.42740 0.28413 0.34000
O 	O 	0.15030 0.36829 0.29484 -0.26300
O 	O 	0.71494 0.43863 0.92401 -0.39300
O 	O 	0.73540 0.37844 0.83634 -0.24100
C 	C 	0.72090 0.38120 0.89350 0.31700
C 	C 	0.70770 0.31405 0.92961 -0.02500
O 	O 	0.73338 0.40208 0.05983 -0.40200
C 	C 	0.68810 0.31403 0.99342 -0.02100
C 	C 	0.67740 0.37871 0.03413 0.33800
O 	O 	0.61829 0.40030 0.04484 -0.26200
O 	O 	0.21494 0.93863 0.42401 -0.39200
O 	O 	0.23540 0.87844 0.33634 -0.24200
C 	C 	0.22090 0.88120 0.39350 0.31600
C 	C 	0.20770 0.81405 0.42961 -0.02300
O 	O 	0.23338 0.90208 0.55983 -0.40300
C 	C 	0.18810 0.81403 0.49342 -0.02700
C 	C 	0.17740 0.87871 0.53413 0.34200
O 	O 	0.11829 0.90030 0.54484 -0.26400
O 	O 	0.78506 0.56137 0.42401 -0.39200
O 	O 	0.76460 0.62156 0.33634 -0.24100
C 	C 	0.77910 0.61880 0.39350 0.31700
C 	C 	0.79230 0.68595 0.42961 -0.02200
O 	O 	0.76662 0.59792 0.55983 -0.40200
C 	C 	0.81190 0.68597 0.49342 -0.02500
C 	C 	0.82260 0.62129 0.53413 0.34000
O 	O 	0.88171 0.59970 0.54484 -0.25900
O 	O 	0.28506 0.06137 0.92401 -0.39100
O 	O 	0.26460 0.12156 0.83634 -0.24200
C 	C 	0.27910 0.11880 0.89350 0.31700
C 	C 	0.29230 0.18595 0.92961 -0.02500
O 	O 	0.26662 0.09792 0.05983 -0.40300
C 	C 	0.31190 0.18597 0.99342 -0.02000
C 	C 	0.32260 0.12129 0.03413 0.33700
O 	O 	0.38171 0.09970 0.04484 -0.26200
O 	O 	0.31137 0.96494 0.67401 -0.39300
O 	O 	0.37156 0.98540 0.58634 -0.24200
C 	C 	0.36880 0.97090 0.64350 0.31600
C 	C 	0.43595 0.95770 0.67961 -0.02200
O 	O 	0.34792 0.98338 0.80983 -0.40300
C 	C 	0.43597 0.93810 0.74342 -0.02600
C 	C 	0.37129 0.92740 0.78413 0.34100
O 	O 	0.34970 0.86829 0.79484 -0.26200
O 	O 	0.81137 0.46494 0.17401 -0.39200
O 	O 	0.87156 0.48540 0.08634 -0.23800
C 	C 	0.86880 0.47090 0.14350 0.31400
C 	C 	0.93595 0.45770 0.17961 -0.01200
O 	O 	0.84792 0.48338 0.30983 -0.40100
C 	C 	0.93597 0.43810 0.24342 -0.01600
C 	C 	0.87129 0.42740 0.28413 0.33900
O 	O 	0.84970 0.36829 0.29484 -0.26000
O 	O 	0.18863 0.03506 0.17401 -0.39300
O 	O 	0.12844 0.01460 0.08634 -0.24400
C 	C 	0.13120 0.02910 0.14350 0.31500
C 	C 	0.06405 0.04230 0.17961 -0.02100
O 	O 	0.15208 0.01662 0.30983 -0.40300
C 	C 	0.06403 0.06190 0.24342 -0.02400
C 	C 	0.12871 0.07260 0.28413 0.34000
O 	O 	0.15030 0.13171 0.29484 -0.26300
O 	O 	0.68863 0.53506 0.67401 -0.39300
O 	O 	0.62844 0.51460 0.58634 -0.24200
C 	C 	0.63120 0.52910 0.64350 0.31600
C 	C 	0.56405 0.54230 0.67961 -0.02200
O 	O 	0.65208 0.51662 0.80983 -0.40300
C 	C 	0.56403 0.56190 0.74342 -0.02600
C 	C 	0.62871 0.57260 0.78413 0.34100
O 	O 	0.65030 0.63171 0.79484 -0.26200
O 	O 	0.78506 0.43863 0.57599 -0.39200
O 	O 	0.76460 0.37844 0.66366 -0.24100
C 	C 	0.77910 0.38120 0.60650 0.31700
C 	C 	0.79230 0.31405 0.57039 -0.02200
O 	O 	0.76662 0.40208 0.44017 -0.40200
C 	C 	0.81190 0.31403 0.50658 -0.02500
C 	C 	0.82260 0.37871 0.46587 0.34000
O 	O 	0.88171 0.40030 0.45516 -0.25900
O 	O 	0.28506 0.93863 0.07599 -0.39100
O 	O 	0.26460 0.87844 0.16366 -0.24200
C 	C 	0.27910 0.88120 0.10650 0.31700
C 	C 	0.29230 0.81405 0.07039 -0.02500
O 	O 	0.26662 0.90208 0.94017 -0.40300
C 	C 	0.31190 0.81403 0.00658 -0.02000
C 	C 	0.32260 0.87871 0.96587 0.33700
O 	O 	0.38171 0.90030 0.95516 -0.26200
O 	O 	0.71494 0.56137 0.07599 -0.39300
O 	O 	0.73540 0.62156 0.16366 -0.24100
C 	C 	0.72090 0.61880 0.10650 0.31700
C 	C 	0.70770 0.68595 0.07039 -0.02500
O 	O 	0.73338 0.59792 0.94017 -0.40200
C 	C 	0.68810 0.68597 0.00658 -0.02100
C 	C 	0.67740 0.62129 0.96587 0.33800
O 	O 	0.61829 0.59970 0.95516 -0.26200
O 	O 	0.21494 0.06137 0.57599 -0.39200
O 	O 	0.23540 0.12156 0.66366 -0.24200
C 	C 	0.22090 0.11880 0.60650 0.31600
C 	C 	0.20770 0.18595 0.57039 -0.02300
O 	O 	0.23338 0.09792 0.44017 -0.40300
C 	C 	0.18810 0.18597 0.50658 -0.02700
C 	C 	0.17740 0.12129 0.46587 0.34200
O 	O 	0.11829 0.09970 0.45516 -0.26400
O 	O 	0.18863 0.96494 0.82599 -0.39300
O 	O 	0.12844 0.98540 0.91366 -0.24400
C 	C 	0.13120 0.97090 0.85650 0.31500
C 	C 	0.06405 0.95770 0.82039 -0.02100
O 	O 	0.15208 0.98338 0.69017 -0.40300
C 	C 	0.06403 0.93810 0.75658 -0.02400
C 	C 	0.12871 0.92740 0.71587 0.34000
O 	O 	0.15030 0.86829 0.70516 -0.26300
O 	O 	0.68863 0.46494 0.32599 -0.39300
O 	O 	0.62844 0.48540 0.41366 -0.24200
C 	C 	0.63120 0.47090 0.35650 0.31600
C 	C 	0.56405 0.45770 0.32039 -0.02200
O 	O 	0.65208 0.48338 0.19017 -0.40300
C 	C 	0.56403 0.43810 0.25658 -0.02600
C 	C 	0.62871 0.42740 0.21587 0.34100
O 	O 	0.65030 0.36829 0.20516 -0.26200
O 	O 	0.31137 0.03506 0.32599 -0.39300
O 	O 	0.37156 0.01460 0.41366 -0.24200
C 	C 	0.36880 0.02910 0.35650 0.31600
C 	C 	0.43595 0.04230 0.32039 -0.02200
O 	O 	0.34792 0.01662 0.19017 -0.40300
C 	C 	0.43597 0.06190 0.25658 -0.02600
C 	C 	0.37129 0.07260 0.21587 0.34100
O 	O 	0.34970 0.13171 0.20516 -0.26200
O 	O 	0.81137 0.53506 0.82599 -0.39200
O 	O 	0.87156 0.51460 0.91366 -0.23800
C 	C 	0.86880 0.52910 0.85650 0.31400
C 	C 	0.93595 0.54230 0.82039 -0.01200
O 	O 	0.84792 0.51662 0.69017 -0.40100
C 	C 	0.93597 0.56190 0.75658 -0.01600
C 	C 	0.87129 0.57260 0.71587 0.33900
O 	O 	0.84970 0.63171 0.70516 -0.26000
Zn	Zn	0.27647 0.47353 0.12500 1.24900
Zn	Zn	0.22353 0.52647 0.62500 1.24900
Zn	Zn	0.77647 0.02647 0.37500 1.24900
Zn	Zn	0.72353 0.97353 0.87500 1.24800
Zn	Zn	0.22353 0.47353 0.37500 1.24900
Zn	Zn	0.27647 0.52647 0.87500 1.24900
Zn	Zn	0.72353 0.02647 0.12500 1.24800
Zn	Zn	0.77647 0.97353 0.62500 1.24900
Zn	Zn	0.72353 0.52647 0.87500 1.24900
Zn	Zn	0.77647 0.47353 0.37500 1.24900
Zn	Zn	0.22353 0.97353 0.62500 1.24900
Zn	Zn	0.27647 0.02647 0.12500 1.24800
Zn	Zn	0.77647 0.52647 0.62500 1.24900
Zn	Zn	0.72353 0.47353 0.12500 1.24900
Zn	Zn	0.27647 0.97353 0.87500 1.24800
Zn	Zn	0.22353 0.02647 0.37500 1.24900
C 	C 	0.28360 0.75000 0.10020 -0.01200
H 	H 	0.27120 0.75000 0.14270 0.08400
C 	C 	0.32120 0.75000 0.97630 -0.01400
H 	H 	0.33420 0.75000 0.93400 0.07000
C 	C 	0.21640 0.25000 0.60020 -0.01500
H 	H 	0.22880 0.25000 0.64270 0.08500
C 	C 	0.17880 0.25000 0.47630 -0.00600
H 	H 	0.16580 0.25000 0.43400 0.06700
C 	C 	0.50000 0.03360 0.35020 -0.01500
H 	H 	0.50000 0.02120 0.39270 0.08600
C 	C 	0.50000 0.07120 0.22630 -0.00600
H 	H 	0.50000 0.08420 0.18400 0.06700
C 	C 	0.00000 0.53360 0.85020 -0.03000
H 	H 	0.00000 0.52120 0.89270 0.08700
C 	C 	-0.00000 0.57120 0.72630 -0.02100
H 	H 	0.00000 0.58420 0.68400 0.06900
C 	C 	0.00000 0.96640 0.85020 -0.03000
H 	H 	-0.00000 0.97880 0.89270 0.08700
C 	C 	-0.00000 0.92880 0.72630 -0.02100
H 	H 	-0.00000 0.91580 0.68400 0.06900
C 	C 	0.50000 0.46640 0.35020 -0.01500
H 	H 	0.50000 0.47880 0.39270 0.08500
C 	C 	0.50000 0.42880 0.22630 -0.00600
H 	H 	0.50000 0.41580 0.18400 0.06700
C 	C 	0.21640 0.75000 0.39980 -0.01500
H 	H 	0.22880 0.75000 0.35730 0.08500
C 	C 	0.17880 0.75000 0.52370 -0.00600
H 	H 	0.16580 0.75000 0.56600 0.06700
C 	C 	0.28360 0.25000 0.89980 -0.01200
H 	H 	0.27120 0.25000 0.85730 0.08400
C 	C 	0.32120 0.25000 0.02370 -0.01400
H 	H 	0.33420 0.25000 0.06600 0.07000
C 	C 	0.00000 0.03360 0.14980 -0.03000
H 	H 	0.00000 0.02120 0.10730 0.08700
C 	C 	-0.00000 0.07120 0.27370 -0.02100
H 	H 	0.00000 0.08420 0.31600 0.06900
C 	C 	0.50000 0.53360 0.64980 -0.01500
H 	H 	0.50000 0.52120 0.60730 0.08500
C 	C 	0.50000 0.57120 0.77370 -0.00600
H 	H 	0.50000 0.58420 0.81600 0.06700
C 	C 	0.50000 0.96640 0.64980 -0.01500
H 	H 	0.50000 0.97880 0.60730 0.08600
C 	C 	0.50000 0.92880 0.77370 -0.00600
H 	H 	0.50000 0.91580 0.81600 0.06700
C 	C 	0.00000 0.46640 0.14980 -0.03000
H 	H 	0.00000 0.47880 0.10730 0.08700
C 	C 	-0.00000 0.42880 0.27370 -0.02100
H 	H 	-0.00000 0.41580 0.31600 0.06900
C 	C 	0.71640 0.25000 0.89980 -0.01200
H 	H 	0.72880 0.25000 0.85730 0.08500
C 	C 	0.67880 0.25000 0.02370 -0.01400
H 	H 	0.66580 0.25000 0.06600 0.07000
C 	C 	0.78360 0.75000 0.39980 -0.01400
H 	H 	0.77120 0.75000 0.35730 0.08600
C 	C 	0.82120 0.75000 0.52370 -0.00600
H 	H 	0.83420 0.75000 0.56600 0.06800
C 	C 	0.78360 0.25000 0.60020 -0.01400
H 	H 	0.77120 0.25000 0.64270 0.08600
C 	C 	0.82120 0.25000 0.47630 -0.00600
H 	H 	0.83420 0.25000 0.43400 0.06800
C 	C 	0.71640 0.75000 0.10020 -0.01200
H 	H 	0.72880 0.75000 0.14270 0.08500
C 	C 	0.67880 0.75000 0.97630 -0.01400
H 	H 	0.66580 0.75000 0.93400 0.07000
