data_crystal

_cell_length_a 25.09860
_cell_length_b 4.86660
_cell_length_c 24.03590
_cell_angle_alpha 90.00000
_cell_angle_beta  117.20000
_cell_angle_gamma 90.00000

_symmetry_space_group_name_	'P 1'
_symmetry_space_group_name_H-M	'P 1'

loop_
_symmetry_equiv_pos_as_xyz
  x,y,z

loop_
_atom_site_label
_atom_site_type_symbol
_atom_site_fract_x
_atom_site_fract_y
_atom_site_fract_z
_atom_site_charge
Be	Be	0.18285 0.67060 0.24933 1.48000
Be	Be	0.05990 0.65320 0.34050 1.48200
Be	Be	0.26060 0.51750 0.57071 1.48100
P 	P 	0.23747 0.16266 0.31487 0.70400
P 	P 	0.06565 0.48725 0.22332 0.72200
P 	P 	0.17659 0.47397 0.43645 0.70500
O 	O 	0.21413 0.46280 0.31077 -0.52300
O 	O 	0.26461 0.07280 0.38292 -0.55000
O 	O 	0.28541 0.14720 0.29415 -0.59400
O 	O 	0.18351 0.98320 0.27404 -0.59700
O 	O 	0.11258 0.59450 0.20528 -0.53000
O 	O 	0.06975 0.16700 0.22610 -0.50100
H 	H 	0.10500 0.12010 0.24090 0.32400
O 	O 	0.00344 0.53590 0.17115 -0.55600
O 	O 	0.07611 0.59900 0.28534 -0.62100
O 	O 	0.11057 0.53500 0.40523 -0.50800
O 	O 	0.20338 0.55860 0.50384 -0.57500
O 	O 	0.20911 0.65720 0.40555 -0.48700
O 	O 	0.18660 0.17650 0.42668 -0.56800
O 	O 	0.05807 0.98750 0.35356 -0.63300
H 	H 	0.02390 0.04550 0.33280 0.34200
Be	Be	0.68285 0.17060 0.24933 1.48100
Be	Be	0.55990 0.15320 0.34050 1.48300
Be	Be	0.76060 0.01750 0.57071 1.48100
P 	P 	0.73747 0.66266 0.31487 0.70300
P 	P 	0.56565 0.98725 0.22332 0.68800
P 	P 	0.67659 0.97397 0.43645 0.68600
O 	O 	0.71413 0.96280 0.31077 -0.52900
O 	O 	0.76461 0.57280 0.38292 -0.54900
O 	O 	0.78541 0.64720 0.29415 -0.59600
O 	O 	0.68351 0.48320 0.27404 -0.59600
O 	O 	0.61258 0.09450 0.20528 -0.51700
O 	O 	0.56975 0.66700 0.22610 -0.49700
H 	H 	0.60500 0.62010 0.24090 0.32200
O 	O 	0.50344 0.03590 0.17115 -0.54200
O 	O 	0.57611 0.09900 0.28534 -0.60700
O 	O 	0.61057 0.03500 0.40523 -0.49900
O 	O 	0.70338 0.05860 0.50384 -0.56800
O 	O 	0.70911 0.15720 0.40555 -0.47900
O 	O 	0.68660 0.67650 0.42668 -0.56500
O 	O 	0.55807 0.48750 0.35356 -0.64200
H 	H 	0.52390 0.54550 0.33280 0.34500
Be	Be	0.81715 0.67060 0.25067 1.48100
Be	Be	0.94010 0.65320 0.15950 1.48300
Be	Be	0.73940 0.51750 0.92929 1.48100
P 	P 	0.76253 0.16266 0.18513 0.70400
P 	P 	0.93435 0.48725 0.27668 0.72200
P 	P 	0.82341 0.47397 0.06355 0.70400
O 	O 	0.78587 0.46280 0.18923 -0.52300
O 	O 	0.73539 0.07280 0.11708 -0.54900
O 	O 	0.71459 0.14720 0.20585 -0.59400
O 	O 	0.81649 0.98320 0.22596 -0.59700
O 	O 	0.88742 0.59450 0.29472 -0.53000
O 	O 	0.93025 0.16700 0.27390 -0.50100
H 	H 	0.89500 0.12010 0.25910 0.32500
O 	O 	0.99656 0.53590 0.32885 -0.55700
O 	O 	0.92389 0.59900 0.21466 -0.62200
O 	O 	0.88943 0.53500 0.09477 -0.50900
O 	O 	0.79662 0.55860 0.99616 -0.57400
O 	O 	0.79089 0.65720 0.09445 -0.48700
O 	O 	0.81340 0.17650 0.07332 -0.56700
O 	O 	0.94193 0.98750 0.14644 -0.63400
H 	H 	0.97610 0.04550 0.16720 0.34200
Be	Be	0.31715 0.17060 0.25067 1.48100
Be	Be	0.44010 0.15320 0.15950 1.48300
Be	Be	0.23940 0.01750 0.92929 1.48100
P 	P 	0.26253 0.66266 0.18513 0.70300
P 	P 	0.43435 0.98725 0.27668 0.68800
P 	P 	0.32341 0.97397 0.06355 0.68500
O 	O 	0.28587 0.96280 0.18923 -0.52900
O 	O 	0.23539 0.57280 0.11708 -0.54900
O 	O 	0.21459 0.64720 0.20585 -0.59600
O 	O 	0.31649 0.48320 0.22596 -0.59600
O 	O 	0.38742 0.09450 0.29472 -0.51700
O 	O 	0.43025 0.66700 0.27390 -0.49700
H 	H 	0.39500 0.62010 0.25910 0.32200
O 	O 	0.49656 0.03590 0.32885 -0.54200
O 	O 	0.42389 0.09900 0.21466 -0.60700
O 	O 	0.38943 0.03500 0.09477 -0.49900
O 	O 	0.29662 0.05860 0.99616 -0.56900
O 	O 	0.29089 0.15720 0.09445 -0.47900
O 	O 	0.31340 0.67650 0.07332 -0.56500
O 	O 	0.44193 0.48750 0.14644 -0.64200
H 	H 	0.47610 0.54550 0.16720 0.34500
Be	Be	0.81715 0.32940 0.75067 1.48100
Be	Be	0.94010 0.34680 0.65950 1.48300
Be	Be	0.73940 0.48250 0.42929 1.48100
P 	P 	0.76253 0.83734 0.68513 0.70400
P 	P 	0.93435 0.51275 0.77668 0.72200
P 	P 	0.82341 0.52603 0.56355 0.70500
O 	O 	0.78587 0.53720 0.68923 -0.52300
O 	O 	0.73539 0.92720 0.61708 -0.55000
O 	O 	0.71459 0.85280 0.70585 -0.59400
O 	O 	0.81649 0.01680 0.72596 -0.59700
O 	O 	0.88742 0.40550 0.79472 -0.53000
O 	O 	0.93025 0.83300 0.77390 -0.50100
H 	H 	0.89500 0.87990 0.75910 0.32400
O 	O 	0.99656 0.46410 0.82885 -0.55600
O 	O 	0.92389 0.40100 0.71466 -0.62100
O 	O 	0.88943 0.46500 0.59477 -0.50800
O 	O 	0.79662 0.44140 0.49616 -0.57500
O 	O 	0.79089 0.34280 0.59445 -0.48700
O 	O 	0.81340 0.82350 0.57332 -0.56800
O 	O 	0.94193 0.01250 0.64644 -0.63300
H 	H 	0.97610 0.95450 0.66720 0.34200
Be	Be	0.31715 0.82940 0.75067 1.48100
Be	Be	0.44010 0.84680 0.65950 1.48300
Be	Be	0.23940 0.98250 0.42929 1.48100
P 	P 	0.26253 0.33734 0.68513 0.70300
P 	P 	0.43435 0.01275 0.77668 0.68800
P 	P 	0.32341 0.02603 0.56355 0.68600
O 	O 	0.28587 0.03720 0.68923 -0.52900
O 	O 	0.23539 0.42720 0.61708 -0.54900
O 	O 	0.21459 0.35280 0.70585 -0.59600
O 	O 	0.31649 0.51680 0.72596 -0.59600
O 	O 	0.38742 0.90550 0.79472 -0.51700
O 	O 	0.43025 0.33300 0.77390 -0.49700
H 	H 	0.39500 0.37990 0.75910 0.32200
O 	O 	0.49656 0.96410 0.82885 -0.54200
O 	O 	0.42389 0.90100 0.71466 -0.60700
O 	O 	0.38943 0.96500 0.59477 -0.49900
O 	O 	0.29662 0.94140 0.49616 -0.56800
O 	O 	0.29089 0.84280 0.59445 -0.47900
O 	O 	0.31340 0.32350 0.57332 -0.56500
O 	O 	0.44193 0.51250 0.64644 -0.64200
H 	H 	0.47610 0.45450 0.66720 0.34500
Be	Be	0.18285 0.32940 0.74933 1.48100
Be	Be	0.05990 0.34680 0.84050 1.48300
Be	Be	0.26060 0.48250 0.07071 1.48100
P 	P 	0.23747 0.83734 0.81487 0.70400
P 	P 	0.06565 0.51275 0.72332 0.72200
P 	P 	0.17659 0.52603 0.93645 0.70400
O 	O 	0.21413 0.53720 0.81077 -0.52300
O 	O 	0.26461 0.92720 0.88292 -0.54900
O 	O 	0.28541 0.85280 0.79415 -0.59400
O 	O 	0.18351 0.01680 0.77404 -0.59700
O 	O 	0.11258 0.40550 0.70528 -0.53000
O 	O 	0.06975 0.83300 0.72610 -0.50100
H 	H 	0.10500 0.87990 0.74090 0.32500
O 	O 	0.00344 0.46410 0.67115 -0.55700
O 	O 	0.07611 0.40100 0.78534 -0.62200
O 	O 	0.11057 0.46500 0.90523 -0.50900
O 	O 	0.20338 0.44140 0.00384 -0.57400
O 	O 	0.20911 0.34280 0.90555 -0.48700
O 	O 	0.18660 0.82350 0.92668 -0.56700
O 	O 	0.05807 0.01250 0.85356 -0.63400
H 	H 	0.02390 0.95450 0.83280 0.34200
Be	Be	0.68285 0.82940 0.74933 1.48100
Be	Be	0.55990 0.84680 0.84050 1.48300
Be	Be	0.76060 0.98250 0.07071 1.48100
P 	P 	0.73747 0.33734 0.81487 0.70300
P 	P 	0.56565 0.01275 0.72332 0.68800
P 	P 	0.67659 0.02603 0.93645 0.68500
O 	O 	0.71413 0.03720 0.81077 -0.52900
O 	O 	0.76461 0.42720 0.88292 -0.54900
O 	O 	0.78541 0.35280 0.79415 -0.59600
O 	O 	0.68351 0.51680 0.77404 -0.59600
O 	O 	0.61258 0.90550 0.70528 -0.51700
O 	O 	0.56975 0.33300 0.72610 -0.49700
H 	H 	0.60500 0.37990 0.74090 0.32200
O 	O 	0.50344 0.96410 0.67115 -0.54200
O 	O 	0.57611 0.90100 0.78534 -0.60700
O 	O 	0.61057 0.96500 0.90523 -0.49900
O 	O 	0.70338 0.94140 0.00384 -0.56900
O 	O 	0.70911 0.84280 0.90555 -0.47900
O 	O 	0.68660 0.32350 0.92668 -0.56500
O 	O 	0.55807 0.51250 0.85356 -0.64200
H 	H 	0.52390 0.45450 0.83280 0.34500
