data_crystal

_cell_length_a 10.18420
_cell_length_b 9.98030
_cell_length_c 10.43750
_cell_angle_alpha 90.00000
_cell_angle_beta  92.31200
_cell_angle_gamma 90.00000

_symmetry_space_group_name_	'P 1'
_symmetry_space_group_name_H-M	'P 1'

loop_
_symmetry_equiv_pos_as_xyz
  x,y,z

loop_
_atom_site_label
_atom_site_type_symbol
_atom_site_fract_x
_atom_site_fract_y
_atom_site_fract_z
_atom_site_charge
Zn	Zn	0.87228 0.28857 0.12108 1.23500
Zn	Zn	0.58306 0.23746 0.39869 1.23700
Zn	Zn	0.36264 0.46405 0.10714 1.23700
Zn	Zn	0.07918 0.57307 0.37521 1.23300
P 	P 	0.06746 0.53283 0.07053 0.55100
P 	P 	0.88373 0.32379 0.43132 0.56000
P 	P 	0.38551 0.49048 0.41235 0.55000
P 	P 	0.57183 0.21628 0.09412 0.55600
O 	O 	0.93620 0.45740 0.06190 -0.43400
O 	O 	0.90800 0.25730 0.30200 -0.47700
O 	O 	0.68450 0.31360 0.06300 -0.44200
O 	O 	0.06910 0.62430 0.95450 -0.43500
O 	O 	0.59670 0.15840 0.22850 -0.46200
O 	O 	0.43020 0.34520 0.42420 -0.44300
O 	O 	0.46740 0.57940 0.50370 -0.41900
O 	O 	0.73710 0.33150 0.45720 -0.46400
O 	O 	0.44070 0.29080 0.08320 -0.44200
O 	O 	0.56160 0.10090 0.99850 -0.42700
O 	O 	0.39820 0.54300 0.27550 -0.46900
O 	O 	0.17910 0.42990 0.07000 -0.47200
O 	O 	0.93470 0.46850 0.43510 -0.43100
O 	O 	0.95650 0.24240 0.53670 -0.41700
O 	O 	0.23920 0.49250 0.44810 -0.45400
O 	O 	0.07660 0.61810 0.19380 -0.47000
Zn	Zn	0.12772 0.78857 0.87892 1.23500
Zn	Zn	0.41694 0.73746 0.60131 1.23700
Zn	Zn	0.63736 0.96405 0.89286 1.23700
Zn	Zn	0.92082 0.07307 0.62479 1.23400
P 	P 	0.93254 0.03283 0.92947 0.55500
P 	P 	0.11627 0.82379 0.56868 0.56000
P 	P 	0.61449 0.99048 0.58765 0.55000
P 	P 	0.42817 0.71628 0.90588 0.55700
O 	O 	0.06380 0.95740 0.93810 -0.43700
O 	O 	0.09200 0.75730 0.69800 -0.47800
O 	O 	0.31550 0.81360 0.93700 -0.44300
O 	O 	0.93090 0.12430 0.04550 -0.43600
O 	O 	0.40330 0.65840 0.77150 -0.46200
O 	O 	0.56980 0.84520 0.57580 -0.44300
O 	O 	0.53260 0.07940 0.49630 -0.41900
O 	O 	0.26290 0.83150 0.54280 -0.46400
O 	O 	0.55930 0.79080 0.91680 -0.44200
O 	O 	0.43840 0.60090 0.00150 -0.42900
O 	O 	0.60180 0.04300 0.72450 -0.46800
O 	O 	0.82090 0.92990 0.93000 -0.47200
O 	O 	0.06530 0.96850 0.56490 -0.43300
O 	O 	0.04350 0.74240 0.46330 -0.41800
O 	O 	0.76080 0.99250 0.55190 -0.45300
O 	O 	0.92340 0.11810 0.80620 -0.46900
