data_crystal

_cell_length_a 9.29940
_cell_length_b 9.75100
_cell_length_c 14.33480
_cell_angle_alpha 90.00000
_cell_angle_beta  90.97400
_cell_angle_gamma 90.00000

_symmetry_space_group_name_	'P 1'
_symmetry_space_group_name_H-M	'P 1'

loop_
_symmetry_equiv_pos_as_xyz
  x,y,z

loop_
_atom_site_label
_atom_site_type_symbol
_atom_site_fract_x
_atom_site_fract_y
_atom_site_fract_z
_atom_site_charge
Zn	Zn	0.53230 0.88530 0.26730 1.21800
Zn	Zn	0.22840 0.37690 0.37550 1.23200
Zn	Zn	0.75630 0.90400 0.87000 1.21000
Zn	Zn	0.92940 0.11350 0.24560 1.22900
Zn	Zn	0.92300 0.73960 0.22700 1.18900
P 	P 	0.79540 0.92620 0.39350 0.47500
P 	P 	0.75620 0.91650 0.09860 0.47400
P 	P 	0.95560 0.42890 0.23780 0.52300
P 	P 	0.26460 0.12200 0.24230 0.56700
P 	P 	0.44440 0.56280 0.27250 0.55600
O 	O 	0.62820 0.86060 0.15060 -0.48700
O 	O 	0.63890 0.96990 0.37090 -0.48400
O 	O 	0.47550 0.70450 0.30870 -0.45000
O 	O 	0.36450 0.00120 0.24830 -0.37300
O 	O 	0.24160 0.18570 0.33780 -0.46300
O 	O 	0.41230 0.46290 0.35180 -0.44200
O 	O 	0.81660 0.88830 0.49550 -0.43900
O 	O 	0.05820 0.46080 0.31930 -0.50500
O 	O 	0.03770 0.40740 0.14670 -0.48100
O 	O 	0.71370 0.94010 0.99740 -0.45800
O 	O 	0.32420 0.56180 0.19940 -0.50200
O 	O 	0.32380 0.22920 0.17400 -0.45400
O 	O 	0.89900 0.04430 0.37000 -0.37200
O 	O 	0.86310 0.30250 0.25790 -0.40500
O 	O 	0.11960 0.06990 0.20300 -0.45100
O 	O 	0.80600 0.05400 0.14250 -0.38100
O 	O 	0.83130 0.79870 0.33630 -0.51500
O 	O 	0.88220 0.81350 0.10430 -0.48900
O 	O 	0.85290 0.55110 0.22500 -0.39200
O 	O 	0.58200 0.50240 0.22190 -0.39900
H 	H 	0.56360 0.42320 0.20190 0.24300
Zn	Zn	0.46770 0.38530 0.73270 1.23900
Zn	Zn	0.77160 0.87690 0.62450 1.22500
Zn	Zn	0.24370 0.40400 0.13000 1.22700
Zn	Zn	0.07060 0.61350 0.75440 1.22000
Zn	Zn	0.07700 0.23960 0.77300 1.20300
P 	P 	0.20460 0.42620 0.60650 0.55200
P 	P 	0.24380 0.41650 0.90140 0.55400
P 	P 	0.04440 0.92890 0.76220 0.42300
P 	P 	0.73540 0.62200 0.75770 0.57000
P 	P 	0.55560 0.06280 0.72750 0.61700
O 	O 	0.37180 0.36060 0.84940 -0.46600
O 	O 	0.36110 0.46990 0.62910 -0.44300
O 	O 	0.52450 0.20450 0.69130 -0.42600
O 	O 	0.63550 0.50120 0.75170 -0.43600
O 	O 	0.75840 0.68570 0.66220 -0.48100
O 	O 	0.58770 0.96290 0.64820 -0.52600
O 	O 	0.18340 0.38830 0.50450 -0.42100
O 	O 	0.94180 0.96080 0.68070 -0.52300
O 	O 	0.96230 0.90740 0.85330 -0.49100
O 	O 	0.28630 0.44010 0.00260 -0.43000
O 	O 	0.67580 0.06180 0.80060 -0.43600
O 	O 	0.67620 0.72920 0.82600 -0.47500
O 	O 	0.10100 0.54430 0.63000 -0.46400
O 	O 	0.13690 0.80250 0.74210 -0.42400
O 	O 	0.88040 0.56990 0.79700 -0.47400
O 	O 	0.19400 0.55400 0.85750 -0.47200
O 	O 	0.16870 0.29870 0.66370 -0.49800
O 	O 	0.11780 0.31350 0.89570 -0.46700
O 	O 	0.14710 0.05110 0.77500 -0.30900
O 	O 	0.41800 0.00240 0.77810 -0.24600
H 	H 	0.43640 0.92320 0.79810 0.10400
