data_crystal

_cell_length_a 9.91000
_cell_length_b 10.74500
_cell_length_c 11.07900
_cell_angle_alpha 63.17700
_cell_angle_beta  65.55600
_cell_angle_gamma 66.66400

_symmetry_space_group_name_	'P 1'
_symmetry_space_group_name_H-M	'P 1'

loop_
_symmetry_equiv_pos_as_xyz
  x,y,z

loop_
_atom_site_label
_atom_site_type_symbol
_atom_site_fract_x
_atom_site_fract_y
_atom_site_fract_z
_atom_site_charge
La	La	0.28281 0.00947 0.51030 1.66000
La	La	0.71719 0.99053 0.48970 1.66000
H 	H 	0.52830 0.60560 0.33040 0.05100
H 	H 	0.67930 0.37200 0.34100 0.03400
H 	H 	0.00130 0.44740 0.41590 0.03000
H 	H 	0.84570 0.67860 0.41150 0.00600
H 	H 	0.70510 0.60600 0.88950 0.04700
H 	H 	0.28790 0.60110 0.91410 0.04200
H 	H 	0.47170 0.39440 0.66960 0.05200
H 	H 	0.32070 0.62800 0.65900 0.03500
H 	H 	0.99870 0.55260 0.58410 0.03100
H 	H 	0.15430 0.32140 0.58850 0.00700
H 	H 	0.29490 0.39400 0.11050 0.04700
H 	H 	0.71210 0.39890 0.08590 0.04200
C 	C 	0.55900 0.80200 0.39110 0.35900
C 	C 	0.66910 0.66010 0.37750 -0.09600
C 	C 	0.62290 0.57170 0.35160 -0.02100
C 	C 	0.71350 0.43330 0.35630 -0.00000
C 	C 	0.85390 0.38460 0.38340 -0.11500
C 	C 	0.90340 0.47810 0.40150 -0.00900
C 	C 	0.81120 0.61570 0.39880 -0.01100
C 	C 	0.05540 0.76980 0.59610 0.41600
C 	C 	0.48630 0.76450 0.75760 0.38200
C 	C 	0.49420 0.62620 0.88220 -0.09100
C 	C 	0.62140 0.56310 0.93470 -0.01700
C 	C 	0.37430 0.56010 0.94930 -0.01500
C 	C 	0.44100 0.19800 0.60890 0.35900
C 	C 	0.33090 0.33990 0.62250 -0.09600
C 	C 	0.37710 0.42830 0.64840 -0.02100
C 	C 	0.28650 0.56670 0.64370 -0.00000
C 	C 	0.14610 0.61540 0.61660 -0.11500
C 	C 	0.09660 0.52190 0.59850 -0.00900
C 	C 	0.18880 0.38430 0.60120 -0.01100
C 	C 	0.94460 0.23020 0.40390 0.41600
C 	C 	0.51370 0.23550 0.24240 0.38200
C 	C 	0.50580 0.37380 0.11780 -0.09100
C 	C 	0.37860 0.43690 0.06530 -0.01700
C 	C 	0.62570 0.43990 0.05070 -0.01500
O 	O 	0.43090 0.83830 0.37240 -0.39500
O 	O 	0.59700 0.87690 0.42690 -0.49700
O 	O 	0.92260 0.80510 0.58400 -0.45200
O 	O 	0.11360 0.85420 0.59330 -0.45200
O 	O 	0.37480 0.80870 0.70880 -0.43300
O 	O 	0.59190 0.82480 0.71100 -0.42500
O 	O 	0.56910 0.16170 0.62760 -0.39500
O 	O 	0.40300 0.12310 0.57310 -0.49700
O 	O 	0.07740 0.19490 0.41600 -0.45200
O 	O 	0.88640 0.14580 0.40670 -0.45200
O 	O 	0.62520 0.19130 0.29120 -0.43300
O 	O 	0.40810 0.17520 0.28900 -0.42500
