data_crystal

_cell_length_a 9.85550
_cell_length_b 10.70500
_cell_length_c 11.10600
_cell_angle_alpha 62.94700
_cell_angle_beta  65.65300
_cell_angle_gamma 66.64700

_symmetry_space_group_name_	'P 1'
_symmetry_space_group_name_H-M	'P 1'

loop_
_symmetry_equiv_pos_as_xyz
  x,y,z

loop_
_atom_site_label
_atom_site_type_symbol
_atom_site_fract_x
_atom_site_fract_y
_atom_site_fract_z
_atom_site_charge
Ce	Ce	0.78301 0.50930 0.51034 2.13800
Ce	Ce	0.21699 0.49070 0.48966 2.13800
H 	H 	0.02530 0.10630 0.33220 0.05000
H 	H 	0.17930 0.87270 0.34040 0.02900
H 	H 	0.78510 0.10320 0.91540 0.04000
H 	H 	0.20430 0.10990 0.88860 0.04500
H 	H 	0.35060 0.17990 0.40550 -0.00600
H 	H 	0.50410 0.94580 0.41410 0.02700
H 	H 	0.97470 0.89370 0.66780 0.05000
H 	H 	0.82070 0.12730 0.65960 0.02900
H 	H 	0.21490 0.89680 0.08460 0.04000
H 	H 	0.79570 0.89010 0.11140 0.04500
H 	H 	0.64940 0.82010 0.59450 -0.00600
H 	H 	0.49590 0.05420 0.58590 0.02700
C 	C 	0.98590 0.26460 0.75640 0.42000
C 	C 	0.12100 0.07270 0.35250 -0.01600
C 	C 	0.21320 0.93380 0.35670 0.00500
C 	C 	0.35390 0.88400 0.38460 -0.13400
C 	C 	0.16800 0.16190 0.37760 -0.11100
C 	C 	0.99310 0.12630 0.88220 -0.10400
C 	C 	0.87290 0.06100 0.94960 -0.01200
C 	C 	0.12150 0.06520 0.93360 -0.01100
C 	C 	0.31360 0.11620 0.39590 -0.00700
C 	C 	0.40530 0.97700 0.40030 -0.00400
C 	C 	0.05960 0.30230 0.39180 0.38400
C 	C 	0.55470 0.27090 0.59530 0.46000
C 	C 	0.01410 0.73540 0.24360 0.42000
C 	C 	0.87900 0.92730 0.64750 -0.01600
C 	C 	0.78680 0.06620 0.64330 0.00500
C 	C 	0.64610 0.11600 0.61540 -0.13400
C 	C 	0.83200 0.83810 0.62240 -0.11100
C 	C 	0.00690 0.87370 0.11780 -0.10400
C 	C 	0.12710 0.93900 0.05040 -0.01200
C 	C 	0.87850 0.93480 0.06640 -0.01100
C 	C 	0.68640 0.88380 0.60410 -0.00700
C 	C 	0.59470 0.02300 0.59970 -0.00400
C 	C 	0.94040 0.69770 0.60820 0.38400
C 	C 	0.44530 0.72910 0.40470 0.46000
O 	O 	0.42180 0.30600 0.58570 -0.54100
O 	O 	0.61340 0.35650 0.59330 -0.54500
O 	O 	0.92960 0.34010 0.37350 -0.46300
O 	O 	0.09670 0.37710 0.42910 -0.61600
O 	O 	0.87530 0.30810 0.70710 -0.52000
O 	O 	0.09250 0.32520 0.70930 -0.50800
O 	O 	0.57820 0.69400 0.41430 -0.54100
O 	O 	0.38660 0.64350 0.40670 -0.54500
O 	O 	0.07040 0.65990 0.62650 -0.46300
O 	O 	0.90330 0.62290 0.57090 -0.61600
O 	O 	0.12470 0.69190 0.29290 -0.52000
O 	O 	0.90750 0.67480 0.29070 -0.50800
