data_crystal

_cell_length_a 9.76100
_cell_length_b 10.64500
_cell_length_c 10.95600
_cell_angle_alpha 63.33100
_cell_angle_beta  65.96900
_cell_angle_gamma 67.12800

_symmetry_space_group_name_	'P 1'
_symmetry_space_group_name_H-M	'P 1'

loop_
_symmetry_equiv_pos_as_xyz
  x,y,z

loop_
_atom_site_label
_atom_site_type_symbol
_atom_site_fract_x
_atom_site_fract_y
_atom_site_fract_z
_atom_site_charge
Nd	Nd	0.71421 0.99232 0.49249 2.26200
O 	O 	0.57010 0.16240 0.62570 -0.49100
O 	O 	0.40230 0.12460 0.56720 -0.64400
O 	O 	0.91490 0.80570 0.58870 -0.58400
O 	O 	0.11290 0.85840 0.59040 -0.58100
O 	O 	0.62840 0.18810 0.29350 -0.54800
O 	O 	0.41310 0.16660 0.28550 -0.53700
C 	C 	0.43880 0.19940 0.60740 0.42000
C 	C 	0.32720 0.33880 0.62490 -0.11800
C 	C 	0.37840 0.42980 0.64720 -0.03100
H 	H 	0.47600 0.39740 0.66540 0.04800
C 	C 	0.28540 0.56900 0.64280 0.02700
H 	H 	0.32130 0.63220 0.65560 0.01700
C 	C 	0.14110 0.61620 0.62010 -0.16300
C 	C 	0.08560 0.52000 0.60830 0.00100
H 	H 	0.98400 0.54880 0.59940 0.02000
C 	C 	0.18000 0.38150 0.60980 -0.00600
H 	H 	0.14310 0.31680 0.60030 -0.01100
C 	C 	0.04930 0.77150 0.59910 0.52400
C 	C 	0.51620 0.23170 0.24230 0.46700
C 	C 	0.50820 0.37180 0.11630 -0.12300
C 	C 	0.38020 0.43140 0.06380 -0.01100
H 	H 	0.29800 0.38480 0.10790 0.03800
C 	C 	0.62730 0.44120 0.05270 -0.00900
H 	H 	0.71420 0.40130 0.08920 0.03300
Nd	Nd	0.28579 0.00768 0.50751 2.26200
O 	O 	0.42990 0.83760 0.37430 -0.49100
O 	O 	0.59770 0.87540 0.43280 -0.64400
O 	O 	0.08510 0.19430 0.41130 -0.58400
O 	O 	0.88710 0.14160 0.40960 -0.58100
O 	O 	0.37160 0.81190 0.70650 -0.54800
O 	O 	0.58690 0.83340 0.71450 -0.53700
C 	C 	0.56120 0.80060 0.39260 0.42000
C 	C 	0.67280 0.66120 0.37510 -0.11800
C 	C 	0.62160 0.57020 0.35280 -0.03100
H 	H 	0.52400 0.60260 0.33460 0.04800
C 	C 	0.71460 0.43100 0.35720 0.02700
H 	H 	0.67870 0.36780 0.34440 0.01700
C 	C 	0.85890 0.38380 0.37990 -0.16300
C 	C 	0.91440 0.48000 0.39170 0.00100
H 	H 	0.01600 0.45120 0.40060 0.02000
C 	C 	0.82000 0.61850 0.39020 -0.00600
H 	H 	0.85690 0.68320 0.39970 -0.01100
C 	C 	0.95070 0.22850 0.40090 0.52400
C 	C 	0.48380 0.76830 0.75770 0.46700
C 	C 	0.49180 0.62820 0.88370 -0.12300
C 	C 	0.61980 0.56860 0.93620 -0.01100
H 	H 	0.70200 0.61520 0.89210 0.03800
C 	C 	0.37270 0.55880 0.94730 -0.00900
H 	H 	0.28580 0.59870 0.91080 0.03300
