data_crystal

_cell_length_a 9.51520
_cell_length_b 33.14400
_cell_length_c 9.65690
_cell_angle_alpha 90.00000
_cell_angle_beta  93.21100
_cell_angle_gamma 90.00000

_symmetry_space_group_name_	'P 1'
_symmetry_space_group_name_H-M	'P 1'

loop_
_symmetry_equiv_pos_as_xyz
  x,y,z

loop_
_atom_site_label
_atom_site_type_symbol
_atom_site_fract_x
_atom_site_fract_y
_atom_site_fract_z
_atom_site_charge
U 	U 	0.08050 0.24021 0.66336 0.04000
U 	U 	0.18149 0.24060 0.26670 0.04100
U 	U 	0.54940 0.00736 0.79980 0.04000
U 	U 	0.94924 0.00763 0.69537 0.04100
U 	U 	0.64402 0.13048 0.44288 0.04200
P 	P 	0.71160 0.02024 0.45870 0.48000
P 	P 	0.42820 0.22173 0.49490 0.47700
P 	P 	0.78500 0.02118 0.03870 0.47600
P 	P 	0.83190 0.23074 0.43290 0.47600
O 	O 	0.75900 0.25920 0.33130 -0.14000
O 	O 	0.61610 0.98980 0.38440 -0.13900
O 	O 	0.69910 0.01780 0.61790 -0.12500
O 	O 	0.88300 0.99480 0.12660 -0.14100
O 	O 	0.43580 0.23690 0.34490 -0.12800
O 	O 	0.80200 0.01690 0.88280 -0.12800
O 	O 	0.82810 0.24700 0.58390 -0.12500
O 	O 	0.99440 0.23030 0.41500 -0.12200
O 	O 	0.50310 0.25100 0.59390 -0.13900
O 	O 	0.26540 0.22380 0.51260 -0.11900
O 	O 	0.86810 0.00750 0.44840 -0.12500
O 	O 	0.48030 0.17960 0.51210 -0.14100
O 	O 	0.63170 0.00880 0.05200 -0.13000
O 	O 	0.68540 0.06140 0.40500 -0.14500
O 	O 	0.80800 0.06590 0.08040 -0.12400
O 	O 	0.77080 0.18940 0.42120 -0.14300
U 	U 	0.41950 0.74021 0.83664 0.04100
U 	U 	0.31851 0.74060 0.23330 0.03900
U 	U 	0.95060 0.50736 0.70020 0.04000
U 	U 	0.55076 0.50763 0.80463 0.04100
U 	U 	0.85598 0.63048 0.05712 0.04100
P 	P 	0.78840 0.52024 0.04130 0.48000
P 	P 	0.07180 0.72173 0.00510 0.46400
P 	P 	0.71500 0.52118 0.46130 0.47600
P 	P 	0.66810 0.73074 0.06710 0.47300
O 	O 	0.74100 0.75920 0.16870 -0.14100
O 	O 	0.88390 0.48980 0.11560 -0.13900
O 	O 	0.80090 0.51780 0.88210 -0.12400
O 	O 	0.61700 0.49480 0.37340 -0.14100
O 	O 	0.06420 0.73690 0.15510 -0.12900
O 	O 	0.69800 0.51690 0.61720 -0.12800
O 	O 	0.67190 0.74700 0.91610 -0.12000
O 	O 	0.50560 0.73030 0.08500 -0.12300
O 	O 	0.99690 0.75100 0.90610 -0.13300
O 	O 	0.23460 0.72380 0.98740 -0.11300
O 	O 	0.63190 0.50750 0.05160 -0.12400
O 	O 	0.01970 0.67960 0.98790 -0.13500
O 	O 	0.86830 0.50880 0.44800 -0.13000
O 	O 	0.81460 0.56140 0.09500 -0.14600
O 	O 	0.69200 0.56590 0.41960 -0.12400
O 	O 	0.72920 0.68940 0.07880 -0.14400
U 	U 	0.91950 0.75979 0.33664 0.04000
U 	U 	0.81851 0.75940 0.73330 0.04100
U 	U 	0.45060 0.99264 0.20020 0.04000
U 	U 	0.05076 0.99237 0.30463 0.04100
U 	U 	0.35598 0.86952 0.55712 0.04200
P 	P 	0.28840 0.97976 0.54130 0.48000
P 	P 	0.57180 0.77827 0.50510 0.47700
P 	P 	0.21500 0.97882 0.96130 0.47600
P 	P 	0.16810 0.76926 0.56710 0.47600
O 	O 	0.24100 0.74080 0.66870 -0.14000
O 	O 	0.38390 0.01020 0.61560 -0.13900
O 	O 	0.30090 0.98220 0.38210 -0.12500
O 	O 	0.11700 0.00520 0.87340 -0.14100
O 	O 	0.56420 0.76310 0.65510 -0.12800
O 	O 	0.19800 0.98310 0.11720 -0.12800
O 	O 	0.17190 0.75300 0.41610 -0.12500
O 	O 	0.00560 0.76970 0.58500 -0.12200
O 	O 	0.49690 0.74900 0.40610 -0.13900
O 	O 	0.73460 0.77620 0.48740 -0.11900
O 	O 	0.13190 0.99250 0.55160 -0.12500
O 	O 	0.51970 0.82040 0.48790 -0.14100
O 	O 	0.36830 0.99120 0.94800 -0.13000
O 	O 	0.31460 0.93860 0.59500 -0.14500
O 	O 	0.19200 0.93410 0.91960 -0.12400
O 	O 	0.22920 0.81060 0.57880 -0.14300
U 	U 	0.58050 0.25979 0.16336 0.04100
U 	U 	0.68149 0.25940 0.76670 0.03900
U 	U 	0.04940 0.49264 0.29980 0.04000
U 	U 	0.44924 0.49237 0.19537 0.04100
U 	U 	0.14402 0.36952 0.94288 0.04100
P 	P 	0.21160 0.47976 0.95870 0.48000
P 	P 	0.92820 0.27827 0.99490 0.46400
P 	P 	0.28500 0.47882 0.53870 0.47600
P 	P 	0.33190 0.26926 0.93290 0.47300
O 	O 	0.25900 0.24080 0.83130 -0.14100
O 	O 	0.11610 0.51020 0.88440 -0.13900
O 	O 	0.19910 0.48220 0.11790 -0.12400
O 	O 	0.38300 0.50520 0.62660 -0.14100
O 	O 	0.93580 0.26310 0.84490 -0.12900
O 	O 	0.30200 0.48310 0.38280 -0.12800
O 	O 	0.32810 0.25300 0.08390 -0.12000
O 	O 	0.49440 0.26970 0.91500 -0.12300
O 	O 	0.00310 0.24900 0.09390 -0.13300
O 	O 	0.76540 0.27620 0.01260 -0.11300
O 	O 	0.36810 0.49250 0.94840 -0.12400
O 	O 	0.98030 0.32040 0.01210 -0.13500
O 	O 	0.13170 0.49120 0.55200 -0.13000
O 	O 	0.18540 0.43860 0.90500 -0.14600
O 	O 	0.30800 0.43410 0.58040 -0.12400
O 	O 	0.27080 0.31060 0.92120 -0.14400
