data_crystal

_cell_length_a 7.81030
_cell_length_b 15.21700
_cell_length_c 16.61000
_cell_angle_alpha 111.14500
_cell_angle_beta  91.21900
_cell_angle_gamma 96.16700

_symmetry_space_group_name_	'P 1'
_symmetry_space_group_name_H-M	'P 1'

loop_
_symmetry_equiv_pos_as_xyz
  x,y,z

loop_
_atom_site_label
_atom_site_type_symbol
_atom_site_fract_x
_atom_site_fract_y
_atom_site_fract_z
_atom_site_charge
Cu	Cu	0.38610 0.54954 0.54922 0.91300
O 	O 	0.54930 0.55000 0.64140 -0.39300
O 	O 	0.53510 0.65520 0.53520 -0.40000
O 	O 	0.74640 0.46750 0.55920 -0.38500
O 	O 	0.72890 0.57420 0.45300 -0.38900
N 	N 	0.22650 0.64190 0.63760 -0.17500
C 	C 	0.27870 0.69020 0.72450 0.04300
H 	H 	0.39000 0.68570 0.74570 0.02400
C 	C 	0.16810 0.74510 0.78020 -0.09100
H 	H 	0.20380 0.77810 0.83950 0.04800
C 	C 	0.00530 0.75170 0.74900 0.03300
C 	C 	0.95310 0.70340 0.66220 -0.08900
H 	H 	0.84180 0.70800 0.64090 0.07500
C 	C 	0.06370 0.64850 0.60650 0.04400
H 	H 	0.02800 0.61550 0.54720 0.03400
N 	N 	0.65440 0.91750 0.91990 -0.24200
C 	C 	0.62360 0.88820 0.83080 0.05700
H 	H 	0.52500 0.90470 0.80750 -0.00300
C 	C 	0.73690 0.83490 0.77570 -0.11900
H 	H 	0.71590 0.81490 0.71480 0.08400
C 	C 	0.88110 0.81090 0.80980 0.06800
C 	C 	0.91190 0.84020 0.89890 -0.14100
H 	H 	0.01040 0.82370 0.92210 0.07500
C 	C 	0.79850 0.89350 0.95390 0.11400
H 	H 	0.81960 0.91350 0.01480 -0.05400
C 	C 	0.68800 0.51140 0.63110 0.32400
C 	C 	0.79120 0.52110 0.71180 -0.03200
C 	C 	0.95880 0.49780 0.70900 -0.03600
H 	H 	0.00880 0.47290 0.65500 0.07000
C 	C 	0.05320 0.51080 0.78520 -0.00000
H 	H 	0.16770 0.49490 0.78320 0.04600
C 	C 	0.98000 0.54720 0.86420 -0.08900
H 	H 	0.04450 0.55620 0.91630 0.08200
C 	C 	0.81240 0.57060 0.86700 0.07700
C 	C 	0.71800 0.55750 0.79080 -0.06800
H 	H 	0.60340 0.57340 0.79280 0.07700
I 	I 	0.68350 0.63660 0.98700 -0.03600
I 	I 	0.70930 0.59760 0.98260 -0.05700
C 	C 	0.66700 0.65090 0.49160 0.33900
C 	C 	0.77100 0.74400 0.50200 -0.15900
C 	C 	0.93300 0.74600 0.46900 0.12000
H 	H 	0.97010 0.68840 0.43180 0.02400
C 	C 	0.03900 0.83100 0.49000 -0.01900
H 	H 	0.14920 0.83220 0.46660 0.07600
C 	C 	0.98400 0.91500 0.54400 -0.16800
H 	H 	0.05680 0.97360 0.55800 0.12100
C 	C 	0.82300 0.91400 0.57700 0.22300
C 	C 	0.71600 0.82800 0.55700 -0.25600
H 	H 	0.60600 0.82730 0.57960 0.07900
I 	I 	0.74800 0.04110 0.66380 -0.13500
C 	C 	0.27800 0.25900 0.51500 0.06600
C 	C 	0.13000 0.25200 0.55800 -0.18800
H 	H 	0.06750 0.30490 0.57980 0.01800
C 	C 	0.07200 0.16700 0.56800 -0.13900
H 	H 	0.97040 0.16230 0.59720 0.11100
C 	C 	0.16300 0.08900 0.53500 0.04800
H 	H 	0.12360 0.03140 0.54220 -0.03100
C 	C 	0.31200 0.09600 0.49200 -0.09100
C 	C 	0.36900 0.18100 0.48200 0.13900
H 	H 	0.47100 0.18580 0.45260 0.10100
I 	I 	0.43380 0.97280 0.44510 -0.03300
C 	C 	0.24500 0.26900 0.52700 -0.02600
C 	C 	0.08300 0.26900 0.55900 0.08800
H 	H 	0.02200 0.32230 0.57060 -0.04100
C 	C 	0.00900 0.19000 0.57600 -0.04000
C 	C 	0.09800 0.11200 0.55900 0.17700
H 	H 	0.04780 0.05780 0.57070 -0.04500
C 	C 	0.26000 0.11200 0.52700 -0.21200
H 	H 	0.32090 0.05820 0.51550 0.16300
C 	C 	0.33400 0.19000 0.51000 0.22400
H 	H 	0.44460 0.19060 0.48790 -0.17500
I 	I 	0.76070 0.18770 0.61550 -0.13400
Cu	Cu	0.61390 0.45046 0.45078 0.91400
O 	O 	0.45070 0.45000 0.35860 -0.39300
O 	O 	0.46490 0.34480 0.46480 -0.40000
O 	O 	0.25360 0.53250 0.44080 -0.38400
O 	O 	0.27110 0.42580 0.54700 -0.38800
N 	N 	0.77350 0.35810 0.36240 -0.17600
C 	C 	0.72130 0.30980 0.27550 0.04200
H 	H 	0.61000 0.31430 0.25430 0.02200
C 	C 	0.83190 0.25490 0.21980 -0.09900
H 	H 	0.79620 0.22190 0.16050 0.04000
C 	C 	0.99470 0.24830 0.25100 0.04000
C 	C 	0.04690 0.29660 0.33780 -0.09500
H 	H 	0.15820 0.29200 0.35910 0.07500
C 	C 	0.93630 0.35150 0.39350 0.04400
H 	H 	0.97200 0.38450 0.45280 0.03300
N 	N 	0.34560 0.08250 0.08010 -0.24200
C 	C 	0.37640 0.11180 0.16920 0.03100
H 	H 	0.47500 0.09530 0.19250 -0.01500
C 	C 	0.26310 0.16510 0.22430 -0.10000
H 	H 	0.28410 0.18510 0.28520 0.07200
C 	C 	0.11890 0.18910 0.19020 0.02800
C 	C 	0.08810 0.15980 0.10110 -0.06800
H 	H 	0.98960 0.17630 0.07790 0.03100
C 	C 	0.20150 0.10650 0.04610 -0.04200
H 	H 	0.18040 0.08650 0.98520 0.03200
C 	C 	0.31200 0.48860 0.36890 0.32400
C 	C 	0.20880 0.47890 0.28820 -0.03500
C 	C 	0.04120 0.50220 0.29100 -0.03200
H 	H 	0.99120 0.52710 0.34500 0.06700
C 	C 	0.94680 0.48920 0.21480 -0.00900
H 	H 	0.83230 0.50510 0.21680 0.04300
C 	C 	0.02000 0.45280 0.13580 -0.08600
H 	H 	0.95550 0.44380 0.08370 0.06600
C 	C 	0.18760 0.42940 0.13300 0.07400
C 	C 	0.28200 0.44250 0.20920 -0.06800
H 	H 	0.39660 0.42660 0.20720 0.07500
I 	I 	0.31650 0.36340 0.01300 -0.06700
I 	I 	0.29070 0.40240 0.01740 -0.08600
C 	C 	0.33300 0.34910 0.50840 0.34100
C 	C 	0.22900 0.25600 0.49800 -0.12800
C 	C 	0.06700 0.25400 0.53100 0.17100
H 	H 	0.02990 0.31160 0.56820 0.02300
C 	C 	0.96100 0.16900 0.51000 -0.03400
H 	H 	0.85080 0.16780 0.53340 0.08000
C 	C 	0.01600 0.08500 0.45600 -0.13300
H 	H 	0.94320 0.02640 0.44200 0.06500
C 	C 	0.17700 0.08600 0.42300 0.15300
C 	C 	0.28400 0.17200 0.44300 -0.25400
H 	H 	0.39400 0.17270 0.42040 0.06200
I 	I 	0.25200 0.95890 0.33620 -0.09200
C 	C 	0.72200 0.74100 0.48500 0.08000
C 	C 	0.87000 0.74800 0.44200 -0.15200
H 	H 	0.93250 0.69510 0.42020 0.00400
C 	C 	0.92800 0.83300 0.43200 -0.15800
H 	H 	0.02960 0.83770 0.40280 0.08600
C 	C 	0.83700 0.91100 0.46500 0.08100
H 	H 	0.87640 0.96860 0.45780 -0.01400
C 	C 	0.68800 0.90400 0.50800 -0.19700
C 	C 	0.63100 0.81900 0.51800 0.12200
H 	H 	0.52900 0.81420 0.54740 0.09100
I 	I 	0.56620 0.02720 0.55490 -0.12700
C 	C 	0.75500 0.73100 0.47300 -0.01100
C 	C 	0.91700 0.73100 0.44100 0.08400
H 	H 	0.97800 0.67770 0.42940 -0.02300
C 	C 	0.99100 0.81000 0.42400 0.03800
C 	C 	0.90200 0.88800 0.44100 0.08800
H 	H 	0.95220 0.94220 0.42930 0.00100
C 	C 	0.74000 0.88800 0.47300 -0.13300
H 	H 	0.67910 0.94180 0.48450 0.20400
C 	C 	0.66600 0.81000 0.49000 0.23000
H 	H 	0.55540 0.80940 0.51210 -0.15200
I 	I 	0.23930 0.81230 0.38450 -0.15100
Cu	Cu	0.50000 0.00000 -0.00000 0.77300
