data_crystal

_cell_length_a 13.09200
_cell_length_b 16.95600
_cell_length_c 26.76500
_cell_angle_alpha 90.00000
_cell_angle_beta  90.00000
_cell_angle_gamma 90.00000

_symmetry_space_group_name_	'P 1'
_symmetry_space_group_name_H-M	'P 1'

loop_
_symmetry_equiv_pos_as_xyz
  x,y,z

loop_
_atom_site_label
_atom_site_type_symbol
_atom_site_fract_x
_atom_site_fract_y
_atom_site_fract_z
_atom_site_charge
N 	N 	0.41140 0.59080 0.75031 -0.07500
N 	N 	0.37500 0.66230 0.73750 -0.10400
N 	N 	0.50450 0.62748 0.68730 -0.26200
C 	C 	0.43380 0.68240 0.70000 0.08800
H 	H 	0.42750 0.73150 0.68320 -0.02000
C 	C 	0.48770 0.57090 0.72044 0.07200
H 	H 	0.52500 0.52300 0.72240 -0.00900
C 	C 	0.36200 0.54290 0.78880 -0.17300
C 	C 	0.25390 0.52170 0.77380 -0.05600
C 	C 	0.29300 0.48070 0.76520 0.08000
H 	H 	0.35200 0.57000 0.81700 0.08700
H 	H 	0.41000 0.51300 0.80000 0.09300
N 	N 	0.41140 0.09080 0.25031 -0.07500
N 	N 	0.37500 0.16230 0.23750 -0.10400
N 	N 	0.50450 0.12748 0.18730 -0.26200
C 	C 	0.43380 0.18240 0.20000 0.08800
H 	H 	0.42750 0.23150 0.18320 -0.02000
C 	C 	0.48770 0.07090 0.22044 0.07100
H 	H 	0.52500 0.02300 0.22240 -0.01000
C 	C 	0.36200 0.04290 0.28880 -0.17400
C 	C 	0.25390 0.02170 0.27380 -0.12600
C 	C 	0.29300 0.98070 0.26520 0.15100
H 	H 	0.35200 0.07000 0.31700 0.08800
H 	H 	0.41000 0.01300 0.30000 0.08800
N 	N 	0.91140 0.59080 0.25031 -0.07600
N 	N 	0.87500 0.66230 0.23750 -0.10500
N 	N 	0.00450 0.62748 0.18730 -0.26100
C 	C 	0.93380 0.68240 0.20000 0.08500
H 	H 	0.92750 0.73150 0.18320 -0.01900
C 	C 	0.98770 0.57090 0.22044 0.06800
H 	H 	0.02500 0.52300 0.22240 -0.00900
C 	C 	0.86200 0.54290 0.28880 -0.17300
C 	C 	0.75390 0.52170 0.27380 -0.05700
C 	C 	0.79300 0.48070 0.26520 0.07900
H 	H 	0.85200 0.57000 0.31700 0.08500
H 	H 	0.91000 0.51300 0.30000 0.09200
N 	N 	0.91140 0.09080 0.75031 -0.07800
N 	N 	0.87500 0.16230 0.73750 -0.10500
N 	N 	0.00450 0.12748 0.68730 -0.27100
C 	C 	0.93380 0.18240 0.70000 0.09200
H 	H 	0.92750 0.23150 0.68320 -0.02200
C 	C 	0.98770 0.07090 0.72044 0.08800
H 	H 	0.02500 0.02300 0.72240 -0.02000
C 	C 	0.86200 0.04290 0.78880 -0.16800
C 	C 	0.75390 0.02170 0.77380 -0.10600
C 	C 	0.79300 0.98070 0.76520 0.12500
H 	H 	0.85200 0.07000 0.81700 0.08800
H 	H 	0.91000 0.01300 0.80000 0.09100
N 	N 	0.33860 0.15920 0.75031 -0.07600
N 	N 	0.37500 0.08770 0.73750 -0.10500
N 	N 	0.24550 0.12252 0.68730 -0.26400
C 	C 	0.31620 0.06760 0.70000 0.08700
H 	H 	0.32250 0.01850 0.68320 -0.02100
C 	C 	0.26230 0.17910 0.72044 0.07100
H 	H 	0.22500 0.22700 0.72240 -0.01100
C 	C 	0.38800 0.20710 0.78880 -0.17500
C 	C 	0.49610 0.22830 0.77380 -0.06200
C 	C 	0.45700 0.26930 0.76520 0.08500
H 	H 	0.39800 0.18000 0.81700 0.08700
H 	H 	0.34000 0.23700 0.80000 0.09200
N 	N 	0.33860 0.65920 0.25031 -0.07600
N 	N 	0.37500 0.58770 0.23750 -0.10500
N 	N 	0.24550 0.62252 0.18730 -0.26300
C 	C 	0.31620 0.56760 0.20000 0.08700
H 	H 	0.32250 0.51850 0.18320 -0.02100
C 	C 	0.26230 0.67910 0.22044 0.07100
H 	H 	0.22500 0.72700 0.22240 -0.01000
C 	C 	0.38800 0.70710 0.28880 -0.17300
C 	C 	0.49610 0.72830 0.27380 -0.06200
C 	C 	0.45700 0.76930 0.26520 0.08400
H 	H 	0.39800 0.68000 0.31700 0.08500
H 	H 	0.34000 0.73700 0.30000 0.09100
N 	N 	0.83860 0.15920 0.25031 -0.07500
N 	N 	0.87500 0.08770 0.23750 -0.10400
N 	N 	0.74550 0.12252 0.18730 -0.26300
C 	C 	0.81620 0.06760 0.20000 0.08700
H 	H 	0.82250 0.01850 0.18320 -0.01700
C 	C 	0.76230 0.17910 0.22044 0.07100
H 	H 	0.72500 0.22700 0.22240 -0.01000
C 	C 	0.88800 0.20710 0.28880 -0.17800
C 	C 	0.99610 0.22830 0.27380 -0.08300
C 	C 	0.95700 0.26930 0.26520 0.11400
H 	H 	0.89800 0.18000 0.31700 0.08900
H 	H 	0.84000 0.23700 0.30000 0.09200
N 	N 	0.83860 0.65920 0.75031 -0.07700
N 	N 	0.87500 0.58770 0.73750 -0.10500
N 	N 	0.74550 0.62252 0.68730 -0.26300
C 	C 	0.81620 0.56760 0.70000 0.08700
H 	H 	0.82250 0.51850 0.68320 -0.02100
C 	C 	0.76230 0.67910 0.72044 0.07100
H 	H 	0.72500 0.72700 0.72240 -0.01100
C 	C 	0.88800 0.70710 0.78880 -0.16400
C 	C 	0.99610 0.72830 0.77380 -0.09300
C 	C 	0.95700 0.76930 0.76520 0.10500
H 	H 	0.89800 0.68000 0.81700 0.08300
H 	H 	0.84000 0.73700 0.80000 0.08600
N 	N 	0.33860 0.59080 0.99969 -0.07700
N 	N 	0.37500 0.66230 0.01250 -0.10500
N 	N 	0.24550 0.62748 0.06270 -0.26300
C 	C 	0.31620 0.68240 0.05000 0.08800
H 	H 	0.32250 0.73150 0.06680 -0.02000
C 	C 	0.26230 0.57090 0.02956 0.07200
H 	H 	0.22500 0.52300 0.02760 -0.01100
C 	C 	0.38800 0.54290 0.96120 -0.17200
C 	C 	0.49610 0.52170 0.97620 -0.06600
C 	C 	0.45700 0.48070 0.98480 0.08700
H 	H 	0.39800 0.57000 0.93300 0.08500
H 	H 	0.34000 0.51300 0.95000 0.09000
N 	N 	0.33860 0.09080 0.49969 -0.07600
N 	N 	0.37500 0.16230 0.51250 -0.10500
N 	N 	0.24550 0.12748 0.56270 -0.26400
C 	C 	0.31620 0.18240 0.55000 0.08700
H 	H 	0.32250 0.23150 0.56680 -0.02100
C 	C 	0.26230 0.07090 0.52956 0.07100
H 	H 	0.22500 0.02300 0.52760 -0.01100
C 	C 	0.38800 0.04290 0.46120 -0.17600
C 	C 	0.49610 0.02170 0.47620 0.00000
C 	C 	0.45700 0.98070 0.48480 0.02300
H 	H 	0.39800 0.07000 0.43300 0.08400
H 	H 	0.34000 0.01300 0.45000 0.09400
N 	N 	0.83860 0.59080 0.49969 -0.07600
N 	N 	0.87500 0.66230 0.51250 -0.10500
N 	N 	0.74550 0.62748 0.56270 -0.26300
C 	C 	0.81620 0.68240 0.55000 0.08700
H 	H 	0.82250 0.73150 0.56680 -0.02100
C 	C 	0.76230 0.57090 0.52956 0.07100
H 	H 	0.72500 0.52300 0.52760 -0.01000
C 	C 	0.88800 0.54290 0.46120 -0.17500
C 	C 	0.99610 0.52170 0.47620 -0.02200
C 	C 	0.95700 0.48070 0.48480 0.04500
H 	H 	0.89800 0.57000 0.43300 0.08400
H 	H 	0.84000 0.51300 0.45000 0.09400
N 	N 	0.83860 0.09080 0.99969 -0.08000
N 	N 	0.87500 0.16230 0.01250 -0.10300
N 	N 	0.74550 0.12748 0.06270 -0.26200
C 	C 	0.81620 0.18240 0.05000 0.08500
H 	H 	0.82250 0.23150 0.06680 -0.02000
C 	C 	0.76230 0.07090 0.02956 0.06900
H 	H 	0.72500 0.02300 0.02760 -0.01500
C 	C 	0.88800 0.04290 0.96120 -0.11800
C 	C 	0.99610 0.02170 0.97620 -1.21100
C 	C 	0.95700 0.98070 0.98480 1.23300
H 	H 	0.89800 0.07000 0.93300 0.11400
H 	H 	0.84000 0.01300 0.95000 0.02100
N 	N 	0.41140 0.15920 0.99969 -0.07300
N 	N 	0.37500 0.08770 0.01250 -0.11000
N 	N 	0.50450 0.12252 0.06270 -0.26300
C 	C 	0.43380 0.06760 0.05000 0.08600
H 	H 	0.42750 0.01850 0.06680 -0.02200
C 	C 	0.48770 0.17910 0.02956 0.06700
H 	H 	0.52500 0.22700 0.02760 -0.01000
C 	C 	0.36200 0.20710 0.96120 -0.17900
C 	C 	0.25390 0.22830 0.97620 -0.18500
C 	C 	0.29300 0.26930 0.98480 0.21700
H 	H 	0.35200 0.18000 0.93300 0.09300
H 	H 	0.41000 0.23700 0.95000 0.08800
N 	N 	0.41140 0.65920 0.49969 -0.07600
N 	N 	0.37500 0.58770 0.51250 -0.10500
N 	N 	0.50450 0.62252 0.56270 -0.26300
C 	C 	0.43380 0.56760 0.55000 0.08700
H 	H 	0.42750 0.51850 0.56680 -0.02100
C 	C 	0.48770 0.67910 0.52956 0.07100
H 	H 	0.52500 0.72700 0.52760 -0.01000
C 	C 	0.36200 0.70710 0.46120 -0.17500
C 	C 	0.25390 0.72830 0.47620 -0.04400
C 	C 	0.29300 0.76930 0.48480 0.06800
H 	H 	0.35200 0.68000 0.43300 0.08500
H 	H 	0.41000 0.73700 0.45000 0.09300
N 	N 	0.91140 0.15920 0.49969 -0.07800
N 	N 	0.87500 0.08770 0.51250 -0.10500
N 	N 	0.00450 0.12252 0.56270 -0.27000
C 	C 	0.93380 0.06760 0.55000 0.09200
H 	H 	0.92750 0.01850 0.56680 -0.02000
C 	C 	0.98770 0.17910 0.52956 0.08200
H 	H 	0.02500 0.22700 0.52760 -0.01700
C 	C 	0.86200 0.20710 0.46120 -0.17300
C 	C 	0.75390 0.22830 0.47620 -0.04400
C 	C 	0.79300 0.26930 0.48480 0.06700
H 	H 	0.85200 0.18000 0.43300 0.08500
H 	H 	0.91000 0.23700 0.45000 0.09300
N 	N 	0.91140 0.65920 0.99969 -0.07900
N 	N 	0.87500 0.58770 0.01250 -0.10400
N 	N 	0.00450 0.62252 0.06270 -0.26000
C 	C 	0.93380 0.56760 0.05000 0.08600
H 	H 	0.92750 0.51850 0.06680 -0.02000
C 	C 	0.98770 0.67910 0.02956 0.06600
H 	H 	0.02500 0.72700 0.02760 -0.00400
C 	C 	0.86200 0.70710 0.96120 -0.15300
C 	C 	0.75390 0.72830 0.97620 -0.19000
C 	C 	0.79300 0.76930 0.98480 0.19500
H 	H 	0.85200 0.68000 0.93300 0.08300
H 	H 	0.91000 0.73700 0.95000 0.07300
N 	N 	0.58860 0.40920 0.24969 -0.07600
N 	N 	0.62500 0.33770 0.26250 -0.10500
N 	N 	0.49550 0.37252 0.31270 -0.26300
C 	C 	0.56620 0.31760 0.30000 0.08700
H 	H 	0.57250 0.26850 0.31680 -0.02100
C 	C 	0.51230 0.42910 0.27956 0.07100
H 	H 	0.47500 0.47700 0.27760 -0.01000
C 	C 	0.63800 0.45710 0.21120 -0.17400
C 	C 	0.74610 0.47830 0.22620 -0.05700
C 	C 	0.70700 0.51930 0.23480 0.07900
H 	H 	0.64800 0.43000 0.18300 0.08600
H 	H 	0.59000 0.48700 0.20000 0.09200
N 	N 	0.58860 0.90920 0.74969 -0.07600
N 	N 	0.62500 0.83770 0.76250 -0.10500
N 	N 	0.49550 0.87252 0.81270 -0.26300
C 	C 	0.56620 0.81760 0.80000 0.08700
H 	H 	0.57250 0.76850 0.81680 -0.02100
C 	C 	0.51230 0.92910 0.77956 0.07000
H 	H 	0.47500 0.97700 0.77760 -0.01100
C 	C 	0.63800 0.95710 0.71120 -0.17500
C 	C 	0.74610 0.97830 0.72620 -0.12600
C 	C 	0.70700 0.01930 0.73480 0.15100
H 	H 	0.64800 0.93000 0.68300 0.08800
H 	H 	0.59000 0.98700 0.70000 0.08800
N 	N 	0.08860 0.40920 0.74969 -0.07600
N 	N 	0.12500 0.33770 0.76250 -0.10500
N 	N 	0.99550 0.37252 0.81270 -0.26100
C 	C 	0.06620 0.31760 0.80000 0.08500
H 	H 	0.07250 0.26850 0.81680 -0.01900
C 	C 	0.01230 0.42910 0.77956 0.06800
H 	H 	0.97500 0.47700 0.77760 -0.00900
C 	C 	0.13800 0.45710 0.71120 -0.17300
C 	C 	0.24610 0.47830 0.72620 -0.05700
C 	C 	0.20700 0.51930 0.73480 0.07900
H 	H 	0.14800 0.43000 0.68300 0.08500
H 	H 	0.09000 0.48700 0.70000 0.09200
N 	N 	0.08860 0.90920 0.24969 -0.07800
N 	N 	0.12500 0.83770 0.26250 -0.10500
N 	N 	0.99550 0.87252 0.31270 -0.27100
C 	C 	0.06620 0.81760 0.30000 0.09200
H 	H 	0.07250 0.76850 0.31680 -0.02200
C 	C 	0.01230 0.92910 0.27956 0.08800
H 	H 	0.97500 0.97700 0.27760 -0.02000
C 	C 	0.13800 0.95710 0.21120 -0.16800
C 	C 	0.24610 0.97830 0.22620 -0.10600
C 	C 	0.20700 0.01930 0.23480 0.12500
H 	H 	0.14800 0.93000 0.18300 0.08800
H 	H 	0.09000 0.98700 0.20000 0.09100
N 	N 	0.66140 0.84080 0.24969 -0.07600
N 	N 	0.62500 0.91230 0.26250 -0.10500
N 	N 	0.75450 0.87748 0.31270 -0.26400
C 	C 	0.68380 0.93240 0.30000 0.08700
H 	H 	0.67750 0.98150 0.31680 -0.02100
C 	C 	0.73770 0.82090 0.27956 0.07100
H 	H 	0.77500 0.77300 0.27760 -0.01100
C 	C 	0.61200 0.79290 0.21120 -0.17500
C 	C 	0.50390 0.77170 0.22620 -0.06200
C 	C 	0.54300 0.73070 0.23480 0.08500
H 	H 	0.60200 0.82000 0.18300 0.08700
H 	H 	0.66000 0.76300 0.20000 0.09200
N 	N 	0.66140 0.34080 0.74969 -0.07600
N 	N 	0.62500 0.41230 0.76250 -0.10500
N 	N 	0.75450 0.37748 0.81270 -0.26300
C 	C 	0.68380 0.43240 0.80000 0.08700
H 	H 	0.67750 0.48150 0.81680 -0.02100
C 	C 	0.73770 0.32090 0.77956 0.07100
H 	H 	0.77500 0.27300 0.77760 -0.01000
C 	C 	0.61200 0.29290 0.71120 -0.17300
C 	C 	0.50390 0.27170 0.72620 -0.06200
C 	C 	0.54300 0.23070 0.73480 0.08400
H 	H 	0.60200 0.32000 0.68300 0.08500
H 	H 	0.66000 0.26300 0.70000 0.09100
N 	N 	0.16140 0.84080 0.74969 -0.07500
N 	N 	0.12500 0.91230 0.76250 -0.10400
N 	N 	0.25450 0.87748 0.81270 -0.26300
C 	C 	0.18380 0.93240 0.80000 0.08700
H 	H 	0.17750 0.98150 0.81680 -0.01700
C 	C 	0.23770 0.82090 0.77956 0.07100
H 	H 	0.27500 0.77300 0.77760 -0.01000
C 	C 	0.11200 0.79290 0.71120 -0.17800
C 	C 	0.00390 0.77170 0.72620 -0.08300
C 	C 	0.04300 0.73070 0.73480 0.11400
H 	H 	0.10200 0.82000 0.68300 0.08900
H 	H 	0.16000 0.76300 0.70000 0.09200
N 	N 	0.16140 0.34080 0.24969 -0.07700
N 	N 	0.12500 0.41230 0.26250 -0.10500
N 	N 	0.25450 0.37748 0.31270 -0.26300
C 	C 	0.18380 0.43240 0.30000 0.08700
H 	H 	0.17750 0.48150 0.31680 -0.02100
C 	C 	0.23770 0.32090 0.27956 0.07100
H 	H 	0.27500 0.27300 0.27760 -0.01100
C 	C 	0.11200 0.29290 0.21120 -0.16400
C 	C 	0.00390 0.27170 0.22620 -0.09300
C 	C 	0.04300 0.23070 0.23480 0.10500
H 	H 	0.10200 0.32000 0.18300 0.08300
H 	H 	0.16000 0.26300 0.20000 0.08600
N 	N 	0.66140 0.40920 0.00031 -0.07700
N 	N 	0.62500 0.33770 0.98750 -0.10500
N 	N 	0.75450 0.37252 0.93730 -0.26300
C 	C 	0.68380 0.31760 0.95000 0.08800
H 	H 	0.67750 0.26850 0.93320 -0.02000
C 	C 	0.73770 0.42910 0.97044 0.07200
H 	H 	0.77500 0.47700 0.97240 -0.01100
C 	C 	0.61200 0.45710 0.03880 -0.17200
C 	C 	0.50390 0.47830 0.02380 -0.06600
C 	C 	0.54300 0.51930 0.01520 0.08700
H 	H 	0.60200 0.43000 0.06700 0.08500
H 	H 	0.66000 0.48700 0.05000 0.09000
N 	N 	0.66140 0.90920 0.50031 -0.07600
N 	N 	0.62500 0.83770 0.48750 -0.10500
N 	N 	0.75450 0.87252 0.43730 -0.26400
C 	C 	0.68380 0.81760 0.45000 0.08700
H 	H 	0.67750 0.76850 0.43320 -0.02100
C 	C 	0.73770 0.92910 0.47044 0.07100
H 	H 	0.77500 0.97700 0.47240 -0.01100
C 	C 	0.61200 0.95710 0.53880 -0.17600
C 	C 	0.50390 0.97830 0.52380 0.00000
C 	C 	0.54300 0.01930 0.51520 0.02300
H 	H 	0.60200 0.93000 0.56700 0.08400
H 	H 	0.66000 0.98700 0.55000 0.09400
N 	N 	0.16140 0.40920 0.50031 -0.07600
N 	N 	0.12500 0.33770 0.48750 -0.10500
N 	N 	0.25450 0.37252 0.43730 -0.26300
C 	C 	0.18380 0.31760 0.45000 0.08700
H 	H 	0.17750 0.26850 0.43320 -0.02100
C 	C 	0.23770 0.42910 0.47044 0.07100
H 	H 	0.27500 0.47700 0.47240 -0.01000
C 	C 	0.11200 0.45710 0.53880 -0.17500
C 	C 	0.00390 0.47830 0.52380 -0.02200
C 	C 	0.04300 0.51930 0.51520 0.04500
H 	H 	0.10200 0.43000 0.56700 0.08400
H 	H 	0.16000 0.48700 0.55000 0.09400
N 	N 	0.16140 0.90920 0.00031 -0.08000
N 	N 	0.12500 0.83770 0.98750 -0.10300
N 	N 	0.25450 0.87252 0.93730 -0.26200
C 	C 	0.18380 0.81760 0.95000 0.08500
H 	H 	0.17750 0.76850 0.93320 -0.02000
C 	C 	0.23770 0.92910 0.97044 0.06900
H 	H 	0.27500 0.97700 0.97240 -0.01500
C 	C 	0.11200 0.95710 0.03880 -0.11800
C 	C 	0.00390 0.97830 0.02380 -1.21100
C 	C 	0.04300 0.01930 0.01520 1.23300
H 	H 	0.10200 0.93000 0.06700 0.11400
H 	H 	0.16000 0.98700 0.05000 0.02100
N 	N 	0.58860 0.84080 0.00031 -0.07300
N 	N 	0.62500 0.91230 0.98750 -0.11000
N 	N 	0.49550 0.87748 0.93730 -0.26300
C 	C 	0.56620 0.93240 0.95000 0.08600
H 	H 	0.57250 0.98150 0.93320 -0.02200
C 	C 	0.51230 0.82090 0.97044 0.06700
H 	H 	0.47500 0.77300 0.97240 -0.01000
C 	C 	0.63800 0.79290 0.03880 -0.17900
C 	C 	0.74610 0.77170 0.02380 -0.18500
C 	C 	0.70700 0.73070 0.01520 0.21700
H 	H 	0.64800 0.82000 0.06700 0.09300
H 	H 	0.59000 0.76300 0.05000 0.08800
N 	N 	0.58860 0.34080 0.50031 -0.07600
N 	N 	0.62500 0.41230 0.48750 -0.10500
N 	N 	0.49550 0.37748 0.43730 -0.26300
C 	C 	0.56620 0.43240 0.45000 0.08700
H 	H 	0.57250 0.48150 0.43320 -0.02100
C 	C 	0.51230 0.32090 0.47044 0.07100
H 	H 	0.47500 0.27300 0.47240 -0.01000
C 	C 	0.63800 0.29290 0.53880 -0.17500
C 	C 	0.74610 0.27170 0.52380 -0.04400
C 	C 	0.70700 0.23070 0.51520 0.06800
H 	H 	0.64800 0.32000 0.56700 0.08500
H 	H 	0.59000 0.26300 0.55000 0.09300
N 	N 	0.08860 0.84080 0.50031 -0.07800
N 	N 	0.12500 0.91230 0.48750 -0.10500
N 	N 	0.99550 0.87748 0.43730 -0.27000
C 	C 	0.06620 0.93240 0.45000 0.09200
H 	H 	0.07250 0.98150 0.43320 -0.02000
C 	C 	0.01230 0.82090 0.47044 0.08200
H 	H 	0.97500 0.77300 0.47240 -0.01700
C 	C 	0.13800 0.79290 0.53880 -0.17300
C 	C 	0.24610 0.77170 0.52380 -0.04400
C 	C 	0.20700 0.73070 0.51520 0.06700
H 	H 	0.14800 0.82000 0.56700 0.08500
H 	H 	0.09000 0.76300 0.55000 0.09300
N 	N 	0.08860 0.34080 0.00031 -0.07900
N 	N 	0.12500 0.41230 0.98750 -0.10400
N 	N 	0.99550 0.37748 0.93730 -0.26000
C 	C 	0.06620 0.43240 0.95000 0.08600
H 	H 	0.07250 0.48150 0.93320 -0.02000
C 	C 	0.01230 0.32090 0.97044 0.06600
H 	H 	0.97500 0.27300 0.97240 -0.00400
C 	C 	0.13800 0.29290 0.03880 -0.15300
C 	C 	0.24610 0.27170 0.02380 -0.19000
C 	C 	0.20700 0.23070 0.01520 0.19500
H 	H 	0.14800 0.32000 0.06700 0.08300
H 	H 	0.09000 0.26300 0.05000 0.07300
Cd	Cd	0.62500 0.62500 0.62500 1.16300
Cd	Cd	0.12500 0.12500 0.62500 1.16300
Cd	Cd	0.12500 0.62500 0.12500 1.16400
Cd	Cd	0.62500 0.12500 0.12500 1.16400
Cd	Cd	0.37500 0.37500 0.37500 1.16300
Cd	Cd	0.87500 0.87500 0.37500 1.16300
Cd	Cd	0.87500 0.37500 0.87500 1.16400
Cd	Cd	0.37500 0.87500 0.87500 1.16400
