data_crystal

_cell_length_a 13.35000
_cell_length_b 13.35000
_cell_length_c 17.84300
_cell_angle_alpha 90.00000
_cell_angle_beta  90.00000
_cell_angle_gamma 120.00000

_symmetry_space_group_name_	'P 1'
_symmetry_space_group_name_H-M	'P 1'

loop_
_symmetry_equiv_pos_as_xyz
  x,y,z

loop_
_atom_site_label
_atom_site_type_symbol
_atom_site_fract_x
_atom_site_fract_y
_atom_site_fract_z
_atom_site_charge
Ga	Ga	0.85886 0.29249 0.03983 2.06700
P 	P 	0.63163 0.12718 0.94623 0.45000
H 	H 	0.68800 0.18000 0.88430 -0.03200
P 	P 	0.97445 0.16139 0.12923 0.80700
H 	H 	0.05400 0.25800 0.16000 -0.19400
O 	O 	0.57140 0.99950 0.92690 -0.39800
O 	O 	0.02800 0.13520 0.06080 -0.81000
O 	O 	0.71900 0.15230 0.00820 -0.66100
O 	O 	0.88190 0.19050 0.10760 -0.57800
O 	O 	0.92560 0.06680 0.18810 -0.57500
O 	O 	0.54840 0.17030 0.96380 -0.55900
O 	O 	0.77460 0.32460 0.11730 -0.52200
Ga	Ga	0.70751 0.56637 0.03983 2.06000
P 	P 	0.87282 0.50445 0.94623 0.71900
H 	H 	0.82000 0.50800 0.88430 -0.03200
P 	P 	0.83861 0.81306 0.12923 0.51200
H 	H 	0.74200 0.79600 0.16000 -0.02600
O 	O 	0.00050 0.57190 0.92690 -0.72200
O 	O 	0.86480 0.89280 0.06080 -0.46500
O 	O 	0.84770 0.56670 0.00820 -0.63000
O 	O 	0.80950 0.69140 0.10760 -0.52500
O 	O 	0.93320 0.85880 0.18810 -0.38000
O 	O 	0.82970 0.37810 0.96380 -0.53500
O 	O 	0.67540 0.45000 0.11730 -0.52400
Ga	Ga	0.43363 0.14114 0.03983 2.05300
P 	P 	0.49555 0.36837 0.94623 0.58200
H 	H 	0.49200 0.31200 0.88430 -0.04800
P 	P 	0.18694 0.02555 0.12923 0.20000
H 	H 	0.20400 0.94600 0.16000 0.08800
O 	O 	0.42810 0.42860 0.92690 -0.55800
O 	O 	0.10720 0.97200 0.06080 -0.44500
O 	O 	0.43330 0.28100 0.00820 -0.66300
O 	O 	0.30860 0.11810 0.10760 -0.54900
O 	O 	0.14120 0.07440 0.18810 -0.59200
O 	O 	0.62190 0.45160 0.96380 -0.55000
O 	O 	0.55000 0.22540 0.11730 -0.54800
Ga	Ga	0.29249 0.85886 0.46017 2.07300
P 	P 	0.12718 0.63163 0.55377 0.39200
H 	H 	0.18000 0.68800 0.61570 -0.03000
P 	P 	0.16139 0.97445 0.37077 0.81400
H 	H 	0.25800 0.05400 0.34000 -0.19700
O 	O 	0.99950 0.57140 0.57310 -0.40200
O 	O 	0.13520 0.02800 0.43920 -0.79000
O 	O 	0.15230 0.71900 0.49180 -0.60300
O 	O 	0.19050 0.88190 0.39240 -0.56900
O 	O 	0.06680 0.92560 0.31190 -0.57000
O 	O 	0.17030 0.54840 0.53620 -0.58600
O 	O 	0.32460 0.77460 0.38270 -0.51300
Ga	Ga	0.56637 0.70751 0.46017 2.06700
P 	P 	0.50445 0.87282 0.55377 0.67300
H 	H 	0.50800 0.82000 0.61570 -0.03000
P 	P 	0.81306 0.83861 0.37077 0.51200
H 	H 	0.79600 0.74200 0.34000 -0.02400
O 	O 	0.57190 0.00050 0.57310 -0.73200
O 	O 	0.89280 0.86480 0.43920 -0.44300
O 	O 	0.56670 0.84770 0.49180 -0.57600
O 	O 	0.69140 0.80950 0.39240 -0.51600
O 	O 	0.85880 0.93320 0.31190 -0.37800
O 	O 	0.37810 0.82970 0.53620 -0.56100
O 	O 	0.45000 0.67540 0.38270 -0.51600
Ga	Ga	0.14114 0.43363 0.46017 2.06000
P 	P 	0.36837 0.49555 0.55377 0.53400
H 	H 	0.31200 0.49200 0.61570 -0.04500
P 	P 	0.02555 0.18694 0.37077 0.21000
H 	H 	0.94600 0.20400 0.34000 0.08500
O 	O 	0.42860 0.42810 0.57310 -0.56900
O 	O 	0.97200 0.10720 0.43920 -0.43100
O 	O 	0.28100 0.43330 0.49180 -0.60800
O 	O 	0.11810 0.30860 0.39240 -0.54100
O 	O 	0.07440 0.14120 0.31190 -0.59200
O 	O 	0.45160 0.62190 0.53620 -0.57500
O 	O 	0.22540 0.55000 0.38270 -0.53900
Ga	Ga	0.14114 0.70751 0.96017 2.06700
P 	P 	0.36837 0.87282 0.05377 0.64000
H 	H 	0.31200 0.82000 0.11570 -0.03700
P 	P 	0.02555 0.83861 0.87077 0.24100
H 	H 	0.94600 0.74200 0.84000 0.09500
O 	O 	0.42860 0.00050 0.07310 -0.75300
O 	O 	0.97200 0.86480 0.93920 -0.31800
O 	O 	0.28100 0.84770 0.99180 -0.53800
O 	O 	0.11810 0.80950 0.89240 -0.50700
O 	O 	0.07440 0.93320 0.81190 -0.44300
O 	O 	0.45160 0.82970 0.03620 -0.58500
O 	O 	0.22540 0.67540 0.88270 -0.52400
Ga	Ga	0.29249 0.43363 0.96017 2.07300
P 	P 	0.12718 0.49555 0.05377 0.34700
H 	H 	0.18000 0.49200 0.11570 -0.03800
P 	P 	0.16139 0.18694 0.87077 0.50800
H 	H 	0.25800 0.20400 0.84000 -0.06200
O 	O 	0.99950 0.42810 0.07310 -0.41300
O 	O 	0.13520 0.10720 0.93920 -0.64300
O 	O 	0.15230 0.43330 0.99180 -0.56300
O 	O 	0.19050 0.30860 0.89240 -0.56000
O 	O 	0.06680 0.14120 0.81190 -0.65700
O 	O 	0.17030 0.62190 0.03620 -0.60700
O 	O 	0.32460 0.55000 0.88270 -0.52200
Ga	Ga	0.56637 0.85886 0.96017 2.07900
P 	P 	0.50445 0.63163 0.05377 0.48900
H 	H 	0.50800 0.68800 0.11570 -0.02300
P 	P 	0.81306 0.97445 0.87077 0.76900
H 	H 	0.79600 0.05400 0.84000 -0.15100
O 	O 	0.57190 0.57140 0.07310 -0.57800
O 	O 	0.89280 0.02800 0.93920 -0.61200
O 	O 	0.56670 0.71900 0.99180 -0.53300
O 	O 	0.69140 0.88190 0.89240 -0.53300
O 	O 	0.85880 0.92560 0.81190 -0.44000
O 	O 	0.37810 0.54840 0.03620 -0.59700
O 	O 	0.45000 0.77460 0.88270 -0.49900
Ga	Ga	0.70751 0.14114 0.53983 2.06100
P 	P 	0.87282 0.36837 0.44623 0.67700
H 	H 	0.82000 0.31200 0.38430 -0.04000
P 	P 	0.83861 0.02555 0.62923 0.24400
H 	H 	0.74200 0.94600 0.66000 0.09100
O 	O 	0.00050 0.42860 0.42690 -0.73700
O 	O 	0.86480 0.97200 0.56080 -0.34200
O 	O 	0.84770 0.28100 0.50820 -0.58500
O 	O 	0.80950 0.11810 0.60760 -0.51400
O 	O 	0.93320 0.07440 0.68810 -0.44000
O 	O 	0.82970 0.45160 0.46380 -0.56300
O 	O 	0.67540 0.22540 0.61730 -0.53100
Ga	Ga	0.43363 0.29249 0.53983 2.06600
P 	P 	0.49555 0.12718 0.44623 0.38800
H 	H 	0.49200 0.18000 0.38430 -0.04100
P 	P 	0.18694 0.16139 0.62923 0.50700
H 	H 	0.20400 0.25800 0.66000 -0.06600
O 	O 	0.42810 0.99950 0.42690 -0.39800
O 	O 	0.10720 0.13520 0.56080 -0.67400
O 	O 	0.43330 0.15230 0.50820 -0.61600
O 	O 	0.30860 0.19050 0.60760 -0.56800
O 	O 	0.14120 0.06680 0.68810 -0.65800
O 	O 	0.62190 0.17030 0.46380 -0.58600
O 	O 	0.55000 0.32460 0.61730 -0.53000
Ga	Ga	0.85886 0.56637 0.53983 2.07300
P 	P 	0.63163 0.50445 0.44623 0.53200
H 	H 	0.68800 0.50800 0.38430 -0.02600
P 	P 	0.97445 0.81306 0.62923 0.77900
H 	H 	0.05400 0.79600 0.66000 -0.15900
O 	O 	0.57140 0.57190 0.42690 -0.56700
O 	O 	0.02800 0.89280 0.56080 -0.64700
O 	O 	0.71900 0.56670 0.50820 -0.58400
O 	O 	0.88190 0.69140 0.60760 -0.54200
O 	O 	0.92560 0.85880 0.68810 -0.44100
O 	O 	0.54840 0.37810 0.46380 -0.57300
O 	O 	0.77460 0.45000 0.61730 -0.50600
Ga	Ga	0.00000 -0.00000 0.25000 1.99800
Ga	Ga	0.00000 0.00000 0.75000 1.99900
Ga	Ga	-0.00000 0.00000 -0.00000 1.98800
Ga	Ga	0.00000 -0.00000 0.50000 2.00100
P 	P 	0.66667 0.33333 0.13770 0.51800
H 	H 	0.66667 0.33333 0.21100 -0.00800
P 	P 	0.33333 0.66667 0.36230 0.52300
H 	H 	0.33333 0.66667 0.28900 -0.00900
P 	P 	0.33333 0.66667 0.86230 0.52700
H 	H 	0.33333 0.66667 0.78900 -0.00900
P 	P 	0.66667 0.33333 0.63770 0.52300
H 	H 	0.66667 0.33333 0.71100 -0.00800
