data_crystal

_cell_length_a 9.40440
_cell_length_b 13.12570
_cell_length_c 19.88990
_cell_angle_alpha 109.26600
_cell_angle_beta  102.46600
_cell_angle_gamma 90.00000

_symmetry_space_group_name_	'P 1'
_symmetry_space_group_name_H-M	'P 1'

loop_
_symmetry_equiv_pos_as_xyz
  x,y,z

loop_
_atom_site_label
_atom_site_type_symbol
_atom_site_fract_x
_atom_site_fract_y
_atom_site_fract_z
_atom_site_charge
Co	Co	0.17572 0.14290 0.72502 1.11300
Co	Co	0.32428 0.41788 0.27498 1.11400
Co	Co	0.82428 0.85710 0.27498 1.11300
Co	Co	0.67572 0.58212 0.72502 1.11400
H 	H 	0.85930 0.17540 0.74240 -0.02900
H 	H 	0.62350 0.13220 0.67580 0.10600
H 	H 	0.77980 0.97950 0.49780 0.10100
H 	H 	0.01030 0.02680 0.56960 -0.01100
H 	H 	0.15040 0.23030 0.88700 -0.04500
H 	H 	0.08760 0.17390 0.97460 0.08200
H 	H 	0.02130 0.87230 0.83180 0.10200
H 	H 	0.07860 0.93730 0.74680 0.00100
H 	H 	0.44680 0.04370 0.56180 0.06800
H 	H 	0.98090 0.89690 0.95080 0.05100
H 	H 	0.44150 0.30970 0.58160 0.11800
H 	H 	0.16060 0.21200 0.52080 0.03200
H 	H 	0.05980 0.21220 0.39460 0.11800
H 	H 	0.34590 0.29780 0.45300 0.03700
H 	H 	0.64070 0.43300 0.25760 -0.02800
H 	H 	0.87650 0.45640 0.32420 0.10700
H 	H 	0.72020 0.48170 0.50220 0.10200
H 	H 	0.48970 0.45720 0.43040 -0.00600
H 	H 	0.34960 0.34330 0.11300 -0.04600
H 	H 	0.41240 0.19930 0.02540 0.08600
H 	H 	0.47870 0.04050 0.16820 0.10500
H 	H 	0.42140 0.19050 0.25320 -0.00000
H 	H 	0.05320 0.48190 0.43820 0.06900
H 	H 	0.51910 0.94610 0.04920 0.05300
H 	H 	0.05850 0.72810 0.41840 0.11900
H 	H 	0.33940 0.69120 0.47920 0.03200
H 	H 	0.44020 0.81760 0.60540 0.11900
H 	H 	0.15410 0.84480 0.54700 0.03800
H 	H 	0.14070 0.82460 0.25760 -0.02800
H 	H 	0.37650 0.86780 0.32420 0.10700
H 	H 	0.22020 0.02050 0.50220 0.10100
H 	H 	0.98970 0.97320 0.43040 -0.01100
H 	H 	0.84960 0.76970 0.11300 -0.04500
H 	H 	0.91240 0.82610 0.02540 0.08200
H 	H 	0.97870 0.12770 0.16820 0.10200
H 	H 	0.92140 0.06270 0.25320 0.00100
H 	H 	0.55320 0.95630 0.43820 0.06800
H 	H 	0.01910 0.10310 0.04920 0.05100
H 	H 	0.55850 0.69030 0.41840 0.11800
H 	H 	0.83940 0.78800 0.47920 0.03200
H 	H 	0.94020 0.78780 0.60540 0.11800
H 	H 	0.65410 0.70220 0.54700 0.03700
H 	H 	0.35930 0.56700 0.74240 -0.02800
H 	H 	0.12350 0.54360 0.67580 0.10700
H 	H 	0.27980 0.51830 0.49780 0.10200
H 	H 	0.51030 0.54280 0.56960 -0.00600
H 	H 	0.65040 0.65670 0.88700 -0.04600
H 	H 	0.58760 0.80070 0.97460 0.08600
H 	H 	0.52130 0.95950 0.83180 0.10500
H 	H 	0.57860 0.80950 0.74680 -0.00000
H 	H 	0.94680 0.51810 0.56180 0.06900
H 	H 	0.48090 0.05390 0.95080 0.05300
H 	H 	0.94150 0.27190 0.58160 0.11900
H 	H 	0.66060 0.30880 0.52080 0.03200
H 	H 	0.55980 0.18240 0.39460 0.11900
H 	H 	0.84590 0.15520 0.45300 0.03800
C 	C 	0.84240 0.13534 0.69228 0.10900
C 	C 	0.70080 0.10973 0.65266 -0.18000
C 	C 	0.67120 0.05040 0.57814 0.13400
C 	C 	0.79310 0.01966 0.54772 -0.18000
C 	C 	0.93060 0.04846 0.59112 0.11400
C 	C 	0.12260 0.15651 0.87522 0.09300
C 	C 	0.08570 0.12323 0.92826 -0.17600
C 	C 	0.04590 0.01562 0.91364 0.11200
C 	C 	0.04600 0.94665 0.84450 -0.17000
C 	C 	0.08190 0.98616 0.79392 0.10400
C 	C 	0.52080 0.02434 0.53588 -0.08700
C 	C 	0.00410 0.97208 0.96656 -0.07700
C 	C 	0.33920 0.25281 0.64806 0.37700
C 	C 	0.35380 0.27492 0.58112 -0.22400
C 	C 	0.24730 0.24738 0.52052 0.02800
C 	C 	0.15650 0.28292 0.33284 0.37300
C 	C 	0.14680 0.24897 0.39614 -0.21500
C 	C 	0.25620 0.26828 0.45460 0.02100
C 	C 	0.65760 0.44306 0.30772 0.10900
C 	C 	0.79920 0.45707 0.34734 -0.18000
C 	C 	0.82880 0.47226 0.42186 0.13400
C 	C 	0.70690 0.47194 0.45228 -0.18100
C 	C 	0.56940 0.45734 0.40888 0.10800
C 	C 	0.37740 0.28129 0.12478 0.09900
C 	C 	0.41430 0.19497 0.07174 -0.18400
C 	C 	0.45410 0.10198 0.08636 0.12900
C 	C 	0.45400 0.10215 0.15550 -0.18300
C 	C 	0.41810 0.19224 0.20608 0.10600
C 	C 	0.97920 0.48846 0.46412 -0.08700
C 	C 	0.49590 0.00552 0.03344 -0.08500
C 	C 	0.16080 0.60475 0.35194 0.37700
C 	C 	0.14620 0.69380 0.41888 -0.22400
C 	C 	0.25270 0.72686 0.47948 0.02900
C 	C 	0.34350 0.95008 0.66716 0.37300
C 	C 	0.35320 0.85283 0.60386 -0.21400
C 	C 	0.24380 0.81368 0.54540 0.02200
C 	C 	0.15760 0.86466 0.30772 0.10900
C 	C 	0.29920 0.89027 0.34734 -0.18000
C 	C 	0.32880 0.94960 0.42186 0.13400
C 	C 	0.20690 0.98034 0.45228 -0.18000
C 	C 	0.06940 0.95154 0.40888 0.11400
C 	C 	0.87740 0.84349 0.12478 0.09300
C 	C 	0.91430 0.87677 0.07174 -0.17600
C 	C 	0.95410 0.98438 0.08636 0.11200
C 	C 	0.95400 0.05335 0.15550 -0.17000
C 	C 	0.91810 0.01384 0.20608 0.10400
C 	C 	0.47920 0.97566 0.46412 -0.08700
C 	C 	0.99590 0.02792 0.03344 -0.07700
C 	C 	0.66080 0.74719 0.35194 0.37700
C 	C 	0.64620 0.72508 0.41888 -0.22400
C 	C 	0.75270 0.75262 0.47948 0.02800
C 	C 	0.84350 0.71708 0.66716 0.37300
C 	C 	0.85320 0.75103 0.60386 -0.21500
C 	C 	0.74380 0.73172 0.54540 0.02100
C 	C 	0.34240 0.55694 0.69228 0.10900
C 	C 	0.20080 0.54293 0.65266 -0.18000
C 	C 	0.17120 0.52774 0.57814 0.13400
C 	C 	0.29310 0.52806 0.54772 -0.18100
C 	C 	0.43060 0.54266 0.59112 0.10800
C 	C 	0.62260 0.71871 0.87522 0.09900
C 	C 	0.58570 0.80503 0.92826 -0.18400
C 	C 	0.54590 0.89802 0.91364 0.12900
C 	C 	0.54600 0.89785 0.84450 -0.18300
C 	C 	0.58190 0.80776 0.79392 0.10600
C 	C 	0.02080 0.51154 0.53588 -0.08700
C 	C 	0.50410 0.99448 0.96656 -0.08500
C 	C 	0.83920 0.39525 0.64806 0.37700
C 	C 	0.85380 0.30620 0.58112 -0.22400
C 	C 	0.74730 0.27314 0.52052 0.02900
C 	C 	0.65650 0.04992 0.33284 0.37300
C 	C 	0.64680 0.14717 0.39614 -0.21400
C 	C 	0.75620 0.18632 0.45460 0.02200
N 	N 	0.95820 0.10592 0.66276 -0.25000
N 	N 	0.12110 0.09006 0.80810 -0.26600
N 	N 	0.54180 0.44316 0.33724 -0.25000
N 	N 	0.37890 0.28196 0.19190 -0.26500
N 	N 	0.04180 0.89408 0.33724 -0.25000
N 	N 	0.87890 0.90994 0.19190 -0.26600
N 	N 	0.45820 0.55684 0.66276 -0.25000
N 	N 	0.62110 0.71804 0.80810 -0.26500
O 	O 	0.23120 0.19241 0.64374 -0.43500
O 	O 	0.43850 0.29466 0.70520 -0.32800
O 	O 	0.27940 0.32141 0.33264 -0.42400
O 	O 	0.04020 0.27510 0.28526 -0.30600
O 	O 	0.26880 0.54867 0.35626 -0.43400
O 	O 	0.06150 0.58946 0.29480 -0.32700
O 	O 	0.22060 0.98877 0.66736 -0.42300
O 	O 	0.45980 0.98984 0.71474 -0.30500
O 	O 	0.76880 0.80759 0.35626 -0.43500
O 	O 	0.56150 0.70534 0.29480 -0.32800
O 	O 	0.72060 0.67859 0.66736 -0.42400
O 	O 	0.95980 0.72490 0.71474 -0.30600
O 	O 	0.73120 0.45133 0.64374 -0.43400
O 	O 	0.93850 0.41054 0.70520 -0.32700
O 	O 	0.77940 0.01123 0.33264 -0.42300
O 	O 	0.54020 0.01016 0.28526 -0.30500
