data_crystal

_cell_length_a 12.48180
_cell_length_b 21.76300
_cell_length_c 16.50900
_cell_angle_alpha 90.00000
_cell_angle_beta  103.57700
_cell_angle_gamma 90.00000

_symmetry_space_group_name_	'P 1'
_symmetry_space_group_name_H-M	'P 1'

loop_
_symmetry_equiv_pos_as_xyz
  x,y,z

loop_
_atom_site_label
_atom_site_type_symbol
_atom_site_fract_x
_atom_site_fract_y
_atom_site_fract_z
_atom_site_charge
Ce	Ce	0.97106 0.95262 0.09979 2.13800
O 	O 	0.82180 0.94160 0.97700 -0.52000
O 	O 	0.86930 0.97660 0.86250 -0.49500
O 	O 	0.84310 0.04450 0.10890 -0.46400
O 	O 	0.92550 0.06210 0.00820 -0.60900
O 	O 	0.84670 0.91210 0.17530 -0.54500
O 	O 	0.87910 0.89340 0.31030 -0.52700
H 	H 	0.94250 0.02620 0.23420 0.34600
C 	C 	0.79980 0.95670 0.90190 0.40400
C 	C 	0.68090 0.95350 0.85490 -0.10600
C 	C 	0.59860 0.95150 0.90070 0.02700
H 	H 	0.61820 0.95070 0.95860 0.03000
C 	C 	0.48980 0.95080 0.85930 -0.10000
H 	H 	0.43580 0.95000 0.88960 0.07000
C 	C 	0.45870 0.95120 0.77270 0.02800
C 	C 	0.65330 0.95260 0.77170 -0.02500
H 	H 	0.70850 0.95280 0.74230 0.05200
C 	C 	0.86370 0.07900 0.05560 0.39900
C 	C 	0.81380 0.14250 0.04350 -0.12000
C 	C 	0.82440 0.17980 0.97990 -0.02000
H 	H 	0.86320 0.16570 0.94190 0.01700
C 	C 	0.77880 0.23870 0.97010 0.01700
C 	C 	0.70930 0.22100 0.09430 -0.09600
H 	H 	0.66960 0.23410 0.13230 0.06100
C 	C 	0.75430 0.16310 0.10260 0.02300
H 	H 	0.74620 0.13770 0.14600 0.02900
C 	C 	0.81610 0.90060 0.24080 0.46300
C 	C 	0.64940 0.89300 0.29780 -0.00400
H 	H 	0.69570 0.89200 0.35090 0.04000
C 	C 	0.69380 0.89490 0.23110 -0.14200
C 	C 	0.62430 0.89560 0.15150 0.05100
H 	H 	0.65390 0.89800 0.10500 0.01400
C 	C 	0.51310 0.89270 0.14190 -0.11100
H 	H 	0.46760 0.89090 0.08860 0.06900
C 	C 	0.46590 0.89250 0.21060 0.02600
Ce	Ce	0.47106 0.45262 0.09979 2.15100
O 	O 	0.32180 0.44160 0.97700 -0.52400
O 	O 	0.36930 0.47660 0.86250 -0.49300
O 	O 	0.34310 0.54450 0.10890 -0.46400
O 	O 	0.42550 0.56210 0.00820 -0.60600
O 	O 	0.34670 0.41210 0.17530 -0.52800
O 	O 	0.37910 0.39340 0.31030 -0.51000
H 	H 	0.44250 0.52620 0.23420 0.36700
C 	C 	0.29980 0.45670 0.90190 0.41000
C 	C 	0.18090 0.45350 0.85490 -0.12300
C 	C 	0.09860 0.45150 0.90070 0.06000
H 	H 	0.11820 0.45070 0.95860 0.01700
C 	C 	0.98980 0.45080 0.85930 -0.13500
H 	H 	0.93580 0.45000 0.88960 0.08000
C 	C 	0.95870 0.45120 0.77270 0.03700
C 	C 	0.15330 0.45260 0.77170 -0.00900
H 	H 	0.20850 0.45280 0.74230 0.04600
C 	C 	0.36370 0.57900 0.05560 0.40100
C 	C 	0.31380 0.64250 0.04350 -0.12600
C 	C 	0.32440 0.67980 0.97990 -0.01300
H 	H 	0.36320 0.66570 0.94190 0.01600
C 	C 	0.27880 0.73870 0.97010 0.01600
C 	C 	0.20930 0.72100 0.09430 -0.09900
H 	H 	0.16960 0.73410 0.13230 0.06400
C 	C 	0.25430 0.66310 0.10260 0.02800
H 	H 	0.24620 0.63770 0.14600 0.02800
C 	C 	0.31610 0.40060 0.24080 0.42400
C 	C 	0.14940 0.39300 0.29780 -0.14100
H 	H 	0.19570 0.39200 0.35090 0.08700
C 	C 	0.19380 0.39490 0.23110 -0.03300
C 	C 	0.12430 0.39560 0.15150 -0.09500
H 	H 	0.15390 0.39800 0.10500 0.07100
C 	C 	0.01310 0.39270 0.14190 0.09500
H 	H 	0.96760 0.39090 0.08860 -0.01100
C 	C 	0.96590 0.39250 0.21060 -0.16400
Ce	Ce	0.02894 0.95262 0.40021 2.15600
O 	O 	0.17820 0.94160 0.52300 -0.51700
O 	O 	0.13070 0.97660 0.63750 -0.48600
O 	O 	0.15690 0.04450 0.39110 -0.46200
O 	O 	0.07450 0.06210 0.49180 -0.59900
O 	O 	0.15330 0.91210 0.32470 -0.53600
O 	O 	0.12090 0.89340 0.18970 -0.51600
H 	H 	0.05750 0.02620 0.26580 0.35900
C 	C 	0.20020 0.95670 0.59810 0.40400
C 	C 	0.31910 0.95350 0.64510 -0.10600
C 	C 	0.40140 0.95150 0.59930 0.02700
H 	H 	0.38180 0.95070 0.54140 0.02800
C 	C 	0.51020 0.95080 0.64070 -0.10100
H 	H 	0.56420 0.95000 0.61040 0.06900
C 	C 	0.54130 0.95120 0.72730 0.02800
C 	C 	0.34670 0.95260 0.72830 -0.02500
H 	H 	0.29150 0.95280 0.75770 0.05300
C 	C 	0.13630 0.07900 0.44440 0.40000
C 	C 	0.18620 0.14250 0.45650 -0.12000
C 	C 	0.17560 0.17980 0.52010 -0.01600
H 	H 	0.13680 0.16570 0.55810 0.02000
C 	C 	0.22120 0.23870 0.52990 0.02000
C 	C 	0.29070 0.22100 0.40570 -0.09400
H 	H 	0.33040 0.23410 0.36770 0.06100
C 	C 	0.24570 0.16310 0.39740 0.02400
H 	H 	0.25380 0.13770 0.35400 0.03000
C 	C 	0.18390 0.90060 0.25920 0.46000
C 	C 	0.35060 0.89300 0.20220 -0.00600
H 	H 	0.30430 0.89200 0.14910 0.04000
C 	C 	0.30620 0.89490 0.26890 -0.13800
C 	C 	0.37570 0.89560 0.34850 0.04900
H 	H 	0.34610 0.89800 0.39500 0.01800
C 	C 	0.48690 0.89270 0.35810 -0.10800
H 	H 	0.53240 0.89090 0.41140 0.07000
C 	C 	0.53410 0.89250 0.28940 0.02400
Ce	Ce	0.52894 0.45262 0.40021 2.15100
O 	O 	0.67820 0.44160 0.52300 -0.51800
O 	O 	0.63070 0.47660 0.63750 -0.49000
O 	O 	0.65690 0.54450 0.39110 -0.46400
O 	O 	0.57450 0.56210 0.49180 -0.60400
O 	O 	0.65330 0.41210 0.32470 -0.54800
O 	O 	0.62090 0.39340 0.18970 -0.53000
H 	H 	0.55750 0.52620 0.26580 0.36700
C 	C 	0.70020 0.45670 0.59810 0.39800
C 	C 	0.81910 0.45350 0.64510 -0.09000
C 	C 	0.90140 0.45150 0.59930 -0.01100
H 	H 	0.88180 0.45070 0.54140 0.03900
C 	C 	0.01020 0.45080 0.64070 -0.06300
H 	H 	0.06420 0.45000 0.61040 0.05800
C 	C 	0.04130 0.45120 0.72730 0.01700
C 	C 	0.84670 0.45260 0.72830 -0.04200
H 	H 	0.79150 0.45280 0.75770 0.05700
C 	C 	0.63630 0.57900 0.44440 0.40100
C 	C 	0.68620 0.64250 0.45650 -0.12100
C 	C 	0.67560 0.67980 0.52010 -0.01500
H 	H 	0.63680 0.66570 0.55810 0.01900
C 	C 	0.72120 0.73870 0.52990 0.01900
C 	C 	0.79070 0.72100 0.40570 -0.09500
H 	H 	0.83040 0.73410 0.36770 0.05800
C 	C 	0.74570 0.66310 0.39740 0.02300
H 	H 	0.75380 0.63770 0.35400 0.02800
C 	C 	0.68390 0.40060 0.25920 0.49900
C 	C 	0.85060 0.39300 0.20220 0.13200
H 	H 	0.80430 0.39200 0.14910 -0.00600
C 	C 	0.80620 0.39490 0.26890 -0.24300
C 	C 	0.87570 0.39560 0.34850 0.19200
H 	H 	0.84610 0.39800 0.39500 -0.03400
C 	C 	0.98690 0.39270 0.35810 -0.30400
H 	H 	0.03240 0.39090 0.41140 0.14700
C 	C 	0.03410 0.39250 0.28940 0.21300
Ce	Ce	0.02894 0.04738 0.90021 2.15100
O 	O 	0.17820 0.05840 0.02300 -0.51300
O 	O 	0.13070 0.02340 0.13750 -0.48400
O 	O 	0.15690 0.95550 0.89110 -0.46000
O 	O 	0.07450 0.93790 0.99180 -0.59700
O 	O 	0.15330 0.08790 0.82470 -0.53800
O 	O 	0.12090 0.10660 0.68970 -0.51700
H 	H 	0.05750 0.97380 0.76580 0.36000
C 	C 	0.20020 0.04330 0.09810 0.40300
C 	C 	0.31910 0.04650 0.14510 -0.10400
C 	C 	0.40140 0.04850 0.09930 0.02500
H 	H 	0.38180 0.04930 0.04140 0.03000
C 	C 	0.51020 0.04920 0.14070 -0.09900
H 	H 	0.56420 0.05000 0.11040 0.07000
C 	C 	0.54130 0.04880 0.22730 0.02700
C 	C 	0.34670 0.04740 0.22830 -0.02600
H 	H 	0.29150 0.04720 0.25770 0.05300
C 	C 	0.13630 0.92100 0.94440 0.39800
C 	C 	0.18620 0.85750 0.95650 -0.11400
C 	C 	0.17560 0.82020 0.02010 -0.02300
H 	H 	0.13680 0.83430 0.05810 0.02100
C 	C 	0.22120 0.76130 0.02990 0.02100
C 	C 	0.29070 0.77900 0.90570 -0.09200
H 	H 	0.33040 0.76590 0.86770 0.06000
C 	C 	0.24570 0.83690 0.89740 0.02100
H 	H 	0.25380 0.86230 0.85400 0.03100
C 	C 	0.18390 0.09940 0.75920 0.46100
C 	C 	0.35060 0.10700 0.70220 -0.00600
H 	H 	0.30430 0.10800 0.64910 0.04100
C 	C 	0.30620 0.10510 0.76890 -0.13900
C 	C 	0.37570 0.10440 0.84850 0.04900
H 	H 	0.34610 0.10200 0.89500 0.01500
C 	C 	0.48690 0.10730 0.85810 -0.10900
H 	H 	0.53240 0.10910 0.91140 0.06800
C 	C 	0.53410 0.10750 0.78940 0.02400
Ce	Ce	0.52894 0.54738 0.90021 2.15100
O 	O 	0.67820 0.55840 0.02300 -0.51900
O 	O 	0.63070 0.52340 0.13750 -0.49000
O 	O 	0.65690 0.45550 0.89110 -0.46400
O 	O 	0.57450 0.43790 0.99180 -0.60400
O 	O 	0.65330 0.58790 0.82470 -0.54500
O 	O 	0.62090 0.60660 0.68970 -0.52800
H 	H 	0.55750 0.47380 0.76580 0.36700
C 	C 	0.70020 0.54330 0.09810 0.39700
C 	C 	0.81910 0.54650 0.14510 -0.08700
C 	C 	0.90140 0.54850 0.09930 -0.02100
H 	H 	0.88180 0.54930 0.04140 0.04100
C 	C 	0.01020 0.54920 0.14070 -0.05300
H 	H 	0.06420 0.55000 0.11040 0.05600
C 	C 	0.04130 0.54880 0.22730 0.01600
C 	C 	0.84670 0.54740 0.22830 -0.04500
H 	H 	0.79150 0.54720 0.25770 0.05800
C 	C 	0.63630 0.42100 0.94440 0.40200
C 	C 	0.68620 0.35750 0.95650 -0.12300
C 	C 	0.67560 0.32020 0.02010 -0.01300
H 	H 	0.63680 0.33430 0.05810 0.01800
C 	C 	0.72120 0.26130 0.02990 0.01800
C 	C 	0.79070 0.27900 0.90570 -0.09600
H 	H 	0.83040 0.26590 0.86770 0.05900
C 	C 	0.74570 0.33690 0.89740 0.02500
H 	H 	0.75380 0.36230 0.85400 0.02800
C 	C 	0.68390 0.59940 0.75920 0.49100
C 	C 	0.85060 0.60700 0.70220 0.10100
H 	H 	0.80430 0.60800 0.64910 0.00400
C 	C 	0.80620 0.60510 0.76890 -0.22000
C 	C 	0.87570 0.60440 0.84850 0.16000
H 	H 	0.84610 0.60200 0.89500 -0.02200
C 	C 	0.98690 0.60730 0.85810 -0.25900
H 	H 	0.03240 0.60910 0.91140 0.12900
C 	C 	0.03410 0.60750 0.78940 0.17100
Ce	Ce	0.97106 0.04738 0.59979 2.14500
O 	O 	0.82180 0.05840 0.47700 -0.52300
O 	O 	0.86930 0.02340 0.36250 -0.49600
O 	O 	0.84310 0.95550 0.60890 -0.46500
O 	O 	0.92550 0.93790 0.50820 -0.61100
O 	O 	0.84670 0.08790 0.67530 -0.54200
O 	O 	0.87910 0.10660 0.81030 -0.52600
H 	H 	0.94250 0.97380 0.73420 0.34900
C 	C 	0.79980 0.04330 0.40190 0.40500
C 	C 	0.68090 0.04650 0.35490 -0.10800
C 	C 	0.59860 0.04850 0.40070 0.02800
H 	H 	0.61820 0.04930 0.45860 0.02800
C 	C 	0.48980 0.04920 0.35930 -0.10200
H 	H 	0.43580 0.05000 0.38960 0.07000
C 	C 	0.45870 0.04880 0.27270 0.02900
C 	C 	0.65330 0.04740 0.27170 -0.02400
H 	H 	0.70850 0.04720 0.24230 0.05200
C 	C 	0.86370 0.92100 0.55560 0.40100
C 	C 	0.81380 0.85750 0.54350 -0.12500
C 	C 	0.82440 0.82020 0.47990 -0.01400
H 	H 	0.86320 0.83430 0.44190 0.01500
C 	C 	0.77880 0.76130 0.47010 0.01500
C 	C 	0.70930 0.77900 0.59430 -0.09800
H 	H 	0.66960 0.76590 0.63230 0.06100
C 	C 	0.75430 0.83690 0.60260 0.02500
H 	H 	0.74620 0.86230 0.64600 0.02800
C 	C 	0.81610 0.09940 0.74080 0.46300
C 	C 	0.64940 0.10700 0.79780 -0.00400
H 	H 	0.69570 0.10800 0.85090 0.04000
C 	C 	0.69380 0.10510 0.73110 -0.14100
C 	C 	0.62430 0.10440 0.65150 0.05100
H 	H 	0.65390 0.10200 0.60500 0.01700
C 	C 	0.51310 0.10730 0.64190 -0.11000
H 	H 	0.46760 0.10910 0.58860 0.07000
C 	C 	0.46590 0.10750 0.71060 0.02600
Ce	Ce	0.47106 0.54738 0.59979 2.15100
O 	O 	0.32180 0.55840 0.47700 -0.52200
O 	O 	0.36930 0.52340 0.36250 -0.49300
O 	O 	0.34310 0.45550 0.60890 -0.46400
O 	O 	0.42550 0.43790 0.50820 -0.60500
O 	O 	0.34670 0.58790 0.67530 -0.53000
O 	O 	0.37910 0.60660 0.81030 -0.51200
H 	H 	0.44250 0.47380 0.73420 0.36700
C 	C 	0.29980 0.54330 0.40190 0.41100
C 	C 	0.18090 0.54650 0.35490 -0.12700
C 	C 	0.09860 0.54850 0.40070 0.07000
H 	H 	0.11820 0.54930 0.45860 0.01500
C 	C 	0.98980 0.54920 0.35930 -0.14400
H 	H 	0.93580 0.55000 0.38960 0.08200
C 	C 	0.95870 0.54880 0.27270 0.03800
C 	C 	0.15330 0.54740 0.27170 -0.00500
H 	H 	0.20850 0.54720 0.24230 0.04500
C 	C 	0.36370 0.42100 0.55560 0.40000
C 	C 	0.31380 0.35750 0.54350 -0.12400
C 	C 	0.32440 0.32020 0.47990 -0.01500
H 	H 	0.36320 0.33430 0.44190 0.01600
C 	C 	0.27880 0.26130 0.47010 0.01700
C 	C 	0.20930 0.27900 0.59430 -0.09700
H 	H 	0.16960 0.26590 0.63230 0.06300
C 	C 	0.25430 0.33690 0.60260 0.02600
H 	H 	0.24620 0.36230 0.64600 0.02900
C 	C 	0.31610 0.59940 0.74080 0.43200
C 	C 	0.14940 0.60700 0.79780 -0.11100
H 	H 	0.19570 0.60800 0.85090 0.07700
C 	C 	0.19380 0.60510 0.73110 -0.05600
C 	C 	0.12430 0.60440 0.65150 -0.06400
H 	H 	0.15390 0.60200 0.60500 0.05900
C 	C 	0.01310 0.60730 0.64190 0.05100
H 	H 	0.96760 0.60910 0.58860 0.00600
C 	C 	0.96590 0.60750 0.71060 -0.12200
O 	O 	0.00000 0.00430 0.25000 -0.93100
O 	O 	0.50000 0.50430 0.25000 -0.96600
O 	O 	-0.00000 0.99570 0.75000 -0.93500
O 	O 	0.50000 0.49570 0.75000 -0.96600
