data_crystal

_cell_length_a 15.71200
_cell_length_b 9.35050
_cell_length_c 18.72390
_cell_angle_alpha 90.00000
_cell_angle_beta  99.48200
_cell_angle_gamma 90.00000

_symmetry_space_group_name_	'P 1'
_symmetry_space_group_name_H-M	'P 1'

loop_
_symmetry_equiv_pos_as_xyz
  x,y,z

loop_
_atom_site_label
_atom_site_type_symbol
_atom_site_fract_x
_atom_site_fract_y
_atom_site_fract_z
_atom_site_charge
Ag	Ag	0.92228 0.47822 0.70244 0.43500
Ag	Ag	0.83715 0.20066 0.52024 0.46700
C 	C 	0.63310 0.38840 0.54250 -1.32000
H 	H 	0.57600 0.38040 0.55420 0.37600
H 	H 	0.64690 0.30280 0.51860 0.35700
H 	H 	0.63550 0.46900 0.51110 0.37700
C 	C 	0.68070 0.54350 0.65360 -1.43000
H 	H 	0.62560 0.53470 0.66900 0.42600
H 	H 	0.68020 0.62490 0.62230 0.41900
H 	H 	0.72490 0.55570 0.69510 0.40300
C 	C 	0.69860 0.27620 0.65880 -1.40100
H 	H 	0.73790 0.28830 0.70340 0.39100
H 	H 	0.71600 0.19560 0.63300 0.39500
H 	H 	0.64150 0.26020 0.66920 0.40200
C 	C 	0.69890 0.40950 0.61300 0.92400
C 	C 	0.81290 0.57950 0.54020 -0.02100
H 	H 	0.85090 0.56330 0.50510 -0.03300
H 	H 	0.75560 0.59720 0.51340 -0.01500
C 	C 	0.84280 0.71380 0.58250 -0.01500
C 	C 	0.92310 0.82400 0.68111 -0.03500
C 	C 	0.97620 0.81650 0.74930 -0.02900
H 	H 	0.98830 0.72820 0.77160 -0.04800
C 	C 	0.01010 0.93810 0.78290 -0.18300
H 	H 	0.04480 0.93210 0.82810 0.02600
C 	C 	0.99320 0.07150 0.75010 0.04900
H 	H 	0.01690 0.15350 0.77350 -0.07700
C 	C 	0.94210 0.08230 0.68380 -0.19100
H 	H 	0.93140 0.17150 0.66220 0.01300
C 	C 	0.90570 0.95930 0.64825 0.04600
C 	C 	0.82280 0.85200 0.54987 0.00100
C 	C 	0.76700 0.85910 0.47590 -0.02800
H 	H 	0.71940 0.79260 0.47480 -0.01800
H 	H 	0.80090 0.82790 0.43990 -0.02300
C 	C 	0.72440 0.04860 0.35200 0.96900
C 	C 	0.81500 0.04100 0.33660 -1.51500
H 	H 	0.81390 0.03770 0.28520 0.45400
H 	H 	0.84260 0.95640 0.35840 0.44300
H 	H 	0.84650 0.12390 0.35620 0.42800
C 	C 	0.68390 0.19510 0.33380 -1.39900
H 	H 	0.72090 0.26790 0.35820 0.38400
H 	H 	0.62870 0.19930 0.34940 0.37800
H 	H 	0.67670 0.21040 0.28250 0.39700
C 	C 	0.66860 0.92950 0.31370 -1.41000
H 	H 	0.66350 0.94160 0.26220 0.39100
H 	H 	0.61240 0.93310 0.32730 0.37600
H 	H 	0.69480 0.83860 0.32730 0.40600
N 	N 	0.88990 0.70250 0.64671 -0.17700
N 	N 	0.85390 0.96870 0.58152 -0.18500
S 	S 	0.80904 0.41745 0.59160 -0.47000
S 	S 	0.72343 0.03554 0.45071 -0.48500
Ag	Ag	0.56692 0.02534 0.46378 0.39600
Ag	Ag	0.06692 0.47466 0.96378 0.39600
Ag	Ag	0.42228 0.02178 0.20244 0.43200
Ag	Ag	0.33715 0.29934 0.02024 0.46400
C 	C 	0.13310 0.11160 0.04250 -1.29200
H 	H 	0.07600 0.11960 0.05420 0.36500
H 	H 	0.14690 0.19720 0.01860 0.34700
H 	H 	0.13550 0.03100 0.01110 0.36600
C 	C 	0.18070 0.95650 0.15360 -1.40500
H 	H 	0.12560 0.96530 0.16900 0.41600
H 	H 	0.18020 0.87510 0.12230 0.41100
H 	H 	0.22490 0.94430 0.19510 0.39500
C 	C 	0.19860 0.22380 0.15880 -1.37700
H 	H 	0.23790 0.21170 0.20340 0.38400
H 	H 	0.21600 0.30440 0.13300 0.38700
H 	H 	0.14150 0.23980 0.16920 0.39300
C 	C 	0.19890 0.09050 0.11300 0.90600
C 	C 	0.31290 0.92050 0.04020 -0.02100
H 	H 	0.35090 0.93670 0.00510 -0.03700
H 	H 	0.25560 0.90280 0.01340 -0.01600
C 	C 	0.34280 0.78620 0.08250 -0.01300
C 	C 	0.42310 0.67600 0.18111 -0.00100
C 	C 	0.47620 0.68350 0.24930 -0.10600
H 	H 	0.48830 0.77180 0.27160 -0.02600
C 	C 	0.51010 0.56190 0.28290 -0.07500
H 	H 	0.54480 0.56790 0.32810 -0.00900
C 	C 	0.49320 0.42850 0.25010 -0.06100
H 	H 	0.51690 0.34650 0.27350 -0.03100
C 	C 	0.44210 0.41770 0.18380 -0.12500
H 	H 	0.43140 0.32850 0.16220 -0.01200
C 	C 	0.40570 0.54070 0.14825 0.01100
C 	C 	0.32280 0.64800 0.04987 -0.00900
C 	C 	0.26700 0.64090 0.97590 -0.01900
H 	H 	0.21940 0.70740 0.97480 -0.01900
H 	H 	0.30090 0.67210 0.93990 -0.02500
C 	C 	0.22440 0.45140 0.85200 0.96400
C 	C 	0.31500 0.45900 0.83660 -1.50700
H 	H 	0.31390 0.46230 0.78520 0.45200
H 	H 	0.34260 0.54360 0.85840 0.44000
H 	H 	0.34650 0.37610 0.85620 0.42500
C 	C 	0.18390 0.30490 0.83380 -1.39400
H 	H 	0.22090 0.23210 0.85820 0.38300
H 	H 	0.12870 0.30070 0.84940 0.37700
H 	H 	0.17670 0.28960 0.78250 0.39600
C 	C 	0.16860 0.57050 0.81370 -1.40200
H 	H 	0.16350 0.55840 0.76220 0.38800
H 	H 	0.11240 0.56690 0.82730 0.37300
H 	H 	0.19480 0.66140 0.82730 0.40300
N 	N 	0.38990 0.79750 0.14671 -0.18400
N 	N 	0.35390 0.53130 0.08152 -0.17900
S 	S 	0.30904 0.08255 0.09160 -0.46900
S 	S 	0.22343 0.46446 0.95071 -0.48100
Ag	Ag	0.42228 0.97822 0.70244 0.43200
Ag	Ag	0.33715 0.70066 0.52024 0.46600
C 	C 	0.13310 0.88840 0.54250 -1.30100
H 	H 	0.07600 0.88040 0.55420 0.36900
H 	H 	0.14690 0.80280 0.51860 0.35200
H 	H 	0.13550 0.96900 0.51110 0.37000
C 	C 	0.18070 0.04350 0.65360 -1.41100
H 	H 	0.12560 0.03470 0.66900 0.41800
H 	H 	0.18020 0.12490 0.62230 0.41300
H 	H 	0.22490 0.05570 0.69510 0.39700
C 	C 	0.19860 0.77620 0.65880 -1.38300
H 	H 	0.23790 0.78830 0.70340 0.38600
H 	H 	0.21600 0.69560 0.63300 0.39000
H 	H 	0.14150 0.76020 0.66920 0.39500
C 	C 	0.19890 0.90950 0.61300 0.91100
C 	C 	0.31290 0.07950 0.54020 -0.02100
H 	H 	0.35090 0.06330 0.50510 -0.03500
H 	H 	0.25560 0.09720 0.51340 -0.01500
C 	C 	0.34280 0.21380 0.58250 -0.01400
C 	C 	0.42310 0.32400 0.68111 -0.00200
C 	C 	0.47620 0.31650 0.74930 -0.10500
H 	H 	0.48830 0.22820 0.77160 -0.02600
C 	C 	0.51010 0.43810 0.78290 -0.07600
H 	H 	0.54480 0.43210 0.82810 -0.00800
C 	C 	0.49320 0.57150 0.75010 -0.06000
H 	H 	0.51690 0.65350 0.77350 -0.03100
C 	C 	0.44210 0.58230 0.68380 -0.12600
H 	H 	0.43140 0.67150 0.66220 -0.01200
C 	C 	0.40570 0.45930 0.64825 0.01100
C 	C 	0.32280 0.35200 0.54987 -0.00300
C 	C 	0.26700 0.35910 0.47590 -0.02600
H 	H 	0.21940 0.29260 0.47480 -0.01900
H 	H 	0.30090 0.32790 0.43990 -0.02400
C 	C 	0.22440 0.54860 0.35200 0.96000
C 	C 	0.31500 0.54100 0.33660 -1.50100
H 	H 	0.31390 0.53770 0.28520 0.45000
H 	H 	0.34260 0.45640 0.35840 0.43800
H 	H 	0.34650 0.62390 0.35620 0.42200
C 	C 	0.18390 0.69510 0.33380 -1.38900
H 	H 	0.22090 0.76790 0.35820 0.38100
H 	H 	0.12870 0.69930 0.34940 0.37400
H 	H 	0.17670 0.71040 0.28250 0.39400
C 	C 	0.16860 0.42950 0.31370 -1.39800
H 	H 	0.16350 0.44160 0.26220 0.38700
H 	H 	0.11240 0.43310 0.32730 0.37100
H 	H 	0.19480 0.33860 0.32730 0.40200
N 	N 	0.38990 0.20250 0.64671 -0.18400
N 	N 	0.35390 0.46870 0.58152 -0.18000
S 	S 	0.30904 0.91745 0.59160 -0.46900
S 	S 	0.22343 0.53554 0.45071 -0.48500
Ag	Ag	0.06692 0.52534 0.46378 0.39300
Ag	Ag	0.56692 0.97466 0.96378 0.39900
Ag	Ag	0.92228 0.52178 0.20244 0.43500
Ag	Ag	0.83715 0.79934 0.02024 0.46500
C 	C 	0.63310 0.61160 0.04250 -1.31000
H 	H 	0.57600 0.61960 0.05420 0.37300
H 	H 	0.64690 0.69720 0.01860 0.35300
H 	H 	0.63550 0.53100 0.01110 0.37300
C 	C 	0.68070 0.45650 0.15360 -1.42300
H 	H 	0.62560 0.46530 0.16900 0.42400
H 	H 	0.68020 0.37510 0.12230 0.41700
H 	H 	0.72490 0.44430 0.19510 0.40100
C 	C 	0.69860 0.72380 0.15880 -1.39400
H 	H 	0.73790 0.71170 0.20340 0.38900
H 	H 	0.71600 0.80440 0.13300 0.39300
H 	H 	0.64150 0.73980 0.16920 0.40000
C 	C 	0.69890 0.59050 0.11300 0.91800
C 	C 	0.81290 0.42050 0.04020 -0.02000
H 	H 	0.85090 0.43670 0.00510 -0.03600
H 	H 	0.75560 0.40280 0.01340 -0.01700
C 	C 	0.84280 0.28620 0.08250 -0.01400
C 	C 	0.92310 0.17600 0.18111 -0.03400
C 	C 	0.97620 0.18350 0.24930 -0.03200
H 	H 	0.98830 0.27180 0.27160 -0.04700
C 	C 	0.01010 0.06190 0.28290 -0.17900
H 	H 	0.04480 0.06790 0.32810 0.02400
C 	C 	0.99320 0.92850 0.25010 0.04600
H 	H 	0.01690 0.84650 0.27350 -0.07600
C 	C 	0.94210 0.91770 0.18380 -0.18800
H 	H 	0.93140 0.82850 0.16220 0.01200
C 	C 	0.90570 0.04070 0.14825 0.04400
C 	C 	0.82280 0.14800 0.04987 -0.00700
C 	C 	0.76700 0.14090 0.97590 -0.01900
H 	H 	0.71940 0.20740 0.97480 -0.01800
H 	H 	0.80090 0.17210 0.93990 -0.02400
C 	C 	0.72440 0.95140 0.85200 0.97300
C 	C 	0.81500 0.95900 0.83660 -1.52300
H 	H 	0.81390 0.96230 0.78520 0.45700
H 	H 	0.84260 0.04360 0.85840 0.44700
H 	H 	0.84650 0.87610 0.85620 0.43100
C 	C 	0.68390 0.80490 0.83380 -1.40500
H 	H 	0.72090 0.73210 0.85820 0.38700
H 	H 	0.62870 0.80070 0.84940 0.38000
H 	H 	0.67670 0.78960 0.78250 0.39900
C 	C 	0.66860 0.07050 0.81370 -1.41500
H 	H 	0.66350 0.05840 0.76220 0.39300
H 	H 	0.61240 0.06690 0.82730 0.37800
H 	H 	0.69480 0.16140 0.82730 0.40800
N 	N 	0.88990 0.29750 0.14671 -0.17800
N 	N 	0.85390 0.03130 0.08152 -0.18500
S 	S 	0.80904 0.58255 0.09160 -0.47000
S 	S 	0.72343 0.96446 0.95071 -0.48300
