data_crystal

_cell_length_a 9.09310
_cell_length_b 9.09310
_cell_length_c 38.33300
_cell_angle_alpha 90.00000
_cell_angle_beta  90.00000
_cell_angle_gamma 90.00000

_symmetry_space_group_name_	'P 1'
_symmetry_space_group_name_H-M	'P 1'

loop_
_symmetry_equiv_pos_as_xyz
  x,y,z

loop_
_atom_site_label
_atom_site_type_symbol
_atom_site_fract_x
_atom_site_fract_y
_atom_site_fract_z
_atom_site_charge
Zn	Zn	0.75085 0.25163 0.91627 1.25000
C 	C 	0.51973 0.18208 0.86874 0.49700
C 	C 	0.75007 0.00606 0.96390 0.47100
C 	C 	0.70308 0.50802 0.95288 0.46900
O 	O 	0.65221 0.44284 0.92489 -0.39300
O 	O 	0.66144 0.19856 0.87168 -0.41000
O 	O 	0.46237 0.23184 0.84005 -0.41500
O 	O 	0.69661 0.13509 0.95678 -0.40700
O 	O 	0.64851 0.63830 0.95946 -0.39200
O 	O 	0.69596 0.94501 0.99154 -0.39000
O 	O 	0.44448 0.11958 0.89167 -0.29300
O 	O 	0.84857 0.94639 0.94573 -0.28600
O 	O 	0.79650 0.44878 0.97191 -0.31000
Zn	Zn	0.24915 0.74837 0.41627 1.25100
C 	C 	0.48027 0.81792 0.36874 0.49800
C 	C 	0.24993 0.99394 0.46390 0.47300
C 	C 	0.29692 0.49198 0.45288 0.46900
O 	O 	0.34779 0.55716 0.42489 -0.39300
O 	O 	0.33856 0.80144 0.37168 -0.41000
O 	O 	0.53763 0.76816 0.34005 -0.41500
O 	O 	0.30339 0.86491 0.45678 -0.40900
O 	O 	0.35149 0.36170 0.45946 -0.39500
O 	O 	0.30404 0.05499 0.49154 -0.39500
O 	O 	0.55552 0.88042 0.39167 -0.29300
O 	O 	0.15143 0.05361 0.44573 -0.28800
O 	O 	0.20350 0.55122 0.47191 -0.31300
Zn	Zn	0.24837 0.25085 0.16627 1.25000
C 	C 	0.31792 0.01973 0.11874 0.45700
C 	C 	0.49394 0.25007 0.21390 0.50200
C 	C 	0.99198 0.20308 0.20288 0.44500
O 	O 	0.05716 0.15221 0.17489 -0.38600
O 	O 	0.30144 0.16144 0.12168 -0.40800
O 	O 	0.26816 0.96237 0.09005 -0.39800
O 	O 	0.36491 0.19661 0.20678 -0.41400
O 	O 	0.86170 0.14851 0.20946 -0.39600
O 	O 	0.55499 0.19596 0.24154 -0.41200
O 	O 	0.38042 0.94448 0.14167 -0.26700
O 	O 	0.55361 0.34857 0.19573 -0.30700
O 	O 	0.05122 0.29650 0.22191 -0.29800
Zn	Zn	0.75163 0.74915 0.66627 1.25000
C 	C 	0.68208 0.98027 0.61874 0.45700
C 	C 	0.50606 0.74993 0.71390 0.50200
C 	C 	0.00802 0.79692 0.70288 0.44600
O 	O 	0.94284 0.84779 0.67489 -0.38600
O 	O 	0.69856 0.83856 0.62168 -0.40700
O 	O 	0.73184 0.03763 0.59005 -0.39700
O 	O 	0.63509 0.80339 0.70678 -0.41400
O 	O 	0.13830 0.85149 0.70946 -0.39600
O 	O 	0.44501 0.80404 0.74154 -0.41200
O 	O 	0.61958 0.05552 0.64167 -0.26700
O 	O 	0.44639 0.65143 0.69573 -0.30700
O 	O 	0.94878 0.70350 0.72191 -0.29800
Zn	Zn	0.74915 0.75163 0.33373 1.25000
C 	C 	0.98027 0.68208 0.38126 0.45700
C 	C 	0.74993 0.50606 0.28610 0.50200
C 	C 	0.79692 0.00802 0.29712 0.44500
O 	O 	0.84779 0.94284 0.32511 -0.38600
O 	O 	0.83856 0.69856 0.37832 -0.40700
O 	O 	0.03763 0.73184 0.40995 -0.39700
O 	O 	0.80339 0.63509 0.29322 -0.41400
O 	O 	0.85149 0.13830 0.29054 -0.39600
O 	O 	0.80404 0.44501 0.25846 -0.41200
O 	O 	0.05552 0.61958 0.35833 -0.26700
O 	O 	0.65143 0.44639 0.30427 -0.30700
O 	O 	0.70350 0.94878 0.27809 -0.29800
Zn	Zn	0.25085 0.24837 0.83373 1.25000
C 	C 	0.01973 0.31792 0.88126 0.45700
C 	C 	0.25007 0.49394 0.78610 0.50200
C 	C 	0.20308 0.99198 0.79712 0.44600
O 	O 	0.15221 0.05716 0.82511 -0.38600
O 	O 	0.16144 0.30144 0.87832 -0.40700
O 	O 	0.96237 0.26816 0.90995 -0.39600
O 	O 	0.19661 0.36491 0.79322 -0.41400
O 	O 	0.14851 0.86170 0.79054 -0.39600
O 	O 	0.19596 0.55499 0.75846 -0.41200
O 	O 	0.94448 0.38042 0.85833 -0.26700
O 	O 	0.34857 0.55361 0.80427 -0.30700
O 	O 	0.29650 0.05122 0.77809 -0.29800
Zn	Zn	0.25163 0.75085 0.08373 1.25100
C 	C 	0.18208 0.51973 0.13126 0.49800
C 	C 	0.00606 0.75007 0.03610 0.47400
C 	C 	0.50802 0.70308 0.04712 0.46900
O 	O 	0.44284 0.65221 0.07511 -0.39400
O 	O 	0.19856 0.66144 0.12832 -0.41000
O 	O 	0.23184 0.46237 0.15995 -0.41500
O 	O 	0.13509 0.69661 0.04322 -0.41000
O 	O 	0.63830 0.64851 0.04054 -0.39700
O 	O 	0.94501 0.69596 0.00846 -0.39900
O 	O 	0.11958 0.44448 0.10833 -0.29400
O 	O 	0.94639 0.84857 0.05427 -0.28900
O 	O 	0.44878 0.79650 0.02809 -0.31600
Zn	Zn	0.74837 0.24915 0.58373 1.25100
C 	C 	0.81792 0.48027 0.63126 0.49800
C 	C 	0.99394 0.24993 0.53610 0.47300
C 	C 	0.49198 0.29692 0.54712 0.46900
O 	O 	0.55716 0.34779 0.57511 -0.39300
O 	O 	0.80144 0.33856 0.62832 -0.41000
O 	O 	0.76816 0.53763 0.65995 -0.41500
O 	O 	0.86491 0.30339 0.54322 -0.40900
O 	O 	0.36170 0.35149 0.54054 -0.39500
O 	O 	0.05499 0.30404 0.50846 -0.39500
O 	O 	0.88042 0.55552 0.60833 -0.29300
O 	O 	0.05361 0.15143 0.55427 -0.28700
O 	O 	0.55122 0.20350 0.52809 -0.31300
Zn	Zn	0.73805 0.73805 -0.00000 1.24800
Zn	Zn	0.26195 0.26195 0.50000 1.25100
Zn	Zn	0.76195 0.23805 0.25000 1.25000
Zn	Zn	0.23805 0.76195 0.75000 1.25000
