data_crystal

_cell_length_a 14.08100
_cell_length_b 14.41300
_cell_length_c 16.42000
_cell_angle_alpha 90.00000
_cell_angle_beta  97.81400
_cell_angle_gamma 90.00000

_symmetry_space_group_name_	'P 1'
_symmetry_space_group_name_H-M	'P 1'

loop_
_symmetry_equiv_pos_as_xyz
  x,y,z

loop_
_atom_site_label
_atom_site_type_symbol
_atom_site_fract_x
_atom_site_fract_y
_atom_site_fract_z
_atom_site_charge
I 	I 	0.10363 0.23849 0.54864 -0.44100
Cu	Cu	0.24771 0.16115 0.48069 0.80100
N 	N 	0.18850 0.12090 0.36510 -0.21600
C 	C 	0.24470 0.09740 0.30960 -0.00000
H 	H 	0.31190 0.09580 0.32660 0.01400
C 	C 	0.21170 0.07510 0.22850 0.01100
C 	C 	0.11220 0.07830 0.20410 -0.07300
H 	H 	0.08580 0.06490 0.14900 0.05800
C 	C 	0.05360 0.10140 0.26160 0.00900
C 	C 	0.09430 0.12380 0.34030 -0.00500
H 	H 	0.05320 0.14210 0.37880 0.01800
N 	N 	0.30340 0.94010 0.05950 -0.22700
C 	C 	0.24760 0.97620 0.11300 0.00200
H 	H 	0.18400 0.95370 0.11100 0.01600
C 	C 	0.27890 0.04440 0.17040 -0.01100
C 	C 	0.37050 0.07790 0.17260 -0.02300
H 	H 	0.39420 0.12470 0.21070 0.04400
C 	C 	0.42740 0.04190 0.11830 -0.08300
H 	H 	0.49090 0.06410 0.11820 0.06000
C 	C 	0.39140 0.97360 0.06420 0.04900
H 	H 	0.43230 0.94890 0.02800 -0.00000
I 	I 	0.60363 0.73849 0.54864 -0.44200
Cu	Cu	0.74771 0.66115 0.48069 0.80000
N 	N 	0.68850 0.62090 0.36510 -0.21600
C 	C 	0.74470 0.59740 0.30960 0.00000
H 	H 	0.81190 0.59580 0.32660 0.01400
C 	C 	0.71170 0.57510 0.22850 0.01100
C 	C 	0.61220 0.57830 0.20410 -0.07200
H 	H 	0.58580 0.56490 0.14900 0.05800
C 	C 	0.55360 0.60140 0.26160 0.00800
C 	C 	0.59430 0.62380 0.34030 -0.00500
H 	H 	0.55320 0.64210 0.37880 0.01800
N 	N 	0.80340 0.44010 0.05950 -0.22700
C 	C 	0.74760 0.47620 0.11300 0.00000
H 	H 	0.68400 0.45370 0.11100 0.01700
C 	C 	0.77890 0.54440 0.17040 -0.00900
C 	C 	0.87050 0.57790 0.17260 -0.02600
H 	H 	0.89420 0.62470 0.21070 0.04400
C 	C 	0.92740 0.54190 0.11830 -0.07900
H 	H 	0.99090 0.56410 0.11820 0.05900
C 	C 	0.89140 0.47360 0.06420 0.04600
H 	H 	0.93230 0.44890 0.02800 -0.00000
I 	I 	0.89637 0.23849 0.95136 -0.44000
Cu	Cu	0.75229 0.16115 0.01931 0.79900
N 	N 	0.81150 0.12090 0.13490 -0.21600
C 	C 	0.75530 0.09740 0.19040 0.00000
H 	H 	0.68810 0.09580 0.17340 0.01400
C 	C 	0.78830 0.07510 0.27150 0.01000
C 	C 	0.88780 0.07830 0.29590 -0.07200
H 	H 	0.91420 0.06490 0.35100 0.05800
C 	C 	0.94640 0.10140 0.23840 0.00700
C 	C 	0.90570 0.12380 0.15970 -0.00400
H 	H 	0.94680 0.14210 0.12120 0.01700
N 	N 	0.69660 0.94010 0.44050 -0.22700
C 	C 	0.75240 0.97620 0.38700 0.00100
H 	H 	0.81600 0.95370 0.38900 0.01600
C 	C 	0.72110 0.04440 0.32960 -0.00900
C 	C 	0.62950 0.07790 0.32740 -0.02500
H 	H 	0.60580 0.12470 0.28930 0.04400
C 	C 	0.57260 0.04190 0.38170 -0.08000
H 	H 	0.50910 0.06410 0.38180 0.06000
C 	C 	0.60860 0.97360 0.43580 0.04700
H 	H 	0.56770 0.94890 0.47200 -0.00000
I 	I 	0.39637 0.73849 0.95136 -0.44200
Cu	Cu	0.25229 0.66115 0.01931 0.80000
N 	N 	0.31150 0.62090 0.13490 -0.21600
C 	C 	0.25530 0.59740 0.19040 0.00000
H 	H 	0.18810 0.59580 0.17340 0.01400
C 	C 	0.28830 0.57510 0.27150 0.01100
C 	C 	0.38780 0.57830 0.29590 -0.07200
H 	H 	0.41420 0.56490 0.35100 0.05800
C 	C 	0.44640 0.60140 0.23840 0.00800
C 	C 	0.40570 0.62380 0.15970 -0.00500
H 	H 	0.44680 0.64210 0.12120 0.01800
N 	N 	0.19660 0.44010 0.44050 -0.22700
C 	C 	0.25240 0.47620 0.38700 0.00000
H 	H 	0.31600 0.45370 0.38900 0.01700
C 	C 	0.22110 0.54440 0.32960 -0.00900
C 	C 	0.12950 0.57790 0.32740 -0.02600
H 	H 	0.10580 0.62470 0.28930 0.04400
C 	C 	0.07260 0.54190 0.38170 -0.07900
H 	H 	0.00910 0.56410 0.38180 0.05900
C 	C 	0.10860 0.47360 0.43580 0.04600
H 	H 	0.06770 0.44890 0.47200 -0.00000
I 	I 	0.89637 0.76151 0.45136 -0.44200
Cu	Cu	0.75229 0.83885 0.51931 0.80000
N 	N 	0.81150 0.87910 0.63490 -0.21600
C 	C 	0.75530 0.90260 0.69040 -0.00000
H 	H 	0.68810 0.90420 0.67340 0.01400
C 	C 	0.78830 0.92490 0.77150 0.01100
C 	C 	0.88780 0.92170 0.79590 -0.07300
H 	H 	0.91420 0.93510 0.85100 0.05800
C 	C 	0.94640 0.89860 0.73840 0.00900
C 	C 	0.90570 0.87620 0.65970 -0.00500
H 	H 	0.94680 0.85790 0.62120 0.01800
N 	N 	0.69660 0.05990 0.94050 -0.22700
C 	C 	0.75240 0.02380 0.88700 0.00200
H 	H 	0.81600 0.04630 0.88900 0.01600
C 	C 	0.72110 0.95560 0.82960 -0.01100
C 	C 	0.62950 0.92210 0.82740 -0.02300
H 	H 	0.60580 0.87530 0.78930 0.04400
C 	C 	0.57260 0.95810 0.88170 -0.08300
H 	H 	0.50910 0.93590 0.88180 0.06000
C 	C 	0.60860 0.02640 0.93580 0.04900
H 	H 	0.56770 0.05110 0.97200 -0.00000
I 	I 	0.39637 0.26151 0.45136 -0.44200
Cu	Cu	0.25229 0.33885 0.51931 0.80000
N 	N 	0.31150 0.37910 0.63490 -0.21600
C 	C 	0.25530 0.40260 0.69040 0.00000
H 	H 	0.18810 0.40420 0.67340 0.01400
C 	C 	0.28830 0.42490 0.77150 0.01100
C 	C 	0.38780 0.42170 0.79590 -0.07200
H 	H 	0.41420 0.43510 0.85100 0.05800
C 	C 	0.44640 0.39860 0.73840 0.00800
C 	C 	0.40570 0.37620 0.65970 -0.00500
H 	H 	0.44680 0.35790 0.62120 0.01800
N 	N 	0.19660 0.55990 0.94050 -0.22700
C 	C 	0.25240 0.52380 0.88700 0.00000
H 	H 	0.31600 0.54630 0.88900 0.01700
C 	C 	0.22110 0.45560 0.82960 -0.00900
C 	C 	0.12950 0.42210 0.82740 -0.02600
H 	H 	0.10580 0.37530 0.78930 0.04400
C 	C 	0.07260 0.45810 0.88170 -0.07900
H 	H 	0.00910 0.43590 0.88180 0.05900
C 	C 	0.10860 0.52640 0.93580 0.04600
H 	H 	0.06770 0.55110 0.97200 -0.00000
I 	I 	0.10363 0.76151 0.04864 -0.44000
Cu	Cu	0.24771 0.83885 0.98069 0.79900
N 	N 	0.18850 0.87910 0.86510 -0.21600
C 	C 	0.24470 0.90260 0.80960 0.00000
H 	H 	0.31190 0.90420 0.82660 0.01400
C 	C 	0.21170 0.92490 0.72850 0.01000
C 	C 	0.11220 0.92170 0.70410 -0.07200
H 	H 	0.08580 0.93510 0.64900 0.05800
C 	C 	0.05360 0.89860 0.76160 0.00700
C 	C 	0.09430 0.87620 0.84030 -0.00400
H 	H 	0.05320 0.85790 0.87880 0.01700
N 	N 	0.30340 0.05990 0.55950 -0.22700
C 	C 	0.24760 0.02380 0.61300 0.00100
H 	H 	0.18400 0.04630 0.61100 0.01600
C 	C 	0.27890 0.95560 0.67040 -0.00900
C 	C 	0.37050 0.92210 0.67260 -0.02500
H 	H 	0.39420 0.87530 0.71070 0.04400
C 	C 	0.42740 0.95810 0.61830 -0.08000
H 	H 	0.49090 0.93590 0.61820 0.06000
C 	C 	0.39140 0.02640 0.56420 0.04700
H 	H 	0.43230 0.05110 0.52800 -0.00000
I 	I 	0.60363 0.26151 0.04864 -0.44200
Cu	Cu	0.74771 0.33885 0.98069 0.80000
N 	N 	0.68850 0.37910 0.86510 -0.21600
C 	C 	0.74470 0.40260 0.80960 0.00000
H 	H 	0.81190 0.40420 0.82660 0.01400
C 	C 	0.71170 0.42490 0.72850 0.01100
C 	C 	0.61220 0.42170 0.70410 -0.07200
H 	H 	0.58580 0.43510 0.64900 0.05800
C 	C 	0.55360 0.39860 0.76160 0.00800
C 	C 	0.59430 0.37620 0.84030 -0.00500
H 	H 	0.55320 0.35790 0.87880 0.01800
N 	N 	0.80340 0.55990 0.55950 -0.22700
C 	C 	0.74760 0.52380 0.61300 0.00000
H 	H 	0.68400 0.54630 0.61100 0.01700
C 	C 	0.77890 0.45560 0.67040 -0.00900
C 	C 	0.87050 0.42210 0.67260 -0.02600
H 	H 	0.89420 0.37530 0.71070 0.04400
C 	C 	0.92740 0.45810 0.61830 -0.07900
H 	H 	0.99090 0.43590 0.61820 0.05900
C 	C 	0.89140 0.52640 0.56420 0.04600
H 	H 	0.93230 0.55110 0.52800 -0.00000
