data_crystal

_cell_length_a 10.09160
_cell_length_b 10.09160
_cell_length_c 16.43730
_cell_angle_alpha 95.92630
_cell_angle_beta  95.92630
_cell_angle_gamma 92.36160

_symmetry_space_group_name_	'P 1'
_symmetry_space_group_name_H-M	'P 1'

loop_
_symmetry_equiv_pos_as_xyz
  x,y,z

loop_
_atom_site_label
_atom_site_type_symbol
_atom_site_fract_x
_atom_site_fract_y
_atom_site_fract_z
_atom_site_charge
Cu	Cu	0.73991 0.06451 0.82788 0.79300
Cu	Cu	0.56085 0.23701 0.79130 0.79700
Cu	Cu	0.06451 0.73991 0.32788 0.79300
Cu	Cu	0.23701 0.56085 0.29130 0.79700
H 	H 	0.90080 0.01860 0.69120 0.00800
H 	H 	0.87640 0.62980 0.59720 0.05800
H 	H 	0.72630 0.58150 0.69070 0.05000
H 	H 	0.66340 0.75160 0.78460 0.01700
H 	H 	0.92180 0.74620 0.47510 0.00400
H 	H 	0.11220 0.00820 0.65750 0.01700
H 	H 	0.24490 0.97010 0.43220 0.01700
H 	H 	0.34280 0.07120 0.69100 0.02600
H 	H 	0.28570 0.18730 0.46170 0.06300
H 	H 	0.57060 0.37840 0.62990 0.02700
H 	H 	0.27430 0.38230 0.42930 0.02100
H 	H 	0.66180 0.43080 0.52530 0.04700
H 	H 	0.69890 0.59030 0.43520 0.05400
H 	H 	0.52370 0.64570 0.34220 0.01100
H 	H 	0.01860 0.90080 0.19120 0.00800
H 	H 	0.62980 0.87640 0.09720 0.05800
H 	H 	0.58150 0.72630 0.19070 0.05000
H 	H 	0.75160 0.66340 0.28460 0.01700
H 	H 	0.74620 0.92180 0.97510 0.00600
H 	H 	0.00820 0.11220 0.15750 0.02000
H 	H 	0.97010 0.24490 0.93220 0.01900
H 	H 	0.07120 0.34280 0.19100 0.02500
H 	H 	0.18730 0.28570 0.96170 0.05600
H 	H 	0.37840 0.57060 0.12990 0.02700
H 	H 	0.38230 0.27430 0.92930 0.02100
H 	H 	0.43080 0.66180 0.02530 0.05300
H 	H 	0.59030 0.69890 0.93520 0.05100
H 	H 	0.64570 0.52370 0.84220 0.01100
C 	C 	0.86540 0.92980 0.69110 -0.00100
C 	C 	0.90270 0.82870 0.63540 0.03200
C 	C 	0.85090 0.69890 0.63530 -0.05400
C 	C 	0.76170 0.67030 0.69080 -0.04700
C 	C 	0.72430 0.77130 0.74660 0.01700
C 	C 	0.99130 0.81190 0.49400 0.04400
C 	C 	0.00280 0.87140 0.57480 -0.05300
C 	C 	0.10440 0.96760 0.60240 0.01400
C 	C 	0.19460 0.00440 0.54930 -0.05700
C 	C 	0.18320 0.94500 0.46850 0.02500
C 	C 	0.36590 0.12850 0.65170 -0.04100
C 	C 	0.29820 0.11360 0.57300 0.04300
C 	C 	0.33200 0.19740 0.51550 -0.09700
C 	C 	0.43350 0.29610 0.53670 0.02900
C 	C 	0.50120 0.31100 0.61540 -0.02100
C 	C 	0.36050 0.42450 0.43050 -0.00700
C 	C 	0.46460 0.39160 0.48570 -0.00800
C 	C 	0.59070 0.45330 0.48750 -0.03400
C 	C 	0.61270 0.54810 0.43400 -0.05700
C 	C 	0.50860 0.58100 0.37880 0.01400
C 	C 	0.92980 0.86540 0.19110 0.00200
C 	C 	0.82870 0.90270 0.13540 0.02800
C 	C 	0.69890 0.85090 0.13530 -0.05100
C 	C 	0.67030 0.76170 0.19080 -0.04800
C 	C 	0.77130 0.72430 0.24660 0.01900
C 	C 	0.81190 0.99130 0.99400 0.03300
C 	C 	0.87140 0.00280 0.07480 -0.04200
C 	C 	0.96760 0.10440 0.10240 0.00700
C 	C 	0.00440 0.19460 0.04930 -0.04700
C 	C 	0.94500 0.18320 0.96850 0.01500
C 	C 	0.12850 0.36590 0.15170 -0.03800
C 	C 	0.11360 0.29820 0.07300 0.03700
C 	C 	0.19740 0.33200 0.01550 -0.08600
C 	C 	0.29610 0.43350 0.03670 0.02800
C 	C 	0.31100 0.50120 0.11540 -0.02000
C 	C 	0.42450 0.36050 0.93050 -0.00800
C 	C 	0.39160 0.46460 0.98570 -0.00800
C 	C 	0.45330 0.59070 0.98750 -0.04400
C 	C 	0.54810 0.61270 0.93400 -0.05200
C 	C 	0.58100 0.50860 0.87880 0.01100
I 	I 	0.81057 0.29011 0.76420 -0.43500
I 	I 	0.49095 0.01051 0.85474 -0.45600
I 	I 	0.29011 0.81057 0.26420 -0.43400
I 	I 	0.01051 0.49095 0.35474 -0.45400
N 	N 	0.77620 0.90120 0.74670 -0.20700
N 	N 	0.08150 0.84870 0.44090 -0.23000
N 	N 	0.46740 0.22720 0.67290 -0.20400
N 	N 	0.38260 0.51920 0.37700 -0.22000
N 	N 	0.90120 0.77620 0.24670 -0.20700
N 	N 	0.84870 0.08150 0.94090 -0.22800
N 	N 	0.22720 0.46740 0.17290 -0.20500
N 	N 	0.51920 0.38260 0.87700 -0.21900
