data_crystal

_cell_length_a 8.66970
_cell_length_b 10.15500
_cell_length_c 13.45500
_cell_angle_alpha 85.39000
_cell_angle_beta  89.00000
_cell_angle_gamma 77.26000

_symmetry_space_group_name_	'P 1'
_symmetry_space_group_name_H-M	'P 1'

loop_
_symmetry_equiv_pos_as_xyz
  x,y,z

loop_
_atom_site_label
_atom_site_type_symbol
_atom_site_fract_x
_atom_site_fract_y
_atom_site_fract_z
_atom_site_charge
Yb	Yb	0.08102 0.19330 0.50264 1.52900
Yb	Yb	0.46699 0.23244 0.92284 1.45400
O 	O 	0.06320 0.13820 0.33580 -0.35700
O 	O 	0.16990 0.09330 0.18740 -0.26600
O 	O 	0.46150 0.18590 0.09010 -0.46800
O 	O 	0.53810 0.96640 0.13450 -0.52000
O 	O 	0.84120 0.03730 0.49250 -0.47800
O 	O 	0.80740 0.25760 0.46020 -0.37400
O 	O 	0.56070 0.19070 0.61390 -0.26000
O 	O 	0.29820 0.20710 0.59880 -0.39800
O 	O 	0.99340 0.37940 0.59680 -0.36400
O 	O 	0.94030 0.60440 0.59580 -0.34400
O 	O 	0.33360 0.44940 0.95760 -0.37900
O 	O 	0.35460 0.63990 0.02480 -0.37400
N 	N 	0.32810 0.16220 0.41030 -0.18900
C 	C 	0.17700 0.12270 0.27350 0.29700
C 	C 	0.33310 0.13630 0.31440 0.03500
C 	C 	0.47400 0.11730 0.26040 -0.12500
C 	C 	0.61380 0.12360 0.30930 0.06000
H 	H 	0.70980 0.11030 0.27550 0.01900
C 	C 	0.60580 0.15010 0.40930 -0.11100
C 	C 	0.46040 0.16920 0.45710 0.02300
C 	C 	0.43840 0.19160 0.56670 0.29500
C 	C 	0.48900 0.08810 0.15280 0.44400
C 	C 	0.75960 0.14920 0.45970 0.38100
C 	C 	0.98210 0.49370 0.55630 0.24200
C 	C 	0.41070 0.52550 0.99550 0.22900
Yb	Yb	0.91898 0.80670 0.49736 1.52800
Yb	Yb	0.53301 0.76756 0.07716 1.45300
O 	O 	0.93680 0.86180 0.66420 -0.35700
O 	O 	0.83010 0.90670 0.81260 -0.26600
O 	O 	0.53850 0.81410 0.90990 -0.46800
O 	O 	0.46190 0.03360 0.86550 -0.52000
O 	O 	0.15880 0.96270 0.50750 -0.47800
O 	O 	0.19260 0.74240 0.53980 -0.37400
O 	O 	0.43930 0.80930 0.38610 -0.26000
O 	O 	0.70180 0.79290 0.40120 -0.39800
O 	O 	0.00660 0.62060 0.40320 -0.36400
O 	O 	0.05970 0.39560 0.40420 -0.34400
O 	O 	0.66640 0.55060 0.04240 -0.37900
O 	O 	0.64540 0.36010 0.97520 -0.37400
N 	N 	0.67190 0.83780 0.58970 -0.18900
C 	C 	0.82300 0.87730 0.72650 0.29700
C 	C 	0.66690 0.86370 0.68560 0.03500
C 	C 	0.52600 0.88270 0.73960 -0.12500
C 	C 	0.38620 0.87640 0.69070 0.06000
H 	H 	0.29020 0.88970 0.72450 0.01900
C 	C 	0.39420 0.84990 0.59070 -0.11100
C 	C 	0.53960 0.83080 0.54290 0.02300
C 	C 	0.56160 0.80840 0.43330 0.29500
C 	C 	0.51100 0.91190 0.84720 0.44400
C 	C 	0.24040 0.85080 0.54030 0.38100
C 	C 	0.01790 0.50630 0.44370 0.24200
C 	C 	0.58930 0.47450 0.00450 0.22900
