data_crystal

_cell_length_a 8.23670
_cell_length_b 9.16640
_cell_length_c 17.55000
_cell_angle_alpha 90.00000
_cell_angle_beta  90.00000
_cell_angle_gamma 90.00000

_symmetry_space_group_name_	'P 1'
_symmetry_space_group_name_H-M	'P 1'

loop_
_symmetry_equiv_pos_as_xyz
  x,y,z

loop_
_atom_site_label
_atom_site_type_symbol
_atom_site_fract_x
_atom_site_fract_y
_atom_site_fract_z
_atom_site_charge
Al	Al	0.86075 0.13091 0.93403 2.38800
Al	Al	0.94224 0.08437 0.16659 2.39800
Al	Al	0.93968 0.58575 0.03164 2.39900
P 	P 	0.06417 0.41440 0.17325 0.88500
P 	P 	0.06985 0.90793 0.02627 0.86700
P 	P 	0.13346 0.36723 0.92880 0.77300
O 	O 	0.00410 0.26360 0.89910 -0.75200
O 	O 	0.23890 0.42080 0.14760 -0.79800
O 	O 	0.96130 0.96620 0.96390 -0.81600
O 	O 	0.23840 0.29540 0.98930 -0.85800
O 	O 	0.00900 0.25810 0.18220 -0.83400
O 	O 	0.04620 0.48850 0.24900 -0.78800
O 	O 	0.06390 0.00490 0.09740 -0.82800
O 	O 	0.23560 0.41320 0.86020 -0.74200
O 	O 	0.05460 0.50510 0.96040 -0.82500
O 	O 	0.01530 0.75810 0.05060 -0.81000
O 	O 	0.24360 0.90070 0.99780 -0.82600
O 	O 	0.95220 0.48580 0.11530 -0.83000
Al	Al	0.63925 0.86909 0.43403 2.38700
Al	Al	0.55776 0.91563 0.66659 2.39800
Al	Al	0.56032 0.41425 0.53164 2.39900
P 	P 	0.43583 0.58560 0.67325 0.88500
P 	P 	0.43015 0.09207 0.52627 0.87200
P 	P 	0.36654 0.63277 0.42880 0.77300
O 	O 	0.49590 0.73640 0.39910 -0.75700
O 	O 	0.26110 0.57920 0.64760 -0.79900
O 	O 	0.53870 0.03380 0.46390 -0.81500
O 	O 	0.26160 0.70460 0.48930 -0.86200
O 	O 	0.49100 0.74190 0.68220 -0.83600
O 	O 	0.45380 0.51150 0.74900 -0.78700
O 	O 	0.43610 0.99510 0.59740 -0.83700
O 	O 	0.26440 0.58680 0.36020 -0.74300
O 	O 	0.44540 0.49490 0.46040 -0.82600
O 	O 	0.48470 0.24190 0.55060 -0.81000
O 	O 	0.25640 0.09930 0.49780 -0.82000
O 	O 	0.54780 0.51420 0.61530 -0.83000
Al	Al	0.13925 0.63091 0.56597 2.38700
Al	Al	0.05776 0.58437 0.33341 2.39800
Al	Al	0.06032 0.08575 0.46836 2.39900
P 	P 	0.93583 0.91440 0.32675 0.89200
P 	P 	0.93015 0.40793 0.47373 0.87200
P 	P 	0.86654 0.86723 0.57120 0.77500
O 	O 	0.99590 0.76360 0.60090 -0.75300
O 	O 	0.76110 0.92080 0.35240 -0.79800
O 	O 	0.03870 0.46620 0.53610 -0.81800
O 	O 	0.76160 0.79540 0.51070 -0.86000
O 	O 	0.99100 0.75810 0.31780 -0.83300
O 	O 	0.95380 0.98850 0.25100 -0.78400
O 	O 	0.93610 0.50490 0.40260 -0.83100
O 	O 	0.76440 0.91320 0.63980 -0.74300
O 	O 	0.94540 0.00510 0.53960 -0.82700
O 	O 	0.98470 0.25810 0.44940 -0.80900
O 	O 	0.75640 0.40070 0.50220 -0.82100
O 	O 	0.04780 0.98580 0.38470 -0.84000
Al	Al	0.36075 0.36909 0.06597 2.38700
Al	Al	0.44224 0.41563 0.83341 2.39800
Al	Al	0.43968 0.91425 0.96836 2.39800
P 	P 	0.56417 0.08560 0.82675 0.88500
P 	P 	0.56985 0.59207 0.97373 0.86700
P 	P 	0.63346 0.13277 0.07120 0.77200
O 	O 	0.50410 0.23640 0.10090 -0.75600
O 	O 	0.73890 0.07920 0.85240 -0.79900
O 	O 	0.46130 0.53380 0.03610 -0.81400
O 	O 	0.73840 0.20460 0.01070 -0.86100
O 	O 	0.50900 0.24190 0.81780 -0.83500
O 	O 	0.54620 0.01150 0.75100 -0.78500
O 	O 	0.56390 0.49510 0.90260 -0.83200
O 	O 	0.73560 0.08680 0.13980 -0.74400
O 	O 	0.55460 0.99490 0.03960 -0.82400
O 	O 	0.51530 0.74190 0.94940 -0.81200
O 	O 	0.74360 0.59930 0.00220 -0.81900
O 	O 	0.45220 0.01420 0.88470 -0.82700
