data_crystal

_cell_length_a 8.79940
_cell_length_b 8.80390
_cell_length_c 53.88800
_cell_angle_alpha 90.00000
_cell_angle_beta  90.00000
_cell_angle_gamma 90.11100

_symmetry_space_group_name_	'P 1'
_symmetry_space_group_name_H-M	'P 1'

loop_
_symmetry_equiv_pos_as_xyz
  x,y,z

loop_
_atom_site_label
_atom_site_type_symbol
_atom_site_fract_x
_atom_site_fract_y
_atom_site_fract_z
_atom_site_charge
Zn	Zn	0.73435 0.82303 0.74649 1.22000
Zn	Zn	0.77244 0.78812 0.80212 1.21900
Zn	Zn	0.43161 0.66286 0.54848 1.22400
Zn	Zn	0.60378 0.37088 0.99407 1.22400
Zn	Zn	0.26565 0.17697 0.24649 1.22000
Zn	Zn	0.22756 0.21188 0.30212 1.21800
Zn	Zn	0.56839 0.33714 0.04848 1.22300
Zn	Zn	0.39622 0.62912 0.49407 1.22300
H 	H 	0.87300 0.06190 0.70690 0.08700
H 	H 	0.72290 0.10200 0.72100 0.07400
H 	H 	0.65160 0.28240 0.69150 0.10500
H 	H 	0.82800 0.30910 0.69360 0.10000
H 	H 	0.86890 0.15290 0.65970 0.00500
H 	H 	0.66890 0.05610 0.63580 0.01600
H 	H 	0.54420 0.58820 0.67090 0.07900
H 	H 	0.61270 0.61890 0.71170 0.01000
H 	H 	0.61500 0.53560 0.58970 -0.00300
H 	H 	0.68100 0.58710 0.62990 0.10000
H 	H 	0.39930 0.94530 0.62820 0.10200
H 	H 	0.35070 0.89170 0.58740 -0.00800
H 	H 	0.77010 0.31720 0.63370 0.23200
H 	H 	0.49500 0.22530 0.64610 0.23000
H 	H 	0.99700 0.92920 0.85060 0.09900
H 	H 	0.02250 0.81440 0.82870 0.07700
H 	H 	0.19290 0.65800 0.85540 0.09900
H 	H 	0.25710 0.82590 0.85570 0.08800
H 	H 	0.09490 0.87600 0.89220 -0.00800
H 	H 	0.99110 0.64720 0.91120 0.01300
H 	H 	0.52960 0.55600 0.87450 0.08600
H 	H 	0.58080 0.61780 0.83270 0.00600
H 	H 	0.53010 0.62050 0.96070 -0.00300
H 	H 	0.51380 0.66380 0.91710 0.09500
H 	H 	0.85980 0.36540 0.91160 0.10700
H 	H 	0.76620 0.25870 0.94850 -0.00400
H 	H 	0.25550 0.73570 0.91440 0.22700
H 	H 	0.13710 0.46520 0.89560 0.23300
H 	H 	0.25970 0.79090 0.79770 0.10700
H 	H 	0.24220 0.81360 0.74670 0.10400
H 	H 	0.73850 0.29800 0.80190 0.10600
H 	H 	0.76530 0.30990 0.75080 0.11700
H 	H 	0.91470 0.64610 0.54630 0.10000
H 	H 	0.91230 0.63310 0.49620 0.11900
H 	H 	0.41810 0.14350 0.49630 0.11100
H 	H 	0.41850 0.14760 0.54710 0.10300
H 	H 	0.12700 0.93810 0.20690 0.08700
H 	H 	0.27710 0.89800 0.22100 0.07400
H 	H 	0.34840 0.71760 0.19150 0.10500
H 	H 	0.17200 0.69090 0.19360 0.10000
H 	H 	0.13110 0.84710 0.15970 0.00500
H 	H 	0.33110 0.94390 0.13580 0.01600
H 	H 	0.45580 0.41180 0.17090 0.07900
H 	H 	0.38730 0.38110 0.21170 0.01000
H 	H 	0.38500 0.46440 0.08970 -0.00300
H 	H 	0.31900 0.41290 0.12990 0.10000
H 	H 	0.60070 0.05470 0.12820 0.10200
H 	H 	0.64930 0.10830 0.08740 -0.00800
H 	H 	0.22990 0.68280 0.13370 0.23200
H 	H 	0.50500 0.77470 0.14610 0.23000
H 	H 	0.00300 0.07080 0.35060 0.09900
H 	H 	0.97750 0.18560 0.32870 0.07700
H 	H 	0.80710 0.34200 0.35540 0.09900
H 	H 	0.74290 0.17410 0.35570 0.08800
H 	H 	0.90510 0.12400 0.39220 -0.00800
H 	H 	0.00890 0.35280 0.41120 0.01300
H 	H 	0.47040 0.44400 0.37450 0.08600
H 	H 	0.41920 0.38220 0.33270 0.00600
H 	H 	0.46990 0.37950 0.46070 -0.00300
H 	H 	0.48620 0.33620 0.41710 0.09500
H 	H 	0.14020 0.63460 0.41160 0.10700
H 	H 	0.23380 0.74130 0.44850 -0.00400
H 	H 	0.74450 0.26430 0.41440 0.22700
H 	H 	0.86290 0.53480 0.39560 0.23300
H 	H 	0.74030 0.20910 0.29770 0.10700
H 	H 	0.75780 0.18640 0.24670 0.10400
H 	H 	0.26150 0.70200 0.30190 0.10600
H 	H 	0.23470 0.69010 0.25080 0.11700
H 	H 	0.08530 0.35390 0.04630 0.10000
H 	H 	0.08770 0.36690 0.99620 0.11900
H 	H 	0.58190 0.85650 0.99630 0.11100
H 	H 	0.58150 0.85240 0.04710 0.10300
C 	C 	0.69150 0.95250 0.69368 0.09200
C 	C 	0.76600 0.08450 0.70472 -0.15100
C 	C 	0.75040 0.23680 0.68872 -0.16700
C 	C 	0.76820 0.19780 0.66214 0.13700
C 	C 	0.64730 0.08410 0.65307 0.08700
C 	C 	0.64520 0.94170 0.66902 -0.06000
C 	C 	0.58910 0.80450 0.65994 0.02600
C 	C 	0.58020 0.68170 0.67638 -0.10700
C 	C 	0.62500 0.69960 0.70071 0.06300
C 	C 	0.57250 0.61950 0.59751 0.09000
C 	C 	0.61200 0.64920 0.62168 -0.15700
C 	C 	0.54680 0.77520 0.63396 0.08900
C 	C 	0.44640 0.86280 0.62069 -0.16400
C 	C 	0.41550 0.82800 0.59624 0.10000
C 	C 	0.88740 0.73410 0.85506 0.15000
C 	C 	0.01330 0.82300 0.84650 -0.22400
C 	C 	0.17090 0.76220 0.86000 -0.14300
C 	C 	0.13150 0.77530 0.88730 0.12900
C 	C 	0.01710 0.64170 0.89360 0.08000
C 	C 	0.87370 0.67270 0.87847 -0.07300
C 	C 	0.74400 0.60040 0.88584 0.04800
C 	C 	0.62420 0.59250 0.86950 -0.12000
C 	C 	0.65070 0.64200 0.84500 0.07300
C 	C 	0.58100 0.55790 0.94960 0.09000
C 	C 	0.58630 0.60210 0.92460 -0.14900
C 	C 	0.71700 0.54120 0.91170 0.08100
C 	C 	0.78330 0.41360 0.92057 -0.15300
C 	C 	0.73420 0.35480 0.94363 0.09700
C 	C 	0.46100 0.80190 0.77840 0.39000
C 	C 	0.29870 0.79910 0.78180 -0.15000
C 	C 	0.20230 0.80810 0.76263 -0.13100
C 	C 	0.03650 0.80960 0.76560 0.37200
C 	C 	0.75540 0.08820 0.78397 0.40200
C 	C 	0.74880 0.25610 0.78617 -0.11100
C 	C 	0.75680 0.35080 0.76670 -0.17300
C 	C 	0.75270 0.51460 0.76951 0.45800
C 	C 	0.13340 0.64180 0.52795 0.44700
C 	C 	0.95710 0.64300 0.53051 -0.10400
C 	C 	0.86940 0.63990 0.51189 -0.16100
C 	C 	0.70170 0.64650 0.51393 0.43500
C 	C 	0.40340 0.93050 0.51426 0.44100
C 	C 	0.41350 0.10060 0.51209 -0.15000
C 	C 	0.41600 0.19050 0.53136 -0.11800
C 	C 	0.41510 0.35760 0.52906 0.37500
C 	C 	0.30850 0.04750 0.19368 0.09200
C 	C 	0.23400 0.91550 0.20472 -0.15100
C 	C 	0.24960 0.76320 0.18872 -0.16700
C 	C 	0.23180 0.80220 0.16214 0.13700
C 	C 	0.35270 0.91590 0.15307 0.08700
C 	C 	0.35480 0.05830 0.16902 -0.06000
C 	C 	0.41090 0.19550 0.15994 0.02600
C 	C 	0.41980 0.31830 0.17638 -0.10700
C 	C 	0.37500 0.30040 0.20071 0.06300
C 	C 	0.42750 0.38050 0.09751 0.09000
C 	C 	0.38800 0.35080 0.12168 -0.15700
C 	C 	0.45320 0.22480 0.13396 0.08900
C 	C 	0.55360 0.13720 0.12069 -0.16400
C 	C 	0.58450 0.17200 0.09624 0.10000
C 	C 	0.11260 0.26590 0.35506 0.15000
C 	C 	0.98670 0.17700 0.34650 -0.22400
C 	C 	0.82910 0.23780 0.36000 -0.14300
C 	C 	0.86850 0.22470 0.38730 0.12900
C 	C 	0.98290 0.35830 0.39360 0.08000
C 	C 	0.12630 0.32730 0.37847 -0.07300
C 	C 	0.25600 0.39960 0.38584 0.04800
C 	C 	0.37580 0.40750 0.36950 -0.12000
C 	C 	0.34930 0.35800 0.34500 0.07300
C 	C 	0.41900 0.44210 0.44960 0.09000
C 	C 	0.41370 0.39790 0.42460 -0.14900
C 	C 	0.28300 0.45880 0.41170 0.08100
C 	C 	0.21670 0.58640 0.42057 -0.15300
C 	C 	0.26580 0.64520 0.44363 0.09700
C 	C 	0.53900 0.19810 0.27840 0.39000
C 	C 	0.70130 0.20090 0.28180 -0.15000
C 	C 	0.79770 0.19190 0.26263 -0.13100
C 	C 	0.96350 0.19040 0.26560 0.37200
C 	C 	0.24460 0.91180 0.28397 0.40200
C 	C 	0.25120 0.74390 0.28617 -0.11100
C 	C 	0.24320 0.64920 0.26670 -0.17300
C 	C 	0.24730 0.48540 0.26951 0.45800
C 	C 	0.86660 0.35820 0.02795 0.44800
C 	C 	0.04290 0.35700 0.03051 -0.10400
C 	C 	0.13060 0.36010 0.01189 -0.16100
C 	C 	0.29830 0.35350 0.01393 0.43500
C 	C 	0.59660 0.06950 0.01426 0.44200
C 	C 	0.58650 0.89940 0.01209 -0.15000
C 	C 	0.58400 0.80950 0.03136 -0.11800
C 	C 	0.58490 0.64240 0.02906 0.37500
N 	N 	0.68580 0.82930 0.70912 -0.24700
N 	N 	0.47390 0.70770 0.58456 -0.25600
N 	N 	0.77280 0.72270 0.83916 -0.25700
N 	N 	0.64430 0.43280 0.95835 -0.25500
N 	N 	0.31420 0.17070 0.20912 -0.24700
N 	N 	0.52610 0.29230 0.08456 -0.25600
N 	N 	0.22720 0.27730 0.33916 -0.25700
N 	N 	0.35570 0.56720 0.45835 -0.25500
O 	O 	0.76050 0.33540 0.64851 -0.39100
O 	O 	0.49870 0.14780 0.65457 -0.35500
O 	O 	0.26720 0.73130 0.89930 -0.39000
O 	O 	0.06020 0.48740 0.88780 -0.36100
O 	O 	0.51760 0.79300 0.75636 -0.45500
O 	O 	0.53910 0.80700 0.79806 -0.45100
O 	O 	0.95800 0.84300 0.74582 -0.44900
O 	O 	0.97730 0.78700 0.78629 -0.47600
O 	O 	0.72410 0.03130 0.76339 -0.46100
O 	O 	0.77920 0.01550 0.80374 -0.43900
O 	O 	0.75730 0.59240 0.75027 -0.47100
O 	O 	0.75290 0.56890 0.79053 -0.47600
O 	O 	0.20320 0.65260 0.54702 -0.49400
O 	O 	0.18050 0.63590 0.50674 -0.49500
O 	O 	0.64810 0.65310 0.53526 -0.47500
O 	O 	0.62620 0.64060 0.49452 -0.46800
O 	O 	0.41820 0.87710 0.53522 -0.48800
O 	O 	0.39700 0.85840 0.49462 -0.47100
O 	O 	0.43520 0.43330 0.54888 -0.44300
O 	O 	0.41100 0.41580 0.50730 -0.45900
O 	O 	0.23950 0.66460 0.14851 -0.39100
O 	O 	0.50130 0.85220 0.15457 -0.35500
O 	O 	0.73280 0.26870 0.39930 -0.39000
O 	O 	0.93980 0.51260 0.38780 -0.36100
O 	O 	0.48240 0.20700 0.25636 -0.45500
O 	O 	0.46090 0.19300 0.29806 -0.45100
O 	O 	0.04200 0.15700 0.24582 -0.44900
O 	O 	0.02270 0.21300 0.28629 -0.47600
O 	O 	0.27590 0.96870 0.26339 -0.46100
O 	O 	0.22080 0.98450 0.30374 -0.43900
O 	O 	0.24270 0.40760 0.25027 -0.47100
O 	O 	0.24710 0.43110 0.29053 -0.47600
O 	O 	0.79680 0.34740 0.04702 -0.49400
O 	O 	0.81950 0.36410 0.00674 -0.49500
O 	O 	0.35190 0.34690 0.03526 -0.47500
O 	O 	0.37380 0.35940 0.99452 -0.46800
O 	O 	0.58180 0.12290 0.03522 -0.48800
O 	O 	0.60300 0.14160 0.99462 -0.47200
O 	O 	0.56480 0.56670 0.04888 -0.44300
O 	O 	0.58900 0.58420 0.00730 -0.45900
