data_crystal

_cell_length_a 13.24400
_cell_length_b 14.52100
_cell_length_c 15.69500
_cell_angle_alpha 90.00000
_cell_angle_beta  92.74600
_cell_angle_gamma 90.00000

_symmetry_space_group_name_	'P 1'
_symmetry_space_group_name_H-M	'P 1'

loop_
_symmetry_equiv_pos_as_xyz
  x,y,z

loop_
_atom_site_label
_atom_site_type_symbol
_atom_site_fract_x
_atom_site_fract_y
_atom_site_fract_z
_atom_site_charge
Cu	Cu	0.52973 0.20030 0.39005 0.86500
C 	C 	0.82470 0.85270 0.12660 0.10100
H 	H 	0.84640 0.86980 0.07340 -0.01800
C 	C 	0.75840 0.91020 0.16530 -0.14300
H 	H 	0.73780 0.96530 0.13970 0.09400
C 	C 	0.72350 0.88460 0.24250 0.06600
C 	C 	0.75870 0.80210 0.27830 -0.12900
H 	H 	0.73690 0.78270 0.33080 0.09200
C 	C 	0.82600 0.74970 0.23530 0.08400
H 	H 	0.84910 0.69480 0.25950 0.00400
C 	C 	0.65580 0.94320 0.29060 0.12800
C 	C 	0.09100 0.82670 0.21610 0.13000
H 	H 	0.05810 0.87050 0.18160 -0.04100
C 	C 	0.16430 0.85730 0.27580 -0.18300
H 	H 	0.18450 0.91870 0.27640 0.10900
C 	C 	0.20530 0.79810 0.33220 0.10200
C 	C 	0.17420 0.70920 0.32640 -0.16700
H 	H 	0.19880 0.66590 0.36590 0.09300
C 	C 	0.10570 0.68330 0.26130 0.10500
H 	H 	0.08710 0.62170 0.25670 -0.02000
C 	C 	0.28320 0.82820 0.39700 0.08500
N 	N 	0.85940 0.77520 0.15950 -0.23300
N 	N 	0.63340 0.03100 0.27080 -0.11800
N 	N 	0.57630 0.05870 0.33420 -0.13800
N 	N 	0.56560 0.98950 0.38700 -0.12300
N 	N 	0.61430 0.91590 0.36200 -0.09200
N 	N 	0.06580 0.74270 0.20550 -0.26000
N 	N 	0.33140 0.90780 0.39390 -0.08200
N 	N 	0.39420 0.90540 0.46200 -0.13600
N 	N 	0.38360 0.82840 0.50400 -0.15300
N 	N 	0.31270 0.77630 0.46410 -0.09500
N 	N 	0.42000 0.13130 0.44190 -0.24300
N 	N 	0.33980 0.15310 0.44370 -0.03800
N 	N 	0.25090 0.16290 0.43340 -0.08500
Cu	Cu	0.97027 0.70030 0.10995 0.88000
C 	C 	0.67530 0.35270 0.37340 0.10200
H 	H 	0.65360 0.36980 0.42660 -0.01800
C 	C 	0.74160 0.41020 0.33470 -0.15100
H 	H 	0.76220 0.46530 0.36030 0.09400
C 	C 	0.77650 0.38460 0.25750 0.07300
C 	C 	0.74130 0.30210 0.22170 -0.13800
H 	H 	0.76310 0.28270 0.16920 0.08500
C 	C 	0.67400 0.24970 0.26470 0.08200
H 	H 	0.65090 0.19480 0.24050 -0.00600
C 	C 	0.84420 0.44320 0.20940 0.09300
C 	C 	0.40900 0.32670 0.28390 0.12300
H 	H 	0.44190 0.37050 0.31840 -0.03200
C 	C 	0.33570 0.35730 0.22420 -0.17600
H 	H 	0.31550 0.41870 0.22360 0.09900
C 	C 	0.29470 0.29810 0.16780 0.09000
C 	C 	0.32580 0.20920 0.17360 -0.16100
H 	H 	0.30120 0.16590 0.13410 0.08000
C 	C 	0.39430 0.18330 0.23870 0.09900
H 	H 	0.41290 0.12170 0.24330 -0.01800
C 	C 	0.21680 0.32820 0.10300 0.07800
N 	N 	0.64060 0.27520 0.34050 -0.23700
N 	N 	0.86660 0.53100 0.22920 -0.08800
N 	N 	0.92370 0.55870 0.16580 -0.11500
N 	N 	0.93440 0.48950 0.11300 -0.14200
N 	N 	0.88570 0.41590 0.13800 -0.09300
N 	N 	0.43420 0.24270 0.29450 -0.24800
N 	N 	0.16860 0.40780 0.10610 -0.09400
N 	N 	0.10580 0.40540 0.03800 -0.17000
N 	N 	0.11640 0.32840 0.99600 -0.13000
N 	N 	0.18730 0.27630 0.03590 -0.12000
N 	N 	0.08000 0.63130 0.05810 -0.25600
N 	N 	0.16020 0.65310 0.05630 -0.04000
N 	N 	0.24910 0.66290 0.06660 -0.08100
Cu	Cu	0.47027 0.79970 0.60995 0.86900
C 	C 	0.17530 0.14730 0.87340 0.10200
H 	H 	0.15360 0.13020 0.92660 -0.02100
C 	C 	0.24160 0.08980 0.83470 -0.16100
H 	H 	0.26220 0.03470 0.86030 0.08600
C 	C 	0.27650 0.11540 0.75750 0.08100
C 	C 	0.24130 0.19790 0.72170 -0.14700
H 	H 	0.26310 0.21730 0.66920 0.09100
C 	C 	0.17400 0.25030 0.76470 0.08400
H 	H 	0.15090 0.30520 0.74050 -0.00800
C 	C 	0.34420 0.05680 0.70940 0.05500
C 	C 	0.90900 0.17330 0.78390 0.12700
H 	H 	0.94190 0.12950 0.81840 -0.02100
C 	C 	0.83570 0.14270 0.72420 -0.16900
H 	H 	0.81550 0.08130 0.72360 0.09800
C 	C 	0.79470 0.20190 0.66780 0.09400
C 	C 	0.82580 0.29080 0.67360 -0.15300
H 	H 	0.80120 0.33410 0.63410 0.09600
C 	C 	0.89430 0.31670 0.73870 0.10500
H 	H 	0.91290 0.37830 0.74330 0.00200
C 	C 	0.71680 0.17180 0.60300 0.08800
N 	N 	0.14060 0.22480 0.84050 -0.24000
N 	N 	0.36660 0.96900 0.72920 -0.06300
N 	N 	0.42370 0.94130 0.66580 -0.10300
N 	N 	0.43440 0.01050 0.61300 -0.17000
N 	N 	0.38570 0.08410 0.63800 -0.08900
N 	N 	0.93420 0.25730 0.79450 -0.23500
N 	N 	0.66860 0.09220 0.60610 -0.09400
N 	N 	0.60580 0.09460 0.53800 -0.15000
N 	N 	0.61640 0.17160 0.49600 -0.15600
N 	N 	0.68730 0.22370 0.53590 -0.09500
N 	N 	0.58000 0.86870 0.55810 -0.22900
N 	N 	0.66020 0.84690 0.55630 -0.03100
N 	N 	0.74910 0.83710 0.56660 -0.05900
Cu	Cu	0.02973 0.29970 0.89005 0.85400
C 	C 	0.32470 0.64730 0.62660 0.10200
H 	H 	0.34640 0.63020 0.57340 -0.02000
C 	C 	0.25840 0.58980 0.66530 -0.15200
H 	H 	0.23780 0.53470 0.63970 0.08800
C 	C 	0.22350 0.61540 0.74250 0.07400
C 	C 	0.25870 0.69790 0.77830 -0.13800
H 	H 	0.23690 0.71730 0.83080 0.09800
C 	C 	0.32600 0.75030 0.73530 0.08600
H 	H 	0.34910 0.80520 0.75950 0.00300
C 	C 	0.15580 0.55680 0.79060 0.09100
C 	C 	0.59100 0.67330 0.71610 0.13300
H 	H 	0.55810 0.62950 0.68160 -0.03200
C 	C 	0.66430 0.64270 0.77580 -0.17700
H 	H 	0.68450 0.58130 0.77640 0.10800
C 	C 	0.70530 0.70190 0.83220 0.10700
C 	C 	0.67420 0.79080 0.82640 -0.15900
H 	H 	0.69880 0.83410 0.86590 0.10900
C 	C 	0.60570 0.81670 0.76130 0.11100
H 	H 	0.58710 0.87830 0.75670 -0.00100
C 	C 	0.78320 0.67180 0.89700 0.09400
N 	N 	0.35940 0.72480 0.65950 -0.23600
N 	N 	0.13340 0.46900 0.77080 -0.09400
N 	N 	0.07630 0.44130 0.83420 -0.12700
N 	N 	0.06560 0.51050 0.88700 -0.14600
N 	N 	0.11430 0.58410 0.86200 -0.08800
N 	N 	0.56580 0.75730 0.70550 -0.24800
N 	N 	0.83140 0.59220 0.89390 -0.08100
N 	N 	0.89420 0.59460 0.96200 -0.11000
N 	N 	0.88360 0.67160 0.00400 -0.18100
N 	N 	0.81270 0.72370 0.96410 -0.06900
N 	N 	0.92000 0.36870 0.94190 -0.21200
N 	N 	0.83980 0.34690 0.94370 -0.02800
N 	N 	0.75090 0.33710 0.93340 -0.06200
Cu	Cu	0.50000 0.00000 0.50000 0.85500
Cu	Cu	-0.00000 0.50000 -0.00000 0.83900
