data_crystal

_cell_length_a 13.59800
_cell_length_b 15.09500
_cell_length_c 15.25100
_cell_angle_alpha 90.00000
_cell_angle_beta  93.61300
_cell_angle_gamma 90.00000

_symmetry_space_group_name_	'P 1'
_symmetry_space_group_name_H-M	'P 1'

loop_
_symmetry_equiv_pos_as_xyz
  x,y,z

loop_
_atom_site_label
_atom_site_type_symbol
_atom_site_fract_x
_atom_site_fract_y
_atom_site_fract_z
_atom_site_charge
Cu	Cu	0.05454 0.81385 0.39589 0.85400
C 	C 	0.31700 0.15850 0.12210 0.09000
H 	H 	0.33910 0.14290 0.06770 -0.03100
C 	C 	0.25810 0.09980 0.16390 -0.15700
H 	H 	0.24140 0.04560 0.13810 0.07300
C 	C 	0.22410 0.12210 0.24430 0.07500
C 	C 	0.25140 0.20270 0.27940 -0.15100
H 	H 	0.22950 0.22020 0.33330 0.09100
C 	C 	0.31070 0.25710 0.23490 0.08400
H 	H 	0.32930 0.31110 0.26010 -0.00700
C 	C 	0.16280 0.06190 0.29350 0.05500
C 	C 	0.58020 0.18670 0.19300 0.10700
H 	H 	0.55630 0.15000 0.14760 -0.03400
C 	C 	0.65040 0.15390 0.25300 -0.15900
H 	H 	0.67490 0.09680 0.24710 0.08900
C 	C 	0.68360 0.20660 0.32180 0.08500
C 	C 	0.64510 0.28910 0.32650 -0.15700
H 	H 	0.66480 0.32580 0.37330 0.09500
C 	C 	0.57800 0.31860 0.26350 0.10300
H 	H 	0.55410 0.37620 0.26740 -0.01000
C 	C 	0.76110 0.17270 0.38650 0.09000
N 	N 	0.34360 0.23640 0.15600 -0.24000
N 	N 	0.14990 0.97640 0.27530 -0.07300
N 	N 	0.09220 0.94790 0.33750 -0.11800
N 	N 	0.07310 0.01410 0.38980 -0.17500
N 	N 	0.11650 0.08690 0.36430 -0.09000
N 	N 	0.54520 0.26800 0.19670 -0.24000
N 	N 	0.80790 0.09620 0.37780 -0.08900
N 	N 	0.86960 0.09170 0.44820 -0.11300
N 	N 	0.86060 0.16480 0.49500 -0.15600
N 	N 	0.79090 0.21710 0.45800 -0.09600
N 	N 	0.94800 0.88290 0.45030 -0.23700
N 	N 	0.86420 0.86370 0.44490 -0.03500
N 	N 	0.78200 0.84330 0.43910 -0.06200
Cu	Cu	0.44546 0.31385 0.10411 0.85900
C 	C 	0.18300 0.65850 0.37790 0.08900
H 	H 	0.16090 0.64290 0.43230 -0.02000
C 	C 	0.24190 0.59980 0.33610 -0.14700
H 	H 	0.25860 0.54560 0.36190 0.08600
C 	C 	0.27590 0.62210 0.25570 0.06900
C 	C 	0.24860 0.70270 0.22060 -0.14300
H 	H 	0.27050 0.72020 0.16670 0.08700
C 	C 	0.18930 0.75710 0.26510 0.08200
H 	H 	0.17070 0.81110 0.23990 -0.00800
C 	C 	0.33720 0.56190 0.20650 0.08800
C 	C 	0.91980 0.68670 0.30700 0.10900
H 	H 	0.94370 0.65000 0.35240 -0.01400
C 	C 	0.84960 0.65390 0.24700 -0.15200
H 	H 	0.82510 0.59680 0.25290 0.09800
C 	C 	0.81640 0.70660 0.17820 0.08400
C 	C 	0.85490 0.78910 0.17350 -0.15000
H 	H 	0.83520 0.82580 0.12670 0.09300
C 	C 	0.92200 0.81860 0.23650 0.10300
H 	H 	0.94590 0.87620 0.23260 0.00500
C 	C 	0.73890 0.67270 0.11350 0.09100
N 	N 	0.15640 0.73640 0.34400 -0.23700
N 	N 	0.35010 0.47640 0.22470 -0.09500
N 	N 	0.40780 0.44790 0.16250 -0.12900
N 	N 	0.42690 0.51410 0.11020 -0.15700
N 	N 	0.38350 0.58690 0.13570 -0.09400
N 	N 	0.95480 0.76800 0.30330 -0.22600
N 	N 	0.69210 0.59620 0.12220 -0.08500
N 	N 	0.63040 0.59170 0.05180 -0.12100
N 	N 	0.63940 0.66480 0.00500 -0.17300
N 	N 	0.70910 0.71710 0.04200 -0.10300
N 	N 	0.55200 0.38290 0.04970 -0.27300
N 	N 	0.63580 0.36370 0.05510 -0.04500
N 	N 	0.71800 0.34330 0.06090 -0.07700
Cu	Cu	0.94546 0.18615 0.60411 0.88200
C 	C 	0.68300 0.84150 0.87790 0.09800
H 	H 	0.66090 0.85710 0.93230 0.00100
C 	C 	0.74190 0.90020 0.83610 -0.13500
H 	H 	0.75860 0.95440 0.86190 0.10500
C 	C 	0.77590 0.87790 0.75570 0.07300
C 	C 	0.74860 0.79730 0.72060 -0.13600
H 	H 	0.77050 0.77980 0.66670 0.09700
C 	C 	0.68930 0.74290 0.76510 0.09100
H 	H 	0.67070 0.68890 0.73990 -0.00200
C 	C 	0.83720 0.93810 0.70650 0.12800
C 	C 	0.41980 0.81330 0.80700 0.11100
H 	H 	0.44370 0.85000 0.85240 -0.01500
C 	C 	0.34960 0.84610 0.74700 -0.15600
H 	H 	0.32510 0.90320 0.75290 0.10500
C 	C 	0.31640 0.79340 0.67820 0.08900
C 	C 	0.35490 0.71090 0.67350 -0.15800
H 	H 	0.33520 0.67420 0.62670 0.09400
C 	C 	0.42200 0.68140 0.73650 0.10500
H 	H 	0.44590 0.62380 0.73260 -0.01100
C 	C 	0.23890 0.82730 0.61350 0.09100
N 	N 	0.65640 0.76360 0.84400 -0.22800
N 	N 	0.85010 0.02360 0.72470 -0.11000
N 	N 	0.90780 0.05210 0.66250 -0.13300
N 	N 	0.92690 0.98590 0.61020 -0.11800
N 	N 	0.88350 0.91310 0.63570 -0.08400
N 	N 	0.45480 0.73200 0.80330 -0.23700
N 	N 	0.19210 0.90380 0.62220 -0.08100
N 	N 	0.13040 0.90830 0.55180 -0.11200
N 	N 	0.13940 0.83520 0.50500 -0.16100
N 	N 	0.20910 0.78290 0.54200 -0.09700
N 	N 	0.05200 0.11710 0.54970 -0.28000
N 	N 	0.13580 0.13630 0.55510 -0.04400
N 	N 	0.21800 0.15670 0.56090 -0.07700
Cu	Cu	0.55454 0.68615 0.89589 0.87800
C 	C 	0.81700 0.34150 0.62210 0.09900
H 	H 	0.83910 0.35710 0.56770 -0.01000
C 	C 	0.75810 0.40020 0.66390 -0.14500
H 	H 	0.74140 0.45440 0.63810 0.09200
C 	C 	0.72410 0.37790 0.74430 0.08000
C 	C 	0.75140 0.29730 0.77940 -0.14400
H 	H 	0.72950 0.27980 0.83330 0.10100
C 	C 	0.81070 0.24290 0.73490 0.09300
H 	H 	0.82930 0.18890 0.76010 -0.00100
C 	C 	0.66280 0.43810 0.79350 0.09500
C 	C 	0.08020 0.31330 0.69300 0.10900
H 	H 	0.05630 0.35000 0.64760 -0.03500
C 	C 	0.15040 0.34610 0.75300 -0.16400
H 	H 	0.17490 0.40320 0.74710 0.09700
C 	C 	0.18360 0.29340 0.82180 0.09100
C 	C 	0.14510 0.21090 0.82650 -0.16500
H 	H 	0.16480 0.17420 0.87330 0.09600
C 	C 	0.07800 0.18140 0.76350 0.10500
H 	H 	0.05410 0.12380 0.76740 -0.02500
C 	C 	0.26110 0.32730 0.88650 0.09000
N 	N 	0.84360 0.26360 0.65600 -0.23100
N 	N 	0.64990 0.52360 0.77530 -0.08900
N 	N 	0.59220 0.55210 0.83750 -0.12200
N 	N 	0.57310 0.48590 0.88980 -0.13900
N 	N 	0.61650 0.41310 0.86430 -0.08100
N 	N 	0.04520 0.23200 0.69670 -0.25100
N 	N 	0.30790 0.40380 0.87780 -0.08400
N 	N 	0.36960 0.40830 0.94820 -0.10600
N 	N 	0.36060 0.33520 0.99500 -0.14400
N 	N 	0.29090 0.28290 0.95800 -0.08900
N 	N 	0.44800 0.61710 0.95030 -0.24900
N 	N 	0.36420 0.63630 0.94490 -0.03500
N 	N 	0.28200 0.65670 0.93910 -0.06200
Cu	Cu	0.00000 0.00000 0.50000 0.84100
Cu	Cu	0.50000 0.50000 -0.00000 0.85400
