data_crystal

_cell_length_a 8.38000
_cell_length_b 20.96620
_cell_length_c 13.09990
_cell_angle_alpha 90.00000
_cell_angle_beta  95.03800
_cell_angle_gamma 90.00000

_symmetry_space_group_name_	'P 1'
_symmetry_space_group_name_H-M	'P 1'

loop_
_symmetry_equiv_pos_as_xyz
  x,y,z

loop_
_atom_site_label
_atom_site_type_symbol
_atom_site_fract_x
_atom_site_fract_y
_atom_site_fract_z
_atom_site_charge
Zn	Zn	0.63770 0.29106 0.85556 1.19100
O 	O 	0.34250 0.36570 0.27690 -0.24300
C 	C 	0.50120 0.48920 0.44870 0.03500
O 	O 	0.69020 0.52360 0.21530 -0.23000
O 	O 	0.73470 0.18800 0.22900 -0.45200
O 	O 	0.66490 0.08950 0.26600 -0.31700
O 	O 	0.75240 0.21270 0.90220 -0.45000
N 	N 	0.52160 0.44300 0.24930 -0.19200
N 	N 	0.61710 0.34750 0.97970 -0.29200
C 	C 	0.55540 0.41180 0.15560 0.22600
C 	C 	0.61040 0.49810 0.27620 0.22400
C 	C 	0.79530 0.10540 0.11560 -0.04900
C 	C 	0.42260 0.40910 0.31340 0.22100
C 	C 	0.59890 0.52290 0.38280 -0.05000
C 	C 	0.67850 0.57730 0.41460 -0.02600
H 	H 	0.73690 0.60000 0.36950 0.05200
C 	C 	0.41470 0.43390 0.41680 -0.06100
C 	C 	0.67160 0.59850 0.51520 -0.01600
H 	H 	0.72650 0.63540 0.53660 0.05400
C 	C 	0.72280 0.12930 0.21170 0.32900
C 	C 	0.67290 0.36500 0.15940 -0.23700
H 	H 	0.73200 0.35490 0.22070 0.12800
C 	C 	0.50490 0.39270 0.97730 0.12500
H 	H 	0.44770 0.40220 0.91510 -0.01800
C 	C 	0.69900 0.33440 0.07020 0.14300
H 	H 	0.77740 0.30300 0.07230 -0.02400
C 	C 	0.47000 0.42640 0.06400 -0.22000
H 	H 	0.39140 0.45790 0.06030 0.13200
S 	S 	0.89920 0.08877 0.93084 0.02800
S 	S 	0.90540 0.03528 0.14046 0.04100
C 	C 	0.79110 0.12910 0.02060 -0.04600
C 	C 	0.96000 0.02560 0.01450 -0.00900
O 	O 	0.57510 0.20280 0.01800 -0.31200
C 	C 	0.69600 0.18630 0.97940 0.32200
Zn	Zn	0.36230 0.79106 0.64444 1.19000
O 	O 	0.65750 0.86570 0.22310 -0.24400
C 	C 	0.49880 0.98920 0.05130 0.03100
O 	O 	0.30980 0.02360 0.28470 -0.22900
O 	O 	0.26530 0.68800 0.27100 -0.45300
O 	O 	0.33510 0.58950 0.23400 -0.31800
O 	O 	0.24760 0.71270 0.59780 -0.45200
N 	N 	0.47840 0.94300 0.25070 -0.19200
N 	N 	0.38290 0.84750 0.52030 -0.29200
C 	C 	0.44460 0.91180 0.34440 0.22600
C 	C 	0.38960 0.99810 0.22380 0.22000
C 	C 	0.20470 0.60540 0.38440 -0.04700
C 	C 	0.57740 0.90910 0.18660 0.22000
C 	C 	0.40110 0.02290 0.11720 -0.04600
C 	C 	0.32150 0.07730 0.08540 -0.02400
H 	H 	0.26310 0.10000 0.13050 0.05200
C 	C 	0.58530 0.93390 0.08320 -0.06000
C 	C 	0.32840 0.09850 0.98480 -0.01900
H 	H 	0.27350 0.13540 0.96340 0.05500
C 	C 	0.27720 0.62930 0.28830 0.32900
C 	C 	0.32710 0.86500 0.34060 -0.23700
H 	H 	0.26800 0.85490 0.27930 0.12800
C 	C 	0.49510 0.89270 0.52270 0.12500
H 	H 	0.55230 0.90220 0.58490 -0.01800
C 	C 	0.30100 0.83440 0.42980 0.14200
H 	H 	0.22260 0.80300 0.42770 -0.02400
C 	C 	0.53000 0.92640 0.43600 -0.22100
H 	H 	0.60860 0.95790 0.43970 0.13200
S 	S 	0.10080 0.58877 0.56916 0.03300
S 	S 	0.09460 0.53528 0.35954 0.04000
C 	C 	0.20890 0.62910 0.47940 -0.05100
C 	C 	0.04000 0.52560 0.48550 -0.01100
O 	O 	0.42490 0.70280 0.48200 -0.31500
C 	C 	0.30400 0.68630 0.52060 0.32700
Zn	Zn	0.36230 0.70894 0.14444 1.19000
O 	O 	0.65750 0.63430 0.72310 -0.24400
C 	C 	0.49880 0.51080 0.55130 0.03400
O 	O 	0.30980 0.47640 0.78470 -0.23100
O 	O 	0.26530 0.81200 0.77100 -0.45300
O 	O 	0.33510 0.91050 0.73400 -0.31800
O 	O 	0.24760 0.78730 0.09780 -0.45100
N 	N 	0.47840 0.55700 0.75070 -0.19300
N 	N 	0.38290 0.65250 0.02030 -0.29200
C 	C 	0.44460 0.58820 0.84440 0.22600
C 	C 	0.38960 0.50190 0.72380 0.22400
C 	C 	0.20470 0.89460 0.88440 -0.04900
C 	C 	0.57740 0.59090 0.68660 0.22100
C 	C 	0.40110 0.47710 0.61720 -0.05000
C 	C 	0.32150 0.42270 0.58540 -0.02600
H 	H 	0.26310 0.40000 0.63050 0.05200
C 	C 	0.58530 0.56610 0.58320 -0.06100
C 	C 	0.32840 0.40150 0.48480 -0.01600
H 	H 	0.27350 0.36460 0.46340 0.05400
C 	C 	0.27720 0.87070 0.78830 0.32900
C 	C 	0.32710 0.63500 0.84060 -0.23700
H 	H 	0.26800 0.64510 0.77930 0.12800
C 	C 	0.49510 0.60730 0.02270 0.12500
H 	H 	0.55230 0.59780 0.08490 -0.01800
C 	C 	0.30100 0.66560 0.92980 0.14300
H 	H 	0.22260 0.69700 0.92770 -0.02400
C 	C 	0.53000 0.57360 0.93600 -0.22000
H 	H 	0.60860 0.54210 0.93970 0.13200
S 	S 	0.10080 0.91123 0.06916 0.02800
S 	S 	0.09460 0.96472 0.85954 0.04100
C 	C 	0.20890 0.87090 0.97940 -0.04600
C 	C 	0.04000 0.97440 0.98550 -0.00900
O 	O 	0.42490 0.79720 0.98200 -0.31200
C 	C 	0.30400 0.81370 0.02060 0.32200
Zn	Zn	0.63770 0.20894 0.35556 1.19000
O 	O 	0.34250 0.13430 0.77690 -0.24400
C 	C 	0.50120 0.01080 0.94870 0.03100
O 	O 	0.69020 0.97640 0.71530 -0.22900
O 	O 	0.73470 0.31200 0.72900 -0.45300
O 	O 	0.66490 0.41050 0.76600 -0.31800
O 	O 	0.75240 0.28730 0.40220 -0.45200
N 	N 	0.52160 0.05700 0.74930 -0.19200
N 	N 	0.61710 0.15250 0.47970 -0.29200
C 	C 	0.55540 0.08820 0.65560 0.22600
C 	C 	0.61040 0.00190 0.77620 0.22000
C 	C 	0.79530 0.39460 0.61560 -0.04700
C 	C 	0.42260 0.09090 0.81340 0.22000
C 	C 	0.59890 0.97710 0.88280 -0.04600
C 	C 	0.67850 0.92270 0.91460 -0.02400
H 	H 	0.73690 0.90000 0.86950 0.05200
C 	C 	0.41470 0.06610 0.91680 -0.06000
C 	C 	0.67160 0.90150 0.01520 -0.01900
H 	H 	0.72650 0.86460 0.03660 0.05500
C 	C 	0.72280 0.37070 0.71170 0.32900
C 	C 	0.67290 0.13500 0.65940 -0.23700
H 	H 	0.73200 0.14510 0.72070 0.12800
C 	C 	0.50490 0.10730 0.47730 0.12500
H 	H 	0.44770 0.09780 0.41510 -0.01800
C 	C 	0.69900 0.16560 0.57020 0.14200
H 	H 	0.77740 0.19700 0.57230 -0.02400
C 	C 	0.47000 0.07360 0.56400 -0.22100
H 	H 	0.39140 0.04210 0.56030 0.13200
S 	S 	0.89920 0.41123 0.43084 0.03300
S 	S 	0.90540 0.46472 0.64046 0.04000
C 	C 	0.79110 0.37090 0.52060 -0.05100
C 	C 	0.96000 0.47440 0.51450 -0.01100
O 	O 	0.57510 0.29720 0.51800 -0.31500
C 	C 	0.69600 0.31370 0.47940 0.32700
