data_crystal

_cell_length_a 13.26100
_cell_length_b 15.13400
_cell_length_c 15.54700
_cell_angle_alpha 90.00000
_cell_angle_beta  93.44900
_cell_angle_gamma 90.00000

_symmetry_space_group_name_	'P 1'
_symmetry_space_group_name_H-M	'P 1'

loop_
_symmetry_equiv_pos_as_xyz
  x,y,z

loop_
_atom_site_label
_atom_site_type_symbol
_atom_site_fract_x
_atom_site_fract_y
_atom_site_fract_z
_atom_site_charge
Cu	Cu	0.94971 0.18875 0.10240 0.87100
C 	C 	0.58360 0.32290 0.76040 0.09900
H 	H 	0.55970 0.38060 0.76250 -0.00400
C 	C 	0.65270 0.29440 0.82380 -0.14600
H 	H 	0.67490 0.33280 0.86770 0.09900
C 	C 	0.68880 0.21010 0.82260 0.08100
C 	C 	0.65440 0.15560 0.75470 -0.15000
H 	H 	0.67730 0.09780 0.75070 0.09200
C 	C 	0.58590 0.18960 0.69420 0.10500
H 	H 	0.56330 0.15310 0.64890 -0.02900
C 	C 	0.76320 0.17680 0.88660 0.09300
C 	C 	0.31110 0.25800 0.73050 0.09200
H 	H 	0.32910 0.31290 0.75340 -0.00500
C 	C 	0.25060 0.20470 0.77620 -0.15100
H 	H 	0.22650 0.22480 0.82770 0.09800
C 	C 	0.22520 0.12200 0.74660 0.08200
C 	C 	0.26110 0.09760 0.66750 -0.16000
H 	H 	0.24510 0.04280 0.64330 0.08200
C 	C 	0.32040 0.15620 0.62620 0.10400
H 	H 	0.34450 0.13850 0.57400 -0.02600
C 	C 	0.16380 0.06250 0.79430 0.05700
N 	N 	0.54980 0.27090 0.69600 -0.23800
N 	N 	0.79430 0.22140 0.95790 -0.08500
N 	N 	0.86030 0.16670 0.99540 -0.13600
N 	N 	0.87140 0.09300 0.95130 -0.10700
N 	N 	0.80820 0.09800 0.88090 -0.08500
N 	N 	0.34580 0.23520 0.65460 -0.24100
N 	N 	0.11600 0.08730 0.86400 -0.08300
N 	N 	0.07250 0.01420 0.89040 -0.16200
N 	N 	0.09320 0.94690 0.84010 -0.11200
N 	N 	0.15170 0.97580 0.77810 -0.06900
N 	N 	0.05500 0.11710 0.05010 -0.28900
N 	N 	0.14260 0.13370 0.05780 -0.05000
N 	N 	0.22510 0.15170 0.06430 -0.08600
Cu	Cu	0.55029 0.68875 0.39760 0.87000
C 	C 	0.91640 0.82290 0.73960 0.10000
H 	H 	0.94030 0.88060 0.73750 0.01100
C 	C 	0.84730 0.79440 0.67620 -0.13900
H 	H 	0.82510 0.83280 0.63230 0.09700
C 	C 	0.81120 0.71010 0.67740 0.08000
C 	C 	0.84560 0.65560 0.74530 -0.14300
H 	H 	0.82270 0.59780 0.74930 0.10000
C 	C 	0.91410 0.68960 0.80580 0.10700
H 	H 	0.93670 0.65310 0.85110 -0.01000
C 	C 	0.73680 0.67680 0.61340 0.09300
C 	C 	0.18890 0.75800 0.76950 0.08900
H 	H 	0.17090 0.81290 0.74660 -0.00500
C 	C 	0.24940 0.70470 0.72380 -0.14400
H 	H 	0.27350 0.72480 0.67230 0.09400
C 	C 	0.27480 0.62200 0.75340 0.07500
C 	C 	0.23890 0.59760 0.83250 -0.15000
H 	H 	0.25490 0.54280 0.85670 0.09400
C 	C 	0.17960 0.65620 0.87380 0.10400
H 	H 	0.15550 0.63850 0.92600 -0.01500
C 	C 	0.33620 0.56250 0.70570 0.08900
N 	N 	0.95020 0.77090 0.80400 -0.22500
N 	N 	0.70570 0.72140 0.54210 -0.09300
N 	N 	0.63970 0.66670 0.50460 -0.15300
N 	N 	0.62860 0.59300 0.54870 -0.11900
N 	N 	0.69180 0.59800 0.61910 -0.08200
N 	N 	0.15420 0.73520 0.84540 -0.23800
N 	N 	0.38400 0.58730 0.63600 -0.08700
N 	N 	0.42750 0.51420 0.60960 -0.14900
N 	N 	0.40680 0.44690 0.65990 -0.12200
N 	N 	0.34830 0.47580 0.72190 -0.09000
N 	N 	0.44500 0.61710 0.44990 -0.26400
N 	N 	0.35740 0.63370 0.44220 -0.04100
N 	N 	0.27490 0.65170 0.43570 -0.07300
Cu	Cu	0.05029 0.81125 0.89760 0.86400
C 	C 	0.41640 0.67710 0.23960 0.09400
H 	H 	0.44030 0.61940 0.23750 -0.00800
C 	C 	0.34730 0.70560 0.17620 -0.14600
H 	H 	0.32510 0.66720 0.13230 0.08200
C 	C 	0.31120 0.78990 0.17740 0.07400
C 	C 	0.34560 0.84440 0.24530 -0.14900
H 	H 	0.32270 0.90220 0.24930 0.09900
C 	C 	0.41410 0.81040 0.30580 0.10300
H 	H 	0.43670 0.84690 0.35110 -0.02100
C 	C 	0.23680 0.82320 0.11340 0.08600
C 	C 	0.68890 0.74200 0.26950 0.08700
H 	H 	0.67090 0.68710 0.24660 -0.00400
C 	C 	0.74940 0.79530 0.22380 -0.13400
H 	H 	0.77350 0.77520 0.17230 0.08800
C 	C 	0.77480 0.87800 0.25340 0.06600
C 	C 	0.73890 0.90240 0.33250 -0.14000
H 	H 	0.75490 0.95720 0.35670 0.10000
C 	C 	0.67960 0.84380 0.37380 0.10200
H 	H 	0.65550 0.86150 0.42600 -0.01300
C 	C 	0.83620 0.93750 0.20570 0.12400
N 	N 	0.45020 0.72910 0.30400 -0.23700
N 	N 	0.20570 0.77860 0.04210 -0.10500
N 	N 	0.13970 0.83330 0.00460 -0.16900
N 	N 	0.12860 0.90700 0.04870 -0.12100
N 	N 	0.19180 0.90200 0.11910 -0.08200
N 	N 	0.65420 0.76480 0.34540 -0.23600
N 	N 	0.88400 0.91270 0.13600 -0.09100
N 	N 	0.92750 0.98580 0.10960 -0.12100
N 	N 	0.90680 0.05310 0.15990 -0.13500
N 	N 	0.84830 0.02420 0.22190 -0.11400
N 	N 	0.94500 0.88290 0.94990 -0.22600
N 	N 	0.85740 0.86630 0.94220 -0.03200
N 	N 	0.77490 0.84830 0.93570 -0.05200
Cu	Cu	0.44971 0.31125 0.60240 0.86800
C 	C 	0.08360 0.17710 0.26040 0.09300
H 	H 	0.05970 0.11940 0.26250 -0.02100
C 	C 	0.15270 0.20560 0.32380 -0.15200
H 	H 	0.17490 0.16720 0.36770 0.08300
C 	C 	0.18880 0.28990 0.32260 0.07400
C 	C 	0.15440 0.34440 0.25470 -0.15500
H 	H 	0.17730 0.40220 0.25070 0.09000
C 	C 	0.08590 0.31040 0.19420 0.10100
H 	H 	0.06330 0.34690 0.14890 -0.03900
C 	C 	0.26320 0.32320 0.38660 0.08500
C 	C 	0.81110 0.24200 0.23050 0.08900
H 	H 	0.82910 0.18710 0.25340 -0.00400
C 	C 	0.75060 0.29530 0.27620 -0.14300
H 	H 	0.72650 0.27520 0.32770 0.09100
C 	C 	0.72520 0.37800 0.24660 0.07400
C 	C 	0.76110 0.40240 0.16750 -0.15200
H 	H 	0.74510 0.45720 0.14330 0.08700
C 	C 	0.82040 0.34380 0.12620 0.10300
H 	H 	0.84450 0.36150 0.07400 -0.02500
C 	C 	0.66380 0.43750 0.29430 0.08800
N 	N 	0.04980 0.22910 0.19600 -0.24900
N 	N 	0.29430 0.27860 0.45790 -0.09900
N 	N 	0.36030 0.33330 0.49540 -0.15600
N 	N 	0.37140 0.40700 0.45130 -0.12100
N 	N 	0.30820 0.40200 0.38090 -0.08600
N 	N 	0.84580 0.26480 0.15460 -0.24000
N 	N 	0.61600 0.41270 0.36400 -0.08800
N 	N 	0.57250 0.48580 0.39040 -0.14900
N 	N 	0.59320 0.55310 0.34010 -0.12200
N 	N 	0.65170 0.52420 0.27810 -0.09000
N 	N 	0.55500 0.38290 0.55010 -0.26400
N 	N 	0.64260 0.36630 0.55780 -0.04100
N 	N 	0.72510 0.34830 0.56430 -0.06500
Cu	Cu	-0.00000 0.00000 -0.00000 0.82600
Cu	Cu	0.50000 0.50000 0.50000 0.87400
