data_crystal

_cell_length_a 13.29900
_cell_length_b 14.71000
_cell_length_c 15.68900
_cell_angle_alpha 90.00000
_cell_angle_beta  93.37500
_cell_angle_gamma 90.00000

_symmetry_space_group_name_	'P 1'
_symmetry_space_group_name_H-M	'P 1'

loop_
_symmetry_equiv_pos_as_xyz
  x,y,z

loop_
_atom_site_label
_atom_site_type_symbol
_atom_site_fract_x
_atom_site_fract_y
_atom_site_fract_z
_atom_site_charge
N 	N 	0.60680 0.90670 0.03860 -0.15400
N 	N 	0.43220 0.98660 0.11160 -0.12900
N 	N 	0.42410 0.87290 0.94010 -0.22400
N 	N 	0.61900 0.83090 0.99420 -0.12300
N 	N 	0.66850 0.90660 0.10750 -0.08000
N 	N 	0.38370 0.91310 0.13560 -0.09800
N 	N 	0.42090 0.05350 0.16660 -0.14200
Cu	Cu	0.53354 0.80677 0.88597 0.87200
N 	N 	0.34150 0.85370 0.93850 -0.02600
N 	N 	0.68900 0.77900 0.03300 -0.11200
C 	C 	0.71800 0.82780 0.10260 0.08600
C 	C 	0.34240 0.93870 0.20740 0.12400
N 	N 	0.36420 0.02480 0.22780 -0.12000
N 	N 	0.93610 0.73760 0.29190 -0.23400
N 	N 	0.14230 0.76860 0.33610 -0.23700
N 	N 	0.25880 0.83720 0.93830 -0.06100
C 	C 	0.79500 0.79590 0.16670 0.09400
C 	C 	0.27570 0.87960 0.25330 0.05900
C 	C 	0.83220 0.71100 0.16700 -0.15700
C 	C 	0.82930 0.85210 0.23150 -0.16100
C 	C 	0.24300 0.79750 0.21930 -0.13300
C 	C 	0.24040 0.90270 0.33050 -0.13700
C 	C 	0.90280 0.68390 0.22980 0.10900
H 	H 	0.81020 0.67020 0.12450 0.09200
H 	H 	0.80640 0.91170 0.23450 0.11000
C 	C 	0.89930 0.81830 0.29280 0.12400
C 	C 	0.17770 0.74450 0.26130 0.07900
H 	H 	0.26570 0.77820 0.16730 0.08200
H 	H 	0.26160 0.95660 0.35690 0.09300
C 	C 	0.17340 0.84660 0.36950 0.08900
H 	H 	0.92790 0.62500 0.22800 -0.00300
H 	H 	0.92090 0.85660 0.33730 -0.01500
H 	H 	0.15700 0.68950 0.23690 -0.01000
H 	H 	0.14940 0.86460 0.42140 -0.01600
N 	N 	0.89320 0.40670 0.46140 -0.13500
N 	N 	0.06780 0.48660 0.38840 -0.15600
N 	N 	0.07590 0.37290 0.55990 -0.25500
N 	N 	0.88100 0.33090 0.50580 -0.15100
N 	N 	0.83150 0.40660 0.39250 -0.08300
N 	N 	0.11630 0.41310 0.36440 -0.09500
N 	N 	0.07910 0.55350 0.33340 -0.13100
Cu	Cu	0.96646 0.30677 0.61403 0.88300
N 	N 	0.15850 0.35370 0.56150 -0.03400
N 	N 	0.81100 0.27900 0.46700 -0.09400
C 	C 	0.78200 0.32780 0.39740 0.08500
C 	C 	0.15760 0.43870 0.29260 0.08600
N 	N 	0.13580 0.52480 0.27220 -0.09600
N 	N 	0.56390 0.23760 0.20810 -0.24900
N 	N 	0.35770 0.26860 0.16390 -0.23800
N 	N 	0.24120 0.33720 0.56170 -0.07500
C 	C 	0.70500 0.29590 0.33330 0.09400
C 	C 	0.22430 0.37960 0.24670 0.06600
C 	C 	0.66780 0.21100 0.33300 -0.16500
C 	C 	0.67070 0.35210 0.26850 -0.16800
C 	C 	0.25700 0.29750 0.28070 -0.14200
C 	C 	0.25960 0.40270 0.16950 -0.14800
C 	C 	0.59720 0.18390 0.27020 0.10900
H 	H 	0.68980 0.17020 0.37550 0.09200
H 	H 	0.69360 0.41170 0.26550 0.10100
C 	C 	0.60070 0.31830 0.20720 0.12200
C 	C 	0.32230 0.24450 0.23870 0.08200
H 	H 	0.23430 0.27820 0.33270 0.08600
H 	H 	0.23840 0.45660 0.14310 0.07900
C 	C 	0.32660 0.34660 0.13050 0.08900
H 	H 	0.57210 0.12500 0.27200 -0.02000
H 	H 	0.57910 0.35660 0.16270 -0.03500
H 	H 	0.34300 0.18950 0.26310 -0.00800
H 	H 	0.35060 0.36460 0.07860 -0.02600
N 	N 	0.39320 0.09330 0.96140 -0.12600
N 	N 	0.56780 0.01340 0.88840 -0.15800
N 	N 	0.57590 0.12710 0.05990 -0.25200
N 	N 	0.38100 0.16910 0.00580 -0.19000
N 	N 	0.33150 0.09340 0.89250 -0.09100
N 	N 	0.61630 0.08690 0.86440 -0.07900
N 	N 	0.57910 0.94650 0.83340 -0.10400
Cu	Cu	0.46646 0.19323 0.11403 0.86300
N 	N 	0.65850 0.14630 0.06150 -0.03900
N 	N 	0.31100 0.22100 0.96700 -0.07300
C 	C 	0.28200 0.17220 0.89740 0.08500
C 	C 	0.65760 0.06130 0.79260 0.06000
N 	N 	0.63580 0.97520 0.77220 -0.06300
N 	N 	0.06390 0.26240 0.70810 -0.25900
N 	N 	0.85770 0.23140 0.66390 -0.23300
N 	N 	0.74120 0.16280 0.06170 -0.08200
C 	C 	0.20500 0.20410 0.83330 0.09400
C 	C 	0.72430 0.12040 0.74670 0.08700
C 	C 	0.16780 0.28900 0.83300 -0.16700
C 	C 	0.17070 0.14790 0.76850 -0.17200
C 	C 	0.75700 0.20250 0.78070 -0.14800
C 	C 	0.75960 0.09730 0.66950 -0.15400
C 	C 	0.09720 0.31610 0.77020 0.10900
H 	H 	0.18980 0.32980 0.87550 0.09900
H 	H 	0.19360 0.08830 0.76550 0.09200
C 	C 	0.10070 0.18170 0.70720 0.12000
C 	C 	0.82230 0.25550 0.73870 0.09700
H 	H 	0.73430 0.22180 0.83270 0.10400
H 	H 	0.73840 0.04340 0.64310 0.08400
C 	C 	0.82660 0.15340 0.63050 0.10200
H 	H 	0.07210 0.37500 0.77200 -0.02200
H 	H 	0.07910 0.14340 0.66270 -0.04600
H 	H 	0.84300 0.31050 0.76310 0.00100
H 	H 	0.85060 0.13540 0.57860 -0.01800
N 	N 	0.10680 0.59330 0.53860 -0.15100
N 	N 	0.93220 0.51340 0.61160 -0.13600
N 	N 	0.92410 0.62710 0.44010 -0.22200
N 	N 	0.11900 0.66910 0.49420 -0.15900
N 	N 	0.16850 0.59340 0.60750 -0.08900
N 	N 	0.88370 0.58690 0.63560 -0.08200
N 	N 	0.92090 0.44650 0.66660 -0.11400
Cu	Cu	0.03354 0.69323 0.38597 0.85200
N 	N 	0.84150 0.64630 0.43850 -0.03000
N 	N 	0.18900 0.72100 0.53300 -0.09400
C 	C 	0.21800 0.67220 0.60260 0.08400
C 	C 	0.84240 0.56130 0.70740 0.09600
N 	N 	0.86420 0.47520 0.72780 -0.08500
N 	N 	0.43610 0.76240 0.79190 -0.24500
N 	N 	0.64230 0.73140 0.83610 -0.23200
N 	N 	0.75880 0.66280 0.43830 -0.06700
C 	C 	0.29500 0.70410 0.66670 0.09200
C 	C 	0.77570 0.62040 0.75330 0.08100
C 	C 	0.33220 0.78900 0.66700 -0.15900
C 	C 	0.32930 0.64790 0.73150 -0.16400
C 	C 	0.74300 0.70250 0.71930 -0.14000
C 	C 	0.74040 0.59730 0.83050 -0.14400
C 	C 	0.40280 0.81610 0.72980 0.10900
H 	H 	0.31020 0.82980 0.62450 0.09800
H 	H 	0.30640 0.58830 0.73450 0.10000
C 	C 	0.39930 0.68170 0.79280 0.12100
C 	C 	0.67770 0.75550 0.76130 0.09500
H 	H 	0.76570 0.72180 0.66730 0.10000
H 	H 	0.76160 0.54340 0.85690 0.09800
C 	C 	0.67340 0.65340 0.86950 0.10200
H 	H 	0.42790 0.87500 0.72800 -0.00600
H 	H 	0.42090 0.64340 0.83730 -0.02600
H 	H 	0.65700 0.81050 0.73690 -0.00000
H 	H 	0.64940 0.63540 0.92140 -0.00800
Cu	Cu	0.50000 0.00000 -0.00000 0.83800
Cu	Cu	0.00000 0.50000 0.50000 0.85500
