data_crystal

_cell_length_a 12.82500
_cell_length_b 14.90300
_cell_length_c 15.96300
_cell_angle_alpha 90.00000
_cell_angle_beta  92.84700
_cell_angle_gamma 90.00000

_symmetry_space_group_name_	'P 1'
_symmetry_space_group_name_H-M	'P 1'

loop_
_symmetry_equiv_pos_as_xyz
  x,y,z

loop_
_atom_site_label
_atom_site_type_symbol
_atom_site_fract_x
_atom_site_fract_y
_atom_site_fract_z
_atom_site_charge
Cu	Cu	0.97122 0.19670 0.10749 0.87300
C 	C 	0.59880 0.31460 0.76500 0.09700
H 	H 	0.57240 0.37260 0.76650 -0.00400
C 	C 	0.66740 0.28650 0.82920 -0.14300
H 	H 	0.68490 0.32510 0.87350 0.09700
C 	C 	0.70960 0.20210 0.82790 0.07900
C 	C 	0.68000 0.14740 0.76080 -0.14900
H 	H 	0.70620 0.08950 0.75720 0.09100
C 	C 	0.61120 0.18030 0.69990 0.10300
H 	H 	0.59270 0.14330 0.65460 -0.02900
C 	C 	0.78300 0.17020 0.89420 0.09700
C 	C 	0.32250 0.25260 0.73130 0.09600
H 	H 	0.34550 0.30660 0.75490 -0.00700
C 	C 	0.25620 0.20120 0.77500 -0.15200
H 	H 	0.23470 0.22050 0.82680 0.09600
C 	C 	0.22110 0.12060 0.74230 0.07900
C 	C 	0.25400 0.09680 0.66400 -0.15300
H 	H 	0.23110 0.04370 0.63860 0.07800
C 	C 	0.32120 0.15320 0.62420 0.09300
H 	H 	0.34320 0.13650 0.57180 -0.02200
C 	C 	0.15550 0.06040 0.79000 0.05800
N 	N 	0.56950 0.26160 0.70150 -0.23800
N 	N 	0.81060 0.21840 0.96290 -0.07300
N 	N 	0.87910 0.16610 0.00440 -0.18400
N 	N 	0.89270 0.09150 0.96160 -0.12000
N 	N 	0.83270 0.09240 0.89220 -0.08700
N 	N 	0.35590 0.22990 0.65710 -0.23700
N 	N 	0.11750 0.08450 0.86310 -0.08600
N 	N 	0.06970 0.01210 0.88850 -0.16100
N 	N 	0.07920 0.94560 0.83370 -0.10500
N 	N 	0.13440 0.97520 0.77050 -0.07000
N 	N 	0.08430 0.12610 0.05780 -0.26100
N 	N 	0.17010 0.13780 0.07090 -0.04000
N 	N 	0.25600 0.14530 0.08680 -0.08700
Cu	Cu	0.52878 0.69670 0.39251 0.86400
C 	C 	0.90120 0.81460 0.73500 0.09800
H 	H 	0.92760 0.87260 0.73350 0.01000
C 	C 	0.83260 0.78650 0.67080 -0.13600
H 	H 	0.81510 0.82510 0.62650 0.09600
C 	C 	0.79040 0.70210 0.67210 0.07800
C 	C 	0.82000 0.64740 0.73920 -0.14200
H 	H 	0.79380 0.58950 0.74280 0.09800
C 	C 	0.88880 0.68030 0.80010 0.10400
H 	H 	0.90730 0.64330 0.84540 -0.01100
C 	C 	0.71700 0.67020 0.60580 0.09600
C 	C 	0.17750 0.75260 0.76870 0.09400
H 	H 	0.15450 0.80660 0.74510 -0.00900
C 	C 	0.24380 0.70120 0.72500 -0.14500
H 	H 	0.26530 0.72050 0.67320 0.09300
C 	C 	0.27890 0.62060 0.75770 0.07300
C 	C 	0.24600 0.59680 0.83600 -0.14400
H 	H 	0.26890 0.54370 0.86140 0.09100
C 	C 	0.17880 0.65320 0.87580 0.09300
H 	H 	0.15680 0.63650 0.92820 -0.01200
C 	C 	0.34450 0.56040 0.71000 0.09200
N 	N 	0.93050 0.76160 0.79850 -0.22500
N 	N 	0.68940 0.71840 0.53710 -0.09300
N 	N 	0.62090 0.66610 0.49560 -0.15400
N 	N 	0.60730 0.59150 0.53840 -0.14700
N 	N 	0.66730 0.59240 0.60780 -0.08600
N 	N 	0.14410 0.72990 0.84290 -0.23600
N 	N 	0.38250 0.58450 0.63690 -0.09000
N 	N 	0.43030 0.51210 0.61150 -0.14700
N 	N 	0.42080 0.44560 0.66630 -0.11500
N 	N 	0.36560 0.47520 0.72950 -0.09000
N 	N 	0.41570 0.62610 0.44220 -0.23800
N 	N 	0.32990 0.63780 0.42910 -0.03200
N 	N 	0.24400 0.64530 0.41320 -0.07600
Cu	Cu	0.02878 0.80330 0.89251 0.85300
C 	C 	0.40120 0.68540 0.23500 0.09200
H 	H 	0.42760 0.62740 0.23350 -0.00800
C 	C 	0.33260 0.71350 0.17080 -0.14300
H 	H 	0.31510 0.67490 0.12650 0.08100
C 	C 	0.29040 0.79790 0.17210 0.07300
C 	C 	0.32000 0.85260 0.23920 -0.14800
H 	H 	0.29380 0.91050 0.24280 0.09900
C 	C 	0.38880 0.81970 0.30010 0.10100
H 	H 	0.40730 0.85670 0.34540 -0.02100
C 	C 	0.21700 0.82980 0.10580 0.08800
C 	C 	0.67750 0.74740 0.26870 0.09200
H 	H 	0.65450 0.69340 0.24510 -0.00700
C 	C 	0.74380 0.79880 0.22500 -0.13600
H 	H 	0.76530 0.77950 0.17320 0.08800
C 	C 	0.77890 0.87940 0.25770 0.06600
C 	C 	0.74600 0.90320 0.33600 -0.13400
H 	H 	0.76890 0.95630 0.36140 0.09800
C 	C 	0.67880 0.84680 0.37580 0.09300
H 	H 	0.65680 0.86350 0.42820 -0.01000
C 	C 	0.84450 0.93960 0.21000 0.12800
N 	N 	0.43050 0.73840 0.29850 -0.23700
N 	N 	0.18940 0.78160 0.03710 -0.11600
N 	N 	0.12090 0.83390 0.99560 -0.13000
N 	N 	0.10730 0.90850 0.03840 -0.16100
N 	N 	0.16730 0.90760 0.10780 -0.08600
N 	N 	0.64410 0.77010 0.34290 -0.23300
N 	N 	0.88250 0.91550 0.13690 -0.09300
N 	N 	0.93030 0.98790 0.11150 -0.11800
N 	N 	0.92080 0.05440 0.16630 -0.12500
N 	N 	0.86560 0.02480 0.22950 -0.11300
N 	N 	0.91570 0.87390 0.94220 -0.20600
N 	N 	0.82990 0.86220 0.92910 -0.02400
N 	N 	0.74400 0.85470 0.91320 -0.05400
Cu	Cu	0.47122 0.30330 0.60749 0.86300
C 	C 	0.09880 0.18540 0.26500 0.09100
H 	H 	0.07240 0.12740 0.26650 -0.02200
C 	C 	0.16740 0.21350 0.32920 -0.14900
H 	H 	0.18490 0.17490 0.37350 0.08100
C 	C 	0.20960 0.29790 0.32790 0.07300
C 	C 	0.18000 0.35260 0.26080 -0.15400
H 	H 	0.20620 0.41050 0.25720 0.09000
C 	C 	0.11120 0.31970 0.19990 0.09900
H 	H 	0.09270 0.35670 0.15460 -0.03800
C 	C 	0.28300 0.32980 0.39420 0.08700
C 	C 	0.82250 0.24740 0.23130 0.09400
H 	H 	0.84550 0.19340 0.25490 -0.00500
C 	C 	0.75620 0.29880 0.27500 -0.14400
H 	H 	0.73470 0.27950 0.32680 0.09100
C 	C 	0.72110 0.37940 0.24230 0.07100
C 	C 	0.75400 0.40320 0.16400 -0.14500
H 	H 	0.73110 0.45630 0.13860 0.08400
C 	C 	0.82120 0.34680 0.12420 0.09200
H 	H 	0.84320 0.36350 0.07180 -0.02000
C 	C 	0.65550 0.43960 0.29000 0.09200
N 	N 	0.06950 0.23840 0.20150 -0.25000
N 	N 	0.31060 0.28160 0.46290 -0.09900
N 	N 	0.37910 0.33390 0.50440 -0.15600
N 	N 	0.39270 0.40850 0.46160 -0.14900
N 	N 	0.33270 0.40760 0.39220 -0.08900
N 	N 	0.85590 0.27010 0.15710 -0.23400
N 	N 	0.61750 0.41550 0.36310 -0.09100
N 	N 	0.56970 0.48790 0.38850 -0.14700
N 	N 	0.57920 0.55440 0.33370 -0.11500
N 	N 	0.63440 0.52480 0.27050 -0.09100
N 	N 	0.58430 0.37390 0.55780 -0.23800
N 	N 	0.67010 0.36220 0.57090 -0.03200
N 	N 	0.75600 0.35470 0.58680 -0.06600
Cu	Cu	-0.00000 0.00000 -0.00000 0.82400
Cu	Cu	0.50000 0.50000 0.50000 0.87200
