data_crystal

_cell_length_a 13.11100
_cell_length_b 14.79100
_cell_length_c 15.67100
_cell_angle_alpha 90.00000
_cell_angle_beta  92.62500
_cell_angle_gamma 90.00000

_symmetry_space_group_name_	'P 1'
_symmetry_space_group_name_H-M	'P 1'

loop_
_symmetry_equiv_pos_as_xyz
  x,y,z

loop_
_atom_site_label
_atom_site_type_symbol
_atom_site_fract_x
_atom_site_fract_y
_atom_site_fract_z
_atom_site_charge
Cu	Cu	0.52586 0.19820 0.39180 0.86400
C 	C 	0.88740 0.17890 0.79990 0.10100
H 	H 	0.90630 0.14120 0.84550 -0.01500
C 	C 	0.81840 0.14720 0.73830 -0.14100
H 	H 	0.79230 0.08900 0.74160 0.09000
C 	C 	0.78860 0.20370 0.67110 0.07400
C 	C 	0.82960 0.28870 0.66940 -0.13700
H 	H 	0.81060 0.32850 0.62550 0.09100
C 	C 	0.89920 0.31520 0.73290 0.09500
H 	H 	0.92690 0.37300 0.73090 0.00600
C 	C 	0.71330 0.17280 0.60600 0.09100
C 	C 	0.16930 0.24810 0.76520 0.08500
H 	H 	0.14740 0.30270 0.74120 -0.01000
C 	C 	0.23530 0.19510 0.72080 -0.14500
H 	H 	0.25730 0.21370 0.66800 0.09000
C 	C 	0.26840 0.11350 0.75590 0.07800
C 	C 	0.23320 0.09000 0.83420 -0.15300
H 	H 	0.25370 0.03580 0.85980 0.08300
C 	C 	0.16770 0.14640 0.87450 0.09400
H 	H 	0.14500 0.12930 0.92760 -0.01900
C 	C 	0.33600 0.05550 0.70861 0.05400
N 	N 	0.92800 0.26072 0.79724 -0.22400
N 	N 	0.68540 0.22122 0.53608 -0.09400
N 	N 	0.61610 0.16957 0.49612 -0.15700
N 	N 	0.60300 0.09381 0.53972 -0.15400
N 	N 	0.66390 0.09377 0.60968 -0.09200
N 	N 	0.13540 0.22434 0.84097 -0.23700
N 	N 	0.37850 0.08184 0.63626 -0.08900
N 	N 	0.42960 0.00954 0.61246 -0.16800
N 	N 	0.41880 0.94268 0.66698 -0.09700
N 	N 	0.36000 0.96976 0.72915 -0.06200
N 	N 	0.41690 0.12503 0.44235 -0.24500
N 	N 	0.33060 0.13560 0.42810 -0.04000
N 	N 	0.24510 0.14490 0.41480 -0.08300
Cu	Cu	0.97414 0.69820 0.10820 0.87800
C 	C 	0.61260 0.67890 0.70010 0.10500
H 	H 	0.59370 0.64120 0.65450 -0.02400
C 	C 	0.68160 0.64720 0.76170 -0.14700
H 	H 	0.70770 0.58900 0.75840 0.09900
C 	C 	0.71140 0.70370 0.82890 0.08400
C 	C 	0.67040 0.78870 0.83060 -0.14200
H 	H 	0.68940 0.82850 0.87450 0.10300
C 	C 	0.60080 0.81520 0.76710 0.10000
H 	H 	0.57310 0.87300 0.76910 0.00200
C 	C 	0.78670 0.67280 0.89400 0.09800
C 	C 	0.33070 0.74810 0.73480 0.08600
H 	H 	0.35260 0.80270 0.75880 0.00100
C 	C 	0.26470 0.69510 0.77920 -0.13500
H 	H 	0.24270 0.71370 0.83200 0.09600
C 	C 	0.23160 0.61350 0.74410 0.07000
C 	C 	0.26680 0.59000 0.66580 -0.14400
H 	H 	0.24630 0.53580 0.64020 0.08500
C 	C 	0.33230 0.64640 0.62550 0.09300
H 	H 	0.35500 0.62930 0.57240 -0.01700
C 	C 	0.16400 0.55550 0.79139 0.09000
N 	N 	0.57200 0.76072 0.70276 -0.23600
N 	N 	0.81460 0.72122 0.96392 -0.06900
N 	N 	0.88390 0.66957 0.00388 -0.18200
N 	N 	0.89700 0.59381 0.96028 -0.11400
N 	N 	0.83610 0.59377 0.89032 -0.08000
N 	N 	0.36460 0.72434 0.65903 -0.23200
N 	N 	0.12150 0.58184 0.86374 -0.08700
N 	N 	0.07040 0.50954 0.88754 -0.14500
N 	N 	0.08120 0.44268 0.83302 -0.12000
N 	N 	0.14000 0.46976 0.77085 -0.09300
N 	N 	0.08310 0.62503 0.05765 -0.25800
N 	N 	0.16940 0.63560 0.07190 -0.04000
N 	N 	0.25490 0.64490 0.08520 -0.07800
Cu	Cu	0.47414 0.80180 0.60820 0.86600
C 	C 	0.11260 0.82110 0.20010 0.10100
H 	H 	0.09370 0.85880 0.15450 -0.03300
C 	C 	0.18160 0.85280 0.26170 -0.15300
H 	H 	0.20770 0.91100 0.25840 0.10000
C 	C 	0.21140 0.79630 0.32890 0.07900
C 	C 	0.17040 0.71130 0.33060 -0.14900
H 	H 	0.18940 0.67150 0.37450 0.08700
C 	C 	0.10080 0.68480 0.26710 0.09300
H 	H 	0.07310 0.62700 0.26910 -0.01800
C 	C 	0.28670 0.82720 0.39400 0.08900
C 	C 	0.83070 0.75190 0.23480 0.08400
H 	H 	0.85260 0.69730 0.25880 0.00300
C 	C 	0.76470 0.80490 0.27920 -0.12600
H 	H 	0.74270 0.78630 0.33200 0.09100
C 	C 	0.73160 0.88650 0.24410 0.06200
C 	C 	0.76680 0.91000 0.16580 -0.13400
H 	H 	0.74630 0.96420 0.14020 0.09200
C 	C 	0.83230 0.85360 0.12550 0.09200
H 	H 	0.85500 0.87070 0.07240 -0.01400
C 	C 	0.66400 0.94450 0.29139 0.12600
N 	N 	0.07200 0.73928 0.20276 -0.24800
N 	N 	0.31460 0.77878 0.46392 -0.09500
N 	N 	0.38390 0.83043 0.50388 -0.15400
N 	N 	0.39700 0.90619 0.46028 -0.13900
N 	N 	0.33610 0.90623 0.39032 -0.08100
N 	N 	0.86460 0.77566 0.15903 -0.22900
N 	N 	0.62150 0.91816 0.36374 -0.09200
N 	N 	0.57040 0.99046 0.38754 -0.12300
N 	N 	0.58120 0.05732 0.33302 -0.13200
N 	N 	0.64000 0.03024 0.27085 -0.11600
N 	N 	0.58310 0.87497 0.55765 -0.23100
N 	N 	0.66940 0.86440 0.57190 -0.03100
N 	N 	0.75490 0.85510 0.58520 -0.05600
Cu	Cu	0.02586 0.30180 0.89180 0.85100
C 	C 	0.38740 0.32110 0.29990 0.09600
H 	H 	0.40630 0.35880 0.34550 -0.02500
C 	C 	0.31840 0.35280 0.23830 -0.14800
H 	H 	0.29230 0.41100 0.24160 0.09000
C 	C 	0.28860 0.29630 0.17110 0.06900
C 	C 	0.32960 0.21130 0.16940 -0.14500
H 	H 	0.31060 0.17150 0.12550 0.07500
C 	C 	0.39920 0.18480 0.23290 0.08800
H 	H 	0.42690 0.12700 0.23090 -0.01500
C 	C 	0.21330 0.32720 0.10600 0.08200
C 	C 	0.66930 0.25190 0.26520 0.08300
H 	H 	0.64740 0.19730 0.24120 -0.00700
C 	C 	0.73530 0.30490 0.22080 -0.13600
H 	H 	0.75730 0.28630 0.16800 0.08400
C 	C 	0.76840 0.38650 0.25590 0.07000
C 	C 	0.73320 0.41000 0.33420 -0.14300
H 	H 	0.75370 0.46420 0.35980 0.09100
C 	C 	0.66770 0.35360 0.37450 0.09300
H 	H 	0.64500 0.37070 0.42760 -0.01500
C 	C 	0.83600 0.44450 0.20861 0.09200
N 	N 	0.42800 0.23928 0.29724 -0.23700
N 	N 	0.18540 0.27878 0.03608 -0.11900
N 	N 	0.11610 0.33043 0.99612 -0.13100
N 	N 	0.10300 0.40619 0.03972 -0.17300
N 	N 	0.16390 0.40623 0.10968 -0.09200
N 	N 	0.63540 0.27566 0.34097 -0.23300
N 	N 	0.87850 0.41816 0.13626 -0.09200
N 	N 	0.92960 0.49046 0.11246 -0.14200
N 	N 	0.91880 0.55732 0.16698 -0.10900
N 	N 	0.86000 0.53024 0.22915 -0.08700
N 	N 	0.91690 0.37497 0.94235 -0.21300
N 	N 	0.83060 0.36440 0.92810 -0.03000
N 	N 	0.74510 0.35510 0.91480 -0.06000
Cu	Cu	0.50000 0.00000 0.50000 0.85600
Cu	Cu	-0.00000 0.50000 -0.00000 0.84000
