data_crystal

_cell_length_a 6.62300
_cell_length_b 16.89300
_cell_length_c 12.59200
_cell_angle_alpha 90.00000
_cell_angle_beta  90.00000
_cell_angle_gamma 90.00000

_symmetry_space_group_name_	'P 1'
_symmetry_space_group_name_H-M	'P 1'

loop_
_symmetry_equiv_pos_as_xyz
  x,y,z

loop_
_atom_site_label
_atom_site_type_symbol
_atom_site_fract_x
_atom_site_fract_y
_atom_site_fract_z
_atom_site_charge
O 	O 	0.15590 0.16690 0.84182 -0.59500
C 	C 	0.80420 0.03610 0.97409 0.03500
O 	O 	0.65590 0.66690 0.34182 -0.59900
C 	C 	0.30420 0.53610 0.47409 0.05300
O 	O 	0.84410 0.33310 0.84182 -0.61000
C 	C 	0.19580 0.46390 0.97409 0.04900
O 	O 	0.34410 0.83310 0.34182 -0.59200
C 	C 	0.69580 0.96390 0.47409 0.04600
O 	O 	0.84410 0.66690 0.15818 -0.61000
C 	C 	0.19580 0.53610 0.02591 0.04900
O 	O 	0.34410 0.16690 0.65818 -0.59200
C 	C 	0.69580 0.03610 0.52591 0.04600
O 	O 	0.15590 0.83310 0.15818 -0.59400
C 	C 	0.80420 0.96390 0.02591 0.03600
O 	O 	0.65590 0.33310 0.65818 -0.59800
C 	C 	0.30420 0.46390 0.52591 0.05400
O 	O 	0.84410 0.83310 0.15818 -0.61000
C 	C 	0.19580 0.96390 0.02591 0.04900
O 	O 	0.34410 0.33310 0.65818 -0.59200
C 	C 	0.69580 0.46390 0.52591 0.04600
O 	O 	0.15590 0.66690 0.15818 -0.59400
C 	C 	0.80420 0.53610 0.02591 0.03600
O 	O 	0.65590 0.16690 0.65818 -0.59800
C 	C 	0.30420 0.03610 0.52591 0.05400
O 	O 	0.15590 0.33310 0.84182 -0.59400
C 	C 	0.80420 0.46390 0.97409 0.03600
O 	O 	0.65590 0.83310 0.34182 -0.59800
C 	C 	0.30420 0.96390 0.47409 0.05400
O 	O 	0.84410 0.16690 0.84182 -0.61000
C 	C 	0.19580 0.03610 0.97409 0.04900
O 	O 	0.34410 0.66690 0.34182 -0.59200
C 	C 	0.69580 0.53610 0.47409 0.04600
Al	Al	0.25000 0.25000 0.75000 2.40200
Al	Al	0.75000 0.25000 0.75000 2.40100
Al	Al	0.75000 0.75000 0.25000 2.40100
Al	Al	0.25000 0.75000 0.25000 2.40200
O 	O 	0.00000 0.25000 0.69297 -0.89000
O 	O 	0.50000 0.75000 0.19297 -0.90100
O 	O 	0.00000 0.75000 0.30703 -0.89000
O 	O 	0.50000 0.25000 0.80703 -0.90100
C 	C 	0.00000 0.05987 0.95711 -0.12900
C 	C 	0.00000 0.12911 0.88311 0.49700
C 	C 	0.50000 0.55987 0.45711 -0.14400
C 	C 	0.50000 0.62911 0.38311 0.48000
C 	C 	0.00000 0.44013 0.95711 -0.12900
C 	C 	0.00000 0.37089 0.88311 0.49700
C 	C 	0.50000 0.94013 0.45711 -0.14400
C 	C 	0.50000 0.87089 0.38311 0.48000
C 	C 	0.00000 0.55987 0.04289 -0.12900
C 	C 	0.00000 0.62911 0.11689 0.49700
C 	C 	0.50000 0.05987 0.54289 -0.14400
C 	C 	0.50000 0.12911 0.61689 0.48000
C 	C 	0.00000 0.94013 0.04289 -0.12900
C 	C 	-0.00000 0.87089 0.11689 0.49700
C 	C 	0.50000 0.44013 0.54289 -0.14400
C 	C 	0.50000 0.37089 0.61689 0.48000
