data_crystal

_cell_length_a 6.65400
_cell_length_b 16.44800
_cell_length_c 13.37500
_cell_angle_alpha 90.00000
_cell_angle_beta  90.00000
_cell_angle_gamma 90.00000

_symmetry_space_group_name_	'P 1'
_symmetry_space_group_name_H-M	'P 1'

loop_
_symmetry_equiv_pos_as_xyz
  x,y,z

loop_
_atom_site_label
_atom_site_type_symbol
_atom_site_fract_x
_atom_site_fract_y
_atom_site_fract_z
_atom_site_charge
O 	O 	0.16735 0.17417 0.83647 -0.66400
C 	C 	0.81541 0.03664 0.96825 0.01100
H 	H 	0.67291 0.06165 0.94464 0.04400
O 	O 	0.66743 0.67392 0.33614 -0.66400
C 	C 	0.31543 0.53626 0.46768 0.00800
H 	H 	0.17298 0.56126 0.44398 0.04300
O 	O 	0.82541 0.33109 0.83651 -0.66300
C 	C 	0.17730 0.46815 0.96911 0.00800
H 	H 	0.31980 0.44308 0.94563 0.04300
O 	O 	0.32510 0.83100 0.33667 -0.66500
C 	C 	0.67722 0.96767 0.46974 0.00800
H 	H 	0.81968 0.94247 0.44641 0.04400
O 	O 	0.82513 0.67420 0.16440 -0.66300
C 	C 	0.17722 0.53692 0.03234 0.00800
H 	H 	0.31966 0.56200 0.05592 0.04300
O 	O 	0.32533 0.17411 0.66451 -0.66600
C 	C 	0.67730 0.03643 0.53298 0.00800
H 	H 	0.81978 0.06140 0.55667 0.04400
O 	O 	0.16741 0.83104 0.16436 -0.66500
C 	C 	0.81542 0.96785 0.03145 0.01100
H 	H 	0.67296 0.94268 0.05483 0.04300
O 	O 	0.66723 0.33095 0.66427 -0.66500
C 	C 	0.31540 0.46754 0.53097 0.00800
H 	H 	0.17289 0.44240 0.55436 0.04200
O 	O 	0.82533 0.83100 0.16430 -0.66300
C 	C 	0.17726 0.96785 0.03143 0.00800
H 	H 	0.31976 0.94269 0.05478 0.04300
O 	O 	0.32524 0.33093 0.66418 -0.66600
C 	C 	0.67724 0.46754 0.53100 0.00800
H 	H 	0.81969 0.44239 0.55442 0.04400
O 	O 	0.16720 0.67425 0.16437 -0.66500
C 	C 	0.81538 0.53676 0.03249 0.01000
H 	H 	0.67290 0.56173 0.05619 0.04300
O 	O 	0.66751 0.17402 0.66465 -0.66500
C 	C 	0.31546 0.03657 0.53284 0.00700
H 	H 	0.17303 0.06166 0.55640 0.04300
O 	O 	0.16744 0.33118 0.83638 -0.66500
C 	C 	0.81546 0.46800 0.96926 0.01000
H 	H 	0.67301 0.44281 0.94591 0.04300
O 	O 	0.66723 0.83094 0.33670 -0.66500
C 	C 	0.31538 0.96782 0.46961 0.00700
H 	H 	0.17288 0.94273 0.44615 0.04300
O 	O 	0.82512 0.17419 0.83656 -0.66200
C 	C 	0.17724 0.03664 0.96823 0.00700
H 	H 	0.31967 0.06167 0.94458 0.04300
O 	O 	0.32531 0.67396 0.33621 -0.66600
C 	C 	0.67726 0.53626 0.46770 0.00800
H 	H 	0.81973 0.56125 0.44404 0.04400
Al	Al	0.24614 0.25262 0.75041 2.41300
Al	Al	0.74628 0.25263 0.75048 2.41300
Al	Al	0.74603 0.75263 0.25041 2.41300
Al	Al	0.24611 0.75261 0.25049 2.41300
O 	O 	-0.00379 0.25268 0.69682 -1.16500
O 	O 	0.49605 0.75281 0.19687 -1.16300
O 	O 	-0.00396 0.75271 0.30409 -1.16400
O 	O 	0.49620 0.25278 0.80404 -1.16200
C 	C 	-0.00370 0.07259 0.93560 -0.11800
C 	C 	-0.00375 0.14506 0.86573 0.50700
C 	C 	0.49635 0.57221 0.43504 -0.11500
C 	C 	0.49637 0.64475 0.36530 0.51000
C 	C 	-0.00358 0.43233 0.93620 -0.11900
C 	C 	-0.00357 0.36016 0.86586 0.50700
C 	C 	0.49625 0.93200 0.43667 -0.11600
C 	C 	0.49618 0.85994 0.36617 0.51000
C 	C 	-0.00375 0.57273 0.06514 -0.11900
C 	C 	-0.00382 0.64511 0.13512 0.50800
C 	C 	0.49641 0.07245 0.56556 -0.11600
C 	C 	0.49643 0.14491 0.63541 0.51000
C 	C 	-0.00364 0.93210 0.06443 -0.11900
C 	C 	-0.00364 0.86001 0.13487 0.50700
C 	C 	0.49631 0.43186 0.56408 -0.11600
C 	C 	0.49625 0.35989 0.63470 0.51100
H 	H 	0.49601 0.75308 0.13241 0.41900
H 	H 	0.49620 0.25299 0.86849 0.41900
H 	H 	-0.00380 0.25278 0.63237 0.41900
H 	H 	-0.00400 0.75284 0.36854 0.41800
