data_crystal

_cell_length_a 5.62400
_cell_length_b 10.30300
_cell_length_c 13.26900
_cell_angle_alpha 79.44500
_cell_angle_beta  83.89300
_cell_angle_gamma 76.48800

_symmetry_space_group_name_	'P 1'
_symmetry_space_group_name_H-M	'P 1'

loop_
_symmetry_equiv_pos_as_xyz
  x,y,z

loop_
_atom_site_label
_atom_site_type_symbol
_atom_site_fract_x
_atom_site_fract_y
_atom_site_fract_z
_atom_site_charge
Mn	Mn	0.32040 0.07745 0.40549 1.28900
Mn	Mn	0.60020 0.61750 0.34244 1.28300
P 	P 	0.51270 0.85340 0.11920 0.49200
P 	P 	0.73950 0.22430 0.47240 0.52600
O 	O 	0.33050 0.85700 0.04160 -0.42300
O 	O 	0.77120 0.85340 0.07300 -0.35900
O 	O 	0.51470 0.73330 0.20340 -0.43600
O 	O 	0.55310 0.00440 0.26270 -0.51800
H 	H 	0.63040 0.92700 0.28080 0.29700
O 	O 	0.98220 0.05160 0.15210 -0.36200
O 	O 	0.08740 0.03190 0.30800 -0.47700
O 	O 	0.61730 0.33340 0.53530 -0.50000
O 	O 	0.00850 0.17900 0.48730 -0.52100
O 	O 	0.60860 0.10740 0.48580 -0.61000
O 	O 	0.83050 0.41670 0.31650 -0.50700
H 	H 	0.97910 0.38650 0.31520 0.32500
O 	O 	0.30460 0.28580 0.31690 -0.45100
O 	O 	0.36370 0.49120 0.31420 -0.44400
C 	C 	0.40900 0.00700 0.17720 -0.20300
H 	H 	0.43510 0.08300 0.12590 0.07400
C 	C 	0.14000 0.03350 0.21480 0.29600
C 	C 	0.70700 0.30710 0.33840 -0.14500
H 	H 	0.77420 0.24150 0.29210 0.11200
C 	C 	0.43700 0.36520 0.32260 0.37600
Mn	Mn	0.67960 0.92255 0.59451 1.31900
Mn	Mn	0.39980 0.38250 0.65756 1.27300
P 	P 	0.48730 0.14660 0.88080 0.44200
P 	P 	0.26050 0.77570 0.52760 0.42000
O 	O 	0.66950 0.14300 0.95840 -0.30500
O 	O 	0.22880 0.14660 0.92700 -0.35000
O 	O 	0.48530 0.26670 0.79660 -0.42400
O 	O 	0.44690 0.99560 0.73730 -0.29400
H 	H 	0.36960 0.07300 0.71920 0.07800
O 	O 	0.01780 0.94840 0.84790 -0.41500
O 	O 	0.91260 0.96810 0.69200 -0.40800
O 	O 	0.38270 0.66660 0.46470 -0.49100
O 	O 	0.99150 0.82100 0.51270 -0.36400
O 	O 	0.39140 0.89260 0.51420 -0.54400
O 	O 	0.16950 0.58330 0.68350 -0.50200
H 	H 	0.02090 0.61350 0.68480 0.26500
O 	O 	0.69540 0.71420 0.68310 -0.39800
O 	O 	0.63630 0.50880 0.68580 -0.39800
C 	C 	0.59100 0.99300 0.82280 -0.18600
H 	H 	0.56490 0.91700 0.87410 0.15500
C 	C 	0.86000 0.96650 0.78520 0.48400
C 	C 	0.29300 0.69290 0.66160 -0.14000
H 	H 	0.22580 0.75850 0.70790 0.09100
C 	C 	0.56300 0.63480 0.67740 0.37600
Mn	Mn	-0.00000 0.00000 -0.00000 1.20200
