data_crystal

_cell_length_a 14.31960
_cell_length_b 16.25500
_cell_length_c 8.85520
_cell_angle_alpha 90.00000
_cell_angle_beta  90.13400
_cell_angle_gamma 90.00000

_symmetry_space_group_name_	'P 1'
_symmetry_space_group_name_H-M	'P 1'

loop_
_symmetry_equiv_pos_as_xyz
  x,y,z

loop_
_atom_site_label
_atom_site_type_symbol
_atom_site_fract_x
_atom_site_fract_y
_atom_site_fract_z
_atom_site_charge
Ga	Ga	0.97318 0.12912 0.58679 2.06400
Ga	Ga	0.46346 0.27024 0.36563 2.06700
Zn	Zn	0.13163 0.16146 0.19065 1.23700
Zn	Zn	0.36469 0.03820 0.42192 1.24700
P 	P 	0.13760 0.03131 0.44737 0.59600
P 	P 	0.02529 0.21227 0.88804 0.60200
P 	P 	0.52757 0.13143 0.58800 0.63900
P 	P 	0.35484 0.15297 0.14662 0.63500
O 	O 	0.08230 0.06660 0.58140 -0.64300
O 	O 	0.09790 0.06320 0.29880 -0.51800
O 	O 	0.13060 0.93680 0.45240 -0.61400
O 	O 	0.23850 0.05670 0.47350 -0.46900
O 	O 	0.05320 0.15320 0.01410 -0.44400
O 	O 	0.95860 0.16550 0.78380 -0.60900
O 	O 	0.11240 0.23980 0.80150 -0.53000
O 	O 	0.97160 0.28590 0.94850 -0.66300
O 	O 	0.43090 0.09280 0.58020 -0.52900
O 	O 	0.53820 0.19820 0.46900 -0.67600
O 	O 	0.60560 0.07200 0.55930 -0.46300
O 	O 	0.54240 0.16770 0.74490 -0.62600
O 	O 	0.25300 0.14570 0.10700 -0.46800
O 	O 	0.40990 0.15660 0.99820 -0.63900
O 	O 	0.39220 0.07620 0.22610 -0.48800
O 	O 	0.36900 0.22830 0.24470 -0.70500
Ga	Ga	0.02682 0.62912 0.91321 2.06300
Ga	Ga	0.53654 0.77024 0.13437 2.06800
Zn	Zn	0.86837 0.66146 0.30935 1.23800
Zn	Zn	0.63531 0.53820 0.07808 1.24800
P 	P 	0.86240 0.53131 0.05263 0.58900
P 	P 	0.97471 0.71227 0.61196 0.62500
P 	P 	0.47243 0.63143 0.91200 0.63800
P 	P 	0.64516 0.65297 0.35338 0.63400
O 	O 	0.91770 0.56660 0.91860 -0.63300
O 	O 	0.90210 0.56320 0.20120 -0.52000
O 	O 	0.86940 0.43680 0.04760 -0.61600
O 	O 	0.76150 0.55670 0.02650 -0.47100
O 	O 	0.94680 0.65320 0.48590 -0.45300
O 	O 	0.04140 0.66550 0.71620 -0.62000
O 	O 	0.88760 0.73980 0.69850 -0.52900
O 	O 	0.02840 0.78590 0.55150 -0.67700
O 	O 	0.56910 0.59280 0.91980 -0.52700
O 	O 	0.46180 0.69820 0.03100 -0.67500
O 	O 	0.39440 0.57200 0.94070 -0.46300
O 	O 	0.45760 0.66770 0.75510 -0.62700
O 	O 	0.74700 0.64570 0.39300 -0.46800
O 	O 	0.59010 0.65660 0.50180 -0.63700
O 	O 	0.60780 0.57620 0.27390 -0.48700
O 	O 	0.63100 0.72830 0.25530 -0.70500
Ga	Ga	0.02682 0.87088 0.41321 2.06500
Ga	Ga	0.53654 0.72976 0.63437 2.06800
Zn	Zn	0.86837 0.83854 0.80935 1.23800
Zn	Zn	0.63531 0.96180 0.57808 1.24800
P 	P 	0.86240 0.96869 0.55263 0.59600
P 	P 	0.97471 0.78773 0.11196 0.60200
P 	P 	0.47243 0.86857 0.41200 0.63900
P 	P 	0.64516 0.84703 0.85338 0.63500
O 	O 	0.91770 0.93340 0.41860 -0.64300
O 	O 	0.90210 0.93680 0.70120 -0.51800
O 	O 	0.86940 0.06320 0.54760 -0.61400
O 	O 	0.76150 0.94330 0.52650 -0.46900
O 	O 	0.94680 0.84680 0.98590 -0.44400
O 	O 	0.04140 0.83450 0.21620 -0.60900
O 	O 	0.88760 0.76020 0.19850 -0.53000
O 	O 	0.02840 0.71410 0.05150 -0.66300
O 	O 	0.56910 0.90720 0.41980 -0.52900
O 	O 	0.46180 0.80180 0.53100 -0.67600
O 	O 	0.39440 0.92800 0.44070 -0.46300
O 	O 	0.45760 0.83230 0.25510 -0.62600
O 	O 	0.74700 0.85430 0.89300 -0.46800
O 	O 	0.59010 0.84340 0.00180 -0.63900
O 	O 	0.60780 0.92380 0.77390 -0.48800
O 	O 	0.63100 0.77170 0.75530 -0.70500
Ga	Ga	0.97318 0.37088 0.08679 2.06300
Ga	Ga	0.46346 0.22976 0.86563 2.06800
Zn	Zn	0.13163 0.33854 0.69065 1.23800
Zn	Zn	0.36469 0.46180 0.92192 1.24800
P 	P 	0.13760 0.46869 0.94737 0.58900
P 	P 	0.02529 0.28773 0.38804 0.62500
P 	P 	0.52757 0.36857 0.08800 0.63800
P 	P 	0.35484 0.34703 0.64662 0.63400
O 	O 	0.08230 0.43340 0.08140 -0.63300
O 	O 	0.09790 0.43680 0.79880 -0.52000
O 	O 	0.13060 0.56320 0.95240 -0.61600
O 	O 	0.23850 0.44330 0.97350 -0.47100
O 	O 	0.05320 0.34680 0.51410 -0.45300
O 	O 	0.95860 0.33450 0.28380 -0.62000
O 	O 	0.11240 0.26020 0.30150 -0.52900
O 	O 	0.97160 0.21410 0.44850 -0.67700
O 	O 	0.43090 0.40720 0.08020 -0.52700
O 	O 	0.53820 0.30180 0.96900 -0.67500
O 	O 	0.60560 0.42800 0.05930 -0.46300
O 	O 	0.54240 0.33230 0.24490 -0.62700
O 	O 	0.25300 0.35430 0.60700 -0.46800
O 	O 	0.40990 0.34340 0.49820 -0.63700
O 	O 	0.39220 0.42380 0.72610 -0.48700
O 	O 	0.36900 0.27170 0.74470 -0.70500
