data_crystal

_cell_length_a 23.56760
_cell_length_b 10.24150
_cell_length_c 16.23530
_cell_angle_alpha 90.00000
_cell_angle_beta  108.11500
_cell_angle_gamma 90.00000

_symmetry_space_group_name_	'P 1'
_symmetry_space_group_name_H-M	'P 1'

loop_
_symmetry_equiv_pos_as_xyz
  x,y,z

loop_
_atom_site_label
_atom_site_type_symbol
_atom_site_fract_x
_atom_site_fract_y
_atom_site_fract_z
_atom_site_charge
Ga	Ga	0.29799 0.09083 0.02449 2.06000
Zn	Zn	0.12257 0.94329 0.89092 1.24200
Zn	Zn	0.19794 0.75388 0.72244 1.25200
P 	P 	0.23336 0.01270 0.82455 0.61300
P 	P 	0.16927 0.84718 0.53668 0.57600
P 	P 	0.16584 0.66552 0.88370 0.52600
P 	P 	0.99910 0.87650 0.74600 -0.18400
O 	O 	0.24862 0.89070 0.78170 -0.43500
O 	O 	0.27750 0.01640 0.91590 -0.66800
O 	O 	0.24088 0.13300 0.77290 -0.44700
O 	O 	0.16880 0.01080 0.82280 -0.49500
O 	O 	0.14826 0.80350 0.61280 -0.44800
O 	O 	0.13550 0.02800 0.00070 -0.43800
O 	O 	0.23705 0.13060 0.07140 -0.70600
O 	O 	0.34423 0.24270 0.03420 -0.65300
O 	O 	0.14768 0.68980 0.78530 -0.42700
O 	O 	0.35024 0.97560 0.10210 -0.56400
O 	O 	0.13210 0.75920 0.92420 -0.40300
O 	O 	0.23348 0.68720 0.92600 -0.30700
O 	O 	0.04140 0.95780 0.81910 -0.51000
O 	O 	0.03420 0.78390 0.70740 -0.22400
P 	P 	0.48250 0.41300 0.78880 0.63100
Ga	Ga	0.79799 0.59083 0.02449 2.06100
Zn	Zn	0.62257 0.44329 0.89092 1.24300
Zn	Zn	0.69794 0.25388 0.72244 1.25200
P 	P 	0.73336 0.51270 0.82455 0.61000
P 	P 	0.66927 0.34718 0.53668 0.57600
P 	P 	0.66584 0.16552 0.88370 0.52600
P 	P 	0.49910 0.37650 0.74600 -0.18300
O 	O 	0.74862 0.39070 0.78170 -0.43000
O 	O 	0.77750 0.51640 0.91590 -0.67100
O 	O 	0.74088 0.63300 0.77290 -0.44800
O 	O 	0.66880 0.51080 0.82280 -0.49800
O 	O 	0.64826 0.30350 0.61280 -0.44800
O 	O 	0.63550 0.52800 0.00070 -0.43600
O 	O 	0.73705 0.63060 0.07140 -0.70400
O 	O 	0.84423 0.74270 0.03420 -0.64500
O 	O 	0.64768 0.18980 0.78530 -0.42600
O 	O 	0.85024 0.47560 0.10210 -0.56700
O 	O 	0.63210 0.25920 0.92420 -0.40100
O 	O 	0.73348 0.18720 0.92600 -0.30200
O 	O 	0.54140 0.45780 0.81910 -0.50800
O 	O 	0.53420 0.28390 0.70740 -0.22400
P 	P 	0.98250 0.91300 0.78880 0.63000
Ga	Ga	0.70201 0.09083 0.47551 2.06100
Zn	Zn	0.87743 0.94329 0.60908 1.24300
Zn	Zn	0.80206 0.75388 0.77756 1.25200
P 	P 	0.76664 0.01270 0.67545 0.61200
P 	P 	0.83073 0.84718 0.96332 0.57400
P 	P 	0.83416 0.66552 0.61630 0.52600
P 	P 	0.00090 0.87650 0.75400 -0.17900
O 	O 	0.75138 0.89070 0.71830 -0.43300
O 	O 	0.72250 0.01640 0.58410 -0.67200
O 	O 	0.75912 0.13300 0.72710 -0.44700
O 	O 	0.83120 0.01080 0.67720 -0.49700
O 	O 	0.85174 0.80350 0.88720 -0.44800
O 	O 	0.86450 0.02800 0.49930 -0.43600
O 	O 	0.76295 0.13060 0.42860 -0.70500
O 	O 	0.65577 0.24270 0.46580 -0.65000
O 	O 	0.85232 0.68980 0.71470 -0.42600
O 	O 	0.64976 0.97560 0.39790 -0.56700
O 	O 	0.86790 0.75920 0.57580 -0.40200
O 	O 	0.76652 0.68720 0.57400 -0.30500
O 	O 	0.95860 0.95780 0.68090 -0.50800
O 	O 	0.96580 0.78390 0.79260 -0.22400
P 	P 	0.51750 0.41300 0.71120 0.63100
Ga	Ga	0.20201 0.59083 0.47551 2.06100
Zn	Zn	0.37743 0.44329 0.60908 1.24300
Zn	Zn	0.30206 0.25388 0.77756 1.25200
P 	P 	0.26664 0.51270 0.67545 0.61000
P 	P 	0.33073 0.34718 0.96332 0.57900
P 	P 	0.33416 0.16552 0.61630 0.52600
P 	P 	0.50090 0.37650 0.75400 -0.18300
O 	O 	0.25138 0.39070 0.71830 -0.43000
O 	O 	0.22250 0.51640 0.58410 -0.67100
O 	O 	0.25912 0.63300 0.72710 -0.44800
O 	O 	0.33120 0.51080 0.67720 -0.49800
O 	O 	0.35174 0.30350 0.88720 -0.44700
O 	O 	0.36450 0.52800 0.49930 -0.43600
O 	O 	0.26295 0.63060 0.42860 -0.70400
O 	O 	0.15577 0.74270 0.46580 -0.64900
O 	O 	0.35232 0.18980 0.71470 -0.42600
O 	O 	0.14976 0.47560 0.39790 -0.56700
O 	O 	0.36790 0.25920 0.57580 -0.40200
O 	O 	0.26652 0.18720 0.57400 -0.30500
O 	O 	0.45860 0.45780 0.68090 -0.50800
O 	O 	0.46580 0.28390 0.79260 -0.22300
P 	P 	0.01750 0.91300 0.71120 0.62800
Ga	Ga	0.70201 0.90917 0.97551 2.06000
Zn	Zn	0.87743 0.05671 0.10908 1.24200
Zn	Zn	0.80206 0.24612 0.27756 1.25200
P 	P 	0.76664 0.98730 0.17545 0.61300
P 	P 	0.83073 0.15282 0.46332 0.57600
P 	P 	0.83416 0.33448 0.11630 0.52600
P 	P 	0.00090 0.12350 0.25400 -0.18400
O 	O 	0.75138 0.10930 0.21830 -0.43500
O 	O 	0.72250 0.98360 0.08410 -0.66800
O 	O 	0.75912 0.86700 0.22710 -0.44700
O 	O 	0.83120 0.98920 0.17720 -0.49500
O 	O 	0.85174 0.19650 0.38720 -0.44800
O 	O 	0.86450 0.97200 0.99930 -0.43800
O 	O 	0.76295 0.86940 0.92860 -0.70600
O 	O 	0.65577 0.75730 0.96580 -0.65300
O 	O 	0.85232 0.31020 0.21470 -0.42700
O 	O 	0.64976 0.02440 0.89790 -0.56400
O 	O 	0.86790 0.24080 0.07580 -0.40300
O 	O 	0.76652 0.31280 0.07400 -0.30700
O 	O 	0.95860 0.04220 0.18090 -0.51000
O 	O 	0.96580 0.21610 0.29260 -0.22400
P 	P 	0.51750 0.58700 0.21120 0.63100
Ga	Ga	0.20201 0.40917 0.97551 2.06100
Zn	Zn	0.37743 0.55671 0.10908 1.24300
Zn	Zn	0.30206 0.74612 0.27756 1.25200
P 	P 	0.26664 0.48730 0.17545 0.61000
P 	P 	0.33073 0.65282 0.46332 0.57600
P 	P 	0.33416 0.83448 0.11630 0.52600
P 	P 	0.50090 0.62350 0.25400 -0.18300
O 	O 	0.25138 0.60930 0.21830 -0.43000
O 	O 	0.22250 0.48360 0.08410 -0.67100
O 	O 	0.25912 0.36700 0.22710 -0.44800
O 	O 	0.33120 0.48920 0.17720 -0.49800
O 	O 	0.35174 0.69650 0.38720 -0.44800
O 	O 	0.36450 0.47200 0.99930 -0.43600
O 	O 	0.26295 0.36940 0.92860 -0.70400
O 	O 	0.15577 0.25730 0.96580 -0.64500
O 	O 	0.35232 0.81020 0.21470 -0.42600
O 	O 	0.14976 0.52440 0.89790 -0.56700
O 	O 	0.36790 0.74080 0.07580 -0.40100
O 	O 	0.26652 0.81280 0.07400 -0.30200
O 	O 	0.45860 0.54220 0.18090 -0.50800
O 	O 	0.46580 0.71610 0.29260 -0.22400
P 	P 	0.01750 0.08700 0.21120 0.63000
Ga	Ga	0.29799 0.90917 0.52449 2.06100
Zn	Zn	0.12257 0.05671 0.39092 1.24300
Zn	Zn	0.19794 0.24612 0.22244 1.25200
P 	P 	0.23336 0.98730 0.32455 0.61200
P 	P 	0.16927 0.15282 0.03668 0.57400
P 	P 	0.16584 0.33448 0.38370 0.52600
P 	P 	0.99910 0.12350 0.24600 -0.17900
O 	O 	0.24862 0.10930 0.28170 -0.43300
O 	O 	0.27750 0.98360 0.41590 -0.67200
O 	O 	0.24088 0.86700 0.27290 -0.44700
O 	O 	0.16880 0.98920 0.32280 -0.49700
O 	O 	0.14826 0.19650 0.11280 -0.44800
O 	O 	0.13550 0.97200 0.50070 -0.43600
O 	O 	0.23705 0.86940 0.57140 -0.70500
O 	O 	0.34423 0.75730 0.53420 -0.65000
O 	O 	0.14768 0.31020 0.28530 -0.42600
O 	O 	0.35024 0.02440 0.60210 -0.56700
O 	O 	0.13210 0.24080 0.42420 -0.40200
O 	O 	0.23348 0.31280 0.42600 -0.30500
O 	O 	0.04140 0.04220 0.31910 -0.50800
O 	O 	0.03420 0.21610 0.20740 -0.22400
P 	P 	0.48250 0.58700 0.28880 0.63100
Ga	Ga	0.79799 0.40917 0.52449 2.06100
Zn	Zn	0.62257 0.55671 0.39092 1.24300
Zn	Zn	0.69794 0.74612 0.22244 1.25200
P 	P 	0.73336 0.48730 0.32455 0.61000
P 	P 	0.66927 0.65282 0.03668 0.57900
P 	P 	0.66584 0.83448 0.38370 0.52600
P 	P 	0.49910 0.62350 0.24600 -0.18300
O 	O 	0.74862 0.60930 0.28170 -0.43000
O 	O 	0.77750 0.48360 0.41590 -0.67100
O 	O 	0.74088 0.36700 0.27290 -0.44800
O 	O 	0.66880 0.48920 0.32280 -0.49800
O 	O 	0.64826 0.69650 0.11280 -0.44700
O 	O 	0.63550 0.47200 0.50070 -0.43600
O 	O 	0.73705 0.36940 0.57140 -0.70400
O 	O 	0.84423 0.25730 0.53420 -0.64900
O 	O 	0.64768 0.81020 0.28530 -0.42600
O 	O 	0.85024 0.52440 0.60210 -0.56700
O 	O 	0.63210 0.74080 0.42420 -0.40200
O 	O 	0.73348 0.81280 0.42600 -0.30500
O 	O 	0.54140 0.54220 0.31910 -0.50800
O 	O 	0.53420 0.71610 0.20740 -0.22300
P 	P 	0.98250 0.08700 0.28880 0.62800
