data_crystal

_cell_length_a 6.46800
_cell_length_b 9.93910
_cell_length_c 9.93910
_cell_angle_alpha 119.44800
_cell_angle_beta  105.37600
_cell_angle_gamma 74.62430

_symmetry_space_group_name_	'P 1'
_symmetry_space_group_name_H-M	'P 1'

loop_
_symmetry_equiv_pos_as_xyz
  x,y,z

loop_
_atom_site_label
_atom_site_type_symbol
_atom_site_fract_x
_atom_site_fract_y
_atom_site_fract_z
_atom_site_charge
Co	Co	0.50000 0.00000 -0.00000 1.14100
Co	Co	-0.00000 0.84774 0.84774 1.08500
Co	Co	0.00000 0.15226 0.15226 1.05700
H 	H 	0.68820 0.57780 0.06240 0.02900
H 	H 	0.61550 0.45570 0.88390 0.07000
H 	H 	0.72250 0.67690 0.79530 0.27700
H 	H 	0.94160 0.67350 0.80330 0.24200
H 	H 	0.31180 0.06240 0.57780 -0.03400
H 	H 	0.38450 0.88390 0.45570 0.02400
H 	H 	0.27750 0.79530 0.67690 0.25400
H 	H 	0.05840 0.80330 0.67350 0.07100
H 	H 	0.31180 0.42220 0.93760 0.20100
H 	H 	0.38450 0.54430 0.11610 0.14300
H 	H 	0.27750 0.32310 0.20470 0.24800
H 	H 	0.05840 0.32650 0.19670 0.06600
H 	H 	0.68820 0.93760 0.42220 0.26400
H 	H 	0.61550 0.11610 0.54430 0.19000
H 	H 	0.72250 0.20470 0.32310 0.27100
H 	H 	0.94160 0.19670 0.32650 0.23600
H 	H 	0.15730 0.08210 0.91790 0.29900
H 	H 	0.84270 0.91790 0.08210 0.34700
C 	C 	0.42800 0.68191 0.95789 0.35000
C 	C 	0.56100 0.54544 0.98696 0.04400
C 	C 	0.57200 0.95789 0.68191 0.30000
C 	C 	0.43900 0.98696 0.54544 0.07300
C 	C 	0.57200 0.31809 0.04211 0.46300
C 	C 	0.43900 0.45456 0.01304 -0.49800
C 	C 	0.42800 0.04211 0.31809 0.51300
C 	C 	0.56100 0.01304 0.45456 -0.52700
O 	O 	0.22550 0.71037 0.95303 -0.46000
O 	O 	0.53290 0.75884 0.93774 -0.40300
O 	O 	0.82150 0.65789 0.73971 -0.51900
O 	O 	0.77450 0.95303 0.71037 -0.28000
O 	O 	0.46710 0.93774 0.75884 -0.40400
O 	O 	0.17850 0.73971 0.65789 -0.55500
O 	O 	0.77450 0.28963 0.04697 -0.37000
O 	O 	0.46710 0.24116 0.06226 -0.50500
O 	O 	0.17850 0.34211 0.26029 -0.55300
O 	O 	0.22550 0.04697 0.28963 -0.54900
O 	O 	0.53290 0.06226 0.24116 -0.50400
O 	O 	0.82150 0.26029 0.34211 -0.51800
O 	O 	0.16830 0.03458 0.96542 -0.83400
O 	O 	0.83170 0.96542 0.03458 -0.74500
