data_crystal

_cell_length_a 18.14800
_cell_length_b 9.66500
_cell_length_c 30.96900
_cell_angle_alpha 90.00000
_cell_angle_beta  90.39000
_cell_angle_gamma 90.00000

_symmetry_space_group_name_	'P 1'
_symmetry_space_group_name_H-M	'P 1'

loop_
_symmetry_equiv_pos_as_xyz
  x,y,z

loop_
_atom_site_label
_atom_site_type_symbol
_atom_site_fract_x
_atom_site_fract_y
_atom_site_fract_z
_atom_site_charge
C 	C 	0.26070 0.21840 0.22420 -0.07900
C 	C 	0.34880 0.96740 0.32180 0.37900
C 	C 	0.55310 0.19180 0.31520 -0.07900
C 	C 	0.41960 0.04750 0.32060 -0.07600
C 	C 	0.84460 0.19500 0.31850 0.39000
C 	C 	0.30030 0.44570 0.24740 -0.01700
H 	H 	0.33150 0.52130 0.24430 0.05300
C 	C 	0.05490 0.98730 0.31560 -0.07900
C 	C 	0.91840 0.11940 0.31720 -0.08000
C 	C 	0.24650 0.44740 0.27890 -0.07400
C 	C 	0.23760 0.56610 0.30870 0.34200
C 	C 	0.12710 0.91340 0.31390 0.37500
C 	C 	0.62490 0.26500 0.31270 0.37800
C 	C 	0.19810 0.33160 0.28240 -0.01800
H 	H 	0.16050 0.33210 0.30260 0.05500
C 	C 	0.44450 0.09750 0.28130 -0.01500
H 	H 	0.41670 0.08300 0.25630 0.05500
C 	C 	0.94190 0.06000 0.28010 -0.01300
H 	H 	0.91230 0.06350 0.25550 0.05300
C 	C 	0.32230 0.59490 0.55470 0.07900
H 	H 	0.36200 0.56000 0.57050 0.00100
C 	C 	0.20740 0.22020 0.25590 -0.01300
H 	H 	0.17700 0.14350 0.25930 0.04900
C 	C 	0.01120 0.99260 0.27840 -0.02000
H 	H 	0.02730 0.95250 0.25290 0.05300
C 	C 	0.30810 0.33280 0.22040 -0.01200
H 	H 	0.34490 0.33250 0.19960 0.05400
C 	C 	0.51060 0.16910 0.27900 -0.01300
H 	H 	0.52650 0.20220 0.25240 0.05500
C 	C 	0.46130 0.07260 0.35680 -0.01100
H 	H 	0.44510 0.03850 0.38320 0.05700
C 	C 	0.96220 0.11370 0.35430 -0.01700
H 	H 	0.94630 0.15440 0.37970 0.05000
C 	C 	0.21550 0.70270 0.50780 -0.07600
H 	H 	0.17640 0.74110 0.49240 0.07600
C 	C 	0.20960 0.68500 0.55210 0.04900
H 	H 	0.16740 0.71550 0.56610 0.00700
C 	C 	0.02990 0.04690 0.35300 -0.01600
H 	H 	0.05880 0.04240 0.37790 0.05500
C 	C 	0.52490 0.14510 0.35570 -0.01600
H 	H 	0.55040 0.16440 0.38120 0.05500
C 	C 	0.26690 0.09890 0.19490 0.33200
C 	C 	0.27690 0.66540 0.48670 -0.01800
C 	C 	0.28390 0.68970 0.43910 0.34000
C 	C 	0.32990 0.61160 0.51120 -0.09000
H 	H 	0.37370 0.58430 0.49830 0.08000
Co	Co	0.24838 0.77783 0.35853 1.19000
Co	Co	0.75078 0.40284 0.35836 1.15200
Co	Co	0.25145 0.83180 0.25126 1.19900
N 	N 	0.26300 0.62520 0.57475 -0.23800
O 	O 	0.30920 0.96900 0.28938 -0.43900
O 	O 	0.65600 0.29760 0.34786 -0.43500
O 	O 	0.15060 0.88300 0.27787 -0.43300
O 	O 	0.33550 0.90230 0.35632 -0.42800
O 	O 	0.80750 0.19220 0.28470 -0.43700
O 	O 	0.64870 0.28250 0.27541 -0.42500
O 	O 	0.15760 0.88660 0.34995 -0.43700
O 	O 	0.82780 0.25310 0.35283 -0.45600
O 	O 	0.27200 0.67750 0.30146 -0.50900
O 	O 	0.23380 0.98670 0.20392 -0.51700
O 	O 	0.30190 0.10850 0.16067 -0.37400
O 	O 	0.19860 0.55810 0.34090 -0.34800
O 	O 	0.23320 0.75260 0.42096 -0.41300
O 	O 	0.33530 0.64390 0.41910 -0.30100
C 	C 	0.73930 0.71840 0.27580 -0.07800
C 	C 	0.65120 0.46740 0.17820 0.38000
C 	C 	0.44690 0.69180 0.18480 -0.07800
C 	C 	0.58040 0.54750 0.17940 -0.07500
C 	C 	0.15540 0.69500 0.18150 0.39100
C 	C 	0.69970 0.94570 0.25260 -0.01600
H 	H 	0.66850 0.02130 0.25570 0.05400
C 	C 	0.94510 0.48730 0.18440 -0.07800
C 	C 	0.08160 0.61940 0.18280 -0.07900
C 	C 	0.75350 0.94740 0.22110 -0.07300
C 	C 	0.76240 0.06610 0.19130 0.34300
C 	C 	0.87290 0.41340 0.18610 0.37600
C 	C 	0.37510 0.76500 0.18730 0.37800
C 	C 	0.80190 0.83160 0.21760 -0.01800
H 	H 	0.83950 0.83210 0.19740 0.05500
C 	C 	0.55550 0.59750 0.21870 -0.01600
H 	H 	0.58330 0.58300 0.24370 0.05500
C 	C 	0.05810 0.56000 0.21990 -0.01300
H 	H 	0.08770 0.56350 0.24450 0.05300
C 	C 	0.67770 0.09490 0.94530 0.07900
H 	H 	0.63800 0.06000 0.92950 0.00100
C 	C 	0.79260 0.72020 0.24410 -0.01300
H 	H 	0.82300 0.64350 0.24070 0.04900
C 	C 	0.98880 0.49260 0.22160 -0.02000
H 	H 	0.97270 0.45250 0.24710 0.05300
C 	C 	0.69190 0.83280 0.27960 -0.01200
H 	H 	0.65510 0.83250 0.30040 0.05400
C 	C 	0.48940 0.66910 0.22100 -0.01300
H 	H 	0.47350 0.70220 0.24760 0.05500
C 	C 	0.53870 0.57260 0.14320 -0.01100
H 	H 	0.55490 0.53850 0.11680 0.05700
C 	C 	0.03780 0.61370 0.14570 -0.01700
H 	H 	0.05370 0.65440 0.12030 0.05000
C 	C 	0.78450 0.20270 0.99220 -0.07500
H 	H 	0.82360 0.24110 0.00760 0.07600
C 	C 	0.79040 0.18500 0.94790 0.04900
H 	H 	0.83260 0.21550 0.93390 0.00700
C 	C 	0.97010 0.54690 0.14700 -0.01600
H 	H 	0.94120 0.54240 0.12210 0.05500
C 	C 	0.47510 0.64510 0.14430 -0.01600
H 	H 	0.44960 0.66440 0.11880 0.05500
C 	C 	0.73310 0.59890 0.30510 0.33200
C 	C 	0.72310 0.16540 0.01330 -0.01900
C 	C 	0.71610 0.18970 0.06090 0.34000
C 	C 	0.67010 0.11160 0.98880 -0.08900
H 	H 	0.62630 0.08430 0.00170 0.08000
Co	Co	0.75162 0.27783 0.14147 1.19000
Co	Co	0.24922 0.90284 0.14164 1.15200
Co	Co	0.74855 0.33180 0.24874 1.19900
N 	N 	0.73700 0.12520 0.92525 -0.23800
O 	O 	0.69080 0.46900 0.21062 -0.43900
O 	O 	0.34400 0.79760 0.15214 -0.43500
O 	O 	0.84940 0.38300 0.22213 -0.43300
O 	O 	0.66450 0.40230 0.14368 -0.42800
O 	O 	0.19250 0.69220 0.21530 -0.43700
O 	O 	0.35130 0.78250 0.22459 -0.42500
O 	O 	0.84240 0.38660 0.15005 -0.43700
O 	O 	0.17220 0.75310 0.14717 -0.45600
O 	O 	0.72800 0.17750 0.19854 -0.50900
O 	O 	0.76620 0.48670 0.29608 -0.51700
O 	O 	0.69810 0.60850 0.33933 -0.37400
O 	O 	0.80140 0.05810 0.15910 -0.34800
O 	O 	0.76680 0.25260 0.07904 -0.41300
O 	O 	0.66470 0.14390 0.08090 -0.30100
C 	C 	0.73930 0.78160 0.77580 -0.07800
C 	C 	0.65120 0.03260 0.67820 0.38000
C 	C 	0.44690 0.80820 0.68480 -0.07800
C 	C 	0.58040 0.95250 0.67940 -0.07500
C 	C 	0.15540 0.80500 0.68150 0.39100
C 	C 	0.69970 0.55430 0.75260 -0.01600
H 	H 	0.66850 0.47870 0.75570 0.05400
C 	C 	0.94510 0.01270 0.68440 -0.07800
C 	C 	0.08160 0.88060 0.68280 -0.07900
C 	C 	0.75350 0.55260 0.72110 -0.07300
C 	C 	0.76240 0.43390 0.69130 0.34300
C 	C 	0.87290 0.08660 0.68610 0.37600
C 	C 	0.37510 0.73500 0.68730 0.37800
C 	C 	0.80190 0.66840 0.71760 -0.01800
H 	H 	0.83950 0.66790 0.69740 0.05500
C 	C 	0.55550 0.90250 0.71870 -0.01500
H 	H 	0.58330 0.91700 0.74370 0.05500
C 	C 	0.05810 0.94000 0.71990 -0.01300
H 	H 	0.08770 0.93650 0.74450 0.05300
C 	C 	0.67770 0.40510 0.44530 0.07900
H 	H 	0.63800 0.44000 0.42950 0.00100
C 	C 	0.79260 0.77980 0.74410 -0.01300
H 	H 	0.82300 0.85650 0.74070 0.04900
C 	C 	0.98880 0.00740 0.72160 -0.02000
H 	H 	0.97270 0.04750 0.74710 0.05300
C 	C 	0.69190 0.66720 0.77960 -0.01200
H 	H 	0.65510 0.66750 0.80040 0.05400
C 	C 	0.48940 0.83090 0.72100 -0.01300
H 	H 	0.47350 0.79780 0.74760 0.05500
C 	C 	0.53870 0.92740 0.64320 -0.01100
H 	H 	0.55490 0.96150 0.61680 0.05700
C 	C 	0.03780 0.88630 0.64570 -0.01700
H 	H 	0.05370 0.84560 0.62030 0.05000
C 	C 	0.78450 0.29730 0.49220 -0.07600
H 	H 	0.82360 0.25890 0.50760 0.07600
C 	C 	0.79040 0.31500 0.44790 0.04900
H 	H 	0.83260 0.28450 0.43390 0.00700
C 	C 	0.97010 0.95310 0.64700 -0.01600
H 	H 	0.94120 0.95760 0.62210 0.05500
C 	C 	0.47510 0.85490 0.64430 -0.01600
H 	H 	0.44960 0.83560 0.61880 0.05500
C 	C 	0.73310 0.90110 0.80510 0.33200
C 	C 	0.72310 0.33460 0.51330 -0.01800
C 	C 	0.71610 0.31030 0.56090 0.34000
C 	C 	0.67010 0.38840 0.48880 -0.09000
H 	H 	0.62630 0.41570 0.50170 0.08000
Co	Co	0.75162 0.22217 0.64147 1.19000
Co	Co	0.24922 0.59716 0.64164 1.15200
Co	Co	0.74855 0.16820 0.74874 1.19900
N 	N 	0.73700 0.37480 0.42525 -0.23800
O 	O 	0.69080 0.03100 0.71062 -0.43900
O 	O 	0.34400 0.70240 0.65214 -0.43500
O 	O 	0.84940 0.11700 0.72213 -0.43300
O 	O 	0.66450 0.09770 0.64368 -0.42800
O 	O 	0.19250 0.80780 0.71530 -0.43700
O 	O 	0.35130 0.71750 0.72459 -0.42500
O 	O 	0.84240 0.11340 0.65005 -0.43700
O 	O 	0.17220 0.74690 0.64717 -0.45600
O 	O 	0.72800 0.32250 0.69854 -0.50900
O 	O 	0.76620 0.01330 0.79608 -0.51700
O 	O 	0.69810 0.89150 0.83933 -0.37400
O 	O 	0.80140 0.44190 0.65910 -0.34800
O 	O 	0.76680 0.24740 0.57904 -0.41300
O 	O 	0.66470 0.35610 0.58090 -0.30100
C 	C 	0.26070 0.28160 0.72420 -0.07800
C 	C 	0.34880 0.53260 0.82180 0.38000
C 	C 	0.55310 0.30820 0.81520 -0.07800
C 	C 	0.41960 0.45250 0.82060 -0.07500
C 	C 	0.84460 0.30500 0.81850 0.39100
C 	C 	0.30030 0.05430 0.74740 -0.01600
H 	H 	0.33150 0.97870 0.74430 0.05400
C 	C 	0.05490 0.51270 0.81560 -0.07800
C 	C 	0.91840 0.38060 0.81720 -0.07900
C 	C 	0.24650 0.05260 0.77890 -0.07300
C 	C 	0.23760 0.93390 0.80870 0.34300
C 	C 	0.12710 0.58660 0.81390 0.37600
C 	C 	0.62490 0.23500 0.81270 0.37800
C 	C 	0.19810 0.16840 0.78240 -0.01800
H 	H 	0.16050 0.16790 0.80260 0.05500
C 	C 	0.44450 0.40250 0.78130 -0.01600
H 	H 	0.41670 0.41700 0.75630 0.05500
C 	C 	0.94190 0.44000 0.78010 -0.01300
H 	H 	0.91230 0.43650 0.75550 0.05300
C 	C 	0.32230 0.90510 0.05470 0.07900
H 	H 	0.36200 0.94000 0.07050 0.00100
C 	C 	0.20740 0.27980 0.75590 -0.01300
H 	H 	0.17700 0.35650 0.75930 0.04900
C 	C 	0.01120 0.50740 0.77840 -0.02000
H 	H 	0.02730 0.54750 0.75290 0.05300
C 	C 	0.30810 0.16720 0.72040 -0.01200
H 	H 	0.34490 0.16750 0.69960 0.05400
C 	C 	0.51060 0.33090 0.77900 -0.01300
H 	H 	0.52650 0.29780 0.75240 0.05500
C 	C 	0.46130 0.42740 0.85680 -0.01100
H 	H 	0.44510 0.46150 0.88320 0.05700
C 	C 	0.96220 0.38630 0.85430 -0.01700
H 	H 	0.94630 0.34560 0.87970 0.05000
C 	C 	0.21550 0.79730 0.00780 -0.07500
H 	H 	0.17640 0.75890 0.99240 0.07600
C 	C 	0.20960 0.81500 0.05210 0.04900
H 	H 	0.16740 0.78450 0.06610 0.00700
C 	C 	0.02990 0.45310 0.85300 -0.01600
H 	H 	0.05880 0.45760 0.87790 0.05500
C 	C 	0.52490 0.35490 0.85570 -0.01600
H 	H 	0.55040 0.33560 0.88120 0.05500
C 	C 	0.26690 0.40110 0.69490 0.33200
C 	C 	0.27690 0.83460 0.98670 -0.01900
C 	C 	0.28390 0.81030 0.93910 0.34000
C 	C 	0.32990 0.88840 0.01120 -0.08900
H 	H 	0.37370 0.91570 0.99830 0.08000
Co	Co	0.24838 0.72217 0.85853 1.19000
Co	Co	0.75078 0.09716 0.85836 1.15200
Co	Co	0.25145 0.66820 0.75126 1.19900
N 	N 	0.26300 0.87480 0.07475 -0.23800
O 	O 	0.30920 0.53100 0.78938 -0.43900
O 	O 	0.65600 0.20240 0.84786 -0.43500
O 	O 	0.15060 0.61700 0.77787 -0.43300
O 	O 	0.33550 0.59770 0.85632 -0.42800
O 	O 	0.80750 0.30780 0.78470 -0.43700
O 	O 	0.64870 0.21750 0.77541 -0.42500
O 	O 	0.15760 0.61340 0.84995 -0.43700
O 	O 	0.82780 0.24690 0.85283 -0.45600
O 	O 	0.27200 0.82250 0.80146 -0.50900
O 	O 	0.23380 0.51330 0.70392 -0.51700
O 	O 	0.30190 0.39150 0.66067 -0.37400
O 	O 	0.19860 0.94190 0.84090 -0.34800
O 	O 	0.23320 0.74740 0.92096 -0.41300
O 	O 	0.33530 0.85610 0.91910 -0.30100
