data_crystal

_cell_length_a 16.21500
_cell_length_b 17.17400
_cell_length_c 18.10400
_cell_angle_alpha 90.00000
_cell_angle_beta  90.00000
_cell_angle_gamma 90.00000

_symmetry_space_group_name_	'P 1'
_symmetry_space_group_name_H-M	'P 1'

loop_
_symmetry_equiv_pos_as_xyz
  x,y,z

loop_
_atom_site_label
_atom_site_type_symbol
_atom_site_fract_x
_atom_site_fract_y
_atom_site_fract_z
_atom_site_charge
Zn	Zn	0.27855 0.75678 0.76233 1.20200
Zn	Zn	0.22701 0.14339 0.12029 1.20500
Zn	Zn	0.88836 0.26907 0.82070 1.21200
Zn	Zn	0.31072 0.07961 0.27090 1.17000
Zn	Zn	0.22145 0.24322 0.26233 1.20200
Zn	Zn	0.27299 0.85661 0.62029 1.20500
Zn	Zn	0.61164 0.73093 0.32070 1.21200
Zn	Zn	0.18928 0.92039 0.77090 1.17000
Zn	Zn	0.72145 0.25678 0.73767 1.20200
Zn	Zn	0.77299 0.64339 0.37971 1.20500
Zn	Zn	0.11164 0.76907 0.67930 1.21200
Zn	Zn	0.68928 0.57961 0.22910 1.17000
Zn	Zn	0.77855 0.74322 0.23767 1.20200
Zn	Zn	0.72701 0.35661 0.87971 1.20500
Zn	Zn	0.38836 0.23093 0.17930 1.21200
Zn	Zn	0.81072 0.42039 0.72910 1.17000
H 	H 	0.22280 0.93110 0.99570 0.04900
H 	H 	0.36100 0.73760 0.98310 0.09300
H 	H 	0.37710 0.87370 0.16450 0.08400
H 	H 	0.45660 0.75820 0.16200 0.18800
H 	H 	0.41500 0.68750 0.11800 0.19300
H 	H 	0.48770 0.73680 0.08060 0.18900
H 	H 	0.03600 0.52680 0.73370 0.05100
H 	H 	0.28510 0.51510 0.75290 0.08800
H 	H 	0.14660 0.32140 0.77790 0.08400
H 	H 	0.35530 0.39860 0.76750 0.18700
H 	H 	0.30870 0.33960 0.82170 0.19500
H 	H 	0.30980 0.32350 0.73460 0.18700
H 	H 	0.53060 0.70710 0.74770 0.07700
H 	H 	0.71210 0.65660 0.60360 0.07400
H 	H 	0.50600 0.76760 0.53350 0.06000
H 	H 	0.64770 0.64500 0.79500 0.16000
H 	H 	0.69080 0.58630 0.73820 0.13100
H 	H 	0.73130 0.66960 0.75420 0.15800
H 	H 	0.27720 0.06890 0.49570 0.04800
H 	H 	0.13900 0.26240 0.48310 0.09200
H 	H 	0.12290 0.12630 0.66450 0.08300
H 	H 	0.04340 0.24180 0.66200 0.18800
H 	H 	0.08500 0.31250 0.61800 0.19200
H 	H 	0.01230 0.26320 0.58060 0.18800
H 	H 	0.46400 0.47320 0.23370 0.05100
H 	H 	0.21490 0.48490 0.25290 0.08800
H 	H 	0.35340 0.67860 0.27790 0.08400
H 	H 	0.14470 0.60140 0.26750 0.18700
H 	H 	0.19130 0.66040 0.32170 0.19500
H 	H 	0.19020 0.67650 0.23460 0.18700
H 	H 	0.96940 0.29290 0.24770 0.07600
H 	H 	0.78790 0.34340 0.10360 0.07400
H 	H 	0.99400 0.23240 0.03350 0.06000
H 	H 	0.85230 0.35500 0.29500 0.16000
H 	H 	0.80920 0.41370 0.23820 0.13100
H 	H 	0.76870 0.33040 0.25420 0.15800
H 	H 	0.77720 0.43110 0.50430 0.04800
H 	H 	0.63900 0.23760 0.51690 0.09200
H 	H 	0.62290 0.37370 0.33550 0.08300
H 	H 	0.54340 0.25820 0.33800 0.18800
H 	H 	0.58500 0.18750 0.38200 0.19200
H 	H 	0.51230 0.23680 0.41940 0.18900
H 	H 	0.96400 0.02680 0.76630 0.04900
H 	H 	0.71490 0.01510 0.74710 0.08600
H 	H 	0.85340 0.82140 0.72210 0.08400
H 	H 	0.64470 0.89860 0.73250 0.18700
H 	H 	0.69130 0.83960 0.67830 0.19500
H 	H 	0.69020 0.82350 0.76540 0.18600
H 	H 	0.46940 0.20710 0.75230 0.07600
H 	H 	0.28790 0.15660 0.89640 0.07300
H 	H 	0.49400 0.26760 0.96650 0.05900
H 	H 	0.35230 0.14500 0.70500 0.16000
H 	H 	0.30920 0.08630 0.76180 0.13100
H 	H 	0.26870 0.16960 0.74580 0.15700
H 	H 	0.72280 0.56890 0.00430 0.04800
H 	H 	0.86100 0.76240 0.01690 0.09100
H 	H 	0.87710 0.62630 0.83550 0.08300
H 	H 	0.95660 0.74180 0.83800 0.18800
H 	H 	0.91500 0.81250 0.88200 0.19200
H 	H 	0.98770 0.76320 0.91940 0.18800
H 	H 	0.53600 0.97320 0.26630 0.04900
H 	H 	0.78510 0.98490 0.24710 0.08600
H 	H 	0.64660 0.17860 0.22210 0.08400
H 	H 	0.85530 0.10140 0.23250 0.18700
H 	H 	0.80870 0.16040 0.17830 0.19500
H 	H 	0.80980 0.17650 0.26540 0.18600
H 	H 	0.03060 0.79290 0.25230 0.07700
H 	H 	0.21210 0.84340 0.39640 0.07400
H 	H 	0.00600 0.73240 0.46650 0.06000
H 	H 	0.14770 0.85500 0.20500 0.16000
H 	H 	0.19080 0.91370 0.26180 0.13100
H 	H 	0.23130 0.83040 0.24580 0.15800
C 	C 	0.27670 0.98820 0.12600 0.34500
C 	C 	0.29620 0.91340 0.08650 -0.04000
C 	C 	0.26200 0.89680 0.01710 -0.03600
C 	C 	0.28530 0.83120 0.98100 -0.03400
C 	C 	0.34330 0.78160 0.01080 -0.15400
C 	C 	0.37680 0.79470 0.08100 0.20600
C 	C 	0.35360 0.86210 0.11760 -0.15500
C 	C 	0.43950 0.73950 0.11320 -0.57600
C 	C 	0.99710 0.37900 0.76140 0.37000
C 	C 	0.07990 0.41950 0.75810 -0.04500
C 	C 	0.08460 0.49770 0.74340 -0.01900
C 	C 	0.16120 0.53420 0.74280 -0.04100
C 	C 	0.23300 0.48980 0.75330 -0.14700
C 	C 	0.22980 0.41010 0.76420 0.20500
C 	C 	0.15110 0.37560 0.76820 -0.14600
C 	C 	0.30760 0.36400 0.77270 -0.57700
C 	C 	0.41960 0.77110 0.66040 0.36100
C 	C 	0.50540 0.74130 0.64400 -0.04900
C 	C 	0.55200 0.70820 0.69890 -0.12800
C 	C 	0.62930 0.67630 0.68590 0.15300
C 	C 	0.65950 0.67840 0.61410 -0.12900
C 	C 	0.61380 0.71210 0.55710 -0.05000
C 	C 	0.53700 0.74400 0.57200 -0.02000
C 	C 	0.67920 0.64120 0.74900 -0.49000
C 	C 	0.16950 0.62140 0.73270 0.36900
C 	C 	0.25480 0.81680 0.90330 0.33000
C 	C 	0.64630 0.71030 0.47900 0.36500
C 	C 	0.22330 0.01180 0.62600 0.34600
C 	C 	0.20380 0.08660 0.58650 -0.04100
C 	C 	0.23800 0.10320 0.51710 -0.03400
C 	C 	0.21470 0.16880 0.48100 -0.03600
C 	C 	0.15670 0.21840 0.51080 -0.15300
C 	C 	0.12320 0.20530 0.58100 0.20500
C 	C 	0.14640 0.13790 0.61760 -0.15400
C 	C 	0.06050 0.26050 0.61320 -0.57500
C 	C 	0.50290 0.62100 0.26140 0.37000
C 	C 	0.42010 0.58050 0.25810 -0.04500
C 	C 	0.41540 0.50230 0.24340 -0.02000
C 	C 	0.33880 0.46580 0.24280 -0.04100
C 	C 	0.26700 0.51020 0.25330 -0.14700
C 	C 	0.27020 0.58990 0.26420 0.20600
C 	C 	0.34890 0.62440 0.26820 -0.14600
C 	C 	0.19240 0.63600 0.27270 -0.57700
C 	C 	0.08040 0.22890 0.16040 0.36100
C 	C 	0.99460 0.25870 0.14400 -0.04900
C 	C 	0.94800 0.29180 0.19890 -0.12800
C 	C 	0.87070 0.32370 0.18590 0.15300
C 	C 	0.84050 0.32160 0.11410 -0.12900
C 	C 	0.88620 0.28790 0.05710 -0.05000
C 	C 	0.96300 0.25600 0.07200 -0.02000
C 	C 	0.82080 0.35880 0.24900 -0.49000
C 	C 	0.33050 0.37860 0.23270 0.36900
C 	C 	0.24520 0.18320 0.40330 0.33000
C 	C 	0.85370 0.28970 0.97900 0.36400
C 	C 	0.72330 0.48820 0.37400 0.34700
C 	C 	0.70380 0.41340 0.41350 -0.04100
C 	C 	0.73800 0.39680 0.48290 -0.03400
C 	C 	0.71470 0.33120 0.51900 -0.03600
C 	C 	0.65670 0.28160 0.48920 -0.15300
C 	C 	0.62320 0.29470 0.41900 0.20500
C 	C 	0.64640 0.36210 0.38240 -0.15400
C 	C 	0.56050 0.23950 0.38680 -0.57500
C 	C 	0.00290 0.87900 0.73860 0.37100
C 	C 	0.92010 0.91950 0.74190 -0.04600
C 	C 	0.91540 0.99770 0.75660 -0.01700
C 	C 	0.83880 0.03420 0.75720 -0.04400
C 	C 	0.76700 0.98980 0.74670 -0.14300
C 	C 	0.77020 0.91010 0.73580 0.20400
C 	C 	0.84890 0.87560 0.73180 -0.14500
C 	C 	0.69240 0.86400 0.72730 -0.57600
C 	C 	0.58040 0.27110 0.83960 0.36100
C 	C 	0.49460 0.24130 0.85600 -0.05000
C 	C 	0.44800 0.20820 0.80110 -0.12700
C 	C 	0.37070 0.17630 0.81410 0.15200
C 	C 	0.34050 0.17840 0.88590 -0.12800
C 	C 	0.38620 0.21210 0.94290 -0.05200
C 	C 	0.46300 0.24400 0.92800 -0.01900
C 	C 	0.32080 0.14120 0.75100 -0.48900
C 	C 	0.83050 0.12140 0.76730 0.37000
C 	C 	0.74520 0.31680 0.59670 0.33100
C 	C 	0.35370 0.21030 0.02100 0.36600
C 	C 	0.77670 0.51180 0.87400 0.34800
C 	C 	0.79620 0.58660 0.91350 -0.04200
C 	C 	0.76200 0.60320 0.98290 -0.03200
C 	C 	0.78530 0.66880 0.01900 -0.03800
C 	C 	0.84330 0.71840 0.98920 -0.15000
C 	C 	0.87680 0.70530 0.91900 0.20300
C 	C 	0.85360 0.63790 0.88240 -0.15300
C 	C 	0.93950 0.76050 0.88680 -0.57400
C 	C 	0.49710 0.12100 0.23860 0.37100
C 	C 	0.57990 0.08050 0.24190 -0.04600
C 	C 	0.58460 0.00230 0.25660 -0.01700
C 	C 	0.66120 0.96580 0.25720 -0.04400
C 	C 	0.73300 0.01020 0.24670 -0.14300
C 	C 	0.72980 0.08990 0.23580 0.20400
C 	C 	0.65110 0.12440 0.23180 -0.14500
C 	C 	0.80760 0.13600 0.22730 -0.57600
C 	C 	0.91960 0.72890 0.33960 0.36100
C 	C 	0.00540 0.75870 0.35600 -0.04900
C 	C 	0.05200 0.79180 0.30110 -0.12800
C 	C 	0.12930 0.82370 0.31410 0.15300
C 	C 	0.15950 0.82160 0.38590 -0.12900
C 	C 	0.11380 0.78790 0.44290 -0.05000
C 	C 	0.03700 0.75600 0.42800 -0.02000
C 	C 	0.17920 0.85880 0.25100 -0.49000
C 	C 	0.66950 0.87860 0.26730 0.37000
C 	C 	0.75480 0.68320 0.09670 0.33100
C 	C 	0.14630 0.78970 0.52100 0.36500
O 	O 	0.22340 0.03270 0.09740 -0.49400
O 	O 	0.31540 0.00220 0.18470 -0.51000
O 	O 	0.93860 0.41190 0.72990 -0.49100
O 	O 	0.99430 0.31620 0.79660 -0.48800
O 	O 	0.38400 0.81170 0.61140 -0.49800
O 	O 	0.39050 0.75100 0.72110 -0.51400
O 	O 	0.10760 0.65910 0.71180 -0.49500
O 	O 	0.23880 0.64910 0.74690 -0.50300
O 	O 	0.29370 0.76410 0.86720 -0.48900
O 	O 	0.19820 0.85660 0.87780 -0.48600
O 	O 	0.60000 0.73770 0.42970 -0.48200
O 	O 	0.71670 0.68150 0.46970 -0.49100
O 	O 	0.20970 0.82550 0.70580 -0.96000
O 	O 	0.27660 0.96730 0.59740 -0.49400
O 	O 	0.18460 0.99780 0.68470 -0.51000
O 	O 	0.56140 0.58810 0.22990 -0.49100
O 	O 	0.50570 0.68380 0.29660 -0.48800
O 	O 	0.11600 0.18830 0.11140 -0.49800
O 	O 	0.10950 0.24900 0.22110 -0.51400
O 	O 	0.39240 0.34090 0.21180 -0.49500
O 	O 	0.26120 0.35090 0.24690 -0.50300
O 	O 	0.20630 0.23590 0.36720 -0.49000
O 	O 	0.30180 0.14340 0.37780 -0.48600
O 	O 	0.90000 0.26230 0.92970 -0.48200
O 	O 	0.78330 0.31850 0.96970 -0.49100
O 	O 	0.29030 0.17450 0.20580 -0.96000
O 	O 	0.77660 0.53270 0.40260 -0.49500
O 	O 	0.68460 0.50220 0.31530 -0.51100
O 	O 	0.06140 0.91190 0.77010 -0.49100
O 	O 	0.00570 0.81620 0.70340 -0.48900
O 	O 	0.61600 0.31170 0.88860 -0.49900
O 	O 	0.60950 0.25100 0.77890 -0.51400
O 	O 	0.89240 0.15910 0.78820 -0.49500
O 	O 	0.76120 0.14910 0.75310 -0.50300
O 	O 	0.70630 0.26410 0.63280 -0.49000
O 	O 	0.80180 0.35660 0.62220 -0.48600
O 	O 	0.40000 0.23770 0.07030 -0.48200
O 	O 	0.28330 0.18150 0.03030 -0.49100
O 	O 	0.79030 0.32550 0.79420 -0.96000
O 	O 	0.72340 0.46730 0.90260 -0.49500
O 	O 	0.81540 0.49780 0.81530 -0.51100
O 	O 	0.43860 0.08810 0.27010 -0.49100
O 	O 	0.49430 0.18380 0.20340 -0.48800
O 	O 	0.88400 0.68830 0.38860 -0.49800
O 	O 	0.89050 0.74900 0.27890 -0.51400
O 	O 	0.60760 0.84090 0.28820 -0.49500
O 	O 	0.73880 0.85090 0.25310 -0.50300
O 	O 	0.79370 0.73590 0.13280 -0.49000
O 	O 	0.69820 0.64340 0.12220 -0.48600
O 	O 	0.10000 0.76230 0.57030 -0.48200
O 	O 	0.21670 0.81850 0.53030 -0.49100
O 	O 	0.70970 0.67450 0.29420 -0.96000
