data_crystal

_cell_length_a 10.50400
_cell_length_b 12.10600
_cell_length_c 12.41100
_cell_angle_alpha 66.78000
_cell_angle_beta  70.34000
_cell_angle_gamma 65.04000

_symmetry_space_group_name_	'P 1'
_symmetry_space_group_name_H-M	'P 1'

loop_
_symmetry_equiv_pos_as_xyz
  x,y,z

loop_
_atom_site_label
_atom_site_type_symbol
_atom_site_fract_x
_atom_site_fract_y
_atom_site_fract_z
_atom_site_charge
O 	O 	0.81080 0.59100 0.82300 -0.46300
Co	Co	0.84096 0.40953 0.90888 1.18200
O 	O 	0.82200 0.20450 0.05380 -0.39300
O 	O 	0.69710 0.39900 0.06480 -0.57400
O 	O 	0.80190 0.35800 0.79650 -0.47100
O 	O 	0.56830 0.39480 0.87890 -0.44500
O 	O 	0.57140 0.64790 0.87020 -0.45100
O 	O 	0.82010 0.92430 0.42960 -0.24600
O 	O 	0.81020 0.97950 0.77370 -0.22000
O 	O 	0.80510 0.30550 0.42790 -0.24700
N 	N 	0.26660 0.22530 0.94430 -0.14800
N 	N 	0.04700 0.34920 0.92200 -0.23900
N 	N 	0.81800 0.94710 0.60280 -0.20200
N 	N 	0.81450 0.14250 0.60190 -0.20200
N 	N 	0.81890 0.11480 0.42440 -0.21300
C 	C 	0.81250 0.01990 0.66770 0.25800
C 	C 	0.81090 0.19550 0.48140 0.28200
C 	C 	0.81680 0.99130 0.48220 0.29200
C 	C 	0.49630 0.11340 0.00660 -0.26100
H 	H 	0.49390 0.18910 0.01110 0.11800
C 	C 	0.38550 0.11090 0.97290 0.23000
C 	C 	0.68080 0.35200 0.80840 0.48400
C 	C 	0.13390 0.42340 0.87860 0.00400
H 	H 	0.10390 0.51150 0.84480 0.03600
C 	C 	0.83550 0.16160 0.29330 0.15000
H 	H 	0.89430 0.09030 0.26120 0.01800
H 	H 	0.88660 0.22200 0.26170 0.00500
C 	C 	0.26880 0.34840 0.89270 0.01200
H 	H 	0.34760 0.37460 0.87170 0.04900
C 	C 	0.67270 0.28490 0.73180 -0.45700
H 	H 	0.61410 0.34650 0.67380 0.18200
H 	H 	0.62690 0.22160 0.78220 0.19500
C 	C 	0.73860 0.27580 0.11430 0.43100
C 	C 	0.38760 0.99820 0.96600 -0.17600
H 	H 	0.31240 0.99700 0.94330 0.12100
C 	C 	0.13030 0.23140 0.96080 0.11700
H 	H 	0.09940 0.16120 0.99540 0.02100
C 	C 	0.82070 0.22000 0.66600 0.14300
H 	H 	0.86200 0.28440 0.60900 0.02500
H 	H 	0.88260 0.16560 0.72320 0.02900
C 	C 	0.69650 0.22530 0.24880 -0.45500
H 	H 	0.64830 0.16430 0.27040 0.18200
H 	H 	0.63280 0.29430 0.28290 0.18600
C 	C 	0.67790 0.79970 0.72270 -0.45800
H 	H 	0.61760 0.86490 0.76230 0.18700
H 	H 	0.63400 0.81250 0.65940 0.17800
C 	C 	0.68580 0.67010 0.81200 0.47500
C 	C 	0.82430 0.81390 0.66850 0.14900
H 	H 	0.87680 0.78150 0.73180 0.02600
H 	H 	0.87670 0.76230 0.61410 0.02100
O 	O 	0.18920 0.40900 0.17700 -0.48800
Co	Co	0.15904 0.59047 0.09112 1.14700
O 	O 	0.17800 0.79550 0.94620 -0.33800
O 	O 	0.30290 0.60100 0.93520 -0.52100
O 	O 	0.19810 0.64200 0.20350 -0.48800
O 	O 	0.43170 0.60520 0.12110 -0.48200
O 	O 	0.42860 0.35210 0.12980 -0.48400
O 	O 	0.17990 0.07570 0.57040 -0.25100
O 	O 	0.18980 0.02050 0.22630 -0.27600
O 	O 	0.19490 0.69450 0.57210 -0.25000
N 	N 	0.73340 0.77470 0.05570 -0.11400
N 	N 	0.95300 0.65080 0.07800 -0.24700
N 	N 	0.18200 0.05290 0.39720 -0.21600
N 	N 	0.18550 0.85750 0.39810 -0.20900
N 	N 	0.18110 0.88520 0.57560 -0.20600
C 	C 	0.18750 0.98010 0.33230 0.29400
C 	C 	0.18910 0.80450 0.51860 0.28100
C 	C 	0.18320 0.00870 0.51780 0.27700
C 	C 	0.50370 0.88660 0.99340 0.08900
H 	H 	0.50610 0.81090 0.98890 0.03700
C 	C 	0.61450 0.88910 0.02710 -0.04100
C 	C 	0.31920 0.64800 0.19160 0.47900
C 	C 	0.86610 0.57660 0.12140 0.00400
H 	H 	0.89610 0.48850 0.15520 0.02800
C 	C 	0.16450 0.83840 0.70670 0.13800
H 	H 	0.10570 0.90970 0.73880 0.02800
H 	H 	0.11340 0.77800 0.73830 0.01200
C 	C 	0.73120 0.65160 0.10730 -0.02200
H 	H 	0.65240 0.62540 0.12830 0.04800
C 	C 	0.32730 0.71510 0.26820 -0.45900
H 	H 	0.38590 0.65350 0.32620 0.18300
H 	H 	0.37310 0.77840 0.21780 0.18100
C 	C 	0.26140 0.72420 0.88570 0.41800
C 	C 	0.61240 0.00180 0.03400 0.04400
H 	H 	0.68760 0.00300 0.05670 0.02700
C 	C 	0.86970 0.76860 0.03920 0.09100
H 	H 	0.90060 0.83880 0.00460 0.00400
C 	C 	0.17930 0.78000 0.33400 0.14900
H 	H 	0.13800 0.71560 0.39100 0.01900
H 	H 	0.11740 0.83440 0.27680 0.01700
C 	C 	0.30350 0.77470 0.75120 -0.43700
H 	H 	0.35170 0.83570 0.72960 0.17900
H 	H 	0.36720 0.70570 0.71710 0.18100
C 	C 	0.32210 0.20030 0.27730 -0.47100
H 	H 	0.38240 0.13510 0.23770 0.18400
H 	H 	0.36600 0.18750 0.34060 0.18000
C 	C 	0.31420 0.32990 0.18800 0.47500
C 	C 	0.17570 0.18610 0.33150 0.16200
H 	H 	0.12320 0.21850 0.26820 0.00800
H 	H 	0.12330 0.23770 0.38590 0.01200
Co	Co	0.50000 0.50000 -0.00000 1.15700
