data_crystal

_cell_length_a 10.79200
_cell_length_b 13.88900
_cell_length_c 19.73900
_cell_angle_alpha 90.00000
_cell_angle_beta  100.91000
_cell_angle_gamma 90.00000

_symmetry_space_group_name_	'P 1'
_symmetry_space_group_name_H-M	'P 1'

loop_
_symmetry_equiv_pos_as_xyz
  x,y,z

loop_
_atom_site_label
_atom_site_type_symbol
_atom_site_fract_x
_atom_site_fract_y
_atom_site_fract_z
_atom_site_charge
Ho	Ho	0.15432 0.56839 0.05714 1.58400
Ho	Ho	0.84568 0.43161 0.94285 1.58400
Ho	Ho	0.15432 0.93161 0.55714 1.58800
Ho	Ho	0.84568 0.06839 0.44285 1.58800
Cu	Cu	0.75762 0.56994 0.28501 0.89300
Cu	Cu	0.75762 0.93006 0.78501 0.89200
Cu	Cu	0.24238 0.06994 0.21499 0.89200
Cu	Cu	0.24238 0.43006 0.71499 0.89300
H 	H 	0.21790 0.24720 0.95360 0.43600
H 	H 	0.78210 0.75280 0.04640 0.43600
H 	H 	0.10420 0.73740 0.71280 0.07200
H 	H 	0.78210 0.74720 0.54640 0.43700
H 	H 	0.89580 0.26260 0.28720 0.07200
H 	H 	0.78620 0.73760 0.83680 0.00600
H 	H 	0.23350 0.88710 0.14010 0.01200
H 	H 	0.73290 0.65290 0.06730 0.43100
H 	H 	0.50000 0.99900 0.28000 0.01800
H 	H 	0.78620 0.76240 0.33680 0.00600
H 	H 	0.27110 0.17720 0.51070 0.41900
H 	H 	0.23350 0.61290 0.64010 0.01100
H 	H 	0.21380 0.23760 0.66320 0.00600
H 	H 	0.27110 0.32280 0.01070 0.41600
H 	H 	0.76650 0.11290 0.85990 0.01200
H 	H 	0.76650 0.38710 0.35990 0.01100
H 	H 	0.21380 0.26240 0.16320 0.00600
H 	H 	0.50000 0.49900 0.22000 0.01800
H 	H 	0.97350 0.62980 0.21370 0.03500
H 	H 	0.50000 0.50100 0.78000 0.01800
H 	H 	0.73290 0.84710 0.56730 0.43300
H 	H 	0.97350 0.87020 0.71370 0.03400
H 	H 	0.72890 0.67720 0.98930 0.41600
H 	H 	0.02650 0.37020 0.78630 0.03500
H 	H 	0.02650 0.12980 0.28630 0.03400
H 	H 	0.10420 0.76260 0.21280 0.07400
H 	H 	0.38580 0.35890 0.21270 0.07600
H 	H 	0.26710 0.34710 0.93270 0.43100
H 	H 	0.50000 0.00100 0.72000 0.01800
H 	H 	0.21790 0.25280 0.45360 0.43700
H 	H 	0.38580 0.14110 0.71270 0.07600
H 	H 	0.61420 0.64110 0.78730 0.07600
H 	H 	0.61420 0.85890 0.28730 0.07600
H 	H 	0.72890 0.82280 0.48930 0.41900
H 	H 	0.89580 0.23740 0.78720 0.07400
H 	H 	0.26710 0.15290 0.43270 0.43300
C 	C 	0.96120 0.23530 0.76260 -0.06900
C 	C 	0.15140 0.26320 0.19000 0.05200
C 	C 	0.69040 0.38030 0.32910 0.05400
C 	C 	0.46720 0.94680 0.25290 0.05800
C 	C 	0.49040 0.78260 0.21810 -0.01300
C 	C 	0.90320 0.85550 0.54040 0.75600
C 	C 	0.01720 0.65220 0.77300 -0.01300
C 	C 	0.89010 0.06910 0.72590 0.32400
C 	C 	0.53640 0.86230 0.25760 -0.08200
C 	C 	0.46360 0.36230 0.24240 -0.08200
C 	C 	0.30960 0.61970 0.67090 0.05400
C 	C 	0.11930 0.06750 0.65210 0.31300
C 	C 	0.69040 0.11970 0.82910 0.05400
C 	C 	0.10990 0.93090 0.27410 0.32400
C 	C 	0.03880 0.73530 0.73740 -0.06500
C 	C 	0.90320 0.64450 0.04040 0.75700
C 	C 	0.50960 0.28260 0.28190 -0.01300
C 	C 	0.09680 0.35550 0.95960 0.75700
C 	C 	0.03920 0.18410 0.26100 0.04100
C 	C 	0.50960 0.21740 0.78190 -0.01300
C 	C 	0.43250 0.30660 0.78170 0.30900
C 	C 	0.10990 0.56910 0.77410 0.32400
C 	C 	0.03880 0.76470 0.23740 -0.06900
C 	C 	0.03920 0.31590 0.76100 0.04500
C 	C 	0.46720 0.55320 0.75290 0.05800
C 	C 	0.96080 0.81590 0.73900 0.04100
C 	C 	0.69350 0.28760 0.86910 0.31000
C 	C 	0.91640 0.84830 0.30770 -0.08700
C 	C 	0.53640 0.63770 0.75760 -0.08200
C 	C 	0.11930 0.43250 0.15210 0.31500
C 	C 	0.53280 0.05320 0.74710 0.05800
C 	C 	0.62770 0.20750 0.82590 -0.07400
C 	C 	0.08360 0.34830 0.19230 -0.08900
C 	C 	0.56750 0.69340 0.21830 0.30900
C 	C 	0.77560 0.68540 0.03540 -1.34200
C 	C 	0.08360 0.15170 0.69230 -0.08700
C 	C 	0.88070 0.93250 0.34790 0.31300
C 	C 	0.88070 0.56750 0.84790 0.31500
C 	C 	0.37230 0.79250 0.17410 -0.07400
C 	C 	0.30960 0.88030 0.17090 0.05400
C 	C 	0.98280 0.34780 0.22700 -0.01300
C 	C 	0.96080 0.68410 0.23900 0.04500
C 	C 	0.30650 0.71240 0.13090 0.31000
C 	C 	0.69350 0.21240 0.36910 0.31000
C 	C 	0.77560 0.81460 0.53540 -1.34900
C 	C 	0.53280 0.44680 0.24710 0.05800
C 	C 	0.62770 0.29250 0.32590 -0.07400
C 	C 	0.22440 0.18540 0.46460 -1.34900
C 	C 	0.22440 0.31460 0.96460 -1.34200
C 	C 	0.46360 0.13770 0.74240 -0.08200
C 	C 	0.01720 0.84780 0.27300 -0.01300
C 	C 	0.96120 0.26470 0.26260 -0.06500
C 	C 	0.15140 0.23680 0.69000 0.05200
C 	C 	0.98280 0.15220 0.72700 -0.01300
C 	C 	0.09680 0.14450 0.45960 0.75600
C 	C 	0.56750 0.80660 0.71830 0.30900
C 	C 	0.30650 0.78760 0.63090 0.31000
C 	C 	0.84860 0.73680 0.81000 0.05200
C 	C 	0.37230 0.70750 0.67410 -0.07400
C 	C 	0.89010 0.43090 0.22590 0.32400
C 	C 	0.84860 0.76320 0.31000 0.05200
C 	C 	0.43250 0.19340 0.28170 0.30900
C 	C 	0.91640 0.65170 0.80770 -0.08900
C 	C 	0.49040 0.71740 0.71810 -0.01300
N 	N 	0.86780 0.68300 0.27620 -0.21500
N 	N 	0.64510 0.45620 0.28920 -0.21300
N 	N 	0.35490 0.54380 0.71080 -0.21300
N 	N 	0.86780 0.81700 0.77620 -0.21500
N 	N 	0.64510 0.04380 0.78920 -0.21200
N 	N 	0.13220 0.31700 0.72380 -0.21500
N 	N 	0.35490 0.95620 0.21080 -0.21200
N 	N 	0.13220 0.18300 0.22380 -0.21500
O 	O 	0.94220 0.49090 0.84900 -0.37200
O 	O 	0.28550 0.86630 0.66110 -0.36900
O 	O 	0.90080 0.47980 0.28080 -0.38200
O 	O 	0.78790 0.57640 0.87700 -0.41700
O 	O 	0.08010 0.43910 0.98210 -0.65500
O 	O 	0.05780 0.99090 0.65100 -0.37000
O 	O 	0.61310 0.84050 0.77920 -0.38200
O 	O 	0.26490 0.77440 0.56840 -0.39300
O 	O 	0.00070 0.69120 0.06980 -0.50900
O 	O 	0.41570 0.16000 0.33630 -0.31300
O 	O 	0.80770 0.44090 0.17460 -0.30600
O 	O 	0.41570 0.34000 0.83630 -0.31200
O 	O 	0.71450 0.13370 0.33890 -0.36900
O 	O 	0.94220 0.00910 0.34900 -0.37000
O 	O 	0.61310 0.65950 0.27920 -0.38100
O 	O 	0.80770 0.05910 0.67460 -0.30600
O 	O 	0.91990 0.56090 0.01790 -0.65500
O 	O 	0.08010 0.06090 0.48210 -0.65700
O 	O 	0.73510 0.22560 0.43160 -0.39300
O 	O 	0.73510 0.27440 0.93160 -0.39200
O 	O 	0.21210 0.07640 0.62300 -0.41700
O 	O 	0.99930 0.30880 0.93020 -0.50900
O 	O 	0.00070 0.80880 0.56980 -0.50700
O 	O 	0.26490 0.72560 0.06840 -0.39200
O 	O 	0.09920 0.97980 0.21920 -0.38000
O 	O 	0.91990 0.93910 0.51790 -0.65700
O 	O 	0.09920 0.52020 0.71920 -0.38200
O 	O 	0.19230 0.55910 0.82540 -0.30600
O 	O 	0.90080 0.02020 0.78080 -0.38000
O 	O 	0.05780 0.50910 0.15100 -0.37200
O 	O 	0.19230 0.94090 0.32540 -0.30600
O 	O 	0.71450 0.36630 0.83890 -0.36800
O 	O 	0.58430 0.84000 0.66370 -0.31300
O 	O 	0.78790 0.92360 0.37700 -0.41700
O 	O 	0.38690 0.15950 0.22080 -0.38200
O 	O 	0.38690 0.34050 0.72080 -0.38100
O 	O 	0.99930 0.19120 0.43020 -0.50700
O 	O 	0.28550 0.63370 0.16110 -0.36800
O 	O 	0.58430 0.66000 0.16370 -0.31200
O 	O 	0.21210 0.42360 0.12300 -0.41700
