data_crystal

_cell_length_a 13.94500
_cell_length_b 20.58500
_cell_length_c 30.63300
_cell_angle_alpha 90.00000
_cell_angle_beta  90.00000
_cell_angle_gamma 98.79000

_symmetry_space_group_name_	'P 1'
_symmetry_space_group_name_H-M	'P 1'

loop_
_symmetry_equiv_pos_as_xyz
  x,y,z

loop_
_atom_site_label
_atom_site_type_symbol
_atom_site_fract_x
_atom_site_fract_y
_atom_site_fract_z
_atom_site_charge
Eu	Eu	0.97610 0.62514 0.44875 1.25600
Eu	Eu	0.53894 0.89492 0.69023 1.55400
Eu	Eu	0.02390 0.37486 0.55125 1.25600
Eu	Eu	0.96106 0.60508 0.19023 1.55400
Eu	Eu	0.46106 0.10508 0.30977 1.55400
Eu	Eu	0.47610 0.12514 0.05125 1.25400
Eu	Eu	0.52390 0.87486 0.94875 1.25400
Eu	Eu	0.03894 0.39492 0.80977 1.55400
Cu	Cu	0.50428 0.24137 0.84256 0.89500
Cu	Cu	0.99572 0.25863 0.34256 0.89500
Cu	Cu	0.50815 0.78061 0.47785 0.89600
Cu	Cu	0.00428 0.74137 0.65744 0.89500
Cu	Cu	0.47311 0.61097 0.81540 0.89400
Cu	Cu	0.97311 0.11097 0.68460 0.89500
Cu	Cu	0.52689 0.38903 0.18460 0.89500
Cu	Cu	0.02689 0.88903 0.31540 0.89600
Cu	Cu	0.00815 0.28061 0.02215 0.89700
Cu	Cu	0.49185 0.21939 0.52215 0.89700
Cu	Cu	0.99185 0.71939 0.97785 0.89700
Cu	Cu	0.49572 0.75863 0.15744 0.89600
H 	H 	0.69400 0.70420 0.93360 0.07500
H 	H 	0.93070 0.20550 0.75320 0.01800
H 	H 	0.32010 0.91130 0.38000 0.05300
H 	H 	0.64240 0.54610 0.82670 0.00700
H 	H 	0.34160 0.30490 0.82000 -0.00300
H 	H 	0.90690 0.63390 0.71820 0.03100
H 	H 	0.07460 0.29500 0.92700 0.02600
H 	H 	0.81350 0.22150 0.03980 -0.00800
H 	H 	0.31350 0.72150 0.46020 -0.00800
H 	H 	0.30370 0.72950 0.01890 0.06400
H 	H 	0.15840 0.19510 0.32000 -0.00200
H 	H 	0.73860 0.89060 0.25580 0.07000
H 	H 	0.22150 0.95750 0.29350 -0.00700
H 	H 	0.35760 0.45390 0.17330 0.00700
H 	H 	0.85760 0.95390 0.32670 0.00700
H 	H 	0.29970 0.23070 0.38460 0.05700
H 	H 	0.29820 0.72680 0.70640 0.07900
H 	H 	0.76140 0.60940 0.75580 0.07000
H 	H 	0.81740 0.78040 0.96880 0.01700
H 	H 	0.57460 0.79500 0.57300 0.02600
H 	H 	0.43070 0.70550 0.74680 0.01700
H 	H 	0.94700 0.81170 0.39340 0.01500
H 	H 	0.55300 0.68830 0.89340 0.01400
H 	H 	0.72150 0.45750 0.20650 -0.00800
H 	H 	0.27850 0.54250 0.79350 -0.00800
H 	H 	0.94100 0.25880 0.43910 0.02500
H 	H 	0.77850 0.04250 0.70650 -0.00700
H 	H 	0.44100 0.75880 0.06090 0.02500
H 	H 	0.59310 0.86610 0.21820 0.03100
H 	H 	0.17990 0.58870 0.88000 0.05300
H 	H 	0.44700 0.31170 0.10660 0.01400
H 	H 	0.45770 0.88870 0.41620 0.03300
H 	H 	0.18650 0.77850 0.96020 -0.00800
H 	H 	0.31740 0.28040 0.53120 0.01700
H 	H 	0.09310 0.36610 0.28180 0.03100
H 	H 	0.19630 0.77050 0.51890 0.06400
H 	H 	0.26140 0.10940 0.74420 0.07000
H 	H 	0.05900 0.74120 0.56090 0.02500
H 	H 	0.92540 0.70500 0.07300 0.02600
H 	H 	0.69630 0.27050 0.98110 0.06400
H 	H 	0.79400 0.20550 0.33230 0.01400
H 	H 	0.68650 0.27850 0.53980 -0.00800
H 	H 	0.79970 0.73070 0.11540 0.05700
H 	H 	0.04230 0.61130 0.91620 0.03300
H 	H 	0.20180 0.77320 0.20640 0.07900
H 	H 	0.23860 0.39060 0.24420 0.07000
H 	H 	0.14240 0.04610 0.67330 0.00700
H 	H 	0.19400 0.20420 0.56640 0.07500
H 	H 	0.67990 0.08870 0.62000 0.05300
H 	H 	0.20030 0.26930 0.88460 0.05700
H 	H 	0.18260 0.21960 0.03120 0.01700
H 	H 	0.40690 0.13390 0.78180 0.03100
H 	H 	0.29400 0.70550 0.16770 0.01400
H 	H 	0.95770 0.38870 0.08380 0.03300
H 	H 	0.80370 0.22950 0.48110 0.06400
H 	H 	0.54230 0.11130 0.58380 0.03300
H 	H 	0.56930 0.29450 0.25320 0.01700
H 	H 	0.79820 0.22680 0.79360 0.07900
H 	H 	0.55900 0.24120 0.93910 0.02500
H 	H 	0.20600 0.79450 0.66770 0.01400
H 	H 	0.30600 0.29580 0.06640 0.07500
H 	H 	0.82010 0.41130 0.12000 0.05300
H 	H 	0.80600 0.79580 0.43360 0.07500
H 	H 	0.65840 0.69510 0.18000 -0.00300
H 	H 	0.70030 0.76930 0.61540 0.05700
H 	H 	0.42540 0.20500 0.42700 0.02600
H 	H 	0.68260 0.71960 0.46880 0.01700
H 	H 	0.84160 0.80490 0.68000 -0.00200
H 	H 	0.70180 0.27320 0.29360 0.07900
H 	H 	0.70600 0.29450 0.83230 0.01400
H 	H 	0.06930 0.79450 0.24680 0.01800
H 	H 	0.05300 0.18830 0.60660 0.01500
C 	C 	0.81440 0.26073 0.05620 0.06400
C 	C 	0.62230 0.18308 0.45961 0.30500
C 	C 	0.76670 0.74827 0.21479 -0.07900
C 	C 	0.11670 0.18197 0.73505 0.29700
C 	C 	0.67610 0.73578 0.19465 0.06100
C 	C 	0.62650 0.15778 0.80512 0.30500
C 	C 	0.74200 0.58584 0.87092 -0.07400
C 	C 	0.79290 0.18843 0.77595 -0.08900
C 	C 	0.86250 0.66456 0.71759 0.05700
C 	C 	0.62360 0.77427 0.55976 0.04600
C 	C 	0.83490 0.69951 0.20854 0.30900
C 	C 	0.76640 0.71612 0.52237 -0.08700
C 	C 	0.22850 0.27047 0.43355 -0.00600
C 	C 	0.89930 0.35828 0.08198 0.05500
C 	C 	0.38240 0.82945 0.63966 0.32200
C 	C 	0.16510 0.30049 0.79146 0.30900
C 	C 	0.10070 0.64172 0.91802 0.05500
C 	C 	0.28920 0.79886 0.56902 -0.00200
C 	C 	0.87350 0.34222 0.30512 0.30500
C 	C 	0.34570 0.42091 0.15142 0.06300
C 	C 	0.73160 0.32813 0.10163 -0.00300
C 	C 	0.10990 0.54105 0.75702 0.37700
C 	C 	0.82390 0.76422 0.69465 0.06100
C 	C 	0.84570 0.92091 0.34858 0.06300
C 	C 	0.27560 0.14927 0.76022 -0.07000
C 	C 	0.34340 0.18727 0.00190 0.31500
C 	C 	0.63750 0.83544 0.21759 0.05700
C 	C 	0.66510 0.80049 0.70854 0.30900
C 	C 	0.87150 0.17572 0.75160 0.06400
C 	C 	0.20050 0.77499 0.54969 -0.07600
C 	C 	0.74140 0.86702 0.40333 0.00300
C 	C 	0.73330 0.75173 0.71479 -0.07900
C 	C 	0.20790 0.69480 0.11463 -0.08200
C 	C 	0.87640 0.72573 0.05976 0.04500
C 	C 	0.31660 0.04385 0.64278 0.30800
C 	C 	0.38140 0.74225 0.07487 0.04800
C 	C 	0.75860 0.63298 0.90333 0.00300
C 	C 	0.31440 0.76073 0.44380 0.06400
C 	C 	0.64360 0.33534 0.12957 0.29700
C 	C 	0.34920 0.14301 0.56923 0.29800
C 	C 	0.88140 0.24225 0.42513 0.04800
C 	C 	0.77000 0.22826 0.57657 -0.08300
C 	C 	0.30160 0.24069 0.41489 -0.07100
C 	C 	0.35970 0.77710 0.93096 0.31700
C 	C 	0.61670 0.68197 0.76495 0.29700
C 	C 	0.25800 0.41416 0.12908 -0.07400
C 	C 	0.20670 0.64549 0.72540 0.00900
C 	C 	0.18530 0.17148 0.58851 -0.08300
C 	C 	0.15100 0.29126 0.40393 0.30800
C 	C 	0.18270 0.62820 0.89633 -0.06200
C 	C 	0.84900 0.70874 0.59607 0.30800
C 	C 	0.15430 0.07909 0.65142 0.06300
C 	C 	0.79060 0.80672 0.23826 -0.00200
C 	C 	0.61760 0.17055 0.36034 0.32200
C 	C 	0.23360 0.28388 0.47763 -0.08700
C 	C 	0.88240 0.32945 0.86034 0.32200
C 	C 	0.20520 0.78820 0.63701 0.06100
C 	C 	0.70710 0.31157 0.27595 -0.08900
C 	C 	0.20170 0.58988 0.75187 -0.11200
C 	C 	0.60070 0.14172 0.58198 0.05500
C 	C 	0.79330 0.35451 0.27460 0.00900
C 	C 	0.69840 0.75931 0.58511 -0.07100
C 	C 	0.29060 0.30672 0.26174 -0.00200
C 	C 	0.81260 0.76906 0.99891 0.04900
C 	C 	0.87770 0.31692 0.95961 0.30500
C 	C 	0.11860 0.75775 0.57487 0.04800
C 	C 	0.27000 0.72826 0.92343 -0.08400
C 	C 	0.76840 0.17187 0.60163 -0.00300
C 	C 	0.12360 0.27427 0.94024 0.04500
C 	C 	0.60990 0.04105 0.74298 0.37700
C 	C 	0.60160 0.66177 0.88753 0.06800
C 	C 	0.78920 0.29886 0.93098 -0.00200
C 	C 	0.39840 0.33823 0.11247 0.06800
C 	C 	0.36250 0.16456 0.78241 0.05700
C 	C 	0.24200 0.08584 0.62908 -0.07500
C 	C 	0.61860 0.25775 0.92513 0.04800
C 	C 	0.81470 0.82852 0.41149 -0.08300
C 	C 	0.29830 0.91012 0.25187 -0.11200
C 	C 	0.21760 0.91963 0.27548 0.08100
C 	C 	0.18740 0.23094 0.00109 0.04900
C 	C 	0.29210 0.80520 0.61463 -0.08200
C 	C 	0.84340 0.68727 0.49810 0.31700
C 	C 	0.62850 0.32428 0.25160 0.06400
C 	C 	0.11760 0.67055 0.13966 0.32200
C 	C 	0.68530 0.67148 0.91149 -0.08300
C 	C 	0.29330 0.85451 0.22540 0.00900
C 	C 	0.65100 0.79126 0.09607 0.30900
C 	C 	0.22440 0.35073 0.26022 -0.07000
C 	C 	0.71760 0.41963 0.22452 0.08100
C 	C 	0.20940 0.19328 0.76174 -0.00200
C 	C 	0.75800 0.91416 0.37092 -0.07500
C 	C 	0.37150 0.67572 0.74840 0.06400
C 	C 	0.73000 0.27174 0.07657 -0.08400
C 	C 	0.78240 0.08037 0.72452 0.08100
C 	C 	0.31470 0.32852 0.08851 -0.08300
C 	C 	0.10160 0.16177 0.61247 0.06800
C 	C 	0.77150 0.72953 0.56645 -0.00600
C 	C 	0.27150 0.22953 0.93355 -0.00700
C 	C 	0.70170 0.08988 0.74813 -0.11200
C 	C 	0.39010 0.95895 0.25702 0.37700
C 	C 	0.65080 0.85699 0.43077 0.29800
C 	C 	0.20710 0.81157 0.22405 -0.08900
C 	C 	0.34900 0.20874 0.90393 0.30900
C 	C 	0.29290 0.68843 0.72405 -0.08900
C 	C 	0.18340 0.45615 0.14278 0.30700
C 	C 	0.79830 0.41012 0.24813 -0.11200
C 	C 	0.80160 0.74069 0.08511 -0.07100
C 	C 	0.37770 0.81692 0.54039 0.30500
C 	C 	0.84920 0.64301 0.93077 0.29800
C 	C 	0.23000 0.77174 0.42343 -0.08300
C 	C 	0.79480 0.21180 0.36299 0.06100
C 	C 	0.70790 0.19480 0.38537 -0.08200
C 	C 	0.89840 0.83823 0.38753 0.06800
C 	C 	0.15660 0.31273 0.50190 0.31700
C 	C 	0.72850 0.77047 0.06645 -0.00700
C 	C 	0.15080 0.35699 0.06923 0.29800
C 	C 	0.29480 0.71180 0.13701 0.06100
C 	C 	0.85640 0.16466 0.62957 0.29700
C 	C 	0.68340 0.95615 0.35722 0.30800
C 	C 	0.88330 0.81803 0.26495 0.29700
C 	C 	0.77560 0.64927 0.73978 -0.07000
C 	C 	0.70050 0.27499 0.95031 -0.07600
C 	C 	0.14030 0.72290 0.43096 0.31700
C 	C 	0.23330 0.25173 0.78521 -0.07900
C 	C 	0.72440 0.85073 0.23978 -0.07000
C 	C 	0.18560 0.73927 0.94380 0.06400
C 	C 	0.65430 0.57909 0.84858 0.06300
C 	C 	0.37350 0.84222 0.19488 0.30500
C 	C 	0.68740 0.73094 0.49891 0.05100
C 	C 	0.12650 0.65778 0.69488 0.30500
C 	C 	0.79950 0.22501 0.45031 -0.07600
C 	C 	0.26640 0.21612 0.97763 -0.08500
C 	C 	0.70940 0.69328 0.73826 -0.00200
C 	C 	0.64030 0.22290 0.06904 0.31700
C 	C 	0.31260 0.26906 0.50109 0.05100
C 	C 	0.24140 0.36702 0.09667 0.00300
C 	C 	0.29950 0.72501 0.04969 -0.07600
C 	C 	0.73360 0.78388 0.02237 -0.08500
C 	C 	0.79210 0.30520 0.88537 -0.08200
C 	C 	0.71080 0.20114 0.43098 -0.00200
C 	C 	0.23160 0.82813 0.39837 -0.00300
C 	C 	0.17610 0.23578 0.30535 0.06100
C 	C 	0.81730 0.37180 0.10367 -0.06200
C 	C 	0.39930 0.85828 0.41802 0.05500
C 	C 	0.35640 0.66466 0.87043 0.29700
C 	C 	0.12850 0.82428 0.24840 0.06400
C 	C 	0.25860 0.13298 0.59667 0.00300
C 	C 	0.70520 0.28820 0.86299 0.06100
C 	C 	0.70670 0.14549 0.77460 0.00900
C 	C 	0.65660 0.81273 0.99810 0.31500
C 	C 	0.33490 0.19951 0.29146 0.30900
C 	C 	0.26670 0.24827 0.28521 -0.07900
C 	C 	0.37640 0.22573 0.44024 0.04600
C 	C 	0.21080 0.70114 0.06902 -0.00200
C 	C 	0.68560 0.23927 0.55620 0.06400
C 	C 	0.81660 0.54385 0.85722 0.30700
C 	C 	0.13750 0.33544 0.28241 0.05700
C 	C 	0.28240 0.58037 0.77548 0.08100
C 	C 	0.68270 0.12820 0.60367 -0.06200
C 	C 	0.14360 0.83534 0.37043 0.29700
C 	C 	0.19840 0.25931 0.91489 -0.07100
C 	C 	0.31730 0.87180 0.39633 -0.06200
C 	C 	0.38330 0.31803 0.23505 0.29700
C 	C 	0.12230 0.68308 0.04039 0.30500
C 	C 	0.89010 0.45895 0.24298 0.37700
C 	C 	0.26840 0.67187 0.89837 -0.00300
C 	C 	0.85970 0.27710 0.56904 0.31700
C 	C 	0.32390 0.26422 0.80535 0.06100
N 	N 	0.58584 0.61657 0.85628 -0.21600
N 	N 	0.87947 0.23641 0.38150 -0.21400
N 	N 	0.36663 0.62223 0.77433 -0.21900
N 	N 	0.61719 0.76055 0.51675 -0.20900
N 	N 	0.12053 0.76359 0.61850 -0.21400
N 	N 	0.38281 0.23945 0.48325 -0.20900
N 	N 	0.08584 0.11657 0.64372 -0.21600
N 	N 	0.91416 0.88343 0.35628 -0.21600
N 	N 	0.89757 0.30309 0.05854 -0.20900
N 	N 	0.41416 0.38343 0.14372 -0.21600
N 	N 	0.88281 0.73945 0.01675 -0.20900
N 	N 	0.10243 0.69691 0.94146 -0.20900
N 	N 	0.60243 0.19691 0.55854 -0.20800
N 	N 	0.11719 0.26055 0.98325 -0.20900
N 	N 	0.11282 0.27895 0.30490 -0.21100
N 	N 	0.39757 0.80309 0.44146 -0.20800
N 	N 	0.38718 0.22105 0.80490 -0.21100
N 	N 	0.63337 0.37777 0.22567 -0.21900
N 	N 	0.13337 0.87777 0.27433 -0.21900
N 	N 	0.37947 0.73641 0.11850 -0.21400
N 	N 	0.86663 0.12223 0.72567 -0.21900
N 	N 	0.88718 0.72105 0.69510 -0.21100
N 	N 	0.62053 0.26359 0.88150 -0.21400
N 	N 	0.61282 0.77895 0.19510 -0.21100
O 	O 	0.40071 0.87388 0.52806 -0.25500
O 	O 	0.62456 0.39274 0.13610 -0.37700
O 	O 	0.41648 0.25396 0.89204 -0.37700
O 	O 	0.53110 0.06047 0.75030 -0.28800
O 	O 	0.83858 0.65080 0.60907 -0.27600
O 	O 	0.64185 0.16359 0.07952 -0.41000
O 	O 	0.37651 0.83262 0.68091 -0.41400
O 	O 	0.59134 0.72969 0.78405 -0.28500
O 	O 	0.58352 0.74604 0.10796 -0.37700
O 	O 	0.21370 0.51476 0.15328 -0.25700
O 	O 	0.46890 0.93953 0.24970 -0.28800
O 	O 	0.88860 0.37902 0.33748 -0.28500
O 	O 	0.42754 0.37697 0.23335 -0.36900
O 	O 	0.43195 0.75911 0.94912 -0.36000
O 	O 	0.16142 0.34920 0.39093 -0.27600
O 	O 	0.58069 0.82164 0.01696 -0.38100
O 	O 	0.53825 0.15444 0.37989 -0.38300
O 	O 	0.58135 0.23194 0.47167 -0.37900
O 	O 	0.57246 0.62303 0.76665 -0.36900
O 	O 	0.41684 0.21897 0.30860 -0.37700
O 	O 	0.58316 0.78103 0.69140 -0.37700
O 	O 	0.03825 0.65444 0.12011 -0.38200
O 	O 	0.19236 0.35961 0.78166 -0.38800
O 	O 	0.58405 0.20674 0.79697 -0.37600
O 	O 	0.11140 0.62098 0.66252 -0.28500
O 	O 	0.08069 0.32164 0.48304 -0.38200
O 	O 	0.93195 0.25911 0.55088 -0.36000
O 	O 	0.17151 0.32649 0.54210 -0.41000
O 	O 	0.67151 0.82649 0.95790 -0.41000
O 	O 	0.92754 0.87697 0.26665 -0.36900
O 	O 	0.08405 0.70674 0.70303 -0.37600
O 	O 	0.41595 0.79326 0.20303 -0.37600
O 	O 	0.06805 0.74089 0.44912 -0.36000
O 	O 	0.12456 0.89274 0.36390 -0.37700
O 	O 	0.80764 0.64039 0.21834 -0.38800
O 	O 	0.63196 0.90188 0.45452 -0.26300
O 	O 	0.38860 0.87902 0.16252 -0.28500
O 	O 	0.62349 0.16738 0.31909 -0.41400
O 	O 	0.28630 0.98524 0.65328 -0.25700
O 	O 	0.07246 0.12303 0.73335 -0.36900
O 	O 	0.41865 0.76806 0.52833 -0.37900
O 	O 	0.59964 0.28410 0.14607 -0.29000
O 	O 	0.08352 0.24604 0.39204 -0.37700
O 	O 	0.87651 0.33262 0.81909 -0.41400
O 	O 	0.10157 0.29958 0.07107 -0.37300
O 	O 	0.78630 0.48524 0.84672 -0.25700
O 	O 	0.59711 0.92877 0.35641 -0.24900
O 	O 	0.09134 0.22969 0.71595 -0.28500
O 	O 	0.37544 0.60726 0.86390 -0.37700
O 	O 	0.35815 0.83641 0.92048 -0.41000
O 	O 	0.12349 0.66738 0.18091 -0.41400
O 	O 	0.12044 0.48451 0.76939 -0.47000
O 	O 	0.91648 0.75396 0.60796 -0.37700
O 	O 	0.56805 0.24089 0.05088 -0.36000
O 	O 	0.89843 0.70042 0.92893 -0.37300
O 	O 	0.90036 0.21590 0.64607 -0.29000
O 	O 	0.30764 0.14039 0.28166 -0.38800
O 	O 	0.91865 0.26806 0.97167 -0.37800
O 	O 	0.41931 0.17836 0.98304 -0.38100
O 	O 	0.96175 0.34556 0.87989 -0.38200
O 	O 	0.90289 0.57123 0.85641 -0.24800
O 	O 	0.90866 0.77031 0.28405 -0.28500
O 	O 	0.36804 0.09812 0.54548 -0.26300
O 	O 	0.08316 0.28103 0.80860 -0.37700
O 	O 	0.59929 0.12612 0.47194 -0.25500
O 	O 	0.33858 0.15080 0.89093 -0.27700
O 	O 	0.66142 0.84920 0.10907 -0.27700
O 	O 	0.37956 0.01549 0.26939 -0.47000
O 	O 	0.14185 0.66359 0.42048 -0.41000
O 	O 	0.09929 0.62612 0.02806 -0.25400
O 	O 	0.40289 0.07123 0.64359 -0.24900
O 	O 	0.32849 0.17351 0.04210 -0.41000
O 	O 	0.09711 0.42877 0.14359 -0.24800
O 	O 	0.91684 0.71897 0.19140 -0.37700
O 	O 	0.08135 0.73194 0.02833 -0.37800
O 	O 	0.87956 0.51549 0.23061 -0.47000
O 	O 	0.39843 0.20042 0.57107 -0.37300
O 	O 	0.13196 0.40188 0.04548 -0.26200
O 	O 	0.46175 0.84556 0.62011 -0.38300
O 	O 	0.85815 0.33641 0.57952 -0.41000
O 	O 	0.40866 0.27031 0.21595 -0.28500
O 	O 	0.91931 0.67836 0.51696 -0.38200
O 	O 	0.03110 0.56047 0.74970 -0.28800
O 	O 	0.71370 0.01476 0.34672 -0.25700
O 	O 	0.62044 0.98451 0.73061 -0.47000
O 	O 	0.60157 0.79958 0.42893 -0.37300
O 	O 	0.86804 0.59812 0.95452 -0.26200
O 	O 	0.91595 0.29326 0.29697 -0.37600
O 	O 	0.40036 0.71590 0.85393 -0.29000
O 	O 	0.69236 0.85961 0.71834 -0.38800
O 	O 	0.87544 0.10726 0.63610 -0.37700
O 	O 	0.61140 0.12098 0.83748 -0.28500
O 	O 	0.82849 0.67351 0.45790 -0.41000
O 	O 	0.09964 0.78410 0.35393 -0.29000
O 	O 	0.96890 0.43953 0.25030 -0.28800
O 	O 	0.90071 0.37388 0.97194 -0.25400
