data_crystal

_cell_length_a 13.93400
_cell_length_b 20.49400
_cell_length_c 30.72200
_cell_angle_alpha 90.00000
_cell_angle_beta  90.00000
_cell_angle_gamma 98.71000

_symmetry_space_group_name_	'P 1'
_symmetry_space_group_name_H-M	'P 1'

loop_
_symmetry_equiv_pos_as_xyz
  x,y,z

loop_
_atom_site_label
_atom_site_type_symbol
_atom_site_fract_x
_atom_site_fract_y
_atom_site_fract_z
_atom_site_charge
Tb	Tb	0.46102 0.60445 0.81033 1.48800
Tb	Tb	0.53898 0.39555 0.18967 1.48800
Tb	Tb	0.96102 0.10445 0.68967 1.48300
Tb	Tb	0.02372 0.87476 0.05070 1.52900
Tb	Tb	0.47628 0.62524 0.55070 1.53700
Tb	Tb	0.03898 0.89555 0.31033 1.48300
Tb	Tb	0.52372 0.37476 0.44930 1.53700
Tb	Tb	0.97628 0.12524 0.94930 1.52900
Cu	Cu	0.49162 0.72003 0.02191 0.89800
Cu	Cu	0.99162 0.22003 0.47809 0.89800
Cu	Cu	0.00473 0.24205 0.15768 0.89700
Cu	Cu	0.50473 0.74205 0.34232 0.89700
Cu	Cu	0.97341 0.61174 0.18444 0.89700
Cu	Cu	0.52659 0.88826 0.68444 0.89600
Cu	Cu	0.99527 0.75795 0.84232 0.89700
Cu	Cu	0.00838 0.77997 0.52191 0.89800
Cu	Cu	0.50838 0.27997 0.97809 0.89800
Cu	Cu	0.47341 0.11174 0.31556 0.89600
Cu	Cu	0.02659 0.38826 0.81556 0.89700
Cu	Cu	0.49527 0.25795 0.65768 0.89700
H 	H 	0.70740 0.79500 0.33150 0.01900
H 	H 	0.40830 0.63510 0.28150 0.03300
H 	H 	0.18430 0.71990 0.53090 0.02000
H 	H 	0.20100 0.77000 0.38480 0.05700
H 	H 	0.80430 0.29450 0.93330 0.07800
H 	H 	0.22060 0.45750 0.79420 -0.00400
H 	H 	0.35610 0.95230 0.67410 0.00900
H 	H 	0.31390 0.22060 0.96090 -0.00300
H 	H 	0.59170 0.36490 0.71850 0.03300
H 	H 	0.19570 0.70550 0.06670 0.07800
H 	H 	0.14390 0.54770 0.17410 0.00900
H 	H 	0.32080 0.41090 0.87940 0.05300
H 	H 	0.81390 0.72060 0.53910 -0.00300
H 	H 	0.07470 0.79470 0.42730 0.02800
H 	H 	0.01200 0.03600 0.90900 0.27800
H 	H 	0.84010 0.30560 0.17900 -0.00000
H 	H 	0.29900 0.73000 0.88480 0.05600
H 	H 	0.31570 0.78010 0.03090 0.02200
H 	H 	0.19780 0.27000 0.01910 0.06200
H 	H 	0.92990 0.70560 0.25270 0.02000
H 	H 	0.98800 0.96400 0.09100 0.27800
H 	H 	0.72060 0.95750 0.70580 -0.00300
H 	H 	0.79900 0.23000 0.61520 0.05700
H 	H 	0.76180 0.11020 0.25570 0.07200
H 	H 	0.88600 0.95300 0.08100 0.36100
H 	H 	0.45770 0.38790 0.91600 0.03600
H 	H 	0.70100 0.27000 0.11520 0.05600
H 	H 	0.30430 0.79450 0.56670 0.07800
H 	H 	0.61400 0.54700 0.58100 0.36100
H 	H 	0.69780 0.77000 0.48090 0.06200
H 	H 	0.26180 0.61020 0.24430 0.07200
H 	H 	0.57010 0.79440 0.75270 0.01900
H 	H 	0.70070 0.77260 0.79400 0.08100
H 	H 	0.27940 0.04250 0.29420 -0.00300
H 	H 	0.11400 0.04700 0.91900 0.36100
H 	H 	0.07010 0.29440 0.74730 0.02000
H 	H 	0.06010 0.24040 0.06130 0.03000
H 	H 	0.04230 0.11210 0.41600 0.03700
H 	H 	0.44750 0.81120 0.60630 0.02200
H 	H 	0.34010 0.80560 0.32100 -0.00100
H 	H 	0.82080 0.91090 0.62060 0.05300
H 	H 	0.81570 0.28010 0.46910 0.02000
H 	H 	0.90830 0.13510 0.21850 0.03300
H 	H 	0.51200 0.53600 0.59100 0.27600
H 	H 	0.00600 0.20200 0.86900 0.29400
H 	H 	0.57470 0.29470 0.07270 0.02900
H 	H 	0.30220 0.23000 0.51910 0.06200
H 	H 	0.77940 0.54250 0.20580 -0.00400
H 	H 	0.79260 0.70500 0.83150 0.01900
H 	H 	0.20740 0.29500 0.16850 0.01900
H 	H 	0.56010 0.74040 0.43870 0.03000
H 	H 	0.94750 0.31120 0.89370 0.02100
H 	H 	0.48800 0.46400 0.40900 0.27600
H 	H 	0.65990 0.19440 0.67900 -0.00100
H 	H 	0.49400 0.29800 0.36900 0.29000
H 	H 	0.67920 0.58910 0.12060 0.05300
H 	H 	0.64390 0.04770 0.32590 0.00900
H 	H 	0.68430 0.21990 0.96910 0.02200
H 	H 	0.20070 0.27260 0.70600 0.08100
H 	H 	0.50600 0.70200 0.63100 0.29000
H 	H 	0.73820 0.38980 0.75570 0.07200
H 	H 	0.69570 0.20550 0.43330 0.07800
H 	H 	0.42530 0.70530 0.92730 0.02900
H 	H 	0.95770 0.88790 0.58400 0.03700
H 	H 	0.80220 0.73000 0.98090 0.06200
H 	H 	0.68610 0.77940 0.03910 -0.00300
H 	H 	0.55250 0.18880 0.39370 0.02200
H 	H 	0.09170 0.86490 0.78150 0.03300
H 	H 	0.15990 0.69440 0.82100 -0.00000
H 	H 	0.29930 0.22740 0.20600 0.08100
H 	H 	0.92530 0.20530 0.57270 0.02800
H 	H 	0.79930 0.72740 0.29400 0.08100
H 	H 	0.99400 0.79800 0.13100 0.29400
H 	H 	0.18610 0.27940 0.46090 -0.00300
H 	H 	0.23820 0.88980 0.74430 0.07200
H 	H 	0.42990 0.20560 0.24730 0.01900
H 	H 	0.43990 0.25960 0.56130 0.03000
H 	H 	0.29260 0.20500 0.66850 0.01900
H 	H 	0.17920 0.08910 0.37940 0.05300
H 	H 	0.05250 0.68880 0.10630 0.02100
H 	H 	0.38600 0.45300 0.41900 0.36100
H 	H 	0.85610 0.45230 0.82590 0.00900
H 	H 	0.54230 0.61210 0.08400 0.03600
H 	H 	0.93990 0.75960 0.93870 0.03000
C 	C 	0.20620 0.14560 0.22570 0.01000
C 	C 	0.13660 0.83440 0.78240 0.05800
C 	C 	0.74190 0.08680 0.37070 -0.07100
C 	C 	0.85020 0.20890 0.09610 0.31500
C 	C 	0.84940 0.14400 0.43080 0.30500
C 	C 	0.19930 0.75940 0.41500 -0.06600
C 	C 	0.20930 0.69440 0.26180 -0.00200
C 	C 	0.88390 0.82960 0.36010 0.32000
C 	C 	0.68850 0.23090 0.99920 0.04700
C 	C 	0.60980 0.54140 0.24170 0.36900
C 	C 	0.88050 0.74270 0.92480 0.04500
C 	C 	0.65060 0.35600 0.93080 0.30500
C 	C 	0.76750 0.21590 0.02260 -0.07600
C 	C 	0.60090 0.64240 0.08210 0.05100
C 	C 	0.14980 0.79110 0.90390 0.31500
C 	C 	0.76710 0.24770 0.71420 -0.07400
C 	C 	0.72740 0.27050 0.56690 -0.01000
C 	C 	0.79070 0.30560 0.73820 -0.00200
C 	C 	0.11610 0.17040 0.63990 0.32000
C 	C 	0.13960 0.22180 0.93150 0.31600
C 	C 	0.29380 0.35440 0.72570 0.00900
C 	C 	0.84500 0.41990 0.84810 0.06000
C 	C 	0.31460 0.26000 0.94450 0.06000
C 	C 	0.75910 0.13460 0.40310 -0.00000
C 	C 	0.10150 0.66250 0.11250 0.06900
C 	C 	0.29070 0.80560 0.76180 -0.00200
C 	C 	0.26710 0.74770 0.78580 -0.07400
C 	C 	0.68250 0.62840 0.10400 -0.05600
C 	C 	0.89020 0.95860 0.74170 0.37200
C 	C 	0.88300 0.31710 0.76470 0.29500
C 	C 	0.27260 0.72950 0.43310 -0.01000
C 	C 	0.68540 0.74000 0.05550 0.06000
C 	C 	0.87790 0.81590 0.45950 0.31500
C 	C 	0.77060 0.72880 0.07580 -0.07600
C 	C 	0.12210 0.18410 0.54050 0.31500
C 	C 	0.62400 0.27400 0.05960 0.04300
C 	C 	0.15490 0.81260 0.00170 0.31300
C 	C 	0.61700 0.18290 0.26470 0.29500
C 	C 	0.17700 0.73490 0.80590 0.05900
C 	C 	0.23250 0.78410 0.97740 -0.07600
C 	C 	0.31150 0.76910 0.00080 0.04700
C 	C 	0.77590 0.15020 0.23970 -0.06800
C 	C 	0.29380 0.21140 0.63790 0.05100
C 	C 	0.76940 0.67220 0.10160 -0.01200
C 	C 	0.34940 0.64400 0.06920 0.30500
C 	C 	0.18540 0.24000 0.44450 0.06000
C 	C 	0.24190 0.58680 0.12930 -0.07100
C 	C 	0.27590 0.65020 0.26030 -0.06800
C 	C 	0.15060 0.85600 0.56920 0.30500
C 	C 	0.18340 0.95570 0.64290 0.30500
C 	C 	0.62920 0.82420 0.75130 0.06700
C 	C 	0.38390 0.32960 0.13990 0.32100
C 	C 	0.62210 0.68410 0.95950 0.31500
C 	C 	0.37080 0.17580 0.24870 0.06700
C 	C 	0.18850 0.73090 0.50080 0.05200
C 	C 	0.26750 0.71590 0.47740 -0.08200
C 	C 	0.15500 0.58010 0.15190 0.06000
C 	C 	0.79040 0.79850 0.43080 -0.00900
C 	C 	0.74090 0.36540 0.90310 -0.00000
C 	C 	0.20670 0.31080 0.72390 -0.08700
C 	C 	0.32300 0.76510 0.30590 0.05900
C 	C 	0.11950 0.25730 0.07520 0.04500
C 	C 	0.29330 0.18920 0.22390 -0.08700
C 	C 	0.81750 0.87160 0.60400 -0.05600
C 	C 	0.70670 0.69430 0.88550 -0.07100
C 	C 	0.20670 0.19430 0.61450 -0.07100
C 	C 	0.20620 0.28860 0.13790 0.05200
C 	C 	0.81460 0.76000 0.55550 0.06000
C 	C 	0.85610 0.66550 0.12950 0.30600
C 	C 	0.67700 0.23490 0.69410 0.05900
C 	C 	0.20140 0.09030 0.25240 -0.10500
C 	C 	0.79330 0.80570 0.38550 -0.07100
C 	C 	0.87600 0.22600 0.55960 0.04300
C 	C 	0.78310 0.58040 0.22380 0.07800
C 	C 	0.64980 0.29110 0.59610 0.31400
C 	C 	0.37790 0.31590 0.04050 0.31500
C 	C 	0.82300 0.26510 0.19410 0.05900
C 	C 	0.12400 0.77400 0.44040 0.04300
C 	C 	0.34500 0.91990 0.65190 0.06000
C 	C 	0.70670 0.81080 0.77610 -0.08700
C 	C 	0.81660 0.04430 0.35710 0.30500
C 	C 	0.89850 0.33750 0.88750 0.06900
C 	C 	0.79380 0.85440 0.77430 0.01000
C 	C 	0.31660 0.54430 0.14290 0.30800
C 	C 	0.39850 0.83750 0.61250 0.06900
C 	C 	0.80070 0.24060 0.58500 -0.06600
C 	C 	0.39020 0.45860 0.75830 0.36900
C 	C 	0.72410 0.34980 0.73970 -0.06800
C 	C 	0.70140 0.59030 0.24760 -0.10400
C 	C 	0.68670 0.17260 0.41130 -0.07600
C 	C 	0.23290 0.75230 0.28580 -0.07400
C 	C 	0.81150 0.26910 0.49920 0.05200
C 	C 	0.65500 0.08010 0.34810 0.06000
C 	C 	0.14390 0.33450 0.87050 0.30600
C 	C 	0.71690 0.91960 0.72380 0.07900
C 	C 	0.87080 0.67580 0.25130 0.06700
C 	C 	0.21690 0.41960 0.77620 0.07800
C 	C 	0.39910 0.35760 0.91790 0.05100
C 	C 	0.25810 0.91320 0.62930 -0.07100
C 	C 	0.18250 0.12840 0.39600 -0.05600
C 	C 	0.83590 0.19840 0.70810 0.30800
C 	C 	0.73060 0.82780 0.60160 -0.01200
C 	C 	0.28310 0.08040 0.27620 0.07900
C 	C 	0.27060 0.22880 0.42420 -0.07700
C 	C 	0.64390 0.83450 0.62950 0.30600
C 	C 	0.73250 0.28410 0.52260 -0.08200
C 	C 	0.12920 0.32420 0.74870 0.06700
C 	C 	0.81330 0.32740 0.91130 -0.07600
C 	C 	0.36340 0.66560 0.28240 0.05800
C 	C 	0.37500 0.34200 0.69550 0.31000
C 	C 	0.75810 0.41320 0.87070 -0.07100
C 	C 	0.73290 0.25230 0.21420 -0.07400
C 	C 	0.23060 0.32780 0.89840 -0.01200
C 	C 	0.79330 0.68920 0.27610 -0.08700
C 	C 	0.22410 0.84980 0.76030 -0.06800
C 	C 	0.38050 0.24270 0.57520 0.04500
C 	C 	0.62500 0.65800 0.30450 0.31000
C 	C 	0.35610 0.16550 0.37050 0.30600
C 	C 	0.38300 0.81710 0.73530 0.29500
C 	C 	0.25910 0.63460 0.09690 -0.00000
C 	C 	0.29040 0.29850 0.06920 -0.01000
C 	C 	0.63660 0.33440 0.71760 0.05800
C 	C 	0.16410 0.80160 0.29190 0.30800
C 	C 	0.29810 0.22540 0.54990 -0.06700
C 	C 	0.79810 0.72540 0.95010 -0.06600
C 	C 	0.79380 0.71140 0.86210 0.05200
C 	C 	0.70190 0.77460 0.45010 -0.06700
C 	C 	0.29860 0.40970 0.75240 -0.10400
C 	C 	0.61610 0.67040 0.86010 0.32100
C 	C 	0.70960 0.70150 0.93080 -0.01000
C 	C 	0.79860 0.90970 0.74760 -0.10500
C 	C 	0.63960 0.72180 0.56850 0.31600
C 	C 	0.35020 0.70890 0.40390 0.31400
C 	C 	0.10090 0.14240 0.41790 0.05100
C 	C 	0.37600 0.72600 0.94040 0.04300
C 	C 	0.34510 0.68740 0.50170 0.31800
C 	C 	0.20190 0.27460 0.04990 -0.06600
C 	C 	0.33590 0.69840 0.79190 0.30800
C 	C 	0.61950 0.75730 0.42480 0.04500
C 	C 	0.36040 0.27820 0.43150 0.31600
C 	C 	0.69930 0.25940 0.08500 -0.06400
C 	C 	0.84510 0.18740 0.99830 0.31300
C 	C 	0.77260 0.22950 0.06690 -0.01200
C 	C 	0.70930 0.19440 0.23820 -0.00200
C 	C 	0.22740 0.77050 0.93310 -0.01200
C 	C 	0.29330 0.30570 0.11450 -0.07100
C 	C 	0.24090 0.86540 0.59690 -0.00000
C 	C 	0.22940 0.27120 0.92420 -0.07600
C 	C 	0.26940 0.17220 0.39840 -0.01200
C 	C 	0.10980 0.04140 0.25830 0.37200
C 	C 	0.20960 0.20150 0.56920 -0.00900
C 	C 	0.66410 0.30160 0.20810 0.30800
C 	C 	0.31330 0.82740 0.58870 -0.07600
C 	C 	0.89910 0.85760 0.58210 0.05100
C 	C 	0.70620 0.78860 0.36210 0.05100
C 	C 	0.18670 0.67260 0.08870 -0.07600
C 	C 	0.30070 0.74060 0.91500 -0.06400
C 	C 	0.86340 0.16560 0.21760 0.05800
C 	C 	0.12500 0.15800 0.19550 0.30900
C 	C 	0.65490 0.31260 0.49830 0.31800
C 	C 	0.11700 0.68290 0.23530 0.29500
C 	C 	0.68340 0.45570 0.85710 0.30800
C 	C 	0.31750 0.37160 0.89600 -0.05600
C 	C 	0.86040 0.77820 0.06850 0.31600
C 	C 	0.60150 0.16250 0.38750 0.06900
C 	C 	0.70620 0.64560 0.27430 0.00900
C 	C 	0.87500 0.84200 0.80450 0.30900
C 	C 	0.72940 0.77120 0.57580 -0.07700
N 	N 	0.37890 0.23630 0.61888 -0.20900
N 	N 	0.11290 0.77810 0.80488 -0.21000
N 	N 	0.63340 0.87760 0.72541 -0.21900
N 	N 	0.13340 0.37760 0.77459 -0.21800
N 	N 	0.61290 0.27810 0.69512 -0.21000
N 	N 	0.88220 0.24010 0.51670 -0.20800
N 	N 	0.88710 0.22190 0.19512 -0.21000
N 	N 	0.87890 0.73630 0.88112 -0.20900
N 	N 	0.36660 0.12240 0.27459 -0.21900
N 	N 	0.10230 0.19770 0.44194 -0.20600
N 	N 	0.38220 0.74010 0.98330 -0.20700
N 	N 	0.91430 0.38260 0.85626 -0.21600
N 	N 	0.08570 0.61740 0.14374 -0.21600
N 	N 	0.61780 0.25990 0.01670 -0.20700
N 	N 	0.39770 0.30230 0.94194 -0.20600
N 	N 	0.41430 0.88260 0.64374 -0.21600
N 	N 	0.12110 0.26370 0.11888 -0.20900
N 	N 	0.60230 0.69770 0.05806 -0.20600
N 	N 	0.86660 0.62240 0.22541 -0.21800
N 	N 	0.89770 0.80230 0.55806 -0.20600
N 	N 	0.38710 0.72190 0.30488 -0.21000
N 	N 	0.62110 0.76370 0.38112 -0.20900
N 	N 	0.11780 0.75990 0.48330 -0.20800
N 	N 	0.58570 0.11740 0.35626 -0.21600
O 	O 	0.14100 0.16250 0.92160 -0.40300
O 	O 	0.93270 0.75980 0.05032 -0.36200
O 	O 	0.57890 0.32190 0.51734 -0.38400
O 	O 	0.62070 0.48470 0.22870 -0.45300
O 	O 	0.41550 0.29260 0.70336 -0.37800
O 	O 	0.12070 0.98470 0.27130 -0.45600
O 	O 	0.61010 0.62080 0.33670 -0.27200
O 	O 	0.85900 0.83750 0.07840 -0.40300
O 	O 	0.58130 0.73230 0.97132 -0.38000
O 	O 	0.80840 0.13900 0.71750 -0.37500
O 	O 	0.58450 0.70740 0.29664 -0.37800
O 	O 	0.36880 0.59910 0.04590 -0.26600
O 	O 	0.62420 0.89170 0.63593 -0.37900
O 	O 	0.10000 0.28260 0.85418 -0.30100
O 	O 	0.05640 0.03450 0.92730 -0.83300
O 	O 	0.56730 0.74020 0.55032 -0.36500
O 	O 	0.60100 0.29870 0.92926 -0.37400
O 	O 	0.53770 0.65430 0.88001 -0.37400
O 	O 	0.12420 0.39170 0.86407 -0.37900
O 	O 	0.91730 0.25410 0.10779 -0.37700
O 	O 	0.21300 0.01410 0.65370 -0.25300
O 	O 	0.87930 0.01530 0.72870 -0.45600
O 	O 	0.16050 0.84910 0.89090 -0.26600
O 	O 	0.37580 0.10830 0.36407 -0.37900
O 	O 	0.37930 0.51530 0.77130 -0.45300
O 	O 	0.09680 0.92820 0.64370 -0.24500
O 	O 	0.66050 0.34910 0.60910 -0.26600
O 	O 	0.03050 0.06040 0.25010 -0.27700
O 	O 	0.53820 0.32750 0.37833 -0.50600
O 	O 	0.41870 0.26770 0.02868 -0.38000
O 	O 	0.46180 0.67250 0.62167 -0.50600
O 	O 	0.11010 0.12080 0.16330 -0.27200
O 	O 	0.08130 0.23230 0.52868 -0.38000
O 	O 	0.53050 0.56040 0.24990 -0.27800
O 	O 	0.06730 0.24020 0.94968 -0.36200
O 	O 	0.41730 0.75410 0.39221 -0.37700
O 	O 	0.96230 0.84570 0.38001 -0.37200
O 	O 	0.92110 0.17810 0.01734 -0.38000
O 	O 	0.03820 0.82750 0.12167 -0.51000
O 	O 	0.87800 0.83290 0.31916 -0.40300
O 	O 	0.09860 0.12680 0.52795 -0.25500
O 	O 	0.91800 0.21780 0.69113 -0.37000
O 	O 	0.30840 0.63900 0.78250 -0.37500
O 	O 	0.91870 0.76770 0.47132 -0.38000
O 	O 	0.07230 0.62400 0.23319 -0.36800
O 	O 	0.35900 0.33750 0.42160 -0.40500
O 	O 	0.94360 0.96550 0.07270 -0.83300
O 	O 	0.90000 0.71740 0.14582 -0.30100
O 	O 	0.43270 0.25980 0.44968 -0.36500
O 	O 	0.39900 0.70130 0.07074 -0.37400
O 	O 	0.38990 0.37920 0.66330 -0.27200
O 	O 	0.28700 0.48590 0.15370 -0.25500
O 	O 	0.08450 0.20740 0.20336 -0.37800
O 	O 	0.88990 0.87920 0.83670 -0.27200
O 	O 	0.59140 0.23110 0.28364 -0.27100
O 	O 	0.86880 0.09910 0.45410 -0.26700
O 	O 	0.07890 0.82190 0.98266 -0.38000
O 	O 	0.10100 0.79870 0.57074 -0.37400
O 	O 	0.71300 0.51410 0.84630 -0.25500
O 	O 	0.59860 0.62680 0.97205 -0.25600
O 	O 	0.13120 0.90090 0.54590 -0.26700
O 	O 	0.57230 0.12400 0.26681 -0.36700
O 	O 	0.58270 0.24590 0.60779 -0.37700
O 	O 	0.33950 0.65090 0.39090 -0.26600
O 	O 	0.60000 0.78260 0.64582 -0.30100
O 	O 	0.46950 0.43960 0.75010 -0.27800
O 	O 	0.59680 0.42820 0.85630 -0.24500
O 	O 	0.40320 0.57180 0.14370 -0.24500
O 	O 	0.90860 0.26890 0.78364 -0.27200
O 	O 	0.33180 0.67420 0.54152 -0.40900
O 	O 	0.62200 0.66710 0.81916 -0.40500
O 	O 	0.55640 0.53450 0.57270 -0.83500
O 	O 	0.41800 0.71780 0.80887 -0.36900
O 	O 	0.08200 0.78220 0.30887 -0.37000
O 	O 	0.66820 0.32580 0.45848 -0.40900
O 	O 	0.16820 0.82580 0.04152 -0.40800
O 	O 	0.63120 0.40090 0.95410 -0.26600
O 	O 	0.78700 0.98590 0.34630 -0.25300
O 	O 	0.46230 0.34570 0.11999 -0.37400
O 	O 	0.12200 0.16710 0.68084 -0.40300
O 	O 	0.69160 0.36100 0.21750 -0.37500
O 	O 	0.90320 0.07180 0.35630 -0.24500
O 	O 	0.19160 0.86100 0.28250 -0.37500
O 	O 	0.89900 0.20130 0.42926 -0.37400
O 	O 	0.91550 0.79260 0.79664 -0.37800
O 	O 	0.40000 0.21740 0.35418 -0.30100
O 	O 	0.37800 0.33290 0.18084 -0.40500
O 	O 	0.42110 0.67810 0.48266 -0.38400
O 	O 	0.58200 0.28220 0.19113 -0.36900
O 	O 	0.87580 0.60830 0.13593 -0.37900
O 	O 	0.96950 0.93960 0.74990 -0.27700
O 	O 	0.40860 0.76890 0.71636 -0.27100
O 	O 	0.44360 0.46550 0.42730 -0.83500
O 	O 	0.92770 0.37600 0.76681 -0.36800
O 	O 	0.09140 0.73110 0.21636 -0.27200
O 	O 	0.96180 0.17250 0.87833 -0.51000
O 	O 	0.64100 0.66250 0.57840 -0.40500
O 	O 	0.03770 0.15430 0.61999 -0.37200
O 	O 	0.83180 0.17420 0.95848 -0.40800
O 	O 	0.83950 0.15090 0.10910 -0.26600
O 	O 	0.42770 0.87600 0.73319 -0.36700
O 	O 	0.90140 0.87320 0.47205 -0.25500
O 	O 	0.08270 0.74590 0.89221 -0.37700
O 	O 	0.40140 0.37320 0.02795 -0.25600
