data_crystal

_cell_length_a 33.15200
_cell_length_b 14.43020
_cell_length_c 14.07990
_cell_angle_alpha 90.00000
_cell_angle_beta  90.00000
_cell_angle_gamma 90.00000

_symmetry_space_group_name_	'P 1'
_symmetry_space_group_name_H-M	'P 1'

loop_
_symmetry_equiv_pos_as_xyz
  x,y,z

loop_
_atom_site_label
_atom_site_type_symbol
_atom_site_fract_x
_atom_site_fract_y
_atom_site_fract_z
_atom_site_charge
O 	O 	0.28220 0.64720 0.74630 -0.42600
O 	O 	0.65210 0.35240 0.58310 -0.43600
O 	O 	0.26891 0.34930 0.07450 -0.42400
O 	O 	0.61050 0.34410 0.45860 -0.54400
C 	C 	0.44471 0.49150 0.97020 0.00400
O 	O 	0.23962 0.35300 0.93060 -0.41000
C 	C 	0.32320 0.55630 0.84840 -0.09500
C 	C 	0.44784 0.47830 0.86990 -0.05100
H 	H 	0.42400 0.46820 0.83400 0.04700
C 	C 	0.52041 0.49570 0.87550 0.00800
C 	C 	0.29891 0.44020 0.95420 -0.08900
C 	C 	0.36088 0.55180 0.89140 -0.01300
H 	H 	0.38230 0.58940 0.86840 0.05300
C 	C 	0.62159 0.37520 0.53790 0.35000
C 	C 	0.33635 0.43860 0.99930 -0.01500
H 	H 	0.34040 0.39940 0.05270 0.04800
C 	C 	0.59328 0.44440 0.58240 -0.14700
C 	C 	0.36743 0.49320 0.96720 -0.00500
O 	O 	0.34921 0.65080 0.72800 -0.43100
C 	C 	0.40683 0.49250 0.01800 0.01200
C 	C 	0.48096 0.49870 0.02450 -0.00200
C 	C 	0.31754 0.62400 0.76720 0.38800
C 	C 	0.59311 0.50550 0.88290 -0.07900
H 	H 	0.61830 0.50650 0.85070 0.06500
O 	O 	0.48405 0.65380 0.55550 -0.42300
C 	C 	0.29228 0.49920 0.87900 0.03700
H 	H 	0.26670 0.50070 0.84840 0.04500
C 	C 	0.55826 0.50200 0.82940 0.01800
C 	C 	0.26587 0.37480 0.98900 0.38000
C 	C 	0.48367 0.48000 0.82490 -0.05400
H 	H 	0.48460 0.47040 0.75820 0.04800
C 	C 	0.59043 0.44630 0.68070 -0.00100
H 	H 	0.60780 0.40980 0.71930 0.03700
C 	C 	0.56183 0.50250 0.71990 -0.01000
C 	C 	0.54130 0.55930 0.57040 -0.12300
C 	C 	0.53780 0.55950 0.66830 0.00500
H 	H 	0.51880 0.59890 0.69880 0.04100
C 	C 	0.51430 0.62020 0.51390 0.40000
O 	O 	0.52310 0.63330 0.42760 -0.44100
C 	C 	0.56890 0.49960 0.52740 0.06700
H 	H 	0.57080 0.49710 0.46010 0.02800
C 	C 	0.19760 0.29310 0.70740 0.18300
C 	C 	0.19140 0.28800 0.53000 0.02400
C 	C 	0.19100 0.14720 0.63100 -0.02100
C 	C 	0.55400 0.17400 0.28100 0.08100
O 	O 	0.21780 0.35280 0.24630 -0.42600
O 	O 	0.84790 0.64760 0.08310 -0.43700
O 	O 	0.23109 0.65070 0.57450 -0.42600
O 	O 	0.88950 0.65590 0.95860 -0.54300
C 	C 	0.05529 0.50850 0.47020 0.00500
O 	O 	0.26038 0.64700 0.43060 -0.41100
C 	C 	0.17680 0.44370 0.34840 -0.09600
C 	C 	0.05216 0.52170 0.36990 -0.05200
H 	H 	0.07600 0.53180 0.33400 0.04600
C 	C 	0.97959 0.50430 0.37550 0.00700
C 	C 	0.20109 0.55980 0.45420 -0.09100
C 	C 	0.13912 0.44820 0.39140 -0.01300
H 	H 	0.11770 0.41060 0.36840 0.05200
C 	C 	0.87841 0.62480 0.03790 0.34700
C 	C 	0.16365 0.56140 0.49930 -0.01400
H 	H 	0.15960 0.60060 0.55270 0.04600
C 	C 	0.90672 0.55560 0.08240 -0.14600
C 	C 	0.13257 0.50680 0.46720 -0.00500
O 	O 	0.15079 0.34920 0.22800 -0.43100
C 	C 	0.09317 0.50750 0.51800 0.01100
C 	C 	0.01904 0.50130 0.52450 -0.00200
C 	C 	0.18246 0.37600 0.26720 0.38800
C 	C 	0.90689 0.49450 0.38290 -0.07800
H 	H 	0.88170 0.49350 0.35070 0.06400
O 	O 	0.01595 0.34620 0.05550 -0.42200
C 	C 	0.20772 0.50080 0.37900 0.03700
H 	H 	0.23330 0.49930 0.34840 0.04500
C 	C 	0.94174 0.49800 0.32940 0.01700
C 	C 	0.23413 0.62520 0.48900 0.38200
C 	C 	0.01633 0.52000 0.32490 -0.05300
H 	H 	0.01540 0.52960 0.25820 0.04800
C 	C 	0.90957 0.55370 0.18070 -0.00200
H 	H 	0.89220 0.59020 0.21930 0.03700
C 	C 	0.93817 0.49750 0.21990 -0.01000
C 	C 	0.95870 0.44070 0.07040 -0.12100
C 	C 	0.96220 0.44050 0.16830 0.00400
H 	H 	0.98120 0.40110 0.19880 0.04100
C 	C 	0.98570 0.37980 0.01390 0.39800
O 	O 	0.97690 0.36670 0.92760 -0.44000
C 	C 	0.93110 0.50040 0.02740 0.06400
H 	H 	0.92920 0.50290 0.96010 0.02900
C 	C 	0.30240 0.70690 0.20740 0.18300
C 	C 	0.30860 0.71200 0.03000 0.02500
C 	C 	0.30900 0.85280 0.13100 -0.02100
C 	C 	0.94600 0.82600 0.78100 0.08200
O 	O 	0.71780 0.14720 0.25370 -0.42700
O 	O 	0.34790 0.85240 0.41690 -0.43700
O 	O 	0.73109 0.84930 0.92550 -0.42500
O 	O 	0.38950 0.84410 0.54140 -0.54500
C 	C 	0.55529 0.99150 0.02980 0.00200
O 	O 	0.76038 0.85300 0.06940 -0.41100
C 	C 	0.67680 0.05630 0.15160 -0.09600
C 	C 	0.55216 0.97830 0.13010 -0.05100
H 	H 	0.57600 0.96820 0.16600 0.04500
C 	C 	0.47959 0.99570 0.12450 0.00500
C 	C 	0.70109 0.94020 0.04580 -0.09000
C 	C 	0.63912 0.05180 0.10860 -0.01300
H 	H 	0.61770 0.08940 0.13160 0.05200
C 	C 	0.37841 0.87520 0.46210 0.34900
C 	C 	0.66365 0.93860 0.00070 -0.01600
H 	H 	0.65960 0.89940 0.94730 0.04700
C 	C 	0.40672 0.94440 0.41760 -0.14700
C 	C 	0.63257 0.99320 0.03280 -0.00600
O 	O 	0.65079 0.15080 0.27200 -0.43100
C 	C 	0.59317 0.99250 0.98200 0.01400
C 	C 	0.51904 0.99870 0.97550 -0.00100
C 	C 	0.68246 0.12400 0.23280 0.38800
C 	C 	0.40689 0.00550 0.11710 -0.08000
H 	H 	0.38170 0.00650 0.14930 0.06500
O 	O 	0.51595 0.15380 0.44450 -0.42300
C 	C 	0.70772 0.99920 0.12100 0.03600
H 	H 	0.73330 0.00070 0.15160 0.04500
C 	C 	0.44174 0.00200 0.17060 0.01900
C 	C 	0.73413 0.87480 0.01100 0.38000
C 	C 	0.51633 0.98000 0.17510 -0.05300
H 	H 	0.51540 0.97040 0.24180 0.04800
C 	C 	0.40957 0.94630 0.31930 -0.00100
H 	H 	0.39220 0.90980 0.28070 0.03700
C 	C 	0.43817 0.00250 0.28010 -0.01000
C 	C 	0.45870 0.05930 0.42960 -0.12200
C 	C 	0.46220 0.05950 0.33170 0.00500
H 	H 	0.48120 0.09890 0.30120 0.04100
C 	C 	0.48570 0.12020 0.48610 0.40000
O 	O 	0.47690 0.13330 0.57240 -0.44100
C 	C 	0.43110 0.99960 0.47260 0.06600
H 	H 	0.42920 0.99710 0.53990 0.02800
C 	C 	0.80240 0.79310 0.29260 0.18300
C 	C 	0.80860 0.78800 0.47000 0.02400
C 	C 	0.80900 0.64720 0.36900 -0.02100
C 	C 	0.44600 0.67400 0.71900 0.08100
O 	O 	0.78220 0.85280 0.75370 -0.42600
O 	O 	0.15210 0.14760 0.91690 -0.43600
O 	O 	0.76891 0.15070 0.42550 -0.42600
O 	O 	0.11050 0.15590 0.04140 -0.54300
C 	C 	0.94471 0.00850 0.52980 0.00400
O 	O 	0.73962 0.14700 0.56940 -0.41100
C 	C 	0.82320 0.94370 0.65160 -0.09500
C 	C 	0.94784 0.02170 0.63010 -0.05200
H 	H 	0.92400 0.03180 0.66600 0.04500
C 	C 	0.02041 0.00430 0.62450 0.01000
C 	C 	0.79891 0.05980 0.54580 -0.09000
C 	C 	0.86088 0.94820 0.60860 -0.01300
H 	H 	0.88230 0.91060 0.63160 0.05200
C 	C 	0.12159 0.12480 0.96210 0.34700
C 	C 	0.83635 0.06140 0.50070 -0.01400
H 	H 	0.84040 0.10060 0.44730 0.04600
C 	C 	0.09328 0.05560 0.91760 -0.14500
C 	C 	0.86743 0.00680 0.53280 -0.00500
O 	O 	0.84921 0.84920 0.77200 -0.43100
C 	C 	0.90683 0.00750 0.48200 0.01100
C 	C 	0.98096 0.00130 0.47550 -0.00300
C 	C 	0.81754 0.87600 0.73280 0.38800
C 	C 	0.09311 0.99450 0.61710 -0.07700
H 	H 	0.11830 0.99350 0.64930 0.06400
O 	O 	0.98405 0.84620 0.94450 -0.42200
C 	C 	0.79228 0.00080 0.62100 0.03500
H 	H 	0.76670 0.99930 0.65160 0.04600
C 	C 	0.05826 0.99800 0.67060 0.01600
C 	C 	0.76587 0.12520 0.51100 0.38200
C 	C 	0.98367 0.02000 0.67510 -0.05600
H 	H 	0.98460 0.02960 0.74180 0.04900
C 	C 	0.09043 0.05370 0.81930 -0.00200
H 	H 	0.10780 0.09020 0.78070 0.03700
C 	C 	0.06183 0.99750 0.78010 -0.01000
C 	C 	0.04130 0.94070 0.92960 -0.12100
C 	C 	0.03780 0.94050 0.83170 0.00400
H 	H 	0.01880 0.90110 0.80120 0.04100
C 	C 	0.01430 0.87980 0.98610 0.39800
O 	O 	0.02310 0.86670 0.07240 -0.44000
C 	C 	0.06890 0.00040 0.97260 0.06300
H 	H 	0.07080 0.00290 0.03990 0.03000
C 	C 	0.69760 0.20690 0.79260 0.18300
C 	C 	0.69140 0.21200 0.97000 0.02400
C 	C 	0.69100 0.35280 0.86900 -0.02000
C 	C 	0.05400 0.32600 0.21900 0.08200
O 	O 	0.71780 0.35280 0.25370 -0.42700
O 	O 	0.34790 0.64760 0.41690 -0.43700
O 	O 	0.73109 0.65070 0.92550 -0.42500
O 	O 	0.38950 0.65590 0.54140 -0.54500
C 	C 	0.55529 0.50850 0.02980 0.00300
O 	O 	0.76038 0.64700 0.06940 -0.41100
C 	C 	0.67680 0.44370 0.15160 -0.09600
C 	C 	0.55216 0.52170 0.13010 -0.05200
H 	H 	0.57600 0.53180 0.16600 0.04600
C 	C 	0.47959 0.50430 0.12450 0.00700
C 	C 	0.70109 0.55980 0.04580 -0.09000
C 	C 	0.63912 0.44820 0.10860 -0.01400
H 	H 	0.61770 0.41060 0.13160 0.05200
C 	C 	0.37841 0.62480 0.46210 0.34900
C 	C 	0.66365 0.56140 0.00070 -0.01600
H 	H 	0.65960 0.60060 0.94730 0.04700
C 	C 	0.40672 0.55560 0.41760 -0.14700
C 	C 	0.63257 0.50680 0.03280 -0.00500
O 	O 	0.65079 0.34920 0.27200 -0.43100
C 	C 	0.59317 0.50750 0.98200 0.01200
C 	C 	0.51904 0.50130 0.97550 -0.00200
C 	C 	0.68246 0.37600 0.23280 0.38800
C 	C 	0.40689 0.49450 0.11710 -0.07900
H 	H 	0.38170 0.49350 0.14930 0.06500
O 	O 	0.51595 0.34620 0.44450 -0.42300
C 	C 	0.70772 0.50080 0.12100 0.03700
H 	H 	0.73330 0.49930 0.15160 0.04500
C 	C 	0.44174 0.49800 0.17060 0.01800
C 	C 	0.73413 0.62520 0.01100 0.38000
C 	C 	0.51633 0.52000 0.17510 -0.05400
H 	H 	0.51540 0.52960 0.24180 0.04800
C 	C 	0.40957 0.55370 0.31930 -0.00100
H 	H 	0.39220 0.59020 0.28070 0.03700
C 	C 	0.43817 0.49750 0.28010 -0.01000
C 	C 	0.45870 0.44070 0.42960 -0.12300
C 	C 	0.46220 0.44050 0.33170 0.00500
H 	H 	0.48120 0.40110 0.30120 0.04100
C 	C 	0.48570 0.37980 0.48610 0.40000
O 	O 	0.47690 0.36670 0.57240 -0.44100
C 	C 	0.43110 0.50040 0.47260 0.06700
H 	H 	0.42920 0.50290 0.53990 0.02800
C 	C 	0.80240 0.70690 0.29260 0.18300
C 	C 	0.80860 0.71200 0.47000 0.02400
C 	C 	0.80900 0.85280 0.36900 -0.02100
C 	C 	0.44600 0.82600 0.71900 0.08100
O 	O 	0.78220 0.64720 0.75370 -0.42600
O 	O 	0.15210 0.35240 0.91690 -0.43700
O 	O 	0.76891 0.34930 0.42550 -0.42600
O 	O 	0.11050 0.34410 0.04140 -0.54300
C 	C 	0.94471 0.49150 0.52980 0.00500
O 	O 	0.73962 0.35300 0.56940 -0.41100
C 	C 	0.82320 0.55630 0.65160 -0.09600
C 	C 	0.94784 0.47830 0.63010 -0.05200
H 	H 	0.92400 0.46820 0.66600 0.04600
C 	C 	0.02041 0.49570 0.62450 0.00700
C 	C 	0.79891 0.44020 0.54580 -0.09100
C 	C 	0.86088 0.55180 0.60860 -0.01300
H 	H 	0.88230 0.58940 0.63160 0.05200
C 	C 	0.12159 0.37520 0.96210 0.34700
C 	C 	0.83635 0.43860 0.50070 -0.01400
H 	H 	0.84040 0.39940 0.44730 0.04600
C 	C 	0.09328 0.44440 0.91760 -0.14600
C 	C 	0.86743 0.49320 0.53280 -0.00500
O 	O 	0.84921 0.65080 0.77200 -0.43100
C 	C 	0.90683 0.49250 0.48200 0.01100
C 	C 	0.98096 0.49870 0.47550 -0.00200
C 	C 	0.81754 0.62400 0.73280 0.38800
C 	C 	0.09311 0.50550 0.61710 -0.07800
H 	H 	0.11830 0.50650 0.64930 0.06400
O 	O 	0.98405 0.65380 0.94450 -0.42200
C 	C 	0.79228 0.49920 0.62100 0.03700
H 	H 	0.76670 0.50070 0.65160 0.04500
C 	C 	0.05826 0.50200 0.67060 0.01700
C 	C 	0.76587 0.37480 0.51100 0.38200
C 	C 	0.98367 0.48000 0.67510 -0.05300
H 	H 	0.98460 0.47040 0.74180 0.04800
C 	C 	0.09043 0.44630 0.81930 -0.00200
H 	H 	0.10780 0.40980 0.78070 0.03700
C 	C 	0.06183 0.50250 0.78010 -0.01000
C 	C 	0.04130 0.55930 0.92960 -0.12100
C 	C 	0.03780 0.55950 0.83170 0.00400
H 	H 	0.01880 0.59890 0.80120 0.04100
C 	C 	0.01430 0.62020 0.98610 0.39800
O 	O 	0.02310 0.63330 0.07240 -0.44000
C 	C 	0.06890 0.49960 0.97260 0.06400
H 	H 	0.07080 0.49710 0.03990 0.02900
C 	C 	0.69760 0.29310 0.79260 0.18300
C 	C 	0.69140 0.28800 0.97000 0.02500
C 	C 	0.69100 0.14720 0.86900 -0.02100
C 	C 	0.05400 0.17400 0.21900 0.08200
O 	O 	0.28220 0.85280 0.74630 -0.42700
O 	O 	0.65210 0.14760 0.58310 -0.43700
O 	O 	0.26891 0.15070 0.07450 -0.42500
O 	O 	0.61050 0.15590 0.45860 -0.54500
C 	C 	0.44471 0.00850 0.97020 0.00200
O 	O 	0.23962 0.14700 0.93060 -0.41100
C 	C 	0.32320 0.94370 0.84840 -0.09600
C 	C 	0.44784 0.02170 0.86990 -0.05100
H 	H 	0.42400 0.03180 0.83400 0.04500
C 	C 	0.52041 0.00430 0.87550 0.00500
C 	C 	0.29891 0.05980 0.95420 -0.09000
C 	C 	0.36088 0.94820 0.89140 -0.01300
H 	H 	0.38230 0.91060 0.86840 0.05200
C 	C 	0.62159 0.12480 0.53790 0.34900
C 	C 	0.33635 0.06140 0.99930 -0.01600
H 	H 	0.34040 0.10060 0.05270 0.04700
C 	C 	0.59328 0.05560 0.58240 -0.14700
C 	C 	0.36743 0.00680 0.96720 -0.00600
O 	O 	0.34921 0.84920 0.72800 -0.43100
C 	C 	0.40683 0.00750 0.01800 0.01400
C 	C 	0.48096 0.00130 0.02450 -0.00100
C 	C 	0.31754 0.87600 0.76720 0.38800
C 	C 	0.59311 0.99450 0.88290 -0.08000
H 	H 	0.61830 0.99350 0.85070 0.06500
O 	O 	0.48405 0.84620 0.55550 -0.42300
C 	C 	0.29228 0.00080 0.87900 0.03600
H 	H 	0.26670 0.99930 0.84840 0.04500
C 	C 	0.55826 0.99800 0.82940 0.01900
C 	C 	0.26587 0.12520 0.98900 0.38000
C 	C 	0.48367 0.02000 0.82490 -0.05300
H 	H 	0.48460 0.02960 0.75820 0.04800
C 	C 	0.59043 0.05370 0.68070 -0.00100
H 	H 	0.60780 0.09020 0.71930 0.03700
C 	C 	0.56183 0.99750 0.71990 -0.01000
C 	C 	0.54130 0.94070 0.57040 -0.12200
C 	C 	0.53780 0.94050 0.66830 0.00500
H 	H 	0.51880 0.90110 0.69880 0.04100
C 	C 	0.51430 0.87980 0.51390 0.40000
O 	O 	0.52310 0.86670 0.42760 -0.44100
C 	C 	0.56890 0.00040 0.52740 0.06600
H 	H 	0.57080 0.00290 0.46010 0.02800
C 	C 	0.19760 0.20690 0.70740 0.18300
C 	C 	0.19140 0.21200 0.53000 0.02400
C 	C 	0.19100 0.35280 0.63100 -0.02100
C 	C 	0.55400 0.32600 0.28100 0.08100
O 	O 	0.21780 0.14720 0.24630 -0.42600
O 	O 	0.84790 0.85240 0.08310 -0.43600
O 	O 	0.23109 0.84930 0.57450 -0.42600
O 	O 	0.88950 0.84410 0.95860 -0.54300
C 	C 	0.05529 0.99150 0.47020 0.00400
O 	O 	0.26038 0.85300 0.43060 -0.41100
C 	C 	0.17680 0.05630 0.34840 -0.09500
C 	C 	0.05216 0.97830 0.36990 -0.05200
H 	H 	0.07600 0.96820 0.33400 0.04500
C 	C 	0.97959 0.99570 0.37550 0.01000
C 	C 	0.20109 0.94020 0.45420 -0.09000
C 	C 	0.13912 0.05180 0.39140 -0.01300
H 	H 	0.11770 0.08940 0.36840 0.05200
C 	C 	0.87841 0.87520 0.03790 0.34700
C 	C 	0.16365 0.93860 0.49930 -0.01400
H 	H 	0.15960 0.89940 0.55270 0.04600
C 	C 	0.90672 0.94440 0.08240 -0.14500
C 	C 	0.13257 0.99320 0.46720 -0.00500
O 	O 	0.15079 0.15080 0.22800 -0.43100
C 	C 	0.09317 0.99250 0.51800 0.01100
C 	C 	0.01904 0.99870 0.52450 -0.00300
C 	C 	0.18246 0.12400 0.26720 0.38800
C 	C 	0.90689 0.00550 0.38290 -0.07700
H 	H 	0.88170 0.00650 0.35070 0.06400
O 	O 	0.01595 0.15380 0.05550 -0.42200
C 	C 	0.20772 0.99920 0.37900 0.03500
H 	H 	0.23330 0.00070 0.34840 0.04600
C 	C 	0.94174 0.00200 0.32940 0.01600
C 	C 	0.23413 0.87480 0.48900 0.38200
C 	C 	0.01633 0.98000 0.32490 -0.05600
H 	H 	0.01540 0.97040 0.25820 0.04900
C 	C 	0.90957 0.94630 0.18070 -0.00200
H 	H 	0.89220 0.90980 0.21930 0.03700
C 	C 	0.93817 0.00250 0.21990 -0.01000
C 	C 	0.95870 0.05930 0.07040 -0.12100
C 	C 	0.96220 0.05950 0.16830 0.00400
H 	H 	0.98120 0.09890 0.19880 0.04100
C 	C 	0.98570 0.12020 0.01390 0.39800
O 	O 	0.97690 0.13330 0.92760 -0.44000
C 	C 	0.93110 0.99960 0.02740 0.06300
H 	H 	0.92920 0.99710 0.96010 0.03000
C 	C 	0.30240 0.79310 0.20740 0.18300
C 	C 	0.30860 0.78800 0.03000 0.02400
C 	C 	0.30900 0.64720 0.13100 -0.02000
C 	C 	0.94600 0.67400 0.78100 0.08200
Co	Co	0.24118 0.25000 0.15735 1.18000
Co	Co	0.19637 0.25000 0.92921 1.21100
Co	Co	0.55720 0.25000 0.46655 1.18000
O 	O 	0.19890 0.25000 0.78190 -0.41000
N 	N 	0.19340 0.25000 0.62400 -0.17100
O 	O 	0.57430 0.25000 0.31660 -0.41400
O 	O 	0.56150 0.25000 0.61370 2.52600
O 	O 	0.08890 0.25000 0.72000 -0.19000
C 	C 	0.16010 0.25000 0.53400 0.04600
C 	C 	0.12600 0.25000 0.69700 0.13300
C 	C 	0.08140 0.25000 0.56600 0.06700
N 	N 	0.12460 0.25000 0.60100 -0.12400
Co	Co	0.47690 0.25000 0.64770 0.46700
O 	O 	0.52160 0.25000 0.74170 -0.23200
Co	Co	0.49550 0.25000 0.64210 1.01100
O 	O 	0.55550 0.25000 0.70700 -0.20600
O 	O 	0.54440 0.25000 0.60840 -2.92100
Co	Co	0.25882 0.75000 0.65735 1.18000
Co	Co	0.30363 0.75000 0.42921 1.21100
Co	Co	0.94280 0.75000 0.96655 1.18000
O 	O 	0.30110 0.75000 0.28190 -0.41000
N 	N 	0.30660 0.75000 0.12400 -0.17100
O 	O 	0.92570 0.75000 0.81660 -0.41400
O 	O 	0.93850 0.75000 0.11370 2.52600
O 	O 	0.41110 0.75000 0.22000 -0.19000
C 	C 	0.33990 0.75000 0.03400 0.04600
C 	C 	0.37400 0.75000 0.19700 0.13300
C 	C 	0.41860 0.75000 0.06600 0.06700
N 	N 	0.37540 0.75000 0.10100 -0.12400
Co	Co	0.02310 0.75000 0.14770 0.46700
O 	O 	0.97840 0.75000 0.24170 -0.23200
Co	Co	0.00450 0.75000 0.14210 1.01100
O 	O 	0.94450 0.75000 0.20700 -0.20600
O 	O 	0.95560 0.75000 0.10840 -2.92100
Co	Co	0.75882 0.75000 0.84265 1.18000
Co	Co	0.80363 0.75000 0.07079 1.21100
Co	Co	0.44280 0.75000 0.53345 1.18000
O 	O 	0.80110 0.75000 0.21810 -0.41000
N 	N 	0.80660 0.75000 0.37600 -0.17100
O 	O 	0.42570 0.75000 0.68340 -0.41400
O 	O 	0.43850 0.75000 0.38630 2.52600
O 	O 	0.91110 0.75000 0.28000 -0.19000
C 	C 	0.83990 0.75000 0.46600 0.04600
C 	C 	0.87400 0.75000 0.30300 0.13300
C 	C 	0.91860 0.75000 0.43400 0.06700
N 	N 	0.87540 0.75000 0.39900 -0.12400
Co	Co	0.52310 0.75000 0.35230 0.46700
O 	O 	0.47840 0.75000 0.25830 -0.23200
Co	Co	0.50450 0.75000 0.35790 1.01100
O 	O 	0.44450 0.75000 0.29300 -0.20600
O 	O 	0.45560 0.75000 0.39160 -2.92100
Co	Co	0.74118 0.25000 0.34265 1.18000
Co	Co	0.69637 0.25000 0.57079 1.21100
Co	Co	0.05720 0.25000 0.03345 1.18000
O 	O 	0.69890 0.25000 0.71810 -0.41000
N 	N 	0.69340 0.25000 0.87600 -0.17100
O 	O 	0.07430 0.25000 0.18340 -0.41400
O 	O 	0.06150 0.25000 0.88630 2.52600
O 	O 	0.58890 0.25000 0.78000 -0.19000
C 	C 	0.66010 0.25000 0.96600 0.04600
C 	C 	0.62600 0.25000 0.80300 0.13300
C 	C 	0.58140 0.25000 0.93400 0.06700
N 	N 	0.62460 0.25000 0.89900 -0.12400
Co	Co	0.97690 0.25000 0.85230 0.46700
O 	O 	0.02160 0.25000 0.75830 -0.23200
Co	Co	0.99550 0.25000 0.85790 1.01100
O 	O 	0.05550 0.25000 0.79300 -0.20600
O 	O 	0.04440 0.25000 0.89160 -2.92100
Co	Co	0.36281 0.75000 0.63345 1.19600
O 	O 	0.30831 0.75000 0.57180 -0.58500
Co	Co	0.13719 0.25000 0.13345 1.19600
O 	O 	0.19169 0.25000 0.07180 -0.58400
Co	Co	0.63719 0.25000 0.36655 1.19600
O 	O 	0.69169 0.25000 0.42820 -0.58500
Co	Co	0.86281 0.75000 0.86655 1.19600
O 	O 	0.80831 0.75000 0.92820 -0.58400
