data_crystal

_cell_length_a 12.72280
_cell_length_b 18.13720
_cell_length_c 18.13720
_cell_angle_alpha 82.93380
_cell_angle_beta  69.46760
_cell_angle_gamma 69.46770

_symmetry_space_group_name_	'P 1'
_symmetry_space_group_name_H-M	'P 1'

loop_
_symmetry_equiv_pos_as_xyz
  x,y,z

loop_
_atom_site_label
_atom_site_type_symbol
_atom_site_fract_x
_atom_site_fract_y
_atom_site_fract_z
_atom_site_charge
Mn	Mn	0.96519 0.17360 0.90792 1.32800
Mn	Mn	0.87311 0.09208 0.67360 1.30100
Mn	Mn	0.20174 0.21831 0.81758 1.30500
Mn	Mn	0.98067 0.81758 0.28170 1.33300
Mn	Mn	0.03481 0.82640 0.09208 1.26000
Mn	Mn	0.45329 0.67360 0.40792 1.30100
Mn	Mn	0.50000 0.50000 0.50000 1.30300
Mn	Mn	0.57995 0.68242 0.21830 1.30600
Mn	Mn	0.26236 0.71831 0.31758 1.30400
Mn	Mn	0.86121 0.59208 0.17360 1.30200
Mn	Mn	-0.00000 0.50000 -0.00000 1.24800
Mn	Mn	0.73764 0.28169 0.68242 1.30900
Mn	Mn	0.12689 0.90792 0.32640 1.30000
Mn	Mn	0.42005 0.31758 0.78170 1.30700
Mn	Mn	-0.00000 0.00000 -0.00000 1.23100
Mn	Mn	0.00000 0.00000 0.50000 1.25800
Mn	Mn	0.54671 0.32640 0.59208 1.30200
Mn	Mn	0.13879 0.40792 0.82640 1.30300
Mn	Mn	0.01933 0.18242 0.71830 1.28600
Mn	Mn	0.79826 0.78169 0.18242 1.30700
H 	H 	0.67910 0.09870 0.89190 0.28700
H 	H 	0.55110 0.88680 0.41180 0.31000
H 	H 	0.69680 0.04990 0.44690 0.10100
H 	H 	0.89510 0.68620 0.81300 0.28300
H 	H 	0.20560 0.35140 0.17740 0.19600
H 	H 	0.73530 0.51640 0.48980 0.27700
H 	H 	0.16480 0.56430 0.69890 0.26200
H 	H 	0.14010 0.86460 0.58440 0.26400
H 	H 	0.22220 0.60810 0.09870 0.26600
H 	H 	0.45950 0.75380 0.62940 0.24400
H 	H 	0.94170 0.20510 0.60310 0.29700
H 	H 	0.10570 0.18620 0.31300 0.21000
H 	H 	0.63390 0.53230 0.01630 0.30600
H 	H 	0.92800 0.93570 0.80110 0.19900
H 	H 	0.26250 0.67870 0.04930 0.26600
H 	H 	0.89430 0.81380 0.68700 0.26000
H 	H 	0.06650 0.92510 0.77370 0.14800
H 	H 	0.26530 0.57490 0.72630 0.26600
H 	H 	0.27090 0.80110 0.56430 0.26800
H 	H 	0.16970 0.40130 0.60810 0.28100
H 	H 	0.22510 0.51020 0.01640 0.15300
H 	H 	0.05830 0.79490 0.39690 0.26600
H 	H 	0.44300 0.32260 0.35140 0.23600
H 	H 	0.29190 0.81300 0.81380 0.24200
H 	H 	0.73750 0.32130 0.95070 0.31900
H 	H 	0.54480 0.39690 0.70510 0.28400
H 	H 	0.07200 0.06430 0.19890 0.35400
H 	H 	0.91090 0.36460 0.08440 0.35100
H 	H 	0.93350 0.07490 0.22630 0.40800
H 	H 	0.54050 0.24620 0.37060 0.23400
H 	H 	0.49050 0.82130 0.45070 0.30000
H 	H 	0.77780 0.39190 0.90130 0.31300
H 	H 	0.65730 0.25380 0.12940 0.22600
H 	H 	0.42900 0.89190 0.40130 0.29900
H 	H 	0.05880 0.45070 0.67870 0.27800
H 	H 	0.34970 0.61320 0.08820 0.27900
H 	H 	0.84020 0.22630 0.42510 0.28600
H 	H 	0.83030 0.59870 0.39190 0.30200
H 	H 	0.23440 0.14860 0.32260 0.22400
H 	H 	0.00840 0.72630 0.92510 0.15500
H 	H 	0.78670 0.87060 0.75380 0.25900
H 	H 	0.79440 0.64860 0.82260 0.28100
H 	H 	0.94120 0.54930 0.32130 0.31400
H 	H 	0.21330 0.12940 0.24620 0.21600
H 	H 	0.68250 0.96770 0.48370 0.15900
H 	H 	0.24150 0.98360 0.01020 0.16200
H 	H 	0.72450 0.41560 0.36460 0.28100
H 	H 	0.76560 0.85140 0.67740 0.26100
H 	H 	0.50950 0.17870 0.54930 0.29000
H 	H 	0.85630 0.44690 0.45010 0.27900
H 	H 	0.99160 0.27370 0.07490 0.35500
H 	H 	0.57100 0.10810 0.59870 0.28400
H 	H 	0.36610 0.46770 0.98370 0.22300
H 	H 	0.38300 0.82260 0.85140 0.25800
H 	H 	0.99530 0.91560 0.86460 0.21000
H 	H 	0.73470 0.42510 0.27370 0.27800
H 	H 	0.00470 0.08440 0.13540 0.33800
H 	H 	0.77490 0.48980 0.98360 0.35300
H 	H 	0.91110 0.62940 0.74620 0.28700
H 	H 	0.83520 0.43570 0.30110 0.28900
H 	H 	0.08910 0.63540 0.91560 0.16300
H 	H 	0.83380 0.48370 0.53230 0.29200
H 	H 	0.25330 0.05310 0.04990 0.11200
H 	H 	0.61700 0.17740 0.14860 0.22700
H 	H 	0.65030 0.38680 0.91180 0.31700
H 	H 	0.58130 0.31300 0.31380 0.23300
H 	H 	0.24990 0.29490 0.89690 0.28700
H 	H 	0.27550 0.58440 0.63540 0.26600
H 	H 	0.16620 0.51630 0.46770 0.25200
H 	H 	0.14680 0.10310 0.79490 0.27400
H 	H 	0.70810 0.18700 0.18620 0.22900
H 	H 	0.03710 0.41180 0.61320 0.27300
H 	H 	0.96290 0.58820 0.38680 0.32600
H 	H 	0.14370 0.55310 0.54990 0.24400
H 	H 	0.55700 0.67740 0.64860 0.25100
H 	H 	0.31750 0.03230 0.51630 0.37700
H 	H 	0.08890 0.37060 0.25380 0.17800
H 	H 	0.86370 0.30110 0.06430 0.33700
H 	H 	0.30640 0.54990 0.94690 0.21000
H 	H 	0.25170 0.98980 0.48360 0.42300
H 	H 	0.74830 0.01020 0.51640 0.10200
H 	H 	0.34980 0.01630 0.96770 0.17700
H 	H 	0.85990 0.13540 0.41560 0.28300
H 	H 	0.74670 0.94690 0.95010 0.34700
H 	H 	0.26470 0.48360 0.51020 0.25900
H 	H 	0.65020 0.98370 0.03230 0.32100
H 	H 	0.34270 0.74620 0.87060 0.25100
H 	H 	0.85320 0.89690 0.20510 0.29300
H 	H 	0.72910 0.19890 0.43570 0.27900
H 	H 	0.69360 0.45010 0.05310 0.29600
H 	H 	0.44890 0.11320 0.58820 0.28600
H 	H 	0.32090 0.90130 0.10810 0.29900
H 	H 	0.31180 0.95070 0.17870 0.31400
H 	H 	0.45520 0.60310 0.29490 0.28100
H 	H 	0.13630 0.69890 0.93570 0.17500
H 	H 	0.75850 0.01640 0.98980 0.31300
H 	H 	0.30320 0.95010 0.55310 0.41000
H 	H 	0.41870 0.68700 0.68620 0.24100
H 	H 	0.75010 0.70510 0.10310 0.28400
H 	H 	0.43790 0.91180 0.11320 0.30600
H 	H 	0.15980 0.77370 0.57490 0.25600
H 	H 	0.56210 0.08820 0.88680 0.29400
H 	H 	0.10490 0.31380 0.18700 0.17800
H 	H 	0.68820 0.04930 0.82130 0.27600
C 	C 	0.79602 0.46940 0.50016 -0.94300
C 	C 	0.38138 0.83178 0.19226 0.68400
C 	C 	0.73442 0.96940 0.00016 -1.06900
C 	C 	0.21377 0.84458 0.93068 0.57700
C 	C 	0.14445 0.06932 0.34458 0.55800
C 	C 	0.31692 0.80293 0.86043 -0.84100
C 	C 	0.26542 0.00016 0.53060 -1.33400
C 	C 	0.95909 0.03102 0.82860 0.49800
C 	C 	0.85555 0.93068 0.65542 0.58900
C 	C 	0.04091 0.96898 0.17140 0.76200
C 	C 	0.00989 0.67140 0.03102 0.27600
C 	C 	0.26647 0.64388 0.09478 -0.95300
C 	C 	0.61862 0.16822 0.80774 0.67100
C 	C 	0.73458 0.99984 0.46940 -0.46900
C 	C 	0.01009 0.05574 0.18408 -1.30100
C 	C 	0.51097 0.34458 0.43068 0.57300
C 	C 	0.20398 0.53060 0.49984 -0.89400
C 	C 	0.48028 0.69707 0.63957 -0.84300
C 	C 	0.90542 0.66822 0.30774 0.69300
C 	C 	0.73353 0.35612 0.90522 -1.02000
C 	C 	0.98991 0.94426 0.81592 -0.60300
C 	C 	0.80783 0.90978 0.04336 0.67000
C 	C 	0.06583 0.68408 0.94426 -0.56200
C 	C 	0.80583 0.18408 0.44426 -0.95200
C 	C 	0.31871 0.46898 0.67140 0.62700
C 	C 	0.85119 0.95664 0.40978 0.49600
C 	C 	0.48903 0.65542 0.56932 0.58000
C 	C 	0.14881 0.04336 0.59022 0.74500
C 	C 	0.78684 0.30774 0.83178 0.69200
C 	C 	0.88015 0.63957 0.80293 -0.93200
C 	C 	0.26097 0.59022 0.45664 0.61600
C 	C 	0.21231 0.82860 0.46898 0.62100
C 	C 	0.94165 0.56932 0.84458 0.67800
C 	C 	0.50513 0.85612 0.40522 -1.00200
C 	C 	0.57364 0.80774 0.33178 0.68300
C 	C 	0.74991 0.44426 0.31592 -0.95800
C 	C 	0.29618 0.49984 0.96940 -0.68100
C 	C 	0.73903 0.40978 0.54336 0.63700
C 	C 	0.19217 0.09022 0.95664 0.52900
C 	C 	0.19417 0.81592 0.55574 -0.92700
C 	C 	0.70382 0.50016 0.03060 -1.08300
C 	C 	0.91035 0.59478 0.35612 -1.01700
C 	C 	0.26558 0.03060 0.99984 -0.58600
C 	C 	0.21316 0.69226 0.16822 0.66000
C 	C 	0.93417 0.31592 0.05574 -1.17900
C 	C 	0.05835 0.43068 0.15542 0.44000
C 	C 	0.71761 0.54336 0.09022 0.66800
C 	C 	0.63875 0.09478 0.85612 -0.97300
C 	C 	0.08965 0.40522 0.64388 -0.96100
C 	C 	0.28239 0.45664 0.90978 0.56300
C 	C 	0.25009 0.55574 0.68408 -0.92700
C 	C 	0.42636 0.19226 0.66822 0.67000
C 	C 	0.49487 0.14388 0.59478 -0.97300
C 	C 	0.82265 0.86043 0.69707 -0.85600
C 	C 	0.51972 0.30293 0.36043 -0.82400
C 	C 	0.99011 0.32860 0.96898 0.85300
C 	C 	0.36125 0.90522 0.14388 -1.00500
C 	C 	0.09458 0.33178 0.69226 0.66300
C 	C 	0.11985 0.36043 0.19707 -0.70400
C 	C 	0.78769 0.17140 0.53102 0.63900
C 	C 	0.68308 0.19707 0.13957 -0.81800
C 	C 	0.68129 0.53102 0.32860 0.63700
C 	C 	0.17735 0.13957 0.30293 -0.80400
C 	C 	0.78623 0.15542 0.06932 0.56800
O 	O 	0.91511 0.90832 0.02918 -0.60700
O 	O 	0.25923 0.30056 0.84826 -0.85300
O 	O 	0.88301 0.67204 0.24438 -0.64800
O 	O 	0.47713 0.77793 0.16601 -0.57000
O 	O 	0.55979 0.34826 0.69944 -0.85200
O 	O 	0.28660 0.77441 0.42175 -0.61900
O 	O 	0.01724 0.27441 0.92175 -0.71500
O 	O 	0.21668 0.63458 0.41012 -0.55800
O 	O 	0.09195 0.80056 0.34826 -0.87200
O 	O 	0.64314 0.83399 0.27793 -0.56300
O 	O 	0.52469 0.30278 0.48900 -0.55900
O 	O 	0.17253 0.01100 0.30278 -0.60000
O 	O 	0.07893 0.27793 0.66601 -0.57900
O 	O 	0.00817 0.39380 0.94596 -0.71300
O 	O 	0.17657 0.47082 0.90832 -0.60200
O 	O 	0.01369 0.51100 0.80278 -0.62300
O 	O 	0.59803 0.55404 0.39380 -0.63600
O 	O 	0.52287 0.22207 0.83399 -0.56000
O 	O 	0.76138 0.86542 0.08988 -0.55700
O 	O 	0.47531 0.69722 0.51100 -0.56000
O 	O 	0.35686 0.16601 0.72207 -0.56900
O 	O 	0.16413 0.91787 0.92577 -0.49500
O 	O 	0.82343 0.52918 0.09168 -0.64200
O 	O 	0.14874 0.08988 0.63458 -0.60500
O 	O 	0.98631 0.48900 0.19722 -0.47000
O 	O 	0.70057 0.17204 0.74438 -0.65200
O 	O 	0.15207 0.89380 0.44596 -0.63400
O 	O 	0.84793 0.10620 0.55404 -0.62400
O 	O 	0.55505 0.74438 0.32796 -0.65200
O 	O 	0.23862 0.13458 0.91012 -0.51800
O 	O 	0.87261 0.24438 0.82796 -0.63100
O 	O 	0.10749 0.15174 0.80056 -0.86600
O 	O 	0.91010 0.92577 0.58213 -0.47800
O 	O 	0.83587 0.08213 0.07423 -0.53300
O 	O 	0.64739 0.40832 0.52918 -0.63800
O 	O 	0.70835 0.57825 0.27441 -0.62300
O 	O 	0.18353 0.80278 0.98900 -0.52100
O 	O 	0.85126 0.91012 0.36542 -0.48400
O 	O 	0.74077 0.69944 0.15174 -0.85200
O 	O 	0.78332 0.36542 0.58988 -0.54000
O 	O 	0.99183 0.60620 0.05404 -0.48100
O 	O 	0.92107 0.72207 0.33399 -0.54900
O 	O 	0.35261 0.59168 0.47082 -0.63500
O 	O 	0.40197 0.44596 0.60620 -0.63300
O 	O 	0.71340 0.22559 0.57825 -0.62200
O 	O 	0.37320 0.41012 0.86542 -0.52500
O 	O 	0.11699 0.32796 0.75562 -0.65300
O 	O 	0.82747 0.98900 0.69722 -0.51600
O 	O 	0.25506 0.66601 0.22207 -0.57200
O 	O 	0.74494 0.33399 0.77793 -0.56100
O 	O 	0.29943 0.82796 0.25562 -0.65000
O 	O 	0.08200 0.42577 0.08213 -0.53800
O 	O 	0.05571 0.02918 0.59168 -0.71800
O 	O 	0.98276 0.72559 0.07825 -0.46700
O 	O 	0.89251 0.84826 0.19944 -0.83100
O 	O 	0.08990 0.07423 0.41787 -0.56300
O 	O 	0.81647 0.19722 0.01100 -0.58000
O 	O 	0.06101 0.92175 0.22559 -0.67800
O 	O 	0.04587 0.94596 0.10620 -0.68500
O 	O 	0.08489 0.09168 0.97082 -0.61000
O 	O 	0.91800 0.57423 0.91787 -0.50800
O 	O 	0.90805 0.19944 0.65174 -0.83700
O 	O 	0.44495 0.25562 0.67204 -0.65000
O 	O 	0.95413 0.05404 0.89380 -0.57600
O 	O 	0.29165 0.42175 0.72559 -0.61900
O 	O 	0.50777 0.58213 0.57423 -0.52900
O 	O 	0.62680 0.58988 0.13458 -0.56400
O 	O 	0.93899 0.07825 0.77441 -0.57200
O 	O 	0.49223 0.41787 0.42577 -0.52800
O 	O 	0.44021 0.65174 0.30056 -0.85200
O 	O 	0.94429 0.97082 0.40832 -0.53100
O 	O 	0.12739 0.75562 0.17204 -0.67900
