data_crystal

_cell_length_a 10.43800
_cell_length_b 10.43800
_cell_length_c 13.85300
_cell_angle_alpha 90.00000
_cell_angle_beta  90.00000
_cell_angle_gamma 90.00000

_symmetry_space_group_name_	'P 1'
_symmetry_space_group_name_H-M	'P 1'

loop_
_symmetry_equiv_pos_as_xyz
  x,y,z

loop_
_atom_site_label
_atom_site_type_symbol
_atom_site_fract_x
_atom_site_fract_y
_atom_site_fract_z
_atom_site_charge
La	La	0.39317 0.63319 0.81087 1.64800
La	La	0.63319 0.60683 0.56087 1.64000
La	La	0.60683 0.36681 0.31087 1.63900
La	La	0.36681 0.39317 0.06087 1.61900
H 	H 	0.61030 0.03010 0.56600 0.02400
H 	H 	0.50880 0.04610 0.84740 0.03200
H 	H 	0.63430 0.50830 0.93440 -0.02600
H 	H 	0.04610 0.49120 0.59740 0.02700
H 	H 	0.49170 0.63430 0.18440 -0.01600
H 	H 	0.96990 0.61030 0.81600 0.02300
H 	H 	0.03010 0.38970 0.31600 0.02300
H 	H 	0.36570 0.49170 0.43440 -0.01900
H 	H 	0.50830 0.36570 0.68440 -0.01900
H 	H 	0.49120 0.95390 0.34740 0.02800
H 	H 	0.95390 0.50880 0.09740 0.03200
H 	H 	0.38970 0.96990 0.06600 0.01700
C 	C 	0.41170 0.73260 0.01570 0.31400
C 	C 	0.58830 0.26740 0.51570 0.35600
C 	C 	0.07760 0.41650 0.37000 0.09400
C 	C 	0.91280 0.52420 0.03820 0.05600
C 	C 	0.56630 0.20620 0.61270 -0.16100
C 	C 	0.50990 0.21940 0.78120 -0.15700
C 	C 	0.70790 0.47230 0.11790 0.35800
C 	C 	0.72220 0.52540 0.94160 0.15400
C 	C 	0.43880 0.98430 0.20840 -0.15700
C 	C 	0.56120 0.01570 0.70840 -0.15600
C 	C 	0.29210 0.52770 0.61790 0.35100
C 	C 	0.26740 0.41170 0.26570 0.35700
C 	C 	0.43370 0.79380 0.11270 -0.15300
C 	C 	0.52540 0.27780 0.69160 0.10200
C 	C 	0.47580 0.91280 0.28820 0.08200
C 	C 	0.56890 0.87070 0.71410 0.39400
C 	C 	0.52770 0.70790 0.36790 0.34900
C 	C 	0.87070 0.43110 0.46410 0.39400
C 	C 	0.49010 0.78060 0.28120 -0.15900
C 	C 	0.12930 0.56890 0.96410 0.42800
C 	C 	0.47460 0.72220 0.19160 0.09500
C 	C 	0.58350 0.07760 0.62000 0.09300
C 	C 	0.20620 0.43370 0.36270 -0.16300
C 	C 	0.27780 0.47460 0.44160 0.10400
C 	C 	0.73260 0.58830 0.76570 0.36200
C 	C 	0.01570 0.43880 0.45840 -0.15900
C 	C 	0.43110 0.12930 0.21410 0.39200
C 	C 	0.79380 0.56630 0.86270 -0.17300
C 	C 	0.47230 0.29210 0.86790 0.34800
C 	C 	0.21940 0.49010 0.53120 -0.16200
C 	C 	0.98430 0.56120 0.95840 -0.13200
C 	C 	0.92240 0.58350 0.87000 0.09700
C 	C 	0.52420 0.08720 0.78820 0.08400
C 	C 	0.41650 0.92240 0.12000 0.08500
C 	C 	0.08720 0.47580 0.53820 0.08600
C 	C 	0.78060 0.50990 0.03120 -0.19900
O 	O 	0.61260 0.55750 0.75320 -0.46700
O 	O 	0.18080 0.54030 0.04450 -0.44800
O 	O 	0.50780 0.75650 0.45060 -0.38200
O 	O 	0.54030 0.81920 0.79450 -0.41700
O 	O 	0.57940 0.59560 0.36160 -0.47200
O 	O 	0.75650 0.49220 0.20060 -0.38600
O 	O 	0.44250 0.61260 0.00320 -0.47200
O 	O 	0.42060 0.40440 0.86160 -0.46200
O 	O 	0.40390 0.18880 0.13960 -0.45600
O 	O 	0.18880 0.59610 0.88960 -0.45300
O 	O 	0.55750 0.38740 0.50320 -0.46700
O 	O 	0.79800 0.63180 0.69830 -0.38100
O 	O 	0.81120 0.40390 0.38960 -0.45100
O 	O 	0.40440 0.57940 0.61160 -0.47200
O 	O 	0.63180 0.20200 0.44830 -0.38100
O 	O 	0.36820 0.79800 0.94830 -0.34500
O 	O 	0.38740 0.44250 0.25320 -0.46600
O 	O 	0.49220 0.24350 0.95060 -0.36300
O 	O 	0.45970 0.18080 0.29450 -0.42100
O 	O 	0.24350 0.50780 0.70060 -0.38100
O 	O 	0.81920 0.45970 0.54450 -0.42000
O 	O 	0.59560 0.42060 0.11160 -0.48100
O 	O 	0.59610 0.81120 0.63960 -0.45000
O 	O 	0.20200 0.36820 0.19830 -0.38200
