data_crystal

_cell_length_a 27.91440
_cell_length_b 27.91440
_cell_length_c 6.16550
_cell_angle_alpha 90.00000
_cell_angle_beta  90.00000
_cell_angle_gamma 120.00000

_symmetry_space_group_name_	'P 1'
_symmetry_space_group_name_H-M	'P 1'

loop_
_symmetry_equiv_pos_as_xyz
  x,y,z

loop_
_atom_site_label
_atom_site_type_symbol
_atom_site_fract_x
_atom_site_fract_y
_atom_site_fract_z
_atom_site_charge
Ni	Ni	0.30485 0.02863 0.71916 1.07000
P 	P 	0.42397 0.03900 0.57000 0.37000
O 	O 	0.47878 0.09348 0.50180 -0.22900
O 	O 	0.38754 0.05301 0.73390 -0.49800
O 	O 	0.39005 0.01154 0.37460 -0.51400
N 	N 	0.45490 0.00740 0.94650 -0.17800
C 	C 	0.44640 0.95810 0.09730 0.01100
C 	C 	0.51090 0.05620 0.98480 0.01700
C 	C 	0.43750 0.98440 0.71610 -0.04700
Ni	Ni	0.97152 0.36196 0.05249 1.06900
P 	P 	0.09064 0.37233 0.90333 0.36800
O 	O 	0.14545 0.42681 0.83513 -0.22900
O 	O 	0.05421 0.38634 0.06723 -0.49800
O 	O 	0.05672 0.34487 0.70793 -0.51400
N 	N 	0.12157 0.34073 0.27983 -0.17800
C 	C 	0.11307 0.29143 0.43063 0.01100
C 	C 	0.17757 0.38953 0.31813 0.01700
C 	C 	0.10417 0.31773 0.04943 -0.04600
Ni	Ni	0.63818 0.69530 0.38583 1.06900
P 	P 	0.75730 0.70567 0.23667 0.36900
O 	O 	0.81211 0.76015 0.16847 -0.22900
O 	O 	0.72087 0.71968 0.40057 -0.49800
O 	O 	0.72338 0.67821 0.04127 -0.51400
N 	N 	0.78823 0.67407 0.61317 -0.17800
C 	C 	0.77973 0.62477 0.76397 0.01200
C 	C 	0.84423 0.72287 0.65147 0.01600
C 	C 	0.77083 0.65107 0.38277 -0.04700
Ni	Ni	0.97137 0.27622 0.71916 1.06900
P 	P 	0.96100 0.38497 0.57000 0.36900
O 	O 	0.90652 0.38530 0.50180 -0.22900
O 	O 	0.94699 0.33453 0.73390 -0.49800
O 	O 	0.98846 0.37851 0.37460 -0.51400
N 	N 	0.99260 0.44750 0.94650 -0.17800
C 	C 	0.04190 0.48830 0.09730 0.01100
C 	C 	0.94380 0.45470 0.98480 0.01700
C 	C 	0.01560 0.45310 0.71610 -0.04700
Ni	Ni	0.63804 0.60955 0.05249 1.06900
P 	P 	0.62767 0.71830 0.90333 0.36800
O 	O 	0.57319 0.71863 0.83513 -0.22900
O 	O 	0.61366 0.66786 0.06723 -0.49800
O 	O 	0.65513 0.71184 0.70793 -0.51400
N 	N 	0.65927 0.78083 0.27983 -0.17800
C 	C 	0.70857 0.82163 0.43063 0.01100
C 	C 	0.61047 0.78803 0.31813 0.01700
C 	C 	0.68227 0.78643 0.04943 -0.04600
Ni	Ni	0.30470 0.94289 0.38583 1.06900
P 	P 	0.29433 0.05164 0.23667 0.36900
O 	O 	0.23985 0.05197 0.16847 -0.22900
O 	O 	0.28032 0.00120 0.40057 -0.49800
O 	O 	0.32179 0.04518 0.04127 -0.51400
N 	N 	0.32593 0.11417 0.61317 -0.17800
C 	C 	0.37523 0.15497 0.76397 0.01200
C 	C 	0.27713 0.12137 0.65147 0.01600
C 	C 	0.34893 0.11977 0.38277 -0.04700
Ni	Ni	0.72378 0.69515 0.71916 1.06900
P 	P 	0.61503 0.57603 0.57000 0.36900
O 	O 	0.61470 0.52122 0.50180 -0.22900
O 	O 	0.66547 0.61246 0.73390 -0.49800
O 	O 	0.62149 0.60995 0.37460 -0.51400
N 	N 	0.55250 0.54510 0.94650 -0.17800
C 	C 	0.51170 0.55360 0.09730 0.01100
C 	C 	0.54530 0.48910 0.98480 0.01700
C 	C 	0.54690 0.56250 0.71610 -0.04700
Ni	Ni	0.39045 0.02848 0.05249 1.06900
P 	P 	0.28170 0.90936 0.90333 0.36800
O 	O 	0.28137 0.85455 0.83513 -0.22900
O 	O 	0.33214 0.94579 0.06723 -0.49800
O 	O 	0.28816 0.94328 0.70793 -0.51400
N 	N 	0.21917 0.87843 0.27983 -0.17800
C 	C 	0.17837 0.88693 0.43063 0.01100
C 	C 	0.21197 0.82243 0.31813 0.01700
C 	C 	0.21357 0.89583 0.04943 -0.04600
Ni	Ni	0.05711 0.36182 0.38583 1.06900
P 	P 	0.94836 0.24270 0.23667 0.36900
O 	O 	0.94803 0.18789 0.16847 -0.22900
O 	O 	0.99880 0.27913 0.40057 -0.49800
O 	O 	0.95482 0.27662 0.04127 -0.51500
N 	N 	0.88583 0.21177 0.61317 -0.17800
C 	C 	0.84503 0.22027 0.76397 0.01200
C 	C 	0.87863 0.15577 0.65147 0.01600
C 	C 	0.88023 0.22917 0.38277 -0.04700
Ni	Ni	0.69515 0.97137 0.28084 1.06900
P 	P 	0.57603 0.96100 0.43000 0.36900
O 	O 	0.52122 0.90652 0.49820 -0.22900
O 	O 	0.61246 0.94699 0.26610 -0.49800
O 	O 	0.60995 0.98846 0.62540 -0.51400
N 	N 	0.54510 0.99260 0.05350 -0.17800
C 	C 	0.55360 0.04190 0.90270 0.01100
C 	C 	0.48910 0.94380 0.01520 0.01700
C 	C 	0.56250 0.01560 0.28390 -0.04700
Ni	Ni	0.36182 0.30470 0.61417 1.06900
P 	P 	0.24270 0.29433 0.76333 0.36900
O 	O 	0.18789 0.23985 0.83153 -0.22900
O 	O 	0.27913 0.28032 0.59943 -0.49800
O 	O 	0.27662 0.32179 0.95873 -0.51400
N 	N 	0.21177 0.32593 0.38683 -0.17800
C 	C 	0.22027 0.37523 0.23603 0.01200
C 	C 	0.15577 0.27713 0.34853 0.01600
C 	C 	0.22917 0.34893 0.61723 -0.04700
Ni	Ni	0.02848 0.63804 0.94751 1.06900
P 	P 	0.90936 0.62767 0.09667 0.36800
O 	O 	0.85455 0.57319 0.16487 -0.22900
O 	O 	0.94579 0.61366 0.93277 -0.49800
O 	O 	0.94328 0.65513 0.29207 -0.51400
N 	N 	0.87843 0.65927 0.72017 -0.17800
C 	C 	0.88693 0.70857 0.56937 0.01100
C 	C 	0.82243 0.61047 0.68187 0.01700
C 	C 	0.89583 0.68227 0.95057 -0.04600
Ni	Ni	0.02863 0.72378 0.28084 1.06900
P 	P 	0.03900 0.61503 0.43000 0.36900
O 	O 	0.09348 0.61470 0.49820 -0.22900
O 	O 	0.05301 0.66547 0.26610 -0.49800
O 	O 	0.01154 0.62149 0.62540 -0.51400
N 	N 	0.00740 0.55250 0.05350 -0.17800
C 	C 	0.95810 0.51170 0.90270 0.01100
C 	C 	0.05620 0.54530 0.01520 0.01700
C 	C 	0.98440 0.54690 0.28390 -0.04700
Ni	Ni	0.69530 0.05711 0.61417 1.06900
P 	P 	0.70567 0.94836 0.76333 0.36900
O 	O 	0.76015 0.94803 0.83153 -0.22900
O 	O 	0.71968 0.99880 0.59943 -0.49800
O 	O 	0.67821 0.95482 0.95873 -0.51400
N 	N 	0.67407 0.88583 0.38683 -0.17800
C 	C 	0.62477 0.84503 0.23603 0.01200
C 	C 	0.72287 0.87863 0.34853 0.01600
C 	C 	0.65107 0.88023 0.61723 -0.04700
Ni	Ni	0.36196 0.39045 0.94751 1.06900
P 	P 	0.37233 0.28170 0.09667 0.36800
O 	O 	0.42681 0.28137 0.16487 -0.22900
O 	O 	0.38634 0.33214 0.93277 -0.49800
O 	O 	0.34487 0.28816 0.29207 -0.51400
N 	N 	0.34073 0.21917 0.72017 -0.17800
C 	C 	0.29143 0.17837 0.56937 0.01100
C 	C 	0.38953 0.21197 0.68187 0.01700
C 	C 	0.31773 0.21357 0.95057 -0.04600
Ni	Ni	0.27622 0.30485 0.28084 1.06900
P 	P 	0.38497 0.42397 0.43000 0.36900
O 	O 	0.38530 0.47878 0.49820 -0.22900
O 	O 	0.33453 0.38754 0.26610 -0.49800
O 	O 	0.37851 0.39005 0.62540 -0.51400
N 	N 	0.44750 0.45490 0.05350 -0.17800
C 	C 	0.48830 0.44640 0.90270 0.01100
C 	C 	0.45470 0.51090 0.01520 0.01700
C 	C 	0.45310 0.43750 0.28390 -0.04700
Ni	Ni	0.94289 0.63818 0.61417 1.06900
P 	P 	0.05164 0.75730 0.76333 0.36900
O 	O 	0.05197 0.81211 0.83153 -0.22900
O 	O 	0.00120 0.72087 0.59943 -0.49800
O 	O 	0.04518 0.72338 0.95873 -0.51500
N 	N 	0.11417 0.78823 0.38683 -0.17800
C 	C 	0.15497 0.77973 0.23603 0.01200
C 	C 	0.12137 0.84423 0.34853 0.01600
C 	C 	0.11977 0.77083 0.61723 -0.04700
Ni	Ni	0.60955 0.97152 0.94751 1.06900
P 	P 	0.71830 0.09064 0.09667 0.36800
O 	O 	0.71863 0.14545 0.16487 -0.22900
O 	O 	0.66786 0.05421 0.93277 -0.49800
O 	O 	0.71184 0.05672 0.29207 -0.51400
N 	N 	0.78083 0.12157 0.72017 -0.17800
C 	C 	0.82163 0.11307 0.56937 0.01100
C 	C 	0.78803 0.17757 0.68187 0.01700
C 	C 	0.78643 0.10417 0.95057 -0.04600
