data_crystal

_cell_length_a 10.72200
_cell_length_b 10.72200
_cell_length_c 10.72200
_cell_angle_alpha 67.50850
_cell_angle_beta  76.41380
_cell_angle_gamma 112.49100

_symmetry_space_group_name_	'P 1'
_symmetry_space_group_name_H-M	'P 1'

loop_
_symmetry_equiv_pos_as_xyz
  x,y,z

loop_
_atom_site_label
_atom_site_type_symbol
_atom_site_fract_x
_atom_site_fract_y
_atom_site_fract_z
_atom_site_charge
Mn	Mn	0.69413 0.89115 0.80298 1.18700
Mn	Mn	0.30587 0.10885 0.19702 1.14400
Mn	Mn	0.80298 0.49711 0.30587 1.16500
Mn	Mn	0.19702 0.50289 0.69413 1.16500
Mo	Mo	0.74830 0.00000 0.25170 0.99200
Mo	Mo	0.25170 0.00000 0.74830 0.98900
C 	C 	0.70600 0.94640 0.08600 -0.06200
C 	C 	0.61080 0.09450 0.19690 -0.23800
C 	C 	0.96760 0.05360 0.24040 -0.24300
C 	C 	0.70860 0.90550 0.48370 -0.07100
C 	C 	0.75960 0.79200 0.29400 -0.09800
C 	C 	0.51630 0.80770 0.38920 -0.10100
C 	C 	0.91400 0.20800 0.03240 -0.21100
C 	C 	0.80310 0.19230 0.29140 -0.20800
C 	C 	0.29400 0.05360 0.91400 -0.22900
C 	C 	0.38920 0.90550 0.80310 -0.06900
C 	C 	0.03240 0.94640 0.75960 -0.04400
C 	C 	0.29140 0.09450 0.51630 -0.23700
C 	C 	0.24040 0.20800 0.70600 -0.19600
C 	C 	0.48370 0.19230 0.61080 -0.20700
C 	C 	0.08600 0.79200 0.96760 -0.08000
C 	C 	0.19690 0.80770 0.70860 -0.10000
N 	N 	0.68350 0.92530 0.99440 -0.25800
N 	N 	0.53150 0.13720 0.16710 -0.26600
N 	N 	0.08030 0.07470 0.24180 -0.27100
N 	N 	0.69570 0.86280 0.60570 -0.25800
N 	N 	0.75820 0.67790 0.31650 -0.27300
N 	N 	0.39430 0.69860 0.46850 -0.26300
N 	N 	0.00560 0.32210 0.91970 -0.25300
N 	N 	0.83290 0.30140 0.30430 -0.26100
N 	N 	0.31650 0.07470 0.00560 -0.28100
N 	N 	0.46850 0.86280 0.83290 -0.25700
N 	N 	0.91970 0.92530 0.75820 -0.27000
N 	N 	0.30430 0.13720 0.39430 -0.26500
N 	N 	0.24180 0.32210 0.68350 -0.26400
N 	N 	0.60570 0.30140 0.53150 -0.26000
N 	N 	0.99440 0.67790 0.08030 -0.28600
N 	N 	0.16710 0.69860 0.69570 -0.26200
