data_crystal

_cell_length_a 10.74350
_cell_length_b 10.74350
_cell_length_c 10.74350
_cell_angle_alpha 103.56400
_cell_angle_beta  112.50300
_cell_angle_gamma 112.50300

_symmetry_space_group_name_	'P 1'
_symmetry_space_group_name_H-M	'P 1'

loop_
_symmetry_equiv_pos_as_xyz
  x,y,z

loop_
_atom_site_label
_atom_site_type_symbol
_atom_site_fract_x
_atom_site_fract_y
_atom_site_fract_z
_atom_site_charge
Mn	Mn	0.10956 0.30316 0.80640 1.14200
Mn	Mn	0.89044 0.69684 0.19360 1.18400
Mn	Mn	0.50324 0.80640 0.69684 1.15800
Mn	Mn	0.49676 0.19360 0.30316 1.16800
Mo	Mo	-0.00000 0.24813 0.24813 0.98700
Mo	Mo	0.00000 0.75187 0.75187 0.98800
C 	C 	0.05306 0.25890 0.46776 -0.23300
C 	C 	0.09612 0.30341 0.11115 -0.23200
C 	C 	0.94694 0.41470 0.20584 -0.05800
C 	C 	0.90388 0.01503 0.20729 -0.05000
C 	C 	0.20886 0.46776 0.41470 -0.19700
C 	C 	0.80774 0.11115 0.01503 -0.09700
C 	C 	0.79114 0.20584 0.25890 -0.09300
C 	C 	0.19226 0.20729 0.30341 -0.20300
C 	C 	0.94694 0.74110 0.53224 -0.05800
C 	C 	0.90388 0.69659 0.88885 -0.07000
C 	C 	0.05306 0.58530 0.79416 -0.23600
C 	C 	0.09612 0.98497 0.79271 -0.25300
C 	C 	0.79114 0.53224 0.58530 -0.09400
C 	C 	0.19226 0.88885 0.98497 -0.21800
C 	C 	0.20886 0.79416 0.74110 -0.19900
C 	C 	0.80774 0.79271 0.69659 -0.10300
N 	N 	0.07376 0.25711 0.57993 -0.27700
N 	N 	0.13946 0.33293 0.03319 -0.26100
N 	N 	0.92624 0.50617 0.18335 -0.25800
N 	N 	0.86054 0.89373 0.19347 -0.27200
N 	N 	0.32282 0.57993 0.50617 -0.26600
N 	N 	0.70026 0.03319 0.89373 -0.25900
N 	N 	0.67718 0.18335 0.25711 -0.26900
N 	N 	0.29974 0.19347 0.33293 -0.25600
N 	N 	0.92624 0.74289 0.42007 -0.26000
N 	N 	0.86054 0.66707 0.96681 -0.26000
N 	N 	0.07376 0.49383 0.81665 -0.27900
N 	N 	0.13946 0.10627 0.80653 -0.25300
N 	N 	0.67718 0.42007 0.49383 -0.27100
N 	N 	0.29974 0.96681 0.10627 -0.25700
N 	N 	0.32282 0.81665 0.74289 -0.26900
N 	N 	0.70026 0.80653 0.66707 -0.26600
