data_crystal

_cell_length_a 19.68010
_cell_length_b 15.11650
_cell_length_c 6.67160
_cell_angle_alpha 90.00000
_cell_angle_beta  103.75700
_cell_angle_gamma 90.00000

_symmetry_space_group_name_	'P 1'
_symmetry_space_group_name_H-M	'P 1'

loop_
_symmetry_equiv_pos_as_xyz
  x,y,z

loop_
_atom_site_label
_atom_site_type_symbol
_atom_site_fract_x
_atom_site_fract_y
_atom_site_fract_z
_atom_site_charge
Ga	Ga	0.49630 0.25000 0.51410 2.08000
O 	O 	0.49960 0.31470 0.25810 -1.00200
O 	O 	0.00090 0.55530 0.25180 -1.41900
O 	O 	0.91570 0.07770 0.86910 -0.45900
O 	O 	0.93180 0.08210 0.54930 -0.53700
O 	O 	0.55590 0.14850 0.44290 -0.58500
O 	O 	0.58670 0.18360 0.14700 -0.59800
C 	C 	0.81820 0.10630 0.58750 -0.11100
C 	C 	0.77080 0.10450 0.71140 -0.02400
C 	C 	0.69970 0.12010 0.63370 -0.01600
C 	C 	0.67490 0.13820 0.42660 -0.12900
C 	C 	0.72150 0.14000 0.30380 -0.01800
C 	C 	0.79250 0.12450 0.38100 -0.02800
C 	C 	0.89390 0.08780 0.67590 0.43200
C 	C 	0.60040 0.15730 0.33350 0.39800
H 	H 	0.78790 0.09130 0.85840 0.04600
H 	H 	0.66790 0.11860 0.72690 0.03700
H 	H 	0.70390 0.15340 0.15760 0.01800
H 	H 	0.82410 0.12620 0.28730 0.03600
O 	O 	0.40800 0.30030 0.87120 -0.54700
O 	O 	0.43570 0.35180 0.57560 -0.54300
O 	O 	0.05680 0.39930 0.44480 -0.64500
O 	O 	0.08850 0.43140 0.14050 -0.60400
C 	C 	0.31750 0.35480 0.59890 -0.06200
C 	C 	0.26610 0.33900 0.70900 -0.02400
C 	C 	0.19480 0.35600 0.62370 0.00900
C 	C 	0.17600 0.38930 0.42510 -0.11500
C 	C 	0.22660 0.40490 0.31560 0.00800
C 	C 	0.29790 0.38820 0.39930 -0.02800
C 	C 	0.39300 0.33500 0.68930 0.38500
C 	C 	0.10120 0.40850 0.33130 0.39900
H 	H 	0.28030 0.31520 0.84920 0.08400
H 	H 	0.15940 0.34510 0.70280 0.04600
H 	H 	0.21200 0.42880 0.17570 0.02600
H 	H 	0.33300 0.39950 0.31910 0.04600
H 	H 	0.49500 0.37370 0.27600 0.32800
H 	H 	0.99500 0.61460 0.26300 0.63200
Ga	Ga	0.50370 0.75000 0.98590 2.09700
O 	O 	0.50040 0.81470 0.24190 -1.00200
O 	O 	0.99910 0.05530 0.24820 -0.70200
O 	O 	0.08430 0.57770 0.63090 -0.61000
O 	O 	0.06820 0.58210 0.95070 -0.63900
O 	O 	0.44410 0.64850 0.05710 -0.61100
O 	O 	0.41330 0.68360 0.35300 -0.56600
C 	C 	0.18180 0.60630 0.91250 0.09900
C 	C 	0.22920 0.60450 0.78860 -0.16700
C 	C 	0.30030 0.62010 0.86630 0.24000
C 	C 	0.32510 0.63820 0.07340 -0.32500
C 	C 	0.27850 0.64000 0.19620 0.16700
C 	C 	0.20750 0.62450 0.11900 -0.24900
C 	C 	0.10610 0.58780 0.82410 0.39500
C 	C 	0.39960 0.65730 0.16650 0.47500
H 	H 	0.21210 0.59130 0.64160 0.09400
H 	H 	0.33210 0.61860 0.77310 -0.01300
H 	H 	0.29610 0.65340 0.34240 -0.00500
H 	H 	0.17590 0.62620 0.21270 0.09700
O 	O 	0.59200 0.80030 0.62880 -0.56300
O 	O 	0.56430 0.85180 0.92440 -0.46600
O 	O 	0.94320 0.89930 0.05520 -0.47100
O 	O 	0.91150 0.93140 0.35950 -0.38800
C 	C 	0.68250 0.85480 0.90110 0.12000
C 	C 	0.73390 0.83900 0.79100 -0.11900
C 	C 	0.80520 0.85600 0.87630 0.20400
C 	C 	0.82400 0.88930 0.07490 -0.22500
C 	C 	0.77340 0.90490 0.18440 0.13600
C 	C 	0.70210 0.88820 0.10070 -0.18900
C 	C 	0.60700 0.83500 0.81070 0.35600
C 	C 	0.89880 0.90850 0.16870 0.42100
H 	H 	0.71970 0.81520 0.65080 0.10200
H 	H 	0.84060 0.84510 0.79720 0.02500
H 	H 	0.78800 0.92880 0.32430 0.05800
H 	H 	0.66700 0.89950 0.18090 0.12700
H 	H 	0.50500 0.87370 0.22400 0.36300
H 	H 	0.00500 0.11460 0.23700 0.01500
Ga	Ga	0.50370 0.75000 0.48590 2.08200
O 	O 	0.50040 0.68530 0.74190 -0.96500
O 	O 	0.99910 0.44470 0.74820 -0.57800
O 	O 	0.08430 0.92230 0.13090 -0.59000
O 	O 	0.06820 0.91790 0.45070 -0.63300
O 	O 	0.44410 0.85150 0.55710 -0.51300
O 	O 	0.41330 0.81640 0.85300 -0.49600
C 	C 	0.18180 0.89370 0.41250 -0.10700
C 	C 	0.22920 0.89550 0.28860 0.03200
C 	C 	0.30030 0.87990 0.36630 -0.00400
C 	C 	0.32510 0.86180 0.57340 -0.05400
C 	C 	0.27850 0.86000 0.69620 -0.00600
C 	C 	0.20750 0.87550 0.61900 0.04000
C 	C 	0.10610 0.91220 0.32410 0.48000
C 	C 	0.39960 0.84270 0.66650 0.40900
H 	H 	0.21210 0.90870 0.14160 0.04800
H 	H 	0.33210 0.88140 0.27310 0.06300
H 	H 	0.29610 0.84660 0.84240 0.09100
H 	H 	0.17590 0.87380 0.71270 0.06600
O 	O 	0.59200 0.69970 0.12880 -0.63100
O 	O 	0.56430 0.64820 0.42440 -0.55300
O 	O 	0.94320 0.60070 0.55520 -0.46400
O 	O 	0.91150 0.56860 0.85950 -0.40900
C 	C 	0.68250 0.64520 0.40110 -0.10200
C 	C 	0.73390 0.66100 0.29100 0.00800
C 	C 	0.80520 0.64400 0.37630 -0.03500
C 	C 	0.82400 0.61070 0.57490 -0.05100
C 	C 	0.77340 0.59510 0.68440 -0.02800
C 	C 	0.70210 0.61180 0.60070 0.00800
C 	C 	0.60700 0.66500 0.31070 0.40300
C 	C 	0.89880 0.59150 0.66870 0.34800
H 	H 	0.71970 0.68480 0.15080 0.02700
H 	H 	0.84060 0.65490 0.29720 0.05400
H 	H 	0.78800 0.57120 0.82430 0.08100
H 	H 	0.66700 0.60050 0.68090 0.05600
H 	H 	0.50500 0.62630 0.72400 0.34900
H 	H 	0.00500 0.38540 0.73700 0.03700
Ga	Ga	0.49630 0.25000 0.01410 2.06400
O 	O 	0.49960 0.18530 0.75810 -0.96100
O 	O 	0.00090 0.94470 0.75180 -1.21800
O 	O 	0.91570 0.42230 0.36910 -0.46500
O 	O 	0.93180 0.41790 0.04930 -0.54700
O 	O 	0.55590 0.35150 0.94290 -0.48400
O 	O 	0.58670 0.31640 0.64700 -0.52600
C 	C 	0.81820 0.39370 0.08750 -0.32200
C 	C 	0.77080 0.39550 0.21140 0.17700
C 	C 	0.69970 0.37990 0.13370 -0.26400
C 	C 	0.67490 0.36180 0.92660 0.14300
C 	C 	0.72150 0.36000 0.80380 -0.19200
C 	C 	0.79250 0.37550 0.88100 0.26100
C 	C 	0.89390 0.41220 0.17590 0.52600
C 	C 	0.60040 0.34270 0.83350 0.33000
H 	H 	0.78790 0.40870 0.35840 -0.00400
H 	H 	0.66790 0.38140 0.22690 0.11100
H 	H 	0.70390 0.34660 0.65760 0.11400
H 	H 	0.82410 0.37380 0.78730 0.00200
O 	O 	0.40800 0.19970 0.37120 -0.62000
O 	O 	0.43570 0.14820 0.07560 -0.63700
O 	O 	0.05680 0.10070 0.94480 -0.61400
O 	O 	0.08850 0.06860 0.64050 -0.62000
C 	C 	0.31750 0.14520 0.09890 -0.31500
C 	C 	0.26610 0.16100 0.20900 0.12500
C 	C 	0.19480 0.14400 0.12370 -0.26800
C 	C 	0.17600 0.11070 0.92510 0.09200
C 	C 	0.22660 0.09510 0.81560 -0.18100
C 	C 	0.29790 0.11180 0.89930 0.20300
C 	C 	0.39300 0.16500 0.18930 0.44100
C 	C 	0.10120 0.09150 0.83130 0.31000
H 	H 	0.28030 0.18480 0.34920 -0.00200
H 	H 	0.15940 0.15490 0.20280 0.08200
H 	H 	0.21200 0.07120 0.67570 0.05500
H 	H 	0.33300 0.10050 0.81910 -0.03300
H 	H 	0.49500 0.12630 0.77600 0.31600
H 	H 	0.99500 0.88540 0.76300 0.61300
Ga	Ga	-0.00000 0.50000 -0.00000 2.03100
Ga	Ga	0.00000 0.00000 0.50000 2.00100
Ga	Ga	0.00000 0.50000 0.50000 2.04000
Ga	Ga	-0.00000 0.00000 -0.00000 1.97600
