data_crystal

_cell_length_a 11.14140
_cell_length_b 11.14140
_cell_length_c 18.66200
_cell_angle_alpha 93.48580
_cell_angle_beta  93.48580
_cell_angle_gamma 114.96100

_symmetry_space_group_name_	'P 1'
_symmetry_space_group_name_H-M	'P 1'

loop_
_symmetry_equiv_pos_as_xyz
  x,y,z

loop_
_atom_site_label
_atom_site_type_symbol
_atom_site_fract_x
_atom_site_fract_y
_atom_site_fract_z
_atom_site_charge
Cd	Cd	0.36918 0.13500 0.41017 1.21700
Cd	Cd	0.13500 0.36918 0.91017 1.21600
Cd	Cd	0.86500 0.63082 0.08983 1.21600
Cd	Cd	0.63082 0.86500 0.58983 1.21700
H 	H 	0.84170 0.01150 0.07320 0.05100
H 	H 	0.56540 0.39860 0.05430 -0.00800
H 	H 	0.93650 0.84890 0.96030 0.01700
H 	H 	0.39860 0.56540 0.55430 -0.01000
H 	H 	0.71580 0.24760 0.11890 0.26200
H 	H 	0.29450 0.58550 0.17070 0.09400
H 	H 	0.75530 0.57230 0.53560 0.08400
H 	H 	0.18420 0.73860 0.06100 -0.01100
H 	H 	0.93740 0.82080 0.76380 0.04300
H 	H 	0.02630 0.39050 0.59630 0.10500
H 	H 	0.15830 0.98850 0.92680 0.05100
H 	H 	0.39050 0.02630 0.09630 0.10500
H 	H 	0.57230 0.75530 0.03560 0.08200
H 	H 	0.16640 0.43740 0.07670 -0.01700
H 	H 	0.24760 0.71580 0.61890 0.26200
H 	H 	0.15110 0.06350 0.53970 0.00800
H 	H 	0.16590 0.62170 0.29730 0.06400
H 	H 	0.81580 0.26140 0.93900 -0.01100
H 	H 	0.24470 0.42770 0.46440 0.08400
H 	H 	0.28420 0.75240 0.88110 0.26200
H 	H 	0.26140 0.81580 0.43900 -0.01000
H 	H 	0.96330 0.28490 0.16840 0.04900
H 	H 	0.43740 0.16640 0.57670 -0.01800
H 	H 	0.82080 0.93740 0.26380 0.04100
H 	H 	0.98850 0.15830 0.42680 0.05400
H 	H 	0.84890 0.93650 0.46030 0.00800
H 	H 	0.70550 0.41450 0.82930 0.09400
H 	H 	0.83360 0.56260 0.92330 -0.01700
H 	H 	0.37830 0.83410 0.20270 0.06500
H 	H 	0.82170 0.40810 0.33800 0.25300
H 	H 	0.43460 0.60140 0.94570 -0.00800
H 	H 	0.69680 0.11960 0.15650 0.26000
H 	H 	0.06350 0.15110 0.03970 0.01700
H 	H 	0.97370 0.60950 0.40370 0.10500
H 	H 	0.59190 0.17830 0.16200 0.25300
H 	H 	0.30320 0.88040 0.84350 0.26000
H 	H 	0.11960 0.69680 0.65650 0.26000
H 	H 	0.62170 0.16590 0.79730 0.06500
H 	H 	0.06260 0.17920 0.23620 0.04300
H 	H 	0.03670 0.71510 0.83160 0.04900
H 	H 	0.42770 0.24470 0.96440 0.08200
H 	H 	0.41450 0.70550 0.32930 0.09400
H 	H 	0.17920 0.06260 0.73620 0.04100
H 	H 	0.75240 0.28420 0.38110 0.26200
H 	H 	0.56260 0.83360 0.42330 -0.01800
H 	H 	0.83410 0.37830 0.70270 0.06400
H 	H 	0.28490 0.96330 0.66840 0.05200
H 	H 	0.60950 0.97370 0.90370 0.10500
H 	H 	0.40810 0.82170 0.83800 0.25300
H 	H 	0.17830 0.59190 0.66200 0.25300
H 	H 	0.58550 0.29450 0.67070 0.09400
H 	H 	0.88040 0.30320 0.34350 0.26000
H 	H 	0.60140 0.43460 0.44570 -0.01000
H 	H 	0.71510 0.03670 0.33160 0.05200
H 	H 	0.73860 0.18420 0.56100 -0.01000
H 	H 	0.01150 0.84170 0.57320 0.05400
C 	C 	0.50280 0.24880 0.56830 0.08600
C 	C 	0.21080 0.47160 0.32466 0.00900
C 	C 	0.59380 0.40100 0.00840 0.07900
C 	C 	0.02440 0.33160 0.20770 -0.04500
C 	C 	0.53302 0.14658 0.78454 -0.05600
C 	C 	0.91500 0.73100 0.75210 -0.01800
C 	C 	0.16370 0.65170 0.63150 -0.75600
C 	C 	0.46698 0.85342 0.21546 -0.05600
C 	C 	0.86330 0.07830 0.04220 -0.01800
C 	C 	0.51010 0.30810 0.95470 -0.14800
C 	C 	0.83630 0.34830 0.36850 -0.75600
C 	C 	0.65170 0.16370 0.13150 -0.75600
C 	C 	0.73367 0.75033 0.15749 0.32100
C 	C 	0.33160 0.02440 0.70770 -0.05000
C 	C 	0.34830 0.83630 0.86850 -0.75600
C 	C 	0.46460 0.05500 0.72624 -0.05400
C 	C 	0.30810 0.51010 0.45470 -0.15300
C 	C 	0.67450 0.40850 0.87480 -0.15300
C 	C 	0.56400 0.98320 0.94220 -0.19600
C 	C 	0.78920 0.52840 0.67534 0.00900
C 	C 	0.98320 0.56400 0.44220 -0.19700
C 	C 	0.97560 0.66840 0.79230 -0.04500
C 	C 	0.69190 0.48990 0.54530 -0.15300
C 	C 	0.94500 0.53540 0.77376 -0.05400
C 	C 	0.15600 0.98520 0.52350 0.02600
C 	C 	0.07910 0.57470 0.56440 0.21800
C 	C 	0.46660 0.00680 0.31920 0.29300
C 	C 	0.05840 0.63480 0.50460 0.02000
C 	C 	0.59900 0.40620 0.49160 0.08400
C 	C 	0.05500 0.46460 0.22624 -0.05400
C 	C 	0.73100 0.91500 0.25210 -0.01400
C 	C 	0.63480 0.05840 0.00460 0.01800
C 	C 	0.17888 0.33772 0.30532 -0.07800
C 	C 	0.48990 0.69190 0.04530 -0.14800
C 	C 	0.42530 0.92090 0.93560 0.21800
C 	C 	0.44908 0.68972 0.11480 0.08900
C 	C 	0.13670 0.92170 0.95780 -0.01800
C 	C 	0.75033 0.73367 0.65749 0.32000
C 	C 	0.40850 0.67450 0.37480 -0.15500
C 	C 	0.14940 0.78320 0.03180 0.10300
C 	C 	0.01680 0.43600 0.55780 -0.19700
C 	C 	0.52840 0.78920 0.17534 0.01100
C 	C 	0.53340 0.99320 0.68080 0.29300
C 	C 	0.55092 0.31028 0.88520 0.08900
C 	C 	0.07830 0.86330 0.54220 -0.02600
C 	C 	0.68972 0.44908 0.61480 0.09200
C 	C 	0.85342 0.46698 0.71546 -0.05500
C 	C 	0.78320 0.14940 0.53180 0.09700
C 	C 	0.92090 0.42530 0.43560 0.21800
C 	C 	0.36520 0.94160 0.99540 0.01800
C 	C 	0.26633 0.24967 0.84251 0.32100
C 	C 	0.40620 0.59900 0.99160 0.07900
C 	C 	0.24880 0.50280 0.06830 0.08400
C 	C 	0.85060 0.21680 0.96820 0.10300
C 	C 	0.66840 0.97560 0.29230 -0.05000
C 	C 	0.53540 0.94500 0.27376 -0.05400
C 	C 	0.21680 0.85060 0.46820 0.09700
C 	C 	0.75120 0.49720 0.93170 0.08400
C 	C 	0.57470 0.07910 0.06440 0.21800
C 	C 	0.99320 0.53340 0.18080 0.29000
C 	C 	0.47160 0.21080 0.82466 0.01100
C 	C 	0.01480 0.84400 0.97650 0.00800
C 	C 	0.98520 0.15600 0.02350 0.00800
C 	C 	0.66228 0.82112 0.19468 -0.08000
C 	C 	0.26900 0.08500 0.74790 -0.01400
C 	C 	0.00680 0.46660 0.81920 0.29000
C 	C 	0.33772 0.17888 0.80532 -0.08000
C 	C 	0.82112 0.66228 0.69468 -0.07800
C 	C 	0.59150 0.32550 0.62520 -0.15500
C 	C 	0.08500 0.26900 0.24790 -0.01800
C 	C 	0.43600 0.01680 0.05780 -0.19600
C 	C 	0.32550 0.59150 0.12520 -0.15300
C 	C 	0.49720 0.75120 0.43170 0.08600
C 	C 	0.14658 0.53302 0.28454 -0.05500
C 	C 	0.92170 0.13670 0.45780 -0.02600
C 	C 	0.84400 0.01480 0.47650 0.02600
C 	C 	0.24967 0.26633 0.34251 0.32000
C 	C 	0.94160 0.36520 0.49540 0.02000
C 	C 	0.31028 0.55092 0.38520 0.09200
C 	C 	0.40100 0.59380 0.50840 0.08400
N 	N 	0.11842 0.77778 0.50611 -0.12100
N 	N 	0.28579 0.50501 0.00187 -0.24700
N 	N 	0.97683 0.24317 0.97709 -0.23800
N 	N 	0.77778 0.11842 0.00611 -0.12500
N 	N 	0.22222 0.88158 0.99389 -0.12500
N 	N 	0.71421 0.49499 0.99813 -0.24700
N 	N 	0.75683 0.02317 0.52291 -0.24300
N 	N 	0.49499 0.71421 0.49813 -0.24900
N 	N 	0.24317 0.97683 0.47709 -0.24300
N 	N 	0.88158 0.22222 0.49389 -0.12100
N 	N 	0.50501 0.28579 0.50187 -0.24900
N 	N 	0.02317 0.75683 0.02291 -0.23800
O 	O 	0.81768 0.83572 0.62937 -0.39700
O 	O 	0.34686 0.98054 0.30291 -0.35000
O 	O 	0.01946 0.65314 0.19709 -0.34800
O 	O 	0.52998 0.08062 0.37439 -0.42100
O 	O 	0.98054 0.34686 0.80291 -0.34800
O 	O 	0.65314 0.01946 0.69709 -0.35000
O 	O 	0.37247 0.30993 0.34348 -0.38100
O 	O 	0.62753 0.69007 0.65652 -0.38100
O 	O 	0.16428 0.18232 0.87063 -0.39700
O 	O 	0.83572 0.81768 0.12937 -0.39700
O 	O 	0.08062 0.52998 0.87439 -0.42200
O 	O 	0.18232 0.16428 0.37063 -0.39700
O 	O 	0.69007 0.62753 0.15652 -0.38200
O 	O 	0.30993 0.37247 0.84348 -0.38200
O 	O 	0.91938 0.47002 0.12561 -0.42200
O 	O 	0.47002 0.91938 0.62561 -0.42100
