data_crystal

_cell_length_a 6.79230
_cell_length_b 15.10030
_cell_length_c 15.10030
_cell_angle_alpha 62.20700
_cell_angle_beta  81.37680
_cell_angle_gamma 98.62320

_symmetry_space_group_name_	'P 1'
_symmetry_space_group_name_H-M	'P 1'

loop_
_symmetry_equiv_pos_as_xyz
  x,y,z

loop_
_atom_site_label
_atom_site_type_symbol
_atom_site_fract_x
_atom_site_fract_y
_atom_site_fract_z
_atom_site_charge
Co	Co	0.29880 0.26750 0.31590 1.16700
Co	Co	0.61470 0.31590 0.41660 1.16800
Co	Co	0.03130 0.41660 0.26750 1.16900
Co	Co	0.70120 0.73250 0.68410 1.17000
Co	Co	0.38530 0.68410 0.58340 1.17000
Co	Co	0.96870 0.58340 0.73250 1.16800
C 	C 	0.23990 0.38720 0.43740 0.44000
C 	C 	0.11350 0.44700 0.46570 -0.16600
C 	C 	0.92880 0.46700 0.43380 0.18100
C 	C 	0.17900 0.48130 0.52910 -0.02300
C 	C 	0.67730 0.43740 0.17540 0.43700
C 	C 	0.57920 0.46570 0.08730 -0.15600
C 	C 	0.36260 0.43380 0.09920 0.15800
C 	C 	0.70810 0.52910 0.98960 -0.03100
C 	C 	0.85270 0.17540 0.38720 0.43800
C 	C 	0.66650 0.08730 0.44700 -0.16700
C 	C 	0.46180 0.09920 0.46700 0.18100
C 	C 	0.69770 0.98960 0.48130 -0.02300
C 	C 	0.76010 0.61280 0.56260 0.44100
C 	C 	0.88650 0.55300 0.53430 -0.17100
C 	C 	0.07120 0.53300 0.56620 0.18600
C 	C 	0.82100 0.51870 0.47090 -0.02000
C 	C 	0.32270 0.56260 0.82460 0.45100
C 	C 	0.42080 0.53430 0.91270 -0.19200
C 	C 	0.63740 0.56620 0.90080 0.19400
C 	C 	0.29190 0.47090 0.01040 0.04300
C 	C 	0.14730 0.82460 0.61280 0.49100
C 	C 	0.33350 0.91270 0.55300 -0.17800
C 	C 	0.53820 0.90080 0.53300 0.18800
C 	C 	0.30230 0.01040 0.51870 -0.01700
N 	N 	0.38100 0.17670 0.24370 -0.13000
N 	N 	0.62470 0.24370 0.57960 -0.13100
N 	N 	0.20430 0.57960 0.17670 -0.13000
N 	N 	0.61900 0.82330 0.75630 -0.13000
N 	N 	0.37530 0.75630 0.42040 -0.12900
N 	N 	0.79570 0.42040 0.82330 -0.13000
O 	O 	0.17300 0.34800 0.38500 -0.56500
O 	O 	0.37540 0.35850 0.47830 -0.42900
O 	O 	0.86240 0.45260 0.35940 -0.46600
O 	O 	0.46260 0.18980 0.14400 -0.07500
O 	O 	0.55800 0.38500 0.26700 -0.56400
O 	O 	0.85370 0.47830 0.16320 -0.42500
O 	O 	0.22180 0.35940 0.18800 -0.45700
O 	O 	0.60660 0.14400 0.66620 -0.07700
O 	O 	0.82500 0.26700 0.34800 -0.56400
O 	O 	0.01690 0.16320 0.35850 -0.42700
O 	O 	0.40980 0.18800 0.45260 -0.46600
O 	O 	0.27280 0.66620 0.18980 -0.07600
O 	O 	0.82700 0.65200 0.61500 -0.56200
O 	O 	0.62460 0.64150 0.52170 -0.42800
O 	O 	0.13760 0.54740 0.64060 -0.46500
O 	O 	0.53740 0.81020 0.85600 -0.07600
O 	O 	0.44200 0.61500 0.73300 -0.56700
O 	O 	0.14630 0.52170 0.83680 -0.42500
O 	O 	0.77820 0.64060 0.81200 -0.46900
O 	O 	0.39340 0.85600 0.33380 -0.07300
O 	O 	0.17500 0.73300 0.65200 -0.57100
O 	O 	0.98310 0.83680 0.64150 -0.43900
O 	O 	0.59020 0.81200 0.54740 -0.46500
O 	O 	0.72720 0.33380 0.81020 -0.07600
H 	H 	0.32784 0.46742 0.55308 0.06700
H 	H 	0.88092 0.55308 0.97950 0.07200
H 	H 	0.86042 0.97950 0.46742 0.06900
H 	H 	0.67216 0.53258 0.44692 0.06700
H 	H 	0.11018 0.82536 0.54132 -0.05200
H 	H 	0.13958 0.02050 0.53258 0.06700
