data_crystal

_cell_length_a 23.33630
_cell_length_b 23.33630
_cell_length_c 23.33630
_cell_angle_alpha 109.47100
_cell_angle_beta  109.47100
_cell_angle_gamma 109.47100

_symmetry_space_group_name_	'P 1'
_symmetry_space_group_name_H-M	'P 1'

loop_
_symmetry_equiv_pos_as_xyz
  x,y,z

loop_
_atom_site_label
_atom_site_type_symbol
_atom_site_fract_x
_atom_site_fract_y
_atom_site_fract_z
_atom_site_charge
Cu	Cu	0.50000 0.14219 0.64219 0.89800
Cu	Cu	0.50000 0.24015 0.74015 0.90900
Cu	Cu	0.50000 0.85781 0.35781 0.89800
Cu	Cu	0.50000 0.75985 0.25985 0.90900
Cu	Cu	0.35781 0.50000 0.85781 0.89800
Cu	Cu	0.25985 0.50000 0.75985 0.90900
Cu	Cu	0.64219 0.50000 0.14219 0.89800
Cu	Cu	0.74015 0.50000 0.24015 0.90900
Cu	Cu	0.85781 0.35781 0.50000 0.89800
Cu	Cu	0.75985 0.25985 0.50000 0.90900
Cu	Cu	0.14219 0.64219 0.50000 0.89800
Cu	Cu	0.24015 0.74015 0.50000 0.90900
H 	H 	0.52580 0.01820 0.74440 0.02800
H 	H 	0.55380 0.97810 0.82210 0.06700
H 	H 	0.55460 0.13340 0.96600 0.07100
H 	H 	0.52640 0.17460 0.88900 0.03200
H 	H 	0.51150 0.92210 0.87960 0.06300
H 	H 	0.27380 0.78140 0.25560 0.02800
H 	H 	0.15600 0.73170 0.17790 0.06800
H 	H 	0.16740 0.58860 0.03400 0.07200
H 	H 	0.28560 0.63740 0.11100 0.03300
H 	H 	0.04250 0.63190 0.12040 0.06400
H 	H 	0.72620 0.98180 0.50760 0.02900
H 	H 	0.84400 0.02190 0.57570 0.06800
H 	H 	0.83260 0.86660 0.42120 0.07200
H 	H 	0.71440 0.82540 0.35180 0.03300
H 	H 	0.95750 0.07790 0.58940 0.06400
H 	H 	0.47420 0.21860 0.49240 0.02900
H 	H 	0.44620 0.26830 0.42430 0.06800
H 	H 	0.44540 0.41140 0.57880 0.07200
H 	H 	0.47360 0.36260 0.64820 0.03300
H 	H 	0.48850 0.36810 0.41060 0.06400
H 	H 	0.50760 0.72620 0.98180 0.02900
H 	H 	0.57570 0.84400 0.02190 0.06800
H 	H 	0.42120 0.83260 0.86660 0.07200
H 	H 	0.35180 0.71440 0.82540 0.03300
H 	H 	0.58940 0.95750 0.07790 0.06400
H 	H 	0.49240 0.47420 0.21860 0.02900
H 	H 	0.42430 0.44620 0.26830 0.06800
H 	H 	0.57880 0.44540 0.41140 0.07200
H 	H 	0.64820 0.47360 0.36260 0.03300
H 	H 	0.41060 0.48850 0.36810 0.06400
H 	H 	0.74440 0.52580 0.01820 0.02900
H 	H 	0.82210 0.55380 0.97810 0.06800
H 	H 	0.96600 0.55460 0.13340 0.07200
H 	H 	0.88900 0.52640 0.17460 0.03300
H 	H 	0.87960 0.51150 0.92210 0.06400
H 	H 	0.25560 0.27380 0.78140 0.02900
H 	H 	0.17790 0.15600 0.73170 0.06800
H 	H 	0.03400 0.16740 0.58860 0.07200
H 	H 	0.11100 0.28560 0.63740 0.03300
H 	H 	0.12040 0.04250 0.63190 0.06400
H 	H 	0.78140 0.25560 0.27380 0.02900
H 	H 	0.73170 0.17790 0.15600 0.06800
H 	H 	0.58860 0.03400 0.16740 0.07200
H 	H 	0.63740 0.11100 0.28560 0.03300
H 	H 	0.63190 0.12040 0.04250 0.06400
H 	H 	0.01820 0.74440 0.52580 0.02900
H 	H 	0.97810 0.82210 0.55380 0.06800
H 	H 	0.13340 0.96600 0.55460 0.07200
H 	H 	0.17460 0.88900 0.52640 0.03300
H 	H 	0.92210 0.87960 0.51150 0.06400
H 	H 	0.21860 0.49240 0.47420 0.02900
H 	H 	0.26830 0.42430 0.44620 0.06800
H 	H 	0.41140 0.57880 0.44540 0.07200
H 	H 	0.36260 0.64820 0.47360 0.03300
H 	H 	0.36810 0.41060 0.48850 0.06400
H 	H 	0.98180 0.50760 0.72620 0.02900
H 	H 	0.02190 0.57570 0.84400 0.06800
H 	H 	0.86660 0.42120 0.83260 0.07200
H 	H 	0.82540 0.35180 0.71440 0.03300
H 	H 	0.07790 0.58940 0.95750 0.06400
H 	H 	0.47420 0.98180 0.25560 0.02900
H 	H 	0.44620 0.02190 0.17790 0.06800
H 	H 	0.44540 0.86660 0.03400 0.07200
H 	H 	0.47360 0.82540 0.11100 0.03300
H 	H 	0.48850 0.07790 0.12040 0.06400
H 	H 	0.72620 0.21860 0.74440 0.02900
H 	H 	0.84400 0.26830 0.82210 0.06800
H 	H 	0.83260 0.41140 0.96600 0.07200
H 	H 	0.71440 0.36260 0.88900 0.03300
H 	H 	0.95750 0.36810 0.87960 0.06400
H 	H 	0.27380 0.01820 0.49240 0.02900
H 	H 	0.15600 0.97810 0.42430 0.06800
H 	H 	0.16740 0.13340 0.57880 0.07200
H 	H 	0.28560 0.17460 0.64820 0.03300
H 	H 	0.04250 0.92210 0.41060 0.06400
H 	H 	0.52580 0.78140 0.50760 0.02900
H 	H 	0.55380 0.73170 0.57570 0.06800
H 	H 	0.55460 0.58860 0.42120 0.07200
H 	H 	0.52640 0.63740 0.35180 0.03300
H 	H 	0.51150 0.63190 0.58940 0.06400
H 	H 	0.49240 0.27380 0.01820 0.02900
H 	H 	0.42430 0.15600 0.97810 0.06800
H 	H 	0.57880 0.16740 0.13340 0.07200
H 	H 	0.64820 0.28560 0.17460 0.03300
H 	H 	0.41060 0.04250 0.92210 0.06400
H 	H 	0.50760 0.52580 0.78140 0.02900
H 	H 	0.57570 0.55380 0.73170 0.06800
H 	H 	0.42120 0.55460 0.58860 0.07200
H 	H 	0.35180 0.52640 0.63740 0.03300
H 	H 	0.58940 0.51150 0.63190 0.06400
H 	H 	0.25560 0.47420 0.98180 0.02900
H 	H 	0.17790 0.44620 0.02190 0.06800
H 	H 	0.03400 0.44540 0.86660 0.07200
H 	H 	0.11100 0.47360 0.82540 0.03300
H 	H 	0.12040 0.48850 0.07790 0.06400
H 	H 	0.74440 0.72620 0.21860 0.02900
H 	H 	0.82210 0.84400 0.26830 0.06800
H 	H 	0.96600 0.83260 0.41140 0.07200
H 	H 	0.88900 0.71440 0.36260 0.03300
H 	H 	0.87960 0.95750 0.36810 0.06400
H 	H 	0.21860 0.74440 0.72620 0.02900
H 	H 	0.26830 0.82210 0.84400 0.06800
H 	H 	0.41140 0.96600 0.83260 0.07200
H 	H 	0.36260 0.88900 0.71440 0.03300
H 	H 	0.36810 0.87960 0.95750 0.06400
H 	H 	0.98180 0.25560 0.47420 0.02900
H 	H 	0.02190 0.17790 0.44620 0.06800
H 	H 	0.86660 0.03400 0.44540 0.07200
H 	H 	0.82540 0.11100 0.47360 0.03300
H 	H 	0.07790 0.12040 0.48850 0.06400
H 	H 	0.78140 0.50760 0.52580 0.02900
H 	H 	0.73170 0.57570 0.55380 0.06800
H 	H 	0.58860 0.42120 0.55460 0.07200
H 	H 	0.63740 0.35180 0.52640 0.03300
H 	H 	0.63190 0.58940 0.51150 0.06400
H 	H 	0.01820 0.49240 0.27380 0.02900
H 	H 	0.97810 0.42430 0.15600 0.06800
H 	H 	0.13340 0.57880 0.16740 0.07200
H 	H 	0.17460 0.64820 0.28560 0.03300
H 	H 	0.92210 0.41060 0.04250 0.06400
C 	C 	0.50690 0.12990 0.76180 0.37500
C 	C 	0.52340 0.10060 0.80900 -0.11900
C 	C 	0.53180 0.04190 0.78970 0.04600
C 	C 	0.54880 0.01850 0.83570 -0.11000
C 	C 	0.55910 0.05450 0.90420 0.04500
C 	C 	0.54940 0.11010 0.92090 -0.11200
C 	C 	0.53220 0.13460 0.87520 0.04400
C 	C 	0.57280 0.02560 0.95380 0.03800
C 	C 	0.54170 0.95390 0.92920 -0.09900
C 	C 	0.36810 0.74510 0.23820 0.37500
C 	C 	0.29160 0.71440 0.19100 -0.11900
C 	C 	0.25220 0.74210 0.21030 0.04600
C 	C 	0.18280 0.71310 0.16430 -0.10900
C 	C 	0.15030 0.65490 0.09580 0.04500
C 	C 	0.18920 0.62850 0.07910 -0.11200
C 	C 	0.25940 0.65700 0.12480 0.04400
C 	C 	0.07180 0.61900 0.04620 0.03800
C 	C 	0.02470 0.61250 0.07080 -0.09900
C 	C 	0.63190 0.87010 0.37700 0.37500
C 	C 	0.70840 0.89940 0.42280 -0.11900
C 	C 	0.74780 0.95810 0.48990 0.04600
C 	C 	0.81720 0.98150 0.53030 -0.10900
C 	C 	0.84970 0.94550 0.50460 0.04500
C 	C 	0.81080 0.88990 0.43930 -0.11200
C 	C 	0.74060 0.86540 0.39760 0.04400
C 	C 	0.92820 0.97440 0.54720 0.03800
C 	C 	0.97530 0.04610 0.58780 -0.09900
C 	C 	0.49310 0.25490 0.62300 0.37500
C 	C 	0.47660 0.28560 0.57720 -0.11900
C 	C 	0.46820 0.25790 0.51010 0.04600
C 	C 	0.45120 0.28690 0.46970 -0.11000
C 	C 	0.44090 0.34510 0.49540 0.04500
C 	C 	0.45060 0.37150 0.56070 -0.11200
C 	C 	0.46780 0.34300 0.60240 0.04400
C 	C 	0.42720 0.38100 0.45280 0.03800
C 	C 	0.45830 0.38750 0.41220 -0.09900
C 	C 	0.37700 0.63190 0.87010 0.37500
C 	C 	0.42280 0.70840 0.89940 -0.11900
C 	C 	0.48990 0.74780 0.95810 0.04600
C 	C 	0.53030 0.81720 0.98150 -0.10900
C 	C 	0.50460 0.84970 0.94550 0.04500
C 	C 	0.43930 0.81080 0.88990 -0.11200
C 	C 	0.39760 0.74060 0.86540 0.04400
C 	C 	0.54720 0.92820 0.97440 0.03800
C 	C 	0.58780 0.97530 0.04610 -0.09900
C 	C 	0.62300 0.49310 0.25490 0.37500
C 	C 	0.57720 0.47660 0.28560 -0.11900
C 	C 	0.51010 0.46820 0.25790 0.04600
C 	C 	0.46970 0.45120 0.28690 -0.11000
C 	C 	0.49540 0.44090 0.34510 0.04500
C 	C 	0.56070 0.45060 0.37150 -0.11200
C 	C 	0.60240 0.46780 0.34300 0.04400
C 	C 	0.45280 0.42720 0.38100 0.03800
C 	C 	0.41220 0.45830 0.38750 -0.09900
C 	C 	0.76180 0.50690 0.12990 0.37500
C 	C 	0.80900 0.52340 0.10060 -0.11900
C 	C 	0.78970 0.53180 0.04190 0.04600
C 	C 	0.83570 0.54880 0.01850 -0.11000
C 	C 	0.90420 0.55910 0.05450 0.04500
C 	C 	0.92090 0.54940 0.11010 -0.11200
C 	C 	0.87520 0.53220 0.13460 0.04400
C 	C 	0.95380 0.57280 0.02560 0.03800
C 	C 	0.92920 0.54170 0.95390 -0.09900
C 	C 	0.23820 0.36810 0.74510 0.37500
C 	C 	0.19100 0.29160 0.71440 -0.11900
C 	C 	0.21030 0.25220 0.74210 0.04600
C 	C 	0.16430 0.18280 0.71310 -0.10900
C 	C 	0.09580 0.15030 0.65490 0.04500
C 	C 	0.07910 0.18920 0.62850 -0.11200
C 	C 	0.12480 0.25940 0.65700 0.04400
C 	C 	0.04620 0.07180 0.61900 0.03800
C 	C 	0.07080 0.02470 0.61250 -0.09900
C 	C 	0.74510 0.23820 0.36810 0.37500
C 	C 	0.71440 0.19100 0.29160 -0.11900
C 	C 	0.74210 0.21030 0.25220 0.04600
C 	C 	0.71310 0.16430 0.18280 -0.10900
C 	C 	0.65490 0.09580 0.15030 0.04500
C 	C 	0.62850 0.07910 0.18920 -0.11200
C 	C 	0.65700 0.12480 0.25940 0.04400
C 	C 	0.61900 0.04620 0.07180 0.03800
C 	C 	0.61250 0.07080 0.02470 -0.09900
C 	C 	0.12990 0.76180 0.50690 0.37500
C 	C 	0.10060 0.80900 0.52340 -0.11900
C 	C 	0.04190 0.78970 0.53180 0.04600
C 	C 	0.01850 0.83570 0.54880 -0.11000
C 	C 	0.05450 0.90420 0.55910 0.04500
C 	C 	0.11010 0.92090 0.54940 -0.11200
C 	C 	0.13460 0.87520 0.53220 0.04400
C 	C 	0.02560 0.95380 0.57280 0.03800
C 	C 	0.95390 0.92920 0.54170 -0.09900
C 	C 	0.25490 0.62300 0.49310 0.37500
C 	C 	0.28560 0.57720 0.47660 -0.11900
C 	C 	0.25790 0.51010 0.46820 0.04600
C 	C 	0.28690 0.46970 0.45120 -0.11000
C 	C 	0.34510 0.49540 0.44090 0.04500
C 	C 	0.37150 0.56070 0.45060 -0.11200
C 	C 	0.34300 0.60240 0.46780 0.04400
C 	C 	0.38100 0.45280 0.42720 0.03800
C 	C 	0.38750 0.41220 0.45830 -0.09900
C 	C 	0.87010 0.37700 0.63190 0.37500
C 	C 	0.89940 0.42280 0.70840 -0.11900
C 	C 	0.95810 0.48990 0.74780 0.04600
C 	C 	0.98150 0.53030 0.81720 -0.10900
C 	C 	0.94550 0.50460 0.84970 0.04500
C 	C 	0.88990 0.43930 0.81080 -0.11200
C 	C 	0.86540 0.39760 0.74060 0.04400
C 	C 	0.97440 0.54720 0.92820 0.03800
C 	C 	0.04610 0.58780 0.97530 -0.09900
C 	C 	0.49310 0.87010 0.23820 0.37500
C 	C 	0.47660 0.89940 0.19100 -0.11900
C 	C 	0.46820 0.95810 0.21030 0.04600
C 	C 	0.45120 0.98150 0.16430 -0.11000
C 	C 	0.44090 0.94550 0.09580 0.04500
C 	C 	0.45060 0.88990 0.07910 -0.11200
C 	C 	0.46780 0.86540 0.12480 0.04400
C 	C 	0.42720 0.97440 0.04620 0.03800
C 	C 	0.45830 0.04610 0.07080 -0.09900
C 	C 	0.63190 0.25490 0.76180 0.37500
C 	C 	0.70840 0.28560 0.80900 -0.11900
C 	C 	0.74780 0.25790 0.78970 0.04600
C 	C 	0.81720 0.28690 0.83570 -0.10900
C 	C 	0.84970 0.34510 0.90420 0.04500
C 	C 	0.81080 0.37150 0.92090 -0.11200
C 	C 	0.74060 0.34300 0.87520 0.04400
C 	C 	0.92820 0.38100 0.95380 0.03800
C 	C 	0.97530 0.38750 0.92920 -0.09900
C 	C 	0.36810 0.12990 0.62300 0.37500
C 	C 	0.29160 0.10060 0.57720 -0.11900
C 	C 	0.25220 0.04190 0.51010 0.04600
C 	C 	0.18280 0.01850 0.46970 -0.10900
C 	C 	0.15030 0.05450 0.49540 0.04500
C 	C 	0.18920 0.11010 0.56070 -0.11200
C 	C 	0.25940 0.13460 0.60240 0.04400
C 	C 	0.07180 0.02560 0.45280 0.03800
C 	C 	0.02470 0.95390 0.41220 -0.09900
C 	C 	0.50690 0.74510 0.37700 0.37500
C 	C 	0.52340 0.71440 0.42280 -0.11900
C 	C 	0.53180 0.74210 0.48990 0.04600
C 	C 	0.54880 0.71310 0.53030 -0.11000
C 	C 	0.55910 0.65490 0.50460 0.04500
C 	C 	0.54940 0.62850 0.43930 -0.11200
C 	C 	0.53220 0.65700 0.39760 0.04400
C 	C 	0.57280 0.61900 0.54720 0.03800
C 	C 	0.54170 0.61250 0.58780 -0.09900
C 	C 	0.62300 0.36810 0.12990 0.37500
C 	C 	0.57720 0.29160 0.10060 -0.11900
C 	C 	0.51010 0.25220 0.04190 0.04600
C 	C 	0.46970 0.18280 0.01850 -0.10900
C 	C 	0.49540 0.15030 0.05450 0.04500
C 	C 	0.56070 0.18920 0.11010 -0.11200
C 	C 	0.60240 0.25940 0.13460 0.04400
C 	C 	0.45280 0.07180 0.02560 0.03800
C 	C 	0.41220 0.02470 0.95390 -0.09900
C 	C 	0.37700 0.50690 0.74510 0.37500
C 	C 	0.42280 0.52340 0.71440 -0.11900
C 	C 	0.48990 0.53180 0.74210 0.04600
C 	C 	0.53030 0.54880 0.71310 -0.11000
C 	C 	0.50460 0.55910 0.65490 0.04500
C 	C 	0.43930 0.54940 0.62850 -0.11200
C 	C 	0.39760 0.53220 0.65700 0.04400
C 	C 	0.54720 0.57280 0.61900 0.03800
C 	C 	0.58780 0.54170 0.61250 -0.09900
C 	C 	0.23820 0.49310 0.87010 0.37500
C 	C 	0.19100 0.47660 0.89940 -0.11900
C 	C 	0.21030 0.46820 0.95810 0.04600
C 	C 	0.16430 0.45120 0.98150 -0.11000
C 	C 	0.09580 0.44090 0.94550 0.04500
C 	C 	0.07910 0.45060 0.88990 -0.11200
C 	C 	0.12480 0.46780 0.86540 0.04400
C 	C 	0.04620 0.42720 0.97440 0.03800
C 	C 	0.07080 0.45830 0.04610 -0.09900
C 	C 	0.76180 0.63190 0.25490 0.37500
C 	C 	0.80900 0.70840 0.28560 -0.11900
C 	C 	0.78970 0.74780 0.25790 0.04600
C 	C 	0.83570 0.81720 0.28690 -0.10900
C 	C 	0.90420 0.84970 0.34510 0.04500
C 	C 	0.92090 0.81080 0.37150 -0.11200
C 	C 	0.87520 0.74060 0.34300 0.04400
C 	C 	0.95380 0.92820 0.38100 0.03800
C 	C 	0.92920 0.97530 0.38750 -0.09900
C 	C 	0.25490 0.76180 0.63190 0.37500
C 	C 	0.28560 0.80900 0.70840 -0.11900
C 	C 	0.25790 0.78970 0.74780 0.04600
C 	C 	0.28690 0.83570 0.81720 -0.10900
C 	C 	0.34510 0.90420 0.84970 0.04500
C 	C 	0.37150 0.92090 0.81080 -0.11200
C 	C 	0.34300 0.87520 0.74060 0.04400
C 	C 	0.38100 0.95380 0.92820 0.03800
C 	C 	0.38750 0.92920 0.97530 -0.09900
C 	C 	0.87010 0.23820 0.49310 0.37500
C 	C 	0.89940 0.19100 0.47660 -0.11900
C 	C 	0.95810 0.21030 0.46820 0.04600
C 	C 	0.98150 0.16430 0.45120 -0.11000
C 	C 	0.94550 0.09580 0.44090 0.04500
C 	C 	0.88990 0.07910 0.45060 -0.11200
C 	C 	0.86540 0.12480 0.46780 0.04400
C 	C 	0.97440 0.04620 0.42720 0.03800
C 	C 	0.04610 0.07080 0.45830 -0.09900
C 	C 	0.74510 0.37700 0.50690 0.37500
C 	C 	0.71440 0.42280 0.52340 -0.11900
C 	C 	0.74210 0.48990 0.53180 0.04600
C 	C 	0.71310 0.53030 0.54880 -0.11000
C 	C 	0.65490 0.50460 0.55910 0.04500
C 	C 	0.62850 0.43930 0.54940 -0.11200
C 	C 	0.65700 0.39760 0.53220 0.04400
C 	C 	0.61900 0.54720 0.57280 0.03800
C 	C 	0.61250 0.58780 0.54170 -0.09900
C 	C 	0.12990 0.62300 0.36810 0.37500
C 	C 	0.10060 0.57720 0.29160 -0.11900
C 	C 	0.04190 0.51010 0.25220 0.04600
C 	C 	0.01850 0.46970 0.18280 -0.10900
C 	C 	0.05450 0.49540 0.15030 0.04500
C 	C 	0.11010 0.56070 0.18920 -0.11200
C 	C 	0.13460 0.60240 0.25940 0.04400
C 	C 	0.02560 0.45280 0.07180 0.03800
C 	C 	0.95390 0.41220 0.02470 -0.09900
O 	O 	0.50152 0.09918 0.70236 -0.40700
O 	O 	0.50112 0.18253 0.78385 -0.41900
O 	O 	0.39682 0.79916 0.29764 -0.40700
O 	O 	0.39868 0.71727 0.21615 -0.41900
O 	O 	0.60318 0.90082 0.40234 -0.40700
O 	O 	0.60132 0.81747 0.31859 -0.41900
O 	O 	0.49848 0.20084 0.59766 -0.40700
O 	O 	0.49888 0.28273 0.68141 -0.41900
O 	O 	0.40234 0.60318 0.90082 -0.40700
O 	O 	0.31859 0.60132 0.81747 -0.41900
O 	O 	0.59766 0.49848 0.20084 -0.40700
O 	O 	0.68141 0.49888 0.28273 -0.41900
O 	O 	0.70236 0.50152 0.09918 -0.40700
O 	O 	0.78385 0.50112 0.18253 -0.41900
O 	O 	0.29764 0.39682 0.79916 -0.40700
O 	O 	0.21615 0.39868 0.71727 -0.41900
O 	O 	0.79916 0.29764 0.39682 -0.40700
O 	O 	0.71727 0.21615 0.39868 -0.41900
O 	O 	0.09918 0.70236 0.50152 -0.40700
O 	O 	0.18253 0.78385 0.50112 -0.41900
O 	O 	0.20084 0.59766 0.49848 -0.40700
O 	O 	0.28273 0.68141 0.49888 -0.41900
O 	O 	0.90082 0.40234 0.60318 -0.40700
O 	O 	0.81747 0.31859 0.60132 -0.41900
O 	O 	0.49848 0.90082 0.29764 -0.40700
O 	O 	0.49888 0.81747 0.21615 -0.41900
O 	O 	0.60318 0.20084 0.70236 -0.40700
O 	O 	0.60132 0.28273 0.78385 -0.41900
O 	O 	0.39682 0.09918 0.59766 -0.40700
O 	O 	0.39868 0.18253 0.68141 -0.41900
O 	O 	0.50152 0.79916 0.40234 -0.40700
O 	O 	0.50112 0.71727 0.31859 -0.41900
O 	O 	0.59766 0.39682 0.09918 -0.40700
O 	O 	0.68141 0.39868 0.18253 -0.41900
O 	O 	0.40234 0.50152 0.79916 -0.40700
O 	O 	0.31859 0.50112 0.71727 -0.41900
O 	O 	0.29764 0.49848 0.90082 -0.40700
O 	O 	0.21615 0.49888 0.81747 -0.41900
O 	O 	0.70236 0.60318 0.20084 -0.40700
O 	O 	0.78385 0.60132 0.28273 -0.41900
O 	O 	0.20084 0.70236 0.60318 -0.40700
O 	O 	0.28273 0.78385 0.60132 -0.41900
O 	O 	0.90082 0.29764 0.49848 -0.40700
O 	O 	0.81747 0.21615 0.49888 -0.41900
O 	O 	0.79916 0.40234 0.50152 -0.40700
O 	O 	0.71727 0.31859 0.50112 -0.41900
O 	O 	0.09918 0.59766 0.39682 -0.40700
O 	O 	0.18253 0.68141 0.39868 -0.41900
