data_crystal

_cell_length_a 12.00500
_cell_length_b 12.47100
_cell_length_c 13.80400
_cell_angle_alpha 90.00000
_cell_angle_beta  90.00000
_cell_angle_gamma 90.00000

_symmetry_space_group_name_	'P 1'
_symmetry_space_group_name_H-M	'P 1'

loop_
_symmetry_equiv_pos_as_xyz
  x,y,z

loop_
_atom_site_label
_atom_site_type_symbol
_atom_site_fract_x
_atom_site_fract_y
_atom_site_fract_z
_atom_site_charge
Zn	Zn	0.80346 0.25000 -0.00000 1.18900
Zn	Zn	0.30346 0.75000 0.50000 1.21100
H 	H 	0.42900 0.61380 0.18150 0.11900
H 	H 	0.33230 0.71590 0.28920 -0.00900
H 	H 	0.52160 0.62300 0.50070 -0.02700
H 	H 	0.62540 0.51990 0.39760 0.09900
H 	H 	0.65300 0.43370 0.24220 0.07500
H 	H 	0.54410 0.51940 0.08630 0.08600
H 	H 	0.42900 0.88620 0.81850 0.11100
H 	H 	0.33230 0.78410 0.71080 -0.00100
H 	H 	0.52160 0.87700 0.49930 -0.02300
H 	H 	0.62540 0.98010 0.60240 0.08700
H 	H 	0.65300 0.06630 0.75780 0.04700
H 	H 	0.54410 0.98060 0.91370 0.15000
H 	H 	0.92900 0.11380 0.31850 0.09800
H 	H 	0.83230 0.21590 0.21080 0.00500
H 	H 	0.02160 0.12300 0.99930 0.08900
H 	H 	0.12540 0.01990 0.10240 0.04300
H 	H 	0.15300 0.93370 0.25780 0.04600
H 	H 	0.04410 0.01940 0.41370 0.13300
H 	H 	0.92900 0.38620 0.68150 0.13100
H 	H 	0.83230 0.28410 0.78920 -0.01200
H 	H 	0.02160 0.37700 0.00070 -0.13400
H 	H 	0.12540 0.48010 0.89760 0.14700
H 	H 	0.15300 0.56630 0.74220 0.07500
H 	H 	0.04410 0.48060 0.58630 0.11300
C 	C 	0.44890 0.61290 0.24660 -0.19500
C 	C 	0.39050 0.67360 0.31190 0.11200
C 	C 	0.50120 0.61970 0.43580 0.11300
C 	C 	0.56430 0.55740 0.37380 -0.19200
C 	C 	0.53710 0.55060 0.27700 0.13300
C 	C 	0.60210 0.47940 0.21270 -0.06300
C 	C 	0.59460 0.47450 0.11750 -0.14600
C 	C 	0.66340 0.40020 0.05740 0.26700
C 	C 	0.44890 0.88710 0.75340 -0.16100
C 	C 	0.39050 0.82640 0.68810 0.09600
C 	C 	0.50120 0.88030 0.56420 0.09800
C 	C 	0.56430 0.94260 0.62620 -0.16300
C 	C 	0.53710 0.94940 0.72300 0.09000
C 	C 	0.60210 0.02060 0.78730 0.02200
C 	C 	0.59460 0.02550 0.88250 -0.24400
C 	C 	0.66340 0.09980 0.94260 0.48700
C 	C 	0.94890 0.11290 0.25340 -0.12700
C 	C 	0.89050 0.17360 0.18810 0.07200
C 	C 	0.00120 0.11970 0.06420 -0.07900
C 	C 	0.06430 0.05740 0.12620 -0.06600
C 	C 	0.03710 0.05060 0.22300 0.04900
C 	C 	0.10210 0.97940 0.28730 0.01800
C 	C 	0.09460 0.97450 0.38250 -0.22900
C 	C 	0.16340 0.90020 0.44260 0.38900
C 	C 	0.94890 0.38710 0.74660 -0.22300
C 	C 	0.89050 0.32640 0.81190 0.13500
C 	C 	0.00120 0.38030 0.93580 0.28800
C 	C 	0.06430 0.44260 0.87380 -0.28700
C 	C 	0.03710 0.44940 0.77700 0.17500
C 	C 	0.10210 0.52060 0.71270 -0.05900
C 	C 	0.09460 0.52550 0.61750 -0.17600
C 	C 	0.16340 0.59980 0.55740 0.37000
N 	N 	0.41320 0.67490 0.40680 -0.27500
N 	N 	0.41320 0.82510 0.59320 -0.26900
N 	N 	0.91320 0.17490 0.09320 -0.24300
N 	N 	0.91320 0.32510 0.90680 -0.29100
O 	O 	0.65080 0.39850 0.96950 -0.27100
O 	O 	0.73720 0.34430 0.09870 -0.44800
O 	O 	0.65080 0.10150 0.03050 -0.43700
O 	O 	0.73720 0.15570 0.90130 -0.47100
O 	O 	0.15080 0.89850 0.53050 -0.36100
O 	O 	0.23720 0.84430 0.40130 -0.46900
O 	O 	0.15080 0.60150 0.46950 -0.35400
O 	O 	0.23720 0.65570 0.59870 -0.46200
Zn	Zn	0.69654 0.25000 0.50000 1.21000
Zn	Zn	0.19654 0.75000 -0.00000 1.18800
H 	H 	0.07100 0.88620 0.68150 0.12800
H 	H 	0.16770 0.78410 0.78920 -0.01100
H 	H 	0.97840 0.87700 0.00070 -0.13300
H 	H 	0.87460 0.98010 0.89760 0.14200
H 	H 	0.84700 0.06630 0.74220 0.07400
H 	H 	0.95590 0.98060 0.58630 0.10400
H 	H 	0.07100 0.61380 0.31850 0.09900
H 	H 	0.16770 0.71590 0.21080 0.00400
H 	H 	0.97840 0.62300 0.99930 0.08800
H 	H 	0.87460 0.51990 0.10240 0.04200
H 	H 	0.84700 0.43370 0.25780 0.04600
H 	H 	0.95590 0.51940 0.41370 0.13000
H 	H 	0.57100 0.38620 0.81850 0.11300
H 	H 	0.66770 0.28410 0.71080 -0.00100
H 	H 	0.47840 0.37700 0.49930 -0.02300
H 	H 	0.37460 0.48010 0.60240 0.09000
H 	H 	0.34700 0.56630 0.75780 0.04700
H 	H 	0.45590 0.48060 0.91370 0.15700
H 	H 	0.57100 0.11380 0.18150 0.12100
H 	H 	0.66770 0.21590 0.28920 -0.00900
H 	H 	0.47840 0.12300 0.50070 -0.02600
H 	H 	0.37460 0.01990 0.39760 0.10100
H 	H 	0.34700 0.93370 0.24220 0.07500
H 	H 	0.45590 0.01940 0.08630 0.09200
C 	C 	0.05110 0.88710 0.74660 -0.21400
C 	C 	0.10950 0.82640 0.81190 0.13000
C 	C 	0.99880 0.88030 0.93580 0.28200
C 	C 	0.93570 0.94260 0.87380 -0.28000
C 	C 	0.96290 0.94940 0.77700 0.16300
C 	C 	0.89790 0.02060 0.71270 -0.05200
C 	C 	0.90540 0.02550 0.61750 -0.16600
C 	C 	0.83660 0.09980 0.55740 0.36700
C 	C 	0.05110 0.61290 0.25340 -0.13300
C 	C 	0.10950 0.67360 0.18810 0.07400
C 	C 	0.99880 0.61970 0.06420 -0.07900
C 	C 	0.93570 0.55740 0.12620 -0.06800
C 	C 	0.96290 0.55060 0.22300 0.05100
C 	C 	0.89790 0.47940 0.28730 0.01700
C 	C 	0.90540 0.47450 0.38250 -0.22400
C 	C 	0.83660 0.40020 0.44260 0.38800
C 	C 	0.55110 0.38710 0.75340 -0.16400
C 	C 	0.60950 0.32640 0.68810 0.09800
C 	C 	0.49880 0.38030 0.56420 0.10100
C 	C 	0.43570 0.44260 0.62620 -0.16600
C 	C 	0.46290 0.44940 0.72300 0.09700
C 	C 	0.39790 0.52060 0.78730 0.01800
C 	C 	0.40540 0.52550 0.88250 -0.25200
C 	C 	0.33660 0.59980 0.94260 0.49000
C 	C 	0.55110 0.11290 0.24660 -0.19700
C 	C 	0.60950 0.17360 0.31190 0.11400
C 	C 	0.49880 0.11970 0.43580 0.11500
C 	C 	0.43570 0.05740 0.37380 -0.19400
C 	C 	0.46290 0.05060 0.27700 0.13800
C 	C 	0.39790 0.97940 0.21270 -0.06600
C 	C 	0.40540 0.97450 0.11750 -0.15300
C 	C 	0.33660 0.90020 0.05740 0.27000
N 	N 	0.08680 0.82510 0.90680 -0.29000
N 	N 	0.08680 0.67490 0.09320 -0.24500
N 	N 	0.58680 0.32510 0.59320 -0.26900
N 	N 	0.58680 0.17490 0.40680 -0.27500
O 	O 	0.84920 0.10150 0.46950 -0.35200
O 	O 	0.76280 0.15570 0.59870 -0.46100
O 	O 	0.84920 0.39850 0.53050 -0.36000
O 	O 	0.76280 0.34430 0.40130 -0.46800
O 	O 	0.34920 0.60150 0.03050 -0.43900
O 	O 	0.26280 0.65570 0.90130 -0.47300
O 	O 	0.34920 0.89850 0.96950 -0.27300
O 	O 	0.26280 0.84430 0.09870 -0.44900
