data_crystal

_cell_length_a 9.54540
_cell_length_b 14.67190
_cell_length_c 9.47900
_cell_angle_alpha 90.00000
_cell_angle_beta  110.41900
_cell_angle_gamma 90.00000

_symmetry_space_group_name_	'P 1'
_symmetry_space_group_name_H-M	'P 1'

loop_
_symmetry_equiv_pos_as_xyz
  x,y,z

loop_
_atom_site_label
_atom_site_type_symbol
_atom_site_fract_x
_atom_site_fract_y
_atom_site_fract_z
_atom_site_charge
O 	O 	0.76530 0.84540 0.41450 -0.18900
O 	O 	0.88170 0.93640 0.73940 -0.25300
O 	O 	0.78430 0.02170 0.87310 -0.35100
N 	N 	0.93850 0.60800 0.58990 -0.13100
N 	N 	0.03050 0.65540 0.71000 -0.16100
N 	N 	0.81090 0.71860 0.62820 -0.09700
N 	N 	0.69850 0.78300 0.60220 -0.18000
H 	H 	0.63160 0.78070 0.64660 0.13600
C 	C 	0.80810 0.64530 0.54300 0.11800
H 	H 	0.72400 0.62430 0.46150 0.01600
C 	C 	0.95170 0.72400 0.73030 0.20200
H 	H 	0.98750 0.77010 0.80460 0.03200
C 	C 	0.69870 0.85030 0.50260 0.24200
C 	C 	0.59610 0.92830 0.50330 -0.07100
C 	C 	0.63330 0.99070 0.62470 0.03800
C 	C 	0.53410 0.06140 0.61650 -0.10800
H 	H 	0.55740 0.10410 0.69680 0.09400
C 	C 	0.78000 0.98190 0.75300 0.32100
O 	O 	0.23470 0.34540 0.08550 -0.24400
O 	O 	0.11830 0.43640 0.76060 -0.31600
O 	O 	0.21570 0.52170 0.62690 -0.37300
N 	N 	0.06150 0.10800 0.91010 -0.22600
N 	N 	0.96950 0.15540 0.79000 -0.00100
N 	N 	0.18910 0.21860 0.87180 -0.08400
N 	N 	0.30150 0.28300 0.89780 -0.18000
H 	H 	0.36840 0.28070 0.85340 0.14100
C 	C 	0.19190 0.14530 0.95700 0.17400
H 	H 	0.27600 0.12430 0.03850 -0.03400
C 	C 	0.04830 0.22400 0.76970 0.02300
H 	H 	0.01250 0.27010 0.69540 0.04000
C 	C 	0.30130 0.35030 0.99740 0.25500
C 	C 	0.40390 0.42830 0.99670 0.03000
C 	C 	0.36670 0.49070 0.87530 -0.08200
C 	C 	0.46590 0.56140 0.88350 0.05700
H 	H 	0.44260 0.60410 0.80320 0.04200
C 	C 	0.22000 0.48190 0.74700 0.32400
O 	O 	0.23470 0.15460 0.58550 -0.21100
O 	O 	0.11830 0.06360 0.26060 -0.32200
O 	O 	0.21570 0.97830 0.12690 -0.32900
N 	N 	0.06150 0.39200 0.41010 -0.22000
N 	N 	0.96950 0.34460 0.29000 -0.00000
N 	N 	0.18910 0.28140 0.37180 -0.07600
N 	N 	0.30150 0.21700 0.39780 -0.17600
H 	H 	0.36840 0.21930 0.35340 0.13400
C 	C 	0.19190 0.35470 0.45700 0.11000
H 	H 	0.27600 0.37570 0.53850 0.01600
C 	C 	0.04830 0.27600 0.26970 0.01900
H 	H 	0.01250 0.22990 0.19540 0.03300
C 	C 	0.30130 0.14970 0.49740 0.21000
C 	C 	0.40390 0.07170 0.49670 0.02400
C 	C 	0.36670 0.00930 0.37530 -0.12600
C 	C 	0.46590 0.93860 0.38350 0.08600
H 	H 	0.44260 0.89590 0.30320 0.03000
C 	C 	0.22000 0.01810 0.24700 0.28000
O 	O 	0.76530 0.65460 0.91450 -0.16100
O 	O 	0.88170 0.56360 0.23940 -0.26400
O 	O 	0.78430 0.47830 0.37310 -0.32800
N 	N 	0.93850 0.89200 0.08990 -0.11600
N 	N 	0.03050 0.84460 0.21000 -0.16000
N 	N 	0.81090 0.78140 0.12820 -0.09100
N 	N 	0.69850 0.71700 0.10220 -0.17500
H 	H 	0.63160 0.71930 0.14660 0.13000
C 	C 	0.80810 0.85470 0.04300 0.06700
H 	H 	0.72400 0.87570 0.96150 0.05800
C 	C 	0.95170 0.77600 0.23030 0.20000
H 	H 	0.98750 0.72990 0.30460 0.02500
C 	C 	0.69870 0.64970 0.00260 0.20200
C 	C 	0.59610 0.57170 0.00330 -0.07600
C 	C 	0.63330 0.50930 0.12470 -0.00600
C 	C 	0.53410 0.43860 0.11650 -0.08300
H 	H 	0.55740 0.39590 0.19680 0.08300
C 	C 	0.78000 0.51810 0.25300 0.28700
Cu	Cu	0.00000 0.50000 0.50000 0.87800
Cu	Cu	-0.00000 0.00000 -0.00000 0.84400
