data_crystal

_cell_length_a 10.32650
_cell_length_b 14.19760
_cell_length_c 18.24770
_cell_angle_alpha 90.00000
_cell_angle_beta  93.75900
_cell_angle_gamma 90.00000

_symmetry_space_group_name_	'P 1'
_symmetry_space_group_name_H-M	'P 1'

loop_
_symmetry_equiv_pos_as_xyz
  x,y,z

loop_
_atom_site_label
_atom_site_type_symbol
_atom_site_fract_x
_atom_site_fract_y
_atom_site_fract_z
_atom_site_charge
Zn	Zn	0.21948 0.98943 0.23927 1.21500
Zn	Zn	0.71948 0.51057 0.23927 1.21500
Zn	Zn	0.28052 0.48943 0.76073 1.21500
Zn	Zn	0.78052 0.01057 0.76073 1.21500
H 	H 	0.86050 0.62400 0.02580 0.06200
H 	H 	0.54940 0.22180 0.57700 0.13200
H 	H 	0.91440 0.71680 0.24230 0.03000
H 	H 	0.16010 0.79250 0.78950 0.04300
H 	H 	0.63950 0.12400 0.97420 0.06400
H 	H 	0.90800 0.26590 0.05120 0.13300
H 	H 	0.65430 0.36420 0.10880 0.00900
H 	H 	0.13950 0.37600 0.97420 0.06300
H 	H 	0.08560 0.28320 0.75770 0.03000
H 	H 	0.65550 0.63550 0.37710 0.00400
H 	H 	0.32640 0.10420 0.47900 0.06300
H 	H 	0.09200 0.73410 0.94880 0.13300
H 	H 	0.04940 0.27820 0.57700 0.13300
H 	H 	0.66010 0.70750 0.78950 0.04300
H 	H 	0.58560 0.21680 0.75770 0.03100
H 	H 	0.40800 0.23410 0.05120 0.13200
H 	H 	0.84450 0.13550 0.62290 0.00400
H 	H 	0.34570 0.63580 0.89120 0.00900
H 	H 	0.83990 0.20750 0.21050 0.04300
H 	H 	0.36050 0.87600 0.02580 0.06400
H 	H 	0.95060 0.72180 0.42300 0.13300
H 	H 	0.59200 0.76590 0.94880 0.13200
H 	H 	0.17360 0.60420 0.52100 0.06300
H 	H 	0.67360 0.89580 0.52100 0.06300
H 	H 	0.45060 0.77820 0.42300 0.13300
H 	H 	0.84570 0.86420 0.89120 0.00900
H 	H 	0.15430 0.13580 0.10880 0.00900
H 	H 	0.15550 0.86450 0.37710 0.00400
H 	H 	0.34450 0.36450 0.62290 0.00400
H 	H 	0.41440 0.78320 0.24230 0.03100
H 	H 	0.82640 0.39580 0.47900 0.06300
H 	H 	0.33990 0.29250 0.21050 0.04300
C 	C 	0.58820 0.36246 0.14259 0.11000
C 	C 	0.43350 0.00142 0.06437 -0.03700
C 	C 	0.56900 0.99840 0.56849 -0.04800
C 	C 	0.47450 0.73670 0.26030 0.10800
C 	C 	0.91180 0.86246 0.85741 0.11000
C 	C 	0.60300 0.93810 0.51267 -0.01600
C 	C 	0.91690 0.57364 0.01537 -0.01900
C 	C 	0.41180 0.63754 0.85741 0.11000
C 	C 	0.48280 0.92495 0.95134 -0.02200
C 	C 	0.10550 0.84350 0.33471 0.10800
C 	C 	0.96560 0.43988 0.55469 -0.02100
C 	C 	0.41650 0.32420 0.19825 0.10500
C 	C 	0.85890 0.49676 0.13221 0.28900
C 	C 	0.57620 0.87050 0.38866 0.23100
C 	C 	0.89450 0.15650 0.66529 0.10800
C 	C 	0.08350 0.82420 0.80175 0.10500
C 	C 	0.02550 0.23670 0.73970 0.10900
C 	C 	0.43100 0.00160 0.43151 -0.04800
C 	C 	0.03440 0.56012 0.44531 -0.02100
C 	C 	0.39450 0.34350 0.66529 0.10800
C 	C 	0.01720 0.42495 0.04866 -0.02400
C 	C 	0.56650 0.99858 0.93563 -0.03700
C 	C 	0.95410 0.65553 0.89891 0.23100
C 	C 	0.93350 0.49858 0.06437 -0.03800
C 	C 	0.14110 0.50324 0.86779 0.28900
C 	C 	0.35630 0.00050 0.35763 0.31900
C 	C 	0.07620 0.62950 0.38866 0.23100
C 	C 	0.93100 0.49840 0.43151 -0.04800
C 	C 	0.08310 0.42636 0.98463 -0.01900
C 	C 	0.14370 0.50050 0.64237 0.31700
C 	C 	0.08820 0.13754 0.14259 0.11000
C 	C 	0.91650 0.17580 0.19825 0.10500
C 	C 	0.52550 0.26330 0.73970 0.10800
C 	C 	0.35890 0.00324 0.13221 0.29100
C 	C 	0.89700 0.43810 0.48733 -0.01700
C 	C 	0.46560 0.06012 0.55469 -0.02100
C 	C 	0.98280 0.57505 0.95134 -0.02400
C 	C 	0.85630 0.49950 0.35763 0.31700
C 	C 	0.42380 0.12950 0.61134 0.23100
C 	C 	0.64370 0.99950 0.64237 0.31900
C 	C 	0.06650 0.50142 0.93563 -0.03800
C 	C 	0.64110 0.99676 0.86779 0.29100
C 	C 	0.92380 0.37050 0.61134 0.23100
C 	C 	0.51720 0.07505 0.04866 -0.02200
C 	C 	0.97450 0.76330 0.26030 0.10900
C 	C 	0.54590 0.15553 0.10109 0.23100
C 	C 	0.10300 0.56190 0.51267 -0.01700
C 	C 	0.04590 0.34447 0.10109 0.23100
C 	C 	0.58350 0.67580 0.80175 0.10500
C 	C 	0.06900 0.50160 0.56849 -0.04800
C 	C 	0.39700 0.06190 0.48733 -0.01600
C 	C 	0.58310 0.07364 0.98463 -0.02200
C 	C 	0.45410 0.84447 0.89891 0.23100
C 	C 	0.41690 0.92636 0.01537 -0.02200
C 	C 	0.60550 0.65650 0.33471 0.10800
C 	C 	0.53440 0.93988 0.44531 -0.02100
N 	N 	0.02800 0.89263 0.76393 -0.08700
N 	N 	0.51550 0.69514 0.86168 -0.08900
N 	N 	0.01550 0.80486 0.86168 -0.08900
N 	N 	0.96650 0.26827 0.08845 -0.17800
N 	N 	0.97200 0.10737 0.23607 -0.08700
N 	N 	0.10670 0.88022 0.26870 -0.21900
N 	N 	0.97560 0.17090 0.77944 -0.09100
N 	N 	0.89330 0.11978 0.73130 -0.21900
N 	N 	0.52440 0.67090 0.22056 -0.09000
N 	N 	0.47560 0.32910 0.77944 -0.09000
N 	N 	0.98450 0.19514 0.13832 -0.08900
N 	N 	0.49540 0.20995 0.61120 -0.17800
N 	N 	0.99540 0.29005 0.61120 -0.17900
N 	N 	0.03350 0.73173 0.91155 -0.17800
N 	N 	0.02180 0.77174 0.33193 -0.08800
N 	N 	0.08330 0.08433 0.20073 -0.21900
N 	N 	0.53350 0.76827 0.91155 -0.17800
N 	N 	0.46650 0.23173 0.08845 -0.17800
N 	N 	0.97820 0.22826 0.66807 -0.08800
N 	N 	0.02440 0.82910 0.22056 -0.09100
N 	N 	0.47200 0.39263 0.23607 -0.08700
N 	N 	0.60670 0.61978 0.26870 -0.21900
N 	N 	0.47820 0.27174 0.66807 -0.08800
N 	N 	0.91670 0.91567 0.79927 -0.21900
N 	N 	0.58330 0.41567 0.20073 -0.21900
N 	N 	0.50460 0.79005 0.38880 -0.17800
N 	N 	0.41670 0.58433 0.79927 -0.21900
N 	N 	0.48450 0.30486 0.13832 -0.08900
N 	N 	0.39330 0.38022 0.73130 -0.21900
N 	N 	0.52180 0.72826 0.33193 -0.08800
N 	N 	0.00460 0.70995 0.38880 -0.17900
N 	N 	0.52800 0.60737 0.76393 -0.08700
O 	O 	0.13237 0.57394 0.82687 -0.33000
O 	O 	0.28730 0.93372 0.14459 -0.39600
O 	O 	0.66770 0.88113 0.35131 -0.19900
O 	O 	0.33230 0.11887 0.64869 -0.19900
O 	O 	0.86763 0.42606 0.17313 -0.33000
O 	O 	0.86111 0.65561 0.85486 -0.20500
O 	O 	0.21270 0.43372 0.85541 -0.39500
O 	O 	0.26580 0.05560 0.34601 -0.38100
O 	O 	0.63237 0.92606 0.82687 -0.33000
O 	O 	0.36763 0.07394 0.17313 -0.33000
O 	O 	0.11380 0.44316 0.68975 -0.36800
O 	O 	0.38620 0.94316 0.31025 -0.36900
O 	O 	0.78730 0.56628 0.14459 -0.39500
O 	O 	0.88620 0.55684 0.31025 -0.36800
O 	O 	0.73420 0.94440 0.65399 -0.38100
O 	O 	0.76580 0.44440 0.34601 -0.38100
O 	O 	0.71270 0.06628 0.85541 -0.39600
O 	O 	0.83230 0.38113 0.64869 -0.19900
O 	O 	0.61380 0.05684 0.68975 -0.36900
O 	O 	0.16770 0.61887 0.35131 -0.19900
O 	O 	0.13889 0.34439 0.14514 -0.20500
O 	O 	0.36111 0.84439 0.85486 -0.20500
O 	O 	0.63889 0.15561 0.14514 -0.20500
O 	O 	0.23420 0.55560 0.65399 -0.38100
