data_crystal

_cell_length_a 9.37600
_cell_length_b 14.91900
_cell_length_c 19.13800
_cell_angle_alpha 90.00000
_cell_angle_beta  90.00000
_cell_angle_gamma 90.00000

_symmetry_space_group_name_	'P 1'
_symmetry_space_group_name_H-M	'P 1'

loop_
_symmetry_equiv_pos_as_xyz
  x,y,z

loop_
_atom_site_label
_atom_site_type_symbol
_atom_site_fract_x
_atom_site_fract_y
_atom_site_fract_z
_atom_site_charge
Cd	Cd	0.69059 0.50000 0.25000 1.22300
Cd	Cd	0.30941 0.50000 0.75000 1.22400
Cd	Cd	0.80941 0.00000 0.75000 1.20000
Cd	Cd	0.19059 0.00000 0.25000 1.19900
H 	H 	0.88200 0.28720 0.23360 0.02000
H 	H 	0.90320 0.71700 0.43700 0.13500
H 	H 	0.09680 0.71700 0.93700 0.13600
H 	H 	0.60120 0.37470 0.10920 0.00400
H 	H 	0.39880 0.62530 0.89080 0.00500
H 	H 	0.89880 0.12530 0.60920 -0.00500
H 	H 	0.17230 0.39150 0.97590 0.05800
H 	H 	0.61800 0.78720 0.76640 0.02700
H 	H 	0.59680 0.78300 0.93700 0.13700
H 	H 	0.40320 0.78300 0.43700 0.13700
H 	H 	0.11800 0.71280 0.76640 0.02300
H 	H 	0.17230 0.60850 0.52410 0.06400
H 	H 	0.88200 0.71280 0.26640 0.02300
H 	H 	0.67230 0.89150 0.52410 0.02100
H 	H 	0.11800 0.28720 0.73360 0.02000
H 	H 	0.89880 0.87470 0.89080 0.01500
H 	H 	0.38200 0.78720 0.26640 0.02700
H 	H 	0.32770 0.89150 0.02410 0.02300
H 	H 	0.90320 0.28300 0.06300 0.12900
H 	H 	0.59680 0.21700 0.56300 0.12700
H 	H 	0.61800 0.21280 0.73360 0.01800
H 	H 	0.38200 0.21280 0.23360 0.01800
H 	H 	0.60120 0.62530 0.39080 0.00500
H 	H 	0.09680 0.28300 0.56300 0.12900
H 	H 	0.67230 0.10850 0.97590 0.10100
H 	H 	0.10120 0.87470 0.39080 0.01500
H 	H 	0.39880 0.37470 0.60920 0.00400
H 	H 	0.82770 0.39150 0.47590 0.06000
H 	H 	0.82770 0.60850 0.02410 0.06600
H 	H 	0.40320 0.21700 0.06300 0.12700
H 	H 	0.10120 0.12530 0.10920 -0.00500
H 	H 	0.32770 0.10850 0.47590 0.10400
C 	C 	0.94460 0.15010 0.64910 0.10300
C 	C 	0.60190 0.93560 0.51440 0.14100
C 	C 	0.92460 0.49720 0.06280 -0.03500
C 	C 	0.02710 0.43210 0.04770 -0.03400
C 	C 	0.93600 0.76240 0.28280 0.11800
C 	C 	0.60190 0.06440 0.98560 -0.17000
C 	C 	0.93730 0.64240 0.90230 0.22200
C 	C 	0.43600 0.26240 0.21720 0.11400
C 	C 	0.56270 0.14240 0.09770 0.19800
C 	C 	0.34310 0.00180 0.13090 0.23200
C 	C 	0.97290 0.56790 0.95230 -0.01700
C 	C 	0.06400 0.23760 0.71720 0.11300
C 	C 	0.05540 0.15010 0.14910 0.10300
C 	C 	0.52710 0.06790 0.04770 0.04400
C 	C 	0.93730 0.35760 0.59770 0.22300
C 	C 	0.39810 0.06440 0.48560 -0.18300
C 	C 	0.65690 0.00180 0.63090 0.23400
C 	C 	0.93600 0.23760 0.21720 0.11300
C 	C 	0.47290 0.06790 0.54770 0.05300
C 	C 	0.34310 0.99820 0.36910 0.34500
C 	C 	0.39810 0.93560 0.01440 0.13100
C 	C 	0.97290 0.43210 0.54770 -0.02500
C 	C 	0.55540 0.34990 0.14910 0.10700
C 	C 	0.43730 0.14240 0.59770 0.19600
C 	C 	0.02710 0.56790 0.45230 -0.02300
C 	C 	0.89810 0.56440 0.01440 -0.02900
C 	C 	0.56270 0.85760 0.40230 0.25200
C 	C 	0.47290 0.93210 0.95230 -0.09200
C 	C 	0.56400 0.26240 0.71720 0.11400
C 	C 	0.65690 0.99820 0.86910 0.34600
C 	C 	0.15690 0.49820 0.63090 0.28800
C 	C 	0.44460 0.65010 0.85090 0.10800
C 	C 	0.43730 0.85760 0.90230 0.25000
C 	C 	0.10190 0.43560 0.98560 -0.01000
C 	C 	0.92460 0.50280 0.43720 -0.04300
C 	C 	0.57540 0.99720 0.93720 0.07900
C 	C 	0.52710 0.93210 0.45230 -0.10000
C 	C 	0.94460 0.84990 0.85090 0.11100
C 	C 	0.42460 0.99720 0.43720 0.08600
C 	C 	0.89810 0.43560 0.48560 -0.02000
C 	C 	0.57540 0.00280 0.56280 -0.16900
C 	C 	0.07540 0.49720 0.56280 -0.04000
C 	C 	0.06400 0.76240 0.78280 0.11800
C 	C 	0.44460 0.34990 0.64910 0.10800
C 	C 	0.06270 0.64240 0.40230 0.22400
C 	C 	0.07540 0.50280 0.93720 -0.04600
C 	C 	0.43600 0.73760 0.28280 0.11600
C 	C 	0.42460 0.00280 0.06280 -0.16300
C 	C 	0.15690 0.50180 0.86910 0.29100
C 	C 	0.55540 0.65010 0.35090 0.10800
C 	C 	0.06270 0.35760 0.09770 0.22400
C 	C 	0.10190 0.56440 0.51440 -0.02200
C 	C 	0.05540 0.84990 0.35090 0.11200
C 	C 	0.56400 0.73760 0.78280 0.11600
C 	C 	0.84310 0.49820 0.13090 0.28700
C 	C 	0.84310 0.50180 0.36910 0.28900
N 	N 	0.97880 0.17110 0.25590 -0.10300
N 	N 	0.03220 0.28810 0.59610 -0.17700
N 	N 	0.96780 0.28810 0.09610 -0.17700
N 	N 	0.52060 0.72620 0.84990 -0.08800
N 	N 	0.47880 0.67110 0.24410 -0.09500
N 	N 	0.47940 0.72620 0.34990 -0.08800
N 	N 	0.55610 0.61560 0.28820 -0.20200
N 	N 	0.46780 0.78810 0.40390 -0.18300
N 	N 	0.97940 0.77380 0.34990 -0.08800
N 	N 	0.47880 0.32890 0.25590 -0.09800
N 	N 	0.94390 0.88440 0.78820 -0.18700
N 	N 	0.02120 0.17110 0.75590 -0.10200
N 	N 	0.44390 0.61560 0.78820 -0.20200
N 	N 	0.96780 0.71190 0.40390 -0.17700
N 	N 	0.52120 0.67110 0.74410 -0.09400
N 	N 	0.05610 0.88440 0.28820 -0.18700
N 	N 	0.53220 0.21190 0.59610 -0.17100
N 	N 	0.02120 0.82890 0.74410 -0.08800
N 	N 	0.55610 0.38440 0.21180 -0.20300
N 	N 	0.05610 0.11560 0.21180 -0.21200
N 	N 	0.94390 0.11560 0.71180 -0.21200
N 	N 	0.52060 0.27380 0.65010 -0.09000
N 	N 	0.97880 0.82890 0.24410 -0.08900
N 	N 	0.97940 0.22620 0.15010 -0.09000
N 	N 	0.44390 0.38440 0.71180 -0.20300
N 	N 	0.46780 0.21190 0.09610 -0.17100
N 	N 	0.53220 0.78810 0.90390 -0.18200
N 	N 	0.02060 0.77380 0.84990 -0.08700
N 	N 	0.03220 0.71190 0.90390 -0.17600
N 	N 	0.02060 0.22620 0.65010 -0.09000
N 	N 	0.52120 0.32890 0.75590 -0.09800
N 	N 	0.47940 0.27380 0.15010 -0.09000
O 	O 	0.67120 0.14440 0.13280 -0.20700
O 	O 	0.62430 0.05840 0.67700 -0.34800
O 	O 	0.67120 0.85560 0.36720 -0.20000
O 	O 	0.12430 0.44160 0.67700 -0.34400
O 	O 	0.74500 0.55440 0.13930 -0.36800
O 	O 	0.37570 0.94160 0.32300 -0.33500
O 	O 	0.37570 0.05840 0.17700 -0.34700
O 	O 	0.82880 0.64440 0.86720 -0.20200
O 	O 	0.87570 0.44160 0.17700 -0.34400
O 	O 	0.87570 0.55840 0.32300 -0.34400
O 	O 	0.62430 0.94160 0.82300 -0.33500
O 	O 	0.17120 0.35560 0.13280 -0.20500
O 	O 	0.17120 0.64440 0.36720 -0.20300
O 	O 	0.24500 0.94560 0.13930 -0.29600
O 	O 	0.82880 0.35560 0.63280 -0.20400
O 	O 	0.25500 0.44560 0.86070 -0.37100
O 	O 	0.75500 0.05440 0.86070 -0.43600
O 	O 	0.32880 0.85560 0.86720 -0.19800
O 	O 	0.25500 0.55440 0.63930 -0.36800
O 	O 	0.24500 0.05440 0.36070 -0.43700
O 	O 	0.12430 0.55840 0.82300 -0.34400
O 	O 	0.74500 0.44560 0.36070 -0.37200
O 	O 	0.32880 0.14440 0.63280 -0.20600
O 	O 	0.75500 0.94560 0.63930 -0.29600
