data_crystal

_cell_length_a 9.84700
_cell_length_b 14.92900
_cell_length_c 21.95700
_cell_angle_alpha 90.00000
_cell_angle_beta  102.68000
_cell_angle_gamma 90.00000

_symmetry_space_group_name_	'P 1'
_symmetry_space_group_name_H-M	'P 1'

loop_
_symmetry_equiv_pos_as_xyz
  x,y,z

loop_
_atom_site_label
_atom_site_type_symbol
_atom_site_fract_x
_atom_site_fract_y
_atom_site_fract_z
_atom_site_charge
Cd	Cd	0.16284 0.73912 0.32400 1.20000
C 	C 	0.02910 0.55590 0.45271 -0.05400
C 	C 	0.89160 0.54370 0.46035 -0.02700
C 	C 	0.13500 0.51200 0.49410 -0.01100
H 	H 	0.22860 0.52090 0.49080 0.05400
C 	C 	0.06010 0.61450 0.40170 0.33000
C 	C 	0.77360 0.59770 0.42120 0.23500
C 	C 	0.55750 0.62670 0.28970 0.10500
H 	H 	0.62680 0.62120 0.26590 0.02000
C 	C 	0.44890 0.61740 0.36470 0.10100
H 	H 	0.42730 0.60410 0.40380 0.01600
C 	C 	0.45210 0.94720 0.44620 -0.04700
C 	C 	0.58870 0.97600 0.46120 -0.05500
C 	C 	0.36630 0.97020 0.48540 0.00700
H 	H 	0.27310 0.94890 0.47610 0.06800
C 	C 	0.38750 0.89200 0.38874 0.32600
C 	C 	0.72560 0.94820 0.43770 0.03200
C 	C 	0.89200 0.96910 0.32560 0.09300
H 	H 	0.87530 0.03160 0.32020 0.04500
C 	C 	0.87940 0.82890 0.35060 -0.24900
H 	H 	0.85240 0.77360 0.36570 0.11800
N 	N 	0.67980 0.54650 0.38323 -0.18600
H 	H 	0.68870 0.48790 0.38130 0.13200
N 	N 	0.56610 0.59270 0.34666 -0.09400
N 	N 	0.43890 0.66860 0.27161 -0.20800
N 	N 	0.37050 0.66250 0.31942 -0.20500
N 	N 	0.69850 0.92970 0.37510 -0.16500
H 	H 	0.61340 0.93030 0.35190 0.14100
N 	N 	0.81280 0.91010 0.35060 -0.04700
N 	N 	0.98420 0.84220 0.32620 -0.00200
N 	N 	0.99430 0.92530 0.31040 -0.12000
O 	O 	0.17330 0.65140 0.41023 -0.39400
O 	O 	0.96940 0.62320 0.35295 -0.32300
O 	O 	0.76060 0.67750 0.42760 -0.22500
O 	O 	0.29210 0.83980 0.39486 -0.39000
O 	O 	0.43030 0.90630 0.34003 -0.30000
O 	O 	0.83880 0.94460 0.46950 -0.14100
C 	C 	0.67180 0.96580 0.41240 0.30700
C 	C 	0.73860 0.83410 0.31150 0.16400
H 	H 	0.64250 0.83710 0.29210 -0.00100
C 	C 	0.93840 0.84600 0.37850 0.33000
H 	H 	0.00650 0.86050 0.41500 -0.05800
N 	N 	0.72440 0.88430 0.41680 -0.15800
H 	H 	0.71450 0.84810 0.44710 0.14100
N 	N 	0.79690 0.85690 0.37140 -0.04100
N 	N 	0.83910 0.80720 0.28510 -0.08600
N 	N 	0.96360 0.81330 0.32800 -0.17100
O 	O 	0.70660 0.02410 0.38160 -0.21000
Cd	Cd	0.33716 0.73912 0.17600 1.20100
C 	C 	0.47090 0.55590 0.04729 -0.05300
C 	C 	0.60840 0.54370 0.03965 -0.02500
C 	C 	0.36500 0.51200 0.00590 -0.01000
H 	H 	0.27140 0.52090 0.00920 0.05400
C 	C 	0.43990 0.61450 0.09830 0.33000
C 	C 	0.72640 0.59770 0.07880 0.23500
C 	C 	0.94250 0.62670 0.21030 0.10600
H 	H 	0.87320 0.62120 0.23410 0.02000
C 	C 	0.05110 0.61740 0.13530 0.10000
H 	H 	0.07270 0.60410 0.09620 0.01600
C 	C 	0.04790 0.94720 0.05380 -0.04800
C 	C 	0.91130 0.97600 0.03880 -0.05400
C 	C 	0.13370 0.97020 0.01460 0.00600
H 	H 	0.22690 0.94890 0.02390 0.06800
C 	C 	0.11250 0.89200 0.11126 0.32600
C 	C 	0.77440 0.94820 0.06230 0.03000
C 	C 	0.60800 0.96910 0.17440 0.09200
H 	H 	0.62470 0.03160 0.17980 0.04500
C 	C 	0.62060 0.82890 0.14940 -0.24900
H 	H 	0.64760 0.77360 0.13430 0.11800
N 	N 	0.82020 0.54650 0.11677 -0.18600
H 	H 	0.81130 0.48790 0.11870 0.13200
N 	N 	0.93390 0.59270 0.15334 -0.09400
N 	N 	0.06110 0.66860 0.22839 -0.20800
N 	N 	0.12950 0.66250 0.18058 -0.20500
N 	N 	0.80150 0.92970 0.12490 -0.16500
H 	H 	0.88660 0.93030 0.14810 0.14100
N 	N 	0.68720 0.91010 0.14940 -0.04700
N 	N 	0.51580 0.84220 0.17380 -0.00200
N 	N 	0.50570 0.92530 0.18960 -0.12000
O 	O 	0.32670 0.65140 0.08977 -0.39400
O 	O 	0.53060 0.62320 0.14705 -0.32400
O 	O 	0.73940 0.67750 0.07240 -0.22500
O 	O 	0.20790 0.83980 0.10514 -0.39000
O 	O 	0.06970 0.90630 0.15997 -0.30000
O 	O 	0.66120 0.94460 0.03050 -0.14000
C 	C 	0.82820 0.96580 0.08760 0.30700
C 	C 	0.76140 0.83410 0.18850 0.16400
H 	H 	0.85750 0.83710 0.20790 -0.00100
C 	C 	0.56160 0.84600 0.12150 0.33000
H 	H 	0.49350 0.86050 0.08500 -0.05700
N 	N 	0.77560 0.88430 0.08320 -0.15800
H 	H 	0.78550 0.84810 0.05290 0.14100
N 	N 	0.70310 0.85690 0.12860 -0.04100
N 	N 	0.66090 0.80720 0.21490 -0.08600
N 	N 	0.53640 0.81330 0.17200 -0.17000
O 	O 	0.79340 0.02410 0.11840 -0.20900
Cd	Cd	0.83716 0.26088 0.67600 1.20100
C 	C 	0.97090 0.44410 0.54729 -0.05300
C 	C 	0.10840 0.45630 0.53965 -0.02600
C 	C 	0.86500 0.48800 0.50590 -0.01000
H 	H 	0.77140 0.47910 0.50920 0.05400
C 	C 	0.93990 0.38550 0.59830 0.33000
C 	C 	0.22640 0.40230 0.57880 0.23500
C 	C 	0.44250 0.37330 0.71030 0.10500
H 	H 	0.37320 0.37880 0.73410 0.02000
C 	C 	0.55110 0.38260 0.63530 0.10100
H 	H 	0.57270 0.39590 0.59620 0.01600
C 	C 	0.54790 0.05280 0.55380 -0.04700
C 	C 	0.41130 0.02400 0.53880 -0.05500
C 	C 	0.63370 0.02980 0.51460 0.00700
H 	H 	0.72690 0.05110 0.52390 0.06800
C 	C 	0.61250 0.10800 0.61126 0.32600
C 	C 	0.27440 0.05180 0.56230 0.03200
C 	C 	0.10800 0.03090 0.67440 0.09300
H 	H 	0.12470 0.96840 0.67980 0.04500
C 	C 	0.12060 0.17110 0.64940 -0.24900
H 	H 	0.14760 0.22640 0.63430 0.11800
N 	N 	0.32020 0.45350 0.61677 -0.18600
H 	H 	0.31130 0.51210 0.61870 0.13200
N 	N 	0.43390 0.40730 0.65334 -0.09400
N 	N 	0.56110 0.33140 0.72839 -0.20800
N 	N 	0.62950 0.33750 0.68058 -0.20500
N 	N 	0.30150 0.07030 0.62490 -0.16500
H 	H 	0.38660 0.06970 0.64810 0.14100
N 	N 	0.18720 0.08990 0.64940 -0.04700
N 	N 	0.01580 0.15780 0.67380 -0.00200
N 	N 	0.00570 0.07470 0.68960 -0.12000
O 	O 	0.82670 0.34860 0.58977 -0.39400
O 	O 	0.03060 0.37680 0.64705 -0.32300
O 	O 	0.23940 0.32250 0.57240 -0.22500
O 	O 	0.70790 0.16020 0.60514 -0.39000
O 	O 	0.56970 0.09370 0.65997 -0.30000
O 	O 	0.16120 0.05540 0.53050 -0.14100
C 	C 	0.32820 0.03420 0.58760 0.30700
C 	C 	0.26140 0.16590 0.68850 0.16400
H 	H 	0.35750 0.16290 0.70790 -0.00100
C 	C 	0.06160 0.15400 0.62150 0.33000
H 	H 	0.99350 0.13950 0.58500 -0.05800
N 	N 	0.27560 0.11570 0.58320 -0.15800
H 	H 	0.28550 0.15190 0.55290 0.14100
N 	N 	0.20310 0.14310 0.62860 -0.04100
N 	N 	0.16090 0.19280 0.71490 -0.08600
N 	N 	0.03640 0.18670 0.67200 -0.17100
O 	O 	0.29340 0.97590 0.61840 -0.21000
Cd	Cd	0.66284 0.26088 0.82400 1.20100
C 	C 	0.52910 0.44410 0.95271 -0.05300
C 	C 	0.39160 0.45630 0.96035 -0.02500
C 	C 	0.63500 0.48800 0.99410 -0.01000
H 	H 	0.72860 0.47910 0.99080 0.05400
C 	C 	0.56010 0.38550 0.90170 0.33000
C 	C 	0.27360 0.40230 0.92120 0.23500
C 	C 	0.05750 0.37330 0.78970 0.10600
H 	H 	0.12680 0.37880 0.76590 0.02000
C 	C 	0.94890 0.38260 0.86470 0.10000
H 	H 	0.92730 0.39590 0.90380 0.01600
C 	C 	0.95210 0.05280 0.94620 -0.04800
C 	C 	0.08870 0.02400 0.96120 -0.05400
C 	C 	0.86630 0.02980 0.98540 0.00600
H 	H 	0.77310 0.05110 0.97610 0.06800
C 	C 	0.88750 0.10800 0.88874 0.32600
C 	C 	0.22560 0.05180 0.93770 0.03000
C 	C 	0.39200 0.03090 0.82560 0.09200
H 	H 	0.37530 0.96840 0.82020 0.04500
C 	C 	0.37940 0.17110 0.85060 -0.24900
H 	H 	0.35240 0.22640 0.86570 0.11800
N 	N 	0.17980 0.45350 0.88323 -0.18600
H 	H 	0.18870 0.51210 0.88130 0.13200
N 	N 	0.06610 0.40730 0.84666 -0.09400
N 	N 	0.93890 0.33140 0.77161 -0.20800
N 	N 	0.87050 0.33750 0.81942 -0.20500
N 	N 	0.19850 0.07030 0.87510 -0.16500
H 	H 	0.11340 0.06970 0.85190 0.14100
N 	N 	0.31280 0.08990 0.85060 -0.04700
N 	N 	0.48420 0.15780 0.82620 -0.00200
N 	N 	0.49430 0.07470 0.81040 -0.12000
O 	O 	0.67330 0.34860 0.91023 -0.39400
O 	O 	0.46940 0.37680 0.85295 -0.32400
O 	O 	0.26060 0.32250 0.92760 -0.22500
O 	O 	0.79210 0.16020 0.89486 -0.39000
O 	O 	0.93030 0.09370 0.84003 -0.30000
O 	O 	0.33880 0.05540 0.96950 -0.14000
C 	C 	0.17180 0.03420 0.91240 0.30700
C 	C 	0.23860 0.16590 0.81150 0.16400
H 	H 	0.14250 0.16290 0.79210 -0.00100
C 	C 	0.43840 0.15400 0.87850 0.33000
H 	H 	0.50650 0.13950 0.91500 -0.05700
N 	N 	0.22440 0.11570 0.91680 -0.15800
H 	H 	0.21450 0.15190 0.94710 0.14100
N 	N 	0.29690 0.14310 0.87140 -0.04100
N 	N 	0.33910 0.19280 0.78510 -0.08600
N 	N 	0.46360 0.18670 0.82800 -0.17000
O 	O 	0.20660 0.97590 0.88160 -0.20900
