data_crystal

_cell_length_a 10.66780
_cell_length_b 10.66780
_cell_length_c 10.66780
_cell_angle_alpha 105.96500
_cell_angle_beta  105.96500
_cell_angle_gamma 105.96500

_symmetry_space_group_name_	'P 1'
_symmetry_space_group_name_H-M	'P 1'

loop_
_symmetry_equiv_pos_as_xyz
  x,y,z

loop_
_atom_site_label
_atom_site_type_symbol
_atom_site_fract_x
_atom_site_fract_y
_atom_site_fract_z
_atom_site_charge
Cd	Cd	0.98507 0.25033 0.71544 1.23200
Cd	Cd	0.71544 0.98507 0.25033 1.23200
Cd	Cd	0.25033 0.71544 0.98507 1.23200
Cd	Cd	0.01493 0.74967 0.28456 1.23200
Cd	Cd	0.28456 0.01493 0.74967 1.23200
Cd	Cd	0.74967 0.28456 0.01493 1.23200
H 	H 	0.30120 0.35790 0.13600 0.25700
H 	H 	0.13690 0.29080 0.06080 0.24900
H 	H 	0.13600 0.30120 0.35790 0.25700
H 	H 	0.06080 0.13690 0.29080 0.24900
H 	H 	0.35790 0.13600 0.30120 0.25700
H 	H 	0.29080 0.06080 0.13690 0.24900
H 	H 	0.69880 0.64210 0.86400 0.25700
H 	H 	0.86310 0.70920 0.93920 0.24900
H 	H 	0.86400 0.69880 0.64210 0.25700
H 	H 	0.93920 0.86310 0.70920 0.24900
H 	H 	0.64210 0.86400 0.69880 0.25700
H 	H 	0.70920 0.93920 0.86310 0.24900
C 	C 	0.23530 0.21770 0.93470 0.53000
C 	C 	0.22370 0.33070 0.04810 -0.74000
C 	C 	0.22530 0.46120 0.01830 0.52900
C 	C 	0.93470 0.23530 0.21770 0.53000
C 	C 	0.04810 0.22370 0.33070 -0.74000
C 	C 	0.01830 0.22530 0.46120 0.52900
C 	C 	0.21770 0.93470 0.23530 0.53000
C 	C 	0.33070 0.04810 0.22370 -0.74000
C 	C 	0.46120 0.01830 0.22530 0.52900
C 	C 	0.76470 0.78230 0.06530 0.53000
C 	C 	0.77630 0.66930 0.95190 -0.74000
C 	C 	0.77470 0.53880 0.98170 0.52900
C 	C 	0.06530 0.76470 0.78230 0.53000
C 	C 	0.95190 0.77630 0.66930 -0.74000
C 	C 	0.98170 0.77470 0.53880 0.52900
C 	C 	0.78230 0.06530 0.76470 0.53000
C 	C 	0.66930 0.95190 0.77630 -0.74000
C 	C 	0.53880 0.98170 0.77470 0.52900
O 	O 	0.14460 0.16420 0.81100 -0.54900
O 	O 	0.33370 0.17710 0.96780 -0.48200
O 	O 	0.13430 0.45140 0.90760 -0.55400
O 	O 	0.31670 0.57810 0.10550 -0.47200
O 	O 	0.81100 0.14460 0.16420 -0.54900
O 	O 	0.96780 0.33370 0.17710 -0.48200
O 	O 	0.90760 0.13430 0.45140 -0.55400
O 	O 	0.10550 0.31670 0.57810 -0.47200
O 	O 	0.16420 0.81100 0.14460 -0.54900
O 	O 	0.17710 0.96780 0.33370 -0.48200
O 	O 	0.45140 0.90760 0.13430 -0.55400
O 	O 	0.57810 0.10550 0.31670 -0.47200
O 	O 	0.85540 0.83580 0.18900 -0.54900
O 	O 	0.66630 0.82290 0.03220 -0.48200
O 	O 	0.86570 0.54860 0.09240 -0.55400
O 	O 	0.68330 0.42190 0.89450 -0.47200
O 	O 	0.18900 0.85540 0.83580 -0.54900
O 	O 	0.03220 0.66630 0.82290 -0.48200
O 	O 	0.09240 0.86570 0.54860 -0.55400
O 	O 	0.89450 0.68330 0.42190 -0.47200
O 	O 	0.83580 0.18900 0.85540 -0.54900
O 	O 	0.82290 0.03220 0.66630 -0.48200
O 	O 	0.54860 0.09240 0.86570 -0.55400
O 	O 	0.42190 0.89450 0.68330 -0.47200
