data_crystal

_cell_length_a 10.68230
_cell_length_b 10.68230
_cell_length_c 10.68230
_cell_angle_alpha 106.00400
_cell_angle_beta  106.00400
_cell_angle_gamma 106.00400

_symmetry_space_group_name_	'P 1'
_symmetry_space_group_name_H-M	'P 1'

loop_
_symmetry_equiv_pos_as_xyz
  x,y,z

loop_
_atom_site_label
_atom_site_type_symbol
_atom_site_fract_x
_atom_site_fract_y
_atom_site_fract_z
_atom_site_charge
Cd	Cd	0.25049 0.71545 0.98493 1.23000
Cd	Cd	0.98493 0.25049 0.71545 1.23000
Cd	Cd	0.71545 0.98493 0.25049 1.23000
Cd	Cd	0.74951 0.28455 0.01507 1.23000
Cd	Cd	0.01507 0.74951 0.28455 1.23000
Cd	Cd	0.28455 0.01507 0.74951 1.23000
H 	H 	0.85690 0.70150 0.62990 0.18700
H 	H 	0.94540 0.88630 0.71180 0.12700
H 	H 	0.62990 0.85690 0.70150 0.18700
H 	H 	0.71180 0.94540 0.88630 0.12700
H 	H 	0.70150 0.62990 0.85690 0.18700
H 	H 	0.88630 0.71180 0.94540 0.12700
H 	H 	0.14310 0.29850 0.37010 0.18700
H 	H 	0.05460 0.11370 0.28820 0.12700
H 	H 	0.37010 0.14310 0.29850 0.18700
H 	H 	0.28820 0.05460 0.11370 0.12700
H 	H 	0.29850 0.37010 0.14310 0.18700
H 	H 	0.11370 0.28820 0.05460 0.12700
C 	C 	0.06540 0.76440 0.78270 0.46600
C 	C 	0.95170 0.77510 0.66970 -0.48800
C 	C 	0.98290 0.77570 0.53920 0.44300
C 	C 	0.78270 0.06540 0.76440 0.46600
C 	C 	0.66970 0.95170 0.77510 -0.48800
C 	C 	0.53920 0.98290 0.77570 0.44300
C 	C 	0.76440 0.78270 0.06540 0.46600
C 	C 	0.77510 0.66970 0.95170 -0.48800
C 	C 	0.77570 0.53920 0.98290 0.44300
C 	C 	0.93460 0.23560 0.21730 0.46600
C 	C 	0.04830 0.22490 0.33030 -0.48800
C 	C 	0.01710 0.22430 0.46080 0.44300
C 	C 	0.21730 0.93460 0.23560 0.46600
C 	C 	0.33030 0.04830 0.22490 -0.48800
C 	C 	0.46080 0.01710 0.22430 0.44300
C 	C 	0.23560 0.21730 0.93460 0.46600
C 	C 	0.22490 0.33030 0.04830 -0.48800
C 	C 	0.22430 0.46080 0.01710 0.44300
O 	O 	0.18910 0.85530 0.83570 -0.52700
O 	O 	0.03320 0.66670 0.82350 -0.45700
O 	O 	0.13480 0.45160 0.90790 -0.53600
O 	O 	0.31700 0.57860 0.10570 -0.44500
O 	O 	0.83570 0.18910 0.85530 -0.52700
O 	O 	0.82350 0.03320 0.66670 -0.45700
O 	O 	0.90790 0.13480 0.45160 -0.53600
O 	O 	0.10570 0.31700 0.57860 -0.44500
O 	O 	0.85530 0.83570 0.18910 -0.52700
O 	O 	0.66670 0.82350 0.03320 -0.45700
O 	O 	0.45160 0.90790 0.13480 -0.53600
O 	O 	0.57860 0.10570 0.31700 -0.44500
O 	O 	0.81090 0.14470 0.16430 -0.52700
O 	O 	0.96680 0.33330 0.17650 -0.45700
O 	O 	0.86520 0.54840 0.09210 -0.53600
O 	O 	0.68300 0.42140 0.89430 -0.44500
O 	O 	0.16430 0.81090 0.14470 -0.52700
O 	O 	0.17650 0.96680 0.33330 -0.45700
O 	O 	0.09210 0.86520 0.54840 -0.53600
O 	O 	0.89430 0.68300 0.42140 -0.44500
O 	O 	0.14470 0.16430 0.81090 -0.52700
O 	O 	0.33330 0.17650 0.96680 -0.45700
O 	O 	0.54840 0.09210 0.86520 -0.53600
O 	O 	0.42140 0.89430 0.68300 -0.44500
