data_crystal

_cell_length_a 10.69010
_cell_length_b 10.69010
_cell_length_c 10.69010
_cell_angle_alpha 105.94200
_cell_angle_beta  105.94200
_cell_angle_gamma 105.94200

_symmetry_space_group_name_	'P 1'
_symmetry_space_group_name_H-M	'P 1'

loop_
_symmetry_equiv_pos_as_xyz
  x,y,z

loop_
_atom_site_label
_atom_site_type_symbol
_atom_site_fract_x
_atom_site_fract_y
_atom_site_fract_z
_atom_site_charge
Cd	Cd	0.75065 0.48516 0.21557 1.22900
Cd	Cd	0.21557 0.75065 0.48516 1.22900
Cd	Cd	0.48516 0.21557 0.75065 1.22900
Cd	Cd	0.24935 0.51484 0.78443 1.22900
Cd	Cd	0.78443 0.24935 0.51484 1.22900
Cd	Cd	0.51484 0.78443 0.24935 1.22900
H 	H 	0.36480 0.14460 0.19960 0.24700
H 	H 	0.44030 0.21090 0.36350 0.24100
H 	H 	0.19960 0.36480 0.14460 0.24700
H 	H 	0.36350 0.44030 0.21090 0.24100
H 	H 	0.14460 0.19960 0.36480 0.24700
H 	H 	0.21090 0.36350 0.44030 0.24100
H 	H 	0.63520 0.85540 0.80040 0.24800
H 	H 	0.55970 0.78910 0.63650 0.24200
H 	H 	0.80040 0.63520 0.85540 0.24800
H 	H 	0.63650 0.55970 0.78910 0.24200
H 	H 	0.85540 0.80040 0.63520 0.24800
H 	H 	0.78910 0.63650 0.55970 0.24200
C 	C 	0.56600 0.28240 0.26500 0.52000
C 	C 	0.48130 0.03800 0.27430 0.50500
C 	C 	0.45250 0.17090 0.27670 -0.71100
C 	C 	0.26500 0.56600 0.28240 0.52000
C 	C 	0.27430 0.48130 0.03800 0.50500
C 	C 	0.27670 0.45250 0.17090 -0.71100
C 	C 	0.28240 0.26500 0.56600 0.52000
C 	C 	0.03800 0.27430 0.48130 0.50500
C 	C 	0.17090 0.27670 0.45250 -0.71100
C 	C 	0.43400 0.71760 0.73500 0.52000
C 	C 	0.51870 0.96200 0.72570 0.50500
C 	C 	0.54750 0.82910 0.72330 -0.71100
C 	C 	0.73500 0.43400 0.71760 0.52000
C 	C 	0.72570 0.51870 0.96200 0.50500
C 	C 	0.72330 0.54750 0.82910 -0.71100
C 	C 	0.71760 0.73500 0.43400 0.52000
C 	C 	0.96200 0.72570 0.51870 0.50500
C 	C 	0.82910 0.72330 0.54750 -0.71100
O 	O 	0.68930 0.33600 0.35540 -0.54600
O 	O 	0.59260 0.04860 0.36570 -0.54500
O 	O 	0.53210 0.32280 0.16640 -0.47600
O 	O 	0.39470 0.92110 0.18350 -0.46500
O 	O 	0.35540 0.68930 0.33600 -0.54600
O 	O 	0.36570 0.59260 0.04860 -0.54500
O 	O 	0.16640 0.53210 0.32280 -0.47600
O 	O 	0.18350 0.39470 0.92110 -0.46500
O 	O 	0.33600 0.35540 0.68930 -0.54600
O 	O 	0.04860 0.36570 0.59260 -0.54500
O 	O 	0.32280 0.16640 0.53210 -0.47600
O 	O 	0.92110 0.18350 0.39470 -0.46500
O 	O 	0.31070 0.66400 0.64460 -0.54600
O 	O 	0.40740 0.95140 0.63430 -0.54500
O 	O 	0.46790 0.67720 0.83360 -0.47600
O 	O 	0.60530 0.07890 0.81650 -0.46500
O 	O 	0.64460 0.31070 0.66400 -0.54600
O 	O 	0.63430 0.40740 0.95140 -0.54500
O 	O 	0.83360 0.46790 0.67720 -0.47600
O 	O 	0.81650 0.60530 0.07890 -0.46500
O 	O 	0.66400 0.64460 0.31070 -0.54600
O 	O 	0.95140 0.63430 0.40740 -0.54500
O 	O 	0.67720 0.83360 0.46790 -0.47600
O 	O 	0.07890 0.81650 0.60530 -0.46500
