data_crystal

_cell_length_a 17.04100
_cell_length_b 17.04100
_cell_length_c 25.37100
_cell_angle_alpha 90.00000
_cell_angle_beta  90.00000
_cell_angle_gamma 90.00000

_symmetry_space_group_name_	'P 1'
_symmetry_space_group_name_H-M	'P 1'

loop_
_symmetry_equiv_pos_as_xyz
  x,y,z

loop_
_atom_site_label
_atom_site_type_symbol
_atom_site_fract_x
_atom_site_fract_y
_atom_site_fract_z
_atom_site_charge
Sm	Sm	0.27553 0.11819 0.80808 1.57400
Cu	Cu	0.12896 0.37850 0.16824 0.92400
Cu	Cu	0.11999 0.18517 0.00864 0.91500
Na	Na	0.23360 0.19430 0.11389 0.56500
N 	N 	0.38570 0.85090 0.75380 -0.06700
N 	N 	0.07930 0.27950 0.96890 -0.05800
O 	O 	0.32260 0.97630 0.80280 -0.51600
O 	O 	0.27640 0.02520 0.72890 -0.43700
O 	O 	0.29760 0.78410 0.82690 -0.49300
O 	O 	0.26110 0.68880 0.77160 -0.49800
O 	O 	0.59370 0.88020 0.76950 -0.48100
O 	O 	0.49650 0.88490 0.82740 -0.43800
O 	O 	0.10790 0.37960 0.09380 -0.44900
O 	O 	0.11520 0.25250 0.07220 -0.50200
O 	O 	0.99930 0.14500 0.99890 -0.45400
O 	O 	0.89310 0.17900 0.95360 -0.51900
O 	O 	0.19650 0.20420 0.86260 -0.53800
O 	O 	0.15920 0.15410 0.93950 -0.46900
C 	C 	0.30670 0.97130 0.75420 0.39600
C 	C 	0.32410 0.89490 0.72590 -0.32600
H 	H 	0.34110 0.90590 0.69020 0.12400
H 	H 	0.27680 0.86350 0.72410 0.10300
C 	C 	0.30500 0.74370 0.78410 0.43000
C 	C 	0.37230 0.76610 0.75040 -0.39000
H 	H 	0.36160 0.75160 0.71410 0.12600
H 	H 	0.41890 0.73820 0.76180 0.10600
C 	C 	0.52310 0.87880 0.78100 0.44200
C 	C 	0.46660 0.87540 0.73570 -0.38100
H 	H 	0.46360 0.92660 0.71920 0.14000
H 	H 	0.48570 0.83830 0.70970 0.13000
C 	C 	0.10430 0.32420 0.06080 0.41000
C 	C 	0.08390 0.34660 0.00600 -0.40700
H 	H 	0.03360 0.37340 0.00630 0.13300
H 	H 	0.12290 0.38340 0.99310 0.14000
C 	C 	0.96100 0.19120 0.97060 0.43300
C 	C 	0.99890 0.26520 0.95170 -0.35400
H 	H 	0.99830 0.26480 0.91350 0.11400
H 	H 	0.96680 0.30900 0.96310 0.11500
C 	C 	0.16400 0.20970 0.90640 0.45400
C 	C 	0.13180 0.28690 0.92210 -0.40800
H 	H 	0.10260 0.30920 0.89290 0.14000
H 	H 	0.17470 0.32230 0.93040 0.12400
Sm	Sm	0.72447 0.88181 0.80808 1.59700
Cu	Cu	0.87104 0.62150 0.16824 0.92600
Cu	Cu	0.88001 0.81483 0.00864 0.92000
Na	Na	0.76640 0.80570 0.11389 0.56700
N 	N 	0.61430 0.14910 0.75380 -0.07000
N 	N 	0.92070 0.72050 0.96890 -0.04900
O 	O 	0.67740 0.02370 0.80280 -0.51900
O 	O 	0.72360 0.97480 0.72890 -0.41200
O 	O 	0.70240 0.21590 0.82690 -0.49200
O 	O 	0.73890 0.31120 0.77160 -0.49700
O 	O 	0.40630 0.11980 0.76950 -0.48200
O 	O 	0.50350 0.11510 0.82740 -0.44100
O 	O 	0.89210 0.62040 0.09380 -0.44600
O 	O 	0.88480 0.74750 0.07220 -0.49700
O 	O 	0.00070 0.85500 0.99890 -0.46300
O 	O 	0.10690 0.82100 0.95360 -0.52100
O 	O 	0.80350 0.79580 0.86260 -0.53800
O 	O 	0.84080 0.84590 0.93950 -0.46500
C 	C 	0.69330 0.02870 0.75420 0.36700
C 	C 	0.67590 0.10510 0.72590 -0.31200
H 	H 	0.65890 0.09410 0.69020 0.11600
H 	H 	0.72320 0.13650 0.72410 0.09800
C 	C 	0.69500 0.25630 0.78410 0.43000
C 	C 	0.62770 0.23390 0.75040 -0.38900
H 	H 	0.63840 0.24840 0.71410 0.12500
H 	H 	0.58110 0.26180 0.76180 0.10600
C 	C 	0.47690 0.12120 0.78100 0.43900
C 	C 	0.53340 0.12460 0.73570 -0.37700
H 	H 	0.53640 0.07340 0.71920 0.13400
H 	H 	0.51430 0.16170 0.70970 0.12800
C 	C 	0.89570 0.67580 0.06080 0.41200
C 	C 	0.91610 0.65340 0.00600 -0.40600
H 	H 	0.96640 0.62660 0.00630 0.14100
H 	H 	0.87710 0.61660 0.99310 0.14000
C 	C 	0.03900 0.80880 0.97060 0.43700
C 	C 	0.00110 0.73480 0.95170 -0.37400
H 	H 	0.00170 0.73520 0.91350 0.11300
H 	H 	0.03320 0.69100 0.96310 0.11500
C 	C 	0.83600 0.79030 0.90640 0.45800
C 	C 	0.86820 0.71310 0.92210 -0.41000
H 	H 	0.89740 0.69080 0.89290 0.14500
H 	H 	0.82530 0.67770 0.93040 0.12400
Sm	Sm	0.11819 0.72447 0.19192 1.57600
Cu	Cu	0.37850 0.87104 0.83176 0.92600
Cu	Cu	0.18517 0.88001 0.99136 0.92700
Na	Na	0.19430 0.76640 0.88611 0.56700
N 	N 	0.85090 0.61430 0.24620 -0.06700
N 	N 	0.27950 0.92070 0.03110 -0.06000
O 	O 	0.97630 0.67740 0.19720 -0.51600
O 	O 	0.02520 0.72360 0.27110 -0.43500
O 	O 	0.78410 0.70240 0.17310 -0.49300
O 	O 	0.68880 0.73890 0.22840 -0.49700
O 	O 	0.88020 0.40630 0.23050 -0.48000
O 	O 	0.88490 0.50350 0.17260 -0.43900
O 	O 	0.37960 0.89210 0.90620 -0.44000
O 	O 	0.25250 0.88480 0.92780 -0.49200
O 	O 	0.14500 0.00070 0.00110 -0.47700
O 	O 	0.17900 0.10690 0.04640 -0.52600
O 	O 	0.20420 0.80350 0.13740 -0.53800
O 	O 	0.15410 0.84080 0.06050 -0.47300
C 	C 	0.97130 0.69330 0.24580 0.39700
C 	C 	0.89490 0.67590 0.27410 -0.32600
H 	H 	0.90590 0.65890 0.30980 0.12400
H 	H 	0.86350 0.72320 0.27590 0.10400
C 	C 	0.74370 0.69500 0.21590 0.43000
C 	C 	0.76610 0.62770 0.24960 -0.38900
H 	H 	0.75160 0.63840 0.28590 0.12600
H 	H 	0.73820 0.58110 0.23820 0.10600
C 	C 	0.87880 0.47690 0.21900 0.44200
C 	C 	0.87540 0.53340 0.26430 -0.38100
H 	H 	0.92660 0.53640 0.28080 0.14000
H 	H 	0.83830 0.51430 0.29030 0.13000
C 	C 	0.32420 0.89570 0.93920 0.40000
C 	C 	0.34660 0.91610 0.99400 -0.35800
H 	H 	0.37340 0.96640 0.99370 0.13300
H 	H 	0.38340 0.87710 0.00690 0.11600
C 	C 	0.19120 0.03900 0.02940 0.43500
C 	C 	0.26520 0.00110 0.04830 -0.37400
H 	H 	0.26480 0.00170 0.08650 0.11100
H 	H 	0.30900 0.03320 0.03690 0.11100
C 	C 	0.20970 0.83600 0.09360 0.45600
C 	C 	0.28690 0.86820 0.07790 -0.40700
H 	H 	0.30920 0.89740 0.10710 0.14400
H 	H 	0.32230 0.82530 0.06960 0.12100
Sm	Sm	0.88181 0.27553 0.19192 1.59200
Cu	Cu	0.62150 0.12896 0.83176 0.92500
Cu	Cu	0.81483 0.11999 0.99136 0.92300
Na	Na	0.80570 0.23360 0.88611 0.56700
N 	N 	0.14910 0.38570 0.24620 -0.07000
N 	N 	0.72050 0.07930 0.03110 -0.07100
O 	O 	0.02370 0.32260 0.19720 -0.51900
O 	O 	0.97480 0.27640 0.27110 -0.41200
O 	O 	0.21590 0.29760 0.17310 -0.49400
O 	O 	0.31120 0.26110 0.22840 -0.49800
O 	O 	0.11980 0.59370 0.23050 -0.48300
O 	O 	0.11510 0.49650 0.17260 -0.44200
O 	O 	0.62040 0.10790 0.90620 -0.44200
O 	O 	0.74750 0.11520 0.92780 -0.49400
O 	O 	0.85500 0.99930 0.00110 -0.46000
O 	O 	0.82100 0.89310 0.04640 -0.52000
O 	O 	0.79580 0.19650 0.13740 -0.53900
O 	O 	0.84590 0.15920 0.06050 -0.47300
C 	C 	0.02870 0.30670 0.24580 0.36400
C 	C 	0.10510 0.32410 0.27410 -0.31000
H 	H 	0.09410 0.34110 0.30980 0.11500
H 	H 	0.13650 0.27680 0.27590 0.09600
C 	C 	0.25630 0.30500 0.21590 0.43000
C 	C 	0.23390 0.37230 0.24960 -0.38900
H 	H 	0.24840 0.36160 0.28590 0.12500
H 	H 	0.26180 0.41890 0.23820 0.10600
C 	C 	0.12120 0.52310 0.21900 0.43900
C 	C 	0.12460 0.46660 0.26430 -0.37700
H 	H 	0.07340 0.46360 0.28080 0.13400
H 	H 	0.16170 0.48570 0.29030 0.12800
C 	C 	0.67580 0.10430 0.93920 0.39600
C 	C 	0.65340 0.08390 0.99400 -0.35400
H 	H 	0.62660 0.03360 0.99370 0.12400
H 	H 	0.61660 0.12290 0.00690 0.11300
C 	C 	0.80880 0.96100 0.02940 0.43100
C 	C 	0.73480 0.99890 0.04830 -0.35200
H 	H 	0.73520 0.99830 0.08650 0.11300
H 	H 	0.69100 0.96680 0.03690 0.11100
C 	C 	0.79030 0.16400 0.09360 0.45400
C 	C 	0.71310 0.13180 0.07790 -0.40600
H 	H 	0.69080 0.10260 0.10710 0.13900
H 	H 	0.67770 0.17470 0.06960 0.12100
Sm	Sm	0.22447 0.61819 0.69192 1.58100
Cu	Cu	0.37104 0.87850 0.33176 0.92600
Cu	Cu	0.38001 0.68517 0.49136 0.92200
Na	Na	0.26640 0.69430 0.38611 0.56700
N 	N 	0.11430 0.35090 0.74620 -0.06700
N 	N 	0.42070 0.77950 0.53110 -0.05900
O 	O 	0.17740 0.47630 0.69720 -0.51800
O 	O 	0.22360 0.52520 0.77110 -0.42400
O 	O 	0.20240 0.28410 0.67310 -0.49400
O 	O 	0.23890 0.18880 0.72840 -0.49800
O 	O 	0.90630 0.38020 0.73050 -0.48600
O 	O 	0.00350 0.38490 0.67260 -0.45500
O 	O 	0.39210 0.87960 0.40620 -0.44300
O 	O 	0.38480 0.75250 0.42780 -0.49600
O 	O 	0.50070 0.64500 0.50110 -0.46400
O 	O 	0.60690 0.67900 0.54640 -0.52100
O 	O 	0.30350 0.70420 0.63740 -0.53800
O 	O 	0.34080 0.65410 0.56050 -0.47000
C 	C 	0.19330 0.47130 0.74580 0.38100
C 	C 	0.17590 0.39490 0.77410 -0.31900
H 	H 	0.15890 0.40590 0.80980 0.12000
H 	H 	0.22320 0.36350 0.77590 0.10100
C 	C 	0.19500 0.24370 0.71590 0.42800
C 	C 	0.12770 0.26610 0.74960 -0.38800
H 	H 	0.13840 0.25160 0.78590 0.12400
H 	H 	0.08110 0.23820 0.73820 0.10300
C 	C 	0.97690 0.37880 0.71900 0.46700
C 	C 	0.03340 0.37540 0.76430 -0.39800
H 	H 	0.03640 0.42660 0.78080 0.14000
H 	H 	0.01430 0.33830 0.79030 0.13100
C 	C 	0.39570 0.82420 0.43920 0.40500
C 	C 	0.41610 0.84660 0.49400 -0.38300
H 	H 	0.46640 0.87340 0.49370 0.13500
H 	H 	0.37710 0.88340 0.50690 0.12900
C 	C 	0.53900 0.69120 0.52940 0.43500
C 	C 	0.50110 0.76520 0.54830 -0.36400
H 	H 	0.50170 0.76480 0.58650 0.11300
H 	H 	0.53320 0.80900 0.53690 0.11400
C 	C 	0.33600 0.70970 0.59360 0.45600
C 	C 	0.36820 0.78690 0.57790 -0.40800
H 	H 	0.39740 0.80920 0.60710 0.14200
H 	H 	0.32530 0.82230 0.56960 0.12300
Sm	Sm	0.77553 0.38181 0.69192 1.58900
Cu	Cu	0.62896 0.12150 0.33176 0.92500
Cu	Cu	0.61999 0.31483 0.49136 0.92200
Na	Na	0.73360 0.30570 0.38611 0.56700
N 	N 	0.88570 0.64910 0.74620 -0.07000
N 	N 	0.57930 0.22050 0.53110 -0.06000
O 	O 	0.82260 0.52370 0.69720 -0.51700
O 	O 	0.77640 0.47480 0.77110 -0.42300
O 	O 	0.79760 0.71590 0.67310 -0.49200
O 	O 	0.76110 0.81120 0.72840 -0.49800
O 	O 	0.09370 0.61980 0.73050 -0.47700
O 	O 	0.99650 0.61510 0.67260 -0.42600
O 	O 	0.60790 0.12040 0.40620 -0.44500
O 	O 	0.61520 0.24750 0.42780 -0.49600
O 	O 	0.49930 0.35500 0.50110 -0.46400
O 	O 	0.39310 0.32100 0.54640 -0.52200
O 	O 	0.69650 0.29580 0.63740 -0.53900
O 	O 	0.65920 0.34590 0.56050 -0.47000
C 	C 	0.80670 0.52870 0.74580 0.38100
C 	C 	0.82410 0.60510 0.77410 -0.31800
H 	H 	0.84110 0.59410 0.80980 0.12100
H 	H 	0.77680 0.63650 0.77590 0.10000
C 	C 	0.80500 0.75630 0.71590 0.43100
C 	C 	0.87230 0.73390 0.74960 -0.39000
H 	H 	0.86160 0.74840 0.78590 0.12700
H 	H 	0.91890 0.76180 0.73820 0.10900
C 	C 	0.02310 0.62120 0.71900 0.41600
C 	C 	0.96660 0.62460 0.76430 -0.36100
H 	H 	0.96360 0.57340 0.78080 0.13400
H 	H 	0.98570 0.66170 0.79030 0.12700
C 	C 	0.60430 0.17580 0.43920 0.40400
C 	C 	0.58390 0.15340 0.49400 -0.38000
H 	H 	0.53360 0.12660 0.49370 0.13100
H 	H 	0.62290 0.11660 0.50690 0.12500
C 	C 	0.46100 0.30880 0.52940 0.43400
C 	C 	0.49890 0.23480 0.54830 -0.36200
H 	H 	0.49830 0.23520 0.58650 0.11200
H 	H 	0.46680 0.19100 0.53690 0.11200
C 	C 	0.66400 0.29030 0.59360 0.45600
C 	C 	0.63180 0.21310 0.57790 -0.40700
H 	H 	0.60260 0.19080 0.60710 0.14100
H 	H 	0.67470 0.17770 0.56960 0.12200
Sm	Sm	0.38181 0.22447 0.30808 1.57900
Cu	Cu	0.12150 0.37104 0.66824 0.92500
Cu	Cu	0.31483 0.38001 0.50864 0.92100
Na	Na	0.30570 0.26640 0.61389 0.56700
N 	N 	0.64910 0.11430 0.25380 -0.06700
N 	N 	0.22050 0.42070 0.46890 -0.06000
O 	O 	0.52370 0.17740 0.30280 -0.51800
O 	O 	0.47480 0.22360 0.22890 -0.42500
O 	O 	0.71590 0.20240 0.32690 -0.49300
O 	O 	0.81120 0.23890 0.27160 -0.49800
O 	O 	0.61980 0.90630 0.26950 -0.48600
O 	O 	0.61510 0.00350 0.32740 -0.45500
O 	O 	0.12040 0.39210 0.59380 -0.44600
O 	O 	0.24750 0.38480 0.57220 -0.49600
O 	O 	0.35500 0.50070 0.49890 -0.46400
O 	O 	0.32100 0.60690 0.45360 -0.52200
O 	O 	0.29580 0.30350 0.36260 -0.53900
O 	O 	0.34590 0.34080 0.43950 -0.47000
C 	C 	0.52870 0.19330 0.25420 0.38100
C 	C 	0.60510 0.17590 0.22590 -0.31900
H 	H 	0.59410 0.15890 0.19020 0.11900
H 	H 	0.63650 0.22320 0.22410 0.10000
C 	C 	0.75630 0.19500 0.28410 0.43000
C 	C 	0.73390 0.12770 0.25040 -0.38900
H 	H 	0.74840 0.13840 0.21410 0.12500
H 	H 	0.76180 0.08110 0.26180 0.10400
C 	C 	0.62120 0.97690 0.28100 0.46700
C 	C 	0.62460 0.03340 0.23570 -0.39800
H 	H 	0.57340 0.03640 0.21920 0.13900
H 	H 	0.66170 0.01430 0.20970 0.13100
C 	C 	0.17580 0.39570 0.56080 0.40300
C 	C 	0.15340 0.41610 0.50600 -0.37900
H 	H 	0.12660 0.46640 0.50630 0.13100
H 	H 	0.11660 0.37710 0.49310 0.12400
C 	C 	0.30880 0.53900 0.47060 0.43400
C 	C 	0.23480 0.50110 0.45170 -0.36200
H 	H 	0.23520 0.50170 0.41350 0.11200
H 	H 	0.19100 0.53320 0.46310 0.11200
C 	C 	0.29030 0.33600 0.40640 0.45400
C 	C 	0.21310 0.36820 0.42210 -0.40600
H 	H 	0.19080 0.39740 0.39290 0.14100
H 	H 	0.17770 0.32530 0.43040 0.12000
Sm	Sm	0.61819 0.77553 0.30808 1.59000
Cu	Cu	0.87850 0.62896 0.66824 0.92600
Cu	Cu	0.68517 0.61999 0.50864 0.92200
Na	Na	0.69430 0.73360 0.61389 0.56700
N 	N 	0.35090 0.88570 0.25380 -0.07000
N 	N 	0.77950 0.57930 0.46890 -0.05900
O 	O 	0.47630 0.82260 0.30280 -0.51700
O 	O 	0.52520 0.77640 0.22890 -0.42400
O 	O 	0.28410 0.79760 0.32690 -0.49300
O 	O 	0.18880 0.76110 0.27160 -0.49700
O 	O 	0.38020 0.09370 0.26950 -0.47700
O 	O 	0.38490 0.99650 0.32740 -0.42500
O 	O 	0.87960 0.60790 0.59380 -0.44300
O 	O 	0.75250 0.61520 0.57220 -0.49600
O 	O 	0.64500 0.49930 0.49890 -0.46400
O 	O 	0.67900 0.39310 0.45360 -0.52200
O 	O 	0.70420 0.69650 0.36260 -0.53800
O 	O 	0.65410 0.65920 0.43950 -0.47000
C 	C 	0.47130 0.80670 0.25420 0.38100
C 	C 	0.39490 0.82410 0.22590 -0.31800
H 	H 	0.40590 0.84110 0.19020 0.12000
H 	H 	0.36350 0.77680 0.22410 0.10000
C 	C 	0.24370 0.80500 0.28410 0.43000
C 	C 	0.26610 0.87230 0.25040 -0.38900
H 	H 	0.25160 0.86160 0.21410 0.12600
H 	H 	0.23820 0.91890 0.26180 0.10700
C 	C 	0.37880 0.02310 0.28100 0.41300
C 	C 	0.37540 0.96660 0.23570 -0.35900
H 	H 	0.42660 0.96360 0.21920 0.13400
H 	H 	0.33830 0.98570 0.20970 0.12600
C 	C 	0.82420 0.60430 0.56080 0.40600
C 	C 	0.84660 0.58390 0.50600 -0.38300
H 	H 	0.87340 0.53360 0.50630 0.13500
H 	H 	0.88340 0.62290 0.49310 0.12900
C 	C 	0.69120 0.46100 0.47060 0.43500
C 	C 	0.76520 0.49890 0.45170 -0.36400
H 	H 	0.76480 0.49830 0.41350 0.11300
H 	H 	0.80900 0.46680 0.46310 0.11400
C 	C 	0.70970 0.66400 0.40640 0.45700
C 	C 	0.78690 0.63180 0.42210 -0.40900
H 	H 	0.80920 0.60260 0.39290 0.14300
H 	H 	0.82230 0.67470 0.43040 0.12400
Na	Na	-0.00000 0.00000 -0.00000 0.57100
Na	Na	0.50000 0.50000 0.50000 0.57600
