data_crystal

_cell_length_a 26.30600
_cell_length_b 19.93900
_cell_length_c 26.33600
_cell_angle_alpha 90.00000
_cell_angle_beta  100.09500
_cell_angle_gamma 90.00000

_symmetry_space_group_name_	'P 1'
_symmetry_space_group_name_H-M	'P 1'

loop_
_symmetry_equiv_pos_as_xyz
  x,y,z

loop_
_atom_site_label
_atom_site_type_symbol
_atom_site_fract_x
_atom_site_fract_y
_atom_site_fract_z
_atom_site_charge
Zn	Zn	0.09562 0.43164 0.84270 1.19200
Zn	Zn	0.10569 0.18270 0.64130 1.20300
O 	O 	0.35490 0.39840 0.86430 -0.41100
O 	O 	0.29550 0.31470 0.85880 -0.35900
O 	O 	0.00630 0.73570 0.88620 -0.33700
O 	O 	0.96630 0.64260 0.86280 -0.44400
O 	O 	0.10700 0.48920 0.73890 -0.32700
O 	O 	0.09740 0.39000 0.77300 -0.47000
O 	O 	0.10500 0.15600 0.39000 -0.41200
O 	O 	0.09730 0.07070 0.44230 -0.35400
N 	N 	0.17750 0.45300 0.85620 -0.21300
C 	C 	0.21880 0.40920 0.85730 0.04000
H 	H 	0.21280 0.36240 0.85290 0.03400
C 	C 	0.26900 0.43390 0.86460 -0.06200
C 	C 	0.27790 0.50240 0.87090 0.01700
H 	H 	0.31220 0.51920 0.87590 0.04300
C 	C 	0.23660 0.54610 0.86990 -0.07900
H 	H 	0.24270 0.59290 0.87420 0.05900
C 	C 	0.18640 0.52150 0.86250 0.03600
N 	N 	0.09750 0.53350 0.85560 -0.25100
C 	C 	0.14480 0.56590 0.86900 0.06400
C 	C 	0.14640 0.63310 0.88320 -0.10200
H 	H 	0.17870 0.65520 0.89230 0.06600
C 	C 	0.10080 0.66800 0.88400 0.03600
H 	H 	0.10190 0.71390 0.89370 0.03300
C 	C 	0.05350 0.63560 0.87060 -0.10700
C 	C 	0.05190 0.56840 0.85640 0.06600
H 	H 	0.01960 0.54620 0.84730 -0.00700
N 	N 	0.10990 0.28300 0.64380 -0.25600
C 	C 	0.10590 0.31750 0.68880 0.05900
H 	H 	0.10150 0.29350 0.71890 -0.00100
C 	C 	0.10830 0.38720 0.68980 -0.09300
C 	C 	0.11470 0.42230 0.64580 0.03100
H 	H 	0.11630 0.46990 0.64640 0.03700
C 	C 	0.11870 0.38780 0.60080 -0.09700
H 	H 	0.12300 0.41190 0.57070 0.06500
C 	C 	0.11630 0.31820 0.59980 0.06000
N 	N 	0.10510 0.20440 0.56350 -0.22500
C 	C 	0.10910 0.27260 0.55380 0.04800
C 	C 	0.11020 0.29480 0.50400 -0.09400
H 	H 	0.11290 0.34140 0.49730 0.06400
C 	C 	0.10730 0.24890 0.46390 0.03900
H 	H 	0.10800 0.26400 0.42980 0.03700
C 	C 	0.10330 0.18070 0.47360 -0.10100
C 	C 	0.10220 0.15850 0.52340 0.06600
H 	H 	0.09950 0.11190 0.53010 0.02700
C 	C 	0.30360 0.36800 0.85950 0.29400
C 	C 	0.00650 0.68070 0.87790 0.38800
C 	C 	0.10110 0.43050 0.73870 0.37700
C 	C 	0.10350 0.12750 0.43340 0.33500
Zn	Zn	0.59562 0.93164 0.34270 1.19100
Zn	Zn	0.60569 0.68270 0.14130 1.20200
O 	O 	0.85490 0.89840 0.36430 -0.41200
O 	O 	0.79550 0.81470 0.35880 -0.36000
O 	O 	0.50630 0.23570 0.38620 -0.33800
O 	O 	0.46630 0.14260 0.36280 -0.44500
O 	O 	0.60700 0.98920 0.23890 -0.32800
O 	O 	0.59740 0.89000 0.27300 -0.47100
O 	O 	0.60500 0.65600 0.89000 -0.41300
O 	O 	0.59730 0.57070 0.94230 -0.35500
N 	N 	0.67750 0.95300 0.35620 -0.21400
C 	C 	0.71880 0.90920 0.35730 0.03900
H 	H 	0.71280 0.86240 0.35290 0.03300
C 	C 	0.76900 0.93390 0.36460 -0.06300
C 	C 	0.77790 0.00240 0.37090 0.01600
H 	H 	0.81220 0.01920 0.37590 0.04200
C 	C 	0.73660 0.04610 0.36990 -0.07900
H 	H 	0.74270 0.09290 0.37420 0.05900
C 	C 	0.68640 0.02150 0.36250 0.03600
N 	N 	0.59750 0.03350 0.35560 -0.25100
C 	C 	0.64480 0.06590 0.36900 0.06400
C 	C 	0.64640 0.13310 0.38320 -0.10200
H 	H 	0.67870 0.15520 0.39230 0.06600
C 	C 	0.60080 0.16800 0.38400 0.03600
H 	H 	0.60190 0.21390 0.39370 0.03300
C 	C 	0.55350 0.13560 0.37060 -0.10700
C 	C 	0.55190 0.06840 0.35640 0.06600
H 	H 	0.51960 0.04620 0.34730 -0.00700
N 	N 	0.60990 0.78300 0.14380 -0.25600
C 	C 	0.60590 0.81750 0.18880 0.05900
H 	H 	0.60150 0.79350 0.21890 -0.00100
C 	C 	0.60830 0.88720 0.18980 -0.09300
C 	C 	0.61470 0.92230 0.14580 0.03100
H 	H 	0.61630 0.96990 0.14640 0.03700
C 	C 	0.61870 0.88780 0.10080 -0.09700
H 	H 	0.62300 0.91190 0.07070 0.06500
C 	C 	0.61630 0.81820 0.09980 0.06000
N 	N 	0.60510 0.70440 0.06350 -0.22500
C 	C 	0.60910 0.77260 0.05380 0.04800
C 	C 	0.61020 0.79480 0.00400 -0.09400
H 	H 	0.61290 0.84140 0.99730 0.06400
C 	C 	0.60730 0.74890 0.96390 0.03900
H 	H 	0.60800 0.76400 0.92980 0.03700
C 	C 	0.60330 0.68070 0.97360 -0.10100
C 	C 	0.60220 0.65850 0.02340 0.06600
H 	H 	0.59950 0.61190 0.03010 0.02700
C 	C 	0.80360 0.86800 0.35950 0.29400
C 	C 	0.50650 0.18070 0.37790 0.38800
C 	C 	0.60110 0.93050 0.23870 0.37700
C 	C 	0.60350 0.62750 0.93340 0.33500
Zn	Zn	0.40438 0.43164 0.15730 1.19100
Zn	Zn	0.39431 0.18270 0.35870 1.20200
O 	O 	0.14510 0.39840 0.13570 -0.41200
O 	O 	0.20450 0.31470 0.14120 -0.36000
O 	O 	0.49370 0.73570 0.11380 -0.33800
O 	O 	0.53370 0.64260 0.13720 -0.44500
O 	O 	0.39300 0.48920 0.26110 -0.32800
O 	O 	0.40260 0.39000 0.22700 -0.47100
O 	O 	0.39500 0.15600 0.61000 -0.41300
O 	O 	0.40270 0.07070 0.55770 -0.35500
N 	N 	0.32250 0.45300 0.14380 -0.21400
C 	C 	0.28120 0.40920 0.14270 0.03900
H 	H 	0.28720 0.36240 0.14710 0.03300
C 	C 	0.23100 0.43390 0.13540 -0.06300
C 	C 	0.22210 0.50240 0.12910 0.01600
H 	H 	0.18780 0.51920 0.12410 0.04200
C 	C 	0.26340 0.54610 0.13010 -0.07900
H 	H 	0.25730 0.59290 0.12580 0.05900
C 	C 	0.31360 0.52150 0.13750 0.03600
N 	N 	0.40250 0.53350 0.14440 -0.25100
C 	C 	0.35520 0.56590 0.13100 0.06400
C 	C 	0.35360 0.63310 0.11680 -0.10200
H 	H 	0.32130 0.65520 0.10770 0.06600
C 	C 	0.39920 0.66800 0.11600 0.03600
H 	H 	0.39810 0.71390 0.10630 0.03300
C 	C 	0.44650 0.63560 0.12940 -0.10700
C 	C 	0.44810 0.56840 0.14360 0.06600
H 	H 	0.48040 0.54620 0.15270 -0.00700
N 	N 	0.39010 0.28300 0.35620 -0.25600
C 	C 	0.39410 0.31750 0.31120 0.05900
H 	H 	0.39850 0.29350 0.28110 -0.00100
C 	C 	0.39170 0.38720 0.31020 -0.09300
C 	C 	0.38530 0.42230 0.35420 0.03100
H 	H 	0.38370 0.46990 0.35360 0.03700
C 	C 	0.38130 0.38780 0.39920 -0.09700
H 	H 	0.37700 0.41190 0.42930 0.06500
C 	C 	0.38370 0.31820 0.40020 0.06000
N 	N 	0.39490 0.20440 0.43650 -0.22500
C 	C 	0.39090 0.27260 0.44620 0.04800
C 	C 	0.38980 0.29480 0.49600 -0.09400
H 	H 	0.38710 0.34140 0.50270 0.06400
C 	C 	0.39270 0.24890 0.53610 0.03900
H 	H 	0.39200 0.26400 0.57020 0.03700
C 	C 	0.39670 0.18070 0.52640 -0.10100
C 	C 	0.39780 0.15850 0.47660 0.06600
H 	H 	0.40050 0.11190 0.46990 0.02700
C 	C 	0.19640 0.36800 0.14050 0.29400
C 	C 	0.49350 0.68070 0.12210 0.38800
C 	C 	0.39890 0.43050 0.26130 0.37700
C 	C 	0.39650 0.12750 0.56660 0.33500
Zn	Zn	0.90438 0.93164 0.65730 1.19100
Zn	Zn	0.89431 0.68270 0.85870 1.20200
O 	O 	0.64510 0.89840 0.63570 -0.41200
O 	O 	0.70450 0.81470 0.64120 -0.36000
O 	O 	0.99370 0.23570 0.61380 -0.33800
O 	O 	0.03370 0.14260 0.63720 -0.44500
O 	O 	0.89300 0.98920 0.76110 -0.32800
O 	O 	0.90260 0.89000 0.72700 -0.47100
O 	O 	0.89500 0.65600 0.11000 -0.41300
O 	O 	0.90270 0.57070 0.05770 -0.35500
N 	N 	0.82250 0.95300 0.64380 -0.21400
C 	C 	0.78120 0.90920 0.64270 0.03900
H 	H 	0.78720 0.86240 0.64710 0.03300
C 	C 	0.73100 0.93390 0.63540 -0.06300
C 	C 	0.72210 0.00240 0.62910 0.01600
H 	H 	0.68780 0.01920 0.62410 0.04200
C 	C 	0.76340 0.04610 0.63010 -0.07900
H 	H 	0.75730 0.09290 0.62580 0.05900
C 	C 	0.81360 0.02150 0.63750 0.03600
N 	N 	0.90250 0.03350 0.64440 -0.25100
C 	C 	0.85520 0.06590 0.63100 0.06400
C 	C 	0.85360 0.13310 0.61680 -0.10200
H 	H 	0.82130 0.15520 0.60770 0.06600
C 	C 	0.89920 0.16800 0.61600 0.03600
H 	H 	0.89810 0.21390 0.60630 0.03300
C 	C 	0.94650 0.13560 0.62940 -0.10700
C 	C 	0.94810 0.06840 0.64360 0.06600
H 	H 	0.98040 0.04620 0.65270 -0.00700
N 	N 	0.89010 0.78300 0.85620 -0.25600
C 	C 	0.89410 0.81750 0.81120 0.05900
H 	H 	0.89850 0.79350 0.78110 -0.00100
C 	C 	0.89170 0.88720 0.81020 -0.09300
C 	C 	0.88530 0.92230 0.85420 0.03100
H 	H 	0.88370 0.96990 0.85360 0.03700
C 	C 	0.88130 0.88780 0.89920 -0.09700
H 	H 	0.87700 0.91190 0.92930 0.06500
C 	C 	0.88370 0.81820 0.90020 0.06000
N 	N 	0.89490 0.70440 0.93650 -0.22500
C 	C 	0.89090 0.77260 0.94620 0.04800
C 	C 	0.88980 0.79480 0.99600 -0.09400
H 	H 	0.88710 0.84140 0.00270 0.06400
C 	C 	0.89270 0.74890 0.03610 0.03900
H 	H 	0.89200 0.76400 0.07020 0.03700
C 	C 	0.89670 0.68070 0.02640 -0.10100
C 	C 	0.89780 0.65850 0.97660 0.06600
H 	H 	0.90050 0.61190 0.96990 0.02700
C 	C 	0.69640 0.86800 0.64050 0.29400
C 	C 	0.99350 0.18070 0.62210 0.38800
C 	C 	0.89890 0.93050 0.76130 0.37700
C 	C 	0.89650 0.62750 0.06660 0.33500
Zn	Zn	0.90438 0.56836 0.15730 1.19100
Zn	Zn	0.89431 0.81730 0.35870 1.20200
O 	O 	0.64510 0.60160 0.13570 -0.41200
O 	O 	0.70450 0.68530 0.14120 -0.36000
O 	O 	0.99370 0.26430 0.11380 -0.33800
O 	O 	0.03370 0.35740 0.13720 -0.44500
O 	O 	0.89300 0.51080 0.26110 -0.32800
O 	O 	0.90260 0.61000 0.22700 -0.47100
O 	O 	0.89500 0.84400 0.61000 -0.41300
O 	O 	0.90270 0.92930 0.55770 -0.35500
N 	N 	0.82250 0.54700 0.14380 -0.21400
C 	C 	0.78120 0.59080 0.14270 0.03900
H 	H 	0.78720 0.63760 0.14710 0.03300
C 	C 	0.73100 0.56610 0.13540 -0.06300
C 	C 	0.72210 0.49760 0.12910 0.01600
H 	H 	0.68780 0.48080 0.12410 0.04200
C 	C 	0.76340 0.45390 0.13010 -0.07900
H 	H 	0.75730 0.40710 0.12580 0.05900
C 	C 	0.81360 0.47850 0.13750 0.03600
N 	N 	0.90250 0.46650 0.14440 -0.25100
C 	C 	0.85520 0.43410 0.13100 0.06400
C 	C 	0.85360 0.36690 0.11680 -0.10200
H 	H 	0.82130 0.34480 0.10770 0.06600
C 	C 	0.89920 0.33200 0.11600 0.03600
H 	H 	0.89810 0.28610 0.10630 0.03300
C 	C 	0.94650 0.36440 0.12940 -0.10700
C 	C 	0.94810 0.43160 0.14360 0.06600
H 	H 	0.98040 0.45380 0.15270 -0.00700
N 	N 	0.89010 0.71700 0.35620 -0.25600
C 	C 	0.89410 0.68250 0.31120 0.05900
H 	H 	0.89850 0.70650 0.28110 -0.00100
C 	C 	0.89170 0.61280 0.31020 -0.09300
C 	C 	0.88530 0.57770 0.35420 0.03100
H 	H 	0.88370 0.53010 0.35360 0.03700
C 	C 	0.88130 0.61220 0.39920 -0.09700
H 	H 	0.87700 0.58810 0.42930 0.06500
C 	C 	0.88370 0.68180 0.40020 0.06000
N 	N 	0.89490 0.79560 0.43650 -0.22500
C 	C 	0.89090 0.72740 0.44620 0.04800
C 	C 	0.88980 0.70520 0.49600 -0.09400
H 	H 	0.88710 0.65860 0.50270 0.06400
C 	C 	0.89270 0.75110 0.53610 0.03900
H 	H 	0.89200 0.73600 0.57020 0.03700
C 	C 	0.89670 0.81930 0.52640 -0.10100
C 	C 	0.89780 0.84150 0.47660 0.06600
H 	H 	0.90050 0.88810 0.46990 0.02700
C 	C 	0.69640 0.63200 0.14050 0.29400
C 	C 	0.99350 0.31930 0.12210 0.38800
C 	C 	0.89890 0.56950 0.26130 0.37700
C 	C 	0.89650 0.87250 0.56660 0.33500
Zn	Zn	0.40438 0.06836 0.65730 1.19100
Zn	Zn	0.39431 0.31730 0.85870 1.20200
O 	O 	0.14510 0.10160 0.63570 -0.41200
O 	O 	0.20450 0.18530 0.64120 -0.36000
O 	O 	0.49370 0.76430 0.61380 -0.33800
O 	O 	0.53370 0.85740 0.63720 -0.44500
O 	O 	0.39300 0.01080 0.76110 -0.32800
O 	O 	0.40260 0.11000 0.72700 -0.47100
O 	O 	0.39500 0.34400 0.11000 -0.41300
O 	O 	0.40270 0.42930 0.05770 -0.35500
N 	N 	0.32250 0.04700 0.64380 -0.21400
C 	C 	0.28120 0.09080 0.64270 0.03900
H 	H 	0.28720 0.13760 0.64710 0.03300
C 	C 	0.23100 0.06610 0.63540 -0.06300
C 	C 	0.22210 0.99760 0.62910 0.01600
H 	H 	0.18780 0.98080 0.62410 0.04200
C 	C 	0.26340 0.95390 0.63010 -0.07900
H 	H 	0.25730 0.90710 0.62580 0.05900
C 	C 	0.31360 0.97850 0.63750 0.03600
N 	N 	0.40250 0.96650 0.64440 -0.25100
C 	C 	0.35520 0.93410 0.63100 0.06400
C 	C 	0.35360 0.86690 0.61680 -0.10200
H 	H 	0.32130 0.84480 0.60770 0.06600
C 	C 	0.39920 0.83200 0.61600 0.03600
H 	H 	0.39810 0.78610 0.60630 0.03300
C 	C 	0.44650 0.86440 0.62940 -0.10700
C 	C 	0.44810 0.93160 0.64360 0.06600
H 	H 	0.48040 0.95380 0.65270 -0.00700
N 	N 	0.39010 0.21700 0.85620 -0.25600
C 	C 	0.39410 0.18250 0.81120 0.05900
H 	H 	0.39850 0.20650 0.78110 -0.00100
C 	C 	0.39170 0.11280 0.81020 -0.09300
C 	C 	0.38530 0.07770 0.85420 0.03100
H 	H 	0.38370 0.03010 0.85360 0.03700
C 	C 	0.38130 0.11220 0.89920 -0.09700
H 	H 	0.37700 0.08810 0.92930 0.06500
C 	C 	0.38370 0.18180 0.90020 0.06000
N 	N 	0.39490 0.29560 0.93650 -0.22500
C 	C 	0.39090 0.22740 0.94620 0.04800
C 	C 	0.38980 0.20520 0.99600 -0.09400
H 	H 	0.38710 0.15860 0.00270 0.06400
C 	C 	0.39270 0.25110 0.03610 0.03900
H 	H 	0.39200 0.23600 0.07020 0.03700
C 	C 	0.39670 0.31930 0.02640 -0.10100
C 	C 	0.39780 0.34150 0.97660 0.06600
H 	H 	0.40050 0.38810 0.96990 0.02700
C 	C 	0.19640 0.13200 0.64050 0.29400
C 	C 	0.49350 0.81930 0.62210 0.38800
C 	C 	0.39890 0.06950 0.76130 0.37700
C 	C 	0.39650 0.37250 0.06660 0.33500
Zn	Zn	0.59562 0.56836 0.84270 1.19100
Zn	Zn	0.60569 0.81730 0.64130 1.20200
O 	O 	0.85490 0.60160 0.86430 -0.41200
O 	O 	0.79550 0.68530 0.85880 -0.36000
O 	O 	0.50630 0.26430 0.88620 -0.33800
O 	O 	0.46630 0.35740 0.86280 -0.44500
O 	O 	0.60700 0.51080 0.73890 -0.32800
O 	O 	0.59740 0.61000 0.77300 -0.47100
O 	O 	0.60500 0.84400 0.39000 -0.41300
O 	O 	0.59730 0.92930 0.44230 -0.35500
N 	N 	0.67750 0.54700 0.85620 -0.21400
C 	C 	0.71880 0.59080 0.85730 0.03900
H 	H 	0.71280 0.63760 0.85290 0.03300
C 	C 	0.76900 0.56610 0.86460 -0.06300
C 	C 	0.77790 0.49760 0.87090 0.01600
H 	H 	0.81220 0.48080 0.87590 0.04200
C 	C 	0.73660 0.45390 0.86990 -0.07900
H 	H 	0.74270 0.40710 0.87420 0.05900
C 	C 	0.68640 0.47850 0.86250 0.03600
N 	N 	0.59750 0.46650 0.85560 -0.25100
C 	C 	0.64480 0.43410 0.86900 0.06400
C 	C 	0.64640 0.36690 0.88320 -0.10200
H 	H 	0.67870 0.34480 0.89230 0.06600
C 	C 	0.60080 0.33200 0.88400 0.03600
H 	H 	0.60190 0.28610 0.89370 0.03300
C 	C 	0.55350 0.36440 0.87060 -0.10700
C 	C 	0.55190 0.43160 0.85640 0.06600
H 	H 	0.51960 0.45380 0.84730 -0.00700
N 	N 	0.60990 0.71700 0.64380 -0.25600
C 	C 	0.60590 0.68250 0.68880 0.05900
H 	H 	0.60150 0.70650 0.71890 -0.00100
C 	C 	0.60830 0.61280 0.68980 -0.09300
C 	C 	0.61470 0.57770 0.64580 0.03100
H 	H 	0.61630 0.53010 0.64640 0.03700
C 	C 	0.61870 0.61220 0.60080 -0.09700
H 	H 	0.62300 0.58810 0.57070 0.06500
C 	C 	0.61630 0.68180 0.59980 0.06000
N 	N 	0.60510 0.79560 0.56350 -0.22500
C 	C 	0.60910 0.72740 0.55380 0.04800
C 	C 	0.61020 0.70520 0.50400 -0.09400
H 	H 	0.61290 0.65860 0.49730 0.06400
C 	C 	0.60730 0.75110 0.46390 0.03900
H 	H 	0.60800 0.73600 0.42980 0.03700
C 	C 	0.60330 0.81930 0.47360 -0.10100
C 	C 	0.60220 0.84150 0.52340 0.06600
H 	H 	0.59950 0.88810 0.53010 0.02700
C 	C 	0.80360 0.63200 0.85950 0.29400
C 	C 	0.50650 0.31930 0.87790 0.38800
C 	C 	0.60110 0.56950 0.73870 0.37700
C 	C 	0.60350 0.87250 0.43340 0.33500
Zn	Zn	0.09562 0.06836 0.34270 1.19100
Zn	Zn	0.10569 0.31730 0.14130 1.20200
O 	O 	0.35490 0.10160 0.36430 -0.41200
O 	O 	0.29550 0.18530 0.35880 -0.36000
O 	O 	0.00630 0.76430 0.38620 -0.33800
O 	O 	0.96630 0.85740 0.36280 -0.44500
O 	O 	0.10700 0.01080 0.23890 -0.32800
O 	O 	0.09740 0.11000 0.27300 -0.47100
O 	O 	0.10500 0.34400 0.89000 -0.41300
O 	O 	0.09730 0.42930 0.94230 -0.35500
N 	N 	0.17750 0.04700 0.35620 -0.21400
C 	C 	0.21880 0.09080 0.35730 0.03900
H 	H 	0.21280 0.13760 0.35290 0.03300
C 	C 	0.26900 0.06610 0.36460 -0.06300
C 	C 	0.27790 0.99760 0.37090 0.01600
H 	H 	0.31220 0.98080 0.37590 0.04200
C 	C 	0.23660 0.95390 0.36990 -0.07900
H 	H 	0.24270 0.90710 0.37420 0.05900
C 	C 	0.18640 0.97850 0.36250 0.03600
N 	N 	0.09750 0.96650 0.35560 -0.25100
C 	C 	0.14480 0.93410 0.36900 0.06400
C 	C 	0.14640 0.86690 0.38320 -0.10200
H 	H 	0.17870 0.84480 0.39230 0.06600
C 	C 	0.10080 0.83200 0.38400 0.03600
H 	H 	0.10190 0.78610 0.39370 0.03300
C 	C 	0.05350 0.86440 0.37060 -0.10700
C 	C 	0.05190 0.93160 0.35640 0.06600
H 	H 	0.01960 0.95380 0.34730 -0.00700
N 	N 	0.10990 0.21700 0.14380 -0.25600
C 	C 	0.10590 0.18250 0.18880 0.05900
H 	H 	0.10150 0.20650 0.21890 -0.00100
C 	C 	0.10830 0.11280 0.18980 -0.09300
C 	C 	0.11470 0.07770 0.14580 0.03100
H 	H 	0.11630 0.03010 0.14640 0.03700
C 	C 	0.11870 0.11220 0.10080 -0.09700
H 	H 	0.12300 0.08810 0.07070 0.06500
C 	C 	0.11630 0.18180 0.09980 0.06000
N 	N 	0.10510 0.29560 0.06350 -0.22500
C 	C 	0.10910 0.22740 0.05380 0.04800
C 	C 	0.11020 0.20520 0.00400 -0.09400
H 	H 	0.11290 0.15860 0.99730 0.06400
C 	C 	0.10730 0.25110 0.96390 0.03900
H 	H 	0.10800 0.23600 0.92980 0.03700
C 	C 	0.10330 0.31930 0.97360 -0.10100
C 	C 	0.10220 0.34150 0.02340 0.06600
H 	H 	0.09950 0.38810 0.03010 0.02700
C 	C 	0.30360 0.13200 0.35950 0.29400
C 	C 	0.00650 0.81930 0.37790 0.38800
C 	C 	0.10110 0.06950 0.23870 0.37700
C 	C 	0.10350 0.37250 0.93340 0.33500
