data_crystal

_cell_length_a 9.86900
_cell_length_b 11.08200
_cell_length_c 19.78500
_cell_angle_alpha 90.00000
_cell_angle_beta  90.00000
_cell_angle_gamma 111.05900

_symmetry_space_group_name_	'P 1'
_symmetry_space_group_name_H-M	'P 1'

loop_
_symmetry_equiv_pos_as_xyz
  x,y,z

loop_
_atom_site_label
_atom_site_type_symbol
_atom_site_fract_x
_atom_site_fract_y
_atom_site_fract_z
_atom_site_charge
Zn	Zn	0.33681 0.36681 0.18471 1.18700
Zn	Zn	0.16319 0.13319 0.68471 1.18600
Zn	Zn	0.66319 0.63319 0.81529 1.18800
Zn	Zn	0.83681 0.86681 0.31529 1.18700
H 	H 	0.19230 0.53580 0.35410 0.06000
H 	H 	0.86460 0.17940 0.46340 0.06900
H 	H 	0.16620 0.67910 0.44520 0.06600
H 	H 	0.06380 0.12720 0.18250 0.00300
H 	H 	0.92130 0.97920 0.10740 0.07900
H 	H 	0.21500 0.14010 0.96450 0.08400
H 	H 	0.35490 0.27790 0.04480 -0.01400
H 	H 	0.30770 0.96420 0.85410 0.06400
H 	H 	0.63540 0.32060 0.96340 0.06800
H 	H 	0.33380 0.82090 0.94520 0.06500
H 	H 	0.43620 0.37280 0.68250 0.00300
H 	H 	0.57870 0.52080 0.60740 0.08200
H 	H 	0.28500 0.35990 0.46450 0.08600
H 	H 	0.14510 0.22210 0.54480 -0.01600
H 	H 	0.80770 0.46420 0.64590 0.06000
H 	H 	0.13540 0.82060 0.53660 0.06900
H 	H 	0.83380 0.32090 0.55480 0.06600
H 	H 	0.93620 0.87280 0.81750 0.00300
H 	H 	0.07870 0.02080 0.89260 0.07900
H 	H 	0.78500 0.85990 0.03550 0.08400
H 	H 	0.64510 0.72210 0.95520 -0.01400
H 	H 	0.69230 0.03580 0.14590 0.06400
H 	H 	0.36460 0.67940 0.03660 0.06800
H 	H 	0.66620 0.17910 0.05480 0.06500
H 	H 	0.56380 0.62720 0.31750 0.00300
H 	H 	0.42130 0.47920 0.39260 0.08200
H 	H 	0.71500 0.64010 0.53550 0.08600
H 	H 	0.85490 0.77790 0.45520 -0.01600
C 	C 	0.17770 0.33550 0.28702 0.30000
C 	C 	0.09580 0.34530 0.34945 -0.03500
C 	C 	0.12740 0.46480 0.37658 -0.07000
C 	C 	0.06430 0.48520 0.43854 0.03200
C 	C 	0.96320 0.37560 0.47201 0.03500
C 	C 	0.93040 0.25140 0.44199 -0.07100
C 	C 	0.99250 0.23490 0.38302 -0.02700
C 	C 	0.10000 0.60780 0.46692 -0.11100
C 	C 	0.94520 0.10360 0.35104 0.28900
C 	C 	0.09530 0.12950 0.13803 0.07600
C 	C 	0.00780 0.04140 0.09267 -0.13600
C 	C 	0.04720 0.04450 0.02567 0.06000
C 	C 	0.18130 0.13520 0.00863 -0.13400
C 	C 	0.26480 0.21840 0.05734 0.08100
C 	C 	0.32230 0.16450 0.78702 0.29800
C 	C 	0.40420 0.15470 0.84945 -0.03000
C 	C 	0.37260 0.03520 0.87658 -0.07800
C 	C 	0.43570 0.01480 0.93854 0.03300
C 	C 	0.53680 0.12440 0.97201 0.03200
C 	C 	0.56960 0.24860 0.94199 -0.06800
C 	C 	0.50750 0.26510 0.88302 -0.03100
C 	C 	0.40000 0.89220 0.96692 -0.10700
C 	C 	0.55480 0.39640 0.85104 0.29000
C 	C 	0.40470 0.37050 0.63803 0.07800
C 	C 	0.49220 0.45860 0.59267 -0.13900
C 	C 	0.45280 0.45550 0.52567 0.06100
C 	C 	0.31870 0.36480 0.50863 -0.13800
C 	C 	0.23520 0.28160 0.55734 0.08300
C 	C 	0.82230 0.66450 0.71298 0.30000
C 	C 	0.90420 0.65470 0.65055 -0.03500
C 	C 	0.87260 0.53520 0.62342 -0.07000
C 	C 	0.93570 0.51480 0.56146 0.03200
C 	C 	0.03680 0.62440 0.52799 0.03500
C 	C 	0.06960 0.74860 0.55801 -0.07100
C 	C 	0.00750 0.76510 0.61698 -0.02700
C 	C 	0.90000 0.39220 0.53308 -0.11100
C 	C 	0.05480 0.89640 0.64896 0.28900
C 	C 	0.90470 0.87050 0.86197 0.07600
C 	C 	0.99220 0.95860 0.90733 -0.13600
C 	C 	0.95280 0.95550 0.97433 0.06000
C 	C 	0.81870 0.86480 0.99137 -0.13400
C 	C 	0.73520 0.78160 0.94266 0.08100
C 	C 	0.67770 0.83550 0.21298 0.29800
C 	C 	0.59580 0.84530 0.15055 -0.03000
C 	C 	0.62740 0.96480 0.12342 -0.07800
C 	C 	0.56430 0.98520 0.06146 0.03300
C 	C 	0.46320 0.87560 0.02799 0.03200
C 	C 	0.43040 0.75140 0.05801 -0.06800
C 	C 	0.49250 0.73490 0.11698 -0.03100
C 	C 	0.60000 0.10780 0.03308 -0.10700
C 	C 	0.44520 0.60360 0.14896 0.29000
C 	C 	0.59530 0.62950 0.36197 0.07800
C 	C 	0.50780 0.54140 0.40733 -0.13900
C 	C 	0.54720 0.54450 0.47433 0.06100
C 	C 	0.68130 0.63520 0.49137 -0.13800
C 	C 	0.76480 0.71840 0.44266 0.08300
N 	N 	0.22240 0.21740 0.12125 -0.26900
N 	N 	0.27760 0.28260 0.62125 -0.27000
N 	N 	0.77760 0.78260 0.87875 -0.26900
N 	N 	0.72240 0.71740 0.37875 -0.27000
O 	O 	0.15740 0.38950 0.23380 -0.39200
O 	O 	0.27080 0.28430 0.29069 -0.38900
O 	O 	0.95960 0.09360 0.28896 -0.34900
O 	O 	0.88590 0.00570 0.38875 -0.42100
O 	O 	0.34260 0.11050 0.73380 -0.39200
O 	O 	0.22920 0.21570 0.79069 -0.38900
O 	O 	0.54040 0.40640 0.78896 -0.35200
O 	O 	0.61410 0.49430 0.88875 -0.42300
O 	O 	0.84260 0.61050 0.76620 -0.39200
O 	O 	0.72920 0.71570 0.70931 -0.38900
O 	O 	0.04040 0.90640 0.71104 -0.34900
O 	O 	0.11410 0.99430 0.61125 -0.42100
O 	O 	0.65740 0.88950 0.26620 -0.39200
O 	O 	0.77080 0.78430 0.20931 -0.38900
O 	O 	0.45960 0.59360 0.21104 -0.35200
O 	O 	0.38590 0.50570 0.11125 -0.42300
