data_crystal

_cell_length_a 9.27690
_cell_length_b 14.79840
_cell_length_c 14.61060
_cell_angle_alpha 90.00000
_cell_angle_beta  90.00000
_cell_angle_gamma 90.00000

_symmetry_space_group_name_	'P 1'
_symmetry_space_group_name_H-M	'P 1'

loop_
_symmetry_equiv_pos_as_xyz
  x,y,z

loop_
_atom_site_label
_atom_site_type_symbol
_atom_site_fract_x
_atom_site_fract_y
_atom_site_fract_z
_atom_site_charge
P 	P 	0.14820 0.13343 0.10310 0.79500
Al	Al	0.14260 0.34700 0.11500 2.38700
O 	O 	0.96670 0.35920 0.16380 -0.81800
O 	O 	0.72790 0.92170 0.16630 -0.83900
O 	O 	0.25620 0.06680 0.13970 -0.75400
O 	O 	0.12700 0.11490 0.00070 -0.75000
O 	O 	0.00260 0.12060 0.14900 -0.84000
O 	O 	0.19830 0.23080 0.11670 -0.85400
P 	P 	0.85180 0.86657 0.60310 0.79600
Al	Al	0.85740 0.65300 0.61500 2.38800
O 	O 	0.03330 0.64080 0.66380 -0.81700
O 	O 	0.27210 0.07830 0.66630 -0.83800
O 	O 	0.74380 0.93320 0.63970 -0.75300
O 	O 	0.87300 0.88510 0.50070 -0.74900
O 	O 	0.99740 0.87940 0.64900 -0.84000
O 	O 	0.80170 0.76920 0.61670 -0.85400
P 	P 	0.85180 0.63343 0.39690 0.76900
Al	Al	0.85740 0.84700 0.38500 2.38800
O 	O 	0.03330 0.85920 0.33620 -0.82900
O 	O 	0.27210 0.42170 0.33370 -0.82500
O 	O 	0.74380 0.56680 0.36030 -0.55700
O 	O 	0.87300 0.61490 0.49930 -0.74200
O 	O 	0.99740 0.62060 0.35100 -0.81900
O 	O 	0.80170 0.73080 0.38330 -0.83700
P 	P 	0.14820 0.36657 0.89690 0.76900
Al	Al	0.14260 0.15300 0.88500 2.38800
O 	O 	0.96670 0.14080 0.83620 -0.82900
O 	O 	0.72790 0.57830 0.83370 -0.82500
O 	O 	0.25620 0.43320 0.86030 -0.55700
O 	O 	0.12700 0.38510 0.99930 -0.74300
O 	O 	0.00260 0.37940 0.85100 -0.81900
O 	O 	0.19830 0.26920 0.88330 -0.83700
P 	P 	0.85180 0.86657 0.89690 0.79600
Al	Al	0.85740 0.65300 0.88500 2.38800
O 	O 	0.03330 0.64080 0.83620 -0.81700
O 	O 	0.27210 0.07830 0.83370 -0.83800
O 	O 	0.74380 0.93320 0.86030 -0.75400
O 	O 	0.87300 0.88510 0.99930 -0.75000
O 	O 	0.99740 0.87940 0.85100 -0.84000
O 	O 	0.80170 0.76920 0.88330 -0.85400
P 	P 	0.14820 0.13343 0.39690 0.79600
Al	Al	0.14260 0.34700 0.38500 2.38800
O 	O 	0.96670 0.35920 0.33620 -0.81700
O 	O 	0.72790 0.92170 0.33370 -0.83800
O 	O 	0.25620 0.06680 0.36030 -0.75300
O 	O 	0.12700 0.11490 0.49930 -0.74900
O 	O 	0.00260 0.12060 0.35100 -0.84000
O 	O 	0.19830 0.23080 0.38330 -0.85400
P 	P 	0.14820 0.36657 0.60310 0.76900
Al	Al	0.14260 0.15300 0.61500 2.38800
O 	O 	0.96670 0.14080 0.66380 -0.82900
O 	O 	0.72790 0.57830 0.66630 -0.82500
O 	O 	0.25620 0.43320 0.63970 -0.55700
O 	O 	0.12700 0.38510 0.50070 -0.74200
O 	O 	0.00260 0.37940 0.64900 -0.81900
O 	O 	0.19830 0.26920 0.61670 -0.83700
P 	P 	0.85180 0.63343 0.10310 0.76900
Al	Al	0.85740 0.84700 0.11500 2.38800
O 	O 	0.03330 0.85920 0.16380 -0.82900
O 	O 	0.27210 0.42170 0.16630 -0.82500
O 	O 	0.74380 0.56680 0.13970 -0.55700
O 	O 	0.87300 0.61490 0.00070 -0.74300
O 	O 	0.99740 0.62060 0.14900 -0.81900
O 	O 	0.80170 0.73080 0.11670 -0.83700
P 	P 	0.87650 0.34300 0.25000 0.75100
P 	P 	0.68200 0.97210 0.25000 0.93300
Al	Al	0.90150 0.13560 0.25000 2.39300
Al	Al	0.33230 0.02040 0.25000 2.38000
Mg	Mg	0.66770 0.52040 0.25000 1.48000
O 	O 	0.82560 0.24440 0.25000 -0.77800
O 	O 	0.74710 0.40180 0.25000 -0.50600
O 	O 	0.75590 0.06160 0.25000 -0.84400
O 	O 	0.52650 0.98620 0.25000 -0.77300
P 	P 	0.12350 0.65700 0.75000 0.75100
P 	P 	0.31800 0.02790 0.75000 0.93300
Al	Al	0.09850 0.86440 0.75000 2.39300
Al	Al	0.66770 0.97960 0.75000 2.38000
Mg	Mg	0.33230 0.47960 0.75000 1.48000
O 	O 	0.17440 0.75560 0.75000 -0.77800
O 	O 	0.25290 0.59820 0.75000 -0.50600
O 	O 	0.24410 0.93840 0.75000 -0.84400
O 	O 	0.47350 0.01380 0.75000 -0.77300
P 	P 	0.12350 0.84300 0.25000 0.78200
P 	P 	0.31800 0.47210 0.25000 0.88900
Al	Al	0.09850 0.63560 0.25000 2.39300
O 	O 	0.17440 0.74440 0.25000 -0.77700
O 	O 	0.25290 0.90180 0.25000 -0.68700
O 	O 	0.24410 0.56160 0.25000 -0.82300
O 	O 	0.47350 0.48620 0.25000 -0.57000
P 	P 	0.87650 0.15700 0.75000 0.78200
P 	P 	0.68200 0.52790 0.75000 0.88900
Al	Al	0.90150 0.36440 0.75000 2.39300
O 	O 	0.82560 0.25560 0.75000 -0.77700
O 	O 	0.74710 0.09820 0.75000 -0.68700
O 	O 	0.75590 0.43840 0.75000 -0.82300
O 	O 	0.52650 0.51380 0.75000 -0.57000
