data_crystal

_cell_length_a 9.21870
_cell_length_b 14.86520
_cell_length_c 14.58110
_cell_angle_alpha 90.00000
_cell_angle_beta  90.00000
_cell_angle_gamma 90.00000

_symmetry_space_group_name_	'P 1'
_symmetry_space_group_name_H-M	'P 1'

loop_
_symmetry_equiv_pos_as_xyz
  x,y,z

loop_
_atom_site_label
_atom_site_type_symbol
_atom_site_fract_x
_atom_site_fract_y
_atom_site_fract_z
_atom_site_charge
P 	P 	0.15480 0.13560 0.10410 0.75900
Al	Al	0.14800 0.34790 0.11450 2.38600
O 	O 	0.97250 0.35970 0.16280 -0.82400
O 	O 	0.72800 0.92630 0.16020 -0.86300
O 	O 	0.26740 0.06950 0.13640 -0.73600
O 	O 	0.12690 0.11160 0.00260 -0.72200
O 	O 	0.01340 0.11910 0.15260 -0.84200
O 	O 	0.21020 0.23280 0.11870 -0.85000
P 	P 	0.84520 0.86440 0.60410 0.76000
Al	Al	0.85200 0.65210 0.61450 2.38700
O 	O 	0.02750 0.64030 0.66280 -0.82300
O 	O 	0.27200 0.07370 0.66020 -0.86400
O 	O 	0.73260 0.93050 0.63640 -0.73600
O 	O 	0.87310 0.88840 0.50260 -0.72100
O 	O 	0.98660 0.88090 0.65260 -0.84200
O 	O 	0.78980 0.76720 0.61870 -0.85000
P 	P 	0.84520 0.63560 0.39590 0.73700
Al	Al	0.85200 0.84790 0.38550 2.38700
O 	O 	0.02750 0.85970 0.33720 -0.83700
O 	O 	0.27200 0.42630 0.33980 -0.84800
O 	O 	0.73260 0.56950 0.36360 -0.54000
O 	O 	0.87310 0.61160 0.49740 -0.71400
O 	O 	0.98660 0.61910 0.34740 -0.81600
O 	O 	0.78980 0.73280 0.38130 -0.83400
P 	P 	0.15480 0.36440 0.89590 0.73700
Al	Al	0.14800 0.15210 0.88550 2.38700
O 	O 	0.97250 0.14030 0.83720 -0.83700
O 	O 	0.72800 0.57370 0.83980 -0.84800
O 	O 	0.26740 0.43050 0.86360 -0.54000
O 	O 	0.12690 0.38840 0.99740 -0.71500
O 	O 	0.01340 0.38090 0.84740 -0.81600
O 	O 	0.21020 0.26720 0.88130 -0.83400
P 	P 	0.84520 0.86440 0.89590 0.76000
Al	Al	0.85200 0.65210 0.88550 2.38700
O 	O 	0.02750 0.64030 0.83720 -0.82400
O 	O 	0.27200 0.07370 0.83980 -0.86300
O 	O 	0.73260 0.93050 0.86360 -0.73600
O 	O 	0.87310 0.88840 0.99740 -0.72200
O 	O 	0.98660 0.88090 0.84740 -0.84200
O 	O 	0.78980 0.76720 0.88130 -0.85000
P 	P 	0.15480 0.13560 0.39590 0.76000
Al	Al	0.14800 0.34790 0.38550 2.38700
O 	O 	0.97250 0.35970 0.33720 -0.82300
O 	O 	0.72800 0.92630 0.33980 -0.86400
O 	O 	0.26740 0.06950 0.36360 -0.73600
O 	O 	0.12690 0.11160 0.49740 -0.72100
O 	O 	0.01340 0.11910 0.34740 -0.84200
O 	O 	0.21020 0.23280 0.38130 -0.85000
P 	P 	0.15480 0.36440 0.60410 0.73700
Al	Al	0.14800 0.15210 0.61450 2.38700
O 	O 	0.97250 0.14030 0.66280 -0.83700
O 	O 	0.72800 0.57370 0.66020 -0.84800
O 	O 	0.26740 0.43050 0.63640 -0.54000
O 	O 	0.12690 0.38840 0.50260 -0.71400
O 	O 	0.01340 0.38090 0.65260 -0.81600
O 	O 	0.21020 0.26720 0.61870 -0.83400
P 	P 	0.84520 0.63560 0.10410 0.73700
Al	Al	0.85200 0.84790 0.11450 2.38700
O 	O 	0.02750 0.85970 0.16280 -0.83700
O 	O 	0.27200 0.42630 0.16020 -0.84800
O 	O 	0.73260 0.56950 0.13640 -0.54000
O 	O 	0.87310 0.61160 0.00260 -0.71500
O 	O 	0.98660 0.61910 0.15260 -0.81600
O 	O 	0.78980 0.73280 0.11870 -0.83400
P 	P 	0.88900 0.33470 0.25000 0.68100
P 	P 	0.68510 0.96380 0.25000 0.89600
Al	Al	0.89890 0.13530 0.25000 2.38900
Mg	Mg	0.67090 0.51900 0.25000 1.47600
O 	O 	0.81440 0.24300 0.25000 -0.77000
O 	O 	0.75720 0.39460 0.25000 -0.45300
O 	O 	0.75630 0.05370 0.25000 -0.79000
O 	O 	0.53150 0.99390 0.25000 -0.74100
Al	Al	0.32910 0.01900 0.25000 2.37600
P 	P 	0.11100 0.66530 0.75000 0.68100
P 	P 	0.31490 0.03620 0.75000 0.89600
Al	Al	0.10110 0.86470 0.75000 2.38900
Mg	Mg	0.32910 0.48100 0.75000 1.47600
O 	O 	0.18560 0.75700 0.75000 -0.77000
O 	O 	0.24280 0.60540 0.75000 -0.45300
O 	O 	0.24370 0.94630 0.75000 -0.79000
O 	O 	0.46850 0.00610 0.75000 -0.74100
Al	Al	0.67090 0.98100 0.75000 2.37600
P 	P 	0.11100 0.83470 0.25000 0.70800
P 	P 	0.31490 0.46380 0.25000 0.85500
Al	Al	0.10110 0.63530 0.25000 2.38900
O 	O 	0.18560 0.74300 0.25000 -0.77000
O 	O 	0.24280 0.89460 0.25000 -0.61900
O 	O 	0.24370 0.55370 0.25000 -0.77300
O 	O 	0.46850 0.49390 0.25000 -0.54300
P 	P 	0.88900 0.16530 0.75000 0.70800
P 	P 	0.68510 0.53620 0.75000 0.85500
Al	Al	0.89890 0.36470 0.75000 2.38900
O 	O 	0.81440 0.25700 0.75000 -0.77000
O 	O 	0.75720 0.10540 0.75000 -0.61900
O 	O 	0.75630 0.44630 0.75000 -0.77300
O 	O 	0.53150 0.50610 0.75000 -0.54300
