data_crystal

_cell_length_a 9.46500
_cell_length_b 12.58100
_cell_length_c 18.98000
_cell_angle_alpha 90.00000
_cell_angle_beta  93.54800
_cell_angle_gamma 90.00000

_symmetry_space_group_name_	'P 1'
_symmetry_space_group_name_H-M	'P 1'

loop_
_symmetry_equiv_pos_as_xyz
  x,y,z

loop_
_atom_site_label
_atom_site_type_symbol
_atom_site_fract_x
_atom_site_fract_y
_atom_site_fract_z
_atom_site_charge
Co	Co	0.24936 0.85299 0.24112 1.19100
Co	Co	0.06249 0.82072 0.06914 1.12900
N 	N 	0.25140 0.87380 0.35159 -0.23300
N 	N 	0.27710 0.68750 0.38940 -0.23100
N 	N 	0.36680 0.71220 0.50170 -0.21900
N 	N 	0.37080 0.94300 0.56220 -0.21300
N 	N 	0.30180 0.99550 0.44730 -0.15100
O 	O 	0.09310 0.97010 0.22607 -0.40900
O 	O 	0.98220 0.95530 0.11787 -0.43400
O 	O 	0.40380 0.97260 0.24161 -0.39000
O 	O 	0.43390 0.99830 0.12696 -0.31800
O 	O 	0.08570 0.23870 0.23875 -0.38600
O 	O 	0.06250 0.17470 0.34746 -0.31500
O 	O 	0.40310 0.23190 0.24545 -0.40200
O 	O 	0.51000 0.22130 0.35355 -0.45100
C 	C 	0.28320 0.79660 0.39950 0.15100
C 	C 	0.32680 0.64250 0.45100 0.11900
H 	H 	0.33260 0.56930 0.45750 -0.03700
C 	C 	0.33370 0.81140 0.46860 -0.05900
C 	C 	0.33770 0.91720 0.49480 0.12900
C 	C 	0.26520 0.97060 0.38020 0.10200
H 	H 	0.24700 0.02750 0.34970 0.01500
C 	C 	0.99310 0.98850 0.18180 0.36700
C 	C 	0.86870 0.05070 0.20710 -0.06700
C 	C 	0.73350 0.01630 0.18480 -0.00900
H 	H 	0.72360 0.96280 0.15110 0.04400
C 	C 	0.61130 0.06030 0.21180 -0.04100
C 	C 	0.47160 0.00800 0.19120 0.32000
C 	C 	0.76190 0.17790 0.28320 -0.00500
H 	H 	0.77150 0.23220 0.31640 0.04400
C 	C 	0.88400 0.13300 0.25700 -0.03400
C 	C 	0.02400 0.18380 0.28360 0.32200
C 	C 	0.62700 0.14330 0.26070 -0.06200
C 	C 	0.50120 0.20170 0.28870 0.37700
O 	O 	0.26160 0.83540 0.12923 -1.13600
H 	H 	0.25450 0.65620 0.35020 0.16000
H 	H 	0.39610 0.01430 0.57440 0.11100
H 	H 	0.40540 0.87230 0.59600 0.09900
H 	H 	0.30730 0.78030 0.12910 0.46300
H 	H 	0.31430 0.88700 0.12440 0.46200
Co	Co	0.25064 0.35299 0.25888 1.19000
Co	Co	0.43751 0.32072 0.43086 1.13000
N 	N 	0.24860 0.37380 0.14841 -0.23400
N 	N 	0.22290 0.18750 0.11060 -0.23100
N 	N 	0.13320 0.21220 0.99830 -0.21600
N 	N 	0.12920 0.44300 0.93780 -0.21200
N 	N 	0.19820 0.49550 0.05270 -0.15100
O 	O 	0.40690 0.47010 0.27393 -0.40500
O 	O 	0.51780 0.45530 0.38213 -0.43500
O 	O 	0.09620 0.47260 0.25839 -0.39100
O 	O 	0.06610 0.49830 0.37304 -0.31900
O 	O 	0.41430 0.73870 0.26125 -0.38600
O 	O 	0.43750 0.67470 0.15254 -0.31600
O 	O 	0.09690 0.73190 0.25455 -0.40400
O 	O 	0.99000 0.72130 0.14645 -0.45000
C 	C 	0.21680 0.29660 0.10050 0.15100
C 	C 	0.17320 0.14250 0.04900 0.11500
H 	H 	0.16740 0.06930 0.04250 -0.03700
C 	C 	0.16630 0.31140 0.03140 -0.06100
C 	C 	0.16230 0.41720 0.00520 0.12800
C 	C 	0.23480 0.47060 0.11980 0.10200
H 	H 	0.25300 0.52750 0.15030 0.01400
C 	C 	0.50690 0.48850 0.31820 0.36200
C 	C 	0.63130 0.55070 0.29290 -0.06500
C 	C 	0.76650 0.51630 0.31520 -0.00800
H 	H 	0.77640 0.46280 0.34890 0.04300
C 	C 	0.88870 0.56030 0.28820 -0.04000
C 	C 	0.02840 0.50800 0.30880 0.32000
C 	C 	0.73810 0.67790 0.21680 -0.00400
H 	H 	0.72850 0.73220 0.18360 0.04300
C 	C 	0.61600 0.63300 0.24300 -0.03500
C 	C 	0.47600 0.68380 0.21640 0.32300
C 	C 	0.87300 0.64330 0.23930 -0.06300
C 	C 	0.99880 0.70170 0.21130 0.38000
O 	O 	0.23840 0.33540 0.37077 -1.13500
H 	H 	0.24550 0.15620 0.14980 0.16000
H 	H 	0.10390 0.51430 0.92560 0.11200
H 	H 	0.09460 0.37230 0.90400 0.10000
H 	H 	0.19270 0.28030 0.37090 0.46300
H 	H 	0.18570 0.38700 0.37560 0.46200
Co	Co	0.75064 0.14701 0.75888 1.19000
Co	Co	0.93751 0.17928 0.93086 1.12800
N 	N 	0.74860 0.12620 0.64841 -0.23400
N 	N 	0.72290 0.31250 0.61060 -0.23200
N 	N 	0.63320 0.28780 0.49830 -0.22000
N 	N 	0.62920 0.05700 0.43780 -0.21400
N 	N 	0.69820 0.00450 0.55270 -0.15100
O 	O 	0.90690 0.02990 0.77393 -0.40900
O 	O 	0.01780 0.04470 0.88213 -0.43400
O 	O 	0.59620 0.02740 0.75839 -0.39000
O 	O 	0.56610 0.00170 0.87304 -0.31800
O 	O 	0.91430 0.76130 0.76125 -0.38600
O 	O 	0.93750 0.82530 0.65254 -0.31500
O 	O 	0.59690 0.76810 0.75455 -0.40200
O 	O 	0.49000 0.77870 0.64645 -0.45100
C 	C 	0.71680 0.20340 0.60050 0.15100
C 	C 	0.67320 0.35750 0.54900 0.11900
H 	H 	0.66740 0.43070 0.54250 -0.03700
C 	C 	0.66630 0.18860 0.53140 -0.05900
C 	C 	0.66230 0.08280 0.50520 0.12900
C 	C 	0.73480 0.02940 0.61980 0.10200
H 	H 	0.75300 0.97250 0.65030 0.01500
C 	C 	0.00690 0.01150 0.81820 0.36700
C 	C 	0.13130 0.94930 0.79290 -0.06700
C 	C 	0.26650 0.98370 0.81520 -0.00900
H 	H 	0.27640 0.03720 0.84890 0.04400
C 	C 	0.38870 0.93970 0.78820 -0.04100
C 	C 	0.52840 0.99200 0.80880 0.32000
C 	C 	0.23810 0.82210 0.71680 -0.00500
H 	H 	0.22850 0.76780 0.68360 0.04400
C 	C 	0.11600 0.86700 0.74300 -0.03400
C 	C 	0.97600 0.81620 0.71640 0.32200
C 	C 	0.37300 0.85670 0.73930 -0.06200
C 	C 	0.49880 0.79830 0.71130 0.37700
O 	O 	0.73840 0.16460 0.87077 -1.13600
H 	H 	0.74550 0.34380 0.64980 0.16000
H 	H 	0.60390 0.98570 0.42560 0.11100
H 	H 	0.59460 0.12770 0.40400 0.09900
H 	H 	0.69270 0.21970 0.87090 0.46300
H 	H 	0.68570 0.11300 0.87560 0.46200
Co	Co	0.74936 0.64701 0.74112 1.19000
Co	Co	0.56249 0.67928 0.56914 1.13000
N 	N 	0.75140 0.62620 0.85159 -0.23400
N 	N 	0.77710 0.81250 0.88940 -0.23100
N 	N 	0.86680 0.78780 0.00170 -0.21600
N 	N 	0.87080 0.55700 0.06220 -0.21200
N 	N 	0.80180 0.50450 0.94730 -0.15100
O 	O 	0.59310 0.52990 0.72607 -0.40500
O 	O 	0.48220 0.54470 0.61787 -0.43500
O 	O 	0.90380 0.52740 0.74161 -0.39100
O 	O 	0.93390 0.50170 0.62696 -0.31900
O 	O 	0.58570 0.26130 0.73875 -0.38600
O 	O 	0.56250 0.32530 0.84746 -0.31600
O 	O 	0.90310 0.26810 0.74545 -0.40400
O 	O 	0.01000 0.27870 0.85355 -0.45000
C 	C 	0.78320 0.70340 0.89950 0.15100
C 	C 	0.82680 0.85750 0.95100 0.11500
H 	H 	0.83260 0.93070 0.95750 -0.03700
C 	C 	0.83370 0.68860 0.96860 -0.06100
C 	C 	0.83770 0.58280 0.99480 0.12800
C 	C 	0.76520 0.52940 0.88020 0.10200
H 	H 	0.74700 0.47250 0.84970 0.01400
C 	C 	0.49310 0.51150 0.68180 0.36200
C 	C 	0.36870 0.44930 0.70710 -0.06500
C 	C 	0.23350 0.48370 0.68480 -0.00800
H 	H 	0.22360 0.53720 0.65110 0.04300
C 	C 	0.11130 0.43970 0.71180 -0.04000
C 	C 	0.97160 0.49200 0.69120 0.32000
C 	C 	0.26190 0.32210 0.78320 -0.00400
H 	H 	0.27150 0.26780 0.81640 0.04300
C 	C 	0.38400 0.36700 0.75700 -0.03500
C 	C 	0.52400 0.31620 0.78360 0.32300
C 	C 	0.12700 0.35670 0.76070 -0.06300
C 	C 	0.00120 0.29830 0.78870 0.38000
O 	O 	0.76160 0.66460 0.62923 -1.13500
H 	H 	0.75450 0.84380 0.85020 0.16000
H 	H 	0.89610 0.48570 0.07440 0.11200
H 	H 	0.90540 0.62770 0.09600 0.10000
H 	H 	0.80730 0.71970 0.62910 0.46300
H 	H 	0.81430 0.61300 0.62440 0.46200
