data_crystal

_cell_length_a 11.23400
_cell_length_b 11.57670
_cell_length_c 11.57670
_cell_angle_alpha 109.09800
_cell_angle_beta  100.10000
_cell_angle_gamma 100.10000

_symmetry_space_group_name_	'P 1'
_symmetry_space_group_name_H-M	'P 1'

loop_
_symmetry_equiv_pos_as_xyz
  x,y,z

loop_
_atom_site_label
_atom_site_type_symbol
_atom_site_fract_x
_atom_site_fract_y
_atom_site_fract_z
_atom_site_charge
Na	Na	0.75000 0.14180 0.85820 0.59800
Na	Na	0.75000 0.95070 0.04930 0.58300
Na	Na	0.25000 0.85820 0.14180 0.59800
Na	Na	0.25000 0.04930 0.95070 0.58300
Cu	Cu	0.01930 0.16530 0.77570 0.90200
Cu	Cu	0.48070 0.22430 0.83470 0.90600
Cu	Cu	0.98070 0.83470 0.22430 0.90200
Cu	Cu	0.51930 0.77570 0.16530 0.90600
H 	H 	0.85810 0.97760 0.66060 0.34600
H 	H 	0.90030 0.96410 0.77850 0.26500
H 	H 	0.86150 0.35300 0.12560 -0.01400
H 	H 	0.25130 0.60250 0.18090 0.13700
H 	H 	0.22390 0.39040 0.13920 -0.03500
H 	H 	0.64190 0.33940 0.02240 0.36000
H 	H 	0.59970 0.22150 0.03590 0.27600
H 	H 	0.63850 0.87440 0.64700 -0.01400
H 	H 	0.24870 0.81910 0.39750 0.13700
H 	H 	0.27610 0.86080 0.60960 -0.03300
H 	H 	0.14190 0.02240 0.33940 0.34600
H 	H 	0.09970 0.03590 0.22150 0.26500
H 	H 	0.13850 0.64700 0.87440 -0.01400
H 	H 	0.74870 0.39750 0.81910 0.13700
H 	H 	0.77610 0.60960 0.86080 -0.03500
H 	H 	0.35810 0.66060 0.97760 0.36000
H 	H 	0.40030 0.77850 0.96410 0.27600
H 	H 	0.36150 0.12560 0.35300 -0.01400
H 	H 	0.75130 0.18090 0.60250 0.13700
H 	H 	0.72390 0.13920 0.39040 -0.03300
C 	C 	0.03610 0.35050 0.12250 -0.23100
C 	C 	0.93880 0.40370 0.13330 0.18300
C 	C 	0.94960 0.53300 0.15600 -0.28600
C 	C 	0.06930 0.61120 0.17160 0.32800
C 	C 	0.17160 0.55290 0.16690 -0.30000
C 	C 	0.15590 0.42590 0.14250 0.18800
C 	C 	0.83410 0.57980 0.15200 0.41500
C 	C 	0.46390 0.87750 0.64950 -0.23000
C 	C 	0.56120 0.86670 0.59630 0.17900
C 	C 	0.55040 0.84400 0.46700 -0.28100
C 	C 	0.43070 0.82840 0.38880 0.32300
C 	C 	0.32840 0.83310 0.44710 -0.29700
C 	C 	0.34410 0.85750 0.57410 0.18700
C 	C 	0.66590 0.84800 0.42020 0.41300
C 	C 	0.96390 0.64950 0.87750 -0.23100
C 	C 	0.06120 0.59630 0.86670 0.18300
C 	C 	0.05040 0.46700 0.84400 -0.28600
C 	C 	0.93070 0.38880 0.82840 0.32800
C 	C 	0.82840 0.44710 0.83310 -0.30000
C 	C 	0.84410 0.57410 0.85750 0.18800
C 	C 	0.16590 0.42020 0.84800 0.41500
C 	C 	0.53610 0.12250 0.35050 -0.23000
C 	C 	0.43880 0.13330 0.40370 0.17900
C 	C 	0.44960 0.15600 0.53300 -0.28100
C 	C 	0.56930 0.17160 0.61120 0.32300
C 	C 	0.67160 0.16690 0.55290 -0.29700
C 	C 	0.65590 0.14250 0.42590 0.18700
C 	C 	0.33410 0.15200 0.57980 0.41300
S 	S 	0.01630 0.18750 0.08510 0.57200
S 	S 	0.48370 0.91490 0.81250 0.57800
S 	S 	0.98370 0.81250 0.91490 0.57200
S 	S 	0.51630 0.08510 0.18750 0.57800
O 	O 	0.88240 0.13140 0.03980 -0.38100
O 	O 	0.08170 0.14550 0.98690 -0.41200
O 	O 	0.07150 0.16990 0.19970 -0.32300
O 	O 	0.73040 0.50270 0.12650 -0.32500
O 	O 	0.83900 0.69530 0.17510 -0.44000
O 	O 	0.09180 0.73100 0.18860 -0.44000
O 	O 	0.87730 0.01950 0.73650 -0.74000
O 	O 	0.61760 0.96020 0.86860 -0.38900
O 	O 	0.41830 0.01310 0.85450 -0.41100
O 	O 	0.42850 0.80030 0.83010 -0.32400
O 	O 	0.76960 0.87350 0.49730 -0.32400
O 	O 	0.66100 0.82490 0.30470 -0.43900
O 	O 	0.40820 0.81140 0.26900 -0.44200
O 	O 	0.62270 0.26350 0.98050 -0.76500
O 	O 	0.11760 0.86860 0.96020 -0.38100
O 	O 	0.91830 0.85450 0.01310 -0.41200
O 	O 	0.92850 0.83010 0.80030 -0.32300
O 	O 	0.26960 0.49730 0.87350 -0.32500
O 	O 	0.16100 0.30470 0.82490 -0.44000
O 	O 	0.90820 0.26900 0.81140 -0.44000
O 	O 	0.12270 0.98050 0.26350 -0.74000
O 	O 	0.38240 0.03980 0.13140 -0.38900
O 	O 	0.58170 0.98690 0.14550 -0.41100
O 	O 	0.57150 0.19970 0.16990 -0.32400
O 	O 	0.23040 0.12650 0.50270 -0.32400
O 	O 	0.33900 0.17510 0.69530 -0.43900
O 	O 	0.59180 0.18860 0.73100 -0.44200
O 	O 	0.37730 0.73650 0.01950 -0.76500
