data_crystal

_cell_length_a 29.51100
_cell_length_b 12.05000
_cell_length_c 13.90800
_cell_angle_alpha 90.00000
_cell_angle_beta  111.45700
_cell_angle_gamma 90.00000

_symmetry_space_group_name_	'P 1'
_symmetry_space_group_name_H-M	'P 1'

loop_
_symmetry_equiv_pos_as_xyz
  x,y,z

loop_
_atom_site_label
_atom_site_type_symbol
_atom_site_fract_x
_atom_site_fract_y
_atom_site_fract_z
_atom_site_charge
Zn	Zn	0.15151 0.95255 0.75428 1.21100
Zn	Zn	0.84438 0.03743 0.82833 1.21000
C 	C 	0.36480 0.67030 0.01950 0.11800
H 	H 	0.38250 0.61240 0.06030 0.00700
C 	C 	0.31970 0.76280 0.89230 0.03700
H 	H 	0.29970 0.78190 0.82540 0.01100
C 	C 	0.32960 0.83090 0.97440 0.00400
H 	H 	0.31870 0.90330 0.97510 0.06200
C 	C 	0.37940 0.80510 0.16580 -0.13600
H 	H 	0.40460 0.75310 0.20420 0.11000
H 	H 	0.39440 0.87750 0.17020 0.14400
C 	C 	0.34270 0.81070 0.21350 0.05300
H 	H 	0.32960 0.73680 0.21310 0.02800
H 	H 	0.35870 0.83270 0.28510 0.06000
C 	C 	0.31550 0.99520 0.18750 0.02600
H 	H 	0.34080 0.01590 0.16180 0.06100
H 	H 	0.32790 0.00680 0.26160 0.05800
C 	C 	0.27140 0.06470 0.13730 -0.09100
H 	H 	0.24540 0.03890 0.15880 0.06400
H 	H 	0.27860 0.14100 0.16020 0.08300
C 	C 	0.21880 0.99860 0.96280 0.08400
H 	H 	0.20110 0.94880 0.98640 0.01000
C 	C 	0.24610 0.09150 0.86340 0.01900
H 	H 	0.25030 0.11770 0.80430 0.02900
C 	C 	0.27370 0.12150 0.96330 -0.01200
H 	H 	0.29930 0.17170 0.98520 0.06200
C 	C 	0.11730 0.11060 0.60760 0.26400
C 	C 	0.08380 0.19180 0.53410 0.07100
C 	C 	0.05450 0.25850 0.56500 -0.20700
H 	H 	0.05300 0.24740 0.63000 0.15500
C 	C 	0.02600 0.34420 0.50150 0.30400
C 	C 	0.02900 0.35740 0.40440 -0.22500
H 	H 	0.01250 0.41550 0.36190 0.20600
C 	C 	0.05650 0.28490 0.37070 0.11400
H 	H 	0.05730 0.29390 0.30490 0.06900
C 	C 	0.08280 0.19920 0.43280 -0.11100
C 	C 	0.10760 0.11220 0.38600 0.36800
C 	C 	0.99650 0.41930 0.54470 -0.46900
C 	C 	0.96230 0.35060 0.58390 0.33500
C 	C 	0.95510 0.37790 0.67500 -0.23500
H 	H 	0.97190 0.43690 0.71570 0.22200
C 	C 	0.92240 0.31500 0.70370 0.13900
H 	H 	0.91750 0.33250 0.76430 0.05000
C 	C 	0.89710 0.22770 0.64430 -0.13400
C 	C 	0.90350 0.20350 0.55410 0.08200
C 	C 	0.93770 0.26330 0.52430 -0.22700
H 	H 	0.94340 0.24340 0.46510 0.15900
C 	C 	0.86460 0.16670 0.68680 0.35900
C 	C 	0.87240 0.11430 0.48040 0.28200
C 	C 	0.96310 0.49890 0.45990 0.94300
C 	C 	0.03270 0.49350 0.62820 0.99800
C 	C 	0.77480 0.96040 0.63050 0.08500
H 	H 	0.79150 0.99870 0.59580 0.01900
C 	C 	0.75250 0.89430 0.74900 0.02200
H 	H 	0.75090 0.88120 0.81360 0.03000
C 	C 	0.72490 0.84600 0.66330 -0.00300
H 	H 	0.70140 0.79220 0.65650 0.06300
C 	C 	0.71570 0.86610 0.47220 -0.08700
H 	H 	0.70610 0.78880 0.46050 0.07100
H 	H 	0.74000 0.88010 0.44180 0.06500
C 	C 	0.67160 0.94020 0.42110 0.03100
H 	H 	0.65690 0.92440 0.34770 0.06700
H 	H 	0.64740 0.92870 0.45210 0.07000
C 	C 	0.65480 0.12790 0.38340 0.12900
C 	C 	0.61910 0.18880 0.42080 0.10000
C 	C 	0.64610 0.33040 0.56290 0.12700
H 	H 	0.62630 0.38440 0.52000 0.01800
C 	C 	0.68870 0.23950 0.69820 0.03000
H 	H 	0.70440 0.22010 0.76720 0.00900
C 	C 	0.68700 0.17630 0.61630 0.01500
H 	H 	0.70080 0.10680 0.61720 0.06100
N 	N 	0.34220 0.66430 0.91800 -0.26900
N 	N 	0.35890 0.77030 0.05630 -0.08000
N 	N 	0.25480 0.06060 0.02360 -0.09000
N 	N 	0.21110 0.01600 0.86520 -0.26100
N 	N 	0.78350 0.96610 0.73010 -0.26100
N 	N 	0.73720 0.88910 0.58660 -0.09600
N 	N 	0.65950 0.23980 0.53000 -0.11200
N 	N 	0.66400 0.33610 0.66390 -0.26000
O 	O 	0.30328 0.88490 0.16560 -0.18100
O 	O 	0.10197 0.05510 0.66930 -0.41000
O 	O 	0.16058 0.10430 0.61250 -0.29600
O 	O 	0.10110 0.01510 0.39660 -0.30400
O 	O 	0.12990 0.15630 0.33450 -0.44600
O 	O 	0.88860 0.07650 0.41330 -0.41700
O 	O 	0.83540 0.08370 0.49050 -0.30600
O 	O 	0.82482 0.20500 0.67930 -0.32100
O 	O 	0.88150 0.07780 0.73820 -0.41400
O 	O 	0.68870 0.04560 0.43700 -0.18700
F 	F 	0.01253 0.57990 0.65690 -0.50000
F 	F 	0.05492 0.43570 0.71430 -0.53200
F 	F 	0.06550 0.53530 0.59700 -0.50600
F 	F 	0.98848 0.57580 0.43100 -0.46900
F 	F 	0.93130 0.55360 0.49440 -0.47300
F 	F 	0.93458 0.44540 0.37580 -0.53700
C 	C 	0.66620 0.22680 0.41670 -0.02200
Zn	Zn	0.65151 0.45255 0.75428 1.21300
Zn	Zn	0.34438 0.53743 0.82833 1.21100
C 	C 	0.86480 0.17030 0.01950 0.11900
H 	H 	0.88250 0.11240 0.06030 0.01000
C 	C 	0.81970 0.26280 0.89230 0.03800
H 	H 	0.79970 0.28190 0.82540 0.01100
C 	C 	0.82960 0.33090 0.97440 0.00400
H 	H 	0.81870 0.40330 0.97510 0.06200
C 	C 	0.87940 0.30510 0.16580 -0.13800
H 	H 	0.90460 0.25310 0.20420 0.11300
H 	H 	0.89440 0.37750 0.17020 0.14600
C 	C 	0.84270 0.31070 0.21350 0.05500
H 	H 	0.82960 0.23680 0.21310 0.02700
H 	H 	0.85870 0.33270 0.28510 0.05900
C 	C 	0.81550 0.49520 0.18750 0.02700
H 	H 	0.84080 0.51590 0.16180 0.06100
H 	H 	0.82790 0.50680 0.26160 0.05800
C 	C 	0.77140 0.56470 0.13730 -0.09200
H 	H 	0.74540 0.53890 0.15880 0.06400
H 	H 	0.77860 0.64100 0.16020 0.08400
C 	C 	0.71880 0.49860 0.96280 0.08400
H 	H 	0.70110 0.44880 0.98640 0.01000
C 	C 	0.74610 0.59150 0.86340 0.01900
H 	H 	0.75030 0.61770 0.80430 0.02900
C 	C 	0.77370 0.62150 0.96330 -0.01300
H 	H 	0.79930 0.67170 0.98520 0.06100
C 	C 	0.61730 0.61060 0.60760 0.26100
C 	C 	0.58380 0.69180 0.53410 0.08100
C 	C 	0.55450 0.75850 0.56500 -0.22200
H 	H 	0.55300 0.74740 0.63000 0.16400
C 	C 	0.52600 0.84420 0.50150 0.33400
C 	C 	0.52900 0.85740 0.40440 -0.24100
H 	H 	0.51250 0.91550 0.36190 0.21800
C 	C 	0.55650 0.78490 0.37070 0.12700
H 	H 	0.55730 0.79390 0.30490 0.06600
C 	C 	0.58280 0.69920 0.43280 -0.11700
C 	C 	0.60760 0.61220 0.38600 0.37100
C 	C 	0.49650 0.91930 0.54470 -0.50000
C 	C 	0.46230 0.85060 0.58390 0.34000
C 	C 	0.45510 0.87790 0.67500 -0.24000
H 	H 	0.47190 0.93690 0.71570 0.21900
C 	C 	0.42240 0.81500 0.70370 0.14000
H 	H 	0.41750 0.83250 0.76430 0.04800
C 	C 	0.39710 0.72770 0.64430 -0.13600
C 	C 	0.40350 0.70350 0.55410 0.08200
C 	C 	0.43770 0.76330 0.52430 -0.23300
H 	H 	0.44340 0.74340 0.46510 0.15700
C 	C 	0.36460 0.66670 0.68680 0.36000
C 	C 	0.37240 0.61430 0.48040 0.28100
C 	C 	0.46310 0.99890 0.45990 0.94800
C 	C 	0.53270 0.99350 0.62820 1.01600
C 	C 	0.27480 0.46040 0.63050 0.08500
H 	H 	0.29150 0.49870 0.59580 0.01900
C 	C 	0.25250 0.39430 0.74900 0.02200
H 	H 	0.25090 0.38120 0.81360 0.03000
C 	C 	0.22490 0.34600 0.66330 -0.00300
H 	H 	0.20140 0.29220 0.65650 0.06300
C 	C 	0.21570 0.36610 0.47220 -0.08700
H 	H 	0.20610 0.28880 0.46050 0.07200
H 	H 	0.24000 0.38010 0.44180 0.06500
C 	C 	0.17160 0.44020 0.42110 0.03100
H 	H 	0.15690 0.42440 0.34770 0.06600
H 	H 	0.14740 0.42870 0.45210 0.07000
C 	C 	0.15480 0.62790 0.38340 0.12900
C 	C 	0.11910 0.68880 0.42080 0.09700
C 	C 	0.14610 0.83040 0.56290 0.12600
H 	H 	0.12630 0.88440 0.52000 0.01700
C 	C 	0.18870 0.73950 0.69820 0.03000
H 	H 	0.20440 0.72010 0.76720 0.00900
C 	C 	0.18700 0.67630 0.61630 0.01400
H 	H 	0.20080 0.60680 0.61720 0.06100
N 	N 	0.84220 0.16430 0.91800 -0.26900
N 	N 	0.85890 0.27030 0.05630 -0.07900
N 	N 	0.75480 0.56060 0.02360 -0.09000
N 	N 	0.71110 0.51600 0.86520 -0.26100
N 	N 	0.28350 0.46610 0.73010 -0.26100
N 	N 	0.23720 0.38910 0.58660 -0.09600
N 	N 	0.15950 0.73980 0.53000 -0.11200
N 	N 	0.16400 0.83610 0.66390 -0.26000
O 	O 	0.80328 0.38490 0.16560 -0.18200
O 	O 	0.60197 0.55510 0.66930 -0.40700
O 	O 	0.66058 0.60430 0.61250 -0.29500
O 	O 	0.60110 0.51510 0.39660 -0.30300
O 	O 	0.62990 0.65630 0.33450 -0.44600
O 	O 	0.38860 0.57650 0.41330 -0.41900
O 	O 	0.33540 0.58370 0.49050 -0.30600
O 	O 	0.32482 0.70500 0.67930 -0.32100
O 	O 	0.38150 0.57780 0.73820 -0.41700
O 	O 	0.18870 0.54560 0.43700 -0.18800
F 	F 	0.51253 0.07990 0.65690 -0.49600
F 	F 	0.55492 0.93570 0.71430 -0.53200
F 	F 	0.56550 0.03530 0.59700 -0.50600
F 	F 	0.48848 0.07580 0.43100 -0.47700
F 	F 	0.43130 0.05360 0.49440 -0.47500
F 	F 	0.43458 0.94540 0.37580 -0.54000
C 	C 	0.16620 0.72680 0.41670 -0.02200
Zn	Zn	0.15151 0.04745 0.25428 1.21300
Zn	Zn	0.84438 0.96257 0.32833 1.21100
C 	C 	0.36480 0.32970 0.51950 0.10900
H 	H 	0.38250 0.38760 0.56030 0.00900
C 	C 	0.31970 0.23720 0.39230 0.03400
H 	H 	0.29970 0.21810 0.32540 0.01300
C 	C 	0.32960 0.16910 0.47440 0.01400
H 	H 	0.31870 0.09670 0.47510 0.06100
C 	C 	0.37940 0.19490 0.66580 -0.13600
H 	H 	0.40460 0.24690 0.70420 0.10900
H 	H 	0.39440 0.12250 0.67020 0.14300
C 	C 	0.34270 0.18930 0.71350 0.05400
H 	H 	0.32960 0.26320 0.71310 0.02700
H 	H 	0.35870 0.16730 0.78510 0.05900
C 	C 	0.31550 0.00480 0.68750 0.02900
H 	H 	0.34080 0.98410 0.66180 0.05900
H 	H 	0.32790 0.99320 0.76160 0.05700
C 	C 	0.27140 0.93530 0.63730 -0.09200
H 	H 	0.24540 0.96110 0.65880 0.06300
H 	H 	0.27860 0.85900 0.66020 0.08300
C 	C 	0.21880 0.00140 0.46280 0.09400
H 	H 	0.20110 0.05120 0.48640 0.01000
C 	C 	0.24610 0.90850 0.36340 0.01500
H 	H 	0.25030 0.88230 0.30430 0.03000
C 	C 	0.27370 0.87850 0.46330 -0.00300
H 	H 	0.29930 0.82830 0.48520 0.06100
C 	C 	0.11730 0.88940 0.10760 0.25800
C 	C 	0.08380 0.80820 0.03410 0.09100
C 	C 	0.05450 0.74150 0.06500 -0.22100
H 	H 	0.05300 0.75260 0.13000 0.16000
C 	C 	0.02600 0.65580 0.00150 0.32400
C 	C 	0.02900 0.64260 0.90440 -0.25000
H 	H 	0.01250 0.58450 0.86190 0.21300
C 	C 	0.05650 0.71510 0.87070 0.13200
H 	H 	0.05730 0.70610 0.80490 0.06200
C 	C 	0.08280 0.80080 0.93280 -0.13100
C 	C 	0.10760 0.88780 0.88600 0.37400
C 	C 	0.99650 0.58070 0.04470 -0.46600
C 	C 	0.96230 0.64940 0.08390 0.32900
C 	C 	0.95510 0.62210 0.17500 -0.23000
H 	H 	0.97190 0.56310 0.21570 0.22100
C 	C 	0.92240 0.68500 0.20370 0.13600
H 	H 	0.91750 0.66750 0.26430 0.05100
C 	C 	0.89710 0.77230 0.14430 -0.13100
C 	C 	0.90350 0.79650 0.05410 0.08300
C 	C 	0.93770 0.73670 0.02430 -0.20900
H 	H 	0.94340 0.75660 0.96510 0.14600
C 	C 	0.86460 0.83330 0.18680 0.35900
C 	C 	0.87240 0.88570 0.98040 0.27600
C 	C 	0.96310 0.50110 0.95990 0.93700
C 	C 	0.03270 0.50650 0.12820 0.99800
C 	C 	0.77480 0.03960 0.13050 0.08500
H 	H 	0.79150 0.00130 0.09580 0.02200
C 	C 	0.75250 0.10570 0.24900 0.02200
H 	H 	0.75090 0.11880 0.31360 0.03100
C 	C 	0.72490 0.15400 0.16330 -0.00300
H 	H 	0.70140 0.20780 0.15650 0.06400
C 	C 	0.71570 0.13390 0.97220 -0.09700
H 	H 	0.70610 0.21120 0.96050 0.07300
H 	H 	0.74000 0.11990 0.94180 0.06700
C 	C 	0.67160 0.05980 0.92110 0.03800
H 	H 	0.65690 0.07560 0.84770 0.06500
H 	H 	0.64740 0.07130 0.95210 0.06600
C 	C 	0.65480 0.87210 0.88340 0.13100
C 	C 	0.61910 0.81120 0.92080 0.09500
C 	C 	0.64610 0.66960 0.06290 0.12700
H 	H 	0.62630 0.61560 0.02000 0.02100
C 	C 	0.68870 0.76050 0.19820 0.03000
H 	H 	0.70440 0.77990 0.26720 0.00900
C 	C 	0.68700 0.82370 0.11630 0.01500
H 	H 	0.70080 0.89320 0.11720 0.06300
N 	N 	0.34220 0.33570 0.41800 -0.26400
N 	N 	0.35890 0.22970 0.55630 -0.08300
N 	N 	0.25480 0.93940 0.52360 -0.09900
N 	N 	0.21110 0.98400 0.36520 -0.26200
N 	N 	0.78350 0.03390 0.23010 -0.26100
N 	N 	0.73720 0.11090 0.08660 -0.09100
N 	N 	0.65950 0.76020 0.03000 -0.10800
N 	N 	0.66400 0.66390 0.16390 -0.25900
O 	O 	0.30328 0.11510 0.66560 -0.18300
O 	O 	0.10197 0.94490 0.16930 -0.40800
O 	O 	0.16058 0.89570 0.11250 -0.29200
O 	O 	0.10110 0.98490 0.89660 -0.30900
O 	O 	0.12990 0.84370 0.83450 -0.44800
O 	O 	0.88860 0.92350 0.91330 -0.41900
O 	O 	0.83540 0.91630 0.99050 -0.30900
O 	O 	0.82482 0.79500 0.17930 -0.32000
O 	O 	0.88150 0.92220 0.23820 -0.41300
O 	O 	0.68870 0.95440 0.93700 -0.19200
F 	F 	0.01253 0.42010 0.15690 -0.49800
F 	F 	0.05492 0.56430 0.21430 -0.53200
F 	F 	0.06550 0.46470 0.09700 -0.50400
F 	F 	0.98848 0.42420 0.93100 -0.47100
F 	F 	0.93130 0.44640 0.99440 -0.47600
F 	F 	0.93458 0.55460 0.87580 -0.53700
C 	C 	0.66620 0.77320 0.91670 -0.02700
Zn	Zn	0.65151 0.54745 0.25428 1.21300
Zn	Zn	0.34438 0.46257 0.32833 1.21100
C 	C 	0.86480 0.82970 0.51950 0.10900
H 	H 	0.88250 0.88760 0.56030 0.01100
C 	C 	0.81970 0.73720 0.39230 0.03400
H 	H 	0.79970 0.71810 0.32540 0.01300
C 	C 	0.82960 0.66910 0.47440 0.01400
H 	H 	0.81870 0.59670 0.47510 0.06100
C 	C 	0.87940 0.69490 0.66580 -0.13800
H 	H 	0.90460 0.74690 0.70420 0.11200
H 	H 	0.89440 0.62250 0.67020 0.14500
C 	C 	0.84270 0.68930 0.71350 0.05500
H 	H 	0.82960 0.76320 0.71310 0.02700
H 	H 	0.85870 0.66730 0.78510 0.05900
C 	C 	0.81550 0.50480 0.68750 0.02700
H 	H 	0.84080 0.48410 0.66180 0.06000
H 	H 	0.82790 0.49320 0.76160 0.05700
C 	C 	0.77140 0.43530 0.63730 -0.09100
H 	H 	0.74540 0.46110 0.65880 0.06300
H 	H 	0.77860 0.35900 0.66020 0.08200
C 	C 	0.71880 0.50140 0.46280 0.09400
H 	H 	0.70110 0.55120 0.48640 0.01000
C 	C 	0.74610 0.40850 0.36340 0.01500
H 	H 	0.75030 0.38230 0.30430 0.03000
C 	C 	0.77370 0.37850 0.46330 -0.00300
H 	H 	0.79930 0.32830 0.48520 0.06100
C 	C 	0.61730 0.38940 0.10760 0.25600
C 	C 	0.58380 0.30820 0.03410 0.09900
C 	C 	0.55450 0.24150 0.06500 -0.23500
H 	H 	0.55300 0.25260 0.13000 0.16800
C 	C 	0.52600 0.15580 0.00150 0.35100
C 	C 	0.52900 0.14260 0.90440 -0.26400
H 	H 	0.51250 0.08450 0.86190 0.22500
C 	C 	0.55650 0.21510 0.87070 0.14400
H 	H 	0.55730 0.20610 0.80490 0.06000
C 	C 	0.58280 0.30080 0.93280 -0.13600
C 	C 	0.60760 0.38780 0.88600 0.37600
C 	C 	0.49650 0.08070 0.04470 -0.49700
C 	C 	0.46230 0.14940 0.08390 0.33400
C 	C 	0.45510 0.12210 0.17500 -0.23500
H 	H 	0.47190 0.06310 0.21570 0.21800
C 	C 	0.42240 0.18500 0.20370 0.13800
H 	H 	0.41750 0.16750 0.26430 0.04900
C 	C 	0.39710 0.27230 0.14430 -0.13400
C 	C 	0.40350 0.29650 0.05410 0.08400
C 	C 	0.43770 0.23670 0.02430 -0.21600
H 	H 	0.44340 0.25660 0.96510 0.14600
C 	C 	0.36460 0.33330 0.18680 0.36000
C 	C 	0.37240 0.38570 0.98040 0.27600
C 	C 	0.46310 0.00110 0.95990 0.94300
C 	C 	0.53270 0.00650 0.12820 1.01700
C 	C 	0.27480 0.53960 0.13050 0.08500
H 	H 	0.29150 0.50130 0.09580 0.02200
C 	C 	0.25250 0.60570 0.24900 0.02200
H 	H 	0.25090 0.61880 0.31360 0.03100
C 	C 	0.22490 0.65400 0.16330 -0.00300
H 	H 	0.20140 0.70780 0.15650 0.06400
C 	C 	0.21570 0.63390 0.97220 -0.09700
H 	H 	0.20610 0.71120 0.96050 0.07300
H 	H 	0.24000 0.61990 0.94180 0.06700
C 	C 	0.17160 0.55980 0.92110 0.03700
H 	H 	0.15690 0.57560 0.84770 0.06400
H 	H 	0.14740 0.57130 0.95210 0.06600
C 	C 	0.15480 0.37210 0.88340 0.13100
C 	C 	0.11910 0.31120 0.92080 0.09200
C 	C 	0.14610 0.16960 0.06290 0.12700
H 	H 	0.12630 0.11560 0.02000 0.02100
C 	C 	0.18870 0.26050 0.19820 0.03000
H 	H 	0.20440 0.27990 0.26720 0.00900
C 	C 	0.18700 0.32370 0.11630 0.01500
H 	H 	0.20080 0.39320 0.11720 0.06300
N 	N 	0.84220 0.83570 0.41800 -0.26300
N 	N 	0.85890 0.72970 0.55630 -0.08300
N 	N 	0.75480 0.43940 0.52360 -0.09900
N 	N 	0.71110 0.48400 0.36520 -0.26200
N 	N 	0.28350 0.53390 0.23010 -0.26100
N 	N 	0.23720 0.61090 0.08660 -0.09100
N 	N 	0.15950 0.26020 0.03000 -0.10800
N 	N 	0.16400 0.16390 0.16390 -0.26000
O 	O 	0.80328 0.61510 0.66560 -0.18300
O 	O 	0.60197 0.44490 0.16930 -0.40500
O 	O 	0.66058 0.39570 0.11250 -0.29100
O 	O 	0.60110 0.48490 0.89660 -0.30700
O 	O 	0.62990 0.34370 0.83450 -0.44800
O 	O 	0.38860 0.42350 0.91330 -0.42000
O 	O 	0.33540 0.41630 0.99050 -0.30900
O 	O 	0.32482 0.29500 0.17930 -0.32000
O 	O 	0.38150 0.42220 0.23820 -0.41500
O 	O 	0.18870 0.45440 0.93700 -0.19200
F 	F 	0.51253 0.92010 0.15690 -0.49400
F 	F 	0.55492 0.06430 0.21430 -0.53200
F 	F 	0.56550 0.96470 0.09700 -0.50500
F 	F 	0.48848 0.92420 0.93100 -0.47900
F 	F 	0.43130 0.94640 0.99440 -0.47800
F 	F 	0.43458 0.05460 0.87580 -0.54100
C 	C 	0.16620 0.27320 0.91670 -0.02600
