data_crystal

_cell_length_a 6.72100
_cell_length_b 10.15690
_cell_length_c 10.15690
_cell_angle_alpha 90.40690
_cell_angle_beta  93.07120
_cell_angle_gamma 86.92880

_symmetry_space_group_name_	'P 1'
_symmetry_space_group_name_H-M	'P 1'

loop_
_symmetry_equiv_pos_as_xyz
  x,y,z

loop_
_atom_site_label
_atom_site_type_symbol
_atom_site_fract_x
_atom_site_fract_y
_atom_site_fract_z
_atom_site_charge
Cd	Cd	0.75000 0.57175 0.57175 1.24700
Cd	Cd	0.25000 0.42825 0.42825 1.24700
H 	H 	0.87460 0.35710 0.20670 0.06100
H 	H 	0.78670 0.73810 0.28410 0.05300
H 	H 	0.77980 0.39630 0.98890 0.06200
H 	H 	0.66670 0.77970 0.06870 0.06100
H 	H 	0.62540 0.20670 0.35710 0.06100
H 	H 	0.71330 0.28410 0.73810 0.05300
H 	H 	0.72020 0.98890 0.39630 0.06200
H 	H 	0.83330 0.06870 0.77970 0.06100
H 	H 	0.12540 0.64290 0.79330 0.06100
H 	H 	0.21330 0.26190 0.71590 0.05300
H 	H 	0.22020 0.60370 0.01110 0.06200
H 	H 	0.33330 0.22030 0.93130 0.06100
H 	H 	0.37460 0.79330 0.64290 0.06100
H 	H 	0.28670 0.71590 0.26190 0.05300
H 	H 	0.27980 0.01110 0.60370 0.06200
H 	H 	0.16670 0.93130 0.22030 0.06100
C 	C 	0.71300 0.59100 0.00220 -0.04800
C 	C 	0.83940 0.44230 0.17750 -0.00500
C 	C 	0.78330 0.66970 0.22290 -0.00500
C 	C 	0.65370 0.61950 0.85970 0.32100
C 	C 	0.77790 0.46640 0.04820 -0.01800
C 	C 	0.71300 0.69510 0.09390 -0.03000
C 	C 	0.78700 0.00220 0.59100 -0.04800
C 	C 	0.66060 0.17750 0.44230 -0.00500
C 	C 	0.71670 0.22290 0.66970 -0.00500
C 	C 	0.84630 0.85970 0.61950 0.32100
C 	C 	0.72210 0.04820 0.46640 -0.01900
C 	C 	0.78700 0.09390 0.69510 -0.03000
C 	C 	0.28700 0.40900 0.99780 -0.04800
C 	C 	0.16060 0.55770 0.82250 -0.00500
C 	C 	0.21670 0.33030 0.77710 -0.00500
C 	C 	0.34630 0.38050 0.14030 0.32100
C 	C 	0.22210 0.53360 0.95180 -0.01800
C 	C 	0.28700 0.30490 0.90610 -0.03000
C 	C 	0.21300 0.99780 0.40900 -0.04800
C 	C 	0.33940 0.82250 0.55770 -0.00500
C 	C 	0.28330 0.77710 0.33030 -0.00500
C 	C 	0.15370 0.14030 0.38050 0.32100
C 	C 	0.27790 0.95180 0.53360 -0.01900
C 	C 	0.21300 0.90610 0.30490 -0.03000
N 	N 	0.84700 0.54570 0.26030 -0.04600
N 	N 	0.65300 0.26030 0.54570 -0.04600
N 	N 	0.15300 0.45430 0.73970 -0.04600
N 	N 	0.34700 0.73970 0.45430 -0.04600
O 	O 	0.55900 0.72100 0.82680 -0.27900
O 	O 	0.92340 0.52380 0.38460 -0.36200
O 	O 	0.71380 0.52849 0.78117 -0.38800
O 	O 	0.94100 0.82680 0.72100 -0.27900
O 	O 	0.57660 0.38460 0.52380 -0.36200
O 	O 	0.78620 0.78117 0.52849 -0.38800
O 	O 	0.44100 0.27900 0.17320 -0.27900
O 	O 	0.07660 0.47620 0.61540 -0.36200
O 	O 	0.28620 0.47151 0.21883 -0.38800
O 	O 	0.05900 0.17320 0.27900 -0.27900
O 	O 	0.42340 0.61540 0.47620 -0.36200
O 	O 	0.21380 0.21883 0.47151 -0.38800
