data_crystal

_cell_length_a 17.10650
_cell_length_b 17.10650
_cell_length_c 17.10650
_cell_angle_alpha 90.00000
_cell_angle_beta  90.00000
_cell_angle_gamma 90.00000

_symmetry_space_group_name_	'P 1'
_symmetry_space_group_name_H-M	'P 1'

loop_
_symmetry_equiv_pos_as_xyz
  x,y,z

loop_
_atom_site_label
_atom_site_type_symbol
_atom_site_fract_x
_atom_site_fract_y
_atom_site_fract_z
_atom_site_charge
N 	N 	0.93800 0.39560 0.22940 0.01900
N 	N 	0.92070 0.44610 0.17380 -0.02600
N 	N 	0.01080 0.36700 0.21460 -0.19000
N 	N 	0.97910 0.45040 0.12110 -0.12500
C 	C 	0.03280 0.40340 0.14950 -0.01800
N 	N 	0.56200 0.10440 0.22940 -0.04700
N 	N 	0.57930 0.05390 0.17380 -0.06300
N 	N 	0.48920 0.13300 0.21460 -0.15800
N 	N 	0.52090 0.04960 0.12110 -0.22800
C 	C 	0.46720 0.09660 0.14950 0.06600
N 	N 	0.56200 0.39560 0.27060 -0.03600
N 	N 	0.57930 0.44610 0.32620 -0.03300
N 	N 	0.48920 0.36700 0.28540 -0.16000
N 	N 	0.52090 0.45040 0.37890 -0.20200
C 	C 	0.46720 0.40340 0.35050 0.09600
N 	N 	0.93800 0.10440 0.27060 0.01000
N 	N 	0.92070 0.05390 0.32620 -0.04300
N 	N 	0.01080 0.13300 0.28540 -0.19200
N 	N 	0.97910 0.04960 0.37890 -0.13200
C 	C 	0.03280 0.09660 0.35050 -0.02400
N 	N 	0.22940 0.93800 0.39560 0.01800
N 	N 	0.17380 0.92070 0.44610 -0.02700
N 	N 	0.21460 0.01080 0.36700 -0.19100
N 	N 	0.12110 0.97910 0.45040 -0.12600
C 	C 	0.14950 0.03280 0.40340 -0.01900
N 	N 	0.22940 0.56200 0.10440 -0.04800
N 	N 	0.17380 0.57930 0.05390 -0.06400
N 	N 	0.21460 0.48920 0.13300 -0.15900
N 	N 	0.12110 0.52090 0.04960 -0.22900
C 	C 	0.14950 0.46720 0.09660 0.06500
N 	N 	0.27060 0.56200 0.39560 -0.03700
N 	N 	0.32620 0.57930 0.44610 -0.03400
N 	N 	0.28540 0.48920 0.36700 -0.16100
N 	N 	0.37890 0.52090 0.45040 -0.20300
C 	C 	0.35050 0.46720 0.40340 0.09500
N 	N 	0.27060 0.93800 0.10440 0.00900
N 	N 	0.32620 0.92070 0.05390 -0.04300
N 	N 	0.28540 0.01080 0.13300 -0.19200
N 	N 	0.37890 0.97910 0.04960 -0.13200
C 	C 	0.35050 0.03280 0.09660 -0.02400
N 	N 	0.39560 0.22940 0.93800 0.01800
N 	N 	0.44610 0.17380 0.92070 -0.02700
N 	N 	0.36700 0.21460 0.01080 -0.19100
N 	N 	0.45040 0.12110 0.97910 -0.12600
C 	C 	0.40340 0.14950 0.03280 -0.01900
N 	N 	0.10440 0.22940 0.56200 -0.04800
N 	N 	0.05390 0.17380 0.57930 -0.06400
N 	N 	0.13300 0.21460 0.48920 -0.15900
N 	N 	0.04960 0.12110 0.52090 -0.22900
C 	C 	0.09660 0.14950 0.46720 0.06500
N 	N 	0.39560 0.27060 0.56200 -0.03700
N 	N 	0.44610 0.32620 0.57930 -0.03400
N 	N 	0.36700 0.28540 0.48920 -0.16100
N 	N 	0.45040 0.37890 0.52090 -0.20300
C 	C 	0.40340 0.35050 0.46720 0.09500
N 	N 	0.10440 0.27060 0.93800 0.00900
N 	N 	0.05390 0.32620 0.92070 -0.04300
N 	N 	0.13300 0.28540 0.01080 -0.19200
N 	N 	0.04960 0.37890 0.97910 -0.13200
C 	C 	0.09660 0.35050 0.03280 -0.02400
N 	N 	0.39560 0.93800 0.27060 0.01800
N 	N 	0.44610 0.92070 0.32620 -0.02100
N 	N 	0.36700 0.01080 0.28540 -0.19200
N 	N 	0.45040 0.97910 0.37890 -0.11900
C 	C 	0.40340 0.03280 0.35050 -0.00400
N 	N 	0.10440 0.56200 0.27060 -0.04800
N 	N 	0.05390 0.57930 0.32620 -0.05700
N 	N 	0.13300 0.48920 0.28540 -0.16100
N 	N 	0.04960 0.52090 0.37890 -0.21900
C 	C 	0.09660 0.46720 0.35050 0.07800
N 	N 	0.39560 0.56200 0.22940 -0.03700
N 	N 	0.44610 0.57930 0.17380 -0.04100
N 	N 	0.36700 0.48920 0.21460 -0.16000
N 	N 	0.45040 0.52090 0.12110 -0.21200
C 	C 	0.40340 0.46720 0.14950 0.08200
N 	N 	0.10440 0.93800 0.22940 0.00800
N 	N 	0.05390 0.92070 0.17380 -0.05000
N 	N 	0.13300 0.01080 0.21460 -0.19000
N 	N 	0.04960 0.97910 0.12110 -0.13900
C 	C 	0.09660 0.03280 0.14950 -0.04000
N 	N 	0.93800 0.22940 0.10440 0.00800
N 	N 	0.92070 0.17380 0.05390 -0.05000
N 	N 	0.01080 0.21460 0.13300 -0.19000
N 	N 	0.97910 0.12110 0.04960 -0.13900
C 	C 	0.03280 0.14950 0.09660 -0.04000
N 	N 	0.56200 0.22940 0.39560 -0.03700
N 	N 	0.57930 0.17380 0.44610 -0.04100
N 	N 	0.48920 0.21460 0.36700 -0.16000
N 	N 	0.52090 0.12110 0.45040 -0.21200
C 	C 	0.46720 0.14950 0.40340 0.08200
N 	N 	0.56200 0.27060 0.10440 -0.04800
N 	N 	0.57930 0.32620 0.05390 -0.05700
N 	N 	0.48920 0.28540 0.13300 -0.16100
N 	N 	0.52090 0.37890 0.04960 -0.21900
C 	C 	0.46720 0.35050 0.09660 0.07800
N 	N 	0.93800 0.27060 0.39560 0.01800
N 	N 	0.92070 0.32620 0.44610 -0.02100
N 	N 	0.01080 0.28540 0.36700 -0.19200
N 	N 	0.97910 0.37890 0.45040 -0.11900
C 	C 	0.03280 0.35050 0.40340 -0.00400
N 	N 	0.22940 0.39560 0.56200 -0.03700
N 	N 	0.17380 0.44610 0.57930 -0.04100
N 	N 	0.21460 0.36700 0.48920 -0.16000
N 	N 	0.12110 0.45040 0.52090 -0.21200
C 	C 	0.14950 0.40340 0.46720 0.08200
N 	N 	0.22940 0.10440 0.93800 0.00800
N 	N 	0.17380 0.05390 0.92070 -0.05000
N 	N 	0.21460 0.13300 0.01080 -0.19000
N 	N 	0.12110 0.04960 0.97910 -0.13900
C 	C 	0.14950 0.09660 0.03280 -0.04000
N 	N 	0.27060 0.39560 0.93800 0.01800
N 	N 	0.32620 0.44610 0.92070 -0.02100
N 	N 	0.28540 0.36700 0.01080 -0.19200
N 	N 	0.37890 0.45040 0.97910 -0.11900
C 	C 	0.35050 0.40340 0.03280 -0.00400
N 	N 	0.27060 0.10440 0.56200 -0.04800
N 	N 	0.32620 0.05390 0.57930 -0.05700
N 	N 	0.28540 0.13300 0.48920 -0.16100
N 	N 	0.37890 0.04960 0.52090 -0.21900
C 	C 	0.35050 0.09660 0.46720 0.07800
N 	N 	0.06200 0.60440 0.77060 -0.08100
N 	N 	0.07930 0.55390 0.82620 -0.03600
N 	N 	0.98920 0.63300 0.78540 -0.13500
N 	N 	0.02090 0.54960 0.87890 -0.25100
C 	C 	0.96720 0.59660 0.85050 0.19900
N 	N 	0.43800 0.89560 0.77060 -0.02100
N 	N 	0.42070 0.94610 0.82620 -0.00200
N 	N 	0.51080 0.86700 0.78540 -0.16300
N 	N 	0.47910 0.95040 0.87890 -0.16000
C 	C 	0.53280 0.90340 0.85050 0.12400
N 	N 	0.43800 0.60440 0.72940 -0.03300
N 	N 	0.42070 0.55390 0.67380 -0.03300
N 	N 	0.51080 0.63300 0.71460 -0.16100
N 	N 	0.47910 0.54960 0.62110 -0.20300
C 	C 	0.53280 0.59660 0.64950 0.09500
N 	N 	0.06200 0.89560 0.72940 -0.06900
N 	N 	0.07930 0.94610 0.67380 -0.02000
N 	N 	0.98920 0.86700 0.71460 -0.13500
N 	N 	0.02090 0.95040 0.62110 -0.24300
C 	C 	0.96720 0.90340 0.64950 0.20000
N 	N 	0.77060 0.06200 0.60440 -0.08100
N 	N 	0.82620 0.07930 0.55390 -0.03600
N 	N 	0.78540 0.98920 0.63300 -0.13500
N 	N 	0.87890 0.02090 0.54960 -0.25100
C 	C 	0.85050 0.96720 0.59660 0.19900
N 	N 	0.77060 0.43800 0.89560 -0.02100
N 	N 	0.82620 0.42070 0.94610 -0.00200
N 	N 	0.78540 0.51080 0.86700 -0.16300
N 	N 	0.87890 0.47910 0.95040 -0.16000
C 	C 	0.85050 0.53280 0.90340 0.12400
N 	N 	0.72940 0.43800 0.60440 -0.03300
N 	N 	0.67380 0.42070 0.55390 -0.03300
N 	N 	0.71460 0.51080 0.63300 -0.16100
N 	N 	0.62110 0.47910 0.54960 -0.20300
C 	C 	0.64950 0.53280 0.59660 0.09500
N 	N 	0.72940 0.06200 0.89560 -0.06900
N 	N 	0.67380 0.07930 0.94610 -0.02000
N 	N 	0.71460 0.98920 0.86700 -0.13500
N 	N 	0.62110 0.02090 0.95040 -0.24300
C 	C 	0.64950 0.96720 0.90340 0.20000
N 	N 	0.60440 0.77060 0.06200 -0.08100
N 	N 	0.55390 0.82620 0.07930 -0.03600
N 	N 	0.63300 0.78540 0.98920 -0.13500
N 	N 	0.54960 0.87890 0.02090 -0.25100
C 	C 	0.59660 0.85050 0.96720 0.19900
N 	N 	0.89560 0.77060 0.43800 -0.02100
N 	N 	0.94610 0.82620 0.42070 -0.00200
N 	N 	0.86700 0.78540 0.51080 -0.16300
N 	N 	0.95040 0.87890 0.47910 -0.16000
C 	C 	0.90340 0.85050 0.53280 0.12400
N 	N 	0.60440 0.72940 0.43800 -0.03300
N 	N 	0.55390 0.67380 0.42070 -0.03300
N 	N 	0.63300 0.71460 0.51080 -0.16100
N 	N 	0.54960 0.62110 0.47910 -0.20300
C 	C 	0.59660 0.64950 0.53280 0.09500
N 	N 	0.89560 0.72940 0.06200 -0.06900
N 	N 	0.94610 0.67380 0.07930 -0.02000
N 	N 	0.86700 0.71460 0.98920 -0.13500
N 	N 	0.95040 0.62110 0.02090 -0.24300
C 	C 	0.90340 0.64950 0.96720 0.20000
N 	N 	0.60440 0.06200 0.72940 -0.08200
N 	N 	0.55390 0.07930 0.67380 -0.04500
N 	N 	0.63300 0.98920 0.71460 -0.13300
N 	N 	0.54960 0.02090 0.62110 -0.27300
C 	C 	0.59660 0.96720 0.64950 0.19000
N 	N 	0.89560 0.43800 0.72940 -0.02100
N 	N 	0.94610 0.42070 0.67380 -0.00900
N 	N 	0.86700 0.51080 0.71460 -0.16200
N 	N 	0.95040 0.47910 0.62110 -0.17800
C 	C 	0.90340 0.53280 0.64950 0.11200
N 	N 	0.60440 0.43800 0.77060 -0.03200
N 	N 	0.55390 0.42070 0.82620 -0.02500
N 	N 	0.63300 0.51080 0.78540 -0.16200
N 	N 	0.54960 0.47910 0.87890 -0.18400
C 	C 	0.59660 0.53280 0.85050 0.10800
N 	N 	0.89560 0.06200 0.77060 -0.06800
N 	N 	0.94610 0.07930 0.82620 -0.01200
N 	N 	0.86700 0.98920 0.78540 -0.13600
N 	N 	0.95040 0.02090 0.87890 -0.22300
C 	C 	0.90340 0.96720 0.85050 0.20700
N 	N 	0.06200 0.77060 0.89560 -0.06800
N 	N 	0.07930 0.82620 0.94610 -0.01200
N 	N 	0.98920 0.78540 0.86700 -0.13600
N 	N 	0.02090 0.87890 0.95040 -0.22300
C 	C 	0.96720 0.85050 0.90340 0.20700
N 	N 	0.43800 0.77060 0.60440 -0.03200
N 	N 	0.42070 0.82620 0.55390 -0.02500
N 	N 	0.51080 0.78540 0.63300 -0.16200
N 	N 	0.47910 0.87890 0.54960 -0.18400
C 	C 	0.53280 0.85050 0.59660 0.10800
N 	N 	0.43800 0.72940 0.89560 -0.02100
N 	N 	0.42070 0.67380 0.94610 -0.00900
N 	N 	0.51080 0.71460 0.86700 -0.16200
N 	N 	0.47910 0.62110 0.95040 -0.17800
C 	C 	0.53280 0.64950 0.90340 0.11200
N 	N 	0.06200 0.72940 0.60440 -0.08200
N 	N 	0.07930 0.67380 0.55390 -0.04500
N 	N 	0.98920 0.71460 0.63300 -0.13300
N 	N 	0.02090 0.62110 0.54960 -0.27300
C 	C 	0.96720 0.64950 0.59660 0.19000
N 	N 	0.77060 0.60440 0.43800 -0.03200
N 	N 	0.82620 0.55390 0.42070 -0.02500
N 	N 	0.78540 0.63300 0.51080 -0.16200
N 	N 	0.87890 0.54960 0.47910 -0.18400
C 	C 	0.85050 0.59660 0.53280 0.10800
N 	N 	0.77060 0.89560 0.06200 -0.06800
N 	N 	0.82620 0.94610 0.07930 -0.01200
N 	N 	0.78540 0.86700 0.98920 -0.13600
N 	N 	0.87890 0.95040 0.02090 -0.22300
C 	C 	0.85050 0.90340 0.96720 0.20700
N 	N 	0.72940 0.60440 0.06200 -0.08200
N 	N 	0.67380 0.55390 0.07930 -0.04500
N 	N 	0.71460 0.63300 0.98920 -0.13300
N 	N 	0.62110 0.54960 0.02090 -0.27300
C 	C 	0.64950 0.59660 0.96720 0.19000
N 	N 	0.72940 0.89560 0.43800 -0.02100
N 	N 	0.67380 0.94610 0.42070 -0.00900
N 	N 	0.71460 0.86700 0.51080 -0.16200
N 	N 	0.62110 0.95040 0.47910 -0.17800
C 	C 	0.64950 0.90340 0.53280 0.11200
Gd	Gd	0.09161 0.25000 0.25000 1.16900
Gd	Gd	0.40839 0.25000 0.25000 1.19600
Gd	Gd	0.25000 0.09161 0.25000 1.16900
Gd	Gd	0.25000 0.40839 0.25000 1.19600
Gd	Gd	0.25000 0.25000 0.09161 1.16900
Gd	Gd	0.25000 0.25000 0.40839 1.19600
Gd	Gd	0.90839 0.75000 0.75000 1.21900
Gd	Gd	0.59161 0.75000 0.75000 1.19400
Gd	Gd	0.75000 0.90839 0.75000 1.21900
Gd	Gd	0.75000 0.59161 0.75000 1.19400
Gd	Gd	0.75000 0.75000 0.90839 1.21900
Gd	Gd	0.75000 0.75000 0.59161 1.19400
C 	C 	0.11060 0.38940 0.11060 0.05300
O 	O 	0.15760 0.34240 0.15760 -0.51000
C 	C 	0.38940 0.11060 0.11060 0.05300
O 	O 	0.34240 0.15760 0.15760 -0.51000
C 	C 	0.38940 0.38940 0.38940 0.00200
O 	O 	0.34240 0.34240 0.34240 -0.50600
C 	C 	0.11060 0.11060 0.38940 0.05300
O 	O 	0.15760 0.15760 0.34240 -0.51000
C 	C 	0.38940 0.11060 0.38940 0.02700
O 	O 	0.34240 0.15760 0.34240 -0.50800
C 	C 	0.11060 0.38940 0.38940 0.02700
O 	O 	0.15760 0.34240 0.34240 -0.50800
C 	C 	0.38940 0.38940 0.11060 0.02700
O 	O 	0.34240 0.34240 0.15760 -0.50800
C 	C 	0.11060 0.11060 0.11060 0.08100
O 	O 	0.15760 0.15760 0.15760 -0.51200
C 	C 	0.88940 0.61060 0.88940 -0.03700
O 	O 	0.84240 0.65760 0.84240 -0.50700
C 	C 	0.61060 0.88940 0.88940 -0.03700
O 	O 	0.65760 0.84240 0.84240 -0.50700
C 	C 	0.61060 0.61060 0.61060 0.00200
O 	O 	0.65760 0.65760 0.65760 -0.50900
C 	C 	0.88940 0.88940 0.61060 -0.03700
O 	O 	0.84240 0.84240 0.65760 -0.50700
C 	C 	0.61060 0.88940 0.61060 -0.01900
O 	O 	0.65760 0.84240 0.65760 -0.50800
C 	C 	0.88940 0.61060 0.61060 -0.01900
O 	O 	0.84240 0.65760 0.65760 -0.50800
C 	C 	0.61060 0.61060 0.88940 -0.01900
O 	O 	0.65760 0.65760 0.84240 -0.50800
C 	C 	0.88940 0.88940 0.88940 -0.05200
O 	O 	0.84240 0.84240 0.84240 -0.50700
Mn	Mn	-0.00000 0.50000 -0.00000 1.16200
Mn	Mn	0.50000 0.00000 -0.00000 1.16200
Mn	Mn	0.50000 0.50000 0.50000 1.24600
Mn	Mn	0.00000 0.00000 0.50000 1.16200
Mn	Mn	0.50000 0.00000 0.50000 1.20500
Mn	Mn	0.00000 0.50000 0.50000 1.20500
Mn	Mn	0.50000 0.50000 -0.00000 1.20500
Mn	Mn	-0.00000 0.00000 -0.00000 1.11700
