data_crystal

_cell_length_a 19.43900
_cell_length_b 12.99100
_cell_length_c 9.71630
_cell_angle_alpha 90.00000
_cell_angle_beta  93.31000
_cell_angle_gamma 90.00000

_symmetry_space_group_name_	'P 1'
_symmetry_space_group_name_H-M	'P 1'

loop_
_symmetry_equiv_pos_as_xyz
  x,y,z

loop_
_atom_site_label
_atom_site_type_symbol
_atom_site_fract_x
_atom_site_fract_y
_atom_site_fract_z
_atom_site_charge
Gd	Gd	0.33255 0.33092 0.09794 1.81800
Gd	Gd	0.12294 0.64739 0.99648 1.65200
S 	S 	0.31044 0.59311 0.96527 0.94000
S 	S 	0.34902 0.11284 0.86784 0.91000
O 	O 	0.37310 0.16930 0.74700 -0.52300
O 	O 	0.24200 0.18550 0.10790 -0.58200
O 	O 	0.37170 0.17000 0.99430 -0.50800
O 	O 	0.33930 0.50920 0.05230 -0.50600
O 	O 	0.23460 0.58500 0.95450 -0.49700
O 	O 	0.31730 0.19030 0.28170 -0.55800
O 	O 	0.33990 0.58670 0.82850 -0.47900
O 	O 	0.33010 0.69190 0.03310 -0.52300
O 	O 	0.53790 0.18010 0.15710 -0.52800
O 	O 	0.38120 0.00900 0.87160 -0.51400
O 	O 	0.45120 0.31350 0.16920 -0.52600
O 	O 	0.27450 0.10080 0.85540 -0.50800
C 	C 	0.26730 0.14600 0.21690 0.62300
H 	H 	0.24930 0.08920 0.25630 -0.18300
Gd	Gd	0.83255 0.83092 0.09794 1.80500
Gd	Gd	0.62294 0.14739 0.99648 1.68300
S 	S 	0.81044 0.09311 0.96527 0.93400
S 	S 	0.84902 0.61284 0.86784 0.91100
O 	O 	0.87310 0.66930 0.74700 -0.51200
O 	O 	0.74200 0.68550 0.10790 -0.58900
O 	O 	0.87170 0.67000 0.99430 -0.49200
O 	O 	0.83930 0.00920 0.05230 -0.49500
O 	O 	0.73460 0.08500 0.95450 -0.50000
O 	O 	0.81730 0.69030 0.28170 -0.56000
O 	O 	0.83990 0.08670 0.82850 -0.47400
O 	O 	0.83010 0.19190 0.03310 -0.51800
O 	O 	0.03790 0.68010 0.15710 -0.51700
O 	O 	0.88120 0.50900 0.87160 -0.50200
O 	O 	0.95120 0.81350 0.16920 -0.45000
O 	O 	0.77450 0.60080 0.85540 -0.50900
C 	C 	0.76730 0.64600 0.21690 0.62800
H 	H 	0.74930 0.58920 0.25630 -0.18600
Gd	Gd	0.66745 0.33092 0.40206 1.81200
Gd	Gd	0.87706 0.64739 0.50352 1.70500
S 	S 	0.68956 0.59311 0.53473 0.94000
S 	S 	0.65098 0.11284 0.63216 0.91100
O 	O 	0.62690 0.16930 0.75300 -0.52300
O 	O 	0.75800 0.18550 0.39210 -0.58600
O 	O 	0.62830 0.17000 0.50570 -0.50700
O 	O 	0.66070 0.50920 0.44770 -0.50600
O 	O 	0.76540 0.58500 0.54550 -0.50200
O 	O 	0.68270 0.19030 0.21830 -0.55800
O 	O 	0.66010 0.58670 0.67150 -0.48000
O 	O 	0.66990 0.69190 0.46690 -0.52400
O 	O 	0.46210 0.18010 0.34290 -0.53000
O 	O 	0.61880 0.00900 0.62840 -0.51400
O 	O 	0.54880 0.31350 0.33080 -0.52700
O 	O 	0.72550 0.10080 0.64460 -0.51000
C 	C 	0.73270 0.14600 0.28310 0.62500
H 	H 	0.75070 0.08920 0.24370 -0.18300
Gd	Gd	0.16745 0.83092 0.40206 1.79400
Gd	Gd	0.37706 0.14739 0.50352 1.68500
S 	S 	0.18956 0.09311 0.53473 0.93600
S 	S 	0.15098 0.61284 0.63216 0.90800
O 	O 	0.12690 0.66930 0.75300 -0.53000
O 	O 	0.25800 0.68550 0.39210 -0.58500
O 	O 	0.12830 0.67000 0.50570 -0.51400
O 	O 	0.16070 0.00920 0.44770 -0.51200
O 	O 	0.26540 0.08500 0.54550 -0.49900
O 	O 	0.18270 0.69030 0.21830 -0.55500
O 	O 	0.16010 0.08670 0.67150 -0.48400
O 	O 	0.16990 0.19190 0.46690 -0.52400
O 	O 	0.96210 0.68010 0.34290 -0.45100
O 	O 	0.11880 0.50900 0.62840 -0.52000
O 	O 	0.04880 0.81350 0.33080 -0.51300
O 	O 	0.22550 0.60080 0.64460 -0.50800
C 	C 	0.23270 0.64600 0.28310 0.62300
H 	H 	0.25070 0.58920 0.24370 -0.18300
Gd	Gd	0.66745 0.66908 0.90206 1.81900
Gd	Gd	0.87706 0.35261 0.00352 1.70300
S 	S 	0.68956 0.40689 0.03473 0.94000
S 	S 	0.65098 0.88716 0.13216 0.91100
O 	O 	0.62690 0.83070 0.25300 -0.52300
O 	O 	0.75800 0.81450 0.89210 -0.58200
O 	O 	0.62830 0.83000 0.00570 -0.51000
O 	O 	0.66070 0.49080 0.94770 -0.50600
O 	O 	0.76540 0.41500 0.04550 -0.50200
O 	O 	0.68270 0.80970 0.71830 -0.55800
O 	O 	0.66010 0.41330 0.17150 -0.48000
O 	O 	0.66990 0.30810 0.96690 -0.52400
O 	O 	0.46210 0.81990 0.84290 -0.52700
O 	O 	0.61880 0.99100 0.12840 -0.51500
O 	O 	0.54880 0.68650 0.83080 -0.52600
O 	O 	0.72550 0.89920 0.14460 -0.51100
C 	C 	0.73270 0.85400 0.78310 0.62500
H 	H 	0.75070 0.91080 0.74370 -0.18300
Gd	Gd	0.16745 0.16908 0.90206 1.78600
Gd	Gd	0.37706 0.85261 0.00352 1.68100
S 	S 	0.18956 0.90689 0.03473 0.92900
S 	S 	0.15098 0.38716 0.13216 0.90800
O 	O 	0.12690 0.33070 0.25300 -0.52900
O 	O 	0.25800 0.31450 0.89210 -0.58600
O 	O 	0.12830 0.33000 0.00570 -0.51000
O 	O 	0.16070 0.99080 0.94770 -0.50600
O 	O 	0.26540 0.91500 0.04550 -0.49800
O 	O 	0.18270 0.30970 0.71830 -0.55500
O 	O 	0.16010 0.91330 0.17150 -0.48300
O 	O 	0.16990 0.80810 0.96690 -0.52000
O 	O 	0.96210 0.31990 0.84290 -0.44700
O 	O 	0.11880 0.49100 0.12840 -0.51900
O 	O 	0.04880 0.18650 0.83080 -0.51200
O 	O 	0.22550 0.39920 0.14460 -0.50700
C 	C 	0.23270 0.35400 0.78310 0.62300
H 	H 	0.25070 0.41080 0.74370 -0.18300
Gd	Gd	0.33255 0.66908 0.59794 1.81200
Gd	Gd	0.12294 0.35261 0.49648 1.65000
S 	S 	0.31044 0.40689 0.46527 0.93800
S 	S 	0.34902 0.88716 0.36784 0.91000
O 	O 	0.37310 0.83070 0.24700 -0.52200
O 	O 	0.24200 0.81450 0.60790 -0.58500
O 	O 	0.37170 0.83000 0.49430 -0.50600
O 	O 	0.33930 0.49080 0.55230 -0.50500
O 	O 	0.23460 0.41500 0.45450 -0.49600
O 	O 	0.31730 0.80970 0.78170 -0.55700
O 	O 	0.33990 0.41330 0.32850 -0.47900
O 	O 	0.33010 0.30810 0.53310 -0.52300
O 	O 	0.53790 0.81990 0.65710 -0.53000
O 	O 	0.38120 0.99100 0.37160 -0.51300
O 	O 	0.45120 0.68650 0.66920 -0.52700
O 	O 	0.27450 0.89920 0.35540 -0.50800
C 	C 	0.26730 0.85400 0.71690 0.62300
H 	H 	0.24930 0.91080 0.75630 -0.18300
Gd	Gd	0.83255 0.16908 0.59794 1.81400
Gd	Gd	0.62294 0.85261 0.49648 1.68500
S 	S 	0.81044 0.90689 0.46527 0.94000
S 	S 	0.84902 0.38716 0.36784 0.91100
O 	O 	0.87310 0.33070 0.24700 -0.51300
O 	O 	0.74200 0.31450 0.60790 -0.58700
O 	O 	0.87170 0.33000 0.49430 -0.49600
O 	O 	0.83930 0.99080 0.55230 -0.50000
O 	O 	0.73460 0.91500 0.45450 -0.50100
O 	O 	0.81730 0.30970 0.78170 -0.56000
O 	O 	0.83990 0.91330 0.32850 -0.47500
O 	O 	0.83010 0.80810 0.53310 -0.52100
O 	O 	0.03790 0.31990 0.65710 -0.51600
O 	O 	0.88120 0.49100 0.37160 -0.50400
O 	O 	0.95120 0.18650 0.66920 -0.44500
O 	O 	0.77450 0.39920 0.35540 -0.51000
C 	C 	0.76730 0.35400 0.71690 0.62700
H 	H 	0.74930 0.41080 0.75630 -0.18500
S 	S 	0.50000 0.24700 0.25000 0.94900
S 	S 	-0.00000 0.74700 0.25000 0.77500
S 	S 	0.50000 0.75300 0.75000 0.94900
S 	S 	0.00000 0.25300 0.75000 0.76500
