data_crystal

_cell_length_a 22.13000
_cell_length_b 7.77400
_cell_length_c 6.65500
_cell_angle_alpha 90.00000
_cell_angle_beta  105.28000
_cell_angle_gamma 90.00000

_symmetry_space_group_name_	'P 1'
_symmetry_space_group_name_H-M	'P 1'

loop_
_symmetry_equiv_pos_as_xyz
  x,y,z

loop_
_atom_site_label
_atom_site_type_symbol
_atom_site_fract_x
_atom_site_fract_y
_atom_site_fract_z
_atom_site_charge
O 	O 	0.35110 0.37300 0.47600 -0.30000
O 	O 	0.34700 0.31500 0.16500 -0.33000
O 	O 	0.30400 0.18200 0.75000 -0.14600
O 	O 	0.44700 0.33400 0.94800 -0.31400
C 	C 	0.37200 0.40150 0.31900 0.21300
C 	C 	0.29500 0.18940 0.57300 0.15900
O 	O 	0.33000 0.21100 0.85700 -0.18800
O 	O 	0.85110 0.87300 0.47600 -0.25600
O 	O 	0.84700 0.81500 0.16500 -0.31000
O 	O 	0.80400 0.68200 0.75000 -0.16200
O 	O 	0.94700 0.83400 0.94800 -0.26300
C 	C 	0.87200 0.90150 0.31900 0.35000
C 	C 	0.79500 0.68940 0.57300 0.20100
O 	O 	0.83000 0.71100 0.85700 -0.10900
O 	O 	0.64890 0.37300 0.52400 -0.29700
O 	O 	0.65300 0.31500 0.83500 -0.29500
O 	O 	0.69600 0.18200 0.25000 -0.13600
O 	O 	0.55300 0.33400 0.05200 -0.34800
C 	C 	0.62800 0.40150 0.68100 0.21500
C 	C 	0.70500 0.18940 0.42700 0.15400
O 	O 	0.67000 0.21100 0.14300 -0.21800
O 	O 	0.14890 0.87300 0.52400 -0.25400
O 	O 	0.15300 0.81500 0.83500 -0.27400
O 	O 	0.19600 0.68200 0.25000 -0.15000
O 	O 	0.05300 0.83400 0.05200 -0.31000
C 	C 	0.12800 0.90150 0.68100 0.34800
C 	C 	0.20500 0.68940 0.42700 0.19400
O 	O 	0.17000 0.71100 0.14300 -0.14200
O 	O 	0.64890 0.62700 0.52400 -0.28500
O 	O 	0.65300 0.68500 0.83500 -0.26100
O 	O 	0.69600 0.81800 0.25000 -0.14600
O 	O 	0.55300 0.66600 0.05200 -0.30800
C 	C 	0.62800 0.59850 0.68100 0.22500
C 	C 	0.70500 0.81060 0.42700 0.26200
O 	O 	0.67000 0.78900 0.14300 -0.15100
O 	O 	0.14890 0.12700 0.52400 -0.29300
O 	O 	0.15300 0.18500 0.83500 -0.26000
O 	O 	0.19600 0.31800 0.25000 -0.12500
O 	O 	0.05300 0.16600 0.05200 -0.31100
C 	C 	0.12800 0.09850 0.68100 0.09000
C 	C 	0.20500 0.31060 0.42700 0.15700
O 	O 	0.17000 0.28900 0.14300 -0.19800
O 	O 	0.35110 0.62700 0.47600 -0.28800
O 	O 	0.34700 0.68500 0.16500 -0.29800
O 	O 	0.30400 0.81800 0.75000 -0.15700
O 	O 	0.44700 0.66600 0.94800 -0.27300
C 	C 	0.37200 0.59850 0.31900 0.22300
C 	C 	0.29500 0.81060 0.57300 0.26600
O 	O 	0.33000 0.78900 0.85700 -0.12100
O 	O 	0.85110 0.12700 0.47600 -0.29600
O 	O 	0.84700 0.18500 0.16500 -0.29500
O 	O 	0.80400 0.31800 0.75000 -0.13600
O 	O 	0.94700 0.16600 0.94800 -0.26500
C 	C 	0.87200 0.09850 0.31900 0.09200
C 	C 	0.79500 0.31060 0.57300 0.16300
O 	O 	0.83000 0.28900 0.85700 -0.16600
La	La	0.34690 0.50000 0.84650 1.71700
La	La	0.84690 0.00000 0.84650 1.57000
La	La	0.65310 0.50000 0.15350 1.68200
La	La	0.15310 0.00000 0.15350 1.53700
O 	O 	0.26900 0.00000 0.50500 -0.33200
O 	O 	0.76900 0.50000 0.50500 -0.24200
O 	O 	0.73100 0.00000 0.49500 -0.33100
O 	O 	0.23100 0.50000 0.49500 -0.24100
C 	C 	0.50000 0.40150 -0.00000 0.20200
C 	C 	-0.00000 0.90150 -0.00000 0.31600
C 	C 	0.50000 0.59850 -0.00000 0.19600
C 	C 	-0.00000 0.09850 -0.00000 0.04900
