data_crystal

_cell_length_a 9.16830
_cell_length_b 9.16830
_cell_length_c 16.02390
_cell_angle_alpha 73.89790
_cell_angle_beta  73.89790
_cell_angle_gamma 72.32300

_symmetry_space_group_name_	'P 1'
_symmetry_space_group_name_H-M	'P 1'

loop_
_symmetry_equiv_pos_as_xyz
  x,y,z

loop_
_atom_site_label
_atom_site_type_symbol
_atom_site_fract_x
_atom_site_fract_y
_atom_site_fract_z
_atom_site_charge
Cd	Cd	0.75199 0.66863 0.15939 1.17600
Cd	Cd	0.33137 0.24801 0.34061 1.17600
Cd	Cd	0.24801 0.33137 0.84061 1.17600
Cd	Cd	0.66863 0.75199 0.65939 1.17600
Cd	Cd	0.01399 0.98601 0.25000 1.20400
Cd	Cd	0.98601 0.01399 0.75000 1.20400
H 	H 	0.63360 0.73120 0.97260 0.01600
H 	H 	0.39340 0.84660 0.25830 -0.03600
H 	H 	0.11510 0.02890 0.02310 0.03400
H 	H 	0.26880 0.36640 0.52740 0.01800
H 	H 	0.15340 0.60660 0.24170 -0.03700
H 	H 	0.97110 0.88490 0.47690 0.02900
H 	H 	0.36640 0.26880 0.02740 0.01600
H 	H 	0.60660 0.15340 0.74170 -0.03600
H 	H 	0.88490 0.97110 0.97690 0.03400
H 	H 	0.73120 0.63360 0.47260 0.01800
H 	H 	0.84660 0.39340 0.75830 -0.03700
H 	H 	0.02890 0.11510 0.52310 0.02900
C 	C 	0.52780 0.80560 0.82560 0.28300
C 	C 	0.44750 0.84410 0.91440 -0.03800
C 	C 	0.53060 0.79040 0.98250 -0.07800
C 	C 	0.45750 0.82650 0.06510 0.02300
C 	C 	0.38880 0.85380 0.20000 0.09800
C 	C 	0.30280 0.91340 0.08080 0.04600
C 	C 	0.21830 0.97010 0.01290 -0.12200
C 	C 	0.29210 0.93630 0.93070 -0.07900
C 	C 	0.19190 0.99070 0.86250 0.32600
C 	C 	0.19440 0.47220 0.67440 0.28200
C 	C 	0.15590 0.55250 0.58560 -0.03400
C 	C 	0.20960 0.46940 0.51750 -0.08300
C 	C 	0.17350 0.54250 0.43490 0.02800
C 	C 	0.14620 0.61120 0.30000 0.09800
C 	C 	0.08660 0.69720 0.41920 0.04200
C 	C 	0.02990 0.78170 0.48710 -0.10900
C 	C 	0.06370 0.70790 0.56930 -0.08700
C 	C 	0.00930 0.80810 0.63750 0.32700
C 	C 	0.47220 0.19440 0.17440 0.28300
C 	C 	0.55250 0.15590 0.08560 -0.03800
C 	C 	0.46940 0.20960 0.01750 -0.07800
C 	C 	0.54250 0.17350 0.93490 0.02300
C 	C 	0.61120 0.14620 0.80000 0.09800
C 	C 	0.69720 0.08660 0.91920 0.04600
C 	C 	0.78170 0.02990 0.98710 -0.12200
C 	C 	0.70790 0.06370 0.06930 -0.07900
C 	C 	0.80810 0.00930 0.13750 0.32600
C 	C 	0.80560 0.52780 0.32560 0.28200
C 	C 	0.84410 0.44750 0.41440 -0.03400
C 	C 	0.79040 0.53060 0.48250 -0.08300
C 	C 	0.82650 0.45750 0.56510 0.02800
C 	C 	0.85380 0.38880 0.70000 0.09800
C 	C 	0.91340 0.30280 0.58080 0.04200
C 	C 	0.97010 0.21830 0.51290 -0.10900
C 	C 	0.93630 0.29210 0.43070 -0.08700
C 	C 	0.99070 0.19190 0.36250 0.32700
N 	N 	0.51070 0.78970 0.14250 -0.26900
N 	N 	0.25950 0.92930 0.16810 -0.25700
N 	N 	0.21030 0.48930 0.35750 -0.27000
N 	N 	0.07070 0.74050 0.33190 -0.25700
N 	N 	0.48930 0.21030 0.85750 -0.26900
N 	N 	0.74050 0.07070 0.83190 -0.25700
N 	N 	0.78970 0.51070 0.64250 -0.27000
N 	N 	0.92930 0.25950 0.66810 -0.25700
O 	O 	0.64200 0.68680 0.82120 -0.38600
O 	O 	0.48280 0.89460 0.75730 -0.41900
O 	O 	0.14320 0.13480 0.83280 -0.48200
O 	O 	0.15330 0.88830 0.83980 -0.43900
O 	O 	0.31320 0.35800 0.67880 -0.38500
O 	O 	0.10540 0.51720 0.74270 -0.41900
O 	O 	0.86520 0.85680 0.66720 -0.48100
O 	O 	0.11170 0.84670 0.66020 -0.43900
O 	O 	0.35800 0.31320 0.17880 -0.38600
O 	O 	0.51720 0.10540 0.24270 -0.41900
O 	O 	0.85680 0.86520 0.16720 -0.48200
O 	O 	0.84670 0.11170 0.16020 -0.43900
O 	O 	0.68680 0.64200 0.32120 -0.38500
O 	O 	0.89460 0.48280 0.25730 -0.41900
O 	O 	0.13480 0.14320 0.33280 -0.48100
O 	O 	0.88830 0.15330 0.33980 -0.43900
