data_crystal

_cell_length_a 22.42500
_cell_length_b 22.42500
_cell_length_c 22.42500
_cell_angle_alpha 90.00000
_cell_angle_beta  90.00000
_cell_angle_gamma 90.00000

_symmetry_space_group_name_	'P 1'
_symmetry_space_group_name_H-M	'P 1'

loop_
_symmetry_equiv_pos_as_xyz
  x,y,z

loop_
_atom_site_label
_atom_site_type_symbol
_atom_site_fract_x
_atom_site_fract_y
_atom_site_fract_z
_atom_site_charge
Br	Br	0.66427 0.42066 0.12080 -0.09600
C 	C 	0.71200 0.41730 0.05220 0.04000
C 	C 	0.68500 0.41600 0.99710 0.11600
C 	C 	0.77400 0.41520 0.05980 0.11800
O 	O 	0.62980 0.41560 0.98760 -0.18500
O 	O 	0.80240 0.41120 0.10830 -0.19100
Br	Br	0.16427 0.92066 0.62080 -0.09600
C 	C 	0.21200 0.91730 0.55220 0.04000
C 	C 	0.18500 0.91600 0.49710 0.11600
C 	C 	0.27400 0.91520 0.55980 0.11800
O 	O 	0.12980 0.91560 0.48760 -0.18500
O 	O 	0.30240 0.91120 0.60830 -0.19100
Br	Br	0.83573 0.57934 0.62080 -0.09600
C 	C 	0.78800 0.58270 0.55220 0.04000
C 	C 	0.81500 0.58400 0.49710 0.11600
C 	C 	0.72600 0.58480 0.55980 0.11800
O 	O 	0.87020 0.58440 0.48760 -0.18600
O 	O 	0.69760 0.58880 0.60830 -0.19200
Br	Br	0.33573 0.07934 0.12080 -0.09700
C 	C 	0.28800 0.08270 0.05220 0.03900
C 	C 	0.31500 0.08400 0.99710 0.11500
C 	C 	0.22600 0.08480 0.05980 0.11700
O 	O 	0.37020 0.08440 0.98760 -0.18600
O 	O 	0.19760 0.08880 0.10830 -0.19200
Br	Br	0.33573 0.92066 0.37920 -0.09700
C 	C 	0.28800 0.91730 0.44780 0.03900
C 	C 	0.31500 0.91600 0.50290 0.11500
C 	C 	0.22600 0.91520 0.44020 0.11700
O 	O 	0.37020 0.91560 0.51240 -0.18600
O 	O 	0.19760 0.91120 0.39170 -0.19200
Br	Br	0.83573 0.42066 0.87920 -0.09700
C 	C 	0.78800 0.41730 0.94780 0.03900
C 	C 	0.81500 0.41600 0.00290 0.11500
C 	C 	0.72600 0.41520 0.94020 0.11700
O 	O 	0.87020 0.41560 0.01240 -0.18600
O 	O 	0.69760 0.41120 0.89170 -0.19200
Br	Br	0.16427 0.07934 0.87920 -0.09700
C 	C 	0.21200 0.08270 0.94780 0.03900
C 	C 	0.18500 0.08400 0.00290 0.11500
C 	C 	0.27400 0.08480 0.94020 0.11700
O 	O 	0.12980 0.08440 0.01240 -0.18600
O 	O 	0.30240 0.08880 0.89170 -0.19200
Br	Br	0.66427 0.57934 0.37920 -0.09700
C 	C 	0.71200 0.58270 0.44780 0.03900
C 	C 	0.68500 0.58400 0.50290 0.11500
C 	C 	0.77400 0.58480 0.44020 0.11700
O 	O 	0.62980 0.58440 0.51240 -0.18600
O 	O 	0.80240 0.58880 0.39170 -0.19200
Br	Br	0.12080 0.66427 0.42066 -0.09700
C 	C 	0.05220 0.71200 0.41730 0.03900
C 	C 	0.99710 0.68500 0.41600 0.11500
C 	C 	0.05980 0.77400 0.41520 0.11700
O 	O 	0.98760 0.62980 0.41560 -0.18600
O 	O 	0.10830 0.80240 0.41120 -0.19200
Br	Br	0.62080 0.16427 0.92066 -0.09700
C 	C 	0.55220 0.21200 0.91730 0.03900
C 	C 	0.49710 0.18500 0.91600 0.11500
C 	C 	0.55980 0.27400 0.91520 0.11700
O 	O 	0.48760 0.12980 0.91560 -0.18600
O 	O 	0.60830 0.30240 0.91120 -0.19200
Br	Br	0.62080 0.83573 0.57934 -0.09700
C 	C 	0.55220 0.78800 0.58270 0.03900
C 	C 	0.49710 0.81500 0.58400 0.11500
C 	C 	0.55980 0.72600 0.58480 0.11700
O 	O 	0.48760 0.87020 0.58440 -0.18600
O 	O 	0.60830 0.69760 0.58880 -0.19200
Br	Br	0.12080 0.33573 0.07934 -0.09700
C 	C 	0.05220 0.28800 0.08270 0.03900
C 	C 	0.99710 0.31500 0.08400 0.11500
C 	C 	0.05980 0.22600 0.08480 0.11700
O 	O 	0.98760 0.37020 0.08440 -0.18600
O 	O 	0.10830 0.19760 0.08880 -0.19200
Br	Br	0.37920 0.33573 0.92066 -0.09700
C 	C 	0.44780 0.28800 0.91730 0.03900
C 	C 	0.50290 0.31500 0.91600 0.11500
C 	C 	0.44020 0.22600 0.91520 0.11700
O 	O 	0.51240 0.37020 0.91560 -0.18600
O 	O 	0.39170 0.19760 0.91120 -0.19200
Br	Br	0.87920 0.83573 0.42066 -0.09700
C 	C 	0.94780 0.78800 0.41730 0.03900
C 	C 	0.00290 0.81500 0.41600 0.11500
C 	C 	0.94020 0.72600 0.41520 0.11700
O 	O 	0.01240 0.87020 0.41560 -0.18600
O 	O 	0.89170 0.69760 0.41120 -0.19200
Br	Br	0.87920 0.16427 0.07934 -0.09700
C 	C 	0.94780 0.21200 0.08270 0.03900
C 	C 	0.00290 0.18500 0.08400 0.11500
C 	C 	0.94020 0.27400 0.08480 0.11700
O 	O 	0.01240 0.12980 0.08440 -0.18600
O 	O 	0.89170 0.30240 0.08880 -0.19200
Br	Br	0.37920 0.66427 0.57934 -0.09700
C 	C 	0.44780 0.71200 0.58270 0.03900
C 	C 	0.50290 0.68500 0.58400 0.11500
C 	C 	0.44020 0.77400 0.58480 0.11700
O 	O 	0.51240 0.62980 0.58440 -0.18600
O 	O 	0.39170 0.80240 0.58880 -0.19200
Br	Br	0.42066 0.12080 0.66427 -0.09700
C 	C 	0.41730 0.05220 0.71200 0.03900
C 	C 	0.41600 0.99710 0.68500 0.11500
C 	C 	0.41520 0.05980 0.77400 0.11700
O 	O 	0.41560 0.98760 0.62980 -0.18600
O 	O 	0.41120 0.10830 0.80240 -0.19200
Br	Br	0.92066 0.62080 0.16427 -0.09700
C 	C 	0.91730 0.55220 0.21200 0.03900
C 	C 	0.91600 0.49710 0.18500 0.11500
C 	C 	0.91520 0.55980 0.27400 0.11700
O 	O 	0.91560 0.48760 0.12980 -0.18600
O 	O 	0.91120 0.60830 0.30240 -0.19200
Br	Br	0.57934 0.62080 0.83573 -0.09700
C 	C 	0.58270 0.55220 0.78800 0.03900
C 	C 	0.58400 0.49710 0.81500 0.11500
C 	C 	0.58480 0.55980 0.72600 0.11700
O 	O 	0.58440 0.48760 0.87020 -0.18600
O 	O 	0.58880 0.60830 0.69760 -0.19200
Br	Br	0.07934 0.12080 0.33573 -0.09700
C 	C 	0.08270 0.05220 0.28800 0.03900
C 	C 	0.08400 0.99710 0.31500 0.11500
C 	C 	0.08480 0.05980 0.22600 0.11700
O 	O 	0.08440 0.98760 0.37020 -0.18600
O 	O 	0.08880 0.10830 0.19760 -0.19200
Br	Br	0.92066 0.37920 0.33573 -0.09700
C 	C 	0.91730 0.44780 0.28800 0.03900
C 	C 	0.91600 0.50290 0.31500 0.11500
C 	C 	0.91520 0.44020 0.22600 0.11700
O 	O 	0.91560 0.51240 0.37020 -0.18600
O 	O 	0.91120 0.39170 0.19760 -0.19200
Br	Br	0.42066 0.87920 0.83573 -0.09700
C 	C 	0.41730 0.94780 0.78800 0.03900
C 	C 	0.41600 0.00290 0.81500 0.11500
C 	C 	0.41520 0.94020 0.72600 0.11700
O 	O 	0.41560 0.01240 0.87020 -0.18600
O 	O 	0.41120 0.89170 0.69760 -0.19200
Br	Br	0.07934 0.87920 0.16427 -0.09700
C 	C 	0.08270 0.94780 0.21200 0.03900
C 	C 	0.08400 0.00290 0.18500 0.11500
C 	C 	0.08480 0.94020 0.27400 0.11700
O 	O 	0.08440 0.01240 0.12980 -0.18600
O 	O 	0.08880 0.89170 0.30240 -0.19200
Br	Br	0.57934 0.37920 0.66427 -0.09700
C 	C 	0.58270 0.44780 0.71200 0.03900
C 	C 	0.58400 0.50290 0.68500 0.11500
C 	C 	0.58480 0.44020 0.77400 0.11700
O 	O 	0.58440 0.51240 0.62980 -0.18600
O 	O 	0.58880 0.39170 0.80240 -0.19200
Na	Na	0.60353 0.39647 0.89647 0.61100
Na	Na	0.10353 0.89647 0.39647 0.61100
Na	Na	0.89647 0.60353 0.39647 0.61100
Na	Na	0.39647 0.10353 0.89647 0.61100
Na	Na	0.39647 0.89647 0.60353 0.61100
Na	Na	0.89647 0.39647 0.10353 0.61100
Na	Na	0.10353 0.10353 0.10353 0.61100
Na	Na	0.60353 0.60353 0.60353 0.61100
Br	Br	0.67066 0.91427 0.37080 -0.09700
C 	C 	0.66730 0.96200 0.30220 0.03900
C 	C 	0.66600 0.93500 0.24710 0.11500
C 	C 	0.66520 0.02400 0.30980 0.11700
O 	O 	0.66560 0.87980 0.23760 -0.18600
O 	O 	0.66120 0.05240 0.35830 -0.19200
Br	Br	0.17066 0.41427 0.87080 -0.09700
C 	C 	0.16730 0.46200 0.80220 0.03900
C 	C 	0.16600 0.43500 0.74710 0.11500
C 	C 	0.16520 0.52400 0.80980 0.11700
O 	O 	0.16560 0.37980 0.73760 -0.18600
O 	O 	0.16120 0.55240 0.85830 -0.19200
Br	Br	0.82934 0.08573 0.87080 -0.09700
C 	C 	0.83270 0.03800 0.80220 0.03900
C 	C 	0.83400 0.06500 0.74710 0.11500
C 	C 	0.83480 0.97600 0.80980 0.11700
O 	O 	0.83440 0.12020 0.73760 -0.18600
O 	O 	0.83880 0.94760 0.85830 -0.19200
Br	Br	0.32934 0.58573 0.37080 -0.09700
C 	C 	0.33270 0.53800 0.30220 0.03900
C 	C 	0.33400 0.56500 0.24710 0.11500
C 	C 	0.33480 0.47600 0.30980 0.11700
O 	O 	0.33440 0.62020 0.23760 -0.18600
O 	O 	0.33880 0.44760 0.35830 -0.19200
Br	Br	0.17066 0.58573 0.62920 -0.09700
C 	C 	0.16730 0.53800 0.69780 0.03900
C 	C 	0.16600 0.56500 0.75290 0.11500
C 	C 	0.16520 0.47600 0.69020 0.11700
O 	O 	0.16560 0.62020 0.76240 -0.18600
O 	O 	0.16120 0.44760 0.64170 -0.19200
Br	Br	0.67066 0.08573 0.12920 -0.09700
C 	C 	0.66730 0.03800 0.19780 0.03900
C 	C 	0.66600 0.06500 0.25290 0.11500
C 	C 	0.66520 0.97600 0.19020 0.11700
O 	O 	0.66560 0.12020 0.26240 -0.18600
O 	O 	0.66120 0.94760 0.14170 -0.19200
Br	Br	0.32934 0.41427 0.12920 -0.09700
C 	C 	0.33270 0.46200 0.19780 0.03900
C 	C 	0.33400 0.43500 0.25290 0.11500
C 	C 	0.33480 0.52400 0.19020 0.11700
O 	O 	0.33440 0.37980 0.26240 -0.18600
O 	O 	0.33880 0.55240 0.14170 -0.19200
Br	Br	0.82934 0.91427 0.62920 -0.09700
C 	C 	0.83270 0.96200 0.69780 0.03900
C 	C 	0.83400 0.93500 0.75290 0.11500
C 	C 	0.83480 0.02400 0.69020 0.11700
O 	O 	0.83440 0.87980 0.76240 -0.18600
O 	O 	0.83880 0.05240 0.64170 -0.19200
Br	Br	0.91427 0.37080 0.67066 -0.09700
C 	C 	0.96200 0.30220 0.66730 0.03900
C 	C 	0.93500 0.24710 0.66600 0.11500
C 	C 	0.02400 0.30980 0.66520 0.11700
O 	O 	0.87980 0.23760 0.66560 -0.18600
O 	O 	0.05240 0.35830 0.66120 -0.19200
Br	Br	0.41427 0.87080 0.17066 -0.09700
C 	C 	0.46200 0.80220 0.16730 0.03900
C 	C 	0.43500 0.74710 0.16600 0.11500
C 	C 	0.52400 0.80980 0.16520 0.11700
O 	O 	0.37980 0.73760 0.16560 -0.18600
O 	O 	0.55240 0.85830 0.16120 -0.19200
Br	Br	0.08573 0.87080 0.82934 -0.09700
C 	C 	0.03800 0.80220 0.83270 0.03900
C 	C 	0.06500 0.74710 0.83400 0.11500
C 	C 	0.97600 0.80980 0.83480 0.11700
O 	O 	0.12020 0.73760 0.83440 -0.18600
O 	O 	0.94760 0.85830 0.83880 -0.19200
Br	Br	0.58573 0.37080 0.32934 -0.09700
C 	C 	0.53800 0.30220 0.33270 0.03900
C 	C 	0.56500 0.24710 0.33400 0.11500
C 	C 	0.47600 0.30980 0.33480 0.11700
O 	O 	0.62020 0.23760 0.33440 -0.18600
O 	O 	0.44760 0.35830 0.33880 -0.19200
Br	Br	0.58573 0.62920 0.17066 -0.09700
C 	C 	0.53800 0.69780 0.16730 0.03900
C 	C 	0.56500 0.75290 0.16600 0.11500
C 	C 	0.47600 0.69020 0.16520 0.11700
O 	O 	0.62020 0.76240 0.16560 -0.18600
O 	O 	0.44760 0.64170 0.16120 -0.19200
Br	Br	0.08573 0.12920 0.67066 -0.09700
C 	C 	0.03800 0.19780 0.66730 0.03900
C 	C 	0.06500 0.25290 0.66600 0.11500
C 	C 	0.97600 0.19020 0.66520 0.11700
O 	O 	0.12020 0.26240 0.66560 -0.18600
O 	O 	0.94760 0.14170 0.66120 -0.19200
Br	Br	0.41427 0.12920 0.32934 -0.09700
C 	C 	0.46200 0.19780 0.33270 0.03900
C 	C 	0.43500 0.25290 0.33400 0.11500
C 	C 	0.52400 0.19020 0.33480 0.11700
O 	O 	0.37980 0.26240 0.33440 -0.18600
O 	O 	0.55240 0.14170 0.33880 -0.19200
Br	Br	0.91427 0.62920 0.82934 -0.09700
C 	C 	0.96200 0.69780 0.83270 0.03900
C 	C 	0.93500 0.75290 0.83400 0.11500
C 	C 	0.02400 0.69020 0.83480 0.11700
O 	O 	0.87980 0.76240 0.83440 -0.18600
O 	O 	0.05240 0.64170 0.83880 -0.19200
Br	Br	0.37080 0.67066 0.91427 -0.09700
C 	C 	0.30220 0.66730 0.96200 0.03900
C 	C 	0.24710 0.66600 0.93500 0.11500
C 	C 	0.30980 0.66520 0.02400 0.11700
O 	O 	0.23760 0.66560 0.87980 -0.18600
O 	O 	0.35830 0.66120 0.05240 -0.19200
Br	Br	0.87080 0.17066 0.41427 -0.09700
C 	C 	0.80220 0.16730 0.46200 0.03900
C 	C 	0.74710 0.16600 0.43500 0.11500
C 	C 	0.80980 0.16520 0.52400 0.11700
O 	O 	0.73760 0.16560 0.37980 -0.18600
O 	O 	0.85830 0.16120 0.55240 -0.19200
Br	Br	0.87080 0.82934 0.08573 -0.09700
C 	C 	0.80220 0.83270 0.03800 0.03900
C 	C 	0.74710 0.83400 0.06500 0.11500
C 	C 	0.80980 0.83480 0.97600 0.11700
O 	O 	0.73760 0.83440 0.12020 -0.18600
O 	O 	0.85830 0.83880 0.94760 -0.19200
Br	Br	0.37080 0.32934 0.58573 -0.09700
C 	C 	0.30220 0.33270 0.53800 0.03900
C 	C 	0.24710 0.33400 0.56500 0.11500
C 	C 	0.30980 0.33480 0.47600 0.11700
O 	O 	0.23760 0.33440 0.62020 -0.18600
O 	O 	0.35830 0.33880 0.44760 -0.19200
Br	Br	0.62920 0.17066 0.58573 -0.09700
C 	C 	0.69780 0.16730 0.53800 0.03900
C 	C 	0.75290 0.16600 0.56500 0.11500
C 	C 	0.69020 0.16520 0.47600 0.11700
O 	O 	0.76240 0.16560 0.62020 -0.18600
O 	O 	0.64170 0.16120 0.44760 -0.19200
Br	Br	0.12920 0.67066 0.08573 -0.09700
C 	C 	0.19780 0.66730 0.03800 0.03900
C 	C 	0.25290 0.66600 0.06500 0.11500
C 	C 	0.19020 0.66520 0.97600 0.11700
O 	O 	0.26240 0.66560 0.12020 -0.18600
O 	O 	0.14170 0.66120 0.94760 -0.19200
Br	Br	0.12920 0.32934 0.41427 -0.09700
C 	C 	0.19780 0.33270 0.46200 0.03900
C 	C 	0.25290 0.33400 0.43500 0.11500
C 	C 	0.19020 0.33480 0.52400 0.11700
O 	O 	0.26240 0.33440 0.37980 -0.18600
O 	O 	0.14170 0.33880 0.55240 -0.19200
Br	Br	0.62920 0.82934 0.91427 -0.09700
C 	C 	0.69780 0.83270 0.96200 0.03900
C 	C 	0.75290 0.83400 0.93500 0.11500
C 	C 	0.69020 0.83480 0.02400 0.11700
O 	O 	0.76240 0.83440 0.87980 -0.18600
O 	O 	0.64170 0.83880 0.05240 -0.19200
Na	Na	0.64647 0.85353 0.14647 0.61100
Na	Na	0.14647 0.35353 0.64647 0.61100
Na	Na	0.85353 0.14647 0.64647 0.61100
Na	Na	0.35353 0.64647 0.14647 0.61100
Na	Na	0.14647 0.64647 0.85353 0.61100
Na	Na	0.64647 0.14647 0.35353 0.61100
Na	Na	0.35353 0.35353 0.35353 0.61100
Na	Na	0.85353 0.85353 0.85353 0.61100
