data_crystal

_cell_length_a 29.87270
_cell_length_b 7.65180
_cell_length_c 22.19240
_cell_angle_alpha 90.00000
_cell_angle_beta  122.86700
_cell_angle_gamma 90.00000

_symmetry_space_group_name_	'P 1'
_symmetry_space_group_name_H-M	'P 1'

loop_
_symmetry_equiv_pos_as_xyz
  x,y,z

loop_
_atom_site_label
_atom_site_type_symbol
_atom_site_fract_x
_atom_site_fract_y
_atom_site_fract_z
_atom_site_charge
U 	U 	0.59010 0.61287 0.23915 0.02400
S 	S 	0.54982 0.51545 0.48184 0.11900
S 	S 	0.76617 0.65947 0.53279 -0.49400
O 	O 	0.57913 0.64280 0.33643 -0.17600
O 	O 	0.50236 0.64160 0.32883 -0.16800
O 	O 	0.64822 0.44920 0.68882 -0.17600
O 	O 	0.56379 0.38920 0.61455 -0.18500
C 	C 	0.55171 0.62840 0.36326 0.29700
C 	C 	0.58104 0.59730 0.44192 -0.05600
C 	C 	0.63396 0.62420 0.49113 -0.01700
H 	H 	0.65770 0.67140 0.47930 0.07000
C 	C 	0.64985 0.57510 0.56108 0.00000
H 	H 	0.68530 0.58570 0.60160 0.06200
C 	C 	0.60862 0.51050 0.56400 -0.06800
C 	C 	0.60759 0.44530 0.62605 0.29200
O 	O 	0.67337 0.52870 0.33028 -0.04500
O 	O 	0.73290 0.36770 0.42232 -0.12600
O 	O 	0.82297 0.87340 0.66413 -0.11100
O 	O 	0.78276 0.12690 0.61294 -0.04700
C 	C 	0.71120 0.50590 0.39480 0.05600
C 	C 	0.72878 0.66970 0.43980 0.09600
C 	C 	0.71777 0.84090 0.41636 0.24800
H 	H 	0.69810 0.87350 0.36720 -0.00800
C 	C 	0.73881 0.96160 0.47310 0.29300
H 	H 	0.73570 0.08480 0.46680 -0.02500
C 	C 	0.76435 0.88070 0.53860 0.04300
C 	C 	0.79200 0.96900 0.60940 0.10700
U 	U 	0.09010 0.11287 0.23915 0.02300
S 	S 	0.04982 0.01545 0.48184 0.11800
S 	S 	0.26617 0.15947 0.53279 -0.49600
O 	O 	0.07913 0.14280 0.33643 -0.17700
O 	O 	0.00236 0.14160 0.32883 -0.16800
O 	O 	0.14822 0.94920 0.68882 -0.17600
O 	O 	0.06379 0.88920 0.61455 -0.18500
C 	C 	0.05171 0.12840 0.36326 0.29700
C 	C 	0.08104 0.09730 0.44192 -0.05600
C 	C 	0.13396 0.12420 0.49113 -0.01700
H 	H 	0.15770 0.17140 0.47930 0.07000
C 	C 	0.14985 0.07510 0.56108 0.00000
H 	H 	0.18530 0.08570 0.60160 0.06200
C 	C 	0.10862 0.01050 0.56400 -0.06800
C 	C 	0.10759 0.94530 0.62605 0.29200
O 	O 	0.17337 0.02870 0.33028 -0.04500
O 	O 	0.23290 0.86770 0.42232 -0.12700
O 	O 	0.32297 0.37340 0.66413 -0.11100
O 	O 	0.28276 0.62690 0.61294 -0.04900
C 	C 	0.21120 0.00590 0.39480 0.05600
C 	C 	0.22878 0.16970 0.43980 0.09600
C 	C 	0.21777 0.34090 0.41636 0.24600
H 	H 	0.19810 0.37350 0.36720 -0.00700
C 	C 	0.23881 0.46160 0.47310 0.29400
H 	H 	0.23570 0.58480 0.46680 -0.02600
C 	C 	0.26435 0.38070 0.53860 0.04300
C 	C 	0.29200 0.46900 0.60940 0.10700
U 	U 	0.40990 0.61287 0.26085 0.02300
S 	S 	0.45018 0.51545 0.01816 0.11800
S 	S 	0.23383 0.65947 0.96721 -0.49500
O 	O 	0.42087 0.64280 0.16357 -0.17700
O 	O 	0.49764 0.64160 0.17117 -0.16800
O 	O 	0.35178 0.44920 0.81118 -0.17600
O 	O 	0.43621 0.38920 0.88545 -0.18500
C 	C 	0.44829 0.62840 0.13674 0.29700
C 	C 	0.41896 0.59730 0.05808 -0.05600
C 	C 	0.36604 0.62420 0.00887 -0.01600
H 	H 	0.34230 0.67140 0.02070 0.07000
C 	C 	0.35015 0.57510 0.93892 -0.00000
H 	H 	0.31470 0.58570 0.89840 0.06200
C 	C 	0.39138 0.51050 0.93600 -0.06800
C 	C 	0.39241 0.44530 0.87395 0.29200
O 	O 	0.32663 0.52870 0.16972 -0.04500
O 	O 	0.26710 0.36770 0.07768 -0.12600
O 	O 	0.17703 0.87340 0.83587 -0.11100
O 	O 	0.21724 0.12690 0.88706 -0.04700
C 	C 	0.28880 0.50590 0.10520 0.05600
C 	C 	0.27122 0.66970 0.06020 0.09600
C 	C 	0.28223 0.84090 0.08364 0.24800
H 	H 	0.30190 0.87350 0.13280 -0.00800
C 	C 	0.26119 0.96160 0.02690 0.29400
H 	H 	0.26430 0.08480 0.03320 -0.02500
C 	C 	0.23565 0.88070 0.96140 0.04300
C 	C 	0.20800 0.96900 0.89060 0.10700
U 	U 	0.90990 0.11287 0.26085 0.02300
S 	S 	0.95018 0.01545 0.01816 0.11700
S 	S 	0.73383 0.15947 0.96721 -0.49600
O 	O 	0.92087 0.14280 0.16357 -0.17700
O 	O 	0.99764 0.14160 0.17117 -0.16800
O 	O 	0.85178 0.94920 0.81118 -0.17600
O 	O 	0.93621 0.88920 0.88545 -0.18500
C 	C 	0.94829 0.12840 0.13674 0.29700
C 	C 	0.91896 0.09730 0.05808 -0.05500
C 	C 	0.86604 0.12420 0.00887 -0.01700
H 	H 	0.84230 0.17140 0.02070 0.07000
C 	C 	0.85015 0.07510 0.93892 0.00100
H 	H 	0.81470 0.08570 0.89840 0.06200
C 	C 	0.89138 0.01050 0.93600 -0.06700
C 	C 	0.89241 0.94530 0.87395 0.29200
O 	O 	0.82663 0.02870 0.16972 -0.04500
O 	O 	0.76710 0.86770 0.07768 -0.12700
O 	O 	0.67703 0.37340 0.83587 -0.11100
O 	O 	0.71724 0.62690 0.88706 -0.04900
C 	C 	0.78880 0.00590 0.10520 0.05600
C 	C 	0.77122 0.16970 0.06020 0.09500
C 	C 	0.78223 0.34090 0.08364 0.24700
H 	H 	0.80190 0.37350 0.13280 -0.00700
C 	C 	0.76119 0.46160 0.02690 0.29400
H 	H 	0.76430 0.58480 0.03320 -0.02600
C 	C 	0.73565 0.38070 0.96140 0.04300
C 	C 	0.70800 0.46900 0.89060 0.10700
U 	U 	0.40990 0.38713 0.76085 0.02300
S 	S 	0.45018 0.48455 0.51816 0.11800
S 	S 	0.23383 0.34053 0.46721 -0.49500
O 	O 	0.42087 0.35720 0.66357 -0.17700
O 	O 	0.49764 0.35840 0.67117 -0.16800
O 	O 	0.35178 0.55080 0.31118 -0.17600
O 	O 	0.43621 0.61080 0.38545 -0.18500
C 	C 	0.44829 0.37160 0.63674 0.29700
C 	C 	0.41896 0.40270 0.55808 -0.05600
C 	C 	0.36604 0.37580 0.50887 -0.01700
H 	H 	0.34230 0.32860 0.52070 0.07000
C 	C 	0.35015 0.42490 0.43892 0.00000
H 	H 	0.31470 0.41430 0.39840 0.06200
C 	C 	0.39138 0.48950 0.43600 -0.06800
C 	C 	0.39241 0.55470 0.37395 0.29200
O 	O 	0.32663 0.47130 0.66972 -0.04500
O 	O 	0.26710 0.63230 0.57768 -0.12600
O 	O 	0.17703 0.12660 0.33587 -0.11100
O 	O 	0.21724 0.87310 0.38706 -0.04700
C 	C 	0.28880 0.49410 0.60520 0.05600
C 	C 	0.27122 0.33030 0.56020 0.09600
C 	C 	0.28223 0.15910 0.58364 0.24800
H 	H 	0.30190 0.12650 0.63280 -0.00800
C 	C 	0.26119 0.03840 0.52690 0.29300
H 	H 	0.26430 0.91520 0.53320 -0.02500
C 	C 	0.23565 0.11930 0.46140 0.04300
C 	C 	0.20800 0.03100 0.39060 0.10700
U 	U 	0.90990 0.88713 0.76085 0.02300
S 	S 	0.95018 0.98455 0.51816 0.11800
S 	S 	0.73383 0.84053 0.46721 -0.49600
O 	O 	0.92087 0.85720 0.66357 -0.17700
O 	O 	0.99764 0.85840 0.67117 -0.16800
O 	O 	0.85178 0.05080 0.31118 -0.17600
O 	O 	0.93621 0.11080 0.38545 -0.18500
C 	C 	0.94829 0.87160 0.63674 0.29700
C 	C 	0.91896 0.90270 0.55808 -0.05600
C 	C 	0.86604 0.87580 0.50887 -0.01700
H 	H 	0.84230 0.82860 0.52070 0.07000
C 	C 	0.85015 0.92490 0.43892 0.00000
H 	H 	0.81470 0.91430 0.39840 0.06200
C 	C 	0.89138 0.98950 0.43600 -0.06800
C 	C 	0.89241 0.05470 0.37395 0.29200
O 	O 	0.82663 0.97130 0.66972 -0.04500
O 	O 	0.76710 0.13230 0.57768 -0.12700
O 	O 	0.67703 0.62660 0.33587 -0.11100
O 	O 	0.71724 0.37310 0.38706 -0.04900
C 	C 	0.78880 0.99410 0.60520 0.05600
C 	C 	0.77122 0.83030 0.56020 0.09600
C 	C 	0.78223 0.65910 0.58364 0.24600
H 	H 	0.80190 0.62650 0.63280 -0.00700
C 	C 	0.76119 0.53840 0.52690 0.29400
H 	H 	0.76430 0.41520 0.53320 -0.02600
C 	C 	0.73565 0.61930 0.46140 0.04300
C 	C 	0.70800 0.53100 0.39060 0.10700
U 	U 	0.59010 0.38713 0.73915 0.02300
S 	S 	0.54982 0.48455 0.98184 0.11800
S 	S 	0.76617 0.34053 0.03279 -0.49500
O 	O 	0.57913 0.35720 0.83643 -0.17700
O 	O 	0.50236 0.35840 0.82883 -0.16800
O 	O 	0.64822 0.55080 0.18882 -0.17600
O 	O 	0.56379 0.61080 0.11455 -0.18500
C 	C 	0.55171 0.37160 0.86326 0.29700
C 	C 	0.58104 0.40270 0.94192 -0.05600
C 	C 	0.63396 0.37580 0.99113 -0.01600
H 	H 	0.65770 0.32860 0.97930 0.07000
C 	C 	0.64985 0.42490 0.06108 -0.00000
H 	H 	0.68530 0.41430 0.10160 0.06200
C 	C 	0.60862 0.48950 0.06400 -0.06800
C 	C 	0.60759 0.55470 0.12605 0.29200
O 	O 	0.67337 0.47130 0.83028 -0.04500
O 	O 	0.73290 0.63230 0.92232 -0.12600
O 	O 	0.82297 0.12660 0.16413 -0.11100
O 	O 	0.78276 0.87310 0.11294 -0.04700
C 	C 	0.71120 0.49410 0.89480 0.05600
C 	C 	0.72878 0.33030 0.93980 0.09600
C 	C 	0.71777 0.15910 0.91636 0.24800
H 	H 	0.69810 0.12650 0.86720 -0.00800
C 	C 	0.73881 0.03840 0.97310 0.29400
H 	H 	0.73570 0.91520 0.96680 -0.02500
C 	C 	0.76435 0.11930 0.03860 0.04300
C 	C 	0.79200 0.03100 0.10940 0.10700
U 	U 	0.09010 0.88713 0.73915 0.02300
S 	S 	0.04982 0.98455 0.98184 0.11700
S 	S 	0.26617 0.84053 0.03279 -0.49600
O 	O 	0.07913 0.85720 0.83643 -0.17700
O 	O 	0.00236 0.85840 0.82883 -0.16800
O 	O 	0.14822 0.05080 0.18882 -0.17600
O 	O 	0.06379 0.11080 0.11455 -0.18500
C 	C 	0.05171 0.87160 0.86326 0.29700
C 	C 	0.08104 0.90270 0.94192 -0.05500
C 	C 	0.13396 0.87580 0.99113 -0.01700
H 	H 	0.15770 0.82860 0.97930 0.07000
C 	C 	0.14985 0.92490 0.06108 0.00100
H 	H 	0.18530 0.91430 0.10160 0.06200
C 	C 	0.10862 0.98950 0.06400 -0.06700
C 	C 	0.10759 0.05470 0.12605 0.29200
O 	O 	0.17337 0.97130 0.83028 -0.04500
O 	O 	0.23290 0.13230 0.92232 -0.12700
O 	O 	0.32297 0.62660 0.16413 -0.11100
O 	O 	0.28276 0.37310 0.11294 -0.04900
C 	C 	0.21120 0.99410 0.89480 0.05600
C 	C 	0.22878 0.83030 0.93980 0.09500
C 	C 	0.21777 0.65910 0.91636 0.24700
H 	H 	0.19810 0.62650 0.86720 -0.00700
C 	C 	0.23881 0.53840 0.97310 0.29400
H 	H 	0.23570 0.41520 0.96680 -0.02600
C 	C 	0.26435 0.61930 0.03860 0.04300
C 	C 	0.29200 0.53100 0.10940 0.10700
