data_crystal

_cell_length_a 12.76230
_cell_length_b 8.38310
_cell_length_c 23.96100
_cell_angle_alpha 90.00000
_cell_angle_beta  104.92400
_cell_angle_gamma 90.00000

_symmetry_space_group_name_	'P 1'
_symmetry_space_group_name_H-M	'P 1'

loop_
_symmetry_equiv_pos_as_xyz
  x,y,z

loop_
_atom_site_label
_atom_site_type_symbol
_atom_site_fract_x
_atom_site_fract_y
_atom_site_fract_z
_atom_site_charge
La	La	0.90642 0.71699 0.12520 1.68700
La	La	0.09360 0.00943 0.38315 1.56700
C 	C 	0.97420 0.54520 0.26512 -0.31700
H 	H 	0.03820 0.48280 0.26180 0.11000
H 	H 	0.95250 0.50680 0.29960 0.13000
C 	C 	0.00450 0.72060 0.27279 0.43500
C 	C 	0.78250 0.57120 0.22612 -0.33300
H 	H 	0.79420 0.67510 0.24640 0.12600
H 	H 	0.76130 0.49250 0.25200 0.14700
C 	C 	0.69170 0.58750 0.17123 0.42900
C 	C 	0.04020 0.39860 0.08880 -0.34000
H 	H 	0.02540 0.44060 0.04890 0.13100
H 	H 	0.06690 0.28770 0.08870 0.14400
C 	C 	0.12660 0.50070 0.12891 0.43700
C 	C 	0.84780 0.33350 0.06305 -0.34600
H 	H 	0.79480 0.28500 0.08170 0.15000
H 	H 	0.87580 0.24770 0.04240 0.16800
C 	C 	0.78960 0.45720 0.01905 0.44700
C 	C 	0.87580 0.34860 0.19640 -0.08900
H 	H 	0.80140 0.32650 0.17270 0.06000
H 	H 	0.88900 0.28150 0.23150 0.05700
C 	C 	0.95680 0.30550 0.16226 -0.08100
H 	H 	0.03120 0.32550 0.18630 0.04400
H 	H 	0.95050 0.19050 0.15270 0.07200
N 	N 	0.88470 0.51940 0.21333 -0.08800
N 	N 	0.93860 0.39960 0.10814 -0.08100
N 	N 	0.74240 0.99090 0.11319 0.04800
N 	N 	0.05640 0.90020 0.06546 0.05300
O 	O 	0.98850 0.80700 0.22833 -0.42100
O 	O 	0.04540 0.76680 0.32334 -0.43900
O 	O 	0.71690 0.63190 0.12596 -0.42600
O 	O 	0.59780 0.55920 0.17423 -0.45600
O 	O 	0.09460 0.61100 0.15671 -0.41900
O 	O 	0.22320 0.47040 0.13229 -0.46300
O 	O 	0.81830 0.60110 0.02801 -0.46000
O 	O 	0.71590 0.40740 0.97806 -0.45300
O 	O 	0.76000 0.93270 0.06795 -0.21300
O 	O 	0.80690 0.95800 0.16081 -0.24500
O 	O 	0.66380 0.07890 0.11107 -0.14500
O 	O 	0.03600 0.95240 0.11233 -0.23200
O 	O 	0.00700 0.77630 0.04410 -0.23300
O 	O 	0.12150 0.96810 0.04410 -0.13100
O 	O 	0.18850 0.74960 0.43456 -1.26500
H 	H 	0.20290 0.72560 0.41040 0.74600
H 	H 	0.23930 0.78080 0.46740 0.48200
La	La	0.59358 0.21699 0.37480 1.69200
La	La	0.40640 0.50943 0.11685 1.57900
C 	C 	0.52580 0.04520 0.23488 -0.31500
H 	H 	0.46180 0.98280 0.23820 0.11100
H 	H 	0.54750 0.00680 0.20040 0.12900
C 	C 	0.49550 0.22060 0.22721 0.42600
C 	C 	0.71750 0.07120 0.27388 -0.33000
H 	H 	0.70580 0.17510 0.25360 0.12500
H 	H 	0.73870 0.99250 0.24800 0.14600
C 	C 	0.80830 0.08750 0.32877 0.42700
C 	C 	0.45980 0.89860 0.41120 -0.33200
H 	H 	0.47460 0.94060 0.45110 0.12900
H 	H 	0.43310 0.78770 0.41130 0.14500
C 	C 	0.37340 0.00070 0.37109 0.42500
C 	C 	0.65220 0.83350 0.43695 -0.34400
H 	H 	0.70520 0.78500 0.41830 0.14900
H 	H 	0.62420 0.74770 0.45760 0.16800
C 	C 	0.71040 0.95720 0.48095 0.44400
C 	C 	0.62420 0.84860 0.30360 -0.08600
H 	H 	0.69860 0.82650 0.32730 0.05900
H 	H 	0.61100 0.78150 0.26850 0.05600
C 	C 	0.54320 0.80550 0.33774 -0.08700
H 	H 	0.46880 0.82550 0.31370 0.04900
H 	H 	0.54950 0.69050 0.34730 0.07300
N 	N 	0.61530 0.01940 0.28667 -0.08900
N 	N 	0.56140 0.89960 0.39186 -0.08100
N 	N 	0.75760 0.49090 0.38681 0.04800
N 	N 	0.44360 0.40020 0.43454 0.05300
O 	O 	0.51150 0.30700 0.27167 -0.41500
O 	O 	0.45460 0.26680 0.17666 -0.44100
O 	O 	0.78310 0.13190 0.37404 -0.42500
O 	O 	0.90220 0.05920 0.32577 -0.45200
O 	O 	0.40540 0.11100 0.34329 -0.41900
O 	O 	0.27680 0.97040 0.36771 -0.45300
O 	O 	0.68170 0.10110 0.47199 -0.45600
O 	O 	0.78410 0.90740 0.52194 -0.45400
O 	O 	0.74000 0.43270 0.43205 -0.21000
O 	O 	0.69310 0.45800 0.33919 -0.24300
O 	O 	0.83620 0.57890 0.38893 -0.14700
O 	O 	0.46400 0.45240 0.38767 -0.23800
O 	O 	0.49300 0.27630 0.45590 -0.23500
O 	O 	0.37850 0.46810 0.45590 -0.13400
O 	O 	0.31150 0.24960 0.06544 -1.26800
H 	H 	0.29710 0.22560 0.08960 0.74500
H 	H 	0.26070 0.28080 0.03260 0.48100
La	La	0.09358 0.28301 0.87480 1.68800
La	La	0.90640 0.99057 0.61685 1.56800
C 	C 	0.02580 0.45480 0.73488 -0.31700
H 	H 	0.96180 0.51720 0.73820 0.11000
H 	H 	0.04750 0.49320 0.70040 0.13000
C 	C 	0.99550 0.27940 0.72721 0.43500
C 	C 	0.21750 0.42880 0.77388 -0.33300
H 	H 	0.20580 0.32490 0.75360 0.12600
H 	H 	0.23870 0.50750 0.74800 0.14700
C 	C 	0.30830 0.41250 0.82877 0.42900
C 	C 	0.95980 0.60140 0.91120 -0.34000
H 	H 	0.97460 0.55940 0.95110 0.13100
H 	H 	0.93310 0.71230 0.91130 0.14400
C 	C 	0.87340 0.49930 0.87109 0.43700
C 	C 	0.15220 0.66650 0.93695 -0.34600
H 	H 	0.20520 0.71500 0.91830 0.15000
H 	H 	0.12420 0.75230 0.95760 0.16800
C 	C 	0.21040 0.54280 0.98095 0.44700
C 	C 	0.12420 0.65140 0.80360 -0.08900
H 	H 	0.19860 0.67350 0.82730 0.06000
H 	H 	0.11100 0.71850 0.76850 0.05700
C 	C 	0.04320 0.69450 0.83774 -0.08100
H 	H 	0.96880 0.67450 0.81370 0.04400
H 	H 	0.04950 0.80950 0.84730 0.07200
N 	N 	0.11530 0.48060 0.78667 -0.08800
N 	N 	0.06140 0.60040 0.89186 -0.08100
N 	N 	0.25760 0.00910 0.88681 0.04800
N 	N 	0.94360 0.09980 0.93454 0.05300
O 	O 	0.01150 0.19300 0.77167 -0.42100
O 	O 	0.95460 0.23320 0.67666 -0.43900
O 	O 	0.28310 0.36810 0.87404 -0.42600
O 	O 	0.40220 0.44080 0.82577 -0.45600
O 	O 	0.90540 0.38900 0.84329 -0.41900
O 	O 	0.77680 0.52960 0.86771 -0.46300
O 	O 	0.18170 0.39890 0.97199 -0.46000
O 	O 	0.28410 0.59260 0.02194 -0.45300
O 	O 	0.24000 0.06730 0.93205 -0.21300
O 	O 	0.19310 0.04200 0.83919 -0.24500
O 	O 	0.33620 0.92110 0.88893 -0.14500
O 	O 	0.96400 0.04760 0.88767 -0.23200
O 	O 	0.99300 0.22370 0.95590 -0.23300
O 	O 	0.87850 0.03190 0.95590 -0.13100
O 	O 	0.81150 0.25040 0.56544 -1.26500
H 	H 	0.79710 0.27440 0.58960 0.74600
H 	H 	0.76070 0.21920 0.53260 0.48200
La	La	0.40642 0.78301 0.62520 1.69200
La	La	0.59360 0.49057 0.88315 1.57900
C 	C 	0.47420 0.95480 0.76512 -0.31500
H 	H 	0.53820 0.01720 0.76180 0.11100
H 	H 	0.45250 0.99320 0.79960 0.12900
C 	C 	0.50450 0.77940 0.77279 0.42600
C 	C 	0.28250 0.92880 0.72612 -0.33000
H 	H 	0.29420 0.82490 0.74640 0.12500
H 	H 	0.26130 0.00750 0.75200 0.14600
C 	C 	0.19170 0.91250 0.67123 0.42700
C 	C 	0.54020 0.10140 0.58880 -0.33200
H 	H 	0.52540 0.05940 0.54890 0.12900
H 	H 	0.56690 0.21230 0.58870 0.14500
C 	C 	0.62660 0.99930 0.62891 0.42500
C 	C 	0.34780 0.16650 0.56305 -0.34400
H 	H 	0.29480 0.21500 0.58170 0.14900
H 	H 	0.37580 0.25230 0.54240 0.16800
C 	C 	0.28960 0.04280 0.51905 0.44400
C 	C 	0.37580 0.15140 0.69640 -0.08600
H 	H 	0.30140 0.17350 0.67270 0.05900
H 	H 	0.38900 0.21850 0.73150 0.05600
C 	C 	0.45680 0.19450 0.66226 -0.08700
H 	H 	0.53120 0.17450 0.68630 0.04900
H 	H 	0.45050 0.30950 0.65270 0.07300
N 	N 	0.38470 0.98060 0.71333 -0.08900
N 	N 	0.43860 0.10040 0.60814 -0.08100
N 	N 	0.24240 0.50910 0.61319 0.04800
N 	N 	0.55640 0.59980 0.56546 0.05300
O 	O 	0.48850 0.69300 0.72833 -0.41500
O 	O 	0.54540 0.73320 0.82334 -0.44100
O 	O 	0.21690 0.86810 0.62596 -0.42500
O 	O 	0.09780 0.94080 0.67423 -0.45200
O 	O 	0.59460 0.88900 0.65671 -0.41900
O 	O 	0.72320 0.02960 0.63229 -0.45300
O 	O 	0.31830 0.89890 0.52801 -0.45600
O 	O 	0.21590 0.09260 0.47806 -0.45400
O 	O 	0.26000 0.56730 0.56795 -0.21000
O 	O 	0.30690 0.54200 0.66081 -0.24300
O 	O 	0.16380 0.42110 0.61107 -0.14700
O 	O 	0.53600 0.54760 0.61233 -0.23800
O 	O 	0.50700 0.72370 0.54410 -0.23500
O 	O 	0.62150 0.53190 0.54410 -0.13400
O 	O 	0.68850 0.75040 0.93456 -1.26800
H 	H 	0.70290 0.77440 0.91040 0.74500
H 	H 	0.73930 0.71920 0.96740 0.48100
